164616861
  -OEChem-09292322432D

 57 60  0     1  0  0  0  0  0999 V2000
    2.0000   -6.3284    0.0000 Cl  0  0  0  0  0  0  0  0  0  0  0  0
    6.2431    3.2905    0.0000 O   0  0  0  0  0  0  0  0  0  0  0  0
    8.8691    1.7558    0.0000 O   0  0  0  0  0  0  0  0  0  0  0  0
    8.8812    5.8251    0.0000 O   0  0  0  0  0  0  0  0  0  0  0  0
    2.8255   -2.8186    0.0000 O   0  0  0  0  0  0  0  0  0  0  0  0
    6.2431    1.2212    0.0000 N   0  0  3  0  0  0  0  0  0  0  0  0
    4.5574   -2.7986    0.0000 N   0  0  0  0  0  0  0  0  0  0  0  0
    7.1370    1.7558    0.0000 C   0  0  1  0  0  0  0  0  0  0  0  0
    7.1370    2.7558    0.0000 C   0  0  1  0  0  0  0  0  0  0  0  0
    5.3370    1.7350    0.0000 C   0  0  0  0  0  0  0  0  0  0  0  0
    8.0031    1.2558    0.0000 C   0  0  0  0  0  0  0  0  0  0  0  0
    6.2547    0.2212    0.0000 C   0  0  0  0  0  0  0  0  0  0  0  0
    8.0031    3.2558    0.0000 C   0  0  0  0  0  0  0  0  0  0  0  0
    5.3370    2.7766    0.0000 C   0  0  0  0  0  0  0  0  0  0  0  0
    5.3945   -0.2888    0.0000 C   0  0  0  0  0  0  0  0  0  0  0  0
    8.8691    2.7558    0.0000 C   0  0  0  0  0  0  0  0  0  0  0  0
    7.9870    4.2973    0.0000 C   0  0  0  0  0  0  0  0  0  0  0  0
    5.4060   -1.2887    0.0000 C   0  0  0  0  0  0  0  0  0  0  0  0
    9.7791    3.2627    0.0000 C   0  0  0  0  0  0  0  0  0  0  0  0
    8.8851    4.8251    0.0000 C   0  0  0  0  0  0  0  0  0  0  0  0
    4.5459   -1.7987    0.0000 C   0  0  0  0  0  0  0  0  0  0  0  0
    9.7871    4.3043    0.0000 C   0  0  0  0  0  0  0  0  0  0  0  0
    3.6972   -3.3086    0.0000 C   0  0  0  0  0  0  0  0  0  0  0  0
    9.7453    6.3284    0.0000 C   0  0  0  0  0  0  0  0  0  0  0  0
    3.7088   -4.3085    0.0000 C   0  0  0  0  0  0  0  0  0  0  0  0
    2.8486   -4.8185    0.0000 C   0  0  0  0  0  0  0  0  0  0  0  0
    4.5806   -4.7985    0.0000 C   0  0  0  0  0  0  0  0  0  0  0  0
    2.8602   -5.8184    0.0000 C   0  0  0  0  0  0  0  0  0  0  0  0
    4.5921   -5.7984    0.0000 C   0  0  0  0  0  0  0  0  0  0  0  0
    3.7319   -6.3084    0.0000 C   0  0  0  0  0  0  0  0  0  0  0  0
    7.1436    0.9058    0.0000 H   0  0  0  0  0  0  0  0  0  0  0  0
    7.1436    3.6058    0.0000 H   0  0  0  0  0  0  0  0  0  0  0  0
    4.7262    1.8411    0.0000 H   0  0  0  0  0  0  0  0  0  0  0  0
    5.1280    1.1513    0.0000 H   0  0  0  0  0  0  0  0  0  0  0  0
    7.6046    0.7809    0.0000 H   0  0  0  0  0  0  0  0  0  0  0  0
    8.4016    0.7809    0.0000 H   0  0  0  0  0  0  0  0  0  0  0  0
    6.4734   -0.3589    0.0000 H   0  0  0  0  0  0  0  0  0  0  0  0
    6.8640    0.3359    0.0000 H   0  0  0  0  0  0  0  0  0  0  0  0
    5.1280    3.3603    0.0000 H   0  0  0  0  0  0  0  0  0  0  0  0
    4.7262    2.6705    0.0000 H   0  0  0  0  0  0  0  0  0  0  0  0
    5.1757    0.2914    0.0000 H   0  0  0  0  0  0  0  0  0  0  0  0
    4.7852   -0.4035    0.0000 H   0  0  0  0  0  0  0  0  0  0  0  0
    7.4465    4.6011    0.0000 H   0  0  0  0  0  0  0  0  0  0  0  0
    5.6248   -1.8688    0.0000 H   0  0  0  0  0  0  0  0  0  0  0  0
    6.0154   -1.1740    0.0000 H   0  0  0  0  0  0  0  0  0  0  0  0
   10.3124    2.9465    0.0000 H   0  0  0  0  0  0  0  0  0  0  0  0
    4.3271   -1.2186    0.0000 H   0  0  0  0  0  0  0  0  0  0  0  0
    3.9366   -1.9134    0.0000 H   0  0  0  0  0  0  0  0  0  0  0  0
   10.3253    4.6122    0.0000 H   0  0  0  0  0  0  0  0  0  0  0  0
    5.0979   -3.1024    0.0000 H   0  0  0  0  0  0  0  0  0  0  0  0
   10.0574    5.7927    0.0000 H   0  0  0  0  0  0  0  0  0  0  0  0
   10.2810    6.6405    0.0000 H   0  0  0  0  0  0  0  0  0  0  0  0
    9.4332    6.8642    0.0000 H   0  0  0  0  0  0  0  0  0  0  0  0
    2.3081   -4.5147    0.0000 H   0  0  0  0  0  0  0  0  0  0  0  0
    5.1139   -4.4823    0.0000 H   0  0  0  0  0  0  0  0  0  0  0  0
    5.1326   -6.1022    0.0000 H   0  0  0  0  0  0  0  0  0  0  0  0
    3.7391   -6.9283    0.0000 H   0  0  0  0  0  0  0  0  0  0  0  0
  1 28  1  0  0  0  0
  2  9  1  0  0  0  0
  2 14  1  0  0  0  0
  3 11  1  0  0  0  0
  3 16  1  0  0  0  0
  4 20  1  0  0  0  0
  4 24  1  0  0  0  0
  5 23  2  0  0  0  0
  6  8  1  0  0  0  0
  6 10  1  0  0  0  0
  6 12  1  0  0  0  0
  7 21  1  0  0  0  0
  7 23  1  0  0  0  0
  7 50  1  0  0  0  0
  8  9  1  0  0  0  0
  8 11  1  0  0  0  0
  8 31  1  6  0  0  0
  9 13  1  0  0  0  0
  9 32  1  1  0  0  0
 10 14  1  0  0  0  0
 10 33  1  0  0  0  0
 10 34  1  0  0  0  0
 11 35  1  0  0  0  0
 11 36  1  0  0  0  0
 12 15  1  0  0  0  0
 12 37  1  0  0  0  0
 12 38  1  0  0  0  0
 13 16  2  0  0  0  0
 13 17  1  0  0  0  0
 14 39  1  0  0  0  0
 14 40  1  0  0  0  0
 15 18  1  0  0  0  0
 15 41  1  0  0  0  0
 15 42  1  0  0  0  0
 16 19  1  0  0  0  0
 17 20  2  0  0  0  0
 17 43  1  0  0  0  0
 18 21  1  0  0  0  0
 18 44  1  0  0  0  0
 18 45  1  0  0  0  0
 19 22  2  0  0  0  0
 19 46  1  0  0  0  0
 20 22  1  0  0  0  0
 21 47  1  0  0  0  0
 21 48  1  0  0  0  0
 22 49  1  0  0  0  0
 23 25  1  0  0  0  0
 24 51  1  0  0  0  0
 24 52  1  0  0  0  0
 24 53  1  0  0  0  0
 25 26  2  0  0  0  0
 25 27  1  0  0  0  0
 26 28  1  0  0  0  0
 26 54  1  0  0  0  0
 27 29  2  0  0  0  0
 27 55  1  0  0  0  0
 28 30  2  0  0  0  0
 29 30  1  0  0  0  0
 29 56  1  0  0  0  0
 30 57  1  0  0  0  0
M  END
> <PUBCHEM_COMPOUND_CID>
164616861

> <PUBCHEM_COMPOUND_CANONICALIZED>
1

> <PUBCHEM_CACTVS_COMPLEXITY>
565

> <PUBCHEM_CACTVS_HBOND_ACCEPTOR>
5

> <PUBCHEM_CACTVS_HBOND_DONOR>
1

> <PUBCHEM_CACTVS_ROTATABLE_BOND>
7

> <PUBCHEM_CACTVS_SUBSKEYS>
AAADceB7OAAEAAAAAAAAAAAAAAAAAAAAAAA8aIEAAAAAAACxQAAAHgIQAAAADD7hmCYyBoPABACIAiFSEACCCAAkJQAIiIEODsgOJzKFtxuHOSjl1hGYqYf42LOOAQABIAAIAAACAAJAABAAAAAAAAAAAA==

> <PUBCHEM_IUPAC_OPENEYE_NAME>
N-[4-[(4aR,10bR)-9-methoxy-3,4a,5,10b-tetrahydro-2H-chromeno[4,3-b][1,4]oxazin-4-yl]butyl]-3-chloro-benzamide

> <PUBCHEM_IUPAC_CAS_NAME>
N-[4-[(4aR,10bR)-9-methoxy-3,4a,5,10b-tetrahydro-2H-[1]benzopyrano[4,3-b][1,4]oxazin-4-yl]butyl]-3-chlorobenzamide

> <PUBCHEM_IUPAC_NAME_MARKUP>
<I>N</I>-[4-[(4<I>a</I><I>R</I>,10<I>b</I><I>R</I>)-9-methoxy-3,4<I>a</I>,5,10<I>b</I>-tetrahydro-2<I>H</I>-chromeno[4,3-b][1,4]oxazin-4-yl]butyl]-3-chlorobenzamide

> <PUBCHEM_IUPAC_NAME>
N-[4-[(4aR,10bR)-9-methoxy-3,4a,5,10b-tetrahydro-2H-chromeno[4,3-b][1,4]oxazin-4-yl]butyl]-3-chlorobenzamide

> <PUBCHEM_IUPAC_SYSTEMATIC_NAME>
N-[4-[(4aR,10bR)-9-methoxy-3,4a,5,10b-tetrahydro-2H-chromeno[4,3-b][1,4]oxazin-4-yl]butyl]-3-chloranyl-benzamide

> <PUBCHEM_IUPAC_TRADITIONAL_NAME>
N-[4-[(4aR,10bR)-9-methoxy-3,4a,5,10b-tetrahydro-2H-chromeno[4,3-b][1,4]oxazin-4-yl]butyl]-3-chloro-benzamide

> <PUBCHEM_IUPAC_INCHI>
InChI=1S/C23H27ClN2O4/c1-28-18-7-8-21-19(14-18)22-20(15-30-21)26(11-12-29-22)10-3-2-9-25-23(27)16-5-4-6-17(24)13-16/h4-8,13-14,20,22H,2-3,9-12,15H2,1H3,(H,25,27)/t20-,22-/m1/s1

> <PUBCHEM_IUPAC_INCHIKEY>
QYLUGTRKTMWTBF-IFMALSPDSA-N

> <PUBCHEM_XLOGP3>
3.7

> <PUBCHEM_EXACT_MASS>
430.1659350

> <PUBCHEM_MOLECULAR_FORMULA>
C23H27ClN2O4

> <PUBCHEM_MOLECULAR_WEIGHT>
430.9

> <PUBCHEM_OPENEYE_CAN_SMILES>
COC1=CC2=C(C=C1)OCC3C2OCCN3CCCCNC(=O)C4=CC(=CC=C4)Cl

> <PUBCHEM_OPENEYE_ISO_SMILES>
COC1=CC2=C(C=C1)OC[C@@H]3[C@@H]2OCCN3CCCCNC(=O)C4=CC(=CC=C4)Cl

> <PUBCHEM_CACTVS_TPSA>
60

> <PUBCHEM_MONOISOTOPIC_WEIGHT>
430.1659350

> <PUBCHEM_TOTAL_CHARGE>
0

> <PUBCHEM_HEAVY_ATOM_COUNT>
30

> <PUBCHEM_ATOM_DEF_STEREO_COUNT>
2

> <PUBCHEM_ATOM_UDEF_STEREO_COUNT>
0

> <PUBCHEM_BOND_DEF_STEREO_COUNT>
0

> <PUBCHEM_BOND_UDEF_STEREO_COUNT>
0

> <PUBCHEM_ISOTOPIC_ATOM_COUNT>
0

> <PUBCHEM_COMPONENT_COUNT>
1

> <PUBCHEM_CACTVS_TAUTO_COUNT>
-1

> <PUBCHEM_COORDINATE_TYPE>
1
5
255

> <PUBCHEM_BONDANNOTATIONS>
13  16  8
13  17  8
16  19  8
17  20  8
19  22  8
20  22  8
25  26  8
25  27  8
26  28  8
27  29  8
28  30  8
29  30  8
8  31  6
9  32  5

$$$$
