10983150
  -OEChem-09292322112D

 55 58  0     0  0  0  0  0  0999 V2000
   12.7619   -1.7436    0.0000 Cl  0  0  0  0  0  0  0  0  0  0  0  0
   13.7619   -3.4757    0.0000 Cl  0  0  0  0  0  0  0  0  0  0  0  0
    4.9889    4.3417    0.0000 O   0  0  0  0  0  0  0  0  0  0  0  0
    4.9889    0.8312    0.0000 O   0  0  0  0  0  0  0  0  0  0  0  0
    9.7619   -0.0116    0.0000 N   0  0  0  0  0  0  0  0  0  0  0  0
   10.7619   -1.7436    0.0000 N   0  0  0  0  0  0  0  0  0  0  0  0
    5.2619    2.5865    0.0000 N   0  0  0  0  0  0  0  0  0  0  0  0
    9.2619   -0.8776    0.0000 C   0  0  0  0  0  0  0  0  0  0  0  0
   10.7619   -0.0116    0.0000 C   0  0  0  0  0  0  0  0  0  0  0  0
    9.2619    0.8544    0.0000 C   0  0  0  0  0  0  0  0  0  0  0  0
    9.7619   -1.7436    0.0000 C   0  0  0  0  0  0  0  0  0  0  0  0
   11.2619   -0.8776    0.0000 C   0  0  0  0  0  0  0  0  0  0  0  0
    8.2619    0.8544    0.0000 C   0  0  0  0  0  0  0  0  0  0  0  0
    7.7619    1.7204    0.0000 C   0  0  0  0  0  0  0  0  0  0  0  0
    6.7619    1.7204    0.0000 C   0  0  0  0  0  0  0  0  0  0  0  0
   11.2619   -2.6097    0.0000 C   0  0  0  0  0  0  0  0  0  0  0  0
    6.2619    2.5865    0.0000 C   0  0  0  0  0  0  0  0  0  0  0  0
   12.2619   -2.6097    0.0000 C   0  0  0  0  0  0  0  0  0  0  0  0
   10.7619   -3.4757    0.0000 C   0  0  0  0  0  0  0  0  0  0  0  0
    4.6783    3.3912    0.0000 C   0  0  0  0  0  0  0  0  0  0  0  0
    4.6783    1.7817    0.0000 C   0  0  0  0  0  0  0  0  0  0  0  0
    3.7320    3.0865    0.0000 C   0  0  0  0  0  0  0  0  0  0  0  0
    3.7320    2.0865    0.0000 C   0  0  0  0  0  0  0  0  0  0  0  0
   12.7619   -3.4757    0.0000 C   0  0  0  0  0  0  0  0  0  0  0  0
   11.2619   -4.3417    0.0000 C   0  0  0  0  0  0  0  0  0  0  0  0
   12.2619   -4.3417    0.0000 C   0  0  0  0  0  0  0  0  0  0  0  0
    2.8660    3.5865    0.0000 C   0  0  0  0  0  0  0  0  0  0  0  0
    2.8660    1.5865    0.0000 C   0  0  0  0  0  0  0  0  0  0  0  0
    2.0000    3.0865    0.0000 C   0  0  0  0  0  0  0  0  0  0  0  0
    2.0000    2.0865    0.0000 C   0  0  0  0  0  0  0  0  0  0  0  0
    8.7869   -0.4791    0.0000 H   0  0  0  0  0  0  0  0  0  0  0  0
    8.7869   -1.2761    0.0000 H   0  0  0  0  0  0  0  0  0  0  0  0
   11.3445    0.2005    0.0000 H   0  0  0  0  0  0  0  0  0  0  0  0
   10.6542    0.5990    0.0000 H   0  0  0  0  0  0  0  0  0  0  0  0
    9.8445    1.0665    0.0000 H   0  0  0  0  0  0  0  0  0  0  0  0
    9.1542    1.4650    0.0000 H   0  0  0  0  0  0  0  0  0  0  0  0
    9.1793   -1.9557    0.0000 H   0  0  0  0  0  0  0  0  0  0  0  0
    9.8695   -2.3542    0.0000 H   0  0  0  0  0  0  0  0  0  0  0  0
   11.7368   -1.2761    0.0000 H   0  0  0  0  0  0  0  0  0  0  0  0
   11.7368   -0.4791    0.0000 H   0  0  0  0  0  0  0  0  0  0  0  0
    7.6793    0.6424    0.0000 H   0  0  0  0  0  0  0  0  0  0  0  0
    8.3695    0.2438    0.0000 H   0  0  0  0  0  0  0  0  0  0  0  0
    8.3445    1.9325    0.0000 H   0  0  0  0  0  0  0  0  0  0  0  0
    7.6542    2.3310    0.0000 H   0  0  0  0  0  0  0  0  0  0  0  0
    6.1793    1.5084    0.0000 H   0  0  0  0  0  0  0  0  0  0  0  0
    6.8695    1.1099    0.0000 H   0  0  0  0  0  0  0  0  0  0  0  0
    6.8445    2.7985    0.0000 H   0  0  0  0  0  0  0  0  0  0  0  0
    6.1542    3.1971    0.0000 H   0  0  0  0  0  0  0  0  0  0  0  0
   10.1419   -3.4757    0.0000 H   0  0  0  0  0  0  0  0  0  0  0  0
   10.9519   -4.8787    0.0000 H   0  0  0  0  0  0  0  0  0  0  0  0
   12.5719   -4.8787    0.0000 H   0  0  0  0  0  0  0  0  0  0  0  0
    2.8660    4.2065    0.0000 H   0  0  0  0  0  0  0  0  0  0  0  0
    2.8660    0.9665    0.0000 H   0  0  0  0  0  0  0  0  0  0  0  0
    1.4631    3.3965    0.0000 H   0  0  0  0  0  0  0  0  0  0  0  0
    1.4631    1.7765    0.0000 H   0  0  0  0  0  0  0  0  0  0  0  0
  1 18  1  0  0  0  0
  2 24  1  0  0  0  0
  3 20  2  0  0  0  0
  4 21  2  0  0  0  0
  5  8  1  0  0  0  0
  5  9  1  0  0  0  0
  5 10  1  0  0  0  0
  6 11  1  0  0  0  0
  6 12  1  0  0  0  0
  6 16  1  0  0  0  0
  7 17  1  0  0  0  0
  7 20  1  0  0  0  0
  7 21  1  0  0  0  0
  8 11  1  0  0  0  0
  8 31  1  0  0  0  0
  8 32  1  0  0  0  0
  9 12  1  0  0  0  0
  9 33  1  0  0  0  0
  9 34  1  0  0  0  0
 10 13  1  0  0  0  0
 10 35  1  0  0  0  0
 10 36  1  0  0  0  0
 11 37  1  0  0  0  0
 11 38  1  0  0  0  0
 12 39  1  0  0  0  0
 12 40  1  0  0  0  0
 13 14  1  0  0  0  0
 13 41  1  0  0  0  0
 13 42  1  0  0  0  0
 14 15  1  0  0  0  0
 14 43  1  0  0  0  0
 14 44  1  0  0  0  0
 15 17  1  0  0  0  0
 15 45  1  0  0  0  0
 15 46  1  0  0  0  0
 16 18  2  0  0  0  0
 16 19  1  0  0  0  0
 17 47  1  0  0  0  0
 17 48  1  0  0  0  0
 18 24  1  0  0  0  0
 19 25  2  0  0  0  0
 19 49  1  0  0  0  0
 20 22  1  0  0  0  0
 21 23  1  0  0  0  0
 22 23  1  0  0  0  0
 22 27  2  0  0  0  0
 23 28  2  0  0  0  0
 24 26  2  0  0  0  0
 25 26  1  0  0  0  0
 25 50  1  0  0  0  0
 26 51  1  0  0  0  0
 27 29  1  0  0  0  0
 27 52  1  0  0  0  0
 28 30  1  0  0  0  0
 28 53  1  0  0  0  0
 29 30  2  0  0  0  0
 29 54  1  0  0  0  0
 30 55  1  0  0  0  0
M  END
> <PUBCHEM_COMPOUND_CID>
10983150

> <PUBCHEM_COMPOUND_CANONICALIZED>
1

> <PUBCHEM_CACTVS_COMPLEXITY>
587

> <PUBCHEM_CACTVS_HBOND_ACCEPTOR>
4

> <PUBCHEM_CACTVS_HBOND_DONOR>
0

> <PUBCHEM_CACTVS_ROTATABLE_BOND>
7

> <PUBCHEM_CACTVS_SUBSKEYS>
AAADceB7MAAGAAAAAAAAAAAAAAAAAWAAAAA8YIAAAAAAAFgBQAAAHgIAAAAADArBmCQwwIMAAACIAiVSUACCAAAlBwAIikEIZsgIYDLBl5HUIQhghiDIyYcdiICOgAAAAAIQABQAAAAABCAAKAAAAAAAAA==

> <PUBCHEM_IUPAC_OPENEYE_NAME>
2-[5-[4-(2,3-dichlorophenyl)piperazin-1-yl]pentyl]isoindoline-1,3-dione

> <PUBCHEM_IUPAC_CAS_NAME>
2-[5-[4-(2,3-dichlorophenyl)-1-piperazinyl]pentyl]isoindole-1,3-dione

> <PUBCHEM_IUPAC_NAME_MARKUP>
2-[5-[4-(2,3-dichlorophenyl)piperazin-1-yl]pentyl]isoindole-1,3-dione

> <PUBCHEM_IUPAC_NAME>
2-[5-[4-(2,3-dichlorophenyl)piperazin-1-yl]pentyl]isoindole-1,3-dione

> <PUBCHEM_IUPAC_SYSTEMATIC_NAME>
2-[5-[4-[2,3-bis(chloranyl)phenyl]piperazin-1-yl]pentyl]isoindole-1,3-dione

> <PUBCHEM_IUPAC_TRADITIONAL_NAME>
2-[5-[4-(2,3-dichlorophenyl)piperazino]pentyl]isoindoline-1,3-quinone

> <PUBCHEM_IUPAC_INCHI>
InChI=1S/C23H25Cl2N3O2/c24-19-9-6-10-20(21(19)25)27-15-13-26(14-16-27)11-4-1-5-12-28-22(29)17-7-2-3-8-18(17)23(28)30/h2-3,6-10H,1,4-5,11-16H2

> <PUBCHEM_IUPAC_INCHIKEY>
HZMBQYFOWZCHKD-UHFFFAOYSA-N

> <PUBCHEM_XLOGP3_AA>
4.9

> <PUBCHEM_EXACT_MASS>
445.1323824

> <PUBCHEM_MOLECULAR_FORMULA>
C23H25Cl2N3O2

> <PUBCHEM_MOLECULAR_WEIGHT>
446.4

> <PUBCHEM_OPENEYE_CAN_SMILES>
C1CN(CCN1CCCCCN2C(=O)C3=CC=CC=C3C2=O)C4=C(C(=CC=C4)Cl)Cl

> <PUBCHEM_OPENEYE_ISO_SMILES>
C1CN(CCN1CCCCCN2C(=O)C3=CC=CC=C3C2=O)C4=C(C(=CC=C4)Cl)Cl

> <PUBCHEM_CACTVS_TPSA>
43.9

> <PUBCHEM_MONOISOTOPIC_WEIGHT>
445.1323824

> <PUBCHEM_TOTAL_CHARGE>
0

> <PUBCHEM_HEAVY_ATOM_COUNT>
30

> <PUBCHEM_ATOM_DEF_STEREO_COUNT>
0

> <PUBCHEM_ATOM_UDEF_STEREO_COUNT>
0

> <PUBCHEM_BOND_DEF_STEREO_COUNT>
0

> <PUBCHEM_BOND_UDEF_STEREO_COUNT>
0

> <PUBCHEM_ISOTOPIC_ATOM_COUNT>
0

> <PUBCHEM_COMPONENT_COUNT>
1

> <PUBCHEM_CACTVS_TAUTO_COUNT>
-1

> <PUBCHEM_COORDINATE_TYPE>
1
5
255

> <PUBCHEM_BONDANNOTATIONS>
16  18  8
16  19  8
18  24  8
19  25  8
22  23  8
22  27  8
23  28  8
24  26  8
25  26  8
27  29  8
28  30  8
29  30  8

$$$$
