45271738
  -OEChem-09292322282D

 60 64  0     1  0  0  0  0  0999 V2000
    3.4932   -4.0373    0.0000 Cl  0  0  0  0  0  0  0  0  0  0  0  0
    5.0681    0.4865    0.0000 O   0  0  0  0  0  0  0  0  0  0  0  0
    8.7318    1.5799    0.0000 N   0  0  3  0  0  0  0  0  0  0  0  0
    6.7318   -0.1521    0.0000 N   0  0  0  0  0  0  0  0  0  0  0  0
    5.5293   -1.2348    0.0000 N   0  0  0  0  0  0  0  0  0  0  0  0
    9.8719    3.0547    0.0000 C   0  0  1  0  0  0  0  0  0  0  0  0
   10.1307    2.0888    0.0000 C   0  0  2  0  0  0  0  0  0  0  0  0
   10.6085    4.0373    0.0000 C   0  0  0  0  0  0  0  0  0  0  0  0
   11.9051    2.7436    0.0000 C   0  0  0  0  0  0  0  0  0  0  0  0
    8.4729    2.5459    0.0000 C   0  0  0  0  0  0  0  0  0  0  0  0
   12.1807    1.7823    0.0000 C   0  0  3  0  0  0  0  0  0  0  0  0
   11.3517    1.2231    0.0000 C   0  0  0  0  0  0  0  0  0  0  0  0
    9.6130    4.0206    0.0000 C   0  0  0  0  0  0  0  0  0  0  0  0
    8.2318    0.7139    0.0000 C   0  0  0  0  0  0  0  0  0  0  0  0
   13.1204    1.4403    0.0000 C   0  0  0  0  0  0  0  0  0  0  0  0
    7.2318    0.7139    0.0000 C   0  0  0  0  0  0  0  0  0  0  0  0
   13.2941    0.4555    0.0000 C   0  0  0  0  0  0  0  0  0  0  0  0
   13.8865    2.0831    0.0000 C   0  0  0  0  0  0  0  0  0  0  0  0
    7.1385   -1.0656    0.0000 C   0  0  0  0  0  0  0  0  0  0  0  0
   14.2338    0.1134    0.0000 C   0  0  0  0  0  0  0  0  0  0  0  0
   14.8262    1.7410    0.0000 C   0  0  0  0  0  0  0  0  0  0  0  0
    5.7372   -0.2566    0.0000 C   0  0  0  0  0  0  0  0  0  0  0  0
    6.3953   -1.7348    0.0000 C   0  0  0  0  0  0  0  0  0  0  0  0
   14.9998    0.7562    0.0000 C   0  0  0  0  0  0  0  0  0  0  0  0
    4.6158   -1.6415    0.0000 C   0  0  0  0  0  0  0  0  0  0  0  0
    4.5112   -2.6360    0.0000 C   0  0  0  0  0  0  0  0  0  0  0  0
    3.8068   -1.0537    0.0000 C   0  0  0  0  0  0  0  0  0  0  0  0
    3.5977   -3.0428    0.0000 C   0  0  0  0  0  0  0  0  0  0  0  0
    2.8932   -1.4605    0.0000 C   0  0  0  0  0  0  0  0  0  0  0  0
    2.7887   -2.4550    0.0000 C   0  0  0  0  0  0  0  0  0  0  0  0
   10.3507    1.2677    0.0000 H   0  0  0  0  0  0  0  0  0  0  0  0
   10.2907    4.5697    0.0000 H   0  0  0  0  0  0  0  0  0  0  0  0
   11.2216    4.1293    0.0000 H   0  0  0  0  0  0  0  0  0  0  0  0
   11.9102    3.3635    0.0000 H   0  0  0  0  0  0  0  0  0  0  0  0
   12.5194    2.8273    0.0000 H   0  0  0  0  0  0  0  0  0  0  0  0
    7.8790    2.3681    0.0000 H   0  0  0  0  0  0  0  0  0  0  0  0
    8.2780    3.1344    0.0000 H   0  0  0  0  0  0  0  0  0  0  0  0
   12.2563    1.1669    0.0000 H   0  0  0  0  0  0  0  0  0  0  0  0
   11.7576    0.7544    0.0000 H   0  0  0  0  0  0  0  0  0  0  0  0
   10.9351    0.7640    0.0000 H   0  0  0  0  0  0  0  0  0  0  0  0
    9.0142    3.8602    0.0000 H   0  0  0  0  0  0  0  0  0  0  0  0
    9.4526    4.6195    0.0000 H   0  0  0  0  0  0  0  0  0  0  0  0
   10.2119    4.1811    0.0000 H   0  0  0  0  0  0  0  0  0  0  0  0
    8.8144    0.5019    0.0000 H   0  0  0  0  0  0  0  0  0  0  0  0
    8.1241    0.1033    0.0000 H   0  0  0  0  0  0  0  0  0  0  0  0
    6.6491    0.9260    0.0000 H   0  0  0  0  0  0  0  0  0  0  0  0
    7.3394    1.3245    0.0000 H   0  0  0  0  0  0  0  0  0  0  0  0
   12.8191    0.0569    0.0000 H   0  0  0  0  0  0  0  0  0  0  0  0
   13.7788    2.6936    0.0000 H   0  0  0  0  0  0  0  0  0  0  0  0
    7.6754   -0.7557    0.0000 H   0  0  0  0  0  0  0  0  0  0  0  0
    7.5029   -1.5672    0.0000 H   0  0  0  0  0  0  0  0  0  0  0  0
   14.3414   -0.4971    0.0000 H   0  0  0  0  0  0  0  0  0  0  0  0
   15.3011    2.1396    0.0000 H   0  0  0  0  0  0  0  0  0  0  0  0
    6.8561   -2.1496    0.0000 H   0  0  0  0  0  0  0  0  0  0  0  0
    6.0309   -2.2364    0.0000 H   0  0  0  0  0  0  0  0  0  0  0  0
   15.5824    0.5442    0.0000 H   0  0  0  0  0  0  0  0  0  0  0  0
    5.0128   -3.0005    0.0000 H   0  0  0  0  0  0  0  0  0  0  0  0
    3.8716   -0.4371    0.0000 H   0  0  0  0  0  0  0  0  0  0  0  0
    2.3916   -1.0960    0.0000 H   0  0  0  0  0  0  0  0  0  0  0  0
    2.2223   -2.7072    0.0000 H   0  0  0  0  0  0  0  0  0  0  0  0
  1 28  1  0  0  0  0
  2 22  2  0  0  0  0
  3  7  1  0  0  0  0
  3 10  1  0  0  0  0
  3 14  1  0  0  0  0
  4 16  1  0  0  0  0
  4 19  1  0  0  0  0
  4 22  1  0  0  0  0
  5 22  1  0  0  0  0
  5 23  1  0  0  0  0
  5 25  1  0  0  0  0
  6  8  1  0  0  0  0
  6  9  1  0  0  0  0
  6 10  1  0  0  0  0
  6 13  1  6  0  0  0
  7  8  1  0  0  0  0
  7 12  1  0  0  0  0
  7 31  1  1  0  0  0
  8 32  1  0  0  0  0
  8 33  1  0  0  0  0
  9 11  1  0  0  0  0
  9 34  1  0  0  0  0
  9 35  1  0  0  0  0
 10 36  1  0  0  0  0
 10 37  1  0  0  0  0
 11 12  1  0  0  0  0
 11 15  1  0  0  0  0
 11 38  1  0  0  0  0
 12 39  1  0  0  0  0
 12 40  1  0  0  0  0
 13 41  1  0  0  0  0
 13 42  1  0  0  0  0
 13 43  1  0  0  0  0
 14 16  1  0  0  0  0
 14 44  1  0  0  0  0
 14 45  1  0  0  0  0
 15 17  2  0  0  0  0
 15 18  1  0  0  0  0
 16 46  1  0  0  0  0
 16 47  1  0  0  0  0
 17 20  1  0  0  0  0
 17 48  1  0  0  0  0
 18 21  2  0  0  0  0
 18 49  1  0  0  0  0
 19 23  1  0  0  0  0
 19 50  1  0  0  0  0
 19 51  1  0  0  0  0
 20 24  2  0  0  0  0
 20 52  1  0  0  0  0
 21 24  1  0  0  0  0
 21 53  1  0  0  0  0
 23 54  1  0  0  0  0
 23 55  1  0  0  0  0
 24 56  1  0  0  0  0
 25 26  2  0  0  0  0
 25 27  1  0  0  0  0
 26 28  1  0  0  0  0
 26 57  1  0  0  0  0
 27 29  2  0  0  0  0
 27 58  1  0  0  0  0
 28 30  2  0  0  0  0
 29 30  1  0  0  0  0
 29 59  1  0  0  0  0
 30 60  1  0  0  0  0
M  END
> <PUBCHEM_COMPOUND_CID>
45271738

> <PUBCHEM_COMPOUND_CANONICALIZED>
1

> <PUBCHEM_CACTVS_COMPLEXITY>
624

> <PUBCHEM_CACTVS_HBOND_ACCEPTOR>
2

> <PUBCHEM_CACTVS_HBOND_DONOR>
0

> <PUBCHEM_CACTVS_ROTATABLE_BOND>
5

> <PUBCHEM_CACTVS_SUBSKEYS>
AAADceB7IAAEAAAAAAAAAAAAAAAAAWLAAAAwYMAABYAAAAABQAAAHgIAAAAADyrBGCQzwIMAAACIAiRCUACCAAAhBwAIiAAIZoiIYCLBk5GUIAhohgLIyCcQgMAPgAAAAAIAAAAAAASABAAAAAAAAAAAAA==

> <PUBCHEM_IUPAC_OPENEYE_NAME>
1-(3-chlorophenyl)-3-[2-[(1R,5S)-1-methyl-3-phenyl-6-azabicyclo[3.2.1]octan-6-yl]ethyl]imidazolidin-2-one

> <PUBCHEM_IUPAC_CAS_NAME>
1-(3-chlorophenyl)-3-[2-[(1R,5S)-1-methyl-3-phenyl-6-azabicyclo[3.2.1]octan-6-yl]ethyl]-2-imidazolidinone

> <PUBCHEM_IUPAC_NAME_MARKUP>
1-(3-chlorophenyl)-3-[2-[(1<I>R</I>,5<I>S</I>)-1-methyl-3-phenyl-6-azabicyclo[3.2.1]octan-6-yl]ethyl]imidazolidin-2-one

> <PUBCHEM_IUPAC_NAME>
1-(3-chlorophenyl)-3-[2-[(1R,5S)-1-methyl-3-phenyl-6-azabicyclo[3.2.1]octan-6-yl]ethyl]imidazolidin-2-one

> <PUBCHEM_IUPAC_SYSTEMATIC_NAME>
1-(3-chlorophenyl)-3-[2-[(1R,5S)-1-methyl-3-phenyl-6-azabicyclo[3.2.1]octan-6-yl]ethyl]imidazolidin-2-one

> <PUBCHEM_IUPAC_TRADITIONAL_NAME>
1-(3-chlorophenyl)-3-[2-[(1R,5S)-1-methyl-3-phenyl-6-azabicyclo[3.2.1]octan-6-yl]ethyl]-2-imidazolidinone

> <PUBCHEM_IUPAC_INCHI>
InChI=1S/C25H30ClN3O/c1-25-16-20(19-6-3-2-4-7-19)14-23(17-25)28(18-25)11-10-27-12-13-29(24(27)30)22-9-5-8-21(26)15-22/h2-9,15,20,23H,10-14,16-18H2,1H3/t20?,23-,25+/m0/s1

> <PUBCHEM_IUPAC_INCHIKEY>
NNCTXKNNQUMOPC-RYORKLGYSA-N

> <PUBCHEM_XLOGP3_AA>
4.8

> <PUBCHEM_EXACT_MASS>
423.2077403

> <PUBCHEM_MOLECULAR_FORMULA>
C25H30ClN3O

> <PUBCHEM_MOLECULAR_WEIGHT>
424.0

> <PUBCHEM_OPENEYE_CAN_SMILES>
CC12CC(CC(C1)N(C2)CCN3CCN(C3=O)C4=CC(=CC=C4)Cl)C5=CC=CC=C5

> <PUBCHEM_OPENEYE_ISO_SMILES>
C[C@]12C[C@H](CC(C1)C3=CC=CC=C3)N(C2)CCN4CCN(C4=O)C5=CC(=CC=C5)Cl

> <PUBCHEM_CACTVS_TPSA>
26.8

> <PUBCHEM_MONOISOTOPIC_WEIGHT>
423.2077403

> <PUBCHEM_TOTAL_CHARGE>
0

> <PUBCHEM_HEAVY_ATOM_COUNT>
30

> <PUBCHEM_ATOM_DEF_STEREO_COUNT>
2

> <PUBCHEM_ATOM_UDEF_STEREO_COUNT>
1

> <PUBCHEM_BOND_DEF_STEREO_COUNT>
0

> <PUBCHEM_BOND_UDEF_STEREO_COUNT>
0

> <PUBCHEM_ISOTOPIC_ATOM_COUNT>
0

> <PUBCHEM_COMPONENT_COUNT>
1

> <PUBCHEM_CACTVS_TAUTO_COUNT>
-1

> <PUBCHEM_COORDINATE_TYPE>
1
5
255

> <PUBCHEM_BONDANNOTATIONS>
11  15  3
15  17  8
15  18  8
17  20  8
18  21  8
20  24  8
21  24  8
25  26  8
25  27  8
26  28  8
27  29  8
28  30  8
29  30  8
6  13  6
7  31  5

$$$$
