5249956
  -OEChem-09292322232D

 40 42  0     0  0  0  0  0  0999 V2000
    3.7841    2.0346    0.0000 N   0  0  0  0  0  0  0  0  0  0  0  0
    3.7841    1.0346    0.0000 C   0  0  0  0  0  0  0  0  0  0  0  0
    4.6501    2.5346    0.0000 C   0  0  0  0  0  0  0  0  0  0  0  0
    2.9180    0.5346    0.0000 C   0  0  0  0  0  0  0  0  0  0  0  0
    5.5161    2.0346    0.0000 C   0  0  0  0  0  0  0  0  0  0  0  0
    4.6501   -0.4654    0.0000 C   0  0  0  0  0  0  0  0  0  0  0  0
    2.9180   -0.4654    0.0000 C   0  0  0  0  0  0  0  0  0  0  0  0
    5.5161    1.0346    0.0000 C   0  0  0  0  0  0  0  0  0  0  0  0
    3.7841   -0.9654    0.0000 C   0  0  0  0  0  0  0  0  0  0  0  0
    4.6501    0.5346    0.0000 C   0  0  0  0  0  0  0  0  0  0  0  0
    2.9180    2.5346    0.0000 C   0  0  0  0  0  0  0  0  0  0  0  0
    2.0080   -0.9722    0.0000 C   0  0  0  0  0  0  0  0  0  0  0  0
    6.9274    0.4575    0.0000 C   0  0  0  0  0  0  0  0  0  0  0  0
    3.8001   -2.0069    0.0000 C   0  0  0  0  0  0  0  0  0  0  0  0
    4.4442   -0.9762    0.0000 C   0  0  0  0  0  0  0  0  0  0  0  0
    2.0000   -2.0138    0.0000 C   0  0  0  0  0  0  0  0  0  0  0  0
    7.0306   -1.0638    0.0000 C   0  0  0  0  0  0  0  0  0  0  0  0
    2.9021   -2.5346    0.0000 C   0  0  0  0  0  0  0  0  0  0  0  0
    5.7101   -1.8261    0.0000 C   0  0  0  0  0  0  0  0  0  0  0  0
    3.9961    0.4520    0.0000 H   0  0  0  0  0  0  0  0  0  0  0  0
    4.3946    1.1423    0.0000 H   0  0  0  0  0  0  0  0  0  0  0  0
    5.0486    3.0096    0.0000 H   0  0  0  0  0  0  0  0  0  0  0  0
    4.2516    3.0096    0.0000 H   0  0  0  0  0  0  0  0  0  0  0  0
    2.7060    1.1172    0.0000 H   0  0  0  0  0  0  0  0  0  0  0  0
    2.3074    0.4270    0.0000 H   0  0  0  0  0  0  0  0  0  0  0  0
    6.1267    1.9270    0.0000 H   0  0  0  0  0  0  0  0  0  0  0  0
    5.7282    2.6172    0.0000 H   0  0  0  0  0  0  0  0  0  0  0  0
    4.8621   -1.0480    0.0000 H   0  0  0  0  0  0  0  0  0  0  0  0
    5.2607   -0.3577    0.0000 H   0  0  0  0  0  0  0  0  0  0  0  0
    3.2280    3.0716    0.0000 H   0  0  0  0  0  0  0  0  0  0  0  0
    2.3811    2.8446    0.0000 H   0  0  0  0  0  0  0  0  0  0  0  0
    2.6080    1.9977    0.0000 H   0  0  0  0  0  0  0  0  0  0  0  0
    1.4747   -0.6560    0.0000 H   0  0  0  0  0  0  0  0  0  0  0  0
    7.4302    0.8203    0.0000 H   0  0  0  0  0  0  0  0  0  0  0  0
    4.3406   -2.3106    0.0000 H   0  0  0  0  0  0  0  0  0  0  0  0
    3.8786   -1.2301    0.0000 H   0  0  0  0  0  0  0  0  0  0  0  0
    1.4619   -2.3217    0.0000 H   0  0  0  0  0  0  0  0  0  0  0  0
    7.5777   -1.3554    0.0000 H   0  0  0  0  0  0  0  0  0  0  0  0
    2.9045   -3.1546    0.0000 H   0  0  0  0  0  0  0  0  0  0  0  0
    5.6891   -2.4458    0.0000 H   0  0  0  0  0  0  0  0  0  0  0  0
  1  2  1  0  0  0  0
  1  3  1  0  0  0  0
  1 11  1  0  0  0  0
  2  4  1  0  0  0  0
  2 20  1  0  0  0  0
  2 21  1  0  0  0  0
  3  5  1  0  0  0  0
  3 22  1  0  0  0  0
  3 23  1  0  0  0  0
  4  7  1  0  0  0  0
  4 24  1  0  0  0  0
  4 25  1  0  0  0  0
  5  8  1  0  0  0  0
  5 26  1  0  0  0  0
  5 27  1  0  0  0  0
  6  9  1  0  0  0  0
  6 10  1  0  0  0  0
  6 28  1  0  0  0  0
  6 29  1  0  0  0  0
  7  9  1  0  0  0  0
  7 12  2  0  0  0  0
  8 10  1  0  0  0  0
  8 13  2  0  0  0  0
  9 14  2  0  0  0  0
 10 15  2  0  0  0  0
 11 30  1  0  0  0  0
 11 31  1  0  0  0  0
 11 32  1  0  0  0  0
 12 16  1  0  0  0  0
 12 33  1  0  0  0  0
 13 17  1  0  0  0  0
 13 34  1  0  0  0  0
 14 18  1  0  0  0  0
 14 35  1  0  0  0  0
 15 19  1  0  0  0  0
 15 36  1  0  0  0  0
 16 18  2  0  0  0  0
 16 37  1  0  0  0  0
 17 19  2  0  0  0  0
 17 38  1  0  0  0  0
 18 39  1  0  0  0  0
 19 40  1  0  0  0  0
M  END
> <PUBCHEM_COMPOUND_CID>
5249956

> <PUBCHEM_COMPOUND_CANONICALIZED>
1

> <PUBCHEM_CACTVS_COMPLEXITY>
249

> <PUBCHEM_CACTVS_HBOND_ACCEPTOR>
1

> <PUBCHEM_CACTVS_HBOND_DONOR>
0

> <PUBCHEM_CACTVS_ROTATABLE_BOND>
0

> <PUBCHEM_CACTVS_SUBSKEYS>
AAADceB6AAAAAAAAAAAAAAAAAAAAAAAAAAAwYAAAAAAAAACxQAAAHAAAAAAADADBGAQyAIMAAACAAiBCAAACAAAgAAAIiAAIAIgIICKAkRGEIAAggACIiAcQgMAOgAAAAAAQAAAAAAAAACAAAAAAAAAAAA==

> <PUBCHEM_IUPAC_OPENEYE_NAME>
11-methyl-11-azatricyclo[12.4.0.03,8]octadeca-1(18),3,5,7,14,16-hexaene

> <PUBCHEM_IUPAC_CAS_NAME>
11-methyl-11-azatricyclo[12.4.0.03,8]octadeca-1(18),3,5,7,14,16-hexaene

> <PUBCHEM_IUPAC_NAME_MARKUP>
11-methyl-11-azatricyclo[12.4.0.0<SUP>3,8</SUP>]octadeca-1(18),3,5,7,14,16-hexaene

> <PUBCHEM_IUPAC_NAME>
11-methyl-11-azatricyclo[12.4.0.03,8]octadeca-1(18),3,5,7,14,16-hexaene

> <PUBCHEM_IUPAC_SYSTEMATIC_NAME>
11-methyl-11-azatricyclo[12.4.0.03,8]octadeca-1(18),3,5,7,14,16-hexaene

> <PUBCHEM_IUPAC_TRADITIONAL_NAME>
11-methyl-11-azatricyclo[12.4.0.03,8]octadeca-1(18),3,5,7,14,16-hexaene

> <PUBCHEM_IUPAC_INCHI>
InChI=1S/C18H21N/c1-19-12-10-15-6-2-4-8-17(15)14-18-9-5-3-7-16(18)11-13-19/h2-9H,10-14H2,1H3

> <PUBCHEM_IUPAC_INCHIKEY>
BXOLXXSMCLYDNG-UHFFFAOYSA-N

> <PUBCHEM_XLOGP3>
4.6

> <PUBCHEM_EXACT_MASS>
251.167399674

> <PUBCHEM_MOLECULAR_FORMULA>
C18H21N

> <PUBCHEM_MOLECULAR_WEIGHT>
251.4

> <PUBCHEM_OPENEYE_CAN_SMILES>
CN1CCC2=CC=CC=C2CC3=CC=CC=C3CC1

> <PUBCHEM_OPENEYE_ISO_SMILES>
CN1CCC2=CC=CC=C2CC3=CC=CC=C3CC1

> <PUBCHEM_CACTVS_TPSA>
3.2

> <PUBCHEM_MONOISOTOPIC_WEIGHT>
251.167399674

> <PUBCHEM_TOTAL_CHARGE>
0

> <PUBCHEM_HEAVY_ATOM_COUNT>
19

> <PUBCHEM_ATOM_DEF_STEREO_COUNT>
0

> <PUBCHEM_ATOM_UDEF_STEREO_COUNT>
0

> <PUBCHEM_BOND_DEF_STEREO_COUNT>
0

> <PUBCHEM_BOND_UDEF_STEREO_COUNT>
0

> <PUBCHEM_ISOTOPIC_ATOM_COUNT>
0

> <PUBCHEM_COMPONENT_COUNT>
1

> <PUBCHEM_CACTVS_TAUTO_COUNT>
-1

> <PUBCHEM_COORDINATE_TYPE>
1
5
255

> <PUBCHEM_BONDANNOTATIONS>
10  15  8
12  16  8
13  17  8
14  18  8
15  19  8
16  18  8
17  19  8
7  12  8
7  9  8
8  10  8
8  13  8
9  14  8

$$$$
