45264008
  -OEChem-09292322122D

 72 74  0     1  0  0  0  0  0999 V2000
    8.3773    0.0000    0.0000 Cl  0  0  0  0  0  0  0  0  0  0  0  0
   16.3547    7.5389    0.0000 S   0  0  0  0  0  0  0  0  0  0  0  0
    0.0000    3.9167    0.0000 F   0  0  0  0  0  0  0  0  0  0  0  0
    6.0000    3.9167    0.0000 O   0  0  0  0  0  0  0  0  0  0  0  0
   16.8581    6.6748    0.0000 O   0  0  0  0  0  0  0  0  0  0  0  0
   15.8514    8.4030    0.0000 O   0  0  0  0  0  0  0  0  0  0  0  0
   11.5000    6.5147    0.0000 N   0  0  3  0  0  0  0  0  0  0  0  0
    6.0000    5.6487    0.0000 N   0  0  0  0  0  0  0  0  0  0  0  0
    9.0000    5.6487    0.0000 C   0  0  0  0  0  0  0  0  0  0  0  0
    8.5000    6.5147    0.0000 C   0  0  0  0  0  0  0  0  0  0  0  0
    8.5000    4.7827    0.0000 C   0  0  0  0  0  0  0  0  0  0  0  0
    7.0000    5.6487    0.0000 C   0  0  0  0  0  0  0  0  0  0  0  0
    7.5000    6.5147    0.0000 C   0  0  0  0  0  0  0  0  0  0  0  0
    7.5000    4.7827    0.0000 C   0  0  0  0  0  0  0  0  0  0  0  0
   10.0000    5.6487    0.0000 C   0  0  0  0  0  0  0  0  0  0  0  0
   10.5000    6.5147    0.0000 C   0  0  0  0  0  0  0  0  0  0  0  0
   11.9339    7.4157    0.0000 C   0  0  0  0  0  0  0  0  0  0  0  0
   11.9339    5.6138    0.0000 C   0  0  0  0  0  0  0  0  0  0  0  0
   12.9088    7.6382    0.0000 C   0  0  0  0  0  0  0  0  0  0  0  0
   12.9088    5.3912    0.0000 C   0  0  0  0  0  0  0  0  0  0  0  0
   13.6906    7.0147    0.0000 C   0  0  0  0  0  0  0  0  0  0  0  0
   13.6906    6.0147    0.0000 C   0  0  0  0  0  0  0  0  0  0  0  0
    5.5000    4.7827    0.0000 C   0  0  0  0  0  0  0  0  0  0  0  0
   14.5846    7.5494    0.0000 C   0  0  0  0  0  0  0  0  0  0  0  0
   14.5846    5.4801    0.0000 C   0  0  0  0  0  0  0  0  0  0  0  0
   15.4907    7.0356    0.0000 C   0  0  0  0  0  0  0  0  0  0  0  0
   15.4907    5.9939    0.0000 C   0  0  0  0  0  0  0  0  0  0  0  0
    4.5000    4.7827    0.0000 C   0  0  0  0  0  0  0  0  0  0  0  0
    4.0000    3.9167    0.0000 C   0  0  0  0  0  0  0  0  0  0  0  0
   17.2188    8.0422    0.0000 C   0  0  0  0  0  0  0  0  0  0  0  0
    3.0000    3.9167    0.0000 C   0  0  0  0  0  0  0  0  0  0  0  0
    2.5000    3.0506    0.0000 C   0  0  0  0  0  0  0  0  0  0  0  0
    2.5000    4.7827    0.0000 C   0  0  0  0  0  0  0  0  0  0  0  0
    1.5000    3.0506    0.0000 C   0  0  0  0  0  0  0  0  0  0  0  0
    1.5000    4.7827    0.0000 C   0  0  0  0  0  0  0  0  0  0  0  0
    1.0000    3.9167    0.0000 C   0  0  0  0  0  0  0  0  0  0  0  0
    9.3100    5.1118    0.0000 H   0  0  0  0  0  0  0  0  0  0  0  0
    9.0826    6.7268    0.0000 H   0  0  0  0  0  0  0  0  0  0  0  0
    8.3923    7.1253    0.0000 H   0  0  0  0  0  0  0  0  0  0  0  0
    8.3923    4.1721    0.0000 H   0  0  0  0  0  0  0  0  0  0  0  0
    9.0826    4.5706    0.0000 H   0  0  0  0  0  0  0  0  0  0  0  0
    6.6900    5.1118    0.0000 H   0  0  0  0  0  0  0  0  0  0  0  0
    7.6077    7.1253    0.0000 H   0  0  0  0  0  0  0  0  0  0  0  0
    6.9174    6.7268    0.0000 H   0  0  0  0  0  0  0  0  0  0  0  0
    6.9174    4.5706    0.0000 H   0  0  0  0  0  0  0  0  0  0  0  0
    7.6077    4.1721    0.0000 H   0  0  0  0  0  0  0  0  0  0  0  0
    9.8923    5.0381    0.0000 H   0  0  0  0  0  0  0  0  0  0  0  0
   10.5826    5.4366    0.0000 H   0  0  0  0  0  0  0  0  0  0  0  0
   10.6077    7.1253    0.0000 H   0  0  0  0  0  0  0  0  0  0  0  0
    9.9174    6.7268    0.0000 H   0  0  0  0  0  0  0  0  0  0  0  0
    5.6900    6.1856    0.0000 H   0  0  0  0  0  0  0  0  0  0  0  0
   11.9339    8.0357    0.0000 H   0  0  0  0  0  0  0  0  0  0  0  0
   11.3294    7.5537    0.0000 H   0  0  0  0  0  0  0  0  0  0  0  0
   11.3294    5.4758    0.0000 H   0  0  0  0  0  0  0  0  0  0  0  0
   11.9339    4.9938    0.0000 H   0  0  0  0  0  0  0  0  0  0  0  0
   13.3935    8.0248    0.0000 H   0  0  0  0  0  0  0  0  0  0  0  0
   12.6398    8.1968    0.0000 H   0  0  0  0  0  0  0  0  0  0  0  0
   12.6398    4.8326    0.0000 H   0  0  0  0  0  0  0  0  0  0  0  0
   13.3935    5.0047    0.0000 H   0  0  0  0  0  0  0  0  0  0  0  0
   14.5774    8.1694    0.0000 H   0  0  0  0  0  0  0  0  0  0  0  0
   14.5774    4.8601    0.0000 H   0  0  0  0  0  0  0  0  0  0  0  0
   16.0264    5.6818    0.0000 H   0  0  0  0  0  0  0  0  0  0  0  0
    4.1900    5.3196    0.0000 H   0  0  0  0  0  0  0  0  0  0  0  0
    4.3100    3.3797    0.0000 H   0  0  0  0  0  0  0  0  0  0  0  0
   17.5309    7.5065    0.0000 H   0  0  0  0  0  0  0  0  0  0  0  0
   17.7546    8.3543    0.0000 H   0  0  0  0  0  0  0  0  0  0  0  0
   16.9068    8.5780    0.0000 H   0  0  0  0  0  0  0  0  0  0  0  0
    2.8100    2.5137    0.0000 H   0  0  0  0  0  0  0  0  0  0  0  0
    2.8100    5.3196    0.0000 H   0  0  0  0  0  0  0  0  0  0  0  0
    1.1900    2.5137    0.0000 H   0  0  0  0  0  0  0  0  0  0  0  0
    1.1900    5.3196    0.0000 H   0  0  0  0  0  0  0  0  0  0  0  0
    9.3773    0.0000    0.0000 H   0  0  0  0  0  0  0  0  0  0  0  0
  1 72  1  0  0  0  0
  2  5  2  0  0  0  0
  2  6  2  0  0  0  0
  2 26  1  0  0  0  0
  2 30  1  0  0  0  0
  3 36  1  0  0  0  0
  4 23  2  0  0  0  0
  7 16  1  0  0  0  0
  7 17  1  0  0  0  0
  7 18  1  0  0  0  0
  8 12  1  0  0  0  0
  8 23  1  0  0  0  0
  8 51  1  0  0  0  0
  9 10  1  0  0  0  0
  9 11  1  0  0  0  0
  9 15  1  0  0  0  0
  9 37  1  0  0  0  0
 10 13  1  0  0  0  0
 10 38  1  0  0  0  0
 10 39  1  0  0  0  0
 11 14  1  0  0  0  0
 11 40  1  0  0  0  0
 11 41  1  0  0  0  0
 12 13  1  0  0  0  0
 12 14  1  0  0  0  0
 12 42  1  0  0  0  0
 13 43  1  0  0  0  0
 13 44  1  0  0  0  0
 14 45  1  0  0  0  0
 14 46  1  0  0  0  0
 15 16  1  0  0  0  0
 15 47  1  0  0  0  0
 15 48  1  0  0  0  0
 16 49  1  0  0  0  0
 16 50  1  0  0  0  0
 17 19  1  0  0  0  0
 17 52  1  0  0  0  0
 17 53  1  0  0  0  0
 18 20  1  0  0  0  0
 18 54  1  0  0  0  0
 18 55  1  0  0  0  0
 19 21  1  0  0  0  0
 19 56  1  0  0  0  0
 19 57  1  0  0  0  0
 20 22  1  0  0  0  0
 20 58  1  0  0  0  0
 20 59  1  0  0  0  0
 21 22  2  0  0  0  0
 21 24  1  0  0  0  0
 22 25  1  0  0  0  0
 23 28  1  0  0  0  0
 24 26  2  0  0  0  0
 24 60  1  0  0  0  0
 25 27  2  0  0  0  0
 25 61  1  0  0  0  0
 26 27  1  0  0  0  0
 27 62  1  0  0  0  0
 28 29  2  0  0  0  0
 28 63  1  0  0  0  0
 29 31  1  0  0  0  0
 29 64  1  0  0  0  0
 30 65  1  0  0  0  0
 30 66  1  0  0  0  0
 30 67  1  0  0  0  0
 31 32  2  0  0  0  0
 31 33  1  0  0  0  0
 32 34  1  0  0  0  0
 32 68  1  0  0  0  0
 33 35  2  0  0  0  0
 33 69  1  0  0  0  0
 34 36  2  0  0  0  0
 34 70  1  0  0  0  0
 35 36  1  0  0  0  0
 35 71  1  0  0  0  0
M  END
> <PUBCHEM_COMPOUND_CID>
45264008

> <PUBCHEM_COMPOUND_CANONICALIZED>
1

> <PUBCHEM_CACTVS_COMPLEXITY>
811

> <PUBCHEM_CACTVS_HBOND_ACCEPTOR>
5

> <PUBCHEM_CACTVS_HBOND_DONOR>
2

> <PUBCHEM_CACTVS_ROTATABLE_BOND>
7

> <PUBCHEM_CACTVS_SUBSKEYS>
AAADcfB7MQBEAAAAAAAAAAAAAAAAAAAAAAAwYMAABYAAAAABQAAAHwQQAAAADSjB2AyyAYPAAAqIAiFSEHDCAAAgCBAIiJgIAMgIICKgkRGEIAAglgCIiYcQgIAOkAAAgAAQAAAwAAEAACAAAAAAAAAAAA==

> <PUBCHEM_IUPAC_OPENEYE_NAME>
(E)-3-(4-fluorophenyl)-N-[4-[2-(7-methylsulfonyl-1,2,4,5-tetrahydro-3-benzazepin-3-yl)ethyl]cyclohexyl]prop-2-enamide;hydrochloride

> <PUBCHEM_IUPAC_CAS_NAME>
(E)-3-(4-fluorophenyl)-N-[4-[2-(7-methylsulfonyl-1,2,4,5-tetrahydro-3-benzazepin-3-yl)ethyl]cyclohexyl]-2-propenamide;hydrochloride

> <PUBCHEM_IUPAC_NAME_MARKUP>
(<I>E</I>)-3-(4-fluorophenyl)-<I>N</I>-[4-[2-(7-methylsulfonyl-1,2,4,5-tetrahydro-3-benzazepin-3-yl)ethyl]cyclohexyl]prop-2-enamide;hydrochloride

> <PUBCHEM_IUPAC_NAME>
(E)-3-(4-fluorophenyl)-N-[4-[2-(7-methylsulfonyl-1,2,4,5-tetrahydro-3-benzazepin-3-yl)ethyl]cyclohexyl]prop-2-enamide;hydrochloride

> <PUBCHEM_IUPAC_SYSTEMATIC_NAME>
(E)-3-(4-fluorophenyl)-N-[4-[2-(7-methylsulfonyl-1,2,4,5-tetrahydro-3-benzazepin-3-yl)ethyl]cyclohexyl]prop-2-enamide;hydrochloride

> <PUBCHEM_IUPAC_TRADITIONAL_NAME>
(E)-3-(4-fluorophenyl)-N-[4-[2-(7-mesyl-1,2,4,5-tetrahydro-3-benzazepin-3-yl)ethyl]cyclohexyl]acrylamide;hydrochloride

> <PUBCHEM_IUPAC_INCHI>
InChI=1S/C28H35FN2O3S.ClH/c1-35(33,34)27-12-7-23-15-18-31(19-16-24(23)20-27)17-14-22-4-10-26(11-5-22)30-28(32)13-6-21-2-8-25(29)9-3-21;/h2-3,6-9,12-13,20,22,26H,4-5,10-11,14-19H2,1H3,(H,30,32);1H/b13-6+;

> <PUBCHEM_IUPAC_INCHIKEY>
GXBDUDDARGRFRF-AWFSDRIXSA-N

> <PUBCHEM_EXACT_MASS>
534.2119200

> <PUBCHEM_MOLECULAR_FORMULA>
C28H36ClFN2O3S

> <PUBCHEM_MOLECULAR_WEIGHT>
535.1

> <PUBCHEM_OPENEYE_CAN_SMILES>
CS(=O)(=O)C1=CC2=C(CCN(CC2)CCC3CCC(CC3)NC(=O)C=CC4=CC=C(C=C4)F)C=C1.Cl

> <PUBCHEM_OPENEYE_ISO_SMILES>
CS(=O)(=O)C1=CC2=C(CCN(CC2)CCC3CCC(CC3)NC(=O)/C=C/C4=CC=C(C=C4)F)C=C1.Cl

> <PUBCHEM_CACTVS_TPSA>
74.9

> <PUBCHEM_MONOISOTOPIC_WEIGHT>
534.2119200

> <PUBCHEM_TOTAL_CHARGE>
0

> <PUBCHEM_HEAVY_ATOM_COUNT>
36

> <PUBCHEM_ATOM_DEF_STEREO_COUNT>
0

> <PUBCHEM_ATOM_UDEF_STEREO_COUNT>
0

> <PUBCHEM_BOND_DEF_STEREO_COUNT>
1

> <PUBCHEM_BOND_UDEF_STEREO_COUNT>
0

> <PUBCHEM_ISOTOPIC_ATOM_COUNT>
0

> <PUBCHEM_COMPONENT_COUNT>
2

> <PUBCHEM_CACTVS_TAUTO_COUNT>
-1

> <PUBCHEM_COORDINATE_TYPE>
1
5
255

> <PUBCHEM_BONDANNOTATIONS>
21  22  8
21  24  8
22  25  8
24  26  8
25  27  8
26  27  8
31  32  8
31  33  8
32  34  8
33  35  8
34  36  8
35  36  8

$$$$
