137633863
  -OEChem-09292322002D

 60 63  0     0  0  0  0  0  0999 V2000
   10.6603   -2.0199    0.0000 O   0  0  0  0  0  0  0  0  0  0  0  0
    2.8660   -1.5199    0.0000 O   0  0  0  0  0  0  0  0  0  0  0  0
   15.8044    1.8921    0.0000 O   0  0  0  0  0  0  0  0  0  0  0  0
    6.3301   -1.5199    0.0000 N   0  0  0  0  0  0  0  0  0  0  0  0
    4.5981   -0.5199    0.0000 N   0  0  0  0  0  0  0  0  0  0  0  0
   13.2583   -1.5199    0.0000 N   0  0  0  0  0  0  0  0  0  0  0  0
   14.2045   -1.8247    0.0000 N   0  0  0  0  0  0  0  0  0  0  0  0
   15.4937    0.9415    0.0000 N   0  0  0  0  0  0  0  0  0  0  0  0
    6.3301   -0.5199    0.0000 C   0  0  0  0  0  0  0  0  0  0  0  0
    5.4641   -2.0199    0.0000 C   0  0  0  0  0  0  0  0  0  0  0  0
    5.4641   -0.0199    0.0000 C   0  0  0  0  0  0  0  0  0  0  0  0
    4.5981   -1.5199    0.0000 C   0  0  0  0  0  0  0  0  0  0  0  0
    7.1962   -2.0199    0.0000 C   0  0  0  0  0  0  0  0  0  0  0  0
    8.0622   -1.5199    0.0000 C   0  0  0  0  0  0  0  0  0  0  0  0
    3.7320   -0.0199    0.0000 C   0  0  0  0  0  0  0  0  0  0  0  0
    8.9282   -2.0199    0.0000 C   0  0  0  0  0  0  0  0  0  0  0  0
    2.8660   -0.5199    0.0000 C   0  0  0  0  0  0  0  0  0  0  0  0
    9.7942   -1.5199    0.0000 C   0  0  0  0  0  0  0  0  0  0  0  0
    3.7320    0.9801    0.0000 C   0  0  0  0  0  0  0  0  0  0  0  0
    2.0000   -0.0199    0.0000 C   0  0  0  0  0  0  0  0  0  0  0  0
    2.8660    1.4801    0.0000 C   0  0  0  0  0  0  0  0  0  0  0  0
    2.0000    0.9801    0.0000 C   0  0  0  0  0  0  0  0  0  0  0  0
   11.5263   -1.5199    0.0000 C   0  0  0  0  0  0  0  0  0  0  0  0
   12.3923   -2.0199    0.0000 C   0  0  0  0  0  0  0  0  0  0  0  0
   11.5263   -0.5199    0.0000 C   0  0  0  0  0  0  0  0  0  0  0  0
    2.0000   -2.0199    0.0000 C   0  0  0  0  0  0  0  0  0  0  0  0
   13.2583   -0.5199    0.0000 C   0  0  0  0  0  0  0  0  0  0  0  0
   12.3923   -0.0199    0.0000 C   0  0  0  0  0  0  0  0  0  0  0  0
   14.2045   -0.2152    0.0000 C   0  0  0  0  0  0  0  0  0  0  0  0
   14.7882   -1.0199    0.0000 C   0  0  0  0  0  0  0  0  0  0  0  0
   14.5152    0.7353    0.0000 C   0  0  0  0  0  0  0  0  0  0  0  0
    6.9407   -0.6276    0.0000 H   0  0  0  0  0  0  0  0  0  0  0  0
    6.5422    0.0627    0.0000 H   0  0  0  0  0  0  0  0  0  0  0  0
    5.0656   -2.4949    0.0000 H   0  0  0  0  0  0  0  0  0  0  0  0
    5.8626   -2.4949    0.0000 H   0  0  0  0  0  0  0  0  0  0  0  0
    5.8626    0.4550    0.0000 H   0  0  0  0  0  0  0  0  0  0  0  0
    5.0656    0.4550    0.0000 H   0  0  0  0  0  0  0  0  0  0  0  0
    3.9875   -1.4123    0.0000 H   0  0  0  0  0  0  0  0  0  0  0  0
    4.3860   -2.1025    0.0000 H   0  0  0  0  0  0  0  0  0  0  0  0
    6.7976   -2.4949    0.0000 H   0  0  0  0  0  0  0  0  0  0  0  0
    7.5947   -2.4949    0.0000 H   0  0  0  0  0  0  0  0  0  0  0  0
    8.4607   -1.0450    0.0000 H   0  0  0  0  0  0  0  0  0  0  0  0
    7.6636   -1.0450    0.0000 H   0  0  0  0  0  0  0  0  0  0  0  0
    8.5297   -2.4949    0.0000 H   0  0  0  0  0  0  0  0  0  0  0  0
    9.3267   -2.4949    0.0000 H   0  0  0  0  0  0  0  0  0  0  0  0
   10.1928   -1.0450    0.0000 H   0  0  0  0  0  0  0  0  0  0  0  0
    9.3957   -1.0450    0.0000 H   0  0  0  0  0  0  0  0  0  0  0  0
    4.2690    1.2901    0.0000 H   0  0  0  0  0  0  0  0  0  0  0  0
    1.4631   -0.3299    0.0000 H   0  0  0  0  0  0  0  0  0  0  0  0
    2.8660    2.1001    0.0000 H   0  0  0  0  0  0  0  0  0  0  0  0
    1.4631    1.2901    0.0000 H   0  0  0  0  0  0  0  0  0  0  0  0
   12.3923   -2.6399    0.0000 H   0  0  0  0  0  0  0  0  0  0  0  0
   10.9893   -0.2099    0.0000 H   0  0  0  0  0  0  0  0  0  0  0  0
    1.6900   -1.4830    0.0000 H   0  0  0  0  0  0  0  0  0  0  0  0
    1.4631   -2.3299    0.0000 H   0  0  0  0  0  0  0  0  0  0  0  0
    2.3100   -2.5569    0.0000 H   0  0  0  0  0  0  0  0  0  0  0  0
   12.3923    0.6001    0.0000 H   0  0  0  0  0  0  0  0  0  0  0  0
   15.4082   -1.0199    0.0000 H   0  0  0  0  0  0  0  0  0  0  0  0
   14.1011    1.1968    0.0000 H   0  0  0  0  0  0  0  0  0  0  0  0
   16.4111    2.0199    0.0000 H   0  0  0  0  0  0  0  0  0  0  0  0
  1 18  1  0  0  0  0
  1 23  1  0  0  0  0
  2 17  1  0  0  0  0
  2 26  1  0  0  0  0
  3  8  1  0  0  0  0
  3 60  1  0  0  0  0
  4  9  1  0  0  0  0
  4 10  1  0  0  0  0
  4 13  1  0  0  0  0
  5 11  1  0  0  0  0
  5 12  1  0  0  0  0
  5 15  1  0  0  0  0
  6  7  1  0  0  0  0
  6 24  1  0  0  0  0
  6 27  1  0  0  0  0
  7 30  2  0  0  0  0
  8 31  2  0  0  0  0
  9 11  1  0  0  0  0
  9 32  1  0  0  0  0
  9 33  1  0  0  0  0
 10 12  1  0  0  0  0
 10 34  1  0  0  0  0
 10 35  1  0  0  0  0
 11 36  1  0  0  0  0
 11 37  1  0  0  0  0
 12 38  1  0  0  0  0
 12 39  1  0  0  0  0
 13 14  1  0  0  0  0
 13 40  1  0  0  0  0
 13 41  1  0  0  0  0
 14 16  1  0  0  0  0
 14 42  1  0  0  0  0
 14 43  1  0  0  0  0
 15 17  1  0  0  0  0
 15 19  2  0  0  0  0
 16 18  1  0  0  0  0
 16 44  1  0  0  0  0
 16 45  1  0  0  0  0
 17 20  2  0  0  0  0
 18 46  1  0  0  0  0
 18 47  1  0  0  0  0
 19 21  1  0  0  0  0
 19 48  1  0  0  0  0
 20 22  1  0  0  0  0
 20 49  1  0  0  0  0
 21 22  2  0  0  0  0
 21 50  1  0  0  0  0
 22 51  1  0  0  0  0
 23 24  2  0  0  0  0
 23 25  1  0  0  0  0
 24 52  1  0  0  0  0
 25 28  2  0  0  0  0
 25 53  1  0  0  0  0
 26 54  1  0  0  0  0
 26 55  1  0  0  0  0
 26 56  1  0  0  0  0
 27 28  1  0  0  0  0
 27 29  2  0  0  0  0
 28 57  1  0  0  0  0
 29 30  1  0  0  0  0
 29 31  1  0  0  0  0
 30 58  1  0  0  0  0
 31 59  1  0  0  0  0
M  END
> <PUBCHEM_COMPOUND_CID>
137633863

> <PUBCHEM_COMPOUND_CANONICALIZED>
1

> <PUBCHEM_CACTVS_COMPLEXITY>
557

> <PUBCHEM_CACTVS_HBOND_ACCEPTOR>
7

> <PUBCHEM_CACTVS_HBOND_DONOR>
1

> <PUBCHEM_CACTVS_ROTATABLE_BOND>
9

> <PUBCHEM_CACTVS_SUBSKEYS>
AAADceB7sAAAAAAAAAAAAAAAAAAAAWAAAAA8WIAAAAAAAFgB8AAAHgAMCAAADAzhngY+xrMYFACiAzRnRASSjCAx4iAY2CA/bJgOZuLE8duXvCjkyBHY6AewwFAMAAAAAAAAEAAAAAAAAAAgAAAAAAAAAA==

> <PUBCHEM_IUPAC_OPENEYE_NAME>
(3E)-6-[4-[4-(2-methoxyphenyl)piperazin-1-yl]butoxy]pyrazolo[1,5-a]pyridine-3-carbaldehyde oxime

> <PUBCHEM_IUPAC_CAS_NAME>
(3E)-6-[4-[4-(2-methoxyphenyl)-1-piperazinyl]butoxy]-3-pyrazolo[1,5-a]pyridinecarboxaldehyde oxime

> <PUBCHEM_IUPAC_NAME_MARKUP>
(<I>N</I><I>E</I>)-<I>N</I>-[[6-[4-[4-(2-methoxyphenyl)piperazin-1-yl]butoxy]pyrazolo[1,5-a]pyridin-3-yl]methylidene]hydroxylamine

> <PUBCHEM_IUPAC_NAME>
(NE)-N-[[6-[4-[4-(2-methoxyphenyl)piperazin-1-yl]butoxy]pyrazolo[1,5-a]pyridin-3-yl]methylidene]hydroxylamine

> <PUBCHEM_IUPAC_SYSTEMATIC_NAME>
(NE)-N-[[6-[4-[4-(2-methoxyphenyl)piperazin-1-yl]butoxy]pyrazolo[1,5-a]pyridin-3-yl]methylidene]hydroxylamine

> <PUBCHEM_IUPAC_TRADITIONAL_NAME>
(3E)-6-[4-[4-(2-methoxyphenyl)piperazino]butoxy]pyrazolo[1,5-a]pyridine-3-carbaldehyde oxime

> <PUBCHEM_IUPAC_INCHI>
InChI=1S/C23H29N5O3/c1-30-23-7-3-2-6-22(23)27-13-11-26(12-14-27)10-4-5-15-31-20-8-9-21-19(17-25-29)16-24-28(21)18-20/h2-3,6-9,16-18,29H,4-5,10-15H2,1H3/b25-17+

> <PUBCHEM_IUPAC_INCHIKEY>
CAAIZYOGVIMUEU-KOEQRZSOSA-N

> <PUBCHEM_XLOGP3_AA>
3.1

> <PUBCHEM_EXACT_MASS>
423.22703980

> <PUBCHEM_MOLECULAR_FORMULA>
C23H29N5O3

> <PUBCHEM_MOLECULAR_WEIGHT>
423.5

> <PUBCHEM_OPENEYE_CAN_SMILES>
COC1=CC=CC=C1N2CCN(CC2)CCCCOC3=CN4C(=C(C=N4)C=NO)C=C3

> <PUBCHEM_OPENEYE_ISO_SMILES>
COC1=CC=CC=C1N2CCN(CC2)CCCCOC3=CN4C(=C(C=N4)/C=N/O)C=C3

> <PUBCHEM_CACTVS_TPSA>
74.8

> <PUBCHEM_MONOISOTOPIC_WEIGHT>
423.22703980

> <PUBCHEM_TOTAL_CHARGE>
0

> <PUBCHEM_HEAVY_ATOM_COUNT>
31

> <PUBCHEM_ATOM_DEF_STEREO_COUNT>
0

> <PUBCHEM_ATOM_UDEF_STEREO_COUNT>
0

> <PUBCHEM_BOND_DEF_STEREO_COUNT>
1

> <PUBCHEM_BOND_UDEF_STEREO_COUNT>
0

> <PUBCHEM_ISOTOPIC_ATOM_COUNT>
0

> <PUBCHEM_COMPONENT_COUNT>
1

> <PUBCHEM_CACTVS_TAUTO_COUNT>
-1

> <PUBCHEM_COORDINATE_TYPE>
1
5
255

> <PUBCHEM_BONDANNOTATIONS>
15  17  8
15  19  8
17  20  8
19  21  8
20  22  8
21  22  8
23  24  8
23  25  8
25  28  8
27  28  8
27  29  8
29  30  8
6  24  8
6  27  8
6  7  8
7  30  8

$$$$
