60165412
  -OEChem-09292322322D

 52 55  0     0  0  0  0  0  0999 V2000
    4.6783    3.7688    0.0000 S   0  0  0  0  0  0  0  0  0  0  0  0
    6.7619    3.8301    0.0000 O   0  0  0  0  0  0  0  0  0  0  0  0
    9.7619    0.3660    0.0000 N   0  0  0  0  0  0  0  0  0  0  0  0
   10.7619   -1.3660    0.0000 N   0  0  0  0  0  0  0  0  0  0  0  0
    4.6783    2.1594    0.0000 N   0  0  0  0  0  0  0  0  0  0  0  0
   10.7619    0.3660    0.0000 C   0  0  0  0  0  0  0  0  0  0  0  0
    9.2619   -0.5000    0.0000 C   0  0  0  0  0  0  0  0  0  0  0  0
   11.2619   -0.5000    0.0000 C   0  0  0  0  0  0  0  0  0  0  0  0
    9.7619   -1.3660    0.0000 C   0  0  0  0  0  0  0  0  0  0  0  0
    9.2619    1.2320    0.0000 C   0  0  0  0  0  0  0  0  0  0  0  0
    8.2619    1.2320    0.0000 C   0  0  0  0  0  0  0  0  0  0  0  0
    7.7619    2.0981    0.0000 C   0  0  0  0  0  0  0  0  0  0  0  0
   11.2619   -2.2320    0.0000 C   0  0  0  0  0  0  0  0  0  0  0  0
    6.7619    2.0981    0.0000 C   0  0  0  0  0  0  0  0  0  0  0  0
   10.7619   -3.0981    0.0000 C   0  0  0  0  0  0  0  0  0  0  0  0
   12.2619   -2.2320    0.0000 C   0  0  0  0  0  0  0  0  0  0  0  0
    6.2619    2.9641    0.0000 C   0  0  0  0  0  0  0  0  0  0  0  0
   11.2619   -3.9641    0.0000 C   0  0  0  0  0  0  0  0  0  0  0  0
   12.7619   -3.0981    0.0000 C   0  0  0  0  0  0  0  0  0  0  0  0
   12.2619   -3.9641    0.0000 C   0  0  0  0  0  0  0  0  0  0  0  0
    5.2619    2.9641    0.0000 C   0  0  0  0  0  0  0  0  0  0  0  0
    3.7320    3.4641    0.0000 C   0  0  0  0  0  0  0  0  0  0  0  0
    3.7320    2.4641    0.0000 C   0  0  0  0  0  0  0  0  0  0  0  0
    2.8660    3.9641    0.0000 C   0  0  0  0  0  0  0  0  0  0  0  0
    2.8660    1.9641    0.0000 C   0  0  0  0  0  0  0  0  0  0  0  0
    2.0000    3.4641    0.0000 C   0  0  0  0  0  0  0  0  0  0  0  0
    2.0000    2.4641    0.0000 C   0  0  0  0  0  0  0  0  0  0  0  0
   11.3445    0.5781    0.0000 H   0  0  0  0  0  0  0  0  0  0  0  0
   10.6542    0.9766    0.0000 H   0  0  0  0  0  0  0  0  0  0  0  0
    8.7869   -0.1015    0.0000 H   0  0  0  0  0  0  0  0  0  0  0  0
    8.7869   -0.8985    0.0000 H   0  0  0  0  0  0  0  0  0  0  0  0
   11.7368   -0.8985    0.0000 H   0  0  0  0  0  0  0  0  0  0  0  0
   11.7368   -0.1015    0.0000 H   0  0  0  0  0  0  0  0  0  0  0  0
    9.1793   -1.5781    0.0000 H   0  0  0  0  0  0  0  0  0  0  0  0
    9.8695   -1.9766    0.0000 H   0  0  0  0  0  0  0  0  0  0  0  0
    9.8445    1.4441    0.0000 H   0  0  0  0  0  0  0  0  0  0  0  0
    9.1542    1.8426    0.0000 H   0  0  0  0  0  0  0  0  0  0  0  0
    7.6793    1.0200    0.0000 H   0  0  0  0  0  0  0  0  0  0  0  0
    8.3695    0.6215    0.0000 H   0  0  0  0  0  0  0  0  0  0  0  0
    8.3445    2.3101    0.0000 H   0  0  0  0  0  0  0  0  0  0  0  0
    7.6542    2.7087    0.0000 H   0  0  0  0  0  0  0  0  0  0  0  0
    6.1793    1.8860    0.0000 H   0  0  0  0  0  0  0  0  0  0  0  0
    6.8695    1.4875    0.0000 H   0  0  0  0  0  0  0  0  0  0  0  0
   10.1419   -3.0981    0.0000 H   0  0  0  0  0  0  0  0  0  0  0  0
   12.5719   -1.6951    0.0000 H   0  0  0  0  0  0  0  0  0  0  0  0
   10.9519   -4.5010    0.0000 H   0  0  0  0  0  0  0  0  0  0  0  0
   13.3819   -3.0981    0.0000 H   0  0  0  0  0  0  0  0  0  0  0  0
   12.5719   -4.5010    0.0000 H   0  0  0  0  0  0  0  0  0  0  0  0
    2.8660    4.5841    0.0000 H   0  0  0  0  0  0  0  0  0  0  0  0
    2.8660    1.3441    0.0000 H   0  0  0  0  0  0  0  0  0  0  0  0
    1.4631    3.7741    0.0000 H   0  0  0  0  0  0  0  0  0  0  0  0
    1.4631    2.1541    0.0000 H   0  0  0  0  0  0  0  0  0  0  0  0
  1 21  1  0  0  0  0
  1 22  1  0  0  0  0
  2 17  2  0  0  0  0
  3  6  1  0  0  0  0
  3  7  1  0  0  0  0
  3 10  1  0  0  0  0
  4  8  1  0  0  0  0
  4  9  1  0  0  0  0
  4 13  1  0  0  0  0
  5 21  2  0  0  0  0
  5 23  1  0  0  0  0
  6  8  1  0  0  0  0
  6 28  1  0  0  0  0
  6 29  1  0  0  0  0
  7  9  1  0  0  0  0
  7 30  1  0  0  0  0
  7 31  1  0  0  0  0
  8 32  1  0  0  0  0
  8 33  1  0  0  0  0
  9 34  1  0  0  0  0
  9 35  1  0  0  0  0
 10 11  1  0  0  0  0
 10 36  1  0  0  0  0
 10 37  1  0  0  0  0
 11 12  1  0  0  0  0
 11 38  1  0  0  0  0
 11 39  1  0  0  0  0
 12 14  1  0  0  0  0
 12 40  1  0  0  0  0
 12 41  1  0  0  0  0
 13 15  2  0  0  0  0
 13 16  1  0  0  0  0
 14 17  1  0  0  0  0
 14 42  1  0  0  0  0
 14 43  1  0  0  0  0
 15 18  1  0  0  0  0
 15 44  1  0  0  0  0
 16 19  2  0  0  0  0
 16 45  1  0  0  0  0
 17 21  1  0  0  0  0
 18 20  2  0  0  0  0
 18 46  1  0  0  0  0
 19 20  1  0  0  0  0
 19 47  1  0  0  0  0
 20 48  1  0  0  0  0
 22 23  1  0  0  0  0
 22 24  2  0  0  0  0
 23 25  2  0  0  0  0
 24 26  1  0  0  0  0
 24 49  1  0  0  0  0
 25 27  1  0  0  0  0
 25 50  1  0  0  0  0
 26 27  2  0  0  0  0
 26 51  1  0  0  0  0
 27 52  1  0  0  0  0
M  END
> <PUBCHEM_COMPOUND_CID>
60165412

> <PUBCHEM_COMPOUND_CANONICALIZED>
1

> <PUBCHEM_CACTVS_COMPLEXITY>
474

> <PUBCHEM_CACTVS_HBOND_ACCEPTOR>
5

> <PUBCHEM_CACTVS_HBOND_DONOR>
0

> <PUBCHEM_CACTVS_ROTATABLE_BOND>
7

> <PUBCHEM_CACTVS_SUBSKEYS>
AAADceB7IABAAAAAAAAAAAAAAAAAAWAAAAA8YIAAAAAAAFgB9AAAHgQAAAAACAzB1gQwwbMIEAisAaRyRACD8KBjCjhImD24ZJgIYLLgkbGUIAhggADoyAcYAQAAAAAAAAAAAQAAAAAAAAACAAAAAAAAAA==

> <PUBCHEM_IUPAC_OPENEYE_NAME>
1-(1,3-benzothiazol-2-yl)-5-(4-phenylpiperazin-1-yl)pentan-1-one

> <PUBCHEM_IUPAC_CAS_NAME>
1-(1,3-benzothiazol-2-yl)-5-(4-phenyl-1-piperazinyl)-1-pentanone

> <PUBCHEM_IUPAC_NAME_MARKUP>
1-(1,3-benzothiazol-2-yl)-5-(4-phenylpiperazin-1-yl)pentan-1-one

> <PUBCHEM_IUPAC_NAME>
1-(1,3-benzothiazol-2-yl)-5-(4-phenylpiperazin-1-yl)pentan-1-one

> <PUBCHEM_IUPAC_SYSTEMATIC_NAME>
1-(1,3-benzothiazol-2-yl)-5-(4-phenylpiperazin-1-yl)pentan-1-one

> <PUBCHEM_IUPAC_TRADITIONAL_NAME>
1-(1,3-benzothiazol-2-yl)-5-(4-phenylpiperazino)pentan-1-one

> <PUBCHEM_IUPAC_INCHI>
InChI=1S/C22H25N3OS/c26-20(22-23-19-10-4-5-12-21(19)27-22)11-6-7-13-24-14-16-25(17-15-24)18-8-2-1-3-9-18/h1-5,8-10,12H,6-7,11,13-17H2

> <PUBCHEM_IUPAC_INCHIKEY>
LDOWCUPEXDHKEP-UHFFFAOYSA-N

> <PUBCHEM_XLOGP3_AA>
4.7

> <PUBCHEM_EXACT_MASS>
379.17183360

> <PUBCHEM_MOLECULAR_FORMULA>
C22H25N3OS

> <PUBCHEM_MOLECULAR_WEIGHT>
379.5

> <PUBCHEM_OPENEYE_CAN_SMILES>
C1CN(CCN1CCCCC(=O)C2=NC3=CC=CC=C3S2)C4=CC=CC=C4

> <PUBCHEM_OPENEYE_ISO_SMILES>
C1CN(CCN1CCCCC(=O)C2=NC3=CC=CC=C3S2)C4=CC=CC=C4

> <PUBCHEM_CACTVS_TPSA>
64.7

> <PUBCHEM_MONOISOTOPIC_WEIGHT>
379.17183360

> <PUBCHEM_TOTAL_CHARGE>
0

> <PUBCHEM_HEAVY_ATOM_COUNT>
27

> <PUBCHEM_ATOM_DEF_STEREO_COUNT>
0

> <PUBCHEM_ATOM_UDEF_STEREO_COUNT>
0

> <PUBCHEM_BOND_DEF_STEREO_COUNT>
0

> <PUBCHEM_BOND_UDEF_STEREO_COUNT>
0

> <PUBCHEM_ISOTOPIC_ATOM_COUNT>
0

> <PUBCHEM_COMPONENT_COUNT>
1

> <PUBCHEM_CACTVS_TAUTO_COUNT>
-1

> <PUBCHEM_COORDINATE_TYPE>
1
5
255

> <PUBCHEM_BONDANNOTATIONS>
1  21  8
1  22  8
13  15  8
13  16  8
15  18  8
16  19  8
18  20  8
19  20  8
22  23  8
22  24  8
23  25  8
24  26  8
25  27  8
26  27  8
5  21  8
5  23  8

$$$$
