10340492
  -OEChem-09292322212D

 57 60  0     0  0  0  0  0  0999 V2000
    9.7884    0.0013    0.0000 O   0  0  0  0  0  0  0  0  0  0  0  0
   13.3185    0.0254    0.0000 O   0  0  0  0  0  0  0  0  0  0  0  0
   15.0506    0.0254    0.0000 O   0  0  0  0  0  0  0  0  0  0  0  0
    6.3243   -0.0121    0.0000 N   0  0  0  0  0  0  0  0  0  0  0  0
    4.5961   -1.0188    0.0000 N   0  0  0  0  0  0  0  0  0  0  0  0
    5.4564    0.4846    0.0000 C   0  0  0  0  0  0  0  0  0  0  0  0
    6.3282   -1.0121    0.0000 C   0  0  0  0  0  0  0  0  0  0  0  0
    4.5923   -0.0188    0.0000 C   0  0  0  0  0  0  0  0  0  0  0  0
    5.4641   -1.5154    0.0000 C   0  0  0  0  0  0  0  0  0  0  0  0
    7.1884    0.4912    0.0000 C   0  0  0  0  0  0  0  0  0  0  0  0
    8.0564   -0.0054    0.0000 C   0  0  0  0  0  0  0  0  0  0  0  0
    3.7320   -1.5221    0.0000 C   0  0  0  0  0  0  0  0  0  0  0  0
    8.9204    0.4979    0.0000 C   0  0  0  0  0  0  0  0  0  0  0  0
    2.8641   -1.0254    0.0000 C   0  0  0  0  0  0  0  0  0  0  0  0
    3.7359   -2.5221    0.0000 C   0  0  0  0  0  0  0  0  0  0  0  0
    2.0000   -1.5288    0.0000 C   0  0  0  0  0  0  0  0  0  0  0  0
    2.8718   -3.0254    0.0000 C   0  0  0  0  0  0  0  0  0  0  0  0
   10.6525    0.5046    0.0000 C   0  0  0  0  0  0  0  0  0  0  0  0
    2.0038   -2.5288    0.0000 C   0  0  0  0  0  0  0  0  0  0  0  0
   12.4525    1.5254    0.0000 C   0  0  0  0  0  0  0  0  0  0  0  0
   12.4525    0.5254    0.0000 C   0  0  0  0  0  0  0  0  0  0  0  0
   11.5585   -0.0092    0.0000 C   0  0  0  0  0  0  0  0  0  0  0  0
   13.3185    2.0254    0.0000 C   0  0  0  0  0  0  0  0  0  0  0  0
   10.6525    1.5462    0.0000 C   0  0  0  0  0  0  0  0  0  0  0  0
   11.5585    2.0601    0.0000 C   0  0  0  0  0  0  0  0  0  0  0  0
   14.1845    1.5254    0.0000 C   0  0  0  0  0  0  0  0  0  0  0  0
   13.3185    3.0254    0.0000 C   0  0  0  0  0  0  0  0  0  0  0  0
   14.1845    0.5254    0.0000 C   0  0  0  0  0  0  0  0  0  0  0  0
   15.0506    2.0254    0.0000 C   0  0  0  0  0  0  0  0  0  0  0  0
    5.8531    0.9611    0.0000 H   0  0  0  0  0  0  0  0  0  0  0  0
    5.0560    0.9580    0.0000 H   0  0  0  0  0  0  0  0  0  0  0  0
    6.5425   -1.5939    0.0000 H   0  0  0  0  0  0  0  0  0  0  0  0
    6.9383   -0.9021    0.0000 H   0  0  0  0  0  0  0  0  0  0  0  0
    4.3780    0.5630    0.0000 H   0  0  0  0  0  0  0  0  0  0  0  0
    3.9821   -0.1288    0.0000 H   0  0  0  0  0  0  0  0  0  0  0  0
    5.0674   -1.9919    0.0000 H   0  0  0  0  0  0  0  0  0  0  0  0
    5.8644   -1.9888    0.0000 H   0  0  0  0  0  0  0  0  0  0  0  0
    7.5851    0.9677    0.0000 H   0  0  0  0  0  0  0  0  0  0  0  0
    6.7880    0.9647    0.0000 H   0  0  0  0  0  0  0  0  0  0  0  0
    7.6597   -0.4819    0.0000 H   0  0  0  0  0  0  0  0  0  0  0  0
    8.4567   -0.4788    0.0000 H   0  0  0  0  0  0  0  0  0  0  0  0
    9.3171    0.9744    0.0000 H   0  0  0  0  0  0  0  0  0  0  0  0
    8.5201    0.9713    0.0000 H   0  0  0  0  0  0  0  0  0  0  0  0
    2.8617   -0.4054    0.0000 H   0  0  0  0  0  0  0  0  0  0  0  0
    4.2740   -2.8300    0.0000 H   0  0  0  0  0  0  0  0  0  0  0  0
    1.4619   -1.2208    0.0000 H   0  0  0  0  0  0  0  0  0  0  0  0
    2.8742   -3.6454    0.0000 H   0  0  0  0  0  0  0  0  0  0  0  0
    1.4681   -2.8408    0.0000 H   0  0  0  0  0  0  0  0  0  0  0  0
   11.5657   -0.6292    0.0000 H   0  0  0  0  0  0  0  0  0  0  0  0
   10.1167    1.8583    0.0000 H   0  0  0  0  0  0  0  0  0  0  0  0
   11.5657    2.6800    0.0000 H   0  0  0  0  0  0  0  0  0  0  0  0
   13.9385    3.0254    0.0000 H   0  0  0  0  0  0  0  0  0  0  0  0
   13.3185    3.6454    0.0000 H   0  0  0  0  0  0  0  0  0  0  0  0
   12.6985    3.0254    0.0000 H   0  0  0  0  0  0  0  0  0  0  0  0
   15.3606    1.4885    0.0000 H   0  0  0  0  0  0  0  0  0  0  0  0
   15.5875    2.3354    0.0000 H   0  0  0  0  0  0  0  0  0  0  0  0
   14.7406    2.5624    0.0000 H   0  0  0  0  0  0  0  0  0  0  0  0
  1 13  1  0  0  0  0
  1 18  1  0  0  0  0
  2 21  1  0  0  0  0
  2 28  1  0  0  0  0
  3 28  2  0  0  0  0
  4  6  1  0  0  0  0
  4  7  1  0  0  0  0
  4 10  1  0  0  0  0
  5  8  1  0  0  0  0
  5  9  1  0  0  0  0
  5 12  1  0  0  0  0
  6  8  1  0  0  0  0
  6 30  1  0  0  0  0
  6 31  1  0  0  0  0
  7  9  1  0  0  0  0
  7 32  1  0  0  0  0
  7 33  1  0  0  0  0
  8 34  1  0  0  0  0
  8 35  1  0  0  0  0
  9 36  1  0  0  0  0
  9 37  1  0  0  0  0
 10 11  1  0  0  0  0
 10 38  1  0  0  0  0
 10 39  1  0  0  0  0
 11 13  1  0  0  0  0
 11 40  1  0  0  0  0
 11 41  1  0  0  0  0
 12 14  2  0  0  0  0
 12 15  1  0  0  0  0
 13 42  1  0  0  0  0
 13 43  1  0  0  0  0
 14 16  1  0  0  0  0
 14 44  1  0  0  0  0
 15 17  2  0  0  0  0
 15 45  1  0  0  0  0
 16 19  2  0  0  0  0
 16 46  1  0  0  0  0
 17 19  1  0  0  0  0
 17 47  1  0  0  0  0
 18 22  2  0  0  0  0
 18 24  1  0  0  0  0
 19 48  1  0  0  0  0
 20 21  2  0  0  0  0
 20 23  1  0  0  0  0
 20 25  1  0  0  0  0
 21 22  1  0  0  0  0
 22 49  1  0  0  0  0
 23 26  2  0  0  0  0
 23 27  1  0  0  0  0
 24 25  2  0  0  0  0
 24 50  1  0  0  0  0
 25 51  1  0  0  0  0
 26 28  1  0  0  0  0
 26 29  1  0  0  0  0
 27 52  1  0  0  0  0
 27 53  1  0  0  0  0
 27 54  1  0  0  0  0
 29 55  1  0  0  0  0
 29 56  1  0  0  0  0
 29 57  1  0  0  0  0
M  END
> <PUBCHEM_COMPOUND_CID>
10340492

> <PUBCHEM_COMPOUND_CANONICALIZED>
1

> <PUBCHEM_CACTVS_COMPLEXITY>
591

> <PUBCHEM_CACTVS_HBOND_ACCEPTOR>
5

> <PUBCHEM_CACTVS_HBOND_DONOR>
0

> <PUBCHEM_CACTVS_ROTATABLE_BOND>
6

> <PUBCHEM_CACTVS_SUBSKEYS>
AAADceB7MAAAAAAAAAAAAAAAAAAAAAAAAAA8YIEAAAAAAACBQAAAHgAAAAAADAzhmAYyzoMABACIAiTSSACCCAAhIgAIiAEObMgMZyLEsZuWOijnwBXI6QeQ4KwOIAAACAAIAABAAAAQABAAAAAAAAAAAA==

> <PUBCHEM_IUPAC_OPENEYE_NAME>
3,4-dimethyl-7-[3-(4-phenylpiperazin-1-yl)propoxy]chromen-2-one

> <PUBCHEM_IUPAC_CAS_NAME>
3,4-dimethyl-7-[3-(4-phenyl-1-piperazinyl)propoxy]-1-benzopyran-2-one

> <PUBCHEM_IUPAC_NAME_MARKUP>
3,4-dimethyl-7-[3-(4-phenylpiperazin-1-yl)propoxy]chromen-2-one

> <PUBCHEM_IUPAC_NAME>
3,4-dimethyl-7-[3-(4-phenylpiperazin-1-yl)propoxy]chromen-2-one

> <PUBCHEM_IUPAC_SYSTEMATIC_NAME>
3,4-dimethyl-7-[3-(4-phenylpiperazin-1-yl)propoxy]chromen-2-one

> <PUBCHEM_IUPAC_TRADITIONAL_NAME>
3,4-dimethyl-7-[3-(4-phenylpiperazino)propoxy]coumarin

> <PUBCHEM_IUPAC_INCHI>
InChI=1S/C24H28N2O3/c1-18-19(2)24(27)29-23-17-21(9-10-22(18)23)28-16-6-11-25-12-14-26(15-13-25)20-7-4-3-5-8-20/h3-5,7-10,17H,6,11-16H2,1-2H3

> <PUBCHEM_IUPAC_INCHIKEY>
LNAQGJPALKPMLJ-UHFFFAOYSA-N

> <PUBCHEM_XLOGP3_AA>
4.2

> <PUBCHEM_EXACT_MASS>
392.20999276

> <PUBCHEM_MOLECULAR_FORMULA>
C24H28N2O3

> <PUBCHEM_MOLECULAR_WEIGHT>
392.5

> <PUBCHEM_OPENEYE_CAN_SMILES>
CC1=C(C(=O)OC2=C1C=CC(=C2)OCCCN3CCN(CC3)C4=CC=CC=C4)C

> <PUBCHEM_OPENEYE_ISO_SMILES>
CC1=C(C(=O)OC2=C1C=CC(=C2)OCCCN3CCN(CC3)C4=CC=CC=C4)C

> <PUBCHEM_CACTVS_TPSA>
42

> <PUBCHEM_MONOISOTOPIC_WEIGHT>
392.20999276

> <PUBCHEM_TOTAL_CHARGE>
0

> <PUBCHEM_HEAVY_ATOM_COUNT>
29

> <PUBCHEM_ATOM_DEF_STEREO_COUNT>
0

> <PUBCHEM_ATOM_UDEF_STEREO_COUNT>
0

> <PUBCHEM_BOND_DEF_STEREO_COUNT>
0

> <PUBCHEM_BOND_UDEF_STEREO_COUNT>
0

> <PUBCHEM_ISOTOPIC_ATOM_COUNT>
0

> <PUBCHEM_COMPONENT_COUNT>
1

> <PUBCHEM_CACTVS_TAUTO_COUNT>
-1

> <PUBCHEM_COORDINATE_TYPE>
1
5
255

> <PUBCHEM_BONDANNOTATIONS>
12  14  8
12  15  8
14  16  8
15  17  8
16  19  8
17  19  8
18  22  8
18  24  8
2  21  8
2  28  8
20  21  8
20  23  8
20  25  8
21  22  8
23  26  8
24  25  8
26  28  8

$$$$
