11404156
  -OEChem-09292322522D

 48 50  0     1  0  0  0  0  0999 V2000
    2.8660   -2.0000    0.0000 O   0  0  0  0  0  0  0  0  0  0  0  0
    7.1962   -0.5000    0.0000 O   0  0  0  0  0  0  0  0  0  0  0  0
    4.5981   -1.0000    0.0000 N   0  0  3  0  0  0  0  0  0  0  0  0
    3.7320   -0.5000    0.0000 C   0  0  0  0  0  0  0  0  0  0  0  0
    2.8660   -1.0000    0.0000 C   0  0  3  0  0  0  0  0  0  0  0  0
    4.5981   -2.0000    0.0000 C   0  0  0  0  0  0  0  0  0  0  0  0
    5.4641   -0.5000    0.0000 C   0  0  0  0  0  0  0  0  0  0  0  0
    3.7320   -2.5000    0.0000 C   0  0  0  0  0  0  0  0  0  0  0  0
    2.0000   -0.5000    0.0000 C   0  0  0  0  0  0  0  0  0  0  0  0
    6.3301   -1.0000    0.0000 C   0  0  0  0  0  0  0  0  0  0  0  0
    8.0622   -1.0000    0.0000 C   0  0  0  0  0  0  0  0  0  0  0  0
    8.9282   -0.5000    0.0000 C   0  0  0  0  0  0  0  0  0  0  0  0
    8.9282    0.5000    0.0000 C   0  0  0  0  0  0  0  0  0  0  0  0
    8.0622   -2.0000    0.0000 C   0  0  0  0  0  0  0  0  0  0  0  0
    9.7942    1.0000    0.0000 C   0  0  0  0  0  0  0  0  0  0  0  0
    9.7942   -1.0000    0.0000 C   0  0  0  0  0  0  0  0  0  0  0  0
    8.9282   -2.5000    0.0000 C   0  0  0  0  0  0  0  0  0  0  0  0
    9.7942   -2.0000    0.0000 C   0  0  0  0  0  0  0  0  0  0  0  0
    9.7942    2.0000    0.0000 C   0  0  0  0  0  0  0  0  0  0  0  0
   10.6603    0.5000    0.0000 C   0  0  0  0  0  0  0  0  0  0  0  0
   10.6603    2.5000    0.0000 C   0  0  0  0  0  0  0  0  0  0  0  0
   11.5263    1.0000    0.0000 C   0  0  0  0  0  0  0  0  0  0  0  0
   11.5263    2.0000    0.0000 C   0  0  0  0  0  0  0  0  0  0  0  0
    4.1306   -0.0251    0.0000 H   0  0  0  0  0  0  0  0  0  0  0  0
    3.3335   -0.0251    0.0000 H   0  0  0  0  0  0  0  0  0  0  0  0
    2.3291   -1.3100    0.0000 H   0  0  0  0  0  0  0  0  0  0  0  0
    4.8101   -2.5826    0.0000 H   0  0  0  0  0  0  0  0  0  0  0  0
    5.2087   -1.8923    0.0000 H   0  0  0  0  0  0  0  0  0  0  0  0
    5.8626   -0.0251    0.0000 H   0  0  0  0  0  0  0  0  0  0  0  0
    5.0656   -0.0251    0.0000 H   0  0  0  0  0  0  0  0  0  0  0  0
    3.3335   -2.9750    0.0000 H   0  0  0  0  0  0  0  0  0  0  0  0
    4.1306   -2.9750    0.0000 H   0  0  0  0  0  0  0  0  0  0  0  0
    2.3100    0.0369    0.0000 H   0  0  0  0  0  0  0  0  0  0  0  0
    1.4631   -0.1900    0.0000 H   0  0  0  0  0  0  0  0  0  0  0  0
    1.6900   -1.0369    0.0000 H   0  0  0  0  0  0  0  0  0  0  0  0
    5.9316   -1.4750    0.0000 H   0  0  0  0  0  0  0  0  0  0  0  0
    6.7287   -1.4750    0.0000 H   0  0  0  0  0  0  0  0  0  0  0  0
    8.7162    1.0826    0.0000 H   0  0  0  0  0  0  0  0  0  0  0  0
    8.3176    0.3923    0.0000 H   0  0  0  0  0  0  0  0  0  0  0  0
    7.5252   -2.3100    0.0000 H   0  0  0  0  0  0  0  0  0  0  0  0
   10.3312   -0.6900    0.0000 H   0  0  0  0  0  0  0  0  0  0  0  0
    8.9282   -3.1200    0.0000 H   0  0  0  0  0  0  0  0  0  0  0  0
   10.3312   -2.3100    0.0000 H   0  0  0  0  0  0  0  0  0  0  0  0
    9.2573    2.3100    0.0000 H   0  0  0  0  0  0  0  0  0  0  0  0
   10.6603   -0.1200    0.0000 H   0  0  0  0  0  0  0  0  0  0  0  0
   10.6603    3.1200    0.0000 H   0  0  0  0  0  0  0  0  0  0  0  0
   12.0632    0.6900    0.0000 H   0  0  0  0  0  0  0  0  0  0  0  0
   12.0632    2.3100    0.0000 H   0  0  0  0  0  0  0  0  0  0  0  0
  1  5  1  0  0  0  0
  1  8  1  0  0  0  0
  2 10  1  0  0  0  0
  2 11  1  0  0  0  0
  3  4  1  0  0  0  0
  3  6  1  0  0  0  0
  3  7  1  0  0  0  0
  4  5  1  0  0  0  0
  4 24  1  0  0  0  0
  4 25  1  0  0  0  0
  5  9  1  0  0  0  0
  5 26  1  0  0  0  0
  6  8  1  0  0  0  0
  6 27  1  0  0  0  0
  6 28  1  0  0  0  0
  7 10  1  0  0  0  0
  7 29  1  0  0  0  0
  7 30  1  0  0  0  0
  8 31  1  0  0  0  0
  8 32  1  0  0  0  0
  9 33  1  0  0  0  0
  9 34  1  0  0  0  0
  9 35  1  0  0  0  0
 10 36  1  0  0  0  0
 10 37  1  0  0  0  0
 11 12  1  0  0  0  0
 11 14  2  0  0  0  0
 12 13  1  0  0  0  0
 12 16  2  0  0  0  0
 13 15  1  0  0  0  0
 13 38  1  0  0  0  0
 13 39  1  0  0  0  0
 14 17  1  0  0  0  0
 14 40  1  0  0  0  0
 15 19  2  0  0  0  0
 15 20  1  0  0  0  0
 16 18  1  0  0  0  0
 16 41  1  0  0  0  0
 17 18  2  0  0  0  0
 17 42  1  0  0  0  0
 18 43  1  0  0  0  0
 19 21  1  0  0  0  0
 19 44  1  0  0  0  0
 20 22  2  0  0  0  0
 20 45  1  0  0  0  0
 21 23  2  0  0  0  0
 21 46  1  0  0  0  0
 22 23  1  0  0  0  0
 22 47  1  0  0  0  0
 23 48  1  0  0  0  0
M  END
> <PUBCHEM_COMPOUND_CID>
11404156

> <PUBCHEM_COMPOUND_CANONICALIZED>
1

> <PUBCHEM_CACTVS_COMPLEXITY>
330

> <PUBCHEM_CACTVS_HBOND_ACCEPTOR>
3

> <PUBCHEM_CACTVS_HBOND_DONOR>
0

> <PUBCHEM_CACTVS_ROTATABLE_BOND>
6

> <PUBCHEM_CACTVS_SUBSKEYS>
AAADceB6MAAAAAAAAAAAAAAAAAAAAAAAAAA8YIAAAAAAAAABQAAAHgAAAAAADBThmAYyBoMABACAAiBCAAACCAAgIAAIiAAOCIgOJiKEMRqHOCCkwBGYqAeAwOAOAAAAAAAIAAAAAAAAABAAAAAAAAAAAA==

> <PUBCHEM_IUPAC_OPENEYE_NAME>
4-[2-(2-benzylphenoxy)ethyl]-2-methyl-morpholine

> <PUBCHEM_IUPAC_CAS_NAME>
2-methyl-4-[2-[2-(phenylmethyl)phenoxy]ethyl]morpholine

> <PUBCHEM_IUPAC_NAME_MARKUP>
4-[2-(2-benzylphenoxy)ethyl]-2-methylmorpholine

> <PUBCHEM_IUPAC_NAME>
4-[2-(2-benzylphenoxy)ethyl]-2-methylmorpholine

> <PUBCHEM_IUPAC_SYSTEMATIC_NAME>
2-methyl-4-[2-[2-(phenylmethyl)phenoxy]ethyl]morpholine

> <PUBCHEM_IUPAC_TRADITIONAL_NAME>
4-[2-(2-benzylphenoxy)ethyl]-2-methyl-morpholine

> <PUBCHEM_IUPAC_INCHI>
InChI=1S/C20H25NO2/c1-17-16-21(11-13-22-17)12-14-23-20-10-6-5-9-19(20)15-18-7-3-2-4-8-18/h2-10,17H,11-16H2,1H3

> <PUBCHEM_IUPAC_INCHIKEY>
KNAMIYDBEIAANZ-UHFFFAOYSA-N

> <PUBCHEM_XLOGP3_AA>
3.9

> <PUBCHEM_EXACT_MASS>
311.188529040

> <PUBCHEM_MOLECULAR_FORMULA>
C20H25NO2

> <PUBCHEM_MOLECULAR_WEIGHT>
311.4

> <PUBCHEM_OPENEYE_CAN_SMILES>
CC1CN(CCO1)CCOC2=CC=CC=C2CC3=CC=CC=C3

> <PUBCHEM_OPENEYE_ISO_SMILES>
CC1CN(CCO1)CCOC2=CC=CC=C2CC3=CC=CC=C3

> <PUBCHEM_CACTVS_TPSA>
21.7

> <PUBCHEM_MONOISOTOPIC_WEIGHT>
311.188529040

> <PUBCHEM_TOTAL_CHARGE>
0

> <PUBCHEM_HEAVY_ATOM_COUNT>
23

> <PUBCHEM_ATOM_DEF_STEREO_COUNT>
0

> <PUBCHEM_ATOM_UDEF_STEREO_COUNT>
1

> <PUBCHEM_BOND_DEF_STEREO_COUNT>
0

> <PUBCHEM_BOND_UDEF_STEREO_COUNT>
0

> <PUBCHEM_ISOTOPIC_ATOM_COUNT>
0

> <PUBCHEM_COMPONENT_COUNT>
1

> <PUBCHEM_CACTVS_TAUTO_COUNT>
-1

> <PUBCHEM_COORDINATE_TYPE>
1
5
255

> <PUBCHEM_BONDANNOTATIONS>
11  12  8
11  14  8
12  16  8
14  17  8
15  19  8
15  20  8
16  18  8
17  18  8
19  21  8
20  22  8
21  23  8
22  23  8
5  9  3

$$$$
