127028034
  -OEChem-09292322362D

 62 65  0     0  0  0  0  0  0999 V2000
    2.8660    0.4827    0.0000 O   0  0  0  0  0  0  0  0  0  0  0  0
   11.5263    0.4827    0.0000 O   0  0  0  0  0  0  0  0  0  0  0  0
    6.3301    0.4827    0.0000 N   0  0  0  0  0  0  0  0  0  0  0  0
    4.5981   -0.5173    0.0000 N   0  0  0  0  0  0  0  0  0  0  0  0
    5.4641    0.9827    0.0000 C   0  0  0  0  0  0  0  0  0  0  0  0
    6.3301   -0.5173    0.0000 C   0  0  0  0  0  0  0  0  0  0  0  0
    4.5981    0.4827    0.0000 C   0  0  0  0  0  0  0  0  0  0  0  0
    5.4641   -1.0173    0.0000 C   0  0  0  0  0  0  0  0  0  0  0  0
    7.1962    0.9827    0.0000 C   0  0  0  0  0  0  0  0  0  0  0  0
    8.0622    0.4827    0.0000 C   0  0  0  0  0  0  0  0  0  0  0  0
    8.9282    0.9827    0.0000 C   0  0  0  0  0  0  0  0  0  0  0  0
    3.7320   -1.0173    0.0000 C   0  0  0  0  0  0  0  0  0  0  0  0
    9.7942    0.4827    0.0000 C   0  0  0  0  0  0  0  0  0  0  0  0
    2.8660   -0.5173    0.0000 C   0  0  0  0  0  0  0  0  0  0  0  0
    3.7320   -2.0173    0.0000 C   0  0  0  0  0  0  0  0  0  0  0  0
   10.6603    0.9827    0.0000 C   0  0  0  0  0  0  0  0  0  0  0  0
    2.0000   -1.0173    0.0000 C   0  0  0  0  0  0  0  0  0  0  0  0
    2.8660   -2.5173    0.0000 C   0  0  0  0  0  0  0  0  0  0  0  0
    2.0000   -2.0173    0.0000 C   0  0  0  0  0  0  0  0  0  0  0  0
   12.3923    0.9827    0.0000 C   0  0  0  0  0  0  0  0  0  0  0  0
    2.0000    0.9827    0.0000 C   0  0  0  0  0  0  0  0  0  0  0  0
   13.2583    0.4827    0.0000 C   0  0  0  0  0  0  0  0  0  0  0  0
   14.1244    0.9827    0.0000 C   0  0  0  0  0  0  0  0  0  0  0  0
   12.3923    1.9827    0.0000 C   0  0  0  0  0  0  0  0  0  0  0  0
   14.1244    1.9827    0.0000 C   0  0  0  0  0  0  0  0  0  0  0  0
   13.2583    2.4827    0.0000 C   0  0  0  0  0  0  0  0  0  0  0  0
   15.0183    0.4480    0.0000 C   0  0  0  0  0  0  0  0  0  0  0  0
   15.0183    2.5173    0.0000 C   0  0  0  0  0  0  0  0  0  0  0  0
   15.9244    0.9619    0.0000 C   0  0  0  0  0  0  0  0  0  0  0  0
   15.9244    2.0035    0.0000 C   0  0  0  0  0  0  0  0  0  0  0  0
    5.8626    1.4576    0.0000 H   0  0  0  0  0  0  0  0  0  0  0  0
    5.0656    1.4576    0.0000 H   0  0  0  0  0  0  0  0  0  0  0  0
    6.5422   -1.0999    0.0000 H   0  0  0  0  0  0  0  0  0  0  0  0
    6.9407   -0.4097    0.0000 H   0  0  0  0  0  0  0  0  0  0  0  0
    4.3860    1.0653    0.0000 H   0  0  0  0  0  0  0  0  0  0  0  0
    3.9875    0.3750    0.0000 H   0  0  0  0  0  0  0  0  0  0  0  0
    5.0656   -1.4923    0.0000 H   0  0  0  0  0  0  0  0  0  0  0  0
    5.8626   -1.4923    0.0000 H   0  0  0  0  0  0  0  0  0  0  0  0
    7.5947    1.4576    0.0000 H   0  0  0  0  0  0  0  0  0  0  0  0
    6.7976    1.4576    0.0000 H   0  0  0  0  0  0  0  0  0  0  0  0
    7.6636    0.0077    0.0000 H   0  0  0  0  0  0  0  0  0  0  0  0
    8.4607    0.0077    0.0000 H   0  0  0  0  0  0  0  0  0  0  0  0
    9.3267    1.4576    0.0000 H   0  0  0  0  0  0  0  0  0  0  0  0
    8.5297    1.4576    0.0000 H   0  0  0  0  0  0  0  0  0  0  0  0
    9.3957    0.0077    0.0000 H   0  0  0  0  0  0  0  0  0  0  0  0
   10.1928    0.0077    0.0000 H   0  0  0  0  0  0  0  0  0  0  0  0
    4.2690   -2.3273    0.0000 H   0  0  0  0  0  0  0  0  0  0  0  0
   11.0588    1.4576    0.0000 H   0  0  0  0  0  0  0  0  0  0  0  0
   10.2617    1.4576    0.0000 H   0  0  0  0  0  0  0  0  0  0  0  0
    1.4631   -0.7073    0.0000 H   0  0  0  0  0  0  0  0  0  0  0  0
    2.8660   -3.1373    0.0000 H   0  0  0  0  0  0  0  0  0  0  0  0
    1.4631   -2.3273    0.0000 H   0  0  0  0  0  0  0  0  0  0  0  0
    2.3100    1.5196    0.0000 H   0  0  0  0  0  0  0  0  0  0  0  0
    1.4631    1.2927    0.0000 H   0  0  0  0  0  0  0  0  0  0  0  0
    1.6900    0.4457    0.0000 H   0  0  0  0  0  0  0  0  0  0  0  0
   13.2583   -0.1373    0.0000 H   0  0  0  0  0  0  0  0  0  0  0  0
   11.8554    2.2927    0.0000 H   0  0  0  0  0  0  0  0  0  0  0  0
   13.2583    3.1027    0.0000 H   0  0  0  0  0  0  0  0  0  0  0  0
   15.0111   -0.1720    0.0000 H   0  0  0  0  0  0  0  0  0  0  0  0
   15.0111    3.1373    0.0000 H   0  0  0  0  0  0  0  0  0  0  0  0
   16.4601    0.6498    0.0000 H   0  0  0  0  0  0  0  0  0  0  0  0
   16.4601    2.3156    0.0000 H   0  0  0  0  0  0  0  0  0  0  0  0
  1 14  1  0  0  0  0
  1 21  1  0  0  0  0
  2 16  1  0  0  0  0
  2 20  1  0  0  0  0
  3  5  1  0  0  0  0
  3  6  1  0  0  0  0
  3  9  1  0  0  0  0
  4  7  1  0  0  0  0
  4  8  1  0  0  0  0
  4 12  1  0  0  0  0
  5  7  1  0  0  0  0
  5 31  1  0  0  0  0
  5 32  1  0  0  0  0
  6  8  1  0  0  0  0
  6 33  1  0  0  0  0
  6 34  1  0  0  0  0
  7 35  1  0  0  0  0
  7 36  1  0  0  0  0
  8 37  1  0  0  0  0
  8 38  1  0  0  0  0
  9 10  1  0  0  0  0
  9 39  1  0  0  0  0
  9 40  1  0  0  0  0
 10 11  1  0  0  0  0
 10 41  1  0  0  0  0
 10 42  1  0  0  0  0
 11 13  1  0  0  0  0
 11 43  1  0  0  0  0
 11 44  1  0  0  0  0
 12 14  1  0  0  0  0
 12 15  2  0  0  0  0
 13 16  1  0  0  0  0
 13 45  1  0  0  0  0
 13 46  1  0  0  0  0
 14 17  2  0  0  0  0
 15 18  1  0  0  0  0
 15 47  1  0  0  0  0
 16 48  1  0  0  0  0
 16 49  1  0  0  0  0
 17 19  1  0  0  0  0
 17 50  1  0  0  0  0
 18 19  2  0  0  0  0
 18 51  1  0  0  0  0
 19 52  1  0  0  0  0
 20 22  2  0  0  0  0
 20 24  1  0  0  0  0
 21 53  1  0  0  0  0
 21 54  1  0  0  0  0
 21 55  1  0  0  0  0
 22 23  1  0  0  0  0
 22 56  1  0  0  0  0
 23 25  1  0  0  0  0
 23 27  2  0  0  0  0
 24 26  2  0  0  0  0
 24 57  1  0  0  0  0
 25 26  1  0  0  0  0
 25 28  2  0  0  0  0
 26 58  1  0  0  0  0
 27 29  1  0  0  0  0
 27 59  1  0  0  0  0
 28 30  1  0  0  0  0
 28 60  1  0  0  0  0
 29 30  2  0  0  0  0
 29 61  1  0  0  0  0
 30 62  1  0  0  0  0
M  END
> <PUBCHEM_COMPOUND_CID>
127028034

> <PUBCHEM_COMPOUND_CANONICALIZED>
1

> <PUBCHEM_CACTVS_COMPLEXITY>
480

> <PUBCHEM_CACTVS_HBOND_ACCEPTOR>
4

> <PUBCHEM_CACTVS_HBOND_DONOR>
0

> <PUBCHEM_CACTVS_ROTATABLE_BOND>
9

> <PUBCHEM_CACTVS_SUBSKEYS>
AAADcfB7MAAAAAAAAAAAAAAAAAAAAAAAAAA8YMEAAAAAAADBVAAAHgAAAAAADAzhmAYyxsMABACAAiRCQACCCAAhIgAIiAAPbIgOZiLEsZuXOCjkwBHY6AeQ0LIOoAABAAAQEABAAAIAACAgAAAAAAAAAA==

> <PUBCHEM_IUPAC_OPENEYE_NAME>
1-(2-methoxyphenyl)-4-[5-(2-naphthyloxy)pentyl]piperazine

> <PUBCHEM_IUPAC_CAS_NAME>
1-(2-methoxyphenyl)-4-[5-(2-naphthalenyloxy)pentyl]piperazine

> <PUBCHEM_IUPAC_NAME_MARKUP>
1-(2-methoxyphenyl)-4-(5-naphthalen-2-yloxypentyl)piperazine

> <PUBCHEM_IUPAC_NAME>
1-(2-methoxyphenyl)-4-(5-naphthalen-2-yloxypentyl)piperazine

> <PUBCHEM_IUPAC_SYSTEMATIC_NAME>
1-(2-methoxyphenyl)-4-(5-naphthalen-2-yloxypentyl)piperazine

> <PUBCHEM_IUPAC_TRADITIONAL_NAME>
1-(2-methoxyphenyl)-4-[5-(2-naphthoxy)pentyl]piperazine

> <PUBCHEM_IUPAC_INCHI>
InChI=1S/C26H32N2O2/c1-29-26-12-6-5-11-25(26)28-18-16-27(17-19-28)15-7-2-8-20-30-24-14-13-22-9-3-4-10-23(22)21-24/h3-6,9-14,21H,2,7-8,15-20H2,1H3

> <PUBCHEM_IUPAC_INCHIKEY>
ATMVGYLFYGIYDI-UHFFFAOYSA-N

> <PUBCHEM_XLOGP3_AA>
5.8

> <PUBCHEM_EXACT_MASS>
404.246378268

> <PUBCHEM_MOLECULAR_FORMULA>
C26H32N2O2

> <PUBCHEM_MOLECULAR_WEIGHT>
404.5

> <PUBCHEM_OPENEYE_CAN_SMILES>
COC1=CC=CC=C1N2CCN(CC2)CCCCCOC3=CC4=CC=CC=C4C=C3

> <PUBCHEM_OPENEYE_ISO_SMILES>
COC1=CC=CC=C1N2CCN(CC2)CCCCCOC3=CC4=CC=CC=C4C=C3

> <PUBCHEM_CACTVS_TPSA>
24.9

> <PUBCHEM_MONOISOTOPIC_WEIGHT>
404.246378268

> <PUBCHEM_TOTAL_CHARGE>
0

> <PUBCHEM_HEAVY_ATOM_COUNT>
30

> <PUBCHEM_ATOM_DEF_STEREO_COUNT>
0

> <PUBCHEM_ATOM_UDEF_STEREO_COUNT>
0

> <PUBCHEM_BOND_DEF_STEREO_COUNT>
0

> <PUBCHEM_BOND_UDEF_STEREO_COUNT>
0

> <PUBCHEM_ISOTOPIC_ATOM_COUNT>
0

> <PUBCHEM_COMPONENT_COUNT>
1

> <PUBCHEM_CACTVS_TAUTO_COUNT>
-1

> <PUBCHEM_COORDINATE_TYPE>
1
5
255

> <PUBCHEM_BONDANNOTATIONS>
12  14  8
12  15  8
14  17  8
15  18  8
17  19  8
18  19  8
20  22  8
20  24  8
22  23  8
23  25  8
23  27  8
24  26  8
25  26  8
25  28  8
27  29  8
28  30  8
29  30  8

$$$$
