44412269
  -OEChem-09292322272D

 49 52  0     0  0  0  0  0  0999 V2000
    2.8660   -3.2215    0.0000 O   0  0  0  0  0  0  0  0  0  0  0  0
    4.5981   -0.2215    0.0000 N   0  0  0  0  0  0  0  0  0  0  0  0
    4.5981   -2.2215    0.0000 N   0  0  0  0  0  0  0  0  0  0  0  0
    6.5468    2.4809    0.0000 N   0  0  0  0  0  0  0  0  0  0  0  0
    6.3776    0.8717    0.0000 N   0  0  0  0  0  0  0  0  0  0  0  0
    7.0468    1.6149    0.0000 N   0  0  0  0  0  0  0  0  0  0  0  0
    5.4641   -0.7215    0.0000 C   0  0  0  0  0  0  0  0  0  0  0  0
    3.7320   -0.7215    0.0000 C   0  0  0  0  0  0  0  0  0  0  0  0
    5.4641   -1.7215    0.0000 C   0  0  0  0  0  0  0  0  0  0  0  0
    3.7320   -1.7215    0.0000 C   0  0  0  0  0  0  0  0  0  0  0  0
    4.5981    0.7785    0.0000 C   0  0  0  0  0  0  0  0  0  0  0  0
    4.5981   -3.2215    0.0000 C   0  0  0  0  0  0  0  0  0  0  0  0
    5.4641    1.2785    0.0000 C   0  0  0  0  0  0  0  0  0  0  0  0
    3.7320   -3.7215    0.0000 C   0  0  0  0  0  0  0  0  0  0  0  0
    5.4641   -3.7215    0.0000 C   0  0  0  0  0  0  0  0  0  0  0  0
    5.5686    2.2730    0.0000 C   0  0  0  0  0  0  0  0  0  0  0  0
    3.7320   -4.7215    0.0000 C   0  0  0  0  0  0  0  0  0  0  0  0
    5.4641   -4.7215    0.0000 C   0  0  0  0  0  0  0  0  0  0  0  0
    4.5981   -5.2215    0.0000 C   0  0  0  0  0  0  0  0  0  0  0  0
    6.9535    3.3944    0.0000 C   0  0  0  0  0  0  0  0  0  0  0  0
    2.0000   -3.7215    0.0000 C   0  0  0  0  0  0  0  0  0  0  0  0
    6.3657    4.2035    0.0000 C   0  0  0  0  0  0  0  0  0  0  0  0
    7.9480    3.4990    0.0000 C   0  0  0  0  0  0  0  0  0  0  0  0
    6.7725    5.1170    0.0000 C   0  0  0  0  0  0  0  0  0  0  0  0
    8.3548    4.4125    0.0000 C   0  0  0  0  0  0  0  0  0  0  0  0
    7.7670    5.2215    0.0000 C   0  0  0  0  0  0  0  0  0  0  0  0
    6.0747   -0.8292    0.0000 H   0  0  0  0  0  0  0  0  0  0  0  0
    5.6762   -0.1389    0.0000 H   0  0  0  0  0  0  0  0  0  0  0  0
    3.5200   -0.1389    0.0000 H   0  0  0  0  0  0  0  0  0  0  0  0
    3.1215   -0.8292    0.0000 H   0  0  0  0  0  0  0  0  0  0  0  0
    5.6762   -2.3041    0.0000 H   0  0  0  0  0  0  0  0  0  0  0  0
    6.0747   -1.6139    0.0000 H   0  0  0  0  0  0  0  0  0  0  0  0
    3.1215   -1.6139    0.0000 H   0  0  0  0  0  0  0  0  0  0  0  0
    3.5200   -2.3041    0.0000 H   0  0  0  0  0  0  0  0  0  0  0  0
    4.3860    1.3611    0.0000 H   0  0  0  0  0  0  0  0  0  0  0  0
    3.9875    0.6708    0.0000 H   0  0  0  0  0  0  0  0  0  0  0  0
    6.0010   -3.4115    0.0000 H   0  0  0  0  0  0  0  0  0  0  0  0
    5.1079    2.6878    0.0000 H   0  0  0  0  0  0  0  0  0  0  0  0
    3.1951   -5.0315    0.0000 H   0  0  0  0  0  0  0  0  0  0  0  0
    6.0010   -5.0315    0.0000 H   0  0  0  0  0  0  0  0  0  0  0  0
    4.5981   -5.8415    0.0000 H   0  0  0  0  0  0  0  0  0  0  0  0
    1.6900   -3.1846    0.0000 H   0  0  0  0  0  0  0  0  0  0  0  0
    1.4631   -4.0315    0.0000 H   0  0  0  0  0  0  0  0  0  0  0  0
    2.3100   -4.2585    0.0000 H   0  0  0  0  0  0  0  0  0  0  0  0
    5.7491    4.1386    0.0000 H   0  0  0  0  0  0  0  0  0  0  0  0
    8.3125    2.9974    0.0000 H   0  0  0  0  0  0  0  0  0  0  0  0
    6.4080    5.6186    0.0000 H   0  0  0  0  0  0  0  0  0  0  0  0
    8.9714    4.4773    0.0000 H   0  0  0  0  0  0  0  0  0  0  0  0
    8.0192    5.7879    0.0000 H   0  0  0  0  0  0  0  0  0  0  0  0
  1 14  1  0  0  0  0
  1 21  1  0  0  0  0
  2  7  1  0  0  0  0
  2  8  1  0  0  0  0
  2 11  1  0  0  0  0
  3  9  1  0  0  0  0
  3 10  1  0  0  0  0
  3 12  1  0  0  0  0
  4  6  1  0  0  0  0
  4 16  1  0  0  0  0
  4 20  1  0  0  0  0
  5  6  2  0  0  0  0
  5 13  1  0  0  0  0
  7  9  1  0  0  0  0
  7 27  1  0  0  0  0
  7 28  1  0  0  0  0
  8 10  1  0  0  0  0
  8 29  1  0  0  0  0
  8 30  1  0  0  0  0
  9 31  1  0  0  0  0
  9 32  1  0  0  0  0
 10 33  1  0  0  0  0
 10 34  1  0  0  0  0
 11 13  1  0  0  0  0
 11 35  1  0  0  0  0
 11 36  1  0  0  0  0
 12 14  1  0  0  0  0
 12 15  2  0  0  0  0
 13 16  2  0  0  0  0
 14 17  2  0  0  0  0
 15 18  1  0  0  0  0
 15 37  1  0  0  0  0
 16 38  1  0  0  0  0
 17 19  1  0  0  0  0
 17 39  1  0  0  0  0
 18 19  2  0  0  0  0
 18 40  1  0  0  0  0
 19 41  1  0  0  0  0
 20 22  2  0  0  0  0
 20 23  1  0  0  0  0
 21 42  1  0  0  0  0
 21 43  1  0  0  0  0
 21 44  1  0  0  0  0
 22 24  1  0  0  0  0
 22 45  1  0  0  0  0
 23 25  2  0  0  0  0
 23 46  1  0  0  0  0
 24 26  2  0  0  0  0
 24 47  1  0  0  0  0
 25 26  1  0  0  0  0
 25 48  1  0  0  0  0
 26 49  1  0  0  0  0
M  END
> <PUBCHEM_COMPOUND_CID>
44412269

> <PUBCHEM_COMPOUND_CANONICALIZED>
1

> <PUBCHEM_CACTVS_COMPLEXITY>
422

> <PUBCHEM_CACTVS_HBOND_ACCEPTOR>
5

> <PUBCHEM_CACTVS_HBOND_DONOR>
0

> <PUBCHEM_CACTVS_ROTATABLE_BOND>
5

> <PUBCHEM_CACTVS_SUBSKEYS>
AAADceB7oAAAAAAAAAAAAAAAAAAAAWAAAAA8YIAAAAAAAAAB0AAAHgAIAAAACAzBlgY+xpMIBACiATRnRACCDCQxsgAYmAA/fIgOZmLE8ZuVMChkwBHY6AeQQAAAAAAAAAAAEAAAAAAAAAAgAAAAAAAAAA==

> <PUBCHEM_IUPAC_OPENEYE_NAME>
1-(2-methoxyphenyl)-4-[(1-phenyltriazol-4-yl)methyl]piperazine

> <PUBCHEM_IUPAC_CAS_NAME>
1-(2-methoxyphenyl)-4-[(1-phenyl-4-triazolyl)methyl]piperazine

> <PUBCHEM_IUPAC_NAME_MARKUP>
1-(2-methoxyphenyl)-4-[(1-phenyltriazol-4-yl)methyl]piperazine

> <PUBCHEM_IUPAC_NAME>
1-(2-methoxyphenyl)-4-[(1-phenyltriazol-4-yl)methyl]piperazine

> <PUBCHEM_IUPAC_SYSTEMATIC_NAME>
1-(2-methoxyphenyl)-4-[(1-phenyl-1,2,3-triazol-4-yl)methyl]piperazine

> <PUBCHEM_IUPAC_TRADITIONAL_NAME>
1-(2-methoxyphenyl)-4-[(1-phenyltriazol-4-yl)methyl]piperazine

> <PUBCHEM_IUPAC_INCHI>
InChI=1S/C20H23N5O/c1-26-20-10-6-5-9-19(20)24-13-11-23(12-14-24)15-17-16-25(22-21-17)18-7-3-2-4-8-18/h2-10,16H,11-15H2,1H3

> <PUBCHEM_IUPAC_INCHIKEY>
PDQWDSWLQAHIBM-UHFFFAOYSA-N

> <PUBCHEM_XLOGP3_AA>
2.8

> <PUBCHEM_EXACT_MASS>
349.19026037

> <PUBCHEM_MOLECULAR_FORMULA>
C20H23N5O

> <PUBCHEM_MOLECULAR_WEIGHT>
349.4

> <PUBCHEM_OPENEYE_CAN_SMILES>
COC1=CC=CC=C1N2CCN(CC2)CC3=CN(N=N3)C4=CC=CC=C4

> <PUBCHEM_OPENEYE_ISO_SMILES>
COC1=CC=CC=C1N2CCN(CC2)CC3=CN(N=N3)C4=CC=CC=C4

> <PUBCHEM_CACTVS_TPSA>
46.4

> <PUBCHEM_MONOISOTOPIC_WEIGHT>
349.19026037

> <PUBCHEM_TOTAL_CHARGE>
0

> <PUBCHEM_HEAVY_ATOM_COUNT>
26

> <PUBCHEM_ATOM_DEF_STEREO_COUNT>
0

> <PUBCHEM_ATOM_UDEF_STEREO_COUNT>
0

> <PUBCHEM_BOND_DEF_STEREO_COUNT>
0

> <PUBCHEM_BOND_UDEF_STEREO_COUNT>
0

> <PUBCHEM_ISOTOPIC_ATOM_COUNT>
0

> <PUBCHEM_COMPONENT_COUNT>
1

> <PUBCHEM_CACTVS_TAUTO_COUNT>
-1

> <PUBCHEM_COORDINATE_TYPE>
1
5
255

> <PUBCHEM_BONDANNOTATIONS>
12  14  8
12  15  8
13  16  8
14  17  8
15  18  8
17  19  8
18  19  8
20  22  8
20  23  8
22  24  8
23  25  8
24  26  8
25  26  8
4  16  8
4  6  8
5  13  8
5  6  8

$$$$
