11430418
  -OEChem-09292322072D

 64 68  0     0  0  0  0  0  0999 V2000
    4.6660   -5.2846    0.0000 O   0  0  0  0  0  0  0  0  0  0  0  0
    8.1301    0.7154    0.0000 N   0  0  0  0  0  0  0  0  0  0  0  0
    9.8622    1.7154    0.0000 N   0  0  0  0  0  0  0  0  0  0  0  0
    5.5321   -3.7846    0.0000 N   0  0  0  0  0  0  0  0  0  0  0  0
    4.6660   -2.2846    0.0000 N   0  0  0  0  0  0  0  0  0  0  0  0
   10.7282    3.2154    0.0000 N   0  0  0  0  0  0  0  0  0  0  0  0
    6.3981   -4.2846    0.0000 N   0  0  0  0  0  0  0  0  0  0  0  0
    8.9962    0.2154    0.0000 C   0  0  0  0  0  0  0  0  0  0  0  0
    8.1301    1.7154    0.0000 C   0  0  0  0  0  0  0  0  0  0  0  0
    7.2641    0.2154    0.0000 C   0  0  0  0  0  0  0  0  0  0  0  0
    9.8622    0.7154    0.0000 C   0  0  0  0  0  0  0  0  0  0  0  0
    8.9962    2.2154    0.0000 C   0  0  0  0  0  0  0  0  0  0  0  0
    7.2641   -0.7846    0.0000 C   0  0  0  0  0  0  0  0  0  0  0  0
    6.3981   -1.2846    0.0000 C   0  0  0  0  0  0  0  0  0  0  0  0
    6.3981   -2.2846    0.0000 C   0  0  0  0  0  0  0  0  0  0  0  0
    2.0000   -3.8054    0.0000 C   0  0  0  0  0  0  0  0  0  0  0  0
    2.0000   -2.7638    0.0000 C   0  0  0  0  0  0  0  0  0  0  0  0
    2.9061   -4.3193    0.0000 C   0  0  0  0  0  0  0  0  0  0  0  0
    2.9061   -2.2500    0.0000 C   0  0  0  0  0  0  0  0  0  0  0  0
    3.8000   -3.7846    0.0000 C   0  0  0  0  0  0  0  0  0  0  0  0
    3.8000   -2.7846    0.0000 C   0  0  0  0  0  0  0  0  0  0  0  0
    5.5321   -2.7846    0.0000 C   0  0  0  0  0  0  0  0  0  0  0  0
   10.7282    2.2154    0.0000 C   0  0  0  0  0  0  0  0  0  0  0  0
    4.6660   -4.2846    0.0000 C   0  0  0  0  0  0  0  0  0  0  0  0
   11.5942    1.7154    0.0000 C   0  0  0  0  0  0  0  0  0  0  0  0
   11.5942    3.7154    0.0000 C   0  0  0  0  0  0  0  0  0  0  0  0
   12.4603    2.2154    0.0000 C   0  0  0  0  0  0  0  0  0  0  0  0
   12.4603    3.2154    0.0000 C   0  0  0  0  0  0  0  0  0  0  0  0
   11.5782    4.7569    0.0000 C   0  0  0  0  0  0  0  0  0  0  0  0
   13.3703    3.7222    0.0000 C   0  0  0  0  0  0  0  0  0  0  0  0
   12.4762    5.2846    0.0000 C   0  0  0  0  0  0  0  0  0  0  0  0
   13.3783    4.7638    0.0000 C   0  0  0  0  0  0  0  0  0  0  0  0
    8.5976   -0.2596    0.0000 H   0  0  0  0  0  0  0  0  0  0  0  0
    9.3947   -0.2596    0.0000 H   0  0  0  0  0  0  0  0  0  0  0  0
    7.9181    2.2980    0.0000 H   0  0  0  0  0  0  0  0  0  0  0  0
    7.5196    1.6077    0.0000 H   0  0  0  0  0  0  0  0  0  0  0  0
    7.0521    0.7980    0.0000 H   0  0  0  0  0  0  0  0  0  0  0  0
    6.6535    0.1077    0.0000 H   0  0  0  0  0  0  0  0  0  0  0  0
   10.0742    0.1328    0.0000 H   0  0  0  0  0  0  0  0  0  0  0  0
   10.4728    0.8230    0.0000 H   0  0  0  0  0  0  0  0  0  0  0  0
    9.3947    2.6903    0.0000 H   0  0  0  0  0  0  0  0  0  0  0  0
    8.5976    2.6903    0.0000 H   0  0  0  0  0  0  0  0  0  0  0  0
    7.4762   -1.3672    0.0000 H   0  0  0  0  0  0  0  0  0  0  0  0
    7.8747   -0.6770    0.0000 H   0  0  0  0  0  0  0  0  0  0  0  0
    6.1860   -0.7020    0.0000 H   0  0  0  0  0  0  0  0  0  0  0  0
    5.7875   -1.3923    0.0000 H   0  0  0  0  0  0  0  0  0  0  0  0
    6.6101   -2.8672    0.0000 H   0  0  0  0  0  0  0  0  0  0  0  0
    7.0087   -2.1770    0.0000 H   0  0  0  0  0  0  0  0  0  0  0  0
    1.3891   -3.6994    0.0000 H   0  0  0  0  0  0  0  0  0  0  0  0
    1.7909   -4.3891    0.0000 H   0  0  0  0  0  0  0  0  0  0  0  0
    1.7909   -2.1801    0.0000 H   0  0  0  0  0  0  0  0  0  0  0  0
    1.3891   -2.8699    0.0000 H   0  0  0  0  0  0  0  0  0  0  0  0
    2.5124   -4.7983    0.0000 H   0  0  0  0  0  0  0  0  0  0  0  0
    3.3107   -4.7891    0.0000 H   0  0  0  0  0  0  0  0  0  0  0  0
    3.3107   -1.7802    0.0000 H   0  0  0  0  0  0  0  0  0  0  0  0
    2.5124   -1.7710    0.0000 H   0  0  0  0  0  0  0  0  0  0  0  0
   11.5942    1.0954    0.0000 H   0  0  0  0  0  0  0  0  0  0  0  0
   12.9972    1.9054    0.0000 H   0  0  0  0  0  0  0  0  0  0  0  0
    6.9350   -3.9746    0.0000 H   0  0  0  0  0  0  0  0  0  0  0  0
    6.3981   -4.9046    0.0000 H   0  0  0  0  0  0  0  0  0  0  0  0
   11.0377    5.0606    0.0000 H   0  0  0  0  0  0  0  0  0  0  0  0
   13.9036    3.4060    0.0000 H   0  0  0  0  0  0  0  0  0  0  0  0
   12.4738    5.9046    0.0000 H   0  0  0  0  0  0  0  0  0  0  0  0
   13.9164    5.0717    0.0000 H   0  0  0  0  0  0  0  0  0  0  0  0
  1 24  2  0  0  0  0
  2  8  1  0  0  0  0
  2  9  1  0  0  0  0
  2 10  1  0  0  0  0
  3 11  1  0  0  0  0
  3 12  1  0  0  0  0
  3 23  1  0  0  0  0
  4  7  1  0  0  0  0
  4 22  1  0  0  0  0
  4 24  1  0  0  0  0
  5 21  1  0  0  0  0
  5 22  2  0  0  0  0
  6 23  2  0  0  0  0
  6 26  1  0  0  0  0
  7 59  1  0  0  0  0
  7 60  1  0  0  0  0
  8 11  1  0  0  0  0
  8 33  1  0  0  0  0
  8 34  1  0  0  0  0
  9 12  1  0  0  0  0
  9 35  1  0  0  0  0
  9 36  1  0  0  0  0
 10 13  1  0  0  0  0
 10 37  1  0  0  0  0
 10 38  1  0  0  0  0
 11 39  1  0  0  0  0
 11 40  1  0  0  0  0
 12 41  1  0  0  0  0
 12 42  1  0  0  0  0
 13 14  1  0  0  0  0
 13 43  1  0  0  0  0
 13 44  1  0  0  0  0
 14 15  1  0  0  0  0
 14 45  1  0  0  0  0
 14 46  1  0  0  0  0
 15 22  1  0  0  0  0
 15 47  1  0  0  0  0
 15 48  1  0  0  0  0
 16 17  1  0  0  0  0
 16 18  1  0  0  0  0
 16 49  1  0  0  0  0
 16 50  1  0  0  0  0
 17 19  1  0  0  0  0
 17 51  1  0  0  0  0
 17 52  1  0  0  0  0
 18 20  1  0  0  0  0
 18 53  1  0  0  0  0
 18 54  1  0  0  0  0
 19 21  1  0  0  0  0
 19 55  1  0  0  0  0
 19 56  1  0  0  0  0
 20 21  2  0  0  0  0
 20 24  1  0  0  0  0
 23 25  1  0  0  0  0
 25 27  2  0  0  0  0
 25 57  1  0  0  0  0
 26 28  1  0  0  0  0
 26 29  2  0  0  0  0
 27 28  1  0  0  0  0
 27 58  1  0  0  0  0
 28 30  2  0  0  0  0
 29 31  1  0  0  0  0
 29 61  1  0  0  0  0
 30 32  1  0  0  0  0
 30 62  1  0  0  0  0
 31 32  2  0  0  0  0
 31 63  1  0  0  0  0
 32 64  1  0  0  0  0
M  END
> <PUBCHEM_COMPOUND_CID>
11430418

> <PUBCHEM_COMPOUND_CANONICALIZED>
1

> <PUBCHEM_CACTVS_COMPLEXITY>
741

> <PUBCHEM_CACTVS_HBOND_ACCEPTOR>
6

> <PUBCHEM_CACTVS_HBOND_DONOR>
1

> <PUBCHEM_CACTVS_ROTATABLE_BOND>
6

> <PUBCHEM_CACTVS_SUBSKEYS>
AAADcfB7oAAAAAAAAAAAAAAAAAAAAAAAAAA8WIECAAAAAACx8AAAHgAYAAAADAjBngQx8PMKEACoAydydACCgCkhAiAbuCE4ZNiIYPLAmZGUIAhohALIyWcYiICOAAAAAAACAAAAAAAAAAQAAAAAAAAAAA==

> <PUBCHEM_IUPAC_OPENEYE_NAME>
3-amino-2-[4-[4-(2-quinolyl)piperazin-1-yl]butyl]-5,6,7,8-tetrahydroquinazolin-4-one

> <PUBCHEM_IUPAC_CAS_NAME>
3-amino-2-[4-[4-(2-quinolinyl)-1-piperazinyl]butyl]-5,6,7,8-tetrahydroquinazolin-4-one

> <PUBCHEM_IUPAC_NAME_MARKUP>
3-amino-2-[4-(4-quinolin-2-ylpiperazin-1-yl)butyl]-5,6,7,8-tetrahydroquinazolin-4-one

> <PUBCHEM_IUPAC_NAME>
3-amino-2-[4-(4-quinolin-2-ylpiperazin-1-yl)butyl]-5,6,7,8-tetrahydroquinazolin-4-one

> <PUBCHEM_IUPAC_SYSTEMATIC_NAME>
3-azanyl-2-[4-(4-quinolin-2-ylpiperazin-1-yl)butyl]-5,6,7,8-tetrahydroquinazolin-4-one

> <PUBCHEM_IUPAC_TRADITIONAL_NAME>
3-amino-2-[4-[4-(2-quinolyl)piperazino]butyl]-5,6,7,8-tetrahydroquinazolin-4-one

> <PUBCHEM_IUPAC_INCHI>
InChI=1S/C25H32N6O/c26-31-24(28-22-10-4-2-8-20(22)25(31)32)11-5-6-14-29-15-17-30(18-16-29)23-13-12-19-7-1-3-9-21(19)27-23/h1,3,7,9,12-13H,2,4-6,8,10-11,14-18,26H2

> <PUBCHEM_IUPAC_INCHIKEY>
WFQOETMVYMINSA-UHFFFAOYSA-N

> <PUBCHEM_XLOGP3_AA>
2.8

> <PUBCHEM_EXACT_MASS>
432.26375967

> <PUBCHEM_MOLECULAR_FORMULA>
C25H32N6O

> <PUBCHEM_MOLECULAR_WEIGHT>
432.6

> <PUBCHEM_OPENEYE_CAN_SMILES>
C1CCC2=C(C1)C(=O)N(C(=N2)CCCCN3CCN(CC3)C4=NC5=CC=CC=C5C=C4)N

> <PUBCHEM_OPENEYE_ISO_SMILES>
C1CCC2=C(C1)C(=O)N(C(=N2)CCCCN3CCN(CC3)C4=NC5=CC=CC=C5C=C4)N

> <PUBCHEM_CACTVS_TPSA>
78.1

> <PUBCHEM_MONOISOTOPIC_WEIGHT>
432.26375967

> <PUBCHEM_TOTAL_CHARGE>
0

> <PUBCHEM_HEAVY_ATOM_COUNT>
32

> <PUBCHEM_ATOM_DEF_STEREO_COUNT>
0

> <PUBCHEM_ATOM_UDEF_STEREO_COUNT>
0

> <PUBCHEM_BOND_DEF_STEREO_COUNT>
0

> <PUBCHEM_BOND_UDEF_STEREO_COUNT>
0

> <PUBCHEM_ISOTOPIC_ATOM_COUNT>
0

> <PUBCHEM_COMPONENT_COUNT>
1

> <PUBCHEM_CACTVS_TAUTO_COUNT>
-1

> <PUBCHEM_COORDINATE_TYPE>
1
5
255

> <PUBCHEM_BONDANNOTATIONS>
20  21  8
20  24  8
23  25  8
25  27  8
26  28  8
26  29  8
27  28  8
28  30  8
29  31  8
30  32  8
31  32  8
4  22  8
4  24  8
5  21  8
5  22  8
6  23  8
6  26  8

$$$$
