136020068
  -OEChem-09292322072D

156163  0     0  0  0  0  0  0999 V2000
    2.0000   16.1075    0.0000 Cl  0  0  0  0  0  0  0  0  0  0  0  0
   11.8997  -16.1075    0.0000 Cl  0  0  0  0  0  0  0  0  0  0  0  0
    8.8112    8.1108    0.0000 O   0  0  0  0  0  0  0  0  0  0  0  0
    5.0885   -8.1108    0.0000 O   0  0  0  0  0  0  0  0  0  0  0  0
    7.6390   12.5409    0.0000 N   0  0  0  0  0  0  0  0  0  0  0  0
    6.2606  -12.5409    0.0000 N   0  0  0  0  0  0  0  0  0  0  0  0
    6.7713   14.3429    0.0000 N   0  0  0  0  0  0  0  0  0  0  0  0
    7.1284  -14.3429    0.0000 N   0  0  0  0  0  0  0  0  0  0  0  0
    7.3802    9.0865    0.0000 N   0  0  0  0  0  0  0  0  0  0  0  0
    6.5195   -9.0865    0.0000 N   0  0  0  0  0  0  0  0  0  0  0  0
    5.3374   15.2439    0.0000 N   0  0  0  0  0  0  0  0  0  0  0  0
    8.5623  -15.2439    0.0000 N   0  0  0  0  0  0  0  0  0  0  0  0
    5.8374   17.4345    0.0000 N   0  0  0  0  0  0  0  0  0  0  0  0
    8.0623  -17.4345    0.0000 N   0  0  0  0  0  0  0  0  0  0  0  0
    8.2024   13.3672    0.0000 C   0  0  0  0  0  0  0  0  0  0  0  0
    6.6418   12.6157    0.0000 C   0  0  0  0  0  0  0  0  0  0  0  0
    5.6973  -13.3672    0.0000 C   0  0  0  0  0  0  0  0  0  0  0  0
    7.2578  -12.6157    0.0000 C   0  0  0  0  0  0  0  0  0  0  0  0
    7.7685   14.2681    0.0000 C   0  0  0  0  0  0  0  0  0  0  0  0
    6.2080   13.5166    0.0000 C   0  0  0  0  0  0  0  0  0  0  0  0
    6.1312  -14.2681    0.0000 C   0  0  0  0  0  0  0  0  0  0  0  0
    7.6917  -13.5166    0.0000 C   0  0  0  0  0  0  0  0  0  0  0  0
    8.0729   11.6400    0.0000 C   0  0  0  0  0  0  0  0  0  0  0  0
    5.8268  -11.6400    0.0000 C   0  0  0  0  0  0  0  0  0  0  0  0
    7.5096   10.8137    0.0000 C   0  0  0  0  0  0  0  0  0  0  0  0
    6.3901  -10.8137    0.0000 C   0  0  0  0  0  0  0  0  0  0  0  0
    6.3374   15.2438    0.0000 C   0  0  0  0  0  0  0  0  0  0  0  0
    7.5623  -15.2438    0.0000 C   0  0  0  0  0  0  0  0  0  0  0  0
    7.9435    9.9128    0.0000 C   0  0  0  0  0  0  0  0  0  0  0  0
    5.9562   -9.9128    0.0000 C   0  0  0  0  0  0  0  0  0  0  0  0
    6.7329    0.4505    0.0000 C   0  0  0  0  0  0  0  0  0  0  0  0
    7.1668   -0.4505    0.0000 C   0  0  0  0  0  0  0  0  0  0  0  0
    7.2962    1.2767    0.0000 C   0  0  0  0  0  0  0  0  0  0  0  0
    6.6035   -1.2767    0.0000 C   0  0  0  0  0  0  0  0  0  0  0  0
    6.8624    2.1777    0.0000 C   0  0  0  0  0  0  0  0  0  0  0  0
    7.0373   -2.1777    0.0000 C   0  0  0  0  0  0  0  0  0  0  0  0
    6.9609   16.0257    0.0000 C   0  0  0  0  0  0  0  0  0  0  0  0
    6.9388  -16.0257    0.0000 C   0  0  0  0  0  0  0  0  0  0  0  0
    7.4257    3.0039    0.0000 C   0  0  0  0  0  0  0  0  0  0  0  0
    6.4740   -3.0039    0.0000 C   0  0  0  0  0  0  0  0  0  0  0  0
    6.9918    3.9049    0.0000 C   0  0  0  0  0  0  0  0  0  0  0  0
    6.9079   -3.9049    0.0000 C   0  0  0  0  0  0  0  0  0  0  0  0
    7.5551    4.7311    0.0000 C   0  0  0  0  0  0  0  0  0  0  0  0
    6.3446   -4.7311    0.0000 C   0  0  0  0  0  0  0  0  0  0  0  0
    7.1213    5.6321    0.0000 C   0  0  0  0  0  0  0  0  0  0  0  0
    6.7784   -5.6321    0.0000 C   0  0  0  0  0  0  0  0  0  0  0  0
    7.6846    6.4583    0.0000 C   0  0  0  0  0  0  0  0  0  0  0  0
    6.2151   -6.4583    0.0000 C   0  0  0  0  0  0  0  0  0  0  0  0
    6.7384   17.0006    0.0000 C   0  0  0  0  0  0  0  0  0  0  0  0
    7.1613  -17.0006    0.0000 C   0  0  0  0  0  0  0  0  0  0  0  0
    7.2507    7.3593    0.0000 C   0  0  0  0  0  0  0  0  0  0  0  0
    6.6490   -7.3593    0.0000 C   0  0  0  0  0  0  0  0  0  0  0  0
    7.8140    8.1855    0.0000 C   0  0  0  0  0  0  0  0  0  0  0  0
    6.0857   -8.1855    0.0000 C   0  0  0  0  0  0  0  0  0  0  0  0
    4.7139   16.0257    0.0000 C   0  0  0  0  0  0  0  0  0  0  0  0
    9.1858  -16.0257    0.0000 C   0  0  0  0  0  0  0  0  0  0  0  0
    7.9514   15.7033    0.0000 C   0  0  0  0  0  0  0  0  0  0  0  0
    5.9483  -15.7033    0.0000 C   0  0  0  0  0  0  0  0  0  0  0  0
    4.9365   17.0006    0.0000 C   0  0  0  0  0  0  0  0  0  0  0  0
    8.9632  -17.0006    0.0000 C   0  0  0  0  0  0  0  0  0  0  0  0
    7.4910   17.7208    0.0000 C   0  0  0  0  0  0  0  0  0  0  0  0
    6.4087  -17.7208    0.0000 C   0  0  0  0  0  0  0  0  0  0  0  0
    8.7204   16.4059    0.0000 C   0  0  0  0  0  0  0  0  0  0  0  0
    5.1793  -16.4059    0.0000 C   0  0  0  0  0  0  0  0  0  0  0  0
    8.4887   17.4214    0.0000 C   0  0  0  0  0  0  0  0  0  0  0  0
    5.4110  -17.4214    0.0000 C   0  0  0  0  0  0  0  0  0  0  0  0
    3.7234   15.7034    0.0000 C   0  0  0  0  0  0  0  0  0  0  0  0
   10.1763  -15.7034    0.0000 C   0  0  0  0  0  0  0  0  0  0  0  0
    4.1839   17.7208    0.0000 C   0  0  0  0  0  0  0  0  0  0  0  0
    9.7158  -17.7208    0.0000 C   0  0  0  0  0  0  0  0  0  0  0  0
    2.9544   16.4060    0.0000 C   0  0  0  0  0  0  0  0  0  0  0  0
   10.9453  -16.4060    0.0000 C   0  0  0  0  0  0  0  0  0  0  0  0
    3.1862   17.4215    0.0000 C   0  0  0  0  0  0  0  0  0  0  0  0
   10.7135  -17.4215    0.0000 C   0  0  0  0  0  0  0  0  0  0  0  0
    8.6462   12.9343    0.0000 H   0  0  0  0  0  0  0  0  0  0  0  0
    8.7058   13.7291    0.0000 H   0  0  0  0  0  0  0  0  0  0  0  0
    6.0450   12.4478    0.0000 H   0  0  0  0  0  0  0  0  0  0  0  0
    6.7036   11.9988    0.0000 H   0  0  0  0  0  0  0  0  0  0  0  0
    5.2535  -12.9343    0.0000 H   0  0  0  0  0  0  0  0  0  0  0  0
    5.1939  -13.7291    0.0000 H   0  0  0  0  0  0  0  0  0  0  0  0
    7.8547  -12.4478    0.0000 H   0  0  0  0  0  0  0  0  0  0  0  0
    7.1961  -11.9988    0.0000 H   0  0  0  0  0  0  0  0  0  0  0  0
    8.3653   14.4361    0.0000 H   0  0  0  0  0  0  0  0  0  0  0  0
    7.7068   14.8851    0.0000 H   0  0  0  0  0  0  0  0  0  0  0  0
    5.7641   13.9496    0.0000 H   0  0  0  0  0  0  0  0  0  0  0  0
    5.7046   13.1547    0.0000 H   0  0  0  0  0  0  0  0  0  0  0  0
    5.5344  -14.4361    0.0000 H   0  0  0  0  0  0  0  0  0  0  0  0
    6.1929  -14.8851    0.0000 H   0  0  0  0  0  0  0  0  0  0  0  0
    8.1356  -13.9496    0.0000 H   0  0  0  0  0  0  0  0  0  0  0  0
    8.1951  -13.1547    0.0000 H   0  0  0  0  0  0  0  0  0  0  0  0
    8.5168   11.2071    0.0000 H   0  0  0  0  0  0  0  0  0  0  0  0
    8.5763   12.0019    0.0000 H   0  0  0  0  0  0  0  0  0  0  0  0
    5.3829  -11.2071    0.0000 H   0  0  0  0  0  0  0  0  0  0  0  0
    5.3234  -12.0019    0.0000 H   0  0  0  0  0  0  0  0  0  0  0  0
    7.0658   11.2466    0.0000 H   0  0  0  0  0  0  0  0  0  0  0  0
    7.0062   10.4518    0.0000 H   0  0  0  0  0  0  0  0  0  0  0  0
    6.8339  -11.2466    0.0000 H   0  0  0  0  0  0  0  0  0  0  0  0
    6.8935  -10.4518    0.0000 H   0  0  0  0  0  0  0  0  0  0  0  0
    8.3873    9.4798    0.0000 H   0  0  0  0  0  0  0  0  0  0  0  0
    8.4469   10.2747    0.0000 H   0  0  0  0  0  0  0  0  0  0  0  0
    5.5124   -9.4798    0.0000 H   0  0  0  0  0  0  0  0  0  0  0  0
    5.4528  -10.2747    0.0000 H   0  0  0  0  0  0  0  0  0  0  0  0
    6.2891    0.8834    0.0000 H   0  0  0  0  0  0  0  0  0  0  0  0
    6.2295    0.0886    0.0000 H   0  0  0  0  0  0  0  0  0  0  0  0
    7.6106   -0.8834    0.0000 H   0  0  0  0  0  0  0  0  0  0  0  0
    7.6702   -0.0886    0.0000 H   0  0  0  0  0  0  0  0  0  0  0  0
    7.7401    0.8438    0.0000 H   0  0  0  0  0  0  0  0  0  0  0  0
    7.7996    1.6386    0.0000 H   0  0  0  0  0  0  0  0  0  0  0  0
    6.1596   -0.8438    0.0000 H   0  0  0  0  0  0  0  0  0  0  0  0
    6.1001   -1.6386    0.0000 H   0  0  0  0  0  0  0  0  0  0  0  0
    6.4185    2.6106    0.0000 H   0  0  0  0  0  0  0  0  0  0  0  0
    6.3590    1.8158    0.0000 H   0  0  0  0  0  0  0  0  0  0  0  0
    7.4812   -2.6106    0.0000 H   0  0  0  0  0  0  0  0  0  0  0  0
    7.5407   -1.8158    0.0000 H   0  0  0  0  0  0  0  0  0  0  0  0
    7.8695    2.5710    0.0000 H   0  0  0  0  0  0  0  0  0  0  0  0
    7.9291    3.3658    0.0000 H   0  0  0  0  0  0  0  0  0  0  0  0
    6.0302   -2.5710    0.0000 H   0  0  0  0  0  0  0  0  0  0  0  0
    5.9706   -3.3658    0.0000 H   0  0  0  0  0  0  0  0  0  0  0  0
    6.5480    4.3378    0.0000 H   0  0  0  0  0  0  0  0  0  0  0  0
    6.4884    3.5430    0.0000 H   0  0  0  0  0  0  0  0  0  0  0  0
    7.3517   -4.3378    0.0000 H   0  0  0  0  0  0  0  0  0  0  0  0
    7.4113   -3.5430    0.0000 H   0  0  0  0  0  0  0  0  0  0  0  0
    7.9990    4.2982    0.0000 H   0  0  0  0  0  0  0  0  0  0  0  0
    8.0585    5.0930    0.0000 H   0  0  0  0  0  0  0  0  0  0  0  0
    5.9007   -4.2982    0.0000 H   0  0  0  0  0  0  0  0  0  0  0  0
    5.8412   -5.0930    0.0000 H   0  0  0  0  0  0  0  0  0  0  0  0
    6.6774    6.0650    0.0000 H   0  0  0  0  0  0  0  0  0  0  0  0
    6.6178    5.2702    0.0000 H   0  0  0  0  0  0  0  0  0  0  0  0
    7.2223   -6.0650    0.0000 H   0  0  0  0  0  0  0  0  0  0  0  0
    7.2818   -5.2702    0.0000 H   0  0  0  0  0  0  0  0  0  0  0  0
    8.1284    6.0254    0.0000 H   0  0  0  0  0  0  0  0  0  0  0  0
    8.1880    6.8203    0.0000 H   0  0  0  0  0  0  0  0  0  0  0  0
    5.7713   -6.0254    0.0000 H   0  0  0  0  0  0  0  0  0  0  0  0
    5.7117   -6.8203    0.0000 H   0  0  0  0  0  0  0  0  0  0  0  0
    6.7619    9.1329    0.0000 H   0  0  0  0  0  0  0  0  0  0  0  0
    7.1378   -9.1329    0.0000 H   0  0  0  0  0  0  0  0  0  0  0  0
    6.8069    7.7922    0.0000 H   0  0  0  0  0  0  0  0  0  0  0  0
    6.7473    6.9974    0.0000 H   0  0  0  0  0  0  0  0  0  0  0  0
    7.0928   -7.7922    0.0000 H   0  0  0  0  0  0  0  0  0  0  0  0
    7.1524   -6.9974    0.0000 H   0  0  0  0  0  0  0  0  0  0  0  0
    8.0824   15.0973    0.0000 H   0  0  0  0  0  0  0  0  0  0  0  0
    5.8173  -15.0973    0.0000 H   0  0  0  0  0  0  0  0  0  0  0  0
    5.8374   18.0545    0.0000 H   0  0  0  0  0  0  0  0  0  0  0  0
    8.0622  -18.0545    0.0000 H   0  0  0  0  0  0  0  0  0  0  0  0
    7.3460   18.3236    0.0000 H   0  0  0  0  0  0  0  0  0  0  0  0
    6.5537  -18.3236    0.0000 H   0  0  0  0  0  0  0  0  0  0  0  0
    9.3122   16.2209    0.0000 H   0  0  0  0  0  0  0  0  0  0  0  0
    4.5875  -16.2209    0.0000 H   0  0  0  0  0  0  0  0  0  0  0  0
    8.9415   17.8449    0.0000 H   0  0  0  0  0  0  0  0  0  0  0  0
    4.9582  -17.8449    0.0000 H   0  0  0  0  0  0  0  0  0  0  0  0
    3.5925   15.0974    0.0000 H   0  0  0  0  0  0  0  0  0  0  0  0
   10.3072  -15.0974    0.0000 H   0  0  0  0  0  0  0  0  0  0  0  0
    4.3289   18.3236    0.0000 H   0  0  0  0  0  0  0  0  0  0  0  0
    9.5708  -18.3236    0.0000 H   0  0  0  0  0  0  0  0  0  0  0  0
    2.7334   17.8449    0.0000 H   0  0  0  0  0  0  0  0  0  0  0  0
   11.1663  -17.8449    0.0000 H   0  0  0  0  0  0  0  0  0  0  0  0
  1 71  1  0  0  0  0
  2 72  1  0  0  0  0
  3 53  2  0  0  0  0
  4 54  2  0  0  0  0
  5 15  1  0  0  0  0
  5 16  1  0  0  0  0
  5 23  1  0  0  0  0
  6 17  1  0  0  0  0
  6 18  1  0  0  0  0
  6 24  1  0  0  0  0
  7 19  1  0  0  0  0
  7 20  1  0  0  0  0
  7 27  1  0  0  0  0
  8 21  1  0  0  0  0
  8 22  1  0  0  0  0
  8 28  1  0  0  0  0
  9 29  1  0  0  0  0
  9 53  1  0  0  0  0
  9135  1  0  0  0  0
 10 30  1  0  0  0  0
 10 54  1  0  0  0  0
 10136  1  0  0  0  0
 11 27  2  0  0  0  0
 11 55  1  0  0  0  0
 12 28  2  0  0  0  0
 12 56  1  0  0  0  0
 13 49  1  0  0  0  0
 13 59  1  0  0  0  0
 13143  1  0  0  0  0
 14 50  1  0  0  0  0
 14 60  1  0  0  0  0
 14144  1  0  0  0  0
 15 19  1  0  0  0  0
 15 75  1  0  0  0  0
 15 76  1  0  0  0  0
 16 20  1  0  0  0  0
 16 77  1  0  0  0  0
 16 78  1  0  0  0  0
 17 21  1  0  0  0  0
 17 79  1  0  0  0  0
 17 80  1  0  0  0  0
 18 22  1  0  0  0  0
 18 81  1  0  0  0  0
 18 82  1  0  0  0  0
 19 83  1  0  0  0  0
 19 84  1  0  0  0  0
 20 85  1  0  0  0  0
 20 86  1  0  0  0  0
 21 87  1  0  0  0  0
 21 88  1  0  0  0  0
 22 89  1  0  0  0  0
 22 90  1  0  0  0  0
 23 25  1  0  0  0  0
 23 91  1  0  0  0  0
 23 92  1  0  0  0  0
 24 26  1  0  0  0  0
 24 93  1  0  0  0  0
 24 94  1  0  0  0  0
 25 29  1  0  0  0  0
 25 95  1  0  0  0  0
 25 96  1  0  0  0  0
 26 30  1  0  0  0  0
 26 97  1  0  0  0  0
 26 98  1  0  0  0  0
 27 37  1  0  0  0  0
 28 38  1  0  0  0  0
 29 99  1  0  0  0  0
 29100  1  0  0  0  0
 30101  1  0  0  0  0
 30102  1  0  0  0  0
 31 32  1  0  0  0  0
 31 33  1  0  0  0  0
 31103  1  0  0  0  0
 31104  1  0  0  0  0
 32 34  1  0  0  0  0
 32105  1  0  0  0  0
 32106  1  0  0  0  0
 33 35  1  0  0  0  0
 33107  1  0  0  0  0
 33108  1  0  0  0  0
 34 36  1  0  0  0  0
 34109  1  0  0  0  0
 34110  1  0  0  0  0
 35 39  1  0  0  0  0
 35111  1  0  0  0  0
 35112  1  0  0  0  0
 36 40  1  0  0  0  0
 36113  1  0  0  0  0
 36114  1  0  0  0  0
 37 49  1  0  0  0  0
 37 57  2  0  0  0  0
 38 50  1  0  0  0  0
 38 58  2  0  0  0  0
 39 41  1  0  0  0  0
 39115  1  0  0  0  0
 39116  1  0  0  0  0
 40 42  1  0  0  0  0
 40117  1  0  0  0  0
 40118  1  0  0  0  0
 41 43  1  0  0  0  0
 41119  1  0  0  0  0
 41120  1  0  0  0  0
 42 44  1  0  0  0  0
 42121  1  0  0  0  0
 42122  1  0  0  0  0
 43 45  1  0  0  0  0
 43123  1  0  0  0  0
 43124  1  0  0  0  0
 44 46  1  0  0  0  0
 44125  1  0  0  0  0
 44126  1  0  0  0  0
 45 47  1  0  0  0  0
 45127  1  0  0  0  0
 45128  1  0  0  0  0
 46 48  1  0  0  0  0
 46129  1  0  0  0  0
 46130  1  0  0  0  0
 47 51  1  0  0  0  0
 47131  1  0  0  0  0
 47132  1  0  0  0  0
 48 52  1  0  0  0  0
 48133  1  0  0  0  0
 48134  1  0  0  0  0
 49 61  2  0  0  0  0
 50 62  2  0  0  0  0
 51 53  1  0  0  0  0
 51137  1  0  0  0  0
 51138  1  0  0  0  0
 52 54  1  0  0  0  0
 52139  1  0  0  0  0
 52140  1  0  0  0  0
 55 59  2  0  0  0  0
 55 67  1  0  0  0  0
 56 60  2  0  0  0  0
 56 68  1  0  0  0  0
 57 63  1  0  0  0  0
 57141  1  0  0  0  0
 58 64  1  0  0  0  0
 58142  1  0  0  0  0
 59 69  1  0  0  0  0
 60 70  1  0  0  0  0
 61 65  1  0  0  0  0
 61145  1  0  0  0  0
 62 66  1  0  0  0  0
 62146  1  0  0  0  0
 63 65  2  0  0  0  0
 63147  1  0  0  0  0
 64 66  2  0  0  0  0
 64148  1  0  0  0  0
 65149  1  0  0  0  0
 66150  1  0  0  0  0
 67 71  2  0  0  0  0
 67151  1  0  0  0  0
 68 72  2  0  0  0  0
 68152  1  0  0  0  0
 69 73  2  0  0  0  0
 69153  1  0  0  0  0
 70 74  2  0  0  0  0
 70154  1  0  0  0  0
 71 73  1  0  0  0  0
 72 74  1  0  0  0  0
 73155  1  0  0  0  0
 74156  1  0  0  0  0
M  END
> <PUBCHEM_COMPOUND_CID>
136020068

> <PUBCHEM_COMPOUND_CANONICALIZED>
1

> <PUBCHEM_CACTVS_COMPLEXITY>
1570

> <PUBCHEM_CACTVS_HBOND_ACCEPTOR>
8

> <PUBCHEM_CACTVS_HBOND_DONOR>
4

> <PUBCHEM_CACTVS_ROTATABLE_BOND>
29

> <PUBCHEM_CACTVS_SUBSKEYS>
AAADcfB/8AAGAAAAAAAAAAAAAAAAAAAAAAA8eMGCBAgAAAABVAAAHgIQAAAADArBmCQxwIPAAACoAidydACCAAEhBwAJiIEodpgIYPLB25GUIAhglgDIyAcYiICOAABAAAICACAAAIAABAQAQAAAAAAAAA==

> <PUBCHEM_IUPAC_OPENEYE_NAME>
N,N'-bis[3-[4-(3-chloro-11H-benzo[b][1,4]benzodiazepin-6-yl)piperazin-1-yl]propyl]icosanediamide

> <PUBCHEM_IUPAC_CAS_NAME>
N,N'-bis[3-[4-(3-chloro-11H-benzo[b][1,4]benzodiazepin-6-yl)-1-piperazinyl]propyl]eicosanediamide

> <PUBCHEM_IUPAC_NAME_MARKUP>
<I>N</I>,<I>N</I>&apos;-bis[3-[4-(3-chloro-11<I>H</I>-benzo[b][1,4]benzodiazepin-6-yl)piperazin-1-yl]propyl]icosanediamide

> <PUBCHEM_IUPAC_NAME>
N,N'-bis[3-[4-(3-chloro-11H-benzo[b][1,4]benzodiazepin-6-yl)piperazin-1-yl]propyl]icosanediamide

> <PUBCHEM_IUPAC_SYSTEMATIC_NAME>
N,N'-bis[3-[4-(3-chloranyl-11H-benzo[b][1,4]benzodiazepin-6-yl)piperazin-1-yl]propyl]icosanediamide

> <PUBCHEM_IUPAC_TRADITIONAL_NAME>
N,N'-bis[3-[4-(3-chloro-11H-benzo[b][1,4]benzodiazepin-6-yl)piperazino]propyl]eicosanediamide

> <PUBCHEM_IUPAC_INCHI>
InChI=1S/C60H82Cl2N10O2/c61-47-29-31-53-55(45-47)67-59(49-23-17-19-25-51(49)65-53)71-41-37-69(38-42-71)35-21-33-63-57(73)27-15-13-11-9-7-5-3-1-2-4-6-8-10-12-14-16-28-58(74)64-34-22-36-70-39-43-72(44-40-70)60-50-24-18-20-26-52(50)66-54-32-30-48(62)46-56(54)68-60/h17-20,23-26,29-32,45-46,65-66H,1-16,21-22,27-28,33-44H2,(H,63,73)(H,64,74)

> <PUBCHEM_IUPAC_INCHIKEY>
KPOUJBUAQSEOJX-UHFFFAOYSA-N

> <PUBCHEM_XLOGP3_AA>
13.4

> <PUBCHEM_EXACT_MASS>
1044.5999273

> <PUBCHEM_MOLECULAR_FORMULA>
C60H82Cl2N10O2

> <PUBCHEM_MOLECULAR_WEIGHT>
1046.3

> <PUBCHEM_OPENEYE_CAN_SMILES>
C1CN(CCN1CCCNC(=O)CCCCCCCCCCCCCCCCCCC(=O)NCCCN2CCN(CC2)C3=NC4=C(C=CC(=C4)Cl)NC5=CC=CC=C53)C6=NC7=C(C=CC(=C7)Cl)NC8=CC=CC=C86

> <PUBCHEM_OPENEYE_ISO_SMILES>
C1CN(CCN1CCCNC(=O)CCCCCCCCCCCCCCCCCCC(=O)NCCCN2CCN(CC2)C3=NC4=C(C=CC(=C4)Cl)NC5=CC=CC=C53)C6=NC7=C(C=CC(=C7)Cl)NC8=CC=CC=C86

> <PUBCHEM_CACTVS_TPSA>
120

> <PUBCHEM_MONOISOTOPIC_WEIGHT>
1044.5999273

> <PUBCHEM_TOTAL_CHARGE>
0

> <PUBCHEM_HEAVY_ATOM_COUNT>
74

> <PUBCHEM_ATOM_DEF_STEREO_COUNT>
0

> <PUBCHEM_ATOM_UDEF_STEREO_COUNT>
0

> <PUBCHEM_BOND_DEF_STEREO_COUNT>
0

> <PUBCHEM_BOND_UDEF_STEREO_COUNT>
0

> <PUBCHEM_ISOTOPIC_ATOM_COUNT>
0

> <PUBCHEM_COMPONENT_COUNT>
1

> <PUBCHEM_CACTVS_TAUTO_COUNT>
-1

> <PUBCHEM_COORDINATE_TYPE>
1
5
255

> <PUBCHEM_BONDANNOTATIONS>
37  49  8
37  57  8
38  50  8
38  58  8
49  61  8
50  62  8
55  59  8
55  67  8
56  60  8
56  68  8
57  63  8
58  64  8
59  69  8
60  70  8
61  65  8
62  66  8
63  65  8
64  66  8
67  71  8
68  72  8
69  73  8
70  74  8
71  73  8
72  74  8

$$$$
