45006130
  -OEChem-09292322092D

 52 54  0     0  0  0  0  0  0999 V2000
    7.4641    5.2990    0.0000 F   0  0  0  0  0  0  0  0  0  0  0  0
    7.0981    6.6651    0.0000 F   0  0  0  0  0  0  0  0  0  0  0  0
    5.7320    6.2990    0.0000 F   0  0  0  0  0  0  0  0  0  0  0  0
    2.8660   -6.6651    0.0000 F   0  0  0  0  0  0  0  0  0  0  0  0
    4.0981    3.2010    0.0000 O   0  0  0  0  0  0  0  0  0  0  0  0
    2.0000   -2.1651    0.0000 O   0  0  0  0  0  0  0  0  0  0  0  0
    4.5981    0.3349    0.0000 N   0  0  0  0  0  0  0  0  0  0  0  0
    4.5981    2.3349    0.0000 C   0  0  0  0  0  0  0  0  0  0  0  0
    5.4641    1.8349    0.0000 C   0  0  0  0  0  0  0  0  0  0  0  0
    3.7320    1.8349    0.0000 C   0  0  0  0  0  0  0  0  0  0  0  0
    5.4641    0.8349    0.0000 C   0  0  0  0  0  0  0  0  0  0  0  0
    3.7320    0.8349    0.0000 C   0  0  0  0  0  0  0  0  0  0  0  0
    5.0981    3.2010    0.0000 C   0  0  0  0  0  0  0  0  0  0  0  0
    4.5981   -0.6651    0.0000 C   0  0  0  0  0  0  0  0  0  0  0  0
    3.7320   -1.1651    0.0000 C   0  0  0  0  0  0  0  0  0  0  0  0
    4.5981    4.0670    0.0000 C   0  0  0  0  0  0  0  0  0  0  0  0
    6.0981    3.2010    0.0000 C   0  0  0  0  0  0  0  0  0  0  0  0
    3.7320   -2.1651    0.0000 C   0  0  0  0  0  0  0  0  0  0  0  0
    5.0981    4.9330    0.0000 C   0  0  0  0  0  0  0  0  0  0  0  0
    6.5981    4.0670    0.0000 C   0  0  0  0  0  0  0  0  0  0  0  0
    6.0981    4.9330    0.0000 C   0  0  0  0  0  0  0  0  0  0  0  0
    2.8660   -2.6651    0.0000 C   0  0  0  0  0  0  0  0  0  0  0  0
    6.5981    5.7990    0.0000 C   0  0  0  0  0  0  0  0  0  0  0  0
    2.8660   -3.6651    0.0000 C   0  0  0  0  0  0  0  0  0  0  0  0
    2.0000   -4.1651    0.0000 C   0  0  0  0  0  0  0  0  0  0  0  0
    3.7320   -4.1651    0.0000 C   0  0  0  0  0  0  0  0  0  0  0  0
    2.0000   -5.1651    0.0000 C   0  0  0  0  0  0  0  0  0  0  0  0
    3.7320   -5.1651    0.0000 C   0  0  0  0  0  0  0  0  0  0  0  0
    2.8660   -5.6651    0.0000 C   0  0  0  0  0  0  0  0  0  0  0  0
    6.0747    1.7273    0.0000 H   0  0  0  0  0  0  0  0  0  0  0  0
    5.6762    2.4176    0.0000 H   0  0  0  0  0  0  0  0  0  0  0  0
    3.5200    2.4176    0.0000 H   0  0  0  0  0  0  0  0  0  0  0  0
    3.1215    1.7273    0.0000 H   0  0  0  0  0  0  0  0  0  0  0  0
    5.6762    0.2523    0.0000 H   0  0  0  0  0  0  0  0  0  0  0  0
    6.0747    0.9426    0.0000 H   0  0  0  0  0  0  0  0  0  0  0  0
    3.1215    0.9426    0.0000 H   0  0  0  0  0  0  0  0  0  0  0  0
    3.5200    0.2523    0.0000 H   0  0  0  0  0  0  0  0  0  0  0  0
    4.8101   -1.2477    0.0000 H   0  0  0  0  0  0  0  0  0  0  0  0
    5.2087   -0.5574    0.0000 H   0  0  0  0  0  0  0  0  0  0  0  0
    3.5200   -0.5825    0.0000 H   0  0  0  0  0  0  0  0  0  0  0  0
    3.1215   -1.2727    0.0000 H   0  0  0  0  0  0  0  0  0  0  0  0
    3.4781    3.2010    0.0000 H   0  0  0  0  0  0  0  0  0  0  0  0
    3.9781    4.0670    0.0000 H   0  0  0  0  0  0  0  0  0  0  0  0
    6.4081    2.6640    0.0000 H   0  0  0  0  0  0  0  0  0  0  0  0
    3.9441   -2.7477    0.0000 H   0  0  0  0  0  0  0  0  0  0  0  0
    4.3426   -2.0574    0.0000 H   0  0  0  0  0  0  0  0  0  0  0  0
    4.7881    5.4700    0.0000 H   0  0  0  0  0  0  0  0  0  0  0  0
    7.2181    4.0670    0.0000 H   0  0  0  0  0  0  0  0  0  0  0  0
    1.4631   -3.8551    0.0000 H   0  0  0  0  0  0  0  0  0  0  0  0
    4.2690   -3.8551    0.0000 H   0  0  0  0  0  0  0  0  0  0  0  0
    1.4631   -5.4751    0.0000 H   0  0  0  0  0  0  0  0  0  0  0  0
    4.2690   -5.4751    0.0000 H   0  0  0  0  0  0  0  0  0  0  0  0
  1 23  1  0  0  0  0
  2 23  1  0  0  0  0
  3 23  1  0  0  0  0
  4 29  1  0  0  0  0
  5  8  1  0  0  0  0
  5 42  1  0  0  0  0
  6 22  2  0  0  0  0
  7 11  1  0  0  0  0
  7 12  1  0  0  0  0
  7 14  1  0  0  0  0
  8  9  1  0  0  0  0
  8 10  1  0  0  0  0
  8 13  1  0  0  0  0
  9 11  1  0  0  0  0
  9 30  1  0  0  0  0
  9 31  1  0  0  0  0
 10 12  1  0  0  0  0
 10 32  1  0  0  0  0
 10 33  1  0  0  0  0
 11 34  1  0  0  0  0
 11 35  1  0  0  0  0
 12 36  1  0  0  0  0
 12 37  1  0  0  0  0
 13 16  2  0  0  0  0
 13 17  1  0  0  0  0
 14 15  1  0  0  0  0
 14 38  1  0  0  0  0
 14 39  1  0  0  0  0
 15 18  1  0  0  0  0
 15 40  1  0  0  0  0
 15 41  1  0  0  0  0
 16 19  1  0  0  0  0
 16 43  1  0  0  0  0
 17 20  2  0  0  0  0
 17 44  1  0  0  0  0
 18 22  1  0  0  0  0
 18 45  1  0  0  0  0
 18 46  1  0  0  0  0
 19 21  2  0  0  0  0
 19 47  1  0  0  0  0
 20 21  1  0  0  0  0
 20 48  1  0  0  0  0
 21 23  1  0  0  0  0
 22 24  1  0  0  0  0
 24 25  2  0  0  0  0
 24 26  1  0  0  0  0
 25 27  1  0  0  0  0
 25 49  1  0  0  0  0
 26 28  2  0  0  0  0
 26 50  1  0  0  0  0
 27 29  2  0  0  0  0
 27 51  1  0  0  0  0
 28 29  1  0  0  0  0
 28 52  1  0  0  0  0
M  END
> <PUBCHEM_COMPOUND_CID>
45006130

> <PUBCHEM_COMPOUND_CANONICALIZED>
1

> <PUBCHEM_CACTVS_COMPLEXITY>
529

> <PUBCHEM_CACTVS_HBOND_ACCEPTOR>
7

> <PUBCHEM_CACTVS_HBOND_DONOR>
1

> <PUBCHEM_CACTVS_ROTATABLE_BOND>
6

> <PUBCHEM_CACTVS_SUBSKEYS>
AAADceB6McAAAAAAAAAAAAAAAAAAAAAAAAA8YIAAAAAAAAABQAAAHwAACAAADETBmBwwAIMAAgCIAqBSAAACAAAkAAAIiAEICMgIJjKAlRCEcQAmwAGImYecyPCOwAAAAAAAAACAAAAAAAAAAAAAAAAAAA==

> <PUBCHEM_IUPAC_OPENEYE_NAME>
1-(4-fluorophenyl)-4-[4-hydroxy-4-[4-(trifluoromethyl)phenyl]-1-piperidyl]butan-1-one

> <PUBCHEM_IUPAC_CAS_NAME>
1-(4-fluorophenyl)-4-[4-hydroxy-4-[4-(trifluoromethyl)phenyl]-1-piperidinyl]-1-butanone

> <PUBCHEM_IUPAC_NAME_MARKUP>
1-(4-fluorophenyl)-4-[4-hydroxy-4-[4-(trifluoromethyl)phenyl]piperidin-1-yl]butan-1-one

> <PUBCHEM_IUPAC_NAME>
1-(4-fluorophenyl)-4-[4-hydroxy-4-[4-(trifluoromethyl)phenyl]piperidin-1-yl]butan-1-one

> <PUBCHEM_IUPAC_SYSTEMATIC_NAME>
1-(4-fluorophenyl)-4-[4-oxidanyl-4-[4-(trifluoromethyl)phenyl]piperidin-1-yl]butan-1-one

> <PUBCHEM_IUPAC_TRADITIONAL_NAME>
1-(4-fluorophenyl)-4-[4-hydroxy-4-[4-(trifluoromethyl)phenyl]piperidino]butan-1-one

> <PUBCHEM_IUPAC_INCHI>
InChI=1S/C22H23F4NO2/c23-19-9-3-16(4-10-19)20(28)2-1-13-27-14-11-21(29,12-15-27)17-5-7-18(8-6-17)22(24,25)26/h3-10,29H,1-2,11-15H2

> <PUBCHEM_IUPAC_INCHIKEY>
FUGGMNXTBZFFDM-UHFFFAOYSA-N

> <PUBCHEM_XLOGP3>
3.5

> <PUBCHEM_EXACT_MASS>
409.16649162

> <PUBCHEM_MOLECULAR_FORMULA>
C22H23F4NO2

> <PUBCHEM_MOLECULAR_WEIGHT>
409.4

> <PUBCHEM_OPENEYE_CAN_SMILES>
C1CN(CCC1(C2=CC=C(C=C2)C(F)(F)F)O)CCCC(=O)C3=CC=C(C=C3)F

> <PUBCHEM_OPENEYE_ISO_SMILES>
C1CN(CCC1(C2=CC=C(C=C2)C(F)(F)F)O)CCCC(=O)C3=CC=C(C=C3)F

> <PUBCHEM_CACTVS_TPSA>
40.5

> <PUBCHEM_MONOISOTOPIC_WEIGHT>
409.16649162

> <PUBCHEM_TOTAL_CHARGE>
0

> <PUBCHEM_HEAVY_ATOM_COUNT>
29

> <PUBCHEM_ATOM_DEF_STEREO_COUNT>
0

> <PUBCHEM_ATOM_UDEF_STEREO_COUNT>
0

> <PUBCHEM_BOND_DEF_STEREO_COUNT>
0

> <PUBCHEM_BOND_UDEF_STEREO_COUNT>
0

> <PUBCHEM_ISOTOPIC_ATOM_COUNT>
0

> <PUBCHEM_COMPONENT_COUNT>
1

> <PUBCHEM_CACTVS_TAUTO_COUNT>
-1

> <PUBCHEM_COORDINATE_TYPE>
1
5
255

> <PUBCHEM_BONDANNOTATIONS>
13  16  8
13  17  8
16  19  8
17  20  8
19  21  8
20  21  8
24  25  8
24  26  8
25  27  8
26  28  8
27  29  8
28  29  8

$$$$
