11523930
  -OEChem-09292322272D

 61 65  0     1  0  0  0  0  0999 V2000
    5.9233   -1.9276    0.0000 N   0  0  0  0  0  0  0  0  0  0  0  0
    5.9233    0.0724    0.0000 N   0  0  0  0  0  0  0  0  0  0  0  0
    7.6833   -4.9622    0.0000 N   0  0  3  0  0  0  0  0  0  0  0  0
    2.6164    3.4043    0.0000 N   0  0  0  0  0  0  0  0  0  0  0  0
    6.7893   -1.4276    0.0000 C   0  0  0  0  0  0  0  0  0  0  0  0
    5.0573   -1.4276    0.0000 C   0  0  0  0  0  0  0  0  0  0  0  0
    6.7893   -0.4276    0.0000 C   0  0  0  0  0  0  0  0  0  0  0  0
    5.0573   -0.4276    0.0000 C   0  0  0  0  0  0  0  0  0  0  0  0
    5.9233   -2.9276    0.0000 C   0  0  0  0  0  0  0  0  0  0  0  0
    6.7893   -3.4276    0.0000 C   0  0  0  0  0  0  0  0  0  0  0  0
    5.9233    1.0724    0.0000 C   0  0  0  0  0  0  0  0  0  0  0  0
    7.6833   -2.8929    0.0000 C   0  0  0  0  0  0  0  0  0  0  0  0
    6.7893   -4.4276    0.0000 C   0  0  0  0  0  0  0  0  0  0  0  0
    8.5893   -3.4068    0.0000 C   0  0  0  0  0  0  0  0  0  0  0  0
    5.0573    1.5724    0.0000 C   0  0  0  0  0  0  0  0  0  0  0  0
    8.5893   -4.4484    0.0000 C   0  0  0  0  0  0  0  0  0  0  0  0
    5.0573   -3.4276    0.0000 C   0  0  0  0  0  0  0  0  0  0  0  0
    5.0573    2.5724    0.0000 C   0  0  0  0  0  0  0  0  0  0  0  0
    5.9233   -4.9276    0.0000 C   0  0  0  0  0  0  0  0  0  0  0  0
    5.0573   -4.4276    0.0000 C   0  0  0  0  0  0  0  0  0  0  0  0
    4.1912    3.0724    0.0000 C   0  0  0  0  0  0  0  0  0  0  0  0
    7.6717   -5.9622    0.0000 C   0  0  0  0  0  0  0  0  0  0  0  0
    4.0882    4.0611    0.0000 C   0  0  0  0  0  0  0  0  0  0  0  0
    3.2835    2.6673    0.0000 C   0  0  0  0  0  0  0  0  0  0  0  0
    3.1097    4.2674    0.0000 C   0  0  0  0  0  0  0  0  0  0  0  0
    4.7560    4.8054    0.0000 C   0  0  0  0  0  0  0  0  0  0  0  0
    2.7990    5.2179    0.0000 C   0  0  0  0  0  0  0  0  0  0  0  0
    4.4454    5.7560    0.0000 C   0  0  0  0  0  0  0  0  0  0  0  0
    3.4669    5.9622    0.0000 C   0  0  0  0  0  0  0  0  0  0  0  0
    7.0014   -2.0102    0.0000 H   0  0  0  0  0  0  0  0  0  0  0  0
    7.3999   -1.3199    0.0000 H   0  0  0  0  0  0  0  0  0  0  0  0
    4.4467   -1.3199    0.0000 H   0  0  0  0  0  0  0  0  0  0  0  0
    4.8452   -2.0102    0.0000 H   0  0  0  0  0  0  0  0  0  0  0  0
    7.3999   -0.5352    0.0000 H   0  0  0  0  0  0  0  0  0  0  0  0
    7.0014    0.1550    0.0000 H   0  0  0  0  0  0  0  0  0  0  0  0
    4.8452    0.1550    0.0000 H   0  0  0  0  0  0  0  0  0  0  0  0
    4.4467   -0.5352    0.0000 H   0  0  0  0  0  0  0  0  0  0  0  0
    6.5339    0.9648    0.0000 H   0  0  0  0  0  0  0  0  0  0  0  0
    6.1354    1.6550    0.0000 H   0  0  0  0  0  0  0  0  0  0  0  0
    8.0769   -2.4139    0.0000 H   0  0  0  0  0  0  0  0  0  0  0  0
    7.2787   -2.4231    0.0000 H   0  0  0  0  0  0  0  0  0  0  0  0
    9.2002   -3.5129    0.0000 H   0  0  0  0  0  0  0  0  0  0  0  0
    8.7984   -2.8231    0.0000 H   0  0  0  0  0  0  0  0  0  0  0  0
    4.4467    1.6801    0.0000 H   0  0  0  0  0  0  0  0  0  0  0  0
    4.8452    0.9898    0.0000 H   0  0  0  0  0  0  0  0  0  0  0  0
    8.7984   -5.0321    0.0000 H   0  0  0  0  0  0  0  0  0  0  0  0
    9.2002   -4.3423    0.0000 H   0  0  0  0  0  0  0  0  0  0  0  0
    4.5203   -3.1176    0.0000 H   0  0  0  0  0  0  0  0  0  0  0  0
    5.6678    2.4648    0.0000 H   0  0  0  0  0  0  0  0  0  0  0  0
    5.2693    3.1550    0.0000 H   0  0  0  0  0  0  0  0  0  0  0  0
    5.9233   -5.5476    0.0000 H   0  0  0  0  0  0  0  0  0  0  0  0
    4.5203   -4.7376    0.0000 H   0  0  0  0  0  0  0  0  0  0  0  0
    7.0517   -5.9550    0.0000 H   0  0  0  0  0  0  0  0  0  0  0  0
    7.6645   -6.5821    0.0000 H   0  0  0  0  0  0  0  0  0  0  0  0
    8.2917   -5.9694    0.0000 H   0  0  0  0  0  0  0  0  0  0  0  0
    3.1556    2.0606    0.0000 H   0  0  0  0  0  0  0  0  0  0  0  0
    2.0000    3.3374    0.0000 H   0  0  0  0  0  0  0  0  0  0  0  0
    5.3627    4.6776    0.0000 H   0  0  0  0  0  0  0  0  0  0  0  0
    2.1923    5.3457    0.0000 H   0  0  0  0  0  0  0  0  0  0  0  0
    4.8594    6.2174    0.0000 H   0  0  0  0  0  0  0  0  0  0  0  0
    3.2743    6.5515    0.0000 H   0  0  0  0  0  0  0  0  0  0  0  0
  1  5  1  0  0  0  0
  1  6  1  0  0  0  0
  1  9  1  0  0  0  0
  2  7  1  0  0  0  0
  2  8  1  0  0  0  0
  2 11  1  0  0  0  0
  3 13  1  0  0  0  0
  3 16  1  0  0  0  0
  3 22  1  0  0  0  0
  4 24  1  0  0  0  0
  4 25  1  0  0  0  0
  4 57  1  0  0  0  0
  5  7  1  0  0  0  0
  5 30  1  0  0  0  0
  5 31  1  0  0  0  0
  6  8  1  0  0  0  0
  6 32  1  0  0  0  0
  6 33  1  0  0  0  0
  7 34  1  0  0  0  0
  7 35  1  0  0  0  0
  8 36  1  0  0  0  0
  8 37  1  0  0  0  0
  9 10  1  0  0  0  0
  9 17  2  0  0  0  0
 10 12  1  0  0  0  0
 10 13  2  0  0  0  0
 11 15  1  0  0  0  0
 11 38  1  0  0  0  0
 11 39  1  0  0  0  0
 12 14  1  0  0  0  0
 12 40  1  0  0  0  0
 12 41  1  0  0  0  0
 13 19  1  0  0  0  0
 14 16  1  0  0  0  0
 14 42  1  0  0  0  0
 14 43  1  0  0  0  0
 15 18  1  0  0  0  0
 15 44  1  0  0  0  0
 15 45  1  0  0  0  0
 16 46  1  0  0  0  0
 16 47  1  0  0  0  0
 17 20  1  0  0  0  0
 17 48  1  0  0  0  0
 18 21  1  0  0  0  0
 18 49  1  0  0  0  0
 18 50  1  0  0  0  0
 19 20  2  0  0  0  0
 19 51  1  0  0  0  0
 20 52  1  0  0  0  0
 21 23  1  0  0  0  0
 21 24  2  0  0  0  0
 22 53  1  0  0  0  0
 22 54  1  0  0  0  0
 22 55  1  0  0  0  0
 23 25  1  0  0  0  0
 23 26  2  0  0  0  0
 24 56  1  0  0  0  0
 25 27  2  0  0  0  0
 26 28  1  0  0  0  0
 26 58  1  0  0  0  0
 27 29  1  0  0  0  0
 27 59  1  0  0  0  0
 28 29  2  0  0  0  0
 28 60  1  0  0  0  0
 29 61  1  0  0  0  0
M  END
> <PUBCHEM_COMPOUND_CID>
11523930

> <PUBCHEM_COMPOUND_CANONICALIZED>
1

> <PUBCHEM_CACTVS_COMPLEXITY>
517

> <PUBCHEM_CACTVS_HBOND_ACCEPTOR>
3

> <PUBCHEM_CACTVS_HBOND_DONOR>
1

> <PUBCHEM_CACTVS_ROTATABLE_BOND>
5

> <PUBCHEM_CACTVS_SUBSKEYS>
AAADcfB7gAAAAAAAAAAAAAAAAAAAAWAAAAA8eIEAAAAAAFix9AAAHAAQAAAADAjBHgQ+wPPJkACgAzRnRACCgCAxAiAI2aA4ZJgIYOLA0dGUIAhgkADIyAcQgMAOgAAAAAQCAAAAAAAACAQAAAAAAAAAAA==

> <PUBCHEM_IUPAC_OPENEYE_NAME>
5-[4-[3-(1H-indol-3-yl)propyl]piperazin-1-yl]-1-methyl-3,4-dihydro-2H-quinoline

> <PUBCHEM_IUPAC_CAS_NAME>
5-[4-[3-(1H-indol-3-yl)propyl]-1-piperazinyl]-1-methyl-3,4-dihydro-2H-quinoline

> <PUBCHEM_IUPAC_NAME_MARKUP>
5-[4-[3-(1<I>H</I>-indol-3-yl)propyl]piperazin-1-yl]-1-methyl-3,4-dihydro-2<I>H</I>-quinoline

> <PUBCHEM_IUPAC_NAME>
5-[4-[3-(1H-indol-3-yl)propyl]piperazin-1-yl]-1-methyl-3,4-dihydro-2H-quinoline

> <PUBCHEM_IUPAC_SYSTEMATIC_NAME>
5-[4-[3-(1H-indol-3-yl)propyl]piperazin-1-yl]-1-methyl-3,4-dihydro-2H-quinoline

> <PUBCHEM_IUPAC_TRADITIONAL_NAME>
5-[4-[3-(1H-indol-3-yl)propyl]piperazino]-1-methyl-3,4-dihydro-2H-quinoline

> <PUBCHEM_IUPAC_INCHI>
InChI=1S/C25H32N4/c1-27-13-6-9-22-24(27)11-4-12-25(22)29-17-15-28(16-18-29)14-5-7-20-19-26-23-10-3-2-8-21(20)23/h2-4,8,10-12,19,26H,5-7,9,13-18H2,1H3

> <PUBCHEM_IUPAC_INCHIKEY>
MVCKFMYJPCUEDZ-UHFFFAOYSA-N

> <PUBCHEM_XLOGP3_AA>
4.8

> <PUBCHEM_EXACT_MASS>
388.26269704

> <PUBCHEM_MOLECULAR_FORMULA>
C25H32N4

> <PUBCHEM_MOLECULAR_WEIGHT>
388.5

> <PUBCHEM_OPENEYE_CAN_SMILES>
CN1CCCC2=C1C=CC=C2N3CCN(CC3)CCCC4=CNC5=CC=CC=C54

> <PUBCHEM_OPENEYE_ISO_SMILES>
CN1CCCC2=C1C=CC=C2N3CCN(CC3)CCCC4=CNC5=CC=CC=C54

> <PUBCHEM_CACTVS_TPSA>
25.5

> <PUBCHEM_MONOISOTOPIC_WEIGHT>
388.26269704

> <PUBCHEM_TOTAL_CHARGE>
0

> <PUBCHEM_HEAVY_ATOM_COUNT>
29

> <PUBCHEM_ATOM_DEF_STEREO_COUNT>
0

> <PUBCHEM_ATOM_UDEF_STEREO_COUNT>
0

> <PUBCHEM_BOND_DEF_STEREO_COUNT>
0

> <PUBCHEM_BOND_UDEF_STEREO_COUNT>
0

> <PUBCHEM_ISOTOPIC_ATOM_COUNT>
0

> <PUBCHEM_COMPONENT_COUNT>
1

> <PUBCHEM_CACTVS_TAUTO_COUNT>
-1

> <PUBCHEM_COORDINATE_TYPE>
1
5
255

> <PUBCHEM_BONDANNOTATIONS>
10  13  8
13  19  8
17  20  8
19  20  8
21  23  8
21  24  8
23  25  8
23  26  8
25  27  8
26  28  8
27  29  8
28  29  8
4  24  8
4  25  8
9  10  8
9  17  8

$$$$
