155568794
  -OEChem-09292322402D

 45 48  0     0  0  0  0  0  0999 V2000
   10.2509    1.1435    0.0000 O   0  0  0  0  0  0  0  0  0  0  0  0
    2.8660   -2.2326    0.0000 O   0  0  0  0  0  0  0  0  0  0  0  0
    6.4103   -4.0373    0.0000 N   0  0  0  0  0  0  0  0  0  0  0  0
    8.0102   -0.3206    0.0000 N   0  0  0  0  0  0  0  0  0  0  0  0
   12.0160    4.0373    0.0000 N   0  0  0  0  0  0  0  0  0  0  0  0
   12.6024    3.2273    0.0000 N   0  0  0  0  0  0  0  0  0  0  0  0
    6.4103   -2.4278    0.0000 C   0  0  0  0  0  0  0  0  0  0  0  0
    6.7210   -1.4773    0.0000 C   0  0  0  0  0  0  0  0  0  0  0  0
    5.4641   -2.7326    0.0000 C   0  0  0  0  0  0  0  0  0  0  0  0
    7.6995   -1.2711    0.0000 C   0  0  0  0  0  0  0  0  0  0  0  0
    5.4641   -3.7326    0.0000 C   0  0  0  0  0  0  0  0  0  0  0  0
    6.9939   -3.2326    0.0000 C   0  0  0  0  0  0  0  0  0  0  0  0
    4.5981   -2.2326    0.0000 C   0  0  0  0  0  0  0  0  0  0  0  0
    8.9887   -0.1144    0.0000 C   0  0  0  0  0  0  0  0  0  0  0  0
    4.5981   -4.2326    0.0000 C   0  0  0  0  0  0  0  0  0  0  0  0
    9.2993    0.8362    0.0000 C   0  0  0  0  0  0  0  0  0  0  0  0
    3.7320   -2.7326    0.0000 C   0  0  0  0  0  0  0  0  0  0  0  0
    3.7320   -3.7326    0.0000 C   0  0  0  0  0  0  0  0  0  0  0  0
    8.7129    1.6462    0.0000 C   0  0  0  0  0  0  0  0  0  0  0  0
   10.2526    2.1435    0.0000 C   0  0  0  0  0  0  0  0  0  0  0  0
    9.3021    2.4542    0.0000 C   0  0  0  0  0  0  0  0  0  0  0  0
   11.0627    2.7299    0.0000 C   0  0  0  0  0  0  0  0  0  0  0  0
   11.0644    3.7299    0.0000 C   0  0  0  0  0  0  0  0  0  0  0  0
   12.0132    2.4193    0.0000 C   0  0  0  0  0  0  0  0  0  0  0  0
    2.0000   -2.7326    0.0000 C   0  0  0  0  0  0  0  0  0  0  0  0
    6.7004   -0.8576    0.0000 H   0  0  0  0  0  0  0  0  0  0  0  0
    6.1072   -1.3900    0.0000 H   0  0  0  0  0  0  0  0  0  0  0  0
    7.7201   -1.8908    0.0000 H   0  0  0  0  0  0  0  0  0  0  0  0
    8.3133   -1.3584    0.0000 H   0  0  0  0  0  0  0  0  0  0  0  0
    7.6139   -3.2326    0.0000 H   0  0  0  0  0  0  0  0  0  0  0  0
    6.6029   -4.6266    0.0000 H   0  0  0  0  0  0  0  0  0  0  0  0
    7.5961    0.1409    0.0000 H   0  0  0  0  0  0  0  0  0  0  0  0
    9.0092   -0.7340    0.0000 H   0  0  0  0  0  0  0  0  0  0  0  0
    9.6025   -0.2017    0.0000 H   0  0  0  0  0  0  0  0  0  0  0  0
    4.5981   -1.6126    0.0000 H   0  0  0  0  0  0  0  0  0  0  0  0
    4.5981   -4.8526    0.0000 H   0  0  0  0  0  0  0  0  0  0  0  0
    3.1951   -4.0426    0.0000 H   0  0  0  0  0  0  0  0  0  0  0  0
    8.0929    1.6473    0.0000 H   0  0  0  0  0  0  0  0  0  0  0  0
    9.1116    3.0442    0.0000 H   0  0  0  0  0  0  0  0  0  0  0  0
   10.5634    4.0952    0.0000 H   0  0  0  0  0  0  0  0  0  0  0  0
   12.2038    1.8293    0.0000 H   0  0  0  0  0  0  0  0  0  0  0  0
    1.6900   -2.1956    0.0000 H   0  0  0  0  0  0  0  0  0  0  0  0
    1.4631   -3.0426    0.0000 H   0  0  0  0  0  0  0  0  0  0  0  0
    2.3100   -3.2695    0.0000 H   0  0  0  0  0  0  0  0  0  0  0  0
   12.2086    4.6266    0.0000 H   0  0  0  0  0  0  0  0  0  0  0  0
  1 16  1  0  0  0  0
  1 20  1  0  0  0  0
  2 17  1  0  0  0  0
  2 25  1  0  0  0  0
  3 11  1  0  0  0  0
  3 12  1  0  0  0  0
  3 31  1  0  0  0  0
  4 10  1  0  0  0  0
  4 14  1  0  0  0  0
  4 32  1  0  0  0  0
  5  6  1  0  0  0  0
  5 23  1  0  0  0  0
  5 45  1  0  0  0  0
  6 24  2  0  0  0  0
  7  8  1  0  0  0  0
  7  9  1  0  0  0  0
  7 12  2  0  0  0  0
  8 10  1  0  0  0  0
  8 26  1  0  0  0  0
  8 27  1  0  0  0  0
  9 11  2  0  0  0  0
  9 13  1  0  0  0  0
 10 28  1  0  0  0  0
 10 29  1  0  0  0  0
 11 15  1  0  0  0  0
 12 30  1  0  0  0  0
 13 17  2  0  0  0  0
 13 35  1  0  0  0  0
 14 16  1  0  0  0  0
 14 33  1  0  0  0  0
 14 34  1  0  0  0  0
 15 18  2  0  0  0  0
 15 36  1  0  0  0  0
 16 19  2  0  0  0  0
 17 18  1  0  0  0  0
 18 37  1  0  0  0  0
 19 21  1  0  0  0  0
 19 38  1  0  0  0  0
 20 21  2  0  0  0  0
 20 22  1  0  0  0  0
 21 39  1  0  0  0  0
 22 23  2  0  0  0  0
 22 24  1  0  0  0  0
 23 40  1  0  0  0  0
 24 41  1  0  0  0  0
 25 42  1  0  0  0  0
 25 43  1  0  0  0  0
 25 44  1  0  0  0  0
M  END
> <PUBCHEM_COMPOUND_CID>
155568794

> <PUBCHEM_COMPOUND_CANONICALIZED>
1

> <PUBCHEM_CACTVS_COMPLEXITY>
424

> <PUBCHEM_CACTVS_HBOND_ACCEPTOR>
4

> <PUBCHEM_CACTVS_HBOND_DONOR>
3

> <PUBCHEM_CACTVS_ROTATABLE_BOND>
7

> <PUBCHEM_CACTVS_SUBSKEYS>
AAADceB7sAAAAAAAAAAAAAAAAAAAAWLEgAAwAAAAAAAAAFgB/gAAHgAYAAAADAzBngY+xvLrlECqA7R3RACSjCA1oiAY+aG+bNgOJvrE9fuHvajm2BHY6ce42fIOgEABAAACAAAAgAIAAAQAAAAAAAAAAA==

> <PUBCHEM_IUPAC_OPENEYE_NAME>
2-(5-methoxy-1H-indol-3-yl)-N-[[5-(1H-pyrazol-4-yl)-2-furyl]methyl]ethanamine

> <PUBCHEM_IUPAC_CAS_NAME>
2-(5-methoxy-1H-indol-3-yl)-N-[[5-(1H-pyrazol-4-yl)-2-furanyl]methyl]ethanamine

> <PUBCHEM_IUPAC_NAME_MARKUP>
2-(5-methoxy-1<I>H</I>-indol-3-yl)-<I>N</I>-[[5-(1<I>H</I>-pyrazol-4-yl)furan-2-yl]methyl]ethanamine

> <PUBCHEM_IUPAC_NAME>
2-(5-methoxy-1H-indol-3-yl)-N-[[5-(1H-pyrazol-4-yl)furan-2-yl]methyl]ethanamine

> <PUBCHEM_IUPAC_SYSTEMATIC_NAME>
2-(5-methoxy-1H-indol-3-yl)-N-[[5-(1H-pyrazol-4-yl)furan-2-yl]methyl]ethanamine

> <PUBCHEM_IUPAC_TRADITIONAL_NAME>
2-(5-methoxy-1H-indol-3-yl)ethyl-[[5-(1H-pyrazol-4-yl)-2-furyl]methyl]amine

> <PUBCHEM_IUPAC_INCHI>
InChI=1S/C19H20N4O2/c1-24-15-2-4-18-17(8-15)13(9-21-18)6-7-20-12-16-3-5-19(25-16)14-10-22-23-11-14/h2-5,8-11,20-21H,6-7,12H2,1H3,(H,22,23)

> <PUBCHEM_IUPAC_INCHIKEY>
WZHSLWWHUWNSDV-UHFFFAOYSA-N

> <PUBCHEM_XLOGP3_AA>
2.4

> <PUBCHEM_EXACT_MASS>
336.15862589

> <PUBCHEM_MOLECULAR_FORMULA>
C19H20N4O2

> <PUBCHEM_MOLECULAR_WEIGHT>
336.4

> <PUBCHEM_OPENEYE_CAN_SMILES>
COC1=CC2=C(C=C1)NC=C2CCNCC3=CC=C(O3)C4=CNN=C4

> <PUBCHEM_OPENEYE_ISO_SMILES>
COC1=CC2=C(C=C1)NC=C2CCNCC3=CC=C(O3)C4=CNN=C4

> <PUBCHEM_CACTVS_TPSA>
78.9

> <PUBCHEM_MONOISOTOPIC_WEIGHT>
336.15862589

> <PUBCHEM_TOTAL_CHARGE>
0

> <PUBCHEM_HEAVY_ATOM_COUNT>
25

> <PUBCHEM_ATOM_DEF_STEREO_COUNT>
0

> <PUBCHEM_ATOM_UDEF_STEREO_COUNT>
0

> <PUBCHEM_BOND_DEF_STEREO_COUNT>
0

> <PUBCHEM_BOND_UDEF_STEREO_COUNT>
0

> <PUBCHEM_ISOTOPIC_ATOM_COUNT>
0

> <PUBCHEM_COMPONENT_COUNT>
1

> <PUBCHEM_CACTVS_TAUTO_COUNT>
-1

> <PUBCHEM_COORDINATE_TYPE>
1
5
255

> <PUBCHEM_BONDANNOTATIONS>
1  16  8
1  20  8
11  15  8
13  17  8
15  18  8
16  19  8
17  18  8
19  21  8
20  21  8
22  23  8
22  24  8
3  11  8
3  12  8
5  23  8
5  6  8
6  24  8
7  12  8
7  9  8
9  11  8
9  13  8

$$$$
