11439190
  -OEChem-09292322292D

 43 46  0     1  0  0  0  0  0999 V2000
    2.1374    2.1485    0.0000 Cl  0  0  0  0  0  0  0  0  0  0  0  0
    2.5932    0.1515    0.0000 O   0  0  0  0  0  0  0  0  0  0  0  0
    7.0983    2.2303    0.0000 N   0  0  3  0  0  0  0  0  0  0  0  0
    8.3211   -3.0121    0.0000 N   0  0  0  0  0  0  0  0  0  0  0  0
    6.8758    1.2554    0.0000 C   0  0  2  0  0  0  0  0  0  0  0  0
    5.9748    0.8215    0.0000 C   0  0  2  0  0  0  0  0  0  0  0  0
    7.7453    0.6819    0.0000 C   0  0  0  0  0  0  0  0  0  0  0  0
    5.8810   -0.2159    0.0000 C   0  0  0  0  0  0  0  0  0  0  0  0
    5.0738    1.2554    0.0000 C   0  0  0  0  0  0  0  0  0  0  0  0
    7.6755   -0.3574    0.0000 C   0  0  0  0  0  0  0  0  0  0  0  0
    6.7370   -0.8093    0.0000 C   0  0  0  0  0  0  0  0  0  0  0  0
    6.4748    3.0121    0.0000 C   0  0  0  0  0  0  0  0  0  0  0  0
    5.4748    3.0121    0.0000 C   0  0  0  0  0  0  0  0  0  0  0  0
    4.8513    2.2303    0.0000 C   0  0  0  0  0  0  0  0  0  0  0  0
    8.0732    2.4528    0.0000 C   0  0  0  0  0  0  0  0  0  0  0  0
    4.8928   -0.6639    0.0000 C   0  0  0  0  0  0  0  0  0  0  0  0
    4.3213    0.5352    0.0000 C   0  0  0  0  0  0  0  0  0  0  0  0
    6.6643   -1.8919    0.0000 C   0  0  0  0  0  0  0  0  0  0  0  0
    3.8608    2.5526    0.0000 C   0  0  0  0  0  0  0  0  0  0  0  0
    4.7950   -1.7445    0.0000 C   0  0  0  0  0  0  0  0  0  0  0  0
    3.3236    0.8345    0.0000 C   0  0  0  0  0  0  0  0  0  0  0  0
    5.6868   -2.3626    0.0000 C   0  0  0  0  0  0  0  0  0  0  0  0
    3.0918    1.8500    0.0000 C   0  0  0  0  0  0  0  0  0  0  0  0
    7.4927   -2.4520    0.0000 C   0  0  0  0  0  0  0  0  0  0  0  0
    7.6646    1.5720    0.0000 H   0  0  0  0  0  0  0  0  0  0  0  0
    5.2354    0.4022    0.0000 H   0  0  0  0  0  0  0  0  0  0  0  0
    8.3477    0.5351    0.0000 H   0  0  0  0  0  0  0  0  0  0  0  0
    7.9931    1.2503    0.0000 H   0  0  0  0  0  0  0  0  0  0  0  0
    7.8450   -0.9538    0.0000 H   0  0  0  0  0  0  0  0  0  0  0  0
    8.2921   -0.2925    0.0000 H   0  0  0  0  0  0  0  0  0  0  0  0
    7.0334    3.2811    0.0000 H   0  0  0  0  0  0  0  0  0  0  0  0
    6.3368    3.6166    0.0000 H   0  0  0  0  0  0  0  0  0  0  0  0
    5.6128    3.6166    0.0000 H   0  0  0  0  0  0  0  0  0  0  0  0
    4.9162    3.2811    0.0000 H   0  0  0  0  0  0  0  0  0  0  0  0
    8.2112    1.8484    0.0000 H   0  0  0  0  0  0  0  0  0  0  0  0
    8.6777    2.5908    0.0000 H   0  0  0  0  0  0  0  0  0  0  0  0
    7.9352    3.0573    0.0000 H   0  0  0  0  0  0  0  0  0  0  0  0
    4.3873   -0.3049    0.0000 H   0  0  0  0  0  0  0  0  0  0  0  0
    4.4662   -0.0676    0.0000 H   0  0  0  0  0  0  0  0  0  0  0  0
    3.7298    3.1586    0.0000 H   0  0  0  0  0  0  0  0  0  0  0  0
    4.2334   -2.0071    0.0000 H   0  0  0  0  0  0  0  0  0  0  0  0
    5.6380   -2.9807    0.0000 H   0  0  0  0  0  0  0  0  0  0  0  0
    2.0000    0.3320    0.0000 H   0  0  0  0  0  0  0  0  0  0  0  0
  1 23  1  0  0  0  0
  2 21  1  0  0  0  0
  2 43  1  0  0  0  0
  3  5  1  0  0  0  0
  3 12  1  0  0  0  0
  3 15  1  0  0  0  0
  4 24  3  0  0  0  0
  5  6  1  0  0  0  0
  5  7  1  0  0  0  0
  5 25  1  6  0  0  0
  6  8  1  0  0  0  0
  6  9  1  0  0  0  0
  6 26  1  1  0  0  0
  7 10  1  0  0  0  0
  7 27  1  0  0  0  0
  7 28  1  0  0  0  0
  8 11  1  0  0  0  0
  8 16  2  0  0  0  0
  9 14  1  0  0  0  0
  9 17  2  0  0  0  0
 10 11  1  0  0  0  0
 10 29  1  0  0  0  0
 10 30  1  0  0  0  0
 11 18  2  0  0  0  0
 12 13  1  0  0  0  0
 12 31  1  0  0  0  0
 12 32  1  0  0  0  0
 13 14  1  0  0  0  0
 13 33  1  0  0  0  0
 13 34  1  0  0  0  0
 14 19  2  0  0  0  0
 15 35  1  0  0  0  0
 15 36  1  0  0  0  0
 15 37  1  0  0  0  0
 16 20  1  0  0  0  0
 16 38  1  0  0  0  0
 17 21  1  0  0  0  0
 17 39  1  0  0  0  0
 18 22  1  0  0  0  0
 18 24  1  0  0  0  0
 19 23  1  0  0  0  0
 19 40  1  0  0  0  0
 20 22  2  0  0  0  0
 20 41  1  0  0  0  0
 21 23  2  0  0  0  0
 22 42  1  0  0  0  0
M  END
> <PUBCHEM_COMPOUND_CID>
11439190

> <PUBCHEM_COMPOUND_CANONICALIZED>
1

> <PUBCHEM_CACTVS_COMPLEXITY>
517

> <PUBCHEM_CACTVS_HBOND_ACCEPTOR>
3

> <PUBCHEM_CACTVS_HBOND_DONOR>
1

> <PUBCHEM_CACTVS_ROTATABLE_BOND>
0

> <PUBCHEM_CACTVS_SUBSKEYS>
AAADceB7IAAEAAAAAAAAAAAAAAAAAAAAAAAwYMAABYAAAADBQAAAHgIACAAADS7BmCQyBoMAAgCQBiBCAAAiAAAgJUAIiAAOC4gIpiKDkxOEcAAkwBGImA+Q0PMOpAADIAAQCABYAAbAACQQAAAAAAAAAA==

> <PUBCHEM_IUPAC_OPENEYE_NAME>
(6aS,13bS)-11-chloro-12-hydroxy-7-methyl-5,6,6a,8,9,13b-hexahydronaphtho[1,2-a][3]benzazepine-4-carbonitrile

> <PUBCHEM_IUPAC_CAS_NAME>
(6aS,13bS)-11-chloro-12-hydroxy-7-methyl-5,6,6a,8,9,13b-hexahydronaphtho[1,2-a][3]benzazepine-4-carbonitrile

> <PUBCHEM_IUPAC_NAME_MARKUP>
(6<I>a</I><I>S</I>,13<I>b</I><I>S</I>)-11-chloro-12-hydroxy-7-methyl-5,6,6<I>a</I>,8,9,13<I>b</I>-hexahydronaphtho[1,2-a][3]benzazepine-4-carbonitrile

> <PUBCHEM_IUPAC_NAME>
(6aS,13bS)-11-chloro-12-hydroxy-7-methyl-5,6,6a,8,9,13b-hexahydronaphtho[1,2-a][3]benzazepine-4-carbonitrile

> <PUBCHEM_IUPAC_SYSTEMATIC_NAME>
(6aS,13bS)-11-chloranyl-7-methyl-12-oxidanyl-5,6,6a,8,9,13b-hexahydronaphtho[1,2-a][3]benzazepine-4-carbonitrile

> <PUBCHEM_IUPAC_TRADITIONAL_NAME>
(6aS,13bS)-11-chloro-12-hydroxy-7-methyl-5,6,6a,8,9,13b-hexahydronaphtho[1,2-a][3]benzazepine-4-carbonitrile

> <PUBCHEM_IUPAC_INCHI>
InChI=1S/C20H19ClN2O/c1-23-8-7-12-9-17(21)19(24)10-16(12)20-15-4-2-3-13(11-22)14(15)5-6-18(20)23/h2-4,9-10,18,20,24H,5-8H2,1H3/t18-,20+/m0/s1

> <PUBCHEM_IUPAC_INCHIKEY>
CXUYOOFBSRHYSG-AZUAARDMSA-N

> <PUBCHEM_XLOGP3_AA>
4.2

> <PUBCHEM_EXACT_MASS>
338.1185909

> <PUBCHEM_MOLECULAR_FORMULA>
C20H19ClN2O

> <PUBCHEM_MOLECULAR_WEIGHT>
338.8

> <PUBCHEM_OPENEYE_CAN_SMILES>
CN1CCC2=CC(=C(C=C2C3C1CCC4=C(C=CC=C34)C#N)O)Cl

> <PUBCHEM_OPENEYE_ISO_SMILES>
CN1CCC2=CC(=C(C=C2[C@@H]3[C@@H]1CCC4=C(C=CC=C34)C#N)O)Cl

> <PUBCHEM_CACTVS_TPSA>
47.3

> <PUBCHEM_MONOISOTOPIC_WEIGHT>
338.1185909

> <PUBCHEM_TOTAL_CHARGE>
0

> <PUBCHEM_HEAVY_ATOM_COUNT>
24

> <PUBCHEM_ATOM_DEF_STEREO_COUNT>
2

> <PUBCHEM_ATOM_UDEF_STEREO_COUNT>
0

> <PUBCHEM_BOND_DEF_STEREO_COUNT>
0

> <PUBCHEM_BOND_UDEF_STEREO_COUNT>
0

> <PUBCHEM_ISOTOPIC_ATOM_COUNT>
0

> <PUBCHEM_COMPONENT_COUNT>
1

> <PUBCHEM_CACTVS_TAUTO_COUNT>
-1

> <PUBCHEM_COORDINATE_TYPE>
1
5
255

> <PUBCHEM_BONDANNOTATIONS>
11  18  8
14  19  8
16  20  8
17  21  8
18  22  8
19  23  8
20  22  8
21  23  8
5  25  6
6  26  5
8  11  8
8  16  8
9  14  8
9  17  8

$$$$
