71724991
  -OEChem-09292322012D

 51 54  0     0  0  0  0  0  0999 V2000
   10.1921    1.3203    0.0000 O   0  0  0  0  0  0  0  0  0  0  0  0
    4.3211    0.0830    0.0000 O   0  0  0  0  0  0  0  0  0  0  0  0
    7.9244   -0.0427    0.0000 N   0  0  0  0  0  0  0  0  0  0  0  0
    5.9674   -0.4551    0.0000 N   0  0  0  0  0  0  0  0  0  0  0  0
    4.6783   -3.2213    0.0000 N   0  0  0  0  0  0  0  0  0  0  0  0
   10.1456    3.9656    0.0000 N   0  0  0  0  0  0  0  0  0  0  0  0
    7.2566    0.7016    0.0000 C   0  0  0  0  0  0  0  0  0  0  0  0
    7.6138   -0.9932    0.0000 C   0  0  0  0  0  0  0  0  0  0  0  0
    6.2781    0.4954    0.0000 C   0  0  0  0  0  0  0  0  0  0  0  0
    6.6353   -1.1994    0.0000 C   0  0  0  0  0  0  0  0  0  0  0  0
    8.9030    0.1635    0.0000 C   0  0  0  0  0  0  0  0  0  0  0  0
    4.9889   -0.6613    0.0000 C   0  0  0  0  0  0  0  0  0  0  0  0
    4.6783   -1.6119    0.0000 C   0  0  0  0  0  0  0  0  0  0  0  0
    9.2136    1.1141    0.0000 C   0  0  0  0  0  0  0  0  0  0  0  0
    3.7320   -1.9166    0.0000 C   0  0  0  0  0  0  0  0  0  0  0  0
    3.7320   -2.9166    0.0000 C   0  0  0  0  0  0  0  0  0  0  0  0
    5.2619   -2.4166    0.0000 C   0  0  0  0  0  0  0  0  0  0  0  0
    2.8660   -1.4166    0.0000 C   0  0  0  0  0  0  0  0  0  0  0  0
    2.8660   -3.4166    0.0000 C   0  0  0  0  0  0  0  0  0  0  0  0
    4.9889   -4.1718    0.0000 C   0  0  0  0  0  0  0  0  0  0  0  0
    2.0000   -1.9166    0.0000 C   0  0  0  0  0  0  0  0  0  0  0  0
    2.0000   -2.9166    0.0000 C   0  0  0  0  0  0  0  0  0  0  0  0
   10.5028    2.2708    0.0000 C   0  0  0  0  0  0  0  0  0  0  0  0
   11.4813    2.4770    0.0000 C   0  0  0  0  0  0  0  0  0  0  0  0
    9.8349    3.0151    0.0000 C   0  0  0  0  0  0  0  0  0  0  0  0
   11.7920    3.4275    0.0000 C   0  0  0  0  0  0  0  0  0  0  0  0
   11.1241    4.1718    0.0000 C   0  0  0  0  0  0  0  0  0  0  0  0
    7.7830    1.0293    0.0000 H   0  0  0  0  0  0  0  0  0  0  0  0
    7.0254    1.2769    0.0000 H   0  0  0  0  0  0  0  0  0  0  0  0
    7.6344   -1.6129    0.0000 H   0  0  0  0  0  0  0  0  0  0  0  0
    8.2276   -1.0805    0.0000 H   0  0  0  0  0  0  0  0  0  0  0  0
    6.2575    1.1151    0.0000 H   0  0  0  0  0  0  0  0  0  0  0  0
    5.6643    0.5828    0.0000 H   0  0  0  0  0  0  0  0  0  0  0  0
    6.1089   -1.5271    0.0000 H   0  0  0  0  0  0  0  0  0  0  0  0
    6.8665   -1.7747    0.0000 H   0  0  0  0  0  0  0  0  0  0  0  0
    8.9235   -0.4561    0.0000 H   0  0  0  0  0  0  0  0  0  0  0  0
    9.5168    0.0762    0.0000 H   0  0  0  0  0  0  0  0  0  0  0  0
    9.1930    1.7337    0.0000 H   0  0  0  0  0  0  0  0  0  0  0  0
    8.5998    1.2014    0.0000 H   0  0  0  0  0  0  0  0  0  0  0  0
    5.8819   -2.4166    0.0000 H   0  0  0  0  0  0  0  0  0  0  0  0
    2.8660   -0.7966    0.0000 H   0  0  0  0  0  0  0  0  0  0  0  0
    2.8660   -4.0366    0.0000 H   0  0  0  0  0  0  0  0  0  0  0  0
    4.3996   -4.3644    0.0000 H   0  0  0  0  0  0  0  0  0  0  0  0
    5.1815   -4.7612    0.0000 H   0  0  0  0  0  0  0  0  0  0  0  0
    5.5783   -3.9792    0.0000 H   0  0  0  0  0  0  0  0  0  0  0  0
    1.4631   -1.6066    0.0000 H   0  0  0  0  0  0  0  0  0  0  0  0
    1.4631   -3.2266    0.0000 H   0  0  0  0  0  0  0  0  0  0  0  0
   11.8954    2.0156    0.0000 H   0  0  0  0  0  0  0  0  0  0  0  0
    9.2283    2.8872    0.0000 H   0  0  0  0  0  0  0  0  0  0  0  0
   12.3986    3.5554    0.0000 H   0  0  0  0  0  0  0  0  0  0  0  0
   11.3167    4.7612    0.0000 H   0  0  0  0  0  0  0  0  0  0  0  0
  1 14  1  0  0  0  0
  1 23  1  0  0  0  0
  2 12  2  0  0  0  0
  3  7  1  0  0  0  0
  3  8  1  0  0  0  0
  3 11  1  0  0  0  0
  4  9  1  0  0  0  0
  4 10  1  0  0  0  0
  4 12  1  0  0  0  0
  5 16  1  0  0  0  0
  5 17  1  0  0  0  0
  5 20  1  0  0  0  0
  6 25  1  0  0  0  0
  6 27  2  0  0  0  0
  7  9  1  0  0  0  0
  7 28  1  0  0  0  0
  7 29  1  0  0  0  0
  8 10  1  0  0  0  0
  8 30  1  0  0  0  0
  8 31  1  0  0  0  0
  9 32  1  0  0  0  0
  9 33  1  0  0  0  0
 10 34  1  0  0  0  0
 10 35  1  0  0  0  0
 11 14  1  0  0  0  0
 11 36  1  0  0  0  0
 11 37  1  0  0  0  0
 12 13  1  0  0  0  0
 13 15  1  0  0  0  0
 13 17  2  0  0  0  0
 14 38  1  0  0  0  0
 14 39  1  0  0  0  0
 15 16  1  0  0  0  0
 15 18  2  0  0  0  0
 16 19  2  0  0  0  0
 17 40  1  0  0  0  0
 18 21  1  0  0  0  0
 18 41  1  0  0  0  0
 19 22  1  0  0  0  0
 19 42  1  0  0  0  0
 20 43  1  0  0  0  0
 20 44  1  0  0  0  0
 20 45  1  0  0  0  0
 21 22  2  0  0  0  0
 21 46  1  0  0  0  0
 22 47  1  0  0  0  0
 23 24  1  0  0  0  0
 23 25  2  0  0  0  0
 24 26  2  0  0  0  0
 24 48  1  0  0  0  0
 25 49  1  0  0  0  0
 26 27  1  0  0  0  0
 26 50  1  0  0  0  0
 27 51  1  0  0  0  0
M  END
> <PUBCHEM_COMPOUND_CID>
71724991

> <PUBCHEM_COMPOUND_CANONICALIZED>
1

> <PUBCHEM_CACTVS_COMPLEXITY>
495

> <PUBCHEM_CACTVS_HBOND_ACCEPTOR>
4

> <PUBCHEM_CACTVS_HBOND_DONOR>
0

> <PUBCHEM_CACTVS_ROTATABLE_BOND>
5

> <PUBCHEM_CACTVS_SUBSKEYS>
AAADceB7sAAAAAAAAAAAAAAAAAAAAWAAAAA8WIAAAAAAAFgB/AAAHgAAAAAADAzhngY+xvMMFACoAzV3VASCiCA1YiAI2CE/bNgOZvrE9ZuXOajkxhHY6cc8iMCOgAAAAAACAAAAAAAAAAQAAAAAAAAAAA==

> <PUBCHEM_IUPAC_OPENEYE_NAME>
(1-methylindol-3-yl)-[4-[2-(3-pyridyloxy)ethyl]piperazin-1-yl]methanone

> <PUBCHEM_IUPAC_CAS_NAME>
(1-methyl-3-indolyl)-[4-[2-(3-pyridinyloxy)ethyl]-1-piperazinyl]methanone

> <PUBCHEM_IUPAC_NAME_MARKUP>
(1-methylindol-3-yl)-[4-(2-pyridin-3-yloxyethyl)piperazin-1-yl]methanone

> <PUBCHEM_IUPAC_NAME>
(1-methylindol-3-yl)-[4-(2-pyridin-3-yloxyethyl)piperazin-1-yl]methanone

> <PUBCHEM_IUPAC_SYSTEMATIC_NAME>
(1-methylindol-3-yl)-[4-(2-pyridin-3-yloxyethyl)piperazin-1-yl]methanone

> <PUBCHEM_IUPAC_TRADITIONAL_NAME>
(1-methylindol-3-yl)-[4-[2-(3-pyridyloxy)ethyl]piperazino]methanone

> <PUBCHEM_IUPAC_INCHI>
InChI=1S/C21H24N4O2/c1-23-16-19(18-6-2-3-7-20(18)23)21(26)25-11-9-24(10-12-25)13-14-27-17-5-4-8-22-15-17/h2-8,15-16H,9-14H2,1H3

> <PUBCHEM_IUPAC_INCHIKEY>
PVFMPPYWTMNZHL-UHFFFAOYSA-N

> <PUBCHEM_XLOGP3_AA>
1.9

> <PUBCHEM_EXACT_MASS>
364.18992602

> <PUBCHEM_MOLECULAR_FORMULA>
C21H24N4O2

> <PUBCHEM_MOLECULAR_WEIGHT>
364.4

> <PUBCHEM_OPENEYE_CAN_SMILES>
CN1C=C(C2=CC=CC=C21)C(=O)N3CCN(CC3)CCOC4=CN=CC=C4

> <PUBCHEM_OPENEYE_ISO_SMILES>
CN1C=C(C2=CC=CC=C21)C(=O)N3CCN(CC3)CCOC4=CN=CC=C4

> <PUBCHEM_CACTVS_TPSA>
50.6

> <PUBCHEM_MONOISOTOPIC_WEIGHT>
364.18992602

> <PUBCHEM_TOTAL_CHARGE>
0

> <PUBCHEM_HEAVY_ATOM_COUNT>
27

> <PUBCHEM_ATOM_DEF_STEREO_COUNT>
0

> <PUBCHEM_ATOM_UDEF_STEREO_COUNT>
0

> <PUBCHEM_BOND_DEF_STEREO_COUNT>
0

> <PUBCHEM_BOND_UDEF_STEREO_COUNT>
0

> <PUBCHEM_ISOTOPIC_ATOM_COUNT>
0

> <PUBCHEM_COMPONENT_COUNT>
1

> <PUBCHEM_CACTVS_TAUTO_COUNT>
-1

> <PUBCHEM_COORDINATE_TYPE>
1
5
255

> <PUBCHEM_BONDANNOTATIONS>
13  15  8
13  17  8
15  16  8
15  18  8
16  19  8
18  21  8
19  22  8
21  22  8
23  24  8
23  25  8
24  26  8
26  27  8
5  16  8
5  17  8
6  25  8
6  27  8

$$$$
