9929629
  -OEChem-09292322512D

 59 62  0     1  0  0  0  0  0999 V2000
    7.8104   -2.2183    0.0000 O   0  0  0  0  0  0  0  0  0  0  0  0
    7.0000   -0.5355    0.0000 N   0  0  0  0  0  0  0  0  0  0  0  0
    5.0000   -0.5355    0.0000 N   0  0  0  0  0  0  0  0  0  0  0  0
    9.4088   -1.6590    0.0000 N   0  0  0  0  0  0  0  0  0  0  0  0
    8.0000   -0.5355    0.0000 C   0  0  3  0  0  0  0  0  0  0  0  0
    6.5000   -1.4015    0.0000 C   0  0  0  0  0  0  0  0  0  0  0  0
    6.5000    0.3306    0.0000 C   0  0  0  0  0  0  0  0  0  0  0  0
    8.4339    0.3655    0.0000 C   0  0  0  0  0  0  0  0  0  0  0  0
    5.5000   -1.4015    0.0000 C   0  0  0  0  0  0  0  0  0  0  0  0
    5.5000    0.3306    0.0000 C   0  0  0  0  0  0  0  0  0  0  0  0
    9.4088    0.5880    0.0000 C   0  0  0  0  0  0  0  0  0  0  0  0
    8.4339   -1.4364    0.0000 C   0  0  0  0  0  0  0  0  0  0  0  0
    4.0000   -0.5355    0.0000 C   0  0  0  0  0  0  0  0  0  0  0  0
   10.1906   -0.0355    0.0000 C   0  0  0  0  0  0  0  0  0  0  0  0
   10.1906   -1.0355    0.0000 C   0  0  0  0  0  0  0  0  0  0  0  0
    9.6313   -2.6339    0.0000 C   0  0  0  0  0  0  0  0  0  0  0  0
    3.5000    0.3306    0.0000 C   0  0  0  0  0  0  0  0  0  0  0  0
   11.0846    0.4992    0.0000 C   0  0  0  0  0  0  0  0  0  0  0  0
   11.0846   -1.5701    0.0000 C   0  0  0  0  0  0  0  0  0  0  0  0
   10.5869   -2.9286    0.0000 C   0  0  0  0  0  0  0  0  0  0  0  0
   11.9907   -0.0146    0.0000 C   0  0  0  0  0  0  0  0  0  0  0  0
   11.9907   -1.0563    0.0000 C   0  0  0  0  0  0  0  0  0  0  0  0
    4.0000    1.1966    0.0000 C   0  0  0  0  0  0  0  0  0  0  0  0
    2.5000    0.3306    0.0000 C   0  0  0  0  0  0  0  0  0  0  0  0
    3.5000    2.0626    0.0000 C   0  0  0  0  0  0  0  0  0  0  0  0
    2.0000    1.1966    0.0000 C   0  0  0  0  0  0  0  0  0  0  0  0
    2.5000    2.0626    0.0000 C   0  0  0  0  0  0  0  0  0  0  0  0
    2.0000    2.9286    0.0000 C   0  0  0  0  0  0  0  0  0  0  0  0
    7.6701   -0.0105    0.0000 H   0  0  0  0  0  0  0  0  0  0  0  0
    6.3923   -2.0121    0.0000 H   0  0  0  0  0  0  0  0  0  0  0  0
    7.0826   -1.6135    0.0000 H   0  0  0  0  0  0  0  0  0  0  0  0
    7.0826    0.5426    0.0000 H   0  0  0  0  0  0  0  0  0  0  0  0
    6.3923    0.9411    0.0000 H   0  0  0  0  0  0  0  0  0  0  0  0
    8.4339    0.9855    0.0000 H   0  0  0  0  0  0  0  0  0  0  0  0
    7.8294    0.5035    0.0000 H   0  0  0  0  0  0  0  0  0  0  0  0
    4.9174   -1.6135    0.0000 H   0  0  0  0  0  0  0  0  0  0  0  0
    5.6077   -2.0121    0.0000 H   0  0  0  0  0  0  0  0  0  0  0  0
    5.6077    0.9411    0.0000 H   0  0  0  0  0  0  0  0  0  0  0  0
    4.9174    0.5426    0.0000 H   0  0  0  0  0  0  0  0  0  0  0  0
    9.8936    0.9746    0.0000 H   0  0  0  0  0  0  0  0  0  0  0  0
    9.1398    1.1466    0.0000 H   0  0  0  0  0  0  0  0  0  0  0  0
    3.4174   -0.7475    0.0000 H   0  0  0  0  0  0  0  0  0  0  0  0
    4.1077   -1.1460    0.0000 H   0  0  0  0  0  0  0  0  0  0  0  0
    9.0121   -2.6648    0.0000 H   0  0  0  0  0  0  0  0  0  0  0  0
    9.5542   -3.2491    0.0000 H   0  0  0  0  0  0  0  0  0  0  0  0
   11.0774    1.1192    0.0000 H   0  0  0  0  0  0  0  0  0  0  0  0
   11.0774   -2.1901    0.0000 H   0  0  0  0  0  0  0  0  0  0  0  0
   10.4042   -3.5211    0.0000 H   0  0  0  0  0  0  0  0  0  0  0  0
   11.1794   -3.1114    0.0000 H   0  0  0  0  0  0  0  0  0  0  0  0
   10.7697   -2.3362    0.0000 H   0  0  0  0  0  0  0  0  0  0  0  0
   12.5264    0.2974    0.0000 H   0  0  0  0  0  0  0  0  0  0  0  0
   12.5264   -1.3684    0.0000 H   0  0  0  0  0  0  0  0  0  0  0  0
    4.6200    1.1966    0.0000 H   0  0  0  0  0  0  0  0  0  0  0  0
    2.1900   -0.2064    0.0000 H   0  0  0  0  0  0  0  0  0  0  0  0
    3.8100    2.5995    0.0000 H   0  0  0  0  0  0  0  0  0  0  0  0
    1.3800    1.1966    0.0000 H   0  0  0  0  0  0  0  0  0  0  0  0
    2.5369    3.2386    0.0000 H   0  0  0  0  0  0  0  0  0  0  0  0
    1.6900    3.4656    0.0000 H   0  0  0  0  0  0  0  0  0  0  0  0
    1.4631    2.6186    0.0000 H   0  0  0  0  0  0  0  0  0  0  0  0
  1 12  2  0  0  0  0
  2  5  1  0  0  0  0
  2  6  1  0  0  0  0
  2  7  1  0  0  0  0
  3  9  1  0  0  0  0
  3 10  1  0  0  0  0
  3 13  1  0  0  0  0
  4 12  1  0  0  0  0
  4 15  1  0  0  0  0
  4 16  1  0  0  0  0
  5  8  1  0  0  0  0
  5 12  1  0  0  0  0
  5 29  1  0  0  0  0
  6  9  1  0  0  0  0
  6 30  1  0  0  0  0
  6 31  1  0  0  0  0
  7 10  1  0  0  0  0
  7 32  1  0  0  0  0
  7 33  1  0  0  0  0
  8 11  1  0  0  0  0
  8 34  1  0  0  0  0
  8 35  1  0  0  0  0
  9 36  1  0  0  0  0
  9 37  1  0  0  0  0
 10 38  1  0  0  0  0
 10 39  1  0  0  0  0
 11 14  1  0  0  0  0
 11 40  1  0  0  0  0
 11 41  1  0  0  0  0
 13 17  1  0  0  0  0
 13 42  1  0  0  0  0
 13 43  1  0  0  0  0
 14 15  1  0  0  0  0
 14 18  2  0  0  0  0
 15 19  2  0  0  0  0
 16 20  1  0  0  0  0
 16 44  1  0  0  0  0
 16 45  1  0  0  0  0
 17 23  2  0  0  0  0
 17 24  1  0  0  0  0
 18 21  1  0  0  0  0
 18 46  1  0  0  0  0
 19 22  1  0  0  0  0
 19 47  1  0  0  0  0
 20 48  1  0  0  0  0
 20 49  1  0  0  0  0
 20 50  1  0  0  0  0
 21 22  2  0  0  0  0
 21 51  1  0  0  0  0
 22 52  1  0  0  0  0
 23 25  1  0  0  0  0
 23 53  1  0  0  0  0
 24 26  2  0  0  0  0
 24 54  1  0  0  0  0
 25 27  2  0  0  0  0
 25 55  1  0  0  0  0
 26 27  1  0  0  0  0
 26 56  1  0  0  0  0
 27 28  1  0  0  0  0
 28 57  1  0  0  0  0
 28 58  1  0  0  0  0
 28 59  1  0  0  0  0
M  END
> <PUBCHEM_COMPOUND_CID>
9929629

> <PUBCHEM_COMPOUND_CANONICALIZED>
1

> <PUBCHEM_CACTVS_COMPLEXITY>
508

> <PUBCHEM_CACTVS_HBOND_ACCEPTOR>
3

> <PUBCHEM_CACTVS_HBOND_DONOR>
0

> <PUBCHEM_CACTVS_ROTATABLE_BOND>
4

> <PUBCHEM_CACTVS_SUBSKEYS>
AAADceB7IAAAAAAAAAAAAAAAAAAAAAAAAAA8YIAABYAAAAABQAAAHgAAAAAADCjBmAQywIMAAACIAiVSUACCAAAhAgAIiAGIZIgIYDLAkbGUIAhghgDIyAcYiICOQAAAAAACAACAAAAAAAQAAAAAAAAAAA==

> <PUBCHEM_IUPAC_OPENEYE_NAME>
1-ethyl-3-[4-(p-tolylmethyl)piperazin-1-yl]-4,5-dihydro-3H-1-benzazepin-2-one

> <PUBCHEM_IUPAC_CAS_NAME>
1-ethyl-3-[4-[(4-methylphenyl)methyl]-1-piperazinyl]-4,5-dihydro-3H-1-benzazepin-2-one

> <PUBCHEM_IUPAC_NAME_MARKUP>
1-ethyl-3-[4-[(4-methylphenyl)methyl]piperazin-1-yl]-4,5-dihydro-3<I>H</I>-1-benzazepin-2-one

> <PUBCHEM_IUPAC_NAME>
1-ethyl-3-[4-[(4-methylphenyl)methyl]piperazin-1-yl]-4,5-dihydro-3H-1-benzazepin-2-one

> <PUBCHEM_IUPAC_SYSTEMATIC_NAME>
1-ethyl-3-[4-[(4-methylphenyl)methyl]piperazin-1-yl]-4,5-dihydro-3H-1-benzazepin-2-one

> <PUBCHEM_IUPAC_TRADITIONAL_NAME>
1-ethyl-3-[4-(4-methylbenzyl)piperazino]-4,5-dihydro-3H-1-benzazepin-2-one

> <PUBCHEM_IUPAC_INCHI>
InChI=1S/C24H31N3O/c1-3-27-22-7-5-4-6-21(22)12-13-23(24(27)28)26-16-14-25(15-17-26)18-20-10-8-19(2)9-11-20/h4-11,23H,3,12-18H2,1-2H3

> <PUBCHEM_IUPAC_INCHIKEY>
IFFCYSLODLRHJM-UHFFFAOYSA-N

> <PUBCHEM_XLOGP3_AA>
3.8

> <PUBCHEM_EXACT_MASS>
377.246712621

> <PUBCHEM_MOLECULAR_FORMULA>
C24H31N3O

> <PUBCHEM_MOLECULAR_WEIGHT>
377.5

> <PUBCHEM_OPENEYE_CAN_SMILES>
CCN1C2=CC=CC=C2CCC(C1=O)N3CCN(CC3)CC4=CC=C(C=C4)C

> <PUBCHEM_OPENEYE_ISO_SMILES>
CCN1C2=CC=CC=C2CCC(C1=O)N3CCN(CC3)CC4=CC=C(C=C4)C

> <PUBCHEM_CACTVS_TPSA>
26.8

> <PUBCHEM_MONOISOTOPIC_WEIGHT>
377.246712621

> <PUBCHEM_TOTAL_CHARGE>
0

> <PUBCHEM_HEAVY_ATOM_COUNT>
28

> <PUBCHEM_ATOM_DEF_STEREO_COUNT>
0

> <PUBCHEM_ATOM_UDEF_STEREO_COUNT>
1

> <PUBCHEM_BOND_DEF_STEREO_COUNT>
0

> <PUBCHEM_BOND_UDEF_STEREO_COUNT>
0

> <PUBCHEM_ISOTOPIC_ATOM_COUNT>
0

> <PUBCHEM_COMPONENT_COUNT>
1

> <PUBCHEM_CACTVS_TAUTO_COUNT>
-1

> <PUBCHEM_COORDINATE_TYPE>
1
5
255

> <PUBCHEM_BONDANNOTATIONS>
14  15  8
14  18  8
15  19  8
17  23  8
17  24  8
18  21  8
19  22  8
5  2  3
21  22  8
23  25  8
24  26  8
25  27  8
26  27  8

$$$$
