11533448
  -OEChem-09292322232D

 60 64  0     1  0  0  0  0  0999 V2000
    7.0704    1.4344    0.0000 S   0  0  0  0  0  0  0  0  0  0  0  0
   15.2850   -4.1045    0.0000 F   0  0  0  0  0  0  0  0  0  0  0  0
   15.6510   -2.7385    0.0000 F   0  0  0  0  0  0  0  0  0  0  0  0
   13.9189   -3.7385    0.0000 F   0  0  0  0  0  0  0  0  0  0  0  0
   14.6901   -1.4647    0.0000 O   0  0  0  0  0  0  0  0  0  0  0  0
   10.0704   -0.2976    0.0000 N   0  0  3  0  0  0  0  0  0  0  0  0
   13.2962   -2.2694    0.0000 N   0  0  0  0  0  0  0  0  0  0  0  0
    5.4826    2.2435    0.0000 N   0  0  0  0  0  0  0  0  0  0  0  0
    5.4826    0.6254    0.0000 N   0  0  0  0  0  0  0  0  0  0  0  0
    4.5316    0.9344    0.0000 N   0  0  0  0  0  0  0  0  0  0  0  0
    3.0181    4.1045    0.0000 N   0  0  0  0  0  0  0  0  0  0  0  0
   10.4948   -1.1818    0.0000 C   0  0  0  0  0  0  0  0  0  0  0  0
   10.4948    0.5866    0.0000 C   0  0  0  0  0  0  0  0  0  0  0  0
   11.4501   -1.4040    0.0000 C   0  0  0  0  0  0  0  0  0  0  0  0
   11.4501    0.8087    0.0000 C   0  0  0  0  0  0  0  0  0  0  0  0
   12.2210   -0.7976    0.0000 C   0  0  0  0  0  0  0  0  0  0  0  0
   12.2210    0.2024    0.0000 C   0  0  0  0  0  0  0  0  0  0  0  0
    9.0704   -0.2976    0.0000 C   0  0  0  0  0  0  0  0  0  0  0  0
   13.0870   -1.2976    0.0000 C   0  0  0  0  0  0  0  0  0  0  0  0
    8.5704    0.5684    0.0000 C   0  0  0  0  0  0  0  0  0  0  0  0
   13.0870    0.7024    0.0000 C   0  0  0  0  0  0  0  0  0  0  0  0
   13.9531   -0.7976    0.0000 C   0  0  0  0  0  0  0  0  0  0  0  0
   13.9531    0.2024    0.0000 C   0  0  0  0  0  0  0  0  0  0  0  0
    7.5704    0.5684    0.0000 C   0  0  0  0  0  0  0  0  0  0  0  0
   14.2850   -2.3725    0.0000 C   0  0  0  0  0  0  0  0  0  0  0  0
   14.7850   -3.2385    0.0000 C   0  0  0  0  0  0  0  0  0  0  0  0
    6.0704    1.4344    0.0000 C   0  0  0  0  0  0  0  0  0  0  0  0
    4.5316    1.9344    0.0000 C   0  0  0  0  0  0  0  0  0  0  0  0
    3.7226    2.5222    0.0000 C   0  0  0  0  0  0  0  0  0  0  0  0
    5.7916    3.1945    0.0000 C   0  0  0  0  0  0  0  0  0  0  0  0
    3.8271    3.5168    0.0000 C   0  0  0  0  0  0  0  0  0  0  0  0
    2.8090    2.1155    0.0000 C   0  0  0  0  0  0  0  0  0  0  0  0
    4.7406    3.9235    0.0000 C   0  0  0  0  0  0  0  0  0  0  0  0
    2.0000    2.7033    0.0000 C   0  0  0  0  0  0  0  0  0  0  0  0
    2.1045    3.6978    0.0000 C   0  0  0  0  0  0  0  0  0  0  0  0
    9.8900   -1.3184    0.0000 H   0  0  0  0  0  0  0  0  0  0  0  0
   10.4928   -1.8018    0.0000 H   0  0  0  0  0  0  0  0  0  0  0  0
   10.4928    1.2066    0.0000 H   0  0  0  0  0  0  0  0  0  0  0  0
    9.8900    0.7232    0.0000 H   0  0  0  0  0  0  0  0  0  0  0  0
   11.1783   -1.9612    0.0000 H   0  0  0  0  0  0  0  0  0  0  0  0
   11.9326   -1.7933    0.0000 H   0  0  0  0  0  0  0  0  0  0  0  0
   11.9326    1.1981    0.0000 H   0  0  0  0  0  0  0  0  0  0  0  0
   11.1783    1.3660    0.0000 H   0  0  0  0  0  0  0  0  0  0  0  0
    8.4878   -0.5097    0.0000 H   0  0  0  0  0  0  0  0  0  0  0  0
    9.1781   -0.9082    0.0000 H   0  0  0  0  0  0  0  0  0  0  0  0
    9.1530    0.7805    0.0000 H   0  0  0  0  0  0  0  0  0  0  0  0
    8.4628    1.1790    0.0000 H   0  0  0  0  0  0  0  0  0  0  0  0
   13.0870    1.3224    0.0000 H   0  0  0  0  0  0  0  0  0  0  0  0
   14.4900    0.5124    0.0000 H   0  0  0  0  0  0  0  0  0  0  0  0
    6.9878    0.3564    0.0000 H   0  0  0  0  0  0  0  0  0  0  0  0
    7.6781   -0.0422    0.0000 H   0  0  0  0  0  0  0  0  0  0  0  0
    6.3813    3.0029    0.0000 H   0  0  0  0  0  0  0  0  0  0  0  0
    5.9832    3.7842    0.0000 H   0  0  0  0  0  0  0  0  0  0  0  0
    5.2020    3.3861    0.0000 H   0  0  0  0  0  0  0  0  0  0  0  0
    2.7442    1.4989    0.0000 H   0  0  0  0  0  0  0  0  0  0  0  0
    4.9928    3.3571    0.0000 H   0  0  0  0  0  0  0  0  0  0  0  0
    5.3070    4.1757    0.0000 H   0  0  0  0  0  0  0  0  0  0  0  0
    4.4885    4.4899    0.0000 H   0  0  0  0  0  0  0  0  0  0  0  0
    1.4336    2.4511    0.0000 H   0  0  0  0  0  0  0  0  0  0  0  0
    1.6029    4.0622    0.0000 H   0  0  0  0  0  0  0  0  0  0  0  0
  1 24  1  0  0  0  0
  1 27  1  0  0  0  0
  2 26  1  0  0  0  0
  3 26  1  0  0  0  0
  4 26  1  0  0  0  0
  5 22  1  0  0  0  0
  5 25  1  0  0  0  0
  6 12  1  0  0  0  0
  6 13  1  0  0  0  0
  6 18  1  0  0  0  0
  7 19  1  0  0  0  0
  7 25  2  0  0  0  0
  8 27  1  0  0  0  0
  8 28  1  0  0  0  0
  8 30  1  0  0  0  0
  9 10  1  0  0  0  0
  9 27  2  0  0  0  0
 10 28  2  0  0  0  0
 11 31  1  0  0  0  0
 11 35  2  0  0  0  0
 12 14  1  0  0  0  0
 12 36  1  0  0  0  0
 12 37  1  0  0  0  0
 13 15  1  0  0  0  0
 13 38  1  0  0  0  0
 13 39  1  0  0  0  0
 14 16  1  0  0  0  0
 14 40  1  0  0  0  0
 14 41  1  0  0  0  0
 15 17  1  0  0  0  0
 15 42  1  0  0  0  0
 15 43  1  0  0  0  0
 16 17  2  0  0  0  0
 16 19  1  0  0  0  0
 17 21  1  0  0  0  0
 18 20  1  0  0  0  0
 18 44  1  0  0  0  0
 18 45  1  0  0  0  0
 19 22  2  0  0  0  0
 20 24  1  0  0  0  0
 20 46  1  0  0  0  0
 20 47  1  0  0  0  0
 21 23  2  0  0  0  0
 21 48  1  0  0  0  0
 22 23  1  0  0  0  0
 23 49  1  0  0  0  0
 24 50  1  0  0  0  0
 24 51  1  0  0  0  0
 25 26  1  0  0  0  0
 28 29  1  0  0  0  0
 29 31  2  0  0  0  0
 29 32  1  0  0  0  0
 30 52  1  0  0  0  0
 30 53  1  0  0  0  0
 30 54  1  0  0  0  0
 31 33  1  0  0  0  0
 32 34  2  0  0  0  0
 32 55  1  0  0  0  0
 33 56  1  0  0  0  0
 33 57  1  0  0  0  0
 33 58  1  0  0  0  0
 34 35  1  0  0  0  0
 34 59  1  0  0  0  0
 35 60  1  0  0  0  0
M  END
> <PUBCHEM_COMPOUND_CID>
11533448

> <PUBCHEM_COMPOUND_CANONICALIZED>
1

> <PUBCHEM_CACTVS_COMPLEXITY>
705

> <PUBCHEM_CACTVS_HBOND_ACCEPTOR>
10

> <PUBCHEM_CACTVS_HBOND_DONOR>
0

> <PUBCHEM_CACTVS_ROTATABLE_BOND>
6

> <PUBCHEM_CACTVS_SUBSKEYS>
AAADceB7oYBAAAAAAAAAAAAAAAAAAWLAAAA8QAAABYAAAFgB/gAAHwQIAAAADAzF3xS/1rcMFEiqA7d3dASS2Ct/YrAd2CG/bNiOLvLk/buPOSjkzBPY6YeY2bKOoAABQAASEABAAAKAACQgAAAAAAAAAA==

> <PUBCHEM_IUPAC_OPENEYE_NAME>
8-[3-[[4-methyl-5-(2-methyl-3-pyridyl)-1,2,4-triazol-3-yl]sulfanyl]propyl]-2-(trifluoromethyl)-6,7,9,10-tetrahydrooxazolo[5,4-i][3]benzazepine

> <PUBCHEM_IUPAC_CAS_NAME>
8-[3-[[4-methyl-5-(2-methyl-3-pyridinyl)-1,2,4-triazol-3-yl]thio]propyl]-2-(trifluoromethyl)-6,7,9,10-tetrahydrooxazolo[5,4-i][3]benzazepine

> <PUBCHEM_IUPAC_NAME_MARKUP>
8-[3-[[4-methyl-5-(2-methylpyridin-3-yl)-1,2,4-triazol-3-yl]sulfanyl]propyl]-2-(trifluoromethyl)-6,7,9,10-tetrahydro-[1,3]oxazolo[5,4-i][3]benzazepine

> <PUBCHEM_IUPAC_NAME>
8-[3-[[4-methyl-5-(2-methylpyridin-3-yl)-1,2,4-triazol-3-yl]sulfanyl]propyl]-2-(trifluoromethyl)-6,7,9,10-tetrahydro-[1,3]oxazolo[5,4-i][3]benzazepine

> <PUBCHEM_IUPAC_SYSTEMATIC_NAME>
8-[3-[[4-methyl-5-(2-methylpyridin-3-yl)-1,2,4-triazol-3-yl]sulfanyl]propyl]-2-(trifluoromethyl)-6,7,9,10-tetrahydro-[1,3]oxazolo[5,4-i][3]benzazepine

> <PUBCHEM_IUPAC_TRADITIONAL_NAME>
8-[3-[[4-methyl-5-(2-methyl-3-pyridyl)-1,2,4-triazol-3-yl]thio]propyl]-2-(trifluoromethyl)-6,7,9,10-tetrahydrooxazolo[5,4-i][3]benzazepine

> <PUBCHEM_IUPAC_INCHI>
InChI=1S/C24H25F3N6OS/c1-15-17(5-3-10-28-15)21-30-31-23(32(21)2)35-14-4-11-33-12-8-16-6-7-19-20(18(16)9-13-33)29-22(34-19)24(25,26)27/h3,5-7,10H,4,8-9,11-14H2,1-2H3

> <PUBCHEM_IUPAC_INCHIKEY>
IQFXDOJWHPEPAA-UHFFFAOYSA-N

> <PUBCHEM_XLOGP3_AA>
4.4

> <PUBCHEM_EXACT_MASS>
502.17626510

> <PUBCHEM_MOLECULAR_FORMULA>
C24H25F3N6OS

> <PUBCHEM_MOLECULAR_WEIGHT>
502.6

> <PUBCHEM_OPENEYE_CAN_SMILES>
CC1=C(C=CC=N1)C2=NN=C(N2C)SCCCN3CCC4=C(CC3)C5=C(C=C4)OC(=N5)C(F)(F)F

> <PUBCHEM_OPENEYE_ISO_SMILES>
CC1=C(C=CC=N1)C2=NN=C(N2C)SCCCN3CCC4=C(CC3)C5=C(C=C4)OC(=N5)C(F)(F)F

> <PUBCHEM_CACTVS_TPSA>
98.2

> <PUBCHEM_MONOISOTOPIC_WEIGHT>
502.17626510

> <PUBCHEM_TOTAL_CHARGE>
0

> <PUBCHEM_HEAVY_ATOM_COUNT>
35

> <PUBCHEM_ATOM_DEF_STEREO_COUNT>
0

> <PUBCHEM_ATOM_UDEF_STEREO_COUNT>
0

> <PUBCHEM_BOND_DEF_STEREO_COUNT>
0

> <PUBCHEM_BOND_UDEF_STEREO_COUNT>
0

> <PUBCHEM_ISOTOPIC_ATOM_COUNT>
0

> <PUBCHEM_COMPONENT_COUNT>
1

> <PUBCHEM_CACTVS_TAUTO_COUNT>
-1

> <PUBCHEM_COORDINATE_TYPE>
1
5
255

> <PUBCHEM_BONDANNOTATIONS>
10  28  8
11  31  8
11  35  8
16  17  8
16  19  8
17  21  8
19  22  8
21  23  8
22  23  8
29  31  8
29  32  8
32  34  8
34  35  8
5  22  8
5  25  8
7  19  8
7  25  8
8  27  8
8  28  8
9  10  8
9  27  8

$$$$
