208917
  -OEChem-09292322152D

 50 54  0     0  0  0  0  0  0999 V2000
    2.1810   -5.6783    0.0000 F   0  0  0  0  0  0  0  0  0  0  0  0
    7.5689    3.8736    0.0000 O   0  0  0  0  0  0  0  0  0  0  0  0
    5.7567    0.6783    0.0000 N   0  0  0  0  0  0  0  0  0  0  0  0
    5.7567    2.6783    0.0000 N   0  0  0  0  0  0  0  0  0  0  0  0
    4.7861   -1.8162    0.0000 N   0  0  0  0  0  0  0  0  0  0  0  0
    6.6227    1.1783    0.0000 C   0  0  0  0  0  0  0  0  0  0  0  0
    4.8907    1.1783    0.0000 C   0  0  0  0  0  0  0  0  0  0  0  0
    6.6227    2.1783    0.0000 C   0  0  0  0  0  0  0  0  0  0  0  0
    4.8907    2.1783    0.0000 C   0  0  0  0  0  0  0  0  0  0  0  0
    5.7567   -0.3217    0.0000 C   0  0  0  0  0  0  0  0  0  0  0  0
    5.7567    3.6783    0.0000 C   0  0  0  0  0  0  0  0  0  0  0  0
    4.8907   -0.8217    0.0000 C   0  0  0  0  0  0  0  0  0  0  0  0
    6.6227    4.1783    0.0000 C   0  0  0  0  0  0  0  0  0  0  0  0
    4.8907    4.1783    0.0000 C   0  0  0  0  0  0  0  0  0  0  0  0
    3.9771   -0.4150    0.0000 C   0  0  0  0  0  0  0  0  0  0  0  0
    6.6227    5.1783    0.0000 C   0  0  0  0  0  0  0  0  0  0  0  0
    3.8080   -2.0241    0.0000 C   0  0  0  0  0  0  0  0  0  0  0  0
    3.3080   -1.1581    0.0000 C   0  0  0  0  0  0  0  0  0  0  0  0
    4.8907    5.1783    0.0000 C   0  0  0  0  0  0  0  0  0  0  0  0
    5.7567    5.6783    0.0000 C   0  0  0  0  0  0  0  0  0  0  0  0
    7.5689    5.4830    0.0000 C   0  0  0  0  0  0  0  0  0  0  0  0
    3.4013   -2.9377    0.0000 C   0  0  0  0  0  0  0  0  0  0  0  0
    8.1526    4.6783    0.0000 C   0  0  0  0  0  0  0  0  0  0  0  0
    2.4067   -3.0422    0.0000 C   0  0  0  0  0  0  0  0  0  0  0  0
    3.9890   -3.7467    0.0000 C   0  0  0  0  0  0  0  0  0  0  0  0
    2.0000   -3.9558    0.0000 C   0  0  0  0  0  0  0  0  0  0  0  0
    3.5823   -4.6602    0.0000 C   0  0  0  0  0  0  0  0  0  0  0  0
    2.5878   -4.7648    0.0000 C   0  0  0  0  0  0  0  0  0  0  0  0
    6.8348    0.5957    0.0000 H   0  0  0  0  0  0  0  0  0  0  0  0
    7.2333    1.2860    0.0000 H   0  0  0  0  0  0  0  0  0  0  0  0
    4.2801    1.2860    0.0000 H   0  0  0  0  0  0  0  0  0  0  0  0
    4.6786    0.5957    0.0000 H   0  0  0  0  0  0  0  0  0  0  0  0
    7.2333    2.0706    0.0000 H   0  0  0  0  0  0  0  0  0  0  0  0
    6.8348    2.7609    0.0000 H   0  0  0  0  0  0  0  0  0  0  0  0
    4.6786    2.7609    0.0000 H   0  0  0  0  0  0  0  0  0  0  0  0
    4.2801    2.0706    0.0000 H   0  0  0  0  0  0  0  0  0  0  0  0
    5.9688   -0.9043    0.0000 H   0  0  0  0  0  0  0  0  0  0  0  0
    6.3673   -0.2140    0.0000 H   0  0  0  0  0  0  0  0  0  0  0  0
    4.3537    3.8683    0.0000 H   0  0  0  0  0  0  0  0  0  0  0  0
    5.2469   -2.2311    0.0000 H   0  0  0  0  0  0  0  0  0  0  0  0
    3.8482    0.1915    0.0000 H   0  0  0  0  0  0  0  0  0  0  0  0
    2.6914   -1.0933    0.0000 H   0  0  0  0  0  0  0  0  0  0  0  0
    4.3537    5.4883    0.0000 H   0  0  0  0  0  0  0  0  0  0  0  0
    5.7567    6.2983    0.0000 H   0  0  0  0  0  0  0  0  0  0  0  0
    7.7616    6.0724    0.0000 H   0  0  0  0  0  0  0  0  0  0  0  0
    8.7726    4.6783    0.0000 H   0  0  0  0  0  0  0  0  0  0  0  0
    2.0423   -2.5406    0.0000 H   0  0  0  0  0  0  0  0  0  0  0  0
    4.6056   -3.6819    0.0000 H   0  0  0  0  0  0  0  0  0  0  0  0
    1.3834   -4.0206    0.0000 H   0  0  0  0  0  0  0  0  0  0  0  0
    3.9467   -5.1618    0.0000 H   0  0  0  0  0  0  0  0  0  0  0  0
  1 28  1  0  0  0  0
  2 13  1  0  0  0  0
  2 23  1  0  0  0  0
  3  6  1  0  0  0  0
  3  7  1  0  0  0  0
  3 10  1  0  0  0  0
  4  8  1  0  0  0  0
  4  9  1  0  0  0  0
  4 11  1  0  0  0  0
  5 12  1  0  0  0  0
  5 17  1  0  0  0  0
  5 40  1  0  0  0  0
  6  8  1  0  0  0  0
  6 29  1  0  0  0  0
  6 30  1  0  0  0  0
  7  9  1  0  0  0  0
  7 31  1  0  0  0  0
  7 32  1  0  0  0  0
  8 33  1  0  0  0  0
  8 34  1  0  0  0  0
  9 35  1  0  0  0  0
  9 36  1  0  0  0  0
 10 12  1  0  0  0  0
 10 37  1  0  0  0  0
 10 38  1  0  0  0  0
 11 13  1  0  0  0  0
 11 14  2  0  0  0  0
 12 15  2  0  0  0  0
 13 16  2  0  0  0  0
 14 19  1  0  0  0  0
 14 39  1  0  0  0  0
 15 18  1  0  0  0  0
 15 41  1  0  0  0  0
 16 20  1  0  0  0  0
 16 21  1  0  0  0  0
 17 18  2  0  0  0  0
 17 22  1  0  0  0  0
 18 42  1  0  0  0  0
 19 20  2  0  0  0  0
 19 43  1  0  0  0  0
 20 44  1  0  0  0  0
 21 23  2  0  0  0  0
 21 45  1  0  0  0  0
 22 24  2  0  0  0  0
 22 25  1  0  0  0  0
 23 46  1  0  0  0  0
 24 26  1  0  0  0  0
 24 47  1  0  0  0  0
 25 27  2  0  0  0  0
 25 48  1  0  0  0  0
 26 28  2  0  0  0  0
 26 49  1  0  0  0  0
 27 28  1  0  0  0  0
 27 50  1  0  0  0  0
M  END
> <PUBCHEM_COMPOUND_CID>
208917

> <PUBCHEM_COMPOUND_CANONICALIZED>
1

> <PUBCHEM_CACTVS_COMPLEXITY>
504

> <PUBCHEM_CACTVS_HBOND_ACCEPTOR>
4

> <PUBCHEM_CACTVS_HBOND_DONOR>
1

> <PUBCHEM_CACTVS_ROTATABLE_BOND>
4

> <PUBCHEM_CACTVS_SUBSKEYS>
AAADceB7IQAAAAAAAAAAAAAAAAAAAWJAAAA8YIAAAAAAAEgB/AAAHwAQAAAADAzhng4wxtPJlECoA6xyxACCiCAlIiAImSG/bNgOZvLEtbuXOSjk0BHY6YeY2eOeAAAAQAAIEAAAAACAABAgAAAAAAAAAA==

> <PUBCHEM_IUPAC_OPENEYE_NAME>
1-(benzofuran-7-yl)-4-[[5-(4-fluorophenyl)-1H-pyrrol-2-yl]methyl]piperazine

> <PUBCHEM_IUPAC_CAS_NAME>
1-(7-benzofuranyl)-4-[[5-(4-fluorophenyl)-1H-pyrrol-2-yl]methyl]piperazine

> <PUBCHEM_IUPAC_NAME_MARKUP>
1-(1-benzofuran-7-yl)-4-[[5-(4-fluorophenyl)-1<I>H</I>-pyrrol-2-yl]methyl]piperazine

> <PUBCHEM_IUPAC_NAME>
1-(1-benzofuran-7-yl)-4-[[5-(4-fluorophenyl)-1H-pyrrol-2-yl]methyl]piperazine

> <PUBCHEM_IUPAC_SYSTEMATIC_NAME>
1-(1-benzofuran-7-yl)-4-[[5-(4-fluorophenyl)-1H-pyrrol-2-yl]methyl]piperazine

> <PUBCHEM_IUPAC_TRADITIONAL_NAME>
1-(benzofuran-7-yl)-4-[[5-(4-fluorophenyl)-1H-pyrrol-2-yl]methyl]piperazine

> <PUBCHEM_IUPAC_INCHI>
InChI=1S/C23H22FN3O/c24-19-6-4-17(5-7-19)21-9-8-20(25-21)16-26-11-13-27(14-12-26)22-3-1-2-18-10-15-28-23(18)22/h1-10,15,25H,11-14,16H2

> <PUBCHEM_IUPAC_INCHIKEY>
PGNHBJGIQAEIHD-UHFFFAOYSA-N

> <PUBCHEM_XLOGP3_AA>
4.3

> <PUBCHEM_EXACT_MASS>
375.17469050

> <PUBCHEM_MOLECULAR_FORMULA>
C23H22FN3O

> <PUBCHEM_MOLECULAR_WEIGHT>
375.4

> <PUBCHEM_OPENEYE_CAN_SMILES>
C1CN(CCN1CC2=CC=C(N2)C3=CC=C(C=C3)F)C4=CC=CC5=C4OC=C5

> <PUBCHEM_OPENEYE_ISO_SMILES>
C1CN(CCN1CC2=CC=C(N2)C3=CC=C(C=C3)F)C4=CC=CC5=C4OC=C5

> <PUBCHEM_CACTVS_TPSA>
35.4

> <PUBCHEM_MONOISOTOPIC_WEIGHT>
375.17469050

> <PUBCHEM_TOTAL_CHARGE>
0

> <PUBCHEM_HEAVY_ATOM_COUNT>
28

> <PUBCHEM_ATOM_DEF_STEREO_COUNT>
0

> <PUBCHEM_ATOM_UDEF_STEREO_COUNT>
0

> <PUBCHEM_BOND_DEF_STEREO_COUNT>
0

> <PUBCHEM_BOND_UDEF_STEREO_COUNT>
0

> <PUBCHEM_ISOTOPIC_ATOM_COUNT>
0

> <PUBCHEM_COMPONENT_COUNT>
1

> <PUBCHEM_CACTVS_TAUTO_COUNT>
1

> <PUBCHEM_COORDINATE_TYPE>
1
5
255

> <PUBCHEM_BONDANNOTATIONS>
11  13  8
11  14  8
12  15  8
13  16  8
14  19  8
15  18  8
16  20  8
16  21  8
17  18  8
19  20  8
2  13  8
2  23  8
21  23  8
22  24  8
22  25  8
24  26  8
25  27  8
26  28  8
27  28  8
5  12  8
5  17  8

$$$$
