46934427
  -OEChem-09292322302D

 69 72  0     0  0  0  0  0  0999 V2000
   13.2583   -1.4400    0.0000 S   0  0  0  0  0  0  0  0  0  0  0  0
    4.5981    1.5600    0.0000 O   0  0  0  0  0  0  0  0  0  0  0  0
   12.7583   -0.5740    0.0000 O   0  0  0  0  0  0  0  0  0  0  0  0
   13.7583   -2.3060    0.0000 O   0  0  0  0  0  0  0  0  0  0  0  0
    6.3301   -1.4400    0.0000 N   0  0  0  0  0  0  0  0  0  0  0  0
    4.5981   -0.4400    0.0000 N   0  0  0  0  0  0  0  0  0  0  0  0
   12.3923   -1.9400    0.0000 N   0  0  0  0  0  0  0  0  0  0  0  0
    6.3301   -0.4400    0.0000 C   0  0  0  0  0  0  0  0  0  0  0  0
    5.4641   -1.9400    0.0000 C   0  0  0  0  0  0  0  0  0  0  0  0
    5.4641    0.0600    0.0000 C   0  0  0  0  0  0  0  0  0  0  0  0
    4.5981   -1.4400    0.0000 C   0  0  0  0  0  0  0  0  0  0  0  0
    7.1962   -1.9400    0.0000 C   0  0  0  0  0  0  0  0  0  0  0  0
    8.0622   -1.4400    0.0000 C   0  0  0  0  0  0  0  0  0  0  0  0
    8.9282   -1.9400    0.0000 C   0  0  0  0  0  0  0  0  0  0  0  0
    9.7942   -1.4400    0.0000 C   0  0  0  0  0  0  0  0  0  0  0  0
    3.7320    0.0600    0.0000 C   0  0  0  0  0  0  0  0  0  0  0  0
   10.6603   -1.9400    0.0000 C   0  0  0  0  0  0  0  0  0  0  0  0
   11.5263   -1.4400    0.0000 C   0  0  0  0  0  0  0  0  0  0  0  0
    3.7320    1.0600    0.0000 C   0  0  0  0  0  0  0  0  0  0  0  0
    2.8660   -0.4400    0.0000 C   0  0  0  0  0  0  0  0  0  0  0  0
    2.8660    1.5600    0.0000 C   0  0  0  0  0  0  0  0  0  0  0  0
    2.0000    0.0600    0.0000 C   0  0  0  0  0  0  0  0  0  0  0  0
    2.0000    1.0600    0.0000 C   0  0  0  0  0  0  0  0  0  0  0  0
   14.1244   -0.9400    0.0000 C   0  0  0  0  0  0  0  0  0  0  0  0
   14.9904   -1.4400    0.0000 C   0  0  0  0  0  0  0  0  0  0  0  0
   14.1244    0.0600    0.0000 C   0  0  0  0  0  0  0  0  0  0  0  0
   15.8564   -0.9400    0.0000 C   0  0  0  0  0  0  0  0  0  0  0  0
    4.5981    2.5600    0.0000 C   0  0  0  0  0  0  0  0  0  0  0  0
   15.8564    0.0600    0.0000 C   0  0  0  0  0  0  0  0  0  0  0  0
   14.9904    0.5600    0.0000 C   0  0  0  0  0  0  0  0  0  0  0  0
   16.7503   -1.4747    0.0000 C   0  0  0  0  0  0  0  0  0  0  0  0
   16.7503    0.5947    0.0000 C   0  0  0  0  0  0  0  0  0  0  0  0
   17.6564   -0.9608    0.0000 C   0  0  0  0  0  0  0  0  0  0  0  0
   17.6564    0.0808    0.0000 C   0  0  0  0  0  0  0  0  0  0  0  0
    6.9407   -0.5477    0.0000 H   0  0  0  0  0  0  0  0  0  0  0  0
    6.5422    0.1426    0.0000 H   0  0  0  0  0  0  0  0  0  0  0  0
    5.0656   -2.4150    0.0000 H   0  0  0  0  0  0  0  0  0  0  0  0
    5.8626   -2.4150    0.0000 H   0  0  0  0  0  0  0  0  0  0  0  0
    5.8626    0.5349    0.0000 H   0  0  0  0  0  0  0  0  0  0  0  0
    5.0656    0.5349    0.0000 H   0  0  0  0  0  0  0  0  0  0  0  0
    3.9875   -1.3323    0.0000 H   0  0  0  0  0  0  0  0  0  0  0  0
    4.3860   -2.0226    0.0000 H   0  0  0  0  0  0  0  0  0  0  0  0
    6.7976   -2.4150    0.0000 H   0  0  0  0  0  0  0  0  0  0  0  0
    7.5947   -2.4150    0.0000 H   0  0  0  0  0  0  0  0  0  0  0  0
    8.4607   -0.9651    0.0000 H   0  0  0  0  0  0  0  0  0  0  0  0
    7.6636   -0.9651    0.0000 H   0  0  0  0  0  0  0  0  0  0  0  0
    8.5297   -2.4150    0.0000 H   0  0  0  0  0  0  0  0  0  0  0  0
    9.3267   -2.4150    0.0000 H   0  0  0  0  0  0  0  0  0  0  0  0
   10.1928   -0.9651    0.0000 H   0  0  0  0  0  0  0  0  0  0  0  0
    9.3957   -0.9651    0.0000 H   0  0  0  0  0  0  0  0  0  0  0  0
   10.2617   -2.4150    0.0000 H   0  0  0  0  0  0  0  0  0  0  0  0
   11.0588   -2.4150    0.0000 H   0  0  0  0  0  0  0  0  0  0  0  0
   11.9248   -0.9651    0.0000 H   0  0  0  0  0  0  0  0  0  0  0  0
   11.1278   -0.9651    0.0000 H   0  0  0  0  0  0  0  0  0  0  0  0
    2.8660   -1.0600    0.0000 H   0  0  0  0  0  0  0  0  0  0  0  0
   12.3923   -2.5600    0.0000 H   0  0  0  0  0  0  0  0  0  0  0  0
    2.8660    2.1800    0.0000 H   0  0  0  0  0  0  0  0  0  0  0  0
    1.4631   -0.2500    0.0000 H   0  0  0  0  0  0  0  0  0  0  0  0
    1.4631    1.3700    0.0000 H   0  0  0  0  0  0  0  0  0  0  0  0
   14.9904   -2.0600    0.0000 H   0  0  0  0  0  0  0  0  0  0  0  0
   13.5874    0.3700    0.0000 H   0  0  0  0  0  0  0  0  0  0  0  0
    5.2181    2.5600    0.0000 H   0  0  0  0  0  0  0  0  0  0  0  0
    4.5981    3.1800    0.0000 H   0  0  0  0  0  0  0  0  0  0  0  0
    3.9781    2.5600    0.0000 H   0  0  0  0  0  0  0  0  0  0  0  0
   14.9904    1.1800    0.0000 H   0  0  0  0  0  0  0  0  0  0  0  0
   16.7432   -2.0946    0.0000 H   0  0  0  0  0  0  0  0  0  0  0  0
   16.7432    1.2146    0.0000 H   0  0  0  0  0  0  0  0  0  0  0  0
   18.1922   -1.2729    0.0000 H   0  0  0  0  0  0  0  0  0  0  0  0
   18.1922    0.3929    0.0000 H   0  0  0  0  0  0  0  0  0  0  0  0
  1  3  2  0  0  0  0
  1  4  2  0  0  0  0
  1  7  1  0  0  0  0
  1 24  1  0  0  0  0
  2 19  1  0  0  0  0
  2 28  1  0  0  0  0
  5  8  1  0  0  0  0
  5  9  1  0  0  0  0
  5 12  1  0  0  0  0
  6 10  1  0  0  0  0
  6 11  1  0  0  0  0
  6 16  1  0  0  0  0
  7 18  1  0  0  0  0
  7 56  1  0  0  0  0
  8 10  1  0  0  0  0
  8 35  1  0  0  0  0
  8 36  1  0  0  0  0
  9 11  1  0  0  0  0
  9 37  1  0  0  0  0
  9 38  1  0  0  0  0
 10 39  1  0  0  0  0
 10 40  1  0  0  0  0
 11 41  1  0  0  0  0
 11 42  1  0  0  0  0
 12 13  1  0  0  0  0
 12 43  1  0  0  0  0
 12 44  1  0  0  0  0
 13 14  1  0  0  0  0
 13 45  1  0  0  0  0
 13 46  1  0  0  0  0
 14 15  1  0  0  0  0
 14 47  1  0  0  0  0
 14 48  1  0  0  0  0
 15 17  1  0  0  0  0
 15 49  1  0  0  0  0
 15 50  1  0  0  0  0
 16 19  1  0  0  0  0
 16 20  2  0  0  0  0
 17 18  1  0  0  0  0
 17 51  1  0  0  0  0
 17 52  1  0  0  0  0
 18 53  1  0  0  0  0
 18 54  1  0  0  0  0
 19 21  2  0  0  0  0
 20 22  1  0  0  0  0
 20 55  1  0  0  0  0
 21 23  1  0  0  0  0
 21 57  1  0  0  0  0
 22 23  2  0  0  0  0
 22 58  1  0  0  0  0
 23 59  1  0  0  0  0
 24 25  2  0  0  0  0
 24 26  1  0  0  0  0
 25 27  1  0  0  0  0
 25 60  1  0  0  0  0
 26 30  2  0  0  0  0
 26 61  1  0  0  0  0
 27 29  1  0  0  0  0
 27 31  2  0  0  0  0
 28 62  1  0  0  0  0
 28 63  1  0  0  0  0
 28 64  1  0  0  0  0
 29 30  1  0  0  0  0
 29 32  2  0  0  0  0
 30 65  1  0  0  0  0
 31 33  1  0  0  0  0
 31 66  1  0  0  0  0
 32 34  1  0  0  0  0
 32 67  1  0  0  0  0
 33 34  2  0  0  0  0
 33 68  1  0  0  0  0
 34 69  1  0  0  0  0
M  END
> <PUBCHEM_COMPOUND_CID>
46934427

> <PUBCHEM_COMPOUND_CANONICALIZED>
1

> <PUBCHEM_CACTVS_COMPLEXITY>
690

> <PUBCHEM_CACTVS_HBOND_ACCEPTOR>
6

> <PUBCHEM_CACTVS_HBOND_DONOR>
1

> <PUBCHEM_CACTVS_ROTATABLE_BOND>
11

> <PUBCHEM_CACTVS_SUBSKEYS>
AAADcfB7MABAAAAAAAAAAAAAAAAAAAAAAAA8YMEAAAAAAADBVAAAHgQQQAAADAzB2AYyx8NABAKAAiRCQHDCCBAhIgAIiJgPbIgOZiLEsZuVMChk0BHY6AeQwIAOkAAAgAAQEAAgAAEAACAgAAAAAAAAAA==

> <PUBCHEM_IUPAC_OPENEYE_NAME>
N-[6-[4-(2-methoxyphenyl)piperazin-1-yl]hexyl]naphthalene-2-sulfonamide

> <PUBCHEM_IUPAC_CAS_NAME>
N-[6-[4-(2-methoxyphenyl)-1-piperazinyl]hexyl]-2-naphthalenesulfonamide

> <PUBCHEM_IUPAC_NAME_MARKUP>
<I>N</I>-[6-[4-(2-methoxyphenyl)piperazin-1-yl]hexyl]naphthalene-2-sulfonamide

> <PUBCHEM_IUPAC_NAME>
N-[6-[4-(2-methoxyphenyl)piperazin-1-yl]hexyl]naphthalene-2-sulfonamide

> <PUBCHEM_IUPAC_SYSTEMATIC_NAME>
N-[6-[4-(2-methoxyphenyl)piperazin-1-yl]hexyl]naphthalene-2-sulfonamide

> <PUBCHEM_IUPAC_TRADITIONAL_NAME>
N-[6-[4-(2-methoxyphenyl)piperazino]hexyl]naphthalene-2-sulfonamide

> <PUBCHEM_IUPAC_INCHI>
InChI=1S/C27H35N3O3S/c1-33-27-13-7-6-12-26(27)30-20-18-29(19-21-30)17-9-3-2-8-16-28-34(31,32)25-15-14-23-10-4-5-11-24(23)22-25/h4-7,10-15,22,28H,2-3,8-9,16-21H2,1H3

> <PUBCHEM_IUPAC_INCHIKEY>
WEXLHWFGOZCTNY-UHFFFAOYSA-N

> <PUBCHEM_XLOGP3_AA>
5.2

> <PUBCHEM_EXACT_MASS>
481.23991316

> <PUBCHEM_MOLECULAR_FORMULA>
C27H35N3O3S

> <PUBCHEM_MOLECULAR_WEIGHT>
481.7

> <PUBCHEM_OPENEYE_CAN_SMILES>
COC1=CC=CC=C1N2CCN(CC2)CCCCCCNS(=O)(=O)C3=CC4=CC=CC=C4C=C3

> <PUBCHEM_OPENEYE_ISO_SMILES>
COC1=CC=CC=C1N2CCN(CC2)CCCCCCNS(=O)(=O)C3=CC4=CC=CC=C4C=C3

> <PUBCHEM_CACTVS_TPSA>
70.3

> <PUBCHEM_MONOISOTOPIC_WEIGHT>
481.23991316

> <PUBCHEM_TOTAL_CHARGE>
0

> <PUBCHEM_HEAVY_ATOM_COUNT>
34

> <PUBCHEM_ATOM_DEF_STEREO_COUNT>
0

> <PUBCHEM_ATOM_UDEF_STEREO_COUNT>
0

> <PUBCHEM_BOND_DEF_STEREO_COUNT>
0

> <PUBCHEM_BOND_UDEF_STEREO_COUNT>
0

> <PUBCHEM_ISOTOPIC_ATOM_COUNT>
0

> <PUBCHEM_COMPONENT_COUNT>
1

> <PUBCHEM_CACTVS_TAUTO_COUNT>
-1

> <PUBCHEM_COORDINATE_TYPE>
1
5
255

> <PUBCHEM_BONDANNOTATIONS>
16  19  8
16  20  8
19  21  8
20  22  8
21  23  8
22  23  8
24  25  8
24  26  8
25  27  8
26  30  8
27  29  8
27  31  8
29  30  8
29  32  8
31  33  8
32  34  8
33  34  8

$$$$
