49860014
  -OEChem-09292322032D

 52 54  0     1  0  0  0  0  0999 V2000
    6.5010    6.4515    0.0000 Br  0  0  0  0  0  0  0  0  0  0  0  0
    0.0000    3.0000    0.0000 Cl  0  0  0  0  0  0  0  0  0  0  0  0
    1.7320    0.0000    0.0000 Cl  0  0  0  0  0  0  0  0  0  0  0  0
    3.0981   12.3660    0.0000 O   0  0  0  0  0  0  0  0  0  0  0  0
    1.7320    6.0000    0.0000 N   0  0  0  0  0  0  0  0  0  0  0  0
    1.7320    4.0000    0.0000 N   0  0  0  0  0  0  0  0  0  0  0  0
    2.5981    7.5000    0.0000 C   0  0  2  0  0  0  0  0  0  0  0  0
    3.0981    8.3660    0.0000 C   0  0  2  0  0  0  0  0  0  0  0  0
    3.5981    7.5000    0.0000 C   0  0  0  0  0  0  0  0  0  0  0  0
    1.7320    7.0000    0.0000 C   0  0  0  0  0  0  0  0  0  0  0  0
    3.0981    9.3660    0.0000 C   0  0  0  0  0  0  0  0  0  0  0  0
    2.5981    5.5000    0.0000 C   0  0  0  0  0  0  0  0  0  0  0  0
    0.8660    5.5000    0.0000 C   0  0  0  0  0  0  0  0  0  0  0  0
    2.5981    4.5000    0.0000 C   0  0  0  0  0  0  0  0  0  0  0  0
    0.8660    4.5000    0.0000 C   0  0  0  0  0  0  0  0  0  0  0  0
    3.9641    9.8660    0.0000 C   0  0  0  0  0  0  0  0  0  0  0  0
    2.2320    9.8660    0.0000 C   0  0  0  0  0  0  0  0  0  0  0  0
    3.9641   10.8660    0.0000 C   0  0  0  0  0  0  0  0  0  0  0  0
    2.2320   10.8660    0.0000 C   0  0  0  0  0  0  0  0  0  0  0  0
    1.7320    3.0000    0.0000 C   0  0  0  0  0  0  0  0  0  0  0  0
    3.0981   11.3660    0.0000 C   0  0  0  0  0  0  0  0  0  0  0  0
    0.8660    2.5000    0.0000 C   0  0  0  0  0  0  0  0  0  0  0  0
    2.5981    2.5000    0.0000 C   0  0  0  0  0  0  0  0  0  0  0  0
    0.8660    1.5000    0.0000 C   0  0  0  0  0  0  0  0  0  0  0  0
    2.5981    1.5000    0.0000 C   0  0  0  0  0  0  0  0  0  0  0  0
    1.7320    1.0000    0.0000 C   0  0  0  0  0  0  0  0  0  0  0  0
    3.9641   12.8660    0.0000 C   0  0  0  0  0  0  0  0  0  0  0  0
    2.7585    6.9011    0.0000 H   0  0  0  0  0  0  0  0  0  0  0  0
    2.4992    8.5265    0.0000 H   0  0  0  0  0  0  0  0  0  0  0  0
    3.7057    6.8894    0.0000 H   0  0  0  0  0  0  0  0  0  0  0  0
    4.1807    7.7120    0.0000 H   0  0  0  0  0  0  0  0  0  0  0  0
    1.5200    7.5826    0.0000 H   0  0  0  0  0  0  0  0  0  0  0  0
    1.1215    6.8923    0.0000 H   0  0  0  0  0  0  0  0  0  0  0  0
    3.2087    5.3923    0.0000 H   0  0  0  0  0  0  0  0  0  0  0  0
    2.8101    6.0826    0.0000 H   0  0  0  0  0  0  0  0  0  0  0  0
    0.6540    6.0826    0.0000 H   0  0  0  0  0  0  0  0  0  0  0  0
    0.2554    5.3923    0.0000 H   0  0  0  0  0  0  0  0  0  0  0  0
    2.8101    3.9174    0.0000 H   0  0  0  0  0  0  0  0  0  0  0  0
    3.2087    4.6077    0.0000 H   0  0  0  0  0  0  0  0  0  0  0  0
    0.2554    4.6077    0.0000 H   0  0  0  0  0  0  0  0  0  0  0  0
    0.6540    3.9174    0.0000 H   0  0  0  0  0  0  0  0  0  0  0  0
    4.5010    9.5560    0.0000 H   0  0  0  0  0  0  0  0  0  0  0  0
    1.6951    9.5560    0.0000 H   0  0  0  0  0  0  0  0  0  0  0  0
    4.5010   11.1760    0.0000 H   0  0  0  0  0  0  0  0  0  0  0  0
    1.6951   11.1760    0.0000 H   0  0  0  0  0  0  0  0  0  0  0  0
    3.1350    2.8100    0.0000 H   0  0  0  0  0  0  0  0  0  0  0  0
    0.3291    1.1900    0.0000 H   0  0  0  0  0  0  0  0  0  0  0  0
    3.1350    1.1900    0.0000 H   0  0  0  0  0  0  0  0  0  0  0  0
    4.2741   12.3291    0.0000 H   0  0  0  0  0  0  0  0  0  0  0  0
    4.5010   13.1760    0.0000 H   0  0  0  0  0  0  0  0  0  0  0  0
    3.6541   13.4030    0.0000 H   0  0  0  0  0  0  0  0  0  0  0  0
    7.5010    6.4515    0.0000 H   0  0  0  0  0  0  0  0  0  0  0  0
  1 52  1  0  0  0  0
  2 22  1  0  0  0  0
  3 26  1  0  0  0  0
  4 21  1  0  0  0  0
  4 27  1  0  0  0  0
  5 10  1  0  0  0  0
  5 12  1  0  0  0  0
  5 13  1  0  0  0  0
  6 14  1  0  0  0  0
  6 15  1  0  0  0  0
  6 20  1  0  0  0  0
  7  8  1  0  0  0  0
  7  9  1  0  0  0  0
  7 10  1  6  0  0  0
  7 28  1  0  0  0  0
  8  9  1  0  0  0  0
  8 11  1  1  0  0  0
  8 29  1  0  0  0  0
  9 30  1  0  0  0  0
  9 31  1  0  0  0  0
 10 32  1  0  0  0  0
 10 33  1  0  0  0  0
 11 16  2  0  0  0  0
 11 17  1  0  0  0  0
 12 14  1  0  0  0  0
 12 34  1  0  0  0  0
 12 35  1  0  0  0  0
 13 15  1  0  0  0  0
 13 36  1  0  0  0  0
 13 37  1  0  0  0  0
 14 38  1  0  0  0  0
 14 39  1  0  0  0  0
 15 40  1  0  0  0  0
 15 41  1  0  0  0  0
 16 18  1  0  0  0  0
 16 42  1  0  0  0  0
 17 19  2  0  0  0  0
 17 43  1  0  0  0  0
 18 21  2  0  0  0  0
 18 44  1  0  0  0  0
 19 21  1  0  0  0  0
 19 45  1  0  0  0  0
 20 22  2  0  0  0  0
 20 23  1  0  0  0  0
 22 24  1  0  0  0  0
 23 25  2  0  0  0  0
 23 46  1  0  0  0  0
 24 26  2  0  0  0  0
 24 47  1  0  0  0  0
 25 26  1  0  0  0  0
 25 48  1  0  0  0  0
 27 49  1  0  0  0  0
 27 50  1  0  0  0  0
 27 51  1  0  0  0  0
M  END
> <PUBCHEM_COMPOUND_CID>
49860014

> <PUBCHEM_COMPOUND_CANONICALIZED>
1

> <PUBCHEM_CACTVS_COMPLEXITY>
449

> <PUBCHEM_CACTVS_HBOND_ACCEPTOR>
3

> <PUBCHEM_CACTVS_HBOND_DONOR>
1

> <PUBCHEM_CACTVS_ROTATABLE_BOND>
5

> <PUBCHEM_CACTVS_SUBSKEYS>
AAADceB7IAAGEAAAAAAAAAAAGAAAAAAAAAA8YIAAAAAAAAABQAAAHgIAAAAADQ7BmCYyxoMABACAAiRCQACCCAAhJwAIiAAObogMZiLFs5vUMChkwBHI6AeQwPAOoABAAACAABBAAIAAAQAAIAAAAAAAAA==

> <PUBCHEM_IUPAC_OPENEYE_NAME>
1-(2,4-dichlorophenyl)-4-[[(1S,2S)-2-(4-methoxyphenyl)cyclopropyl]methyl]piperazine;hydrobromide

> <PUBCHEM_IUPAC_CAS_NAME>
1-(2,4-dichlorophenyl)-4-[[(1S,2S)-2-(4-methoxyphenyl)cyclopropyl]methyl]piperazine;hydrobromide

> <PUBCHEM_IUPAC_NAME_MARKUP>
1-(2,4-dichlorophenyl)-4-[[(1<I>S</I>,2<I>S</I>)-2-(4-methoxyphenyl)cyclopropyl]methyl]piperazine;hydrobromide

> <PUBCHEM_IUPAC_NAME>
1-(2,4-dichlorophenyl)-4-[[(1S,2S)-2-(4-methoxyphenyl)cyclopropyl]methyl]piperazine;hydrobromide

> <PUBCHEM_IUPAC_SYSTEMATIC_NAME>
1-(2,4-dichlorophenyl)-4-[[(1S,2S)-2-(4-methoxyphenyl)cyclopropyl]methyl]piperazine;hydrobromide

> <PUBCHEM_IUPAC_TRADITIONAL_NAME>
1-(2,4-dichlorophenyl)-4-[[(1S,2S)-2-(4-methoxyphenyl)cyclopropyl]methyl]piperazine;hydrobromide

> <PUBCHEM_IUPAC_INCHI>
InChI=1S/C21H24Cl2N2O.BrH/c1-26-18-5-2-15(3-6-18)19-12-16(19)14-24-8-10-25(11-9-24)21-7-4-17(22)13-20(21)23;/h2-7,13,16,19H,8-12,14H2,1H3;1H/t16-,19-;/m1./s1

> <PUBCHEM_IUPAC_INCHIKEY>
ZMSGWVFLKQJFJM-LJLRIERRSA-N

> <PUBCHEM_EXACT_MASS>
470.05273

> <PUBCHEM_MOLECULAR_FORMULA>
C21H25BrCl2N2O

> <PUBCHEM_MOLECULAR_WEIGHT>
472.2

> <PUBCHEM_OPENEYE_CAN_SMILES>
COC1=CC=C(C=C1)C2CC2CN3CCN(CC3)C4=C(C=C(C=C4)Cl)Cl.Br

> <PUBCHEM_OPENEYE_ISO_SMILES>
COC1=CC=C(C=C1)[C@H]2C[C@@H]2CN3CCN(CC3)C4=C(C=C(C=C4)Cl)Cl.Br

> <PUBCHEM_CACTVS_TPSA>
15.7

> <PUBCHEM_MONOISOTOPIC_WEIGHT>
470.05273

> <PUBCHEM_TOTAL_CHARGE>
0

> <PUBCHEM_HEAVY_ATOM_COUNT>
27

> <PUBCHEM_ATOM_DEF_STEREO_COUNT>
2

> <PUBCHEM_ATOM_UDEF_STEREO_COUNT>
0

> <PUBCHEM_BOND_DEF_STEREO_COUNT>
0

> <PUBCHEM_BOND_UDEF_STEREO_COUNT>
0

> <PUBCHEM_ISOTOPIC_ATOM_COUNT>
0

> <PUBCHEM_COMPONENT_COUNT>
2

> <PUBCHEM_CACTVS_TAUTO_COUNT>
-1

> <PUBCHEM_COORDINATE_TYPE>
1
5
255

> <PUBCHEM_BONDANNOTATIONS>
11  16  8
11  17  8
16  18  8
17  19  8
18  21  8
19  21  8
20  22  8
20  23  8
22  24  8
23  25  8
24  26  8
25  26  8
7  10  6
8  11  5

$$$$
