44335812
  -OEChem-09292322162D

 57 60  0     1  0  0  0  0  0999 V2000
    4.3211    0.5637    0.0000 O   0  0  0  0  0  0  0  0  0  0  0  0
    6.8994   -1.7498    0.0000 N   0  0  0  0  0  0  0  0  0  0  0  0
    4.6783    2.2585    0.0000 N   0  0  0  0  0  0  0  0  0  0  0  0
    6.2781    0.1513    0.0000 C   0  0  0  0  0  0  0  0  0  0  0  0
    7.2566   -0.0550    0.0000 C   0  0  0  0  0  0  0  0  0  0  0  0
    5.6103   -0.5930    0.0000 C   0  0  0  0  0  0  0  0  0  0  0  0
    7.5673   -1.0055    0.0000 C   0  0  0  0  0  0  0  0  0  0  0  0
    5.9209   -1.5436    0.0000 C   0  0  0  0  0  0  0  0  0  0  0  0
    5.9674    1.1018    0.0000 C   0  0  0  0  0  0  0  0  0  0  0  0
    5.2619    3.0633    0.0000 C   0  0  3  0  0  0  0  0  0  0  0  0
    4.9889    1.3080    0.0000 C   0  0  0  0  0  0  0  0  0  0  0  0
    4.6783    3.8680    0.0000 C   0  0  0  0  0  0  0  0  0  0  0  0
    7.2101   -2.7003    0.0000 C   0  0  0  0  0  0  0  0  0  0  0  0
    3.7320    2.5633    0.0000 C   0  0  0  0  0  0  0  0  0  0  0  0
    3.7320    3.5633    0.0000 C   0  0  0  0  0  0  0  0  0  0  0  0
    6.2619    3.0633    0.0000 C   0  0  0  0  0  0  0  0  0  0  0  0
    8.1886   -2.9065    0.0000 C   0  0  0  0  0  0  0  0  0  0  0  0
    2.8660    2.0633    0.0000 C   0  0  0  0  0  0  0  0  0  0  0  0
    2.8660    4.0633    0.0000 C   0  0  0  0  0  0  0  0  0  0  0  0
    2.0000    2.5633    0.0000 C   0  0  0  0  0  0  0  0  0  0  0  0
    2.0000    3.5633    0.0000 C   0  0  0  0  0  0  0  0  0  0  0  0
    8.4993   -3.8570    0.0000 C   0  0  0  0  0  0  0  0  0  0  0  0
    8.8564   -2.1622    0.0000 C   0  0  0  0  0  0  0  0  0  0  0  0
    9.4778   -4.0633    0.0000 C   0  0  0  0  0  0  0  0  0  0  0  0
    9.8349   -2.3684    0.0000 C   0  0  0  0  0  0  0  0  0  0  0  0
   10.1456   -3.3190    0.0000 C   0  0  0  0  0  0  0  0  0  0  0  0
   11.1241   -3.5252    0.0000 C   0  0  0  0  0  0  0  0  0  0  0  0
    5.6714    0.2791    0.0000 H   0  0  0  0  0  0  0  0  0  0  0  0
    7.8704    0.0324    0.0000 H   0  0  0  0  0  0  0  0  0  0  0  0
    7.2772    0.5647    0.0000 H   0  0  0  0  0  0  0  0  0  0  0  0
    5.2277   -0.1051    0.0000 H   0  0  0  0  0  0  0  0  0  0  0  0
    5.0633   -0.8851    0.0000 H   0  0  0  0  0  0  0  0  0  0  0  0
    7.9498   -1.4934    0.0000 H   0  0  0  0  0  0  0  0  0  0  0  0
    8.1142   -0.7135    0.0000 H   0  0  0  0  0  0  0  0  0  0  0  0
    5.3071   -1.6309    0.0000 H   0  0  0  0  0  0  0  0  0  0  0  0
    5.9004   -2.1632    0.0000 H   0  0  0  0  0  0  0  0  0  0  0  0
    6.5812    1.1891    0.0000 H   0  0  0  0  0  0  0  0  0  0  0  0
    5.9880    1.7214    0.0000 H   0  0  0  0  0  0  0  0  0  0  0  0
    5.5436    2.5109    0.0000 H   0  0  0  0  0  0  0  0  0  0  0  0
    5.2156    4.1772    0.0000 H   0  0  0  0  0  0  0  0  0  0  0  0
    4.4272    4.4349    0.0000 H   0  0  0  0  0  0  0  0  0  0  0  0
    6.5963   -2.7877    0.0000 H   0  0  0  0  0  0  0  0  0  0  0  0
    7.1895   -3.3200    0.0000 H   0  0  0  0  0  0  0  0  0  0  0  0
    6.2619    2.4433    0.0000 H   0  0  0  0  0  0  0  0  0  0  0  0
    6.8819    3.0633    0.0000 H   0  0  0  0  0  0  0  0  0  0  0  0
    6.2619    3.6833    0.0000 H   0  0  0  0  0  0  0  0  0  0  0  0
    2.8660    1.4433    0.0000 H   0  0  0  0  0  0  0  0  0  0  0  0
    2.8660    4.6833    0.0000 H   0  0  0  0  0  0  0  0  0  0  0  0
    1.4631    2.2533    0.0000 H   0  0  0  0  0  0  0  0  0  0  0  0
    1.4631    3.8733    0.0000 H   0  0  0  0  0  0  0  0  0  0  0  0
    8.0852   -4.3185    0.0000 H   0  0  0  0  0  0  0  0  0  0  0  0
    8.6638   -1.5729    0.0000 H   0  0  0  0  0  0  0  0  0  0  0  0
    9.6704   -4.6526    0.0000 H   0  0  0  0  0  0  0  0  0  0  0  0
   10.2490   -1.9070    0.0000 H   0  0  0  0  0  0  0  0  0  0  0  0
   10.9963   -4.1318    0.0000 H   0  0  0  0  0  0  0  0  0  0  0  0
   11.7308   -3.6530    0.0000 H   0  0  0  0  0  0  0  0  0  0  0  0
   11.2520   -2.9185    0.0000 H   0  0  0  0  0  0  0  0  0  0  0  0
  1 11  2  0  0  0  0
  2  7  1  0  0  0  0
  2  8  1  0  0  0  0
  2 13  1  0  0  0  0
  3 10  1  0  0  0  0
  3 11  1  0  0  0  0
  3 14  1  0  0  0  0
  4  5  1  0  0  0  0
  4  6  1  0  0  0  0
  4  9  1  0  0  0  0
  4 28  1  0  0  0  0
  5  7  1  0  0  0  0
  5 29  1  0  0  0  0
  5 30  1  0  0  0  0
  6  8  1  0  0  0  0
  6 31  1  0  0  0  0
  6 32  1  0  0  0  0
  7 33  1  0  0  0  0
  7 34  1  0  0  0  0
  8 35  1  0  0  0  0
  8 36  1  0  0  0  0
  9 11  1  0  0  0  0
  9 37  1  0  0  0  0
  9 38  1  0  0  0  0
 10 12  1  0  0  0  0
 10 16  1  0  0  0  0
 10 39  1  0  0  0  0
 12 15  1  0  0  0  0
 12 40  1  0  0  0  0
 12 41  1  0  0  0  0
 13 17  1  0  0  0  0
 13 42  1  0  0  0  0
 13 43  1  0  0  0  0
 14 15  1  0  0  0  0
 14 18  2  0  0  0  0
 15 19  2  0  0  0  0
 16 44  1  0  0  0  0
 16 45  1  0  0  0  0
 16 46  1  0  0  0  0
 17 22  2  0  0  0  0
 17 23  1  0  0  0  0
 18 20  1  0  0  0  0
 18 47  1  0  0  0  0
 19 21  1  0  0  0  0
 19 48  1  0  0  0  0
 20 21  2  0  0  0  0
 20 49  1  0  0  0  0
 21 50  1  0  0  0  0
 22 24  1  0  0  0  0
 22 51  1  0  0  0  0
 23 25  2  0  0  0  0
 23 52  1  0  0  0  0
 24 26  2  0  0  0  0
 24 53  1  0  0  0  0
 25 26  1  0  0  0  0
 25 54  1  0  0  0  0
 26 27  1  0  0  0  0
 27 55  1  0  0  0  0
 27 56  1  0  0  0  0
 27 57  1  0  0  0  0
M  END
> <PUBCHEM_COMPOUND_CID>
44335812

> <PUBCHEM_COMPOUND_CANONICALIZED>
1

> <PUBCHEM_CACTVS_COMPLEXITY>
491

> <PUBCHEM_CACTVS_HBOND_ACCEPTOR>
2

> <PUBCHEM_CACTVS_HBOND_DONOR>
0

> <PUBCHEM_CACTVS_ROTATABLE_BOND>
4

> <PUBCHEM_CACTVS_SUBSKEYS>
AAADceB7IAAAAAAAAAAAAAAAAAAAAWAAAAA8YIAAAAAAAFgBQAAAHgAAAAAADSjBmAQywIMAAACIAiVSUACCAAAhAgAIiAEIZIgIIDLAkZGEIAhghgDIyAcYgYAOQAAAAAACAACAAAAAAAQAAAAAAAAAAA==

> <PUBCHEM_IUPAC_OPENEYE_NAME>
1-(2-methylindolin-1-yl)-2-[1-(p-tolylmethyl)-4-piperidyl]ethanone

> <PUBCHEM_IUPAC_CAS_NAME>
1-(2-methyl-2,3-dihydroindol-1-yl)-2-[1-[(4-methylphenyl)methyl]-4-piperidinyl]ethanone

> <PUBCHEM_IUPAC_NAME_MARKUP>
1-(2-methyl-2,3-dihydroindol-1-yl)-2-[1-[(4-methylphenyl)methyl]piperidin-4-yl]ethanone

> <PUBCHEM_IUPAC_NAME>
1-(2-methyl-2,3-dihydroindol-1-yl)-2-[1-[(4-methylphenyl)methyl]piperidin-4-yl]ethanone

> <PUBCHEM_IUPAC_SYSTEMATIC_NAME>
1-(2-methyl-2,3-dihydroindol-1-yl)-2-[1-[(4-methylphenyl)methyl]piperidin-4-yl]ethanone

> <PUBCHEM_IUPAC_TRADITIONAL_NAME>
2-[1-(4-methylbenzyl)-4-piperidyl]-1-(2-methylindolin-1-yl)ethanone

> <PUBCHEM_IUPAC_INCHI>
InChI=1S/C24H30N2O/c1-18-7-9-21(10-8-18)17-25-13-11-20(12-14-25)16-24(27)26-19(2)15-22-5-3-4-6-23(22)26/h3-10,19-20H,11-17H2,1-2H3

> <PUBCHEM_IUPAC_INCHIKEY>
JUCOWYBTHHKLNZ-UHFFFAOYSA-N

> <PUBCHEM_XLOGP3_AA>
4.3

> <PUBCHEM_EXACT_MASS>
362.235813585

> <PUBCHEM_MOLECULAR_FORMULA>
C24H30N2O

> <PUBCHEM_MOLECULAR_WEIGHT>
362.5

> <PUBCHEM_OPENEYE_CAN_SMILES>
CC1CC2=CC=CC=C2N1C(=O)CC3CCN(CC3)CC4=CC=C(C=C4)C

> <PUBCHEM_OPENEYE_ISO_SMILES>
CC1CC2=CC=CC=C2N1C(=O)CC3CCN(CC3)CC4=CC=C(C=C4)C

> <PUBCHEM_CACTVS_TPSA>
23.6

> <PUBCHEM_MONOISOTOPIC_WEIGHT>
362.235813585

> <PUBCHEM_TOTAL_CHARGE>
0

> <PUBCHEM_HEAVY_ATOM_COUNT>
27

> <PUBCHEM_ATOM_DEF_STEREO_COUNT>
0

> <PUBCHEM_ATOM_UDEF_STEREO_COUNT>
1

> <PUBCHEM_BOND_DEF_STEREO_COUNT>
0

> <PUBCHEM_BOND_UDEF_STEREO_COUNT>
0

> <PUBCHEM_ISOTOPIC_ATOM_COUNT>
0

> <PUBCHEM_COMPONENT_COUNT>
1

> <PUBCHEM_CACTVS_TAUTO_COUNT>
-1

> <PUBCHEM_COORDINATE_TYPE>
1
5
255

> <PUBCHEM_BONDANNOTATIONS>
10  16  3
14  15  8
14  18  8
15  19  8
17  22  8
17  23  8
18  20  8
19  21  8
20  21  8
22  24  8
23  25  8
24  26  8
25  26  8

$$$$
