45483655
  -OEChem-09292322292D

148157  0     0  0  0  0  0  0999 V2000
   15.0399  -14.3264    0.0000 O   0  0  0  0  0  0  0  0  0  0  0  0
    4.4374   15.3482    0.0000 O   0  0  0  0  0  0  0  0  0  0  0  0
   13.3078   -7.3264    0.0000 O   0  0  0  0  0  0  0  0  0  0  0  0
    9.4890    8.2433    0.0000 O   0  0  0  0  0  0  0  0  0  0  0  0
   16.7719  -11.3264    0.0000 N   0  0  0  0  0  0  0  0  0  0  0  0
    6.7553   12.7739    0.0000 N   0  0  0  0  0  0  0  0  0  0  0  0
   16.7719  -13.3264    0.0000 N   0  0  0  0  0  0  0  0  0  0  0  0
    4.8532   13.3920    0.0000 N   0  0  0  0  0  0  0  0  0  0  0  0
   15.0399   -7.3264    0.0000 N   0  0  0  0  0  0  0  0  0  0  0  0
   10.0243    9.8906    0.0000 N   0  0  0  0  0  0  0  0  0  0  0  0
   13.6738   -1.2876    0.0000 N   0  0  0  0  0  0  0  0  0  0  0  0
   15.3454    6.7253    0.0000 N   0  0  0  0  0  0  0  0  0  0  0  0
   14.9829   -2.2386    0.0000 N   0  0  0  0  0  0  0  0  0  0  0  0
   14.8454    8.2641    0.0000 N   0  0  0  0  0  0  0  0  0  0  0  0
   14.6738   -1.2876    0.0000 N   0  0  0  0  0  0  0  0  0  0  0  0
   15.6544    7.6764    0.0000 N   0  0  0  0  0  0  0  0  0  0  0  0
   17.6379  -11.8264    0.0000 C   0  0  0  0  0  0  0  0  0  0  0  0
   15.9059  -11.8264    0.0000 C   0  0  0  0  0  0  0  0  0  0  0  0
    6.5474   13.7521    0.0000 C   0  0  0  0  0  0  0  0  0  0  0  0
    6.0121   12.1048    0.0000 C   0  0  0  0  0  0  0  0  0  0  0  0
   17.6379  -12.8264    0.0000 C   0  0  0  0  0  0  0  0  0  0  0  0
   15.9059  -12.8264    0.0000 C   0  0  0  0  0  0  0  0  0  0  0  0
    5.5963   14.0611    0.0000 C   0  0  0  0  0  0  0  0  0  0  0  0
    5.0611   12.4138    0.0000 C   0  0  0  0  0  0  0  0  0  0  0  0
   16.7719  -10.3264    0.0000 C   0  0  0  0  0  0  0  0  0  0  0  0
    7.7063   12.4649    0.0000 C   0  0  0  0  0  0  0  0  0  0  0  0
   15.9059   -9.8264    0.0000 C   0  0  0  0  0  0  0  0  0  0  0  0
    7.9142   11.4868    0.0000 C   0  0  0  0  0  0  0  0  0  0  0  0
   16.7719  -14.3264    0.0000 C   0  0  0  0  0  0  0  0  0  0  0  0
    3.9021   13.7010    0.0000 C   0  0  0  0  0  0  0  0  0  0  0  0
   15.9059   -8.8264    0.0000 C   0  0  0  0  0  0  0  0  0  0  0  0
    8.8653   11.1777    0.0000 C   0  0  0  0  0  0  0  0  0  0  0  0
   15.0399   -8.3264    0.0000 C   0  0  0  0  0  0  0  0  0  0  0  0
    9.0732   10.1996    0.0000 C   0  0  0  0  0  0  0  0  0  0  0  0
   15.9059  -14.8264    0.0000 C   0  0  0  0  0  0  0  0  0  0  0  0
    3.6942   14.6791    0.0000 C   0  0  0  0  0  0  0  0  0  0  0  0
   17.6379  -14.8264    0.0000 C   0  0  0  0  0  0  0  0  0  0  0  0
    3.1590   13.0318    0.0000 C   0  0  0  0  0  0  0  0  0  0  0  0
   15.9059  -15.8264    0.0000 C   0  0  0  0  0  0  0  0  0  0  0  0
    2.7431   14.9881    0.0000 C   0  0  0  0  0  0  0  0  0  0  0  0
   17.6379  -15.8264    0.0000 C   0  0  0  0  0  0  0  0  0  0  0  0
    2.2079   13.3409    0.0000 C   0  0  0  0  0  0  0  0  0  0  0  0
   16.7719  -16.3264    0.0000 C   0  0  0  0  0  0  0  0  0  0  0  0
    2.0000   14.3190    0.0000 C   0  0  0  0  0  0  0  0  0  0  0  0
   14.1738   -6.8264    0.0000 C   0  0  0  0  0  0  0  0  0  0  0  0
   10.2322    8.9124    0.0000 C   0  0  0  0  0  0  0  0  0  0  0  0
   14.1738  -14.8264    0.0000 C   0  0  0  0  0  0  0  0  0  0  0  0
    4.2294   16.3264    0.0000 C   0  0  0  0  0  0  0  0  0  0  0  0
   14.1738   -5.8264    0.0000 C   0  0  0  0  0  0  0  0  0  0  0  0
   11.1832    8.6034    0.0000 C   0  0  0  0  0  0  0  0  0  0  0  0
   15.0399   -5.3264    0.0000 C   0  0  0  0  0  0  0  0  0  0  0  0
   11.3912    7.6253    0.0000 C   0  0  0  0  0  0  0  0  0  0  0  0
   13.3078   -5.3264    0.0000 C   0  0  0  0  0  0  0  0  0  0  0  0
   11.9264    9.2725    0.0000 C   0  0  0  0  0  0  0  0  0  0  0  0
   15.0399   -4.3264    0.0000 C   0  0  0  0  0  0  0  0  0  0  0  0
   12.3422    7.3162    0.0000 C   0  0  0  0  0  0  0  0  0  0  0  0
   13.3078   -4.3264    0.0000 C   0  0  0  0  0  0  0  0  0  0  0  0
   12.8774    8.9635    0.0000 C   0  0  0  0  0  0  0  0  0  0  0  0
   14.1738   -3.8264    0.0000 C   0  0  0  0  0  0  0  0  0  0  0  0
   13.0854    7.9854    0.0000 C   0  0  0  0  0  0  0  0  0  0  0  0
   14.1738   -2.8264    0.0000 C   0  0  0  0  0  0  0  0  0  0  0  0
   14.0364    7.6764    0.0000 C   0  0  0  0  0  0  0  0  0  0  0  0
   13.3648   -2.2386    0.0000 C   0  0  0  0  0  0  0  0  0  0  0  0
   14.3454    6.7253    0.0000 C   0  0  0  0  0  0  0  0  0  0  0  0
   13.0861   -0.4785    0.0000 C   0  0  0  0  0  0  0  0  0  0  0  0
   15.9332    5.9163    0.0000 C   0  0  0  0  0  0  0  0  0  0  0  0
   13.4928    0.4350    0.0000 C   0  0  0  0  0  0  0  0  0  0  0  0
   15.5265    5.0027    0.0000 C   0  0  0  0  0  0  0  0  0  0  0  0
   14.3063    2.2621    0.0000 C   0  0  0  0  0  0  0  0  0  0  0  0
   14.7130    3.1756    0.0000 C   0  0  0  0  0  0  0  0  0  0  0  0
   14.4873    0.5395    0.0000 C   0  0  0  0  0  0  0  0  0  0  0  0
   16.1143    4.1937    0.0000 C   0  0  0  0  0  0  0  0  0  0  0  0
   12.9050    1.2440    0.0000 C   0  0  0  0  0  0  0  0  0  0  0  0
   14.5320    4.8982    0.0000 C   0  0  0  0  0  0  0  0  0  0  0  0
   14.8941    1.4531    0.0000 C   0  0  0  0  0  0  0  0  0  0  0  0
   15.7075    3.2802    0.0000 C   0  0  0  0  0  0  0  0  0  0  0  0
   13.3117    2.1576    0.0000 C   0  0  0  0  0  0  0  0  0  0  0  0
   14.1252    3.9847    0.0000 C   0  0  0  0  0  0  0  0  0  0  0  0
   18.2485  -11.9341    0.0000 H   0  0  0  0  0  0  0  0  0  0  0  0
   17.8500  -11.2438    0.0000 H   0  0  0  0  0  0  0  0  0  0  0  0
   15.6938  -11.2438    0.0000 H   0  0  0  0  0  0  0  0  0  0  0  0
   15.2953  -11.9341    0.0000 H   0  0  0  0  0  0  0  0  0  0  0  0
    7.1670   13.7737    0.0000 H   0  0  0  0  0  0  0  0  0  0  0  0
    6.6337   14.3660    0.0000 H   0  0  0  0  0  0  0  0  0  0  0  0
    5.7211   11.5574    0.0000 H   0  0  0  0  0  0  0  0  0  0  0  0
    6.5007   11.7231    0.0000 H   0  0  0  0  0  0  0  0  0  0  0  0
   17.8500  -13.4090    0.0000 H   0  0  0  0  0  0  0  0  0  0  0  0
   18.2485  -12.7187    0.0000 H   0  0  0  0  0  0  0  0  0  0  0  0
   15.2953  -12.7187    0.0000 H   0  0  0  0  0  0  0  0  0  0  0  0
   15.6938  -13.4090    0.0000 H   0  0  0  0  0  0  0  0  0  0  0  0
    5.8874   14.6085    0.0000 H   0  0  0  0  0  0  0  0  0  0  0  0
    5.1078   14.4428    0.0000 H   0  0  0  0  0  0  0  0  0  0  0  0
    4.4415   12.3922    0.0000 H   0  0  0  0  0  0  0  0  0  0  0  0
    4.9748   11.7998    0.0000 H   0  0  0  0  0  0  0  0  0  0  0  0
   17.3825  -10.4341    0.0000 H   0  0  0  0  0  0  0  0  0  0  0  0
   16.9840   -9.7438    0.0000 H   0  0  0  0  0  0  0  0  0  0  0  0
    8.3260   12.4865    0.0000 H   0  0  0  0  0  0  0  0  0  0  0  0
    7.7926   13.0789    0.0000 H   0  0  0  0  0  0  0  0  0  0  0  0
   15.2953   -9.7187    0.0000 H   0  0  0  0  0  0  0  0  0  0  0  0
   15.6938  -10.4090    0.0000 H   0  0  0  0  0  0  0  0  0  0  0  0
    7.2946   11.4651    0.0000 H   0  0  0  0  0  0  0  0  0  0  0  0
    7.8280   10.8728    0.0000 H   0  0  0  0  0  0  0  0  0  0  0  0
   16.5165   -8.9341    0.0000 H   0  0  0  0  0  0  0  0  0  0  0  0
   16.1179   -8.2438    0.0000 H   0  0  0  0  0  0  0  0  0  0  0  0
    9.4849   11.1994    0.0000 H   0  0  0  0  0  0  0  0  0  0  0  0
    8.9516   11.7917    0.0000 H   0  0  0  0  0  0  0  0  0  0  0  0
   14.4293   -8.2187    0.0000 H   0  0  0  0  0  0  0  0  0  0  0  0
   14.8278   -8.9090    0.0000 H   0  0  0  0  0  0  0  0  0  0  0  0
    8.4536   10.1780    0.0000 H   0  0  0  0  0  0  0  0  0  0  0  0
    8.9869    9.5856    0.0000 H   0  0  0  0  0  0  0  0  0  0  0  0
   18.1749  -14.5164    0.0000 H   0  0  0  0  0  0  0  0  0  0  0  0
    3.2879   12.4254    0.0000 H   0  0  0  0  0  0  0  0  0  0  0  0
   15.3690  -16.1364    0.0000 H   0  0  0  0  0  0  0  0  0  0  0  0
    2.6142   15.5946    0.0000 H   0  0  0  0  0  0  0  0  0  0  0  0
   18.1749  -16.1364    0.0000 H   0  0  0  0  0  0  0  0  0  0  0  0
    1.7472   12.9260    0.0000 H   0  0  0  0  0  0  0  0  0  0  0  0
   15.5768   -7.0164    0.0000 H   0  0  0  0  0  0  0  0  0  0  0  0
   10.4850   10.3054    0.0000 H   0  0  0  0  0  0  0  0  0  0  0  0
   16.7719  -16.9464    0.0000 H   0  0  0  0  0  0  0  0  0  0  0  0
    1.4103   14.5106    0.0000 H   0  0  0  0  0  0  0  0  0  0  0  0
   13.8638  -14.2895    0.0000 H   0  0  0  0  0  0  0  0  0  0  0  0
   13.6369  -15.1364    0.0000 H   0  0  0  0  0  0  0  0  0  0  0  0
   14.4838  -15.3633    0.0000 H   0  0  0  0  0  0  0  0  0  0  0  0
    4.8359   16.4553    0.0000 H   0  0  0  0  0  0  0  0  0  0  0  0
    4.1005   16.9328    0.0000 H   0  0  0  0  0  0  0  0  0  0  0  0
    3.6230   16.1975    0.0000 H   0  0  0  0  0  0  0  0  0  0  0  0
   15.5768   -5.6364    0.0000 H   0  0  0  0  0  0  0  0  0  0  0  0
   10.9304    7.2104    0.0000 H   0  0  0  0  0  0  0  0  0  0  0  0
   12.7709   -5.6364    0.0000 H   0  0  0  0  0  0  0  0  0  0  0  0
   11.7975    9.8790    0.0000 H   0  0  0  0  0  0  0  0  0  0  0  0
   15.5768   -4.0164    0.0000 H   0  0  0  0  0  0  0  0  0  0  0  0
   12.4711    6.7098    0.0000 H   0  0  0  0  0  0  0  0  0  0  0  0
   12.7709   -4.0164    0.0000 H   0  0  0  0  0  0  0  0  0  0  0  0
   13.3382    9.3784    0.0000 H   0  0  0  0  0  0  0  0  0  0  0  0
   12.7752   -2.4302    0.0000 H   0  0  0  0  0  0  0  0  0  0  0  0
   13.9810    6.2237    0.0000 H   0  0  0  0  0  0  0  0  0  0  0  0
   12.5721   -0.1318    0.0000 H   0  0  0  0  0  0  0  0  0  0  0  0
   12.6554   -0.9245    0.0000 H   0  0  0  0  0  0  0  0  0  0  0  0
   16.4472    5.5696    0.0000 H   0  0  0  0  0  0  0  0  0  0  0  0
   16.3639    6.3623    0.0000 H   0  0  0  0  0  0  0  0  0  0  0  0
   14.8517    0.0379    0.0000 H   0  0  0  0  0  0  0  0  0  0  0  0
   16.7309    4.2585    0.0000 H   0  0  0  0  0  0  0  0  0  0  0  0
   12.2884    1.1792    0.0000 H   0  0  0  0  0  0  0  0  0  0  0  0
   14.1675    5.3998    0.0000 H   0  0  0  0  0  0  0  0  0  0  0  0
   15.5107    1.5179    0.0000 H   0  0  0  0  0  0  0  0  0  0  0  0
   16.0720    2.7786    0.0000 H   0  0  0  0  0  0  0  0  0  0  0  0
   12.9473    2.6592    0.0000 H   0  0  0  0  0  0  0  0  0  0  0  0
   13.5086    3.9199    0.0000 H   0  0  0  0  0  0  0  0  0  0  0  0
  1 35  1  0  0  0  0
  1 47  1  0  0  0  0
  2 36  1  0  0  0  0
  2 48  1  0  0  0  0
  3 45  2  0  0  0  0
  4 46  2  0  0  0  0
  5 17  1  0  0  0  0
  5 18  1  0  0  0  0
  5 25  1  0  0  0  0
  6 19  1  0  0  0  0
  6 20  1  0  0  0  0
  6 26  1  0  0  0  0
  7 21  1  0  0  0  0
  7 22  1  0  0  0  0
  7 29  1  0  0  0  0
  8 23  1  0  0  0  0
  8 24  1  0  0  0  0
  8 30  1  0  0  0  0
  9 33  1  0  0  0  0
  9 45  1  0  0  0  0
  9117  1  0  0  0  0
 10 34  1  0  0  0  0
 10 46  1  0  0  0  0
 10118  1  0  0  0  0
 11 15  1  0  0  0  0
 11 63  1  0  0  0  0
 11 65  1  0  0  0  0
 12 16  1  0  0  0  0
 12 64  1  0  0  0  0
 12 66  1  0  0  0  0
 13 15  2  0  0  0  0
 13 61  1  0  0  0  0
 14 16  2  0  0  0  0
 14 62  1  0  0  0  0
 17 21  1  0  0  0  0
 17 79  1  0  0  0  0
 17 80  1  0  0  0  0
 18 22  1  0  0  0  0
 18 81  1  0  0  0  0
 18 82  1  0  0  0  0
 19 23  1  0  0  0  0
 19 83  1  0  0  0  0
 19 84  1  0  0  0  0
 20 24  1  0  0  0  0
 20 85  1  0  0  0  0
 20 86  1  0  0  0  0
 21 87  1  0  0  0  0
 21 88  1  0  0  0  0
 22 89  1  0  0  0  0
 22 90  1  0  0  0  0
 23 91  1  0  0  0  0
 23 92  1  0  0  0  0
 24 93  1  0  0  0  0
 24 94  1  0  0  0  0
 25 27  1  0  0  0  0
 25 95  1  0  0  0  0
 25 96  1  0  0  0  0
 26 28  1  0  0  0  0
 26 97  1  0  0  0  0
 26 98  1  0  0  0  0
 27 31  1  0  0  0  0
 27 99  1  0  0  0  0
 27100  1  0  0  0  0
 28 32  1  0  0  0  0
 28101  1  0  0  0  0
 28102  1  0  0  0  0
 29 35  1  0  0  0  0
 29 37  2  0  0  0  0
 30 36  1  0  0  0  0
 30 38  2  0  0  0  0
 31 33  1  0  0  0  0
 31103  1  0  0  0  0
 31104  1  0  0  0  0
 32 34  1  0  0  0  0
 32105  1  0  0  0  0
 32106  1  0  0  0  0
 33107  1  0  0  0  0
 33108  1  0  0  0  0
 34109  1  0  0  0  0
 34110  1  0  0  0  0
 35 39  2  0  0  0  0
 36 40  2  0  0  0  0
 37 41  1  0  0  0  0
 37111  1  0  0  0  0
 38 42  1  0  0  0  0
 38112  1  0  0  0  0
 39 43  1  0  0  0  0
 39113  1  0  0  0  0
 40 44  1  0  0  0  0
 40114  1  0  0  0  0
 41 43  2  0  0  0  0
 41115  1  0  0  0  0
 42 44  2  0  0  0  0
 42116  1  0  0  0  0
 43119  1  0  0  0  0
 44120  1  0  0  0  0
 45 49  1  0  0  0  0
 46 50  1  0  0  0  0
 47121  1  0  0  0  0
 47122  1  0  0  0  0
 47123  1  0  0  0  0
 48124  1  0  0  0  0
 48125  1  0  0  0  0
 48126  1  0  0  0  0
 49 51  2  0  0  0  0
 49 53  1  0  0  0  0
 50 52  2  0  0  0  0
 50 54  1  0  0  0  0
 51 55  1  0  0  0  0
 51127  1  0  0  0  0
 52 56  1  0  0  0  0
 52128  1  0  0  0  0
 53 57  2  0  0  0  0
 53129  1  0  0  0  0
 54 58  2  0  0  0  0
 54130  1  0  0  0  0
 55 59  2  0  0  0  0
 55131  1  0  0  0  0
 56 60  2  0  0  0  0
 56132  1  0  0  0  0
 57 59  1  0  0  0  0
 57133  1  0  0  0  0
 58 60  1  0  0  0  0
 58134  1  0  0  0  0
 59 61  1  0  0  0  0
 60 62  1  0  0  0  0
 61 63  2  0  0  0  0
 62 64  2  0  0  0  0
 63135  1  0  0  0  0
 64136  1  0  0  0  0
 65 67  1  0  0  0  0
 65137  1  0  0  0  0
 65138  1  0  0  0  0
 66 68  1  0  0  0  0
 66139  1  0  0  0  0
 66140  1  0  0  0  0
 67 71  2  0  0  0  0
 67 73  1  0  0  0  0
 68 72  2  0  0  0  0
 68 74  1  0  0  0  0
 69 70  1  0  0  0  0
 69 75  2  0  0  0  0
 69 77  1  0  0  0  0
 70 76  2  0  0  0  0
 70 78  1  0  0  0  0
 71 75  1  0  0  0  0
 71141  1  0  0  0  0
 72 76  1  0  0  0  0
 72142  1  0  0  0  0
 73 77  2  0  0  0  0
 73143  1  0  0  0  0
 74 78  2  0  0  0  0
 74144  1  0  0  0  0
 75145  1  0  0  0  0
 76146  1  0  0  0  0
 77147  1  0  0  0  0
 78148  1  0  0  0  0
M  END
> <PUBCHEM_COMPOUND_CID>
45483655

> <PUBCHEM_COMPOUND_CANONICALIZED>
1

> <PUBCHEM_CACTVS_COMPLEXITY>
1610

> <PUBCHEM_CACTVS_HBOND_ACCEPTOR>
12

> <PUBCHEM_CACTVS_HBOND_DONOR>
2

> <PUBCHEM_CACTVS_ROTATABLE_BOND>
23

> <PUBCHEM_CACTVS_SUBSKEYS>
AAADcfB/+AAAAAAAAAAAAAAAAAAAAWLAAAA8eMGDAAAAAAAB9AAAHgAYAAAADAzBngY+xpPIBACqAzV3VACCDAQ1sgAY2KE/fNgOZrLEtZuVMShk1hHY6YeYyMCOwAAAAAAAEACAAAAAAAAgAAAAAAAAAA==

> <PUBCHEM_IUPAC_OPENEYE_NAME>
N-[4-[4-(2-methoxyphenyl)piperazin-1-yl]butyl]-4-[1-[[4-[4-[[4-[4-[4-[4-(2-methoxyphenyl)piperazin-1-yl]butylcarbamoyl]phenyl]triazol-1-yl]methyl]phenyl]phenyl]methyl]triazol-4-yl]benzamide

> <PUBCHEM_IUPAC_CAS_NAME>
N-[4-[4-(2-methoxyphenyl)-1-piperazinyl]butyl]-4-[1-[[4-[4-[[4-[4-[[4-[4-(2-methoxyphenyl)-1-piperazinyl]butylamino]-oxomethyl]phenyl]-1-triazolyl]methyl]phenyl]phenyl]methyl]-4-triazolyl]benzamide

> <PUBCHEM_IUPAC_NAME_MARKUP>
<I>N</I>-[4-[4-(2-methoxyphenyl)piperazin-1-yl]butyl]-4-[1-[[4-[4-[[4-[4-[4-[4-(2-methoxyphenyl)piperazin-1-yl]butylcarbamoyl]phenyl]triazol-1-yl]methyl]phenyl]phenyl]methyl]triazol-4-yl]benzamide

> <PUBCHEM_IUPAC_NAME>
N-[4-[4-(2-methoxyphenyl)piperazin-1-yl]butyl]-4-[1-[[4-[4-[[4-[4-[4-[4-(2-methoxyphenyl)piperazin-1-yl]butylcarbamoyl]phenyl]triazol-1-yl]methyl]phenyl]phenyl]methyl]triazol-4-yl]benzamide

> <PUBCHEM_IUPAC_SYSTEMATIC_NAME>
N-[4-[4-(2-methoxyphenyl)piperazin-1-yl]butyl]-4-[1-[[4-[4-[[4-[4-[4-[4-(2-methoxyphenyl)piperazin-1-yl]butylcarbamoyl]phenyl]-1,2,3-triazol-1-yl]methyl]phenyl]phenyl]methyl]-1,2,3-triazol-4-yl]benzamide

> <PUBCHEM_IUPAC_TRADITIONAL_NAME>
N-[4-[4-(2-methoxyphenyl)piperazino]butyl]-4-[1-[4-[4-[[4-[4-[4-[4-(2-methoxyphenyl)piperazino]butylcarbamoyl]phenyl]triazol-1-yl]methyl]phenyl]benzyl]triazol-4-yl]benzamide

> <PUBCHEM_IUPAC_INCHI>
InChI=1S/C62H70N12O4/c1-77-59-13-5-3-11-57(59)71-39-35-69(36-40-71)33-9-7-31-63-61(75)53-27-23-51(24-28-53)55-45-73(67-65-55)43-47-15-19-49(20-16-47)50-21-17-48(18-22-50)44-74-46-56(66-68-74)52-25-29-54(30-26-52)62(76)64-32-8-10-34-70-37-41-72(42-38-70)58-12-4-6-14-60(58)78-2/h3-6,11-30,45-46H,7-10,31-44H2,1-2H3,(H,63,75)(H,64,76)

> <PUBCHEM_IUPAC_INCHIKEY>
KEOJOHYWCQCCER-UHFFFAOYSA-N

> <PUBCHEM_XLOGP3_AA>
8.8

> <PUBCHEM_EXACT_MASS>
1046.56429876

> <PUBCHEM_MOLECULAR_FORMULA>
C62H70N12O4

> <PUBCHEM_MOLECULAR_WEIGHT>
1047.3

> <PUBCHEM_OPENEYE_CAN_SMILES>
COC1=CC=CC=C1N2CCN(CC2)CCCCNC(=O)C3=CC=C(C=C3)C4=CN(N=N4)CC5=CC=C(C=C5)C6=CC=C(C=C6)CN7C=C(N=N7)C8=CC=C(C=C8)C(=O)NCCCCN9CCN(CC9)C1=CC=CC=C1OC

> <PUBCHEM_OPENEYE_ISO_SMILES>
COC1=CC=CC=C1N2CCN(CC2)CCCCNC(=O)C3=CC=C(C=C3)C4=CN(N=N4)CC5=CC=C(C=C5)C6=CC=C(C=C6)CN7C=C(N=N7)C8=CC=C(C=C8)C(=O)NCCCCN9CCN(CC9)C1=CC=CC=C1OC

> <PUBCHEM_CACTVS_TPSA>
151

> <PUBCHEM_MONOISOTOPIC_WEIGHT>
1046.56429876

> <PUBCHEM_TOTAL_CHARGE>
0

> <PUBCHEM_HEAVY_ATOM_COUNT>
78

> <PUBCHEM_ATOM_DEF_STEREO_COUNT>
0

> <PUBCHEM_ATOM_UDEF_STEREO_COUNT>
0

> <PUBCHEM_BOND_DEF_STEREO_COUNT>
0

> <PUBCHEM_BOND_UDEF_STEREO_COUNT>
0

> <PUBCHEM_ISOTOPIC_ATOM_COUNT>
0

> <PUBCHEM_COMPONENT_COUNT>
1

> <PUBCHEM_CACTVS_TAUTO_COUNT>
-1

> <PUBCHEM_COORDINATE_TYPE>
1
5
255

> <PUBCHEM_BONDANNOTATIONS>
11  15  8
11  63  8
12  16  8
12  64  8
13  15  8
13  61  8
14  16  8
14  62  8
29  35  8
29  37  8
30  36  8
30  38  8
35  39  8
36  40  8
37  41  8
38  42  8
39  43  8
40  44  8
41  43  8
42  44  8
49  51  8
49  53  8
50  52  8
50  54  8
51  55  8
52  56  8
53  57  8
54  58  8
55  59  8
56  60  8
57  59  8
58  60  8
61  63  8
62  64  8
67  71  8
67  73  8
68  72  8
68  74  8
69  75  8
69  77  8
70  76  8
70  78  8
71  75  8
72  76  8
73  77  8
74  78  8

$$$$
