9908478
  -OEChem-09292322102D

 55 58  0     0  0  0  0  0  0999 V2000
    4.0000    2.1651    0.0000 F   0  0  0  0  0  0  0  0  0  0  0  0
    2.0000   -1.2990    0.0000 F   0  0  0  0  0  0  0  0  0  0  0  0
    9.5000    1.2990    0.0000 O   0  0  0  0  0  0  0  0  0  0  0  0
    9.5000   -2.1651    0.0000 O   0  0  0  0  0  0  0  0  0  0  0  0
    9.5000   -0.4330    0.0000 N   0  0  0  0  0  0  0  0  0  0  0  0
    7.0000    0.4330    0.0000 N   0  0  0  0  0  0  0  0  0  0  0  0
    5.0000    0.4330    0.0000 N   0  0  0  0  0  0  0  0  0  0  0  0
   11.5000   -0.4330    0.0000 C   0  0  0  0  0  0  0  0  0  0  0  0
   12.0878    0.3760    0.0000 C   0  0  0  0  0  0  0  0  0  0  0  0
   12.0878   -1.2420    0.0000 C   0  0  0  0  0  0  0  0  0  0  0  0
   11.0000    0.4330    0.0000 C   0  0  0  0  0  0  0  0  0  0  0  0
   11.0000   -1.2990    0.0000 C   0  0  0  0  0  0  0  0  0  0  0  0
   13.0388    0.0670    0.0000 C   0  0  0  0  0  0  0  0  0  0  0  0
   13.0388   -0.9330    0.0000 C   0  0  0  0  0  0  0  0  0  0  0  0
   10.0000    0.4330    0.0000 C   0  0  0  0  0  0  0  0  0  0  0  0
   10.0000   -1.2990    0.0000 C   0  0  0  0  0  0  0  0  0  0  0  0
    8.5000   -0.4330    0.0000 C   0  0  0  0  0  0  0  0  0  0  0  0
    8.0000    0.4330    0.0000 C   0  0  0  0  0  0  0  0  0  0  0  0
    6.5000   -0.4330    0.0000 C   0  0  0  0  0  0  0  0  0  0  0  0
    6.5000    1.2990    0.0000 C   0  0  0  0  0  0  0  0  0  0  0  0
    5.5000   -0.4330    0.0000 C   0  0  0  0  0  0  0  0  0  0  0  0
    5.5000    1.2990    0.0000 C   0  0  0  0  0  0  0  0  0  0  0  0
    4.0000    0.4330    0.0000 C   0  0  0  0  0  0  0  0  0  0  0  0
    3.5000    1.2990    0.0000 C   0  0  0  0  0  0  0  0  0  0  0  0
    3.5000   -0.4330    0.0000 C   0  0  0  0  0  0  0  0  0  0  0  0
    2.5000   -0.4330    0.0000 C   0  0  0  0  0  0  0  0  0  0  0  0
    2.5000    1.2990    0.0000 C   0  0  0  0  0  0  0  0  0  0  0  0
    2.0000    0.4330    0.0000 C   0  0  0  0  0  0  0  0  0  0  0  0
   12.3400    0.9424    0.0000 H   0  0  0  0  0  0  0  0  0  0  0  0
   11.5508    0.6860    0.0000 H   0  0  0  0  0  0  0  0  0  0  0  0
   11.5508   -1.5520    0.0000 H   0  0  0  0  0  0  0  0  0  0  0  0
   12.3400   -1.8084    0.0000 H   0  0  0  0  0  0  0  0  0  0  0  0
   11.5826    0.6451    0.0000 H   0  0  0  0  0  0  0  0  0  0  0  0
   10.8923    1.0436    0.0000 H   0  0  0  0  0  0  0  0  0  0  0  0
   10.8923   -1.9096    0.0000 H   0  0  0  0  0  0  0  0  0  0  0  0
   11.5826   -1.5111    0.0000 H   0  0  0  0  0  0  0  0  0  0  0  0
   13.6554    0.0022    0.0000 H   0  0  0  0  0  0  0  0  0  0  0  0
   13.1677    0.6734    0.0000 H   0  0  0  0  0  0  0  0  0  0  0  0
   13.1677   -1.5395    0.0000 H   0  0  0  0  0  0  0  0  0  0  0  0
   13.6554   -0.8682    0.0000 H   0  0  0  0  0  0  0  0  0  0  0  0
    7.9174   -0.6451    0.0000 H   0  0  0  0  0  0  0  0  0  0  0  0
    8.6077   -1.0436    0.0000 H   0  0  0  0  0  0  0  0  0  0  0  0
    8.5826    0.6451    0.0000 H   0  0  0  0  0  0  0  0  0  0  0  0
    7.8923    1.0436    0.0000 H   0  0  0  0  0  0  0  0  0  0  0  0
    6.3923   -1.0436    0.0000 H   0  0  0  0  0  0  0  0  0  0  0  0
    7.0826   -0.6451    0.0000 H   0  0  0  0  0  0  0  0  0  0  0  0
    7.0826    1.5111    0.0000 H   0  0  0  0  0  0  0  0  0  0  0  0
    6.3923    1.9096    0.0000 H   0  0  0  0  0  0  0  0  0  0  0  0
    4.9174   -0.6451    0.0000 H   0  0  0  0  0  0  0  0  0  0  0  0
    5.6077   -1.0436    0.0000 H   0  0  0  0  0  0  0  0  0  0  0  0
    5.6077    1.9096    0.0000 H   0  0  0  0  0  0  0  0  0  0  0  0
    4.9174    1.5111    0.0000 H   0  0  0  0  0  0  0  0  0  0  0  0
    3.8100   -0.9699    0.0000 H   0  0  0  0  0  0  0  0  0  0  0  0
    2.1900    1.8360    0.0000 H   0  0  0  0  0  0  0  0  0  0  0  0
    1.3800    0.4330    0.0000 H   0  0  0  0  0  0  0  0  0  0  0  0
  1 24  1  0  0  0  0
  2 26  1  0  0  0  0
  3 15  2  0  0  0  0
  4 16  2  0  0  0  0
  5 15  1  0  0  0  0
  5 16  1  0  0  0  0
  5 17  1  0  0  0  0
  6 18  1  0  0  0  0
  6 19  1  0  0  0  0
  6 20  1  0  0  0  0
  7 21  1  0  0  0  0
  7 22  1  0  0  0  0
  7 23  1  0  0  0  0
  8  9  1  0  0  0  0
  8 10  1  0  0  0  0
  8 11  1  0  0  0  0
  8 12  1  0  0  0  0
  9 13  1  0  0  0  0
  9 29  1  0  0  0  0
  9 30  1  0  0  0  0
 10 14  1  0  0  0  0
 10 31  1  0  0  0  0
 10 32  1  0  0  0  0
 11 15  1  0  0  0  0
 11 33  1  0  0  0  0
 11 34  1  0  0  0  0
 12 16  1  0  0  0  0
 12 35  1  0  0  0  0
 12 36  1  0  0  0  0
 13 14  1  0  0  0  0
 13 37  1  0  0  0  0
 13 38  1  0  0  0  0
 14 39  1  0  0  0  0
 14 40  1  0  0  0  0
 17 18  1  0  0  0  0
 17 41  1  0  0  0  0
 17 42  1  0  0  0  0
 18 43  1  0  0  0  0
 18 44  1  0  0  0  0
 19 21  1  0  0  0  0
 19 45  1  0  0  0  0
 19 46  1  0  0  0  0
 20 22  1  0  0  0  0
 20 47  1  0  0  0  0
 20 48  1  0  0  0  0
 21 49  1  0  0  0  0
 21 50  1  0  0  0  0
 22 51  1  0  0  0  0
 22 52  1  0  0  0  0
 23 24  2  0  0  0  0
 23 25  1  0  0  0  0
 24 27  1  0  0  0  0
 25 26  2  0  0  0  0
 25 53  1  0  0  0  0
 26 28  1  0  0  0  0
 27 28  2  0  0  0  0
 27 54  1  0  0  0  0
 28 55  1  0  0  0  0
M  END
> <PUBCHEM_COMPOUND_CID>
9908478

> <PUBCHEM_COMPOUND_CANONICALIZED>
1

> <PUBCHEM_CACTVS_COMPLEXITY>
568

> <PUBCHEM_CACTVS_HBOND_ACCEPTOR>
6

> <PUBCHEM_CACTVS_HBOND_DONOR>
0

> <PUBCHEM_CACTVS_ROTATABLE_BOND>
4

> <PUBCHEM_CACTVS_SUBSKEYS>
AAADceB7MYAAAAAAAAAAAAAAAAAAAYAAAAA8WIAAAAAAAAABAAAAHwAAAAAADgjBkAwwwIMAAACIACVSUACCAAAhAgAIiAEIZIgIYDLAkZGUIAhghiDIyAcYiwCPAAAAAAAAAAAAAAAAAAAAAAAAAAAAAA==

> <PUBCHEM_IUPAC_OPENEYE_NAME>
8-[2-[4-(2,5-difluorophenyl)piperazin-1-yl]ethyl]-8-azaspiro[4.5]decane-7,9-dione

> <PUBCHEM_IUPAC_CAS_NAME>
8-[2-[4-(2,5-difluorophenyl)-1-piperazinyl]ethyl]-8-azaspiro[4.5]decane-7,9-dione

> <PUBCHEM_IUPAC_NAME_MARKUP>
8-[2-[4-(2,5-difluorophenyl)piperazin-1-yl]ethyl]-8-azaspiro[4.5]decane-7,9-dione

> <PUBCHEM_IUPAC_NAME>
8-[2-[4-(2,5-difluorophenyl)piperazin-1-yl]ethyl]-8-azaspiro[4.5]decane-7,9-dione

> <PUBCHEM_IUPAC_SYSTEMATIC_NAME>
8-[2-[4-[2,5-bis(fluoranyl)phenyl]piperazin-1-yl]ethyl]-8-azaspiro[4.5]decane-7,9-dione

> <PUBCHEM_IUPAC_TRADITIONAL_NAME>
8-[2-[4-(2,5-difluorophenyl)piperazino]ethyl]-8-azaspiro[4.5]decane-7,9-quinone

> <PUBCHEM_IUPAC_INCHI>
InChI=1S/C21H27F2N3O2/c22-16-3-4-17(23)18(13-16)25-10-7-24(8-11-25)9-12-26-19(27)14-21(15-20(26)28)5-1-2-6-21/h3-4,13H,1-2,5-12,14-15H2

> <PUBCHEM_IUPAC_INCHIKEY>
NWSVOKGXCYCZTI-UHFFFAOYSA-N

> <PUBCHEM_XLOGP3_AA>
3

> <PUBCHEM_EXACT_MASS>
391.20713344

> <PUBCHEM_MOLECULAR_FORMULA>
C21H27F2N3O2

> <PUBCHEM_MOLECULAR_WEIGHT>
391.5

> <PUBCHEM_OPENEYE_CAN_SMILES>
C1CCC2(C1)CC(=O)N(C(=O)C2)CCN3CCN(CC3)C4=C(C=CC(=C4)F)F

> <PUBCHEM_OPENEYE_ISO_SMILES>
C1CCC2(C1)CC(=O)N(C(=O)C2)CCN3CCN(CC3)C4=C(C=CC(=C4)F)F

> <PUBCHEM_CACTVS_TPSA>
43.9

> <PUBCHEM_MONOISOTOPIC_WEIGHT>
391.20713344

> <PUBCHEM_TOTAL_CHARGE>
0

> <PUBCHEM_HEAVY_ATOM_COUNT>
28

> <PUBCHEM_ATOM_DEF_STEREO_COUNT>
0

> <PUBCHEM_ATOM_UDEF_STEREO_COUNT>
0

> <PUBCHEM_BOND_DEF_STEREO_COUNT>
0

> <PUBCHEM_BOND_UDEF_STEREO_COUNT>
0

> <PUBCHEM_ISOTOPIC_ATOM_COUNT>
0

> <PUBCHEM_COMPONENT_COUNT>
1

> <PUBCHEM_CACTVS_TAUTO_COUNT>
-1

> <PUBCHEM_COORDINATE_TYPE>
1
5
255

> <PUBCHEM_BONDANNOTATIONS>
23  24  8
23  25  8
24  27  8
25  26  8
26  28  8
27  28  8

$$$$
