9889681
  -OEChem-09292322152D

 56 60  0     0  0  0  0  0  0999 V2000
    7.1962   -0.3272    0.0000 S   0  0  0  0  0  0  0  0  0  0  0  0
    6.6962    0.5388    0.0000 O   0  0  0  0  0  0  0  0  0  0  0  0
    7.6962   -1.1932    0.0000 O   0  0  0  0  0  0  0  0  0  0  0  0
   11.5426    1.2074    0.0000 N   0  0  0  0  0  0  0  0  0  0  0  0
   11.5195    3.2072    0.0000 N   0  0  0  0  0  0  0  0  0  0  0  0
   11.5542   -1.8619    0.0000 N   0  0  0  0  0  0  0  0  0  0  0  0
    8.0622    0.1728    0.0000 N   0  0  0  0  0  0  0  0  0  0  0  0
   12.4028    1.7174    0.0000 C   0  0  0  0  0  0  0  0  0  0  0  0
   10.6709    1.6973    0.0000 C   0  0  0  0  0  0  0  0  0  0  0  0
   12.3913    2.7173    0.0000 C   0  0  0  0  0  0  0  0  0  0  0  0
   10.6593    2.6973    0.0000 C   0  0  0  0  0  0  0  0  0  0  0  0
   11.5542    0.2075    0.0000 C   0  0  0  0  0  0  0  0  0  0  0  0
   10.6603   -0.3272    0.0000 C   0  0  0  0  0  0  0  0  0  0  0  0
   12.4603   -0.3064    0.0000 C   0  0  0  0  0  0  0  0  0  0  0  0
   10.6603   -1.3272    0.0000 C   0  0  0  0  0  0  0  0  0  0  0  0
    9.7942    0.1728    0.0000 C   0  0  0  0  0  0  0  0  0  0  0  0
    8.9282   -0.3272    0.0000 C   0  0  0  0  0  0  0  0  0  0  0  0
    9.7942   -1.8272    0.0000 C   0  0  0  0  0  0  0  0  0  0  0  0
   12.4603   -1.3480    0.0000 C   0  0  0  0  0  0  0  0  0  0  0  0
    8.9282   -1.3272    0.0000 C   0  0  0  0  0  0  0  0  0  0  0  0
    6.3301   -0.8272    0.0000 C   0  0  0  0  0  0  0  0  0  0  0  0
    6.3301   -1.8272    0.0000 C   0  0  0  0  0  0  0  0  0  0  0  0
    5.4641   -0.3272    0.0000 C   0  0  0  0  0  0  0  0  0  0  0  0
    4.5981   -1.8272    0.0000 C   0  0  0  0  0  0  0  0  0  0  0  0
    5.4641   -2.3272    0.0000 C   0  0  0  0  0  0  0  0  0  0  0  0
    4.5981   -0.8272    0.0000 C   0  0  0  0  0  0  0  0  0  0  0  0
    3.7320   -2.3272    0.0000 C   0  0  0  0  0  0  0  0  0  0  0  0
    3.7320   -3.3272    0.0000 C   0  0  0  0  0  0  0  0  0  0  0  0
    2.8660   -1.8272    0.0000 C   0  0  0  0  0  0  0  0  0  0  0  0
    2.8660   -3.8272    0.0000 C   0  0  0  0  0  0  0  0  0  0  0  0
    2.0000   -2.3272    0.0000 C   0  0  0  0  0  0  0  0  0  0  0  0
    2.0000   -3.3272    0.0000 C   0  0  0  0  0  0  0  0  0  0  0  0
   12.6216    1.1373    0.0000 H   0  0  0  0  0  0  0  0  0  0  0  0
   13.0121    1.8321    0.0000 H   0  0  0  0  0  0  0  0  0  0  0  0
   10.0591    1.7979    0.0000 H   0  0  0  0  0  0  0  0  0  0  0  0
   10.4656    1.1123    0.0000 H   0  0  0  0  0  0  0  0  0  0  0  0
   13.0030    2.6167    0.0000 H   0  0  0  0  0  0  0  0  0  0  0  0
   12.5966    3.3023    0.0000 H   0  0  0  0  0  0  0  0  0  0  0  0
   10.4405    3.2774    0.0000 H   0  0  0  0  0  0  0  0  0  0  0  0
   10.0500    2.5826    0.0000 H   0  0  0  0  0  0  0  0  0  0  0  0
   11.5123    3.8272    0.0000 H   0  0  0  0  0  0  0  0  0  0  0  0
   12.9960    0.0057    0.0000 H   0  0  0  0  0  0  0  0  0  0  0  0
    9.7942    0.7928    0.0000 H   0  0  0  0  0  0  0  0  0  0  0  0
    9.7942   -2.4472    0.0000 H   0  0  0  0  0  0  0  0  0  0  0  0
   12.9960   -1.6601    0.0000 H   0  0  0  0  0  0  0  0  0  0  0  0
    8.3913   -1.6372    0.0000 H   0  0  0  0  0  0  0  0  0  0  0  0
    8.0622    0.7928    0.0000 H   0  0  0  0  0  0  0  0  0  0  0  0
    6.8671   -2.1372    0.0000 H   0  0  0  0  0  0  0  0  0  0  0  0
    5.4641    0.2928    0.0000 H   0  0  0  0  0  0  0  0  0  0  0  0
    5.4641   -2.9472    0.0000 H   0  0  0  0  0  0  0  0  0  0  0  0
    4.0611   -0.5172    0.0000 H   0  0  0  0  0  0  0  0  0  0  0  0
    4.2690   -3.6372    0.0000 H   0  0  0  0  0  0  0  0  0  0  0  0
    2.8660   -1.2072    0.0000 H   0  0  0  0  0  0  0  0  0  0  0  0
    2.8660   -4.4472    0.0000 H   0  0  0  0  0  0  0  0  0  0  0  0
    1.4631   -2.0172    0.0000 H   0  0  0  0  0  0  0  0  0  0  0  0
    1.4631   -3.6372    0.0000 H   0  0  0  0  0  0  0  0  0  0  0  0
  1  2  2  0  0  0  0
  1  3  2  0  0  0  0
  1  7  1  0  0  0  0
  1 21  1  0  0  0  0
  4  8  1  0  0  0  0
  4  9  1  0  0  0  0
  4 12  1  0  0  0  0
  5 10  1  0  0  0  0
  5 11  1  0  0  0  0
  5 41  1  0  0  0  0
  6 15  2  0  0  0  0
  6 19  1  0  0  0  0
  7 17  1  0  0  0  0
  7 47  1  0  0  0  0
  8 10  1  0  0  0  0
  8 33  1  0  0  0  0
  8 34  1  0  0  0  0
  9 11  1  0  0  0  0
  9 35  1  0  0  0  0
  9 36  1  0  0  0  0
 10 37  1  0  0  0  0
 10 38  1  0  0  0  0
 11 39  1  0  0  0  0
 11 40  1  0  0  0  0
 12 13  2  0  0  0  0
 12 14  1  0  0  0  0
 13 15  1  0  0  0  0
 13 16  1  0  0  0  0
 14 19  2  0  0  0  0
 14 42  1  0  0  0  0
 15 18  1  0  0  0  0
 16 17  2  0  0  0  0
 16 43  1  0  0  0  0
 17 20  1  0  0  0  0
 18 20  2  0  0  0  0
 18 44  1  0  0  0  0
 19 45  1  0  0  0  0
 20 46  1  0  0  0  0
 21 22  2  0  0  0  0
 21 23  1  0  0  0  0
 22 25  1  0  0  0  0
 22 48  1  0  0  0  0
 23 26  2  0  0  0  0
 23 49  1  0  0  0  0
 24 25  2  0  0  0  0
 24 26  1  0  0  0  0
 24 27  1  0  0  0  0
 25 50  1  0  0  0  0
 26 51  1  0  0  0  0
 27 28  2  0  0  0  0
 27 29  1  0  0  0  0
 28 30  1  0  0  0  0
 28 52  1  0  0  0  0
 29 31  2  0  0  0  0
 29 53  1  0  0  0  0
 30 32  2  0  0  0  0
 30 54  1  0  0  0  0
 31 32  1  0  0  0  0
 31 55  1  0  0  0  0
 32 56  1  0  0  0  0
M  END
> <PUBCHEM_COMPOUND_CID>
9889681

> <PUBCHEM_COMPOUND_CANONICALIZED>
1

> <PUBCHEM_CACTVS_COMPLEXITY>
691

> <PUBCHEM_CACTVS_HBOND_ACCEPTOR>
6

> <PUBCHEM_CACTVS_HBOND_DONOR>
2

> <PUBCHEM_CACTVS_ROTATABLE_BOND>
5

> <PUBCHEM_CACTVS_SUBSKEYS>
AAADceB7sABAAAAAAAAAAAAAAAAAAAAAAAA8eMECAAAAAACx9AAAHAQQQAAADAjBXgQ8wfPIEAKgAzRnRHDCgDAxAiAI2Lg4ZJgIYOLA0dGUJAhgkADIyAcQgMAOkACAQAACAAAgAQCAAAQAAAAAAAAAAA==

> <PUBCHEM_IUPAC_OPENEYE_NAME>
4-phenyl-N-(4-piperazin-1-yl-6-quinolyl)benzenesulfonamide

> <PUBCHEM_IUPAC_CAS_NAME>
4-phenyl-N-[4-(1-piperazinyl)-6-quinolinyl]benzenesulfonamide

> <PUBCHEM_IUPAC_NAME_MARKUP>
4-phenyl-<I>N</I>-(4-piperazin-1-ylquinolin-6-yl)benzenesulfonamide

> <PUBCHEM_IUPAC_NAME>
4-phenyl-N-(4-piperazin-1-ylquinolin-6-yl)benzenesulfonamide

> <PUBCHEM_IUPAC_SYSTEMATIC_NAME>
4-phenyl-N-(4-piperazin-1-ylquinolin-6-yl)benzenesulfonamide

> <PUBCHEM_IUPAC_TRADITIONAL_NAME>
4-phenyl-N-(4-piperazino-6-quinolyl)benzenesulfonamide

> <PUBCHEM_IUPAC_INCHI>
InChI=1S/C25H24N4O2S/c30-32(31,22-9-6-20(7-10-22)19-4-2-1-3-5-19)28-21-8-11-24-23(18-21)25(12-13-27-24)29-16-14-26-15-17-29/h1-13,18,26,28H,14-17H2

> <PUBCHEM_IUPAC_INCHIKEY>
PMKGXTGSQFTEEH-UHFFFAOYSA-N

> <PUBCHEM_XLOGP3_AA>
3.8

> <PUBCHEM_EXACT_MASS>
444.16199719

> <PUBCHEM_MOLECULAR_FORMULA>
C25H24N4O2S

> <PUBCHEM_MOLECULAR_WEIGHT>
444.6

> <PUBCHEM_OPENEYE_CAN_SMILES>
C1CN(CCN1)C2=C3C=C(C=CC3=NC=C2)NS(=O)(=O)C4=CC=C(C=C4)C5=CC=CC=C5

> <PUBCHEM_OPENEYE_ISO_SMILES>
C1CN(CCN1)C2=C3C=C(C=CC3=NC=C2)NS(=O)(=O)C4=CC=C(C=C4)C5=CC=CC=C5

> <PUBCHEM_CACTVS_TPSA>
82.7

> <PUBCHEM_MONOISOTOPIC_WEIGHT>
444.16199719

> <PUBCHEM_TOTAL_CHARGE>
0

> <PUBCHEM_HEAVY_ATOM_COUNT>
32

> <PUBCHEM_ATOM_DEF_STEREO_COUNT>
0

> <PUBCHEM_ATOM_UDEF_STEREO_COUNT>
0

> <PUBCHEM_BOND_DEF_STEREO_COUNT>
0

> <PUBCHEM_BOND_UDEF_STEREO_COUNT>
0

> <PUBCHEM_ISOTOPIC_ATOM_COUNT>
0

> <PUBCHEM_COMPONENT_COUNT>
1

> <PUBCHEM_CACTVS_TAUTO_COUNT>
1

> <PUBCHEM_COORDINATE_TYPE>
1
5
255

> <PUBCHEM_BONDANNOTATIONS>
12  13  8
12  14  8
13  15  8
13  16  8
14  19  8
15  18  8
16  17  8
17  20  8
18  20  8
21  22  8
21  23  8
22  25  8
23  26  8
24  25  8
24  26  8
27  28  8
27  29  8
28  30  8
29  31  8
30  32  8
31  32  8
6  15  8
6  19  8

$$$$
