11669953
  -OEChem-09292322492D

 61 65  0     1  0  0  0  0  0999 V2000
   11.5467   -0.6849    0.0000 S   0  0  0  0  0  0  0  0  0  0  0  0
    3.7702    0.0125    0.0000 O   0  0  0  0  0  0  0  0  0  0  0  0
    2.0000    2.0713    0.0000 O   0  0  0  0  0  0  0  0  0  0  0  0
   14.8946   -2.7727    0.0000 O   0  0  0  0  0  0  0  0  0  0  0  0
    8.5467    1.0471    0.0000 N   0  0  3  0  0  0  0  0  0  0  0  0
    3.7702    2.0818    0.0000 N   0  0  0  0  0  0  0  0  0  0  0  0
   13.1345   -1.4939    0.0000 N   0  0  0  0  0  0  0  0  0  0  0  0
   13.1345    0.1241    0.0000 N   0  0  0  0  0  0  0  0  0  0  0  0
   14.0856   -0.1849    0.0000 N   0  0  0  0  0  0  0  0  0  0  0  0
   16.4334   -2.2727    0.0000 N   0  0  0  0  0  0  0  0  0  0  0  0
    8.1224    1.9314    0.0000 C   0  0  0  0  0  0  0  0  0  0  0  0
    8.1224    0.1629    0.0000 C   0  0  0  0  0  0  0  0  0  0  0  0
    7.1671    2.1535    0.0000 C   0  0  0  0  0  0  0  0  0  0  0  0
    7.1671   -0.0592    0.0000 C   0  0  0  0  0  0  0  0  0  0  0  0
    6.3961    1.5471    0.0000 C   0  0  0  0  0  0  0  0  0  0  0  0
    6.3961    0.5471    0.0000 C   0  0  0  0  0  0  0  0  0  0  0  0
    9.5467    1.0471    0.0000 C   0  0  0  0  0  0  0  0  0  0  0  0
    5.5301    2.0471    0.0000 C   0  0  0  0  0  0  0  0  0  0  0  0
   10.0467    0.1811    0.0000 C   0  0  0  0  0  0  0  0  0  0  0  0
    5.5301    0.0471    0.0000 C   0  0  0  0  0  0  0  0  0  0  0  0
    4.6641    1.5471    0.0000 C   0  0  0  0  0  0  0  0  0  0  0  0
    4.6641    0.5471    0.0000 C   0  0  0  0  0  0  0  0  0  0  0  0
   11.0467    0.1811    0.0000 C   0  0  0  0  0  0  0  0  0  0  0  0
    2.8641    0.5263    0.0000 C   0  0  0  0  0  0  0  0  0  0  0  0
    2.8641    1.5679    0.0000 C   0  0  0  0  0  0  0  0  0  0  0  0
    3.7817    3.0817    0.0000 C   0  0  0  0  0  0  0  0  0  0  0  0
   12.5467   -0.6849    0.0000 C   0  0  0  0  0  0  0  0  0  0  0  0
   14.0856   -1.1849    0.0000 C   0  0  0  0  0  0  0  0  0  0  0  0
   12.8255   -2.4450    0.0000 C   0  0  0  0  0  0  0  0  0  0  0  0
   14.8946   -1.7727    0.0000 C   0  0  0  0  0  0  0  0  0  0  0  0
   15.8457   -1.4637    0.0000 C   0  0  0  0  0  0  0  0  0  0  0  0
   16.1547   -0.5126    0.0000 C   0  0  0  0  0  0  0  0  0  0  0  0
   15.8457   -3.0817    0.0000 C   0  0  0  0  0  0  0  0  0  0  0  0
    8.7271    2.0680    0.0000 H   0  0  0  0  0  0  0  0  0  0  0  0
    8.1243    2.5514    0.0000 H   0  0  0  0  0  0  0  0  0  0  0  0
    8.1243   -0.4571    0.0000 H   0  0  0  0  0  0  0  0  0  0  0  0
    8.7271    0.0263    0.0000 H   0  0  0  0  0  0  0  0  0  0  0  0
    7.4388    2.7107    0.0000 H   0  0  0  0  0  0  0  0  0  0  0  0
    6.6846    2.5428    0.0000 H   0  0  0  0  0  0  0  0  0  0  0  0
    6.6846   -0.4486    0.0000 H   0  0  0  0  0  0  0  0  0  0  0  0
    7.4388   -0.6165    0.0000 H   0  0  0  0  0  0  0  0  0  0  0  0
   10.1293    1.2592    0.0000 H   0  0  0  0  0  0  0  0  0  0  0  0
    9.4391    1.6577    0.0000 H   0  0  0  0  0  0  0  0  0  0  0  0
    5.5301    2.6671    0.0000 H   0  0  0  0  0  0  0  0  0  0  0  0
    9.4641   -0.0309    0.0000 H   0  0  0  0  0  0  0  0  0  0  0  0
   10.1544   -0.4295    0.0000 H   0  0  0  0  0  0  0  0  0  0  0  0
    5.5301   -0.5729    0.0000 H   0  0  0  0  0  0  0  0  0  0  0  0
   11.6293    0.3932    0.0000 H   0  0  0  0  0  0  0  0  0  0  0  0
   10.9391    0.7917    0.0000 H   0  0  0  0  0  0  0  0  0  0  0  0
    2.2532    0.6324    0.0000 H   0  0  0  0  0  0  0  0  0  0  0  0
    2.6550   -0.0574    0.0000 H   0  0  0  0  0  0  0  0  0  0  0  0
    4.4017    3.0746    0.0000 H   0  0  0  0  0  0  0  0  0  0  0  0
    3.7889    3.7017    0.0000 H   0  0  0  0  0  0  0  0  0  0  0  0
    3.1618    3.0889    0.0000 H   0  0  0  0  0  0  0  0  0  0  0  0
   12.2359   -2.2534    0.0000 H   0  0  0  0  0  0  0  0  0  0  0  0
   12.6339   -3.0346    0.0000 H   0  0  0  0  0  0  0  0  0  0  0  0
   13.4152   -2.6366    0.0000 H   0  0  0  0  0  0  0  0  0  0  0  0
   16.7443   -0.7042    0.0000 H   0  0  0  0  0  0  0  0  0  0  0  0
   16.3463    0.0770    0.0000 H   0  0  0  0  0  0  0  0  0  0  0  0
   15.5650   -0.3210    0.0000 H   0  0  0  0  0  0  0  0  0  0  0  0
   16.0372   -3.6714    0.0000 H   0  0  0  0  0  0  0  0  0  0  0  0
  1 23  1  0  0  0  0
  1 27  1  0  0  0  0
  2 22  1  0  0  0  0
  2 24  1  0  0  0  0
  3 25  2  0  0  0  0
  4 30  1  0  0  0  0
  4 33  1  0  0  0  0
  5 11  1  0  0  0  0
  5 12  1  0  0  0  0
  5 17  1  0  0  0  0
  6 21  1  0  0  0  0
  6 25  1  0  0  0  0
  6 26  1  0  0  0  0
  7 27  1  0  0  0  0
  7 28  1  0  0  0  0
  7 29  1  0  0  0  0
  8  9  1  0  0  0  0
  8 27  2  0  0  0  0
  9 28  2  0  0  0  0
 10 31  1  0  0  0  0
 10 33  2  0  0  0  0
 11 13  1  0  0  0  0
 11 34  1  0  0  0  0
 11 35  1  0  0  0  0
 12 14  1  0  0  0  0
 12 36  1  0  0  0  0
 12 37  1  0  0  0  0
 13 15  1  0  0  0  0
 13 38  1  0  0  0  0
 13 39  1  0  0  0  0
 14 16  1  0  0  0  0
 14 40  1  0  0  0  0
 14 41  1  0  0  0  0
 15 16  1  0  0  0  0
 15 18  2  0  0  0  0
 16 20  2  0  0  0  0
 17 19  1  0  0  0  0
 17 42  1  0  0  0  0
 17 43  1  0  0  0  0
 18 21  1  0  0  0  0
 18 44  1  0  0  0  0
 19 23  1  0  0  0  0
 19 45  1  0  0  0  0
 19 46  1  0  0  0  0
 20 22  1  0  0  0  0
 20 47  1  0  0  0  0
 21 22  2  0  0  0  0
 23 48  1  0  0  0  0
 23 49  1  0  0  0  0
 24 25  1  0  0  0  0
 24 50  1  0  0  0  0
 24 51  1  0  0  0  0
 26 52  1  0  0  0  0
 26 53  1  0  0  0  0
 26 54  1  0  0  0  0
 28 30  1  0  0  0  0
 29 55  1  0  0  0  0
 29 56  1  0  0  0  0
 29 57  1  0  0  0  0
 30 31  2  0  0  0  0
 31 32  1  0  0  0  0
 32 58  1  0  0  0  0
 32 59  1  0  0  0  0
 32 60  1  0  0  0  0
 33 61  1  0  0  0  0
M  END
> <PUBCHEM_COMPOUND_CID>
11669953

> <PUBCHEM_COMPOUND_CANONICALIZED>
1

> <PUBCHEM_CACTVS_COMPLEXITY>
689

> <PUBCHEM_CACTVS_HBOND_ACCEPTOR>
8

> <PUBCHEM_CACTVS_HBOND_DONOR>
0

> <PUBCHEM_CACTVS_ROTATABLE_BOND>
6

> <PUBCHEM_CACTVS_SUBSKEYS>
AAADceB7sABAAAAAAAAAAAAAAAAAAWLAAAA8QAAABYAAAACx8AAAHgQIAAAADAzl3wa31pcMFEiqA6dz9AaS2Ct7YrAV2CH/bJiOLiLk+b+POCjkzhPY6AeQ0LIOqAABQAAQEABQAAKAACAgAAAAAAAAAA==

> <PUBCHEM_IUPAC_OPENEYE_NAME>
4-methyl-8-[3-[[4-methyl-5-(4-methyloxazol-5-yl)-1,2,4-triazol-3-yl]sulfanyl]propyl]-6,7,9,10-tetrahydro-[1,4]oxazino[2,3-h][3]benzazepin-3-one

> <PUBCHEM_IUPAC_CAS_NAME>
4-methyl-8-[3-[[4-methyl-5-(4-methyl-5-oxazolyl)-1,2,4-triazol-3-yl]thio]propyl]-6,7,9,10-tetrahydro-[1,4]oxazino[2,3-h][3]benzazepin-3-one

> <PUBCHEM_IUPAC_NAME_MARKUP>
4-methyl-8-[3-[[4-methyl-5-(4-methyl-1,3-oxazol-5-yl)-1,2,4-triazol-3-yl]sulfanyl]propyl]-6,7,9,10-tetrahydro-[1,4]oxazino[2,3-h][3]benzazepin-3-one

> <PUBCHEM_IUPAC_NAME>
4-methyl-8-[3-[[4-methyl-5-(4-methyl-1,3-oxazol-5-yl)-1,2,4-triazol-3-yl]sulfanyl]propyl]-6,7,9,10-tetrahydro-[1,4]oxazino[2,3-h][3]benzazepin-3-one

> <PUBCHEM_IUPAC_SYSTEMATIC_NAME>
4-methyl-8-[3-[[4-methyl-5-(4-methyl-1,3-oxazol-5-yl)-1,2,4-triazol-3-yl]sulfanyl]propyl]-6,7,9,10-tetrahydro-[1,4]oxazino[2,3-h][3]benzazepin-3-one

> <PUBCHEM_IUPAC_TRADITIONAL_NAME>
4-methyl-8-[3-[[4-methyl-5-(4-methyloxazol-5-yl)-1,2,4-triazol-3-yl]thio]propyl]-6,7,9,10-tetrahydro-[1,4]oxazino[2,3-h][3]benzazepin-3-one

> <PUBCHEM_IUPAC_INCHI>
InChI=1S/C23H28N6O3S/c1-15-21(32-14-24-15)22-25-26-23(28(22)3)33-10-4-7-29-8-5-16-11-18-19(12-17(16)6-9-29)31-13-20(30)27(18)2/h11-12,14H,4-10,13H2,1-3H3

> <PUBCHEM_IUPAC_INCHIKEY>
ZWHFNBRLUSRMFB-UHFFFAOYSA-N

> <PUBCHEM_XLOGP3_AA>
2.3

> <PUBCHEM_EXACT_MASS>
468.19435995

> <PUBCHEM_MOLECULAR_FORMULA>
C23H28N6O3S

> <PUBCHEM_MOLECULAR_WEIGHT>
468.6

> <PUBCHEM_OPENEYE_CAN_SMILES>
CC1=C(OC=N1)C2=NN=C(N2C)SCCCN3CCC4=CC5=C(C=C4CC3)OCC(=O)N5C

> <PUBCHEM_OPENEYE_ISO_SMILES>
CC1=C(OC=N1)C2=NN=C(N2C)SCCCN3CCC4=CC5=C(C=C4CC3)OCC(=O)N5C

> <PUBCHEM_CACTVS_TPSA>
115

> <PUBCHEM_MONOISOTOPIC_WEIGHT>
468.19435995

> <PUBCHEM_TOTAL_CHARGE>
0

> <PUBCHEM_HEAVY_ATOM_COUNT>
33

> <PUBCHEM_ATOM_DEF_STEREO_COUNT>
0

> <PUBCHEM_ATOM_UDEF_STEREO_COUNT>
0

> <PUBCHEM_BOND_DEF_STEREO_COUNT>
0

> <PUBCHEM_BOND_UDEF_STEREO_COUNT>
0

> <PUBCHEM_ISOTOPIC_ATOM_COUNT>
0

> <PUBCHEM_COMPONENT_COUNT>
1

> <PUBCHEM_CACTVS_TAUTO_COUNT>
-1

> <PUBCHEM_COORDINATE_TYPE>
1
5
255

> <PUBCHEM_BONDANNOTATIONS>
10  31  8
10  33  8
15  16  8
15  18  8
16  20  8
18  21  8
20  22  8
21  22  8
30  31  8
4  30  8
4  33  8
7  27  8
7  28  8
8  27  8
8  9  8
9  28  8

$$$$
