127041350
  -OEChem-09292322362D

 53 56  0     1  0  0  0  0  0999 V2000
    5.4381    2.6374    0.0000 S   0  0  0  0  0  0  0  0  0  0  0  0
    3.5827    6.1194    0.0000 S   0  0  0  0  0  0  0  0  0  0  0  0
    8.0362   -6.8626    0.0000 F   0  0  0  0  0  0  0  0  0  0  0  0
    7.0362   -5.8626    0.0000 F   0  0  0  0  0  0  0  0  0  0  0  0
    9.0362   -5.8626    0.0000 F   0  0  0  0  0  0  0  0  0  0  0  0
    8.9022   -1.3626    0.0000 O   0  0  0  0  0  0  0  0  0  0  0  0
    7.1702   -0.3626    0.0000 N   0  0  3  0  0  0  0  0  0  0  0  0
    4.4676    4.1320    0.0000 N   0  0  0  0  0  0  0  0  0  0  0  0
    3.6585    2.7307    0.0000 N   0  0  0  0  0  0  0  0  0  0  0  0
    2.9894    3.4738    0.0000 N   0  0  0  0  0  0  0  0  0  0  0  0
    2.1045    5.4613    0.0000 N   0  0  0  0  0  0  0  0  0  0  0  0
    7.1702   -1.3626    0.0000 C   0  0  0  0  0  0  0  0  0  0  0  0
    8.0362   -1.8626    0.0000 C   0  0  3  0  0  0  0  0  0  0  0  0
    8.0362    0.1374    0.0000 C   0  0  0  0  0  0  0  0  0  0  0  0
    6.3041    0.1374    0.0000 C   0  0  0  0  0  0  0  0  0  0  0  0
    8.9022   -0.3626    0.0000 C   0  0  0  0  0  0  0  0  0  0  0  0
    8.0362   -2.8626    0.0000 C   0  0  0  0  0  0  0  0  0  0  0  0
    6.3041    1.1374    0.0000 C   0  0  0  0  0  0  0  0  0  0  0  0
    5.4381    1.6374    0.0000 C   0  0  0  0  0  0  0  0  0  0  0  0
    8.9022   -3.3626    0.0000 C   0  0  0  0  0  0  0  0  0  0  0  0
    7.1702   -3.3626    0.0000 C   0  0  0  0  0  0  0  0  0  0  0  0
    8.9022   -4.3626    0.0000 C   0  0  0  0  0  0  0  0  0  0  0  0
    7.1702   -4.3626    0.0000 C   0  0  0  0  0  0  0  0  0  0  0  0
    8.0362   -4.8626    0.0000 C   0  0  0  0  0  0  0  0  0  0  0  0
    4.5721    3.1374    0.0000 C   0  0  0  0  0  0  0  0  0  0  0  0
    8.0362   -5.8626    0.0000 C   0  0  0  0  0  0  0  0  0  0  0  0
    3.4894    4.3399    0.0000 C   0  0  0  0  0  0  0  0  0  0  0  0
    5.2107    4.8011    0.0000 C   0  0  0  0  0  0  0  0  0  0  0  0
    3.0827    5.2534    0.0000 C   0  0  0  0  0  0  0  0  0  0  0  0
    2.9136    6.8626    0.0000 C   0  0  0  0  0  0  0  0  0  0  0  0
    2.0000    6.4558    0.0000 C   0  0  0  0  0  0  0  0  0  0  0  0
    6.5596   -1.2549    0.0000 H   0  0  0  0  0  0  0  0  0  0  0  0
    6.9581   -1.9452    0.0000 H   0  0  0  0  0  0  0  0  0  0  0  0
    7.4992   -2.1726    0.0000 H   0  0  0  0  0  0  0  0  0  0  0  0
    8.4347    0.6124    0.0000 H   0  0  0  0  0  0  0  0  0  0  0  0
    7.6377    0.6124    0.0000 H   0  0  0  0  0  0  0  0  0  0  0  0
    5.6936    0.2451    0.0000 H   0  0  0  0  0  0  0  0  0  0  0  0
    6.0921   -0.4452    0.0000 H   0  0  0  0  0  0  0  0  0  0  0  0
    9.5128   -0.4702    0.0000 H   0  0  0  0  0  0  0  0  0  0  0  0
    9.1143    0.2200    0.0000 H   0  0  0  0  0  0  0  0  0  0  0  0
    6.9147    1.0298    0.0000 H   0  0  0  0  0  0  0  0  0  0  0  0
    6.5162    1.7200    0.0000 H   0  0  0  0  0  0  0  0  0  0  0  0
    4.8275    1.7451    0.0000 H   0  0  0  0  0  0  0  0  0  0  0  0
    5.2261    1.0548    0.0000 H   0  0  0  0  0  0  0  0  0  0  0  0
    9.4392   -3.0526    0.0000 H   0  0  0  0  0  0  0  0  0  0  0  0
    6.6332   -3.0526    0.0000 H   0  0  0  0  0  0  0  0  0  0  0  0
    9.4392   -4.6726    0.0000 H   0  0  0  0  0  0  0  0  0  0  0  0
    6.6332   -4.6726    0.0000 H   0  0  0  0  0  0  0  0  0  0  0  0
    5.6256    4.3403    0.0000 H   0  0  0  0  0  0  0  0  0  0  0  0
    5.6714    5.2159    0.0000 H   0  0  0  0  0  0  0  0  0  0  0  0
    4.7958    5.2618    0.0000 H   0  0  0  0  0  0  0  0  0  0  0  0
    3.0424    7.4690    0.0000 H   0  0  0  0  0  0  0  0  0  0  0  0
    1.4631    6.7658    0.0000 H   0  0  0  0  0  0  0  0  0  0  0  0
  1 19  1  0  0  0  0
  1 25  1  0  0  0  0
  2 29  1  0  0  0  0
  2 30  1  0  0  0  0
  3 26  1  0  0  0  0
  4 26  1  0  0  0  0
  5 26  1  0  0  0  0
  6 13  1  0  0  0  0
  6 16  1  0  0  0  0
  7 12  1  0  0  0  0
  7 14  1  0  0  0  0
  7 15  1  0  0  0  0
  8 25  1  0  0  0  0
  8 27  1  0  0  0  0
  8 28  1  0  0  0  0
  9 10  1  0  0  0  0
  9 25  2  0  0  0  0
 10 27  2  0  0  0  0
 11 29  2  0  0  0  0
 11 31  1  0  0  0  0
 12 13  1  0  0  0  0
 12 32  1  0  0  0  0
 12 33  1  0  0  0  0
 13 17  1  0  0  0  0
 13 34  1  0  0  0  0
 14 16  1  0  0  0  0
 14 35  1  0  0  0  0
 14 36  1  0  0  0  0
 15 18  1  0  0  0  0
 15 37  1  0  0  0  0
 15 38  1  0  0  0  0
 16 39  1  0  0  0  0
 16 40  1  0  0  0  0
 17 20  2  0  0  0  0
 17 21  1  0  0  0  0
 18 19  1  0  0  0  0
 18 41  1  0  0  0  0
 18 42  1  0  0  0  0
 19 43  1  0  0  0  0
 19 44  1  0  0  0  0
 20 22  1  0  0  0  0
 20 45  1  0  0  0  0
 21 23  2  0  0  0  0
 21 46  1  0  0  0  0
 22 24  2  0  0  0  0
 22 47  1  0  0  0  0
 23 24  1  0  0  0  0
 23 48  1  0  0  0  0
 24 26  1  0  0  0  0
 27 29  1  0  0  0  0
 28 49  1  0  0  0  0
 28 50  1  0  0  0  0
 28 51  1  0  0  0  0
 30 31  2  0  0  0  0
 30 52  1  0  0  0  0
 31 53  1  0  0  0  0
M  END
> <PUBCHEM_COMPOUND_CID>
127041350

> <PUBCHEM_COMPOUND_CANONICALIZED>
1

> <PUBCHEM_CACTVS_COMPLEXITY>
567

> <PUBCHEM_CACTVS_HBOND_ACCEPTOR>
10

> <PUBCHEM_CACTVS_HBOND_DONOR>
0

> <PUBCHEM_CACTVS_ROTATABLE_BOND>
7

> <PUBCHEM_CACTVS_SUBSKEYS>
AAADceB7oYBgAAAAAAAAAAAAAAAAAWLAAAA8QAAAAAAAAAAB8AAAHwQIAAAADBTl2xa/kZcMFAimAjJnZAAS8KtxCrhdyAwYKIiKbiKguRmXMAAkyAO4qAeQwPAOQAAAAAAAAACAAAAAAAAAAAAAAAAAAA==

> <PUBCHEM_IUPAC_OPENEYE_NAME>
4-[3-[(4-methyl-5-thiazol-2-yl-1,2,4-triazol-3-yl)sulfanyl]propyl]-2-[4-(trifluoromethyl)phenyl]morpholine

> <PUBCHEM_IUPAC_CAS_NAME>
4-[3-[[4-methyl-5-(2-thiazolyl)-1,2,4-triazol-3-yl]thio]propyl]-2-[4-(trifluoromethyl)phenyl]morpholine

> <PUBCHEM_IUPAC_NAME_MARKUP>
4-[3-[[4-methyl-5-(1,3-thiazol-2-yl)-1,2,4-triazol-3-yl]sulfanyl]propyl]-2-[4-(trifluoromethyl)phenyl]morpholine

> <PUBCHEM_IUPAC_NAME>
4-[3-[[4-methyl-5-(1,3-thiazol-2-yl)-1,2,4-triazol-3-yl]sulfanyl]propyl]-2-[4-(trifluoromethyl)phenyl]morpholine

> <PUBCHEM_IUPAC_SYSTEMATIC_NAME>
4-[3-[[4-methyl-5-(1,3-thiazol-2-yl)-1,2,4-triazol-3-yl]sulfanyl]propyl]-2-[4-(trifluoromethyl)phenyl]morpholine

> <PUBCHEM_IUPAC_TRADITIONAL_NAME>
4-[3-[(4-methyl-5-thiazol-2-yl-1,2,4-triazol-3-yl)thio]propyl]-2-[4-(trifluoromethyl)phenyl]morpholine

> <PUBCHEM_IUPAC_INCHI>
InChI=1S/C20H22F3N5OS2/c1-27-17(18-24-7-12-30-18)25-26-19(27)31-11-2-8-28-9-10-29-16(13-28)14-3-5-15(6-4-14)20(21,22)23/h3-7,12,16H,2,8-11,13H2,1H3

> <PUBCHEM_IUPAC_INCHIKEY>
LSTIDGGQGHFYCB-UHFFFAOYSA-N

> <PUBCHEM_XLOGP3_AA>
3.4

> <PUBCHEM_EXACT_MASS>
469.12178718

> <PUBCHEM_MOLECULAR_FORMULA>
C20H22F3N5OS2

> <PUBCHEM_MOLECULAR_WEIGHT>
469.6

> <PUBCHEM_OPENEYE_CAN_SMILES>
CN1C(=NN=C1SCCCN2CCOC(C2)C3=CC=C(C=C3)C(F)(F)F)C4=NC=CS4

> <PUBCHEM_OPENEYE_ISO_SMILES>
CN1C(=NN=C1SCCCN2CCOC(C2)C3=CC=C(C=C3)C(F)(F)F)C4=NC=CS4

> <PUBCHEM_CACTVS_TPSA>
110

> <PUBCHEM_MONOISOTOPIC_WEIGHT>
469.12178718

> <PUBCHEM_TOTAL_CHARGE>
0

> <PUBCHEM_HEAVY_ATOM_COUNT>
31

> <PUBCHEM_ATOM_DEF_STEREO_COUNT>
0

> <PUBCHEM_ATOM_UDEF_STEREO_COUNT>
1

> <PUBCHEM_BOND_DEF_STEREO_COUNT>
0

> <PUBCHEM_BOND_UDEF_STEREO_COUNT>
0

> <PUBCHEM_ISOTOPIC_ATOM_COUNT>
0

> <PUBCHEM_COMPONENT_COUNT>
1

> <PUBCHEM_CACTVS_TAUTO_COUNT>
-1

> <PUBCHEM_COORDINATE_TYPE>
1
5
255

> <PUBCHEM_BONDANNOTATIONS>
10  27  8
11  29  8
11  31  8
13  17  3
17  20  8
17  21  8
2  29  8
2  30  8
20  22  8
21  23  8
22  24  8
23  24  8
30  31  8
8  25  8
8  27  8
9  10  8
9  25  8

$$$$
