15654433
  -OEChem-09292322122D

 43 44  0     1  0  0  0  0  0999 V2000
    3.0000   -2.7500    0.0000 S   0  0  0  0  0  0  0  0  0  0  0  0
    3.0000   -4.7500    0.0000 F   0  0  0  0  0  0  0  0  0  0  0  0
    2.0000   -3.7500    0.0000 F   0  0  0  0  0  0  0  0  0  0  0  0
    4.0000   -3.7500    0.0000 F   0  0  0  0  0  0  0  0  0  0  0  0
    3.0000   -1.7500    0.0000 O   0  0  0  0  0  0  0  0  0  0  0  0
    2.0000   -2.7500    0.0000 O   0  0  0  0  0  0  0  0  0  0  0  0
    4.0000   -2.7500    0.0000 O   0  0  0  0  0  0  0  0  0  0  0  0
    3.8660    2.7500    0.0000 N   0  0  3  0  0  0  0  0  0  0  0  0
    4.7320    1.2500    0.0000 C   0  0  1  0  0  0  0  0  0  0  0  0
    3.8660    1.7500    0.0000 C   0  0  0  0  0  0  0  0  0  0  0  0
    5.5981    1.7500    0.0000 C   0  0  0  0  0  0  0  0  0  0  0  0
    5.5981    2.7500    0.0000 C   0  0  0  0  0  0  0  0  0  0  0  0
    4.7320    3.2500    0.0000 C   0  0  0  0  0  0  0  0  0  0  0  0
    4.7320    0.2500    0.0000 C   0  0  0  0  0  0  0  0  0  0  0  0
    3.0000    3.2500    0.0000 C   0  0  0  0  0  0  0  0  0  0  0  0
    3.0000    4.2500    0.0000 C   0  0  0  0  0  0  0  0  0  0  0  0
    3.8660   -0.2500    0.0000 C   0  0  0  0  0  0  0  0  0  0  0  0
    5.5981   -0.2500    0.0000 C   0  0  0  0  0  0  0  0  0  0  0  0
    2.1340    4.7500    0.0000 C   0  0  0  0  0  0  0  0  0  0  0  0
    3.8660   -1.2500    0.0000 C   0  0  0  0  0  0  0  0  0  0  0  0
    5.5981   -1.2500    0.0000 C   0  0  0  0  0  0  0  0  0  0  0  0
    4.7320   -1.7500    0.0000 C   0  0  0  0  0  0  0  0  0  0  0  0
    3.0000   -3.7500    0.0000 C   0  0  0  0  0  0  0  0  0  0  0  0
    5.2690    0.9400    0.0000 H   0  0  0  0  0  0  0  0  0  0  0  0
    3.2554    1.8577    0.0000 H   0  0  0  0  0  0  0  0  0  0  0  0
    3.6540    1.1674    0.0000 H   0  0  0  0  0  0  0  0  0  0  0  0
    5.8101    1.1674    0.0000 H   0  0  0  0  0  0  0  0  0  0  0  0
    6.2087    1.8577    0.0000 H   0  0  0  0  0  0  0  0  0  0  0  0
    6.2087    2.6423    0.0000 H   0  0  0  0  0  0  0  0  0  0  0  0
    5.8101    3.3326    0.0000 H   0  0  0  0  0  0  0  0  0  0  0  0
    5.1306    3.7250    0.0000 H   0  0  0  0  0  0  0  0  0  0  0  0
    4.3335    3.7250    0.0000 H   0  0  0  0  0  0  0  0  0  0  0  0
    2.3894    3.3577    0.0000 H   0  0  0  0  0  0  0  0  0  0  0  0
    2.7880    2.6674    0.0000 H   0  0  0  0  0  0  0  0  0  0  0  0
    3.6106    4.1423    0.0000 H   0  0  0  0  0  0  0  0  0  0  0  0
    3.2120    4.8326    0.0000 H   0  0  0  0  0  0  0  0  0  0  0  0
    3.3291    0.0600    0.0000 H   0  0  0  0  0  0  0  0  0  0  0  0
    6.1350    0.0600    0.0000 H   0  0  0  0  0  0  0  0  0  0  0  0
    2.4440    5.2869    0.0000 H   0  0  0  0  0  0  0  0  0  0  0  0
    1.5970    5.0600    0.0000 H   0  0  0  0  0  0  0  0  0  0  0  0
    1.8240    4.2131    0.0000 H   0  0  0  0  0  0  0  0  0  0  0  0
    6.1350   -1.5600    0.0000 H   0  0  0  0  0  0  0  0  0  0  0  0
    4.7320   -2.3700    0.0000 H   0  0  0  0  0  0  0  0  0  0  0  0
  1  5  1  0  0  0  0
  1  6  2  0  0  0  0
  1  7  2  0  0  0  0
  1 23  1  0  0  0  0
  2 23  1  0  0  0  0
  3 23  1  0  0  0  0
  4 23  1  0  0  0  0
  5 20  1  0  0  0  0
  8 10  1  0  0  0  0
  8 13  1  0  0  0  0
  8 15  1  0  0  0  0
  9 10  1  0  0  0  0
  9 11  1  0  0  0  0
  9 14  1  1  0  0  0
  9 24  1  0  0  0  0
 10 25  1  0  0  0  0
 10 26  1  0  0  0  0
 11 12  1  0  0  0  0
 11 27  1  0  0  0  0
 11 28  1  0  0  0  0
 12 13  1  0  0  0  0
 12 29  1  0  0  0  0
 12 30  1  0  0  0  0
 13 31  1  0  0  0  0
 13 32  1  0  0  0  0
 14 17  2  0  0  0  0
 14 18  1  0  0  0  0
 15 16  1  0  0  0  0
 15 33  1  0  0  0  0
 15 34  1  0  0  0  0
 16 19  1  0  0  0  0
 16 35  1  0  0  0  0
 16 36  1  0  0  0  0
 17 20  1  0  0  0  0
 17 37  1  0  0  0  0
 18 21  2  0  0  0  0
 18 38  1  0  0  0  0
 19 39  1  0  0  0  0
 19 40  1  0  0  0  0
 19 41  1  0  0  0  0
 20 22  2  0  0  0  0
 21 22  1  0  0  0  0
 21 42  1  0  0  0  0
 22 43  1  0  0  0  0
M  END
> <PUBCHEM_COMPOUND_CID>
15654433

> <PUBCHEM_COMPOUND_CANONICALIZED>
1

> <PUBCHEM_CACTVS_COMPLEXITY>
475

> <PUBCHEM_CACTVS_HBOND_ACCEPTOR>
7

> <PUBCHEM_CACTVS_HBOND_DONOR>
0

> <PUBCHEM_CACTVS_ROTATABLE_BOND>
5

> <PUBCHEM_CACTVS_SUBSKEYS>
AAADceByMYBAAAAAAAAAAAAAAAAAAAAAAAA8QAAAAAAAAAABAAAAHwQAAAAADQTBmBQyBoMAAAKAAiBCAHACAAAgIAAIiAAOCIgIJiKAkROEMAAkwBGIiAeQ0PIOgAABAAAAAAAAAAIAAAAAAAAAAAAAAA==

> <PUBCHEM_IUPAC_OPENEYE_NAME>
[3-[(3S)-1-propyl-3-piperidyl]phenyl] trifluoromethanesulfonate

> <PUBCHEM_IUPAC_CAS_NAME>
trifluoromethanesulfonic acid [3-[(3S)-1-propyl-3-piperidinyl]phenyl] ester

> <PUBCHEM_IUPAC_NAME_MARKUP>
[3-[(3<I>S</I>)-1-propylpiperidin-3-yl]phenyl] trifluoromethanesulfonate

> <PUBCHEM_IUPAC_NAME>
[3-[(3S)-1-propylpiperidin-3-yl]phenyl] trifluoromethanesulfonate

> <PUBCHEM_IUPAC_SYSTEMATIC_NAME>
[3-[(3S)-1-propylpiperidin-3-yl]phenyl] tris(fluoranyl)methanesulfonate

> <PUBCHEM_IUPAC_TRADITIONAL_NAME>
trifluoromethanesulfonic acid [3-[(3S)-1-propyl-3-piperidyl]phenyl] ester

> <PUBCHEM_IUPAC_INCHI>
InChI=1S/C15H20F3NO3S/c1-2-8-19-9-4-6-13(11-19)12-5-3-7-14(10-12)22-23(20,21)15(16,17)18/h3,5,7,10,13H,2,4,6,8-9,11H2,1H3/t13-/m1/s1

> <PUBCHEM_IUPAC_INCHIKEY>
VUEGBGWRCATKQZ-CYBMUJFWSA-N

> <PUBCHEM_XLOGP3_AA>
4.1

> <PUBCHEM_EXACT_MASS>
351.11159916

> <PUBCHEM_MOLECULAR_FORMULA>
C15H20F3NO3S

> <PUBCHEM_MOLECULAR_WEIGHT>
351.4

> <PUBCHEM_OPENEYE_CAN_SMILES>
CCCN1CCCC(C1)C2=CC(=CC=C2)OS(=O)(=O)C(F)(F)F

> <PUBCHEM_OPENEYE_ISO_SMILES>
CCCN1CCC[C@H](C1)C2=CC(=CC=C2)OS(=O)(=O)C(F)(F)F

> <PUBCHEM_CACTVS_TPSA>
55

> <PUBCHEM_MONOISOTOPIC_WEIGHT>
351.11159916

> <PUBCHEM_TOTAL_CHARGE>
0

> <PUBCHEM_HEAVY_ATOM_COUNT>
23

> <PUBCHEM_ATOM_DEF_STEREO_COUNT>
1

> <PUBCHEM_ATOM_UDEF_STEREO_COUNT>
0

> <PUBCHEM_BOND_DEF_STEREO_COUNT>
0

> <PUBCHEM_BOND_UDEF_STEREO_COUNT>
0

> <PUBCHEM_ISOTOPIC_ATOM_COUNT>
0

> <PUBCHEM_COMPONENT_COUNT>
1

> <PUBCHEM_CACTVS_TAUTO_COUNT>
-1

> <PUBCHEM_COORDINATE_TYPE>
1
5
255

> <PUBCHEM_BONDANNOTATIONS>
14  17  8
14  18  8
17  20  8
18  21  8
20  22  8
21  22  8
9  14  5

$$$$
