10450082
  -OEChem-09292322032D

 48 52  0     0  0  0  0  0  0999 V2000
    7.6255    0.6552    0.0000 N   0  0  0  0  0  0  0  0  0  0  0  0
    9.5768    1.0936    0.0000 N   0  0  0  0  0  0  0  0  0  0  0  0
   11.2302    0.5775    0.0000 N   0  0  0  0  0  0  0  0  0  0  0  0
   10.8505    2.2674    0.0000 N   0  0  0  0  0  0  0  0  0  0  0  0
    8.3031   -0.0801    0.0000 C   0  0  0  0  0  0  0  0  0  0  0  0
    7.9235    1.6098    0.0000 C   0  0  0  0  0  0  0  0  0  0  0  0
    6.6498    0.4360    0.0000 C   0  0  0  0  0  0  0  0  0  0  0  0
    9.2788    0.1391    0.0000 C   0  0  0  0  0  0  0  0  0  0  0  0
    8.8991    1.8290    0.0000 C   0  0  0  0  0  0  0  0  0  0  0  0
    6.3518   -0.5186    0.0000 C   0  0  0  0  0  0  0  0  0  0  0  0
    5.3364   -0.7508    0.0000 C   0  0  0  0  0  0  0  0  0  0  0  0
    4.5274   -0.1630    0.0000 C   0  0  0  0  0  0  0  0  0  0  0  0
    5.0274   -1.7019    0.0000 C   0  0  0  0  0  0  0  0  0  0  0  0
    3.7183   -0.7508    0.0000 C   0  0  0  0  0  0  0  0  0  0  0  0
    4.0274   -1.7019    0.0000 C   0  0  0  0  0  0  0  0  0  0  0  0
    7.0547   -1.2872    0.0000 C   0  0  0  0  0  0  0  0  0  0  0  0
    5.7123   -2.4866    0.0000 C   0  0  0  0  0  0  0  0  0  0  0  0
   10.5525    1.3128    0.0000 C   0  0  0  0  0  0  0  0  0  0  0  0
    6.7328   -2.2779    0.0000 C   0  0  0  0  0  0  0  0  0  0  0  0
    2.7029   -0.5186    0.0000 C   0  0  0  0  0  0  0  0  0  0  0  0
    3.3424   -2.4866    0.0000 C   0  0  0  0  0  0  0  0  0  0  0  0
    2.0000   -1.2872    0.0000 C   0  0  0  0  0  0  0  0  0  0  0  0
    2.3219   -2.2779    0.0000 C   0  0  0  0  0  0  0  0  0  0  0  0
   12.2059    0.7967    0.0000 C   0  0  0  0  0  0  0  0  0  0  0  0
   11.8262    2.4866    0.0000 C   0  0  0  0  0  0  0  0  0  0  0  0
   12.5039    1.7512    0.0000 C   0  0  0  0  0  0  0  0  0  0  0  0
    7.7812   -0.4148    0.0000 H   0  0  0  0  0  0  0  0  0  0  0  0
    8.5420   -0.6523    0.0000 H   0  0  0  0  0  0  0  0  0  0  0  0
    7.8947    2.2291    0.0000 H   0  0  0  0  0  0  0  0  0  0  0  0
    7.3085    1.6890    0.0000 H   0  0  0  0  0  0  0  0  0  0  0  0
    6.6210    1.0553    0.0000 H   0  0  0  0  0  0  0  0  0  0  0  0
    6.0349    0.5152    0.0000 H   0  0  0  0  0  0  0  0  0  0  0  0
    9.3076   -0.4803    0.0000 H   0  0  0  0  0  0  0  0  0  0  0  0
    9.8937    0.0599    0.0000 H   0  0  0  0  0  0  0  0  0  0  0  0
    9.4211    2.1636    0.0000 H   0  0  0  0  0  0  0  0  0  0  0  0
    8.6602    2.4011    0.0000 H   0  0  0  0  0  0  0  0  0  0  0  0
    4.9422    0.2977    0.0000 H   0  0  0  0  0  0  0  0  0  0  0  0
    4.1125    0.2977    0.0000 H   0  0  0  0  0  0  0  0  0  0  0  0
    7.6607   -1.1560    0.0000 H   0  0  0  0  0  0  0  0  0  0  0  0
    5.5139   -3.0740    0.0000 H   0  0  0  0  0  0  0  0  0  0  0  0
    7.1459   -2.7402    0.0000 H   0  0  0  0  0  0  0  0  0  0  0  0
    2.5182    0.0733    0.0000 H   0  0  0  0  0  0  0  0  0  0  0  0
    3.5408   -3.0740    0.0000 H   0  0  0  0  0  0  0  0  0  0  0  0
    1.3940   -1.1560    0.0000 H   0  0  0  0  0  0  0  0  0  0  0  0
    1.9088   -2.7402    0.0000 H   0  0  0  0  0  0  0  0  0  0  0  0
   12.0109    3.0784    0.0000 H   0  0  0  0  0  0  0  0  0  0  0  0
   12.6260    0.3408    0.0000 H   0  0  0  0  0  0  0  0  0  0  0  0
   13.1088    1.8872    0.0000 H   0  0  0  0  0  0  0  0  0  0  0  0
  1  5  1  0  0  0  0
  1  6  1  0  0  0  0
  1  7  1  0  0  0  0
  2  8  1  0  0  0  0
  2  9  1  0  0  0  0
  2 18  1  0  0  0  0
  3 18  2  0  0  0  0
  3 24  1  0  0  0  0
  4 18  1  0  0  0  0
  4 25  2  0  0  0  0
  5  8  1  0  0  0  0
  5 27  1  0  0  0  0
  5 28  1  0  0  0  0
  6  9  1  0  0  0  0
  6 29  1  0  0  0  0
  6 30  1  0  0  0  0
  7 10  1  0  0  0  0
  7 31  1  0  0  0  0
  7 32  1  0  0  0  0
  8 33  1  0  0  0  0
  8 34  1  0  0  0  0
  9 35  1  0  0  0  0
  9 36  1  0  0  0  0
 10 11  2  0  0  0  0
 10 16  1  0  0  0  0
 11 12  1  0  0  0  0
 11 13  1  0  0  0  0
 12 14  1  0  0  0  0
 12 37  1  0  0  0  0
 12 38  1  0  0  0  0
 13 15  1  0  0  0  0
 13 17  2  0  0  0  0
 14 15  1  0  0  0  0
 14 20  2  0  0  0  0
 15 21  2  0  0  0  0
 16 19  2  0  0  0  0
 16 39  1  0  0  0  0
 17 19  1  0  0  0  0
 17 40  1  0  0  0  0
 19 41  1  0  0  0  0
 20 22  1  0  0  0  0
 20 42  1  0  0  0  0
 21 23  1  0  0  0  0
 21 43  1  0  0  0  0
 22 23  2  0  0  0  0
 22 44  1  0  0  0  0
 23 45  1  0  0  0  0
 24 26  2  0  0  0  0
 24 47  1  0  0  0  0
 25 26  1  0  0  0  0
 25 46  1  0  0  0  0
 26 48  1  0  0  0  0
M  END
> <PUBCHEM_COMPOUND_CID>
10450082

> <PUBCHEM_COMPOUND_CANONICALIZED>
1

> <PUBCHEM_CACTVS_COMPLEXITY>
455

> <PUBCHEM_CACTVS_HBOND_ACCEPTOR>
4

> <PUBCHEM_CACTVS_HBOND_DONOR>
0

> <PUBCHEM_CACTVS_ROTATABLE_BOND>
3

> <PUBCHEM_CACTVS_SUBSKEYS>
AAADceB7gAAAAAAAAAAAAAAAAAAAAYAAAAA8eIEAAAAAAGAB0AAAHAAAAAAADADBGgQ9kJcIEACgAjBnZACCgCkxAqAJ2CA4ZJiIaKLA2VGUJAhogALIiCcQgMAOgAACAAAQAAAAAAQAACAAAQAACAAAAA==

> <PUBCHEM_IUPAC_OPENEYE_NAME>
2-[4-(9H-fluoren-1-ylmethyl)piperazin-1-yl]pyrimidine

> <PUBCHEM_IUPAC_CAS_NAME>
2-[4-(9H-fluoren-1-ylmethyl)-1-piperazinyl]pyrimidine

> <PUBCHEM_IUPAC_NAME_MARKUP>
2-[4-(9<I>H</I>-fluoren-1-ylmethyl)piperazin-1-yl]pyrimidine

> <PUBCHEM_IUPAC_NAME>
2-[4-(9H-fluoren-1-ylmethyl)piperazin-1-yl]pyrimidine

> <PUBCHEM_IUPAC_SYSTEMATIC_NAME>
2-[4-(9H-fluoren-1-ylmethyl)piperazin-1-yl]pyrimidine

> <PUBCHEM_IUPAC_TRADITIONAL_NAME>
2-[4-(9H-fluoren-1-ylmethyl)piperazino]pyrimidine

> <PUBCHEM_IUPAC_INCHI>
InChI=1S/C22H22N4/c1-2-7-19-17(5-1)15-21-18(6-3-8-20(19)21)16-25-11-13-26(14-12-25)22-23-9-4-10-24-22/h1-10H,11-16H2

> <PUBCHEM_IUPAC_INCHIKEY>
SRKMMWQNEAUSLE-UHFFFAOYSA-N

> <PUBCHEM_XLOGP3_AA>
3.6

> <PUBCHEM_EXACT_MASS>
342.18444672

> <PUBCHEM_MOLECULAR_FORMULA>
C22H22N4

> <PUBCHEM_MOLECULAR_WEIGHT>
342.4

> <PUBCHEM_OPENEYE_CAN_SMILES>
C1CN(CCN1CC2=C3CC4=CC=CC=C4C3=CC=C2)C5=NC=CC=N5

> <PUBCHEM_OPENEYE_ISO_SMILES>
C1CN(CCN1CC2=C3CC4=CC=CC=C4C3=CC=C2)C5=NC=CC=N5

> <PUBCHEM_CACTVS_TPSA>
32.3

> <PUBCHEM_MONOISOTOPIC_WEIGHT>
342.18444672

> <PUBCHEM_TOTAL_CHARGE>
0

> <PUBCHEM_HEAVY_ATOM_COUNT>
26

> <PUBCHEM_ATOM_DEF_STEREO_COUNT>
0

> <PUBCHEM_ATOM_UDEF_STEREO_COUNT>
0

> <PUBCHEM_BOND_DEF_STEREO_COUNT>
0

> <PUBCHEM_BOND_UDEF_STEREO_COUNT>
0

> <PUBCHEM_ISOTOPIC_ATOM_COUNT>
0

> <PUBCHEM_COMPONENT_COUNT>
1

> <PUBCHEM_CACTVS_TAUTO_COUNT>
-1

> <PUBCHEM_COORDINATE_TYPE>
1
5
255

> <PUBCHEM_BONDANNOTATIONS>
10  11  8
10  16  8
11  13  8
13  17  8
14  15  8
14  20  8
15  21  8
16  19  8
17  19  8
20  22  8
21  23  8
22  23  8
24  26  8
25  26  8
3  18  8
3  24  8
4  18  8
4  25  8

$$$$
