86342194
  -OEChem-09292322382D

 68 73  0     0  0  0  0  0  0999 V2000
   16.7917   -0.1625    0.0000 S   0  0  0  0  0  0  0  0  0  0  0  0
    6.7619   -2.2606    0.0000 O   0  0  0  0  0  0  0  0  0  0  0  0
   12.2619    0.3375    0.0000 N   0  0  0  0  0  0  0  0  0  0  0  0
    6.7619   -0.5285    0.0000 N   0  0  0  0  0  0  0  0  0  0  0  0
   14.2619    0.3375    0.0000 N   0  0  0  0  0  0  0  0  0  0  0  0
   15.8455   -0.4672    0.0000 N   0  0  0  0  0  0  0  0  0  0  0  0
    4.6783   -2.1993    0.0000 N   0  0  0  0  0  0  0  0  0  0  0  0
    9.7619   -0.5285    0.0000 C   0  0  0  0  0  0  0  0  0  0  0  0
    9.2619   -1.3945    0.0000 C   0  0  0  0  0  0  0  0  0  0  0  0
    9.2619    0.3375    0.0000 C   0  0  0  0  0  0  0  0  0  0  0  0
    7.7619   -0.5285    0.0000 C   0  0  0  0  0  0  0  0  0  0  0  0
    8.2619   -1.3945    0.0000 C   0  0  0  0  0  0  0  0  0  0  0  0
    8.2619    0.3375    0.0000 C   0  0  0  0  0  0  0  0  0  0  0  0
   10.7619   -0.5285    0.0000 C   0  0  0  0  0  0  0  0  0  0  0  0
   11.2619    0.3375    0.0000 C   0  0  0  0  0  0  0  0  0  0  0  0
   12.7619    1.2035    0.0000 C   0  0  0  0  0  0  0  0  0  0  0  0
   12.7619   -0.5285    0.0000 C   0  0  0  0  0  0  0  0  0  0  0  0
   13.7619    1.2035    0.0000 C   0  0  0  0  0  0  0  0  0  0  0  0
   13.7619   -0.5285    0.0000 C   0  0  0  0  0  0  0  0  0  0  0  0
    6.2619   -1.3945    0.0000 C   0  0  0  0  0  0  0  0  0  0  0  0
   15.2619    0.3375    0.0000 C   0  0  0  0  0  0  0  0  0  0  0  0
    5.2619   -1.3945    0.0000 C   0  0  0  0  0  0  0  0  0  0  0  0
   15.8455    1.1422    0.0000 C   0  0  0  0  0  0  0  0  0  0  0  0
   16.7960    0.8316    0.0000 C   0  0  0  0  0  0  0  0  0  0  0  0
    4.6783   -0.5898    0.0000 C   0  0  0  0  0  0  0  0  0  0  0  0
    3.7320   -1.8945    0.0000 C   0  0  0  0  0  0  0  0  0  0  0  0
    3.7320   -0.8945    0.0000 C   0  0  0  0  0  0  0  0  0  0  0  0
   15.6393    2.1208    0.0000 C   0  0  0  0  0  0  0  0  0  0  0  0
   17.5403    1.4994    0.0000 C   0  0  0  0  0  0  0  0  0  0  0  0
   16.3836    2.7886    0.0000 C   0  0  0  0  0  0  0  0  0  0  0  0
    2.8660   -2.3945    0.0000 C   0  0  0  0  0  0  0  0  0  0  0  0
    2.8660   -0.3945    0.0000 C   0  0  0  0  0  0  0  0  0  0  0  0
   17.3341    2.4779    0.0000 C   0  0  0  0  0  0  0  0  0  0  0  0
    2.0000   -1.8945    0.0000 C   0  0  0  0  0  0  0  0  0  0  0  0
    2.0000   -0.8945    0.0000 C   0  0  0  0  0  0  0  0  0  0  0  0
   10.0719    0.0084    0.0000 H   0  0  0  0  0  0  0  0  0  0  0  0
    9.1542   -2.0051    0.0000 H   0  0  0  0  0  0  0  0  0  0  0  0
    9.8445   -1.6066    0.0000 H   0  0  0  0  0  0  0  0  0  0  0  0
    9.8445    0.5496    0.0000 H   0  0  0  0  0  0  0  0  0  0  0  0
    9.1542    0.9481    0.0000 H   0  0  0  0  0  0  0  0  0  0  0  0
    7.4519    0.0084    0.0000 H   0  0  0  0  0  0  0  0  0  0  0  0
    7.6793   -1.6066    0.0000 H   0  0  0  0  0  0  0  0  0  0  0  0
    8.3695   -2.0051    0.0000 H   0  0  0  0  0  0  0  0  0  0  0  0
    8.3695    0.9481    0.0000 H   0  0  0  0  0  0  0  0  0  0  0  0
    7.6793    0.5496    0.0000 H   0  0  0  0  0  0  0  0  0  0  0  0
   10.6542   -1.1391    0.0000 H   0  0  0  0  0  0  0  0  0  0  0  0
   11.3445   -0.7406    0.0000 H   0  0  0  0  0  0  0  0  0  0  0  0
   11.3695    0.9481    0.0000 H   0  0  0  0  0  0  0  0  0  0  0  0
   10.6793    0.5496    0.0000 H   0  0  0  0  0  0  0  0  0  0  0  0
   12.8695    1.8141    0.0000 H   0  0  0  0  0  0  0  0  0  0  0  0
   12.1793    1.4156    0.0000 H   0  0  0  0  0  0  0  0  0  0  0  0
   12.1793   -0.7406    0.0000 H   0  0  0  0  0  0  0  0  0  0  0  0
   12.8695   -1.1391    0.0000 H   0  0  0  0  0  0  0  0  0  0  0  0
    6.4519    0.0084    0.0000 H   0  0  0  0  0  0  0  0  0  0  0  0
   14.3445    1.4156    0.0000 H   0  0  0  0  0  0  0  0  0  0  0  0
   13.6542    1.8141    0.0000 H   0  0  0  0  0  0  0  0  0  0  0  0
   13.6542   -1.1391    0.0000 H   0  0  0  0  0  0  0  0  0  0  0  0
   14.3445   -0.7406    0.0000 H   0  0  0  0  0  0  0  0  0  0  0  0
    4.8709   -2.7886    0.0000 H   0  0  0  0  0  0  0  0  0  0  0  0
    4.8709   -0.0005    0.0000 H   0  0  0  0  0  0  0  0  0  0  0  0
   15.0499    2.3134    0.0000 H   0  0  0  0  0  0  0  0  0  0  0  0
   18.1296    1.3068    0.0000 H   0  0  0  0  0  0  0  0  0  0  0  0
   16.2557    3.3953    0.0000 H   0  0  0  0  0  0  0  0  0  0  0  0
    2.8660   -3.0145    0.0000 H   0  0  0  0  0  0  0  0  0  0  0  0
    2.8660    0.2255    0.0000 H   0  0  0  0  0  0  0  0  0  0  0  0
   17.7956    2.8920    0.0000 H   0  0  0  0  0  0  0  0  0  0  0  0
    1.4631   -2.2045    0.0000 H   0  0  0  0  0  0  0  0  0  0  0  0
    1.4631   -0.5845    0.0000 H   0  0  0  0  0  0  0  0  0  0  0  0
  1  6  1  0  0  0  0
  1 24  1  0  0  0  0
  2 20  2  0  0  0  0
  3 15  1  0  0  0  0
  3 16  1  0  0  0  0
  3 17  1  0  0  0  0
  4 11  1  0  0  0  0
  4 20  1  0  0  0  0
  4 54  1  0  0  0  0
  5 18  1  0  0  0  0
  5 19  1  0  0  0  0
  5 21  1  0  0  0  0
  6 21  2  0  0  0  0
  7 22  1  0  0  0  0
  7 26  1  0  0  0  0
  7 59  1  0  0  0  0
  8  9  1  0  0  0  0
  8 10  1  0  0  0  0
  8 14  1  0  0  0  0
  8 36  1  0  0  0  0
  9 12  1  0  0  0  0
  9 37  1  0  0  0  0
  9 38  1  0  0  0  0
 10 13  1  0  0  0  0
 10 39  1  0  0  0  0
 10 40  1  0  0  0  0
 11 12  1  0  0  0  0
 11 13  1  0  0  0  0
 11 41  1  0  0  0  0
 12 42  1  0  0  0  0
 12 43  1  0  0  0  0
 13 44  1  0  0  0  0
 13 45  1  0  0  0  0
 14 15  1  0  0  0  0
 14 46  1  0  0  0  0
 14 47  1  0  0  0  0
 15 48  1  0  0  0  0
 15 49  1  0  0  0  0
 16 18  1  0  0  0  0
 16 50  1  0  0  0  0
 16 51  1  0  0  0  0
 17 19  1  0  0  0  0
 17 52  1  0  0  0  0
 17 53  1  0  0  0  0
 18 55  1  0  0  0  0
 18 56  1  0  0  0  0
 19 57  1  0  0  0  0
 19 58  1  0  0  0  0
 20 22  1  0  0  0  0
 21 23  1  0  0  0  0
 22 25  2  0  0  0  0
 23 24  1  0  0  0  0
 23 28  2  0  0  0  0
 24 29  2  0  0  0  0
 25 27  1  0  0  0  0
 25 60  1  0  0  0  0
 26 27  1  0  0  0  0
 26 31  2  0  0  0  0
 27 32  2  0  0  0  0
 28 30  1  0  0  0  0
 28 61  1  0  0  0  0
 29 33  1  0  0  0  0
 29 62  1  0  0  0  0
 30 33  2  0  0  0  0
 30 63  1  0  0  0  0
 31 34  1  0  0  0  0
 31 64  1  0  0  0  0
 32 35  1  0  0  0  0
 32 65  1  0  0  0  0
 33 66  1  0  0  0  0
 34 35  2  0  0  0  0
 34 67  1  0  0  0  0
 35 68  1  0  0  0  0
M  END
> <PUBCHEM_COMPOUND_CID>
86342194

> <PUBCHEM_COMPOUND_CANONICALIZED>
1

> <PUBCHEM_CACTVS_COMPLEXITY>
708

> <PUBCHEM_CACTVS_HBOND_ACCEPTOR>
5

> <PUBCHEM_CACTVS_HBOND_DONOR>
2

> <PUBCHEM_CACTVS_ROTATABLE_BOND>
6

> <PUBCHEM_CACTVS_SUBSKEYS>
AAADcfB7oABAAAAAAAAAAAAAAAAAAWLAAAA8YMEAAAAAAFgB/gAAHgQQQAAADSjB3gQx8fPJkACsAydydACDgDAnAiBJmbm4ZNiIYPLAnbGUIQxglgLIyYcYiYCeAAAAAAAGAAAQAAAAAAwAAAAAAAAAAA==

> <PUBCHEM_IUPAC_OPENEYE_NAME>
N-[4-[2-[4-(1,2-benzothiazol-3-yl)piperazin-1-yl]ethyl]cyclohexyl]-1H-indole-2-carboxamide

> <PUBCHEM_IUPAC_CAS_NAME>
N-[4-[2-[4-(1,2-benzothiazol-3-yl)-1-piperazinyl]ethyl]cyclohexyl]-1H-indole-2-carboxamide

> <PUBCHEM_IUPAC_NAME_MARKUP>
<I>N</I>-[4-[2-[4-(1,2-benzothiazol-3-yl)piperazin-1-yl]ethyl]cyclohexyl]-1<I>H</I>-indole-2-carboxamide

> <PUBCHEM_IUPAC_NAME>
N-[4-[2-[4-(1,2-benzothiazol-3-yl)piperazin-1-yl]ethyl]cyclohexyl]-1H-indole-2-carboxamide

> <PUBCHEM_IUPAC_SYSTEMATIC_NAME>
N-[4-[2-[4-(1,2-benzothiazol-3-yl)piperazin-1-yl]ethyl]cyclohexyl]-1H-indole-2-carboxamide

> <PUBCHEM_IUPAC_TRADITIONAL_NAME>
N-[4-[2-[4-(1,2-benzothiazol-3-yl)piperazino]ethyl]cyclohexyl]-1H-indole-2-carboxamide

> <PUBCHEM_IUPAC_INCHI>
InChI=1S/C28H33N5OS/c34-28(25-19-21-5-1-3-7-24(21)30-25)29-22-11-9-20(10-12-22)13-14-32-15-17-33(18-16-32)27-23-6-2-4-8-26(23)35-31-27/h1-8,19-20,22,30H,9-18H2,(H,29,34)

> <PUBCHEM_IUPAC_INCHIKEY>
KXAOPEMSBPZNPQ-UHFFFAOYSA-N

> <PUBCHEM_XLOGP3_AA>
5.9

> <PUBCHEM_EXACT_MASS>
487.24058187

> <PUBCHEM_MOLECULAR_FORMULA>
C28H33N5OS

> <PUBCHEM_MOLECULAR_WEIGHT>
487.7

> <PUBCHEM_OPENEYE_CAN_SMILES>
C1CC(CCC1CCN2CCN(CC2)C3=NSC4=CC=CC=C43)NC(=O)C5=CC6=CC=CC=C6N5

> <PUBCHEM_OPENEYE_ISO_SMILES>
C1CC(CCC1CCN2CCN(CC2)C3=NSC4=CC=CC=C43)NC(=O)C5=CC6=CC=CC=C6N5

> <PUBCHEM_CACTVS_TPSA>
92.5

> <PUBCHEM_MONOISOTOPIC_WEIGHT>
487.24058187

> <PUBCHEM_TOTAL_CHARGE>
0

> <PUBCHEM_HEAVY_ATOM_COUNT>
35

> <PUBCHEM_ATOM_DEF_STEREO_COUNT>
0

> <PUBCHEM_ATOM_UDEF_STEREO_COUNT>
0

> <PUBCHEM_BOND_DEF_STEREO_COUNT>
0

> <PUBCHEM_BOND_UDEF_STEREO_COUNT>
0

> <PUBCHEM_ISOTOPIC_ATOM_COUNT>
0

> <PUBCHEM_COMPONENT_COUNT>
1

> <PUBCHEM_CACTVS_TAUTO_COUNT>
-1

> <PUBCHEM_COORDINATE_TYPE>
1
5
255

> <PUBCHEM_BONDANNOTATIONS>
1  24  8
1  6  8
21  23  8
22  25  8
23  24  8
23  28  8
24  29  8
25  27  8
26  27  8
26  31  8
27  32  8
28  30  8
29  33  8
30  33  8
31  34  8
32  35  8
34  35  8
6  21  8
7  22  8
7  26  8

$$$$
