118731510
  -OEChem-09292322352D

 68 72  0     0  0  0  0  0  0999 V2000
    4.8959    3.6563    0.0000 O   0  0  0  0  0  0  0  0  0  0  0  0
    3.2496    4.1944    0.0000 O   0  0  0  0  0  0  0  0  0  0  0  0
    5.6103    0.2666    0.0000 N   0  0  0  0  0  0  0  0  0  0  0  0
    4.6783   -4.1944    0.0000 N   0  0  0  0  0  0  0  0  0  0  0  0
    2.8924    5.8892    0.0000 N   0  0  0  0  0  0  0  0  0  0  0  0
    4.9889   -1.6344    0.0000 C   0  0  0  0  0  0  0  0  0  0  0  0
    4.3211   -0.8901    0.0000 C   0  0  0  0  0  0  0  0  0  0  0  0
    5.9674   -1.4282    0.0000 C   0  0  0  0  0  0  0  0  0  0  0  0
    4.6318    0.0604    0.0000 C   0  0  0  0  0  0  0  0  0  0  0  0
    6.2781   -0.4777    0.0000 C   0  0  0  0  0  0  0  0  0  0  0  0
    4.6783   -2.5849    0.0000 C   0  0  0  0  0  0  0  0  0  0  0  0
    5.9209    1.2172    0.0000 C   0  0  0  0  0  0  0  0  0  0  0  0
    3.7320   -2.8896    0.0000 C   0  0  0  0  0  0  0  0  0  0  0  0
    5.2619   -3.3896    0.0000 C   0  0  0  0  0  0  0  0  0  0  0  0
    3.7320   -3.8896    0.0000 C   0  0  0  0  0  0  0  0  0  0  0  0
    5.2531    1.9615    0.0000 C   0  0  0  0  0  0  0  0  0  0  0  0
    2.8660   -2.3896    0.0000 C   0  0  0  0  0  0  0  0  0  0  0  0
    4.9889   -5.1449    0.0000 C   0  0  0  0  0  0  0  0  0  0  0  0
    2.8660   -4.3896    0.0000 C   0  0  0  0  0  0  0  0  0  0  0  0
    5.5637    2.9120    0.0000 C   0  0  0  0  0  0  0  0  0  0  0  0
    2.0000   -2.8896    0.0000 C   0  0  0  0  0  0  0  0  0  0  0  0
    2.0000   -3.8896    0.0000 C   0  0  0  0  0  0  0  0  0  0  0  0
    5.9674   -5.3511    0.0000 C   0  0  0  0  0  0  0  0  0  0  0  0
    6.2781   -6.3016    0.0000 C   0  0  0  0  0  0  0  0  0  0  0  0
    6.6353   -4.6068    0.0000 C   0  0  0  0  0  0  0  0  0  0  0  0
    5.2066    4.6068    0.0000 C   0  0  0  0  0  0  0  0  0  0  0  0
    7.2566   -6.5078    0.0000 C   0  0  0  0  0  0  0  0  0  0  0  0
    7.6138   -4.8130    0.0000 C   0  0  0  0  0  0  0  0  0  0  0  0
    7.9244   -5.7636    0.0000 C   0  0  0  0  0  0  0  0  0  0  0  0
    4.5387    5.3511    0.0000 C   0  0  0  0  0  0  0  0  0  0  0  0
    6.1851    4.8130    0.0000 C   0  0  0  0  0  0  0  0  0  0  0  0
    4.8494    6.3016    0.0000 C   0  0  0  0  0  0  0  0  0  0  0  0
    6.4957    5.7636    0.0000 C   0  0  0  0  0  0  0  0  0  0  0  0
    3.5602    5.1449    0.0000 C   0  0  0  0  0  0  0  0  0  0  0  0
    5.8279    6.5078    0.0000 C   0  0  0  0  0  0  0  0  0  0  0  0
    5.4030   -2.0959    0.0000 H   0  0  0  0  0  0  0  0  0  0  0  0
    3.7742   -0.5981    0.0000 H   0  0  0  0  0  0  0  0  0  0  0  0
    3.9385   -1.3780    0.0000 H   0  0  0  0  0  0  0  0  0  0  0  0
    5.9880   -2.0478    0.0000 H   0  0  0  0  0  0  0  0  0  0  0  0
    6.5812   -1.5155    0.0000 H   0  0  0  0  0  0  0  0  0  0  0  0
    4.6112    0.6801    0.0000 H   0  0  0  0  0  0  0  0  0  0  0  0
    4.0179    0.1478    0.0000 H   0  0  0  0  0  0  0  0  0  0  0  0
    6.8250   -0.7697    0.0000 H   0  0  0  0  0  0  0  0  0  0  0  0
    6.6607    0.0103    0.0000 H   0  0  0  0  0  0  0  0  0  0  0  0
    6.4678    0.9252    0.0000 H   0  0  0  0  0  0  0  0  0  0  0  0
    6.3035    1.7051    0.0000 H   0  0  0  0  0  0  0  0  0  0  0  0
    5.8819   -3.3896    0.0000 H   0  0  0  0  0  0  0  0  0  0  0  0
    4.7062    2.2535    0.0000 H   0  0  0  0  0  0  0  0  0  0  0  0
    4.8705    1.4736    0.0000 H   0  0  0  0  0  0  0  0  0  0  0  0
    2.8660   -1.7696    0.0000 H   0  0  0  0  0  0  0  0  0  0  0  0
    4.3751   -5.2322    0.0000 H   0  0  0  0  0  0  0  0  0  0  0  0
    4.9684   -5.7646    0.0000 H   0  0  0  0  0  0  0  0  0  0  0  0
    2.8660   -5.0096    0.0000 H   0  0  0  0  0  0  0  0  0  0  0  0
    6.1107    2.6200    0.0000 H   0  0  0  0  0  0  0  0  0  0  0  0
    5.9463    3.3999    0.0000 H   0  0  0  0  0  0  0  0  0  0  0  0
    1.4631   -2.5796    0.0000 H   0  0  0  0  0  0  0  0  0  0  0  0
    1.4631   -4.1996    0.0000 H   0  0  0  0  0  0  0  0  0  0  0  0
    5.8640   -6.7631    0.0000 H   0  0  0  0  0  0  0  0  0  0  0  0
    6.4427   -4.0175    0.0000 H   0  0  0  0  0  0  0  0  0  0  0  0
    7.4492   -7.0972    0.0000 H   0  0  0  0  0  0  0  0  0  0  0  0
    8.0279   -4.3516    0.0000 H   0  0  0  0  0  0  0  0  0  0  0  0
    8.5311   -5.8914    0.0000 H   0  0  0  0  0  0  0  0  0  0  0  0
    6.5991    4.3516    0.0000 H   0  0  0  0  0  0  0  0  0  0  0  0
    4.4353    6.7631    0.0000 H   0  0  0  0  0  0  0  0  0  0  0  0
    7.1024    5.8914    0.0000 H   0  0  0  0  0  0  0  0  0  0  0  0
    6.0205    7.0972    0.0000 H   0  0  0  0  0  0  0  0  0  0  0  0
    2.2857    5.7613    0.0000 H   0  0  0  0  0  0  0  0  0  0  0  0
    3.0850    6.4785    0.0000 H   0  0  0  0  0  0  0  0  0  0  0  0
  1 20  1  0  0  0  0
  1 26  1  0  0  0  0
  2 34  2  0  0  0  0
  3  9  1  0  0  0  0
  3 10  1  0  0  0  0
  3 12  1  0  0  0  0
  4 14  1  0  0  0  0
  4 15  1  0  0  0  0
  4 18  1  0  0  0  0
  5 34  1  0  0  0  0
  5 67  1  0  0  0  0
  5 68  1  0  0  0  0
  6  7  1  0  0  0  0
  6  8  1  0  0  0  0
  6 11  1  0  0  0  0
  6 36  1  0  0  0  0
  7  9  1  0  0  0  0
  7 37  1  0  0  0  0
  7 38  1  0  0  0  0
  8 10  1  0  0  0  0
  8 39  1  0  0  0  0
  8 40  1  0  0  0  0
  9 41  1  0  0  0  0
  9 42  1  0  0  0  0
 10 43  1  0  0  0  0
 10 44  1  0  0  0  0
 11 13  1  0  0  0  0
 11 14  2  0  0  0  0
 12 16  1  0  0  0  0
 12 45  1  0  0  0  0
 12 46  1  0  0  0  0
 13 15  1  0  0  0  0
 13 17  2  0  0  0  0
 14 47  1  0  0  0  0
 15 19  2  0  0  0  0
 16 20  1  0  0  0  0
 16 48  1  0  0  0  0
 16 49  1  0  0  0  0
 17 21  1  0  0  0  0
 17 50  1  0  0  0  0
 18 23  1  0  0  0  0
 18 51  1  0  0  0  0
 18 52  1  0  0  0  0
 19 22  1  0  0  0  0
 19 53  1  0  0  0  0
 20 54  1  0  0  0  0
 20 55  1  0  0  0  0
 21 22  2  0  0  0  0
 21 56  1  0  0  0  0
 22 57  1  0  0  0  0
 23 24  2  0  0  0  0
 23 25  1  0  0  0  0
 24 27  1  0  0  0  0
 24 58  1  0  0  0  0
 25 28  2  0  0  0  0
 25 59  1  0  0  0  0
 26 30  1  0  0  0  0
 26 31  2  0  0  0  0
 27 29  2  0  0  0  0
 27 60  1  0  0  0  0
 28 29  1  0  0  0  0
 28 61  1  0  0  0  0
 29 62  1  0  0  0  0
 30 32  2  0  0  0  0
 30 34  1  0  0  0  0
 31 33  1  0  0  0  0
 31 63  1  0  0  0  0
 32 35  1  0  0  0  0
 32 64  1  0  0  0  0
 33 35  2  0  0  0  0
 33 65  1  0  0  0  0
 35 66  1  0  0  0  0
M  END
> <PUBCHEM_COMPOUND_CID>
118731510

> <PUBCHEM_COMPOUND_CANONICALIZED>
1

> <PUBCHEM_CACTVS_COMPLEXITY>
658

> <PUBCHEM_CACTVS_HBOND_ACCEPTOR>
3

> <PUBCHEM_CACTVS_HBOND_DONOR>
1

> <PUBCHEM_CACTVS_ROTATABLE_BOND>
9

> <PUBCHEM_CACTVS_SUBSKEYS>
AAADcfB7MAAAAAAAAAAAAAAAAAAAAWAAAAA8YMEAAAAAAFgB9AAAHgAQAAAADQzhngY8xvNMFACoAzV3VACCiCA1IiAI2CE+bNgMJvbEtZuGOWjm4BHI6YeYyOCOgAAAAAAKAAAAAAAAABQAAAAAAAAAAA==

> <PUBCHEM_IUPAC_OPENEYE_NAME>
2-[3-[4-(1-benzylindol-3-yl)-1-piperidyl]propoxy]benzamide

> <PUBCHEM_IUPAC_CAS_NAME>
2-[3-[4-[1-(phenylmethyl)-3-indolyl]-1-piperidinyl]propoxy]benzamide

> <PUBCHEM_IUPAC_NAME_MARKUP>
2-[3-[4-(1-benzylindol-3-yl)piperidin-1-yl]propoxy]benzamide

> <PUBCHEM_IUPAC_NAME>
2-[3-[4-(1-benzylindol-3-yl)piperidin-1-yl]propoxy]benzamide

> <PUBCHEM_IUPAC_SYSTEMATIC_NAME>
2-[3-[4-[1-(phenylmethyl)indol-3-yl]piperidin-1-yl]propoxy]benzamide

> <PUBCHEM_IUPAC_TRADITIONAL_NAME>
2-[3-[4-(1-benzylindol-3-yl)piperidino]propoxy]benzamide

> <PUBCHEM_IUPAC_INCHI>
InChI=1S/C30H33N3O2/c31-30(34)26-12-5-7-14-29(26)35-20-8-17-32-18-15-24(16-19-32)27-22-33(21-23-9-2-1-3-10-23)28-13-6-4-11-25(27)28/h1-7,9-14,22,24H,8,15-21H2,(H2,31,34)

> <PUBCHEM_IUPAC_INCHIKEY>
SJIGBFSVBCOEAP-UHFFFAOYSA-N

> <PUBCHEM_XLOGP3_AA>
5.1

> <PUBCHEM_EXACT_MASS>
467.25727730

> <PUBCHEM_MOLECULAR_FORMULA>
C30H33N3O2

> <PUBCHEM_MOLECULAR_WEIGHT>
467.6

> <PUBCHEM_OPENEYE_CAN_SMILES>
C1CN(CCC1C2=CN(C3=CC=CC=C32)CC4=CC=CC=C4)CCCOC5=CC=CC=C5C(=O)N

> <PUBCHEM_OPENEYE_ISO_SMILES>
C1CN(CCC1C2=CN(C3=CC=CC=C32)CC4=CC=CC=C4)CCCOC5=CC=CC=C5C(=O)N

> <PUBCHEM_CACTVS_TPSA>
60.5

> <PUBCHEM_MONOISOTOPIC_WEIGHT>
467.25727730

> <PUBCHEM_TOTAL_CHARGE>
0

> <PUBCHEM_HEAVY_ATOM_COUNT>
35

> <PUBCHEM_ATOM_DEF_STEREO_COUNT>
0

> <PUBCHEM_ATOM_UDEF_STEREO_COUNT>
0

> <PUBCHEM_BOND_DEF_STEREO_COUNT>
0

> <PUBCHEM_BOND_UDEF_STEREO_COUNT>
0

> <PUBCHEM_ISOTOPIC_ATOM_COUNT>
0

> <PUBCHEM_COMPONENT_COUNT>
1

> <PUBCHEM_CACTVS_TAUTO_COUNT>
-1

> <PUBCHEM_COORDINATE_TYPE>
1
5
255

> <PUBCHEM_BONDANNOTATIONS>
11  13  8
11  14  8
13  15  8
13  17  8
15  19  8
17  21  8
19  22  8
21  22  8
23  24  8
23  25  8
24  27  8
25  28  8
26  30  8
26  31  8
27  29  8
28  29  8
30  32  8
31  33  8
32  35  8
33  35  8
4  14  8
4  15  8

$$$$
