44404450
  -OEChem-09292322262D

 56 60  0     1  0  0  0  0  0999 V2000
    4.9556   -4.6341    0.0000 S   0  0  0  0  0  0  0  0  0  0  0  0
    3.4702    4.4583    0.0000 F   0  0  0  0  0  0  0  0  0  0  0  0
    8.7323    2.4342    0.0000 O   0  0  0  0  0  0  0  0  0  0  0  0
    5.5555   -5.4342    0.0000 O   0  0  0  0  0  0  0  0  0  0  0  0
    4.4033   -0.1103    0.0000 N   0  0  0  0  0  0  0  0  0  0  0  0
    4.4264   -2.1102    0.0000 N   0  0  0  0  0  0  0  0  0  0  0  0
    7.0003    2.4342    0.0000 N   0  0  0  0  0  0  0  0  0  0  0  0
    5.2494   -3.6844    0.0000 N   0  0  0  0  0  0  0  0  0  0  0  0
    3.5431   -0.6203    0.0000 C   0  0  0  0  0  0  0  0  0  0  0  0
    5.2750   -0.6003    0.0000 C   0  0  0  0  0  0  0  0  0  0  0  0
    3.5546   -1.6202    0.0000 C   0  0  0  0  0  0  0  0  0  0  0  0
    5.2866   -1.6002    0.0000 C   0  0  0  0  0  0  0  0  0  0  0  0
    4.3917    0.8896    0.0000 C   0  0  0  0  0  0  0  0  0  0  0  0
    5.2519    1.3996    0.0000 C   0  0  0  0  0  0  0  0  0  0  0  0
    5.2403    2.3995    0.0000 C   0  0  0  0  0  0  0  0  0  0  0  0
    7.0003    4.4342    0.0000 C   0  0  3  0  0  0  0  0  0  0  0  0
    6.1343    2.9342    0.0000 C   0  0  0  0  0  0  0  0  0  0  0  0
    6.1343    3.9342    0.0000 C   0  0  0  0  0  0  0  0  0  0  0  0
    4.4380   -3.1101    0.0000 C   0  0  0  0  0  0  0  0  0  0  0  0
    7.8663    3.9342    0.0000 C   0  0  0  0  0  0  0  0  0  0  0  0
    4.3342    2.9134    0.0000 C   0  0  0  0  0  0  0  0  0  0  0  0
    3.6400   -3.7030    0.0000 C   0  0  0  0  0  0  0  0  0  0  0  0
    5.2403    4.4688    0.0000 C   0  0  0  0  0  0  0  0  0  0  0  0
    7.8663    2.9342    0.0000 C   0  0  0  0  0  0  0  0  0  0  0  0
    7.0003    5.4342    0.0000 C   0  0  0  0  0  0  0  0  0  0  0  0
    4.3342    3.9550    0.0000 C   0  0  0  0  0  0  0  0  0  0  0  0
    3.9616   -4.6499    0.0000 C   0  0  0  0  0  0  0  0  0  0  0  0
    2.6592   -3.5081    0.0000 C   0  0  0  0  0  0  0  0  0  0  0  0
    3.3025   -5.4018    0.0000 C   0  0  0  0  0  0  0  0  0  0  0  0
    2.0000   -4.2601    0.0000 C   0  0  0  0  0  0  0  0  0  0  0  0
    2.3216   -5.2070    0.0000 C   0  0  0  0  0  0  0  0  0  0  0  0
    3.3243   -0.0402    0.0000 H   0  0  0  0  0  0  0  0  0  0  0  0
    2.9338   -0.7350    0.0000 H   0  0  0  0  0  0  0  0  0  0  0  0
    5.8868   -0.7009    0.0000 H   0  0  0  0  0  0  0  0  0  0  0  0
    5.4803   -0.0153    0.0000 H   0  0  0  0  0  0  0  0  0  0  0  0
    2.9428   -1.5196    0.0000 H   0  0  0  0  0  0  0  0  0  0  0  0
    3.3493   -2.2053    0.0000 H   0  0  0  0  0  0  0  0  0  0  0  0
    5.5054   -2.1803    0.0000 H   0  0  0  0  0  0  0  0  0  0  0  0
    5.8959   -1.4855    0.0000 H   0  0  0  0  0  0  0  0  0  0  0  0
    4.1729    1.4697    0.0000 H   0  0  0  0  0  0  0  0  0  0  0  0
    3.7824    0.7749    0.0000 H   0  0  0  0  0  0  0  0  0  0  0  0
    5.4707    0.8195    0.0000 H   0  0  0  0  0  0  0  0  0  0  0  0
    5.8612    1.5143    0.0000 H   0  0  0  0  0  0  0  0  0  0  0  0
    7.5372    4.7442    0.0000 H   0  0  0  0  0  0  0  0  0  0  0  0
    8.4769    3.8265    0.0000 H   0  0  0  0  0  0  0  0  0  0  0  0
    8.0784    4.5168    0.0000 H   0  0  0  0  0  0  0  0  0  0  0  0
    7.0003    1.8142    0.0000 H   0  0  0  0  0  0  0  0  0  0  0  0
    3.7985    2.6013    0.0000 H   0  0  0  0  0  0  0  0  0  0  0  0
    5.2475    5.0888    0.0000 H   0  0  0  0  0  0  0  0  0  0  0  0
    7.6203    5.4342    0.0000 H   0  0  0  0  0  0  0  0  0  0  0  0
    7.0003    6.0542    0.0000 H   0  0  0  0  0  0  0  0  0  0  0  0
    6.3803    5.4342    0.0000 H   0  0  0  0  0  0  0  0  0  0  0  0
    2.4598   -2.9211    0.0000 H   0  0  0  0  0  0  0  0  0  0  0  0
    3.5019   -5.9889    0.0000 H   0  0  0  0  0  0  0  0  0  0  0  0
    1.3919   -4.1393    0.0000 H   0  0  0  0  0  0  0  0  0  0  0  0
    1.9129   -5.6732    0.0000 H   0  0  0  0  0  0  0  0  0  0  0  0
  1  4  2  0  0  0  0
  1  8  1  0  0  0  0
  1 27  1  0  0  0  0
  2 26  1  0  0  0  0
  3 24  2  0  0  0  0
  5  9  1  0  0  0  0
  5 10  1  0  0  0  0
  5 13  1  0  0  0  0
  6 11  1  0  0  0  0
  6 12  1  0  0  0  0
  6 19  1  0  0  0  0
  7 17  1  0  0  0  0
  7 24  1  0  0  0  0
  7 47  1  0  0  0  0
  8 19  2  0  0  0  0
  9 11  1  0  0  0  0
  9 32  1  0  0  0  0
  9 33  1  0  0  0  0
 10 12  1  0  0  0  0
 10 34  1  0  0  0  0
 10 35  1  0  0  0  0
 11 36  1  0  0  0  0
 11 37  1  0  0  0  0
 12 38  1  0  0  0  0
 12 39  1  0  0  0  0
 13 14  1  0  0  0  0
 13 40  1  0  0  0  0
 13 41  1  0  0  0  0
 14 15  1  0  0  0  0
 14 42  1  0  0  0  0
 14 43  1  0  0  0  0
 15 17  2  0  0  0  0
 15 21  1  0  0  0  0
 16 18  1  0  0  0  0
 16 20  1  0  0  0  0
 16 25  1  0  0  0  0
 16 44  1  0  0  0  0
 17 18  1  0  0  0  0
 18 23  2  0  0  0  0
 19 22  1  0  0  0  0
 20 24  1  0  0  0  0
 20 45  1  0  0  0  0
 20 46  1  0  0  0  0
 21 26  2  0  0  0  0
 21 48  1  0  0  0  0
 22 27  1  0  0  0  0
 22 28  2  0  0  0  0
 23 26  1  0  0  0  0
 23 49  1  0  0  0  0
 25 50  1  0  0  0  0
 25 51  1  0  0  0  0
 25 52  1  0  0  0  0
 27 29  2  0  0  0  0
 28 30  1  0  0  0  0
 28 53  1  0  0  0  0
 29 31  1  0  0  0  0
 29 54  1  0  0  0  0
 30 31  2  0  0  0  0
 30 55  1  0  0  0  0
 31 56  1  0  0  0  0
M  END
> <PUBCHEM_COMPOUND_CID>
44404450

> <PUBCHEM_COMPOUND_CANONICALIZED>
1

> <PUBCHEM_CACTVS_COMPLEXITY>
741

> <PUBCHEM_CACTVS_HBOND_ACCEPTOR>
6

> <PUBCHEM_CACTVS_HBOND_DONOR>
1

> <PUBCHEM_CACTVS_ROTATABLE_BOND>
4

> <PUBCHEM_CACTVS_SUBSKEYS>
AAADceB7sQBAAAAAAAAAAAAAAAAAAQAAAAA8eIEAAAAAAECxQAAAHwQQQAAADQjB2AwzwYPAAAKoAidycEDCABAhAAAJiBkoRJgIYLLAmZGUIAhglADIyAcYicCegAACAAAGAAAAAAQAAAwAAAAAAAAAAA==

> <PUBCHEM_IUPAC_OPENEYE_NAME>
6-fluoro-4-methyl-8-[2-[4-(1-oxo-1,2-benzothiazol-3-yl)piperazin-1-yl]ethyl]-3,4-dihydro-1H-quinolin-2-one

> <PUBCHEM_IUPAC_CAS_NAME>
6-fluoro-4-methyl-8-[2-[4-(1-oxo-1,2-benzothiazol-3-yl)-1-piperazinyl]ethyl]-3,4-dihydro-1H-quinolin-2-one

> <PUBCHEM_IUPAC_NAME_MARKUP>
6-fluoro-4-methyl-8-[2-[4-(1-oxo-1,2-benzothiazol-3-yl)piperazin-1-yl]ethyl]-3,4-dihydro-1<I>H</I>-quinolin-2-one

> <PUBCHEM_IUPAC_NAME>
6-fluoro-4-methyl-8-[2-[4-(1-oxo-1,2-benzothiazol-3-yl)piperazin-1-yl]ethyl]-3,4-dihydro-1H-quinolin-2-one

> <PUBCHEM_IUPAC_SYSTEMATIC_NAME>
6-fluoranyl-4-methyl-8-[2-[4-(1-oxidanylidene-1,2-benzothiazol-3-yl)piperazin-1-yl]ethyl]-3,4-dihydro-1H-quinolin-2-one

> <PUBCHEM_IUPAC_TRADITIONAL_NAME>
6-fluoro-8-[2-[4-(1-keto-1,2-benzothiazol-3-yl)piperazino]ethyl]-4-methyl-3,4-dihydrocarbostyril

> <PUBCHEM_IUPAC_INCHI>
InChI=1S/C23H25FN4O2S/c1-15-12-21(29)25-22-16(13-17(24)14-19(15)22)6-7-27-8-10-28(11-9-27)23-18-4-2-3-5-20(18)31(30)26-23/h2-5,13-15H,6-12H2,1H3,(H,25,29)

> <PUBCHEM_IUPAC_INCHIKEY>
JRHZMBFEPWEZFP-UHFFFAOYSA-N

> <PUBCHEM_XLOGP3_AA>
2.5

> <PUBCHEM_EXACT_MASS>
440.16822539

> <PUBCHEM_MOLECULAR_FORMULA>
C23H25FN4O2S

> <PUBCHEM_MOLECULAR_WEIGHT>
440.5

> <PUBCHEM_OPENEYE_CAN_SMILES>
CC1CC(=O)NC2=C(C=C(C=C12)F)CCN3CCN(CC3)C4=NS(=O)C5=CC=CC=C54

> <PUBCHEM_OPENEYE_ISO_SMILES>
CC1CC(=O)NC2=C(C=C(C=C12)F)CCN3CCN(CC3)C4=NS(=O)C5=CC=CC=C54

> <PUBCHEM_CACTVS_TPSA>
84.2

> <PUBCHEM_MONOISOTOPIC_WEIGHT>
440.16822539

> <PUBCHEM_TOTAL_CHARGE>
0

> <PUBCHEM_HEAVY_ATOM_COUNT>
31

> <PUBCHEM_ATOM_DEF_STEREO_COUNT>
0

> <PUBCHEM_ATOM_UDEF_STEREO_COUNT>
1

> <PUBCHEM_BOND_DEF_STEREO_COUNT>
0

> <PUBCHEM_BOND_UDEF_STEREO_COUNT>
0

> <PUBCHEM_ISOTOPIC_ATOM_COUNT>
0

> <PUBCHEM_COMPONENT_COUNT>
1

> <PUBCHEM_CACTVS_TAUTO_COUNT>
-1

> <PUBCHEM_COORDINATE_TYPE>
1
5
255

> <PUBCHEM_BONDANNOTATIONS>
1  27  8
1  8  8
15  17  8
15  21  8
16  25  3
17  18  8
18  23  8
19  22  8
21  26  8
22  27  8
22  28  8
23  26  8
27  29  8
28  30  8
29  31  8
30  31  8
8  19  8

$$$$
