11014340
  -OEChem-09292322192D

 51 55  0     1  0  0  0  0  0999 V2000
    2.0000    0.6054    0.0000 F   0  0  0  0  0  0  0  0  0  0  0  0
    4.7684   -1.6163    0.0000 O   0  0  0  0  0  0  0  0  0  0  0  0
   11.0395   -1.4184    0.0000 O   0  0  0  0  0  0  0  0  0  0  0  0
    8.4414    1.0816    0.0000 N   0  0  0  0  0  0  0  0  0  0  0  0
    5.7402   -1.4071    0.0000 N   0  0  0  0  0  0  0  0  0  0  0  0
    6.7093    0.0816    0.0000 C   0  0  0  0  0  0  0  0  0  0  0  0
   10.1734    1.0816    0.0000 C   0  0  3  0  0  0  0  0  0  0  0  0
    9.3074    1.5816    0.0000 C   0  0  0  0  0  0  0  0  0  0  0  0
    7.5754   -0.4184    0.0000 C   0  0  0  0  0  0  0  0  0  0  0  0
    6.7093    1.0816    0.0000 C   0  0  0  0  0  0  0  0  0  0  0  0
    8.4414    0.0816    0.0000 C   0  0  0  0  0  0  0  0  0  0  0  0
    7.5754    1.5816    0.0000 C   0  0  0  0  0  0  0  0  0  0  0  0
   11.0395    1.5816    0.0000 C   0  0  0  0  0  0  0  0  0  0  0  0
   10.1734    0.0816    0.0000 C   0  0  0  0  0  0  0  0  0  0  0  0
    5.8433   -0.4184    0.0000 C   0  0  0  0  0  0  0  0  0  0  0  0
   11.9055    1.0816    0.0000 C   0  0  0  0  0  0  0  0  0  0  0  0
   11.0395   -0.4184    0.0000 C   0  0  0  0  0  0  0  0  0  0  0  0
   11.9055    0.0816    0.0000 C   0  0  0  0  0  0  0  0  0  0  0  0
    4.9355   -0.0133    0.0000 C   0  0  0  0  0  0  0  0  0  0  0  0
   12.7994    1.6163    0.0000 C   0  0  0  0  0  0  0  0  0  0  0  0
    4.2677   -0.7576    0.0000 C   0  0  0  0  0  0  0  0  0  0  0  0
   12.7994   -0.4530    0.0000 C   0  0  0  0  0  0  0  0  0  0  0  0
    4.6249    0.9373    0.0000 C   0  0  0  0  0  0  0  0  0  0  0  0
   13.7055    1.1024    0.0000 C   0  0  0  0  0  0  0  0  0  0  0  0
   13.7055    0.0608    0.0000 C   0  0  0  0  0  0  0  0  0  0  0  0
    3.2892   -0.5513    0.0000 C   0  0  0  0  0  0  0  0  0  0  0  0
    3.6464    1.1435    0.0000 C   0  0  0  0  0  0  0  0  0  0  0  0
    2.9785    0.3992    0.0000 C   0  0  0  0  0  0  0  0  0  0  0  0
    6.7093   -0.5384    0.0000 H   0  0  0  0  0  0  0  0  0  0  0  0
   10.1734    1.7016    0.0000 H   0  0  0  0  0  0  0  0  0  0  0  0
    9.7059    2.0566    0.0000 H   0  0  0  0  0  0  0  0  0  0  0  0
    8.9089    2.0566    0.0000 H   0  0  0  0  0  0  0  0  0  0  0  0
    7.1768   -0.8933    0.0000 H   0  0  0  0  0  0  0  0  0  0  0  0
    7.9739   -0.8933    0.0000 H   0  0  0  0  0  0  0  0  0  0  0  0
    6.4973    1.6642    0.0000 H   0  0  0  0  0  0  0  0  0  0  0  0
    6.0988    0.9740    0.0000 H   0  0  0  0  0  0  0  0  0  0  0  0
    8.6534   -0.5010    0.0000 H   0  0  0  0  0  0  0  0  0  0  0  0
    9.0520    0.1893    0.0000 H   0  0  0  0  0  0  0  0  0  0  0  0
    7.9739    2.0566    0.0000 H   0  0  0  0  0  0  0  0  0  0  0  0
    7.1768    2.0566    0.0000 H   0  0  0  0  0  0  0  0  0  0  0  0
   11.4380    2.0566    0.0000 H   0  0  0  0  0  0  0  0  0  0  0  0
   10.6409    2.0566    0.0000 H   0  0  0  0  0  0  0  0  0  0  0  0
    9.5628    0.1893    0.0000 H   0  0  0  0  0  0  0  0  0  0  0  0
    9.9614   -0.5010    0.0000 H   0  0  0  0  0  0  0  0  0  0  0  0
   12.7923    2.2362    0.0000 H   0  0  0  0  0  0  0  0  0  0  0  0
   12.7923   -1.0730    0.0000 H   0  0  0  0  0  0  0  0  0  0  0  0
    5.0389    1.3987    0.0000 H   0  0  0  0  0  0  0  0  0  0  0  0
   14.2412    1.4145    0.0000 H   0  0  0  0  0  0  0  0  0  0  0  0
   14.2412   -0.2512    0.0000 H   0  0  0  0  0  0  0  0  0  0  0  0
    2.8751   -1.0128    0.0000 H   0  0  0  0  0  0  0  0  0  0  0  0
    3.4537    1.7328    0.0000 H   0  0  0  0  0  0  0  0  0  0  0  0
  1 28  1  0  0  0  0
  2  5  1  0  0  0  0
  2 21  1  0  0  0  0
  3 17  2  0  0  0  0
  4  8  1  0  0  0  0
  4 11  1  0  0  0  0
  4 12  1  0  0  0  0
  5 15  2  0  0  0  0
  6  9  1  0  0  0  0
  6 10  1  0  0  0  0
  6 15  1  0  0  0  0
  6 29  1  0  0  0  0
  7  8  1  0  0  0  0
  7 13  1  0  0  0  0
  7 14  1  0  0  0  0
  7 30  1  0  0  0  0
  8 31  1  0  0  0  0
  8 32  1  0  0  0  0
  9 11  1  0  0  0  0
  9 33  1  0  0  0  0
  9 34  1  0  0  0  0
 10 12  1  0  0  0  0
 10 35  1  0  0  0  0
 10 36  1  0  0  0  0
 11 37  1  0  0  0  0
 11 38  1  0  0  0  0
 12 39  1  0  0  0  0
 12 40  1  0  0  0  0
 13 16  1  0  0  0  0
 13 41  1  0  0  0  0
 13 42  1  0  0  0  0
 14 17  1  0  0  0  0
 14 43  1  0  0  0  0
 14 44  1  0  0  0  0
 15 19  1  0  0  0  0
 16 18  1  0  0  0  0
 16 20  2  0  0  0  0
 17 18  1  0  0  0  0
 18 22  2  0  0  0  0
 19 21  2  0  0  0  0
 19 23  1  0  0  0  0
 20 24  1  0  0  0  0
 20 45  1  0  0  0  0
 21 26  1  0  0  0  0
 22 25  1  0  0  0  0
 22 46  1  0  0  0  0
 23 27  2  0  0  0  0
 23 47  1  0  0  0  0
 24 25  2  0  0  0  0
 24 48  1  0  0  0  0
 25 49  1  0  0  0  0
 26 28  2  0  0  0  0
 26 50  1  0  0  0  0
 27 28  1  0  0  0  0
 27 51  1  0  0  0  0
M  END
> <PUBCHEM_COMPOUND_CID>
11014340

> <PUBCHEM_COMPOUND_CANONICALIZED>
1

> <PUBCHEM_CACTVS_COMPLEXITY>
565

> <PUBCHEM_CACTVS_HBOND_ACCEPTOR>
5

> <PUBCHEM_CACTVS_HBOND_DONOR>
0

> <PUBCHEM_CACTVS_ROTATABLE_BOND>
3

> <PUBCHEM_CACTVS_SUBSKEYS>
AAADceB7MQAAAAAAAAAAAAAAAAAAAWAAAAA8YMEAAAAAAFjB9AAAHwAEAAAADQzBngwwhtMQAACpA6RyQgCCAAAkIAAomCE+TNoIJrqAlZOEMYBmwBmIycecyOCOgAAAAAAYAACAAAQAADAAAAAAAAAAAA==

> <PUBCHEM_IUPAC_OPENEYE_NAME>
3-[[4-(6-fluoro-1,2-benzoxazol-3-yl)-1-piperidyl]methyl]tetralin-1-one

> <PUBCHEM_IUPAC_CAS_NAME>
3-[[4-(6-fluoro-1,2-benzoxazol-3-yl)-1-piperidinyl]methyl]-3,4-dihydro-2H-naphthalen-1-one

> <PUBCHEM_IUPAC_NAME_MARKUP>
3-[[4-(6-fluoro-1,2-benzoxazol-3-yl)piperidin-1-yl]methyl]-3,4-dihydro-2<I>H</I>-naphthalen-1-one

> <PUBCHEM_IUPAC_NAME>
3-[[4-(6-fluoro-1,2-benzoxazol-3-yl)piperidin-1-yl]methyl]-3,4-dihydro-2H-naphthalen-1-one

> <PUBCHEM_IUPAC_SYSTEMATIC_NAME>
3-[[4-(6-fluoranyl-1,2-benzoxazol-3-yl)piperidin-1-yl]methyl]-3,4-dihydro-2H-naphthalen-1-one

> <PUBCHEM_IUPAC_TRADITIONAL_NAME>
3-[[4-(6-fluoroindoxazen-3-yl)piperidino]methyl]tetralin-1-one

> <PUBCHEM_IUPAC_INCHI>
InChI=1S/C23H23FN2O2/c24-18-5-6-20-22(13-18)28-25-23(20)16-7-9-26(10-8-16)14-15-11-17-3-1-2-4-19(17)21(27)12-15/h1-6,13,15-16H,7-12,14H2

> <PUBCHEM_IUPAC_INCHIKEY>
BWEAUXJVFDVRAU-UHFFFAOYSA-N

> <PUBCHEM_XLOGP3_AA>
4.1

> <PUBCHEM_EXACT_MASS>
378.17435614

> <PUBCHEM_MOLECULAR_FORMULA>
C23H23FN2O2

> <PUBCHEM_MOLECULAR_WEIGHT>
378.4

> <PUBCHEM_OPENEYE_CAN_SMILES>
C1CN(CCC1C2=NOC3=C2C=CC(=C3)F)CC4CC5=CC=CC=C5C(=O)C4

> <PUBCHEM_OPENEYE_ISO_SMILES>
C1CN(CCC1C2=NOC3=C2C=CC(=C3)F)CC4CC5=CC=CC=C5C(=O)C4

> <PUBCHEM_CACTVS_TPSA>
46.3

> <PUBCHEM_MONOISOTOPIC_WEIGHT>
378.17435614

> <PUBCHEM_TOTAL_CHARGE>
0

> <PUBCHEM_HEAVY_ATOM_COUNT>
28

> <PUBCHEM_ATOM_DEF_STEREO_COUNT>
0

> <PUBCHEM_ATOM_UDEF_STEREO_COUNT>
1

> <PUBCHEM_BOND_DEF_STEREO_COUNT>
0

> <PUBCHEM_BOND_UDEF_STEREO_COUNT>
0

> <PUBCHEM_ISOTOPIC_ATOM_COUNT>
0

> <PUBCHEM_COMPONENT_COUNT>
1

> <PUBCHEM_CACTVS_TAUTO_COUNT>
-1

> <PUBCHEM_COORDINATE_TYPE>
1
5
255

> <PUBCHEM_BONDANNOTATIONS>
15  19  8
16  18  8
16  20  8
18  22  8
19  21  8
19  23  8
2  21  8
2  5  8
20  24  8
21  26  8
22  25  8
23  27  8
24  25  8
26  28  8
27  28  8
5  15  8
7  8  3

$$$$
