168269719
  -OEChem-09292322452D

 61 65  0     0  0  0  0  0  0999 V2000
   10.2852   -3.1451    0.0000 O   0  0  0  0  0  0  0  0  0  0  0  0
   10.9065   -1.2441    0.0000 N   0  0  0  0  0  0  0  0  0  0  0  0
    9.5708    0.2445    0.0000 N   0  0  0  0  0  0  0  0  0  0  0  0
    7.9244    0.7826    0.0000 N   0  0  0  0  0  0  0  0  0  0  0  0
    9.2136    1.9394    0.0000 N   0  0  0  0  0  0  0  0  0  0  0  0
    6.2781    1.3207    0.0000 N   0  0  0  0  0  0  0  0  0  0  0  0
    4.6783   -2.3960    0.0000 N   0  0  0  0  0  0  0  0  0  0  0  0
    7.5673    2.4774    0.0000 N   0  0  0  0  0  0  0  0  0  0  0  0
    8.8564    3.6342    0.0000 N   0  0  0  0  0  0  0  0  0  0  0  0
    9.9280   -1.4503    0.0000 C   0  0  0  0  0  0  0  0  0  0  0  0
   11.2171   -0.2936    0.0000 C   0  0  0  0  0  0  0  0  0  0  0  0
    9.2601   -0.7060    0.0000 C   0  0  0  0  0  0  0  0  0  0  0  0
   10.5493    0.4507    0.0000 C   0  0  0  0  0  0  0  0  0  0  0  0
   11.5743   -1.9884    0.0000 C   0  0  0  0  0  0  0  0  0  0  0  0
    8.9030    0.9888    0.0000 C   0  0  0  0  0  0  0  0  0  0  0  0
   11.2637   -2.9389    0.0000 C   0  0  0  0  0  0  0  0  0  0  0  0
   12.5528   -1.7822    0.0000 C   0  0  0  0  0  0  0  0  0  0  0  0
    4.9889    0.1640    0.0000 C   0  0  0  0  0  0  0  0  0  0  0  0
    4.6783   -0.7866    0.0000 C   0  0  0  0  0  0  0  0  0  0  0  0
    5.9674    0.3702    0.0000 C   0  0  0  0  0  0  0  0  0  0  0  0
    3.7320   -1.0913    0.0000 C   0  0  0  0  0  0  0  0  0  0  0  0
   11.9315   -3.6832    0.0000 C   0  0  0  0  0  0  0  0  0  0  0  0
    7.2566    1.5269    0.0000 C   0  0  0  0  0  0  0  0  0  0  0  0
   13.2207   -2.5265    0.0000 C   0  0  0  0  0  0  0  0  0  0  0  0
    3.7320   -2.0913    0.0000 C   0  0  0  0  0  0  0  0  0  0  0  0
   12.9100   -3.4770    0.0000 C   0  0  0  0  0  0  0  0  0  0  0  0
    5.2619   -1.5913    0.0000 C   0  0  0  0  0  0  0  0  0  0  0  0
    8.5458    2.6836    0.0000 C   0  0  0  0  0  0  0  0  0  0  0  0
    2.8660   -0.5913    0.0000 C   0  0  0  0  0  0  0  0  0  0  0  0
    2.8660   -2.5913    0.0000 C   0  0  0  0  0  0  0  0  0  0  0  0
    2.0000   -1.0913    0.0000 C   0  0  0  0  0  0  0  0  0  0  0  0
    2.0000   -2.0913    0.0000 C   0  0  0  0  0  0  0  0  0  0  0  0
    9.9745   -4.0956    0.0000 C   0  0  0  0  0  0  0  0  0  0  0  0
    9.4016   -1.7779    0.0000 H   0  0  0  0  0  0  0  0  0  0  0  0
   10.1592   -2.0256    0.0000 H   0  0  0  0  0  0  0  0  0  0  0  0
   11.7641   -0.5856    0.0000 H   0  0  0  0  0  0  0  0  0  0  0  0
   11.5997    0.1943    0.0000 H   0  0  0  0  0  0  0  0  0  0  0  0
    8.7132   -0.4140    0.0000 H   0  0  0  0  0  0  0  0  0  0  0  0
    8.8776   -1.1939    0.0000 H   0  0  0  0  0  0  0  0  0  0  0  0
   11.0757    0.7784    0.0000 H   0  0  0  0  0  0  0  0  0  0  0  0
   10.3180    1.0260    0.0000 H   0  0  0  0  0  0  0  0  0  0  0  0
   12.7454   -1.1928    0.0000 H   0  0  0  0  0  0  0  0  0  0  0  0
    4.9684    0.7836    0.0000 H   0  0  0  0  0  0  0  0  0  0  0  0
    4.3751    0.2513    0.0000 H   0  0  0  0  0  0  0  0  0  0  0  0
    5.9880   -0.2495    0.0000 H   0  0  0  0  0  0  0  0  0  0  0  0
    6.5812    0.2828    0.0000 H   0  0  0  0  0  0  0  0  0  0  0  0
   11.7389   -4.2725    0.0000 H   0  0  0  0  0  0  0  0  0  0  0  0
   13.8274   -2.3986    0.0000 H   0  0  0  0  0  0  0  0  0  0  0  0
    5.8640    1.7822    0.0000 H   0  0  0  0  0  0  0  0  0  0  0  0
   13.3241   -3.9384    0.0000 H   0  0  0  0  0  0  0  0  0  0  0  0
    5.8819   -1.5913    0.0000 H   0  0  0  0  0  0  0  0  0  0  0  0
    4.8709   -2.9854    0.0000 H   0  0  0  0  0  0  0  0  0  0  0  0
    2.8660    0.0287    0.0000 H   0  0  0  0  0  0  0  0  0  0  0  0
    2.8660   -3.2113    0.0000 H   0  0  0  0  0  0  0  0  0  0  0  0
    1.4631   -0.7813    0.0000 H   0  0  0  0  0  0  0  0  0  0  0  0
    1.4631   -2.4013    0.0000 H   0  0  0  0  0  0  0  0  0  0  0  0
    9.3852   -3.9030    0.0000 H   0  0  0  0  0  0  0  0  0  0  0  0
    9.7819   -4.6850    0.0000 H   0  0  0  0  0  0  0  0  0  0  0  0
   10.5638   -4.2882    0.0000 H   0  0  0  0  0  0  0  0  0  0  0  0
    8.4424    4.0956    0.0000 H   0  0  0  0  0  0  0  0  0  0  0  0
    9.4631    3.7620    0.0000 H   0  0  0  0  0  0  0  0  0  0  0  0
  1 16  1  0  0  0  0
  1 33  1  0  0  0  0
  2 10  1  0  0  0  0
  2 11  1  0  0  0  0
  2 14  1  0  0  0  0
  3 12  1  0  0  0  0
  3 13  1  0  0  0  0
  3 15  1  0  0  0  0
  4 15  1  0  0  0  0
  4 23  2  0  0  0  0
  5 15  2  0  0  0  0
  5 28  1  0  0  0  0
  6 20  1  0  0  0  0
  6 23  1  0  0  0  0
  6 49  1  0  0  0  0
  7 25  1  0  0  0  0
  7 27  1  0  0  0  0
  7 52  1  0  0  0  0
  8 23  1  0  0  0  0
  8 28  2  0  0  0  0
  9 28  1  0  0  0  0
  9 60  1  0  0  0  0
  9 61  1  0  0  0  0
 10 12  1  0  0  0  0
 10 34  1  0  0  0  0
 10 35  1  0  0  0  0
 11 13  1  0  0  0  0
 11 36  1  0  0  0  0
 11 37  1  0  0  0  0
 12 38  1  0  0  0  0
 12 39  1  0  0  0  0
 13 40  1  0  0  0  0
 13 41  1  0  0  0  0
 14 16  1  0  0  0  0
 14 17  2  0  0  0  0
 16 22  2  0  0  0  0
 17 24  1  0  0  0  0
 17 42  1  0  0  0  0
 18 19  1  0  0  0  0
 18 20  1  0  0  0  0
 18 43  1  0  0  0  0
 18 44  1  0  0  0  0
 19 21  1  0  0  0  0
 19 27  2  0  0  0  0
 20 45  1  0  0  0  0
 20 46  1  0  0  0  0
 21 25  1  0  0  0  0
 21 29  2  0  0  0  0
 22 26  1  0  0  0  0
 22 47  1  0  0  0  0
 24 26  2  0  0  0  0
 24 48  1  0  0  0  0
 25 30  2  0  0  0  0
 26 50  1  0  0  0  0
 27 51  1  0  0  0  0
 29 31  1  0  0  0  0
 29 53  1  0  0  0  0
 30 32  1  0  0  0  0
 30 54  1  0  0  0  0
 31 32  2  0  0  0  0
 31 55  1  0  0  0  0
 32 56  1  0  0  0  0
 33 57  1  0  0  0  0
 33 58  1  0  0  0  0
 33 59  1  0  0  0  0
M  END
> <PUBCHEM_COMPOUND_CID>
168269719

> <PUBCHEM_COMPOUND_CANONICALIZED>
1

> <PUBCHEM_CACTVS_COMPLEXITY>
603

> <PUBCHEM_CACTVS_HBOND_ACCEPTOR>
8

> <PUBCHEM_CACTVS_HBOND_DONOR>
3

> <PUBCHEM_CACTVS_ROTATABLE_BOND>
7

> <PUBCHEM_CACTVS_SUBSKEYS>
AAADceB74AAAAAAAAAAAAAAAAAAAAWAAAAA8eIEAAAAAAFgB/AAAHgAQAAAADAzBngY/1vfJlACgAzRnZACCiCkxIqAJ2aA/bJiObuLEuZuVMChs0BPY6AeQwMAOgAAAAAACEAAAAAAAAAQgAAAAAAAAAA==

> <PUBCHEM_IUPAC_OPENEYE_NAME>
N2-[2-(1H-indol-3-yl)ethyl]-6-[4-(2-methoxyphenyl)piperazin-1-yl]-1,3,5-triazine-2,4-diamine

> <PUBCHEM_IUPAC_CAS_NAME>
N2-[2-(1H-indol-3-yl)ethyl]-6-[4-(2-methoxyphenyl)-1-piperazinyl]-1,3,5-triazine-2,4-diamine

> <PUBCHEM_IUPAC_NAME_MARKUP>
2-<I>N</I>-[2-(1<I>H</I>-indol-3-yl)ethyl]-6-[4-(2-methoxyphenyl)piperazin-1-yl]-1,3,5-triazine-2,4-diamine

> <PUBCHEM_IUPAC_NAME>
2-N-[2-(1H-indol-3-yl)ethyl]-6-[4-(2-methoxyphenyl)piperazin-1-yl]-1,3,5-triazine-2,4-diamine

> <PUBCHEM_IUPAC_SYSTEMATIC_NAME>
N2-[2-(1H-indol-3-yl)ethyl]-6-[4-(2-methoxyphenyl)piperazin-1-yl]-1,3,5-triazine-2,4-diamine

> <PUBCHEM_IUPAC_TRADITIONAL_NAME>
[4-amino-6-[4-(2-methoxyphenyl)piperazino]-s-triazin-2-yl]-[2-(1H-indol-3-yl)ethyl]amine

> <PUBCHEM_IUPAC_INCHI>
InChI=1S/C24H28N8O/c1-33-21-9-5-4-8-20(21)31-12-14-32(15-13-31)24-29-22(25)28-23(30-24)26-11-10-17-16-27-19-7-3-2-6-18(17)19/h2-9,16,27H,10-15H2,1H3,(H3,25,26,28,29,30)

> <PUBCHEM_IUPAC_INCHIKEY>
UYTFDTBLSZRMME-UHFFFAOYSA-N

> <PUBCHEM_XLOGP3_AA>
4

> <PUBCHEM_EXACT_MASS>
444.23860755

> <PUBCHEM_MOLECULAR_FORMULA>
C24H28N8O

> <PUBCHEM_MOLECULAR_WEIGHT>
444.5

> <PUBCHEM_OPENEYE_CAN_SMILES>
COC1=CC=CC=C1N2CCN(CC2)C3=NC(=NC(=N3)NCCC4=CNC5=CC=CC=C54)N

> <PUBCHEM_OPENEYE_ISO_SMILES>
COC1=CC=CC=C1N2CCN(CC2)C3=NC(=NC(=N3)NCCC4=CNC5=CC=CC=C54)N

> <PUBCHEM_CACTVS_TPSA>
108

> <PUBCHEM_MONOISOTOPIC_WEIGHT>
444.23860755

> <PUBCHEM_TOTAL_CHARGE>
0

> <PUBCHEM_HEAVY_ATOM_COUNT>
33

> <PUBCHEM_ATOM_DEF_STEREO_COUNT>
0

> <PUBCHEM_ATOM_UDEF_STEREO_COUNT>
0

> <PUBCHEM_BOND_DEF_STEREO_COUNT>
0

> <PUBCHEM_BOND_UDEF_STEREO_COUNT>
0

> <PUBCHEM_ISOTOPIC_ATOM_COUNT>
0

> <PUBCHEM_COMPONENT_COUNT>
1

> <PUBCHEM_CACTVS_TAUTO_COUNT>
-1

> <PUBCHEM_COORDINATE_TYPE>
1
5
255

> <PUBCHEM_BONDANNOTATIONS>
14  16  8
14  17  8
16  22  8
17  24  8
19  21  8
19  27  8
21  25  8
21  29  8
22  26  8
24  26  8
25  30  8
29  31  8
30  32  8
31  32  8
4  15  8
4  23  8
5  15  8
5  28  8
7  25  8
7  27  8
8  23  8
8  28  8

$$$$
