164624645
  -OEChem-09292322432D

 74 77  0     1  0  0  0  0  0999 V2000
   17.2619   -1.1345    0.0000 Cl  0  0  0  0  0  0  0  0  0  0  0  0
   13.7619    1.4636    0.0000 O   0  0  0  0  0  0  0  0  0  0  0  0
   15.2619   -1.1345    0.0000 O   0  0  0  0  0  0  0  0  0  0  0  0
   15.2619    2.3296    0.0000 O   0  0  0  0  0  0  0  0  0  0  0  0
    4.6783   -0.2072    0.0000 O   0  0  0  0  0  0  0  0  0  0  0  0
    6.7619    1.4636    0.0000 O   0  0  0  0  0  0  0  0  0  0  0  0
   10.7619   -2.0005    0.0000 N   0  0  3  0  0  0  0  0  0  0  0  0
   13.7619   -0.2685    0.0000 N   0  0  0  0  0  0  0  0  0  0  0  0
    6.7619   -0.2685    0.0000 N   0  0  0  0  0  0  0  0  0  0  0  0
   12.2619   -1.1345    0.0000 C   0  0  3  0  0  0  0  0  0  0  0  0
   11.2619   -1.1345    0.0000 C   0  0  0  0  0  0  0  0  0  0  0  0
   12.7619   -2.0005    0.0000 C   0  0  0  0  0  0  0  0  0  0  0  0
   12.2619   -2.8665    0.0000 C   0  0  0  0  0  0  0  0  0  0  0  0
   11.2619   -2.8665    0.0000 C   0  0  0  0  0  0  0  0  0  0  0  0
   12.7619   -0.2685    0.0000 C   0  0  0  0  0  0  0  0  0  0  0  0
    9.7619   -2.0005    0.0000 C   0  0  0  0  0  0  0  0  0  0  0  0
    9.2619   -1.1345    0.0000 C   0  0  0  0  0  0  0  0  0  0  0  0
    8.2619   -1.1345    0.0000 C   0  0  0  0  0  0  0  0  0  0  0  0
    7.7619   -0.2685    0.0000 C   0  0  0  0  0  0  0  0  0  0  0  0
   14.2619    0.5976    0.0000 C   0  0  0  0  0  0  0  0  0  0  0  0
   15.2619    0.5976    0.0000 C   0  0  0  0  0  0  0  0  0  0  0  0
   15.7619    1.4636    0.0000 C   0  0  0  0  0  0  0  0  0  0  0  0
   15.7619   -0.2685    0.0000 C   0  0  0  0  0  0  0  0  0  0  0  0
    6.2619    0.5976    0.0000 C   0  0  0  0  0  0  0  0  0  0  0  0
   16.7619    1.4636    0.0000 C   0  0  0  0  0  0  0  0  0  0  0  0
   16.7619   -0.2685    0.0000 C   0  0  0  0  0  0  0  0  0  0  0  0
   17.2619    0.5976    0.0000 C   0  0  0  0  0  0  0  0  0  0  0  0
   17.2619    2.3296    0.0000 C   0  0  0  0  0  0  0  0  0  0  0  0
    5.2619    0.5976    0.0000 C   0  0  0  0  0  0  0  0  0  0  0  0
    4.6783    1.4023    0.0000 C   0  0  0  0  0  0  0  0  0  0  0  0
   18.2619    2.3296    0.0000 C   0  0  0  0  0  0  0  0  0  0  0  0
    3.7320    1.0976    0.0000 C   0  0  0  0  0  0  0  0  0  0  0  0
    3.7320    0.0976    0.0000 C   0  0  0  0  0  0  0  0  0  0  0  0
   15.7619   -2.0005    0.0000 C   0  0  0  0  0  0  0  0  0  0  0  0
    2.8660    1.5976    0.0000 C   0  0  0  0  0  0  0  0  0  0  0  0
    2.8660   -0.4024    0.0000 C   0  0  0  0  0  0  0  0  0  0  0  0
    2.0000    1.0976    0.0000 C   0  0  0  0  0  0  0  0  0  0  0  0
    2.0000    0.0976    0.0000 C   0  0  0  0  0  0  0  0  0  0  0  0
   12.8819   -1.1345    0.0000 H   0  0  0  0  0  0  0  0  0  0  0  0
   11.3695   -0.5239    0.0000 H   0  0  0  0  0  0  0  0  0  0  0  0
   10.6793   -0.9224    0.0000 H   0  0  0  0  0  0  0  0  0  0  0  0
   13.2368   -2.3990    0.0000 H   0  0  0  0  0  0  0  0  0  0  0  0
   13.2368   -1.6020    0.0000 H   0  0  0  0  0  0  0  0  0  0  0  0
   12.1542   -3.4771    0.0000 H   0  0  0  0  0  0  0  0  0  0  0  0
   12.8445   -3.0786    0.0000 H   0  0  0  0  0  0  0  0  0  0  0  0
   10.6793   -3.0786    0.0000 H   0  0  0  0  0  0  0  0  0  0  0  0
   11.3695   -3.4771    0.0000 H   0  0  0  0  0  0  0  0  0  0  0  0
   12.8695    0.3421    0.0000 H   0  0  0  0  0  0  0  0  0  0  0  0
   12.1793   -0.0564    0.0000 H   0  0  0  0  0  0  0  0  0  0  0  0
    9.1793   -2.2126    0.0000 H   0  0  0  0  0  0  0  0  0  0  0  0
    9.8695   -2.6111    0.0000 H   0  0  0  0  0  0  0  0  0  0  0  0
    9.8445   -0.9224    0.0000 H   0  0  0  0  0  0  0  0  0  0  0  0
    9.1542   -0.5239    0.0000 H   0  0  0  0  0  0  0  0  0  0  0  0
   14.0719   -0.8054    0.0000 H   0  0  0  0  0  0  0  0  0  0  0  0
    7.6793   -1.3466    0.0000 H   0  0  0  0  0  0  0  0  0  0  0  0
    8.3695   -1.7451    0.0000 H   0  0  0  0  0  0  0  0  0  0  0  0
    8.3445   -0.0564    0.0000 H   0  0  0  0  0  0  0  0  0  0  0  0
    7.6542    0.3421    0.0000 H   0  0  0  0  0  0  0  0  0  0  0  0
    6.4519   -0.8054    0.0000 H   0  0  0  0  0  0  0  0  0  0  0  0
   17.8819    0.5976    0.0000 H   0  0  0  0  0  0  0  0  0  0  0  0
   17.3695    2.9402    0.0000 H   0  0  0  0  0  0  0  0  0  0  0  0
   16.6793    2.5417    0.0000 H   0  0  0  0  0  0  0  0  0  0  0  0
   15.5719    2.8665    0.0000 H   0  0  0  0  0  0  0  0  0  0  0  0
    4.8709    1.9916    0.0000 H   0  0  0  0  0  0  0  0  0  0  0  0
   18.2619    1.7096    0.0000 H   0  0  0  0  0  0  0  0  0  0  0  0
   18.8819    2.3296    0.0000 H   0  0  0  0  0  0  0  0  0  0  0  0
   18.2619    2.9496    0.0000 H   0  0  0  0  0  0  0  0  0  0  0  0
   15.2249   -2.3105    0.0000 H   0  0  0  0  0  0  0  0  0  0  0  0
   16.0719   -2.5375    0.0000 H   0  0  0  0  0  0  0  0  0  0  0  0
   16.2988   -1.6905    0.0000 H   0  0  0  0  0  0  0  0  0  0  0  0
    2.8660    2.2176    0.0000 H   0  0  0  0  0  0  0  0  0  0  0  0
    2.8660   -1.0224    0.0000 H   0  0  0  0  0  0  0  0  0  0  0  0
    1.4631    1.4076    0.0000 H   0  0  0  0  0  0  0  0  0  0  0  0
    1.4631   -0.2124    0.0000 H   0  0  0  0  0  0  0  0  0  0  0  0
  1 26  1  0  0  0  0
  2 20  2  0  0  0  0
  3 23  1  0  0  0  0
  3 34  1  0  0  0  0
  4 22  1  0  0  0  0
  4 63  1  0  0  0  0
  5 29  1  0  0  0  0
  5 33  1  0  0  0  0
  6 24  2  0  0  0  0
  7 11  1  0  0  0  0
  7 14  1  0  0  0  0
  7 16  1  0  0  0  0
  8 15  1  0  0  0  0
  8 20  1  0  0  0  0
  8 54  1  0  0  0  0
  9 19  1  0  0  0  0
  9 24  1  0  0  0  0
  9 59  1  0  0  0  0
 10 11  1  0  0  0  0
 10 12  1  0  0  0  0
 10 15  1  0  0  0  0
 10 39  1  0  0  0  0
 11 40  1  0  0  0  0
 11 41  1  0  0  0  0
 12 13  1  0  0  0  0
 12 42  1  0  0  0  0
 12 43  1  0  0  0  0
 13 14  1  0  0  0  0
 13 44  1  0  0  0  0
 13 45  1  0  0  0  0
 14 46  1  0  0  0  0
 14 47  1  0  0  0  0
 15 48  1  0  0  0  0
 15 49  1  0  0  0  0
 16 17  1  0  0  0  0
 16 50  1  0  0  0  0
 16 51  1  0  0  0  0
 17 18  1  0  0  0  0
 17 52  1  0  0  0  0
 17 53  1  0  0  0  0
 18 19  1  0  0  0  0
 18 55  1  0  0  0  0
 18 56  1  0  0  0  0
 19 57  1  0  0  0  0
 19 58  1  0  0  0  0
 20 21  1  0  0  0  0
 21 22  2  0  0  0  0
 21 23  1  0  0  0  0
 22 25  1  0  0  0  0
 23 26  2  0  0  0  0
 24 29  1  0  0  0  0
 25 27  2  0  0  0  0
 25 28  1  0  0  0  0
 26 27  1  0  0  0  0
 27 60  1  0  0  0  0
 28 31  1  0  0  0  0
 28 61  1  0  0  0  0
 28 62  1  0  0  0  0
 29 30  2  0  0  0  0
 30 32  1  0  0  0  0
 30 64  1  0  0  0  0
 31 65  1  0  0  0  0
 31 66  1  0  0  0  0
 31 67  1  0  0  0  0
 32 33  1  0  0  0  0
 32 35  2  0  0  0  0
 33 36  2  0  0  0  0
 34 68  1  0  0  0  0
 34 69  1  0  0  0  0
 34 70  1  0  0  0  0
 35 37  1  0  0  0  0
 35 71  1  0  0  0  0
 36 38  1  0  0  0  0
 36 72  1  0  0  0  0
 37 38  2  0  0  0  0
 37 73  1  0  0  0  0
 38 74  1  0  0  0  0
M  END
> <PUBCHEM_COMPOUND_CID>
164624645

> <PUBCHEM_COMPOUND_CANONICALIZED>
1

> <PUBCHEM_CACTVS_COMPLEXITY>
773

> <PUBCHEM_CACTVS_HBOND_ACCEPTOR>
6

> <PUBCHEM_CACTVS_HBOND_DONOR>
3

> <PUBCHEM_CACTVS_ROTATABLE_BOND>
11

> <PUBCHEM_CACTVS_SUBSKEYS>
AAADcfB7OAAEAAAAAAAAAAAAAAAAASAAAAA8YIAAAAAAAEgB9AAAHgIQCAAADQbBmCYyBsPABkCIAqFSEAKCCAAkJUAIiIHOD8gOJzeH9z+HeWjn9hWYuYeY/+7uICACKAAICABAQARQABAQAAAAAAAAAA==

> <PUBCHEM_IUPAC_OPENEYE_NAME>
N-[4-[3-[[(5-chloro-3-ethyl-2-hydroxy-6-methoxy-benzoyl)amino]methyl]-1-piperidyl]butyl]benzofuran-2-carboxamide

> <PUBCHEM_IUPAC_CAS_NAME>
N-[4-[3-[[[(5-chloro-3-ethyl-2-hydroxy-6-methoxyphenyl)-oxomethyl]amino]methyl]-1-piperidinyl]butyl]-2-benzofurancarboxamide

> <PUBCHEM_IUPAC_NAME_MARKUP>
<I>N</I>-[4-[3-[[(5-chloro-3-ethyl-2-hydroxy-6-methoxybenzoyl)amino]methyl]piperidin-1-yl]butyl]-1-benzofuran-2-carboxamide

> <PUBCHEM_IUPAC_NAME>
N-[4-[3-[[(5-chloro-3-ethyl-2-hydroxy-6-methoxybenzoyl)amino]methyl]piperidin-1-yl]butyl]-1-benzofuran-2-carboxamide

> <PUBCHEM_IUPAC_SYSTEMATIC_NAME>
N-[4-[3-[[(3-chloranyl-5-ethyl-2-methoxy-6-oxidanyl-phenyl)carbonylamino]methyl]piperidin-1-yl]butyl]-1-benzofuran-2-carboxamide

> <PUBCHEM_IUPAC_TRADITIONAL_NAME>
N-[4-[3-[[(5-chloro-3-ethyl-2-hydroxy-6-methoxy-benzoyl)amino]methyl]piperidino]butyl]coumarilamide

> <PUBCHEM_IUPAC_INCHI>
InChI=1S/C29H36ClN3O5/c1-3-20-15-22(30)27(37-2)25(26(20)34)29(36)32-17-19-9-8-14-33(18-19)13-7-6-12-31-28(35)24-16-21-10-4-5-11-23(21)38-24/h4-5,10-11,15-16,19,34H,3,6-9,12-14,17-18H2,1-2H3,(H,31,35)(H,32,36)

> <PUBCHEM_IUPAC_INCHIKEY>
HCJSXNXLTDYAKZ-UHFFFAOYSA-N

> <PUBCHEM_XLOGP3_AA>
6

> <PUBCHEM_EXACT_MASS>
541.2343490

> <PUBCHEM_MOLECULAR_FORMULA>
C29H36ClN3O5

> <PUBCHEM_MOLECULAR_WEIGHT>
542.1

> <PUBCHEM_OPENEYE_CAN_SMILES>
CCC1=CC(=C(C(=C1O)C(=O)NCC2CCCN(C2)CCCCNC(=O)C3=CC4=CC=CC=C4O3)OC)Cl

> <PUBCHEM_OPENEYE_ISO_SMILES>
CCC1=CC(=C(C(=C1O)C(=O)NCC2CCCN(C2)CCCCNC(=O)C3=CC4=CC=CC=C4O3)OC)Cl

> <PUBCHEM_CACTVS_TPSA>
104

> <PUBCHEM_MONOISOTOPIC_WEIGHT>
541.2343490

> <PUBCHEM_TOTAL_CHARGE>
0

> <PUBCHEM_HEAVY_ATOM_COUNT>
38

> <PUBCHEM_ATOM_DEF_STEREO_COUNT>
0

> <PUBCHEM_ATOM_UDEF_STEREO_COUNT>
1

> <PUBCHEM_BOND_DEF_STEREO_COUNT>
0

> <PUBCHEM_BOND_UDEF_STEREO_COUNT>
0

> <PUBCHEM_ISOTOPIC_ATOM_COUNT>
0

> <PUBCHEM_COMPONENT_COUNT>
1

> <PUBCHEM_CACTVS_TAUTO_COUNT>
-1

> <PUBCHEM_COORDINATE_TYPE>
1
5
255

> <PUBCHEM_BONDANNOTATIONS>
10  15  3
21  22  8
21  23  8
22  25  8
23  26  8
25  27  8
26  27  8
29  30  8
30  32  8
32  33  8
32  35  8
33  36  8
35  37  8
36  38  8
37  38  8
5  29  8
5  33  8

$$$$
