11504199
  -OEChem-09292322272D

 60 63  0     0  0  0  0  0  0999 V2000
    8.7269   -5.1934    0.0000 O   0  0  0  0  0  0  0  0  0  0  0  0
    3.5308    1.8066    0.0000 O   0  0  0  0  0  0  0  0  0  0  0  0
    2.3090    5.6545    0.0000 O   0  0  0  0  0  0  0  0  0  0  0  0
    6.9949   -2.1934    0.0000 N   0  0  0  0  0  0  0  0  0  0  0  0
    6.9949   -4.1934    0.0000 N   0  0  0  0  0  0  0  0  0  0  0  0
    5.2628    1.8066    0.0000 N   0  0  0  0  0  0  0  0  0  0  0  0
    5.2058    3.8944    0.0000 N   0  0  0  0  0  0  0  0  0  0  0  0
    4.8968    4.8455    0.0000 N   0  0  0  0  0  0  0  0  0  0  0  0
    7.8609   -2.6934    0.0000 C   0  0  0  0  0  0  0  0  0  0  0  0
    6.1288   -2.6934    0.0000 C   0  0  0  0  0  0  0  0  0  0  0  0
    7.8609   -3.6934    0.0000 C   0  0  0  0  0  0  0  0  0  0  0  0
    6.1288   -3.6934    0.0000 C   0  0  0  0  0  0  0  0  0  0  0  0
    6.9949   -1.1934    0.0000 C   0  0  0  0  0  0  0  0  0  0  0  0
    6.1288   -0.6934    0.0000 C   0  0  0  0  0  0  0  0  0  0  0  0
    6.9949   -5.1934    0.0000 C   0  0  0  0  0  0  0  0  0  0  0  0
    6.1288    0.3066    0.0000 C   0  0  0  0  0  0  0  0  0  0  0  0
    5.2628    0.8066    0.0000 C   0  0  0  0  0  0  0  0  0  0  0  0
    7.8609   -5.6934    0.0000 C   0  0  0  0  0  0  0  0  0  0  0  0
    6.1288   -5.6934    0.0000 C   0  0  0  0  0  0  0  0  0  0  0  0
    7.8609   -6.6934    0.0000 C   0  0  0  0  0  0  0  0  0  0  0  0
    6.1288   -6.6934    0.0000 C   0  0  0  0  0  0  0  0  0  0  0  0
    6.9949   -7.1934    0.0000 C   0  0  0  0  0  0  0  0  0  0  0  0
    4.3968    2.3066    0.0000 C   0  0  0  0  0  0  0  0  0  0  0  0
    9.5930   -5.6934    0.0000 C   0  0  0  0  0  0  0  0  0  0  0  0
    4.3968    3.3066    0.0000 C   0  0  0  0  0  0  0  0  0  0  0  0
    3.5878    3.8944    0.0000 C   0  0  0  0  0  0  0  0  0  0  0  0
    3.8968    4.8455    0.0000 C   0  0  0  0  0  0  0  0  0  0  0  0
    3.3090    5.6545    0.0000 C   0  0  0  0  0  0  0  0  0  0  0  0
    3.6180    6.6056    0.0000 C   0  0  0  0  0  0  0  0  0  0  0  0
    2.8090    7.1934    0.0000 C   0  0  0  0  0  0  0  0  0  0  0  0
    2.0000    6.6056    0.0000 C   0  0  0  0  0  0  0  0  0  0  0  0
    8.4715   -2.8010    0.0000 H   0  0  0  0  0  0  0  0  0  0  0  0
    8.0730   -2.1107    0.0000 H   0  0  0  0  0  0  0  0  0  0  0  0
    5.9168   -2.1107    0.0000 H   0  0  0  0  0  0  0  0  0  0  0  0
    5.5183   -2.8010    0.0000 H   0  0  0  0  0  0  0  0  0  0  0  0
    8.0730   -4.2760    0.0000 H   0  0  0  0  0  0  0  0  0  0  0  0
    8.4715   -3.5857    0.0000 H   0  0  0  0  0  0  0  0  0  0  0  0
    5.5183   -3.5857    0.0000 H   0  0  0  0  0  0  0  0  0  0  0  0
    5.9168   -4.2760    0.0000 H   0  0  0  0  0  0  0  0  0  0  0  0
    7.6055   -1.3010    0.0000 H   0  0  0  0  0  0  0  0  0  0  0  0
    7.2069   -0.6107    0.0000 H   0  0  0  0  0  0  0  0  0  0  0  0
    5.5183   -0.5857    0.0000 H   0  0  0  0  0  0  0  0  0  0  0  0
    5.9168   -1.2760    0.0000 H   0  0  0  0  0  0  0  0  0  0  0  0
    6.7394    0.1990    0.0000 H   0  0  0  0  0  0  0  0  0  0  0  0
    6.3409    0.8893    0.0000 H   0  0  0  0  0  0  0  0  0  0  0  0
    4.6523    0.9143    0.0000 H   0  0  0  0  0  0  0  0  0  0  0  0
    5.0508    0.2240    0.0000 H   0  0  0  0  0  0  0  0  0  0  0  0
    5.5919   -5.3834    0.0000 H   0  0  0  0  0  0  0  0  0  0  0  0
    8.3978   -7.0034    0.0000 H   0  0  0  0  0  0  0  0  0  0  0  0
    5.7998    2.1166    0.0000 H   0  0  0  0  0  0  0  0  0  0  0  0
    5.5919   -7.0034    0.0000 H   0  0  0  0  0  0  0  0  0  0  0  0
    6.9949   -7.8134    0.0000 H   0  0  0  0  0  0  0  0  0  0  0  0
    9.2830   -6.2303    0.0000 H   0  0  0  0  0  0  0  0  0  0  0  0
   10.1299   -6.0034    0.0000 H   0  0  0  0  0  0  0  0  0  0  0  0
    9.9030   -5.1564    0.0000 H   0  0  0  0  0  0  0  0  0  0  0  0
    2.9981    3.7028    0.0000 H   0  0  0  0  0  0  0  0  0  0  0  0
    5.2612    5.3471    0.0000 H   0  0  0  0  0  0  0  0  0  0  0  0
    4.2077    6.7972    0.0000 H   0  0  0  0  0  0  0  0  0  0  0  0
    2.8090    7.8134    0.0000 H   0  0  0  0  0  0  0  0  0  0  0  0
    1.4103    6.7972    0.0000 H   0  0  0  0  0  0  0  0  0  0  0  0
  1 18  1  0  0  0  0
  1 24  1  0  0  0  0
  2 23  2  0  0  0  0
  3 28  1  0  0  0  0
  3 31  1  0  0  0  0
  4  9  1  0  0  0  0
  4 10  1  0  0  0  0
  4 13  1  0  0  0  0
  5 11  1  0  0  0  0
  5 12  1  0  0  0  0
  5 15  1  0  0  0  0
  6 17  1  0  0  0  0
  6 23  1  0  0  0  0
  6 50  1  0  0  0  0
  7  8  1  0  0  0  0
  7 25  2  0  0  0  0
  8 27  1  0  0  0  0
  8 57  1  0  0  0  0
  9 11  1  0  0  0  0
  9 32  1  0  0  0  0
  9 33  1  0  0  0  0
 10 12  1  0  0  0  0
 10 34  1  0  0  0  0
 10 35  1  0  0  0  0
 11 36  1  0  0  0  0
 11 37  1  0  0  0  0
 12 38  1  0  0  0  0
 12 39  1  0  0  0  0
 13 14  1  0  0  0  0
 13 40  1  0  0  0  0
 13 41  1  0  0  0  0
 14 16  1  0  0  0  0
 14 42  1  0  0  0  0
 14 43  1  0  0  0  0
 15 18  1  0  0  0  0
 15 19  2  0  0  0  0
 16 17  1  0  0  0  0
 16 44  1  0  0  0  0
 16 45  1  0  0  0  0
 17 46  1  0  0  0  0
 17 47  1  0  0  0  0
 18 20  2  0  0  0  0
 19 21  1  0  0  0  0
 19 48  1  0  0  0  0
 20 22  1  0  0  0  0
 20 49  1  0  0  0  0
 21 22  2  0  0  0  0
 21 51  1  0  0  0  0
 22 52  1  0  0  0  0
 23 25  1  0  0  0  0
 24 53  1  0  0  0  0
 24 54  1  0  0  0  0
 24 55  1  0  0  0  0
 25 26  1  0  0  0  0
 26 27  2  0  0  0  0
 26 56  1  0  0  0  0
 27 28  1  0  0  0  0
 28 29  2  0  0  0  0
 29 30  1  0  0  0  0
 29 58  1  0  0  0  0
 30 31  2  0  0  0  0
 30 59  1  0  0  0  0
 31 60  1  0  0  0  0
M  END
> <PUBCHEM_COMPOUND_CID>
11504199

> <PUBCHEM_COMPOUND_CANONICALIZED>
1

> <PUBCHEM_CACTVS_COMPLEXITY>
557

> <PUBCHEM_CACTVS_HBOND_ACCEPTOR>
6

> <PUBCHEM_CACTVS_HBOND_DONOR>
2

> <PUBCHEM_CACTVS_ROTATABLE_BOND>
9

> <PUBCHEM_CACTVS_SUBSKEYS>
AAADceB7sAAAAAAAAAAAAAAAAAAAAWJAAAA8QAAAAAAAAAAB8AAAHgAYAAAACAzhlgYyxpPjBECqAa1y0ASSDAAnIgAYuaG/bNgOZrLE9duXvSjk3hHY6Ye836PwAAAAAAAAEAAAAAAAAAAgAAAAAAAAAA==

> <PUBCHEM_IUPAC_OPENEYE_NAME>
5-(2-furyl)-N-[4-[4-(2-methoxyphenyl)piperazin-1-yl]butyl]-1H-pyrazole-3-carboxamide

> <PUBCHEM_IUPAC_CAS_NAME>
5-(2-furanyl)-N-[4-[4-(2-methoxyphenyl)-1-piperazinyl]butyl]-1H-pyrazole-3-carboxamide

> <PUBCHEM_IUPAC_NAME_MARKUP>
5-(furan-2-yl)-<I>N</I>-[4-[4-(2-methoxyphenyl)piperazin-1-yl]butyl]-1<I>H</I>-pyrazole-3-carboxamide

> <PUBCHEM_IUPAC_NAME>
5-(furan-2-yl)-N-[4-[4-(2-methoxyphenyl)piperazin-1-yl]butyl]-1H-pyrazole-3-carboxamide

> <PUBCHEM_IUPAC_SYSTEMATIC_NAME>
5-(furan-2-yl)-N-[4-[4-(2-methoxyphenyl)piperazin-1-yl]butyl]-1H-pyrazole-3-carboxamide

> <PUBCHEM_IUPAC_TRADITIONAL_NAME>
5-(2-furyl)-N-[4-[4-(2-methoxyphenyl)piperazino]butyl]-1H-pyrazole-3-carboxamide

> <PUBCHEM_IUPAC_INCHI>
InChI=1S/C23H29N5O3/c1-30-22-8-3-2-7-20(22)28-14-12-27(13-15-28)11-5-4-10-24-23(29)19-17-18(25-26-19)21-9-6-16-31-21/h2-3,6-9,16-17H,4-5,10-15H2,1H3,(H,24,29)(H,25,26)

> <PUBCHEM_IUPAC_INCHIKEY>
LPYJYJNIIRKQSC-UHFFFAOYSA-N

> <PUBCHEM_XLOGP3_AA>
2.9

> <PUBCHEM_EXACT_MASS>
423.22703980

> <PUBCHEM_MOLECULAR_FORMULA>
C23H29N5O3

> <PUBCHEM_MOLECULAR_WEIGHT>
423.5

> <PUBCHEM_OPENEYE_CAN_SMILES>
COC1=CC=CC=C1N2CCN(CC2)CCCCNC(=O)C3=NNC(=C3)C4=CC=CO4

> <PUBCHEM_OPENEYE_ISO_SMILES>
COC1=CC=CC=C1N2CCN(CC2)CCCCNC(=O)C3=NNC(=C3)C4=CC=CO4

> <PUBCHEM_CACTVS_TPSA>
86.6

> <PUBCHEM_MONOISOTOPIC_WEIGHT>
423.22703980

> <PUBCHEM_TOTAL_CHARGE>
0

> <PUBCHEM_HEAVY_ATOM_COUNT>
31

> <PUBCHEM_ATOM_DEF_STEREO_COUNT>
0

> <PUBCHEM_ATOM_UDEF_STEREO_COUNT>
0

> <PUBCHEM_BOND_DEF_STEREO_COUNT>
0

> <PUBCHEM_BOND_UDEF_STEREO_COUNT>
0

> <PUBCHEM_ISOTOPIC_ATOM_COUNT>
0

> <PUBCHEM_COMPONENT_COUNT>
1

> <PUBCHEM_CACTVS_TAUTO_COUNT>
-1

> <PUBCHEM_COORDINATE_TYPE>
1
5
255

> <PUBCHEM_BONDANNOTATIONS>
15  18  8
15  19  8
18  20  8
19  21  8
20  22  8
21  22  8
25  26  8
26  27  8
28  29  8
29  30  8
3  28  8
3  31  8
30  31  8
7  25  8
7  8  8
8  27  8

$$$$
