57393634
  -OEChem-09292322322D

145150  0     0  0  0  0  0  0999 V2000
    2.8660    6.2500    0.0000 O   0  0  0  0  0  0  0  0  0  0  0  0
   14.1244   -7.2500    0.0000 O   0  0  0  0  0  0  0  0  0  0  0  0
    5.4641    2.7500    0.0000 O   0  0  0  0  0  0  0  0  0  0  0  0
   10.6603   -6.2500    0.0000 O   0  0  0  0  0  0  0  0  0  0  0  0
    8.0622   13.2500    0.0000 O   0  0  0  0  0  0  0  0  0  0  0  0
   17.5885  -15.2500    0.0000 O   0  0  0  0  0  0  0  0  0  0  0  0
    6.3301    0.2500    0.0000 O   0  0  0  0  0  0  0  0  0  0  0  0
    8.9282   -4.2500    0.0000 O   0  0  0  0  0  0  0  0  0  0  0  0
    8.0622   -1.7500    0.0000 O   0  0  0  0  0  0  0  0  0  0  0  0
    4.5981    9.2500    0.0000 N   0  0  0  0  0  0  0  0  0  0  0  0
   15.8564  -10.2500    0.0000 N   0  0  0  0  0  0  0  0  0  0  0  0
    4.5981    7.2500    0.0000 N   0  0  0  0  0  0  0  0  0  0  0  0
   14.1244   -9.2500    0.0000 N   0  0  0  0  0  0  0  0  0  0  0  0
    6.3301   13.2500    0.0000 N   0  0  0  0  0  0  0  0  0  0  0  0
   18.4545  -13.7500    0.0000 N   0  0  0  0  0  0  0  0  0  0  0  0
    3.7320    8.7500    0.0000 C   0  0  0  0  0  0  0  0  0  0  0  0
    5.4641    8.7500    0.0000 C   0  0  0  0  0  0  0  0  0  0  0  0
   15.8564   -9.2500    0.0000 C   0  0  0  0  0  0  0  0  0  0  0  0
   14.9904  -10.7500    0.0000 C   0  0  0  0  0  0  0  0  0  0  0  0
    3.7320    7.7500    0.0000 C   0  0  0  0  0  0  0  0  0  0  0  0
    5.4641    7.7500    0.0000 C   0  0  0  0  0  0  0  0  0  0  0  0
   14.9904   -8.7500    0.0000 C   0  0  0  0  0  0  0  0  0  0  0  0
   14.1244  -10.2500    0.0000 C   0  0  0  0  0  0  0  0  0  0  0  0
    4.5981   10.2500    0.0000 C   0  0  0  0  0  0  0  0  0  0  0  0
   16.7224  -10.7500    0.0000 C   0  0  0  0  0  0  0  0  0  0  0  0
    5.4641   10.7500    0.0000 C   0  0  0  0  0  0  0  0  0  0  0  0
   16.7224  -11.7500    0.0000 C   0  0  0  0  0  0  0  0  0  0  0  0
    4.5981    6.2500    0.0000 C   0  0  0  0  0  0  0  0  0  0  0  0
   13.2583   -8.7500    0.0000 C   0  0  0  0  0  0  0  0  0  0  0  0
    5.4641   11.7500    0.0000 C   0  0  0  0  0  0  0  0  0  0  0  0
   17.5885  -12.2500    0.0000 C   0  0  0  0  0  0  0  0  0  0  0  0
    3.7320    5.7500    0.0000 C   0  0  0  0  0  0  0  0  0  0  0  0
   13.2583   -7.7500    0.0000 C   0  0  0  0  0  0  0  0  0  0  0  0
    5.4641    5.7500    0.0000 C   0  0  0  0  0  0  0  0  0  0  0  0
   12.3923   -9.2500    0.0000 C   0  0  0  0  0  0  0  0  0  0  0  0
    6.3301   12.2500    0.0000 C   0  0  0  0  0  0  0  0  0  0  0  0
   17.5885  -13.2500    0.0000 C   0  0  0  0  0  0  0  0  0  0  0  0
    3.7320    4.7500    0.0000 C   0  0  0  0  0  0  0  0  0  0  0  0
   12.3923   -7.2500    0.0000 C   0  0  0  0  0  0  0  0  0  0  0  0
    5.4641    4.7500    0.0000 C   0  0  0  0  0  0  0  0  0  0  0  0
   11.5263   -8.7500    0.0000 C   0  0  0  0  0  0  0  0  0  0  0  0
    4.5981    4.2500    0.0000 C   0  0  0  0  0  0  0  0  0  0  0  0
   11.5263   -7.7500    0.0000 C   0  0  0  0  0  0  0  0  0  0  0  0
    4.5981    3.2500    0.0000 C   0  0  0  0  0  0  0  0  0  0  0  0
   10.6603   -7.2500    0.0000 C   0  0  0  0  0  0  0  0  0  0  0  0
    7.1962   13.7500    0.0000 C   0  0  0  0  0  0  0  0  0  0  0  0
   18.4545  -14.7500    0.0000 C   0  0  0  0  0  0  0  0  0  0  0  0
    2.0000    5.7500    0.0000 C   0  0  0  0  0  0  0  0  0  0  0  0
   14.1244   -6.2500    0.0000 C   0  0  0  0  0  0  0  0  0  0  0  0
    7.1962   14.7500    0.0000 C   0  0  0  0  0  0  0  0  0  0  0  0
   19.3205  -15.2500    0.0000 C   0  0  0  0  0  0  0  0  0  0  0  0
    5.4641    1.7500    0.0000 C   0  0  0  0  0  0  0  0  0  0  0  0
    9.7942   -5.7500    0.0000 C   0  0  0  0  0  0  0  0  0  0  0  0
    6.3301    1.2500    0.0000 C   0  0  0  0  0  0  0  0  0  0  0  0
    9.7942   -4.7500    0.0000 C   0  0  0  0  0  0  0  0  0  0  0  0
    8.0622   15.2500    0.0000 C   0  0  0  0  0  0  0  0  0  0  0  0
   19.3205  -16.2500    0.0000 C   0  0  0  0  0  0  0  0  0  0  0  0
    6.3301   15.2500    0.0000 C   0  0  0  0  0  0  0  0  0  0  0  0
   20.1865  -14.7500    0.0000 C   0  0  0  0  0  0  0  0  0  0  0  0
    8.0622   16.2500    0.0000 C   0  0  0  0  0  0  0  0  0  0  0  0
   20.1865  -16.7500    0.0000 C   0  0  0  0  0  0  0  0  0  0  0  0
    6.3301   16.2500    0.0000 C   0  0  0  0  0  0  0  0  0  0  0  0
   21.0526  -15.2500    0.0000 C   0  0  0  0  0  0  0  0  0  0  0  0
    7.1962   16.7500    0.0000 C   0  0  0  0  0  0  0  0  0  0  0  0
   21.0526  -16.2500    0.0000 C   0  0  0  0  0  0  0  0  0  0  0  0
    7.1962   -0.2500    0.0000 C   0  0  0  0  0  0  0  0  0  0  0  0
    8.9282   -3.2500    0.0000 C   0  0  0  0  0  0  0  0  0  0  0  0
    7.1962   -1.2500    0.0000 C   0  0  0  0  0  0  0  0  0  0  0  0
    8.0622   -2.7500    0.0000 C   0  0  0  0  0  0  0  0  0  0  0  0
    3.5200    9.3326    0.0000 H   0  0  0  0  0  0  0  0  0  0  0  0
    3.1215    8.6423    0.0000 H   0  0  0  0  0  0  0  0  0  0  0  0
    6.0747    8.6423    0.0000 H   0  0  0  0  0  0  0  0  0  0  0  0
    5.6762    9.3326    0.0000 H   0  0  0  0  0  0  0  0  0  0  0  0
   16.4670   -9.3577    0.0000 H   0  0  0  0  0  0  0  0  0  0  0  0
   16.0685   -8.6674    0.0000 H   0  0  0  0  0  0  0  0  0  0  0  0
   14.5919  -11.2249    0.0000 H   0  0  0  0  0  0  0  0  0  0  0  0
   15.3889  -11.2249    0.0000 H   0  0  0  0  0  0  0  0  0  0  0  0
    3.1215    7.8577    0.0000 H   0  0  0  0  0  0  0  0  0  0  0  0
    3.5200    7.1674    0.0000 H   0  0  0  0  0  0  0  0  0  0  0  0
    5.6762    7.1674    0.0000 H   0  0  0  0  0  0  0  0  0  0  0  0
    6.0747    7.8577    0.0000 H   0  0  0  0  0  0  0  0  0  0  0  0
   15.3889   -8.2750    0.0000 H   0  0  0  0  0  0  0  0  0  0  0  0
   14.5919   -8.2750    0.0000 H   0  0  0  0  0  0  0  0  0  0  0  0
   13.5138  -10.1423    0.0000 H   0  0  0  0  0  0  0  0  0  0  0  0
   13.9123  -10.8326    0.0000 H   0  0  0  0  0  0  0  0  0  0  0  0
    4.3860   10.8326    0.0000 H   0  0  0  0  0  0  0  0  0  0  0  0
    3.9875   10.1423    0.0000 H   0  0  0  0  0  0  0  0  0  0  0  0
   17.3330  -10.8577    0.0000 H   0  0  0  0  0  0  0  0  0  0  0  0
   16.9345  -10.1674    0.0000 H   0  0  0  0  0  0  0  0  0  0  0  0
    5.6762   10.1674    0.0000 H   0  0  0  0  0  0  0  0  0  0  0  0
    6.0747   10.8577    0.0000 H   0  0  0  0  0  0  0  0  0  0  0  0
   16.1119  -11.6423    0.0000 H   0  0  0  0  0  0  0  0  0  0  0  0
   16.5104  -12.3326    0.0000 H   0  0  0  0  0  0  0  0  0  0  0  0
    5.2520   12.3326    0.0000 H   0  0  0  0  0  0  0  0  0  0  0  0
    4.8535   11.6423    0.0000 H   0  0  0  0  0  0  0  0  0  0  0  0
   18.1990  -12.3577    0.0000 H   0  0  0  0  0  0  0  0  0  0  0  0
   17.8005  -11.6674    0.0000 H   0  0  0  0  0  0  0  0  0  0  0  0
    6.0010    6.0600    0.0000 H   0  0  0  0  0  0  0  0  0  0  0  0
   12.3923   -9.8700    0.0000 H   0  0  0  0  0  0  0  0  0  0  0  0
    6.5422   11.6674    0.0000 H   0  0  0  0  0  0  0  0  0  0  0  0
    6.9407   12.3577    0.0000 H   0  0  0  0  0  0  0  0  0  0  0  0
   16.9779  -13.1423    0.0000 H   0  0  0  0  0  0  0  0  0  0  0  0
   17.3764  -13.8326    0.0000 H   0  0  0  0  0  0  0  0  0  0  0  0
    3.1951    4.4400    0.0000 H   0  0  0  0  0  0  0  0  0  0  0  0
   12.3923   -6.6300    0.0000 H   0  0  0  0  0  0  0  0  0  0  0  0
    6.0010    4.4400    0.0000 H   0  0  0  0  0  0  0  0  0  0  0  0
   10.9893   -9.0600    0.0000 H   0  0  0  0  0  0  0  0  0  0  0  0
    5.7932   13.5600    0.0000 H   0  0  0  0  0  0  0  0  0  0  0  0
   18.9914  -13.4400    0.0000 H   0  0  0  0  0  0  0  0  0  0  0  0
    3.9875    3.3577    0.0000 H   0  0  0  0  0  0  0  0  0  0  0  0
    4.3860    2.6674    0.0000 H   0  0  0  0  0  0  0  0  0  0  0  0
   10.0497   -7.1423    0.0000 H   0  0  0  0  0  0  0  0  0  0  0  0
   10.4482   -7.8326    0.0000 H   0  0  0  0  0  0  0  0  0  0  0  0
    1.6900    6.2869    0.0000 H   0  0  0  0  0  0  0  0  0  0  0  0
    1.4631    5.4400    0.0000 H   0  0  0  0  0  0  0  0  0  0  0  0
    2.3100    5.2131    0.0000 H   0  0  0  0  0  0  0  0  0  0  0  0
   14.7444   -6.2500    0.0000 H   0  0  0  0  0  0  0  0  0  0  0  0
   14.1244   -5.6300    0.0000 H   0  0  0  0  0  0  0  0  0  0  0  0
   13.5044   -6.2500    0.0000 H   0  0  0  0  0  0  0  0  0  0  0  0
    4.8535    1.8577    0.0000 H   0  0  0  0  0  0  0  0  0  0  0  0
    5.2520    1.1674    0.0000 H   0  0  0  0  0  0  0  0  0  0  0  0
    9.1836   -5.6423    0.0000 H   0  0  0  0  0  0  0  0  0  0  0  0
    9.5822   -6.3326    0.0000 H   0  0  0  0  0  0  0  0  0  0  0  0
    6.9407    1.1423    0.0000 H   0  0  0  0  0  0  0  0  0  0  0  0
    6.5422    1.8326    0.0000 H   0  0  0  0  0  0  0  0  0  0  0  0
   10.4048   -4.8577    0.0000 H   0  0  0  0  0  0  0  0  0  0  0  0
   10.0063   -4.1674    0.0000 H   0  0  0  0  0  0  0  0  0  0  0  0
    8.5991   14.9400    0.0000 H   0  0  0  0  0  0  0  0  0  0  0  0
   18.7836  -16.5600    0.0000 H   0  0  0  0  0  0  0  0  0  0  0  0
    5.7932   14.9400    0.0000 H   0  0  0  0  0  0  0  0  0  0  0  0
   20.1865  -14.1300    0.0000 H   0  0  0  0  0  0  0  0  0  0  0  0
    8.5991   16.5600    0.0000 H   0  0  0  0  0  0  0  0  0  0  0  0
   20.1865  -17.3700    0.0000 H   0  0  0  0  0  0  0  0  0  0  0  0
    5.7932   16.5600    0.0000 H   0  0  0  0  0  0  0  0  0  0  0  0
   21.5895  -14.9400    0.0000 H   0  0  0  0  0  0  0  0  0  0  0  0
    7.1962   17.3700    0.0000 H   0  0  0  0  0  0  0  0  0  0  0  0
   21.5895  -16.5600    0.0000 H   0  0  0  0  0  0  0  0  0  0  0  0
    7.8067   -0.3577    0.0000 H   0  0  0  0  0  0  0  0  0  0  0  0
    7.4082    0.3326    0.0000 H   0  0  0  0  0  0  0  0  0  0  0  0
    9.5388   -3.3577    0.0000 H   0  0  0  0  0  0  0  0  0  0  0  0
    9.1403   -2.6674    0.0000 H   0  0  0  0  0  0  0  0  0  0  0  0
    6.5856   -1.1423    0.0000 H   0  0  0  0  0  0  0  0  0  0  0  0
    6.9841   -1.8326    0.0000 H   0  0  0  0  0  0  0  0  0  0  0  0
    7.4516   -2.6423    0.0000 H   0  0  0  0  0  0  0  0  0  0  0  0
    7.8501   -3.3326    0.0000 H   0  0  0  0  0  0  0  0  0  0  0  0
  1 32  1  0  0  0  0
  1 48  1  0  0  0  0
  2 33  1  0  0  0  0
  2 49  1  0  0  0  0
  3 44  1  0  0  0  0
  3 52  1  0  0  0  0
  4 45  1  0  0  0  0
  4 53  1  0  0  0  0
  5 46  2  0  0  0  0
  6 47  2  0  0  0  0
  7 54  1  0  0  0  0
  7 66  1  0  0  0  0
  8 55  1  0  0  0  0
  8 67  1  0  0  0  0
  9 68  1  0  0  0  0
  9 69  1  0  0  0  0
 10 16  1  0  0  0  0
 10 17  1  0  0  0  0
 10 24  1  0  0  0  0
 11 18  1  0  0  0  0
 11 19  1  0  0  0  0
 11 25  1  0  0  0  0
 12 20  1  0  0  0  0
 12 21  1  0  0  0  0
 12 28  1  0  0  0  0
 13 22  1  0  0  0  0
 13 23  1  0  0  0  0
 13 29  1  0  0  0  0
 14 36  1  0  0  0  0
 14 46  1  0  0  0  0
 14108  1  0  0  0  0
 15 37  1  0  0  0  0
 15 47  1  0  0  0  0
 15109  1  0  0  0  0
 16 20  1  0  0  0  0
 16 70  1  0  0  0  0
 16 71  1  0  0  0  0
 17 21  1  0  0  0  0
 17 72  1  0  0  0  0
 17 73  1  0  0  0  0
 18 22  1  0  0  0  0
 18 74  1  0  0  0  0
 18 75  1  0  0  0  0
 19 23  1  0  0  0  0
 19 76  1  0  0  0  0
 19 77  1  0  0  0  0
 20 78  1  0  0  0  0
 20 79  1  0  0  0  0
 21 80  1  0  0  0  0
 21 81  1  0  0  0  0
 22 82  1  0  0  0  0
 22 83  1  0  0  0  0
 23 84  1  0  0  0  0
 23 85  1  0  0  0  0
 24 26  1  0  0  0  0
 24 86  1  0  0  0  0
 24 87  1  0  0  0  0
 25 27  1  0  0  0  0
 25 88  1  0  0  0  0
 25 89  1  0  0  0  0
 26 30  1  0  0  0  0
 26 90  1  0  0  0  0
 26 91  1  0  0  0  0
 27 31  1  0  0  0  0
 27 92  1  0  0  0  0
 27 93  1  0  0  0  0
 28 32  2  0  0  0  0
 28 34  1  0  0  0  0
 29 33  2  0  0  0  0
 29 35  1  0  0  0  0
 30 36  1  0  0  0  0
 30 94  1  0  0  0  0
 30 95  1  0  0  0  0
 31 37  1  0  0  0  0
 31 96  1  0  0  0  0
 31 97  1  0  0  0  0
 32 38  1  0  0  0  0
 33 39  1  0  0  0  0
 34 40  2  0  0  0  0
 34 98  1  0  0  0  0
 35 41  2  0  0  0  0
 35 99  1  0  0  0  0
 36100  1  0  0  0  0
 36101  1  0  0  0  0
 37102  1  0  0  0  0
 37103  1  0  0  0  0
 38 42  2  0  0  0  0
 38104  1  0  0  0  0
 39 43  2  0  0  0  0
 39105  1  0  0  0  0
 40 42  1  0  0  0  0
 40106  1  0  0  0  0
 41 43  1  0  0  0  0
 41107  1  0  0  0  0
 42 44  1  0  0  0  0
 43 45  1  0  0  0  0
 44110  1  0  0  0  0
 44111  1  0  0  0  0
 45112  1  0  0  0  0
 45113  1  0  0  0  0
 46 50  1  0  0  0  0
 47 51  1  0  0  0  0
 48114  1  0  0  0  0
 48115  1  0  0  0  0
 48116  1  0  0  0  0
 49117  1  0  0  0  0
 49118  1  0  0  0  0
 49119  1  0  0  0  0
 50 56  2  0  0  0  0
 50 58  1  0  0  0  0
 51 57  2  0  0  0  0
 51 59  1  0  0  0  0
 52 54  1  0  0  0  0
 52120  1  0  0  0  0
 52121  1  0  0  0  0
 53 55  1  0  0  0  0
 53122  1  0  0  0  0
 53123  1  0  0  0  0
 54124  1  0  0  0  0
 54125  1  0  0  0  0
 55126  1  0  0  0  0
 55127  1  0  0  0  0
 56 60  1  0  0  0  0
 56128  1  0  0  0  0
 57 61  1  0  0  0  0
 57129  1  0  0  0  0
 58 62  2  0  0  0  0
 58130  1  0  0  0  0
 59 63  2  0  0  0  0
 59131  1  0  0  0  0
 60 64  2  0  0  0  0
 60132  1  0  0  0  0
 61 65  2  0  0  0  0
 61133  1  0  0  0  0
 62 64  1  0  0  0  0
 62134  1  0  0  0  0
 63 65  1  0  0  0  0
 63135  1  0  0  0  0
 64136  1  0  0  0  0
 65137  1  0  0  0  0
 66 68  1  0  0  0  0
 66138  1  0  0  0  0
 66139  1  0  0  0  0
 67 69  1  0  0  0  0
 67140  1  0  0  0  0
 67141  1  0  0  0  0
 68142  1  0  0  0  0
 68143  1  0  0  0  0
 69144  1  0  0  0  0
 69145  1  0  0  0  0
M  END
> <PUBCHEM_COMPOUND_CID>
57393634

> <PUBCHEM_COMPOUND_CANONICALIZED>
1

> <PUBCHEM_CACTVS_COMPLEXITY>
1250

> <PUBCHEM_CACTVS_HBOND_ACCEPTOR>
13

> <PUBCHEM_CACTVS_HBOND_DONOR>
2

> <PUBCHEM_CACTVS_ROTATABLE_BOND>
32

> <PUBCHEM_CACTVS_SUBSKEYS>
AAADcfB/vAAAAAAAAAAAAAAAAAAAAAAAAAA8eMGCAAAAAAABVAAAHgAQAAAADAzhmAYyxoPABACIAiVSUACCCAAlIgAIiIEPbMgPZjLEtZuXMShk1hHa6YfY2DOOCAABAAAAEAAQAAIAAAAgAAAAAAAAAA==

> <PUBCHEM_IUPAC_OPENEYE_NAME>
N-[4-[4-[4-[2-[2-[2-[2-[[4-[4-(4-benzamidobutyl)piperazin-1-yl]-3-methoxy-phenyl]methoxy]ethoxy]ethoxy]ethoxy]ethoxymethyl]-2-methoxy-phenyl]piperazin-1-yl]butyl]benzamide

> <PUBCHEM_IUPAC_CAS_NAME>
N-[4-[4-[4-[2-[2-[2-[2-[[4-[4-(4-benzamidobutyl)-1-piperazinyl]-3-methoxyphenyl]methoxy]ethoxy]ethoxy]ethoxy]ethoxymethyl]-2-methoxyphenyl]-1-piperazinyl]butyl]benzamide

> <PUBCHEM_IUPAC_NAME_MARKUP>
<I>N</I>-[4-[4-[4-[2-[2-[2-[2-[[4-[4-(4-benzamidobutyl)piperazin-1-yl]-3-methoxyphenyl]methoxy]ethoxy]ethoxy]ethoxy]ethoxymethyl]-2-methoxyphenyl]piperazin-1-yl]butyl]benzamide

> <PUBCHEM_IUPAC_NAME>
N-[4-[4-[4-[2-[2-[2-[2-[[4-[4-(4-benzamidobutyl)piperazin-1-yl]-3-methoxyphenyl]methoxy]ethoxy]ethoxy]ethoxy]ethoxymethyl]-2-methoxyphenyl]piperazin-1-yl]butyl]benzamide

> <PUBCHEM_IUPAC_SYSTEMATIC_NAME>
N-[4-[4-[4-[2-[2-[2-[2-[[4-[4-(4-benzamidobutyl)piperazin-1-yl]-3-methoxy-phenyl]methoxy]ethoxy]ethoxy]ethoxy]ethoxymethyl]-2-methoxy-phenyl]piperazin-1-yl]butyl]benzamide

> <PUBCHEM_IUPAC_TRADITIONAL_NAME>
N-[4-[4-[4-[2-[2-[2-[2-[4-[4-(4-benzamidobutyl)piperazino]-3-methoxy-benzyl]oxyethoxy]ethoxy]ethoxy]ethoxymethyl]-2-methoxy-phenyl]piperazino]butyl]benzamide

> <PUBCHEM_IUPAC_INCHI>
InChI=1S/C54H76N6O9/c1-63-51-41-45(17-19-49(51)59-29-25-57(26-30-59)23-11-9-21-55-53(61)47-13-5-3-6-14-47)43-68-39-37-66-35-33-65-34-36-67-38-40-69-44-46-18-20-50(52(42-46)64-2)60-31-27-58(28-32-60)24-12-10-22-56-54(62)48-15-7-4-8-16-48/h3-8,13-20,41-42H,9-12,21-40,43-44H2,1-2H3,(H,55,61)(H,56,62)

> <PUBCHEM_IUPAC_INCHIKEY>
BGMQCQHMPBHOMK-UHFFFAOYSA-N

> <PUBCHEM_XLOGP3_AA>
5.7

> <PUBCHEM_EXACT_MASS>
952.56737802

> <PUBCHEM_MOLECULAR_FORMULA>
C54H76N6O9

> <PUBCHEM_MOLECULAR_WEIGHT>
953.2

> <PUBCHEM_OPENEYE_CAN_SMILES>
COC1=C(C=CC(=C1)COCCOCCOCCOCCOCC2=CC(=C(C=C2)N3CCN(CC3)CCCCNC(=O)C4=CC=CC=C4)OC)N5CCN(CC5)CCCCNC(=O)C6=CC=CC=C6

> <PUBCHEM_OPENEYE_ISO_SMILES>
COC1=C(C=CC(=C1)COCCOCCOCCOCCOCC2=CC(=C(C=C2)N3CCN(CC3)CCCCNC(=O)C4=CC=CC=C4)OC)N5CCN(CC5)CCCCNC(=O)C6=CC=CC=C6

> <PUBCHEM_CACTVS_TPSA>
136

> <PUBCHEM_MONOISOTOPIC_WEIGHT>
952.56737802

> <PUBCHEM_TOTAL_CHARGE>
0

> <PUBCHEM_HEAVY_ATOM_COUNT>
69

> <PUBCHEM_ATOM_DEF_STEREO_COUNT>
0

> <PUBCHEM_ATOM_UDEF_STEREO_COUNT>
0

> <PUBCHEM_BOND_DEF_STEREO_COUNT>
0

> <PUBCHEM_BOND_UDEF_STEREO_COUNT>
0

> <PUBCHEM_ISOTOPIC_ATOM_COUNT>
0

> <PUBCHEM_COMPONENT_COUNT>
1

> <PUBCHEM_CACTVS_TAUTO_COUNT>
-1

> <PUBCHEM_COORDINATE_TYPE>
1
5
255

> <PUBCHEM_BONDANNOTATIONS>
28  32  8
28  34  8
29  33  8
29  35  8
32  38  8
33  39  8
34  40  8
35  41  8
38  42  8
39  43  8
40  42  8
41  43  8
50  56  8
50  58  8
51  57  8
51  59  8
56  60  8
57  61  8
58  62  8
59  63  8
60  64  8
61  65  8
62  64  8
63  65  8

$$$$
