44350920
  -OEChem-09292322112D

 77 79  0     0  0  0  0  0  0999 V2000
   11.0225    0.0000    0.0000 Cl  0  0  0  0  0  0  0  0  0  0  0  0
    9.4932    3.1869    0.0000 O   0  0  0  0  0  0  0  0  0  0  0  0
    2.6788    8.6241    0.0000 O   0  0  0  0  0  0  0  0  0  0  0  0
    5.1499   13.5545    0.0000 O   0  0  0  0  0  0  0  0  0  0  0  0
    7.7480   13.0545    0.0000 O   0  0  0  0  0  0  0  0  0  0  0  0
    6.0160   12.0545    0.0000 O   0  0  0  0  0  0  0  0  0  0  0  0
    6.8820   14.5545    0.0000 O   0  0  0  0  0  0  0  0  0  0  0  0
    9.5537    4.9178    0.0000 N   0  0  0  0  0  0  0  0  0  0  0  0
    5.6166    6.7884    0.0000 N   0  0  0  0  0  0  0  0  0  0  0  0
    3.6178    6.8582    0.0000 N   0  0  0  0  0  0  0  0  0  0  0  0
   11.0225    4.0000    0.0000 C   0  0  0  0  0  0  0  0  0  0  0  0
   12.0225    4.0000    0.0000 C   0  0  0  0  0  0  0  0  0  0  0  0
   10.7135    4.9511    0.0000 C   0  0  0  0  0  0  0  0  0  0  0  0
   12.3315    4.9511    0.0000 C   0  0  0  0  0  0  0  0  0  0  0  0
   11.5225    5.5388    0.0000 C   0  0  0  0  0  0  0  0  0  0  0  0
   11.0225    3.0000    0.0000 C   0  0  0  0  0  0  0  0  0  0  0  0
   10.0231    4.0350    0.0000 C   0  0  0  0  0  0  0  0  0  0  0  0
   10.1565    2.5000    0.0000 C   0  0  0  0  0  0  0  0  0  0  0  0
   11.8886    2.5000    0.0000 C   0  0  0  0  0  0  0  0  0  0  0  0
    8.5543    4.9528    0.0000 C   0  0  0  0  0  0  0  0  0  0  0  0
    8.0848    5.8357    0.0000 C   0  0  0  0  0  0  0  0  0  0  0  0
    6.6159    6.7535    0.0000 C   0  0  0  0  0  0  0  0  0  0  0  0
    7.0854    5.8706    0.0000 C   0  0  0  0  0  0  0  0  0  0  0  0
    5.1471    7.6714    0.0000 C   0  0  0  0  0  0  0  0  0  0  0  0
    5.0867    5.9405    0.0000 C   0  0  0  0  0  0  0  0  0  0  0  0
    4.1477    7.7063    0.0000 C   0  0  0  0  0  0  0  0  0  0  0  0
    4.0873    5.9754    0.0000 C   0  0  0  0  0  0  0  0  0  0  0  0
   10.1565    1.5000    0.0000 C   0  0  0  0  0  0  0  0  0  0  0  0
   11.8886    1.5000    0.0000 C   0  0  0  0  0  0  0  0  0  0  0  0
   11.0225    1.0000    0.0000 C   0  0  0  0  0  0  0  0  0  0  0  0
    2.6184    6.8932    0.0000 C   0  0  0  0  0  0  0  0  0  0  0  0
    2.1489    7.7761    0.0000 C   0  0  0  0  0  0  0  0  0  0  0  0
    2.0885    6.0452    0.0000 C   0  0  0  0  0  0  0  0  0  0  0  0
    1.1495    7.8110    0.0000 C   0  0  0  0  0  0  0  0  0  0  0  0
    1.0891    6.0801    0.0000 C   0  0  0  0  0  0  0  0  0  0  0  0
    0.6196    6.9630    0.0000 C   0  0  0  0  0  0  0  0  0  0  0  0
    2.2094    9.5071    0.0000 C   0  0  0  0  0  0  0  0  0  0  0  0
    6.0160   13.0545    0.0000 C   0  0  0  0  0  0  0  0  0  0  0  0
    6.8820   13.5545    0.0000 C   0  0  0  0  0  0  0  0  0  0  0  0
   11.9577    3.3834    0.0000 H   0  0  0  0  0  0  0  0  0  0  0  0
   12.6290    3.8711    0.0000 H   0  0  0  0  0  0  0  0  0  0  0  0
   10.4035    5.4880    0.0000 H   0  0  0  0  0  0  0  0  0  0  0  0
   10.1471    4.6989    0.0000 H   0  0  0  0  0  0  0  0  0  0  0  0
   12.8979    4.6989    0.0000 H   0  0  0  0  0  0  0  0  0  0  0  0
   12.6415    5.4880    0.0000 H   0  0  0  0  0  0  0  0  0  0  0  0
   11.9374    5.9996    0.0000 H   0  0  0  0  0  0  0  0  0  0  0  0
   11.1077    5.9996    0.0000 H   0  0  0  0  0  0  0  0  0  0  0  0
    9.8822    5.4436    0.0000 H   0  0  0  0  0  0  0  0  0  0  0  0
    9.6196    2.8100    0.0000 H   0  0  0  0  0  0  0  0  0  0  0  0
   12.4255    2.8100    0.0000 H   0  0  0  0  0  0  0  0  0  0  0  0
    7.9646    4.7612    0.0000 H   0  0  0  0  0  0  0  0  0  0  0  0
    8.6406    4.3388    0.0000 H   0  0  0  0  0  0  0  0  0  0  0  0
    8.6745    6.0273    0.0000 H   0  0  0  0  0  0  0  0  0  0  0  0
    7.9985    6.4497    0.0000 H   0  0  0  0  0  0  0  0  0  0  0  0
    7.2056    6.9451    0.0000 H   0  0  0  0  0  0  0  0  0  0  0  0
    6.5296    7.3675    0.0000 H   0  0  0  0  0  0  0  0  0  0  0  0
    6.4958    5.6790    0.0000 H   0  0  0  0  0  0  0  0  0  0  0  0
    7.1717    5.2566    0.0000 H   0  0  0  0  0  0  0  0  0  0  0  0
    5.7367    7.8630    0.0000 H   0  0  0  0  0  0  0  0  0  0  0  0
    5.0608    8.2854    0.0000 H   0  0  0  0  0  0  0  0  0  0  0  0
    4.9578    5.3340    0.0000 H   0  0  0  0  0  0  0  0  0  0  0  0
    5.6615    5.7082    0.0000 H   0  0  0  0  0  0  0  0  0  0  0  0
    4.2766    8.3127    0.0000 H   0  0  0  0  0  0  0  0  0  0  0  0
    3.5728    7.9385    0.0000 H   0  0  0  0  0  0  0  0  0  0  0  0
    3.4976    5.7838    0.0000 H   0  0  0  0  0  0  0  0  0  0  0  0
    4.1736    5.3614    0.0000 H   0  0  0  0  0  0  0  0  0  0  0  0
    9.6196    1.1900    0.0000 H   0  0  0  0  0  0  0  0  0  0  0  0
   12.4255    1.1900    0.0000 H   0  0  0  0  0  0  0  0  0  0  0  0
    2.3796    5.4978    0.0000 H   0  0  0  0  0  0  0  0  0  0  0  0
    0.8584    8.3584    0.0000 H   0  0  0  0  0  0  0  0  0  0  0  0
    0.7605    5.5543    0.0000 H   0  0  0  0  0  0  0  0  0  0  0  0
    0.0000    6.9847    0.0000 H   0  0  0  0  0  0  0  0  0  0  0  0
    2.7568    9.7982    0.0000 H   0  0  0  0  0  0  0  0  0  0  0  0
    1.9183   10.0545    0.0000 H   0  0  0  0  0  0  0  0  0  0  0  0
    1.6619    9.2160    0.0000 H   0  0  0  0  0  0  0  0  0  0  0  0
    4.6130   13.2445    0.0000 H   0  0  0  0  0  0  0  0  0  0  0  0
    8.2850   13.3645    0.0000 H   0  0  0  0  0  0  0  0  0  0  0  0
  1 30  1  0  0  0  0
  2 17  2  0  0  0  0
  3 32  1  0  0  0  0
  3 37  1  0  0  0  0
  4 38  1  0  0  0  0
  4 76  1  0  0  0  0
  5 39  1  0  0  0  0
  5 77  1  0  0  0  0
  6 38  2  0  0  0  0
  7 39  2  0  0  0  0
  8 17  1  0  0  0  0
  8 20  1  0  0  0  0
  8 48  1  0  0  0  0
  9 22  1  0  0  0  0
  9 24  1  0  0  0  0
  9 25  1  0  0  0  0
 10 26  1  0  0  0  0
 10 27  1  0  0  0  0
 10 31  1  0  0  0  0
 11 12  1  0  0  0  0
 11 13  1  0  0  0  0
 11 16  1  0  0  0  0
 11 17  1  0  0  0  0
 12 14  1  0  0  0  0
 12 40  1  0  0  0  0
 12 41  1  0  0  0  0
 13 15  1  0  0  0  0
 13 42  1  0  0  0  0
 13 43  1  0  0  0  0
 14 15  1  0  0  0  0
 14 44  1  0  0  0  0
 14 45  1  0  0  0  0
 15 46  1  0  0  0  0
 15 47  1  0  0  0  0
 16 18  2  0  0  0  0
 16 19  1  0  0  0  0
 18 28  1  0  0  0  0
 18 49  1  0  0  0  0
 19 29  2  0  0  0  0
 19 50  1  0  0  0  0
 20 21  1  0  0  0  0
 20 51  1  0  0  0  0
 20 52  1  0  0  0  0
 21 23  1  0  0  0  0
 21 53  1  0  0  0  0
 21 54  1  0  0  0  0
 22 23  1  0  0  0  0
 22 55  1  0  0  0  0
 22 56  1  0  0  0  0
 23 57  1  0  0  0  0
 23 58  1  0  0  0  0
 24 26  1  0  0  0  0
 24 59  1  0  0  0  0
 24 60  1  0  0  0  0
 25 27  1  0  0  0  0
 25 61  1  0  0  0  0
 25 62  1  0  0  0  0
 26 63  1  0  0  0  0
 26 64  1  0  0  0  0
 27 65  1  0  0  0  0
 27 66  1  0  0  0  0
 28 30  2  0  0  0  0
 28 67  1  0  0  0  0
 29 30  1  0  0  0  0
 29 68  1  0  0  0  0
 31 32  1  0  0  0  0
 31 33  2  0  0  0  0
 32 34  2  0  0  0  0
 33 35  1  0  0  0  0
 33 69  1  0  0  0  0
 34 36  1  0  0  0  0
 34 70  1  0  0  0  0
 35 36  2  0  0  0  0
 35 71  1  0  0  0  0
 36 72  1  0  0  0  0
 37 73  1  0  0  0  0
 37 74  1  0  0  0  0
 37 75  1  0  0  0  0
 38 39  1  0  0  0  0
M  END
> <PUBCHEM_COMPOUND_CID>
44350920

> <PUBCHEM_COMPOUND_CANONICALIZED>
1

> <PUBCHEM_CACTVS_COMPLEXITY>
668

> <PUBCHEM_CACTVS_HBOND_ACCEPTOR>
8

> <PUBCHEM_CACTVS_HBOND_DONOR>
3

> <PUBCHEM_CACTVS_ROTATABLE_BOND>
10

> <PUBCHEM_CACTVS_SUBSKEYS>
AAADcfB7OAAEAAAAAAAAAAAAAAAAAYAAAAA8YIAAAAAAAAABQAAAHgIQCAAADg7BmCYyzoPABgCIAiXSWAKCCAAhJwAIiIFPbogPZjLFt5uVMChk1hHZ6AeYyMCPhAAAAAAAEAAIAAAAAAAgAAAAAAAAAA==

> <PUBCHEM_IUPAC_OPENEYE_NAME>
1-(4-chlorophenyl)-N-[4-[4-(2-methoxyphenyl)piperazin-1-yl]butyl]cyclopentanecarboxamide;oxalic acid

> <PUBCHEM_IUPAC_CAS_NAME>
1-(4-chlorophenyl)-N-[4-[4-(2-methoxyphenyl)-1-piperazinyl]butyl]-1-cyclopentanecarboxamide;oxalic acid

> <PUBCHEM_IUPAC_NAME_MARKUP>
1-(4-chlorophenyl)-<I>N</I>-[4-[4-(2-methoxyphenyl)piperazin-1-yl]butyl]cyclopentane-1-carboxamide;oxalic acid

> <PUBCHEM_IUPAC_NAME>
1-(4-chlorophenyl)-N-[4-[4-(2-methoxyphenyl)piperazin-1-yl]butyl]cyclopentane-1-carboxamide;oxalic acid

> <PUBCHEM_IUPAC_SYSTEMATIC_NAME>
1-(4-chlorophenyl)-N-[4-[4-(2-methoxyphenyl)piperazin-1-yl]butyl]cyclopentane-1-carboxamide;ethanedioic acid

> <PUBCHEM_IUPAC_TRADITIONAL_NAME>
1-(4-chlorophenyl)-N-[4-[4-(2-methoxyphenyl)piperazino]butyl]cyclopentanecarboxamide;oxalic acid

> <PUBCHEM_IUPAC_INCHI>
InChI=1S/C27H36ClN3O2.C2H2O4/c1-33-25-9-3-2-8-24(25)31-20-18-30(19-21-31)17-7-6-16-29-26(32)27(14-4-5-15-27)22-10-12-23(28)13-11-22;3-1(4)2(5)6/h2-3,8-13H,4-7,14-21H2,1H3,(H,29,32);(H,3,4)(H,5,6)

> <PUBCHEM_IUPAC_INCHIKEY>
VLNQYVLKJNYJKD-UHFFFAOYSA-N

> <PUBCHEM_EXACT_MASS>
559.2449136

> <PUBCHEM_MOLECULAR_FORMULA>
C29H38ClN3O6

> <PUBCHEM_MOLECULAR_WEIGHT>
560.1

> <PUBCHEM_OPENEYE_CAN_SMILES>
COC1=CC=CC=C1N2CCN(CC2)CCCCNC(=O)C3(CCCC3)C4=CC=C(C=C4)Cl.C(=O)(C(=O)O)O

> <PUBCHEM_OPENEYE_ISO_SMILES>
COC1=CC=CC=C1N2CCN(CC2)CCCCNC(=O)C3(CCCC3)C4=CC=C(C=C4)Cl.C(=O)(C(=O)O)O

> <PUBCHEM_CACTVS_TPSA>
119

> <PUBCHEM_MONOISOTOPIC_WEIGHT>
559.2449136

> <PUBCHEM_TOTAL_CHARGE>
0

> <PUBCHEM_HEAVY_ATOM_COUNT>
39

> <PUBCHEM_ATOM_DEF_STEREO_COUNT>
0

> <PUBCHEM_ATOM_UDEF_STEREO_COUNT>
0

> <PUBCHEM_BOND_DEF_STEREO_COUNT>
0

> <PUBCHEM_BOND_UDEF_STEREO_COUNT>
0

> <PUBCHEM_ISOTOPIC_ATOM_COUNT>
0

> <PUBCHEM_COMPONENT_COUNT>
2

> <PUBCHEM_CACTVS_TAUTO_COUNT>
-1

> <PUBCHEM_COORDINATE_TYPE>
1
5
255

> <PUBCHEM_BONDANNOTATIONS>
16  18  8
16  19  8
18  28  8
19  29  8
28  30  8
29  30  8
31  32  8
31  33  8
32  34  8
33  35  8
34  36  8
35  36  8

$$$$
