23625925
  -OEChem-09292322262D

 48 52  0     1  0  0  0  0  0999 V2000
    2.0000   -0.4257    0.0000 F   0  0  0  0  0  0  0  0  0  0  0  0
    4.7684    1.7960    0.0000 O   0  0  0  0  0  0  0  0  0  0  0  0
   11.0395    1.5981    0.0000 O   0  0  0  0  0  0  0  0  0  0  0  0
    8.4414   -0.9019    0.0000 N   0  0  0  0  0  0  0  0  0  0  0  0
   12.8517   -1.2067    0.0000 N   0  0  0  0  0  0  0  0  0  0  0  0
    5.7402    1.5868    0.0000 N   0  0  0  0  0  0  0  0  0  0  0  0
   13.4353   -0.4019    0.0000 N   0  0  0  0  0  0  0  0  0  0  0  0
    6.7093    0.0981    0.0000 C   0  0  0  0  0  0  0  0  0  0  0  0
   10.1734   -0.9019    0.0000 C   0  0  3  0  0  0  0  0  0  0  0  0
    9.3074   -1.4019    0.0000 C   0  0  0  0  0  0  0  0  0  0  0  0
    6.7093   -0.9019    0.0000 C   0  0  0  0  0  0  0  0  0  0  0  0
    7.5754    0.5981    0.0000 C   0  0  0  0  0  0  0  0  0  0  0  0
    7.5754   -1.4019    0.0000 C   0  0  0  0  0  0  0  0  0  0  0  0
    8.4414    0.0981    0.0000 C   0  0  0  0  0  0  0  0  0  0  0  0
   11.0395   -1.4019    0.0000 C   0  0  0  0  0  0  0  0  0  0  0  0
   10.1734    0.0981    0.0000 C   0  0  0  0  0  0  0  0  0  0  0  0
    5.8433    0.5981    0.0000 C   0  0  0  0  0  0  0  0  0  0  0  0
   11.9055   -0.9019    0.0000 C   0  0  0  0  0  0  0  0  0  0  0  0
   11.0395    0.5981    0.0000 C   0  0  0  0  0  0  0  0  0  0  0  0
   11.9055    0.0981    0.0000 C   0  0  0  0  0  0  0  0  0  0  0  0
    4.9355    0.1930    0.0000 C   0  0  0  0  0  0  0  0  0  0  0  0
   12.8517    0.4028    0.0000 C   0  0  0  0  0  0  0  0  0  0  0  0
    4.2677    0.9373    0.0000 C   0  0  0  0  0  0  0  0  0  0  0  0
    4.6249   -0.7576    0.0000 C   0  0  0  0  0  0  0  0  0  0  0  0
    3.2892    0.7310    0.0000 C   0  0  0  0  0  0  0  0  0  0  0  0
    3.6464   -0.9638    0.0000 C   0  0  0  0  0  0  0  0  0  0  0  0
    2.9785   -0.2195    0.0000 C   0  0  0  0  0  0  0  0  0  0  0  0
    6.7093    0.7181    0.0000 H   0  0  0  0  0  0  0  0  0  0  0  0
   10.1734   -1.5219    0.0000 H   0  0  0  0  0  0  0  0  0  0  0  0
    8.9089   -1.8769    0.0000 H   0  0  0  0  0  0  0  0  0  0  0  0
    9.7059   -1.8769    0.0000 H   0  0  0  0  0  0  0  0  0  0  0  0
    6.0988   -0.7943    0.0000 H   0  0  0  0  0  0  0  0  0  0  0  0
    6.4973   -1.4846    0.0000 H   0  0  0  0  0  0  0  0  0  0  0  0
    7.9739    1.0730    0.0000 H   0  0  0  0  0  0  0  0  0  0  0  0
    7.1768    1.0730    0.0000 H   0  0  0  0  0  0  0  0  0  0  0  0
    7.1768   -1.8769    0.0000 H   0  0  0  0  0  0  0  0  0  0  0  0
    7.9739   -1.8769    0.0000 H   0  0  0  0  0  0  0  0  0  0  0  0
    9.0520   -0.0096    0.0000 H   0  0  0  0  0  0  0  0  0  0  0  0
    8.6534    0.6807    0.0000 H   0  0  0  0  0  0  0  0  0  0  0  0
   10.6409   -1.8769    0.0000 H   0  0  0  0  0  0  0  0  0  0  0  0
   11.4380   -1.8769    0.0000 H   0  0  0  0  0  0  0  0  0  0  0  0
    9.9614    0.6807    0.0000 H   0  0  0  0  0  0  0  0  0  0  0  0
    9.5628   -0.0096    0.0000 H   0  0  0  0  0  0  0  0  0  0  0  0
   13.0443   -1.7960    0.0000 H   0  0  0  0  0  0  0  0  0  0  0  0
   13.0443    0.9921    0.0000 H   0  0  0  0  0  0  0  0  0  0  0  0
    5.0389   -1.2190    0.0000 H   0  0  0  0  0  0  0  0  0  0  0  0
    2.8751    1.1925    0.0000 H   0  0  0  0  0  0  0  0  0  0  0  0
    3.4537   -1.5531    0.0000 H   0  0  0  0  0  0  0  0  0  0  0  0
  1 27  1  0  0  0  0
  2  6  1  0  0  0  0
  2 23  1  0  0  0  0
  3 19  2  0  0  0  0
  4 10  1  0  0  0  0
  4 13  1  0  0  0  0
  4 14  1  0  0  0  0
  5  7  1  0  0  0  0
  5 18  1  0  0  0  0
  5 44  1  0  0  0  0
  6 17  2  0  0  0  0
  7 22  2  0  0  0  0
  8 11  1  0  0  0  0
  8 12  1  0  0  0  0
  8 17  1  0  0  0  0
  8 28  1  0  0  0  0
  9 10  1  0  0  0  0
  9 15  1  0  0  0  0
  9 16  1  0  0  0  0
  9 29  1  0  0  0  0
 10 30  1  0  0  0  0
 10 31  1  0  0  0  0
 11 13  1  0  0  0  0
 11 32  1  0  0  0  0
 11 33  1  0  0  0  0
 12 14  1  0  0  0  0
 12 34  1  0  0  0  0
 12 35  1  0  0  0  0
 13 36  1  0  0  0  0
 13 37  1  0  0  0  0
 14 38  1  0  0  0  0
 14 39  1  0  0  0  0
 15 18  1  0  0  0  0
 15 40  1  0  0  0  0
 15 41  1  0  0  0  0
 16 19  1  0  0  0  0
 16 42  1  0  0  0  0
 16 43  1  0  0  0  0
 17 21  1  0  0  0  0
 18 20  2  0  0  0  0
 19 20  1  0  0  0  0
 20 22  1  0  0  0  0
 21 23  2  0  0  0  0
 21 24  1  0  0  0  0
 22 45  1  0  0  0  0
 23 25  1  0  0  0  0
 24 26  2  0  0  0  0
 24 46  1  0  0  0  0
 25 27  2  0  0  0  0
 25 47  1  0  0  0  0
 26 27  1  0  0  0  0
 26 48  1  0  0  0  0
M  END
> <PUBCHEM_COMPOUND_CID>
23625925

> <PUBCHEM_COMPOUND_CANONICALIZED>
1

> <PUBCHEM_CACTVS_COMPLEXITY>
556

> <PUBCHEM_CACTVS_HBOND_ACCEPTOR>
6

> <PUBCHEM_CACTVS_HBOND_DONOR>
1

> <PUBCHEM_CACTVS_ROTATABLE_BOND>
3

> <PUBCHEM_CACTVS_SUBSKEYS>
AAADceB7sQAAAAAAAAAAAAAAAAAAAWLAAAA8YIAAAAAAAFgB/AAAHwAcAAAADQzBngw8htNzAACrA7R3QgCSBAAkoAA4uSE+TNoIJrqA1dOEtYBm2BmIycecyeCeAAAAAAAIAACAAACAABQAAAAAAAAAAA==

> <PUBCHEM_IUPAC_OPENEYE_NAME>
6-[[4-(6-fluoro-1,2-benzoxazol-3-yl)-1-piperidyl]methyl]-1,5,6,7-tetrahydroindazol-4-one

> <PUBCHEM_IUPAC_CAS_NAME>
6-[[4-(6-fluoro-1,2-benzoxazol-3-yl)-1-piperidinyl]methyl]-1,5,6,7-tetrahydroindazol-4-one

> <PUBCHEM_IUPAC_NAME_MARKUP>
6-[[4-(6-fluoro-1,2-benzoxazol-3-yl)piperidin-1-yl]methyl]-1,5,6,7-tetrahydroindazol-4-one

> <PUBCHEM_IUPAC_NAME>
6-[[4-(6-fluoro-1,2-benzoxazol-3-yl)piperidin-1-yl]methyl]-1,5,6,7-tetrahydroindazol-4-one

> <PUBCHEM_IUPAC_SYSTEMATIC_NAME>
6-[[4-(6-fluoranyl-1,2-benzoxazol-3-yl)piperidin-1-yl]methyl]-1,5,6,7-tetrahydroindazol-4-one

> <PUBCHEM_IUPAC_TRADITIONAL_NAME>
6-[[4-(6-fluoroindoxazen-3-yl)piperidino]methyl]-1,5,6,7-tetrahydroindazol-4-one

> <PUBCHEM_IUPAC_INCHI>
InChI=1S/C20H21FN4O2/c21-14-1-2-15-19(9-14)27-24-20(15)13-3-5-25(6-4-13)11-12-7-17-16(10-22-23-17)18(26)8-12/h1-2,9-10,12-13H,3-8,11H2,(H,22,23)

> <PUBCHEM_IUPAC_INCHIKEY>
GQVQHZLEHMPPJD-UHFFFAOYSA-N

> <PUBCHEM_XLOGP3_AA>
2.4

> <PUBCHEM_EXACT_MASS>
368.16485409

> <PUBCHEM_MOLECULAR_FORMULA>
C20H21FN4O2

> <PUBCHEM_MOLECULAR_WEIGHT>
368.4

> <PUBCHEM_OPENEYE_CAN_SMILES>
C1CN(CCC1C2=NOC3=C2C=CC(=C3)F)CC4CC5=C(C=NN5)C(=O)C4

> <PUBCHEM_OPENEYE_ISO_SMILES>
C1CN(CCC1C2=NOC3=C2C=CC(=C3)F)CC4CC5=C(C=NN5)C(=O)C4

> <PUBCHEM_CACTVS_TPSA>
75

> <PUBCHEM_MONOISOTOPIC_WEIGHT>
368.16485409

> <PUBCHEM_TOTAL_CHARGE>
0

> <PUBCHEM_HEAVY_ATOM_COUNT>
27

> <PUBCHEM_ATOM_DEF_STEREO_COUNT>
0

> <PUBCHEM_ATOM_UDEF_STEREO_COUNT>
1

> <PUBCHEM_BOND_DEF_STEREO_COUNT>
0

> <PUBCHEM_BOND_UDEF_STEREO_COUNT>
0

> <PUBCHEM_ISOTOPIC_ATOM_COUNT>
0

> <PUBCHEM_COMPONENT_COUNT>
1

> <PUBCHEM_CACTVS_TAUTO_COUNT>
-1

> <PUBCHEM_COORDINATE_TYPE>
1
5
255

> <PUBCHEM_BONDANNOTATIONS>
17  21  8
18  20  8
2  23  8
2  6  8
20  22  8
21  23  8
21  24  8
23  25  8
24  26  8
25  27  8
26  27  8
5  18  8
5  7  8
6  17  8
7  22  8
9  10  3

$$$$
