155523337
  -OEChem-09292322092D

 49 51  0     0  0  0  0  0  0999 V2000
    6.5981    3.2010    0.0000 Cl  0  0  0  0  0  0  0  0  0  0  0  0
    3.5981    4.9330    0.0000 Cl  0  0  0  0  0  0  0  0  0  0  0  0
    2.8660   -5.7990    0.0000 F   0  0  0  0  0  0  0  0  0  0  0  0
    4.0981    4.0670    0.0000 O   0  0  0  0  0  0  0  0  0  0  0  0
    2.0000   -1.2990    0.0000 O   0  0  0  0  0  0  0  0  0  0  0  0
    4.5981    1.2010    0.0000 N   0  0  0  0  0  0  0  0  0  0  0  0
    4.5981    3.2010    0.0000 C   0  0  0  0  0  0  0  0  0  0  0  0
    3.7320    2.7010    0.0000 C   0  0  0  0  0  0  0  0  0  0  0  0
    5.4641    2.7010    0.0000 C   0  0  0  0  0  0  0  0  0  0  0  0
    3.7320    1.7010    0.0000 C   0  0  0  0  0  0  0  0  0  0  0  0
    5.4641    1.7010    0.0000 C   0  0  0  0  0  0  0  0  0  0  0  0
    4.5981    0.2010    0.0000 C   0  0  0  0  0  0  0  0  0  0  0  0
    5.0981    4.0670    0.0000 C   0  0  0  0  0  0  0  0  0  0  0  0
    3.7320   -0.2990    0.0000 C   0  0  0  0  0  0  0  0  0  0  0  0
    6.0981    4.0670    0.0000 C   0  0  0  0  0  0  0  0  0  0  0  0
    4.5981    4.9330    0.0000 C   0  0  0  0  0  0  0  0  0  0  0  0
    3.7320   -1.2990    0.0000 C   0  0  0  0  0  0  0  0  0  0  0  0
    6.5981    4.9330    0.0000 C   0  0  0  0  0  0  0  0  0  0  0  0
    5.0981    5.7990    0.0000 C   0  0  0  0  0  0  0  0  0  0  0  0
    6.0981    5.7990    0.0000 C   0  0  0  0  0  0  0  0  0  0  0  0
    2.8660   -1.7990    0.0000 C   0  0  0  0  0  0  0  0  0  0  0  0
    2.8660   -2.7990    0.0000 C   0  0  0  0  0  0  0  0  0  0  0  0
    3.7320   -3.2990    0.0000 C   0  0  0  0  0  0  0  0  0  0  0  0
    2.0000   -3.2990    0.0000 C   0  0  0  0  0  0  0  0  0  0  0  0
    3.7320   -4.2990    0.0000 C   0  0  0  0  0  0  0  0  0  0  0  0
    2.0000   -4.2990    0.0000 C   0  0  0  0  0  0  0  0  0  0  0  0
    2.8660   -4.7990    0.0000 C   0  0  0  0  0  0  0  0  0  0  0  0
    3.5200    3.2836    0.0000 H   0  0  0  0  0  0  0  0  0  0  0  0
    3.1215    2.5933    0.0000 H   0  0  0  0  0  0  0  0  0  0  0  0
    6.0747    2.5933    0.0000 H   0  0  0  0  0  0  0  0  0  0  0  0
    5.6762    3.2836    0.0000 H   0  0  0  0  0  0  0  0  0  0  0  0
    3.1215    1.8086    0.0000 H   0  0  0  0  0  0  0  0  0  0  0  0
    3.5200    1.1184    0.0000 H   0  0  0  0  0  0  0  0  0  0  0  0
    5.6762    1.1184    0.0000 H   0  0  0  0  0  0  0  0  0  0  0  0
    6.0747    1.8086    0.0000 H   0  0  0  0  0  0  0  0  0  0  0  0
    4.8101   -0.3816    0.0000 H   0  0  0  0  0  0  0  0  0  0  0  0
    5.2087    0.3086    0.0000 H   0  0  0  0  0  0  0  0  0  0  0  0
    3.5200    0.2836    0.0000 H   0  0  0  0  0  0  0  0  0  0  0  0
    3.1215   -0.4067    0.0000 H   0  0  0  0  0  0  0  0  0  0  0  0
    3.4781    4.0670    0.0000 H   0  0  0  0  0  0  0  0  0  0  0  0
    3.9441   -1.8816    0.0000 H   0  0  0  0  0  0  0  0  0  0  0  0
    4.3426   -1.1914    0.0000 H   0  0  0  0  0  0  0  0  0  0  0  0
    7.2181    4.9330    0.0000 H   0  0  0  0  0  0  0  0  0  0  0  0
    4.7881    6.3360    0.0000 H   0  0  0  0  0  0  0  0  0  0  0  0
    6.4081    6.3360    0.0000 H   0  0  0  0  0  0  0  0  0  0  0  0
    4.2690   -2.9890    0.0000 H   0  0  0  0  0  0  0  0  0  0  0  0
    1.4631   -2.9890    0.0000 H   0  0  0  0  0  0  0  0  0  0  0  0
    4.2690   -4.6090    0.0000 H   0  0  0  0  0  0  0  0  0  0  0  0
    1.4631   -4.6090    0.0000 H   0  0  0  0  0  0  0  0  0  0  0  0
  1 15  1  0  0  0  0
  2 16  1  0  0  0  0
  3 27  1  0  0  0  0
  4  7  1  0  0  0  0
  4 40  1  0  0  0  0
  5 21  2  0  0  0  0
  6 10  1  0  0  0  0
  6 11  1  0  0  0  0
  6 12  1  0  0  0  0
  7  8  1  0  0  0  0
  7  9  1  0  0  0  0
  7 13  1  0  0  0  0
  8 10  1  0  0  0  0
  8 28  1  0  0  0  0
  8 29  1  0  0  0  0
  9 11  1  0  0  0  0
  9 30  1  0  0  0  0
  9 31  1  0  0  0  0
 10 32  1  0  0  0  0
 10 33  1  0  0  0  0
 11 34  1  0  0  0  0
 11 35  1  0  0  0  0
 12 14  1  0  0  0  0
 12 36  1  0  0  0  0
 12 37  1  0  0  0  0
 13 15  2  0  0  0  0
 13 16  1  0  0  0  0
 14 17  1  0  0  0  0
 14 38  1  0  0  0  0
 14 39  1  0  0  0  0
 15 18  1  0  0  0  0
 16 19  2  0  0  0  0
 17 21  1  0  0  0  0
 17 41  1  0  0  0  0
 17 42  1  0  0  0  0
 18 20  2  0  0  0  0
 18 43  1  0  0  0  0
 19 20  1  0  0  0  0
 19 44  1  0  0  0  0
 20 45  1  0  0  0  0
 21 22  1  0  0  0  0
 22 23  2  0  0  0  0
 22 24  1  0  0  0  0
 23 25  1  0  0  0  0
 23 46  1  0  0  0  0
 24 26  2  0  0  0  0
 24 47  1  0  0  0  0
 25 27  2  0  0  0  0
 25 48  1  0  0  0  0
 26 27  1  0  0  0  0
 26 49  1  0  0  0  0
M  END
> <PUBCHEM_COMPOUND_CID>
155523337

> <PUBCHEM_COMPOUND_CANONICALIZED>
1

> <PUBCHEM_CACTVS_COMPLEXITY>
481

> <PUBCHEM_CACTVS_HBOND_ACCEPTOR>
4

> <PUBCHEM_CACTVS_HBOND_DONOR>
1

> <PUBCHEM_CACTVS_ROTATABLE_BOND>
6

> <PUBCHEM_CACTVS_SUBSKEYS>
AAADceB6MQAGAAAAAAAAAAAAAAAAAAAAAAA8YIAAAAAAAAABQAAAHwIACAAADEbBmCwwAIMAAgCIAqBSAAACAAAkBQAIiAEICsgIJjKBlxCEcQAmwAGImYecyOCOgAAAAACBAAAAAAAAAQIAAAAAAAAAAA==

> <PUBCHEM_IUPAC_OPENEYE_NAME>
4-[4-(2,6-dichlorophenyl)-4-hydroxy-1-piperidyl]-1-(4-fluorophenyl)butan-1-one

> <PUBCHEM_IUPAC_CAS_NAME>
4-[4-(2,6-dichlorophenyl)-4-hydroxy-1-piperidinyl]-1-(4-fluorophenyl)-1-butanone

> <PUBCHEM_IUPAC_NAME_MARKUP>
4-[4-(2,6-dichlorophenyl)-4-hydroxypiperidin-1-yl]-1-(4-fluorophenyl)butan-1-one

> <PUBCHEM_IUPAC_NAME>
4-[4-(2,6-dichlorophenyl)-4-hydroxypiperidin-1-yl]-1-(4-fluorophenyl)butan-1-one

> <PUBCHEM_IUPAC_SYSTEMATIC_NAME>
4-[4-[2,6-bis(chloranyl)phenyl]-4-oxidanyl-piperidin-1-yl]-1-(4-fluorophenyl)butan-1-one

> <PUBCHEM_IUPAC_TRADITIONAL_NAME>
4-[4-(2,6-dichlorophenyl)-4-hydroxy-piperidino]-1-(4-fluorophenyl)butan-1-one

> <PUBCHEM_IUPAC_INCHI>
InChI=1S/C21H22Cl2FNO2/c22-17-3-1-4-18(23)20(17)21(27)10-13-25(14-11-21)12-2-5-19(26)15-6-8-16(24)9-7-15/h1,3-4,6-9,27H,2,5,10-14H2

> <PUBCHEM_IUPAC_INCHIKEY>
HJHGQNPJVJPIQZ-UHFFFAOYSA-N

> <PUBCHEM_XLOGP3>
3.9

> <PUBCHEM_EXACT_MASS>
409.1011625

> <PUBCHEM_MOLECULAR_FORMULA>
C21H22Cl2FNO2

> <PUBCHEM_MOLECULAR_WEIGHT>
410.3

> <PUBCHEM_OPENEYE_CAN_SMILES>
C1CN(CCC1(C2=C(C=CC=C2Cl)Cl)O)CCCC(=O)C3=CC=C(C=C3)F

> <PUBCHEM_OPENEYE_ISO_SMILES>
C1CN(CCC1(C2=C(C=CC=C2Cl)Cl)O)CCCC(=O)C3=CC=C(C=C3)F

> <PUBCHEM_CACTVS_TPSA>
40.5

> <PUBCHEM_MONOISOTOPIC_WEIGHT>
409.1011625

> <PUBCHEM_TOTAL_CHARGE>
0

> <PUBCHEM_HEAVY_ATOM_COUNT>
27

> <PUBCHEM_ATOM_DEF_STEREO_COUNT>
0

> <PUBCHEM_ATOM_UDEF_STEREO_COUNT>
0

> <PUBCHEM_BOND_DEF_STEREO_COUNT>
0

> <PUBCHEM_BOND_UDEF_STEREO_COUNT>
0

> <PUBCHEM_ISOTOPIC_ATOM_COUNT>
0

> <PUBCHEM_COMPONENT_COUNT>
1

> <PUBCHEM_CACTVS_TAUTO_COUNT>
-1

> <PUBCHEM_COORDINATE_TYPE>
1
5
255

> <PUBCHEM_BONDANNOTATIONS>
13  15  8
13  16  8
15  18  8
16  19  8
18  20  8
19  20  8
22  23  8
22  24  8
23  25  8
24  26  8
25  27  8
26  27  8

$$$$
