11857710
  -OEChem-09292322242D

 70 74  0     0  0  0  0  0  0999 V2000
    6.3301   -4.5000    0.0000 Cl  0  0  0  0  0  0  0  0  0  0  0  0
    4.5981   -1.5000    0.0000 S   0  0  0  0  0  0  0  0  0  0  0  0
   11.5263    1.5000    0.0000 O   0  0  0  0  0  0  0  0  0  0  0  0
    5.5981   -1.5000    0.0000 O   0  0  0  0  0  0  0  0  0  0  0  0
    3.5981   -1.5000    0.0000 O   0  0  0  0  0  0  0  0  0  0  0  0
    2.8660   -2.5000    0.0000 O   0  0  0  0  0  0  0  0  0  0  0  0
    8.0622    1.5000    0.0000 N   0  0  0  0  0  0  0  0  0  0  0  0
    4.5981   -0.5000    0.0000 N   0  0  0  0  0  0  0  0  0  0  0  0
    7.1962    1.0000    0.0000 C   0  0  0  0  0  0  0  0  0  0  0  0
    7.1962    0.0000    0.0000 C   0  0  0  0  0  0  0  0  0  0  0  0
    6.3301    1.5000    0.0000 C   0  0  0  0  0  0  0  0  0  0  0  0
    5.4641    0.0000    0.0000 C   0  0  0  0  0  0  0  0  0  0  0  0
    6.3301   -0.5000    0.0000 C   0  0  0  0  0  0  0  0  0  0  0  0
    5.4641    1.0000    0.0000 C   0  0  0  0  0  0  0  0  0  0  0  0
    9.7942    2.5000    0.0000 C   0  0  0  0  0  0  0  0  0  0  0  0
    8.9282    1.0000    0.0000 C   0  0  0  0  0  0  0  0  0  0  0  0
    8.0622    2.5000    0.0000 C   0  0  0  0  0  0  0  0  0  0  0  0
    9.7942    1.5000    0.0000 C   0  0  0  0  0  0  0  0  0  0  0  0
    8.9282    3.0000    0.0000 C   0  0  0  0  0  0  0  0  0  0  0  0
   10.6603    3.0000    0.0000 C   0  0  0  0  0  0  0  0  0  0  0  0
   12.3923    1.0000    0.0000 C   0  0  0  0  0  0  0  0  0  0  0  0
   12.8923    0.1340    0.0000 C   0  0  0  0  0  0  0  0  0  0  0  0
   13.3923    1.0000    0.0000 C   0  0  0  0  0  0  0  0  0  0  0  0
   11.5263    2.5000    0.0000 C   0  0  0  0  0  0  0  0  0  0  0  0
   10.6603    4.0000    0.0000 C   0  0  0  0  0  0  0  0  0  0  0  0
   12.3923    3.0000    0.0000 C   0  0  0  0  0  0  0  0  0  0  0  0
   11.5263    4.5000    0.0000 C   0  0  0  0  0  0  0  0  0  0  0  0
    4.5981   -2.5000    0.0000 C   0  0  0  0  0  0  0  0  0  0  0  0
   12.3923    4.0000    0.0000 C   0  0  0  0  0  0  0  0  0  0  0  0
    3.7320   -3.0000    0.0000 C   0  0  0  0  0  0  0  0  0  0  0  0
    5.4641   -3.0000    0.0000 C   0  0  0  0  0  0  0  0  0  0  0  0
    3.7320   -4.0000    0.0000 C   0  0  0  0  0  0  0  0  0  0  0  0
    5.4641   -4.0000    0.0000 C   0  0  0  0  0  0  0  0  0  0  0  0
    4.5981   -4.5000    0.0000 C   0  0  0  0  0  0  0  0  0  0  0  0
    2.0000   -3.0000    0.0000 C   0  0  0  0  0  0  0  0  0  0  0  0
    7.7331    0.6900    0.0000 H   0  0  0  0  0  0  0  0  0  0  0  0
    7.4082   -0.5826    0.0000 H   0  0  0  0  0  0  0  0  0  0  0  0
    7.8067    0.1077    0.0000 H   0  0  0  0  0  0  0  0  0  0  0  0
    6.7287    1.9750    0.0000 H   0  0  0  0  0  0  0  0  0  0  0  0
    5.9316    1.9750    0.0000 H   0  0  0  0  0  0  0  0  0  0  0  0
    5.4641   -0.6200    0.0000 H   0  0  0  0  0  0  0  0  0  0  0  0
    5.9316   -0.9749    0.0000 H   0  0  0  0  0  0  0  0  0  0  0  0
    6.7287   -0.9749    0.0000 H   0  0  0  0  0  0  0  0  0  0  0  0
    5.2520    1.5826    0.0000 H   0  0  0  0  0  0  0  0  0  0  0  0
    4.8535    0.8923    0.0000 H   0  0  0  0  0  0  0  0  0  0  0  0
    9.7942    3.1200    0.0000 H   0  0  0  0  0  0  0  0  0  0  0  0
    8.5297    0.5251    0.0000 H   0  0  0  0  0  0  0  0  0  0  0  0
    9.3267    0.5251    0.0000 H   0  0  0  0  0  0  0  0  0  0  0  0
    7.8501    3.0826    0.0000 H   0  0  0  0  0  0  0  0  0  0  0  0
    7.4516    2.3923    0.0000 H   0  0  0  0  0  0  0  0  0  0  0  0
   10.0063    0.9174    0.0000 H   0  0  0  0  0  0  0  0  0  0  0  0
   10.4048    1.6077    0.0000 H   0  0  0  0  0  0  0  0  0  0  0  0
    9.3267    3.4750    0.0000 H   0  0  0  0  0  0  0  0  0  0  0  0
    8.5297    3.4750    0.0000 H   0  0  0  0  0  0  0  0  0  0  0  0
    4.0611   -0.1900    0.0000 H   0  0  0  0  0  0  0  0  0  0  0  0
   11.9539    0.5616    0.0000 H   0  0  0  0  0  0  0  0  0  0  0  0
   12.4174   -0.2646    0.0000 H   0  0  0  0  0  0  0  0  0  0  0  0
   13.3673   -0.2646    0.0000 H   0  0  0  0  0  0  0  0  0  0  0  0
   13.9749    0.7879    0.0000 H   0  0  0  0  0  0  0  0  0  0  0  0
   13.5000    1.6106    0.0000 H   0  0  0  0  0  0  0  0  0  0  0  0
   10.1233    4.3100    0.0000 H   0  0  0  0  0  0  0  0  0  0  0  0
   12.9292    2.6900    0.0000 H   0  0  0  0  0  0  0  0  0  0  0  0
   11.5263    5.1200    0.0000 H   0  0  0  0  0  0  0  0  0  0  0  0
   12.9292    4.3100    0.0000 H   0  0  0  0  0  0  0  0  0  0  0  0
    6.0010   -2.6900    0.0000 H   0  0  0  0  0  0  0  0  0  0  0  0
    3.1951   -4.3100    0.0000 H   0  0  0  0  0  0  0  0  0  0  0  0
    4.5981   -5.1200    0.0000 H   0  0  0  0  0  0  0  0  0  0  0  0
    1.6900   -2.4631    0.0000 H   0  0  0  0  0  0  0  0  0  0  0  0
    1.4631   -3.3100    0.0000 H   0  0  0  0  0  0  0  0  0  0  0  0
    2.3100   -3.5369    0.0000 H   0  0  0  0  0  0  0  0  0  0  0  0
  1 33  1  0  0  0  0
  2  4  2  0  0  0  0
  2  5  2  0  0  0  0
  2  8  1  0  0  0  0
  2 28  1  0  0  0  0
  3 21  1  0  0  0  0
  3 24  1  0  0  0  0
  6 30  1  0  0  0  0
  6 35  1  0  0  0  0
  7  9  1  0  0  0  0
  7 16  1  0  0  0  0
  7 17  1  0  0  0  0
  8 12  1  0  0  0  0
  8 55  1  0  0  0  0
  9 10  1  0  0  0  0
  9 11  1  0  0  0  0
  9 36  1  0  0  0  0
 10 13  1  0  0  0  0
 10 37  1  0  0  0  0
 10 38  1  0  0  0  0
 11 14  1  0  0  0  0
 11 39  1  0  0  0  0
 11 40  1  0  0  0  0
 12 13  1  0  0  0  0
 12 14  1  0  0  0  0
 12 41  1  0  0  0  0
 13 42  1  0  0  0  0
 13 43  1  0  0  0  0
 14 44  1  0  0  0  0
 14 45  1  0  0  0  0
 15 18  1  0  0  0  0
 15 19  1  0  0  0  0
 15 20  1  0  0  0  0
 15 46  1  0  0  0  0
 16 18  1  0  0  0  0
 16 47  1  0  0  0  0
 16 48  1  0  0  0  0
 17 19  1  0  0  0  0
 17 49  1  0  0  0  0
 17 50  1  0  0  0  0
 18 51  1  0  0  0  0
 18 52  1  0  0  0  0
 19 53  1  0  0  0  0
 19 54  1  0  0  0  0
 20 24  1  0  0  0  0
 20 25  2  0  0  0  0
 21 22  1  0  0  0  0
 21 23  1  0  0  0  0
 21 56  1  0  0  0  0
 22 23  1  0  0  0  0
 22 57  1  0  0  0  0
 22 58  1  0  0  0  0
 23 59  1  0  0  0  0
 23 60  1  0  0  0  0
 24 26  2  0  0  0  0
 25 27  1  0  0  0  0
 25 61  1  0  0  0  0
 26 29  1  0  0  0  0
 26 62  1  0  0  0  0
 27 29  2  0  0  0  0
 27 63  1  0  0  0  0
 28 30  2  0  0  0  0
 28 31  1  0  0  0  0
 29 64  1  0  0  0  0
 30 32  1  0  0  0  0
 31 33  2  0  0  0  0
 31 65  1  0  0  0  0
 32 34  2  0  0  0  0
 32 66  1  0  0  0  0
 33 34  1  0  0  0  0
 34 67  1  0  0  0  0
 35 68  1  0  0  0  0
 35 69  1  0  0  0  0
 35 70  1  0  0  0  0
M  END
> <PUBCHEM_COMPOUND_CID>
11857710

> <PUBCHEM_COMPOUND_CANONICALIZED>
1

> <PUBCHEM_CACTVS_COMPLEXITY>
773

> <PUBCHEM_CACTVS_HBOND_ACCEPTOR>
6

> <PUBCHEM_CACTVS_HBOND_DONOR>
1

> <PUBCHEM_CACTVS_ROTATABLE_BOND>
8

> <PUBCHEM_CACTVS_SUBSKEYS>
AAADcfB7OABEAAAAAAAAAAAAGAAAAAAAAAA8YMEAAAAAAAABQAAAHgYQQAAADT7h2CYyB4NABAKAAiBCAHBCCBAgJQAIiJoOCogMJiKFsxqGOCCk0BGIqAeQ0OIOgCAAABAIIAAAQQAAIBBAAAAAAAAAAA==

> <PUBCHEM_IUPAC_OPENEYE_NAME>
5-chloro-N-[4-[4-[2-(cyclopropoxy)phenyl]-1-piperidyl]cyclohexyl]-2-methoxy-benzenesulfonamide

> <PUBCHEM_IUPAC_CAS_NAME>
5-chloro-N-[4-[4-(2-cyclopropyloxyphenyl)-1-piperidinyl]cyclohexyl]-2-methoxybenzenesulfonamide

> <PUBCHEM_IUPAC_NAME_MARKUP>
5-chloro-<I>N</I>-[4-[4-(2-cyclopropyloxyphenyl)piperidin-1-yl]cyclohexyl]-2-methoxybenzenesulfonamide

> <PUBCHEM_IUPAC_NAME>
5-chloro-N-[4-[4-(2-cyclopropyloxyphenyl)piperidin-1-yl]cyclohexyl]-2-methoxybenzenesulfonamide

> <PUBCHEM_IUPAC_SYSTEMATIC_NAME>
5-chloranyl-N-[4-[4-(2-cyclopropyloxyphenyl)piperidin-1-yl]cyclohexyl]-2-methoxy-benzenesulfonamide

> <PUBCHEM_IUPAC_TRADITIONAL_NAME>
5-chloro-N-[4-[4-[2-(cyclopropoxy)phenyl]piperidino]cyclohexyl]-2-methoxy-benzenesulfonamide

> <PUBCHEM_IUPAC_INCHI>
InChI=1S/C27H35ClN2O4S/c1-33-26-13-6-20(28)18-27(26)35(31,32)29-21-7-9-22(10-8-21)30-16-14-19(15-17-30)24-4-2-3-5-25(24)34-23-11-12-23/h2-6,13,18-19,21-23,29H,7-12,14-17H2,1H3

> <PUBCHEM_IUPAC_INCHIKEY>
CQABPCACTMBCQC-UHFFFAOYSA-N

> <PUBCHEM_XLOGP3_AA>
5.6

> <PUBCHEM_EXACT_MASS>
518.2006065

> <PUBCHEM_MOLECULAR_FORMULA>
C27H35ClN2O4S

> <PUBCHEM_MOLECULAR_WEIGHT>
519.1

> <PUBCHEM_OPENEYE_CAN_SMILES>
COC1=C(C=C(C=C1)Cl)S(=O)(=O)NC2CCC(CC2)N3CCC(CC3)C4=CC=CC=C4OC5CC5

> <PUBCHEM_OPENEYE_ISO_SMILES>
COC1=C(C=C(C=C1)Cl)S(=O)(=O)NC2CCC(CC2)N3CCC(CC3)C4=CC=CC=C4OC5CC5

> <PUBCHEM_CACTVS_TPSA>
76.2

> <PUBCHEM_MONOISOTOPIC_WEIGHT>
518.2006065

> <PUBCHEM_TOTAL_CHARGE>
0

> <PUBCHEM_HEAVY_ATOM_COUNT>
35

> <PUBCHEM_ATOM_DEF_STEREO_COUNT>
0

> <PUBCHEM_ATOM_UDEF_STEREO_COUNT>
0

> <PUBCHEM_BOND_DEF_STEREO_COUNT>
0

> <PUBCHEM_BOND_UDEF_STEREO_COUNT>
0

> <PUBCHEM_ISOTOPIC_ATOM_COUNT>
0

> <PUBCHEM_COMPONENT_COUNT>
1

> <PUBCHEM_CACTVS_TAUTO_COUNT>
-1

> <PUBCHEM_COORDINATE_TYPE>
1
5
255

> <PUBCHEM_BONDANNOTATIONS>
20  24  8
20  25  8
24  26  8
25  27  8
26  29  8
27  29  8
28  30  8
28  31  8
30  32  8
31  33  8
32  34  8
33  34  8

$$$$
