44439165
  -OEChem-09292322262D

 61 65  0     0  0  0  0  0  0999 V2000
    2.0000   -1.4827    0.0000 Cl  0  0  0  0  0  0  0  0  0  0  0  0
    6.3301    6.0173    0.0000 F   0  0  0  0  0  0  0  0  0  0  0  0
    5.4641   -1.4827    0.0000 O   0  0  0  0  0  0  0  0  0  0  0  0
    9.8222    6.0520    0.0000 O   0  0  0  0  0  0  0  0  0  0  0  0
   11.5923    3.9932    0.0000 O   0  0  0  0  0  0  0  0  0  0  0  0
    6.3301    1.0173    0.0000 N   0  0  0  0  0  0  0  0  0  0  0  0
    9.8222    3.9826    0.0000 N   0  0  0  0  0  0  0  0  0  0  0  0
    3.7160   -4.5242    0.0000 N   0  0  0  0  0  0  0  0  0  0  0  0
    6.3301    3.0173    0.0000 C   0  0  0  0  0  0  0  0  0  0  0  0
    7.1962    2.5173    0.0000 C   0  0  0  0  0  0  0  0  0  0  0  0
    5.4641    2.5173    0.0000 C   0  0  0  0  0  0  0  0  0  0  0  0
    7.1962    1.5173    0.0000 C   0  0  0  0  0  0  0  0  0  0  0  0
    5.4641    1.5173    0.0000 C   0  0  0  0  0  0  0  0  0  0  0  0
    6.3301    4.0173    0.0000 C   0  0  0  0  0  0  0  0  0  0  0  0
    6.3301    0.0173    0.0000 C   0  0  0  0  0  0  0  0  0  0  0  0
    7.1962    4.5173    0.0000 C   0  0  0  0  0  0  0  0  0  0  0  0
    5.4641   -0.4827    0.0000 C   0  0  0  0  0  0  0  0  0  0  0  0
    8.0622    4.0173    0.0000 C   0  0  0  0  0  0  0  0  0  0  0  0
    7.1962    5.5173    0.0000 C   0  0  0  0  0  0  0  0  0  0  0  0
    8.9282    4.5173    0.0000 C   0  0  0  0  0  0  0  0  0  0  0  0
    8.0622    6.0173    0.0000 C   0  0  0  0  0  0  0  0  0  0  0  0
    8.9282    5.5173    0.0000 C   0  0  0  0  0  0  0  0  0  0  0  0
    4.5981   -1.9827    0.0000 C   0  0  0  0  0  0  0  0  0  0  0  0
   10.7282    5.5381    0.0000 C   0  0  0  0  0  0  0  0  0  0  0  0
   10.7282    4.4965    0.0000 C   0  0  0  0  0  0  0  0  0  0  0  0
    4.5981   -2.9827    0.0000 C   0  0  0  0  0  0  0  0  0  0  0  0
    3.7320   -1.4827    0.0000 C   0  0  0  0  0  0  0  0  0  0  0  0
    3.7320   -3.4827    0.0000 C   0  0  0  0  0  0  0  0  0  0  0  0
    5.5081   -3.4896    0.0000 C   0  0  0  0  0  0  0  0  0  0  0  0
    2.8660   -1.9827    0.0000 C   0  0  0  0  0  0  0  0  0  0  0  0
    2.8660   -2.9827    0.0000 C   0  0  0  0  0  0  0  0  0  0  0  0
    5.5161   -4.5312    0.0000 C   0  0  0  0  0  0  0  0  0  0  0  0
    4.6140   -5.0520    0.0000 C   0  0  0  0  0  0  0  0  0  0  0  0
    4.6102   -6.0520    0.0000 C   0  0  0  0  0  0  0  0  0  0  0  0
    6.8671    3.3273    0.0000 H   0  0  0  0  0  0  0  0  0  0  0  0
    7.8067    2.4096    0.0000 H   0  0  0  0  0  0  0  0  0  0  0  0
    7.4082    3.0999    0.0000 H   0  0  0  0  0  0  0  0  0  0  0  0
    5.2520    3.0999    0.0000 H   0  0  0  0  0  0  0  0  0  0  0  0
    4.8535    2.4096    0.0000 H   0  0  0  0  0  0  0  0  0  0  0  0
    7.4082    0.9347    0.0000 H   0  0  0  0  0  0  0  0  0  0  0  0
    7.8067    1.6250    0.0000 H   0  0  0  0  0  0  0  0  0  0  0  0
    4.8535    1.6250    0.0000 H   0  0  0  0  0  0  0  0  0  0  0  0
    5.2520    0.9347    0.0000 H   0  0  0  0  0  0  0  0  0  0  0  0
    6.1181    4.5999    0.0000 H   0  0  0  0  0  0  0  0  0  0  0  0
    5.7196    3.9096    0.0000 H   0  0  0  0  0  0  0  0  0  0  0  0
    6.5422   -0.5653    0.0000 H   0  0  0  0  0  0  0  0  0  0  0  0
    6.9407    0.1250    0.0000 H   0  0  0  0  0  0  0  0  0  0  0  0
    5.2520    0.0999    0.0000 H   0  0  0  0  0  0  0  0  0  0  0  0
    4.8535   -0.5904    0.0000 H   0  0  0  0  0  0  0  0  0  0  0  0
    8.0622    3.3973    0.0000 H   0  0  0  0  0  0  0  0  0  0  0  0
    8.0622    6.6373    0.0000 H   0  0  0  0  0  0  0  0  0  0  0  0
    9.8150    3.3627    0.0000 H   0  0  0  0  0  0  0  0  0  0  0  0
   11.3391    5.4320    0.0000 H   0  0  0  0  0  0  0  0  0  0  0  0
   10.9373    6.1218    0.0000 H   0  0  0  0  0  0  0  0  0  0  0  0
    3.7320   -0.8627    0.0000 H   0  0  0  0  0  0  0  0  0  0  0  0
    6.0414   -3.1734    0.0000 H   0  0  0  0  0  0  0  0  0  0  0  0
    2.3291   -3.2927    0.0000 H   0  0  0  0  0  0  0  0  0  0  0  0
    6.0542   -4.8391    0.0000 H   0  0  0  0  0  0  0  0  0  0  0  0
    3.9902   -6.0496    0.0000 H   0  0  0  0  0  0  0  0  0  0  0  0
    4.6078   -6.6720    0.0000 H   0  0  0  0  0  0  0  0  0  0  0  0
    5.2302   -6.0544    0.0000 H   0  0  0  0  0  0  0  0  0  0  0  0
  1 30  1  0  0  0  0
  2 19  1  0  0  0  0
  3 17  1  0  0  0  0
  3 23  1  0  0  0  0
  4 22  1  0  0  0  0
  4 24  1  0  0  0  0
  5 25  2  0  0  0  0
  6 12  1  0  0  0  0
  6 13  1  0  0  0  0
  6 15  1  0  0  0  0
  7 20  1  0  0  0  0
  7 25  1  0  0  0  0
  7 52  1  0  0  0  0
  8 28  1  0  0  0  0
  8 33  2  0  0  0  0
  9 10  1  0  0  0  0
  9 11  1  0  0  0  0
  9 14  1  0  0  0  0
  9 35  1  0  0  0  0
 10 12  1  0  0  0  0
 10 36  1  0  0  0  0
 10 37  1  0  0  0  0
 11 13  1  0  0  0  0
 11 38  1  0  0  0  0
 11 39  1  0  0  0  0
 12 40  1  0  0  0  0
 12 41  1  0  0  0  0
 13 42  1  0  0  0  0
 13 43  1  0  0  0  0
 14 16  1  0  0  0  0
 14 44  1  0  0  0  0
 14 45  1  0  0  0  0
 15 17  1  0  0  0  0
 15 46  1  0  0  0  0
 15 47  1  0  0  0  0
 16 18  2  0  0  0  0
 16 19  1  0  0  0  0
 17 48  1  0  0  0  0
 17 49  1  0  0  0  0
 18 20  1  0  0  0  0
 18 50  1  0  0  0  0
 19 21  2  0  0  0  0
 20 22  2  0  0  0  0
 21 22  1  0  0  0  0
 21 51  1  0  0  0  0
 23 26  1  0  0  0  0
 23 27  2  0  0  0  0
 24 25  1  0  0  0  0
 24 53  1  0  0  0  0
 24 54  1  0  0  0  0
 26 28  2  0  0  0  0
 26 29  1  0  0  0  0
 27 30  1  0  0  0  0
 27 55  1  0  0  0  0
 28 31  1  0  0  0  0
 29 32  2  0  0  0  0
 29 56  1  0  0  0  0
 30 31  2  0  0  0  0
 31 57  1  0  0  0  0
 32 33  1  0  0  0  0
 32 58  1  0  0  0  0
 33 34  1  0  0  0  0
 34 59  1  0  0  0  0
 34 60  1  0  0  0  0
 34 61  1  0  0  0  0
M  END
> <PUBCHEM_COMPOUND_CID>
44439165

> <PUBCHEM_COMPOUND_CANONICALIZED>
1

> <PUBCHEM_CACTVS_COMPLEXITY>
694

> <PUBCHEM_CACTVS_HBOND_ACCEPTOR>
6

> <PUBCHEM_CACTVS_HBOND_DONOR>
1

> <PUBCHEM_CACTVS_ROTATABLE_BOND>
6

> <PUBCHEM_CACTVS_SUBSKEYS>
AAADceB7MQAEAAAAAAAAAAAAAAAAAAAAAAA8eLECAAAAAACx9AAAHwIQAAAADQ7hni4yxvPIFACoAyVyVAKCiCAhJyAImCB/bpgOJuLFs5+HOCjm1BnY6AeQ0OMOJAAAQwIKEABIAACGBBQgAAAAAAAAAA==

> <PUBCHEM_IUPAC_OPENEYE_NAME>
6-[[1-[2-[(7-chloro-2-methyl-5-quinolyl)oxy]ethyl]-4-piperidyl]methyl]-7-fluoro-4H-1,4-benzoxazin-3-one

> <PUBCHEM_IUPAC_CAS_NAME>
6-[[1-[2-[(7-chloro-2-methyl-5-quinolinyl)oxy]ethyl]-4-piperidinyl]methyl]-7-fluoro-4H-1,4-benzoxazin-3-one

> <PUBCHEM_IUPAC_NAME_MARKUP>
6-[[1-[2-(7-chloro-2-methylquinolin-5-yl)oxyethyl]piperidin-4-yl]methyl]-7-fluoro-4<I>H</I>-1,4-benzoxazin-3-one

> <PUBCHEM_IUPAC_NAME>
6-[[1-[2-(7-chloro-2-methylquinolin-5-yl)oxyethyl]piperidin-4-yl]methyl]-7-fluoro-4H-1,4-benzoxazin-3-one

> <PUBCHEM_IUPAC_SYSTEMATIC_NAME>
6-[[1-[2-(7-chloranyl-2-methyl-quinolin-5-yl)oxyethyl]piperidin-4-yl]methyl]-7-fluoranyl-4H-1,4-benzoxazin-3-one

> <PUBCHEM_IUPAC_TRADITIONAL_NAME>
6-[[1-[2-[(7-chloro-2-methyl-5-quinolyl)oxy]ethyl]-4-piperidyl]methyl]-7-fluoro-4H-1,4-benzoxazin-3-one

> <PUBCHEM_IUPAC_INCHI>
InChI=1S/C26H27ClFN3O3/c1-16-2-3-20-22(29-16)12-19(27)13-24(20)33-9-8-31-6-4-17(5-7-31)10-18-11-23-25(14-21(18)28)34-15-26(32)30-23/h2-3,11-14,17H,4-10,15H2,1H3,(H,30,32)

> <PUBCHEM_IUPAC_INCHIKEY>
GRNSMKAYAMENDT-UHFFFAOYSA-N

> <PUBCHEM_XLOGP3_AA>
5

> <PUBCHEM_EXACT_MASS>
483.1724976

> <PUBCHEM_MOLECULAR_FORMULA>
C26H27ClFN3O3

> <PUBCHEM_MOLECULAR_WEIGHT>
484.0

> <PUBCHEM_OPENEYE_CAN_SMILES>
CC1=NC2=C(C=C1)C(=CC(=C2)Cl)OCCN3CCC(CC3)CC4=CC5=C(C=C4F)OCC(=O)N5

> <PUBCHEM_OPENEYE_ISO_SMILES>
CC1=NC2=C(C=C1)C(=CC(=C2)Cl)OCCN3CCC(CC3)CC4=CC5=C(C=C4F)OCC(=O)N5

> <PUBCHEM_CACTVS_TPSA>
63.7

> <PUBCHEM_MONOISOTOPIC_WEIGHT>
483.1724976

> <PUBCHEM_TOTAL_CHARGE>
0

> <PUBCHEM_HEAVY_ATOM_COUNT>
34

> <PUBCHEM_ATOM_DEF_STEREO_COUNT>
0

> <PUBCHEM_ATOM_UDEF_STEREO_COUNT>
0

> <PUBCHEM_BOND_DEF_STEREO_COUNT>
0

> <PUBCHEM_BOND_UDEF_STEREO_COUNT>
0

> <PUBCHEM_ISOTOPIC_ATOM_COUNT>
0

> <PUBCHEM_COMPONENT_COUNT>
1

> <PUBCHEM_CACTVS_TAUTO_COUNT>
-1

> <PUBCHEM_COORDINATE_TYPE>
1
5
255

> <PUBCHEM_BONDANNOTATIONS>
16  18  8
16  19  8
18  20  8
19  21  8
20  22  8
21  22  8
23  26  8
23  27  8
26  28  8
26  29  8
27  30  8
28  31  8
29  32  8
30  31  8
32  33  8
8  28  8
8  33  8

$$$$
