156016366
  -OEChem-09292322422D

 61 64  0     0  0  0  0  0  0999 V2000
    4.6783   -5.1278    0.0000 S   0  0  0  0  0  0  0  0  0  0  0  0
   10.7669    3.9602    0.0000 S   0  0  0  0  0  0  0  0  0  0  0  0
   10.5607    4.9386    0.0000 O   0  0  0  0  0  0  0  0  0  0  0  0
   10.9731    2.9816    0.0000 O   0  0  0  0  0  0  0  0  0  0  0  0
    5.6103   -0.6668    0.0000 N   0  0  0  0  0  0  0  0  0  0  0  0
    4.9889   -2.5678    0.0000 N   0  0  0  0  0  0  0  0  0  0  0  0
    5.2619   -4.3231    0.0000 N   0  0  0  0  0  0  0  0  0  0  0  0
    9.7884    3.7539    0.0000 N   0  0  0  0  0  0  0  0  0  0  0  0
    4.6318   -0.8730    0.0000 C   0  0  0  0  0  0  0  0  0  0  0  0
    6.2781   -1.4111    0.0000 C   0  0  0  0  0  0  0  0  0  0  0  0
    4.3211   -1.8236    0.0000 C   0  0  0  0  0  0  0  0  0  0  0  0
    5.9674   -2.3616    0.0000 C   0  0  0  0  0  0  0  0  0  0  0  0
    5.9209    0.2837    0.0000 C   0  0  0  0  0  0  0  0  0  0  0  0
    6.8994    0.4899    0.0000 C   0  0  0  0  0  0  0  0  0  0  0  0
    7.2101    1.4404    0.0000 C   0  0  0  0  0  0  0  0  0  0  0  0
    8.1886    1.6467    0.0000 C   0  0  0  0  0  0  0  0  0  0  0  0
    4.6783   -3.5184    0.0000 C   0  0  0  0  0  0  0  0  0  0  0  0
    8.4993    2.5972    0.0000 C   0  0  0  0  0  0  0  0  0  0  0  0
    3.7320   -3.8231    0.0000 C   0  0  0  0  0  0  0  0  0  0  0  0
    9.4778    2.8034    0.0000 C   0  0  0  0  0  0  0  0  0  0  0  0
    3.7320   -4.8231    0.0000 C   0  0  0  0  0  0  0  0  0  0  0  0
    2.8660   -3.3231    0.0000 C   0  0  0  0  0  0  0  0  0  0  0  0
    2.8660   -5.3231    0.0000 C   0  0  0  0  0  0  0  0  0  0  0  0
    2.0000   -3.8231    0.0000 C   0  0  0  0  0  0  0  0  0  0  0  0
    2.0000   -4.8231    0.0000 C   0  0  0  0  0  0  0  0  0  0  0  0
   11.7454    4.1664    0.0000 C   0  0  0  0  0  0  0  0  0  0  0  0
   12.4133    3.4221    0.0000 C   0  0  0  0  0  0  0  0  0  0  0  0
   12.0561    5.1169    0.0000 C   0  0  0  0  0  0  0  0  0  0  0  0
   13.3918    3.6283    0.0000 C   0  0  0  0  0  0  0  0  0  0  0  0
   13.0346    5.3231    0.0000 C   0  0  0  0  0  0  0  0  0  0  0  0
   13.7024    4.5788    0.0000 C   0  0  0  0  0  0  0  0  0  0  0  0
    4.6112   -0.2534    0.0000 H   0  0  0  0  0  0  0  0  0  0  0  0
    4.0179   -0.7857    0.0000 H   0  0  0  0  0  0  0  0  0  0  0  0
    6.8250   -1.7031    0.0000 H   0  0  0  0  0  0  0  0  0  0  0  0
    6.6607   -0.9232    0.0000 H   0  0  0  0  0  0  0  0  0  0  0  0
    3.7742   -1.5315    0.0000 H   0  0  0  0  0  0  0  0  0  0  0  0
    3.9385   -2.3114    0.0000 H   0  0  0  0  0  0  0  0  0  0  0  0
    5.9880   -2.9813    0.0000 H   0  0  0  0  0  0  0  0  0  0  0  0
    6.5812   -2.4490    0.0000 H   0  0  0  0  0  0  0  0  0  0  0  0
    5.9004    0.9034    0.0000 H   0  0  0  0  0  0  0  0  0  0  0  0
    5.3071    0.3711    0.0000 H   0  0  0  0  0  0  0  0  0  0  0  0
    6.9200   -0.1297    0.0000 H   0  0  0  0  0  0  0  0  0  0  0  0
    7.5132    0.4026    0.0000 H   0  0  0  0  0  0  0  0  0  0  0  0
    7.1895    2.0601    0.0000 H   0  0  0  0  0  0  0  0  0  0  0  0
    6.5963    1.5278    0.0000 H   0  0  0  0  0  0  0  0  0  0  0  0
    8.2092    1.0270    0.0000 H   0  0  0  0  0  0  0  0  0  0  0  0
    8.8024    1.5593    0.0000 H   0  0  0  0  0  0  0  0  0  0  0  0
    8.4787    3.2168    0.0000 H   0  0  0  0  0  0  0  0  0  0  0  0
    7.8854    2.6845    0.0000 H   0  0  0  0  0  0  0  0  0  0  0  0
    9.4983    2.1838    0.0000 H   0  0  0  0  0  0  0  0  0  0  0  0
   10.0916    2.7161    0.0000 H   0  0  0  0  0  0  0  0  0  0  0  0
    2.8660   -2.7031    0.0000 H   0  0  0  0  0  0  0  0  0  0  0  0
    9.3744    4.2154    0.0000 H   0  0  0  0  0  0  0  0  0  0  0  0
    2.8660   -5.9431    0.0000 H   0  0  0  0  0  0  0  0  0  0  0  0
    1.4631   -3.5131    0.0000 H   0  0  0  0  0  0  0  0  0  0  0  0
    1.4631   -5.1331    0.0000 H   0  0  0  0  0  0  0  0  0  0  0  0
   12.2207    2.8327    0.0000 H   0  0  0  0  0  0  0  0  0  0  0  0
   11.6420    5.5784    0.0000 H   0  0  0  0  0  0  0  0  0  0  0  0
   13.8058    3.1668    0.0000 H   0  0  0  0  0  0  0  0  0  0  0  0
   13.2272    5.9124    0.0000 H   0  0  0  0  0  0  0  0  0  0  0  0
   14.3091    4.7067    0.0000 H   0  0  0  0  0  0  0  0  0  0  0  0
  1  7  1  0  0  0  0
  1 21  1  0  0  0  0
  2  3  2  0  0  0  0
  2  4  2  0  0  0  0
  2  8  1  0  0  0  0
  2 26  1  0  0  0  0
  5  9  1  0  0  0  0
  5 10  1  0  0  0  0
  5 13  1  0  0  0  0
  6 11  1  0  0  0  0
  6 12  1  0  0  0  0
  6 17  1  0  0  0  0
  7 17  2  0  0  0  0
  8 20  1  0  0  0  0
  8 53  1  0  0  0  0
  9 11  1  0  0  0  0
  9 32  1  0  0  0  0
  9 33  1  0  0  0  0
 10 12  1  0  0  0  0
 10 34  1  0  0  0  0
 10 35  1  0  0  0  0
 11 36  1  0  0  0  0
 11 37  1  0  0  0  0
 12 38  1  0  0  0  0
 12 39  1  0  0  0  0
 13 14  1  0  0  0  0
 13 40  1  0  0  0  0
 13 41  1  0  0  0  0
 14 15  1  0  0  0  0
 14 42  1  0  0  0  0
 14 43  1  0  0  0  0
 15 16  1  0  0  0  0
 15 44  1  0  0  0  0
 15 45  1  0  0  0  0
 16 18  1  0  0  0  0
 16 46  1  0  0  0  0
 16 47  1  0  0  0  0
 17 19  1  0  0  0  0
 18 20  1  0  0  0  0
 18 48  1  0  0  0  0
 18 49  1  0  0  0  0
 19 21  1  0  0  0  0
 19 22  2  0  0  0  0
 20 50  1  0  0  0  0
 20 51  1  0  0  0  0
 21 23  2  0  0  0  0
 22 24  1  0  0  0  0
 22 52  1  0  0  0  0
 23 25  1  0  0  0  0
 23 54  1  0  0  0  0
 24 25  2  0  0  0  0
 24 55  1  0  0  0  0
 25 56  1  0  0  0  0
 26 27  2  0  0  0  0
 26 28  1  0  0  0  0
 27 29  1  0  0  0  0
 27 57  1  0  0  0  0
 28 30  2  0  0  0  0
 28 58  1  0  0  0  0
 29 31  2  0  0  0  0
 29 59  1  0  0  0  0
 30 31  1  0  0  0  0
 30 60  1  0  0  0  0
 31 61  1  0  0  0  0
M  END
> <PUBCHEM_COMPOUND_CID>
156016366

> <PUBCHEM_COMPOUND_CANONICALIZED>
1

> <PUBCHEM_CACTVS_COMPLEXITY>
628

> <PUBCHEM_CACTVS_HBOND_ACCEPTOR>
7

> <PUBCHEM_CACTVS_HBOND_DONOR>
1

> <PUBCHEM_CACTVS_ROTATABLE_BOND>
10

> <PUBCHEM_CACTVS_SUBSKEYS>
AAADceB7sABgAAAAAAAAAAAAAAAAAWAAAAA8YIAAAAAAAFgB9AAAHAQQQAAADADBWgQxsdNAAAKkAiJiYHDDABAhAABJmLgoRJiIYKLAmZGUIAxgkALIyAcQgAAOAAAAAAAEAAAAAAAAAAgAAAAAAAAAAA==

> <PUBCHEM_IUPAC_OPENEYE_NAME>
N-[6-[4-(1,2-benzothiazol-3-yl)piperazin-1-yl]hexyl]benzenesulfonamide

> <PUBCHEM_IUPAC_CAS_NAME>
N-[6-[4-(1,2-benzothiazol-3-yl)-1-piperazinyl]hexyl]benzenesulfonamide

> <PUBCHEM_IUPAC_NAME_MARKUP>
<I>N</I>-[6-[4-(1,2-benzothiazol-3-yl)piperazin-1-yl]hexyl]benzenesulfonamide

> <PUBCHEM_IUPAC_NAME>
N-[6-[4-(1,2-benzothiazol-3-yl)piperazin-1-yl]hexyl]benzenesulfonamide

> <PUBCHEM_IUPAC_SYSTEMATIC_NAME>
N-[6-[4-(1,2-benzothiazol-3-yl)piperazin-1-yl]hexyl]benzenesulfonamide

> <PUBCHEM_IUPAC_TRADITIONAL_NAME>
N-[6-[4-(1,2-benzothiazol-3-yl)piperazino]hexyl]benzenesulfonamide

> <PUBCHEM_IUPAC_INCHI>
InChI=1S/C23H30N4O2S2/c28-31(29,20-10-4-3-5-11-20)24-14-8-1-2-9-15-26-16-18-27(19-17-26)23-21-12-6-7-13-22(21)30-25-23/h3-7,10-13,24H,1-2,8-9,14-19H2

> <PUBCHEM_IUPAC_INCHIKEY>
NWCMJMNRRAXNGI-UHFFFAOYSA-N

> <PUBCHEM_XLOGP3_AA>
4.7

> <PUBCHEM_EXACT_MASS>
458.18101856

> <PUBCHEM_MOLECULAR_FORMULA>
C23H30N4O2S2

> <PUBCHEM_MOLECULAR_WEIGHT>
458.6

> <PUBCHEM_OPENEYE_CAN_SMILES>
C1CN(CCN1CCCCCCNS(=O)(=O)C2=CC=CC=C2)C3=NSC4=CC=CC=C43

> <PUBCHEM_OPENEYE_ISO_SMILES>
C1CN(CCN1CCCCCCNS(=O)(=O)C2=CC=CC=C2)C3=NSC4=CC=CC=C43

> <PUBCHEM_CACTVS_TPSA>
102

> <PUBCHEM_MONOISOTOPIC_WEIGHT>
458.18101856

> <PUBCHEM_TOTAL_CHARGE>
0

> <PUBCHEM_HEAVY_ATOM_COUNT>
31

> <PUBCHEM_ATOM_DEF_STEREO_COUNT>
0

> <PUBCHEM_ATOM_UDEF_STEREO_COUNT>
0

> <PUBCHEM_BOND_DEF_STEREO_COUNT>
0

> <PUBCHEM_BOND_UDEF_STEREO_COUNT>
0

> <PUBCHEM_ISOTOPIC_ATOM_COUNT>
0

> <PUBCHEM_COMPONENT_COUNT>
1

> <PUBCHEM_CACTVS_TAUTO_COUNT>
-1

> <PUBCHEM_COORDINATE_TYPE>
1
5
255

> <PUBCHEM_BONDANNOTATIONS>
1  21  8
1  7  8
17  19  8
19  21  8
19  22  8
21  23  8
22  24  8
23  25  8
24  25  8
26  27  8
26  28  8
27  29  8
28  30  8
29  31  8
30  31  8
7  17  8

$$$$
