44374410
  -OEChem-09292322152D

 62 65  0     1  0  0  0  0  0999 V2000
   18.4939   -1.3660    0.0000 F   0  0  0  0  0  0  0  0  0  0  0  0
   12.4939   -1.3660    0.0000 O   0  0  0  0  0  0  0  0  0  0  0  0
    2.8660    2.2320    0.0000 O   0  0  0  0  0  0  0  0  0  0  0  0
    6.9939    1.2320    0.0000 N   0  0  3  0  0  0  0  0  0  0  0  0
   12.4939    0.3660    0.0000 N   0  0  0  0  0  0  0  0  0  0  0  0
    9.4939    0.3660    0.0000 C   0  0  0  0  0  0  0  0  0  0  0  0
    9.9939    1.2320    0.0000 C   0  0  0  0  0  0  0  0  0  0  0  0
    9.9939   -0.5000    0.0000 C   0  0  0  0  0  0  0  0  0  0  0  0
   11.4939    0.3660    0.0000 C   0  0  0  0  0  0  0  0  0  0  0  0
   10.9939    1.2320    0.0000 C   0  0  0  0  0  0  0  0  0  0  0  0
   10.9939   -0.5000    0.0000 C   0  0  0  0  0  0  0  0  0  0  0  0
    8.4939    0.3660    0.0000 C   0  0  0  0  0  0  0  0  0  0  0  0
    7.9939    1.2320    0.0000 C   0  0  0  0  0  0  0  0  0  0  0  0
    6.4103    2.0368    0.0000 C   0  0  0  0  0  0  0  0  0  0  0  0
    6.4103    0.4273    0.0000 C   0  0  0  0  0  0  0  0  0  0  0  0
    5.4641    1.7320    0.0000 C   0  0  0  0  0  0  0  0  0  0  0  0
    5.4641    0.7321    0.0000 C   0  0  0  0  0  0  0  0  0  0  0  0
   12.9939   -0.5000    0.0000 C   0  0  0  0  0  0  0  0  0  0  0  0
    4.5981    2.2320    0.0000 C   0  0  0  0  0  0  0  0  0  0  0  0
    4.5981    0.2321    0.0000 C   0  0  0  0  0  0  0  0  0  0  0  0
    3.7320    1.7320    0.0000 C   0  0  0  0  0  0  0  0  0  0  0  0
    3.7320    0.7321    0.0000 C   0  0  0  0  0  0  0  0  0  0  0  0
   13.9939   -0.5000    0.0000 C   0  0  0  0  0  0  0  0  0  0  0  0
   14.4939   -1.3660    0.0000 C   0  0  0  0  0  0  0  0  0  0  0  0
    2.0000    1.7320    0.0000 C   0  0  0  0  0  0  0  0  0  0  0  0
   15.4939   -1.3660    0.0000 C   0  0  0  0  0  0  0  0  0  0  0  0
   15.9939   -2.2320    0.0000 C   0  0  0  0  0  0  0  0  0  0  0  0
   15.9939   -0.5000    0.0000 C   0  0  0  0  0  0  0  0  0  0  0  0
   16.9939   -2.2320    0.0000 C   0  0  0  0  0  0  0  0  0  0  0  0
   16.9939   -0.5000    0.0000 C   0  0  0  0  0  0  0  0  0  0  0  0
   17.4939   -1.3660    0.0000 C   0  0  0  0  0  0  0  0  0  0  0  0
    9.1839    0.9030    0.0000 H   0  0  0  0  0  0  0  0  0  0  0  0
   10.1016    1.8426    0.0000 H   0  0  0  0  0  0  0  0  0  0  0  0
    9.4113    1.4441    0.0000 H   0  0  0  0  0  0  0  0  0  0  0  0
    9.4113   -0.7121    0.0000 H   0  0  0  0  0  0  0  0  0  0  0  0
   10.1016   -1.1106    0.0000 H   0  0  0  0  0  0  0  0  0  0  0  0
   11.8039    0.9030    0.0000 H   0  0  0  0  0  0  0  0  0  0  0  0
   11.5765    1.4441    0.0000 H   0  0  0  0  0  0  0  0  0  0  0  0
   10.8863    1.8426    0.0000 H   0  0  0  0  0  0  0  0  0  0  0  0
   10.8863   -1.1106    0.0000 H   0  0  0  0  0  0  0  0  0  0  0  0
   11.5765   -0.7121    0.0000 H   0  0  0  0  0  0  0  0  0  0  0  0
    7.9113    0.1540    0.0000 H   0  0  0  0  0  0  0  0  0  0  0  0
    8.6016   -0.2446    0.0000 H   0  0  0  0  0  0  0  0  0  0  0  0
    8.5765    1.4441    0.0000 H   0  0  0  0  0  0  0  0  0  0  0  0
    7.8863    1.8426    0.0000 H   0  0  0  0  0  0  0  0  0  0  0  0
   12.8039    0.9030    0.0000 H   0  0  0  0  0  0  0  0  0  0  0  0
    6.9477    2.3460    0.0000 H   0  0  0  0  0  0  0  0  0  0  0  0
    6.1593    2.6037    0.0000 H   0  0  0  0  0  0  0  0  0  0  0  0
    6.1593   -0.1396    0.0000 H   0  0  0  0  0  0  0  0  0  0  0  0
    6.9477    0.1181    0.0000 H   0  0  0  0  0  0  0  0  0  0  0  0
    4.5981    2.8521    0.0000 H   0  0  0  0  0  0  0  0  0  0  0  0
    4.5981   -0.3879    0.0000 H   0  0  0  0  0  0  0  0  0  0  0  0
    3.1951    0.4221    0.0000 H   0  0  0  0  0  0  0  0  0  0  0  0
   14.3039    0.0369    0.0000 H   0  0  0  0  0  0  0  0  0  0  0  0
   14.1839   -1.9030    0.0000 H   0  0  0  0  0  0  0  0  0  0  0  0
    1.6900    2.2690    0.0000 H   0  0  0  0  0  0  0  0  0  0  0  0
    1.4631    1.4220    0.0000 H   0  0  0  0  0  0  0  0  0  0  0  0
    2.3100    1.1951    0.0000 H   0  0  0  0  0  0  0  0  0  0  0  0
   15.6839   -2.7690    0.0000 H   0  0  0  0  0  0  0  0  0  0  0  0
   15.6839    0.0369    0.0000 H   0  0  0  0  0  0  0  0  0  0  0  0
   17.3039   -2.7690    0.0000 H   0  0  0  0  0  0  0  0  0  0  0  0
   17.3039    0.0369    0.0000 H   0  0  0  0  0  0  0  0  0  0  0  0
  1 31  1  0  0  0  0
  2 18  2  0  0  0  0
  3 21  1  0  0  0  0
  3 25  1  0  0  0  0
  4 13  1  0  0  0  0
  4 14  1  0  0  0  0
  4 15  1  0  0  0  0
  5  9  1  0  0  0  0
  5 18  1  0  0  0  0
  5 46  1  0  0  0  0
  6  7  1  0  0  0  0
  6  8  1  0  0  0  0
  6 12  1  0  0  0  0
  6 32  1  0  0  0  0
  7 10  1  0  0  0  0
  7 33  1  0  0  0  0
  7 34  1  0  0  0  0
  8 11  1  0  0  0  0
  8 35  1  0  0  0  0
  8 36  1  0  0  0  0
  9 10  1  0  0  0  0
  9 11  1  0  0  0  0
  9 37  1  0  0  0  0
 10 38  1  0  0  0  0
 10 39  1  0  0  0  0
 11 40  1  0  0  0  0
 11 41  1  0  0  0  0
 12 13  1  0  0  0  0
 12 42  1  0  0  0  0
 12 43  1  0  0  0  0
 13 44  1  0  0  0  0
 13 45  1  0  0  0  0
 14 16  1  0  0  0  0
 14 47  1  0  0  0  0
 14 48  1  0  0  0  0
 15 17  1  0  0  0  0
 15 49  1  0  0  0  0
 15 50  1  0  0  0  0
 16 17  2  0  0  0  0
 16 19  1  0  0  0  0
 17 20  1  0  0  0  0
 18 23  1  0  0  0  0
 19 21  2  0  0  0  0
 19 51  1  0  0  0  0
 20 22  2  0  0  0  0
 20 52  1  0  0  0  0
 21 22  1  0  0  0  0
 22 53  1  0  0  0  0
 23 24  2  0  0  0  0
 23 54  1  0  0  0  0
 24 26  1  0  0  0  0
 24 55  1  0  0  0  0
 25 56  1  0  0  0  0
 25 57  1  0  0  0  0
 25 58  1  0  0  0  0
 26 27  2  0  0  0  0
 26 28  1  0  0  0  0
 27 29  1  0  0  0  0
 27 59  1  0  0  0  0
 28 30  2  0  0  0  0
 28 60  1  0  0  0  0
 29 31  2  0  0  0  0
 29 61  1  0  0  0  0
 30 31  1  0  0  0  0
 30 62  1  0  0  0  0
M  END
> <PUBCHEM_COMPOUND_CID>
44374410

> <PUBCHEM_COMPOUND_CANONICALIZED>
1

> <PUBCHEM_CACTVS_COMPLEXITY>
596

> <PUBCHEM_CACTVS_HBOND_ACCEPTOR>
4

> <PUBCHEM_CACTVS_HBOND_DONOR>
1

> <PUBCHEM_CACTVS_ROTATABLE_BOND>
7

> <PUBCHEM_CACTVS_SUBSKEYS>
AAADceB7MQAAAAAAAAAAAAAAAAAAAWAAAAAwYMAAAAAAAFgBQAAAHwAQAAAADSzBmA4yBoPABACIAiFSEACCCAAgIAAIiIAODMgMJiKEsRuEMChk1hGIqYew0JIOoAABAAAQAABQAAIAACAAAAAAAAAAAA==

> <PUBCHEM_IUPAC_OPENEYE_NAME>
(E)-3-(4-fluorophenyl)-N-[4-[2-(5-methoxyisoindolin-2-yl)ethyl]cyclohexyl]prop-2-enamide

> <PUBCHEM_IUPAC_CAS_NAME>
(E)-3-(4-fluorophenyl)-N-[4-[2-(5-methoxy-1,3-dihydroisoindol-2-yl)ethyl]cyclohexyl]-2-propenamide

> <PUBCHEM_IUPAC_NAME_MARKUP>
(<I>E</I>)-3-(4-fluorophenyl)-<I>N</I>-[4-[2-(5-methoxy-1,3-dihydroisoindol-2-yl)ethyl]cyclohexyl]prop-2-enamide

> <PUBCHEM_IUPAC_NAME>
(E)-3-(4-fluorophenyl)-N-[4-[2-(5-methoxy-1,3-dihydroisoindol-2-yl)ethyl]cyclohexyl]prop-2-enamide

> <PUBCHEM_IUPAC_SYSTEMATIC_NAME>
(E)-3-(4-fluorophenyl)-N-[4-[2-(5-methoxy-1,3-dihydroisoindol-2-yl)ethyl]cyclohexyl]prop-2-enamide

> <PUBCHEM_IUPAC_TRADITIONAL_NAME>
(E)-3-(4-fluorophenyl)-N-[4-[2-(5-methoxyisoindolin-2-yl)ethyl]cyclohexyl]acrylamide

> <PUBCHEM_IUPAC_INCHI>
InChI=1S/C26H31FN2O2/c1-31-25-12-7-21-17-29(18-22(21)16-25)15-14-20-4-10-24(11-5-20)28-26(30)13-6-19-2-8-23(27)9-3-19/h2-3,6-9,12-13,16,20,24H,4-5,10-11,14-15,17-18H2,1H3,(H,28,30)/b13-6+

> <PUBCHEM_IUPAC_INCHIKEY>
AQZKOCOTDHBMJV-AWNIVKPZSA-N

> <PUBCHEM_XLOGP3_AA>
4.7

> <PUBCHEM_EXACT_MASS>
422.23695640

> <PUBCHEM_MOLECULAR_FORMULA>
C26H31FN2O2

> <PUBCHEM_MOLECULAR_WEIGHT>
422.5

> <PUBCHEM_OPENEYE_CAN_SMILES>
COC1=CC2=C(CN(C2)CCC3CCC(CC3)NC(=O)C=CC4=CC=C(C=C4)F)C=C1

> <PUBCHEM_OPENEYE_ISO_SMILES>
COC1=CC2=C(CN(C2)CCC3CCC(CC3)NC(=O)/C=C/C4=CC=C(C=C4)F)C=C1

> <PUBCHEM_CACTVS_TPSA>
41.6

> <PUBCHEM_MONOISOTOPIC_WEIGHT>
422.23695640

> <PUBCHEM_TOTAL_CHARGE>
0

> <PUBCHEM_HEAVY_ATOM_COUNT>
31

> <PUBCHEM_ATOM_DEF_STEREO_COUNT>
0

> <PUBCHEM_ATOM_UDEF_STEREO_COUNT>
0

> <PUBCHEM_BOND_DEF_STEREO_COUNT>
1

> <PUBCHEM_BOND_UDEF_STEREO_COUNT>
0

> <PUBCHEM_ISOTOPIC_ATOM_COUNT>
0

> <PUBCHEM_COMPONENT_COUNT>
1

> <PUBCHEM_CACTVS_TAUTO_COUNT>
-1

> <PUBCHEM_COORDINATE_TYPE>
1
5
255

> <PUBCHEM_BONDANNOTATIONS>
16  17  8
16  19  8
17  20  8
19  21  8
20  22  8
21  22  8
26  27  8
26  28  8
27  29  8
28  30  8
29  31  8
30  31  8

$$$$
