44431613
  -OEChem-09292322242D

 76 80  0     0  0  0  0  0  0999 V2000
    4.5981   -0.7500    0.0000 S   0  0  0  0  0  0  0  0  0  0  0  0
   11.5263    2.2500    0.0000 O   0  0  0  0  0  0  0  0  0  0  0  0
    5.5981   -0.7500    0.0000 O   0  0  0  0  0  0  0  0  0  0  0  0
    3.5981   -0.7500    0.0000 O   0  0  0  0  0  0  0  0  0  0  0  0
    2.8660   -3.7500    0.0000 O   0  0  0  0  0  0  0  0  0  0  0  0
    4.5981   -4.7500    0.0000 O   0  0  0  0  0  0  0  0  0  0  0  0
    8.0622    2.2500    0.0000 N   0  0  0  0  0  0  0  0  0  0  0  0
    9.7942    3.2500    0.0000 N   0  0  0  0  0  0  0  0  0  0  0  0
    4.5981    0.2500    0.0000 N   0  0  0  0  0  0  0  0  0  0  0  0
    7.1962    1.7500    0.0000 C   0  0  0  0  0  0  0  0  0  0  0  0
    7.1962    0.7500    0.0000 C   0  0  0  0  0  0  0  0  0  0  0  0
    6.3301    2.2500    0.0000 C   0  0  0  0  0  0  0  0  0  0  0  0
    5.4641    0.7500    0.0000 C   0  0  0  0  0  0  0  0  0  0  0  0
    6.3301    0.2500    0.0000 C   0  0  0  0  0  0  0  0  0  0  0  0
    5.4641    1.7500    0.0000 C   0  0  0  0  0  0  0  0  0  0  0  0
   12.3923    0.7500    0.0000 C   0  0  0  0  0  0  0  0  0  0  0  0
    8.9282    1.7500    0.0000 C   0  0  0  0  0  0  0  0  0  0  0  0
    8.0622    3.2500    0.0000 C   0  0  0  0  0  0  0  0  0  0  0  0
   11.8923   -0.1160    0.0000 C   0  0  0  0  0  0  0  0  0  0  0  0
   12.8923   -0.1160    0.0000 C   0  0  0  0  0  0  0  0  0  0  0  0
    9.7942    2.2500    0.0000 C   0  0  0  0  0  0  0  0  0  0  0  0
    8.9282    3.7500    0.0000 C   0  0  0  0  0  0  0  0  0  0  0  0
   12.3923    1.7500    0.0000 C   0  0  0  0  0  0  0  0  0  0  0  0
   10.6603    3.7500    0.0000 C   0  0  0  0  0  0  0  0  0  0  0  0
   11.5263    3.2500    0.0000 C   0  0  0  0  0  0  0  0  0  0  0  0
   10.6603    4.7500    0.0000 C   0  0  0  0  0  0  0  0  0  0  0  0
    4.5981   -1.7500    0.0000 C   0  0  0  0  0  0  0  0  0  0  0  0
   12.3923    3.7500    0.0000 C   0  0  0  0  0  0  0  0  0  0  0  0
   11.5263    5.2500    0.0000 C   0  0  0  0  0  0  0  0  0  0  0  0
   12.3923    4.7500    0.0000 C   0  0  0  0  0  0  0  0  0  0  0  0
    3.7320   -2.2500    0.0000 C   0  0  0  0  0  0  0  0  0  0  0  0
    5.4641   -2.2500    0.0000 C   0  0  0  0  0  0  0  0  0  0  0  0
    3.7320   -3.2500    0.0000 C   0  0  0  0  0  0  0  0  0  0  0  0
    5.4641   -3.2500    0.0000 C   0  0  0  0  0  0  0  0  0  0  0  0
    4.5981   -3.7500    0.0000 C   0  0  0  0  0  0  0  0  0  0  0  0
    2.0000   -3.2500    0.0000 C   0  0  0  0  0  0  0  0  0  0  0  0
    5.4641   -5.2500    0.0000 C   0  0  0  0  0  0  0  0  0  0  0  0
    7.7331    1.4400    0.0000 H   0  0  0  0  0  0  0  0  0  0  0  0
    7.4082    0.1674    0.0000 H   0  0  0  0  0  0  0  0  0  0  0  0
    7.8067    0.8577    0.0000 H   0  0  0  0  0  0  0  0  0  0  0  0
    6.7287    2.7250    0.0000 H   0  0  0  0  0  0  0  0  0  0  0  0
    5.9316    2.7250    0.0000 H   0  0  0  0  0  0  0  0  0  0  0  0
    5.4641    0.1300    0.0000 H   0  0  0  0  0  0  0  0  0  0  0  0
    5.9316   -0.2249    0.0000 H   0  0  0  0  0  0  0  0  0  0  0  0
    6.7287   -0.2249    0.0000 H   0  0  0  0  0  0  0  0  0  0  0  0
    5.2520    2.3326    0.0000 H   0  0  0  0  0  0  0  0  0  0  0  0
    4.8535    1.6423    0.0000 H   0  0  0  0  0  0  0  0  0  0  0  0
   12.9912    0.9105    0.0000 H   0  0  0  0  0  0  0  0  0  0  0  0
    8.5297    1.2750    0.0000 H   0  0  0  0  0  0  0  0  0  0  0  0
    9.3267    1.2750    0.0000 H   0  0  0  0  0  0  0  0  0  0  0  0
    7.8501    3.8326    0.0000 H   0  0  0  0  0  0  0  0  0  0  0  0
    7.4516    3.1423    0.0000 H   0  0  0  0  0  0  0  0  0  0  0  0
   11.3097    0.0960    0.0000 H   0  0  0  0  0  0  0  0  0  0  0  0
   11.7846   -0.7266    0.0000 H   0  0  0  0  0  0  0  0  0  0  0  0
   13.0000   -0.7266    0.0000 H   0  0  0  0  0  0  0  0  0  0  0  0
   13.4749    0.0960    0.0000 H   0  0  0  0  0  0  0  0  0  0  0  0
   10.0063    1.6674    0.0000 H   0  0  0  0  0  0  0  0  0  0  0  0
   10.4048    2.3577    0.0000 H   0  0  0  0  0  0  0  0  0  0  0  0
    9.3267    4.2250    0.0000 H   0  0  0  0  0  0  0  0  0  0  0  0
    8.5297    4.2250    0.0000 H   0  0  0  0  0  0  0  0  0  0  0  0
    4.0611    0.5600    0.0000 H   0  0  0  0  0  0  0  0  0  0  0  0
   13.0029    1.6423    0.0000 H   0  0  0  0  0  0  0  0  0  0  0  0
   12.6044    2.3326    0.0000 H   0  0  0  0  0  0  0  0  0  0  0  0
   10.1233    5.0600    0.0000 H   0  0  0  0  0  0  0  0  0  0  0  0
   12.9292    3.4400    0.0000 H   0  0  0  0  0  0  0  0  0  0  0  0
   11.5263    5.8700    0.0000 H   0  0  0  0  0  0  0  0  0  0  0  0
   12.9292    5.0600    0.0000 H   0  0  0  0  0  0  0  0  0  0  0  0
    3.1951   -1.9400    0.0000 H   0  0  0  0  0  0  0  0  0  0  0  0
    6.0010   -1.9400    0.0000 H   0  0  0  0  0  0  0  0  0  0  0  0
    6.0010   -3.5600    0.0000 H   0  0  0  0  0  0  0  0  0  0  0  0
    2.3100   -2.7131    0.0000 H   0  0  0  0  0  0  0  0  0  0  0  0
    1.4631   -2.9400    0.0000 H   0  0  0  0  0  0  0  0  0  0  0  0
    1.6900   -3.7869    0.0000 H   0  0  0  0  0  0  0  0  0  0  0  0
    5.1541   -5.7869    0.0000 H   0  0  0  0  0  0  0  0  0  0  0  0
    6.0010   -5.5600    0.0000 H   0  0  0  0  0  0  0  0  0  0  0  0
    5.7741   -4.7131    0.0000 H   0  0  0  0  0  0  0  0  0  0  0  0
  1  3  2  0  0  0  0
  1  4  2  0  0  0  0
  1  9  1  0  0  0  0
  1 27  1  0  0  0  0
  2 23  1  0  0  0  0
  2 25  1  0  0  0  0
  5 33  1  0  0  0  0
  5 36  1  0  0  0  0
  6 35  1  0  0  0  0
  6 37  1  0  0  0  0
  7 10  1  0  0  0  0
  7 17  1  0  0  0  0
  7 18  1  0  0  0  0
  8 21  1  0  0  0  0
  8 22  1  0  0  0  0
  8 24  1  0  0  0  0
  9 13  1  0  0  0  0
  9 61  1  0  0  0  0
 10 11  1  0  0  0  0
 10 12  1  0  0  0  0
 10 38  1  0  0  0  0
 11 14  1  0  0  0  0
 11 39  1  0  0  0  0
 11 40  1  0  0  0  0
 12 15  1  0  0  0  0
 12 41  1  0  0  0  0
 12 42  1  0  0  0  0
 13 14  1  0  0  0  0
 13 15  1  0  0  0  0
 13 43  1  0  0  0  0
 14 44  1  0  0  0  0
 14 45  1  0  0  0  0
 15 46  1  0  0  0  0
 15 47  1  0  0  0  0
 16 19  1  0  0  0  0
 16 20  1  0  0  0  0
 16 23  1  0  0  0  0
 16 48  1  0  0  0  0
 17 21  1  0  0  0  0
 17 49  1  0  0  0  0
 17 50  1  0  0  0  0
 18 22  1  0  0  0  0
 18 51  1  0  0  0  0
 18 52  1  0  0  0  0
 19 20  1  0  0  0  0
 19 53  1  0  0  0  0
 19 54  1  0  0  0  0
 20 55  1  0  0  0  0
 20 56  1  0  0  0  0
 21 57  1  0  0  0  0
 21 58  1  0  0  0  0
 22 59  1  0  0  0  0
 22 60  1  0  0  0  0
 23 62  1  0  0  0  0
 23 63  1  0  0  0  0
 24 25  1  0  0  0  0
 24 26  2  0  0  0  0
 25 28  2  0  0  0  0
 26 29  1  0  0  0  0
 26 64  1  0  0  0  0
 27 31  2  0  0  0  0
 27 32  1  0  0  0  0
 28 30  1  0  0  0  0
 28 65  1  0  0  0  0
 29 30  2  0  0  0  0
 29 66  1  0  0  0  0
 30 67  1  0  0  0  0
 31 33  1  0  0  0  0
 31 68  1  0  0  0  0
 32 34  2  0  0  0  0
 32 69  1  0  0  0  0
 33 35  2  0  0  0  0
 34 35  1  0  0  0  0
 34 70  1  0  0  0  0
 36 71  1  0  0  0  0
 36 72  1  0  0  0  0
 36 73  1  0  0  0  0
 37 74  1  0  0  0  0
 37 75  1  0  0  0  0
 37 76  1  0  0  0  0
M  END
> <PUBCHEM_COMPOUND_CID>
44431613

> <PUBCHEM_COMPOUND_CANONICALIZED>
1

> <PUBCHEM_CACTVS_COMPLEXITY>
803

> <PUBCHEM_CACTVS_HBOND_ACCEPTOR>
8

> <PUBCHEM_CACTVS_HBOND_DONOR>
1

> <PUBCHEM_CACTVS_ROTATABLE_BOND>
10

> <PUBCHEM_CACTVS_SUBSKEYS>
AAADcfB7OABAAAAAAAAAAAAAGAAAAAAAAAA8YMEAAAAAAAABQAAAHgQQQAAADSzh0AYyx4NABAKAACRCQHDCCBAhIgAIiJgP7IgPZiLEsZuXOCrk0BHa6AeQQAAAAIAABAAAUAABAQAIAACgAAAAAAAAAA==

> <PUBCHEM_IUPAC_OPENEYE_NAME>
N-[4-[4-[2-(cyclopropylmethoxy)phenyl]piperazin-1-yl]cyclohexyl]-3,4-dimethoxy-benzenesulfonamide

> <PUBCHEM_IUPAC_CAS_NAME>
N-[4-[4-[2-(cyclopropylmethoxy)phenyl]-1-piperazinyl]cyclohexyl]-3,4-dimethoxybenzenesulfonamide

> <PUBCHEM_IUPAC_NAME_MARKUP>
<I>N</I>-[4-[4-[2-(cyclopropylmethoxy)phenyl]piperazin-1-yl]cyclohexyl]-3,4-dimethoxybenzenesulfonamide

> <PUBCHEM_IUPAC_NAME>
N-[4-[4-[2-(cyclopropylmethoxy)phenyl]piperazin-1-yl]cyclohexyl]-3,4-dimethoxybenzenesulfonamide

> <PUBCHEM_IUPAC_SYSTEMATIC_NAME>
N-[4-[4-[2-(cyclopropylmethoxy)phenyl]piperazin-1-yl]cyclohexyl]-3,4-dimethoxy-benzenesulfonamide

> <PUBCHEM_IUPAC_TRADITIONAL_NAME>
N-[4-[4-[2-(cyclopropylmethoxy)phenyl]piperazino]cyclohexyl]-3,4-dimethoxy-benzenesulfonamide

> <PUBCHEM_IUPAC_INCHI>
InChI=1S/C28H39N3O5S/c1-34-27-14-13-24(19-28(27)35-2)37(32,33)29-22-9-11-23(12-10-22)30-15-17-31(18-16-30)25-5-3-4-6-26(25)36-20-21-7-8-21/h3-6,13-14,19,21-23,29H,7-12,15-18,20H2,1-2H3

> <PUBCHEM_IUPAC_INCHIKEY>
HBVMKSZWZCERSH-UHFFFAOYSA-N

> <PUBCHEM_XLOGP3_AA>
4.5

> <PUBCHEM_EXACT_MASS>
529.26104253

> <PUBCHEM_MOLECULAR_FORMULA>
C28H39N3O5S

> <PUBCHEM_MOLECULAR_WEIGHT>
529.7

> <PUBCHEM_OPENEYE_CAN_SMILES>
COC1=C(C=C(C=C1)S(=O)(=O)NC2CCC(CC2)N3CCN(CC3)C4=CC=CC=C4OCC5CC5)OC

> <PUBCHEM_OPENEYE_ISO_SMILES>
COC1=C(C=C(C=C1)S(=O)(=O)NC2CCC(CC2)N3CCN(CC3)C4=CC=CC=C4OCC5CC5)OC

> <PUBCHEM_CACTVS_TPSA>
88.7

> <PUBCHEM_MONOISOTOPIC_WEIGHT>
529.26104253

> <PUBCHEM_TOTAL_CHARGE>
0

> <PUBCHEM_HEAVY_ATOM_COUNT>
37

> <PUBCHEM_ATOM_DEF_STEREO_COUNT>
0

> <PUBCHEM_ATOM_UDEF_STEREO_COUNT>
0

> <PUBCHEM_BOND_DEF_STEREO_COUNT>
0

> <PUBCHEM_BOND_UDEF_STEREO_COUNT>
0

> <PUBCHEM_ISOTOPIC_ATOM_COUNT>
0

> <PUBCHEM_COMPONENT_COUNT>
1

> <PUBCHEM_CACTVS_TAUTO_COUNT>
-1

> <PUBCHEM_COORDINATE_TYPE>
1
5
255

> <PUBCHEM_BONDANNOTATIONS>
24  25  8
24  26  8
25  28  8
26  29  8
27  31  8
27  32  8
28  30  8
29  30  8
31  33  8
32  34  8
33  35  8
34  35  8

$$$$
