164615768
  -OEChem-09292322442D

 62 66  0     1  0  0  0  0  0999 V2000
    2.0000    3.5567    0.0000 O   0  0  0  0  0  0  0  0  0  0  0  0
    2.0000    1.5567    0.0000 O   0  0  0  0  0  0  0  0  0  0  0  0
    8.9826   -1.4741    0.0000 O   0  0  0  0  0  0  0  0  0  0  0  0
    6.3981    2.0359    0.0000 N   0  0  3  0  0  0  0  0  0  0  0  0
    9.8544    0.0226    0.0000 N   0  0  0  0  0  0  0  0  0  0  0  0
    6.3981    3.0775    0.0000 C   0  0  0  0  0  0  0  0  0  0  0  0
    5.4920    1.5221    0.0000 C   0  0  0  0  0  0  0  0  0  0  0  0
    5.4920    3.5914    0.0000 C   0  0  0  0  0  0  0  0  0  0  0  0
    4.5981    2.0567    0.0000 C   0  0  0  0  0  0  0  0  0  0  0  0
    4.5981    3.0567    0.0000 C   0  0  0  0  0  0  0  0  0  0  0  0
    7.2622    1.5326    0.0000 C   0  0  0  0  0  0  0  0  0  0  0  0
    8.1301    2.0292    0.0000 C   0  0  0  0  0  0  0  0  0  0  0  0
    3.7320    3.5567    0.0000 C   0  0  0  0  0  0  0  0  0  0  0  0
    3.7320    1.5567    0.0000 C   0  0  0  0  0  0  0  0  0  0  0  0
    8.9942    1.5259    0.0000 C   0  0  0  0  0  0  0  0  0  0  0  0
    2.8660    3.0567    0.0000 C   0  0  0  0  0  0  0  0  0  0  0  0
    2.8660    2.0567    0.0000 C   0  0  0  0  0  0  0  0  0  0  0  0
    8.1340    3.0292    0.0000 C   0  0  0  0  0  0  0  0  0  0  0  0
    8.9904    0.5259    0.0000 C   0  0  0  0  0  0  0  0  0  0  0  0
    9.8622    2.0226    0.0000 C   0  0  0  0  0  0  0  0  0  0  0  0
    9.0019    3.5259    0.0000 C   0  0  0  0  0  0  0  0  0  0  0  0
    9.8660    3.0226    0.0000 C   0  0  0  0  0  0  0  0  0  0  0  0
    9.8506   -0.9774    0.0000 C   0  0  0  0  0  0  0  0  0  0  0  0
   10.7147   -1.4808    0.0000 C   0  0  0  0  0  0  0  0  0  0  0  0
    2.0000    4.5567    0.0000 C   0  0  0  0  0  0  0  0  0  0  0  0
   11.5749   -2.9841    0.0000 C   0  0  0  0  0  0  0  0  0  0  0  0
   10.7108   -2.4807    0.0000 C   0  0  0  0  0  0  0  0  0  0  0  0
   12.4429   -2.4874    0.0000 C   0  0  0  0  0  0  0  0  0  0  0  0
   11.5826   -0.9841    0.0000 C   0  0  0  0  0  0  0  0  0  0  0  0
   12.4467   -1.4874    0.0000 C   0  0  0  0  0  0  0  0  0  0  0  0
   11.5549   -4.0255    0.0000 C   0  0  0  0  0  0  0  0  0  0  0  0
   13.3509   -2.9978    0.0000 C   0  0  0  0  0  0  0  0  0  0  0  0
   12.4508   -4.5567    0.0000 C   0  0  0  0  0  0  0  0  0  0  0  0
   13.3549   -4.0394    0.0000 C   0  0  0  0  0  0  0  0  0  0  0  0
    7.0089    2.9714    0.0000 H   0  0  0  0  0  0  0  0  0  0  0  0
    6.6071    3.6612    0.0000 H   0  0  0  0  0  0  0  0  0  0  0  0
    5.0874    1.0523    0.0000 H   0  0  0  0  0  0  0  0  0  0  0  0
    5.8856    1.0430    0.0000 H   0  0  0  0  0  0  0  0  0  0  0  0
    5.8856    4.0704    0.0000 H   0  0  0  0  0  0  0  0  0  0  0  0
    5.0874    4.0612    0.0000 H   0  0  0  0  0  0  0  0  0  0  0  0
    6.8618    1.0592    0.0000 H   0  0  0  0  0  0  0  0  0  0  0  0
    7.6589    1.0561    0.0000 H   0  0  0  0  0  0  0  0  0  0  0  0
    3.7320    4.1767    0.0000 H   0  0  0  0  0  0  0  0  0  0  0  0
    3.7320    0.9367    0.0000 H   0  0  0  0  0  0  0  0  0  0  0  0
    7.5982    3.3413    0.0000 H   0  0  0  0  0  0  0  0  0  0  0  0
    8.3802    0.6359    0.0000 H   0  0  0  0  0  0  0  0  0  0  0  0
    8.7761   -0.0559    0.0000 H   0  0  0  0  0  0  0  0  0  0  0  0
   10.3979    1.7105    0.0000 H   0  0  0  0  0  0  0  0  0  0  0  0
    9.0043    4.1459    0.0000 H   0  0  0  0  0  0  0  0  0  0  0  0
   10.4041    3.3305    0.0000 H   0  0  0  0  0  0  0  0  0  0  0  0
   10.3926    0.3305    0.0000 H   0  0  0  0  0  0  0  0  0  0  0  0
    2.0000    0.9367    0.0000 H   0  0  0  0  0  0  0  0  0  0  0  0
    2.6200    4.5567    0.0000 H   0  0  0  0  0  0  0  0  0  0  0  0
    2.0000    5.1767    0.0000 H   0  0  0  0  0  0  0  0  0  0  0  0
    1.3800    4.5567    0.0000 H   0  0  0  0  0  0  0  0  0  0  0  0
   10.1727   -2.7887    0.0000 H   0  0  0  0  0  0  0  0  0  0  0  0
   11.5850   -0.3641    0.0000 H   0  0  0  0  0  0  0  0  0  0  0  0
   12.9849   -1.1795    0.0000 H   0  0  0  0  0  0  0  0  0  0  0  0
   11.0132   -4.3272    0.0000 H   0  0  0  0  0  0  0  0  0  0  0  0
   13.8854   -2.6836    0.0000 H   0  0  0  0  0  0  0  0  0  0  0  0
   12.4461   -5.1767    0.0000 H   0  0  0  0  0  0  0  0  0  0  0  0
   13.8919   -4.3494    0.0000 H   0  0  0  0  0  0  0  0  0  0  0  0
  1 16  1  0  0  0  0
  1 25  1  0  0  0  0
  2 17  1  0  0  0  0
  2 52  1  0  0  0  0
  3 23  2  0  0  0  0
  4  6  1  0  0  0  0
  4  7  1  0  0  0  0
  4 11  1  0  0  0  0
  5 19  1  0  0  0  0
  5 23  1  0  0  0  0
  5 51  1  0  0  0  0
  6  8  1  0  0  0  0
  6 35  1  0  0  0  0
  6 36  1  0  0  0  0
  7  9  1  0  0  0  0
  7 37  1  0  0  0  0
  7 38  1  0  0  0  0
  8 10  1  0  0  0  0
  8 39  1  0  0  0  0
  8 40  1  0  0  0  0
  9 10  1  0  0  0  0
  9 14  2  0  0  0  0
 10 13  2  0  0  0  0
 11 12  1  0  0  0  0
 11 41  1  0  0  0  0
 11 42  1  0  0  0  0
 12 15  1  0  0  0  0
 12 18  2  0  0  0  0
 13 16  1  0  0  0  0
 13 43  1  0  0  0  0
 14 17  1  0  0  0  0
 14 44  1  0  0  0  0
 15 19  1  0  0  0  0
 15 20  2  0  0  0  0
 16 17  2  0  0  0  0
 18 21  1  0  0  0  0
 18 45  1  0  0  0  0
 19 46  1  0  0  0  0
 19 47  1  0  0  0  0
 20 22  1  0  0  0  0
 20 48  1  0  0  0  0
 21 22  2  0  0  0  0
 21 49  1  0  0  0  0
 22 50  1  0  0  0  0
 23 24  1  0  0  0  0
 24 27  2  0  0  0  0
 24 29  1  0  0  0  0
 25 53  1  0  0  0  0
 25 54  1  0  0  0  0
 25 55  1  0  0  0  0
 26 27  1  0  0  0  0
 26 28  1  0  0  0  0
 26 31  2  0  0  0  0
 27 56  1  0  0  0  0
 28 30  1  0  0  0  0
 28 32  2  0  0  0  0
 29 30  2  0  0  0  0
 29 57  1  0  0  0  0
 30 58  1  0  0  0  0
 31 33  1  0  0  0  0
 31 59  1  0  0  0  0
 32 34  1  0  0  0  0
 32 60  1  0  0  0  0
 33 34  2  0  0  0  0
 33 61  1  0  0  0  0
 34 62  1  0  0  0  0
M  END
> <PUBCHEM_COMPOUND_CID>
164615768

> <PUBCHEM_COMPOUND_CANONICALIZED>
1

> <PUBCHEM_CACTVS_COMPLEXITY>
672

> <PUBCHEM_CACTVS_HBOND_ACCEPTOR>
4

> <PUBCHEM_CACTVS_HBOND_DONOR>
2

> <PUBCHEM_CACTVS_ROTATABLE_BOND>
6

> <PUBCHEM_CACTVS_SUBSKEYS>
AAADceB7MAAAAAAAAAAAAAAAAAAAAAAAAAA8YMGCAAAAAADxVAAAHgAQCAAADATBmAYyBsPABgCIAiFSEACCCAAkIAAIiIEOjMgNJjKGtRuEcStkxhGLuYe42PKO4AADAAAQQADAAAYAACCAAAAAAAAAAA==

> <PUBCHEM_IUPAC_OPENEYE_NAME>
N-[[2-[(7-hydroxy-6-methoxy-3,4-dihydro-1H-isoquinolin-2-yl)methyl]phenyl]methyl]naphthalene-2-carboxamide

> <PUBCHEM_IUPAC_CAS_NAME>
N-[[2-[(7-hydroxy-6-methoxy-3,4-dihydro-1H-isoquinolin-2-yl)methyl]phenyl]methyl]-2-naphthalenecarboxamide

> <PUBCHEM_IUPAC_NAME_MARKUP>
<I>N</I>-[[2-[(7-hydroxy-6-methoxy-3,4-dihydro-1<I>H</I>-isoquinolin-2-yl)methyl]phenyl]methyl]naphthalene-2-carboxamide

> <PUBCHEM_IUPAC_NAME>
N-[[2-[(7-hydroxy-6-methoxy-3,4-dihydro-1H-isoquinolin-2-yl)methyl]phenyl]methyl]naphthalene-2-carboxamide

> <PUBCHEM_IUPAC_SYSTEMATIC_NAME>
N-[[2-[(6-methoxy-7-oxidanyl-3,4-dihydro-1H-isoquinolin-2-yl)methyl]phenyl]methyl]naphthalene-2-carboxamide

> <PUBCHEM_IUPAC_TRADITIONAL_NAME>
N-[2-[(7-hydroxy-6-methoxy-3,4-dihydro-1H-isoquinolin-2-yl)methyl]benzyl]-2-naphthamide

> <PUBCHEM_IUPAC_INCHI>
InChI=1S/C29H28N2O3/c1-34-28-16-22-12-13-31(19-26(22)15-27(28)32)18-25-9-5-4-8-24(25)17-30-29(33)23-11-10-20-6-2-3-7-21(20)14-23/h2-11,14-16,32H,12-13,17-19H2,1H3,(H,30,33)

> <PUBCHEM_IUPAC_INCHIKEY>
LNTSSZPPKDLPCK-UHFFFAOYSA-N

> <PUBCHEM_XLOGP3_AA>
4.9

> <PUBCHEM_EXACT_MASS>
452.20999276

> <PUBCHEM_MOLECULAR_FORMULA>
C29H28N2O3

> <PUBCHEM_MOLECULAR_WEIGHT>
452.5

> <PUBCHEM_OPENEYE_CAN_SMILES>
COC1=C(C=C2CN(CCC2=C1)CC3=CC=CC=C3CNC(=O)C4=CC5=CC=CC=C5C=C4)O

> <PUBCHEM_OPENEYE_ISO_SMILES>
COC1=C(C=C2CN(CCC2=C1)CC3=CC=CC=C3CNC(=O)C4=CC5=CC=CC=C5C=C4)O

> <PUBCHEM_CACTVS_TPSA>
61.8

> <PUBCHEM_MONOISOTOPIC_WEIGHT>
452.20999276

> <PUBCHEM_TOTAL_CHARGE>
0

> <PUBCHEM_HEAVY_ATOM_COUNT>
34

> <PUBCHEM_ATOM_DEF_STEREO_COUNT>
0

> <PUBCHEM_ATOM_UDEF_STEREO_COUNT>
0

> <PUBCHEM_BOND_DEF_STEREO_COUNT>
0

> <PUBCHEM_BOND_UDEF_STEREO_COUNT>
0

> <PUBCHEM_ISOTOPIC_ATOM_COUNT>
0

> <PUBCHEM_COMPONENT_COUNT>
1

> <PUBCHEM_CACTVS_TAUTO_COUNT>
-1

> <PUBCHEM_COORDINATE_TYPE>
1
5
255

> <PUBCHEM_BONDANNOTATIONS>
10  13  8
12  15  8
12  18  8
13  16  8
14  17  8
15  20  8
16  17  8
18  21  8
20  22  8
21  22  8
24  27  8
24  29  8
26  27  8
26  28  8
26  31  8
28  30  8
28  32  8
29  30  8
31  33  8
32  34  8
33  34  8
9  10  8
9  14  8

$$$$
