137655884
  -OEChem-09292322082D

 51 54  0     0  0  0  0  0  0999 V2000
    9.8622   -1.0173    0.0000 Cl  0  0  0  0  0  0  0  0  0  0  0  0
   11.5942   -2.0173    0.0000 Cl  0  0  0  0  0  0  0  0  0  0  0  0
    4.6660    3.9827    0.0000 O   0  0  0  0  0  0  0  0  0  0  0  0
    6.3981    1.9827    0.0000 O   0  0  0  0  0  0  0  0  0  0  0  0
    6.3981   -1.0173    0.0000 N   0  0  0  0  0  0  0  0  0  0  0  0
    8.1301   -2.0173    0.0000 N   0  0  0  0  0  0  0  0  0  0  0  0
    4.6660    1.9827    0.0000 N   0  0  0  0  0  0  0  0  0  0  0  0
    7.2641   -0.5173    0.0000 C   0  0  0  0  0  0  0  0  0  0  0  0
    6.3981   -2.0173    0.0000 C   0  0  0  0  0  0  0  0  0  0  0  0
    8.1301   -1.0173    0.0000 C   0  0  0  0  0  0  0  0  0  0  0  0
    7.2641   -2.5173    0.0000 C   0  0  0  0  0  0  0  0  0  0  0  0
    5.5321   -0.5173    0.0000 C   0  0  0  0  0  0  0  0  0  0  0  0
    5.5321    0.4827    0.0000 C   0  0  0  0  0  0  0  0  0  0  0  0
    4.6660    0.9827    0.0000 C   0  0  0  0  0  0  0  0  0  0  0  0
    8.9962   -2.5173    0.0000 C   0  0  0  0  0  0  0  0  0  0  0  0
    3.8000    2.4827    0.0000 C   0  0  0  0  0  0  0  0  0  0  0  0
    9.8622   -2.0173    0.0000 C   0  0  0  0  0  0  0  0  0  0  0  0
    8.9962   -3.5173    0.0000 C   0  0  0  0  0  0  0  0  0  0  0  0
    5.5321    2.4827    0.0000 C   0  0  0  0  0  0  0  0  0  0  0  0
    3.8000    3.4827    0.0000 C   0  0  0  0  0  0  0  0  0  0  0  0
    5.5321    3.4827    0.0000 C   0  0  0  0  0  0  0  0  0  0  0  0
    2.9061    1.9480    0.0000 C   0  0  0  0  0  0  0  0  0  0  0  0
   10.7282   -2.5173    0.0000 C   0  0  0  0  0  0  0  0  0  0  0  0
    9.8622   -4.0173    0.0000 C   0  0  0  0  0  0  0  0  0  0  0  0
   10.7282   -3.5173    0.0000 C   0  0  0  0  0  0  0  0  0  0  0  0
    2.9061    4.0173    0.0000 C   0  0  0  0  0  0  0  0  0  0  0  0
    2.0000    2.4618    0.0000 C   0  0  0  0  0  0  0  0  0  0  0  0
    2.0000    3.5035    0.0000 C   0  0  0  0  0  0  0  0  0  0  0  0
    7.6626   -0.0424    0.0000 H   0  0  0  0  0  0  0  0  0  0  0  0
    6.8656   -0.0424    0.0000 H   0  0  0  0  0  0  0  0  0  0  0  0
    5.7875   -1.9097    0.0000 H   0  0  0  0  0  0  0  0  0  0  0  0
    6.1860   -2.5999    0.0000 H   0  0  0  0  0  0  0  0  0  0  0  0
    8.7407   -1.1250    0.0000 H   0  0  0  0  0  0  0  0  0  0  0  0
    8.3422   -0.4347    0.0000 H   0  0  0  0  0  0  0  0  0  0  0  0
    6.8656   -2.9923    0.0000 H   0  0  0  0  0  0  0  0  0  0  0  0
    7.6626   -2.9923    0.0000 H   0  0  0  0  0  0  0  0  0  0  0  0
    4.9215   -0.4097    0.0000 H   0  0  0  0  0  0  0  0  0  0  0  0
    5.3200   -1.0999    0.0000 H   0  0  0  0  0  0  0  0  0  0  0  0
    6.1426    0.3750    0.0000 H   0  0  0  0  0  0  0  0  0  0  0  0
    5.7441    1.0653    0.0000 H   0  0  0  0  0  0  0  0  0  0  0  0
    4.0555    1.0903    0.0000 H   0  0  0  0  0  0  0  0  0  0  0  0
    4.4540    0.4001    0.0000 H   0  0  0  0  0  0  0  0  0  0  0  0
    8.4592   -3.8273    0.0000 H   0  0  0  0  0  0  0  0  0  0  0  0
    6.1426    3.3750    0.0000 H   0  0  0  0  0  0  0  0  0  0  0  0
    5.7441    4.0653    0.0000 H   0  0  0  0  0  0  0  0  0  0  0  0
    2.9132    1.3280    0.0000 H   0  0  0  0  0  0  0  0  0  0  0  0
    9.8622   -4.6373    0.0000 H   0  0  0  0  0  0  0  0  0  0  0  0
   11.2651   -3.8273    0.0000 H   0  0  0  0  0  0  0  0  0  0  0  0
    2.9132    4.6373    0.0000 H   0  0  0  0  0  0  0  0  0  0  0  0
    1.4643    2.1498    0.0000 H   0  0  0  0  0  0  0  0  0  0  0  0
    1.4643    3.8156    0.0000 H   0  0  0  0  0  0  0  0  0  0  0  0
  1 17  1  0  0  0  0
  2 23  1  0  0  0  0
  3 20  1  0  0  0  0
  3 21  1  0  0  0  0
  4 19  2  0  0  0  0
  5  8  1  0  0  0  0
  5  9  1  0  0  0  0
  5 12  1  0  0  0  0
  6 10  1  0  0  0  0
  6 11  1  0  0  0  0
  6 15  1  0  0  0  0
  7 14  1  0  0  0  0
  7 16  1  0  0  0  0
  7 19  1  0  0  0  0
  8 10  1  0  0  0  0
  8 29  1  0  0  0  0
  8 30  1  0  0  0  0
  9 11  1  0  0  0  0
  9 31  1  0  0  0  0
  9 32  1  0  0  0  0
 10 33  1  0  0  0  0
 10 34  1  0  0  0  0
 11 35  1  0  0  0  0
 11 36  1  0  0  0  0
 12 13  1  0  0  0  0
 12 37  1  0  0  0  0
 12 38  1  0  0  0  0
 13 14  1  0  0  0  0
 13 39  1  0  0  0  0
 13 40  1  0  0  0  0
 14 41  1  0  0  0  0
 14 42  1  0  0  0  0
 15 17  2  0  0  0  0
 15 18  1  0  0  0  0
 16 20  1  0  0  0  0
 16 22  2  0  0  0  0
 17 23  1  0  0  0  0
 18 24  2  0  0  0  0
 18 43  1  0  0  0  0
 19 21  1  0  0  0  0
 20 26  2  0  0  0  0
 21 44  1  0  0  0  0
 21 45  1  0  0  0  0
 22 27  1  0  0  0  0
 22 46  1  0  0  0  0
 23 25  2  0  0  0  0
 24 25  1  0  0  0  0
 24 47  1  0  0  0  0
 25 48  1  0  0  0  0
 26 28  1  0  0  0  0
 26 49  1  0  0  0  0
 27 28  2  0  0  0  0
 27 50  1  0  0  0  0
 28 51  1  0  0  0  0
M  END
> <PUBCHEM_COMPOUND_CID>
137655884

> <PUBCHEM_COMPOUND_CANONICALIZED>
1

> <PUBCHEM_CACTVS_COMPLEXITY>
530

> <PUBCHEM_CACTVS_HBOND_ACCEPTOR>
4

> <PUBCHEM_CACTVS_HBOND_DONOR>
0

> <PUBCHEM_CACTVS_ROTATABLE_BOND>
5

> <PUBCHEM_CACTVS_SUBSKEYS>
AAADceB7MAAGAAAAAAAAAAAAAAAAAAAAAAA8eIEAAAAAAACxQAAAHgIAAAAACA7hkCYwxoMABACIACVSUAKCCAAhJwAIikBPbogOZiLF85/XOCjkxhHY6AeQQAAAAAAAAAIAEBQAAAAABAAgKAAAAAAAAA==

> <PUBCHEM_IUPAC_OPENEYE_NAME>
4-[3-[4-(2,3-dichlorophenyl)piperazin-1-yl]propyl]-1,4-benzoxazin-3-one

> <PUBCHEM_IUPAC_CAS_NAME>
4-[3-[4-(2,3-dichlorophenyl)-1-piperazinyl]propyl]-1,4-benzoxazin-3-one

> <PUBCHEM_IUPAC_NAME_MARKUP>
4-[3-[4-(2,3-dichlorophenyl)piperazin-1-yl]propyl]-1,4-benzoxazin-3-one

> <PUBCHEM_IUPAC_NAME>
4-[3-[4-(2,3-dichlorophenyl)piperazin-1-yl]propyl]-1,4-benzoxazin-3-one

> <PUBCHEM_IUPAC_SYSTEMATIC_NAME>
4-[3-[4-[2,3-bis(chloranyl)phenyl]piperazin-1-yl]propyl]-1,4-benzoxazin-3-one

> <PUBCHEM_IUPAC_TRADITIONAL_NAME>
4-[3-[4-(2,3-dichlorophenyl)piperazino]propyl]-1,4-benzoxazin-3-one

> <PUBCHEM_IUPAC_INCHI>
InChI=1S/C21H23Cl2N3O2/c22-16-5-3-7-18(21(16)23)25-13-11-24(12-14-25)9-4-10-26-17-6-1-2-8-19(17)28-15-20(26)27/h1-3,5-8H,4,9-15H2

> <PUBCHEM_IUPAC_INCHIKEY>
WBEWCMPWKAJVJV-UHFFFAOYSA-N

> <PUBCHEM_XLOGP3_AA>
4.3

> <PUBCHEM_EXACT_MASS>
419.1167324

> <PUBCHEM_MOLECULAR_FORMULA>
C21H23Cl2N3O2

> <PUBCHEM_MOLECULAR_WEIGHT>
420.3

> <PUBCHEM_OPENEYE_CAN_SMILES>
C1CN(CCN1CCCN2C(=O)COC3=CC=CC=C32)C4=C(C(=CC=C4)Cl)Cl

> <PUBCHEM_OPENEYE_ISO_SMILES>
C1CN(CCN1CCCN2C(=O)COC3=CC=CC=C32)C4=C(C(=CC=C4)Cl)Cl

> <PUBCHEM_CACTVS_TPSA>
36

> <PUBCHEM_MONOISOTOPIC_WEIGHT>
419.1167324

> <PUBCHEM_TOTAL_CHARGE>
0

> <PUBCHEM_HEAVY_ATOM_COUNT>
28

> <PUBCHEM_ATOM_DEF_STEREO_COUNT>
0

> <PUBCHEM_ATOM_UDEF_STEREO_COUNT>
0

> <PUBCHEM_BOND_DEF_STEREO_COUNT>
0

> <PUBCHEM_BOND_UDEF_STEREO_COUNT>
0

> <PUBCHEM_ISOTOPIC_ATOM_COUNT>
0

> <PUBCHEM_COMPONENT_COUNT>
1

> <PUBCHEM_CACTVS_TAUTO_COUNT>
-1

> <PUBCHEM_COORDINATE_TYPE>
1
5
255

> <PUBCHEM_BONDANNOTATIONS>
15  17  8
15  18  8
16  20  8
16  22  8
17  23  8
18  24  8
20  26  8
22  27  8
23  25  8
24  25  8
26  28  8
27  28  8

$$$$
