57399432
  -OEChem-09292322322D

 53 56  0     1  0  0  0  0  0999 V2000
   15.0564    1.4312    0.0000 Cl  0  0  0  0  0  0  0  0  0  0  0  0
    4.6783    1.7325    0.0000 S   0  0  0  0  0  0  0  0  0  0  0  0
    9.2619   -0.8043    0.0000 N   0  0  3  0  0  0  0  0  0  0  0  0
   11.4525   -0.3043    0.0000 N   0  0  3  0  0  0  0  0  0  0  0  0
    4.6783    0.1230    0.0000 N   0  0  0  0  0  0  0  0  0  0  0  0
    9.6958   -1.7052    0.0000 C   0  0  0  0  0  0  0  0  0  0  0  0
    9.6958    0.0967    0.0000 C   0  0  0  0  0  0  0  0  0  0  0  0
   10.6707   -1.9278    0.0000 C   0  0  0  0  0  0  0  0  0  0  0  0
   10.6707    0.3192    0.0000 C   0  0  0  0  0  0  0  0  0  0  0  0
   11.4525   -1.3043    0.0000 C   0  0  0  0  0  0  0  0  0  0  0  0
    8.2619   -0.8043    0.0000 C   0  0  0  0  0  0  0  0  0  0  0  0
    7.7619    0.0617    0.0000 C   0  0  0  0  0  0  0  0  0  0  0  0
    6.7619    0.0617    0.0000 C   0  0  0  0  0  0  0  0  0  0  0  0
   12.3535    0.1296    0.0000 C   0  0  0  0  0  0  0  0  0  0  0  0
    6.2619    0.9278    0.0000 C   0  0  0  0  0  0  0  0  0  0  0  0
   12.4282    1.1268    0.0000 C   0  0  0  0  0  0  0  0  0  0  0  0
   13.1797   -0.4337    0.0000 C   0  0  0  0  0  0  0  0  0  0  0  0
    5.2619    0.9278    0.0000 C   0  0  0  0  0  0  0  0  0  0  0  0
   13.3292    1.5607    0.0000 C   0  0  0  0  0  0  0  0  0  0  0  0
   14.0807    0.0002    0.0000 C   0  0  0  0  0  0  0  0  0  0  0  0
   14.1554    0.9974    0.0000 C   0  0  0  0  0  0  0  0  0  0  0  0
    3.7320    1.4278    0.0000 C   0  0  0  0  0  0  0  0  0  0  0  0
    3.7320    0.4278    0.0000 C   0  0  0  0  0  0  0  0  0  0  0  0
    2.8660    1.9278    0.0000 C   0  0  0  0  0  0  0  0  0  0  0  0
    2.8660   -0.0722    0.0000 C   0  0  0  0  0  0  0  0  0  0  0  0
    2.0000    1.4278    0.0000 C   0  0  0  0  0  0  0  0  0  0  0  0
    2.0000    0.4278    0.0000 C   0  0  0  0  0  0  0  0  0  0  0  0
    9.0913   -1.8432    0.0000 H   0  0  0  0  0  0  0  0  0  0  0  0
    9.6958   -2.3252    0.0000 H   0  0  0  0  0  0  0  0  0  0  0  0
    9.6958    0.7167    0.0000 H   0  0  0  0  0  0  0  0  0  0  0  0
    9.0913    0.2347    0.0000 H   0  0  0  0  0  0  0  0  0  0  0  0
   10.4017   -2.4864    0.0000 H   0  0  0  0  0  0  0  0  0  0  0  0
   11.1554   -2.3143    0.0000 H   0  0  0  0  0  0  0  0  0  0  0  0
   11.1554    0.7058    0.0000 H   0  0  0  0  0  0  0  0  0  0  0  0
   10.4017    0.8778    0.0000 H   0  0  0  0  0  0  0  0  0  0  0  0
    7.6793   -1.0163    0.0000 H   0  0  0  0  0  0  0  0  0  0  0  0
    8.3695   -1.4149    0.0000 H   0  0  0  0  0  0  0  0  0  0  0  0
   11.7215   -1.8629    0.0000 H   0  0  0  0  0  0  0  0  0  0  0  0
   12.0570   -1.1663    0.0000 H   0  0  0  0  0  0  0  0  0  0  0  0
    8.3445    0.2738    0.0000 H   0  0  0  0  0  0  0  0  0  0  0  0
    7.6542    0.6723    0.0000 H   0  0  0  0  0  0  0  0  0  0  0  0
    6.1793   -0.1503    0.0000 H   0  0  0  0  0  0  0  0  0  0  0  0
    6.8695   -0.5488    0.0000 H   0  0  0  0  0  0  0  0  0  0  0  0
    6.8445    1.1398    0.0000 H   0  0  0  0  0  0  0  0  0  0  0  0
    6.1542    1.5384    0.0000 H   0  0  0  0  0  0  0  0  0  0  0  0
   11.9160    1.4761    0.0000 H   0  0  0  0  0  0  0  0  0  0  0  0
   13.1334   -1.0520    0.0000 H   0  0  0  0  0  0  0  0  0  0  0  0
   13.3755    2.1790    0.0000 H   0  0  0  0  0  0  0  0  0  0  0  0
   14.5930   -0.3491    0.0000 H   0  0  0  0  0  0  0  0  0  0  0  0
    2.8660    2.5478    0.0000 H   0  0  0  0  0  0  0  0  0  0  0  0
    2.8660   -0.6922    0.0000 H   0  0  0  0  0  0  0  0  0  0  0  0
    1.4631    1.7378    0.0000 H   0  0  0  0  0  0  0  0  0  0  0  0
    1.4631    0.1178    0.0000 H   0  0  0  0  0  0  0  0  0  0  0  0
  1 21  1  0  0  0  0
  2 18  1  0  0  0  0
  2 22  1  0  0  0  0
  3  6  1  0  0  0  0
  3  7  1  0  0  0  0
  3 11  1  0  0  0  0
  4  9  1  0  0  0  0
  4 10  1  0  0  0  0
  4 14  1  0  0  0  0
  5 18  2  0  0  0  0
  5 23  1  0  0  0  0
  6  8  1  0  0  0  0
  6 28  1  0  0  0  0
  6 29  1  0  0  0  0
  7  9  1  0  0  0  0
  7 30  1  0  0  0  0
  7 31  1  0  0  0  0
  8 10  1  0  0  0  0
  8 32  1  0  0  0  0
  8 33  1  0  0  0  0
  9 34  1  0  0  0  0
  9 35  1  0  0  0  0
 10 38  1  0  0  0  0
 10 39  1  0  0  0  0
 11 12  1  0  0  0  0
 11 36  1  0  0  0  0
 11 37  1  0  0  0  0
 12 13  1  0  0  0  0
 12 40  1  0  0  0  0
 12 41  1  0  0  0  0
 13 15  1  0  0  0  0
 13 42  1  0  0  0  0
 13 43  1  0  0  0  0
 14 16  2  0  0  0  0
 14 17  1  0  0  0  0
 15 18  1  0  0  0  0
 15 44  1  0  0  0  0
 15 45  1  0  0  0  0
 16 19  1  0  0  0  0
 16 46  1  0  0  0  0
 17 20  2  0  0  0  0
 17 47  1  0  0  0  0
 19 21  2  0  0  0  0
 19 48  1  0  0  0  0
 20 21  1  0  0  0  0
 20 49  1  0  0  0  0
 22 23  1  0  0  0  0
 22 24  2  0  0  0  0
 23 25  2  0  0  0  0
 24 26  1  0  0  0  0
 24 50  1  0  0  0  0
 25 27  1  0  0  0  0
 25 51  1  0  0  0  0
 26 27  2  0  0  0  0
 26 52  1  0  0  0  0
 27 53  1  0  0  0  0
M  END
> <PUBCHEM_COMPOUND_CID>
57399432

> <PUBCHEM_COMPOUND_CANONICALIZED>
1

> <PUBCHEM_CACTVS_COMPLEXITY>
443

> <PUBCHEM_CACTVS_HBOND_ACCEPTOR>
4

> <PUBCHEM_CACTVS_HBOND_DONOR>
0

> <PUBCHEM_CACTVS_ROTATABLE_BOND>
6

> <PUBCHEM_CACTVS_SUBSKEYS>
AAADceB7AABEAAAAAAAAAAAAAAAAAWAAAAAwYAAABYAAAFgB9AAAHAYAAAAACArBViQwwbMIEAikASRiRACD8KBhDzhImDw4ZpgIYKLh05GUIAhggADoyAcQAAAAAABAAAAAAQAAAIAAAAACAAAAAAAAAA==

> <PUBCHEM_IUPAC_OPENEYE_NAME>
2-[4-[4-(4-chlorophenyl)-1,4-diazepan-1-yl]butyl]-1,3-benzothiazole

> <PUBCHEM_IUPAC_CAS_NAME>
2-[4-[4-(4-chlorophenyl)-1,4-diazepan-1-yl]butyl]-1,3-benzothiazole

> <PUBCHEM_IUPAC_NAME_MARKUP>
2-[4-[4-(4-chlorophenyl)-1,4-diazepan-1-yl]butyl]-1,3-benzothiazole

> <PUBCHEM_IUPAC_NAME>
2-[4-[4-(4-chlorophenyl)-1,4-diazepan-1-yl]butyl]-1,3-benzothiazole

> <PUBCHEM_IUPAC_SYSTEMATIC_NAME>
2-[4-[4-(4-chlorophenyl)-1,4-diazepan-1-yl]butyl]-1,3-benzothiazole

> <PUBCHEM_IUPAC_TRADITIONAL_NAME>
2-[4-[4-(4-chlorophenyl)-1,4-diazepan-1-yl]butyl]-1,3-benzothiazole

> <PUBCHEM_IUPAC_INCHI>
InChI=1S/C22H26ClN3S/c23-18-9-11-19(12-10-18)26-15-5-14-25(16-17-26)13-4-3-8-22-24-20-6-1-2-7-21(20)27-22/h1-2,6-7,9-12H,3-5,8,13-17H2

> <PUBCHEM_IUPAC_INCHIKEY>
UNTNFKPMHAXOEK-UHFFFAOYSA-N

> <PUBCHEM_XLOGP3_AA>
6

> <PUBCHEM_EXACT_MASS>
399.1535967

> <PUBCHEM_MOLECULAR_FORMULA>
C22H26ClN3S

> <PUBCHEM_MOLECULAR_WEIGHT>
400.0

> <PUBCHEM_OPENEYE_CAN_SMILES>
C1CN(CCN(C1)C2=CC=C(C=C2)Cl)CCCCC3=NC4=CC=CC=C4S3

> <PUBCHEM_OPENEYE_ISO_SMILES>
C1CN(CCN(C1)C2=CC=C(C=C2)Cl)CCCCC3=NC4=CC=CC=C4S3

> <PUBCHEM_CACTVS_TPSA>
47.6

> <PUBCHEM_MONOISOTOPIC_WEIGHT>
399.1535967

> <PUBCHEM_TOTAL_CHARGE>
0

> <PUBCHEM_HEAVY_ATOM_COUNT>
27

> <PUBCHEM_ATOM_DEF_STEREO_COUNT>
0

> <PUBCHEM_ATOM_UDEF_STEREO_COUNT>
0

> <PUBCHEM_BOND_DEF_STEREO_COUNT>
0

> <PUBCHEM_BOND_UDEF_STEREO_COUNT>
0

> <PUBCHEM_ISOTOPIC_ATOM_COUNT>
0

> <PUBCHEM_COMPONENT_COUNT>
1

> <PUBCHEM_CACTVS_TAUTO_COUNT>
-1

> <PUBCHEM_COORDINATE_TYPE>
1
5
255

> <PUBCHEM_BONDANNOTATIONS>
14  16  8
14  17  8
16  19  8
17  20  8
19  21  8
2  18  8
2  22  8
20  21  8
22  23  8
22  24  8
23  25  8
24  26  8
25  27  8
26  27  8
5  18  8
5  23  8

$$$$
