9841203
  -OEChem-09292322222D

 47 50  0     1  0  0  0  0  0999 V2000
    9.7619   -0.6196    0.0000 O   0  0  0  0  0  0  0  0  0  0  0  0
    2.0000   -2.7176    0.0000 O   0  0  0  0  0  0  0  0  0  0  0  0
    6.5000   -0.1196    0.0000 N   0  0  3  0  0  0  0  0  0  0  0  0
    3.5000   -3.5837    0.0000 N   0  0  0  0  0  0  0  0  0  0  0  0
    9.7701    4.4497    0.0000 N   0  0  0  0  0  0  0  0  0  0  0  0
    8.0298   -0.6196    0.0000 C   0  0  2  0  0  0  0  0  0  0  0  0
    8.0298    0.3804    0.0000 C   0  0  2  0  0  0  0  0  0  0  0  0
    7.0836   -0.9243    0.0000 C   0  0  0  0  0  0  0  0  0  0  0  0
    7.0836    0.6852    0.0000 C   0  0  0  0  0  0  0  0  0  0  0  0
    8.8958   -1.1196    0.0000 C   0  0  0  0  0  0  0  0  0  0  0  0
    8.8958    0.8804    0.0000 C   0  0  0  0  0  0  0  0  0  0  0  0
    5.5000   -0.1196    0.0000 C   0  0  0  0  0  0  0  0  0  0  0  0
    9.7619    0.3804    0.0000 C   0  0  0  0  0  0  0  0  0  0  0  0
    8.8798    1.9220    0.0000 C   0  0  0  0  0  0  0  0  0  0  0  0
    5.0000   -0.9856    0.0000 C   0  0  0  0  0  0  0  0  0  0  0  0
   10.6719    0.8873    0.0000 C   0  0  0  0  0  0  0  0  0  0  0  0
    9.7778    2.4497    0.0000 C   0  0  0  0  0  0  0  0  0  0  0  0
   10.6799    1.9289    0.0000 C   0  0  0  0  0  0  0  0  0  0  0  0
    5.5000   -1.8516    0.0000 C   0  0  0  0  0  0  0  0  0  0  0  0
    4.0000   -0.9856    0.0000 C   0  0  0  0  0  0  0  0  0  0  0  0
    5.0000   -2.7176    0.0000 C   0  0  0  0  0  0  0  0  0  0  0  0
    3.5000   -1.8516    0.0000 C   0  0  0  0  0  0  0  0  0  0  0  0
    9.7740    3.4497    0.0000 C   0  0  0  0  0  0  0  0  0  0  0  0
    4.0000   -2.7176    0.0000 C   0  0  0  0  0  0  0  0  0  0  0  0
    2.5000   -3.5837    0.0000 C   0  0  0  0  0  0  0  0  0  0  0  0
    2.0000   -4.4497    0.0000 C   0  0  0  0  0  0  0  0  0  0  0  0
    7.9399   -1.4648    0.0000 H   0  0  0  0  0  0  0  0  0  0  0  0
    7.9399    1.2257    0.0000 H   0  0  0  0  0  0  0  0  0  0  0  0
    6.5462   -1.2335    0.0000 H   0  0  0  0  0  0  0  0  0  0  0  0
    7.3346   -1.4912    0.0000 H   0  0  0  0  0  0  0  0  0  0  0  0
    7.3346    1.2521    0.0000 H   0  0  0  0  0  0  0  0  0  0  0  0
    6.5462    0.9944    0.0000 H   0  0  0  0  0  0  0  0  0  0  0  0
    8.4973   -1.5945    0.0000 H   0  0  0  0  0  0  0  0  0  0  0  0
    9.2944   -1.5945    0.0000 H   0  0  0  0  0  0  0  0  0  0  0  0
    5.6077    0.4910    0.0000 H   0  0  0  0  0  0  0  0  0  0  0  0
    4.9174    0.0925    0.0000 H   0  0  0  0  0  0  0  0  0  0  0  0
    8.3393    2.2257    0.0000 H   0  0  0  0  0  0  0  0  0  0  0  0
   11.2052    0.5711    0.0000 H   0  0  0  0  0  0  0  0  0  0  0  0
   11.2180    2.2368    0.0000 H   0  0  0  0  0  0  0  0  0  0  0  0
    6.1200   -1.8516    0.0000 H   0  0  0  0  0  0  0  0  0  0  0  0
    3.6900   -0.4486    0.0000 H   0  0  0  0  0  0  0  0  0  0  0  0
    5.3100   -3.2546    0.0000 H   0  0  0  0  0  0  0  0  0  0  0  0
    2.8800   -1.8516    0.0000 H   0  0  0  0  0  0  0  0  0  0  0  0
    3.8100   -4.1206    0.0000 H   0  0  0  0  0  0  0  0  0  0  0  0
    1.4631   -4.1397    0.0000 H   0  0  0  0  0  0  0  0  0  0  0  0
    1.6900   -4.9866    0.0000 H   0  0  0  0  0  0  0  0  0  0  0  0
    2.5369   -4.7597    0.0000 H   0  0  0  0  0  0  0  0  0  0  0  0
  1 10  1  0  0  0  0
  1 13  1  0  0  0  0
  2 25  2  0  0  0  0
  3  8  1  0  0  0  0
  3  9  1  0  0  0  0
  3 12  1  0  0  0  0
  4 24  1  0  0  0  0
  4 25  1  0  0  0  0
  4 44  1  0  0  0  0
  5 23  3  0  0  0  0
  6  7  1  0  0  0  0
  6  8  1  0  0  0  0
  6 10  1  0  0  0  0
  6 27  1  6  0  0  0
  7  9  1  0  0  0  0
  7 11  1  0  0  0  0
  7 28  1  1  0  0  0
  8 29  1  0  0  0  0
  8 30  1  0  0  0  0
  9 31  1  0  0  0  0
  9 32  1  0  0  0  0
 10 33  1  0  0  0  0
 10 34  1  0  0  0  0
 11 13  2  0  0  0  0
 11 14  1  0  0  0  0
 12 15  1  0  0  0  0
 12 35  1  0  0  0  0
 12 36  1  0  0  0  0
 13 16  1  0  0  0  0
 14 17  2  0  0  0  0
 14 37  1  0  0  0  0
 15 19  2  0  0  0  0
 15 20  1  0  0  0  0
 16 18  2  0  0  0  0
 16 38  1  0  0  0  0
 17 18  1  0  0  0  0
 17 23  1  0  0  0  0
 18 39  1  0  0  0  0
 19 21  1  0  0  0  0
 19 40  1  0  0  0  0
 20 22  2  0  0  0  0
 20 41  1  0  0  0  0
 21 24  2  0  0  0  0
 21 42  1  0  0  0  0
 22 24  1  0  0  0  0
 22 43  1  0  0  0  0
 25 26  1  0  0  0  0
 26 45  1  0  0  0  0
 26 46  1  0  0  0  0
 26 47  1  0  0  0  0
M  END
> <PUBCHEM_COMPOUND_CID>
9841203

> <PUBCHEM_COMPOUND_CANONICALIZED>
1

> <PUBCHEM_CACTVS_COMPLEXITY>
563

> <PUBCHEM_CACTVS_HBOND_ACCEPTOR>
4

> <PUBCHEM_CACTVS_HBOND_DONOR>
1

> <PUBCHEM_CACTVS_ROTATABLE_BOND>
3

> <PUBCHEM_CACTVS_SUBSKEYS>
AAADceB7MAAAAAAAAAAAAAAAAAAAAWAAAAA0YIAAAAAAAFiRQAAAHgAQAAAADQzhmAYyxoPABACYBiVSUACiCAAhIgAIiAAObIgMpiLEsZuGOCjm1BHI6A+w0OIOqAACAAAIAABQAAQAABAAAAAAAAAAAA==

> <PUBCHEM_IUPAC_OPENEYE_NAME>
N-[4-[[(3aR,9bS)-8-cyano-3,3a,4,9b-tetrahydro-1H-chromeno[3,4-c]pyrrol-2-yl]methyl]phenyl]acetamide

> <PUBCHEM_IUPAC_CAS_NAME>
N-[4-[[(3aR,9bS)-8-cyano-3,3a,4,9b-tetrahydro-1H-[1]benzopyrano[3,4-c]pyrrol-2-yl]methyl]phenyl]acetamide

> <PUBCHEM_IUPAC_NAME_MARKUP>
<I>N</I>-[4-[[(3<I>a</I><I>R</I>,9<I>b</I><I>S</I>)-8-cyano-3,3<I>a</I>,4,9<I>b</I>-tetrahydro-1<I>H</I>-chromeno[3,4-c]pyrrol-2-yl]methyl]phenyl]acetamide

> <PUBCHEM_IUPAC_NAME>
N-[4-[[(3aR,9bS)-8-cyano-3,3a,4,9b-tetrahydro-1H-chromeno[3,4-c]pyrrol-2-yl]methyl]phenyl]acetamide

> <PUBCHEM_IUPAC_SYSTEMATIC_NAME>
N-[4-[[(3aR,9bS)-8-cyano-3,3a,4,9b-tetrahydro-1H-chromeno[3,4-c]pyrrol-2-yl]methyl]phenyl]ethanamide

> <PUBCHEM_IUPAC_TRADITIONAL_NAME>
N-[4-[[(3aR,9bS)-8-cyano-3,3a,4,9b-tetrahydro-1H-chromeno[3,4-c]pyrrol-2-yl]methyl]phenyl]acetamide

> <PUBCHEM_IUPAC_INCHI>
InChI=1S/C21H21N3O2/c1-14(25)23-18-5-2-15(3-6-18)10-24-11-17-13-26-21-7-4-16(9-22)8-19(21)20(17)12-24/h2-8,17,20H,10-13H2,1H3,(H,23,25)/t17-,20+/m1/s1

> <PUBCHEM_IUPAC_INCHIKEY>
BIMVUZQTSDREEH-XLIONFOSSA-N

> <PUBCHEM_XLOGP3_AA>
2.2

> <PUBCHEM_EXACT_MASS>
347.16337692

> <PUBCHEM_MOLECULAR_FORMULA>
C21H21N3O2

> <PUBCHEM_MOLECULAR_WEIGHT>
347.4

> <PUBCHEM_OPENEYE_CAN_SMILES>
CC(=O)NC1=CC=C(C=C1)CN2CC3COC4=C(C3C2)C=C(C=C4)C#N

> <PUBCHEM_OPENEYE_ISO_SMILES>
CC(=O)NC1=CC=C(C=C1)CN2C[C@@H]3COC4=C([C@H]3C2)C=C(C=C4)C#N

> <PUBCHEM_CACTVS_TPSA>
65.4

> <PUBCHEM_MONOISOTOPIC_WEIGHT>
347.16337692

> <PUBCHEM_TOTAL_CHARGE>
0

> <PUBCHEM_HEAVY_ATOM_COUNT>
26

> <PUBCHEM_ATOM_DEF_STEREO_COUNT>
2

> <PUBCHEM_ATOM_UDEF_STEREO_COUNT>
0

> <PUBCHEM_BOND_DEF_STEREO_COUNT>
0

> <PUBCHEM_BOND_UDEF_STEREO_COUNT>
0

> <PUBCHEM_ISOTOPIC_ATOM_COUNT>
0

> <PUBCHEM_COMPONENT_COUNT>
1

> <PUBCHEM_CACTVS_TAUTO_COUNT>
-1

> <PUBCHEM_COORDINATE_TYPE>
1
5
255

> <PUBCHEM_BONDANNOTATIONS>
11  13  8
11  14  8
13  16  8
14  17  8
15  19  8
15  20  8
16  18  8
17  18  8
19  21  8
20  22  8
21  24  8
22  24  8
6  27  6
7  28  5

$$$$
