162666034
  -OEChem-09292322422D

 50 53  0     1  0  0  0  0  0999 V2000
   14.0341    1.3346    0.0000 Cl  0  0  0  0  0  0  0  0  0  0  0  0
   10.5884    0.9784    0.0000 S   0  0  0  0  0  0  0  0  0  0  0  0
   11.1747    0.1684    0.0000 O   0  0  0  0  0  0  0  0  0  0  0  0
   10.0020    1.7885    0.0000 O   0  0  0  0  0  0  0  0  0  0  0  0
    4.6783   -2.9506    0.0000 O   0  0  0  0  0  0  0  0  0  0  0  0
    7.2566    0.9723    0.0000 N   0  0  3  0  0  0  0  0  0  0  0  0
    9.7783    0.3921    0.0000 N   0  0  0  0  0  0  0  0  0  0  0  0
    5.2619   -2.1459    0.0000 N   0  0  0  0  0  0  0  0  0  0  0  0
    8.8655    0.8004    0.0000 C   0  0  1  0  0  0  0  0  0  0  0  0
    7.9986    0.3019    0.0000 C   0  0  0  0  0  0  0  0  0  0  0  0
    8.6593    1.7789    0.0000 C   0  0  0  0  0  0  0  0  0  0  0  0
    7.6649    1.8851    0.0000 C   0  0  0  0  0  0  0  0  0  0  0  0
    6.2781    0.7661    0.0000 C   0  0  0  0  0  0  0  0  0  0  0  0
    5.9674   -0.1844    0.0000 C   0  0  0  0  0  0  0  0  0  0  0  0
    4.9889   -0.3907    0.0000 C   0  0  0  0  0  0  0  0  0  0  0  0
   11.3984    1.5648    0.0000 C   0  0  0  0  0  0  0  0  0  0  0  0
    4.6783   -1.3412    0.0000 C   0  0  0  0  0  0  0  0  0  0  0  0
    3.7320   -1.6459    0.0000 C   0  0  0  0  0  0  0  0  0  0  0  0
   12.3112    1.1565    0.0000 C   0  0  0  0  0  0  0  0  0  0  0  0
   11.2956    2.5595    0.0000 C   0  0  0  0  0  0  0  0  0  0  0  0
    3.7320   -2.6459    0.0000 C   0  0  0  0  0  0  0  0  0  0  0  0
    2.8660   -1.1459    0.0000 C   0  0  0  0  0  0  0  0  0  0  0  0
   13.1213    1.7429    0.0000 C   0  0  0  0  0  0  0  0  0  0  0  0
   12.1056    3.1459    0.0000 C   0  0  0  0  0  0  0  0  0  0  0  0
    2.8660   -3.1459    0.0000 C   0  0  0  0  0  0  0  0  0  0  0  0
   13.0185    2.7376    0.0000 C   0  0  0  0  0  0  0  0  0  0  0  0
    2.0000   -1.6459    0.0000 C   0  0  0  0  0  0  0  0  0  0  0  0
    2.0000   -2.6459    0.0000 C   0  0  0  0  0  0  0  0  0  0  0  0
    9.3480    1.1897    0.0000 H   0  0  0  0  0  0  0  0  0  0  0  0
    7.5371   -0.1122    0.0000 H   0  0  0  0  0  0  0  0  0  0  0  0
    8.3622   -0.2003    0.0000 H   0  0  0  0  0  0  0  0  0  0  0  0
    9.2760    1.8426    0.0000 H   0  0  0  0  0  0  0  0  0  0  0  0
    8.6603    2.3989    0.0000 H   0  0  0  0  0  0  0  0  0  0  0  0
    7.7949    2.4914    0.0000 H   0  0  0  0  0  0  0  0  0  0  0  0
    7.0756    2.0777    0.0000 H   0  0  0  0  0  0  0  0  0  0  0  0
    6.2575    1.3857    0.0000 H   0  0  0  0  0  0  0  0  0  0  0  0
    5.6643    0.8534    0.0000 H   0  0  0  0  0  0  0  0  0  0  0  0
    9.8421   -0.2247    0.0000 H   0  0  0  0  0  0  0  0  0  0  0  0
    5.9880   -0.8041    0.0000 H   0  0  0  0  0  0  0  0  0  0  0  0
    6.5812   -0.2718    0.0000 H   0  0  0  0  0  0  0  0  0  0  0  0
    4.9684    0.2290    0.0000 H   0  0  0  0  0  0  0  0  0  0  0  0
    4.3751   -0.3033    0.0000 H   0  0  0  0  0  0  0  0  0  0  0  0
   12.3750    0.5398    0.0000 H   0  0  0  0  0  0  0  0  0  0  0  0
   10.7296    2.8127    0.0000 H   0  0  0  0  0  0  0  0  0  0  0  0
    2.8660   -0.5259    0.0000 H   0  0  0  0  0  0  0  0  0  0  0  0
   12.0419    3.7626    0.0000 H   0  0  0  0  0  0  0  0  0  0  0  0
    2.8660   -3.7659    0.0000 H   0  0  0  0  0  0  0  0  0  0  0  0
   13.5207    3.1012    0.0000 H   0  0  0  0  0  0  0  0  0  0  0  0
    1.4631   -1.3359    0.0000 H   0  0  0  0  0  0  0  0  0  0  0  0
    1.4631   -2.9559    0.0000 H   0  0  0  0  0  0  0  0  0  0  0  0
  1 23  1  0  0  0  0
  2  3  2  0  0  0  0
  2  4  2  0  0  0  0
  2  7  1  0  0  0  0
  2 16  1  0  0  0  0
  5  8  1  0  0  0  0
  5 21  1  0  0  0  0
  6 10  1  0  0  0  0
  6 12  1  0  0  0  0
  6 13  1  0  0  0  0
  9  7  1  1  0  0  0
  7 38  1  0  0  0  0
  8 17  2  0  0  0  0
  9 10  1  0  0  0  0
  9 11  1  0  0  0  0
  9 29  1  0  0  0  0
 10 30  1  0  0  0  0
 10 31  1  0  0  0  0
 11 12  1  0  0  0  0
 11 32  1  0  0  0  0
 11 33  1  0  0  0  0
 12 34  1  0  0  0  0
 12 35  1  0  0  0  0
 13 14  1  0  0  0  0
 13 36  1  0  0  0  0
 13 37  1  0  0  0  0
 14 15  1  0  0  0  0
 14 39  1  0  0  0  0
 14 40  1  0  0  0  0
 15 17  1  0  0  0  0
 15 41  1  0  0  0  0
 15 42  1  0  0  0  0
 16 19  2  0  0  0  0
 16 20  1  0  0  0  0
 17 18  1  0  0  0  0
 18 21  1  0  0  0  0
 18 22  2  0  0  0  0
 19 23  1  0  0  0  0
 19 43  1  0  0  0  0
 20 24  2  0  0  0  0
 20 44  1  0  0  0  0
 21 25  2  0  0  0  0
 22 27  1  0  0  0  0
 22 45  1  0  0  0  0
 23 26  2  0  0  0  0
 24 26  1  0  0  0  0
 24 46  1  0  0  0  0
 25 28  1  0  0  0  0
 25 47  1  0  0  0  0
 26 48  1  0  0  0  0
 27 28  2  0  0  0  0
 27 49  1  0  0  0  0
 28 50  1  0  0  0  0
M  END
> <PUBCHEM_COMPOUND_CID>
162666034

> <PUBCHEM_COMPOUND_CANONICALIZED>
1

> <PUBCHEM_CACTVS_COMPLEXITY>
614

> <PUBCHEM_CACTVS_HBOND_ACCEPTOR>
6

> <PUBCHEM_CACTVS_HBOND_DONOR>
1

> <PUBCHEM_CACTVS_ROTATABLE_BOND>
7

> <PUBCHEM_CACTVS_SUBSKEYS>
AAADceB7MABEAAAAAAAAAAAAAAAAAWLAAAAwYAAAAAAAAFgB9AAAHgYUQAAADC7B3iQwh9NQAAKpA6RyQnDCABAkJQAomLk+TtoIZrqB15OUMYBm0BmIyceYyKCOAAAAABAIAAAAAAAAIBAAAAAAAAAAAA==

> <PUBCHEM_IUPAC_OPENEYE_NAME>
N-[(3R)-1-[3-(1,2-benzoxazol-3-yl)propyl]pyrrolidin-3-yl]-3-chloro-benzenesulfonamide

> <PUBCHEM_IUPAC_CAS_NAME>
N-[(3R)-1-[3-(1,2-benzoxazol-3-yl)propyl]-3-pyrrolidinyl]-3-chlorobenzenesulfonamide

> <PUBCHEM_IUPAC_NAME_MARKUP>
<I>N</I>-[(3<I>R</I>)-1-[3-(1,2-benzoxazol-3-yl)propyl]pyrrolidin-3-yl]-3-chlorobenzenesulfonamide

> <PUBCHEM_IUPAC_NAME>
N-[(3R)-1-[3-(1,2-benzoxazol-3-yl)propyl]pyrrolidin-3-yl]-3-chlorobenzenesulfonamide

> <PUBCHEM_IUPAC_SYSTEMATIC_NAME>
N-[(3R)-1-[3-(1,2-benzoxazol-3-yl)propyl]pyrrolidin-3-yl]-3-chloranyl-benzenesulfonamide

> <PUBCHEM_IUPAC_TRADITIONAL_NAME>
3-chloro-N-[(3R)-1-(3-indoxazen-3-ylpropyl)pyrrolidin-3-yl]benzenesulfonamide

> <PUBCHEM_IUPAC_INCHI>
InChI=1S/C20H22ClN3O3S/c21-15-5-3-6-17(13-15)28(25,26)23-16-10-12-24(14-16)11-4-8-19-18-7-1-2-9-20(18)27-22-19/h1-3,5-7,9,13,16,23H,4,8,10-12,14H2/t16-/m1/s1

> <PUBCHEM_IUPAC_INCHIKEY>
AVPWRHUUQUMMJK-MRXNPFEDSA-N

> <PUBCHEM_XLOGP3_AA>
3.9

> <PUBCHEM_EXACT_MASS>
419.1070404

> <PUBCHEM_MOLECULAR_FORMULA>
C20H22ClN3O3S

> <PUBCHEM_MOLECULAR_WEIGHT>
419.9

> <PUBCHEM_OPENEYE_CAN_SMILES>
C1CN(CC1NS(=O)(=O)C2=CC(=CC=C2)Cl)CCCC3=NOC4=CC=CC=C43

> <PUBCHEM_OPENEYE_ISO_SMILES>
C1CN(C[C@@H]1NS(=O)(=O)C2=CC(=CC=C2)Cl)CCCC3=NOC4=CC=CC=C43

> <PUBCHEM_CACTVS_TPSA>
83.8

> <PUBCHEM_MONOISOTOPIC_WEIGHT>
419.1070404

> <PUBCHEM_TOTAL_CHARGE>
0

> <PUBCHEM_HEAVY_ATOM_COUNT>
28

> <PUBCHEM_ATOM_DEF_STEREO_COUNT>
1

> <PUBCHEM_ATOM_UDEF_STEREO_COUNT>
0

> <PUBCHEM_BOND_DEF_STEREO_COUNT>
0

> <PUBCHEM_BOND_UDEF_STEREO_COUNT>
0

> <PUBCHEM_ISOTOPIC_ATOM_COUNT>
0

> <PUBCHEM_COMPONENT_COUNT>
1

> <PUBCHEM_CACTVS_TAUTO_COUNT>
-1

> <PUBCHEM_COORDINATE_TYPE>
1
5
255

> <PUBCHEM_BONDANNOTATIONS>
16  19  8
16  20  8
17  18  8
18  21  8
18  22  8
19  23  8
20  24  8
21  25  8
22  27  8
23  26  8
24  26  8
25  28  8
27  28  8
5  21  8
5  8  8
9  7  5
8  17  8

$$$$
