44415721
  -OEChem-09292322282D

 56 60  0     0  0  0  0  0  0999 V2000
    4.9714   -3.1473    0.0000 I   0  0  0  0  0  0  0  0  0  0  0  0
    2.0000    0.6798    0.0000 Cl  0  0  0  0  0  0  0  0  0  0  0  0
    9.6749    0.6797    0.0000 Cl  0  0  0  0  0  0  0  0  0  0  0  0
    7.5695   -1.6473    0.0000 O   0  0  0  0  0  0  0  0  0  0  0  0
    4.9036    2.4444    0.0000 N   0  0  0  0  0  0  0  0  0  0  0  0
    4.0358    4.2463    0.0000 N   0  0  0  0  0  0  0  0  0  0  0  0
    5.8374   -0.6473    0.0000 N   0  0  0  0  0  0  0  0  0  0  0  0
    6.3374    1.5434    0.0000 N   0  0  0  0  0  0  0  0  0  0  0  0
    5.8374   -1.6473    0.0000 N   0  0  0  0  0  0  0  0  0  0  0  0
    3.9064    2.5191    0.0000 C   0  0  0  0  0  0  0  0  0  0  0  0
    5.4669    3.2706    0.0000 C   0  0  0  0  0  0  0  0  0  0  0  0
    3.4725    3.4201    0.0000 C   0  0  0  0  0  0  0  0  0  0  0  0
    5.0330    4.1716    0.0000 C   0  0  0  0  0  0  0  0  0  0  0  0
    5.3374    1.5434    0.0000 C   0  0  0  0  0  0  0  0  0  0  0  0
    4.7139    0.7616    0.0000 C   0  0  0  0  0  0  0  0  0  0  0  0
    3.6019    5.1473    0.0000 C   0  0  0  0  0  0  0  0  0  0  0  0
    4.9364   -0.2134    0.0000 C   0  0  0  0  0  0  0  0  0  0  0  0
    6.7384   -0.2134    0.0000 C   0  0  0  0  0  0  0  0  0  0  0  0
    6.9609    0.7615    0.0000 C   0  0  0  0  0  0  0  0  0  0  0  0
    3.7234    1.0839    0.0000 C   0  0  0  0  0  0  0  0  0  0  0  0
    4.1839   -0.9335    0.0000 C   0  0  0  0  0  0  0  0  0  0  0  0
    2.9544    0.3813    0.0000 C   0  0  0  0  0  0  0  0  0  0  0  0
    7.4909   -0.9336    0.0000 C   0  0  0  0  0  0  0  0  0  0  0  0
    7.9514    1.0839    0.0000 C   0  0  0  0  0  0  0  0  0  0  0  0
    3.1862   -0.6342    0.0000 C   0  0  0  0  0  0  0  0  0  0  0  0
    8.4886   -0.6342    0.0000 C   0  0  0  0  0  0  0  0  0  0  0  0
    8.7204    0.3813    0.0000 C   0  0  0  0  0  0  0  0  0  0  0  0
    6.7034   -2.1473    0.0000 C   0  0  0  0  0  0  0  0  0  0  0  0
    6.7034   -3.1473    0.0000 C   0  0  0  0  0  0  0  0  0  0  0  0
    5.8374   -3.6473    0.0000 C   0  0  0  0  0  0  0  0  0  0  0  0
    7.5694   -3.6473    0.0000 C   0  0  0  0  0  0  0  0  0  0  0  0
    5.8374   -4.6473    0.0000 C   0  0  0  0  0  0  0  0  0  0  0  0
    7.5694   -4.6473    0.0000 C   0  0  0  0  0  0  0  0  0  0  0  0
    6.7034   -5.1473    0.0000 C   0  0  0  0  0  0  0  0  0  0  0  0
    3.3095    2.3512    0.0000 H   0  0  0  0  0  0  0  0  0  0  0  0
    3.9681    1.9022    0.0000 H   0  0  0  0  0  0  0  0  0  0  0  0
    5.9107    2.8377    0.0000 H   0  0  0  0  0  0  0  0  0  0  0  0
    5.9703    3.6325    0.0000 H   0  0  0  0  0  0  0  0  0  0  0  0
    3.0286    3.8530    0.0000 H   0  0  0  0  0  0  0  0  0  0  0  0
    2.9691    3.0582    0.0000 H   0  0  0  0  0  0  0  0  0  0  0  0
    5.6298    4.3395    0.0000 H   0  0  0  0  0  0  0  0  0  0  0  0
    4.9713    4.7885    0.0000 H   0  0  0  0  0  0  0  0  0  0  0  0
    4.1605    5.4163    0.0000 H   0  0  0  0  0  0  0  0  0  0  0  0
    3.3329    5.7059    0.0000 H   0  0  0  0  0  0  0  0  0  0  0  0
    3.0433    4.8783    0.0000 H   0  0  0  0  0  0  0  0  0  0  0  0
    3.5925    1.6899    0.0000 H   0  0  0  0  0  0  0  0  0  0  0  0
    4.3288   -1.5364    0.0000 H   0  0  0  0  0  0  0  0  0  0  0  0
    7.3460   -1.5364    0.0000 H   0  0  0  0  0  0  0  0  0  0  0  0
    5.3005   -1.9573    0.0000 H   0  0  0  0  0  0  0  0  0  0  0  0
    8.0824    1.6899    0.0000 H   0  0  0  0  0  0  0  0  0  0  0  0
    2.7333   -1.0576    0.0000 H   0  0  0  0  0  0  0  0  0  0  0  0
    8.9415   -1.0577    0.0000 H   0  0  0  0  0  0  0  0  0  0  0  0
    8.1064   -3.3373    0.0000 H   0  0  0  0  0  0  0  0  0  0  0  0
    5.3004   -4.9573    0.0000 H   0  0  0  0  0  0  0  0  0  0  0  0
    8.1064   -4.9573    0.0000 H   0  0  0  0  0  0  0  0  0  0  0  0
    6.7034   -5.7673    0.0000 H   0  0  0  0  0  0  0  0  0  0  0  0
  1 30  1  0  0  0  0
  2 22  1  0  0  0  0
  3 27  1  0  0  0  0
  4 28  2  0  0  0  0
  5 10  1  0  0  0  0
  5 11  1  0  0  0  0
  5 14  1  0  0  0  0
  6 12  1  0  0  0  0
  6 13  1  0  0  0  0
  6 16  1  0  0  0  0
  7  9  1  0  0  0  0
  7 17  1  0  0  0  0
  7 18  1  0  0  0  0
  8 14  2  0  0  0  0
  8 19  1  0  0  0  0
  9 28  1  0  0  0  0
  9 49  1  0  0  0  0
 10 12  1  0  0  0  0
 10 35  1  0  0  0  0
 10 36  1  0  0  0  0
 11 13  1  0  0  0  0
 11 37  1  0  0  0  0
 11 38  1  0  0  0  0
 12 39  1  0  0  0  0
 12 40  1  0  0  0  0
 13 41  1  0  0  0  0
 13 42  1  0  0  0  0
 14 15  1  0  0  0  0
 15 17  2  0  0  0  0
 15 20  1  0  0  0  0
 16 43  1  0  0  0  0
 16 44  1  0  0  0  0
 16 45  1  0  0  0  0
 17 21  1  0  0  0  0
 18 19  2  0  0  0  0
 18 23  1  0  0  0  0
 19 24  1  0  0  0  0
 20 22  2  0  0  0  0
 20 46  1  0  0  0  0
 21 25  2  0  0  0  0
 21 47  1  0  0  0  0
 22 25  1  0  0  0  0
 23 26  2  0  0  0  0
 23 48  1  0  0  0  0
 24 27  2  0  0  0  0
 24 50  1  0  0  0  0
 25 51  1  0  0  0  0
 26 27  1  0  0  0  0
 26 52  1  0  0  0  0
 28 29  1  0  0  0  0
 29 30  1  0  0  0  0
 29 31  2  0  0  0  0
 30 32  2  0  0  0  0
 31 33  1  0  0  0  0
 31 53  1  0  0  0  0
 32 34  1  0  0  0  0
 32 54  1  0  0  0  0
 33 34  2  0  0  0  0
 33 55  1  0  0  0  0
 34 56  1  0  0  0  0
M  END
> <PUBCHEM_COMPOUND_CID>
44415721

> <PUBCHEM_COMPOUND_CANONICALIZED>
1

> <PUBCHEM_CACTVS_COMPLEXITY>
764

> <PUBCHEM_CACTVS_HBOND_ACCEPTOR>
4

> <PUBCHEM_CACTVS_HBOND_DONOR>
1

> <PUBCHEM_CACTVS_ROTATABLE_BOND>
3

> <PUBCHEM_CACTVS_SUBSKEYS>
AAADceB7oAAGAgAAAAAAAAAAAAAAAAAAAAA8YMEABAAAAAABUAAAHgI4AAAADArDmCQzwINiAACoAidydACCBAElBwAbqAEodtgIYPLB35GUIQhggADIyYcYiACOAABAIAICACAAAIBABAQAQAAAAAAAAA==

> <PUBCHEM_IUPAC_OPENEYE_NAME>
N-[3,8-dichloro-6-(4-methylpiperazin-1-yl)benzo[b][1,4]benzodiazepin-11-yl]-2-iodo-benzamide

> <PUBCHEM_IUPAC_CAS_NAME>
N-[3,8-dichloro-6-(4-methyl-1-piperazinyl)-11-benzo[b][1,4]benzodiazepinyl]-2-iodobenzamide

> <PUBCHEM_IUPAC_NAME_MARKUP>
<I>N</I>-[3,8-dichloro-6-(4-methylpiperazin-1-yl)benzo[b][1,4]benzodiazepin-11-yl]-2-iodobenzamide

> <PUBCHEM_IUPAC_NAME>
N-[3,8-dichloro-6-(4-methylpiperazin-1-yl)benzo[b][1,4]benzodiazepin-11-yl]-2-iodobenzamide

> <PUBCHEM_IUPAC_SYSTEMATIC_NAME>
N-[3,8-bis(chloranyl)-6-(4-methylpiperazin-1-yl)benzo[b][1,4]benzodiazepin-11-yl]-2-iodanyl-benzamide

> <PUBCHEM_IUPAC_TRADITIONAL_NAME>
N-[3,8-dichloro-6-(4-methylpiperazino)benzo[b][1,4]benzodiazepin-11-yl]-2-iodo-benzamide

> <PUBCHEM_IUPAC_INCHI>
InChI=1S/C25H22Cl2IN5O/c1-31-10-12-32(13-11-31)24-19-14-16(26)6-8-22(19)33(23-9-7-17(27)15-21(23)29-24)30-25(34)18-4-2-3-5-20(18)28/h2-9,14-15H,10-13H2,1H3,(H,30,34)

> <PUBCHEM_IUPAC_INCHIKEY>
MZZWDJMFTYZXCL-UHFFFAOYSA-N

> <PUBCHEM_XLOGP3_AA>
5.7

> <PUBCHEM_EXACT_MASS>
605.02461

> <PUBCHEM_MOLECULAR_FORMULA>
C25H22Cl2IN5O

> <PUBCHEM_MOLECULAR_WEIGHT>
606.3

> <PUBCHEM_OPENEYE_CAN_SMILES>
CN1CCN(CC1)C2=NC3=C(C=CC(=C3)Cl)N(C4=C2C=C(C=C4)Cl)NC(=O)C5=CC=CC=C5I

> <PUBCHEM_OPENEYE_ISO_SMILES>
CN1CCN(CC1)C2=NC3=C(C=CC(=C3)Cl)N(C4=C2C=C(C=C4)Cl)NC(=O)C5=CC=CC=C5I

> <PUBCHEM_CACTVS_TPSA>
51.2

> <PUBCHEM_MONOISOTOPIC_WEIGHT>
605.02461

> <PUBCHEM_TOTAL_CHARGE>
0

> <PUBCHEM_HEAVY_ATOM_COUNT>
34

> <PUBCHEM_ATOM_DEF_STEREO_COUNT>
0

> <PUBCHEM_ATOM_UDEF_STEREO_COUNT>
0

> <PUBCHEM_BOND_DEF_STEREO_COUNT>
0

> <PUBCHEM_BOND_UDEF_STEREO_COUNT>
0

> <PUBCHEM_ISOTOPIC_ATOM_COUNT>
0

> <PUBCHEM_COMPONENT_COUNT>
1

> <PUBCHEM_CACTVS_TAUTO_COUNT>
-1

> <PUBCHEM_COORDINATE_TYPE>
1
5
255

> <PUBCHEM_BONDANNOTATIONS>
15  17  8
15  20  8
17  21  8
18  19  8
18  23  8
19  24  8
20  22  8
21  25  8
22  25  8
23  26  8
24  27  8
26  27  8
29  30  8
29  31  8
30  32  8
31  33  8
32  34  8
33  34  8

$$$$
