57326688
  -OEChem-09292322052D

 71 74  0     0  0  0  0  0  0999 V2000
    8.7204    2.1797    0.0000 Cl  0  0  0  0  0  0  0  0  0  0  0  0
    4.0170   -0.6472    0.0000 O   0  0  0  0  0  0  0  0  0  0  0  0
    3.9491    3.9444    0.0000 N   0  0  0  0  0  0  0  0  0  0  0  0
    3.0814    5.7463    0.0000 N   0  0  0  0  0  0  0  0  0  0  0  0
    4.8830    0.8527    0.0000 N   0  0  0  0  0  0  0  0  0  0  0  0
    5.3830    3.0434    0.0000 N   0  0  0  0  0  0  0  0  0  0  0  0
    2.9519    4.0191    0.0000 C   0  0  0  0  0  0  0  0  0  0  0  0
    4.5125    4.7706    0.0000 C   0  0  0  0  0  0  0  0  0  0  0  0
    2.5180    4.9201    0.0000 C   0  0  0  0  0  0  0  0  0  0  0  0
    4.0786    5.6716    0.0000 C   0  0  0  0  0  0  0  0  0  0  0  0
    4.3830    3.0434    0.0000 C   0  0  0  0  0  0  0  0  0  0  0  0
    3.7595    2.2616    0.0000 C   0  0  0  0  0  0  0  0  0  0  0  0
    6.6150   -2.1473    0.0000 C   0  0  0  0  0  0  0  0  0  0  0  0
    6.6150   -3.1473    0.0000 C   0  0  0  0  0  0  0  0  0  0  0  0
    3.9820    1.2866    0.0000 C   0  0  0  0  0  0  0  0  0  0  0  0
    5.7490   -1.6473    0.0000 C   0  0  0  0  0  0  0  0  0  0  0  0
    2.6475    6.6473    0.0000 C   0  0  0  0  0  0  0  0  0  0  0  0
    7.4810   -3.6473    0.0000 C   0  0  0  0  0  0  0  0  0  0  0  0
    5.7490   -0.6473    0.0000 C   0  0  0  0  0  0  0  0  0  0  0  0
    7.4810   -4.6473    0.0000 C   0  0  0  0  0  0  0  0  0  0  0  0
    5.7840    1.2866    0.0000 C   0  0  0  0  0  0  0  0  0  0  0  0
    4.8830   -0.1473    0.0000 C   0  0  0  0  0  0  0  0  0  0  0  0
    6.0065    2.2616    0.0000 C   0  0  0  0  0  0  0  0  0  0  0  0
    8.3470   -5.1473    0.0000 C   0  0  0  0  0  0  0  0  0  0  0  0
    2.7690    2.5839    0.0000 C   0  0  0  0  0  0  0  0  0  0  0  0
    3.2295    0.5665    0.0000 C   0  0  0  0  0  0  0  0  0  0  0  0
    8.3470   -6.1473    0.0000 C   0  0  0  0  0  0  0  0  0  0  0  0
    6.5365    0.5664    0.0000 C   0  0  0  0  0  0  0  0  0  0  0  0
    2.0000    1.8813    0.0000 C   0  0  0  0  0  0  0  0  0  0  0  0
    6.9970    2.5839    0.0000 C   0  0  0  0  0  0  0  0  0  0  0  0
    2.2318    0.8658    0.0000 C   0  0  0  0  0  0  0  0  0  0  0  0
    7.5342    0.8658    0.0000 C   0  0  0  0  0  0  0  0  0  0  0  0
    7.7660    1.8813    0.0000 C   0  0  0  0  0  0  0  0  0  0  0  0
    9.2131   -6.6473    0.0000 C   0  0  0  0  0  0  0  0  0  0  0  0
    2.3551    3.8512    0.0000 H   0  0  0  0  0  0  0  0  0  0  0  0
    3.0137    3.4022    0.0000 H   0  0  0  0  0  0  0  0  0  0  0  0
    4.9563    4.3377    0.0000 H   0  0  0  0  0  0  0  0  0  0  0  0
    5.0159    5.1325    0.0000 H   0  0  0  0  0  0  0  0  0  0  0  0
    2.0742    5.3530    0.0000 H   0  0  0  0  0  0  0  0  0  0  0  0
    2.0146    4.5582    0.0000 H   0  0  0  0  0  0  0  0  0  0  0  0
    4.6754    5.8395    0.0000 H   0  0  0  0  0  0  0  0  0  0  0  0
    4.0168    6.2885    0.0000 H   0  0  0  0  0  0  0  0  0  0  0  0
    7.2256   -2.2549    0.0000 H   0  0  0  0  0  0  0  0  0  0  0  0
    6.8271   -1.5647    0.0000 H   0  0  0  0  0  0  0  0  0  0  0  0
    6.0044   -3.0396    0.0000 H   0  0  0  0  0  0  0  0  0  0  0  0
    6.4030   -3.7299    0.0000 H   0  0  0  0  0  0  0  0  0  0  0  0
    5.1384   -1.5396    0.0000 H   0  0  0  0  0  0  0  0  0  0  0  0
    5.5369   -2.2299    0.0000 H   0  0  0  0  0  0  0  0  0  0  0  0
    3.2061    6.9163    0.0000 H   0  0  0  0  0  0  0  0  0  0  0  0
    2.3785    7.2059    0.0000 H   0  0  0  0  0  0  0  0  0  0  0  0
    2.0889    6.3783    0.0000 H   0  0  0  0  0  0  0  0  0  0  0  0
    8.0916   -3.7549    0.0000 H   0  0  0  0  0  0  0  0  0  0  0  0
    7.6931   -3.0647    0.0000 H   0  0  0  0  0  0  0  0  0  0  0  0
    6.3596   -0.7549    0.0000 H   0  0  0  0  0  0  0  0  0  0  0  0
    5.9611   -0.0647    0.0000 H   0  0  0  0  0  0  0  0  0  0  0  0
    6.8704   -4.5396    0.0000 H   0  0  0  0  0  0  0  0  0  0  0  0
    7.2690   -5.2299    0.0000 H   0  0  0  0  0  0  0  0  0  0  0  0
    8.9576   -5.2549    0.0000 H   0  0  0  0  0  0  0  0  0  0  0  0
    8.5591   -4.5647    0.0000 H   0  0  0  0  0  0  0  0  0  0  0  0
    2.6380    3.1899    0.0000 H   0  0  0  0  0  0  0  0  0  0  0  0
    3.3744   -0.0364    0.0000 H   0  0  0  0  0  0  0  0  0  0  0  0
    7.7365   -6.0396    0.0000 H   0  0  0  0  0  0  0  0  0  0  0  0
    8.1350   -6.7299    0.0000 H   0  0  0  0  0  0  0  0  0  0  0  0
    6.3916   -0.0364    0.0000 H   0  0  0  0  0  0  0  0  0  0  0  0
    1.4083    2.0664    0.0000 H   0  0  0  0  0  0  0  0  0  0  0  0
    7.1280    3.1899    0.0000 H   0  0  0  0  0  0  0  0  0  0  0  0
    1.7789    0.4424    0.0000 H   0  0  0  0  0  0  0  0  0  0  0  0
    7.9871    0.4423    0.0000 H   0  0  0  0  0  0  0  0  0  0  0  0
    8.9031   -7.1842    0.0000 H   0  0  0  0  0  0  0  0  0  0  0  0
    9.7500   -6.9573    0.0000 H   0  0  0  0  0  0  0  0  0  0  0  0
    9.5231   -6.1104    0.0000 H   0  0  0  0  0  0  0  0  0  0  0  0
  1 33  1  0  0  0  0
  2 22  2  0  0  0  0
  3  7  1  0  0  0  0
  3  8  1  0  0  0  0
  3 11  1  0  0  0  0
  4  9  1  0  0  0  0
  4 10  1  0  0  0  0
  4 17  1  0  0  0  0
  5 15  1  0  0  0  0
  5 21  1  0  0  0  0
  5 22  1  0  0  0  0
  6 11  2  0  0  0  0
  6 23  1  0  0  0  0
  7  9  1  0  0  0  0
  7 35  1  0  0  0  0
  7 36  1  0  0  0  0
  8 10  1  0  0  0  0
  8 37  1  0  0  0  0
  8 38  1  0  0  0  0
  9 39  1  0  0  0  0
  9 40  1  0  0  0  0
 10 41  1  0  0  0  0
 10 42  1  0  0  0  0
 11 12  1  0  0  0  0
 12 15  1  0  0  0  0
 12 25  2  0  0  0  0
 13 14  1  0  0  0  0
 13 16  1  0  0  0  0
 13 43  1  0  0  0  0
 13 44  1  0  0  0  0
 14 18  1  0  0  0  0
 14 45  1  0  0  0  0
 14 46  1  0  0  0  0
 15 26  2  0  0  0  0
 16 19  1  0  0  0  0
 16 47  1  0  0  0  0
 16 48  1  0  0  0  0
 17 49  1  0  0  0  0
 17 50  1  0  0  0  0
 17 51  1  0  0  0  0
 18 20  1  0  0  0  0
 18 52  1  0  0  0  0
 18 53  1  0  0  0  0
 19 22  1  0  0  0  0
 19 54  1  0  0  0  0
 19 55  1  0  0  0  0
 20 24  1  0  0  0  0
 20 56  1  0  0  0  0
 20 57  1  0  0  0  0
 21 23  2  0  0  0  0
 21 28  1  0  0  0  0
 23 30  1  0  0  0  0
 24 27  1  0  0  0  0
 24 58  1  0  0  0  0
 24 59  1  0  0  0  0
 25 29  1  0  0  0  0
 25 60  1  0  0  0  0
 26 31  1  0  0  0  0
 26 61  1  0  0  0  0
 27 34  1  0  0  0  0
 27 62  1  0  0  0  0
 27 63  1  0  0  0  0
 28 32  2  0  0  0  0
 28 64  1  0  0  0  0
 29 31  2  0  0  0  0
 29 65  1  0  0  0  0
 30 33  2  0  0  0  0
 30 66  1  0  0  0  0
 31 67  1  0  0  0  0
 32 33  1  0  0  0  0
 32 68  1  0  0  0  0
 34 69  1  0  0  0  0
 34 70  1  0  0  0  0
 34 71  1  0  0  0  0
M  END
> <PUBCHEM_COMPOUND_CID>
57326688

> <PUBCHEM_COMPOUND_CANONICALIZED>
1

> <PUBCHEM_CACTVS_COMPLEXITY>
677

> <PUBCHEM_CACTVS_HBOND_ACCEPTOR>
3

> <PUBCHEM_CACTVS_HBOND_DONOR>
0

> <PUBCHEM_CACTVS_ROTATABLE_BOND>
9

> <PUBCHEM_CACTVS_SUBSKEYS>
AAADcfB7oAAEAAAAAAAAAAAAAAAAAAAAAAA8YIAABAAAAAABQAAAHgIAAAAADArBmCQzwIMAAACoAidydACCAAEhBwAJiAEodpgIYPLB25GUIAhghADIyAcYiICOAABAAAICACAAAIAABAQAQAAAAAAAAA==

> <PUBCHEM_IUPAC_OPENEYE_NAME>
1-[3-chloro-6-(4-methylpiperazin-1-yl)benzo[b][1,4]benzodiazepin-11-yl]decan-1-one

> <PUBCHEM_IUPAC_CAS_NAME>
1-[3-chloro-6-(4-methyl-1-piperazinyl)-11-benzo[b][1,4]benzodiazepinyl]-1-decanone

> <PUBCHEM_IUPAC_NAME_MARKUP>
1-[3-chloro-6-(4-methylpiperazin-1-yl)benzo[b][1,4]benzodiazepin-11-yl]decan-1-one

> <PUBCHEM_IUPAC_NAME>
1-[3-chloro-6-(4-methylpiperazin-1-yl)benzo[b][1,4]benzodiazepin-11-yl]decan-1-one

> <PUBCHEM_IUPAC_SYSTEMATIC_NAME>
1-[3-chloranyl-6-(4-methylpiperazin-1-yl)benzo[b][1,4]benzodiazepin-11-yl]decan-1-one

> <PUBCHEM_IUPAC_TRADITIONAL_NAME>
1-[3-chloro-6-(4-methylpiperazino)benzo[b][1,4]benzodiazepin-11-yl]decan-1-one

> <PUBCHEM_IUPAC_INCHI>
InChI=1S/C28H37ClN4O/c1-3-4-5-6-7-8-9-14-27(34)33-25-13-11-10-12-23(25)28(32-19-17-31(2)18-20-32)30-24-21-22(29)15-16-26(24)33/h10-13,15-16,21H,3-9,14,17-20H2,1-2H3

> <PUBCHEM_IUPAC_INCHIKEY>
IAEAYBSXYIOILF-UHFFFAOYSA-N

> <PUBCHEM_XLOGP3_AA>
6.5

> <PUBCHEM_EXACT_MASS>
480.2655895

> <PUBCHEM_MOLECULAR_FORMULA>
C28H37ClN4O

> <PUBCHEM_MOLECULAR_WEIGHT>
481.1

> <PUBCHEM_OPENEYE_CAN_SMILES>
CCCCCCCCCC(=O)N1C2=C(C=C(C=C2)Cl)N=C(C3=CC=CC=C31)N4CCN(CC4)C

> <PUBCHEM_OPENEYE_ISO_SMILES>
CCCCCCCCCC(=O)N1C2=C(C=C(C=C2)Cl)N=C(C3=CC=CC=C31)N4CCN(CC4)C

> <PUBCHEM_CACTVS_TPSA>
39.2

> <PUBCHEM_MONOISOTOPIC_WEIGHT>
480.2655895

> <PUBCHEM_TOTAL_CHARGE>
0

> <PUBCHEM_HEAVY_ATOM_COUNT>
34

> <PUBCHEM_ATOM_DEF_STEREO_COUNT>
0

> <PUBCHEM_ATOM_UDEF_STEREO_COUNT>
0

> <PUBCHEM_BOND_DEF_STEREO_COUNT>
0

> <PUBCHEM_BOND_UDEF_STEREO_COUNT>
0

> <PUBCHEM_ISOTOPIC_ATOM_COUNT>
0

> <PUBCHEM_COMPONENT_COUNT>
1

> <PUBCHEM_CACTVS_TAUTO_COUNT>
-1

> <PUBCHEM_COORDINATE_TYPE>
1
5
255

> <PUBCHEM_BONDANNOTATIONS>
12  15  8
12  25  8
15  26  8
21  23  8
21  28  8
23  30  8
25  29  8
26  31  8
28  32  8
29  31  8
30  33  8
32  33  8

$$$$
