44315380
  -OEChem-09292322152D

 49 53  0     0  0  0  0  0  0999 V2000
    2.6691    2.6038    0.0000 S   0  0  0  0  0  0  0  0  0  0  0  0
    8.8590   -1.9982    0.0000 O   0  0  0  0  0  0  0  0  0  0  0  0
   10.4426   -2.8030    0.0000 O   0  0  0  0  0  0  0  0  0  0  0  0
    7.0468    1.1970    0.0000 N   0  0  0  0  0  0  0  0  0  0  0  0
    7.0468   -0.8030    0.0000 N   0  0  0  0  0  0  0  0  0  0  0  0
    8.8590   -3.6077    0.0000 N   0  0  0  0  0  0  0  0  0  0  0  0
    6.1808    0.6970    0.0000 C   0  0  0  0  0  0  0  0  0  0  0  0
    7.9128    0.6970    0.0000 C   0  0  0  0  0  0  0  0  0  0  0  0
    6.1808   -0.3030    0.0000 C   0  0  0  0  0  0  0  0  0  0  0  0
    7.9128   -0.3030    0.0000 C   0  0  0  0  0  0  0  0  0  0  0  0
    7.0468    2.1970    0.0000 C   0  0  0  0  0  0  0  0  0  0  0  0
    7.0468   -1.8030    0.0000 C   0  0  0  0  0  0  0  0  0  0  0  0
    6.1808    2.6970    0.0000 C   0  0  0  0  0  0  0  0  0  0  0  0
    7.9128   -2.3030    0.0000 C   0  0  0  0  0  0  0  0  0  0  0  0
    6.1808   -2.3030    0.0000 C   0  0  0  0  0  0  0  0  0  0  0  0
    7.9128   -3.3030    0.0000 C   0  0  0  0  0  0  0  0  0  0  0  0
    5.3147    2.1970    0.0000 C   0  0  0  0  0  0  0  0  0  0  0  0
    6.1808    3.6970    0.0000 C   0  0  0  0  0  0  0  0  0  0  0  0
    6.1808   -3.3030    0.0000 C   0  0  0  0  0  0  0  0  0  0  0  0
    7.0468   -3.8030    0.0000 C   0  0  0  0  0  0  0  0  0  0  0  0
    4.4487    2.6970    0.0000 C   0  0  0  0  0  0  0  0  0  0  0  0
    5.3147    4.1970    0.0000 C   0  0  0  0  0  0  0  0  0  0  0  0
    9.4426   -2.8030    0.0000 C   0  0  0  0  0  0  0  0  0  0  0  0
    4.4487    3.6970    0.0000 C   0  0  0  0  0  0  0  0  0  0  0  0
    3.5827    2.1970    0.0000 C   0  0  0  0  0  0  0  0  0  0  0  0
    3.4782    1.2025    0.0000 C   0  0  0  0  0  0  0  0  0  0  0  0
    2.5000    0.9946    0.0000 C   0  0  0  0  0  0  0  0  0  0  0  0
    2.0000    1.8606    0.0000 C   0  0  0  0  0  0  0  0  0  0  0  0
    5.9687    1.2796    0.0000 H   0  0  0  0  0  0  0  0  0  0  0  0
    5.5702    0.5894    0.0000 H   0  0  0  0  0  0  0  0  0  0  0  0
    8.5234    0.5894    0.0000 H   0  0  0  0  0  0  0  0  0  0  0  0
    8.1249    1.2796    0.0000 H   0  0  0  0  0  0  0  0  0  0  0  0
    5.5702   -0.1953    0.0000 H   0  0  0  0  0  0  0  0  0  0  0  0
    5.9687   -0.8856    0.0000 H   0  0  0  0  0  0  0  0  0  0  0  0
    8.1249   -0.8856    0.0000 H   0  0  0  0  0  0  0  0  0  0  0  0
    8.5234   -0.1953    0.0000 H   0  0  0  0  0  0  0  0  0  0  0  0
    7.6574    2.0894    0.0000 H   0  0  0  0  0  0  0  0  0  0  0  0
    7.2588    2.7796    0.0000 H   0  0  0  0  0  0  0  0  0  0  0  0
    5.6438   -1.9930    0.0000 H   0  0  0  0  0  0  0  0  0  0  0  0
    5.3147    1.5770    0.0000 H   0  0  0  0  0  0  0  0  0  0  0  0
    6.7177    4.0070    0.0000 H   0  0  0  0  0  0  0  0  0  0  0  0
    5.6438   -3.6130    0.0000 H   0  0  0  0  0  0  0  0  0  0  0  0
    7.0468   -4.4230    0.0000 H   0  0  0  0  0  0  0  0  0  0  0  0
    9.0516   -4.1970    0.0000 H   0  0  0  0  0  0  0  0  0  0  0  0
    5.3147    4.8170    0.0000 H   0  0  0  0  0  0  0  0  0  0  0  0
    3.9118    4.0070    0.0000 H   0  0  0  0  0  0  0  0  0  0  0  0
    3.9389    0.7876    0.0000 H   0  0  0  0  0  0  0  0  0  0  0  0
    2.2478    0.4282    0.0000 H   0  0  0  0  0  0  0  0  0  0  0  0
    1.3834    1.9254    0.0000 H   0  0  0  0  0  0  0  0  0  0  0  0
  1 25  1  0  0  0  0
  1 28  1  0  0  0  0
  2 14  1  0  0  0  0
  2 23  1  0  0  0  0
  3 23  2  0  0  0  0
  4  7  1  0  0  0  0
  4  8  1  0  0  0  0
  4 11  1  0  0  0  0
  5  9  1  0  0  0  0
  5 10  1  0  0  0  0
  5 12  1  0  0  0  0
  6 16  1  0  0  0  0
  6 23  1  0  0  0  0
  6 44  1  0  0  0  0
  7  9  1  0  0  0  0
  7 29  1  0  0  0  0
  7 30  1  0  0  0  0
  8 10  1  0  0  0  0
  8 31  1  0  0  0  0
  8 32  1  0  0  0  0
  9 33  1  0  0  0  0
  9 34  1  0  0  0  0
 10 35  1  0  0  0  0
 10 36  1  0  0  0  0
 11 13  1  0  0  0  0
 11 37  1  0  0  0  0
 11 38  1  0  0  0  0
 12 14  1  0  0  0  0
 12 15  2  0  0  0  0
 13 17  2  0  0  0  0
 13 18  1  0  0  0  0
 14 16  2  0  0  0  0
 15 19  1  0  0  0  0
 15 39  1  0  0  0  0
 16 20  1  0  0  0  0
 17 21  1  0  0  0  0
 17 40  1  0  0  0  0
 18 22  2  0  0  0  0
 18 41  1  0  0  0  0
 19 20  2  0  0  0  0
 19 42  1  0  0  0  0
 20 43  1  0  0  0  0
 21 24  2  0  0  0  0
 21 25  1  0  0  0  0
 22 24  1  0  0  0  0
 22 45  1  0  0  0  0
 24 46  1  0  0  0  0
 25 26  2  0  0  0  0
 26 27  1  0  0  0  0
 26 47  1  0  0  0  0
 27 28  2  0  0  0  0
 27 48  1  0  0  0  0
 28 49  1  0  0  0  0
M  END
> <PUBCHEM_COMPOUND_CID>
44315380

> <PUBCHEM_COMPOUND_CANONICALIZED>
1

> <PUBCHEM_CACTVS_COMPLEXITY>
554

> <PUBCHEM_CACTVS_HBOND_ACCEPTOR>
5

> <PUBCHEM_CACTVS_HBOND_DONOR>
1

> <PUBCHEM_CACTVS_ROTATABLE_BOND>
4

> <PUBCHEM_CACTVS_SUBSKEYS>
AAADceB7MABAAAAAAAAAAAAAAAAAAWJAAAA8YIAAAAAAAFgB0AAAHgQQAAAADAzF2ASwz4PABAiMAiRCWACDCIAhKhBIiBgNbIkOZiLk8dudMihk1BH46AeQwMAOAAACAAQAEAAAAAQACAAgAAAAAAAAAA==

> <PUBCHEM_IUPAC_OPENEYE_NAME>
7-[4-[[3-(2-thienyl)phenyl]methyl]piperazin-1-yl]-3H-1,3-benzoxazol-2-one

> <PUBCHEM_IUPAC_CAS_NAME>
7-[4-[(3-thiophen-2-ylphenyl)methyl]-1-piperazinyl]-3H-1,3-benzoxazol-2-one

> <PUBCHEM_IUPAC_NAME_MARKUP>
7-[4-[(3-thiophen-2-ylphenyl)methyl]piperazin-1-yl]-3<I>H</I>-1,3-benzoxazol-2-one

> <PUBCHEM_IUPAC_NAME>
7-[4-[(3-thiophen-2-ylphenyl)methyl]piperazin-1-yl]-3H-1,3-benzoxazol-2-one

> <PUBCHEM_IUPAC_SYSTEMATIC_NAME>
7-[4-[(3-thiophen-2-ylphenyl)methyl]piperazin-1-yl]-3H-1,3-benzoxazol-2-one

> <PUBCHEM_IUPAC_TRADITIONAL_NAME>
7-[4-[3-(2-thienyl)benzyl]piperazino]-3H-1,3-benzoxazol-2-one

> <PUBCHEM_IUPAC_INCHI>
InChI=1S/C22H21N3O2S/c26-22-23-18-6-2-7-19(21(18)27-22)25-11-9-24(10-12-25)15-16-4-1-5-17(14-16)20-8-3-13-28-20/h1-8,13-14H,9-12,15H2,(H,23,26)

> <PUBCHEM_IUPAC_INCHIKEY>
OGTUTKKBESFZFI-UHFFFAOYSA-N

> <PUBCHEM_XLOGP3_AA>
3.9

> <PUBCHEM_EXACT_MASS>
391.13544809

> <PUBCHEM_MOLECULAR_FORMULA>
C22H21N3O2S

> <PUBCHEM_MOLECULAR_WEIGHT>
391.5

> <PUBCHEM_OPENEYE_CAN_SMILES>
C1CN(CCN1CC2=CC(=CC=C2)C3=CC=CS3)C4=CC=CC5=C4OC(=O)N5

> <PUBCHEM_OPENEYE_ISO_SMILES>
C1CN(CCN1CC2=CC(=CC=C2)C3=CC=CS3)C4=CC=CC5=C4OC(=O)N5

> <PUBCHEM_CACTVS_TPSA>
73

> <PUBCHEM_MONOISOTOPIC_WEIGHT>
391.13544809

> <PUBCHEM_TOTAL_CHARGE>
0

> <PUBCHEM_HEAVY_ATOM_COUNT>
28

> <PUBCHEM_ATOM_DEF_STEREO_COUNT>
0

> <PUBCHEM_ATOM_UDEF_STEREO_COUNT>
0

> <PUBCHEM_BOND_DEF_STEREO_COUNT>
0

> <PUBCHEM_BOND_UDEF_STEREO_COUNT>
0

> <PUBCHEM_ISOTOPIC_ATOM_COUNT>
0

> <PUBCHEM_COMPONENT_COUNT>
1

> <PUBCHEM_CACTVS_TAUTO_COUNT>
-1

> <PUBCHEM_COORDINATE_TYPE>
1
5
255

> <PUBCHEM_BONDANNOTATIONS>
1  25  8
1  28  8
12  14  8
12  15  8
13  17  8
13  18  8
14  16  8
15  19  8
16  20  8
17  21  8
18  22  8
19  20  8
2  14  8
2  23  8
21  24  8
22  24  8
25  26  8
26  27  8
27  28  8
6  16  8
6  23  8

$$$$
