44338248
  -OEChem-09292322112D

 62 67  0     1  0  0  0  0  0999 V2000
   14.2708   -3.2552    0.0000 F   0  0  0  0  0  0  0  0  0  0  0  0
   11.9012    3.2552    0.0000 F   0  0  0  0  0  0  0  0  0  0  0  0
   10.2670   -1.0261    0.0000 O   0  0  0  0  0  0  0  0  0  0  0  0
    6.7619   -0.1492    0.0000 N   0  0  0  0  0  0  0  0  0  0  0  0
    4.6783   -1.8199    0.0000 N   0  0  0  0  0  0  0  0  0  0  0  0
    8.2105    1.2389    0.0000 C   0  0  3  0  0  0  0  0  0  0  0  0
    7.2445    0.9801    0.0000 C   0  0  3  0  0  0  0  0  0  0  0  0
    7.9516    2.7048    0.0000 C   0  0  0  0  0  0  0  0  0  0  0  0
    6.9857    2.4460    0.0000 C   0  0  0  0  0  0  0  0  0  0  0  0
    9.5707    0.6143    0.0000 C   0  0  0  0  0  0  0  0  0  0  0  0
    8.5306   -0.6252    0.0000 C   0  0  0  0  0  0  0  0  0  0  0  0
    9.5009   -0.3833    0.0000 C   0  0  0  0  0  0  0  0  0  0  0  0
    6.2619   -1.0152    0.0000 C   0  0  0  0  0  0  0  0  0  0  0  0
    5.2619   -1.0152    0.0000 C   0  0  0  0  0  0  0  0  0  0  0  0
   11.2066   -0.6840    0.0000 C   0  0  0  0  0  0  0  0  0  0  0  0
    4.6783   -0.2104    0.0000 C   0  0  0  0  0  0  0  0  0  0  0  0
   11.9727   -1.3268    0.0000 C   0  0  0  0  0  0  0  0  0  0  0  0
   11.3803    0.3008    0.0000 C   0  0  0  0  0  0  0  0  0  0  0  0
    3.7320   -1.5152    0.0000 C   0  0  0  0  0  0  0  0  0  0  0  0
    3.7320   -0.5152    0.0000 C   0  0  0  0  0  0  0  0  0  0  0  0
    2.8660   -2.0152    0.0000 C   0  0  0  0  0  0  0  0  0  0  0  0
    2.8660   -0.0152    0.0000 C   0  0  0  0  0  0  0  0  0  0  0  0
   11.7990   -2.3116    0.0000 C   0  0  0  0  0  0  0  0  0  0  0  0
   10.6142    0.9436    0.0000 C   0  0  0  0  0  0  0  0  0  0  0  0
   12.9124   -0.9848    0.0000 C   0  0  0  0  0  0  0  0  0  0  0  0
   12.3200    0.6428    0.0000 C   0  0  0  0  0  0  0  0  0  0  0  0
    2.0000   -1.5152    0.0000 C   0  0  0  0  0  0  0  0  0  0  0  0
    2.0000   -0.5152    0.0000 C   0  0  0  0  0  0  0  0  0  0  0  0
   12.5651   -2.9544    0.0000 C   0  0  0  0  0  0  0  0  0  0  0  0
   10.7879    1.9284    0.0000 C   0  0  0  0  0  0  0  0  0  0  0  0
   13.6784   -1.6276    0.0000 C   0  0  0  0  0  0  0  0  0  0  0  0
   12.4936    1.6276    0.0000 C   0  0  0  0  0  0  0  0  0  0  0  0
   13.5048   -2.6124    0.0000 C   0  0  0  0  0  0  0  0  0  0  0  0
   11.7276    2.2704    0.0000 C   0  0  0  0  0  0  0  0  0  0  0  0
    8.7012    1.6178    0.0000 H   0  0  0  0  0  0  0  0  0  0  0  0
    7.8094    1.2358    0.0000 H   0  0  0  0  0  0  0  0  0  0  0  0
    8.5588    2.8303    0.0000 H   0  0  0  0  0  0  0  0  0  0  0  0
    7.8086    3.3081    0.0000 H   0  0  0  0  0  0  0  0  0  0  0  0
    6.8427    3.0493    0.0000 H   0  0  0  0  0  0  0  0  0  0  0  0
    6.3786    2.3205    0.0000 H   0  0  0  0  0  0  0  0  0  0  0  0
   10.1795    0.4972    0.0000 H   0  0  0  0  0  0  0  0  0  0  0  0
    9.7600    1.2047    0.0000 H   0  0  0  0  0  0  0  0  0  0  0  0
    7.9962   -0.9396    0.0000 H   0  0  0  0  0  0  0  0  0  0  0  0
    8.7652   -1.1991    0.0000 H   0  0  0  0  0  0  0  0  0  0  0  0
    9.3614   -0.9874    0.0000 H   0  0  0  0  0  0  0  0  0  0  0  0
    6.1542   -1.6258    0.0000 H   0  0  0  0  0  0  0  0  0  0  0  0
    6.8445   -1.2272    0.0000 H   0  0  0  0  0  0  0  0  0  0  0  0
   10.7317   -0.2855    0.0000 H   0  0  0  0  0  0  0  0  0  0  0  0
    4.8709   -2.4092    0.0000 H   0  0  0  0  0  0  0  0  0  0  0  0
    4.8709    0.3789    0.0000 H   0  0  0  0  0  0  0  0  0  0  0  0
   11.2164   -2.5237    0.0000 H   0  0  0  0  0  0  0  0  0  0  0  0
   10.0316    0.7315    0.0000 H   0  0  0  0  0  0  0  0  0  0  0  0
   13.0200   -0.3742    0.0000 H   0  0  0  0  0  0  0  0  0  0  0  0
   12.7949    0.2443    0.0000 H   0  0  0  0  0  0  0  0  0  0  0  0
    2.8660   -2.6352    0.0000 H   0  0  0  0  0  0  0  0  0  0  0  0
    2.8660    0.6048    0.0000 H   0  0  0  0  0  0  0  0  0  0  0  0
    1.4631   -1.8252    0.0000 H   0  0  0  0  0  0  0  0  0  0  0  0
    1.4631   -0.2052    0.0000 H   0  0  0  0  0  0  0  0  0  0  0  0
   12.4574   -3.5650    0.0000 H   0  0  0  0  0  0  0  0  0  0  0  0
   10.3129    2.3269    0.0000 H   0  0  0  0  0  0  0  0  0  0  0  0
   14.2610   -1.4155    0.0000 H   0  0  0  0  0  0  0  0  0  0  0  0
   13.0762    1.8396    0.0000 H   0  0  0  0  0  0  0  0  0  0  0  0
  1 33  1  0  0  0  0
  2 34  1  0  0  0  0
  3 12  1  0  0  0  0
  3 15  1  0  0  0  0
  4  6  1  0  0  0  0
  4  7  1  0  0  0  0
  4 13  1  0  0  0  0
  5 14  1  0  0  0  0
  5 19  1  0  0  0  0
  5 49  1  0  0  0  0
  6  8  1  0  0  0  0
  6 10  1  0  0  0  0
  6 35  1  0  0  0  0
  7  9  1  0  0  0  0
  7 11  1  0  0  0  0
  7 36  1  0  0  0  0
  8  9  1  0  0  0  0
  8 37  1  0  0  0  0
  8 38  1  0  0  0  0
  9 39  1  0  0  0  0
  9 40  1  0  0  0  0
 10 12  1  0  0  0  0
 10 41  1  0  0  0  0
 10 42  1  0  0  0  0
 11 12  1  0  0  0  0
 11 43  1  0  0  0  0
 11 44  1  0  0  0  0
 12 45  1  0  0  0  0
 13 14  1  0  0  0  0
 13 46  1  0  0  0  0
 13 47  1  0  0  0  0
 14 16  2  0  0  0  0
 15 17  1  0  0  0  0
 15 18  1  0  0  0  0
 15 48  1  0  0  0  0
 16 20  1  0  0  0  0
 16 50  1  0  0  0  0
 17 23  2  0  0  0  0
 17 25  1  0  0  0  0
 18 24  2  0  0  0  0
 18 26  1  0  0  0  0
 19 20  1  0  0  0  0
 19 21  2  0  0  0  0
 20 22  2  0  0  0  0
 21 27  1  0  0  0  0
 21 55  1  0  0  0  0
 22 28  1  0  0  0  0
 22 56  1  0  0  0  0
 23 29  1  0  0  0  0
 23 51  1  0  0  0  0
 24 30  1  0  0  0  0
 24 52  1  0  0  0  0
 25 31  2  0  0  0  0
 25 53  1  0  0  0  0
 26 32  2  0  0  0  0
 26 54  1  0  0  0  0
 27 28  2  0  0  0  0
 27 57  1  0  0  0  0
 28 58  1  0  0  0  0
 29 33  2  0  0  0  0
 29 59  1  0  0  0  0
 30 34  2  0  0  0  0
 30 60  1  0  0  0  0
 31 33  1  0  0  0  0
 31 61  1  0  0  0  0
 32 34  1  0  0  0  0
 32 62  1  0  0  0  0
M  END
> <PUBCHEM_COMPOUND_CID>
44338248

> <PUBCHEM_COMPOUND_CANONICALIZED>
1

> <PUBCHEM_CACTVS_COMPLEXITY>
627

> <PUBCHEM_CACTVS_HBOND_ACCEPTOR>
4

> <PUBCHEM_CACTVS_HBOND_DONOR>
1

> <PUBCHEM_CACTVS_ROTATABLE_BOND>
6

> <PUBCHEM_CACTVS_SUBSKEYS>
AAADceB7IYAAAAAAAAAAAAAAAAAAAWLAAAA8YMEABgAAAFgB9AAAHwAQAAAADDzhng4wwPPJlACgAyRiRACCgCAhAiAImSA4bJgIZuLAsZmWMAhm0AHI6AeQwOAOAAAAAAACAAAAAAAAAAQAAAAAAAAAAA==

> <PUBCHEM_IUPAC_OPENEYE_NAME>
2-[[3-[bis(4-fluorophenyl)methoxy]-8-azabicyclo[3.2.1]octan-8-yl]methyl]-1H-indole

> <PUBCHEM_IUPAC_CAS_NAME>
2-[[3-[bis(4-fluorophenyl)methoxy]-8-azabicyclo[3.2.1]octan-8-yl]methyl]-1H-indole

> <PUBCHEM_IUPAC_NAME_MARKUP>
2-[[3-[bis(4-fluorophenyl)methoxy]-8-azabicyclo[3.2.1]octan-8-yl]methyl]-1<I>H</I>-indole

> <PUBCHEM_IUPAC_NAME>
2-[[3-[bis(4-fluorophenyl)methoxy]-8-azabicyclo[3.2.1]octan-8-yl]methyl]-1H-indole

> <PUBCHEM_IUPAC_SYSTEMATIC_NAME>
2-[[3-[bis(4-fluorophenyl)methoxy]-8-azabicyclo[3.2.1]octan-8-yl]methyl]-1H-indole

> <PUBCHEM_IUPAC_TRADITIONAL_NAME>
2-[[3-[bis(4-fluorophenyl)methoxy]-8-azabicyclo[3.2.1]octan-8-yl]methyl]-1H-indole

> <PUBCHEM_IUPAC_INCHI>
InChI=1S/C29H28F2N2O/c30-22-9-5-19(6-10-22)29(20-7-11-23(31)12-8-20)34-27-16-25-13-14-26(17-27)33(25)18-24-15-21-3-1-2-4-28(21)32-24/h1-12,15,25-27,29,32H,13-14,16-18H2

> <PUBCHEM_IUPAC_INCHIKEY>
KKSPKLQCAGWNKZ-UHFFFAOYSA-N

> <PUBCHEM_XLOGP3_AA>
6.3

> <PUBCHEM_EXACT_MASS>
458.21696985

> <PUBCHEM_MOLECULAR_FORMULA>
C29H28F2N2O

> <PUBCHEM_MOLECULAR_WEIGHT>
458.5

> <PUBCHEM_OPENEYE_CAN_SMILES>
C1CC2CC(CC1N2CC3=CC4=CC=CC=C4N3)OC(C5=CC=C(C=C5)F)C6=CC=C(C=C6)F

> <PUBCHEM_OPENEYE_ISO_SMILES>
C1CC2CC(CC1N2CC3=CC4=CC=CC=C4N3)OC(C5=CC=C(C=C5)F)C6=CC=C(C=C6)F

> <PUBCHEM_CACTVS_TPSA>
28.3

> <PUBCHEM_MONOISOTOPIC_WEIGHT>
458.21696985

> <PUBCHEM_TOTAL_CHARGE>
0

> <PUBCHEM_HEAVY_ATOM_COUNT>
34

> <PUBCHEM_ATOM_DEF_STEREO_COUNT>
0

> <PUBCHEM_ATOM_UDEF_STEREO_COUNT>
2

> <PUBCHEM_BOND_DEF_STEREO_COUNT>
0

> <PUBCHEM_BOND_UDEF_STEREO_COUNT>
0

> <PUBCHEM_ISOTOPIC_ATOM_COUNT>
0

> <PUBCHEM_COMPONENT_COUNT>
1

> <PUBCHEM_CACTVS_TAUTO_COUNT>
-1

> <PUBCHEM_COORDINATE_TYPE>
1
5
255

> <PUBCHEM_BONDANNOTATIONS>
14  16  8
16  20  8
17  23  8
17  25  8
18  24  8
18  26  8
19  20  8
19  21  8
20  22  8
21  27  8
22  28  8
23  29  8
24  30  8
25  31  8
26  32  8
27  28  8
29  33  8
30  34  8
31  33  8
32  34  8
5  14  8
5  19  8
6  8  3
7  9  3

$$$$
