9932698
  -OEChem-09292322312D

 62 66  0     0  0  0  0  0  0999 V2000
    8.1899   -6.2892    0.0000 F   0  0  0  0  0  0  0  0  0  0  0  0
    7.8927    4.8929    0.0000 O   0  0  0  0  0  0  0  0  0  0  0  0
    7.8792    1.9739    0.0000 N   0  0  0  0  0  0  0  0  0  0  0  0
    6.9473   -2.4871    0.0000 N   0  0  0  0  0  0  0  0  0  0  0  0
    9.4791    4.0812    0.0000 N   0  0  0  0  0  0  0  0  0  0  0  0
    9.4819    5.6992    0.0000 N   0  0  0  0  0  0  0  0  0  0  0  0
    2.5369   -1.1824    0.0000 N   0  0  0  0  0  0  0  0  0  0  0  0
    7.2579    0.0729    0.0000 C   0  0  0  0  0  0  0  0  0  0  0  0
    6.5901    0.8172    0.0000 C   0  0  0  0  0  0  0  0  0  0  0  0
    8.2364    0.2791    0.0000 C   0  0  0  0  0  0  0  0  0  0  0  0
    6.9007    1.7677    0.0000 C   0  0  0  0  0  0  0  0  0  0  0  0
    8.5471    1.2296    0.0000 C   0  0  0  0  0  0  0  0  0  0  0  0
    6.9473   -0.8776    0.0000 C   0  0  0  0  0  0  0  0  0  0  0  0
    8.1899    2.9244    0.0000 C   0  0  0  0  0  0  0  0  0  0  0  0
    6.0010   -1.1824    0.0000 C   0  0  0  0  0  0  0  0  0  0  0  0
    9.1684    3.1306    0.0000 C   0  0  0  0  0  0  0  0  0  0  0  0
    7.5309   -1.6824    0.0000 C   0  0  0  0  0  0  0  0  0  0  0  0
    6.0010   -2.1824    0.0000 C   0  0  0  0  0  0  0  0  0  0  0  0
    5.1350   -0.6824    0.0000 C   0  0  0  0  0  0  0  0  0  0  0  0
   10.4307    4.3886    0.0000 C   0  0  0  0  0  0  0  0  0  0  0  0
    5.1350   -2.6824    0.0000 C   0  0  0  0  0  0  0  0  0  0  0  0
    4.2690   -1.1824    0.0000 C   0  0  0  0  0  0  0  0  0  0  0  0
    7.2579   -3.4376    0.0000 C   0  0  0  0  0  0  0  0  0  0  0  0
   10.4324    5.3885    0.0000 C   0  0  0  0  0  0  0  0  0  0  0  0
    8.8927    4.8912    0.0000 C   0  0  0  0  0  0  0  0  0  0  0  0
    4.2690   -2.1824    0.0000 C   0  0  0  0  0  0  0  0  0  0  0  0
    3.4030   -0.6824    0.0000 C   0  0  0  0  0  0  0  0  0  0  0  0
    6.5901   -4.1819    0.0000 C   0  0  0  0  0  0  0  0  0  0  0  0
    8.2364   -3.6438    0.0000 C   0  0  0  0  0  0  0  0  0  0  0  0
    6.9007   -5.1325    0.0000 C   0  0  0  0  0  0  0  0  0  0  0  0
    8.5471   -4.5944    0.0000 C   0  0  0  0  0  0  0  0  0  0  0  0
    7.8792   -5.3387    0.0000 C   0  0  0  0  0  0  0  0  0  0  0  0
    6.6512   -0.0550    0.0000 H   0  0  0  0  0  0  0  0  0  0  0  0
    6.0432    1.1092    0.0000 H   0  0  0  0  0  0  0  0  0  0  0  0
    6.2075    0.3293    0.0000 H   0  0  0  0  0  0  0  0  0  0  0  0
    8.2570   -0.3406    0.0000 H   0  0  0  0  0  0  0  0  0  0  0  0
    8.8502    0.1917    0.0000 H   0  0  0  0  0  0  0  0  0  0  0  0
    6.8802    2.3874    0.0000 H   0  0  0  0  0  0  0  0  0  0  0  0
    6.2869    1.8550    0.0000 H   0  0  0  0  0  0  0  0  0  0  0  0
    9.0940    0.9376    0.0000 H   0  0  0  0  0  0  0  0  0  0  0  0
    8.9296    1.7175    0.0000 H   0  0  0  0  0  0  0  0  0  0  0  0
    8.1693    3.5441    0.0000 H   0  0  0  0  0  0  0  0  0  0  0  0
    7.5761    3.0118    0.0000 H   0  0  0  0  0  0  0  0  0  0  0  0
    9.1890    2.5110    0.0000 H   0  0  0  0  0  0  0  0  0  0  0  0
    9.7822    3.0433    0.0000 H   0  0  0  0  0  0  0  0  0  0  0  0
    8.1509   -1.6824    0.0000 H   0  0  0  0  0  0  0  0  0  0  0  0
    5.1350   -0.0624    0.0000 H   0  0  0  0  0  0  0  0  0  0  0  0
   10.5585    3.7819    0.0000 H   0  0  0  0  0  0  0  0  0  0  0  0
   11.0474    4.4523    0.0000 H   0  0  0  0  0  0  0  0  0  0  0  0
    5.1350   -3.3024    0.0000 H   0  0  0  0  0  0  0  0  0  0  0  0
   11.0489    5.3227    0.0000 H   0  0  0  0  0  0  0  0  0  0  0  0
   10.5623    5.9948    0.0000 H   0  0  0  0  0  0  0  0  0  0  0  0
    3.7320   -2.4924    0.0000 H   0  0  0  0  0  0  0  0  0  0  0  0
    9.2913    6.2892    0.0000 H   0  0  0  0  0  0  0  0  0  0  0  0
    3.8015   -0.2074    0.0000 H   0  0  0  0  0  0  0  0  0  0  0  0
    3.0044   -0.2074    0.0000 H   0  0  0  0  0  0  0  0  0  0  0  0
    5.9834   -4.0541    0.0000 H   0  0  0  0  0  0  0  0  0  0  0  0
    8.6505   -3.1824    0.0000 H   0  0  0  0  0  0  0  0  0  0  0  0
    6.4867   -5.5939    0.0000 H   0  0  0  0  0  0  0  0  0  0  0  0
    9.1538   -4.7222    0.0000 H   0  0  0  0  0  0  0  0  0  0  0  0
    2.0000   -0.8724    0.0000 H   0  0  0  0  0  0  0  0  0  0  0  0
    2.5369   -1.8024    0.0000 H   0  0  0  0  0  0  0  0  0  0  0  0
  1 32  1  0  0  0  0
  2 25  2  0  0  0  0
  3 11  1  0  0  0  0
  3 12  1  0  0  0  0
  3 14  1  0  0  0  0
  4 17  1  0  0  0  0
  4 18  1  0  0  0  0
  4 23  1  0  0  0  0
  5 16  1  0  0  0  0
  5 20  1  0  0  0  0
  5 25  1  0  0  0  0
  6 24  1  0  0  0  0
  6 25  1  0  0  0  0
  6 54  1  0  0  0  0
  7 27  1  0  0  0  0
  7 61  1  0  0  0  0
  7 62  1  0  0  0  0
  8  9  1  0  0  0  0
  8 10  1  0  0  0  0
  8 13  1  0  0  0  0
  8 33  1  0  0  0  0
  9 11  1  0  0  0  0
  9 34  1  0  0  0  0
  9 35  1  0  0  0  0
 10 12  1  0  0  0  0
 10 36  1  0  0  0  0
 10 37  1  0  0  0  0
 11 38  1  0  0  0  0
 11 39  1  0  0  0  0
 12 40  1  0  0  0  0
 12 41  1  0  0  0  0
 13 15  1  0  0  0  0
 13 17  2  0  0  0  0
 14 16  1  0  0  0  0
 14 42  1  0  0  0  0
 14 43  1  0  0  0  0
 15 18  2  0  0  0  0
 15 19  1  0  0  0  0
 16 44  1  0  0  0  0
 16 45  1  0  0  0  0
 17 46  1  0  0  0  0
 18 21  1  0  0  0  0
 19 22  2  0  0  0  0
 19 47  1  0  0  0  0
 20 24  1  0  0  0  0
 20 48  1  0  0  0  0
 20 49  1  0  0  0  0
 21 26  2  0  0  0  0
 21 50  1  0  0  0  0
 22 26  1  0  0  0  0
 22 27  1  0  0  0  0
 23 28  2  0  0  0  0
 23 29  1  0  0  0  0
 24 51  1  0  0  0  0
 24 52  1  0  0  0  0
 26 53  1  0  0  0  0
 27 55  1  0  0  0  0
 27 56  1  0  0  0  0
 28 30  1  0  0  0  0
 28 57  1  0  0  0  0
 29 31  2  0  0  0  0
 29 58  1  0  0  0  0
 30 32  2  0  0  0  0
 30 59  1  0  0  0  0
 31 32  1  0  0  0  0
 31 60  1  0  0  0  0
M  END
> <PUBCHEM_COMPOUND_CID>
9932698

> <PUBCHEM_COMPOUND_CANONICALIZED>
1

> <PUBCHEM_CACTVS_COMPLEXITY>
634

> <PUBCHEM_CACTVS_HBOND_ACCEPTOR>
4

> <PUBCHEM_CACTVS_HBOND_DONOR>
2

> <PUBCHEM_CACTVS_ROTATABLE_BOND>
6

> <PUBCHEM_CACTVS_SUBSKEYS>
AAADceB7oQAAAAAAAAAAAAAAAAAAAWLAAAA8YIAAAAAAAFgB9AAAHwAQAAAADQjBHgw9wPPMEACoAzRnVACCgCAxAiAI2KA4ZJiIYOLAkZGUIAholgLIyAcQgMAOiAACAAACAAAQAAQAAAQAAAAAAAAAAA==

> <PUBCHEM_IUPAC_OPENEYE_NAME>
1-[2-[4-[5-(aminomethyl)-1-(4-fluorophenyl)indol-3-yl]-1-piperidyl]ethyl]imidazolidin-2-one

> <PUBCHEM_IUPAC_CAS_NAME>
1-[2-[4-[5-(aminomethyl)-1-(4-fluorophenyl)-3-indolyl]-1-piperidinyl]ethyl]-2-imidazolidinone

> <PUBCHEM_IUPAC_NAME_MARKUP>
1-[2-[4-[5-(aminomethyl)-1-(4-fluorophenyl)indol-3-yl]piperidin-1-yl]ethyl]imidazolidin-2-one

> <PUBCHEM_IUPAC_NAME>
1-[2-[4-[5-(aminomethyl)-1-(4-fluorophenyl)indol-3-yl]piperidin-1-yl]ethyl]imidazolidin-2-one

> <PUBCHEM_IUPAC_SYSTEMATIC_NAME>
1-[2-[4-[5-(aminomethyl)-1-(4-fluorophenyl)indol-3-yl]piperidin-1-yl]ethyl]imidazolidin-2-one

> <PUBCHEM_IUPAC_TRADITIONAL_NAME>
1-[2-[4-[5-(aminomethyl)-1-(4-fluorophenyl)indol-3-yl]piperidino]ethyl]-2-imidazolidinone

> <PUBCHEM_IUPAC_INCHI>
InChI=1S/C25H30FN5O/c26-20-2-4-21(5-3-20)31-17-23(22-15-18(16-27)1-6-24(22)31)19-7-10-29(11-8-19)13-14-30-12-9-28-25(30)32/h1-6,15,17,19H,7-14,16,27H2,(H,28,32)

> <PUBCHEM_IUPAC_INCHIKEY>
PBYSLXLVOFLVAY-UHFFFAOYSA-N

> <PUBCHEM_XLOGP3_AA>
2.3

> <PUBCHEM_EXACT_MASS>
435.24343876

> <PUBCHEM_MOLECULAR_FORMULA>
C25H30FN5O

> <PUBCHEM_MOLECULAR_WEIGHT>
435.5

> <PUBCHEM_OPENEYE_CAN_SMILES>
C1CN(CCC1C2=CN(C3=C2C=C(C=C3)CN)C4=CC=C(C=C4)F)CCN5CCNC5=O

> <PUBCHEM_OPENEYE_ISO_SMILES>
C1CN(CCC1C2=CN(C3=C2C=C(C=C3)CN)C4=CC=C(C=C4)F)CCN5CCNC5=O

> <PUBCHEM_CACTVS_TPSA>
66.5

> <PUBCHEM_MONOISOTOPIC_WEIGHT>
435.24343876

> <PUBCHEM_TOTAL_CHARGE>
0

> <PUBCHEM_HEAVY_ATOM_COUNT>
32

> <PUBCHEM_ATOM_DEF_STEREO_COUNT>
0

> <PUBCHEM_ATOM_UDEF_STEREO_COUNT>
0

> <PUBCHEM_BOND_DEF_STEREO_COUNT>
0

> <PUBCHEM_BOND_UDEF_STEREO_COUNT>
0

> <PUBCHEM_ISOTOPIC_ATOM_COUNT>
0

> <PUBCHEM_COMPONENT_COUNT>
1

> <PUBCHEM_CACTVS_TAUTO_COUNT>
-1

> <PUBCHEM_COORDINATE_TYPE>
1
5
255

> <PUBCHEM_BONDANNOTATIONS>
13  15  8
13  17  8
15  18  8
15  19  8
18  21  8
19  22  8
21  26  8
22  26  8
23  28  8
23  29  8
28  30  8
29  31  8
30  32  8
31  32  8
4  17  8
4  18  8

$$$$
