155540616
  -OEChem-09292322082D

 50 53  0     0  0  0  0  0  0999 V2000
    8.1424   -0.7557    0.0000 S   0  0  0  0  0  0  0  0  0  0  0  0
    2.0000    0.5490    0.0000 O   0  0  0  0  0  0  0  0  0  0  0  0
    3.7320   -0.4510    0.0000 N   0  0  0  0  0  0  0  0  0  0  0  0
    5.4641    0.5490    0.0000 N   0  0  0  0  0  0  0  0  0  0  0  0
    6.3301   -0.9510    0.0000 N   0  0  0  0  0  0  0  0  0  0  0  0
    6.3301    2.0490    0.0000 N   0  0  0  0  0  0  0  0  0  0  0  0
    2.8660   -0.9510    0.0000 C   0  0  0  0  0  0  0  0  0  0  0  0
    3.7320    0.5490    0.0000 C   0  0  0  0  0  0  0  0  0  0  0  0
    4.5981   -0.9510    0.0000 C   0  0  0  0  0  0  0  0  0  0  0  0
    2.0000   -0.4510    0.0000 C   0  0  0  0  0  0  0  0  0  0  0  0
    2.8660    1.0490    0.0000 C   0  0  0  0  0  0  0  0  0  0  0  0
    5.4641   -0.4510    0.0000 C   0  0  0  0  0  0  0  0  0  0  0  0
    7.1962    0.5490    0.0000 C   0  0  0  0  0  0  0  0  0  0  0  0
    6.3301    1.0490    0.0000 C   0  0  0  0  0  0  0  0  0  0  0  0
    7.1962   -0.4510    0.0000 C   0  0  0  0  0  0  0  0  0  0  0  0
    8.7260    0.0490    0.0000 C   0  0  0  0  0  0  0  0  0  0  0  0
    8.1424    0.8538    0.0000 C   0  0  0  0  0  0  0  0  0  0  0  0
    9.7260    0.0490    0.0000 C   0  0  0  0  0  0  0  0  0  0  0  0
   10.2260   -0.8170    0.0000 C   0  0  0  0  0  0  0  0  0  0  0  0
    5.4641    2.5490    0.0000 C   0  0  0  0  0  0  0  0  0  0  0  0
    7.1962    2.5490    0.0000 C   0  0  0  0  0  0  0  0  0  0  0  0
   11.2260   -0.8170    0.0000 C   0  0  0  0  0  0  0  0  0  0  0  0
    9.7260   -1.6830    0.0000 C   0  0  0  0  0  0  0  0  0  0  0  0
   11.7260   -1.6830    0.0000 C   0  0  0  0  0  0  0  0  0  0  0  0
   10.2260   -2.5490    0.0000 C   0  0  0  0  0  0  0  0  0  0  0  0
   11.2260   -2.5490    0.0000 C   0  0  0  0  0  0  0  0  0  0  0  0
    2.4675   -1.4259    0.0000 H   0  0  0  0  0  0  0  0  0  0  0  0
    3.2646   -1.4259    0.0000 H   0  0  0  0  0  0  0  0  0  0  0  0
    4.3426    0.4414    0.0000 H   0  0  0  0  0  0  0  0  0  0  0  0
    3.9441    1.1316    0.0000 H   0  0  0  0  0  0  0  0  0  0  0  0
    4.1996   -1.4259    0.0000 H   0  0  0  0  0  0  0  0  0  0  0  0
    4.9966   -1.4259    0.0000 H   0  0  0  0  0  0  0  0  0  0  0  0
    1.3894   -0.3433    0.0000 H   0  0  0  0  0  0  0  0  0  0  0  0
    1.7880   -1.0336    0.0000 H   0  0  0  0  0  0  0  0  0  0  0  0
    3.2646    1.5240    0.0000 H   0  0  0  0  0  0  0  0  0  0  0  0
    2.4675    1.5240    0.0000 H   0  0  0  0  0  0  0  0  0  0  0  0
    8.3350    1.4431    0.0000 H   0  0  0  0  0  0  0  0  0  0  0  0
   10.3086    0.2611    0.0000 H   0  0  0  0  0  0  0  0  0  0  0  0
    9.6183    0.6596    0.0000 H   0  0  0  0  0  0  0  0  0  0  0  0
    5.7741    3.0860    0.0000 H   0  0  0  0  0  0  0  0  0  0  0  0
    4.9272    2.8590    0.0000 H   0  0  0  0  0  0  0  0  0  0  0  0
    5.1541    2.0121    0.0000 H   0  0  0  0  0  0  0  0  0  0  0  0
    7.5062    2.0121    0.0000 H   0  0  0  0  0  0  0  0  0  0  0  0
    7.7331    2.8590    0.0000 H   0  0  0  0  0  0  0  0  0  0  0  0
    6.8862    3.0860    0.0000 H   0  0  0  0  0  0  0  0  0  0  0  0
   11.5360   -0.2801    0.0000 H   0  0  0  0  0  0  0  0  0  0  0  0
    9.1060   -1.6830    0.0000 H   0  0  0  0  0  0  0  0  0  0  0  0
   12.3460   -1.6830    0.0000 H   0  0  0  0  0  0  0  0  0  0  0  0
    9.9160   -3.0860    0.0000 H   0  0  0  0  0  0  0  0  0  0  0  0
   11.5360   -3.0860    0.0000 H   0  0  0  0  0  0  0  0  0  0  0  0
  1 15  1  0  0  0  0
  1 16  1  0  0  0  0
  2 10  1  0  0  0  0
  2 11  1  0  0  0  0
  3  7  1  0  0  0  0
  3  8  1  0  0  0  0
  3  9  1  0  0  0  0
  4 12  2  0  0  0  0
  4 14  1  0  0  0  0
  5 12  1  0  0  0  0
  5 15  2  0  0  0  0
  6 14  1  0  0  0  0
  6 20  1  0  0  0  0
  6 21  1  0  0  0  0
  7 10  1  0  0  0  0
  7 27  1  0  0  0  0
  7 28  1  0  0  0  0
  8 11  1  0  0  0  0
  8 29  1  0  0  0  0
  8 30  1  0  0  0  0
  9 12  1  0  0  0  0
  9 31  1  0  0  0  0
  9 32  1  0  0  0  0
 10 33  1  0  0  0  0
 10 34  1  0  0  0  0
 11 35  1  0  0  0  0
 11 36  1  0  0  0  0
 13 14  2  0  0  0  0
 13 15  1  0  0  0  0
 13 17  1  0  0  0  0
 16 17  2  0  0  0  0
 16 18  1  0  0  0  0
 17 37  1  0  0  0  0
 18 19  1  0  0  0  0
 18 38  1  0  0  0  0
 18 39  1  0  0  0  0
 19 22  2  0  0  0  0
 19 23  1  0  0  0  0
 20 40  1  0  0  0  0
 20 41  1  0  0  0  0
 20 42  1  0  0  0  0
 21 43  1  0  0  0  0
 21 44  1  0  0  0  0
 21 45  1  0  0  0  0
 22 24  1  0  0  0  0
 22 46  1  0  0  0  0
 23 25  2  0  0  0  0
 23 47  1  0  0  0  0
 24 26  2  0  0  0  0
 24 48  1  0  0  0  0
 25 26  1  0  0  0  0
 25 49  1  0  0  0  0
 26 50  1  0  0  0  0
M  END
> <PUBCHEM_COMPOUND_CID>
155540616

> <PUBCHEM_COMPOUND_CANONICALIZED>
1

> <PUBCHEM_CACTVS_COMPLEXITY>
440

> <PUBCHEM_CACTVS_HBOND_ACCEPTOR>
6

> <PUBCHEM_CACTVS_HBOND_DONOR>
0

> <PUBCHEM_CACTVS_ROTATABLE_BOND>
5

> <PUBCHEM_CACTVS_SUBSKEYS>
AAADceB7oABAAAAAAAAAAAAAAAAAASAAAAA8WIAAAAAAAFgB/AAAHgQAAAAADADh2wYzsdcIFAikAiJiZACD0KlhCLhJmDg4RJiKaKLg2dGXJAxogAL4yCcQgMAOAAAAAAAAAAAAAAAAAAAAAAAAAAAAAA==

> <PUBCHEM_IUPAC_OPENEYE_NAME>
6-benzyl-N,N-dimethyl-2-(morpholinomethyl)thieno[2,3-d]pyrimidin-4-amine

> <PUBCHEM_IUPAC_CAS_NAME>
N,N-dimethyl-2-(4-morpholinylmethyl)-6-(phenylmethyl)-4-thieno[2,3-d]pyrimidinamine

> <PUBCHEM_IUPAC_NAME_MARKUP>
6-benzyl-<I>N</I>,<I>N</I>-dimethyl-2-(morpholin-4-ylmethyl)thieno[2,3-d]pyrimidin-4-amine

> <PUBCHEM_IUPAC_NAME>
6-benzyl-N,N-dimethyl-2-(morpholin-4-ylmethyl)thieno[2,3-d]pyrimidin-4-amine

> <PUBCHEM_IUPAC_SYSTEMATIC_NAME>
N,N-dimethyl-2-(morpholin-4-ylmethyl)-6-(phenylmethyl)thieno[2,3-d]pyrimidin-4-amine

> <PUBCHEM_IUPAC_TRADITIONAL_NAME>
[6-benzyl-2-(morpholinomethyl)thieno[2,3-d]pyrimidin-4-yl]-dimethyl-amine

> <PUBCHEM_IUPAC_INCHI>
InChI=1S/C20H24N4OS/c1-23(2)19-17-13-16(12-15-6-4-3-5-7-15)26-20(17)22-18(21-19)14-24-8-10-25-11-9-24/h3-7,13H,8-12,14H2,1-2H3

> <PUBCHEM_IUPAC_INCHIKEY>
NDCADSRRPHANPO-UHFFFAOYSA-N

> <PUBCHEM_XLOGP3_AA>
3.5

> <PUBCHEM_EXACT_MASS>
368.16708258

> <PUBCHEM_MOLECULAR_FORMULA>
C20H24N4OS

> <PUBCHEM_MOLECULAR_WEIGHT>
368.5

> <PUBCHEM_OPENEYE_CAN_SMILES>
CN(C)C1=C2C=C(SC2=NC(=N1)CN3CCOCC3)CC4=CC=CC=C4

> <PUBCHEM_OPENEYE_ISO_SMILES>
CN(C)C1=C2C=C(SC2=NC(=N1)CN3CCOCC3)CC4=CC=CC=C4

> <PUBCHEM_CACTVS_TPSA>
69.7

> <PUBCHEM_MONOISOTOPIC_WEIGHT>
368.16708258

> <PUBCHEM_TOTAL_CHARGE>
0

> <PUBCHEM_HEAVY_ATOM_COUNT>
26

> <PUBCHEM_ATOM_DEF_STEREO_COUNT>
0

> <PUBCHEM_ATOM_UDEF_STEREO_COUNT>
0

> <PUBCHEM_BOND_DEF_STEREO_COUNT>
0

> <PUBCHEM_BOND_UDEF_STEREO_COUNT>
0

> <PUBCHEM_ISOTOPIC_ATOM_COUNT>
0

> <PUBCHEM_COMPONENT_COUNT>
1

> <PUBCHEM_CACTVS_TAUTO_COUNT>
-1

> <PUBCHEM_COORDINATE_TYPE>
1
5
255

> <PUBCHEM_BONDANNOTATIONS>
1  15  8
1  16  8
13  14  8
13  15  8
13  17  8
16  17  8
19  22  8
19  23  8
22  24  8
23  25  8
24  26  8
25  26  8
4  12  8
4  14  8
5  12  8
5  15  8

$$$$
