15115512
  -OEChem-09292322142D

 52 54  0     1  0  0  0  0  0999 V2000
   11.2135   -2.6092    0.0000 O   0  0  0  0  0  0  0  0  0  0  0  0
    7.7331    0.4254    0.0000 N   0  0  3  0  0  0  0  0  0  0  0  0
    2.5369   -1.5746    0.0000 N   0  0  0  0  0  0  0  0  0  0  0  0
    8.5991   -0.0746    0.0000 C   0  0  3  0  0  0  0  0  0  0  0  0
    8.5991   -1.0746    0.0000 C   0  0  0  0  0  0  0  0  0  0  0  0
    9.4651    0.4254    0.0000 C   0  0  0  0  0  0  0  0  0  0  0  0
    9.4651   -1.5746    0.0000 C   0  0  0  0  0  0  0  0  0  0  0  0
   10.3312   -0.0746    0.0000 C   0  0  0  0  0  0  0  0  0  0  0  0
   10.3312   -1.0746    0.0000 C   0  0  0  0  0  0  0  0  0  0  0  0
    6.8671   -0.0746    0.0000 C   0  0  0  0  0  0  0  0  0  0  0  0
    7.7331    1.4254    0.0000 C   0  0  0  0  0  0  0  0  0  0  0  0
    6.0010    0.4254    0.0000 C   0  0  0  0  0  0  0  0  0  0  0  0
    6.8671    1.9254    0.0000 C   0  0  0  0  0  0  0  0  0  0  0  0
   11.2251    0.4601    0.0000 C   0  0  0  0  0  0  0  0  0  0  0  0
   11.2251   -1.6093    0.0000 C   0  0  0  0  0  0  0  0  0  0  0  0
   12.1312   -0.0538    0.0000 C   0  0  0  0  0  0  0  0  0  0  0  0
   12.1312   -1.0954    0.0000 C   0  0  0  0  0  0  0  0  0  0  0  0
    5.1350   -0.0746    0.0000 C   0  0  0  0  0  0  0  0  0  0  0  0
    6.8671    2.9254    0.0000 C   0  0  0  0  0  0  0  0  0  0  0  0
    4.2690    0.4254    0.0000 C   0  0  0  0  0  0  0  0  0  0  0  0
    5.1350   -1.0746    0.0000 C   0  0  0  0  0  0  0  0  0  0  0  0
    3.4030   -0.0746    0.0000 C   0  0  0  0  0  0  0  0  0  0  0  0
    4.2690   -1.5746    0.0000 C   0  0  0  0  0  0  0  0  0  0  0  0
    3.4030   -1.0746    0.0000 C   0  0  0  0  0  0  0  0  0  0  0  0
    8.5991    0.5454    0.0000 H   0  0  0  0  0  0  0  0  0  0  0  0
    7.9885   -0.9669    0.0000 H   0  0  0  0  0  0  0  0  0  0  0  0
    8.3871   -1.6572    0.0000 H   0  0  0  0  0  0  0  0  0  0  0  0
    9.8637    0.9003    0.0000 H   0  0  0  0  0  0  0  0  0  0  0  0
    9.0666    0.9003    0.0000 H   0  0  0  0  0  0  0  0  0  0  0  0
    9.0666   -2.0496    0.0000 H   0  0  0  0  0  0  0  0  0  0  0  0
    9.8637   -2.0496    0.0000 H   0  0  0  0  0  0  0  0  0  0  0  0
    6.4685   -0.5496    0.0000 H   0  0  0  0  0  0  0  0  0  0  0  0
    7.2656   -0.5496    0.0000 H   0  0  0  0  0  0  0  0  0  0  0  0
    8.3437    1.3177    0.0000 H   0  0  0  0  0  0  0  0  0  0  0  0
    7.9451    2.0080    0.0000 H   0  0  0  0  0  0  0  0  0  0  0  0
    6.3996    0.9003    0.0000 H   0  0  0  0  0  0  0  0  0  0  0  0
    5.6025    0.9003    0.0000 H   0  0  0  0  0  0  0  0  0  0  0  0
    6.2565    2.0330    0.0000 H   0  0  0  0  0  0  0  0  0  0  0  0
    6.6550    1.3428    0.0000 H   0  0  0  0  0  0  0  0  0  0  0  0
   11.2179    1.0800    0.0000 H   0  0  0  0  0  0  0  0  0  0  0  0
   12.6669    0.2583    0.0000 H   0  0  0  0  0  0  0  0  0  0  0  0
   12.6669   -1.4075    0.0000 H   0  0  0  0  0  0  0  0  0  0  0  0
    7.4871    2.9254    0.0000 H   0  0  0  0  0  0  0  0  0  0  0  0
    6.8671    3.5454    0.0000 H   0  0  0  0  0  0  0  0  0  0  0  0
    6.2471    2.9254    0.0000 H   0  0  0  0  0  0  0  0  0  0  0  0
   11.7469   -2.9254    0.0000 H   0  0  0  0  0  0  0  0  0  0  0  0
    4.2690    1.0454    0.0000 H   0  0  0  0  0  0  0  0  0  0  0  0
    5.6720   -1.3846    0.0000 H   0  0  0  0  0  0  0  0  0  0  0  0
    2.8660    0.2354    0.0000 H   0  0  0  0  0  0  0  0  0  0  0  0
    4.2690   -2.1946    0.0000 H   0  0  0  0  0  0  0  0  0  0  0  0
    2.0000   -1.2646    0.0000 H   0  0  0  0  0  0  0  0  0  0  0  0
    2.5369   -2.1946    0.0000 H   0  0  0  0  0  0  0  0  0  0  0  0
  1 15  1  0  0  0  0
  1 46  1  0  0  0  0
  2  4  1  0  0  0  0
  2 10  1  0  0  0  0
  2 11  1  0  0  0  0
  3 24  1  0  0  0  0
  3 51  1  0  0  0  0
  3 52  1  0  0  0  0
  4  5  1  0  0  0  0
  4  6  1  0  0  0  0
  4 25  1  0  0  0  0
  5  7  1  0  0  0  0
  5 26  1  0  0  0  0
  5 27  1  0  0  0  0
  6  8  1  0  0  0  0
  6 28  1  0  0  0  0
  6 29  1  0  0  0  0
  7  9  1  0  0  0  0
  7 30  1  0  0  0  0
  7 31  1  0  0  0  0
  8  9  2  0  0  0  0
  8 14  1  0  0  0  0
  9 15  1  0  0  0  0
 10 12  1  0  0  0  0
 10 32  1  0  0  0  0
 10 33  1  0  0  0  0
 11 13  1  0  0  0  0
 11 34  1  0  0  0  0
 11 35  1  0  0  0  0
 12 18  1  0  0  0  0
 12 36  1  0  0  0  0
 12 37  1  0  0  0  0
 13 19  1  0  0  0  0
 13 38  1  0  0  0  0
 13 39  1  0  0  0  0
 14 16  2  0  0  0  0
 14 40  1  0  0  0  0
 15 17  2  0  0  0  0
 16 17  1  0  0  0  0
 16 41  1  0  0  0  0
 17 42  1  0  0  0  0
 18 20  2  0  0  0  0
 18 21  1  0  0  0  0
 19 43  1  0  0  0  0
 19 44  1  0  0  0  0
 19 45  1  0  0  0  0
 20 22  1  0  0  0  0
 20 47  1  0  0  0  0
 21 23  2  0  0  0  0
 21 48  1  0  0  0  0
 22 24  2  0  0  0  0
 22 49  1  0  0  0  0
 23 24  1  0  0  0  0
 23 50  1  0  0  0  0
M  END
> <PUBCHEM_COMPOUND_CID>
15115512

> <PUBCHEM_COMPOUND_CANONICALIZED>
1

> <PUBCHEM_CACTVS_COMPLEXITY>
367

> <PUBCHEM_CACTVS_HBOND_ACCEPTOR>
3

> <PUBCHEM_CACTVS_HBOND_DONOR>
2

> <PUBCHEM_CACTVS_ROTATABLE_BOND>
6

> <PUBCHEM_CACTVS_SUBSKEYS>
AAADceB7IAAAAAAAAAAAAAAAAAAAAAAAAAAwYMAAAAAAAADBQAAAHgAQCAAADCzBmAQyxoNAAgCAAiRCQACCAAAgIgAIiAAObIgIJiKCkZOEcABk0BGI2AeQ0LMOiAABAAAYAAAQAAKAADAAAAAAAAAAAA==

> <PUBCHEM_IUPAC_OPENEYE_NAME>
2-[2-(4-aminophenyl)ethyl-propyl-amino]tetralin-5-ol

> <PUBCHEM_IUPAC_CAS_NAME>
6-[2-(4-aminophenyl)ethyl-propylamino]-5,6,7,8-tetrahydronaphthalen-1-ol

> <PUBCHEM_IUPAC_NAME_MARKUP>
6-[2-(4-aminophenyl)ethyl-propylamino]-5,6,7,8-tetrahydronaphthalen-1-ol

> <PUBCHEM_IUPAC_NAME>
6-[2-(4-aminophenyl)ethyl-propylamino]-5,6,7,8-tetrahydronaphthalen-1-ol

> <PUBCHEM_IUPAC_SYSTEMATIC_NAME>
6-[2-(4-aminophenyl)ethyl-propyl-amino]-5,6,7,8-tetrahydronaphthalen-1-ol

> <PUBCHEM_IUPAC_TRADITIONAL_NAME>
2-[2-(4-aminophenyl)ethyl-propyl-amino]tetralin-5-ol

> <PUBCHEM_IUPAC_INCHI>
InChI=1S/C21H28N2O/c1-2-13-23(14-12-16-6-8-18(22)9-7-16)19-10-11-20-17(15-19)4-3-5-21(20)24/h3-9,19,24H,2,10-15,22H2,1H3

> <PUBCHEM_IUPAC_INCHIKEY>
SPMVURQMVHUPOT-UHFFFAOYSA-N

> <PUBCHEM_XLOGP3_AA>
4.5

> <PUBCHEM_EXACT_MASS>
324.220163521

> <PUBCHEM_MOLECULAR_FORMULA>
C21H28N2O

> <PUBCHEM_MOLECULAR_WEIGHT>
324.5

> <PUBCHEM_OPENEYE_CAN_SMILES>
CCCN(CCC1=CC=C(C=C1)N)C2CCC3=C(C2)C=CC=C3O

> <PUBCHEM_OPENEYE_ISO_SMILES>
CCCN(CCC1=CC=C(C=C1)N)C2CCC3=C(C2)C=CC=C3O

> <PUBCHEM_CACTVS_TPSA>
49.5

> <PUBCHEM_MONOISOTOPIC_WEIGHT>
324.220163521

> <PUBCHEM_TOTAL_CHARGE>
0

> <PUBCHEM_HEAVY_ATOM_COUNT>
24

> <PUBCHEM_ATOM_DEF_STEREO_COUNT>
0

> <PUBCHEM_ATOM_UDEF_STEREO_COUNT>
1

> <PUBCHEM_BOND_DEF_STEREO_COUNT>
0

> <PUBCHEM_BOND_UDEF_STEREO_COUNT>
0

> <PUBCHEM_ISOTOPIC_ATOM_COUNT>
0

> <PUBCHEM_COMPONENT_COUNT>
1

> <PUBCHEM_CACTVS_TAUTO_COUNT>
-1

> <PUBCHEM_COORDINATE_TYPE>
1
5
255

> <PUBCHEM_BONDANNOTATIONS>
14  16  8
15  17  8
16  17  8
18  20  8
18  21  8
4  2  3
20  22  8
21  23  8
22  24  8
23  24  8
8  14  8
8  9  8
9  15  8

$$$$
