11512263
  -OEChem-09292322242D

 71 74  0     0  0  0  0  0  0999 V2000
    2.0000   -5.2238    0.0000 Cl  0  0  0  0  0  0  0  0  0  0  0  0
    2.0000   -7.2238    0.0000 Cl  0  0  0  0  0  0  0  0  0  0  0  0
    5.4641    3.7762    0.0000 O   0  0  0  0  0  0  0  0  0  0  0  0
   12.6637    6.3103    0.0000 O   0  0  0  0  0  0  0  0  0  0  0  0
    3.7320   -2.2238    0.0000 N   0  0  0  0  0  0  0  0  0  0  0  0
    3.7320   -4.2238    0.0000 N   0  0  0  0  0  0  0  0  0  0  0  0
    6.3301    2.2762    0.0000 N   0  0  0  0  0  0  0  0  0  0  0  0
    8.2788    4.9786    0.0000 N   0  0  0  0  0  0  0  0  0  0  0  0
    8.1097    3.3694    0.0000 N   0  0  0  0  0  0  0  0  0  0  0  0
    8.7788    4.1126    0.0000 N   0  0  0  0  0  0  0  0  0  0  0  0
    2.8660   -2.7238    0.0000 C   0  0  0  0  0  0  0  0  0  0  0  0
    4.5981   -2.7238    0.0000 C   0  0  0  0  0  0  0  0  0  0  0  0
    2.8660   -3.7238    0.0000 C   0  0  0  0  0  0  0  0  0  0  0  0
    4.5981   -3.7238    0.0000 C   0  0  0  0  0  0  0  0  0  0  0  0
    3.7320   -1.2238    0.0000 C   0  0  0  0  0  0  0  0  0  0  0  0
    4.5981   -0.7238    0.0000 C   0  0  0  0  0  0  0  0  0  0  0  0
    4.5981    0.2762    0.0000 C   0  0  0  0  0  0  0  0  0  0  0  0
    3.7320   -5.2238    0.0000 C   0  0  0  0  0  0  0  0  0  0  0  0
    5.4641    0.7762    0.0000 C   0  0  0  0  0  0  0  0  0  0  0  0
    5.4641    1.7762    0.0000 C   0  0  0  0  0  0  0  0  0  0  0  0
    2.8660   -5.7238    0.0000 C   0  0  0  0  0  0  0  0  0  0  0  0
    4.5981   -5.7238    0.0000 C   0  0  0  0  0  0  0  0  0  0  0  0
    2.8660   -6.7238    0.0000 C   0  0  0  0  0  0  0  0  0  0  0  0
    4.5981   -6.7238    0.0000 C   0  0  0  0  0  0  0  0  0  0  0  0
    3.7320   -7.2238    0.0000 C   0  0  0  0  0  0  0  0  0  0  0  0
    6.3301    3.2762    0.0000 C   0  0  0  0  0  0  0  0  0  0  0  0
    7.1962    3.7762    0.0000 C   0  0  0  0  0  0  0  0  0  0  0  0
    7.3007    4.7707    0.0000 C   0  0  0  0  0  0  0  0  0  0  0  0
    8.6856    5.8922    0.0000 C   0  0  0  0  0  0  0  0  0  0  0  0
    6.5575    5.4398    0.0000 C   0  0  0  0  0  0  0  0  0  0  0  0
    9.6801    5.9967    0.0000 C   0  0  0  0  0  0  0  0  0  0  0  0
   10.2679    5.1877    0.0000 C   0  0  0  0  0  0  0  0  0  0  0  0
   10.0868    6.9102    0.0000 C   0  0  0  0  0  0  0  0  0  0  0  0
   11.2624    5.2922    0.0000 C   0  0  0  0  0  0  0  0  0  0  0  0
   11.0813    7.0148    0.0000 C   0  0  0  0  0  0  0  0  0  0  0  0
   11.6691    6.2058    0.0000 C   0  0  0  0  0  0  0  0  0  0  0  0
   13.0704    7.2238    0.0000 C   0  0  0  0  0  0  0  0  0  0  0  0
    2.6540   -2.1412    0.0000 H   0  0  0  0  0  0  0  0  0  0  0  0
    2.2554   -2.8315    0.0000 H   0  0  0  0  0  0  0  0  0  0  0  0
    5.2087   -2.8315    0.0000 H   0  0  0  0  0  0  0  0  0  0  0  0
    4.8101   -2.1412    0.0000 H   0  0  0  0  0  0  0  0  0  0  0  0
    2.2554   -3.6162    0.0000 H   0  0  0  0  0  0  0  0  0  0  0  0
    2.6540   -4.3064    0.0000 H   0  0  0  0  0  0  0  0  0  0  0  0
    4.8101   -4.3064    0.0000 H   0  0  0  0  0  0  0  0  0  0  0  0
    5.2087   -3.6162    0.0000 H   0  0  0  0  0  0  0  0  0  0  0  0
    3.5200   -0.6412    0.0000 H   0  0  0  0  0  0  0  0  0  0  0  0
    3.1215   -1.3315    0.0000 H   0  0  0  0  0  0  0  0  0  0  0  0
    4.8101   -1.3064    0.0000 H   0  0  0  0  0  0  0  0  0  0  0  0
    5.2087   -0.6162    0.0000 H   0  0  0  0  0  0  0  0  0  0  0  0
    4.3860    0.8588    0.0000 H   0  0  0  0  0  0  0  0  0  0  0  0
    3.9875    0.1685    0.0000 H   0  0  0  0  0  0  0  0  0  0  0  0
    5.6762    0.1936    0.0000 H   0  0  0  0  0  0  0  0  0  0  0  0
    6.0747    0.8838    0.0000 H   0  0  0  0  0  0  0  0  0  0  0  0
    5.2520    2.3588    0.0000 H   0  0  0  0  0  0  0  0  0  0  0  0
    4.8535    1.6685    0.0000 H   0  0  0  0  0  0  0  0  0  0  0  0
    5.1350   -5.4138    0.0000 H   0  0  0  0  0  0  0  0  0  0  0  0
    5.1350   -7.0338    0.0000 H   0  0  0  0  0  0  0  0  0  0  0  0
    6.8671    1.9662    0.0000 H   0  0  0  0  0  0  0  0  0  0  0  0
    3.7320   -7.8438    0.0000 H   0  0  0  0  0  0  0  0  0  0  0  0
    8.7288    6.5106    0.0000 H   0  0  0  0  0  0  0  0  0  0  0  0
    8.0840    6.0422    0.0000 H   0  0  0  0  0  0  0  0  0  0  0  0
    6.9724    5.9006    0.0000 H   0  0  0  0  0  0  0  0  0  0  0  0
    6.0968    5.8547    0.0000 H   0  0  0  0  0  0  0  0  0  0  0  0
    6.1427    4.9791    0.0000 H   0  0  0  0  0  0  0  0  0  0  0  0
   10.0157    4.6213    0.0000 H   0  0  0  0  0  0  0  0  0  0  0  0
    9.7224    7.4118    0.0000 H   0  0  0  0  0  0  0  0  0  0  0  0
   11.6268    4.7906    0.0000 H   0  0  0  0  0  0  0  0  0  0  0  0
   11.3335    7.5812    0.0000 H   0  0  0  0  0  0  0  0  0  0  0  0
   13.6368    6.9716    0.0000 H   0  0  0  0  0  0  0  0  0  0  0  0
   13.3226    7.7902    0.0000 H   0  0  0  0  0  0  0  0  0  0  0  0
   12.5040    7.4760    0.0000 H   0  0  0  0  0  0  0  0  0  0  0  0
  1 21  1  0  0  0  0
  2 23  1  0  0  0  0
  3 26  2  0  0  0  0
  4 36  1  0  0  0  0
  4 37  1  0  0  0  0
  5 11  1  0  0  0  0
  5 12  1  0  0  0  0
  5 15  1  0  0  0  0
  6 13  1  0  0  0  0
  6 14  1  0  0  0  0
  6 18  1  0  0  0  0
  7 20  1  0  0  0  0
  7 26  1  0  0  0  0
  7 58  1  0  0  0  0
  8 10  1  0  0  0  0
  8 28  1  0  0  0  0
  8 29  1  0  0  0  0
  9 10  2  0  0  0  0
  9 27  1  0  0  0  0
 11 13  1  0  0  0  0
 11 38  1  0  0  0  0
 11 39  1  0  0  0  0
 12 14  1  0  0  0  0
 12 40  1  0  0  0  0
 12 41  1  0  0  0  0
 13 42  1  0  0  0  0
 13 43  1  0  0  0  0
 14 44  1  0  0  0  0
 14 45  1  0  0  0  0
 15 16  1  0  0  0  0
 15 46  1  0  0  0  0
 15 47  1  0  0  0  0
 16 17  1  0  0  0  0
 16 48  1  0  0  0  0
 16 49  1  0  0  0  0
 17 19  1  0  0  0  0
 17 50  1  0  0  0  0
 17 51  1  0  0  0  0
 18 21  2  0  0  0  0
 18 22  1  0  0  0  0
 19 20  1  0  0  0  0
 19 52  1  0  0  0  0
 19 53  1  0  0  0  0
 20 54  1  0  0  0  0
 20 55  1  0  0  0  0
 21 23  1  0  0  0  0
 22 24  2  0  0  0  0
 22 56  1  0  0  0  0
 23 25  2  0  0  0  0
 24 25  1  0  0  0  0
 24 57  1  0  0  0  0
 25 59  1  0  0  0  0
 26 27  1  0  0  0  0
 27 28  2  0  0  0  0
 28 30  1  0  0  0  0
 29 31  1  0  0  0  0
 29 60  1  0  0  0  0
 29 61  1  0  0  0  0
 30 62  1  0  0  0  0
 30 63  1  0  0  0  0
 30 64  1  0  0  0  0
 31 32  2  0  0  0  0
 31 33  1  0  0  0  0
 32 34  1  0  0  0  0
 32 65  1  0  0  0  0
 33 35  2  0  0  0  0
 33 66  1  0  0  0  0
 34 36  2  0  0  0  0
 34 67  1  0  0  0  0
 35 36  1  0  0  0  0
 35 68  1  0  0  0  0
 37 69  1  0  0  0  0
 37 70  1  0  0  0  0
 37 71  1  0  0  0  0
M  END
> <PUBCHEM_COMPOUND_CID>
11512263

> <PUBCHEM_COMPOUND_CANONICALIZED>
1

> <PUBCHEM_CACTVS_COMPLEXITY>
690

> <PUBCHEM_CACTVS_HBOND_ACCEPTOR>
6

> <PUBCHEM_CACTVS_HBOND_DONOR>
1

> <PUBCHEM_CACTVS_ROTATABLE_BOND>
11

> <PUBCHEM_CACTVS_SUBSKEYS>
AAADcfB7sAAGAAAAAAAAAAAAAAAAAWAAAAA8YIAAAAAAAAAB0AAAHgIYAAAADA7BniYyxpPIBACqAyVyVACCDAQntwAY2sG+fsgMZjrF85vUMahk1hHI6UeQ0AIOIAAAAAIAABRAAAAABAAAKAAAAAAAAA==

> <PUBCHEM_IUPAC_OPENEYE_NAME>
N-[5-[4-(2,3-dichlorophenyl)piperazin-1-yl]pentyl]-1-[(4-methoxyphenyl)methyl]-5-methyl-triazole-4-carboxamide

> <PUBCHEM_IUPAC_CAS_NAME>
N-[5-[4-(2,3-dichlorophenyl)-1-piperazinyl]pentyl]-1-[(4-methoxyphenyl)methyl]-5-methyl-4-triazolecarboxamide

> <PUBCHEM_IUPAC_NAME_MARKUP>
<I>N</I>-[5-[4-(2,3-dichlorophenyl)piperazin-1-yl]pentyl]-1-[(4-methoxyphenyl)methyl]-5-methyltriazole-4-carboxamide

> <PUBCHEM_IUPAC_NAME>
N-[5-[4-(2,3-dichlorophenyl)piperazin-1-yl]pentyl]-1-[(4-methoxyphenyl)methyl]-5-methyltriazole-4-carboxamide

> <PUBCHEM_IUPAC_SYSTEMATIC_NAME>
N-[5-[4-[2,3-bis(chloranyl)phenyl]piperazin-1-yl]pentyl]-1-[(4-methoxyphenyl)methyl]-5-methyl-1,2,3-triazole-4-carboxamide

> <PUBCHEM_IUPAC_TRADITIONAL_NAME>
N-[5-[4-(2,3-dichlorophenyl)piperazino]pentyl]-5-methyl-1-p-anisyl-triazole-4-carboxamide

> <PUBCHEM_IUPAC_INCHI>
InChI=1S/C27H34Cl2N6O2/c1-20-26(31-32-35(20)19-21-9-11-22(37-2)12-10-21)27(36)30-13-4-3-5-14-33-15-17-34(18-16-33)24-8-6-7-23(28)25(24)29/h6-12H,3-5,13-19H2,1-2H3,(H,30,36)

> <PUBCHEM_IUPAC_INCHIKEY>
MWLMSEXRHBMQDW-UHFFFAOYSA-N

> <PUBCHEM_XLOGP3_AA>
5.2

> <PUBCHEM_EXACT_MASS>
544.2120297

> <PUBCHEM_MOLECULAR_FORMULA>
C27H34Cl2N6O2

> <PUBCHEM_MOLECULAR_WEIGHT>
545.5

> <PUBCHEM_OPENEYE_CAN_SMILES>
CC1=C(N=NN1CC2=CC=C(C=C2)OC)C(=O)NCCCCCN3CCN(CC3)C4=C(C(=CC=C4)Cl)Cl

> <PUBCHEM_OPENEYE_ISO_SMILES>
CC1=C(N=NN1CC2=CC=C(C=C2)OC)C(=O)NCCCCCN3CCN(CC3)C4=C(C(=CC=C4)Cl)Cl

> <PUBCHEM_CACTVS_TPSA>
75.5

> <PUBCHEM_MONOISOTOPIC_WEIGHT>
544.2120297

> <PUBCHEM_TOTAL_CHARGE>
0

> <PUBCHEM_HEAVY_ATOM_COUNT>
37

> <PUBCHEM_ATOM_DEF_STEREO_COUNT>
0

> <PUBCHEM_ATOM_UDEF_STEREO_COUNT>
0

> <PUBCHEM_BOND_DEF_STEREO_COUNT>
0

> <PUBCHEM_BOND_UDEF_STEREO_COUNT>
0

> <PUBCHEM_ISOTOPIC_ATOM_COUNT>
0

> <PUBCHEM_COMPONENT_COUNT>
1

> <PUBCHEM_CACTVS_TAUTO_COUNT>
-1

> <PUBCHEM_COORDINATE_TYPE>
1
5
255

> <PUBCHEM_BONDANNOTATIONS>
18  21  8
18  22  8
21  23  8
22  24  8
23  25  8
24  25  8
27  28  8
31  32  8
31  33  8
32  34  8
33  35  8
34  36  8
35  36  8
8  10  8
8  28  8
9  10  8
9  27  8

$$$$
