71653289
  -OEChem-09292322332D

 52 54  0     0  0  0  0  0  0999 V2000
    7.1962    1.7306    0.0000 S   0  0  0  0  0  0  0  0  0  0  0  0
    8.1962    1.7306    0.0000 O   0  0  0  0  0  0  0  0  0  0  0  0
    6.1962    1.7306    0.0000 O   0  0  0  0  0  0  0  0  0  0  0  0
    3.7320   -2.2694    0.0000 N   0  0  0  0  0  0  0  0  0  0  0  0
    7.1962    2.7306    0.0000 C   0  0  0  0  0  0  0  0  0  0  0  0
    8.0052    3.3184    0.0000 C   0  0  0  0  0  0  0  0  0  0  0  0
    6.3871    3.3184    0.0000 C   0  0  0  0  0  0  0  0  0  0  0  0
    5.4641   -1.2694    0.0000 C   0  0  0  0  0  0  0  0  0  0  0  0
    7.6962    4.2694    0.0000 C   0  0  0  0  0  0  0  0  0  0  0  0
    6.6962    4.2694    0.0000 C   0  0  0  0  0  0  0  0  0  0  0  0
    5.4641   -2.2694    0.0000 C   0  0  0  0  0  0  0  0  0  0  0  0
    4.5981   -0.7694    0.0000 C   0  0  0  0  0  0  0  0  0  0  0  0
    4.5981   -2.7694    0.0000 C   0  0  0  0  0  0  0  0  0  0  0  0
    3.7320   -1.2694    0.0000 C   0  0  0  0  0  0  0  0  0  0  0  0
    6.3301   -0.7694    0.0000 C   0  0  0  0  0  0  0  0  0  0  0  0
    7.1962    0.7306    0.0000 C   0  0  0  0  0  0  0  0  0  0  0  0
    6.3301    0.2306    0.0000 C   0  0  0  0  0  0  0  0  0  0  0  0
    2.8660   -2.7694    0.0000 C   0  0  0  0  0  0  0  0  0  0  0  0
    7.1962   -1.2694    0.0000 C   0  0  0  0  0  0  0  0  0  0  0  0
    8.0622    0.2306    0.0000 C   0  0  0  0  0  0  0  0  0  0  0  0
    2.8660   -3.7694    0.0000 C   0  0  0  0  0  0  0  0  0  0  0  0
    8.0622   -0.7694    0.0000 C   0  0  0  0  0  0  0  0  0  0  0  0
    2.0000   -4.2694    0.0000 C   0  0  0  0  0  0  0  0  0  0  0  0
    6.6437    2.4491    0.0000 H   0  0  0  0  0  0  0  0  0  0  0  0
    8.3152    2.7814    0.0000 H   0  0  0  0  0  0  0  0  0  0  0  0
    8.5716    3.5705    0.0000 H   0  0  0  0  0  0  0  0  0  0  0  0
    5.8207    3.5705    0.0000 H   0  0  0  0  0  0  0  0  0  0  0  0
    6.0771    2.7814    0.0000 H   0  0  0  0  0  0  0  0  0  0  0  0
    5.4641   -0.6494    0.0000 H   0  0  0  0  0  0  0  0  0  0  0  0
    8.3026    4.3983    0.0000 H   0  0  0  0  0  0  0  0  0  0  0  0
    7.6313    4.8860    0.0000 H   0  0  0  0  0  0  0  0  0  0  0  0
    6.7610    4.8860    0.0000 H   0  0  0  0  0  0  0  0  0  0  0  0
    6.0897    4.3983    0.0000 H   0  0  0  0  0  0  0  0  0  0  0  0
    5.6762   -2.8520    0.0000 H   0  0  0  0  0  0  0  0  0  0  0  0
    6.0747   -2.1618    0.0000 H   0  0  0  0  0  0  0  0  0  0  0  0
    4.9966   -0.2945    0.0000 H   0  0  0  0  0  0  0  0  0  0  0  0
    4.1996   -0.2945    0.0000 H   0  0  0  0  0  0  0  0  0  0  0  0
    4.1996   -3.2444    0.0000 H   0  0  0  0  0  0  0  0  0  0  0  0
    4.9966   -3.2444    0.0000 H   0  0  0  0  0  0  0  0  0  0  0  0
    3.5200   -0.6868    0.0000 H   0  0  0  0  0  0  0  0  0  0  0  0
    3.1215   -1.3771    0.0000 H   0  0  0  0  0  0  0  0  0  0  0  0
    5.7932    0.5406    0.0000 H   0  0  0  0  0  0  0  0  0  0  0  0
    2.6540   -2.1868    0.0000 H   0  0  0  0  0  0  0  0  0  0  0  0
    2.2554   -2.8771    0.0000 H   0  0  0  0  0  0  0  0  0  0  0  0
    7.1962   -1.8894    0.0000 H   0  0  0  0  0  0  0  0  0  0  0  0
    8.5991    0.5406    0.0000 H   0  0  0  0  0  0  0  0  0  0  0  0
    3.0781   -4.3520    0.0000 H   0  0  0  0  0  0  0  0  0  0  0  0
    3.4766   -3.6618    0.0000 H   0  0  0  0  0  0  0  0  0  0  0  0
    8.5991   -1.0794    0.0000 H   0  0  0  0  0  0  0  0  0  0  0  0
    1.6900   -3.7325    0.0000 H   0  0  0  0  0  0  0  0  0  0  0  0
    1.4631   -4.5794    0.0000 H   0  0  0  0  0  0  0  0  0  0  0  0
    2.3100   -4.8064    0.0000 H   0  0  0  0  0  0  0  0  0  0  0  0
  1  2  2  0  0  0  0
  1  3  2  0  0  0  0
  1  5  1  0  0  0  0
  1 16  1  0  0  0  0
  4 13  1  0  0  0  0
  4 14  1  0  0  0  0
  4 18  1  0  0  0  0
  5  6  1  0  0  0  0
  5  7  1  0  0  0  0
  5 24  1  0  0  0  0
  6  9  1  0  0  0  0
  6 25  1  0  0  0  0
  6 26  1  0  0  0  0
  7 10  1  0  0  0  0
  7 27  1  0  0  0  0
  7 28  1  0  0  0  0
  8 11  1  0  0  0  0
  8 12  1  0  0  0  0
  8 15  1  0  0  0  0
  8 29  1  0  0  0  0
  9 10  1  0  0  0  0
  9 30  1  0  0  0  0
  9 31  1  0  0  0  0
 10 32  1  0  0  0  0
 10 33  1  0  0  0  0
 11 13  1  0  0  0  0
 11 34  1  0  0  0  0
 11 35  1  0  0  0  0
 12 14  1  0  0  0  0
 12 36  1  0  0  0  0
 12 37  1  0  0  0  0
 13 38  1  0  0  0  0
 13 39  1  0  0  0  0
 14 40  1  0  0  0  0
 14 41  1  0  0  0  0
 15 17  2  0  0  0  0
 15 19  1  0  0  0  0
 16 17  1  0  0  0  0
 16 20  2  0  0  0  0
 17 42  1  0  0  0  0
 18 21  1  0  0  0  0
 18 43  1  0  0  0  0
 18 44  1  0  0  0  0
 19 22  2  0  0  0  0
 19 45  1  0  0  0  0
 20 22  1  0  0  0  0
 20 46  1  0  0  0  0
 21 23  1  0  0  0  0
 21 47  1  0  0  0  0
 21 48  1  0  0  0  0
 22 49  1  0  0  0  0
 23 50  1  0  0  0  0
 23 51  1  0  0  0  0
 23 52  1  0  0  0  0
M  END
> <PUBCHEM_COMPOUND_CID>
71653289

> <PUBCHEM_COMPOUND_CANONICALIZED>
1

> <PUBCHEM_CACTVS_COMPLEXITY>
456

> <PUBCHEM_CACTVS_HBOND_ACCEPTOR>
3

> <PUBCHEM_CACTVS_HBOND_DONOR>
0

> <PUBCHEM_CACTVS_ROTATABLE_BOND>
5

> <PUBCHEM_CACTVS_SUBSKEYS>
AAADceB6MABAAAAAAAAAAAAAAAAAAYAAAAA8QAAAAAAAAAABAAAAHAQAAAAADQDFWASyAYMAAAqAAiBCAHBCAAAgCBAIiBgIAIgIICKgkRCEIAAggACoiAcQgMAOgAAAgAAAAAAAAAEAAAAAAAAAAAAAAA==

> <PUBCHEM_IUPAC_OPENEYE_NAME>
4-(3-cyclopentylsulfonylphenyl)-1-propyl-piperidine

> <PUBCHEM_IUPAC_CAS_NAME>
4-(3-cyclopentylsulfonylphenyl)-1-propylpiperidine

> <PUBCHEM_IUPAC_NAME_MARKUP>
4-(3-cyclopentylsulfonylphenyl)-1-propylpiperidine

> <PUBCHEM_IUPAC_NAME>
4-(3-cyclopentylsulfonylphenyl)-1-propylpiperidine

> <PUBCHEM_IUPAC_SYSTEMATIC_NAME>
4-(3-cyclopentylsulfonylphenyl)-1-propyl-piperidine

> <PUBCHEM_IUPAC_TRADITIONAL_NAME>
4-(3-cyclopentylsulfonylphenyl)-1-propyl-piperidine

> <PUBCHEM_IUPAC_INCHI>
InChI=1S/C19H29NO2S/c1-2-12-20-13-10-16(11-14-20)17-6-5-9-19(15-17)23(21,22)18-7-3-4-8-18/h5-6,9,15-16,18H,2-4,7-8,10-14H2,1H3

> <PUBCHEM_IUPAC_INCHIKEY>
YICMRDZOCUCKAX-UHFFFAOYSA-N

> <PUBCHEM_XLOGP3_AA>
3.9

> <PUBCHEM_EXACT_MASS>
335.19190034

> <PUBCHEM_MOLECULAR_FORMULA>
C19H29NO2S

> <PUBCHEM_MOLECULAR_WEIGHT>
335.5

> <PUBCHEM_OPENEYE_CAN_SMILES>
CCCN1CCC(CC1)C2=CC(=CC=C2)S(=O)(=O)C3CCCC3

> <PUBCHEM_OPENEYE_ISO_SMILES>
CCCN1CCC(CC1)C2=CC(=CC=C2)S(=O)(=O)C3CCCC3

> <PUBCHEM_CACTVS_TPSA>
45.8

> <PUBCHEM_MONOISOTOPIC_WEIGHT>
335.19190034

> <PUBCHEM_TOTAL_CHARGE>
0

> <PUBCHEM_HEAVY_ATOM_COUNT>
23

> <PUBCHEM_ATOM_DEF_STEREO_COUNT>
0

> <PUBCHEM_ATOM_UDEF_STEREO_COUNT>
0

> <PUBCHEM_BOND_DEF_STEREO_COUNT>
0

> <PUBCHEM_BOND_UDEF_STEREO_COUNT>
0

> <PUBCHEM_ISOTOPIC_ATOM_COUNT>
0

> <PUBCHEM_COMPONENT_COUNT>
1

> <PUBCHEM_CACTVS_TAUTO_COUNT>
-1

> <PUBCHEM_COORDINATE_TYPE>
1
5
255

> <PUBCHEM_BONDANNOTATIONS>
15  17  8
15  19  8
16  17  8
16  20  8
19  22  8
20  22  8

$$$$
