11697676
  -OEChem-09292322312D

 62 66  0     0  0  0  0  0  0999 V2000
    7.2622   -1.4370    0.0000 O   0  0  0  0  0  0  0  0  0  0  0  0
    2.0000   -1.4129    0.0000 O   0  0  0  0  0  0  0  0  0  0  0  0
   11.5942   -0.9537    0.0000 N   0  0  0  0  0  0  0  0  0  0  0  0
   13.3301    0.0396    0.0000 N   0  0  0  0  0  0  0  0  0  0  0  0
    3.7320   -1.4129    0.0000 N   0  0  0  0  0  0  0  0  0  0  0  0
    5.4920   -1.4475    0.0000 N   0  0  0  0  0  0  0  0  0  0  0  0
   12.4583   -1.4571    0.0000 C   0  0  0  0  0  0  0  0  0  0  0  0
   11.5981    0.0463    0.0000 C   0  0  0  0  0  0  0  0  0  0  0  0
   13.3262   -0.9604    0.0000 C   0  0  0  0  0  0  0  0  0  0  0  0
   12.4660    0.5429    0.0000 C   0  0  0  0  0  0  0  0  0  0  0  0
   10.7263   -1.4504    0.0000 C   0  0  0  0  0  0  0  0  0  0  0  0
    9.8622   -0.9471    0.0000 C   0  0  0  0  0  0  0  0  0  0  0  0
   14.1980    0.5362    0.0000 C   0  0  0  0  0  0  0  0  0  0  0  0
    8.9942   -1.4437    0.0000 C   0  0  0  0  0  0  0  0  0  0  0  0
   15.0621    0.0329    0.0000 C   0  0  0  0  0  0  0  0  0  0  0  0
   14.2019    1.5362    0.0000 C   0  0  0  0  0  0  0  0  0  0  0  0
    8.1301   -0.9404    0.0000 C   0  0  0  0  0  0  0  0  0  0  0  0
   15.9301    0.5296    0.0000 C   0  0  0  0  0  0  0  0  0  0  0  0
   15.0421   -1.0085    0.0000 C   0  0  0  0  0  0  0  0  0  0  0  0
   15.0698    2.0329    0.0000 C   0  0  0  0  0  0  0  0  0  0  0  0
   15.9339    1.5296    0.0000 C   0  0  0  0  0  0  0  0  0  0  0  0
   16.8381    0.0192    0.0000 C   0  0  0  0  0  0  0  0  0  0  0  0
   15.9381   -1.5397    0.0000 C   0  0  0  0  0  0  0  0  0  0  0  0
   16.8421   -1.0224    0.0000 C   0  0  0  0  0  0  0  0  0  0  0  0
    4.5981    0.0871    0.0000 C   0  0  0  0  0  0  0  0  0  0  0  0
    3.7320    0.5871    0.0000 C   0  0  0  0  0  0  0  0  0  0  0  0
    6.3981   -0.9337    0.0000 C   0  0  0  0  0  0  0  0  0  0  0  0
    4.5981   -0.9129    0.0000 C   0  0  0  0  0  0  0  0  0  0  0  0
    2.8660    0.0871    0.0000 C   0  0  0  0  0  0  0  0  0  0  0  0
    5.4920    0.6218    0.0000 C   0  0  0  0  0  0  0  0  0  0  0  0
    6.3981    0.1079    0.0000 C   0  0  0  0  0  0  0  0  0  0  0  0
    2.8660   -0.9129    0.0000 C   0  0  0  0  0  0  0  0  0  0  0  0
   12.0579   -1.9305    0.0000 H   0  0  0  0  0  0  0  0  0  0  0  0
   12.8550   -1.9336    0.0000 H   0  0  0  0  0  0  0  0  0  0  0  0
   11.3882    0.6297    0.0000 H   0  0  0  0  0  0  0  0  0  0  0  0
   10.9871   -0.0590    0.0000 H   0  0  0  0  0  0  0  0  0  0  0  0
   13.5360   -1.5438    0.0000 H   0  0  0  0  0  0  0  0  0  0  0  0
   13.9372   -0.8551    0.0000 H   0  0  0  0  0  0  0  0  0  0  0  0
   12.8664    1.0163    0.0000 H   0  0  0  0  0  0  0  0  0  0  0  0
   12.0693    1.0194    0.0000 H   0  0  0  0  0  0  0  0  0  0  0  0
   10.3259   -1.9238    0.0000 H   0  0  0  0  0  0  0  0  0  0  0  0
   11.1229   -1.9269    0.0000 H   0  0  0  0  0  0  0  0  0  0  0  0
   10.2625   -0.4736    0.0000 H   0  0  0  0  0  0  0  0  0  0  0  0
    9.4655   -0.4706    0.0000 H   0  0  0  0  0  0  0  0  0  0  0  0
    8.5939   -1.9171    0.0000 H   0  0  0  0  0  0  0  0  0  0  0  0
    9.3909   -1.9202    0.0000 H   0  0  0  0  0  0  0  0  0  0  0  0
   13.6662    1.8483    0.0000 H   0  0  0  0  0  0  0  0  0  0  0  0
    8.5305   -0.4670    0.0000 H   0  0  0  0  0  0  0  0  0  0  0  0
    7.7334   -0.4639    0.0000 H   0  0  0  0  0  0  0  0  0  0  0  0
   14.5004   -1.3102    0.0000 H   0  0  0  0  0  0  0  0  0  0  0  0
   15.0722    2.6529    0.0000 H   0  0  0  0  0  0  0  0  0  0  0  0
   16.4721    1.8375    0.0000 H   0  0  0  0  0  0  0  0  0  0  0  0
   17.3726    0.3333    0.0000 H   0  0  0  0  0  0  0  0  0  0  0  0
   15.9333   -2.1597    0.0000 H   0  0  0  0  0  0  0  0  0  0  0  0
   17.3791   -1.3324    0.0000 H   0  0  0  0  0  0  0  0  0  0  0  0
    4.1306    1.0621    0.0000 H   0  0  0  0  0  0  0  0  0  0  0  0
    3.3335    1.0621    0.0000 H   0  0  0  0  0  0  0  0  0  0  0  0
    2.6540    0.6697    0.0000 H   0  0  0  0  0  0  0  0  0  0  0  0
    2.2554   -0.0206    0.0000 H   0  0  0  0  0  0  0  0  0  0  0  0
    5.4848    1.2417    0.0000 H   0  0  0  0  0  0  0  0  0  0  0  0
    6.9338    0.4200    0.0000 H   0  0  0  0  0  0  0  0  0  0  0  0
    3.7320   -2.0329    0.0000 H   0  0  0  0  0  0  0  0  0  0  0  0
  1 17  1  0  0  0  0
  1 27  1  0  0  0  0
  2 32  2  0  0  0  0
  3  7  1  0  0  0  0
  3  8  1  0  0  0  0
  3 11  1  0  0  0  0
  4  9  1  0  0  0  0
  4 10  1  0  0  0  0
  4 13  1  0  0  0  0
  5 28  1  0  0  0  0
  5 32  1  0  0  0  0
  5 62  1  0  0  0  0
  6 27  2  0  0  0  0
  6 28  1  0  0  0  0
  7  9  1  0  0  0  0
  7 33  1  0  0  0  0
  7 34  1  0  0  0  0
  8 10  1  0  0  0  0
  8 35  1  0  0  0  0
  8 36  1  0  0  0  0
  9 37  1  0  0  0  0
  9 38  1  0  0  0  0
 10 39  1  0  0  0  0
 10 40  1  0  0  0  0
 11 12  1  0  0  0  0
 11 41  1  0  0  0  0
 11 42  1  0  0  0  0
 12 14  1  0  0  0  0
 12 43  1  0  0  0  0
 12 44  1  0  0  0  0
 13 15  1  0  0  0  0
 13 16  2  0  0  0  0
 14 17  1  0  0  0  0
 14 45  1  0  0  0  0
 14 46  1  0  0  0  0
 15 18  1  0  0  0  0
 15 19  2  0  0  0  0
 16 20  1  0  0  0  0
 16 47  1  0  0  0  0
 17 48  1  0  0  0  0
 17 49  1  0  0  0  0
 18 21  1  0  0  0  0
 18 22  2  0  0  0  0
 19 23  1  0  0  0  0
 19 50  1  0  0  0  0
 20 21  2  0  0  0  0
 20 51  1  0  0  0  0
 21 52  1  0  0  0  0
 22 24  1  0  0  0  0
 22 53  1  0  0  0  0
 23 24  2  0  0  0  0
 23 54  1  0  0  0  0
 24 55  1  0  0  0  0
 25 26  1  0  0  0  0
 25 28  2  0  0  0  0
 25 30  1  0  0  0  0
 26 29  1  0  0  0  0
 26 56  1  0  0  0  0
 26 57  1  0  0  0  0
 27 31  1  0  0  0  0
 29 32  1  0  0  0  0
 29 58  1  0  0  0  0
 29 59  1  0  0  0  0
 30 31  2  0  0  0  0
 30 60  1  0  0  0  0
 31 61  1  0  0  0  0
M  END
> <PUBCHEM_COMPOUND_CID>
11697676

> <PUBCHEM_COMPOUND_CANONICALIZED>
1

> <PUBCHEM_CACTVS_COMPLEXITY>
609

> <PUBCHEM_CACTVS_HBOND_ACCEPTOR>
5

> <PUBCHEM_CACTVS_HBOND_DONOR>
1

> <PUBCHEM_CACTVS_ROTATABLE_BOND>
7

> <PUBCHEM_CACTVS_SUBSKEYS>
AAADceB7sAAAAAAAAAAAAAAAAAAAAAAAAAA8eLECAAAAAADx1AAAHgAQAAAADAjhmgYx9NPIFACoAidydACCiCkhIiAJmCE+bJiMZvLEuZueOCjs1RPI6Ce42aKOgAAAQAASAAAAAACAACQAAAAAAAAAAA==

> <PUBCHEM_IUPAC_OPENEYE_NAME>
7-[4-[4-(1-naphthyl)piperazin-1-yl]butoxy]-3,4-dihydro-1H-1,8-naphthyridin-2-one

> <PUBCHEM_IUPAC_CAS_NAME>
7-[4-[4-(1-naphthalenyl)-1-piperazinyl]butoxy]-3,4-dihydro-1H-1,8-naphthyridin-2-one

> <PUBCHEM_IUPAC_NAME_MARKUP>
7-[4-(4-naphthalen-1-ylpiperazin-1-yl)butoxy]-3,4-dihydro-1<I>H</I>-1,8-naphthyridin-2-one

> <PUBCHEM_IUPAC_NAME>
7-[4-(4-naphthalen-1-ylpiperazin-1-yl)butoxy]-3,4-dihydro-1H-1,8-naphthyridin-2-one

> <PUBCHEM_IUPAC_SYSTEMATIC_NAME>
7-[4-(4-naphthalen-1-ylpiperazin-1-yl)butoxy]-3,4-dihydro-1H-1,8-naphthyridin-2-one

> <PUBCHEM_IUPAC_TRADITIONAL_NAME>
7-[4-[4-(1-naphthyl)piperazino]butoxy]-3,4-dihydro-1H-1,8-naphthyridin-2-one

> <PUBCHEM_IUPAC_INCHI>
InChI=1S/C26H30N4O2/c31-24-12-10-21-11-13-25(28-26(21)27-24)32-19-4-3-14-29-15-17-30(18-16-29)23-9-5-7-20-6-1-2-8-22(20)23/h1-2,5-9,11,13H,3-4,10,12,14-19H2,(H,27,28,31)

> <PUBCHEM_IUPAC_INCHIKEY>
QGNOXTFZOLDODX-UHFFFAOYSA-N

> <PUBCHEM_XLOGP3_AA>
4.2

> <PUBCHEM_EXACT_MASS>
430.23687621

> <PUBCHEM_MOLECULAR_FORMULA>
C26H30N4O2

> <PUBCHEM_MOLECULAR_WEIGHT>
430.5

> <PUBCHEM_OPENEYE_CAN_SMILES>
C1CC(=O)NC2=C1C=CC(=N2)OCCCCN3CCN(CC3)C4=CC=CC5=CC=CC=C54

> <PUBCHEM_OPENEYE_ISO_SMILES>
C1CC(=O)NC2=C1C=CC(=N2)OCCCCN3CCN(CC3)C4=CC=CC5=CC=CC=C54

> <PUBCHEM_CACTVS_TPSA>
57.7

> <PUBCHEM_MONOISOTOPIC_WEIGHT>
430.23687621

> <PUBCHEM_TOTAL_CHARGE>
0

> <PUBCHEM_HEAVY_ATOM_COUNT>
32

> <PUBCHEM_ATOM_DEF_STEREO_COUNT>
0

> <PUBCHEM_ATOM_UDEF_STEREO_COUNT>
0

> <PUBCHEM_BOND_DEF_STEREO_COUNT>
0

> <PUBCHEM_BOND_UDEF_STEREO_COUNT>
0

> <PUBCHEM_ISOTOPIC_ATOM_COUNT>
0

> <PUBCHEM_COMPONENT_COUNT>
1

> <PUBCHEM_CACTVS_TAUTO_COUNT>
-1

> <PUBCHEM_COORDINATE_TYPE>
1
5
255

> <PUBCHEM_BONDANNOTATIONS>
13  15  8
13  16  8
15  18  8
15  19  8
16  20  8
18  21  8
18  22  8
19  23  8
20  21  8
22  24  8
23  24  8
25  28  8
25  30  8
27  31  8
30  31  8
6  27  8
6  28  8

$$$$
