25107648
  -OEChem-09292322232D

 72 76  0     0  0  0  0  0  0999 V2000
    6.3981   -0.5173    0.0000 O   0  0  0  0  0  0  0  0  0  0  0  0
   11.5942    0.4827    0.0000 N   0  0  0  0  0  0  0  0  0  0  0  0
   13.3263   -0.5173    0.0000 N   0  0  0  0  0  0  0  0  0  0  0  0
    5.5321    0.9827    0.0000 N   0  0  0  0  0  0  0  0  0  0  0  0
   11.5942   -0.5173    0.0000 C   0  0  0  0  0  0  0  0  0  0  0  0
   12.4603    0.9827    0.0000 C   0  0  0  0  0  0  0  0  0  0  0  0
   12.4603   -1.0173    0.0000 C   0  0  0  0  0  0  0  0  0  0  0  0
   13.3263    0.4827    0.0000 C   0  0  0  0  0  0  0  0  0  0  0  0
   10.7282    0.9827    0.0000 C   0  0  0  0  0  0  0  0  0  0  0  0
    9.8622    0.4827    0.0000 C   0  0  0  0  0  0  0  0  0  0  0  0
    8.9962    0.9827    0.0000 C   0  0  0  0  0  0  0  0  0  0  0  0
    8.1301    0.4827    0.0000 C   0  0  0  0  0  0  0  0  0  0  0  0
   14.1923   -1.0173    0.0000 C   0  0  0  0  0  0  0  0  0  0  0  0
    7.2641    0.9827    0.0000 C   0  0  0  0  0  0  0  0  0  0  0  0
    5.5321    1.9827    0.0000 C   0  0  0  0  0  0  0  0  0  0  0  0
    4.6660    0.4827    0.0000 C   0  0  0  0  0  0  0  0  0  0  0  0
    4.6660    2.4827    0.0000 C   0  0  0  0  0  0  0  0  0  0  0  0
    6.3981    0.4827    0.0000 C   0  0  0  0  0  0  0  0  0  0  0  0
    3.8000    0.9827    0.0000 C   0  0  0  0  0  0  0  0  0  0  0  0
    3.8000    1.9827    0.0000 C   0  0  0  0  0  0  0  0  0  0  0  0
   15.0583   -0.5173    0.0000 C   0  0  0  0  0  0  0  0  0  0  0  0
   14.1923   -2.0173    0.0000 C   0  0  0  0  0  0  0  0  0  0  0  0
   15.9244   -1.0173    0.0000 C   0  0  0  0  0  0  0  0  0  0  0  0
   15.0583    0.4827    0.0000 C   0  0  0  0  0  0  0  0  0  0  0  0
    2.9061    0.4480    0.0000 C   0  0  0  0  0  0  0  0  0  0  0  0
    2.9061    2.5173    0.0000 C   0  0  0  0  0  0  0  0  0  0  0  0
   15.0583   -2.5173    0.0000 C   0  0  0  0  0  0  0  0  0  0  0  0
   15.9244   -2.0173    0.0000 C   0  0  0  0  0  0  0  0  0  0  0  0
    2.0000    0.9619    0.0000 C   0  0  0  0  0  0  0  0  0  0  0  0
    2.0000    2.0035    0.0000 C   0  0  0  0  0  0  0  0  0  0  0  0
   14.1923    0.9827    0.0000 C   0  0  0  0  0  0  0  0  0  0  0  0
   15.9244    0.9827    0.0000 C   0  0  0  0  0  0  0  0  0  0  0  0
   14.1923    1.9827    0.0000 C   0  0  0  0  0  0  0  0  0  0  0  0
   15.9244    1.9827    0.0000 C   0  0  0  0  0  0  0  0  0  0  0  0
   15.0583    2.4827    0.0000 C   0  0  0  0  0  0  0  0  0  0  0  0
   10.9837   -0.4097    0.0000 H   0  0  0  0  0  0  0  0  0  0  0  0
   11.3822   -1.0999    0.0000 H   0  0  0  0  0  0  0  0  0  0  0  0
   12.8588    1.4576    0.0000 H   0  0  0  0  0  0  0  0  0  0  0  0
   12.0617    1.4576    0.0000 H   0  0  0  0  0  0  0  0  0  0  0  0
   12.0617   -1.4923    0.0000 H   0  0  0  0  0  0  0  0  0  0  0  0
   12.8588   -1.4923    0.0000 H   0  0  0  0  0  0  0  0  0  0  0  0
   13.9369    0.3750    0.0000 H   0  0  0  0  0  0  0  0  0  0  0  0
   13.5383    1.0653    0.0000 H   0  0  0  0  0  0  0  0  0  0  0  0
   11.1267    1.4576    0.0000 H   0  0  0  0  0  0  0  0  0  0  0  0
   10.3297    1.4576    0.0000 H   0  0  0  0  0  0  0  0  0  0  0  0
    9.4637    0.0077    0.0000 H   0  0  0  0  0  0  0  0  0  0  0  0
   10.2607    0.0077    0.0000 H   0  0  0  0  0  0  0  0  0  0  0  0
    9.3947    1.4576    0.0000 H   0  0  0  0  0  0  0  0  0  0  0  0
    8.5976    1.4576    0.0000 H   0  0  0  0  0  0  0  0  0  0  0  0
    7.7316    0.0077    0.0000 H   0  0  0  0  0  0  0  0  0  0  0  0
    8.5287    0.0077    0.0000 H   0  0  0  0  0  0  0  0  0  0  0  0
    7.6626    1.4576    0.0000 H   0  0  0  0  0  0  0  0  0  0  0  0
    6.8656    1.4576    0.0000 H   0  0  0  0  0  0  0  0  0  0  0  0
    6.1426    1.8750    0.0000 H   0  0  0  0  0  0  0  0  0  0  0  0
    5.7441    2.5653    0.0000 H   0  0  0  0  0  0  0  0  0  0  0  0
    4.2675    0.0077    0.0000 H   0  0  0  0  0  0  0  0  0  0  0  0
    5.0646    0.0077    0.0000 H   0  0  0  0  0  0  0  0  0  0  0  0
    5.0646    2.9576    0.0000 H   0  0  0  0  0  0  0  0  0  0  0  0
    4.2675    2.9576    0.0000 H   0  0  0  0  0  0  0  0  0  0  0  0
   13.6554   -2.3273    0.0000 H   0  0  0  0  0  0  0  0  0  0  0  0
    2.9132   -0.1720    0.0000 H   0  0  0  0  0  0  0  0  0  0  0  0
   16.4613   -0.7073    0.0000 H   0  0  0  0  0  0  0  0  0  0  0  0
    2.9132    3.1373    0.0000 H   0  0  0  0  0  0  0  0  0  0  0  0
   15.0583   -3.1373    0.0000 H   0  0  0  0  0  0  0  0  0  0  0  0
   16.4613   -2.3273    0.0000 H   0  0  0  0  0  0  0  0  0  0  0  0
    1.4643    0.6498    0.0000 H   0  0  0  0  0  0  0  0  0  0  0  0
    1.4643    2.3156    0.0000 H   0  0  0  0  0  0  0  0  0  0  0  0
   13.6554    0.6727    0.0000 H   0  0  0  0  0  0  0  0  0  0  0  0
   16.4613    0.6727    0.0000 H   0  0  0  0  0  0  0  0  0  0  0  0
   13.6554    2.2927    0.0000 H   0  0  0  0  0  0  0  0  0  0  0  0
   16.4613    2.2927    0.0000 H   0  0  0  0  0  0  0  0  0  0  0  0
   15.0583    3.1027    0.0000 H   0  0  0  0  0  0  0  0  0  0  0  0
  1 18  2  0  0  0  0
  2  5  1  0  0  0  0
  2  6  1  0  0  0  0
  2  9  1  0  0  0  0
  3  7  1  0  0  0  0
  3  8  1  0  0  0  0
  3 13  1  0  0  0  0
  4 15  1  0  0  0  0
  4 16  1  0  0  0  0
  4 18  1  0  0  0  0
  5  7  1  0  0  0  0
  5 36  1  0  0  0  0
  5 37  1  0  0  0  0
  6  8  1  0  0  0  0
  6 38  1  0  0  0  0
  6 39  1  0  0  0  0
  7 40  1  0  0  0  0
  7 41  1  0  0  0  0
  8 42  1  0  0  0  0
  8 43  1  0  0  0  0
  9 10  1  0  0  0  0
  9 44  1  0  0  0  0
  9 45  1  0  0  0  0
 10 11  1  0  0  0  0
 10 46  1  0  0  0  0
 10 47  1  0  0  0  0
 11 12  1  0  0  0  0
 11 48  1  0  0  0  0
 11 49  1  0  0  0  0
 12 14  1  0  0  0  0
 12 50  1  0  0  0  0
 12 51  1  0  0  0  0
 13 21  1  0  0  0  0
 13 22  2  0  0  0  0
 14 18  1  0  0  0  0
 14 52  1  0  0  0  0
 14 53  1  0  0  0  0
 15 17  1  0  0  0  0
 15 54  1  0  0  0  0
 15 55  1  0  0  0  0
 16 19  1  0  0  0  0
 16 56  1  0  0  0  0
 16 57  1  0  0  0  0
 17 20  1  0  0  0  0
 17 58  1  0  0  0  0
 17 59  1  0  0  0  0
 19 20  1  0  0  0  0
 19 25  2  0  0  0  0
 20 26  2  0  0  0  0
 21 23  2  0  0  0  0
 21 24  1  0  0  0  0
 22 27  1  0  0  0  0
 22 60  1  0  0  0  0
 23 28  1  0  0  0  0
 23 62  1  0  0  0  0
 24 31  2  0  0  0  0
 24 32  1  0  0  0  0
 25 29  1  0  0  0  0
 25 61  1  0  0  0  0
 26 30  1  0  0  0  0
 26 63  1  0  0  0  0
 27 28  2  0  0  0  0
 27 64  1  0  0  0  0
 28 65  1  0  0  0  0
 29 30  2  0  0  0  0
 29 66  1  0  0  0  0
 30 67  1  0  0  0  0
 31 33  1  0  0  0  0
 31 68  1  0  0  0  0
 32 34  2  0  0  0  0
 32 69  1  0  0  0  0
 33 35  2  0  0  0  0
 33 70  1  0  0  0  0
 34 35  1  0  0  0  0
 34 71  1  0  0  0  0
 35 72  1  0  0  0  0
M  END
> <PUBCHEM_COMPOUND_CID>
25107648

> <PUBCHEM_COMPOUND_CANONICALIZED>
1

> <PUBCHEM_CACTVS_COMPLEXITY>
639

> <PUBCHEM_CACTVS_HBOND_ACCEPTOR>
3

> <PUBCHEM_CACTVS_HBOND_DONOR>
0

> <PUBCHEM_CACTVS_ROTATABLE_BOND>
8

> <PUBCHEM_CACTVS_SUBSKEYS>
AAADcfB7IAAAAAAAAAAAAAAAAAAAAAAAAAA8eMECAAAAAACxUAAAHgAAAAAADAjBmAQwwIMAAACIAiVSUACCAAAhAgAIiAEIZIgIYDLAkZGUIAhghgDIyAcYiMAOgAAAAAASAAAAAAAAACQAAAAAAAAAAA==

> <PUBCHEM_IUPAC_OPENEYE_NAME>
1-(3,4-dihydro-1H-isoquinolin-2-yl)-6-[4-(2-phenylphenyl)piperazin-1-yl]hexan-1-one

> <PUBCHEM_IUPAC_CAS_NAME>
1-(3,4-dihydro-1H-isoquinolin-2-yl)-6-[4-(2-phenylphenyl)-1-piperazinyl]-1-hexanone

> <PUBCHEM_IUPAC_NAME_MARKUP>
1-(3,4-dihydro-1<I>H</I>-isoquinolin-2-yl)-6-[4-(2-phenylphenyl)piperazin-1-yl]hexan-1-one

> <PUBCHEM_IUPAC_NAME>
1-(3,4-dihydro-1H-isoquinolin-2-yl)-6-[4-(2-phenylphenyl)piperazin-1-yl]hexan-1-one

> <PUBCHEM_IUPAC_SYSTEMATIC_NAME>
1-(3,4-dihydro-1H-isoquinolin-2-yl)-6-[4-(2-phenylphenyl)piperazin-1-yl]hexan-1-one

> <PUBCHEM_IUPAC_TRADITIONAL_NAME>
1-(3,4-dihydro-1H-isoquinolin-2-yl)-6-[4-(2-phenylphenyl)piperazino]hexan-1-one

> <PUBCHEM_IUPAC_INCHI>
InChI=1S/C31H37N3O/c35-31(34-20-18-26-11-6-7-14-28(26)25-34)17-5-2-10-19-32-21-23-33(24-22-32)30-16-9-8-15-29(30)27-12-3-1-4-13-27/h1,3-4,6-9,11-16H,2,5,10,17-25H2

> <PUBCHEM_IUPAC_INCHIKEY>
LZWDVLLURPUKQS-UHFFFAOYSA-N

> <PUBCHEM_XLOGP3_AA>
5.5

> <PUBCHEM_EXACT_MASS>
467.293662812

> <PUBCHEM_MOLECULAR_FORMULA>
C31H37N3O

> <PUBCHEM_MOLECULAR_WEIGHT>
467.6

> <PUBCHEM_OPENEYE_CAN_SMILES>
C1CN(CC2=CC=CC=C21)C(=O)CCCCCN3CCN(CC3)C4=CC=CC=C4C5=CC=CC=C5

> <PUBCHEM_OPENEYE_ISO_SMILES>
C1CN(CC2=CC=CC=C21)C(=O)CCCCCN3CCN(CC3)C4=CC=CC=C4C5=CC=CC=C5

> <PUBCHEM_CACTVS_TPSA>
26.8

> <PUBCHEM_MONOISOTOPIC_WEIGHT>
467.293662812

> <PUBCHEM_TOTAL_CHARGE>
0

> <PUBCHEM_HEAVY_ATOM_COUNT>
35

> <PUBCHEM_ATOM_DEF_STEREO_COUNT>
0

> <PUBCHEM_ATOM_UDEF_STEREO_COUNT>
0

> <PUBCHEM_BOND_DEF_STEREO_COUNT>
0

> <PUBCHEM_BOND_UDEF_STEREO_COUNT>
0

> <PUBCHEM_ISOTOPIC_ATOM_COUNT>
0

> <PUBCHEM_COMPONENT_COUNT>
1

> <PUBCHEM_CACTVS_TAUTO_COUNT>
-1

> <PUBCHEM_COORDINATE_TYPE>
1
5
255

> <PUBCHEM_BONDANNOTATIONS>
13  21  8
13  22  8
19  20  8
19  25  8
20  26  8
21  23  8
22  27  8
23  28  8
24  31  8
24  32  8
25  29  8
26  30  8
27  28  8
29  30  8
31  33  8
32  34  8
33  35  8
34  35  8

$$$$
