127046952
  -OEChem-09292322002D

 62 64  0     0  0  0  0  0  0999 V2000
    4.5981    2.3100    0.0000 O   0  0  0  0  0  0  0  0  0  0  0  0
    2.8660    1.3100    0.0000 O   0  0  0  0  0  0  0  0  0  0  0  0
    9.7942   -4.6900    0.0000 O   0  0  0  0  0  0  0  0  0  0  0  0
    9.7942   -6.6900    0.0000 O   0  0  0  0  0  0  0  0  0  0  0  0
    5.4641   -3.1900    0.0000 N   0  0  0  0  0  0  0  0  0  0  0  0
    4.5981   -1.6900    0.0000 C   0  0  0  0  0  0  0  0  0  0  0  0
    5.4641   -2.1900    0.0000 C   0  0  0  0  0  0  0  0  0  0  0  0
    6.3301   -3.6900    0.0000 C   0  0  0  0  0  0  0  0  0  0  0  0
    4.5981   -0.6900    0.0000 C   0  0  0  0  0  0  0  0  0  0  0  0
    6.3301   -4.6900    0.0000 C   0  0  0  0  0  0  0  0  0  0  0  0
    5.4641    3.8100    0.0000 C   0  0  0  0  0  0  0  0  0  0  0  0
    6.3301    4.3100    0.0000 C   0  0  0  0  0  0  0  0  0  0  0  0
    7.1962   -5.1900    0.0000 C   0  0  0  0  0  0  0  0  0  0  0  0
    3.7320   -0.1900    0.0000 C   0  0  0  0  0  0  0  0  0  0  0  0
    5.4641    2.8100    0.0000 C   0  0  0  0  0  0  0  0  0  0  0  0
    5.4641   -0.1900    0.0000 C   0  0  0  0  0  0  0  0  0  0  0  0
    4.5981    1.3100    0.0000 C   0  0  0  0  0  0  0  0  0  0  0  0
    3.7320    0.8100    0.0000 C   0  0  0  0  0  0  0  0  0  0  0  0
    5.4641    0.8100    0.0000 C   0  0  0  0  0  0  0  0  0  0  0  0
    6.3301    5.3100    0.0000 C   0  0  0  0  0  0  0  0  0  0  0  0
    8.0622   -4.6900    0.0000 C   0  0  0  0  0  0  0  0  0  0  0  0
    7.1962   -6.1900    0.0000 C   0  0  0  0  0  0  0  0  0  0  0  0
    7.1962    5.8100    0.0000 C   0  0  0  0  0  0  0  0  0  0  0  0
    5.4641    5.8100    0.0000 C   0  0  0  0  0  0  0  0  0  0  0  0
    8.9282   -5.1900    0.0000 C   0  0  0  0  0  0  0  0  0  0  0  0
    8.0622   -6.6900    0.0000 C   0  0  0  0  0  0  0  0  0  0  0  0
    8.9282   -6.1900    0.0000 C   0  0  0  0  0  0  0  0  0  0  0  0
    7.1962    6.8100    0.0000 C   0  0  0  0  0  0  0  0  0  0  0  0
    5.4641    6.8100    0.0000 C   0  0  0  0  0  0  0  0  0  0  0  0
    6.3301    7.3100    0.0000 C   0  0  0  0  0  0  0  0  0  0  0  0
    2.0000    0.8100    0.0000 C   0  0  0  0  0  0  0  0  0  0  0  0
    3.9875   -1.5823    0.0000 H   0  0  0  0  0  0  0  0  0  0  0  0
    4.3860   -2.2726    0.0000 H   0  0  0  0  0  0  0  0  0  0  0  0
    6.0747   -2.2977    0.0000 H   0  0  0  0  0  0  0  0  0  0  0  0
    5.6762   -1.6074    0.0000 H   0  0  0  0  0  0  0  0  0  0  0  0
    6.9407   -3.7977    0.0000 H   0  0  0  0  0  0  0  0  0  0  0  0
    6.5422   -3.1074    0.0000 H   0  0  0  0  0  0  0  0  0  0  0  0
    5.7196   -4.5823    0.0000 H   0  0  0  0  0  0  0  0  0  0  0  0
    6.1181   -5.2726    0.0000 H   0  0  0  0  0  0  0  0  0  0  0  0
    4.9272   -3.5000    0.0000 H   0  0  0  0  0  0  0  0  0  0  0  0
    5.2520    4.3926    0.0000 H   0  0  0  0  0  0  0  0  0  0  0  0
    4.8535    3.7023    0.0000 H   0  0  0  0  0  0  0  0  0  0  0  0
    6.5422    3.7274    0.0000 H   0  0  0  0  0  0  0  0  0  0  0  0
    6.9407    4.4177    0.0000 H   0  0  0  0  0  0  0  0  0  0  0  0
    3.1951   -0.5000    0.0000 H   0  0  0  0  0  0  0  0  0  0  0  0
    5.6762    2.2274    0.0000 H   0  0  0  0  0  0  0  0  0  0  0  0
    6.0747    2.9177    0.0000 H   0  0  0  0  0  0  0  0  0  0  0  0
    6.0010   -0.5000    0.0000 H   0  0  0  0  0  0  0  0  0  0  0  0
    6.0010    1.1200    0.0000 H   0  0  0  0  0  0  0  0  0  0  0  0
    8.0622   -4.0700    0.0000 H   0  0  0  0  0  0  0  0  0  0  0  0
    6.6592   -6.5000    0.0000 H   0  0  0  0  0  0  0  0  0  0  0  0
    7.7331    5.5000    0.0000 H   0  0  0  0  0  0  0  0  0  0  0  0
    4.9272    5.5000    0.0000 H   0  0  0  0  0  0  0  0  0  0  0  0
    8.0622   -7.3100    0.0000 H   0  0  0  0  0  0  0  0  0  0  0  0
    7.7331    7.1200    0.0000 H   0  0  0  0  0  0  0  0  0  0  0  0
    4.9272    7.1200    0.0000 H   0  0  0  0  0  0  0  0  0  0  0  0
    6.3301    7.9300    0.0000 H   0  0  0  0  0  0  0  0  0  0  0  0
    1.6900    1.3469    0.0000 H   0  0  0  0  0  0  0  0  0  0  0  0
    1.4631    0.5000    0.0000 H   0  0  0  0  0  0  0  0  0  0  0  0
    2.3100    0.2731    0.0000 H   0  0  0  0  0  0  0  0  0  0  0  0
   10.3312   -5.0000    0.0000 H   0  0  0  0  0  0  0  0  0  0  0  0
    9.7942   -7.3100    0.0000 H   0  0  0  0  0  0  0  0  0  0  0  0
  1 15  1  0  0  0  0
  1 17  1  0  0  0  0
  2 18  1  0  0  0  0
  2 31  1  0  0  0  0
  3 25  1  0  0  0  0
  3 61  1  0  0  0  0
  4 27  1  0  0  0  0
  4 62  1  0  0  0  0
  5  7  1  0  0  0  0
  5  8  1  0  0  0  0
  5 40  1  0  0  0  0
  6  7  1  0  0  0  0
  6  9  1  0  0  0  0
  6 32  1  0  0  0  0
  6 33  1  0  0  0  0
  7 34  1  0  0  0  0
  7 35  1  0  0  0  0
  8 10  1  0  0  0  0
  8 36  1  0  0  0  0
  8 37  1  0  0  0  0
  9 14  2  0  0  0  0
  9 16  1  0  0  0  0
 10 13  1  0  0  0  0
 10 38  1  0  0  0  0
 10 39  1  0  0  0  0
 11 12  1  0  0  0  0
 11 15  1  0  0  0  0
 11 41  1  0  0  0  0
 11 42  1  0  0  0  0
 12 20  1  0  0  0  0
 12 43  1  0  0  0  0
 12 44  1  0  0  0  0
 13 21  2  0  0  0  0
 13 22  1  0  0  0  0
 14 18  1  0  0  0  0
 14 45  1  0  0  0  0
 15 46  1  0  0  0  0
 15 47  1  0  0  0  0
 16 19  2  0  0  0  0
 16 48  1  0  0  0  0
 17 18  2  0  0  0  0
 17 19  1  0  0  0  0
 19 49  1  0  0  0  0
 20 23  2  0  0  0  0
 20 24  1  0  0  0  0
 21 25  1  0  0  0  0
 21 50  1  0  0  0  0
 22 26  2  0  0  0  0
 22 51  1  0  0  0  0
 23 28  1  0  0  0  0
 23 52  1  0  0  0  0
 24 29  2  0  0  0  0
 24 53  1  0  0  0  0
 25 27  2  0  0  0  0
 26 27  1  0  0  0  0
 26 54  1  0  0  0  0
 28 30  2  0  0  0  0
 28 55  1  0  0  0  0
 29 30  1  0  0  0  0
 29 56  1  0  0  0  0
 30 57  1  0  0  0  0
 31 58  1  0  0  0  0
 31 59  1  0  0  0  0
 31 60  1  0  0  0  0
M  END
> <PUBCHEM_COMPOUND_CID>
127046952

> <PUBCHEM_COMPOUND_CANONICALIZED>
1

> <PUBCHEM_CACTVS_COMPLEXITY>
470

> <PUBCHEM_CACTVS_HBOND_ACCEPTOR>
5

> <PUBCHEM_CACTVS_HBOND_DONOR>
3

> <PUBCHEM_CACTVS_ROTATABLE_BOND>
12

> <PUBCHEM_CACTVS_SUBSKEYS>
AAADceB6OAAAAAAAAAAAAAAAAAAAAAAAAAAwYMAAAAAAAAABUAAAHgAQCAAADAThmAYyBoLABgCAAiBCAAACCAAgIAAIiIAOiIgNJiKGsRuGeCOk0BGLuAeQ0LIOIAABAAAAQABAAAIAAACAAAAAAAAAAA==

> <PUBCHEM_IUPAC_OPENEYE_NAME>
4-[2-[2-[3-methoxy-4-(3-phenylpropoxy)phenyl]ethylamino]ethyl]benzene-1,2-diol

> <PUBCHEM_IUPAC_CAS_NAME>
4-[2-[2-[3-methoxy-4-(3-phenylpropoxy)phenyl]ethylamino]ethyl]benzene-1,2-diol

> <PUBCHEM_IUPAC_NAME_MARKUP>
4-[2-[2-[3-methoxy-4-(3-phenylpropoxy)phenyl]ethylamino]ethyl]benzene-1,2-diol

> <PUBCHEM_IUPAC_NAME>
4-[2-[2-[3-methoxy-4-(3-phenylpropoxy)phenyl]ethylamino]ethyl]benzene-1,2-diol

> <PUBCHEM_IUPAC_SYSTEMATIC_NAME>
4-[2-[2-[3-methoxy-4-(3-phenylpropoxy)phenyl]ethylamino]ethyl]benzene-1,2-diol

> <PUBCHEM_IUPAC_TRADITIONAL_NAME>
4-[2-[2-[3-methoxy-4-(3-phenylpropoxy)phenyl]ethylamino]ethyl]pyrocatechol

> <PUBCHEM_IUPAC_INCHI>
InChI=1S/C26H31NO4/c1-30-26-19-22(14-16-27-15-13-21-9-11-23(28)24(29)18-21)10-12-25(26)31-17-5-8-20-6-3-2-4-7-20/h2-4,6-7,9-12,18-19,27-29H,5,8,13-17H2,1H3

> <PUBCHEM_IUPAC_INCHIKEY>
FNDYKBLJPFQMEN-UHFFFAOYSA-N

> <PUBCHEM_XLOGP3_AA>
5.3

> <PUBCHEM_EXACT_MASS>
421.22530847

> <PUBCHEM_MOLECULAR_FORMULA>
C26H31NO4

> <PUBCHEM_MOLECULAR_WEIGHT>
421.5

> <PUBCHEM_OPENEYE_CAN_SMILES>
COC1=C(C=CC(=C1)CCNCCC2=CC(=C(C=C2)O)O)OCCCC3=CC=CC=C3

> <PUBCHEM_OPENEYE_ISO_SMILES>
COC1=C(C=CC(=C1)CCNCCC2=CC(=C(C=C2)O)O)OCCCC3=CC=CC=C3

> <PUBCHEM_CACTVS_TPSA>
71

> <PUBCHEM_MONOISOTOPIC_WEIGHT>
421.22530847

> <PUBCHEM_TOTAL_CHARGE>
0

> <PUBCHEM_HEAVY_ATOM_COUNT>
31

> <PUBCHEM_ATOM_DEF_STEREO_COUNT>
0

> <PUBCHEM_ATOM_UDEF_STEREO_COUNT>
0

> <PUBCHEM_BOND_DEF_STEREO_COUNT>
0

> <PUBCHEM_BOND_UDEF_STEREO_COUNT>
0

> <PUBCHEM_ISOTOPIC_ATOM_COUNT>
0

> <PUBCHEM_COMPONENT_COUNT>
1

> <PUBCHEM_CACTVS_TAUTO_COUNT>
-1

> <PUBCHEM_COORDINATE_TYPE>
1
5
255

> <PUBCHEM_BONDANNOTATIONS>
13  21  8
13  22  8
14  18  8
16  19  8
17  18  8
17  19  8
20  23  8
20  24  8
21  25  8
22  26  8
23  28  8
24  29  8
25  27  8
26  27  8
28  30  8
29  30  8
9  14  8
9  16  8

$$$$
