168273038
  -OEChem-09292322452D

 63 65  0     0  0  0  0  0  0999 V2000
    4.9338   11.5113    0.0000 O   0  0  0  0  0  0  0  0  0  0  0  0
   10.1300    4.5113    0.0000 O   0  5  0  0  0  0  0  0  0  0  0  0
   10.9960    6.0113    0.0000 O   0  0  0  0  0  0  0  0  0  0  0  0
    4.1990    1.5000    0.0000 O   0  0  0  0  0  0  0  0  0  0  0  0
    6.7970    1.0000    0.0000 O   0  0  0  0  0  0  0  0  0  0  0  0
    5.0650    0.0000    0.0000 O   0  0  0  0  0  0  0  0  0  0  0  0
    5.9310    2.5000    0.0000 O   0  0  0  0  0  0  0  0  0  0  0  0
    4.9338    8.5112    0.0000 N   0  0  0  0  0  0  0  0  0  0  0  0
    6.6659    7.5112    0.0000 N   0  0  0  0  0  0  0  0  0  0  0  0
    3.2018   11.5113    0.0000 N   0  0  0  0  0  0  0  0  0  0  0  0
   10.1300    5.5113    0.0000 N   0  3  0  0  0  0  0  0  0  0  0  0
    4.9338    7.5112    0.0000 C   0  0  0  0  0  0  0  0  0  0  0  0
    5.7998    9.0112    0.0000 C   0  0  0  0  0  0  0  0  0  0  0  0
    4.0678    9.0112    0.0000 C   0  0  0  0  0  0  0  0  0  0  0  0
    5.7998    7.0112    0.0000 C   0  0  0  0  0  0  0  0  0  0  0  0
    6.6659    8.5112    0.0000 C   0  0  0  0  0  0  0  0  0  0  0  0
    4.0678   10.0113    0.0000 C   0  0  0  0  0  0  0  0  0  0  0  0
    3.2018   10.5113    0.0000 C   0  0  0  0  0  0  0  0  0  0  0  0
    7.5319    7.0112    0.0000 C   0  0  0  0  0  0  0  0  0  0  0  0
    2.3358   12.0113    0.0000 C   0  0  0  0  0  0  0  0  0  0  0  0
    3.2018   13.5113    0.0000 C   0  0  0  0  0  0  0  0  0  0  0  0
    2.3358   13.0113    0.0000 C   0  0  0  0  0  0  0  0  0  0  0  0
    4.0678   13.0113    0.0000 C   0  0  0  0  0  0  0  0  0  0  0  0
    4.0678   12.0113    0.0000 C   0  0  0  0  0  0  0  0  0  0  0  0
    8.3979    7.5112    0.0000 C   0  0  0  0  0  0  0  0  0  0  0  0
    7.5319    6.0113    0.0000 C   0  0  0  0  0  0  0  0  0  0  0  0
    1.4418   11.4766    0.0000 C   0  0  0  0  0  0  0  0  0  0  0  0
    1.4418   13.5459    0.0000 C   0  0  0  0  0  0  0  0  0  0  0  0
    9.2640    7.0112    0.0000 C   0  0  0  0  0  0  0  0  0  0  0  0
    8.3979    5.5113    0.0000 C   0  0  0  0  0  0  0  0  0  0  0  0
    0.5357   11.9904    0.0000 C   0  0  0  0  0  0  0  0  0  0  0  0
    0.5357   13.0321    0.0000 C   0  0  0  0  0  0  0  0  0  0  0  0
    9.2640    6.0113    0.0000 C   0  0  0  0  0  0  0  0  0  0  0  0
    5.0650    1.0000    0.0000 C   0  0  0  0  0  0  0  0  0  0  0  0
    5.9310    1.5000    0.0000 C   0  0  0  0  0  0  0  0  0  0  0  0
    4.3232    7.6189    0.0000 H   0  0  0  0  0  0  0  0  0  0  0  0
    4.7218    6.9286    0.0000 H   0  0  0  0  0  0  0  0  0  0  0  0
    6.1984    9.4862    0.0000 H   0  0  0  0  0  0  0  0  0  0  0  0
    5.4013    9.4862    0.0000 H   0  0  0  0  0  0  0  0  0  0  0  0
    3.4572    9.1189    0.0000 H   0  0  0  0  0  0  0  0  0  0  0  0
    3.8557    8.4286    0.0000 H   0  0  0  0  0  0  0  0  0  0  0  0
    5.4013    6.5363    0.0000 H   0  0  0  0  0  0  0  0  0  0  0  0
    6.1984    6.5363    0.0000 H   0  0  0  0  0  0  0  0  0  0  0  0
    7.2764    8.4036    0.0000 H   0  0  0  0  0  0  0  0  0  0  0  0
    6.8779    9.0939    0.0000 H   0  0  0  0  0  0  0  0  0  0  0  0
    4.6784    9.9036    0.0000 H   0  0  0  0  0  0  0  0  0  0  0  0
    4.2798   10.5939    0.0000 H   0  0  0  0  0  0  0  0  0  0  0  0
    2.5912   10.6189    0.0000 H   0  0  0  0  0  0  0  0  0  0  0  0
    2.9897    9.9286    0.0000 H   0  0  0  0  0  0  0  0  0  0  0  0
    3.6003   13.9862    0.0000 H   0  0  0  0  0  0  0  0  0  0  0  0
    2.8032   13.9862    0.0000 H   0  0  0  0  0  0  0  0  0  0  0  0
    4.6784   12.9036    0.0000 H   0  0  0  0  0  0  0  0  0  0  0  0
    4.2798   13.5939    0.0000 H   0  0  0  0  0  0  0  0  0  0  0  0
    8.3979    8.1312    0.0000 H   0  0  0  0  0  0  0  0  0  0  0  0
    6.9950    5.7012    0.0000 H   0  0  0  0  0  0  0  0  0  0  0  0
    1.4490   10.8566    0.0000 H   0  0  0  0  0  0  0  0  0  0  0  0
    1.4490   14.1659    0.0000 H   0  0  0  0  0  0  0  0  0  0  0  0
    0.0000   11.6784    0.0000 H   0  0  0  0  0  0  0  0  0  0  0  0
    9.8009    7.3212    0.0000 H   0  0  0  0  0  0  0  0  0  0  0  0
    8.3979    4.8912    0.0000 H   0  0  0  0  0  0  0  0  0  0  0  0
    0.0000   13.3441    0.0000 H   0  0  0  0  0  0  0  0  0  0  0  0
    3.6620    1.1900    0.0000 H   0  0  0  0  0  0  0  0  0  0  0  0
    7.3340    1.3100    0.0000 H   0  0  0  0  0  0  0  0  0  0  0  0
  1 24  2  0  0  0  0
  2 11  1  0  0  0  0
  3 11  2  0  0  0  0
  4 34  1  0  0  0  0
  4 62  1  0  0  0  0
  5 35  1  0  0  0  0
  5 63  1  0  0  0  0
  6 34  2  0  0  0  0
  7 35  2  0  0  0  0
  8 12  1  0  0  0  0
  8 13  1  0  0  0  0
  8 14  1  0  0  0  0
  9 15  1  0  0  0  0
  9 16  1  0  0  0  0
  9 19  1  0  0  0  0
 10 18  1  0  0  0  0
 10 20  1  0  0  0  0
 10 24  1  0  0  0  0
 11 33  1  0  0  0  0
 12 15  1  0  0  0  0
 12 36  1  0  0  0  0
 12 37  1  0  0  0  0
 13 16  1  0  0  0  0
 13 38  1  0  0  0  0
 13 39  1  0  0  0  0
 14 17  1  0  0  0  0
 14 40  1  0  0  0  0
 14 41  1  0  0  0  0
 15 42  1  0  0  0  0
 15 43  1  0  0  0  0
 16 44  1  0  0  0  0
 16 45  1  0  0  0  0
 17 18  1  0  0  0  0
 17 46  1  0  0  0  0
 17 47  1  0  0  0  0
 18 48  1  0  0  0  0
 18 49  1  0  0  0  0
 19 25  2  0  0  0  0
 19 26  1  0  0  0  0
 20 22  1  0  0  0  0
 20 27  2  0  0  0  0
 21 22  1  0  0  0  0
 21 23  1  0  0  0  0
 21 50  1  0  0  0  0
 21 51  1  0  0  0  0
 22 28  2  0  0  0  0
 23 24  1  0  0  0  0
 23 52  1  0  0  0  0
 23 53  1  0  0  0  0
 25 29  1  0  0  0  0
 25 54  1  0  0  0  0
 26 30  2  0  0  0  0
 26 55  1  0  0  0  0
 27 31  1  0  0  0  0
 27 56  1  0  0  0  0
 28 32  1  0  0  0  0
 28 57  1  0  0  0  0
 29 33  2  0  0  0  0
 29 59  1  0  0  0  0
 30 33  1  0  0  0  0
 30 60  1  0  0  0  0
 31 32  2  0  0  0  0
 31 58  1  0  0  0  0
 32 61  1  0  0  0  0
 34 35  1  0  0  0  0
M  CHG  2   2  -1  11   1
M  END
> <PUBCHEM_COMPOUND_CID>
168273038

> <PUBCHEM_COMPOUND_CANONICALIZED>
1

> <PUBCHEM_CACTVS_COMPLEXITY>
636

> <PUBCHEM_CACTVS_HBOND_ACCEPTOR>
9

> <PUBCHEM_CACTVS_HBOND_DONOR>
2

> <PUBCHEM_CACTVS_ROTATABLE_BOND>
6

> <PUBCHEM_CACTVS_SUBSKEYS>
AAADceB7uAAAAAAAAAAAAAAAAAAAAAAAAAA8eIEAAAAAAACxQAAAHgAECAAADAjBmAQwyIMQQgCJAiXSWwKCAAAhAgAoiAFIZIoJYDLA0ZGUIAhghgDJyAcYiYCeAACAAAACAAAAAQAAAAQAAAAAAAAAAA==

> <PUBCHEM_IUPAC_OPENEYE_NAME>
1-[3-[4-(4-nitrophenyl)piperazin-1-yl]propyl]-3,4-dihydroquinolin-2-one;oxalic acid

> <PUBCHEM_IUPAC_CAS_NAME>
1-[3-[4-(4-nitrophenyl)-1-piperazinyl]propyl]-3,4-dihydroquinolin-2-one;oxalic acid

> <PUBCHEM_IUPAC_NAME_MARKUP>
1-[3-[4-(4-nitrophenyl)piperazin-1-yl]propyl]-3,4-dihydroquinolin-2-one;oxalic acid

> <PUBCHEM_IUPAC_NAME>
1-[3-[4-(4-nitrophenyl)piperazin-1-yl]propyl]-3,4-dihydroquinolin-2-one;oxalic acid

> <PUBCHEM_IUPAC_SYSTEMATIC_NAME>
ethanedioic acid;1-[3-[4-(4-nitrophenyl)piperazin-1-yl]propyl]-3,4-dihydroquinolin-2-one

> <PUBCHEM_IUPAC_TRADITIONAL_NAME>
1-[3-[4-(4-nitrophenyl)piperazino]propyl]-3,4-dihydrocarbostyril;oxalic acid

> <PUBCHEM_IUPAC_INCHI>
InChI=1S/C22H26N4O3.C2H2O4/c27-22-11-6-18-4-1-2-5-21(18)25(22)13-3-12-23-14-16-24(17-15-23)19-7-9-20(10-8-19)26(28)29;3-1(4)2(5)6/h1-2,4-5,7-10H,3,6,11-17H2;(H,3,4)(H,5,6)

> <PUBCHEM_IUPAC_INCHIKEY>
LDXSXPYWVKXZBO-UHFFFAOYSA-N

> <PUBCHEM_EXACT_MASS>
484.19579924

> <PUBCHEM_MOLECULAR_FORMULA>
C24H28N4O7

> <PUBCHEM_MOLECULAR_WEIGHT>
484.5

> <PUBCHEM_OPENEYE_CAN_SMILES>
C1CC(=O)N(C2=CC=CC=C21)CCCN3CCN(CC3)C4=CC=C(C=C4)[N+](=O)[O-].C(=O)(C(=O)O)O

> <PUBCHEM_OPENEYE_ISO_SMILES>
C1CC(=O)N(C2=CC=CC=C21)CCCN3CCN(CC3)C4=CC=C(C=C4)[N+](=O)[O-].C(=O)(C(=O)O)O

> <PUBCHEM_CACTVS_TPSA>
147

> <PUBCHEM_MONOISOTOPIC_WEIGHT>
484.19579924

> <PUBCHEM_TOTAL_CHARGE>
0

> <PUBCHEM_HEAVY_ATOM_COUNT>
35

> <PUBCHEM_ATOM_DEF_STEREO_COUNT>
0

> <PUBCHEM_ATOM_UDEF_STEREO_COUNT>
0

> <PUBCHEM_BOND_DEF_STEREO_COUNT>
0

> <PUBCHEM_BOND_UDEF_STEREO_COUNT>
0

> <PUBCHEM_ISOTOPIC_ATOM_COUNT>
0

> <PUBCHEM_COMPONENT_COUNT>
2

> <PUBCHEM_CACTVS_TAUTO_COUNT>
-1

> <PUBCHEM_COORDINATE_TYPE>
1
5
255

> <PUBCHEM_BONDANNOTATIONS>
19  25  8
19  26  8
20  22  8
20  27  8
22  28  8
25  29  8
26  30  8
27  31  8
28  32  8
29  33  8
30  33  8
31  32  8

$$$$
