133999
  -OEChem-09292322072D

 41 44  0     1  0  0  0  0  0999 V2000
    3.5827    3.7974    0.0000 Cl  0  0  0  0  0  0  0  0  0  0  0  0
    6.1808    0.2974    0.0000 O   0  0  0  0  0  0  0  0  0  0  0  0
    2.5000   -2.4050    0.0000 N   0  0  3  0  0  0  0  0  0  0  0  0
    4.4487    0.2974    0.0000 N   0  0  0  0  0  0  0  0  0  0  0  0
    6.1808    3.2974    0.0000 N   0  0  0  0  0  0  0  0  0  0  0  0
    7.1270    1.9927    0.0000 N   0  0  0  0  0  0  0  0  0  0  0  0
    3.4782   -2.1971    0.0000 C   0  0  2  0  0  0  0  0  0  0  0  0
    3.5827   -1.2026    0.0000 C   0  0  1  0  0  0  0  0  0  0  0  0
    3.9730   -3.0593    0.0000 C   0  0  0  0  0  0  0  0  0  0  0  0
    2.6691   -0.7958    0.0000 C   0  0  0  0  0  0  0  0  0  0  0  0
    2.0000   -1.5390    0.0000 C   0  0  0  0  0  0  0  0  0  0  0  0
    2.3987   -3.3939    0.0000 C   0  0  0  0  0  0  0  0  0  0  0  0
    3.3071   -3.7974    0.0000 C   0  0  0  0  0  0  0  0  0  0  0  0
    4.4487   -0.7026    0.0000 C   0  0  0  0  0  0  0  0  0  0  0  0
    5.3147    0.7974    0.0000 C   0  0  0  0  0  0  0  0  0  0  0  0
    5.3147    1.7974    0.0000 C   0  0  0  0  0  0  0  0  0  0  0  0
    6.1808    2.2974    0.0000 C   0  0  0  0  0  0  0  0  0  0  0  0
    4.4487    2.2974    0.0000 C   0  0  0  0  0  0  0  0  0  0  0  0
    4.4487    3.2974    0.0000 C   0  0  0  0  0  0  0  0  0  0  0  0
    5.3147    3.7974    0.0000 C   0  0  0  0  0  0  0  0  0  0  0  0
    7.1270    3.6022    0.0000 C   0  0  0  0  0  0  0  0  0  0  0  0
    7.7106    2.7974    0.0000 C   0  0  0  0  0  0  0  0  0  0  0  0
    4.3098   -2.0214    0.0000 H   0  0  0  0  0  0  0  0  0  0  0  0
    4.1026   -1.5402    0.0000 H   0  0  0  0  0  0  0  0  0  0  0  0
    4.3872   -3.5206    0.0000 H   0  0  0  0  0  0  0  0  0  0  0  0
    4.4753   -2.6959    0.0000 H   0  0  0  0  0  0  0  0  0  0  0  0
    2.9791   -0.2589    0.0000 H   0  0  0  0  0  0  0  0  0  0  0  0
    2.1675   -0.4314    0.0000 H   0  0  0  0  0  0  0  0  0  0  0  0
    1.5851   -1.0782    0.0000 H   0  0  0  0  0  0  0  0  0  0  0  0
    1.4984   -1.9034    0.0000 H   0  0  0  0  0  0  0  0  0  0  0  0
    1.7920   -3.2662    0.0000 H   0  0  0  0  0  0  0  0  0  0  0  0
    2.2079   -3.9838    0.0000 H   0  0  0  0  0  0  0  0  0  0  0  0
    2.9973   -4.3345    0.0000 H   0  0  0  0  0  0  0  0  0  0  0  0
    3.8086   -4.1620    0.0000 H   0  0  0  0  0  0  0  0  0  0  0  0
    4.6608   -1.2852    0.0000 H   0  0  0  0  0  0  0  0  0  0  0  0
    5.0593   -0.5949    0.0000 H   0  0  0  0  0  0  0  0  0  0  0  0
    3.9118    0.6074    0.0000 H   0  0  0  0  0  0  0  0  0  0  0  0
    3.9118    1.9874    0.0000 H   0  0  0  0  0  0  0  0  0  0  0  0
    5.3147    4.4174    0.0000 H   0  0  0  0  0  0  0  0  0  0  0  0
    7.3196    4.1915    0.0000 H   0  0  0  0  0  0  0  0  0  0  0  0
    8.3306    2.7974    0.0000 H   0  0  0  0  0  0  0  0  0  0  0  0
  1 19  1  0  0  0  0
  2 15  2  0  0  0  0
  3  7  1  0  0  0  0
  3 11  1  0  0  0  0
  3 12  1  0  0  0  0
  4 14  1  0  0  0  0
  4 15  1  0  0  0  0
  4 37  1  0  0  0  0
  5 17  1  0  0  0  0
  5 20  1  0  0  0  0
  5 21  1  0  0  0  0
  6 17  2  0  0  0  0
  6 22  1  0  0  0  0
  7  8  1  0  0  0  0
  7  9  1  0  0  0  0
  7 23  1  1  0  0  0
  8 10  1  0  0  0  0
  8 14  1  1  0  0  0
  8 24  1  0  0  0  0
  9 13  1  0  0  0  0
  9 25  1  0  0  0  0
  9 26  1  0  0  0  0
 10 11  1  0  0  0  0
 10 27  1  0  0  0  0
 10 28  1  0  0  0  0
 11 29  1  0  0  0  0
 11 30  1  0  0  0  0
 12 13  1  0  0  0  0
 12 31  1  0  0  0  0
 12 32  1  0  0  0  0
 13 33  1  0  0  0  0
 13 34  1  0  0  0  0
 14 35  1  0  0  0  0
 14 36  1  0  0  0  0
 15 16  1  0  0  0  0
 16 17  1  0  0  0  0
 16 18  2  0  0  0  0
 18 19  1  0  0  0  0
 18 38  1  0  0  0  0
 19 20  2  0  0  0  0
 20 39  1  0  0  0  0
 21 22  2  0  0  0  0
 21 40  1  0  0  0  0
 22 41  1  0  0  0  0
M  END
> <PUBCHEM_COMPOUND_CID>
133999

> <PUBCHEM_COMPOUND_CANONICALIZED>
1

> <PUBCHEM_CACTVS_COMPLEXITY>
434

> <PUBCHEM_CACTVS_HBOND_ACCEPTOR>
3

> <PUBCHEM_CACTVS_HBOND_DONOR>
1

> <PUBCHEM_CACTVS_ROTATABLE_BOND>
3

> <PUBCHEM_CACTVS_SUBSKEYS>
AAADceB7oAAEAAAAAAAAAAAAAAAAAWLFgAAsAAAAAAAWAFgB4AAAHgIQAAAADSrBmyQ9sJ/MGACoAjN3dACCgC01F6AJ2KE4dtiIaPrB35HUIYholgLIyecYgQAOAAAAAAAAAAAAAAAAAAAAAAAAAAAAAA==

> <PUBCHEM_IUPAC_OPENEYE_NAME>
6-chloro-N-[[(1S,8S)-2,3,5,6,7,8-hexahydro-1H-pyrrolizin-1-yl]methyl]imidazo[1,2-a]pyridine-8-carboxamide

> <PUBCHEM_IUPAC_CAS_NAME>
6-chloro-N-[[(1S,8S)-2,3,5,6,7,8-hexahydro-1H-pyrrolizin-1-yl]methyl]-8-imidazo[1,2-a]pyridinecarboxamide

> <PUBCHEM_IUPAC_NAME_MARKUP>
6-chloro-<I>N</I>-[[(1<I>S</I>,8<I>S</I>)-2,3,5,6,7,8-hexahydro-1<I>H</I>-pyrrolizin-1-yl]methyl]imidazo[1,2-a]pyridine-8-carboxamide

> <PUBCHEM_IUPAC_NAME>
6-chloro-N-[[(1S,8S)-2,3,5,6,7,8-hexahydro-1H-pyrrolizin-1-yl]methyl]imidazo[1,2-a]pyridine-8-carboxamide

> <PUBCHEM_IUPAC_SYSTEMATIC_NAME>
6-chloranyl-N-[[(1S,8S)-2,3,5,6,7,8-hexahydro-1H-pyrrolizin-1-yl]methyl]imidazo[1,2-a]pyridine-8-carboxamide

> <PUBCHEM_IUPAC_TRADITIONAL_NAME>
6-chloro-N-[[(1S,8S)-pyrrolizidin-1-yl]methyl]imidazo[1,2-a]pyridine-8-carboxamide

> <PUBCHEM_IUPAC_INCHI>
InChI=1S/C16H19ClN4O/c17-12-8-13(15-18-4-7-21(15)10-12)16(22)19-9-11-3-6-20-5-1-2-14(11)20/h4,7-8,10-11,14H,1-3,5-6,9H2,(H,19,22)/t11-,14-/m0/s1

> <PUBCHEM_IUPAC_INCHIKEY>
SKYGATVDBNOBSE-FZMZJTMJSA-N

> <PUBCHEM_XLOGP3_AA>
2.6

> <PUBCHEM_EXACT_MASS>
318.1247389

> <PUBCHEM_MOLECULAR_FORMULA>
C16H19ClN4O

> <PUBCHEM_MOLECULAR_WEIGHT>
318.80

> <PUBCHEM_OPENEYE_CAN_SMILES>
C1CC2C(CCN2C1)CNC(=O)C3=CC(=CN4C3=NC=C4)Cl

> <PUBCHEM_OPENEYE_ISO_SMILES>
C1C[C@H]2[C@@H](CCN2C1)CNC(=O)C3=CC(=CN4C3=NC=C4)Cl

> <PUBCHEM_CACTVS_TPSA>
49.6

> <PUBCHEM_MONOISOTOPIC_WEIGHT>
318.1247389

> <PUBCHEM_TOTAL_CHARGE>
0

> <PUBCHEM_HEAVY_ATOM_COUNT>
22

> <PUBCHEM_ATOM_DEF_STEREO_COUNT>
2

> <PUBCHEM_ATOM_UDEF_STEREO_COUNT>
0

> <PUBCHEM_BOND_DEF_STEREO_COUNT>
0

> <PUBCHEM_BOND_UDEF_STEREO_COUNT>
0

> <PUBCHEM_ISOTOPIC_ATOM_COUNT>
0

> <PUBCHEM_COMPONENT_COUNT>
1

> <PUBCHEM_CACTVS_TAUTO_COUNT>
2

> <PUBCHEM_COORDINATE_TYPE>
1
5
255

> <PUBCHEM_BONDANNOTATIONS>
16  17  8
16  18  8
18  19  8
19  20  8
21  22  8
5  17  8
5  20  8
5  21  8
6  17  8
6  22  8
7  23  5
8  14  5

$$$$
