122180619
  -OEChem-09292322362D

 69 73  0     1  0  0  0  0  0999 V2000
    4.5322    1.8901    0.0000 O   0  0  0  0  0  0  0  0  0  0  0  0
    4.9836    7.1623    0.0000 O   0  0  0  0  0  0  0  0  0  0  0  0
    5.3457    3.7172    0.0000 N   0  0  0  0  0  0  0  0  0  0  0  0
    4.1701    5.3352    0.0000 N   0  0  0  0  0  0  0  0  0  0  0  0
    6.2956   -0.5370    0.0000 N   0  0  0  0  0  0  0  0  0  0  0  0
    7.2956   -0.5370    0.0000 N   0  0  0  0  0  0  0  0  0  0  0  0
    7.6046   -1.4880    0.0000 N   0  0  0  0  0  0  0  0  0  0  0  0
    4.3511    3.6126    0.0000 C   0  0  0  0  0  0  0  0  0  0  0  0
    5.7524    4.6307    0.0000 C   0  0  0  0  0  0  0  0  0  0  0  0
    3.7634    4.4216    0.0000 C   0  0  0  0  0  0  0  0  0  0  0  0
    5.1646    5.4397    0.0000 C   0  0  0  0  0  0  0  0  0  0  0  0
    5.9334    2.9081    0.0000 C   0  0  0  0  0  0  0  0  0  0  0  0
    5.5267    1.9946    0.0000 C   0  0  3  0  0  0  0  0  0  0  0  0
    6.1145    1.1856    0.0000 C   0  0  0  0  0  0  0  0  0  0  0  0
    3.5823    6.1442    0.0000 C   0  0  0  0  0  0  0  0  0  0  0  0
    5.7078    0.2720    0.0000 C   0  0  0  0  0  0  0  0  0  0  0  0
    3.9890    7.0578    0.0000 C   0  0  0  0  0  0  0  0  0  0  0  0
    2.5878    6.0397    0.0000 C   0  0  0  0  0  0  0  0  0  0  0  0
    3.4013    7.8668    0.0000 C   0  0  0  0  0  0  0  0  0  0  0  0
    2.0000    6.8487    0.0000 C   0  0  0  0  0  0  0  0  0  0  0  0
    2.4067    7.7622    0.0000 C   0  0  0  0  0  0  0  0  0  0  0  0
    5.9865   -1.4880    0.0000 C   0  0  0  0  0  0  0  0  0  0  0  0
    6.7956   -2.0758    0.0000 C   0  0  0  0  0  0  0  0  0  0  0  0
    6.7956   -3.0758    0.0000 C   0  0  0  0  0  0  0  0  0  0  0  0
    5.3903    8.0758    0.0000 C   0  0  0  0  0  0  0  0  0  0  0  0
    5.9295   -3.5758    0.0000 C   0  0  0  0  0  0  0  0  0  0  0  0
    7.6616   -3.5758    0.0000 C   0  0  0  0  0  0  0  0  0  0  0  0
    6.7956   -5.0758    0.0000 C   0  0  0  0  0  0  0  0  0  0  0  0
    5.9295   -4.5758    0.0000 C   0  0  0  0  0  0  0  0  0  0  0  0
    7.6616   -4.5758    0.0000 C   0  0  0  0  0  0  0  0  0  0  0  0
    6.7956   -6.0758    0.0000 C   0  0  0  0  0  0  0  0  0  0  0  0
    7.6616   -6.5758    0.0000 C   0  0  0  0  0  0  0  0  0  0  0  0
    5.9295   -6.5758    0.0000 C   0  0  0  0  0  0  0  0  0  0  0  0
    7.6616   -7.5758    0.0000 C   0  0  0  0  0  0  0  0  0  0  0  0
    5.9295   -7.5758    0.0000 C   0  0  0  0  0  0  0  0  0  0  0  0
    6.7956   -8.0758    0.0000 C   0  0  0  0  0  0  0  0  0  0  0  0
    3.7939    3.3408    0.0000 H   0  0  0  0  0  0  0  0  0  0  0  0
    4.5220    3.0166    0.0000 H   0  0  0  0  0  0  0  0  0  0  0  0
    6.2664    4.2840    0.0000 H   0  0  0  0  0  0  0  0  0  0  0  0
    6.1831    5.0767    0.0000 H   0  0  0  0  0  0  0  0  0  0  0  0
    3.2494    4.7683    0.0000 H   0  0  0  0  0  0  0  0  0  0  0  0
    3.3327    3.9756    0.0000 H   0  0  0  0  0  0  0  0  0  0  0  0
    5.7219    5.7115    0.0000 H   0  0  0  0  0  0  0  0  0  0  0  0
    4.9937    6.0357    0.0000 H   0  0  0  0  0  0  0  0  0  0  0  0
    6.4474    2.5614    0.0000 H   0  0  0  0  0  0  0  0  0  0  0  0
    6.3641    3.3541    0.0000 H   0  0  0  0  0  0  0  0  0  0  0  0
    5.1623    2.4962    0.0000 H   0  0  0  0  0  0  0  0  0  0  0  0
    6.6285    0.8389    0.0000 H   0  0  0  0  0  0  0  0  0  0  0  0
    6.5452    1.6316    0.0000 H   0  0  0  0  0  0  0  0  0  0  0  0
    5.1938    0.6187    0.0000 H   0  0  0  0  0  0  0  0  0  0  0  0
    5.2771   -0.1740    0.0000 H   0  0  0  0  0  0  0  0  0  0  0  0
    2.3356    5.4733    0.0000 H   0  0  0  0  0  0  0  0  0  0  0  0
    4.2800    1.3237    0.0000 H   0  0  0  0  0  0  0  0  0  0  0  0
    3.6534    8.4332    0.0000 H   0  0  0  0  0  0  0  0  0  0  0  0
    1.3834    6.7839    0.0000 H   0  0  0  0  0  0  0  0  0  0  0  0
    2.0423    8.2638    0.0000 H   0  0  0  0  0  0  0  0  0  0  0  0
    5.3969   -1.6796    0.0000 H   0  0  0  0  0  0  0  0  0  0  0  0
    5.9567    7.8236    0.0000 H   0  0  0  0  0  0  0  0  0  0  0  0
    5.6425    8.6422    0.0000 H   0  0  0  0  0  0  0  0  0  0  0  0
    4.8239    8.3280    0.0000 H   0  0  0  0  0  0  0  0  0  0  0  0
    5.3926   -3.2658    0.0000 H   0  0  0  0  0  0  0  0  0  0  0  0
    8.1985   -3.2658    0.0000 H   0  0  0  0  0  0  0  0  0  0  0  0
    5.3926   -4.8858    0.0000 H   0  0  0  0  0  0  0  0  0  0  0  0
    8.1985   -4.8858    0.0000 H   0  0  0  0  0  0  0  0  0  0  0  0
    8.1985   -6.2658    0.0000 H   0  0  0  0  0  0  0  0  0  0  0  0
    5.3926   -6.2658    0.0000 H   0  0  0  0  0  0  0  0  0  0  0  0
    8.1985   -7.8858    0.0000 H   0  0  0  0  0  0  0  0  0  0  0  0
    5.3926   -7.8858    0.0000 H   0  0  0  0  0  0  0  0  0  0  0  0
    6.7956   -8.6958    0.0000 H   0  0  0  0  0  0  0  0  0  0  0  0
  1 13  1  0  0  0  0
  1 53  1  0  0  0  0
  2 17  1  0  0  0  0
  2 25  1  0  0  0  0
  3  8  1  0  0  0  0
  3  9  1  0  0  0  0
  3 12  1  0  0  0  0
  4 10  1  0  0  0  0
  4 11  1  0  0  0  0
  4 15  1  0  0  0  0
  5  6  1  0  0  0  0
  5 16  1  0  0  0  0
  5 22  1  0  0  0  0
  6  7  2  0  0  0  0
  7 23  1  0  0  0  0
  8 10  1  0  0  0  0
  8 37  1  0  0  0  0
  8 38  1  0  0  0  0
  9 11  1  0  0  0  0
  9 39  1  0  0  0  0
  9 40  1  0  0  0  0
 10 41  1  0  0  0  0
 10 42  1  0  0  0  0
 11 43  1  0  0  0  0
 11 44  1  0  0  0  0
 12 13  1  0  0  0  0
 12 45  1  0  0  0  0
 12 46  1  0  0  0  0
 13 14  1  0  0  0  0
 13 47  1  0  0  0  0
 14 16  1  0  0  0  0
 14 48  1  0  0  0  0
 14 49  1  0  0  0  0
 15 17  1  0  0  0  0
 15 18  2  0  0  0  0
 16 50  1  0  0  0  0
 16 51  1  0  0  0  0
 17 19  2  0  0  0  0
 18 20  1  0  0  0  0
 18 52  1  0  0  0  0
 19 21  1  0  0  0  0
 19 54  1  0  0  0  0
 20 21  2  0  0  0  0
 20 55  1  0  0  0  0
 21 56  1  0  0  0  0
 22 23  2  0  0  0  0
 22 57  1  0  0  0  0
 23 24  1  0  0  0  0
 24 26  2  0  0  0  0
 24 27  1  0  0  0  0
 25 58  1  0  0  0  0
 25 59  1  0  0  0  0
 25 60  1  0  0  0  0
 26 29  1  0  0  0  0
 26 61  1  0  0  0  0
 27 30  2  0  0  0  0
 27 62  1  0  0  0  0
 28 29  2  0  0  0  0
 28 30  1  0  0  0  0
 28 31  1  0  0  0  0
 29 63  1  0  0  0  0
 30 64  1  0  0  0  0
 31 32  2  0  0  0  0
 31 33  1  0  0  0  0
 32 34  1  0  0  0  0
 32 65  1  0  0  0  0
 33 35  2  0  0  0  0
 33 66  1  0  0  0  0
 34 36  2  0  0  0  0
 34 67  1  0  0  0  0
 35 36  1  0  0  0  0
 35 68  1  0  0  0  0
 36 69  1  0  0  0  0
M  END
> <PUBCHEM_COMPOUND_CID>
122180619

> <PUBCHEM_COMPOUND_CANONICALIZED>
1

> <PUBCHEM_CACTVS_COMPLEXITY>
631

> <PUBCHEM_CACTVS_HBOND_ACCEPTOR>
6

> <PUBCHEM_CACTVS_HBOND_DONOR>
1

> <PUBCHEM_CACTVS_ROTATABLE_BOND>
9

> <PUBCHEM_CACTVS_SUBSKEYS>
AAADcfB7sAAAAAAAAAAAAAAAAAAAAWAAAAA8YMEAAAAAAAAB1AAAHgAICAAADBzhngY+xpMIBgCiAzRnRACCDAQxsgAY2CA/fJgOdqLEsZuVcChmwBHY6AeQwMAOwAAAAAAAEACAAAAAAAAgAAAAAAAAAA==

> <PUBCHEM_IUPAC_OPENEYE_NAME>
1-[4-(2-methoxyphenyl)piperazin-1-yl]-4-[4-(4-phenylphenyl)triazol-1-yl]butan-2-ol

> <PUBCHEM_IUPAC_CAS_NAME>
1-[4-(2-methoxyphenyl)-1-piperazinyl]-4-[4-(4-phenylphenyl)-1-triazolyl]-2-butanol

> <PUBCHEM_IUPAC_NAME_MARKUP>
1-[4-(2-methoxyphenyl)piperazin-1-yl]-4-[4-(4-phenylphenyl)triazol-1-yl]butan-2-ol

> <PUBCHEM_IUPAC_NAME>
1-[4-(2-methoxyphenyl)piperazin-1-yl]-4-[4-(4-phenylphenyl)triazol-1-yl]butan-2-ol

> <PUBCHEM_IUPAC_SYSTEMATIC_NAME>
1-[4-(2-methoxyphenyl)piperazin-1-yl]-4-[4-(4-phenylphenyl)-1,2,3-triazol-1-yl]butan-2-ol

> <PUBCHEM_IUPAC_TRADITIONAL_NAME>
1-[4-(2-methoxyphenyl)piperazino]-4-[4-(4-phenylphenyl)triazol-1-yl]butan-2-ol

> <PUBCHEM_IUPAC_INCHI>
InChI=1S/C29H33N5O2/c1-36-29-10-6-5-9-28(29)33-19-17-32(18-20-33)21-26(35)15-16-34-22-27(30-31-34)25-13-11-24(12-14-25)23-7-3-2-4-8-23/h2-14,22,26,35H,15-21H2,1H3

> <PUBCHEM_IUPAC_INCHIKEY>
NEGKSWMIZLWJGG-UHFFFAOYSA-N

> <PUBCHEM_XLOGP3_AA>
4.3

> <PUBCHEM_EXACT_MASS>
483.26342531

> <PUBCHEM_MOLECULAR_FORMULA>
C29H33N5O2

> <PUBCHEM_MOLECULAR_WEIGHT>
483.6

> <PUBCHEM_OPENEYE_CAN_SMILES>
COC1=CC=CC=C1N2CCN(CC2)CC(CCN3C=C(N=N3)C4=CC=C(C=C4)C5=CC=CC=C5)O

> <PUBCHEM_OPENEYE_ISO_SMILES>
COC1=CC=CC=C1N2CCN(CC2)CC(CCN3C=C(N=N3)C4=CC=C(C=C4)C5=CC=CC=C5)O

> <PUBCHEM_CACTVS_TPSA>
66.6

> <PUBCHEM_MONOISOTOPIC_WEIGHT>
483.26342531

> <PUBCHEM_TOTAL_CHARGE>
0

> <PUBCHEM_HEAVY_ATOM_COUNT>
36

> <PUBCHEM_ATOM_DEF_STEREO_COUNT>
0

> <PUBCHEM_ATOM_UDEF_STEREO_COUNT>
1

> <PUBCHEM_BOND_DEF_STEREO_COUNT>
0

> <PUBCHEM_BOND_UDEF_STEREO_COUNT>
0

> <PUBCHEM_ISOTOPIC_ATOM_COUNT>
0

> <PUBCHEM_COMPONENT_COUNT>
1

> <PUBCHEM_CACTVS_TAUTO_COUNT>
-1

> <PUBCHEM_COORDINATE_TYPE>
1
5
255

> <PUBCHEM_BONDANNOTATIONS>
13  1  3
15  17  8
15  18  8
17  19  8
18  20  8
19  21  8
20  21  8
22  23  8
24  26  8
24  27  8
26  29  8
27  30  8
28  29  8
28  30  8
31  32  8
31  33  8
32  34  8
33  35  8
34  36  8
35  36  8
5  22  8
5  6  8
6  7  8
7  23  8

$$$$
