44454339
  -OEChem-09292322492D

 78 83  0     1  0  0  0  0  0999 V2000
    6.2062    1.7399    0.0000 S   0  0  0  0  0  0  0  0  0  0  0  0
    5.1566   -7.0528    0.0000 O   0  0  0  0  0  0  0  0  0  0  0  0
    6.2062   -1.7242    0.0000 N   0  0  3  0  0  0  0  0  0  0  0  0
    3.5000   -6.4115    0.0000 N   0  0  0  0  0  0  0  0  0  0  0  0
    7.7008    2.7105    0.0000 N   0  0  0  0  0  0  0  0  0  0  0  0
    6.2995    3.5195    0.0000 N   0  0  0  0  0  0  0  0  0  0  0  0
    7.0426    4.1886    0.0000 N   0  0  0  0  0  0  0  0  0  0  0  0
    9.9651    6.5307    0.0000 N   0  0  0  0  0  0  0  0  0  0  0  0
    5.2283   -1.6496    0.0000 C   0  0  0  0  0  0  0  0  0  0  0  0
    6.7598   -2.5338    0.0000 C   0  0  0  0  0  0  0  0  0  0  0  0
    6.7062   -0.8582    0.0000 C   0  0  3  0  0  0  0  0  0  0  0  0
    4.6979   -3.3366    0.0000 C   0  0  0  0  0  0  0  0  0  0  0  0
    4.5583   -2.3658    0.0000 C   0  0  0  0  0  0  0  0  0  0  0  0
    6.4745   -3.4722    0.0000 C   0  0  0  0  0  0  0  0  0  0  0  0
    5.5640   -3.8366    0.0000 C   0  0  0  0  0  0  0  0  0  0  0  0
    3.8319   -4.8366    0.0000 C   0  0  0  0  0  0  0  0  0  0  0  0
    4.6979   -5.3366    0.0000 C   0  0  0  0  0  0  0  0  0  0  0  0
    3.0949   -5.5037    0.0000 C   0  0  0  0  0  0  0  0  0  0  0  0
    3.8319   -3.8366    0.0000 C   0  0  0  0  0  0  0  0  0  0  0  0
    5.5640   -4.8366    0.0000 C   0  0  0  0  0  0  0  0  0  0  0  0
    6.2062    0.0079    0.0000 C   0  0  0  0  0  0  0  0  0  0  0  0
    4.4887   -6.3085    0.0000 C   0  0  0  0  0  0  0  0  0  0  0  0
    7.7062   -0.8582    0.0000 C   0  0  0  0  0  0  0  0  0  0  0  0
    3.0000   -7.2776    0.0000 C   0  0  0  0  0  0  0  0  0  0  0  0
    6.7062    0.8739    0.0000 C   0  0  0  0  0  0  0  0  0  0  0  0
    2.0000   -7.2776    0.0000 C   0  0  0  0  0  0  0  0  0  0  0  0
    3.5000   -8.1436    0.0000 C   0  0  0  0  0  0  0  0  0  0  0  0
    6.7062    2.6059    0.0000 C   0  0  0  0  0  0  0  0  0  0  0  0
    7.9087    3.6886    0.0000 C   0  0  0  0  0  0  0  0  0  0  0  0
    8.8222    4.0954    0.0000 C   0  0  0  0  0  0  0  0  0  0  0  0
    8.3699    1.9673    0.0000 C   0  0  0  0  0  0  0  0  0  0  0  0
    8.9267    5.0899    0.0000 C   0  0  0  0  0  0  0  0  0  0  0  0
    9.6312    3.5076    0.0000 C   0  0  0  0  0  0  0  0  0  0  0  0
    9.8403    5.4966    0.0000 C   0  0  0  0  0  0  0  0  0  0  0  0
    8.0747    5.6891    0.0000 C   0  0  0  0  0  0  0  0  0  0  0  0
   10.5448    3.9143    0.0000 C   0  0  0  0  0  0  0  0  0  0  0  0
   10.6493    4.9088    0.0000 C   0  0  0  0  0  0  0  0  0  0  0  0
    8.1756    6.7258    0.0000 C   0  0  0  0  0  0  0  0  0  0  0  0
    9.1272    7.1495    0.0000 C   0  0  0  0  0  0  0  0  0  0  0  0
    9.2355    8.1436    0.0000 C   0  0  0  0  0  0  0  0  0  0  0  0
    5.4124   -1.0575    0.0000 H   0  0  0  0  0  0  0  0  0  0  0  0
    4.6923   -1.3379    0.0000 H   0  0  0  0  0  0  0  0  0  0  0  0
    7.2977   -2.8421    0.0000 H   0  0  0  0  0  0  0  0  0  0  0  0
    7.1805   -2.0784    0.0000 H   0  0  0  0  0  0  0  0  0  0  0  0
    7.0162   -1.3951    0.0000 H   0  0  0  0  0  0  0  0  0  0  0  0
    4.2116   -1.8519    0.0000 H   0  0  0  0  0  0  0  0  0  0  0  0
    3.9798   -2.5890    0.0000 H   0  0  0  0  0  0  0  0  0  0  0  0
    6.5705   -4.0847    0.0000 H   0  0  0  0  0  0  0  0  0  0  0  0
    7.0930   -3.5155    0.0000 H   0  0  0  0  0  0  0  0  0  0  0  0
    2.7294   -5.0029    0.0000 H   0  0  0  0  0  0  0  0  0  0  0  0
    2.5584   -5.8145    0.0000 H   0  0  0  0  0  0  0  0  0  0  0  0
    3.2950   -3.5266    0.0000 H   0  0  0  0  0  0  0  0  0  0  0  0
    6.1009   -5.1466    0.0000 H   0  0  0  0  0  0  0  0  0  0  0  0
    5.7313    0.4064    0.0000 H   0  0  0  0  0  0  0  0  0  0  0  0
    5.7313   -0.3907    0.0000 H   0  0  0  0  0  0  0  0  0  0  0  0
    7.7062   -1.4782    0.0000 H   0  0  0  0  0  0  0  0  0  0  0  0
    8.3262   -0.8582    0.0000 H   0  0  0  0  0  0  0  0  0  0  0  0
    7.7062   -0.2382    0.0000 H   0  0  0  0  0  0  0  0  0  0  0  0
    2.6900   -7.8145    0.0000 H   0  0  0  0  0  0  0  0  0  0  0  0
    7.1812    0.4754    0.0000 H   0  0  0  0  0  0  0  0  0  0  0  0
    7.1812    1.2724    0.0000 H   0  0  0  0  0  0  0  0  0  0  0  0
    2.0000   -6.6576    0.0000 H   0  0  0  0  0  0  0  0  0  0  0  0
    1.3800   -7.2776    0.0000 H   0  0  0  0  0  0  0  0  0  0  0  0
    2.0000   -7.8976    0.0000 H   0  0  0  0  0  0  0  0  0  0  0  0
    2.9631   -8.4536    0.0000 H   0  0  0  0  0  0  0  0  0  0  0  0
    3.8100   -8.6805    0.0000 H   0  0  0  0  0  0  0  0  0  0  0  0
    4.0369   -7.8336    0.0000 H   0  0  0  0  0  0  0  0  0  0  0  0
    7.9091    1.5525    0.0000 H   0  0  0  0  0  0  0  0  0  0  0  0
    8.7848    1.5066    0.0000 H   0  0  0  0  0  0  0  0  0  0  0  0
    8.8306    2.3822    0.0000 H   0  0  0  0  0  0  0  0  0  0  0  0
    9.5664    2.8910    0.0000 H   0  0  0  0  0  0  0  0  0  0  0  0
    7.5113    5.4304    0.0000 H   0  0  0  0  0  0  0  0  0  0  0  0
   11.0464    3.5499    0.0000 H   0  0  0  0  0  0  0  0  0  0  0  0
   11.2157    5.1610    0.0000 H   0  0  0  0  0  0  0  0  0  0  0  0
    7.6726    7.0883    0.0000 H   0  0  0  0  0  0  0  0  0  0  0  0
    9.8519    8.0764    0.0000 H   0  0  0  0  0  0  0  0  0  0  0  0
    9.3027    8.7599    0.0000 H   0  0  0  0  0  0  0  0  0  0  0  0
    8.6192    8.2108    0.0000 H   0  0  0  0  0  0  0  0  0  0  0  0
  1 25  1  0  0  0  0
  1 28  1  0  0  0  0
  2 22  2  0  0  0  0
  3  9  1  0  0  0  0
  3 10  1  0  0  0  0
  3 11  1  0  0  0  0
  4 18  1  0  0  0  0
  4 22  1  0  0  0  0
  4 24  1  0  0  0  0
  5 28  1  0  0  0  0
  5 29  1  0  0  0  0
  5 31  1  0  0  0  0
  6  7  1  0  0  0  0
  6 28  2  0  0  0  0
  7 29  2  0  0  0  0
  8 34  1  0  0  0  0
  8 39  2  0  0  0  0
  9 13  1  0  0  0  0
  9 41  1  0  0  0  0
  9 42  1  0  0  0  0
 10 14  1  0  0  0  0
 10 43  1  0  0  0  0
 10 44  1  0  0  0  0
 11 21  1  0  0  0  0
 11 23  1  0  0  0  0
 11 45  1  0  0  0  0
 12 13  1  0  0  0  0
 12 15  1  0  0  0  0
 12 19  2  0  0  0  0
 13 46  1  0  0  0  0
 13 47  1  0  0  0  0
 14 15  1  0  0  0  0
 14 48  1  0  0  0  0
 14 49  1  0  0  0  0
 15 20  2  0  0  0  0
 16 17  2  0  0  0  0
 16 18  1  0  0  0  0
 16 19  1  0  0  0  0
 17 20  1  0  0  0  0
 17 22  1  0  0  0  0
 18 50  1  0  0  0  0
 18 51  1  0  0  0  0
 19 52  1  0  0  0  0
 20 53  1  0  0  0  0
 21 25  1  0  0  0  0
 21 54  1  0  0  0  0
 21 55  1  0  0  0  0
 23 56  1  0  0  0  0
 23 57  1  0  0  0  0
 23 58  1  0  0  0  0
 24 26  1  0  0  0  0
 24 27  1  0  0  0  0
 24 59  1  0  0  0  0
 25 60  1  0  0  0  0
 25 61  1  0  0  0  0
 26 62  1  0  0  0  0
 26 63  1  0  0  0  0
 26 64  1  0  0  0  0
 27 65  1  0  0  0  0
 27 66  1  0  0  0  0
 27 67  1  0  0  0  0
 29 30  1  0  0  0  0
 30 32  2  0  0  0  0
 30 33  1  0  0  0  0
 31 68  1  0  0  0  0
 31 69  1  0  0  0  0
 31 70  1  0  0  0  0
 32 34  1  0  0  0  0
 32 35  1  0  0  0  0
 33 36  2  0  0  0  0
 33 71  1  0  0  0  0
 34 37  2  0  0  0  0
 35 38  2  0  0  0  0
 35 72  1  0  0  0  0
 36 37  1  0  0  0  0
 36 73  1  0  0  0  0
 37 74  1  0  0  0  0
 38 39  1  0  0  0  0
 38 75  1  0  0  0  0
 39 40  1  0  0  0  0
 40 76  1  0  0  0  0
 40 77  1  0  0  0  0
 40 78  1  0  0  0  0
M  END
> <PUBCHEM_COMPOUND_CID>
44454339

> <PUBCHEM_COMPOUND_CANONICALIZED>
1

> <PUBCHEM_CACTVS_COMPLEXITY>
874

> <PUBCHEM_CACTVS_HBOND_ACCEPTOR>
6

> <PUBCHEM_CACTVS_HBOND_DONOR>
0

> <PUBCHEM_CACTVS_ROTATABLE_BOND>
7

> <PUBCHEM_CACTVS_SUBSKEYS>
AAADcfB/oABAAAAAAAAAAAAAAAAAAWLAAAA8YIAABYAAAFix/AAAHgQIAAAADCjF3wSz0PcMEAiqAydydACS0CtlArAd2CE4ZNiIKPLgnZGEIQhgjgLIyYcciMCOwAACQAASAACAAASAACQAAAAAAAAAAA==

> <PUBCHEM_IUPAC_OPENEYE_NAME>
2-isopropyl-7-[1-methyl-3-[[4-methyl-5-(2-methyl-5-quinolyl)-1,2,4-triazol-3-yl]sulfanyl]propyl]-5,6,8,9-tetrahydro-1H-pyrrolo[3,4-h][3]benzazepin-3-one

> <PUBCHEM_IUPAC_CAS_NAME>
7-[4-[[4-methyl-5-(2-methyl-5-quinolinyl)-1,2,4-triazol-3-yl]thio]butan-2-yl]-2-propan-2-yl-5,6,8,9-tetrahydro-1H-pyrrolo[3,4-h][3]benzazepin-3-one

> <PUBCHEM_IUPAC_NAME_MARKUP>
7-[4-[[4-methyl-5-(2-methylquinolin-5-yl)-1,2,4-triazol-3-yl]sulfanyl]butan-2-yl]-2-propan-2-yl-5,6,8,9-tetrahydro-1<I>H</I>-pyrrolo[3,4-h][3]benzazepin-3-one

> <PUBCHEM_IUPAC_NAME>
7-[4-[[4-methyl-5-(2-methylquinolin-5-yl)-1,2,4-triazol-3-yl]sulfanyl]butan-2-yl]-2-propan-2-yl-5,6,8,9-tetrahydro-1H-pyrrolo[3,4-h][3]benzazepin-3-one

> <PUBCHEM_IUPAC_SYSTEMATIC_NAME>
7-[4-[[4-methyl-5-(2-methylquinolin-5-yl)-1,2,4-triazol-3-yl]sulfanyl]butan-2-yl]-2-propan-2-yl-5,6,8,9-tetrahydro-1H-pyrrolo[3,4-h][3]benzazepin-3-one

> <PUBCHEM_IUPAC_TRADITIONAL_NAME>
2-isopropyl-7-[1-methyl-3-[[4-methyl-5-(2-methyl-5-quinolyl)-1,2,4-triazol-3-yl]thio]propyl]-5,6,8,9-tetrahydro-1H-pyrrolo[3,4-h][3]benzazepin-3-one

> <PUBCHEM_IUPAC_INCHI>
InChI=1S/C32H38N6OS/c1-20(2)38-19-25-17-23-11-14-37(15-12-24(23)18-28(25)31(38)39)22(4)13-16-40-32-35-34-30(36(32)5)27-7-6-8-29-26(27)10-9-21(3)33-29/h6-10,17-18,20,22H,11-16,19H2,1-5H3

> <PUBCHEM_IUPAC_INCHIKEY>
VYGLNPIKDOAMBL-UHFFFAOYSA-N

> <PUBCHEM_XLOGP3_AA>
5.3

> <PUBCHEM_EXACT_MASS>
554.28278103

> <PUBCHEM_MOLECULAR_FORMULA>
C32H38N6OS

> <PUBCHEM_MOLECULAR_WEIGHT>
554.8

> <PUBCHEM_OPENEYE_CAN_SMILES>
CC1=NC2=CC=CC(=C2C=C1)C3=NN=C(N3C)SCCC(C)N4CCC5=CC6=C(C=C5CC4)C(=O)N(C6)C(C)C

> <PUBCHEM_OPENEYE_ISO_SMILES>
CC1=NC2=CC=CC(=C2C=C1)C3=NN=C(N3C)SCCC(C)N4CCC5=CC6=C(C=C5CC4)C(=O)N(C6)C(C)C

> <PUBCHEM_CACTVS_TPSA>
92.4

> <PUBCHEM_MONOISOTOPIC_WEIGHT>
554.28278103

> <PUBCHEM_TOTAL_CHARGE>
0

> <PUBCHEM_HEAVY_ATOM_COUNT>
40

> <PUBCHEM_ATOM_DEF_STEREO_COUNT>
0

> <PUBCHEM_ATOM_UDEF_STEREO_COUNT>
1

> <PUBCHEM_BOND_DEF_STEREO_COUNT>
0

> <PUBCHEM_BOND_UDEF_STEREO_COUNT>
0

> <PUBCHEM_ISOTOPIC_ATOM_COUNT>
0

> <PUBCHEM_COMPONENT_COUNT>
1

> <PUBCHEM_CACTVS_TAUTO_COUNT>
-1

> <PUBCHEM_COORDINATE_TYPE>
1
5
255

> <PUBCHEM_BONDANNOTATIONS>
11  23  3
12  15  8
12  19  8
15  20  8
16  17  8
16  19  8
17  20  8
30  32  8
30  33  8
32  34  8
32  35  8
33  36  8
34  37  8
35  38  8
36  37  8
38  39  8
5  28  8
5  29  8
6  28  8
6  7  8
7  29  8
8  34  8
8  39  8

$$$$
