27400
  -OEChem-09292322342D

 42 45  0     0  0  0  0  0  0999 V2000
    2.3899    2.4000    0.0000 S   0  0  0  0  0  0  0  0  0  0  0  0
    4.5037   -2.0953    0.0000 N   0  0  0  0  0  0  0  0  0  0  0  0
    4.5037   -0.0953    0.0000 C   0  0  0  0  0  0  0  0  0  0  0  0
    3.6377   -0.5953    0.0000 C   0  0  0  0  0  0  0  0  0  0  0  0
    5.3697   -0.5953    0.0000 C   0  0  0  0  0  0  0  0  0  0  0  0
    4.5037    0.9047    0.0000 C   0  0  0  0  0  0  0  0  0  0  0  0
    3.6376   -1.5953    0.0000 C   0  0  0  0  0  0  0  0  0  0  0  0
    5.3697   -1.5953    0.0000 C   0  0  0  0  0  0  0  0  0  0  0  0
    5.4047    1.3385    0.0000 C   0  0  0  0  0  0  0  0  0  0  0  0
    3.6027    1.3386    0.0000 C   0  0  0  0  0  0  0  0  0  0  0  0
    5.6272    2.3135    0.0000 C   0  0  0  0  0  0  0  0  0  0  0  0
    5.0037    3.0953    0.0000 C   0  0  0  0  0  0  0  0  0  0  0  0
    4.0037    3.0953    0.0000 C   0  0  0  0  0  0  0  0  0  0  0  0
    3.3802    2.3135    0.0000 C   0  0  0  0  0  0  0  0  0  0  0  0
    4.5037   -3.0953    0.0000 C   0  0  0  0  0  0  0  0  0  0  0  0
    2.7480    0.8309    0.0000 C   0  0  0  0  0  0  0  0  0  0  0  0
    6.1572    0.6184    0.0000 C   0  0  0  0  0  0  0  0  0  0  0  0
    6.6177    2.6358    0.0000 C   0  0  0  0  0  0  0  0  0  0  0  0
    2.0000    1.4856    0.0000 C   0  0  0  0  0  0  0  0  0  0  0  0
    7.1549    0.9177    0.0000 C   0  0  0  0  0  0  0  0  0  0  0  0
    7.3867    1.9332    0.0000 C   0  0  0  0  0  0  0  0  0  0  0  0
    3.4256   -0.0127    0.0000 H   0  0  0  0  0  0  0  0  0  0  0  0
    3.0271   -0.7030    0.0000 H   0  0  0  0  0  0  0  0  0  0  0  0
    5.9803   -0.7030    0.0000 H   0  0  0  0  0  0  0  0  0  0  0  0
    5.5818   -0.0127    0.0000 H   0  0  0  0  0  0  0  0  0  0  0  0
    3.0271   -1.4876    0.0000 H   0  0  0  0  0  0  0  0  0  0  0  0
    3.4256   -2.1779    0.0000 H   0  0  0  0  0  0  0  0  0  0  0  0
    5.5818   -2.1779    0.0000 H   0  0  0  0  0  0  0  0  0  0  0  0
    5.9803   -1.4877    0.0000 H   0  0  0  0  0  0  0  0  0  0  0  0
    5.5623    3.3643    0.0000 H   0  0  0  0  0  0  0  0  0  0  0  0
    4.8658    3.6998    0.0000 H   0  0  0  0  0  0  0  0  0  0  0  0
    4.1417    3.6998    0.0000 H   0  0  0  0  0  0  0  0  0  0  0  0
    3.4451    3.3643    0.0000 H   0  0  0  0  0  0  0  0  0  0  0  0
    3.8837   -3.0953    0.0000 H   0  0  0  0  0  0  0  0  0  0  0  0
    4.5037   -3.7153    0.0000 H   0  0  0  0  0  0  0  0  0  0  0  0
    5.1237   -3.0953    0.0000 H   0  0  0  0  0  0  0  0  0  0  0  0
    2.6914    0.2135    0.0000 H   0  0  0  0  0  0  0  0  0  0  0  0
    6.0123    0.0156    0.0000 H   0  0  0  0  0  0  0  0  0  0  0  0
    6.7487    3.2418    0.0000 H   0  0  0  0  0  0  0  0  0  0  0  0
    1.3955    1.3477    0.0000 H   0  0  0  0  0  0  0  0  0  0  0  0
    7.6078    0.4942    0.0000 H   0  0  0  0  0  0  0  0  0  0  0  0
    7.9784    2.1183    0.0000 H   0  0  0  0  0  0  0  0  0  0  0  0
  1 14  1  0  0  0  0
  1 19  1  0  0  0  0
  2  7  1  0  0  0  0
  2  8  1  0  0  0  0
  2 15  1  0  0  0  0
  3  4  1  0  0  0  0
  3  5  1  0  0  0  0
  3  6  2  0  0  0  0
  4  7  1  0  0  0  0
  4 22  1  0  0  0  0
  4 23  1  0  0  0  0
  5  8  1  0  0  0  0
  5 24  1  0  0  0  0
  5 25  1  0  0  0  0
  6  9  1  0  0  0  0
  6 10  1  0  0  0  0
  7 26  1  0  0  0  0
  7 27  1  0  0  0  0
  8 28  1  0  0  0  0
  8 29  1  0  0  0  0
  9 11  1  0  0  0  0
  9 17  2  0  0  0  0
 10 14  2  0  0  0  0
 10 16  1  0  0  0  0
 11 12  1  0  0  0  0
 11 18  2  0  0  0  0
 12 13  1  0  0  0  0
 12 30  1  0  0  0  0
 12 31  1  0  0  0  0
 13 14  1  0  0  0  0
 13 32  1  0  0  0  0
 13 33  1  0  0  0  0
 15 34  1  0  0  0  0
 15 35  1  0  0  0  0
 15 36  1  0  0  0  0
 16 19  2  0  0  0  0
 16 37  1  0  0  0  0
 17 20  1  0  0  0  0
 17 38  1  0  0  0  0
 18 21  1  0  0  0  0
 18 39  1  0  0  0  0
 19 40  1  0  0  0  0
 20 21  2  0  0  0  0
 20 41  1  0  0  0  0
 21 42  1  0  0  0  0
M  END
> <PUBCHEM_COMPOUND_CID>
27400

> <PUBCHEM_COMPOUND_CANONICALIZED>
1

> <PUBCHEM_CACTVS_COMPLEXITY>
406

> <PUBCHEM_CACTVS_HBOND_ACCEPTOR>
2

> <PUBCHEM_CACTVS_HBOND_DONOR>
0

> <PUBCHEM_CACTVS_ROTATABLE_BOND>
0

> <PUBCHEM_CACTVS_SUBSKEYS>
AAADceB6AABAAAAAAAAAAAAAAAAAASAAAAA8QAAABgAAAACRwAAAHAQAAAAADADFWASyAYMAAAiEAiBCAAADAIAgCBBIiBgIAIgIICKgkRCEIAAggACoiAcQgMAOgAAAAAAQAAAAAAAAACAAAAAAAAAAAA==

> <PUBCHEM_IUPAC_OPENEYE_NAME>
1-methyl-4-(6-thiatricyclo[8.4.0.03,7]tetradeca-1(14),3(7),4,10,12-pentaen-2-ylidene)piperidine

> <PUBCHEM_IUPAC_CAS_NAME>
1-methyl-4-(6-thiatricyclo[8.4.0.03,7]tetradeca-1(14),3(7),4,10,12-pentaen-2-ylidene)piperidine

> <PUBCHEM_IUPAC_NAME_MARKUP>
1-methyl-4-(6-thiatricyclo[8.4.0.0<SUP>3,7</SUP>]tetradeca-1(14),3(7),4,10,12-pentaen-2-ylidene)piperidine

> <PUBCHEM_IUPAC_NAME>
1-methyl-4-(6-thiatricyclo[8.4.0.03,7]tetradeca-1(14),3(7),4,10,12-pentaen-2-ylidene)piperidine

> <PUBCHEM_IUPAC_SYSTEMATIC_NAME>
1-methyl-4-(6-thiatricyclo[8.4.0.03,7]tetradeca-1(14),3(7),4,10,12-pentaen-2-ylidene)piperidine

> <PUBCHEM_IUPAC_TRADITIONAL_NAME>
1-methyl-4-(6-thiatricyclo[8.4.0.03,7]tetradeca-1(14),3(7),4,10,12-pentaen-2-ylidene)piperidine

> <PUBCHEM_IUPAC_INCHI>
InChI=1S/C19H21NS/c1-20-11-8-15(9-12-20)19-16-5-3-2-4-14(16)6-7-18-17(19)10-13-21-18/h2-5,10,13H,6-9,11-12H2,1H3

> <PUBCHEM_IUPAC_INCHIKEY>
FIADGNVRKBPQEU-UHFFFAOYSA-N

> <PUBCHEM_XLOGP3_AA>
3.8

> <PUBCHEM_EXACT_MASS>
295.13947085

> <PUBCHEM_MOLECULAR_FORMULA>
C19H21NS

> <PUBCHEM_MOLECULAR_WEIGHT>
295.4

> <PUBCHEM_OPENEYE_CAN_SMILES>
CN1CCC(=C2C3=C(CCC4=CC=CC=C42)SC=C3)CC1

> <PUBCHEM_OPENEYE_ISO_SMILES>
CN1CCC(=C2C3=C(CCC4=CC=CC=C42)SC=C3)CC1

> <PUBCHEM_CACTVS_TPSA>
31.5

> <PUBCHEM_MONOISOTOPIC_WEIGHT>
295.13947085

> <PUBCHEM_TOTAL_CHARGE>
0

> <PUBCHEM_HEAVY_ATOM_COUNT>
21

> <PUBCHEM_ATOM_DEF_STEREO_COUNT>
0

> <PUBCHEM_ATOM_UDEF_STEREO_COUNT>
0

> <PUBCHEM_BOND_DEF_STEREO_COUNT>
0

> <PUBCHEM_BOND_UDEF_STEREO_COUNT>
0

> <PUBCHEM_ISOTOPIC_ATOM_COUNT>
0

> <PUBCHEM_COMPONENT_COUNT>
1

> <PUBCHEM_CACTVS_TAUTO_COUNT>
-1

> <PUBCHEM_COORDINATE_TYPE>
1
5
255

> <PUBCHEM_BONDANNOTATIONS>
1  14  8
1  19  8
10  14  8
10  16  8
11  18  8
16  19  8
17  20  8
18  21  8
20  21  8
9  11  8
9  17  8

$$$$
