73671062
  -OEChem-09292322352D

 83 86  0     0  0  0  0  0  0999 V2000
    2.3660   -6.4510    0.0000 F   0  0  0  0  0  0  0  0  0  0  0  0
    2.0000   -7.8170    0.0000 F   0  0  0  0  0  0  0  0  0  0  0  0
    3.3660   -8.1830    0.0000 F   0  0  0  0  0  0  0  0  0  0  0  0
    8.0622    1.6830    0.0000 O   0  0  0  0  0  0  0  0  0  0  0  0
    7.1962    5.1830    0.0000 N   0  0  0  0  0  0  0  0  0  0  0  0
    4.5981   -2.3170    0.0000 N   0  0  0  0  0  0  0  0  0  0  0  0
    4.5981   -4.3170    0.0000 N   0  0  0  0  0  0  0  0  0  0  0  0
    6.3301    1.6830    0.0000 N   0  0  0  0  0  0  0  0  0  0  0  0
    5.4641   -5.8170    0.0000 N   0  0  0  0  0  0  0  0  0  0  0  0
    4.5981   -7.3170    0.0000 N   0  0  0  0  0  0  0  0  0  0  0  0
    7.1962    3.1830    0.0000 C   0  0  0  0  0  0  0  0  0  0  0  0
    8.0622    3.6830    0.0000 C   0  0  0  0  0  0  0  0  0  0  0  0
    6.3301    3.6830    0.0000 C   0  0  0  0  0  0  0  0  0  0  0  0
    8.0622    4.6830    0.0000 C   0  0  0  0  0  0  0  0  0  0  0  0
    6.3301    4.6830    0.0000 C   0  0  0  0  0  0  0  0  0  0  0  0
    3.7320   -2.8170    0.0000 C   0  0  0  0  0  0  0  0  0  0  0  0
    5.4641   -2.8170    0.0000 C   0  0  0  0  0  0  0  0  0  0  0  0
    7.1962    2.1830    0.0000 C   0  0  0  0  0  0  0  0  0  0  0  0
    4.5981   -1.3170    0.0000 C   0  0  0  0  0  0  0  0  0  0  0  0
    3.7320   -3.8170    0.0000 C   0  0  0  0  0  0  0  0  0  0  0  0
    5.4641   -3.8170    0.0000 C   0  0  0  0  0  0  0  0  0  0  0  0
    7.1962    6.1830    0.0000 C   0  0  0  0  0  0  0  0  0  0  0  0
    5.4641   -0.8170    0.0000 C   0  0  0  0  0  0  0  0  0  0  0  0
    5.4641    0.1830    0.0000 C   0  0  0  0  0  0  0  0  0  0  0  0
    6.3301    0.6830    0.0000 C   0  0  0  0  0  0  0  0  0  0  0  0
    4.5981   -5.3170    0.0000 C   0  0  0  0  0  0  0  0  0  0  0  0
    8.0622    6.6830    0.0000 C   0  0  0  0  0  0  0  0  0  0  0  0
    6.3301   -7.3170    0.0000 C   0  0  0  0  0  0  0  0  0  0  0  0
    3.7320   -5.8170    0.0000 C   0  0  0  0  0  0  0  0  0  0  0  0
    5.4641   -6.8170    0.0000 C   0  0  0  0  0  0  0  0  0  0  0  0
    8.0622    7.6830    0.0000 C   0  0  0  0  0  0  0  0  0  0  0  0
    8.9282    6.1830    0.0000 C   0  0  0  0  0  0  0  0  0  0  0  0
    3.7320   -6.8170    0.0000 C   0  0  0  0  0  0  0  0  0  0  0  0
    7.1962   -7.8170    0.0000 C   0  0  0  0  0  0  0  0  0  0  0  0
    5.8301   -8.1830    0.0000 C   0  0  0  0  0  0  0  0  0  0  0  0
    6.8301   -6.4510    0.0000 C   0  0  0  0  0  0  0  0  0  0  0  0
    8.9282    8.1830    0.0000 C   0  0  0  0  0  0  0  0  0  0  0  0
    9.7942    6.6830    0.0000 C   0  0  0  0  0  0  0  0  0  0  0  0
    2.8660   -7.3170    0.0000 C   0  0  0  0  0  0  0  0  0  0  0  0
    9.7942    7.6830    0.0000 C   0  0  0  0  0  0  0  0  0  0  0  0
    6.6592    2.8730    0.0000 H   0  0  0  0  0  0  0  0  0  0  0  0
    8.2742    3.1004    0.0000 H   0  0  0  0  0  0  0  0  0  0  0  0
    8.6728    3.7907    0.0000 H   0  0  0  0  0  0  0  0  0  0  0  0
    5.7196    3.7907    0.0000 H   0  0  0  0  0  0  0  0  0  0  0  0
    6.1181    3.1004    0.0000 H   0  0  0  0  0  0  0  0  0  0  0  0
    8.6728    4.5754    0.0000 H   0  0  0  0  0  0  0  0  0  0  0  0
    8.2742    5.2656    0.0000 H   0  0  0  0  0  0  0  0  0  0  0  0
    6.1181    5.2656    0.0000 H   0  0  0  0  0  0  0  0  0  0  0  0
    5.7196    4.5754    0.0000 H   0  0  0  0  0  0  0  0  0  0  0  0
    3.5200   -2.2344    0.0000 H   0  0  0  0  0  0  0  0  0  0  0  0
    3.1215   -2.9247    0.0000 H   0  0  0  0  0  0  0  0  0  0  0  0
    6.0747   -2.9247    0.0000 H   0  0  0  0  0  0  0  0  0  0  0  0
    5.6762   -2.2344    0.0000 H   0  0  0  0  0  0  0  0  0  0  0  0
    4.3860   -0.7344    0.0000 H   0  0  0  0  0  0  0  0  0  0  0  0
    3.9875   -1.4246    0.0000 H   0  0  0  0  0  0  0  0  0  0  0  0
    3.1215   -3.7093    0.0000 H   0  0  0  0  0  0  0  0  0  0  0  0
    3.5200   -4.3996    0.0000 H   0  0  0  0  0  0  0  0  0  0  0  0
    5.6762   -4.3996    0.0000 H   0  0  0  0  0  0  0  0  0  0  0  0
    6.0747   -3.7093    0.0000 H   0  0  0  0  0  0  0  0  0  0  0  0
    6.9841    6.7656    0.0000 H   0  0  0  0  0  0  0  0  0  0  0  0
    6.5856    6.0754    0.0000 H   0  0  0  0  0  0  0  0  0  0  0  0
    5.6762   -1.3996    0.0000 H   0  0  0  0  0  0  0  0  0  0  0  0
    6.0747   -0.7093    0.0000 H   0  0  0  0  0  0  0  0  0  0  0  0
    5.2520    0.7656    0.0000 H   0  0  0  0  0  0  0  0  0  0  0  0
    4.8535    0.0754    0.0000 H   0  0  0  0  0  0  0  0  0  0  0  0
    6.5422    0.1004    0.0000 H   0  0  0  0  0  0  0  0  0  0  0  0
    6.9407    0.7907    0.0000 H   0  0  0  0  0  0  0  0  0  0  0  0
    5.7932    1.9930    0.0000 H   0  0  0  0  0  0  0  0  0  0  0  0
    3.1951   -5.5070    0.0000 H   0  0  0  0  0  0  0  0  0  0  0  0
    7.5252    7.9930    0.0000 H   0  0  0  0  0  0  0  0  0  0  0  0
    8.9282    5.5630    0.0000 H   0  0  0  0  0  0  0  0  0  0  0  0
    6.8862   -8.3539    0.0000 H   0  0  0  0  0  0  0  0  0  0  0  0
    7.7331   -8.1270    0.0000 H   0  0  0  0  0  0  0  0  0  0  0  0
    7.5062   -7.2800    0.0000 H   0  0  0  0  0  0  0  0  0  0  0  0
    5.2932   -7.8730    0.0000 H   0  0  0  0  0  0  0  0  0  0  0  0
    5.5201   -8.7200    0.0000 H   0  0  0  0  0  0  0  0  0  0  0  0
    6.3671   -8.4930    0.0000 H   0  0  0  0  0  0  0  0  0  0  0  0
    7.3671   -6.7610    0.0000 H   0  0  0  0  0  0  0  0  0  0  0  0
    7.1401   -5.9140    0.0000 H   0  0  0  0  0  0  0  0  0  0  0  0
    6.2932   -6.1410    0.0000 H   0  0  0  0  0  0  0  0  0  0  0  0
    8.9282    8.8030    0.0000 H   0  0  0  0  0  0  0  0  0  0  0  0
   10.3312    6.3730    0.0000 H   0  0  0  0  0  0  0  0  0  0  0  0
   10.3312    7.9930    0.0000 H   0  0  0  0  0  0  0  0  0  0  0  0
  1 39  1  0  0  0  0
  2 39  1  0  0  0  0
  3 39  1  0  0  0  0
  4 18  2  0  0  0  0
  5 14  1  0  0  0  0
  5 15  1  0  0  0  0
  5 22  1  0  0  0  0
  6 16  1  0  0  0  0
  6 17  1  0  0  0  0
  6 19  1  0  0  0  0
  7 20  1  0  0  0  0
  7 21  1  0  0  0  0
  7 26  1  0  0  0  0
  8 18  1  0  0  0  0
  8 25  1  0  0  0  0
  8 68  1  0  0  0  0
  9 26  2  0  0  0  0
  9 30  1  0  0  0  0
 10 30  2  0  0  0  0
 10 33  1  0  0  0  0
 11 12  1  0  0  0  0
 11 13  1  0  0  0  0
 11 18  1  0  0  0  0
 11 41  1  0  0  0  0
 12 14  1  0  0  0  0
 12 42  1  0  0  0  0
 12 43  1  0  0  0  0
 13 15  1  0  0  0  0
 13 44  1  0  0  0  0
 13 45  1  0  0  0  0
 14 46  1  0  0  0  0
 14 47  1  0  0  0  0
 15 48  1  0  0  0  0
 15 49  1  0  0  0  0
 16 20  1  0  0  0  0
 16 50  1  0  0  0  0
 16 51  1  0  0  0  0
 17 21  1  0  0  0  0
 17 52  1  0  0  0  0
 17 53  1  0  0  0  0
 19 23  1  0  0  0  0
 19 54  1  0  0  0  0
 19 55  1  0  0  0  0
 20 56  1  0  0  0  0
 20 57  1  0  0  0  0
 21 58  1  0  0  0  0
 21 59  1  0  0  0  0
 22 27  1  0  0  0  0
 22 60  1  0  0  0  0
 22 61  1  0  0  0  0
 23 24  1  0  0  0  0
 23 62  1  0  0  0  0
 23 63  1  0  0  0  0
 24 25  1  0  0  0  0
 24 64  1  0  0  0  0
 24 65  1  0  0  0  0
 25 66  1  0  0  0  0
 25 67  1  0  0  0  0
 26 29  1  0  0  0  0
 27 31  2  0  0  0  0
 27 32  1  0  0  0  0
 28 30  1  0  0  0  0
 28 34  1  0  0  0  0
 28 35  1  0  0  0  0
 28 36  1  0  0  0  0
 29 33  2  0  0  0  0
 29 69  1  0  0  0  0
 31 37  1  0  0  0  0
 31 70  1  0  0  0  0
 32 38  2  0  0  0  0
 32 71  1  0  0  0  0
 33 39  1  0  0  0  0
 34 72  1  0  0  0  0
 34 73  1  0  0  0  0
 34 74  1  0  0  0  0
 35 75  1  0  0  0  0
 35 76  1  0  0  0  0
 35 77  1  0  0  0  0
 36 78  1  0  0  0  0
 36 79  1  0  0  0  0
 36 80  1  0  0  0  0
 37 40  2  0  0  0  0
 37 81  1  0  0  0  0
 38 40  1  0  0  0  0
 38 82  1  0  0  0  0
 40 83  1  0  0  0  0
M  END
> <PUBCHEM_COMPOUND_CID>
73671062

> <PUBCHEM_COMPOUND_CANONICALIZED>
1

> <PUBCHEM_CACTVS_COMPLEXITY>
768

> <PUBCHEM_CACTVS_HBOND_ACCEPTOR>
9

> <PUBCHEM_CACTVS_HBOND_DONOR>
1

> <PUBCHEM_CACTVS_ROTATABLE_BOND>
10

> <PUBCHEM_CACTVS_SUBSKEYS>
AAADcfB7oYAAAAAAAAAAAAAAAAAAAAAAAAA8WLEAAAAAAAABwAAAHwAQAAAADwjBnxQzsJfIEACoAydydACCgCkhAqAJmKE4ZJiIaDLA2dGUJAholgLIyCcUgAAOAAAAAAAAAAAAAAAAAAAAAAAAAAAAAA==

> <PUBCHEM_IUPAC_OPENEYE_NAME>
1-benzyl-N-[4-[4-[2-tert-butyl-6-(trifluoromethyl)pyrimidin-4-yl]piperazin-1-yl]butyl]piperidine-4-carboxamide

> <PUBCHEM_IUPAC_CAS_NAME>
N-[4-[4-[2-tert-butyl-6-(trifluoromethyl)-4-pyrimidinyl]-1-piperazinyl]butyl]-1-(phenylmethyl)-4-piperidinecarboxamide

> <PUBCHEM_IUPAC_NAME_MARKUP>
1-benzyl-<I>N</I>-[4-[4-[2-<I>tert</I>-butyl-6-(trifluoromethyl)pyrimidin-4-yl]piperazin-1-yl]butyl]piperidine-4-carboxamide

> <PUBCHEM_IUPAC_NAME>
1-benzyl-N-[4-[4-[2-tert-butyl-6-(trifluoromethyl)pyrimidin-4-yl]piperazin-1-yl]butyl]piperidine-4-carboxamide

> <PUBCHEM_IUPAC_SYSTEMATIC_NAME>
N-[4-[4-[2-tert-butyl-6-(trifluoromethyl)pyrimidin-4-yl]piperazin-1-yl]butyl]-1-(phenylmethyl)piperidine-4-carboxamide

> <PUBCHEM_IUPAC_TRADITIONAL_NAME>
1-benzyl-N-[4-[4-[2-tert-butyl-6-(trifluoromethyl)pyrimidin-4-yl]piperazino]butyl]isonipecotamide

> <PUBCHEM_IUPAC_INCHI>
InChI=1S/C30H43F3N6O/c1-29(2,3)28-35-25(30(31,32)33)21-26(36-28)39-19-17-37(18-20-39)14-8-7-13-34-27(40)24-11-15-38(16-12-24)22-23-9-5-4-6-10-23/h4-6,9-10,21,24H,7-8,11-20,22H2,1-3H3,(H,34,40)

> <PUBCHEM_IUPAC_INCHIKEY>
HIPKZAPXNSTELT-UHFFFAOYSA-N

> <PUBCHEM_XLOGP3_AA>
5.1

> <PUBCHEM_EXACT_MASS>
560.34504450

> <PUBCHEM_MOLECULAR_FORMULA>
C30H43F3N6O

> <PUBCHEM_MOLECULAR_WEIGHT>
560.7

> <PUBCHEM_OPENEYE_CAN_SMILES>
CC(C)(C)C1=NC(=CC(=N1)N2CCN(CC2)CCCCNC(=O)C3CCN(CC3)CC4=CC=CC=C4)C(F)(F)F

> <PUBCHEM_OPENEYE_ISO_SMILES>
CC(C)(C)C1=NC(=CC(=N1)N2CCN(CC2)CCCCNC(=O)C3CCN(CC3)CC4=CC=CC=C4)C(F)(F)F

> <PUBCHEM_CACTVS_TPSA>
64.6

> <PUBCHEM_MONOISOTOPIC_WEIGHT>
560.34504450

> <PUBCHEM_TOTAL_CHARGE>
0

> <PUBCHEM_HEAVY_ATOM_COUNT>
40

> <PUBCHEM_ATOM_DEF_STEREO_COUNT>
0

> <PUBCHEM_ATOM_UDEF_STEREO_COUNT>
0

> <PUBCHEM_BOND_DEF_STEREO_COUNT>
0

> <PUBCHEM_BOND_UDEF_STEREO_COUNT>
0

> <PUBCHEM_ISOTOPIC_ATOM_COUNT>
0

> <PUBCHEM_COMPONENT_COUNT>
1

> <PUBCHEM_CACTVS_TAUTO_COUNT>
-1

> <PUBCHEM_COORDINATE_TYPE>
1
5
255

> <PUBCHEM_BONDANNOTATIONS>
10  30  8
10  33  8
26  29  8
27  31  8
27  32  8
29  33  8
31  37  8
32  38  8
37  40  8
38  40  8
9  26  8
9  30  8

$$$$
