154702343
  -OEChem-09292322452D

 61 64  0     1  0  0  0  0  0999 V2000
   10.6718   -1.2470    0.0000 O   0  0  0  0  0  0  0  0  0  0  0  0
   14.2019   -2.2229    0.0000 O   0  0  0  0  0  0  0  0  0  0  0  0
   14.2019    0.7771    0.0000 N   0  0  0  0  0  0  0  0  0  0  0  0
   15.0679   -0.7229    0.0000 N   0  0  0  0  0  0  0  0  0  0  0  0
    6.3397   -0.7637    0.0000 N   0  0  0  0  0  0  0  0  0  0  0  0
    4.6038    0.2296    0.0000 N   0  0  0  0  0  0  0  0  0  0  0  0
    3.7320    1.7262    0.0000 N   0  0  0  0  0  0  0  0  0  0  0  0
   13.3359   -0.7229    0.0000 C   0  0  3  0  0  0  0  0  0  0  0  0
   13.3359    0.2771    0.0000 C   0  0  3  0  0  0  0  0  0  0  0  0
   12.4419   -1.2576    0.0000 C   0  0  0  0  0  0  0  0  0  0  0  0
   11.5358   -0.7437    0.0000 C   0  0  3  0  0  0  0  0  0  0  0  0
   12.4419    0.8118    0.0000 C   0  0  0  0  0  0  0  0  0  0  0  0
   11.5358    0.2979    0.0000 C   0  0  0  0  0  0  0  0  0  0  0  0
   14.2019   -1.2229    0.0000 C   0  0  0  0  0  0  0  0  0  0  0  0
   15.0679    0.2771    0.0000 C   0  0  0  0  0  0  0  0  0  0  0  0
    9.8038   -0.7504    0.0000 C   0  0  0  0  0  0  0  0  0  0  0  0
    8.9397   -1.2537    0.0000 C   0  0  0  0  0  0  0  0  0  0  0  0
    8.0718   -0.7571    0.0000 C   0  0  0  0  0  0  0  0  0  0  0  0
    7.2077   -1.2604    0.0000 C   0  0  0  0  0  0  0  0  0  0  0  0
    6.3359    0.2363    0.0000 C   0  0  0  0  0  0  0  0  0  0  0  0
    5.4756   -1.2671    0.0000 C   0  0  0  0  0  0  0  0  0  0  0  0
    5.4679    0.7329    0.0000 C   0  0  0  0  0  0  0  0  0  0  0  0
    4.6077   -0.7704    0.0000 C   0  0  0  0  0  0  0  0  0  0  0  0
    3.7359    0.7262    0.0000 C   0  0  0  0  0  0  0  0  0  0  0  0
    2.8718    0.2229    0.0000 C   0  0  0  0  0  0  0  0  0  0  0  0
    2.0038    0.7196    0.0000 C   0  0  0  0  0  0  0  0  0  0  0  0
    2.8641    2.2229    0.0000 C   0  0  0  0  0  0  0  0  0  0  0  0
    2.0000    1.7196    0.0000 C   0  0  0  0  0  0  0  0  0  0  0  0
   13.3406   -1.3429    0.0000 H   0  0  0  0  0  0  0  0  0  0  0  0
   13.3406    0.8971    0.0000 H   0  0  0  0  0  0  0  0  0  0  0  0
   12.0483   -1.7366    0.0000 H   0  0  0  0  0  0  0  0  0  0  0  0
   12.8465   -1.7273    0.0000 H   0  0  0  0  0  0  0  0  0  0  0  0
   11.5394   -1.3637    0.0000 H   0  0  0  0  0  0  0  0  0  0  0  0
   12.8465    1.2816    0.0000 H   0  0  0  0  0  0  0  0  0  0  0  0
   12.0483    1.2908    0.0000 H   0  0  0  0  0  0  0  0  0  0  0  0
   11.3268    0.8816    0.0000 H   0  0  0  0  0  0  0  0  0  0  0  0
   10.9250    0.1918    0.0000 H   0  0  0  0  0  0  0  0  0  0  0  0
   14.2019    1.3971    0.0000 H   0  0  0  0  0  0  0  0  0  0  0  0
   15.6785    0.1694    0.0000 H   0  0  0  0  0  0  0  0  0  0  0  0
   15.2800    0.8597    0.0000 H   0  0  0  0  0  0  0  0  0  0  0  0
   15.6048   -1.0329    0.0000 H   0  0  0  0  0  0  0  0  0  0  0  0
   10.2005   -0.2739    0.0000 H   0  0  0  0  0  0  0  0  0  0  0  0
    9.4034   -0.2770    0.0000 H   0  0  0  0  0  0  0  0  0  0  0  0
    8.5430   -1.7302    0.0000 H   0  0  0  0  0  0  0  0  0  0  0  0
    9.3401   -1.7271    0.0000 H   0  0  0  0  0  0  0  0  0  0  0  0
    8.4685   -0.2806    0.0000 H   0  0  0  0  0  0  0  0  0  0  0  0
    7.6714   -0.2837    0.0000 H   0  0  0  0  0  0  0  0  0  0  0  0
    6.8110   -1.7369    0.0000 H   0  0  0  0  0  0  0  0  0  0  0  0
    7.6080   -1.7338    0.0000 H   0  0  0  0  0  0  0  0  0  0  0  0
    6.9469    0.1310    0.0000 H   0  0  0  0  0  0  0  0  0  0  0  0
    6.5457    0.8197    0.0000 H   0  0  0  0  0  0  0  0  0  0  0  0
    5.0789   -1.7436    0.0000 H   0  0  0  0  0  0  0  0  0  0  0  0
    5.8760   -1.7405    0.0000 H   0  0  0  0  0  0  0  0  0  0  0  0
    5.8646    1.2094    0.0000 H   0  0  0  0  0  0  0  0  0  0  0  0
    5.0676    1.2063    0.0000 H   0  0  0  0  0  0  0  0  0  0  0  0
    3.9967   -0.6651    0.0000 H   0  0  0  0  0  0  0  0  0  0  0  0
    4.3979   -1.3538    0.0000 H   0  0  0  0  0  0  0  0  0  0  0  0
    2.8742   -0.3971    0.0000 H   0  0  0  0  0  0  0  0  0  0  0  0
    1.4681    0.4075    0.0000 H   0  0  0  0  0  0  0  0  0  0  0  0
    2.8617    2.8429    0.0000 H   0  0  0  0  0  0  0  0  0  0  0  0
    1.4619    2.0275    0.0000 H   0  0  0  0  0  0  0  0  0  0  0  0
  1 11  1  0  0  0  0
  1 16  1  0  0  0  0
  2 14  2  0  0  0  0
  3  9  1  0  0  0  0
  3 15  1  0  0  0  0
  3 38  1  0  0  0  0
  4 14  1  0  0  0  0
  4 15  1  0  0  0  0
  4 41  1  0  0  0  0
  5 19  1  0  0  0  0
  5 20  1  0  0  0  0
  5 21  1  0  0  0  0
  6 22  1  0  0  0  0
  6 23  1  0  0  0  0
  6 24  1  0  0  0  0
  7 24  1  0  0  0  0
  7 27  2  0  0  0  0
  8  9  1  0  0  0  0
  8 10  1  0  0  0  0
  8 14  1  0  0  0  0
  8 29  1  0  0  0  0
  9 12  1  0  0  0  0
  9 30  1  0  0  0  0
 10 11  1  0  0  0  0
 10 31  1  0  0  0  0
 10 32  1  0  0  0  0
 11 13  1  0  0  0  0
 11 33  1  0  0  0  0
 12 13  1  0  0  0  0
 12 34  1  0  0  0  0
 12 35  1  0  0  0  0
 13 36  1  0  0  0  0
 13 37  1  0  0  0  0
 15 39  1  0  0  0  0
 15 40  1  0  0  0  0
 16 17  1  0  0  0  0
 16 42  1  0  0  0  0
 16 43  1  0  0  0  0
 17 18  1  0  0  0  0
 17 44  1  0  0  0  0
 17 45  1  0  0  0  0
 18 19  1  0  0  0  0
 18 46  1  0  0  0  0
 18 47  1  0  0  0  0
 19 48  1  0  0  0  0
 19 49  1  0  0  0  0
 20 22  1  0  0  0  0
 20 50  1  0  0  0  0
 20 51  1  0  0  0  0
 21 23  1  0  0  0  0
 21 52  1  0  0  0  0
 21 53  1  0  0  0  0
 22 54  1  0  0  0  0
 22 55  1  0  0  0  0
 23 56  1  0  0  0  0
 23 57  1  0  0  0  0
 24 25  2  0  0  0  0
 25 26  1  0  0  0  0
 25 58  1  0  0  0  0
 26 28  2  0  0  0  0
 26 59  1  0  0  0  0
 27 28  1  0  0  0  0
 27 60  1  0  0  0  0
 28 61  1  0  0  0  0
M  END
> <PUBCHEM_COMPOUND_CID>
154702343

> <PUBCHEM_COMPOUND_CANONICALIZED>
1

> <PUBCHEM_CACTVS_COMPLEXITY>
497

> <PUBCHEM_CACTVS_HBOND_ACCEPTOR>
6

> <PUBCHEM_CACTVS_HBOND_DONOR>
2

> <PUBCHEM_CACTVS_ROTATABLE_BOND>
7

> <PUBCHEM_CACTVS_SUBSKEYS>
AAADcfB7sAAAAAAAAAAAAAAAAAAAAAAAAAA8WLEAAAAAAACxgAAAHgAQAAAADTzhkgY9sJPIFACoADN3dACCgCkxAiAJ2KE4ZJiIYPrA2ZGWIAhskwLIyCe6yBCOAAAAAAAAAAAAgAIAAAQAAAAAAAAAAA==

> <PUBCHEM_IUPAC_OPENEYE_NAME>
6-[4-[4-(2-pyridyl)piperazin-1-yl]butoxy]-2,3,4a,5,6,7,8,8a-octahydro-1H-quinazolin-4-one

> <PUBCHEM_IUPAC_CAS_NAME>
6-[4-[4-(2-pyridinyl)-1-piperazinyl]butoxy]-2,3,4a,5,6,7,8,8a-octahydro-1H-quinazolin-4-one

> <PUBCHEM_IUPAC_NAME_MARKUP>
6-[4-(4-pyridin-2-ylpiperazin-1-yl)butoxy]-2,3,4<I>a</I>,5,6,7,8,8<I>a</I>-octahydro-1<I>H</I>-quinazolin-4-one

> <PUBCHEM_IUPAC_NAME>
6-[4-(4-pyridin-2-ylpiperazin-1-yl)butoxy]-2,3,4a,5,6,7,8,8a-octahydro-1H-quinazolin-4-one

> <PUBCHEM_IUPAC_SYSTEMATIC_NAME>
6-[4-(4-pyridin-2-ylpiperazin-1-yl)butoxy]-2,3,4a,5,6,7,8,8a-octahydro-1H-quinazolin-4-one

> <PUBCHEM_IUPAC_TRADITIONAL_NAME>
6-[4-[4-(2-pyridyl)piperazino]butoxy]-2,3,4a,5,6,7,8,8a-octahydro-1H-quinazolin-4-one

> <PUBCHEM_IUPAC_INCHI>
InChI=1S/C21H33N5O2/c27-21-18-15-17(6-7-19(18)23-16-24-21)28-14-4-3-9-25-10-12-26(13-11-25)20-5-1-2-8-22-20/h1-2,5,8,17-19,23H,3-4,6-7,9-16H2,(H,24,27)

> <PUBCHEM_IUPAC_INCHIKEY>
FCGMQRQSUIJSFG-UHFFFAOYSA-N

> <PUBCHEM_XLOGP3_AA>
1.4

> <PUBCHEM_EXACT_MASS>
387.26342531

> <PUBCHEM_MOLECULAR_FORMULA>
C21H33N5O2

> <PUBCHEM_MOLECULAR_WEIGHT>
387.5

> <PUBCHEM_OPENEYE_CAN_SMILES>
C1CC2C(CC1OCCCCN3CCN(CC3)C4=CC=CC=N4)C(=O)NCN2

> <PUBCHEM_OPENEYE_ISO_SMILES>
C1CC2C(CC1OCCCCN3CCN(CC3)C4=CC=CC=N4)C(=O)NCN2

> <PUBCHEM_CACTVS_TPSA>
69.7

> <PUBCHEM_MONOISOTOPIC_WEIGHT>
387.26342531

> <PUBCHEM_TOTAL_CHARGE>
0

> <PUBCHEM_HEAVY_ATOM_COUNT>
28

> <PUBCHEM_ATOM_DEF_STEREO_COUNT>
0

> <PUBCHEM_ATOM_UDEF_STEREO_COUNT>
3

> <PUBCHEM_BOND_DEF_STEREO_COUNT>
0

> <PUBCHEM_BOND_UDEF_STEREO_COUNT>
0

> <PUBCHEM_ISOTOPIC_ATOM_COUNT>
0

> <PUBCHEM_COMPONENT_COUNT>
1

> <PUBCHEM_CACTVS_TAUTO_COUNT>
-1

> <PUBCHEM_COORDINATE_TYPE>
1
5
255

> <PUBCHEM_BONDANNOTATIONS>
11  1  3
24  25  8
25  26  8
26  28  8
27  28  8
7  24  8
7  27  8
8  10  3
9  12  3

$$$$
