121304569
  -OEChem-09292322372D

 66 71  0     1  0  0  0  0  0999 V2000
    3.9538    1.0829    0.0000 S   0  0  0  0  0  0  0  0  0  0  0  0
    9.6460   -7.2671    0.0000 F   0  0  0  0  0  0  0  0  0  0  0  0
    8.2800   -7.6332    0.0000 F   0  0  0  0  0  0  0  0  0  0  0  0
    9.2800   -5.9011    0.0000 F   0  0  0  0  0  0  0  0  0  0  0  0
    4.7026    7.4252    0.0000 O   0  0  0  0  0  0  0  0  0  0  0  0
    4.3159   -2.3623    0.0000 N   0  0  3  0  0  0  0  0  0  0  0  0
    3.6750    2.8429    0.0000 N   0  0  0  0  0  0  0  0  0  0  0  0
    2.3660    1.8919    0.0000 N   0  0  0  0  0  0  0  0  0  0  0  0
    2.0570    2.8429    0.0000 N   0  0  0  0  0  0  0  0  0  0  0  0
    5.5116    6.0240    0.0000 N   0  0  0  0  0  0  0  0  0  0  0  0
    4.8159   -3.9011    0.0000 C   0  0  2  0  0  0  0  0  0  0  0  0
    5.3159   -4.7671    0.0000 C   0  0  2  0  0  0  0  0  0  0  0  0
    4.3159   -4.7671    0.0000 C   0  0  0  0  0  0  0  0  0  0  0  0
    5.6249   -3.3133    0.0000 C   0  0  0  0  0  0  0  0  0  0  0  0
    4.0069   -3.3133    0.0000 C   0  0  0  0  0  0  0  0  0  0  0  0
    5.3159   -2.3623    0.0000 C   0  0  0  0  0  0  0  0  0  0  0  0
    6.1819   -5.2671    0.0000 C   0  0  0  0  0  0  0  0  0  0  0  0
    3.7281   -1.5532    0.0000 C   0  0  0  0  0  0  0  0  0  0  0  0
    7.0480   -4.7671    0.0000 C   0  0  0  0  0  0  0  0  0  0  0  0
    6.1819   -6.2671    0.0000 C   0  0  0  0  0  0  0  0  0  0  0  0
    4.1349   -0.6397    0.0000 C   0  0  0  0  0  0  0  0  0  0  0  0
    7.9140   -5.2671    0.0000 C   0  0  0  0  0  0  0  0  0  0  0  0
    7.0480   -6.7671    0.0000 C   0  0  0  0  0  0  0  0  0  0  0  0
    7.9140   -6.2671    0.0000 C   0  0  0  0  0  0  0  0  0  0  0  0
    3.5471    0.1693    0.0000 C   0  0  0  0  0  0  0  0  0  0  0  0
    8.7800   -6.7671    0.0000 C   0  0  0  0  0  0  0  0  0  0  0  0
    3.3660    1.8919    0.0000 C   0  0  0  0  0  0  0  0  0  0  0  0
    2.8660    3.4307    0.0000 C   0  0  0  0  0  0  0  0  0  0  0  0
    4.6261    3.1519    0.0000 C   0  0  0  0  0  0  0  0  0  0  0  0
    2.8660    4.4307    0.0000 C   0  0  0  0  0  0  0  0  0  0  0  0
    3.7320    4.9307    0.0000 C   0  0  0  0  0  0  0  0  0  0  0  0
    2.0000    4.9307    0.0000 C   0  0  0  0  0  0  0  0  0  0  0  0
    3.7320    5.9307    0.0000 C   0  0  0  0  0  0  0  0  0  0  0  0
    2.0000    5.9307    0.0000 C   0  0  0  0  0  0  0  0  0  0  0  0
    2.8660    6.4307    0.0000 C   0  0  0  0  0  0  0  0  0  0  0  0
    4.5981    6.4307    0.0000 C   0  0  0  0  0  0  0  0  0  0  0  0
    5.6808    7.6332    0.0000 C   0  0  0  0  0  0  0  0  0  0  0  0
    6.1808    6.7671    0.0000 C   0  0  0  0  0  0  0  0  0  0  0  0
    5.1554   -5.3660    0.0000 H   0  0  0  0  0  0  0  0  0  0  0  0
    3.7333   -4.5551    0.0000 H   0  0  0  0  0  0  0  0  0  0  0  0
    4.2082   -5.3777    0.0000 H   0  0  0  0  0  0  0  0  0  0  0  0
    5.9349   -3.8502    0.0000 H   0  0  0  0  0  0  0  0  0  0  0  0
    6.1913   -3.0611    0.0000 H   0  0  0  0  0  0  0  0  0  0  0  0
    3.4405   -3.0611    0.0000 H   0  0  0  0  0  0  0  0  0  0  0  0
    3.6969   -3.8502    0.0000 H   0  0  0  0  0  0  0  0  0  0  0  0
    5.9224   -2.2334    0.0000 H   0  0  0  0  0  0  0  0  0  0  0  0
    5.2511   -1.7457    0.0000 H   0  0  0  0  0  0  0  0  0  0  0  0
    3.2141   -1.2066    0.0000 H   0  0  0  0  0  0  0  0  0  0  0  0
    3.2974   -1.9992    0.0000 H   0  0  0  0  0  0  0  0  0  0  0  0
    7.0480   -4.1471    0.0000 H   0  0  0  0  0  0  0  0  0  0  0  0
    5.6450   -6.5771    0.0000 H   0  0  0  0  0  0  0  0  0  0  0  0
    4.6489   -0.9864    0.0000 H   0  0  0  0  0  0  0  0  0  0  0  0
    4.5656   -0.1937    0.0000 H   0  0  0  0  0  0  0  0  0  0  0  0
    8.4509   -4.9571    0.0000 H   0  0  0  0  0  0  0  0  0  0  0  0
    7.0480   -7.3871    0.0000 H   0  0  0  0  0  0  0  0  0  0  0  0
    3.0331    0.5160    0.0000 H   0  0  0  0  0  0  0  0  0  0  0  0
    3.1164   -0.2767    0.0000 H   0  0  0  0  0  0  0  0  0  0  0  0
    4.8177    2.5623    0.0000 H   0  0  0  0  0  0  0  0  0  0  0  0
    5.2158    3.3435    0.0000 H   0  0  0  0  0  0  0  0  0  0  0  0
    4.4345    3.7416    0.0000 H   0  0  0  0  0  0  0  0  0  0  0  0
    4.2690    4.6207    0.0000 H   0  0  0  0  0  0  0  0  0  0  0  0
    1.4631    4.6207    0.0000 H   0  0  0  0  0  0  0  0  0  0  0  0
    1.4631    6.2407    0.0000 H   0  0  0  0  0  0  0  0  0  0  0  0
    2.8660    7.0507    0.0000 H   0  0  0  0  0  0  0  0  0  0  0  0
    5.9329    8.1996    0.0000 H   0  0  0  0  0  0  0  0  0  0  0  0
    6.7974    6.7023    0.0000 H   0  0  0  0  0  0  0  0  0  0  0  0
  1 25  1  0  0  0  0
  1 27  1  0  0  0  0
  2 26  1  0  0  0  0
  3 26  1  0  0  0  0
  4 26  1  0  0  0  0
  5 36  1  0  0  0  0
  5 37  1  0  0  0  0
  6 15  1  0  0  0  0
  6 16  1  0  0  0  0
  6 18  1  0  0  0  0
  7 27  1  0  0  0  0
  7 28  1  0  0  0  0
  7 29  1  0  0  0  0
  8  9  1  0  0  0  0
  8 27  2  0  0  0  0
  9 28  2  0  0  0  0
 10 36  2  0  0  0  0
 10 38  1  0  0  0  0
 11 12  1  0  0  0  0
 11 13  1  6  0  0  0
 11 14  1  0  0  0  0
 11 15  1  0  0  0  0
 12 13  1  0  0  0  0
 12 17  1  1  0  0  0
 12 39  1  0  0  0  0
 13 40  1  0  0  0  0
 13 41  1  0  0  0  0
 14 16  1  0  0  0  0
 14 42  1  0  0  0  0
 14 43  1  0  0  0  0
 15 44  1  0  0  0  0
 15 45  1  0  0  0  0
 16 46  1  0  0  0  0
 16 47  1  0  0  0  0
 17 19  2  0  0  0  0
 17 20  1  0  0  0  0
 18 21  1  0  0  0  0
 18 48  1  0  0  0  0
 18 49  1  0  0  0  0
 19 22  1  0  0  0  0
 19 50  1  0  0  0  0
 20 23  2  0  0  0  0
 20 51  1  0  0  0  0
 21 25  1  0  0  0  0
 21 52  1  0  0  0  0
 21 53  1  0  0  0  0
 22 24  2  0  0  0  0
 22 54  1  0  0  0  0
 23 24  1  0  0  0  0
 23 55  1  0  0  0  0
 24 26  1  0  0  0  0
 25 56  1  0  0  0  0
 25 57  1  0  0  0  0
 28 30  1  0  0  0  0
 29 58  1  0  0  0  0
 29 59  1  0  0  0  0
 29 60  1  0  0  0  0
 30 31  2  0  0  0  0
 30 32  1  0  0  0  0
 31 33  1  0  0  0  0
 31 61  1  0  0  0  0
 32 34  2  0  0  0  0
 32 62  1  0  0  0  0
 33 35  2  0  0  0  0
 33 36  1  0  0  0  0
 34 35  1  0  0  0  0
 34 63  1  0  0  0  0
 35 64  1  0  0  0  0
 37 38  2  0  0  0  0
 37 65  1  0  0  0  0
 38 66  1  0  0  0  0
M  END
> <PUBCHEM_COMPOUND_CID>
121304569

> <PUBCHEM_COMPOUND_CANONICALIZED>
1

> <PUBCHEM_CACTVS_COMPLEXITY>
799

> <PUBCHEM_CACTVS_HBOND_ACCEPTOR>
9

> <PUBCHEM_CACTVS_HBOND_DONOR>
0

> <PUBCHEM_CACTVS_ROTATABLE_BOND>
8

> <PUBCHEM_CACTVS_SUBSKEYS>
AAADceB7oYBAAAAAAAAAAAAAGAAAAWLFgAAwYAAAAAAAAAAB9AAAHwQIAAAADwDl2xa/lJcMFEiqAjt39ASS2Ct/QrAdyCG7LNiOLrKgvTmPOQjkzgOYqYeY2eKPwAACAAAAAACAAAQAAAAAAAAAAAAAAA==

> <PUBCHEM_IUPAC_OPENEYE_NAME>
2-[3-[4-methyl-5-[3-[(2R,3S)-2-[4-(trifluoromethyl)phenyl]-5-azaspiro[2.4]heptan-5-yl]propylsulfanyl]-1,2,4-triazol-3-yl]phenyl]oxazole

> <PUBCHEM_IUPAC_CAS_NAME>
2-[3-[4-methyl-5-[3-[(2R,3S)-2-[4-(trifluoromethyl)phenyl]-5-azaspiro[2.4]heptan-5-yl]propylthio]-1,2,4-triazol-3-yl]phenyl]oxazole

> <PUBCHEM_IUPAC_NAME_MARKUP>
2-[3-[4-methyl-5-[3-[(2<I>R</I>,3<I>S</I>)-2-[4-(trifluoromethyl)phenyl]-5-azaspiro[2.4]heptan-5-yl]propylsulfanyl]-1,2,4-triazol-3-yl]phenyl]-1,3-oxazole

> <PUBCHEM_IUPAC_NAME>
2-[3-[4-methyl-5-[3-[(2R,3S)-2-[4-(trifluoromethyl)phenyl]-5-azaspiro[2.4]heptan-5-yl]propylsulfanyl]-1,2,4-triazol-3-yl]phenyl]-1,3-oxazole

> <PUBCHEM_IUPAC_SYSTEMATIC_NAME>
2-[3-[4-methyl-5-[3-[(2R,3S)-2-[4-(trifluoromethyl)phenyl]-5-azaspiro[2.4]heptan-5-yl]propylsulfanyl]-1,2,4-triazol-3-yl]phenyl]-1,3-oxazole

> <PUBCHEM_IUPAC_TRADITIONAL_NAME>
2-[3-[4-methyl-5-[3-[(2R,3S)-2-[4-(trifluoromethyl)phenyl]-5-azaspiro[2.4]heptan-5-yl]propylthio]-1,2,4-triazol-3-yl]phenyl]oxazole

> <PUBCHEM_IUPAC_INCHI>
InChI=1S/C28H28F3N5OS/c1-35-24(20-4-2-5-21(16-20)25-32-11-14-37-25)33-34-26(35)38-15-3-12-36-13-10-27(18-36)17-23(27)19-6-8-22(9-7-19)28(29,30)31/h2,4-9,11,14,16,23H,3,10,12-13,15,17-18H2,1H3/t23-,27+/m1/s1

> <PUBCHEM_IUPAC_INCHIKEY>
NMEPMLDUQJFQOK-KCWPFWIISA-N

> <PUBCHEM_XLOGP3_AA>
5.4

> <PUBCHEM_EXACT_MASS>
539.19666619

> <PUBCHEM_MOLECULAR_FORMULA>
C28H28F3N5OS

> <PUBCHEM_MOLECULAR_WEIGHT>
539.6

> <PUBCHEM_OPENEYE_CAN_SMILES>
CN1C(=NN=C1SCCCN2CCC3(C2)CC3C4=CC=C(C=C4)C(F)(F)F)C5=CC(=CC=C5)C6=NC=CO6

> <PUBCHEM_OPENEYE_ISO_SMILES>
CN1C(=NN=C1SCCCN2CC[C@@]3(C2)C[C@@H]3C4=CC=C(C=C4)C(F)(F)F)C5=CC(=CC=C5)C6=NC=CO6

> <PUBCHEM_CACTVS_TPSA>
85.3

> <PUBCHEM_MONOISOTOPIC_WEIGHT>
539.19666619

> <PUBCHEM_TOTAL_CHARGE>
0

> <PUBCHEM_HEAVY_ATOM_COUNT>
38

> <PUBCHEM_ATOM_DEF_STEREO_COUNT>
2

> <PUBCHEM_ATOM_UDEF_STEREO_COUNT>
0

> <PUBCHEM_BOND_DEF_STEREO_COUNT>
0

> <PUBCHEM_BOND_UDEF_STEREO_COUNT>
0

> <PUBCHEM_ISOTOPIC_ATOM_COUNT>
0

> <PUBCHEM_COMPONENT_COUNT>
1

> <PUBCHEM_CACTVS_TAUTO_COUNT>
-1

> <PUBCHEM_COORDINATE_TYPE>
1
5
255

> <PUBCHEM_BONDANNOTATIONS>
10  36  8
10  38  8
11  13  6
12  17  5
17  19  8
17  20  8
19  22  8
20  23  8
22  24  8
23  24  8
30  31  8
30  32  8
31  33  8
32  34  8
33  35  8
34  35  8
37  38  8
5  36  8
5  37  8
7  27  8
7  28  8
8  27  8
8  9  8
9  28  8

$$$$
