118719792
  -OEChem-09292322362D

 58 61  0     0  0  0  0  0  0999 V2000
    2.8660   -4.5352    0.0000 O   0  0  0  0  0  0  0  0  0  0  0  0
    4.5981   -1.5352    0.0000 N   0  0  0  0  0  0  0  0  0  0  0  0
    4.5981   -3.5352    0.0000 N   0  0  0  0  0  0  0  0  0  0  0  0
    5.8301    4.0036    0.0000 N   0  0  0  0  0  0  0  0  0  0  0  0
    7.1391    3.0526    0.0000 N   0  0  0  0  0  0  0  0  0  0  0  0
    6.8301    4.0036    0.0000 N   0  0  0  0  0  0  0  0  0  0  0  0
    5.4641   -2.0352    0.0000 C   0  0  0  0  0  0  0  0  0  0  0  0
    3.7320   -2.0352    0.0000 C   0  0  0  0  0  0  0  0  0  0  0  0
    5.4641   -3.0352    0.0000 C   0  0  0  0  0  0  0  0  0  0  0  0
    3.7320   -3.0352    0.0000 C   0  0  0  0  0  0  0  0  0  0  0  0
    4.5981   -0.5352    0.0000 C   0  0  0  0  0  0  0  0  0  0  0  0
    5.4641   -0.0352    0.0000 C   0  0  0  0  0  0  0  0  0  0  0  0
    5.4641    0.9648    0.0000 C   0  0  0  0  0  0  0  0  0  0  0  0
    4.5981   -4.5352    0.0000 C   0  0  0  0  0  0  0  0  0  0  0  0
    6.3301    1.4648    0.0000 C   0  0  0  0  0  0  0  0  0  0  0  0
    3.7320   -5.0352    0.0000 C   0  0  0  0  0  0  0  0  0  0  0  0
    5.4641   -5.0352    0.0000 C   0  0  0  0  0  0  0  0  0  0  0  0
    6.3301    2.4648    0.0000 C   0  0  0  0  0  0  0  0  0  0  0  0
    3.7320   -6.0352    0.0000 C   0  0  0  0  0  0  0  0  0  0  0  0
    5.4641   -6.0352    0.0000 C   0  0  0  0  0  0  0  0  0  0  0  0
    4.5981   -6.5352    0.0000 C   0  0  0  0  0  0  0  0  0  0  0  0
    5.5211    3.0526    0.0000 C   0  0  0  0  0  0  0  0  0  0  0  0
    2.0000   -5.0352    0.0000 C   0  0  0  0  0  0  0  0  0  0  0  0
    5.2423    4.8126    0.0000 C   0  0  0  0  0  0  0  0  0  0  0  0
    4.2478    4.7081    0.0000 C   0  0  0  0  0  0  0  0  0  0  0  0
    5.6491    5.7262    0.0000 C   0  0  0  0  0  0  0  0  0  0  0  0
    3.6600    5.5171    0.0000 C   0  0  0  0  0  0  0  0  0  0  0  0
    5.0613    6.5352    0.0000 C   0  0  0  0  0  0  0  0  0  0  0  0
    4.0668    6.4307    0.0000 C   0  0  0  0  0  0  0  0  0  0  0  0
    6.0747   -2.1429    0.0000 H   0  0  0  0  0  0  0  0  0  0  0  0
    5.6762   -1.4526    0.0000 H   0  0  0  0  0  0  0  0  0  0  0  0
    3.5200   -1.4526    0.0000 H   0  0  0  0  0  0  0  0  0  0  0  0
    3.1215   -2.1429    0.0000 H   0  0  0  0  0  0  0  0  0  0  0  0
    5.6762   -3.6178    0.0000 H   0  0  0  0  0  0  0  0  0  0  0  0
    6.0747   -2.9276    0.0000 H   0  0  0  0  0  0  0  0  0  0  0  0
    3.1215   -2.9276    0.0000 H   0  0  0  0  0  0  0  0  0  0  0  0
    3.5200   -3.6178    0.0000 H   0  0  0  0  0  0  0  0  0  0  0  0
    4.3860    0.0474    0.0000 H   0  0  0  0  0  0  0  0  0  0  0  0
    3.9875   -0.6429    0.0000 H   0  0  0  0  0  0  0  0  0  0  0  0
    5.6762   -0.6178    0.0000 H   0  0  0  0  0  0  0  0  0  0  0  0
    6.0747    0.0725    0.0000 H   0  0  0  0  0  0  0  0  0  0  0  0
    5.2520    1.5474    0.0000 H   0  0  0  0  0  0  0  0  0  0  0  0
    4.8535    0.8571    0.0000 H   0  0  0  0  0  0  0  0  0  0  0  0
    6.5422    0.8822    0.0000 H   0  0  0  0  0  0  0  0  0  0  0  0
    6.9407    1.5724    0.0000 H   0  0  0  0  0  0  0  0  0  0  0  0
    6.0010   -4.7252    0.0000 H   0  0  0  0  0  0  0  0  0  0  0  0
    3.1951   -6.3452    0.0000 H   0  0  0  0  0  0  0  0  0  0  0  0
    6.0010   -6.3452    0.0000 H   0  0  0  0  0  0  0  0  0  0  0  0
    4.5981   -7.1552    0.0000 H   0  0  0  0  0  0  0  0  0  0  0  0
    4.9315    2.8610    0.0000 H   0  0  0  0  0  0  0  0  0  0  0  0
    1.6900   -4.4983    0.0000 H   0  0  0  0  0  0  0  0  0  0  0  0
    1.4631   -5.3452    0.0000 H   0  0  0  0  0  0  0  0  0  0  0  0
    2.3100   -5.5722    0.0000 H   0  0  0  0  0  0  0  0  0  0  0  0
    3.9956    4.1417    0.0000 H   0  0  0  0  0  0  0  0  0  0  0  0
    6.2657    5.7910    0.0000 H   0  0  0  0  0  0  0  0  0  0  0  0
    3.0434    5.4523    0.0000 H   0  0  0  0  0  0  0  0  0  0  0  0
    5.3135    7.1016    0.0000 H   0  0  0  0  0  0  0  0  0  0  0  0
    3.7023    6.9323    0.0000 H   0  0  0  0  0  0  0  0  0  0  0  0
  1 16  1  0  0  0  0
  1 23  1  0  0  0  0
  2  7  1  0  0  0  0
  2  8  1  0  0  0  0
  2 11  1  0  0  0  0
  3  9  1  0  0  0  0
  3 10  1  0  0  0  0
  3 14  1  0  0  0  0
  4  6  1  0  0  0  0
  4 22  1  0  0  0  0
  4 24  1  0  0  0  0
  5  6  2  0  0  0  0
  5 18  1  0  0  0  0
  7  9  1  0  0  0  0
  7 30  1  0  0  0  0
  7 31  1  0  0  0  0
  8 10  1  0  0  0  0
  8 32  1  0  0  0  0
  8 33  1  0  0  0  0
  9 34  1  0  0  0  0
  9 35  1  0  0  0  0
 10 36  1  0  0  0  0
 10 37  1  0  0  0  0
 11 12  1  0  0  0  0
 11 38  1  0  0  0  0
 11 39  1  0  0  0  0
 12 13  1  0  0  0  0
 12 40  1  0  0  0  0
 12 41  1  0  0  0  0
 13 15  1  0  0  0  0
 13 42  1  0  0  0  0
 13 43  1  0  0  0  0
 14 16  1  0  0  0  0
 14 17  2  0  0  0  0
 15 18  1  0  0  0  0
 15 44  1  0  0  0  0
 15 45  1  0  0  0  0
 16 19  2  0  0  0  0
 17 20  1  0  0  0  0
 17 46  1  0  0  0  0
 18 22  2  0  0  0  0
 19 21  1  0  0  0  0
 19 47  1  0  0  0  0
 20 21  2  0  0  0  0
 20 48  1  0  0  0  0
 21 49  1  0  0  0  0
 22 50  1  0  0  0  0
 23 51  1  0  0  0  0
 23 52  1  0  0  0  0
 23 53  1  0  0  0  0
 24 25  2  0  0  0  0
 24 26  1  0  0  0  0
 25 27  1  0  0  0  0
 25 54  1  0  0  0  0
 26 28  2  0  0  0  0
 26 55  1  0  0  0  0
 27 29  2  0  0  0  0
 27 56  1  0  0  0  0
 28 29  1  0  0  0  0
 28 57  1  0  0  0  0
 29 58  1  0  0  0  0
M  END
> <PUBCHEM_COMPOUND_CID>
118719792

> <PUBCHEM_COMPOUND_CANONICALIZED>
1

> <PUBCHEM_CACTVS_COMPLEXITY>
464

> <PUBCHEM_CACTVS_HBOND_ACCEPTOR>
5

> <PUBCHEM_CACTVS_HBOND_DONOR>
0

> <PUBCHEM_CACTVS_ROTATABLE_BOND>
8

> <PUBCHEM_CACTVS_SUBSKEYS>
AAADceB7oAAAAAAAAAAAAAAAAAAAAWAAAAA8YIAAAAAAAAAB0AAAHgAIAAAACAzBlgY+xpMIBACiATRnRACCDCQxsgAYmAA/fIgOZmLEsZuVMChkwBHY6AeQQAAAAAAAAAAAEAAAAAAAAAAgAAAAAAAAAA==

> <PUBCHEM_IUPAC_OPENEYE_NAME>
1-(2-methoxyphenyl)-4-[4-(1-phenyltriazol-4-yl)butyl]piperazine

> <PUBCHEM_IUPAC_CAS_NAME>
1-(2-methoxyphenyl)-4-[4-(1-phenyl-4-triazolyl)butyl]piperazine

> <PUBCHEM_IUPAC_NAME_MARKUP>
1-(2-methoxyphenyl)-4-[4-(1-phenyltriazol-4-yl)butyl]piperazine

> <PUBCHEM_IUPAC_NAME>
1-(2-methoxyphenyl)-4-[4-(1-phenyltriazol-4-yl)butyl]piperazine

> <PUBCHEM_IUPAC_SYSTEMATIC_NAME>
1-(2-methoxyphenyl)-4-[4-(1-phenyl-1,2,3-triazol-4-yl)butyl]piperazine

> <PUBCHEM_IUPAC_TRADITIONAL_NAME>
1-(2-methoxyphenyl)-4-[4-(1-phenyltriazol-4-yl)butyl]piperazine

> <PUBCHEM_IUPAC_INCHI>
InChI=1S/C23H29N5O/c1-29-23-13-6-5-12-22(23)27-17-15-26(16-18-27)14-8-7-9-20-19-28(25-24-20)21-10-3-2-4-11-21/h2-6,10-13,19H,7-9,14-18H2,1H3

> <PUBCHEM_IUPAC_INCHIKEY>
ADUUVPPWHWVJFK-UHFFFAOYSA-N

> <PUBCHEM_XLOGP3_AA>
4

> <PUBCHEM_EXACT_MASS>
391.23721057

> <PUBCHEM_MOLECULAR_FORMULA>
C23H29N5O

> <PUBCHEM_MOLECULAR_WEIGHT>
391.5

> <PUBCHEM_OPENEYE_CAN_SMILES>
COC1=CC=CC=C1N2CCN(CC2)CCCCC3=CN(N=N3)C4=CC=CC=C4

> <PUBCHEM_OPENEYE_ISO_SMILES>
COC1=CC=CC=C1N2CCN(CC2)CCCCC3=CN(N=N3)C4=CC=CC=C4

> <PUBCHEM_CACTVS_TPSA>
46.4

> <PUBCHEM_MONOISOTOPIC_WEIGHT>
391.23721057

> <PUBCHEM_TOTAL_CHARGE>
0

> <PUBCHEM_HEAVY_ATOM_COUNT>
29

> <PUBCHEM_ATOM_DEF_STEREO_COUNT>
0

> <PUBCHEM_ATOM_UDEF_STEREO_COUNT>
0

> <PUBCHEM_BOND_DEF_STEREO_COUNT>
0

> <PUBCHEM_BOND_UDEF_STEREO_COUNT>
0

> <PUBCHEM_ISOTOPIC_ATOM_COUNT>
0

> <PUBCHEM_COMPONENT_COUNT>
1

> <PUBCHEM_CACTVS_TAUTO_COUNT>
-1

> <PUBCHEM_COORDINATE_TYPE>
1
5
255

> <PUBCHEM_BONDANNOTATIONS>
14  16  8
14  17  8
16  19  8
17  20  8
18  22  8
19  21  8
20  21  8
24  25  8
24  26  8
25  27  8
26  28  8
27  29  8
28  29  8
4  22  8
4  6  8
5  18  8
5  6  8

$$$$
