134141166
  -OEChem-09292322382D

 73 76  0     0  0  0  0  0  0999 V2000
   10.6603    1.0000    0.0000 O   0  0  0  0  0  0  0  0  0  0  0  0
    2.8660   -4.5000    0.0000 O   0  0  0  0  0  0  0  0  0  0  0  0
    7.1962   -3.0000    0.0000 N   0  0  0  0  0  0  0  0  0  0  0  0
    7.1962   -5.0000    0.0000 N   0  0  0  0  0  0  0  0  0  0  0  0
    9.7942    2.5000    0.0000 N   0  0  0  0  0  0  0  0  0  0  0  0
   10.6603    8.0000    0.0000 N   0  0  0  0  0  0  0  0  0  0  0  0
    6.3301   -3.5000    0.0000 C   0  0  0  0  0  0  0  0  0  0  0  0
    8.0622   -3.5000    0.0000 C   0  0  0  0  0  0  0  0  0  0  0  0
    6.3301   -4.5000    0.0000 C   0  0  0  0  0  0  0  0  0  0  0  0
    8.0622   -4.5000    0.0000 C   0  0  0  0  0  0  0  0  0  0  0  0
    7.1962   -2.0000    0.0000 C   0  0  0  0  0  0  0  0  0  0  0  0
    8.0622   -1.5000    0.0000 C   0  0  0  0  0  0  0  0  0  0  0  0
    7.1962   -6.0000    0.0000 C   0  0  0  0  0  0  0  0  0  0  0  0
    8.0622   -0.5000    0.0000 C   0  0  0  0  0  0  0  0  0  0  0  0
    8.9282    0.0000    0.0000 C   0  0  0  0  0  0  0  0  0  0  0  0
    6.3301   -6.5000    0.0000 C   0  0  0  0  0  0  0  0  0  0  0  0
    8.0622   -6.5000    0.0000 C   0  0  0  0  0  0  0  0  0  0  0  0
    8.9282    1.0000    0.0000 C   0  0  0  0  0  0  0  0  0  0  0  0
    5.4641   -6.0000    0.0000 C   0  0  0  0  0  0  0  0  0  0  0  0
    6.3301   -7.5000    0.0000 C   0  0  0  0  0  0  0  0  0  0  0  0
    8.0622   -7.5000    0.0000 C   0  0  0  0  0  0  0  0  0  0  0  0
    7.1962   -8.0000    0.0000 C   0  0  0  0  0  0  0  0  0  0  0  0
    9.7942    1.5000    0.0000 C   0  0  0  0  0  0  0  0  0  0  0  0
    5.4641   -5.0000    0.0000 C   0  0  0  0  0  0  0  0  0  0  0  0
    4.5981   -6.5000    0.0000 C   0  0  0  0  0  0  0  0  0  0  0  0
    4.5981   -4.5000    0.0000 C   0  0  0  0  0  0  0  0  0  0  0  0
    3.7320   -6.0000    0.0000 C   0  0  0  0  0  0  0  0  0  0  0  0
    3.7320   -5.0000    0.0000 C   0  0  0  0  0  0  0  0  0  0  0  0
   10.6603    3.0000    0.0000 C   0  0  0  0  0  0  0  0  0  0  0  0
   10.6603    4.0000    0.0000 C   0  0  0  0  0  0  0  0  0  0  0  0
    9.7942    4.5000    0.0000 C   0  0  0  0  0  0  0  0  0  0  0  0
   11.5263    4.5000    0.0000 C   0  0  0  0  0  0  0  0  0  0  0  0
    9.7942    5.5000    0.0000 C   0  0  0  0  0  0  0  0  0  0  0  0
   11.5263    5.5000    0.0000 C   0  0  0  0  0  0  0  0  0  0  0  0
    2.0000   -5.0000    0.0000 C   0  0  0  0  0  0  0  0  0  0  0  0
   10.6603    6.0000    0.0000 C   0  0  0  0  0  0  0  0  0  0  0  0
   10.6603    7.0000    0.0000 C   0  0  0  0  0  0  0  0  0  0  0  0
    6.1181   -2.9174    0.0000 H   0  0  0  0  0  0  0  0  0  0  0  0
    5.7196   -3.6077    0.0000 H   0  0  0  0  0  0  0  0  0  0  0  0
    8.6728   -3.6077    0.0000 H   0  0  0  0  0  0  0  0  0  0  0  0
    8.2742   -2.9174    0.0000 H   0  0  0  0  0  0  0  0  0  0  0  0
    5.7196   -4.3923    0.0000 H   0  0  0  0  0  0  0  0  0  0  0  0
    6.1181   -5.0826    0.0000 H   0  0  0  0  0  0  0  0  0  0  0  0
    8.2742   -5.0826    0.0000 H   0  0  0  0  0  0  0  0  0  0  0  0
    8.6728   -4.3923    0.0000 H   0  0  0  0  0  0  0  0  0  0  0  0
    6.9841   -1.4174    0.0000 H   0  0  0  0  0  0  0  0  0  0  0  0
    6.5856   -2.1077    0.0000 H   0  0  0  0  0  0  0  0  0  0  0  0
    8.2742   -2.0826    0.0000 H   0  0  0  0  0  0  0  0  0  0  0  0
    8.6728   -1.3923    0.0000 H   0  0  0  0  0  0  0  0  0  0  0  0
    7.8501    0.0826    0.0000 H   0  0  0  0  0  0  0  0  0  0  0  0
    7.4516   -0.6077    0.0000 H   0  0  0  0  0  0  0  0  0  0  0  0
    9.1403   -0.5826    0.0000 H   0  0  0  0  0  0  0  0  0  0  0  0
    9.5388    0.1077    0.0000 H   0  0  0  0  0  0  0  0  0  0  0  0
    8.5991   -6.1900    0.0000 H   0  0  0  0  0  0  0  0  0  0  0  0
    8.7162    1.5826    0.0000 H   0  0  0  0  0  0  0  0  0  0  0  0
    8.3176    0.8923    0.0000 H   0  0  0  0  0  0  0  0  0  0  0  0
    5.7932   -7.8100    0.0000 H   0  0  0  0  0  0  0  0  0  0  0  0
    8.5991   -7.8100    0.0000 H   0  0  0  0  0  0  0  0  0  0  0  0
    7.1962   -8.6200    0.0000 H   0  0  0  0  0  0  0  0  0  0  0  0
    6.0010   -4.6900    0.0000 H   0  0  0  0  0  0  0  0  0  0  0  0
    4.5981   -7.1200    0.0000 H   0  0  0  0  0  0  0  0  0  0  0  0
    9.2573    2.8100    0.0000 H   0  0  0  0  0  0  0  0  0  0  0  0
    4.5981   -3.8800    0.0000 H   0  0  0  0  0  0  0  0  0  0  0  0
    3.1951   -6.3100    0.0000 H   0  0  0  0  0  0  0  0  0  0  0  0
   10.8723    2.4174    0.0000 H   0  0  0  0  0  0  0  0  0  0  0  0
   11.2708    3.1077    0.0000 H   0  0  0  0  0  0  0  0  0  0  0  0
    9.2573    4.1900    0.0000 H   0  0  0  0  0  0  0  0  0  0  0  0
   12.0632    4.1900    0.0000 H   0  0  0  0  0  0  0  0  0  0  0  0
    9.2573    5.8100    0.0000 H   0  0  0  0  0  0  0  0  0  0  0  0
   12.0632    5.8100    0.0000 H   0  0  0  0  0  0  0  0  0  0  0  0
    1.6900   -4.4631    0.0000 H   0  0  0  0  0  0  0  0  0  0  0  0
    1.4631   -5.3100    0.0000 H   0  0  0  0  0  0  0  0  0  0  0  0
    2.3100   -5.5369    0.0000 H   0  0  0  0  0  0  0  0  0  0  0  0
  1 23  2  0  0  0  0
  2 28  1  0  0  0  0
  2 35  1  0  0  0  0
  3  7  1  0  0  0  0
  3  8  1  0  0  0  0
  3 11  1  0  0  0  0
  4  9  1  0  0  0  0
  4 10  1  0  0  0  0
  4 13  1  0  0  0  0
  5 23  1  0  0  0  0
  5 29  1  0  0  0  0
  5 62  1  0  0  0  0
  6 37  3  0  0  0  0
  7  9  1  0  0  0  0
  7 38  1  0  0  0  0
  7 39  1  0  0  0  0
  8 10  1  0  0  0  0
  8 40  1  0  0  0  0
  8 41  1  0  0  0  0
  9 42  1  0  0  0  0
  9 43  1  0  0  0  0
 10 44  1  0  0  0  0
 10 45  1  0  0  0  0
 11 12  1  0  0  0  0
 11 46  1  0  0  0  0
 11 47  1  0  0  0  0
 12 14  1  0  0  0  0
 12 48  1  0  0  0  0
 12 49  1  0  0  0  0
 13 16  1  0  0  0  0
 13 17  2  0  0  0  0
 14 15  1  0  0  0  0
 14 50  1  0  0  0  0
 14 51  1  0  0  0  0
 15 18  1  0  0  0  0
 15 52  1  0  0  0  0
 15 53  1  0  0  0  0
 16 19  1  0  0  0  0
 16 20  2  0  0  0  0
 17 21  1  0  0  0  0
 17 54  1  0  0  0  0
 18 23  1  0  0  0  0
 18 55  1  0  0  0  0
 18 56  1  0  0  0  0
 19 24  2  0  0  0  0
 19 25  1  0  0  0  0
 20 22  1  0  0  0  0
 20 57  1  0  0  0  0
 21 22  2  0  0  0  0
 21 58  1  0  0  0  0
 22 59  1  0  0  0  0
 24 26  1  0  0  0  0
 24 60  1  0  0  0  0
 25 27  2  0  0  0  0
 25 61  1  0  0  0  0
 26 28  2  0  0  0  0
 26 63  1  0  0  0  0
 27 28  1  0  0  0  0
 27 64  1  0  0  0  0
 29 30  1  0  0  0  0
 29 65  1  0  0  0  0
 29 66  1  0  0  0  0
 30 31  2  0  0  0  0
 30 32  1  0  0  0  0
 31 33  1  0  0  0  0
 31 67  1  0  0  0  0
 32 34  2  0  0  0  0
 32 68  1  0  0  0  0
 33 36  2  0  0  0  0
 33 69  1  0  0  0  0
 34 36  1  0  0  0  0
 34 70  1  0  0  0  0
 35 71  1  0  0  0  0
 35 72  1  0  0  0  0
 35 73  1  0  0  0  0
 36 37  1  0  0  0  0
M  END
> <PUBCHEM_COMPOUND_CID>
134141166

> <PUBCHEM_COMPOUND_CANONICALIZED>
1

> <PUBCHEM_CACTVS_COMPLEXITY>
712

> <PUBCHEM_CACTVS_HBOND_ACCEPTOR>
5

> <PUBCHEM_CACTVS_HBOND_DONOR>
1

> <PUBCHEM_CACTVS_ROTATABLE_BOND>
11

> <PUBCHEM_CACTVS_SUBSKEYS>
AAADcfB7sAAAAAAAAAAAAAAAAAAAAAAAAAA8YMEAAAAAAAABUAAAHgAQAAAADAzBmAYyxoPABACYBiVSUACiCAAhIgAIiIEObIgM5jLEsZuUMChk1hHI6A+YyPAO4AAAAAACAADAAAAAAAQAAAAAAAAAAA==

> <PUBCHEM_IUPAC_OPENEYE_NAME>
N-[(4-cyanophenyl)methyl]-6-[4-[2-(4-methoxyphenyl)phenyl]piperazin-1-yl]hexanamide

> <PUBCHEM_IUPAC_CAS_NAME>
N-[(4-cyanophenyl)methyl]-6-[4-[2-(4-methoxyphenyl)phenyl]-1-piperazinyl]hexanamide

> <PUBCHEM_IUPAC_NAME_MARKUP>
<I>N</I>-[(4-cyanophenyl)methyl]-6-[4-[2-(4-methoxyphenyl)phenyl]piperazin-1-yl]hexanamide

> <PUBCHEM_IUPAC_NAME>
N-[(4-cyanophenyl)methyl]-6-[4-[2-(4-methoxyphenyl)phenyl]piperazin-1-yl]hexanamide

> <PUBCHEM_IUPAC_SYSTEMATIC_NAME>
N-[(4-cyanophenyl)methyl]-6-[4-[2-(4-methoxyphenyl)phenyl]piperazin-1-yl]hexanamide

> <PUBCHEM_IUPAC_TRADITIONAL_NAME>
N-(4-cyanobenzyl)-6-[4-[2-(4-methoxyphenyl)phenyl]piperazino]hexanamide

> <PUBCHEM_IUPAC_INCHI>
InChI=1S/C31H36N4O2/c1-37-28-16-14-27(15-17-28)29-7-4-5-8-30(29)35-21-19-34(20-22-35)18-6-2-3-9-31(36)33-24-26-12-10-25(23-32)11-13-26/h4-5,7-8,10-17H,2-3,6,9,18-22,24H2,1H3,(H,33,36)

> <PUBCHEM_IUPAC_INCHIKEY>
HGCNXEAQMMJLQX-UHFFFAOYSA-N

> <PUBCHEM_XLOGP3_AA>
5

> <PUBCHEM_EXACT_MASS>
496.28382640

> <PUBCHEM_MOLECULAR_FORMULA>
C31H36N4O2

> <PUBCHEM_MOLECULAR_WEIGHT>
496.6

> <PUBCHEM_OPENEYE_CAN_SMILES>
COC1=CC=C(C=C1)C2=CC=CC=C2N3CCN(CC3)CCCCCC(=O)NCC4=CC=C(C=C4)C#N

> <PUBCHEM_OPENEYE_ISO_SMILES>
COC1=CC=C(C=C1)C2=CC=CC=C2N3CCN(CC3)CCCCCC(=O)NCC4=CC=C(C=C4)C#N

> <PUBCHEM_CACTVS_TPSA>
68.6

> <PUBCHEM_MONOISOTOPIC_WEIGHT>
496.28382640

> <PUBCHEM_TOTAL_CHARGE>
0

> <PUBCHEM_HEAVY_ATOM_COUNT>
37

> <PUBCHEM_ATOM_DEF_STEREO_COUNT>
0

> <PUBCHEM_ATOM_UDEF_STEREO_COUNT>
0

> <PUBCHEM_BOND_DEF_STEREO_COUNT>
0

> <PUBCHEM_BOND_UDEF_STEREO_COUNT>
0

> <PUBCHEM_ISOTOPIC_ATOM_COUNT>
0

> <PUBCHEM_COMPONENT_COUNT>
1

> <PUBCHEM_CACTVS_TAUTO_COUNT>
-1

> <PUBCHEM_COORDINATE_TYPE>
1
5
255

> <PUBCHEM_BONDANNOTATIONS>
13  16  8
13  17  8
16  20  8
17  21  8
19  24  8
19  25  8
20  22  8
21  22  8
24  26  8
25  27  8
26  28  8
27  28  8
30  31  8
30  32  8
31  33  8
32  34  8
33  36  8
34  36  8

$$$$
