10825256
  -OEChem-09292322132D

 36 39  0     1  0  0  0  0  0999 V2000
    6.3903   -1.5157    0.0000 N   0  0  3  0  0  0  0  0  0  0  0  0
    2.9292    2.5157    0.0000 N   0  0  0  0  0  0  0  0  0  0  0  0
    5.5321   -1.0188    0.0000 C   0  0  1  0  0  0  0  0  0  0  0  0
    5.5321   -0.0188    0.0000 C   0  0  0  0  0  0  0  0  0  0  0  0
    4.6660   -1.5188    0.0000 C   0  0  0  0  0  0  0  0  0  0  0  0
    6.4421    0.4880    0.0000 C   0  0  0  0  0  0  0  0  0  0  0  0
    7.2558   -1.0316    0.0000 C   0  0  0  0  0  0  0  0  0  0  0  0
    7.2814   -0.0402    0.0000 C   0  0  0  0  0  0  0  0  0  0  0  0
    4.6660    0.4812    0.0000 C   0  0  0  0  0  0  0  0  0  0  0  0
    3.8000   -1.0188    0.0000 C   0  0  0  0  0  0  0  0  0  0  0  0
    3.8000   -0.0188    0.0000 C   0  0  0  0  0  0  0  0  0  0  0  0
    6.3829   -2.5157    0.0000 C   0  0  0  0  0  0  0  0  0  0  0  0
    6.4501    1.5296    0.0000 C   0  0  0  0  0  0  0  0  0  0  0  0
    4.6500    1.5227    0.0000 C   0  0  0  0  0  0  0  0  0  0  0  0
    2.9061   -1.5535    0.0000 C   0  0  0  0  0  0  0  0  0  0  0  0
    2.9061    0.5158    0.0000 C   0  0  0  0  0  0  0  0  0  0  0  0
    5.5480    2.0504    0.0000 C   0  0  0  0  0  0  0  0  0  0  0  0
    2.0000   -1.0396    0.0000 C   0  0  0  0  0  0  0  0  0  0  0  0
    2.0000    0.0020    0.0000 C   0  0  0  0  0  0  0  0  0  0  0  0
    2.9176    1.5158    0.0000 C   0  0  0  0  0  0  0  0  0  0  0  0
    5.5315   -1.8688    0.0000 H   0  0  0  0  0  0  0  0  0  0  0  0
    4.2675   -1.9938    0.0000 H   0  0  0  0  0  0  0  0  0  0  0  0
    5.0646   -1.9938    0.0000 H   0  0  0  0  0  0  0  0  0  0  0  0
    7.4575   -1.6178    0.0000 H   0  0  0  0  0  0  0  0  0  0  0  0
    7.8685   -0.9372    0.0000 H   0  0  0  0  0  0  0  0  0  0  0  0
    7.8885   -0.1661    0.0000 H   0  0  0  0  0  0  0  0  0  0  0  0
    7.5131    0.5349    0.0000 H   0  0  0  0  0  0  0  0  0  0  0  0
    5.7629   -2.5111    0.0000 H   0  0  0  0  0  0  0  0  0  0  0  0
    6.3783   -3.1357    0.0000 H   0  0  0  0  0  0  0  0  0  0  0  0
    7.0029   -2.5203    0.0000 H   0  0  0  0  0  0  0  0  0  0  0  0
    6.9882    1.8376    0.0000 H   0  0  0  0  0  0  0  0  0  0  0  0
    4.1095    1.8265    0.0000 H   0  0  0  0  0  0  0  0  0  0  0  0
    2.9132   -2.1734    0.0000 H   0  0  0  0  0  0  0  0  0  0  0  0
    5.5456    2.6704    0.0000 H   0  0  0  0  0  0  0  0  0  0  0  0
    1.4643   -1.3517    0.0000 H   0  0  0  0  0  0  0  0  0  0  0  0
    1.4643    0.3141    0.0000 H   0  0  0  0  0  0  0  0  0  0  0  0
  1  3  1  0  0  0  0
  1  7  1  0  0  0  0
  1 12  1  0  0  0  0
  2 20  3  0  0  0  0
  3  4  1  0  0  0  0
  3  5  1  0  0  0  0
  3 21  1  1  0  0  0
  4  6  2  0  0  0  0
  4  9  1  0  0  0  0
  5 10  1  0  0  0  0
  5 22  1  0  0  0  0
  5 23  1  0  0  0  0
  6  8  1  0  0  0  0
  6 13  1  0  0  0  0
  7  8  1  0  0  0  0
  7 24  1  0  0  0  0
  7 25  1  0  0  0  0
  8 26  1  0  0  0  0
  8 27  1  0  0  0  0
  9 11  1  0  0  0  0
  9 14  2  0  0  0  0
 10 11  2  0  0  0  0
 10 15  1  0  0  0  0
 11 16  1  0  0  0  0
 12 28  1  0  0  0  0
 12 29  1  0  0  0  0
 12 30  1  0  0  0  0
 13 17  2  0  0  0  0
 13 31  1  0  0  0  0
 14 17  1  0  0  0  0
 14 32  1  0  0  0  0
 15 18  2  0  0  0  0
 15 33  1  0  0  0  0
 16 19  2  0  0  0  0
 16 20  1  0  0  0  0
 17 34  1  0  0  0  0
 18 19  1  0  0  0  0
 18 35  1  0  0  0  0
 19 36  1  0  0  0  0
M  END
> <PUBCHEM_COMPOUND_CID>
10825256

> <PUBCHEM_COMPOUND_CANONICALIZED>
1

> <PUBCHEM_CACTVS_COMPLEXITY>
422

> <PUBCHEM_CACTVS_HBOND_ACCEPTOR>
2

> <PUBCHEM_CACTVS_HBOND_DONOR>
0

> <PUBCHEM_CACTVS_ROTATABLE_BOND>
0

> <PUBCHEM_CACTVS_SUBSKEYS>
AAADceB7AAAAAAAAAAAAAAAAAAAAAAAAAAA8YMEAAAAAAADxQAAAHAAAAAAADCjBGAQyAIMAAACQBiBCAACiAAAgAAAIiAAIBIgIoCKAkRGEIAhggACIiA8QgMAOgAACAAAQAACQAASAACQAAAAAAAAAAA==

> <PUBCHEM_IUPAC_OPENEYE_NAME>
(6aR)-6-methyl-5,6,6a,7-tetrahydro-4H-dibenzo[de,g]quinoline-11-carbonitrile

> <PUBCHEM_IUPAC_CAS_NAME>
(6aR)-6-methyl-5,6,6a,7-tetrahydro-4H-dibenzo[de,g]quinoline-11-carbonitrile

> <PUBCHEM_IUPAC_NAME_MARKUP>
(6<I>a</I><I>R</I>)-6-methyl-5,6,6<I>a</I>,7-tetrahydro-4<I>H</I>-dibenzo[de,g]quinoline-11-carbonitrile

> <PUBCHEM_IUPAC_NAME>
(6aR)-6-methyl-5,6,6a,7-tetrahydro-4H-dibenzo[de,g]quinoline-11-carbonitrile

> <PUBCHEM_IUPAC_SYSTEMATIC_NAME>
(6aR)-6-methyl-5,6,6a,7-tetrahydro-4H-dibenzo[de,g]quinoline-11-carbonitrile

> <PUBCHEM_IUPAC_TRADITIONAL_NAME>
(6aR)-6-methyl-5,6,6a,7-tetrahydro-4H-dibenzo[de,g]quinoline-11-carbonitrile

> <PUBCHEM_IUPAC_INCHI>
InChI=1S/C18H16N2/c1-20-9-8-12-4-3-7-15-17-13(10-16(20)18(12)15)5-2-6-14(17)11-19/h2-7,16H,8-10H2,1H3/t16-/m1/s1

> <PUBCHEM_IUPAC_INCHIKEY>
IOWHLLZHQXIVJB-MRXNPFEDSA-N

> <PUBCHEM_XLOGP3>
2.7

> <PUBCHEM_EXACT_MASS>
260.131348519

> <PUBCHEM_MOLECULAR_FORMULA>
C18H16N2

> <PUBCHEM_MOLECULAR_WEIGHT>
260.3

> <PUBCHEM_OPENEYE_CAN_SMILES>
CN1CCC2=C3C1CC4=C(C3=CC=C2)C(=CC=C4)C#N

> <PUBCHEM_OPENEYE_ISO_SMILES>
CN1CCC2=C3[C@H]1CC4=C(C3=CC=C2)C(=CC=C4)C#N

> <PUBCHEM_CACTVS_TPSA>
27

> <PUBCHEM_MONOISOTOPIC_WEIGHT>
260.131348519

> <PUBCHEM_TOTAL_CHARGE>
0

> <PUBCHEM_HEAVY_ATOM_COUNT>
20

> <PUBCHEM_ATOM_DEF_STEREO_COUNT>
1

> <PUBCHEM_ATOM_UDEF_STEREO_COUNT>
0

> <PUBCHEM_BOND_DEF_STEREO_COUNT>
0

> <PUBCHEM_BOND_UDEF_STEREO_COUNT>
0

> <PUBCHEM_ISOTOPIC_ATOM_COUNT>
0

> <PUBCHEM_COMPONENT_COUNT>
1

> <PUBCHEM_CACTVS_TAUTO_COUNT>
-1

> <PUBCHEM_COORDINATE_TYPE>
1
5
255

> <PUBCHEM_BONDANNOTATIONS>
10  11  8
10  15  8
11  16  8
13  17  8
14  17  8
15  18  8
16  19  8
18  19  8
3  21  5
4  6  8
4  9  8
6  13  8
9  14  8

$$$$
