164610456
  -OEChem-09292322432D

 48 50  0     1  0  0  0  0  0999 V2000
    8.9282    0.4050    0.0000 O   0  0  0  0  0  0  0  0  0  0  0  0
    4.5981    0.9050    0.0000 N   0  0  0  0  0  0  0  0  0  0  0  0
    2.8660    1.9050    0.0000 N   0  0  0  0  0  0  0  0  0  0  0  0
    6.3301    0.9050    0.0000 N   0  0  0  0  0  0  0  0  0  0  0  0
    5.4641   -0.5950    0.0000 N   0  0  0  0  0  0  0  0  0  0  0  0
    7.1962   -0.5950    0.0000 N   0  0  0  0  0  0  0  0  0  0  0  0
    6.3301   -2.0950    0.0000 N   0  0  0  0  0  0  0  0  0  0  0  0
    3.7320    0.4050    0.0000 C   0  0  0  0  0  0  0  0  0  0  0  0
    4.5981    1.9050    0.0000 C   0  0  0  0  0  0  0  0  0  0  0  0
    2.8660    0.9050    0.0000 C   0  0  0  0  0  0  0  0  0  0  0  0
    3.7320    2.4050    0.0000 C   0  0  0  0  0  0  0  0  0  0  0  0
    5.4641    0.4050    0.0000 C   0  0  0  0  0  0  0  0  0  0  0  0
    2.0000    2.4050    0.0000 C   0  0  0  0  0  0  0  0  0  0  0  0
    8.0622    0.9050    0.0000 C   0  0  3  0  0  0  0  0  0  0  0  0
    7.1962    0.4050    0.0000 C   0  0  0  0  0  0  0  0  0  0  0  0
    8.0622    1.9050    0.0000 C   0  0  0  0  0  0  0  0  0  0  0  0
    6.3301   -1.0950    0.0000 C   0  0  0  0  0  0  0  0  0  0  0  0
    7.1962    2.4050    0.0000 C   0  0  0  0  0  0  0  0  0  0  0  0
    9.7942    0.9050    0.0000 C   0  0  0  0  0  0  0  0  0  0  0  0
    9.7942    1.9050    0.0000 C   0  0  0  0  0  0  0  0  0  0  0  0
   10.6603    0.4050    0.0000 C   0  0  0  0  0  0  0  0  0  0  0  0
   10.6603    2.4050    0.0000 C   0  0  0  0  0  0  0  0  0  0  0  0
   11.5263    0.9050    0.0000 C   0  0  0  0  0  0  0  0  0  0  0  0
   11.5263    1.9050    0.0000 C   0  0  0  0  0  0  0  0  0  0  0  0
    3.3335   -0.0699    0.0000 H   0  0  0  0  0  0  0  0  0  0  0  0
    4.1306   -0.0699    0.0000 H   0  0  0  0  0  0  0  0  0  0  0  0
    5.2087    1.7973    0.0000 H   0  0  0  0  0  0  0  0  0  0  0  0
    4.8101    2.4876    0.0000 H   0  0  0  0  0  0  0  0  0  0  0  0
    2.2554    1.0127    0.0000 H   0  0  0  0  0  0  0  0  0  0  0  0
    2.6540    0.3224    0.0000 H   0  0  0  0  0  0  0  0  0  0  0  0
    4.1306    2.8800    0.0000 H   0  0  0  0  0  0  0  0  0  0  0  0
    3.3335    2.8800    0.0000 H   0  0  0  0  0  0  0  0  0  0  0  0
    2.3100    2.9419    0.0000 H   0  0  0  0  0  0  0  0  0  0  0  0
    1.4631    2.7150    0.0000 H   0  0  0  0  0  0  0  0  0  0  0  0
    1.6900    1.8681    0.0000 H   0  0  0  0  0  0  0  0  0  0  0  0
    8.0622    0.2850    0.0000 H   0  0  0  0  0  0  0  0  0  0  0  0
    8.6728    1.7973    0.0000 H   0  0  0  0  0  0  0  0  0  0  0  0
    8.2742    2.4876    0.0000 H   0  0  0  0  0  0  0  0  0  0  0  0
    7.5062    2.9419    0.0000 H   0  0  0  0  0  0  0  0  0  0  0  0
    6.6592    2.7150    0.0000 H   0  0  0  0  0  0  0  0  0  0  0  0
    6.8862    1.8681    0.0000 H   0  0  0  0  0  0  0  0  0  0  0  0
    6.8671   -2.4050    0.0000 H   0  0  0  0  0  0  0  0  0  0  0  0
    5.7932   -2.4050    0.0000 H   0  0  0  0  0  0  0  0  0  0  0  0
    9.2573    2.2150    0.0000 H   0  0  0  0  0  0  0  0  0  0  0  0
   10.6603   -0.2150    0.0000 H   0  0  0  0  0  0  0  0  0  0  0  0
   10.6603    3.0250    0.0000 H   0  0  0  0  0  0  0  0  0  0  0  0
   12.0632    0.5950    0.0000 H   0  0  0  0  0  0  0  0  0  0  0  0
   12.0632    2.2150    0.0000 H   0  0  0  0  0  0  0  0  0  0  0  0
  1 14  1  0  0  0  0
  1 19  1  0  0  0  0
  2  8  1  0  0  0  0
  2  9  1  0  0  0  0
  2 12  1  0  0  0  0
  3 10  1  0  0  0  0
  3 11  1  0  0  0  0
  3 13  1  0  0  0  0
  4 12  2  0  0  0  0
  4 15  1  0  0  0  0
  5 12  1  0  0  0  0
  5 17  2  0  0  0  0
  6 15  2  0  0  0  0
  6 17  1  0  0  0  0
  7 17  1  0  0  0  0
  7 42  1  0  0  0  0
  7 43  1  0  0  0  0
  8 10  1  0  0  0  0
  8 25  1  0  0  0  0
  8 26  1  0  0  0  0
  9 11  1  0  0  0  0
  9 27  1  0  0  0  0
  9 28  1  0  0  0  0
 10 29  1  0  0  0  0
 10 30  1  0  0  0  0
 11 31  1  0  0  0  0
 11 32  1  0  0  0  0
 13 33  1  0  0  0  0
 13 34  1  0  0  0  0
 13 35  1  0  0  0  0
 14 15  1  0  0  0  0
 14 16  1  0  0  0  0
 14 36  1  0  0  0  0
 16 18  1  0  0  0  0
 16 37  1  0  0  0  0
 16 38  1  0  0  0  0
 18 39  1  0  0  0  0
 18 40  1  0  0  0  0
 18 41  1  0  0  0  0
 19 20  2  0  0  0  0
 19 21  1  0  0  0  0
 20 22  1  0  0  0  0
 20 44  1  0  0  0  0
 21 23  2  0  0  0  0
 21 45  1  0  0  0  0
 22 24  2  0  0  0  0
 22 46  1  0  0  0  0
 23 24  1  0  0  0  0
 23 47  1  0  0  0  0
 24 48  1  0  0  0  0
M  END
> <PUBCHEM_COMPOUND_CID>
164610456

> <PUBCHEM_COMPOUND_CANONICALIZED>
1

> <PUBCHEM_CACTVS_COMPLEXITY>
370

> <PUBCHEM_CACTVS_HBOND_ACCEPTOR>
7

> <PUBCHEM_CACTVS_HBOND_DONOR>
1

> <PUBCHEM_CACTVS_ROTATABLE_BOND>
5

> <PUBCHEM_CACTVS_SUBSKEYS>
AAADceB7oAAAAAAAAAAAAAAAAAAAAAAAAAA8WIAAAAAAAAABwAAAHgAQAAAACBThkwYzFodIFACgACJiJAQCiAkgIKAJiAA+CIiObiKEuRqXOCCswBOYqAeAQAAAAAAAAAAAAAAAAAAAAAAAAAAAAAAAAA==

> <PUBCHEM_IUPAC_OPENEYE_NAME>
4-(4-methylpiperazin-1-yl)-6-(1-phenoxypropyl)-1,3,5-triazin-2-amine

> <PUBCHEM_IUPAC_CAS_NAME>
4-(4-methyl-1-piperazinyl)-6-(1-phenoxypropyl)-1,3,5-triazin-2-amine

> <PUBCHEM_IUPAC_NAME_MARKUP>
4-(4-methylpiperazin-1-yl)-6-(1-phenoxypropyl)-1,3,5-triazin-2-amine

> <PUBCHEM_IUPAC_NAME>
4-(4-methylpiperazin-1-yl)-6-(1-phenoxypropyl)-1,3,5-triazin-2-amine

> <PUBCHEM_IUPAC_SYSTEMATIC_NAME>
4-(4-methylpiperazin-1-yl)-6-(1-phenoxypropyl)-1,3,5-triazin-2-amine

> <PUBCHEM_IUPAC_TRADITIONAL_NAME>
[4-(4-methylpiperazino)-6-(1-phenoxypropyl)-s-triazin-2-yl]amine

> <PUBCHEM_IUPAC_INCHI>
InChI=1S/C17H24N6O/c1-3-14(24-13-7-5-4-6-8-13)15-19-16(18)21-17(20-15)23-11-9-22(2)10-12-23/h4-8,14H,3,9-12H2,1-2H3,(H2,18,19,20,21)

> <PUBCHEM_IUPAC_INCHIKEY>
RGBWKRQKGURHQM-UHFFFAOYSA-N

> <PUBCHEM_XLOGP3_AA>
2.3

> <PUBCHEM_EXACT_MASS>
328.20115941

> <PUBCHEM_MOLECULAR_FORMULA>
C17H24N6O

> <PUBCHEM_MOLECULAR_WEIGHT>
328.4

> <PUBCHEM_OPENEYE_CAN_SMILES>
CCC(C1=NC(=NC(=N1)N2CCN(CC2)C)N)OC3=CC=CC=C3

> <PUBCHEM_OPENEYE_ISO_SMILES>
CCC(C1=NC(=NC(=N1)N2CCN(CC2)C)N)OC3=CC=CC=C3

> <PUBCHEM_CACTVS_TPSA>
80.4

> <PUBCHEM_MONOISOTOPIC_WEIGHT>
328.20115941

> <PUBCHEM_TOTAL_CHARGE>
0

> <PUBCHEM_HEAVY_ATOM_COUNT>
24

> <PUBCHEM_ATOM_DEF_STEREO_COUNT>
0

> <PUBCHEM_ATOM_UDEF_STEREO_COUNT>
1

> <PUBCHEM_BOND_DEF_STEREO_COUNT>
0

> <PUBCHEM_BOND_UDEF_STEREO_COUNT>
0

> <PUBCHEM_ISOTOPIC_ATOM_COUNT>
0

> <PUBCHEM_COMPONENT_COUNT>
1

> <PUBCHEM_CACTVS_TAUTO_COUNT>
-1

> <PUBCHEM_COORDINATE_TYPE>
1
5
255

> <PUBCHEM_BONDANNOTATIONS>
14  16  3
19  20  8
19  21  8
20  22  8
21  23  8
22  24  8
23  24  8
4  12  8
4  15  8
5  12  8
5  17  8
6  15  8
6  17  8

$$$$
