44335909
  -OEChem-09292322182D

 60 63  0     1  0  0  0  0  0999 V2000
   10.5028   -0.5077    0.0000 Cl  0  0  0  0  0  0  0  0  0  0  0  0
    4.3211    1.6802    0.0000 O   0  0  0  0  0  0  0  0  0  0  0  0
    7.8314   -3.4849    0.0000 O   0  0  0  0  0  0  0  0  0  0  0  0
    6.2781    1.2677    0.0000 N   0  0  0  0  0  0  0  0  0  0  0  0
    6.8994   -0.6333    0.0000 N   0  0  0  0  0  0  0  0  0  0  0  0
    4.6783    3.3750    0.0000 N   0  0  0  0  0  0  0  0  0  0  0  0
    5.2619    4.1797    0.0000 C   0  0  1  0  0  0  0  0  0  0  0  0
    5.6103    0.5234    0.0000 C   0  0  0  0  0  0  0  0  0  0  0  0
    7.2566    1.0615    0.0000 C   0  0  0  0  0  0  0  0  0  0  0  0
    5.9209   -0.4271    0.0000 C   0  0  0  0  0  0  0  0  0  0  0  0
    7.5673    0.1110    0.0000 C   0  0  0  0  0  0  0  0  0  0  0  0
    5.9674    2.2182    0.0000 C   0  0  0  0  0  0  0  0  0  0  0  0
    4.6783    4.9844    0.0000 C   0  0  0  0  0  0  0  0  0  0  0  0
    3.7320    3.6797    0.0000 C   0  0  0  0  0  0  0  0  0  0  0  0
    3.7320    4.6797    0.0000 C   0  0  0  0  0  0  0  0  0  0  0  0
    4.9889    2.4245    0.0000 C   0  0  0  0  0  0  0  0  0  0  0  0
    7.2101   -1.5838    0.0000 C   0  0  0  0  0  0  0  0  0  0  0  0
    6.2619    4.1797    0.0000 C   0  0  0  0  0  0  0  0  0  0  0  0
    2.8660    3.1797    0.0000 C   0  0  0  0  0  0  0  0  0  0  0  0
    2.8660    5.1797    0.0000 C   0  0  0  0  0  0  0  0  0  0  0  0
    8.1886   -1.7901    0.0000 C   0  0  0  0  0  0  0  0  0  0  0  0
    2.0000    3.6797    0.0000 C   0  0  0  0  0  0  0  0  0  0  0  0
    2.0000    4.6797    0.0000 C   0  0  0  0  0  0  0  0  0  0  0  0
    8.4993   -2.7406    0.0000 C   0  0  0  0  0  0  0  0  0  0  0  0
    8.8564   -1.0458    0.0000 C   0  0  0  0  0  0  0  0  0  0  0  0
    9.4778   -2.9468    0.0000 C   0  0  0  0  0  0  0  0  0  0  0  0
    9.8349   -1.2520    0.0000 C   0  0  0  0  0  0  0  0  0  0  0  0
   10.1456   -2.2025    0.0000 C   0  0  0  0  0  0  0  0  0  0  0  0
    8.1421   -4.4354    0.0000 C   0  0  0  0  0  0  0  0  0  0  0  0
    7.4742   -5.1797    0.0000 C   0  0  0  0  0  0  0  0  0  0  0  0
    5.5436    3.6274    0.0000 H   0  0  0  0  0  0  0  0  0  0  0  0
    5.2277    1.0113    0.0000 H   0  0  0  0  0  0  0  0  0  0  0  0
    5.0633    0.2314    0.0000 H   0  0  0  0  0  0  0  0  0  0  0  0
    7.8704    1.1488    0.0000 H   0  0  0  0  0  0  0  0  0  0  0  0
    7.2772    1.6812    0.0000 H   0  0  0  0  0  0  0  0  0  0  0  0
    5.3071   -0.5145    0.0000 H   0  0  0  0  0  0  0  0  0  0  0  0
    5.9004   -1.0468    0.0000 H   0  0  0  0  0  0  0  0  0  0  0  0
    7.9498   -0.3769    0.0000 H   0  0  0  0  0  0  0  0  0  0  0  0
    8.1142    0.4030    0.0000 H   0  0  0  0  0  0  0  0  0  0  0  0
    6.5812    2.3056    0.0000 H   0  0  0  0  0  0  0  0  0  0  0  0
    5.9880    2.8379    0.0000 H   0  0  0  0  0  0  0  0  0  0  0  0
    5.2156    5.2937    0.0000 H   0  0  0  0  0  0  0  0  0  0  0  0
    4.4272    5.5514    0.0000 H   0  0  0  0  0  0  0  0  0  0  0  0
    6.5963   -1.6712    0.0000 H   0  0  0  0  0  0  0  0  0  0  0  0
    7.1895   -2.2035    0.0000 H   0  0  0  0  0  0  0  0  0  0  0  0
    6.2619    3.5597    0.0000 H   0  0  0  0  0  0  0  0  0  0  0  0
    6.8819    4.1797    0.0000 H   0  0  0  0  0  0  0  0  0  0  0  0
    6.2619    4.7997    0.0000 H   0  0  0  0  0  0  0  0  0  0  0  0
    2.8660    2.5597    0.0000 H   0  0  0  0  0  0  0  0  0  0  0  0
    2.8660    5.7997    0.0000 H   0  0  0  0  0  0  0  0  0  0  0  0
    1.4631    3.3697    0.0000 H   0  0  0  0  0  0  0  0  0  0  0  0
    1.4631    4.9897    0.0000 H   0  0  0  0  0  0  0  0  0  0  0  0
    8.6638   -0.4564    0.0000 H   0  0  0  0  0  0  0  0  0  0  0  0
    9.6704   -3.5361    0.0000 H   0  0  0  0  0  0  0  0  0  0  0  0
   10.7523   -2.3304    0.0000 H   0  0  0  0  0  0  0  0  0  0  0  0
    8.5246   -4.9233    0.0000 H   0  0  0  0  0  0  0  0  0  0  0  0
    8.6890   -4.1434    0.0000 H   0  0  0  0  0  0  0  0  0  0  0  0
    7.0128   -4.7656    0.0000 H   0  0  0  0  0  0  0  0  0  0  0  0
    7.0602   -5.6412    0.0000 H   0  0  0  0  0  0  0  0  0  0  0  0
    7.9357   -5.5938    0.0000 H   0  0  0  0  0  0  0  0  0  0  0  0
  1 27  1  0  0  0  0
  2 16  2  0  0  0  0
  3 24  1  0  0  0  0
  3 29  1  0  0  0  0
  4  8  1  0  0  0  0
  4  9  1  0  0  0  0
  4 12  1  0  0  0  0
  5 10  1  0  0  0  0
  5 11  1  0  0  0  0
  5 17  1  0  0  0  0
  6  7  1  0  0  0  0
  6 14  1  0  0  0  0
  6 16  1  0  0  0  0
  7 13  1  0  0  0  0
  7 18  1  1  0  0  0
  7 31  1  0  0  0  0
  8 10  1  0  0  0  0
  8 32  1  0  0  0  0
  8 33  1  0  0  0  0
  9 11  1  0  0  0  0
  9 34  1  0  0  0  0
  9 35  1  0  0  0  0
 10 36  1  0  0  0  0
 10 37  1  0  0  0  0
 11 38  1  0  0  0  0
 11 39  1  0  0  0  0
 12 16  1  0  0  0  0
 12 40  1  0  0  0  0
 12 41  1  0  0  0  0
 13 15  1  0  0  0  0
 13 42  1  0  0  0  0
 13 43  1  0  0  0  0
 14 15  1  0  0  0  0
 14 19  2  0  0  0  0
 15 20  2  0  0  0  0
 17 21  1  0  0  0  0
 17 44  1  0  0  0  0
 17 45  1  0  0  0  0
 18 46  1  0  0  0  0
 18 47  1  0  0  0  0
 18 48  1  0  0  0  0
 19 22  1  0  0  0  0
 19 49  1  0  0  0  0
 20 23  1  0  0  0  0
 20 50  1  0  0  0  0
 21 24  2  0  0  0  0
 21 25  1  0  0  0  0
 22 23  2  0  0  0  0
 22 51  1  0  0  0  0
 23 52  1  0  0  0  0
 24 26  1  0  0  0  0
 25 27  2  0  0  0  0
 25 53  1  0  0  0  0
 26 28  2  0  0  0  0
 26 54  1  0  0  0  0
 27 28  1  0  0  0  0
 28 55  1  0  0  0  0
 29 30  1  0  0  0  0
 29 56  1  0  0  0  0
 29 57  1  0  0  0  0
 30 58  1  0  0  0  0
 30 59  1  0  0  0  0
 30 60  1  0  0  0  0
M  END
> <PUBCHEM_COMPOUND_CID>
44335909

> <PUBCHEM_COMPOUND_CANONICALIZED>
1

> <PUBCHEM_CACTVS_COMPLEXITY>
569

> <PUBCHEM_CACTVS_HBOND_ACCEPTOR>
4

> <PUBCHEM_CACTVS_HBOND_DONOR>
0

> <PUBCHEM_CACTVS_ROTATABLE_BOND>
6

> <PUBCHEM_CACTVS_SUBSKEYS>
AAADceB7MAAEAAAAAAAAAAAAAAAAAWAAAAA8YIAAAAAAAFgBQAAAHgIAAAAADC7hmCYyxoMABACIAiVSUACCCAAhJwAIiACObogMZiLFs7uWOCjmxhHI6AeQwKAOACAAIAAKAAAAQABAABQAAAAAAAAAAA==

> <PUBCHEM_IUPAC_OPENEYE_NAME>
2-[4-[(5-chloro-2-ethoxy-phenyl)methyl]piperazin-1-yl]-1-[(2R)-2-methylindolin-1-yl]ethanone

> <PUBCHEM_IUPAC_CAS_NAME>
2-[4-[(5-chloro-2-ethoxyphenyl)methyl]-1-piperazinyl]-1-[(2R)-2-methyl-2,3-dihydroindol-1-yl]ethanone

> <PUBCHEM_IUPAC_NAME_MARKUP>
2-[4-[(5-chloro-2-ethoxyphenyl)methyl]piperazin-1-yl]-1-[(2<I>R</I>)-2-methyl-2,3-dihydroindol-1-yl]ethanone

> <PUBCHEM_IUPAC_NAME>
2-[4-[(5-chloro-2-ethoxyphenyl)methyl]piperazin-1-yl]-1-[(2R)-2-methyl-2,3-dihydroindol-1-yl]ethanone

> <PUBCHEM_IUPAC_SYSTEMATIC_NAME>
2-[4-[(5-chloranyl-2-ethoxy-phenyl)methyl]piperazin-1-yl]-1-[(2R)-2-methyl-2,3-dihydroindol-1-yl]ethanone

> <PUBCHEM_IUPAC_TRADITIONAL_NAME>
2-[4-(5-chloro-2-ethoxy-benzyl)piperazino]-1-[(2R)-2-methylindolin-1-yl]ethanone

> <PUBCHEM_IUPAC_INCHI>
InChI=1S/C24H30ClN3O2/c1-3-30-23-9-8-21(25)15-20(23)16-26-10-12-27(13-11-26)17-24(29)28-18(2)14-19-6-4-5-7-22(19)28/h4-9,15,18H,3,10-14,16-17H2,1-2H3/t18-/m1/s1

> <PUBCHEM_IUPAC_INCHIKEY>
QSFIOZUTOJIBTH-GOSISDBHSA-N

> <PUBCHEM_XLOGP3_AA>
4.1

> <PUBCHEM_EXACT_MASS>
427.2026549

> <PUBCHEM_MOLECULAR_FORMULA>
C24H30ClN3O2

> <PUBCHEM_MOLECULAR_WEIGHT>
428.0

> <PUBCHEM_OPENEYE_CAN_SMILES>
CCOC1=C(C=C(C=C1)Cl)CN2CCN(CC2)CC(=O)N3C(CC4=CC=CC=C43)C

> <PUBCHEM_OPENEYE_ISO_SMILES>
CCOC1=C(C=C(C=C1)Cl)CN2CCN(CC2)CC(=O)N3[C@@H](CC4=CC=CC=C43)C

> <PUBCHEM_CACTVS_TPSA>
36

> <PUBCHEM_MONOISOTOPIC_WEIGHT>
427.2026549

> <PUBCHEM_TOTAL_CHARGE>
0

> <PUBCHEM_HEAVY_ATOM_COUNT>
30

> <PUBCHEM_ATOM_DEF_STEREO_COUNT>
1

> <PUBCHEM_ATOM_UDEF_STEREO_COUNT>
0

> <PUBCHEM_BOND_DEF_STEREO_COUNT>
0

> <PUBCHEM_BOND_UDEF_STEREO_COUNT>
0

> <PUBCHEM_ISOTOPIC_ATOM_COUNT>
0

> <PUBCHEM_COMPONENT_COUNT>
1

> <PUBCHEM_CACTVS_TAUTO_COUNT>
-1

> <PUBCHEM_COORDINATE_TYPE>
1
5
255

> <PUBCHEM_BONDANNOTATIONS>
14  15  8
14  19  8
15  20  8
19  22  8
20  23  8
21  24  8
21  25  8
22  23  8
24  26  8
25  27  8
26  28  8
27  28  8
7  18  5

$$$$
