10254390
  -OEChem-09292322112D

 59 62  0     0  0  0  0  0  0999 V2000
   13.7619    0.3840    0.0000 Cl  0  0  0  0  0  0  0  0  0  0  0  0
   15.7619    0.3840    0.0000 Cl  0  0  0  0  0  0  0  0  0  0  0  0
    4.6783   -1.2868    0.0000 O   0  0  0  0  0  0  0  0  0  0  0  0
    6.7619   -1.3481    0.0000 O   0  0  0  0  0  0  0  0  0  0  0  0
    2.8660   -2.4820    0.0000 O   0  0  0  0  0  0  0  0  0  0  0  0
   10.7619    2.1160    0.0000 N   0  0  0  0  0  0  0  0  0  0  0  0
   12.7619    2.1160    0.0000 N   0  0  0  0  0  0  0  0  0  0  0  0
    6.7619    0.3840    0.0000 N   0  0  0  0  0  0  0  0  0  0  0  0
   11.2619    1.2500    0.0000 C   0  0  0  0  0  0  0  0  0  0  0  0
   11.2619    2.9820    0.0000 C   0  0  0  0  0  0  0  0  0  0  0  0
   12.2619    1.2500    0.0000 C   0  0  0  0  0  0  0  0  0  0  0  0
   12.2619    2.9820    0.0000 C   0  0  0  0  0  0  0  0  0  0  0  0
    9.7619    2.1160    0.0000 C   0  0  0  0  0  0  0  0  0  0  0  0
    9.2619    1.2500    0.0000 C   0  0  0  0  0  0  0  0  0  0  0  0
    8.2619    1.2500    0.0000 C   0  0  0  0  0  0  0  0  0  0  0  0
   13.7619    2.1160    0.0000 C   0  0  0  0  0  0  0  0  0  0  0  0
    7.7619    0.3840    0.0000 C   0  0  0  0  0  0  0  0  0  0  0  0
   14.2619    1.2500    0.0000 C   0  0  0  0  0  0  0  0  0  0  0  0
   14.2619    2.9820    0.0000 C   0  0  0  0  0  0  0  0  0  0  0  0
   15.2619    1.2500    0.0000 C   0  0  0  0  0  0  0  0  0  0  0  0
   15.2619    2.9820    0.0000 C   0  0  0  0  0  0  0  0  0  0  0  0
   15.7619    2.1160    0.0000 C   0  0  0  0  0  0  0  0  0  0  0  0
    6.2619   -0.4821    0.0000 C   0  0  0  0  0  0  0  0  0  0  0  0
    5.2619   -0.4821    0.0000 C   0  0  0  0  0  0  0  0  0  0  0  0
    3.7320    0.0179    0.0000 C   0  0  0  0  0  0  0  0  0  0  0  0
    4.6783    0.3227    0.0000 C   0  0  0  0  0  0  0  0  0  0  0  0
    3.7320   -0.9821    0.0000 C   0  0  0  0  0  0  0  0  0  0  0  0
    2.8660   -1.4820    0.0000 C   0  0  0  0  0  0  0  0  0  0  0  0
    2.8660    0.5179    0.0000 C   0  0  0  0  0  0  0  0  0  0  0  0
    2.0000   -0.9821    0.0000 C   0  0  0  0  0  0  0  0  0  0  0  0
    2.0000    0.0179    0.0000 C   0  0  0  0  0  0  0  0  0  0  0  0
    2.0000   -2.9820    0.0000 C   0  0  0  0  0  0  0  0  0  0  0  0
   10.6793    1.0380    0.0000 H   0  0  0  0  0  0  0  0  0  0  0  0
   11.3695    0.6394    0.0000 H   0  0  0  0  0  0  0  0  0  0  0  0
   11.3695    3.5926    0.0000 H   0  0  0  0  0  0  0  0  0  0  0  0
   10.6793    3.1941    0.0000 H   0  0  0  0  0  0  0  0  0  0  0  0
   12.1542    0.6394    0.0000 H   0  0  0  0  0  0  0  0  0  0  0  0
   12.8445    1.0380    0.0000 H   0  0  0  0  0  0  0  0  0  0  0  0
   12.8445    3.1941    0.0000 H   0  0  0  0  0  0  0  0  0  0  0  0
   12.1542    3.5926    0.0000 H   0  0  0  0  0  0  0  0  0  0  0  0
    9.8695    2.7266    0.0000 H   0  0  0  0  0  0  0  0  0  0  0  0
    9.1793    2.3281    0.0000 H   0  0  0  0  0  0  0  0  0  0  0  0
    9.1542    0.6394    0.0000 H   0  0  0  0  0  0  0  0  0  0  0  0
    9.8445    1.0380    0.0000 H   0  0  0  0  0  0  0  0  0  0  0  0
    8.3695    1.8606    0.0000 H   0  0  0  0  0  0  0  0  0  0  0  0
    7.6793    1.4620    0.0000 H   0  0  0  0  0  0  0  0  0  0  0  0
    7.6542   -0.2266    0.0000 H   0  0  0  0  0  0  0  0  0  0  0  0
    8.3445    0.1719    0.0000 H   0  0  0  0  0  0  0  0  0  0  0  0
   13.9519    3.5190    0.0000 H   0  0  0  0  0  0  0  0  0  0  0  0
    6.4519    0.9209    0.0000 H   0  0  0  0  0  0  0  0  0  0  0  0
   15.5719    3.5190    0.0000 H   0  0  0  0  0  0  0  0  0  0  0  0
   16.3819    2.1160    0.0000 H   0  0  0  0  0  0  0  0  0  0  0  0
    4.8709    0.9120    0.0000 H   0  0  0  0  0  0  0  0  0  0  0  0
    2.8660    1.1380    0.0000 H   0  0  0  0  0  0  0  0  0  0  0  0
    1.4631   -1.2920    0.0000 H   0  0  0  0  0  0  0  0  0  0  0  0
    1.4631    0.3279    0.0000 H   0  0  0  0  0  0  0  0  0  0  0  0
    1.6900   -2.4451    0.0000 H   0  0  0  0  0  0  0  0  0  0  0  0
    1.4631   -3.2920    0.0000 H   0  0  0  0  0  0  0  0  0  0  0  0
    2.3100   -3.5190    0.0000 H   0  0  0  0  0  0  0  0  0  0  0  0
  1 18  1  0  0  0  0
  2 20  1  0  0  0  0
  3 24  1  0  0  0  0
  3 27  1  0  0  0  0
  4 23  2  0  0  0  0
  5 28  1  0  0  0  0
  5 32  1  0  0  0  0
  6  9  1  0  0  0  0
  6 10  1  0  0  0  0
  6 13  1  0  0  0  0
  7 11  1  0  0  0  0
  7 12  1  0  0  0  0
  7 16  1  0  0  0  0
  8 17  1  0  0  0  0
  8 23  1  0  0  0  0
  8 50  1  0  0  0  0
  9 11  1  0  0  0  0
  9 33  1  0  0  0  0
  9 34  1  0  0  0  0
 10 12  1  0  0  0  0
 10 35  1  0  0  0  0
 10 36  1  0  0  0  0
 11 37  1  0  0  0  0
 11 38  1  0  0  0  0
 12 39  1  0  0  0  0
 12 40  1  0  0  0  0
 13 14  1  0  0  0  0
 13 41  1  0  0  0  0
 13 42  1  0  0  0  0
 14 15  1  0  0  0  0
 14 43  1  0  0  0  0
 14 44  1  0  0  0  0
 15 17  1  0  0  0  0
 15 45  1  0  0  0  0
 15 46  1  0  0  0  0
 16 18  2  0  0  0  0
 16 19  1  0  0  0  0
 17 47  1  0  0  0  0
 17 48  1  0  0  0  0
 18 20  1  0  0  0  0
 19 21  2  0  0  0  0
 19 49  1  0  0  0  0
 20 22  2  0  0  0  0
 21 22  1  0  0  0  0
 21 51  1  0  0  0  0
 22 52  1  0  0  0  0
 23 24  1  0  0  0  0
 24 26  2  0  0  0  0
 25 26  1  0  0  0  0
 25 27  2  0  0  0  0
 25 29  1  0  0  0  0
 26 53  1  0  0  0  0
 27 28  1  0  0  0  0
 28 30  2  0  0  0  0
 29 31  2  0  0  0  0
 29 54  1  0  0  0  0
 30 31  1  0  0  0  0
 30 55  1  0  0  0  0
 31 56  1  0  0  0  0
 32 57  1  0  0  0  0
 32 58  1  0  0  0  0
 32 59  1  0  0  0  0
M  END
> <PUBCHEM_COMPOUND_CID>
10254390

> <PUBCHEM_COMPOUND_CANONICALIZED>
1

> <PUBCHEM_CACTVS_COMPLEXITY>
605

> <PUBCHEM_CACTVS_HBOND_ACCEPTOR>
5

> <PUBCHEM_CACTVS_HBOND_DONOR>
1

> <PUBCHEM_CACTVS_ROTATABLE_BOND>
8

> <PUBCHEM_CACTVS_SUBSKEYS>
AAADceB7MAAGAAAAAAAAAAAAAAAAASAAAAA8YIAAAAAAAEgB9AAAHgIQAAAADA7BmCYyxsPABECIAqVSUAKCCAAlJwAIisHO7sgPZjLFt7/XOSrk1hHa6YeY/77uAAABAAIIQBQAAAIABBCAKAAAAAAAAA==

> <PUBCHEM_IUPAC_OPENEYE_NAME>
N-[4-[4-(2,3-dichlorophenyl)piperazin-1-yl]butyl]-7-methoxy-benzofuran-2-carboxamide

> <PUBCHEM_IUPAC_CAS_NAME>
N-[4-[4-(2,3-dichlorophenyl)-1-piperazinyl]butyl]-7-methoxy-2-benzofurancarboxamide

> <PUBCHEM_IUPAC_NAME_MARKUP>
<I>N</I>-[4-[4-(2,3-dichlorophenyl)piperazin-1-yl]butyl]-7-methoxy-1-benzofuran-2-carboxamide

> <PUBCHEM_IUPAC_NAME>
N-[4-[4-(2,3-dichlorophenyl)piperazin-1-yl]butyl]-7-methoxy-1-benzofuran-2-carboxamide

> <PUBCHEM_IUPAC_SYSTEMATIC_NAME>
N-[4-[4-[2,3-bis(chloranyl)phenyl]piperazin-1-yl]butyl]-7-methoxy-1-benzofuran-2-carboxamide

> <PUBCHEM_IUPAC_TRADITIONAL_NAME>
N-[4-[4-(2,3-dichlorophenyl)piperazino]butyl]-7-methoxy-coumarilamide

> <PUBCHEM_IUPAC_INCHI>
InChI=1S/C24H27Cl2N3O3/c1-31-20-9-4-6-17-16-21(32-23(17)20)24(30)27-10-2-3-11-28-12-14-29(15-13-28)19-8-5-7-18(25)22(19)26/h4-9,16H,2-3,10-15H2,1H3,(H,27,30)

> <PUBCHEM_IUPAC_INCHIKEY>
OVCZXWAILUTIOQ-UHFFFAOYSA-N

> <PUBCHEM_XLOGP3_AA>
5.5

> <PUBCHEM_EXACT_MASS>
475.1429471

> <PUBCHEM_MOLECULAR_FORMULA>
C24H27Cl2N3O3

> <PUBCHEM_MOLECULAR_WEIGHT>
476.4

> <PUBCHEM_OPENEYE_CAN_SMILES>
COC1=CC=CC2=C1OC(=C2)C(=O)NCCCCN3CCN(CC3)C4=C(C(=CC=C4)Cl)Cl

> <PUBCHEM_OPENEYE_ISO_SMILES>
COC1=CC=CC2=C1OC(=C2)C(=O)NCCCCN3CCN(CC3)C4=C(C(=CC=C4)Cl)Cl

> <PUBCHEM_CACTVS_TPSA>
58

> <PUBCHEM_MONOISOTOPIC_WEIGHT>
475.1429471

> <PUBCHEM_TOTAL_CHARGE>
0

> <PUBCHEM_HEAVY_ATOM_COUNT>
32

> <PUBCHEM_ATOM_DEF_STEREO_COUNT>
0

> <PUBCHEM_ATOM_UDEF_STEREO_COUNT>
0

> <PUBCHEM_BOND_DEF_STEREO_COUNT>
0

> <PUBCHEM_BOND_UDEF_STEREO_COUNT>
0

> <PUBCHEM_ISOTOPIC_ATOM_COUNT>
0

> <PUBCHEM_COMPONENT_COUNT>
1

> <PUBCHEM_CACTVS_TAUTO_COUNT>
-1

> <PUBCHEM_COORDINATE_TYPE>
1
5
255

> <PUBCHEM_BONDANNOTATIONS>
16  18  8
16  19  8
18  20  8
19  21  8
20  22  8
21  22  8
24  26  8
25  26  8
25  27  8
25  29  8
27  28  8
28  30  8
29  31  8
3  24  8
3  27  8
30  31  8

$$$$
