44356064
  -OEChem-09292322132D

 50 52  0     1  0  0  0  0  0999 V2000
    3.4782    1.7272    0.0000 S   0  0  0  0  0  0  0  0  0  0  0  0
   11.4429    0.2085    0.0000 O   0  0  0  0  0  0  0  0  0  0  0  0
    6.1808    0.2327    0.0000 N   0  0  3  0  0  0  0  0  0  0  0  0
    7.0468    0.7327    0.0000 C   0  0  2  0  0  0  0  0  0  0  0  0
    7.0468    1.7327    0.0000 C   0  0  0  0  0  0  0  0  0  0  0  0
    7.9128    0.2327    0.0000 C   0  0  0  0  0  0  0  0  0  0  0  0
    7.9128    2.2327    0.0000 C   0  0  0  0  0  0  0  0  0  0  0  0
    8.7788    0.7327    0.0000 C   0  0  0  0  0  0  0  0  0  0  0  0
    8.7788    1.7327    0.0000 C   0  0  0  0  0  0  0  0  0  0  0  0
    5.3147    0.7327    0.0000 C   0  0  0  0  0  0  0  0  0  0  0  0
    6.1808   -0.7673    0.0000 C   0  0  0  0  0  0  0  0  0  0  0  0
    4.4487    0.2327    0.0000 C   0  0  0  0  0  0  0  0  0  0  0  0
    5.3147   -1.2673    0.0000 C   0  0  0  0  0  0  0  0  0  0  0  0
    9.6728    0.1980    0.0000 C   0  0  0  0  0  0  0  0  0  0  0  0
    9.6728    2.2673    0.0000 C   0  0  0  0  0  0  0  0  0  0  0  0
   10.5788    0.7119    0.0000 C   0  0  0  0  0  0  0  0  0  0  0  0
   10.5788    1.7535    0.0000 C   0  0  0  0  0  0  0  0  0  0  0  0
    3.5827    0.7327    0.0000 C   0  0  0  0  0  0  0  0  0  0  0  0
    5.3147   -2.2673    0.0000 C   0  0  0  0  0  0  0  0  0  0  0  0
    2.6691    0.3259    0.0000 C   0  0  0  0  0  0  0  0  0  0  0  0
    2.0000    1.0691    0.0000 C   0  0  0  0  0  0  0  0  0  0  0  0
    2.5000    1.9351    0.0000 C   0  0  0  0  0  0  0  0  0  0  0  0
   12.3109    0.7052    0.0000 C   0  0  0  0  0  0  0  0  0  0  0  0
    7.0468    0.1127    0.0000 H   0  0  0  0  0  0  0  0  0  0  0  0
    6.8347    2.3153    0.0000 H   0  0  0  0  0  0  0  0  0  0  0  0
    6.4362    1.6250    0.0000 H   0  0  0  0  0  0  0  0  0  0  0  0
    7.5143   -0.2423    0.0000 H   0  0  0  0  0  0  0  0  0  0  0  0
    8.3113   -0.2423    0.0000 H   0  0  0  0  0  0  0  0  0  0  0  0
    8.3113    2.7076    0.0000 H   0  0  0  0  0  0  0  0  0  0  0  0
    7.5143    2.7076    0.0000 H   0  0  0  0  0  0  0  0  0  0  0  0
    5.7133    1.2076    0.0000 H   0  0  0  0  0  0  0  0  0  0  0  0
    4.9162    1.2076    0.0000 H   0  0  0  0  0  0  0  0  0  0  0  0
    6.3928   -1.3499    0.0000 H   0  0  0  0  0  0  0  0  0  0  0  0
    6.7913   -0.6597    0.0000 H   0  0  0  0  0  0  0  0  0  0  0  0
    4.0502   -0.2423    0.0000 H   0  0  0  0  0  0  0  0  0  0  0  0
    4.8472   -0.2423    0.0000 H   0  0  0  0  0  0  0  0  0  0  0  0
    5.1027   -0.6847    0.0000 H   0  0  0  0  0  0  0  0  0  0  0  0
    4.7042   -1.3750    0.0000 H   0  0  0  0  0  0  0  0  0  0  0  0
    9.6656   -0.4220    0.0000 H   0  0  0  0  0  0  0  0  0  0  0  0
    9.6656    2.8873    0.0000 H   0  0  0  0  0  0  0  0  0  0  0  0
   11.1146    2.0656    0.0000 H   0  0  0  0  0  0  0  0  0  0  0  0
    4.6947   -2.2673    0.0000 H   0  0  0  0  0  0  0  0  0  0  0  0
    5.3147   -2.8873    0.0000 H   0  0  0  0  0  0  0  0  0  0  0  0
    5.9347   -2.2673    0.0000 H   0  0  0  0  0  0  0  0  0  0  0  0
    2.5402   -0.2805    0.0000 H   0  0  0  0  0  0  0  0  0  0  0  0
    1.3834    1.0043    0.0000 H   0  0  0  0  0  0  0  0  0  0  0  0
    2.2478    2.5015    0.0000 H   0  0  0  0  0  0  0  0  0  0  0  0
   12.6188    0.1671    0.0000 H   0  0  0  0  0  0  0  0  0  0  0  0
   12.8490    1.0131    0.0000 H   0  0  0  0  0  0  0  0  0  0  0  0
   12.0029    1.2433    0.0000 H   0  0  0  0  0  0  0  0  0  0  0  0
  1 18  1  0  0  0  0
  1 22  1  0  0  0  0
  2 16  1  0  0  0  0
  2 23  1  0  0  0  0
  4  3  1  6  0  0  0
  3 10  1  0  0  0  0
  3 11  1  0  0  0  0
  4  5  1  0  0  0  0
  4  6  1  0  0  0  0
  4 24  1  0  0  0  0
  5  7  1  0  0  0  0
  5 25  1  0  0  0  0
  5 26  1  0  0  0  0
  6  8  1  0  0  0  0
  6 27  1  0  0  0  0
  6 28  1  0  0  0  0
  7  9  1  0  0  0  0
  7 29  1  0  0  0  0
  7 30  1  0  0  0  0
  8  9  2  0  0  0  0
  8 14  1  0  0  0  0
  9 15  1  0  0  0  0
 10 12  1  0  0  0  0
 10 31  1  0  0  0  0
 10 32  1  0  0  0  0
 11 13  1  0  0  0  0
 11 33  1  0  0  0  0
 11 34  1  0  0  0  0
 12 18  1  0  0  0  0
 12 35  1  0  0  0  0
 12 36  1  0  0  0  0
 13 19  1  0  0  0  0
 13 37  1  0  0  0  0
 13 38  1  0  0  0  0
 14 16  2  0  0  0  0
 14 39  1  0  0  0  0
 15 17  2  0  0  0  0
 15 40  1  0  0  0  0
 16 17  1  0  0  0  0
 17 41  1  0  0  0  0
 18 20  2  0  0  0  0
 19 42  1  0  0  0  0
 19 43  1  0  0  0  0
 19 44  1  0  0  0  0
 20 21  1  0  0  0  0
 20 45  1  0  0  0  0
 21 22  2  0  0  0  0
 21 46  1  0  0  0  0
 22 47  1  0  0  0  0
 23 48  1  0  0  0  0
 23 49  1  0  0  0  0
 23 50  1  0  0  0  0
M  END
> <PUBCHEM_COMPOUND_CID>
44356064

> <PUBCHEM_COMPOUND_CANONICALIZED>
1

> <PUBCHEM_CACTVS_COMPLEXITY>
351

> <PUBCHEM_CACTVS_HBOND_ACCEPTOR>
3

> <PUBCHEM_CACTVS_HBOND_DONOR>
0

> <PUBCHEM_CACTVS_ROTATABLE_BOND>
7

> <PUBCHEM_CACTVS_SUBSKEYS>
AAADceB6IABAAAAAAAAAAAAAAAAAASAAAAAwYAAAAAAAAADBwAAAHgQAAAAADCzF2AayB4MABAiEAiBCAAADCIAgKBBIiBgOCIgMJiKksRuEMCAkwBGoqAeQ0LMOoAABAAAQAABQAAKAACAAAAAAAAAAAA==

> <PUBCHEM_IUPAC_OPENEYE_NAME>
(2R)-7-methoxy-N-propyl-N-[2-(2-thienyl)ethyl]tetralin-2-amine

> <PUBCHEM_IUPAC_CAS_NAME>
(2R)-7-methoxy-N-propyl-N-(2-thiophen-2-ylethyl)-1,2,3,4-tetrahydronaphthalen-2-amine

> <PUBCHEM_IUPAC_NAME_MARKUP>
(2<I>R</I>)-7-methoxy-<I>N</I>-propyl-<I>N</I>-(2-thiophen-2-ylethyl)-1,2,3,4-tetrahydronaphthalen-2-amine

> <PUBCHEM_IUPAC_NAME>
(2R)-7-methoxy-N-propyl-N-(2-thiophen-2-ylethyl)-1,2,3,4-tetrahydronaphthalen-2-amine

> <PUBCHEM_IUPAC_SYSTEMATIC_NAME>
(2R)-7-methoxy-N-propyl-N-(2-thiophen-2-ylethyl)-1,2,3,4-tetrahydronaphthalen-2-amine

> <PUBCHEM_IUPAC_TRADITIONAL_NAME>
[(2R)-7-methoxytetralin-2-yl]-propyl-[2-(2-thienyl)ethyl]amine

> <PUBCHEM_IUPAC_INCHI>
InChI=1S/C20H27NOS/c1-3-11-21(12-10-20-5-4-13-23-20)18-8-6-16-7-9-19(22-2)15-17(16)14-18/h4-5,7,9,13,15,18H,3,6,8,10-12,14H2,1-2H3/t18-/m1/s1

> <PUBCHEM_IUPAC_INCHIKEY>
OWXFTDUHWKXJTL-GOSISDBHSA-N

> <PUBCHEM_XLOGP3_AA>
5.2

> <PUBCHEM_EXACT_MASS>
329.18133566

> <PUBCHEM_MOLECULAR_FORMULA>
C20H27NOS

> <PUBCHEM_MOLECULAR_WEIGHT>
329.5

> <PUBCHEM_OPENEYE_CAN_SMILES>
CCCN(CCC1=CC=CS1)C2CCC3=C(C2)C=C(C=C3)OC

> <PUBCHEM_OPENEYE_ISO_SMILES>
CCCN(CCC1=CC=CS1)[C@@H]2CCC3=C(C2)C=C(C=C3)OC

> <PUBCHEM_CACTVS_TPSA>
40.7

> <PUBCHEM_MONOISOTOPIC_WEIGHT>
329.18133566

> <PUBCHEM_TOTAL_CHARGE>
0

> <PUBCHEM_HEAVY_ATOM_COUNT>
23

> <PUBCHEM_ATOM_DEF_STEREO_COUNT>
1

> <PUBCHEM_ATOM_UDEF_STEREO_COUNT>
0

> <PUBCHEM_BOND_DEF_STEREO_COUNT>
0

> <PUBCHEM_BOND_UDEF_STEREO_COUNT>
0

> <PUBCHEM_ISOTOPIC_ATOM_COUNT>
0

> <PUBCHEM_COMPONENT_COUNT>
1

> <PUBCHEM_CACTVS_TAUTO_COUNT>
-1

> <PUBCHEM_COORDINATE_TYPE>
1
5
255

> <PUBCHEM_BONDANNOTATIONS>
1  18  8
1  22  8
14  16  8
15  17  8
16  17  8
18  20  8
20  21  8
21  22  8
4  3  6
8  14  8
8  9  8
9  15  8

$$$$
