155533660
  -OEChem-09292322462D

 56 60  0     0  0  0  0  0  0999 V2000
    5.7868    1.6018    0.0000 S   0  0  0  0  0  0  0  0  0  0  0  0
    4.7868    1.6018    0.0000 O   0  0  0  0  0  0  0  0  0  0  0  0
    6.7868    1.6018    0.0000 O   0  0  0  0  0  0  0  0  0  0  0  0
    2.9785   -2.2148    0.0000 O   0  0  0  0  0  0  0  0  0  0  0  0
    8.6122   -4.6364    0.0000 O   0  0  0  0  0  0  0  0  0  0  0  0
    5.7868    0.6018    0.0000 N   0  0  0  0  0  0  0  0  0  0  0  0
    7.8773   -1.7316    0.0000 N   0  0  0  0  0  0  0  0  0  0  0  0
    7.3827   -3.2722    0.0000 N   0  0  0  0  0  0  0  0  0  0  0  0
    9.1418   -2.9873    0.0000 N   0  0  0  0  0  0  0  0  0  0  0  0
    4.9820    0.0181    0.0000 C   0  0  0  0  0  0  0  0  0  0  0  0
    5.2927   -0.9324    0.0000 C   0  0  0  0  0  0  0  0  0  0  0  0
    6.2868   -0.9281    0.0000 C   0  0  0  0  0  0  0  0  0  0  0  0
    6.5915    0.0181    0.0000 C   0  0  0  0  0  0  0  0  0  0  0  0
    5.7868    2.6018    0.0000 C   0  0  0  0  0  0  0  0  0  0  0  0
    6.8774   -1.7350    0.0000 C   0  0  0  0  0  0  0  0  0  0  0  0
    4.0035    0.2244    0.0000 C   0  0  0  0  0  0  0  0  0  0  0  0
    4.6249   -1.6767    0.0000 C   0  0  0  0  0  0  0  0  0  0  0  0
    6.6528    3.1018    0.0000 C   0  0  0  0  0  0  0  0  0  0  0  0
    6.5716   -2.6872    0.0000 C   0  0  0  0  0  0  0  0  0  0  0  0
    3.6464   -1.4705    0.0000 C   0  0  0  0  0  0  0  0  0  0  0  0
    3.3357   -0.5199    0.0000 C   0  0  0  0  0  0  0  0  0  0  0  0
    6.6528    4.1018    0.0000 C   0  0  0  0  0  0  0  0  0  0  0  0
    4.9207    3.1018    0.0000 C   0  0  0  0  0  0  0  0  0  0  0  0
    8.1896   -2.6816    0.0000 C   0  0  0  0  0  0  0  0  0  0  0  0
    7.5467    2.5671    0.0000 C   0  0  0  0  0  0  0  0  0  0  0  0
    5.7868    4.6018    0.0000 C   0  0  0  0  0  0  0  0  0  0  0  0
    4.9207    4.1018    0.0000 C   0  0  0  0  0  0  0  0  0  0  0  0
    5.6216   -2.9995    0.0000 C   0  0  0  0  0  0  0  0  0  0  0  0
    7.5467    4.6364    0.0000 C   0  0  0  0  0  0  0  0  0  0  0  0
    8.4528    3.0809    0.0000 C   0  0  0  0  0  0  0  0  0  0  0  0
    8.4528    4.1226    0.0000 C   0  0  0  0  0  0  0  0  0  0  0  0
    2.0000   -2.0085    0.0000 C   0  0  0  0  0  0  0  0  0  0  0  0
    9.3531   -3.9647    0.0000 C   0  0  0  0  0  0  0  0  0  0  0  0
   10.3052   -4.2704    0.0000 C   0  0  0  0  0  0  0  0  0  0  0  0
    7.1808    0.2108    0.0000 H   0  0  0  0  0  0  0  0  0  0  0  0
    3.8109    0.8137    0.0000 H   0  0  0  0  0  0  0  0  0  0  0  0
    4.8175   -2.2660    0.0000 H   0  0  0  0  0  0  0  0  0  0  0  0
    2.7290   -0.3921    0.0000 H   0  0  0  0  0  0  0  0  0  0  0  0
    4.3838    2.7918    0.0000 H   0  0  0  0  0  0  0  0  0  0  0  0
    7.3848   -3.8922    0.0000 H   0  0  0  0  0  0  0  0  0  0  0  0
    7.5396    1.9471    0.0000 H   0  0  0  0  0  0  0  0  0  0  0  0
    5.7868    5.2218    0.0000 H   0  0  0  0  0  0  0  0  0  0  0  0
    4.3838    4.4118    0.0000 H   0  0  0  0  0  0  0  0  0  0  0  0
    5.4280   -2.4105    0.0000 H   0  0  0  0  0  0  0  0  0  0  0  0
    5.0327   -3.1931    0.0000 H   0  0  0  0  0  0  0  0  0  0  0  0
    5.8153   -3.5885    0.0000 H   0  0  0  0  0  0  0  0  0  0  0  0
    7.5396    5.2564    0.0000 H   0  0  0  0  0  0  0  0  0  0  0  0
    8.9885    2.7689    0.0000 H   0  0  0  0  0  0  0  0  0  0  0  0
    8.9885    4.4346    0.0000 H   0  0  0  0  0  0  0  0  0  0  0  0
    9.6011   -2.5708    0.0000 H   0  0  0  0  0  0  0  0  0  0  0  0
    2.1279   -1.4019    0.0000 H   0  0  0  0  0  0  0  0  0  0  0  0
    1.3933   -1.8807    0.0000 H   0  0  0  0  0  0  0  0  0  0  0  0
    1.8721   -2.6152    0.0000 H   0  0  0  0  0  0  0  0  0  0  0  0
   10.1156   -4.8608    0.0000 H   0  0  0  0  0  0  0  0  0  0  0  0
   10.8955   -4.4600    0.0000 H   0  0  0  0  0  0  0  0  0  0  0  0
   10.4947   -3.6801    0.0000 H   0  0  0  0  0  0  0  0  0  0  0  0
  1  2  2  0  0  0  0
  1  3  2  0  0  0  0
  1  6  1  0  0  0  0
  1 14  1  0  0  0  0
  4 20  1  0  0  0  0
  4 32  1  0  0  0  0
  5 33  2  0  0  0  0
  6 10  1  0  0  0  0
  6 13  1  0  0  0  0
  7 15  1  0  0  0  0
  7 24  2  0  0  0  0
  8 19  1  0  0  0  0
  8 24  1  0  0  0  0
  8 40  1  0  0  0  0
  9 24  1  0  0  0  0
  9 33  1  0  0  0  0
  9 50  1  0  0  0  0
 10 11  2  0  0  0  0
 10 16  1  0  0  0  0
 11 12  1  0  0  0  0
 11 17  1  0  0  0  0
 12 13  2  0  0  0  0
 12 15  1  0  0  0  0
 13 35  1  0  0  0  0
 14 18  1  0  0  0  0
 14 23  2  0  0  0  0
 15 19  2  0  0  0  0
 16 21  2  0  0  0  0
 16 36  1  0  0  0  0
 17 20  2  0  0  0  0
 17 37  1  0  0  0  0
 18 22  1  0  0  0  0
 18 25  2  0  0  0  0
 19 28  1  0  0  0  0
 20 21  1  0  0  0  0
 21 38  1  0  0  0  0
 22 26  1  0  0  0  0
 22 29  2  0  0  0  0
 23 27  1  0  0  0  0
 23 39  1  0  0  0  0
 25 30  1  0  0  0  0
 25 41  1  0  0  0  0
 26 27  2  0  0  0  0
 26 42  1  0  0  0  0
 27 43  1  0  0  0  0
 28 44  1  0  0  0  0
 28 45  1  0  0  0  0
 28 46  1  0  0  0  0
 29 31  1  0  0  0  0
 29 47  1  0  0  0  0
 30 31  2  0  0  0  0
 30 48  1  0  0  0  0
 31 49  1  0  0  0  0
 32 51  1  0  0  0  0
 32 52  1  0  0  0  0
 32 53  1  0  0  0  0
 33 34  1  0  0  0  0
 34 54  1  0  0  0  0
 34 55  1  0  0  0  0
 34 56  1  0  0  0  0
M  END
> <PUBCHEM_COMPOUND_CID>
155533660

> <PUBCHEM_COMPOUND_CANONICALIZED>
1

> <PUBCHEM_CACTVS_COMPLEXITY>
848

> <PUBCHEM_CACTVS_HBOND_ACCEPTOR>
5

> <PUBCHEM_CACTVS_HBOND_DONOR>
2

> <PUBCHEM_CACTVS_ROTATABLE_BOND>
5

> <PUBCHEM_CACTVS_SUBSKEYS>
AAADceB7uABAAAAAAAAAAAAAAAAAAWLAAAAwYMAAAAAAAFjB/AAAHgQQQAAADAzB3gY/1/bJlAKoAzV3dHDCiD2xMqAJ2Tg+fJiMbuLE+ZuUMChs0RPI6Cew0PMOgEABgAAWAAAAgAMAACwAAAAAAAAAAA==

> <PUBCHEM_IUPAC_OPENEYE_NAME>
N-[4-[5-methoxy-1-(1-naphthylsulfonyl)indol-3-yl]-5-methyl-1H-imidazol-2-yl]acetamide

> <PUBCHEM_IUPAC_CAS_NAME>
N-[4-[5-methoxy-1-(1-naphthalenylsulfonyl)-3-indolyl]-5-methyl-1H-imidazol-2-yl]acetamide

> <PUBCHEM_IUPAC_NAME_MARKUP>
<I>N</I>-[4-(5-methoxy-1-naphthalen-1-ylsulfonylindol-3-yl)-5-methyl-1<I>H</I>-imidazol-2-yl]acetamide

> <PUBCHEM_IUPAC_NAME>
N-[4-(5-methoxy-1-naphthalen-1-ylsulfonylindol-3-yl)-5-methyl-1H-imidazol-2-yl]acetamide

> <PUBCHEM_IUPAC_SYSTEMATIC_NAME>
N-[4-(5-methoxy-1-naphthalen-1-ylsulfonyl-indol-3-yl)-5-methyl-1H-imidazol-2-yl]ethanamide

> <PUBCHEM_IUPAC_TRADITIONAL_NAME>
N-[4-[5-methoxy-1-(1-naphthylsulfonyl)indol-3-yl]-5-methyl-1H-imidazol-2-yl]acetamide

> <PUBCHEM_IUPAC_INCHI>
InChI=1S/C25H22N4O4S/c1-15-24(28-25(26-15)27-16(2)30)21-14-29(22-12-11-18(33-3)13-20(21)22)34(31,32)23-10-6-8-17-7-4-5-9-19(17)23/h4-14H,1-3H3,(H2,26,27,28,30)

> <PUBCHEM_IUPAC_INCHIKEY>
MBPFYWWVUAASJK-UHFFFAOYSA-N

> <PUBCHEM_XLOGP3_AA>
4.2

> <PUBCHEM_EXACT_MASS>
474.13617637

> <PUBCHEM_MOLECULAR_FORMULA>
C25H22N4O4S

> <PUBCHEM_MOLECULAR_WEIGHT>
474.5

> <PUBCHEM_OPENEYE_CAN_SMILES>
CC1=C(N=C(N1)NC(=O)C)C2=CN(C3=C2C=C(C=C3)OC)S(=O)(=O)C4=CC=CC5=CC=CC=C54

> <PUBCHEM_OPENEYE_ISO_SMILES>
CC1=C(N=C(N1)NC(=O)C)C2=CN(C3=C2C=C(C=C3)OC)S(=O)(=O)C4=CC=CC5=CC=CC=C54

> <PUBCHEM_CACTVS_TPSA>
115

> <PUBCHEM_MONOISOTOPIC_WEIGHT>
474.13617637

> <PUBCHEM_TOTAL_CHARGE>
0

> <PUBCHEM_HEAVY_ATOM_COUNT>
34

> <PUBCHEM_ATOM_DEF_STEREO_COUNT>
0

> <PUBCHEM_ATOM_UDEF_STEREO_COUNT>
0

> <PUBCHEM_BOND_DEF_STEREO_COUNT>
0

> <PUBCHEM_BOND_UDEF_STEREO_COUNT>
0

> <PUBCHEM_ISOTOPIC_ATOM_COUNT>
0

> <PUBCHEM_COMPONENT_COUNT>
1

> <PUBCHEM_CACTVS_TAUTO_COUNT>
-1

> <PUBCHEM_COORDINATE_TYPE>
1
5
255

> <PUBCHEM_BONDANNOTATIONS>
10  11  8
10  16  8
11  12  8
11  17  8
12  13  8
14  18  8
14  23  8
15  19  8
16  21  8
17  20  8
18  22  8
18  25  8
20  21  8
22  26  8
22  29  8
23  27  8
25  30  8
26  27  8
29  31  8
30  31  8
6  10  8
6  13  8
7  15  8
7  24  8
8  19  8
8  24  8

$$$$
