134132432
  -OEChem-09292322472D

 45 48  0     1  0  0  0  0  0999 V2000
    3.5998    1.9288    0.0000 S   0  0  0  0  0  0  0  0  0  0  0  0
    6.4073   -4.3411    0.0000 O   0  0  0  0  0  0  0  0  0  0  0  0
    2.6493    1.6181    0.0000 O   0  0  0  0  0  0  0  0  0  0  0  0
    4.5504    2.2395    0.0000 O   0  0  0  0  0  0  0  0  0  0  0  0
    8.0630   -1.4544    0.0000 N   0  0  0  0  0  0  0  0  0  0  0  0
    3.9105    0.9783    0.0000 N   0  0  0  0  0  0  0  0  0  0  0  0
    6.2233   -1.7017    0.0000 C   0  0  2  0  0  0  0  0  0  0  0  0
    7.0965   -1.1976    0.0000 C   0  0  1  0  0  0  0  0  0  0  0  0
    5.7227   -0.8264    0.0000 C   0  0  0  0  0  0  0  0  0  0  0  0
    6.5888   -0.3264    0.0000 C   0  0  0  0  0  0  0  0  0  0  0  0
    5.9625   -2.6671    0.0000 C   0  0  0  0  0  0  0  0  0  0  0  0
    4.8567   -0.3264    0.0000 C   0  0  0  0  0  0  0  0  0  0  0  0
    4.8567    0.6736    0.0000 C   0  0  0  0  0  0  0  0  0  0  0  0
    6.5888    0.6736    0.0000 C   0  0  0  0  0  0  0  0  0  0  0  0
    5.7227    1.1736    0.0000 C   0  0  0  0  0  0  0  0  0  0  0  0
    6.6681   -3.3757    0.0000 C   0  0  0  0  0  0  0  0  0  0  0  0
    3.9105   -0.6312    0.0000 C   0  0  0  0  0  0  0  0  0  0  0  0
    3.3269    0.1736    0.0000 C   0  0  0  0  0  0  0  0  0  0  0  0
    8.3238   -2.4198    0.0000 C   0  0  0  0  0  0  0  0  0  0  0  0
    3.2892    2.8793    0.0000 C   0  0  0  0  0  0  0  0  0  0  0  0
    2.3107    3.0855    0.0000 C   0  0  0  0  0  0  0  0  0  0  0  0
    3.9570    3.6236    0.0000 C   0  0  0  0  0  0  0  0  0  0  0  0
    2.0000    4.0361    0.0000 C   0  0  0  0  0  0  0  0  0  0  0  0
    3.6464    4.5742    0.0000 C   0  0  0  0  0  0  0  0  0  0  0  0
    2.6678    4.7804    0.0000 C   0  0  0  0  0  0  0  0  0  0  0  0
    5.6084   -1.7808    0.0000 H   0  0  0  0  0  0  0  0  0  0  0  0
    7.4724   -0.7045    0.0000 H   0  0  0  0  0  0  0  0  0  0  0  0
    5.4011   -2.4039    0.0000 H   0  0  0  0  0  0  0  0  0  0  0  0
    5.6058   -3.1742    0.0000 H   0  0  0  0  0  0  0  0  0  0  0  0
    7.1257    0.9836    0.0000 H   0  0  0  0  0  0  0  0  0  0  0  0
    8.5004   -1.0151    0.0000 H   0  0  0  0  0  0  0  0  0  0  0  0
    5.7227    1.7936    0.0000 H   0  0  0  0  0  0  0  0  0  0  0  0
    7.2295   -3.6388    0.0000 H   0  0  0  0  0  0  0  0  0  0  0  0
    7.0248   -2.8685    0.0000 H   0  0  0  0  0  0  0  0  0  0  0  0
    3.7179   -1.2205    0.0000 H   0  0  0  0  0  0  0  0  0  0  0  0
    2.7069    0.1736    0.0000 H   0  0  0  0  0  0  0  0  0  0  0  0
    7.7252   -2.5815    0.0000 H   0  0  0  0  0  0  0  0  0  0  0  0
    8.4854   -3.0183    0.0000 H   0  0  0  0  0  0  0  0  0  0  0  0
    8.9223   -2.2581    0.0000 H   0  0  0  0  0  0  0  0  0  0  0  0
    6.8448   -4.7804    0.0000 H   0  0  0  0  0  0  0  0  0  0  0  0
    1.8966    2.6241    0.0000 H   0  0  0  0  0  0  0  0  0  0  0  0
    4.5637    3.4958    0.0000 H   0  0  0  0  0  0  0  0  0  0  0  0
    1.3933    4.1639    0.0000 H   0  0  0  0  0  0  0  0  0  0  0  0
    4.0604    5.0356    0.0000 H   0  0  0  0  0  0  0  0  0  0  0  0
    2.4752    5.3697    0.0000 H   0  0  0  0  0  0  0  0  0  0  0  0
  1  3  2  0  0  0  0
  1  4  2  0  0  0  0
  1  6  1  0  0  0  0
  1 20  1  0  0  0  0
  2 16  1  0  0  0  0
  2 40  1  0  0  0  0
  8  5  1  1  0  0  0
  5 19  1  0  0  0  0
  5 31  1  0  0  0  0
  6 13  1  0  0  0  0
  6 18  1  0  0  0  0
  7  8  1  0  0  0  0
  7  9  1  0  0  0  0
  7 11  1  1  0  0  0
  7 26  1  0  0  0  0
  8 10  1  0  0  0  0
  8 27  1  0  0  0  0
  9 10  2  0  0  0  0
  9 12  1  0  0  0  0
 10 14  1  0  0  0  0
 11 16  1  0  0  0  0
 11 28  1  0  0  0  0
 11 29  1  0  0  0  0
 12 13  2  0  0  0  0
 12 17  1  0  0  0  0
 13 15  1  0  0  0  0
 14 15  2  0  0  0  0
 14 30  1  0  0  0  0
 15 32  1  0  0  0  0
 16 33  1  0  0  0  0
 16 34  1  0  0  0  0
 17 18  2  0  0  0  0
 17 35  1  0  0  0  0
 18 36  1  0  0  0  0
 19 37  1  0  0  0  0
 19 38  1  0  0  0  0
 19 39  1  0  0  0  0
 20 21  2  0  0  0  0
 20 22  1  0  0  0  0
 21 23  1  0  0  0  0
 21 41  1  0  0  0  0
 22 24  2  0  0  0  0
 22 42  1  0  0  0  0
 23 25  2  0  0  0  0
 23 43  1  0  0  0  0
 24 25  1  0  0  0  0
 24 44  1  0  0  0  0
 25 45  1  0  0  0  0
M  END
> <PUBCHEM_COMPOUND_CID>
134132432

> <PUBCHEM_COMPOUND_CANONICALIZED>
1

> <PUBCHEM_CACTVS_COMPLEXITY>
570

> <PUBCHEM_CACTVS_HBOND_ACCEPTOR>
4

> <PUBCHEM_CACTVS_HBOND_DONOR>
2

> <PUBCHEM_CACTVS_ROTATABLE_BOND>
5

> <PUBCHEM_CACTVS_SUBSKEYS>
AAADceB7MABAAAAAAAAAAAAAAABgAWAAAAAwYAAAAAAYAFgB9AAAHgQQSAAADSjh3gY+wfLIEgKgAzRnRHDCgDAxAiAI2Lg4ZJgIMOLAkZGEYAhkkADIyAewwPAOiAACQAASAAAQAASAACQAAAAAAAAAAA==

> <PUBCHEM_IUPAC_OPENEYE_NAME>
2-[(6S,7S)-3-(benzenesulfonyl)-6-(methylamino)-6,7-dihydrocyclobuta[e]indol-7-yl]ethanol

> <PUBCHEM_IUPAC_CAS_NAME>
2-[(6S,7S)-3-(benzenesulfonyl)-6-(methylamino)-6,7-dihydrocyclobuta[e]indol-7-yl]ethanol

> <PUBCHEM_IUPAC_NAME_MARKUP>
2-[(6<I>S</I>,7<I>S</I>)-3-(benzenesulfonyl)-6-(methylamino)-6,7-dihydrocyclobuta[e]indol-7-yl]ethanol

> <PUBCHEM_IUPAC_NAME>
2-[(6S,7S)-3-(benzenesulfonyl)-6-(methylamino)-6,7-dihydrocyclobuta[e]indol-7-yl]ethanol

> <PUBCHEM_IUPAC_SYSTEMATIC_NAME>
2-[(6S,7S)-6-(methylamino)-3-(phenylsulfonyl)-6,7-dihydrocyclobuta[e]indol-7-yl]ethanol

> <PUBCHEM_IUPAC_TRADITIONAL_NAME>
2-[(6S,7S)-3-besyl-6-(methylamino)-6,7-dihydrocyclobut[e]indol-7-yl]ethanol

> <PUBCHEM_IUPAC_INCHI>
InChI=1S/C19H20N2O3S/c1-20-19-15-7-8-17-14(18(15)16(19)10-12-22)9-11-21(17)25(23,24)13-5-3-2-4-6-13/h2-9,11,16,19-20,22H,10,12H2,1H3/t16-,19+/m0/s1

> <PUBCHEM_IUPAC_INCHIKEY>
LXQQHMVSKDDSKV-QFBILLFUSA-N

> <PUBCHEM_XLOGP3_AA>
1.2

> <PUBCHEM_EXACT_MASS>
356.11946368

> <PUBCHEM_MOLECULAR_FORMULA>
C19H20N2O3S

> <PUBCHEM_MOLECULAR_WEIGHT>
356.4

> <PUBCHEM_OPENEYE_CAN_SMILES>
CNC1C(C2=C1C=CC3=C2C=CN3S(=O)(=O)C4=CC=CC=C4)CCO

> <PUBCHEM_OPENEYE_ISO_SMILES>
CN[C@H]1[C@H](C2=C1C=CC3=C2C=CN3S(=O)(=O)C4=CC=CC=C4)CCO

> <PUBCHEM_CACTVS_TPSA>
79.7

> <PUBCHEM_MONOISOTOPIC_WEIGHT>
356.11946368

> <PUBCHEM_TOTAL_CHARGE>
0

> <PUBCHEM_HEAVY_ATOM_COUNT>
25

> <PUBCHEM_ATOM_DEF_STEREO_COUNT>
2

> <PUBCHEM_ATOM_UDEF_STEREO_COUNT>
0

> <PUBCHEM_BOND_DEF_STEREO_COUNT>
0

> <PUBCHEM_BOND_UDEF_STEREO_COUNT>
0

> <PUBCHEM_ISOTOPIC_ATOM_COUNT>
0

> <PUBCHEM_COMPONENT_COUNT>
1

> <PUBCHEM_CACTVS_TAUTO_COUNT>
-1

> <PUBCHEM_COORDINATE_TYPE>
1
5
255

> <PUBCHEM_BONDANNOTATIONS>
10  14  8
12  13  8
12  17  8
13  15  8
14  15  8
17  18  8
20  21  8
20  22  8
21  23  8
22  24  8
23  25  8
24  25  8
8  5  5
6  13  8
6  18  8
7  11  5
9  10  8
9  12  8

$$$$
