16049160
  -OEChem-09292322042D

 66 68  0     1  0  0  0  0  0999 V2000
    5.4641   -1.0950    0.0000 S   0  0  0  0  0  0  0  0  0  0  0  0
    9.8744   -5.7903    0.0000 S   0  0  0  0  0  0  0  0  0  0  0  0
    8.9282   -4.0950    0.0000 O   0  0  0  0  0  0  0  0  0  0  0  0
    8.0622   -8.5950    0.0000 O   0  0  0  0  0  0  0  0  0  0  0  0
   11.4580   -6.5950    0.0000 O   0  0  0  0  0  0  0  0  0  0  0  0
    2.8660    7.4050    0.0000 O   0  0  0  0  0  0  0  0  0  0  0  0
    7.1962   -3.0950    0.0000 N   0  0  0  0  0  0  0  0  0  0  0  0
    3.7320    1.9050    0.0000 N   0  0  0  0  0  0  0  0  0  0  0  0
    9.8744   -7.3997    0.0000 N   0  0  0  0  0  0  0  0  0  0  0  0
    8.0622   -4.5950    0.0000 C   0  0  1  0  0  0  0  0  0  0  0  0
    7.1962   -4.0950    0.0000 C   0  0  0  0  0  0  0  0  0  0  0  0
    8.0622   -5.5950    0.0000 C   0  0  0  0  0  0  0  0  0  0  0  0
    8.9282   -6.0950    0.0000 C   0  0  0  0  0  0  0  0  0  0  0  0
    6.3301   -2.5950    0.0000 C   0  0  0  0  0  0  0  0  0  0  0  0
    4.5981    0.4050    0.0000 C   0  0  0  0  0  0  0  0  0  0  0  0
    4.5981    1.4050    0.0000 C   0  0  0  0  0  0  0  0  0  0  0  0
    8.9282   -7.0950    0.0000 C   0  0  0  0  0  0  0  0  0  0  0  0
    6.3301   -1.5950    0.0000 C   0  0  0  0  0  0  0  0  0  0  0  0
    5.4641   -0.0950    0.0000 C   0  0  0  0  0  0  0  0  0  0  0  0
    3.7320    2.9050    0.0000 C   0  0  0  0  0  0  0  0  0  0  0  0
    7.1962   -6.0950    0.0000 C   0  0  0  0  0  0  0  0  0  0  0  0
    2.8660    3.4050    0.0000 C   0  0  0  0  0  0  0  0  0  0  0  0
    8.0622   -7.5950    0.0000 C   0  0  0  0  0  0  0  0  0  0  0  0
    7.1962   -7.0950    0.0000 C   0  0  0  0  0  0  0  0  0  0  0  0
    2.8660    4.4050    0.0000 C   0  0  0  0  0  0  0  0  0  0  0  0
   10.4580   -6.5950    0.0000 C   0  0  0  0  0  0  0  0  0  0  0  0
    2.0000    4.9050    0.0000 C   0  0  0  0  0  0  0  0  0  0  0  0
    3.7320    4.9050    0.0000 C   0  0  0  0  0  0  0  0  0  0  0  0
    2.0000    5.9050    0.0000 C   0  0  0  0  0  0  0  0  0  0  0  0
    3.7320    5.9050    0.0000 C   0  0  0  0  0  0  0  0  0  0  0  0
    2.8660    6.4050    0.0000 C   0  0  0  0  0  0  0  0  0  0  0  0
    2.0000    7.9050    0.0000 C   0  0  0  0  0  0  0  0  0  0  0  0
    2.0000    8.9050    0.0000 C   0  0  0  0  0  0  0  0  0  0  0  0
    8.0622   -3.9750    0.0000 H   0  0  0  0  0  0  0  0  0  0  0  0
    6.5856   -3.9873    0.0000 H   0  0  0  0  0  0  0  0  0  0  0  0
    6.9841   -4.6776    0.0000 H   0  0  0  0  0  0  0  0  0  0  0  0
    5.7196   -2.4873    0.0000 H   0  0  0  0  0  0  0  0  0  0  0  0
    6.1181   -3.1776    0.0000 H   0  0  0  0  0  0  0  0  0  0  0  0
    7.7331   -2.7850    0.0000 H   0  0  0  0  0  0  0  0  0  0  0  0
    3.9875    0.5127    0.0000 H   0  0  0  0  0  0  0  0  0  0  0  0
    4.3860   -0.1776    0.0000 H   0  0  0  0  0  0  0  0  0  0  0  0
    5.2087    1.2973    0.0000 H   0  0  0  0  0  0  0  0  0  0  0  0
    4.8101    1.9876    0.0000 H   0  0  0  0  0  0  0  0  0  0  0  0
    6.9407   -1.7027    0.0000 H   0  0  0  0  0  0  0  0  0  0  0  0
    6.5422   -1.0124    0.0000 H   0  0  0  0  0  0  0  0  0  0  0  0
    4.3426    2.7973    0.0000 H   0  0  0  0  0  0  0  0  0  0  0  0
    3.9441    3.4876    0.0000 H   0  0  0  0  0  0  0  0  0  0  0  0
    6.0747   -0.2027    0.0000 H   0  0  0  0  0  0  0  0  0  0  0  0
    5.6762    0.4876    0.0000 H   0  0  0  0  0  0  0  0  0  0  0  0
    6.6592   -5.7850    0.0000 H   0  0  0  0  0  0  0  0  0  0  0  0
    2.2554    3.5127    0.0000 H   0  0  0  0  0  0  0  0  0  0  0  0
    2.6540    2.8224    0.0000 H   0  0  0  0  0  0  0  0  0  0  0  0
    3.1951    1.5950    0.0000 H   0  0  0  0  0  0  0  0  0  0  0  0
    6.6592   -7.4050    0.0000 H   0  0  0  0  0  0  0  0  0  0  0  0
   10.0670   -7.9891    0.0000 H   0  0  0  0  0  0  0  0  0  0  0  0
    8.9282   -3.4750    0.0000 H   0  0  0  0  0  0  0  0  0  0  0  0
    1.4631    4.5950    0.0000 H   0  0  0  0  0  0  0  0  0  0  0  0
    4.2690    4.5950    0.0000 H   0  0  0  0  0  0  0  0  0  0  0  0
    1.4631    6.2150    0.0000 H   0  0  0  0  0  0  0  0  0  0  0  0
    4.2690    6.2150    0.0000 H   0  0  0  0  0  0  0  0  0  0  0  0
    7.5252   -8.9050    0.0000 H   0  0  0  0  0  0  0  0  0  0  0  0
    1.3894    8.0127    0.0000 H   0  0  0  0  0  0  0  0  0  0  0  0
    1.7880    7.3224    0.0000 H   0  0  0  0  0  0  0  0  0  0  0  0
    2.6200    8.9050    0.0000 H   0  0  0  0  0  0  0  0  0  0  0  0
    2.0000    9.5250    0.0000 H   0  0  0  0  0  0  0  0  0  0  0  0
    1.3800    8.9050    0.0000 H   0  0  0  0  0  0  0  0  0  0  0  0
  1 18  1  0  0  0  0
  1 19  1  0  0  0  0
  2 13  1  0  0  0  0
  2 26  1  0  0  0  0
 10  3  1  6  0  0  0
  3 56  1  0  0  0  0
  4 23  1  0  0  0  0
  4 61  1  0  0  0  0
  5 26  2  0  0  0  0
  6 31  1  0  0  0  0
  6 32  1  0  0  0  0
  7 11  1  0  0  0  0
  7 14  1  0  0  0  0
  7 39  1  0  0  0  0
  8 16  1  0  0  0  0
  8 20  1  0  0  0  0
  8 53  1  0  0  0  0
  9 17  1  0  0  0  0
  9 26  1  0  0  0  0
  9 55  1  0  0  0  0
 10 11  1  0  0  0  0
 10 12  1  0  0  0  0
 10 34  1  0  0  0  0
 11 35  1  0  0  0  0
 11 36  1  0  0  0  0
 12 13  2  0  0  0  0
 12 21  1  0  0  0  0
 13 17  1  0  0  0  0
 14 18  1  0  0  0  0
 14 37  1  0  0  0  0
 14 38  1  0  0  0  0
 15 16  1  0  0  0  0
 15 19  1  0  0  0  0
 15 40  1  0  0  0  0
 15 41  1  0  0  0  0
 16 42  1  0  0  0  0
 16 43  1  0  0  0  0
 17 23  2  0  0  0  0
 18 44  1  0  0  0  0
 18 45  1  0  0  0  0
 19 48  1  0  0  0  0
 19 49  1  0  0  0  0
 20 22  1  0  0  0  0
 20 46  1  0  0  0  0
 20 47  1  0  0  0  0
 21 24  2  0  0  0  0
 21 50  1  0  0  0  0
 22 25  1  0  0  0  0
 22 51  1  0  0  0  0
 22 52  1  0  0  0  0
 23 24  1  0  0  0  0
 24 54  1  0  0  0  0
 25 27  2  0  0  0  0
 25 28  1  0  0  0  0
 27 29  1  0  0  0  0
 27 57  1  0  0  0  0
 28 30  2  0  0  0  0
 28 58  1  0  0  0  0
 29 31  2  0  0  0  0
 29 59  1  0  0  0  0
 30 31  1  0  0  0  0
 30 60  1  0  0  0  0
 32 33  1  0  0  0  0
 32 62  1  0  0  0  0
 32 63  1  0  0  0  0
 33 64  1  0  0  0  0
 33 65  1  0  0  0  0
 33 66  1  0  0  0  0
M  END
> <PUBCHEM_COMPOUND_CID>
16049160

> <PUBCHEM_COMPOUND_CANONICALIZED>
1

> <PUBCHEM_CACTVS_COMPLEXITY>
566

> <PUBCHEM_CACTVS_HBOND_ACCEPTOR>
8

> <PUBCHEM_CACTVS_HBOND_DONOR>
5

> <PUBCHEM_CACTVS_ROTATABLE_BOND>
15

> <PUBCHEM_CACTVS_SUBSKEYS>
AAADcfB7OABgAAAAAAAAAAAAAAAAAWAAAAAwYAAAAAAAAFgBQAAAHgQQCAAADBzl2Aayx4LABgiIAiRCUACCCABhKBAIiJQPTIgONiL2sZuGeCjk1BH4+Aew4KQOIAAARAAEEQBAAACIAAgiAAAAAAAAAA==

> <PUBCHEM_IUPAC_OPENEYE_NAME>
7-[(1R)-2-[2-[3-[2-(4-ethoxyphenyl)ethylamino]propylsulfanyl]ethylamino]-1-hydroxy-ethyl]-4-hydroxy-3H-1,3-benzothiazol-2-one

> <PUBCHEM_IUPAC_CAS_NAME>
7-[(1R)-2-[2-[3-[2-(4-ethoxyphenyl)ethylamino]propylthio]ethylamino]-1-hydroxyethyl]-4-hydroxy-3H-1,3-benzothiazol-2-one

> <PUBCHEM_IUPAC_NAME_MARKUP>
7-[(1<I>R</I>)-2-[2-[3-[2-(4-ethoxyphenyl)ethylamino]propylsulfanyl]ethylamino]-1-hydroxyethyl]-4-hydroxy-3<I>H</I>-1,3-benzothiazol-2-one

> <PUBCHEM_IUPAC_NAME>
7-[(1R)-2-[2-[3-[2-(4-ethoxyphenyl)ethylamino]propylsulfanyl]ethylamino]-1-hydroxyethyl]-4-hydroxy-3H-1,3-benzothiazol-2-one

> <PUBCHEM_IUPAC_SYSTEMATIC_NAME>
7-[(1R)-2-[2-[3-[2-(4-ethoxyphenyl)ethylamino]propylsulfanyl]ethylamino]-1-oxidanyl-ethyl]-4-oxidanyl-3H-1,3-benzothiazol-2-one

> <PUBCHEM_IUPAC_TRADITIONAL_NAME>
4-hydroxy-7-[(1R)-1-hydroxy-2-[2-[3-(2-p-phenetylethylamino)propylthio]ethylamino]ethyl]-3H-1,3-benzothiazol-2-one

> <PUBCHEM_IUPAC_INCHI>
InChI=1S/C24H33N3O4S2/c1-2-31-18-6-4-17(5-7-18)10-12-25-11-3-14-32-15-13-26-16-21(29)19-8-9-20(28)22-23(19)33-24(30)27-22/h4-9,21,25-26,28-29H,2-3,10-16H2,1H3,(H,27,30)/t21-/m0/s1

> <PUBCHEM_IUPAC_INCHIKEY>
LWKNIOKRJFVQBE-NRFANRHFSA-N

> <PUBCHEM_XLOGP3_AA>
2.9

> <PUBCHEM_EXACT_MASS>
491.19124889

> <PUBCHEM_MOLECULAR_FORMULA>
C24H33N3O4S2

> <PUBCHEM_MOLECULAR_WEIGHT>
491.7

> <PUBCHEM_OPENEYE_CAN_SMILES>
CCOC1=CC=C(C=C1)CCNCCCSCCNCC(C2=C3C(=C(C=C2)O)NC(=O)S3)O

> <PUBCHEM_OPENEYE_ISO_SMILES>
CCOC1=CC=C(C=C1)CCNCCCSCCNC[C@@H](C2=C3C(=C(C=C2)O)NC(=O)S3)O

> <PUBCHEM_CACTVS_TPSA>
153

> <PUBCHEM_MONOISOTOPIC_WEIGHT>
491.19124889

> <PUBCHEM_TOTAL_CHARGE>
0

> <PUBCHEM_HEAVY_ATOM_COUNT>
33

> <PUBCHEM_ATOM_DEF_STEREO_COUNT>
1

> <PUBCHEM_ATOM_UDEF_STEREO_COUNT>
0

> <PUBCHEM_BOND_DEF_STEREO_COUNT>
0

> <PUBCHEM_BOND_UDEF_STEREO_COUNT>
0

> <PUBCHEM_ISOTOPIC_ATOM_COUNT>
0

> <PUBCHEM_COMPONENT_COUNT>
1

> <PUBCHEM_CACTVS_TAUTO_COUNT>
-1

> <PUBCHEM_COORDINATE_TYPE>
1
5
255

> <PUBCHEM_BONDANNOTATIONS>
12  13  8
12  21  8
13  17  8
17  23  8
2  13  8
2  26  8
21  24  8
23  24  8
25  27  8
25  28  8
27  29  8
28  30  8
29  31  8
10  3  6
30  31  8
9  17  8
9  26  8

$$$$
