145988038
  -OEChem-09292322052D

 60 63  0     0  0  0  0  0  0999 V2000
    7.2764   -5.7377    0.0000 S   0  0  0  0  0  0  0  0  0  0  0  0
    5.4641    3.0670    0.0000 O   0  0  0  0  0  0  0  0  0  0  0  0
    2.0000    3.0670    0.0000 O   0  0  0  0  0  0  0  0  0  0  0  0
    5.4641   -0.9330    0.0000 N   0  0  0  0  0  0  0  0  0  0  0  0
    3.7320    3.0670    0.0000 N   0  0  0  0  0  0  0  0  0  0  0  0
    5.4641   -2.9330    0.0000 N   0  0  0  0  0  0  0  0  0  0  0  0
    3.7320    5.0670    0.0000 C   0  0  0  0  0  0  0  0  0  0  0  0
    4.5981    4.5670    0.0000 C   0  0  0  0  0  0  0  0  0  0  0  0
    2.8660    4.5670    0.0000 C   0  0  0  0  0  0  0  0  0  0  0  0
    4.5981   -1.4330    0.0000 C   0  0  0  0  0  0  0  0  0  0  0  0
    6.3301   -1.4330    0.0000 C   0  0  0  0  0  0  0  0  0  0  0  0
    5.4641    0.0670    0.0000 C   0  0  0  0  0  0  0  0  0  0  0  0
    4.5981   -2.4330    0.0000 C   0  0  0  0  0  0  0  0  0  0  0  0
    6.3301   -2.4330    0.0000 C   0  0  0  0  0  0  0  0  0  0  0  0
    4.5981    0.5670    0.0000 C   0  0  0  0  0  0  0  0  0  0  0  0
    3.7320    2.0670    0.0000 C   0  0  0  0  0  0  0  0  0  0  0  0
    4.5981    1.5670    0.0000 C   0  0  0  0  0  0  0  0  0  0  0  0
    4.5981    3.5670    0.0000 C   0  0  0  0  0  0  0  0  0  0  0  0
    2.8660    3.5670    0.0000 C   0  0  0  0  0  0  0  0  0  0  0  0
    3.2320    5.9330    0.0000 C   0  0  0  0  0  0  0  0  0  0  0  0
    4.2320    5.9330    0.0000 C   0  0  0  0  0  0  0  0  0  0  0  0
    5.4641   -3.9330    0.0000 C   0  0  0  0  0  0  0  0  0  0  0  0
    6.3301   -4.4330    0.0000 C   0  0  0  0  0  0  0  0  0  0  0  0
    4.5981   -4.4330    0.0000 C   0  0  0  0  0  0  0  0  0  0  0  0
    6.3301   -5.4330    0.0000 C   0  0  0  0  0  0  0  0  0  0  0  0
    7.2764   -4.1283    0.0000 C   0  0  0  0  0  0  0  0  0  0  0  0
    4.5981   -5.4330    0.0000 C   0  0  0  0  0  0  0  0  0  0  0  0
    5.4641   -5.9330    0.0000 C   0  0  0  0  0  0  0  0  0  0  0  0
    7.8600   -4.9330    0.0000 C   0  0  0  0  0  0  0  0  0  0  0  0
    5.2087    4.4593    0.0000 H   0  0  0  0  0  0  0  0  0  0  0  0
    4.8101    5.1496    0.0000 H   0  0  0  0  0  0  0  0  0  0  0  0
    2.6540    5.1496    0.0000 H   0  0  0  0  0  0  0  0  0  0  0  0
    2.2554    4.4593    0.0000 H   0  0  0  0  0  0  0  0  0  0  0  0
    4.3860   -0.8504    0.0000 H   0  0  0  0  0  0  0  0  0  0  0  0
    3.9875   -1.5407    0.0000 H   0  0  0  0  0  0  0  0  0  0  0  0
    6.9407   -1.5407    0.0000 H   0  0  0  0  0  0  0  0  0  0  0  0
    6.5422   -0.8504    0.0000 H   0  0  0  0  0  0  0  0  0  0  0  0
    6.0747   -0.0407    0.0000 H   0  0  0  0  0  0  0  0  0  0  0  0
    5.6762    0.6496    0.0000 H   0  0  0  0  0  0  0  0  0  0  0  0
    3.9875   -2.3253    0.0000 H   0  0  0  0  0  0  0  0  0  0  0  0
    4.3860   -3.0156    0.0000 H   0  0  0  0  0  0  0  0  0  0  0  0
    6.5422   -3.0156    0.0000 H   0  0  0  0  0  0  0  0  0  0  0  0
    6.9407   -2.3253    0.0000 H   0  0  0  0  0  0  0  0  0  0  0  0
    3.9875    0.6746    0.0000 H   0  0  0  0  0  0  0  0  0  0  0  0
    4.3860   -0.0156    0.0000 H   0  0  0  0  0  0  0  0  0  0  0  0
    3.1215    2.1747    0.0000 H   0  0  0  0  0  0  0  0  0  0  0  0
    3.5200    1.4844    0.0000 H   0  0  0  0  0  0  0  0  0  0  0  0
    5.2087    1.4593    0.0000 H   0  0  0  0  0  0  0  0  0  0  0  0
    4.8101    2.1496    0.0000 H   0  0  0  0  0  0  0  0  0  0  0  0
    3.7690    6.2430    0.0000 H   0  0  0  0  0  0  0  0  0  0  0  0
    2.9220    6.4700    0.0000 H   0  0  0  0  0  0  0  0  0  0  0  0
    2.6951    5.6230    0.0000 H   0  0  0  0  0  0  0  0  0  0  0  0
    4.7690    5.6230    0.0000 H   0  0  0  0  0  0  0  0  0  0  0  0
    4.5420    6.4700    0.0000 H   0  0  0  0  0  0  0  0  0  0  0  0
    3.6951    6.2430    0.0000 H   0  0  0  0  0  0  0  0  0  0  0  0
    4.0611   -4.1230    0.0000 H   0  0  0  0  0  0  0  0  0  0  0  0
    7.4690   -3.5390    0.0000 H   0  0  0  0  0  0  0  0  0  0  0  0
    4.0611   -5.7430    0.0000 H   0  0  0  0  0  0  0  0  0  0  0  0
    5.4641   -6.5530    0.0000 H   0  0  0  0  0  0  0  0  0  0  0  0
    8.4800   -4.9330    0.0000 H   0  0  0  0  0  0  0  0  0  0  0  0
  1 25  1  0  0  0  0
  1 29  1  0  0  0  0
  2 18  2  0  0  0  0
  3 19  2  0  0  0  0
  4 10  1  0  0  0  0
  4 11  1  0  0  0  0
  4 12  1  0  0  0  0
  5 16  1  0  0  0  0
  5 18  1  0  0  0  0
  5 19  1  0  0  0  0
  6 13  1  0  0  0  0
  6 14  1  0  0  0  0
  6 22  1  0  0  0  0
  7  8  1  0  0  0  0
  7  9  1  0  0  0  0
  7 20  1  0  0  0  0
  7 21  1  0  0  0  0
  8 18  1  0  0  0  0
  8 30  1  0  0  0  0
  8 31  1  0  0  0  0
  9 19  1  0  0  0  0
  9 32  1  0  0  0  0
  9 33  1  0  0  0  0
 10 13  1  0  0  0  0
 10 34  1  0  0  0  0
 10 35  1  0  0  0  0
 11 14  1  0  0  0  0
 11 36  1  0  0  0  0
 11 37  1  0  0  0  0
 12 15  1  0  0  0  0
 12 38  1  0  0  0  0
 12 39  1  0  0  0  0
 13 40  1  0  0  0  0
 13 41  1  0  0  0  0
 14 42  1  0  0  0  0
 14 43  1  0  0  0  0
 15 17  1  0  0  0  0
 15 44  1  0  0  0  0
 15 45  1  0  0  0  0
 16 17  1  0  0  0  0
 16 46  1  0  0  0  0
 16 47  1  0  0  0  0
 17 48  1  0  0  0  0
 17 49  1  0  0  0  0
 20 50  1  0  0  0  0
 20 51  1  0  0  0  0
 20 52  1  0  0  0  0
 21 53  1  0  0  0  0
 21 54  1  0  0  0  0
 21 55  1  0  0  0  0
 22 23  2  0  0  0  0
 22 24  1  0  0  0  0
 23 25  1  0  0  0  0
 23 26  1  0  0  0  0
 24 27  2  0  0  0  0
 24 56  1  0  0  0  0
 25 28  2  0  0  0  0
 26 29  2  0  0  0  0
 26 57  1  0  0  0  0
 27 28  1  0  0  0  0
 27 58  1  0  0  0  0
 28 59  1  0  0  0  0
 29 60  1  0  0  0  0
M  END
> <PUBCHEM_COMPOUND_CID>
145988038

> <PUBCHEM_COMPOUND_CANONICALIZED>
1

> <PUBCHEM_CACTVS_COMPLEXITY>
583

> <PUBCHEM_CACTVS_HBOND_ACCEPTOR>
5

> <PUBCHEM_CACTVS_HBOND_DONOR>
0

> <PUBCHEM_CACTVS_ROTATABLE_BOND>
6

> <PUBCHEM_CACTVS_SUBSKEYS>
AAADceB7MABAAAAAAAAAAAAAAAAAASAAAAA8WIAAAAAAAEgB8AAAHgQAAAAADgjF2ASywcMAAAiMAiVSUACDAIAhChBIiBkIZIgIYDLgkZGUIAxghiDoyAcYg4APAAAAACAGAAAAAAAAQAwAAAAAAAAAAA==

> <PUBCHEM_IUPAC_OPENEYE_NAME>
1-[4-[4-(benzothiophen-4-yl)piperazin-1-yl]butyl]-4,4-dimethyl-piperidine-2,6-dione

> <PUBCHEM_IUPAC_CAS_NAME>
1-[4-[4-(1-benzothiophen-4-yl)-1-piperazinyl]butyl]-4,4-dimethylpiperidine-2,6-dione

> <PUBCHEM_IUPAC_NAME_MARKUP>
1-[4-[4-(1-benzothiophen-4-yl)piperazin-1-yl]butyl]-4,4-dimethylpiperidine-2,6-dione

> <PUBCHEM_IUPAC_NAME>
1-[4-[4-(1-benzothiophen-4-yl)piperazin-1-yl]butyl]-4,4-dimethylpiperidine-2,6-dione

> <PUBCHEM_IUPAC_SYSTEMATIC_NAME>
1-[4-[4-(1-benzothiophen-4-yl)piperazin-1-yl]butyl]-4,4-dimethyl-piperidine-2,6-dione

> <PUBCHEM_IUPAC_TRADITIONAL_NAME>
1-[4-[4-(benzothiophen-4-yl)piperazino]butyl]-4,4-dimethyl-piperidine-2,6-quinone

> <PUBCHEM_IUPAC_INCHI>
InChI=1S/C23H31N3O2S/c1-23(2)16-21(27)26(22(28)17-23)10-4-3-9-24-11-13-25(14-12-24)19-6-5-7-20-18(19)8-15-29-20/h5-8,15H,3-4,9-14,16-17H2,1-2H3

> <PUBCHEM_IUPAC_INCHIKEY>
JCZNKERBZDGLBM-UHFFFAOYSA-N

> <PUBCHEM_XLOGP3_AA>
3.7

> <PUBCHEM_EXACT_MASS>
413.21369841

> <PUBCHEM_MOLECULAR_FORMULA>
C23H31N3O2S

> <PUBCHEM_MOLECULAR_WEIGHT>
413.6

> <PUBCHEM_OPENEYE_CAN_SMILES>
CC1(CC(=O)N(C(=O)C1)CCCCN2CCN(CC2)C3=C4C=CSC4=CC=C3)C

> <PUBCHEM_OPENEYE_ISO_SMILES>
CC1(CC(=O)N(C(=O)C1)CCCCN2CCN(CC2)C3=C4C=CSC4=CC=C3)C

> <PUBCHEM_CACTVS_TPSA>
72.1

> <PUBCHEM_MONOISOTOPIC_WEIGHT>
413.21369841

> <PUBCHEM_TOTAL_CHARGE>
0

> <PUBCHEM_HEAVY_ATOM_COUNT>
29

> <PUBCHEM_ATOM_DEF_STEREO_COUNT>
0

> <PUBCHEM_ATOM_UDEF_STEREO_COUNT>
0

> <PUBCHEM_BOND_DEF_STEREO_COUNT>
0

> <PUBCHEM_BOND_UDEF_STEREO_COUNT>
0

> <PUBCHEM_ISOTOPIC_ATOM_COUNT>
0

> <PUBCHEM_COMPONENT_COUNT>
1

> <PUBCHEM_CACTVS_TAUTO_COUNT>
-1

> <PUBCHEM_COORDINATE_TYPE>
1
5
255

> <PUBCHEM_BONDANNOTATIONS>
1  25  8
1  29  8
22  23  8
22  24  8
23  25  8
23  26  8
24  27  8
25  28  8
26  29  8
27  28  8

$$$$
