46225584
  -OEChem-09292322292D

 48 51  0     0  0  0  0  0  0999 V2000
    6.7619   -1.7436    0.0000 Cl  0  0  0  0  0  0  0  0  0  0  0  0
   10.2619   -4.3417    0.0000 F   0  0  0  0  0  0  0  0  0  0  0  0
   10.6279   -2.9757    0.0000 F   0  0  0  0  0  0  0  0  0  0  0  0
    8.8958   -3.9757    0.0000 F   0  0  0  0  0  0  0  0  0  0  0  0
    6.7619    1.7204    0.0000 N   0  0  0  0  0  0  0  0  0  0  0  0
    4.6783    3.3912    0.0000 N   0  0  0  0  0  0  0  0  0  0  0  0
    9.2619   -0.8776    0.0000 N   0  0  0  0  0  0  0  0  0  0  0  0
    4.6783    1.7817    0.0000 N   0  0  0  0  0  0  0  0  0  0  0  0
    7.7619   -0.0116    0.0000 C   0  0  0  0  0  0  0  0  0  0  0  0
    6.7619   -0.0116    0.0000 C   0  0  0  0  0  0  0  0  0  0  0  0
    8.2619    0.8544    0.0000 C   0  0  0  0  0  0  0  0  0  0  0  0
    6.2619    0.8544    0.0000 C   0  0  0  0  0  0  0  0  0  0  0  0
    7.7619    1.7204    0.0000 C   0  0  0  0  0  0  0  0  0  0  0  0
    6.2619    2.5865    0.0000 C   0  0  0  0  0  0  0  0  0  0  0  0
    8.2619   -0.8776    0.0000 C   0  0  0  0  0  0  0  0  0  0  0  0
    5.2619    2.5865    0.0000 C   0  0  0  0  0  0  0  0  0  0  0  0
    7.7619   -1.7436    0.0000 C   0  0  0  0  0  0  0  0  0  0  0  0
    3.7320    3.0865    0.0000 C   0  0  0  0  0  0  0  0  0  0  0  0
    3.7320    2.0865    0.0000 C   0  0  0  0  0  0  0  0  0  0  0  0
    8.2619   -2.6097    0.0000 C   0  0  0  0  0  0  0  0  0  0  0  0
    4.9889    4.3417    0.0000 C   0  0  0  0  0  0  0  0  0  0  0  0
    9.7619   -1.7436    0.0000 C   0  0  0  0  0  0  0  0  0  0  0  0
    9.2619   -2.6097    0.0000 C   0  0  0  0  0  0  0  0  0  0  0  0
    2.8660    3.5865    0.0000 C   0  0  0  0  0  0  0  0  0  0  0  0
    2.8660    1.5865    0.0000 C   0  0  0  0  0  0  0  0  0  0  0  0
    2.0000    3.0865    0.0000 C   0  0  0  0  0  0  0  0  0  0  0  0
    9.7619   -3.4757    0.0000 C   0  0  0  0  0  0  0  0  0  0  0  0
    2.0000    2.0865    0.0000 C   0  0  0  0  0  0  0  0  0  0  0  0
    7.4519   -0.5485    0.0000 H   0  0  0  0  0  0  0  0  0  0  0  0
    6.1793   -0.2237    0.0000 H   0  0  0  0  0  0  0  0  0  0  0  0
    6.8695   -0.6222    0.0000 H   0  0  0  0  0  0  0  0  0  0  0  0
    8.7368    0.4559    0.0000 H   0  0  0  0  0  0  0  0  0  0  0  0
    8.7368    1.2530    0.0000 H   0  0  0  0  0  0  0  0  0  0  0  0
    5.7869    1.2530    0.0000 H   0  0  0  0  0  0  0  0  0  0  0  0
    5.7869    0.4559    0.0000 H   0  0  0  0  0  0  0  0  0  0  0  0
    8.3445    1.9325    0.0000 H   0  0  0  0  0  0  0  0  0  0  0  0
    7.6542    2.3310    0.0000 H   0  0  0  0  0  0  0  0  0  0  0  0
    6.8445    2.7985    0.0000 H   0  0  0  0  0  0  0  0  0  0  0  0
    6.1542    3.1971    0.0000 H   0  0  0  0  0  0  0  0  0  0  0  0
    7.9519   -3.1466    0.0000 H   0  0  0  0  0  0  0  0  0  0  0  0
    5.5783    4.1491    0.0000 H   0  0  0  0  0  0  0  0  0  0  0  0
    5.1815    4.9310    0.0000 H   0  0  0  0  0  0  0  0  0  0  0  0
    4.3996    4.5343    0.0000 H   0  0  0  0  0  0  0  0  0  0  0  0
   10.3819   -1.7436    0.0000 H   0  0  0  0  0  0  0  0  0  0  0  0
    2.8660    4.2065    0.0000 H   0  0  0  0  0  0  0  0  0  0  0  0
    2.8660    0.9665    0.0000 H   0  0  0  0  0  0  0  0  0  0  0  0
    1.4631    3.3965    0.0000 H   0  0  0  0  0  0  0  0  0  0  0  0
    1.4631    1.7765    0.0000 H   0  0  0  0  0  0  0  0  0  0  0  0
  1 17  1  0  0  0  0
  2 27  1  0  0  0  0
  3 27  1  0  0  0  0
  4 27  1  0  0  0  0
  5 12  1  0  0  0  0
  5 13  1  0  0  0  0
  5 14  1  0  0  0  0
  6 16  1  0  0  0  0
  6 18  1  0  0  0  0
  6 21  1  0  0  0  0
  7 15  1  0  0  0  0
  7 22  2  0  0  0  0
  8 16  2  0  0  0  0
  8 19  1  0  0  0  0
  9 10  1  0  0  0  0
  9 11  1  0  0  0  0
  9 15  1  0  0  0  0
  9 29  1  0  0  0  0
 10 12  1  0  0  0  0
 10 30  1  0  0  0  0
 10 31  1  0  0  0  0
 11 13  1  0  0  0  0
 11 32  1  0  0  0  0
 11 33  1  0  0  0  0
 12 34  1  0  0  0  0
 12 35  1  0  0  0  0
 13 36  1  0  0  0  0
 13 37  1  0  0  0  0
 14 16  1  0  0  0  0
 14 38  1  0  0  0  0
 14 39  1  0  0  0  0
 15 17  2  0  0  0  0
 17 20  1  0  0  0  0
 18 19  1  0  0  0  0
 18 24  2  0  0  0  0
 19 25  2  0  0  0  0
 20 23  2  0  0  0  0
 20 40  1  0  0  0  0
 21 41  1  0  0  0  0
 21 42  1  0  0  0  0
 21 43  1  0  0  0  0
 22 23  1  0  0  0  0
 22 44  1  0  0  0  0
 23 27  1  0  0  0  0
 24 26  1  0  0  0  0
 24 45  1  0  0  0  0
 25 28  1  0  0  0  0
 25 46  1  0  0  0  0
 26 28  2  0  0  0  0
 26 47  1  0  0  0  0
 28 48  1  0  0  0  0
M  END
> <PUBCHEM_COMPOUND_CID>
46225584

> <PUBCHEM_COMPOUND_CANONICALIZED>
1

> <PUBCHEM_CACTVS_COMPLEXITY>
526

> <PUBCHEM_CACTVS_HBOND_ACCEPTOR>
6

> <PUBCHEM_CACTVS_HBOND_DONOR>
0

> <PUBCHEM_CACTVS_ROTATABLE_BOND>
3

> <PUBCHEM_CACTVS_SUBSKEYS>
AAADceB7gYAEAAAAAAAAAAAAAAAAAWAAAAA8WIAAAAAAAFgB/AAAHQIAAAAADQrBHzQ/0LcMEACgAzZnZACCgC0xF6AJ2CA4dpiIaOLBm5HUIAhogALIyCcQgMAOAAAAAAAAACAAAAAAAAAAQAAAAAAAAA==

> <PUBCHEM_IUPAC_OPENEYE_NAME>
2-[[4-[3-chloro-5-(trifluoromethyl)-2-pyridyl]-1-piperidyl]methyl]-1-methyl-benzimidazole

> <PUBCHEM_IUPAC_CAS_NAME>
2-[[4-[3-chloro-5-(trifluoromethyl)-2-pyridinyl]-1-piperidinyl]methyl]-1-methylbenzimidazole

> <PUBCHEM_IUPAC_NAME_MARKUP>
2-[[4-[3-chloro-5-(trifluoromethyl)pyridin-2-yl]piperidin-1-yl]methyl]-1-methylbenzimidazole

> <PUBCHEM_IUPAC_NAME>
2-[[4-[3-chloro-5-(trifluoromethyl)pyridin-2-yl]piperidin-1-yl]methyl]-1-methylbenzimidazole

> <PUBCHEM_IUPAC_SYSTEMATIC_NAME>
2-[[4-[3-chloranyl-5-(trifluoromethyl)pyridin-2-yl]piperidin-1-yl]methyl]-1-methyl-benzimidazole

> <PUBCHEM_IUPAC_TRADITIONAL_NAME>
2-[[4-[3-chloro-5-(trifluoromethyl)-2-pyridyl]piperidino]methyl]-1-methyl-benzimidazole

> <PUBCHEM_IUPAC_INCHI>
InChI=1S/C20H20ClF3N4/c1-27-17-5-3-2-4-16(17)26-18(27)12-28-8-6-13(7-9-28)19-15(21)10-14(11-25-19)20(22,23)24/h2-5,10-11,13H,6-9,12H2,1H3

> <PUBCHEM_IUPAC_INCHIKEY>
OTTSZTXIWXPOIL-UHFFFAOYSA-N

> <PUBCHEM_XLOGP3_AA>
4

> <PUBCHEM_EXACT_MASS>
408.1328588

> <PUBCHEM_MOLECULAR_FORMULA>
C20H20ClF3N4

> <PUBCHEM_MOLECULAR_WEIGHT>
408.8

> <PUBCHEM_OPENEYE_CAN_SMILES>
CN1C2=CC=CC=C2N=C1CN3CCC(CC3)C4=C(C=C(C=N4)C(F)(F)F)Cl

> <PUBCHEM_OPENEYE_ISO_SMILES>
CN1C2=CC=CC=C2N=C1CN3CCC(CC3)C4=C(C=C(C=N4)C(F)(F)F)Cl

> <PUBCHEM_CACTVS_TPSA>
34

> <PUBCHEM_MONOISOTOPIC_WEIGHT>
408.1328588

> <PUBCHEM_TOTAL_CHARGE>
0

> <PUBCHEM_HEAVY_ATOM_COUNT>
28

> <PUBCHEM_ATOM_DEF_STEREO_COUNT>
0

> <PUBCHEM_ATOM_UDEF_STEREO_COUNT>
0

> <PUBCHEM_BOND_DEF_STEREO_COUNT>
0

> <PUBCHEM_BOND_UDEF_STEREO_COUNT>
0

> <PUBCHEM_ISOTOPIC_ATOM_COUNT>
0

> <PUBCHEM_COMPONENT_COUNT>
1

> <PUBCHEM_CACTVS_TAUTO_COUNT>
-1

> <PUBCHEM_COORDINATE_TYPE>
1
5
255

> <PUBCHEM_BONDANNOTATIONS>
15  17  8
17  20  8
18  19  8
18  24  8
19  25  8
20  23  8
22  23  8
24  26  8
25  28  8
26  28  8
6  16  8
6  18  8
7  15  8
7  22  8
8  16  8
8  19  8

$$$$
