46225569
  -OEChem-09292322482D

 49 52  0     0  0  0  0  0  0999 V2000
    6.7619   -1.5427    0.0000 F   0  0  0  0  0  0  0  0  0  0  0  0
    5.7619   -2.5427    0.0000 F   0  0  0  0  0  0  0  0  0  0  0  0
    6.7619   -3.5427    0.0000 F   0  0  0  0  0  0  0  0  0  0  0  0
    6.7619    0.9214    0.0000 N   0  0  0  0  0  0  0  0  0  0  0  0
    4.6783    2.5922    0.0000 N   0  0  0  0  0  0  0  0  0  0  0  0
    4.6783    0.9827    0.0000 N   0  0  0  0  0  0  0  0  0  0  0  0
    7.7619   -0.8106    0.0000 C   0  0  0  0  0  0  0  0  0  0  0  0
    6.7619   -0.8106    0.0000 C   0  0  0  0  0  0  0  0  0  0  0  0
    8.2619    0.0554    0.0000 C   0  0  0  0  0  0  0  0  0  0  0  0
    6.2619    0.0554    0.0000 C   0  0  0  0  0  0  0  0  0  0  0  0
    7.7619    0.9214    0.0000 C   0  0  0  0  0  0  0  0  0  0  0  0
    8.2619   -1.6767    0.0000 C   0  0  0  0  0  0  0  0  0  0  0  0
    6.2619    1.7874    0.0000 C   0  0  0  0  0  0  0  0  0  0  0  0
    5.2619    1.7874    0.0000 C   0  0  0  0  0  0  0  0  0  0  0  0
    7.7619   -2.5427    0.0000 C   0  0  0  0  0  0  0  0  0  0  0  0
    9.2619   -1.6767    0.0000 C   0  0  0  0  0  0  0  0  0  0  0  0
    8.2619   -3.4087    0.0000 C   0  0  0  0  0  0  0  0  0  0  0  0
    3.7320    2.2874    0.0000 C   0  0  0  0  0  0  0  0  0  0  0  0
    6.7619   -2.5427    0.0000 C   0  0  0  0  0  0  0  0  0  0  0  0
    9.7619   -2.5427    0.0000 C   0  0  0  0  0  0  0  0  0  0  0  0
    3.7320    1.2874    0.0000 C   0  0  0  0  0  0  0  0  0  0  0  0
    9.2619   -3.4087    0.0000 C   0  0  0  0  0  0  0  0  0  0  0  0
    4.9889    3.5427    0.0000 C   0  0  0  0  0  0  0  0  0  0  0  0
    2.8660    2.7874    0.0000 C   0  0  0  0  0  0  0  0  0  0  0  0
    2.8660    0.7874    0.0000 C   0  0  0  0  0  0  0  0  0  0  0  0
    2.0000    2.2874    0.0000 C   0  0  0  0  0  0  0  0  0  0  0  0
    2.0000    1.2874    0.0000 C   0  0  0  0  0  0  0  0  0  0  0  0
    7.4519   -1.3476    0.0000 H   0  0  0  0  0  0  0  0  0  0  0  0
    6.1793   -1.0227    0.0000 H   0  0  0  0  0  0  0  0  0  0  0  0
    6.8695   -1.4212    0.0000 H   0  0  0  0  0  0  0  0  0  0  0  0
    8.7368   -0.3431    0.0000 H   0  0  0  0  0  0  0  0  0  0  0  0
    8.7368    0.4539    0.0000 H   0  0  0  0  0  0  0  0  0  0  0  0
    5.7869    0.4539    0.0000 H   0  0  0  0  0  0  0  0  0  0  0  0
    5.7869   -0.3431    0.0000 H   0  0  0  0  0  0  0  0  0  0  0  0
    8.3445    1.1335    0.0000 H   0  0  0  0  0  0  0  0  0  0  0  0
    7.6542    1.5320    0.0000 H   0  0  0  0  0  0  0  0  0  0  0  0
    6.8445    1.9995    0.0000 H   0  0  0  0  0  0  0  0  0  0  0  0
    6.1542    2.3980    0.0000 H   0  0  0  0  0  0  0  0  0  0  0  0
    9.5719   -1.1397    0.0000 H   0  0  0  0  0  0  0  0  0  0  0  0
    7.9519   -3.9456    0.0000 H   0  0  0  0  0  0  0  0  0  0  0  0
   10.3819   -2.5427    0.0000 H   0  0  0  0  0  0  0  0  0  0  0  0
    9.5719   -3.9456    0.0000 H   0  0  0  0  0  0  0  0  0  0  0  0
    5.5783    3.3501    0.0000 H   0  0  0  0  0  0  0  0  0  0  0  0
    5.1815    4.1320    0.0000 H   0  0  0  0  0  0  0  0  0  0  0  0
    4.3996    3.7353    0.0000 H   0  0  0  0  0  0  0  0  0  0  0  0
    2.8660    3.4074    0.0000 H   0  0  0  0  0  0  0  0  0  0  0  0
    2.8660    0.1674    0.0000 H   0  0  0  0  0  0  0  0  0  0  0  0
    1.4631    2.5974    0.0000 H   0  0  0  0  0  0  0  0  0  0  0  0
    1.4631    0.9774    0.0000 H   0  0  0  0  0  0  0  0  0  0  0  0
  1 19  1  0  0  0  0
  2 19  1  0  0  0  0
  3 19  1  0  0  0  0
  4 10  1  0  0  0  0
  4 11  1  0  0  0  0
  4 13  1  0  0  0  0
  5 14  1  0  0  0  0
  5 18  1  0  0  0  0
  5 23  1  0  0  0  0
  6 14  2  0  0  0  0
  6 21  1  0  0  0  0
  7  8  1  0  0  0  0
  7  9  1  0  0  0  0
  7 12  1  0  0  0  0
  7 28  1  0  0  0  0
  8 10  1  0  0  0  0
  8 29  1  0  0  0  0
  8 30  1  0  0  0  0
  9 11  1  0  0  0  0
  9 31  1  0  0  0  0
  9 32  1  0  0  0  0
 10 33  1  0  0  0  0
 10 34  1  0  0  0  0
 11 35  1  0  0  0  0
 11 36  1  0  0  0  0
 12 15  1  0  0  0  0
 12 16  2  0  0  0  0
 13 14  1  0  0  0  0
 13 37  1  0  0  0  0
 13 38  1  0  0  0  0
 15 17  2  0  0  0  0
 15 19  1  0  0  0  0
 16 20  1  0  0  0  0
 16 39  1  0  0  0  0
 17 22  1  0  0  0  0
 17 40  1  0  0  0  0
 18 21  1  0  0  0  0
 18 24  2  0  0  0  0
 20 22  2  0  0  0  0
 20 41  1  0  0  0  0
 21 25  2  0  0  0  0
 22 42  1  0  0  0  0
 23 43  1  0  0  0  0
 23 44  1  0  0  0  0
 23 45  1  0  0  0  0
 24 26  1  0  0  0  0
 24 46  1  0  0  0  0
 25 27  1  0  0  0  0
 25 47  1  0  0  0  0
 26 27  2  0  0  0  0
 26 48  1  0  0  0  0
 27 49  1  0  0  0  0
M  END
> <PUBCHEM_COMPOUND_CID>
46225569

> <PUBCHEM_COMPOUND_CANONICALIZED>
1

> <PUBCHEM_CACTVS_COMPLEXITY>
490

> <PUBCHEM_CACTVS_HBOND_ACCEPTOR>
5

> <PUBCHEM_CACTVS_HBOND_DONOR>
0

> <PUBCHEM_CACTVS_ROTATABLE_BOND>
3

> <PUBCHEM_CACTVS_SUBSKEYS>
AAADceB7AYAAAAAAAAAAAAAAAAAAAWAAAAA8YIAAAAAAAFgB9AAAHQAAAAAADQjBHxQz0LcMEACgAyZiZACCgC0hEqAJ2CA4dJiIaKLAmZGUIAhogALIyCcQgMAOgAAAAAAQACAAAAAAACAAQAAAAAAAAA==

> <PUBCHEM_IUPAC_OPENEYE_NAME>
1-methyl-2-[[4-[2-(trifluoromethyl)phenyl]-1-piperidyl]methyl]benzimidazole

> <PUBCHEM_IUPAC_CAS_NAME>
1-methyl-2-[[4-[2-(trifluoromethyl)phenyl]-1-piperidinyl]methyl]benzimidazole

> <PUBCHEM_IUPAC_NAME_MARKUP>
1-methyl-2-[[4-[2-(trifluoromethyl)phenyl]piperidin-1-yl]methyl]benzimidazole

> <PUBCHEM_IUPAC_NAME>
1-methyl-2-[[4-[2-(trifluoromethyl)phenyl]piperidin-1-yl]methyl]benzimidazole

> <PUBCHEM_IUPAC_SYSTEMATIC_NAME>
1-methyl-2-[[4-[2-(trifluoromethyl)phenyl]piperidin-1-yl]methyl]benzimidazole

> <PUBCHEM_IUPAC_TRADITIONAL_NAME>
1-methyl-2-[[4-[2-(trifluoromethyl)phenyl]piperidino]methyl]benzimidazole

> <PUBCHEM_IUPAC_INCHI>
InChI=1S/C21H22F3N3/c1-26-19-9-5-4-8-18(19)25-20(26)14-27-12-10-15(11-13-27)16-6-2-3-7-17(16)21(22,23)24/h2-9,15H,10-14H2,1H3

> <PUBCHEM_IUPAC_INCHIKEY>
DGWBQMLESHGUBF-UHFFFAOYSA-N

> <PUBCHEM_XLOGP3_AA>
4.4

> <PUBCHEM_EXACT_MASS>
373.17658220

> <PUBCHEM_MOLECULAR_FORMULA>
C21H22F3N3

> <PUBCHEM_MOLECULAR_WEIGHT>
373.4

> <PUBCHEM_OPENEYE_CAN_SMILES>
CN1C2=CC=CC=C2N=C1CN3CCC(CC3)C4=CC=CC=C4C(F)(F)F

> <PUBCHEM_OPENEYE_ISO_SMILES>
CN1C2=CC=CC=C2N=C1CN3CCC(CC3)C4=CC=CC=C4C(F)(F)F

> <PUBCHEM_CACTVS_TPSA>
21.1

> <PUBCHEM_MONOISOTOPIC_WEIGHT>
373.17658220

> <PUBCHEM_TOTAL_CHARGE>
0

> <PUBCHEM_HEAVY_ATOM_COUNT>
27

> <PUBCHEM_ATOM_DEF_STEREO_COUNT>
0

> <PUBCHEM_ATOM_UDEF_STEREO_COUNT>
0

> <PUBCHEM_BOND_DEF_STEREO_COUNT>
0

> <PUBCHEM_BOND_UDEF_STEREO_COUNT>
0

> <PUBCHEM_ISOTOPIC_ATOM_COUNT>
0

> <PUBCHEM_COMPONENT_COUNT>
1

> <PUBCHEM_CACTVS_TAUTO_COUNT>
-1

> <PUBCHEM_COORDINATE_TYPE>
1
5
255

> <PUBCHEM_BONDANNOTATIONS>
12  15  8
12  16  8
15  17  8
16  20  8
17  22  8
18  21  8
18  24  8
20  22  8
21  25  8
24  26  8
25  27  8
26  27  8
5  14  8
5  18  8
6  14  8
6  21  8

$$$$
