44315578
  -OEChem-09292322502D

 52 54  0     0  0  0  0  0  0999 V2000
    5.4641    0.2500    0.0000 O   0  0  0  0  0  0  0  0  0  0  0  0
    4.5981   -3.2500    0.0000 N   0  0  0  0  0  0  0  0  0  0  0  0
    4.5981   -1.2500    0.0000 C   0  0  0  0  0  0  0  0  0  0  0  0
    5.4641   -1.7500    0.0000 C   0  0  0  0  0  0  0  0  0  0  0  0
    3.7320   -1.7500    0.0000 C   0  0  0  0  0  0  0  0  0  0  0  0
    5.4641   -2.7500    0.0000 C   0  0  0  0  0  0  0  0  0  0  0  0
    3.7320   -2.7500    0.0000 C   0  0  0  0  0  0  0  0  0  0  0  0
    4.5981   -0.2500    0.0000 C   0  0  0  0  0  0  0  0  0  0  0  0
    4.5981   -4.2500    0.0000 C   0  0  0  0  0  0  0  0  0  0  0  0
    3.7320   -4.7500    0.0000 C   0  0  0  0  0  0  0  0  0  0  0  0
    2.8660   -4.2500    0.0000 C   0  0  0  0  0  0  0  0  0  0  0  0
    3.7320   -5.7500    0.0000 C   0  0  0  0  0  0  0  0  0  0  0  0
    5.4641    1.2500    0.0000 C   0  0  0  0  0  0  0  0  0  0  0  0
    2.0000   -4.7500    0.0000 C   0  0  0  0  0  0  0  0  0  0  0  0
    2.8660   -6.2500    0.0000 C   0  0  0  0  0  0  0  0  0  0  0  0
    2.0000   -5.7500    0.0000 C   0  0  0  0  0  0  0  0  0  0  0  0
    6.3301    1.7500    0.0000 C   0  0  0  0  0  0  0  0  0  0  0  0
    6.3301    2.7500    0.0000 C   0  0  0  0  0  0  0  0  0  0  0  0
    7.1962    3.2500    0.0000 C   0  0  0  0  0  0  0  0  0  0  0  0
    7.1962    4.2500    0.0000 C   0  0  0  0  0  0  0  0  0  0  0  0
    8.0622    4.7500    0.0000 C   0  0  0  0  0  0  0  0  0  0  0  0
    6.3301    4.7500    0.0000 C   0  0  0  0  0  0  0  0  0  0  0  0
    8.0622    5.7500    0.0000 C   0  0  0  0  0  0  0  0  0  0  0  0
    6.3301    5.7500    0.0000 C   0  0  0  0  0  0  0  0  0  0  0  0
    7.1962    6.2500    0.0000 C   0  0  0  0  0  0  0  0  0  0  0  0
    5.1350   -0.9400    0.0000 H   0  0  0  0  0  0  0  0  0  0  0  0
    6.0747   -1.8577    0.0000 H   0  0  0  0  0  0  0  0  0  0  0  0
    5.6762   -1.1674    0.0000 H   0  0  0  0  0  0  0  0  0  0  0  0
    3.5200   -1.1674    0.0000 H   0  0  0  0  0  0  0  0  0  0  0  0
    3.1215   -1.8577    0.0000 H   0  0  0  0  0  0  0  0  0  0  0  0
    5.6762   -3.3326    0.0000 H   0  0  0  0  0  0  0  0  0  0  0  0
    6.0747   -2.6423    0.0000 H   0  0  0  0  0  0  0  0  0  0  0  0
    3.1215   -2.6423    0.0000 H   0  0  0  0  0  0  0  0  0  0  0  0
    3.5200   -3.3326    0.0000 H   0  0  0  0  0  0  0  0  0  0  0  0
    4.3860    0.3326    0.0000 H   0  0  0  0  0  0  0  0  0  0  0  0
    3.9875   -0.3577    0.0000 H   0  0  0  0  0  0  0  0  0  0  0  0
    4.8101   -4.8326    0.0000 H   0  0  0  0  0  0  0  0  0  0  0  0
    5.2087   -4.1423    0.0000 H   0  0  0  0  0  0  0  0  0  0  0  0
    2.8660   -3.6300    0.0000 H   0  0  0  0  0  0  0  0  0  0  0  0
    4.2690   -6.0600    0.0000 H   0  0  0  0  0  0  0  0  0  0  0  0
    4.9272    1.5600    0.0000 H   0  0  0  0  0  0  0  0  0  0  0  0
    1.4631   -4.4400    0.0000 H   0  0  0  0  0  0  0  0  0  0  0  0
    2.8660   -6.8700    0.0000 H   0  0  0  0  0  0  0  0  0  0  0  0
    1.4631   -6.0600    0.0000 H   0  0  0  0  0  0  0  0  0  0  0  0
    6.8671    1.4400    0.0000 H   0  0  0  0  0  0  0  0  0  0  0  0
    5.7932    3.0600    0.0000 H   0  0  0  0  0  0  0  0  0  0  0  0
    7.7331    2.9400    0.0000 H   0  0  0  0  0  0  0  0  0  0  0  0
    8.5991    4.4400    0.0000 H   0  0  0  0  0  0  0  0  0  0  0  0
    5.7932    4.4400    0.0000 H   0  0  0  0  0  0  0  0  0  0  0  0
    8.5991    6.0600    0.0000 H   0  0  0  0  0  0  0  0  0  0  0  0
    5.7932    6.0600    0.0000 H   0  0  0  0  0  0  0  0  0  0  0  0
    7.1962    6.8700    0.0000 H   0  0  0  0  0  0  0  0  0  0  0  0
  1  8  1  0  0  0  0
  1 13  1  0  0  0  0
  2  6  1  0  0  0  0
  2  7  1  0  0  0  0
  2  9  1  0  0  0  0
  3  4  1  0  0  0  0
  3  5  1  0  0  0  0
  3  8  1  0  0  0  0
  3 26  1  0  0  0  0
  4  6  1  0  0  0  0
  4 27  1  0  0  0  0
  4 28  1  0  0  0  0
  5  7  1  0  0  0  0
  5 29  1  0  0  0  0
  5 30  1  0  0  0  0
  6 31  1  0  0  0  0
  6 32  1  0  0  0  0
  7 33  1  0  0  0  0
  7 34  1  0  0  0  0
  8 35  1  0  0  0  0
  8 36  1  0  0  0  0
  9 10  1  0  0  0  0
  9 37  1  0  0  0  0
  9 38  1  0  0  0  0
 10 11  2  0  0  0  0
 10 12  1  0  0  0  0
 11 14  1  0  0  0  0
 11 39  1  0  0  0  0
 12 15  2  0  0  0  0
 12 40  1  0  0  0  0
 13 17  2  0  0  0  0
 13 41  1  0  0  0  0
 14 16  2  0  0  0  0
 14 42  1  0  0  0  0
 15 16  1  0  0  0  0
 15 43  1  0  0  0  0
 16 44  1  0  0  0  0
 17 18  1  0  0  0  0
 17 45  1  0  0  0  0
 18 19  2  0  0  0  0
 18 46  1  0  0  0  0
 19 20  1  0  0  0  0
 19 47  1  0  0  0  0
 20 21  2  0  0  0  0
 20 22  1  0  0  0  0
 21 23  1  0  0  0  0
 21 48  1  0  0  0  0
 22 24  2  0  0  0  0
 22 49  1  0  0  0  0
 23 25  2  0  0  0  0
 23 50  1  0  0  0  0
 24 25  1  0  0  0  0
 24 51  1  0  0  0  0
 25 52  1  0  0  0  0
M  END
> <PUBCHEM_COMPOUND_CID>
44315578

> <PUBCHEM_COMPOUND_CANONICALIZED>
1

> <PUBCHEM_CACTVS_COMPLEXITY>
396

> <PUBCHEM_CACTVS_HBOND_ACCEPTOR>
2

> <PUBCHEM_CACTVS_HBOND_DONOR>
0

> <PUBCHEM_CACTVS_ROTATABLE_BOND>
7

> <PUBCHEM_CACTVS_SUBSKEYS>
AAADceB6IAAAAAAAAAAAAAAAAAAAAAAAAAA8YIAAAAAAAAABQAAAHgAAAAAADQDhmAYwAIMABACAAiBCAACCCAAgIAAIiAAIBIgIICKAkRGEIAhkgACIiAcwgAAOAAAAAAAAAAAAAAAAAAAAAAAAAAAAAA==

> <PUBCHEM_IUPAC_OPENEYE_NAME>
1-benzyl-4-[[(1E,3E)-4-phenylbuta-1,3-dienoxy]methyl]piperidine

> <PUBCHEM_IUPAC_CAS_NAME>
4-[[(1E,3E)-4-phenylbuta-1,3-dienoxy]methyl]-1-(phenylmethyl)piperidine

> <PUBCHEM_IUPAC_NAME_MARKUP>
1-benzyl-4-[[(1<I>E</I>,3<I>E</I>)-4-phenylbuta-1,3-dienoxy]methyl]piperidine

> <PUBCHEM_IUPAC_NAME>
1-benzyl-4-[[(1E,3E)-4-phenylbuta-1,3-dienoxy]methyl]piperidine

> <PUBCHEM_IUPAC_SYSTEMATIC_NAME>
4-[[(1E,3E)-4-phenylbuta-1,3-dienoxy]methyl]-1-(phenylmethyl)piperidine

> <PUBCHEM_IUPAC_TRADITIONAL_NAME>
1-benzyl-4-[[(1E,3E)-4-phenylbuta-1,3-dienoxy]methyl]piperidine

> <PUBCHEM_IUPAC_INCHI>
InChI=1S/C23H27NO/c1-3-9-21(10-4-1)11-7-8-18-25-20-23-14-16-24(17-15-23)19-22-12-5-2-6-13-22/h1-13,18,23H,14-17,19-20H2/b11-7+,18-8+

> <PUBCHEM_IUPAC_INCHIKEY>
WJLATVOFFJQTEJ-BTSJBCBBSA-N

> <PUBCHEM_XLOGP3_AA>
5.2

> <PUBCHEM_EXACT_MASS>
333.209264485

> <PUBCHEM_MOLECULAR_FORMULA>
C23H27NO

> <PUBCHEM_MOLECULAR_WEIGHT>
333.5

> <PUBCHEM_OPENEYE_CAN_SMILES>
C1CN(CCC1COC=CC=CC2=CC=CC=C2)CC3=CC=CC=C3

> <PUBCHEM_OPENEYE_ISO_SMILES>
C1CN(CCC1CO/C=C/C=C/C2=CC=CC=C2)CC3=CC=CC=C3

> <PUBCHEM_CACTVS_TPSA>
12.5

> <PUBCHEM_MONOISOTOPIC_WEIGHT>
333.209264485

> <PUBCHEM_TOTAL_CHARGE>
0

> <PUBCHEM_HEAVY_ATOM_COUNT>
25

> <PUBCHEM_ATOM_DEF_STEREO_COUNT>
0

> <PUBCHEM_ATOM_UDEF_STEREO_COUNT>
0

> <PUBCHEM_BOND_DEF_STEREO_COUNT>
2

> <PUBCHEM_BOND_UDEF_STEREO_COUNT>
0

> <PUBCHEM_ISOTOPIC_ATOM_COUNT>
0

> <PUBCHEM_COMPONENT_COUNT>
1

> <PUBCHEM_CACTVS_TAUTO_COUNT>
-1

> <PUBCHEM_COORDINATE_TYPE>
1
5
255

> <PUBCHEM_BONDANNOTATIONS>
10  11  8
10  12  8
11  14  8
12  15  8
14  16  8
15  16  8
20  21  8
20  22  8
21  23  8
22  24  8
23  25  8
24  25  8

$$$$
