44438235
  -OEChem-09292322262D

 48 51  0     0  0  0  0  0  0999 V2000
   10.9017    2.5334    0.0000 S   0  0  0  0  0  0  0  0  0  0  0  0
    8.8750   -0.4486    0.0000 O   0  0  0  0  0  0  0  0  0  0  0  0
    4.6783   -3.3166    0.0000 O   0  0  0  0  0  0  0  0  0  0  0  0
    5.9674   -0.5504    0.0000 N   0  0  0  0  0  0  0  0  0  0  0  0
    7.9244   -0.1380    0.0000 C   0  0  0  0  0  0  0  0  0  0  0  0
    7.2566    0.6063    0.0000 C   0  0  0  0  0  0  0  0  0  0  0  0
    7.6138   -1.0885    0.0000 C   0  0  0  0  0  0  0  0  0  0  0  0
    6.2781    0.4001    0.0000 C   0  0  0  0  0  0  0  0  0  0  0  0
    6.6353   -1.2947    0.0000 C   0  0  0  0  0  0  0  0  0  0  0  0
    8.6688    0.5299    0.0000 C   0  0  0  0  0  0  0  0  0  0  0  0
    4.9889   -0.7566    0.0000 C   0  0  0  0  0  0  0  0  0  0  0  0
    4.6783   -1.7072    0.0000 C   0  0  0  0  0  0  0  0  0  0  0  0
    9.6193    0.2192    0.0000 C   0  0  0  0  0  0  0  0  0  0  0  0
    8.4625    1.5084    0.0000 C   0  0  0  0  0  0  0  0  0  0  0  0
    3.7320   -2.0119    0.0000 C   0  0  0  0  0  0  0  0  0  0  0  0
    5.2619   -2.5119    0.0000 C   0  0  0  0  0  0  0  0  0  0  0  0
   10.3636    0.8870    0.0000 C   0  0  0  0  0  0  0  0  0  0  0  0
    9.2068    2.1762    0.0000 C   0  0  0  0  0  0  0  0  0  0  0  0
    3.7320   -3.0119    0.0000 C   0  0  0  0  0  0  0  0  0  0  0  0
   10.1574    1.8656    0.0000 C   0  0  0  0  0  0  0  0  0  0  0  0
    2.8660   -1.5119    0.0000 C   0  0  0  0  0  0  0  0  0  0  0  0
    2.8660   -3.5119    0.0000 C   0  0  0  0  0  0  0  0  0  0  0  0
    2.0000   -2.0119    0.0000 C   0  0  0  0  0  0  0  0  0  0  0  0
    2.0000   -3.0119    0.0000 C   0  0  0  0  0  0  0  0  0  0  0  0
   10.6954    3.5119    0.0000 C   0  0  0  0  0  0  0  0  0  0  0  0
    7.7830    0.9340    0.0000 H   0  0  0  0  0  0  0  0  0  0  0  0
    7.0254    1.1816    0.0000 H   0  0  0  0  0  0  0  0  0  0  0  0
    7.6344   -1.7082    0.0000 H   0  0  0  0  0  0  0  0  0  0  0  0
    8.2276   -1.1759    0.0000 H   0  0  0  0  0  0  0  0  0  0  0  0
    6.2575    1.0198    0.0000 H   0  0  0  0  0  0  0  0  0  0  0  0
    5.6643    0.4874    0.0000 H   0  0  0  0  0  0  0  0  0  0  0  0
    6.1089   -1.6224    0.0000 H   0  0  0  0  0  0  0  0  0  0  0  0
    6.8665   -1.8700    0.0000 H   0  0  0  0  0  0  0  0  0  0  0  0
    4.9684   -0.1370    0.0000 H   0  0  0  0  0  0  0  0  0  0  0  0
    4.3751   -0.6693    0.0000 H   0  0  0  0  0  0  0  0  0  0  0  0
    9.0028   -1.0553    0.0000 H   0  0  0  0  0  0  0  0  0  0  0  0
    9.7471   -0.3875    0.0000 H   0  0  0  0  0  0  0  0  0  0  0  0
    7.8732    1.7010    0.0000 H   0  0  0  0  0  0  0  0  0  0  0  0
    5.8819   -2.5119    0.0000 H   0  0  0  0  0  0  0  0  0  0  0  0
   10.9529    0.6944    0.0000 H   0  0  0  0  0  0  0  0  0  0  0  0
    9.0790    2.7829    0.0000 H   0  0  0  0  0  0  0  0  0  0  0  0
    2.8660   -0.8919    0.0000 H   0  0  0  0  0  0  0  0  0  0  0  0
    2.8660   -4.1319    0.0000 H   0  0  0  0  0  0  0  0  0  0  0  0
    1.4631   -1.7019    0.0000 H   0  0  0  0  0  0  0  0  0  0  0  0
    1.4631   -3.3219    0.0000 H   0  0  0  0  0  0  0  0  0  0  0  0
   11.3021    3.6398    0.0000 H   0  0  0  0  0  0  0  0  0  0  0  0
   10.5676    4.1186    0.0000 H   0  0  0  0  0  0  0  0  0  0  0  0
   10.0888    3.3840    0.0000 H   0  0  0  0  0  0  0  0  0  0  0  0
  1 20  1  0  0  0  0
  1 25  1  0  0  0  0
  2  5  1  0  0  0  0
  2 36  1  0  0  0  0
  3 16  1  0  0  0  0
  3 19  1  0  0  0  0
  4  8  1  0  0  0  0
  4  9  1  0  0  0  0
  4 11  1  0  0  0  0
  5  6  1  0  0  0  0
  5  7  1  0  0  0  0
  5 10  1  0  0  0  0
  6  8  1  0  0  0  0
  6 26  1  0  0  0  0
  6 27  1  0  0  0  0
  7  9  1  0  0  0  0
  7 28  1  0  0  0  0
  7 29  1  0  0  0  0
  8 30  1  0  0  0  0
  8 31  1  0  0  0  0
  9 32  1  0  0  0  0
  9 33  1  0  0  0  0
 10 13  2  0  0  0  0
 10 14  1  0  0  0  0
 11 12  1  0  0  0  0
 11 34  1  0  0  0  0
 11 35  1  0  0  0  0
 12 15  1  0  0  0  0
 12 16  2  0  0  0  0
 13 17  1  0  0  0  0
 13 37  1  0  0  0  0
 14 18  2  0  0  0  0
 14 38  1  0  0  0  0
 15 19  1  0  0  0  0
 15 21  2  0  0  0  0
 16 39  1  0  0  0  0
 17 20  2  0  0  0  0
 17 40  1  0  0  0  0
 18 20  1  0  0  0  0
 18 41  1  0  0  0  0
 19 22  2  0  0  0  0
 21 23  1  0  0  0  0
 21 42  1  0  0  0  0
 22 24  1  0  0  0  0
 22 43  1  0  0  0  0
 23 24  2  0  0  0  0
 23 44  1  0  0  0  0
 24 45  1  0  0  0  0
 25 46  1  0  0  0  0
 25 47  1  0  0  0  0
 25 48  1  0  0  0  0
M  END
> <PUBCHEM_COMPOUND_CID>
44438235

> <PUBCHEM_COMPOUND_CANONICALIZED>
1

> <PUBCHEM_CACTVS_COMPLEXITY>
430

> <PUBCHEM_CACTVS_HBOND_ACCEPTOR>
4

> <PUBCHEM_CACTVS_HBOND_DONOR>
1

> <PUBCHEM_CACTVS_ROTATABLE_BOND>
4

> <PUBCHEM_CACTVS_SUBSKEYS>
AAADceB6MABAAAAAAAAAAAAAAAAAASAAAAA8YIAAAAAAAEgB9AAAHgQACAAADETh2AayB8MABkiIAqhSgACCCAAkKBAIiBkODMgMJjqktRuGeSjmwBGIuYe8yOCOkAAAAAAIAAAgAAAAABAAAAAAAAAAAA==

> <PUBCHEM_IUPAC_OPENEYE_NAME>
1-(benzofuran-3-ylmethyl)-4-(4-methylsulfanylphenyl)piperidin-4-ol

> <PUBCHEM_IUPAC_CAS_NAME>
1-(3-benzofuranylmethyl)-4-[4-(methylthio)phenyl]-4-piperidinol

> <PUBCHEM_IUPAC_NAME_MARKUP>
1-(1-benzofuran-3-ylmethyl)-4-(4-methylsulfanylphenyl)piperidin-4-ol

> <PUBCHEM_IUPAC_NAME>
1-(1-benzofuran-3-ylmethyl)-4-(4-methylsulfanylphenyl)piperidin-4-ol

> <PUBCHEM_IUPAC_SYSTEMATIC_NAME>
1-(1-benzofuran-3-ylmethyl)-4-(4-methylsulfanylphenyl)piperidin-4-ol

> <PUBCHEM_IUPAC_TRADITIONAL_NAME>
1-(benzofuran-3-ylmethyl)-4-[4-(methylthio)phenyl]piperidin-4-ol

> <PUBCHEM_IUPAC_INCHI>
InChI=1S/C21H23NO2S/c1-25-18-8-6-17(7-9-18)21(23)10-12-22(13-11-21)14-16-15-24-20-5-3-2-4-19(16)20/h2-9,15,23H,10-14H2,1H3

> <PUBCHEM_IUPAC_INCHIKEY>
ONUMGROJBFLQKF-UHFFFAOYSA-N

> <PUBCHEM_XLOGP3_AA>
3.8

> <PUBCHEM_EXACT_MASS>
353.14495015

> <PUBCHEM_MOLECULAR_FORMULA>
C21H23NO2S

> <PUBCHEM_MOLECULAR_WEIGHT>
353.5

> <PUBCHEM_OPENEYE_CAN_SMILES>
CSC1=CC=C(C=C1)C2(CCN(CC2)CC3=COC4=CC=CC=C43)O

> <PUBCHEM_OPENEYE_ISO_SMILES>
CSC1=CC=C(C=C1)C2(CCN(CC2)CC3=COC4=CC=CC=C43)O

> <PUBCHEM_CACTVS_TPSA>
61.9

> <PUBCHEM_MONOISOTOPIC_WEIGHT>
353.14495015

> <PUBCHEM_TOTAL_CHARGE>
0

> <PUBCHEM_HEAVY_ATOM_COUNT>
25

> <PUBCHEM_ATOM_DEF_STEREO_COUNT>
0

> <PUBCHEM_ATOM_UDEF_STEREO_COUNT>
0

> <PUBCHEM_BOND_DEF_STEREO_COUNT>
0

> <PUBCHEM_BOND_UDEF_STEREO_COUNT>
0

> <PUBCHEM_ISOTOPIC_ATOM_COUNT>
0

> <PUBCHEM_COMPONENT_COUNT>
1

> <PUBCHEM_CACTVS_TAUTO_COUNT>
-1

> <PUBCHEM_COORDINATE_TYPE>
1
5
255

> <PUBCHEM_BONDANNOTATIONS>
10  13  8
10  14  8
12  15  8
12  16  8
13  17  8
14  18  8
15  19  8
15  21  8
17  20  8
18  20  8
19  22  8
21  23  8
22  24  8
23  24  8
3  16  8
3  19  8

$$$$
