71151704
  -OEChem-09292322352D

 71 76  0     0  0  0  0  0  0999 V2000
    4.9331   -0.5918    0.0000 S   0  0  0  0  0  0  0  0  0  0  0  0
   14.4388    0.4839    0.0000 O   0  0  0  0  0  0  0  0  0  0  0  0
    4.7231    0.3859    0.0000 O   0  0  0  0  0  0  0  0  0  0  0  0
    5.1431   -1.5696    0.0000 O   0  0  0  0  0  0  0  0  0  0  0  0
   19.7010    0.5081    0.0000 O   0  0  0  0  0  0  0  0  0  0  0  0
   10.9747    0.4706    0.0000 N   0  0  0  0  0  0  0  0  0  0  0  0
    9.2465   -0.5361    0.0000 N   0  0  0  0  0  0  0  0  0  0  0  0
    5.9108   -0.3819    0.0000 N   0  0  0  0  0  0  0  0  0  0  0  0
   17.9689    0.5081    0.0000 N   0  0  0  0  0  0  0  0  0  0  0  0
   10.1068    0.9672    0.0000 C   0  0  0  0  0  0  0  0  0  0  0  0
   10.9786   -0.5294    0.0000 C   0  0  0  0  0  0  0  0  0  0  0  0
    9.2427    0.4639    0.0000 C   0  0  0  0  0  0  0  0  0  0  0  0
   10.1145   -1.0327    0.0000 C   0  0  0  0  0  0  0  0  0  0  0  0
   11.8388    0.9739    0.0000 C   0  0  0  0  0  0  0  0  0  0  0  0
    8.3824   -1.0394    0.0000 C   0  0  0  0  0  0  0  0  0  0  0  0
    7.5145   -0.5428    0.0000 C   0  0  0  0  0  0  0  0  0  0  0  0
   12.7067    0.4773    0.0000 C   0  0  0  0  0  0  0  0  0  0  0  0
    6.6504   -1.0461    0.0000 C   0  0  0  0  0  0  0  0  0  0  0  0
    8.3863   -2.0394    0.0000 C   0  0  0  0  0  0  0  0  0  0  0  0
    7.3015    0.4282    0.0000 C   0  0  0  0  0  0  0  0  0  0  0  0
   13.5708    0.9806    0.0000 C   0  0  0  0  0  0  0  0  0  0  0  0
    6.6542   -2.0461    0.0000 C   0  0  0  0  0  0  0  0  0  0  0  0
    6.3124    0.5275    0.0000 C   0  0  0  0  0  0  0  0  0  0  0  0
    7.5222   -2.5428    0.0000 C   0  0  0  0  0  0  0  0  0  0  0  0
    3.9554   -0.8018    0.0000 C   0  0  0  0  0  0  0  0  0  0  0  0
   15.3029    0.9873    0.0000 C   0  0  0  0  0  0  0  0  0  0  0  0
   17.1029    2.0081    0.0000 C   0  0  0  0  0  0  0  0  0  0  0  0
   17.1029    1.0081    0.0000 C   0  0  0  0  0  0  0  0  0  0  0  0
   17.9689    2.5081    0.0000 C   0  0  0  0  0  0  0  0  0  0  0  0
   16.2089    0.4734    0.0000 C   0  0  0  0  0  0  0  0  0  0  0  0
   18.8349    2.0081    0.0000 C   0  0  0  0  0  0  0  0  0  0  0  0
   15.3029    2.0289    0.0000 C   0  0  0  0  0  0  0  0  0  0  0  0
   16.2089    2.5428    0.0000 C   0  0  0  0  0  0  0  0  0  0  0  0
    3.2847   -0.0601    0.0000 C   0  0  0  0  0  0  0  0  0  0  0  0
    3.6484   -1.7536    0.0000 C   0  0  0  0  0  0  0  0  0  0  0  0
   18.8349    1.0081    0.0000 C   0  0  0  0  0  0  0  0  0  0  0  0
    2.3070   -0.2701    0.0000 C   0  0  0  0  0  0  0  0  0  0  0  0
    2.6707   -1.9635    0.0000 C   0  0  0  0  0  0  0  0  0  0  0  0
    2.0000   -1.2218    0.0000 C   0  0  0  0  0  0  0  0  0  0  0  0
   10.5035    1.4437    0.0000 H   0  0  0  0  0  0  0  0  0  0  0  0
    9.7064    1.4406    0.0000 H   0  0  0  0  0  0  0  0  0  0  0  0
   11.1929   -1.1112    0.0000 H   0  0  0  0  0  0  0  0  0  0  0  0
   11.5887   -0.4194    0.0000 H   0  0  0  0  0  0  0  0  0  0  0  0
    9.0284    1.0457    0.0000 H   0  0  0  0  0  0  0  0  0  0  0  0
    8.6325    0.3539    0.0000 H   0  0  0  0  0  0  0  0  0  0  0  0
    9.7178   -1.5092    0.0000 H   0  0  0  0  0  0  0  0  0  0  0  0
   10.5148   -1.5062    0.0000 H   0  0  0  0  0  0  0  0  0  0  0  0
   12.2355    1.4504    0.0000 H   0  0  0  0  0  0  0  0  0  0  0  0
   11.4384    1.4473    0.0000 H   0  0  0  0  0  0  0  0  0  0  0  0
   12.3101    0.0008    0.0000 H   0  0  0  0  0  0  0  0  0  0  0  0
   13.1071    0.0039    0.0000 H   0  0  0  0  0  0  0  0  0  0  0  0
    8.9244   -2.3473    0.0000 H   0  0  0  0  0  0  0  0  0  0  0  0
    7.7138    0.8913    0.0000 H   0  0  0  0  0  0  0  0  0  0  0  0
   13.9675    1.4571    0.0000 H   0  0  0  0  0  0  0  0  0  0  0  0
   13.1705    1.4540    0.0000 H   0  0  0  0  0  0  0  0  0  0  0  0
    6.1185   -2.3582    0.0000 H   0  0  0  0  0  0  0  0  0  0  0  0
    6.0004    1.0632    0.0000 H   0  0  0  0  0  0  0  0  0  0  0  0
    7.5246   -3.1627    0.0000 H   0  0  0  0  0  0  0  0  0  0  0  0
   18.3674    2.9830    0.0000 H   0  0  0  0  0  0  0  0  0  0  0  0
   17.5704    2.9830    0.0000 H   0  0  0  0  0  0  0  0  0  0  0  0
   16.2161   -0.1465    0.0000 H   0  0  0  0  0  0  0  0  0  0  0  0
   19.4455    1.9004    0.0000 H   0  0  0  0  0  0  0  0  0  0  0  0
   19.0470    2.5907    0.0000 H   0  0  0  0  0  0  0  0  0  0  0  0
   14.7671    2.3410    0.0000 H   0  0  0  0  0  0  0  0  0  0  0  0
   16.2161    3.1627    0.0000 H   0  0  0  0  0  0  0  0  0  0  0  0
   17.9689   -0.1119    0.0000 H   0  0  0  0  0  0  0  0  0  0  0  0
    3.4750    0.5299    0.0000 H   0  0  0  0  0  0  0  0  0  0  0  0
    4.0642   -2.2134    0.0000 H   0  0  0  0  0  0  0  0  0  0  0  0
    1.8912    0.1898    0.0000 H   0  0  0  0  0  0  0  0  0  0  0  0
    2.4804   -2.5536    0.0000 H   0  0  0  0  0  0  0  0  0  0  0  0
    1.3938   -1.3520    0.0000 H   0  0  0  0  0  0  0  0  0  0  0  0
  1  3  2  0  0  0  0
  1  4  2  0  0  0  0
  1  8  1  0  0  0  0
  1 25  1  0  0  0  0
  2 21  1  0  0  0  0
  2 26  1  0  0  0  0
  5 36  2  0  0  0  0
  6 10  1  0  0  0  0
  6 11  1  0  0  0  0
  6 14  1  0  0  0  0
  7 12  1  0  0  0  0
  7 13  1  0  0  0  0
  7 15  1  0  0  0  0
  8 18  1  0  0  0  0
  8 23  1  0  0  0  0
  9 28  1  0  0  0  0
  9 36  1  0  0  0  0
  9 66  1  0  0  0  0
 10 12  1  0  0  0  0
 10 40  1  0  0  0  0
 10 41  1  0  0  0  0
 11 13  1  0  0  0  0
 11 42  1  0  0  0  0
 11 43  1  0  0  0  0
 12 44  1  0  0  0  0
 12 45  1  0  0  0  0
 13 46  1  0  0  0  0
 13 47  1  0  0  0  0
 14 17  1  0  0  0  0
 14 48  1  0  0  0  0
 14 49  1  0  0  0  0
 15 16  1  0  0  0  0
 15 19  2  0  0  0  0
 16 18  2  0  0  0  0
 16 20  1  0  0  0  0
 17 21  1  0  0  0  0
 17 50  1  0  0  0  0
 17 51  1  0  0  0  0
 18 22  1  0  0  0  0
 19 24  1  0  0  0  0
 19 52  1  0  0  0  0
 20 23  2  0  0  0  0
 20 53  1  0  0  0  0
 21 54  1  0  0  0  0
 21 55  1  0  0  0  0
 22 24  2  0  0  0  0
 22 56  1  0  0  0  0
 23 57  1  0  0  0  0
 24 58  1  0  0  0  0
 25 34  2  0  0  0  0
 25 35  1  0  0  0  0
 26 30  2  0  0  0  0
 26 32  1  0  0  0  0
 27 28  2  0  0  0  0
 27 29  1  0  0  0  0
 27 33  1  0  0  0  0
 28 30  1  0  0  0  0
 29 31  1  0  0  0  0
 29 59  1  0  0  0  0
 29 60  1  0  0  0  0
 30 61  1  0  0  0  0
 31 36  1  0  0  0  0
 31 62  1  0  0  0  0
 31 63  1  0  0  0  0
 32 33  2  0  0  0  0
 32 64  1  0  0  0  0
 33 65  1  0  0  0  0
 34 37  1  0  0  0  0
 34 67  1  0  0  0  0
 35 38  2  0  0  0  0
 35 68  1  0  0  0  0
 37 39  2  0  0  0  0
 37 69  1  0  0  0  0
 38 39  1  0  0  0  0
 38 70  1  0  0  0  0
 39 71  1  0  0  0  0
M  END
> <PUBCHEM_COMPOUND_CID>
71151704

> <PUBCHEM_COMPOUND_CANONICALIZED>
1

> <PUBCHEM_CACTVS_COMPLEXITY>
928

> <PUBCHEM_CACTVS_HBOND_ACCEPTOR>
6

> <PUBCHEM_CACTVS_HBOND_DONOR>
1

> <PUBCHEM_CACTVS_ROTATABLE_BOND>
8

> <PUBCHEM_CACTVS_SUBSKEYS>
AAADcfB7uABAAAAAAAAAAAAAAAAAAWAAAAA8eMECAAAAAFix9AAAHgQQQAAADAzh3gY8x/PIFAKoAzV3VHDCiDAxIiAI2Dk+bJgMZvLE8duWPCjm1BnI6AeY2aOeIAAAAgQCAABAAAAECAQAAAAAAAAAAA==

> <PUBCHEM_IUPAC_OPENEYE_NAME>
7-[3-[4-[1-(benzenesulfonyl)indol-4-yl]piperazin-1-yl]propoxy]-3,4-dihydro-1H-quinolin-2-one

> <PUBCHEM_IUPAC_CAS_NAME>
7-[3-[4-[1-(benzenesulfonyl)-4-indolyl]-1-piperazinyl]propoxy]-3,4-dihydro-1H-quinolin-2-one

> <PUBCHEM_IUPAC_NAME_MARKUP>
7-[3-[4-[1-(benzenesulfonyl)indol-4-yl]piperazin-1-yl]propoxy]-3,4-dihydro-1<I>H</I>-quinolin-2-one

> <PUBCHEM_IUPAC_NAME>
7-[3-[4-[1-(benzenesulfonyl)indol-4-yl]piperazin-1-yl]propoxy]-3,4-dihydro-1H-quinolin-2-one

> <PUBCHEM_IUPAC_SYSTEMATIC_NAME>
7-[3-[4-[1-(phenylsulfonyl)indol-4-yl]piperazin-1-yl]propoxy]-3,4-dihydro-1H-quinolin-2-one

> <PUBCHEM_IUPAC_TRADITIONAL_NAME>
7-[3-[4-(1-besylindol-4-yl)piperazino]propoxy]-3,4-dihydrocarbostyril

> <PUBCHEM_IUPAC_INCHI>
InChI=1S/C30H32N4O4S/c35-30-13-11-23-10-12-24(22-27(23)31-30)38-21-5-15-32-17-19-33(20-18-32)28-8-4-9-29-26(28)14-16-34(29)39(36,37)25-6-2-1-3-7-25/h1-4,6-10,12,14,16,22H,5,11,13,15,17-21H2,(H,31,35)

> <PUBCHEM_IUPAC_INCHIKEY>
HIURADGFEHNSHY-UHFFFAOYSA-N

> <PUBCHEM_XLOGP3_AA>
4.3

> <PUBCHEM_EXACT_MASS>
544.21442669

> <PUBCHEM_MOLECULAR_FORMULA>
C30H32N4O4S

> <PUBCHEM_MOLECULAR_WEIGHT>
544.7

> <PUBCHEM_OPENEYE_CAN_SMILES>
C1CC(=O)NC2=C1C=CC(=C2)OCCCN3CCN(CC3)C4=CC=CC5=C4C=CN5S(=O)(=O)C6=CC=CC=C6

> <PUBCHEM_OPENEYE_ISO_SMILES>
C1CC(=O)NC2=C1C=CC(=C2)OCCCN3CCN(CC3)C4=CC=CC5=C4C=CN5S(=O)(=O)C6=CC=CC=C6

> <PUBCHEM_CACTVS_TPSA>
92.3

> <PUBCHEM_MONOISOTOPIC_WEIGHT>
544.21442669

> <PUBCHEM_TOTAL_CHARGE>
0

> <PUBCHEM_HEAVY_ATOM_COUNT>
39

> <PUBCHEM_ATOM_DEF_STEREO_COUNT>
0

> <PUBCHEM_ATOM_UDEF_STEREO_COUNT>
0

> <PUBCHEM_BOND_DEF_STEREO_COUNT>
0

> <PUBCHEM_BOND_UDEF_STEREO_COUNT>
0

> <PUBCHEM_ISOTOPIC_ATOM_COUNT>
0

> <PUBCHEM_COMPONENT_COUNT>
1

> <PUBCHEM_CACTVS_TAUTO_COUNT>
-1

> <PUBCHEM_COORDINATE_TYPE>
1
5
255

> <PUBCHEM_BONDANNOTATIONS>
15  16  8
15  19  8
16  18  8
16  20  8
18  22  8
19  24  8
20  23  8
22  24  8
25  34  8
25  35  8
26  30  8
26  32  8
27  28  8
27  33  8
28  30  8
32  33  8
34  37  8
35  38  8
37  39  8
38  39  8
8  18  8
8  23  8

$$$$
