71580946
  -OEChem-10012300272D

 67 70  0     1  0  0  0  0  0999 V2000
    8.1962   -3.7307    0.0000 F   0  0  0  0  0  0  0  0  0  0  0  0
    7.1962   -4.7307    0.0000 F   0  0  0  0  0  0  0  0  0  0  0  0
    6.1962   -3.7307    0.0000 F   0  0  0  0  0  0  0  0  0  0  0  0
    8.4530    1.0140    0.0000 O   0  0  0  0  0  0  0  0  0  0  0  0
    5.4641    0.2693    0.0000 O   0  0  0  0  0  0  0  0  0  0  0  0
    5.4641    2.2693    0.0000 N   0  0  3  0  0  0  0  0  0  0  0  0
    7.1962    3.2693    0.0000 N   0  0  0  0  0  0  0  0  0  0  0  0
    8.7260    2.7693    0.0000 N   0  0  0  0  0  0  0  0  0  0  0  0
    3.7320    0.2693    0.0000 N   0  0  0  0  0  0  0  0  0  0  0  0
    6.3301    1.7693    0.0000 C   0  0  3  0  0  0  0  0  0  0  0  0
    7.1962    2.2693    0.0000 C   0  0  0  0  0  0  0  0  0  0  0  0
    5.4641    3.2693    0.0000 C   0  0  0  0  0  0  0  0  0  0  0  0
    6.3301    3.7693    0.0000 C   0  0  0  0  0  0  0  0  0  0  0  0
    6.3301    0.7693    0.0000 C   0  0  0  0  0  0  0  0  0  0  0  0
    4.5981    1.7693    0.0000 C   0  0  2  0  0  0  0  0  0  0  0  0
    8.1424    3.5740    0.0000 C   0  0  0  0  0  0  0  0  0  0  0  0
    8.1424    1.9645    0.0000 C   0  0  0  0  0  0  0  0  0  0  0  0
    7.1962    0.2693    0.0000 C   0  0  0  0  0  0  0  0  0  0  0  0
    3.7320    2.2693    0.0000 C   0  0  0  0  0  0  0  0  0  0  0  0
    4.5981    0.7693    0.0000 C   0  0  0  0  0  0  0  0  0  0  0  0
    8.4530    4.5245    0.0000 C   0  0  0  0  0  0  0  0  0  0  0  0
    7.1962   -0.7307    0.0000 C   0  0  0  0  0  0  0  0  0  0  0  0
    2.8660    1.7693    0.0000 C   0  0  0  0  0  0  0  0  0  0  0  0
    3.7320    3.2693    0.0000 C   0  0  0  0  0  0  0  0  0  0  0  0
    9.4315    4.7307    0.0000 C   0  0  0  0  0  0  0  0  0  0  0  0
    6.3301   -1.2307    0.0000 C   0  0  0  0  0  0  0  0  0  0  0  0
    8.0622   -1.2307    0.0000 C   0  0  0  0  0  0  0  0  0  0  0  0
    2.0000    2.2693    0.0000 C   0  0  0  0  0  0  0  0  0  0  0  0
    2.8660    3.7693    0.0000 C   0  0  0  0  0  0  0  0  0  0  0  0
    9.4315    0.8078    0.0000 C   0  0  0  0  0  0  0  0  0  0  0  0
    2.0000    3.2693    0.0000 C   0  0  0  0  0  0  0  0  0  0  0  0
    3.7320   -0.7307    0.0000 C   0  0  0  0  0  0  0  0  0  0  0  0
    6.3301   -2.2307    0.0000 C   0  0  0  0  0  0  0  0  0  0  0  0
    8.0622   -2.2307    0.0000 C   0  0  0  0  0  0  0  0  0  0  0  0
    7.1962   -2.7307    0.0000 C   0  0  0  0  0  0  0  0  0  0  0  0
    7.1962   -3.7307    0.0000 C   0  0  0  0  0  0  0  0  0  0  0  0
    5.7932    1.4593    0.0000 H   0  0  0  0  0  0  0  0  0  0  0  0
    5.2520    3.8519    0.0000 H   0  0  0  0  0  0  0  0  0  0  0  0
    4.8535    3.1616    0.0000 H   0  0  0  0  0  0  0  0  0  0  0  0
    6.7287    4.2442    0.0000 H   0  0  0  0  0  0  0  0  0  0  0  0
    5.9316    4.2442    0.0000 H   0  0  0  0  0  0  0  0  0  0  0  0
    5.7196    0.8769    0.0000 H   0  0  0  0  0  0  0  0  0  0  0  0
    6.1181    0.1867    0.0000 H   0  0  0  0  0  0  0  0  0  0  0  0
    5.1350    1.4593    0.0000 H   0  0  0  0  0  0  0  0  0  0  0  0
    7.8067    0.1616    0.0000 H   0  0  0  0  0  0  0  0  0  0  0  0
    7.4082    0.8519    0.0000 H   0  0  0  0  0  0  0  0  0  0  0  0
    8.4325    5.1442    0.0000 H   0  0  0  0  0  0  0  0  0  0  0  0
    7.8392    4.6119    0.0000 H   0  0  0  0  0  0  0  0  0  0  0  0
    2.8660    1.1493    0.0000 H   0  0  0  0  0  0  0  0  0  0  0  0
    4.2690    3.5793    0.0000 H   0  0  0  0  0  0  0  0  0  0  0  0
    9.5594    4.1241    0.0000 H   0  0  0  0  0  0  0  0  0  0  0  0
   10.0382    4.8586    0.0000 H   0  0  0  0  0  0  0  0  0  0  0  0
    9.3037    5.3374    0.0000 H   0  0  0  0  0  0  0  0  0  0  0  0
    3.1951    0.5793    0.0000 H   0  0  0  0  0  0  0  0  0  0  0  0
    5.7932   -0.9207    0.0000 H   0  0  0  0  0  0  0  0  0  0  0  0
    8.5991   -0.9207    0.0000 H   0  0  0  0  0  0  0  0  0  0  0  0
    1.4631    1.9593    0.0000 H   0  0  0  0  0  0  0  0  0  0  0  0
    2.8660    4.3893    0.0000 H   0  0  0  0  0  0  0  0  0  0  0  0
    9.3037    0.2011    0.0000 H   0  0  0  0  0  0  0  0  0  0  0  0
   10.0382    0.6799    0.0000 H   0  0  0  0  0  0  0  0  0  0  0  0
    9.5594    1.4145    0.0000 H   0  0  0  0  0  0  0  0  0  0  0  0
    1.4631    3.5793    0.0000 H   0  0  0  0  0  0  0  0  0  0  0  0
    3.1120   -0.7307    0.0000 H   0  0  0  0  0  0  0  0  0  0  0  0
    3.7320   -1.3507    0.0000 H   0  0  0  0  0  0  0  0  0  0  0  0
    4.3520   -0.7307    0.0000 H   0  0  0  0  0  0  0  0  0  0  0  0
    5.7932   -2.5407    0.0000 H   0  0  0  0  0  0  0  0  0  0  0  0
    8.5991   -2.5407    0.0000 H   0  0  0  0  0  0  0  0  0  0  0  0
  1 36  1  0  0  0  0
  2 36  1  0  0  0  0
  3 36  1  0  0  0  0
  4 17  1  0  0  0  0
  4 30  1  0  0  0  0
  5 20  2  0  0  0  0
  6 10  1  0  0  0  0
  6 12  1  0  0  0  0
  6 15  1  0  0  0  0
  7 11  1  0  0  0  0
  7 13  1  0  0  0  0
  7 16  1  0  0  0  0
  8 16  2  0  0  0  0
  8 17  1  0  0  0  0
  9 20  1  0  0  0  0
  9 32  1  0  0  0  0
  9 54  1  0  0  0  0
 10 11  1  0  0  0  0
 10 14  1  0  0  0  0
 10 37  1  0  0  0  0
 11 17  2  0  0  0  0
 12 13  1  0  0  0  0
 12 38  1  0  0  0  0
 12 39  1  0  0  0  0
 13 40  1  0  0  0  0
 13 41  1  0  0  0  0
 14 18  1  0  0  0  0
 14 42  1  0  0  0  0
 14 43  1  0  0  0  0
 15 19  1  0  0  0  0
 15 20  1  1  0  0  0
 15 44  1  0  0  0  0
 16 21  1  0  0  0  0
 18 22  1  0  0  0  0
 18 45  1  0  0  0  0
 18 46  1  0  0  0  0
 19 23  2  0  0  0  0
 19 24  1  0  0  0  0
 21 25  1  0  0  0  0
 21 47  1  0  0  0  0
 21 48  1  0  0  0  0
 22 26  2  0  0  0  0
 22 27  1  0  0  0  0
 23 28  1  0  0  0  0
 23 49  1  0  0  0  0
 24 29  2  0  0  0  0
 24 50  1  0  0  0  0
 25 51  1  0  0  0  0
 25 52  1  0  0  0  0
 25 53  1  0  0  0  0
 26 33  1  0  0  0  0
 26 55  1  0  0  0  0
 27 34  2  0  0  0  0
 27 56  1  0  0  0  0
 28 31  2  0  0  0  0
 28 57  1  0  0  0  0
 29 31  1  0  0  0  0
 29 58  1  0  0  0  0
 30 59  1  0  0  0  0
 30 60  1  0  0  0  0
 30 61  1  0  0  0  0
 31 62  1  0  0  0  0
 32 63  1  0  0  0  0
 32 64  1  0  0  0  0
 32 65  1  0  0  0  0
 33 35  2  0  0  0  0
 33 66  1  0  0  0  0
 34 35  1  0  0  0  0
 34 67  1  0  0  0  0
 35 36  1  0  0  0  0
M  END
> <PUBCHEM_COMPOUND_CID>
71580946

> <PUBCHEM_COMPOUND_CANONICALIZED>
1

> <PUBCHEM_CACTVS_COMPLEXITY>
710

> <PUBCHEM_CACTVS_HBOND_ACCEPTOR>
7

> <PUBCHEM_CACTVS_HBOND_DONOR>
1

> <PUBCHEM_CACTVS_ROTATABLE_BOND>
8

> <PUBCHEM_CACTVS_SUBSKEYS>
AAADceB7sYAAAAAAAAAAAAAAAAAAAWAAAAA8YIAAAAAAAFgB0AAAHwAQAAAADCjBnxYzlJfMFACoAydydASCiC0hcKAJ2IG9VIiOaDLE3TOVIChukgLYyCeYyOCOQAAAAAAAAACAAAAAAAAAAAAAAAAAAA==

> <PUBCHEM_IUPAC_OPENEYE_NAME>
(2R)-2-[3-ethyl-1-methoxy-8-[2-[4-(trifluoromethyl)phenyl]ethyl]-6,8-dihydro-5H-imidazo[1,5-a]pyrazin-7-yl]-N-methyl-2-phenyl-acetamide

> <PUBCHEM_IUPAC_CAS_NAME>
(2R)-2-[3-ethyl-1-methoxy-8-[2-[4-(trifluoromethyl)phenyl]ethyl]-6,8-dihydro-5H-imidazo[1,5-a]pyrazin-7-yl]-N-methyl-2-phenylacetamide

> <PUBCHEM_IUPAC_NAME_MARKUP>
(2<I>R</I>)-2-[3-ethyl-1-methoxy-8-[2-[4-(trifluoromethyl)phenyl]ethyl]-6,8-dihydro-5<I>H</I>-imidazo[1,5-a]pyrazin-7-yl]-<I>N</I>-methyl-2-phenylacetamide

> <PUBCHEM_IUPAC_NAME>
(2R)-2-[3-ethyl-1-methoxy-8-[2-[4-(trifluoromethyl)phenyl]ethyl]-6,8-dihydro-5H-imidazo[1,5-a]pyrazin-7-yl]-N-methyl-2-phenylacetamide

> <PUBCHEM_IUPAC_SYSTEMATIC_NAME>
(2R)-2-[3-ethyl-1-methoxy-8-[2-[4-(trifluoromethyl)phenyl]ethyl]-6,8-dihydro-5H-imidazo[1,5-a]pyrazin-7-yl]-N-methyl-2-phenyl-ethanamide

> <PUBCHEM_IUPAC_TRADITIONAL_NAME>
(2R)-2-[3-ethyl-1-methoxy-8-[2-[4-(trifluoromethyl)phenyl]ethyl]-6,8-dihydro-5H-imidazo[1,5-a]pyrazin-7-yl]-N-methyl-2-phenyl-acetamide

> <PUBCHEM_IUPAC_INCHI>
InChI=1S/C27H31F3N4O2/c1-4-22-32-26(36-3)24-21(15-12-18-10-13-20(14-11-18)27(28,29)30)33(16-17-34(22)24)23(25(35)31-2)19-8-6-5-7-9-19/h5-11,13-14,21,23H,4,12,15-17H2,1-3H3,(H,31,35)/t21?,23-/m1/s1

> <PUBCHEM_IUPAC_INCHIKEY>
HEQUKHJTKBCMII-JFGZAKSSSA-N

> <PUBCHEM_XLOGP3_AA>
5

> <PUBCHEM_EXACT_MASS>
500.23991073

> <PUBCHEM_MOLECULAR_FORMULA>
C27H31F3N4O2

> <PUBCHEM_MOLECULAR_WEIGHT>
500.6

> <PUBCHEM_OPENEYE_CAN_SMILES>
CCC1=NC(=C2N1CCN(C2CCC3=CC=C(C=C3)C(F)(F)F)C(C4=CC=CC=C4)C(=O)NC)OC

> <PUBCHEM_OPENEYE_ISO_SMILES>
CCC1=NC(=C2N1CCN(C2CCC3=CC=C(C=C3)C(F)(F)F)[C@H](C4=CC=CC=C4)C(=O)NC)OC

> <PUBCHEM_CACTVS_TPSA>
59.4

> <PUBCHEM_MONOISOTOPIC_WEIGHT>
500.23991073

> <PUBCHEM_TOTAL_CHARGE>
0

> <PUBCHEM_HEAVY_ATOM_COUNT>
36

> <PUBCHEM_ATOM_DEF_STEREO_COUNT>
1

> <PUBCHEM_ATOM_UDEF_STEREO_COUNT>
1

> <PUBCHEM_BOND_DEF_STEREO_COUNT>
0

> <PUBCHEM_BOND_UDEF_STEREO_COUNT>
0

> <PUBCHEM_ISOTOPIC_ATOM_COUNT>
0

> <PUBCHEM_COMPONENT_COUNT>
1

> <PUBCHEM_CACTVS_TAUTO_COUNT>
-1

> <PUBCHEM_COORDINATE_TYPE>
1
5
255

> <PUBCHEM_BONDANNOTATIONS>
10  14  3
11  17  8
15  20  5
19  23  8
19  24  8
22  26  8
22  27  8
23  28  8
24  29  8
26  33  8
27  34  8
28  31  8
29  31  8
33  35  8
34  35  8
7  11  8
7  16  8
8  16  8
8  17  8

$$$$
