45273510
  -OEChem-09292322282D

 41 43  0     1  0  0  0  0  0999 V2000
    2.0000   -3.9476    0.0000 Cl  0  0  0  0  0  0  0  0  0  0  0  0
    3.3518    3.6385    0.0000 O   0  0  0  0  0  0  0  0  0  0  0  0
    5.4921   -0.6688    0.0000 O   0  0  0  0  0  0  0  0  0  0  0  0
    4.8198    1.4003    0.0000 N   0  0  3  0  0  0  0  0  0  0  0  0
    4.2320    0.5913    0.0000 N   0  0  0  0  0  0  0  0  0  0  0  0
    3.7320   -0.9475    0.0000 N   0  0  0  0  0  0  0  0  0  0  0  0
    4.5108    2.3514    0.0000 C   0  0  1  0  0  0  0  0  0  0  0  0
    5.3198    2.9392    0.0000 C   0  0  0  0  0  0  0  0  0  0  0  0
    5.8198    1.4003    0.0000 C   0  0  0  0  0  0  0  0  0  0  0  0
    6.1288    2.3514    0.0000 C   0  0  0  0  0  0  0  0  0  0  0  0
    3.2320    0.5913    0.0000 C   0  0  0  0  0  0  0  0  0  0  0  0
    3.5598    2.6604    0.0000 C   0  0  0  0  0  0  0  0  0  0  0  0
    2.9230   -0.3598    0.0000 C   0  0  0  0  0  0  0  0  0  0  0  0
    4.5411   -0.3598    0.0000 C   0  0  0  0  0  0  0  0  0  0  0  0
    3.7320   -1.9476    0.0000 C   0  0  0  0  0  0  0  0  0  0  0  0
    2.8660   -2.4476    0.0000 C   0  0  0  0  0  0  0  0  0  0  0  0
    4.5981   -2.4476    0.0000 C   0  0  0  0  0  0  0  0  0  0  0  0
    2.4008    3.9476    0.0000 C   0  0  0  0  0  0  0  0  0  0  0  0
    2.8660   -3.4476    0.0000 C   0  0  0  0  0  0  0  0  0  0  0  0
    4.5981   -3.4476    0.0000 C   0  0  0  0  0  0  0  0  0  0  0  0
    3.7320   -3.9476    0.0000 C   0  0  0  0  0  0  0  0  0  0  0  0
    4.0724    1.9130    0.0000 H   0  0  0  0  0  0  0  0  0  0  0  0
    5.7347    3.3999    0.0000 H   0  0  0  0  0  0  0  0  0  0  0  0
    4.9050    3.3999    0.0000 H   0  0  0  0  0  0  0  0  0  0  0  0
    5.7550    0.7837    0.0000 H   0  0  0  0  0  0  0  0  0  0  0  0
    6.4263    1.2714    0.0000 H   0  0  0  0  0  0  0  0  0  0  0  0
    6.6952    2.0992    0.0000 H   0  0  0  0  0  0  0  0  0  0  0  0
    6.4389    2.8883    0.0000 H   0  0  0  0  0  0  0  0  0  0  0  0
    3.2969    1.2079    0.0000 H   0  0  0  0  0  0  0  0  0  0  0  0
    2.6256    0.7202    0.0000 H   0  0  0  0  0  0  0  0  0  0  0  0
    2.9401    2.6388    0.0000 H   0  0  0  0  0  0  0  0  0  0  0  0
    3.4735    2.0464    0.0000 H   0  0  0  0  0  0  0  0  0  0  0  0
    2.3566   -0.1076    0.0000 H   0  0  0  0  0  0  0  0  0  0  0  0
    2.6130   -0.8967    0.0000 H   0  0  0  0  0  0  0  0  0  0  0  0
    2.3291   -2.1376    0.0000 H   0  0  0  0  0  0  0  0  0  0  0  0
    5.1350   -2.1376    0.0000 H   0  0  0  0  0  0  0  0  0  0  0  0
    2.5924    4.5372    0.0000 H   0  0  0  0  0  0  0  0  0  0  0  0
    1.8111    4.1391    0.0000 H   0  0  0  0  0  0  0  0  0  0  0  0
    2.2092    3.3579    0.0000 H   0  0  0  0  0  0  0  0  0  0  0  0
    5.1350   -3.7576    0.0000 H   0  0  0  0  0  0  0  0  0  0  0  0
    3.7320   -4.5676    0.0000 H   0  0  0  0  0  0  0  0  0  0  0  0
  1 19  1  0  0  0  0
  2 12  1  0  0  0  0
  2 18  1  0  0  0  0
  3 14  2  0  0  0  0
  4  5  1  0  0  0  0
  4  7  1  0  0  0  0
  4  9  1  0  0  0  0
  5 11  1  0  0  0  0
  5 14  1  0  0  0  0
  6 13  1  0  0  0  0
  6 14  1  0  0  0  0
  6 15  1  0  0  0  0
  7  8  1  0  0  0  0
  7 12  1  6  0  0  0
  7 22  1  0  0  0  0
  8 10  1  0  0  0  0
  8 23  1  0  0  0  0
  8 24  1  0  0  0  0
  9 10  1  0  0  0  0
  9 25  1  0  0  0  0
  9 26  1  0  0  0  0
 10 27  1  0  0  0  0
 10 28  1  0  0  0  0
 11 13  1  0  0  0  0
 11 29  1  0  0  0  0
 11 30  1  0  0  0  0
 12 31  1  0  0  0  0
 12 32  1  0  0  0  0
 13 33  1  0  0  0  0
 13 34  1  0  0  0  0
 15 16  2  0  0  0  0
 15 17  1  0  0  0  0
 16 19  1  0  0  0  0
 16 35  1  0  0  0  0
 17 20  2  0  0  0  0
 17 36  1  0  0  0  0
 18 37  1  0  0  0  0
 18 38  1  0  0  0  0
 18 39  1  0  0  0  0
 19 21  2  0  0  0  0
 20 21  1  0  0  0  0
 20 40  1  0  0  0  0
 21 41  1  0  0  0  0
M  END
> <PUBCHEM_COMPOUND_CID>
45273510

> <PUBCHEM_COMPOUND_CANONICALIZED>
1

> <PUBCHEM_CACTVS_COMPLEXITY>
382

> <PUBCHEM_CACTVS_HBOND_ACCEPTOR>
3

> <PUBCHEM_CACTVS_HBOND_DONOR>
0

> <PUBCHEM_CACTVS_ROTATABLE_BOND>
4

> <PUBCHEM_CACTVS_SUBSKEYS>
AAADceBzMAAEAAAAAAAAAAAAAAAAAWLAAAAwAAAAAAAAAAABAAAAHgIIAAAACCrhkCYzwIMABACIACRCUACCAAAhBwAeiAAIZoiKYCLBk5GVIAhshgLYyCeQEAAAAAAAAAIAAAAAAAAABAAAAAAAAAAAAA==

> <PUBCHEM_IUPAC_OPENEYE_NAME>
1-(3-chlorophenyl)-3-[(2S)-2-(methoxymethyl)pyrrolidin-1-yl]imidazolidin-2-one

> <PUBCHEM_IUPAC_CAS_NAME>
1-(3-chlorophenyl)-3-[(2S)-2-(methoxymethyl)-1-pyrrolidinyl]-2-imidazolidinone

> <PUBCHEM_IUPAC_NAME_MARKUP>
1-(3-chlorophenyl)-3-[(2<I>S</I>)-2-(methoxymethyl)pyrrolidin-1-yl]imidazolidin-2-one

> <PUBCHEM_IUPAC_NAME>
1-(3-chlorophenyl)-3-[(2S)-2-(methoxymethyl)pyrrolidin-1-yl]imidazolidin-2-one

> <PUBCHEM_IUPAC_SYSTEMATIC_NAME>
1-(3-chlorophenyl)-3-[(2S)-2-(methoxymethyl)pyrrolidin-1-yl]imidazolidin-2-one

> <PUBCHEM_IUPAC_TRADITIONAL_NAME>
1-(3-chlorophenyl)-3-[(2S)-2-(methoxymethyl)pyrrolidino]-2-imidazolidinone

> <PUBCHEM_IUPAC_INCHI>
InChI=1S/C15H20ClN3O2/c1-21-11-14-6-3-7-18(14)19-9-8-17(15(19)20)13-5-2-4-12(16)10-13/h2,4-5,10,14H,3,6-9,11H2,1H3/t14-/m0/s1

> <PUBCHEM_IUPAC_INCHIKEY>
AQPYEVVJFZDJNJ-AWEZNQCLSA-N

> <PUBCHEM_XLOGP3_AA>
2.3

> <PUBCHEM_EXACT_MASS>
309.1244046

> <PUBCHEM_MOLECULAR_FORMULA>
C15H20ClN3O2

> <PUBCHEM_MOLECULAR_WEIGHT>
309.79

> <PUBCHEM_OPENEYE_CAN_SMILES>
COCC1CCCN1N2CCN(C2=O)C3=CC(=CC=C3)Cl

> <PUBCHEM_OPENEYE_ISO_SMILES>
COC[C@@H]1CCCN1N2CCN(C2=O)C3=CC(=CC=C3)Cl

> <PUBCHEM_CACTVS_TPSA>
36

> <PUBCHEM_MONOISOTOPIC_WEIGHT>
309.1244046

> <PUBCHEM_TOTAL_CHARGE>
0

> <PUBCHEM_HEAVY_ATOM_COUNT>
21

> <PUBCHEM_ATOM_DEF_STEREO_COUNT>
1

> <PUBCHEM_ATOM_UDEF_STEREO_COUNT>
0

> <PUBCHEM_BOND_DEF_STEREO_COUNT>
0

> <PUBCHEM_BOND_UDEF_STEREO_COUNT>
0

> <PUBCHEM_ISOTOPIC_ATOM_COUNT>
0

> <PUBCHEM_COMPONENT_COUNT>
1

> <PUBCHEM_CACTVS_TAUTO_COUNT>
-1

> <PUBCHEM_COORDINATE_TYPE>
1
5
255

> <PUBCHEM_BONDANNOTATIONS>
15  16  8
15  17  8
16  19  8
17  20  8
19  21  8
20  21  8
7  12  6

$$$$
