53524618
  -OEChem-09292322462D

 48 50  0     0  0  0  0  0  0999 V2000
    6.7619    2.0981    0.0000 O   0  0  0  0  0  0  0  0  0  0  0  0
   10.7619   -1.3660    0.0000 N   0  0  0  0  0  0  0  0  0  0  0  0
   12.7619   -1.3660    0.0000 N   0  0  0  0  0  0  0  0  0  0  0  0
    6.7619    0.3660    0.0000 N   0  0  0  0  0  0  0  0  0  0  0  0
    3.7320    1.7320    0.0000 N   0  0  0  0  0  0  0  0  0  0  0  0
    4.6783    0.4273    0.0000 N   0  0  0  0  0  0  0  0  0  0  0  0
   11.2619   -0.5000    0.0000 C   0  0  0  0  0  0  0  0  0  0  0  0
   11.2619   -2.2320    0.0000 C   0  0  0  0  0  0  0  0  0  0  0  0
   12.2619   -0.5000    0.0000 C   0  0  0  0  0  0  0  0  0  0  0  0
   12.2619   -2.2320    0.0000 C   0  0  0  0  0  0  0  0  0  0  0  0
    9.7619   -1.3660    0.0000 C   0  0  0  0  0  0  0  0  0  0  0  0
    9.2619   -0.5000    0.0000 C   0  0  0  0  0  0  0  0  0  0  0  0
    8.2619   -0.5000    0.0000 C   0  0  0  0  0  0  0  0  0  0  0  0
   13.7619   -1.3660    0.0000 C   0  0  0  0  0  0  0  0  0  0  0  0
    7.7619    0.3660    0.0000 C   0  0  0  0  0  0  0  0  0  0  0  0
    6.2619    1.2320    0.0000 C   0  0  0  0  0  0  0  0  0  0  0  0
    5.2619    1.2320    0.0000 C   0  0  0  0  0  0  0  0  0  0  0  0
    4.6783    2.0368    0.0000 C   0  0  0  0  0  0  0  0  0  0  0  0
    3.7320    0.7321    0.0000 C   0  0  0  0  0  0  0  0  0  0  0  0
    2.8660    2.2320    0.0000 C   0  0  0  0  0  0  0  0  0  0  0  0
    2.8660    0.2321    0.0000 C   0  0  0  0  0  0  0  0  0  0  0  0
    2.0000    1.7320    0.0000 C   0  0  0  0  0  0  0  0  0  0  0  0
    2.0000    0.7321    0.0000 C   0  0  0  0  0  0  0  0  0  0  0  0
   11.3695    0.1106    0.0000 H   0  0  0  0  0  0  0  0  0  0  0  0
   10.6793   -0.2879    0.0000 H   0  0  0  0  0  0  0  0  0  0  0  0
   10.6793   -2.4441    0.0000 H   0  0  0  0  0  0  0  0  0  0  0  0
   11.3695   -2.8426    0.0000 H   0  0  0  0  0  0  0  0  0  0  0  0
   12.8445   -0.2879    0.0000 H   0  0  0  0  0  0  0  0  0  0  0  0
   12.1542    0.1106    0.0000 H   0  0  0  0  0  0  0  0  0  0  0  0
   12.1542   -2.8426    0.0000 H   0  0  0  0  0  0  0  0  0  0  0  0
   12.8445   -2.4441    0.0000 H   0  0  0  0  0  0  0  0  0  0  0  0
    9.1793   -1.5781    0.0000 H   0  0  0  0  0  0  0  0  0  0  0  0
    9.8695   -1.9766    0.0000 H   0  0  0  0  0  0  0  0  0  0  0  0
    9.8445   -0.2879    0.0000 H   0  0  0  0  0  0  0  0  0  0  0  0
    9.1542    0.1106    0.0000 H   0  0  0  0  0  0  0  0  0  0  0  0
    7.6793   -0.7121    0.0000 H   0  0  0  0  0  0  0  0  0  0  0  0
    8.3695   -1.1106    0.0000 H   0  0  0  0  0  0  0  0  0  0  0  0
   13.7619   -1.9860    0.0000 H   0  0  0  0  0  0  0  0  0  0  0  0
   14.3819   -1.3660    0.0000 H   0  0  0  0  0  0  0  0  0  0  0  0
   13.7619   -0.7460    0.0000 H   0  0  0  0  0  0  0  0  0  0  0  0
    8.3445    0.5781    0.0000 H   0  0  0  0  0  0  0  0  0  0  0  0
    7.6542    0.9766    0.0000 H   0  0  0  0  0  0  0  0  0  0  0  0
    6.4519   -0.1709    0.0000 H   0  0  0  0  0  0  0  0  0  0  0  0
    4.8709    2.6261    0.0000 H   0  0  0  0  0  0  0  0  0  0  0  0
    2.8660    2.8521    0.0000 H   0  0  0  0  0  0  0  0  0  0  0  0
    2.8660   -0.3879    0.0000 H   0  0  0  0  0  0  0  0  0  0  0  0
    1.4631    2.0420    0.0000 H   0  0  0  0  0  0  0  0  0  0  0  0
    1.4631    0.4221    0.0000 H   0  0  0  0  0  0  0  0  0  0  0  0
  1 16  2  0  0  0  0
  2  7  1  0  0  0  0
  2  8  1  0  0  0  0
  2 11  1  0  0  0  0
  3  9  1  0  0  0  0
  3 10  1  0  0  0  0
  3 14  1  0  0  0  0
  4 15  1  0  0  0  0
  4 16  1  0  0  0  0
  4 43  1  0  0  0  0
  5 18  1  0  0  0  0
  5 19  1  0  0  0  0
  5 20  1  0  0  0  0
  6 17  1  0  0  0  0
  6 19  2  0  0  0  0
  7  9  1  0  0  0  0
  7 24  1  0  0  0  0
  7 25  1  0  0  0  0
  8 10  1  0  0  0  0
  8 26  1  0  0  0  0
  8 27  1  0  0  0  0
  9 28  1  0  0  0  0
  9 29  1  0  0  0  0
 10 30  1  0  0  0  0
 10 31  1  0  0  0  0
 11 12  1  0  0  0  0
 11 32  1  0  0  0  0
 11 33  1  0  0  0  0
 12 13  1  0  0  0  0
 12 34  1  0  0  0  0
 12 35  1  0  0  0  0
 13 15  1  0  0  0  0
 13 36  1  0  0  0  0
 13 37  1  0  0  0  0
 14 38  1  0  0  0  0
 14 39  1  0  0  0  0
 14 40  1  0  0  0  0
 15 41  1  0  0  0  0
 15 42  1  0  0  0  0
 16 17  1  0  0  0  0
 17 18  2  0  0  0  0
 18 44  1  0  0  0  0
 19 21  1  0  0  0  0
 20 22  2  0  0  0  0
 20 45  1  0  0  0  0
 21 23  2  0  0  0  0
 21 46  1  0  0  0  0
 22 23  1  0  0  0  0
 22 47  1  0  0  0  0
 23 48  1  0  0  0  0
M  END
> <PUBCHEM_COMPOUND_CID>
53524618

> <PUBCHEM_COMPOUND_CANONICALIZED>
1

> <PUBCHEM_CACTVS_COMPLEXITY>
383

> <PUBCHEM_CACTVS_HBOND_ACCEPTOR>
4

> <PUBCHEM_CACTVS_HBOND_DONOR>
1

> <PUBCHEM_CACTVS_ROTATABLE_BOND>
6

> <PUBCHEM_CACTVS_SUBSKEYS>
AAADceB7oAAAAAAAAAAAAAAAAAAAAWAAAAAsWAAAAAAAAFgB4AAAHgAQAAAACAjBlwQ/sJ/MGACoATd3dACCgC03EqAJ2KG4dNiIaOrA2bGUIIholgLIyOYQAAAAAAAAAAAAAAAAAAAAAAAAAAAAAAAAAA==

> <PUBCHEM_IUPAC_OPENEYE_NAME>
N-[4-(4-methylpiperazin-1-yl)butyl]imidazo[1,2-a]pyridine-2-carboxamide

> <PUBCHEM_IUPAC_CAS_NAME>
N-[4-(4-methyl-1-piperazinyl)butyl]-2-imidazo[1,2-a]pyridinecarboxamide

> <PUBCHEM_IUPAC_NAME_MARKUP>
<I>N</I>-[4-(4-methylpiperazin-1-yl)butyl]imidazo[1,2-a]pyridine-2-carboxamide

> <PUBCHEM_IUPAC_NAME>
N-[4-(4-methylpiperazin-1-yl)butyl]imidazo[1,2-a]pyridine-2-carboxamide

> <PUBCHEM_IUPAC_SYSTEMATIC_NAME>
N-[4-(4-methylpiperazin-1-yl)butyl]imidazo[1,2-a]pyridine-2-carboxamide

> <PUBCHEM_IUPAC_TRADITIONAL_NAME>
N-[4-(4-methylpiperazino)butyl]imidazo[1,2-a]pyridine-2-carboxamide

> <PUBCHEM_IUPAC_INCHI>
InChI=1S/C17H25N5O/c1-20-10-12-21(13-11-20)8-5-3-7-18-17(23)15-14-22-9-4-2-6-16(22)19-15/h2,4,6,9,14H,3,5,7-8,10-13H2,1H3,(H,18,23)

> <PUBCHEM_IUPAC_INCHIKEY>
CUYPAJMAKROKHW-UHFFFAOYSA-N

> <PUBCHEM_XLOGP3_AA>
1.9

> <PUBCHEM_EXACT_MASS>
315.20591044

> <PUBCHEM_MOLECULAR_FORMULA>
C17H25N5O

> <PUBCHEM_MOLECULAR_WEIGHT>
315.4

> <PUBCHEM_OPENEYE_CAN_SMILES>
CN1CCN(CC1)CCCCNC(=O)C2=CN3C=CC=CC3=N2

> <PUBCHEM_OPENEYE_ISO_SMILES>
CN1CCN(CC1)CCCCNC(=O)C2=CN3C=CC=CC3=N2

> <PUBCHEM_CACTVS_TPSA>
52.9

> <PUBCHEM_MONOISOTOPIC_WEIGHT>
315.20591044

> <PUBCHEM_TOTAL_CHARGE>
0

> <PUBCHEM_HEAVY_ATOM_COUNT>
23

> <PUBCHEM_ATOM_DEF_STEREO_COUNT>
0

> <PUBCHEM_ATOM_UDEF_STEREO_COUNT>
0

> <PUBCHEM_BOND_DEF_STEREO_COUNT>
0

> <PUBCHEM_BOND_UDEF_STEREO_COUNT>
0

> <PUBCHEM_ISOTOPIC_ATOM_COUNT>
0

> <PUBCHEM_COMPONENT_COUNT>
1

> <PUBCHEM_CACTVS_TAUTO_COUNT>
-1

> <PUBCHEM_COORDINATE_TYPE>
1
5
255

> <PUBCHEM_BONDANNOTATIONS>
17  18  8
19  21  8
20  22  8
21  23  8
22  23  8
5  18  8
5  19  8
5  20  8
6  17  8
6  19  8

$$$$
