24805284
  -OEChem-09292322232D

 44 47  0     1  0  0  0  0  0999 V2000
    5.5981   -1.0230    0.0000 O   0  0  0  0  0  0  0  0  0  0  0  0
    7.2663    2.0360    0.0000 O   0  0  0  0  0  0  0  0  0  0  0  0
    3.7398   -2.1151    0.0000 N   0  0  3  0  0  0  0  0  0  0  0  0
    6.4142    3.5876    0.0000 N   0  0  0  0  0  0  0  0  0  0  0  0
    3.7481   -1.0301    0.0000 C   0  0  1  0  0  0  0  0  0  0  0  0
    4.6461   -0.5024    0.0000 C   0  0  1  0  0  0  0  0  0  0  0  0
    2.8460   -0.5093    0.0000 C   0  0  0  0  0  0  0  0  0  0  0  0
    4.6301    0.5391    0.0000 C   0  0  0  0  0  0  0  0  0  0  0  0
    2.8541    0.5323    0.0000 C   0  0  0  0  0  0  0  0  0  0  0  0
    4.6794   -2.6576    0.0000 C   0  0  0  0  0  0  0  0  0  0  0  0
    3.7641    1.0391    0.0000 C   0  0  0  0  0  0  0  0  0  0  0  0
    5.6148   -2.1079    0.0000 C   0  0  0  0  0  0  0  0  0  0  0  0
    2.8718   -2.6117    0.0000 C   0  0  0  0  0  0  0  0  0  0  0  0
    5.4961    1.0391    0.0000 C   0  0  0  0  0  0  0  0  0  0  0  0
    3.7641    2.0391    0.0000 C   0  0  0  0  0  0  0  0  0  0  0  0
    2.8680   -3.6117    0.0000 C   0  0  0  0  0  0  0  0  0  0  0  0
    5.4961    2.0391    0.0000 C   0  0  0  0  0  0  0  0  0  0  0  0
    4.6301    2.5391    0.0000 C   0  0  0  0  0  0  0  0  0  0  0  0
    2.0000   -4.1084    0.0000 C   0  0  0  0  0  0  0  0  0  0  0  0
    6.4061    2.5460    0.0000 C   0  0  0  0  0  0  0  0  0  0  0  0
    4.6140    3.5806    0.0000 C   0  0  0  0  0  0  0  0  0  0  0  0
    5.5121    4.1084    0.0000 C   0  0  0  0  0  0  0  0  0  0  0  0
    3.0104   -1.4523    0.0000 H   0  0  0  0  0  0  0  0  0  0  0  0
    5.3739   -0.0633    0.0000 H   0  0  0  0  0  0  0  0  0  0  0  0
    2.2360   -0.3985    0.0000 H   0  0  0  0  0  0  0  0  0  0  0  0
    2.6325   -1.0914    0.0000 H   0  0  0  0  0  0  0  0  0  0  0  0
    2.6495    1.1176    0.0000 H   0  0  0  0  0  0  0  0  0  0  0  0
    2.2424    0.4309    0.0000 H   0  0  0  0  0  0  0  0  0  0  0  0
    4.2821   -3.1336    0.0000 H   0  0  0  0  0  0  0  0  0  0  0  0
    5.0803   -3.1305    0.0000 H   0  0  0  0  0  0  0  0  0  0  0  0
    5.8328   -2.6883    0.0000 H   0  0  0  0  0  0  0  0  0  0  0  0
    6.2240   -1.9924    0.0000 H   0  0  0  0  0  0  0  0  0  0  0  0
    2.6620   -2.0283    0.0000 H   0  0  0  0  0  0  0  0  0  0  0  0
    2.2608   -2.7170    0.0000 H   0  0  0  0  0  0  0  0  0  0  0  0
    6.0330    0.7291    0.0000 H   0  0  0  0  0  0  0  0  0  0  0  0
    3.2271    2.3491    0.0000 H   0  0  0  0  0  0  0  0  0  0  0  0
    3.0778   -4.1952    0.0000 H   0  0  0  0  0  0  0  0  0  0  0  0
    3.4789   -3.5064    0.0000 H   0  0  0  0  0  0  0  0  0  0  0  0
    1.6921   -3.5703    0.0000 H   0  0  0  0  0  0  0  0  0  0  0  0
    1.4619   -4.4163    0.0000 H   0  0  0  0  0  0  0  0  0  0  0  0
    2.3079   -4.6465    0.0000 H   0  0  0  0  0  0  0  0  0  0  0  0
    4.0735    3.8844    0.0000 H   0  0  0  0  0  0  0  0  0  0  0  0
    6.9523    3.8955    0.0000 H   0  0  0  0  0  0  0  0  0  0  0  0
    5.5097    4.7284    0.0000 H   0  0  0  0  0  0  0  0  0  0  0  0
  1  6  1  0  0  0  0
  1 12  1  0  0  0  0
  2 20  2  0  0  0  0
  3  5  1  0  0  0  0
  3 10  1  0  0  0  0
  3 13  1  0  0  0  0
  4 20  1  0  0  0  0
  4 22  1  0  0  0  0
  4 43  1  0  0  0  0
  5  6  1  0  0  0  0
  5  7  1  0  0  0  0
  5 23  1  1  0  0  0
  6  8  1  0  0  0  0
  6 24  1  6  0  0  0
  7  9  1  0  0  0  0
  7 25  1  0  0  0  0
  7 26  1  0  0  0  0
  8 11  2  0  0  0  0
  8 14  1  0  0  0  0
  9 11  1  0  0  0  0
  9 27  1  0  0  0  0
  9 28  1  0  0  0  0
 10 12  1  0  0  0  0
 10 29  1  0  0  0  0
 10 30  1  0  0  0  0
 11 15  1  0  0  0  0
 12 31  1  0  0  0  0
 12 32  1  0  0  0  0
 13 16  1  0  0  0  0
 13 33  1  0  0  0  0
 13 34  1  0  0  0  0
 14 17  2  0  0  0  0
 14 35  1  0  0  0  0
 15 18  2  0  0  0  0
 15 36  1  0  0  0  0
 16 19  1  0  0  0  0
 16 37  1  0  0  0  0
 16 38  1  0  0  0  0
 17 18  1  0  0  0  0
 17 20  1  0  0  0  0
 18 21  1  0  0  0  0
 19 39  1  0  0  0  0
 19 40  1  0  0  0  0
 19 41  1  0  0  0  0
 21 22  2  0  0  0  0
 21 42  1  0  0  0  0
 22 44  1  0  0  0  0
M  END
> <PUBCHEM_COMPOUND_CID>
24805284

> <PUBCHEM_COMPOUND_CANONICALIZED>
1

> <PUBCHEM_CACTVS_COMPLEXITY>
464

> <PUBCHEM_CACTVS_HBOND_ACCEPTOR>
3

> <PUBCHEM_CACTVS_HBOND_DONOR>
1

> <PUBCHEM_CACTVS_ROTATABLE_BOND>
2

> <PUBCHEM_CACTVS_SUBSKEYS>
AAADceB7MAAAAAAAAAAAAAAAAAAAAAAAAAA8YIEAAAAAAADxAAAAHgAQAAAADDzhmAYyAIPABACIAiFWUACCAAAkAgAIiIEIDMgKJjKAtRmHMQhkwgGYqYeY3PLOwAACAAAQAACQAAaAADAgAAAAAAAAAA==

> <PUBCHEM_IUPAC_OPENEYE_NAME>
(4aR,12bR)-4-propyl-3,4a,5,6,10,12b-hexahydro-2H-isoquinolino[6,7-h][1,4]benzoxazin-11-one

> <PUBCHEM_IUPAC_CAS_NAME>
(4aR,12bR)-4-propyl-3,4a,5,6,10,12b-hexahydro-2H-isoquinolino[6,7-h][1,4]benzoxazin-11-one

> <PUBCHEM_IUPAC_NAME_MARKUP>
(4<I>a</I><I>R</I>,12<I>b</I><I>R</I>)-4-propyl-3,4<I>a</I>,5,6,10,12<I>b</I>-hexahydro-2<I>H</I>-isoquinolino[6,7-h][1,4]benzoxazin-11-one

> <PUBCHEM_IUPAC_NAME>
(4aR,12bR)-4-propyl-3,4a,5,6,10,12b-hexahydro-2H-isoquinolino[6,7-h][1,4]benzoxazin-11-one

> <PUBCHEM_IUPAC_SYSTEMATIC_NAME>
(4aR,12bR)-4-propyl-3,4a,5,6,10,12b-hexahydro-2H-isoquinolino[6,7-h][1,4]benzoxazin-11-one

> <PUBCHEM_IUPAC_TRADITIONAL_NAME>
(4aR,12bR)-4-propyl-3,4a,5,6,10,12b-hexahydro-2H-isoquinolino[6,7-h][1,4]benzoxazin-11-one

> <PUBCHEM_IUPAC_INCHI>
InChI=1S/C18H22N2O2/c1-2-7-20-8-9-22-17-14-11-15-13(5-6-19-18(15)21)10-12(14)3-4-16(17)20/h5-6,10-11,16-17H,2-4,7-9H2,1H3,(H,19,21)/t16-,17-/m1/s1

> <PUBCHEM_IUPAC_INCHIKEY>
BHWFWVGETJBMKF-IAGOWNOFSA-N

> <PUBCHEM_XLOGP3>
2.2

> <PUBCHEM_EXACT_MASS>
298.168127949

> <PUBCHEM_MOLECULAR_FORMULA>
C18H22N2O2

> <PUBCHEM_MOLECULAR_WEIGHT>
298.4

> <PUBCHEM_OPENEYE_CAN_SMILES>
CCCN1CCOC2C1CCC3=C2C=C4C(=C3)C=CNC4=O

> <PUBCHEM_OPENEYE_ISO_SMILES>
CCCN1CCO[C@H]2[C@H]1CCC3=C2C=C4C(=C3)C=CNC4=O

> <PUBCHEM_CACTVS_TPSA>
41.6

> <PUBCHEM_MONOISOTOPIC_WEIGHT>
298.168127949

> <PUBCHEM_TOTAL_CHARGE>
0

> <PUBCHEM_HEAVY_ATOM_COUNT>
22

> <PUBCHEM_ATOM_DEF_STEREO_COUNT>
2

> <PUBCHEM_ATOM_UDEF_STEREO_COUNT>
0

> <PUBCHEM_BOND_DEF_STEREO_COUNT>
0

> <PUBCHEM_BOND_UDEF_STEREO_COUNT>
0

> <PUBCHEM_ISOTOPIC_ATOM_COUNT>
0

> <PUBCHEM_COMPONENT_COUNT>
1

> <PUBCHEM_CACTVS_TAUTO_COUNT>
-1

> <PUBCHEM_COORDINATE_TYPE>
1
5
255

> <PUBCHEM_BONDANNOTATIONS>
11  15  8
14  17  8
15  18  8
17  18  8
17  20  8
18  21  8
21  22  8
4  20  8
4  22  8
5  23  5
6  24  6
8  11  8
8  14  8

$$$$
