155567775
  -OEChem-09292322402D

 62 65  0     0  0  0  0  0  0999 V2000
    2.0000   -5.4852    0.0000 S   0  0  0  0  0  0  0  0  0  0  0  0
   13.1090    6.3512    0.0000 F   0  0  0  0  0  0  0  0  0  0  0  0
   14.1090    5.3512    0.0000 F   0  0  0  0  0  0  0  0  0  0  0  0
   12.1090    5.3512    0.0000 F   0  0  0  0  0  0  0  0  0  0  0  0
    7.9128   -3.6488    0.0000 O   0  0  0  0  0  0  0  0  0  0  0  0
    9.6448    1.3512    0.0000 N   0  0  0  0  0  0  0  0  0  0  0  0
   11.3769    2.3512    0.0000 N   0  0  0  0  0  0  0  0  0  0  0  0
    7.0468   -2.1488    0.0000 N   0  0  0  0  0  0  0  0  0  0  0  0
   10.5109    0.8512    0.0000 C   0  0  0  0  0  0  0  0  0  0  0  0
    9.6448    2.3512    0.0000 C   0  0  0  0  0  0  0  0  0  0  0  0
   11.3769    1.3512    0.0000 C   0  0  0  0  0  0  0  0  0  0  0  0
   10.5109    2.8512    0.0000 C   0  0  0  0  0  0  0  0  0  0  0  0
    8.7788    0.8512    0.0000 C   0  0  0  0  0  0  0  0  0  0  0  0
    8.7788   -0.1488    0.0000 C   0  0  0  0  0  0  0  0  0  0  0  0
   12.2429    2.8512    0.0000 C   0  0  0  0  0  0  0  0  0  0  0  0
    7.9128   -0.6488    0.0000 C   0  0  0  0  0  0  0  0  0  0  0  0
    7.9128   -1.6488    0.0000 C   0  0  0  0  0  0  0  0  0  0  0  0
   12.2429    3.8512    0.0000 C   0  0  0  0  0  0  0  0  0  0  0  0
   13.1090    2.3512    0.0000 C   0  0  0  0  0  0  0  0  0  0  0  0
   13.1090    4.3512    0.0000 C   0  0  0  0  0  0  0  0  0  0  0  0
   13.9750    2.8512    0.0000 C   0  0  0  0  0  0  0  0  0  0  0  0
   13.9750    3.8512    0.0000 C   0  0  0  0  0  0  0  0  0  0  0  0
   13.1090    5.3512    0.0000 C   0  0  0  0  0  0  0  0  0  0  0  0
    7.0468   -3.1488    0.0000 C   0  0  0  0  0  0  0  0  0  0  0  0
    6.1808   -3.6488    0.0000 C   0  0  0  0  0  0  0  0  0  0  0  0
    5.3147   -3.1488    0.0000 C   0  0  0  0  0  0  0  0  0  0  0  0
    6.1808   -4.6488    0.0000 C   0  0  0  0  0  0  0  0  0  0  0  0
    4.4487   -4.6488    0.0000 C   0  0  0  0  0  0  0  0  0  0  0  0
    4.4487   -3.6488    0.0000 C   0  0  0  0  0  0  0  0  0  0  0  0
    5.3147   -5.1488    0.0000 C   0  0  0  0  0  0  0  0  0  0  0  0
    3.5827   -5.1488    0.0000 C   0  0  0  0  0  0  0  0  0  0  0  0
    3.4782   -6.1433    0.0000 C   0  0  0  0  0  0  0  0  0  0  0  0
    2.6691   -4.7420    0.0000 C   0  0  0  0  0  0  0  0  0  0  0  0
    2.5000   -6.3512    0.0000 C   0  0  0  0  0  0  0  0  0  0  0  0
   10.1124    0.3763    0.0000 H   0  0  0  0  0  0  0  0  0  0  0  0
   10.9094    0.3763    0.0000 H   0  0  0  0  0  0  0  0  0  0  0  0
    9.4328    2.9338    0.0000 H   0  0  0  0  0  0  0  0  0  0  0  0
    9.0343    2.2436    0.0000 H   0  0  0  0  0  0  0  0  0  0  0  0
   11.5890    0.7686    0.0000 H   0  0  0  0  0  0  0  0  0  0  0  0
   11.9875    1.4589    0.0000 H   0  0  0  0  0  0  0  0  0  0  0  0
   10.9094    3.3262    0.0000 H   0  0  0  0  0  0  0  0  0  0  0  0
   10.1124    3.3262    0.0000 H   0  0  0  0  0  0  0  0  0  0  0  0
    8.5668    1.4338    0.0000 H   0  0  0  0  0  0  0  0  0  0  0  0
    8.1682    0.7436    0.0000 H   0  0  0  0  0  0  0  0  0  0  0  0
    8.9909   -0.7314    0.0000 H   0  0  0  0  0  0  0  0  0  0  0  0
    9.3894   -0.0411    0.0000 H   0  0  0  0  0  0  0  0  0  0  0  0
    7.7008   -0.0662    0.0000 H   0  0  0  0  0  0  0  0  0  0  0  0
    7.3022   -0.7564    0.0000 H   0  0  0  0  0  0  0  0  0  0  0  0
    8.1249   -2.2314    0.0000 H   0  0  0  0  0  0  0  0  0  0  0  0
    8.5234   -1.5411    0.0000 H   0  0  0  0  0  0  0  0  0  0  0  0
   11.7060    4.1612    0.0000 H   0  0  0  0  0  0  0  0  0  0  0  0
   13.1090    1.7312    0.0000 H   0  0  0  0  0  0  0  0  0  0  0  0
   14.5119    2.5412    0.0000 H   0  0  0  0  0  0  0  0  0  0  0  0
    6.5098   -1.8388    0.0000 H   0  0  0  0  0  0  0  0  0  0  0  0
   14.5119    4.1612    0.0000 H   0  0  0  0  0  0  0  0  0  0  0  0
    5.3147   -2.5288    0.0000 H   0  0  0  0  0  0  0  0  0  0  0  0
    6.7177   -4.9588    0.0000 H   0  0  0  0  0  0  0  0  0  0  0  0
    3.9118   -3.3388    0.0000 H   0  0  0  0  0  0  0  0  0  0  0  0
    5.3147   -5.7688    0.0000 H   0  0  0  0  0  0  0  0  0  0  0  0
    3.9389   -6.5582    0.0000 H   0  0  0  0  0  0  0  0  0  0  0  0
    2.5402   -4.1356    0.0000 H   0  0  0  0  0  0  0  0  0  0  0  0
    2.2478   -6.9176    0.0000 H   0  0  0  0  0  0  0  0  0  0  0  0
  1 33  1  0  0  0  0
  1 34  1  0  0  0  0
  2 23  1  0  0  0  0
  3 23  1  0  0  0  0
  4 23  1  0  0  0  0
  5 24  2  0  0  0  0
  6  9  1  0  0  0  0
  6 10  1  0  0  0  0
  6 13  1  0  0  0  0
  7 11  1  0  0  0  0
  7 12  1  0  0  0  0
  7 15  1  0  0  0  0
  8 17  1  0  0  0  0
  8 24  1  0  0  0  0
  8 54  1  0  0  0  0
  9 11  1  0  0  0  0
  9 35  1  0  0  0  0
  9 36  1  0  0  0  0
 10 12  1  0  0  0  0
 10 37  1  0  0  0  0
 10 38  1  0  0  0  0
 11 39  1  0  0  0  0
 11 40  1  0  0  0  0
 12 41  1  0  0  0  0
 12 42  1  0  0  0  0
 13 14  1  0  0  0  0
 13 43  1  0  0  0  0
 13 44  1  0  0  0  0
 14 16  1  0  0  0  0
 14 45  1  0  0  0  0
 14 46  1  0  0  0  0
 15 18  1  0  0  0  0
 15 19  2  0  0  0  0
 16 17  1  0  0  0  0
 16 47  1  0  0  0  0
 16 48  1  0  0  0  0
 17 49  1  0  0  0  0
 17 50  1  0  0  0  0
 18 20  2  0  0  0  0
 18 51  1  0  0  0  0
 19 21  1  0  0  0  0
 19 52  1  0  0  0  0
 20 22  1  0  0  0  0
 20 23  1  0  0  0  0
 21 22  2  0  0  0  0
 21 53  1  0  0  0  0
 22 55  1  0  0  0  0
 24 25  1  0  0  0  0
 25 26  2  0  0  0  0
 25 27  1  0  0  0  0
 26 29  1  0  0  0  0
 26 56  1  0  0  0  0
 27 30  2  0  0  0  0
 27 57  1  0  0  0  0
 28 29  2  0  0  0  0
 28 30  1  0  0  0  0
 28 31  1  0  0  0  0
 29 58  1  0  0  0  0
 30 59  1  0  0  0  0
 31 32  1  0  0  0  0
 31 33  2  0  0  0  0
 32 34  2  0  0  0  0
 32 60  1  0  0  0  0
 33 61  1  0  0  0  0
 34 62  1  0  0  0  0
M  END
> <PUBCHEM_COMPOUND_CID>
155567775

> <PUBCHEM_COMPOUND_CANONICALIZED>
1

> <PUBCHEM_CACTVS_COMPLEXITY>
633

> <PUBCHEM_CACTVS_HBOND_ACCEPTOR>
7

> <PUBCHEM_CACTVS_HBOND_DONOR>
1

> <PUBCHEM_CACTVS_ROTATABLE_BOND>
8

> <PUBCHEM_CACTVS_SUBSKEYS>
AAADceB7IYBAAAAAAAAAAAAAAAAAASAAAAA8YIAAAAAAAAAB0AAAHwQQAAAADAjF2BSwwYPAAAiMAiVSUACDAIAlChBIiJkIZMgIYDLglZGUIQhglgDoyYcYiMCOwAAAQAAAAACAAACAAAAAAAAAAAAAAA==

> <PUBCHEM_IUPAC_OPENEYE_NAME>
4-(3-thienyl)-N-[4-[4-[3-(trifluoromethyl)phenyl]piperazin-1-yl]butyl]benzamide

> <PUBCHEM_IUPAC_CAS_NAME>
4-(3-thiophenyl)-N-[4-[4-[3-(trifluoromethyl)phenyl]-1-piperazinyl]butyl]benzamide

> <PUBCHEM_IUPAC_NAME_MARKUP>
4-thiophen-3-yl-<I>N</I>-[4-[4-[3-(trifluoromethyl)phenyl]piperazin-1-yl]butyl]benzamide

> <PUBCHEM_IUPAC_NAME>
4-thiophen-3-yl-N-[4-[4-[3-(trifluoromethyl)phenyl]piperazin-1-yl]butyl]benzamide

> <PUBCHEM_IUPAC_SYSTEMATIC_NAME>
4-thiophen-3-yl-N-[4-[4-[3-(trifluoromethyl)phenyl]piperazin-1-yl]butyl]benzamide

> <PUBCHEM_IUPAC_TRADITIONAL_NAME>
4-(3-thienyl)-N-[4-[4-[3-(trifluoromethyl)phenyl]piperazino]butyl]benzamide

> <PUBCHEM_IUPAC_INCHI>
InChI=1S/C26H28F3N3OS/c27-26(28,29)23-4-3-5-24(18-23)32-15-13-31(14-16-32)12-2-1-11-30-25(33)21-8-6-20(7-9-21)22-10-17-34-19-22/h3-10,17-19H,1-2,11-16H2,(H,30,33)

> <PUBCHEM_IUPAC_INCHIKEY>
VLWXQHYDFCFOHW-UHFFFAOYSA-N

> <PUBCHEM_XLOGP3_AA>
5.7

> <PUBCHEM_EXACT_MASS>
487.19051818

> <PUBCHEM_MOLECULAR_FORMULA>
C26H28F3N3OS

> <PUBCHEM_MOLECULAR_WEIGHT>
487.6

> <PUBCHEM_OPENEYE_CAN_SMILES>
C1CN(CCN1CCCCNC(=O)C2=CC=C(C=C2)C3=CSC=C3)C4=CC=CC(=C4)C(F)(F)F

> <PUBCHEM_OPENEYE_ISO_SMILES>
C1CN(CCN1CCCCNC(=O)C2=CC=C(C=C2)C3=CSC=C3)C4=CC=CC(=C4)C(F)(F)F

> <PUBCHEM_CACTVS_TPSA>
63.8

> <PUBCHEM_MONOISOTOPIC_WEIGHT>
487.19051818

> <PUBCHEM_TOTAL_CHARGE>
0

> <PUBCHEM_HEAVY_ATOM_COUNT>
34

> <PUBCHEM_ATOM_DEF_STEREO_COUNT>
0

> <PUBCHEM_ATOM_UDEF_STEREO_COUNT>
0

> <PUBCHEM_BOND_DEF_STEREO_COUNT>
0

> <PUBCHEM_BOND_UDEF_STEREO_COUNT>
0

> <PUBCHEM_ISOTOPIC_ATOM_COUNT>
0

> <PUBCHEM_COMPONENT_COUNT>
1

> <PUBCHEM_CACTVS_TAUTO_COUNT>
-1

> <PUBCHEM_COORDINATE_TYPE>
1
5
255

> <PUBCHEM_BONDANNOTATIONS>
1  33  8
1  34  8
15  18  8
15  19  8
18  20  8
19  21  8
20  22  8
21  22  8
25  26  8
25  27  8
26  29  8
27  30  8
28  29  8
28  30  8
31  32  8
31  33  8
32  34  8

$$$$
