10041417
  -OEChem-09292322132D

 47 49  0     1  0  0  0  0  0999 V2000
    2.6691    0.3259    0.0000 S   0  0  0  0  0  0  0  0  0  0  0  0
   11.4429    0.2085    0.0000 O   0  0  0  0  0  0  0  0  0  0  0  0
    6.1808    0.2327    0.0000 N   0  0  3  0  0  0  0  0  0  0  0  0
    7.0468    0.7327    0.0000 C   0  0  3  0  0  0  0  0  0  0  0  0
    7.0468    1.7327    0.0000 C   0  0  0  0  0  0  0  0  0  0  0  0
    7.9128    0.2327    0.0000 C   0  0  0  0  0  0  0  0  0  0  0  0
    7.9128    2.2327    0.0000 C   0  0  0  0  0  0  0  0  0  0  0  0
    8.7788    0.7327    0.0000 C   0  0  0  0  0  0  0  0  0  0  0  0
    8.7788    1.7327    0.0000 C   0  0  0  0  0  0  0  0  0  0  0  0
    5.3147    0.7327    0.0000 C   0  0  0  0  0  0  0  0  0  0  0  0
    6.1808   -0.7673    0.0000 C   0  0  0  0  0  0  0  0  0  0  0  0
    4.4487    0.2327    0.0000 C   0  0  0  0  0  0  0  0  0  0  0  0
    5.3147   -1.2673    0.0000 C   0  0  0  0  0  0  0  0  0  0  0  0
    9.6728    0.1980    0.0000 C   0  0  0  0  0  0  0  0  0  0  0  0
    9.6728    2.2673    0.0000 C   0  0  0  0  0  0  0  0  0  0  0  0
   10.5788    0.7119    0.0000 C   0  0  0  0  0  0  0  0  0  0  0  0
   10.5788    1.7535    0.0000 C   0  0  0  0  0  0  0  0  0  0  0  0
    3.5827    0.7327    0.0000 C   0  0  0  0  0  0  0  0  0  0  0  0
    5.3147   -2.2673    0.0000 C   0  0  0  0  0  0  0  0  0  0  0  0
    3.4782    1.7272    0.0000 C   0  0  0  0  0  0  0  0  0  0  0  0
    2.5000    1.9351    0.0000 C   0  0  0  0  0  0  0  0  0  0  0  0
    2.0000    1.0691    0.0000 C   0  0  0  0  0  0  0  0  0  0  0  0
    7.0468    0.1127    0.0000 H   0  0  0  0  0  0  0  0  0  0  0  0
    6.8347    2.3153    0.0000 H   0  0  0  0  0  0  0  0  0  0  0  0
    6.4362    1.6250    0.0000 H   0  0  0  0  0  0  0  0  0  0  0  0
    7.5143   -0.2423    0.0000 H   0  0  0  0  0  0  0  0  0  0  0  0
    8.3113   -0.2423    0.0000 H   0  0  0  0  0  0  0  0  0  0  0  0
    8.3113    2.7076    0.0000 H   0  0  0  0  0  0  0  0  0  0  0  0
    7.5143    2.7076    0.0000 H   0  0  0  0  0  0  0  0  0  0  0  0
    5.7133    1.2076    0.0000 H   0  0  0  0  0  0  0  0  0  0  0  0
    4.9162    1.2076    0.0000 H   0  0  0  0  0  0  0  0  0  0  0  0
    6.3928   -1.3499    0.0000 H   0  0  0  0  0  0  0  0  0  0  0  0
    6.7913   -0.6597    0.0000 H   0  0  0  0  0  0  0  0  0  0  0  0
    4.0502   -0.2423    0.0000 H   0  0  0  0  0  0  0  0  0  0  0  0
    4.8472   -0.2423    0.0000 H   0  0  0  0  0  0  0  0  0  0  0  0
    5.1027   -0.6847    0.0000 H   0  0  0  0  0  0  0  0  0  0  0  0
    4.7042   -1.3750    0.0000 H   0  0  0  0  0  0  0  0  0  0  0  0
    9.6656   -0.4220    0.0000 H   0  0  0  0  0  0  0  0  0  0  0  0
    9.6656    2.8873    0.0000 H   0  0  0  0  0  0  0  0  0  0  0  0
   11.1146    2.0656    0.0000 H   0  0  0  0  0  0  0  0  0  0  0  0
    4.6947   -2.2673    0.0000 H   0  0  0  0  0  0  0  0  0  0  0  0
    5.3147   -2.8873    0.0000 H   0  0  0  0  0  0  0  0  0  0  0  0
    5.9347   -2.2673    0.0000 H   0  0  0  0  0  0  0  0  0  0  0  0
    3.9389    2.1420    0.0000 H   0  0  0  0  0  0  0  0  0  0  0  0
   11.9811    0.5164    0.0000 H   0  0  0  0  0  0  0  0  0  0  0  0
    2.2478    2.5015    0.0000 H   0  0  0  0  0  0  0  0  0  0  0  0
    1.3834    1.0043    0.0000 H   0  0  0  0  0  0  0  0  0  0  0  0
  1 18  1  0  0  0  0
  1 22  1  0  0  0  0
  2 16  1  0  0  0  0
  2 45  1  0  0  0  0
  3  4  1  0  0  0  0
  3 10  1  0  0  0  0
  3 11  1  0  0  0  0
  4  5  1  0  0  0  0
  4  6  1  0  0  0  0
  4 23  1  0  0  0  0
  5  7  1  0  0  0  0
  5 24  1  0  0  0  0
  5 25  1  0  0  0  0
  6  8  1  0  0  0  0
  6 26  1  0  0  0  0
  6 27  1  0  0  0  0
  7  9  1  0  0  0  0
  7 28  1  0  0  0  0
  7 29  1  0  0  0  0
  8  9  2  0  0  0  0
  8 14  1  0  0  0  0
  9 15  1  0  0  0  0
 10 12  1  0  0  0  0
 10 30  1  0  0  0  0
 10 31  1  0  0  0  0
 11 13  1  0  0  0  0
 11 32  1  0  0  0  0
 11 33  1  0  0  0  0
 12 18  1  0  0  0  0
 12 34  1  0  0  0  0
 12 35  1  0  0  0  0
 13 19  1  0  0  0  0
 13 36  1  0  0  0  0
 13 37  1  0  0  0  0
 14 16  2  0  0  0  0
 14 38  1  0  0  0  0
 15 17  2  0  0  0  0
 15 39  1  0  0  0  0
 16 17  1  0  0  0  0
 17 40  1  0  0  0  0
 18 20  2  0  0  0  0
 19 41  1  0  0  0  0
 19 42  1  0  0  0  0
 19 43  1  0  0  0  0
 20 21  1  0  0  0  0
 20 44  1  0  0  0  0
 21 22  2  0  0  0  0
 21 46  1  0  0  0  0
 22 47  1  0  0  0  0
M  END
> <PUBCHEM_COMPOUND_CID>
10041417

> <PUBCHEM_COMPOUND_CANONICALIZED>
1

> <PUBCHEM_CACTVS_COMPLEXITY>
337

> <PUBCHEM_CACTVS_HBOND_ACCEPTOR>
3

> <PUBCHEM_CACTVS_HBOND_DONOR>
1

> <PUBCHEM_CACTVS_ROTATABLE_BOND>
6

> <PUBCHEM_CACTVS_SUBSKEYS>
AAADceB6IABAAAAAAAAAAAAAAAAAASAAAAAwYAAAAAAAAADBwAAAHgQACAAADCzF2ASyB4MAAgiEAiBCAAADAIAgKBBIiBgOCIgIJiKikROEcAAkwBGomAeQ0LMOoAABAAAQAABQAAKAACAAAAAAAAAAAA==

> <PUBCHEM_IUPAC_OPENEYE_NAME>
3-[propyl-[2-(2-thienyl)ethyl]amino]tetralin-6-ol

> <PUBCHEM_IUPAC_CAS_NAME>
7-[propyl(2-thiophen-2-ylethyl)amino]-5,6,7,8-tetrahydronaphthalen-2-ol

> <PUBCHEM_IUPAC_NAME_MARKUP>
7-[propyl(2-thiophen-2-ylethyl)amino]-5,6,7,8-tetrahydronaphthalen-2-ol

> <PUBCHEM_IUPAC_NAME>
7-[propyl(2-thiophen-2-ylethyl)amino]-5,6,7,8-tetrahydronaphthalen-2-ol

> <PUBCHEM_IUPAC_SYSTEMATIC_NAME>
7-[propyl(2-thiophen-2-ylethyl)amino]-5,6,7,8-tetrahydronaphthalen-2-ol

> <PUBCHEM_IUPAC_TRADITIONAL_NAME>
3-[propyl-[2-(2-thienyl)ethyl]amino]tetralin-6-ol

> <PUBCHEM_IUPAC_INCHI>
InChI=1S/C19H25NOS/c1-2-10-20(11-9-19-4-3-12-22-19)17-7-5-15-6-8-18(21)14-16(15)13-17/h3-4,6,8,12,14,17,21H,2,5,7,9-11,13H2,1H3

> <PUBCHEM_IUPAC_INCHIKEY>
FKPNKWMJMHRBGE-UHFFFAOYSA-N

> <PUBCHEM_XLOGP3_AA>
4.9

> <PUBCHEM_EXACT_MASS>
315.16568559

> <PUBCHEM_MOLECULAR_FORMULA>
C19H25NOS

> <PUBCHEM_MOLECULAR_WEIGHT>
315.5

> <PUBCHEM_OPENEYE_CAN_SMILES>
CCCN(CCC1=CC=CS1)C2CCC3=C(C2)C=C(C=C3)O

> <PUBCHEM_OPENEYE_ISO_SMILES>
CCCN(CCC1=CC=CS1)C2CCC3=C(C2)C=C(C=C3)O

> <PUBCHEM_CACTVS_TPSA>
51.7

> <PUBCHEM_MONOISOTOPIC_WEIGHT>
315.16568559

> <PUBCHEM_TOTAL_CHARGE>
0

> <PUBCHEM_HEAVY_ATOM_COUNT>
22

> <PUBCHEM_ATOM_DEF_STEREO_COUNT>
0

> <PUBCHEM_ATOM_UDEF_STEREO_COUNT>
1

> <PUBCHEM_BOND_DEF_STEREO_COUNT>
0

> <PUBCHEM_BOND_UDEF_STEREO_COUNT>
0

> <PUBCHEM_ISOTOPIC_ATOM_COUNT>
0

> <PUBCHEM_COMPONENT_COUNT>
1

> <PUBCHEM_CACTVS_TAUTO_COUNT>
-1

> <PUBCHEM_COORDINATE_TYPE>
1
5
255

> <PUBCHEM_BONDANNOTATIONS>
1  18  8
1  22  8
14  16  8
15  17  8
16  17  8
18  20  8
20  21  8
21  22  8
4  3  3
8  14  8
8  9  8
9  15  8

$$$$
