134154679
  -OEChem-09292322382D

 55 57  0     1  0  0  0  0  0999 V2000
   13.4165    1.3984    0.0000 Cl  0  0  0  0  0  0  0  0  0  0  0  0
    6.2082    8.2814    0.0000 Cl  0  0  0  0  0  0  0  0  0  0  0  0
    9.4455    1.6229    0.0000 S   0  0  0  0  0  0  0  0  0  0  0  0
    0.6200    2.6495    0.0000 O   0  0  0  0  0  0  0  0  0  0  0  0
    0.6200    4.6495    0.0000 O   0  0  0  0  0  0  0  0  0  0  0  0
    5.0181    3.1287    0.0000 N   0  0  3  0  0  0  0  0  0  0  0  0
   10.2556    3.0136    0.0000 N   0  0  0  0  0  0  0  0  0  0  0  0
    5.0181    4.1703    0.0000 C   0  0  0  0  0  0  0  0  0  0  0  0
    4.1120    2.6148    0.0000 C   0  0  0  0  0  0  0  0  0  0  0  0
    4.1120    4.6842    0.0000 C   0  0  0  0  0  0  0  0  0  0  0  0
    5.8822    2.6253    0.0000 C   0  0  0  0  0  0  0  0  0  0  0  0
    3.2181    3.1495    0.0000 C   0  0  0  0  0  0  0  0  0  0  0  0
    3.2181    4.1495    0.0000 C   0  0  0  0  0  0  0  0  0  0  0  0
    6.7501    3.1220    0.0000 C   0  0  0  0  0  0  0  0  0  0  0  0
    7.6142    2.6187    0.0000 C   0  0  0  0  0  0  0  0  0  0  0  0
    2.3521    2.6495    0.0000 C   0  0  0  0  0  0  0  0  0  0  0  0
    2.3521    4.6495    0.0000 C   0  0  0  0  0  0  0  0  0  0  0  0
    8.4822    3.1153    0.0000 C   0  0  0  0  0  0  0  0  0  0  0  0
    1.4860    3.1495    0.0000 C   0  0  0  0  0  0  0  0  0  0  0  0
    1.4860    4.1495    0.0000 C   0  0  0  0  0  0  0  0  0  0  0  0
    9.3462    2.6120    0.0000 C   0  0  0  0  0  0  0  0  0  0  0  0
   10.9198    2.2740    0.0000 C   0  0  0  0  0  0  0  0  0  0  0  0
   10.4165    1.4099    0.0000 C   0  0  0  0  0  0  0  0  0  0  0  0
    0.6200    1.6495    0.0000 C   0  0  0  0  0  0  0  0  0  0  0  0
    0.6200    5.6495    0.0000 C   0  0  0  0  0  0  0  0  0  0  0  0
   11.9198    2.2702    0.0000 C   0  0  0  0  0  0  0  0  0  0  0  0
   10.9132    0.5420    0.0000 C   0  0  0  0  0  0  0  0  0  0  0  0
   12.4165    1.4022    0.0000 C   0  0  0  0  0  0  0  0  0  0  0  0
   11.9131    0.5381    0.0000 C   0  0  0  0  0  0  0  0  0  0  0  0
    5.6289    4.0642    0.0000 H   0  0  0  0  0  0  0  0  0  0  0  0
    5.2271    4.7540    0.0000 H   0  0  0  0  0  0  0  0  0  0  0  0
    3.7074    2.1450    0.0000 H   0  0  0  0  0  0  0  0  0  0  0  0
    4.5056    2.1358    0.0000 H   0  0  0  0  0  0  0  0  0  0  0  0
    4.5056    5.1632    0.0000 H   0  0  0  0  0  0  0  0  0  0  0  0
    3.7074    5.1539    0.0000 H   0  0  0  0  0  0  0  0  0  0  0  0
    5.4818    2.1519    0.0000 H   0  0  0  0  0  0  0  0  0  0  0  0
    6.2789    2.1489    0.0000 H   0  0  0  0  0  0  0  0  0  0  0  0
    7.1505    3.5954    0.0000 H   0  0  0  0  0  0  0  0  0  0  0  0
    6.3534    3.5985    0.0000 H   0  0  0  0  0  0  0  0  0  0  0  0
    7.2139    2.1453    0.0000 H   0  0  0  0  0  0  0  0  0  0  0  0
    8.0109    2.1422    0.0000 H   0  0  0  0  0  0  0  0  0  0  0  0
    2.3521    2.0295    0.0000 H   0  0  0  0  0  0  0  0  0  0  0  0
    2.3521    5.2695    0.0000 H   0  0  0  0  0  0  0  0  0  0  0  0
    8.8825    3.5887    0.0000 H   0  0  0  0  0  0  0  0  0  0  0  0
    8.0855    3.5918    0.0000 H   0  0  0  0  0  0  0  0  0  0  0  0
    0.0000    1.6495    0.0000 H   0  0  0  0  0  0  0  0  0  0  0  0
    0.6200    1.0295    0.0000 H   0  0  0  0  0  0  0  0  0  0  0  0
    1.2400    1.6495    0.0000 H   0  0  0  0  0  0  0  0  0  0  0  0
    1.2400    5.6495    0.0000 H   0  0  0  0  0  0  0  0  0  0  0  0
    0.6200    6.2695    0.0000 H   0  0  0  0  0  0  0  0  0  0  0  0
    0.0000    5.6495    0.0000 H   0  0  0  0  0  0  0  0  0  0  0  0
   12.2319    2.8059    0.0000 H   0  0  0  0  0  0  0  0  0  0  0  0
   10.6011    0.0062    0.0000 H   0  0  0  0  0  0  0  0  0  0  0  0
   12.2211    0.0000    0.0000 H   0  0  0  0  0  0  0  0  0  0  0  0
    7.2082    8.2814    0.0000 H   0  0  0  0  0  0  0  0  0  0  0  0
  1 28  1  0  0  0  0
  2 55  1  0  0  0  0
  3 21  1  0  0  0  0
  3 23  1  0  0  0  0
  4 19  1  0  0  0  0
  4 24  1  0  0  0  0
  5 20  1  0  0  0  0
  5 25  1  0  0  0  0
  6  8  1  0  0  0  0
  6  9  1  0  0  0  0
  6 11  1  0  0  0  0
  7 21  2  0  0  0  0
  7 22  1  0  0  0  0
  8 10  1  0  0  0  0
  8 30  1  0  0  0  0
  8 31  1  0  0  0  0
  9 12  1  0  0  0  0
  9 32  1  0  0  0  0
  9 33  1  0  0  0  0
 10 13  1  0  0  0  0
 10 34  1  0  0  0  0
 10 35  1  0  0  0  0
 11 14  1  0  0  0  0
 11 36  1  0  0  0  0
 11 37  1  0  0  0  0
 12 13  1  0  0  0  0
 12 16  2  0  0  0  0
 13 17  2  0  0  0  0
 14 15  1  0  0  0  0
 14 38  1  0  0  0  0
 14 39  1  0  0  0  0
 15 18  1  0  0  0  0
 15 40  1  0  0  0  0
 15 41  1  0  0  0  0
 16 19  1  0  0  0  0
 16 42  1  0  0  0  0
 17 20  1  0  0  0  0
 17 43  1  0  0  0  0
 18 21  1  0  0  0  0
 18 44  1  0  0  0  0
 18 45  1  0  0  0  0
 19 20  2  0  0  0  0
 22 23  2  0  0  0  0
 22 26  1  0  0  0  0
 23 27  1  0  0  0  0
 24 46  1  0  0  0  0
 24 47  1  0  0  0  0
 24 48  1  0  0  0  0
 25 49  1  0  0  0  0
 25 50  1  0  0  0  0
 25 51  1  0  0  0  0
 26 28  2  0  0  0  0
 26 52  1  0  0  0  0
 27 29  2  0  0  0  0
 27 53  1  0  0  0  0
 28 29  1  0  0  0  0
 29 54  1  0  0  0  0
M  END
> <PUBCHEM_COMPOUND_CID>
134154679

> <PUBCHEM_COMPOUND_CANONICALIZED>
1

> <PUBCHEM_CACTVS_COMPLEXITY>
499

> <PUBCHEM_CACTVS_HBOND_ACCEPTOR>
5

> <PUBCHEM_CACTVS_HBOND_DONOR>
1

> <PUBCHEM_CACTVS_ROTATABLE_BOND>
7

> <PUBCHEM_CACTVS_SUBSKEYS>
AAADceB7MABGAAAAAAAAAAAAAAAAAWAAAAA8YIAAAAAAAFix9AAAHgYAAAAADA7B3iYyx7MIFAikAyRiRACD+KBhLzhImDw+7pgNJqLls5uEMCpkwBHq6Aew0LIOoAIBAAIQQQBABAIABCCCAAAAAAAAAA==

> <PUBCHEM_IUPAC_OPENEYE_NAME>
5-chloro-2-[4-(6,7-dimethoxy-3,4-dihydro-1H-isoquinolin-2-yl)butyl]-1,3-benzothiazole;hydrochloride

> <PUBCHEM_IUPAC_CAS_NAME>
5-chloro-2-[4-(6,7-dimethoxy-3,4-dihydro-1H-isoquinolin-2-yl)butyl]-1,3-benzothiazole;hydrochloride

> <PUBCHEM_IUPAC_NAME_MARKUP>
5-chloro-2-[4-(6,7-dimethoxy-3,4-dihydro-1<I>H</I>-isoquinolin-2-yl)butyl]-1,3-benzothiazole;hydrochloride

> <PUBCHEM_IUPAC_NAME>
5-chloro-2-[4-(6,7-dimethoxy-3,4-dihydro-1H-isoquinolin-2-yl)butyl]-1,3-benzothiazole;hydrochloride

> <PUBCHEM_IUPAC_SYSTEMATIC_NAME>
5-chloranyl-2-[4-(6,7-dimethoxy-3,4-dihydro-1H-isoquinolin-2-yl)butyl]-1,3-benzothiazole;hydrochloride

> <PUBCHEM_IUPAC_TRADITIONAL_NAME>
5-chloro-2-[4-(6,7-dimethoxy-3,4-dihydro-1H-isoquinolin-2-yl)butyl]-1,3-benzothiazole;hydrochloride

> <PUBCHEM_IUPAC_INCHI>
InChI=1S/C22H25ClN2O2S.ClH/c1-26-19-11-15-8-10-25(14-16(15)12-20(19)27-2)9-4-3-5-22-24-18-13-17(23)6-7-21(18)28-22;/h6-7,11-13H,3-5,8-10,14H2,1-2H3;1H

> <PUBCHEM_IUPAC_INCHIKEY>
CIEYQJXJQBPJAX-UHFFFAOYSA-N

> <PUBCHEM_EXACT_MASS>
452.1092046

> <PUBCHEM_MOLECULAR_FORMULA>
C22H26Cl2N2O2S

> <PUBCHEM_MOLECULAR_WEIGHT>
453.4

> <PUBCHEM_OPENEYE_CAN_SMILES>
COC1=C(C=C2CN(CCC2=C1)CCCCC3=NC4=C(S3)C=CC(=C4)Cl)OC.Cl

> <PUBCHEM_OPENEYE_ISO_SMILES>
COC1=C(C=C2CN(CCC2=C1)CCCCC3=NC4=C(S3)C=CC(=C4)Cl)OC.Cl

> <PUBCHEM_CACTVS_TPSA>
62.8

> <PUBCHEM_MONOISOTOPIC_WEIGHT>
452.1092046

> <PUBCHEM_TOTAL_CHARGE>
0

> <PUBCHEM_HEAVY_ATOM_COUNT>
29

> <PUBCHEM_ATOM_DEF_STEREO_COUNT>
0

> <PUBCHEM_ATOM_UDEF_STEREO_COUNT>
0

> <PUBCHEM_BOND_DEF_STEREO_COUNT>
0

> <PUBCHEM_BOND_UDEF_STEREO_COUNT>
0

> <PUBCHEM_ISOTOPIC_ATOM_COUNT>
0

> <PUBCHEM_COMPONENT_COUNT>
2

> <PUBCHEM_CACTVS_TAUTO_COUNT>
-1

> <PUBCHEM_COORDINATE_TYPE>
1
5
255

> <PUBCHEM_BONDANNOTATIONS>
12  13  8
12  16  8
13  17  8
16  19  8
17  20  8
19  20  8
22  23  8
22  26  8
23  27  8
26  28  8
27  29  8
28  29  8
3  21  8
3  23  8
7  21  8
7  22  8

$$$$
