24769156
  -OEChem-09292322472D

 57 60  0     0  0  0  0  0  0999 V2000
   11.5263    0.5173    0.0000 O   0  0  0  0  0  0  0  0  0  0  0  0
    6.3301   -0.4827    0.0000 N   0  0  0  0  0  0  0  0  0  0  0  0
    4.5981    0.5173    0.0000 N   0  0  0  0  0  0  0  0  0  0  0  0
   10.6603   -0.9827    0.0000 N   0  0  0  0  0  0  0  0  0  0  0  0
   15.0183   -2.5173    0.0000 N   0  0  0  0  0  0  0  0  0  0  0  0
    6.3301    0.5173    0.0000 C   0  0  0  0  0  0  0  0  0  0  0  0
    5.4641   -0.9827    0.0000 C   0  0  0  0  0  0  0  0  0  0  0  0
    5.4641    1.0173    0.0000 C   0  0  0  0  0  0  0  0  0  0  0  0
    4.5981   -0.4827    0.0000 C   0  0  0  0  0  0  0  0  0  0  0  0
    7.1962   -0.9827    0.0000 C   0  0  0  0  0  0  0  0  0  0  0  0
    8.0622   -0.4827    0.0000 C   0  0  0  0  0  0  0  0  0  0  0  0
    8.9282   -0.9827    0.0000 C   0  0  0  0  0  0  0  0  0  0  0  0
    3.7320    1.0173    0.0000 C   0  0  0  0  0  0  0  0  0  0  0  0
    9.7942   -0.4827    0.0000 C   0  0  0  0  0  0  0  0  0  0  0  0
    2.8660    0.5173    0.0000 C   0  0  0  0  0  0  0  0  0  0  0  0
    3.7320    2.0173    0.0000 C   0  0  0  0  0  0  0  0  0  0  0  0
    2.0000    1.0173    0.0000 C   0  0  0  0  0  0  0  0  0  0  0  0
    2.8660    2.5173    0.0000 C   0  0  0  0  0  0  0  0  0  0  0  0
    2.0000    2.0173    0.0000 C   0  0  0  0  0  0  0  0  0  0  0  0
   11.5263   -0.4827    0.0000 C   0  0  0  0  0  0  0  0  0  0  0  0
   12.3923   -0.9827    0.0000 C   0  0  0  0  0  0  0  0  0  0  0  0
   13.2583   -0.4827    0.0000 C   0  0  0  0  0  0  0  0  0  0  0  0
   12.3923   -1.9827    0.0000 C   0  0  0  0  0  0  0  0  0  0  0  0
   14.1244   -0.9827    0.0000 C   0  0  0  0  0  0  0  0  0  0  0  0
   14.1244   -1.9827    0.0000 C   0  0  0  0  0  0  0  0  0  0  0  0
   13.2583   -2.4827    0.0000 C   0  0  0  0  0  0  0  0  0  0  0  0
   15.0183   -0.4480    0.0000 C   0  0  0  0  0  0  0  0  0  0  0  0
   15.9244   -0.9619    0.0000 C   0  0  0  0  0  0  0  0  0  0  0  0
   15.9244   -2.0035    0.0000 C   0  0  0  0  0  0  0  0  0  0  0  0
    6.9407    0.4097    0.0000 H   0  0  0  0  0  0  0  0  0  0  0  0
    6.5422    1.0999    0.0000 H   0  0  0  0  0  0  0  0  0  0  0  0
    5.0656   -1.4576    0.0000 H   0  0  0  0  0  0  0  0  0  0  0  0
    5.8626   -1.4576    0.0000 H   0  0  0  0  0  0  0  0  0  0  0  0
    5.8626    1.4923    0.0000 H   0  0  0  0  0  0  0  0  0  0  0  0
    5.0656    1.4923    0.0000 H   0  0  0  0  0  0  0  0  0  0  0  0
    3.9875   -0.3750    0.0000 H   0  0  0  0  0  0  0  0  0  0  0  0
    4.3860   -1.0653    0.0000 H   0  0  0  0  0  0  0  0  0  0  0  0
    6.7976   -1.4576    0.0000 H   0  0  0  0  0  0  0  0  0  0  0  0
    7.5947   -1.4576    0.0000 H   0  0  0  0  0  0  0  0  0  0  0  0
    8.4607   -0.0077    0.0000 H   0  0  0  0  0  0  0  0  0  0  0  0
    7.6636   -0.0077    0.0000 H   0  0  0  0  0  0  0  0  0  0  0  0
    8.5297   -1.4576    0.0000 H   0  0  0  0  0  0  0  0  0  0  0  0
    9.3267   -1.4576    0.0000 H   0  0  0  0  0  0  0  0  0  0  0  0
   10.1928   -0.0077    0.0000 H   0  0  0  0  0  0  0  0  0  0  0  0
    9.3957   -0.0077    0.0000 H   0  0  0  0  0  0  0  0  0  0  0  0
    2.8660   -0.1027    0.0000 H   0  0  0  0  0  0  0  0  0  0  0  0
    4.2690    2.3273    0.0000 H   0  0  0  0  0  0  0  0  0  0  0  0
   10.6603   -1.6027    0.0000 H   0  0  0  0  0  0  0  0  0  0  0  0
    1.4631    0.7073    0.0000 H   0  0  0  0  0  0  0  0  0  0  0  0
    2.8660    3.1373    0.0000 H   0  0  0  0  0  0  0  0  0  0  0  0
    1.4631    2.3273    0.0000 H   0  0  0  0  0  0  0  0  0  0  0  0
   13.2583    0.1373    0.0000 H   0  0  0  0  0  0  0  0  0  0  0  0
   11.8554   -2.2927    0.0000 H   0  0  0  0  0  0  0  0  0  0  0  0
   13.2583   -3.1027    0.0000 H   0  0  0  0  0  0  0  0  0  0  0  0
   15.0111    0.1720    0.0000 H   0  0  0  0  0  0  0  0  0  0  0  0
   16.4601   -0.6498    0.0000 H   0  0  0  0  0  0  0  0  0  0  0  0
   16.4601   -2.3156    0.0000 H   0  0  0  0  0  0  0  0  0  0  0  0
  1 20  2  0  0  0  0
  2  6  1  0  0  0  0
  2  7  1  0  0  0  0
  2 10  1  0  0  0  0
  3  8  1  0  0  0  0
  3  9  1  0  0  0  0
  3 13  1  0  0  0  0
  4 14  1  0  0  0  0
  4 20  1  0  0  0  0
  4 48  1  0  0  0  0
  5 25  1  0  0  0  0
  5 29  2  0  0  0  0
  6  8  1  0  0  0  0
  6 30  1  0  0  0  0
  6 31  1  0  0  0  0
  7  9  1  0  0  0  0
  7 32  1  0  0  0  0
  7 33  1  0  0  0  0
  8 34  1  0  0  0  0
  8 35  1  0  0  0  0
  9 36  1  0  0  0  0
  9 37  1  0  0  0  0
 10 11  1  0  0  0  0
 10 38  1  0  0  0  0
 10 39  1  0  0  0  0
 11 12  1  0  0  0  0
 11 40  1  0  0  0  0
 11 41  1  0  0  0  0
 12 14  1  0  0  0  0
 12 42  1  0  0  0  0
 12 43  1  0  0  0  0
 13 15  2  0  0  0  0
 13 16  1  0  0  0  0
 14 44  1  0  0  0  0
 14 45  1  0  0  0  0
 15 17  1  0  0  0  0
 15 46  1  0  0  0  0
 16 18  2  0  0  0  0
 16 47  1  0  0  0  0
 17 19  2  0  0  0  0
 17 49  1  0  0  0  0
 18 19  1  0  0  0  0
 18 50  1  0  0  0  0
 19 51  1  0  0  0  0
 20 21  1  0  0  0  0
 21 22  2  0  0  0  0
 21 23  1  0  0  0  0
 22 24  1  0  0  0  0
 22 52  1  0  0  0  0
 23 26  2  0  0  0  0
 23 53  1  0  0  0  0
 24 25  2  0  0  0  0
 24 27  1  0  0  0  0
 25 26  1  0  0  0  0
 26 54  1  0  0  0  0
 27 28  2  0  0  0  0
 27 55  1  0  0  0  0
 28 29  1  0  0  0  0
 28 56  1  0  0  0  0
 29 57  1  0  0  0  0
M  END
> <PUBCHEM_COMPOUND_CID>
24769156

> <PUBCHEM_COMPOUND_CANONICALIZED>
1

> <PUBCHEM_CACTVS_COMPLEXITY>
499

> <PUBCHEM_CACTVS_HBOND_ACCEPTOR>
4

> <PUBCHEM_CACTVS_HBOND_DONOR>
1

> <PUBCHEM_CACTVS_ROTATABLE_BOND>
7

> <PUBCHEM_CACTVS_SUBSKEYS>
AAADceB7oAAAAAAAAAAAAAAAAAAAAAAAAAA8eIEAAAAAAACx9AAAHgAQAAAADAjBngQ8wPPIEACoAzV3VACCgCA1AiAI2KE4ZNgIYPLAlZGUIQhglgDIyYcYicCeCAACAAACAAAQAAQAAAQAAAAAAAAAAA==

> <PUBCHEM_IUPAC_OPENEYE_NAME>
N-[4-(4-phenylpiperazin-1-yl)butyl]quinoline-6-carboxamide

> <PUBCHEM_IUPAC_CAS_NAME>
N-[4-(4-phenyl-1-piperazinyl)butyl]-6-quinolinecarboxamide

> <PUBCHEM_IUPAC_NAME_MARKUP>
<I>N</I>-[4-(4-phenylpiperazin-1-yl)butyl]quinoline-6-carboxamide

> <PUBCHEM_IUPAC_NAME>
N-[4-(4-phenylpiperazin-1-yl)butyl]quinoline-6-carboxamide

> <PUBCHEM_IUPAC_SYSTEMATIC_NAME>
N-[4-(4-phenylpiperazin-1-yl)butyl]quinoline-6-carboxamide

> <PUBCHEM_IUPAC_TRADITIONAL_NAME>
N-[4-(4-phenylpiperazino)butyl]quinoline-6-carboxamide

> <PUBCHEM_IUPAC_INCHI>
InChI=1S/C24H28N4O/c29-24(21-10-11-23-20(19-21)7-6-13-25-23)26-12-4-5-14-27-15-17-28(18-16-27)22-8-2-1-3-9-22/h1-3,6-11,13,19H,4-5,12,14-18H2,(H,26,29)

> <PUBCHEM_IUPAC_INCHIKEY>
OURPZJJZFFKVJH-UHFFFAOYSA-N

> <PUBCHEM_XLOGP3_AA>
3.8

> <PUBCHEM_EXACT_MASS>
388.22631153

> <PUBCHEM_MOLECULAR_FORMULA>
C24H28N4O

> <PUBCHEM_MOLECULAR_WEIGHT>
388.5

> <PUBCHEM_OPENEYE_CAN_SMILES>
C1CN(CCN1CCCCNC(=O)C2=CC3=C(C=C2)N=CC=C3)C4=CC=CC=C4

> <PUBCHEM_OPENEYE_ISO_SMILES>
C1CN(CCN1CCCCNC(=O)C2=CC3=C(C=C2)N=CC=C3)C4=CC=CC=C4

> <PUBCHEM_CACTVS_TPSA>
48.5

> <PUBCHEM_MONOISOTOPIC_WEIGHT>
388.22631153

> <PUBCHEM_TOTAL_CHARGE>
0

> <PUBCHEM_HEAVY_ATOM_COUNT>
29

> <PUBCHEM_ATOM_DEF_STEREO_COUNT>
0

> <PUBCHEM_ATOM_UDEF_STEREO_COUNT>
0

> <PUBCHEM_BOND_DEF_STEREO_COUNT>
0

> <PUBCHEM_BOND_UDEF_STEREO_COUNT>
0

> <PUBCHEM_ISOTOPIC_ATOM_COUNT>
0

> <PUBCHEM_COMPONENT_COUNT>
1

> <PUBCHEM_CACTVS_TAUTO_COUNT>
-1

> <PUBCHEM_COORDINATE_TYPE>
1
5
255

> <PUBCHEM_BONDANNOTATIONS>
13  15  8
13  16  8
15  17  8
16  18  8
17  19  8
18  19  8
21  22  8
21  23  8
22  24  8
23  26  8
24  25  8
24  27  8
25  26  8
27  28  8
28  29  8
5  25  8
5  29  8

$$$$
