90645290
  -OEChem-09292322352D

 69 72  0     0  0  0  0  0  0999 V2000
    5.5443    1.9840    0.0000 S   0  0  0  0  0  0  0  0  0  0  0  0
   12.1279   -4.1394    0.0000 O   0  0  0  0  0  0  0  0  0  0  0  0
    7.6279    3.6548    0.0000 O   0  0  0  0  0  0  0  0  0  0  0  0
   12.1279   -0.6753    0.0000 N   0  0  0  0  0  0  0  0  0  0  0  0
   13.1279   -2.4074    0.0000 N   0  0  0  0  0  0  0  0  0  0  0  0
    7.6279    1.9227    0.0000 N   0  0  0  0  0  0  0  0  0  0  0  0
    3.7320    1.7888    0.0000 N   0  0  0  0  0  0  0  0  0  0  0  0
    5.8550    4.5440    0.0000 N   0  0  0  0  0  0  0  0  0  0  0  0
   11.6279   -1.5414    0.0000 C   0  0  0  0  0  0  0  0  0  0  0  0
   13.1279   -0.6753    0.0000 C   0  0  0  0  0  0  0  0  0  0  0  0
   12.1279   -2.4074    0.0000 C   0  0  0  0  0  0  0  0  0  0  0  0
   13.6279   -1.5414    0.0000 C   0  0  0  0  0  0  0  0  0  0  0  0
   11.6279    0.1907    0.0000 C   0  0  0  0  0  0  0  0  0  0  0  0
   10.6279    0.1907    0.0000 C   0  0  0  0  0  0  0  0  0  0  0  0
   10.1279    1.0567    0.0000 C   0  0  0  0  0  0  0  0  0  0  0  0
   13.6279   -3.2734    0.0000 C   0  0  0  0  0  0  0  0  0  0  0  0
    9.1279    1.0567    0.0000 C   0  0  0  0  0  0  0  0  0  0  0  0
   13.1279   -4.1394    0.0000 C   0  0  0  0  0  0  0  0  0  0  0  0
    8.6279    1.9227    0.0000 C   0  0  0  0  0  0  0  0  0  0  0  0
   14.6279   -3.2734    0.0000 C   0  0  0  0  0  0  0  0  0  0  0  0
   13.6279   -5.0055    0.0000 C   0  0  0  0  0  0  0  0  0  0  0  0
   15.1279   -4.1394    0.0000 C   0  0  0  0  0  0  0  0  0  0  0  0
   14.6279   -5.0055    0.0000 C   0  0  0  0  0  0  0  0  0  0  0  0
    7.1279    2.7888    0.0000 C   0  0  0  0  0  0  0  0  0  0  0  0
    6.1279    2.7888    0.0000 C   0  0  0  0  0  0  0  0  0  0  0  0
    4.5981    3.2888    0.0000 C   0  0  0  0  0  0  0  0  0  0  0  0
    5.5443    3.5935    0.0000 C   0  0  0  0  0  0  0  0  0  0  0  0
   11.6279   -5.0055    0.0000 C   0  0  0  0  0  0  0  0  0  0  0  0
    4.5981    2.2888    0.0000 C   0  0  0  0  0  0  0  0  0  0  0  0
    3.7320    3.7888    0.0000 C   0  0  0  0  0  0  0  0  0  0  0  0
    2.8660    3.2888    0.0000 C   0  0  0  0  0  0  0  0  0  0  0  0
    2.8660    2.2888    0.0000 C   0  0  0  0  0  0  0  0  0  0  0  0
    3.7320    4.7888    0.0000 C   0  0  0  0  0  0  0  0  0  0  0  0
    2.0000    1.7888    0.0000 C   0  0  0  0  0  0  0  0  0  0  0  0
   11.1530   -1.1428    0.0000 H   0  0  0  0  0  0  0  0  0  0  0  0
   11.1530   -1.9399    0.0000 H   0  0  0  0  0  0  0  0  0  0  0  0
   13.7105   -0.4633    0.0000 H   0  0  0  0  0  0  0  0  0  0  0  0
   13.0202   -0.0648    0.0000 H   0  0  0  0  0  0  0  0  0  0  0  0
   11.5453   -2.6194    0.0000 H   0  0  0  0  0  0  0  0  0  0  0  0
   12.2356   -3.0180    0.0000 H   0  0  0  0  0  0  0  0  0  0  0  0
   14.1029   -1.9399    0.0000 H   0  0  0  0  0  0  0  0  0  0  0  0
   14.1029   -1.1428    0.0000 H   0  0  0  0  0  0  0  0  0  0  0  0
   12.2105    0.4027    0.0000 H   0  0  0  0  0  0  0  0  0  0  0  0
   11.5202    0.8013    0.0000 H   0  0  0  0  0  0  0  0  0  0  0  0
   10.0453   -0.0214    0.0000 H   0  0  0  0  0  0  0  0  0  0  0  0
   10.7356   -0.4199    0.0000 H   0  0  0  0  0  0  0  0  0  0  0  0
   10.7105    1.2688    0.0000 H   0  0  0  0  0  0  0  0  0  0  0  0
   10.0202    1.6673    0.0000 H   0  0  0  0  0  0  0  0  0  0  0  0
    8.5453    0.8447    0.0000 H   0  0  0  0  0  0  0  0  0  0  0  0
    9.2356    0.4461    0.0000 H   0  0  0  0  0  0  0  0  0  0  0  0
    9.2105    2.1348    0.0000 H   0  0  0  0  0  0  0  0  0  0  0  0
    8.5202    2.5333    0.0000 H   0  0  0  0  0  0  0  0  0  0  0  0
   14.9379   -2.7365    0.0000 H   0  0  0  0  0  0  0  0  0  0  0  0
   13.3179   -5.5424    0.0000 H   0  0  0  0  0  0  0  0  0  0  0  0
   15.7479   -4.1394    0.0000 H   0  0  0  0  0  0  0  0  0  0  0  0
    7.3179    1.3858    0.0000 H   0  0  0  0  0  0  0  0  0  0  0  0
   14.9379   -5.5424    0.0000 H   0  0  0  0  0  0  0  0  0  0  0  0
   11.0910   -4.6955    0.0000 H   0  0  0  0  0  0  0  0  0  0  0  0
   11.3179   -5.5424    0.0000 H   0  0  0  0  0  0  0  0  0  0  0  0
   12.1648   -5.3155    0.0000 H   0  0  0  0  0  0  0  0  0  0  0  0
    2.3291    3.5988    0.0000 H   0  0  0  0  0  0  0  0  0  0  0  0
    4.3520    4.7888    0.0000 H   0  0  0  0  0  0  0  0  0  0  0  0
    3.7320    5.4088    0.0000 H   0  0  0  0  0  0  0  0  0  0  0  0
    3.1120    4.7888    0.0000 H   0  0  0  0  0  0  0  0  0  0  0  0
    6.4616    4.6719    0.0000 H   0  0  0  0  0  0  0  0  0  0  0  0
    5.4409    5.0055    0.0000 H   0  0  0  0  0  0  0  0  0  0  0  0
    1.6900    2.3257    0.0000 H   0  0  0  0  0  0  0  0  0  0  0  0
    1.4631    1.4788    0.0000 H   0  0  0  0  0  0  0  0  0  0  0  0
    2.3100    1.2518    0.0000 H   0  0  0  0  0  0  0  0  0  0  0  0
  1 25  1  0  0  0  0
  1 29  1  0  0  0  0
  2 18  1  0  0  0  0
  2 28  1  0  0  0  0
  3 24  2  0  0  0  0
  4  9  1  0  0  0  0
  4 10  1  0  0  0  0
  4 13  1  0  0  0  0
  5 11  1  0  0  0  0
  5 12  1  0  0  0  0
  5 16  1  0  0  0  0
  6 19  1  0  0  0  0
  6 24  1  0  0  0  0
  6 56  1  0  0  0  0
  7 29  1  0  0  0  0
  7 32  2  0  0  0  0
  8 27  1  0  0  0  0
  8 65  1  0  0  0  0
  8 66  1  0  0  0  0
  9 11  1  0  0  0  0
  9 35  1  0  0  0  0
  9 36  1  0  0  0  0
 10 12  1  0  0  0  0
 10 37  1  0  0  0  0
 10 38  1  0  0  0  0
 11 39  1  0  0  0  0
 11 40  1  0  0  0  0
 12 41  1  0  0  0  0
 12 42  1  0  0  0  0
 13 14  1  0  0  0  0
 13 43  1  0  0  0  0
 13 44  1  0  0  0  0
 14 15  1  0  0  0  0
 14 45  1  0  0  0  0
 14 46  1  0  0  0  0
 15 17  1  0  0  0  0
 15 47  1  0  0  0  0
 15 48  1  0  0  0  0
 16 18  1  0  0  0  0
 16 20  2  0  0  0  0
 17 19  1  0  0  0  0
 17 49  1  0  0  0  0
 17 50  1  0  0  0  0
 18 21  2  0  0  0  0
 19 51  1  0  0  0  0
 19 52  1  0  0  0  0
 20 22  1  0  0  0  0
 20 53  1  0  0  0  0
 21 23  1  0  0  0  0
 21 54  1  0  0  0  0
 22 23  2  0  0  0  0
 22 55  1  0  0  0  0
 23 57  1  0  0  0  0
 24 25  1  0  0  0  0
 25 27  2  0  0  0  0
 26 27  1  0  0  0  0
 26 29  2  0  0  0  0
 26 30  1  0  0  0  0
 28 58  1  0  0  0  0
 28 59  1  0  0  0  0
 28 60  1  0  0  0  0
 30 31  2  0  0  0  0
 30 33  1  0  0  0  0
 31 32  1  0  0  0  0
 31 61  1  0  0  0  0
 32 34  1  0  0  0  0
 33 62  1  0  0  0  0
 33 63  1  0  0  0  0
 33 64  1  0  0  0  0
 34 67  1  0  0  0  0
 34 68  1  0  0  0  0
 34 69  1  0  0  0  0
M  END
> <PUBCHEM_COMPOUND_CID>
90645290

> <PUBCHEM_COMPOUND_CANONICALIZED>
1

> <PUBCHEM_CACTVS_COMPLEXITY>
647

> <PUBCHEM_CACTVS_HBOND_ACCEPTOR>
7

> <PUBCHEM_CACTVS_HBOND_DONOR>
2

> <PUBCHEM_CACTVS_ROTATABLE_BOND>
9

> <PUBCHEM_CACTVS_SUBSKEYS>
AAADcfB7sABAAAAAAAAAAAAAAAAAASAAAAA8WIAAAAAAAFgB/AAAHgQQAAAADAzB3gYyx9PIFAisAyVyVACD2KBlKjgImLU/bNgOZnrk9duVNaxk1hH46UeYyYCOgAAAAAAAEAAAAAAAAAAgAAAAAAAAAA==

> <PUBCHEM_IUPAC_OPENEYE_NAME>
3-amino-N-[5-[4-(2-methoxyphenyl)piperazin-1-yl]pentyl]-4,6-dimethyl-thieno[2,3-b]pyridine-2-carboxamide

> <PUBCHEM_IUPAC_CAS_NAME>
3-amino-N-[5-[4-(2-methoxyphenyl)-1-piperazinyl]pentyl]-4,6-dimethyl-2-thieno[2,3-b]pyridinecarboxamide

> <PUBCHEM_IUPAC_NAME_MARKUP>
3-amino-<I>N</I>-[5-[4-(2-methoxyphenyl)piperazin-1-yl]pentyl]-4,6-dimethylthieno[2,3-b]pyridine-2-carboxamide

> <PUBCHEM_IUPAC_NAME>
3-amino-N-[5-[4-(2-methoxyphenyl)piperazin-1-yl]pentyl]-4,6-dimethylthieno[2,3-b]pyridine-2-carboxamide

> <PUBCHEM_IUPAC_SYSTEMATIC_NAME>
3-azanyl-N-[5-[4-(2-methoxyphenyl)piperazin-1-yl]pentyl]-4,6-dimethyl-thieno[2,3-b]pyridine-2-carboxamide

> <PUBCHEM_IUPAC_TRADITIONAL_NAME>
3-amino-N-[5-[4-(2-methoxyphenyl)piperazino]pentyl]-4,6-dimethyl-thieno[2,3-b]pyridine-2-carboxamide

> <PUBCHEM_IUPAC_INCHI>
InChI=1S/C26H35N5O2S/c1-18-17-19(2)29-26-22(18)23(27)24(34-26)25(32)28-11-7-4-8-12-30-13-15-31(16-14-30)20-9-5-6-10-21(20)33-3/h5-6,9-10,17H,4,7-8,11-16,27H2,1-3H3,(H,28,32)

> <PUBCHEM_IUPAC_INCHIKEY>
KUBIIYUHICAQBT-UHFFFAOYSA-N

> <PUBCHEM_XLOGP3_AA>
5.1

> <PUBCHEM_EXACT_MASS>
481.25114655

> <PUBCHEM_MOLECULAR_FORMULA>
C26H35N5O2S

> <PUBCHEM_MOLECULAR_WEIGHT>
481.7

> <PUBCHEM_OPENEYE_CAN_SMILES>
CC1=CC(=NC2=C1C(=C(S2)C(=O)NCCCCCN3CCN(CC3)C4=CC=CC=C4OC)N)C

> <PUBCHEM_OPENEYE_ISO_SMILES>
CC1=CC(=NC2=C1C(=C(S2)C(=O)NCCCCCN3CCN(CC3)C4=CC=CC=C4OC)N)C

> <PUBCHEM_CACTVS_TPSA>
112

> <PUBCHEM_MONOISOTOPIC_WEIGHT>
481.25114655

> <PUBCHEM_TOTAL_CHARGE>
0

> <PUBCHEM_HEAVY_ATOM_COUNT>
34

> <PUBCHEM_ATOM_DEF_STEREO_COUNT>
0

> <PUBCHEM_ATOM_UDEF_STEREO_COUNT>
0

> <PUBCHEM_BOND_DEF_STEREO_COUNT>
0

> <PUBCHEM_BOND_UDEF_STEREO_COUNT>
0

> <PUBCHEM_ISOTOPIC_ATOM_COUNT>
0

> <PUBCHEM_COMPONENT_COUNT>
1

> <PUBCHEM_CACTVS_TAUTO_COUNT>
-1

> <PUBCHEM_COORDINATE_TYPE>
1
5
255

> <PUBCHEM_BONDANNOTATIONS>
1  25  8
1  29  8
16  18  8
16  20  8
18  21  8
20  22  8
21  23  8
22  23  8
25  27  8
26  27  8
26  29  8
26  30  8
30  31  8
31  32  8
7  29  8
7  32  8

$$$$
