45268990
  -OEChem-09292322282D

 54 57  0     0  0  0  0  0  0999 V2000
    8.0406   -0.0696    0.0000 O   0  0  0  0  0  0  0  0  0  0  0  0
   10.7097   -1.9742    0.0000 O   0  0  0  0  0  0  0  0  0  0  0  0
    5.2619    2.5565    0.0000 N   0  0  0  0  0  0  0  0  0  0  0  0
    7.7619    1.6904    0.0000 N   0  0  0  0  0  0  0  0  0  0  0  0
    9.3007    1.1904    0.0000 N   0  0  0  0  0  0  0  0  0  0  0  0
    6.2619    2.5565    0.0000 C   0  0  0  0  0  0  0  0  0  0  0  0
    6.7619    1.6904    0.0000 C   0  0  0  0  0  0  0  0  0  0  0  0
    4.6783    1.7517    0.0000 C   0  0  0  0  0  0  0  0  0  0  0  0
    4.6783    3.3612    0.0000 C   0  0  0  0  0  0  0  0  0  0  0  0
    8.3497    2.4995    0.0000 C   0  0  0  0  0  0  0  0  0  0  0  0
    3.7320    2.0565    0.0000 C   0  0  0  0  0  0  0  0  0  0  0  0
    3.7320    3.0565    0.0000 C   0  0  0  0  0  0  0  0  0  0  0  0
    9.3007    2.1904    0.0000 C   0  0  0  0  0  0  0  0  0  0  0  0
    8.3497    0.8814    0.0000 C   0  0  0  0  0  0  0  0  0  0  0  0
   10.1097    0.6027    0.0000 C   0  0  0  0  0  0  0  0  0  0  0  0
    2.8660    1.5565    0.0000 C   0  0  0  0  0  0  0  0  0  0  0  0
    2.8660    3.5565    0.0000 C   0  0  0  0  0  0  0  0  0  0  0  0
    2.0000    2.0565    0.0000 C   0  0  0  0  0  0  0  0  0  0  0  0
    2.0000    3.0565    0.0000 C   0  0  0  0  0  0  0  0  0  0  0  0
   10.0052   -0.3919    0.0000 C   0  0  0  0  0  0  0  0  0  0  0  0
   11.0233    1.0094    0.0000 C   0  0  0  0  0  0  0  0  0  0  0  0
   10.8142   -0.9796    0.0000 C   0  0  0  0  0  0  0  0  0  0  0  0
   11.8323    0.4216    0.0000 C   0  0  0  0  0  0  0  0  0  0  0  0
   11.7278   -0.5729    0.0000 C   0  0  0  0  0  0  0  0  0  0  0  0
   11.5187   -2.5620    0.0000 C   0  0  0  0  0  0  0  0  0  0  0  0
   11.4142   -3.5565    0.0000 C   0  0  0  0  0  0  0  0  0  0  0  0
   12.4323   -2.1552    0.0000 C   0  0  0  0  0  0  0  0  0  0  0  0
    6.8445    2.7685    0.0000 H   0  0  0  0  0  0  0  0  0  0  0  0
    6.1542    3.1670    0.0000 H   0  0  0  0  0  0  0  0  0  0  0  0
    6.1793    1.4784    0.0000 H   0  0  0  0  0  0  0  0  0  0  0  0
    6.8695    1.0799    0.0000 H   0  0  0  0  0  0  0  0  0  0  0  0
    4.4272    1.1848    0.0000 H   0  0  0  0  0  0  0  0  0  0  0  0
    5.2156    1.4425    0.0000 H   0  0  0  0  0  0  0  0  0  0  0  0
    5.2156    3.6704    0.0000 H   0  0  0  0  0  0  0  0  0  0  0  0
    4.4272    3.9281    0.0000 H   0  0  0  0  0  0  0  0  0  0  0  0
    8.6018    3.0659    0.0000 H   0  0  0  0  0  0  0  0  0  0  0  0
    7.8127    2.8095    0.0000 H   0  0  0  0  0  0  0  0  0  0  0  0
    9.9173    2.1256    0.0000 H   0  0  0  0  0  0  0  0  0  0  0  0
    9.4296    2.7969    0.0000 H   0  0  0  0  0  0  0  0  0  0  0  0
    2.8660    0.9365    0.0000 H   0  0  0  0  0  0  0  0  0  0  0  0
    2.8660    4.1765    0.0000 H   0  0  0  0  0  0  0  0  0  0  0  0
    1.4631    1.7465    0.0000 H   0  0  0  0  0  0  0  0  0  0  0  0
    1.4631    3.3665    0.0000 H   0  0  0  0  0  0  0  0  0  0  0  0
    9.4388   -0.6440    0.0000 H   0  0  0  0  0  0  0  0  0  0  0  0
   11.0881    1.6260    0.0000 H   0  0  0  0  0  0  0  0  0  0  0  0
   12.3987    0.6738    0.0000 H   0  0  0  0  0  0  0  0  0  0  0  0
   12.2294   -0.9373    0.0000 H   0  0  0  0  0  0  0  0  0  0  0  0
   10.9523   -2.8141    0.0000 H   0  0  0  0  0  0  0  0  0  0  0  0
   10.7976   -3.4917    0.0000 H   0  0  0  0  0  0  0  0  0  0  0  0
   11.3494   -4.1731    0.0000 H   0  0  0  0  0  0  0  0  0  0  0  0
   12.0308   -3.6213    0.0000 H   0  0  0  0  0  0  0  0  0  0  0  0
   12.6844   -2.7216    0.0000 H   0  0  0  0  0  0  0  0  0  0  0  0
   12.9987   -1.9030    0.0000 H   0  0  0  0  0  0  0  0  0  0  0  0
   12.1801   -1.5888    0.0000 H   0  0  0  0  0  0  0  0  0  0  0  0
  1 14  2  0  0  0  0
  2 22  1  0  0  0  0
  2 25  1  0  0  0  0
  3  6  1  0  0  0  0
  3  8  1  0  0  0  0
  3  9  1  0  0  0  0
  4  7  1  0  0  0  0
  4 10  1  0  0  0  0
  4 14  1  0  0  0  0
  5 13  1  0  0  0  0
  5 14  1  0  0  0  0
  5 15  1  0  0  0  0
  6  7  1  0  0  0  0
  6 28  1  0  0  0  0
  6 29  1  0  0  0  0
  7 30  1  0  0  0  0
  7 31  1  0  0  0  0
  8 11  1  0  0  0  0
  8 32  1  0  0  0  0
  8 33  1  0  0  0  0
  9 12  1  0  0  0  0
  9 34  1  0  0  0  0
  9 35  1  0  0  0  0
 10 13  1  0  0  0  0
 10 36  1  0  0  0  0
 10 37  1  0  0  0  0
 11 12  1  0  0  0  0
 11 16  2  0  0  0  0
 12 17  2  0  0  0  0
 13 38  1  0  0  0  0
 13 39  1  0  0  0  0
 15 20  2  0  0  0  0
 15 21  1  0  0  0  0
 16 18  1  0  0  0  0
 16 40  1  0  0  0  0
 17 19  1  0  0  0  0
 17 41  1  0  0  0  0
 18 19  2  0  0  0  0
 18 42  1  0  0  0  0
 19 43  1  0  0  0  0
 20 22  1  0  0  0  0
 20 44  1  0  0  0  0
 21 23  2  0  0  0  0
 21 45  1  0  0  0  0
 22 24  2  0  0  0  0
 23 24  1  0  0  0  0
 23 46  1  0  0  0  0
 24 47  1  0  0  0  0
 25 26  1  0  0  0  0
 25 27  1  0  0  0  0
 25 48  1  0  0  0  0
 26 49  1  0  0  0  0
 26 50  1  0  0  0  0
 26 51  1  0  0  0  0
 27 52  1  0  0  0  0
 27 53  1  0  0  0  0
 27 54  1  0  0  0  0
M  END
> <PUBCHEM_COMPOUND_CID>
45268990

> <PUBCHEM_COMPOUND_CANONICALIZED>
1

> <PUBCHEM_CACTVS_COMPLEXITY>
498

> <PUBCHEM_CACTVS_HBOND_ACCEPTOR>
3

> <PUBCHEM_CACTVS_HBOND_DONOR>
0

> <PUBCHEM_CACTVS_ROTATABLE_BOND>
6

> <PUBCHEM_CACTVS_SUBSKEYS>
AAADceB7MAAAAAAAAAAAAAAAAAAAAWLAAAAwYAAAAAAAAFgBQAAAHgAAAAAADBzhmAYzxoMABACIAiRCUACCCAAhIgAIiAAObIiMZiLEsZuWOCjuxhvI6CeQ0IMOgAAAAgAQAAAAAAAEACAAAAAAAAAAAA==

> <PUBCHEM_IUPAC_OPENEYE_NAME>
1-(2-isoindolin-2-ylethyl)-3-(3-isopropoxyphenyl)imidazolidin-2-one

> <PUBCHEM_IUPAC_CAS_NAME>
1-[2-(1,3-dihydroisoindol-2-yl)ethyl]-3-(3-propan-2-yloxyphenyl)-2-imidazolidinone

> <PUBCHEM_IUPAC_NAME_MARKUP>
1-[2-(1,3-dihydroisoindol-2-yl)ethyl]-3-(3-propan-2-yloxyphenyl)imidazolidin-2-one

> <PUBCHEM_IUPAC_NAME>
1-[2-(1,3-dihydroisoindol-2-yl)ethyl]-3-(3-propan-2-yloxyphenyl)imidazolidin-2-one

> <PUBCHEM_IUPAC_SYSTEMATIC_NAME>
1-[2-(1,3-dihydroisoindol-2-yl)ethyl]-3-(3-propan-2-yloxyphenyl)imidazolidin-2-one

> <PUBCHEM_IUPAC_TRADITIONAL_NAME>
1-(2-isoindolin-2-ylethyl)-3-(3-isopropoxyphenyl)-2-imidazolidinone

> <PUBCHEM_IUPAC_INCHI>
InChI=1S/C22H27N3O2/c1-17(2)27-21-9-5-8-20(14-21)25-13-12-24(22(25)26)11-10-23-15-18-6-3-4-7-19(18)16-23/h3-9,14,17H,10-13,15-16H2,1-2H3

> <PUBCHEM_IUPAC_INCHIKEY>
ZDHMHTKEGJLXMO-UHFFFAOYSA-N

> <PUBCHEM_XLOGP3_AA>
2.9

> <PUBCHEM_EXACT_MASS>
365.21032711

> <PUBCHEM_MOLECULAR_FORMULA>
C22H27N3O2

> <PUBCHEM_MOLECULAR_WEIGHT>
365.5

> <PUBCHEM_OPENEYE_CAN_SMILES>
CC(C)OC1=CC=CC(=C1)N2CCN(C2=O)CCN3CC4=CC=CC=C4C3

> <PUBCHEM_OPENEYE_ISO_SMILES>
CC(C)OC1=CC=CC(=C1)N2CCN(C2=O)CCN3CC4=CC=CC=C4C3

> <PUBCHEM_CACTVS_TPSA>
36

> <PUBCHEM_MONOISOTOPIC_WEIGHT>
365.21032711

> <PUBCHEM_TOTAL_CHARGE>
0

> <PUBCHEM_HEAVY_ATOM_COUNT>
27

> <PUBCHEM_ATOM_DEF_STEREO_COUNT>
0

> <PUBCHEM_ATOM_UDEF_STEREO_COUNT>
0

> <PUBCHEM_BOND_DEF_STEREO_COUNT>
0

> <PUBCHEM_BOND_UDEF_STEREO_COUNT>
0

> <PUBCHEM_ISOTOPIC_ATOM_COUNT>
0

> <PUBCHEM_COMPONENT_COUNT>
1

> <PUBCHEM_CACTVS_TAUTO_COUNT>
-1

> <PUBCHEM_COORDINATE_TYPE>
1
5
255

> <PUBCHEM_BONDANNOTATIONS>
11  12  8
11  16  8
12  17  8
15  20  8
15  21  8
16  18  8
17  19  8
18  19  8
20  22  8
21  23  8
22  24  8
23  24  8

$$$$
