11653679
  -OEChem-09292322232D

 50 52  0     1  0  0  0  0  0999 V2000
    3.1235   -6.6245    0.0000 Cl  0  0  0  0  0  0  0  0  0  0  0  0
    5.1002    6.6245    0.0000 F   0  0  0  0  0  0  0  0  0  0  0  0
    2.3674    2.9459    0.0000 O   0  0  0  0  0  0  0  0  0  0  0  0
    3.6235   -0.4338    0.0000 N   0  0  3  0  0  0  0  0  0  0  0  0
    3.1235   -2.6245    0.0000 N   0  0  3  0  0  0  0  0  0  0  0  0
    2.6235   -0.4338    0.0000 C   0  0  0  0  0  0  0  0  0  0  0  0
    4.2470   -1.2157    0.0000 C   0  0  0  0  0  0  0  0  0  0  0  0
    2.0000   -1.2157    0.0000 C   0  0  0  0  0  0  0  0  0  0  0  0
    4.0245   -2.1906    0.0000 C   0  0  0  0  0  0  0  0  0  0  0  0
    2.2225   -2.1906    0.0000 C   0  0  0  0  0  0  0  0  0  0  0  0
    4.0574    0.4671    0.0000 C   0  0  0  0  0  0  0  0  0  0  0  0
    3.4940    1.2934    0.0000 C   0  0  0  0  0  0  0  0  0  0  0  0
    3.1235   -3.6245    0.0000 C   0  0  0  0  0  0  0  0  0  0  0  0
    3.9279    2.1944    0.0000 C   0  0  0  0  0  0  0  0  0  0  0  0
    2.2575   -4.1245    0.0000 C   0  0  0  0  0  0  0  0  0  0  0  0
    3.9895   -4.1245    0.0000 C   0  0  0  0  0  0  0  0  0  0  0  0
    3.3646    3.0206    0.0000 C   0  0  0  0  0  0  0  0  0  0  0  0
    2.2575   -5.1245    0.0000 C   0  0  0  0  0  0  0  0  0  0  0  0
    3.9895   -5.1245    0.0000 C   0  0  0  0  0  0  0  0  0  0  0  0
    3.7985    3.9216    0.0000 C   0  0  0  0  0  0  0  0  0  0  0  0
    3.1235   -5.6245    0.0000 C   0  0  0  0  0  0  0  0  0  0  0  0
    4.7957    3.9963    0.0000 C   0  0  0  0  0  0  0  0  0  0  0  0
    3.2352    4.7478    0.0000 C   0  0  0  0  0  0  0  0  0  0  0  0
    5.2296    4.8973    0.0000 C   0  0  0  0  0  0  0  0  0  0  0  0
    3.6691    5.6488    0.0000 C   0  0  0  0  0  0  0  0  0  0  0  0
    4.6663    5.7235    0.0000 C   0  0  0  0  0  0  0  0  0  0  0  0
    2.7614    0.1706    0.0000 H   0  0  0  0  0  0  0  0  0  0  0  0
    2.0649   -0.1648    0.0000 H   0  0  0  0  0  0  0  0  0  0  0  0
    4.8056   -1.4847    0.0000 H   0  0  0  0  0  0  0  0  0  0  0  0
    4.6335   -0.7309    0.0000 H   0  0  0  0  0  0  0  0  0  0  0  0
    1.6134   -0.7309    0.0000 H   0  0  0  0  0  0  0  0  0  0  0  0
    1.4414   -1.4847    0.0000 H   0  0  0  0  0  0  0  0  0  0  0  0
    4.1624   -2.7950    0.0000 H   0  0  0  0  0  0  0  0  0  0  0  0
    4.6445   -2.1906    0.0000 H   0  0  0  0  0  0  0  0  0  0  0  0
    1.6025   -2.1906    0.0000 H   0  0  0  0  0  0  0  0  0  0  0  0
    2.0846   -2.7950    0.0000 H   0  0  0  0  0  0  0  0  0  0  0  0
    4.5608    0.1052    0.0000 H   0  0  0  0  0  0  0  0  0  0  0  0
    4.5012    0.9001    0.0000 H   0  0  0  0  0  0  0  0  0  0  0  0
    2.9906    1.6553    0.0000 H   0  0  0  0  0  0  0  0  0  0  0  0
    3.0502    0.8605    0.0000 H   0  0  0  0  0  0  0  0  0  0  0  0
    4.4313    1.8324    0.0000 H   0  0  0  0  0  0  0  0  0  0  0  0
    4.3718    2.6273    0.0000 H   0  0  0  0  0  0  0  0  0  0  0  0
    1.7205   -3.8145    0.0000 H   0  0  0  0  0  0  0  0  0  0  0  0
    4.5264   -3.8145    0.0000 H   0  0  0  0  0  0  0  0  0  0  0  0
    1.7205   -5.4345    0.0000 H   0  0  0  0  0  0  0  0  0  0  0  0
    4.5264   -5.4345    0.0000 H   0  0  0  0  0  0  0  0  0  0  0  0
    5.1450    3.4840    0.0000 H   0  0  0  0  0  0  0  0  0  0  0  0
    2.6169    4.7015    0.0000 H   0  0  0  0  0  0  0  0  0  0  0  0
    5.8479    4.9436    0.0000 H   0  0  0  0  0  0  0  0  0  0  0  0
    3.3198    6.1610    0.0000 H   0  0  0  0  0  0  0  0  0  0  0  0
  1 21  1  0  0  0  0
  2 26  1  0  0  0  0
  3 17  2  0  0  0  0
  4  6  1  0  0  0  0
  4  7  1  0  0  0  0
  4 11  1  0  0  0  0
  5  9  1  0  0  0  0
  5 10  1  0  0  0  0
  5 13  1  0  0  0  0
  6  8  1  0  0  0  0
  6 27  1  0  0  0  0
  6 28  1  0  0  0  0
  7  9  1  0  0  0  0
  7 29  1  0  0  0  0
  7 30  1  0  0  0  0
  8 10  1  0  0  0  0
  8 31  1  0  0  0  0
  8 32  1  0  0  0  0
  9 33  1  0  0  0  0
  9 34  1  0  0  0  0
 10 35  1  0  0  0  0
 10 36  1  0  0  0  0
 11 12  1  0  0  0  0
 11 37  1  0  0  0  0
 11 38  1  0  0  0  0
 12 14  1  0  0  0  0
 12 39  1  0  0  0  0
 12 40  1  0  0  0  0
 13 15  2  0  0  0  0
 13 16  1  0  0  0  0
 14 17  1  0  0  0  0
 14 41  1  0  0  0  0
 14 42  1  0  0  0  0
 15 18  1  0  0  0  0
 15 43  1  0  0  0  0
 16 19  2  0  0  0  0
 16 44  1  0  0  0  0
 17 20  1  0  0  0  0
 18 21  2  0  0  0  0
 18 45  1  0  0  0  0
 19 21  1  0  0  0  0
 19 46  1  0  0  0  0
 20 22  2  0  0  0  0
 20 23  1  0  0  0  0
 22 24  1  0  0  0  0
 22 47  1  0  0  0  0
 23 25  2  0  0  0  0
 23 48  1  0  0  0  0
 24 26  2  0  0  0  0
 24 49  1  0  0  0  0
 25 26  1  0  0  0  0
 25 50  1  0  0  0  0
M  END
> <PUBCHEM_COMPOUND_CID>
11653679

> <PUBCHEM_COMPOUND_CANONICALIZED>
1

> <PUBCHEM_CACTVS_COMPLEXITY>
434

> <PUBCHEM_CACTVS_HBOND_ACCEPTOR>
4

> <PUBCHEM_CACTVS_HBOND_DONOR>
0

> <PUBCHEM_CACTVS_ROTATABLE_BOND>
6

> <PUBCHEM_CACTVS_SUBSKEYS>
AAADceB7IQAEAAAAAAAAAAAAAAAAAAAAAAAwYAAABYAAAAABQAAAHwIAAAAADA7BmCwwwIMAAACIAqRSQACCAAAlBwAIiAEIZsgIYDLB15GUIQhggADIyYcciICOAABAAAAAAAAAAIAAAAAAAAAAAAAAAA==

> <PUBCHEM_IUPAC_OPENEYE_NAME>
4-[4-(4-chlorophenyl)-1,4-diazepan-1-yl]-1-(4-fluorophenyl)butan-1-one

> <PUBCHEM_IUPAC_CAS_NAME>
4-[4-(4-chlorophenyl)-1,4-diazepan-1-yl]-1-(4-fluorophenyl)-1-butanone

> <PUBCHEM_IUPAC_NAME_MARKUP>
4-[4-(4-chlorophenyl)-1,4-diazepan-1-yl]-1-(4-fluorophenyl)butan-1-one

> <PUBCHEM_IUPAC_NAME>
4-[4-(4-chlorophenyl)-1,4-diazepan-1-yl]-1-(4-fluorophenyl)butan-1-one

> <PUBCHEM_IUPAC_SYSTEMATIC_NAME>
4-[4-(4-chlorophenyl)-1,4-diazepan-1-yl]-1-(4-fluorophenyl)butan-1-one

> <PUBCHEM_IUPAC_TRADITIONAL_NAME>
4-[4-(4-chlorophenyl)-1,4-diazepan-1-yl]-1-(4-fluorophenyl)butan-1-one

> <PUBCHEM_IUPAC_INCHI>
InChI=1S/C21H24ClFN2O/c22-18-6-10-20(11-7-18)25-14-2-13-24(15-16-25)12-1-3-21(26)17-4-8-19(23)9-5-17/h4-11H,1-3,12-16H2

> <PUBCHEM_IUPAC_INCHIKEY>
MVKKLGNVARQKRP-UHFFFAOYSA-N

> <PUBCHEM_XLOGP3_AA>
4.6

> <PUBCHEM_EXACT_MASS>
374.1561192

> <PUBCHEM_MOLECULAR_FORMULA>
C21H24ClFN2O

> <PUBCHEM_MOLECULAR_WEIGHT>
374.9

> <PUBCHEM_OPENEYE_CAN_SMILES>
C1CN(CCN(C1)C2=CC=C(C=C2)Cl)CCCC(=O)C3=CC=C(C=C3)F

> <PUBCHEM_OPENEYE_ISO_SMILES>
C1CN(CCN(C1)C2=CC=C(C=C2)Cl)CCCC(=O)C3=CC=C(C=C3)F

> <PUBCHEM_CACTVS_TPSA>
23.6

> <PUBCHEM_MONOISOTOPIC_WEIGHT>
374.1561192

> <PUBCHEM_TOTAL_CHARGE>
0

> <PUBCHEM_HEAVY_ATOM_COUNT>
26

> <PUBCHEM_ATOM_DEF_STEREO_COUNT>
0

> <PUBCHEM_ATOM_UDEF_STEREO_COUNT>
0

> <PUBCHEM_BOND_DEF_STEREO_COUNT>
0

> <PUBCHEM_BOND_UDEF_STEREO_COUNT>
0

> <PUBCHEM_ISOTOPIC_ATOM_COUNT>
0

> <PUBCHEM_COMPONENT_COUNT>
1

> <PUBCHEM_CACTVS_TAUTO_COUNT>
-1

> <PUBCHEM_COORDINATE_TYPE>
1
5
255

> <PUBCHEM_BONDANNOTATIONS>
13  15  8
13  16  8
15  18  8
16  19  8
18  21  8
19  21  8
20  22  8
20  23  8
22  24  8
23  25  8
24  26  8
25  26  8

$$$$
