44323890
  -OEChem-09292322122D

 48 51  0     0  0  0  0  0  0999 V2000
    3.9491    0.9443    0.0000 N   0  0  0  0  0  0  0  0  0  0  0  0
    3.0814    2.7463    0.0000 N   0  0  0  0  0  0  0  0  0  0  0  0
    4.5125    1.7706    0.0000 C   0  0  0  0  0  0  0  0  0  0  0  0
    2.9519    1.0191    0.0000 C   0  0  0  0  0  0  0  0  0  0  0  0
    4.0786    2.6716    0.0000 C   0  0  0  0  0  0  0  0  0  0  0  0
    2.5180    1.9201    0.0000 C   0  0  0  0  0  0  0  0  0  0  0  0
    4.3830    0.0434    0.0000 C   0  0  0  0  0  0  0  0  0  0  0  0
    3.7595   -0.7385    0.0000 C   0  0  0  0  0  0  0  0  0  0  0  0
    5.3830    0.0434    0.0000 C   0  0  0  0  0  0  0  0  0  0  0  0
    2.6475    3.6473    0.0000 C   0  0  0  0  0  0  0  0  0  0  0  0
    3.9820   -1.7134    0.0000 C   0  0  0  0  0  0  0  0  0  0  0  0
    6.0065   -0.7385    0.0000 C   0  0  0  0  0  0  0  0  0  0  0  0
    4.8830   -2.1473    0.0000 C   0  0  0  0  0  0  0  0  0  0  0  0
    5.7840   -1.7134    0.0000 C   0  0  0  0  0  0  0  0  0  0  0  0
    2.7690   -0.4161    0.0000 C   0  0  0  0  0  0  0  0  0  0  0  0
    3.2295   -2.4336    0.0000 C   0  0  0  0  0  0  0  0  0  0  0  0
    6.9970   -0.4161    0.0000 C   0  0  0  0  0  0  0  0  0  0  0  0
    6.5365   -2.4336    0.0000 C   0  0  0  0  0  0  0  0  0  0  0  0
    2.0000   -1.1187    0.0000 C   0  0  0  0  0  0  0  0  0  0  0  0
    4.8830   -3.1473    0.0000 C   0  0  0  0  0  0  0  0  0  0  0  0
    2.2318   -2.1342    0.0000 C   0  0  0  0  0  0  0  0  0  0  0  0
    7.7660   -1.1187    0.0000 C   0  0  0  0  0  0  0  0  0  0  0  0
    7.5342   -2.1342    0.0000 C   0  0  0  0  0  0  0  0  0  0  0  0
    4.0170   -3.6473    0.0000 C   0  0  0  0  0  0  0  0  0  0  0  0
    4.9563    1.3377    0.0000 H   0  0  0  0  0  0  0  0  0  0  0  0
    5.0159    2.1325    0.0000 H   0  0  0  0  0  0  0  0  0  0  0  0
    2.3551    0.8512    0.0000 H   0  0  0  0  0  0  0  0  0  0  0  0
    3.0137    0.4022    0.0000 H   0  0  0  0  0  0  0  0  0  0  0  0
    4.6754    2.8395    0.0000 H   0  0  0  0  0  0  0  0  0  0  0  0
    4.0168    3.2885    0.0000 H   0  0  0  0  0  0  0  0  0  0  0  0
    2.0742    2.3530    0.0000 H   0  0  0  0  0  0  0  0  0  0  0  0
    2.0146    1.5581    0.0000 H   0  0  0  0  0  0  0  0  0  0  0  0
    5.6520    0.6020    0.0000 H   0  0  0  0  0  0  0  0  0  0  0  0
    3.2061    3.9163    0.0000 H   0  0  0  0  0  0  0  0  0  0  0  0
    2.3785    4.2059    0.0000 H   0  0  0  0  0  0  0  0  0  0  0  0
    2.0889    3.3783    0.0000 H   0  0  0  0  0  0  0  0  0  0  0  0
    2.6380    0.1899    0.0000 H   0  0  0  0  0  0  0  0  0  0  0  0
    3.3744   -3.0364    0.0000 H   0  0  0  0  0  0  0  0  0  0  0  0
    7.1280    0.1899    0.0000 H   0  0  0  0  0  0  0  0  0  0  0  0
    6.3916   -3.0364    0.0000 H   0  0  0  0  0  0  0  0  0  0  0  0
    1.4083   -0.9336    0.0000 H   0  0  0  0  0  0  0  0  0  0  0  0
    5.4199   -3.4573    0.0000 H   0  0  0  0  0  0  0  0  0  0  0  0
    1.7789   -2.5577    0.0000 H   0  0  0  0  0  0  0  0  0  0  0  0
    8.3578   -0.9337    0.0000 H   0  0  0  0  0  0  0  0  0  0  0  0
    7.9871   -2.5577    0.0000 H   0  0  0  0  0  0  0  0  0  0  0  0
    3.7070   -3.1103    0.0000 H   0  0  0  0  0  0  0  0  0  0  0  0
    3.4800   -3.9573    0.0000 H   0  0  0  0  0  0  0  0  0  0  0  0
    4.3270   -4.1842    0.0000 H   0  0  0  0  0  0  0  0  0  0  0  0
  1  3  1  0  0  0  0
  1  4  1  0  0  0  0
  1  7  1  0  0  0  0
  2  5  1  0  0  0  0
  2  6  1  0  0  0  0
  2 10  1  0  0  0  0
  3  5  1  0  0  0  0
  3 25  1  0  0  0  0
  3 26  1  0  0  0  0
  4  6  1  0  0  0  0
  4 27  1  0  0  0  0
  4 28  1  0  0  0  0
  5 29  1  0  0  0  0
  5 30  1  0  0  0  0
  6 31  1  0  0  0  0
  6 32  1  0  0  0  0
  7  8  1  0  0  0  0
  7  9  2  0  0  0  0
  8 11  1  0  0  0  0
  8 15  2  0  0  0  0
  9 12  1  0  0  0  0
  9 33  1  0  0  0  0
 10 34  1  0  0  0  0
 10 35  1  0  0  0  0
 10 36  1  0  0  0  0
 11 13  1  0  0  0  0
 11 16  2  0  0  0  0
 12 14  1  0  0  0  0
 12 17  2  0  0  0  0
 13 14  1  0  0  0  0
 13 20  2  0  0  0  0
 14 18  2  0  0  0  0
 15 19  1  0  0  0  0
 15 37  1  0  0  0  0
 16 21  1  0  0  0  0
 16 38  1  0  0  0  0
 17 22  1  0  0  0  0
 17 39  1  0  0  0  0
 18 23  1  0  0  0  0
 18 40  1  0  0  0  0
 19 21  2  0  0  0  0
 19 41  1  0  0  0  0
 20 24  1  0  0  0  0
 20 42  1  0  0  0  0
 21 43  1  0  0  0  0
 22 23  2  0  0  0  0
 22 44  1  0  0  0  0
 23 45  1  0  0  0  0
 24 46  1  0  0  0  0
 24 47  1  0  0  0  0
 24 48  1  0  0  0  0
M  END
> <PUBCHEM_COMPOUND_CID>
44323890

> <PUBCHEM_COMPOUND_CANONICALIZED>
1

> <PUBCHEM_CACTVS_COMPLEXITY>
498

> <PUBCHEM_CACTVS_HBOND_ACCEPTOR>
2

> <PUBCHEM_CACTVS_HBOND_DONOR>
0

> <PUBCHEM_CACTVS_ROTATABLE_BOND>
1

> <PUBCHEM_CACTVS_SUBSKEYS>
AAADceB7AAAAAAAAAAAAAAAAAAAAAAAAAAA8YIAABAAAAAABQAAAHAAAAAAADAjBGAQyAIMAAACAAiRCQACCAAAgAgAIiAAIBIgIYCKAkRGUIAhggACIiAcQgMAOgAAAAAAQAAAAAAAAACAAAAAAAAAAAA==

> <PUBCHEM_IUPAC_OPENEYE_NAME>
1-[(2Z)-2-ethylidene-9-tricyclo[9.4.0.03,8]pentadeca-1(15),3,5,7,9,11,13-heptaenyl]-4-methyl-piperazine

> <PUBCHEM_IUPAC_CAS_NAME>
1-[(2Z)-2-ethylidene-9-tricyclo[9.4.0.03,8]pentadeca-1(15),3,5,7,9,11,13-heptaenyl]-4-methylpiperazine

> <PUBCHEM_IUPAC_NAME_MARKUP>
1-[(2<I>Z</I>)-2-ethylidene-9-tricyclo[9.4.0.0<SUP>3,8</SUP>]pentadeca-1(15),3,5,7,9,11,13-heptaenyl]-4-methylpiperazine

> <PUBCHEM_IUPAC_NAME>
1-[(2Z)-2-ethylidene-9-tricyclo[9.4.0.03,8]pentadeca-1(15),3,5,7,9,11,13-heptaenyl]-4-methylpiperazine

> <PUBCHEM_IUPAC_SYSTEMATIC_NAME>
1-[(2Z)-2-ethylidene-9-tricyclo[9.4.0.03,8]pentadeca-1(15),3,5,7,9,11,13-heptaenyl]-4-methyl-piperazine

> <PUBCHEM_IUPAC_TRADITIONAL_NAME>
1-[(2Z)-2-ethylidene-9-tricyclo[9.4.0.03,8]pentadeca-1(15),3,5,7,9,11,13-heptaenyl]-4-methyl-piperazine

> <PUBCHEM_IUPAC_INCHI>
InChI=1S/C22H24N2/c1-3-18-19-9-5-4-8-17(19)16-22(21-11-7-6-10-20(18)21)24-14-12-23(2)13-15-24/h3-11,16H,12-15H2,1-2H3/b18-3-

> <PUBCHEM_IUPAC_INCHIKEY>
DISSGPVGANAWAA-ZUWFHJRGSA-N

> <PUBCHEM_XLOGP3_AA>
4.3

> <PUBCHEM_EXACT_MASS>
316.193948774

> <PUBCHEM_MOLECULAR_FORMULA>
C22H24N2

> <PUBCHEM_MOLECULAR_WEIGHT>
316.4

> <PUBCHEM_OPENEYE_CAN_SMILES>
CC=C1C2=CC=CC=C2C=C(C3=CC=CC=C31)N4CCN(CC4)C

> <PUBCHEM_OPENEYE_ISO_SMILES>
C/C=C\1/C2=CC=CC=C2C=C(C3=CC=CC=C31)N4CCN(CC4)C

> <PUBCHEM_CACTVS_TPSA>
6.5

> <PUBCHEM_MONOISOTOPIC_WEIGHT>
316.193948774

> <PUBCHEM_TOTAL_CHARGE>
0

> <PUBCHEM_HEAVY_ATOM_COUNT>
24

> <PUBCHEM_ATOM_DEF_STEREO_COUNT>
0

> <PUBCHEM_ATOM_UDEF_STEREO_COUNT>
0

> <PUBCHEM_BOND_DEF_STEREO_COUNT>
1

> <PUBCHEM_BOND_UDEF_STEREO_COUNT>
0

> <PUBCHEM_ISOTOPIC_ATOM_COUNT>
0

> <PUBCHEM_COMPONENT_COUNT>
1

> <PUBCHEM_CACTVS_TAUTO_COUNT>
-1

> <PUBCHEM_COORDINATE_TYPE>
1
5
255

> <PUBCHEM_BONDANNOTATIONS>
11  16  8
12  14  8
12  17  8
14  18  8
15  19  8
16  21  8
17  22  8
18  23  8
19  21  8
22  23  8
8  11  8
8  15  8

$$$$
