21390740
  -OEChem-09292322092D

 46 48  0     0  0  0  0  0  0999 V2000
    8.3301    4.9820    0.0000 Cl  0  0  0  0  0  0  0  0  0  0  0  0
    2.0000   -4.9820    0.0000 F   0  0  0  0  0  0  0  0  0  0  0  0
    5.8301    2.3840    0.0000 O   0  0  0  0  0  0  0  0  0  0  0  0
    6.3301   -3.4820    0.0000 O   0  0  0  0  0  0  0  0  0  0  0  0
    6.3301   -0.4821    0.0000 N   0  0  0  0  0  0  0  0  0  0  0  0
    6.3301    1.5180    0.0000 C   0  0  0  0  0  0  0  0  0  0  0  0
    7.1962    1.0180    0.0000 C   0  0  0  0  0  0  0  0  0  0  0  0
    5.4641    1.0180    0.0000 C   0  0  0  0  0  0  0  0  0  0  0  0
    7.1962    0.0179    0.0000 C   0  0  0  0  0  0  0  0  0  0  0  0
    5.4641    0.0179    0.0000 C   0  0  0  0  0  0  0  0  0  0  0  0
    6.8301    2.3840    0.0000 C   0  0  0  0  0  0  0  0  0  0  0  0
    6.3301   -1.4820    0.0000 C   0  0  0  0  0  0  0  0  0  0  0  0
    5.4641   -1.9820    0.0000 C   0  0  0  0  0  0  0  0  0  0  0  0
    6.3301    3.2500    0.0000 C   0  0  0  0  0  0  0  0  0  0  0  0
    7.8301    2.3840    0.0000 C   0  0  0  0  0  0  0  0  0  0  0  0
    5.4641   -2.9820    0.0000 C   0  0  0  0  0  0  0  0  0  0  0  0
    6.8301    4.1160    0.0000 C   0  0  0  0  0  0  0  0  0  0  0  0
    8.3301    3.2500    0.0000 C   0  0  0  0  0  0  0  0  0  0  0  0
    7.8301    4.1160    0.0000 C   0  0  0  0  0  0  0  0  0  0  0  0
    4.5981   -3.4820    0.0000 C   0  0  0  0  0  0  0  0  0  0  0  0
    4.5981   -4.4820    0.0000 C   0  0  0  0  0  0  0  0  0  0  0  0
    3.7320   -2.9820    0.0000 C   0  0  0  0  0  0  0  0  0  0  0  0
    3.7320   -4.9820    0.0000 C   0  0  0  0  0  0  0  0  0  0  0  0
    2.8660   -3.4820    0.0000 C   0  0  0  0  0  0  0  0  0  0  0  0
    2.8660   -4.4820    0.0000 C   0  0  0  0  0  0  0  0  0  0  0  0
    7.8067    0.9103    0.0000 H   0  0  0  0  0  0  0  0  0  0  0  0
    7.4082    1.6006    0.0000 H   0  0  0  0  0  0  0  0  0  0  0  0
    5.2520    1.6006    0.0000 H   0  0  0  0  0  0  0  0  0  0  0  0
    4.8535    0.9103    0.0000 H   0  0  0  0  0  0  0  0  0  0  0  0
    7.4082   -0.5647    0.0000 H   0  0  0  0  0  0  0  0  0  0  0  0
    7.8067    0.1256    0.0000 H   0  0  0  0  0  0  0  0  0  0  0  0
    4.8535    0.1256    0.0000 H   0  0  0  0  0  0  0  0  0  0  0  0
    5.2520   -0.5647    0.0000 H   0  0  0  0  0  0  0  0  0  0  0  0
    6.5422   -2.0647    0.0000 H   0  0  0  0  0  0  0  0  0  0  0  0
    6.9407   -1.3744    0.0000 H   0  0  0  0  0  0  0  0  0  0  0  0
    5.2101    2.3840    0.0000 H   0  0  0  0  0  0  0  0  0  0  0  0
    5.2520   -1.3994    0.0000 H   0  0  0  0  0  0  0  0  0  0  0  0
    4.8535   -2.0897    0.0000 H   0  0  0  0  0  0  0  0  0  0  0  0
    5.7101    3.2500    0.0000 H   0  0  0  0  0  0  0  0  0  0  0  0
    8.1401    1.8470    0.0000 H   0  0  0  0  0  0  0  0  0  0  0  0
    6.5201    4.6530    0.0000 H   0  0  0  0  0  0  0  0  0  0  0  0
    8.9501    3.2500    0.0000 H   0  0  0  0  0  0  0  0  0  0  0  0
    5.1350   -4.7920    0.0000 H   0  0  0  0  0  0  0  0  0  0  0  0
    3.7320   -2.3620    0.0000 H   0  0  0  0  0  0  0  0  0  0  0  0
    3.7320   -5.6020    0.0000 H   0  0  0  0  0  0  0  0  0  0  0  0
    2.3291   -3.1720    0.0000 H   0  0  0  0  0  0  0  0  0  0  0  0
  1 19  1  0  0  0  0
  2 25  1  0  0  0  0
  3  6  1  0  0  0  0
  3 36  1  0  0  0  0
  4 16  2  0  0  0  0
  5  9  1  0  0  0  0
  5 10  1  0  0  0  0
  5 12  1  0  0  0  0
  6  7  1  0  0  0  0
  6  8  1  0  0  0  0
  6 11  1  0  0  0  0
  7  9  1  0  0  0  0
  7 26  1  0  0  0  0
  7 27  1  0  0  0  0
  8 10  1  0  0  0  0
  8 28  1  0  0  0  0
  8 29  1  0  0  0  0
  9 30  1  0  0  0  0
  9 31  1  0  0  0  0
 10 32  1  0  0  0  0
 10 33  1  0  0  0  0
 11 14  2  0  0  0  0
 11 15  1  0  0  0  0
 12 13  1  0  0  0  0
 12 34  1  0  0  0  0
 12 35  1  0  0  0  0
 13 16  1  0  0  0  0
 13 37  1  0  0  0  0
 13 38  1  0  0  0  0
 14 17  1  0  0  0  0
 14 39  1  0  0  0  0
 15 18  2  0  0  0  0
 15 40  1  0  0  0  0
 16 20  1  0  0  0  0
 17 19  2  0  0  0  0
 17 41  1  0  0  0  0
 18 19  1  0  0  0  0
 18 42  1  0  0  0  0
 20 21  2  0  0  0  0
 20 22  1  0  0  0  0
 21 23  1  0  0  0  0
 21 43  1  0  0  0  0
 22 24  2  0  0  0  0
 22 44  1  0  0  0  0
 23 25  2  0  0  0  0
 23 45  1  0  0  0  0
 24 25  1  0  0  0  0
 24 46  1  0  0  0  0
M  END
> <PUBCHEM_COMPOUND_CID>
21390740

> <PUBCHEM_COMPOUND_CANONICALIZED>
1

> <PUBCHEM_CACTVS_COMPLEXITY>
437

> <PUBCHEM_CACTVS_HBOND_ACCEPTOR>
4

> <PUBCHEM_CACTVS_HBOND_DONOR>
1

> <PUBCHEM_CACTVS_ROTATABLE_BOND>
5

> <PUBCHEM_CACTVS_SUBSKEYS>
AAADceB6MQAEAAAAAAAAAAAAAAAAAAAAAAA8YIAAAAAAAAABQAAAHwIACAAADEbBmCwwAIMAAgCIAqBSAAACAAAkBQAIiAEICsgIJjqBlxCEcQAmwAGImYeYyOCOhAAAAAAAAAAIAAAAAAAAAAAAAAAAAA==

> <PUBCHEM_IUPAC_OPENEYE_NAME>
3-[4-(4-chlorophenyl)-4-hydroxy-1-piperidyl]-1-(4-fluorophenyl)propan-1-one

> <PUBCHEM_IUPAC_CAS_NAME>
3-[4-(4-chlorophenyl)-4-hydroxy-1-piperidinyl]-1-(4-fluorophenyl)-1-propanone

> <PUBCHEM_IUPAC_NAME_MARKUP>
3-[4-(4-chlorophenyl)-4-hydroxypiperidin-1-yl]-1-(4-fluorophenyl)propan-1-one

> <PUBCHEM_IUPAC_NAME>
3-[4-(4-chlorophenyl)-4-hydroxypiperidin-1-yl]-1-(4-fluorophenyl)propan-1-one

> <PUBCHEM_IUPAC_SYSTEMATIC_NAME>
3-[4-(4-chlorophenyl)-4-oxidanyl-piperidin-1-yl]-1-(4-fluorophenyl)propan-1-one

> <PUBCHEM_IUPAC_TRADITIONAL_NAME>
3-[4-(4-chlorophenyl)-4-hydroxy-piperidino]-1-(4-fluorophenyl)propan-1-one

> <PUBCHEM_IUPAC_INCHI>
InChI=1S/C20H21ClFNO2/c21-17-5-3-16(4-6-17)20(25)10-13-23(14-11-20)12-9-19(24)15-1-7-18(22)8-2-15/h1-8,25H,9-14H2

> <PUBCHEM_IUPAC_INCHIKEY>
OQXMVHSMHFPGKE-UHFFFAOYSA-N

> <PUBCHEM_XLOGP3>
2.9

> <PUBCHEM_EXACT_MASS>
361.1244848

> <PUBCHEM_MOLECULAR_FORMULA>
C20H21ClFNO2

> <PUBCHEM_MOLECULAR_WEIGHT>
361.8

> <PUBCHEM_OPENEYE_CAN_SMILES>
C1CN(CCC1(C2=CC=C(C=C2)Cl)O)CCC(=O)C3=CC=C(C=C3)F

> <PUBCHEM_OPENEYE_ISO_SMILES>
C1CN(CCC1(C2=CC=C(C=C2)Cl)O)CCC(=O)C3=CC=C(C=C3)F

> <PUBCHEM_CACTVS_TPSA>
40.5

> <PUBCHEM_MONOISOTOPIC_WEIGHT>
361.1244848

> <PUBCHEM_TOTAL_CHARGE>
0

> <PUBCHEM_HEAVY_ATOM_COUNT>
25

> <PUBCHEM_ATOM_DEF_STEREO_COUNT>
0

> <PUBCHEM_ATOM_UDEF_STEREO_COUNT>
0

> <PUBCHEM_BOND_DEF_STEREO_COUNT>
0

> <PUBCHEM_BOND_UDEF_STEREO_COUNT>
0

> <PUBCHEM_ISOTOPIC_ATOM_COUNT>
0

> <PUBCHEM_COMPONENT_COUNT>
1

> <PUBCHEM_CACTVS_TAUTO_COUNT>
-1

> <PUBCHEM_COORDINATE_TYPE>
1
5
255

> <PUBCHEM_BONDANNOTATIONS>
11  14  8
11  15  8
14  17  8
15  18  8
17  19  8
18  19  8
20  21  8
20  22  8
21  23  8
22  24  8
23  25  8
24  25  8

$$$$
