155195497
  -OEChem-09292322412D

 59 63  0     1  0  0  0  0  0999 V2000
    7.1718    3.9139    0.0000 O   0  0  0  0  0  0  0  0  0  0  0  0
    9.7978    2.3793    0.0000 O   0  0  0  0  0  0  0  0  0  0  0  0
    5.4861   -2.1752    0.0000 O   0  0  0  0  0  0  0  0  0  0  0  0
    9.8099    6.4485    0.0000 O   0  0  0  0  0  0  0  0  0  0  0  0
    2.9045   -6.7606    0.0000 O   0  0  0  0  0  0  0  0  0  0  0  0
    7.1718    1.8446    0.0000 N   0  0  3  0  0  0  0  0  0  0  0  0
    3.7473   -5.2474    0.0000 N   0  0  0  0  0  0  0  0  0  0  0  0
    8.0657    2.3793    0.0000 C   0  0  1  0  0  0  0  0  0  0  0  0
    8.0657    3.3793    0.0000 C   0  0  1  0  0  0  0  0  0  0  0  0
    6.2657    2.3585    0.0000 C   0  0  0  0  0  0  0  0  0  0  0  0
    8.9317    1.8793    0.0000 C   0  0  0  0  0  0  0  0  0  0  0  0
    7.1833    0.8447    0.0000 C   0  0  0  0  0  0  0  0  0  0  0  0
    8.9317    3.8793    0.0000 C   0  0  0  0  0  0  0  0  0  0  0  0
    6.2657    3.4001    0.0000 C   0  0  0  0  0  0  0  0  0  0  0  0
    6.3231    0.3347    0.0000 C   0  0  0  0  0  0  0  0  0  0  0  0
    9.7978    3.3793    0.0000 C   0  0  0  0  0  0  0  0  0  0  0  0
    8.9157    4.9208    0.0000 C   0  0  0  0  0  0  0  0  0  0  0  0
    6.3347   -0.6652    0.0000 C   0  0  0  0  0  0  0  0  0  0  0  0
   10.7078    3.8861    0.0000 C   0  0  0  0  0  0  0  0  0  0  0  0
    9.8137    5.4485    0.0000 C   0  0  0  0  0  0  0  0  0  0  0  0
    5.4745   -1.1752    0.0000 C   0  0  0  0  0  0  0  0  0  0  0  0
   10.7158    4.9277    0.0000 C   0  0  0  0  0  0  0  0  0  0  0  0
    4.6259   -2.6851    0.0000 C   0  0  0  0  0  0  0  0  0  0  0  0
    2.8582   -3.7610    0.0000 C   0  0  0  0  0  0  0  0  0  0  0  0
    2.0000   -4.2742    0.0000 C   0  0  0  0  0  0  0  0  0  0  0  0
    3.7318   -4.2475    0.0000 C   0  0  0  0  0  0  0  0  0  0  0  0
    4.6339   -3.7267    0.0000 C   0  0  0  0  0  0  0  0  0  0  0  0
    2.0154   -5.2741    0.0000 C   0  0  0  0  0  0  0  0  0  0  0  0
    3.7159   -2.1783    0.0000 C   0  0  0  0  0  0  0  0  0  0  0  0
    2.8261   -2.7198    0.0000 C   0  0  0  0  0  0  0  0  0  0  0  0
    2.8890   -5.7607    0.0000 C   0  0  0  0  0  0  0  0  0  0  0  0
    8.0723    1.5293    0.0000 H   0  0  0  0  0  0  0  0  0  0  0  0
    8.0723    4.2293    0.0000 H   0  0  0  0  0  0  0  0  0  0  0  0
    5.6548    2.4646    0.0000 H   0  0  0  0  0  0  0  0  0  0  0  0
    6.0566    1.7748    0.0000 H   0  0  0  0  0  0  0  0  0  0  0  0
    8.5332    1.4043    0.0000 H   0  0  0  0  0  0  0  0  0  0  0  0
    9.3303    1.4043    0.0000 H   0  0  0  0  0  0  0  0  0  0  0  0
    7.4021    0.2646    0.0000 H   0  0  0  0  0  0  0  0  0  0  0  0
    7.7926    0.9594    0.0000 H   0  0  0  0  0  0  0  0  0  0  0  0
    6.0566    3.9838    0.0000 H   0  0  0  0  0  0  0  0  0  0  0  0
    5.6548    3.2940    0.0000 H   0  0  0  0  0  0  0  0  0  0  0  0
    6.1044    0.9148    0.0000 H   0  0  0  0  0  0  0  0  0  0  0  0
    5.7138    0.2200    0.0000 H   0  0  0  0  0  0  0  0  0  0  0  0
    8.3752    5.2246    0.0000 H   0  0  0  0  0  0  0  0  0  0  0  0
    6.5535   -1.2454    0.0000 H   0  0  0  0  0  0  0  0  0  0  0  0
    6.9440   -0.5505    0.0000 H   0  0  0  0  0  0  0  0  0  0  0  0
   11.2411    3.5699    0.0000 H   0  0  0  0  0  0  0  0  0  0  0  0
    5.2557   -0.5951    0.0000 H   0  0  0  0  0  0  0  0  0  0  0  0
    4.8652   -1.2899    0.0000 H   0  0  0  0  0  0  0  0  0  0  0  0
   11.2539    5.2356    0.0000 H   0  0  0  0  0  0  0  0  0  0  0  0
    1.7790   -3.6950    0.0000 H   0  0  0  0  0  0  0  0  0  0  0  0
    1.3912   -4.3913    0.0000 H   0  0  0  0  0  0  0  0  0  0  0  0
   10.3456    6.7606    0.0000 H   0  0  0  0  0  0  0  0  0  0  0  0
    1.4033   -5.1759    0.0000 H   0  0  0  0  0  0  0  0  0  0  0  0
    1.8124   -5.8599    0.0000 H   0  0  0  0  0  0  0  0  0  0  0  0
    5.1720   -4.0347    0.0000 H   0  0  0  0  0  0  0  0  0  0  0  0
    3.7039   -1.5584    0.0000 H   0  0  0  0  0  0  0  0  0  0  0  0
    2.2810   -2.4244    0.0000 H   0  0  0  0  0  0  0  0  0  0  0  0
    4.2889   -5.5491    0.0000 H   0  0  0  0  0  0  0  0  0  0  0  0
  1  9  1  0  0  0  0
  1 14  1  0  0  0  0
  2 11  1  0  0  0  0
  2 16  1  0  0  0  0
  3 21  1  0  0  0  0
  3 23  1  0  0  0  0
  4 20  1  0  0  0  0
  4 53  1  0  0  0  0
  5 31  2  0  0  0  0
  6  8  1  0  0  0  0
  6 10  1  0  0  0  0
  6 12  1  0  0  0  0
  7 26  1  0  0  0  0
  7 31  1  0  0  0  0
  7 59  1  0  0  0  0
  8  9  1  0  0  0  0
  8 11  1  0  0  0  0
  8 32  1  6  0  0  0
  9 13  1  0  0  0  0
  9 33  1  1  0  0  0
 10 14  1  0  0  0  0
 10 34  1  0  0  0  0
 10 35  1  0  0  0  0
 11 36  1  0  0  0  0
 11 37  1  0  0  0  0
 12 15  1  0  0  0  0
 12 38  1  0  0  0  0
 12 39  1  0  0  0  0
 13 16  2  0  0  0  0
 13 17  1  0  0  0  0
 14 40  1  0  0  0  0
 14 41  1  0  0  0  0
 15 18  1  0  0  0  0
 15 42  1  0  0  0  0
 15 43  1  0  0  0  0
 16 19  1  0  0  0  0
 17 20  2  0  0  0  0
 17 44  1  0  0  0  0
 18 21  1  0  0  0  0
 18 45  1  0  0  0  0
 18 46  1  0  0  0  0
 19 22  2  0  0  0  0
 19 47  1  0  0  0  0
 20 22  1  0  0  0  0
 21 48  1  0  0  0  0
 21 49  1  0  0  0  0
 22 50  1  0  0  0  0
 23 27  2  0  0  0  0
 23 29  1  0  0  0  0
 24 25  1  0  0  0  0
 24 26  2  0  0  0  0
 24 30  1  0  0  0  0
 25 28  1  0  0  0  0
 25 51  1  0  0  0  0
 25 52  1  0  0  0  0
 26 27  1  0  0  0  0
 27 56  1  0  0  0  0
 28 31  1  0  0  0  0
 28 54  1  0  0  0  0
 28 55  1  0  0  0  0
 29 30  2  0  0  0  0
 29 57  1  0  0  0  0
 30 58  1  0  0  0  0
M  END
> <PUBCHEM_COMPOUND_CID>
155195497

> <PUBCHEM_COMPOUND_CANONICALIZED>
1

> <PUBCHEM_CACTVS_COMPLEXITY>
619

> <PUBCHEM_CACTVS_HBOND_ACCEPTOR>
6

> <PUBCHEM_CACTVS_HBOND_DONOR>
2

> <PUBCHEM_CACTVS_ROTATABLE_BOND>
6

> <PUBCHEM_CACTVS_SUBSKEYS>
AAADceB7OAAAAAAAAAAAAAAAAAAAAAAAAAA8eJECAAAAAACxQAAAHgAQCAAADDzhmAYwxoPABgCIAiVSUACCCAAhIgAIiAEObIgOJzLGsZuHeCjn1BnY+Af42bOeIQABAgAKAABCAAIEABQAAAAAAAAAAA==

> <PUBCHEM_IUPAC_OPENEYE_NAME>
7-[4-[(4aR,10bR)-9-hydroxy-3,4a,5,10b-tetrahydro-2H-chromeno[4,3-b][1,4]oxazin-4-yl]butoxy]-3,4-dihydro-1H-quinolin-2-one

> <PUBCHEM_IUPAC_CAS_NAME>
7-[4-[(4aR,10bR)-9-hydroxy-3,4a,5,10b-tetrahydro-2H-[1]benzopyrano[4,3-b][1,4]oxazin-4-yl]butoxy]-3,4-dihydro-1H-quinolin-2-one

> <PUBCHEM_IUPAC_NAME_MARKUP>
7-[4-[(4<I>a</I><I>R</I>,10<I>b</I><I>R</I>)-9-hydroxy-3,4<I>a</I>,5,10<I>b</I>-tetrahydro-2<I>H</I>-chromeno[4,3-b][1,4]oxazin-4-yl]butoxy]-3,4-dihydro-1<I>H</I>-quinolin-2-one

> <PUBCHEM_IUPAC_NAME>
7-[4-[(4aR,10bR)-9-hydroxy-3,4a,5,10b-tetrahydro-2H-chromeno[4,3-b][1,4]oxazin-4-yl]butoxy]-3,4-dihydro-1H-quinolin-2-one

> <PUBCHEM_IUPAC_SYSTEMATIC_NAME>
7-[4-[(4aR,10bR)-9-oxidanyl-3,4a,5,10b-tetrahydro-2H-chromeno[4,3-b][1,4]oxazin-4-yl]butoxy]-3,4-dihydro-1H-quinolin-2-one

> <PUBCHEM_IUPAC_TRADITIONAL_NAME>
7-[4-[(4aR,10bR)-9-hydroxy-3,4a,5,10b-tetrahydro-2H-chromeno[4,3-b][1,4]oxazin-4-yl]butoxy]-3,4-dihydrocarbostyril

> <PUBCHEM_IUPAC_INCHI>
InChI=1S/C24H28N2O5/c27-17-5-7-22-19(13-17)24-21(15-31-22)26(10-12-30-24)9-1-2-11-29-18-6-3-16-4-8-23(28)25-20(16)14-18/h3,5-7,13-14,21,24,27H,1-2,4,8-12,15H2,(H,25,28)/t21-,24-/m1/s1

> <PUBCHEM_IUPAC_INCHIKEY>
DTLUAUCSESZJOW-ZJSXRUAMSA-N

> <PUBCHEM_XLOGP3>
2.6

> <PUBCHEM_EXACT_MASS>
424.19982200

> <PUBCHEM_MOLECULAR_FORMULA>
C24H28N2O5

> <PUBCHEM_MOLECULAR_WEIGHT>
424.5

> <PUBCHEM_OPENEYE_CAN_SMILES>
C1CC(=O)NC2=C1C=CC(=C2)OCCCCN3CCOC4C3COC5=C4C=C(C=C5)O

> <PUBCHEM_OPENEYE_ISO_SMILES>
C1CC(=O)NC2=C1C=CC(=C2)OCCCCN3CCO[C@H]4[C@H]3COC5=C4C=C(C=C5)O

> <PUBCHEM_CACTVS_TPSA>
80.3

> <PUBCHEM_MONOISOTOPIC_WEIGHT>
424.19982200

> <PUBCHEM_TOTAL_CHARGE>
0

> <PUBCHEM_HEAVY_ATOM_COUNT>
31

> <PUBCHEM_ATOM_DEF_STEREO_COUNT>
2

> <PUBCHEM_ATOM_UDEF_STEREO_COUNT>
0

> <PUBCHEM_BOND_DEF_STEREO_COUNT>
0

> <PUBCHEM_BOND_UDEF_STEREO_COUNT>
0

> <PUBCHEM_ISOTOPIC_ATOM_COUNT>
0

> <PUBCHEM_COMPONENT_COUNT>
1

> <PUBCHEM_CACTVS_TAUTO_COUNT>
-1

> <PUBCHEM_COORDINATE_TYPE>
1
5
255

> <PUBCHEM_BONDANNOTATIONS>
13  16  8
13  17  8
16  19  8
17  20  8
19  22  8
20  22  8
23  27  8
23  29  8
24  26  8
24  30  8
26  27  8
29  30  8
8  32  6
9  33  5

$$$$
