137656836
  -OEChem-09292322082D

 59 63  0     1  0  0  0  0  0999 V2000
    3.8000   -0.4827    0.0000 O   0  0  0  0  0  0  0  0  0  0  0  0
    9.1301    1.0173    0.0000 N   0  0  0  0  0  0  0  0  0  0  0  0
    5.5321   -0.4827    0.0000 N   0  0  0  0  0  0  0  0  0  0  0  0
   10.8622    2.0173    0.0000 N   0  0  0  0  0  0  0  0  0  0  0  0
    4.6660   -3.9827    0.0000 N   0  0  0  0  0  0  0  0  0  0  0  0
   15.1923    1.5173    0.0000 N   0  0  0  0  0  0  0  0  0  0  0  0
    7.3981    1.0173    0.0000 C   0  0  1  0  0  0  0  0  0  0  0  0
    6.3981    1.0173    0.0000 C   0  0  1  0  0  0  0  0  0  0  0  0
    6.8981    1.8834    0.0000 C   0  0  0  0  0  0  0  0  0  0  0  0
    8.2641    0.5173    0.0000 C   0  0  0  0  0  0  0  0  0  0  0  0
    5.5321    0.5173    0.0000 C   0  0  0  0  0  0  0  0  0  0  0  0
    9.9962    0.5173    0.0000 C   0  0  0  0  0  0  0  0  0  0  0  0
    9.1301    2.0173    0.0000 C   0  0  0  0  0  0  0  0  0  0  0  0
   10.8622    1.0173    0.0000 C   0  0  0  0  0  0  0  0  0  0  0  0
    9.9962    2.5173    0.0000 C   0  0  0  0  0  0  0  0  0  0  0  0
    4.6660   -0.9827    0.0000 C   0  0  0  0  0  0  0  0  0  0  0  0
   11.7282    2.5173    0.0000 C   0  0  0  0  0  0  0  0  0  0  0  0
    4.6660   -1.9827    0.0000 C   0  0  0  0  0  0  0  0  0  0  0  0
   12.5942    2.0173    0.0000 C   0  0  0  0  0  0  0  0  0  0  0  0
   11.7282    3.5173    0.0000 C   0  0  0  0  0  0  0  0  0  0  0  0
    3.8000   -2.4827    0.0000 C   0  0  0  0  0  0  0  0  0  0  0  0
    5.5321   -2.4827    0.0000 C   0  0  0  0  0  0  0  0  0  0  0  0
   13.4603    2.5173    0.0000 C   0  0  0  0  0  0  0  0  0  0  0  0
   12.5942    4.0173    0.0000 C   0  0  0  0  0  0  0  0  0  0  0  0
   13.4603    3.5173    0.0000 C   0  0  0  0  0  0  0  0  0  0  0  0
    3.8000   -3.4827    0.0000 C   0  0  0  0  0  0  0  0  0  0  0  0
    2.9061   -1.9480    0.0000 C   0  0  0  0  0  0  0  0  0  0  0  0
    5.5321   -3.4827    0.0000 C   0  0  0  0  0  0  0  0  0  0  0  0
    2.9061   -4.0173    0.0000 C   0  0  0  0  0  0  0  0  0  0  0  0
   14.3263    2.0173    0.0000 C   0  0  0  0  0  0  0  0  0  0  0  0
    2.0000   -2.4618    0.0000 C   0  0  0  0  0  0  0  0  0  0  0  0
    2.0000   -3.5035    0.0000 C   0  0  0  0  0  0  0  0  0  0  0  0
    7.2376    0.4185    0.0000 H   0  0  0  0  0  0  0  0  0  0  0  0
    6.5586    0.4185    0.0000 H   0  0  0  0  0  0  0  0  0  0  0  0
    7.3730    2.2819    0.0000 H   0  0  0  0  0  0  0  0  0  0  0  0
    6.4231    2.2819    0.0000 H   0  0  0  0  0  0  0  0  0  0  0  0
    7.8656    0.0424    0.0000 H   0  0  0  0  0  0  0  0  0  0  0  0
    8.6626    0.0424    0.0000 H   0  0  0  0  0  0  0  0  0  0  0  0
    5.3200    1.0999    0.0000 H   0  0  0  0  0  0  0  0  0  0  0  0
    4.9215    0.4097    0.0000 H   0  0  0  0  0  0  0  0  0  0  0  0
    9.5976    0.0424    0.0000 H   0  0  0  0  0  0  0  0  0  0  0  0
   10.3947    0.0424    0.0000 H   0  0  0  0  0  0  0  0  0  0  0  0
    8.9181    2.5999    0.0000 H   0  0  0  0  0  0  0  0  0  0  0  0
    8.5196    1.9097    0.0000 H   0  0  0  0  0  0  0  0  0  0  0  0
    6.0690   -0.7927    0.0000 H   0  0  0  0  0  0  0  0  0  0  0  0
   11.0742    0.4347    0.0000 H   0  0  0  0  0  0  0  0  0  0  0  0
   11.4728    1.1250    0.0000 H   0  0  0  0  0  0  0  0  0  0  0  0
   10.3947    2.9923    0.0000 H   0  0  0  0  0  0  0  0  0  0  0  0
    9.5976    2.9923    0.0000 H   0  0  0  0  0  0  0  0  0  0  0  0
   12.5942    1.3973    0.0000 H   0  0  0  0  0  0  0  0  0  0  0  0
   11.1913    3.8273    0.0000 H   0  0  0  0  0  0  0  0  0  0  0  0
    6.0690   -2.1727    0.0000 H   0  0  0  0  0  0  0  0  0  0  0  0
   12.5942    4.6373    0.0000 H   0  0  0  0  0  0  0  0  0  0  0  0
   13.9972    3.8273    0.0000 H   0  0  0  0  0  0  0  0  0  0  0  0
    2.9132   -1.3280    0.0000 H   0  0  0  0  0  0  0  0  0  0  0  0
    6.0690   -3.7927    0.0000 H   0  0  0  0  0  0  0  0  0  0  0  0
    2.9132   -4.6373    0.0000 H   0  0  0  0  0  0  0  0  0  0  0  0
    1.4643   -2.1498    0.0000 H   0  0  0  0  0  0  0  0  0  0  0  0
    1.4643   -3.8156    0.0000 H   0  0  0  0  0  0  0  0  0  0  0  0
  1 16  2  0  0  0  0
  2 10  1  0  0  0  0
  2 12  1  0  0  0  0
  2 13  1  0  0  0  0
  3 11  1  0  0  0  0
  3 16  1  0  0  0  0
  3 45  1  0  0  0  0
  4 14  1  0  0  0  0
  4 15  1  0  0  0  0
  4 17  1  0  0  0  0
  5 26  1  0  0  0  0
  5 28  2  0  0  0  0
  6 30  3  0  0  0  0
  7  8  1  0  0  0  0
  7  9  1  0  0  0  0
  7 10  1  1  0  0  0
  7 33  1  0  0  0  0
  8  9  1  0  0  0  0
  8 11  1  6  0  0  0
  8 34  1  0  0  0  0
  9 35  1  0  0  0  0
  9 36  1  0  0  0  0
 10 37  1  0  0  0  0
 10 38  1  0  0  0  0
 11 39  1  0  0  0  0
 11 40  1  0  0  0  0
 12 14  1  0  0  0  0
 12 41  1  0  0  0  0
 12 42  1  0  0  0  0
 13 15  1  0  0  0  0
 13 43  1  0  0  0  0
 13 44  1  0  0  0  0
 14 46  1  0  0  0  0
 14 47  1  0  0  0  0
 15 48  1  0  0  0  0
 15 49  1  0  0  0  0
 16 18  1  0  0  0  0
 17 19  1  0  0  0  0
 17 20  2  0  0  0  0
 18 21  1  0  0  0  0
 18 22  2  0  0  0  0
 19 23  2  0  0  0  0
 19 50  1  0  0  0  0
 20 24  1  0  0  0  0
 20 51  1  0  0  0  0
 21 26  1  0  0  0  0
 21 27  2  0  0  0  0
 22 28  1  0  0  0  0
 22 52  1  0  0  0  0
 23 25  1  0  0  0  0
 23 30  1  0  0  0  0
 24 25  2  0  0  0  0
 24 53  1  0  0  0  0
 25 54  1  0  0  0  0
 26 29  2  0  0  0  0
 27 31  1  0  0  0  0
 27 55  1  0  0  0  0
 28 56  1  0  0  0  0
 29 32  1  0  0  0  0
 29 57  1  0  0  0  0
 31 32  2  0  0  0  0
 31 58  1  0  0  0  0
 32 59  1  0  0  0  0
M  END
> <PUBCHEM_COMPOUND_CID>
137656836

> <PUBCHEM_COMPOUND_CANONICALIZED>
1

> <PUBCHEM_CACTVS_COMPLEXITY>
696

> <PUBCHEM_CACTVS_HBOND_ACCEPTOR>
5

> <PUBCHEM_CACTVS_HBOND_DONOR>
1

> <PUBCHEM_CACTVS_ROTATABLE_BOND>
6

> <PUBCHEM_CACTVS_SUBSKEYS>
AAADceB7oAAAAAAAAAAAAAAAGAAAAAAAAAA8eIEAAAAAAACx9AAAHgAQAAAADQjBngQ8wPPIEAC4BzV3VACigCA1AiAI2KE4ZNgI4PLAlZGUIQhglgDIyY8ciMCOgAAAQAACAAAAAACAAAQAAAAAAAAAAA==

> <PUBCHEM_IUPAC_OPENEYE_NAME>
N-[[(1R,2R)-2-[[4-(3-cyanophenyl)piperazin-1-yl]methyl]cyclopropyl]methyl]quinoline-4-carboxamide

> <PUBCHEM_IUPAC_CAS_NAME>
N-[[(1R,2R)-2-[[4-(3-cyanophenyl)-1-piperazinyl]methyl]cyclopropyl]methyl]-4-quinolinecarboxamide

> <PUBCHEM_IUPAC_NAME_MARKUP>
<I>N</I>-[[(1<I>R</I>,2<I>R</I>)-2-[[4-(3-cyanophenyl)piperazin-1-yl]methyl]cyclopropyl]methyl]quinoline-4-carboxamide

> <PUBCHEM_IUPAC_NAME>
N-[[(1R,2R)-2-[[4-(3-cyanophenyl)piperazin-1-yl]methyl]cyclopropyl]methyl]quinoline-4-carboxamide

> <PUBCHEM_IUPAC_SYSTEMATIC_NAME>
N-[[(1R,2R)-2-[[4-(3-cyanophenyl)piperazin-1-yl]methyl]cyclopropyl]methyl]quinoline-4-carboxamide

> <PUBCHEM_IUPAC_TRADITIONAL_NAME>
N-[[(1R,2R)-2-[[4-(3-cyanophenyl)piperazino]methyl]cyclopropyl]methyl]cinchoninamide

> <PUBCHEM_IUPAC_INCHI>
InChI=1S/C26H27N5O/c27-16-19-4-3-5-22(14-19)31-12-10-30(11-13-31)18-21-15-20(21)17-29-26(32)24-8-9-28-25-7-2-1-6-23(24)25/h1-9,14,20-21H,10-13,15,17-18H2,(H,29,32)/t20-,21-/m0/s1

> <PUBCHEM_IUPAC_INCHIKEY>
KBVAEHJQNKKTNL-SFTDATJTSA-N

> <PUBCHEM_XLOGP3_AA>
3.5

> <PUBCHEM_EXACT_MASS>
425.22156050

> <PUBCHEM_MOLECULAR_FORMULA>
C26H27N5O

> <PUBCHEM_MOLECULAR_WEIGHT>
425.5

> <PUBCHEM_OPENEYE_CAN_SMILES>
C1CN(CCN1CC2CC2CNC(=O)C3=CC=NC4=CC=CC=C34)C5=CC=CC(=C5)C#N

> <PUBCHEM_OPENEYE_ISO_SMILES>
C1CN(CCN1C[C@@H]2C[C@H]2CNC(=O)C3=CC=NC4=CC=CC=C34)C5=CC=CC(=C5)C#N

> <PUBCHEM_CACTVS_TPSA>
72.3

> <PUBCHEM_MONOISOTOPIC_WEIGHT>
425.22156050

> <PUBCHEM_TOTAL_CHARGE>
0

> <PUBCHEM_HEAVY_ATOM_COUNT>
32

> <PUBCHEM_ATOM_DEF_STEREO_COUNT>
2

> <PUBCHEM_ATOM_UDEF_STEREO_COUNT>
0

> <PUBCHEM_BOND_DEF_STEREO_COUNT>
0

> <PUBCHEM_BOND_UDEF_STEREO_COUNT>
0

> <PUBCHEM_ISOTOPIC_ATOM_COUNT>
0

> <PUBCHEM_COMPONENT_COUNT>
1

> <PUBCHEM_CACTVS_TAUTO_COUNT>
-1

> <PUBCHEM_COORDINATE_TYPE>
1
5
255

> <PUBCHEM_BONDANNOTATIONS>
17  19  8
17  20  8
18  21  8
18  22  8
19  23  8
20  24  8
21  26  8
21  27  8
22  28  8
23  25  8
24  25  8
26  29  8
27  31  8
29  32  8
31  32  8
5  26  8
5  28  8
7  10  5
8  11  6

$$$$
