10780717
  -OEChem-09292321582D

 45 47  0     1  0  0  0  0  0999 V2000
    3.7320    1.0600    0.0000 N   0  0  3  0  0  0  0  0  0  0  0  0
    4.5981   -5.4400    0.0000 N   0  0  0  0  0  0  0  0  0  0  0  0
    2.8660    1.5600    0.0000 C   0  0  0  0  0  0  0  0  0  0  0  0
    2.8660    2.5600    0.0000 C   0  0  0  0  0  0  0  0  0  0  0  0
    4.5981    1.5600    0.0000 C   0  0  0  0  0  0  0  0  0  0  0  0
    3.7320    3.0600    0.0000 C   0  0  0  0  0  0  0  0  0  0  0  0
    3.7320    0.0600    0.0000 C   0  0  0  0  0  0  0  0  0  0  0  0
    4.5981    2.5600    0.0000 C   0  0  0  0  0  0  0  0  0  0  0  0
    3.7320    4.0600    0.0000 C   0  0  0  0  0  0  0  0  0  0  0  0
    2.8660   -0.4400    0.0000 C   0  0  0  0  0  0  0  0  0  0  0  0
    4.5981    4.5600    0.0000 C   0  0  0  0  0  0  0  0  0  0  0  0
    2.8660    4.5600    0.0000 C   0  0  0  0  0  0  0  0  0  0  0  0
    2.8660   -1.4400    0.0000 C   0  0  0  0  0  0  0  0  0  0  0  0
    4.5981    5.5600    0.0000 C   0  0  0  0  0  0  0  0  0  0  0  0
    2.8660    5.5600    0.0000 C   0  0  0  0  0  0  0  0  0  0  0  0
    3.7320    6.0600    0.0000 C   0  0  0  0  0  0  0  0  0  0  0  0
    2.8660   -2.4400    0.0000 C   0  0  0  0  0  0  0  0  0  0  0  0
    2.8660   -3.4400    0.0000 C   0  0  0  0  0  0  0  0  0  0  0  0
    3.7320   -3.9400    0.0000 C   0  0  0  0  0  0  0  0  0  0  0  0
    2.0000   -3.9400    0.0000 C   0  0  0  0  0  0  0  0  0  0  0  0
    3.7320   -4.9400    0.0000 C   0  0  0  0  0  0  0  0  0  0  0  0
    2.0000   -4.9400    0.0000 C   0  0  0  0  0  0  0  0  0  0  0  0
    2.8660   -5.4400    0.0000 C   0  0  0  0  0  0  0  0  0  0  0  0
    2.2554    1.6677    0.0000 H   0  0  0  0  0  0  0  0  0  0  0  0
    2.6540    0.9774    0.0000 H   0  0  0  0  0  0  0  0  0  0  0  0
    2.6540    3.1426    0.0000 H   0  0  0  0  0  0  0  0  0  0  0  0
    2.2554    2.4523    0.0000 H   0  0  0  0  0  0  0  0  0  0  0  0
    4.8101    0.9774    0.0000 H   0  0  0  0  0  0  0  0  0  0  0  0
    5.2087    1.6677    0.0000 H   0  0  0  0  0  0  0  0  0  0  0  0
    3.9441   -0.5226    0.0000 H   0  0  0  0  0  0  0  0  0  0  0  0
    4.3426    0.1677    0.0000 H   0  0  0  0  0  0  0  0  0  0  0  0
    5.1350    2.8700    0.0000 H   0  0  0  0  0  0  0  0  0  0  0  0
    2.6540    0.1426    0.0000 H   0  0  0  0  0  0  0  0  0  0  0  0
    2.2554   -0.5477    0.0000 H   0  0  0  0  0  0  0  0  0  0  0  0
    5.1350    4.2500    0.0000 H   0  0  0  0  0  0  0  0  0  0  0  0
    2.3291    4.2500    0.0000 H   0  0  0  0  0  0  0  0  0  0  0  0
    5.1350    5.8700    0.0000 H   0  0  0  0  0  0  0  0  0  0  0  0
    2.3291    5.8700    0.0000 H   0  0  0  0  0  0  0  0  0  0  0  0
    3.7320    6.6800    0.0000 H   0  0  0  0  0  0  0  0  0  0  0  0
    4.2690   -3.6300    0.0000 H   0  0  0  0  0  0  0  0  0  0  0  0
    1.4631   -3.6300    0.0000 H   0  0  0  0  0  0  0  0  0  0  0  0
    1.4631   -5.2500    0.0000 H   0  0  0  0  0  0  0  0  0  0  0  0
    2.8660   -6.0600    0.0000 H   0  0  0  0  0  0  0  0  0  0  0  0
    4.5981   -6.0600    0.0000 H   0  0  0  0  0  0  0  0  0  0  0  0
    5.1350   -5.1300    0.0000 H   0  0  0  0  0  0  0  0  0  0  0  0
  1  3  1  0  0  0  0
  1  5  1  0  0  0  0
  1  7  1  0  0  0  0
  2 21  1  0  0  0  0
  2 44  1  0  0  0  0
  2 45  1  0  0  0  0
  3  4  1  0  0  0  0
  3 24  1  0  0  0  0
  3 25  1  0  0  0  0
  4  6  1  0  0  0  0
  4 26  1  0  0  0  0
  4 27  1  0  0  0  0
  5  8  1  0  0  0  0
  5 28  1  0  0  0  0
  5 29  1  0  0  0  0
  6  8  2  0  0  0  0
  6  9  1  0  0  0  0
  7 10  1  0  0  0  0
  7 30  1  0  0  0  0
  7 31  1  0  0  0  0
  8 32  1  0  0  0  0
  9 11  2  0  0  0  0
  9 12  1  0  0  0  0
 10 13  1  0  0  0  0
 10 33  1  0  0  0  0
 10 34  1  0  0  0  0
 11 14  1  0  0  0  0
 11 35  1  0  0  0  0
 12 15  2  0  0  0  0
 12 36  1  0  0  0  0
 13 17  3  0  0  0  0
 14 16  2  0  0  0  0
 14 37  1  0  0  0  0
 15 16  1  0  0  0  0
 15 38  1  0  0  0  0
 16 39  1  0  0  0  0
 17 18  1  0  0  0  0
 18 19  2  0  0  0  0
 18 20  1  0  0  0  0
 19 21  1  0  0  0  0
 19 40  1  0  0  0  0
 20 22  2  0  0  0  0
 20 41  1  0  0  0  0
 21 23  2  0  0  0  0
 22 23  1  0  0  0  0
 22 42  1  0  0  0  0
 23 43  1  0  0  0  0
M  END
> <PUBCHEM_COMPOUND_CID>
10780717

> <PUBCHEM_COMPOUND_CANONICALIZED>
1

> <PUBCHEM_CACTVS_COMPLEXITY>
461

> <PUBCHEM_CACTVS_HBOND_ACCEPTOR>
2

> <PUBCHEM_CACTVS_HBOND_DONOR>
1

> <PUBCHEM_CACTVS_ROTATABLE_BOND>
4

> <PUBCHEM_CACTVS_SUBSKEYS>
AAADceB7AAAAAAAAAAAAAAAAAAAAAAAAAAAwYIAAAAAAAAABQAAAHAAQAAAADAjBGAQwwINAAADAEiRCQAiCAAAgAgAIiAAIZIgIICKAkZGEIABgkACIyAcQgIAOAAAAQAAAAAAAAACAAAAAAAAAAAAAAA==

> <PUBCHEM_IUPAC_OPENEYE_NAME>
3-[4-(4-phenyl-3,6-dihydro-2H-pyridin-1-yl)but-1-ynyl]aniline

> <PUBCHEM_IUPAC_CAS_NAME>
3-[4-(4-phenyl-3,6-dihydro-2H-pyridin-1-yl)but-1-ynyl]aniline

> <PUBCHEM_IUPAC_NAME_MARKUP>
3-[4-(4-phenyl-3,6-dihydro-2<I>H</I>-pyridin-1-yl)but-1-ynyl]aniline

> <PUBCHEM_IUPAC_NAME>
3-[4-(4-phenyl-3,6-dihydro-2H-pyridin-1-yl)but-1-ynyl]aniline

> <PUBCHEM_IUPAC_SYSTEMATIC_NAME>
3-[4-(4-phenyl-3,6-dihydro-2H-pyridin-1-yl)but-1-ynyl]aniline

> <PUBCHEM_IUPAC_TRADITIONAL_NAME>
[3-[4-(4-phenyl-3,6-dihydro-2H-pyridin-1-yl)but-1-ynyl]phenyl]amine

> <PUBCHEM_IUPAC_INCHI>
InChI=1S/C21H22N2/c22-21-11-6-8-18(17-21)7-4-5-14-23-15-12-20(13-16-23)19-9-2-1-3-10-19/h1-3,6,8-12,17H,5,13-16,22H2

> <PUBCHEM_IUPAC_INCHIKEY>
KHTVRVDYYAMNRK-UHFFFAOYSA-N

> <PUBCHEM_XLOGP3>
3.8

> <PUBCHEM_EXACT_MASS>
302.178298710

> <PUBCHEM_MOLECULAR_FORMULA>
C21H22N2

> <PUBCHEM_MOLECULAR_WEIGHT>
302.4

> <PUBCHEM_OPENEYE_CAN_SMILES>
C1CN(CC=C1C2=CC=CC=C2)CCC#CC3=CC(=CC=C3)N

> <PUBCHEM_OPENEYE_ISO_SMILES>
C1CN(CC=C1C2=CC=CC=C2)CCC#CC3=CC(=CC=C3)N

> <PUBCHEM_CACTVS_TPSA>
29.3

> <PUBCHEM_MONOISOTOPIC_WEIGHT>
302.178298710

> <PUBCHEM_TOTAL_CHARGE>
0

> <PUBCHEM_HEAVY_ATOM_COUNT>
23

> <PUBCHEM_ATOM_DEF_STEREO_COUNT>
0

> <PUBCHEM_ATOM_UDEF_STEREO_COUNT>
0

> <PUBCHEM_BOND_DEF_STEREO_COUNT>
0

> <PUBCHEM_BOND_UDEF_STEREO_COUNT>
0

> <PUBCHEM_ISOTOPIC_ATOM_COUNT>
0

> <PUBCHEM_COMPONENT_COUNT>
1

> <PUBCHEM_CACTVS_TAUTO_COUNT>
-1

> <PUBCHEM_COORDINATE_TYPE>
1
5
255

> <PUBCHEM_BONDANNOTATIONS>
11  14  8
12  15  8
14  16  8
15  16  8
18  19  8
18  20  8
19  21  8
20  22  8
21  23  8
22  23  8
9  11  8
9  12  8

$$$$
