9949531
  -OEChem-09292322222D

 38 40  0     0  0  0  0  0  0999 V2000
    4.5981   -3.8030    0.0000 Cl  0  0  0  0  0  0  0  0  0  0  0  0
    9.7260   -2.8030    0.0000 S   0  0  0  0  0  0  0  0  0  0  0  0
    6.3301   -0.8030    0.0000 O   0  0  0  0  0  0  0  0  0  0  0  0
    8.1424   -1.9982    0.0000 N   0  0  0  0  0  0  0  0  0  0  0  0
    4.5981    1.1970    0.0000 N   0  0  0  0  0  0  0  0  0  0  0  0
    8.1424   -3.6077    0.0000 N   0  0  0  0  0  0  0  0  0  0  0  0
    7.1962   -2.3030    0.0000 C   0  0  0  0  0  0  0  0  0  0  0  0
    7.1962   -3.3030    0.0000 C   0  0  0  0  0  0  0  0  0  0  0  0
    6.3301   -1.8030    0.0000 C   0  0  0  0  0  0  0  0  0  0  0  0
    5.4641    0.6970    0.0000 C   0  0  0  0  0  0  0  0  0  0  0  0
    5.4641   -0.3030    0.0000 C   0  0  0  0  0  0  0  0  0  0  0  0
    4.5981    2.1970    0.0000 C   0  0  0  0  0  0  0  0  0  0  0  0
    6.3301   -3.8030    0.0000 C   0  0  0  0  0  0  0  0  0  0  0  0
    5.4641   -2.3030    0.0000 C   0  0  0  0  0  0  0  0  0  0  0  0
    8.7260   -2.8030    0.0000 C   0  0  0  0  0  0  0  0  0  0  0  0
    3.7320    2.6970    0.0000 C   0  0  0  0  0  0  0  0  0  0  0  0
    5.4641   -3.3030    0.0000 C   0  0  0  0  0  0  0  0  0  0  0  0
    3.7320    3.6970    0.0000 C   0  0  0  0  0  0  0  0  0  0  0  0
    2.8660    2.1970    0.0000 C   0  0  0  0  0  0  0  0  0  0  0  0
    2.8660    4.1970    0.0000 C   0  0  0  0  0  0  0  0  0  0  0  0
    2.0000    2.6970    0.0000 C   0  0  0  0  0  0  0  0  0  0  0  0
    2.0000    3.6970    0.0000 C   0  0  0  0  0  0  0  0  0  0  0  0
    6.0747    0.5894    0.0000 H   0  0  0  0  0  0  0  0  0  0  0  0
    5.6762    1.2796    0.0000 H   0  0  0  0  0  0  0  0  0  0  0  0
    4.8535   -0.1953    0.0000 H   0  0  0  0  0  0  0  0  0  0  0  0
    5.2520   -0.8856    0.0000 H   0  0  0  0  0  0  0  0  0  0  0  0
    5.2087    2.0894    0.0000 H   0  0  0  0  0  0  0  0  0  0  0  0
    4.8101    2.7796    0.0000 H   0  0  0  0  0  0  0  0  0  0  0  0
    8.3350   -1.4089    0.0000 H   0  0  0  0  0  0  0  0  0  0  0  0
    4.0611    0.8870    0.0000 H   0  0  0  0  0  0  0  0  0  0  0  0
    8.3350   -4.1970    0.0000 H   0  0  0  0  0  0  0  0  0  0  0  0
    6.3301   -4.4230    0.0000 H   0  0  0  0  0  0  0  0  0  0  0  0
    4.9272   -1.9930    0.0000 H   0  0  0  0  0  0  0  0  0  0  0  0
    4.2690    4.0070    0.0000 H   0  0  0  0  0  0  0  0  0  0  0  0
    2.8660    1.5770    0.0000 H   0  0  0  0  0  0  0  0  0  0  0  0
    2.8660    4.8170    0.0000 H   0  0  0  0  0  0  0  0  0  0  0  0
    1.4631    2.3870    0.0000 H   0  0  0  0  0  0  0  0  0  0  0  0
    1.4631    4.0070    0.0000 H   0  0  0  0  0  0  0  0  0  0  0  0
  1 17  1  0  0  0  0
  2 15  2  0  0  0  0
  3  9  1  0  0  0  0
  3 11  1  0  0  0  0
  4  7  1  0  0  0  0
  4 15  1  0  0  0  0
  4 29  1  0  0  0  0
  5 10  1  0  0  0  0
  5 12  1  0  0  0  0
  5 30  1  0  0  0  0
  6  8  1  0  0  0  0
  6 15  1  0  0  0  0
  6 31  1  0  0  0  0
  7  8  2  0  0  0  0
  7  9  1  0  0  0  0
  8 13  1  0  0  0  0
  9 14  2  0  0  0  0
 10 11  1  0  0  0  0
 10 23  1  0  0  0  0
 10 24  1  0  0  0  0
 11 25  1  0  0  0  0
 11 26  1  0  0  0  0
 12 16  1  0  0  0  0
 12 27  1  0  0  0  0
 12 28  1  0  0  0  0
 13 17  2  0  0  0  0
 13 32  1  0  0  0  0
 14 17  1  0  0  0  0
 14 33  1  0  0  0  0
 16 18  2  0  0  0  0
 16 19  1  0  0  0  0
 18 20  1  0  0  0  0
 18 34  1  0  0  0  0
 19 21  2  0  0  0  0
 19 35  1  0  0  0  0
 20 22  2  0  0  0  0
 20 36  1  0  0  0  0
 21 22  1  0  0  0  0
 21 37  1  0  0  0  0
 22 38  1  0  0  0  0
M  END
> <PUBCHEM_COMPOUND_CID>
9949531

> <PUBCHEM_COMPOUND_CANONICALIZED>
1

> <PUBCHEM_CACTVS_COMPLEXITY>
378

> <PUBCHEM_CACTVS_HBOND_ACCEPTOR>
3

> <PUBCHEM_CACTVS_HBOND_DONOR>
3

> <PUBCHEM_CACTVS_ROTATABLE_BOND>
6

> <PUBCHEM_CACTVS_SUBSKEYS>
AAADceB7IABEAAAAAAAAAAAAAAAAAWAAAAAwYAAAAAAAAFgBQAAAHgYQAAAADA7hmCYxxoLABACEAiRCQACCCAAhJwkIiIAPfoiOZiLFs5uXOCju0BvY6CeQ0AMOAABAAwIAECAAAIAGBAAgQAAAAAAAAA==

> <PUBCHEM_IUPAC_OPENEYE_NAME>
4-[2-(benzylamino)ethoxy]-6-chloro-1,3-dihydrobenzimidazole-2-thione

> <PUBCHEM_IUPAC_CAS_NAME>
6-chloro-4-[2-[(phenylmethyl)amino]ethoxy]-1,3-dihydrobenzimidazole-2-thione

> <PUBCHEM_IUPAC_NAME_MARKUP>
4-[2-(benzylamino)ethoxy]-6-chloro-1,3-dihydrobenzimidazole-2-thione

> <PUBCHEM_IUPAC_NAME>
4-[2-(benzylamino)ethoxy]-6-chloro-1,3-dihydrobenzimidazole-2-thione

> <PUBCHEM_IUPAC_SYSTEMATIC_NAME>
6-chloranyl-4-[2-[(phenylmethyl)amino]ethoxy]-1,3-dihydrobenzimidazole-2-thione

> <PUBCHEM_IUPAC_TRADITIONAL_NAME>
4-[2-(benzylamino)ethoxy]-6-chloro-1,3-dihydrobenzimidazole-2-thione

> <PUBCHEM_IUPAC_INCHI>
InChI=1S/C16H16ClN3OS/c17-12-8-13-15(20-16(22)19-13)14(9-12)21-7-6-18-10-11-4-2-1-3-5-11/h1-5,8-9,18H,6-7,10H2,(H2,19,20,22)

> <PUBCHEM_IUPAC_INCHIKEY>
HMFWWORRYDWEDS-UHFFFAOYSA-N

> <PUBCHEM_XLOGP3_AA>
2.8

> <PUBCHEM_EXACT_MASS>
333.0702610

> <PUBCHEM_MOLECULAR_FORMULA>
C16H16ClN3OS

> <PUBCHEM_MOLECULAR_WEIGHT>
333.8

> <PUBCHEM_OPENEYE_CAN_SMILES>
C1=CC=C(C=C1)CNCCOC2=CC(=CC3=C2NC(=S)N3)Cl

> <PUBCHEM_OPENEYE_ISO_SMILES>
C1=CC=C(C=C1)CNCCOC2=CC(=CC3=C2NC(=S)N3)Cl

> <PUBCHEM_CACTVS_TPSA>
77.4

> <PUBCHEM_MONOISOTOPIC_WEIGHT>
333.0702610

> <PUBCHEM_TOTAL_CHARGE>
0

> <PUBCHEM_HEAVY_ATOM_COUNT>
22

> <PUBCHEM_ATOM_DEF_STEREO_COUNT>
0

> <PUBCHEM_ATOM_UDEF_STEREO_COUNT>
0

> <PUBCHEM_BOND_DEF_STEREO_COUNT>
0

> <PUBCHEM_BOND_UDEF_STEREO_COUNT>
0

> <PUBCHEM_ISOTOPIC_ATOM_COUNT>
0

> <PUBCHEM_COMPONENT_COUNT>
1

> <PUBCHEM_CACTVS_TAUTO_COUNT>
-1

> <PUBCHEM_COORDINATE_TYPE>
1
5
255

> <PUBCHEM_BONDANNOTATIONS>
13  17  8
14  17  8
16  18  8
16  19  8
18  20  8
19  21  8
20  22  8
21  22  8
4  15  8
4  7  8
6  15  8
6  8  8
7  8  8
7  9  8
8  13  8
9  14  8

$$$$
