164608999
  -OEChem-09292322432D

 49 51  0     0  0  0  0  0  0999 V2000
    2.8660   -1.1550    0.0000 N   0  0  0  0  0  0  0  0  0  0  0  0
    2.8660   -3.1550    0.0000 N   0  0  0  0  0  0  0  0  0  0  0  0
    3.7320   -4.6550    0.0000 N   0  0  0  0  0  0  0  0  0  0  0  0
    4.5981    5.8450    0.0000 N   0  0  0  0  0  0  0  0  0  0  0  0
    3.7320   -1.6550    0.0000 C   0  0  0  0  0  0  0  0  0  0  0  0
    2.0000   -1.6550    0.0000 C   0  0  0  0  0  0  0  0  0  0  0  0
    3.7320   -2.6550    0.0000 C   0  0  0  0  0  0  0  0  0  0  0  0
    2.0000   -2.6550    0.0000 C   0  0  0  0  0  0  0  0  0  0  0  0
    2.8660   -0.1550    0.0000 C   0  0  0  0  0  0  0  0  0  0  0  0
    3.7320    0.3450    0.0000 C   0  0  0  0  0  0  0  0  0  0  0  0
    3.7320    1.3450    0.0000 C   0  0  0  0  0  0  0  0  0  0  0  0
    2.8660   -4.1550    0.0000 C   0  0  0  0  0  0  0  0  0  0  0  0
    4.5981    1.8450    0.0000 C   0  0  0  0  0  0  0  0  0  0  0  0
    4.5981    2.8450    0.0000 C   0  0  0  0  0  0  0  0  0  0  0  0
    2.0000   -4.6550    0.0000 C   0  0  0  0  0  0  0  0  0  0  0  0
    5.4641    3.3450    0.0000 C   0  0  0  0  0  0  0  0  0  0  0  0
    3.7320    3.3450    0.0000 C   0  0  0  0  0  0  0  0  0  0  0  0
    2.0000   -5.6550    0.0000 C   0  0  0  0  0  0  0  0  0  0  0  0
    3.7320   -5.6550    0.0000 C   0  0  0  0  0  0  0  0  0  0  0  0
    2.8660   -6.1550    0.0000 C   0  0  0  0  0  0  0  0  0  0  0  0
    5.4641    4.3450    0.0000 C   0  0  0  0  0  0  0  0  0  0  0  0
    3.7320    4.3450    0.0000 C   0  0  0  0  0  0  0  0  0  0  0  0
    4.5981    4.8450    0.0000 C   0  0  0  0  0  0  0  0  0  0  0  0
    4.3426   -1.7627    0.0000 H   0  0  0  0  0  0  0  0  0  0  0  0
    3.9441   -1.0724    0.0000 H   0  0  0  0  0  0  0  0  0  0  0  0
    1.7880   -1.0724    0.0000 H   0  0  0  0  0  0  0  0  0  0  0  0
    1.3894   -1.7627    0.0000 H   0  0  0  0  0  0  0  0  0  0  0  0
    3.9441   -3.2376    0.0000 H   0  0  0  0  0  0  0  0  0  0  0  0
    4.3426   -2.5473    0.0000 H   0  0  0  0  0  0  0  0  0  0  0  0
    1.3894   -2.5473    0.0000 H   0  0  0  0  0  0  0  0  0  0  0  0
    1.7880   -3.2376    0.0000 H   0  0  0  0  0  0  0  0  0  0  0  0
    2.6540    0.4276    0.0000 H   0  0  0  0  0  0  0  0  0  0  0  0
    2.2554   -0.2627    0.0000 H   0  0  0  0  0  0  0  0  0  0  0  0
    3.9441   -0.2376    0.0000 H   0  0  0  0  0  0  0  0  0  0  0  0
    4.3426    0.4527    0.0000 H   0  0  0  0  0  0  0  0  0  0  0  0
    3.5200    1.9276    0.0000 H   0  0  0  0  0  0  0  0  0  0  0  0
    3.1215    1.2373    0.0000 H   0  0  0  0  0  0  0  0  0  0  0  0
    4.8101    1.2624    0.0000 H   0  0  0  0  0  0  0  0  0  0  0  0
    5.2087    1.9527    0.0000 H   0  0  0  0  0  0  0  0  0  0  0  0
    1.4631   -4.3450    0.0000 H   0  0  0  0  0  0  0  0  0  0  0  0
    6.0010    3.0350    0.0000 H   0  0  0  0  0  0  0  0  0  0  0  0
    3.1951    3.0350    0.0000 H   0  0  0  0  0  0  0  0  0  0  0  0
    1.4631   -5.9650    0.0000 H   0  0  0  0  0  0  0  0  0  0  0  0
    4.2690   -5.9650    0.0000 H   0  0  0  0  0  0  0  0  0  0  0  0
    2.8660   -6.7750    0.0000 H   0  0  0  0  0  0  0  0  0  0  0  0
    6.0010    4.6550    0.0000 H   0  0  0  0  0  0  0  0  0  0  0  0
    3.1951    4.6550    0.0000 H   0  0  0  0  0  0  0  0  0  0  0  0
    5.1350    6.1550    0.0000 H   0  0  0  0  0  0  0  0  0  0  0  0
    4.0611    6.1550    0.0000 H   0  0  0  0  0  0  0  0  0  0  0  0
  1  5  1  0  0  0  0
  1  6  1  0  0  0  0
  1  9  1  0  0  0  0
  2  7  1  0  0  0  0
  2  8  1  0  0  0  0
  2 12  1  0  0  0  0
  3 12  1  0  0  0  0
  3 19  2  0  0  0  0
  4 23  1  0  0  0  0
  4 48  1  0  0  0  0
  4 49  1  0  0  0  0
  5  7  1  0  0  0  0
  5 24  1  0  0  0  0
  5 25  1  0  0  0  0
  6  8  1  0  0  0  0
  6 26  1  0  0  0  0
  6 27  1  0  0  0  0
  7 28  1  0  0  0  0
  7 29  1  0  0  0  0
  8 30  1  0  0  0  0
  8 31  1  0  0  0  0
  9 10  1  0  0  0  0
  9 32  1  0  0  0  0
  9 33  1  0  0  0  0
 10 11  1  0  0  0  0
 10 34  1  0  0  0  0
 10 35  1  0  0  0  0
 11 13  1  0  0  0  0
 11 36  1  0  0  0  0
 11 37  1  0  0  0  0
 12 15  2  0  0  0  0
 13 14  1  0  0  0  0
 13 38  1  0  0  0  0
 13 39  1  0  0  0  0
 14 16  2  0  0  0  0
 14 17  1  0  0  0  0
 15 18  1  0  0  0  0
 15 40  1  0  0  0  0
 16 21  1  0  0  0  0
 16 41  1  0  0  0  0
 17 22  2  0  0  0  0
 17 42  1  0  0  0  0
 18 20  2  0  0  0  0
 18 43  1  0  0  0  0
 19 20  1  0  0  0  0
 19 44  1  0  0  0  0
 20 45  1  0  0  0  0
 21 23  2  0  0  0  0
 21 46  1  0  0  0  0
 22 23  1  0  0  0  0
 22 47  1  0  0  0  0
M  END
> <PUBCHEM_COMPOUND_CID>
164608999

> <PUBCHEM_COMPOUND_CANONICALIZED>
1

> <PUBCHEM_CACTVS_COMPLEXITY>
319

> <PUBCHEM_CACTVS_HBOND_ACCEPTOR>
4

> <PUBCHEM_CACTVS_HBOND_DONOR>
1

> <PUBCHEM_CACTVS_ROTATABLE_BOND>
6

> <PUBCHEM_CACTVS_SUBSKEYS>
AAADceB7gAAAAAAAAAAAAAAAAAAAAAAAAAA8WIAAAAAAAAABwAAAHAAQAAAADAjBGgQ98JNIEACgAjZnZACCgCkxAiAJ2CA4ZJiIYOLAmZGUIAhokALIyCcQgIAOCAAAAAAAAAAQAAAAAAAAAAAAAAAAAA==

> <PUBCHEM_IUPAC_OPENEYE_NAME>
4-[4-[4-(2-pyridyl)piperazin-1-yl]butyl]aniline

> <PUBCHEM_IUPAC_CAS_NAME>
4-[4-[4-(2-pyridinyl)-1-piperazinyl]butyl]aniline

> <PUBCHEM_IUPAC_NAME_MARKUP>
4-[4-(4-pyridin-2-ylpiperazin-1-yl)butyl]aniline

> <PUBCHEM_IUPAC_NAME>
4-[4-(4-pyridin-2-ylpiperazin-1-yl)butyl]aniline

> <PUBCHEM_IUPAC_SYSTEMATIC_NAME>
4-[4-(4-pyridin-2-ylpiperazin-1-yl)butyl]aniline

> <PUBCHEM_IUPAC_TRADITIONAL_NAME>
[4-[4-[4-(2-pyridyl)piperazino]butyl]phenyl]amine

> <PUBCHEM_IUPAC_INCHI>
InChI=1S/C19H26N4/c20-18-9-7-17(8-10-18)5-2-4-12-22-13-15-23(16-14-22)19-6-1-3-11-21-19/h1,3,6-11H,2,4-5,12-16,20H2

> <PUBCHEM_IUPAC_INCHIKEY>
PGTMRNBGCGSJFJ-UHFFFAOYSA-N

> <PUBCHEM_XLOGP3>
3.5

> <PUBCHEM_EXACT_MASS>
310.21574685

> <PUBCHEM_MOLECULAR_FORMULA>
C19H26N4

> <PUBCHEM_MOLECULAR_WEIGHT>
310.4

> <PUBCHEM_OPENEYE_CAN_SMILES>
C1CN(CCN1CCCCC2=CC=C(C=C2)N)C3=CC=CC=N3

> <PUBCHEM_OPENEYE_ISO_SMILES>
C1CN(CCN1CCCCC2=CC=C(C=C2)N)C3=CC=CC=N3

> <PUBCHEM_CACTVS_TPSA>
45.4

> <PUBCHEM_MONOISOTOPIC_WEIGHT>
310.21574685

> <PUBCHEM_TOTAL_CHARGE>
0

> <PUBCHEM_HEAVY_ATOM_COUNT>
23

> <PUBCHEM_ATOM_DEF_STEREO_COUNT>
0

> <PUBCHEM_ATOM_UDEF_STEREO_COUNT>
0

> <PUBCHEM_BOND_DEF_STEREO_COUNT>
0

> <PUBCHEM_BOND_UDEF_STEREO_COUNT>
0

> <PUBCHEM_ISOTOPIC_ATOM_COUNT>
0

> <PUBCHEM_COMPONENT_COUNT>
1

> <PUBCHEM_CACTVS_TAUTO_COUNT>
-1

> <PUBCHEM_COORDINATE_TYPE>
1
5
255

> <PUBCHEM_BONDANNOTATIONS>
12  15  8
14  16  8
14  17  8
15  18  8
16  21  8
17  22  8
18  20  8
19  20  8
21  23  8
22  23  8
3  12  8
3  19  8

$$$$
