44415836
  -OEChem-09292322282D

 62 66  0     0  0  0  0  0  0999 V2000
    8.7204   -0.1839    0.0000 Cl  0  0  0  0  0  0  0  0  0  0  0  0
    4.0169   -4.0109    0.0000 Cl  0  0  0  0  0  0  0  0  0  0  0  0
    6.6150   -2.5109    0.0000 O   0  0  0  0  0  0  0  0  0  0  0  0
    3.0814    3.3827    0.0000 N   0  0  0  0  0  0  0  0  0  0  0  0
    3.9491    1.5808    0.0000 N   0  0  0  0  0  0  0  0  0  0  0  0
    5.3830    0.6798    0.0000 N   0  0  0  0  0  0  0  0  0  0  0  0
    4.8830   -1.5109    0.0000 N   0  0  0  0  0  0  0  0  0  0  0  0
    4.8830   -2.5109    0.0000 N   0  0  0  0  0  0  0  0  0  0  0  0
    2.5180    2.5565    0.0000 C   0  0  0  0  0  0  0  0  0  0  0  0
    4.0786    3.3080    0.0000 C   0  0  0  0  0  0  0  0  0  0  0  0
    2.9519    1.6555    0.0000 C   0  0  0  0  0  0  0  0  0  0  0  0
    4.5125    2.4070    0.0000 C   0  0  0  0  0  0  0  0  0  0  0  0
    2.6475    4.2837    0.0000 C   0  0  0  0  0  0  0  0  0  0  0  0
    4.3830    0.6798    0.0000 C   0  0  0  0  0  0  0  0  0  0  0  0
    3.2108    5.1099    0.0000 C   0  0  0  0  0  0  0  0  0  0  0  0
    3.7595   -0.1020    0.0000 C   0  0  0  0  0  0  0  0  0  0  0  0
    3.9820   -1.0770    0.0000 C   0  0  0  0  0  0  0  0  0  0  0  0
    2.7769    6.0109    0.0000 C   0  0  0  0  0  0  0  0  0  0  0  0
    6.0065   -0.1021    0.0000 C   0  0  0  0  0  0  0  0  0  0  0  0
    5.7840   -1.0770    0.0000 C   0  0  0  0  0  0  0  0  0  0  0  0
    2.7690    0.2203    0.0000 C   0  0  0  0  0  0  0  0  0  0  0  0
    3.2295   -1.7972    0.0000 C   0  0  0  0  0  0  0  0  0  0  0  0
    2.0000   -0.4823    0.0000 C   0  0  0  0  0  0  0  0  0  0  0  0
    6.9970    0.2203    0.0000 C   0  0  0  0  0  0  0  0  0  0  0  0
    2.2318   -1.4978    0.0000 C   0  0  0  0  0  0  0  0  0  0  0  0
    6.5365   -1.7972    0.0000 C   0  0  0  0  0  0  0  0  0  0  0  0
    7.7660   -0.4823    0.0000 C   0  0  0  0  0  0  0  0  0  0  0  0
    7.5342   -1.4978    0.0000 C   0  0  0  0  0  0  0  0  0  0  0  0
    5.7490   -3.0109    0.0000 C   0  0  0  0  0  0  0  0  0  0  0  0
    5.7490   -4.0109    0.0000 C   0  0  0  0  0  0  0  0  0  0  0  0
    4.8830   -4.5109    0.0000 C   0  0  0  0  0  0  0  0  0  0  0  0
    6.6150   -4.5109    0.0000 C   0  0  0  0  0  0  0  0  0  0  0  0
    4.8830   -5.5109    0.0000 C   0  0  0  0  0  0  0  0  0  0  0  0
    6.6150   -5.5109    0.0000 C   0  0  0  0  0  0  0  0  0  0  0  0
    5.7490   -6.0109    0.0000 C   0  0  0  0  0  0  0  0  0  0  0  0
    2.0742    2.9894    0.0000 H   0  0  0  0  0  0  0  0  0  0  0  0
    2.0146    2.1945    0.0000 H   0  0  0  0  0  0  0  0  0  0  0  0
    4.6754    3.4759    0.0000 H   0  0  0  0  0  0  0  0  0  0  0  0
    4.0168    3.9249    0.0000 H   0  0  0  0  0  0  0  0  0  0  0  0
    2.3551    1.4876    0.0000 H   0  0  0  0  0  0  0  0  0  0  0  0
    3.0137    1.0386    0.0000 H   0  0  0  0  0  0  0  0  0  0  0  0
    4.9563    1.9741    0.0000 H   0  0  0  0  0  0  0  0  0  0  0  0
    5.0159    2.7689    0.0000 H   0  0  0  0  0  0  0  0  0  0  0  0
    2.2037    4.7166    0.0000 H   0  0  0  0  0  0  0  0  0  0  0  0
    2.1441    3.9218    0.0000 H   0  0  0  0  0  0  0  0  0  0  0  0
    3.6547    4.6770    0.0000 H   0  0  0  0  0  0  0  0  0  0  0  0
    3.7142    5.4718    0.0000 H   0  0  0  0  0  0  0  0  0  0  0  0
    3.3356    6.2799    0.0000 H   0  0  0  0  0  0  0  0  0  0  0  0
    2.5080    6.5695    0.0000 H   0  0  0  0  0  0  0  0  0  0  0  0
    2.2184    5.7419    0.0000 H   0  0  0  0  0  0  0  0  0  0  0  0
    2.6380    0.8263    0.0000 H   0  0  0  0  0  0  0  0  0  0  0  0
    3.3744   -2.4000    0.0000 H   0  0  0  0  0  0  0  0  0  0  0  0
    1.4083   -0.2972    0.0000 H   0  0  0  0  0  0  0  0  0  0  0  0
    7.1280    0.8263    0.0000 H   0  0  0  0  0  0  0  0  0  0  0  0
    1.7789   -1.9212    0.0000 H   0  0  0  0  0  0  0  0  0  0  0  0
    6.3916   -2.4000    0.0000 H   0  0  0  0  0  0  0  0  0  0  0  0
    4.3460   -2.8209    0.0000 H   0  0  0  0  0  0  0  0  0  0  0  0
    7.9871   -1.9213    0.0000 H   0  0  0  0  0  0  0  0  0  0  0  0
    7.1520   -4.2009    0.0000 H   0  0  0  0  0  0  0  0  0  0  0  0
    4.3460   -5.8209    0.0000 H   0  0  0  0  0  0  0  0  0  0  0  0
    7.1520   -5.8209    0.0000 H   0  0  0  0  0  0  0  0  0  0  0  0
    5.7490   -6.6309    0.0000 H   0  0  0  0  0  0  0  0  0  0  0  0
  1 27  1  0  0  0  0
  2 31  1  0  0  0  0
  3 29  2  0  0  0  0
  4  9  1  0  0  0  0
  4 10  1  0  0  0  0
  4 13  1  0  0  0  0
  5 11  1  0  0  0  0
  5 12  1  0  0  0  0
  5 14  1  0  0  0  0
  6 14  2  0  0  0  0
  6 19  1  0  0  0  0
  7  8  1  0  0  0  0
  7 17  1  0  0  0  0
  7 20  1  0  0  0  0
  8 29  1  0  0  0  0
  8 57  1  0  0  0  0
  9 11  1  0  0  0  0
  9 36  1  0  0  0  0
  9 37  1  0  0  0  0
 10 12  1  0  0  0  0
 10 38  1  0  0  0  0
 10 39  1  0  0  0  0
 11 40  1  0  0  0  0
 11 41  1  0  0  0  0
 12 42  1  0  0  0  0
 12 43  1  0  0  0  0
 13 15  1  0  0  0  0
 13 44  1  0  0  0  0
 13 45  1  0  0  0  0
 14 16  1  0  0  0  0
 15 18  1  0  0  0  0
 15 46  1  0  0  0  0
 15 47  1  0  0  0  0
 16 17  1  0  0  0  0
 16 21  2  0  0  0  0
 17 22  2  0  0  0  0
 18 48  1  0  0  0  0
 18 49  1  0  0  0  0
 18 50  1  0  0  0  0
 19 20  2  0  0  0  0
 19 24  1  0  0  0  0
 20 26  1  0  0  0  0
 21 23  1  0  0  0  0
 21 51  1  0  0  0  0
 22 25  1  0  0  0  0
 22 52  1  0  0  0  0
 23 25  2  0  0  0  0
 23 53  1  0  0  0  0
 24 27  2  0  0  0  0
 24 54  1  0  0  0  0
 25 55  1  0  0  0  0
 26 28  2  0  0  0  0
 26 56  1  0  0  0  0
 27 28  1  0  0  0  0
 28 58  1  0  0  0  0
 29 30  1  0  0  0  0
 30 31  1  0  0  0  0
 30 32  2  0  0  0  0
 31 33  2  0  0  0  0
 32 34  1  0  0  0  0
 32 59  1  0  0  0  0
 33 35  1  0  0  0  0
 33 60  1  0  0  0  0
 34 35  2  0  0  0  0
 34 61  1  0  0  0  0
 35 62  1  0  0  0  0
M  END
> <PUBCHEM_COMPOUND_CID>
44415836

> <PUBCHEM_COMPOUND_CANONICALIZED>
1

> <PUBCHEM_CACTVS_COMPLEXITY>
758

> <PUBCHEM_CACTVS_HBOND_ACCEPTOR>
4

> <PUBCHEM_CACTVS_HBOND_DONOR>
1

> <PUBCHEM_CACTVS_ROTATABLE_BOND>
5

> <PUBCHEM_CACTVS_SUBSKEYS>
AAADceB7oAAGAAAAAAAAAAAAAAAAAAAAAAA8YMEABAAAAAABUAAAHgIYAAAADArBmCQzwINiAACoAidydACCBAElBwAbqAEodtgIYPLB35GUIQhggADIzYcYiACOAABAAAIDACAAAIAABAYAQAAAAAAAAA==

> <PUBCHEM_IUPAC_OPENEYE_NAME>
2-chloro-N-[3-chloro-6-(4-propylpiperazin-1-yl)benzo[b][1,4]benzodiazepin-11-yl]benzamide

> <PUBCHEM_IUPAC_CAS_NAME>
2-chloro-N-[3-chloro-6-(4-propyl-1-piperazinyl)-11-benzo[b][1,4]benzodiazepinyl]benzamide

> <PUBCHEM_IUPAC_NAME_MARKUP>
2-chloro-<I>N</I>-[3-chloro-6-(4-propylpiperazin-1-yl)benzo[b][1,4]benzodiazepin-11-yl]benzamide

> <PUBCHEM_IUPAC_NAME>
2-chloro-N-[3-chloro-6-(4-propylpiperazin-1-yl)benzo[b][1,4]benzodiazepin-11-yl]benzamide

> <PUBCHEM_IUPAC_SYSTEMATIC_NAME>
2-chloranyl-N-[3-chloranyl-6-(4-propylpiperazin-1-yl)benzo[b][1,4]benzodiazepin-11-yl]benzamide

> <PUBCHEM_IUPAC_TRADITIONAL_NAME>
2-chloro-N-[3-chloro-6-(4-propylpiperazino)benzo[b][1,4]benzodiazepin-11-yl]benzamide

> <PUBCHEM_IUPAC_INCHI>
InChI=1S/C27H27Cl2N5O/c1-2-13-32-14-16-33(17-15-32)26-21-8-4-6-10-24(21)34(25-12-11-19(28)18-23(25)30-26)31-27(35)20-7-3-5-9-22(20)29/h3-12,18H,2,13-17H2,1H3,(H,31,35)

> <PUBCHEM_IUPAC_INCHIKEY>
YCWWVMILONBSIH-UHFFFAOYSA-N

> <PUBCHEM_XLOGP3_AA>
5.9

> <PUBCHEM_EXACT_MASS>
507.1592659

> <PUBCHEM_MOLECULAR_FORMULA>
C27H27Cl2N5O

> <PUBCHEM_MOLECULAR_WEIGHT>
508.4

> <PUBCHEM_OPENEYE_CAN_SMILES>
CCCN1CCN(CC1)C2=NC3=C(C=CC(=C3)Cl)N(C4=CC=CC=C42)NC(=O)C5=CC=CC=C5Cl

> <PUBCHEM_OPENEYE_ISO_SMILES>
CCCN1CCN(CC1)C2=NC3=C(C=CC(=C3)Cl)N(C4=CC=CC=C42)NC(=O)C5=CC=CC=C5Cl

> <PUBCHEM_CACTVS_TPSA>
51.2

> <PUBCHEM_MONOISOTOPIC_WEIGHT>
507.1592659

> <PUBCHEM_TOTAL_CHARGE>
0

> <PUBCHEM_HEAVY_ATOM_COUNT>
35

> <PUBCHEM_ATOM_DEF_STEREO_COUNT>
0

> <PUBCHEM_ATOM_UDEF_STEREO_COUNT>
0

> <PUBCHEM_BOND_DEF_STEREO_COUNT>
0

> <PUBCHEM_BOND_UDEF_STEREO_COUNT>
0

> <PUBCHEM_ISOTOPIC_ATOM_COUNT>
0

> <PUBCHEM_COMPONENT_COUNT>
1

> <PUBCHEM_CACTVS_TAUTO_COUNT>
-1

> <PUBCHEM_COORDINATE_TYPE>
1
5
255

> <PUBCHEM_BONDANNOTATIONS>
16  17  8
16  21  8
17  22  8
19  20  8
19  24  8
20  26  8
21  23  8
22  25  8
23  25  8
24  27  8
26  28  8
27  28  8
30  31  8
30  32  8
31  33  8
32  34  8
33  35  8
34  35  8

$$$$
