11812905
  -OEChem-09292322122D

 71 74  0     0  0  0  0  0  0999 V2000
    6.3301    6.5000    0.0000 O   0  0  0  0  0  0  0  0  0  0  0  0
    4.5981   -0.5000    0.0000 O   0  0  0  0  0  0  0  0  0  0  0  0
    4.5981   -6.5000    0.0000 O   0  0  0  0  0  0  0  0  0  0  0  0
    8.0622    3.5000    0.0000 N   0  0  0  0  0  0  0  0  0  0  0  0
    8.0622    5.5000    0.0000 N   0  0  0  0  0  0  0  0  0  0  0  0
    6.3301   -0.5000    0.0000 N   0  0  0  0  0  0  0  0  0  0  0  0
    8.9282    4.0000    0.0000 C   0  0  0  0  0  0  0  0  0  0  0  0
    7.1962    4.0000    0.0000 C   0  0  0  0  0  0  0  0  0  0  0  0
    8.9282    5.0000    0.0000 C   0  0  0  0  0  0  0  0  0  0  0  0
    7.1962    5.0000    0.0000 C   0  0  0  0  0  0  0  0  0  0  0  0
    8.0622    2.5000    0.0000 C   0  0  0  0  0  0  0  0  0  0  0  0
    7.1962    2.0000    0.0000 C   0  0  0  0  0  0  0  0  0  0  0  0
    8.0622    6.5000    0.0000 C   0  0  0  0  0  0  0  0  0  0  0  0
    7.1962    1.0000    0.0000 C   0  0  0  0  0  0  0  0  0  0  0  0
    6.3301    0.5000    0.0000 C   0  0  0  0  0  0  0  0  0  0  0  0
    7.1962    7.0000    0.0000 C   0  0  0  0  0  0  0  0  0  0  0  0
    8.9282    7.0000    0.0000 C   0  0  0  0  0  0  0  0  0  0  0  0
    7.1962    8.0000    0.0000 C   0  0  0  0  0  0  0  0  0  0  0  0
    8.9282    8.0000    0.0000 C   0  0  0  0  0  0  0  0  0  0  0  0
    8.0622    8.5000    0.0000 C   0  0  0  0  0  0  0  0  0  0  0  0
    5.4641   -1.0000    0.0000 C   0  0  0  0  0  0  0  0  0  0  0  0
    5.4641    7.0000    0.0000 C   0  0  0  0  0  0  0  0  0  0  0  0
    5.4641   -2.0000    0.0000 C   0  0  0  0  0  0  0  0  0  0  0  0
    4.5981   -2.5000    0.0000 C   0  0  0  0  0  0  0  0  0  0  0  0
    4.5981   -3.5000    0.0000 C   0  0  0  0  0  0  0  0  0  0  0  0
    3.7320   -4.0000    0.0000 C   0  0  0  0  0  0  0  0  0  0  0  0
    5.4641   -4.0000    0.0000 C   0  0  0  0  0  0  0  0  0  0  0  0
    3.7320   -5.0000    0.0000 C   0  0  0  0  0  0  0  0  0  0  0  0
    5.4641   -5.0000    0.0000 C   0  0  0  0  0  0  0  0  0  0  0  0
    4.5981   -5.5000    0.0000 C   0  0  0  0  0  0  0  0  0  0  0  0
    3.7320   -7.0000    0.0000 C   0  0  0  0  0  0  0  0  0  0  0  0
    2.8660   -6.5000    0.0000 C   0  0  0  0  0  0  0  0  0  0  0  0
    3.7320   -8.0000    0.0000 C   0  0  0  0  0  0  0  0  0  0  0  0
    2.0000   -7.0000    0.0000 C   0  0  0  0  0  0  0  0  0  0  0  0
    2.8660   -8.5000    0.0000 C   0  0  0  0  0  0  0  0  0  0  0  0
    2.0000   -8.0000    0.0000 C   0  0  0  0  0  0  0  0  0  0  0  0
    9.1403    3.4174    0.0000 H   0  0  0  0  0  0  0  0  0  0  0  0
    9.5388    4.1077    0.0000 H   0  0  0  0  0  0  0  0  0  0  0  0
    6.5856    4.1077    0.0000 H   0  0  0  0  0  0  0  0  0  0  0  0
    6.9841    3.4174    0.0000 H   0  0  0  0  0  0  0  0  0  0  0  0
    9.5388    4.8923    0.0000 H   0  0  0  0  0  0  0  0  0  0  0  0
    9.1403    5.5826    0.0000 H   0  0  0  0  0  0  0  0  0  0  0  0
    6.9841    5.5826    0.0000 H   0  0  0  0  0  0  0  0  0  0  0  0
    6.5856    4.8923    0.0000 H   0  0  0  0  0  0  0  0  0  0  0  0
    8.2742    1.9174    0.0000 H   0  0  0  0  0  0  0  0  0  0  0  0
    8.6728    2.6077    0.0000 H   0  0  0  0  0  0  0  0  0  0  0  0
    6.9841    2.5826    0.0000 H   0  0  0  0  0  0  0  0  0  0  0  0
    6.5856    1.8923    0.0000 H   0  0  0  0  0  0  0  0  0  0  0  0
    7.4082    0.4174    0.0000 H   0  0  0  0  0  0  0  0  0  0  0  0
    7.8067    1.1077    0.0000 H   0  0  0  0  0  0  0  0  0  0  0  0
    6.1181    1.0826    0.0000 H   0  0  0  0  0  0  0  0  0  0  0  0
    5.7196    0.3923    0.0000 H   0  0  0  0  0  0  0  0  0  0  0  0
    9.4651    6.6900    0.0000 H   0  0  0  0  0  0  0  0  0  0  0  0
    6.6592    8.3100    0.0000 H   0  0  0  0  0  0  0  0  0  0  0  0
    9.4651    8.3100    0.0000 H   0  0  0  0  0  0  0  0  0  0  0  0
    6.8671   -0.8100    0.0000 H   0  0  0  0  0  0  0  0  0  0  0  0
    8.0622    9.1200    0.0000 H   0  0  0  0  0  0  0  0  0  0  0  0
    5.7741    7.5369    0.0000 H   0  0  0  0  0  0  0  0  0  0  0  0
    4.9272    7.3100    0.0000 H   0  0  0  0  0  0  0  0  0  0  0  0
    5.1541    6.4631    0.0000 H   0  0  0  0  0  0  0  0  0  0  0  0
    6.0010   -2.3100    0.0000 H   0  0  0  0  0  0  0  0  0  0  0  0
    4.0611   -2.1900    0.0000 H   0  0  0  0  0  0  0  0  0  0  0  0
    3.1951   -3.6900    0.0000 H   0  0  0  0  0  0  0  0  0  0  0  0
    6.0010   -3.6900    0.0000 H   0  0  0  0  0  0  0  0  0  0  0  0
    3.1951   -5.3100    0.0000 H   0  0  0  0  0  0  0  0  0  0  0  0
    6.0010   -5.3100    0.0000 H   0  0  0  0  0  0  0  0  0  0  0  0
    2.8660   -5.8800    0.0000 H   0  0  0  0  0  0  0  0  0  0  0  0
    4.2690   -8.3100    0.0000 H   0  0  0  0  0  0  0  0  0  0  0  0
    1.4631   -6.6900    0.0000 H   0  0  0  0  0  0  0  0  0  0  0  0
    2.8660   -9.1200    0.0000 H   0  0  0  0  0  0  0  0  0  0  0  0
    1.4631   -8.3100    0.0000 H   0  0  0  0  0  0  0  0  0  0  0  0
  1 16  1  0  0  0  0
  1 22  1  0  0  0  0
  2 21  2  0  0  0  0
  3 30  1  0  0  0  0
  3 31  1  0  0  0  0
  4  7  1  0  0  0  0
  4  8  1  0  0  0  0
  4 11  1  0  0  0  0
  5  9  1  0  0  0  0
  5 10  1  0  0  0  0
  5 13  1  0  0  0  0
  6 15  1  0  0  0  0
  6 21  1  0  0  0  0
  6 56  1  0  0  0  0
  7  9  1  0  0  0  0
  7 37  1  0  0  0  0
  7 38  1  0  0  0  0
  8 10  1  0  0  0  0
  8 39  1  0  0  0  0
  8 40  1  0  0  0  0
  9 41  1  0  0  0  0
  9 42  1  0  0  0  0
 10 43  1  0  0  0  0
 10 44  1  0  0  0  0
 11 12  1  0  0  0  0
 11 45  1  0  0  0  0
 11 46  1  0  0  0  0
 12 14  1  0  0  0  0
 12 47  1  0  0  0  0
 12 48  1  0  0  0  0
 13 16  1  0  0  0  0
 13 17  2  0  0  0  0
 14 15  1  0  0  0  0
 14 49  1  0  0  0  0
 14 50  1  0  0  0  0
 15 51  1  0  0  0  0
 15 52  1  0  0  0  0
 16 18  2  0  0  0  0
 17 19  1  0  0  0  0
 17 53  1  0  0  0  0
 18 20  1  0  0  0  0
 18 54  1  0  0  0  0
 19 20  2  0  0  0  0
 19 55  1  0  0  0  0
 20 57  1  0  0  0  0
 21 23  1  0  0  0  0
 22 58  1  0  0  0  0
 22 59  1  0  0  0  0
 22 60  1  0  0  0  0
 23 24  2  0  0  0  0
 23 61  1  0  0  0  0
 24 25  1  0  0  0  0
 24 62  1  0  0  0  0
 25 26  2  0  0  0  0
 25 27  1  0  0  0  0
 26 28  1  0  0  0  0
 26 63  1  0  0  0  0
 27 29  2  0  0  0  0
 27 64  1  0  0  0  0
 28 30  2  0  0  0  0
 28 65  1  0  0  0  0
 29 30  1  0  0  0  0
 29 66  1  0  0  0  0
 31 32  2  0  0  0  0
 31 33  1  0  0  0  0
 32 34  1  0  0  0  0
 32 67  1  0  0  0  0
 33 35  2  0  0  0  0
 33 68  1  0  0  0  0
 34 36  2  0  0  0  0
 34 69  1  0  0  0  0
 35 36  1  0  0  0  0
 35 70  1  0  0  0  0
 36 71  1  0  0  0  0
M  END
> <PUBCHEM_COMPOUND_CID>
11812905

> <PUBCHEM_COMPOUND_CANONICALIZED>
1

> <PUBCHEM_CACTVS_COMPLEXITY>
650

> <PUBCHEM_CACTVS_HBOND_ACCEPTOR>
5

> <PUBCHEM_CACTVS_HBOND_DONOR>
1

> <PUBCHEM_CACTVS_ROTATABLE_BOND>
11

> <PUBCHEM_CACTVS_SUBSKEYS>
AAADcfB7MAAAAAAAAAAAAAAAAAAAAAAAAAA8YMEAAAAAAAABUAAAHgAQAAAADAzBmAYyxoPABACIAiVSUACCCAAhIgAIiIAPbMgOZiLEsZuXOCjk1hHY6YeQwAAOIAAAAAAAEABAAAAAAAAgAAAAAAAAAA==

> <PUBCHEM_IUPAC_OPENEYE_NAME>
(E)-N-[4-[4-(2-methoxyphenyl)piperazin-1-yl]butyl]-3-(4-phenoxyphenyl)prop-2-enamide

> <PUBCHEM_IUPAC_CAS_NAME>
(E)-N-[4-[4-(2-methoxyphenyl)-1-piperazinyl]butyl]-3-(4-phenoxyphenyl)-2-propenamide

> <PUBCHEM_IUPAC_NAME_MARKUP>
(<I>E</I>)-<I>N</I>-[4-[4-(2-methoxyphenyl)piperazin-1-yl]butyl]-3-(4-phenoxyphenyl)prop-2-enamide

> <PUBCHEM_IUPAC_NAME>
(E)-N-[4-[4-(2-methoxyphenyl)piperazin-1-yl]butyl]-3-(4-phenoxyphenyl)prop-2-enamide

> <PUBCHEM_IUPAC_SYSTEMATIC_NAME>
(E)-N-[4-[4-(2-methoxyphenyl)piperazin-1-yl]butyl]-3-(4-phenoxyphenyl)prop-2-enamide

> <PUBCHEM_IUPAC_TRADITIONAL_NAME>
(E)-N-[4-[4-(2-methoxyphenyl)piperazino]butyl]-3-(4-phenoxyphenyl)acrylamide

> <PUBCHEM_IUPAC_INCHI>
InChI=1S/C30H35N3O3/c1-35-29-12-6-5-11-28(29)33-23-21-32(22-24-33)20-8-7-19-31-30(34)18-15-25-13-16-27(17-14-25)36-26-9-3-2-4-10-26/h2-6,9-18H,7-8,19-24H2,1H3,(H,31,34)/b18-15+

> <PUBCHEM_IUPAC_INCHIKEY>
VSWBBUWHPLHOIX-OBGWFSINSA-N

> <PUBCHEM_XLOGP3_AA>
5.5

> <PUBCHEM_EXACT_MASS>
485.26784199

> <PUBCHEM_MOLECULAR_FORMULA>
C30H35N3O3

> <PUBCHEM_MOLECULAR_WEIGHT>
485.6

> <PUBCHEM_OPENEYE_CAN_SMILES>
COC1=CC=CC=C1N2CCN(CC2)CCCCNC(=O)C=CC3=CC=C(C=C3)OC4=CC=CC=C4

> <PUBCHEM_OPENEYE_ISO_SMILES>
COC1=CC=CC=C1N2CCN(CC2)CCCCNC(=O)/C=C/C3=CC=C(C=C3)OC4=CC=CC=C4

> <PUBCHEM_CACTVS_TPSA>
54

> <PUBCHEM_MONOISOTOPIC_WEIGHT>
485.26784199

> <PUBCHEM_TOTAL_CHARGE>
0

> <PUBCHEM_HEAVY_ATOM_COUNT>
36

> <PUBCHEM_ATOM_DEF_STEREO_COUNT>
0

> <PUBCHEM_ATOM_UDEF_STEREO_COUNT>
0

> <PUBCHEM_BOND_DEF_STEREO_COUNT>
1

> <PUBCHEM_BOND_UDEF_STEREO_COUNT>
0

> <PUBCHEM_ISOTOPIC_ATOM_COUNT>
0

> <PUBCHEM_COMPONENT_COUNT>
1

> <PUBCHEM_CACTVS_TAUTO_COUNT>
-1

> <PUBCHEM_COORDINATE_TYPE>
1
5
255

> <PUBCHEM_BONDANNOTATIONS>
13  16  8
13  17  8
16  18  8
17  19  8
18  20  8
19  20  8
25  26  8
25  27  8
26  28  8
27  29  8
28  30  8
29  30  8
31  32  8
31  33  8
32  34  8
33  35  8
34  36  8
35  36  8

$$$$
