90643700
  -OEChem-09292322352D

 67 71  0     1  0  0  0  0  0999 V2000
    2.0000   -2.2675    0.0000 Cl  0  0  0  0  0  0  0  0  0  0  0  0
    6.7603    0.0433    0.0000 O   0  0  0  0  0  0  0  0  0  0  0  0
    9.9759    0.7164    0.0000 O   0  0  0  0  0  0  0  0  0  0  0  0
    4.3801    0.8198    0.0000 N   0  0  3  0  0  0  0  0  0  0  0  0
    9.1099    2.2164    0.0000 N   0  0  0  0  0  0  0  0  0  0  0  0
    3.6730    0.1127    0.0000 C   0  0  2  0  0  0  0  0  0  0  0  0
    3.4142   -0.8532    0.0000 C   0  0  2  0  0  0  0  0  0  0  0  0
    2.7071   -0.1461    0.0000 C   0  0  0  0  0  0  0  0  0  0  0  0
    7.0191    1.0093    0.0000 C   0  0  0  0  0  0  0  0  0  0  0  0
    7.9850    0.7504    0.0000 C   0  0  0  0  0  0  0  0  0  0  0  0
    7.2779    1.9752    0.0000 C   0  0  0  0  0  0  0  0  0  0  0  0
    6.0532    1.2681    0.0000 C   0  0  0  0  0  0  0  0  0  0  0  0
    8.2438    1.7164    0.0000 C   0  0  0  0  0  0  0  0  0  0  0  0
    5.3461    0.5610    0.0000 C   0  0  0  0  0  0  0  0  0  0  0  0
    3.6730   -1.8192    0.0000 C   0  0  0  0  0  0  0  0  0  0  0  0
    4.1213    1.7857    0.0000 C   0  0  0  0  0  0  0  0  0  0  0  0
    3.1554    2.0445    0.0000 C   0  0  0  0  0  0  0  0  0  0  0  0
    2.9659   -2.5263    0.0000 C   0  0  0  0  0  0  0  0  0  0  0  0
    4.6390   -2.0780    0.0000 C   0  0  0  0  0  0  0  0  0  0  0  0
    9.9759    1.7164    0.0000 C   0  0  0  0  0  0  0  0  0  0  0  0
    2.8966    3.0105    0.0000 C   0  0  0  0  0  0  0  0  0  0  0  0
    3.2247   -3.4922    0.0000 C   0  0  0  0  0  0  0  0  0  0  0  0
    4.8978   -3.0439    0.0000 C   0  0  0  0  0  0  0  0  0  0  0  0
    4.1907   -3.7510    0.0000 C   0  0  0  0  0  0  0  0  0  0  0  0
   10.8419    2.2164    0.0000 C   0  0  0  0  0  0  0  0  0  0  0  0
   11.7079    1.7164    0.0000 C   0  0  0  0  0  0  0  0  0  0  0  0
   10.8419    3.2164    0.0000 C   0  0  0  0  0  0  0  0  0  0  0  0
   12.5740    2.2164    0.0000 C   0  0  0  0  0  0  0  0  0  0  0  0
   11.7079    3.7164    0.0000 C   0  0  0  0  0  0  0  0  0  0  0  0
   12.5740    3.2164    0.0000 C   0  0  0  0  0  0  0  0  0  0  0  0
   13.4679    1.6817    0.0000 C   0  0  0  0  0  0  0  0  0  0  0  0
   13.4679    3.7510    0.0000 C   0  0  0  0  0  0  0  0  0  0  0  0
   14.3740    2.1956    0.0000 C   0  0  0  0  0  0  0  0  0  0  0  0
   14.3740    3.2372    0.0000 C   0  0  0  0  0  0  0  0  0  0  0  0
    3.3630    0.6496    0.0000 H   0  0  0  0  0  0  0  0  0  0  0  0
    4.0342   -0.8532    0.0000 H   0  0  0  0  0  0  0  0  0  0  0  0
    2.4451    0.4158    0.0000 H   0  0  0  0  0  0  0  0  0  0  0  0
    2.1992   -0.5018    0.0000 H   0  0  0  0  0  0  0  0  0  0  0  0
    7.8246    0.1516    0.0000 H   0  0  0  0  0  0  0  0  0  0  0  0
    8.5839    0.5900    0.0000 H   0  0  0  0  0  0  0  0  0  0  0  0
    7.4384    2.5741    0.0000 H   0  0  0  0  0  0  0  0  0  0  0  0
    6.6790    2.1356    0.0000 H   0  0  0  0  0  0  0  0  0  0  0  0
    6.3152    1.8300    0.0000 H   0  0  0  0  0  0  0  0  0  0  0  0
    5.5453    1.6237    0.0000 H   0  0  0  0  0  0  0  0  0  0  0  0
    8.7357    1.3389    0.0000 H   0  0  0  0  0  0  0  0  0  0  0  0
    5.0840   -0.0009    0.0000 H   0  0  0  0  0  0  0  0  0  0  0  0
    5.8539    0.2054    0.0000 H   0  0  0  0  0  0  0  0  0  0  0  0
    4.7390    1.8398    0.0000 H   0  0  0  0  0  0  0  0  0  0  0  0
    4.1754    2.4034    0.0000 H   0  0  0  0  0  0  0  0  0  0  0  0
    9.1099    2.8364    0.0000 H   0  0  0  0  0  0  0  0  0  0  0  0
    7.1987   -0.3951    0.0000 H   0  0  0  0  0  0  0  0  0  0  0  0
    2.5378    1.9905    0.0000 H   0  0  0  0  0  0  0  0  0  0  0  0
    3.1014    1.4269    0.0000 H   0  0  0  0  0  0  0  0  0  0  0  0
    5.0774   -1.6396    0.0000 H   0  0  0  0  0  0  0  0  0  0  0  0
    3.4954    3.1709    0.0000 H   0  0  0  0  0  0  0  0  0  0  0  0
    2.7361    3.6093    0.0000 H   0  0  0  0  0  0  0  0  0  0  0  0
    2.2977    2.8500    0.0000 H   0  0  0  0  0  0  0  0  0  0  0  0
    2.7863   -3.9306    0.0000 H   0  0  0  0  0  0  0  0  0  0  0  0
    5.4966   -3.2044    0.0000 H   0  0  0  0  0  0  0  0  0  0  0  0
    4.3511   -4.3499    0.0000 H   0  0  0  0  0  0  0  0  0  0  0  0
   11.7079    1.0964    0.0000 H   0  0  0  0  0  0  0  0  0  0  0  0
   10.3050    3.5264    0.0000 H   0  0  0  0  0  0  0  0  0  0  0  0
   11.7079    4.3364    0.0000 H   0  0  0  0  0  0  0  0  0  0  0  0
   13.4607    1.0617    0.0000 H   0  0  0  0  0  0  0  0  0  0  0  0
   13.4607    4.3710    0.0000 H   0  0  0  0  0  0  0  0  0  0  0  0
   14.9097    1.8835    0.0000 H   0  0  0  0  0  0  0  0  0  0  0  0
   14.9097    3.5492    0.0000 H   0  0  0  0  0  0  0  0  0  0  0  0
  1 18  1  0  0  0  0
  2  9  1  0  0  0  0
  2 51  1  0  0  0  0
  3 20  2  0  0  0  0
  6  4  1  6  0  0  0
  4 14  1  0  0  0  0
  4 16  1  0  0  0  0
  5 13  1  0  0  0  0
  5 20  1  0  0  0  0
  5 50  1  0  0  0  0
  6  7  1  0  0  0  0
  6  8  1  0  0  0  0
  6 35  1  0  0  0  0
  7  8  1  0  0  0  0
  7 15  1  1  0  0  0
  7 36  1  0  0  0  0
  8 37  1  0  0  0  0
  8 38  1  0  0  0  0
  9 10  1  0  0  0  0
  9 11  1  0  0  0  0
  9 12  1  0  0  0  0
 10 13  1  0  0  0  0
 10 39  1  0  0  0  0
 10 40  1  0  0  0  0
 11 13  1  0  0  0  0
 11 41  1  0  0  0  0
 11 42  1  0  0  0  0
 12 14  1  0  0  0  0
 12 43  1  0  0  0  0
 12 44  1  0  0  0  0
 13 45  1  0  0  0  0
 14 46  1  0  0  0  0
 14 47  1  0  0  0  0
 15 18  1  0  0  0  0
 15 19  2  0  0  0  0
 16 17  1  0  0  0  0
 16 48  1  0  0  0  0
 16 49  1  0  0  0  0
 17 21  1  0  0  0  0
 17 52  1  0  0  0  0
 17 53  1  0  0  0  0
 18 22  2  0  0  0  0
 19 23  1  0  0  0  0
 19 54  1  0  0  0  0
 20 25  1  0  0  0  0
 21 55  1  0  0  0  0
 21 56  1  0  0  0  0
 21 57  1  0  0  0  0
 22 24  1  0  0  0  0
 22 58  1  0  0  0  0
 23 24  2  0  0  0  0
 23 59  1  0  0  0  0
 24 60  1  0  0  0  0
 25 26  2  0  0  0  0
 25 27  1  0  0  0  0
 26 28  1  0  0  0  0
 26 61  1  0  0  0  0
 27 29  2  0  0  0  0
 27 62  1  0  0  0  0
 28 30  1  0  0  0  0
 28 31  2  0  0  0  0
 29 30  1  0  0  0  0
 29 63  1  0  0  0  0
 30 32  2  0  0  0  0
 31 33  1  0  0  0  0
 31 64  1  0  0  0  0
 32 34  1  0  0  0  0
 32 65  1  0  0  0  0
 33 34  2  0  0  0  0
 33 66  1  0  0  0  0
 34 67  1  0  0  0  0
M  END
> <PUBCHEM_COMPOUND_CID>
90643700

> <PUBCHEM_COMPOUND_CANONICALIZED>
1

> <PUBCHEM_CACTVS_COMPLEXITY>
696

> <PUBCHEM_CACTVS_HBOND_ACCEPTOR>
3

> <PUBCHEM_CACTVS_HBOND_DONOR>
2

> <PUBCHEM_CACTVS_ROTATABLE_BOND>
9

> <PUBCHEM_CACTVS_SUBSKEYS>
AAADcfB7MAAEAAAAAAAAAAAAGABgAAAAAAAwYMAAAAAAAADBVAAAHgIQCAAADW7BmCQyAMPAAgCIAiFSEACCAAAkBQAIiIEIBsgIIDKBlxGEYQhmlgCIiYcYiMCOwAACAAARAACAAAQAACIAAAAAAAAAAA==

> <PUBCHEM_IUPAC_OPENEYE_NAME>
N-[3-[2-[[(1S,2R)-2-(2-chlorophenyl)cyclopropyl]-propyl-amino]ethyl]-3-hydroxy-cyclobutyl]naphthalene-2-carboxamide

> <PUBCHEM_IUPAC_CAS_NAME>
N-[3-[2-[[(1S,2R)-2-(2-chlorophenyl)cyclopropyl]-propylamino]ethyl]-3-hydroxycyclobutyl]-2-naphthalenecarboxamide

> <PUBCHEM_IUPAC_NAME_MARKUP>
<I>N</I>-[3-[2-[[(1<I>S</I>,2<I>R</I>)-2-(2-chlorophenyl)cyclopropyl]-propylamino]ethyl]-3-hydroxycyclobutyl]naphthalene-2-carboxamide

> <PUBCHEM_IUPAC_NAME>
N-[3-[2-[[(1S,2R)-2-(2-chlorophenyl)cyclopropyl]-propylamino]ethyl]-3-hydroxycyclobutyl]naphthalene-2-carboxamide

> <PUBCHEM_IUPAC_SYSTEMATIC_NAME>
N-[3-[2-[[(1S,2R)-2-(2-chlorophenyl)cyclopropyl]-propyl-amino]ethyl]-3-oxidanyl-cyclobutyl]naphthalene-2-carboxamide

> <PUBCHEM_IUPAC_TRADITIONAL_NAME>
N-[3-[2-[[(1S,2R)-2-(2-chlorophenyl)cyclopropyl]-propyl-amino]ethyl]-3-hydroxy-cyclobutyl]-2-naphthamide

> <PUBCHEM_IUPAC_INCHI>
InChI=1S/C29H33ClN2O2/c1-2-14-32(27-17-25(27)24-9-5-6-10-26(24)30)15-13-29(34)18-23(19-29)31-28(33)22-12-11-20-7-3-4-8-21(20)16-22/h3-12,16,23,25,27,34H,2,13-15,17-19H2,1H3,(H,31,33)/t23?,25-,27+,29?/m1/s1

> <PUBCHEM_IUPAC_INCHIKEY>
HUIZNJVXOSCZJU-YHUAHKNQSA-N

> <PUBCHEM_XLOGP3_AA>
6.1

> <PUBCHEM_EXACT_MASS>
476.2230560

> <PUBCHEM_MOLECULAR_FORMULA>
C29H33ClN2O2

> <PUBCHEM_MOLECULAR_WEIGHT>
477.0

> <PUBCHEM_OPENEYE_CAN_SMILES>
CCCN(CCC1(CC(C1)NC(=O)C2=CC3=CC=CC=C3C=C2)O)C4CC4C5=CC=CC=C5Cl

> <PUBCHEM_OPENEYE_ISO_SMILES>
CCCN(CCC1(CC(C1)NC(=O)C2=CC3=CC=CC=C3C=C2)O)[C@H]4C[C@@H]4C5=CC=CC=C5Cl

> <PUBCHEM_CACTVS_TPSA>
52.6

> <PUBCHEM_MONOISOTOPIC_WEIGHT>
476.2230560

> <PUBCHEM_TOTAL_CHARGE>
0

> <PUBCHEM_HEAVY_ATOM_COUNT>
34

> <PUBCHEM_ATOM_DEF_STEREO_COUNT>
2

> <PUBCHEM_ATOM_UDEF_STEREO_COUNT>
0

> <PUBCHEM_BOND_DEF_STEREO_COUNT>
0

> <PUBCHEM_BOND_UDEF_STEREO_COUNT>
0

> <PUBCHEM_ISOTOPIC_ATOM_COUNT>
0

> <PUBCHEM_COMPONENT_COUNT>
1

> <PUBCHEM_CACTVS_TAUTO_COUNT>
-1

> <PUBCHEM_COORDINATE_TYPE>
1
5
255

> <PUBCHEM_BONDANNOTATIONS>
15  18  8
15  19  8
18  22  8
19  23  8
22  24  8
23  24  8
25  26  8
25  27  8
26  28  8
27  29  8
28  30  8
28  31  8
29  30  8
30  32  8
31  33  8
32  34  8
33  34  8
6  4  6
7  15  5

$$$$
