23630901
  -OEChem-09292322252D

 63 67  0     1  0  0  0  0  0999 V2000
    6.8867   -0.6436    0.0000 S   0  0  0  0  0  0  0  0  0  0  0  0
   15.6566    1.7094    0.0000 O   0  0  0  0  0  0  0  0  0  0  0  0
    9.8867    1.0884    0.0000 N   0  0  3  0  0  0  0  0  0  0  0  0
    5.2989   -1.4526    0.0000 N   0  0  0  0  0  0  0  0  0  0  0  0
   14.8421    3.1075    0.0000 N   0  0  0  0  0  0  0  0  0  0  0  0
    3.5388   -2.7314    0.0000 N   0  0  0  0  0  0  0  0  0  0  0  0
    5.2989    0.1654    0.0000 N   0  0  0  0  0  0  0  0  0  0  0  0
    4.3479   -0.1436    0.0000 N   0  0  0  0  0  0  0  0  0  0  0  0
   10.3206    1.9894    0.0000 C   0  0  0  0  0  0  0  0  0  0  0  0
   10.3206    0.1875    0.0000 C   0  0  0  0  0  0  0  0  0  0  0  0
   11.2955    2.2119    0.0000 C   0  0  0  0  0  0  0  0  0  0  0  0
   11.2955   -0.0351    0.0000 C   0  0  0  0  0  0  0  0  0  0  0  0
   12.0773    1.5884    0.0000 C   0  0  0  0  0  0  0  0  0  0  0  0
    8.8867    1.0884    0.0000 C   0  0  0  0  0  0  0  0  0  0  0  0
   12.0773    0.5884    0.0000 C   0  0  0  0  0  0  0  0  0  0  0  0
    8.3867    0.2224    0.0000 C   0  0  0  0  0  0  0  0  0  0  0  0
   12.9713    2.1231    0.0000 C   0  0  0  0  0  0  0  0  0  0  0  0
   12.9713    0.0538    0.0000 C   0  0  0  0  0  0  0  0  0  0  0  0
   13.8774    1.6092    0.0000 C   0  0  0  0  0  0  0  0  0  0  0  0
    7.3867    0.2224    0.0000 C   0  0  0  0  0  0  0  0  0  0  0  0
   13.8774    0.5676    0.0000 C   0  0  0  0  0  0  0  0  0  0  0  0
   14.7414    2.1126    0.0000 C   0  0  0  0  0  0  0  0  0  0  0  0
    5.8867   -0.6436    0.0000 C   0  0  0  0  0  0  0  0  0  0  0  0
    4.3479   -1.1436    0.0000 C   0  0  0  0  0  0  0  0  0  0  0  0
    3.5388   -1.7314    0.0000 C   0  0  0  0  0  0  0  0  0  0  0  0
   16.3228    2.4551    0.0000 C   0  0  0  0  0  0  0  0  0  0  0  0
   15.8195    3.3192    0.0000 C   0  0  0  0  0  0  0  0  0  0  0  0
    5.6079   -2.4037    0.0000 C   0  0  0  0  0  0  0  0  0  0  0  0
    2.5878   -1.4224    0.0000 C   0  0  0  0  0  0  0  0  0  0  0  0
    2.5878   -3.0404    0.0000 C   0  0  0  0  0  0  0  0  0  0  0  0
    2.0000   -2.2314    0.0000 C   0  0  0  0  0  0  0  0  0  0  0  0
    4.3479   -3.3192    0.0000 C   0  0  0  0  0  0  0  0  0  0  0  0
   17.3177    2.3544    0.0000 C   0  0  0  0  0  0  0  0  0  0  0  0
   10.3206    2.6094    0.0000 H   0  0  0  0  0  0  0  0  0  0  0  0
    9.7161    2.1274    0.0000 H   0  0  0  0  0  0  0  0  0  0  0  0
    9.7161    0.0495    0.0000 H   0  0  0  0  0  0  0  0  0  0  0  0
   10.3206   -0.4325    0.0000 H   0  0  0  0  0  0  0  0  0  0  0  0
   11.7802    2.5985    0.0000 H   0  0  0  0  0  0  0  0  0  0  0  0
   11.0265    2.7705    0.0000 H   0  0  0  0  0  0  0  0  0  0  0  0
   11.0265   -0.5937    0.0000 H   0  0  0  0  0  0  0  0  0  0  0  0
   11.7802   -0.4216    0.0000 H   0  0  0  0  0  0  0  0  0  0  0  0
    8.9944    1.6990    0.0000 H   0  0  0  0  0  0  0  0  0  0  0  0
    8.3041    1.3005    0.0000 H   0  0  0  0  0  0  0  0  0  0  0  0
    8.2790   -0.3882    0.0000 H   0  0  0  0  0  0  0  0  0  0  0  0
    8.9693    0.0104    0.0000 H   0  0  0  0  0  0  0  0  0  0  0  0
   12.9641    2.7431    0.0000 H   0  0  0  0  0  0  0  0  0  0  0  0
   12.9641   -0.5662    0.0000 H   0  0  0  0  0  0  0  0  0  0  0  0
    7.4944    0.8330    0.0000 H   0  0  0  0  0  0  0  0  0  0  0  0
    6.8041    0.4345    0.0000 H   0  0  0  0  0  0  0  0  0  0  0  0
   14.4131    0.2556    0.0000 H   0  0  0  0  0  0  0  0  0  0  0  0
    5.0183   -2.5953    0.0000 H   0  0  0  0  0  0  0  0  0  0  0  0
    5.7995   -2.9933    0.0000 H   0  0  0  0  0  0  0  0  0  0  0  0
    6.1976   -2.2121    0.0000 H   0  0  0  0  0  0  0  0  0  0  0  0
   16.0695    3.8866    0.0000 H   0  0  0  0  0  0  0  0  0  0  0  0
    2.3962   -0.8327    0.0000 H   0  0  0  0  0  0  0  0  0  0  0  0
    2.3962   -3.6301    0.0000 H   0  0  0  0  0  0  0  0  0  0  0  0
    1.3800   -2.2314    0.0000 H   0  0  0  0  0  0  0  0  0  0  0  0
    3.9834   -3.8208    0.0000 H   0  0  0  0  0  0  0  0  0  0  0  0
    4.8494   -3.6836    0.0000 H   0  0  0  0  0  0  0  0  0  0  0  0
    4.7123   -2.8176    0.0000 H   0  0  0  0  0  0  0  0  0  0  0  0
   17.2553    1.7376    0.0000 H   0  0  0  0  0  0  0  0  0  0  0  0
   17.9346    2.2920    0.0000 H   0  0  0  0  0  0  0  0  0  0  0  0
   17.3802    2.9712    0.0000 H   0  0  0  0  0  0  0  0  0  0  0  0
  1 20  1  0  0  0  0
  1 23  1  0  0  0  0
  2 22  1  0  0  0  0
  2 26  1  0  0  0  0
  3  9  1  0  0  0  0
  3 10  1  0  0  0  0
  3 14  1  0  0  0  0
  4 23  1  0  0  0  0
  4 24  1  0  0  0  0
  4 28  1  0  0  0  0
  5 22  2  0  0  0  0
  5 27  1  0  0  0  0
  6 25  1  0  0  0  0
  6 30  1  0  0  0  0
  6 32  1  0  0  0  0
  7  8  1  0  0  0  0
  7 23  2  0  0  0  0
  8 24  2  0  0  0  0
  9 11  1  0  0  0  0
  9 34  1  0  0  0  0
  9 35  1  0  0  0  0
 10 12  1  0  0  0  0
 10 36  1  0  0  0  0
 10 37  1  0  0  0  0
 11 13  1  0  0  0  0
 11 38  1  0  0  0  0
 11 39  1  0  0  0  0
 12 15  1  0  0  0  0
 12 40  1  0  0  0  0
 12 41  1  0  0  0  0
 13 15  2  0  0  0  0
 13 17  1  0  0  0  0
 14 16  1  0  0  0  0
 14 42  1  0  0  0  0
 14 43  1  0  0  0  0
 15 18  1  0  0  0  0
 16 20  1  0  0  0  0
 16 44  1  0  0  0  0
 16 45  1  0  0  0  0
 17 19  2  0  0  0  0
 17 46  1  0  0  0  0
 18 21  2  0  0  0  0
 18 47  1  0  0  0  0
 19 21  1  0  0  0  0
 19 22  1  0  0  0  0
 20 48  1  0  0  0  0
 20 49  1  0  0  0  0
 21 50  1  0  0  0  0
 24 25  1  0  0  0  0
 25 29  2  0  0  0  0
 26 27  2  0  0  0  0
 26 33  1  0  0  0  0
 27 54  1  0  0  0  0
 28 51  1  0  0  0  0
 28 52  1  0  0  0  0
 28 53  1  0  0  0  0
 29 31  1  0  0  0  0
 29 55  1  0  0  0  0
 30 31  2  0  0  0  0
 30 56  1  0  0  0  0
 31 57  1  0  0  0  0
 32 58  1  0  0  0  0
 32 59  1  0  0  0  0
 32 60  1  0  0  0  0
 33 61  1  0  0  0  0
 33 62  1  0  0  0  0
 33 63  1  0  0  0  0
M  END
> <PUBCHEM_COMPOUND_CID>
23630901

> <PUBCHEM_COMPOUND_CANONICALIZED>
1

> <PUBCHEM_CACTVS_COMPLEXITY>
628

> <PUBCHEM_CACTVS_HBOND_ACCEPTOR>
6

> <PUBCHEM_CACTVS_HBOND_DONOR>
0

> <PUBCHEM_CACTVS_ROTATABLE_BOND>
7

> <PUBCHEM_CACTVS_SUBSKEYS>
AAADceB7oABAAAAAAAAAAAAAAAAAAWLFgAAwAAAABYAAAAAB/AAAHgQIAAAADAzF3wS/lJcMFEiqA7d3dASS2Ct/QrAd2CG7bNiObvLgvbmfOQjkzgPY6YeYyPCOwAACAAAQAACAAAQAACAAAAAAAAAAAA==

> <PUBCHEM_IUPAC_OPENEYE_NAME>
5-methyl-2-[3-[3-[[4-methyl-5-(1-methylpyrrol-2-yl)-1,2,4-triazol-3-yl]sulfanyl]propyl]-1,2,4,5-tetrahydro-3-benzazepin-7-yl]oxazole

> <PUBCHEM_IUPAC_CAS_NAME>
5-methyl-2-[3-[3-[[4-methyl-5-(1-methyl-2-pyrrolyl)-1,2,4-triazol-3-yl]thio]propyl]-1,2,4,5-tetrahydro-3-benzazepin-7-yl]oxazole

> <PUBCHEM_IUPAC_NAME_MARKUP>
5-methyl-2-[3-[3-[[4-methyl-5-(1-methylpyrrol-2-yl)-1,2,4-triazol-3-yl]sulfanyl]propyl]-1,2,4,5-tetrahydro-3-benzazepin-7-yl]-1,3-oxazole

> <PUBCHEM_IUPAC_NAME>
5-methyl-2-[3-[3-[[4-methyl-5-(1-methylpyrrol-2-yl)-1,2,4-triazol-3-yl]sulfanyl]propyl]-1,2,4,5-tetrahydro-3-benzazepin-7-yl]-1,3-oxazole

> <PUBCHEM_IUPAC_SYSTEMATIC_NAME>
5-methyl-2-[3-[3-[[4-methyl-5-(1-methylpyrrol-2-yl)-1,2,4-triazol-3-yl]sulfanyl]propyl]-1,2,4,5-tetrahydro-3-benzazepin-7-yl]-1,3-oxazole

> <PUBCHEM_IUPAC_TRADITIONAL_NAME>
5-methyl-2-[3-[3-[[4-methyl-5-(1-methylpyrrol-2-yl)-1,2,4-triazol-3-yl]thio]propyl]-1,2,4,5-tetrahydro-3-benzazepin-7-yl]oxazole

> <PUBCHEM_IUPAC_INCHI>
InChI=1S/C25H30N6OS/c1-18-17-26-24(32-18)21-8-7-19-9-13-31(14-10-20(19)16-21)12-5-15-33-25-28-27-23(30(25)3)22-6-4-11-29(22)2/h4,6-8,11,16-17H,5,9-10,12-15H2,1-3H3

> <PUBCHEM_IUPAC_INCHIKEY>
FEBUQPUIWDHVMW-UHFFFAOYSA-N

> <PUBCHEM_XLOGP3_AA>
3.6

> <PUBCHEM_EXACT_MASS>
462.22018078

> <PUBCHEM_MOLECULAR_FORMULA>
C25H30N6OS

> <PUBCHEM_MOLECULAR_WEIGHT>
462.6

> <PUBCHEM_OPENEYE_CAN_SMILES>
CC1=CN=C(O1)C2=CC3=C(CCN(CC3)CCCSC4=NN=C(N4C)C5=CC=CN5C)C=C2

> <PUBCHEM_OPENEYE_ISO_SMILES>
CC1=CN=C(O1)C2=CC3=C(CCN(CC3)CCCSC4=NN=C(N4C)C5=CC=CN5C)C=C2

> <PUBCHEM_CACTVS_TPSA>
90.2

> <PUBCHEM_MONOISOTOPIC_WEIGHT>
462.22018078

> <PUBCHEM_TOTAL_CHARGE>
0

> <PUBCHEM_HEAVY_ATOM_COUNT>
33

> <PUBCHEM_ATOM_DEF_STEREO_COUNT>
0

> <PUBCHEM_ATOM_UDEF_STEREO_COUNT>
0

> <PUBCHEM_BOND_DEF_STEREO_COUNT>
0

> <PUBCHEM_BOND_UDEF_STEREO_COUNT>
0

> <PUBCHEM_ISOTOPIC_ATOM_COUNT>
0

> <PUBCHEM_COMPONENT_COUNT>
1

> <PUBCHEM_CACTVS_TAUTO_COUNT>
-1

> <PUBCHEM_COORDINATE_TYPE>
1
5
255

> <PUBCHEM_BONDANNOTATIONS>
13  15  8
13  17  8
15  18  8
17  19  8
18  21  8
19  21  8
2  22  8
2  26  8
25  29  8
26  27  8
29  31  8
30  31  8
4  23  8
4  24  8
5  22  8
5  27  8
6  25  8
6  30  8
7  23  8
7  8  8
8  24  8

$$$$
