23624307
  -OEChem-09292322462D

 46 49  0     0  0  0  0  0  0999 V2000
    9.1364    0.2878    0.0000 S   0  0  0  0  0  0  0  0  0  0  0  0
    8.1364    0.2878    0.0000 O   0  0  0  0  0  0  0  0  0  0  0  0
   10.1363    0.2878    0.0000 O   0  0  0  0  0  0  0  0  0  0  0  0
    5.3496   -3.3225    0.0000 O   0  0  0  0  0  0  0  0  0  0  0  0
    9.1364   -0.7122    0.0000 N   0  0  0  0  0  0  0  0  0  0  0  0
    9.9411   -1.2958    0.0000 N   0  0  0  0  0  0  0  0  0  0  0  0
    5.7068   -1.6277    0.0000 N   0  0  0  0  0  0  0  0  0  0  0  0
    2.4141   -2.7038    0.0000 N   0  0  0  0  0  0  0  0  0  0  0  0
    8.3316   -1.2958    0.0000 C   0  0  0  0  0  0  0  0  0  0  0  0
    9.1364    1.2878    0.0000 C   0  0  0  0  0  0  0  0  0  0  0  0
    8.6423   -2.2463    0.0000 C   0  0  0  0  0  0  0  0  0  0  0  0
   10.0024    1.7878    0.0000 C   0  0  0  0  0  0  0  0  0  0  0  0
    7.3531   -1.0896    0.0000 C   0  0  0  0  0  0  0  0  0  0  0  0
   10.0024    2.7878    0.0000 C   0  0  0  0  0  0  0  0  0  0  0  0
    6.6853   -1.8339    0.0000 C   0  0  0  0  0  0  0  0  0  0  0  0
    8.2703    1.7878    0.0000 C   0  0  0  0  0  0  0  0  0  0  0  0
    9.6364   -2.2420    0.0000 C   0  0  0  0  0  0  0  0  0  0  0  0
    7.9744   -2.9906    0.0000 C   0  0  0  0  0  0  0  0  0  0  0  0
    6.9959   -2.7844    0.0000 C   0  0  0  0  0  0  0  0  0  0  0  0
   10.8963    1.2532    0.0000 C   0  0  0  0  0  0  0  0  0  0  0  0
    9.1364    3.2878    0.0000 C   0  0  0  0  0  0  0  0  0  0  0  0
    8.2703    2.7878    0.0000 C   0  0  0  0  0  0  0  0  0  0  0  0
   10.8963    3.3225    0.0000 C   0  0  0  0  0  0  0  0  0  0  0  0
   11.8024    1.7670    0.0000 C   0  0  0  0  0  0  0  0  0  0  0  0
   11.8024    2.8086    0.0000 C   0  0  0  0  0  0  0  0  0  0  0  0
    5.0389   -2.3720    0.0000 C   0  0  0  0  0  0  0  0  0  0  0  0
    4.0604   -2.1657    0.0000 C   0  0  0  0  0  0  0  0  0  0  0  0
    3.3926   -2.9100    0.0000 C   0  0  0  0  0  0  0  0  0  0  0  0
    7.1605   -0.5003    0.0000 H   0  0  0  0  0  0  0  0  0  0  0  0
    7.7334    1.4778    0.0000 H   0  0  0  0  0  0  0  0  0  0  0  0
   10.0025   -2.7423    0.0000 H   0  0  0  0  0  0  0  0  0  0  0  0
    8.1670   -3.5799    0.0000 H   0  0  0  0  0  0  0  0  0  0  0  0
    6.5819   -3.2459    0.0000 H   0  0  0  0  0  0  0  0  0  0  0  0
   10.8891    0.6332    0.0000 H   0  0  0  0  0  0  0  0  0  0  0  0
    9.1364    3.9078    0.0000 H   0  0  0  0  0  0  0  0  0  0  0  0
    7.7334    3.0978    0.0000 H   0  0  0  0  0  0  0  0  0  0  0  0
   10.8891    3.9424    0.0000 H   0  0  0  0  0  0  0  0  0  0  0  0
    5.5142   -1.0383    0.0000 H   0  0  0  0  0  0  0  0  0  0  0  0
   12.3381    1.4549    0.0000 H   0  0  0  0  0  0  0  0  0  0  0  0
   12.3381    3.1207    0.0000 H   0  0  0  0  0  0  0  0  0  0  0  0
    4.2917   -1.5905    0.0000 H   0  0  0  0  0  0  0  0  0  0  0  0
    3.5340   -1.8381    0.0000 H   0  0  0  0  0  0  0  0  0  0  0  0
    3.1613   -3.4853    0.0000 H   0  0  0  0  0  0  0  0  0  0  0  0
    3.9189   -3.2377    0.0000 H   0  0  0  0  0  0  0  0  0  0  0  0
    2.0000   -3.1653    0.0000 H   0  0  0  0  0  0  0  0  0  0  0  0
    2.2214   -2.1145    0.0000 H   0  0  0  0  0  0  0  0  0  0  0  0
  1  2  2  0  0  0  0
  1  3  2  0  0  0  0
  1  5  1  0  0  0  0
  1 10  1  0  0  0  0
  4 26  2  0  0  0  0
  5  6  1  0  0  0  0
  5  9  1  0  0  0  0
  6 17  2  0  0  0  0
  7 15  1  0  0  0  0
  7 26  1  0  0  0  0
  7 38  1  0  0  0  0
  8 28  1  0  0  0  0
  8 45  1  0  0  0  0
  8 46  1  0  0  0  0
  9 11  2  0  0  0  0
  9 13  1  0  0  0  0
 10 12  1  0  0  0  0
 10 16  2  0  0  0  0
 11 17  1  0  0  0  0
 11 18  1  0  0  0  0
 12 14  1  0  0  0  0
 12 20  2  0  0  0  0
 13 15  2  0  0  0  0
 13 29  1  0  0  0  0
 14 21  1  0  0  0  0
 14 23  2  0  0  0  0
 15 19  1  0  0  0  0
 16 22  1  0  0  0  0
 16 30  1  0  0  0  0
 17 31  1  0  0  0  0
 18 19  2  0  0  0  0
 18 32  1  0  0  0  0
 19 33  1  0  0  0  0
 20 24  1  0  0  0  0
 20 34  1  0  0  0  0
 21 22  2  0  0  0  0
 21 35  1  0  0  0  0
 22 36  1  0  0  0  0
 23 25  1  0  0  0  0
 23 37  1  0  0  0  0
 24 25  2  0  0  0  0
 24 39  1  0  0  0  0
 25 40  1  0  0  0  0
 26 27  1  0  0  0  0
 27 28  1  0  0  0  0
 27 41  1  0  0  0  0
 27 42  1  0  0  0  0
 28 43  1  0  0  0  0
 28 44  1  0  0  0  0
M  END
> <PUBCHEM_COMPOUND_CID>
23624307

> <PUBCHEM_COMPOUND_CANONICALIZED>
1

> <PUBCHEM_CACTVS_COMPLEXITY>
665

> <PUBCHEM_CACTVS_HBOND_ACCEPTOR>
5

> <PUBCHEM_CACTVS_HBOND_DONOR>
2

> <PUBCHEM_CACTVS_ROTATABLE_BOND>
5

> <PUBCHEM_CACTVS_SUBSKEYS>
AAADceB7sABAAAAAAAAAAAAAAAAAAWAAAAAwYMAAAAAAAFjB9AAAHgQYQAAADAjB3gQ8wfLAAAKqAzV3UHDSBBAhggAYmLkwZJgIIKrA0dGEpAhgnADIyAcQgIAOiAAAgAQWAAAQAAEACCwAAAAAAAAAAA==

> <PUBCHEM_IUPAC_OPENEYE_NAME>
3-amino-N-[1-(1-naphthylsulfonyl)indazol-6-yl]propanamide

> <PUBCHEM_IUPAC_CAS_NAME>
3-amino-N-[1-(1-naphthalenylsulfonyl)-6-indazolyl]propanamide

> <PUBCHEM_IUPAC_NAME_MARKUP>
3-amino-<I>N</I>-(1-naphthalen-1-ylsulfonylindazol-6-yl)propanamide

> <PUBCHEM_IUPAC_NAME>
3-amino-N-(1-naphthalen-1-ylsulfonylindazol-6-yl)propanamide

> <PUBCHEM_IUPAC_SYSTEMATIC_NAME>
3-azanyl-N-(1-naphthalen-1-ylsulfonylindazol-6-yl)propanamide

> <PUBCHEM_IUPAC_TRADITIONAL_NAME>
3-amino-N-[1-(1-naphthylsulfonyl)indazol-6-yl]propionamide

> <PUBCHEM_IUPAC_INCHI>
InChI=1S/C20H18N4O3S/c21-11-10-20(25)23-16-9-8-15-13-22-24(18(15)12-16)28(26,27)19-7-3-5-14-4-1-2-6-17(14)19/h1-9,12-13H,10-11,21H2,(H,23,25)

> <PUBCHEM_IUPAC_INCHIKEY>
YSQAQADMLFUOTE-UHFFFAOYSA-N

> <PUBCHEM_XLOGP3_AA>
2.8

> <PUBCHEM_EXACT_MASS>
394.10996162

> <PUBCHEM_MOLECULAR_FORMULA>
C20H18N4O3S

> <PUBCHEM_MOLECULAR_WEIGHT>
394.4

> <PUBCHEM_OPENEYE_CAN_SMILES>
C1=CC=C2C(=C1)C=CC=C2S(=O)(=O)N3C4=C(C=CC(=C4)NC(=O)CCN)C=N3

> <PUBCHEM_OPENEYE_ISO_SMILES>
C1=CC=C2C(=C1)C=CC=C2S(=O)(=O)N3C4=C(C=CC(=C4)NC(=O)CCN)C=N3

> <PUBCHEM_CACTVS_TPSA>
116

> <PUBCHEM_MONOISOTOPIC_WEIGHT>
394.10996162

> <PUBCHEM_TOTAL_CHARGE>
0

> <PUBCHEM_HEAVY_ATOM_COUNT>
28

> <PUBCHEM_ATOM_DEF_STEREO_COUNT>
0

> <PUBCHEM_ATOM_UDEF_STEREO_COUNT>
0

> <PUBCHEM_BOND_DEF_STEREO_COUNT>
0

> <PUBCHEM_BOND_UDEF_STEREO_COUNT>
0

> <PUBCHEM_ISOTOPIC_ATOM_COUNT>
0

> <PUBCHEM_COMPONENT_COUNT>
1

> <PUBCHEM_CACTVS_TAUTO_COUNT>
-1

> <PUBCHEM_COORDINATE_TYPE>
1
5
255

> <PUBCHEM_BONDANNOTATIONS>
10  12  8
10  16  8
11  17  8
11  18  8
12  14  8
12  20  8
13  15  8
14  21  8
14  23  8
15  19  8
16  22  8
18  19  8
20  24  8
21  22  8
23  25  8
24  25  8
5  6  8
5  9  8
6  17  8
9  11  8
9  13  8

$$$$
