10835110
  -OEChem-09292322102D

 51 53  0     1  0  0  0  0  0999 V2000
    2.0000   -2.2694    0.0000 Cl  0  0  0  0  0  0  0  0  0  0  0  0
    3.7320   -3.2694    0.0000 Cl  0  0  0  0  0  0  0  0  0  0  0  0
    3.7320    0.7306    0.0000 S   0  0  0  0  0  0  0  0  0  0  0  0
    4.7320    0.7306    0.0000 O   0  0  0  0  0  0  0  0  0  0  0  0
    2.7320    0.7306    0.0000 O   0  0  0  0  0  0  0  0  0  0  0  0
    3.7320    1.7306    0.0000 N   0  0  3  0  0  0  0  0  0  0  0  0
    7.1863    2.3695    0.0000 N   0  0  0  0  0  0  0  0  0  0  0  0
    4.5411    2.3184    0.0000 C   0  0  2  0  0  0  0  0  0  0  0  0
    4.2320    3.2694    0.0000 C   0  0  0  0  0  0  0  0  0  0  0  0
    5.4921    2.0094    0.0000 C   0  0  0  0  0  0  0  0  0  0  0  0
    3.2320    3.2694    0.0000 C   0  0  0  0  0  0  0  0  0  0  0  0
    2.9230    2.3184    0.0000 C   0  0  0  0  0  0  0  0  0  0  0  0
    6.2353    2.6785    0.0000 C   0  0  0  0  0  0  0  0  0  0  0  0
    9.0884    1.7514    0.0000 C   0  0  0  0  0  0  0  0  0  0  0  0
    7.3942    1.3913    0.0000 C   0  0  0  0  0  0  0  0  0  0  0  0
    7.9295    3.0386    0.0000 C   0  0  0  0  0  0  0  0  0  0  0  0
    8.3453    1.0823    0.0000 C   0  0  0  0  0  0  0  0  0  0  0  0
    8.8805    2.7296    0.0000 C   0  0  0  0  0  0  0  0  0  0  0  0
   10.0395    1.4424    0.0000 C   0  0  0  0  0  0  0  0  0  0  0  0
    3.7320   -0.2694    0.0000 C   0  0  0  0  0  0  0  0  0  0  0  0
    2.8660   -0.7694    0.0000 C   0  0  0  0  0  0  0  0  0  0  0  0
    4.5981   -0.7694    0.0000 C   0  0  0  0  0  0  0  0  0  0  0  0
    2.8660   -1.7694    0.0000 C   0  0  0  0  0  0  0  0  0  0  0  0
    4.5981   -1.7694    0.0000 C   0  0  0  0  0  0  0  0  0  0  0  0
    3.7320   -2.2694    0.0000 C   0  0  0  0  0  0  0  0  0  0  0  0
    4.6381    1.7060    0.0000 H   0  0  0  0  0  0  0  0  0  0  0  0
    4.8385    3.3983    0.0000 H   0  0  0  0  0  0  0  0  0  0  0  0
    4.1672    3.8860    0.0000 H   0  0  0  0  0  0  0  0  0  0  0  0
    5.2011    1.4619    0.0000 H   0  0  0  0  0  0  0  0  0  0  0  0
    5.9807    1.6276    0.0000 H   0  0  0  0  0  0  0  0  0  0  0  0
    3.2969    3.8860    0.0000 H   0  0  0  0  0  0  0  0  0  0  0  0
    2.6256    3.3983    0.0000 H   0  0  0  0  0  0  0  0  0  0  0  0
    2.3566    2.5705    0.0000 H   0  0  0  0  0  0  0  0  0  0  0  0
    2.6130    1.7814    0.0000 H   0  0  0  0  0  0  0  0  0  0  0  0
    6.5263    3.2259    0.0000 H   0  0  0  0  0  0  0  0  0  0  0  0
    5.7467    3.0602    0.0000 H   0  0  0  0  0  0  0  0  0  0  0  0
    9.5492    2.1663    0.0000 H   0  0  0  0  0  0  0  0  0  0  0  0
    6.7746    1.3697    0.0000 H   0  0  0  0  0  0  0  0  0  0  0  0
    7.3080    0.7773    0.0000 H   0  0  0  0  0  0  0  0  0  0  0  0
    8.2205    3.5860    0.0000 H   0  0  0  0  0  0  0  0  0  0  0  0
    7.4409    3.4203    0.0000 H   0  0  0  0  0  0  0  0  0  0  0  0
    8.0542    0.5349    0.0000 H   0  0  0  0  0  0  0  0  0  0  0  0
    8.8339    0.7006    0.0000 H   0  0  0  0  0  0  0  0  0  0  0  0
    9.5002    2.7512    0.0000 H   0  0  0  0  0  0  0  0  0  0  0  0
    8.9668    3.3435    0.0000 H   0  0  0  0  0  0  0  0  0  0  0  0
    9.8479    0.8528    0.0000 H   0  0  0  0  0  0  0  0  0  0  0  0
   10.6292    1.2508    0.0000 H   0  0  0  0  0  0  0  0  0  0  0  0
   10.2311    2.0321    0.0000 H   0  0  0  0  0  0  0  0  0  0  0  0
    2.3291   -0.4594    0.0000 H   0  0  0  0  0  0  0  0  0  0  0  0
    5.1350   -0.4594    0.0000 H   0  0  0  0  0  0  0  0  0  0  0  0
    5.1350   -2.0794    0.0000 H   0  0  0  0  0  0  0  0  0  0  0  0
  1 23  1  0  0  0  0
  2 25  1  0  0  0  0
  3  4  2  0  0  0  0
  3  5  2  0  0  0  0
  3  6  1  0  0  0  0
  3 20  1  0  0  0  0
  6  8  1  0  0  0  0
  6 12  1  0  0  0  0
  7 13  1  0  0  0  0
  7 15  1  0  0  0  0
  7 16  1  0  0  0  0
  8  9  1  0  0  0  0
  8 10  1  6  0  0  0
  8 26  1  0  0  0  0
  9 11  1  0  0  0  0
  9 27  1  0  0  0  0
  9 28  1  0  0  0  0
 10 13  1  0  0  0  0
 10 29  1  0  0  0  0
 10 30  1  0  0  0  0
 11 12  1  0  0  0  0
 11 31  1  0  0  0  0
 11 32  1  0  0  0  0
 12 33  1  0  0  0  0
 12 34  1  0  0  0  0
 13 35  1  0  0  0  0
 13 36  1  0  0  0  0
 14 17  1  0  0  0  0
 14 18  1  0  0  0  0
 14 19  1  0  0  0  0
 14 37  1  0  0  0  0
 15 17  1  0  0  0  0
 15 38  1  0  0  0  0
 15 39  1  0  0  0  0
 16 18  1  0  0  0  0
 16 40  1  0  0  0  0
 16 41  1  0  0  0  0
 17 42  1  0  0  0  0
 17 43  1  0  0  0  0
 18 44  1  0  0  0  0
 18 45  1  0  0  0  0
 19 46  1  0  0  0  0
 19 47  1  0  0  0  0
 19 48  1  0  0  0  0
 20 21  2  0  0  0  0
 20 22  1  0  0  0  0
 21 23  1  0  0  0  0
 21 49  1  0  0  0  0
 22 24  2  0  0  0  0
 22 50  1  0  0  0  0
 23 25  2  0  0  0  0
 24 25  1  0  0  0  0
 24 51  1  0  0  0  0
M  END
> <PUBCHEM_COMPOUND_CID>
10835110

> <PUBCHEM_COMPOUND_CANONICALIZED>
1

> <PUBCHEM_CACTVS_COMPLEXITY>
532

> <PUBCHEM_CACTVS_HBOND_ACCEPTOR>
4

> <PUBCHEM_CACTVS_HBOND_DONOR>
0

> <PUBCHEM_CACTVS_ROTATABLE_BOND>
5

> <PUBCHEM_CACTVS_SUBSKEYS>
AAADceB7MABGAAAAAAAAAAAAAAAAAWAAAAA8QAAAAAAAAAABAAAAHAYAQAAADSrBUCQyAYMAAAKAACBCAHBCABAgBQAIilgIAogIICKB0xCEIAAggACIiAcQAAAKAAIAABAAAAQABAAAIAAACAAAAAAAAA==

> <PUBCHEM_IUPAC_OPENEYE_NAME>
1-[2-[(2R)-1-(3,4-dichlorophenyl)sulfonylpyrrolidin-2-yl]ethyl]-4-methyl-piperidine

> <PUBCHEM_IUPAC_CAS_NAME>
1-[2-[(2R)-1-(3,4-dichlorophenyl)sulfonyl-2-pyrrolidinyl]ethyl]-4-methylpiperidine

> <PUBCHEM_IUPAC_NAME_MARKUP>
1-[2-[(2<I>R</I>)-1-(3,4-dichlorophenyl)sulfonylpyrrolidin-2-yl]ethyl]-4-methylpiperidine

> <PUBCHEM_IUPAC_NAME>
1-[2-[(2R)-1-(3,4-dichlorophenyl)sulfonylpyrrolidin-2-yl]ethyl]-4-methylpiperidine

> <PUBCHEM_IUPAC_SYSTEMATIC_NAME>
1-[2-[(2R)-1-(3,4-dichlorophenyl)sulfonylpyrrolidin-2-yl]ethyl]-4-methyl-piperidine

> <PUBCHEM_IUPAC_TRADITIONAL_NAME>
1-[2-[(2R)-1-(3,4-dichlorophenyl)sulfonylpyrrolidin-2-yl]ethyl]-4-methyl-piperidine

> <PUBCHEM_IUPAC_INCHI>
InChI=1S/C18H26Cl2N2O2S/c1-14-6-10-21(11-7-14)12-8-15-3-2-9-22(15)25(23,24)16-4-5-17(19)18(20)13-16/h4-5,13-15H,2-3,6-12H2,1H3/t15-/m1/s1

> <PUBCHEM_IUPAC_INCHIKEY>
OQCUZRRTKCFWET-OAHLLOKOSA-N

> <PUBCHEM_XLOGP3_AA>
4.6

> <PUBCHEM_EXACT_MASS>
404.1092046

> <PUBCHEM_MOLECULAR_FORMULA>
C18H26Cl2N2O2S

> <PUBCHEM_MOLECULAR_WEIGHT>
405.4

> <PUBCHEM_OPENEYE_CAN_SMILES>
CC1CCN(CC1)CCC2CCCN2S(=O)(=O)C3=CC(=C(C=C3)Cl)Cl

> <PUBCHEM_OPENEYE_ISO_SMILES>
CC1CCN(CC1)CC[C@H]2CCCN2S(=O)(=O)C3=CC(=C(C=C3)Cl)Cl

> <PUBCHEM_CACTVS_TPSA>
49

> <PUBCHEM_MONOISOTOPIC_WEIGHT>
404.1092046

> <PUBCHEM_TOTAL_CHARGE>
0

> <PUBCHEM_HEAVY_ATOM_COUNT>
25

> <PUBCHEM_ATOM_DEF_STEREO_COUNT>
1

> <PUBCHEM_ATOM_UDEF_STEREO_COUNT>
0

> <PUBCHEM_BOND_DEF_STEREO_COUNT>
0

> <PUBCHEM_BOND_UDEF_STEREO_COUNT>
0

> <PUBCHEM_ISOTOPIC_ATOM_COUNT>
0

> <PUBCHEM_COMPONENT_COUNT>
1

> <PUBCHEM_CACTVS_TAUTO_COUNT>
-1

> <PUBCHEM_COORDINATE_TYPE>
1
5
255

> <PUBCHEM_BONDANNOTATIONS>
20  21  8
20  22  8
21  23  8
22  24  8
23  25  8
24  25  8
8  10  6

$$$$
