44448054
  -OEChem-09292322152D

 37 41  0     1  0  0  0  0  0999 V2000
    2.0000   -1.9057    0.0000 O   0  0  0  0  0  0  0  0  0  0  0  0
    6.3389    1.5604    0.0000 N   0  0  3  0  0  0  0  0  0  0  0  0
    3.7214   -1.9407    0.0000 N   0  0  0  0  0  0  0  0  0  0  0  0
    5.4806    1.0635    0.0000 C   0  0  1  0  0  0  0  0  0  0  0  0
    5.4806    0.0635    0.0000 C   0  0  0  0  0  0  0  0  0  0  0  0
    4.6146    1.5635    0.0000 C   0  0  0  0  0  0  0  0  0  0  0  0
    4.6146   -0.4365    0.0000 C   0  0  0  0  0  0  0  0  0  0  0  0
    6.3906   -0.4433    0.0000 C   0  0  0  0  0  0  0  0  0  0  0  0
    7.2044    1.0763    0.0000 C   0  0  0  0  0  0  0  0  0  0  0  0
    3.7486    0.0635    0.0000 C   0  0  0  0  0  0  0  0  0  0  0  0
    7.2300    0.0849    0.0000 C   0  0  0  0  0  0  0  0  0  0  0  0
    3.7486    1.0635    0.0000 C   0  0  0  0  0  0  0  0  0  0  0  0
    4.5986   -1.4780    0.0000 C   0  0  0  0  0  0  0  0  0  0  0  0
    2.8891   -0.4313    0.0000 C   0  0  0  0  0  0  0  0  0  0  0  0
    6.3987   -1.4849    0.0000 C   0  0  0  0  0  0  0  0  0  0  0  0
    6.3315    2.5604    0.0000 C   0  0  0  0  0  0  0  0  0  0  0  0
    5.4966   -2.0057    0.0000 C   0  0  0  0  0  0  0  0  0  0  0  0
    2.8778    1.5777    0.0000 C   0  0  0  0  0  0  0  0  0  0  0  0
    2.8757   -1.4229    0.0000 C   0  0  0  0  0  0  0  0  0  0  0  0
    2.0067    0.0626    0.0000 C   0  0  0  0  0  0  0  0  0  0  0  0
    2.0010    1.0739    0.0000 C   0  0  0  0  0  0  0  0  0  0  0  0
    5.4801    1.9135    0.0000 H   0  0  0  0  0  0  0  0  0  0  0  0
    5.0132    2.0385    0.0000 H   0  0  0  0  0  0  0  0  0  0  0  0
    4.2161    2.0385    0.0000 H   0  0  0  0  0  0  0  0  0  0  0  0
    7.8171    0.9819    0.0000 H   0  0  0  0  0  0  0  0  0  0  0  0
    7.4061    1.6625    0.0000 H   0  0  0  0  0  0  0  0  0  0  0  0
    7.4617   -0.4902    0.0000 H   0  0  0  0  0  0  0  0  0  0  0  0
    7.8370    0.2108    0.0000 H   0  0  0  0  0  0  0  0  0  0  0  0
    6.9368   -1.7928    0.0000 H   0  0  0  0  0  0  0  0  0  0  0  0
    6.9514    2.5650    0.0000 H   0  0  0  0  0  0  0  0  0  0  0  0
    6.3269    3.1804    0.0000 H   0  0  0  0  0  0  0  0  0  0  0  0
    5.7115    2.5558    0.0000 H   0  0  0  0  0  0  0  0  0  0  0  0
    5.4942   -2.6257    0.0000 H   0  0  0  0  0  0  0  0  0  0  0  0
    2.8815    2.1977    0.0000 H   0  0  0  0  0  0  0  0  0  0  0  0
    3.7016   -2.5604    0.0000 H   0  0  0  0  0  0  0  0  0  0  0  0
    1.4727   -0.2524    0.0000 H   0  0  0  0  0  0  0  0  0  0  0  0
    1.4635    1.3829    0.0000 H   0  0  0  0  0  0  0  0  0  0  0  0
  1 19  2  0  0  0  0
  2  4  1  0  0  0  0
  2  9  1  0  0  0  0
  2 16  1  0  0  0  0
  3 13  1  0  0  0  0
  3 19  1  0  0  0  0
  3 35  1  0  0  0  0
  4  5  1  0  0  0  0
  4  6  1  0  0  0  0
  4 22  1  6  0  0  0
  5  7  1  0  0  0  0
  5  8  2  0  0  0  0
  6 12  1  0  0  0  0
  6 23  1  0  0  0  0
  6 24  1  0  0  0  0
  7 10  1  0  0  0  0
  7 13  2  0  0  0  0
  8 11  1  0  0  0  0
  8 15  1  0  0  0  0
  9 11  1  0  0  0  0
  9 25  1  0  0  0  0
  9 26  1  0  0  0  0
 10 12  2  0  0  0  0
 10 14  1  0  0  0  0
 11 27  1  0  0  0  0
 11 28  1  0  0  0  0
 12 18  1  0  0  0  0
 13 17  1  0  0  0  0
 14 19  1  0  0  0  0
 14 20  2  0  0  0  0
 15 17  2  0  0  0  0
 15 29  1  0  0  0  0
 16 30  1  0  0  0  0
 16 31  1  0  0  0  0
 16 32  1  0  0  0  0
 17 33  1  0  0  0  0
 18 21  2  0  0  0  0
 18 34  1  0  0  0  0
 20 21  1  0  0  0  0
 20 36  1  0  0  0  0
 21 37  1  0  0  0  0
M  END
> <PUBCHEM_COMPOUND_CID>
44448054

> <PUBCHEM_COMPOUND_CANONICALIZED>
1

> <PUBCHEM_CACTVS_COMPLEXITY>
464

> <PUBCHEM_CACTVS_HBOND_ACCEPTOR>
2

> <PUBCHEM_CACTVS_HBOND_DONOR>
1

> <PUBCHEM_CACTVS_ROTATABLE_BOND>
0

> <PUBCHEM_CACTVS_SUBSKEYS>
AAADceB7IAAAAAAAAAAAAAAAAAAAAAAAAAA8eMECAAAAAADxQAAAHgAQAAAADCjBmAQywIPAAACIAiVSUACCAAAlAgAIiAEIZMgIIDLAlZGEIQhglADIyYcYicCeiAACQAASAACQAASAACQAAAAAAAAAAA==

> <PUBCHEM_IUPAC_OPENEYE_NAME>
(1R)-2-methyl-2,9-diazapentacyclo[13.3.1.05,18.08,17.011,16]nonadeca-5(18),6,8(17),11,13,15-hexaen-10-one

> <PUBCHEM_IUPAC_CAS_NAME>
(1R)-2-methyl-2,9-diazapentacyclo[13.3.1.05,18.08,17.011,16]nonadeca-5(18),6,8(17),11,13,15-hexaen-10-one

> <PUBCHEM_IUPAC_NAME_MARKUP>
(1<I>R</I>)-2-methyl-2,9-diazapentacyclo[13.3.1.0<SUP>5,18</SUP>.0<SUP>8,17</SUP>.0<SUP>11,16</SUP>]nonadeca-5(18),6,8(17),11,13,15-hexaen-10-one

> <PUBCHEM_IUPAC_NAME>
(1R)-2-methyl-2,9-diazapentacyclo[13.3.1.05,18.08,17.011,16]nonadeca-5(18),6,8(17),11,13,15-hexaen-10-one

> <PUBCHEM_IUPAC_SYSTEMATIC_NAME>
(1R)-2-methyl-2,9-diazapentacyclo[13.3.1.05,18.08,17.011,16]nonadeca-5(18),6,8(17),11,13,15-hexaen-10-one

> <PUBCHEM_IUPAC_TRADITIONAL_NAME>
(1R)-2-methyl-2,9-diazapentacyclo[13.3.1.05,18.08,17.011,16]nonadeca-5(18),6,8(17),11,13,15-hexaen-10-one

> <PUBCHEM_IUPAC_INCHI>
InChI=1S/C18H16N2O/c1-20-8-7-10-5-6-13-17-15-11(9-14(20)16(10)17)3-2-4-12(15)18(21)19-13/h2-6,14H,7-9H2,1H3,(H,19,21)/t14-/m1/s1

> <PUBCHEM_IUPAC_INCHIKEY>
GTFWUPYRBYXCRC-CQSZACIVSA-N

> <PUBCHEM_XLOGP3_AA>
2.4

> <PUBCHEM_EXACT_MASS>
276.126263138

> <PUBCHEM_MOLECULAR_FORMULA>
C18H16N2O

> <PUBCHEM_MOLECULAR_WEIGHT>
276.3

> <PUBCHEM_OPENEYE_CAN_SMILES>
CN1CCC2=C3C1CC4=C5C3=C(C=C2)NC(=O)C5=CC=C4

> <PUBCHEM_OPENEYE_ISO_SMILES>
CN1CCC2=C3[C@H]1CC4=C5C3=C(C=C2)NC(=O)C5=CC=C4

> <PUBCHEM_CACTVS_TPSA>
32.3

> <PUBCHEM_MONOISOTOPIC_WEIGHT>
276.126263138

> <PUBCHEM_TOTAL_CHARGE>
0

> <PUBCHEM_HEAVY_ATOM_COUNT>
21

> <PUBCHEM_ATOM_DEF_STEREO_COUNT>
1

> <PUBCHEM_ATOM_UDEF_STEREO_COUNT>
0

> <PUBCHEM_BOND_DEF_STEREO_COUNT>
0

> <PUBCHEM_BOND_UDEF_STEREO_COUNT>
0

> <PUBCHEM_ISOTOPIC_ATOM_COUNT>
0

> <PUBCHEM_COMPONENT_COUNT>
1

> <PUBCHEM_CACTVS_TAUTO_COUNT>
-1

> <PUBCHEM_COORDINATE_TYPE>
1
5
255

> <PUBCHEM_BONDANNOTATIONS>
10  12  8
10  14  8
12  18  8
13  17  8
14  19  8
14  20  8
15  17  8
18  21  8
20  21  8
3  13  8
3  19  8
4  22  6
5  7  8
5  8  8
7  10  8
7  13  8
8  15  8

$$$$
