90467323
  -OEChem-09292322002D

 75 78  0     0  0  0  0  0  0999 V2000
    9.7942   -7.1550    0.0000 O   0  0  0  0  0  0  0  0  0  0  0  0
    4.5981    0.8450    0.0000 O   0  0  0  0  0  0  0  0  0  0  0  0
    6.3301    0.8450    0.0000 O   0  0  0  0  0  0  0  0  0  0  0  0
    2.8660    3.8450    0.0000 O   0  0  0  0  0  0  0  0  0  0  0  0
    7.1962    6.3450    0.0000 O   0  0  0  0  0  0  0  0  0  0  0  0
    8.0622   -4.1550    0.0000 N   0  0  0  0  0  0  0  0  0  0  0  0
    9.7942   -5.1550    0.0000 N   0  0  0  0  0  0  0  0  0  0  0  0
    5.4641   -0.6550    0.0000 N   0  0  0  0  0  0  0  0  0  0  0  0
    6.3301    7.8450    0.0000 N   0  0  0  0  0  0  0  0  0  0  0  0
    8.0622   -5.1550    0.0000 C   0  0  0  0  0  0  0  0  0  0  0  0
    8.9282   -3.6550    0.0000 C   0  0  0  0  0  0  0  0  0  0  0  0
    8.9282   -5.6550    0.0000 C   0  0  0  0  0  0  0  0  0  0  0  0
    9.7942   -4.1550    0.0000 C   0  0  0  0  0  0  0  0  0  0  0  0
    7.1962   -3.6550    0.0000 C   0  0  0  0  0  0  0  0  0  0  0  0
    7.1962   -2.6550    0.0000 C   0  0  0  0  0  0  0  0  0  0  0  0
   10.6603   -5.6550    0.0000 C   0  0  0  0  0  0  0  0  0  0  0  0
    6.3301   -2.1550    0.0000 C   0  0  0  0  0  0  0  0  0  0  0  0
    6.3301   -1.1550    0.0000 C   0  0  0  0  0  0  0  0  0  0  0  0
   10.6603   -6.6550    0.0000 C   0  0  0  0  0  0  0  0  0  0  0  0
   11.5263   -5.1550    0.0000 C   0  0  0  0  0  0  0  0  0  0  0  0
   11.5263   -7.1550    0.0000 C   0  0  0  0  0  0  0  0  0  0  0  0
   12.3923   -5.6550    0.0000 C   0  0  0  0  0  0  0  0  0  0  0  0
   12.3923   -6.6550    0.0000 C   0  0  0  0  0  0  0  0  0  0  0  0
    5.4641    0.3450    0.0000 C   0  0  0  0  0  0  0  0  0  0  0  0
    9.7942   -8.1550    0.0000 C   0  0  0  0  0  0  0  0  0  0  0  0
    4.5981    1.8450    0.0000 C   0  0  0  0  0  0  0  0  0  0  0  0
    4.5981    3.8450    0.0000 C   0  0  0  0  0  0  0  0  0  0  0  0
    3.7320    2.3450    0.0000 C   0  0  0  0  0  0  0  0  0  0  0  0
    3.7320    3.3450    0.0000 C   0  0  0  0  0  0  0  0  0  0  0  0
    5.4641    2.3450    0.0000 C   0  0  0  0  0  0  0  0  0  0  0  0
    4.5981    4.8450    0.0000 C   0  0  0  0  0  0  0  0  0  0  0  0
    5.4641    3.3450    0.0000 C   0  0  0  0  0  0  0  0  0  0  0  0
    5.4641    5.3450    0.0000 C   0  0  0  0  0  0  0  0  0  0  0  0
    3.7320    5.3450    0.0000 C   0  0  0  0  0  0  0  0  0  0  0  0
    5.4641    6.3450    0.0000 C   0  0  0  0  0  0  0  0  0  0  0  0
    3.7320    6.3450    0.0000 C   0  0  0  0  0  0  0  0  0  0  0  0
    4.5981    6.8450    0.0000 C   0  0  0  0  0  0  0  0  0  0  0  0
    6.3301    6.8450    0.0000 C   0  0  0  0  0  0  0  0  0  0  0  0
    2.0000    3.3450    0.0000 C   0  0  0  0  0  0  0  0  0  0  0  0
    7.4516   -5.0473    0.0000 H   0  0  0  0  0  0  0  0  0  0  0  0
    7.8501   -5.7376    0.0000 H   0  0  0  0  0  0  0  0  0  0  0  0
    9.3267   -3.1800    0.0000 H   0  0  0  0  0  0  0  0  0  0  0  0
    8.5297   -3.1800    0.0000 H   0  0  0  0  0  0  0  0  0  0  0  0
    8.5297   -6.1300    0.0000 H   0  0  0  0  0  0  0  0  0  0  0  0
    9.3267   -6.1300    0.0000 H   0  0  0  0  0  0  0  0  0  0  0  0
   10.4048   -4.2627    0.0000 H   0  0  0  0  0  0  0  0  0  0  0  0
   10.0063   -3.5724    0.0000 H   0  0  0  0  0  0  0  0  0  0  0  0
    6.5856   -3.5473    0.0000 H   0  0  0  0  0  0  0  0  0  0  0  0
    6.9841   -4.2376    0.0000 H   0  0  0  0  0  0  0  0  0  0  0  0
    7.8067   -2.7627    0.0000 H   0  0  0  0  0  0  0  0  0  0  0  0
    7.4082   -2.0724    0.0000 H   0  0  0  0  0  0  0  0  0  0  0  0
    5.7196   -2.0473    0.0000 H   0  0  0  0  0  0  0  0  0  0  0  0
    6.1181   -2.7376    0.0000 H   0  0  0  0  0  0  0  0  0  0  0  0
    6.9407   -1.2627    0.0000 H   0  0  0  0  0  0  0  0  0  0  0  0
    6.5422   -0.5724    0.0000 H   0  0  0  0  0  0  0  0  0  0  0  0
   11.5263   -4.5350    0.0000 H   0  0  0  0  0  0  0  0  0  0  0  0
   11.5263   -7.7750    0.0000 H   0  0  0  0  0  0  0  0  0  0  0  0
   12.9292   -5.3450    0.0000 H   0  0  0  0  0  0  0  0  0  0  0  0
    4.9272   -0.9650    0.0000 H   0  0  0  0  0  0  0  0  0  0  0  0
   12.9292   -6.9650    0.0000 H   0  0  0  0  0  0  0  0  0  0  0  0
    9.1742   -8.1550    0.0000 H   0  0  0  0  0  0  0  0  0  0  0  0
    9.7942   -8.7750    0.0000 H   0  0  0  0  0  0  0  0  0  0  0  0
   10.4142   -8.1550    0.0000 H   0  0  0  0  0  0  0  0  0  0  0  0
    3.1951    2.0350    0.0000 H   0  0  0  0  0  0  0  0  0  0  0  0
    6.0010    2.0350    0.0000 H   0  0  0  0  0  0  0  0  0  0  0  0
    6.0010    3.6550    0.0000 H   0  0  0  0  0  0  0  0  0  0  0  0
    6.0010    5.0350    0.0000 H   0  0  0  0  0  0  0  0  0  0  0  0
    3.1951    5.0350    0.0000 H   0  0  0  0  0  0  0  0  0  0  0  0
    3.1951    6.6550    0.0000 H   0  0  0  0  0  0  0  0  0  0  0  0
    4.5981    7.4650    0.0000 H   0  0  0  0  0  0  0  0  0  0  0  0
    1.6900    3.8819    0.0000 H   0  0  0  0  0  0  0  0  0  0  0  0
    1.4631    3.0350    0.0000 H   0  0  0  0  0  0  0  0  0  0  0  0
    2.3100    2.8081    0.0000 H   0  0  0  0  0  0  0  0  0  0  0  0
    6.8671    8.1550    0.0000 H   0  0  0  0  0  0  0  0  0  0  0  0
    5.7932    8.1550    0.0000 H   0  0  0  0  0  0  0  0  0  0  0  0
  1 19  1  0  0  0  0
  1 25  1  0  0  0  0
  2 24  1  0  0  0  0
  2 26  1  0  0  0  0
  3 24  2  0  0  0  0
  4 29  1  0  0  0  0
  4 39  1  0  0  0  0
  5 38  2  0  0  0  0
  6 10  1  0  0  0  0
  6 11  1  0  0  0  0
  6 14  1  0  0  0  0
  7 12  1  0  0  0  0
  7 13  1  0  0  0  0
  7 16  1  0  0  0  0
  8 18  1  0  0  0  0
  8 24  1  0  0  0  0
  8 59  1  0  0  0  0
  9 38  1  0  0  0  0
  9 74  1  0  0  0  0
  9 75  1  0  0  0  0
 10 12  1  0  0  0  0
 10 40  1  0  0  0  0
 10 41  1  0  0  0  0
 11 13  1  0  0  0  0
 11 42  1  0  0  0  0
 11 43  1  0  0  0  0
 12 44  1  0  0  0  0
 12 45  1  0  0  0  0
 13 46  1  0  0  0  0
 13 47  1  0  0  0  0
 14 15  1  0  0  0  0
 14 48  1  0  0  0  0
 14 49  1  0  0  0  0
 15 17  1  0  0  0  0
 15 50  1  0  0  0  0
 15 51  1  0  0  0  0
 16 19  1  0  0  0  0
 16 20  2  0  0  0  0
 17 18  1  0  0  0  0
 17 52  1  0  0  0  0
 17 53  1  0  0  0  0
 18 54  1  0  0  0  0
 18 55  1  0  0  0  0
 19 21  2  0  0  0  0
 20 22  1  0  0  0  0
 20 56  1  0  0  0  0
 21 23  1  0  0  0  0
 21 57  1  0  0  0  0
 22 23  2  0  0  0  0
 22 58  1  0  0  0  0
 23 60  1  0  0  0  0
 25 61  1  0  0  0  0
 25 62  1  0  0  0  0
 25 63  1  0  0  0  0
 26 28  2  0  0  0  0
 26 30  1  0  0  0  0
 27 29  2  0  0  0  0
 27 31  1  0  0  0  0
 27 32  1  0  0  0  0
 28 29  1  0  0  0  0
 28 64  1  0  0  0  0
 30 32  2  0  0  0  0
 30 65  1  0  0  0  0
 31 33  2  0  0  0  0
 31 34  1  0  0  0  0
 32 66  1  0  0  0  0
 33 35  1  0  0  0  0
 33 67  1  0  0  0  0
 34 36  2  0  0  0  0
 34 68  1  0  0  0  0
 35 37  2  0  0  0  0
 35 38  1  0  0  0  0
 36 37  1  0  0  0  0
 36 69  1  0  0  0  0
 37 70  1  0  0  0  0
 39 71  1  0  0  0  0
 39 72  1  0  0  0  0
 39 73  1  0  0  0  0
M  END
> <PUBCHEM_COMPOUND_CID>
90467323

> <PUBCHEM_COMPOUND_CANONICALIZED>
1

> <PUBCHEM_CACTVS_COMPLEXITY>
762

> <PUBCHEM_CACTVS_HBOND_ACCEPTOR>
7

> <PUBCHEM_CACTVS_HBOND_DONOR>
2

> <PUBCHEM_CACTVS_ROTATABLE_BOND>
12

> <PUBCHEM_CACTVS_SUBSKEYS>
AAADcfB7uAAAAAAAAAAAAAAAAAAAAAAAAAA8YMEAAAAAAAABUAAAHgAQAAAADAzBmAYyzoPABACIAiVSWACCCAAlIgAIiIEPbMkOZzLEtZudMyhl1hXY6YeY6PyOoAACCAAIEABAAAQQABAgAAAAAAAAAA==

> <PUBCHEM_IUPAC_OPENEYE_NAME>
[4-(3-carbamoylphenyl)-3-methoxy-phenyl] N-[4-[4-(2-methoxyphenyl)piperazin-1-yl]butyl]carbamate

> <PUBCHEM_IUPAC_CAS_NAME>
N-[4-[4-(2-methoxyphenyl)-1-piperazinyl]butyl]carbamic acid [4-(3-carbamoylphenyl)-3-methoxyphenyl] ester

> <PUBCHEM_IUPAC_NAME_MARKUP>
[4-(3-carbamoylphenyl)-3-methoxyphenyl] <I>N</I>-[4-[4-(2-methoxyphenyl)piperazin-1-yl]butyl]carbamate

> <PUBCHEM_IUPAC_NAME>
[4-(3-carbamoylphenyl)-3-methoxyphenyl] N-[4-[4-(2-methoxyphenyl)piperazin-1-yl]butyl]carbamate

> <PUBCHEM_IUPAC_SYSTEMATIC_NAME>
[4-(3-aminocarbonylphenyl)-3-methoxy-phenyl] N-[4-[4-(2-methoxyphenyl)piperazin-1-yl]butyl]carbamate

> <PUBCHEM_IUPAC_TRADITIONAL_NAME>
N-[4-[4-(2-methoxyphenyl)piperazino]butyl]carbamic acid [4-(3-carbamoylphenyl)-3-methoxy-phenyl] ester

> <PUBCHEM_IUPAC_INCHI>
InChI=1S/C30H36N4O5/c1-37-27-11-4-3-10-26(27)34-18-16-33(17-19-34)15-6-5-14-32-30(36)39-24-12-13-25(28(21-24)38-2)22-8-7-9-23(20-22)29(31)35/h3-4,7-13,20-21H,5-6,14-19H2,1-2H3,(H2,31,35)(H,32,36)

> <PUBCHEM_IUPAC_INCHIKEY>
LDYKPEZBHFCCGD-UHFFFAOYSA-N

> <PUBCHEM_XLOGP3_AA>
4.3

> <PUBCHEM_EXACT_MASS>
532.26857026

> <PUBCHEM_MOLECULAR_FORMULA>
C30H36N4O5

> <PUBCHEM_MOLECULAR_WEIGHT>
532.6

> <PUBCHEM_OPENEYE_CAN_SMILES>
COC1=CC=CC=C1N2CCN(CC2)CCCCNC(=O)OC3=CC(=C(C=C3)C4=CC(=CC=C4)C(=O)N)OC

> <PUBCHEM_OPENEYE_ISO_SMILES>
COC1=CC=CC=C1N2CCN(CC2)CCCCNC(=O)OC3=CC(=C(C=C3)C4=CC(=CC=C4)C(=O)N)OC

> <PUBCHEM_CACTVS_TPSA>
106

> <PUBCHEM_MONOISOTOPIC_WEIGHT>
532.26857026

> <PUBCHEM_TOTAL_CHARGE>
0

> <PUBCHEM_HEAVY_ATOM_COUNT>
39

> <PUBCHEM_ATOM_DEF_STEREO_COUNT>
0

> <PUBCHEM_ATOM_UDEF_STEREO_COUNT>
0

> <PUBCHEM_BOND_DEF_STEREO_COUNT>
0

> <PUBCHEM_BOND_UDEF_STEREO_COUNT>
0

> <PUBCHEM_ISOTOPIC_ATOM_COUNT>
0

> <PUBCHEM_COMPONENT_COUNT>
1

> <PUBCHEM_CACTVS_TAUTO_COUNT>
-1

> <PUBCHEM_COORDINATE_TYPE>
1
5
255

> <PUBCHEM_BONDANNOTATIONS>
16  19  8
16  20  8
19  21  8
20  22  8
21  23  8
22  23  8
26  28  8
26  30  8
27  29  8
27  32  8
28  29  8
30  32  8
31  33  8
31  34  8
33  35  8
34  36  8
35  37  8
36  37  8

$$$$
