155561861
  -OEChem-09292322402D

 59 62  0     0  0  0  0  0  0999 V2000
    5.4641   -7.5194    0.0000 Cl  0  0  0  0  0  0  0  0  0  0  0  0
    2.0000   -7.5194    0.0000 Cl  0  0  0  0  0  0  0  0  0  0  0  0
    5.8301    7.5194    0.0000 S   0  0  0  0  0  0  0  0  0  0  0  0
    7.1962    1.4806    0.0000 O   0  0  0  0  0  0  0  0  0  0  0  0
    3.7320   -2.5194    0.0000 N   0  0  0  0  0  0  0  0  0  0  0  0
    3.7320   -4.5194    0.0000 N   0  0  0  0  0  0  0  0  0  0  0  0
    5.4641    1.4806    0.0000 N   0  0  0  0  0  0  0  0  0  0  0  0
    4.5981   -3.0194    0.0000 C   0  0  0  0  0  0  0  0  0  0  0  0
    2.8660   -3.0194    0.0000 C   0  0  0  0  0  0  0  0  0  0  0  0
    4.5981   -4.0194    0.0000 C   0  0  0  0  0  0  0  0  0  0  0  0
    2.8660   -4.0194    0.0000 C   0  0  0  0  0  0  0  0  0  0  0  0
    3.7320   -1.5194    0.0000 C   0  0  0  0  0  0  0  0  0  0  0  0
    4.5981   -1.0194    0.0000 C   0  0  0  0  0  0  0  0  0  0  0  0
    3.7320   -5.5194    0.0000 C   0  0  0  0  0  0  0  0  0  0  0  0
    4.5981   -0.0194    0.0000 C   0  0  0  0  0  0  0  0  0  0  0  0
    5.4641    0.4806    0.0000 C   0  0  0  0  0  0  0  0  0  0  0  0
    2.8660   -6.0194    0.0000 C   0  0  0  0  0  0  0  0  0  0  0  0
    4.5981   -6.0194    0.0000 C   0  0  0  0  0  0  0  0  0  0  0  0
    4.5981   -7.0194    0.0000 C   0  0  0  0  0  0  0  0  0  0  0  0
    2.8660   -7.0194    0.0000 C   0  0  0  0  0  0  0  0  0  0  0  0
    3.7320   -7.5194    0.0000 C   0  0  0  0  0  0  0  0  0  0  0  0
    6.3301    1.9806    0.0000 C   0  0  0  0  0  0  0  0  0  0  0  0
    6.3301    2.9806    0.0000 C   0  0  0  0  0  0  0  0  0  0  0  0
    5.4641    3.4806    0.0000 C   0  0  0  0  0  0  0  0  0  0  0  0
    7.1962    3.4806    0.0000 C   0  0  0  0  0  0  0  0  0  0  0  0
    6.3301    4.9806    0.0000 C   0  0  0  0  0  0  0  0  0  0  0  0
    5.4641    4.4806    0.0000 C   0  0  0  0  0  0  0  0  0  0  0  0
    7.1962    4.4806    0.0000 C   0  0  0  0  0  0  0  0  0  0  0  0
    6.3301    5.9806    0.0000 C   0  0  0  0  0  0  0  0  0  0  0  0
    7.1391    6.5684    0.0000 C   0  0  0  0  0  0  0  0  0  0  0  0
    5.5211    6.5684    0.0000 C   0  0  0  0  0  0  0  0  0  0  0  0
    6.8301    7.5194    0.0000 C   0  0  0  0  0  0  0  0  0  0  0  0
    5.2087   -3.1271    0.0000 H   0  0  0  0  0  0  0  0  0  0  0  0
    4.8101   -2.4368    0.0000 H   0  0  0  0  0  0  0  0  0  0  0  0
    2.6540   -2.4368    0.0000 H   0  0  0  0  0  0  0  0  0  0  0  0
    2.2554   -3.1271    0.0000 H   0  0  0  0  0  0  0  0  0  0  0  0
    4.8101   -4.6020    0.0000 H   0  0  0  0  0  0  0  0  0  0  0  0
    5.2087   -3.9118    0.0000 H   0  0  0  0  0  0  0  0  0  0  0  0
    2.2554   -3.9118    0.0000 H   0  0  0  0  0  0  0  0  0  0  0  0
    2.6540   -4.6020    0.0000 H   0  0  0  0  0  0  0  0  0  0  0  0
    3.5200   -0.9368    0.0000 H   0  0  0  0  0  0  0  0  0  0  0  0
    3.1215   -1.6271    0.0000 H   0  0  0  0  0  0  0  0  0  0  0  0
    4.8101   -1.6020    0.0000 H   0  0  0  0  0  0  0  0  0  0  0  0
    5.2087   -0.9118    0.0000 H   0  0  0  0  0  0  0  0  0  0  0  0
    4.3860    0.5632    0.0000 H   0  0  0  0  0  0  0  0  0  0  0  0
    3.9875   -0.1271    0.0000 H   0  0  0  0  0  0  0  0  0  0  0  0
    5.6762   -0.1020    0.0000 H   0  0  0  0  0  0  0  0  0  0  0  0
    6.0747    0.5882    0.0000 H   0  0  0  0  0  0  0  0  0  0  0  0
    2.3291   -5.7094    0.0000 H   0  0  0  0  0  0  0  0  0  0  0  0
    5.1350   -5.7094    0.0000 H   0  0  0  0  0  0  0  0  0  0  0  0
    4.9272    1.7906    0.0000 H   0  0  0  0  0  0  0  0  0  0  0  0
    3.7320   -8.1394    0.0000 H   0  0  0  0  0  0  0  0  0  0  0  0
    4.9272    3.1706    0.0000 H   0  0  0  0  0  0  0  0  0  0  0  0
    7.7331    3.1706    0.0000 H   0  0  0  0  0  0  0  0  0  0  0  0
    4.9272    4.7906    0.0000 H   0  0  0  0  0  0  0  0  0  0  0  0
    7.7331    4.7906    0.0000 H   0  0  0  0  0  0  0  0  0  0  0  0
    7.7288    6.3768    0.0000 H   0  0  0  0  0  0  0  0  0  0  0  0
    4.9315    6.3768    0.0000 H   0  0  0  0  0  0  0  0  0  0  0  0
    7.1946    8.0210    0.0000 H   0  0  0  0  0  0  0  0  0  0  0  0
  1 19  1  0  0  0  0
  2 20  1  0  0  0  0
  3 31  1  0  0  0  0
  3 32  1  0  0  0  0
  4 22  2  0  0  0  0
  5  8  1  0  0  0  0
  5  9  1  0  0  0  0
  5 12  1  0  0  0  0
  6 10  1  0  0  0  0
  6 11  1  0  0  0  0
  6 14  1  0  0  0  0
  7 16  1  0  0  0  0
  7 22  1  0  0  0  0
  7 51  1  0  0  0  0
  8 10  1  0  0  0  0
  8 33  1  0  0  0  0
  8 34  1  0  0  0  0
  9 11  1  0  0  0  0
  9 35  1  0  0  0  0
  9 36  1  0  0  0  0
 10 37  1  0  0  0  0
 10 38  1  0  0  0  0
 11 39  1  0  0  0  0
 11 40  1  0  0  0  0
 12 13  1  0  0  0  0
 12 41  1  0  0  0  0
 12 42  1  0  0  0  0
 13 15  1  0  0  0  0
 13 43  1  0  0  0  0
 13 44  1  0  0  0  0
 14 17  2  0  0  0  0
 14 18  1  0  0  0  0
 15 16  1  0  0  0  0
 15 45  1  0  0  0  0
 15 46  1  0  0  0  0
 16 47  1  0  0  0  0
 16 48  1  0  0  0  0
 17 20  1  0  0  0  0
 17 49  1  0  0  0  0
 18 19  2  0  0  0  0
 18 50  1  0  0  0  0
 19 21  1  0  0  0  0
 20 21  2  0  0  0  0
 21 52  1  0  0  0  0
 22 23  1  0  0  0  0
 23 24  2  0  0  0  0
 23 25  1  0  0  0  0
 24 27  1  0  0  0  0
 24 53  1  0  0  0  0
 25 28  2  0  0  0  0
 25 54  1  0  0  0  0
 26 27  2  0  0  0  0
 26 28  1  0  0  0  0
 26 29  1  0  0  0  0
 27 55  1  0  0  0  0
 28 56  1  0  0  0  0
 29 30  1  0  0  0  0
 29 31  2  0  0  0  0
 30 32  2  0  0  0  0
 30 57  1  0  0  0  0
 31 58  1  0  0  0  0
 32 59  1  0  0  0  0
M  END
> <PUBCHEM_COMPOUND_CID>
155561861

> <PUBCHEM_COMPOUND_CANONICALIZED>
1

> <PUBCHEM_CACTVS_COMPLEXITY>
572

> <PUBCHEM_CACTVS_HBOND_ACCEPTOR>
4

> <PUBCHEM_CACTVS_HBOND_DONOR>
1

> <PUBCHEM_CACTVS_ROTATABLE_BOND>
8

> <PUBCHEM_CACTVS_SUBSKEYS>
AAADceB7IABGAAAAAAAAAAAAAAAAASAAAAA8YIAAAAAAAAAB0AAAHgYQAAAADArF2CSwwYPAAAiMAiVSUACDAIAlDxBIiJkIZsgIYDLhl5GUIQhglgDoyYcYiMCOwAAAAAKAAACAAAAABQAAAAAAAAAAAA==

> <PUBCHEM_IUPAC_OPENEYE_NAME>
N-[4-[4-(3,5-dichlorophenyl)piperazin-1-yl]butyl]-4-(3-thienyl)benzamide

> <PUBCHEM_IUPAC_CAS_NAME>
N-[4-[4-(3,5-dichlorophenyl)-1-piperazinyl]butyl]-4-(3-thiophenyl)benzamide

> <PUBCHEM_IUPAC_NAME_MARKUP>
<I>N</I>-[4-[4-(3,5-dichlorophenyl)piperazin-1-yl]butyl]-4-thiophen-3-ylbenzamide

> <PUBCHEM_IUPAC_NAME>
N-[4-[4-(3,5-dichlorophenyl)piperazin-1-yl]butyl]-4-thiophen-3-ylbenzamide

> <PUBCHEM_IUPAC_SYSTEMATIC_NAME>
N-[4-[4-[3,5-bis(chloranyl)phenyl]piperazin-1-yl]butyl]-4-thiophen-3-yl-benzamide

> <PUBCHEM_IUPAC_TRADITIONAL_NAME>
N-[4-[4-(3,5-dichlorophenyl)piperazino]butyl]-4-(3-thienyl)benzamide

> <PUBCHEM_IUPAC_INCHI>
InChI=1S/C25H27Cl2N3OS/c26-22-15-23(27)17-24(16-22)30-12-10-29(11-13-30)9-2-1-8-28-25(31)20-5-3-19(4-6-20)21-7-14-32-18-21/h3-7,14-18H,1-2,8-13H2,(H,28,31)

> <PUBCHEM_IUPAC_INCHIKEY>
DQOGQIXFWPGESA-UHFFFAOYSA-N

> <PUBCHEM_XLOGP3_AA>
6.1

> <PUBCHEM_EXACT_MASS>
487.1251891

> <PUBCHEM_MOLECULAR_FORMULA>
C25H27Cl2N3OS

> <PUBCHEM_MOLECULAR_WEIGHT>
488.5

> <PUBCHEM_OPENEYE_CAN_SMILES>
C1CN(CCN1CCCCNC(=O)C2=CC=C(C=C2)C3=CSC=C3)C4=CC(=CC(=C4)Cl)Cl

> <PUBCHEM_OPENEYE_ISO_SMILES>
C1CN(CCN1CCCCNC(=O)C2=CC=C(C=C2)C3=CSC=C3)C4=CC(=CC(=C4)Cl)Cl

> <PUBCHEM_CACTVS_TPSA>
63.8

> <PUBCHEM_MONOISOTOPIC_WEIGHT>
487.1251891

> <PUBCHEM_TOTAL_CHARGE>
0

> <PUBCHEM_HEAVY_ATOM_COUNT>
32

> <PUBCHEM_ATOM_DEF_STEREO_COUNT>
0

> <PUBCHEM_ATOM_UDEF_STEREO_COUNT>
0

> <PUBCHEM_BOND_DEF_STEREO_COUNT>
0

> <PUBCHEM_BOND_UDEF_STEREO_COUNT>
0

> <PUBCHEM_ISOTOPIC_ATOM_COUNT>
0

> <PUBCHEM_COMPONENT_COUNT>
1

> <PUBCHEM_CACTVS_TAUTO_COUNT>
-1

> <PUBCHEM_COORDINATE_TYPE>
1
5
255

> <PUBCHEM_BONDANNOTATIONS>
14  17  8
14  18  8
17  20  8
18  19  8
19  21  8
20  21  8
23  24  8
23  25  8
24  27  8
25  28  8
26  27  8
26  28  8
29  30  8
29  31  8
3  31  8
3  32  8
30  32  8

$$$$
