45268373
  -OEChem-09292322282D

 62 66  0     1  0  0  0  0  0999 V2000
    9.4940   -0.4386    0.0000 O   0  0  0  0  0  0  0  0  0  0  0  0
   12.3997   -2.2975    0.0000 O   0  0  0  0  0  0  0  0  0  0  0  0
   12.3997   -3.9069    0.0000 O   0  0  0  0  0  0  0  0  0  0  0  0
    5.9648    1.0318    0.0000 N   0  0  3  0  0  0  0  0  0  0  0  0
    7.7728   -0.8998    0.0000 N   0  0  0  0  0  0  0  0  0  0  0  0
    8.8554   -2.1022    0.0000 N   0  0  0  0  0  0  0  0  0  0  0  0
    4.5635    2.0499    0.0000 C   0  0  0  0  0  0  0  0  0  0  0  0
    2.9659    3.2635    0.0000 C   0  0  0  0  0  0  0  0  0  0  0  0
    4.1568    2.9635    0.0000 C   0  0  0  0  0  0  0  0  0  0  0  0
    5.9709    2.5349    0.0000 C   0  0  0  0  0  0  0  0  0  0  0  0
    3.8693    0.7260    0.0000 C   0  0  0  0  0  0  0  0  0  0  0  0
    5.5642    3.4484    0.0000 C   0  0  0  0  0  0  0  0  0  0  0  0
    3.0121    1.2410    0.0000 C   0  0  0  0  0  0  0  0  0  0  0  0
    4.9702    1.1364    0.0000 C   0  0  0  0  0  0  0  0  0  0  0  0
    2.4213    4.1022    0.0000 C   0  0  0  0  0  0  0  0  0  0  0  0
    2.0000    3.0047    0.0000 C   0  0  0  0  0  0  0  0  0  0  0  0
    6.3715    0.1183    0.0000 C   0  0  0  0  0  0  0  0  0  0  0  0
    6.5525    1.8409    0.0000 C   0  0  0  0  0  0  0  0  0  0  0  0
    7.3660    0.0138    0.0000 C   0  0  0  0  0  0  0  0  0  0  0  0
    7.2728   -1.7658    0.0000 C   0  0  0  0  0  0  0  0  0  0  0  0
    8.7509   -1.1077    0.0000 C   0  0  0  0  0  0  0  0  0  0  0  0
    7.9419   -2.5089    0.0000 C   0  0  0  0  0  0  0  0  0  0  0  0
    9.7215   -2.6022    0.0000 C   0  0  0  0  0  0  0  0  0  0  0  0
   10.5875   -2.1022    0.0000 C   0  0  0  0  0  0  0  0  0  0  0  0
    9.7215   -3.6022    0.0000 C   0  0  0  0  0  0  0  0  0  0  0  0
   11.4535   -2.6022    0.0000 C   0  0  0  0  0  0  0  0  0  0  0  0
   10.5875   -4.1022    0.0000 C   0  0  0  0  0  0  0  0  0  0  0  0
   11.4535   -3.6022    0.0000 C   0  0  0  0  0  0  0  0  0  0  0  0
   12.9833   -3.1022    0.0000 C   0  0  0  0  0  0  0  0  0  0  0  0
    4.5359    2.4729    0.0000 H   0  0  0  0  0  0  0  0  0  0  0  0
    6.1898    1.9548    0.0000 H   0  0  0  0  0  0  0  0  0  0  0  0
    6.5444    2.7705    0.0000 H   0  0  0  0  0  0  0  0  0  0  0  0
    3.5603    0.1884    0.0000 H   0  0  0  0  0  0  0  0  0  0  0  0
    4.4127    0.4275    0.0000 H   0  0  0  0  0  0  0  0  0  0  0  0
    6.1376    3.6841    0.0000 H   0  0  0  0  0  0  0  0  0  0  0  0
    5.3452    4.0285    0.0000 H   0  0  0  0  0  0  0  0  0  0  0  0
    2.4906    1.5763    0.0000 H   0  0  0  0  0  0  0  0  0  0  0  0
    2.6848    0.7145    0.0000 H   0  0  0  0  0  0  0  0  0  0  0  0
    4.3686    0.9864    0.0000 H   0  0  0  0  0  0  0  0  0  0  0  0
    5.0135    0.5179    0.0000 H   0  0  0  0  0  0  0  0  0  0  0  0
    2.9413    4.4399    0.0000 H   0  0  0  0  0  0  0  0  0  0  0  0
    2.0836    4.6222    0.0000 H   0  0  0  0  0  0  0  0  0  0  0  0
    1.9013    3.7645    0.0000 H   0  0  0  0  0  0  0  0  0  0  0  0
    1.8395    3.6036    0.0000 H   0  0  0  0  0  0  0  0  0  0  0  0
    1.4011    2.8442    0.0000 H   0  0  0  0  0  0  0  0  0  0  0  0
    2.1605    2.4058    0.0000 H   0  0  0  0  0  0  0  0  0  0  0  0
    5.7699   -0.0317    0.0000 H   0  0  0  0  0  0  0  0  0  0  0  0
    6.4147   -0.5002    0.0000 H   0  0  0  0  0  0  0  0  0  0  0  0
    7.0541    1.4764    0.0000 H   0  0  0  0  0  0  0  0  0  0  0  0
    6.9170    2.3424    0.0000 H   0  0  0  0  0  0  0  0  0  0  0  0
    6.0510    2.2053    0.0000 H   0  0  0  0  0  0  0  0  0  0  0  0
    7.9676    0.1638    0.0000 H   0  0  0  0  0  0  0  0  0  0  0  0
    7.3228    0.6323    0.0000 H   0  0  0  0  0  0  0  0  0  0  0  0
    6.7712   -1.4014    0.0000 H   0  0  0  0  0  0  0  0  0  0  0  0
    6.8579   -2.2266    0.0000 H   0  0  0  0  0  0  0  0  0  0  0  0
    7.4403   -2.8734    0.0000 H   0  0  0  0  0  0  0  0  0  0  0  0
    8.2519   -3.0459    0.0000 H   0  0  0  0  0  0  0  0  0  0  0  0
   10.5875   -1.4822    0.0000 H   0  0  0  0  0  0  0  0  0  0  0  0
    9.1845   -3.9122    0.0000 H   0  0  0  0  0  0  0  0  0  0  0  0
   10.5875   -4.7222    0.0000 H   0  0  0  0  0  0  0  0  0  0  0  0
   13.4442   -3.5169    0.0000 H   0  0  0  0  0  0  0  0  0  0  0  0
   13.4442   -2.6875    0.0000 H   0  0  0  0  0  0  0  0  0  0  0  0
  1 21  2  0  0  0  0
  2 26  1  0  0  0  0
  2 29  1  0  0  0  0
  3 28  1  0  0  0  0
  3 29  1  0  0  0  0
  4 14  1  0  0  0  0
  4 17  1  0  0  0  0
  4 18  1  0  0  0  0
  5 19  1  0  0  0  0
  5 20  1  0  0  0  0
  5 21  1  0  0  0  0
  6 21  1  0  0  0  0
  6 22  1  0  0  0  0
  6 23  1  0  0  0  0
  7  8  1  0  0  0  0
  7 10  1  0  0  0  0
  7 11  1  0  0  0  0
  7 14  1  0  0  0  0
  8  9  1  0  0  0  0
  8 15  1  0  0  0  0
  8 16  1  0  0  0  0
  9 12  1  0  0  0  0
  9 13  1  0  0  0  0
  9 30  1  0  0  0  0
 10 12  1  0  0  0  0
 10 31  1  0  0  0  0
 10 32  1  0  0  0  0
 11 13  1  0  0  0  0
 11 33  1  0  0  0  0
 11 34  1  0  0  0  0
 12 35  1  0  0  0  0
 12 36  1  0  0  0  0
 13 37  1  0  0  0  0
 13 38  1  0  0  0  0
 14 39  1  0  0  0  0
 14 40  1  0  0  0  0
 15 41  1  0  0  0  0
 15 42  1  0  0  0  0
 15 43  1  0  0  0  0
 16 44  1  0  0  0  0
 16 45  1  0  0  0  0
 16 46  1  0  0  0  0
 17 19  1  0  0  0  0
 17 47  1  0  0  0  0
 17 48  1  0  0  0  0
 18 49  1  0  0  0  0
 18 50  1  0  0  0  0
 18 51  1  0  0  0  0
 19 52  1  0  0  0  0
 19 53  1  0  0  0  0
 20 22  1  0  0  0  0
 20 54  1  0  0  0  0
 20 55  1  0  0  0  0
 22 56  1  0  0  0  0
 22 57  1  0  0  0  0
 23 24  2  0  0  0  0
 23 25  1  0  0  0  0
 24 26  1  0  0  0  0
 24 58  1  0  0  0  0
 25 27  2  0  0  0  0
 25 59  1  0  0  0  0
 26 28  2  0  0  0  0
 27 28  1  0  0  0  0
 27 60  1  0  0  0  0
 29 61  1  0  0  0  0
 29 62  1  0  0  0  0
M  END
> <PUBCHEM_COMPOUND_CID>
45268373

> <PUBCHEM_COMPOUND_CANONICALIZED>
1

> <PUBCHEM_CACTVS_COMPLEXITY>
631

> <PUBCHEM_CACTVS_HBOND_ACCEPTOR>
4

> <PUBCHEM_CACTVS_HBOND_DONOR>
0

> <PUBCHEM_CACTVS_ROTATABLE_BOND>
6

> <PUBCHEM_CACTVS_SUBSKEYS>
AAADcfB7MAAAAAAAAAAAAAAAAAAAAeNECAAwYAAAAAAAAEgBAAAAHgAAAAAADwzBkAczzoMABACIACRCUACCCAAhIgAIiAAO7IidZiLEsZu0MCpuxhvO6Cew0MMPgEAAAgAAQACAgAAEAACAAQAACAAAAA==

> <PUBCHEM_IUPAC_OPENEYE_NAME>
1-(1,3-benzodioxol-5-yl)-3-[2-[(7,7-dimethylnorbornan-1-yl)methyl-methyl-amino]ethyl]imidazolidin-2-one

> <PUBCHEM_IUPAC_CAS_NAME>
1-(1,3-benzodioxol-5-yl)-3-[2-[(7,7-dimethyl-1-bicyclo[2.2.1]heptanyl)methyl-methylamino]ethyl]-2-imidazolidinone

> <PUBCHEM_IUPAC_NAME_MARKUP>
1-(1,3-benzodioxol-5-yl)-3-[2-[(7,7-dimethyl-1-bicyclo[2.2.1]heptanyl)methyl-methylamino]ethyl]imidazolidin-2-one

> <PUBCHEM_IUPAC_NAME>
1-(1,3-benzodioxol-5-yl)-3-[2-[(7,7-dimethyl-1-bicyclo[2.2.1]heptanyl)methyl-methylamino]ethyl]imidazolidin-2-one

> <PUBCHEM_IUPAC_SYSTEMATIC_NAME>
1-(1,3-benzodioxol-5-yl)-3-[2-[(7,7-dimethyl-1-bicyclo[2.2.1]heptanyl)methyl-methyl-amino]ethyl]imidazolidin-2-one

> <PUBCHEM_IUPAC_TRADITIONAL_NAME>
1-(1,3-benzodioxol-5-yl)-3-[2-[(7,7-dimethylnorbornan-1-yl)methyl-methyl-amino]ethyl]-2-imidazolidinone

> <PUBCHEM_IUPAC_INCHI>
InChI=1S/C23H33N3O3/c1-22(2)17-6-8-23(22,9-7-17)15-24(3)10-11-25-12-13-26(21(25)27)18-4-5-19-20(14-18)29-16-28-19/h4-5,14,17H,6-13,15-16H2,1-3H3

> <PUBCHEM_IUPAC_INCHIKEY>
ABSKTFYOWZQKEU-UHFFFAOYSA-N

> <PUBCHEM_XLOGP3_AA>
3.8

> <PUBCHEM_EXACT_MASS>
399.25219192

> <PUBCHEM_MOLECULAR_FORMULA>
C23H33N3O3

> <PUBCHEM_MOLECULAR_WEIGHT>
399.5

> <PUBCHEM_OPENEYE_CAN_SMILES>
CC1(C2CCC1(CC2)CN(C)CCN3CCN(C3=O)C4=CC5=C(C=C4)OCO5)C

> <PUBCHEM_OPENEYE_ISO_SMILES>
CC1(C2CCC1(CC2)CN(C)CCN3CCN(C3=O)C4=CC5=C(C=C4)OCO5)C

> <PUBCHEM_CACTVS_TPSA>
45.2

> <PUBCHEM_MONOISOTOPIC_WEIGHT>
399.25219192

> <PUBCHEM_TOTAL_CHARGE>
0

> <PUBCHEM_HEAVY_ATOM_COUNT>
29

> <PUBCHEM_ATOM_DEF_STEREO_COUNT>
0

> <PUBCHEM_ATOM_UDEF_STEREO_COUNT>
0

> <PUBCHEM_BOND_DEF_STEREO_COUNT>
0

> <PUBCHEM_BOND_UDEF_STEREO_COUNT>
0

> <PUBCHEM_ISOTOPIC_ATOM_COUNT>
0

> <PUBCHEM_COMPONENT_COUNT>
1

> <PUBCHEM_CACTVS_TAUTO_COUNT>
-1

> <PUBCHEM_COORDINATE_TYPE>
1
5
255

> <PUBCHEM_BONDANNOTATIONS>
23  24  8
23  25  8
24  26  8
25  27  8
26  28  8
27  28  8

$$$$
