118709751
  -OEChem-09292322352D

 52 55  0     1  0  0  0  0  0999 V2000
    2.0000   -5.6907    0.0000 Cl  0  0  0  0  0  0  0  0  0  0  0  0
    6.1434    3.0926    0.0000 S   0  0  0  0  0  0  0  0  0  0  0  0
    7.1434    4.8247    0.0000 F   0  0  0  0  0  0  0  0  0  0  0  0
    3.5863   -2.4529    0.0000 O   0  0  0  0  0  0  0  0  0  0  0  0
    6.1434   -0.3715    0.0000 N   0  0  0  0  0  0  0  0  0  0  0  0
    6.8800   -1.3541    0.0000 C   0  0  3  0  0  0  0  0  0  0  0  0
    6.6212   -2.3200    0.0000 C   0  0  3  0  0  0  0  0  0  0  0  0
    4.5712   -2.6265    0.0000 C   0  0  0  0  0  0  0  0  0  0  0  0
    4.8468   -1.6652    0.0000 C   0  0  0  0  0  0  0  0  0  0  0  0
    5.4002   -3.1857    0.0000 C   0  0  0  0  0  0  0  0  0  0  0  0
    8.2790   -1.8629    0.0000 C   0  0  0  0  0  0  0  0  0  0  0  0
    8.0201   -2.8288    0.0000 C   0  0  0  0  0  0  0  0  0  0  0  0
    5.6434    0.4945    0.0000 C   0  0  0  0  0  0  0  0  0  0  0  0
    3.9284   -3.3926    0.0000 C   0  0  0  0  0  0  0  0  0  0  0  0
    6.1434    1.3606    0.0000 C   0  0  0  0  0  0  0  0  0  0  0  0
    4.2704   -4.3322    0.0000 C   0  0  0  0  0  0  0  0  0  0  0  0
    2.9436   -3.2189    0.0000 C   0  0  0  0  0  0  0  0  0  0  0  0
    5.6434    2.2266    0.0000 C   0  0  0  0  0  0  0  0  0  0  0  0
    3.6276   -5.0983    0.0000 C   0  0  0  0  0  0  0  0  0  0  0  0
    2.3008   -3.9850    0.0000 C   0  0  0  0  0  0  0  0  0  0  0  0
    2.6428   -4.9246    0.0000 C   0  0  0  0  0  0  0  0  0  0  0  0
    5.6434    3.9586    0.0000 C   0  0  0  0  0  0  0  0  0  0  0  0
    6.1434    4.8247    0.0000 C   0  0  0  0  0  0  0  0  0  0  0  0
    4.6434    3.9586    0.0000 C   0  0  0  0  0  0  0  0  0  0  0  0
    5.6434    5.6907    0.0000 C   0  0  0  0  0  0  0  0  0  0  0  0
    4.1434    4.8247    0.0000 C   0  0  0  0  0  0  0  0  0  0  0  0
    4.6434    5.6907    0.0000 C   0  0  0  0  0  0  0  0  0  0  0  0
    7.2494   -0.8561    0.0000 H   0  0  0  0  0  0  0  0  0  0  0  0
    6.7040   -2.9345    0.0000 H   0  0  0  0  0  0  0  0  0  0  0  0
    4.8417   -1.0453    0.0000 H   0  0  0  0  0  0  0  0  0  0  0  0
    4.2325   -1.5815    0.0000 H   0  0  0  0  0  0  0  0  0  0  0  0
    4.9943   -3.6544    0.0000 H   0  0  0  0  0  0  0  0  0  0  0  0
    5.8168   -3.6448    0.0000 H   0  0  0  0  0  0  0  0  0  0  0  0
    8.8729   -2.0407    0.0000 H   0  0  0  0  0  0  0  0  0  0  0  0
    8.4739   -1.2744    0.0000 H   0  0  0  0  0  0  0  0  0  0  0  0
    7.8252   -3.4174    0.0000 H   0  0  0  0  0  0  0  0  0  0  0  0
    8.6141   -3.0066    0.0000 H   0  0  0  0  0  0  0  0  0  0  0  0
    5.1685    0.8931    0.0000 H   0  0  0  0  0  0  0  0  0  0  0  0
    5.1685    0.0960    0.0000 H   0  0  0  0  0  0  0  0  0  0  0  0
    6.6184    0.9620    0.0000 H   0  0  0  0  0  0  0  0  0  0  0  0
    6.6184    1.7591    0.0000 H   0  0  0  0  0  0  0  0  0  0  0  0
    3.3743   -1.8702    0.0000 H   0  0  0  0  0  0  0  0  0  0  0  0
    4.8810   -4.4399    0.0000 H   0  0  0  0  0  0  0  0  0  0  0  0
    2.7315   -2.6363    0.0000 H   0  0  0  0  0  0  0  0  0  0  0  0
    5.1685    2.6251    0.0000 H   0  0  0  0  0  0  0  0  0  0  0  0
    5.1685    1.8280    0.0000 H   0  0  0  0  0  0  0  0  0  0  0  0
    3.8396   -5.6809    0.0000 H   0  0  0  0  0  0  0  0  0  0  0  0
    1.6902   -3.8773    0.0000 H   0  0  0  0  0  0  0  0  0  0  0  0
    4.3334    3.4217    0.0000 H   0  0  0  0  0  0  0  0  0  0  0  0
    5.9534    6.2276    0.0000 H   0  0  0  0  0  0  0  0  0  0  0  0
    3.5234    4.8247    0.0000 H   0  0  0  0  0  0  0  0  0  0  0  0
    4.3334    6.2276    0.0000 H   0  0  0  0  0  0  0  0  0  0  0  0
  1 21  1  0  0  0  0
  2 18  1  0  0  0  0
  2 22  1  0  0  0  0
  3 23  1  0  0  0  0
  4  8  1  0  0  0  0
  4 42  1  0  0  0  0
  5  6  1  0  0  0  0
  5  7  1  0  0  0  0
  5 13  1  0  0  0  0
  6  9  1  0  0  0  0
  6 11  1  0  0  0  0
  6 28  1  0  0  0  0
  7 10  1  0  0  0  0
  7 12  1  0  0  0  0
  7 29  1  0  0  0  0
  8  9  1  0  0  0  0
  8 10  1  0  0  0  0
  8 14  1  0  0  0  0
  9 30  1  0  0  0  0
  9 31  1  0  0  0  0
 10 32  1  0  0  0  0
 10 33  1  0  0  0  0
 11 12  1  0  0  0  0
 11 34  1  0  0  0  0
 11 35  1  0  0  0  0
 12 36  1  0  0  0  0
 12 37  1  0  0  0  0
 13 15  1  0  0  0  0
 13 38  1  0  0  0  0
 13 39  1  0  0  0  0
 14 16  2  0  0  0  0
 14 17  1  0  0  0  0
 15 18  1  0  0  0  0
 15 40  1  0  0  0  0
 15 41  1  0  0  0  0
 16 19  1  0  0  0  0
 16 43  1  0  0  0  0
 17 20  2  0  0  0  0
 17 44  1  0  0  0  0
 18 45  1  0  0  0  0
 18 46  1  0  0  0  0
 19 21  2  0  0  0  0
 19 47  1  0  0  0  0
 20 21  1  0  0  0  0
 20 48  1  0  0  0  0
 22 23  1  0  0  0  0
 22 24  2  0  0  0  0
 23 25  2  0  0  0  0
 24 26  1  0  0  0  0
 24 49  1  0  0  0  0
 25 27  1  0  0  0  0
 25 50  1  0  0  0  0
 26 27  2  0  0  0  0
 26 51  1  0  0  0  0
 27 52  1  0  0  0  0
M  END
> <PUBCHEM_COMPOUND_CID>
118709751

> <PUBCHEM_COMPOUND_CANONICALIZED>
1

> <PUBCHEM_CACTVS_COMPLEXITY>
473

> <PUBCHEM_CACTVS_HBOND_ACCEPTOR>
4

> <PUBCHEM_CACTVS_HBOND_DONOR>
1

> <PUBCHEM_CACTVS_ROTATABLE_BOND>
6

> <PUBCHEM_CACTVS_SUBSKEYS>
AAADceB6IQBEAAAAAAAAAAAAAAAAAWAAAAA8YIAABgAAAAABQAAAHwYACAAADG7F2CywAYMAAgiAAiBCAAACAAAgDRAIiBgICogIJiKhkxCEcAAmwAGomAeQwOAOhAAAAAAAAAAIAAAAAAAAAAAAAAAAAA==

> <PUBCHEM_IUPAC_OPENEYE_NAME>
3-(4-chlorophenyl)-8-[3-(2-fluorophenyl)sulfanylpropyl]-8-azabicyclo[3.2.1]octan-3-ol

> <PUBCHEM_IUPAC_CAS_NAME>
3-(4-chlorophenyl)-8-[3-[(2-fluorophenyl)thio]propyl]-8-azabicyclo[3.2.1]octan-3-ol

> <PUBCHEM_IUPAC_NAME_MARKUP>
3-(4-chlorophenyl)-8-[3-(2-fluorophenyl)sulfanylpropyl]-8-azabicyclo[3.2.1]octan-3-ol

> <PUBCHEM_IUPAC_NAME>
3-(4-chlorophenyl)-8-[3-(2-fluorophenyl)sulfanylpropyl]-8-azabicyclo[3.2.1]octan-3-ol

> <PUBCHEM_IUPAC_SYSTEMATIC_NAME>
3-(4-chlorophenyl)-8-[3-(2-fluorophenyl)sulfanylpropyl]-8-azabicyclo[3.2.1]octan-3-ol

> <PUBCHEM_IUPAC_TRADITIONAL_NAME>
3-(4-chlorophenyl)-8-[3-[(2-fluorophenyl)thio]propyl]-8-azabicyclo[3.2.1]octan-3-ol

> <PUBCHEM_IUPAC_INCHI>
InChI=1S/C22H25ClFNOS/c23-17-8-6-16(7-9-17)22(26)14-18-10-11-19(15-22)25(18)12-3-13-27-21-5-2-1-4-20(21)24/h1-2,4-9,18-19,26H,3,10-15H2

> <PUBCHEM_IUPAC_INCHIKEY>
QHLAPIQLWATZKM-UHFFFAOYSA-N

> <PUBCHEM_XLOGP3_AA>
5.3

> <PUBCHEM_EXACT_MASS>
405.1329415

> <PUBCHEM_MOLECULAR_FORMULA>
C22H25ClFNOS

> <PUBCHEM_MOLECULAR_WEIGHT>
406.0

> <PUBCHEM_OPENEYE_CAN_SMILES>
C1CC2CC(CC1N2CCCSC3=CC=CC=C3F)(C4=CC=C(C=C4)Cl)O

> <PUBCHEM_OPENEYE_ISO_SMILES>
C1CC2CC(CC1N2CCCSC3=CC=CC=C3F)(C4=CC=C(C=C4)Cl)O

> <PUBCHEM_CACTVS_TPSA>
48.8

> <PUBCHEM_MONOISOTOPIC_WEIGHT>
405.1329415

> <PUBCHEM_TOTAL_CHARGE>
0

> <PUBCHEM_HEAVY_ATOM_COUNT>
27

> <PUBCHEM_ATOM_DEF_STEREO_COUNT>
0

> <PUBCHEM_ATOM_UDEF_STEREO_COUNT>
2

> <PUBCHEM_BOND_DEF_STEREO_COUNT>
0

> <PUBCHEM_BOND_UDEF_STEREO_COUNT>
0

> <PUBCHEM_ISOTOPIC_ATOM_COUNT>
0

> <PUBCHEM_COMPONENT_COUNT>
1

> <PUBCHEM_CACTVS_TAUTO_COUNT>
-1

> <PUBCHEM_COORDINATE_TYPE>
1
5
255

> <PUBCHEM_BONDANNOTATIONS>
14  16  8
14  17  8
16  19  8
17  20  8
19  21  8
20  21  8
22  23  8
22  24  8
23  25  8
24  26  8
25  27  8
26  27  8
6  11  3
7  12  3

$$$$
