44627470
  -OEChem-09292322302D

 60 64  0     1  0  0  0  0  0999 V2000
    6.8867   -2.9615    0.0000 S   0  0  0  0  0  0  0  0  0  0  0  0
   14.0236    2.7705    0.0000 F   0  0  0  0  0  0  0  0  0  0  0  0
   13.6576    1.4045    0.0000 F   0  0  0  0  0  0  0  0  0  0  0  0
   12.6576    3.1366    0.0000 F   0  0  0  0  0  0  0  0  0  0  0  0
   11.4255    3.2705    0.0000 O   0  0  0  0  0  0  0  0  0  0  0  0
    2.5878   -2.1828    0.0000 O   0  0  0  0  0  0  0  0  0  0  0  0
    9.8867   -1.2295    0.0000 N   0  0  3  0  0  0  0  0  0  0  0  0
    5.2989   -2.1525    0.0000 N   0  0  0  0  0  0  0  0  0  0  0  0
    5.2989   -3.7705    0.0000 N   0  0  0  0  0  0  0  0  0  0  0  0
    4.3479   -3.4615    0.0000 N   0  0  0  0  0  0  0  0  0  0  0  0
    2.5878   -0.5647    0.0000 N   0  0  0  0  0  0  0  0  0  0  0  0
   11.4255   -0.7295    0.0000 C   0  0  3  0  0  0  0  0  0  0  0  0
   11.4255   -1.7295    0.0000 C   0  0  3  0  0  0  0  0  0  0  0  0
   12.2921   -1.2295    0.0000 C   0  0  0  0  0  0  0  0  0  0  0  0
   10.4745   -0.4204    0.0000 C   0  0  0  0  0  0  0  0  0  0  0  0
   10.4745   -2.0385    0.0000 C   0  0  0  0  0  0  0  0  0  0  0  0
   11.4255    0.2705    0.0000 C   0  0  0  0  0  0  0  0  0  0  0  0
    8.8867   -1.2295    0.0000 C   0  0  0  0  0  0  0  0  0  0  0  0
   12.2916    0.7705    0.0000 C   0  0  0  0  0  0  0  0  0  0  0  0
   10.5595    0.7705    0.0000 C   0  0  0  0  0  0  0  0  0  0  0  0
    8.3867   -2.0955    0.0000 C   0  0  0  0  0  0  0  0  0  0  0  0
   12.2916    1.7705    0.0000 C   0  0  0  0  0  0  0  0  0  0  0  0
   10.5595    1.7705    0.0000 C   0  0  0  0  0  0  0  0  0  0  0  0
   11.4255    2.2705    0.0000 C   0  0  0  0  0  0  0  0  0  0  0  0
    7.3867   -2.0955    0.0000 C   0  0  0  0  0  0  0  0  0  0  0  0
   13.1576    2.2705    0.0000 C   0  0  0  0  0  0  0  0  0  0  0  0
   10.5595    3.7705    0.0000 C   0  0  0  0  0  0  0  0  0  0  0  0
    5.8867   -2.9615    0.0000 C   0  0  0  0  0  0  0  0  0  0  0  0
    4.3479   -2.4615    0.0000 C   0  0  0  0  0  0  0  0  0  0  0  0
    5.6079   -1.2014    0.0000 C   0  0  0  0  0  0  0  0  0  0  0  0
    3.5388   -1.8737    0.0000 C   0  0  0  0  0  0  0  0  0  0  0  0
    3.5388   -0.8737    0.0000 C   0  0  0  0  0  0  0  0  0  0  0  0
    4.3479   -0.2859    0.0000 C   0  0  0  0  0  0  0  0  0  0  0  0
    2.0000   -1.3737    0.0000 C   0  0  0  0  0  0  0  0  0  0  0  0
   11.6776   -2.2959    0.0000 H   0  0  0  0  0  0  0  0  0  0  0  0
   12.6906   -1.7044    0.0000 H   0  0  0  0  0  0  0  0  0  0  0  0
   12.6906   -0.7545    0.0000 H   0  0  0  0  0  0  0  0  0  0  0  0
   10.7267    0.1459    0.0000 H   0  0  0  0  0  0  0  0  0  0  0  0
    9.9376   -0.1104    0.0000 H   0  0  0  0  0  0  0  0  0  0  0  0
    9.9376   -2.3485    0.0000 H   0  0  0  0  0  0  0  0  0  0  0  0
   10.7267   -2.6049    0.0000 H   0  0  0  0  0  0  0  0  0  0  0  0
    8.9944   -0.6189    0.0000 H   0  0  0  0  0  0  0  0  0  0  0  0
    8.3041   -1.0174    0.0000 H   0  0  0  0  0  0  0  0  0  0  0  0
   12.8285    0.4605    0.0000 H   0  0  0  0  0  0  0  0  0  0  0  0
   10.0226    0.4605    0.0000 H   0  0  0  0  0  0  0  0  0  0  0  0
    8.2790   -2.7061    0.0000 H   0  0  0  0  0  0  0  0  0  0  0  0
    8.9693   -2.3075    0.0000 H   0  0  0  0  0  0  0  0  0  0  0  0
   10.0226    2.0805    0.0000 H   0  0  0  0  0  0  0  0  0  0  0  0
    7.4944   -1.4849    0.0000 H   0  0  0  0  0  0  0  0  0  0  0  0
    6.8041   -1.8834    0.0000 H   0  0  0  0  0  0  0  0  0  0  0  0
   10.8695    4.3075    0.0000 H   0  0  0  0  0  0  0  0  0  0  0  0
   10.0226    4.0805    0.0000 H   0  0  0  0  0  0  0  0  0  0  0  0
   10.2495    3.2336    0.0000 H   0  0  0  0  0  0  0  0  0  0  0  0
    6.1976   -1.3930    0.0000 H   0  0  0  0  0  0  0  0  0  0  0  0
    5.7995   -0.6118    0.0000 H   0  0  0  0  0  0  0  0  0  0  0  0
    5.0183   -1.0098    0.0000 H   0  0  0  0  0  0  0  0  0  0  0  0
    4.7123   -0.7875    0.0000 H   0  0  0  0  0  0  0  0  0  0  0  0
    4.8494    0.0785    0.0000 H   0  0  0  0  0  0  0  0  0  0  0  0
    3.9834    0.2156    0.0000 H   0  0  0  0  0  0  0  0  0  0  0  0
    1.3800   -1.3737    0.0000 H   0  0  0  0  0  0  0  0  0  0  0  0
  1 25  1  0  0  0  0
  1 28  1  0  0  0  0
  2 26  1  0  0  0  0
  3 26  1  0  0  0  0
  4 26  1  0  0  0  0
  5 24  1  0  0  0  0
  5 27  1  0  0  0  0
  6 31  1  0  0  0  0
  6 34  1  0  0  0  0
  7 15  1  0  0  0  0
  7 16  1  0  0  0  0
  7 18  1  0  0  0  0
  8 28  1  0  0  0  0
  8 29  1  0  0  0  0
  8 30  1  0  0  0  0
  9 10  1  0  0  0  0
  9 28  2  0  0  0  0
 10 29  2  0  0  0  0
 11 32  1  0  0  0  0
 11 34  2  0  0  0  0
 12 13  1  0  0  0  0
 12 14  1  0  0  0  0
 12 15  1  0  0  0  0
 12 17  1  0  0  0  0
 13 14  1  0  0  0  0
 13 16  1  0  0  0  0
 13 35  1  0  0  0  0
 14 36  1  0  0  0  0
 14 37  1  0  0  0  0
 15 38  1  0  0  0  0
 15 39  1  0  0  0  0
 16 40  1  0  0  0  0
 16 41  1  0  0  0  0
 17 19  2  0  0  0  0
 17 20  1  0  0  0  0
 18 21  1  0  0  0  0
 18 42  1  0  0  0  0
 18 43  1  0  0  0  0
 19 22  1  0  0  0  0
 19 44  1  0  0  0  0
 20 23  2  0  0  0  0
 20 45  1  0  0  0  0
 21 25  1  0  0  0  0
 21 46  1  0  0  0  0
 21 47  1  0  0  0  0
 22 24  2  0  0  0  0
 22 26  1  0  0  0  0
 23 24  1  0  0  0  0
 23 48  1  0  0  0  0
 25 49  1  0  0  0  0
 25 50  1  0  0  0  0
 27 51  1  0  0  0  0
 27 52  1  0  0  0  0
 27 53  1  0  0  0  0
 29 31  1  0  0  0  0
 30 54  1  0  0  0  0
 30 55  1  0  0  0  0
 30 56  1  0  0  0  0
 31 32  2  0  0  0  0
 32 33  1  0  0  0  0
 33 57  1  0  0  0  0
 33 58  1  0  0  0  0
 33 59  1  0  0  0  0
 34 60  1  0  0  0  0
M  END
> <PUBCHEM_COMPOUND_CID>
44627470

> <PUBCHEM_COMPOUND_CANONICALIZED>
1

> <PUBCHEM_CACTVS_COMPLEXITY>
721

> <PUBCHEM_CACTVS_HBOND_ACCEPTOR>
10

> <PUBCHEM_CACTVS_HBOND_DONOR>
0

> <PUBCHEM_CACTVS_ROTATABLE_BOND>
8

> <PUBCHEM_CACTVS_SUBSKEYS>
AAADceB7sYBAAAAAAAAAAAAAGAAAAWLFgAA8QAAAAAAAAAAB8AAAHwQIAAAADwzF3xa3lpcMFEiqA6Zz9ASS2Ct7YLAd2CG/TJiOLiLk+TuNMChkzBPYqAeQwPAPoAACAAAIAABAAAQAABAAAAAAAAAAAA==

> <PUBCHEM_IUPAC_OPENEYE_NAME>
5-[5-[3-[1-[4-methoxy-3-(trifluoromethyl)phenyl]-3-azabicyclo[3.1.0]hexan-3-yl]propylsulfanyl]-4-methyl-1,2,4-triazol-3-yl]-4-methyl-oxazole

> <PUBCHEM_IUPAC_CAS_NAME>
5-[5-[3-[1-[4-methoxy-3-(trifluoromethyl)phenyl]-3-azabicyclo[3.1.0]hexan-3-yl]propylthio]-4-methyl-1,2,4-triazol-3-yl]-4-methyloxazole

> <PUBCHEM_IUPAC_NAME_MARKUP>
5-[5-[3-[1-[4-methoxy-3-(trifluoromethyl)phenyl]-3-azabicyclo[3.1.0]hexan-3-yl]propylsulfanyl]-4-methyl-1,2,4-triazol-3-yl]-4-methyl-1,3-oxazole

> <PUBCHEM_IUPAC_NAME>
5-[5-[3-[1-[4-methoxy-3-(trifluoromethyl)phenyl]-3-azabicyclo[3.1.0]hexan-3-yl]propylsulfanyl]-4-methyl-1,2,4-triazol-3-yl]-4-methyl-1,3-oxazole

> <PUBCHEM_IUPAC_SYSTEMATIC_NAME>
5-[5-[3-[1-[4-methoxy-3-(trifluoromethyl)phenyl]-3-azabicyclo[3.1.0]hexan-3-yl]propylsulfanyl]-4-methyl-1,2,4-triazol-3-yl]-4-methyl-1,3-oxazole

> <PUBCHEM_IUPAC_TRADITIONAL_NAME>
5-[5-[3-[1-[4-methoxy-3-(trifluoromethyl)phenyl]-3-azabicyclo[3.1.0]hexan-3-yl]propylthio]-4-methyl-1,2,4-triazol-3-yl]-4-methyl-oxazole

> <PUBCHEM_IUPAC_INCHI>
InChI=1S/C23H26F3N5O2S/c1-14-19(33-13-27-14)20-28-29-21(30(20)2)34-8-4-7-31-11-16-10-22(16,12-31)15-5-6-18(32-3)17(9-15)23(24,25)26/h5-6,9,13,16H,4,7-8,10-12H2,1-3H3

> <PUBCHEM_IUPAC_INCHIKEY>
OPTJHAAZKYNBRY-UHFFFAOYSA-N

> <PUBCHEM_XLOGP3_AA>
4

> <PUBCHEM_EXACT_MASS>
493.17593075

> <PUBCHEM_MOLECULAR_FORMULA>
C23H26F3N5O2S

> <PUBCHEM_MOLECULAR_WEIGHT>
493.5

> <PUBCHEM_OPENEYE_CAN_SMILES>
CC1=C(OC=N1)C2=NN=C(N2C)SCCCN3CC4CC4(C3)C5=CC(=C(C=C5)OC)C(F)(F)F

> <PUBCHEM_OPENEYE_ISO_SMILES>
CC1=C(OC=N1)C2=NN=C(N2C)SCCCN3CC4CC4(C3)C5=CC(=C(C=C5)OC)C(F)(F)F

> <PUBCHEM_CACTVS_TPSA>
94.5

> <PUBCHEM_MONOISOTOPIC_WEIGHT>
493.17593075

> <PUBCHEM_TOTAL_CHARGE>
0

> <PUBCHEM_HEAVY_ATOM_COUNT>
34

> <PUBCHEM_ATOM_DEF_STEREO_COUNT>
0

> <PUBCHEM_ATOM_UDEF_STEREO_COUNT>
2

> <PUBCHEM_BOND_DEF_STEREO_COUNT>
0

> <PUBCHEM_BOND_UDEF_STEREO_COUNT>
0

> <PUBCHEM_ISOTOPIC_ATOM_COUNT>
0

> <PUBCHEM_COMPONENT_COUNT>
1

> <PUBCHEM_CACTVS_TAUTO_COUNT>
-1

> <PUBCHEM_COORDINATE_TYPE>
1
5
255

> <PUBCHEM_BONDANNOTATIONS>
10  29  8
11  32  8
11  34  8
12  17  3
13  14  3
17  19  8
17  20  8
19  22  8
20  23  8
22  24  8
23  24  8
31  32  8
6  31  8
6  34  8
8  28  8
8  29  8
9  10  8
9  28  8

$$$$
