122180572
  -OEChem-09292322362D

 60 64  0     0  0  0  0  0  0999 V2000
    4.9836   -3.9024    0.0000 Cl  0  0  0  0  0  0  0  0  0  0  0  0
    4.1701   -5.7295    0.0000 Cl  0  0  0  0  0  0  0  0  0  0  0  0
    4.6215   -0.4573    0.0000 N   0  0  0  0  0  0  0  0  0  0  0  0
    3.8080   -2.2844    0.0000 N   0  0  0  0  0  0  0  0  0  0  0  0
    8.9134    3.6948    0.0000 N   0  0  0  0  0  0  0  0  0  0  0  0
    7.3307    3.3584    0.0000 N   0  0  0  0  0  0  0  0  0  0  0  0
    7.9998    4.1016    0.0000 N   0  0  0  0  0  0  0  0  0  0  0  0
    3.6270   -0.5618    0.0000 C   0  0  0  0  0  0  0  0  0  0  0  0
    5.2092   -1.2663    0.0000 C   0  0  0  0  0  0  0  0  0  0  0  0
    3.2202   -1.4754    0.0000 C   0  0  0  0  0  0  0  0  0  0  0  0
    4.8025   -2.1798    0.0000 C   0  0  0  0  0  0  0  0  0  0  0  0
    5.0282    0.4563    0.0000 C   0  0  0  0  0  0  0  0  0  0  0  0
    6.0227    0.5608    0.0000 C   0  0  0  0  0  0  0  0  0  0  0  0
    6.4295    1.4743    0.0000 C   0  0  0  0  0  0  0  0  0  0  0  0
    3.4013   -3.1979    0.0000 C   0  0  0  0  0  0  0  0  0  0  0  0
    7.4240    1.5789    0.0000 C   0  0  0  0  0  0  0  0  0  0  0  0
    3.9890   -4.0069    0.0000 C   0  0  0  0  0  0  0  0  0  0  0  0
    2.4067   -3.3024    0.0000 C   0  0  0  0  0  0  0  0  0  0  0  0
    7.8307    2.4924    0.0000 C   0  0  0  0  0  0  0  0  0  0  0  0
    3.5823   -4.9205    0.0000 C   0  0  0  0  0  0  0  0  0  0  0  0
    2.0000   -4.2160    0.0000 C   0  0  0  0  0  0  0  0  0  0  0  0
    8.8089    2.7003    0.0000 C   0  0  0  0  0  0  0  0  0  0  0  0
    2.5878   -5.0250    0.0000 C   0  0  0  0  0  0  0  0  0  0  0  0
    9.7794    4.1948    0.0000 C   0  0  0  0  0  0  0  0  0  0  0  0
   10.6454    3.6948    0.0000 C   0  0  0  0  0  0  0  0  0  0  0  0
   11.5115    4.1948    0.0000 C   0  0  0  0  0  0  0  0  0  0  0  0
    9.7794    5.1948    0.0000 C   0  0  0  0  0  0  0  0  0  0  0  0
   11.5115    5.1948    0.0000 C   0  0  0  0  0  0  0  0  0  0  0  0
   10.6454    5.6948    0.0000 C   0  0  0  0  0  0  0  0  0  0  0  0
   12.4054    3.6602    0.0000 C   0  0  0  0  0  0  0  0  0  0  0  0
   12.4054    5.7295    0.0000 C   0  0  0  0  0  0  0  0  0  0  0  0
   13.3115    4.1740    0.0000 C   0  0  0  0  0  0  0  0  0  0  0  0
   13.3115    5.2157    0.0000 C   0  0  0  0  0  0  0  0  0  0  0  0
    3.6702    0.0567    0.0000 H   0  0  0  0  0  0  0  0  0  0  0  0
    3.0254   -0.4118    0.0000 H   0  0  0  0  0  0  0  0  0  0  0  0
    5.7233   -1.6130    0.0000 H   0  0  0  0  0  0  0  0  0  0  0  0
    5.6399   -0.8203    0.0000 H   0  0  0  0  0  0  0  0  0  0  0  0
    2.7062   -1.1287    0.0000 H   0  0  0  0  0  0  0  0  0  0  0  0
    2.7895   -1.9214    0.0000 H   0  0  0  0  0  0  0  0  0  0  0  0
    4.7593   -2.7983    0.0000 H   0  0  0  0  0  0  0  0  0  0  0  0
    5.4041   -2.3298    0.0000 H   0  0  0  0  0  0  0  0  0  0  0  0
    5.0714    1.0748    0.0000 H   0  0  0  0  0  0  0  0  0  0  0  0
    4.4266    0.6063    0.0000 H   0  0  0  0  0  0  0  0  0  0  0  0
    5.9795   -0.0577    0.0000 H   0  0  0  0  0  0  0  0  0  0  0  0
    6.6243    0.4108    0.0000 H   0  0  0  0  0  0  0  0  0  0  0  0
    6.4727    2.0928    0.0000 H   0  0  0  0  0  0  0  0  0  0  0  0
    5.8279    1.6243    0.0000 H   0  0  0  0  0  0  0  0  0  0  0  0
    7.3807    0.9604    0.0000 H   0  0  0  0  0  0  0  0  0  0  0  0
    8.0256    1.4289    0.0000 H   0  0  0  0  0  0  0  0  0  0  0  0
    2.0423   -2.8009    0.0000 H   0  0  0  0  0  0  0  0  0  0  0  0
    1.3834   -4.2808    0.0000 H   0  0  0  0  0  0  0  0  0  0  0  0
    9.2696    2.2855    0.0000 H   0  0  0  0  0  0  0  0  0  0  0  0
    2.3356   -5.5914    0.0000 H   0  0  0  0  0  0  0  0  0  0  0  0
   10.6454    3.0748    0.0000 H   0  0  0  0  0  0  0  0  0  0  0  0
    9.2425    5.5048    0.0000 H   0  0  0  0  0  0  0  0  0  0  0  0
   10.6454    6.3148    0.0000 H   0  0  0  0  0  0  0  0  0  0  0  0
   12.3982    3.0402    0.0000 H   0  0  0  0  0  0  0  0  0  0  0  0
   12.3982    6.3495    0.0000 H   0  0  0  0  0  0  0  0  0  0  0  0
   13.8472    3.8620    0.0000 H   0  0  0  0  0  0  0  0  0  0  0  0
   13.8472    5.5277    0.0000 H   0  0  0  0  0  0  0  0  0  0  0  0
  1 17  1  0  0  0  0
  2 20  1  0  0  0  0
  3  8  1  0  0  0  0
  3  9  1  0  0  0  0
  3 12  1  0  0  0  0
  4 10  1  0  0  0  0
  4 11  1  0  0  0  0
  4 15  1  0  0  0  0
  5  7  1  0  0  0  0
  5 22  1  0  0  0  0
  5 24  1  0  0  0  0
  6  7  2  0  0  0  0
  6 19  1  0  0  0  0
  8 10  1  0  0  0  0
  8 34  1  0  0  0  0
  8 35  1  0  0  0  0
  9 11  1  0  0  0  0
  9 36  1  0  0  0  0
  9 37  1  0  0  0  0
 10 38  1  0  0  0  0
 10 39  1  0  0  0  0
 11 40  1  0  0  0  0
 11 41  1  0  0  0  0
 12 13  1  0  0  0  0
 12 42  1  0  0  0  0
 12 43  1  0  0  0  0
 13 14  1  0  0  0  0
 13 44  1  0  0  0  0
 13 45  1  0  0  0  0
 14 16  1  0  0  0  0
 14 46  1  0  0  0  0
 14 47  1  0  0  0  0
 15 17  2  0  0  0  0
 15 18  1  0  0  0  0
 16 19  1  0  0  0  0
 16 48  1  0  0  0  0
 16 49  1  0  0  0  0
 17 20  1  0  0  0  0
 18 21  2  0  0  0  0
 18 50  1  0  0  0  0
 19 22  2  0  0  0  0
 20 23  2  0  0  0  0
 21 23  1  0  0  0  0
 21 51  1  0  0  0  0
 22 52  1  0  0  0  0
 23 53  1  0  0  0  0
 24 25  2  0  0  0  0
 24 27  1  0  0  0  0
 25 26  1  0  0  0  0
 25 54  1  0  0  0  0
 26 28  1  0  0  0  0
 26 30  2  0  0  0  0
 27 29  2  0  0  0  0
 27 55  1  0  0  0  0
 28 29  1  0  0  0  0
 28 31  2  0  0  0  0
 29 56  1  0  0  0  0
 30 32  1  0  0  0  0
 30 57  1  0  0  0  0
 31 33  1  0  0  0  0
 31 58  1  0  0  0  0
 32 33  2  0  0  0  0
 32 59  1  0  0  0  0
 33 60  1  0  0  0  0
M  END
> <PUBCHEM_COMPOUND_CID>
122180572

> <PUBCHEM_COMPOUND_CANONICALIZED>
1

> <PUBCHEM_CACTVS_COMPLEXITY>
601

> <PUBCHEM_CACTVS_HBOND_ACCEPTOR>
4

> <PUBCHEM_CACTVS_HBOND_DONOR>
0

> <PUBCHEM_CACTVS_ROTATABLE_BOND>
7

> <PUBCHEM_CACTVS_SUBSKEYS>
AAADceB7gAAGAAAAAAAAAAAAAAAAAWAAAAA8YMEAAAAAAADB1AAAHAIIAAAADArBHiQ8wNMIAACiAzRnRACCBCQxlwAYmkA4dogIYGLBk5HUIAhggADIyAcQgIAOiAAAQAIQABQQAACABCAAKAAAAAAAAA==

> <PUBCHEM_IUPAC_OPENEYE_NAME>
1-(2,3-dichlorophenyl)-4-[4-[1-(2-naphthyl)triazol-4-yl]butyl]piperazine

> <PUBCHEM_IUPAC_CAS_NAME>
1-(2,3-dichlorophenyl)-4-[4-[1-(2-naphthalenyl)-4-triazolyl]butyl]piperazine

> <PUBCHEM_IUPAC_NAME_MARKUP>
1-(2,3-dichlorophenyl)-4-[4-(1-naphthalen-2-yltriazol-4-yl)butyl]piperazine

> <PUBCHEM_IUPAC_NAME>
1-(2,3-dichlorophenyl)-4-[4-(1-naphthalen-2-yltriazol-4-yl)butyl]piperazine

> <PUBCHEM_IUPAC_SYSTEMATIC_NAME>
1-[2,3-bis(chloranyl)phenyl]-4-[4-(1-naphthalen-2-yl-1,2,3-triazol-4-yl)butyl]piperazine

> <PUBCHEM_IUPAC_TRADITIONAL_NAME>
1-(2,3-dichlorophenyl)-4-[4-[1-(2-naphthyl)triazol-4-yl]butyl]piperazine

> <PUBCHEM_IUPAC_INCHI>
InChI=1S/C26H27Cl2N5/c27-24-9-5-10-25(26(24)28)32-16-14-31(15-17-32)13-4-3-8-22-19-33(30-29-22)23-12-11-20-6-1-2-7-21(20)18-23/h1-2,5-7,9-12,18-19H,3-4,8,13-17H2

> <PUBCHEM_IUPAC_INCHIKEY>
JEZRLUMTXPFWPB-UHFFFAOYSA-N

> <PUBCHEM_XLOGP3_AA>
6.5

> <PUBCHEM_EXACT_MASS>
479.1643513

> <PUBCHEM_MOLECULAR_FORMULA>
C26H27Cl2N5

> <PUBCHEM_MOLECULAR_WEIGHT>
480.4

> <PUBCHEM_OPENEYE_CAN_SMILES>
C1CN(CCN1CCCCC2=CN(N=N2)C3=CC4=CC=CC=C4C=C3)C5=C(C(=CC=C5)Cl)Cl

> <PUBCHEM_OPENEYE_ISO_SMILES>
C1CN(CCN1CCCCC2=CN(N=N2)C3=CC4=CC=CC=C4C=C3)C5=C(C(=CC=C5)Cl)Cl

> <PUBCHEM_CACTVS_TPSA>
37.2

> <PUBCHEM_MONOISOTOPIC_WEIGHT>
479.1643513

> <PUBCHEM_TOTAL_CHARGE>
0

> <PUBCHEM_HEAVY_ATOM_COUNT>
33

> <PUBCHEM_ATOM_DEF_STEREO_COUNT>
0

> <PUBCHEM_ATOM_UDEF_STEREO_COUNT>
0

> <PUBCHEM_BOND_DEF_STEREO_COUNT>
0

> <PUBCHEM_BOND_UDEF_STEREO_COUNT>
0

> <PUBCHEM_ISOTOPIC_ATOM_COUNT>
0

> <PUBCHEM_COMPONENT_COUNT>
1

> <PUBCHEM_CACTVS_TAUTO_COUNT>
-1

> <PUBCHEM_COORDINATE_TYPE>
1
5
255

> <PUBCHEM_BONDANNOTATIONS>
15  17  8
15  18  8
17  20  8
18  21  8
19  22  8
20  23  8
21  23  8
24  25  8
24  27  8
25  26  8
26  28  8
26  30  8
27  29  8
28  29  8
28  31  8
30  32  8
31  33  8
32  33  8
5  22  8
5  7  8
6  19  8
6  7  8

$$$$
