155527714
  -OEChem-09292322402D

 74 77  0     1  0  0  0  0  0999 V2000
   10.6603   -5.0000    0.0000 O   0  0  0  0  0  0  0  0  0  0  0  0
    8.0622    2.5000    0.0000 O   0  0  0  0  0  0  0  0  0  0  0  0
    2.8660    5.5000    0.0000 O   0  0  0  0  0  0  0  0  0  0  0  0
    8.9282   -2.0000    0.0000 N   0  0  0  0  0  0  0  0  0  0  0  0
    8.9282   -4.0000    0.0000 N   0  0  0  0  0  0  0  0  0  0  0  0
    7.1962    1.0000    0.0000 N   0  0  0  0  0  0  0  0  0  0  0  0
    6.3301    2.5000    0.0000 N   0  0  0  0  0  0  0  0  0  0  0  0
    6.3301    3.5000    0.0000 N   0  0  3  0  0  0  0  0  0  0  0  0
    8.0622   -2.5000    0.0000 C   0  0  0  0  0  0  0  0  0  0  0  0
    9.7942   -2.5000    0.0000 C   0  0  0  0  0  0  0  0  0  0  0  0
    8.0622   -3.5000    0.0000 C   0  0  0  0  0  0  0  0  0  0  0  0
    9.7942   -3.5000    0.0000 C   0  0  0  0  0  0  0  0  0  0  0  0
    8.9282   -1.0000    0.0000 C   0  0  0  0  0  0  0  0  0  0  0  0
    8.0622   -0.5000    0.0000 C   0  0  0  0  0  0  0  0  0  0  0  0
    8.9282   -5.0000    0.0000 C   0  0  0  0  0  0  0  0  0  0  0  0
    8.0622    0.5000    0.0000 C   0  0  0  0  0  0  0  0  0  0  0  0
    9.7942   -5.5000    0.0000 C   0  0  0  0  0  0  0  0  0  0  0  0
    8.0622   -5.5000    0.0000 C   0  0  0  0  0  0  0  0  0  0  0  0
    9.7942   -6.5000    0.0000 C   0  0  0  0  0  0  0  0  0  0  0  0
    8.0622   -6.5000    0.0000 C   0  0  0  0  0  0  0  0  0  0  0  0
    8.9282   -7.0000    0.0000 C   0  0  0  0  0  0  0  0  0  0  0  0
    7.1962    2.0000    0.0000 C   0  0  0  0  0  0  0  0  0  0  0  0
   11.5263   -5.5000    0.0000 C   0  0  0  0  0  0  0  0  0  0  0  0
    7.1962    4.0000    0.0000 C   0  0  0  0  0  0  0  0  0  0  0  0
    5.4641    4.0000    0.0000 C   0  0  0  0  0  0  0  0  0  0  0  0
    7.1962    5.0000    0.0000 C   0  0  0  0  0  0  0  0  0  0  0  0
    5.4641    5.0000    0.0000 C   0  0  0  0  0  0  0  0  0  0  0  0
    4.5981    3.5000    0.0000 C   0  0  0  0  0  0  0  0  0  0  0  0
    8.0622    5.5000    0.0000 C   0  0  0  0  0  0  0  0  0  0  0  0
    6.3301    5.5000    0.0000 C   0  0  0  0  0  0  0  0  0  0  0  0
    4.5981    5.5000    0.0000 C   0  0  0  0  0  0  0  0  0  0  0  0
    3.7320    4.0000    0.0000 C   0  0  0  0  0  0  0  0  0  0  0  0
    3.7320    5.0000    0.0000 C   0  0  0  0  0  0  0  0  0  0  0  0
    8.0622    6.5000    0.0000 C   0  0  0  0  0  0  0  0  0  0  0  0
    6.3301    6.5000    0.0000 C   0  0  0  0  0  0  0  0  0  0  0  0
    7.1962    7.0000    0.0000 C   0  0  0  0  0  0  0  0  0  0  0  0
    2.0000    5.0000    0.0000 C   0  0  0  0  0  0  0  0  0  0  0  0
    7.8501   -1.9174    0.0000 H   0  0  0  0  0  0  0  0  0  0  0  0
    7.4516   -2.6077    0.0000 H   0  0  0  0  0  0  0  0  0  0  0  0
   10.4048   -2.6077    0.0000 H   0  0  0  0  0  0  0  0  0  0  0  0
   10.0063   -1.9174    0.0000 H   0  0  0  0  0  0  0  0  0  0  0  0
    7.4516   -3.3923    0.0000 H   0  0  0  0  0  0  0  0  0  0  0  0
    7.8501   -4.0826    0.0000 H   0  0  0  0  0  0  0  0  0  0  0  0
   10.0063   -4.0826    0.0000 H   0  0  0  0  0  0  0  0  0  0  0  0
   10.4048   -3.3923    0.0000 H   0  0  0  0  0  0  0  0  0  0  0  0
    9.5388   -1.1077    0.0000 H   0  0  0  0  0  0  0  0  0  0  0  0
    9.1403   -0.4174    0.0000 H   0  0  0  0  0  0  0  0  0  0  0  0
    7.4516   -0.3923    0.0000 H   0  0  0  0  0  0  0  0  0  0  0  0
    7.8501   -1.0826    0.0000 H   0  0  0  0  0  0  0  0  0  0  0  0
    8.6728    0.3923    0.0000 H   0  0  0  0  0  0  0  0  0  0  0  0
    8.2742    1.0826    0.0000 H   0  0  0  0  0  0  0  0  0  0  0  0
    7.5252   -5.1900    0.0000 H   0  0  0  0  0  0  0  0  0  0  0  0
    6.6592    0.6900    0.0000 H   0  0  0  0  0  0  0  0  0  0  0  0
   10.3312   -6.8100    0.0000 H   0  0  0  0  0  0  0  0  0  0  0  0
    7.5252   -6.8100    0.0000 H   0  0  0  0  0  0  0  0  0  0  0  0
    8.9282   -7.6200    0.0000 H   0  0  0  0  0  0  0  0  0  0  0  0
    5.7932    2.1900    0.0000 H   0  0  0  0  0  0  0  0  0  0  0  0
   11.2163   -6.0369    0.0000 H   0  0  0  0  0  0  0  0  0  0  0  0
   12.0632   -5.8100    0.0000 H   0  0  0  0  0  0  0  0  0  0  0  0
   11.8363   -4.9631    0.0000 H   0  0  0  0  0  0  0  0  0  0  0  0
    7.4082    3.4174    0.0000 H   0  0  0  0  0  0  0  0  0  0  0  0
    7.8067    4.1077    0.0000 H   0  0  0  0  0  0  0  0  0  0  0  0
    6.0010    5.3100    0.0000 H   0  0  0  0  0  0  0  0  0  0  0  0
    4.5981    2.8800    0.0000 H   0  0  0  0  0  0  0  0  0  0  0  0
    8.5991    5.1900    0.0000 H   0  0  0  0  0  0  0  0  0  0  0  0
    5.7932    5.1900    0.0000 H   0  0  0  0  0  0  0  0  0  0  0  0
    4.5981    6.1200    0.0000 H   0  0  0  0  0  0  0  0  0  0  0  0
    3.1951    3.6900    0.0000 H   0  0  0  0  0  0  0  0  0  0  0  0
    8.5991    6.8100    0.0000 H   0  0  0  0  0  0  0  0  0  0  0  0
    5.7932    6.8100    0.0000 H   0  0  0  0  0  0  0  0  0  0  0  0
    7.1962    7.6200    0.0000 H   0  0  0  0  0  0  0  0  0  0  0  0
    1.6900    5.5369    0.0000 H   0  0  0  0  0  0  0  0  0  0  0  0
    1.4631    4.6900    0.0000 H   0  0  0  0  0  0  0  0  0  0  0  0
    2.3100    4.4631    0.0000 H   0  0  0  0  0  0  0  0  0  0  0  0
  1 17  1  0  0  0  0
  1 23  1  0  0  0  0
  2 22  2  0  0  0  0
  3 33  1  0  0  0  0
  3 37  1  0  0  0  0
  4  9  1  0  0  0  0
  4 10  1  0  0  0  0
  4 13  1  0  0  0  0
  5 11  1  0  0  0  0
  5 12  1  0  0  0  0
  5 15  1  0  0  0  0
  6 16  1  0  0  0  0
  6 22  1  0  0  0  0
  6 53  1  0  0  0  0
  7  8  1  0  0  0  0
  7 22  1  0  0  0  0
  7 57  1  0  0  0  0
  8 24  1  0  0  0  0
  8 25  1  0  0  0  0
  9 11  1  0  0  0  0
  9 38  1  0  0  0  0
  9 39  1  0  0  0  0
 10 12  1  0  0  0  0
 10 40  1  0  0  0  0
 10 41  1  0  0  0  0
 11 42  1  0  0  0  0
 11 43  1  0  0  0  0
 12 44  1  0  0  0  0
 12 45  1  0  0  0  0
 13 14  1  0  0  0  0
 13 46  1  0  0  0  0
 13 47  1  0  0  0  0
 14 16  1  0  0  0  0
 14 48  1  0  0  0  0
 14 49  1  0  0  0  0
 15 17  1  0  0  0  0
 15 18  2  0  0  0  0
 16 50  1  0  0  0  0
 16 51  1  0  0  0  0
 17 19  2  0  0  0  0
 18 20  1  0  0  0  0
 18 52  1  0  0  0  0
 19 21  1  0  0  0  0
 19 54  1  0  0  0  0
 20 21  2  0  0  0  0
 20 55  1  0  0  0  0
 21 56  1  0  0  0  0
 23 58  1  0  0  0  0
 23 59  1  0  0  0  0
 23 60  1  0  0  0  0
 24 26  1  0  0  0  0
 24 61  1  0  0  0  0
 24 62  1  0  0  0  0
 25 27  2  0  0  0  0
 25 28  1  0  0  0  0
 26 29  2  0  0  0  0
 26 30  1  0  0  0  0
 27 31  1  0  0  0  0
 27 63  1  0  0  0  0
 28 32  2  0  0  0  0
 28 64  1  0  0  0  0
 29 34  1  0  0  0  0
 29 65  1  0  0  0  0
 30 35  2  0  0  0  0
 30 66  1  0  0  0  0
 31 33  2  0  0  0  0
 31 67  1  0  0  0  0
 32 33  1  0  0  0  0
 32 68  1  0  0  0  0
 34 36  2  0  0  0  0
 34 69  1  0  0  0  0
 35 36  1  0  0  0  0
 35 70  1  0  0  0  0
 36 71  1  0  0  0  0
 37 72  1  0  0  0  0
 37 73  1  0  0  0  0
 37 74  1  0  0  0  0
M  END
> <PUBCHEM_COMPOUND_CID>
155527714

> <PUBCHEM_COMPOUND_CANONICALIZED>
1

> <PUBCHEM_CACTVS_COMPLEXITY>
646

> <PUBCHEM_CACTVS_HBOND_ACCEPTOR>
6

> <PUBCHEM_CACTVS_HBOND_DONOR>
2

> <PUBCHEM_CACTVS_ROTATABLE_BOND>
11

> <PUBCHEM_CACTVS_SUBSKEYS>
AAADcfB7sAAAAAAAAAAAAAAAAAAAAAAAAAA8YMEAAAAAAAABUAAAHgAYAAAADAzBmAYzxoPiBACIAiRCUACCDAAhIgAeqIAPbIiOZiLE8ZuVMCh01hPY6AewwAAOAEAAAAAAEAAAgAAAAAAgAAAAAAAAAA==

> <PUBCHEM_IUPAC_OPENEYE_NAME>
1-(N-benzyl-4-methoxy-anilino)-3-[3-[4-(2-methoxyphenyl)piperazin-1-yl]propyl]urea

> <PUBCHEM_IUPAC_CAS_NAME>
1-(4-methoxy-N-(phenylmethyl)anilino)-3-[3-[4-(2-methoxyphenyl)-1-piperazinyl]propyl]urea

> <PUBCHEM_IUPAC_NAME_MARKUP>
1-(<I>N</I>-benzyl-4-methoxyanilino)-3-[3-[4-(2-methoxyphenyl)piperazin-1-yl]propyl]urea

> <PUBCHEM_IUPAC_NAME>
1-(N-benzyl-4-methoxyanilino)-3-[3-[4-(2-methoxyphenyl)piperazin-1-yl]propyl]urea

> <PUBCHEM_IUPAC_SYSTEMATIC_NAME>
1-[(4-methoxyphenyl)-(phenylmethyl)amino]-3-[3-[4-(2-methoxyphenyl)piperazin-1-yl]propyl]urea

> <PUBCHEM_IUPAC_TRADITIONAL_NAME>
1-(N-benzyl-4-methoxy-anilino)-3-[3-[4-(2-methoxyphenyl)piperazino]propyl]urea

> <PUBCHEM_IUPAC_INCHI>
InChI=1S/C29H37N5O3/c1-36-26-15-13-25(14-16-26)34(23-24-9-4-3-5-10-24)31-29(35)30-17-8-18-32-19-21-33(22-20-32)27-11-6-7-12-28(27)37-2/h3-7,9-16H,8,17-23H2,1-2H3,(H2,30,31,35)

> <PUBCHEM_IUPAC_INCHIKEY>
LXIKJZDRBXJBAY-UHFFFAOYSA-N

> <PUBCHEM_XLOGP3_AA>
4.8

> <PUBCHEM_EXACT_MASS>
503.28964006

> <PUBCHEM_MOLECULAR_FORMULA>
C29H37N5O3

> <PUBCHEM_MOLECULAR_WEIGHT>
503.6

> <PUBCHEM_OPENEYE_CAN_SMILES>
COC1=CC=C(C=C1)N(CC2=CC=CC=C2)NC(=O)NCCCN3CCN(CC3)C4=CC=CC=C4OC

> <PUBCHEM_OPENEYE_ISO_SMILES>
COC1=CC=C(C=C1)N(CC2=CC=CC=C2)NC(=O)NCCCN3CCN(CC3)C4=CC=CC=C4OC

> <PUBCHEM_CACTVS_TPSA>
69.3

> <PUBCHEM_MONOISOTOPIC_WEIGHT>
503.28964006

> <PUBCHEM_TOTAL_CHARGE>
0

> <PUBCHEM_HEAVY_ATOM_COUNT>
37

> <PUBCHEM_ATOM_DEF_STEREO_COUNT>
0

> <PUBCHEM_ATOM_UDEF_STEREO_COUNT>
0

> <PUBCHEM_BOND_DEF_STEREO_COUNT>
0

> <PUBCHEM_BOND_UDEF_STEREO_COUNT>
0

> <PUBCHEM_ISOTOPIC_ATOM_COUNT>
0

> <PUBCHEM_COMPONENT_COUNT>
1

> <PUBCHEM_CACTVS_TAUTO_COUNT>
-1

> <PUBCHEM_COORDINATE_TYPE>
1
5
255

> <PUBCHEM_BONDANNOTATIONS>
15  17  8
15  18  8
17  19  8
18  20  8
19  21  8
20  21  8
25  27  8
25  28  8
26  29  8
26  30  8
27  31  8
28  32  8
29  34  8
30  35  8
31  33  8
32  33  8
34  36  8
35  36  8

$$$$
