42631003
  -OEChem-09292322292D

 47 50  0     1  0  0  0  0  0999 V2000
    4.8717   -0.8197    0.0000 N   0  0  0  0  0  0  0  0  0  0  0  0
    7.0772   -2.9346    0.0000 N   0  0  3  0  0  0  0  0  0  0  0  0
    5.6808   -1.4075    0.0000 C   0  0  0  0  0  0  0  0  0  0  0  0
    5.3717   -2.3586    0.0000 C   0  0  0  0  0  0  0  0  0  0  0  0
    6.6962   -1.1752    0.0000 C   0  0  0  0  0  0  0  0  0  0  0  0
    6.0567   -3.1433    0.0000 C   0  0  0  0  0  0  0  0  0  0  0  0
    4.3717   -2.3586    0.0000 C   0  0  0  0  0  0  0  0  0  0  0  0
    7.3991   -1.9439    0.0000 C   0  0  0  0  0  0  0  0  0  0  0  0
    4.0627   -1.4075    0.0000 C   0  0  0  0  0  0  0  0  0  0  0  0
    4.8717    0.1803    0.0000 C   0  0  0  0  0  0  0  0  0  0  0  0
    3.6868   -3.1433    0.0000 C   0  0  0  0  0  0  0  0  0  0  0  0
    3.0473   -1.1752    0.0000 C   0  0  0  0  0  0  0  0  0  0  0  0
    5.7378    0.6803    0.0000 C   0  0  0  0  0  0  0  0  0  0  0  0
    7.7435   -3.6803    0.0000 C   0  0  0  0  0  0  0  0  0  0  0  0
    2.6663   -2.9346    0.0000 C   0  0  0  0  0  0  0  0  0  0  0  0
    2.3444   -1.9439    0.0000 C   0  0  0  0  0  0  0  0  0  0  0  0
    5.7378    1.6803    0.0000 C   0  0  0  0  0  0  0  0  0  0  0  0
    2.0000   -3.6803    0.0000 C   0  0  0  0  0  0  0  0  0  0  0  0
    6.6038    2.1803    0.0000 C   0  0  0  0  0  0  0  0  0  0  0  0
    4.8717    2.1803    0.0000 C   0  0  0  0  0  0  0  0  0  0  0  0
    6.6038    3.1803    0.0000 C   0  0  0  0  0  0  0  0  0  0  0  0
    4.8717    3.1803    0.0000 C   0  0  0  0  0  0  0  0  0  0  0  0
    5.7378    3.6803    0.0000 C   0  0  0  0  0  0  0  0  0  0  0  0
    7.2186   -0.8413    0.0000 H   0  0  0  0  0  0  0  0  0  0  0  0
    6.4565   -0.6034    0.0000 H   0  0  0  0  0  0  0  0  0  0  0  0
    5.5267   -3.4650    0.0000 H   0  0  0  0  0  0  0  0  0  0  0  0
    6.2830   -3.7205    0.0000 H   0  0  0  0  0  0  0  0  0  0  0  0
    7.9473   -2.2336    0.0000 H   0  0  0  0  0  0  0  0  0  0  0  0
    7.7783   -1.4534    0.0000 H   0  0  0  0  0  0  0  0  0  0  0  0
    4.6597    0.7629    0.0000 H   0  0  0  0  0  0  0  0  0  0  0  0
    4.2612    0.0726    0.0000 H   0  0  0  0  0  0  0  0  0  0  0  0
    3.8852   -3.7307    0.0000 H   0  0  0  0  0  0  0  0  0  0  0  0
    2.8626   -0.5834    0.0000 H   0  0  0  0  0  0  0  0  0  0  0  0
    5.9498    0.0977    0.0000 H   0  0  0  0  0  0  0  0  0  0  0  0
    6.3484    0.7880    0.0000 H   0  0  0  0  0  0  0  0  0  0  0  0
    7.2811   -4.0934    0.0000 H   0  0  0  0  0  0  0  0  0  0  0  0
    8.1566   -4.1426    0.0000 H   0  0  0  0  0  0  0  0  0  0  0  0
    8.2058   -3.2672    0.0000 H   0  0  0  0  0  0  0  0  0  0  0  0
    1.7384   -1.8127    0.0000 H   0  0  0  0  0  0  0  0  0  0  0  0
    1.5376   -3.2672    0.0000 H   0  0  0  0  0  0  0  0  0  0  0  0
    1.5869   -4.1426    0.0000 H   0  0  0  0  0  0  0  0  0  0  0  0
    2.4623   -4.0934    0.0000 H   0  0  0  0  0  0  0  0  0  0  0  0
    7.1407    1.8703    0.0000 H   0  0  0  0  0  0  0  0  0  0  0  0
    4.3348    1.8703    0.0000 H   0  0  0  0  0  0  0  0  0  0  0  0
    7.1407    3.4903    0.0000 H   0  0  0  0  0  0  0  0  0  0  0  0
    4.3348    3.4903    0.0000 H   0  0  0  0  0  0  0  0  0  0  0  0
    5.7378    4.3003    0.0000 H   0  0  0  0  0  0  0  0  0  0  0  0
  1  3  1  0  0  0  0
  1  9  1  0  0  0  0
  1 10  1  0  0  0  0
  2  6  1  0  0  0  0
  2  8  1  0  0  0  0
  2 14  1  0  0  0  0
  3  4  2  0  0  0  0
  3  5  1  0  0  0  0
  4  6  1  0  0  0  0
  4  7  1  0  0  0  0
  5  8  1  0  0  0  0
  5 24  1  0  0  0  0
  5 25  1  0  0  0  0
  6 26  1  0  0  0  0
  6 27  1  0  0  0  0
  7  9  2  0  0  0  0
  7 11  1  0  0  0  0
  8 28  1  0  0  0  0
  8 29  1  0  0  0  0
  9 12  1  0  0  0  0
 10 13  1  0  0  0  0
 10 30  1  0  0  0  0
 10 31  1  0  0  0  0
 11 15  2  0  0  0  0
 11 32  1  0  0  0  0
 12 16  2  0  0  0  0
 12 33  1  0  0  0  0
 13 17  1  0  0  0  0
 13 34  1  0  0  0  0
 13 35  1  0  0  0  0
 14 36  1  0  0  0  0
 14 37  1  0  0  0  0
 14 38  1  0  0  0  0
 15 16  1  0  0  0  0
 15 18  1  0  0  0  0
 16 39  1  0  0  0  0
 17 19  2  0  0  0  0
 17 20  1  0  0  0  0
 18 40  1  0  0  0  0
 18 41  1  0  0  0  0
 18 42  1  0  0  0  0
 19 21  1  0  0  0  0
 19 43  1  0  0  0  0
 20 22  2  0  0  0  0
 20 44  1  0  0  0  0
 21 23  2  0  0  0  0
 21 45  1  0  0  0  0
 22 23  1  0  0  0  0
 22 46  1  0  0  0  0
 23 47  1  0  0  0  0
M  END
> <PUBCHEM_COMPOUND_CID>
42631003

> <PUBCHEM_COMPOUND_CANONICALIZED>
1

> <PUBCHEM_CACTVS_COMPLEXITY>
389

> <PUBCHEM_CACTVS_HBOND_ACCEPTOR>
1

> <PUBCHEM_CACTVS_HBOND_DONOR>
0

> <PUBCHEM_CACTVS_ROTATABLE_BOND>
3

> <PUBCHEM_CACTVS_SUBSKEYS>
AAADceB7AAAAAAAAAAAAAAAAAAAAAWAAAAA8YIAAAAAAAFgB9AAAHAAAAAAADAjBHgQywPMMEACgAyRiRACCgCAhAiAI2CA4ZJgIIOLA0ZGEIAhggADIyAcQgMAOiAACAAACAAAQAAQAAAQAAAAAAAAAAA==

> <PUBCHEM_IUPAC_OPENEYE_NAME>
2,8-dimethyl-5-(2-phenylethyl)-3,4-dihydro-1H-pyrido[4,3-b]indole

> <PUBCHEM_IUPAC_CAS_NAME>
2,8-dimethyl-5-(2-phenylethyl)-3,4-dihydro-1H-pyrido[4,3-b]indole

> <PUBCHEM_IUPAC_NAME_MARKUP>
2,8-dimethyl-5-(2-phenylethyl)-3,4-dihydro-1<I>H</I>-pyrido[4,3-b]indole

> <PUBCHEM_IUPAC_NAME>
2,8-dimethyl-5-(2-phenylethyl)-3,4-dihydro-1H-pyrido[4,3-b]indole

> <PUBCHEM_IUPAC_SYSTEMATIC_NAME>
2,8-dimethyl-5-(2-phenylethyl)-3,4-dihydro-1H-pyrido[4,3-b]indole

> <PUBCHEM_IUPAC_TRADITIONAL_NAME>
2,8-dimethyl-5-phenethyl-3,4-dihydro-1H-pyrid[4,3-b]indole

> <PUBCHEM_IUPAC_INCHI>
InChI=1S/C21H24N2/c1-16-8-9-20-18(14-16)19-15-22(2)12-11-21(19)23(20)13-10-17-6-4-3-5-7-17/h3-9,14H,10-13,15H2,1-2H3

> <PUBCHEM_IUPAC_INCHIKEY>
IBUHDDLETPJVGP-UHFFFAOYSA-N

> <PUBCHEM_XLOGP3_AA>
4.2

> <PUBCHEM_EXACT_MASS>
304.193948774

> <PUBCHEM_MOLECULAR_FORMULA>
C21H24N2

> <PUBCHEM_MOLECULAR_WEIGHT>
304.4

> <PUBCHEM_OPENEYE_CAN_SMILES>
CC1=CC2=C(C=C1)N(C3=C2CN(CC3)C)CCC4=CC=CC=C4

> <PUBCHEM_OPENEYE_ISO_SMILES>
CC1=CC2=C(C=C1)N(C3=C2CN(CC3)C)CCC4=CC=CC=C4

> <PUBCHEM_CACTVS_TPSA>
8.2

> <PUBCHEM_MONOISOTOPIC_WEIGHT>
304.193948774

> <PUBCHEM_TOTAL_CHARGE>
0

> <PUBCHEM_HEAVY_ATOM_COUNT>
23

> <PUBCHEM_ATOM_DEF_STEREO_COUNT>
0

> <PUBCHEM_ATOM_UDEF_STEREO_COUNT>
0

> <PUBCHEM_BOND_DEF_STEREO_COUNT>
0

> <PUBCHEM_BOND_UDEF_STEREO_COUNT>
0

> <PUBCHEM_ISOTOPIC_ATOM_COUNT>
0

> <PUBCHEM_COMPONENT_COUNT>
1

> <PUBCHEM_CACTVS_TAUTO_COUNT>
-1

> <PUBCHEM_COORDINATE_TYPE>
1
5
255

> <PUBCHEM_BONDANNOTATIONS>
1  3  8
1  9  8
11  15  8
12  16  8
15  16  8
17  19  8
17  20  8
19  21  8
20  22  8
21  23  8
22  23  8
3  4  8
4  7  8
7  11  8
7  9  8
9  12  8

$$$$
