126534860
  -OEChem-09292322372D

 61 65  0     1  0  0  0  0  0999 V2000
    9.6680    3.2437    0.0000 S   0  0  0  0  0  0  0  0  0  0  0  0
    2.6420   -4.0527    0.0000 F   0  0  0  0  0  0  0  0  0  0  0  0
    2.0000   -2.7926    0.0000 F   0  0  0  0  0  0  0  0  0  0  0  0
    3.9021   -3.4106    0.0000 F   0  0  0  0  0  0  0  0  0  0  0  0
    4.1871    0.7026    0.0000 N   0  0  3  0  0  0  0  0  0  0  0  0
    6.6680    1.5116    0.0000 N   0  0  3  0  0  0  0  0  0  0  0  0
   11.2558    2.4346    0.0000 N   0  0  0  0  0  0  0  0  0  0  0  0
   11.2558    4.0527    0.0000 N   0  0  0  0  0  0  0  0  0  0  0  0
   12.2069    3.7437    0.0000 N   0  0  0  0  0  0  0  0  0  0  0  0
   14.6339    0.9803    0.0000 N   0  0  0  0  0  0  0  0  0  0  0  0
    5.1382    2.0116    0.0000 C   0  0  3  0  0  0  0  0  0  0  0  0
    5.1382    1.0116    0.0000 C   0  0  3  0  0  0  0  0  0  0  0  0
    6.0844    2.3164    0.0000 C   0  0  0  0  0  0  0  0  0  0  0  0
    4.1871    2.3206    0.0000 C   0  0  0  0  0  0  0  0  0  0  0  0
    6.0844    0.7069    0.0000 C   0  0  0  0  0  0  0  0  0  0  0  0
    3.5993    1.5116    0.0000 C   0  0  0  0  0  0  0  0  0  0  0  0
    7.6680    1.5116    0.0000 C   0  0  0  0  0  0  0  0  0  0  0  0
    3.8781   -0.2485    0.0000 C   0  0  0  0  0  0  0  0  0  0  0  0
    8.1680    2.3776    0.0000 C   0  0  0  0  0  0  0  0  0  0  0  0
    2.9000   -0.4564    0.0000 C   0  0  0  0  0  0  0  0  0  0  0  0
    4.5472   -0.9916    0.0000 C   0  0  0  0  0  0  0  0  0  0  0  0
    9.1680    2.3776    0.0000 C   0  0  0  0  0  0  0  0  0  0  0  0
    2.5909   -1.4074    0.0000 C   0  0  0  0  0  0  0  0  0  0  0  0
    4.2382   -1.9427    0.0000 C   0  0  0  0  0  0  0  0  0  0  0  0
    3.2601   -2.1506    0.0000 C   0  0  0  0  0  0  0  0  0  0  0  0
    2.9511   -3.1016    0.0000 C   0  0  0  0  0  0  0  0  0  0  0  0
   10.6680    3.2437    0.0000 C   0  0  0  0  0  0  0  0  0  0  0  0
   12.2069    2.7437    0.0000 C   0  0  0  0  0  0  0  0  0  0  0  0
   10.9468    1.4836    0.0000 C   0  0  0  0  0  0  0  0  0  0  0  0
   13.0159    2.1559    0.0000 C   0  0  0  0  0  0  0  0  0  0  0  0
   13.9294    2.5626    0.0000 C   0  0  0  0  0  0  0  0  0  0  0  0
   12.9113    1.1614    0.0000 C   0  0  0  0  0  0  0  0  0  0  0  0
   14.7384    1.9748    0.0000 C   0  0  0  0  0  0  0  0  0  0  0  0
   13.7204    0.5736    0.0000 C   0  0  0  0  0  0  0  0  0  0  0  0
    5.1390    2.6316    0.0000 H   0  0  0  0  0  0  0  0  0  0  0  0
    5.1390    0.3916    0.0000 H   0  0  0  0  0  0  0  0  0  0  0  0
    6.6218    2.6256    0.0000 H   0  0  0  0  0  0  0  0  0  0  0  0
    5.8334    2.8832    0.0000 H   0  0  0  0  0  0  0  0  0  0  0  0
    4.4393    2.8870    0.0000 H   0  0  0  0  0  0  0  0  0  0  0  0
    3.6502    2.6306    0.0000 H   0  0  0  0  0  0  0  0  0  0  0  0
    5.8334    0.1400    0.0000 H   0  0  0  0  0  0  0  0  0  0  0  0
    6.6218    0.3977    0.0000 H   0  0  0  0  0  0  0  0  0  0  0  0
    3.1386    1.9265    0.0000 H   0  0  0  0  0  0  0  0  0  0  0  0
    3.1386    1.0967    0.0000 H   0  0  0  0  0  0  0  0  0  0  0  0
    7.5604    0.9010    0.0000 H   0  0  0  0  0  0  0  0  0  0  0  0
    8.2506    1.2996    0.0000 H   0  0  0  0  0  0  0  0  0  0  0  0
    8.2757    2.9882    0.0000 H   0  0  0  0  0  0  0  0  0  0  0  0
    7.5854    2.5897    0.0000 H   0  0  0  0  0  0  0  0  0  0  0  0
    2.4851    0.0044    0.0000 H   0  0  0  0  0  0  0  0  0  0  0  0
    5.1537   -0.8627    0.0000 H   0  0  0  0  0  0  0  0  0  0  0  0
    9.0604    1.7671    0.0000 H   0  0  0  0  0  0  0  0  0  0  0  0
    9.7506    2.1656    0.0000 H   0  0  0  0  0  0  0  0  0  0  0  0
    1.9845   -1.5363    0.0000 H   0  0  0  0  0  0  0  0  0  0  0  0
    4.6531   -2.4034    0.0000 H   0  0  0  0  0  0  0  0  0  0  0  0
   10.3571    1.6752    0.0000 H   0  0  0  0  0  0  0  0  0  0  0  0
   10.7552    0.8939    0.0000 H   0  0  0  0  0  0  0  0  0  0  0  0
   11.5364    1.2920    0.0000 H   0  0  0  0  0  0  0  0  0  0  0  0
   13.9942    3.1792    0.0000 H   0  0  0  0  0  0  0  0  0  0  0  0
   12.3449    0.9092    0.0000 H   0  0  0  0  0  0  0  0  0  0  0  0
   15.3048    2.2270    0.0000 H   0  0  0  0  0  0  0  0  0  0  0  0
   13.6555   -0.0430    0.0000 H   0  0  0  0  0  0  0  0  0  0  0  0
  1 22  1  0  0  0  0
  1 27  1  0  0  0  0
  2 26  1  0  0  0  0
  3 26  1  0  0  0  0
  4 26  1  0  0  0  0
  5 12  1  0  0  0  0
  5 16  1  0  0  0  0
  5 18  1  0  0  0  0
  6 13  1  0  0  0  0
  6 15  1  0  0  0  0
  6 17  1  0  0  0  0
  7 27  1  0  0  0  0
  7 28  1  0  0  0  0
  7 29  1  0  0  0  0
  8  9  1  0  0  0  0
  8 27  2  0  0  0  0
  9 28  2  0  0  0  0
 10 33  2  0  0  0  0
 10 34  1  0  0  0  0
 11 12  1  0  0  0  0
 11 13  1  0  0  0  0
 11 14  1  0  0  0  0
 11 35  1  0  0  0  0
 12 15  1  0  0  0  0
 12 36  1  0  0  0  0
 13 37  1  0  0  0  0
 13 38  1  0  0  0  0
 14 16  1  0  0  0  0
 14 39  1  0  0  0  0
 14 40  1  0  0  0  0
 15 41  1  0  0  0  0
 15 42  1  0  0  0  0
 16 43  1  0  0  0  0
 16 44  1  0  0  0  0
 17 19  1  0  0  0  0
 17 45  1  0  0  0  0
 17 46  1  0  0  0  0
 18 20  2  0  0  0  0
 18 21  1  0  0  0  0
 19 22  1  0  0  0  0
 19 47  1  0  0  0  0
 19 48  1  0  0  0  0
 20 23  1  0  0  0  0
 20 49  1  0  0  0  0
 21 24  2  0  0  0  0
 21 50  1  0  0  0  0
 22 51  1  0  0  0  0
 22 52  1  0  0  0  0
 23 25  2  0  0  0  0
 23 53  1  0  0  0  0
 24 25  1  0  0  0  0
 24 54  1  0  0  0  0
 25 26  1  0  0  0  0
 28 30  1  0  0  0  0
 29 55  1  0  0  0  0
 29 56  1  0  0  0  0
 29 57  1  0  0  0  0
 30 31  2  0  0  0  0
 30 32  1  0  0  0  0
 31 33  1  0  0  0  0
 31 58  1  0  0  0  0
 32 34  2  0  0  0  0
 32 59  1  0  0  0  0
 33 60  1  0  0  0  0
 34 61  1  0  0  0  0
M  END
> <PUBCHEM_COMPOUND_CID>
126534860

> <PUBCHEM_COMPOUND_CANONICALIZED>
1

> <PUBCHEM_CACTVS_COMPLEXITY>
655

> <PUBCHEM_CACTVS_HBOND_ACCEPTOR>
9

> <PUBCHEM_CACTVS_HBOND_DONOR>
0

> <PUBCHEM_CACTVS_ROTATABLE_BOND>
7

> <PUBCHEM_CACTVS_SUBSKEYS>
AAADceB7gYBAAAAAAAAAAAAAAAAAAWLFgAA8QAAAAAAWAAAB8AAAHQQIAAAADSjFWxS/0JcMEAiiAjZnZACS0CtxArAd2CA4ZJiIaOLg2ZGUIAhgiALIyAcQgAAOCAAAAAAAAAAQAAAAAAAAAAAAAAAAAA==

> <PUBCHEM_IUPAC_OPENEYE_NAME>
5-[3-[[4-methyl-5-(4-pyridyl)-1,2,4-triazol-3-yl]sulfanyl]propyl]-1-[4-(trifluoromethyl)phenyl]-2,3,3a,4,6,6a-hexahydropyrrolo[2,3-c]pyrrole

> <PUBCHEM_IUPAC_CAS_NAME>
5-[3-[(4-methyl-5-pyridin-4-yl-1,2,4-triazol-3-yl)thio]propyl]-1-[4-(trifluoromethyl)phenyl]-2,3,3a,4,6,6a-hexahydropyrrolo[2,3-c]pyrrole

> <PUBCHEM_IUPAC_NAME_MARKUP>
5-[3-[(4-methyl-5-pyridin-4-yl-1,2,4-triazol-3-yl)sulfanyl]propyl]-1-[4-(trifluoromethyl)phenyl]-2,3,3<I>a</I>,4,6,6<I>a</I>-hexahydropyrrolo[2,3-c]pyrrole

> <PUBCHEM_IUPAC_NAME>
5-[3-[(4-methyl-5-pyridin-4-yl-1,2,4-triazol-3-yl)sulfanyl]propyl]-1-[4-(trifluoromethyl)phenyl]-2,3,3a,4,6,6a-hexahydropyrrolo[2,3-c]pyrrole

> <PUBCHEM_IUPAC_SYSTEMATIC_NAME>
5-[3-[(4-methyl-5-pyridin-4-yl-1,2,4-triazol-3-yl)sulfanyl]propyl]-1-[4-(trifluoromethyl)phenyl]-2,3,3a,4,6,6a-hexahydropyrrolo[2,3-c]pyrrole

> <PUBCHEM_IUPAC_TRADITIONAL_NAME>
5-[3-[[4-methyl-5-(4-pyridyl)-1,2,4-triazol-3-yl]thio]propyl]-1-[4-(trifluoromethyl)phenyl]-2,3,3a,4,6,6a-hexahydropyrrolo[2,3-c]pyrrole

> <PUBCHEM_IUPAC_INCHI>
InChI=1S/C24H27F3N6S/c1-31-22(17-7-10-28-11-8-17)29-30-23(31)34-14-2-12-32-15-18-9-13-33(21(18)16-32)20-5-3-19(4-6-20)24(25,26)27/h3-8,10-11,18,21H,2,9,12-16H2,1H3

> <PUBCHEM_IUPAC_INCHIKEY>
KFMWSHDUFMIMRO-UHFFFAOYSA-N

> <PUBCHEM_XLOGP3_AA>
4.2

> <PUBCHEM_EXACT_MASS>
488.19700055

> <PUBCHEM_MOLECULAR_FORMULA>
C24H27F3N6S

> <PUBCHEM_MOLECULAR_WEIGHT>
488.6

> <PUBCHEM_OPENEYE_CAN_SMILES>
CN1C(=NN=C1SCCCN2CC3CCN(C3C2)C4=CC=C(C=C4)C(F)(F)F)C5=CC=NC=C5

> <PUBCHEM_OPENEYE_ISO_SMILES>
CN1C(=NN=C1SCCCN2CC3CCN(C3C2)C4=CC=C(C=C4)C(F)(F)F)C5=CC=NC=C5

> <PUBCHEM_CACTVS_TPSA>
75.4

> <PUBCHEM_MONOISOTOPIC_WEIGHT>
488.19700055

> <PUBCHEM_TOTAL_CHARGE>
0

> <PUBCHEM_HEAVY_ATOM_COUNT>
34

> <PUBCHEM_ATOM_DEF_STEREO_COUNT>
0

> <PUBCHEM_ATOM_UDEF_STEREO_COUNT>
2

> <PUBCHEM_BOND_DEF_STEREO_COUNT>
0

> <PUBCHEM_BOND_UDEF_STEREO_COUNT>
0

> <PUBCHEM_ISOTOPIC_ATOM_COUNT>
0

> <PUBCHEM_COMPONENT_COUNT>
1

> <PUBCHEM_CACTVS_TAUTO_COUNT>
-1

> <PUBCHEM_COORDINATE_TYPE>
1
5
255

> <PUBCHEM_BONDANNOTATIONS>
10  33  8
10  34  8
11  14  3
12  15  3
18  20  8
18  21  8
20  23  8
21  24  8
23  25  8
24  25  8
30  31  8
30  32  8
31  33  8
32  34  8
7  27  8
7  28  8
8  27  8
8  9  8
9  28  8

$$$$
