11555265
  -OEChem-09292322492D

 66 70  0     1  0  0  0  0  0999 V2000
    7.9840   -0.7831    0.0000 S   0  0  0  0  0  0  0  0  0  0  0  0
    2.0000   -1.6452    0.0000 F   0  0  0  0  0  0  0  0  0  0  0  0
    2.2091   -3.6343    0.0000 F   0  0  0  0  0  0  0  0  0  0  0  0
   10.9840    0.9489    0.0000 N   0  0  3  0  0  0  0  0  0  0  0  0
   15.9394    2.9680    0.0000 N   0  0  0  0  0  0  0  0  0  0  0  0
   16.9167    3.1797    0.0000 N   0  0  0  0  0  0  0  0  0  0  0  0
    6.3962   -1.5921    0.0000 N   0  0  0  0  0  0  0  0  0  0  0  0
    6.3962    0.0259    0.0000 N   0  0  0  0  0  0  0  0  0  0  0  0
    5.4451   -0.2831    0.0000 N   0  0  0  0  0  0  0  0  0  0  0  0
   11.4179    1.8499    0.0000 C   0  0  0  0  0  0  0  0  0  0  0  0
   11.4179    0.0480    0.0000 C   0  0  0  0  0  0  0  0  0  0  0  0
   12.3928    2.0724    0.0000 C   0  0  0  0  0  0  0  0  0  0  0  0
   12.3928   -0.1746    0.0000 C   0  0  0  0  0  0  0  0  0  0  0  0
   13.1746    1.4489    0.0000 C   0  0  0  0  0  0  0  0  0  0  0  0
   13.1746    0.4489    0.0000 C   0  0  0  0  0  0  0  0  0  0  0  0
    9.9840    0.9489    0.0000 C   0  0  0  0  0  0  0  0  0  0  0  0
    9.4840    0.0829    0.0000 C   0  0  0  0  0  0  0  0  0  0  0  0
   14.0686    1.9836    0.0000 C   0  0  0  0  0  0  0  0  0  0  0  0
   14.0686   -0.0857    0.0000 C   0  0  0  0  0  0  0  0  0  0  0  0
   14.9746    1.4697    0.0000 C   0  0  0  0  0  0  0  0  0  0  0  0
   14.9746    0.4281    0.0000 C   0  0  0  0  0  0  0  0  0  0  0  0
    8.4840    0.0829    0.0000 C   0  0  0  0  0  0  0  0  0  0  0  0
   15.8387    1.9731    0.0000 C   0  0  0  0  0  0  0  0  0  0  0  0
   16.7538    1.5699    0.0000 C   0  0  0  0  0  0  0  0  0  0  0  0
   17.4201    2.3156    0.0000 C   0  0  0  0  0  0  0  0  0  0  0  0
   15.1937    3.6343    0.0000 C   0  0  0  0  0  0  0  0  0  0  0  0
    6.9840   -0.7831    0.0000 C   0  0  0  0  0  0  0  0  0  0  0  0
   18.4150    2.2149    0.0000 C   0  0  0  0  0  0  0  0  0  0  0  0
    5.4451   -1.2831    0.0000 C   0  0  0  0  0  0  0  0  0  0  0  0
    6.7052   -2.5432    0.0000 C   0  0  0  0  0  0  0  0  0  0  0  0
    4.6361   -1.8709    0.0000 C   0  0  0  0  0  0  0  0  0  0  0  0
    3.7226   -1.4642    0.0000 C   0  0  0  0  0  0  0  0  0  0  0  0
    4.7406   -2.8654    0.0000 C   0  0  0  0  0  0  0  0  0  0  0  0
    2.9136   -2.0520    0.0000 C   0  0  0  0  0  0  0  0  0  0  0  0
    3.9316   -3.4532    0.0000 C   0  0  0  0  0  0  0  0  0  0  0  0
    3.0181   -3.0465    0.0000 C   0  0  0  0  0  0  0  0  0  0  0  0
   11.4179    2.4699    0.0000 H   0  0  0  0  0  0  0  0  0  0  0  0
   10.8134    1.9879    0.0000 H   0  0  0  0  0  0  0  0  0  0  0  0
   10.8134   -0.0900    0.0000 H   0  0  0  0  0  0  0  0  0  0  0  0
   11.4179   -0.5720    0.0000 H   0  0  0  0  0  0  0  0  0  0  0  0
   12.8775    2.4590    0.0000 H   0  0  0  0  0  0  0  0  0  0  0  0
   12.1238    2.6310    0.0000 H   0  0  0  0  0  0  0  0  0  0  0  0
   12.1238   -0.7332    0.0000 H   0  0  0  0  0  0  0  0  0  0  0  0
   12.8775   -0.5611    0.0000 H   0  0  0  0  0  0  0  0  0  0  0  0
   10.0916    1.5595    0.0000 H   0  0  0  0  0  0  0  0  0  0  0  0
    9.4014    1.1610    0.0000 H   0  0  0  0  0  0  0  0  0  0  0  0
    9.3763   -0.5277    0.0000 H   0  0  0  0  0  0  0  0  0  0  0  0
   10.0666   -0.1291    0.0000 H   0  0  0  0  0  0  0  0  0  0  0  0
   14.0614    2.6035    0.0000 H   0  0  0  0  0  0  0  0  0  0  0  0
   14.0614   -0.7057    0.0000 H   0  0  0  0  0  0  0  0  0  0  0  0
   15.5104    0.1160    0.0000 H   0  0  0  0  0  0  0  0  0  0  0  0
    8.5916    0.6935    0.0000 H   0  0  0  0  0  0  0  0  0  0  0  0
    7.9014    0.2950    0.0000 H   0  0  0  0  0  0  0  0  0  0  0  0
   16.8851    0.9639    0.0000 H   0  0  0  0  0  0  0  0  0  0  0  0
   15.6068    4.0966    0.0000 H   0  0  0  0  0  0  0  0  0  0  0  0
   14.7313    4.0473    0.0000 H   0  0  0  0  0  0  0  0  0  0  0  0
   14.7806    3.1719    0.0000 H   0  0  0  0  0  0  0  0  0  0  0  0
   18.3526    1.5980    0.0000 H   0  0  0  0  0  0  0  0  0  0  0  0
   19.0318    2.1525    0.0000 H   0  0  0  0  0  0  0  0  0  0  0  0
   18.4774    2.8317    0.0000 H   0  0  0  0  0  0  0  0  0  0  0  0
    6.1155   -2.7348    0.0000 H   0  0  0  0  0  0  0  0  0  0  0  0
    6.8968   -3.1328    0.0000 H   0  0  0  0  0  0  0  0  0  0  0  0
    7.2948   -2.3516    0.0000 H   0  0  0  0  0  0  0  0  0  0  0  0
    3.6578   -0.8476    0.0000 H   0  0  0  0  0  0  0  0  0  0  0  0
    5.3070   -3.1176    0.0000 H   0  0  0  0  0  0  0  0  0  0  0  0
    3.9964   -4.0698    0.0000 H   0  0  0  0  0  0  0  0  0  0  0  0
  1 22  1  0  0  0  0
  1 27  1  0  0  0  0
  2 34  1  0  0  0  0
  3 36  1  0  0  0  0
  4 10  1  0  0  0  0
  4 11  1  0  0  0  0
  4 16  1  0  0  0  0
  5  6  1  0  0  0  0
  5 23  1  0  0  0  0
  5 26  1  0  0  0  0
  6 25  2  0  0  0  0
  7 27  1  0  0  0  0
  7 29  1  0  0  0  0
  7 30  1  0  0  0  0
  8  9  1  0  0  0  0
  8 27  2  0  0  0  0
  9 29  2  0  0  0  0
 10 12  1  0  0  0  0
 10 37  1  0  0  0  0
 10 38  1  0  0  0  0
 11 13  1  0  0  0  0
 11 39  1  0  0  0  0
 11 40  1  0  0  0  0
 12 14  1  0  0  0  0
 12 41  1  0  0  0  0
 12 42  1  0  0  0  0
 13 15  1  0  0  0  0
 13 43  1  0  0  0  0
 13 44  1  0  0  0  0
 14 15  2  0  0  0  0
 14 18  1  0  0  0  0
 15 19  1  0  0  0  0
 16 17  1  0  0  0  0
 16 45  1  0  0  0  0
 16 46  1  0  0  0  0
 17 22  1  0  0  0  0
 17 47  1  0  0  0  0
 17 48  1  0  0  0  0
 18 20  2  0  0  0  0
 18 49  1  0  0  0  0
 19 21  2  0  0  0  0
 19 50  1  0  0  0  0
 20 21  1  0  0  0  0
 20 23  1  0  0  0  0
 21 51  1  0  0  0  0
 22 52  1  0  0  0  0
 22 53  1  0  0  0  0
 23 24  2  0  0  0  0
 24 25  1  0  0  0  0
 24 54  1  0  0  0  0
 25 28  1  0  0  0  0
 26 55  1  0  0  0  0
 26 56  1  0  0  0  0
 26 57  1  0  0  0  0
 28 58  1  0  0  0  0
 28 59  1  0  0  0  0
 28 60  1  0  0  0  0
 29 31  1  0  0  0  0
 30 61  1  0  0  0  0
 30 62  1  0  0  0  0
 30 63  1  0  0  0  0
 31 32  2  0  0  0  0
 31 33  1  0  0  0  0
 32 34  1  0  0  0  0
 32 64  1  0  0  0  0
 33 35  2  0  0  0  0
 33 65  1  0  0  0  0
 34 36  2  0  0  0  0
 35 36  1  0  0  0  0
 35 66  1  0  0  0  0
M  END
> <PUBCHEM_COMPOUND_CID>
11555265

> <PUBCHEM_COMPOUND_CANONICALIZED>
1

> <PUBCHEM_CACTVS_COMPLEXITY>
705

> <PUBCHEM_CACTVS_HBOND_ACCEPTOR>
7

> <PUBCHEM_CACTVS_HBOND_DONOR>
0

> <PUBCHEM_CACTVS_ROTATABLE_BOND>
7

> <PUBCHEM_CACTVS_SUBSKEYS>
AAADceB7gYBAAAAAAAAAAAAAAAAAAWLAAAAwYAAABYAAAAAB9AAAHQQIAAAADAjFXwyzkJcMEAiiAyZiZACS1AthgrAd2CA4ZJiIKKLg2dGEpAhgiALIyAcQgMAOwAACAAAQAACAAAQAACAAAAAAAAAAAA==

> <PUBCHEM_IUPAC_OPENEYE_NAME>
3-[3-[[5-(3,4-difluorophenyl)-4-methyl-1,2,4-triazol-3-yl]sulfanyl]propyl]-7-(2,5-dimethylpyrazol-3-yl)-1,2,4,5-tetrahydro-3-benzazepine

> <PUBCHEM_IUPAC_CAS_NAME>
3-[3-[[5-(3,4-difluorophenyl)-4-methyl-1,2,4-triazol-3-yl]thio]propyl]-7-(2,5-dimethyl-3-pyrazolyl)-1,2,4,5-tetrahydro-3-benzazepine

> <PUBCHEM_IUPAC_NAME_MARKUP>
3-[3-[[5-(3,4-difluorophenyl)-4-methyl-1,2,4-triazol-3-yl]sulfanyl]propyl]-7-(2,5-dimethylpyrazol-3-yl)-1,2,4,5-tetrahydro-3-benzazepine

> <PUBCHEM_IUPAC_NAME>
3-[3-[[5-(3,4-difluorophenyl)-4-methyl-1,2,4-triazol-3-yl]sulfanyl]propyl]-7-(2,5-dimethylpyrazol-3-yl)-1,2,4,5-tetrahydro-3-benzazepine

> <PUBCHEM_IUPAC_SYSTEMATIC_NAME>
3-[3-[[5-[3,4-bis(fluoranyl)phenyl]-4-methyl-1,2,4-triazol-3-yl]sulfanyl]propyl]-7-(2,5-dimethylpyrazol-3-yl)-1,2,4,5-tetrahydro-3-benzazepine

> <PUBCHEM_IUPAC_TRADITIONAL_NAME>
3-[3-[[5-(3,4-difluorophenyl)-4-methyl-1,2,4-triazol-3-yl]thio]propyl]-7-(2,5-dimethylpyrazol-3-yl)-1,2,4,5-tetrahydro-3-benzazepine

> <PUBCHEM_IUPAC_INCHI>
InChI=1S/C27H30F2N6S/c1-18-15-25(34(3)32-18)21-6-5-19-9-12-35(13-10-20(19)16-21)11-4-14-36-27-31-30-26(33(27)2)22-7-8-23(28)24(29)17-22/h5-8,15-17H,4,9-14H2,1-3H3

> <PUBCHEM_IUPAC_INCHIKEY>
KEOZDNQHXGUGES-UHFFFAOYSA-N

> <PUBCHEM_XLOGP3_AA>
4.9

> <PUBCHEM_EXACT_MASS>
508.22207248

> <PUBCHEM_MOLECULAR_FORMULA>
C27H30F2N6S

> <PUBCHEM_MOLECULAR_WEIGHT>
508.6

> <PUBCHEM_OPENEYE_CAN_SMILES>
CC1=NN(C(=C1)C2=CC3=C(CCN(CC3)CCCSC4=NN=C(N4C)C5=CC(=C(C=C5)F)F)C=C2)C

> <PUBCHEM_OPENEYE_ISO_SMILES>
CC1=NN(C(=C1)C2=CC3=C(CCN(CC3)CCCSC4=NN=C(N4C)C5=CC(=C(C=C5)F)F)C=C2)C

> <PUBCHEM_CACTVS_TPSA>
77.1

> <PUBCHEM_MONOISOTOPIC_WEIGHT>
508.22207248

> <PUBCHEM_TOTAL_CHARGE>
0

> <PUBCHEM_HEAVY_ATOM_COUNT>
36

> <PUBCHEM_ATOM_DEF_STEREO_COUNT>
0

> <PUBCHEM_ATOM_UDEF_STEREO_COUNT>
0

> <PUBCHEM_BOND_DEF_STEREO_COUNT>
0

> <PUBCHEM_BOND_UDEF_STEREO_COUNT>
0

> <PUBCHEM_ISOTOPIC_ATOM_COUNT>
0

> <PUBCHEM_COMPONENT_COUNT>
1

> <PUBCHEM_CACTVS_TAUTO_COUNT>
-1

> <PUBCHEM_COORDINATE_TYPE>
1
5
255

> <PUBCHEM_BONDANNOTATIONS>
14  15  8
14  18  8
15  19  8
18  20  8
19  21  8
20  21  8
23  24  8
24  25  8
31  32  8
31  33  8
32  34  8
33  35  8
34  36  8
35  36  8
5  23  8
5  6  8
6  25  8
7  27  8
7  29  8
8  27  8
8  9  8
9  29  8

$$$$
