60165535
  -OEChem-09292322322D

 45 48  0     1  0  0  0  0  0999 V2000
   10.7700    0.4198    0.0000 S   0  0  0  0  0  0  0  0  0  0  0  0
    5.5321    0.5146    0.0000 N   0  0  3  0  0  0  0  0  0  0  0  0
    9.9652   -0.9741    0.0000 N   0  0  0  0  0  0  0  0  0  0  0  0
    5.5321    1.5146    0.0000 C   0  0  0  0  0  0  0  0  0  0  0  0
    4.6660    0.0146    0.0000 C   0  0  0  0  0  0  0  0  0  0  0  0
    6.3981    0.0146    0.0000 C   0  0  0  0  0  0  0  0  0  0  0  0
    4.6660    2.0146    0.0000 C   0  0  0  0  0  0  0  0  0  0  0  0
    3.8000    0.5146    0.0000 C   0  0  0  0  0  0  0  0  0  0  0  0
    3.8000    1.5146    0.0000 C   0  0  0  0  0  0  0  0  0  0  0  0
    7.2641    0.5146    0.0000 C   0  0  0  0  0  0  0  0  0  0  0  0
    8.1301    0.0146    0.0000 C   0  0  0  0  0  0  0  0  0  0  0  0
    8.9962    0.5146    0.0000 C   0  0  0  0  0  0  0  0  0  0  0  0
    2.9061   -0.0200    0.0000 C   0  0  0  0  0  0  0  0  0  0  0  0
    2.9061    2.0493    0.0000 C   0  0  0  0  0  0  0  0  0  0  0  0
    2.0000    0.4938    0.0000 C   0  0  0  0  0  0  0  0  0  0  0  0
    2.0000    1.5355    0.0000 C   0  0  0  0  0  0  0  0  0  0  0  0
    9.8622    0.0146    0.0000 C   0  0  0  0  0  0  0  0  0  0  0  0
   11.4371   -0.3173    0.0000 C   0  0  0  0  0  0  0  0  0  0  0  0
   10.9371   -1.1833    0.0000 C   0  0  0  0  0  0  0  0  0  0  0  0
   12.4371   -0.3173    0.0000 C   0  0  0  0  0  0  0  0  0  0  0  0
   11.4371   -2.0493    0.0000 C   0  0  0  0  0  0  0  0  0  0  0  0
   12.9371   -1.1833    0.0000 C   0  0  0  0  0  0  0  0  0  0  0  0
   12.4371   -2.0493    0.0000 C   0  0  0  0  0  0  0  0  0  0  0  0
    6.1426    1.4070    0.0000 H   0  0  0  0  0  0  0  0  0  0  0  0
    5.7441    2.0972    0.0000 H   0  0  0  0  0  0  0  0  0  0  0  0
    4.2675   -0.4603    0.0000 H   0  0  0  0  0  0  0  0  0  0  0  0
    5.0646   -0.4603    0.0000 H   0  0  0  0  0  0  0  0  0  0  0  0
    5.9996   -0.4603    0.0000 H   0  0  0  0  0  0  0  0  0  0  0  0
    6.7966   -0.4603    0.0000 H   0  0  0  0  0  0  0  0  0  0  0  0
    5.0646    2.4896    0.0000 H   0  0  0  0  0  0  0  0  0  0  0  0
    4.2675    2.4896    0.0000 H   0  0  0  0  0  0  0  0  0  0  0  0
    7.6626    0.9896    0.0000 H   0  0  0  0  0  0  0  0  0  0  0  0
    6.8656    0.9896    0.0000 H   0  0  0  0  0  0  0  0  0  0  0  0
    7.7316   -0.4603    0.0000 H   0  0  0  0  0  0  0  0  0  0  0  0
    8.5287   -0.4603    0.0000 H   0  0  0  0  0  0  0  0  0  0  0  0
    9.3947    0.9896    0.0000 H   0  0  0  0  0  0  0  0  0  0  0  0
    8.5976    0.9896    0.0000 H   0  0  0  0  0  0  0  0  0  0  0  0
    2.9132   -0.6400    0.0000 H   0  0  0  0  0  0  0  0  0  0  0  0
    2.9132    2.6693    0.0000 H   0  0  0  0  0  0  0  0  0  0  0  0
    1.4643    0.1818    0.0000 H   0  0  0  0  0  0  0  0  0  0  0  0
    1.4643    1.8475    0.0000 H   0  0  0  0  0  0  0  0  0  0  0  0
   12.7471    0.2197    0.0000 H   0  0  0  0  0  0  0  0  0  0  0  0
   11.1271   -2.5862    0.0000 H   0  0  0  0  0  0  0  0  0  0  0  0
   13.5571   -1.1833    0.0000 H   0  0  0  0  0  0  0  0  0  0  0  0
   12.7471   -2.5862    0.0000 H   0  0  0  0  0  0  0  0  0  0  0  0
  1 17  1  0  0  0  0
  1 18  1  0  0  0  0
  2  4  1  0  0  0  0
  2  5  1  0  0  0  0
  2  6  1  0  0  0  0
  3 17  2  0  0  0  0
  3 19  1  0  0  0  0
  4  7  1  0  0  0  0
  4 24  1  0  0  0  0
  4 25  1  0  0  0  0
  5  8  1  0  0  0  0
  5 26  1  0  0  0  0
  5 27  1  0  0  0  0
  6 10  1  0  0  0  0
  6 28  1  0  0  0  0
  6 29  1  0  0  0  0
  7  9  1  0  0  0  0
  7 30  1  0  0  0  0
  7 31  1  0  0  0  0
  8  9  1  0  0  0  0
  8 13  2  0  0  0  0
  9 14  2  0  0  0  0
 10 11  1  0  0  0  0
 10 32  1  0  0  0  0
 10 33  1  0  0  0  0
 11 12  1  0  0  0  0
 11 34  1  0  0  0  0
 11 35  1  0  0  0  0
 12 17  1  0  0  0  0
 12 36  1  0  0  0  0
 12 37  1  0  0  0  0
 13 15  1  0  0  0  0
 13 38  1  0  0  0  0
 14 16  1  0  0  0  0
 14 39  1  0  0  0  0
 15 16  2  0  0  0  0
 15 40  1  0  0  0  0
 16 41  1  0  0  0  0
 18 19  1  0  0  0  0
 18 20  2  0  0  0  0
 19 21  2  0  0  0  0
 20 22  1  0  0  0  0
 20 42  1  0  0  0  0
 21 23  1  0  0  0  0
 21 43  1  0  0  0  0
 22 23  2  0  0  0  0
 22 44  1  0  0  0  0
 23 45  1  0  0  0  0
M  END
> <PUBCHEM_COMPOUND_CID>
60165535

> <PUBCHEM_COMPOUND_CANONICALIZED>
1

> <PUBCHEM_CACTVS_COMPLEXITY>
375

> <PUBCHEM_CACTVS_HBOND_ACCEPTOR>
3

> <PUBCHEM_CACTVS_HBOND_DONOR>
0

> <PUBCHEM_CACTVS_ROTATABLE_BOND>
5

> <PUBCHEM_CACTVS_SUBSKEYS>
AAADceB7AABAAAAAAAAAAAAAAAAAAWAAAAA8YIAAAAAAAFix9AAAHAQAAAAADAjBXgQwwbMIEAikAyRiRACD8KBhCjhImDw4ZJgIIKLgkZGEIAhggADoyAcQgIAOgAAAAAAQAQAAAAAAACACAAAAAAAAAA==

> <PUBCHEM_IUPAC_OPENEYE_NAME>
2-[4-(3,4-dihydro-1H-isoquinolin-2-yl)butyl]-1,3-benzothiazole

> <PUBCHEM_IUPAC_CAS_NAME>
2-[4-(3,4-dihydro-1H-isoquinolin-2-yl)butyl]-1,3-benzothiazole

> <PUBCHEM_IUPAC_NAME_MARKUP>
2-[4-(3,4-dihydro-1<I>H</I>-isoquinolin-2-yl)butyl]-1,3-benzothiazole

> <PUBCHEM_IUPAC_NAME>
2-[4-(3,4-dihydro-1H-isoquinolin-2-yl)butyl]-1,3-benzothiazole

> <PUBCHEM_IUPAC_SYSTEMATIC_NAME>
2-[4-(3,4-dihydro-1H-isoquinolin-2-yl)butyl]-1,3-benzothiazole

> <PUBCHEM_IUPAC_TRADITIONAL_NAME>
2-[4-(3,4-dihydro-1H-isoquinolin-2-yl)butyl]-1,3-benzothiazole

> <PUBCHEM_IUPAC_INCHI>
InChI=1S/C20H22N2S/c1-2-8-17-15-22(14-12-16(17)7-1)13-6-5-11-20-21-18-9-3-4-10-19(18)23-20/h1-4,7-10H,5-6,11-15H2

> <PUBCHEM_IUPAC_INCHIKEY>
RUTFYETZGMCUGV-UHFFFAOYSA-N

> <PUBCHEM_XLOGP3_AA>
5

> <PUBCHEM_EXACT_MASS>
322.15036988

> <PUBCHEM_MOLECULAR_FORMULA>
C20H22N2S

> <PUBCHEM_MOLECULAR_WEIGHT>
322.5

> <PUBCHEM_OPENEYE_CAN_SMILES>
C1CN(CC2=CC=CC=C21)CCCCC3=NC4=CC=CC=C4S3

> <PUBCHEM_OPENEYE_ISO_SMILES>
C1CN(CC2=CC=CC=C21)CCCCC3=NC4=CC=CC=C4S3

> <PUBCHEM_CACTVS_TPSA>
44.4

> <PUBCHEM_MONOISOTOPIC_WEIGHT>
322.15036988

> <PUBCHEM_TOTAL_CHARGE>
0

> <PUBCHEM_HEAVY_ATOM_COUNT>
23

> <PUBCHEM_ATOM_DEF_STEREO_COUNT>
0

> <PUBCHEM_ATOM_UDEF_STEREO_COUNT>
0

> <PUBCHEM_BOND_DEF_STEREO_COUNT>
0

> <PUBCHEM_BOND_UDEF_STEREO_COUNT>
0

> <PUBCHEM_ISOTOPIC_ATOM_COUNT>
0

> <PUBCHEM_COMPONENT_COUNT>
1

> <PUBCHEM_CACTVS_TAUTO_COUNT>
-1

> <PUBCHEM_COORDINATE_TYPE>
1
5
255

> <PUBCHEM_BONDANNOTATIONS>
1  17  8
1  18  8
13  15  8
14  16  8
15  16  8
18  19  8
18  20  8
19  21  8
20  22  8
21  23  8
22  23  8
3  17  8
3  19  8
8  13  8
8  9  8
9  14  8

$$$$
