137640371
  -OEChem-09292322002D

 62 65  0     1  0  0  0  0  0999 V2000
   14.6440   -2.7176    0.0000 O   0  0  0  0  0  0  0  0  0  0  0  0
    6.8335   -0.1830    0.0000 O   0  0  0  0  0  0  0  0  0  0  0  0
    2.0000    2.7785    0.0000 O   0  0  0  0  0  0  0  0  0  0  0  0
   11.1636    0.3170    0.0000 N   0  0  3  0  0  0  0  0  0  0  0  0
    4.2354    0.3170    0.0000 N   0  0  0  0  0  0  0  0  0  0  0  0
    3.2892    0.0123    0.0000 N   0  0  0  0  0  0  0  0  0  0  0  0
   12.0296   -0.1830    0.0000 C   0  0  1  0  0  0  0  0  0  0  0  0
   12.0296   -1.1830    0.0000 C   0  0  0  0  0  0  0  0  0  0  0  0
   12.8956    0.3170    0.0000 C   0  0  0  0  0  0  0  0  0  0  0  0
   12.8956   -1.6830    0.0000 C   0  0  0  0  0  0  0  0  0  0  0  0
   13.7617   -0.1830    0.0000 C   0  0  0  0  0  0  0  0  0  0  0  0
   13.7617   -1.1830    0.0000 C   0  0  0  0  0  0  0  0  0  0  0  0
   10.2976   -0.1830    0.0000 C   0  0  0  0  0  0  0  0  0  0  0  0
   11.1636    1.3170    0.0000 C   0  0  0  0  0  0  0  0  0  0  0  0
    9.4315    0.3170    0.0000 C   0  0  0  0  0  0  0  0  0  0  0  0
   10.2976    1.8170    0.0000 C   0  0  0  0  0  0  0  0  0  0  0  0
   14.6556    0.3517    0.0000 C   0  0  0  0  0  0  0  0  0  0  0  0
   14.6556   -1.7176    0.0000 C   0  0  0  0  0  0  0  0  0  0  0  0
    8.5655   -0.1830    0.0000 C   0  0  0  0  0  0  0  0  0  0  0  0
   15.5617   -0.1622    0.0000 C   0  0  0  0  0  0  0  0  0  0  0  0
   15.5617   -1.2038    0.0000 C   0  0  0  0  0  0  0  0  0  0  0  0
   10.2976    2.8170    0.0000 C   0  0  0  0  0  0  0  0  0  0  0  0
    7.6995    0.3170    0.0000 C   0  0  0  0  0  0  0  0  0  0  0  0
    5.9674    0.3170    0.0000 C   0  0  0  0  0  0  0  0  0  0  0  0
    5.1014   -0.1830    0.0000 C   0  0  0  0  0  0  0  0  0  0  0  0
    5.9674    1.3170    0.0000 C   0  0  0  0  0  0  0  0  0  0  0  0
    4.2354    1.3170    0.0000 C   0  0  0  0  0  0  0  0  0  0  0  0
    5.1014    1.8170    0.0000 C   0  0  0  0  0  0  0  0  0  0  0  0
    3.2892    1.6218    0.0000 C   0  0  0  0  0  0  0  0  0  0  0  0
    2.7056    0.8170    0.0000 C   0  0  0  0  0  0  0  0  0  0  0  0
    2.9785    2.5723    0.0000 C   0  0  0  0  0  0  0  0  0  0  0  0
   11.4927   -0.4930    0.0000 H   0  0  0  0  0  0  0  0  0  0  0  0
   11.4190   -1.0753    0.0000 H   0  0  0  0  0  0  0  0  0  0  0  0
   11.8176   -1.7656    0.0000 H   0  0  0  0  0  0  0  0  0  0  0  0
   13.2942    0.7920    0.0000 H   0  0  0  0  0  0  0  0  0  0  0  0
   12.4971    0.7920    0.0000 H   0  0  0  0  0  0  0  0  0  0  0  0
   12.4971   -2.1579    0.0000 H   0  0  0  0  0  0  0  0  0  0  0  0
   13.2942   -2.1579    0.0000 H   0  0  0  0  0  0  0  0  0  0  0  0
    9.8990   -0.6579    0.0000 H   0  0  0  0  0  0  0  0  0  0  0  0
   10.6961   -0.6579    0.0000 H   0  0  0  0  0  0  0  0  0  0  0  0
   11.7742    1.2094    0.0000 H   0  0  0  0  0  0  0  0  0  0  0  0
   11.3756    1.8996    0.0000 H   0  0  0  0  0  0  0  0  0  0  0  0
    9.8301    0.7920    0.0000 H   0  0  0  0  0  0  0  0  0  0  0  0
    9.0330    0.7920    0.0000 H   0  0  0  0  0  0  0  0  0  0  0  0
    9.6870    1.9247    0.0000 H   0  0  0  0  0  0  0  0  0  0  0  0
   10.0855    1.2344    0.0000 H   0  0  0  0  0  0  0  0  0  0  0  0
   14.6484    0.9717    0.0000 H   0  0  0  0  0  0  0  0  0  0  0  0
    8.1670   -0.6579    0.0000 H   0  0  0  0  0  0  0  0  0  0  0  0
    8.9640   -0.6579    0.0000 H   0  0  0  0  0  0  0  0  0  0  0  0
   16.0974    0.1499    0.0000 H   0  0  0  0  0  0  0  0  0  0  0  0
   16.0974   -1.5158    0.0000 H   0  0  0  0  0  0  0  0  0  0  0  0
   10.9176    2.8170    0.0000 H   0  0  0  0  0  0  0  0  0  0  0  0
   10.2976    3.4370    0.0000 H   0  0  0  0  0  0  0  0  0  0  0  0
    9.6776    2.8170    0.0000 H   0  0  0  0  0  0  0  0  0  0  0  0
    8.0980    0.7920    0.0000 H   0  0  0  0  0  0  0  0  0  0  0  0
    7.3010    0.7920    0.0000 H   0  0  0  0  0  0  0  0  0  0  0  0
   15.1774   -3.0338    0.0000 H   0  0  0  0  0  0  0  0  0  0  0  0
    5.1014   -0.8030    0.0000 H   0  0  0  0  0  0  0  0  0  0  0  0
    6.5044    1.6270    0.0000 H   0  0  0  0  0  0  0  0  0  0  0  0
    5.1014    2.4370    0.0000 H   0  0  0  0  0  0  0  0  0  0  0  0
    2.0856    0.8170    0.0000 H   0  0  0  0  0  0  0  0  0  0  0  0
    3.3926    3.0338    0.0000 H   0  0  0  0  0  0  0  0  0  0  0  0
  1 18  1  0  0  0  0
  1 57  1  0  0  0  0
  2 23  1  0  0  0  0
  2 24  1  0  0  0  0
  3 31  2  0  0  0  0
  7  4  1  6  0  0  0
  4 13  1  0  0  0  0
  4 14  1  0  0  0  0
  5  6  1  0  0  0  0
  5 25  1  0  0  0  0
  5 27  1  0  0  0  0
  6 30  2  0  0  0  0
  7  8  1  0  0  0  0
  7  9  1  0  0  0  0
  7 32  1  0  0  0  0
  8 10  1  0  0  0  0
  8 33  1  0  0  0  0
  8 34  1  0  0  0  0
  9 11  1  0  0  0  0
  9 35  1  0  0  0  0
  9 36  1  0  0  0  0
 10 12  1  0  0  0  0
 10 37  1  0  0  0  0
 10 38  1  0  0  0  0
 11 12  2  0  0  0  0
 11 17  1  0  0  0  0
 12 18  1  0  0  0  0
 13 15  1  0  0  0  0
 13 39  1  0  0  0  0
 13 40  1  0  0  0  0
 14 16  1  0  0  0  0
 14 41  1  0  0  0  0
 14 42  1  0  0  0  0
 15 19  1  0  0  0  0
 15 43  1  0  0  0  0
 15 44  1  0  0  0  0
 16 22  1  0  0  0  0
 16 45  1  0  0  0  0
 16 46  1  0  0  0  0
 17 20  2  0  0  0  0
 17 47  1  0  0  0  0
 18 21  2  0  0  0  0
 19 23  1  0  0  0  0
 19 48  1  0  0  0  0
 19 49  1  0  0  0  0
 20 21  1  0  0  0  0
 20 50  1  0  0  0  0
 21 51  1  0  0  0  0
 22 52  1  0  0  0  0
 22 53  1  0  0  0  0
 22 54  1  0  0  0  0
 23 55  1  0  0  0  0
 23 56  1  0  0  0  0
 24 25  2  0  0  0  0
 24 26  1  0  0  0  0
 25 58  1  0  0  0  0
 26 28  2  0  0  0  0
 26 59  1  0  0  0  0
 27 28  1  0  0  0  0
 27 29  2  0  0  0  0
 28 60  1  0  0  0  0
 29 30  1  0  0  0  0
 29 31  1  0  0  0  0
 30 61  1  0  0  0  0
 31 62  1  0  0  0  0
M  END
> <PUBCHEM_COMPOUND_CID>
137640371

> <PUBCHEM_COMPOUND_CANONICALIZED>
1

> <PUBCHEM_CACTVS_COMPLEXITY>
562

> <PUBCHEM_CACTVS_HBOND_ACCEPTOR>
5

> <PUBCHEM_CACTVS_HBOND_DONOR>
1

> <PUBCHEM_CACTVS_ROTATABLE_BOND>
10

> <PUBCHEM_CACTVS_SUBSKEYS>
AAADceB7MAAAAAAAAAAAAAAAAAAAAWAAAAA8YIAAAAAAAFjB8AAAHgAICAAADCzhngY+xrMIFgCqAzx3xASSjCA14iAY2CE/bNgOJvrG9duH/ajkyBHY+ce42POOgAABAAAYAAAQAAKAADAAAAAAAAAAAA==

> <PUBCHEM_IUPAC_OPENEYE_NAME>
6-[4-[[(2S)-5-hydroxytetralin-2-yl]-propyl-amino]butoxy]pyrazolo[1,5-a]pyridine-3-carbaldehyde

> <PUBCHEM_IUPAC_CAS_NAME>
6-[4-[[(2S)-5-hydroxy-1,2,3,4-tetrahydronaphthalen-2-yl]-propylamino]butoxy]-3-pyrazolo[1,5-a]pyridinecarboxaldehyde

> <PUBCHEM_IUPAC_NAME_MARKUP>
6-[4-[[(2<I>S</I>)-5-hydroxy-1,2,3,4-tetrahydronaphthalen-2-yl]-propylamino]butoxy]pyrazolo[1,5-a]pyridine-3-carbaldehyde

> <PUBCHEM_IUPAC_NAME>
6-[4-[[(2S)-5-hydroxy-1,2,3,4-tetrahydronaphthalen-2-yl]-propylamino]butoxy]pyrazolo[1,5-a]pyridine-3-carbaldehyde

> <PUBCHEM_IUPAC_SYSTEMATIC_NAME>
6-[4-[[(2S)-5-oxidanyl-1,2,3,4-tetrahydronaphthalen-2-yl]-propyl-amino]butoxy]pyrazolo[1,5-a]pyridine-3-carbaldehyde

> <PUBCHEM_IUPAC_TRADITIONAL_NAME>
6-[4-[[(2S)-5-hydroxytetralin-2-yl]-propyl-amino]butoxy]pyrazolo[1,5-a]pyridine-3-carbaldehyde

> <PUBCHEM_IUPAC_INCHI>
InChI=1S/C25H31N3O3/c1-2-12-27(21-8-10-23-19(15-21)6-5-7-25(23)30)13-3-4-14-31-22-9-11-24-20(18-29)16-26-28(24)17-22/h5-7,9,11,16-18,21,30H,2-4,8,10,12-15H2,1H3/t21-/m0/s1

> <PUBCHEM_IUPAC_INCHIKEY>
NWVXCTHMKYPUKK-NRFANRHFSA-N

> <PUBCHEM_XLOGP3_AA>
4.2

> <PUBCHEM_EXACT_MASS>
421.23654186

> <PUBCHEM_MOLECULAR_FORMULA>
C25H31N3O3

> <PUBCHEM_MOLECULAR_WEIGHT>
421.5

> <PUBCHEM_OPENEYE_CAN_SMILES>
CCCN(CCCCOC1=CN2C(=C(C=N2)C=O)C=C1)C3CCC4=C(C3)C=CC=C4O

> <PUBCHEM_OPENEYE_ISO_SMILES>
CCCN(CCCCOC1=CN2C(=C(C=N2)C=O)C=C1)[C@H]3CCC4=C(C3)C=CC=C4O

> <PUBCHEM_CACTVS_TPSA>
67.1

> <PUBCHEM_MONOISOTOPIC_WEIGHT>
421.23654186

> <PUBCHEM_TOTAL_CHARGE>
0

> <PUBCHEM_HEAVY_ATOM_COUNT>
31

> <PUBCHEM_ATOM_DEF_STEREO_COUNT>
1

> <PUBCHEM_ATOM_UDEF_STEREO_COUNT>
0

> <PUBCHEM_BOND_DEF_STEREO_COUNT>
0

> <PUBCHEM_BOND_UDEF_STEREO_COUNT>
0

> <PUBCHEM_ISOTOPIC_ATOM_COUNT>
0

> <PUBCHEM_COMPONENT_COUNT>
1

> <PUBCHEM_CACTVS_TAUTO_COUNT>
-1

> <PUBCHEM_COORDINATE_TYPE>
1
5
255

> <PUBCHEM_BONDANNOTATIONS>
11  12  8
11  17  8
12  18  8
17  20  8
18  21  8
20  21  8
24  25  8
24  26  8
26  28  8
27  28  8
27  29  8
29  30  8
7  4  6
5  25  8
5  27  8
5  6  8
6  30  8

$$$$
