127031949
  -OEChem-09292322472D

 46 47  0     1  0  0  0  0  0999 V2000
   10.3312    0.5000    0.0000 O   0  0  0  0  0  0  0  0  0  0  0  0
    4.2690    2.0000    0.0000 O   0  0  0  0  0  0  0  0  0  0  0  0
   12.0632   -0.5000    0.0000 O   0  0  0  0  0  0  0  0  0  0  0  0
    2.5369    1.0000    0.0000 O   0  0  0  0  0  0  0  0  0  0  0  0
    7.7331   -1.0000    0.0000 N   0  0  3  0  0  0  0  0  0  0  0  0
    6.8671   -0.5000    0.0000 C   0  0  0  0  0  0  0  0  0  0  0  0
    6.0010   -1.0000    0.0000 C   0  0  0  0  0  0  0  0  0  0  0  0
    8.5991   -0.5000    0.0000 C   0  0  0  0  0  0  0  0  0  0  0  0
    9.4651   -1.0000    0.0000 C   0  0  0  0  0  0  0  0  0  0  0  0
    5.1350   -0.5000    0.0000 C   0  0  0  0  0  0  0  0  0  0  0  0
    7.7331   -2.0000    0.0000 C   0  0  0  0  0  0  0  0  0  0  0  0
   10.3312   -0.5000    0.0000 C   0  0  0  0  0  0  0  0  0  0  0  0
    5.1350    0.5000    0.0000 C   0  0  0  0  0  0  0  0  0  0  0  0
    9.4651   -2.0000    0.0000 C   0  0  0  0  0  0  0  0  0  0  0  0
    4.2690   -1.0000    0.0000 C   0  0  0  0  0  0  0  0  0  0  0  0
    4.2690    1.0000    0.0000 C   0  0  0  0  0  0  0  0  0  0  0  0
   11.1972   -1.0000    0.0000 C   0  0  0  0  0  0  0  0  0  0  0  0
    3.4030   -0.5000    0.0000 C   0  0  0  0  0  0  0  0  0  0  0  0
   10.3312   -2.5000    0.0000 C   0  0  0  0  0  0  0  0  0  0  0  0
    3.4030    0.5000    0.0000 C   0  0  0  0  0  0  0  0  0  0  0  0
   11.1972   -2.0000    0.0000 C   0  0  0  0  0  0  0  0  0  0  0  0
   11.1972    1.0000    0.0000 C   0  0  0  0  0  0  0  0  0  0  0  0
    5.1350    2.5000    0.0000 C   0  0  0  0  0  0  0  0  0  0  0  0
    7.2656   -0.0251    0.0000 H   0  0  0  0  0  0  0  0  0  0  0  0
    6.4685   -0.0251    0.0000 H   0  0  0  0  0  0  0  0  0  0  0  0
    5.6025   -1.4750    0.0000 H   0  0  0  0  0  0  0  0  0  0  0  0
    6.3996   -1.4750    0.0000 H   0  0  0  0  0  0  0  0  0  0  0  0
    8.9976   -0.0251    0.0000 H   0  0  0  0  0  0  0  0  0  0  0  0
    8.2006   -0.0251    0.0000 H   0  0  0  0  0  0  0  0  0  0  0  0
    7.1131   -2.0000    0.0000 H   0  0  0  0  0  0  0  0  0  0  0  0
    7.7331   -2.6200    0.0000 H   0  0  0  0  0  0  0  0  0  0  0  0
    8.3531   -2.0000    0.0000 H   0  0  0  0  0  0  0  0  0  0  0  0
    5.6720    0.8100    0.0000 H   0  0  0  0  0  0  0  0  0  0  0  0
    8.9282   -2.3100    0.0000 H   0  0  0  0  0  0  0  0  0  0  0  0
    4.2690   -1.6200    0.0000 H   0  0  0  0  0  0  0  0  0  0  0  0
    2.8660   -0.8100    0.0000 H   0  0  0  0  0  0  0  0  0  0  0  0
   10.3312   -3.1200    0.0000 H   0  0  0  0  0  0  0  0  0  0  0  0
   11.7341   -2.3100    0.0000 H   0  0  0  0  0  0  0  0  0  0  0  0
   11.5072    0.4631    0.0000 H   0  0  0  0  0  0  0  0  0  0  0  0
   11.7341    1.3100    0.0000 H   0  0  0  0  0  0  0  0  0  0  0  0
   10.8872    1.5369    0.0000 H   0  0  0  0  0  0  0  0  0  0  0  0
   12.6002   -0.8100    0.0000 H   0  0  0  0  0  0  0  0  0  0  0  0
    2.0000    0.6900    0.0000 H   0  0  0  0  0  0  0  0  0  0  0  0
    5.4450    1.9631    0.0000 H   0  0  0  0  0  0  0  0  0  0  0  0
    5.6720    2.8100    0.0000 H   0  0  0  0  0  0  0  0  0  0  0  0
    4.8250    3.0369    0.0000 H   0  0  0  0  0  0  0  0  0  0  0  0
  1 12  1  0  0  0  0
  1 22  1  0  0  0  0
  2 16  1  0  0  0  0
  2 23  1  0  0  0  0
  3 17  1  0  0  0  0
  3 42  1  0  0  0  0
  4 20  1  0  0  0  0
  4 43  1  0  0  0  0
  5  6  1  0  0  0  0
  5  8  1  0  0  0  0
  5 11  1  0  0  0  0
  6  7  1  0  0  0  0
  6 24  1  0  0  0  0
  6 25  1  0  0  0  0
  7 10  1  0  0  0  0
  7 26  1  0  0  0  0
  7 27  1  0  0  0  0
  8  9  1  0  0  0  0
  8 28  1  0  0  0  0
  8 29  1  0  0  0  0
  9 12  2  0  0  0  0
  9 14  1  0  0  0  0
 10 13  2  0  0  0  0
 10 15  1  0  0  0  0
 11 30  1  0  0  0  0
 11 31  1  0  0  0  0
 11 32  1  0  0  0  0
 12 17  1  0  0  0  0
 13 16  1  0  0  0  0
 13 33  1  0  0  0  0
 14 19  2  0  0  0  0
 14 34  1  0  0  0  0
 15 18  2  0  0  0  0
 15 35  1  0  0  0  0
 16 20  2  0  0  0  0
 17 21  2  0  0  0  0
 18 20  1  0  0  0  0
 18 36  1  0  0  0  0
 19 21  1  0  0  0  0
 19 37  1  0  0  0  0
 21 38  1  0  0  0  0
 22 39  1  0  0  0  0
 22 40  1  0  0  0  0
 22 41  1  0  0  0  0
 23 44  1  0  0  0  0
 23 45  1  0  0  0  0
 23 46  1  0  0  0  0
M  END
> <PUBCHEM_COMPOUND_CID>
127031949

> <PUBCHEM_COMPOUND_CANONICALIZED>
1

> <PUBCHEM_CACTVS_COMPLEXITY>
341

> <PUBCHEM_CACTVS_HBOND_ACCEPTOR>
5

> <PUBCHEM_CACTVS_HBOND_DONOR>
2

> <PUBCHEM_CACTVS_ROTATABLE_BOND>
7

> <PUBCHEM_CACTVS_SUBSKEYS>
AAADceB6OAAAAAAAAAAAAAAAAAAAAAAAAAAwYAAAAAAAAAABQAAAHgAACAAADATBmAYyBoMABgCAAiBCAACCCAAgIAAIiAAOjIgNJiKGsRuEcCtmwBGLuAew0LIOIAABAAAIQABAAAIAABCAAAAAAAAAAA==

> <PUBCHEM_IUPAC_OPENEYE_NAME>
3-[[2-(4-hydroxy-3-methoxy-phenyl)ethyl-methyl-amino]methyl]-2-methoxy-phenol

> <PUBCHEM_IUPAC_CAS_NAME>
3-[[2-(4-hydroxy-3-methoxyphenyl)ethyl-methylamino]methyl]-2-methoxyphenol

> <PUBCHEM_IUPAC_NAME_MARKUP>
3-[[2-(4-hydroxy-3-methoxyphenyl)ethyl-methylamino]methyl]-2-methoxyphenol

> <PUBCHEM_IUPAC_NAME>
3-[[2-(4-hydroxy-3-methoxyphenyl)ethyl-methylamino]methyl]-2-methoxyphenol

> <PUBCHEM_IUPAC_SYSTEMATIC_NAME>
2-methoxy-3-[[2-(3-methoxy-4-oxidanyl-phenyl)ethyl-methyl-amino]methyl]phenol

> <PUBCHEM_IUPAC_TRADITIONAL_NAME>
3-[[homovanillyl(methyl)amino]methyl]-2-methoxy-phenol

> <PUBCHEM_IUPAC_INCHI>
InChI=1S/C18H23NO4/c1-19(12-14-5-4-6-16(21)18(14)23-3)10-9-13-7-8-15(20)17(11-13)22-2/h4-8,11,20-21H,9-10,12H2,1-3H3

> <PUBCHEM_IUPAC_INCHIKEY>
MOZKRTYYLZZUTA-UHFFFAOYSA-N

> <PUBCHEM_XLOGP3_AA>
2.9

> <PUBCHEM_EXACT_MASS>
317.16270821

> <PUBCHEM_MOLECULAR_FORMULA>
C18H23NO4

> <PUBCHEM_MOLECULAR_WEIGHT>
317.4

> <PUBCHEM_OPENEYE_CAN_SMILES>
CN(CCC1=CC(=C(C=C1)O)OC)CC2=C(C(=CC=C2)O)OC

> <PUBCHEM_OPENEYE_ISO_SMILES>
CN(CCC1=CC(=C(C=C1)O)OC)CC2=C(C(=CC=C2)O)OC

> <PUBCHEM_CACTVS_TPSA>
62.2

> <PUBCHEM_MONOISOTOPIC_WEIGHT>
317.16270821

> <PUBCHEM_TOTAL_CHARGE>
0

> <PUBCHEM_HEAVY_ATOM_COUNT>
23

> <PUBCHEM_ATOM_DEF_STEREO_COUNT>
0

> <PUBCHEM_ATOM_UDEF_STEREO_COUNT>
0

> <PUBCHEM_BOND_DEF_STEREO_COUNT>
0

> <PUBCHEM_BOND_UDEF_STEREO_COUNT>
0

> <PUBCHEM_ISOTOPIC_ATOM_COUNT>
0

> <PUBCHEM_COMPONENT_COUNT>
1

> <PUBCHEM_CACTVS_TAUTO_COUNT>
-1

> <PUBCHEM_COORDINATE_TYPE>
1
5
255

> <PUBCHEM_BONDANNOTATIONS>
10  13  8
10  15  8
12  17  8
13  16  8
14  19  8
15  18  8
16  20  8
17  21  8
18  20  8
19  21  8
9  12  8
9  14  8

$$$$
