118719812
  -OEChem-09292322362D

 59 62  0     0  0  0  0  0  0999 V2000
    8.1342   -4.5352    0.0000 O   0  0  0  0  0  0  0  0  0  0  0  0
    4.9836    5.8307    0.0000 O   0  0  0  0  0  0  0  0  0  0  0  0
    6.4021   -1.5352    0.0000 N   0  0  0  0  0  0  0  0  0  0  0  0
    6.4021   -3.5352    0.0000 N   0  0  0  0  0  0  0  0  0  0  0  0
    4.1701    4.0036    0.0000 N   0  0  0  0  0  0  0  0  0  0  0  0
    5.4791    3.0526    0.0000 N   0  0  0  0  0  0  0  0  0  0  0  0
    5.1701    4.0036    0.0000 N   0  0  0  0  0  0  0  0  0  0  0  0
    7.2682   -2.0352    0.0000 C   0  0  0  0  0  0  0  0  0  0  0  0
    5.5361   -2.0352    0.0000 C   0  0  0  0  0  0  0  0  0  0  0  0
    7.2682   -3.0352    0.0000 C   0  0  0  0  0  0  0  0  0  0  0  0
    5.5361   -3.0352    0.0000 C   0  0  0  0  0  0  0  0  0  0  0  0
    6.4021   -0.5352    0.0000 C   0  0  0  0  0  0  0  0  0  0  0  0
    5.5361   -0.0352    0.0000 C   0  0  0  0  0  0  0  0  0  0  0  0
    5.5361    0.9648    0.0000 C   0  0  0  0  0  0  0  0  0  0  0  0
    6.4021   -4.5352    0.0000 C   0  0  0  0  0  0  0  0  0  0  0  0
    4.6701    1.4648    0.0000 C   0  0  0  0  0  0  0  0  0  0  0  0
    7.2682   -5.0352    0.0000 C   0  0  0  0  0  0  0  0  0  0  0  0
    5.5361   -5.0352    0.0000 C   0  0  0  0  0  0  0  0  0  0  0  0
    4.6701    2.4648    0.0000 C   0  0  0  0  0  0  0  0  0  0  0  0
    7.2682   -6.0352    0.0000 C   0  0  0  0  0  0  0  0  0  0  0  0
    5.5361   -6.0352    0.0000 C   0  0  0  0  0  0  0  0  0  0  0  0
    6.4021   -6.5352    0.0000 C   0  0  0  0  0  0  0  0  0  0  0  0
    3.8611    3.0526    0.0000 C   0  0  0  0  0  0  0  0  0  0  0  0
    9.0002   -5.0352    0.0000 C   0  0  0  0  0  0  0  0  0  0  0  0
    3.5823    4.8126    0.0000 C   0  0  0  0  0  0  0  0  0  0  0  0
    3.9890    5.7262    0.0000 C   0  0  0  0  0  0  0  0  0  0  0  0
    2.5878    4.7081    0.0000 C   0  0  0  0  0  0  0  0  0  0  0  0
    3.4013    6.5352    0.0000 C   0  0  0  0  0  0  0  0  0  0  0  0
    2.0000    5.5171    0.0000 C   0  0  0  0  0  0  0  0  0  0  0  0
    2.4067    6.4307    0.0000 C   0  0  0  0  0  0  0  0  0  0  0  0
    7.8788   -2.1429    0.0000 H   0  0  0  0  0  0  0  0  0  0  0  0
    7.4802   -1.4526    0.0000 H   0  0  0  0  0  0  0  0  0  0  0  0
    5.3241   -1.4526    0.0000 H   0  0  0  0  0  0  0  0  0  0  0  0
    4.9255   -2.1429    0.0000 H   0  0  0  0  0  0  0  0  0  0  0  0
    7.4802   -3.6178    0.0000 H   0  0  0  0  0  0  0  0  0  0  0  0
    7.8788   -2.9276    0.0000 H   0  0  0  0  0  0  0  0  0  0  0  0
    4.9255   -2.9276    0.0000 H   0  0  0  0  0  0  0  0  0  0  0  0
    5.3241   -3.6178    0.0000 H   0  0  0  0  0  0  0  0  0  0  0  0
    7.0127   -0.6429    0.0000 H   0  0  0  0  0  0  0  0  0  0  0  0
    6.6142    0.0474    0.0000 H   0  0  0  0  0  0  0  0  0  0  0  0
    4.9255    0.0725    0.0000 H   0  0  0  0  0  0  0  0  0  0  0  0
    5.3241   -0.6178    0.0000 H   0  0  0  0  0  0  0  0  0  0  0  0
    6.1467    0.8571    0.0000 H   0  0  0  0  0  0  0  0  0  0  0  0
    5.7482    1.5474    0.0000 H   0  0  0  0  0  0  0  0  0  0  0  0
    4.0595    1.5724    0.0000 H   0  0  0  0  0  0  0  0  0  0  0  0
    4.4580    0.8822    0.0000 H   0  0  0  0  0  0  0  0  0  0  0  0
    4.9992   -4.7252    0.0000 H   0  0  0  0  0  0  0  0  0  0  0  0
    7.8051   -6.3452    0.0000 H   0  0  0  0  0  0  0  0  0  0  0  0
    4.9992   -6.3452    0.0000 H   0  0  0  0  0  0  0  0  0  0  0  0
    6.4021   -7.1552    0.0000 H   0  0  0  0  0  0  0  0  0  0  0  0
    3.2714    2.8610    0.0000 H   0  0  0  0  0  0  0  0  0  0  0  0
    8.6902   -5.5722    0.0000 H   0  0  0  0  0  0  0  0  0  0  0  0
    9.5372   -5.3452    0.0000 H   0  0  0  0  0  0  0  0  0  0  0  0
    9.3102   -4.4983    0.0000 H   0  0  0  0  0  0  0  0  0  0  0  0
    2.3356    4.1417    0.0000 H   0  0  0  0  0  0  0  0  0  0  0  0
    3.6534    7.1016    0.0000 H   0  0  0  0  0  0  0  0  0  0  0  0
    1.3834    5.4523    0.0000 H   0  0  0  0  0  0  0  0  0  0  0  0
    2.0423    6.9323    0.0000 H   0  0  0  0  0  0  0  0  0  0  0  0
    5.2357    6.3971    0.0000 H   0  0  0  0  0  0  0  0  0  0  0  0
  1 17  1  0  0  0  0
  1 24  1  0  0  0  0
  2 26  1  0  0  0  0
  2 59  1  0  0  0  0
  3  8  1  0  0  0  0
  3  9  1  0  0  0  0
  3 12  1  0  0  0  0
  4 10  1  0  0  0  0
  4 11  1  0  0  0  0
  4 15  1  0  0  0  0
  5  7  1  0  0  0  0
  5 23  1  0  0  0  0
  5 25  1  0  0  0  0
  6  7  2  0  0  0  0
  6 19  1  0  0  0  0
  8 10  1  0  0  0  0
  8 31  1  0  0  0  0
  8 32  1  0  0  0  0
  9 11  1  0  0  0  0
  9 33  1  0  0  0  0
  9 34  1  0  0  0  0
 10 35  1  0  0  0  0
 10 36  1  0  0  0  0
 11 37  1  0  0  0  0
 11 38  1  0  0  0  0
 12 13  1  0  0  0  0
 12 39  1  0  0  0  0
 12 40  1  0  0  0  0
 13 14  1  0  0  0  0
 13 41  1  0  0  0  0
 13 42  1  0  0  0  0
 14 16  1  0  0  0  0
 14 43  1  0  0  0  0
 14 44  1  0  0  0  0
 15 17  1  0  0  0  0
 15 18  2  0  0  0  0
 16 19  1  0  0  0  0
 16 45  1  0  0  0  0
 16 46  1  0  0  0  0
 17 20  2  0  0  0  0
 18 21  1  0  0  0  0
 18 47  1  0  0  0  0
 19 23  2  0  0  0  0
 20 22  1  0  0  0  0
 20 48  1  0  0  0  0
 21 22  2  0  0  0  0
 21 49  1  0  0  0  0
 22 50  1  0  0  0  0
 23 51  1  0  0  0  0
 24 52  1  0  0  0  0
 24 53  1  0  0  0  0
 24 54  1  0  0  0  0
 25 26  1  0  0  0  0
 25 27  2  0  0  0  0
 26 28  2  0  0  0  0
 27 29  1  0  0  0  0
 27 55  1  0  0  0  0
 28 30  1  0  0  0  0
 28 56  1  0  0  0  0
 29 30  2  0  0  0  0
 29 57  1  0  0  0  0
 30 58  1  0  0  0  0
M  END
> <PUBCHEM_COMPOUND_CID>
118719812

> <PUBCHEM_COMPOUND_CANONICALIZED>
1

> <PUBCHEM_CACTVS_COMPLEXITY>
502

> <PUBCHEM_CACTVS_HBOND_ACCEPTOR>
6

> <PUBCHEM_CACTVS_HBOND_DONOR>
1

> <PUBCHEM_CACTVS_ROTATABLE_BOND>
8

> <PUBCHEM_CACTVS_SUBSKEYS>
AAADceB7sAAAAAAAAAAAAAAAAAAAAWAAAAA8YIAAAAAAAAAB0AAAHgAICAAACAzBlgY+xpMIBgCiATRnRACCDCQxsgAYmAA/fIgOZmLWsZuVcChkwBHY+AeQQAAAAAAAAAAAEAAAAAAAAAAgAAAAAAAAAA==

> <PUBCHEM_IUPAC_OPENEYE_NAME>
2-[4-[4-[4-(2-methoxyphenyl)piperazin-1-yl]butyl]triazol-1-yl]phenol

> <PUBCHEM_IUPAC_CAS_NAME>
2-[4-[4-[4-(2-methoxyphenyl)-1-piperazinyl]butyl]-1-triazolyl]phenol

> <PUBCHEM_IUPAC_NAME_MARKUP>
2-[4-[4-[4-(2-methoxyphenyl)piperazin-1-yl]butyl]triazol-1-yl]phenol

> <PUBCHEM_IUPAC_NAME>
2-[4-[4-[4-(2-methoxyphenyl)piperazin-1-yl]butyl]triazol-1-yl]phenol

> <PUBCHEM_IUPAC_SYSTEMATIC_NAME>
2-[4-[4-[4-(2-methoxyphenyl)piperazin-1-yl]butyl]-1,2,3-triazol-1-yl]phenol

> <PUBCHEM_IUPAC_TRADITIONAL_NAME>
2-[4-[4-[4-(2-methoxyphenyl)piperazino]butyl]triazol-1-yl]phenol

> <PUBCHEM_IUPAC_INCHI>
InChI=1S/C23H29N5O2/c1-30-23-12-5-3-10-21(23)27-16-14-26(15-17-27)13-7-6-8-19-18-28(25-24-19)20-9-2-4-11-22(20)29/h2-5,9-12,18,29H,6-8,13-17H2,1H3

> <PUBCHEM_IUPAC_INCHIKEY>
MUPRCNAECHSDLY-UHFFFAOYSA-N

> <PUBCHEM_XLOGP3_AA>
3.6

> <PUBCHEM_EXACT_MASS>
407.23212518

> <PUBCHEM_MOLECULAR_FORMULA>
C23H29N5O2

> <PUBCHEM_MOLECULAR_WEIGHT>
407.5

> <PUBCHEM_OPENEYE_CAN_SMILES>
COC1=CC=CC=C1N2CCN(CC2)CCCCC3=CN(N=N3)C4=CC=CC=C4O

> <PUBCHEM_OPENEYE_ISO_SMILES>
COC1=CC=CC=C1N2CCN(CC2)CCCCC3=CN(N=N3)C4=CC=CC=C4O

> <PUBCHEM_CACTVS_TPSA>
66.6

> <PUBCHEM_MONOISOTOPIC_WEIGHT>
407.23212518

> <PUBCHEM_TOTAL_CHARGE>
0

> <PUBCHEM_HEAVY_ATOM_COUNT>
30

> <PUBCHEM_ATOM_DEF_STEREO_COUNT>
0

> <PUBCHEM_ATOM_UDEF_STEREO_COUNT>
0

> <PUBCHEM_BOND_DEF_STEREO_COUNT>
0

> <PUBCHEM_BOND_UDEF_STEREO_COUNT>
0

> <PUBCHEM_ISOTOPIC_ATOM_COUNT>
0

> <PUBCHEM_COMPONENT_COUNT>
1

> <PUBCHEM_CACTVS_TAUTO_COUNT>
-1

> <PUBCHEM_COORDINATE_TYPE>
1
5
255

> <PUBCHEM_BONDANNOTATIONS>
15  17  8
15  18  8
17  20  8
18  21  8
19  23  8
20  22  8
21  22  8
25  26  8
25  27  8
26  28  8
27  29  8
28  30  8
29  30  8
5  23  8
5  7  8
6  19  8
6  7  8

$$$$
