44350798
  -OEChem-09292322122D

 76 78  0     0  0  0  0  0  0999 V2000
    7.0749    2.6200    0.0000 O   0  0  0  0  0  0  0  0  0  0  0  0
   12.2711    9.6200    0.0000 O   0  0  0  0  0  0  0  0  0  0  0  0
   10.5390   14.6200    0.0000 O   0  0  0  0  0  0  0  0  0  0  0  0
    0.5369    8.6200    0.0000 O   0  0  0  0  0  0  0  0  0  0  0  0
    3.1350    8.1200    0.0000 O   0  0  0  0  0  0  0  0  0  0  0  0
    1.4030    7.1200    0.0000 O   0  0  0  0  0  0  0  0  0  0  0  0
    2.2690    9.6200    0.0000 O   0  0  0  0  0  0  0  0  0  0  0  0
    8.8070    5.6200    0.0000 N   0  0  0  0  0  0  0  0  0  0  0  0
    8.8070    3.6200    0.0000 N   0  0  0  0  0  0  0  0  0  0  0  0
   10.5390    9.6200    0.0000 N   0  0  0  0  0  0  0  0  0  0  0  0
    7.9409    5.1200    0.0000 C   0  0  0  0  0  0  0  0  0  0  0  0
    9.6730    5.1200    0.0000 C   0  0  0  0  0  0  0  0  0  0  0  0
    7.9409    4.1200    0.0000 C   0  0  0  0  0  0  0  0  0  0  0  0
    9.6730    4.1200    0.0000 C   0  0  0  0  0  0  0  0  0  0  0  0
    8.8070    6.6200    0.0000 C   0  0  0  0  0  0  0  0  0  0  0  0
    9.6730    7.1200    0.0000 C   0  0  0  0  0  0  0  0  0  0  0  0
    8.8070    2.6200    0.0000 C   0  0  0  0  0  0  0  0  0  0  0  0
    9.6730    8.1200    0.0000 C   0  0  0  0  0  0  0  0  0  0  0  0
   10.5390    8.6200    0.0000 C   0  0  0  0  0  0  0  0  0  0  0  0
    7.9409    2.1200    0.0000 C   0  0  0  0  0  0  0  0  0  0  0  0
    9.6730    2.1200    0.0000 C   0  0  0  0  0  0  0  0  0  0  0  0
    7.9409    1.1200    0.0000 C   0  0  0  0  0  0  0  0  0  0  0  0
    9.6730    1.1200    0.0000 C   0  0  0  0  0  0  0  0  0  0  0  0
    8.8070    0.6200    0.0000 C   0  0  0  0  0  0  0  0  0  0  0  0
   11.4050   10.1200    0.0000 C   0  0  0  0  0  0  0  0  0  0  0  0
    6.2089    2.1200    0.0000 C   0  0  0  0  0  0  0  0  0  0  0  0
   11.4050   11.1200    0.0000 C   0  0  0  0  0  0  0  0  0  0  0  0
   12.2711   11.6200    0.0000 C   0  0  0  0  0  0  0  0  0  0  0  0
   10.5390   11.6200    0.0000 C   0  0  0  0  0  0  0  0  0  0  0  0
   12.2711   12.6200    0.0000 C   0  0  0  0  0  0  0  0  0  0  0  0
   10.5390   12.6200    0.0000 C   0  0  0  0  0  0  0  0  0  0  0  0
   11.4050   13.1200    0.0000 C   0  0  0  0  0  0  0  0  0  0  0  0
   11.4050   14.1200    0.0000 C   0  0  0  0  0  0  0  0  0  0  0  0
   12.2711   14.6200    0.0000 C   0  0  0  0  0  0  0  0  0  0  0  0
   13.1371   14.1200    0.0000 C   0  0  0  0  0  0  0  0  0  0  0  0
   12.2711   15.6200    0.0000 C   0  0  0  0  0  0  0  0  0  0  0  0
   14.0031   14.6200    0.0000 C   0  0  0  0  0  0  0  0  0  0  0  0
   13.1371   16.1200    0.0000 C   0  0  0  0  0  0  0  0  0  0  0  0
   14.0031   15.6200    0.0000 C   0  0  0  0  0  0  0  0  0  0  0  0
    1.4030    8.1200    0.0000 C   0  0  0  0  0  0  0  0  0  0  0  0
    2.2690    8.6200    0.0000 C   0  0  0  0  0  0  0  0  0  0  0  0
    7.7289    5.7026    0.0000 H   0  0  0  0  0  0  0  0  0  0  0  0
    7.3304    5.0123    0.0000 H   0  0  0  0  0  0  0  0  0  0  0  0
   10.2836    5.0123    0.0000 H   0  0  0  0  0  0  0  0  0  0  0  0
    9.8850    5.7026    0.0000 H   0  0  0  0  0  0  0  0  0  0  0  0
    7.3304    4.2277    0.0000 H   0  0  0  0  0  0  0  0  0  0  0  0
    7.7289    3.5374    0.0000 H   0  0  0  0  0  0  0  0  0  0  0  0
    9.8850    3.5374    0.0000 H   0  0  0  0  0  0  0  0  0  0  0  0
   10.2836    4.2277    0.0000 H   0  0  0  0  0  0  0  0  0  0  0  0
    8.5949    7.2026    0.0000 H   0  0  0  0  0  0  0  0  0  0  0  0
    8.1964    6.5123    0.0000 H   0  0  0  0  0  0  0  0  0  0  0  0
    9.8850    6.5374    0.0000 H   0  0  0  0  0  0  0  0  0  0  0  0
   10.2836    7.2277    0.0000 H   0  0  0  0  0  0  0  0  0  0  0  0
    9.4609    8.7026    0.0000 H   0  0  0  0  0  0  0  0  0  0  0  0
    9.0624    8.0123    0.0000 H   0  0  0  0  0  0  0  0  0  0  0  0
   10.7511    8.0374    0.0000 H   0  0  0  0  0  0  0  0  0  0  0  0
   11.1496    8.7277    0.0000 H   0  0  0  0  0  0  0  0  0  0  0  0
   10.2099    2.4300    0.0000 H   0  0  0  0  0  0  0  0  0  0  0  0
    7.4040    0.8100    0.0000 H   0  0  0  0  0  0  0  0  0  0  0  0
   10.2099    0.8100    0.0000 H   0  0  0  0  0  0  0  0  0  0  0  0
   10.0021    9.9300    0.0000 H   0  0  0  0  0  0  0  0  0  0  0  0
    8.8070    0.0000    0.0000 H   0  0  0  0  0  0  0  0  0  0  0  0
    5.8989    2.6569    0.0000 H   0  0  0  0  0  0  0  0  0  0  0  0
    5.6720    1.8100    0.0000 H   0  0  0  0  0  0  0  0  0  0  0  0
    6.5189    1.5831    0.0000 H   0  0  0  0  0  0  0  0  0  0  0  0
   12.8080   11.3100    0.0000 H   0  0  0  0  0  0  0  0  0  0  0  0
   10.0021   11.3100    0.0000 H   0  0  0  0  0  0  0  0  0  0  0  0
   12.8080   12.9300    0.0000 H   0  0  0  0  0  0  0  0  0  0  0  0
   10.0021   12.9300    0.0000 H   0  0  0  0  0  0  0  0  0  0  0  0
   13.1371   13.5000    0.0000 H   0  0  0  0  0  0  0  0  0  0  0  0
   11.7341   15.9300    0.0000 H   0  0  0  0  0  0  0  0  0  0  0  0
   14.5400   14.3100    0.0000 H   0  0  0  0  0  0  0  0  0  0  0  0
   13.1371   16.7400    0.0000 H   0  0  0  0  0  0  0  0  0  0  0  0
   14.5400   15.9300    0.0000 H   0  0  0  0  0  0  0  0  0  0  0  0
    0.0000    8.3100    0.0000 H   0  0  0  0  0  0  0  0  0  0  0  0
    3.6720    8.4300    0.0000 H   0  0  0  0  0  0  0  0  0  0  0  0
  1 20  1  0  0  0  0
  1 26  1  0  0  0  0
  2 25  2  0  0  0  0
  3 33  2  0  0  0  0
  4 40  1  0  0  0  0
  4 75  1  0  0  0  0
  5 41  1  0  0  0  0
  5 76  1  0  0  0  0
  6 40  2  0  0  0  0
  7 41  2  0  0  0  0
  8 11  1  0  0  0  0
  8 12  1  0  0  0  0
  8 15  1  0  0  0  0
  9 13  1  0  0  0  0
  9 14  1  0  0  0  0
  9 17  1  0  0  0  0
 10 19  1  0  0  0  0
 10 25  1  0  0  0  0
 10 61  1  0  0  0  0
 11 13  1  0  0  0  0
 11 42  1  0  0  0  0
 11 43  1  0  0  0  0
 12 14  1  0  0  0  0
 12 44  1  0  0  0  0
 12 45  1  0  0  0  0
 13 46  1  0  0  0  0
 13 47  1  0  0  0  0
 14 48  1  0  0  0  0
 14 49  1  0  0  0  0
 15 16  1  0  0  0  0
 15 50  1  0  0  0  0
 15 51  1  0  0  0  0
 16 18  1  0  0  0  0
 16 52  1  0  0  0  0
 16 53  1  0  0  0  0
 17 20  1  0  0  0  0
 17 21  2  0  0  0  0
 18 19  1  0  0  0  0
 18 54  1  0  0  0  0
 18 55  1  0  0  0  0
 19 56  1  0  0  0  0
 19 57  1  0  0  0  0
 20 22  2  0  0  0  0
 21 23  1  0  0  0  0
 21 58  1  0  0  0  0
 22 24  1  0  0  0  0
 22 59  1  0  0  0  0
 23 24  2  0  0  0  0
 23 60  1  0  0  0  0
 24 62  1  0  0  0  0
 25 27  1  0  0  0  0
 26 63  1  0  0  0  0
 26 64  1  0  0  0  0
 26 65  1  0  0  0  0
 27 28  2  0  0  0  0
 27 29  1  0  0  0  0
 28 30  1  0  0  0  0
 28 66  1  0  0  0  0
 29 31  2  0  0  0  0
 29 67  1  0  0  0  0
 30 32  2  0  0  0  0
 30 68  1  0  0  0  0
 31 32  1  0  0  0  0
 31 69  1  0  0  0  0
 32 33  1  0  0  0  0
 33 34  1  0  0  0  0
 34 35  2  0  0  0  0
 34 36  1  0  0  0  0
 35 37  1  0  0  0  0
 35 70  1  0  0  0  0
 36 38  2  0  0  0  0
 36 71  1  0  0  0  0
 37 39  2  0  0  0  0
 37 72  1  0  0  0  0
 38 39  1  0  0  0  0
 38 73  1  0  0  0  0
 39 74  1  0  0  0  0
 40 41  1  0  0  0  0
M  END
> <PUBCHEM_COMPOUND_CID>
44350798

> <PUBCHEM_COMPOUND_CANONICALIZED>
1

> <PUBCHEM_CACTVS_COMPLEXITY>
721

> <PUBCHEM_CACTVS_HBOND_ACCEPTOR>
9

> <PUBCHEM_CACTVS_HBOND_DONOR>
3

> <PUBCHEM_CACTVS_ROTATABLE_BOND>
11

> <PUBCHEM_CACTVS_SUBSKEYS>
AAADcfB7OAAAAAAAAAAAAAAAAAAAAAAAAAA8YMEAAAAAAAABUAAAHgAQCAAADAzBmAYyzoPABgCIAqXSWAKCCAAlIgAIiIFPbMgPZjLEtZuVMShk1hHZ6YeYyMCOQAAAAAAAEACAAAAAAAAgAAAAAAAAAA==

> <PUBCHEM_IUPAC_OPENEYE_NAME>
4-benzoyl-N-[4-[4-(2-methoxyphenyl)piperazin-1-yl]butyl]benzamide;oxalic acid

> <PUBCHEM_IUPAC_CAS_NAME>
4-benzoyl-N-[4-[4-(2-methoxyphenyl)-1-piperazinyl]butyl]benzamide;oxalic acid

> <PUBCHEM_IUPAC_NAME_MARKUP>
4-benzoyl-<I>N</I>-[4-[4-(2-methoxyphenyl)piperazin-1-yl]butyl]benzamide;oxalic acid

> <PUBCHEM_IUPAC_NAME>
4-benzoyl-N-[4-[4-(2-methoxyphenyl)piperazin-1-yl]butyl]benzamide;oxalic acid

> <PUBCHEM_IUPAC_SYSTEMATIC_NAME>
ethanedioic acid;N-[4-[4-(2-methoxyphenyl)piperazin-1-yl]butyl]-4-(phenylcarbonyl)benzamide

> <PUBCHEM_IUPAC_TRADITIONAL_NAME>
4-benzoyl-N-[4-[4-(2-methoxyphenyl)piperazino]butyl]benzamide;oxalic acid

> <PUBCHEM_IUPAC_INCHI>
InChI=1S/C29H33N3O3.C2H2O4/c1-35-27-12-6-5-11-26(27)32-21-19-31(20-22-32)18-8-7-17-30-29(34)25-15-13-24(14-16-25)28(33)23-9-3-2-4-10-23;3-1(4)2(5)6/h2-6,9-16H,7-8,17-22H2,1H3,(H,30,34);(H,3,4)(H,5,6)

> <PUBCHEM_IUPAC_INCHIKEY>
SPSPDRQKUPJAQN-UHFFFAOYSA-N

> <PUBCHEM_EXACT_MASS>
561.24750046

> <PUBCHEM_MOLECULAR_FORMULA>
C31H35N3O7

> <PUBCHEM_MOLECULAR_WEIGHT>
561.6

> <PUBCHEM_OPENEYE_CAN_SMILES>
COC1=CC=CC=C1N2CCN(CC2)CCCCNC(=O)C3=CC=C(C=C3)C(=O)C4=CC=CC=C4.C(=O)(C(=O)O)O

> <PUBCHEM_OPENEYE_ISO_SMILES>
COC1=CC=CC=C1N2CCN(CC2)CCCCNC(=O)C3=CC=C(C=C3)C(=O)C4=CC=CC=C4.C(=O)(C(=O)O)O

> <PUBCHEM_CACTVS_TPSA>
137

> <PUBCHEM_MONOISOTOPIC_WEIGHT>
561.24750046

> <PUBCHEM_TOTAL_CHARGE>
0

> <PUBCHEM_HEAVY_ATOM_COUNT>
41

> <PUBCHEM_ATOM_DEF_STEREO_COUNT>
0

> <PUBCHEM_ATOM_UDEF_STEREO_COUNT>
0

> <PUBCHEM_BOND_DEF_STEREO_COUNT>
0

> <PUBCHEM_BOND_UDEF_STEREO_COUNT>
0

> <PUBCHEM_ISOTOPIC_ATOM_COUNT>
0

> <PUBCHEM_COMPONENT_COUNT>
2

> <PUBCHEM_CACTVS_TAUTO_COUNT>
-1

> <PUBCHEM_COORDINATE_TYPE>
1
5
255

> <PUBCHEM_BONDANNOTATIONS>
17  20  8
17  21  8
20  22  8
21  23  8
22  24  8
23  24  8
27  28  8
27  29  8
28  30  8
29  31  8
30  32  8
31  32  8
34  35  8
34  36  8
35  37  8
36  38  8
37  39  8
38  39  8

$$$$
