71449645
  -OEChem-09292322332D

 52 54  0     1  0  0  0  0  0999 V2000
    2.0000   -2.4156    0.0000 Cl  0  0  0  0  0  0  0  0  0  0  0  0
    4.8479   -0.3465    0.0000 S   0  0  0  0  0  0  0  0  0  0  0  0
    3.2601   -1.1555    0.0000 S   0  0  0  0  0  0  0  0  0  0  0  0
   10.6109    1.1944    0.0000 O   0  0  0  0  0  0  0  0  0  0  0  0
    4.0388    0.2413    0.0000 O   0  0  0  0  0  0  0  0  0  0  0  0
    5.6569   -0.9343    0.0000 O   0  0  0  0  0  0  0  0  0  0  0  0
    8.0128    0.6944    0.0000 N   0  0  3  0  0  0  0  0  0  0  0  0
    5.4356    0.4625    0.0000 N   0  0  0  0  0  0  0  0  0  0  0  0
    6.4302    0.3580    0.0000 C   0  0  2  0  0  0  0  0  0  0  0  0
    7.0993    1.1011    0.0000 C   0  0  0  0  0  0  0  0  0  0  0  0
    6.9302   -0.5081    0.0000 C   0  0  0  0  0  0  0  0  0  0  0  0
    7.9083   -0.3001    0.0000 C   0  0  0  0  0  0  0  0  0  0  0  0
    8.8789    1.1944    0.0000 C   0  0  0  0  0  0  0  0  0  0  0  0
    9.7449    0.6944    0.0000 C   0  0  0  0  0  0  0  0  0  0  0  0
    4.2601   -1.1555    0.0000 C   0  0  0  0  0  0  0  0  0  0  0  0
   11.4769    0.6944    0.0000 C   0  0  0  0  0  0  0  0  0  0  0  0
   12.3430    1.1944    0.0000 C   0  0  0  0  0  0  0  0  0  0  0  0
   12.3430    2.1944    0.0000 C   0  0  0  0  0  0  0  0  0  0  0  0
    4.5691   -2.1066    0.0000 C   0  0  0  0  0  0  0  0  0  0  0  0
   11.4769   -0.3056    0.0000 C   0  0  0  0  0  0  0  0  0  0  0  0
   13.2090    0.6944    0.0000 C   0  0  0  0  0  0  0  0  0  0  0  0
   13.2090    2.6944    0.0000 C   0  0  0  0  0  0  0  0  0  0  0  0
   11.4769    2.6944    0.0000 C   0  0  0  0  0  0  0  0  0  0  0  0
    3.7601   -2.6944    0.0000 C   0  0  0  0  0  0  0  0  0  0  0  0
    2.9511   -2.1066    0.0000 C   0  0  0  0  0  0  0  0  0  0  0  0
   12.3430   -0.8056    0.0000 C   0  0  0  0  0  0  0  0  0  0  0  0
   13.2090   -0.3056    0.0000 C   0  0  0  0  0  0  0  0  0  0  0  0
    6.2080    0.9368    0.0000 H   0  0  0  0  0  0  0  0  0  0  0  0
    7.4093    1.6380    0.0000 H   0  0  0  0  0  0  0  0  0  0  0  0
    6.5977    1.4655    0.0000 H   0  0  0  0  0  0  0  0  0  0  0  0
    6.3638   -0.7602    0.0000 H   0  0  0  0  0  0  0  0  0  0  0  0
    7.1218   -1.0977    0.0000 H   0  0  0  0  0  0  0  0  0  0  0  0
    7.9731   -0.9167    0.0000 H   0  0  0  0  0  0  0  0  0  0  0  0
    8.5283   -0.3001    0.0000 H   0  0  0  0  0  0  0  0  0  0  0  0
    9.2774    1.6693    0.0000 H   0  0  0  0  0  0  0  0  0  0  0  0
    8.4803    1.6693    0.0000 H   0  0  0  0  0  0  0  0  0  0  0  0
    5.1835    1.0289    0.0000 H   0  0  0  0  0  0  0  0  0  0  0  0
    9.3464    0.2194    0.0000 H   0  0  0  0  0  0  0  0  0  0  0  0
   10.1434    0.2194    0.0000 H   0  0  0  0  0  0  0  0  0  0  0  0
   11.8060    1.8844    0.0000 H   0  0  0  0  0  0  0  0  0  0  0  0
    5.1588   -2.2982    0.0000 H   0  0  0  0  0  0  0  0  0  0  0  0
   10.9400   -0.6156    0.0000 H   0  0  0  0  0  0  0  0  0  0  0  0
   13.7459    1.0044    0.0000 H   0  0  0  0  0  0  0  0  0  0  0  0
   13.5190    2.1574    0.0000 H   0  0  0  0  0  0  0  0  0  0  0  0
   13.7459    3.0044    0.0000 H   0  0  0  0  0  0  0  0  0  0  0  0
   12.8990    3.2313    0.0000 H   0  0  0  0  0  0  0  0  0  0  0  0
   11.7869    3.2313    0.0000 H   0  0  0  0  0  0  0  0  0  0  0  0
   10.9400    3.0044    0.0000 H   0  0  0  0  0  0  0  0  0  0  0  0
   11.1669    2.1574    0.0000 H   0  0  0  0  0  0  0  0  0  0  0  0
    3.7601   -3.3144    0.0000 H   0  0  0  0  0  0  0  0  0  0  0  0
   12.3430   -1.4256    0.0000 H   0  0  0  0  0  0  0  0  0  0  0  0
   13.7459   -0.6156    0.0000 H   0  0  0  0  0  0  0  0  0  0  0  0
  1 25  1  0  0  0  0
  2  5  2  0  0  0  0
  2  6  2  0  0  0  0
  2  8  1  0  0  0  0
  2 15  1  0  0  0  0
  3 15  1  0  0  0  0
  3 25  1  0  0  0  0
  4 14  1  0  0  0  0
  4 16  1  0  0  0  0
  7 10  1  0  0  0  0
  7 12  1  0  0  0  0
  7 13  1  0  0  0  0
  9  8  1  6  0  0  0
  8 37  1  0  0  0  0
  9 10  1  0  0  0  0
  9 11  1  0  0  0  0
  9 28  1  0  0  0  0
 10 29  1  0  0  0  0
 10 30  1  0  0  0  0
 11 12  1  0  0  0  0
 11 31  1  0  0  0  0
 11 32  1  0  0  0  0
 12 33  1  0  0  0  0
 12 34  1  0  0  0  0
 13 14  1  0  0  0  0
 13 35  1  0  0  0  0
 13 36  1  0  0  0  0
 14 38  1  0  0  0  0
 14 39  1  0  0  0  0
 15 19  2  0  0  0  0
 16 17  1  0  0  0  0
 16 20  2  0  0  0  0
 17 18  1  0  0  0  0
 17 21  2  0  0  0  0
 18 22  1  0  0  0  0
 18 23  1  0  0  0  0
 18 40  1  0  0  0  0
 19 24  1  0  0  0  0
 19 41  1  0  0  0  0
 20 26  1  0  0  0  0
 20 42  1  0  0  0  0
 21 27  1  0  0  0  0
 21 43  1  0  0  0  0
 22 44  1  0  0  0  0
 22 45  1  0  0  0  0
 22 46  1  0  0  0  0
 23 47  1  0  0  0  0
 23 48  1  0  0  0  0
 23 49  1  0  0  0  0
 24 25  2  0  0  0  0
 24 50  1  0  0  0  0
 26 27  2  0  0  0  0
 26 51  1  0  0  0  0
 27 52  1  0  0  0  0
M  END
> <PUBCHEM_COMPOUND_CID>
71449645

> <PUBCHEM_COMPOUND_CANONICALIZED>
1

> <PUBCHEM_CACTVS_COMPLEXITY>
570

> <PUBCHEM_CACTVS_HBOND_ACCEPTOR>
6

> <PUBCHEM_CACTVS_HBOND_DONOR>
1

> <PUBCHEM_CACTVS_ROTATABLE_BOND>
8

> <PUBCHEM_CACTVS_SUBSKEYS>
AAADceB7MABkAAAAAAAAAAAAAAAAAWJAAAAwAAAAAAAAAAABwAAAHgYQQAAADS7h2CYyB4NABAqEAiBCAHBDCZAgLRBIiJgOCogOZiKl8xqXOCCk0BG4qAeAwOAOgAAAAAAIAAAAAAAAABAAAAAAAAAAAA==

> <PUBCHEM_IUPAC_OPENEYE_NAME>
5-chloro-N-[(3S)-1-[2-(2-isopropylphenoxy)ethyl]pyrrolidin-3-yl]thiophene-2-sulfonamide

> <PUBCHEM_IUPAC_CAS_NAME>
5-chloro-N-[(3S)-1-[2-(2-propan-2-ylphenoxy)ethyl]-3-pyrrolidinyl]-2-thiophenesulfonamide

> <PUBCHEM_IUPAC_NAME_MARKUP>
5-chloro-<I>N</I>-[(3<I>S</I>)-1-[2-(2-propan-2-ylphenoxy)ethyl]pyrrolidin-3-yl]thiophene-2-sulfonamide

> <PUBCHEM_IUPAC_NAME>
5-chloro-N-[(3S)-1-[2-(2-propan-2-ylphenoxy)ethyl]pyrrolidin-3-yl]thiophene-2-sulfonamide

> <PUBCHEM_IUPAC_SYSTEMATIC_NAME>
5-chloranyl-N-[(3S)-1-[2-(2-propan-2-ylphenoxy)ethyl]pyrrolidin-3-yl]thiophene-2-sulfonamide

> <PUBCHEM_IUPAC_TRADITIONAL_NAME>
5-chloro-N-[(3S)-1-[2-(2-isopropylphenoxy)ethyl]pyrrolidin-3-yl]thiophene-2-sulfonamide

> <PUBCHEM_IUPAC_INCHI>
InChI=1S/C19H25ClN2O3S2/c1-14(2)16-5-3-4-6-17(16)25-12-11-22-10-9-15(13-22)21-27(23,24)19-8-7-18(20)26-19/h3-8,14-15,21H,9-13H2,1-2H3/t15-/m0/s1

> <PUBCHEM_IUPAC_INCHIKEY>
WIMXOLDVKJDYQI-HNNXBMFYSA-N

> <PUBCHEM_XLOGP3_AA>
4.9

> <PUBCHEM_EXACT_MASS>
428.0995127

> <PUBCHEM_MOLECULAR_FORMULA>
C19H25ClN2O3S2

> <PUBCHEM_MOLECULAR_WEIGHT>
429.0

> <PUBCHEM_OPENEYE_CAN_SMILES>
CC(C)C1=CC=CC=C1OCCN2CCC(C2)NS(=O)(=O)C3=CC=C(S3)Cl

> <PUBCHEM_OPENEYE_ISO_SMILES>
CC(C)C1=CC=CC=C1OCCN2CC[C@@H](C2)NS(=O)(=O)C3=CC=C(S3)Cl

> <PUBCHEM_CACTVS_TPSA>
95.3

> <PUBCHEM_MONOISOTOPIC_WEIGHT>
428.0995127

> <PUBCHEM_TOTAL_CHARGE>
0

> <PUBCHEM_HEAVY_ATOM_COUNT>
27

> <PUBCHEM_ATOM_DEF_STEREO_COUNT>
1

> <PUBCHEM_ATOM_UDEF_STEREO_COUNT>
0

> <PUBCHEM_BOND_DEF_STEREO_COUNT>
0

> <PUBCHEM_BOND_UDEF_STEREO_COUNT>
0

> <PUBCHEM_ISOTOPIC_ATOM_COUNT>
0

> <PUBCHEM_COMPONENT_COUNT>
1

> <PUBCHEM_CACTVS_TAUTO_COUNT>
-1

> <PUBCHEM_COORDINATE_TYPE>
1
5
255

> <PUBCHEM_BONDANNOTATIONS>
15  19  8
16  17  8
16  20  8
17  21  8
19  24  8
20  26  8
21  27  8
24  25  8
26  27  8
3  15  8
3  25  8
9  8  6

$$$$
