11536580
  -OEChem-09292322492D

 42 46  0     1  0  0  0  0  0999 V2000
    6.1115    1.4612    0.0000 N   0  0  3  0  0  0  0  0  0  0  0  0
    5.0363   -1.0106    0.0000 N   0  0  0  0  0  0  0  0  0  0  0  0
    6.1115    0.4612    0.0000 C   0  0  3  0  0  0  0  0  0  0  0  0
    7.6414    0.9612    0.0000 C   0  0  3  0  0  0  0  0  0  0  0  0
    7.0577    0.1565    0.0000 C   0  0  0  0  0  0  0  0  0  0  0  0
    7.0577    1.7659    0.0000 C   0  0  0  0  0  0  0  0  0  0  0  0
    5.2455   -0.0388    0.0000 C   0  0  0  0  0  0  0  0  0  0  0  0
    5.2455    1.9612    0.0000 C   0  0  0  0  0  0  0  0  0  0  0  0
    4.3795    0.4612    0.0000 C   0  0  0  0  0  0  0  0  0  0  0  0
    4.3795    1.4612    0.0000 C   0  0  0  0  0  0  0  0  0  0  0  0
    8.6413    0.9612    0.0000 C   0  0  0  0  0  0  0  0  0  0  0  0
    3.6425   -0.2059    0.0000 C   0  0  0  0  0  0  0  0  0  0  0  0
    4.0476   -1.1137    0.0000 C   0  0  0  0  0  0  0  0  0  0  0  0
    9.1413    0.0952    0.0000 C   0  0  0  0  0  0  0  0  0  0  0  0
    9.1413    1.8272    0.0000 C   0  0  0  0  0  0  0  0  0  0  0  0
    2.6144   -0.0827    0.0000 C   0  0  0  0  0  0  0  0  0  0  0  0
    3.4527   -1.9612    0.0000 C   0  0  0  0  0  0  0  0  0  0  0  0
    2.0000   -0.9162    0.0000 C   0  0  0  0  0  0  0  0  0  0  0  0
    2.4220   -1.8618    0.0000 C   0  0  0  0  0  0  0  0  0  0  0  0
   10.1414    0.0952    0.0000 C   0  0  0  0  0  0  0  0  0  0  0  0
   10.1414    1.8272    0.0000 C   0  0  0  0  0  0  0  0  0  0  0  0
   10.6414    0.9612    0.0000 C   0  0  0  0  0  0  0  0  0  0  0  0
    6.1771   -0.1553    0.0000 H   0  0  0  0  0  0  0  0  0  0  0  0
    7.9231    0.4089    0.0000 H   0  0  0  0  0  0  0  0  0  0  0  0
    6.8067   -0.4104    0.0000 H   0  0  0  0  0  0  0  0  0  0  0  0
    7.5951   -0.1528    0.0000 H   0  0  0  0  0  0  0  0  0  0  0  0
    7.5951    2.0752    0.0000 H   0  0  0  0  0  0  0  0  0  0  0  0
    6.8067    2.3328    0.0000 H   0  0  0  0  0  0  0  0  0  0  0  0
    5.6440    2.4361    0.0000 H   0  0  0  0  0  0  0  0  0  0  0  0
    4.8470    2.4361    0.0000 H   0  0  0  0  0  0  0  0  0  0  0  0
    4.1674    2.0438    0.0000 H   0  0  0  0  0  0  0  0  0  0  0  0
    3.7689    1.3535    0.0000 H   0  0  0  0  0  0  0  0  0  0  0  0
    5.4504   -1.4721    0.0000 H   0  0  0  0  0  0  0  0  0  0  0  0
    8.8314   -0.4418    0.0000 H   0  0  0  0  0  0  0  0  0  0  0  0
    8.8314    2.3642    0.0000 H   0  0  0  0  0  0  0  0  0  0  0  0
    2.3683    0.4864    0.0000 H   0  0  0  0  0  0  0  0  0  0  0  0
    3.7119   -2.5244    0.0000 H   0  0  0  0  0  0  0  0  0  0  0  0
    1.3836   -0.8496    0.0000 H   0  0  0  0  0  0  0  0  0  0  0  0
    2.0599   -2.3651    0.0000 H   0  0  0  0  0  0  0  0  0  0  0  0
   10.4514   -0.4418    0.0000 H   0  0  0  0  0  0  0  0  0  0  0  0
   10.4514    2.3642    0.0000 H   0  0  0  0  0  0  0  0  0  0  0  0
   11.2614    0.9612    0.0000 H   0  0  0  0  0  0  0  0  0  0  0  0
  1  3  1  0  0  0  0
  1  6  1  0  0  0  0
  1  8  1  0  0  0  0
  2  7  1  0  0  0  0
  2 13  1  0  0  0  0
  2 33  1  0  0  0  0
  3  5  1  0  0  0  0
  3  7  1  0  0  0  0
  3 23  1  0  0  0  0
  4  5  1  0  0  0  0
  4  6  1  0  0  0  0
  4 11  1  0  0  0  0
  4 24  1  0  0  0  0
  5 25  1  0  0  0  0
  5 26  1  0  0  0  0
  6 27  1  0  0  0  0
  6 28  1  0  0  0  0
  7  9  2  0  0  0  0
  8 10  1  0  0  0  0
  8 29  1  0  0  0  0
  8 30  1  0  0  0  0
  9 10  1  0  0  0  0
  9 12  1  0  0  0  0
 10 31  1  0  0  0  0
 10 32  1  0  0  0  0
 11 14  2  0  0  0  0
 11 15  1  0  0  0  0
 12 13  1  0  0  0  0
 12 16  2  0  0  0  0
 13 17  2  0  0  0  0
 14 20  1  0  0  0  0
 14 34  1  0  0  0  0
 15 21  2  0  0  0  0
 15 35  1  0  0  0  0
 16 18  1  0  0  0  0
 16 36  1  0  0  0  0
 17 19  1  0  0  0  0
 17 37  1  0  0  0  0
 18 19  2  0  0  0  0
 18 38  1  0  0  0  0
 19 39  1  0  0  0  0
 20 22  2  0  0  0  0
 20 40  1  0  0  0  0
 21 22  1  0  0  0  0
 21 41  1  0  0  0  0
 22 42  1  0  0  0  0
M  END
> <PUBCHEM_COMPOUND_CID>
11536580

> <PUBCHEM_COMPOUND_CANONICALIZED>
1

> <PUBCHEM_CACTVS_COMPLEXITY>
403

> <PUBCHEM_CACTVS_HBOND_ACCEPTOR>
1

> <PUBCHEM_CACTVS_HBOND_DONOR>
1

> <PUBCHEM_CACTVS_ROTATABLE_BOND>
1

> <PUBCHEM_CACTVS_SUBSKEYS>
AAADceB7AAAAAAAAAAAAAAAAAAAAAWLAAAA8YIAAAAAAAFgB9AAAHAAQAAAADSjBHgQwwPPJkACgAyRiRACCgCAhAiAImSA4ZJgIYOLAkZGUIAhgkADIyAcQgMAOgAAAAAACAAAAAAAAAAQAAAAAAAAAAA==

> <PUBCHEM_IUPAC_OPENEYE_NAME>
2-phenyl-2,3,5,6,11,11b-hexahydro-1H-indolizino[8,7-b]indole

> <PUBCHEM_IUPAC_CAS_NAME>
2-phenyl-2,3,5,6,11,11b-hexahydro-1H-indolizino[8,7-b]indole

> <PUBCHEM_IUPAC_NAME_MARKUP>
2-phenyl-2,3,5,6,11,11<I>b</I>-hexahydro-1<I>H</I>-indolizino[8,7-b]indole

> <PUBCHEM_IUPAC_NAME>
2-phenyl-2,3,5,6,11,11b-hexahydro-1H-indolizino[8,7-b]indole

> <PUBCHEM_IUPAC_SYSTEMATIC_NAME>
2-phenyl-2,3,5,6,11,11b-hexahydro-1H-indolizino[8,7-b]indole

> <PUBCHEM_IUPAC_TRADITIONAL_NAME>
2-phenyl-2,3,5,6,11,11b-hexahydro-1H-pyrrolo[2,1-a]beta-carboline

> <PUBCHEM_IUPAC_INCHI>
InChI=1S/C20H20N2/c1-2-6-14(7-3-1)15-12-19-20-17(10-11-22(19)13-15)16-8-4-5-9-18(16)21-20/h1-9,15,19,21H,10-13H2

> <PUBCHEM_IUPAC_INCHIKEY>
LCMWATPIENTMFH-UHFFFAOYSA-N

> <PUBCHEM_XLOGP3_AA>
3.9

> <PUBCHEM_EXACT_MASS>
288.162648646

> <PUBCHEM_MOLECULAR_FORMULA>
C20H20N2

> <PUBCHEM_MOLECULAR_WEIGHT>
288.4

> <PUBCHEM_OPENEYE_CAN_SMILES>
C1CN2CC(CC2C3=C1C4=CC=CC=C4N3)C5=CC=CC=C5

> <PUBCHEM_OPENEYE_ISO_SMILES>
C1CN2CC(CC2C3=C1C4=CC=CC=C4N3)C5=CC=CC=C5

> <PUBCHEM_CACTVS_TPSA>
19

> <PUBCHEM_MONOISOTOPIC_WEIGHT>
288.162648646

> <PUBCHEM_TOTAL_CHARGE>
0

> <PUBCHEM_HEAVY_ATOM_COUNT>
22

> <PUBCHEM_ATOM_DEF_STEREO_COUNT>
0

> <PUBCHEM_ATOM_UDEF_STEREO_COUNT>
2

> <PUBCHEM_BOND_DEF_STEREO_COUNT>
0

> <PUBCHEM_BOND_UDEF_STEREO_COUNT>
0

> <PUBCHEM_ISOTOPIC_ATOM_COUNT>
0

> <PUBCHEM_COMPONENT_COUNT>
1

> <PUBCHEM_CACTVS_TAUTO_COUNT>
-1

> <PUBCHEM_COORDINATE_TYPE>
1
5
255

> <PUBCHEM_BONDANNOTATIONS>
11  14  8
11  15  8
12  13  8
12  16  8
13  17  8
14  20  8
15  21  8
16  18  8
17  19  8
18  19  8
2  13  8
2  7  8
20  22  8
21  22  8
3  5  3
4  11  3
7  9  8
9  12  8

$$$$
