118719925
  -OEChem-09292322392D

 54 56  0     0  0  0  0  0  0999 V2000
    9.8622   -4.3623    0.0000 O   0  0  0  0  0  0  0  0  0  0  0  0
    6.3981    2.6377    0.0000 O   0  0  0  0  0  0  0  0  0  0  0  0
    6.3981   -0.3623    0.0000 N   0  0  0  0  0  0  0  0  0  0  0  0
    4.6660    2.6377    0.0000 N   0  0  0  0  0  0  0  0  0  0  0  0
    8.1301   -1.3623    0.0000 C   0  0  0  0  0  0  0  0  0  0  0  0
    8.1301   -0.3623    0.0000 C   0  0  0  0  0  0  0  0  0  0  0  0
    7.2641   -1.8623    0.0000 C   0  0  0  0  0  0  0  0  0  0  0  0
    7.2641    0.1377    0.0000 C   0  0  0  0  0  0  0  0  0  0  0  0
    6.3981   -1.3623    0.0000 C   0  0  0  0  0  0  0  0  0  0  0  0
    8.9962   -1.8623    0.0000 C   0  0  0  0  0  0  0  0  0  0  0  0
    5.5321    0.1377    0.0000 C   0  0  0  0  0  0  0  0  0  0  0  0
    5.5321    1.1377    0.0000 C   0  0  0  0  0  0  0  0  0  0  0  0
    8.9962   -2.8623    0.0000 C   0  0  0  0  0  0  0  0  0  0  0  0
    4.6660    1.6377    0.0000 C   0  0  0  0  0  0  0  0  0  0  0  0
    9.8622   -3.3623    0.0000 C   0  0  0  0  0  0  0  0  0  0  0  0
    3.8000    3.1377    0.0000 C   0  0  0  0  0  0  0  0  0  0  0  0
    5.5321    3.1377    0.0000 C   0  0  0  0  0  0  0  0  0  0  0  0
    5.5321    4.1377    0.0000 C   0  0  0  0  0  0  0  0  0  0  0  0
    3.8000    4.1377    0.0000 C   0  0  0  0  0  0  0  0  0  0  0  0
    4.6660    4.6377    0.0000 C   0  0  0  0  0  0  0  0  0  0  0  0
    2.9061    2.6030    0.0000 C   0  0  0  0  0  0  0  0  0  0  0  0
    2.9061    4.6723    0.0000 C   0  0  0  0  0  0  0  0  0  0  0  0
    2.0000    3.1168    0.0000 C   0  0  0  0  0  0  0  0  0  0  0  0
    2.0000    4.1585    0.0000 C   0  0  0  0  0  0  0  0  0  0  0  0
    8.1301   -1.9823    0.0000 H   0  0  0  0  0  0  0  0  0  0  0  0
    8.7407   -0.4700    0.0000 H   0  0  0  0  0  0  0  0  0  0  0  0
    8.3422    0.2203    0.0000 H   0  0  0  0  0  0  0  0  0  0  0  0
    6.8656   -2.3373    0.0000 H   0  0  0  0  0  0  0  0  0  0  0  0
    7.6626   -2.3373    0.0000 H   0  0  0  0  0  0  0  0  0  0  0  0
    7.6626    0.6126    0.0000 H   0  0  0  0  0  0  0  0  0  0  0  0
    6.8656    0.6126    0.0000 H   0  0  0  0  0  0  0  0  0  0  0  0
    5.7875   -1.2547    0.0000 H   0  0  0  0  0  0  0  0  0  0  0  0
    6.1860   -1.9449    0.0000 H   0  0  0  0  0  0  0  0  0  0  0  0
    9.6067   -1.9700    0.0000 H   0  0  0  0  0  0  0  0  0  0  0  0
    9.2082   -1.2797    0.0000 H   0  0  0  0  0  0  0  0  0  0  0  0
    4.9215    0.2453    0.0000 H   0  0  0  0  0  0  0  0  0  0  0  0
    5.3200   -0.4449    0.0000 H   0  0  0  0  0  0  0  0  0  0  0  0
    6.1426    1.0300    0.0000 H   0  0  0  0  0  0  0  0  0  0  0  0
    5.7441    1.7203    0.0000 H   0  0  0  0  0  0  0  0  0  0  0  0
    8.3856   -2.7547    0.0000 H   0  0  0  0  0  0  0  0  0  0  0  0
    8.7841   -3.4449    0.0000 H   0  0  0  0  0  0  0  0  0  0  0  0
    4.0555    1.7453    0.0000 H   0  0  0  0  0  0  0  0  0  0  0  0
    4.4540    1.0551    0.0000 H   0  0  0  0  0  0  0  0  0  0  0  0
   10.4728   -3.4700    0.0000 H   0  0  0  0  0  0  0  0  0  0  0  0
   10.0742   -2.7797    0.0000 H   0  0  0  0  0  0  0  0  0  0  0  0
    6.1426    4.0300    0.0000 H   0  0  0  0  0  0  0  0  0  0  0  0
    5.7441    4.7203    0.0000 H   0  0  0  0  0  0  0  0  0  0  0  0
    5.0646    5.1126    0.0000 H   0  0  0  0  0  0  0  0  0  0  0  0
    4.2675    5.1126    0.0000 H   0  0  0  0  0  0  0  0  0  0  0  0
    2.9132    1.9830    0.0000 H   0  0  0  0  0  0  0  0  0  0  0  0
    2.9132    5.2923    0.0000 H   0  0  0  0  0  0  0  0  0  0  0  0
   10.3991   -4.6723    0.0000 H   0  0  0  0  0  0  0  0  0  0  0  0
    1.4643    2.8048    0.0000 H   0  0  0  0  0  0  0  0  0  0  0  0
    1.4643    4.4706    0.0000 H   0  0  0  0  0  0  0  0  0  0  0  0
  1 15  1  0  0  0  0
  1 52  1  0  0  0  0
  2 17  2  0  0  0  0
  3  8  1  0  0  0  0
  3  9  1  0  0  0  0
  3 11  1  0  0  0  0
  4 14  1  0  0  0  0
  4 16  1  0  0  0  0
  4 17  1  0  0  0  0
  5  6  1  0  0  0  0
  5  7  1  0  0  0  0
  5 10  1  0  0  0  0
  5 25  1  0  0  0  0
  6  8  1  0  0  0  0
  6 26  1  0  0  0  0
  6 27  1  0  0  0  0
  7  9  1  0  0  0  0
  7 28  1  0  0  0  0
  7 29  1  0  0  0  0
  8 30  1  0  0  0  0
  8 31  1  0  0  0  0
  9 32  1  0  0  0  0
  9 33  1  0  0  0  0
 10 13  1  0  0  0  0
 10 34  1  0  0  0  0
 10 35  1  0  0  0  0
 11 12  1  0  0  0  0
 11 36  1  0  0  0  0
 11 37  1  0  0  0  0
 12 14  1  0  0  0  0
 12 38  1  0  0  0  0
 12 39  1  0  0  0  0
 13 15  1  0  0  0  0
 13 40  1  0  0  0  0
 13 41  1  0  0  0  0
 14 42  1  0  0  0  0
 14 43  1  0  0  0  0
 15 44  1  0  0  0  0
 15 45  1  0  0  0  0
 16 19  1  0  0  0  0
 16 21  2  0  0  0  0
 17 18  1  0  0  0  0
 18 20  1  0  0  0  0
 18 46  1  0  0  0  0
 18 47  1  0  0  0  0
 19 20  1  0  0  0  0
 19 22  2  0  0  0  0
 20 48  1  0  0  0  0
 20 49  1  0  0  0  0
 21 23  1  0  0  0  0
 21 50  1  0  0  0  0
 22 24  1  0  0  0  0
 22 51  1  0  0  0  0
 23 24  2  0  0  0  0
 23 53  1  0  0  0  0
 24 54  1  0  0  0  0
M  END
> <PUBCHEM_COMPOUND_CID>
118719925

> <PUBCHEM_COMPOUND_CANONICALIZED>
1

> <PUBCHEM_CACTVS_COMPLEXITY>
393

> <PUBCHEM_CACTVS_HBOND_ACCEPTOR>
3

> <PUBCHEM_CACTVS_HBOND_DONOR>
1

> <PUBCHEM_CACTVS_ROTATABLE_BOND>
7

> <PUBCHEM_CACTVS_SUBSKEYS>
AAADceB7MAAAAAAAAAAAAAAAAAAAAAAAAAA8WIAAAAAAAACxAAAAHgAACAAADQjhmAYwwIMAAgCIAiVSUACCAAAhAgAIiAEIZIgIMDLA0ZGEYAhkhgDIyAeYyYCeAAAAAAACAAAAAAAAAAQAAAAAAAAAAA==

> <PUBCHEM_IUPAC_OPENEYE_NAME>
1-[3-[4-(3-hydroxypropyl)-1-piperidyl]propyl]-3,4-dihydroquinolin-2-one

> <PUBCHEM_IUPAC_CAS_NAME>
1-[3-[4-(3-hydroxypropyl)-1-piperidinyl]propyl]-3,4-dihydroquinolin-2-one

> <PUBCHEM_IUPAC_NAME_MARKUP>
1-[3-[4-(3-hydroxypropyl)piperidin-1-yl]propyl]-3,4-dihydroquinolin-2-one

> <PUBCHEM_IUPAC_NAME>
1-[3-[4-(3-hydroxypropyl)piperidin-1-yl]propyl]-3,4-dihydroquinolin-2-one

> <PUBCHEM_IUPAC_SYSTEMATIC_NAME>
1-[3-[4-(3-oxidanylpropyl)piperidin-1-yl]propyl]-3,4-dihydroquinolin-2-one

> <PUBCHEM_IUPAC_TRADITIONAL_NAME>
1-[3-[4-(3-hydroxypropyl)piperidino]propyl]-3,4-dihydrocarbostyril

> <PUBCHEM_IUPAC_INCHI>
InChI=1S/C20H30N2O2/c23-16-3-5-17-10-14-21(15-11-17)12-4-13-22-19-7-2-1-6-18(19)8-9-20(22)24/h1-2,6-7,17,23H,3-5,8-16H2

> <PUBCHEM_IUPAC_INCHIKEY>
FKIOAWWWCGUPIH-UHFFFAOYSA-N

> <PUBCHEM_XLOGP3_AA>
2.4

> <PUBCHEM_EXACT_MASS>
330.230728204

> <PUBCHEM_MOLECULAR_FORMULA>
C20H30N2O2

> <PUBCHEM_MOLECULAR_WEIGHT>
330.5

> <PUBCHEM_OPENEYE_CAN_SMILES>
C1CN(CCC1CCCO)CCCN2C(=O)CCC3=CC=CC=C32

> <PUBCHEM_OPENEYE_ISO_SMILES>
C1CN(CCC1CCCO)CCCN2C(=O)CCC3=CC=CC=C32

> <PUBCHEM_CACTVS_TPSA>
43.8

> <PUBCHEM_MONOISOTOPIC_WEIGHT>
330.230728204

> <PUBCHEM_TOTAL_CHARGE>
0

> <PUBCHEM_HEAVY_ATOM_COUNT>
24

> <PUBCHEM_ATOM_DEF_STEREO_COUNT>
0

> <PUBCHEM_ATOM_UDEF_STEREO_COUNT>
0

> <PUBCHEM_BOND_DEF_STEREO_COUNT>
0

> <PUBCHEM_BOND_UDEF_STEREO_COUNT>
0

> <PUBCHEM_ISOTOPIC_ATOM_COUNT>
0

> <PUBCHEM_COMPONENT_COUNT>
1

> <PUBCHEM_CACTVS_TAUTO_COUNT>
-1

> <PUBCHEM_COORDINATE_TYPE>
1
5
255

> <PUBCHEM_BONDANNOTATIONS>
16  19  8
16  21  8
19  22  8
21  23  8
22  24  8
23  24  8

$$$$
