11311204
  -OEChem-09292322072D

 39 40  0     1  0  0  0  0  0999 V2000
    2.0000    1.1356    0.0000 O   0  0  0  0  0  0  0  0  0  0  0  0
    2.8660   -3.3644    0.0000 O   0  0  0  0  0  0  0  0  0  0  0  0
    3.7320    2.1356    0.0000 N   0  0  0  0  0  0  0  0  0  0  0  0
    3.7320    1.1356    0.0000 C   0  0  3  0  0  0  0  0  0  0  0  0
    4.5411    2.7234    0.0000 C   0  0  0  0  0  0  0  0  0  0  0  0
    2.9230    2.7234    0.0000 C   0  0  0  0  0  0  0  0  0  0  0  0
    4.2320    3.6744    0.0000 C   0  0  0  0  0  0  0  0  0  0  0  0
    3.2320    3.6744    0.0000 C   0  0  0  0  0  0  0  0  0  0  0  0
    4.5981    0.6356    0.0000 C   0  0  0  0  0  0  0  0  0  0  0  0
    2.8660    0.6356    0.0000 C   0  0  0  0  0  0  0  0  0  0  0  0
    5.4641    1.1356    0.0000 C   0  0  0  0  0  0  0  0  0  0  0  0
    2.8660   -0.3644    0.0000 C   0  0  0  0  0  0  0  0  0  0  0  0
    6.3301    0.6356    0.0000 C   0  0  0  0  0  0  0  0  0  0  0  0
    3.7320   -0.8644    0.0000 C   0  0  0  0  0  0  0  0  0  0  0  0
    2.0000   -0.8644    0.0000 C   0  0  0  0  0  0  0  0  0  0  0  0
    3.7320   -1.8644    0.0000 C   0  0  0  0  0  0  0  0  0  0  0  0
    2.0000   -1.8644    0.0000 C   0  0  0  0  0  0  0  0  0  0  0  0
    2.8660   -2.3644    0.0000 C   0  0  0  0  0  0  0  0  0  0  0  0
    4.2690    1.4456    0.0000 H   0  0  0  0  0  0  0  0  0  0  0  0
    4.8511    2.1864    0.0000 H   0  0  0  0  0  0  0  0  0  0  0  0
    5.1075    2.9755    0.0000 H   0  0  0  0  0  0  0  0  0  0  0  0
    2.3566    2.9755    0.0000 H   0  0  0  0  0  0  0  0  0  0  0  0
    2.6130    2.1864    0.0000 H   0  0  0  0  0  0  0  0  0  0  0  0
    4.8385    3.8033    0.0000 H   0  0  0  0  0  0  0  0  0  0  0  0
    4.1672    4.2910    0.0000 H   0  0  0  0  0  0  0  0  0  0  0  0
    3.2969    4.2910    0.0000 H   0  0  0  0  0  0  0  0  0  0  0  0
    2.6256    3.8033    0.0000 H   0  0  0  0  0  0  0  0  0  0  0  0
    4.1996    0.1606    0.0000 H   0  0  0  0  0  0  0  0  0  0  0  0
    4.9966    0.1606    0.0000 H   0  0  0  0  0  0  0  0  0  0  0  0
    5.8626    1.6105    0.0000 H   0  0  0  0  0  0  0  0  0  0  0  0
    5.0656    1.6105    0.0000 H   0  0  0  0  0  0  0  0  0  0  0  0
    6.0201    0.0986    0.0000 H   0  0  0  0  0  0  0  0  0  0  0  0
    6.8671    0.3256    0.0000 H   0  0  0  0  0  0  0  0  0  0  0  0
    6.6401    1.1725    0.0000 H   0  0  0  0  0  0  0  0  0  0  0  0
    4.2690   -0.5544    0.0000 H   0  0  0  0  0  0  0  0  0  0  0  0
    1.4631   -0.5544    0.0000 H   0  0  0  0  0  0  0  0  0  0  0  0
    4.2690   -2.1744    0.0000 H   0  0  0  0  0  0  0  0  0  0  0  0
    1.4631   -2.1744    0.0000 H   0  0  0  0  0  0  0  0  0  0  0  0
    2.3291   -3.6744    0.0000 H   0  0  0  0  0  0  0  0  0  0  0  0
  1 10  2  0  0  0  0
  2 18  1  0  0  0  0
  2 39  1  0  0  0  0
  3  4  1  0  0  0  0
  3  5  1  0  0  0  0
  3  6  1  0  0  0  0
  4  9  1  0  0  0  0
  4 10  1  0  0  0  0
  4 19  1  0  0  0  0
  5  7  1  0  0  0  0
  5 20  1  0  0  0  0
  5 21  1  0  0  0  0
  6  8  1  0  0  0  0
  6 22  1  0  0  0  0
  6 23  1  0  0  0  0
  7  8  1  0  0  0  0
  7 24  1  0  0  0  0
  7 25  1  0  0  0  0
  8 26  1  0  0  0  0
  8 27  1  0  0  0  0
  9 11  1  0  0  0  0
  9 28  1  0  0  0  0
  9 29  1  0  0  0  0
 10 12  1  0  0  0  0
 11 13  1  0  0  0  0
 11 30  1  0  0  0  0
 11 31  1  0  0  0  0
 12 14  2  0  0  0  0
 12 15  1  0  0  0  0
 13 32  1  0  0  0  0
 13 33  1  0  0  0  0
 13 34  1  0  0  0  0
 14 16  1  0  0  0  0
 14 35  1  0  0  0  0
 15 17  2  0  0  0  0
 15 36  1  0  0  0  0
 16 18  2  0  0  0  0
 16 37  1  0  0  0  0
 17 18  1  0  0  0  0
 17 38  1  0  0  0  0
M  END
> <PUBCHEM_COMPOUND_CID>
11311204

> <PUBCHEM_COMPOUND_CANONICALIZED>
1

> <PUBCHEM_CACTVS_COMPLEXITY>
266

> <PUBCHEM_CACTVS_HBOND_ACCEPTOR>
3

> <PUBCHEM_CACTVS_HBOND_DONOR>
1

> <PUBCHEM_CACTVS_ROTATABLE_BOND>
5

> <PUBCHEM_CACTVS_SUBSKEYS>
AAADceByMAAAAAAAAAAAAAAAAAAAAWAAAAAwAAAAAAAAAAABAAAAHgAACAAADCzBmAQyBoMAAgCIAqBSAAACAAAkIAAIiAGOCMgIJjKClTOEcQAkwBGImYeYzODOIAAAAAAAAABAAAAAAAAAAAAAAAAAAA==

> <PUBCHEM_IUPAC_OPENEYE_NAME>
1-(4-hydroxyphenyl)-2-pyrrolidin-1-yl-pentan-1-one

> <PUBCHEM_IUPAC_CAS_NAME>
1-(4-hydroxyphenyl)-2-(1-pyrrolidinyl)-1-pentanone

> <PUBCHEM_IUPAC_NAME_MARKUP>
1-(4-hydroxyphenyl)-2-pyrrolidin-1-ylpentan-1-one

> <PUBCHEM_IUPAC_NAME>
1-(4-hydroxyphenyl)-2-pyrrolidin-1-ylpentan-1-one

> <PUBCHEM_IUPAC_SYSTEMATIC_NAME>
1-(4-hydroxyphenyl)-2-pyrrolidin-1-yl-pentan-1-one

> <PUBCHEM_IUPAC_TRADITIONAL_NAME>
1-(4-hydroxyphenyl)-2-pyrrolidino-pentan-1-one

> <PUBCHEM_IUPAC_INCHI>
InChI=1S/C15H21NO2/c1-2-5-14(16-10-3-4-11-16)15(18)12-6-8-13(17)9-7-12/h6-9,14,17H,2-5,10-11H2,1H3

> <PUBCHEM_IUPAC_INCHIKEY>
XCHIECWEKDGHNL-UHFFFAOYSA-N

> <PUBCHEM_XLOGP3_AA>
3.1

> <PUBCHEM_EXACT_MASS>
247.157228913

> <PUBCHEM_MOLECULAR_FORMULA>
C15H21NO2

> <PUBCHEM_MOLECULAR_WEIGHT>
247.33

> <PUBCHEM_OPENEYE_CAN_SMILES>
CCCC(C(=O)C1=CC=C(C=C1)O)N2CCCC2

> <PUBCHEM_OPENEYE_ISO_SMILES>
CCCC(C(=O)C1=CC=C(C=C1)O)N2CCCC2

> <PUBCHEM_CACTVS_TPSA>
40.5

> <PUBCHEM_MONOISOTOPIC_WEIGHT>
247.157228913

> <PUBCHEM_TOTAL_CHARGE>
0

> <PUBCHEM_HEAVY_ATOM_COUNT>
18

> <PUBCHEM_ATOM_DEF_STEREO_COUNT>
0

> <PUBCHEM_ATOM_UDEF_STEREO_COUNT>
1

> <PUBCHEM_BOND_DEF_STEREO_COUNT>
0

> <PUBCHEM_BOND_UDEF_STEREO_COUNT>
0

> <PUBCHEM_ISOTOPIC_ATOM_COUNT>
0

> <PUBCHEM_COMPONENT_COUNT>
1

> <PUBCHEM_CACTVS_TAUTO_COUNT>
-1

> <PUBCHEM_COORDINATE_TYPE>
1
5
255

> <PUBCHEM_BONDANNOTATIONS>
12  14  8
12  15  8
14  16  8
15  17  8
16  18  8
17  18  8
4  9  3

$$$$
