121315197
  -OEChem-09292322372D

 62 66  0     1  0  0  0  0  0999 V2000
    2.0933    2.8533    0.0000 S   0  0  0  0  0  0  0  0  0  0  0  0
    8.3733   -6.3057    0.0000 F   0  0  0  0  0  0  0  0  0  0  0  0
    7.0072   -6.6717    0.0000 F   0  0  0  0  0  0  0  0  0  0  0  0
    8.0073   -4.9397    0.0000 F   0  0  0  0  0  0  0  0  0  0  0  0
    4.5532    6.4638    0.0000 O   0  0  0  0  0  0  0  0  0  0  0  0
    3.0431   -1.4008    0.0000 N   0  0  3  0  0  0  0  0  0  0  0  0
    3.4782    3.9748    0.0000 N   0  0  0  0  0  0  0  0  0  0  0  0
    2.0000    4.6329    0.0000 N   0  0  0  0  0  0  0  0  0  0  0  0
    2.6691    5.3760    0.0000 N   0  0  0  0  0  0  0  0  0  0  0  0
    6.0314    5.8057    0.0000 N   0  0  0  0  0  0  0  0  0  0  0  0
    3.5432   -2.9397    0.0000 C   0  0  2  0  0  0  0  0  0  0  0  0
    4.0432   -3.8057    0.0000 C   0  0  2  0  0  0  0  0  0  0  0  0
    3.0431   -3.8057    0.0000 C   0  0  0  0  0  0  0  0  0  0  0  0
    4.3522   -2.3519    0.0000 C   0  0  0  0  0  0  0  0  0  0  0  0
    2.7341   -2.3519    0.0000 C   0  0  0  0  0  0  0  0  0  0  0  0
    4.0432   -1.4008    0.0000 C   0  0  0  0  0  0  0  0  0  0  0  0
    4.9092   -4.3057    0.0000 C   0  0  0  0  0  0  0  0  0  0  0  0
    2.4554   -0.5918    0.0000 C   0  0  0  0  0  0  0  0  0  0  0  0
    5.7752   -3.8057    0.0000 C   0  0  0  0  0  0  0  0  0  0  0  0
    4.9092   -5.3057    0.0000 C   0  0  0  0  0  0  0  0  0  0  0  0
    2.8621    0.3217    0.0000 C   0  0  0  0  0  0  0  0  0  0  0  0
    6.6412   -4.3057    0.0000 C   0  0  0  0  0  0  0  0  0  0  0  0
    5.7752   -5.8057    0.0000 C   0  0  0  0  0  0  0  0  0  0  0  0
    2.2743    1.1308    0.0000 C   0  0  0  0  0  0  0  0  0  0  0  0
    6.6412   -5.3057    0.0000 C   0  0  0  0  0  0  0  0  0  0  0  0
    2.6810    2.0443    0.0000 C   0  0  0  0  0  0  0  0  0  0  0  0
    7.5072   -5.8057    0.0000 C   0  0  0  0  0  0  0  0  0  0  0  0
    2.5000    3.7669    0.0000 C   0  0  0  0  0  0  0  0  0  0  0  0
    3.5827    4.9693    0.0000 C   0  0  0  0  0  0  0  0  0  0  0  0
    4.2213    3.3056    0.0000 C   0  0  0  0  0  0  0  0  0  0  0  0
    4.4487    5.4693    0.0000 C   0  0  0  0  0  0  0  0  0  0  0  0
    5.3623    5.0626    0.0000 C   0  0  0  0  0  0  0  0  0  0  0  0
    5.5702    4.0844    0.0000 C   0  0  0  0  0  0  0  0  0  0  0  0
    5.5314    6.6717    0.0000 C   0  0  0  0  0  0  0  0  0  0  0  0
    3.8827   -4.4046    0.0000 H   0  0  0  0  0  0  0  0  0  0  0  0
    2.4605   -3.5936    0.0000 H   0  0  0  0  0  0  0  0  0  0  0  0
    2.9355   -4.4163    0.0000 H   0  0  0  0  0  0  0  0  0  0  0  0
    4.6622   -2.8888    0.0000 H   0  0  0  0  0  0  0  0  0  0  0  0
    4.9186   -2.0997    0.0000 H   0  0  0  0  0  0  0  0  0  0  0  0
    2.1677   -2.0997    0.0000 H   0  0  0  0  0  0  0  0  0  0  0  0
    2.4241   -2.8888    0.0000 H   0  0  0  0  0  0  0  0  0  0  0  0
    4.6496   -1.2719    0.0000 H   0  0  0  0  0  0  0  0  0  0  0  0
    3.9783   -0.7842    0.0000 H   0  0  0  0  0  0  0  0  0  0  0  0
    1.9414   -0.2451    0.0000 H   0  0  0  0  0  0  0  0  0  0  0  0
    2.0247   -1.0378    0.0000 H   0  0  0  0  0  0  0  0  0  0  0  0
    5.7752   -3.1857    0.0000 H   0  0  0  0  0  0  0  0  0  0  0  0
    4.3722   -5.6157    0.0000 H   0  0  0  0  0  0  0  0  0  0  0  0
    3.3761   -0.0250    0.0000 H   0  0  0  0  0  0  0  0  0  0  0  0
    3.2928    0.7677    0.0000 H   0  0  0  0  0  0  0  0  0  0  0  0
    7.1782   -3.9957    0.0000 H   0  0  0  0  0  0  0  0  0  0  0  0
    5.7752   -6.4257    0.0000 H   0  0  0  0  0  0  0  0  0  0  0  0
    1.7603    1.4774    0.0000 H   0  0  0  0  0  0  0  0  0  0  0  0
    1.8436    0.6848    0.0000 H   0  0  0  0  0  0  0  0  0  0  0  0
    3.1950    1.6976    0.0000 H   0  0  0  0  0  0  0  0  0  0  0  0
    3.1117    2.4903    0.0000 H   0  0  0  0  0  0  0  0  0  0  0  0
    3.8064    2.8449    0.0000 H   0  0  0  0  0  0  0  0  0  0  0  0
    4.6820    2.8908    0.0000 H   0  0  0  0  0  0  0  0  0  0  0  0
    4.6362    3.7664    0.0000 H   0  0  0  0  0  0  0  0  0  0  0  0
    4.9637    3.9555    0.0000 H   0  0  0  0  0  0  0  0  0  0  0  0
    5.6991    3.4780    0.0000 H   0  0  0  0  0  0  0  0  0  0  0  0
    6.1766    4.2133    0.0000 H   0  0  0  0  0  0  0  0  0  0  0  0
    5.7836    7.2381    0.0000 H   0  0  0  0  0  0  0  0  0  0  0  0
  1 26  1  0  0  0  0
  1 28  1  0  0  0  0
  2 27  1  0  0  0  0
  3 27  1  0  0  0  0
  4 27  1  0  0  0  0
  5 31  1  0  0  0  0
  5 34  1  0  0  0  0
  6 15  1  0  0  0  0
  6 16  1  0  0  0  0
  6 18  1  0  0  0  0
  7 28  1  0  0  0  0
  7 29  1  0  0  0  0
  7 30  1  0  0  0  0
  8  9  1  0  0  0  0
  8 28  2  0  0  0  0
  9 29  2  0  0  0  0
 10 32  1  0  0  0  0
 10 34  2  0  0  0  0
 11 12  1  0  0  0  0
 11 13  1  6  0  0  0
 11 14  1  0  0  0  0
 11 15  1  0  0  0  0
 12 13  1  0  0  0  0
 12 17  1  1  0  0  0
 12 35  1  0  0  0  0
 13 36  1  0  0  0  0
 13 37  1  0  0  0  0
 14 16  1  0  0  0  0
 14 38  1  0  0  0  0
 14 39  1  0  0  0  0
 15 40  1  0  0  0  0
 15 41  1  0  0  0  0
 16 42  1  0  0  0  0
 16 43  1  0  0  0  0
 17 19  2  0  0  0  0
 17 20  1  0  0  0  0
 18 21  1  0  0  0  0
 18 44  1  0  0  0  0
 18 45  1  0  0  0  0
 19 22  1  0  0  0  0
 19 46  1  0  0  0  0
 20 23  2  0  0  0  0
 20 47  1  0  0  0  0
 21 24  1  0  0  0  0
 21 48  1  0  0  0  0
 21 49  1  0  0  0  0
 22 25  2  0  0  0  0
 22 50  1  0  0  0  0
 23 25  1  0  0  0  0
 23 51  1  0  0  0  0
 24 26  1  0  0  0  0
 24 52  1  0  0  0  0
 24 53  1  0  0  0  0
 25 27  1  0  0  0  0
 26 54  1  0  0  0  0
 26 55  1  0  0  0  0
 29 31  1  0  0  0  0
 30 56  1  0  0  0  0
 30 57  1  0  0  0  0
 30 58  1  0  0  0  0
 31 32  2  0  0  0  0
 32 33  1  0  0  0  0
 33 59  1  0  0  0  0
 33 60  1  0  0  0  0
 33 61  1  0  0  0  0
 34 62  1  0  0  0  0
M  END
> <PUBCHEM_COMPOUND_CID>
121315197

> <PUBCHEM_COMPOUND_CANONICALIZED>
1

> <PUBCHEM_CACTVS_COMPLEXITY>
694

> <PUBCHEM_CACTVS_HBOND_ACCEPTOR>
9

> <PUBCHEM_CACTVS_HBOND_DONOR>
0

> <PUBCHEM_CACTVS_ROTATABLE_BOND>
8

> <PUBCHEM_CACTVS_SUBSKEYS>
AAADceB7oYBAAAAAAAAAAAAAGAAAAWLFgAAwAAAAAAAAAAAB8AAAHwQIAAAADwzF3xa3lJcMFEiqA6Zz9ASS2Ct7YLAd2CG9RJiOKCLk2TCNIChgjALYiAcQgMAPwAAAAAAAAACAAAAAAAAAAAAAAAAAAA==

> <PUBCHEM_IUPAC_OPENEYE_NAME>
4-methyl-5-[4-methyl-5-[4-[(2R,3S)-2-[4-(trifluoromethyl)phenyl]-5-azaspiro[2.4]heptan-5-yl]butylsulfanyl]-1,2,4-triazol-3-yl]oxazole

> <PUBCHEM_IUPAC_CAS_NAME>
4-methyl-5-[4-methyl-5-[4-[(2R,3S)-2-[4-(trifluoromethyl)phenyl]-5-azaspiro[2.4]heptan-5-yl]butylthio]-1,2,4-triazol-3-yl]oxazole

> <PUBCHEM_IUPAC_NAME_MARKUP>
4-methyl-5-[4-methyl-5-[4-[(2<I>R</I>,3<I>S</I>)-2-[4-(trifluoromethyl)phenyl]-5-azaspiro[2.4]heptan-5-yl]butylsulfanyl]-1,2,4-triazol-3-yl]-1,3-oxazole

> <PUBCHEM_IUPAC_NAME>
4-methyl-5-[4-methyl-5-[4-[(2R,3S)-2-[4-(trifluoromethyl)phenyl]-5-azaspiro[2.4]heptan-5-yl]butylsulfanyl]-1,2,4-triazol-3-yl]-1,3-oxazole

> <PUBCHEM_IUPAC_SYSTEMATIC_NAME>
4-methyl-5-[4-methyl-5-[4-[(2R,3S)-2-[4-(trifluoromethyl)phenyl]-5-azaspiro[2.4]heptan-5-yl]butylsulfanyl]-1,2,4-triazol-3-yl]-1,3-oxazole

> <PUBCHEM_IUPAC_TRADITIONAL_NAME>
4-methyl-5-[4-methyl-5-[4-[(2R,3S)-2-[4-(trifluoromethyl)phenyl]-5-azaspiro[2.4]heptan-5-yl]butylthio]-1,2,4-triazol-3-yl]oxazole

> <PUBCHEM_IUPAC_INCHI>
InChI=1S/C24H28F3N5OS/c1-16-20(33-15-28-16)21-29-30-22(31(21)2)34-12-4-3-10-32-11-9-23(14-32)13-19(23)17-5-7-18(8-6-17)24(25,26)27/h5-8,15,19H,3-4,9-14H2,1-2H3/t19-,23+/m1/s1

> <PUBCHEM_IUPAC_INCHIKEY>
NLRLHXJCWYCRGC-XXBNENTESA-N

> <PUBCHEM_XLOGP3_AA>
4.5

> <PUBCHEM_EXACT_MASS>
491.19666619

> <PUBCHEM_MOLECULAR_FORMULA>
C24H28F3N5OS

> <PUBCHEM_MOLECULAR_WEIGHT>
491.6

> <PUBCHEM_OPENEYE_CAN_SMILES>
CC1=C(OC=N1)C2=NN=C(N2C)SCCCCN3CCC4(C3)CC4C5=CC=C(C=C5)C(F)(F)F

> <PUBCHEM_OPENEYE_ISO_SMILES>
CC1=C(OC=N1)C2=NN=C(N2C)SCCCCN3CC[C@@]4(C3)C[C@@H]4C5=CC=C(C=C5)C(F)(F)F

> <PUBCHEM_CACTVS_TPSA>
85.3

> <PUBCHEM_MONOISOTOPIC_WEIGHT>
491.19666619

> <PUBCHEM_TOTAL_CHARGE>
0

> <PUBCHEM_HEAVY_ATOM_COUNT>
34

> <PUBCHEM_ATOM_DEF_STEREO_COUNT>
2

> <PUBCHEM_ATOM_UDEF_STEREO_COUNT>
0

> <PUBCHEM_BOND_DEF_STEREO_COUNT>
0

> <PUBCHEM_BOND_UDEF_STEREO_COUNT>
0

> <PUBCHEM_ISOTOPIC_ATOM_COUNT>
0

> <PUBCHEM_COMPONENT_COUNT>
1

> <PUBCHEM_CACTVS_TAUTO_COUNT>
-1

> <PUBCHEM_COORDINATE_TYPE>
1
5
255

> <PUBCHEM_BONDANNOTATIONS>
10  32  8
10  34  8
11  13  6
12  17  5
17  19  8
17  20  8
19  22  8
20  23  8
22  25  8
23  25  8
31  32  8
5  31  8
5  34  8
7  28  8
7  29  8
8  28  8
8  9  8
9  29  8

$$$$
