13720695
  -OEChem-09292322032D

 49 50  0     1  0  0  0  0  0999 V2000
    3.6014    0.0000    0.0000 Cl  0  0  0  0  0  0  0  0  0  0  0  0
    7.6647    4.1504    0.0000 O   0  0  0  0  0  0  0  0  0  0  0  0
    7.6647    6.1987    0.0000 O   0  0  0  0  0  0  0  0  0  0  0  0
    5.1089   10.1978    0.0000 O   0  0  0  0  0  0  0  0  0  0  0  0
    2.8100    5.1746    0.0000 N   0  0  3  0  0  0  0  0  0  0  0  0
    4.2188    6.2981    0.0000 C   0  0  3  0  0  0  0  0  0  0  0  0
    3.2439    6.0755    0.0000 C   0  0  0  0  0  0  0  0  0  0  0  0
    5.0006    5.6746    0.0000 C   0  0  0  0  0  0  0  0  0  0  0  0
    5.0006    4.6746    0.0000 C   0  0  0  0  0  0  0  0  0  0  0  0
    3.2439    4.2736    0.0000 C   0  0  0  0  0  0  0  0  0  0  0  0
    4.2188    4.0511    0.0000 C   0  0  0  0  0  0  0  0  0  0  0  0
    4.4413    7.2730    0.0000 C   0  0  0  0  0  0  0  0  0  0  0  0
    5.8946    4.1399    0.0000 C   0  0  0  0  0  0  0  0  0  0  0  0
    1.8100    5.1746    0.0000 C   0  0  0  0  0  0  0  0  0  0  0  0
    5.8946    6.2092    0.0000 C   0  0  0  0  0  0  0  0  0  0  0  0
    6.8006    4.6537    0.0000 C   0  0  0  0  0  0  0  0  0  0  0  0
    6.8006    5.6954    0.0000 C   0  0  0  0  0  0  0  0  0  0  0  0
    3.7083    7.9532    0.0000 C   0  0  0  0  0  0  0  0  0  0  0  0
    5.3969    7.5677    0.0000 C   0  0  0  0  0  0  0  0  0  0  0  0
    5.8830    3.1400    0.0000 C   0  0  0  0  0  0  0  0  0  0  0  0
    1.3100    4.3085    0.0000 C   0  0  0  0  0  0  0  0  0  0  0  0
    3.9308    8.9281    0.0000 C   0  0  0  0  0  0  0  0  0  0  0  0
    5.6194    8.5427    0.0000 C   0  0  0  0  0  0  0  0  0  0  0  0
    4.8864    9.2228    0.0000 C   0  0  0  0  0  0  0  0  0  0  0  0
    0.3100    4.3085    0.0000 C   0  0  0  0  0  0  0  0  0  0  0  0
    3.7804    6.7365    0.0000 H   0  0  0  0  0  0  0  0  0  0  0  0
    3.2439    6.6955    0.0000 H   0  0  0  0  0  0  0  0  0  0  0  0
    2.6394    6.2135    0.0000 H   0  0  0  0  0  0  0  0  0  0  0  0
    2.6394    4.1356    0.0000 H   0  0  0  0  0  0  0  0  0  0  0  0
    3.2439    3.6536    0.0000 H   0  0  0  0  0  0  0  0  0  0  0  0
    3.9498    3.4925    0.0000 H   0  0  0  0  0  0  0  0  0  0  0  0
    4.7036    3.6645    0.0000 H   0  0  0  0  0  0  0  0  0  0  0  0
    1.9177    5.7852    0.0000 H   0  0  0  0  0  0  0  0  0  0  0  0
    1.2274    5.3866    0.0000 H   0  0  0  0  0  0  0  0  0  0  0  0
    5.8874    6.8292    0.0000 H   0  0  0  0  0  0  0  0  0  0  0  0
    3.1158    7.7704    0.0000 H   0  0  0  0  0  0  0  0  0  0  0  0
    5.8514    7.1460    0.0000 H   0  0  0  0  0  0  0  0  0  0  0  0
    5.2631    3.1471    0.0000 H   0  0  0  0  0  0  0  0  0  0  0  0
    5.8758    2.5200    0.0000 H   0  0  0  0  0  0  0  0  0  0  0  0
    6.5030    3.1328    0.0000 H   0  0  0  0  0  0  0  0  0  0  0  0
    1.6200    3.7716    0.0000 H   0  0  0  0  0  0  0  0  0  0  0  0
    3.4763    9.3498    0.0000 H   0  0  0  0  0  0  0  0  0  0  0  0
    6.2119    8.7254    0.0000 H   0  0  0  0  0  0  0  0  0  0  0  0
    7.6624    3.5304    0.0000 H   0  0  0  0  0  0  0  0  0  0  0  0
    8.2029    5.8908    0.0000 H   0  0  0  0  0  0  0  0  0  0  0  0
    0.0000    4.8455    0.0000 H   0  0  0  0  0  0  0  0  0  0  0  0
    0.0000    3.7716    0.0000 H   0  0  0  0  0  0  0  0  0  0  0  0
    4.6544   10.6195    0.0000 H   0  0  0  0  0  0  0  0  0  0  0  0
    4.6014    0.0000    0.0000 H   0  0  0  0  0  0  0  0  0  0  0  0
  1 49  1  0  0  0  0
  2 16  1  0  0  0  0
  2 44  1  0  0  0  0
  3 17  1  0  0  0  0
  3 45  1  0  0  0  0
  4 24  1  0  0  0  0
  4 48  1  0  0  0  0
  5  7  1  0  0  0  0
  5 10  1  0  0  0  0
  5 14  1  0  0  0  0
  6  7  1  0  0  0  0
  6  8  1  0  0  0  0
  6 12  1  0  0  0  0
  6 26  1  0  0  0  0
  7 27  1  0  0  0  0
  7 28  1  0  0  0  0
  8  9  1  0  0  0  0
  8 15  2  0  0  0  0
  9 11  1  0  0  0  0
  9 13  2  0  0  0  0
 10 11  1  0  0  0  0
 10 29  1  0  0  0  0
 10 30  1  0  0  0  0
 11 31  1  0  0  0  0
 11 32  1  0  0  0  0
 12 18  2  0  0  0  0
 12 19  1  0  0  0  0
 13 16  1  0  0  0  0
 13 20  1  0  0  0  0
 14 21  1  0  0  0  0
 14 33  1  0  0  0  0
 14 34  1  0  0  0  0
 15 17  1  0  0  0  0
 15 35  1  0  0  0  0
 16 17  2  0  0  0  0
 18 22  1  0  0  0  0
 18 36  1  0  0  0  0
 19 23  2  0  0  0  0
 19 37  1  0  0  0  0
 20 38  1  0  0  0  0
 20 39  1  0  0  0  0
 20 40  1  0  0  0  0
 21 25  2  0  0  0  0
 21 41  1  0  0  0  0
 22 24  2  0  0  0  0
 22 42  1  0  0  0  0
 23 24  1  0  0  0  0
 23 43  1  0  0  0  0
 25 46  1  0  0  0  0
 25 47  1  0  0  0  0
M  END
> <PUBCHEM_COMPOUND_CID>
13720695

> <PUBCHEM_COMPOUND_CANONICALIZED>
1

> <PUBCHEM_CACTVS_COMPLEXITY>
421

> <PUBCHEM_CACTVS_HBOND_ACCEPTOR>
4

> <PUBCHEM_CACTVS_HBOND_DONOR>
4

> <PUBCHEM_CACTVS_ROTATABLE_BOND>
3

> <PUBCHEM_CACTVS_SUBSKEYS>
AAADceB6MAAEAAAAAAAAAAAAAAAAAAAAAAAwYAAABYAAAAABQAAAHgAACAAADQTBmAQyBoMAAgCAAiBCAACCAAAgIAAIiAAOiIgJJiKCkROEcAEkwBGJmAeQ0PIOoAADAAAYQABAAAYAADCAAAAAAAAAAA==

> <PUBCHEM_IUPAC_OPENEYE_NAME>
3-allyl-5-(4-hydroxyphenyl)-9-methyl-1,2,4,5-tetrahydro-3-benzazepine-7,8-diol;hydrochloride

> <PUBCHEM_IUPAC_CAS_NAME>
5-(4-hydroxyphenyl)-9-methyl-3-prop-2-enyl-1,2,4,5-tetrahydro-3-benzazepine-7,8-diol;hydrochloride

> <PUBCHEM_IUPAC_NAME_MARKUP>
5-(4-hydroxyphenyl)-9-methyl-3-prop-2-enyl-1,2,4,5-tetrahydro-3-benzazepine-7,8-diol;hydrochloride

> <PUBCHEM_IUPAC_NAME>
5-(4-hydroxyphenyl)-9-methyl-3-prop-2-enyl-1,2,4,5-tetrahydro-3-benzazepine-7,8-diol;hydrochloride

> <PUBCHEM_IUPAC_SYSTEMATIC_NAME>
5-(4-hydroxyphenyl)-9-methyl-3-prop-2-enyl-1,2,4,5-tetrahydro-3-benzazepine-7,8-diol;hydrochloride

> <PUBCHEM_IUPAC_TRADITIONAL_NAME>
3-allyl-5-(4-hydroxyphenyl)-9-methyl-1,2,4,5-tetrahydro-3-benzazepine-7,8-diol;hydrochloride

> <PUBCHEM_IUPAC_INCHI>
InChI=1S/C20H23NO3.ClH/c1-3-9-21-10-8-16-13(2)20(24)19(23)11-17(16)18(12-21)14-4-6-15(22)7-5-14;/h3-7,11,18,22-24H,1,8-10,12H2,2H3;1H

> <PUBCHEM_IUPAC_INCHIKEY>
QQKLGXWZFLCGEI-UHFFFAOYSA-N

> <PUBCHEM_EXACT_MASS>
361.1444713

> <PUBCHEM_MOLECULAR_FORMULA>
C20H24ClNO3

> <PUBCHEM_MOLECULAR_WEIGHT>
361.9

> <PUBCHEM_OPENEYE_CAN_SMILES>
CC1=C2CCN(CC(C2=CC(=C1O)O)C3=CC=C(C=C3)O)CC=C.Cl

> <PUBCHEM_OPENEYE_ISO_SMILES>
CC1=C2CCN(CC(C2=CC(=C1O)O)C3=CC=C(C=C3)O)CC=C.Cl

> <PUBCHEM_CACTVS_TPSA>
63.9

> <PUBCHEM_MONOISOTOPIC_WEIGHT>
361.1444713

> <PUBCHEM_TOTAL_CHARGE>
0

> <PUBCHEM_HEAVY_ATOM_COUNT>
25

> <PUBCHEM_ATOM_DEF_STEREO_COUNT>
0

> <PUBCHEM_ATOM_UDEF_STEREO_COUNT>
1

> <PUBCHEM_BOND_DEF_STEREO_COUNT>
0

> <PUBCHEM_BOND_UDEF_STEREO_COUNT>
0

> <PUBCHEM_ISOTOPIC_ATOM_COUNT>
0

> <PUBCHEM_COMPONENT_COUNT>
2

> <PUBCHEM_CACTVS_TAUTO_COUNT>
-1

> <PUBCHEM_COORDINATE_TYPE>
1
5
255

> <PUBCHEM_BONDANNOTATIONS>
12  18  8
12  19  8
13  16  8
15  17  8
16  17  8
18  22  8
19  23  8
22  24  8
23  24  8
6  12  3
8  15  8
8  9  8
9  13  8

$$$$
