155563919
  -OEChem-09292322082D

 61 65  0     1  0  0  0  0  0999 V2000
   13.3224    0.3316    0.0000 O   0  0  0  0  0  0  0  0  0  0  0  0
    7.2602    0.8316    0.0000 N   0  0  3  0  0  0  0  0  0  0  0  0
   12.4564   -1.1684    0.0000 N   0  0  0  0  0  0  0  0  0  0  0  0
   15.0962   -0.7633    0.0000 N   0  0  0  0  0  0  0  0  0  0  0  0
   15.2633   -2.3663    0.0000 N   0  0  0  0  0  0  0  0  0  0  0  0
    2.0000   -0.1959    0.0000 N   0  0  0  0  0  0  0  0  0  0  0  0
    9.8583    0.3316    0.0000 C   0  0  0  0  0  0  0  0  0  0  0  0
    9.8583   -0.6684    0.0000 C   0  0  0  0  0  0  0  0  0  0  0  0
   10.7243    0.8316    0.0000 C   0  0  0  0  0  0  0  0  0  0  0  0
   11.5904   -0.6684    0.0000 C   0  0  0  0  0  0  0  0  0  0  0  0
   10.7243   -1.1684    0.0000 C   0  0  0  0  0  0  0  0  0  0  0  0
   11.5904    0.3316    0.0000 C   0  0  0  0  0  0  0  0  0  0  0  0
    8.9923    0.8316    0.0000 C   0  0  0  0  0  0  0  0  0  0  0  0
    8.1263    0.3316    0.0000 C   0  0  0  0  0  0  0  0  0  0  0  0
    7.2602    1.8316    0.0000 C   0  0  0  0  0  0  0  0  0  0  0  0
    6.3942    0.3316    0.0000 C   0  0  0  0  0  0  0  0  0  0  0  0
    6.3942    2.3316    0.0000 C   0  0  0  0  0  0  0  0  0  0  0  0
    5.5282    0.8316    0.0000 C   0  0  0  0  0  0  0  0  0  0  0  0
    5.5282    1.8316    0.0000 C   0  0  0  0  0  0  0  0  0  0  0  0
   13.3224   -0.6684    0.0000 C   0  0  0  0  0  0  0  0  0  0  0  0
    4.6342    0.2970    0.0000 C   0  0  0  0  0  0  0  0  0  0  0  0
    4.6342    2.3663    0.0000 C   0  0  0  0  0  0  0  0  0  0  0  0
   14.1884   -1.1684    0.0000 C   0  0  0  0  0  0  0  0  0  0  0  0
    3.7282    0.8108    0.0000 C   0  0  0  0  0  0  0  0  0  0  0  0
    3.7282    1.8524    0.0000 C   0  0  0  0  0  0  0  0  0  0  0  0
   14.2915   -2.1571    0.0000 C   0  0  0  0  0  0  0  0  0  0  0  0
   15.7641   -1.5076    0.0000 C   0  0  0  0  0  0  0  0  0  0  0  0
   15.4069    0.1873    0.0000 C   0  0  0  0  0  0  0  0  0  0  0  0
    2.8641    0.3075    0.0000 C   0  0  0  0  0  0  0  0  0  0  0  0
   16.7426   -1.3013    0.0000 C   0  0  0  0  0  0  0  0  0  0  0  0
   16.3854    0.3935    0.0000 C   0  0  0  0  0  0  0  0  0  0  0  0
   17.0532   -0.3508    0.0000 C   0  0  0  0  0  0  0  0  0  0  0  0
    9.3214    0.0216    0.0000 H   0  0  0  0  0  0  0  0  0  0  0  0
    9.2477   -0.5607    0.0000 H   0  0  0  0  0  0  0  0  0  0  0  0
    9.6463   -1.2510    0.0000 H   0  0  0  0  0  0  0  0  0  0  0  0
   11.1229    1.3066    0.0000 H   0  0  0  0  0  0  0  0  0  0  0  0
   10.3258    1.3066    0.0000 H   0  0  0  0  0  0  0  0  0  0  0  0
   12.1273   -0.3584    0.0000 H   0  0  0  0  0  0  0  0  0  0  0  0
   10.3258   -1.6433    0.0000 H   0  0  0  0  0  0  0  0  0  0  0  0
   11.1229   -1.6433    0.0000 H   0  0  0  0  0  0  0  0  0  0  0  0
   12.2010    0.2240    0.0000 H   0  0  0  0  0  0  0  0  0  0  0  0
   11.8024    0.9142    0.0000 H   0  0  0  0  0  0  0  0  0  0  0  0
    9.3908    1.3066    0.0000 H   0  0  0  0  0  0  0  0  0  0  0  0
    8.5938    1.3066    0.0000 H   0  0  0  0  0  0  0  0  0  0  0  0
    7.7277   -0.1433    0.0000 H   0  0  0  0  0  0  0  0  0  0  0  0
    8.5248   -0.1433    0.0000 H   0  0  0  0  0  0  0  0  0  0  0  0
   12.4564   -1.7884    0.0000 H   0  0  0  0  0  0  0  0  0  0  0  0
    7.8708    1.7240    0.0000 H   0  0  0  0  0  0  0  0  0  0  0  0
    7.4723    2.4142    0.0000 H   0  0  0  0  0  0  0  0  0  0  0  0
    5.9957   -0.1433    0.0000 H   0  0  0  0  0  0  0  0  0  0  0  0
    6.7928   -0.1433    0.0000 H   0  0  0  0  0  0  0  0  0  0  0  0
    6.7928    2.8066    0.0000 H   0  0  0  0  0  0  0  0  0  0  0  0
    5.9957    2.8066    0.0000 H   0  0  0  0  0  0  0  0  0  0  0  0
    4.6414   -0.3230    0.0000 H   0  0  0  0  0  0  0  0  0  0  0  0
    4.6414    2.9862    0.0000 H   0  0  0  0  0  0  0  0  0  0  0  0
    3.1924    2.1645    0.0000 H   0  0  0  0  0  0  0  0  0  0  0  0
   13.8300   -2.5712    0.0000 H   0  0  0  0  0  0  0  0  0  0  0  0
   14.9928    0.6487    0.0000 H   0  0  0  0  0  0  0  0  0  0  0  0
   17.1566   -1.7628    0.0000 H   0  0  0  0  0  0  0  0  0  0  0  0
   16.5780    0.9828    0.0000 H   0  0  0  0  0  0  0  0  0  0  0  0
   17.6599   -0.2230    0.0000 H   0  0  0  0  0  0  0  0  0  0  0  0
  1 20  2  0  0  0  0
  2 14  1  0  0  0  0
  2 15  1  0  0  0  0
  2 16  1  0  0  0  0
  3 10  1  0  0  0  0
  3 20  1  0  0  0  0
  3 47  1  0  0  0  0
  4 23  1  0  0  0  0
  4 27  1  0  0  0  0
  4 28  1  0  0  0  0
  5 26  1  0  0  0  0
  5 27  2  0  0  0  0
  6 29  3  0  0  0  0
  7  8  1  0  0  0  0
  7  9  1  0  0  0  0
  7 13  1  0  0  0  0
  7 33  1  0  0  0  0
  8 11  1  0  0  0  0
  8 34  1  0  0  0  0
  8 35  1  0  0  0  0
  9 12  1  0  0  0  0
  9 36  1  0  0  0  0
  9 37  1  0  0  0  0
 10 11  1  0  0  0  0
 10 12  1  0  0  0  0
 10 38  1  0  0  0  0
 11 39  1  0  0  0  0
 11 40  1  0  0  0  0
 12 41  1  0  0  0  0
 12 42  1  0  0  0  0
 13 14  1  0  0  0  0
 13 43  1  0  0  0  0
 13 44  1  0  0  0  0
 14 45  1  0  0  0  0
 14 46  1  0  0  0  0
 15 17  1  0  0  0  0
 15 48  1  0  0  0  0
 15 49  1  0  0  0  0
 16 18  1  0  0  0  0
 16 50  1  0  0  0  0
 16 51  1  0  0  0  0
 17 19  1  0  0  0  0
 17 52  1  0  0  0  0
 17 53  1  0  0  0  0
 18 19  2  0  0  0  0
 18 21  1  0  0  0  0
 19 22  1  0  0  0  0
 20 23  1  0  0  0  0
 21 24  2  0  0  0  0
 21 54  1  0  0  0  0
 22 25  2  0  0  0  0
 22 55  1  0  0  0  0
 23 26  2  0  0  0  0
 24 25  1  0  0  0  0
 24 29  1  0  0  0  0
 25 56  1  0  0  0  0
 26 57  1  0  0  0  0
 27 30  1  0  0  0  0
 28 31  2  0  0  0  0
 28 58  1  0  0  0  0
 30 32  2  0  0  0  0
 30 59  1  0  0  0  0
 31 32  1  0  0  0  0
 31 60  1  0  0  0  0
 32 61  1  0  0  0  0
M  END
> <PUBCHEM_COMPOUND_CID>
155563919

> <PUBCHEM_COMPOUND_CANONICALIZED>
1

> <PUBCHEM_CACTVS_COMPLEXITY>
696

> <PUBCHEM_CACTVS_HBOND_ACCEPTOR>
4

> <PUBCHEM_CACTVS_HBOND_DONOR>
1

> <PUBCHEM_CACTVS_ROTATABLE_BOND>
5

> <PUBCHEM_CACTVS_SUBSKEYS>
AAADceB7oAAAAAAAAAAAAAAAAAAAAWAAAAA8eIEAAAAAAFix8AAAHgAQAAAADSjBnwQ9sJ/MGAC4Bzd3dACigC03EqAJ2KG4dNiI6OrA2bGUIIholgLIyO8QgMAOwAACAAAQAACQAAQAACAAAAAAAAAAAA==

> <PUBCHEM_IUPAC_OPENEYE_NAME>
N-[4-[2-(7-cyano-3,4-dihydro-1H-isoquinolin-2-yl)ethyl]cyclohexyl]imidazo[1,2-a]pyridine-3-carboxamide

> <PUBCHEM_IUPAC_CAS_NAME>
N-[4-[2-(7-cyano-3,4-dihydro-1H-isoquinolin-2-yl)ethyl]cyclohexyl]-3-imidazo[1,2-a]pyridinecarboxamide

> <PUBCHEM_IUPAC_NAME_MARKUP>
<I>N</I>-[4-[2-(7-cyano-3,4-dihydro-1<I>H</I>-isoquinolin-2-yl)ethyl]cyclohexyl]imidazo[1,2-a]pyridine-3-carboxamide

> <PUBCHEM_IUPAC_NAME>
N-[4-[2-(7-cyano-3,4-dihydro-1H-isoquinolin-2-yl)ethyl]cyclohexyl]imidazo[1,2-a]pyridine-3-carboxamide

> <PUBCHEM_IUPAC_SYSTEMATIC_NAME>
N-[4-[2-(7-cyano-3,4-dihydro-1H-isoquinolin-2-yl)ethyl]cyclohexyl]imidazo[1,2-a]pyridine-3-carboxamide

> <PUBCHEM_IUPAC_TRADITIONAL_NAME>
N-[4-[2-(7-cyano-3,4-dihydro-1H-isoquinolin-2-yl)ethyl]cyclohexyl]imidazo[1,2-a]pyridine-3-carboxamide

> <PUBCHEM_IUPAC_INCHI>
InChI=1S/C26H29N5O/c27-16-20-4-7-21-11-14-30(18-22(21)15-20)13-10-19-5-8-23(9-6-19)29-26(32)24-17-28-25-3-1-2-12-31(24)25/h1-4,7,12,15,17,19,23H,5-6,8-11,13-14,18H2,(H,29,32)

> <PUBCHEM_IUPAC_INCHIKEY>
GCQOXYCPNAVEBW-UHFFFAOYSA-N

> <PUBCHEM_XLOGP3_AA>
4.5

> <PUBCHEM_EXACT_MASS>
427.23721057

> <PUBCHEM_MOLECULAR_FORMULA>
C26H29N5O

> <PUBCHEM_MOLECULAR_WEIGHT>
427.5

> <PUBCHEM_OPENEYE_CAN_SMILES>
C1CC(CCC1CCN2CCC3=C(C2)C=C(C=C3)C#N)NC(=O)C4=CN=C5N4C=CC=C5

> <PUBCHEM_OPENEYE_ISO_SMILES>
C1CC(CCC1CCN2CCC3=C(C2)C=C(C=C3)C#N)NC(=O)C4=CN=C5N4C=CC=C5

> <PUBCHEM_CACTVS_TPSA>
73.4

> <PUBCHEM_MONOISOTOPIC_WEIGHT>
427.23721057

> <PUBCHEM_TOTAL_CHARGE>
0

> <PUBCHEM_HEAVY_ATOM_COUNT>
32

> <PUBCHEM_ATOM_DEF_STEREO_COUNT>
0

> <PUBCHEM_ATOM_UDEF_STEREO_COUNT>
0

> <PUBCHEM_BOND_DEF_STEREO_COUNT>
0

> <PUBCHEM_BOND_UDEF_STEREO_COUNT>
0

> <PUBCHEM_ISOTOPIC_ATOM_COUNT>
0

> <PUBCHEM_COMPONENT_COUNT>
1

> <PUBCHEM_CACTVS_TAUTO_COUNT>
-1

> <PUBCHEM_COORDINATE_TYPE>
1
5
255

> <PUBCHEM_BONDANNOTATIONS>
18  19  8
18  21  8
19  22  8
21  24  8
22  25  8
23  26  8
24  25  8
27  30  8
28  31  8
30  32  8
31  32  8
4  23  8
4  27  8
4  28  8
5  26  8
5  27  8

$$$$
