52950130
  -OEChem-09292322042D

 47 48  0     1  0  0  0  0  0999 V2000
    2.0000   -1.3209    0.0000 Br  0  0  0  0  0  0  0  0  0  0  0  0
    2.8660    0.1791    0.0000 O   0  0  0  0  0  0  0  0  0  0  0  0
    5.4641   -1.3209    0.0000 O   0  0  0  0  0  0  0  0  0  0  0  0
    5.5686    2.6736    0.0000 N   0  0  3  0  0  0  0  0  0  0  0  0
    4.5981    0.1791    0.0000 N   0  0  0  0  0  0  0  0  0  0  0  0
    5.4641    1.6791    0.0000 C   0  0  1  0  0  0  0  0  0  0  0  0
    6.3776    1.2724    0.0000 C   0  0  0  0  0  0  0  0  0  0  0  0
    7.0468    2.0155    0.0000 C   0  0  0  0  0  0  0  0  0  0  0  0
    6.5468    2.8815    0.0000 C   0  0  0  0  0  0  0  0  0  0  0  0
    4.5981    1.1791    0.0000 C   0  0  0  0  0  0  0  0  0  0  0  0
    4.8255    3.3428    0.0000 C   0  0  0  0  0  0  0  0  0  0  0  0
    5.0334    4.3209    0.0000 C   0  0  0  0  0  0  0  0  0  0  0  0
    3.7320   -0.3209    0.0000 C   0  0  0  0  0  0  0  0  0  0  0  0
    3.7320   -1.3209    0.0000 C   0  0  0  0  0  0  0  0  0  0  0  0
    2.8660   -1.8209    0.0000 C   0  0  0  0  0  0  0  0  0  0  0  0
    4.5981   -1.8209    0.0000 C   0  0  0  0  0  0  0  0  0  0  0  0
    2.8660   -2.8209    0.0000 C   0  0  0  0  0  0  0  0  0  0  0  0
    4.5981   -2.8209    0.0000 C   0  0  0  0  0  0  0  0  0  0  0  0
    2.0000   -3.3209    0.0000 C   0  0  0  0  0  0  0  0  0  0  0  0
    3.7320   -3.3209    0.0000 C   0  0  0  0  0  0  0  0  0  0  0  0
    2.0000   -4.3209    0.0000 C   0  0  0  0  0  0  0  0  0  0  0  0
    6.3301   -1.8209    0.0000 C   0  0  0  0  0  0  0  0  0  0  0  0
    4.9441    2.0168    0.0000 H   0  0  0  0  0  0  0  0  0  0  0  0
    6.0677    0.7354    0.0000 H   0  0  0  0  0  0  0  0  0  0  0  0
    6.8792    0.9079    0.0000 H   0  0  0  0  0  0  0  0  0  0  0  0
    7.4616    1.5548    0.0000 H   0  0  0  0  0  0  0  0  0  0  0  0
    7.5484    2.3799    0.0000 H   0  0  0  0  0  0  0  0  0  0  0  0
    7.1132    3.1337    0.0000 H   0  0  0  0  0  0  0  0  0  0  0  0
    6.3552    3.4712    0.0000 H   0  0  0  0  0  0  0  0  0  0  0  0
    4.3860    1.7617    0.0000 H   0  0  0  0  0  0  0  0  0  0  0  0
    3.9875    1.0714    0.0000 H   0  0  0  0  0  0  0  0  0  0  0  0
    4.2506    3.5750    0.0000 H   0  0  0  0  0  0  0  0  0  0  0  0
    4.4969    2.8170    0.0000 H   0  0  0  0  0  0  0  0  0  0  0  0
    5.1350   -0.1309    0.0000 H   0  0  0  0  0  0  0  0  0  0  0  0
    5.6398    4.1920    0.0000 H   0  0  0  0  0  0  0  0  0  0  0  0
    5.1623    4.9274    0.0000 H   0  0  0  0  0  0  0  0  0  0  0  0
    4.4270    4.4498    0.0000 H   0  0  0  0  0  0  0  0  0  0  0  0
    1.7880   -2.7383    0.0000 H   0  0  0  0  0  0  0  0  0  0  0  0
    1.3894   -3.4286    0.0000 H   0  0  0  0  0  0  0  0  0  0  0  0
    5.1350   -3.1309    0.0000 H   0  0  0  0  0  0  0  0  0  0  0  0
    3.7320   -3.9409    0.0000 H   0  0  0  0  0  0  0  0  0  0  0  0
    1.3800   -4.3209    0.0000 H   0  0  0  0  0  0  0  0  0  0  0  0
    2.0000   -4.9409    0.0000 H   0  0  0  0  0  0  0  0  0  0  0  0
    2.6200   -4.3209    0.0000 H   0  0  0  0  0  0  0  0  0  0  0  0
    6.0201   -2.3578    0.0000 H   0  0  0  0  0  0  0  0  0  0  0  0
    6.8671   -2.1309    0.0000 H   0  0  0  0  0  0  0  0  0  0  0  0
    6.6401   -1.2840    0.0000 H   0  0  0  0  0  0  0  0  0  0  0  0
  1 15  1  0  0  0  0
  2 13  2  0  0  0  0
  3 16  1  0  0  0  0
  3 22  1  0  0  0  0
  4  6  1  0  0  0  0
  4  9  1  0  0  0  0
  4 11  1  0  0  0  0
  5 10  1  0  0  0  0
  5 13  1  0  0  0  0
  5 34  1  0  0  0  0
  6  7  1  0  0  0  0
  6 10  1  1  0  0  0
  6 23  1  0  0  0  0
  7  8  1  0  0  0  0
  7 24  1  0  0  0  0
  7 25  1  0  0  0  0
  8  9  1  0  0  0  0
  8 26  1  0  0  0  0
  8 27  1  0  0  0  0
  9 28  1  0  0  0  0
  9 29  1  0  0  0  0
 10 30  1  0  0  0  0
 10 31  1  0  0  0  0
 11 12  1  0  0  0  0
 11 32  1  0  0  0  0
 11 33  1  0  0  0  0
 12 35  1  0  0  0  0
 12 36  1  0  0  0  0
 12 37  1  0  0  0  0
 13 14  1  0  0  0  0
 14 15  1  0  0  0  0
 14 16  2  0  0  0  0
 15 17  2  0  0  0  0
 16 18  1  0  0  0  0
 17 19  1  0  0  0  0
 17 20  1  0  0  0  0
 18 20  2  0  0  0  0
 18 40  1  0  0  0  0
 19 21  1  0  0  0  0
 19 38  1  0  0  0  0
 19 39  1  0  0  0  0
 20 41  1  0  0  0  0
 21 42  1  0  0  0  0
 21 43  1  0  0  0  0
 21 44  1  0  0  0  0
 22 45  1  0  0  0  0
 22 46  1  0  0  0  0
 22 47  1  0  0  0  0
M  END
> <PUBCHEM_COMPOUND_CID>
52950130

> <PUBCHEM_COMPOUND_CANONICALIZED>
1

> <PUBCHEM_CACTVS_COMPLEXITY>
367

> <PUBCHEM_CACTVS_HBOND_ACCEPTOR>
3

> <PUBCHEM_CACTVS_HBOND_DONOR>
1

> <PUBCHEM_CACTVS_ROTATABLE_BOND>
6

> <PUBCHEM_CACTVS_SUBSKEYS>
AAADceB7MAAAEAAAAAAAAAAAAAAAAWAAAAAwAAAAAAAAAAABAAAAHgBQAAABrCzBmAYyBoPABACIAiFSEACCCAAkIAQIiIEODOgMZjaEtRuUMWhm9hGIqxeYyOCOIAACAIAIgABAAAQBABEAAAAAAAAAAA==

> <PUBCHEM_IUPAC_OPENEYE_NAME>
2-bromo-3-ethyl-N-[[(2S)-1-ethylpyrrolidin-2-yl]methyl]-6-methoxy-benzamide

> <PUBCHEM_IUPAC_CAS_NAME>
2-bromo-3-ethyl-N-[[(2S)-1-ethyl-2-pyrrolidinyl]methyl]-6-methoxybenzamide

> <PUBCHEM_IUPAC_NAME_MARKUP>
2-bromo-3-ethyl-<I>N</I>-[[(2<I>S</I>)-1-ethylpyrrolidin-2-yl]methyl]-6-methoxybenzamide

> <PUBCHEM_IUPAC_NAME>
2-bromo-3-ethyl-N-[[(2S)-1-ethylpyrrolidin-2-yl]methyl]-6-methoxybenzamide

> <PUBCHEM_IUPAC_SYSTEMATIC_NAME>
2-bromanyl-3-ethyl-N-[[(2S)-1-ethylpyrrolidin-2-yl]methyl]-6-methoxy-benzamide

> <PUBCHEM_IUPAC_TRADITIONAL_NAME>
2-bromo-3-ethyl-N-[[(2S)-1-ethylpyrrolidin-2-yl]methyl]-6-methoxy-benzamide

> <PUBCHEM_IUPAC_INCHI>
InChI=1S/C17H25BrN2O2/c1-4-12-8-9-14(22-3)15(16(12)18)17(21)19-11-13-7-6-10-20(13)5-2/h8-9,13H,4-7,10-11H2,1-3H3,(H,19,21)/t13-/m0/s1

> <PUBCHEM_IUPAC_INCHIKEY>
KMQSPGDYXVNUDZ-ZDUSSCGKSA-N

> <PUBCHEM_XLOGP3>
2.9

> <PUBCHEM_EXACT_MASS>
368.10994

> <PUBCHEM_MOLECULAR_FORMULA>
C17H25BrN2O2

> <PUBCHEM_MOLECULAR_WEIGHT>
369.3

> <PUBCHEM_OPENEYE_CAN_SMILES>
CCC1=C(C(=C(C=C1)OC)C(=O)NCC2CCCN2CC)Br

> <PUBCHEM_OPENEYE_ISO_SMILES>
CCC1=C(C(=C(C=C1)OC)C(=O)NC[C@@H]2CCCN2CC)Br

> <PUBCHEM_CACTVS_TPSA>
41.6

> <PUBCHEM_MONOISOTOPIC_WEIGHT>
368.10994

> <PUBCHEM_TOTAL_CHARGE>
0

> <PUBCHEM_HEAVY_ATOM_COUNT>
22

> <PUBCHEM_ATOM_DEF_STEREO_COUNT>
1

> <PUBCHEM_ATOM_UDEF_STEREO_COUNT>
0

> <PUBCHEM_BOND_DEF_STEREO_COUNT>
0

> <PUBCHEM_BOND_UDEF_STEREO_COUNT>
0

> <PUBCHEM_ISOTOPIC_ATOM_COUNT>
0

> <PUBCHEM_COMPONENT_COUNT>
1

> <PUBCHEM_CACTVS_TAUTO_COUNT>
-1

> <PUBCHEM_COORDINATE_TYPE>
1
5
255

> <PUBCHEM_BONDANNOTATIONS>
14  15  8
14  16  8
15  17  8
16  18  8
17  20  8
18  20  8
6  10  5

$$$$
