10740593
  -OEChem-09292322142D

 64 68  0     0  0  0  0  0  0999 V2000
    8.9962   -1.7673    0.0000 N   0  0  0  0  0  0  0  0  0  0  0  0
    4.6660    1.7327    0.0000 N   0  0  0  0  0  0  0  0  0  0  0  0
   10.7282   -2.7673    0.0000 N   0  0  0  0  0  0  0  0  0  0  0  0
    5.5321    3.2327    0.0000 N   0  0  0  0  0  0  0  0  0  0  0  0
    4.6660    4.7327    0.0000 N   0  0  0  0  0  0  0  0  0  0  0  0
    7.2641    0.2327    0.0000 C   0  0  0  0  0  0  0  0  0  0  0  0
    6.3981   -0.2673    0.0000 C   0  0  0  0  0  0  0  0  0  0  0  0
    7.2641    1.2327    0.0000 C   0  0  0  0  0  0  0  0  0  0  0  0
    5.5321    1.2327    0.0000 C   0  0  0  0  0  0  0  0  0  0  0  0
    5.5321    0.2327    0.0000 C   0  0  0  0  0  0  0  0  0  0  0  0
    6.3981    1.7327    0.0000 C   0  0  0  0  0  0  0  0  0  0  0  0
    8.1301   -0.2673    0.0000 C   0  0  0  0  0  0  0  0  0  0  0  0
    8.1301   -1.2673    0.0000 C   0  0  0  0  0  0  0  0  0  0  0  0
    8.9962   -2.7673    0.0000 C   0  0  0  0  0  0  0  0  0  0  0  0
    9.8622   -1.2673    0.0000 C   0  0  0  0  0  0  0  0  0  0  0  0
    9.8622   -3.2673    0.0000 C   0  0  0  0  0  0  0  0  0  0  0  0
   10.7282   -1.7673    0.0000 C   0  0  0  0  0  0  0  0  0  0  0  0
    4.6660    2.7327    0.0000 C   0  0  0  0  0  0  0  0  0  0  0  0
   11.5942   -3.2673    0.0000 C   0  0  0  0  0  0  0  0  0  0  0  0
    3.8000    3.2327    0.0000 C   0  0  0  0  0  0  0  0  0  0  0  0
   12.4603   -2.7673    0.0000 C   0  0  0  0  0  0  0  0  0  0  0  0
   11.5942   -4.2673    0.0000 C   0  0  0  0  0  0  0  0  0  0  0  0
    3.8000    4.2327    0.0000 C   0  0  0  0  0  0  0  0  0  0  0  0
    2.9061    2.6980    0.0000 C   0  0  0  0  0  0  0  0  0  0  0  0
    5.5321    4.2327    0.0000 C   0  0  0  0  0  0  0  0  0  0  0  0
   13.3263   -3.2673    0.0000 C   0  0  0  0  0  0  0  0  0  0  0  0
   12.4603   -4.7673    0.0000 C   0  0  0  0  0  0  0  0  0  0  0  0
    2.9061    4.7673    0.0000 C   0  0  0  0  0  0  0  0  0  0  0  0
   13.3263   -4.2673    0.0000 C   0  0  0  0  0  0  0  0  0  0  0  0
    2.0000    3.2118    0.0000 C   0  0  0  0  0  0  0  0  0  0  0  0
    2.0000    4.2535    0.0000 C   0  0  0  0  0  0  0  0  0  0  0  0
    7.8010    0.5427    0.0000 H   0  0  0  0  0  0  0  0  0  0  0  0
    5.9996   -0.7423    0.0000 H   0  0  0  0  0  0  0  0  0  0  0  0
    6.7966   -0.7423    0.0000 H   0  0  0  0  0  0  0  0  0  0  0  0
    7.8747    1.1250    0.0000 H   0  0  0  0  0  0  0  0  0  0  0  0
    7.4762    1.8153    0.0000 H   0  0  0  0  0  0  0  0  0  0  0  0
    5.5321    1.8527    0.0000 H   0  0  0  0  0  0  0  0  0  0  0  0
    4.9215    0.3403    0.0000 H   0  0  0  0  0  0  0  0  0  0  0  0
    5.3200   -0.3499    0.0000 H   0  0  0  0  0  0  0  0  0  0  0  0
    6.7966    2.2076    0.0000 H   0  0  0  0  0  0  0  0  0  0  0  0
    5.9996    2.2076    0.0000 H   0  0  0  0  0  0  0  0  0  0  0  0
    8.7407   -0.3750    0.0000 H   0  0  0  0  0  0  0  0  0  0  0  0
    8.3422    0.3153    0.0000 H   0  0  0  0  0  0  0  0  0  0  0  0
    7.5196   -1.1597    0.0000 H   0  0  0  0  0  0  0  0  0  0  0  0
    7.9181   -1.8499    0.0000 H   0  0  0  0  0  0  0  0  0  0  0  0
    4.1291    1.4227    0.0000 H   0  0  0  0  0  0  0  0  0  0  0  0
    8.3856   -2.6597    0.0000 H   0  0  0  0  0  0  0  0  0  0  0  0
    8.7841   -3.3499    0.0000 H   0  0  0  0  0  0  0  0  0  0  0  0
   10.2607   -0.7924    0.0000 H   0  0  0  0  0  0  0  0  0  0  0  0
    9.4637   -0.7924    0.0000 H   0  0  0  0  0  0  0  0  0  0  0  0
    9.4637   -3.7423    0.0000 H   0  0  0  0  0  0  0  0  0  0  0  0
   10.2607   -3.7423    0.0000 H   0  0  0  0  0  0  0  0  0  0  0  0
   11.3388   -1.8750    0.0000 H   0  0  0  0  0  0  0  0  0  0  0  0
   10.9403   -1.1847    0.0000 H   0  0  0  0  0  0  0  0  0  0  0  0
   12.4603   -2.1473    0.0000 H   0  0  0  0  0  0  0  0  0  0  0  0
   11.0573   -4.5773    0.0000 H   0  0  0  0  0  0  0  0  0  0  0  0
    2.9132    2.0780    0.0000 H   0  0  0  0  0  0  0  0  0  0  0  0
    6.0690    4.5427    0.0000 H   0  0  0  0  0  0  0  0  0  0  0  0
   13.8632   -2.9573    0.0000 H   0  0  0  0  0  0  0  0  0  0  0  0
   12.4603   -5.3873    0.0000 H   0  0  0  0  0  0  0  0  0  0  0  0
    2.9132    5.3873    0.0000 H   0  0  0  0  0  0  0  0  0  0  0  0
   13.8632   -4.5773    0.0000 H   0  0  0  0  0  0  0  0  0  0  0  0
    1.4643    2.8998    0.0000 H   0  0  0  0  0  0  0  0  0  0  0  0
    1.4643    4.5656    0.0000 H   0  0  0  0  0  0  0  0  0  0  0  0
  1 13  1  0  0  0  0
  1 14  1  0  0  0  0
  1 15  1  0  0  0  0
  2  9  1  0  0  0  0
  2 18  1  0  0  0  0
  2 46  1  0  0  0  0
  3 16  1  0  0  0  0
  3 17  1  0  0  0  0
  3 19  1  0  0  0  0
  4 18  2  0  0  0  0
  4 25  1  0  0  0  0
  5 23  1  0  0  0  0
  5 25  2  0  0  0  0
  6  7  1  0  0  0  0
  6  8  1  0  0  0  0
  6 12  1  0  0  0  0
  6 32  1  0  0  0  0
  7 10  1  0  0  0  0
  7 33  1  0  0  0  0
  7 34  1  0  0  0  0
  8 11  1  0  0  0  0
  8 35  1  0  0  0  0
  8 36  1  0  0  0  0
  9 10  1  0  0  0  0
  9 11  1  0  0  0  0
  9 37  1  0  0  0  0
 10 38  1  0  0  0  0
 10 39  1  0  0  0  0
 11 40  1  0  0  0  0
 11 41  1  0  0  0  0
 12 13  1  0  0  0  0
 12 42  1  0  0  0  0
 12 43  1  0  0  0  0
 13 44  1  0  0  0  0
 13 45  1  0  0  0  0
 14 16  1  0  0  0  0
 14 47  1  0  0  0  0
 14 48  1  0  0  0  0
 15 17  1  0  0  0  0
 15 49  1  0  0  0  0
 15 50  1  0  0  0  0
 16 51  1  0  0  0  0
 16 52  1  0  0  0  0
 17 53  1  0  0  0  0
 17 54  1  0  0  0  0
 18 20  1  0  0  0  0
 19 21  2  0  0  0  0
 19 22  1  0  0  0  0
 20 23  1  0  0  0  0
 20 24  2  0  0  0  0
 21 26  1  0  0  0  0
 21 55  1  0  0  0  0
 22 27  2  0  0  0  0
 22 56  1  0  0  0  0
 23 28  2  0  0  0  0
 24 30  1  0  0  0  0
 24 57  1  0  0  0  0
 25 58  1  0  0  0  0
 26 29  2  0  0  0  0
 26 59  1  0  0  0  0
 27 29  1  0  0  0  0
 27 60  1  0  0  0  0
 28 31  1  0  0  0  0
 28 61  1  0  0  0  0
 29 62  1  0  0  0  0
 30 31  2  0  0  0  0
 30 63  1  0  0  0  0
 31 64  1  0  0  0  0
M  END
> <PUBCHEM_COMPOUND_CID>
10740593

> <PUBCHEM_COMPOUND_CANONICALIZED>
1

> <PUBCHEM_CACTVS_COMPLEXITY>
520

> <PUBCHEM_CACTVS_HBOND_ACCEPTOR>
5

> <PUBCHEM_CACTVS_HBOND_DONOR>
1

> <PUBCHEM_CACTVS_ROTATABLE_BOND>
6

> <PUBCHEM_CACTVS_SUBSKEYS>
AAADcfB7gAAAAAAAAAAAAAAAAAAAAAAAAAA8eMECAAAAAACx9AAAHAAQAAAADSjBHgQ18PfIEACgAyZjZACCgCkxAqAJ2KA4ZJiIaKLA2dGUJAhokALIyCcQgIAOAAAAAAACAAAQAAAAAAQAAAAAAAAAAA==

> <PUBCHEM_IUPAC_OPENEYE_NAME>
N-[4-[2-(4-phenylpiperazin-1-yl)ethyl]cyclohexyl]quinazolin-4-amine

> <PUBCHEM_IUPAC_CAS_NAME>
N-[4-[2-(4-phenyl-1-piperazinyl)ethyl]cyclohexyl]-4-quinazolinamine

> <PUBCHEM_IUPAC_NAME_MARKUP>
<I>N</I>-[4-[2-(4-phenylpiperazin-1-yl)ethyl]cyclohexyl]quinazolin-4-amine

> <PUBCHEM_IUPAC_NAME>
N-[4-[2-(4-phenylpiperazin-1-yl)ethyl]cyclohexyl]quinazolin-4-amine

> <PUBCHEM_IUPAC_SYSTEMATIC_NAME>
N-[4-[2-(4-phenylpiperazin-1-yl)ethyl]cyclohexyl]quinazolin-4-amine

> <PUBCHEM_IUPAC_TRADITIONAL_NAME>
[4-[2-(4-phenylpiperazino)ethyl]cyclohexyl]-quinazolin-4-yl-amine

> <PUBCHEM_IUPAC_INCHI>
InChI=1S/C26H33N5/c1-2-6-23(7-3-1)31-18-16-30(17-19-31)15-14-21-10-12-22(13-11-21)29-26-24-8-4-5-9-25(24)27-20-28-26/h1-9,20-22H,10-19H2,(H,27,28,29)

> <PUBCHEM_IUPAC_INCHIKEY>
IVCDUDHUOFADMA-UHFFFAOYSA-N

> <PUBCHEM_XLOGP3_AA>
5.4

> <PUBCHEM_EXACT_MASS>
415.27359607

> <PUBCHEM_MOLECULAR_FORMULA>
C26H33N5

> <PUBCHEM_MOLECULAR_WEIGHT>
415.6

> <PUBCHEM_OPENEYE_CAN_SMILES>
C1CC(CCC1CCN2CCN(CC2)C3=CC=CC=C3)NC4=NC=NC5=CC=CC=C54

> <PUBCHEM_OPENEYE_ISO_SMILES>
C1CC(CCC1CCN2CCN(CC2)C3=CC=CC=C3)NC4=NC=NC5=CC=CC=C54

> <PUBCHEM_CACTVS_TPSA>
44.3

> <PUBCHEM_MONOISOTOPIC_WEIGHT>
415.27359607

> <PUBCHEM_TOTAL_CHARGE>
0

> <PUBCHEM_HEAVY_ATOM_COUNT>
31

> <PUBCHEM_ATOM_DEF_STEREO_COUNT>
0

> <PUBCHEM_ATOM_UDEF_STEREO_COUNT>
0

> <PUBCHEM_BOND_DEF_STEREO_COUNT>
0

> <PUBCHEM_BOND_UDEF_STEREO_COUNT>
0

> <PUBCHEM_ISOTOPIC_ATOM_COUNT>
0

> <PUBCHEM_COMPONENT_COUNT>
1

> <PUBCHEM_CACTVS_TAUTO_COUNT>
-1

> <PUBCHEM_COORDINATE_TYPE>
1
5
255

> <PUBCHEM_BONDANNOTATIONS>
18  20  8
19  21  8
19  22  8
20  23  8
20  24  8
21  26  8
22  27  8
23  28  8
24  30  8
26  29  8
27  29  8
28  31  8
30  31  8
4  18  8
4  25  8
5  23  8
5  25  8

$$$$
