46231770
  -OEChem-09292322292D

 50 53  0     1  0  0  0  0  0999 V2000
    2.1374    2.8659    0.0000 Cl  0  0  0  0  0  0  0  0  0  0  0  0
    7.4218   -2.7321    0.0000 S   0  0  0  0  0  0  0  0  0  0  0  0
    2.5932    0.8690    0.0000 O   0  0  0  0  0  0  0  0  0  0  0  0
    8.4193   -2.8029    0.0000 O   0  0  0  0  0  0  0  0  0  0  0  0
    6.4243   -2.6612    0.0000 O   0  0  0  0  0  0  0  0  0  0  0  0
    7.0983    2.9477    0.0000 N   0  0  3  0  0  0  0  0  0  0  0  0
    7.4927   -1.7346    0.0000 N   0  0  0  0  0  0  0  0  0  0  0  0
    6.8758    1.9728    0.0000 C   0  0  2  0  0  0  0  0  0  0  0  0
    5.9748    1.5389    0.0000 C   0  0  2  0  0  0  0  0  0  0  0  0
    7.7453    1.3994    0.0000 C   0  0  0  0  0  0  0  0  0  0  0  0
    5.8810    0.5015    0.0000 C   0  0  0  0  0  0  0  0  0  0  0  0
    7.6755    0.3601    0.0000 C   0  0  0  0  0  0  0  0  0  0  0  0
    5.0738    1.9728    0.0000 C   0  0  0  0  0  0  0  0  0  0  0  0
    6.7370   -0.0919    0.0000 C   0  0  0  0  0  0  0  0  0  0  0  0
    6.4748    3.7295    0.0000 C   0  0  0  0  0  0  0  0  0  0  0  0
    4.8513    2.9477    0.0000 C   0  0  0  0  0  0  0  0  0  0  0  0
    5.4748    3.7295    0.0000 C   0  0  0  0  0  0  0  0  0  0  0  0
    6.6643   -1.1744    0.0000 C   0  0  0  0  0  0  0  0  0  0  0  0
    8.0732    3.1702    0.0000 C   0  0  0  0  0  0  0  0  0  0  0  0
    4.8928    0.0535    0.0000 C   0  0  0  0  0  0  0  0  0  0  0  0
    4.3213    1.2526    0.0000 C   0  0  0  0  0  0  0  0  0  0  0  0
    3.8608    3.2700    0.0000 C   0  0  0  0  0  0  0  0  0  0  0  0
    5.6868   -1.6452    0.0000 C   0  0  0  0  0  0  0  0  0  0  0  0
    4.7950   -1.0271    0.0000 C   0  0  0  0  0  0  0  0  0  0  0  0
    3.3236    1.5520    0.0000 C   0  0  0  0  0  0  0  0  0  0  0  0
    3.0918    2.5675    0.0000 C   0  0  0  0  0  0  0  0  0  0  0  0
    7.3509   -3.7295    0.0000 C   0  0  0  0  0  0  0  0  0  0  0  0
    7.6646    2.2894    0.0000 H   0  0  0  0  0  0  0  0  0  0  0  0
    5.2354    1.1196    0.0000 H   0  0  0  0  0  0  0  0  0  0  0  0
    8.3477    1.2525    0.0000 H   0  0  0  0  0  0  0  0  0  0  0  0
    7.9931    1.9677    0.0000 H   0  0  0  0  0  0  0  0  0  0  0  0
    7.8450   -0.2363    0.0000 H   0  0  0  0  0  0  0  0  0  0  0  0
    8.2921    0.4250    0.0000 H   0  0  0  0  0  0  0  0  0  0  0  0
    7.0334    3.9986    0.0000 H   0  0  0  0  0  0  0  0  0  0  0  0
    6.3368    4.3340    0.0000 H   0  0  0  0  0  0  0  0  0  0  0  0
    5.6128    4.3340    0.0000 H   0  0  0  0  0  0  0  0  0  0  0  0
    4.9162    3.9986    0.0000 H   0  0  0  0  0  0  0  0  0  0  0  0
    8.2112    2.5658    0.0000 H   0  0  0  0  0  0  0  0  0  0  0  0
    8.6777    3.3082    0.0000 H   0  0  0  0  0  0  0  0  0  0  0  0
    7.9352    3.7747    0.0000 H   0  0  0  0  0  0  0  0  0  0  0  0
    4.3873    0.4125    0.0000 H   0  0  0  0  0  0  0  0  0  0  0  0
    4.4662    0.6498    0.0000 H   0  0  0  0  0  0  0  0  0  0  0  0
    3.7298    3.8760    0.0000 H   0  0  0  0  0  0  0  0  0  0  0  0
    5.6380   -2.2633    0.0000 H   0  0  0  0  0  0  0  0  0  0  0  0
    4.2334   -1.2896    0.0000 H   0  0  0  0  0  0  0  0  0  0  0  0
    8.0503   -1.4634    0.0000 H   0  0  0  0  0  0  0  0  0  0  0  0
    2.0000    1.0494    0.0000 H   0  0  0  0  0  0  0  0  0  0  0  0
    6.7325   -3.6856    0.0000 H   0  0  0  0  0  0  0  0  0  0  0  0
    7.3070   -4.3480    0.0000 H   0  0  0  0  0  0  0  0  0  0  0  0
    7.9694   -3.7735    0.0000 H   0  0  0  0  0  0  0  0  0  0  0  0
  1 26  1  0  0  0  0
  2  4  2  0  0  0  0
  2  5  2  0  0  0  0
  2  7  1  0  0  0  0
  2 27  1  0  0  0  0
  3 25  1  0  0  0  0
  3 47  1  0  0  0  0
  6  8  1  0  0  0  0
  6 15  1  0  0  0  0
  6 19  1  0  0  0  0
  7 18  1  0  0  0  0
  7 46  1  0  0  0  0
  8  9  1  0  0  0  0
  8 10  1  0  0  0  0
  8 28  1  6  0  0  0
  9 11  1  0  0  0  0
  9 13  1  0  0  0  0
  9 29  1  1  0  0  0
 10 12  1  0  0  0  0
 10 30  1  0  0  0  0
 10 31  1  0  0  0  0
 11 14  2  0  0  0  0
 11 20  1  0  0  0  0
 12 14  1  0  0  0  0
 12 32  1  0  0  0  0
 12 33  1  0  0  0  0
 13 16  1  0  0  0  0
 13 21  2  0  0  0  0
 14 18  1  0  0  0  0
 15 17  1  0  0  0  0
 15 34  1  0  0  0  0
 15 35  1  0  0  0  0
 16 17  1  0  0  0  0
 16 22  2  0  0  0  0
 17 36  1  0  0  0  0
 17 37  1  0  0  0  0
 18 23  2  0  0  0  0
 19 38  1  0  0  0  0
 19 39  1  0  0  0  0
 19 40  1  0  0  0  0
 20 24  2  0  0  0  0
 20 41  1  0  0  0  0
 21 25  1  0  0  0  0
 21 42  1  0  0  0  0
 22 26  1  0  0  0  0
 22 43  1  0  0  0  0
 23 24  1  0  0  0  0
 23 44  1  0  0  0  0
 24 45  1  0  0  0  0
 25 26  2  0  0  0  0
 27 48  1  0  0  0  0
 27 49  1  0  0  0  0
 27 50  1  0  0  0  0
M  END
> <PUBCHEM_COMPOUND_CID>
46231770

> <PUBCHEM_COMPOUND_CANONICALIZED>
1

> <PUBCHEM_CACTVS_COMPLEXITY>
640

> <PUBCHEM_CACTVS_HBOND_ACCEPTOR>
5

> <PUBCHEM_CACTVS_HBOND_DONOR>
2

> <PUBCHEM_CACTVS_ROTATABLE_BOND>
2

> <PUBCHEM_CACTVS_SUBSKEYS>
AAADceB7MABEAAAAAAAAAAAAAAAAAAAAAAAwYMAABYAAAADBQAAAHgYQSAAADS7BmCSyxoNAAgKAAiRCQHCCAAAgJ0AIiAAOb4gIJiKDk5OEcABk0BGI2AeQ0PMOpAABYAASCABYAAbAACQQAAAAAAAAAA==

> <PUBCHEM_IUPAC_OPENEYE_NAME>
N-[(6aS,13bS)-11-chloro-12-hydroxy-7-methyl-5,6,6a,8,9,13b-hexahydronaphtho[1,2-a][3]benzazepin-4-yl]methanesulfonamide

> <PUBCHEM_IUPAC_CAS_NAME>
N-[(6aS,13bS)-11-chloro-12-hydroxy-7-methyl-5,6,6a,8,9,13b-hexahydronaphtho[1,2-a][3]benzazepin-4-yl]methanesulfonamide

> <PUBCHEM_IUPAC_NAME_MARKUP>
<I>N</I>-[(6<I>a</I><I>S</I>,13<I>b</I><I>S</I>)-11-chloro-12-hydroxy-7-methyl-5,6,6<I>a</I>,8,9,13<I>b</I>-hexahydronaphtho[1,2-a][3]benzazepin-4-yl]methanesulfonamide

> <PUBCHEM_IUPAC_NAME>
N-[(6aS,13bS)-11-chloro-12-hydroxy-7-methyl-5,6,6a,8,9,13b-hexahydronaphtho[1,2-a][3]benzazepin-4-yl]methanesulfonamide

> <PUBCHEM_IUPAC_SYSTEMATIC_NAME>
N-[(6aS,13bS)-11-chloranyl-7-methyl-12-oxidanyl-5,6,6a,8,9,13b-hexahydronaphtho[1,2-a][3]benzazepin-4-yl]methanesulfonamide

> <PUBCHEM_IUPAC_TRADITIONAL_NAME>
N-[(6aS,13bS)-11-chloro-12-hydroxy-7-methyl-5,6,6a,8,9,13b-hexahydronaphtho[1,2-a][3]benzazepin-4-yl]methanesulfonamide

> <PUBCHEM_IUPAC_INCHI>
InChI=1S/C20H23ClN2O3S/c1-23-9-8-12-10-16(21)19(24)11-15(12)20-14-4-3-5-17(22-27(2,25)26)13(14)6-7-18(20)23/h3-5,10-11,18,20,22,24H,6-9H2,1-2H3/t18-,20+/m0/s1

> <PUBCHEM_IUPAC_INCHIKEY>
ZAGHVNSWDNQPSI-AZUAARDMSA-N

> <PUBCHEM_XLOGP3_AA>
3.4

> <PUBCHEM_EXACT_MASS>
406.1117915

> <PUBCHEM_MOLECULAR_FORMULA>
C20H23ClN2O3S

> <PUBCHEM_MOLECULAR_WEIGHT>
406.9

> <PUBCHEM_OPENEYE_CAN_SMILES>
CN1CCC2=CC(=C(C=C2C3C1CCC4=C3C=CC=C4NS(=O)(=O)C)O)Cl

> <PUBCHEM_OPENEYE_ISO_SMILES>
CN1CCC2=CC(=C(C=C2[C@@H]3[C@@H]1CCC4=C3C=CC=C4NS(=O)(=O)C)O)Cl

> <PUBCHEM_CACTVS_TPSA>
78

> <PUBCHEM_MONOISOTOPIC_WEIGHT>
406.1117915

> <PUBCHEM_TOTAL_CHARGE>
0

> <PUBCHEM_HEAVY_ATOM_COUNT>
27

> <PUBCHEM_ATOM_DEF_STEREO_COUNT>
2

> <PUBCHEM_ATOM_UDEF_STEREO_COUNT>
0

> <PUBCHEM_BOND_DEF_STEREO_COUNT>
0

> <PUBCHEM_BOND_UDEF_STEREO_COUNT>
0

> <PUBCHEM_ISOTOPIC_ATOM_COUNT>
0

> <PUBCHEM_COMPONENT_COUNT>
1

> <PUBCHEM_CACTVS_TAUTO_COUNT>
-1

> <PUBCHEM_COORDINATE_TYPE>
1
5
255

> <PUBCHEM_BONDANNOTATIONS>
11  14  8
11  20  8
13  16  8
13  21  8
14  18  8
16  22  8
18  23  8
20  24  8
21  25  8
22  26  8
23  24  8
25  26  8
8  28  6
9  29  5

$$$$
