44451927
  -OEChem-09292322032D

 71 75  0     0  0  0  0  0  0999 V2000
    2.0000   -4.0242    0.0000 F   0  0  0  0  0  0  0  0  0  0  0  0
   13.3244    2.5000    0.0000 O   0  0  0  0  0  0  0  0  0  0  0  0
    8.9942   -1.0000    0.0000 O   0  0  0  0  0  0  0  0  0  0  0  0
    5.5301   -5.0000    0.0000 O   0  0  0  0  0  0  0  0  0  0  0  0
    9.8602    2.5000    0.0000 N   0  0  0  0  0  0  0  0  0  0  0  0
   11.5923    3.5000    0.0000 N   0  0  0  0  0  0  0  0  0  0  0  0
    7.2622   -1.0000    0.0000 N   0  0  0  0  0  0  0  0  0  0  0  0
    6.3961   -3.5000    0.0000 N   0  0  0  0  0  0  0  0  0  0  0  0
    5.5301   -2.0000    0.0000 N   0  0  0  0  0  0  0  0  0  0  0  0
   10.7263    2.0000    0.0000 C   0  0  0  0  0  0  0  0  0  0  0  0
    9.8602    3.5000    0.0000 C   0  0  0  0  0  0  0  0  0  0  0  0
   11.5923    2.5000    0.0000 C   0  0  0  0  0  0  0  0  0  0  0  0
   10.7263    4.0000    0.0000 C   0  0  0  0  0  0  0  0  0  0  0  0
    8.9942    2.0000    0.0000 C   0  0  0  0  0  0  0  0  0  0  0  0
    8.9942    1.0000    0.0000 C   0  0  0  0  0  0  0  0  0  0  0  0
   12.4583    4.0000    0.0000 C   0  0  0  0  0  0  0  0  0  0  0  0
    8.1282    0.5000    0.0000 C   0  0  0  0  0  0  0  0  0  0  0  0
   13.3244    3.5000    0.0000 C   0  0  0  0  0  0  0  0  0  0  0  0
   12.4583    5.0000    0.0000 C   0  0  0  0  0  0  0  0  0  0  0  0
    8.1282   -0.5000    0.0000 C   0  0  0  0  0  0  0  0  0  0  0  0
   14.1904    4.0000    0.0000 C   0  0  0  0  0  0  0  0  0  0  0  0
   13.3244    5.5000    0.0000 C   0  0  0  0  0  0  0  0  0  0  0  0
   14.1904    5.0000    0.0000 C   0  0  0  0  0  0  0  0  0  0  0  0
    7.2622   -2.0000    0.0000 C   0  0  0  0  0  0  0  0  0  0  0  0
    6.3961   -2.5000    0.0000 C   0  0  0  0  0  0  0  0  0  0  0  0
   14.1904    2.0000    0.0000 C   0  0  0  0  0  0  0  0  0  0  0  0
    5.5301   -4.0000    0.0000 C   0  0  0  0  0  0  0  0  0  0  0  0
    4.6641   -3.5000    0.0000 C   0  0  0  0  0  0  0  0  0  0  0  0
    4.6641   -2.5000    0.0000 C   0  0  0  0  0  0  0  0  0  0  0  0
    7.2622   -4.0000    0.0000 C   0  0  0  0  0  0  0  0  0  0  0  0
    3.7702   -4.0347    0.0000 C   0  0  0  0  0  0  0  0  0  0  0  0
    3.7702   -1.9653    0.0000 C   0  0  0  0  0  0  0  0  0  0  0  0
    7.2622   -5.0000    0.0000 C   0  0  0  0  0  0  0  0  0  0  0  0
    8.1282   -3.5000    0.0000 C   0  0  0  0  0  0  0  0  0  0  0  0
    2.8641   -3.5208    0.0000 C   0  0  0  0  0  0  0  0  0  0  0  0
    2.8641   -2.4792    0.0000 C   0  0  0  0  0  0  0  0  0  0  0  0
    8.1282   -5.5000    0.0000 C   0  0  0  0  0  0  0  0  0  0  0  0
    8.9942   -4.0000    0.0000 C   0  0  0  0  0  0  0  0  0  0  0  0
    8.9942   -5.0000    0.0000 C   0  0  0  0  0  0  0  0  0  0  0  0
   10.3278    1.5250    0.0000 H   0  0  0  0  0  0  0  0  0  0  0  0
   11.1248    1.5250    0.0000 H   0  0  0  0  0  0  0  0  0  0  0  0
    9.6482    4.0826    0.0000 H   0  0  0  0  0  0  0  0  0  0  0  0
    9.2497    3.3923    0.0000 H   0  0  0  0  0  0  0  0  0  0  0  0
   11.8044    1.9174    0.0000 H   0  0  0  0  0  0  0  0  0  0  0  0
   12.2029    2.6077    0.0000 H   0  0  0  0  0  0  0  0  0  0  0  0
   11.1248    4.4750    0.0000 H   0  0  0  0  0  0  0  0  0  0  0  0
   10.3278    4.4750    0.0000 H   0  0  0  0  0  0  0  0  0  0  0  0
    8.7822    2.5826    0.0000 H   0  0  0  0  0  0  0  0  0  0  0  0
    8.3836    1.8923    0.0000 H   0  0  0  0  0  0  0  0  0  0  0  0
    9.2063    0.4174    0.0000 H   0  0  0  0  0  0  0  0  0  0  0  0
    9.6048    1.1077    0.0000 H   0  0  0  0  0  0  0  0  0  0  0  0
    7.9162    1.0826    0.0000 H   0  0  0  0  0  0  0  0  0  0  0  0
    7.5176    0.3923    0.0000 H   0  0  0  0  0  0  0  0  0  0  0  0
   11.9214    5.3100    0.0000 H   0  0  0  0  0  0  0  0  0  0  0  0
   14.7273    3.6900    0.0000 H   0  0  0  0  0  0  0  0  0  0  0  0
   13.3244    6.1200    0.0000 H   0  0  0  0  0  0  0  0  0  0  0  0
    6.7252   -0.6900    0.0000 H   0  0  0  0  0  0  0  0  0  0  0  0
   14.7273    5.3100    0.0000 H   0  0  0  0  0  0  0  0  0  0  0  0
    7.4742   -2.5826    0.0000 H   0  0  0  0  0  0  0  0  0  0  0  0
    7.8728   -1.8923    0.0000 H   0  0  0  0  0  0  0  0  0  0  0  0
   13.8804    1.4631    0.0000 H   0  0  0  0  0  0  0  0  0  0  0  0
   14.7273    1.6900    0.0000 H   0  0  0  0  0  0  0  0  0  0  0  0
   14.5004    2.5369    0.0000 H   0  0  0  0  0  0  0  0  0  0  0  0
    3.7773   -4.6546    0.0000 H   0  0  0  0  0  0  0  0  0  0  0  0
    3.7773   -1.3454    0.0000 H   0  0  0  0  0  0  0  0  0  0  0  0
    6.7252   -5.3100    0.0000 H   0  0  0  0  0  0  0  0  0  0  0  0
    8.1282   -2.8800    0.0000 H   0  0  0  0  0  0  0  0  0  0  0  0
    2.3284   -2.1671    0.0000 H   0  0  0  0  0  0  0  0  0  0  0  0
    8.1282   -6.1200    0.0000 H   0  0  0  0  0  0  0  0  0  0  0  0
    9.5312   -3.6900    0.0000 H   0  0  0  0  0  0  0  0  0  0  0  0
    9.5312   -5.3100    0.0000 H   0  0  0  0  0  0  0  0  0  0  0  0
  1 35  1  0  0  0  0
  2 18  1  0  0  0  0
  2 26  1  0  0  0  0
  3 20  2  0  0  0  0
  4 27  2  0  0  0  0
  5 10  1  0  0  0  0
  5 11  1  0  0  0  0
  5 14  1  0  0  0  0
  6 12  1  0  0  0  0
  6 13  1  0  0  0  0
  6 16  1  0  0  0  0
  7 20  1  0  0  0  0
  7 24  1  0  0  0  0
  7 57  1  0  0  0  0
  8 25  1  0  0  0  0
  8 27  1  0  0  0  0
  8 30  1  0  0  0  0
  9 25  2  0  0  0  0
  9 29  1  0  0  0  0
 10 12  1  0  0  0  0
 10 40  1  0  0  0  0
 10 41  1  0  0  0  0
 11 13  1  0  0  0  0
 11 42  1  0  0  0  0
 11 43  1  0  0  0  0
 12 44  1  0  0  0  0
 12 45  1  0  0  0  0
 13 46  1  0  0  0  0
 13 47  1  0  0  0  0
 14 15  1  0  0  0  0
 14 48  1  0  0  0  0
 14 49  1  0  0  0  0
 15 17  1  0  0  0  0
 15 50  1  0  0  0  0
 15 51  1  0  0  0  0
 16 18  1  0  0  0  0
 16 19  2  0  0  0  0
 17 20  1  0  0  0  0
 17 52  1  0  0  0  0
 17 53  1  0  0  0  0
 18 21  2  0  0  0  0
 19 22  1  0  0  0  0
 19 54  1  0  0  0  0
 21 23  1  0  0  0  0
 21 55  1  0  0  0  0
 22 23  2  0  0  0  0
 22 56  1  0  0  0  0
 23 58  1  0  0  0  0
 24 25  1  0  0  0  0
 24 59  1  0  0  0  0
 24 60  1  0  0  0  0
 26 61  1  0  0  0  0
 26 62  1  0  0  0  0
 26 63  1  0  0  0  0
 27 28  1  0  0  0  0
 28 29  2  0  0  0  0
 28 31  1  0  0  0  0
 29 32  1  0  0  0  0
 30 33  2  0  0  0  0
 30 34  1  0  0  0  0
 31 35  2  0  0  0  0
 31 64  1  0  0  0  0
 32 36  2  0  0  0  0
 32 65  1  0  0  0  0
 33 37  1  0  0  0  0
 33 66  1  0  0  0  0
 34 38  2  0  0  0  0
 34 67  1  0  0  0  0
 35 36  1  0  0  0  0
 36 68  1  0  0  0  0
 37 39  2  0  0  0  0
 37 69  1  0  0  0  0
 38 39  1  0  0  0  0
 38 70  1  0  0  0  0
 39 71  1  0  0  0  0
M  END
> <PUBCHEM_COMPOUND_CID>
44451927

> <PUBCHEM_COMPOUND_CANONICALIZED>
1

> <PUBCHEM_CACTVS_COMPLEXITY>
858

> <PUBCHEM_CACTVS_HBOND_ACCEPTOR>
7

> <PUBCHEM_CACTVS_HBOND_DONOR>
1

> <PUBCHEM_CACTVS_ROTATABLE_BOND>
9

> <PUBCHEM_CACTVS_SUBSKEYS>
AAADcfB7sQAAAAAAAAAAAAAAAAAAAAAAAAA8YMECAAAAAACBUAAAHwAQAAAADAzBmA4zxoPABACoAidydACCCAElIgAJiIEfbMgOZjrE/ZuVMahk1hHY6cecyACOAAAAAAACEAAAAAAAAAQgAAAAAAAAAA==

> <PUBCHEM_IUPAC_OPENEYE_NAME>
N-[(6-fluoro-4-oxo-3-phenyl-quinazolin-2-yl)methyl]-4-[4-(2-methoxyphenyl)piperazin-1-yl]butanamide

> <PUBCHEM_IUPAC_CAS_NAME>
N-[(6-fluoro-4-oxo-3-phenyl-2-quinazolinyl)methyl]-4-[4-(2-methoxyphenyl)-1-piperazinyl]butanamide

> <PUBCHEM_IUPAC_NAME_MARKUP>
<I>N</I>-[(6-fluoro-4-oxo-3-phenylquinazolin-2-yl)methyl]-4-[4-(2-methoxyphenyl)piperazin-1-yl]butanamide

> <PUBCHEM_IUPAC_NAME>
N-[(6-fluoro-4-oxo-3-phenylquinazolin-2-yl)methyl]-4-[4-(2-methoxyphenyl)piperazin-1-yl]butanamide

> <PUBCHEM_IUPAC_SYSTEMATIC_NAME>
N-[(6-fluoranyl-4-oxidanylidene-3-phenyl-quinazolin-2-yl)methyl]-4-[4-(2-methoxyphenyl)piperazin-1-yl]butanamide

> <PUBCHEM_IUPAC_TRADITIONAL_NAME>
N-[(6-fluoro-4-keto-3-phenyl-quinazolin-2-yl)methyl]-4-[4-(2-methoxyphenyl)piperazino]butyramide

> <PUBCHEM_IUPAC_INCHI>
InChI=1S/C30H32FN5O3/c1-39-27-11-6-5-10-26(27)35-18-16-34(17-19-35)15-7-12-29(37)32-21-28-33-25-14-13-22(31)20-24(25)30(38)36(28)23-8-3-2-4-9-23/h2-6,8-11,13-14,20H,7,12,15-19,21H2,1H3,(H,32,37)

> <PUBCHEM_IUPAC_INCHIKEY>
GMMMLQZLHXIAPP-UHFFFAOYSA-N

> <PUBCHEM_XLOGP3_AA>
3.8

> <PUBCHEM_EXACT_MASS>
529.24891806

> <PUBCHEM_MOLECULAR_FORMULA>
C30H32FN5O3

> <PUBCHEM_MOLECULAR_WEIGHT>
529.6

> <PUBCHEM_OPENEYE_CAN_SMILES>
COC1=CC=CC=C1N2CCN(CC2)CCCC(=O)NCC3=NC4=C(C=C(C=C4)F)C(=O)N3C5=CC=CC=C5

> <PUBCHEM_OPENEYE_ISO_SMILES>
COC1=CC=CC=C1N2CCN(CC2)CCCC(=O)NCC3=NC4=C(C=C(C=C4)F)C(=O)N3C5=CC=CC=C5

> <PUBCHEM_CACTVS_TPSA>
77.5

> <PUBCHEM_MONOISOTOPIC_WEIGHT>
529.24891806

> <PUBCHEM_TOTAL_CHARGE>
0

> <PUBCHEM_HEAVY_ATOM_COUNT>
39

> <PUBCHEM_ATOM_DEF_STEREO_COUNT>
0

> <PUBCHEM_ATOM_UDEF_STEREO_COUNT>
0

> <PUBCHEM_BOND_DEF_STEREO_COUNT>
0

> <PUBCHEM_BOND_UDEF_STEREO_COUNT>
0

> <PUBCHEM_ISOTOPIC_ATOM_COUNT>
0

> <PUBCHEM_COMPONENT_COUNT>
1

> <PUBCHEM_CACTVS_TAUTO_COUNT>
-1

> <PUBCHEM_COORDINATE_TYPE>
1
5
255

> <PUBCHEM_BONDANNOTATIONS>
16  18  8
16  19  8
18  21  8
19  22  8
21  23  8
22  23  8
27  28  8
28  29  8
28  31  8
29  32  8
30  33  8
30  34  8
31  35  8
32  36  8
33  37  8
34  38  8
35  36  8
37  39  8
38  39  8
8  25  8
8  27  8
9  25  8
9  29  8

$$$$
