10478367
  -OEChem-09292322502D

 65 68  0     0  0  0  0  0  0999 V2000
    2.8660    1.7500    0.0000 O   0  0  0  0  0  0  0  0  0  0  0  0
    5.4641   -1.7500    0.0000 O   0  0  0  0  0  0  0  0  0  0  0  0
    8.9282   -4.7500    0.0000 O   0  0  0  0  0  0  0  0  0  0  0  0
    4.5981    2.7500    0.0000 N   0  0  0  0  0  0  0  0  0  0  0  0
    4.5981    4.7500    0.0000 N   0  0  0  0  0  0  0  0  0  0  0  0
    8.9282   -2.7500    0.0000 N   0  0  0  0  0  0  0  0  0  0  0  0
    7.1962   -1.7500    0.0000 N   0  0  0  0  0  0  0  0  0  0  0  0
    6.3301   -0.2500    0.0000 N   0  0  0  0  0  0  0  0  0  0  0  0
    5.4641    3.2500    0.0000 C   0  0  0  0  0  0  0  0  0  0  0  0
    3.7320    3.2500    0.0000 C   0  0  0  0  0  0  0  0  0  0  0  0
    5.4641    4.2500    0.0000 C   0  0  0  0  0  0  0  0  0  0  0  0
    3.7320    4.2500    0.0000 C   0  0  0  0  0  0  0  0  0  0  0  0
    8.0622   -3.2500    0.0000 C   0  0  0  0  0  0  0  0  0  0  0  0
    8.9282   -1.7500    0.0000 C   0  0  0  0  0  0  0  0  0  0  0  0
    7.1962   -2.7500    0.0000 C   0  0  0  0  0  0  0  0  0  0  0  0
    8.0622   -1.2500    0.0000 C   0  0  0  0  0  0  0  0  0  0  0  0
    4.5981    1.7500    0.0000 C   0  0  0  0  0  0  0  0  0  0  0  0
    9.7942   -3.2500    0.0000 C   0  0  0  0  0  0  0  0  0  0  0  0
    6.3301   -1.2500    0.0000 C   0  0  0  0  0  0  0  0  0  0  0  0
    4.5981    5.7500    0.0000 C   0  0  0  0  0  0  0  0  0  0  0  0
    5.4641    1.2500    0.0000 C   0  0  0  0  0  0  0  0  0  0  0  0
    5.4641    0.2500    0.0000 C   0  0  0  0  0  0  0  0  0  0  0  0
    3.7320    1.2500    0.0000 C   0  0  0  0  0  0  0  0  0  0  0  0
    9.7942   -4.2500    0.0000 C   0  0  0  0  0  0  0  0  0  0  0  0
    4.5981   -0.2500    0.0000 C   0  0  0  0  0  0  0  0  0  0  0  0
    3.7320    0.2500    0.0000 C   0  0  0  0  0  0  0  0  0  0  0  0
   10.6603   -2.7500    0.0000 C   0  0  0  0  0  0  0  0  0  0  0  0
   10.6603   -4.7500    0.0000 C   0  0  0  0  0  0  0  0  0  0  0  0
   11.5263   -3.2500    0.0000 C   0  0  0  0  0  0  0  0  0  0  0  0
   11.5263   -4.2500    0.0000 C   0  0  0  0  0  0  0  0  0  0  0  0
    2.0000    1.2500    0.0000 C   0  0  0  0  0  0  0  0  0  0  0  0
    8.9282   -5.7500    0.0000 C   0  0  0  0  0  0  0  0  0  0  0  0
    5.6762    2.6674    0.0000 H   0  0  0  0  0  0  0  0  0  0  0  0
    6.0747    3.3577    0.0000 H   0  0  0  0  0  0  0  0  0  0  0  0
    3.1215    3.3577    0.0000 H   0  0  0  0  0  0  0  0  0  0  0  0
    3.5200    2.6674    0.0000 H   0  0  0  0  0  0  0  0  0  0  0  0
    6.0747    4.1423    0.0000 H   0  0  0  0  0  0  0  0  0  0  0  0
    5.6762    4.8326    0.0000 H   0  0  0  0  0  0  0  0  0  0  0  0
    3.5200    4.8326    0.0000 H   0  0  0  0  0  0  0  0  0  0  0  0
    3.1215    4.1423    0.0000 H   0  0  0  0  0  0  0  0  0  0  0  0
    7.6636   -3.7250    0.0000 H   0  0  0  0  0  0  0  0  0  0  0  0
    8.4607   -3.7250    0.0000 H   0  0  0  0  0  0  0  0  0  0  0  0
    9.5388   -1.8577    0.0000 H   0  0  0  0  0  0  0  0  0  0  0  0
    9.1403   -1.1674    0.0000 H   0  0  0  0  0  0  0  0  0  0  0  0
    6.5856   -2.6423    0.0000 H   0  0  0  0  0  0  0  0  0  0  0  0
    6.9841   -3.3326    0.0000 H   0  0  0  0  0  0  0  0  0  0  0  0
    8.4607   -0.7751    0.0000 H   0  0  0  0  0  0  0  0  0  0  0  0
    7.6636   -0.7751    0.0000 H   0  0  0  0  0  0  0  0  0  0  0  0
    5.2181    5.7500    0.0000 H   0  0  0  0  0  0  0  0  0  0  0  0
    4.5981    6.3700    0.0000 H   0  0  0  0  0  0  0  0  0  0  0  0
    3.9781    5.7500    0.0000 H   0  0  0  0  0  0  0  0  0  0  0  0
    6.0010    1.5600    0.0000 H   0  0  0  0  0  0  0  0  0  0  0  0
    6.8671    0.0600    0.0000 H   0  0  0  0  0  0  0  0  0  0  0  0
    4.5981   -0.8700    0.0000 H   0  0  0  0  0  0  0  0  0  0  0  0
    3.1951   -0.0600    0.0000 H   0  0  0  0  0  0  0  0  0  0  0  0
   10.6603   -2.1300    0.0000 H   0  0  0  0  0  0  0  0  0  0  0  0
   10.6603   -5.3700    0.0000 H   0  0  0  0  0  0  0  0  0  0  0  0
   12.0632   -2.9400    0.0000 H   0  0  0  0  0  0  0  0  0  0  0  0
   12.0632   -4.5600    0.0000 H   0  0  0  0  0  0  0  0  0  0  0  0
    1.6900    1.7869    0.0000 H   0  0  0  0  0  0  0  0  0  0  0  0
    1.4631    0.9400    0.0000 H   0  0  0  0  0  0  0  0  0  0  0  0
    2.3100    0.7131    0.0000 H   0  0  0  0  0  0  0  0  0  0  0  0
    8.3082   -5.7500    0.0000 H   0  0  0  0  0  0  0  0  0  0  0  0
    8.9282   -6.3700    0.0000 H   0  0  0  0  0  0  0  0  0  0  0  0
    9.5482   -5.7500    0.0000 H   0  0  0  0  0  0  0  0  0  0  0  0
  1 23  1  0  0  0  0
  1 31  1  0  0  0  0
  2 19  2  0  0  0  0
  3 24  1  0  0  0  0
  3 32  1  0  0  0  0
  4  9  1  0  0  0  0
  4 10  1  0  0  0  0
  4 17  1  0  0  0  0
  5 11  1  0  0  0  0
  5 12  1  0  0  0  0
  5 20  1  0  0  0  0
  6 13  1  0  0  0  0
  6 14  1  0  0  0  0
  6 18  1  0  0  0  0
  7 15  1  0  0  0  0
  7 16  1  0  0  0  0
  7 19  1  0  0  0  0
  8 19  1  0  0  0  0
  8 22  1  0  0  0  0
  8 53  1  0  0  0  0
  9 11  1  0  0  0  0
  9 33  1  0  0  0  0
  9 34  1  0  0  0  0
 10 12  1  0  0  0  0
 10 35  1  0  0  0  0
 10 36  1  0  0  0  0
 11 37  1  0  0  0  0
 11 38  1  0  0  0  0
 12 39  1  0  0  0  0
 12 40  1  0  0  0  0
 13 15  1  0  0  0  0
 13 41  1  0  0  0  0
 13 42  1  0  0  0  0
 14 16  1  0  0  0  0
 14 43  1  0  0  0  0
 14 44  1  0  0  0  0
 15 45  1  0  0  0  0
 15 46  1  0  0  0  0
 16 47  1  0  0  0  0
 16 48  1  0  0  0  0
 17 21  1  0  0  0  0
 17 23  2  0  0  0  0
 18 24  1  0  0  0  0
 18 27  2  0  0  0  0
 20 49  1  0  0  0  0
 20 50  1  0  0  0  0
 20 51  1  0  0  0  0
 21 22  2  0  0  0  0
 21 52  1  0  0  0  0
 22 25  1  0  0  0  0
 23 26  1  0  0  0  0
 24 28  2  0  0  0  0
 25 26  2  0  0  0  0
 25 54  1  0  0  0  0
 26 55  1  0  0  0  0
 27 29  1  0  0  0  0
 27 56  1  0  0  0  0
 28 30  1  0  0  0  0
 28 57  1  0  0  0  0
 29 30  2  0  0  0  0
 29 58  1  0  0  0  0
 30 59  1  0  0  0  0
 31 60  1  0  0  0  0
 31 61  1  0  0  0  0
 31 62  1  0  0  0  0
 32 63  1  0  0  0  0
 32 64  1  0  0  0  0
 32 65  1  0  0  0  0
M  END
> <PUBCHEM_COMPOUND_CID>
10478367

> <PUBCHEM_COMPOUND_CANONICALIZED>
1

> <PUBCHEM_CACTVS_COMPLEXITY>
592

> <PUBCHEM_CACTVS_HBOND_ACCEPTOR>
6

> <PUBCHEM_CACTVS_HBOND_DONOR>
1

> <PUBCHEM_CACTVS_ROTATABLE_BOND>
5

> <PUBCHEM_CACTVS_SUBSKEYS>
AAADcfB7sAAAAAAAAAAAAAAAAAAAAAAAAAA8eIEAAAAAAAABQAAAHgAQAAAACAzBkAYzxoPABACIACRCUACCCAAhIgAIiAAPbIiOZiLE8duVMChs1hPY6CewQAAAAEAAAAQAEAAAgAAACAAgAAAAAAAAAA==

> <PUBCHEM_IUPAC_OPENEYE_NAME>
N-[4-methoxy-3-(4-methylpiperazin-1-yl)phenyl]-4-(2-methoxyphenyl)piperazine-1-carboxamide

> <PUBCHEM_IUPAC_CAS_NAME>
N-[4-methoxy-3-(4-methyl-1-piperazinyl)phenyl]-4-(2-methoxyphenyl)-1-piperazinecarboxamide

> <PUBCHEM_IUPAC_NAME_MARKUP>
<I>N</I>-[4-methoxy-3-(4-methylpiperazin-1-yl)phenyl]-4-(2-methoxyphenyl)piperazine-1-carboxamide

> <PUBCHEM_IUPAC_NAME>
N-[4-methoxy-3-(4-methylpiperazin-1-yl)phenyl]-4-(2-methoxyphenyl)piperazine-1-carboxamide

> <PUBCHEM_IUPAC_SYSTEMATIC_NAME>
N-[4-methoxy-3-(4-methylpiperazin-1-yl)phenyl]-4-(2-methoxyphenyl)piperazine-1-carboxamide

> <PUBCHEM_IUPAC_TRADITIONAL_NAME>
N-[4-methoxy-3-(4-methylpiperazino)phenyl]-4-(2-methoxyphenyl)piperazine-1-carboxamide

> <PUBCHEM_IUPAC_INCHI>
InChI=1S/C24H33N5O3/c1-26-10-12-28(13-11-26)21-18-19(8-9-23(21)32-3)25-24(30)29-16-14-27(15-17-29)20-6-4-5-7-22(20)31-2/h4-9,18H,10-17H2,1-3H3,(H,25,30)

> <PUBCHEM_IUPAC_INCHIKEY>
FBDANPRMCCLYRK-UHFFFAOYSA-N

> <PUBCHEM_XLOGP3_AA>
2.6

> <PUBCHEM_EXACT_MASS>
439.25833993

> <PUBCHEM_MOLECULAR_FORMULA>
C24H33N5O3

> <PUBCHEM_MOLECULAR_WEIGHT>
439.6

> <PUBCHEM_OPENEYE_CAN_SMILES>
CN1CCN(CC1)C2=C(C=CC(=C2)NC(=O)N3CCN(CC3)C4=CC=CC=C4OC)OC

> <PUBCHEM_OPENEYE_ISO_SMILES>
CN1CCN(CC1)C2=C(C=CC(=C2)NC(=O)N3CCN(CC3)C4=CC=CC=C4OC)OC

> <PUBCHEM_CACTVS_TPSA>
60.5

> <PUBCHEM_MONOISOTOPIC_WEIGHT>
439.25833993

> <PUBCHEM_TOTAL_CHARGE>
0

> <PUBCHEM_HEAVY_ATOM_COUNT>
32

> <PUBCHEM_ATOM_DEF_STEREO_COUNT>
0

> <PUBCHEM_ATOM_UDEF_STEREO_COUNT>
0

> <PUBCHEM_BOND_DEF_STEREO_COUNT>
0

> <PUBCHEM_BOND_UDEF_STEREO_COUNT>
0

> <PUBCHEM_ISOTOPIC_ATOM_COUNT>
0

> <PUBCHEM_COMPONENT_COUNT>
1

> <PUBCHEM_CACTVS_TAUTO_COUNT>
-1

> <PUBCHEM_COORDINATE_TYPE>
1
5
255

> <PUBCHEM_BONDANNOTATIONS>
17  21  8
17  23  8
18  24  8
18  27  8
21  22  8
22  25  8
23  26  8
24  28  8
25  26  8
27  29  8
28  30  8
29  30  8

$$$$
