25131339
  -OEChem-09292322432D

 46 49  0     0  0  0  0  0  0999 V2000
    8.4530    0.0482    0.0000 S   0  0  0  0  0  0  0  0  0  0  0  0
    9.4035    0.3588    0.0000 O   0  0  0  0  0  0  0  0  0  0  0  0
    7.5025   -0.2625    0.0000 O   0  0  0  0  0  0  0  0  0  0  0  0
    4.5981    0.8034    0.0000 N   0  0  0  0  0  0  0  0  0  0  0  0
    2.8660   -0.1966    0.0000 N   0  0  0  0  0  0  0  0  0  0  0  0
    8.1424    0.9987    0.0000 N   0  0  0  0  0  0  0  0  0  0  0  0
    3.7320    1.3034    0.0000 C   0  0  0  0  0  0  0  0  0  0  0  0
    4.5981   -0.1966    0.0000 C   0  0  0  0  0  0  0  0  0  0  0  0
    2.8660    0.8034    0.0000 C   0  0  0  0  0  0  0  0  0  0  0  0
    3.7320   -0.6966    0.0000 C   0  0  0  0  0  0  0  0  0  0  0  0
    5.4641    1.3034    0.0000 C   0  0  0  0  0  0  0  0  0  0  0  0
    7.1962    1.3034    0.0000 C   0  0  0  0  0  0  0  0  0  0  0  0
    6.3301    0.8034    0.0000 C   0  0  0  0  0  0  0  0  0  0  0  0
    7.1962    2.3034    0.0000 C   0  0  0  0  0  0  0  0  0  0  0  0
    5.4641    2.3034    0.0000 C   0  0  0  0  0  0  0  0  0  0  0  0
    2.0000   -0.6966    0.0000 C   0  0  0  0  0  0  0  0  0  0  0  0
    6.3301    2.8034    0.0000 C   0  0  0  0  0  0  0  0  0  0  0  0
    8.1424    2.6081    0.0000 C   0  0  0  0  0  0  0  0  0  0  0  0
    8.7260    1.8034    0.0000 C   0  0  0  0  0  0  0  0  0  0  0  0
    8.7637   -0.9024    0.0000 C   0  0  0  0  0  0  0  0  0  0  0  0
    8.0958   -1.6467    0.0000 C   0  0  0  0  0  0  0  0  0  0  0  0
    9.7422   -1.1086    0.0000 C   0  0  0  0  0  0  0  0  0  0  0  0
    8.4065   -2.5972    0.0000 C   0  0  0  0  0  0  0  0  0  0  0  0
   10.0529   -2.0591    0.0000 C   0  0  0  0  0  0  0  0  0  0  0  0
    9.3850   -2.8034    0.0000 C   0  0  0  0  0  0  0  0  0  0  0  0
    4.1306    1.7784    0.0000 H   0  0  0  0  0  0  0  0  0  0  0  0
    3.3335    1.7784    0.0000 H   0  0  0  0  0  0  0  0  0  0  0  0
    4.8101   -0.7792    0.0000 H   0  0  0  0  0  0  0  0  0  0  0  0
    5.2087   -0.0889    0.0000 H   0  0  0  0  0  0  0  0  0  0  0  0
    2.6540    1.3860    0.0000 H   0  0  0  0  0  0  0  0  0  0  0  0
    2.2554    0.6957    0.0000 H   0  0  0  0  0  0  0  0  0  0  0  0
    3.3335   -1.1715    0.0000 H   0  0  0  0  0  0  0  0  0  0  0  0
    4.1306   -1.1715    0.0000 H   0  0  0  0  0  0  0  0  0  0  0  0
    6.3301    0.1834    0.0000 H   0  0  0  0  0  0  0  0  0  0  0  0
    4.9272    2.6134    0.0000 H   0  0  0  0  0  0  0  0  0  0  0  0
    1.6900   -0.1597    0.0000 H   0  0  0  0  0  0  0  0  0  0  0  0
    1.4631   -1.0066    0.0000 H   0  0  0  0  0  0  0  0  0  0  0  0
    2.3100   -1.2335    0.0000 H   0  0  0  0  0  0  0  0  0  0  0  0
    6.3301    3.4234    0.0000 H   0  0  0  0  0  0  0  0  0  0  0  0
    8.3350    3.1975    0.0000 H   0  0  0  0  0  0  0  0  0  0  0  0
    9.3460    1.8034    0.0000 H   0  0  0  0  0  0  0  0  0  0  0  0
    7.4892   -1.5188    0.0000 H   0  0  0  0  0  0  0  0  0  0  0  0
   10.1563   -0.6471    0.0000 H   0  0  0  0  0  0  0  0  0  0  0  0
    7.9924   -3.0587    0.0000 H   0  0  0  0  0  0  0  0  0  0  0  0
   10.6595   -2.1870    0.0000 H   0  0  0  0  0  0  0  0  0  0  0  0
    9.5776   -3.3927    0.0000 H   0  0  0  0  0  0  0  0  0  0  0  0
  1  2  2  0  0  0  0
  1  3  2  0  0  0  0
  1  6  1  0  0  0  0
  1 20  1  0  0  0  0
  4  7  1  0  0  0  0
  4  8  1  0  0  0  0
  4 11  1  0  0  0  0
  5  9  1  0  0  0  0
  5 10  1  0  0  0  0
  5 16  1  0  0  0  0
  6 12  1  0  0  0  0
  6 19  1  0  0  0  0
  7  9  1  0  0  0  0
  7 26  1  0  0  0  0
  7 27  1  0  0  0  0
  8 10  1  0  0  0  0
  8 28  1  0  0  0  0
  8 29  1  0  0  0  0
  9 30  1  0  0  0  0
  9 31  1  0  0  0  0
 10 32  1  0  0  0  0
 10 33  1  0  0  0  0
 11 13  2  0  0  0  0
 11 15  1  0  0  0  0
 12 13  1  0  0  0  0
 12 14  2  0  0  0  0
 13 34  1  0  0  0  0
 14 17  1  0  0  0  0
 14 18  1  0  0  0  0
 15 17  2  0  0  0  0
 15 35  1  0  0  0  0
 16 36  1  0  0  0  0
 16 37  1  0  0  0  0
 16 38  1  0  0  0  0
 17 39  1  0  0  0  0
 18 19  2  0  0  0  0
 18 40  1  0  0  0  0
 19 41  1  0  0  0  0
 20 21  2  0  0  0  0
 20 22  1  0  0  0  0
 21 23  1  0  0  0  0
 21 42  1  0  0  0  0
 22 24  2  0  0  0  0
 22 43  1  0  0  0  0
 23 25  2  0  0  0  0
 23 44  1  0  0  0  0
 24 25  1  0  0  0  0
 24 45  1  0  0  0  0
 25 46  1  0  0  0  0
M  END
> <PUBCHEM_COMPOUND_CID>
25131339

> <PUBCHEM_COMPOUND_CANONICALIZED>
1

> <PUBCHEM_CACTVS_COMPLEXITY>
548

> <PUBCHEM_CACTVS_HBOND_ACCEPTOR>
4

> <PUBCHEM_CACTVS_HBOND_DONOR>
0

> <PUBCHEM_CACTVS_ROTATABLE_BOND>
3

> <PUBCHEM_CACTVS_SUBSKEYS>
AAADceB7MABAAAAAAAAAAAAAAAAAAWAAAAA8YIAAAAAAAFgB9AAAHAQAQAAADAjBXgQ+wfMIEAKgAzRnRHDCgDAxAiAI2Dg4ZJgIYOLA0dGUJAhggADIyAcQgIAOCAAAAAQCAAAQAAAACAQAAAAAAAAAAA==

> <PUBCHEM_IUPAC_OPENEYE_NAME>
1-(benzenesulfonyl)-6-(4-methylpiperazin-1-yl)indole

> <PUBCHEM_IUPAC_CAS_NAME>
1-(benzenesulfonyl)-6-(4-methyl-1-piperazinyl)indole

> <PUBCHEM_IUPAC_NAME_MARKUP>
1-(benzenesulfonyl)-6-(4-methylpiperazin-1-yl)indole

> <PUBCHEM_IUPAC_NAME>
1-(benzenesulfonyl)-6-(4-methylpiperazin-1-yl)indole

> <PUBCHEM_IUPAC_SYSTEMATIC_NAME>
6-(4-methylpiperazin-1-yl)-1-(phenylsulfonyl)indole

> <PUBCHEM_IUPAC_TRADITIONAL_NAME>
1-besyl-6-(4-methylpiperazino)indole

> <PUBCHEM_IUPAC_INCHI>
InChI=1S/C19H21N3O2S/c1-20-11-13-21(14-12-20)17-8-7-16-9-10-22(19(16)15-17)25(23,24)18-5-3-2-4-6-18/h2-10,15H,11-14H2,1H3

> <PUBCHEM_IUPAC_INCHIKEY>
ZZRPBEZGINGVMX-UHFFFAOYSA-N

> <PUBCHEM_XLOGP3_AA>
3.2

> <PUBCHEM_EXACT_MASS>
355.13544809

> <PUBCHEM_MOLECULAR_FORMULA>
C19H21N3O2S

> <PUBCHEM_MOLECULAR_WEIGHT>
355.5

> <PUBCHEM_OPENEYE_CAN_SMILES>
CN1CCN(CC1)C2=CC3=C(C=C2)C=CN3S(=O)(=O)C4=CC=CC=C4

> <PUBCHEM_OPENEYE_ISO_SMILES>
CN1CCN(CC1)C2=CC3=C(C=C2)C=CN3S(=O)(=O)C4=CC=CC=C4

> <PUBCHEM_CACTVS_TPSA>
53.9

> <PUBCHEM_MONOISOTOPIC_WEIGHT>
355.13544809

> <PUBCHEM_TOTAL_CHARGE>
0

> <PUBCHEM_HEAVY_ATOM_COUNT>
25

> <PUBCHEM_ATOM_DEF_STEREO_COUNT>
0

> <PUBCHEM_ATOM_UDEF_STEREO_COUNT>
0

> <PUBCHEM_BOND_DEF_STEREO_COUNT>
0

> <PUBCHEM_BOND_UDEF_STEREO_COUNT>
0

> <PUBCHEM_ISOTOPIC_ATOM_COUNT>
0

> <PUBCHEM_COMPONENT_COUNT>
1

> <PUBCHEM_CACTVS_TAUTO_COUNT>
-1

> <PUBCHEM_COORDINATE_TYPE>
1
5
255

> <PUBCHEM_BONDANNOTATIONS>
11  13  8
11  15  8
12  13  8
12  14  8
14  17  8
14  18  8
15  17  8
18  19  8
20  21  8
20  22  8
21  23  8
22  24  8
23  25  8
24  25  8
6  12  8
6  19  8

$$$$
