10853014
  -OEChem-09292322512D

 47 50  0     1  0  0  0  0  0999 V2000
    4.2086    1.1622    0.0000 F   0  0  0  0  0  0  0  0  0  0  0  0
    2.0000   -2.1311    0.0000 F   0  0  0  0  0  0  0  0  0  0  0  0
    5.5443   -1.9358    0.0000 N   0  0  0  0  0  0  0  0  0  0  0  0
    7.1441    1.7809    0.0000 N   0  0  0  0  0  0  0  0  0  0  0  0
    7.1279   -1.1311    0.0000 C   0  0  0  0  0  0  0  0  0  0  0  0
    5.8550    0.6241    0.0000 C   0  0  1  0  0  0  0  0  0  0  0  0
    6.1279   -1.1311    0.0000 C   0  0  0  0  0  0  0  0  0  0  0  0
    5.5443   -0.3264    0.0000 C   0  0  0  0  0  0  0  0  0  0  0  0
    7.6279   -1.9971    0.0000 C   0  0  0  0  0  0  0  0  0  0  0  0
    7.6279   -0.2651    0.0000 C   0  0  0  0  0  0  0  0  0  0  0  0
    5.1871    1.3684    0.0000 C   0  0  1  0  0  0  0  0  0  0  0  0
    8.6279   -1.9971    0.0000 C   0  0  0  0  0  0  0  0  0  0  0  0
    8.6279   -0.2651    0.0000 C   0  0  0  0  0  0  0  0  0  0  0  0
    9.1279   -1.1311    0.0000 C   0  0  0  0  0  0  0  0  0  0  0  0
    6.8335    0.8304    0.0000 C   0  0  0  0  0  0  0  0  0  0  0  0
    4.5981   -0.6311    0.0000 C   0  0  0  0  0  0  0  0  0  0  0  0
    5.4978    2.3190    0.0000 C   0  0  0  0  0  0  0  0  0  0  0  0
    4.5981   -1.6311    0.0000 C   0  0  0  0  0  0  0  0  0  0  0  0
    6.4763    2.5252    0.0000 C   0  0  0  0  0  0  0  0  0  0  0  0
    3.7320   -0.1311    0.0000 C   0  0  0  0  0  0  0  0  0  0  0  0
    3.7320   -2.1311    0.0000 C   0  0  0  0  0  0  0  0  0  0  0  0
    2.8660   -0.6311    0.0000 C   0  0  0  0  0  0  0  0  0  0  0  0
    2.8660   -1.6311    0.0000 C   0  0  0  0  0  0  0  0  0  0  0  0
    6.8179   -1.6681    0.0000 H   0  0  0  0  0  0  0  0  0  0  0  0
    6.4226   -0.0085    0.0000 H   0  0  0  0  0  0  0  0  0  0  0  0
    7.0453   -2.2092    0.0000 H   0  0  0  0  0  0  0  0  0  0  0  0
    7.7356   -2.6077    0.0000 H   0  0  0  0  0  0  0  0  0  0  0  0
    7.7356    0.3455    0.0000 H   0  0  0  0  0  0  0  0  0  0  0  0
    7.0453   -0.0530    0.0000 H   0  0  0  0  0  0  0  0  0  0  0  0
    4.9945    0.7791    0.0000 H   0  0  0  0  0  0  0  0  0  0  0  0
    8.5202   -2.6077    0.0000 H   0  0  0  0  0  0  0  0  0  0  0  0
    9.2105   -2.2092    0.0000 H   0  0  0  0  0  0  0  0  0  0  0  0
    9.2105   -0.0530    0.0000 H   0  0  0  0  0  0  0  0  0  0  0  0
    8.5202    0.3455    0.0000 H   0  0  0  0  0  0  0  0  0  0  0  0
    9.6028   -1.5296    0.0000 H   0  0  0  0  0  0  0  0  0  0  0  0
    9.6028   -0.7326    0.0000 H   0  0  0  0  0  0  0  0  0  0  0  0
    6.8540    0.2107    0.0000 H   0  0  0  0  0  0  0  0  0  0  0  0
    7.4473    0.7430    0.0000 H   0  0  0  0  0  0  0  0  0  0  0  0
    5.4772    2.9386    0.0000 H   0  0  0  0  0  0  0  0  0  0  0  0
    4.8840    2.4063    0.0000 H   0  0  0  0  0  0  0  0  0  0  0  0
    5.7369   -2.5252    0.0000 H   0  0  0  0  0  0  0  0  0  0  0  0
    7.0026    2.8528    0.0000 H   0  0  0  0  0  0  0  0  0  0  0  0
    6.2450    3.1004    0.0000 H   0  0  0  0  0  0  0  0  0  0  0  0
    7.7508    1.9087    0.0000 H   0  0  0  0  0  0  0  0  0  0  0  0
    3.7320    0.4889    0.0000 H   0  0  0  0  0  0  0  0  0  0  0  0
    3.7320   -2.7511    0.0000 H   0  0  0  0  0  0  0  0  0  0  0  0
    2.3291   -0.3211    0.0000 H   0  0  0  0  0  0  0  0  0  0  0  0
 11  1  1  6  0  0  0
  2 23  1  0  0  0  0
  3  7  1  0  0  0  0
  3 18  1  0  0  0  0
  3 41  1  0  0  0  0
  4 15  1  0  0  0  0
  4 19  1  0  0  0  0
  4 44  1  0  0  0  0
  5  7  1  0  0  0  0
  5  9  1  0  0  0  0
  5 10  1  0  0  0  0
  5 24  1  0  0  0  0
  6  8  1  0  0  0  0
  6 11  1  0  0  0  0
  6 15  1  0  0  0  0
  6 25  1  6  0  0  0
  7  8  2  0  0  0  0
  8 16  1  0  0  0  0
  9 12  1  0  0  0  0
  9 26  1  0  0  0  0
  9 27  1  0  0  0  0
 10 13  1  0  0  0  0
 10 28  1  0  0  0  0
 10 29  1  0  0  0  0
 11 17  1  0  0  0  0
 11 30  1  0  0  0  0
 12 14  1  0  0  0  0
 12 31  1  0  0  0  0
 12 32  1  0  0  0  0
 13 14  1  0  0  0  0
 13 33  1  0  0  0  0
 13 34  1  0  0  0  0
 14 35  1  0  0  0  0
 14 36  1  0  0  0  0
 15 37  1  0  0  0  0
 15 38  1  0  0  0  0
 16 18  2  0  0  0  0
 16 20  1  0  0  0  0
 17 19  1  0  0  0  0
 17 39  1  0  0  0  0
 17 40  1  0  0  0  0
 18 21  1  0  0  0  0
 19 42  1  0  0  0  0
 19 43  1  0  0  0  0
 20 22  2  0  0  0  0
 20 45  1  0  0  0  0
 21 23  2  0  0  0  0
 21 46  1  0  0  0  0
 22 23  1  0  0  0  0
 22 47  1  0  0  0  0
M  END
> <PUBCHEM_COMPOUND_CID>
10853014

> <PUBCHEM_COMPOUND_CANONICALIZED>
1

> <PUBCHEM_CACTVS_COMPLEXITY>
399

> <PUBCHEM_CACTVS_HBOND_ACCEPTOR>
3

> <PUBCHEM_CACTVS_HBOND_DONOR>
2

> <PUBCHEM_CACTVS_ROTATABLE_BOND>
2

> <PUBCHEM_CACTVS_SUBSKEYS>
AAADceB7AYAAAAAAAAAAAAAAAAAAAWAAAAA8YIAAAAAAAFgB8AAAHQAQAAAADQjBHgwwwPLJkACgAyRiRACCgCAhAiAImaA4ZJgIIOLAkZGEIAhgkADIyAcQgMAOgAAAAAACAAAAAAAAAAQAAAAAAAAAAA==

> <PUBCHEM_IUPAC_OPENEYE_NAME>
2-cyclohexyl-6-fluoro-3-[(3R,4R)-4-fluoro-3-piperidyl]-1H-indole

> <PUBCHEM_IUPAC_CAS_NAME>
2-cyclohexyl-6-fluoro-3-[(3R,4R)-4-fluoro-3-piperidinyl]-1H-indole

> <PUBCHEM_IUPAC_NAME_MARKUP>
2-cyclohexyl-6-fluoro-3-[(3<I>R</I>,4<I>R</I>)-4-fluoropiperidin-3-yl]-1<I>H</I>-indole

> <PUBCHEM_IUPAC_NAME>
2-cyclohexyl-6-fluoro-3-[(3R,4R)-4-fluoropiperidin-3-yl]-1H-indole

> <PUBCHEM_IUPAC_SYSTEMATIC_NAME>
2-cyclohexyl-6-fluoranyl-3-[(3R,4R)-4-fluoranylpiperidin-3-yl]-1H-indole

> <PUBCHEM_IUPAC_TRADITIONAL_NAME>
2-cyclohexyl-6-fluoro-3-[(3R,4R)-4-fluoro-3-piperidyl]-1H-indole

> <PUBCHEM_IUPAC_INCHI>
InChI=1S/C19H24F2N2/c20-13-6-7-14-17(10-13)23-19(12-4-2-1-3-5-12)18(14)15-11-22-9-8-16(15)21/h6-7,10,12,15-16,22-23H,1-5,8-9,11H2/t15-,16-/m1/s1

> <PUBCHEM_IUPAC_INCHIKEY>
JQDBXOHJKFSLAO-HZPDHXFCSA-N

> <PUBCHEM_XLOGP3_AA>
4.5

> <PUBCHEM_EXACT_MASS>
318.19075510

> <PUBCHEM_MOLECULAR_FORMULA>
C19H24F2N2

> <PUBCHEM_MOLECULAR_WEIGHT>
318.4

> <PUBCHEM_OPENEYE_CAN_SMILES>
C1CCC(CC1)C2=C(C3=C(N2)C=C(C=C3)F)C4CNCCC4F

> <PUBCHEM_OPENEYE_ISO_SMILES>
C1CCC(CC1)C2=C(C3=C(N2)C=C(C=C3)F)[C@@H]4CNCC[C@H]4F

> <PUBCHEM_CACTVS_TPSA>
27.8

> <PUBCHEM_MONOISOTOPIC_WEIGHT>
318.19075510

> <PUBCHEM_TOTAL_CHARGE>
0

> <PUBCHEM_HEAVY_ATOM_COUNT>
23

> <PUBCHEM_ATOM_DEF_STEREO_COUNT>
2

> <PUBCHEM_ATOM_UDEF_STEREO_COUNT>
0

> <PUBCHEM_BOND_DEF_STEREO_COUNT>
0

> <PUBCHEM_BOND_UDEF_STEREO_COUNT>
0

> <PUBCHEM_ISOTOPIC_ATOM_COUNT>
0

> <PUBCHEM_COMPONENT_COUNT>
1

> <PUBCHEM_CACTVS_TAUTO_COUNT>
-1

> <PUBCHEM_COORDINATE_TYPE>
1
5
255

> <PUBCHEM_BONDANNOTATIONS>
11  1  6
16  18  8
16  20  8
18  21  8
20  22  8
21  23  8
22  23  8
3  18  8
3  7  8
6  25  6
7  8  8
8  16  8

$$$$
