44335799
  -OEChem-09292322162D

 57 60  0     1  0  0  0  0  0999 V2000
   12.4598   -2.0366    0.0000 F   0  0  0  0  0  0  0  0  0  0  0  0
   11.6875   -0.8518    0.0000 F   0  0  0  0  0  0  0  0  0  0  0  0
   11.2751   -2.8089    0.0000 F   0  0  0  0  0  0  0  0  0  0  0  0
    4.3211    0.5637    0.0000 O   0  0  0  0  0  0  0  0  0  0  0  0
   10.5028   -1.6241    0.0000 O   0  0  0  0  0  0  0  0  0  0  0  0
    6.2781    0.1513    0.0000 N   0  0  0  0  0  0  0  0  0  0  0  0
    4.6783    2.2585    0.0000 N   0  0  0  0  0  0  0  0  0  0  0  0
    6.8994   -1.7498    0.0000 N   0  0  0  0  0  0  0  0  0  0  0  0
    5.2619    3.0633    0.0000 C   0  0  3  0  0  0  0  0  0  0  0  0
    5.6103   -0.5930    0.0000 C   0  0  0  0  0  0  0  0  0  0  0  0
    7.2566   -0.0550    0.0000 C   0  0  0  0  0  0  0  0  0  0  0  0
    5.9209   -1.5436    0.0000 C   0  0  0  0  0  0  0  0  0  0  0  0
    7.5673   -1.0055    0.0000 C   0  0  0  0  0  0  0  0  0  0  0  0
    4.6783    3.8680    0.0000 C   0  0  0  0  0  0  0  0  0  0  0  0
    5.9674    1.1018    0.0000 C   0  0  0  0  0  0  0  0  0  0  0  0
    3.7320    2.5633    0.0000 C   0  0  0  0  0  0  0  0  0  0  0  0
    3.7320    3.5633    0.0000 C   0  0  0  0  0  0  0  0  0  0  0  0
    4.9889    1.3080    0.0000 C   0  0  0  0  0  0  0  0  0  0  0  0
    7.2101   -2.7003    0.0000 C   0  0  0  0  0  0  0  0  0  0  0  0
    6.2619    3.0633    0.0000 C   0  0  0  0  0  0  0  0  0  0  0  0
    2.8660    2.0633    0.0000 C   0  0  0  0  0  0  0  0  0  0  0  0
    2.8660    4.0633    0.0000 C   0  0  0  0  0  0  0  0  0  0  0  0
    8.1886   -2.9065    0.0000 C   0  0  0  0  0  0  0  0  0  0  0  0
    2.0000    2.5633    0.0000 C   0  0  0  0  0  0  0  0  0  0  0  0
    2.0000    3.5633    0.0000 C   0  0  0  0  0  0  0  0  0  0  0  0
    8.8564   -2.1622    0.0000 C   0  0  0  0  0  0  0  0  0  0  0  0
    8.4993   -3.8570    0.0000 C   0  0  0  0  0  0  0  0  0  0  0  0
    9.8349   -2.3684    0.0000 C   0  0  0  0  0  0  0  0  0  0  0  0
    9.4778   -4.0633    0.0000 C   0  0  0  0  0  0  0  0  0  0  0  0
   10.1456   -3.3190    0.0000 C   0  0  0  0  0  0  0  0  0  0  0  0
   11.4813   -1.8304    0.0000 C   0  0  0  0  0  0  0  0  0  0  0  0
    5.5436    2.5109    0.0000 H   0  0  0  0  0  0  0  0  0  0  0  0
    5.2277   -0.1051    0.0000 H   0  0  0  0  0  0  0  0  0  0  0  0
    5.0633   -0.8851    0.0000 H   0  0  0  0  0  0  0  0  0  0  0  0
    7.8704    0.0324    0.0000 H   0  0  0  0  0  0  0  0  0  0  0  0
    7.2772    0.5647    0.0000 H   0  0  0  0  0  0  0  0  0  0  0  0
    5.3071   -1.6309    0.0000 H   0  0  0  0  0  0  0  0  0  0  0  0
    5.9004   -2.1632    0.0000 H   0  0  0  0  0  0  0  0  0  0  0  0
    7.9498   -1.4934    0.0000 H   0  0  0  0  0  0  0  0  0  0  0  0
    8.1142   -0.7135    0.0000 H   0  0  0  0  0  0  0  0  0  0  0  0
    5.2156    4.1772    0.0000 H   0  0  0  0  0  0  0  0  0  0  0  0
    4.4272    4.4349    0.0000 H   0  0  0  0  0  0  0  0  0  0  0  0
    6.5812    1.1891    0.0000 H   0  0  0  0  0  0  0  0  0  0  0  0
    5.9880    1.7214    0.0000 H   0  0  0  0  0  0  0  0  0  0  0  0
    6.5963   -2.7877    0.0000 H   0  0  0  0  0  0  0  0  0  0  0  0
    7.1895   -3.3200    0.0000 H   0  0  0  0  0  0  0  0  0  0  0  0
    6.2619    2.4433    0.0000 H   0  0  0  0  0  0  0  0  0  0  0  0
    6.8819    3.0633    0.0000 H   0  0  0  0  0  0  0  0  0  0  0  0
    6.2619    3.6833    0.0000 H   0  0  0  0  0  0  0  0  0  0  0  0
    2.8660    1.4433    0.0000 H   0  0  0  0  0  0  0  0  0  0  0  0
    2.8660    4.6833    0.0000 H   0  0  0  0  0  0  0  0  0  0  0  0
    1.4631    2.2533    0.0000 H   0  0  0  0  0  0  0  0  0  0  0  0
    1.4631    3.8733    0.0000 H   0  0  0  0  0  0  0  0  0  0  0  0
    8.6638   -1.5729    0.0000 H   0  0  0  0  0  0  0  0  0  0  0  0
    8.0852   -4.3185    0.0000 H   0  0  0  0  0  0  0  0  0  0  0  0
    9.6704   -4.6526    0.0000 H   0  0  0  0  0  0  0  0  0  0  0  0
   10.7523   -3.4468    0.0000 H   0  0  0  0  0  0  0  0  0  0  0  0
  1 31  1  0  0  0  0
  2 31  1  0  0  0  0
  3 31  1  0  0  0  0
  4 18  2  0  0  0  0
  5 28  1  0  0  0  0
  5 31  1  0  0  0  0
  6 10  1  0  0  0  0
  6 11  1  0  0  0  0
  6 15  1  0  0  0  0
  7  9  1  0  0  0  0
  7 16  1  0  0  0  0
  7 18  1  0  0  0  0
  8 12  1  0  0  0  0
  8 13  1  0  0  0  0
  8 19  1  0  0  0  0
  9 14  1  0  0  0  0
  9 20  1  0  0  0  0
  9 32  1  0  0  0  0
 10 12  1  0  0  0  0
 10 33  1  0  0  0  0
 10 34  1  0  0  0  0
 11 13  1  0  0  0  0
 11 35  1  0  0  0  0
 11 36  1  0  0  0  0
 12 37  1  0  0  0  0
 12 38  1  0  0  0  0
 13 39  1  0  0  0  0
 13 40  1  0  0  0  0
 14 17  1  0  0  0  0
 14 41  1  0  0  0  0
 14 42  1  0  0  0  0
 15 18  1  0  0  0  0
 15 43  1  0  0  0  0
 15 44  1  0  0  0  0
 16 17  1  0  0  0  0
 16 21  2  0  0  0  0
 17 22  2  0  0  0  0
 19 23  1  0  0  0  0
 19 45  1  0  0  0  0
 19 46  1  0  0  0  0
 20 47  1  0  0  0  0
 20 48  1  0  0  0  0
 20 49  1  0  0  0  0
 21 24  1  0  0  0  0
 21 50  1  0  0  0  0
 22 25  1  0  0  0  0
 22 51  1  0  0  0  0
 23 26  2  0  0  0  0
 23 27  1  0  0  0  0
 24 25  2  0  0  0  0
 24 52  1  0  0  0  0
 25 53  1  0  0  0  0
 26 28  1  0  0  0  0
 26 54  1  0  0  0  0
 27 29  2  0  0  0  0
 27 55  1  0  0  0  0
 28 30  2  0  0  0  0
 29 30  1  0  0  0  0
 29 56  1  0  0  0  0
 30 57  1  0  0  0  0
M  END
> <PUBCHEM_COMPOUND_CID>
44335799

> <PUBCHEM_COMPOUND_CANONICALIZED>
1

> <PUBCHEM_CACTVS_COMPLEXITY>
609

> <PUBCHEM_CACTVS_HBOND_ACCEPTOR>
7

> <PUBCHEM_CACTVS_HBOND_DONOR>
0

> <PUBCHEM_CACTVS_ROTATABLE_BOND>
5

> <PUBCHEM_CACTVS_SUBSKEYS>
AAADceB7MYAAAAAAAAAAAAAAAAAAAWAAAAA8YIAAAAAAAFgBQAAAHwAAAAAADCzBmBQyxoMABACIAiVSUACCCAAhIgAIiACObIgMZiLEsbuUMChkxhHI6AewwJAOAAABAAACAAAAAAIAAAQAAAAAAAAAAA==

> <PUBCHEM_IUPAC_OPENEYE_NAME>
1-(2-methylindolin-1-yl)-2-[4-[[3-(trifluoromethoxy)phenyl]methyl]piperazin-1-yl]ethanone

> <PUBCHEM_IUPAC_CAS_NAME>
1-(2-methyl-2,3-dihydroindol-1-yl)-2-[4-[[3-(trifluoromethoxy)phenyl]methyl]-1-piperazinyl]ethanone

> <PUBCHEM_IUPAC_NAME_MARKUP>
1-(2-methyl-2,3-dihydroindol-1-yl)-2-[4-[[3-(trifluoromethoxy)phenyl]methyl]piperazin-1-yl]ethanone

> <PUBCHEM_IUPAC_NAME>
1-(2-methyl-2,3-dihydroindol-1-yl)-2-[4-[[3-(trifluoromethoxy)phenyl]methyl]piperazin-1-yl]ethanone

> <PUBCHEM_IUPAC_SYSTEMATIC_NAME>
1-(2-methyl-2,3-dihydroindol-1-yl)-2-[4-[[3-(trifluoromethyloxy)phenyl]methyl]piperazin-1-yl]ethanone

> <PUBCHEM_IUPAC_TRADITIONAL_NAME>
1-(2-methylindolin-1-yl)-2-[4-[3-(trifluoromethoxy)benzyl]piperazino]ethanone

> <PUBCHEM_IUPAC_INCHI>
InChI=1S/C23H26F3N3O2/c1-17-13-19-6-2-3-8-21(19)29(17)22(30)16-28-11-9-27(10-12-28)15-18-5-4-7-20(14-18)31-23(24,25)26/h2-8,14,17H,9-13,15-16H2,1H3

> <PUBCHEM_IUPAC_INCHIKEY>
IXMZAEHXCUOHCK-UHFFFAOYSA-N

> <PUBCHEM_XLOGP3_AA>
4.3

> <PUBCHEM_EXACT_MASS>
433.19771157

> <PUBCHEM_MOLECULAR_FORMULA>
C23H26F3N3O2

> <PUBCHEM_MOLECULAR_WEIGHT>
433.5

> <PUBCHEM_OPENEYE_CAN_SMILES>
CC1CC2=CC=CC=C2N1C(=O)CN3CCN(CC3)CC4=CC(=CC=C4)OC(F)(F)F

> <PUBCHEM_OPENEYE_ISO_SMILES>
CC1CC2=CC=CC=C2N1C(=O)CN3CCN(CC3)CC4=CC(=CC=C4)OC(F)(F)F

> <PUBCHEM_CACTVS_TPSA>
36

> <PUBCHEM_MONOISOTOPIC_WEIGHT>
433.19771157

> <PUBCHEM_TOTAL_CHARGE>
0

> <PUBCHEM_HEAVY_ATOM_COUNT>
31

> <PUBCHEM_ATOM_DEF_STEREO_COUNT>
0

> <PUBCHEM_ATOM_UDEF_STEREO_COUNT>
1

> <PUBCHEM_BOND_DEF_STEREO_COUNT>
0

> <PUBCHEM_BOND_UDEF_STEREO_COUNT>
0

> <PUBCHEM_ISOTOPIC_ATOM_COUNT>
0

> <PUBCHEM_COMPONENT_COUNT>
1

> <PUBCHEM_CACTVS_TAUTO_COUNT>
-1

> <PUBCHEM_COORDINATE_TYPE>
1
5
255

> <PUBCHEM_BONDANNOTATIONS>
16  17  8
16  21  8
17  22  8
21  24  8
22  25  8
23  26  8
23  27  8
24  25  8
26  28  8
27  29  8
28  30  8
29  30  8
9  20  3

$$$$
