57873499
  -OEChem-09292322362D

 57 60  0     0  0  0  0  0  0999 V2000
   13.3263   -0.4827    0.0000 O   0  0  0  0  0  0  0  0  0  0  0  0
    8.1301    0.5173    0.0000 N   0  0  0  0  0  0  0  0  0  0  0  0
    6.3981   -0.4827    0.0000 N   0  0  0  0  0  0  0  0  0  0  0  0
   12.4603    1.0173    0.0000 N   0  0  0  0  0  0  0  0  0  0  0  0
    4.6660   -2.4827    0.0000 N   0  0  0  0  0  0  0  0  0  0  0  0
    7.2641    1.0173    0.0000 C   0  0  0  0  0  0  0  0  0  0  0  0
    8.1301   -0.4827    0.0000 C   0  0  0  0  0  0  0  0  0  0  0  0
    6.3981    0.5173    0.0000 C   0  0  0  0  0  0  0  0  0  0  0  0
    7.2641   -0.9827    0.0000 C   0  0  0  0  0  0  0  0  0  0  0  0
    8.9962    1.0173    0.0000 C   0  0  0  0  0  0  0  0  0  0  0  0
    9.8622    0.5173    0.0000 C   0  0  0  0  0  0  0  0  0  0  0  0
    5.5321   -0.9827    0.0000 C   0  0  0  0  0  0  0  0  0  0  0  0
   10.7282    1.0173    0.0000 C   0  0  0  0  0  0  0  0  0  0  0  0
   11.5942    0.5173    0.0000 C   0  0  0  0  0  0  0  0  0  0  0  0
    4.6660   -0.4827    0.0000 C   0  0  0  0  0  0  0  0  0  0  0  0
    5.5321   -1.9827    0.0000 C   0  0  0  0  0  0  0  0  0  0  0  0
    3.8000   -0.9827    0.0000 C   0  0  0  0  0  0  0  0  0  0  0  0
    3.8000   -1.9827    0.0000 C   0  0  0  0  0  0  0  0  0  0  0  0
    2.9061   -0.4480    0.0000 C   0  0  0  0  0  0  0  0  0  0  0  0
    2.9061   -2.5173    0.0000 C   0  0  0  0  0  0  0  0  0  0  0  0
   13.3263    0.5173    0.0000 C   0  0  0  0  0  0  0  0  0  0  0  0
    2.0000   -0.9619    0.0000 C   0  0  0  0  0  0  0  0  0  0  0  0
    2.0000   -2.0035    0.0000 C   0  0  0  0  0  0  0  0  0  0  0  0
   14.1923    1.0173    0.0000 C   0  0  0  0  0  0  0  0  0  0  0  0
   14.1923    2.0173    0.0000 C   0  0  0  0  0  0  0  0  0  0  0  0
   15.0583    0.5173    0.0000 C   0  0  0  0  0  0  0  0  0  0  0  0
   15.0583    2.5173    0.0000 C   0  0  0  0  0  0  0  0  0  0  0  0
   15.9244    1.0173    0.0000 C   0  0  0  0  0  0  0  0  0  0  0  0
   15.9244    2.0173    0.0000 C   0  0  0  0  0  0  0  0  0  0  0  0
    7.6626    1.4923    0.0000 H   0  0  0  0  0  0  0  0  0  0  0  0
    6.8656    1.4923    0.0000 H   0  0  0  0  0  0  0  0  0  0  0  0
    8.3422   -1.0653    0.0000 H   0  0  0  0  0  0  0  0  0  0  0  0
    8.7407   -0.3750    0.0000 H   0  0  0  0  0  0  0  0  0  0  0  0
    6.1860    1.0999    0.0000 H   0  0  0  0  0  0  0  0  0  0  0  0
    5.7875    0.4097    0.0000 H   0  0  0  0  0  0  0  0  0  0  0  0
    6.8656   -1.4576    0.0000 H   0  0  0  0  0  0  0  0  0  0  0  0
    7.6626   -1.4576    0.0000 H   0  0  0  0  0  0  0  0  0  0  0  0
    9.3947    1.4923    0.0000 H   0  0  0  0  0  0  0  0  0  0  0  0
    8.5976    1.4923    0.0000 H   0  0  0  0  0  0  0  0  0  0  0  0
    9.4637    0.0424    0.0000 H   0  0  0  0  0  0  0  0  0  0  0  0
   10.2607    0.0424    0.0000 H   0  0  0  0  0  0  0  0  0  0  0  0
   11.1267    1.4923    0.0000 H   0  0  0  0  0  0  0  0  0  0  0  0
   10.3297    1.4923    0.0000 H   0  0  0  0  0  0  0  0  0  0  0  0
   11.1957    0.0424    0.0000 H   0  0  0  0  0  0  0  0  0  0  0  0
   11.9928    0.0424    0.0000 H   0  0  0  0  0  0  0  0  0  0  0  0
    4.6660    0.1373    0.0000 H   0  0  0  0  0  0  0  0  0  0  0  0
    6.0690   -2.2927    0.0000 H   0  0  0  0  0  0  0  0  0  0  0  0
   12.4603    1.6373    0.0000 H   0  0  0  0  0  0  0  0  0  0  0  0
    2.9132    0.1720    0.0000 H   0  0  0  0  0  0  0  0  0  0  0  0
    2.9132   -3.1373    0.0000 H   0  0  0  0  0  0  0  0  0  0  0  0
    1.4643   -0.6498    0.0000 H   0  0  0  0  0  0  0  0  0  0  0  0
    1.4643   -2.3156    0.0000 H   0  0  0  0  0  0  0  0  0  0  0  0
   13.6554    2.3273    0.0000 H   0  0  0  0  0  0  0  0  0  0  0  0
   15.0583   -0.1027    0.0000 H   0  0  0  0  0  0  0  0  0  0  0  0
   15.0583    3.1373    0.0000 H   0  0  0  0  0  0  0  0  0  0  0  0
   16.4613    0.7073    0.0000 H   0  0  0  0  0  0  0  0  0  0  0  0
   16.4613    2.3273    0.0000 H   0  0  0  0  0  0  0  0  0  0  0  0
  1 21  2  0  0  0  0
  2  6  1  0  0  0  0
  2  7  1  0  0  0  0
  2 10  1  0  0  0  0
  3  8  1  0  0  0  0
  3  9  1  0  0  0  0
  3 12  1  0  0  0  0
  4 14  1  0  0  0  0
  4 21  1  0  0  0  0
  4 48  1  0  0  0  0
  5 16  2  0  0  0  0
  5 18  1  0  0  0  0
  6  8  1  0  0  0  0
  6 30  1  0  0  0  0
  6 31  1  0  0  0  0
  7  9  1  0  0  0  0
  7 32  1  0  0  0  0
  7 33  1  0  0  0  0
  8 34  1  0  0  0  0
  8 35  1  0  0  0  0
  9 36  1  0  0  0  0
  9 37  1  0  0  0  0
 10 11  1  0  0  0  0
 10 38  1  0  0  0  0
 10 39  1  0  0  0  0
 11 13  1  0  0  0  0
 11 40  1  0  0  0  0
 11 41  1  0  0  0  0
 12 15  2  0  0  0  0
 12 16  1  0  0  0  0
 13 14  1  0  0  0  0
 13 42  1  0  0  0  0
 13 43  1  0  0  0  0
 14 44  1  0  0  0  0
 14 45  1  0  0  0  0
 15 17  1  0  0  0  0
 15 46  1  0  0  0  0
 16 47  1  0  0  0  0
 17 18  1  0  0  0  0
 17 19  2  0  0  0  0
 18 20  2  0  0  0  0
 19 22  1  0  0  0  0
 19 49  1  0  0  0  0
 20 23  1  0  0  0  0
 20 50  1  0  0  0  0
 21 24  1  0  0  0  0
 22 23  2  0  0  0  0
 22 51  1  0  0  0  0
 23 52  1  0  0  0  0
 24 25  2  0  0  0  0
 24 26  1  0  0  0  0
 25 27  1  0  0  0  0
 25 53  1  0  0  0  0
 26 28  2  0  0  0  0
 26 54  1  0  0  0  0
 27 29  2  0  0  0  0
 27 55  1  0  0  0  0
 28 29  1  0  0  0  0
 28 56  1  0  0  0  0
 29 57  1  0  0  0  0
M  END
> <PUBCHEM_COMPOUND_CID>
57873499

> <PUBCHEM_COMPOUND_CANONICALIZED>
1

> <PUBCHEM_CACTVS_COMPLEXITY>
499

> <PUBCHEM_CACTVS_HBOND_ACCEPTOR>
4

> <PUBCHEM_CACTVS_HBOND_DONOR>
1

> <PUBCHEM_CACTVS_ROTATABLE_BOND>
7

> <PUBCHEM_CACTVS_SUBSKEYS>
AAADceB7oAAAAAAAAAAAAAAAAAAAAAAAAAA8eIEAAAAAAACx9AAAHgAQAAAADAjBngQ8wPPIEACoAzV3VACCgCA1EiAI2KE4dNgIYPLAlZGUIQhglgDIyYcYiICOAAAAAAACAAAAAAAAAAQAAAAAAAAAAA==

> <PUBCHEM_IUPAC_OPENEYE_NAME>
N-[4-[4-(3-quinolyl)piperazin-1-yl]butyl]benzamide

> <PUBCHEM_IUPAC_CAS_NAME>
N-[4-[4-(3-quinolinyl)-1-piperazinyl]butyl]benzamide

> <PUBCHEM_IUPAC_NAME_MARKUP>
<I>N</I>-[4-(4-quinolin-3-ylpiperazin-1-yl)butyl]benzamide

> <PUBCHEM_IUPAC_NAME>
N-[4-(4-quinolin-3-ylpiperazin-1-yl)butyl]benzamide

> <PUBCHEM_IUPAC_SYSTEMATIC_NAME>
N-[4-(4-quinolin-3-ylpiperazin-1-yl)butyl]benzamide

> <PUBCHEM_IUPAC_TRADITIONAL_NAME>
N-[4-[4-(3-quinolyl)piperazino]butyl]benzamide

> <PUBCHEM_IUPAC_INCHI>
InChI=1S/C24H28N4O/c29-24(20-8-2-1-3-9-20)25-12-6-7-13-27-14-16-28(17-15-27)22-18-21-10-4-5-11-23(21)26-19-22/h1-5,8-11,18-19H,6-7,12-17H2,(H,25,29)

> <PUBCHEM_IUPAC_INCHIKEY>
UIIXJYGCNLZGHI-UHFFFAOYSA-N

> <PUBCHEM_XLOGP3_AA>
3.8

> <PUBCHEM_EXACT_MASS>
388.22631153

> <PUBCHEM_MOLECULAR_FORMULA>
C24H28N4O

> <PUBCHEM_MOLECULAR_WEIGHT>
388.5

> <PUBCHEM_OPENEYE_CAN_SMILES>
C1CN(CCN1CCCCNC(=O)C2=CC=CC=C2)C3=CC4=CC=CC=C4N=C3

> <PUBCHEM_OPENEYE_ISO_SMILES>
C1CN(CCN1CCCCNC(=O)C2=CC=CC=C2)C3=CC4=CC=CC=C4N=C3

> <PUBCHEM_CACTVS_TPSA>
48.5

> <PUBCHEM_MONOISOTOPIC_WEIGHT>
388.22631153

> <PUBCHEM_TOTAL_CHARGE>
0

> <PUBCHEM_HEAVY_ATOM_COUNT>
29

> <PUBCHEM_ATOM_DEF_STEREO_COUNT>
0

> <PUBCHEM_ATOM_UDEF_STEREO_COUNT>
0

> <PUBCHEM_BOND_DEF_STEREO_COUNT>
0

> <PUBCHEM_BOND_UDEF_STEREO_COUNT>
0

> <PUBCHEM_ISOTOPIC_ATOM_COUNT>
0

> <PUBCHEM_COMPONENT_COUNT>
1

> <PUBCHEM_CACTVS_TAUTO_COUNT>
-1

> <PUBCHEM_COORDINATE_TYPE>
1
5
255

> <PUBCHEM_BONDANNOTATIONS>
12  15  8
12  16  8
15  17  8
17  18  8
17  19  8
18  20  8
19  22  8
20  23  8
22  23  8
24  25  8
24  26  8
25  27  8
26  28  8
27  29  8
28  29  8
5  16  8
5  18  8

$$$$
