15467371
  -OEChem-09292322222D

 43 45  0     0  0  0  0  0  0999 V2000
    2.8660   -6.1260    0.0000 Cl  0  0  0  0  0  0  0  0  0  0  0  0
    2.8660   -0.1260    0.0000 N   0  0  0  0  0  0  0  0  0  0  0  0
    2.8660   -2.1260    0.0000 N   0  0  0  0  0  0  0  0  0  0  0  0
    5.3147    1.7104    0.0000 N   0  0  0  0  0  0  0  0  0  0  0  0
    5.4472    6.1260    0.0000 N   0  0  0  0  0  0  0  0  0  0  0  0
    2.6446    4.0899    0.0000 N   0  0  0  0  0  0  0  0  0  0  0  0
    3.7320   -0.6260    0.0000 C   0  0  0  0  0  0  0  0  0  0  0  0
    2.0000   -0.6260    0.0000 C   0  0  0  0  0  0  0  0  0  0  0  0
    3.7320   -1.6260    0.0000 C   0  0  0  0  0  0  0  0  0  0  0  0
    2.0000   -1.6260    0.0000 C   0  0  0  0  0  0  0  0  0  0  0  0
    2.8660    0.8740    0.0000 C   0  0  0  0  0  0  0  0  0  0  0  0
    2.8660   -3.1260    0.0000 C   0  0  0  0  0  0  0  0  0  0  0  0
    3.7320    1.3740    0.0000 C   0  0  0  0  0  0  0  0  0  0  0  0
    3.8366    2.3685    0.0000 C   0  0  0  0  0  0  0  0  0  0  0  0
    4.6456    0.9672    0.0000 C   0  0  0  0  0  0  0  0  0  0  0  0
    2.0000   -3.6260    0.0000 C   0  0  0  0  0  0  0  0  0  0  0  0
    3.7320   -3.6260    0.0000 C   0  0  0  0  0  0  0  0  0  0  0  0
    4.8147    2.5764    0.0000 C   0  0  0  0  0  0  0  0  0  0  0  0
    2.0000   -4.6260    0.0000 C   0  0  0  0  0  0  0  0  0  0  0  0
    3.7320   -4.6260    0.0000 C   0  0  0  0  0  0  0  0  0  0  0  0
    2.8660   -5.1260    0.0000 C   0  0  0  0  0  0  0  0  0  0  0  0
    5.2215    3.4899    0.0000 C   0  0  0  0  0  0  0  0  0  0  0  0
    4.6337    4.2989    0.0000 C   0  0  0  0  0  0  0  0  0  0  0  0
    5.0404    5.2125    0.0000 C   0  0  0  0  0  0  0  0  0  0  0  0
    3.6392    4.1944    0.0000 C   0  0  0  0  0  0  0  0  0  0  0  0
    4.3426   -0.7337    0.0000 H   0  0  0  0  0  0  0  0  0  0  0  0
    3.9441   -0.0434    0.0000 H   0  0  0  0  0  0  0  0  0  0  0  0
    1.7880   -0.0434    0.0000 H   0  0  0  0  0  0  0  0  0  0  0  0
    1.3894   -0.7337    0.0000 H   0  0  0  0  0  0  0  0  0  0  0  0
    3.9441   -2.2086    0.0000 H   0  0  0  0  0  0  0  0  0  0  0  0
    4.3426   -1.5184    0.0000 H   0  0  0  0  0  0  0  0  0  0  0  0
    1.3894   -1.5184    0.0000 H   0  0  0  0  0  0  0  0  0  0  0  0
    1.7880   -2.2086    0.0000 H   0  0  0  0  0  0  0  0  0  0  0  0
    2.6540    1.4566    0.0000 H   0  0  0  0  0  0  0  0  0  0  0  0
    2.2554    0.7663    0.0000 H   0  0  0  0  0  0  0  0  0  0  0  0
    3.3758    2.7833    0.0000 H   0  0  0  0  0  0  0  0  0  0  0  0
    4.7745    0.3608    0.0000 H   0  0  0  0  0  0  0  0  0  0  0  0
    1.4631   -3.3160    0.0000 H   0  0  0  0  0  0  0  0  0  0  0  0
    4.2690   -3.3160    0.0000 H   0  0  0  0  0  0  0  0  0  0  0  0
    5.9313    1.6456    0.0000 H   0  0  0  0  0  0  0  0  0  0  0  0
    1.4631   -4.9360    0.0000 H   0  0  0  0  0  0  0  0  0  0  0  0
    4.2690   -4.9360    0.0000 H   0  0  0  0  0  0  0  0  0  0  0  0
    5.8381    3.5547    0.0000 H   0  0  0  0  0  0  0  0  0  0  0  0
  1 21  1  0  0  0  0
  2  7  1  0  0  0  0
  2  8  1  0  0  0  0
  2 11  1  0  0  0  0
  3  9  1  0  0  0  0
  3 10  1  0  0  0  0
  3 12  1  0  0  0  0
  4 15  1  0  0  0  0
  4 18  1  0  0  0  0
  4 40  1  0  0  0  0
  5 24  3  0  0  0  0
  6 25  3  0  0  0  0
  7  9  1  0  0  0  0
  7 26  1  0  0  0  0
  7 27  1  0  0  0  0
  8 10  1  0  0  0  0
  8 28  1  0  0  0  0
  8 29  1  0  0  0  0
  9 30  1  0  0  0  0
  9 31  1  0  0  0  0
 10 32  1  0  0  0  0
 10 33  1  0  0  0  0
 11 13  1  0  0  0  0
 11 34  1  0  0  0  0
 11 35  1  0  0  0  0
 12 16  2  0  0  0  0
 12 17  1  0  0  0  0
 13 14  1  0  0  0  0
 13 15  2  0  0  0  0
 14 18  2  0  0  0  0
 14 36  1  0  0  0  0
 15 37  1  0  0  0  0
 16 19  1  0  0  0  0
 16 38  1  0  0  0  0
 17 20  2  0  0  0  0
 17 39  1  0  0  0  0
 18 22  1  0  0  0  0
 19 21  2  0  0  0  0
 19 41  1  0  0  0  0
 20 21  1  0  0  0  0
 20 42  1  0  0  0  0
 22 23  2  0  0  0  0
 22 43  1  0  0  0  0
 23 24  1  0  0  0  0
 23 25  1  0  0  0  0
M  END
> <PUBCHEM_COMPOUND_CID>
15467371

> <PUBCHEM_COMPOUND_CANONICALIZED>
1

> <PUBCHEM_CACTVS_COMPLEXITY>
551

> <PUBCHEM_CACTVS_HBOND_ACCEPTOR>
4

> <PUBCHEM_CACTVS_HBOND_DONOR>
1

> <PUBCHEM_CACTVS_ROTATABLE_BOND>
4

> <PUBCHEM_CACTVS_SUBSKEYS>
AAADceB7gAAEAAAAAAAAAAAAAAAAAWAAAAA8QAAAAAAAAAABwAAAHAIQAAAADArBHiQ8wJPJkACwBzRnRACigCAxByAI2aA4ZpgI4OLB05GUIAhgkADIyAcQAAAMAABAAAAAAAAAAIAAAAAAAAAAAAAAAA==

> <PUBCHEM_IUPAC_OPENEYE_NAME>
2-[[4-[[4-(4-chlorophenyl)piperazin-1-yl]methyl]-1H-pyrrol-2-yl]methylene]propanedinitrile

> <PUBCHEM_IUPAC_CAS_NAME>
2-[[4-[[4-(4-chlorophenyl)-1-piperazinyl]methyl]-1H-pyrrol-2-yl]methylidene]propanedinitrile

> <PUBCHEM_IUPAC_NAME_MARKUP>
2-[[4-[[4-(4-chlorophenyl)piperazin-1-yl]methyl]-1<I>H</I>-pyrrol-2-yl]methylidene]propanedinitrile

> <PUBCHEM_IUPAC_NAME>
2-[[4-[[4-(4-chlorophenyl)piperazin-1-yl]methyl]-1H-pyrrol-2-yl]methylidene]propanedinitrile

> <PUBCHEM_IUPAC_SYSTEMATIC_NAME>
2-[[4-[[4-(4-chlorophenyl)piperazin-1-yl]methyl]-1H-pyrrol-2-yl]methylidene]propanedinitrile

> <PUBCHEM_IUPAC_TRADITIONAL_NAME>
2-[[4-[[4-(4-chlorophenyl)piperazino]methyl]-1H-pyrrol-2-yl]methylene]malononitrile

> <PUBCHEM_IUPAC_INCHI>
InChI=1S/C19H18ClN5/c20-17-1-3-19(4-2-17)25-7-5-24(6-8-25)14-16-10-18(23-13-16)9-15(11-21)12-22/h1-4,9-10,13,23H,5-8,14H2

> <PUBCHEM_IUPAC_INCHIKEY>
LGXAESURRIWEJV-UHFFFAOYSA-N

> <PUBCHEM_XLOGP3_AA>
2.9

> <PUBCHEM_EXACT_MASS>
351.1250733

> <PUBCHEM_MOLECULAR_FORMULA>
C19H18ClN5

> <PUBCHEM_MOLECULAR_WEIGHT>
351.8

> <PUBCHEM_OPENEYE_CAN_SMILES>
C1CN(CCN1CC2=CNC(=C2)C=C(C#N)C#N)C3=CC=C(C=C3)Cl

> <PUBCHEM_OPENEYE_ISO_SMILES>
C1CN(CCN1CC2=CNC(=C2)C=C(C#N)C#N)C3=CC=C(C=C3)Cl

> <PUBCHEM_CACTVS_TPSA>
69.8

> <PUBCHEM_MONOISOTOPIC_WEIGHT>
351.1250733

> <PUBCHEM_TOTAL_CHARGE>
0

> <PUBCHEM_HEAVY_ATOM_COUNT>
25

> <PUBCHEM_ATOM_DEF_STEREO_COUNT>
0

> <PUBCHEM_ATOM_UDEF_STEREO_COUNT>
0

> <PUBCHEM_BOND_DEF_STEREO_COUNT>
0

> <PUBCHEM_BOND_UDEF_STEREO_COUNT>
0

> <PUBCHEM_ISOTOPIC_ATOM_COUNT>
0

> <PUBCHEM_COMPONENT_COUNT>
1

> <PUBCHEM_CACTVS_TAUTO_COUNT>
-1

> <PUBCHEM_COORDINATE_TYPE>
1
5
255

> <PUBCHEM_BONDANNOTATIONS>
12  16  8
12  17  8
13  14  8
13  15  8
14  18  8
16  19  8
17  20  8
19  21  8
20  21  8
4  15  8
4  18  8

$$$$
