24900942
  -OEChem-09292322042D

 66 69  0     1  0  0  0  0  0999 V2000
   11.6065   -4.5403    0.0000 S   0  0  0  0  0  0  0  0  0  0  0  0
   10.6603   -2.8450    0.0000 O   0  0  0  0  0  0  0  0  0  0  0  0
    9.7942   -7.3450    0.0000 O   0  0  0  0  0  0  0  0  0  0  0  0
   13.1901   -5.3450    0.0000 O   0  0  0  0  0  0  0  0  0  0  0  0
    2.8660    5.6550    0.0000 O   0  0  0  0  0  0  0  0  0  0  0  0
    8.9282   -1.8450    0.0000 N   0  0  0  0  0  0  0  0  0  0  0  0
    5.4641    4.1550    0.0000 N   0  0  0  0  0  0  0  0  0  0  0  0
   11.6065   -6.1497    0.0000 N   0  0  0  0  0  0  0  0  0  0  0  0
    9.7942   -3.3450    0.0000 C   0  0  1  0  0  0  0  0  0  0  0  0
    8.9282   -2.8450    0.0000 C   0  0  0  0  0  0  0  0  0  0  0  0
    8.0622   -1.3450    0.0000 C   0  0  0  0  0  0  0  0  0  0  0  0
    8.0622   -0.3450    0.0000 C   0  0  0  0  0  0  0  0  0  0  0  0
    9.7942   -4.3450    0.0000 C   0  0  0  0  0  0  0  0  0  0  0  0
    7.1962    0.1550    0.0000 C   0  0  0  0  0  0  0  0  0  0  0  0
   10.6603   -4.8450    0.0000 C   0  0  0  0  0  0  0  0  0  0  0  0
    6.3301    1.6550    0.0000 C   0  0  0  0  0  0  0  0  0  0  0  0
    6.3301    2.6550    0.0000 C   0  0  0  0  0  0  0  0  0  0  0  0
    7.1962    1.1550    0.0000 C   0  0  0  0  0  0  0  0  0  0  0  0
    5.4641    3.1550    0.0000 C   0  0  0  0  0  0  0  0  0  0  0  0
   10.6603   -5.8450    0.0000 C   0  0  0  0  0  0  0  0  0  0  0  0
    8.9282   -4.8450    0.0000 C   0  0  0  0  0  0  0  0  0  0  0  0
    6.3301   -0.3450    0.0000 C   0  0  0  0  0  0  0  0  0  0  0  0
    5.4641    1.1550    0.0000 C   0  0  0  0  0  0  0  0  0  0  0  0
    9.7942   -6.3450    0.0000 C   0  0  0  0  0  0  0  0  0  0  0  0
    8.9282   -5.8450    0.0000 C   0  0  0  0  0  0  0  0  0  0  0  0
    5.4641    0.1550    0.0000 C   0  0  0  0  0  0  0  0  0  0  0  0
    4.5981    4.6550    0.0000 C   0  0  0  0  0  0  0  0  0  0  0  0
   12.1901   -5.3450    0.0000 C   0  0  0  0  0  0  0  0  0  0  0  0
    4.5981    5.6550    0.0000 C   0  0  0  0  0  0  0  0  0  0  0  0
    3.7320    6.1550    0.0000 C   0  0  0  0  0  0  0  0  0  0  0  0
    5.4641    6.1550    0.0000 C   0  0  0  0  0  0  0  0  0  0  0  0
    3.7320    7.1550    0.0000 C   0  0  0  0  0  0  0  0  0  0  0  0
    5.4641    7.1550    0.0000 C   0  0  0  0  0  0  0  0  0  0  0  0
    4.5981    7.6550    0.0000 C   0  0  0  0  0  0  0  0  0  0  0  0
    2.0000    6.1550    0.0000 C   0  0  0  0  0  0  0  0  0  0  0  0
    9.7942   -2.7250    0.0000 H   0  0  0  0  0  0  0  0  0  0  0  0
    8.3176   -2.7373    0.0000 H   0  0  0  0  0  0  0  0  0  0  0  0
    8.7162   -3.4276    0.0000 H   0  0  0  0  0  0  0  0  0  0  0  0
    7.4516   -1.2373    0.0000 H   0  0  0  0  0  0  0  0  0  0  0  0
    7.8501   -1.9276    0.0000 H   0  0  0  0  0  0  0  0  0  0  0  0
    8.6728   -0.4527    0.0000 H   0  0  0  0  0  0  0  0  0  0  0  0
    8.2742    0.2376    0.0000 H   0  0  0  0  0  0  0  0  0  0  0  0
    9.4651   -1.5350    0.0000 H   0  0  0  0  0  0  0  0  0  0  0  0
    6.9407    2.5473    0.0000 H   0  0  0  0  0  0  0  0  0  0  0  0
    6.5422    3.2376    0.0000 H   0  0  0  0  0  0  0  0  0  0  0  0
    7.7331    1.4650    0.0000 H   0  0  0  0  0  0  0  0  0  0  0  0
    4.8535    3.2627    0.0000 H   0  0  0  0  0  0  0  0  0  0  0  0
    5.2520    2.5724    0.0000 H   0  0  0  0  0  0  0  0  0  0  0  0
    8.3913   -4.5350    0.0000 H   0  0  0  0  0  0  0  0  0  0  0  0
    6.3301   -0.9650    0.0000 H   0  0  0  0  0  0  0  0  0  0  0  0
    4.9272    1.4650    0.0000 H   0  0  0  0  0  0  0  0  0  0  0  0
    8.3913   -6.1550    0.0000 H   0  0  0  0  0  0  0  0  0  0  0  0
    6.0010    4.4650    0.0000 H   0  0  0  0  0  0  0  0  0  0  0  0
    4.9272   -0.1550    0.0000 H   0  0  0  0  0  0  0  0  0  0  0  0
    3.9875    4.7627    0.0000 H   0  0  0  0  0  0  0  0  0  0  0  0
    4.3860    4.0724    0.0000 H   0  0  0  0  0  0  0  0  0  0  0  0
   11.7991   -6.7391    0.0000 H   0  0  0  0  0  0  0  0  0  0  0  0
   10.6603   -2.2250    0.0000 H   0  0  0  0  0  0  0  0  0  0  0  0
    6.0010    5.8450    0.0000 H   0  0  0  0  0  0  0  0  0  0  0  0
    9.2573   -7.6550    0.0000 H   0  0  0  0  0  0  0  0  0  0  0  0
    3.1951    7.4650    0.0000 H   0  0  0  0  0  0  0  0  0  0  0  0
    6.0010    7.4650    0.0000 H   0  0  0  0  0  0  0  0  0  0  0  0
    4.5981    8.2750    0.0000 H   0  0  0  0  0  0  0  0  0  0  0  0
    2.3100    6.6919    0.0000 H   0  0  0  0  0  0  0  0  0  0  0  0
    1.4631    6.4650    0.0000 H   0  0  0  0  0  0  0  0  0  0  0  0
    1.6900    5.6181    0.0000 H   0  0  0  0  0  0  0  0  0  0  0  0
  1 15  1  0  0  0  0
  1 28  1  0  0  0  0
  9  2  1  6  0  0  0
  2 58  1  0  0  0  0
  3 24  1  0  0  0  0
  3 60  1  0  0  0  0
  4 28  2  0  0  0  0
  5 30  1  0  0  0  0
  5 35  1  0  0  0  0
  6 10  1  0  0  0  0
  6 11  1  0  0  0  0
  6 43  1  0  0  0  0
  7 19  1  0  0  0  0
  7 27  1  0  0  0  0
  7 53  1  0  0  0  0
  8 20  1  0  0  0  0
  8 28  1  0  0  0  0
  8 57  1  0  0  0  0
  9 10  1  0  0  0  0
  9 13  1  0  0  0  0
  9 36  1  0  0  0  0
 10 37  1  0  0  0  0
 10 38  1  0  0  0  0
 11 12  1  0  0  0  0
 11 39  1  0  0  0  0
 11 40  1  0  0  0  0
 12 14  1  0  0  0  0
 12 41  1  0  0  0  0
 12 42  1  0  0  0  0
 13 15  2  0  0  0  0
 13 21  1  0  0  0  0
 14 18  1  0  0  0  0
 14 22  2  0  0  0  0
 15 20  1  0  0  0  0
 16 17  1  0  0  0  0
 16 18  2  0  0  0  0
 16 23  1  0  0  0  0
 17 19  1  0  0  0  0
 17 44  1  0  0  0  0
 17 45  1  0  0  0  0
 18 46  1  0  0  0  0
 19 47  1  0  0  0  0
 19 48  1  0  0  0  0
 20 24  2  0  0  0  0
 21 25  2  0  0  0  0
 21 49  1  0  0  0  0
 22 26  1  0  0  0  0
 22 50  1  0  0  0  0
 23 26  2  0  0  0  0
 23 51  1  0  0  0  0
 24 25  1  0  0  0  0
 25 52  1  0  0  0  0
 26 54  1  0  0  0  0
 27 29  1  0  0  0  0
 27 55  1  0  0  0  0
 27 56  1  0  0  0  0
 29 30  1  0  0  0  0
 29 31  2  0  0  0  0
 30 32  2  0  0  0  0
 31 33  1  0  0  0  0
 31 59  1  0  0  0  0
 32 34  1  0  0  0  0
 32 61  1  0  0  0  0
 33 34  2  0  0  0  0
 33 62  1  0  0  0  0
 34 63  1  0  0  0  0
 35 64  1  0  0  0  0
 35 65  1  0  0  0  0
 35 66  1  0  0  0  0
M  END
> <PUBCHEM_COMPOUND_CID>
24900942

> <PUBCHEM_COMPOUND_CANONICALIZED>
1

> <PUBCHEM_CACTVS_COMPLEXITY>
656

> <PUBCHEM_CACTVS_HBOND_ACCEPTOR>
7

> <PUBCHEM_CACTVS_HBOND_DONOR>
5

> <PUBCHEM_CACTVS_ROTATABLE_BOND>
12

> <PUBCHEM_CACTVS_SUBSKEYS>
AAADceB7OABAAAAAAAAAAAAAAAAAAWAAAAAwYMAAAAAAAFgBUAAAHgQQCAAADBzh2AYyx4LABgiIAiRCUACCCABhKBAIiJQPTIgONiL2sZuEcChm1BHY+Aew4OQOIAACRAAMEQBAAASIABgiAAAAAAAAAA==

> <PUBCHEM_IUPAC_OPENEYE_NAME>
4-hydroxy-7-[(1R)-1-hydroxy-2-[2-[3-[2-[(2-methoxyphenyl)methylamino]ethyl]phenyl]ethylamino]ethyl]-3H-1,3-benzothiazol-2-one

> <PUBCHEM_IUPAC_CAS_NAME>
4-hydroxy-7-[(1R)-1-hydroxy-2-[2-[3-[2-[(2-methoxyphenyl)methylamino]ethyl]phenyl]ethylamino]ethyl]-3H-1,3-benzothiazol-2-one

> <PUBCHEM_IUPAC_NAME_MARKUP>
4-hydroxy-7-[(1<I>R</I>)-1-hydroxy-2-[2-[3-[2-[(2-methoxyphenyl)methylamino]ethyl]phenyl]ethylamino]ethyl]-3<I>H</I>-1,3-benzothiazol-2-one

> <PUBCHEM_IUPAC_NAME>
4-hydroxy-7-[(1R)-1-hydroxy-2-[2-[3-[2-[(2-methoxyphenyl)methylamino]ethyl]phenyl]ethylamino]ethyl]-3H-1,3-benzothiazol-2-one

> <PUBCHEM_IUPAC_SYSTEMATIC_NAME>
7-[(1R)-2-[2-[3-[2-[(2-methoxyphenyl)methylamino]ethyl]phenyl]ethylamino]-1-oxidanyl-ethyl]-4-oxidanyl-3H-1,3-benzothiazol-2-one

> <PUBCHEM_IUPAC_TRADITIONAL_NAME>
4-hydroxy-7-[(1R)-1-hydroxy-2-[2-[3-[2-(o-anisylamino)ethyl]phenyl]ethylamino]ethyl]-3H-1,3-benzothiazol-2-one

> <PUBCHEM_IUPAC_INCHI>
InChI=1S/C27H31N3O4S/c1-34-24-8-3-2-7-20(24)16-28-13-11-18-5-4-6-19(15-18)12-14-29-17-23(32)21-9-10-22(31)25-26(21)35-27(33)30-25/h2-10,15,23,28-29,31-32H,11-14,16-17H2,1H3,(H,30,33)/t23-/m0/s1

> <PUBCHEM_IUPAC_INCHIKEY>
PLQWTOQXQJAHBY-QHCPKHFHSA-N

> <PUBCHEM_XLOGP3_AA>
3.3

> <PUBCHEM_EXACT_MASS>
493.20352765

> <PUBCHEM_MOLECULAR_FORMULA>
C27H31N3O4S

> <PUBCHEM_MOLECULAR_WEIGHT>
493.6

> <PUBCHEM_OPENEYE_CAN_SMILES>
COC1=CC=CC=C1CNCCC2=CC(=CC=C2)CCNCC(C3=C4C(=C(C=C3)O)NC(=O)S4)O

> <PUBCHEM_OPENEYE_ISO_SMILES>
COC1=CC=CC=C1CNCCC2=CC(=CC=C2)CCNC[C@@H](C3=C4C(=C(C=C3)O)NC(=O)S4)O

> <PUBCHEM_CACTVS_TPSA>
128

> <PUBCHEM_MONOISOTOPIC_WEIGHT>
493.20352765

> <PUBCHEM_TOTAL_CHARGE>
0

> <PUBCHEM_HEAVY_ATOM_COUNT>
35

> <PUBCHEM_ATOM_DEF_STEREO_COUNT>
1

> <PUBCHEM_ATOM_UDEF_STEREO_COUNT>
0

> <PUBCHEM_BOND_DEF_STEREO_COUNT>
0

> <PUBCHEM_BOND_UDEF_STEREO_COUNT>
0

> <PUBCHEM_ISOTOPIC_ATOM_COUNT>
0

> <PUBCHEM_COMPONENT_COUNT>
1

> <PUBCHEM_CACTVS_TAUTO_COUNT>
-1

> <PUBCHEM_COORDINATE_TYPE>
1
5
255

> <PUBCHEM_BONDANNOTATIONS>
1  15  8
1  28  8
13  15  8
13  21  8
14  18  8
14  22  8
15  20  8
16  18  8
16  23  8
9  2  6
20  24  8
21  25  8
22  26  8
23  26  8
24  25  8
29  30  8
29  31  8
30  32  8
31  33  8
32  34  8
33  34  8
8  20  8
8  28  8

$$$$
