122183765
  -OEChem-09292322002D

 61 64  0     0  0  0  0  0  0999 V2000
   16.7904    0.5173    0.0000 Cl  0  0  0  0  0  0  0  0  0  0  0  0
   15.0583   -0.4827    0.0000 O   0  0  0  0  0  0  0  0  0  0  0  0
    6.3981    0.5173    0.0000 O   0  0  0  0  0  0  0  0  0  0  0  0
   11.5942   -0.4827    0.0000 N   0  0  0  0  0  0  0  0  0  0  0  0
   13.3263    0.5173    0.0000 N   0  0  0  0  0  0  0  0  0  0  0  0
    7.2641   -0.9827    0.0000 N   0  0  0  0  0  0  0  0  0  0  0  0
    4.6660   -2.4827    0.0000 N   0  0  0  0  0  0  0  0  0  0  0  0
   11.5942    0.5173    0.0000 C   0  0  0  0  0  0  0  0  0  0  0  0
   12.4603   -0.9827    0.0000 C   0  0  0  0  0  0  0  0  0  0  0  0
   12.4603    1.0173    0.0000 C   0  0  0  0  0  0  0  0  0  0  0  0
   13.3263   -0.4827    0.0000 C   0  0  0  0  0  0  0  0  0  0  0  0
   10.7282   -0.9827    0.0000 C   0  0  0  0  0  0  0  0  0  0  0  0
    9.8622   -0.4827    0.0000 C   0  0  0  0  0  0  0  0  0  0  0  0
   14.1923    1.0173    0.0000 C   0  0  0  0  0  0  0  0  0  0  0  0
    8.9962   -0.9827    0.0000 C   0  0  0  0  0  0  0  0  0  0  0  0
    8.1301   -0.4827    0.0000 C   0  0  0  0  0  0  0  0  0  0  0  0
   15.0583    0.5173    0.0000 C   0  0  0  0  0  0  0  0  0  0  0  0
   14.1923    2.0173    0.0000 C   0  0  0  0  0  0  0  0  0  0  0  0
   15.9244    1.0173    0.0000 C   0  0  0  0  0  0  0  0  0  0  0  0
   15.0583    2.5173    0.0000 C   0  0  0  0  0  0  0  0  0  0  0  0
   15.9244    2.0173    0.0000 C   0  0  0  0  0  0  0  0  0  0  0  0
    6.3981   -0.4827    0.0000 C   0  0  0  0  0  0  0  0  0  0  0  0
    5.5321   -0.9827    0.0000 C   0  0  0  0  0  0  0  0  0  0  0  0
   15.9244   -0.9827    0.0000 C   0  0  0  0  0  0  0  0  0  0  0  0
    4.6660   -0.4827    0.0000 C   0  0  0  0  0  0  0  0  0  0  0  0
    3.8000   -0.9827    0.0000 C   0  0  0  0  0  0  0  0  0  0  0  0
    5.5321   -1.9827    0.0000 C   0  0  0  0  0  0  0  0  0  0  0  0
    3.8000   -1.9827    0.0000 C   0  0  0  0  0  0  0  0  0  0  0  0
    2.9061   -0.4480    0.0000 C   0  0  0  0  0  0  0  0  0  0  0  0
    2.9061   -2.5173    0.0000 C   0  0  0  0  0  0  0  0  0  0  0  0
    2.0000   -0.9619    0.0000 C   0  0  0  0  0  0  0  0  0  0  0  0
    2.0000   -2.0035    0.0000 C   0  0  0  0  0  0  0  0  0  0  0  0
   11.3822    1.0999    0.0000 H   0  0  0  0  0  0  0  0  0  0  0  0
   10.9837    0.4097    0.0000 H   0  0  0  0  0  0  0  0  0  0  0  0
   12.0617   -1.4576    0.0000 H   0  0  0  0  0  0  0  0  0  0  0  0
   12.8588   -1.4576    0.0000 H   0  0  0  0  0  0  0  0  0  0  0  0
   12.8588    1.4923    0.0000 H   0  0  0  0  0  0  0  0  0  0  0  0
   12.0617    1.4923    0.0000 H   0  0  0  0  0  0  0  0  0  0  0  0
   13.5383   -1.0653    0.0000 H   0  0  0  0  0  0  0  0  0  0  0  0
   13.9369   -0.3750    0.0000 H   0  0  0  0  0  0  0  0  0  0  0  0
   10.3297   -1.4576    0.0000 H   0  0  0  0  0  0  0  0  0  0  0  0
   11.1267   -1.4576    0.0000 H   0  0  0  0  0  0  0  0  0  0  0  0
   10.2607   -0.0077    0.0000 H   0  0  0  0  0  0  0  0  0  0  0  0
    9.4637   -0.0077    0.0000 H   0  0  0  0  0  0  0  0  0  0  0  0
    8.5976   -1.4576    0.0000 H   0  0  0  0  0  0  0  0  0  0  0  0
    9.3947   -1.4576    0.0000 H   0  0  0  0  0  0  0  0  0  0  0  0
    8.5287   -0.0077    0.0000 H   0  0  0  0  0  0  0  0  0  0  0  0
    7.7316   -0.0077    0.0000 H   0  0  0  0  0  0  0  0  0  0  0  0
   13.6554    2.3273    0.0000 H   0  0  0  0  0  0  0  0  0  0  0  0
    7.2641   -1.6027    0.0000 H   0  0  0  0  0  0  0  0  0  0  0  0
   15.0583    3.1373    0.0000 H   0  0  0  0  0  0  0  0  0  0  0  0
   16.4613    2.3273    0.0000 H   0  0  0  0  0  0  0  0  0  0  0  0
   15.6144   -1.5196    0.0000 H   0  0  0  0  0  0  0  0  0  0  0  0
   16.4613   -1.2927    0.0000 H   0  0  0  0  0  0  0  0  0  0  0  0
   16.2344   -0.4457    0.0000 H   0  0  0  0  0  0  0  0  0  0  0  0
    4.6660    0.1373    0.0000 H   0  0  0  0  0  0  0  0  0  0  0  0
    6.0690   -2.2927    0.0000 H   0  0  0  0  0  0  0  0  0  0  0  0
    2.9132    0.1720    0.0000 H   0  0  0  0  0  0  0  0  0  0  0  0
    2.9132   -3.1373    0.0000 H   0  0  0  0  0  0  0  0  0  0  0  0
    1.4643   -0.6498    0.0000 H   0  0  0  0  0  0  0  0  0  0  0  0
    1.4643   -2.3156    0.0000 H   0  0  0  0  0  0  0  0  0  0  0  0
  1 19  1  0  0  0  0
  2 17  1  0  0  0  0
  2 24  1  0  0  0  0
  3 22  2  0  0  0  0
  4  8  1  0  0  0  0
  4  9  1  0  0  0  0
  4 12  1  0  0  0  0
  5 10  1  0  0  0  0
  5 11  1  0  0  0  0
  5 14  1  0  0  0  0
  6 16  1  0  0  0  0
  6 22  1  0  0  0  0
  6 50  1  0  0  0  0
  7 27  2  0  0  0  0
  7 28  1  0  0  0  0
  8 10  1  0  0  0  0
  8 33  1  0  0  0  0
  8 34  1  0  0  0  0
  9 11  1  0  0  0  0
  9 35  1  0  0  0  0
  9 36  1  0  0  0  0
 10 37  1  0  0  0  0
 10 38  1  0  0  0  0
 11 39  1  0  0  0  0
 11 40  1  0  0  0  0
 12 13  1  0  0  0  0
 12 41  1  0  0  0  0
 12 42  1  0  0  0  0
 13 15  1  0  0  0  0
 13 43  1  0  0  0  0
 13 44  1  0  0  0  0
 14 17  2  0  0  0  0
 14 18  1  0  0  0  0
 15 16  1  0  0  0  0
 15 45  1  0  0  0  0
 15 46  1  0  0  0  0
 16 47  1  0  0  0  0
 16 48  1  0  0  0  0
 17 19  1  0  0  0  0
 18 20  2  0  0  0  0
 18 49  1  0  0  0  0
 19 21  2  0  0  0  0
 20 21  1  0  0  0  0
 20 51  1  0  0  0  0
 21 52  1  0  0  0  0
 22 23  1  0  0  0  0
 23 25  2  0  0  0  0
 23 27  1  0  0  0  0
 24 53  1  0  0  0  0
 24 54  1  0  0  0  0
 24 55  1  0  0  0  0
 25 26  1  0  0  0  0
 25 56  1  0  0  0  0
 26 28  1  0  0  0  0
 26 29  2  0  0  0  0
 27 57  1  0  0  0  0
 28 30  2  0  0  0  0
 29 31  1  0  0  0  0
 29 58  1  0  0  0  0
 30 32  1  0  0  0  0
 30 59  1  0  0  0  0
 31 32  2  0  0  0  0
 31 60  1  0  0  0  0
 32 61  1  0  0  0  0
M  END
> <PUBCHEM_COMPOUND_CID>
122183765

> <PUBCHEM_COMPOUND_CANONICALIZED>
1

> <PUBCHEM_CACTVS_COMPLEXITY>
586

> <PUBCHEM_CACTVS_HBOND_ACCEPTOR>
5

> <PUBCHEM_CACTVS_HBOND_DONOR>
1

> <PUBCHEM_CACTVS_ROTATABLE_BOND>
8

> <PUBCHEM_CACTVS_SUBSKEYS>
AAADceB7sAAEAAAAAAAAAAAAAAAAAAAAAAA8eIEAAAAAAACx9AAAHgIQAAAADA7BniY+xvPIFACoAzV3VACCiCA1J2AI2KE9b9gOZvvF95uVMahk1hHY6ceYycCeAAAAAAICGAAAAAAABAQwAAAAAAAAAA==

> <PUBCHEM_IUPAC_OPENEYE_NAME>
N-[4-[4-(3-chloro-2-methoxy-phenyl)piperazin-1-yl]butyl]quinoline-3-carboxamide

> <PUBCHEM_IUPAC_CAS_NAME>
N-[4-[4-(3-chloro-2-methoxyphenyl)-1-piperazinyl]butyl]-3-quinolinecarboxamide

> <PUBCHEM_IUPAC_NAME_MARKUP>
<I>N</I>-[4-[4-(3-chloro-2-methoxyphenyl)piperazin-1-yl]butyl]quinoline-3-carboxamide

> <PUBCHEM_IUPAC_NAME>
N-[4-[4-(3-chloro-2-methoxyphenyl)piperazin-1-yl]butyl]quinoline-3-carboxamide

> <PUBCHEM_IUPAC_SYSTEMATIC_NAME>
N-[4-[4-(3-chloranyl-2-methoxy-phenyl)piperazin-1-yl]butyl]quinoline-3-carboxamide

> <PUBCHEM_IUPAC_TRADITIONAL_NAME>
N-[4-[4-(3-chloro-2-methoxy-phenyl)piperazino]butyl]quinoline-3-carboxamide

> <PUBCHEM_IUPAC_INCHI>
InChI=1S/C25H29ClN4O2/c1-32-24-21(26)8-6-10-23(24)30-15-13-29(14-16-30)12-5-4-11-27-25(31)20-17-19-7-2-3-9-22(19)28-18-20/h2-3,6-10,17-18H,4-5,11-16H2,1H3,(H,27,31)

> <PUBCHEM_IUPAC_INCHIKEY>
AENWLGXTORARIE-UHFFFAOYSA-N

> <PUBCHEM_XLOGP3_AA>
4.4

> <PUBCHEM_EXACT_MASS>
452.1979039

> <PUBCHEM_MOLECULAR_FORMULA>
C25H29ClN4O2

> <PUBCHEM_MOLECULAR_WEIGHT>
453.0

> <PUBCHEM_OPENEYE_CAN_SMILES>
COC1=C(C=CC=C1Cl)N2CCN(CC2)CCCCNC(=O)C3=CC4=CC=CC=C4N=C3

> <PUBCHEM_OPENEYE_ISO_SMILES>
COC1=C(C=CC=C1Cl)N2CCN(CC2)CCCCNC(=O)C3=CC4=CC=CC=C4N=C3

> <PUBCHEM_CACTVS_TPSA>
57.7

> <PUBCHEM_MONOISOTOPIC_WEIGHT>
452.1979039

> <PUBCHEM_TOTAL_CHARGE>
0

> <PUBCHEM_HEAVY_ATOM_COUNT>
32

> <PUBCHEM_ATOM_DEF_STEREO_COUNT>
0

> <PUBCHEM_ATOM_UDEF_STEREO_COUNT>
0

> <PUBCHEM_BOND_DEF_STEREO_COUNT>
0

> <PUBCHEM_BOND_UDEF_STEREO_COUNT>
0

> <PUBCHEM_ISOTOPIC_ATOM_COUNT>
0

> <PUBCHEM_COMPONENT_COUNT>
1

> <PUBCHEM_CACTVS_TAUTO_COUNT>
-1

> <PUBCHEM_COORDINATE_TYPE>
1
5
255

> <PUBCHEM_BONDANNOTATIONS>
14  17  8
14  18  8
17  19  8
18  20  8
19  21  8
20  21  8
23  25  8
23  27  8
25  26  8
26  28  8
26  29  8
28  30  8
29  31  8
30  32  8
31  32  8
7  27  8
7  28  8

$$$$
