132256724
  -OEChem-09292322452D

 56 59  0     0  0  0  0  0  0999 V2000
    4.0000   -4.9994    0.0000 Cl  0  0  0  0  0  0  0  0  0  0  0  0
    7.8660   -2.0353    0.0000 F   0  0  0  0  0  0  0  0  0  0  0  0
    2.0000   -4.9994    0.0000 F   0  0  0  0  0  0  0  0  0  0  0  0
    3.5000   -0.6693    0.0000 O   0  0  0  0  0  0  0  0  0  0  0  0
    9.5981    1.9647    0.0000 O   0  0  0  0  0  0  0  0  0  0  0  0
    5.0000   -1.5353    0.0000 N   0  0  0  0  0  0  0  0  0  0  0  0
    7.8660   -0.0353    0.0000 N   0  0  0  0  0  0  0  0  0  0  0  0
   11.3580    2.9301    0.0000 N   0  0  0  0  0  0  0  0  0  0  0  0
    7.0000   -1.5353    0.0000 C   0  0  0  0  0  0  0  0  0  0  0  0
    6.5000   -0.6693    0.0000 C   0  0  0  0  0  0  0  0  0  0  0  0
    6.5000   -2.4013    0.0000 C   0  0  0  0  0  0  0  0  0  0  0  0
    5.5000   -0.6693    0.0000 C   0  0  0  0  0  0  0  0  0  0  0  0
    5.5000   -2.4013    0.0000 C   0  0  0  0  0  0  0  0  0  0  0  0
    7.8660   -1.0353    0.0000 C   0  0  0  0  0  0  0  0  0  0  0  0
    4.0000   -1.5353    0.0000 C   0  0  0  0  0  0  0  0  0  0  0  0
    8.7320    0.4647    0.0000 C   0  0  0  0  0  0  0  0  0  0  0  0
    3.5000   -2.4013    0.0000 C   0  0  0  0  0  0  0  0  0  0  0  0
    8.7320    1.4647    0.0000 C   0  0  0  0  0  0  0  0  0  0  0  0
    4.0000   -3.2673    0.0000 C   0  0  0  0  0  0  0  0  0  0  0  0
    2.5000   -2.4013    0.0000 C   0  0  0  0  0  0  0  0  0  0  0  0
    3.5000   -4.1334    0.0000 C   0  0  0  0  0  0  0  0  0  0  0  0
    2.0000   -3.2673    0.0000 C   0  0  0  0  0  0  0  0  0  0  0  0
    9.5981    2.9647    0.0000 C   0  0  0  0  0  0  0  0  0  0  0  0
    2.5000   -4.1334    0.0000 C   0  0  0  0  0  0  0  0  0  0  0  0
   10.4641    3.4647    0.0000 C   0  0  0  0  0  0  0  0  0  0  0  0
    8.7320    3.4647    0.0000 C   0  0  0  0  0  0  0  0  0  0  0  0
   10.4641    4.4647    0.0000 C   0  0  0  0  0  0  0  0  0  0  0  0
    8.7320    4.4647    0.0000 C   0  0  0  0  0  0  0  0  0  0  0  0
    9.5981    4.9647    0.0000 C   0  0  0  0  0  0  0  0  0  0  0  0
   11.3580    4.9994    0.0000 C   0  0  0  0  0  0  0  0  0  0  0  0
   12.2641    4.4855    0.0000 C   0  0  0  0  0  0  0  0  0  0  0  0
   12.2641    3.4439    0.0000 C   0  0  0  0  0  0  0  0  0  0  0  0
    7.0826   -0.4572    0.0000 H   0  0  0  0  0  0  0  0  0  0  0  0
    6.3923   -0.0587    0.0000 H   0  0  0  0  0  0  0  0  0  0  0  0
    6.3923   -3.0119    0.0000 H   0  0  0  0  0  0  0  0  0  0  0  0
    7.0826   -2.6134    0.0000 H   0  0  0  0  0  0  0  0  0  0  0  0
    5.6077   -0.0587    0.0000 H   0  0  0  0  0  0  0  0  0  0  0  0
    4.9174   -0.4572    0.0000 H   0  0  0  0  0  0  0  0  0  0  0  0
    4.9174   -2.6134    0.0000 H   0  0  0  0  0  0  0  0  0  0  0  0
    5.6077   -3.0119    0.0000 H   0  0  0  0  0  0  0  0  0  0  0  0
    8.0781   -1.6179    0.0000 H   0  0  0  0  0  0  0  0  0  0  0  0
    8.4766   -0.9276    0.0000 H   0  0  0  0  0  0  0  0  0  0  0  0
    7.3291    0.2747    0.0000 H   0  0  0  0  0  0  0  0  0  0  0  0
    8.9441   -0.1179    0.0000 H   0  0  0  0  0  0  0  0  0  0  0  0
    9.3426    0.5724    0.0000 H   0  0  0  0  0  0  0  0  0  0  0  0
    8.5200    2.0473    0.0000 H   0  0  0  0  0  0  0  0  0  0  0  0
    8.1215    1.3571    0.0000 H   0  0  0  0  0  0  0  0  0  0  0  0
    4.6200   -3.2673    0.0000 H   0  0  0  0  0  0  0  0  0  0  0  0
    2.1900   -1.8644    0.0000 H   0  0  0  0  0  0  0  0  0  0  0  0
    1.3800   -3.2673    0.0000 H   0  0  0  0  0  0  0  0  0  0  0  0
    8.1951    3.1547    0.0000 H   0  0  0  0  0  0  0  0  0  0  0  0
    8.1951    4.7747    0.0000 H   0  0  0  0  0  0  0  0  0  0  0  0
    9.5981    5.5847    0.0000 H   0  0  0  0  0  0  0  0  0  0  0  0
   11.3509    5.6193    0.0000 H   0  0  0  0  0  0  0  0  0  0  0  0
   12.7998    4.7976    0.0000 H   0  0  0  0  0  0  0  0  0  0  0  0
   12.7998    3.1318    0.0000 H   0  0  0  0  0  0  0  0  0  0  0  0
  1 21  1  0  0  0  0
  2  9  1  0  0  0  0
  3 24  1  0  0  0  0
  4 15  2  0  0  0  0
  5 18  1  0  0  0  0
  5 23  1  0  0  0  0
  6 12  1  0  0  0  0
  6 13  1  0  0  0  0
  6 15  1  0  0  0  0
  7 14  1  0  0  0  0
  7 16  1  0  0  0  0
  7 43  1  0  0  0  0
  8 25  1  0  0  0  0
  8 32  2  0  0  0  0
  9 10  1  0  0  0  0
  9 11  1  0  0  0  0
  9 14  1  0  0  0  0
 10 12  1  0  0  0  0
 10 33  1  0  0  0  0
 10 34  1  0  0  0  0
 11 13  1  0  0  0  0
 11 35  1  0  0  0  0
 11 36  1  0  0  0  0
 12 37  1  0  0  0  0
 12 38  1  0  0  0  0
 13 39  1  0  0  0  0
 13 40  1  0  0  0  0
 14 41  1  0  0  0  0
 14 42  1  0  0  0  0
 15 17  1  0  0  0  0
 16 18  1  0  0  0  0
 16 44  1  0  0  0  0
 16 45  1  0  0  0  0
 17 19  2  0  0  0  0
 17 20  1  0  0  0  0
 18 46  1  0  0  0  0
 18 47  1  0  0  0  0
 19 21  1  0  0  0  0
 19 48  1  0  0  0  0
 20 22  2  0  0  0  0
 20 49  1  0  0  0  0
 21 24  2  0  0  0  0
 22 24  1  0  0  0  0
 22 50  1  0  0  0  0
 23 25  1  0  0  0  0
 23 26  2  0  0  0  0
 25 27  2  0  0  0  0
 26 28  1  0  0  0  0
 26 51  1  0  0  0  0
 27 29  1  0  0  0  0
 27 30  1  0  0  0  0
 28 29  2  0  0  0  0
 28 52  1  0  0  0  0
 29 53  1  0  0  0  0
 30 31  2  0  0  0  0
 30 54  1  0  0  0  0
 31 32  1  0  0  0  0
 31 55  1  0  0  0  0
 32 56  1  0  0  0  0
M  END
> <PUBCHEM_COMPOUND_CID>
132256724

> <PUBCHEM_COMPOUND_CANONICALIZED>
1

> <PUBCHEM_CACTVS_COMPLEXITY>
620

> <PUBCHEM_CACTVS_HBOND_ACCEPTOR>
6

> <PUBCHEM_CACTVS_HBOND_DONOR>
1

> <PUBCHEM_CACTVS_ROTATABLE_BOND>
7

> <PUBCHEM_CACTVS_SUBSKEYS>
AAADceB7MYAEAAAAAAAAAAAAAAAAAAAAAAA8eIEAAAAAAACx9AAAHwIQAAAADA7hni48xvPIFACoAzV3VASCiCA1ZyAI2KE/btgOJvLFt5uHOSjk1hHY6YeYyLCOAAABIAACEAAAAAJAAAQgAAAAAAAAAA==

> <PUBCHEM_IUPAC_OPENEYE_NAME>
(3-chloro-4-fluoro-phenyl)-[4-fluoro-4-[[2-(8-quinolyloxy)ethylamino]methyl]-1-piperidyl]methanone

> <PUBCHEM_IUPAC_CAS_NAME>
(3-chloro-4-fluorophenyl)-[4-fluoro-4-[[2-(8-quinolinyloxy)ethylamino]methyl]-1-piperidinyl]methanone

> <PUBCHEM_IUPAC_NAME_MARKUP>
(3-chloro-4-fluorophenyl)-[4-fluoro-4-[(2-quinolin-8-yloxyethylamino)methyl]piperidin-1-yl]methanone

> <PUBCHEM_IUPAC_NAME>
(3-chloro-4-fluorophenyl)-[4-fluoro-4-[(2-quinolin-8-yloxyethylamino)methyl]piperidin-1-yl]methanone

> <PUBCHEM_IUPAC_SYSTEMATIC_NAME>
(3-chloranyl-4-fluoranyl-phenyl)-[4-fluoranyl-4-[(2-quinolin-8-yloxyethylamino)methyl]piperidin-1-yl]methanone

> <PUBCHEM_IUPAC_TRADITIONAL_NAME>
(3-chloro-4-fluoro-phenyl)-[4-fluoro-4-[[2-(8-quinolyloxy)ethylamino]methyl]piperidino]methanone

> <PUBCHEM_IUPAC_INCHI>
InChI=1S/C24H24ClF2N3O2/c25-19-15-18(6-7-20(19)26)23(31)30-12-8-24(27,9-13-30)16-28-11-14-32-21-5-1-3-17-4-2-10-29-22(17)21/h1-7,10,15,28H,8-9,11-14,16H2

> <PUBCHEM_IUPAC_INCHIKEY>
GQUKVOGAZWDTMK-UHFFFAOYSA-N

> <PUBCHEM_XLOGP3_AA>
4.3

> <PUBCHEM_EXACT_MASS>
459.1525110

> <PUBCHEM_MOLECULAR_FORMULA>
C24H24ClF2N3O2

> <PUBCHEM_MOLECULAR_WEIGHT>
459.9

> <PUBCHEM_OPENEYE_CAN_SMILES>
C1CN(CCC1(CNCCOC2=CC=CC3=C2N=CC=C3)F)C(=O)C4=CC(=C(C=C4)F)Cl

> <PUBCHEM_OPENEYE_ISO_SMILES>
C1CN(CCC1(CNCCOC2=CC=CC3=C2N=CC=C3)F)C(=O)C4=CC(=C(C=C4)F)Cl

> <PUBCHEM_CACTVS_TPSA>
54.5

> <PUBCHEM_MONOISOTOPIC_WEIGHT>
459.1525110

> <PUBCHEM_TOTAL_CHARGE>
0

> <PUBCHEM_HEAVY_ATOM_COUNT>
32

> <PUBCHEM_ATOM_DEF_STEREO_COUNT>
0

> <PUBCHEM_ATOM_UDEF_STEREO_COUNT>
0

> <PUBCHEM_BOND_DEF_STEREO_COUNT>
0

> <PUBCHEM_BOND_UDEF_STEREO_COUNT>
0

> <PUBCHEM_ISOTOPIC_ATOM_COUNT>
0

> <PUBCHEM_COMPONENT_COUNT>
1

> <PUBCHEM_CACTVS_TAUTO_COUNT>
-1

> <PUBCHEM_COORDINATE_TYPE>
1
5
255

> <PUBCHEM_BONDANNOTATIONS>
17  19  8
17  20  8
19  21  8
20  22  8
21  24  8
22  24  8
23  25  8
23  26  8
25  27  8
26  28  8
27  29  8
27  30  8
28  29  8
30  31  8
31  32  8
8  25  8
8  32  8

$$$$
