72164300
  -OEChem-09292322342D

 45 48  0     0  0  0  0  0  0999 V2000
    3.7320   -0.2673    0.0000 Cl  0  0  0  0  0  0  0  0  0  0  0  0
    2.0000   -1.2673    0.0000 Cl  0  0  0  0  0  0  0  0  0  0  0  0
    7.1962   -0.2673    0.0000 N   0  0  0  0  0  0  0  0  0  0  0  0
    5.4641   -1.2673    0.0000 N   0  0  0  0  0  0  0  0  0  0  0  0
    7.1962   -1.2673    0.0000 C   0  0  0  0  0  0  0  0  0  0  0  0
    6.3301    0.2327    0.0000 C   0  0  0  0  0  0  0  0  0  0  0  0
    6.3301   -1.7673    0.0000 C   0  0  0  0  0  0  0  0  0  0  0  0
    5.4641   -0.2673    0.0000 C   0  0  0  0  0  0  0  0  0  0  0  0
    8.0622    0.2327    0.0000 C   0  0  0  0  0  0  0  0  0  0  0  0
    8.0622    1.2327    0.0000 C   0  0  0  0  0  0  0  0  0  0  0  0
    4.5981   -1.7673    0.0000 C   0  0  0  0  0  0  0  0  0  0  0  0
    8.9282    1.7327    0.0000 C   0  0  0  0  0  0  0  0  0  0  0  0
    7.1962    1.7327    0.0000 C   0  0  0  0  0  0  0  0  0  0  0  0
    3.7320   -1.2673    0.0000 C   0  0  0  0  0  0  0  0  0  0  0  0
    4.5981   -2.7673    0.0000 C   0  0  0  0  0  0  0  0  0  0  0  0
    8.9282    2.7327    0.0000 C   0  0  0  0  0  0  0  0  0  0  0  0
    9.8222    1.1980    0.0000 C   0  0  0  0  0  0  0  0  0  0  0  0
    7.1962    2.7327    0.0000 C   0  0  0  0  0  0  0  0  0  0  0  0
    8.0622    3.2327    0.0000 C   0  0  0  0  0  0  0  0  0  0  0  0
    2.8660   -1.7673    0.0000 C   0  0  0  0  0  0  0  0  0  0  0  0
    3.7320   -3.2673    0.0000 C   0  0  0  0  0  0  0  0  0  0  0  0
    9.8222    3.2673    0.0000 C   0  0  0  0  0  0  0  0  0  0  0  0
    2.8660   -2.7673    0.0000 C   0  0  0  0  0  0  0  0  0  0  0  0
   10.7282    1.7118    0.0000 C   0  0  0  0  0  0  0  0  0  0  0  0
   10.7282    2.7535    0.0000 C   0  0  0  0  0  0  0  0  0  0  0  0
    7.4082   -1.8499    0.0000 H   0  0  0  0  0  0  0  0  0  0  0  0
    7.8067   -1.1597    0.0000 H   0  0  0  0  0  0  0  0  0  0  0  0
    6.7287    0.7076    0.0000 H   0  0  0  0  0  0  0  0  0  0  0  0
    5.9316    0.7076    0.0000 H   0  0  0  0  0  0  0  0  0  0  0  0
    5.9316   -2.2423    0.0000 H   0  0  0  0  0  0  0  0  0  0  0  0
    6.7287   -2.2423    0.0000 H   0  0  0  0  0  0  0  0  0  0  0  0
    5.2520    0.3153    0.0000 H   0  0  0  0  0  0  0  0  0  0  0  0
    4.8535   -0.3750    0.0000 H   0  0  0  0  0  0  0  0  0  0  0  0
    8.2742   -0.3499    0.0000 H   0  0  0  0  0  0  0  0  0  0  0  0
    8.6728    0.3403    0.0000 H   0  0  0  0  0  0  0  0  0  0  0  0
    6.6592    1.4227    0.0000 H   0  0  0  0  0  0  0  0  0  0  0  0
    5.1350   -3.0773    0.0000 H   0  0  0  0  0  0  0  0  0  0  0  0
    9.8150    0.5780    0.0000 H   0  0  0  0  0  0  0  0  0  0  0  0
    6.6592    3.0427    0.0000 H   0  0  0  0  0  0  0  0  0  0  0  0
    8.0622    3.8527    0.0000 H   0  0  0  0  0  0  0  0  0  0  0  0
    3.7320   -3.8873    0.0000 H   0  0  0  0  0  0  0  0  0  0  0  0
    9.8150    3.8873    0.0000 H   0  0  0  0  0  0  0  0  0  0  0  0
    2.3291   -3.0773    0.0000 H   0  0  0  0  0  0  0  0  0  0  0  0
   11.2639    1.3998    0.0000 H   0  0  0  0  0  0  0  0  0  0  0  0
   11.2639    3.0656    0.0000 H   0  0  0  0  0  0  0  0  0  0  0  0
  1 14  1  0  0  0  0
  2 20  1  0  0  0  0
  3  5  1  0  0  0  0
  3  6  1  0  0  0  0
  3  9  1  0  0  0  0
  4  7  1  0  0  0  0
  4  8  1  0  0  0  0
  4 11  1  0  0  0  0
  5  7  1  0  0  0  0
  5 26  1  0  0  0  0
  5 27  1  0  0  0  0
  6  8  1  0  0  0  0
  6 28  1  0  0  0  0
  6 29  1  0  0  0  0
  7 30  1  0  0  0  0
  7 31  1  0  0  0  0
  8 32  1  0  0  0  0
  8 33  1  0  0  0  0
  9 10  1  0  0  0  0
  9 34  1  0  0  0  0
  9 35  1  0  0  0  0
 10 12  1  0  0  0  0
 10 13  2  0  0  0  0
 11 14  2  0  0  0  0
 11 15  1  0  0  0  0
 12 16  1  0  0  0  0
 12 17  2  0  0  0  0
 13 18  1  0  0  0  0
 13 36  1  0  0  0  0
 14 20  1  0  0  0  0
 15 21  2  0  0  0  0
 15 37  1  0  0  0  0
 16 19  1  0  0  0  0
 16 22  2  0  0  0  0
 17 24  1  0  0  0  0
 17 38  1  0  0  0  0
 18 19  2  0  0  0  0
 18 39  1  0  0  0  0
 19 40  1  0  0  0  0
 20 23  2  0  0  0  0
 21 23  1  0  0  0  0
 21 41  1  0  0  0  0
 22 25  1  0  0  0  0
 22 42  1  0  0  0  0
 23 43  1  0  0  0  0
 24 25  2  0  0  0  0
 24 44  1  0  0  0  0
 25 45  1  0  0  0  0
M  END
> <PUBCHEM_COMPOUND_CID>
72164300

> <PUBCHEM_COMPOUND_CANONICALIZED>
1

> <PUBCHEM_CACTVS_COMPLEXITY>
424

> <PUBCHEM_CACTVS_HBOND_ACCEPTOR>
2

> <PUBCHEM_CACTVS_HBOND_DONOR>
0

> <PUBCHEM_CACTVS_ROTATABLE_BOND>
3

> <PUBCHEM_CACTVS_SUBSKEYS>
AAADceB7AAAGAAAAAAAAAAAAAAAAAAAAAAA8YMEAAAAAAADBVAAAHAIAAAAADArBGCQwwMMAAACAAiRCQACCAAAhBwAIikAIZogIYCLBk5HUIAhggADIyAcQgMAOgAACAAIQABQAAAQABCAAKAAAAAAAAA==

> <PUBCHEM_IUPAC_OPENEYE_NAME>
1-(2,3-dichlorophenyl)-4-(1-naphthylmethyl)piperazine

> <PUBCHEM_IUPAC_CAS_NAME>
1-(2,3-dichlorophenyl)-4-(1-naphthalenylmethyl)piperazine

> <PUBCHEM_IUPAC_NAME_MARKUP>
1-(2,3-dichlorophenyl)-4-(naphthalen-1-ylmethyl)piperazine

> <PUBCHEM_IUPAC_NAME>
1-(2,3-dichlorophenyl)-4-(naphthalen-1-ylmethyl)piperazine

> <PUBCHEM_IUPAC_SYSTEMATIC_NAME>
1-[2,3-bis(chloranyl)phenyl]-4-(naphthalen-1-ylmethyl)piperazine

> <PUBCHEM_IUPAC_TRADITIONAL_NAME>
1-(2,3-dichlorophenyl)-4-(1-naphthylmethyl)piperazine

> <PUBCHEM_IUPAC_INCHI>
InChI=1S/C21H20Cl2N2/c22-19-9-4-10-20(21(19)23)25-13-11-24(12-14-25)15-17-7-3-6-16-5-1-2-8-18(16)17/h1-10H,11-15H2

> <PUBCHEM_IUPAC_INCHIKEY>
OJVGHPDSXXGXQT-UHFFFAOYSA-N

> <PUBCHEM_XLOGP3_AA>
5.9

> <PUBCHEM_EXACT_MASS>
370.1003540

> <PUBCHEM_MOLECULAR_FORMULA>
C21H20Cl2N2

> <PUBCHEM_MOLECULAR_WEIGHT>
371.3

> <PUBCHEM_OPENEYE_CAN_SMILES>
C1CN(CCN1CC2=CC=CC3=CC=CC=C32)C4=C(C(=CC=C4)Cl)Cl

> <PUBCHEM_OPENEYE_ISO_SMILES>
C1CN(CCN1CC2=CC=CC3=CC=CC=C32)C4=C(C(=CC=C4)Cl)Cl

> <PUBCHEM_CACTVS_TPSA>
6.5

> <PUBCHEM_MONOISOTOPIC_WEIGHT>
370.1003540

> <PUBCHEM_TOTAL_CHARGE>
0

> <PUBCHEM_HEAVY_ATOM_COUNT>
25

> <PUBCHEM_ATOM_DEF_STEREO_COUNT>
0

> <PUBCHEM_ATOM_UDEF_STEREO_COUNT>
0

> <PUBCHEM_BOND_DEF_STEREO_COUNT>
0

> <PUBCHEM_BOND_UDEF_STEREO_COUNT>
0

> <PUBCHEM_ISOTOPIC_ATOM_COUNT>
0

> <PUBCHEM_COMPONENT_COUNT>
1

> <PUBCHEM_CACTVS_TAUTO_COUNT>
-1

> <PUBCHEM_COORDINATE_TYPE>
1
5
255

> <PUBCHEM_BONDANNOTATIONS>
10  12  8
10  13  8
11  14  8
11  15  8
12  16  8
12  17  8
13  18  8
14  20  8
15  21  8
16  19  8
16  22  8
17  24  8
18  19  8
20  23  8
21  23  8
22  25  8
24  25  8

$$$$
