118709166
  -OEChem-09292322352D

130135  0     0  0  0  0  0  0999 V2000
    2.5981   -0.0000    0.0000 Cl  0  0  0  0  0  0  0  0  0  0  0  0
   17.5981   -0.0000    0.0000 Cl  0  0  0  0  0  0  0  0  0  0  0  0
    2.8660   12.4641    0.0000 F   0  0  0  0  0  0  0  0  0  0  0  0
   13.8660  -12.4641    0.0000 F   0  0  0  0  0  0  0  0  0  0  0  0
    5.0981    2.5981    0.0000 O   0  0  0  0  0  0  0  0  0  0  0  0
   15.0981   -2.5981    0.0000 O   0  0  0  0  0  0  0  0  0  0  0  0
    6.5981    3.4641    0.0000 O   0  0  0  0  0  0  0  0  0  0  0  0
   13.5981   -3.4641    0.0000 O   0  0  0  0  0  0  0  0  0  0  0  0
    2.0000    7.9641    0.0000 O   0  0  0  0  0  0  0  0  0  0  0  0
   13.0000   -7.9641    0.0000 O   0  0  0  0  0  0  0  0  0  0  0  0
    4.5981    5.4641    0.0000 N   0  0  0  0  0  0  0  0  0  0  0  0
   15.5981   -5.4641    0.0000 N   0  0  0  0  0  0  0  0  0  0  0  0
    4.5981    3.4641    0.0000 C   0  0  0  0  0  0  0  0  0  0  0  0
   15.5981   -3.4641    0.0000 C   0  0  0  0  0  0  0  0  0  0  0  0
    3.7320    3.9641    0.0000 C   0  0  0  0  0  0  0  0  0  0  0  0
    5.4641    3.9641    0.0000 C   0  0  0  0  0  0  0  0  0  0  0  0
   16.4641   -3.9641    0.0000 C   0  0  0  0  0  0  0  0  0  0  0  0
   14.7321   -3.9641    0.0000 C   0  0  0  0  0  0  0  0  0  0  0  0
    3.7320    4.9641    0.0000 C   0  0  0  0  0  0  0  0  0  0  0  0
    5.4641    4.9641    0.0000 C   0  0  0  0  0  0  0  0  0  0  0  0
   16.4641   -4.9641    0.0000 C   0  0  0  0  0  0  0  0  0  0  0  0
   14.7321   -4.9641    0.0000 C   0  0  0  0  0  0  0  0  0  0  0  0
    4.0981    2.5981    0.0000 C   0  0  0  0  0  0  0  0  0  0  0  0
   16.0981   -2.5981    0.0000 C   0  0  0  0  0  0  0  0  0  0  0  0
    4.5981    6.4641    0.0000 C   0  0  0  0  0  0  0  0  0  0  0  0
   15.5981   -6.4641    0.0000 C   0  0  0  0  0  0  0  0  0  0  0  0
    3.7320    6.9641    0.0000 C   0  0  0  0  0  0  0  0  0  0  0  0
   14.7321   -6.9641    0.0000 C   0  0  0  0  0  0  0  0  0  0  0  0
    3.0981    2.5981    0.0000 C   0  0  0  0  0  0  0  0  0  0  0  0
   15.5981   -1.7320    0.0000 C   0  0  0  0  0  0  0  0  0  0  0  0
    4.5981    1.7320    0.0000 C   0  0  0  0  0  0  0  0  0  0  0  0
   17.0981   -2.5981    0.0000 C   0  0  0  0  0  0  0  0  0  0  0  0
    6.0981    2.5981    0.0000 C   0  0  0  0  0  0  0  0  0  0  0  0
   14.0981   -2.5981    0.0000 C   0  0  0  0  0  0  0  0  0  0  0  0
    3.7320    7.9641    0.0000 C   0  0  0  0  0  0  0  0  0  0  0  0
   14.7321   -7.9641    0.0000 C   0  0  0  0  0  0  0  0  0  0  0  0
    6.5981    1.7320    0.0000 C   0  0  0  0  0  0  0  0  0  0  0  0
   13.5981   -1.7320    0.0000 C   0  0  0  0  0  0  0  0  0  0  0  0
    2.5981    1.7320    0.0000 C   0  0  0  0  0  0  0  0  0  0  0  0
   16.0981   -0.8660    0.0000 C   0  0  0  0  0  0  0  0  0  0  0  0
    4.0981    0.8660    0.0000 C   0  0  0  0  0  0  0  0  0  0  0  0
   17.5981   -1.7320    0.0000 C   0  0  0  0  0  0  0  0  0  0  0  0
    7.5981    1.7320    0.0000 C   0  0  0  0  0  0  0  0  0  0  0  0
   12.5981   -1.7320    0.0000 C   0  0  0  0  0  0  0  0  0  0  0  0
    3.0981    0.8660    0.0000 C   0  0  0  0  0  0  0  0  0  0  0  0
   17.0981   -0.8660    0.0000 C   0  0  0  0  0  0  0  0  0  0  0  0
    8.0981    0.8660    0.0000 C   0  0  0  0  0  0  0  0  0  0  0  0
   12.0981   -0.8660    0.0000 C   0  0  0  0  0  0  0  0  0  0  0  0
    9.0981    0.8660    0.0000 C   0  0  0  0  0  0  0  0  0  0  0  0
   11.0981   -0.8660    0.0000 C   0  0  0  0  0  0  0  0  0  0  0  0
    9.5981   -0.0000    0.0000 C   0  0  0  0  0  0  0  0  0  0  0  0
   10.5981   -0.0000    0.0000 C   0  0  0  0  0  0  0  0  0  0  0  0
    2.8660    8.4641    0.0000 C   0  0  0  0  0  0  0  0  0  0  0  0
   13.8660   -8.4641    0.0000 C   0  0  0  0  0  0  0  0  0  0  0  0
    2.8660    9.4641    0.0000 C   0  0  0  0  0  0  0  0  0  0  0  0
   13.8660   -9.4641    0.0000 C   0  0  0  0  0  0  0  0  0  0  0  0
    3.7320    9.9641    0.0000 C   0  0  0  0  0  0  0  0  0  0  0  0
   13.0000   -9.9641    0.0000 C   0  0  0  0  0  0  0  0  0  0  0  0
    2.0000    9.9641    0.0000 C   0  0  0  0  0  0  0  0  0  0  0  0
   14.7321   -9.9641    0.0000 C   0  0  0  0  0  0  0  0  0  0  0  0
    3.7320   10.9641    0.0000 C   0  0  0  0  0  0  0  0  0  0  0  0
   13.0000  -10.9641    0.0000 C   0  0  0  0  0  0  0  0  0  0  0  0
    2.0000   10.9641    0.0000 C   0  0  0  0  0  0  0  0  0  0  0  0
   14.7321  -10.9641    0.0000 C   0  0  0  0  0  0  0  0  0  0  0  0
    2.8660   11.4641    0.0000 C   0  0  0  0  0  0  0  0  0  0  0  0
   13.8660  -11.4641    0.0000 C   0  0  0  0  0  0  0  0  0  0  0  0
    3.1215    4.0718    0.0000 H   0  0  0  0  0  0  0  0  0  0  0  0
    3.5200    3.3815    0.0000 H   0  0  0  0  0  0  0  0  0  0  0  0
    5.6762    3.3815    0.0000 H   0  0  0  0  0  0  0  0  0  0  0  0
    6.0747    4.0718    0.0000 H   0  0  0  0  0  0  0  0  0  0  0  0
   17.0747   -4.0718    0.0000 H   0  0  0  0  0  0  0  0  0  0  0  0
   16.6762   -3.3815    0.0000 H   0  0  0  0  0  0  0  0  0  0  0  0
   14.5200   -3.3815    0.0000 H   0  0  0  0  0  0  0  0  0  0  0  0
   14.1215   -4.0718    0.0000 H   0  0  0  0  0  0  0  0  0  0  0  0
    3.5200    5.5467    0.0000 H   0  0  0  0  0  0  0  0  0  0  0  0
    3.1215    4.8564    0.0000 H   0  0  0  0  0  0  0  0  0  0  0  0
    6.0747    4.8564    0.0000 H   0  0  0  0  0  0  0  0  0  0  0  0
    5.6762    5.5467    0.0000 H   0  0  0  0  0  0  0  0  0  0  0  0
   16.6762   -5.5467    0.0000 H   0  0  0  0  0  0  0  0  0  0  0  0
   17.0747   -4.8564    0.0000 H   0  0  0  0  0  0  0  0  0  0  0  0
   14.1215   -4.8564    0.0000 H   0  0  0  0  0  0  0  0  0  0  0  0
   14.5200   -5.5467    0.0000 H   0  0  0  0  0  0  0  0  0  0  0  0
    5.2087    6.3564    0.0000 H   0  0  0  0  0  0  0  0  0  0  0  0
    4.8101    7.0467    0.0000 H   0  0  0  0  0  0  0  0  0  0  0  0
   15.8101   -7.0467    0.0000 H   0  0  0  0  0  0  0  0  0  0  0  0
   16.2087   -6.3564    0.0000 H   0  0  0  0  0  0  0  0  0  0  0  0
    3.1215    7.0718    0.0000 H   0  0  0  0  0  0  0  0  0  0  0  0
    3.5200    6.3815    0.0000 H   0  0  0  0  0  0  0  0  0  0  0  0
   14.5200   -6.3815    0.0000 H   0  0  0  0  0  0  0  0  0  0  0  0
   14.1215   -7.0718    0.0000 H   0  0  0  0  0  0  0  0  0  0  0  0
    2.7881    3.1350    0.0000 H   0  0  0  0  0  0  0  0  0  0  0  0
   14.9781   -1.7320    0.0000 H   0  0  0  0  0  0  0  0  0  0  0  0
    5.2181    1.7320    0.0000 H   0  0  0  0  0  0  0  0  0  0  0  0
   17.4081   -3.1350    0.0000 H   0  0  0  0  0  0  0  0  0  0  0  0
    4.3426    7.8564    0.0000 H   0  0  0  0  0  0  0  0  0  0  0  0
    3.9441    8.5467    0.0000 H   0  0  0  0  0  0  0  0  0  0  0  0
   14.9441   -8.5467    0.0000 H   0  0  0  0  0  0  0  0  0  0  0  0
   15.3426   -7.8564    0.0000 H   0  0  0  0  0  0  0  0  0  0  0  0
    6.0155    1.5200    0.0000 H   0  0  0  0  0  0  0  0  0  0  0  0
    6.7057    1.1215    0.0000 H   0  0  0  0  0  0  0  0  0  0  0  0
   14.1807   -1.5200    0.0000 H   0  0  0  0  0  0  0  0  0  0  0  0
   13.4904   -1.1215    0.0000 H   0  0  0  0  0  0  0  0  0  0  0  0
    1.9781    1.7320    0.0000 H   0  0  0  0  0  0  0  0  0  0  0  0
   15.7881   -0.3291    0.0000 H   0  0  0  0  0  0  0  0  0  0  0  0
    4.4081    0.3291    0.0000 H   0  0  0  0  0  0  0  0  0  0  0  0
   18.2181   -1.7320    0.0000 H   0  0  0  0  0  0  0  0  0  0  0  0
    8.1807    1.9441    0.0000 H   0  0  0  0  0  0  0  0  0  0  0  0
    7.4904    2.3426    0.0000 H   0  0  0  0  0  0  0  0  0  0  0  0
   12.0155   -1.9441    0.0000 H   0  0  0  0  0  0  0  0  0  0  0  0
   12.7057   -2.3426    0.0000 H   0  0  0  0  0  0  0  0  0  0  0  0
    7.5155    0.6540    0.0000 H   0  0  0  0  0  0  0  0  0  0  0  0
    8.2057    0.2554    0.0000 H   0  0  0  0  0  0  0  0  0  0  0  0
   12.6807   -0.6540    0.0000 H   0  0  0  0  0  0  0  0  0  0  0  0
   11.9904   -0.2554    0.0000 H   0  0  0  0  0  0  0  0  0  0  0  0
    9.6807    1.0781    0.0000 H   0  0  0  0  0  0  0  0  0  0  0  0
    8.9904    1.4766    0.0000 H   0  0  0  0  0  0  0  0  0  0  0  0
   10.5155   -1.0781    0.0000 H   0  0  0  0  0  0  0  0  0  0  0  0
   11.2057   -1.4766    0.0000 H   0  0  0  0  0  0  0  0  0  0  0  0
    9.0155   -0.2121    0.0000 H   0  0  0  0  0  0  0  0  0  0  0  0
    9.7057   -0.6106    0.0000 H   0  0  0  0  0  0  0  0  0  0  0  0
   11.1807    0.2121    0.0000 H   0  0  0  0  0  0  0  0  0  0  0  0
   10.4904    0.6106    0.0000 H   0  0  0  0  0  0  0  0  0  0  0  0
    4.2690    9.6541    0.0000 H   0  0  0  0  0  0  0  0  0  0  0  0
   12.4631   -9.6541    0.0000 H   0  0  0  0  0  0  0  0  0  0  0  0
    1.4631    9.6541    0.0000 H   0  0  0  0  0  0  0  0  0  0  0  0
   15.2690   -9.6541    0.0000 H   0  0  0  0  0  0  0  0  0  0  0  0
    4.2690   11.2741    0.0000 H   0  0  0  0  0  0  0  0  0  0  0  0
   12.4631  -11.2741    0.0000 H   0  0  0  0  0  0  0  0  0  0  0  0
    1.4631   11.2741    0.0000 H   0  0  0  0  0  0  0  0  0  0  0  0
   15.2690  -11.2741    0.0000 H   0  0  0  0  0  0  0  0  0  0  0  0
  1 45  1  0  0  0  0
  2 46  1  0  0  0  0
  3 65  1  0  0  0  0
  4 66  1  0  0  0  0
  5 13  1  0  0  0  0
  5 33  1  0  0  0  0
  6 14  1  0  0  0  0
  6 34  1  0  0  0  0
  7 33  2  0  0  0  0
  8 34  2  0  0  0  0
  9 53  2  0  0  0  0
 10 54  2  0  0  0  0
 11 19  1  0  0  0  0
 11 20  1  0  0  0  0
 11 25  1  0  0  0  0
 12 21  1  0  0  0  0
 12 22  1  0  0  0  0
 12 26  1  0  0  0  0
 13 15  1  0  0  0  0
 13 16  1  0  0  0  0
 13 23  1  0  0  0  0
 14 17  1  0  0  0  0
 14 18  1  0  0  0  0
 14 24  1  0  0  0  0
 15 19  1  0  0  0  0
 15 67  1  0  0  0  0
 15 68  1  0  0  0  0
 16 20  1  0  0  0  0
 16 69  1  0  0  0  0
 16 70  1  0  0  0  0
 17 21  1  0  0  0  0
 17 71  1  0  0  0  0
 17 72  1  0  0  0  0
 18 22  1  0  0  0  0
 18 73  1  0  0  0  0
 18 74  1  0  0  0  0
 19 75  1  0  0  0  0
 19 76  1  0  0  0  0
 20 77  1  0  0  0  0
 20 78  1  0  0  0  0
 21 79  1  0  0  0  0
 21 80  1  0  0  0  0
 22 81  1  0  0  0  0
 22 82  1  0  0  0  0
 23 29  2  0  0  0  0
 23 31  1  0  0  0  0
 24 30  2  0  0  0  0
 24 32  1  0  0  0  0
 25 27  1  0  0  0  0
 25 83  1  0  0  0  0
 25 84  1  0  0  0  0
 26 28  1  0  0  0  0
 26 85  1  0  0  0  0
 26 86  1  0  0  0  0
 27 35  1  0  0  0  0
 27 87  1  0  0  0  0
 27 88  1  0  0  0  0
 28 36  1  0  0  0  0
 28 89  1  0  0  0  0
 28 90  1  0  0  0  0
 29 39  1  0  0  0  0
 29 91  1  0  0  0  0
 30 40  1  0  0  0  0
 30 92  1  0  0  0  0
 31 41  2  0  0  0  0
 31 93  1  0  0  0  0
 32 42  2  0  0  0  0
 32 94  1  0  0  0  0
 33 37  1  0  0  0  0
 34 38  1  0  0  0  0
 35 53  1  0  0  0  0
 35 95  1  0  0  0  0
 35 96  1  0  0  0  0
 36 54  1  0  0  0  0
 36 97  1  0  0  0  0
 36 98  1  0  0  0  0
 37 43  1  0  0  0  0
 37 99  1  0  0  0  0
 37100  1  0  0  0  0
 38 44  1  0  0  0  0
 38101  1  0  0  0  0
 38102  1  0  0  0  0
 39 45  2  0  0  0  0
 39103  1  0  0  0  0
 40 46  2  0  0  0  0
 40104  1  0  0  0  0
 41 45  1  0  0  0  0
 41105  1  0  0  0  0
 42 46  1  0  0  0  0
 42106  1  0  0  0  0
 43 47  1  0  0  0  0
 43107  1  0  0  0  0
 43108  1  0  0  0  0
 44 48  1  0  0  0  0
 44109  1  0  0  0  0
 44110  1  0  0  0  0
 47 49  1  0  0  0  0
 47111  1  0  0  0  0
 47112  1  0  0  0  0
 48 50  1  0  0  0  0
 48113  1  0  0  0  0
 48114  1  0  0  0  0
 49 51  1  0  0  0  0
 49115  1  0  0  0  0
 49116  1  0  0  0  0
 50 52  1  0  0  0  0
 50117  1  0  0  0  0
 50118  1  0  0  0  0
 51 52  1  0  0  0  0
 51119  1  0  0  0  0
 51120  1  0  0  0  0
 52121  1  0  0  0  0
 52122  1  0  0  0  0
 53 55  1  0  0  0  0
 54 56  1  0  0  0  0
 55 57  2  0  0  0  0
 55 59  1  0  0  0  0
 56 58  2  0  0  0  0
 56 60  1  0  0  0  0
 57 61  1  0  0  0  0
 57123  1  0  0  0  0
 58 62  1  0  0  0  0
 58124  1  0  0  0  0
 59 63  2  0  0  0  0
 59125  1  0  0  0  0
 60 64  2  0  0  0  0
 60126  1  0  0  0  0
 61 65  2  0  0  0  0
 61127  1  0  0  0  0
 62 66  2  0  0  0  0
 62128  1  0  0  0  0
 63 65  1  0  0  0  0
 63129  1  0  0  0  0
 64 66  1  0  0  0  0
 64130  1  0  0  0  0
M  END
> <PUBCHEM_COMPOUND_CID>
118709166

> <PUBCHEM_COMPOUND_CANONICALIZED>
1

> <PUBCHEM_CACTVS_COMPLEXITY>
1350

> <PUBCHEM_CACTVS_HBOND_ACCEPTOR>
10

> <PUBCHEM_CACTVS_HBOND_DONOR>
0

> <PUBCHEM_CACTVS_ROTATABLE_BOND>
27

> <PUBCHEM_CACTVS_SUBSKEYS>
AAADcfB/OYAGAAAAAAAAAAAAAAAAAAAAAAA8eMGCAAAAAAABVAAAHwIAAAAADEbBmCwwCIMABACIAqDSCAACAAAkBQAIiAEICsgIJjKBtxiGMQAmwAGIqYecyOCOhAAAAAAAAAAIAAAAAAAAAAAAAAAAAA==

> <PUBCHEM_IUPAC_OPENEYE_NAME>
bis[4-(4-chlorophenyl)-1-[4-(4-fluorophenyl)-4-oxo-butyl]-4-piperidyl] dodecanedioate

> <PUBCHEM_IUPAC_CAS_NAME>
dodecanedioic acid bis[4-(4-chlorophenyl)-1-[4-(4-fluorophenyl)-4-oxobutyl]-4-piperidinyl] ester

> <PUBCHEM_IUPAC_NAME_MARKUP>
bis[4-(4-chlorophenyl)-1-[4-(4-fluorophenyl)-4-oxobutyl]piperidin-4-yl] dodecanedioate

> <PUBCHEM_IUPAC_NAME>
bis[4-(4-chlorophenyl)-1-[4-(4-fluorophenyl)-4-oxobutyl]piperidin-4-yl] dodecanedioate

> <PUBCHEM_IUPAC_SYSTEMATIC_NAME>
bis[4-(4-chlorophenyl)-1-[4-(4-fluorophenyl)-4-oxidanylidene-butyl]piperidin-4-yl] dodecanedioate

> <PUBCHEM_IUPAC_TRADITIONAL_NAME>
dodecanedioic acid bis[4-(4-chlorophenyl)-1-[4-(4-fluorophenyl)-4-keto-butyl]-4-piperidyl] ester

> <PUBCHEM_IUPAC_INCHI>
InChI=1S/C54H64Cl2F2N2O6/c55-45-23-19-43(20-24-45)53(31-37-59(38-32-53)35-9-11-49(61)41-15-27-47(57)28-16-41)65-51(63)13-7-5-3-1-2-4-6-8-14-52(64)66-54(44-21-25-46(56)26-22-44)33-39-60(40-34-54)36-10-12-50(62)42-17-29-48(58)30-18-42/h15-30H,1-14,31-40H2

> <PUBCHEM_IUPAC_INCHIKEY>
JBVFOIKUFJIXQZ-UHFFFAOYSA-N

> <PUBCHEM_XLOGP3_AA>
12.4

> <PUBCHEM_EXACT_MASS>
944.4109495

> <PUBCHEM_MOLECULAR_FORMULA>
C54H64Cl2F2N2O6

> <PUBCHEM_MOLECULAR_WEIGHT>
946.0

> <PUBCHEM_OPENEYE_CAN_SMILES>
C1CN(CCC1(C2=CC=C(C=C2)Cl)OC(=O)CCCCCCCCCCC(=O)OC3(CCN(CC3)CCCC(=O)C4=CC=C(C=C4)F)C5=CC=C(C=C5)Cl)CCCC(=O)C6=CC=C(C=C6)F

> <PUBCHEM_OPENEYE_ISO_SMILES>
C1CN(CCC1(C2=CC=C(C=C2)Cl)OC(=O)CCCCCCCCCCC(=O)OC3(CCN(CC3)CCCC(=O)C4=CC=C(C=C4)F)C5=CC=C(C=C5)Cl)CCCC(=O)C6=CC=C(C=C6)F

> <PUBCHEM_CACTVS_TPSA>
93.2

> <PUBCHEM_MONOISOTOPIC_WEIGHT>
944.4109495

> <PUBCHEM_TOTAL_CHARGE>
0

> <PUBCHEM_HEAVY_ATOM_COUNT>
66

> <PUBCHEM_ATOM_DEF_STEREO_COUNT>
0

> <PUBCHEM_ATOM_UDEF_STEREO_COUNT>
0

> <PUBCHEM_BOND_DEF_STEREO_COUNT>
0

> <PUBCHEM_BOND_UDEF_STEREO_COUNT>
0

> <PUBCHEM_ISOTOPIC_ATOM_COUNT>
0

> <PUBCHEM_COMPONENT_COUNT>
1

> <PUBCHEM_CACTVS_TAUTO_COUNT>
-1

> <PUBCHEM_COORDINATE_TYPE>
1
5
255

> <PUBCHEM_BONDANNOTATIONS>
23  29  8
23  31  8
24  30  8
24  32  8
29  39  8
30  40  8
31  41  8
32  42  8
39  45  8
40  46  8
41  45  8
42  46  8
55  57  8
55  59  8
56  58  8
56  60  8
57  61  8
58  62  8
59  63  8
60  64  8
61  65  8
62  66  8
63  65  8
64  66  8

$$$$
