71151933
  -OEChem-09292322352D

 74 79  0     0  0  0  0  0  0999 V2000
    4.9379    0.0621    0.0000 S   0  0  0  0  0  0  0  0  0  0  0  0
   15.3195   -1.4370    0.0000 O   0  0  0  0  0  0  0  0  0  0  0  0
    4.7354   -0.9172    0.0000 O   0  0  0  0  0  0  0  0  0  0  0  0
    5.1403    1.0414    0.0000 O   0  0  0  0  0  0  0  0  0  0  0  0
   20.5817   -1.4129    0.0000 O   0  0  0  0  0  0  0  0  0  0  0  0
   10.9875   -0.9537    0.0000 N   0  0  0  0  0  0  0  0  0  0  0  0
    9.2516    0.0396    0.0000 N   0  0  0  0  0  0  0  0  0  0  0  0
    5.9172   -0.1404    0.0000 N   0  0  0  0  0  0  0  0  0  0  0  0
   18.8496   -1.4129    0.0000 N   0  0  0  0  0  0  0  0  0  0  0  0
   10.9836    0.0463    0.0000 C   0  0  0  0  0  0  0  0  0  0  0  0
   10.1234   -1.4571    0.0000 C   0  0  0  0  0  0  0  0  0  0  0  0
   10.1157    0.5429    0.0000 C   0  0  0  0  0  0  0  0  0  0  0  0
    9.2554   -0.9604    0.0000 C   0  0  0  0  0  0  0  0  0  0  0  0
   11.8554   -1.4504    0.0000 C   0  0  0  0  0  0  0  0  0  0  0  0
    8.3836    0.5362    0.0000 C   0  0  0  0  0  0  0  0  0  0  0  0
   12.7195   -0.9471    0.0000 C   0  0  0  0  0  0  0  0  0  0  0  0
    7.5196    0.0329    0.0000 C   0  0  0  0  0  0  0  0  0  0  0  0
    6.6516    0.5296    0.0000 C   0  0  0  0  0  0  0  0  0  0  0  0
   13.5875   -1.4437    0.0000 C   0  0  0  0  0  0  0  0  0  0  0  0
    8.3798    1.5362    0.0000 C   0  0  0  0  0  0  0  0  0  0  0  0
    7.3141   -0.9397    0.0000 C   0  0  0  0  0  0  0  0  0  0  0  0
    6.6478    1.5296    0.0000 C   0  0  0  0  0  0  0  0  0  0  0  0
    6.3258   -1.0466    0.0000 C   0  0  0  0  0  0  0  0  0  0  0  0
    7.5118    2.0329    0.0000 C   0  0  0  0  0  0  0  0  0  0  0  0
   14.4516   -0.9404    0.0000 C   0  0  0  0  0  0  0  0  0  0  0  0
    3.9586    0.2645    0.0000 C   0  0  0  0  0  0  0  0  0  0  0  0
   16.1836   -0.9337    0.0000 C   0  0  0  0  0  0  0  0  0  0  0  0
   17.9836    0.0871    0.0000 C   0  0  0  0  0  0  0  0  0  0  0  0
   17.9836   -0.9129    0.0000 C   0  0  0  0  0  0  0  0  0  0  0  0
   18.8496    0.5871    0.0000 C   0  0  0  0  0  0  0  0  0  0  0  0
   17.0897   -1.4475    0.0000 C   0  0  0  0  0  0  0  0  0  0  0  0
   19.7157    0.0871    0.0000 C   0  0  0  0  0  0  0  0  0  0  0  0
   16.1836    0.1079    0.0000 C   0  0  0  0  0  0  0  0  0  0  0  0
    3.2936   -0.4823    0.0000 C   0  0  0  0  0  0  0  0  0  0  0  0
    3.6443    1.2139    0.0000 C   0  0  0  0  0  0  0  0  0  0  0  0
   17.0897    0.6218    0.0000 C   0  0  0  0  0  0  0  0  0  0  0  0
   19.7157   -0.9129    0.0000 C   0  0  0  0  0  0  0  0  0  0  0  0
    2.3143   -0.2799    0.0000 C   0  0  0  0  0  0  0  0  0  0  0  0
    2.6650    1.4163    0.0000 C   0  0  0  0  0  0  0  0  0  0  0  0
    2.0000    0.6694    0.0000 C   0  0  0  0  0  0  0  0  0  0  0  0
   11.5946   -0.0590    0.0000 H   0  0  0  0  0  0  0  0  0  0  0  0
   11.1934    0.6297    0.0000 H   0  0  0  0  0  0  0  0  0  0  0  0
    9.7267   -1.9336    0.0000 H   0  0  0  0  0  0  0  0  0  0  0  0
   10.5238   -1.9305    0.0000 H   0  0  0  0  0  0  0  0  0  0  0  0
   10.5124    1.0194    0.0000 H   0  0  0  0  0  0  0  0  0  0  0  0
    9.7153    1.0163    0.0000 H   0  0  0  0  0  0  0  0  0  0  0  0
    8.6445   -0.8551    0.0000 H   0  0  0  0  0  0  0  0  0  0  0  0
    9.0456   -1.5438    0.0000 H   0  0  0  0  0  0  0  0  0  0  0  0
   11.4587   -1.9269    0.0000 H   0  0  0  0  0  0  0  0  0  0  0  0
   12.2558   -1.9238    0.0000 H   0  0  0  0  0  0  0  0  0  0  0  0
   13.1162   -0.4706    0.0000 H   0  0  0  0  0  0  0  0  0  0  0  0
   12.3192   -0.4737    0.0000 H   0  0  0  0  0  0  0  0  0  0  0  0
   13.1908   -1.9202    0.0000 H   0  0  0  0  0  0  0  0  0  0  0  0
   13.9878   -1.9171    0.0000 H   0  0  0  0  0  0  0  0  0  0  0  0
    8.9155    1.8483    0.0000 H   0  0  0  0  0  0  0  0  0  0  0  0
    7.7299   -1.3996    0.0000 H   0  0  0  0  0  0  0  0  0  0  0  0
    6.1096    1.8375    0.0000 H   0  0  0  0  0  0  0  0  0  0  0  0
    6.0179   -1.5847    0.0000 H   0  0  0  0  0  0  0  0  0  0  0  0
    7.5095    2.6529    0.0000 H   0  0  0  0  0  0  0  0  0  0  0  0
   14.8483   -0.4639    0.0000 H   0  0  0  0  0  0  0  0  0  0  0  0
   14.0512   -0.4670    0.0000 H   0  0  0  0  0  0  0  0  0  0  0  0
   19.2482    1.0621    0.0000 H   0  0  0  0  0  0  0  0  0  0  0  0
   18.4511    1.0621    0.0000 H   0  0  0  0  0  0  0  0  0  0  0  0
   17.0968   -2.0675    0.0000 H   0  0  0  0  0  0  0  0  0  0  0  0
   20.3262   -0.0206    0.0000 H   0  0  0  0  0  0  0  0  0  0  0  0
   19.9277    0.6697    0.0000 H   0  0  0  0  0  0  0  0  0  0  0  0
   15.6479    0.4200    0.0000 H   0  0  0  0  0  0  0  0  0  0  0  0
   17.0968    1.2417    0.0000 H   0  0  0  0  0  0  0  0  0  0  0  0
    3.4885   -1.0709    0.0000 H   0  0  0  0  0  0  0  0  0  0  0  0
    4.0565    1.6769    0.0000 H   0  0  0  0  0  0  0  0  0  0  0  0
   18.8496   -2.0329    0.0000 H   0  0  0  0  0  0  0  0  0  0  0  0
    1.9020   -0.7430    0.0000 H   0  0  0  0  0  0  0  0  0  0  0  0
    2.4701    2.0049    0.0000 H   0  0  0  0  0  0  0  0  0  0  0  0
    1.3928    0.7949    0.0000 H   0  0  0  0  0  0  0  0  0  0  0  0
  1  3  2  0  0  0  0
  1  4  2  0  0  0  0
  1  8  1  0  0  0  0
  1 26  1  0  0  0  0
  2 25  1  0  0  0  0
  2 27  1  0  0  0  0
  5 37  2  0  0  0  0
  6 10  1  0  0  0  0
  6 11  1  0  0  0  0
  6 14  1  0  0  0  0
  7 12  1  0  0  0  0
  7 13  1  0  0  0  0
  7 15  1  0  0  0  0
  8 18  1  0  0  0  0
  8 23  1  0  0  0  0
  9 29  1  0  0  0  0
  9 37  1  0  0  0  0
  9 71  1  0  0  0  0
 10 12  1  0  0  0  0
 10 41  1  0  0  0  0
 10 42  1  0  0  0  0
 11 13  1  0  0  0  0
 11 43  1  0  0  0  0
 11 44  1  0  0  0  0
 12 45  1  0  0  0  0
 12 46  1  0  0  0  0
 13 47  1  0  0  0  0
 13 48  1  0  0  0  0
 14 16  1  0  0  0  0
 14 49  1  0  0  0  0
 14 50  1  0  0  0  0
 15 17  1  0  0  0  0
 15 20  2  0  0  0  0
 16 19  1  0  0  0  0
 16 51  1  0  0  0  0
 16 52  1  0  0  0  0
 17 18  2  0  0  0  0
 17 21  1  0  0  0  0
 18 22  1  0  0  0  0
 19 25  1  0  0  0  0
 19 53  1  0  0  0  0
 19 54  1  0  0  0  0
 20 24  1  0  0  0  0
 20 55  1  0  0  0  0
 21 23  2  0  0  0  0
 21 56  1  0  0  0  0
 22 24  2  0  0  0  0
 22 57  1  0  0  0  0
 23 58  1  0  0  0  0
 24 59  1  0  0  0  0
 25 60  1  0  0  0  0
 25 61  1  0  0  0  0
 26 34  2  0  0  0  0
 26 35  1  0  0  0  0
 27 31  2  0  0  0  0
 27 33  1  0  0  0  0
 28 29  2  0  0  0  0
 28 30  1  0  0  0  0
 28 36  1  0  0  0  0
 29 31  1  0  0  0  0
 30 32  1  0  0  0  0
 30 62  1  0  0  0  0
 30 63  1  0  0  0  0
 31 64  1  0  0  0  0
 32 37  1  0  0  0  0
 32 65  1  0  0  0  0
 32 66  1  0  0  0  0
 33 36  2  0  0  0  0
 33 67  1  0  0  0  0
 34 38  1  0  0  0  0
 34 69  1  0  0  0  0
 35 39  2  0  0  0  0
 35 70  1  0  0  0  0
 36 68  1  0  0  0  0
 38 40  2  0  0  0  0
 38 72  1  0  0  0  0
 39 40  1  0  0  0  0
 39 73  1  0  0  0  0
 40 74  1  0  0  0  0
M  END
> <PUBCHEM_COMPOUND_CID>
71151933

> <PUBCHEM_COMPOUND_CANONICALIZED>
1

> <PUBCHEM_CACTVS_COMPLEXITY>
944

> <PUBCHEM_CACTVS_HBOND_ACCEPTOR>
6

> <PUBCHEM_CACTVS_HBOND_DONOR>
1

> <PUBCHEM_CACTVS_ROTATABLE_BOND>
9

> <PUBCHEM_CACTVS_SUBSKEYS>
AAADcfB7uABAAAAAAAAAAAAAAAAAAWAAAAA8eMECAAAAAFix9AAAHgQQQAAADAzh3gY8x/PIFAKoAzV3VHDCiDAxIiAI2Dk+bJgMZvLE8duWPCjm1BnI6Ae42aOeIAAAAgQCAABAAAAECAQAAAAAAAAAAA==

> <PUBCHEM_IUPAC_OPENEYE_NAME>
7-[4-[4-[1-(benzenesulfonyl)indol-4-yl]piperazin-1-yl]butoxy]-3,4-dihydro-1H-quinolin-2-one

> <PUBCHEM_IUPAC_CAS_NAME>
7-[4-[4-[1-(benzenesulfonyl)-4-indolyl]-1-piperazinyl]butoxy]-3,4-dihydro-1H-quinolin-2-one

> <PUBCHEM_IUPAC_NAME_MARKUP>
7-[4-[4-[1-(benzenesulfonyl)indol-4-yl]piperazin-1-yl]butoxy]-3,4-dihydro-1<I>H</I>-quinolin-2-one

> <PUBCHEM_IUPAC_NAME>
7-[4-[4-[1-(benzenesulfonyl)indol-4-yl]piperazin-1-yl]butoxy]-3,4-dihydro-1H-quinolin-2-one

> <PUBCHEM_IUPAC_SYSTEMATIC_NAME>
7-[4-[4-[1-(phenylsulfonyl)indol-4-yl]piperazin-1-yl]butoxy]-3,4-dihydro-1H-quinolin-2-one

> <PUBCHEM_IUPAC_TRADITIONAL_NAME>
7-[4-[4-(1-besylindol-4-yl)piperazino]butoxy]-3,4-dihydrocarbostyril

> <PUBCHEM_IUPAC_INCHI>
InChI=1S/C31H34N4O4S/c36-31-14-12-24-11-13-25(23-28(24)32-31)39-22-5-4-16-33-18-20-34(21-19-33)29-9-6-10-30-27(29)15-17-35(30)40(37,38)26-7-2-1-3-8-26/h1-3,6-11,13,15,17,23H,4-5,12,14,16,18-22H2,(H,32,36)

> <PUBCHEM_IUPAC_INCHIKEY>
MVUPPHQTJNNNFZ-UHFFFAOYSA-N

> <PUBCHEM_XLOGP3_AA>
4.7

> <PUBCHEM_EXACT_MASS>
558.23007675

> <PUBCHEM_MOLECULAR_FORMULA>
C31H34N4O4S

> <PUBCHEM_MOLECULAR_WEIGHT>
558.7

> <PUBCHEM_OPENEYE_CAN_SMILES>
C1CC(=O)NC2=C1C=CC(=C2)OCCCCN3CCN(CC3)C4=CC=CC5=C4C=CN5S(=O)(=O)C6=CC=CC=C6

> <PUBCHEM_OPENEYE_ISO_SMILES>
C1CC(=O)NC2=C1C=CC(=C2)OCCCCN3CCN(CC3)C4=CC=CC5=C4C=CN5S(=O)(=O)C6=CC=CC=C6

> <PUBCHEM_CACTVS_TPSA>
92.3

> <PUBCHEM_MONOISOTOPIC_WEIGHT>
558.23007675

> <PUBCHEM_TOTAL_CHARGE>
0

> <PUBCHEM_HEAVY_ATOM_COUNT>
40

> <PUBCHEM_ATOM_DEF_STEREO_COUNT>
0

> <PUBCHEM_ATOM_UDEF_STEREO_COUNT>
0

> <PUBCHEM_BOND_DEF_STEREO_COUNT>
0

> <PUBCHEM_BOND_UDEF_STEREO_COUNT>
0

> <PUBCHEM_ISOTOPIC_ATOM_COUNT>
0

> <PUBCHEM_COMPONENT_COUNT>
1

> <PUBCHEM_CACTVS_TAUTO_COUNT>
-1

> <PUBCHEM_COORDINATE_TYPE>
1
5
255

> <PUBCHEM_BONDANNOTATIONS>
15  17  8
15  20  8
17  18  8
17  21  8
18  22  8
20  24  8
21  23  8
22  24  8
26  34  8
26  35  8
27  31  8
27  33  8
28  29  8
28  36  8
29  31  8
33  36  8
34  38  8
35  39  8
38  40  8
39  40  8
8  18  8
8  23  8

$$$$
