121304474
  -OEChem-09292322382D

 60 64  0     1  0  0  0  0  0999 V2000
    3.9538    0.6841    0.0000 S   0  0  0  0  0  0  0  0  0  0  0  0
    9.6460   -7.6659    0.0000 F   0  0  0  0  0  0  0  0  0  0  0  0
    8.2800   -8.0319    0.0000 F   0  0  0  0  0  0  0  0  0  0  0  0
    9.2800   -6.2999    0.0000 F   0  0  0  0  0  0  0  0  0  0  0  0
    4.3159   -2.7610    0.0000 N   0  0  3  0  0  0  0  0  0  0  0  0
    3.6750    2.4442    0.0000 N   0  0  0  0  0  0  0  0  0  0  0  0
    2.3660    1.4931    0.0000 N   0  0  0  0  0  0  0  0  0  0  0  0
    2.0570    2.4442    0.0000 N   0  0  0  0  0  0  0  0  0  0  0  0
    3.7320    5.5319    0.0000 N   0  0  0  0  0  0  0  0  0  0  0  0
    2.8660    8.0319    0.0000 N   0  0  0  0  0  0  0  0  0  0  0  0
    4.8159   -4.2999    0.0000 C   0  0  2  0  0  0  0  0  0  0  0  0
    5.3159   -5.1659    0.0000 C   0  0  2  0  0  0  0  0  0  0  0  0
    4.3159   -5.1659    0.0000 C   0  0  0  0  0  0  0  0  0  0  0  0
    5.6249   -3.7121    0.0000 C   0  0  0  0  0  0  0  0  0  0  0  0
    4.0069   -3.7121    0.0000 C   0  0  0  0  0  0  0  0  0  0  0  0
    5.3159   -2.7610    0.0000 C   0  0  0  0  0  0  0  0  0  0  0  0
    6.1819   -5.6659    0.0000 C   0  0  0  0  0  0  0  0  0  0  0  0
    3.7281   -1.9520    0.0000 C   0  0  0  0  0  0  0  0  0  0  0  0
    6.1819   -6.6659    0.0000 C   0  0  0  0  0  0  0  0  0  0  0  0
    7.0480   -5.1659    0.0000 C   0  0  0  0  0  0  0  0  0  0  0  0
    4.1349   -1.0385    0.0000 C   0  0  0  0  0  0  0  0  0  0  0  0
    7.0480   -7.1659    0.0000 C   0  0  0  0  0  0  0  0  0  0  0  0
    7.9140   -5.6659    0.0000 C   0  0  0  0  0  0  0  0  0  0  0  0
    7.9140   -6.6659    0.0000 C   0  0  0  0  0  0  0  0  0  0  0  0
    3.5471   -0.2295    0.0000 C   0  0  0  0  0  0  0  0  0  0  0  0
    8.7800   -7.1659    0.0000 C   0  0  0  0  0  0  0  0  0  0  0  0
    3.3660    1.4931    0.0000 C   0  0  0  0  0  0  0  0  0  0  0  0
    2.8660    3.0319    0.0000 C   0  0  0  0  0  0  0  0  0  0  0  0
    4.6261    2.7532    0.0000 C   0  0  0  0  0  0  0  0  0  0  0  0
    2.8660    4.0319    0.0000 C   0  0  0  0  0  0  0  0  0  0  0  0
    2.0000    4.5319    0.0000 C   0  0  0  0  0  0  0  0  0  0  0  0
    3.7320    4.5319    0.0000 C   0  0  0  0  0  0  0  0  0  0  0  0
    2.0000    5.5319    0.0000 C   0  0  0  0  0  0  0  0  0  0  0  0
    2.8660    6.0319    0.0000 C   0  0  0  0  0  0  0  0  0  0  0  0
    2.8660    7.0319    0.0000 C   0  0  0  0  0  0  0  0  0  0  0  0
    5.1554   -5.7648    0.0000 H   0  0  0  0  0  0  0  0  0  0  0  0
    3.7333   -4.9539    0.0000 H   0  0  0  0  0  0  0  0  0  0  0  0
    4.2082   -5.7765    0.0000 H   0  0  0  0  0  0  0  0  0  0  0  0
    5.9349   -4.2490    0.0000 H   0  0  0  0  0  0  0  0  0  0  0  0
    6.1913   -3.4599    0.0000 H   0  0  0  0  0  0  0  0  0  0  0  0
    3.4405   -3.4599    0.0000 H   0  0  0  0  0  0  0  0  0  0  0  0
    3.6969   -4.2490    0.0000 H   0  0  0  0  0  0  0  0  0  0  0  0
    5.9224   -2.6321    0.0000 H   0  0  0  0  0  0  0  0  0  0  0  0
    5.2511   -2.1444    0.0000 H   0  0  0  0  0  0  0  0  0  0  0  0
    3.2141   -1.6053    0.0000 H   0  0  0  0  0  0  0  0  0  0  0  0
    3.2974   -2.3980    0.0000 H   0  0  0  0  0  0  0  0  0  0  0  0
    5.6450   -6.9759    0.0000 H   0  0  0  0  0  0  0  0  0  0  0  0
    7.0480   -4.5459    0.0000 H   0  0  0  0  0  0  0  0  0  0  0  0
    4.6489   -1.3852    0.0000 H   0  0  0  0  0  0  0  0  0  0  0  0
    4.5656   -0.5925    0.0000 H   0  0  0  0  0  0  0  0  0  0  0  0
    7.0480   -7.7859    0.0000 H   0  0  0  0  0  0  0  0  0  0  0  0
    8.4509   -5.3559    0.0000 H   0  0  0  0  0  0  0  0  0  0  0  0
    3.0331    0.1172    0.0000 H   0  0  0  0  0  0  0  0  0  0  0  0
    3.1164   -0.6755    0.0000 H   0  0  0  0  0  0  0  0  0  0  0  0
    4.8177    2.1635    0.0000 H   0  0  0  0  0  0  0  0  0  0  0  0
    5.2158    2.9448    0.0000 H   0  0  0  0  0  0  0  0  0  0  0  0
    4.4345    3.3428    0.0000 H   0  0  0  0  0  0  0  0  0  0  0  0
    1.4631    4.2219    0.0000 H   0  0  0  0  0  0  0  0  0  0  0  0
    4.2690    4.2219    0.0000 H   0  0  0  0  0  0  0  0  0  0  0  0
    1.4631    5.8419    0.0000 H   0  0  0  0  0  0  0  0  0  0  0  0
  1 25  1  0  0  0  0
  1 27  1  0  0  0  0
  2 26  1  0  0  0  0
  3 26  1  0  0  0  0
  4 26  1  0  0  0  0
  5 15  1  0  0  0  0
  5 16  1  0  0  0  0
  5 18  1  0  0  0  0
  6 27  1  0  0  0  0
  6 28  1  0  0  0  0
  6 29  1  0  0  0  0
  7  8  1  0  0  0  0
  7 27  2  0  0  0  0
  8 28  2  0  0  0  0
  9 32  1  0  0  0  0
  9 34  2  0  0  0  0
 10 35  3  0  0  0  0
 11 12  1  0  0  0  0
 11 13  1  6  0  0  0
 11 14  1  0  0  0  0
 11 15  1  0  0  0  0
 12 13  1  0  0  0  0
 12 17  1  1  0  0  0
 12 36  1  0  0  0  0
 13 37  1  0  0  0  0
 13 38  1  0  0  0  0
 14 16  1  0  0  0  0
 14 39  1  0  0  0  0
 14 40  1  0  0  0  0
 15 41  1  0  0  0  0
 15 42  1  0  0  0  0
 16 43  1  0  0  0  0
 16 44  1  0  0  0  0
 17 19  2  0  0  0  0
 17 20  1  0  0  0  0
 18 21  1  0  0  0  0
 18 45  1  0  0  0  0
 18 46  1  0  0  0  0
 19 22  1  0  0  0  0
 19 47  1  0  0  0  0
 20 23  2  0  0  0  0
 20 48  1  0  0  0  0
 21 25  1  0  0  0  0
 21 49  1  0  0  0  0
 21 50  1  0  0  0  0
 22 24  2  0  0  0  0
 22 51  1  0  0  0  0
 23 24  1  0  0  0  0
 23 52  1  0  0  0  0
 24 26  1  0  0  0  0
 25 53  1  0  0  0  0
 25 54  1  0  0  0  0
 28 30  1  0  0  0  0
 29 55  1  0  0  0  0
 29 56  1  0  0  0  0
 29 57  1  0  0  0  0
 30 31  1  0  0  0  0
 30 32  2  0  0  0  0
 31 33  2  0  0  0  0
 31 58  1  0  0  0  0
 32 59  1  0  0  0  0
 33 34  1  0  0  0  0
 33 60  1  0  0  0  0
 34 35  1  0  0  0  0
M  END
> <PUBCHEM_COMPOUND_CID>
121304474

> <PUBCHEM_COMPOUND_CANONICALIZED>
1

> <PUBCHEM_CACTVS_COMPLEXITY>
781

> <PUBCHEM_CACTVS_HBOND_ACCEPTOR>
9

> <PUBCHEM_CACTVS_HBOND_DONOR>
0

> <PUBCHEM_CACTVS_ROTATABLE_BOND>
7

> <PUBCHEM_CACTVS_SUBSKEYS>
AAADceB7gYBAAAAAAAAAAAAAGAAAAWLAAAA8QAAAAAAAAAAB8AAAHQQIAAAADwjFXxS/kJcMEAiyBzZnZACy0CtxArAd2CA4ZJiIqOLg2ZGEIAhgiALIyA8QgMAPwAAAAAAAAACAAAAAAAAAAAAAAAAAAA==

> <PUBCHEM_IUPAC_OPENEYE_NAME>
5-[4-methyl-5-[3-[(2R,3S)-2-[4-(trifluoromethyl)phenyl]-5-azaspiro[2.4]heptan-5-yl]propylsulfanyl]-1,2,4-triazol-3-yl]pyridine-2-carbonitrile

> <PUBCHEM_IUPAC_CAS_NAME>
5-[4-methyl-5-[3-[(2R,3S)-2-[4-(trifluoromethyl)phenyl]-5-azaspiro[2.4]heptan-5-yl]propylthio]-1,2,4-triazol-3-yl]-2-pyridinecarbonitrile

> <PUBCHEM_IUPAC_NAME_MARKUP>
5-[4-methyl-5-[3-[(2<I>R</I>,3<I>S</I>)-2-[4-(trifluoromethyl)phenyl]-5-azaspiro[2.4]heptan-5-yl]propylsulfanyl]-1,2,4-triazol-3-yl]pyridine-2-carbonitrile

> <PUBCHEM_IUPAC_NAME>
5-[4-methyl-5-[3-[(2R,3S)-2-[4-(trifluoromethyl)phenyl]-5-azaspiro[2.4]heptan-5-yl]propylsulfanyl]-1,2,4-triazol-3-yl]pyridine-2-carbonitrile

> <PUBCHEM_IUPAC_SYSTEMATIC_NAME>
5-[4-methyl-5-[3-[(2R,3S)-2-[4-(trifluoromethyl)phenyl]-5-azaspiro[2.4]heptan-5-yl]propylsulfanyl]-1,2,4-triazol-3-yl]pyridine-2-carbonitrile

> <PUBCHEM_IUPAC_TRADITIONAL_NAME>
5-[4-methyl-5-[3-[(2R,3S)-2-[4-(trifluoromethyl)phenyl]-5-azaspiro[2.4]heptan-5-yl]propylthio]-1,2,4-triazol-3-yl]picolinonitrile

> <PUBCHEM_IUPAC_INCHI>
InChI=1S/C25H25F3N6S/c1-33-22(18-5-8-20(14-29)30-15-18)31-32-23(33)35-12-2-10-34-11-9-24(16-34)13-21(24)17-3-6-19(7-4-17)25(26,27)28/h3-8,15,21H,2,9-13,16H2,1H3/t21-,24+/m1/s1

> <PUBCHEM_IUPAC_INCHIKEY>
LMYXDMLXVWZVJJ-QPPBQGQZSA-N

> <PUBCHEM_XLOGP3_AA>
4.3

> <PUBCHEM_EXACT_MASS>
498.18135048

> <PUBCHEM_MOLECULAR_FORMULA>
C25H25F3N6S

> <PUBCHEM_MOLECULAR_WEIGHT>
498.6

> <PUBCHEM_OPENEYE_CAN_SMILES>
CN1C(=NN=C1SCCCN2CCC3(C2)CC3C4=CC=C(C=C4)C(F)(F)F)C5=CN=C(C=C5)C#N

> <PUBCHEM_OPENEYE_ISO_SMILES>
CN1C(=NN=C1SCCCN2CC[C@@]3(C2)C[C@@H]3C4=CC=C(C=C4)C(F)(F)F)C5=CN=C(C=C5)C#N

> <PUBCHEM_CACTVS_TPSA>
95.9

> <PUBCHEM_MONOISOTOPIC_WEIGHT>
498.18135048

> <PUBCHEM_TOTAL_CHARGE>
0

> <PUBCHEM_HEAVY_ATOM_COUNT>
35

> <PUBCHEM_ATOM_DEF_STEREO_COUNT>
2

> <PUBCHEM_ATOM_UDEF_STEREO_COUNT>
0

> <PUBCHEM_BOND_DEF_STEREO_COUNT>
0

> <PUBCHEM_BOND_UDEF_STEREO_COUNT>
0

> <PUBCHEM_ISOTOPIC_ATOM_COUNT>
0

> <PUBCHEM_COMPONENT_COUNT>
1

> <PUBCHEM_CACTVS_TAUTO_COUNT>
-1

> <PUBCHEM_COORDINATE_TYPE>
1
5
255

> <PUBCHEM_BONDANNOTATIONS>
11  13  6
12  17  5
17  19  8
17  20  8
19  22  8
20  23  8
22  24  8
23  24  8
30  31  8
30  32  8
31  33  8
33  34  8
6  27  8
6  28  8
7  27  8
7  8  8
8  28  8
9  32  8
9  34  8

$$$$
