11743212
  -OEChem-09292322192D

 53 57  0     1  0  0  0  0  0999 V2000
    5.4836   -0.5496    0.0000 S   0  0  0  0  0  0  0  0  0  0  0  0
    9.6643    1.6140    0.0000 O   0  0  0  0  0  0  0  0  0  0  0  0
   10.5303    0.1140    0.0000 O   0  0  0  0  0  0  0  0  0  0  0  0
    3.8080    0.2024    0.0000 O   0  0  0  0  0  0  0  0  0  0  0  0
    8.2983   -0.7520    0.0000 C   0  0  3  0  0  0  0  0  0  0  0  0
    8.7983    0.1140    0.0000 C   0  0  3  0  0  0  0  0  0  0  0  0
    7.7983    0.1140    0.0000 C   0  0  0  0  0  0  0  0  0  0  0  0
    8.2983   -1.7520    0.0000 C   0  0  0  0  0  0  0  0  0  0  0  0
    9.6643    0.6140    0.0000 C   0  0  0  0  0  0  0  0  0  0  0  0
    7.4323   -2.2520    0.0000 C   0  0  0  0  0  0  0  0  0  0  0  0
    9.1643   -2.2520    0.0000 C   0  0  0  0  0  0  0  0  0  0  0  0
    6.5662   -1.7520    0.0000 C   0  0  0  0  0  0  0  0  0  0  0  0
    7.4323   -3.2520    0.0000 C   0  0  0  0  0  0  0  0  0  0  0  0
    9.1643   -3.2520    0.0000 C   0  0  0  0  0  0  0  0  0  0  0  0
    8.2983   -3.7520    0.0000 C   0  0  0  0  0  0  0  0  0  0  0  0
    5.6527   -2.1588    0.0000 C   0  0  0  0  0  0  0  0  0  0  0  0
    6.4617   -0.7575    0.0000 C   0  0  0  0  0  0  0  0  0  0  0  0
    4.9836   -1.4156    0.0000 C   0  0  0  0  0  0  0  0  0  0  0  0
    3.9890   -1.5202    0.0000 C   0  0  0  0  0  0  0  0  0  0  0  0
    3.4013   -0.7112    0.0000 C   0  0  0  0  0  0  0  0  0  0  0  0
    3.5823   -2.4337    0.0000 C   0  0  0  0  0  0  0  0  0  0  0  0
    2.4067   -0.8157    0.0000 C   0  0  0  0  0  0  0  0  0  0  0  0
    2.5878   -2.5382    0.0000 C   0  0  0  0  0  0  0  0  0  0  0  0
    2.0000   -1.7292    0.0000 C   0  0  0  0  0  0  0  0  0  0  0  0
    3.2202    1.0114    0.0000 C   0  0  0  0  0  0  0  0  0  0  0  0
    3.6270    1.9250    0.0000 C   0  0  0  0  0  0  0  0  0  0  0  0
    4.6215    2.0295    0.0000 C   0  0  0  0  0  0  0  0  0  0  0  0
    3.0392    2.7340    0.0000 C   0  0  0  0  0  0  0  0  0  0  0  0
    5.0282    2.9430    0.0000 C   0  0  0  0  0  0  0  0  0  0  0  0
    3.4459    3.6475    0.0000 C   0  0  0  0  0  0  0  0  0  0  0  0
    4.4404    3.7520    0.0000 C   0  0  0  0  0  0  0  0  0  0  0  0
    7.6994   -0.9125    0.0000 H   0  0  0  0  0  0  0  0  0  0  0  0
    8.6378    0.7129    0.0000 H   0  0  0  0  0  0  0  0  0  0  0  0
    7.6906    0.7246    0.0000 H   0  0  0  0  0  0  0  0  0  0  0  0
    7.2157   -0.0981    0.0000 H   0  0  0  0  0  0  0  0  0  0  0  0
    9.7012   -1.9420    0.0000 H   0  0  0  0  0  0  0  0  0  0  0  0
    6.8953   -3.5620    0.0000 H   0  0  0  0  0  0  0  0  0  0  0  0
    9.7012   -3.5620    0.0000 H   0  0  0  0  0  0  0  0  0  0  0  0
   10.2013    1.9240    0.0000 H   0  0  0  0  0  0  0  0  0  0  0  0
    8.2983   -4.3720    0.0000 H   0  0  0  0  0  0  0  0  0  0  0  0
    5.5238   -2.7652    0.0000 H   0  0  0  0  0  0  0  0  0  0  0  0
    6.9225   -0.3427    0.0000 H   0  0  0  0  0  0  0  0  0  0  0  0
    3.9467   -2.9353    0.0000 H   0  0  0  0  0  0  0  0  0  0  0  0
    2.0423   -0.3141    0.0000 H   0  0  0  0  0  0  0  0  0  0  0  0
    2.3356   -3.1046    0.0000 H   0  0  0  0  0  0  0  0  0  0  0  0
    1.3834   -1.7940    0.0000 H   0  0  0  0  0  0  0  0  0  0  0  0
    2.7062    1.3581    0.0000 H   0  0  0  0  0  0  0  0  0  0  0  0
    2.7895    0.5654    0.0000 H   0  0  0  0  0  0  0  0  0  0  0  0
    4.9859    1.5279    0.0000 H   0  0  0  0  0  0  0  0  0  0  0  0
    2.4226    2.6692    0.0000 H   0  0  0  0  0  0  0  0  0  0  0  0
    5.6448    3.0078    0.0000 H   0  0  0  0  0  0  0  0  0  0  0  0
    3.0815    4.1491    0.0000 H   0  0  0  0  0  0  0  0  0  0  0  0
    4.6926    4.3184    0.0000 H   0  0  0  0  0  0  0  0  0  0  0  0
  1 17  1  0  0  0  0
  1 18  1  0  0  0  0
  2  9  1  0  0  0  0
  2 39  1  0  0  0  0
  3  9  2  0  0  0  0
  4 20  1  0  0  0  0
  4 25  1  0  0  0  0
  5  6  1  0  0  0  0
  5  7  1  0  0  0  0
  5  8  1  0  0  0  0
  5 32  1  0  0  0  0
  6  7  1  0  0  0  0
  6  9  1  0  0  0  0
  6 33  1  0  0  0  0
  7 34  1  0  0  0  0
  7 35  1  0  0  0  0
  8 10  1  0  0  0  0
  8 11  2  0  0  0  0
 10 12  1  0  0  0  0
 10 13  2  0  0  0  0
 11 14  1  0  0  0  0
 11 36  1  0  0  0  0
 12 16  1  0  0  0  0
 12 17  2  0  0  0  0
 13 15  1  0  0  0  0
 13 37  1  0  0  0  0
 14 15  2  0  0  0  0
 14 38  1  0  0  0  0
 15 40  1  0  0  0  0
 16 18  2  0  0  0  0
 16 41  1  0  0  0  0
 17 42  1  0  0  0  0
 18 19  1  0  0  0  0
 19 20  1  0  0  0  0
 19 21  2  0  0  0  0
 20 22  2  0  0  0  0
 21 23  1  0  0  0  0
 21 43  1  0  0  0  0
 22 24  1  0  0  0  0
 22 44  1  0  0  0  0
 23 24  2  0  0  0  0
 23 45  1  0  0  0  0
 24 46  1  0  0  0  0
 25 26  1  0  0  0  0
 25 47  1  0  0  0  0
 25 48  1  0  0  0  0
 26 27  2  0  0  0  0
 26 28  1  0  0  0  0
 27 29  1  0  0  0  0
 27 49  1  0  0  0  0
 28 30  2  0  0  0  0
 28 50  1  0  0  0  0
 29 31  2  0  0  0  0
 29 51  1  0  0  0  0
 30 31  1  0  0  0  0
 30 52  1  0  0  0  0
 31 53  1  0  0  0  0
M  END
> <PUBCHEM_COMPOUND_CID>
11743212

> <PUBCHEM_COMPOUND_CANONICALIZED>
1

> <PUBCHEM_CACTVS_COMPLEXITY>
603

> <PUBCHEM_CACTVS_HBOND_ACCEPTOR>
4

> <PUBCHEM_CACTVS_HBOND_DONOR>
1

> <PUBCHEM_CACTVS_ROTATABLE_BOND>
7

> <PUBCHEM_CACTVS_SUBSKEYS>
AAADceB4MABAAAAAAAAAAAAAGAAAASAAAAAwYMAAAAAAAAAB1AAAGgQACAAADQSk2AKwD4AABgiMAiDSCAADCIAgKBBIiBkGCIgMJjKkMRqCeCCkwBEoqAeIyPCOgAAAAAAYAAAAAAAAADAAAAAAAAAAAA==

> <PUBCHEM_IUPAC_OPENEYE_NAME>
2-[2-[5-(2-benzyloxyphenyl)-3-thienyl]phenyl]cyclopropanecarboxylic acid

> <PUBCHEM_IUPAC_CAS_NAME>
2-[2-[5-(2-phenylmethoxyphenyl)-3-thiophenyl]phenyl]-1-cyclopropanecarboxylic acid

> <PUBCHEM_IUPAC_NAME_MARKUP>
2-[2-[5-(2-phenylmethoxyphenyl)thiophen-3-yl]phenyl]cyclopropane-1-carboxylic acid

> <PUBCHEM_IUPAC_NAME>
2-[2-[5-(2-phenylmethoxyphenyl)thiophen-3-yl]phenyl]cyclopropane-1-carboxylic acid

> <PUBCHEM_IUPAC_SYSTEMATIC_NAME>
2-[2-[5-(2-phenylmethoxyphenyl)thiophen-3-yl]phenyl]cyclopropane-1-carboxylic acid

> <PUBCHEM_IUPAC_TRADITIONAL_NAME>
2-[2-[5-(2-benzoxyphenyl)-3-thienyl]phenyl]cyclopropanecarboxylic acid

> <PUBCHEM_IUPAC_INCHI>
InChI=1S/C27H22O3S/c28-27(29)24-15-23(24)21-11-5-4-10-20(21)19-14-26(31-17-19)22-12-6-7-13-25(22)30-16-18-8-2-1-3-9-18/h1-14,17,23-24H,15-16H2,(H,28,29)

> <PUBCHEM_IUPAC_INCHIKEY>
DCYHRPUPJCRAGG-UHFFFAOYSA-N

> <PUBCHEM_XLOGP3_AA>
6.1

> <PUBCHEM_EXACT_MASS>
426.12896573

> <PUBCHEM_MOLECULAR_FORMULA>
C27H22O3S

> <PUBCHEM_MOLECULAR_WEIGHT>
426.5

> <PUBCHEM_OPENEYE_CAN_SMILES>
C1C(C1C(=O)O)C2=CC=CC=C2C3=CSC(=C3)C4=CC=CC=C4OCC5=CC=CC=C5

> <PUBCHEM_OPENEYE_ISO_SMILES>
C1C(C1C(=O)O)C2=CC=CC=C2C3=CSC(=C3)C4=CC=CC=C4OCC5=CC=CC=C5

> <PUBCHEM_CACTVS_TPSA>
74.8

> <PUBCHEM_MONOISOTOPIC_WEIGHT>
426.12896573

> <PUBCHEM_TOTAL_CHARGE>
0

> <PUBCHEM_HEAVY_ATOM_COUNT>
31

> <PUBCHEM_ATOM_DEF_STEREO_COUNT>
0

> <PUBCHEM_ATOM_UDEF_STEREO_COUNT>
2

> <PUBCHEM_BOND_DEF_STEREO_COUNT>
0

> <PUBCHEM_BOND_UDEF_STEREO_COUNT>
0

> <PUBCHEM_ISOTOPIC_ATOM_COUNT>
0

> <PUBCHEM_COMPONENT_COUNT>
1

> <PUBCHEM_CACTVS_TAUTO_COUNT>
-1

> <PUBCHEM_COORDINATE_TYPE>
1
5
255

> <PUBCHEM_BONDANNOTATIONS>
1  17  8
1  18  8
10  13  8
11  14  8
12  16  8
12  17  8
13  15  8
14  15  8
16  18  8
19  20  8
19  21  8
20  22  8
21  23  8
22  24  8
23  24  8
26  27  8
26  28  8
27  29  8
28  30  8
29  31  8
30  31  8
5  8  3
6  9  3
8  10  8
8  11  8

$$$$
