137655953
  -OEChem-09292322002D

 59 63  0     1  0  0  0  0  0999 V2000
    4.8714    6.1504    0.0000 O   0  0  0  0  0  0  0  0  0  0  0  0
    8.1301   -1.5952    0.0000 O   0  0  0  0  0  0  0  0  0  0  0  0
   10.7646   -6.1504    0.0000 O   0  0  0  0  0  0  0  0  0  0  0  0
    4.6660    4.4048    0.0000 N   0  0  0  0  0  0  0  0  0  0  0  0
    6.3981    2.4048    0.0000 N   0  0  3  0  0  0  0  0  0  0  0  0
    3.3073    5.3487    0.0000 N   0  0  0  0  0  0  0  0  0  0  0  0
    9.9044   -4.6471    0.0000 N   0  0  0  0  0  0  0  0  0  0  0  0
    5.5321    2.9048    0.0000 C   0  0  1  0  0  0  0  0  0  0  0  0
    5.5321    3.9048    0.0000 C   0  0  0  0  0  0  0  0  0  0  0  0
    4.6660    2.4048    0.0000 C   0  0  0  0  0  0  0  0  0  0  0  0
    3.8000    3.9048    0.0000 C   0  0  0  0  0  0  0  0  0  0  0  0
    3.8000    2.9048    0.0000 C   0  0  0  0  0  0  0  0  0  0  0  0
    6.3981    1.4048    0.0000 C   0  0  0  0  0  0  0  0  0  0  0  0
    2.9061    4.4395    0.0000 C   0  0  0  0  0  0  0  0  0  0  0  0
    4.3009    5.3292    0.0000 C   0  0  0  0  0  0  0  0  0  0  0  0
    7.2641    0.9048    0.0000 C   0  0  0  0  0  0  0  0  0  0  0  0
    2.9061    2.3702    0.0000 C   0  0  0  0  0  0  0  0  0  0  0  0
    7.2641    2.9048    0.0000 C   0  0  0  0  0  0  0  0  0  0  0  0
    2.0000    3.9257    0.0000 C   0  0  0  0  0  0  0  0  0  0  0  0
    2.0000    2.8840    0.0000 C   0  0  0  0  0  0  0  0  0  0  0  0
    7.2641   -0.0952    0.0000 C   0  0  0  0  0  0  0  0  0  0  0  0
    8.1301   -0.5952    0.0000 C   0  0  0  0  0  0  0  0  0  0  0  0
   10.7762   -3.1505    0.0000 C   0  0  0  0  0  0  0  0  0  0  0  0
   11.6403   -3.6538    0.0000 C   0  0  0  0  0  0  0  0  0  0  0  0
    8.9962   -2.0952    0.0000 C   0  0  0  0  0  0  0  0  0  0  0  0
    9.9082   -3.6471    0.0000 C   0  0  0  0  0  0  0  0  0  0  0  0
   11.6364   -4.6538    0.0000 C   0  0  0  0  0  0  0  0  0  0  0  0
    9.0002   -3.1368    0.0000 C   0  0  0  0  0  0  0  0  0  0  0  0
   10.7962   -2.1090    0.0000 C   0  0  0  0  0  0  0  0  0  0  0  0
    9.9002   -1.5778    0.0000 C   0  0  0  0  0  0  0  0  0  0  0  0
   10.7685   -5.1504    0.0000 C   0  0  0  0  0  0  0  0  0  0  0  0
    5.5321    2.2848    0.0000 H   0  0  0  0  0  0  0  0  0  0  0  0
    6.1426    3.7972    0.0000 H   0  0  0  0  0  0  0  0  0  0  0  0
    5.7441    4.4875    0.0000 H   0  0  0  0  0  0  0  0  0  0  0  0
    4.2675    1.9299    0.0000 H   0  0  0  0  0  0  0  0  0  0  0  0
    5.0646    1.9299    0.0000 H   0  0  0  0  0  0  0  0  0  0  0  0
    5.7875    1.5125    0.0000 H   0  0  0  0  0  0  0  0  0  0  0  0
    6.1860    0.8222    0.0000 H   0  0  0  0  0  0  0  0  0  0  0  0
    7.8747    0.7972    0.0000 H   0  0  0  0  0  0  0  0  0  0  0  0
    7.4762    1.4875    0.0000 H   0  0  0  0  0  0  0  0  0  0  0  0
    2.9132    1.7502    0.0000 H   0  0  0  0  0  0  0  0  0  0  0  0
    7.5741    2.3679    0.0000 H   0  0  0  0  0  0  0  0  0  0  0  0
    7.8010    3.2149    0.0000 H   0  0  0  0  0  0  0  0  0  0  0  0
    6.9541    3.4418    0.0000 H   0  0  0  0  0  0  0  0  0  0  0  0
    2.9739    5.8715    0.0000 H   0  0  0  0  0  0  0  0  0  0  0  0
    1.4643    4.2377    0.0000 H   0  0  0  0  0  0  0  0  0  0  0  0
    1.4643    2.5720    0.0000 H   0  0  0  0  0  0  0  0  0  0  0  0
    6.6535    0.0125    0.0000 H   0  0  0  0  0  0  0  0  0  0  0  0
    7.0521   -0.6778    0.0000 H   0  0  0  0  0  0  0  0  0  0  0  0
    8.7407   -0.7028    0.0000 H   0  0  0  0  0  0  0  0  0  0  0  0
    8.3422   -0.0125    0.0000 H   0  0  0  0  0  0  0  0  0  0  0  0
   12.2504   -3.7638    0.0000 H   0  0  0  0  0  0  0  0  0  0  0  0
   11.8546   -3.0720    0.0000 H   0  0  0  0  0  0  0  0  0  0  0  0
   11.8462   -5.2372    0.0000 H   0  0  0  0  0  0  0  0  0  0  0  0
   12.2474   -4.5485    0.0000 H   0  0  0  0  0  0  0  0  0  0  0  0
    8.4656   -3.4509    0.0000 H   0  0  0  0  0  0  0  0  0  0  0  0
   11.3379   -1.8074    0.0000 H   0  0  0  0  0  0  0  0  0  0  0  0
    9.9050   -0.9578    0.0000 H   0  0  0  0  0  0  0  0  0  0  0  0
    9.3662   -4.9550    0.0000 H   0  0  0  0  0  0  0  0  0  0  0  0
  1 15  2  0  0  0  0
  2 22  1  0  0  0  0
  2 25  1  0  0  0  0
  3 31  2  0  0  0  0
  4  9  1  0  0  0  0
  4 11  1  0  0  0  0
  4 15  1  0  0  0  0
  8  5  1  6  0  0  0
  5 13  1  0  0  0  0
  5 18  1  0  0  0  0
  6 14  1  0  0  0  0
  6 15  1  0  0  0  0
  6 45  1  0  0  0  0
  7 26  1  0  0  0  0
  7 31  1  0  0  0  0
  7 59  1  0  0  0  0
  8  9  1  0  0  0  0
  8 10  1  0  0  0  0
  8 32  1  0  0  0  0
  9 33  1  0  0  0  0
  9 34  1  0  0  0  0
 10 12  1  0  0  0  0
 10 35  1  0  0  0  0
 10 36  1  0  0  0  0
 11 12  2  0  0  0  0
 11 14  1  0  0  0  0
 12 17  1  0  0  0  0
 13 16  1  0  0  0  0
 13 37  1  0  0  0  0
 13 38  1  0  0  0  0
 14 19  2  0  0  0  0
 16 21  1  0  0  0  0
 16 39  1  0  0  0  0
 16 40  1  0  0  0  0
 17 20  2  0  0  0  0
 17 41  1  0  0  0  0
 18 42  1  0  0  0  0
 18 43  1  0  0  0  0
 18 44  1  0  0  0  0
 19 20  1  0  0  0  0
 19 46  1  0  0  0  0
 20 47  1  0  0  0  0
 21 22  1  0  0  0  0
 21 48  1  0  0  0  0
 21 49  1  0  0  0  0
 22 50  1  0  0  0  0
 22 51  1  0  0  0  0
 23 24  1  0  0  0  0
 23 26  2  0  0  0  0
 23 29  1  0  0  0  0
 24 27  1  0  0  0  0
 24 52  1  0  0  0  0
 24 53  1  0  0  0  0
 25 28  2  0  0  0  0
 25 30  1  0  0  0  0
 26 28  1  0  0  0  0
 27 31  1  0  0  0  0
 27 54  1  0  0  0  0
 27 55  1  0  0  0  0
 28 56  1  0  0  0  0
 29 30  2  0  0  0  0
 29 57  1  0  0  0  0
 30 58  1  0  0  0  0
M  END
> <PUBCHEM_COMPOUND_CID>
137655953

> <PUBCHEM_COMPOUND_CANONICALIZED>
1

> <PUBCHEM_CACTVS_COMPLEXITY>
673

> <PUBCHEM_CACTVS_HBOND_ACCEPTOR>
4

> <PUBCHEM_CACTVS_HBOND_DONOR>
2

> <PUBCHEM_CACTVS_ROTATABLE_BOND>
7

> <PUBCHEM_CACTVS_SUBSKEYS>
AAADceB7sAAAAAAAAAAAAAAAAAAAAWAAAAA8eIEAAAAAAFixQAAAHgAQAAAADCzhmAYzxoPABACIAiVSUACCCAAhIgAIiAEOfIiMZjLEsZuWOCju1hvI6Ce42aOeIAAAQgACACBAAACEAAQAQAAAAAAAAA==

> <PUBCHEM_IUPAC_OPENEYE_NAME>
(10R)-10-[methyl-[4-[(2-oxo-3,4-dihydro-1H-quinolin-7-yl)oxy]butyl]amino]-1,3-diazatricyclo[6.3.1.04,12]dodeca-4,6,8(12)-trien-2-one

> <PUBCHEM_IUPAC_CAS_NAME>
(10R)-10-[methyl-[4-[(2-oxo-3,4-dihydro-1H-quinolin-7-yl)oxy]butyl]amino]-1,3-diazatricyclo[6.3.1.04,12]dodeca-4,6,8(12)-trien-2-one

> <PUBCHEM_IUPAC_NAME_MARKUP>
(10<I>R</I>)-10-[methyl-[4-[(2-oxo-3,4-dihydro-1<I>H</I>-quinolin-7-yl)oxy]butyl]amino]-1,3-diazatricyclo[6.3.1.0<SUP>4,12</SUP>]dodeca-4,6,8(12)-trien-2-one

> <PUBCHEM_IUPAC_NAME>
(10R)-10-[methyl-[4-[(2-oxo-3,4-dihydro-1H-quinolin-7-yl)oxy]butyl]amino]-1,3-diazatricyclo[6.3.1.04,12]dodeca-4,6,8(12)-trien-2-one

> <PUBCHEM_IUPAC_SYSTEMATIC_NAME>
(10R)-10-[methyl-[4-[(2-oxidanylidene-3,4-dihydro-1H-quinolin-7-yl)oxy]butyl]amino]-1,3-diazatricyclo[6.3.1.04,12]dodeca-4,6,8(12)-trien-2-one

> <PUBCHEM_IUPAC_TRADITIONAL_NAME>
(10R)-10-[4-[(2-keto-3,4-dihydro-1H-quinolin-7-yl)oxy]butyl-methyl-amino]-1,3-diazatricyclo[6.3.1.04,12]dodeca-4,6,8(12)-trien-2-one

> <PUBCHEM_IUPAC_INCHI>
InChI=1S/C24H28N4O3/c1-27(18-13-17-5-4-6-20-23(17)28(15-18)24(30)26-20)11-2-3-12-31-19-9-7-16-8-10-22(29)25-21(16)14-19/h4-7,9,14,18H,2-3,8,10-13,15H2,1H3,(H,25,29)(H,26,30)/t18-/m1/s1

> <PUBCHEM_IUPAC_INCHIKEY>
WIJUWJDUUDINBR-GOSISDBHSA-N

> <PUBCHEM_XLOGP3_AA>
2.4

> <PUBCHEM_EXACT_MASS>
420.21614077

> <PUBCHEM_MOLECULAR_FORMULA>
C24H28N4O3

> <PUBCHEM_MOLECULAR_WEIGHT>
420.5

> <PUBCHEM_OPENEYE_CAN_SMILES>
CN(CCCCOC1=CC2=C(CCC(=O)N2)C=C1)C3CC4=C5C(=CC=C4)NC(=O)N5C3

> <PUBCHEM_OPENEYE_ISO_SMILES>
CN(CCCCOC1=CC2=C(CCC(=O)N2)C=C1)[C@@H]3CC4=C5C(=CC=C4)NC(=O)N5C3

> <PUBCHEM_CACTVS_TPSA>
73.9

> <PUBCHEM_MONOISOTOPIC_WEIGHT>
420.21614077

> <PUBCHEM_TOTAL_CHARGE>
0

> <PUBCHEM_HEAVY_ATOM_COUNT>
31

> <PUBCHEM_ATOM_DEF_STEREO_COUNT>
1

> <PUBCHEM_ATOM_UDEF_STEREO_COUNT>
0

> <PUBCHEM_BOND_DEF_STEREO_COUNT>
0

> <PUBCHEM_BOND_UDEF_STEREO_COUNT>
0

> <PUBCHEM_ISOTOPIC_ATOM_COUNT>
0

> <PUBCHEM_COMPONENT_COUNT>
1

> <PUBCHEM_CACTVS_TAUTO_COUNT>
-1

> <PUBCHEM_COORDINATE_TYPE>
1
5
255

> <PUBCHEM_BONDANNOTATIONS>
11  12  8
11  14  8
12  17  8
14  19  8
17  20  8
19  20  8
23  26  8
23  29  8
25  28  8
25  30  8
26  28  8
29  30  8
4  11  8
4  15  8
8  5  6
6  14  8
6  15  8

$$$$
