44335816
  -OEChem-09292322162D

 57 60  0     1  0  0  0  0  0999 V2000
   12.3853   -3.4836    0.0000 F   0  0  0  0  0  0  0  0  0  0  0  0
   11.7454   -4.7447    0.0000 F   0  0  0  0  0  0  0  0  0  0  0  0
   10.4843   -4.1049    0.0000 F   0  0  0  0  0  0  0  0  0  0  0  0
    4.3211    1.2452    0.0000 O   0  0  0  0  0  0  0  0  0  0  0  0
   11.1241   -2.8437    0.0000 O   0  0  0  0  0  0  0  0  0  0  0  0
    6.2781    0.8327    0.0000 N   0  0  0  0  0  0  0  0  0  0  0  0
    4.6783    2.9400    0.0000 N   0  0  0  0  0  0  0  0  0  0  0  0
    6.8994   -1.0683    0.0000 N   0  0  0  0  0  0  0  0  0  0  0  0
    5.2619    3.7447    0.0000 C   0  0  3  0  0  0  0  0  0  0  0  0
    5.6103    0.0884    0.0000 C   0  0  0  0  0  0  0  0  0  0  0  0
    7.2566    0.6265    0.0000 C   0  0  0  0  0  0  0  0  0  0  0  0
    5.9209   -0.8621    0.0000 C   0  0  0  0  0  0  0  0  0  0  0  0
    7.5673   -0.3240    0.0000 C   0  0  0  0  0  0  0  0  0  0  0  0
    4.6783    4.5495    0.0000 C   0  0  0  0  0  0  0  0  0  0  0  0
    5.9674    1.7833    0.0000 C   0  0  0  0  0  0  0  0  0  0  0  0
    3.7320    3.2447    0.0000 C   0  0  0  0  0  0  0  0  0  0  0  0
    3.7320    4.2447    0.0000 C   0  0  0  0  0  0  0  0  0  0  0  0
    4.9889    1.9895    0.0000 C   0  0  0  0  0  0  0  0  0  0  0  0
    7.2101   -2.0188    0.0000 C   0  0  0  0  0  0  0  0  0  0  0  0
    6.2619    3.7447    0.0000 C   0  0  0  0  0  0  0  0  0  0  0  0
    2.8660    2.7447    0.0000 C   0  0  0  0  0  0  0  0  0  0  0  0
    2.8660    4.7447    0.0000 C   0  0  0  0  0  0  0  0  0  0  0  0
    8.1886   -2.2250    0.0000 C   0  0  0  0  0  0  0  0  0  0  0  0
    2.0000    3.2447    0.0000 C   0  0  0  0  0  0  0  0  0  0  0  0
    2.0000    4.2447    0.0000 C   0  0  0  0  0  0  0  0  0  0  0  0
    8.8564   -1.4807    0.0000 C   0  0  0  0  0  0  0  0  0  0  0  0
    8.4993   -3.1756    0.0000 C   0  0  0  0  0  0  0  0  0  0  0  0
    9.8349   -1.6870    0.0000 C   0  0  0  0  0  0  0  0  0  0  0  0
    9.4778   -3.3818    0.0000 C   0  0  0  0  0  0  0  0  0  0  0  0
   10.1456   -2.6375    0.0000 C   0  0  0  0  0  0  0  0  0  0  0  0
   11.4348   -3.7942    0.0000 C   0  0  0  0  0  0  0  0  0  0  0  0
    5.5436    3.1924    0.0000 H   0  0  0  0  0  0  0  0  0  0  0  0
    5.2277    0.5763    0.0000 H   0  0  0  0  0  0  0  0  0  0  0  0
    5.0633   -0.2036    0.0000 H   0  0  0  0  0  0  0  0  0  0  0  0
    7.8704    0.7139    0.0000 H   0  0  0  0  0  0  0  0  0  0  0  0
    7.2772    1.2462    0.0000 H   0  0  0  0  0  0  0  0  0  0  0  0
    5.3071   -0.9494    0.0000 H   0  0  0  0  0  0  0  0  0  0  0  0
    5.9004   -1.4817    0.0000 H   0  0  0  0  0  0  0  0  0  0  0  0
    7.9498   -0.8119    0.0000 H   0  0  0  0  0  0  0  0  0  0  0  0
    8.1142   -0.0320    0.0000 H   0  0  0  0  0  0  0  0  0  0  0  0
    5.2156    4.8587    0.0000 H   0  0  0  0  0  0  0  0  0  0  0  0
    4.4272    5.1164    0.0000 H   0  0  0  0  0  0  0  0  0  0  0  0
    6.5812    1.8706    0.0000 H   0  0  0  0  0  0  0  0  0  0  0  0
    5.9880    2.4029    0.0000 H   0  0  0  0  0  0  0  0  0  0  0  0
    6.5963   -2.1062    0.0000 H   0  0  0  0  0  0  0  0  0  0  0  0
    7.1895   -2.6385    0.0000 H   0  0  0  0  0  0  0  0  0  0  0  0
    6.2619    3.1247    0.0000 H   0  0  0  0  0  0  0  0  0  0  0  0
    6.8819    3.7447    0.0000 H   0  0  0  0  0  0  0  0  0  0  0  0
    6.2619    4.3647    0.0000 H   0  0  0  0  0  0  0  0  0  0  0  0
    2.8660    2.1247    0.0000 H   0  0  0  0  0  0  0  0  0  0  0  0
    2.8660    5.3647    0.0000 H   0  0  0  0  0  0  0  0  0  0  0  0
    1.4631    2.9347    0.0000 H   0  0  0  0  0  0  0  0  0  0  0  0
    1.4631    4.5547    0.0000 H   0  0  0  0  0  0  0  0  0  0  0  0
    8.6638   -0.8914    0.0000 H   0  0  0  0  0  0  0  0  0  0  0  0
    8.0852   -3.6370    0.0000 H   0  0  0  0  0  0  0  0  0  0  0  0
   10.2490   -1.2255    0.0000 H   0  0  0  0  0  0  0  0  0  0  0  0
    9.6704   -3.9711    0.0000 H   0  0  0  0  0  0  0  0  0  0  0  0
  1 31  1  0  0  0  0
  2 31  1  0  0  0  0
  3 31  1  0  0  0  0
  4 18  2  0  0  0  0
  5 30  1  0  0  0  0
  5 31  1  0  0  0  0
  6 10  1  0  0  0  0
  6 11  1  0  0  0  0
  6 15  1  0  0  0  0
  7  9  1  0  0  0  0
  7 16  1  0  0  0  0
  7 18  1  0  0  0  0
  8 12  1  0  0  0  0
  8 13  1  0  0  0  0
  8 19  1  0  0  0  0
  9 14  1  0  0  0  0
  9 20  1  0  0  0  0
  9 32  1  0  0  0  0
 10 12  1  0  0  0  0
 10 33  1  0  0  0  0
 10 34  1  0  0  0  0
 11 13  1  0  0  0  0
 11 35  1  0  0  0  0
 11 36  1  0  0  0  0
 12 37  1  0  0  0  0
 12 38  1  0  0  0  0
 13 39  1  0  0  0  0
 13 40  1  0  0  0  0
 14 17  1  0  0  0  0
 14 41  1  0  0  0  0
 14 42  1  0  0  0  0
 15 18  1  0  0  0  0
 15 43  1  0  0  0  0
 15 44  1  0  0  0  0
 16 17  1  0  0  0  0
 16 21  2  0  0  0  0
 17 22  2  0  0  0  0
 19 23  1  0  0  0  0
 19 45  1  0  0  0  0
 19 46  1  0  0  0  0
 20 47  1  0  0  0  0
 20 48  1  0  0  0  0
 20 49  1  0  0  0  0
 21 24  1  0  0  0  0
 21 50  1  0  0  0  0
 22 25  1  0  0  0  0
 22 51  1  0  0  0  0
 23 26  2  0  0  0  0
 23 27  1  0  0  0  0
 24 25  2  0  0  0  0
 24 52  1  0  0  0  0
 25 53  1  0  0  0  0
 26 28  1  0  0  0  0
 26 54  1  0  0  0  0
 27 29  2  0  0  0  0
 27 55  1  0  0  0  0
 28 30  2  0  0  0  0
 28 56  1  0  0  0  0
 29 30  1  0  0  0  0
 29 57  1  0  0  0  0
M  END
> <PUBCHEM_COMPOUND_CID>
44335816

> <PUBCHEM_COMPOUND_CANONICALIZED>
1

> <PUBCHEM_CACTVS_COMPLEXITY>
601

> <PUBCHEM_CACTVS_HBOND_ACCEPTOR>
7

> <PUBCHEM_CACTVS_HBOND_DONOR>
0

> <PUBCHEM_CACTVS_ROTATABLE_BOND>
5

> <PUBCHEM_CACTVS_SUBSKEYS>
AAADceB7MYAAAAAAAAAAAAAAAAAAAWAAAAA8YIAAAAAAAFgBQAAAHwAAAAAADCzBmBQyxoMABACIAiVSUACCCAAhIgAIiACObIgMZiLEsbuUMChkxhHI6AeQ0IIOIAAAAAACAABAAAAAAAQAAAAAAAAAAA==

> <PUBCHEM_IUPAC_OPENEYE_NAME>
1-(2-methylindolin-1-yl)-2-[4-[[4-(trifluoromethoxy)phenyl]methyl]piperazin-1-yl]ethanone

> <PUBCHEM_IUPAC_CAS_NAME>
1-(2-methyl-2,3-dihydroindol-1-yl)-2-[4-[[4-(trifluoromethoxy)phenyl]methyl]-1-piperazinyl]ethanone

> <PUBCHEM_IUPAC_NAME_MARKUP>
1-(2-methyl-2,3-dihydroindol-1-yl)-2-[4-[[4-(trifluoromethoxy)phenyl]methyl]piperazin-1-yl]ethanone

> <PUBCHEM_IUPAC_NAME>
1-(2-methyl-2,3-dihydroindol-1-yl)-2-[4-[[4-(trifluoromethoxy)phenyl]methyl]piperazin-1-yl]ethanone

> <PUBCHEM_IUPAC_SYSTEMATIC_NAME>
1-(2-methyl-2,3-dihydroindol-1-yl)-2-[4-[[4-(trifluoromethyloxy)phenyl]methyl]piperazin-1-yl]ethanone

> <PUBCHEM_IUPAC_TRADITIONAL_NAME>
1-(2-methylindolin-1-yl)-2-[4-[4-(trifluoromethoxy)benzyl]piperazino]ethanone

> <PUBCHEM_IUPAC_INCHI>
InChI=1S/C23H26F3N3O2/c1-17-14-19-4-2-3-5-21(19)29(17)22(30)16-28-12-10-27(11-13-28)15-18-6-8-20(9-7-18)31-23(24,25)26/h2-9,17H,10-16H2,1H3

> <PUBCHEM_IUPAC_INCHIKEY>
WSHBIOWJEQBSLU-UHFFFAOYSA-N

> <PUBCHEM_XLOGP3_AA>
4.3

> <PUBCHEM_EXACT_MASS>
433.19771157

> <PUBCHEM_MOLECULAR_FORMULA>
C23H26F3N3O2

> <PUBCHEM_MOLECULAR_WEIGHT>
433.5

> <PUBCHEM_OPENEYE_CAN_SMILES>
CC1CC2=CC=CC=C2N1C(=O)CN3CCN(CC3)CC4=CC=C(C=C4)OC(F)(F)F

> <PUBCHEM_OPENEYE_ISO_SMILES>
CC1CC2=CC=CC=C2N1C(=O)CN3CCN(CC3)CC4=CC=C(C=C4)OC(F)(F)F

> <PUBCHEM_CACTVS_TPSA>
36

> <PUBCHEM_MONOISOTOPIC_WEIGHT>
433.19771157

> <PUBCHEM_TOTAL_CHARGE>
0

> <PUBCHEM_HEAVY_ATOM_COUNT>
31

> <PUBCHEM_ATOM_DEF_STEREO_COUNT>
0

> <PUBCHEM_ATOM_UDEF_STEREO_COUNT>
1

> <PUBCHEM_BOND_DEF_STEREO_COUNT>
0

> <PUBCHEM_BOND_UDEF_STEREO_COUNT>
0

> <PUBCHEM_ISOTOPIC_ATOM_COUNT>
0

> <PUBCHEM_COMPONENT_COUNT>
1

> <PUBCHEM_CACTVS_TAUTO_COUNT>
-1

> <PUBCHEM_COORDINATE_TYPE>
1
5
255

> <PUBCHEM_BONDANNOTATIONS>
16  17  8
16  21  8
17  22  8
21  24  8
22  25  8
23  26  8
23  27  8
24  25  8
26  28  8
27  29  8
28  30  8
29  30  8
9  20  3

$$$$
