155518805
  -OEChem-09292322082D

 53 56  0     0  0  0  0  0  0999 V2000
    4.5274    2.4846    0.0000 S   0  0  0  0  0  0  0  0  0  0  0  0
   10.0480   -0.6496    0.0000 O   0  0  0  0  0  0  0  0  0  0  0  0
    8.7040    0.8315    0.0000 N   0  0  0  0  0  0  0  0  0  0  0  0
    5.3923   -0.7864    0.0000 N   0  0  0  0  0  0  0  0  0  0  0  0
    6.3518    2.1291    0.0000 N   0  0  0  0  0  0  0  0  0  0  0  0
    6.7328    0.3698    0.0000 N   0  0  0  0  0  0  0  0  0  0  0  0
    4.0274    0.9458    0.0000 C   0  0  0  0  0  0  0  0  0  0  0  0
    3.3424    0.1610    0.0000 C   0  0  0  0  0  0  0  0  0  0  0  0
    2.3219    0.3698    0.0000 C   0  0  0  0  0  0  0  0  0  0  0  0
    3.7183    1.8968    0.0000 C   0  0  0  0  0  0  0  0  0  0  0  0
    2.0000    1.3604    0.0000 C   0  0  0  0  0  0  0  0  0  0  0  0
    2.7029    2.1291    0.0000 C   0  0  0  0  0  0  0  0  0  0  0  0
    5.0274    0.9458    0.0000 C   0  0  0  0  0  0  0  0  0  0  0  0
    5.3364    1.8968    0.0000 C   0  0  0  0  0  0  0  0  0  0  0  0
    5.7123    0.1610    0.0000 C   0  0  0  0  0  0  0  0  0  0  0  0
    8.0321    1.5721    0.0000 C   0  0  0  0  0  0  0  0  0  0  0  0
    7.0547    1.3604    0.0000 C   0  0  0  0  0  0  0  0  0  0  0  0
    8.3987   -0.1207    0.0000 C   0  0  0  0  0  0  0  0  0  0  0  0
    9.6814    1.0432    0.0000 C   0  0  0  0  0  0  0  0  0  0  0  0
    9.0707   -0.8613    0.0000 C   0  0  0  0  0  0  0  0  0  0  0  0
   10.3534    0.3026    0.0000 C   0  0  0  0  0  0  0  0  0  0  0  0
    6.0528   -1.5372    0.0000 C   0  0  0  0  0  0  0  0  0  0  0  0
    4.4118   -0.9830    0.0000 C   0  0  0  0  0  0  0  0  0  0  0  0
    5.7328   -2.4846    0.0000 C   0  0  0  0  0  0  0  0  0  0  0  0
    4.0919   -1.9304    0.0000 C   0  0  0  0  0  0  0  0  0  0  0  0
    3.1160   -0.4162    0.0000 H   0  0  0  0  0  0  0  0  0  0  0  0
    3.8724   -0.1607    0.0000 H   0  0  0  0  0  0  0  0  0  0  0  0
    1.7081    0.2819    0.0000 H   0  0  0  0  0  0  0  0  0  0  0  0
    2.3034   -0.2500    0.0000 H   0  0  0  0  0  0  0  0  0  0  0  0
    1.6208    1.8509    0.0000 H   0  0  0  0  0  0  0  0  0  0  0  0
    1.4518    1.0707    0.0000 H   0  0  0  0  0  0  0  0  0  0  0  0
    2.9426    2.7009    0.0000 H   0  0  0  0  0  0  0  0  0  0  0  0
    2.1806    2.4630    0.0000 H   0  0  0  0  0  0  0  0  0  0  0  0
    8.5566    1.9027    0.0000 H   0  0  0  0  0  0  0  0  0  0  0  0
    7.7976    2.1460    0.0000 H   0  0  0  0  0  0  0  0  0  0  0  0
    7.8502    0.1682    0.0000 H   0  0  0  0  0  0  0  0  0  0  0  0
    8.0189   -0.6108    0.0000 H   0  0  0  0  0  0  0  0  0  0  0  0
   10.2059    1.3738    0.0000 H   0  0  0  0  0  0  0  0  0  0  0  0
    9.4469    1.6172    0.0000 H   0  0  0  0  0  0  0  0  0  0  0  0
    8.5462   -1.1918    0.0000 H   0  0  0  0  0  0  0  0  0  0  0  0
    9.3052   -1.4352    0.0000 H   0  0  0  0  0  0  0  0  0  0  0  0
   10.9019    0.0137    0.0000 H   0  0  0  0  0  0  0  0  0  0  0  0
   10.7332    0.7927    0.0000 H   0  0  0  0  0  0  0  0  0  0  0  0
    6.5968   -1.8346    0.0000 H   0  0  0  0  0  0  0  0  0  0  0  0
    6.4402   -1.0531    0.0000 H   0  0  0  0  0  0  0  0  0  0  0  0
    4.3974   -0.3631    0.0000 H   0  0  0  0  0  0  0  0  0  0  0  0
    3.7989   -0.8896    0.0000 H   0  0  0  0  0  0  0  0  0  0  0  0
    5.1454   -2.2862    0.0000 H   0  0  0  0  0  0  0  0  0  0  0  0
    5.5344   -3.0720    0.0000 H   0  0  0  0  0  0  0  0  0  0  0  0
    6.3202   -2.6830    0.0000 H   0  0  0  0  0  0  0  0  0  0  0  0
    3.5045   -1.7320    0.0000 H   0  0  0  0  0  0  0  0  0  0  0  0
    3.8935   -2.5178    0.0000 H   0  0  0  0  0  0  0  0  0  0  0  0
    4.6793   -2.1288    0.0000 H   0  0  0  0  0  0  0  0  0  0  0  0
  1 10  1  0  0  0  0
  1 14  1  0  0  0  0
  2 20  1  0  0  0  0
  2 21  1  0  0  0  0
  3 16  1  0  0  0  0
  3 18  1  0  0  0  0
  3 19  1  0  0  0  0
  4 15  1  0  0  0  0
  4 22  1  0  0  0  0
  4 23  1  0  0  0  0
  5 14  2  0  0  0  0
  5 17  1  0  0  0  0
  6 15  1  0  0  0  0
  6 17  2  0  0  0  0
  7  8  1  0  0  0  0
  7 10  2  0  0  0  0
  7 13  1  0  0  0  0
  8  9  1  0  0  0  0
  8 26  1  0  0  0  0
  8 27  1  0  0  0  0
  9 11  1  0  0  0  0
  9 28  1  0  0  0  0
  9 29  1  0  0  0  0
 10 12  1  0  0  0  0
 11 12  1  0  0  0  0
 11 30  1  0  0  0  0
 11 31  1  0  0  0  0
 12 32  1  0  0  0  0
 12 33  1  0  0  0  0
 13 14  1  0  0  0  0
 13 15  2  0  0  0  0
 16 17  1  0  0  0  0
 16 34  1  0  0  0  0
 16 35  1  0  0  0  0
 18 20  1  0  0  0  0
 18 36  1  0  0  0  0
 18 37  1  0  0  0  0
 19 21  1  0  0  0  0
 19 38  1  0  0  0  0
 19 39  1  0  0  0  0
 20 40  1  0  0  0  0
 20 41  1  0  0  0  0
 21 42  1  0  0  0  0
 21 43  1  0  0  0  0
 22 24  1  0  0  0  0
 22 44  1  0  0  0  0
 22 45  1  0  0  0  0
 23 25  1  0  0  0  0
 23 46  1  0  0  0  0
 23 47  1  0  0  0  0
 24 48  1  0  0  0  0
 24 49  1  0  0  0  0
 24 50  1  0  0  0  0
 25 51  1  0  0  0  0
 25 52  1  0  0  0  0
 25 53  1  0  0  0  0
M  END
> <PUBCHEM_COMPOUND_CID>
155518805

> <PUBCHEM_COMPOUND_CANONICALIZED>
1

> <PUBCHEM_CACTVS_COMPLEXITY>
430

> <PUBCHEM_CACTVS_HBOND_ACCEPTOR>
6

> <PUBCHEM_CACTVS_HBOND_DONOR>
0

> <PUBCHEM_CACTVS_ROTATABLE_BOND>
5

> <PUBCHEM_CACTVS_SUBSKEYS>
AAADceB7oABAAAAAAAAAAAAAAAAAASAAAAA8WIAAAAAAAFgB+AAAHgQAAAAADADh2wYDsdcIFAikAgJgZACD0KlhCLgBmDA4RJiKaCLg2NGXBAxogAL4yCcQgMAOgAAAAAAAAAAAAAAAAAgAAAAAAAAAAA==

> <PUBCHEM_IUPAC_OPENEYE_NAME>
N,N-diethyl-2-(morpholinomethyl)-5,6,7,8-tetrahydrobenzothiopheno[2,3-d]pyrimidin-4-amine

> <PUBCHEM_IUPAC_CAS_NAME>
N,N-diethyl-2-(4-morpholinylmethyl)-5,6,7,8-tetrahydro-[1]benzothiolo[2,3-d]pyrimidin-4-amine

> <PUBCHEM_IUPAC_NAME_MARKUP>
<I>N</I>,<I>N</I>-diethyl-2-(morpholin-4-ylmethyl)-5,6,7,8-tetrahydro-[1]benzothiolo[2,3-d]pyrimidin-4-amine

> <PUBCHEM_IUPAC_NAME>
N,N-diethyl-2-(morpholin-4-ylmethyl)-5,6,7,8-tetrahydro-[1]benzothiolo[2,3-d]pyrimidin-4-amine

> <PUBCHEM_IUPAC_SYSTEMATIC_NAME>
N,N-diethyl-2-(morpholin-4-ylmethyl)-5,6,7,8-tetrahydro-[1]benzothiolo[2,3-d]pyrimidin-4-amine

> <PUBCHEM_IUPAC_TRADITIONAL_NAME>
diethyl-[2-(morpholinomethyl)-5,6,7,8-tetrahydrobenzothiopheno[2,3-d]pyrimidin-4-yl]amine

> <PUBCHEM_IUPAC_INCHI>
InChI=1S/C19H28N4OS/c1-3-23(4-2)18-17-14-7-5-6-8-15(14)25-19(17)21-16(20-18)13-22-9-11-24-12-10-22/h3-13H2,1-2H3

> <PUBCHEM_IUPAC_INCHIKEY>
UMBDYQKURBMPDQ-UHFFFAOYSA-N

> <PUBCHEM_XLOGP3_AA>
3.5

> <PUBCHEM_EXACT_MASS>
360.19838270

> <PUBCHEM_MOLECULAR_FORMULA>
C19H28N4OS

> <PUBCHEM_MOLECULAR_WEIGHT>
360.5

> <PUBCHEM_OPENEYE_CAN_SMILES>
CCN(CC)C1=C2C3=C(CCCC3)SC2=NC(=N1)CN4CCOCC4

> <PUBCHEM_OPENEYE_ISO_SMILES>
CCN(CC)C1=C2C3=C(CCCC3)SC2=NC(=N1)CN4CCOCC4

> <PUBCHEM_CACTVS_TPSA>
69.7

> <PUBCHEM_MONOISOTOPIC_WEIGHT>
360.19838270

> <PUBCHEM_TOTAL_CHARGE>
0

> <PUBCHEM_HEAVY_ATOM_COUNT>
25

> <PUBCHEM_ATOM_DEF_STEREO_COUNT>
0

> <PUBCHEM_ATOM_UDEF_STEREO_COUNT>
0

> <PUBCHEM_BOND_DEF_STEREO_COUNT>
0

> <PUBCHEM_BOND_UDEF_STEREO_COUNT>
0

> <PUBCHEM_ISOTOPIC_ATOM_COUNT>
0

> <PUBCHEM_COMPONENT_COUNT>
1

> <PUBCHEM_CACTVS_TAUTO_COUNT>
-1

> <PUBCHEM_COORDINATE_TYPE>
1
5
255

> <PUBCHEM_BONDANNOTATIONS>
1  10  8
1  14  8
13  14  8
13  15  8
5  14  8
5  17  8
6  15  8
6  17  8
7  10  8
7  13  8

$$$$
