10572985
  -OEChem-09292322102D

 59 62  0     1  0  0  0  0  0999 V2000
   13.2164   -4.0745    0.0000 Cl  0  0  0  0  0  0  0  0  0  0  0  0
    2.8660    2.0399    0.0000 O   0  0  0  0  0  0  0  0  0  0  0  0
    8.0553   -1.0146    0.0000 N   0  0  0  0  0  0  0  0  0  0  0  0
    9.7757   -2.0346    0.0000 N   0  0  0  0  0  0  0  0  0  0  0  0
    6.3580    2.0052    0.0000 C   0  0  3  0  0  0  0  0  0  0  0  0
    6.3465    1.0053    0.0000 C   0  0  0  0  0  0  0  0  0  0  0  0
    7.2641    2.5190    0.0000 C   0  0  0  0  0  0  0  0  0  0  0  0
    7.2067    0.4953    0.0000 C   0  0  0  0  0  0  0  0  0  0  0  0
    5.4641    2.5399    0.0000 C   0  0  0  0  0  0  0  0  0  0  0  0
    7.2641    3.5607    0.0000 C   0  0  0  0  0  0  0  0  0  0  0  0
    7.1951   -0.5047    0.0000 C   0  0  0  0  0  0  0  0  0  0  0  0
    6.3580    4.0745    0.0000 C   0  0  0  0  0  0  0  0  0  0  0  0
    5.4641    3.5399    0.0000 C   0  0  0  0  0  0  0  0  0  0  0  0
    8.0437   -2.0146    0.0000 C   0  0  0  0  0  0  0  0  0  0  0  0
    8.9270   -0.5247    0.0000 C   0  0  0  0  0  0  0  0  0  0  0  0
    8.9039   -2.5246    0.0000 C   0  0  0  0  0  0  0  0  0  0  0  0
    9.7872   -1.0347    0.0000 C   0  0  0  0  0  0  0  0  0  0  0  0
    4.5981    2.0399    0.0000 C   0  0  0  0  0  0  0  0  0  0  0  0
    4.5981    4.0399    0.0000 C   0  0  0  0  0  0  0  0  0  0  0  0
    3.7320    2.5399    0.0000 C   0  0  0  0  0  0  0  0  0  0  0  0
   10.6358   -2.5446    0.0000 C   0  0  0  0  0  0  0  0  0  0  0  0
    3.7320    3.5399    0.0000 C   0  0  0  0  0  0  0  0  0  0  0  0
   11.5076   -2.0546    0.0000 C   0  0  0  0  0  0  0  0  0  0  0  0
   10.6243   -3.5445    0.0000 C   0  0  0  0  0  0  0  0  0  0  0  0
   12.3678   -2.5646    0.0000 C   0  0  0  0  0  0  0  0  0  0  0  0
   11.4845   -4.0545    0.0000 C   0  0  0  0  0  0  0  0  0  0  0  0
   12.3562   -3.5645    0.0000 C   0  0  0  0  0  0  0  0  0  0  0  0
    2.0000    2.5399    0.0000 C   0  0  0  0  0  0  0  0  0  0  0  0
    5.8170    1.7025    0.0000 H   0  0  0  0  0  0  0  0  0  0  0  0
    5.7372    1.1200    0.0000 H   0  0  0  0  0  0  0  0  0  0  0  0
    6.1277    0.4251    0.0000 H   0  0  0  0  0  0  0  0  0  0  0  0
    7.4732    1.9354    0.0000 H   0  0  0  0  0  0  0  0  0  0  0  0
    7.8750    2.6251    0.0000 H   0  0  0  0  0  0  0  0  0  0  0  0
    7.8160    0.3806    0.0000 H   0  0  0  0  0  0  0  0  0  0  0  0
    7.4254    1.0754    0.0000 H   0  0  0  0  0  0  0  0  0  0  0  0
    7.8750    3.4546    0.0000 H   0  0  0  0  0  0  0  0  0  0  0  0
    7.4732    4.1444    0.0000 H   0  0  0  0  0  0  0  0  0  0  0  0
    6.5858   -0.3899    0.0000 H   0  0  0  0  0  0  0  0  0  0  0  0
    6.9763   -1.0848    0.0000 H   0  0  0  0  0  0  0  0  0  0  0  0
    6.7517    4.5535    0.0000 H   0  0  0  0  0  0  0  0  0  0  0  0
    5.9534    4.5443    0.0000 H   0  0  0  0  0  0  0  0  0  0  0  0
    7.4344   -1.8998    0.0000 H   0  0  0  0  0  0  0  0  0  0  0  0
    7.8250   -2.5947    0.0000 H   0  0  0  0  0  0  0  0  0  0  0  0
    9.3310   -0.0544    0.0000 H   0  0  0  0  0  0  0  0  0  0  0  0
    8.5340   -0.0452    0.0000 H   0  0  0  0  0  0  0  0  0  0  0  0
    8.4999   -2.9948    0.0000 H   0  0  0  0  0  0  0  0  0  0  0  0
    9.2969   -3.0041    0.0000 H   0  0  0  0  0  0  0  0  0  0  0  0
   10.3965   -1.1494    0.0000 H   0  0  0  0  0  0  0  0  0  0  0  0
   10.0060   -0.4545    0.0000 H   0  0  0  0  0  0  0  0  0  0  0  0
    4.5981    1.4199    0.0000 H   0  0  0  0  0  0  0  0  0  0  0  0
    4.5981    4.6599    0.0000 H   0  0  0  0  0  0  0  0  0  0  0  0
    3.1951    3.8499    0.0000 H   0  0  0  0  0  0  0  0  0  0  0  0
   11.5148   -1.4347    0.0000 H   0  0  0  0  0  0  0  0  0  0  0  0
   10.0838   -3.8483    0.0000 H   0  0  0  0  0  0  0  0  0  0  0  0
   12.9083   -2.2608    0.0000 H   0  0  0  0  0  0  0  0  0  0  0  0
   11.4773   -4.6744    0.0000 H   0  0  0  0  0  0  0  0  0  0  0  0
    2.3100    3.0768    0.0000 H   0  0  0  0  0  0  0  0  0  0  0  0
    1.4631    2.8499    0.0000 H   0  0  0  0  0  0  0  0  0  0  0  0
    1.6900    2.0029    0.0000 H   0  0  0  0  0  0  0  0  0  0  0  0
  1 27  1  0  0  0  0
  2 20  1  0  0  0  0
  2 28  1  0  0  0  0
  3 11  1  0  0  0  0
  3 14  1  0  0  0  0
  3 15  1  0  0  0  0
  4 16  1  0  0  0  0
  4 17  1  0  0  0  0
  4 21  1  0  0  0  0
  5  6  1  0  0  0  0
  5  7  1  0  0  0  0
  5  9  1  0  0  0  0
  5 29  1  0  0  0  0
  6  8  1  0  0  0  0
  6 30  1  0  0  0  0
  6 31  1  0  0  0  0
  7 10  1  0  0  0  0
  7 32  1  0  0  0  0
  7 33  1  0  0  0  0
  8 11  1  0  0  0  0
  8 34  1  0  0  0  0
  8 35  1  0  0  0  0
  9 13  2  0  0  0  0
  9 18  1  0  0  0  0
 10 12  1  0  0  0  0
 10 36  1  0  0  0  0
 10 37  1  0  0  0  0
 11 38  1  0  0  0  0
 11 39  1  0  0  0  0
 12 13  1  0  0  0  0
 12 40  1  0  0  0  0
 12 41  1  0  0  0  0
 13 19  1  0  0  0  0
 14 16  1  0  0  0  0
 14 42  1  0  0  0  0
 14 43  1  0  0  0  0
 15 17  1  0  0  0  0
 15 44  1  0  0  0  0
 15 45  1  0  0  0  0
 16 46  1  0  0  0  0
 16 47  1  0  0  0  0
 17 48  1  0  0  0  0
 17 49  1  0  0  0  0
 18 20  2  0  0  0  0
 18 50  1  0  0  0  0
 19 22  2  0  0  0  0
 19 51  1  0  0  0  0
 20 22  1  0  0  0  0
 21 23  2  0  0  0  0
 21 24  1  0  0  0  0
 22 52  1  0  0  0  0
 23 25  1  0  0  0  0
 23 53  1  0  0  0  0
 24 26  2  0  0  0  0
 24 54  1  0  0  0  0
 25 27  2  0  0  0  0
 25 55  1  0  0  0  0
 26 27  1  0  0  0  0
 26 56  1  0  0  0  0
 28 57  1  0  0  0  0
 28 58  1  0  0  0  0
 28 59  1  0  0  0  0
M  END
> <PUBCHEM_COMPOUND_CID>
10572985

> <PUBCHEM_COMPOUND_CANONICALIZED>
1

> <PUBCHEM_CACTVS_COMPLEXITY>
460

> <PUBCHEM_CACTVS_HBOND_ACCEPTOR>
3

> <PUBCHEM_CACTVS_HBOND_DONOR>
0

> <PUBCHEM_CACTVS_ROTATABLE_BOND>
6

> <PUBCHEM_CACTVS_SUBSKEYS>
AAADceB7IAAEAAAAAAAAAAAAAAAAAAAAAAA8YMEAAAAAAADBQAAAHgIAAAAADQ7BmCYyxoMABACAAiRCQACCCAAhJwAIiAAObogMZiLFs5uUMChkwBHI6AeQwPAOoABBAAAQAABAAIYAACAAAAAAAAAAAA==

> <PUBCHEM_IUPAC_OPENEYE_NAME>
1-(4-chlorophenyl)-4-[3-(7-methoxytetralin-1-yl)propyl]piperazine

> <PUBCHEM_IUPAC_CAS_NAME>
1-(4-chlorophenyl)-4-[3-(7-methoxy-1,2,3,4-tetrahydronaphthalen-1-yl)propyl]piperazine

> <PUBCHEM_IUPAC_NAME_MARKUP>
1-(4-chlorophenyl)-4-[3-(7-methoxy-1,2,3,4-tetrahydronaphthalen-1-yl)propyl]piperazine

> <PUBCHEM_IUPAC_NAME>
1-(4-chlorophenyl)-4-[3-(7-methoxy-1,2,3,4-tetrahydronaphthalen-1-yl)propyl]piperazine

> <PUBCHEM_IUPAC_SYSTEMATIC_NAME>
1-(4-chlorophenyl)-4-[3-(7-methoxy-1,2,3,4-tetrahydronaphthalen-1-yl)propyl]piperazine

> <PUBCHEM_IUPAC_TRADITIONAL_NAME>
1-(4-chlorophenyl)-4-[3-(7-methoxytetralin-1-yl)propyl]piperazine

> <PUBCHEM_IUPAC_INCHI>
InChI=1S/C24H31ClN2O/c1-28-23-12-7-20-5-2-4-19(24(20)18-23)6-3-13-26-14-16-27(17-15-26)22-10-8-21(25)9-11-22/h7-12,18-19H,2-6,13-17H2,1H3

> <PUBCHEM_IUPAC_INCHIKEY>
WZKDDXSAKSUASX-UHFFFAOYSA-N

> <PUBCHEM_XLOGP3_AA>
6

> <PUBCHEM_EXACT_MASS>
398.2124913

> <PUBCHEM_MOLECULAR_FORMULA>
C24H31ClN2O

> <PUBCHEM_MOLECULAR_WEIGHT>
399.0

> <PUBCHEM_OPENEYE_CAN_SMILES>
COC1=CC2=C(CCCC2CCCN3CCN(CC3)C4=CC=C(C=C4)Cl)C=C1

> <PUBCHEM_OPENEYE_ISO_SMILES>
COC1=CC2=C(CCCC2CCCN3CCN(CC3)C4=CC=C(C=C4)Cl)C=C1

> <PUBCHEM_CACTVS_TPSA>
15.7

> <PUBCHEM_MONOISOTOPIC_WEIGHT>
398.2124913

> <PUBCHEM_TOTAL_CHARGE>
0

> <PUBCHEM_HEAVY_ATOM_COUNT>
28

> <PUBCHEM_ATOM_DEF_STEREO_COUNT>
0

> <PUBCHEM_ATOM_UDEF_STEREO_COUNT>
1

> <PUBCHEM_BOND_DEF_STEREO_COUNT>
0

> <PUBCHEM_BOND_UDEF_STEREO_COUNT>
0

> <PUBCHEM_ISOTOPIC_ATOM_COUNT>
0

> <PUBCHEM_COMPONENT_COUNT>
1

> <PUBCHEM_CACTVS_TAUTO_COUNT>
-1

> <PUBCHEM_COORDINATE_TYPE>
1
5
255

> <PUBCHEM_BONDANNOTATIONS>
13  19  8
18  20  8
19  22  8
20  22  8
21  23  8
21  24  8
23  25  8
24  26  8
25  27  8
26  27  8
5  6  3
9  13  8
9  18  8

$$$$
