127051863
  -OEChem-09292322372D

 52 55  0     0  0  0  0  0  0999 V2000
   14.7260   -2.3660    0.0000 Cl  0  0  0  0  0  0  0  0  0  0  0  0
   12.1279    0.1340    0.0000 O   0  0  0  0  0  0  0  0  0  0  0  0
    4.6783    2.1708    0.0000 O   0  0  0  0  0  0  0  0  0  0  0  0
    9.2619   -0.3660    0.0000 N   0  0  0  0  0  0  0  0  0  0  0  0
    4.6783    0.5613    0.0000 N   0  0  0  0  0  0  0  0  0  0  0  0
   11.2619   -0.3660    0.0000 C   0  0  0  0  0  0  0  0  0  0  0  0
   10.7619   -1.2320    0.0000 C   0  0  0  0  0  0  0  0  0  0  0  0
   10.7619    0.5000    0.0000 C   0  0  0  0  0  0  0  0  0  0  0  0
    9.7619   -1.2320    0.0000 C   0  0  0  0  0  0  0  0  0  0  0  0
    9.7619    0.5000    0.0000 C   0  0  0  0  0  0  0  0  0  0  0  0
    8.2619   -0.3660    0.0000 C   0  0  0  0  0  0  0  0  0  0  0  0
   12.1279   -0.8660    0.0000 C   0  0  0  0  0  0  0  0  0  0  0  0
    7.7619    0.5000    0.0000 C   0  0  0  0  0  0  0  0  0  0  0  0
    6.7619    0.5000    0.0000 C   0  0  0  0  0  0  0  0  0  0  0  0
   12.9939   -0.3660    0.0000 C   0  0  0  0  0  0  0  0  0  0  0  0
   12.1279   -1.8660    0.0000 C   0  0  0  0  0  0  0  0  0  0  0  0
    6.2619    1.3660    0.0000 C   0  0  0  0  0  0  0  0  0  0  0  0
   13.8600   -0.8660    0.0000 C   0  0  0  0  0  0  0  0  0  0  0  0
   12.9939   -2.3660    0.0000 C   0  0  0  0  0  0  0  0  0  0  0  0
   13.8600   -1.8660    0.0000 C   0  0  0  0  0  0  0  0  0  0  0  0
    5.2619    1.3660    0.0000 C   0  0  0  0  0  0  0  0  0  0  0  0
    3.7320    1.8660    0.0000 C   0  0  0  0  0  0  0  0  0  0  0  0
    3.7320    0.8660    0.0000 C   0  0  0  0  0  0  0  0  0  0  0  0
    2.8660    2.3660    0.0000 C   0  0  0  0  0  0  0  0  0  0  0  0
    2.8660    0.3660    0.0000 C   0  0  0  0  0  0  0  0  0  0  0  0
    2.0000    1.8660    0.0000 C   0  0  0  0  0  0  0  0  0  0  0  0
    2.0000    0.8660    0.0000 C   0  0  0  0  0  0  0  0  0  0  0  0
   10.6542   -1.8426    0.0000 H   0  0  0  0  0  0  0  0  0  0  0  0
   11.3445   -1.4441    0.0000 H   0  0  0  0  0  0  0  0  0  0  0  0
   11.3445    0.7121    0.0000 H   0  0  0  0  0  0  0  0  0  0  0  0
   10.6542    1.1106    0.0000 H   0  0  0  0  0  0  0  0  0  0  0  0
    9.1793   -1.4441    0.0000 H   0  0  0  0  0  0  0  0  0  0  0  0
    9.8695   -1.8426    0.0000 H   0  0  0  0  0  0  0  0  0  0  0  0
    9.8695    1.1106    0.0000 H   0  0  0  0  0  0  0  0  0  0  0  0
    9.1793    0.7121    0.0000 H   0  0  0  0  0  0  0  0  0  0  0  0
    7.6793   -0.5781    0.0000 H   0  0  0  0  0  0  0  0  0  0  0  0
    8.3695   -0.9766    0.0000 H   0  0  0  0  0  0  0  0  0  0  0  0
    8.3445    0.7121    0.0000 H   0  0  0  0  0  0  0  0  0  0  0  0
    7.6542    1.1106    0.0000 H   0  0  0  0  0  0  0  0  0  0  0  0
   12.1279    0.7540    0.0000 H   0  0  0  0  0  0  0  0  0  0  0  0
    6.1793    0.2879    0.0000 H   0  0  0  0  0  0  0  0  0  0  0  0
    6.8695   -0.1106    0.0000 H   0  0  0  0  0  0  0  0  0  0  0  0
   12.9939    0.2540    0.0000 H   0  0  0  0  0  0  0  0  0  0  0  0
   11.5910   -2.1760    0.0000 H   0  0  0  0  0  0  0  0  0  0  0  0
    6.8445    1.5781    0.0000 H   0  0  0  0  0  0  0  0  0  0  0  0
    6.1542    1.9766    0.0000 H   0  0  0  0  0  0  0  0  0  0  0  0
   14.3969   -0.5560    0.0000 H   0  0  0  0  0  0  0  0  0  0  0  0
   12.9939   -2.9860    0.0000 H   0  0  0  0  0  0  0  0  0  0  0  0
    2.8660    2.9860    0.0000 H   0  0  0  0  0  0  0  0  0  0  0  0
    2.8660   -0.2540    0.0000 H   0  0  0  0  0  0  0  0  0  0  0  0
    1.4631    2.1760    0.0000 H   0  0  0  0  0  0  0  0  0  0  0  0
    1.4631    0.5560    0.0000 H   0  0  0  0  0  0  0  0  0  0  0  0
  1 20  1  0  0  0  0
  2  6  1  0  0  0  0
  2 40  1  0  0  0  0
  3 21  1  0  0  0  0
  3 22  1  0  0  0  0
  4  9  1  0  0  0  0
  4 10  1  0  0  0  0
  4 11  1  0  0  0  0
  5 21  2  0  0  0  0
  5 23  1  0  0  0  0
  6  7  1  0  0  0  0
  6  8  1  0  0  0  0
  6 12  1  0  0  0  0
  7  9  1  0  0  0  0
  7 28  1  0  0  0  0
  7 29  1  0  0  0  0
  8 10  1  0  0  0  0
  8 30  1  0  0  0  0
  8 31  1  0  0  0  0
  9 32  1  0  0  0  0
  9 33  1  0  0  0  0
 10 34  1  0  0  0  0
 10 35  1  0  0  0  0
 11 13  1  0  0  0  0
 11 36  1  0  0  0  0
 11 37  1  0  0  0  0
 12 15  2  0  0  0  0
 12 16  1  0  0  0  0
 13 14  1  0  0  0  0
 13 38  1  0  0  0  0
 13 39  1  0  0  0  0
 14 17  1  0  0  0  0
 14 41  1  0  0  0  0
 14 42  1  0  0  0  0
 15 18  1  0  0  0  0
 15 43  1  0  0  0  0
 16 19  2  0  0  0  0
 16 44  1  0  0  0  0
 17 21  1  0  0  0  0
 17 45  1  0  0  0  0
 17 46  1  0  0  0  0
 18 20  2  0  0  0  0
 18 47  1  0  0  0  0
 19 20  1  0  0  0  0
 19 48  1  0  0  0  0
 22 23  1  0  0  0  0
 22 24  2  0  0  0  0
 23 25  2  0  0  0  0
 24 26  1  0  0  0  0
 24 49  1  0  0  0  0
 25 27  1  0  0  0  0
 25 50  1  0  0  0  0
 26 27  2  0  0  0  0
 26 51  1  0  0  0  0
 27 52  1  0  0  0  0
M  END
> <PUBCHEM_COMPOUND_CID>
127051863

> <PUBCHEM_COMPOUND_CANONICALIZED>
1

> <PUBCHEM_CACTVS_COMPLEXITY>
461

> <PUBCHEM_CACTVS_HBOND_ACCEPTOR>
4

> <PUBCHEM_CACTVS_HBOND_DONOR>
1

> <PUBCHEM_CACTVS_ROTATABLE_BOND>
6

> <PUBCHEM_CACTVS_SUBSKEYS>
AAADceB7MAAEAAAAAAAAAAAAAAAAAWAAAAA8YIAAAAAAAFgB9AAAHgIACAAADE7BniQwxrMIFkCoA6VyVASCiCAvZyAImCG/btgOJrLFt7uPeSjmxBHY+YeY2eIOhAAAAAAAEAAIAAAAAAAgAAAAAAAAAA==

> <PUBCHEM_IUPAC_OPENEYE_NAME>
1-[4-(1,3-benzoxazol-2-yl)butyl]-4-(4-chlorophenyl)piperidin-4-ol

> <PUBCHEM_IUPAC_CAS_NAME>
1-[4-(1,3-benzoxazol-2-yl)butyl]-4-(4-chlorophenyl)-4-piperidinol

> <PUBCHEM_IUPAC_NAME_MARKUP>
1-[4-(1,3-benzoxazol-2-yl)butyl]-4-(4-chlorophenyl)piperidin-4-ol

> <PUBCHEM_IUPAC_NAME>
1-[4-(1,3-benzoxazol-2-yl)butyl]-4-(4-chlorophenyl)piperidin-4-ol

> <PUBCHEM_IUPAC_SYSTEMATIC_NAME>
1-[4-(1,3-benzoxazol-2-yl)butyl]-4-(4-chlorophenyl)piperidin-4-ol

> <PUBCHEM_IUPAC_TRADITIONAL_NAME>
1-[4-(1,3-benzoxazol-2-yl)butyl]-4-(4-chlorophenyl)piperidin-4-ol

> <PUBCHEM_IUPAC_INCHI>
InChI=1S/C22H25ClN2O2/c23-18-10-8-17(9-11-18)22(26)12-15-25(16-13-22)14-4-3-7-21-24-19-5-1-2-6-20(19)27-21/h1-2,5-6,8-11,26H,3-4,7,12-16H2

> <PUBCHEM_IUPAC_INCHIKEY>
KGFWRFDEYGDLSQ-UHFFFAOYSA-N

> <PUBCHEM_XLOGP3_AA>
4.6

> <PUBCHEM_EXACT_MASS>
384.1604557

> <PUBCHEM_MOLECULAR_FORMULA>
C22H25ClN2O2

> <PUBCHEM_MOLECULAR_WEIGHT>
384.9

> <PUBCHEM_OPENEYE_CAN_SMILES>
C1CN(CCC1(C2=CC=C(C=C2)Cl)O)CCCCC3=NC4=CC=CC=C4O3

> <PUBCHEM_OPENEYE_ISO_SMILES>
C1CN(CCC1(C2=CC=C(C=C2)Cl)O)CCCCC3=NC4=CC=CC=C4O3

> <PUBCHEM_CACTVS_TPSA>
49.5

> <PUBCHEM_MONOISOTOPIC_WEIGHT>
384.1604557

> <PUBCHEM_TOTAL_CHARGE>
0

> <PUBCHEM_HEAVY_ATOM_COUNT>
27

> <PUBCHEM_ATOM_DEF_STEREO_COUNT>
0

> <PUBCHEM_ATOM_UDEF_STEREO_COUNT>
0

> <PUBCHEM_BOND_DEF_STEREO_COUNT>
0

> <PUBCHEM_BOND_UDEF_STEREO_COUNT>
0

> <PUBCHEM_ISOTOPIC_ATOM_COUNT>
0

> <PUBCHEM_COMPONENT_COUNT>
1

> <PUBCHEM_CACTVS_TAUTO_COUNT>
-1

> <PUBCHEM_COORDINATE_TYPE>
1
5
255

> <PUBCHEM_BONDANNOTATIONS>
12  15  8
12  16  8
15  18  8
16  19  8
18  20  8
19  20  8
22  23  8
22  24  8
23  25  8
24  26  8
25  27  8
26  27  8
3  21  8
3  22  8
5  21  8
5  23  8

$$$$
