16049029
  -OEChem-09292322072D

 64 67  0     1  0  0  0  0  0999 V2000
    3.5836   -4.5576    0.0000 S   0  0  0  0  0  0  0  0  0  0  0  0
    4.5298   -2.8623    0.0000 O   0  0  0  0  0  0  0  0  0  0  0  0
    7.9939    1.1377    0.0000 O   0  0  0  0  0  0  0  0  0  0  0  0
    9.7260    3.1377    0.0000 O   0  0  0  0  0  0  0  0  0  0  0  0
    5.3958   -7.3623    0.0000 O   0  0  0  0  0  0  0  0  0  0  0  0
    2.0000   -5.3623    0.0000 O   0  0  0  0  0  0  0  0  0  0  0  0
    6.2619   -1.8623    0.0000 N   0  0  0  0  0  0  0  0  0  0  0  0
    3.5836   -6.1671    0.0000 N   0  0  0  0  0  0  0  0  0  0  0  0
    5.3958   -3.3623    0.0000 C   0  0  1  0  0  0  0  0  0  0  0  0
    6.2619   -2.8623    0.0000 C   0  0  0  0  0  0  0  0  0  0  0  0
    5.3958   -4.3623    0.0000 C   0  0  0  0  0  0  0  0  0  0  0  0
    7.1279   -1.3623    0.0000 C   0  0  0  0  0  0  0  0  0  0  0  0
    4.5298   -4.8623    0.0000 C   0  0  0  0  0  0  0  0  0  0  0  0
    7.1279   -0.3623    0.0000 C   0  0  0  0  0  0  0  0  0  0  0  0
    4.5298   -5.8623    0.0000 C   0  0  0  0  0  0  0  0  0  0  0  0
    6.2619   -4.8623    0.0000 C   0  0  0  0  0  0  0  0  0  0  0  0
    7.9939    0.1377    0.0000 C   0  0  0  0  0  0  0  0  0  0  0  0
   10.5920    5.6377    0.0000 C   0  0  0  0  0  0  0  0  0  0  0  0
   10.5920    4.6377    0.0000 C   0  0  0  0  0  0  0  0  0  0  0  0
    5.3958   -6.3623    0.0000 C   0  0  0  0  0  0  0  0  0  0  0  0
   11.4580    6.1377    0.0000 C   0  0  0  0  0  0  0  0  0  0  0  0
    6.2619   -5.8623    0.0000 C   0  0  0  0  0  0  0  0  0  0  0  0
    9.7260    4.1377    0.0000 C   0  0  0  0  0  0  0  0  0  0  0  0
   11.4580    7.1377    0.0000 C   0  0  0  0  0  0  0  0  0  0  0  0
    8.8600    1.6377    0.0000 C   0  0  0  0  0  0  0  0  0  0  0  0
    8.8600    2.6377    0.0000 C   0  0  0  0  0  0  0  0  0  0  0  0
    3.0000   -5.3623    0.0000 C   0  0  0  0  0  0  0  0  0  0  0  0
    9.7260    6.1377    0.0000 C   0  0  0  0  0  0  0  0  0  0  0  0
   12.3520    5.6030    0.0000 C   0  0  0  0  0  0  0  0  0  0  0  0
   10.5920    7.6377    0.0000 C   0  0  0  0  0  0  0  0  0  0  0  0
    9.7260    7.1377    0.0000 C   0  0  0  0  0  0  0  0  0  0  0  0
   12.3520    7.6723    0.0000 C   0  0  0  0  0  0  0  0  0  0  0  0
   13.2580    6.1168    0.0000 C   0  0  0  0  0  0  0  0  0  0  0  0
   13.2580    7.1585    0.0000 C   0  0  0  0  0  0  0  0  0  0  0  0
    4.8589   -3.6723    0.0000 H   0  0  0  0  0  0  0  0  0  0  0  0
    6.4739   -3.4449    0.0000 H   0  0  0  0  0  0  0  0  0  0  0  0
    6.8725   -2.7547    0.0000 H   0  0  0  0  0  0  0  0  0  0  0  0
    7.3400   -1.9449    0.0000 H   0  0  0  0  0  0  0  0  0  0  0  0
    7.7385   -1.2547    0.0000 H   0  0  0  0  0  0  0  0  0  0  0  0
    5.7249   -1.5523    0.0000 H   0  0  0  0  0  0  0  0  0  0  0  0
    6.9158    0.2203    0.0000 H   0  0  0  0  0  0  0  0  0  0  0  0
    6.5173   -0.4700    0.0000 H   0  0  0  0  0  0  0  0  0  0  0  0
    6.7988   -4.5523    0.0000 H   0  0  0  0  0  0  0  0  0  0  0  0
    8.2060   -0.4449    0.0000 H   0  0  0  0  0  0  0  0  0  0  0  0
    8.6045    0.2453    0.0000 H   0  0  0  0  0  0  0  0  0  0  0  0
   10.8041    4.0551    0.0000 H   0  0  0  0  0  0  0  0  0  0  0  0
   11.2026    4.7453    0.0000 H   0  0  0  0  0  0  0  0  0  0  0  0
    6.7988   -6.1723    0.0000 H   0  0  0  0  0  0  0  0  0  0  0  0
    9.5139    4.7203    0.0000 H   0  0  0  0  0  0  0  0  0  0  0  0
    9.1154    4.0300    0.0000 H   0  0  0  0  0  0  0  0  0  0  0  0
    3.3910   -6.7564    0.0000 H   0  0  0  0  0  0  0  0  0  0  0  0
    4.5298   -2.2423    0.0000 H   0  0  0  0  0  0  0  0  0  0  0  0
    9.0720    1.0551    0.0000 H   0  0  0  0  0  0  0  0  0  0  0  0
    9.4705    1.7453    0.0000 H   0  0  0  0  0  0  0  0  0  0  0  0
    8.6479    3.2203    0.0000 H   0  0  0  0  0  0  0  0  0  0  0  0
    8.2494    2.5300    0.0000 H   0  0  0  0  0  0  0  0  0  0  0  0
    9.1890    5.8277    0.0000 H   0  0  0  0  0  0  0  0  0  0  0  0
   12.3448    4.9831    0.0000 H   0  0  0  0  0  0  0  0  0  0  0  0
   10.5920    8.2577    0.0000 H   0  0  0  0  0  0  0  0  0  0  0  0
    9.1890    7.4477    0.0000 H   0  0  0  0  0  0  0  0  0  0  0  0
   12.3448    8.2923    0.0000 H   0  0  0  0  0  0  0  0  0  0  0  0
   13.7938    5.8048    0.0000 H   0  0  0  0  0  0  0  0  0  0  0  0
   13.7938    7.4706    0.0000 H   0  0  0  0  0  0  0  0  0  0  0  0
    5.9328   -7.6723    0.0000 H   0  0  0  0  0  0  0  0  0  0  0  0
  1 13  1  0  0  0  0
  1 27  1  0  0  0  0
  9  2  1  1  0  0  0
  2 52  1  0  0  0  0
  3 17  1  0  0  0  0
  3 25  1  0  0  0  0
  4 23  1  0  0  0  0
  4 26  1  0  0  0  0
  5 20  1  0  0  0  0
  5 64  1  0  0  0  0
  6 27  2  0  0  0  0
  7 10  1  0  0  0  0
  7 12  1  0  0  0  0
  7 40  1  0  0  0  0
  8 15  1  0  0  0  0
  8 27  1  0  0  0  0
  8 51  1  0  0  0  0
  9 10  1  0  0  0  0
  9 11  1  0  0  0  0
  9 35  1  0  0  0  0
 10 36  1  0  0  0  0
 10 37  1  0  0  0  0
 11 13  2  0  0  0  0
 11 16  1  0  0  0  0
 12 14  1  0  0  0  0
 12 38  1  0  0  0  0
 12 39  1  0  0  0  0
 13 15  1  0  0  0  0
 14 17  1  0  0  0  0
 14 41  1  0  0  0  0
 14 42  1  0  0  0  0
 15 20  2  0  0  0  0
 16 22  2  0  0  0  0
 16 43  1  0  0  0  0
 17 44  1  0  0  0  0
 17 45  1  0  0  0  0
 18 19  1  0  0  0  0
 18 21  1  0  0  0  0
 18 28  2  0  0  0  0
 19 23  1  0  0  0  0
 19 46  1  0  0  0  0
 19 47  1  0  0  0  0
 20 22  1  0  0  0  0
 21 24  1  0  0  0  0
 21 29  2  0  0  0  0
 22 48  1  0  0  0  0
 23 49  1  0  0  0  0
 23 50  1  0  0  0  0
 24 30  1  0  0  0  0
 24 32  2  0  0  0  0
 25 26  1  0  0  0  0
 25 53  1  0  0  0  0
 25 54  1  0  0  0  0
 26 55  1  0  0  0  0
 26 56  1  0  0  0  0
 28 31  1  0  0  0  0
 28 57  1  0  0  0  0
 29 33  1  0  0  0  0
 29 58  1  0  0  0  0
 30 31  2  0  0  0  0
 30 59  1  0  0  0  0
 31 60  1  0  0  0  0
 32 34  1  0  0  0  0
 32 61  1  0  0  0  0
 33 34  2  0  0  0  0
 33 62  1  0  0  0  0
 34 63  1  0  0  0  0
M  END
> <PUBCHEM_COMPOUND_CID>
16049029

> <PUBCHEM_COMPOUND_CANONICALIZED>
1

> <PUBCHEM_CACTVS_COMPLEXITY>
626

> <PUBCHEM_CACTVS_HBOND_ACCEPTOR>
7

> <PUBCHEM_CACTVS_HBOND_DONOR>
4

> <PUBCHEM_CACTVS_ROTATABLE_BOND>
13

> <PUBCHEM_CACTVS_SUBSKEYS>
AAADceB7OABAAAAAAAAAAAAAAAAAAWAAAAAwYMAAAAAAAFjBVAAAHgQQCAAADBzh2AYwx8LABgiIAiRCUACCAABhKBAIiJQPTIgLNiLykZOGcAhm1BHa2Aew4PQOoAACRAAUEQBAAASIACgiAAAAAAAAAA==

> <PUBCHEM_IUPAC_OPENEYE_NAME>
4-hydroxy-7-[(1R)-1-hydroxy-2-[3-[2-[2-(1-naphthyl)ethoxy]ethoxy]propylamino]ethyl]-3H-1,3-benzothiazol-2-one

> <PUBCHEM_IUPAC_CAS_NAME>
4-hydroxy-7-[(1R)-1-hydroxy-2-[3-[2-[2-(1-naphthalenyl)ethoxy]ethoxy]propylamino]ethyl]-3H-1,3-benzothiazol-2-one

> <PUBCHEM_IUPAC_NAME_MARKUP>
4-hydroxy-7-[(1<I>R</I>)-1-hydroxy-2-[3-[2-(2-naphthalen-1-ylethoxy)ethoxy]propylamino]ethyl]-3<I>H</I>-1,3-benzothiazol-2-one

> <PUBCHEM_IUPAC_NAME>
4-hydroxy-7-[(1R)-1-hydroxy-2-[3-[2-(2-naphthalen-1-ylethoxy)ethoxy]propylamino]ethyl]-3H-1,3-benzothiazol-2-one

> <PUBCHEM_IUPAC_SYSTEMATIC_NAME>
7-[(1R)-2-[3-[2-(2-naphthalen-1-ylethoxy)ethoxy]propylamino]-1-oxidanyl-ethyl]-4-oxidanyl-3H-1,3-benzothiazol-2-one

> <PUBCHEM_IUPAC_TRADITIONAL_NAME>
4-hydroxy-7-[(1R)-1-hydroxy-2-[3-[2-[2-(1-naphthyl)ethoxy]ethoxy]propylamino]ethyl]-3H-1,3-benzothiazol-2-one

> <PUBCHEM_IUPAC_INCHI>
InChI=1S/C26H30N2O5S/c29-22-10-9-21(25-24(22)28-26(31)34-25)23(30)17-27-12-4-13-32-15-16-33-14-11-19-7-3-6-18-5-1-2-8-20(18)19/h1-3,5-10,23,27,29-30H,4,11-17H2,(H,28,31)/t23-/m0/s1

> <PUBCHEM_IUPAC_INCHIKEY>
BYUSHVMTXZIAER-QHCPKHFHSA-N

> <PUBCHEM_XLOGP3_AA>
3.3

> <PUBCHEM_EXACT_MASS>
482.18754324

> <PUBCHEM_MOLECULAR_FORMULA>
C26H30N2O5S

> <PUBCHEM_MOLECULAR_WEIGHT>
482.6

> <PUBCHEM_OPENEYE_CAN_SMILES>
C1=CC=C2C(=C1)C=CC=C2CCOCCOCCCNCC(C3=C4C(=C(C=C3)O)NC(=O)S4)O

> <PUBCHEM_OPENEYE_ISO_SMILES>
C1=CC=C2C(=C1)C=CC=C2CCOCCOCCCNC[C@@H](C3=C4C(=C(C=C3)O)NC(=O)S4)O

> <PUBCHEM_CACTVS_TPSA>
125

> <PUBCHEM_MONOISOTOPIC_WEIGHT>
482.18754324

> <PUBCHEM_TOTAL_CHARGE>
0

> <PUBCHEM_HEAVY_ATOM_COUNT>
34

> <PUBCHEM_ATOM_DEF_STEREO_COUNT>
1

> <PUBCHEM_ATOM_UDEF_STEREO_COUNT>
0

> <PUBCHEM_BOND_DEF_STEREO_COUNT>
0

> <PUBCHEM_BOND_UDEF_STEREO_COUNT>
0

> <PUBCHEM_ISOTOPIC_ATOM_COUNT>
0

> <PUBCHEM_COMPONENT_COUNT>
1

> <PUBCHEM_CACTVS_TAUTO_COUNT>
-1

> <PUBCHEM_COORDINATE_TYPE>
1
5
255

> <PUBCHEM_BONDANNOTATIONS>
1  13  8
1  27  8
11  13  8
11  16  8
13  15  8
15  20  8
16  22  8
18  21  8
18  28  8
9  2  5
20  22  8
21  24  8
21  29  8
24  30  8
24  32  8
28  31  8
29  33  8
30  31  8
32  34  8
33  34  8
8  15  8
8  27  8

$$$$
