166626536
  -OEChem-09292322442D

 75 79  0     1  0  0  0  0  0999 V2000
   10.9150    2.3741    0.0000 Cl  0  0  0  0  0  0  0  0  0  0  0  0
   12.0042    4.0514    0.0000 Cl  0  0  0  0  0  0  0  0  0  0  0  0
    3.0723    2.9548    0.0000 O   0  0  0  0  0  0  0  0  0  0  0  0
    6.0370   -4.4295    0.0000 O   0  0  0  0  0  0  0  0  0  0  0  0
    4.5723    2.0888    0.0000 O   0  0  0  0  0  0  0  0  0  0  0  0
    5.7405   -0.8236    0.0000 N   0  0  3  0  0  0  0  0  0  0  0  0
    7.8284    0.8014    0.0000 N   0  0  0  0  0  0  0  0  0  0  0  0
    8.9177    2.4788    0.0000 N   0  0  0  0  0  0  0  0  0  0  0  0
    4.0501   -1.5918    0.0000 C   0  0  1  0  0  0  0  0  0  0  0  0
    4.3089   -0.6259    0.0000 C   0  0  2  0  0  0  0  0  0  0  0  0
    3.5723    0.3567    0.0000 C   0  0  0  0  0  0  0  0  0  0  0  0
    2.8290   -2.4575    0.0000 C   0  0  0  0  0  0  0  0  0  0  0  0
    5.3217   -2.3865    0.0000 C   0  0  0  0  0  0  0  0  0  0  0  0
    2.2756   -0.9371    0.0000 C   0  0  0  0  0  0  0  0  0  0  0  0
    2.0000   -1.8983    0.0000 C   0  0  0  0  0  0  0  0  0  0  0  0
    6.0989   -1.7572    0.0000 C   0  0  0  0  0  0  0  0  0  0  0  0
    4.1373   -2.5880    0.0000 C   0  0  0  0  0  0  0  0  0  0  0  0
    6.2852    0.0151    0.0000 C   0  0  0  0  0  0  0  0  0  0  0  0
    3.0723    1.2227    0.0000 C   0  0  0  0  0  0  0  0  0  0  0  0
    7.2838   -0.0372    0.0000 C   0  0  0  0  0  0  0  0  0  0  0  0
    5.0435   -3.0107    0.0000 C   0  0  0  0  0  0  0  0  0  0  0  0
    3.3181   -3.1616    0.0000 C   0  0  0  0  0  0  0  0  0  0  0  0
    3.5723    2.0888    0.0000 C   0  0  0  0  0  0  0  0  0  0  0  0
    8.8271    0.7491    0.0000 C   0  0  0  0  0  0  0  0  0  0  0  0
    7.3744    1.6924    0.0000 C   0  0  0  0  0  0  0  0  0  0  0  0
    5.1307   -4.0068    0.0000 C   0  0  0  0  0  0  0  0  0  0  0  0
    3.4052   -4.1578    0.0000 C   0  0  0  0  0  0  0  0  0  0  0  0
    9.3717    1.5878    0.0000 C   0  0  0  0  0  0  0  0  0  0  0  0
    7.9191    2.5311    0.0000 C   0  0  0  0  0  0  0  0  0  0  0  0
    4.3116   -4.5804    0.0000 C   0  0  0  0  0  0  0  0  0  0  0  0
    9.4624    3.3174    0.0000 C   0  0  0  0  0  0  0  0  0  0  0  0
    3.5723    3.8208    0.0000 C   0  0  0  0  0  0  0  0  0  0  0  0
   10.4610    3.2651    0.0000 C   0  0  0  0  0  0  0  0  0  0  0  0
    9.0084    4.2084    0.0000 C   0  0  0  0  0  0  0  0  0  0  0  0
    3.0723    4.6868    0.0000 C   0  0  0  0  0  0  0  0  0  0  0  0
   11.0056    4.1038    0.0000 C   0  0  0  0  0  0  0  0  0  0  0  0
    9.5530    5.0471    0.0000 C   0  0  0  0  0  0  0  0  0  0  0  0
   10.5516    4.9948    0.0000 C   0  0  0  0  0  0  0  0  0  0  0  0
    4.5289    0.1951    0.0000 H   0  0  0  0  0  0  0  0  0  0  0  0
    2.4232   -2.9262    0.0000 H   0  0  0  0  0  0  0  0  0  0  0  0
    3.2457   -2.9166    0.0000 H   0  0  0  0  0  0  0  0  0  0  0  0
    4.9372   -2.8728    0.0000 H   0  0  0  0  0  0  0  0  0  0  0  0
    5.7627   -2.8223    0.0000 H   0  0  0  0  0  0  0  0  0  0  0  0
    2.2706   -0.3171    0.0000 H   0  0  0  0  0  0  0  0  0  0  0  0
    1.6613   -0.8533    0.0000 H   0  0  0  0  0  0  0  0  0  0  0  0
    1.4252   -1.6661    0.0000 H   0  0  0  0  0  0  0  0  0  0  0  0
    1.7089   -2.4457    0.0000 H   0  0  0  0  0  0  0  0  0  0  0  0
    6.4366   -2.2771    0.0000 H   0  0  0  0  0  0  0  0  0  0  0  0
    6.6513   -1.4757    0.0000 H   0  0  0  0  0  0  0  0  0  0  0  0
    6.4246    0.6192    0.0000 H   0  0  0  0  0  0  0  0  0  0  0  0
    5.7144    0.2573    0.0000 H   0  0  0  0  0  0  0  0  0  0  0  0
    2.4523    1.2227    0.0000 H   0  0  0  0  0  0  0  0  0  0  0  0
    7.1443   -0.6414    0.0000 H   0  0  0  0  0  0  0  0  0  0  0  0
    7.8545   -0.2795    0.0000 H   0  0  0  0  0  0  0  0  0  0  0  0
    5.5514   -2.6550    0.0000 H   0  0  0  0  0  0  0  0  0  0  0  0
    2.7562   -2.8996    0.0000 H   0  0  0  0  0  0  0  0  0  0  0  0
    8.6876    0.1450    0.0000 H   0  0  0  0  0  0  0  0  0  0  0  0
    9.3978    0.5068    0.0000 H   0  0  0  0  0  0  0  0  0  0  0  0
    6.9210    2.1153    0.0000 H   0  0  0  0  0  0  0  0  0  0  0  0
    6.8793    1.3193    0.0000 H   0  0  0  0  0  0  0  0  0  0  0  0
    2.8974   -4.5134    0.0000 H   0  0  0  0  0  0  0  0  0  0  0  0
    9.8251    1.1649    0.0000 H   0  0  0  0  0  0  0  0  0  0  0  0
    9.8668    1.9609    0.0000 H   0  0  0  0  0  0  0  0  0  0  0  0
    8.0586    3.1352    0.0000 H   0  0  0  0  0  0  0  0  0  0  0  0
    7.3484    2.7734    0.0000 H   0  0  0  0  0  0  0  0  0  0  0  0
    4.3657   -5.1981    0.0000 H   0  0  0  0  0  0  0  0  0  0  0  0
    6.0910   -5.0471    0.0000 H   0  0  0  0  0  0  0  0  0  0  0  0
    4.0472    3.4223    0.0000 H   0  0  0  0  0  0  0  0  0  0  0  0
    4.0472    4.2193    0.0000 H   0  0  0  0  0  0  0  0  0  0  0  0
    8.3892    4.2409    0.0000 H   0  0  0  0  0  0  0  0  0  0  0  0
    3.6092    4.9968    0.0000 H   0  0  0  0  0  0  0  0  0  0  0  0
    2.7623    5.2238    0.0000 H   0  0  0  0  0  0  0  0  0  0  0  0
    2.5353    4.3768    0.0000 H   0  0  0  0  0  0  0  0  0  0  0  0
    9.2715    5.5995    0.0000 H   0  0  0  0  0  0  0  0  0  0  0  0
   10.8893    5.5148    0.0000 H   0  0  0  0  0  0  0  0  0  0  0  0
  1 33  1  0  0  0  0
  2 36  1  0  0  0  0
  3 23  1  0  0  0  0
  3 32  1  0  0  0  0
  4 26  1  0  0  0  0
  4 67  1  0  0  0  0
  5 23  2  0  0  0  0
  6 10  1  0  0  0  0
  6 16  1  0  0  0  0
  6 18  1  0  0  0  0
  7 20  1  0  0  0  0
  7 24  1  0  0  0  0
  7 25  1  0  0  0  0
  8 28  1  0  0  0  0
  8 29  1  0  0  0  0
  8 31  1  0  0  0  0
  9 11  1  0  0  0  0
  9 12  1  0  0  0  0
  9 13  1  0  0  0  0
  9 17  1  1  0  0  0
 10 11  1  0  0  0  0
 10 14  1  0  0  0  0
 10 39  1  6  0  0  0
 11 19  2  0  0  0  0
 12 15  1  0  0  0  0
 12 40  1  0  0  0  0
 12 41  1  0  0  0  0
 13 16  1  0  0  0  0
 13 42  1  0  0  0  0
 13 43  1  0  0  0  0
 14 15  1  0  0  0  0
 14 44  1  0  0  0  0
 14 45  1  0  0  0  0
 15 46  1  0  0  0  0
 15 47  1  0  0  0  0
 16 48  1  0  0  0  0
 16 49  1  0  0  0  0
 17 21  2  0  0  0  0
 17 22  1  0  0  0  0
 18 20  1  0  0  0  0
 18 50  1  0  0  0  0
 18 51  1  0  0  0  0
 19 23  1  0  0  0  0
 19 52  1  0  0  0  0
 20 53  1  0  0  0  0
 20 54  1  0  0  0  0
 21 26  1  0  0  0  0
 21 55  1  0  0  0  0
 22 27  2  0  0  0  0
 22 56  1  0  0  0  0
 24 28  1  0  0  0  0
 24 57  1  0  0  0  0
 24 58  1  0  0  0  0
 25 29  1  0  0  0  0
 25 59  1  0  0  0  0
 25 60  1  0  0  0  0
 26 30  2  0  0  0  0
 27 30  1  0  0  0  0
 27 61  1  0  0  0  0
 28 62  1  0  0  0  0
 28 63  1  0  0  0  0
 29 64  1  0  0  0  0
 29 65  1  0  0  0  0
 30 66  1  0  0  0  0
 31 33  2  0  0  0  0
 31 34  1  0  0  0  0
 32 35  1  0  0  0  0
 32 68  1  0  0  0  0
 32 69  1  0  0  0  0
 33 36  1  0  0  0  0
 34 37  2  0  0  0  0
 34 70  1  0  0  0  0
 35 71  1  0  0  0  0
 35 72  1  0  0  0  0
 35 73  1  0  0  0  0
 36 38  2  0  0  0  0
 37 38  1  0  0  0  0
 37 74  1  0  0  0  0
 38 75  1  0  0  0  0
M  END
> <PUBCHEM_COMPOUND_CID>
166626536

> <PUBCHEM_COMPOUND_CANONICALIZED>
1

> <PUBCHEM_CACTVS_COMPLEXITY>
836

> <PUBCHEM_CACTVS_HBOND_ACCEPTOR>
6

> <PUBCHEM_CACTVS_HBOND_DONOR>
1

> <PUBCHEM_CACTVS_ROTATABLE_BOND>
8

> <PUBCHEM_CACTVS_SUBSKEYS>
AAADcfB7MAAGAAAAAAAAAAAAAAAAAAAAAAA8eMECAAAWAAABQAAAHgIACAAADi7hmCYyzoMABgCIAiTSSACCAAAhJwAIikAObsgIZiLDs5PWcAhkwBHI+QeQwPAPgAABAAIAABQAAAKABAAAKAAAAAAAAA==

> <PUBCHEM_IUPAC_OPENEYE_NAME>
ethyl (2Z)-2-[(1S,5S)-2-[2-[4-(2,3-dichlorophenyl)piperazin-1-yl]ethyl]-5-(3-hydroxyphenyl)-2-azabicyclo[3.3.1]nonan-9-ylidene]acetate

> <PUBCHEM_IUPAC_CAS_NAME>
(2Z)-2-[(1S,5S)-2-[2-[4-(2,3-dichlorophenyl)-1-piperazinyl]ethyl]-5-(3-hydroxyphenyl)-2-azabicyclo[3.3.1]nonan-9-ylidene]acetic acid ethyl ester

> <PUBCHEM_IUPAC_NAME_MARKUP>
ethyl (2<I>Z</I>)-2-[(1<I>S</I>,5<I>S</I>)-2-[2-[4-(2,3-dichlorophenyl)piperazin-1-yl]ethyl]-5-(3-hydroxyphenyl)-2-azabicyclo[3.3.1]nonan-9-ylidene]acetate

> <PUBCHEM_IUPAC_NAME>
ethyl (2Z)-2-[(1S,5S)-2-[2-[4-(2,3-dichlorophenyl)piperazin-1-yl]ethyl]-5-(3-hydroxyphenyl)-2-azabicyclo[3.3.1]nonan-9-ylidene]acetate

> <PUBCHEM_IUPAC_SYSTEMATIC_NAME>
ethyl (2Z)-2-[(1S,5S)-2-[2-[4-[2,3-bis(chloranyl)phenyl]piperazin-1-yl]ethyl]-5-(3-hydroxyphenyl)-2-azabicyclo[3.3.1]nonan-9-ylidene]ethanoate

> <PUBCHEM_IUPAC_TRADITIONAL_NAME>
(2Z)-2-[(1S,5S)-2-[2-[4-(2,3-dichlorophenyl)piperazino]ethyl]-5-(3-hydroxyphenyl)-2-azabicyclo[3.3.1]nonan-9-ylidene]acetic acid ethyl ester

> <PUBCHEM_IUPAC_INCHI>
InChI=1S/C30H37Cl2N3O3/c1-2-38-28(37)21-24-26-10-5-11-30(24,22-6-3-7-23(36)20-22)12-13-34(26)17-14-33-15-18-35(19-16-33)27-9-4-8-25(31)29(27)32/h3-4,6-9,20-21,26,36H,2,5,10-19H2,1H3/b24-21+/t26-,30-/m0/s1

> <PUBCHEM_IUPAC_INCHIKEY>
WRNFFYWAFMNDNY-XIAQDFCPSA-N

> <PUBCHEM_XLOGP3_AA>
5.8

> <PUBCHEM_EXACT_MASS>
557.2211974

> <PUBCHEM_MOLECULAR_FORMULA>
C30H37Cl2N3O3

> <PUBCHEM_MOLECULAR_WEIGHT>
558.5

> <PUBCHEM_OPENEYE_CAN_SMILES>
CCOC(=O)C=C1C2CCCC1(CCN2CCN3CCN(CC3)C4=C(C(=CC=C4)Cl)Cl)C5=CC(=CC=C5)O

> <PUBCHEM_OPENEYE_ISO_SMILES>
CCOC(=O)/C=C/1\[C@@H]2CCC[C@]1(CCN2CCN3CCN(CC3)C4=C(C(=CC=C4)Cl)Cl)C5=CC(=CC=C5)O

> <PUBCHEM_CACTVS_TPSA>
56.2

> <PUBCHEM_MONOISOTOPIC_WEIGHT>
557.2211974

> <PUBCHEM_TOTAL_CHARGE>
0

> <PUBCHEM_HEAVY_ATOM_COUNT>
38

> <PUBCHEM_ATOM_DEF_STEREO_COUNT>
2

> <PUBCHEM_ATOM_UDEF_STEREO_COUNT>
0

> <PUBCHEM_BOND_DEF_STEREO_COUNT>
1

> <PUBCHEM_BOND_UDEF_STEREO_COUNT>
0

> <PUBCHEM_ISOTOPIC_ATOM_COUNT>
0

> <PUBCHEM_COMPONENT_COUNT>
1

> <PUBCHEM_CACTVS_TAUTO_COUNT>
-1

> <PUBCHEM_COORDINATE_TYPE>
1
5
255

> <PUBCHEM_BONDANNOTATIONS>
10  39  6
17  21  8
17  22  8
21  26  8
22  27  8
26  30  8
27  30  8
31  33  8
31  34  8
33  36  8
34  37  8
36  38  8
37  38  8
9  17  5

$$$$
