3038495
  -OEChem-09292322102D

 62 65  0     0  0  0  0  0  0999 V2000
    2.8660    0.4827    0.0000 O   0  0  0  0  0  0  0  0  0  0  0  0
   11.5263   -0.5173    0.0000 O   0  0  0  0  0  0  0  0  0  0  0  0
    6.3301    0.4827    0.0000 N   0  0  0  0  0  0  0  0  0  0  0  0
    4.5981   -0.5173    0.0000 N   0  0  0  0  0  0  0  0  0  0  0  0
   10.6603    0.9827    0.0000 N   0  0  0  0  0  0  0  0  0  0  0  0
    5.4641    0.9827    0.0000 C   0  0  0  0  0  0  0  0  0  0  0  0
    6.3301   -0.5173    0.0000 C   0  0  0  0  0  0  0  0  0  0  0  0
    4.5981    0.4827    0.0000 C   0  0  0  0  0  0  0  0  0  0  0  0
    5.4641   -1.0173    0.0000 C   0  0  0  0  0  0  0  0  0  0  0  0
    7.1962    0.9827    0.0000 C   0  0  0  0  0  0  0  0  0  0  0  0
    8.0622    0.4827    0.0000 C   0  0  0  0  0  0  0  0  0  0  0  0
    3.7320   -1.0173    0.0000 C   0  0  0  0  0  0  0  0  0  0  0  0
    8.9282    0.9827    0.0000 C   0  0  0  0  0  0  0  0  0  0  0  0
    9.7942    0.4827    0.0000 C   0  0  0  0  0  0  0  0  0  0  0  0
    2.8660   -0.5173    0.0000 C   0  0  0  0  0  0  0  0  0  0  0  0
    3.7320   -2.0173    0.0000 C   0  0  0  0  0  0  0  0  0  0  0  0
    2.0000   -1.0173    0.0000 C   0  0  0  0  0  0  0  0  0  0  0  0
    2.8660   -2.5173    0.0000 C   0  0  0  0  0  0  0  0  0  0  0  0
    2.0000   -2.0173    0.0000 C   0  0  0  0  0  0  0  0  0  0  0  0
   11.5263    0.4827    0.0000 C   0  0  0  0  0  0  0  0  0  0  0  0
   12.3923    0.9827    0.0000 C   0  0  0  0  0  0  0  0  0  0  0  0
    2.0000    0.9827    0.0000 C   0  0  0  0  0  0  0  0  0  0  0  0
   13.2583    0.4827    0.0000 C   0  0  0  0  0  0  0  0  0  0  0  0
   14.1244    0.9827    0.0000 C   0  0  0  0  0  0  0  0  0  0  0  0
   12.3923    1.9827    0.0000 C   0  0  0  0  0  0  0  0  0  0  0  0
   14.1244    1.9827    0.0000 C   0  0  0  0  0  0  0  0  0  0  0  0
   13.2583    2.4827    0.0000 C   0  0  0  0  0  0  0  0  0  0  0  0
   15.0183    0.4480    0.0000 C   0  0  0  0  0  0  0  0  0  0  0  0
   15.0183    2.5173    0.0000 C   0  0  0  0  0  0  0  0  0  0  0  0
   15.9244    0.9619    0.0000 C   0  0  0  0  0  0  0  0  0  0  0  0
   15.9244    2.0035    0.0000 C   0  0  0  0  0  0  0  0  0  0  0  0
    5.8626    1.4576    0.0000 H   0  0  0  0  0  0  0  0  0  0  0  0
    5.0656    1.4576    0.0000 H   0  0  0  0  0  0  0  0  0  0  0  0
    6.5422   -1.0999    0.0000 H   0  0  0  0  0  0  0  0  0  0  0  0
    6.9407   -0.4097    0.0000 H   0  0  0  0  0  0  0  0  0  0  0  0
    4.3860    1.0653    0.0000 H   0  0  0  0  0  0  0  0  0  0  0  0
    3.9875    0.3750    0.0000 H   0  0  0  0  0  0  0  0  0  0  0  0
    5.0656   -1.4923    0.0000 H   0  0  0  0  0  0  0  0  0  0  0  0
    5.8626   -1.4923    0.0000 H   0  0  0  0  0  0  0  0  0  0  0  0
    7.5947    1.4576    0.0000 H   0  0  0  0  0  0  0  0  0  0  0  0
    6.7976    1.4576    0.0000 H   0  0  0  0  0  0  0  0  0  0  0  0
    7.6636    0.0077    0.0000 H   0  0  0  0  0  0  0  0  0  0  0  0
    8.4607    0.0077    0.0000 H   0  0  0  0  0  0  0  0  0  0  0  0
    9.3267    1.4576    0.0000 H   0  0  0  0  0  0  0  0  0  0  0  0
    8.5297    1.4576    0.0000 H   0  0  0  0  0  0  0  0  0  0  0  0
    9.3957    0.0077    0.0000 H   0  0  0  0  0  0  0  0  0  0  0  0
   10.1928    0.0077    0.0000 H   0  0  0  0  0  0  0  0  0  0  0  0
    4.2690   -2.3273    0.0000 H   0  0  0  0  0  0  0  0  0  0  0  0
   10.6603    1.6027    0.0000 H   0  0  0  0  0  0  0  0  0  0  0  0
    1.4631   -0.7073    0.0000 H   0  0  0  0  0  0  0  0  0  0  0  0
    2.8660   -3.1373    0.0000 H   0  0  0  0  0  0  0  0  0  0  0  0
    1.4631   -2.3273    0.0000 H   0  0  0  0  0  0  0  0  0  0  0  0
    2.3100    1.5196    0.0000 H   0  0  0  0  0  0  0  0  0  0  0  0
    1.4631    1.2927    0.0000 H   0  0  0  0  0  0  0  0  0  0  0  0
    1.6900    0.4457    0.0000 H   0  0  0  0  0  0  0  0  0  0  0  0
   13.2583   -0.1373    0.0000 H   0  0  0  0  0  0  0  0  0  0  0  0
   11.8554    2.2927    0.0000 H   0  0  0  0  0  0  0  0  0  0  0  0
   13.2583    3.1027    0.0000 H   0  0  0  0  0  0  0  0  0  0  0  0
   15.0111   -0.1720    0.0000 H   0  0  0  0  0  0  0  0  0  0  0  0
   15.0111    3.1373    0.0000 H   0  0  0  0  0  0  0  0  0  0  0  0
   16.4601    0.6498    0.0000 H   0  0  0  0  0  0  0  0  0  0  0  0
   16.4601    2.3156    0.0000 H   0  0  0  0  0  0  0  0  0  0  0  0
  1 15  1  0  0  0  0
  1 22  1  0  0  0  0
  2 20  2  0  0  0  0
  3  6  1  0  0  0  0
  3  7  1  0  0  0  0
  3 10  1  0  0  0  0
  4  8  1  0  0  0  0
  4  9  1  0  0  0  0
  4 12  1  0  0  0  0
  5 14  1  0  0  0  0
  5 20  1  0  0  0  0
  5 49  1  0  0  0  0
  6  8  1  0  0  0  0
  6 32  1  0  0  0  0
  6 33  1  0  0  0  0
  7  9  1  0  0  0  0
  7 34  1  0  0  0  0
  7 35  1  0  0  0  0
  8 36  1  0  0  0  0
  8 37  1  0  0  0  0
  9 38  1  0  0  0  0
  9 39  1  0  0  0  0
 10 11  1  0  0  0  0
 10 40  1  0  0  0  0
 10 41  1  0  0  0  0
 11 13  1  0  0  0  0
 11 42  1  0  0  0  0
 11 43  1  0  0  0  0
 12 15  1  0  0  0  0
 12 16  2  0  0  0  0
 13 14  1  0  0  0  0
 13 44  1  0  0  0  0
 13 45  1  0  0  0  0
 14 46  1  0  0  0  0
 14 47  1  0  0  0  0
 15 17  2  0  0  0  0
 16 18  1  0  0  0  0
 16 48  1  0  0  0  0
 17 19  1  0  0  0  0
 17 50  1  0  0  0  0
 18 19  2  0  0  0  0
 18 51  1  0  0  0  0
 19 52  1  0  0  0  0
 20 21  1  0  0  0  0
 21 23  2  0  0  0  0
 21 25  1  0  0  0  0
 22 53  1  0  0  0  0
 22 54  1  0  0  0  0
 22 55  1  0  0  0  0
 23 24  1  0  0  0  0
 23 56  1  0  0  0  0
 24 26  1  0  0  0  0
 24 28  2  0  0  0  0
 25 27  2  0  0  0  0
 25 57  1  0  0  0  0
 26 27  1  0  0  0  0
 26 29  2  0  0  0  0
 27 58  1  0  0  0  0
 28 30  1  0  0  0  0
 28 59  1  0  0  0  0
 29 31  1  0  0  0  0
 29 60  1  0  0  0  0
 30 31  2  0  0  0  0
 30 61  1  0  0  0  0
 31 62  1  0  0  0  0
M  END
> <PUBCHEM_COMPOUND_CID>
3038495

> <PUBCHEM_COMPOUND_CANONICALIZED>
1

> <PUBCHEM_CACTVS_COMPLEXITY>
549

> <PUBCHEM_CACTVS_HBOND_ACCEPTOR>
4

> <PUBCHEM_CACTVS_HBOND_DONOR>
1

> <PUBCHEM_CACTVS_ROTATABLE_BOND>
8

> <PUBCHEM_CACTVS_SUBSKEYS>
AAADceB7MAAAAAAAAAAAAAAAAAAAAAAAAAA8YMEAAAAAAADBVAAAHgAQAAAADAzBmAYyxsPABACIAiVSUACCCAAlIgAIiIEPbMgOZjLEtZuVMShk1hHY6YeYyMCOwAACAAAQEACAAAQAACAgAAAAAAAAAA==

> <PUBCHEM_IUPAC_OPENEYE_NAME>
N-[4-[4-(2-methoxyphenyl)piperazin-1-yl]butyl]naphthalene-2-carboxamide

> <PUBCHEM_IUPAC_CAS_NAME>
N-[4-[4-(2-methoxyphenyl)-1-piperazinyl]butyl]-2-naphthalenecarboxamide

> <PUBCHEM_IUPAC_NAME_MARKUP>
<I>N</I>-[4-[4-(2-methoxyphenyl)piperazin-1-yl]butyl]naphthalene-2-carboxamide

> <PUBCHEM_IUPAC_NAME>
N-[4-[4-(2-methoxyphenyl)piperazin-1-yl]butyl]naphthalene-2-carboxamide

> <PUBCHEM_IUPAC_SYSTEMATIC_NAME>
N-[4-[4-(2-methoxyphenyl)piperazin-1-yl]butyl]naphthalene-2-carboxamide

> <PUBCHEM_IUPAC_TRADITIONAL_NAME>
N-[4-[4-(2-methoxyphenyl)piperazino]butyl]-2-naphthamide

> <PUBCHEM_IUPAC_INCHI>
InChI=1S/C26H31N3O2/c1-31-25-11-5-4-10-24(25)29-18-16-28(17-19-29)15-7-6-14-27-26(30)23-13-12-21-8-2-3-9-22(21)20-23/h2-5,8-13,20H,6-7,14-19H2,1H3,(H,27,30)

> <PUBCHEM_IUPAC_INCHIKEY>
MNHDKMDLOJSCGN-UHFFFAOYSA-N

> <PUBCHEM_XLOGP3_AA>
4.8

> <PUBCHEM_EXACT_MASS>
417.24162724

> <PUBCHEM_MOLECULAR_FORMULA>
C26H31N3O2

> <PUBCHEM_MOLECULAR_WEIGHT>
417.5

> <PUBCHEM_OPENEYE_CAN_SMILES>
COC1=CC=CC=C1N2CCN(CC2)CCCCNC(=O)C3=CC4=CC=CC=C4C=C3

> <PUBCHEM_OPENEYE_ISO_SMILES>
COC1=CC=CC=C1N2CCN(CC2)CCCCNC(=O)C3=CC4=CC=CC=C4C=C3

> <PUBCHEM_CACTVS_TPSA>
44.8

> <PUBCHEM_MONOISOTOPIC_WEIGHT>
417.24162724

> <PUBCHEM_TOTAL_CHARGE>
0

> <PUBCHEM_HEAVY_ATOM_COUNT>
31

> <PUBCHEM_ATOM_DEF_STEREO_COUNT>
0

> <PUBCHEM_ATOM_UDEF_STEREO_COUNT>
0

> <PUBCHEM_BOND_DEF_STEREO_COUNT>
0

> <PUBCHEM_BOND_UDEF_STEREO_COUNT>
0

> <PUBCHEM_ISOTOPIC_ATOM_COUNT>
0

> <PUBCHEM_COMPONENT_COUNT>
1

> <PUBCHEM_CACTVS_TAUTO_COUNT>
-1

> <PUBCHEM_COORDINATE_TYPE>
1
5
255

> <PUBCHEM_BONDANNOTATIONS>
12  15  8
12  16  8
15  17  8
16  18  8
17  19  8
18  19  8
21  23  8
21  25  8
23  24  8
24  26  8
24  28  8
25  27  8
26  27  8
26  29  8
28  30  8
29  31  8
30  31  8

$$$$
