24901209
  -OEChem-09292322042D

 69 73  0     1  0  0  0  0  0999 V2000
   15.6945   -1.5403    0.0000 S   0  0  0  0  0  0  0  0  0  0  0  0
   14.7483    0.1550    0.0000 O   0  0  0  0  0  0  0  0  0  0  0  0
   13.8822   -4.3450    0.0000 O   0  0  0  0  0  0  0  0  0  0  0  0
   17.2781   -2.3450    0.0000 O   0  0  0  0  0  0  0  0  0  0  0  0
   13.0162    1.1550    0.0000 N   0  0  0  0  0  0  0  0  0  0  0  0
    4.1471    1.4571    0.0000 N   0  0  0  0  0  0  0  0  0  0  0  0
    7.8201    3.1550    0.0000 N   0  0  0  0  0  0  0  0  0  0  0  0
   15.6945   -3.1497    0.0000 N   0  0  0  0  0  0  0  0  0  0  0  0
    5.2220    2.6550    0.0000 C   0  0  0  0  0  0  0  0  0  0  0  0
    6.0880    3.1550    0.0000 C   0  0  0  0  0  0  0  0  0  0  0  0
    4.3142    3.0601    0.0000 C   0  0  0  0  0  0  0  0  0  0  0  0
   13.8822   -0.3450    0.0000 C   0  0  1  0  0  0  0  0  0  0  0  0
    6.9540    2.6550    0.0000 C   0  0  0  0  0  0  0  0  0  0  0  0
    3.6464    2.3158    0.0000 C   0  0  0  0  0  0  0  0  0  0  0  0
   13.0162    0.1550    0.0000 C   0  0  0  0  0  0  0  0  0  0  0  0
   12.1502    2.6550    0.0000 C   0  0  0  0  0  0  0  0  0  0  0  0
   12.1502    1.6550    0.0000 C   0  0  0  0  0  0  0  0  0  0  0  0
   13.8822   -1.3450    0.0000 C   0  0  0  0  0  0  0  0  0  0  0  0
    5.1189    1.6663    0.0000 C   0  0  0  0  0  0  0  0  0  0  0  0
    8.6861    2.6550    0.0000 C   0  0  0  0  0  0  0  0  0  0  0  0
   11.2842    3.1550    0.0000 C   0  0  0  0  0  0  0  0  0  0  0  0
    9.5521    3.1550    0.0000 C   0  0  0  0  0  0  0  0  0  0  0  0
    2.6678    2.5220    0.0000 C   0  0  0  0  0  0  0  0  0  0  0  0
   14.7483   -1.8450    0.0000 C   0  0  0  0  0  0  0  0  0  0  0  0
    4.0035    4.0106    0.0000 C   0  0  0  0  0  0  0  0  0  0  0  0
   10.4181    2.6550    0.0000 C   0  0  0  0  0  0  0  0  0  0  0  0
   14.7483   -2.8450    0.0000 C   0  0  0  0  0  0  0  0  0  0  0  0
   13.0162   -1.8450    0.0000 C   0  0  0  0  0  0  0  0  0  0  0  0
    2.3572    3.4726    0.0000 C   0  0  0  0  0  0  0  0  0  0  0  0
   11.2842    4.1550    0.0000 C   0  0  0  0  0  0  0  0  0  0  0  0
    3.0250    4.2168    0.0000 C   0  0  0  0  0  0  0  0  0  0  0  0
    9.5521    4.1550    0.0000 C   0  0  0  0  0  0  0  0  0  0  0  0
   13.8822   -3.3450    0.0000 C   0  0  0  0  0  0  0  0  0  0  0  0
    2.0000    1.7777    0.0000 C   0  0  0  0  0  0  0  0  0  0  0  0
   10.4181    4.6550    0.0000 C   0  0  0  0  0  0  0  0  0  0  0  0
   13.0162   -2.8450    0.0000 C   0  0  0  0  0  0  0  0  0  0  0  0
   16.2781   -2.3450    0.0000 C   0  0  0  0  0  0  0  0  0  0  0  0
    6.4865    3.6300    0.0000 H   0  0  0  0  0  0  0  0  0  0  0  0
    5.6895    3.6300    0.0000 H   0  0  0  0  0  0  0  0  0  0  0  0
   14.4192   -0.6550    0.0000 H   0  0  0  0  0  0  0  0  0  0  0  0
    6.5555    2.1800    0.0000 H   0  0  0  0  0  0  0  0  0  0  0  0
    7.3526    2.1800    0.0000 H   0  0  0  0  0  0  0  0  0  0  0  0
   12.4056    0.2627    0.0000 H   0  0  0  0  0  0  0  0  0  0  0  0
   12.8042   -0.4276    0.0000 H   0  0  0  0  0  0  0  0  0  0  0  0
   11.5396    1.7627    0.0000 H   0  0  0  0  0  0  0  0  0  0  0  0
   11.9381    1.0724    0.0000 H   0  0  0  0  0  0  0  0  0  0  0  0
   12.7608    2.5473    0.0000 H   0  0  0  0  0  0  0  0  0  0  0  0
   12.3622    3.2376    0.0000 H   0  0  0  0  0  0  0  0  0  0  0  0
    5.5804    1.2522    0.0000 H   0  0  0  0  0  0  0  0  0  0  0  0
   13.5531    1.4650    0.0000 H   0  0  0  0  0  0  0  0  0  0  0  0
    8.2876    2.1800    0.0000 H   0  0  0  0  0  0  0  0  0  0  0  0
    9.0846    2.1800    0.0000 H   0  0  0  0  0  0  0  0  0  0  0  0
    3.8969    0.8898    0.0000 H   0  0  0  0  0  0  0  0  0  0  0  0
    7.8201    3.7750    0.0000 H   0  0  0  0  0  0  0  0  0  0  0  0
    4.4176    4.4721    0.0000 H   0  0  0  0  0  0  0  0  0  0  0  0
   10.4181    2.0350    0.0000 H   0  0  0  0  0  0  0  0  0  0  0  0
   12.4793   -1.5350    0.0000 H   0  0  0  0  0  0  0  0  0  0  0  0
    1.7505    3.6004    0.0000 H   0  0  0  0  0  0  0  0  0  0  0  0
   11.8211    4.4650    0.0000 H   0  0  0  0  0  0  0  0  0  0  0  0
    2.8324    4.8062    0.0000 H   0  0  0  0  0  0  0  0  0  0  0  0
    9.0152    4.4650    0.0000 H   0  0  0  0  0  0  0  0  0  0  0  0
    1.5385    2.1918    0.0000 H   0  0  0  0  0  0  0  0  0  0  0  0
    1.5859    1.3163    0.0000 H   0  0  0  0  0  0  0  0  0  0  0  0
    2.4615    1.3637    0.0000 H   0  0  0  0  0  0  0  0  0  0  0  0
   10.4181    5.2750    0.0000 H   0  0  0  0  0  0  0  0  0  0  0  0
   12.4793   -3.1550    0.0000 H   0  0  0  0  0  0  0  0  0  0  0  0
   15.8871   -3.7390    0.0000 H   0  0  0  0  0  0  0  0  0  0  0  0
   14.7483    0.7750    0.0000 H   0  0  0  0  0  0  0  0  0  0  0  0
   13.3453   -4.6550    0.0000 H   0  0  0  0  0  0  0  0  0  0  0  0
  1 24  1  0  0  0  0
  1 37  1  0  0  0  0
 12  2  1  6  0  0  0
  2 68  1  0  0  0  0
  3 33  1  0  0  0  0
  3 69  1  0  0  0  0
  4 37  2  0  0  0  0
  5 15  1  0  0  0  0
  5 17  1  0  0  0  0
  5 50  1  0  0  0  0
  6 14  1  0  0  0  0
  6 19  1  0  0  0  0
  6 53  1  0  0  0  0
  7 13  1  0  0  0  0
  7 20  1  0  0  0  0
  7 54  1  0  0  0  0
  8 27  1  0  0  0  0
  8 37  1  0  0  0  0
  8 67  1  0  0  0  0
  9 10  1  0  0  0  0
  9 11  1  0  0  0  0
  9 19  2  0  0  0  0
 10 13  1  0  0  0  0
 10 38  1  0  0  0  0
 10 39  1  0  0  0  0
 11 14  1  0  0  0  0
 11 25  2  0  0  0  0
 12 15  1  0  0  0  0
 12 18  1  0  0  0  0
 12 40  1  0  0  0  0
 13 41  1  0  0  0  0
 13 42  1  0  0  0  0
 14 23  2  0  0  0  0
 15 43  1  0  0  0  0
 15 44  1  0  0  0  0
 16 17  1  0  0  0  0
 16 21  1  0  0  0  0
 16 47  1  0  0  0  0
 16 48  1  0  0  0  0
 17 45  1  0  0  0  0
 17 46  1  0  0  0  0
 18 24  2  0  0  0  0
 18 28  1  0  0  0  0
 19 49  1  0  0  0  0
 20 22  1  0  0  0  0
 20 51  1  0  0  0  0
 20 52  1  0  0  0  0
 21 26  2  0  0  0  0
 21 30  1  0  0  0  0
 22 26  1  0  0  0  0
 22 32  2  0  0  0  0
 23 29  1  0  0  0  0
 23 34  1  0  0  0  0
 24 27  1  0  0  0  0
 25 31  1  0  0  0  0
 25 55  1  0  0  0  0
 26 56  1  0  0  0  0
 27 33  2  0  0  0  0
 28 36  2  0  0  0  0
 28 57  1  0  0  0  0
 29 31  2  0  0  0  0
 29 58  1  0  0  0  0
 30 35  2  0  0  0  0
 30 59  1  0  0  0  0
 31 60  1  0  0  0  0
 32 35  1  0  0  0  0
 32 61  1  0  0  0  0
 33 36  1  0  0  0  0
 34 62  1  0  0  0  0
 34 63  1  0  0  0  0
 34 64  1  0  0  0  0
 35 65  1  0  0  0  0
 36 66  1  0  0  0  0
M  END
> <PUBCHEM_COMPOUND_CID>
24901209

> <PUBCHEM_COMPOUND_CANONICALIZED>
1

> <PUBCHEM_CACTVS_COMPLEXITY>
744

> <PUBCHEM_CACTVS_HBOND_ACCEPTOR>
6

> <PUBCHEM_CACTVS_HBOND_DONOR>
6

> <PUBCHEM_CACTVS_ROTATABLE_BOND>
11

> <PUBCHEM_CACTVS_SUBSKEYS>
AAADcfB7sABAAAAAAAAAAAAAAAAAAWLAAAAwYMAAAAAAAFgB9AAAHgQQCAAADBzh3gY+x/LJkgioAzRnVACCgCBxKDAI2bQvTJgKNuLykZOEcAhk1BHY2Aew4OQOoAACRAAGEQBAAASIAAwiAAAAAAAAAA==

> <PUBCHEM_IUPAC_OPENEYE_NAME>
4-hydroxy-7-[(1R)-1-hydroxy-2-[2-[3-[[2-(7-methyl-1H-indol-3-yl)ethylamino]methyl]phenyl]ethylamino]ethyl]-3H-1,3-benzothiazol-2-one

> <PUBCHEM_IUPAC_CAS_NAME>
4-hydroxy-7-[(1R)-1-hydroxy-2-[2-[3-[[2-(7-methyl-1H-indol-3-yl)ethylamino]methyl]phenyl]ethylamino]ethyl]-3H-1,3-benzothiazol-2-one

> <PUBCHEM_IUPAC_NAME_MARKUP>
4-hydroxy-7-[(1<I>R</I>)-1-hydroxy-2-[2-[3-[[2-(7-methyl-1<I>H</I>-indol-3-yl)ethylamino]methyl]phenyl]ethylamino]ethyl]-3<I>H</I>-1,3-benzothiazol-2-one

> <PUBCHEM_IUPAC_NAME>
4-hydroxy-7-[(1R)-1-hydroxy-2-[2-[3-[[2-(7-methyl-1H-indol-3-yl)ethylamino]methyl]phenyl]ethylamino]ethyl]-3H-1,3-benzothiazol-2-one

> <PUBCHEM_IUPAC_SYSTEMATIC_NAME>
7-[(1R)-2-[2-[3-[[2-(7-methyl-1H-indol-3-yl)ethylamino]methyl]phenyl]ethylamino]-1-oxidanyl-ethyl]-4-oxidanyl-3H-1,3-benzothiazol-2-one

> <PUBCHEM_IUPAC_TRADITIONAL_NAME>
4-hydroxy-7-[(1R)-1-hydroxy-2-[2-[3-[[2-(7-methyl-1H-indol-3-yl)ethylamino]methyl]phenyl]ethylamino]ethyl]-3H-1,3-benzothiazol-2-one

> <PUBCHEM_IUPAC_INCHI>
InChI=1S/C29H32N4O3S/c1-18-4-2-7-22-21(16-32-26(18)22)11-13-30-15-20-6-3-5-19(14-20)10-12-31-17-25(35)23-8-9-24(34)27-28(23)37-29(36)33-27/h2-9,14,16,25,30-32,34-35H,10-13,15,17H2,1H3,(H,33,36)/t25-/m0/s1

> <PUBCHEM_IUPAC_INCHIKEY>
RZAFGCJAAYEIMV-VWLOTQADSA-N

> <PUBCHEM_XLOGP3_AA>
3.8

> <PUBCHEM_EXACT_MASS>
516.21951207

> <PUBCHEM_MOLECULAR_FORMULA>
C29H32N4O3S

> <PUBCHEM_MOLECULAR_WEIGHT>
516.7

> <PUBCHEM_OPENEYE_CAN_SMILES>
CC1=C2C(=CC=C1)C(=CN2)CCNCC3=CC=CC(=C3)CCNCC(C4=C5C(=C(C=C4)O)NC(=O)S5)O

> <PUBCHEM_OPENEYE_ISO_SMILES>
CC1=C2C(=CC=C1)C(=CN2)CCNCC3=CC=CC(=C3)CCNC[C@@H](C4=C5C(=C(C=C4)O)NC(=O)S5)O

> <PUBCHEM_CACTVS_TPSA>
135

> <PUBCHEM_MONOISOTOPIC_WEIGHT>
516.21951207

> <PUBCHEM_TOTAL_CHARGE>
0

> <PUBCHEM_HEAVY_ATOM_COUNT>
37

> <PUBCHEM_ATOM_DEF_STEREO_COUNT>
1

> <PUBCHEM_ATOM_UDEF_STEREO_COUNT>
0

> <PUBCHEM_BOND_DEF_STEREO_COUNT>
0

> <PUBCHEM_BOND_UDEF_STEREO_COUNT>
0

> <PUBCHEM_ISOTOPIC_ATOM_COUNT>
0

> <PUBCHEM_COMPONENT_COUNT>
1

> <PUBCHEM_CACTVS_TAUTO_COUNT>
-1

> <PUBCHEM_COORDINATE_TYPE>
1
5
255

> <PUBCHEM_BONDANNOTATIONS>
1  24  8
1  37  8
11  14  8
11  25  8
14  23  8
18  24  8
18  28  8
12  2  6
21  26  8
21  30  8
22  26  8
22  32  8
23  29  8
24  27  8
25  31  8
27  33  8
28  36  8
29  31  8
30  35  8
32  35  8
33  36  8
6  14  8
6  19  8
8  27  8
8  37  8
9  11  8
9  19  8

$$$$
