46866711
  -OEChem-09292322072D

 59 62  0     1  0  0  0  0  0999 V2000
    8.0622   -0.0173    0.0000 S   0  0  0  0  0  0  0  0  0  0  0  0
    7.0622   -0.0173    0.0000 O   0  0  0  0  0  0  0  0  0  0  0  0
    9.0622   -0.0173    0.0000 O   0  0  0  0  0  0  0  0  0  0  0  0
    4.5981   -1.0173    0.0000 N   0  0  0  0  0  0  0  0  0  0  0  0
    2.8660   -0.0173    0.0000 N   0  0  0  0  0  0  0  0  0  0  0  0
    8.0622   -1.0173    0.0000 N   0  0  3  0  0  0  0  0  0  0  0  0
    4.5981   -0.0173    0.0000 C   0  0  0  0  0  0  0  0  0  0  0  0
    3.7320   -1.5173    0.0000 C   0  0  0  0  0  0  0  0  0  0  0  0
    3.7320    0.4827    0.0000 C   0  0  0  0  0  0  0  0  0  0  0  0
    2.8660   -1.0173    0.0000 C   0  0  0  0  0  0  0  0  0  0  0  0
    5.4641   -1.5173    0.0000 C   0  0  0  0  0  0  0  0  0  0  0  0
    8.9282   -1.5173    0.0000 C   0  0  0  0  0  0  0  0  0  0  0  0
    7.1962   -1.5173    0.0000 C   0  0  0  0  0  0  0  0  0  0  0  0
    6.3301   -1.0173    0.0000 C   0  0  0  0  0  0  0  0  0  0  0  0
    2.0000    0.4827    0.0000 C   0  0  0  0  0  0  0  0  0  0  0  0
    5.4641   -2.5173    0.0000 C   0  0  0  0  0  0  0  0  0  0  0  0
    8.0622    0.9827    0.0000 C   0  0  0  0  0  0  0  0  0  0  0  0
    7.1962   -2.5173    0.0000 C   0  0  0  0  0  0  0  0  0  0  0  0
    8.9282   -2.5173    0.0000 C   0  0  0  0  0  0  0  0  0  0  0  0
    9.7942   -1.0173    0.0000 C   0  0  0  0  0  0  0  0  0  0  0  0
    6.3301   -3.0173    0.0000 C   0  0  0  0  0  0  0  0  0  0  0  0
    8.9282    1.4827    0.0000 C   0  0  0  0  0  0  0  0  0  0  0  0
    7.1962    1.4827    0.0000 C   0  0  0  0  0  0  0  0  0  0  0  0
    8.9282    2.4827    0.0000 C   0  0  0  0  0  0  0  0  0  0  0  0
    9.8222    0.9480    0.0000 C   0  0  0  0  0  0  0  0  0  0  0  0
    7.1962    2.4827    0.0000 C   0  0  0  0  0  0  0  0  0  0  0  0
    8.0622    2.9827    0.0000 C   0  0  0  0  0  0  0  0  0  0  0  0
    9.8222    3.0173    0.0000 C   0  0  0  0  0  0  0  0  0  0  0  0
   10.7282    1.4619    0.0000 C   0  0  0  0  0  0  0  0  0  0  0  0
   10.7282    2.5035    0.0000 C   0  0  0  0  0  0  0  0  0  0  0  0
    5.2087   -0.1250    0.0000 H   0  0  0  0  0  0  0  0  0  0  0  0
    4.8101    0.5653    0.0000 H   0  0  0  0  0  0  0  0  0  0  0  0
    3.3335   -1.9923    0.0000 H   0  0  0  0  0  0  0  0  0  0  0  0
    4.1306   -1.9923    0.0000 H   0  0  0  0  0  0  0  0  0  0  0  0
    4.1306    0.9576    0.0000 H   0  0  0  0  0  0  0  0  0  0  0  0
    3.3335    0.9576    0.0000 H   0  0  0  0  0  0  0  0  0  0  0  0
    2.2554   -0.9097    0.0000 H   0  0  0  0  0  0  0  0  0  0  0  0
    2.6540   -1.5999    0.0000 H   0  0  0  0  0  0  0  0  0  0  0  0
    8.9282   -0.8973    0.0000 H   0  0  0  0  0  0  0  0  0  0  0  0
    6.3301   -0.3973    0.0000 H   0  0  0  0  0  0  0  0  0  0  0  0
    2.3100    1.0196    0.0000 H   0  0  0  0  0  0  0  0  0  0  0  0
    1.4631    0.7927    0.0000 H   0  0  0  0  0  0  0  0  0  0  0  0
    1.6900   -0.0543    0.0000 H   0  0  0  0  0  0  0  0  0  0  0  0
    4.9272   -2.8273    0.0000 H   0  0  0  0  0  0  0  0  0  0  0  0
    7.7331   -2.8273    0.0000 H   0  0  0  0  0  0  0  0  0  0  0  0
    8.3082   -2.5173    0.0000 H   0  0  0  0  0  0  0  0  0  0  0  0
    8.9282   -3.1373    0.0000 H   0  0  0  0  0  0  0  0  0  0  0  0
    9.5482   -2.5173    0.0000 H   0  0  0  0  0  0  0  0  0  0  0  0
   10.1042   -1.5543    0.0000 H   0  0  0  0  0  0  0  0  0  0  0  0
   10.3312   -0.7073    0.0000 H   0  0  0  0  0  0  0  0  0  0  0  0
    9.4842   -0.4804    0.0000 H   0  0  0  0  0  0  0  0  0  0  0  0
    6.3301   -3.6373    0.0000 H   0  0  0  0  0  0  0  0  0  0  0  0
    6.6592    1.1727    0.0000 H   0  0  0  0  0  0  0  0  0  0  0  0
    9.8150    0.3280    0.0000 H   0  0  0  0  0  0  0  0  0  0  0  0
    6.6592    2.7927    0.0000 H   0  0  0  0  0  0  0  0  0  0  0  0
    8.0622    3.6027    0.0000 H   0  0  0  0  0  0  0  0  0  0  0  0
    9.8150    3.6373    0.0000 H   0  0  0  0  0  0  0  0  0  0  0  0
   11.2639    1.1498    0.0000 H   0  0  0  0  0  0  0  0  0  0  0  0
   11.2639    2.8156    0.0000 H   0  0  0  0  0  0  0  0  0  0  0  0
  1  2  2  0  0  0  0
  1  3  2  0  0  0  0
  1  6  1  0  0  0  0
  1 17  1  0  0  0  0
  4  7  1  0  0  0  0
  4  8  1  0  0  0  0
  4 11  1  0  0  0  0
  5  9  1  0  0  0  0
  5 10  1  0  0  0  0
  5 15  1  0  0  0  0
  6 12  1  0  0  0  0
  6 13  1  0  0  0  0
  7  9  1  0  0  0  0
  7 31  1  0  0  0  0
  7 32  1  0  0  0  0
  8 10  1  0  0  0  0
  8 33  1  0  0  0  0
  8 34  1  0  0  0  0
  9 35  1  0  0  0  0
  9 36  1  0  0  0  0
 10 37  1  0  0  0  0
 10 38  1  0  0  0  0
 11 14  2  0  0  0  0
 11 16  1  0  0  0  0
 12 19  1  0  0  0  0
 12 20  1  0  0  0  0
 12 39  1  0  0  0  0
 13 14  1  0  0  0  0
 13 18  2  0  0  0  0
 14 40  1  0  0  0  0
 15 41  1  0  0  0  0
 15 42  1  0  0  0  0
 15 43  1  0  0  0  0
 16 21  2  0  0  0  0
 16 44  1  0  0  0  0
 17 22  1  0  0  0  0
 17 23  2  0  0  0  0
 18 21  1  0  0  0  0
 18 45  1  0  0  0  0
 19 46  1  0  0  0  0
 19 47  1  0  0  0  0
 19 48  1  0  0  0  0
 20 49  1  0  0  0  0
 20 50  1  0  0  0  0
 20 51  1  0  0  0  0
 21 52  1  0  0  0  0
 22 24  1  0  0  0  0
 22 25  2  0  0  0  0
 23 26  1  0  0  0  0
 23 53  1  0  0  0  0
 24 27  1  0  0  0  0
 24 28  2  0  0  0  0
 25 29  1  0  0  0  0
 25 54  1  0  0  0  0
 26 27  2  0  0  0  0
 26 55  1  0  0  0  0
 27 56  1  0  0  0  0
 28 30  1  0  0  0  0
 28 57  1  0  0  0  0
 29 30  2  0  0  0  0
 29 58  1  0  0  0  0
 30 59  1  0  0  0  0
M  END
> <PUBCHEM_COMPOUND_CID>
46866711

> <PUBCHEM_COMPOUND_CANONICALIZED>
1

> <PUBCHEM_CACTVS_COMPLEXITY>
654

> <PUBCHEM_CACTVS_HBOND_ACCEPTOR>
5

> <PUBCHEM_CACTVS_HBOND_DONOR>
0

> <PUBCHEM_CACTVS_ROTATABLE_BOND>
5

> <PUBCHEM_CACTVS_SUBSKEYS>
AAADceB7MABAAAAAAAAAAAAAAAAAAAAAAAA8YMEAAAAAAADBVAAAHAQAQAAADCjBWAQywcMAAAKAAiRCQHDCABAhAgAIiBgIZIgIYCLA0dGUIAhggADIyAcQgIAOgAAAgAQUAAAAAAEACCgAAAAAAAAAAA==

> <PUBCHEM_IUPAC_OPENEYE_NAME>
N-isopropyl-N-[3-(4-methylpiperazin-1-yl)phenyl]naphthalene-1-sulfonamide

> <PUBCHEM_IUPAC_CAS_NAME>
N-[3-(4-methyl-1-piperazinyl)phenyl]-N-propan-2-yl-1-naphthalenesulfonamide

> <PUBCHEM_IUPAC_NAME_MARKUP>
<I>N</I>-[3-(4-methylpiperazin-1-yl)phenyl]-<I>N</I>-propan-2-ylnaphthalene-1-sulfonamide

> <PUBCHEM_IUPAC_NAME>
N-[3-(4-methylpiperazin-1-yl)phenyl]-N-propan-2-ylnaphthalene-1-sulfonamide

> <PUBCHEM_IUPAC_SYSTEMATIC_NAME>
N-[3-(4-methylpiperazin-1-yl)phenyl]-N-propan-2-yl-naphthalene-1-sulfonamide

> <PUBCHEM_IUPAC_TRADITIONAL_NAME>
N-isopropyl-N-[3-(4-methylpiperazino)phenyl]naphthalene-1-sulfonamide

> <PUBCHEM_IUPAC_INCHI>
InChI=1S/C24H29N3O2S/c1-19(2)27(22-11-7-10-21(18-22)26-16-14-25(3)15-17-26)30(28,29)24-13-6-9-20-8-4-5-12-23(20)24/h4-13,18-19H,14-17H2,1-3H3

> <PUBCHEM_IUPAC_INCHIKEY>
VJSKWISJKOVRKJ-UHFFFAOYSA-N

> <PUBCHEM_XLOGP3_AA>
4.6

> <PUBCHEM_EXACT_MASS>
423.19804835

> <PUBCHEM_MOLECULAR_FORMULA>
C24H29N3O2S

> <PUBCHEM_MOLECULAR_WEIGHT>
423.6

> <PUBCHEM_OPENEYE_CAN_SMILES>
CC(C)N(C1=CC=CC(=C1)N2CCN(CC2)C)S(=O)(=O)C3=CC=CC4=CC=CC=C43

> <PUBCHEM_OPENEYE_ISO_SMILES>
CC(C)N(C1=CC=CC(=C1)N2CCN(CC2)C)S(=O)(=O)C3=CC=CC4=CC=CC=C43

> <PUBCHEM_CACTVS_TPSA>
52.2

> <PUBCHEM_MONOISOTOPIC_WEIGHT>
423.19804835

> <PUBCHEM_TOTAL_CHARGE>
0

> <PUBCHEM_HEAVY_ATOM_COUNT>
30

> <PUBCHEM_ATOM_DEF_STEREO_COUNT>
0

> <PUBCHEM_ATOM_UDEF_STEREO_COUNT>
0

> <PUBCHEM_BOND_DEF_STEREO_COUNT>
0

> <PUBCHEM_BOND_UDEF_STEREO_COUNT>
0

> <PUBCHEM_ISOTOPIC_ATOM_COUNT>
0

> <PUBCHEM_COMPONENT_COUNT>
1

> <PUBCHEM_CACTVS_TAUTO_COUNT>
-1

> <PUBCHEM_COORDINATE_TYPE>
1
5
255

> <PUBCHEM_BONDANNOTATIONS>
11  14  8
11  16  8
13  14  8
13  18  8
16  21  8
17  22  8
17  23  8
18  21  8
22  24  8
22  25  8
23  26  8
24  27  8
24  28  8
25  29  8
26  27  8
28  30  8
29  30  8

$$$$
