162651388
  -OEChem-09292322062D

 60 64  0     0  0  0  0  0  0999 V2000
    2.0000   -4.6323    0.0000 F   0  0  0  0  0  0  0  0  0  0  0  0
    9.8046    4.6323    0.0000 O   0  0  0  0  0  0  0  0  0  0  0  0
    5.5443   -4.4370    0.0000 O   0  0  0  0  0  0  0  0  0  0  0  0
    9.4118    0.6427    0.0000 O   0  0  0  0  0  0  0  0  0  0  0  0
    6.4763    0.0240    0.0000 N   0  0  0  0  0  0  0  0  0  0  0  0
    9.0546    2.3375    0.0000 N   0  0  0  0  0  0  0  0  0  0  0  0
    6.1279   -3.6323    0.0000 N   0  0  0  0  0  0  0  0  0  0  0  0
    5.8550   -1.8770    0.0000 C   0  0  0  0  0  0  0  0  0  0  0  0
    6.8335   -1.6708    0.0000 C   0  0  0  0  0  0  0  0  0  0  0  0
    5.1871   -1.1327    0.0000 C   0  0  0  0  0  0  0  0  0  0  0  0
    7.1441   -0.7203    0.0000 C   0  0  0  0  0  0  0  0  0  0  0  0
    5.4978   -0.1822    0.0000 C   0  0  0  0  0  0  0  0  0  0  0  0
    6.7870    0.9745    0.0000 C   0  0  0  0  0  0  0  0  0  0  0  0
    7.7654    1.1808    0.0000 C   0  0  0  0  0  0  0  0  0  0  0  0
    9.3653    3.2880    0.0000 C   0  0  0  0  0  0  0  0  0  0  0  0
    5.5443   -2.8275    0.0000 C   0  0  0  0  0  0  0  0  0  0  0  0
    8.0761    2.1313    0.0000 C   0  0  0  0  0  0  0  0  0  0  0  0
    8.9128    4.1798    0.0000 C   0  0  0  0  0  0  0  0  0  0  0  0
   10.2571    3.7405    0.0000 C   0  0  0  0  0  0  0  0  0  0  0  0
    4.5981   -3.1323    0.0000 C   0  0  0  0  0  0  0  0  0  0  0  0
    9.7225    1.5932    0.0000 C   0  0  0  0  0  0  0  0  0  0  0  0
    4.5981   -4.1323    0.0000 C   0  0  0  0  0  0  0  0  0  0  0  0
    3.7320   -2.6323    0.0000 C   0  0  0  0  0  0  0  0  0  0  0  0
   10.7010    1.7994    0.0000 C   0  0  0  0  0  0  0  0  0  0  0  0
    3.7320   -4.6323    0.0000 C   0  0  0  0  0  0  0  0  0  0  0  0
    2.8660   -3.1323    0.0000 C   0  0  0  0  0  0  0  0  0  0  0  0
    2.8660   -4.1323    0.0000 C   0  0  0  0  0  0  0  0  0  0  0  0
   11.3688    1.0551    0.0000 C   0  0  0  0  0  0  0  0  0  0  0  0
   11.0116    2.7499    0.0000 C   0  0  0  0  0  0  0  0  0  0  0  0
   12.3473    1.2613    0.0000 C   0  0  0  0  0  0  0  0  0  0  0  0
   11.9901    2.9562    0.0000 C   0  0  0  0  0  0  0  0  0  0  0  0
   12.6580    2.2119    0.0000 C   0  0  0  0  0  0  0  0  0  0  0  0
    6.2690   -2.3385    0.0000 H   0  0  0  0  0  0  0  0  0  0  0  0
    6.8540   -2.2904    0.0000 H   0  0  0  0  0  0  0  0  0  0  0  0
    7.4473   -1.7581    0.0000 H   0  0  0  0  0  0  0  0  0  0  0  0
    4.6402   -0.8407    0.0000 H   0  0  0  0  0  0  0  0  0  0  0  0
    4.8046   -1.6206    0.0000 H   0  0  0  0  0  0  0  0  0  0  0  0
    7.6910   -1.0123    0.0000 H   0  0  0  0  0  0  0  0  0  0  0  0
    7.5267   -0.2324    0.0000 H   0  0  0  0  0  0  0  0  0  0  0  0
    5.4772    0.4375    0.0000 H   0  0  0  0  0  0  0  0  0  0  0  0
    4.8840   -0.0948    0.0000 H   0  0  0  0  0  0  0  0  0  0  0  0
    6.7664    1.5942    0.0000 H   0  0  0  0  0  0  0  0  0  0  0  0
    6.1731    1.0619    0.0000 H   0  0  0  0  0  0  0  0  0  0  0  0
    7.7860    0.5611    0.0000 H   0  0  0  0  0  0  0  0  0  0  0  0
    8.3793    1.0934    0.0000 H   0  0  0  0  0  0  0  0  0  0  0  0
    9.8360    2.8846    0.0000 H   0  0  0  0  0  0  0  0  0  0  0  0
    8.0556    2.7510    0.0000 H   0  0  0  0  0  0  0  0  0  0  0  0
    7.4623    2.2186    0.0000 H   0  0  0  0  0  0  0  0  0  0  0  0
    8.6323    4.7327    0.0000 H   0  0  0  0  0  0  0  0  0  0  0  0
    8.3599    3.8993    0.0000 H   0  0  0  0  0  0  0  0  0  0  0  0
   10.5376    3.1876    0.0000 H   0  0  0  0  0  0  0  0  0  0  0  0
   10.8100    4.0210    0.0000 H   0  0  0  0  0  0  0  0  0  0  0  0
    3.7320   -2.0123    0.0000 H   0  0  0  0  0  0  0  0  0  0  0  0
    3.7320   -5.2523    0.0000 H   0  0  0  0  0  0  0  0  0  0  0  0
    2.3291   -2.8223    0.0000 H   0  0  0  0  0  0  0  0  0  0  0  0
   11.1762    0.4658    0.0000 H   0  0  0  0  0  0  0  0  0  0  0  0
   10.5976    3.2114    0.0000 H   0  0  0  0  0  0  0  0  0  0  0  0
   12.7614    0.7999    0.0000 H   0  0  0  0  0  0  0  0  0  0  0  0
   12.1827    3.5455    0.0000 H   0  0  0  0  0  0  0  0  0  0  0  0
   13.2647    2.3397    0.0000 H   0  0  0  0  0  0  0  0  0  0  0  0
  1 27  1  0  0  0  0
  2 18  1  0  0  0  0
  2 19  1  0  0  0  0
  3  7  1  0  0  0  0
  3 22  1  0  0  0  0
  4 21  2  0  0  0  0
  5 11  1  0  0  0  0
  5 12  1  0  0  0  0
  5 13  1  0  0  0  0
  6 15  1  0  0  0  0
  6 17  1  0  0  0  0
  6 21  1  0  0  0  0
  7 16  2  0  0  0  0
  8  9  1  0  0  0  0
  8 10  1  0  0  0  0
  8 16  1  0  0  0  0
  8 33  1  0  0  0  0
  9 11  1  0  0  0  0
  9 34  1  0  0  0  0
  9 35  1  0  0  0  0
 10 12  1  0  0  0  0
 10 36  1  0  0  0  0
 10 37  1  0  0  0  0
 11 38  1  0  0  0  0
 11 39  1  0  0  0  0
 12 40  1  0  0  0  0
 12 41  1  0  0  0  0
 13 14  1  0  0  0  0
 13 42  1  0  0  0  0
 13 43  1  0  0  0  0
 14 17  1  0  0  0  0
 14 44  1  0  0  0  0
 14 45  1  0  0  0  0
 15 18  1  0  0  0  0
 15 19  1  0  0  0  0
 15 46  1  0  0  0  0
 16 20  1  0  0  0  0
 17 47  1  0  0  0  0
 17 48  1  0  0  0  0
 18 49  1  0  0  0  0
 18 50  1  0  0  0  0
 19 51  1  0  0  0  0
 19 52  1  0  0  0  0
 20 22  2  0  0  0  0
 20 23  1  0  0  0  0
 21 24  1  0  0  0  0
 22 25  1  0  0  0  0
 23 26  2  0  0  0  0
 23 53  1  0  0  0  0
 24 28  2  0  0  0  0
 24 29  1  0  0  0  0
 25 27  2  0  0  0  0
 25 54  1  0  0  0  0
 26 27  1  0  0  0  0
 26 55  1  0  0  0  0
 28 30  1  0  0  0  0
 28 56  1  0  0  0  0
 29 31  2  0  0  0  0
 29 57  1  0  0  0  0
 30 32  2  0  0  0  0
 30 58  1  0  0  0  0
 31 32  1  0  0  0  0
 31 59  1  0  0  0  0
 32 60  1  0  0  0  0
M  END
> <PUBCHEM_COMPOUND_CID>
162651388

> <PUBCHEM_COMPOUND_CANONICALIZED>
1

> <PUBCHEM_CACTVS_COMPLEXITY>
620

> <PUBCHEM_CACTVS_HBOND_ACCEPTOR>
6

> <PUBCHEM_CACTVS_HBOND_DONOR>
0

> <PUBCHEM_CACTVS_ROTATABLE_BOND>
7

> <PUBCHEM_CACTVS_SUBSKEYS>
AAADceB7MQAAAAAAAAAAAAAAAABIAWAAAAA8YIAAAAAAAFgB9AAAHwAEAAAADSzhng4whtMQBACpA6VyUgCCAAAkIAAomCE+TNoKJrqA1ZOFMYhmxhmYyceYyOCOAAAAAAAIAAAAAAAAABAAAAAAAAAAAA==

> <PUBCHEM_IUPAC_OPENEYE_NAME>
N-[3-[4-(6-fluoro-1,2-benzoxazol-3-yl)-1-piperidyl]propyl]-N-(oxetan-3-yl)benzamide

> <PUBCHEM_IUPAC_CAS_NAME>
N-[3-[4-(6-fluoro-1,2-benzoxazol-3-yl)-1-piperidinyl]propyl]-N-(3-oxetanyl)benzamide

> <PUBCHEM_IUPAC_NAME_MARKUP>
<I>N</I>-[3-[4-(6-fluoro-1,2-benzoxazol-3-yl)piperidin-1-yl]propyl]-<I>N</I>-(oxetan-3-yl)benzamide

> <PUBCHEM_IUPAC_NAME>
N-[3-[4-(6-fluoro-1,2-benzoxazol-3-yl)piperidin-1-yl]propyl]-N-(oxetan-3-yl)benzamide

> <PUBCHEM_IUPAC_SYSTEMATIC_NAME>
N-[3-[4-(6-fluoranyl-1,2-benzoxazol-3-yl)piperidin-1-yl]propyl]-N-(oxetan-3-yl)benzamide

> <PUBCHEM_IUPAC_TRADITIONAL_NAME>
N-[3-[4-(6-fluoroindoxazen-3-yl)piperidino]propyl]-N-(oxetan-3-yl)benzamide

> <PUBCHEM_IUPAC_INCHI>
InChI=1S/C25H28FN3O3/c26-20-7-8-22-23(15-20)32-27-24(22)18-9-13-28(14-10-18)11-4-12-29(21-16-31-17-21)25(30)19-5-2-1-3-6-19/h1-3,5-8,15,18,21H,4,9-14,16-17H2

> <PUBCHEM_IUPAC_INCHIKEY>
OZGHVKYGFAYUBW-UHFFFAOYSA-N

> <PUBCHEM_XLOGP3_AA>
3.6

> <PUBCHEM_EXACT_MASS>
437.21146993

> <PUBCHEM_MOLECULAR_FORMULA>
C25H28FN3O3

> <PUBCHEM_MOLECULAR_WEIGHT>
437.5

> <PUBCHEM_OPENEYE_CAN_SMILES>
C1CN(CCC1C2=NOC3=C2C=CC(=C3)F)CCCN(C4COC4)C(=O)C5=CC=CC=C5

> <PUBCHEM_OPENEYE_ISO_SMILES>
C1CN(CCC1C2=NOC3=C2C=CC(=C3)F)CCCN(C4COC4)C(=O)C5=CC=CC=C5

> <PUBCHEM_CACTVS_TPSA>
58.8

> <PUBCHEM_MONOISOTOPIC_WEIGHT>
437.21146993

> <PUBCHEM_TOTAL_CHARGE>
0

> <PUBCHEM_HEAVY_ATOM_COUNT>
32

> <PUBCHEM_ATOM_DEF_STEREO_COUNT>
0

> <PUBCHEM_ATOM_UDEF_STEREO_COUNT>
0

> <PUBCHEM_BOND_DEF_STEREO_COUNT>
0

> <PUBCHEM_BOND_UDEF_STEREO_COUNT>
0

> <PUBCHEM_ISOTOPIC_ATOM_COUNT>
0

> <PUBCHEM_COMPONENT_COUNT>
1

> <PUBCHEM_CACTVS_TAUTO_COUNT>
-1

> <PUBCHEM_COORDINATE_TYPE>
1
5
255

> <PUBCHEM_BONDANNOTATIONS>
16  20  8
20  22  8
20  23  8
22  25  8
23  26  8
24  28  8
24  29  8
25  27  8
26  27  8
28  30  8
29  31  8
3  22  8
3  7  8
30  32  8
31  32  8
7  16  8

$$$$
