162655547
  -OEChem-09292322422D

 45 47  0     0  0  0  0  0  0999 V2000
    4.1244    0.2382    0.0000 O   0  0  0  0  0  0  0  0  0  0  0  0
    5.5071   -0.6857    0.0000 N   0  0  0  0  0  0  0  0  0  0  0  0
    5.0550    2.7488    0.0000 N   0  0  0  0  0  0  0  0  0  0  0  0
    5.8898    0.2382    0.0000 C   0  0  0  0  0  0  0  0  0  0  0  0
    5.2810    1.0316    0.0000 C   0  0  0  0  0  0  0  0  0  0  0  0
    5.6637    1.9554    0.0000 C   0  0  0  0  0  0  0  0  0  0  0  0
    6.2142   -1.3928    0.0000 C   0  0  0  0  0  0  0  0  0  0  0  0
    4.5071   -0.6857    0.0000 C   0  0  0  0  0  0  0  0  0  0  0  0
    6.2142   -2.3928    0.0000 C   0  0  0  0  0  0  0  0  0  0  0  0
    3.8000   -1.3928    0.0000 C   0  0  0  0  0  0  0  0  0  0  0  0
    3.8000   -2.3928    0.0000 C   0  0  0  0  0  0  0  0  0  0  0  0
    7.1082   -0.8581    0.0000 C   0  0  0  0  0  0  0  0  0  0  0  0
    5.5071   -3.0999    0.0000 C   0  0  0  0  0  0  0  0  0  0  0  0
    4.5071   -3.0999    0.0000 C   0  0  0  0  0  0  0  0  0  0  0  0
    7.1082   -2.9274    0.0000 C   0  0  0  0  0  0  0  0  0  0  0  0
    5.4376    3.6727    0.0000 C   0  0  0  0  0  0  0  0  0  0  0  0
    4.0635    2.6183    0.0000 C   0  0  0  0  0  0  0  0  0  0  0  0
    2.9061   -0.8581    0.0000 C   0  0  0  0  0  0  0  0  0  0  0  0
    8.0142   -1.3720    0.0000 C   0  0  0  0  0  0  0  0  0  0  0  0
    2.9061   -2.9274    0.0000 C   0  0  0  0  0  0  0  0  0  0  0  0
    8.0142   -2.4136    0.0000 C   0  0  0  0  0  0  0  0  0  0  0  0
    2.0000   -1.3720    0.0000 C   0  0  0  0  0  0  0  0  0  0  0  0
    2.0000   -2.4136    0.0000 C   0  0  0  0  0  0  0  0  0  0  0  0
    6.4127   -0.0949    0.0000 H   0  0  0  0  0  0  0  0  0  0  0  0
    6.3087    0.6953    0.0000 H   0  0  0  0  0  0  0  0  0  0  0  0
    4.7581    1.3647    0.0000 H   0  0  0  0  0  0  0  0  0  0  0  0
    4.8622    0.5745    0.0000 H   0  0  0  0  0  0  0  0  0  0  0  0
    6.1866    1.6223    0.0000 H   0  0  0  0  0  0  0  0  0  0  0  0
    6.0826    2.4126    0.0000 H   0  0  0  0  0  0  0  0  0  0  0  0
    7.1010   -0.2382    0.0000 H   0  0  0  0  0  0  0  0  0  0  0  0
    5.7444   -3.6727    0.0000 H   0  0  0  0  0  0  0  0  0  0  0  0
    4.2698   -3.6727    0.0000 H   0  0  0  0  0  0  0  0  0  0  0  0
    7.1010   -3.5474    0.0000 H   0  0  0  0  0  0  0  0  0  0  0  0
    6.0104    3.4354    0.0000 H   0  0  0  0  0  0  0  0  0  0  0  0
    5.6749    4.2455    0.0000 H   0  0  0  0  0  0  0  0  0  0  0  0
    4.8648    3.9100    0.0000 H   0  0  0  0  0  0  0  0  0  0  0  0
    3.9826    3.2330    0.0000 H   0  0  0  0  0  0  0  0  0  0  0  0
    3.4488    2.5374    0.0000 H   0  0  0  0  0  0  0  0  0  0  0  0
    4.1444    2.0036    0.0000 H   0  0  0  0  0  0  0  0  0  0  0  0
    2.9132   -0.2382    0.0000 H   0  0  0  0  0  0  0  0  0  0  0  0
    8.5500   -1.0599    0.0000 H   0  0  0  0  0  0  0  0  0  0  0  0
    2.9132   -3.5474    0.0000 H   0  0  0  0  0  0  0  0  0  0  0  0
    8.5500   -2.7256    0.0000 H   0  0  0  0  0  0  0  0  0  0  0  0
    1.4643   -1.0599    0.0000 H   0  0  0  0  0  0  0  0  0  0  0  0
    1.4643   -2.7256    0.0000 H   0  0  0  0  0  0  0  0  0  0  0  0
  1  8  2  0  0  0  0
  2  4  1  0  0  0  0
  2  7  1  0  0  0  0
  2  8  1  0  0  0  0
  3  6  1  0  0  0  0
  3 16  1  0  0  0  0
  3 17  1  0  0  0  0
  4  5  1  0  0  0  0
  4 24  1  0  0  0  0
  4 25  1  0  0  0  0
  5  6  1  0  0  0  0
  5 26  1  0  0  0  0
  5 27  1  0  0  0  0
  6 28  1  0  0  0  0
  6 29  1  0  0  0  0
  7  9  1  0  0  0  0
  7 12  2  0  0  0  0
  8 10  1  0  0  0  0
  9 13  1  0  0  0  0
  9 15  2  0  0  0  0
 10 11  1  0  0  0  0
 10 18  2  0  0  0  0
 11 14  1  0  0  0  0
 11 20  2  0  0  0  0
 12 19  1  0  0  0  0
 12 30  1  0  0  0  0
 13 14  2  0  0  0  0
 13 31  1  0  0  0  0
 14 32  1  0  0  0  0
 15 21  1  0  0  0  0
 15 33  1  0  0  0  0
 16 34  1  0  0  0  0
 16 35  1  0  0  0  0
 16 36  1  0  0  0  0
 17 37  1  0  0  0  0
 17 38  1  0  0  0  0
 17 39  1  0  0  0  0
 18 22  1  0  0  0  0
 18 40  1  0  0  0  0
 19 21  2  0  0  0  0
 19 41  1  0  0  0  0
 20 23  1  0  0  0  0
 20 42  1  0  0  0  0
 21 43  1  0  0  0  0
 22 23  2  0  0  0  0
 22 44  1  0  0  0  0
 23 45  1  0  0  0  0
M  END
> <PUBCHEM_COMPOUND_CID>
162655547

> <PUBCHEM_COMPOUND_CANONICALIZED>
1

> <PUBCHEM_CACTVS_COMPLEXITY>
431

> <PUBCHEM_CACTVS_HBOND_ACCEPTOR>
2

> <PUBCHEM_CACTVS_HBOND_DONOR>
0

> <PUBCHEM_CACTVS_ROTATABLE_BOND>
4

> <PUBCHEM_CACTVS_SUBSKEYS>
AAADceB7IAAAAAAAAAAAAAAAAAAAAAAAAAAwYAAAAAAQAAABQAAAHgAAAAAADAjBmAQywIMAAACIAiVSUACCAAAlAgAIiAEIZMgIIDLA1ZGEIQhghgDIyYcYiICOgAAAAAASAAAAAAAAACQAAAAAAAAAAA==

> <PUBCHEM_IUPAC_OPENEYE_NAME>
(11Z)-5-[3-(dimethylamino)propyl]benzo[c][1]benzazocin-6-one

> <PUBCHEM_IUPAC_CAS_NAME>
(11Z)-5-[3-(dimethylamino)propyl]-6-benzo[c][1]benzazocinone

> <PUBCHEM_IUPAC_NAME_MARKUP>
(11<I>Z</I>)-5-[3-(dimethylamino)propyl]benzo[c][1]benzazocin-6-one

> <PUBCHEM_IUPAC_NAME>
(11Z)-5-[3-(dimethylamino)propyl]benzo[c][1]benzazocin-6-one

> <PUBCHEM_IUPAC_SYSTEMATIC_NAME>
(11Z)-5-[3-(dimethylamino)propyl]benzo[c][1]benzazocin-6-one

> <PUBCHEM_IUPAC_TRADITIONAL_NAME>
(11Z)-5-[3-(dimethylamino)propyl]benzo[c][1]benzazocin-6-one

> <PUBCHEM_IUPAC_INCHI>
InChI=1S/C20H22N2O/c1-21(2)14-7-15-22-19-11-6-4-9-17(19)13-12-16-8-3-5-10-18(16)20(22)23/h3-6,8-13H,7,14-15H2,1-2H3/b13-12-

> <PUBCHEM_IUPAC_INCHIKEY>
ICFPYUXAAOVPIJ-SEYXRHQNSA-N

> <PUBCHEM_XLOGP3_AA>
3.8

> <PUBCHEM_EXACT_MASS>
306.173213330

> <PUBCHEM_MOLECULAR_FORMULA>
C20H22N2O

> <PUBCHEM_MOLECULAR_WEIGHT>
306.4

> <PUBCHEM_OPENEYE_CAN_SMILES>
CN(C)CCCN1C2=CC=CC=C2C=CC3=CC=CC=C3C1=O

> <PUBCHEM_OPENEYE_ISO_SMILES>
CN(C)CCCN1C2=CC=CC=C2/C=C\C3=CC=CC=C3C1=O

> <PUBCHEM_CACTVS_TPSA>
23.6

> <PUBCHEM_MONOISOTOPIC_WEIGHT>
306.173213330

> <PUBCHEM_TOTAL_CHARGE>
0

> <PUBCHEM_HEAVY_ATOM_COUNT>
23

> <PUBCHEM_ATOM_DEF_STEREO_COUNT>
0

> <PUBCHEM_ATOM_UDEF_STEREO_COUNT>
0

> <PUBCHEM_BOND_DEF_STEREO_COUNT>
1

> <PUBCHEM_BOND_UDEF_STEREO_COUNT>
0

> <PUBCHEM_ISOTOPIC_ATOM_COUNT>
0

> <PUBCHEM_COMPONENT_COUNT>
1

> <PUBCHEM_CACTVS_TAUTO_COUNT>
-1

> <PUBCHEM_COORDINATE_TYPE>
1
5
255

> <PUBCHEM_BONDANNOTATIONS>
10  11  8
10  18  8
11  20  8
12  19  8
15  21  8
18  22  8
19  21  8
20  23  8
22  23  8
7  12  8
7  9  8
9  15  8

$$$$
