69082816
  -OEChem-09292322482D

 65 69  0     1  0  0  0  0  0999 V2000
    4.4558    2.8683    0.0000 O   0  0  0  0  0  0  0  0  0  0  0  0
   10.5743   -2.6659    0.0000 O   0  0  0  0  0  0  0  0  0  0  0  0
   14.0384   -1.6659    0.0000 N   0  0  0  0  0  0  0  0  0  0  0  0
    3.5840    1.3716    0.0000 N   0  0  0  0  0  0  0  0  0  0  0  0
   11.4403   -1.1659    0.0000 N   0  0  0  0  0  0  0  0  0  0  0  0
    3.4756    0.3775    0.0000 C   0  0  2  0  0  0  0  0  0  0  0  0
    2.4967    0.1734    0.0000 C   0  0  0  0  0  0  0  0  0  0  0  0
   14.1429   -2.6604    0.0000 C   0  0  0  0  0  0  0  0  0  0  0  0
   14.9520   -1.2591    0.0000 C   0  0  0  0  0  0  0  0  0  0  0  0
   15.1211   -2.8683    0.0000 C   0  0  0  0  0  0  0  0  0  0  0  0
   15.6211   -2.0023    0.0000 C   0  0  0  0  0  0  0  0  0  0  0  0
    2.0000    1.0413    0.0000 C   0  0  0  0  0  0  0  0  0  0  0  0
    2.6720    1.7819    0.0000 C   0  0  0  0  0  0  0  0  0  0  0  0
   13.1724   -1.1659    0.0000 C   0  0  0  0  0  0  0  0  0  0  0  0
   12.3064   -1.6659    0.0000 C   0  0  0  0  0  0  0  0  0  0  0  0
    4.2162   -0.2945    0.0000 C   0  0  0  0  0  0  0  0  0  0  0  0
   11.4403   -0.1659    0.0000 C   0  0  0  0  0  0  0  0  0  0  0  0
   10.5743    0.3341    0.0000 C   0  0  0  0  0  0  0  0  0  0  0  0
    4.4519    1.8683    0.0000 C   0  0  0  0  0  0  0  0  0  0  0  0
    9.7083   -0.1659    0.0000 C   0  0  0  0  0  0  0  0  0  0  0  0
   10.5743   -1.6659    0.0000 C   0  0  0  0  0  0  0  0  0  0  0  0
    9.7083   -1.1659    0.0000 C   0  0  0  0  0  0  0  0  0  0  0  0
    5.3160    1.3650    0.0000 C   0  0  0  0  0  0  0  0  0  0  0  0
    8.8143    0.3688    0.0000 C   0  0  0  0  0  0  0  0  0  0  0  0
    7.9083   -0.1450    0.0000 C   0  0  0  0  0  0  0  0  0  0  0  0
    8.8143   -1.7005    0.0000 C   0  0  0  0  0  0  0  0  0  0  0  0
    7.0442    0.3583    0.0000 C   0  0  0  0  0  0  0  0  0  0  0  0
    7.9083   -1.1867    0.0000 C   0  0  0  0  0  0  0  0  0  0  0  0
    5.3121    0.3650    0.0000 C   0  0  0  0  0  0  0  0  0  0  0  0
    6.1840    1.8616    0.0000 C   0  0  0  0  0  0  0  0  0  0  0  0
    6.1762   -0.1384    0.0000 C   0  0  0  0  0  0  0  0  0  0  0  0
    7.0480    1.3583    0.0000 C   0  0  0  0  0  0  0  0  0  0  0  0
    4.0553    0.5975    0.0000 H   0  0  0  0  0  0  0  0  0  0  0  0
    1.9293   -0.0766    0.0000 H   0  0  0  0  0  0  0  0  0  0  0  0
    2.6860   -0.4170    0.0000 H   0  0  0  0  0  0  0  0  0  0  0  0
   13.5229   -2.6604    0.0000 H   0  0  0  0  0  0  0  0  0  0  0  0
   14.0781   -3.2770    0.0000 H   0  0  0  0  0  0  0  0  0  0  0  0
   15.4535   -0.8947    0.0000 H   0  0  0  0  0  0  0  0  0  0  0  0
   14.6420   -0.7222    0.0000 H   0  0  0  0  0  0  0  0  0  0  0  0
   14.9295   -3.4579    0.0000 H   0  0  0  0  0  0  0  0  0  0  0  0
   15.6875   -3.1205    0.0000 H   0  0  0  0  0  0  0  0  0  0  0  0
   16.1227   -2.3667    0.0000 H   0  0  0  0  0  0  0  0  0  0  0  0
   16.0359   -1.5415    0.0000 H   0  0  0  0  0  0  0  0  0  0  0  0
    1.5869    1.5037    0.0000 H   0  0  0  0  0  0  0  0  0  0  0  0
    1.4970    0.6788    0.0000 H   0  0  0  0  0  0  0  0  0  0  0  0
    2.9841    2.3176    0.0000 H   0  0  0  0  0  0  0  0  0  0  0  0
    2.1718    2.1482    0.0000 H   0  0  0  0  0  0  0  0  0  0  0  0
   13.5709   -0.6909    0.0000 H   0  0  0  0  0  0  0  0  0  0  0  0
   12.7739   -0.6909    0.0000 H   0  0  0  0  0  0  0  0  0  0  0  0
   11.9078   -2.1408    0.0000 H   0  0  0  0  0  0  0  0  0  0  0  0
   12.7049   -2.1408    0.0000 H   0  0  0  0  0  0  0  0  0  0  0  0
    3.7995   -0.7536    0.0000 H   0  0  0  0  0  0  0  0  0  0  0  0
    4.6753   -0.7111    0.0000 H   0  0  0  0  0  0  0  0  0  0  0  0
    4.6328    0.1647    0.0000 H   0  0  0  0  0  0  0  0  0  0  0  0
   12.0509   -0.2735    0.0000 H   0  0  0  0  0  0  0  0  0  0  0  0
   11.6524    0.4168    0.0000 H   0  0  0  0  0  0  0  0  0  0  0  0
   10.9728    0.8091    0.0000 H   0  0  0  0  0  0  0  0  0  0  0  0
   10.1758    0.8091    0.0000 H   0  0  0  0  0  0  0  0  0  0  0  0
    8.8215    0.9888    0.0000 H   0  0  0  0  0  0  0  0  0  0  0  0
    8.8215   -2.3205    0.0000 H   0  0  0  0  0  0  0  0  0  0  0  0
    7.3725   -1.4987    0.0000 H   0  0  0  0  0  0  0  0  0  0  0  0
    4.7740    0.0570    0.0000 H   0  0  0  0  0  0  0  0  0  0  0  0
    6.1863    2.4816    0.0000 H   0  0  0  0  0  0  0  0  0  0  0  0
    6.1738   -0.7584    0.0000 H   0  0  0  0  0  0  0  0  0  0  0  0
    7.5862    1.6662    0.0000 H   0  0  0  0  0  0  0  0  0  0  0  0
  1 19  2  0  0  0  0
  2 21  2  0  0  0  0
  3  8  1  0  0  0  0
  3  9  1  0  0  0  0
  3 14  1  0  0  0  0
  4  6  1  0  0  0  0
  4 13  1  0  0  0  0
  4 19  1  0  0  0  0
  5 15  1  0  0  0  0
  5 17  1  0  0  0  0
  5 21  1  0  0  0  0
  6  7  1  0  0  0  0
  6 16  1  1  0  0  0
  6 33  1  0  0  0  0
  7 12  1  0  0  0  0
  7 34  1  0  0  0  0
  7 35  1  0  0  0  0
  8 10  1  0  0  0  0
  8 36  1  0  0  0  0
  8 37  1  0  0  0  0
  9 11  1  0  0  0  0
  9 38  1  0  0  0  0
  9 39  1  0  0  0  0
 10 11  1  0  0  0  0
 10 40  1  0  0  0  0
 10 41  1  0  0  0  0
 11 42  1  0  0  0  0
 11 43  1  0  0  0  0
 12 13  1  0  0  0  0
 12 44  1  0  0  0  0
 12 45  1  0  0  0  0
 13 46  1  0  0  0  0
 13 47  1  0  0  0  0
 14 15  1  0  0  0  0
 14 48  1  0  0  0  0
 14 49  1  0  0  0  0
 15 50  1  0  0  0  0
 15 51  1  0  0  0  0
 16 52  1  0  0  0  0
 16 53  1  0  0  0  0
 16 54  1  0  0  0  0
 17 18  1  0  0  0  0
 17 55  1  0  0  0  0
 17 56  1  0  0  0  0
 18 20  1  0  0  0  0
 18 57  1  0  0  0  0
 18 58  1  0  0  0  0
 19 23  1  0  0  0  0
 20 22  2  0  0  0  0
 20 24  1  0  0  0  0
 21 22  1  0  0  0  0
 22 26  1  0  0  0  0
 23 29  2  0  0  0  0
 23 30  1  0  0  0  0
 24 25  2  0  0  0  0
 24 59  1  0  0  0  0
 25 27  1  0  0  0  0
 25 28  1  0  0  0  0
 26 28  2  0  0  0  0
 26 60  1  0  0  0  0
 27 31  2  0  0  0  0
 27 32  1  0  0  0  0
 28 61  1  0  0  0  0
 29 31  1  0  0  0  0
 29 62  1  0  0  0  0
 30 32  2  0  0  0  0
 30 63  1  0  0  0  0
 31 64  1  0  0  0  0
 32 65  1  0  0  0  0
M  END
> <PUBCHEM_COMPOUND_CID>
69082816

> <PUBCHEM_COMPOUND_CANONICALIZED>
1

> <PUBCHEM_CACTVS_COMPLEXITY>
668

> <PUBCHEM_CACTVS_HBOND_ACCEPTOR>
3

> <PUBCHEM_CACTVS_HBOND_DONOR>
0

> <PUBCHEM_CACTVS_ROTATABLE_BOND>
5

> <PUBCHEM_CACTVS_SUBSKEYS>
AAADcfB7MAAAAAAAAAAAAAAAAAAAAWLAAAA8YIAAAAAAAACxQAAAHgAAAAAADCjBmAQyAIMAAACIAiFSEACCAAAkAAAIiAEIBMgIYDKAlRGUIQhghgCIiYcYicCOwAACAAAQAACAAAQAACAAAAAAAAAAAA==

> <PUBCHEM_IUPAC_OPENEYE_NAME>
6-[4-[(2S)-2-methylpyrrolidine-1-carbonyl]phenyl]-2-(2-pyrrolidin-1-ylethyl)-3,4-dihydroisoquinolin-1-one

> <PUBCHEM_IUPAC_CAS_NAME>
6-[4-[[(2S)-2-methyl-1-pyrrolidinyl]-oxomethyl]phenyl]-2-[2-(1-pyrrolidinyl)ethyl]-3,4-dihydroisoquinolin-1-one

> <PUBCHEM_IUPAC_NAME_MARKUP>
6-[4-[(2<I>S</I>)-2-methylpyrrolidine-1-carbonyl]phenyl]-2-(2-pyrrolidin-1-ylethyl)-3,4-dihydroisoquinolin-1-one

> <PUBCHEM_IUPAC_NAME>
6-[4-[(2S)-2-methylpyrrolidine-1-carbonyl]phenyl]-2-(2-pyrrolidin-1-ylethyl)-3,4-dihydroisoquinolin-1-one

> <PUBCHEM_IUPAC_SYSTEMATIC_NAME>
6-[4-[(2S)-2-methylpyrrolidin-1-yl]carbonylphenyl]-2-(2-pyrrolidin-1-ylethyl)-3,4-dihydroisoquinolin-1-one

> <PUBCHEM_IUPAC_TRADITIONAL_NAME>
6-[4-[(2S)-2-methylpyrrolidine-1-carbonyl]phenyl]-2-(2-pyrrolidinoethyl)-3,4-dihydroisocarbostyril

> <PUBCHEM_IUPAC_INCHI>
InChI=1S/C27H33N3O2/c1-20-5-4-15-30(20)26(31)22-8-6-21(7-9-22)23-10-11-25-24(19-23)12-16-29(27(25)32)18-17-28-13-2-3-14-28/h6-11,19-20H,2-5,12-18H2,1H3/t20-/m0/s1

> <PUBCHEM_IUPAC_INCHIKEY>
QKNQLRSRULGFBA-FQEVSTJZSA-N

> <PUBCHEM_XLOGP3_AA>
3.9

> <PUBCHEM_EXACT_MASS>
431.25727730

> <PUBCHEM_MOLECULAR_FORMULA>
C27H33N3O2

> <PUBCHEM_MOLECULAR_WEIGHT>
431.6

> <PUBCHEM_OPENEYE_CAN_SMILES>
CC1CCCN1C(=O)C2=CC=C(C=C2)C3=CC4=C(C=C3)C(=O)N(CC4)CCN5CCCC5

> <PUBCHEM_OPENEYE_ISO_SMILES>
C[C@H]1CCCN1C(=O)C2=CC=C(C=C2)C3=CC4=C(C=C3)C(=O)N(CC4)CCN5CCCC5

> <PUBCHEM_CACTVS_TPSA>
43.9

> <PUBCHEM_MONOISOTOPIC_WEIGHT>
431.25727730

> <PUBCHEM_TOTAL_CHARGE>
0

> <PUBCHEM_HEAVY_ATOM_COUNT>
32

> <PUBCHEM_ATOM_DEF_STEREO_COUNT>
1

> <PUBCHEM_ATOM_UDEF_STEREO_COUNT>
0

> <PUBCHEM_BOND_DEF_STEREO_COUNT>
0

> <PUBCHEM_BOND_UDEF_STEREO_COUNT>
0

> <PUBCHEM_ISOTOPIC_ATOM_COUNT>
0

> <PUBCHEM_COMPONENT_COUNT>
1

> <PUBCHEM_CACTVS_TAUTO_COUNT>
-1

> <PUBCHEM_COORDINATE_TYPE>
1
5
255

> <PUBCHEM_BONDANNOTATIONS>
20  22  8
20  24  8
22  26  8
23  29  8
23  30  8
24  25  8
25  28  8
26  28  8
27  31  8
27  32  8
29  31  8
30  32  8
6  16  5

$$$$
