71459760
  -OEChem-09292322332D

 60 63  0     0  0  0  0  0  0999 V2000
    9.7142    1.7001    0.0000 O   0  0  0  0  0  0  0  0  0  0  0  0
    6.4162    2.7598    0.0000 N   0  0  0  0  0  0  0  0  0  0  0  0
    8.3711    3.1820    0.0000 N   0  0  0  0  0  0  0  0  0  0  0  0
    6.7221    3.7119    0.0000 C   0  0  0  0  0  0  0  0  0  0  0  0
    7.0877    2.0188    0.0000 C   0  0  0  0  0  0  0  0  0  0  0  0
    7.6996    3.9230    0.0000 C   0  0  0  0  0  0  0  0  0  0  0  0
    8.0652    2.2299    0.0000 C   0  0  0  0  0  0  0  0  0  0  0  0
    5.4387    2.5487    0.0000 C   0  0  0  0  0  0  0  0  0  0  0  0
    5.1328    1.5967    0.0000 C   0  0  0  0  0  0  0  0  0  0  0  0
    9.3486    3.3931    0.0000 C   0  0  0  0  0  0  0  0  0  0  0  0
    4.1881    1.2872    0.0000 C   0  0  0  0  0  0  0  0  0  0  0  0
    5.7204    0.7948    0.0000 C   0  0  0  0  0  0  0  0  0  0  0  0
    4.1931    0.2872    0.0000 C   0  0  0  0  0  0  0  0  0  0  0  0
   10.0201    2.6521    0.0000 C   0  0  0  0  0  0  0  0  0  0  0  0
    5.1408   -0.0128    0.0000 C   0  0  0  0  0  0  0  0  0  0  0  0
    9.6545    4.3452    0.0000 C   0  0  0  0  0  0  0  0  0  0  0  0
    3.4032    1.9068    0.0000 C   0  0  0  0  0  0  0  0  0  0  0  0
   10.9976    2.8632    0.0000 C   0  0  0  0  0  0  0  0  0  0  0  0
    3.4144   -0.3402    0.0000 C   0  0  0  0  0  0  0  0  0  0  0  0
   10.6320    4.5562    0.0000 C   0  0  0  0  0  0  0  0  0  0  0  0
   11.3035    3.8153    0.0000 C   0  0  0  0  0  0  0  0  0  0  0  0
    2.4294    1.6794    0.0000 C   0  0  0  0  0  0  0  0  0  0  0  0
    5.4562   -0.9617    0.0000 C   0  0  0  0  0  0  0  0  0  0  0  0
    2.4384   -0.1225    0.0000 C   0  0  0  0  0  0  0  0  0  0  0  0
    2.0000    0.7763    0.0000 C   0  0  0  0  0  0  0  0  0  0  0  0
   10.3858    0.9591    0.0000 C   0  0  0  0  0  0  0  0  0  0  0  0
    5.7716   -1.9107    0.0000 C   0  0  0  0  0  0  0  0  0  0  0  0
    6.0870   -2.8597    0.0000 C   0  0  0  0  0  0  0  0  0  0  0  0
    5.4229   -3.6073    0.0000 C   0  0  0  0  0  0  0  0  0  0  0  0
    5.7383   -4.5562    0.0000 C   0  0  0  0  0  0  0  0  0  0  0  0
    6.6985    4.3314    0.0000 H   0  0  0  0  0  0  0  0  0  0  0  0
    6.1079    3.7962    0.0000 H   0  0  0  0  0  0  0  0  0  0  0  0
    6.5630    1.6886    0.0000 H   0  0  0  0  0  0  0  0  0  0  0  0
    7.3219    1.4448    0.0000 H   0  0  0  0  0  0  0  0  0  0  0  0
    8.2243    4.2532    0.0000 H   0  0  0  0  0  0  0  0  0  0  0  0
    7.4654    4.4971    0.0000 H   0  0  0  0  0  0  0  0  0  0  0  0
    8.0889    1.6104    0.0000 H   0  0  0  0  0  0  0  0  0  0  0  0
    8.6794    2.1456    0.0000 H   0  0  0  0  0  0  0  0  0  0  0  0
    5.4151    3.1683    0.0000 H   0  0  0  0  0  0  0  0  0  0  0  0
    4.8245    2.6330    0.0000 H   0  0  0  0  0  0  0  0  0  0  0  0
    6.3404    0.7979    0.0000 H   0  0  0  0  0  0  0  0  0  0  0  0
    9.2381    4.8046    0.0000 H   0  0  0  0  0  0  0  0  0  0  0  0
    3.5381    2.5119    0.0000 H   0  0  0  0  0  0  0  0  0  0  0  0
   11.4140    2.4038    0.0000 H   0  0  0  0  0  0  0  0  0  0  0  0
    3.5554   -0.9439    0.0000 H   0  0  0  0  0  0  0  0  0  0  0  0
   10.8216    5.1465    0.0000 H   0  0  0  0  0  0  0  0  0  0  0  0
   11.9096    3.9462    0.0000 H   0  0  0  0  0  0  0  0  0  0  0  0
    2.0404    2.1622    0.0000 H   0  0  0  0  0  0  0  0  0  0  0  0
    2.0542   -0.6092    0.0000 H   0  0  0  0  0  0  0  0  0  0  0  0
    1.3800    0.7732    0.0000 H   0  0  0  0  0  0  0  0  0  0  0  0
    9.9264    0.5428    0.0000 H   0  0  0  0  0  0  0  0  0  0  0  0
   10.8021    0.4997    0.0000 H   0  0  0  0  0  0  0  0  0  0  0  0
   10.8452    1.3755    0.0000 H   0  0  0  0  0  0  0  0  0  0  0  0
    6.4720   -3.3457    0.0000 H   0  0  0  0  0  0  0  0  0  0  0  0
    6.6325   -2.5649    0.0000 H   0  0  0  0  0  0  0  0  0  0  0  0
    5.0379   -3.1213    0.0000 H   0  0  0  0  0  0  0  0  0  0  0  0
    4.8774   -3.9020    0.0000 H   0  0  0  0  0  0  0  0  0  0  0  0
    5.1499   -4.7518    0.0000 H   0  0  0  0  0  0  0  0  0  0  0  0
    5.9338   -5.1446    0.0000 H   0  0  0  0  0  0  0  0  0  0  0  0
    6.3267   -4.3607    0.0000 H   0  0  0  0  0  0  0  0  0  0  0  0
  1 14  1  0  0  0  0
  1 26  1  0  0  0  0
  2  4  1  0  0  0  0
  2  5  1  0  0  0  0
  2  8  1  0  0  0  0
  3  6  1  0  0  0  0
  3  7  1  0  0  0  0
  3 10  1  0  0  0  0
  4  6  1  0  0  0  0
  4 31  1  0  0  0  0
  4 32  1  0  0  0  0
  5  7  1  0  0  0  0
  5 33  1  0  0  0  0
  5 34  1  0  0  0  0
  6 35  1  0  0  0  0
  6 36  1  0  0  0  0
  7 37  1  0  0  0  0
  7 38  1  0  0  0  0
  8  9  1  0  0  0  0
  8 39  1  0  0  0  0
  8 40  1  0  0  0  0
  9 11  1  0  0  0  0
  9 12  2  0  0  0  0
 10 14  1  0  0  0  0
 10 16  2  0  0  0  0
 11 13  1  0  0  0  0
 11 17  2  0  0  0  0
 12 15  1  0  0  0  0
 12 41  1  0  0  0  0
 13 15  2  0  0  0  0
 13 19  1  0  0  0  0
 14 18  2  0  0  0  0
 15 23  1  0  0  0  0
 16 20  1  0  0  0  0
 16 42  1  0  0  0  0
 17 22  1  0  0  0  0
 17 43  1  0  0  0  0
 18 21  1  0  0  0  0
 18 44  1  0  0  0  0
 19 24  2  0  0  0  0
 19 45  1  0  0  0  0
 20 21  2  0  0  0  0
 20 46  1  0  0  0  0
 21 47  1  0  0  0  0
 22 25  2  0  0  0  0
 22 48  1  0  0  0  0
 23 27  3  0  0  0  0
 24 25  1  0  0  0  0
 24 49  1  0  0  0  0
 25 50  1  0  0  0  0
 26 51  1  0  0  0  0
 26 52  1  0  0  0  0
 26 53  1  0  0  0  0
 27 28  1  0  0  0  0
 28 29  1  0  0  0  0
 28 54  1  0  0  0  0
 28 55  1  0  0  0  0
 29 30  1  0  0  0  0
 29 56  1  0  0  0  0
 29 57  1  0  0  0  0
 30 58  1  0  0  0  0
 30 59  1  0  0  0  0
 30 60  1  0  0  0  0
M  END
> <PUBCHEM_COMPOUND_CID>
71459760

> <PUBCHEM_COMPOUND_CANONICALIZED>
1

> <PUBCHEM_CACTVS_COMPLEXITY>
584

> <PUBCHEM_CACTVS_HBOND_ACCEPTOR>
3

> <PUBCHEM_CACTVS_HBOND_DONOR>
0

> <PUBCHEM_CACTVS_ROTATABLE_BOND>
6

> <PUBCHEM_CACTVS_SUBSKEYS>
AAADceB7IAAAAAAAAAAAAAAAAAAAAYAAAAA8QAAABgAAAADBQAAAHgAAAAAADAzBmAYyxsMABADAEiRCQAiCCAAhIgAIiAAPbIgOZiLEsZuVMChkwBHY6AeQwMAOgAAAAAAAEAAAAAAAAAAgAQAACAAAAA==

> <PUBCHEM_IUPAC_OPENEYE_NAME>
1-(2-methoxyphenyl)-4-[(3-pent-1-ynylazulen-1-yl)methyl]piperazine

> <PUBCHEM_IUPAC_CAS_NAME>
1-(2-methoxyphenyl)-4-[(3-pent-1-ynyl-1-azulenyl)methyl]piperazine

> <PUBCHEM_IUPAC_NAME_MARKUP>
1-(2-methoxyphenyl)-4-[(3-pent-1-ynylazulen-1-yl)methyl]piperazine

> <PUBCHEM_IUPAC_NAME>
1-(2-methoxyphenyl)-4-[(3-pent-1-ynylazulen-1-yl)methyl]piperazine

> <PUBCHEM_IUPAC_SYSTEMATIC_NAME>
1-(2-methoxyphenyl)-4-[(3-pent-1-ynylazulen-1-yl)methyl]piperazine

> <PUBCHEM_IUPAC_TRADITIONAL_NAME>
1-(2-methoxyphenyl)-4-[(3-pent-1-ynylazulen-1-yl)methyl]piperazine

> <PUBCHEM_IUPAC_INCHI>
InChI=1S/C27H30N2O/c1-3-4-6-11-22-20-23(25-13-8-5-7-12-24(22)25)21-28-16-18-29(19-17-28)26-14-9-10-15-27(26)30-2/h5,7-10,12-15,20H,3-4,16-19,21H2,1-2H3

> <PUBCHEM_IUPAC_INCHIKEY>
RSTJJQONPRJAIE-UHFFFAOYSA-N

> <PUBCHEM_XLOGP3_AA>
6

> <PUBCHEM_EXACT_MASS>
398.235813585

> <PUBCHEM_MOLECULAR_FORMULA>
C27H30N2O

> <PUBCHEM_MOLECULAR_WEIGHT>
398.5

> <PUBCHEM_OPENEYE_CAN_SMILES>
CCCC#CC1=C2C=CC=CC=C2C(=C1)CN3CCN(CC3)C4=CC=CC=C4OC

> <PUBCHEM_OPENEYE_ISO_SMILES>
CCCC#CC1=C2C=CC=CC=C2C(=C1)CN3CCN(CC3)C4=CC=CC=C4OC

> <PUBCHEM_CACTVS_TPSA>
15.7

> <PUBCHEM_MONOISOTOPIC_WEIGHT>
398.235813585

> <PUBCHEM_TOTAL_CHARGE>
0

> <PUBCHEM_HEAVY_ATOM_COUNT>
30

> <PUBCHEM_ATOM_DEF_STEREO_COUNT>
0

> <PUBCHEM_ATOM_UDEF_STEREO_COUNT>
0

> <PUBCHEM_BOND_DEF_STEREO_COUNT>
0

> <PUBCHEM_BOND_UDEF_STEREO_COUNT>
0

> <PUBCHEM_ISOTOPIC_ATOM_COUNT>
0

> <PUBCHEM_COMPONENT_COUNT>
1

> <PUBCHEM_CACTVS_TAUTO_COUNT>
-1

> <PUBCHEM_COORDINATE_TYPE>
1
5
255

> <PUBCHEM_BONDANNOTATIONS>
10  14  8
10  16  8
11  17  8
12  15  8
13  15  8
13  19  8
14  18  8
16  20  8
17  22  8
18  21  8
19  24  8
20  21  8
22  25  8
24  25  8
9  11  8
9  12  8

$$$$
