21302459
  -OEChem-09292322192D

 61 65  0     1  0  0  0  0  0999 V2000
    6.2379   -5.5107    0.0000 S   0  0  0  0  0  0  0  0  0  0  0  0
    6.0000    2.9184    0.0000 O   0  0  0  0  0  0  0  0  0  0  0  0
    6.3432   -3.3006    0.0000 N   0  0  3  0  0  0  0  0  0  0  0  0
    5.0133   -0.5495    0.0000 N   0  0  3  0  0  0  0  0  0  0  0  0
    3.0000    2.9069    0.0000 N   0  0  0  0  0  0  0  0  0  0  0  0
    6.0342   -2.3495    0.0000 C   0  0  2  0  0  0  0  0  0  0  0  0
    5.0342   -2.3495    0.0000 C   0  0  1  0  0  0  0  0  0  0  0  0
    6.5688   -1.4555    0.0000 C   0  0  0  0  0  0  0  0  0  0  0  0
    4.4995   -1.4555    0.0000 C   0  0  0  0  0  0  0  0  0  0  0  0
    4.7251   -3.3006    0.0000 C   0  0  0  0  0  0  0  0  0  0  0  0
    5.5342   -3.8883    0.0000 C   0  0  0  0  0  0  0  0  0  0  0  0
    6.0550   -0.5495    0.0000 C   0  0  0  0  0  0  0  0  0  0  0  0
    7.2868   -3.5678    0.0000 C   0  0  0  0  0  0  0  0  0  0  0  0
    4.5100    0.3146    0.0000 C   0  0  0  0  0  0  0  0  0  0  0  0
    5.4967   -4.8684    0.0000 C   0  0  0  0  0  0  0  0  0  0  0  0
    3.8500   -3.7515    0.0000 C   0  0  0  0  0  0  0  0  0  0  0  0
    7.6687   -4.4712    0.0000 C   0  0  0  0  0  0  0  0  0  0  0  0
    7.2027   -5.3343    0.0000 C   0  0  0  0  0  0  0  0  0  0  0  0
    5.0066    1.1826    0.0000 C   0  0  0  0  0  0  0  0  0  0  0  0
    4.6056   -5.2867    0.0000 C   0  0  0  0  0  0  0  0  0  0  0  0
    3.7909   -4.7341    0.0000 C   0  0  0  0  0  0  0  0  0  0  0  0
    4.5033    2.0466    0.0000 C   0  0  0  0  0  0  0  0  0  0  0  0
    5.0000    2.9146    0.0000 C   0  0  0  0  0  0  0  0  0  0  0  0
    4.4966    3.7787    0.0000 C   0  0  0  0  0  0  0  0  0  0  0  0
    3.4966    3.7748    0.0000 C   0  0  0  0  0  0  0  0  0  0  0  0
    4.9933    4.6466    0.0000 C   0  0  0  0  0  0  0  0  0  0  0  0
    2.9933    4.6389    0.0000 C   0  0  0  0  0  0  0  0  0  0  0  0
    4.4900    5.5107    0.0000 C   0  0  0  0  0  0  0  0  0  0  0  0
    3.4900    5.5069    0.0000 C   0  0  0  0  0  0  0  0  0  0  0  0
    2.0000    2.9030    0.0000 C   0  0  0  0  0  0  0  0  0  0  0  0
    6.8788   -2.4449    0.0000 H   0  0  0  0  0  0  0  0  0  0  0  0
    4.1895   -2.4449    0.0000 H   0  0  0  0  0  0  0  0  0  0  0  0
    7.0386   -1.8601    0.0000 H   0  0  0  0  0  0  0  0  0  0  0  0
    7.0478   -1.0619    0.0000 H   0  0  0  0  0  0  0  0  0  0  0  0
    4.0205   -1.0619    0.0000 H   0  0  0  0  0  0  0  0  0  0  0  0
    4.0297   -1.8601    0.0000 H   0  0  0  0  0  0  0  0  0  0  0  0
    6.6386   -0.3404    0.0000 H   0  0  0  0  0  0  0  0  0  0  0  0
    5.9489    0.0614    0.0000 H   0  0  0  0  0  0  0  0  0  0  0  0
    7.8974   -3.4601    0.0000 H   0  0  0  0  0  0  0  0  0  0  0  0
    7.3183   -2.9486    0.0000 H   0  0  0  0  0  0  0  0  0  0  0  0
    4.0335    0.7113    0.0000 H   0  0  0  0  0  0  0  0  0  0  0  0
    4.0366   -0.0857    0.0000 H   0  0  0  0  0  0  0  0  0  0  0  0
    3.3306   -3.4129    0.0000 H   0  0  0  0  0  0  0  0  0  0  0  0
    8.1346   -4.8802    0.0000 H   0  0  0  0  0  0  0  0  0  0  0  0
    8.1714   -4.1084    0.0000 H   0  0  0  0  0  0  0  0  0  0  0  0
    7.1752   -5.9537    0.0000 H   0  0  0  0  0  0  0  0  0  0  0  0
    7.8003   -5.4995    0.0000 H   0  0  0  0  0  0  0  0  0  0  0  0
    5.4831    0.7859    0.0000 H   0  0  0  0  0  0  0  0  0  0  0  0
    5.4801    1.5829    0.0000 H   0  0  0  0  0  0  0  0  0  0  0  0
    4.5569   -5.9048    0.0000 H   0  0  0  0  0  0  0  0  0  0  0  0
    3.2346   -5.0079    0.0000 H   0  0  0  0  0  0  0  0  0  0  0  0
    4.0268    2.4433    0.0000 H   0  0  0  0  0  0  0  0  0  0  0  0
    4.0299    1.6463    0.0000 H   0  0  0  0  0  0  0  0  0  0  0  0
    5.6133    4.6490    0.0000 H   0  0  0  0  0  0  0  0  0  0  0  0
    2.3733    4.6365    0.0000 H   0  0  0  0  0  0  0  0  0  0  0  0
    4.7979    6.0488    0.0000 H   0  0  0  0  0  0  0  0  0  0  0  0
    3.3121    2.3712    0.0000 H   0  0  0  0  0  0  0  0  0  0  0  0
    3.1779    6.0426    0.0000 H   0  0  0  0  0  0  0  0  0  0  0  0
    1.9976    3.5230    0.0000 H   0  0  0  0  0  0  0  0  0  0  0  0
    1.3800    2.9006    0.0000 H   0  0  0  0  0  0  0  0  0  0  0  0
    2.0024    2.2830    0.0000 H   0  0  0  0  0  0  0  0  0  0  0  0
  1 15  1  0  0  0  0
  1 18  1  0  0  0  0
  2 23  2  0  0  0  0
  3  6  1  0  0  0  0
  3 11  1  0  0  0  0
  3 13  1  0  0  0  0
  4  9  1  0  0  0  0
  4 12  1  0  0  0  0
  4 14  1  0  0  0  0
  5 25  1  0  0  0  0
  5 30  1  0  0  0  0
  5 57  1  0  0  0  0
  6  7  1  0  0  0  0
  6  8  1  0  0  0  0
  6 31  1  1  0  0  0
  7  9  1  0  0  0  0
  7 10  1  0  0  0  0
  7 32  1  1  0  0  0
  8 12  1  0  0  0  0
  8 33  1  0  0  0  0
  8 34  1  0  0  0  0
  9 35  1  0  0  0  0
  9 36  1  0  0  0  0
 10 11  2  0  0  0  0
 10 16  1  0  0  0  0
 11 15  1  0  0  0  0
 12 37  1  0  0  0  0
 12 38  1  0  0  0  0
 13 17  1  0  0  0  0
 13 39  1  0  0  0  0
 13 40  1  0  0  0  0
 14 19  1  0  0  0  0
 14 41  1  0  0  0  0
 14 42  1  0  0  0  0
 15 20  2  0  0  0  0
 16 21  2  0  0  0  0
 16 43  1  0  0  0  0
 17 18  1  0  0  0  0
 17 44  1  0  0  0  0
 17 45  1  0  0  0  0
 18 46  1  0  0  0  0
 18 47  1  0  0  0  0
 19 22  1  0  0  0  0
 19 48  1  0  0  0  0
 19 49  1  0  0  0  0
 20 21  1  0  0  0  0
 20 50  1  0  0  0  0
 21 51  1  0  0  0  0
 22 23  1  0  0  0  0
 22 52  1  0  0  0  0
 22 53  1  0  0  0  0
 23 24  1  0  0  0  0
 24 25  1  0  0  0  0
 24 26  2  0  0  0  0
 25 27  2  0  0  0  0
 26 28  1  0  0  0  0
 26 54  1  0  0  0  0
 27 29  1  0  0  0  0
 27 55  1  0  0  0  0
 28 29  2  0  0  0  0
 28 56  1  0  0  0  0
 29 58  1  0  0  0  0
 30 59  1  0  0  0  0
 30 60  1  0  0  0  0
 30 61  1  0  0  0  0
M  END
> <PUBCHEM_COMPOUND_CID>
21302459

> <PUBCHEM_COMPOUND_CANONICALIZED>
1

> <PUBCHEM_CACTVS_COMPLEXITY>
601

> <PUBCHEM_CACTVS_HBOND_ACCEPTOR>
5

> <PUBCHEM_CACTVS_HBOND_DONOR>
1

> <PUBCHEM_CACTVS_ROTATABLE_BOND>
6

> <PUBCHEM_CACTVS_SUBSKEYS>
AAADceB7IABAAAAAAAAAAAAAAAAAAWAAAAA8YIAABYAAAFixQAAAHgQQAAAADSzF2ASywYPAAAiIAqRSQACCAAAlChAIiJ0IZMgIIDrg1ZGEIYhgkADoyccciMCOgAAAgAACAQAAAAEAAAQCAAAAAAAAAA==

> <PUBCHEM_IUPAC_OPENEYE_NAME>
1-[2-(methylamino)phenyl]-4-[(11S,16R)-6-thia-10,14-diazatetracyclo[8.6.1.05,17.011,16]heptadeca-1(17),2,4-trien-14-yl]butan-1-one

> <PUBCHEM_IUPAC_CAS_NAME>
1-[2-(methylamino)phenyl]-4-[(11S,16R)-6-thia-10,14-diazatetracyclo[8.6.1.05,17.011,16]heptadeca-1(17),2,4-trien-14-yl]-1-butanone

> <PUBCHEM_IUPAC_NAME_MARKUP>
1-[2-(methylamino)phenyl]-4-[(11<I>S</I>,16<I>R</I>)-6-thia-10,14-diazatetracyclo[8.6.1.0<SUP>5,17</SUP>.0<SUP>11,16</SUP>]heptadeca-1(17),2,4-trien-14-yl]butan-1-one

> <PUBCHEM_IUPAC_NAME>
1-[2-(methylamino)phenyl]-4-[(11S,16R)-6-thia-10,14-diazatetracyclo[8.6.1.05,17.011,16]heptadeca-1(17),2,4-trien-14-yl]butan-1-one

> <PUBCHEM_IUPAC_SYSTEMATIC_NAME>
1-[2-(methylamino)phenyl]-4-[(11S,16R)-6-thia-10,14-diazatetracyclo[8.6.1.05,17.011,16]heptadeca-1(17),2,4-trien-14-yl]butan-1-one

> <PUBCHEM_IUPAC_TRADITIONAL_NAME>
1-[2-(methylamino)phenyl]-4-[(11S,16R)-6-thia-10,14-diazatetracyclo[8.6.1.05,17.011,16]heptadeca-1(17),2,4-trien-14-yl]butan-1-one

> <PUBCHEM_IUPAC_INCHI>
InChI=1S/C25H31N3OS/c1-26-21-9-3-2-7-19(21)23(29)10-5-13-27-15-12-22-20(17-27)18-8-4-11-24-25(18)28(22)14-6-16-30-24/h2-4,7-9,11,20,22,26H,5-6,10,12-17H2,1H3/t20-,22-/m0/s1

> <PUBCHEM_IUPAC_INCHIKEY>
OZTVZSHZOQCELD-UNMCSNQZSA-N

> <PUBCHEM_XLOGP3_AA>
5

> <PUBCHEM_EXACT_MASS>
421.21878379

> <PUBCHEM_MOLECULAR_FORMULA>
C25H31N3OS

> <PUBCHEM_MOLECULAR_WEIGHT>
421.6

> <PUBCHEM_OPENEYE_CAN_SMILES>
CNC1=CC=CC=C1C(=O)CCCN2CCC3C(C2)C4=C5N3CCCSC5=CC=C4

> <PUBCHEM_OPENEYE_ISO_SMILES>
CNC1=CC=CC=C1C(=O)CCCN2CC[C@H]3[C@@H](C2)C4=C5N3CCCSC5=CC=C4

> <PUBCHEM_CACTVS_TPSA>
60.9

> <PUBCHEM_MONOISOTOPIC_WEIGHT>
421.21878379

> <PUBCHEM_TOTAL_CHARGE>
0

> <PUBCHEM_HEAVY_ATOM_COUNT>
30

> <PUBCHEM_ATOM_DEF_STEREO_COUNT>
2

> <PUBCHEM_ATOM_UDEF_STEREO_COUNT>
0

> <PUBCHEM_BOND_DEF_STEREO_COUNT>
0

> <PUBCHEM_BOND_UDEF_STEREO_COUNT>
0

> <PUBCHEM_ISOTOPIC_ATOM_COUNT>
0

> <PUBCHEM_COMPONENT_COUNT>
1

> <PUBCHEM_CACTVS_TAUTO_COUNT>
-1

> <PUBCHEM_COORDINATE_TYPE>
1
5
255

> <PUBCHEM_BONDANNOTATIONS>
10  11  8
10  16  8
11  15  8
15  20  8
16  21  8
20  21  8
24  25  8
24  26  8
25  27  8
26  28  8
27  29  8
28  29  8
6  31  5
7  32  5

$$$$
