164613469
  -OEChem-09292322432D

 61 65  0     1  0  0  0  0  0999 V2000
    5.9237    3.9143    0.0000 O   0  0  0  0  0  0  0  0  0  0  0  0
    8.5497    2.3796    0.0000 O   0  0  0  0  0  0  0  0  0  0  0  0
    8.5618    6.4488    0.0000 O   0  0  0  0  0  0  0  0  0  0  0  0
    2.5061   -2.1949    0.0000 O   0  0  0  0  0  0  0  0  0  0  0  0
    5.9237    1.8449    0.0000 N   0  0  3  0  0  0  0  0  0  0  0  0
    4.2381   -2.1748    0.0000 N   0  0  0  0  0  0  0  0  0  0  0  0
    2.5915   -4.2776    0.0000 N   0  0  0  0  0  0  0  0  0  0  0  0
    6.8177    2.3796    0.0000 C   0  0  1  0  0  0  0  0  0  0  0  0
    6.8177    3.3796    0.0000 C   0  0  1  0  0  0  0  0  0  0  0  0
    5.0177    2.3588    0.0000 C   0  0  0  0  0  0  0  0  0  0  0  0
    7.6837    1.8796    0.0000 C   0  0  0  0  0  0  0  0  0  0  0  0
    5.9353    0.8450    0.0000 C   0  0  0  0  0  0  0  0  0  0  0  0
    7.6837    3.8796    0.0000 C   0  0  0  0  0  0  0  0  0  0  0  0
    5.0177    3.4004    0.0000 C   0  0  0  0  0  0  0  0  0  0  0  0
    5.0751    0.3350    0.0000 C   0  0  0  0  0  0  0  0  0  0  0  0
    8.5497    3.3796    0.0000 C   0  0  0  0  0  0  0  0  0  0  0  0
    7.6676    4.9211    0.0000 C   0  0  0  0  0  0  0  0  0  0  0  0
    5.0867   -0.6649    0.0000 C   0  0  0  0  0  0  0  0  0  0  0  0
    9.4597    3.8864    0.0000 C   0  0  0  0  0  0  0  0  0  0  0  0
    8.5657    5.4489    0.0000 C   0  0  0  0  0  0  0  0  0  0  0  0
    4.2265   -1.1749    0.0000 C   0  0  0  0  0  0  0  0  0  0  0  0
    9.4678    4.9280    0.0000 C   0  0  0  0  0  0  0  0  0  0  0  0
    3.3779   -2.6848    0.0000 C   0  0  0  0  0  0  0  0  0  0  0  0
    3.3894   -3.6847    0.0000 C   0  0  0  0  0  0  0  0  0  0  0  0
    9.4259    6.9522    0.0000 C   0  0  0  0  0  0  0  0  0  0  0  0
    4.2009   -4.2590    0.0000 C   0  0  0  0  0  0  0  0  0  0  0  0
    2.9072   -5.2202    0.0000 C   0  0  0  0  0  0  0  0  0  0  0  0
    3.9071   -5.2087    0.0000 C   0  0  0  0  0  0  0  0  0  0  0  0
    2.4172   -6.0920    0.0000 C   0  0  0  0  0  0  0  0  0  0  0  0
    4.4171   -6.0689    0.0000 C   0  0  0  0  0  0  0  0  0  0  0  0
    2.9272   -6.9522    0.0000 C   0  0  0  0  0  0  0  0  0  0  0  0
    3.9271   -6.9406    0.0000 C   0  0  0  0  0  0  0  0  0  0  0  0
    6.8242    1.5296    0.0000 H   0  0  0  0  0  0  0  0  0  0  0  0
    6.8242    4.2296    0.0000 H   0  0  0  0  0  0  0  0  0  0  0  0
    4.4068    2.4649    0.0000 H   0  0  0  0  0  0  0  0  0  0  0  0
    4.8086    1.7751    0.0000 H   0  0  0  0  0  0  0  0  0  0  0  0
    7.2852    1.4046    0.0000 H   0  0  0  0  0  0  0  0  0  0  0  0
    8.0822    1.4046    0.0000 H   0  0  0  0  0  0  0  0  0  0  0  0
    6.1541    0.2649    0.0000 H   0  0  0  0  0  0  0  0  0  0  0  0
    6.5446    0.9597    0.0000 H   0  0  0  0  0  0  0  0  0  0  0  0
    4.8086    3.9841    0.0000 H   0  0  0  0  0  0  0  0  0  0  0  0
    4.4068    3.2943    0.0000 H   0  0  0  0  0  0  0  0  0  0  0  0
    4.8564    0.9151    0.0000 H   0  0  0  0  0  0  0  0  0  0  0  0
    4.4658    0.2203    0.0000 H   0  0  0  0  0  0  0  0  0  0  0  0
    7.1272    5.2249    0.0000 H   0  0  0  0  0  0  0  0  0  0  0  0
    5.3055   -1.2450    0.0000 H   0  0  0  0  0  0  0  0  0  0  0  0
    5.6960   -0.5502    0.0000 H   0  0  0  0  0  0  0  0  0  0  0  0
    9.9930    3.5702    0.0000 H   0  0  0  0  0  0  0  0  0  0  0  0
    4.0077   -0.5948    0.0000 H   0  0  0  0  0  0  0  0  0  0  0  0
    3.6172   -1.2896    0.0000 H   0  0  0  0  0  0  0  0  0  0  0  0
   10.0059    5.2360    0.0000 H   0  0  0  0  0  0  0  0  0  0  0  0
    4.7786   -2.4786    0.0000 H   0  0  0  0  0  0  0  0  0  0  0  0
    9.7380    6.4164    0.0000 H   0  0  0  0  0  0  0  0  0  0  0  0
    9.9617    7.2642    0.0000 H   0  0  0  0  0  0  0  0  0  0  0  0
    9.1139    7.4879    0.0000 H   0  0  0  0  0  0  0  0  0  0  0  0
    2.0000   -4.0918    0.0000 H   0  0  0  0  0  0  0  0  0  0  0  0
    4.7879   -4.0596    0.0000 H   0  0  0  0  0  0  0  0  0  0  0  0
    1.7972   -6.0992    0.0000 H   0  0  0  0  0  0  0  0  0  0  0  0
    5.0370   -6.0617    0.0000 H   0  0  0  0  0  0  0  0  0  0  0  0
    2.6234   -7.4927    0.0000 H   0  0  0  0  0  0  0  0  0  0  0  0
    4.2433   -7.4739    0.0000 H   0  0  0  0  0  0  0  0  0  0  0  0
  1  9  1  0  0  0  0
  1 14  1  0  0  0  0
  2 11  1  0  0  0  0
  2 16  1  0  0  0  0
  3 20  1  0  0  0  0
  3 25  1  0  0  0  0
  4 23  2  0  0  0  0
  5  8  1  0  0  0  0
  5 10  1  0  0  0  0
  5 12  1  0  0  0  0
  6 21  1  0  0  0  0
  6 23  1  0  0  0  0
  6 52  1  0  0  0  0
  7 24  1  0  0  0  0
  7 27  1  0  0  0  0
  7 56  1  0  0  0  0
  8  9  1  0  0  0  0
  8 11  1  0  0  0  0
  8 33  1  6  0  0  0
  9 13  1  0  0  0  0
  9 34  1  1  0  0  0
 10 14  1  0  0  0  0
 10 35  1  0  0  0  0
 10 36  1  0  0  0  0
 11 37  1  0  0  0  0
 11 38  1  0  0  0  0
 12 15  1  0  0  0  0
 12 39  1  0  0  0  0
 12 40  1  0  0  0  0
 13 16  2  0  0  0  0
 13 17  1  0  0  0  0
 14 41  1  0  0  0  0
 14 42  1  0  0  0  0
 15 18  1  0  0  0  0
 15 43  1  0  0  0  0
 15 44  1  0  0  0  0
 16 19  1  0  0  0  0
 17 20  2  0  0  0  0
 17 45  1  0  0  0  0
 18 21  1  0  0  0  0
 18 46  1  0  0  0  0
 18 47  1  0  0  0  0
 19 22  2  0  0  0  0
 19 48  1  0  0  0  0
 20 22  1  0  0  0  0
 21 49  1  0  0  0  0
 21 50  1  0  0  0  0
 22 51  1  0  0  0  0
 23 24  1  0  0  0  0
 24 26  2  0  0  0  0
 25 53  1  0  0  0  0
 25 54  1  0  0  0  0
 25 55  1  0  0  0  0
 26 28  1  0  0  0  0
 26 57  1  0  0  0  0
 27 28  1  0  0  0  0
 27 29  2  0  0  0  0
 28 30  2  0  0  0  0
 29 31  1  0  0  0  0
 29 58  1  0  0  0  0
 30 32  1  0  0  0  0
 30 59  1  0  0  0  0
 31 32  2  0  0  0  0
 31 60  1  0  0  0  0
 32 61  1  0  0  0  0
M  END
> <PUBCHEM_COMPOUND_CID>
164613469

> <PUBCHEM_COMPOUND_CANONICALIZED>
1

> <PUBCHEM_CACTVS_COMPLEXITY>
634

> <PUBCHEM_CACTVS_HBOND_ACCEPTOR>
5

> <PUBCHEM_CACTVS_HBOND_DONOR>
2

> <PUBCHEM_CACTVS_ROTATABLE_BOND>
7

> <PUBCHEM_CACTVS_SUBSKEYS>
AAADceB7OAAAAAAAAAAAAAAAAAAAAWAAAAA8aIEAAAAAAFix9AAAHgAQAAAADDzhngYyxvPJlACoAyVyVACCiCAnIiAImaG+bNgOZ/LEtbuXOSjl1hHY6Yf42bOeAQABAAAKAAACAAIAABQAAAAAAAAAAA==

> <PUBCHEM_IUPAC_OPENEYE_NAME>
N-[4-[(4aR,10bR)-9-methoxy-3,4a,5,10b-tetrahydro-2H-chromeno[4,3-b][1,4]oxazin-4-yl]butyl]-1H-indole-2-carboxamide

> <PUBCHEM_IUPAC_CAS_NAME>
N-[4-[(4aR,10bR)-9-methoxy-3,4a,5,10b-tetrahydro-2H-[1]benzopyrano[4,3-b][1,4]oxazin-4-yl]butyl]-1H-indole-2-carboxamide

> <PUBCHEM_IUPAC_NAME_MARKUP>
<I>N</I>-[4-[(4<I>a</I><I>R</I>,10<I>b</I><I>R</I>)-9-methoxy-3,4<I>a</I>,5,10<I>b</I>-tetrahydro-2<I>H</I>-chromeno[4,3-b][1,4]oxazin-4-yl]butyl]-1<I>H</I>-indole-2-carboxamide

> <PUBCHEM_IUPAC_NAME>
N-[4-[(4aR,10bR)-9-methoxy-3,4a,5,10b-tetrahydro-2H-chromeno[4,3-b][1,4]oxazin-4-yl]butyl]-1H-indole-2-carboxamide

> <PUBCHEM_IUPAC_SYSTEMATIC_NAME>
N-[4-[(4aR,10bR)-9-methoxy-3,4a,5,10b-tetrahydro-2H-chromeno[4,3-b][1,4]oxazin-4-yl]butyl]-1H-indole-2-carboxamide

> <PUBCHEM_IUPAC_TRADITIONAL_NAME>
N-[4-[(4aR,10bR)-9-methoxy-3,4a,5,10b-tetrahydro-2H-chromeno[4,3-b][1,4]oxazin-4-yl]butyl]-1H-indole-2-carboxamide

> <PUBCHEM_IUPAC_INCHI>
InChI=1S/C25H29N3O4/c1-30-18-8-9-23-19(15-18)24-22(16-32-23)28(12-13-31-24)11-5-4-10-26-25(29)21-14-17-6-2-3-7-20(17)27-21/h2-3,6-9,14-15,22,24,27H,4-5,10-13,16H2,1H3,(H,26,29)/t22-,24-/m1/s1

> <PUBCHEM_IUPAC_INCHIKEY>
IGUDRQBHUOBFPO-ISKFKSNPSA-N

> <PUBCHEM_XLOGP3>
3.6

> <PUBCHEM_EXACT_MASS>
435.21580641

> <PUBCHEM_MOLECULAR_FORMULA>
C25H29N3O4

> <PUBCHEM_MOLECULAR_WEIGHT>
435.5

> <PUBCHEM_OPENEYE_CAN_SMILES>
COC1=CC2=C(C=C1)OCC3C2OCCN3CCCCNC(=O)C4=CC5=CC=CC=C5N4

> <PUBCHEM_OPENEYE_ISO_SMILES>
COC1=CC2=C(C=C1)OC[C@@H]3[C@@H]2OCCN3CCCCNC(=O)C4=CC5=CC=CC=C5N4

> <PUBCHEM_CACTVS_TPSA>
75.8

> <PUBCHEM_MONOISOTOPIC_WEIGHT>
435.21580641

> <PUBCHEM_TOTAL_CHARGE>
0

> <PUBCHEM_HEAVY_ATOM_COUNT>
32

> <PUBCHEM_ATOM_DEF_STEREO_COUNT>
2

> <PUBCHEM_ATOM_UDEF_STEREO_COUNT>
0

> <PUBCHEM_BOND_DEF_STEREO_COUNT>
0

> <PUBCHEM_BOND_UDEF_STEREO_COUNT>
0

> <PUBCHEM_ISOTOPIC_ATOM_COUNT>
0

> <PUBCHEM_COMPONENT_COUNT>
1

> <PUBCHEM_CACTVS_TAUTO_COUNT>
-1

> <PUBCHEM_COORDINATE_TYPE>
1
5
255

> <PUBCHEM_BONDANNOTATIONS>
13  16  8
13  17  8
16  19  8
17  20  8
19  22  8
20  22  8
24  26  8
26  28  8
27  28  8
27  29  8
28  30  8
29  31  8
30  32  8
31  32  8
7  24  8
7  27  8
8  33  6
9  34  5

$$$$
