40517075
  -OEChem-09292322192D

 42 45  0     0  0  0  0  0  0999 V2000
    8.9030    1.8870    0.0000 Cl  0  0  0  0  0  0  0  0  0  0  0  0
    6.2619   -0.6931    0.0000 S   0  0  0  0  0  0  0  0  0  0  0  0
    4.6783    0.1117    0.0000 N   0  0  0  0  0  0  0  0  0  0  0  0
    4.6783   -1.4978    0.0000 N   0  0  0  0  0  0  0  0  0  0  0  0
    4.9889    1.0622    0.0000 C   0  0  0  0  0  0  0  0  0  0  0  0
    3.7320   -0.1931    0.0000 C   0  0  0  0  0  0  0  0  0  0  0  0
    5.2619   -0.6931    0.0000 C   0  0  0  0  0  0  0  0  0  0  0  0
    3.7320   -1.1931    0.0000 C   0  0  0  0  0  0  0  0  0  0  0  0
    5.9674    1.2684    0.0000 C   0  0  0  0  0  0  0  0  0  0  0  0
    2.8660    0.3069    0.0000 C   0  0  0  0  0  0  0  0  0  0  0  0
    2.8660   -1.6931    0.0000 C   0  0  0  0  0  0  0  0  0  0  0  0
    6.7619   -1.5591    0.0000 C   0  0  0  0  0  0  0  0  0  0  0  0
    2.0000   -0.1931    0.0000 C   0  0  0  0  0  0  0  0  0  0  0  0
    6.2781    2.2189    0.0000 C   0  0  0  0  0  0  0  0  0  0  0  0
    6.6353    0.5241    0.0000 C   0  0  0  0  0  0  0  0  0  0  0  0
    2.0000   -1.1931    0.0000 C   0  0  0  0  0  0  0  0  0  0  0  0
    7.7619   -1.5591    0.0000 C   0  0  0  0  0  0  0  0  0  0  0  0
    7.2566    2.4251    0.0000 C   0  0  0  0  0  0  0  0  0  0  0  0
    7.6138    0.7303    0.0000 C   0  0  0  0  0  0  0  0  0  0  0  0
    7.9244    1.6808    0.0000 C   0  0  0  0  0  0  0  0  0  0  0  0
    8.2619   -2.4251    0.0000 C   0  0  0  0  0  0  0  0  0  0  0  0
    8.2619   -0.6931    0.0000 C   0  0  0  0  0  0  0  0  0  0  0  0
    9.2619   -2.4251    0.0000 C   0  0  0  0  0  0  0  0  0  0  0  0
    9.2619   -0.6931    0.0000 C   0  0  0  0  0  0  0  0  0  0  0  0
    9.7619   -1.5591    0.0000 C   0  0  0  0  0  0  0  0  0  0  0  0
    4.9684    1.6818    0.0000 H   0  0  0  0  0  0  0  0  0  0  0  0
    4.3751    1.1495    0.0000 H   0  0  0  0  0  0  0  0  0  0  0  0
    2.8660    0.9269    0.0000 H   0  0  0  0  0  0  0  0  0  0  0  0
    2.8660   -2.3131    0.0000 H   0  0  0  0  0  0  0  0  0  0  0  0
    6.1793   -1.7712    0.0000 H   0  0  0  0  0  0  0  0  0  0  0  0
    6.8695   -2.1697    0.0000 H   0  0  0  0  0  0  0  0  0  0  0  0
    1.4631    0.1169    0.0000 H   0  0  0  0  0  0  0  0  0  0  0  0
    5.8640    2.6804    0.0000 H   0  0  0  0  0  0  0  0  0  0  0  0
    6.4427   -0.0652    0.0000 H   0  0  0  0  0  0  0  0  0  0  0  0
    1.4631   -1.5031    0.0000 H   0  0  0  0  0  0  0  0  0  0  0  0
    7.4492    3.0144    0.0000 H   0  0  0  0  0  0  0  0  0  0  0  0
    8.0279    0.2688    0.0000 H   0  0  0  0  0  0  0  0  0  0  0  0
    7.9519   -2.9621    0.0000 H   0  0  0  0  0  0  0  0  0  0  0  0
    7.9519   -0.1561    0.0000 H   0  0  0  0  0  0  0  0  0  0  0  0
    9.5719   -2.9621    0.0000 H   0  0  0  0  0  0  0  0  0  0  0  0
    9.5719   -0.1561    0.0000 H   0  0  0  0  0  0  0  0  0  0  0  0
   10.3819   -1.5591    0.0000 H   0  0  0  0  0  0  0  0  0  0  0  0
  1 20  1  0  0  0  0
  2  7  1  0  0  0  0
  2 12  1  0  0  0  0
  3  5  1  0  0  0  0
  3  6  1  0  0  0  0
  3  7  1  0  0  0  0
  4  7  2  0  0  0  0
  4  8  1  0  0  0  0
  5  9  1  0  0  0  0
  5 26  1  0  0  0  0
  5 27  1  0  0  0  0
  6  8  1  0  0  0  0
  6 10  2  0  0  0  0
  8 11  2  0  0  0  0
  9 14  2  0  0  0  0
  9 15  1  0  0  0  0
 10 13  1  0  0  0  0
 10 28  1  0  0  0  0
 11 16  1  0  0  0  0
 11 29  1  0  0  0  0
 12 17  1  0  0  0  0
 12 30  1  0  0  0  0
 12 31  1  0  0  0  0
 13 16  2  0  0  0  0
 13 32  1  0  0  0  0
 14 18  1  0  0  0  0
 14 33  1  0  0  0  0
 15 19  2  0  0  0  0
 15 34  1  0  0  0  0
 16 35  1  0  0  0  0
 17 21  2  0  0  0  0
 17 22  1  0  0  0  0
 18 20  2  0  0  0  0
 18 36  1  0  0  0  0
 19 20  1  0  0  0  0
 19 37  1  0  0  0  0
 21 23  1  0  0  0  0
 21 38  1  0  0  0  0
 22 24  2  0  0  0  0
 22 39  1  0  0  0  0
 23 25  2  0  0  0  0
 23 40  1  0  0  0  0
 24 25  1  0  0  0  0
 24 41  1  0  0  0  0
 25 42  1  0  0  0  0
M  END
> <PUBCHEM_COMPOUND_CID>
40517075

> <PUBCHEM_COMPOUND_CANONICALIZED>
1

> <PUBCHEM_CACTVS_COMPLEXITY>
407

> <PUBCHEM_CACTVS_HBOND_ACCEPTOR>
2

> <PUBCHEM_CACTVS_HBOND_DONOR>
0

> <PUBCHEM_CACTVS_ROTATABLE_BOND>
5

> <PUBCHEM_CACTVS_SUBSKEYS>
AAADceB7AABEAAAAAAAAAAAAAAAAAWAAAAAwYMAAAAAAAFgB9AAAHAYAAAAADArFXiSx0LcMEAigAyRiZACC0C1hF7AJ2CA4dpiIaKLhm5GUIAhogALIyCcQgAAOBAAAAAAAACAIAAAAAAAAQAAAAAAAAA==

> <PUBCHEM_IUPAC_OPENEYE_NAME>
2-benzylsulfanyl-1-[(4-chlorophenyl)methyl]benzimidazole

> <PUBCHEM_IUPAC_CAS_NAME>
1-[(4-chlorophenyl)methyl]-2-(phenylmethylthio)benzimidazole

> <PUBCHEM_IUPAC_NAME_MARKUP>
2-benzylsulfanyl-1-[(4-chlorophenyl)methyl]benzimidazole

> <PUBCHEM_IUPAC_NAME>
2-benzylsulfanyl-1-[(4-chlorophenyl)methyl]benzimidazole

> <PUBCHEM_IUPAC_SYSTEMATIC_NAME>
1-[(4-chlorophenyl)methyl]-2-(phenylmethylsulfanyl)benzimidazole

> <PUBCHEM_IUPAC_TRADITIONAL_NAME>
2-(benzylthio)-1-(4-chlorobenzyl)benzimidazole

> <PUBCHEM_IUPAC_INCHI>
InChI=1S/C21H17ClN2S/c22-18-12-10-16(11-13-18)14-24-20-9-5-4-8-19(20)23-21(24)25-15-17-6-2-1-3-7-17/h1-13H,14-15H2

> <PUBCHEM_IUPAC_INCHIKEY>
GCXJQZIJYZOYJU-UHFFFAOYSA-N

> <PUBCHEM_XLOGP3_AA>
6

> <PUBCHEM_EXACT_MASS>
364.0800974

> <PUBCHEM_MOLECULAR_FORMULA>
C21H17ClN2S

> <PUBCHEM_MOLECULAR_WEIGHT>
364.9

> <PUBCHEM_OPENEYE_CAN_SMILES>
C1=CC=C(C=C1)CSC2=NC3=CC=CC=C3N2CC4=CC=C(C=C4)Cl

> <PUBCHEM_OPENEYE_ISO_SMILES>
C1=CC=C(C=C1)CSC2=NC3=CC=CC=C3N2CC4=CC=C(C=C4)Cl

> <PUBCHEM_CACTVS_TPSA>
43.1

> <PUBCHEM_MONOISOTOPIC_WEIGHT>
364.0800974

> <PUBCHEM_TOTAL_CHARGE>
0

> <PUBCHEM_HEAVY_ATOM_COUNT>
25

> <PUBCHEM_ATOM_DEF_STEREO_COUNT>
0

> <PUBCHEM_ATOM_UDEF_STEREO_COUNT>
0

> <PUBCHEM_BOND_DEF_STEREO_COUNT>
0

> <PUBCHEM_BOND_UDEF_STEREO_COUNT>
0

> <PUBCHEM_ISOTOPIC_ATOM_COUNT>
0

> <PUBCHEM_COMPONENT_COUNT>
1

> <PUBCHEM_CACTVS_TAUTO_COUNT>
-1

> <PUBCHEM_COORDINATE_TYPE>
1
5
255

> <PUBCHEM_BONDANNOTATIONS>
10  13  8
11  16  8
13  16  8
14  18  8
15  19  8
17  21  8
17  22  8
18  20  8
19  20  8
21  23  8
22  24  8
23  25  8
24  25  8
3  6  8
3  7  8
4  7  8
4  8  8
6  10  8
6  8  8
8  11  8
9  14  8
9  15  8

$$$$
