121304744
  -OEChem-09292322382D

 65 69  0     1  0  0  0  0  0999 V2000
    4.0878    0.5291    0.0000 S   0  0  0  0  0  0  0  0  0  0  0  0
    3.0000    6.8769    0.0000 S   0  0  0  0  0  0  0  0  0  0  0  0
    9.7800   -7.8209    0.0000 F   0  0  0  0  0  0  0  0  0  0  0  0
    8.4140   -8.1869    0.0000 F   0  0  0  0  0  0  0  0  0  0  0  0
    9.4140   -6.4549    0.0000 F   0  0  0  0  0  0  0  0  0  0  0  0
    2.0000    6.8769    0.0000 O   0  0  0  0  0  0  0  0  0  0  0  0
    4.0000    6.8769    0.0000 O   0  0  0  0  0  0  0  0  0  0  0  0
    4.4499   -2.9160    0.0000 N   0  0  3  0  0  0  0  0  0  0  0  0
    3.8090    2.2891    0.0000 N   0  0  0  0  0  0  0  0  0  0  0  0
    2.5000    1.3381    0.0000 N   0  0  0  0  0  0  0  0  0  0  0  0
    2.1910    2.2891    0.0000 N   0  0  0  0  0  0  0  0  0  0  0  0
    3.0000    7.8769    0.0000 N   0  0  0  0  0  0  0  0  0  0  0  0
    4.9499   -4.4549    0.0000 C   0  0  2  0  0  0  0  0  0  0  0  0
    5.4499   -5.3209    0.0000 C   0  0  2  0  0  0  0  0  0  0  0  0
    4.4499   -5.3209    0.0000 C   0  0  0  0  0  0  0  0  0  0  0  0
    5.7589   -3.8671    0.0000 C   0  0  0  0  0  0  0  0  0  0  0  0
    4.1409   -3.8671    0.0000 C   0  0  0  0  0  0  0  0  0  0  0  0
    5.4499   -2.9160    0.0000 C   0  0  0  0  0  0  0  0  0  0  0  0
    6.3159   -5.8209    0.0000 C   0  0  0  0  0  0  0  0  0  0  0  0
    3.8621   -2.1070    0.0000 C   0  0  0  0  0  0  0  0  0  0  0  0
    7.1819   -5.3209    0.0000 C   0  0  0  0  0  0  0  0  0  0  0  0
    6.3159   -6.8209    0.0000 C   0  0  0  0  0  0  0  0  0  0  0  0
    4.2688   -1.1935    0.0000 C   0  0  0  0  0  0  0  0  0  0  0  0
    8.0480   -5.8209    0.0000 C   0  0  0  0  0  0  0  0  0  0  0  0
    7.1819   -7.3209    0.0000 C   0  0  0  0  0  0  0  0  0  0  0  0
    8.0480   -6.8209    0.0000 C   0  0  0  0  0  0  0  0  0  0  0  0
    3.6810   -0.3845    0.0000 C   0  0  0  0  0  0  0  0  0  0  0  0
    8.9140   -7.3209    0.0000 C   0  0  0  0  0  0  0  0  0  0  0  0
    3.5000    1.3381    0.0000 C   0  0  0  0  0  0  0  0  0  0  0  0
    3.0000    2.8769    0.0000 C   0  0  0  0  0  0  0  0  0  0  0  0
    4.7601    2.5982    0.0000 C   0  0  0  0  0  0  0  0  0  0  0  0
    3.0000    3.8769    0.0000 C   0  0  0  0  0  0  0  0  0  0  0  0
    2.1340    4.3769    0.0000 C   0  0  0  0  0  0  0  0  0  0  0  0
    3.8660    4.3769    0.0000 C   0  0  0  0  0  0  0  0  0  0  0  0
    2.1340    5.3769    0.0000 C   0  0  0  0  0  0  0  0  0  0  0  0
    3.8660    5.3769    0.0000 C   0  0  0  0  0  0  0  0  0  0  0  0
    3.0000    5.8769    0.0000 C   0  0  0  0  0  0  0  0  0  0  0  0
    5.2894   -5.9198    0.0000 H   0  0  0  0  0  0  0  0  0  0  0  0
    3.8673   -5.1089    0.0000 H   0  0  0  0  0  0  0  0  0  0  0  0
    4.3422   -5.9315    0.0000 H   0  0  0  0  0  0  0  0  0  0  0  0
    6.0689   -4.4040    0.0000 H   0  0  0  0  0  0  0  0  0  0  0  0
    6.3253   -3.6149    0.0000 H   0  0  0  0  0  0  0  0  0  0  0  0
    3.5745   -3.6149    0.0000 H   0  0  0  0  0  0  0  0  0  0  0  0
    3.8309   -4.4040    0.0000 H   0  0  0  0  0  0  0  0  0  0  0  0
    6.0563   -2.7871    0.0000 H   0  0  0  0  0  0  0  0  0  0  0  0
    5.3851   -2.2994    0.0000 H   0  0  0  0  0  0  0  0  0  0  0  0
    3.3481   -1.7603    0.0000 H   0  0  0  0  0  0  0  0  0  0  0  0
    3.4314   -2.5530    0.0000 H   0  0  0  0  0  0  0  0  0  0  0  0
    7.1819   -4.7009    0.0000 H   0  0  0  0  0  0  0  0  0  0  0  0
    5.7790   -7.1309    0.0000 H   0  0  0  0  0  0  0  0  0  0  0  0
    4.7828   -1.5402    0.0000 H   0  0  0  0  0  0  0  0  0  0  0  0
    4.6995   -0.7475    0.0000 H   0  0  0  0  0  0  0  0  0  0  0  0
    8.5849   -5.5109    0.0000 H   0  0  0  0  0  0  0  0  0  0  0  0
    7.1819   -7.9409    0.0000 H   0  0  0  0  0  0  0  0  0  0  0  0
    3.1670   -0.0378    0.0000 H   0  0  0  0  0  0  0  0  0  0  0  0
    3.2504   -0.8305    0.0000 H   0  0  0  0  0  0  0  0  0  0  0  0
    4.9517    2.0085    0.0000 H   0  0  0  0  0  0  0  0  0  0  0  0
    5.3497    2.7898    0.0000 H   0  0  0  0  0  0  0  0  0  0  0  0
    4.5685    3.1878    0.0000 H   0  0  0  0  0  0  0  0  0  0  0  0
    1.5970    4.0669    0.0000 H   0  0  0  0  0  0  0  0  0  0  0  0
    4.4030    4.0669    0.0000 H   0  0  0  0  0  0  0  0  0  0  0  0
    1.5970    5.6869    0.0000 H   0  0  0  0  0  0  0  0  0  0  0  0
    4.4030    5.6869    0.0000 H   0  0  0  0  0  0  0  0  0  0  0  0
    2.4631    8.1869    0.0000 H   0  0  0  0  0  0  0  0  0  0  0  0
    3.5369    8.1869    0.0000 H   0  0  0  0  0  0  0  0  0  0  0  0
  1 27  1  0  0  0  0
  1 29  1  0  0  0  0
  2  6  2  0  0  0  0
  2  7  2  0  0  0  0
  2 12  1  0  0  0  0
  2 37  1  0  0  0  0
  3 28  1  0  0  0  0
  4 28  1  0  0  0  0
  5 28  1  0  0  0  0
  8 17  1  0  0  0  0
  8 18  1  0  0  0  0
  8 20  1  0  0  0  0
  9 29  1  0  0  0  0
  9 30  1  0  0  0  0
  9 31  1  0  0  0  0
 10 11  1  0  0  0  0
 10 29  2  0  0  0  0
 11 30  2  0  0  0  0
 12 64  1  0  0  0  0
 12 65  1  0  0  0  0
 13 14  1  0  0  0  0
 13 15  1  6  0  0  0
 13 16  1  0  0  0  0
 13 17  1  0  0  0  0
 14 15  1  0  0  0  0
 14 19  1  1  0  0  0
 14 38  1  0  0  0  0
 15 39  1  0  0  0  0
 15 40  1  0  0  0  0
 16 18  1  0  0  0  0
 16 41  1  0  0  0  0
 16 42  1  0  0  0  0
 17 43  1  0  0  0  0
 17 44  1  0  0  0  0
 18 45  1  0  0  0  0
 18 46  1  0  0  0  0
 19 21  2  0  0  0  0
 19 22  1  0  0  0  0
 20 23  1  0  0  0  0
 20 47  1  0  0  0  0
 20 48  1  0  0  0  0
 21 24  1  0  0  0  0
 21 49  1  0  0  0  0
 22 25  2  0  0  0  0
 22 50  1  0  0  0  0
 23 27  1  0  0  0  0
 23 51  1  0  0  0  0
 23 52  1  0  0  0  0
 24 26  2  0  0  0  0
 24 53  1  0  0  0  0
 25 26  1  0  0  0  0
 25 54  1  0  0  0  0
 26 28  1  0  0  0  0
 27 55  1  0  0  0  0
 27 56  1  0  0  0  0
 30 32  1  0  0  0  0
 31 57  1  0  0  0  0
 31 58  1  0  0  0  0
 31 59  1  0  0  0  0
 32 33  2  0  0  0  0
 32 34  1  0  0  0  0
 33 35  1  0  0  0  0
 33 60  1  0  0  0  0
 34 36  2  0  0  0  0
 34 61  1  0  0  0  0
 35 37  2  0  0  0  0
 35 62  1  0  0  0  0
 36 37  1  0  0  0  0
 36 63  1  0  0  0  0
M  END
> <PUBCHEM_COMPOUND_CID>
121304744

> <PUBCHEM_COMPOUND_CANONICALIZED>
1

> <PUBCHEM_CACTVS_COMPLEXITY>
888

> <PUBCHEM_CACTVS_HBOND_ACCEPTOR>
10

> <PUBCHEM_CACTVS_HBOND_DONOR>
1

> <PUBCHEM_CACTVS_ROTATABLE_BOND>
8

> <PUBCHEM_CACTVS_SUBSKEYS>
AAADceB7sYBgAAAAAAAAAAAAGAAAAWLAAAAwYAAAAAAAAAAB0AAAHQQYQAAADwDFWxSzEYcMEAqiAiJiJHDS0BtgALAdyDgoBJiIKKKgmRGEIAhgiAKIiAcQgMAP0AAAAAAAAACgAAAAAAAAAAAAAAAAAA==

> <PUBCHEM_IUPAC_OPENEYE_NAME>
4-[4-methyl-5-[3-[(2R,3S)-2-[4-(trifluoromethyl)phenyl]-5-azaspiro[2.4]heptan-5-yl]propylsulfanyl]-1,2,4-triazol-3-yl]benzenesulfonamide

> <PUBCHEM_IUPAC_CAS_NAME>
4-[4-methyl-5-[3-[(2R,3S)-2-[4-(trifluoromethyl)phenyl]-5-azaspiro[2.4]heptan-5-yl]propylthio]-1,2,4-triazol-3-yl]benzenesulfonamide

> <PUBCHEM_IUPAC_NAME_MARKUP>
4-[4-methyl-5-[3-[(2<I>R</I>,3<I>S</I>)-2-[4-(trifluoromethyl)phenyl]-5-azaspiro[2.4]heptan-5-yl]propylsulfanyl]-1,2,4-triazol-3-yl]benzenesulfonamide

> <PUBCHEM_IUPAC_NAME>
4-[4-methyl-5-[3-[(2R,3S)-2-[4-(trifluoromethyl)phenyl]-5-azaspiro[2.4]heptan-5-yl]propylsulfanyl]-1,2,4-triazol-3-yl]benzenesulfonamide

> <PUBCHEM_IUPAC_SYSTEMATIC_NAME>
4-[4-methyl-5-[3-[(2R,3S)-2-[4-(trifluoromethyl)phenyl]-5-azaspiro[2.4]heptan-5-yl]propylsulfanyl]-1,2,4-triazol-3-yl]benzenesulfonamide

> <PUBCHEM_IUPAC_TRADITIONAL_NAME>
4-[4-methyl-5-[3-[(2R,3S)-2-[4-(trifluoromethyl)phenyl]-5-azaspiro[2.4]heptan-5-yl]propylthio]-1,2,4-triazol-3-yl]benzenesulfonamide

> <PUBCHEM_IUPAC_INCHI>
InChI=1S/C25H28F3N5O2S2/c1-32-22(18-5-9-20(10-6-18)37(29,34)35)30-31-23(32)36-14-2-12-33-13-11-24(16-33)15-21(24)17-3-7-19(8-4-17)25(26,27)28/h3-10,21H,2,11-16H2,1H3,(H2,29,34,35)/t21-,24+/m1/s1

> <PUBCHEM_IUPAC_INCHIKEY>
HZISGJVOPZSKRZ-QPPBQGQZSA-N

> <PUBCHEM_XLOGP3_AA>
3.9

> <PUBCHEM_EXACT_MASS>
551.16365199

> <PUBCHEM_MOLECULAR_FORMULA>
C25H28F3N5O2S2

> <PUBCHEM_MOLECULAR_WEIGHT>
551.7

> <PUBCHEM_OPENEYE_CAN_SMILES>
CN1C(=NN=C1SCCCN2CCC3(C2)CC3C4=CC=C(C=C4)C(F)(F)F)C5=CC=C(C=C5)S(=O)(=O)N

> <PUBCHEM_OPENEYE_ISO_SMILES>
CN1C(=NN=C1SCCCN2CC[C@@]3(C2)C[C@@H]3C4=CC=C(C=C4)C(F)(F)F)C5=CC=C(C=C5)S(=O)(=O)N

> <PUBCHEM_CACTVS_TPSA>
128

> <PUBCHEM_MONOISOTOPIC_WEIGHT>
551.16365199

> <PUBCHEM_TOTAL_CHARGE>
0

> <PUBCHEM_HEAVY_ATOM_COUNT>
37

> <PUBCHEM_ATOM_DEF_STEREO_COUNT>
2

> <PUBCHEM_ATOM_UDEF_STEREO_COUNT>
0

> <PUBCHEM_BOND_DEF_STEREO_COUNT>
0

> <PUBCHEM_BOND_UDEF_STEREO_COUNT>
0

> <PUBCHEM_ISOTOPIC_ATOM_COUNT>
0

> <PUBCHEM_COMPONENT_COUNT>
1

> <PUBCHEM_CACTVS_TAUTO_COUNT>
-1

> <PUBCHEM_COORDINATE_TYPE>
1
5
255

> <PUBCHEM_BONDANNOTATIONS>
10  11  8
10  29  8
11  30  8
13  15  6
14  19  5
19  21  8
19  22  8
21  24  8
22  25  8
24  26  8
25  26  8
32  33  8
32  34  8
33  35  8
34  36  8
35  37  8
36  37  8
9  29  8
9  30  8

$$$$
