44415807
  -OEChem-09292322282D

 59 63  0     0  0  0  0  0  0999 V2000
    2.0000    0.6798    0.0000 Cl  0  0  0  0  0  0  0  0  0  0  0  0
    7.5695   -1.6473    0.0000 O   0  0  0  0  0  0  0  0  0  0  0  0
    4.9036    2.4444    0.0000 N   0  0  0  0  0  0  0  0  0  0  0  0
    4.0358    4.2463    0.0000 N   0  0  0  0  0  0  0  0  0  0  0  0
    5.8374   -0.6473    0.0000 N   0  0  0  0  0  0  0  0  0  0  0  0
    6.3374    1.5434    0.0000 N   0  0  0  0  0  0  0  0  0  0  0  0
    5.8374   -1.6473    0.0000 N   0  0  0  0  0  0  0  0  0  0  0  0
    3.9064    2.5191    0.0000 C   0  0  0  0  0  0  0  0  0  0  0  0
    5.4669    3.2706    0.0000 C   0  0  0  0  0  0  0  0  0  0  0  0
    3.4725    3.4201    0.0000 C   0  0  0  0  0  0  0  0  0  0  0  0
    5.0330    4.1716    0.0000 C   0  0  0  0  0  0  0  0  0  0  0  0
    5.3374    1.5434    0.0000 C   0  0  0  0  0  0  0  0  0  0  0  0
    4.7139    0.7616    0.0000 C   0  0  0  0  0  0  0  0  0  0  0  0
    3.6019    5.1473    0.0000 C   0  0  0  0  0  0  0  0  0  0  0  0
    4.9364   -0.2134    0.0000 C   0  0  0  0  0  0  0  0  0  0  0  0
    6.7384   -0.2134    0.0000 C   0  0  0  0  0  0  0  0  0  0  0  0
    6.9609    0.7615    0.0000 C   0  0  0  0  0  0  0  0  0  0  0  0
    3.7234    1.0839    0.0000 C   0  0  0  0  0  0  0  0  0  0  0  0
    4.1839   -0.9335    0.0000 C   0  0  0  0  0  0  0  0  0  0  0  0
    2.9544    0.3813    0.0000 C   0  0  0  0  0  0  0  0  0  0  0  0
    7.4909   -0.9336    0.0000 C   0  0  0  0  0  0  0  0  0  0  0  0
    7.9514    1.0839    0.0000 C   0  0  0  0  0  0  0  0  0  0  0  0
    3.1862   -0.6342    0.0000 C   0  0  0  0  0  0  0  0  0  0  0  0
    8.4886   -0.6342    0.0000 C   0  0  0  0  0  0  0  0  0  0  0  0
    8.7204    0.3813    0.0000 C   0  0  0  0  0  0  0  0  0  0  0  0
    6.7034   -2.1473    0.0000 C   0  0  0  0  0  0  0  0  0  0  0  0
    6.7034   -3.1473    0.0000 C   0  0  0  0  0  0  0  0  0  0  0  0
    5.8374   -3.6473    0.0000 C   0  0  0  0  0  0  0  0  0  0  0  0
    7.5694   -3.6473    0.0000 C   0  0  0  0  0  0  0  0  0  0  0  0
    5.8374   -4.6473    0.0000 C   0  0  0  0  0  0  0  0  0  0  0  0
    4.9714   -3.1473    0.0000 C   0  0  0  0  0  0  0  0  0  0  0  0
    7.5694   -4.6473    0.0000 C   0  0  0  0  0  0  0  0  0  0  0  0
    6.7034   -5.1473    0.0000 C   0  0  0  0  0  0  0  0  0  0  0  0
    3.3095    2.3512    0.0000 H   0  0  0  0  0  0  0  0  0  0  0  0
    3.9681    1.9022    0.0000 H   0  0  0  0  0  0  0  0  0  0  0  0
    5.9107    2.8377    0.0000 H   0  0  0  0  0  0  0  0  0  0  0  0
    5.9703    3.6325    0.0000 H   0  0  0  0  0  0  0  0  0  0  0  0
    3.0286    3.8530    0.0000 H   0  0  0  0  0  0  0  0  0  0  0  0
    2.9691    3.0582    0.0000 H   0  0  0  0  0  0  0  0  0  0  0  0
    5.6298    4.3395    0.0000 H   0  0  0  0  0  0  0  0  0  0  0  0
    4.9713    4.7885    0.0000 H   0  0  0  0  0  0  0  0  0  0  0  0
    4.1605    5.4163    0.0000 H   0  0  0  0  0  0  0  0  0  0  0  0
    3.3329    5.7059    0.0000 H   0  0  0  0  0  0  0  0  0  0  0  0
    3.0433    4.8783    0.0000 H   0  0  0  0  0  0  0  0  0  0  0  0
    3.5925    1.6899    0.0000 H   0  0  0  0  0  0  0  0  0  0  0  0
    4.3288   -1.5364    0.0000 H   0  0  0  0  0  0  0  0  0  0  0  0
    5.3005   -1.9573    0.0000 H   0  0  0  0  0  0  0  0  0  0  0  0
    7.3460   -1.5364    0.0000 H   0  0  0  0  0  0  0  0  0  0  0  0
    8.0824    1.6899    0.0000 H   0  0  0  0  0  0  0  0  0  0  0  0
    2.7333   -1.0576    0.0000 H   0  0  0  0  0  0  0  0  0  0  0  0
    8.9415   -1.0577    0.0000 H   0  0  0  0  0  0  0  0  0  0  0  0
    9.3122    0.5663    0.0000 H   0  0  0  0  0  0  0  0  0  0  0  0
    8.1064   -3.3373    0.0000 H   0  0  0  0  0  0  0  0  0  0  0  0
    5.3004   -4.9573    0.0000 H   0  0  0  0  0  0  0  0  0  0  0  0
    5.2814   -2.6103    0.0000 H   0  0  0  0  0  0  0  0  0  0  0  0
    4.4344   -2.8372    0.0000 H   0  0  0  0  0  0  0  0  0  0  0  0
    4.6614   -3.6842    0.0000 H   0  0  0  0  0  0  0  0  0  0  0  0
    8.1064   -4.9573    0.0000 H   0  0  0  0  0  0  0  0  0  0  0  0
    6.7034   -5.7673    0.0000 H   0  0  0  0  0  0  0  0  0  0  0  0
  1 20  1  0  0  0  0
  2 26  2  0  0  0  0
  3  8  1  0  0  0  0
  3  9  1  0  0  0  0
  3 12  1  0  0  0  0
  4 10  1  0  0  0  0
  4 11  1  0  0  0  0
  4 14  1  0  0  0  0
  5  7  1  0  0  0  0
  5 15  1  0  0  0  0
  5 16  1  0  0  0  0
  6 12  2  0  0  0  0
  6 17  1  0  0  0  0
  7 26  1  0  0  0  0
  7 47  1  0  0  0  0
  8 10  1  0  0  0  0
  8 34  1  0  0  0  0
  8 35  1  0  0  0  0
  9 11  1  0  0  0  0
  9 36  1  0  0  0  0
  9 37  1  0  0  0  0
 10 38  1  0  0  0  0
 10 39  1  0  0  0  0
 11 40  1  0  0  0  0
 11 41  1  0  0  0  0
 12 13  1  0  0  0  0
 13 15  2  0  0  0  0
 13 18  1  0  0  0  0
 14 42  1  0  0  0  0
 14 43  1  0  0  0  0
 14 44  1  0  0  0  0
 15 19  1  0  0  0  0
 16 17  1  0  0  0  0
 16 21  2  0  0  0  0
 17 22  2  0  0  0  0
 18 20  2  0  0  0  0
 18 45  1  0  0  0  0
 19 23  2  0  0  0  0
 19 46  1  0  0  0  0
 20 23  1  0  0  0  0
 21 24  1  0  0  0  0
 21 48  1  0  0  0  0
 22 25  1  0  0  0  0
 22 49  1  0  0  0  0
 23 50  1  0  0  0  0
 24 25  2  0  0  0  0
 24 51  1  0  0  0  0
 25 52  1  0  0  0  0
 26 27  1  0  0  0  0
 27 28  1  0  0  0  0
 27 29  2  0  0  0  0
 28 30  2  0  0  0  0
 28 31  1  0  0  0  0
 29 32  1  0  0  0  0
 29 53  1  0  0  0  0
 30 33  1  0  0  0  0
 30 54  1  0  0  0  0
 31 55  1  0  0  0  0
 31 56  1  0  0  0  0
 31 57  1  0  0  0  0
 32 33  2  0  0  0  0
 32 58  1  0  0  0  0
 33 59  1  0  0  0  0
M  END
> <PUBCHEM_COMPOUND_CID>
44415807

> <PUBCHEM_COMPOUND_CANONICALIZED>
1

> <PUBCHEM_CACTVS_COMPLEXITY>
724

> <PUBCHEM_CACTVS_HBOND_ACCEPTOR>
4

> <PUBCHEM_CACTVS_HBOND_DONOR>
1

> <PUBCHEM_CACTVS_ROTATABLE_BOND>
3

> <PUBCHEM_CACTVS_SUBSKEYS>
AAADceB7oAAEAAAAAAAAAAAAAAAAAAAAAAA8YMEABAAAAAABUAAAHgIYAAAADArBmCQzwINiAACoAidydACCBAElBwAbqAEodtgIYPLB35GUIQhggADIyYcYiICOgABAIAASACAAAIBAACQAQAAAAAAAAA==

> <PUBCHEM_IUPAC_OPENEYE_NAME>
N-[8-chloro-6-(4-methylpiperazin-1-yl)benzo[b][1,4]benzodiazepin-11-yl]-2-methyl-benzamide

> <PUBCHEM_IUPAC_CAS_NAME>
N-[8-chloro-6-(4-methyl-1-piperazinyl)-11-benzo[b][1,4]benzodiazepinyl]-2-methylbenzamide

> <PUBCHEM_IUPAC_NAME_MARKUP>
<I>N</I>-[8-chloro-6-(4-methylpiperazin-1-yl)benzo[b][1,4]benzodiazepin-11-yl]-2-methylbenzamide

> <PUBCHEM_IUPAC_NAME>
N-[8-chloro-6-(4-methylpiperazin-1-yl)benzo[b][1,4]benzodiazepin-11-yl]-2-methylbenzamide

> <PUBCHEM_IUPAC_SYSTEMATIC_NAME>
N-[8-chloranyl-6-(4-methylpiperazin-1-yl)benzo[b][1,4]benzodiazepin-11-yl]-2-methyl-benzamide

> <PUBCHEM_IUPAC_TRADITIONAL_NAME>
N-[8-chloro-6-(4-methylpiperazino)benzo[b][1,4]benzodiazepin-11-yl]-2-methyl-benzamide

> <PUBCHEM_IUPAC_INCHI>
InChI=1S/C26H26ClN5O/c1-18-7-3-4-8-20(18)26(33)29-32-23-12-11-19(27)17-21(23)25(31-15-13-30(2)14-16-31)28-22-9-5-6-10-24(22)32/h3-12,17H,13-16H2,1-2H3,(H,29,33)

> <PUBCHEM_IUPAC_INCHIKEY>
QQTQZOHDWMKOJZ-UHFFFAOYSA-N

> <PUBCHEM_XLOGP3_AA>
4.7

> <PUBCHEM_EXACT_MASS>
459.1825882

> <PUBCHEM_MOLECULAR_FORMULA>
C26H26ClN5O

> <PUBCHEM_MOLECULAR_WEIGHT>
460.0

> <PUBCHEM_OPENEYE_CAN_SMILES>
CC1=CC=CC=C1C(=O)NN2C3=C(C=C(C=C3)Cl)C(=NC4=CC=CC=C42)N5CCN(CC5)C

> <PUBCHEM_OPENEYE_ISO_SMILES>
CC1=CC=CC=C1C(=O)NN2C3=C(C=C(C=C3)Cl)C(=NC4=CC=CC=C42)N5CCN(CC5)C

> <PUBCHEM_CACTVS_TPSA>
51.2

> <PUBCHEM_MONOISOTOPIC_WEIGHT>
459.1825882

> <PUBCHEM_TOTAL_CHARGE>
0

> <PUBCHEM_HEAVY_ATOM_COUNT>
33

> <PUBCHEM_ATOM_DEF_STEREO_COUNT>
0

> <PUBCHEM_ATOM_UDEF_STEREO_COUNT>
0

> <PUBCHEM_BOND_DEF_STEREO_COUNT>
0

> <PUBCHEM_BOND_UDEF_STEREO_COUNT>
0

> <PUBCHEM_ISOTOPIC_ATOM_COUNT>
0

> <PUBCHEM_COMPONENT_COUNT>
1

> <PUBCHEM_CACTVS_TAUTO_COUNT>
-1

> <PUBCHEM_COORDINATE_TYPE>
1
5
255

> <PUBCHEM_BONDANNOTATIONS>
13  15  8
13  18  8
15  19  8
16  17  8
16  21  8
17  22  8
18  20  8
19  23  8
20  23  8
21  24  8
22  25  8
24  25  8
27  28  8
27  29  8
28  30  8
29  32  8
30  33  8
32  33  8

$$$$
