121304430
  -OEChem-09292322372D

 56 60  0     1  0  0  0  0  0999 V2000
    3.9538    1.2511    0.0000 S   0  0  0  0  0  0  0  0  0  0  0  0
    8.7800   -6.5989    0.0000 F   0  0  0  0  0  0  0  0  0  0  0  0
    4.3159   -2.1941    0.0000 N   0  0  3  0  0  0  0  0  0  0  0  0
    3.6750    3.0111    0.0000 N   0  0  0  0  0  0  0  0  0  0  0  0
    2.3660    2.0601    0.0000 N   0  0  0  0  0  0  0  0  0  0  0  0
    2.0570    3.0111    0.0000 N   0  0  0  0  0  0  0  0  0  0  0  0
    2.0000    6.0989    0.0000 N   0  0  0  0  0  0  0  0  0  0  0  0
    4.8159   -3.7329    0.0000 C   0  0  2  0  0  0  0  0  0  0  0  0
    5.3159   -4.5989    0.0000 C   0  0  2  0  0  0  0  0  0  0  0  0
    4.3159   -4.5989    0.0000 C   0  0  0  0  0  0  0  0  0  0  0  0
    5.6249   -3.1451    0.0000 C   0  0  0  0  0  0  0  0  0  0  0  0
    4.0069   -3.1451    0.0000 C   0  0  0  0  0  0  0  0  0  0  0  0
    5.3159   -2.1941    0.0000 C   0  0  0  0  0  0  0  0  0  0  0  0
    6.1819   -5.0989    0.0000 C   0  0  0  0  0  0  0  0  0  0  0  0
    3.7281   -1.3850    0.0000 C   0  0  0  0  0  0  0  0  0  0  0  0
    7.0480   -4.5989    0.0000 C   0  0  0  0  0  0  0  0  0  0  0  0
    6.1819   -6.0989    0.0000 C   0  0  0  0  0  0  0  0  0  0  0  0
    4.1349   -0.4715    0.0000 C   0  0  0  0  0  0  0  0  0  0  0  0
    7.9140   -5.0989    0.0000 C   0  0  0  0  0  0  0  0  0  0  0  0
    7.0480   -6.5989    0.0000 C   0  0  0  0  0  0  0  0  0  0  0  0
    3.5471    0.3375    0.0000 C   0  0  0  0  0  0  0  0  0  0  0  0
    7.9140   -6.0989    0.0000 C   0  0  0  0  0  0  0  0  0  0  0  0
    3.3660    2.0601    0.0000 C   0  0  0  0  0  0  0  0  0  0  0  0
    2.8660    3.5989    0.0000 C   0  0  0  0  0  0  0  0  0  0  0  0
    4.6261    3.3202    0.0000 C   0  0  0  0  0  0  0  0  0  0  0  0
    2.8660    4.5989    0.0000 C   0  0  0  0  0  0  0  0  0  0  0  0
    3.7320    5.0989    0.0000 C   0  0  0  0  0  0  0  0  0  0  0  0
    2.0000    5.0989    0.0000 C   0  0  0  0  0  0  0  0  0  0  0  0
    3.7320    6.0989    0.0000 C   0  0  0  0  0  0  0  0  0  0  0  0
    2.8660    6.5989    0.0000 C   0  0  0  0  0  0  0  0  0  0  0  0
    5.1554   -5.1978    0.0000 H   0  0  0  0  0  0  0  0  0  0  0  0
    3.7333   -4.3869    0.0000 H   0  0  0  0  0  0  0  0  0  0  0  0
    4.2082   -5.2095    0.0000 H   0  0  0  0  0  0  0  0  0  0  0  0
    5.9349   -3.6820    0.0000 H   0  0  0  0  0  0  0  0  0  0  0  0
    6.1913   -2.8929    0.0000 H   0  0  0  0  0  0  0  0  0  0  0  0
    3.4405   -2.8929    0.0000 H   0  0  0  0  0  0  0  0  0  0  0  0
    3.6969   -3.6820    0.0000 H   0  0  0  0  0  0  0  0  0  0  0  0
    5.9224   -2.0652    0.0000 H   0  0  0  0  0  0  0  0  0  0  0  0
    5.2511   -1.5774    0.0000 H   0  0  0  0  0  0  0  0  0  0  0  0
    3.2141   -1.0383    0.0000 H   0  0  0  0  0  0  0  0  0  0  0  0
    3.2974   -1.8310    0.0000 H   0  0  0  0  0  0  0  0  0  0  0  0
    7.0480   -3.9789    0.0000 H   0  0  0  0  0  0  0  0  0  0  0  0
    5.6450   -6.4089    0.0000 H   0  0  0  0  0  0  0  0  0  0  0  0
    4.6489   -0.8182    0.0000 H   0  0  0  0  0  0  0  0  0  0  0  0
    4.5656   -0.0255    0.0000 H   0  0  0  0  0  0  0  0  0  0  0  0
    8.4509   -4.7889    0.0000 H   0  0  0  0  0  0  0  0  0  0  0  0
    7.0480   -7.2189    0.0000 H   0  0  0  0  0  0  0  0  0  0  0  0
    3.0331    0.6842    0.0000 H   0  0  0  0  0  0  0  0  0  0  0  0
    3.1164   -0.1085    0.0000 H   0  0  0  0  0  0  0  0  0  0  0  0
    4.8177    2.7305    0.0000 H   0  0  0  0  0  0  0  0  0  0  0  0
    5.2158    3.5118    0.0000 H   0  0  0  0  0  0  0  0  0  0  0  0
    4.4345    3.9098    0.0000 H   0  0  0  0  0  0  0  0  0  0  0  0
    4.2690    4.7889    0.0000 H   0  0  0  0  0  0  0  0  0  0  0  0
    1.4631    4.7889    0.0000 H   0  0  0  0  0  0  0  0  0  0  0  0
    4.2690    6.4089    0.0000 H   0  0  0  0  0  0  0  0  0  0  0  0
    2.8660    7.2189    0.0000 H   0  0  0  0  0  0  0  0  0  0  0  0
  1 21  1  0  0  0  0
  1 23  1  0  0  0  0
  2 22  1  0  0  0  0
  3 12  1  0  0  0  0
  3 13  1  0  0  0  0
  3 15  1  0  0  0  0
  4 23  1  0  0  0  0
  4 24  1  0  0  0  0
  4 25  1  0  0  0  0
  5  6  1  0  0  0  0
  5 23  2  0  0  0  0
  6 24  2  0  0  0  0
  7 28  1  0  0  0  0
  7 30  2  0  0  0  0
  8  9  1  0  0  0  0
  8 10  1  6  0  0  0
  8 11  1  0  0  0  0
  8 12  1  0  0  0  0
  9 10  1  0  0  0  0
  9 14  1  1  0  0  0
  9 31  1  0  0  0  0
 10 32  1  0  0  0  0
 10 33  1  0  0  0  0
 11 13  1  0  0  0  0
 11 34  1  0  0  0  0
 11 35  1  0  0  0  0
 12 36  1  0  0  0  0
 12 37  1  0  0  0  0
 13 38  1  0  0  0  0
 13 39  1  0  0  0  0
 14 16  2  0  0  0  0
 14 17  1  0  0  0  0
 15 18  1  0  0  0  0
 15 40  1  0  0  0  0
 15 41  1  0  0  0  0
 16 19  1  0  0  0  0
 16 42  1  0  0  0  0
 17 20  2  0  0  0  0
 17 43  1  0  0  0  0
 18 21  1  0  0  0  0
 18 44  1  0  0  0  0
 18 45  1  0  0  0  0
 19 22  2  0  0  0  0
 19 46  1  0  0  0  0
 20 22  1  0  0  0  0
 20 47  1  0  0  0  0
 21 48  1  0  0  0  0
 21 49  1  0  0  0  0
 24 26  1  0  0  0  0
 25 50  1  0  0  0  0
 25 51  1  0  0  0  0
 25 52  1  0  0  0  0
 26 27  1  0  0  0  0
 26 28  2  0  0  0  0
 27 29  2  0  0  0  0
 27 53  1  0  0  0  0
 28 54  1  0  0  0  0
 29 30  1  0  0  0  0
 29 55  1  0  0  0  0
 30 56  1  0  0  0  0
M  END
> <PUBCHEM_COMPOUND_CID>
121304430

> <PUBCHEM_COMPOUND_CANONICALIZED>
1

> <PUBCHEM_CACTVS_COMPLEXITY>
574

> <PUBCHEM_CACTVS_HBOND_ACCEPTOR>
6

> <PUBCHEM_CACTVS_HBOND_DONOR>
0

> <PUBCHEM_CACTVS_ROTATABLE_BOND>
7

> <PUBCHEM_CACTVS_SUBSKEYS>
AAADceB7gQBAAAAAAAAAAAAAGAAAAWLAAAA8QAAAAAAAAAAB8AAAHQQIAAAADwDFWwy/kJcMEAiiAjJnZACS0CtxArAd2CA4ZJiIKOLg2ZGEIAhgiALIyAcQgMAPgAAAAAAAAAAAAAAAAAAAAAAAAAAAAA==

> <PUBCHEM_IUPAC_OPENEYE_NAME>
(2R,3S)-2-(4-fluorophenyl)-5-[3-[[4-methyl-5-(3-pyridyl)-1,2,4-triazol-3-yl]sulfanyl]propyl]-5-azaspiro[2.4]heptane

> <PUBCHEM_IUPAC_CAS_NAME>
(2R,3S)-2-(4-fluorophenyl)-5-[3-[[4-methyl-5-(3-pyridinyl)-1,2,4-triazol-3-yl]thio]propyl]-5-azaspiro[2.4]heptane

> <PUBCHEM_IUPAC_NAME_MARKUP>
(2<I>R</I>,3<I>S</I>)-2-(4-fluorophenyl)-5-[3-[(4-methyl-5-pyridin-3-yl-1,2,4-triazol-3-yl)sulfanyl]propyl]-5-azaspiro[2.4]heptane

> <PUBCHEM_IUPAC_NAME>
(2R,3S)-2-(4-fluorophenyl)-5-[3-[(4-methyl-5-pyridin-3-yl-1,2,4-triazol-3-yl)sulfanyl]propyl]-5-azaspiro[2.4]heptane

> <PUBCHEM_IUPAC_SYSTEMATIC_NAME>
(2R,3S)-2-(4-fluorophenyl)-5-[3-[(4-methyl-5-pyridin-3-yl-1,2,4-triazol-3-yl)sulfanyl]propyl]-5-azaspiro[2.4]heptane

> <PUBCHEM_IUPAC_TRADITIONAL_NAME>
(2R,3S)-2-(4-fluorophenyl)-5-[3-[[4-methyl-5-(3-pyridyl)-1,2,4-triazol-3-yl]thio]propyl]-5-azaspiro[2.4]heptane

> <PUBCHEM_IUPAC_INCHI>
InChI=1S/C23H26FN5S/c1-28-21(18-4-2-10-25-15-18)26-27-22(28)30-13-3-11-29-12-9-23(16-29)14-20(23)17-5-7-19(24)8-6-17/h2,4-8,10,15,20H,3,9,11-14,16H2,1H3/t20-,23+/m1/s1

> <PUBCHEM_IUPAC_INCHIKEY>
JGGOHKJHMHHQML-OFNKIYASSA-N

> <PUBCHEM_XLOGP3_AA>
3.5

> <PUBCHEM_EXACT_MASS>
423.18929519

> <PUBCHEM_MOLECULAR_FORMULA>
C23H26FN5S

> <PUBCHEM_MOLECULAR_WEIGHT>
423.6

> <PUBCHEM_OPENEYE_CAN_SMILES>
CN1C(=NN=C1SCCCN2CCC3(C2)CC3C4=CC=C(C=C4)F)C5=CN=CC=C5

> <PUBCHEM_OPENEYE_ISO_SMILES>
CN1C(=NN=C1SCCCN2CC[C@@]3(C2)C[C@@H]3C4=CC=C(C=C4)F)C5=CN=CC=C5

> <PUBCHEM_CACTVS_TPSA>
72.1

> <PUBCHEM_MONOISOTOPIC_WEIGHT>
423.18929519

> <PUBCHEM_TOTAL_CHARGE>
0

> <PUBCHEM_HEAVY_ATOM_COUNT>
30

> <PUBCHEM_ATOM_DEF_STEREO_COUNT>
2

> <PUBCHEM_ATOM_UDEF_STEREO_COUNT>
0

> <PUBCHEM_BOND_DEF_STEREO_COUNT>
0

> <PUBCHEM_BOND_UDEF_STEREO_COUNT>
0

> <PUBCHEM_ISOTOPIC_ATOM_COUNT>
0

> <PUBCHEM_COMPONENT_COUNT>
1

> <PUBCHEM_CACTVS_TAUTO_COUNT>
-1

> <PUBCHEM_COORDINATE_TYPE>
1
5
255

> <PUBCHEM_BONDANNOTATIONS>
14  16  8
14  17  8
16  19  8
17  20  8
19  22  8
20  22  8
26  27  8
26  28  8
27  29  8
29  30  8
4  23  8
4  24  8
5  23  8
5  6  8
6  24  8
7  28  8
7  30  8
8  10  6
9  14  5

$$$$
