44276405
  -OEChem-09292322222D

 46 50  0     1  0  0  0  0  0999 V2000
    4.6845   -1.9214    0.0000 O   0  0  0  0  0  0  0  0  0  0  0  0
    6.4878   -2.9812    0.0000 O   0  0  0  0  0  0  0  0  0  0  0  0
    7.4070    2.7155    0.0000 N   0  0  0  0  0  0  0  0  0  0  0  0
    4.7810    3.2502    0.0000 N   0  0  0  0  0  0  0  0  0  0  0  0
    6.5410    1.2155    0.0000 C   0  0  2  0  0  0  0  0  0  0  0  0
    7.4070    1.7155    0.0000 C   0  0  1  0  0  0  0  0  0  0  0  0
    8.3170    1.2087    0.0000 C   0  0  0  0  0  0  0  0  0  0  0  0
    5.6750    1.7155    0.0000 C   0  0  0  0  0  0  0  0  0  0  0  0
    6.5249    0.1740    0.0000 C   0  0  0  0  0  0  0  0  0  0  0  0
    8.3250    0.1671    0.0000 C   0  0  0  0  0  0  0  0  0  0  0  0
    7.4230   -0.3537    0.0000 C   0  0  0  0  0  0  0  0  0  0  0  0
    5.6750    2.7155    0.0000 C   0  0  0  0  0  0  0  0  0  0  0  0
    6.5410    3.2155    0.0000 C   0  0  0  0  0  0  0  0  0  0  0  0
    4.7810    1.1809    0.0000 C   0  0  0  0  0  0  0  0  0  0  0  0
    3.8749    1.6947    0.0000 C   0  0  0  0  0  0  0  0  0  0  0  0
    3.8749    2.7363    0.0000 C   0  0  0  0  0  0  0  0  0  0  0  0
    2.9438    1.1378    0.0000 C   0  0  0  0  0  0  0  0  0  0  0  0
    5.5730   -0.3466    0.0000 C   0  0  0  0  0  0  0  0  0  0  0  0
    2.9438    3.2933    0.0000 C   0  0  0  0  0  0  0  0  0  0  0  0
    2.0000    1.6730    0.0000 C   0  0  0  0  0  0  0  0  0  0  0  0
    2.0000    2.7580    0.0000 C   0  0  0  0  0  0  0  0  0  0  0  0
    7.4313   -1.4387    0.0000 C   0  0  0  0  0  0  0  0  0  0  0  0
    5.5563   -1.4315    0.0000 C   0  0  0  0  0  0  0  0  0  0  0  0
    6.4917   -1.9812    0.0000 C   0  0  0  0  0  0  0  0  0  0  0  0
    5.8016    0.7962    0.0000 H   0  0  0  0  0  0  0  0  0  0  0  0
    8.1398    2.1462    0.0000 H   0  0  0  0  0  0  0  0  0  0  0  0
    8.9287    1.1073    0.0000 H   0  0  0  0  0  0  0  0  0  0  0  0
    8.5216    1.7940    0.0000 H   0  0  0  0  0  0  0  0  0  0  0  0
    8.5386   -0.4150    0.0000 H   0  0  0  0  0  0  0  0  0  0  0  0
    8.9350    0.2779    0.0000 H   0  0  0  0  0  0  0  0  0  0  0  0
    7.9439    3.0255    0.0000 H   0  0  0  0  0  0  0  0  0  0  0  0
    6.9395    3.6905    0.0000 H   0  0  0  0  0  0  0  0  0  0  0  0
    6.1424    3.6905    0.0000 H   0  0  0  0  0  0  0  0  0  0  0  0
    4.7882    0.5609    0.0000 H   0  0  0  0  0  0  0  0  0  0  0  0
    2.5502    0.6588    0.0000 H   0  0  0  0  0  0  0  0  0  0  0  0
    3.3484    0.6680    0.0000 H   0  0  0  0  0  0  0  0  0  0  0  0
    5.0421   -0.0263    0.0000 H   0  0  0  0  0  0  0  0  0  0  0  0
    3.3484    3.7630    0.0000 H   0  0  0  0  0  0  0  0  0  0  0  0
    2.5502    3.7723    0.0000 H   0  0  0  0  0  0  0  0  0  0  0  0
    1.3891    1.7791    0.0000 H   0  0  0  0  0  0  0  0  0  0  0  0
    1.7909    1.0893    0.0000 H   0  0  0  0  0  0  0  0  0  0  0  0
    1.7909    3.3417    0.0000 H   0  0  0  0  0  0  0  0  0  0  0  0
    1.3891    2.6519    0.0000 H   0  0  0  0  0  0  0  0  0  0  0  0
    7.9694   -1.7466    0.0000 H   0  0  0  0  0  0  0  0  0  0  0  0
    4.6774   -2.5414    0.0000 H   0  0  0  0  0  0  0  0  0  0  0  0
    7.0236   -3.2933    0.0000 H   0  0  0  0  0  0  0  0  0  0  0  0
  1 23  1  0  0  0  0
  1 45  1  0  0  0  0
  2 24  1  0  0  0  0
  2 46  1  0  0  0  0
  3  6  1  0  0  0  0
  3 13  1  0  0  0  0
  3 31  1  0  0  0  0
  4 12  1  0  0  0  0
  4 16  2  0  0  0  0
  5  6  1  0  0  0  0
  5  8  1  0  0  0  0
  5  9  1  0  0  0  0
  5 25  1  6  0  0  0
  6  7  1  0  0  0  0
  6 26  1  1  0  0  0
  7 10  1  0  0  0  0
  7 27  1  0  0  0  0
  7 28  1  0  0  0  0
  8 12  2  0  0  0  0
  8 14  1  0  0  0  0
  9 11  1  0  0  0  0
  9 18  2  0  0  0  0
 10 11  1  0  0  0  0
 10 29  1  0  0  0  0
 10 30  1  0  0  0  0
 11 22  2  0  0  0  0
 12 13  1  0  0  0  0
 13 32  1  0  0  0  0
 13 33  1  0  0  0  0
 14 15  2  0  0  0  0
 14 34  1  0  0  0  0
 15 16  1  0  0  0  0
 15 17  1  0  0  0  0
 16 19  1  0  0  0  0
 17 20  1  0  0  0  0
 17 35  1  0  0  0  0
 17 36  1  0  0  0  0
 18 23  1  0  0  0  0
 18 37  1  0  0  0  0
 19 21  1  0  0  0  0
 19 38  1  0  0  0  0
 19 39  1  0  0  0  0
 20 21  1  0  0  0  0
 20 40  1  0  0  0  0
 20 41  1  0  0  0  0
 21 42  1  0  0  0  0
 21 43  1  0  0  0  0
 22 24  1  0  0  0  0
 22 44  1  0  0  0  0
 23 24  2  0  0  0  0
M  END
> <PUBCHEM_COMPOUND_CID>
44276405

> <PUBCHEM_COMPOUND_CANONICALIZED>
1

> <PUBCHEM_CACTVS_COMPLEXITY>
473

> <PUBCHEM_CACTVS_HBOND_ACCEPTOR>
4

> <PUBCHEM_CACTVS_HBOND_DONOR>
3

> <PUBCHEM_CACTVS_ROTATABLE_BOND>
0

> <PUBCHEM_CACTVS_SUBSKEYS>
AAADceB7MAAAAAAAAAAAAAAAAAAAAAAAAAA8eMECAAAAAADxwAAAHgAQCAAADSzBngQwhpLIEgCgAyRiRACCgCAhICAAmKA+zJgJZuLCkZOUcAlk0BHJ2AeQ0PMOoAABAAAQQABQAAaAACSAAAAAAAAAAA==

> <PUBCHEM_IUPAC_OPENEYE_NAME>
(2S,11R)-12,15-diazapentacyclo[12.8.0.02,11.03,8.016,21]docosa-1(14),3,5,7,15,21-hexaene-5,6-diol

> <PUBCHEM_IUPAC_CAS_NAME>
(2S,11R)-12,15-diazapentacyclo[12.8.0.02,11.03,8.016,21]docosa-1(14),3,5,7,15,21-hexaene-5,6-diol

> <PUBCHEM_IUPAC_NAME_MARKUP>
(2<I>S</I>,11<I>R</I>)-12,15-diazapentacyclo[12.8.0.0<SUP>2,11</SUP>.0<SUP>3,8</SUP>.0<SUP>16,21</SUP>]docosa-1(14),3,5,7,15,21-hexaene-5,6-diol

> <PUBCHEM_IUPAC_NAME>
(2S,11R)-12,15-diazapentacyclo[12.8.0.02,11.03,8.016,21]docosa-1(14),3,5,7,15,21-hexaene-5,6-diol

> <PUBCHEM_IUPAC_SYSTEMATIC_NAME>
(2S,11R)-12,15-diazapentacyclo[12.8.0.02,11.03,8.016,21]docosa-1(14),3,5,7,15,21-hexaene-5,6-diol

> <PUBCHEM_IUPAC_TRADITIONAL_NAME>
(2S,11R)-12,15-diazapentacyclo[12.8.0.02,11.03,8.016,21]docosa-1(14),3,5,7,15,21-hexaene-5,6-diol

> <PUBCHEM_IUPAC_INCHI>
InChI=1S/C20H22N2O2/c23-18-8-11-5-6-16-20(13(11)9-19(18)24)14-7-12-3-1-2-4-15(12)22-17(14)10-21-16/h7-9,16,20-21,23-24H,1-6,10H2/t16-,20+/m1/s1

> <PUBCHEM_IUPAC_INCHIKEY>
BDRPLVMDSVQGDO-UZLBHIALSA-N

> <PUBCHEM_XLOGP3_AA>
2.7

> <PUBCHEM_EXACT_MASS>
322.168127949

> <PUBCHEM_MOLECULAR_FORMULA>
C20H22N2O2

> <PUBCHEM_MOLECULAR_WEIGHT>
322.4

> <PUBCHEM_OPENEYE_CAN_SMILES>
C1CCC2=NC3=C(C=C2C1)C4C(CCC5=CC(=C(C=C45)O)O)NC3

> <PUBCHEM_OPENEYE_ISO_SMILES>
C1CCC2=NC3=C(C=C2C1)[C@H]4[C@@H](CCC5=CC(=C(C=C45)O)O)NC3

> <PUBCHEM_CACTVS_TPSA>
65.4

> <PUBCHEM_MONOISOTOPIC_WEIGHT>
322.168127949

> <PUBCHEM_TOTAL_CHARGE>
0

> <PUBCHEM_HEAVY_ATOM_COUNT>
24

> <PUBCHEM_ATOM_DEF_STEREO_COUNT>
2

> <PUBCHEM_ATOM_UDEF_STEREO_COUNT>
0

> <PUBCHEM_BOND_DEF_STEREO_COUNT>
0

> <PUBCHEM_BOND_UDEF_STEREO_COUNT>
0

> <PUBCHEM_ISOTOPIC_ATOM_COUNT>
0

> <PUBCHEM_COMPONENT_COUNT>
1

> <PUBCHEM_CACTVS_TAUTO_COUNT>
-1

> <PUBCHEM_COORDINATE_TYPE>
1
5
255

> <PUBCHEM_BONDANNOTATIONS>
11  22  8
14  15  8
15  16  8
18  23  8
22  24  8
23  24  8
4  12  8
4  16  8
5  25  6
6  26  5
8  12  8
8  14  8
9  11  8
9  18  8

$$$$
