152688778
  -OEChem-09292322082D

 62 66  0     1  0  0  0  0  0999 V2000
   13.3224    0.6153    0.0000 O   0  0  0  0  0  0  0  0  0  0  0  0
    7.2602    1.1153    0.0000 N   0  0  3  0  0  0  0  0  0  0  0  0
   12.4564   -0.8847    0.0000 N   0  0  0  0  0  0  0  0  0  0  0  0
   15.2633   -2.0827    0.0000 N   0  0  0  0  0  0  0  0  0  0  0  0
    2.0000    0.0878    0.0000 N   0  0  0  0  0  0  0  0  0  0  0  0
    9.8583    0.6153    0.0000 C   0  0  0  0  0  0  0  0  0  0  0  0
    9.8583   -0.3847    0.0000 C   0  0  0  0  0  0  0  0  0  0  0  0
   10.7243    1.1153    0.0000 C   0  0  0  0  0  0  0  0  0  0  0  0
   11.5904   -0.3847    0.0000 C   0  0  0  0  0  0  0  0  0  0  0  0
   10.7243   -0.8847    0.0000 C   0  0  0  0  0  0  0  0  0  0  0  0
   11.5904    0.6153    0.0000 C   0  0  0  0  0  0  0  0  0  0  0  0
    8.9923    1.1153    0.0000 C   0  0  0  0  0  0  0  0  0  0  0  0
    8.1263    0.6153    0.0000 C   0  0  0  0  0  0  0  0  0  0  0  0
    7.2602    2.1153    0.0000 C   0  0  0  0  0  0  0  0  0  0  0  0
    6.3942    0.6153    0.0000 C   0  0  0  0  0  0  0  0  0  0  0  0
    6.3942    2.6153    0.0000 C   0  0  0  0  0  0  0  0  0  0  0  0
    5.5282    1.1153    0.0000 C   0  0  0  0  0  0  0  0  0  0  0  0
    5.5282    2.1153    0.0000 C   0  0  0  0  0  0  0  0  0  0  0  0
   13.3224   -0.3847    0.0000 C   0  0  0  0  0  0  0  0  0  0  0  0
    4.6342    0.5806    0.0000 C   0  0  0  0  0  0  0  0  0  0  0  0
   14.1884   -0.8847    0.0000 C   0  0  0  0  0  0  0  0  0  0  0  0
    4.6342    2.6499    0.0000 C   0  0  0  0  0  0  0  0  0  0  0  0
    3.7282    1.0944    0.0000 C   0  0  0  0  0  0  0  0  0  0  0  0
    3.7282    2.1361    0.0000 C   0  0  0  0  0  0  0  0  0  0  0  0
   15.0962   -0.4796    0.0000 C   0  0  0  0  0  0  0  0  0  0  0  0
   14.2915   -1.8735    0.0000 C   0  0  0  0  0  0  0  0  0  0  0  0
   15.7641   -1.2239    0.0000 C   0  0  0  0  0  0  0  0  0  0  0  0
   15.4069    0.4709    0.0000 C   0  0  0  0  0  0  0  0  0  0  0  0
   16.7426   -1.0177    0.0000 C   0  0  0  0  0  0  0  0  0  0  0  0
    2.8641    0.5911    0.0000 C   0  0  0  0  0  0  0  0  0  0  0  0
   16.3854    0.6771    0.0000 C   0  0  0  0  0  0  0  0  0  0  0  0
   17.0532   -0.0672    0.0000 C   0  0  0  0  0  0  0  0  0  0  0  0
    9.3214    0.3053    0.0000 H   0  0  0  0  0  0  0  0  0  0  0  0
    9.2477   -0.2771    0.0000 H   0  0  0  0  0  0  0  0  0  0  0  0
    9.6463   -0.9673    0.0000 H   0  0  0  0  0  0  0  0  0  0  0  0
   11.1229    1.5902    0.0000 H   0  0  0  0  0  0  0  0  0  0  0  0
   10.3258    1.5902    0.0000 H   0  0  0  0  0  0  0  0  0  0  0  0
   12.1273   -0.0747    0.0000 H   0  0  0  0  0  0  0  0  0  0  0  0
   10.3258   -1.3597    0.0000 H   0  0  0  0  0  0  0  0  0  0  0  0
   11.1229   -1.3597    0.0000 H   0  0  0  0  0  0  0  0  0  0  0  0
   12.2010    0.5076    0.0000 H   0  0  0  0  0  0  0  0  0  0  0  0
   11.8024    1.1979    0.0000 H   0  0  0  0  0  0  0  0  0  0  0  0
    9.3908    1.5902    0.0000 H   0  0  0  0  0  0  0  0  0  0  0  0
    8.5938    1.5902    0.0000 H   0  0  0  0  0  0  0  0  0  0  0  0
    7.7277    0.1403    0.0000 H   0  0  0  0  0  0  0  0  0  0  0  0
    8.5248    0.1403    0.0000 H   0  0  0  0  0  0  0  0  0  0  0  0
   12.4564   -1.5047    0.0000 H   0  0  0  0  0  0  0  0  0  0  0  0
    7.8708    2.0076    0.0000 H   0  0  0  0  0  0  0  0  0  0  0  0
    7.4723    2.6979    0.0000 H   0  0  0  0  0  0  0  0  0  0  0  0
    5.9957    0.1403    0.0000 H   0  0  0  0  0  0  0  0  0  0  0  0
    6.7928    0.1403    0.0000 H   0  0  0  0  0  0  0  0  0  0  0  0
    6.7928    3.0902    0.0000 H   0  0  0  0  0  0  0  0  0  0  0  0
    5.9957    3.0902    0.0000 H   0  0  0  0  0  0  0  0  0  0  0  0
    4.6414   -0.0394    0.0000 H   0  0  0  0  0  0  0  0  0  0  0  0
    4.6414    3.2699    0.0000 H   0  0  0  0  0  0  0  0  0  0  0  0
    3.1924    2.4482    0.0000 H   0  0  0  0  0  0  0  0  0  0  0  0
   13.8300   -2.2875    0.0000 H   0  0  0  0  0  0  0  0  0  0  0  0
   15.5135   -2.6499    0.0000 H   0  0  0  0  0  0  0  0  0  0  0  0
   14.9928    0.9324    0.0000 H   0  0  0  0  0  0  0  0  0  0  0  0
   17.1566   -1.4792    0.0000 H   0  0  0  0  0  0  0  0  0  0  0  0
   16.5780    1.2664    0.0000 H   0  0  0  0  0  0  0  0  0  0  0  0
   17.6599    0.0607    0.0000 H   0  0  0  0  0  0  0  0  0  0  0  0
  1 19  2  0  0  0  0
  2 13  1  0  0  0  0
  2 14  1  0  0  0  0
  2 15  1  0  0  0  0
  3  9  1  0  0  0  0
  3 19  1  0  0  0  0
  3 47  1  0  0  0  0
  4 26  1  0  0  0  0
  4 27  1  0  0  0  0
  4 58  1  0  0  0  0
  5 30  3  0  0  0  0
  6  7  1  0  0  0  0
  6  8  1  0  0  0  0
  6 12  1  0  0  0  0
  6 33  1  0  0  0  0
  7 10  1  0  0  0  0
  7 34  1  0  0  0  0
  7 35  1  0  0  0  0
  8 11  1  0  0  0  0
  8 36  1  0  0  0  0
  8 37  1  0  0  0  0
  9 10  1  0  0  0  0
  9 11  1  0  0  0  0
  9 38  1  0  0  0  0
 10 39  1  0  0  0  0
 10 40  1  0  0  0  0
 11 41  1  0  0  0  0
 11 42  1  0  0  0  0
 12 13  1  0  0  0  0
 12 43  1  0  0  0  0
 12 44  1  0  0  0  0
 13 45  1  0  0  0  0
 13 46  1  0  0  0  0
 14 16  1  0  0  0  0
 14 48  1  0  0  0  0
 14 49  1  0  0  0  0
 15 17  1  0  0  0  0
 15 50  1  0  0  0  0
 15 51  1  0  0  0  0
 16 18  1  0  0  0  0
 16 52  1  0  0  0  0
 16 53  1  0  0  0  0
 17 18  2  0  0  0  0
 17 20  1  0  0  0  0
 18 22  1  0  0  0  0
 19 21  1  0  0  0  0
 20 23  2  0  0  0  0
 20 54  1  0  0  0  0
 21 25  1  0  0  0  0
 21 26  2  0  0  0  0
 22 24  2  0  0  0  0
 22 55  1  0  0  0  0
 23 24  1  0  0  0  0
 23 30  1  0  0  0  0
 24 56  1  0  0  0  0
 25 27  1  0  0  0  0
 25 28  2  0  0  0  0
 26 57  1  0  0  0  0
 27 29  2  0  0  0  0
 28 31  1  0  0  0  0
 28 59  1  0  0  0  0
 29 32  1  0  0  0  0
 29 60  1  0  0  0  0
 31 32  2  0  0  0  0
 31 61  1  0  0  0  0
 32 62  1  0  0  0  0
M  END
> <PUBCHEM_COMPOUND_CID>
152688778

> <PUBCHEM_COMPOUND_CANONICALIZED>
1

> <PUBCHEM_CACTVS_COMPLEXITY>
693

> <PUBCHEM_CACTVS_HBOND_ACCEPTOR>
3

> <PUBCHEM_CACTVS_HBOND_DONOR>
2

> <PUBCHEM_CACTVS_ROTATABLE_BOND>
5

> <PUBCHEM_CACTVS_SUBSKEYS>
AAADceB7oAAAAAAAAAAAAAAAAAAAAWAAAAA8YMEAAAAAAFix9AAAHgAQAAAADSjBngQ8wPPJkAC4BzV3VACigCA1AiAI2aE4ZNgIoPrA1ZGEIYhglgDIyc8ciMCOwAACAAASAACQAAQAACQAAAAAAAAAAA==

> <PUBCHEM_IUPAC_OPENEYE_NAME>
N-[4-[2-(7-cyano-3,4-dihydro-1H-isoquinolin-2-yl)ethyl]cyclohexyl]-1H-indole-3-carboxamide

> <PUBCHEM_IUPAC_CAS_NAME>
N-[4-[2-(7-cyano-3,4-dihydro-1H-isoquinolin-2-yl)ethyl]cyclohexyl]-1H-indole-3-carboxamide

> <PUBCHEM_IUPAC_NAME_MARKUP>
<I>N</I>-[4-[2-(7-cyano-3,4-dihydro-1<I>H</I>-isoquinolin-2-yl)ethyl]cyclohexyl]-1<I>H</I>-indole-3-carboxamide

> <PUBCHEM_IUPAC_NAME>
N-[4-[2-(7-cyano-3,4-dihydro-1H-isoquinolin-2-yl)ethyl]cyclohexyl]-1H-indole-3-carboxamide

> <PUBCHEM_IUPAC_SYSTEMATIC_NAME>
N-[4-[2-(7-cyano-3,4-dihydro-1H-isoquinolin-2-yl)ethyl]cyclohexyl]-1H-indole-3-carboxamide

> <PUBCHEM_IUPAC_TRADITIONAL_NAME>
N-[4-[2-(7-cyano-3,4-dihydro-1H-isoquinolin-2-yl)ethyl]cyclohexyl]-1H-indole-3-carboxamide

> <PUBCHEM_IUPAC_INCHI>
InChI=1S/C27H30N4O/c28-16-20-5-8-21-12-14-31(18-22(21)15-20)13-11-19-6-9-23(10-7-19)30-27(32)25-17-29-26-4-2-1-3-24(25)26/h1-5,8,15,17,19,23,29H,6-7,9-14,18H2,(H,30,32)

> <PUBCHEM_IUPAC_INCHIKEY>
ZPDIDXBVIYZNGE-UHFFFAOYSA-N

> <PUBCHEM_XLOGP3_AA>
4.5

> <PUBCHEM_EXACT_MASS>
426.24196159

> <PUBCHEM_MOLECULAR_FORMULA>
C27H30N4O

> <PUBCHEM_MOLECULAR_WEIGHT>
426.6

> <PUBCHEM_OPENEYE_CAN_SMILES>
C1CC(CCC1CCN2CCC3=C(C2)C=C(C=C3)C#N)NC(=O)C4=CNC5=CC=CC=C54

> <PUBCHEM_OPENEYE_ISO_SMILES>
C1CC(CCC1CCN2CCC3=C(C2)C=C(C=C3)C#N)NC(=O)C4=CNC5=CC=CC=C54

> <PUBCHEM_CACTVS_TPSA>
71.9

> <PUBCHEM_MONOISOTOPIC_WEIGHT>
426.24196159

> <PUBCHEM_TOTAL_CHARGE>
0

> <PUBCHEM_HEAVY_ATOM_COUNT>
32

> <PUBCHEM_ATOM_DEF_STEREO_COUNT>
0

> <PUBCHEM_ATOM_UDEF_STEREO_COUNT>
0

> <PUBCHEM_BOND_DEF_STEREO_COUNT>
0

> <PUBCHEM_BOND_UDEF_STEREO_COUNT>
0

> <PUBCHEM_ISOTOPIC_ATOM_COUNT>
0

> <PUBCHEM_COMPONENT_COUNT>
1

> <PUBCHEM_CACTVS_TAUTO_COUNT>
-1

> <PUBCHEM_COORDINATE_TYPE>
1
5
255

> <PUBCHEM_BONDANNOTATIONS>
17  18  8
17  20  8
18  22  8
20  23  8
21  25  8
21  26  8
22  24  8
23  24  8
25  27  8
25  28  8
27  29  8
28  31  8
29  32  8
31  32  8
4  26  8
4  27  8

$$$$
