155530487
  -OEChem-09292322092D

 54 58  0     0  0  0  0  0  0999 V2000
    8.1424   -0.8047    0.0000 S   0  0  0  0  0  0  0  0  0  0  0  0
    2.0000    1.5000    0.0000 F   0  0  0  0  0  0  0  0  0  0  0  0
    2.3660    2.8660    0.0000 F   0  0  0  0  0  0  0  0  0  0  0  0
    3.3660    1.1340    0.0000 F   0  0  0  0  0  0  0  0  0  0  0  0
    4.5981   -4.0000    0.0000 O   0  0  0  0  0  0  0  0  0  0  0  0
    4.5981   -2.0000    0.0000 N   0  0  0  0  0  0  0  0  0  0  0  0
    5.4641    0.5000    0.0000 N   0  0  0  0  0  0  0  0  0  0  0  0
    6.3301   -1.0000    0.0000 N   0  0  0  0  0  0  0  0  0  0  0  0
    6.3301    2.0000    0.0000 N   0  0  0  0  0  0  0  0  0  0  0  0
    5.4641   -2.5000    0.0000 C   0  0  0  0  0  0  0  0  0  0  0  0
    3.7320   -2.5000    0.0000 C   0  0  0  0  0  0  0  0  0  0  0  0
    4.5981   -1.0000    0.0000 C   0  0  0  0  0  0  0  0  0  0  0  0
    5.4641   -3.5000    0.0000 C   0  0  0  0  0  0  0  0  0  0  0  0
    3.7320   -3.5000    0.0000 C   0  0  0  0  0  0  0  0  0  0  0  0
    5.4641   -0.5000    0.0000 C   0  0  0  0  0  0  0  0  0  0  0  0
    7.1962    0.5000    0.0000 C   0  0  0  0  0  0  0  0  0  0  0  0
    6.3301    1.0000    0.0000 C   0  0  0  0  0  0  0  0  0  0  0  0
    7.1962   -0.5000    0.0000 C   0  0  0  0  0  0  0  0  0  0  0  0
    8.1424    0.8047    0.0000 C   0  0  0  0  0  0  0  0  0  0  0  0
    8.4530    1.7552    0.0000 C   0  0  0  0  0  0  0  0  0  0  0  0
    8.7260    0.0000    0.0000 C   0  0  0  0  0  0  0  0  0  0  0  0
    5.4641    2.5000    0.0000 C   0  0  0  0  0  0  0  0  0  0  0  0
    9.4315    1.9615    0.0000 C   0  0  0  0  0  0  0  0  0  0  0  0
    7.7852    2.4996    0.0000 C   0  0  0  0  0  0  0  0  0  0  0  0
    4.5981    2.0000    0.0000 C   0  0  0  0  0  0  0  0  0  0  0  0
    5.4641    3.5000    0.0000 C   0  0  0  0  0  0  0  0  0  0  0  0
    3.7320    2.5000    0.0000 C   0  0  0  0  0  0  0  0  0  0  0  0
    9.7422    2.9120    0.0000 C   0  0  0  0  0  0  0  0  0  0  0  0
    8.0958    3.4501    0.0000 C   0  0  0  0  0  0  0  0  0  0  0  0
    4.5981    4.0000    0.0000 C   0  0  0  0  0  0  0  0  0  0  0  0
    3.7320    3.5000    0.0000 C   0  0  0  0  0  0  0  0  0  0  0  0
    9.0744    3.6563    0.0000 C   0  0  0  0  0  0  0  0  0  0  0  0
    2.8660    2.0000    0.0000 C   0  0  0  0  0  0  0  0  0  0  0  0
    6.0747   -2.6077    0.0000 H   0  0  0  0  0  0  0  0  0  0  0  0
    5.6762   -1.9174    0.0000 H   0  0  0  0  0  0  0  0  0  0  0  0
    3.5200   -1.9174    0.0000 H   0  0  0  0  0  0  0  0  0  0  0  0
    3.1215   -2.6077    0.0000 H   0  0  0  0  0  0  0  0  0  0  0  0
    4.3860   -0.4174    0.0000 H   0  0  0  0  0  0  0  0  0  0  0  0
    3.9875   -1.1077    0.0000 H   0  0  0  0  0  0  0  0  0  0  0  0
    5.6762   -4.0826    0.0000 H   0  0  0  0  0  0  0  0  0  0  0  0
    6.0747   -3.3923    0.0000 H   0  0  0  0  0  0  0  0  0  0  0  0
    3.1215   -3.3923    0.0000 H   0  0  0  0  0  0  0  0  0  0  0  0
    3.5200   -4.0826    0.0000 H   0  0  0  0  0  0  0  0  0  0  0  0
    6.8671    2.3100    0.0000 H   0  0  0  0  0  0  0  0  0  0  0  0
    9.3460    0.0000    0.0000 H   0  0  0  0  0  0  0  0  0  0  0  0
    9.8456    1.5000    0.0000 H   0  0  0  0  0  0  0  0  0  0  0  0
    7.1785    2.3717    0.0000 H   0  0  0  0  0  0  0  0  0  0  0  0
    4.5981    1.3800    0.0000 H   0  0  0  0  0  0  0  0  0  0  0  0
    6.0010    3.8100    0.0000 H   0  0  0  0  0  0  0  0  0  0  0  0
   10.3489    3.0398    0.0000 H   0  0  0  0  0  0  0  0  0  0  0  0
    7.6818    3.9115    0.0000 H   0  0  0  0  0  0  0  0  0  0  0  0
    4.5981    4.6200    0.0000 H   0  0  0  0  0  0  0  0  0  0  0  0
    3.1951    3.8100    0.0000 H   0  0  0  0  0  0  0  0  0  0  0  0
    9.2670    4.2456    0.0000 H   0  0  0  0  0  0  0  0  0  0  0  0
  1 18  1  0  0  0  0
  1 21  1  0  0  0  0
  2 33  1  0  0  0  0
  3 33  1  0  0  0  0
  4 33  1  0  0  0  0
  5 13  1  0  0  0  0
  5 14  1  0  0  0  0
  6 10  1  0  0  0  0
  6 11  1  0  0  0  0
  6 12  1  0  0  0  0
  7 15  2  0  0  0  0
  7 17  1  0  0  0  0
  8 15  1  0  0  0  0
  8 18  2  0  0  0  0
  9 17  1  0  0  0  0
  9 22  1  0  0  0  0
  9 44  1  0  0  0  0
 10 13  1  0  0  0  0
 10 34  1  0  0  0  0
 10 35  1  0  0  0  0
 11 14  1  0  0  0  0
 11 36  1  0  0  0  0
 11 37  1  0  0  0  0
 12 15  1  0  0  0  0
 12 38  1  0  0  0  0
 12 39  1  0  0  0  0
 13 40  1  0  0  0  0
 13 41  1  0  0  0  0
 14 42  1  0  0  0  0
 14 43  1  0  0  0  0
 16 17  2  0  0  0  0
 16 18  1  0  0  0  0
 16 19  1  0  0  0  0
 19 20  1  0  0  0  0
 19 21  2  0  0  0  0
 20 23  2  0  0  0  0
 20 24  1  0  0  0  0
 21 45  1  0  0  0  0
 22 25  1  0  0  0  0
 22 26  2  0  0  0  0
 23 28  1  0  0  0  0
 23 46  1  0  0  0  0
 24 29  2  0  0  0  0
 24 47  1  0  0  0  0
 25 27  2  0  0  0  0
 25 48  1  0  0  0  0
 26 30  1  0  0  0  0
 26 49  1  0  0  0  0
 27 31  1  0  0  0  0
 27 33  1  0  0  0  0
 28 32  2  0  0  0  0
 28 50  1  0  0  0  0
 29 32  1  0  0  0  0
 29 51  1  0  0  0  0
 30 31  2  0  0  0  0
 30 52  1  0  0  0  0
 31 53  1  0  0  0  0
 32 54  1  0  0  0  0
M  END
> <PUBCHEM_COMPOUND_CID>
155530487

> <PUBCHEM_COMPOUND_CANONICALIZED>
1

> <PUBCHEM_CACTVS_COMPLEXITY>
629

> <PUBCHEM_CACTVS_HBOND_ACCEPTOR>
9

> <PUBCHEM_CACTVS_HBOND_DONOR>
1

> <PUBCHEM_CACTVS_ROTATABLE_BOND>
5

> <PUBCHEM_CACTVS_SUBSKEYS>
AAADceB7oYBAAAAAAAAAAAAAAAAAASAAAAA8eIEAAAAAAFgB/AAAHwQQAAAADAjl2xax8dfIFAikAiZiZACD0KlhCrgJmDA4ZJiKaGLg2dGXJAxokAL4yCcQgMAOgAAAQAAAAAAAAACAAAAAAAAAAAAAAA==

> <PUBCHEM_IUPAC_OPENEYE_NAME>
2-(morpholinomethyl)-5-phenyl-N-[3-(trifluoromethyl)phenyl]thieno[2,3-d]pyrimidin-4-amine

> <PUBCHEM_IUPAC_CAS_NAME>
2-(4-morpholinylmethyl)-5-phenyl-N-[3-(trifluoromethyl)phenyl]-4-thieno[2,3-d]pyrimidinamine

> <PUBCHEM_IUPAC_NAME_MARKUP>
2-(morpholin-4-ylmethyl)-5-phenyl-<I>N</I>-[3-(trifluoromethyl)phenyl]thieno[2,3-d]pyrimidin-4-amine

> <PUBCHEM_IUPAC_NAME>
2-(morpholin-4-ylmethyl)-5-phenyl-N-[3-(trifluoromethyl)phenyl]thieno[2,3-d]pyrimidin-4-amine

> <PUBCHEM_IUPAC_SYSTEMATIC_NAME>
2-(morpholin-4-ylmethyl)-5-phenyl-N-[3-(trifluoromethyl)phenyl]thieno[2,3-d]pyrimidin-4-amine

> <PUBCHEM_IUPAC_TRADITIONAL_NAME>
[2-(morpholinomethyl)-5-phenyl-thieno[2,3-d]pyrimidin-4-yl]-[3-(trifluoromethyl)phenyl]amine

> <PUBCHEM_IUPAC_INCHI>
InChI=1S/C24H21F3N4OS/c25-24(26,27)17-7-4-8-18(13-17)28-22-21-19(16-5-2-1-3-6-16)15-33-23(21)30-20(29-22)14-31-9-11-32-12-10-31/h1-8,13,15H,9-12,14H2,(H,28,29,30)

> <PUBCHEM_IUPAC_INCHIKEY>
JFHDDPXPVVFDNG-UHFFFAOYSA-N

> <PUBCHEM_XLOGP3_AA>
5.4

> <PUBCHEM_EXACT_MASS>
470.13881697

> <PUBCHEM_MOLECULAR_FORMULA>
C24H21F3N4OS

> <PUBCHEM_MOLECULAR_WEIGHT>
470.5

> <PUBCHEM_OPENEYE_CAN_SMILES>
C1COCCN1CC2=NC(=C3C(=CSC3=N2)C4=CC=CC=C4)NC5=CC=CC(=C5)C(F)(F)F

> <PUBCHEM_OPENEYE_ISO_SMILES>
C1COCCN1CC2=NC(=C3C(=CSC3=N2)C4=CC=CC=C4)NC5=CC=CC(=C5)C(F)(F)F

> <PUBCHEM_CACTVS_TPSA>
78.5

> <PUBCHEM_MONOISOTOPIC_WEIGHT>
470.13881697

> <PUBCHEM_TOTAL_CHARGE>
0

> <PUBCHEM_HEAVY_ATOM_COUNT>
33

> <PUBCHEM_ATOM_DEF_STEREO_COUNT>
0

> <PUBCHEM_ATOM_UDEF_STEREO_COUNT>
0

> <PUBCHEM_BOND_DEF_STEREO_COUNT>
0

> <PUBCHEM_BOND_UDEF_STEREO_COUNT>
0

> <PUBCHEM_ISOTOPIC_ATOM_COUNT>
0

> <PUBCHEM_COMPONENT_COUNT>
1

> <PUBCHEM_CACTVS_TAUTO_COUNT>
-1

> <PUBCHEM_COORDINATE_TYPE>
1
5
255

> <PUBCHEM_BONDANNOTATIONS>
1  18  8
1  21  8
16  17  8
16  18  8
16  19  8
19  21  8
20  23  8
20  24  8
22  25  8
22  26  8
23  28  8
24  29  8
25  27  8
26  30  8
27  31  8
28  32  8
29  32  8
30  31  8
7  15  8
7  17  8
8  15  8
8  18  8

$$$$
