146025813
  -OEChem-09292322022D

 43 46  0     1  0  0  0  0  0999 V2000
    9.0501    2.2589    0.0000 Br  0  0  0  0  0  0  0  0  0  0  0  0
    4.6497    1.7484    0.0000 O   0  0  0  0  0  0  0  0  0  0  0  0
    2.8680    0.7380    0.0000 O   0  0  0  0  0  0  0  0  0  0  0  0
    8.1223   -1.2831    0.0000 N   0  0  3  0  0  0  0  0  0  0  0  0
    7.2641   -0.7862    0.0000 C   0  0  1  0  0  0  0  0  0  0  0  0
    7.2641    0.2138    0.0000 C   0  0  0  0  0  0  0  0  0  0  0  0
    6.3981   -1.2862    0.0000 C   0  0  0  0  0  0  0  0  0  0  0  0
    8.1741    0.7207    0.0000 C   0  0  0  0  0  0  0  0  0  0  0  0
    8.9878   -0.7989    0.0000 C   0  0  0  0  0  0  0  0  0  0  0  0
    6.3981    0.7138    0.0000 C   0  0  0  0  0  0  0  0  0  0  0  0
    9.0134    0.1924    0.0000 C   0  0  0  0  0  0  0  0  0  0  0  0
    5.5320   -0.7862    0.0000 C   0  0  0  0  0  0  0  0  0  0  0  0
    5.5320    0.2138    0.0000 C   0  0  0  0  0  0  0  0  0  0  0  0
    8.1149   -2.2831    0.0000 C   0  0  0  0  0  0  0  0  0  0  0  0
    8.1821    1.7623    0.0000 C   0  0  0  0  0  0  0  0  0  0  0  0
    6.3820    1.7553    0.0000 C   0  0  0  0  0  0  0  0  0  0  0  0
    4.6381    0.7485    0.0000 C   0  0  0  0  0  0  0  0  0  0  0  0
    4.6381   -1.3208    0.0000 C   0  0  0  0  0  0  0  0  0  0  0  0
    7.2800    2.2831    0.0000 C   0  0  0  0  0  0  0  0  0  0  0  0
    3.7320    0.2346    0.0000 C   0  0  0  0  0  0  0  0  0  0  0  0
    3.7320   -0.8070    0.0000 C   0  0  0  0  0  0  0  0  0  0  0  0
    3.7895    2.2584    0.0000 C   0  0  0  0  0  0  0  0  0  0  0  0
    2.0000    0.2413    0.0000 C   0  0  0  0  0  0  0  0  0  0  0  0
    7.2636   -1.6362    0.0000 H   0  0  0  0  0  0  0  0  0  0  0  0
    5.9995   -1.7611    0.0000 H   0  0  0  0  0  0  0  0  0  0  0  0
    6.7966   -1.7611    0.0000 H   0  0  0  0  0  0  0  0  0  0  0  0
    9.1895   -1.3852    0.0000 H   0  0  0  0  0  0  0  0  0  0  0  0
    9.6006   -0.7046    0.0000 H   0  0  0  0  0  0  0  0  0  0  0  0
    9.6205    0.0665    0.0000 H   0  0  0  0  0  0  0  0  0  0  0  0
    9.2452    0.7675    0.0000 H   0  0  0  0  0  0  0  0  0  0  0  0
    7.4949   -2.2785    0.0000 H   0  0  0  0  0  0  0  0  0  0  0  0
    8.1103   -2.9031    0.0000 H   0  0  0  0  0  0  0  0  0  0  0  0
    8.7349   -2.2877    0.0000 H   0  0  0  0  0  0  0  0  0  0  0  0
    5.8415    2.0591    0.0000 H   0  0  0  0  0  0  0  0  0  0  0  0
    4.6453   -1.9408    0.0000 H   0  0  0  0  0  0  0  0  0  0  0  0
    7.2777    2.9031    0.0000 H   0  0  0  0  0  0  0  0  0  0  0  0
    3.1963   -1.1191    0.0000 H   0  0  0  0  0  0  0  0  0  0  0  0
    4.1057    2.7917    0.0000 H   0  0  0  0  0  0  0  0  0  0  0  0
    3.2562    2.5746    0.0000 H   0  0  0  0  0  0  0  0  0  0  0  0
    3.4733    1.7251    0.0000 H   0  0  0  0  0  0  0  0  0  0  0  0
    1.6921    0.7794    0.0000 H   0  0  0  0  0  0  0  0  0  0  0  0
    1.4619   -0.0666    0.0000 H   0  0  0  0  0  0  0  0  0  0  0  0
    2.3079   -0.2968    0.0000 H   0  0  0  0  0  0  0  0  0  0  0  0
  1 15  1  0  0  0  0
  2 17  1  0  0  0  0
  2 22  1  0  0  0  0
  3 20  1  0  0  0  0
  3 23  1  0  0  0  0
  4  5  1  0  0  0  0
  4  9  1  0  0  0  0
  4 14  1  0  0  0  0
  5  6  1  0  0  0  0
  5  7  1  0  0  0  0
  5 24  1  1  0  0  0
  6  8  1  0  0  0  0
  6 10  2  0  0  0  0
  7 12  1  0  0  0  0
  7 25  1  0  0  0  0
  7 26  1  0  0  0  0
  8 11  1  0  0  0  0
  8 15  2  0  0  0  0
  9 11  1  0  0  0  0
  9 27  1  0  0  0  0
  9 28  1  0  0  0  0
 10 13  1  0  0  0  0
 10 16  1  0  0  0  0
 11 29  1  0  0  0  0
 11 30  1  0  0  0  0
 12 13  2  0  0  0  0
 12 18  1  0  0  0  0
 13 17  1  0  0  0  0
 14 31  1  0  0  0  0
 14 32  1  0  0  0  0
 14 33  1  0  0  0  0
 15 19  1  0  0  0  0
 16 19  2  0  0  0  0
 16 34  1  0  0  0  0
 17 20  2  0  0  0  0
 18 21  2  0  0  0  0
 18 35  1  0  0  0  0
 19 36  1  0  0  0  0
 20 21  1  0  0  0  0
 21 37  1  0  0  0  0
 22 38  1  0  0  0  0
 22 39  1  0  0  0  0
 22 40  1  0  0  0  0
 23 41  1  0  0  0  0
 23 42  1  0  0  0  0
 23 43  1  0  0  0  0
M  END
> <PUBCHEM_COMPOUND_CID>
146025813

> <PUBCHEM_COMPOUND_CANONICALIZED>
1

> <PUBCHEM_CACTVS_COMPLEXITY>
434

> <PUBCHEM_CACTVS_HBOND_ACCEPTOR>
3

> <PUBCHEM_CACTVS_HBOND_DONOR>
0

> <PUBCHEM_CACTVS_ROTATABLE_BOND>
2

> <PUBCHEM_CACTVS_SUBSKEYS>
AAADceB6MAAAEAAAAAAAAAAAAAAAAAAAAAA8YMEAAAAAAADxQAAAHgBAAAABrCzBmAYyBoMABACAAiBCAACCCAAgIAQIiAAOjKgNJiKEsRuEMCpkwBGKqheQ0PMOogADEAAYwADUAAagADWAAAAAAAAAAA==

> <PUBCHEM_IUPAC_OPENEYE_NAME>
(6aR)-3-bromo-10,11-dimethoxy-6-methyl-5,6,6a,7-tetrahydro-4H-dibenzo[de,g]quinoline

> <PUBCHEM_IUPAC_CAS_NAME>
(6aR)-3-bromo-10,11-dimethoxy-6-methyl-5,6,6a,7-tetrahydro-4H-dibenzo[de,g]quinoline

> <PUBCHEM_IUPAC_NAME_MARKUP>
(6<I>a</I><I>R</I>)-3-bromo-10,11-dimethoxy-6-methyl-5,6,6<I>a</I>,7-tetrahydro-4<I>H</I>-dibenzo[de,g]quinoline

> <PUBCHEM_IUPAC_NAME>
(6aR)-3-bromo-10,11-dimethoxy-6-methyl-5,6,6a,7-tetrahydro-4H-dibenzo[de,g]quinoline

> <PUBCHEM_IUPAC_SYSTEMATIC_NAME>
(6aR)-3-bromanyl-10,11-dimethoxy-6-methyl-5,6,6a,7-tetrahydro-4H-dibenzo[de,g]quinoline

> <PUBCHEM_IUPAC_TRADITIONAL_NAME>
(6aR)-3-bromo-10,11-dimethoxy-6-methyl-5,6,6a,7-tetrahydro-4H-dibenzo[de,g]quinoline

> <PUBCHEM_IUPAC_INCHI>
InChI=1S/C19H20BrNO2/c1-21-9-8-12-14(20)6-5-13-17-11(10-15(21)18(12)13)4-7-16(22-2)19(17)23-3/h4-7,15H,8-10H2,1-3H3/t15-/m1/s1

> <PUBCHEM_IUPAC_INCHIKEY>
QCXMWEJEZDJYLD-OAHLLOKOSA-N

> <PUBCHEM_XLOGP3_AA>
4.1

> <PUBCHEM_EXACT_MASS>
373.06774

> <PUBCHEM_MOLECULAR_FORMULA>
C19H20BrNO2

> <PUBCHEM_MOLECULAR_WEIGHT>
374.3

> <PUBCHEM_OPENEYE_CAN_SMILES>
CN1CCC2=C(C=CC3=C2C1CC4=C3C(=C(C=C4)OC)OC)Br

> <PUBCHEM_OPENEYE_ISO_SMILES>
CN1CCC2=C(C=CC3=C2[C@H]1CC4=C3C(=C(C=C4)OC)OC)Br

> <PUBCHEM_CACTVS_TPSA>
21.7

> <PUBCHEM_MONOISOTOPIC_WEIGHT>
373.06774

> <PUBCHEM_TOTAL_CHARGE>
0

> <PUBCHEM_HEAVY_ATOM_COUNT>
23

> <PUBCHEM_ATOM_DEF_STEREO_COUNT>
1

> <PUBCHEM_ATOM_UDEF_STEREO_COUNT>
0

> <PUBCHEM_BOND_DEF_STEREO_COUNT>
0

> <PUBCHEM_BOND_UDEF_STEREO_COUNT>
0

> <PUBCHEM_ISOTOPIC_ATOM_COUNT>
0

> <PUBCHEM_COMPONENT_COUNT>
1

> <PUBCHEM_CACTVS_TAUTO_COUNT>
-1

> <PUBCHEM_COORDINATE_TYPE>
1
5
255

> <PUBCHEM_BONDANNOTATIONS>
10  16  8
12  13  8
12  18  8
13  17  8
15  19  8
16  19  8
17  20  8
18  21  8
20  21  8
5  24  5
6  10  8
6  8  8
8  15  8

$$$$
