11338674
  -OEChem-09292322102D

 49 51  0     0  0  0  0  0  0999 V2000
    2.0000   -4.2500    0.0000 Cl  0  0  0  0  0  0  0  0  0  0  0  0
    2.0000   -6.2500    0.0000 Cl  0  0  0  0  0  0  0  0  0  0  0  0
    7.1962    2.7500    0.0000 O   0  0  0  0  0  0  0  0  0  0  0  0
    3.7320   -1.2500    0.0000 N   0  0  0  0  0  0  0  0  0  0  0  0
    3.7320   -3.2500    0.0000 N   0  0  0  0  0  0  0  0  0  0  0  0
    5.4641    2.7500    0.0000 N   0  0  0  0  0  0  0  0  0  0  0  0
    6.3301    6.2500    0.0000 N   0  0  0  0  0  0  0  0  0  0  0  0
    4.5981   -1.7500    0.0000 C   0  0  0  0  0  0  0  0  0  0  0  0
    2.8660   -1.7500    0.0000 C   0  0  0  0  0  0  0  0  0  0  0  0
    4.5981   -2.7500    0.0000 C   0  0  0  0  0  0  0  0  0  0  0  0
    2.8660   -2.7500    0.0000 C   0  0  0  0  0  0  0  0  0  0  0  0
    3.7320   -0.2500    0.0000 C   0  0  0  0  0  0  0  0  0  0  0  0
    3.7320   -4.2500    0.0000 C   0  0  0  0  0  0  0  0  0  0  0  0
    4.5981    0.2500    0.0000 C   0  0  0  0  0  0  0  0  0  0  0  0
    2.8660   -4.7500    0.0000 C   0  0  0  0  0  0  0  0  0  0  0  0
    4.5981   -4.7500    0.0000 C   0  0  0  0  0  0  0  0  0  0  0  0
    4.5981    1.2500    0.0000 C   0  0  0  0  0  0  0  0  0  0  0  0
    2.8660   -5.7500    0.0000 C   0  0  0  0  0  0  0  0  0  0  0  0
    4.5981   -5.7500    0.0000 C   0  0  0  0  0  0  0  0  0  0  0  0
    3.7320   -6.2500    0.0000 C   0  0  0  0  0  0  0  0  0  0  0  0
    5.4641    1.7500    0.0000 C   0  0  0  0  0  0  0  0  0  0  0  0
    6.3301    3.2500    0.0000 C   0  0  0  0  0  0  0  0  0  0  0  0
    6.3301    4.2500    0.0000 C   0  0  0  0  0  0  0  0  0  0  0  0
    5.4641    4.7500    0.0000 C   0  0  0  0  0  0  0  0  0  0  0  0
    7.1962    4.7500    0.0000 C   0  0  0  0  0  0  0  0  0  0  0  0
    5.4641    5.7500    0.0000 C   0  0  0  0  0  0  0  0  0  0  0  0
    7.1962    5.7500    0.0000 C   0  0  0  0  0  0  0  0  0  0  0  0
    5.2087   -1.8577    0.0000 H   0  0  0  0  0  0  0  0  0  0  0  0
    4.8101   -1.1674    0.0000 H   0  0  0  0  0  0  0  0  0  0  0  0
    2.6540   -1.1674    0.0000 H   0  0  0  0  0  0  0  0  0  0  0  0
    2.2554   -1.8577    0.0000 H   0  0  0  0  0  0  0  0  0  0  0  0
    4.8101   -3.3326    0.0000 H   0  0  0  0  0  0  0  0  0  0  0  0
    5.2087   -2.6423    0.0000 H   0  0  0  0  0  0  0  0  0  0  0  0
    2.2554   -2.6423    0.0000 H   0  0  0  0  0  0  0  0  0  0  0  0
    2.6540   -3.3326    0.0000 H   0  0  0  0  0  0  0  0  0  0  0  0
    3.5200    0.3326    0.0000 H   0  0  0  0  0  0  0  0  0  0  0  0
    3.1215   -0.3577    0.0000 H   0  0  0  0  0  0  0  0  0  0  0  0
    5.1350   -0.0600    0.0000 H   0  0  0  0  0  0  0  0  0  0  0  0
    5.1350   -4.4400    0.0000 H   0  0  0  0  0  0  0  0  0  0  0  0
    4.0611    1.5600    0.0000 H   0  0  0  0  0  0  0  0  0  0  0  0
    5.1350   -6.0600    0.0000 H   0  0  0  0  0  0  0  0  0  0  0  0
    3.7320   -6.8700    0.0000 H   0  0  0  0  0  0  0  0  0  0  0  0
    5.6762    1.1674    0.0000 H   0  0  0  0  0  0  0  0  0  0  0  0
    6.0747    1.8577    0.0000 H   0  0  0  0  0  0  0  0  0  0  0  0
    4.9272    3.0600    0.0000 H   0  0  0  0  0  0  0  0  0  0  0  0
    4.9272    4.4400    0.0000 H   0  0  0  0  0  0  0  0  0  0  0  0
    7.7331    4.4400    0.0000 H   0  0  0  0  0  0  0  0  0  0  0  0
    4.9272    6.0600    0.0000 H   0  0  0  0  0  0  0  0  0  0  0  0
    7.7331    6.0600    0.0000 H   0  0  0  0  0  0  0  0  0  0  0  0
  1 15  1  0  0  0  0
  2 18  1  0  0  0  0
  3 22  2  0  0  0  0
  4  8  1  0  0  0  0
  4  9  1  0  0  0  0
  4 12  1  0  0  0  0
  5 10  1  0  0  0  0
  5 11  1  0  0  0  0
  5 13  1  0  0  0  0
  6 21  1  0  0  0  0
  6 22  1  0  0  0  0
  6 45  1  0  0  0  0
  7 26  2  0  0  0  0
  7 27  1  0  0  0  0
  8 10  1  0  0  0  0
  8 28  1  0  0  0  0
  8 29  1  0  0  0  0
  9 11  1  0  0  0  0
  9 30  1  0  0  0  0
  9 31  1  0  0  0  0
 10 32  1  0  0  0  0
 10 33  1  0  0  0  0
 11 34  1  0  0  0  0
 11 35  1  0  0  0  0
 12 14  1  0  0  0  0
 12 36  1  0  0  0  0
 12 37  1  0  0  0  0
 13 15  2  0  0  0  0
 13 16  1  0  0  0  0
 14 17  2  0  0  0  0
 14 38  1  0  0  0  0
 15 18  1  0  0  0  0
 16 19  2  0  0  0  0
 16 39  1  0  0  0  0
 17 21  1  0  0  0  0
 17 40  1  0  0  0  0
 18 20  2  0  0  0  0
 19 20  1  0  0  0  0
 19 41  1  0  0  0  0
 20 42  1  0  0  0  0
 21 43  1  0  0  0  0
 21 44  1  0  0  0  0
 22 23  1  0  0  0  0
 23 24  2  0  0  0  0
 23 25  1  0  0  0  0
 24 26  1  0  0  0  0
 24 46  1  0  0  0  0
 25 27  2  0  0  0  0
 25 47  1  0  0  0  0
 26 48  1  0  0  0  0
 27 49  1  0  0  0  0
M  END
> <PUBCHEM_COMPOUND_CID>
11338674

> <PUBCHEM_COMPOUND_CANONICALIZED>
1

> <PUBCHEM_CACTVS_COMPLEXITY>
490

> <PUBCHEM_CACTVS_HBOND_ACCEPTOR>
4

> <PUBCHEM_CACTVS_HBOND_DONOR>
1

> <PUBCHEM_CACTVS_ROTATABLE_BOND>
6

> <PUBCHEM_CACTVS_SUBSKEYS>
AAADceB7oAAGAAAAAAAAAAAAAAAAAAAAAAA8WIAAAAAAAAABwAAAHgIQAAAADArBmiQ8wJPIEACoAjV3VACCgCA1ByAI2uE4ZtgIYHLBl5HUIQhglgDIyYcUAAAKAAAAAAIAABQAAAAABAAAKAAAAAAAAA==

> <PUBCHEM_IUPAC_OPENEYE_NAME>
N-[(E)-4-[4-(2,3-dichlorophenyl)piperazin-1-yl]but-2-enyl]pyridine-4-carboxamide

> <PUBCHEM_IUPAC_CAS_NAME>
N-[(E)-4-[4-(2,3-dichlorophenyl)-1-piperazinyl]but-2-enyl]-4-pyridinecarboxamide

> <PUBCHEM_IUPAC_NAME_MARKUP>
<I>N</I>-[(<I>E</I>)-4-[4-(2,3-dichlorophenyl)piperazin-1-yl]but-2-enyl]pyridine-4-carboxamide

> <PUBCHEM_IUPAC_NAME>
N-[(E)-4-[4-(2,3-dichlorophenyl)piperazin-1-yl]but-2-enyl]pyridine-4-carboxamide

> <PUBCHEM_IUPAC_SYSTEMATIC_NAME>
N-[(E)-4-[4-[2,3-bis(chloranyl)phenyl]piperazin-1-yl]but-2-enyl]pyridine-4-carboxamide

> <PUBCHEM_IUPAC_TRADITIONAL_NAME>
N-[(E)-4-[4-(2,3-dichlorophenyl)piperazino]but-2-enyl]isonicotinamide

> <PUBCHEM_IUPAC_INCHI>
InChI=1S/C20H22Cl2N4O/c21-17-4-3-5-18(19(17)22)26-14-12-25(13-15-26)11-2-1-8-24-20(27)16-6-9-23-10-7-16/h1-7,9-10H,8,11-15H2,(H,24,27)/b2-1+

> <PUBCHEM_IUPAC_INCHIKEY>
BZXKTPMEZNZORO-OWOJBTEDSA-N

> <PUBCHEM_XLOGP3_AA>
3.3

> <PUBCHEM_EXACT_MASS>
404.1170667

> <PUBCHEM_MOLECULAR_FORMULA>
C20H22Cl2N4O

> <PUBCHEM_MOLECULAR_WEIGHT>
405.3

> <PUBCHEM_OPENEYE_CAN_SMILES>
C1CN(CCN1CC=CCNC(=O)C2=CC=NC=C2)C3=C(C(=CC=C3)Cl)Cl

> <PUBCHEM_OPENEYE_ISO_SMILES>
C1CN(CCN1C/C=C/CNC(=O)C2=CC=NC=C2)C3=C(C(=CC=C3)Cl)Cl

> <PUBCHEM_CACTVS_TPSA>
48.5

> <PUBCHEM_MONOISOTOPIC_WEIGHT>
404.1170667

> <PUBCHEM_TOTAL_CHARGE>
0

> <PUBCHEM_HEAVY_ATOM_COUNT>
27

> <PUBCHEM_ATOM_DEF_STEREO_COUNT>
0

> <PUBCHEM_ATOM_UDEF_STEREO_COUNT>
0

> <PUBCHEM_BOND_DEF_STEREO_COUNT>
1

> <PUBCHEM_BOND_UDEF_STEREO_COUNT>
0

> <PUBCHEM_ISOTOPIC_ATOM_COUNT>
0

> <PUBCHEM_COMPONENT_COUNT>
1

> <PUBCHEM_CACTVS_TAUTO_COUNT>
-1

> <PUBCHEM_COORDINATE_TYPE>
1
5
255

> <PUBCHEM_BONDANNOTATIONS>
13  15  8
13  16  8
15  18  8
16  19  8
18  20  8
19  20  8
23  24  8
23  25  8
24  26  8
25  27  8
7  26  8
7  27  8

$$$$
