118731503
  -OEChem-09292322352D

 73 78  0     1  0  0  0  0  0999 V2000
    3.8088    0.9681    0.0000 S   0  0  0  0  0  0  0  0  0  0  0  0
   12.2312   -3.1124    0.0000 O   0  0  0  0  0  0  0  0  0  0  0  0
    4.7221    1.3752    0.0000 O   0  0  0  0  0  0  0  0  0  0  0  0
    2.8954    0.5610    0.0000 O   0  0  0  0  0  0  0  0  0  0  0  0
   17.4934   -3.0882    0.0000 O   0  0  0  0  0  0  0  0  0  0  0  0
    7.8992   -2.6291    0.0000 N   0  0  3  0  0  0  0  0  0  0  0  0
    4.2158    0.0547    0.0000 N   0  0  0  0  0  0  0  0  0  0  0  0
   15.7613   -3.0882    0.0000 N   0  0  0  0  0  0  0  0  0  0  0  0
    7.8953   -1.6291    0.0000 C   0  0  0  0  0  0  0  0  0  0  0  0
    7.0274   -1.1324    0.0000 C   0  0  0  0  0  0  0  0  0  0  0  0
    6.1633   -1.6358    0.0000 C   0  0  0  0  0  0  0  0  0  0  0  0
    7.0351   -3.1324    0.0000 C   0  0  0  0  0  0  0  0  0  0  0  0
    8.7671   -3.1257    0.0000 C   0  0  0  0  0  0  0  0  0  0  0  0
    5.2953   -1.1391    0.0000 C   0  0  0  0  0  0  0  0  0  0  0  0
    6.1671   -2.6357    0.0000 C   0  0  0  0  0  0  0  0  0  0  0  0
    9.6312   -2.6224    0.0000 C   0  0  0  0  0  0  0  0  0  0  0  0
    4.3891   -1.5477    0.0000 C   0  0  0  0  0  0  0  0  0  0  0  0
    3.7184   -0.8060    0.0000 C   0  0  0  0  0  0  0  0  0  0  0  0
    5.1885   -0.1508    0.0000 C   0  0  0  0  0  0  0  0  0  0  0  0
   10.4992   -3.1190    0.0000 C   0  0  0  0  0  0  0  0  0  0  0  0
    4.0821   -2.4994    0.0000 C   0  0  0  0  0  0  0  0  0  0  0  0
   11.3632   -2.6157    0.0000 C   0  0  0  0  0  0  0  0  0  0  0  0
    2.7407   -1.0160    0.0000 C   0  0  0  0  0  0  0  0  0  0  0  0
    3.4017    1.8814    0.0000 C   0  0  0  0  0  0  0  0  0  0  0  0
    3.1044   -2.7094    0.0000 C   0  0  0  0  0  0  0  0  0  0  0  0
    2.4337   -1.9677    0.0000 C   0  0  0  0  0  0  0  0  0  0  0  0
   14.8953   -1.5882    0.0000 C   0  0  0  0  0  0  0  0  0  0  0  0
   15.7613   -1.0882    0.0000 C   0  0  0  0  0  0  0  0  0  0  0  0
   13.0953   -2.6090    0.0000 C   0  0  0  0  0  0  0  0  0  0  0  0
   14.8953   -2.5882    0.0000 C   0  0  0  0  0  0  0  0  0  0  0  0
   16.6273   -1.5882    0.0000 C   0  0  0  0  0  0  0  0  0  0  0  0
    2.4071    1.9856    0.0000 C   0  0  0  0  0  0  0  0  0  0  0  0
    3.9891    2.6907    0.0000 C   0  0  0  0  0  0  0  0  0  0  0  0
   14.0014   -3.1229    0.0000 C   0  0  0  0  0  0  0  0  0  0  0  0
   14.0014   -1.0536    0.0000 C   0  0  0  0  0  0  0  0  0  0  0  0
   13.0953   -1.5674    0.0000 C   0  0  0  0  0  0  0  0  0  0  0  0
   16.6273   -2.5882    0.0000 C   0  0  0  0  0  0  0  0  0  0  0  0
    2.0000    2.8990    0.0000 C   0  0  0  0  0  0  0  0  0  0  0  0
    3.5820    3.6041    0.0000 C   0  0  0  0  0  0  0  0  0  0  0  0
    2.5875    3.7082    0.0000 C   0  0  0  0  0  0  0  0  0  0  0  0
    8.5063   -1.7344    0.0000 H   0  0  0  0  0  0  0  0  0  0  0  0
    8.1051   -1.0456    0.0000 H   0  0  0  0  0  0  0  0  0  0  0  0
    7.4241   -0.6559    0.0000 H   0  0  0  0  0  0  0  0  0  0  0  0
    6.6270   -0.6590    0.0000 H   0  0  0  0  0  0  0  0  0  0  0  0
    6.6384   -3.6089    0.0000 H   0  0  0  0  0  0  0  0  0  0  0  0
    7.4354   -3.6058    0.0000 H   0  0  0  0  0  0  0  0  0  0  0  0
    8.3704   -3.6022    0.0000 H   0  0  0  0  0  0  0  0  0  0  0  0
    9.1675   -3.5991    0.0000 H   0  0  0  0  0  0  0  0  0  0  0  0
    5.6314   -2.9478    0.0000 H   0  0  0  0  0  0  0  0  0  0  0  0
   10.0279   -2.1459    0.0000 H   0  0  0  0  0  0  0  0  0  0  0  0
    9.2308   -2.1490    0.0000 H   0  0  0  0  0  0  0  0  0  0  0  0
    5.6483    0.2651    0.0000 H   0  0  0  0  0  0  0  0  0  0  0  0
   10.1025   -3.5955    0.0000 H   0  0  0  0  0  0  0  0  0  0  0  0
   10.8995   -3.5925    0.0000 H   0  0  0  0  0  0  0  0  0  0  0  0
    4.4980   -2.9593    0.0000 H   0  0  0  0  0  0  0  0  0  0  0  0
   11.7599   -2.1392    0.0000 H   0  0  0  0  0  0  0  0  0  0  0  0
   10.9629   -2.1423    0.0000 H   0  0  0  0  0  0  0  0  0  0  0  0
    2.3249   -0.5561    0.0000 H   0  0  0  0  0  0  0  0  0  0  0  0
    2.9141   -3.2995    0.0000 H   0  0  0  0  0  0  0  0  0  0  0  0
    1.8275   -2.0979    0.0000 H   0  0  0  0  0  0  0  0  0  0  0  0
   16.1598   -0.6133    0.0000 H   0  0  0  0  0  0  0  0  0  0  0  0
   15.3628   -0.6133    0.0000 H   0  0  0  0  0  0  0  0  0  0  0  0
   17.2379   -1.6959    0.0000 H   0  0  0  0  0  0  0  0  0  0  0  0
   16.8394   -1.0056    0.0000 H   0  0  0  0  0  0  0  0  0  0  0  0
   14.0085   -3.7428    0.0000 H   0  0  0  0  0  0  0  0  0  0  0  0
    2.0429    1.4839    0.0000 H   0  0  0  0  0  0  0  0  0  0  0  0
    4.6057    2.6261    0.0000 H   0  0  0  0  0  0  0  0  0  0  0  0
   14.0085   -0.4336    0.0000 H   0  0  0  0  0  0  0  0  0  0  0  0
   12.5595   -1.2553    0.0000 H   0  0  0  0  0  0  0  0  0  0  0  0
   15.7613   -3.7082    0.0000 H   0  0  0  0  0  0  0  0  0  0  0  0
    1.3834    2.9635    0.0000 H   0  0  0  0  0  0  0  0  0  0  0  0
    3.9463    4.1058    0.0000 H   0  0  0  0  0  0  0  0  0  0  0  0
    2.3351    4.2745    0.0000 H   0  0  0  0  0  0  0  0  0  0  0  0
  1  3  2  0  0  0  0
  1  4  2  0  0  0  0
  1  7  1  0  0  0  0
  1 24  1  0  0  0  0
  2 22  1  0  0  0  0
  2 29  1  0  0  0  0
  5 37  2  0  0  0  0
  6  9  1  0  0  0  0
  6 12  1  0  0  0  0
  6 13  1  0  0  0  0
  7 18  1  0  0  0  0
  7 19  1  0  0  0  0
  8 30  1  0  0  0  0
  8 37  1  0  0  0  0
  8 70  1  0  0  0  0
  9 10  1  0  0  0  0
  9 41  1  0  0  0  0
  9 42  1  0  0  0  0
 10 11  1  0  0  0  0
 10 43  1  0  0  0  0
 10 44  1  0  0  0  0
 11 14  1  0  0  0  0
 11 15  2  0  0  0  0
 12 15  1  0  0  0  0
 12 45  1  0  0  0  0
 12 46  1  0  0  0  0
 13 16  1  0  0  0  0
 13 47  1  0  0  0  0
 13 48  1  0  0  0  0
 14 17  1  0  0  0  0
 14 19  2  0  0  0  0
 15 49  1  0  0  0  0
 16 20  1  0  0  0  0
 16 50  1  0  0  0  0
 16 51  1  0  0  0  0
 17 18  1  0  0  0  0
 17 21  2  0  0  0  0
 18 23  2  0  0  0  0
 19 52  1  0  0  0  0
 20 22  1  0  0  0  0
 20 53  1  0  0  0  0
 20 54  1  0  0  0  0
 21 25  1  0  0  0  0
 21 55  1  0  0  0  0
 22 56  1  0  0  0  0
 22 57  1  0  0  0  0
 23 26  1  0  0  0  0
 23 58  1  0  0  0  0
 24 32  2  0  0  0  0
 24 33  1  0  0  0  0
 25 26  2  0  0  0  0
 25 59  1  0  0  0  0
 26 60  1  0  0  0  0
 27 28  1  0  0  0  0
 27 30  2  0  0  0  0
 27 35  1  0  0  0  0
 28 31  1  0  0  0  0
 28 61  1  0  0  0  0
 28 62  1  0  0  0  0
 29 34  2  0  0  0  0
 29 36  1  0  0  0  0
 30 34  1  0  0  0  0
 31 37  1  0  0  0  0
 31 63  1  0  0  0  0
 31 64  1  0  0  0  0
 32 38  1  0  0  0  0
 32 66  1  0  0  0  0
 33 39  2  0  0  0  0
 33 67  1  0  0  0  0
 34 65  1  0  0  0  0
 35 36  2  0  0  0  0
 35 68  1  0  0  0  0
 36 69  1  0  0  0  0
 38 40  2  0  0  0  0
 38 71  1  0  0  0  0
 39 40  1  0  0  0  0
 39 72  1  0  0  0  0
 40 73  1  0  0  0  0
M  END
> <PUBCHEM_COMPOUND_CID>
118731503

> <PUBCHEM_COMPOUND_CANONICALIZED>
1

> <PUBCHEM_CACTVS_COMPLEXITY>
1000

> <PUBCHEM_CACTVS_HBOND_ACCEPTOR>
5

> <PUBCHEM_CACTVS_HBOND_DONOR>
1

> <PUBCHEM_CACTVS_ROTATABLE_BOND>
9

> <PUBCHEM_CACTVS_SUBSKEYS>
AAADcfB/OABAAAAAAAAAAAAAAAAAAWAAAAA8YMECAAAAAFix9AAAHgQQQAAADAzh3gY8x/PIFAKoAzV3VHDCiDAxIiAI2Dk+bJgMJvLEsZuGOCjm1BnI6Ae42eOeoAAAAgACAABAAAAEAAQAAAAAAAAAAA==

> <PUBCHEM_IUPAC_OPENEYE_NAME>
7-[4-[4-[1-(benzenesulfonyl)indol-3-yl]-3,6-dihydro-2H-pyridin-1-yl]butoxy]-3,4-dihydro-1H-quinolin-2-one

> <PUBCHEM_IUPAC_CAS_NAME>
7-[4-[4-[1-(benzenesulfonyl)-3-indolyl]-3,6-dihydro-2H-pyridin-1-yl]butoxy]-3,4-dihydro-1H-quinolin-2-one

> <PUBCHEM_IUPAC_NAME_MARKUP>
7-[4-[4-[1-(benzenesulfonyl)indol-3-yl]-3,6-dihydro-2<I>H</I>-pyridin-1-yl]butoxy]-3,4-dihydro-1<I>H</I>-quinolin-2-one

> <PUBCHEM_IUPAC_NAME>
7-[4-[4-[1-(benzenesulfonyl)indol-3-yl]-3,6-dihydro-2H-pyridin-1-yl]butoxy]-3,4-dihydro-1H-quinolin-2-one

> <PUBCHEM_IUPAC_SYSTEMATIC_NAME>
7-[4-[4-[1-(phenylsulfonyl)indol-3-yl]-3,6-dihydro-2H-pyridin-1-yl]butoxy]-3,4-dihydro-1H-quinolin-2-one

> <PUBCHEM_IUPAC_TRADITIONAL_NAME>
7-[4-[4-(1-besylindol-3-yl)-3,6-dihydro-2H-pyridin-1-yl]butoxy]-3,4-dihydrocarbostyril

> <PUBCHEM_IUPAC_INCHI>
InChI=1S/C32H33N3O4S/c36-32-15-13-25-12-14-26(22-30(25)33-32)39-21-7-6-18-34-19-16-24(17-20-34)29-23-35(31-11-5-4-10-28(29)31)40(37,38)27-8-2-1-3-9-27/h1-5,8-12,14,16,22-23H,6-7,13,15,17-21H2,(H,33,36)

> <PUBCHEM_IUPAC_INCHIKEY>
POTCTIWPEKKBBZ-UHFFFAOYSA-N

> <PUBCHEM_XLOGP3_AA>
5

> <PUBCHEM_EXACT_MASS>
555.21917772

> <PUBCHEM_MOLECULAR_FORMULA>
C32H33N3O4S

> <PUBCHEM_MOLECULAR_WEIGHT>
555.7

> <PUBCHEM_OPENEYE_CAN_SMILES>
C1CC(=O)NC2=C1C=CC(=C2)OCCCCN3CCC(=CC3)C4=CN(C5=CC=CC=C54)S(=O)(=O)C6=CC=CC=C6

> <PUBCHEM_OPENEYE_ISO_SMILES>
C1CC(=O)NC2=C1C=CC(=C2)OCCCCN3CCC(=CC3)C4=CN(C5=CC=CC=C54)S(=O)(=O)C6=CC=CC=C6

> <PUBCHEM_CACTVS_TPSA>
89

> <PUBCHEM_MONOISOTOPIC_WEIGHT>
555.21917772

> <PUBCHEM_TOTAL_CHARGE>
0

> <PUBCHEM_HEAVY_ATOM_COUNT>
40

> <PUBCHEM_ATOM_DEF_STEREO_COUNT>
0

> <PUBCHEM_ATOM_UDEF_STEREO_COUNT>
0

> <PUBCHEM_BOND_DEF_STEREO_COUNT>
0

> <PUBCHEM_BOND_UDEF_STEREO_COUNT>
0

> <PUBCHEM_ISOTOPIC_ATOM_COUNT>
0

> <PUBCHEM_COMPONENT_COUNT>
1

> <PUBCHEM_CACTVS_TAUTO_COUNT>
-1

> <PUBCHEM_COORDINATE_TYPE>
1
5
255

> <PUBCHEM_BONDANNOTATIONS>
14  17  8
14  19  8
17  18  8
17  21  8
18  23  8
21  25  8
23  26  8
24  32  8
24  33  8
25  26  8
27  30  8
27  35  8
29  34  8
29  36  8
30  34  8
32  38  8
33  39  8
35  36  8
38  40  8
39  40  8
7  18  8
7  19  8

$$$$
