44452222
  -OEChem-09292322032D

 73 77  0     0  0  0  0  0  0999 V2000
    8.1301   -1.0000    0.0000 O   0  0  0  0  0  0  0  0  0  0  0  0
    4.6660   -5.0000    0.0000 O   0  0  0  0  0  0  0  0  0  0  0  0
    8.9962    2.5000    0.0000 N   0  0  0  0  0  0  0  0  0  0  0  0
   10.7282    3.5000    0.0000 N   0  0  0  0  0  0  0  0  0  0  0  0
    6.3981   -1.0000    0.0000 N   0  0  0  0  0  0  0  0  0  0  0  0
    5.5321   -3.5000    0.0000 N   0  0  0  0  0  0  0  0  0  0  0  0
    4.6660   -2.0000    0.0000 N   0  0  0  0  0  0  0  0  0  0  0  0
    9.8622    2.0000    0.0000 C   0  0  0  0  0  0  0  0  0  0  0  0
    8.9962    3.5000    0.0000 C   0  0  0  0  0  0  0  0  0  0  0  0
   10.7282    2.5000    0.0000 C   0  0  0  0  0  0  0  0  0  0  0  0
    9.8622    4.0000    0.0000 C   0  0  0  0  0  0  0  0  0  0  0  0
    8.1301    2.0000    0.0000 C   0  0  0  0  0  0  0  0  0  0  0  0
   11.5942    4.0000    0.0000 C   0  0  0  0  0  0  0  0  0  0  0  0
    8.1301    1.0000    0.0000 C   0  0  0  0  0  0  0  0  0  0  0  0
   12.4603    3.5000    0.0000 C   0  0  0  0  0  0  0  0  0  0  0  0
    7.2641    0.5000    0.0000 C   0  0  0  0  0  0  0  0  0  0  0  0
   11.5942    5.0000    0.0000 C   0  0  0  0  0  0  0  0  0  0  0  0
   13.3263    4.0000    0.0000 C   0  0  0  0  0  0  0  0  0  0  0  0
   12.4603    2.5000    0.0000 C   0  0  0  0  0  0  0  0  0  0  0  0
   12.4603    5.5000    0.0000 C   0  0  0  0  0  0  0  0  0  0  0  0
    7.2641   -0.5000    0.0000 C   0  0  0  0  0  0  0  0  0  0  0  0
   13.3263    5.0000    0.0000 C   0  0  0  0  0  0  0  0  0  0  0  0
   14.1923    3.5000    0.0000 C   0  0  0  0  0  0  0  0  0  0  0  0
    6.3981   -2.0000    0.0000 C   0  0  0  0  0  0  0  0  0  0  0  0
    5.5321   -2.5000    0.0000 C   0  0  0  0  0  0  0  0  0  0  0  0
    4.6660   -4.0000    0.0000 C   0  0  0  0  0  0  0  0  0  0  0  0
    3.8000   -3.5000    0.0000 C   0  0  0  0  0  0  0  0  0  0  0  0
    3.8000   -2.5000    0.0000 C   0  0  0  0  0  0  0  0  0  0  0  0
    6.3981   -4.0000    0.0000 C   0  0  0  0  0  0  0  0  0  0  0  0
    2.9061   -4.0347    0.0000 C   0  0  0  0  0  0  0  0  0  0  0  0
    2.9061   -1.9653    0.0000 C   0  0  0  0  0  0  0  0  0  0  0  0
    6.3981   -5.0000    0.0000 C   0  0  0  0  0  0  0  0  0  0  0  0
    7.2641   -3.5000    0.0000 C   0  0  0  0  0  0  0  0  0  0  0  0
    2.0000   -3.5208    0.0000 C   0  0  0  0  0  0  0  0  0  0  0  0
    2.0000   -2.4792    0.0000 C   0  0  0  0  0  0  0  0  0  0  0  0
    7.2641   -5.5000    0.0000 C   0  0  0  0  0  0  0  0  0  0  0  0
    8.1301   -4.0000    0.0000 C   0  0  0  0  0  0  0  0  0  0  0  0
    8.1301   -5.0000    0.0000 C   0  0  0  0  0  0  0  0  0  0  0  0
    9.4637    1.5250    0.0000 H   0  0  0  0  0  0  0  0  0  0  0  0
   10.2607    1.5250    0.0000 H   0  0  0  0  0  0  0  0  0  0  0  0
    8.7841    4.0826    0.0000 H   0  0  0  0  0  0  0  0  0  0  0  0
    8.3856    3.3923    0.0000 H   0  0  0  0  0  0  0  0  0  0  0  0
   10.9403    1.9174    0.0000 H   0  0  0  0  0  0  0  0  0  0  0  0
   11.3388    2.6077    0.0000 H   0  0  0  0  0  0  0  0  0  0  0  0
   10.2607    4.4750    0.0000 H   0  0  0  0  0  0  0  0  0  0  0  0
    9.4637    4.4750    0.0000 H   0  0  0  0  0  0  0  0  0  0  0  0
    7.9181    2.5826    0.0000 H   0  0  0  0  0  0  0  0  0  0  0  0
    7.5196    1.8923    0.0000 H   0  0  0  0  0  0  0  0  0  0  0  0
    8.3422    0.4174    0.0000 H   0  0  0  0  0  0  0  0  0  0  0  0
    8.7407    1.1077    0.0000 H   0  0  0  0  0  0  0  0  0  0  0  0
    7.0521    1.0826    0.0000 H   0  0  0  0  0  0  0  0  0  0  0  0
    6.6535    0.3923    0.0000 H   0  0  0  0  0  0  0  0  0  0  0  0
   11.0573    5.3100    0.0000 H   0  0  0  0  0  0  0  0  0  0  0  0
   11.8403    2.5000    0.0000 H   0  0  0  0  0  0  0  0  0  0  0  0
   12.4603    1.8800    0.0000 H   0  0  0  0  0  0  0  0  0  0  0  0
   13.0803    2.5000    0.0000 H   0  0  0  0  0  0  0  0  0  0  0  0
   12.4603    6.1200    0.0000 H   0  0  0  0  0  0  0  0  0  0  0  0
   13.8632    5.3100    0.0000 H   0  0  0  0  0  0  0  0  0  0  0  0
   13.8823    2.9631    0.0000 H   0  0  0  0  0  0  0  0  0  0  0  0
   14.7292    3.1900    0.0000 H   0  0  0  0  0  0  0  0  0  0  0  0
   14.5023    4.0369    0.0000 H   0  0  0  0  0  0  0  0  0  0  0  0
    5.8612   -0.6900    0.0000 H   0  0  0  0  0  0  0  0  0  0  0  0
    6.6101   -2.5826    0.0000 H   0  0  0  0  0  0  0  0  0  0  0  0
    7.0087   -1.8923    0.0000 H   0  0  0  0  0  0  0  0  0  0  0  0
    2.9132   -4.6546    0.0000 H   0  0  0  0  0  0  0  0  0  0  0  0
    2.9132   -1.3454    0.0000 H   0  0  0  0  0  0  0  0  0  0  0  0
    5.8612   -5.3100    0.0000 H   0  0  0  0  0  0  0  0  0  0  0  0
    7.2641   -2.8800    0.0000 H   0  0  0  0  0  0  0  0  0  0  0  0
    1.4643   -3.8329    0.0000 H   0  0  0  0  0  0  0  0  0  0  0  0
    1.4643   -2.1671    0.0000 H   0  0  0  0  0  0  0  0  0  0  0  0
    7.2641   -6.1200    0.0000 H   0  0  0  0  0  0  0  0  0  0  0  0
    8.6671   -3.6900    0.0000 H   0  0  0  0  0  0  0  0  0  0  0  0
    8.6671   -5.3100    0.0000 H   0  0  0  0  0  0  0  0  0  0  0  0
  1 21  2  0  0  0  0
  2 26  2  0  0  0  0
  3  8  1  0  0  0  0
  3  9  1  0  0  0  0
  3 12  1  0  0  0  0
  4 10  1  0  0  0  0
  4 11  1  0  0  0  0
  4 13  1  0  0  0  0
  5 21  1  0  0  0  0
  5 24  1  0  0  0  0
  5 62  1  0  0  0  0
  6 25  1  0  0  0  0
  6 26  1  0  0  0  0
  6 29  1  0  0  0  0
  7 25  2  0  0  0  0
  7 28  1  0  0  0  0
  8 10  1  0  0  0  0
  8 39  1  0  0  0  0
  8 40  1  0  0  0  0
  9 11  1  0  0  0  0
  9 41  1  0  0  0  0
  9 42  1  0  0  0  0
 10 43  1  0  0  0  0
 10 44  1  0  0  0  0
 11 45  1  0  0  0  0
 11 46  1  0  0  0  0
 12 14  1  0  0  0  0
 12 47  1  0  0  0  0
 12 48  1  0  0  0  0
 13 15  1  0  0  0  0
 13 17  2  0  0  0  0
 14 16  1  0  0  0  0
 14 49  1  0  0  0  0
 14 50  1  0  0  0  0
 15 18  2  0  0  0  0
 15 19  1  0  0  0  0
 16 21  1  0  0  0  0
 16 51  1  0  0  0  0
 16 52  1  0  0  0  0
 17 20  1  0  0  0  0
 17 53  1  0  0  0  0
 18 22  1  0  0  0  0
 18 23  1  0  0  0  0
 19 54  1  0  0  0  0
 19 55  1  0  0  0  0
 19 56  1  0  0  0  0
 20 22  2  0  0  0  0
 20 57  1  0  0  0  0
 22 58  1  0  0  0  0
 23 59  1  0  0  0  0
 23 60  1  0  0  0  0
 23 61  1  0  0  0  0
 24 25  1  0  0  0  0
 24 63  1  0  0  0  0
 24 64  1  0  0  0  0
 26 27  1  0  0  0  0
 27 28  1  0  0  0  0
 27 30  2  0  0  0  0
 28 31  2  0  0  0  0
 29 32  2  0  0  0  0
 29 33  1  0  0  0  0
 30 34  1  0  0  0  0
 30 65  1  0  0  0  0
 31 35  1  0  0  0  0
 31 66  1  0  0  0  0
 32 36  1  0  0  0  0
 32 67  1  0  0  0  0
 33 37  2  0  0  0  0
 33 68  1  0  0  0  0
 34 35  2  0  0  0  0
 34 69  1  0  0  0  0
 35 70  1  0  0  0  0
 36 38  2  0  0  0  0
 36 71  1  0  0  0  0
 37 38  1  0  0  0  0
 37 72  1  0  0  0  0
 38 73  1  0  0  0  0
M  END
> <PUBCHEM_COMPOUND_CID>
44452222

> <PUBCHEM_COMPOUND_CANONICALIZED>
1

> <PUBCHEM_CACTVS_COMPLEXITY>
832

> <PUBCHEM_CACTVS_HBOND_ACCEPTOR>
5

> <PUBCHEM_CACTVS_HBOND_DONOR>
1

> <PUBCHEM_CACTVS_ROTATABLE_BOND>
8

> <PUBCHEM_CACTVS_SUBSKEYS>
AAADcfB7sAAAAAAAAAAAAAAAAAAAAAAAAAA8YMECAAAAAACBUAAAHgAQAAAADAjBmAQzwIPAAACoAidydACCAAElAgAJiIEYZMgIYDrA3ZGUIYhglgDIyccciICOgAAAQAASAAAAAACAACQAAAAAAAAAAA==

> <PUBCHEM_IUPAC_OPENEYE_NAME>
4-[4-(2,3-dimethylphenyl)piperazin-1-yl]-N-[(4-oxo-3-phenyl-quinazolin-2-yl)methyl]butanamide

> <PUBCHEM_IUPAC_CAS_NAME>
4-[4-(2,3-dimethylphenyl)-1-piperazinyl]-N-[(4-oxo-3-phenyl-2-quinazolinyl)methyl]butanamide

> <PUBCHEM_IUPAC_NAME_MARKUP>
4-[4-(2,3-dimethylphenyl)piperazin-1-yl]-<I>N</I>-[(4-oxo-3-phenylquinazolin-2-yl)methyl]butanamide

> <PUBCHEM_IUPAC_NAME>
4-[4-(2,3-dimethylphenyl)piperazin-1-yl]-N-[(4-oxo-3-phenylquinazolin-2-yl)methyl]butanamide

> <PUBCHEM_IUPAC_SYSTEMATIC_NAME>
4-[4-(2,3-dimethylphenyl)piperazin-1-yl]-N-[(4-oxidanylidene-3-phenyl-quinazolin-2-yl)methyl]butanamide

> <PUBCHEM_IUPAC_TRADITIONAL_NAME>
4-[4-(2,3-dimethylphenyl)piperazino]-N-[(4-keto-3-phenyl-quinazolin-2-yl)methyl]butyramide

> <PUBCHEM_IUPAC_INCHI>
InChI=1S/C31H35N5O2/c1-23-10-8-15-28(24(23)2)35-20-18-34(19-21-35)17-9-16-30(37)32-22-29-33-27-14-7-6-13-26(27)31(38)36(29)25-11-4-3-5-12-25/h3-8,10-15H,9,16-22H2,1-2H3,(H,32,37)

> <PUBCHEM_IUPAC_INCHIKEY>
LSBYSFJBFKEHKG-UHFFFAOYSA-N

> <PUBCHEM_XLOGP3_AA>
4.4

> <PUBCHEM_EXACT_MASS>
509.27907538

> <PUBCHEM_MOLECULAR_FORMULA>
C31H35N5O2

> <PUBCHEM_MOLECULAR_WEIGHT>
509.6

> <PUBCHEM_OPENEYE_CAN_SMILES>
CC1=C(C(=CC=C1)N2CCN(CC2)CCCC(=O)NCC3=NC4=CC=CC=C4C(=O)N3C5=CC=CC=C5)C

> <PUBCHEM_OPENEYE_ISO_SMILES>
CC1=C(C(=CC=C1)N2CCN(CC2)CCCC(=O)NCC3=NC4=CC=CC=C4C(=O)N3C5=CC=CC=C5)C

> <PUBCHEM_CACTVS_TPSA>
68.2

> <PUBCHEM_MONOISOTOPIC_WEIGHT>
509.27907538

> <PUBCHEM_TOTAL_CHARGE>
0

> <PUBCHEM_HEAVY_ATOM_COUNT>
38

> <PUBCHEM_ATOM_DEF_STEREO_COUNT>
0

> <PUBCHEM_ATOM_UDEF_STEREO_COUNT>
0

> <PUBCHEM_BOND_DEF_STEREO_COUNT>
0

> <PUBCHEM_BOND_UDEF_STEREO_COUNT>
0

> <PUBCHEM_ISOTOPIC_ATOM_COUNT>
0

> <PUBCHEM_COMPONENT_COUNT>
1

> <PUBCHEM_CACTVS_TAUTO_COUNT>
-1

> <PUBCHEM_COORDINATE_TYPE>
1
5
255

> <PUBCHEM_BONDANNOTATIONS>
13  15  8
13  17  8
15  18  8
17  20  8
18  22  8
20  22  8
26  27  8
27  28  8
27  30  8
28  31  8
29  32  8
29  33  8
30  34  8
31  35  8
32  36  8
33  37  8
34  35  8
36  38  8
37  38  8
6  25  8
6  26  8
7  25  8
7  28  8

$$$$
