18367
  -OEChem-09292322092D

 49 51  0     0  0  0  0  0  0999 V2000
    2.8660   -5.7990    0.0000 F   0  0  0  0  0  0  0  0  0  0  0  0
    4.0981    4.0670    0.0000 O   0  0  0  0  0  0  0  0  0  0  0  0
    2.0000   -1.2990    0.0000 O   0  0  0  0  0  0  0  0  0  0  0  0
    4.5981    1.2010    0.0000 N   0  0  0  0  0  0  0  0  0  0  0  0
    4.5981    3.2010    0.0000 C   0  0  0  0  0  0  0  0  0  0  0  0
    5.4641    2.7010    0.0000 C   0  0  0  0  0  0  0  0  0  0  0  0
    3.7320    2.7010    0.0000 C   0  0  0  0  0  0  0  0  0  0  0  0
    5.4641    1.7010    0.0000 C   0  0  0  0  0  0  0  0  0  0  0  0
    3.7320    1.7010    0.0000 C   0  0  0  0  0  0  0  0  0  0  0  0
    4.5981    0.2010    0.0000 C   0  0  0  0  0  0  0  0  0  0  0  0
    5.0981    4.0670    0.0000 C   0  0  0  0  0  0  0  0  0  0  0  0
    3.7320   -0.2990    0.0000 C   0  0  0  0  0  0  0  0  0  0  0  0
    4.5981    4.9330    0.0000 C   0  0  0  0  0  0  0  0  0  0  0  0
    6.0981    4.0670    0.0000 C   0  0  0  0  0  0  0  0  0  0  0  0
    3.7320   -1.2990    0.0000 C   0  0  0  0  0  0  0  0  0  0  0  0
    5.0981    5.7990    0.0000 C   0  0  0  0  0  0  0  0  0  0  0  0
    6.5981    4.9330    0.0000 C   0  0  0  0  0  0  0  0  0  0  0  0
    2.8660   -1.7990    0.0000 C   0  0  0  0  0  0  0  0  0  0  0  0
    6.0981    5.7990    0.0000 C   0  0  0  0  0  0  0  0  0  0  0  0
    2.8660   -2.7990    0.0000 C   0  0  0  0  0  0  0  0  0  0  0  0
    3.7320   -3.2990    0.0000 C   0  0  0  0  0  0  0  0  0  0  0  0
    2.0000   -3.2990    0.0000 C   0  0  0  0  0  0  0  0  0  0  0  0
    3.7320   -4.2990    0.0000 C   0  0  0  0  0  0  0  0  0  0  0  0
    2.0000   -4.2990    0.0000 C   0  0  0  0  0  0  0  0  0  0  0  0
    2.8660   -4.7990    0.0000 C   0  0  0  0  0  0  0  0  0  0  0  0
    6.0747    2.5933    0.0000 H   0  0  0  0  0  0  0  0  0  0  0  0
    5.6762    3.2836    0.0000 H   0  0  0  0  0  0  0  0  0  0  0  0
    3.5200    3.2836    0.0000 H   0  0  0  0  0  0  0  0  0  0  0  0
    3.1215    2.5933    0.0000 H   0  0  0  0  0  0  0  0  0  0  0  0
    5.6762    1.1184    0.0000 H   0  0  0  0  0  0  0  0  0  0  0  0
    6.0747    1.8086    0.0000 H   0  0  0  0  0  0  0  0  0  0  0  0
    3.1215    1.8086    0.0000 H   0  0  0  0  0  0  0  0  0  0  0  0
    3.5200    1.1184    0.0000 H   0  0  0  0  0  0  0  0  0  0  0  0
    4.8101   -0.3816    0.0000 H   0  0  0  0  0  0  0  0  0  0  0  0
    5.2087    0.3086    0.0000 H   0  0  0  0  0  0  0  0  0  0  0  0
    3.5200    0.2836    0.0000 H   0  0  0  0  0  0  0  0  0  0  0  0
    3.1215   -0.4067    0.0000 H   0  0  0  0  0  0  0  0  0  0  0  0
    3.4781    4.0670    0.0000 H   0  0  0  0  0  0  0  0  0  0  0  0
    3.9781    4.9330    0.0000 H   0  0  0  0  0  0  0  0  0  0  0  0
    6.4081    3.5300    0.0000 H   0  0  0  0  0  0  0  0  0  0  0  0
    3.9441   -1.8816    0.0000 H   0  0  0  0  0  0  0  0  0  0  0  0
    4.3426   -1.1914    0.0000 H   0  0  0  0  0  0  0  0  0  0  0  0
    4.7881    6.3360    0.0000 H   0  0  0  0  0  0  0  0  0  0  0  0
    7.2181    4.9330    0.0000 H   0  0  0  0  0  0  0  0  0  0  0  0
    6.4081    6.3360    0.0000 H   0  0  0  0  0  0  0  0  0  0  0  0
    4.2690   -2.9890    0.0000 H   0  0  0  0  0  0  0  0  0  0  0  0
    1.4631   -2.9890    0.0000 H   0  0  0  0  0  0  0  0  0  0  0  0
    4.2690   -4.6090    0.0000 H   0  0  0  0  0  0  0  0  0  0  0  0
    1.4631   -4.6090    0.0000 H   0  0  0  0  0  0  0  0  0  0  0  0
  1 25  1  0  0  0  0
  2  5  1  0  0  0  0
  2 38  1  0  0  0  0
  3 18  2  0  0  0  0
  4  8  1  0  0  0  0
  4  9  1  0  0  0  0
  4 10  1  0  0  0  0
  5  6  1  0  0  0  0
  5  7  1  0  0  0  0
  5 11  1  0  0  0  0
  6  8  1  0  0  0  0
  6 26  1  0  0  0  0
  6 27  1  0  0  0  0
  7  9  1  0  0  0  0
  7 28  1  0  0  0  0
  7 29  1  0  0  0  0
  8 30  1  0  0  0  0
  8 31  1  0  0  0  0
  9 32  1  0  0  0  0
  9 33  1  0  0  0  0
 10 12  1  0  0  0  0
 10 34  1  0  0  0  0
 10 35  1  0  0  0  0
 11 13  2  0  0  0  0
 11 14  1  0  0  0  0
 12 15  1  0  0  0  0
 12 36  1  0  0  0  0
 12 37  1  0  0  0  0
 13 16  1  0  0  0  0
 13 39  1  0  0  0  0
 14 17  2  0  0  0  0
 14 40  1  0  0  0  0
 15 18  1  0  0  0  0
 15 41  1  0  0  0  0
 15 42  1  0  0  0  0
 16 19  2  0  0  0  0
 16 43  1  0  0  0  0
 17 19  1  0  0  0  0
 17 44  1  0  0  0  0
 18 20  1  0  0  0  0
 19 45  1  0  0  0  0
 20 21  2  0  0  0  0
 20 22  1  0  0  0  0
 21 23  1  0  0  0  0
 21 46  1  0  0  0  0
 22 24  2  0  0  0  0
 22 47  1  0  0  0  0
 23 25  2  0  0  0  0
 23 48  1  0  0  0  0
 24 25  1  0  0  0  0
 24 49  1  0  0  0  0
M  END
> <PUBCHEM_COMPOUND_CID>
18367

> <PUBCHEM_COMPOUND_CANONICALIZED>
1

> <PUBCHEM_CACTVS_COMPLEXITY>
420

> <PUBCHEM_CACTVS_HBOND_ACCEPTOR>
4

> <PUBCHEM_CACTVS_HBOND_DONOR>
1

> <PUBCHEM_CACTVS_ROTATABLE_BOND>
6

> <PUBCHEM_CACTVS_SUBSKEYS>
AAADceB6MQAAAAAAAAAAAAAAAAAAAAAAAAA8YIAAAAAAAAABQAAAHwAACAAADETBmAwwAIMAAgCIAqBSAAACAAAkAAAIiAEICMgIJjKAlRCEcQAmwAGImYecyOCOgAAAAAAAAAAAAAAAAAAAAAAAAAAAAA==

> <PUBCHEM_IUPAC_OPENEYE_NAME>
1-(4-fluorophenyl)-4-(4-hydroxy-4-phenyl-1-piperidyl)butan-1-one

> <PUBCHEM_IUPAC_CAS_NAME>
1-(4-fluorophenyl)-4-(4-hydroxy-4-phenyl-1-piperidinyl)-1-butanone

> <PUBCHEM_IUPAC_NAME_MARKUP>
1-(4-fluorophenyl)-4-(4-hydroxy-4-phenylpiperidin-1-yl)butan-1-one

> <PUBCHEM_IUPAC_NAME>
1-(4-fluorophenyl)-4-(4-hydroxy-4-phenylpiperidin-1-yl)butan-1-one

> <PUBCHEM_IUPAC_SYSTEMATIC_NAME>
1-(4-fluorophenyl)-4-(4-oxidanyl-4-phenyl-piperidin-1-yl)butan-1-one

> <PUBCHEM_IUPAC_TRADITIONAL_NAME>
1-(4-fluorophenyl)-4-(4-hydroxy-4-phenyl-piperidino)butan-1-one

> <PUBCHEM_IUPAC_INCHI>
InChI=1S/C21H24FNO2/c22-19-10-8-17(9-11-19)20(24)7-4-14-23-15-12-21(25,13-16-23)18-5-2-1-3-6-18/h1-3,5-6,8-11,25H,4,7,12-16H2

> <PUBCHEM_IUPAC_INCHIKEY>
FEFFZKPQSVTBAY-UHFFFAOYSA-N

> <PUBCHEM_XLOGP3>
2.6

> <PUBCHEM_EXACT_MASS>
341.17910717

> <PUBCHEM_MOLECULAR_FORMULA>
C21H24FNO2

> <PUBCHEM_MOLECULAR_WEIGHT>
341.4

> <PUBCHEM_OPENEYE_CAN_SMILES>
C1CN(CCC1(C2=CC=CC=C2)O)CCCC(=O)C3=CC=C(C=C3)F

> <PUBCHEM_OPENEYE_ISO_SMILES>
C1CN(CCC1(C2=CC=CC=C2)O)CCCC(=O)C3=CC=C(C=C3)F

> <PUBCHEM_CACTVS_TPSA>
40.5

> <PUBCHEM_MONOISOTOPIC_WEIGHT>
341.17910717

> <PUBCHEM_TOTAL_CHARGE>
0

> <PUBCHEM_HEAVY_ATOM_COUNT>
25

> <PUBCHEM_ATOM_DEF_STEREO_COUNT>
0

> <PUBCHEM_ATOM_UDEF_STEREO_COUNT>
0

> <PUBCHEM_BOND_DEF_STEREO_COUNT>
0

> <PUBCHEM_BOND_UDEF_STEREO_COUNT>
0

> <PUBCHEM_ISOTOPIC_ATOM_COUNT>
0

> <PUBCHEM_COMPONENT_COUNT>
1

> <PUBCHEM_CACTVS_TAUTO_COUNT>
-1

> <PUBCHEM_COORDINATE_TYPE>
1
5
255

> <PUBCHEM_BONDANNOTATIONS>
11  13  8
11  14  8
13  16  8
14  17  8
16  19  8
17  19  8
20  21  8
20  22  8
21  23  8
22  24  8
23  25  8
24  25  8

$$$$
