10092649
  -OEChem-09292322032D

 62 66  0     0  0  0  0  0  0999 V2000
    6.2619   -3.7136    0.0000 O   0  0  0  0  0  0  0  0  0  0  0  0
    5.6103   -0.0573    0.0000 N   0  0  0  0  0  0  0  0  0  0  0  0
    6.5422    2.7942    0.0000 N   0  0  0  0  0  0  0  0  0  0  0  0
    4.6783   -2.9089    0.0000 N   0  0  0  0  0  0  0  0  0  0  0  0
    4.6783   -4.5184    0.0000 N   0  0  0  0  0  0  0  0  0  0  0  0
    5.9209    0.8932    0.0000 C   0  0  0  0  0  0  0  0  0  0  0  0
    4.9889   -1.9584    0.0000 C   0  0  0  0  0  0  0  0  0  0  0  0
    4.6318   -0.2636    0.0000 C   0  0  0  0  0  0  0  0  0  0  0  0
    6.2781   -0.8016    0.0000 C   0  0  0  0  0  0  0  0  0  0  0  0
    5.2531    1.6375    0.0000 C   0  0  0  0  0  0  0  0  0  0  0  0
    6.8994    1.0994    0.0000 C   0  0  0  0  0  0  0  0  0  0  0  0
    4.3211   -1.2141    0.0000 C   0  0  0  0  0  0  0  0  0  0  0  0
    5.9674   -1.7522    0.0000 C   0  0  0  0  0  0  0  0  0  0  0  0
    5.5637    2.5880    0.0000 C   0  0  0  0  0  0  0  0  0  0  0  0
    7.2101    2.0499    0.0000 C   0  0  0  0  0  0  0  0  0  0  0  0
    6.8529    3.7447    0.0000 C   0  0  0  0  0  0  0  0  0  0  0  0
    3.7320   -3.2136    0.0000 C   0  0  0  0  0  0  0  0  0  0  0  0
    5.2619   -3.7136    0.0000 C   0  0  0  0  0  0  0  0  0  0  0  0
    3.7320   -4.2136    0.0000 C   0  0  0  0  0  0  0  0  0  0  0  0
    7.8314    3.9510    0.0000 C   0  0  0  0  0  0  0  0  0  0  0  0
    2.8660   -2.7136    0.0000 C   0  0  0  0  0  0  0  0  0  0  0  0
    2.8660   -4.7136    0.0000 C   0  0  0  0  0  0  0  0  0  0  0  0
    8.4993    3.2066    0.0000 C   0  0  0  0  0  0  0  0  0  0  0  0
    8.1421    4.9015    0.0000 C   0  0  0  0  0  0  0  0  0  0  0  0
    2.0000   -3.2136    0.0000 C   0  0  0  0  0  0  0  0  0  0  0  0
    2.0000   -4.2136    0.0000 C   0  0  0  0  0  0  0  0  0  0  0  0
    9.4778    3.4129    0.0000 C   0  0  0  0  0  0  0  0  0  0  0  0
    8.1886    2.2561    0.0000 C   0  0  0  0  0  0  0  0  0  0  0  0
    9.1206    5.1077    0.0000 C   0  0  0  0  0  0  0  0  0  0  0  0
    9.7884    4.3634    0.0000 C   0  0  0  0  0  0  0  0  0  0  0  0
    6.3350    0.4317    0.0000 H   0  0  0  0  0  0  0  0  0  0  0  0
    5.4030   -2.4198    0.0000 H   0  0  0  0  0  0  0  0  0  0  0  0
    4.6112    0.3561    0.0000 H   0  0  0  0  0  0  0  0  0  0  0  0
    4.0179   -0.1762    0.0000 H   0  0  0  0  0  0  0  0  0  0  0  0
    6.8250   -1.0937    0.0000 H   0  0  0  0  0  0  0  0  0  0  0  0
    6.6607   -0.3137    0.0000 H   0  0  0  0  0  0  0  0  0  0  0  0
    4.7062    1.9295    0.0000 H   0  0  0  0  0  0  0  0  0  0  0  0
    4.8705    1.1496    0.0000 H   0  0  0  0  0  0  0  0  0  0  0  0
    6.9200    0.4797    0.0000 H   0  0  0  0  0  0  0  0  0  0  0  0
    7.5132    1.0120    0.0000 H   0  0  0  0  0  0  0  0  0  0  0  0
    3.7742   -0.9221    0.0000 H   0  0  0  0  0  0  0  0  0  0  0  0
    3.9385   -1.7020    0.0000 H   0  0  0  0  0  0  0  0  0  0  0  0
    5.9880   -2.3718    0.0000 H   0  0  0  0  0  0  0  0  0  0  0  0
    6.5812   -1.8395    0.0000 H   0  0  0  0  0  0  0  0  0  0  0  0
    5.5432    3.2077    0.0000 H   0  0  0  0  0  0  0  0  0  0  0  0
    4.9499    2.6754    0.0000 H   0  0  0  0  0  0  0  0  0  0  0  0
    7.7570    1.7579    0.0000 H   0  0  0  0  0  0  0  0  0  0  0  0
    7.5926    2.5378    0.0000 H   0  0  0  0  0  0  0  0  0  0  0  0
    6.8323    4.3644    0.0000 H   0  0  0  0  0  0  0  0  0  0  0  0
    6.2391    3.8321    0.0000 H   0  0  0  0  0  0  0  0  0  0  0  0
    4.8709   -5.1077    0.0000 H   0  0  0  0  0  0  0  0  0  0  0  0
    2.8660   -2.0936    0.0000 H   0  0  0  0  0  0  0  0  0  0  0  0
    2.8660   -5.3336    0.0000 H   0  0  0  0  0  0  0  0  0  0  0  0
    7.7280    5.3629    0.0000 H   0  0  0  0  0  0  0  0  0  0  0  0
    1.4631   -2.9036    0.0000 H   0  0  0  0  0  0  0  0  0  0  0  0
    1.4631   -4.5236    0.0000 H   0  0  0  0  0  0  0  0  0  0  0  0
    9.8918    2.9514    0.0000 H   0  0  0  0  0  0  0  0  0  0  0  0
    7.5993    2.4487    0.0000 H   0  0  0  0  0  0  0  0  0  0  0  0
    7.9960    1.6668    0.0000 H   0  0  0  0  0  0  0  0  0  0  0  0
    8.7779    2.0635    0.0000 H   0  0  0  0  0  0  0  0  0  0  0  0
    9.3132    5.6970    0.0000 H   0  0  0  0  0  0  0  0  0  0  0  0
   10.3951    4.4912    0.0000 H   0  0  0  0  0  0  0  0  0  0  0  0
  1 18  2  0  0  0  0
  2  6  1  0  0  0  0
  2  8  1  0  0  0  0
  2  9  1  0  0  0  0
  3 14  1  0  0  0  0
  3 15  1  0  0  0  0
  3 16  1  0  0  0  0
  4  7  1  0  0  0  0
  4 17  1  0  0  0  0
  4 18  1  0  0  0  0
  5 18  1  0  0  0  0
  5 19  1  0  0  0  0
  5 51  1  0  0  0  0
  6 10  1  0  0  0  0
  6 11  1  0  0  0  0
  6 31  1  0  0  0  0
  7 12  1  0  0  0  0
  7 13  1  0  0  0  0
  7 32  1  0  0  0  0
  8 12  1  0  0  0  0
  8 33  1  0  0  0  0
  8 34  1  0  0  0  0
  9 13  1  0  0  0  0
  9 35  1  0  0  0  0
  9 36  1  0  0  0  0
 10 14  1  0  0  0  0
 10 37  1  0  0  0  0
 10 38  1  0  0  0  0
 11 15  1  0  0  0  0
 11 39  1  0  0  0  0
 11 40  1  0  0  0  0
 12 41  1  0  0  0  0
 12 42  1  0  0  0  0
 13 43  1  0  0  0  0
 13 44  1  0  0  0  0
 14 45  1  0  0  0  0
 14 46  1  0  0  0  0
 15 47  1  0  0  0  0
 15 48  1  0  0  0  0
 16 20  1  0  0  0  0
 16 49  1  0  0  0  0
 16 50  1  0  0  0  0
 17 19  1  0  0  0  0
 17 21  2  0  0  0  0
 19 22  2  0  0  0  0
 20 23  1  0  0  0  0
 20 24  2  0  0  0  0
 21 25  1  0  0  0  0
 21 52  1  0  0  0  0
 22 26  1  0  0  0  0
 22 53  1  0  0  0  0
 23 27  2  0  0  0  0
 23 28  1  0  0  0  0
 24 29  1  0  0  0  0
 24 54  1  0  0  0  0
 25 26  2  0  0  0  0
 25 55  1  0  0  0  0
 26 56  1  0  0  0  0
 27 30  1  0  0  0  0
 27 57  1  0  0  0  0
 28 58  1  0  0  0  0
 28 59  1  0  0  0  0
 28 60  1  0  0  0  0
 29 30  2  0  0  0  0
 29 61  1  0  0  0  0
 30 62  1  0  0  0  0
M  END
> <PUBCHEM_COMPOUND_CID>
10092649

> <PUBCHEM_COMPOUND_CANONICALIZED>
1

> <PUBCHEM_CACTVS_COMPLEXITY>
582

> <PUBCHEM_CACTVS_HBOND_ACCEPTOR>
3

> <PUBCHEM_CACTVS_HBOND_DONOR>
1

> <PUBCHEM_CACTVS_ROTATABLE_BOND>
4

> <PUBCHEM_CACTVS_SUBSKEYS>
AAADcfB7oAAAAAAAAAAAAAAAAAAAAWAAAAA8eIEAAAAAAFgBQAAAHgAQAAAADCjBGAQzwIPAAACIAiRCUACCAAAhAgAIiAAIdIiIYCLA0ZGUIAholgLIyCcQgIAOgAAAAAAQACAAAAAAACAAQAAAAAAAAA==

> <PUBCHEM_IUPAC_OPENEYE_NAME>
3-[1-[1-(o-tolylmethyl)-4-piperidyl]-4-piperidyl]-1H-benzimidazol-2-one

> <PUBCHEM_IUPAC_CAS_NAME>
3-[1-[1-[(2-methylphenyl)methyl]-4-piperidinyl]-4-piperidinyl]-1H-benzimidazol-2-one

> <PUBCHEM_IUPAC_NAME_MARKUP>
3-[1-[1-[(2-methylphenyl)methyl]piperidin-4-yl]piperidin-4-yl]-1<I>H</I>-benzimidazol-2-one

> <PUBCHEM_IUPAC_NAME>
3-[1-[1-[(2-methylphenyl)methyl]piperidin-4-yl]piperidin-4-yl]-1H-benzimidazol-2-one

> <PUBCHEM_IUPAC_SYSTEMATIC_NAME>
3-[1-[1-[(2-methylphenyl)methyl]piperidin-4-yl]piperidin-4-yl]-1H-benzimidazol-2-one

> <PUBCHEM_IUPAC_TRADITIONAL_NAME>
3-[1-[1-(2-methylbenzyl)-4-piperidyl]-4-piperidyl]-1H-benzimidazol-2-one

> <PUBCHEM_IUPAC_INCHI>
InChI=1S/C25H32N4O/c1-19-6-2-3-7-20(19)18-27-14-10-21(11-15-27)28-16-12-22(13-17-28)29-24-9-5-4-8-23(24)26-25(29)30/h2-9,21-22H,10-18H2,1H3,(H,26,30)

> <PUBCHEM_IUPAC_INCHIKEY>
CWPKTBMRVATCBL-UHFFFAOYSA-N

> <PUBCHEM_XLOGP3>
4.4

> <PUBCHEM_EXACT_MASS>
404.25761166

> <PUBCHEM_MOLECULAR_FORMULA>
C25H32N4O

> <PUBCHEM_MOLECULAR_WEIGHT>
404.5

> <PUBCHEM_OPENEYE_CAN_SMILES>
CC1=CC=CC=C1CN2CCC(CC2)N3CCC(CC3)N4C5=CC=CC=C5NC4=O

> <PUBCHEM_OPENEYE_ISO_SMILES>
CC1=CC=CC=C1CN2CCC(CC2)N3CCC(CC3)N4C5=CC=CC=C5NC4=O

> <PUBCHEM_CACTVS_TPSA>
38.8

> <PUBCHEM_MONOISOTOPIC_WEIGHT>
404.25761166

> <PUBCHEM_TOTAL_CHARGE>
0

> <PUBCHEM_HEAVY_ATOM_COUNT>
30

> <PUBCHEM_ATOM_DEF_STEREO_COUNT>
0

> <PUBCHEM_ATOM_UDEF_STEREO_COUNT>
0

> <PUBCHEM_BOND_DEF_STEREO_COUNT>
0

> <PUBCHEM_BOND_UDEF_STEREO_COUNT>
0

> <PUBCHEM_ISOTOPIC_ATOM_COUNT>
0

> <PUBCHEM_COMPONENT_COUNT>
1

> <PUBCHEM_CACTVS_TAUTO_COUNT>
-1

> <PUBCHEM_COORDINATE_TYPE>
1
5
255

> <PUBCHEM_BONDANNOTATIONS>
17  19  8
17  21  8
19  22  8
20  23  8
20  24  8
21  25  8
22  26  8
23  27  8
24  29  8
25  26  8
27  30  8
29  30  8
4  17  8
4  18  8
5  18  8
5  19  8

$$$$
