132153503
  -OEChem-09292322442D

 63 67  0     1  0  0  0  0  0999 V2000
    6.7500    2.6799    0.0000 S   0  0  0  0  0  0  0  0  0  0  0  0
   12.4422   -5.6701    0.0000 F   0  0  0  0  0  0  0  0  0  0  0  0
   11.0762   -6.0361    0.0000 F   0  0  0  0  0  0  0  0  0  0  0  0
   12.0762   -4.3041    0.0000 F   0  0  0  0  0  0  0  0  0  0  0  0
    2.0000    5.3670    0.0000 O   0  0  0  0  0  0  0  0  0  0  0  0
    7.1121   -0.7652    0.0000 N   0  0  3  0  0  0  0  0  0  0  0  0
   10.7101   -3.6701    0.0000 N   0  0  0  0  0  0  0  0  0  0  0  0
    5.1622    3.4889    0.0000 N   0  0  0  0  0  0  0  0  0  0  0  0
    6.4712    4.4399    0.0000 N   0  0  0  0  0  0  0  0  0  0  0  0
    5.6622    5.0277    0.0000 N   0  0  0  0  0  0  0  0  0  0  0  0
    7.6121   -2.3041    0.0000 C   0  0  2  0  0  0  0  0  0  0  0  0
    8.1121   -3.1701    0.0000 C   0  0  3  0  0  0  0  0  0  0  0  0
    7.1121   -3.1701    0.0000 C   0  0  0  0  0  0  0  0  0  0  0  0
    8.4211   -1.7163    0.0000 C   0  0  0  0  0  0  0  0  0  0  0  0
    6.8030   -1.7163    0.0000 C   0  0  0  0  0  0  0  0  0  0  0  0
    8.1121   -0.7652    0.0000 C   0  0  0  0  0  0  0  0  0  0  0  0
    8.9781   -3.6701    0.0000 C   0  0  0  0  0  0  0  0  0  0  0  0
    6.5243    0.0438    0.0000 C   0  0  0  0  0  0  0  0  0  0  0  0
    8.9781   -4.6701    0.0000 C   0  0  0  0  0  0  0  0  0  0  0  0
    9.8441   -3.1701    0.0000 C   0  0  0  0  0  0  0  0  0  0  0  0
    6.9310    0.9573    0.0000 C   0  0  0  0  0  0  0  0  0  0  0  0
    9.8441   -5.1701    0.0000 C   0  0  0  0  0  0  0  0  0  0  0  0
    6.3432    1.7663    0.0000 C   0  0  0  0  0  0  0  0  0  0  0  0
   10.7101   -4.6701    0.0000 C   0  0  0  0  0  0  0  0  0  0  0  0
   11.5762   -5.1701    0.0000 C   0  0  0  0  0  0  0  0  0  0  0  0
    6.1622    3.4889    0.0000 C   0  0  0  0  0  0  0  0  0  0  0  0
    3.9021    4.7490    0.0000 C   0  0  0  0  0  0  0  0  0  0  0  0
    4.8532    4.4399    0.0000 C   0  0  0  0  0  0  0  0  0  0  0  0
    3.6942    5.7271    0.0000 C   0  0  0  0  0  0  0  0  0  0  0  0
    3.1590    4.0798    0.0000 C   0  0  0  0  0  0  0  0  0  0  0  0
    2.7431    6.0361    0.0000 C   0  0  0  0  0  0  0  0  0  0  0  0
    2.2079    4.3889    0.0000 C   0  0  0  0  0  0  0  0  0  0  0  0
    4.5744    2.6799    0.0000 C   0  0  0  0  0  0  0  0  0  0  0  0
    7.9516   -3.7690    0.0000 H   0  0  0  0  0  0  0  0  0  0  0  0
    6.5295   -2.9581    0.0000 H   0  0  0  0  0  0  0  0  0  0  0  0
    7.0044   -3.7807    0.0000 H   0  0  0  0  0  0  0  0  0  0  0  0
    8.7311   -2.2532    0.0000 H   0  0  0  0  0  0  0  0  0  0  0  0
    8.9875   -1.4641    0.0000 H   0  0  0  0  0  0  0  0  0  0  0  0
    6.2366   -1.4641    0.0000 H   0  0  0  0  0  0  0  0  0  0  0  0
    6.4930   -2.2532    0.0000 H   0  0  0  0  0  0  0  0  0  0  0  0
    8.7185   -0.6363    0.0000 H   0  0  0  0  0  0  0  0  0  0  0  0
    8.0473   -0.1486    0.0000 H   0  0  0  0  0  0  0  0  0  0  0  0
    6.0103    0.3905    0.0000 H   0  0  0  0  0  0  0  0  0  0  0  0
    6.0936   -0.4022    0.0000 H   0  0  0  0  0  0  0  0  0  0  0  0
    8.4412   -4.9801    0.0000 H   0  0  0  0  0  0  0  0  0  0  0  0
    9.8441   -2.5501    0.0000 H   0  0  0  0  0  0  0  0  0  0  0  0
    7.4450    0.6106    0.0000 H   0  0  0  0  0  0  0  0  0  0  0  0
    7.3617    1.4033    0.0000 H   0  0  0  0  0  0  0  0  0  0  0  0
    9.8441   -5.7901    0.0000 H   0  0  0  0  0  0  0  0  0  0  0  0
    5.8292    2.1130    0.0000 H   0  0  0  0  0  0  0  0  0  0  0  0
    5.9126    1.3204    0.0000 H   0  0  0  0  0  0  0  0  0  0  0  0
    4.0310    4.1425    0.0000 H   0  0  0  0  0  0  0  0  0  0  0  0
    4.3138    5.7488    0.0000 H   0  0  0  0  0  0  0  0  0  0  0  0
    3.7805    6.3411    0.0000 H   0  0  0  0  0  0  0  0  0  0  0  0
    2.8679    3.5324    0.0000 H   0  0  0  0  0  0  0  0  0  0  0  0
    3.6475    3.6981    0.0000 H   0  0  0  0  0  0  0  0  0  0  0  0
    3.0342    6.5836    0.0000 H   0  0  0  0  0  0  0  0  0  0  0  0
    2.2546    6.4178    0.0000 H   0  0  0  0  0  0  0  0  0  0  0  0
    1.5883    4.3672    0.0000 H   0  0  0  0  0  0  0  0  0  0  0  0
    2.1216    3.7749    0.0000 H   0  0  0  0  0  0  0  0  0  0  0  0
    4.0728    3.0443    0.0000 H   0  0  0  0  0  0  0  0  0  0  0  0
    4.2100    2.1783    0.0000 H   0  0  0  0  0  0  0  0  0  0  0  0
    5.0760    2.3154    0.0000 H   0  0  0  0  0  0  0  0  0  0  0  0
  1 23  1  0  0  0  0
  1 26  1  0  0  0  0
  2 25  1  0  0  0  0
  3 25  1  0  0  0  0
  4 25  1  0  0  0  0
  5 31  1  0  0  0  0
  5 32  1  0  0  0  0
  6 15  1  0  0  0  0
  6 16  1  0  0  0  0
  6 18  1  0  0  0  0
  7 20  1  0  0  0  0
  7 24  2  0  0  0  0
  8 26  1  0  0  0  0
  8 28  1  0  0  0  0
  8 33  1  0  0  0  0
  9 10  1  0  0  0  0
  9 26  2  0  0  0  0
 10 28  2  0  0  0  0
 11 12  1  0  0  0  0
 11 13  1  6  0  0  0
 11 14  1  0  0  0  0
 11 15  1  0  0  0  0
 12 13  1  0  0  0  0
 12 17  1  0  0  0  0
 12 34  1  0  0  0  0
 13 35  1  0  0  0  0
 13 36  1  0  0  0  0
 14 16  1  0  0  0  0
 14 37  1  0  0  0  0
 14 38  1  0  0  0  0
 15 39  1  0  0  0  0
 15 40  1  0  0  0  0
 16 41  1  0  0  0  0
 16 42  1  0  0  0  0
 17 19  1  0  0  0  0
 17 20  2  0  0  0  0
 18 21  1  0  0  0  0
 18 43  1  0  0  0  0
 18 44  1  0  0  0  0
 19 22  2  0  0  0  0
 19 45  1  0  0  0  0
 20 46  1  0  0  0  0
 21 23  1  0  0  0  0
 21 47  1  0  0  0  0
 21 48  1  0  0  0  0
 22 24  1  0  0  0  0
 22 49  1  0  0  0  0
 23 50  1  0  0  0  0
 23 51  1  0  0  0  0
 24 25  1  0  0  0  0
 27 28  1  0  0  0  0
 27 29  1  0  0  0  0
 27 30  1  0  0  0  0
 27 52  1  0  0  0  0
 29 31  1  0  0  0  0
 29 53  1  0  0  0  0
 29 54  1  0  0  0  0
 30 32  1  0  0  0  0
 30 55  1  0  0  0  0
 30 56  1  0  0  0  0
 31 57  1  0  0  0  0
 31 58  1  0  0  0  0
 32 59  1  0  0  0  0
 32 60  1  0  0  0  0
 33 61  1  0  0  0  0
 33 62  1  0  0  0  0
 33 63  1  0  0  0  0
M  END
> <PUBCHEM_COMPOUND_CID>
132153503

> <PUBCHEM_COMPOUND_CANONICALIZED>
1

> <PUBCHEM_CACTVS_COMPLEXITY>
667

> <PUBCHEM_CACTVS_HBOND_ACCEPTOR>
9

> <PUBCHEM_CACTVS_HBOND_DONOR>
0

> <PUBCHEM_CACTVS_ROTATABLE_BOND>
7

> <PUBCHEM_CACTVS_SUBSKEYS>
AAADceB7oYBAAAAAAAAAAAAAGAAAAWLAAAAsSAAAAAAAAAAB4AAAHwQIAAAADwjl3xa/kJcMFAiiAzZnZACS0CtxArAd2CA4ZJiIKOLgmZGGIAhkiALIyAewgMAPgAAAAAAAAAAAAAAAAAAAAAAAAAAAAA==

> <PUBCHEM_IUPAC_OPENEYE_NAME>
(3S)-5-[3-[(4-methyl-5-tetrahydropyran-4-yl-1,2,4-triazol-3-yl)sulfanyl]propyl]-2-[6-(trifluoromethyl)-3-pyridyl]-5-azaspiro[2.4]heptane

> <PUBCHEM_IUPAC_CAS_NAME>
(3S)-5-[3-[[4-methyl-5-(4-oxanyl)-1,2,4-triazol-3-yl]thio]propyl]-2-[6-(trifluoromethyl)-3-pyridinyl]-5-azaspiro[2.4]heptane

> <PUBCHEM_IUPAC_NAME_MARKUP>
(3<I>S</I>)-5-[3-[[4-methyl-5-(oxan-4-yl)-1,2,4-triazol-3-yl]sulfanyl]propyl]-2-[6-(trifluoromethyl)pyridin-3-yl]-5-azaspiro[2.4]heptane

> <PUBCHEM_IUPAC_NAME>
(3S)-5-[3-[[4-methyl-5-(oxan-4-yl)-1,2,4-triazol-3-yl]sulfanyl]propyl]-2-[6-(trifluoromethyl)pyridin-3-yl]-5-azaspiro[2.4]heptane

> <PUBCHEM_IUPAC_SYSTEMATIC_NAME>
(3S)-5-[3-[[4-methyl-5-(oxan-4-yl)-1,2,4-triazol-3-yl]sulfanyl]propyl]-2-[6-(trifluoromethyl)pyridin-3-yl]-5-azaspiro[2.4]heptane

> <PUBCHEM_IUPAC_TRADITIONAL_NAME>
(3S)-5-[3-[(4-methyl-5-tetrahydropyran-4-yl-1,2,4-triazol-3-yl)thio]propyl]-2-[6-(trifluoromethyl)-3-pyridyl]-5-azaspiro[2.4]heptane

> <PUBCHEM_IUPAC_INCHI>
InChI=1S/C23H30F3N5OS/c1-30-20(16-5-10-32-11-6-16)28-29-21(30)33-12-2-8-31-9-7-22(15-31)13-18(22)17-3-4-19(27-14-17)23(24,25)26/h3-4,14,16,18H,2,5-13,15H2,1H3/t18?,22-/m0/s1

> <PUBCHEM_IUPAC_INCHIKEY>
CHKXTWOSZRAOSL-YSYXNDDBSA-N

> <PUBCHEM_XLOGP3_AA>
3.1

> <PUBCHEM_EXACT_MASS>
481.21231626

> <PUBCHEM_MOLECULAR_FORMULA>
C23H30F3N5OS

> <PUBCHEM_MOLECULAR_WEIGHT>
481.6

> <PUBCHEM_OPENEYE_CAN_SMILES>
CN1C(=NN=C1SCCCN2CCC3(C2)CC3C4=CN=C(C=C4)C(F)(F)F)C5CCOCC5

> <PUBCHEM_OPENEYE_ISO_SMILES>
CN1C(=NN=C1SCCCN2CC[C@@]3(C2)CC3C4=CN=C(C=C4)C(F)(F)F)C5CCOCC5

> <PUBCHEM_CACTVS_TPSA>
81.4

> <PUBCHEM_MONOISOTOPIC_WEIGHT>
481.21231626

> <PUBCHEM_TOTAL_CHARGE>
0

> <PUBCHEM_HEAVY_ATOM_COUNT>
33

> <PUBCHEM_ATOM_DEF_STEREO_COUNT>
1

> <PUBCHEM_ATOM_UDEF_STEREO_COUNT>
1

> <PUBCHEM_BOND_DEF_STEREO_COUNT>
0

> <PUBCHEM_BOND_UDEF_STEREO_COUNT>
0

> <PUBCHEM_ISOTOPIC_ATOM_COUNT>
0

> <PUBCHEM_COMPONENT_COUNT>
1

> <PUBCHEM_CACTVS_TAUTO_COUNT>
-1

> <PUBCHEM_COORDINATE_TYPE>
1
5
255

> <PUBCHEM_BONDANNOTATIONS>
10  28  8
11  13  6
12  17  3
17  19  8
17  20  8
19  22  8
22  24  8
7  20  8
7  24  8
8  26  8
8  28  8
9  10  8
9  26  8

$$$$
