4064333
  -OEChem-09292322492D

 50 53  0     0  0  0  0  0  0999 V2000
    6.3301    1.2327    0.0000 O   0  0  0  0  0  0  0  0  0  0  0  0
    4.5981   -1.7673    0.0000 N   0  0  0  0  0  0  0  0  0  0  0  0
    4.5981    1.2327    0.0000 N   0  0  0  0  0  0  0  0  0  0  0  0
    4.5981    0.2327    0.0000 C   0  0  0  0  0  0  0  0  0  0  0  0
    5.4641   -0.2673    0.0000 C   0  0  0  0  0  0  0  0  0  0  0  0
    3.7320   -0.2673    0.0000 C   0  0  0  0  0  0  0  0  0  0  0  0
    5.4641   -1.2673    0.0000 C   0  0  0  0  0  0  0  0  0  0  0  0
    3.7320   -1.2673    0.0000 C   0  0  0  0  0  0  0  0  0  0  0  0
    4.5981   -2.7673    0.0000 C   0  0  0  0  0  0  0  0  0  0  0  0
    3.7320   -3.2673    0.0000 C   0  0  0  0  0  0  0  0  0  0  0  0
    5.4641    1.7327    0.0000 C   0  0  0  0  0  0  0  0  0  0  0  0
    5.4641    2.7327    0.0000 C   0  0  0  0  0  0  0  0  0  0  0  0
    3.7320   -4.2673    0.0000 C   0  0  0  0  0  0  0  0  0  0  0  0
    2.8660   -2.7673    0.0000 C   0  0  0  0  0  0  0  0  0  0  0  0
    6.3301    3.2327    0.0000 C   0  0  0  0  0  0  0  0  0  0  0  0
    4.5981    3.2327    0.0000 C   0  0  0  0  0  0  0  0  0  0  0  0
    6.3301    4.2327    0.0000 C   0  0  0  0  0  0  0  0  0  0  0  0
    2.8660   -4.7673    0.0000 C   0  0  0  0  0  0  0  0  0  0  0  0
    2.0000   -3.2673    0.0000 C   0  0  0  0  0  0  0  0  0  0  0  0
    7.2241    2.6980    0.0000 C   0  0  0  0  0  0  0  0  0  0  0  0
    2.0000   -4.2673    0.0000 C   0  0  0  0  0  0  0  0  0  0  0  0
    4.5981    4.2327    0.0000 C   0  0  0  0  0  0  0  0  0  0  0  0
    5.4641    4.7327    0.0000 C   0  0  0  0  0  0  0  0  0  0  0  0
    7.2241    4.7673    0.0000 C   0  0  0  0  0  0  0  0  0  0  0  0
    8.1301    3.2118    0.0000 C   0  0  0  0  0  0  0  0  0  0  0  0
    8.1301    4.2535    0.0000 C   0  0  0  0  0  0  0  0  0  0  0  0
    5.1350    0.5427    0.0000 H   0  0  0  0  0  0  0  0  0  0  0  0
    6.0747   -0.3750    0.0000 H   0  0  0  0  0  0  0  0  0  0  0  0
    5.6762    0.3153    0.0000 H   0  0  0  0  0  0  0  0  0  0  0  0
    3.5200    0.3153    0.0000 H   0  0  0  0  0  0  0  0  0  0  0  0
    3.1215   -0.3750    0.0000 H   0  0  0  0  0  0  0  0  0  0  0  0
    5.6762   -1.8499    0.0000 H   0  0  0  0  0  0  0  0  0  0  0  0
    6.0747   -1.1597    0.0000 H   0  0  0  0  0  0  0  0  0  0  0  0
    3.1215   -1.1597    0.0000 H   0  0  0  0  0  0  0  0  0  0  0  0
    3.5200   -1.8499    0.0000 H   0  0  0  0  0  0  0  0  0  0  0  0
    4.8101   -3.3499    0.0000 H   0  0  0  0  0  0  0  0  0  0  0  0
    5.2087   -2.6597    0.0000 H   0  0  0  0  0  0  0  0  0  0  0  0
    4.0611    1.5427    0.0000 H   0  0  0  0  0  0  0  0  0  0  0  0
    4.2690   -4.5773    0.0000 H   0  0  0  0  0  0  0  0  0  0  0  0
    2.8660   -2.1473    0.0000 H   0  0  0  0  0  0  0  0  0  0  0  0
    4.0611    2.9227    0.0000 H   0  0  0  0  0  0  0  0  0  0  0  0
    2.8660   -5.3873    0.0000 H   0  0  0  0  0  0  0  0  0  0  0  0
    1.4631   -2.9573    0.0000 H   0  0  0  0  0  0  0  0  0  0  0  0
    7.2169    2.0780    0.0000 H   0  0  0  0  0  0  0  0  0  0  0  0
    4.0611    4.5427    0.0000 H   0  0  0  0  0  0  0  0  0  0  0  0
    1.4631   -4.5773    0.0000 H   0  0  0  0  0  0  0  0  0  0  0  0
    5.4641    5.3527    0.0000 H   0  0  0  0  0  0  0  0  0  0  0  0
    7.2169    5.3873    0.0000 H   0  0  0  0  0  0  0  0  0  0  0  0
    8.6659    2.8998    0.0000 H   0  0  0  0  0  0  0  0  0  0  0  0
    8.6659    4.5656    0.0000 H   0  0  0  0  0  0  0  0  0  0  0  0
  1 11  2  0  0  0  0
  2  7  1  0  0  0  0
  2  8  1  0  0  0  0
  2  9  1  0  0  0  0
  3  4  1  0  0  0  0
  3 11  1  0  0  0  0
  3 38  1  0  0  0  0
  4  5  1  0  0  0  0
  4  6  1  0  0  0  0
  4 27  1  0  0  0  0
  5  7  1  0  0  0  0
  5 28  1  0  0  0  0
  5 29  1  0  0  0  0
  6  8  1  0  0  0  0
  6 30  1  0  0  0  0
  6 31  1  0  0  0  0
  7 32  1  0  0  0  0
  7 33  1  0  0  0  0
  8 34  1  0  0  0  0
  8 35  1  0  0  0  0
  9 10  1  0  0  0  0
  9 36  1  0  0  0  0
  9 37  1  0  0  0  0
 10 13  2  0  0  0  0
 10 14  1  0  0  0  0
 11 12  1  0  0  0  0
 12 15  1  0  0  0  0
 12 16  2  0  0  0  0
 13 18  1  0  0  0  0
 13 39  1  0  0  0  0
 14 19  2  0  0  0  0
 14 40  1  0  0  0  0
 15 17  1  0  0  0  0
 15 20  2  0  0  0  0
 16 22  1  0  0  0  0
 16 41  1  0  0  0  0
 17 23  1  0  0  0  0
 17 24  2  0  0  0  0
 18 21  2  0  0  0  0
 18 42  1  0  0  0  0
 19 21  1  0  0  0  0
 19 43  1  0  0  0  0
 20 25  1  0  0  0  0
 20 44  1  0  0  0  0
 21 46  1  0  0  0  0
 22 23  2  0  0  0  0
 22 45  1  0  0  0  0
 23 47  1  0  0  0  0
 24 26  1  0  0  0  0
 24 48  1  0  0  0  0
 25 26  2  0  0  0  0
 25 49  1  0  0  0  0
 26 50  1  0  0  0  0
M  END
> <PUBCHEM_COMPOUND_CID>
4064333

> <PUBCHEM_COMPOUND_CANONICALIZED>
1

> <PUBCHEM_CACTVS_COMPLEXITY>
451

> <PUBCHEM_CACTVS_HBOND_ACCEPTOR>
2

> <PUBCHEM_CACTVS_HBOND_DONOR>
1

> <PUBCHEM_CACTVS_ROTATABLE_BOND>
4

> <PUBCHEM_CACTVS_SUBSKEYS>
AAADceB7IAAAAAAAAAAAAAAAAAAAAAAAAAA8YMEAAAAAAADBVAAAHgAQAAAADCjBmAQwAMPAAACIAiFSEACCAAAkAAAIiIEIBMgIIDKA1RGEIQhglgCIiYcYiMCOgAACAAAQAAAAAAQAACAAAAAAAAAAAA==

> <PUBCHEM_IUPAC_OPENEYE_NAME>
N-(1-benzyl-4-piperidyl)naphthalene-1-carboxamide

> <PUBCHEM_IUPAC_CAS_NAME>
N-[1-(phenylmethyl)-4-piperidinyl]-1-naphthalenecarboxamide

> <PUBCHEM_IUPAC_NAME_MARKUP>
<I>N</I>-(1-benzylpiperidin-4-yl)naphthalene-1-carboxamide

> <PUBCHEM_IUPAC_NAME>
N-(1-benzylpiperidin-4-yl)naphthalene-1-carboxamide

> <PUBCHEM_IUPAC_SYSTEMATIC_NAME>
N-[1-(phenylmethyl)piperidin-4-yl]naphthalene-1-carboxamide

> <PUBCHEM_IUPAC_TRADITIONAL_NAME>
N-(1-benzyl-4-piperidyl)-1-naphthamide

> <PUBCHEM_IUPAC_INCHI>
InChI=1S/C23H24N2O/c26-23(22-12-6-10-19-9-4-5-11-21(19)22)24-20-13-15-25(16-14-20)17-18-7-2-1-3-8-18/h1-12,20H,13-17H2,(H,24,26)

> <PUBCHEM_IUPAC_INCHIKEY>
OTJSLBRSNLJVPH-UHFFFAOYSA-N

> <PUBCHEM_XLOGP3_AA>
4.5

> <PUBCHEM_EXACT_MASS>
344.188863393

> <PUBCHEM_MOLECULAR_FORMULA>
C23H24N2O

> <PUBCHEM_MOLECULAR_WEIGHT>
344.4

> <PUBCHEM_OPENEYE_CAN_SMILES>
C1CN(CCC1NC(=O)C2=CC=CC3=CC=CC=C32)CC4=CC=CC=C4

> <PUBCHEM_OPENEYE_ISO_SMILES>
C1CN(CCC1NC(=O)C2=CC=CC3=CC=CC=C32)CC4=CC=CC=C4

> <PUBCHEM_CACTVS_TPSA>
32.3

> <PUBCHEM_MONOISOTOPIC_WEIGHT>
344.188863393

> <PUBCHEM_TOTAL_CHARGE>
0

> <PUBCHEM_HEAVY_ATOM_COUNT>
26

> <PUBCHEM_ATOM_DEF_STEREO_COUNT>
0

> <PUBCHEM_ATOM_UDEF_STEREO_COUNT>
0

> <PUBCHEM_BOND_DEF_STEREO_COUNT>
0

> <PUBCHEM_BOND_UDEF_STEREO_COUNT>
0

> <PUBCHEM_ISOTOPIC_ATOM_COUNT>
0

> <PUBCHEM_COMPONENT_COUNT>
1

> <PUBCHEM_CACTVS_TAUTO_COUNT>
-1

> <PUBCHEM_COORDINATE_TYPE>
1
5
255

> <PUBCHEM_BONDANNOTATIONS>
10  13  8
10  14  8
12  15  8
12  16  8
13  18  8
14  19  8
15  17  8
15  20  8
16  22  8
17  23  8
17  24  8
18  21  8
19  21  8
20  25  8
22  23  8
24  26  8
25  26  8

$$$$
