46225336
  -OEChem-09292322482D

 47 51  0     0  0  0  0  0  0999 V2000
    9.2506   -1.1753    0.0000 S   0  0  0  0  0  0  0  0  0  0  0  0
    6.7619    1.5258    0.0000 N   0  0  0  0  0  0  0  0  0  0  0  0
    7.7619   -0.2062    0.0000 N   0  0  0  0  0  0  0  0  0  0  0  0
    4.6783    3.1966    0.0000 N   0  0  0  0  0  0  0  0  0  0  0  0
    4.6783    1.5871    0.0000 N   0  0  0  0  0  0  0  0  0  0  0  0
    7.8568   -1.9800    0.0000 N   0  0  0  0  0  0  0  0  0  0  0  0
    6.2619    0.6598    0.0000 C   0  0  0  0  0  0  0  0  0  0  0  0
    7.7619    1.5258    0.0000 C   0  0  0  0  0  0  0  0  0  0  0  0
    6.7619   -0.2062    0.0000 C   0  0  0  0  0  0  0  0  0  0  0  0
    8.2619    0.6598    0.0000 C   0  0  0  0  0  0  0  0  0  0  0  0
    6.2619    2.3919    0.0000 C   0  0  0  0  0  0  0  0  0  0  0  0
    5.2619    2.3919    0.0000 C   0  0  0  0  0  0  0  0  0  0  0  0
    8.2619   -1.0722    0.0000 C   0  0  0  0  0  0  0  0  0  0  0  0
    3.7320    2.8919    0.0000 C   0  0  0  0  0  0  0  0  0  0  0  0
    3.7320    1.8919    0.0000 C   0  0  0  0  0  0  0  0  0  0  0  0
    4.9889    4.1471    0.0000 C   0  0  0  0  0  0  0  0  0  0  0  0
    9.4598   -2.1471    0.0000 C   0  0  0  0  0  0  0  0  0  0  0  0
    8.5938   -2.6471    0.0000 C   0  0  0  0  0  0  0  0  0  0  0  0
    2.8660    3.3919    0.0000 C   0  0  0  0  0  0  0  0  0  0  0  0
    2.8660    1.3919    0.0000 C   0  0  0  0  0  0  0  0  0  0  0  0
    2.0000    2.8919    0.0000 C   0  0  0  0  0  0  0  0  0  0  0  0
    2.0000    1.8919    0.0000 C   0  0  0  0  0  0  0  0  0  0  0  0
   10.3258   -2.6471    0.0000 C   0  0  0  0  0  0  0  0  0  0  0  0
    8.5938   -3.6471    0.0000 C   0  0  0  0  0  0  0  0  0  0  0  0
   10.3258   -3.6471    0.0000 C   0  0  0  0  0  0  0  0  0  0  0  0
    9.4598   -4.1471    0.0000 C   0  0  0  0  0  0  0  0  0  0  0  0
    5.7869    1.0583    0.0000 H   0  0  0  0  0  0  0  0  0  0  0  0
    5.7869    0.2613    0.0000 H   0  0  0  0  0  0  0  0  0  0  0  0
    8.3445    1.7379    0.0000 H   0  0  0  0  0  0  0  0  0  0  0  0
    7.6542    2.1364    0.0000 H   0  0  0  0  0  0  0  0  0  0  0  0
    6.1793   -0.4183    0.0000 H   0  0  0  0  0  0  0  0  0  0  0  0
    6.8695   -0.8168    0.0000 H   0  0  0  0  0  0  0  0  0  0  0  0
    8.7368    0.2613    0.0000 H   0  0  0  0  0  0  0  0  0  0  0  0
    8.7368    1.0583    0.0000 H   0  0  0  0  0  0  0  0  0  0  0  0
    6.8445    2.6039    0.0000 H   0  0  0  0  0  0  0  0  0  0  0  0
    6.1542    3.0024    0.0000 H   0  0  0  0  0  0  0  0  0  0  0  0
    5.5783    3.9545    0.0000 H   0  0  0  0  0  0  0  0  0  0  0  0
    5.1815    4.7364    0.0000 H   0  0  0  0  0  0  0  0  0  0  0  0
    4.3996    4.3397    0.0000 H   0  0  0  0  0  0  0  0  0  0  0  0
    2.8660    4.0119    0.0000 H   0  0  0  0  0  0  0  0  0  0  0  0
    2.8660    0.7719    0.0000 H   0  0  0  0  0  0  0  0  0  0  0  0
    1.4631    3.2019    0.0000 H   0  0  0  0  0  0  0  0  0  0  0  0
    1.4631    1.5819    0.0000 H   0  0  0  0  0  0  0  0  0  0  0  0
   10.8628   -2.3371    0.0000 H   0  0  0  0  0  0  0  0  0  0  0  0
    8.0569   -3.9571    0.0000 H   0  0  0  0  0  0  0  0  0  0  0  0
   10.8628   -3.9571    0.0000 H   0  0  0  0  0  0  0  0  0  0  0  0
    9.4598   -4.7671    0.0000 H   0  0  0  0  0  0  0  0  0  0  0  0
  1 13  1  0  0  0  0
  1 17  1  0  0  0  0
  2  7  1  0  0  0  0
  2  8  1  0  0  0  0
  2 11  1  0  0  0  0
  3  9  1  0  0  0  0
  3 10  1  0  0  0  0
  3 13  1  0  0  0  0
  4 12  1  0  0  0  0
  4 14  1  0  0  0  0
  4 16  1  0  0  0  0
  5 12  2  0  0  0  0
  5 15  1  0  0  0  0
  6 13  2  0  0  0  0
  6 18  1  0  0  0  0
  7  9  1  0  0  0  0
  7 27  1  0  0  0  0
  7 28  1  0  0  0  0
  8 10  1  0  0  0  0
  8 29  1  0  0  0  0
  8 30  1  0  0  0  0
  9 31  1  0  0  0  0
  9 32  1  0  0  0  0
 10 33  1  0  0  0  0
 10 34  1  0  0  0  0
 11 12  1  0  0  0  0
 11 35  1  0  0  0  0
 11 36  1  0  0  0  0
 14 15  1  0  0  0  0
 14 19  2  0  0  0  0
 15 20  2  0  0  0  0
 16 37  1  0  0  0  0
 16 38  1  0  0  0  0
 16 39  1  0  0  0  0
 17 18  1  0  0  0  0
 17 23  2  0  0  0  0
 18 24  2  0  0  0  0
 19 21  1  0  0  0  0
 19 40  1  0  0  0  0
 20 22  1  0  0  0  0
 20 41  1  0  0  0  0
 21 22  2  0  0  0  0
 21 42  1  0  0  0  0
 22 43  1  0  0  0  0
 23 25  1  0  0  0  0
 23 44  1  0  0  0  0
 24 26  1  0  0  0  0
 24 45  1  0  0  0  0
 25 26  2  0  0  0  0
 25 46  1  0  0  0  0
 26 47  1  0  0  0  0
M  END
> <PUBCHEM_COMPOUND_CID>
46225336

> <PUBCHEM_COMPOUND_CANONICALIZED>
1

> <PUBCHEM_CACTVS_COMPLEXITY>
483

> <PUBCHEM_CACTVS_HBOND_ACCEPTOR>
5

> <PUBCHEM_CACTVS_HBOND_DONOR>
0

> <PUBCHEM_CACTVS_ROTATABLE_BOND>
3

> <PUBCHEM_CACTVS_SUBSKEYS>
AAADceB7gABAAAAAAAAAAAAAAAAAAWLAAAA8YIAAAAAAAFgB/gAAHAQAAAAACAjBVwQz0bcMEAikASZiZACD8K1hGrhJ2Dw4dJiIaKLgmZGUIAhogALIyCcQAAAAAAAAAAAAASAAAAAAAAACQAAAAAAAAA==

> <PUBCHEM_IUPAC_OPENEYE_NAME>
2-[4-[(1-methylbenzimidazol-2-yl)methyl]piperazin-1-yl]-1,3-benzothiazole

> <PUBCHEM_IUPAC_CAS_NAME>
2-[4-[(1-methyl-2-benzimidazolyl)methyl]-1-piperazinyl]-1,3-benzothiazole

> <PUBCHEM_IUPAC_NAME_MARKUP>
2-[4-[(1-methylbenzimidazol-2-yl)methyl]piperazin-1-yl]-1,3-benzothiazole

> <PUBCHEM_IUPAC_NAME>
2-[4-[(1-methylbenzimidazol-2-yl)methyl]piperazin-1-yl]-1,3-benzothiazole

> <PUBCHEM_IUPAC_SYSTEMATIC_NAME>
2-[4-[(1-methylbenzimidazol-2-yl)methyl]piperazin-1-yl]-1,3-benzothiazole

> <PUBCHEM_IUPAC_TRADITIONAL_NAME>
2-[4-[(1-methylbenzimidazol-2-yl)methyl]piperazino]-1,3-benzothiazole

> <PUBCHEM_IUPAC_INCHI>
InChI=1S/C20H21N5S/c1-23-17-8-4-2-6-15(17)21-19(23)14-24-10-12-25(13-11-24)20-22-16-7-3-5-9-18(16)26-20/h2-9H,10-14H2,1H3

> <PUBCHEM_IUPAC_INCHIKEY>
KGAWYOXARZIJOP-UHFFFAOYSA-N

> <PUBCHEM_XLOGP3_AA>
3.7

> <PUBCHEM_EXACT_MASS>
363.15176686

> <PUBCHEM_MOLECULAR_FORMULA>
C20H21N5S

> <PUBCHEM_MOLECULAR_WEIGHT>
363.5

> <PUBCHEM_OPENEYE_CAN_SMILES>
CN1C2=CC=CC=C2N=C1CN3CCN(CC3)C4=NC5=CC=CC=C5S4

> <PUBCHEM_OPENEYE_ISO_SMILES>
CN1C2=CC=CC=C2N=C1CN3CCN(CC3)C4=NC5=CC=CC=C5S4

> <PUBCHEM_CACTVS_TPSA>
65.4

> <PUBCHEM_MONOISOTOPIC_WEIGHT>
363.15176686

> <PUBCHEM_TOTAL_CHARGE>
0

> <PUBCHEM_HEAVY_ATOM_COUNT>
26

> <PUBCHEM_ATOM_DEF_STEREO_COUNT>
0

> <PUBCHEM_ATOM_UDEF_STEREO_COUNT>
0

> <PUBCHEM_BOND_DEF_STEREO_COUNT>
0

> <PUBCHEM_BOND_UDEF_STEREO_COUNT>
0

> <PUBCHEM_ISOTOPIC_ATOM_COUNT>
0

> <PUBCHEM_COMPONENT_COUNT>
1

> <PUBCHEM_CACTVS_TAUTO_COUNT>
-1

> <PUBCHEM_COORDINATE_TYPE>
1
5
255

> <PUBCHEM_BONDANNOTATIONS>
1  13  8
1  17  8
14  15  8
14  19  8
15  20  8
17  18  8
17  23  8
18  24  8
19  21  8
20  22  8
21  22  8
23  25  8
24  26  8
25  26  8
4  12  8
4  14  8
5  12  8
5  15  8
6  13  8
6  18  8

$$$$
