196129
  -OEChem-09292322042D

144150  0     1  0  0  0  0  0999 V2000
    8.2519    1.5923    0.0000 O   0  0  0  0  0  0  0  0  0  0  0  0
    8.8176   -1.1235    0.0000 O   0  0  0  0  0  0  0  0  0  0  0  0
   10.1165    2.3081    0.0000 O   0  0  0  0  0  0  0  0  0  0  0  0
    8.7788   -3.7108    0.0000 O   0  0  0  0  0  0  0  0  0  0  0  0
    6.3301   -2.8744    0.0000 O   0  0  0  0  0  0  0  0  0  0  0  0
    8.0978   -6.2994    0.0000 O   0  0  0  0  0  0  0  0  0  0  0  0
   10.7402    5.2425    0.0000 O   0  0  0  0  0  0  0  0  0  0  0  0
    7.8870    4.3155    0.0000 O   0  0  0  0  0  0  0  0  0  0  0  0
   13.1775    4.2133    0.0000 O   0  0  0  0  0  0  0  0  0  0  0  0
   13.5934    6.1696    0.0000 O   0  0  0  0  0  0  0  0  0  0  0  0
    4.5981   -2.8744    0.0000 O   0  0  0  0  0  0  0  0  0  0  0  0
    8.4000   -8.2074    0.0000 O   0  0  0  0  0  0  0  0  0  0  0  0
    9.9700    6.4286    0.0000 O   0  0  0  0  0  0  0  0  0  0  0  0
    4.5981   -5.8744    0.0000 O   0  0  0  0  0  0  0  0  0  0  0  0
    2.8660   -4.8744    0.0000 O   0  0  0  0  0  0  0  0  0  0  0  0
    9.3519    8.3307    0.0000 O   0  0  0  0  0  0  0  0  0  0  0  0
    8.9918    6.6365    0.0000 O   0  0  0  0  0  0  0  0  0  0  0  0
    8.3564    0.5978    0.0000 C   0  0  2  0  0  0  0  0  0  0  0  0
    8.1485   -0.3803    0.0000 C   0  0  1  0  0  0  0  0  0  0  0  0
    8.3176   -1.9895    0.0000 C   0  0  2  0  0  0  0  0  0  0  0  0
    9.1654    1.9991    0.0000 C   0  0  2  0  0  0  0  0  0  0  0  0
    9.3345    0.3899    0.0000 C   0  0  0  0  0  0  0  0  0  0  0  0
    8.1097   -2.9676    0.0000 C   0  0  1  0  0  0  0  0  0  0  0  0
    9.8345    1.2559    0.0000 C   0  0  0  0  0  0  0  0  0  0  0  0
    7.2349   -0.7871    0.0000 C   0  0  0  0  0  0  0  0  0  0  0  0
    7.3395   -1.7816    0.0000 C   0  0  0  0  0  0  0  0  0  0  0  0
    8.4223    2.6682    0.0000 C   0  0  0  0  0  0  0  0  0  0  0  0
   10.3244    3.2862    0.0000 C   0  0  1  0  0  0  0  0  0  0  0  0
    7.1962   -3.3744    0.0000 C   0  0  2  0  0  0  0  0  0  0  0  0
    9.5812    3.9554    0.0000 C   0  0  1  0  0  0  0  0  0  0  0  0
    8.6302    3.6464    0.0000 C   0  0  1  0  0  0  0  0  0  0  0  0
    8.2788   -4.5768    0.0000 C   0  0  2  0  0  0  0  0  0  0  0  0
    7.3007   -4.3689    0.0000 C   0  0  0  0  0  0  0  0  0  0  0  0
   11.2754    3.5953    0.0000 C   0  0  2  0  0  0  0  0  0  0  0  0
    7.3619    0.4933    0.0000 C   0  0  0  0  0  0  0  0  0  0  0  0
    9.1836   -2.4895    0.0000 C   0  0  0  0  0  0  0  0  0  0  0  0
    8.6856   -5.4904    0.0000 C   0  0  2  0  0  0  0  0  0  0  0  0
   11.4833    4.5734    0.0000 C   0  0  1  0  0  0  0  0  0  0  0  0
    9.6801   -5.5949    0.0000 C   0  0  2  0  0  0  0  0  0  0  0  0
   12.4344    4.8824    0.0000 C   0  0  1  0  0  0  0  0  0  0  0  0
    9.7891    4.9335    0.0000 C   0  0  0  0  0  0  0  0  0  0  0  0
   10.0868   -6.5084    0.0000 C   0  0  0  0  0  0  0  0  0  0  0  0
   12.0186    2.9261    0.0000 C   0  0  0  0  0  0  0  0  0  0  0  0
    9.4990   -7.3174    0.0000 C   0  0  2  0  0  0  0  0  0  0  0  0
   12.6423    5.8606    0.0000 C   0  0  2  0  0  0  0  0  0  0  0  0
    8.5045   -7.2129    0.0000 C   0  0  2  0  0  0  0  0  0  0  0  0
   11.8992    6.5297    0.0000 C   0  0  1  0  0  0  0  0  0  0  0  0
   10.9481    6.2207    0.0000 C   0  0  1  0  0  0  0  0  0  0  0  0
    5.4641   -3.3744    0.0000 C   0  0  1  0  0  0  0  0  0  0  0  0
   10.2679   -4.7859    0.0000 C   0  0  0  0  0  0  0  0  0  0  0  0
    5.4641   -4.3744    0.0000 C   0  0  0  0  0  0  0  0  0  0  0  0
    9.9058   -8.2310    0.0000 C   0  0  0  0  0  0  0  0  0  0  0  0
   10.6391    7.1718    0.0000 C   0  0  0  0  0  0  0  0  0  0  0  0
    7.5910   -7.6197    0.0000 C   0  0  0  0  0  0  0  0  0  0  0  0
   12.1071    7.5078    0.0000 C   0  0  0  0  0  0  0  0  0  0  0  0
    4.5981   -4.8744    0.0000 C   0  0  1  0  0  0  0  0  0  0  0  0
    3.7320   -3.3744    0.0000 C   0  0  2  0  0  0  0  0  0  0  0  0
    3.7320   -4.3744    0.0000 C   0  0  2  0  0  0  0  0  0  0  0  0
   14.1286    4.5223    0.0000 C   0  0  0  0  0  0  0  0  0  0  0  0
    9.6610    7.3797    0.0000 C   0  0  0  0  0  0  0  0  0  0  0  0
   13.8013    7.1477    0.0000 C   0  0  0  0  0  0  0  0  0  0  0  0
    2.8660   -2.8744    0.0000 C   0  0  0  0  0  0  0  0  0  0  0  0
    5.4641   -6.3744    0.0000 C   0  0  0  0  0  0  0  0  0  0  0  0
    2.0000   -4.3744    0.0000 C   0  0  0  0  0  0  0  0  0  0  0  0
    8.9695   -0.1603    0.0000 H   0  0  0  0  0  0  0  0  0  0  0  0
    9.1430   -0.1997    0.0000 H   0  0  0  0  0  0  0  0  0  0  0  0
    9.9009    0.1377    0.0000 H   0  0  0  0  0  0  0  0  0  0  0  0
    8.9307   -2.7476    0.0000 H   0  0  0  0  0  0  0  0  0  0  0  0
   10.3361    0.8915    0.0000 H   0  0  0  0  0  0  0  0  0  0  0  0
   10.2494    1.7167    0.0000 H   0  0  0  0  0  0  0  0  0  0  0  0
    7.0433   -0.1974    0.0000 H   0  0  0  0  0  0  0  0  0  0  0  0
    6.6285   -0.9160    0.0000 H   0  0  0  0  0  0  0  0  0  0  0  0
    6.7195   -1.7816    0.0000 H   0  0  0  0  0  0  0  0  0  0  0  0
    7.2746   -2.3982    0.0000 H   0  0  0  0  0  0  0  0  0  0  0  0
    7.8474    2.9005    0.0000 H   0  0  0  0  0  0  0  0  0  0  0  0
    8.0937    2.1424    0.0000 H   0  0  0  0  0  0  0  0  0  0  0  0
   10.9560    2.7175    0.0000 H   0  0  0  0  0  0  0  0  0  0  0  0
    7.2286   -2.7552    0.0000 H   0  0  0  0  0  0  0  0  0  0  0  0
   10.1709    4.1470    0.0000 H   0  0  0  0  0  0  0  0  0  0  0  0
    8.0405    3.4548    0.0000 H   0  0  0  0  0  0  0  0  0  0  0  0
    9.1277   -4.6213    0.0000 H   0  0  0  0  0  0  0  0  0  0  0  0
    6.6807   -4.3689    0.0000 H   0  0  0  0  0  0  0  0  0  0  0  0
    7.2359   -4.9855    0.0000 H   0  0  0  0  0  0  0  0  0  0  0  0
   11.1465    2.9888    0.0000 H   0  0  0  0  0  0  0  0  0  0  0  0
    7.2971    1.1099    0.0000 H   0  0  0  0  0  0  0  0  0  0  0  0
    6.7453    0.4285    0.0000 H   0  0  0  0  0  0  0  0  0  0  0  0
    7.4267   -0.1233    0.0000 H   0  0  0  0  0  0  0  0  0  0  0  0
    8.8736   -3.0264    0.0000 H   0  0  0  0  0  0  0  0  0  0  0  0
    9.7206   -2.7995    0.0000 H   0  0  0  0  0  0  0  0  0  0  0  0
    9.4936   -1.9526    0.0000 H   0  0  0  0  0  0  0  0  0  0  0  0
    7.8402   -5.4015    0.0000 H   0  0  0  0  0  0  0  0  0  0  0  0
   10.6749    4.3108    0.0000 H   0  0  0  0  0  0  0  0  0  0  0  0
    9.4279   -5.0285    0.0000 H   0  0  0  0  0  0  0  0  0  0  0  0
   12.3055    4.2760    0.0000 H   0  0  0  0  0  0  0  0  0  0  0  0
   10.3956    4.8046    0.0000 H   0  0  0  0  0  0  0  0  0  0  0  0
    9.9180    5.5400    0.0000 H   0  0  0  0  0  0  0  0  0  0  0  0
    9.1827    5.0624    0.0000 H   0  0  0  0  0  0  0  0  0  0  0  0
   10.5175   -6.9544    0.0000 H   0  0  0  0  0  0  0  0  0  0  0  0
   10.6008   -6.1617    0.0000 H   0  0  0  0  0  0  0  0  0  0  0  0
   11.6037    2.4654    0.0000 H   0  0  0  0  0  0  0  0  0  0  0  0
   12.4793    2.5113    0.0000 H   0  0  0  0  0  0  0  0  0  0  0  0
   12.4334    3.3869    0.0000 H   0  0  0  0  0  0  0  0  0  0  0  0
   10.1156   -7.3823    0.0000 H   0  0  0  0  0  0  0  0  0  0  0  0
   12.7712    6.4670    0.0000 H   0  0  0  0  0  0  0  0  0  0  0  0
   11.4384    6.9446    0.0000 H   0  0  0  0  0  0  0  0  0  0  0  0
    7.2974    4.1239    0.0000 H   0  0  0  0  0  0  0  0  0  0  0  0
    5.4641   -2.7544    0.0000 H   0  0  0  0  0  0  0  0  0  0  0  0
   10.7695   -5.1503    0.0000 H   0  0  0  0  0  0  0  0  0  0  0  0
   10.6323   -4.2843    0.0000 H   0  0  0  0  0  0  0  0  0  0  0  0
    9.7663   -4.4214    0.0000 H   0  0  0  0  0  0  0  0  0  0  0  0
    5.6762   -4.9570    0.0000 H   0  0  0  0  0  0  0  0  0  0  0  0
    6.0747   -4.2667    0.0000 H   0  0  0  0  0  0  0  0  0  0  0  0
    9.3394   -8.4832    0.0000 H   0  0  0  0  0  0  0  0  0  0  0  0
   10.1580   -8.7974    0.0000 H   0  0  0  0  0  0  0  0  0  0  0  0
   10.4722   -7.9788    0.0000 H   0  0  0  0  0  0  0  0  0  0  0  0
   11.2531    7.2580    0.0000 H   0  0  0  0  0  0  0  0  0  0  0  0
   10.6607    7.7914    0.0000 H   0  0  0  0  0  0  0  0  0  0  0  0
    7.3388   -7.0533    0.0000 H   0  0  0  0  0  0  0  0  0  0  0  0
    7.0246   -7.8718    0.0000 H   0  0  0  0  0  0  0  0  0  0  0  0
    7.8432   -8.1861    0.0000 H   0  0  0  0  0  0  0  0  0  0  0  0
   12.7135    7.3790    0.0000 H   0  0  0  0  0  0  0  0  0  0  0  0
   12.2360    8.1143    0.0000 H   0  0  0  0  0  0  0  0  0  0  0  0
   11.5006    7.6368    0.0000 H   0  0  0  0  0  0  0  0  0  0  0  0
    5.1350   -5.1844    0.0000 H   0  0  0  0  0  0  0  0  0  0  0  0
    3.7320   -2.7544    0.0000 H   0  0  0  0  0  0  0  0  0  0  0  0
    3.7320   -4.9944    0.0000 H   0  0  0  0  0  0  0  0  0  0  0  0
    7.8336   -8.4596    0.0000 H   0  0  0  0  0  0  0  0  0  0  0  0
    9.5551    5.9678    0.0000 H   0  0  0  0  0  0  0  0  0  0  0  0
   14.3202    3.9327    0.0000 H   0  0  0  0  0  0  0  0  0  0  0  0
   14.7183    4.7139    0.0000 H   0  0  0  0  0  0  0  0  0  0  0  0
   13.9370    5.1120    0.0000 H   0  0  0  0  0  0  0  0  0  0  0  0
   14.4077    7.0188    0.0000 H   0  0  0  0  0  0  0  0  0  0  0  0
   13.9302    7.7542    0.0000 H   0  0  0  0  0  0  0  0  0  0  0  0
   13.1948    7.2766    0.0000 H   0  0  0  0  0  0  0  0  0  0  0  0
    3.1760   -2.3374    0.0000 H   0  0  0  0  0  0  0  0  0  0  0  0
    2.3291   -2.5644    0.0000 H   0  0  0  0  0  0  0  0  0  0  0  0
    2.5560   -3.4113    0.0000 H   0  0  0  0  0  0  0  0  0  0  0  0
    5.1541   -6.9113    0.0000 H   0  0  0  0  0  0  0  0  0  0  0  0
    6.0010   -6.6844    0.0000 H   0  0  0  0  0  0  0  0  0  0  0  0
    5.7741   -5.8374    0.0000 H   0  0  0  0  0  0  0  0  0  0  0  0
    8.7455    8.4596    0.0000 H   0  0  0  0  0  0  0  0  0  0  0  0
    2.3100   -3.8374    0.0000 H   0  0  0  0  0  0  0  0  0  0  0  0
    1.4631   -4.0644    0.0000 H   0  0  0  0  0  0  0  0  0  0  0  0
    1.6900   -4.9113    0.0000 H   0  0  0  0  0  0  0  0  0  0  0  0
  1 18  1  0  0  0  0
  1 21  1  0  0  0  0
  2 19  1  0  0  0  0
  2 20  1  0  0  0  0
 21  3  1  6  0  0  0
  3 28  1  0  0  0  0
  4 23  1  0  0  0  0
  4 32  1  0  0  0  0
 29  5  1  6  0  0  0
 49  5  1  6  0  0  0
  6 37  1  0  0  0  0
  6 46  1  0  0  0  0
  7 38  1  0  0  0  0
  7 48  1  0  0  0  0
 31  8  1  6  0  0  0
  8106  1  0  0  0  0
 40  9  1  1  0  0  0
  9 59  1  0  0  0  0
 45 10  1  6  0  0  0
 10 61  1  0  0  0  0
 11 49  1  0  0  0  0
 11 57  1  0  0  0  0
 46 12  1  1  0  0  0
 12127  1  0  0  0  0
 48 13  1  1  0  0  0
 13128  1  0  0  0  0
 56 14  1  6  0  0  0
 14 63  1  0  0  0  0
 58 15  1  1  0  0  0
 15 64  1  0  0  0  0
 16 60  1  0  0  0  0
 16141  1  0  0  0  0
 17 60  2  0  0  0  0
 18 19  1  0  0  0  0
 18 22  1  0  0  0  0
 18 35  1  6  0  0  0
 19 25  1  0  0  0  0
 19 65  1  1  0  0  0
 20 23  1  0  0  0  0
 20 26  1  0  0  0  0
 20 36  1  1  0  0  0
 21 24  1  0  0  0  0
 21 27  1  0  0  0  0
 22 24  1  0  0  0  0
 22 66  1  0  0  0  0
 22 67  1  0  0  0  0
 23 29  1  0  0  0  0
 23 68  1  1  0  0  0
 24 69  1  0  0  0  0
 24 70  1  0  0  0  0
 25 26  1  0  0  0  0
 25 71  1  0  0  0  0
 25 72  1  0  0  0  0
 26 73  1  0  0  0  0
 26 74  1  0  0  0  0
 27 31  1  0  0  0  0
 27 75  1  0  0  0  0
 27 76  1  0  0  0  0
 28 30  1  0  0  0  0
 28 34  1  0  0  0  0
 28 77  1  6  0  0  0
 29 33  1  0  0  0  0
 29 78  1  0  0  0  0
 30 31  1  0  0  0  0
 30 41  1  1  0  0  0
 30 79  1  0  0  0  0
 31 80  1  0  0  0  0
 32 33  1  0  0  0  0
 32 37  1  0  0  0  0
 32 81  1  6  0  0  0
 33 82  1  0  0  0  0
 33 83  1  0  0  0  0
 34 38  1  0  0  0  0
 34 43  1  6  0  0  0
 34 84  1  0  0  0  0
 35 85  1  0  0  0  0
 35 86  1  0  0  0  0
 35 87  1  0  0  0  0
 36 88  1  0  0  0  0
 36 89  1  0  0  0  0
 36 90  1  0  0  0  0
 37 39  1  0  0  0  0
 37 91  1  1  0  0  0
 38 40  1  0  0  0  0
 38 92  1  1  0  0  0
 39 42  1  0  0  0  0
 39 50  1  1  0  0  0
 39 93  1  0  0  0  0
 40 45  1  0  0  0  0
 40 94  1  0  0  0  0
 41 95  1  0  0  0  0
 41 96  1  0  0  0  0
 41 97  1  0  0  0  0
 42 44  1  0  0  0  0
 42 98  1  0  0  0  0
 42 99  1  0  0  0  0
 43100  1  0  0  0  0
 43101  1  0  0  0  0
 43102  1  0  0  0  0
 44 46  1  0  0  0  0
 44 52  1  1  0  0  0
 44103  1  0  0  0  0
 45 47  1  0  0  0  0
 45104  1  0  0  0  0
 46 54  1  0  0  0  0
 47 48  1  0  0  0  0
 47 55  1  1  0  0  0
 47105  1  0  0  0  0
 48 53  1  0  0  0  0
 49 51  1  0  0  0  0
 49107  1  0  0  0  0
 50108  1  0  0  0  0
 50109  1  0  0  0  0
 50110  1  0  0  0  0
 51 56  1  0  0  0  0
 51111  1  0  0  0  0
 51112  1  0  0  0  0
 52113  1  0  0  0  0
 52114  1  0  0  0  0
 52115  1  0  0  0  0
 53 60  1  0  0  0  0
 53116  1  0  0  0  0
 53117  1  0  0  0  0
 54118  1  0  0  0  0
 54119  1  0  0  0  0
 54120  1  0  0  0  0
 55121  1  0  0  0  0
 55122  1  0  0  0  0
 55123  1  0  0  0  0
 56 58  1  0  0  0  0
 56124  1  0  0  0  0
 57 58  1  0  0  0  0
 57 62  1  6  0  0  0
 57125  1  0  0  0  0
 58126  1  0  0  0  0
 59129  1  0  0  0  0
 59130  1  0  0  0  0
 59131  1  0  0  0  0
 61132  1  0  0  0  0
 61133  1  0  0  0  0
 61134  1  0  0  0  0
 62135  1  0  0  0  0
 62136  1  0  0  0  0
 62137  1  0  0  0  0
 63138  1  0  0  0  0
 63139  1  0  0  0  0
 63140  1  0  0  0  0
 64142  1  0  0  0  0
 64143  1  0  0  0  0
 64144  1  0  0  0  0
M  END
> <PUBCHEM_COMPOUND_CID>
196129

> <PUBCHEM_COMPOUND_CANONICALIZED>
1

> <PUBCHEM_CACTVS_COMPLEXITY>
1610

> <PUBCHEM_CACTVS_HBOND_ACCEPTOR>
17

> <PUBCHEM_CACTVS_HBOND_DONOR>
4

> <PUBCHEM_CACTVS_ROTATABLE_BOND>
13

> <PUBCHEM_CACTVS_SUBSKEYS>
AAADcfB8PgAAAAAAAAAAAAAAAAAAASJEgAAkSJEgAAAAAAAAAAAAGgAACAAADVSwgAMCCAAABgAIAACQCAAAAAAAAAAAAAEAAAAREBYAAAAiQAAFIAAGAAHI7PzOAAAAAAAAAAAAAAAAAAAAAAAAAAAAAA==

> <PUBCHEM_IUPAC_OPENEYE_NAME>
2-[(2R,3S,4S,5R,6S)-6-[(1R)-1-[(2S,5R,7S,8R,9S)-2-[(2R,5S)-5-[(2R,3S,5R)-3-[(2R,4S,5S,6S)-4,5-dimethoxy-6-methyl-tetrahydropyran-2-yl]oxy-5-[(2S,3S,5R,6S)-6-hydroxy-3,5,6-trimethyl-tetrahydropyran-2-yl]tetrahydrofuran-2-yl]-5-methyl-tetrahydrofuran-2-yl]-7-hydroxy-2,8-dimethyl-1,10-dioxaspiro[4.5]decan-9-yl]ethyl]-2-hydroxy-4,5-dimethoxy-3-methyl-tetrahydropyran-2-yl]acetic acid

> <PUBCHEM_IUPAC_CAS_NAME>
2-[(2R,3S,4S,5R,6S)-6-[(1R)-1-[(2S,5R,7S,8R,9S)-2-[(2R,5S)-5-[(2R,3S,5R)-3-[[(2R,4S,5S,6S)-4,5-dimethoxy-6-methyl-2-oxanyl]oxy]-5-[(2S,3S,5R,6S)-6-hydroxy-3,5,6-trimethyl-2-oxanyl]-2-oxolanyl]-5-methyl-2-oxolanyl]-7-hydroxy-2,8-dimethyl-1,10-dioxaspiro[4.5]decan-9-yl]ethyl]-2-hydroxy-4,5-dimethoxy-3-methyl-2-oxanyl]acetic acid

> <PUBCHEM_IUPAC_NAME_MARKUP>
2-[(2<I>R</I>,3<I>S</I>,4<I>S</I>,5<I>R</I>,6<I>S</I>)-6-[(1<I>R</I>)-1-[(2<I>S</I>,5<I>R</I>,7<I>S</I>,8<I>R</I>,9<I>S</I>)-2-[(2<I>R</I>,5<I>S</I>)-5-[(2<I>R</I>,3<I>S</I>,5<I>R</I>)-3-[(2<I>R</I>,4<I>S</I>,5<I>S</I>,6<I>S</I>)-4,5-dimethoxy-6-methyloxan-2-yl]oxy-5-[(2<I>S</I>,3<I>S</I>,5<I>R</I>,6<I>S</I>)-6-hydroxy-3,5,6-trimethyloxan-2-yl]oxolan-2-yl]-5-methyloxolan-2-yl]-7-hydroxy-2,8-dimethyl-1,10-dioxaspiro[4.5]decan-9-yl]ethyl]-2-hydroxy-4,5-dimethoxy-3-methyloxan-2-yl]acetic acid

> <PUBCHEM_IUPAC_NAME>
2-[(2R,3S,4S,5R,6S)-6-[(1R)-1-[(2S,5R,7S,8R,9S)-2-[(2R,5S)-5-[(2R,3S,5R)-3-[(2R,4S,5S,6S)-4,5-dimethoxy-6-methyloxan-2-yl]oxy-5-[(2S,3S,5R,6S)-6-hydroxy-3,5,6-trimethyloxan-2-yl]oxolan-2-yl]-5-methyloxolan-2-yl]-7-hydroxy-2,8-dimethyl-1,10-dioxaspiro[4.5]decan-9-yl]ethyl]-2-hydroxy-4,5-dimethoxy-3-methyloxan-2-yl]acetic acid

> <PUBCHEM_IUPAC_SYSTEMATIC_NAME>
2-[(2R,3S,4S,5R,6S)-6-[(1R)-1-[(2S,5R,7S,8R,9S)-2-[(2R,5S)-5-[(2R,3S,5R)-3-[(2R,4S,5S,6S)-4,5-dimethoxy-6-methyl-oxan-2-yl]oxy-5-[(2S,3S,5R,6S)-3,5,6-trimethyl-6-oxidanyl-oxan-2-yl]oxolan-2-yl]-5-methyl-oxolan-2-yl]-2,8-dimethyl-7-oxidanyl-1,10-dioxaspiro[4.5]decan-9-yl]ethyl]-4,5-dimethoxy-3-methyl-2-oxidanyl-oxan-2-yl]ethanoic acid

> <PUBCHEM_IUPAC_TRADITIONAL_NAME>
2-[(2R,3S,4S,5R,6S)-6-[(1R)-1-[(2S,5R,7S,8R,9S)-2-[(2R,5S)-5-[(2R,3S,5R)-3-[(2R,4S,5S,6S)-4,5-dimethoxy-6-methyl-tetrahydropyran-2-yl]oxy-5-[(2S,3S,5R,6S)-6-hydroxy-3,5,6-trimethyl-tetrahydropyran-2-yl]tetrahydrofuran-2-yl]-5-methyl-tetrahydrofuran-2-yl]-7-hydroxy-2,8-dimethyl-1,10-dioxaspiro[4.5]decan-9-yl]ethyl]-2-hydroxy-4,5-dimethoxy-3-methyl-tetrahydropyran-2-yl]acetic acid

> <PUBCHEM_IUPAC_INCHI>
InChI=1S/C47H80O17/c1-23-18-24(2)45(9,51)61-36(23)31-19-32(58-35-20-30(53-10)40(55-12)28(6)57-35)42(59-31)44(8)15-14-33(60-44)43(7)16-17-46(64-43)21-29(48)25(3)37(62-46)26(4)38-41(56-13)39(54-11)27(5)47(52,63-38)22-34(49)50/h23-33,35-42,48,51-52H,14-22H2,1-13H3,(H,49,50)/t23-,24+,25+,26+,27-,28-,29-,30-,31+,32-,33+,35+,36-,37-,38-,39-,40-,41-,42+,43-,44-,45-,46+,47+/m0/s1

> <PUBCHEM_IUPAC_INCHIKEY>
RWVUEZAROXKXRT-VQLSFVLHSA-N

> <PUBCHEM_XLOGP3_AA>
3.9

> <PUBCHEM_EXACT_MASS>
916.53955108

> <PUBCHEM_MOLECULAR_FORMULA>
C47H80O17

> <PUBCHEM_MOLECULAR_WEIGHT>
917.1

> <PUBCHEM_OPENEYE_CAN_SMILES>
CC1CC(C(OC1C2CC(C(O2)C3(CCC(O3)C4(CCC5(O4)CC(C(C(O5)C(C)C6C(C(C(C(O6)(CC(=O)O)O)C)OC)OC)C)O)C)C)OC7CC(C(C(O7)C)OC)OC)(C)O)C

> <PUBCHEM_OPENEYE_ISO_SMILES>
C[C@H]1C[C@H]([C@@](O[C@@H]1[C@H]2C[C@@H]([C@@H](O2)[C@@]3(CC[C@@H](O3)[C@@]4(CC[C@@]5(O4)C[C@@H]([C@H]([C@H](O5)[C@@H](C)[C@H]6[C@@H]([C@H]([C@@H]([C@](O6)(CC(=O)O)O)C)OC)OC)C)O)C)C)O[C@@H]7C[C@@H]([C@H]([C@@H](O7)C)OC)OC)(C)O)C

> <PUBCHEM_CACTVS_TPSA>
209

> <PUBCHEM_MONOISOTOPIC_WEIGHT>
916.53955108

> <PUBCHEM_TOTAL_CHARGE>
0

> <PUBCHEM_HEAVY_ATOM_COUNT>
64

> <PUBCHEM_ATOM_DEF_STEREO_COUNT>
24

> <PUBCHEM_ATOM_UDEF_STEREO_COUNT>
0

> <PUBCHEM_BOND_DEF_STEREO_COUNT>
0

> <PUBCHEM_BOND_UDEF_STEREO_COUNT>
0

> <PUBCHEM_ISOTOPIC_ATOM_COUNT>
0

> <PUBCHEM_COMPONENT_COUNT>
1

> <PUBCHEM_CACTVS_TAUTO_COUNT>
1

> <PUBCHEM_COORDINATE_TYPE>
1
5
255

> <PUBCHEM_BONDANNOTATIONS>
45  10  6
46  12  5
48  13  5
56  14  6
58  15  5
18  35  6
19  65  5
20  36  5
23  68  5
28  77  6
21  3  6
30  41  5
32  81  6
34  43  6
37  91  5
38  92  5
39  50  5
44  52  5
47  55  5
29  5  6
49  5  6
57  62  6
31  8  6
40  9  5

$$$$
