155568411
  -OEChem-09292322072D

 41 43  0     0  0  0  0  0  0999 V2000
    2.8660   -5.2500    0.0000 Cl  0  0  0  0  0  0  0  0  0  0  0  0
    4.5981    1.7500    0.0000 O   0  0  0  0  0  0  0  0  0  0  0  0
    2.8660    0.7500    0.0000 N   0  0  0  0  0  0  0  0  0  0  0  0
    2.8660   -1.2500    0.0000 N   0  0  0  0  0  0  0  0  0  0  0  0
    3.7320   -2.7500    0.0000 N   0  0  0  0  0  0  0  0  0  0  0  0
    3.7320    3.2500    0.0000 N   0  0  0  0  0  0  0  0  0  0  0  0
    6.3301    3.7500    0.0000 N   0  0  0  0  0  0  0  0  0  0  0  0
    3.7320    0.2500    0.0000 C   0  0  0  0  0  0  0  0  0  0  0  0
    2.0000    0.2500    0.0000 C   0  0  0  0  0  0  0  0  0  0  0  0
    3.7320   -0.7500    0.0000 C   0  0  0  0  0  0  0  0  0  0  0  0
    2.0000   -0.7500    0.0000 C   0  0  0  0  0  0  0  0  0  0  0  0
    2.8660    1.7500    0.0000 C   0  0  0  0  0  0  0  0  0  0  0  0
    2.8660   -2.2500    0.0000 C   0  0  0  0  0  0  0  0  0  0  0  0
    3.7320    2.2500    0.0000 C   0  0  0  0  0  0  0  0  0  0  0  0
    2.0000   -2.7500    0.0000 C   0  0  0  0  0  0  0  0  0  0  0  0
    2.0000   -3.7500    0.0000 C   0  0  0  0  0  0  0  0  0  0  0  0
    3.7320   -3.7500    0.0000 C   0  0  0  0  0  0  0  0  0  0  0  0
    2.8660   -4.2500    0.0000 C   0  0  0  0  0  0  0  0  0  0  0  0
    4.5981    3.7500    0.0000 C   0  0  0  0  0  0  0  0  0  0  0  0
    4.5981    4.7500    0.0000 C   0  0  0  0  0  0  0  0  0  0  0  0
    5.4641    3.2500    0.0000 C   0  0  0  0  0  0  0  0  0  0  0  0
    5.4641    5.2500    0.0000 C   0  0  0  0  0  0  0  0  0  0  0  0
    6.3301    4.7500    0.0000 C   0  0  0  0  0  0  0  0  0  0  0  0
    4.3426    0.1423    0.0000 H   0  0  0  0  0  0  0  0  0  0  0  0
    3.9441    0.8326    0.0000 H   0  0  0  0  0  0  0  0  0  0  0  0
    1.7880    0.8326    0.0000 H   0  0  0  0  0  0  0  0  0  0  0  0
    1.3894    0.1423    0.0000 H   0  0  0  0  0  0  0  0  0  0  0  0
    3.9441   -1.3326    0.0000 H   0  0  0  0  0  0  0  0  0  0  0  0
    4.3426   -0.6423    0.0000 H   0  0  0  0  0  0  0  0  0  0  0  0
    1.3894   -0.6423    0.0000 H   0  0  0  0  0  0  0  0  0  0  0  0
    1.7880   -1.3326    0.0000 H   0  0  0  0  0  0  0  0  0  0  0  0
    2.6540    2.3326    0.0000 H   0  0  0  0  0  0  0  0  0  0  0  0
    2.2554    1.6423    0.0000 H   0  0  0  0  0  0  0  0  0  0  0  0
    1.4631   -2.4400    0.0000 H   0  0  0  0  0  0  0  0  0  0  0  0
    3.1951    3.5600    0.0000 H   0  0  0  0  0  0  0  0  0  0  0  0
    1.4631   -4.0600    0.0000 H   0  0  0  0  0  0  0  0  0  0  0  0
    4.2690   -4.0600    0.0000 H   0  0  0  0  0  0  0  0  0  0  0  0
    4.0611    5.0600    0.0000 H   0  0  0  0  0  0  0  0  0  0  0  0
    5.4641    2.6300    0.0000 H   0  0  0  0  0  0  0  0  0  0  0  0
    5.4641    5.8700    0.0000 H   0  0  0  0  0  0  0  0  0  0  0  0
    6.8671    5.0600    0.0000 H   0  0  0  0  0  0  0  0  0  0  0  0
  1 18  1  0  0  0  0
  2 14  2  0  0  0  0
  3  8  1  0  0  0  0
  3  9  1  0  0  0  0
  3 12  1  0  0  0  0
  4 10  1  0  0  0  0
  4 11  1  0  0  0  0
  4 13  1  0  0  0  0
  5 13  2  0  0  0  0
  5 17  1  0  0  0  0
  6 14  1  0  0  0  0
  6 19  1  0  0  0  0
  6 35  1  0  0  0  0
  7 21  1  0  0  0  0
  7 23  2  0  0  0  0
  8 10  1  0  0  0  0
  8 24  1  0  0  0  0
  8 25  1  0  0  0  0
  9 11  1  0  0  0  0
  9 26  1  0  0  0  0
  9 27  1  0  0  0  0
 10 28  1  0  0  0  0
 10 29  1  0  0  0  0
 11 30  1  0  0  0  0
 11 31  1  0  0  0  0
 12 14  1  0  0  0  0
 12 32  1  0  0  0  0
 12 33  1  0  0  0  0
 13 15  1  0  0  0  0
 15 16  2  0  0  0  0
 15 34  1  0  0  0  0
 16 18  1  0  0  0  0
 16 36  1  0  0  0  0
 17 18  2  0  0  0  0
 17 37  1  0  0  0  0
 19 20  1  0  0  0  0
 19 21  2  0  0  0  0
 20 22  2  0  0  0  0
 20 38  1  0  0  0  0
 21 39  1  0  0  0  0
 22 23  1  0  0  0  0
 22 40  1  0  0  0  0
 23 41  1  0  0  0  0
M  END
> <PUBCHEM_COMPOUND_CID>
155568411

> <PUBCHEM_COMPOUND_CANONICALIZED>
1

> <PUBCHEM_CACTVS_COMPLEXITY>
389

> <PUBCHEM_CACTVS_HBOND_ACCEPTOR>
5

> <PUBCHEM_CACTVS_HBOND_DONOR>
1

> <PUBCHEM_CACTVS_ROTATABLE_BOND>
4

> <PUBCHEM_CACTVS_SUBSKEYS>
AAADceB7oAAEAAAAAAAAAAAAAAAAAAAAAAAsWLAAAAAAAAAB4AAAHgIQAAAACArBkiQ98JPIEACoADd3dACCgCkxFyAJ2CC4dpiIYOLBm7HUIAholALIyCYQAAAAAAAAAAAAAAAAAAAAAAAAAAAAAAAAAA==

> <PUBCHEM_IUPAC_OPENEYE_NAME>
2-[4-(5-chloro-2-pyridyl)piperazin-1-yl]-N-(3-pyridyl)acetamide

> <PUBCHEM_IUPAC_CAS_NAME>
2-[4-(5-chloro-2-pyridinyl)-1-piperazinyl]-N-(3-pyridinyl)acetamide

> <PUBCHEM_IUPAC_NAME_MARKUP>
2-[4-(5-chloropyridin-2-yl)piperazin-1-yl]-<I>N</I>-pyridin-3-ylacetamide

> <PUBCHEM_IUPAC_NAME>
2-[4-(5-chloropyridin-2-yl)piperazin-1-yl]-N-pyridin-3-ylacetamide

> <PUBCHEM_IUPAC_SYSTEMATIC_NAME>
2-[4-(5-chloranylpyridin-2-yl)piperazin-1-yl]-N-pyridin-3-yl-ethanamide

> <PUBCHEM_IUPAC_TRADITIONAL_NAME>
2-[4-(5-chloro-2-pyridyl)piperazino]-N-(3-pyridyl)acetamide

> <PUBCHEM_IUPAC_INCHI>
InChI=1S/C16H18ClN5O/c17-13-3-4-15(19-10-13)22-8-6-21(7-9-22)12-16(23)20-14-2-1-5-18-11-14/h1-5,10-11H,6-9,12H2,(H,20,23)

> <PUBCHEM_IUPAC_INCHIKEY>
ITYRVEDPENLOKE-UHFFFAOYSA-N

> <PUBCHEM_XLOGP3_AA>
1.6

> <PUBCHEM_EXACT_MASS>
331.1199879

> <PUBCHEM_MOLECULAR_FORMULA>
C16H18ClN5O

> <PUBCHEM_MOLECULAR_WEIGHT>
331.80

> <PUBCHEM_OPENEYE_CAN_SMILES>
C1CN(CCN1CC(=O)NC2=CN=CC=C2)C3=NC=C(C=C3)Cl

> <PUBCHEM_OPENEYE_ISO_SMILES>
C1CN(CCN1CC(=O)NC2=CN=CC=C2)C3=NC=C(C=C3)Cl

> <PUBCHEM_CACTVS_TPSA>
61.4

> <PUBCHEM_MONOISOTOPIC_WEIGHT>
331.1199879

> <PUBCHEM_TOTAL_CHARGE>
0

> <PUBCHEM_HEAVY_ATOM_COUNT>
23

> <PUBCHEM_ATOM_DEF_STEREO_COUNT>
0

> <PUBCHEM_ATOM_UDEF_STEREO_COUNT>
0

> <PUBCHEM_BOND_DEF_STEREO_COUNT>
0

> <PUBCHEM_BOND_UDEF_STEREO_COUNT>
0

> <PUBCHEM_ISOTOPIC_ATOM_COUNT>
0

> <PUBCHEM_COMPONENT_COUNT>
1

> <PUBCHEM_CACTVS_TAUTO_COUNT>
-1

> <PUBCHEM_COORDINATE_TYPE>
1
5
255

> <PUBCHEM_BONDANNOTATIONS>
13  15  8
15  16  8
16  18  8
17  18  8
19  20  8
19  21  8
20  22  8
22  23  8
5  13  8
5  17  8
7  21  8
7  23  8

$$$$
