44334637
  -OEChem-09292322142D

 57 62  0     1  0  0  0  0  0999 V2000
    8.9930    0.2029    0.0000 O   0  0  0  0  0  0  0  0  0  0  0  0
    4.3798   -1.4543    0.0000 O   0  0  0  0  0  0  0  0  0  0  0  0
    6.1719   -2.4890    0.0000 O   0  0  0  0  0  0  0  0  0  0  0  0
    7.9670    2.5784    0.0000 N   0  0  3  0  0  0  0  0  0  0  0  0
    6.1381    0.5768    0.0000 N   0  0  0  0  0  0  0  0  0  0  0  0
    9.4476    1.9260    0.0000 N   0  0  0  0  0  0  0  0  0  0  0  0
    2.5836   -4.3005    0.0000 N   0  0  0  0  0  0  0  0  0  0  0  0
    7.8662    1.5835    0.0000 C   0  0  0  0  0  0  0  0  0  0  0  0
    6.9983    2.0801    0.0000 C   0  0  0  0  0  0  0  0  0  0  0  0
    7.8701    0.5835    0.0000 C   0  0  0  0  0  0  0  0  0  0  0  0
    6.1342    1.5768    0.0000 C   0  0  0  0  0  0  0  0  0  0  0  0
    7.0060    0.0801    0.0000 C   0  0  0  0  0  0  0  0  0  0  0  0
    8.7814    1.1802    0.0000 C   0  0  0  0  0  0  0  0  0  0  0  0
    8.9443    2.7901    0.0000 C   0  0  0  0  0  0  0  0  0  0  0  0
    5.2740    0.0735    0.0000 C   0  0  0  0  0  0  0  0  0  0  0  0
    7.2212    3.2446    0.0000 C   0  0  0  0  0  0  0  0  0  0  0  0
    5.2778   -0.9265    0.0000 C   0  0  3  0  0  0  0  0  0  0  0  0
    6.1799   -1.4474    0.0000 C   0  0  0  0  0  0  0  0  0  0  0  0
    6.2714    2.9320    0.0000 C   0  0  0  0  0  0  0  0  0  0  0  0
    7.4254    4.2236    0.0000 C   0  0  0  0  0  0  0  0  0  0  0  0
    4.3958   -2.4958    0.0000 C   0  0  0  0  0  0  0  0  0  0  0  0
    5.2619   -2.9958    0.0000 C   0  0  0  0  0  0  0  0  0  0  0  0
    5.5256    3.5982    0.0000 C   0  0  0  0  0  0  0  0  0  0  0  0
    6.6796    4.8898    0.0000 C   0  0  0  0  0  0  0  0  0  0  0  0
    3.5298   -2.9958    0.0000 C   0  0  0  0  0  0  0  0  0  0  0  0
    5.7298    4.5772    0.0000 C   0  0  0  0  0  0  0  0  0  0  0  0
    3.5298   -3.9958    0.0000 C   0  0  0  0  0  0  0  0  0  0  0  0
    5.2619   -3.9958    0.0000 C   0  0  0  0  0  0  0  0  0  0  0  0
    4.3958   -4.4958    0.0000 C   0  0  0  0  0  0  0  0  0  0  0  0
    2.5836   -2.6911    0.0000 C   0  0  0  0  0  0  0  0  0  0  0  0
    2.0000   -3.4958    0.0000 C   0  0  0  0  0  0  0  0  0  0  0  0
    7.3950    2.5566    0.0000 H   0  0  0  0  0  0  0  0  0  0  0  0
    6.5980    2.5535    0.0000 H   0  0  0  0  0  0  0  0  0  0  0  0
    8.0844    0.0017    0.0000 H   0  0  0  0  0  0  0  0  0  0  0  0
    8.4803    0.6935    0.0000 H   0  0  0  0  0  0  0  0  0  0  0  0
    5.9199    2.1586    0.0000 H   0  0  0  0  0  0  0  0  0  0  0  0
    5.5240    1.4668    0.0000 H   0  0  0  0  0  0  0  0  0  0  0  0
    6.6093   -0.3963    0.0000 H   0  0  0  0  0  0  0  0  0  0  0  0
    7.4064   -0.3933    0.0000 H   0  0  0  0  0  0  0  0  0  0  0  0
    9.5097    3.0444    0.0000 H   0  0  0  0  0  0  0  0  0  0  0  0
    8.7504    3.3790    0.0000 H   0  0  0  0  0  0  0  0  0  0  0  0
    5.0597    0.6552    0.0000 H   0  0  0  0  0  0  0  0  0  0  0  0
    4.6638   -0.0366    0.0000 H   0  0  0  0  0  0  0  0  0  0  0  0
   10.0645    1.8635    0.0000 H   0  0  0  0  0  0  0  0  0  0  0  0
    4.7391   -0.6196    0.0000 H   0  0  0  0  0  0  0  0  0  0  0  0
    6.7899   -1.5581    0.0000 H   0  0  0  0  0  0  0  0  0  0  0  0
    6.3935   -0.8653    0.0000 H   0  0  0  0  0  0  0  0  0  0  0  0
    6.1448    2.3250    0.0000 H   0  0  0  0  0  0  0  0  0  0  0  0
    8.0143    4.4174    0.0000 H   0  0  0  0  0  0  0  0  0  0  0  0
    4.9367    3.4044    0.0000 H   0  0  0  0  0  0  0  0  0  0  0  0
    6.8062    5.4968    0.0000 H   0  0  0  0  0  0  0  0  0  0  0  0
    5.2674    4.9902    0.0000 H   0  0  0  0  0  0  0  0  0  0  0  0
    5.7988   -4.3058    0.0000 H   0  0  0  0  0  0  0  0  0  0  0  0
    4.3958   -5.1158    0.0000 H   0  0  0  0  0  0  0  0  0  0  0  0
    2.3910   -2.1017    0.0000 H   0  0  0  0  0  0  0  0  0  0  0  0
    2.3910   -4.8898    0.0000 H   0  0  0  0  0  0  0  0  0  0  0  0
    1.3800   -3.4958    0.0000 H   0  0  0  0  0  0  0  0  0  0  0  0
  1 13  2  0  0  0  0
  2 17  1  0  0  0  0
  2 21  1  0  0  0  0
  3 18  1  0  0  0  0
  3 22  1  0  0  0  0
  4  8  1  0  0  0  0
  4 14  1  0  0  0  0
  4 16  1  0  0  0  0
  5 11  1  0  0  0  0
  5 12  1  0  0  0  0
  5 15  1  0  0  0  0
  6 13  1  0  0  0  0
  6 14  1  0  0  0  0
  6 44  1  0  0  0  0
  7 27  1  0  0  0  0
  7 31  1  0  0  0  0
  7 56  1  0  0  0  0
  8  9  1  0  0  0  0
  8 10  1  0  0  0  0
  8 13  1  0  0  0  0
  9 11  1  0  0  0  0
  9 32  1  0  0  0  0
  9 33  1  0  0  0  0
 10 12  1  0  0  0  0
 10 34  1  0  0  0  0
 10 35  1  0  0  0  0
 11 36  1  0  0  0  0
 11 37  1  0  0  0  0
 12 38  1  0  0  0  0
 12 39  1  0  0  0  0
 14 40  1  0  0  0  0
 14 41  1  0  0  0  0
 15 17  1  0  0  0  0
 15 42  1  0  0  0  0
 15 43  1  0  0  0  0
 16 19  2  0  0  0  0
 16 20  1  0  0  0  0
 17 18  1  0  0  0  0
 17 45  1  0  0  0  0
 18 46  1  0  0  0  0
 18 47  1  0  0  0  0
 19 23  1  0  0  0  0
 19 48  1  0  0  0  0
 20 24  2  0  0  0  0
 20 49  1  0  0  0  0
 21 22  2  0  0  0  0
 21 25  1  0  0  0  0
 22 28  1  0  0  0  0
 23 26  2  0  0  0  0
 23 50  1  0  0  0  0
 24 26  1  0  0  0  0
 24 51  1  0  0  0  0
 25 27  2  0  0  0  0
 25 30  1  0  0  0  0
 26 52  1  0  0  0  0
 27 29  1  0  0  0  0
 28 29  2  0  0  0  0
 28 53  1  0  0  0  0
 29 54  1  0  0  0  0
 30 31  2  0  0  0  0
 30 55  1  0  0  0  0
 31 57  1  0  0  0  0
M  END
> <PUBCHEM_COMPOUND_CID>
44334637

> <PUBCHEM_COMPOUND_CANONICALIZED>
1

> <PUBCHEM_CACTVS_COMPLEXITY>
661

> <PUBCHEM_CACTVS_HBOND_ACCEPTOR>
5

> <PUBCHEM_CACTVS_HBOND_DONOR>
2

> <PUBCHEM_CACTVS_ROTATABLE_BOND>
3

> <PUBCHEM_CACTVS_SUBSKEYS>
AAADceB7sAAAAAAAAAAAAAAAAAAAAWLAAAA8aIEAAAAAAFiR9AAAHgAQAAAADJzhngY9xvPJlACoAzV3VACCiCAxIiAI2aG+7JiPZvLE8buXOCru0xva6Ce00LMOAEABAgAKQAAAgAIEABSAAAAAAAAAAA==

> <PUBCHEM_IUPAC_OPENEYE_NAME>
8-(3,7-dihydro-2H-[1,4]dioxino[2,3-e]indol-2-ylmethyl)-1-phenyl-1,3,8-triazaspiro[4.5]decan-4-one

> <PUBCHEM_IUPAC_CAS_NAME>
8-(3,7-dihydro-2H-[1,4]dioxino[2,3-e]indol-2-ylmethyl)-1-phenyl-1,3,8-triazaspiro[4.5]decan-4-one

> <PUBCHEM_IUPAC_NAME_MARKUP>
8-(3,7-dihydro-2<I>H</I>-[1,4]dioxino[2,3-e]indol-2-ylmethyl)-1-phenyl-1,3,8-triazaspiro[4.5]decan-4-one

> <PUBCHEM_IUPAC_NAME>
8-(3,7-dihydro-2H-[1,4]dioxino[2,3-e]indol-2-ylmethyl)-1-phenyl-1,3,8-triazaspiro[4.5]decan-4-one

> <PUBCHEM_IUPAC_SYSTEMATIC_NAME>
8-(3,7-dihydro-2H-[1,4]dioxino[2,3-e]indol-2-ylmethyl)-1-phenyl-1,3,8-triazaspiro[4.5]decan-4-one

> <PUBCHEM_IUPAC_TRADITIONAL_NAME>
8-(3,7-dihydro-2H-[1,4]dioxin[2,3-e]indol-2-ylmethyl)-1-phenyl-1,3,8-triazaspiro[4.5]decan-4-one

> <PUBCHEM_IUPAC_INCHI>
InChI=1S/C24H26N4O3/c29-23-24(28(16-26-23)17-4-2-1-3-5-17)9-12-27(13-10-24)14-18-15-30-21-7-6-20-19(8-11-25-20)22(21)31-18/h1-8,11,18,25H,9-10,12-16H2,(H,26,29)

> <PUBCHEM_IUPAC_INCHIKEY>
DVFLWMCCYDDTMA-UHFFFAOYSA-N

> <PUBCHEM_XLOGP3_AA>
3.2

> <PUBCHEM_EXACT_MASS>
418.20049070

> <PUBCHEM_MOLECULAR_FORMULA>
C24H26N4O3

> <PUBCHEM_MOLECULAR_WEIGHT>
418.5

> <PUBCHEM_OPENEYE_CAN_SMILES>
C1CN(CCC12C(=O)NCN2C3=CC=CC=C3)CC4COC5=C(O4)C6=C(C=C5)NC=C6

> <PUBCHEM_OPENEYE_ISO_SMILES>
C1CN(CCC12C(=O)NCN2C3=CC=CC=C3)CC4COC5=C(O4)C6=C(C=C5)NC=C6

> <PUBCHEM_CACTVS_TPSA>
69.8

> <PUBCHEM_MONOISOTOPIC_WEIGHT>
418.20049070

> <PUBCHEM_TOTAL_CHARGE>
0

> <PUBCHEM_HEAVY_ATOM_COUNT>
31

> <PUBCHEM_ATOM_DEF_STEREO_COUNT>
0

> <PUBCHEM_ATOM_UDEF_STEREO_COUNT>
1

> <PUBCHEM_BOND_DEF_STEREO_COUNT>
0

> <PUBCHEM_BOND_UDEF_STEREO_COUNT>
0

> <PUBCHEM_ISOTOPIC_ATOM_COUNT>
0

> <PUBCHEM_COMPONENT_COUNT>
1

> <PUBCHEM_CACTVS_TAUTO_COUNT>
-1

> <PUBCHEM_COORDINATE_TYPE>
1
5
255

> <PUBCHEM_BONDANNOTATIONS>
17  15  3
16  19  8
16  20  8
19  23  8
20  24  8
21  22  8
21  25  8
22  28  8
23  26  8
24  26  8
25  27  8
25  30  8
27  29  8
28  29  8
30  31  8
7  27  8
7  31  8

$$$$
