44415822
  -OEChem-09292322282D

 59 63  0     0  0  0  0  0  0999 V2000
    8.7204    1.1797    0.0000 Cl  0  0  0  0  0  0  0  0  0  0  0  0
    8.3471   -2.1473    0.0000 F   0  0  0  0  0  0  0  0  0  0  0  0
    7.9810   -3.5133    0.0000 F   0  0  0  0  0  0  0  0  0  0  0  0
    6.9811   -1.7812    0.0000 F   0  0  0  0  0  0  0  0  0  0  0  0
    5.7490   -5.6473    0.0000 F   0  0  0  0  0  0  0  0  0  0  0  0
    6.6150   -1.1473    0.0000 O   0  0  0  0  0  0  0  0  0  0  0  0
    3.9491    2.9444    0.0000 N   0  0  0  0  0  0  0  0  0  0  0  0
    3.0814    4.7463    0.0000 N   0  0  0  0  0  0  0  0  0  0  0  0
    4.8830   -0.1473    0.0000 N   0  0  0  0  0  0  0  0  0  0  0  0
    5.3830    2.0434    0.0000 N   0  0  0  0  0  0  0  0  0  0  0  0
    4.8830   -1.1473    0.0000 N   0  0  0  0  0  0  0  0  0  0  0  0
    4.5125    3.7706    0.0000 C   0  0  0  0  0  0  0  0  0  0  0  0
    2.9519    3.0191    0.0000 C   0  0  0  0  0  0  0  0  0  0  0  0
    4.0786    4.6716    0.0000 C   0  0  0  0  0  0  0  0  0  0  0  0
    2.5180    3.9201    0.0000 C   0  0  0  0  0  0  0  0  0  0  0  0
    4.3830    2.0434    0.0000 C   0  0  0  0  0  0  0  0  0  0  0  0
    3.7595    1.2616    0.0000 C   0  0  0  0  0  0  0  0  0  0  0  0
    2.6475    5.6473    0.0000 C   0  0  0  0  0  0  0  0  0  0  0  0
    3.9820    0.2866    0.0000 C   0  0  0  0  0  0  0  0  0  0  0  0
    5.7840    0.2866    0.0000 C   0  0  0  0  0  0  0  0  0  0  0  0
    6.0065    1.2615    0.0000 C   0  0  0  0  0  0  0  0  0  0  0  0
    2.7690    1.5839    0.0000 C   0  0  0  0  0  0  0  0  0  0  0  0
    3.2295   -0.4335    0.0000 C   0  0  0  0  0  0  0  0  0  0  0  0
    2.0000    0.8813    0.0000 C   0  0  0  0  0  0  0  0  0  0  0  0
    6.5365   -0.4336    0.0000 C   0  0  0  0  0  0  0  0  0  0  0  0
    6.9970    1.5839    0.0000 C   0  0  0  0  0  0  0  0  0  0  0  0
    2.2318   -0.1342    0.0000 C   0  0  0  0  0  0  0  0  0  0  0  0
    7.5342   -0.1342    0.0000 C   0  0  0  0  0  0  0  0  0  0  0  0
    7.7660    0.8813    0.0000 C   0  0  0  0  0  0  0  0  0  0  0  0
    5.7490   -1.6473    0.0000 C   0  0  0  0  0  0  0  0  0  0  0  0
    5.7490   -2.6473    0.0000 C   0  0  0  0  0  0  0  0  0  0  0  0
    6.6150   -3.1473    0.0000 C   0  0  0  0  0  0  0  0  0  0  0  0
    4.8830   -3.1473    0.0000 C   0  0  0  0  0  0  0  0  0  0  0  0
    6.6150   -4.1473    0.0000 C   0  0  0  0  0  0  0  0  0  0  0  0
    7.4810   -2.6473    0.0000 C   0  0  0  0  0  0  0  0  0  0  0  0
    4.8830   -4.1473    0.0000 C   0  0  0  0  0  0  0  0  0  0  0  0
    5.7490   -4.6473    0.0000 C   0  0  0  0  0  0  0  0  0  0  0  0
    4.9563    3.3377    0.0000 H   0  0  0  0  0  0  0  0  0  0  0  0
    5.0159    4.1325    0.0000 H   0  0  0  0  0  0  0  0  0  0  0  0
    2.3551    2.8512    0.0000 H   0  0  0  0  0  0  0  0  0  0  0  0
    3.0137    2.4022    0.0000 H   0  0  0  0  0  0  0  0  0  0  0  0
    4.6754    4.8395    0.0000 H   0  0  0  0  0  0  0  0  0  0  0  0
    4.0168    5.2885    0.0000 H   0  0  0  0  0  0  0  0  0  0  0  0
    2.0742    4.3530    0.0000 H   0  0  0  0  0  0  0  0  0  0  0  0
    2.0146    3.5582    0.0000 H   0  0  0  0  0  0  0  0  0  0  0  0
    3.2061    5.9163    0.0000 H   0  0  0  0  0  0  0  0  0  0  0  0
    2.3785    6.2059    0.0000 H   0  0  0  0  0  0  0  0  0  0  0  0
    2.0889    5.3783    0.0000 H   0  0  0  0  0  0  0  0  0  0  0  0
    2.6380    2.1899    0.0000 H   0  0  0  0  0  0  0  0  0  0  0  0
    3.3744   -1.0364    0.0000 H   0  0  0  0  0  0  0  0  0  0  0  0
    1.4083    1.0664    0.0000 H   0  0  0  0  0  0  0  0  0  0  0  0
    4.3460   -1.4573    0.0000 H   0  0  0  0  0  0  0  0  0  0  0  0
    6.3916   -1.0364    0.0000 H   0  0  0  0  0  0  0  0  0  0  0  0
    7.1280    2.1899    0.0000 H   0  0  0  0  0  0  0  0  0  0  0  0
    1.7789   -0.5576    0.0000 H   0  0  0  0  0  0  0  0  0  0  0  0
    7.9871   -0.5577    0.0000 H   0  0  0  0  0  0  0  0  0  0  0  0
    4.3460   -2.8373    0.0000 H   0  0  0  0  0  0  0  0  0  0  0  0
    7.1520   -4.4573    0.0000 H   0  0  0  0  0  0  0  0  0  0  0  0
    4.3460   -4.4573    0.0000 H   0  0  0  0  0  0  0  0  0  0  0  0
  1 29  1  0  0  0  0
  2 35  1  0  0  0  0
  3 35  1  0  0  0  0
  4 35  1  0  0  0  0
  5 37  1  0  0  0  0
  6 30  2  0  0  0  0
  7 12  1  0  0  0  0
  7 13  1  0  0  0  0
  7 16  1  0  0  0  0
  8 14  1  0  0  0  0
  8 15  1  0  0  0  0
  8 18  1  0  0  0  0
  9 11  1  0  0  0  0
  9 19  1  0  0  0  0
  9 20  1  0  0  0  0
 10 16  2  0  0  0  0
 10 21  1  0  0  0  0
 11 30  1  0  0  0  0
 11 52  1  0  0  0  0
 12 14  1  0  0  0  0
 12 38  1  0  0  0  0
 12 39  1  0  0  0  0
 13 15  1  0  0  0  0
 13 40  1  0  0  0  0
 13 41  1  0  0  0  0
 14 42  1  0  0  0  0
 14 43  1  0  0  0  0
 15 44  1  0  0  0  0
 15 45  1  0  0  0  0
 16 17  1  0  0  0  0
 17 19  1  0  0  0  0
 17 22  2  0  0  0  0
 18 46  1  0  0  0  0
 18 47  1  0  0  0  0
 18 48  1  0  0  0  0
 19 23  2  0  0  0  0
 20 21  2  0  0  0  0
 20 25  1  0  0  0  0
 21 26  1  0  0  0  0
 22 24  1  0  0  0  0
 22 49  1  0  0  0  0
 23 27  1  0  0  0  0
 23 50  1  0  0  0  0
 24 27  2  0  0  0  0
 24 51  1  0  0  0  0
 25 28  2  0  0  0  0
 25 53  1  0  0  0  0
 26 29  2  0  0  0  0
 26 54  1  0  0  0  0
 27 55  1  0  0  0  0
 28 29  1  0  0  0  0
 28 56  1  0  0  0  0
 30 31  1  0  0  0  0
 31 32  2  0  0  0  0
 31 33  1  0  0  0  0
 32 34  1  0  0  0  0
 32 35  1  0  0  0  0
 33 36  2  0  0  0  0
 33 57  1  0  0  0  0
 34 37  2  0  0  0  0
 34 58  1  0  0  0  0
 36 37  1  0  0  0  0
 36 59  1  0  0  0  0
M  END
> <PUBCHEM_COMPOUND_CID>
44415822

> <PUBCHEM_COMPOUND_CANONICALIZED>
1

> <PUBCHEM_CACTVS_COMPLEXITY>
851

> <PUBCHEM_CACTVS_HBOND_ACCEPTOR>
8

> <PUBCHEM_CACTVS_HBOND_DONOR>
1

> <PUBCHEM_CACTVS_ROTATABLE_BOND>
3

> <PUBCHEM_CACTVS_SUBSKEYS>
AAADceB7ocAEAAAAAAAAAAAAAAAAAAAAAAA8YMEABAAAAAABUAAAHwIYAAAADArBmDwzwINiAACoAidydACCBAElBwAbqAEodtgIYPLB35GUIQhggADIyYcYiICOgABAAAISACAAAIAABCQAQAAAAAAAAA==

> <PUBCHEM_IUPAC_OPENEYE_NAME>
N-[3-chloro-6-(4-methylpiperazin-1-yl)benzo[b][1,4]benzodiazepin-11-yl]-4-fluoro-2-(trifluoromethyl)benzamide

> <PUBCHEM_IUPAC_CAS_NAME>
N-[3-chloro-6-(4-methyl-1-piperazinyl)-11-benzo[b][1,4]benzodiazepinyl]-4-fluoro-2-(trifluoromethyl)benzamide

> <PUBCHEM_IUPAC_NAME_MARKUP>
<I>N</I>-[3-chloro-6-(4-methylpiperazin-1-yl)benzo[b][1,4]benzodiazepin-11-yl]-4-fluoro-2-(trifluoromethyl)benzamide

> <PUBCHEM_IUPAC_NAME>
N-[3-chloro-6-(4-methylpiperazin-1-yl)benzo[b][1,4]benzodiazepin-11-yl]-4-fluoro-2-(trifluoromethyl)benzamide

> <PUBCHEM_IUPAC_SYSTEMATIC_NAME>
N-[3-chloranyl-6-(4-methylpiperazin-1-yl)benzo[b][1,4]benzodiazepin-11-yl]-4-fluoranyl-2-(trifluoromethyl)benzamide

> <PUBCHEM_IUPAC_TRADITIONAL_NAME>
N-[3-chloro-6-(4-methylpiperazino)benzo[b][1,4]benzodiazepin-11-yl]-4-fluoro-2-(trifluoromethyl)benzamide

> <PUBCHEM_IUPAC_INCHI>
InChI=1S/C26H22ClF4N5O/c1-34-10-12-35(13-11-34)24-19-4-2-3-5-22(19)36(23-9-6-16(27)14-21(23)32-24)33-25(37)18-8-7-17(28)15-20(18)26(29,30)31/h2-9,14-15H,10-13H2,1H3,(H,33,37)

> <PUBCHEM_IUPAC_INCHIKEY>
QTKPSGBAONTGHB-UHFFFAOYSA-N

> <PUBCHEM_XLOGP3_AA>
5.4

> <PUBCHEM_EXACT_MASS>
531.1449007

> <PUBCHEM_MOLECULAR_FORMULA>
C26H22ClF4N5O

> <PUBCHEM_MOLECULAR_WEIGHT>
531.9

> <PUBCHEM_OPENEYE_CAN_SMILES>
CN1CCN(CC1)C2=NC3=C(C=CC(=C3)Cl)N(C4=CC=CC=C42)NC(=O)C5=C(C=C(C=C5)F)C(F)(F)F

> <PUBCHEM_OPENEYE_ISO_SMILES>
CN1CCN(CC1)C2=NC3=C(C=CC(=C3)Cl)N(C4=CC=CC=C42)NC(=O)C5=C(C=C(C=C5)F)C(F)(F)F

> <PUBCHEM_CACTVS_TPSA>
51.2

> <PUBCHEM_MONOISOTOPIC_WEIGHT>
531.1449007

> <PUBCHEM_TOTAL_CHARGE>
0

> <PUBCHEM_HEAVY_ATOM_COUNT>
37

> <PUBCHEM_ATOM_DEF_STEREO_COUNT>
0

> <PUBCHEM_ATOM_UDEF_STEREO_COUNT>
0

> <PUBCHEM_BOND_DEF_STEREO_COUNT>
0

> <PUBCHEM_BOND_UDEF_STEREO_COUNT>
0

> <PUBCHEM_ISOTOPIC_ATOM_COUNT>
0

> <PUBCHEM_COMPONENT_COUNT>
1

> <PUBCHEM_CACTVS_TAUTO_COUNT>
-1

> <PUBCHEM_COORDINATE_TYPE>
1
5
255

> <PUBCHEM_BONDANNOTATIONS>
17  19  8
17  22  8
19  23  8
20  21  8
20  25  8
21  26  8
22  24  8
23  27  8
24  27  8
25  28  8
26  29  8
28  29  8
31  32  8
31  33  8
32  34  8
33  36  8
34  37  8
36  37  8

$$$$
