10025040
  -OEChem-09292322032D

 65 69  0     1  0  0  0  0  0999 V2000
   12.4641    0.2604    0.0000 O   0  0  0  0  0  0  0  0  0  0  0  0
    6.3301   -0.2671    0.0000 N   0  0  0  0  0  0  0  0  0  0  0  0
   11.5923    1.7571    0.0000 N   0  0  0  0  0  0  0  0  0  0  0  0
    4.5981   -1.2671    0.0000 N   0  0  0  0  0  0  0  0  0  0  0  0
    3.7320   -2.7671    0.0000 N   0  0  0  0  0  0  0  0  0  0  0  0
    8.9282    0.2329    0.0000 C   0  0  2  0  0  0  0  0  0  0  0  0
    8.9282    1.2329    0.0000 C   0  0  2  0  0  0  0  0  0  0  0  0
    8.0622   -0.2671    0.0000 C   0  0  0  0  0  0  0  0  0  0  0  0
    7.1962    0.2329    0.0000 C   0  0  1  0  0  0  0  0  0  0  0  0
    8.0622    1.7329    0.0000 C   0  0  0  0  0  0  0  0  0  0  0  0
    9.8222    1.7676    0.0000 C   0  0  0  0  0  0  0  0  0  0  0  0
    9.8222   -0.3017    0.0000 C   0  0  0  0  0  0  0  0  0  0  0  0
    7.1962    1.2329    0.0000 C   0  0  0  0  0  0  0  0  0  0  0  0
   10.7282    1.2537    0.0000 C   0  0  1  0  0  0  0  0  0  0  0  0
   10.7282    0.2121    0.0000 C   0  0  0  0  0  0  0  0  0  0  0  0
    5.4641    0.2329    0.0000 C   0  0  0  0  0  0  0  0  0  0  0  0
    6.3301   -1.2671    0.0000 C   0  0  0  0  0  0  0  0  0  0  0  0
    4.5981   -0.2671    0.0000 C   0  0  0  0  0  0  0  0  0  0  0  0
    5.4641   -1.7671    0.0000 C   0  0  0  0  0  0  0  0  0  0  0  0
   12.4602    1.2604    0.0000 C   0  0  0  0  0  0  0  0  0  0  0  0
    3.7320   -1.7671    0.0000 C   0  0  0  0  0  0  0  0  0  0  0  0
   13.3243    1.7638    0.0000 C   0  0  0  0  0  0  0  0  0  0  0  0
    2.8660   -1.2671    0.0000 C   0  0  0  0  0  0  0  0  0  0  0  0
   14.1923    1.2671    0.0000 C   0  0  0  0  0  0  0  0  0  0  0  0
   13.3205    2.7637    0.0000 C   0  0  0  0  0  0  0  0  0  0  0  0
    2.0000   -1.7671    0.0000 C   0  0  0  0  0  0  0  0  0  0  0  0
    2.8660   -3.2671    0.0000 C   0  0  0  0  0  0  0  0  0  0  0  0
    2.0000   -2.7671    0.0000 C   0  0  0  0  0  0  0  0  0  0  0  0
   15.0564    1.7704    0.0000 C   0  0  0  0  0  0  0  0  0  0  0  0
   14.1846    3.2671    0.0000 C   0  0  0  0  0  0  0  0  0  0  0  0
   15.0525    2.7704    0.0000 C   0  0  0  0  0  0  0  0  0  0  0  0
    8.9216   -0.6171    0.0000 H   0  0  0  0  0  0  0  0  0  0  0  0
    8.9216    2.0829    0.0000 H   0  0  0  0  0  0  0  0  0  0  0  0
    7.6636   -0.7420    0.0000 H   0  0  0  0  0  0  0  0  0  0  0  0
    8.4607   -0.7420    0.0000 H   0  0  0  0  0  0  0  0  0  0  0  0
    6.6592    0.5429    0.0000 H   0  0  0  0  0  0  0  0  0  0  0  0
    8.4607    2.2079    0.0000 H   0  0  0  0  0  0  0  0  0  0  0  0
    7.6636    2.2079    0.0000 H   0  0  0  0  0  0  0  0  0  0  0  0
   10.2158    2.2466    0.0000 H   0  0  0  0  0  0  0  0  0  0  0  0
    9.4176    2.2374    0.0000 H   0  0  0  0  0  0  0  0  0  0  0  0
    9.4176   -0.7715    0.0000 H   0  0  0  0  0  0  0  0  0  0  0  0
   10.2158   -0.7808    0.0000 H   0  0  0  0  0  0  0  0  0  0  0  0
    6.9841    1.8155    0.0000 H   0  0  0  0  0  0  0  0  0  0  0  0
    6.5856    1.1253    0.0000 H   0  0  0  0  0  0  0  0  0  0  0  0
   10.7246    1.8737    0.0000 H   0  0  0  0  0  0  0  0  0  0  0  0
   10.9373   -0.3716    0.0000 H   0  0  0  0  0  0  0  0  0  0  0  0
   11.3391    0.3182    0.0000 H   0  0  0  0  0  0  0  0  0  0  0  0
    5.8626    0.7079    0.0000 H   0  0  0  0  0  0  0  0  0  0  0  0
    5.0656    0.7079    0.0000 H   0  0  0  0  0  0  0  0  0  0  0  0
    6.5422   -1.8497    0.0000 H   0  0  0  0  0  0  0  0  0  0  0  0
    6.9407   -1.1594    0.0000 H   0  0  0  0  0  0  0  0  0  0  0  0
   11.5899    2.3771    0.0000 H   0  0  0  0  0  0  0  0  0  0  0  0
    4.3860    0.3155    0.0000 H   0  0  0  0  0  0  0  0  0  0  0  0
    3.9875   -0.3747    0.0000 H   0  0  0  0  0  0  0  0  0  0  0  0
    5.0656   -2.2420    0.0000 H   0  0  0  0  0  0  0  0  0  0  0  0
    5.8626   -2.2420    0.0000 H   0  0  0  0  0  0  0  0  0  0  0  0
    2.8660   -0.6471    0.0000 H   0  0  0  0  0  0  0  0  0  0  0  0
   14.1947    0.6471    0.0000 H   0  0  0  0  0  0  0  0  0  0  0  0
   12.7824    3.0717    0.0000 H   0  0  0  0  0  0  0  0  0  0  0  0
    1.4631   -1.4571    0.0000 H   0  0  0  0  0  0  0  0  0  0  0  0
    2.8660   -3.8871    0.0000 H   0  0  0  0  0  0  0  0  0  0  0  0
    1.4631   -3.0771    0.0000 H   0  0  0  0  0  0  0  0  0  0  0  0
   15.5945    1.4625    0.0000 H   0  0  0  0  0  0  0  0  0  0  0  0
   14.1822    3.8871    0.0000 H   0  0  0  0  0  0  0  0  0  0  0  0
   15.5883    3.0825    0.0000 H   0  0  0  0  0  0  0  0  0  0  0  0
  1 20  2  0  0  0  0
  9  2  1  6  0  0  0
  2 16  1  0  0  0  0
  2 17  1  0  0  0  0
 14  3  1  6  0  0  0
  3 20  1  0  0  0  0
  3 52  1  0  0  0  0
  4 18  1  0  0  0  0
  4 19  1  0  0  0  0
  4 21  1  0  0  0  0
  5 21  1  0  0  0  0
  5 27  2  0  0  0  0
  6  7  1  0  0  0  0
  6  8  1  0  0  0  0
  6 12  1  0  0  0  0
  6 32  1  6  0  0  0
  7 10  1  0  0  0  0
  7 11  1  0  0  0  0
  7 33  1  1  0  0  0
  8  9  1  0  0  0  0
  8 34  1  0  0  0  0
  8 35  1  0  0  0  0
  9 13  1  0  0  0  0
  9 36  1  0  0  0  0
 10 13  1  0  0  0  0
 10 37  1  0  0  0  0
 10 38  1  0  0  0  0
 11 14  1  0  0  0  0
 11 39  1  0  0  0  0
 11 40  1  0  0  0  0
 12 15  1  0  0  0  0
 12 41  1  0  0  0  0
 12 42  1  0  0  0  0
 13 43  1  0  0  0  0
 13 44  1  0  0  0  0
 14 15  1  0  0  0  0
 14 45  1  0  0  0  0
 15 46  1  0  0  0  0
 15 47  1  0  0  0  0
 16 18  1  0  0  0  0
 16 48  1  0  0  0  0
 16 49  1  0  0  0  0
 17 19  1  0  0  0  0
 17 50  1  0  0  0  0
 17 51  1  0  0  0  0
 18 53  1  0  0  0  0
 18 54  1  0  0  0  0
 19 55  1  0  0  0  0
 19 56  1  0  0  0  0
 20 22  1  0  0  0  0
 21 23  2  0  0  0  0
 22 24  2  0  0  0  0
 22 25  1  0  0  0  0
 23 26  1  0  0  0  0
 23 57  1  0  0  0  0
 24 29  1  0  0  0  0
 24 58  1  0  0  0  0
 25 30  2  0  0  0  0
 25 59  1  0  0  0  0
 26 28  2  0  0  0  0
 26 60  1  0  0  0  0
 27 28  1  0  0  0  0
 27 61  1  0  0  0  0
 28 62  1  0  0  0  0
 29 31  2  0  0  0  0
 29 63  1  0  0  0  0
 30 31  1  0  0  0  0
 30 64  1  0  0  0  0
 31 65  1  0  0  0  0
M  END
> <PUBCHEM_COMPOUND_CID>
10025040

> <PUBCHEM_COMPOUND_CANONICALIZED>
1

> <PUBCHEM_CACTVS_COMPLEXITY>
584

> <PUBCHEM_CACTVS_HBOND_ACCEPTOR>
4

> <PUBCHEM_CACTVS_HBOND_DONOR>
1

> <PUBCHEM_CACTVS_ROTATABLE_BOND>
4

> <PUBCHEM_CACTVS_SUBSKEYS>
AAADcfB7oAAAAAAAAAAAAAAAAAAAAAAAAAA8eMECAAAAAADBwAAAHgAQAAAADSjBmgQ9sJPIEACoAjN3dACCgCk1AiAJ2KE4ZNiIYPLAnZGUIQholgLIyacYiICOgAAAAAAAAAAQAACAACAAAAAAAAAAAA==

> <PUBCHEM_IUPAC_OPENEYE_NAME>
N-[(2R,4aS,6R,8aR)-6-[4-(2-pyridyl)piperazin-1-yl]decalin-2-yl]benzamide

> <PUBCHEM_IUPAC_CAS_NAME>
N-[(2R,4aS,6R,8aR)-6-[4-(2-pyridinyl)-1-piperazinyl]-1,2,3,4,4a,5,6,7,8,8a-decahydronaphthalen-2-yl]benzamide

> <PUBCHEM_IUPAC_NAME_MARKUP>
<I>N</I>-[(2<I>R</I>,4<I>a</I><I>S</I>,6<I>R</I>,8<I>a</I><I>R</I>)-6-(4-pyridin-2-ylpiperazin-1-yl)-1,2,3,4,4<I>a</I>,5,6,7,8,8<I>a</I>-decahydronaphthalen-2-yl]benzamide

> <PUBCHEM_IUPAC_NAME>
N-[(2R,4aS,6R,8aR)-6-(4-pyridin-2-ylpiperazin-1-yl)-1,2,3,4,4a,5,6,7,8,8a-decahydronaphthalen-2-yl]benzamide

> <PUBCHEM_IUPAC_SYSTEMATIC_NAME>
N-[(2R,4aS,6R,8aR)-6-(4-pyridin-2-ylpiperazin-1-yl)-1,2,3,4,4a,5,6,7,8,8a-decahydronaphthalen-2-yl]benzamide

> <PUBCHEM_IUPAC_TRADITIONAL_NAME>
N-[(2R,4aS,6R,8aR)-6-[4-(2-pyridyl)piperazino]decalin-2-yl]benzamide

> <PUBCHEM_IUPAC_INCHI>
InChI=1S/C26H34N4O/c31-26(20-6-2-1-3-7-20)28-23-11-9-22-19-24(12-10-21(22)18-23)29-14-16-30(17-15-29)25-8-4-5-13-27-25/h1-8,13,21-24H,9-12,14-19H2,(H,28,31)/t21-,22+,23-,24-/m1/s1

> <PUBCHEM_IUPAC_INCHIKEY>
OVQXIVRARLGKOO-UEQSERJNSA-N

> <PUBCHEM_XLOGP3_AA>
4.4

> <PUBCHEM_EXACT_MASS>
418.27326172

> <PUBCHEM_MOLECULAR_FORMULA>
C26H34N4O

> <PUBCHEM_MOLECULAR_WEIGHT>
418.6

> <PUBCHEM_OPENEYE_CAN_SMILES>
C1CC(CC2C1CC(CC2)N3CCN(CC3)C4=CC=CC=N4)NC(=O)C5=CC=CC=C5

> <PUBCHEM_OPENEYE_ISO_SMILES>
C1C[C@H](C[C@@H]2[C@@H]1C[C@@H](CC2)N3CCN(CC3)C4=CC=CC=N4)NC(=O)C5=CC=CC=C5

> <PUBCHEM_CACTVS_TPSA>
48.5

> <PUBCHEM_MONOISOTOPIC_WEIGHT>
418.27326172

> <PUBCHEM_TOTAL_CHARGE>
0

> <PUBCHEM_HEAVY_ATOM_COUNT>
31

> <PUBCHEM_ATOM_DEF_STEREO_COUNT>
4

> <PUBCHEM_ATOM_UDEF_STEREO_COUNT>
0

> <PUBCHEM_BOND_DEF_STEREO_COUNT>
0

> <PUBCHEM_BOND_UDEF_STEREO_COUNT>
0

> <PUBCHEM_ISOTOPIC_ATOM_COUNT>
0

> <PUBCHEM_COMPONENT_COUNT>
1

> <PUBCHEM_CACTVS_TAUTO_COUNT>
-1

> <PUBCHEM_COORDINATE_TYPE>
1
5
255

> <PUBCHEM_BONDANNOTATIONS>
9  2  6
21  23  8
22  24  8
22  25  8
23  26  8
24  29  8
25  30  8
26  28  8
27  28  8
29  31  8
14  3  6
30  31  8
5  21  8
5  27  8
6  32  6
7  33  5

$$$$
