44454168
  -OEChem-09292322492D

 57 61  0     1  0  0  0  0  0999 V2000
    5.1114    1.8834    0.0000 S   0  0  0  0  0  0  0  0  0  0  0  0
    2.0000   -5.3603    0.0000 O   0  0  0  0  0  0  0  0  0  0  0  0
    6.5864    5.9958    0.0000 O   0  0  0  0  0  0  0  0  0  0  0  0
    5.1114   -1.5807    0.0000 N   0  0  3  0  0  0  0  0  0  0  0  0
    2.4051   -6.2680    0.0000 N   0  0  0  0  0  0  0  0  0  0  0  0
    5.2046    3.6630    0.0000 N   0  0  0  0  0  0  0  0  0  0  0  0
    6.6059    2.8540    0.0000 N   0  0  0  0  0  0  0  0  0  0  0  0
    6.8138    3.8321    0.0000 N   0  0  0  0  0  0  0  0  0  0  0  0
    5.1851    6.8048    0.0000 N   0  0  0  0  0  0  0  0  0  0  0  0
    5.6649   -2.3903    0.0000 C   0  0  0  0  0  0  0  0  0  0  0  0
    4.1334   -1.5061    0.0000 C   0  0  0  0  0  0  0  0  0  0  0  0
    5.3796   -3.3287    0.0000 C   0  0  0  0  0  0  0  0  0  0  0  0
    3.4634   -2.2224    0.0000 C   0  0  0  0  0  0  0  0  0  0  0  0
    4.4691   -3.6932    0.0000 C   0  0  0  0  0  0  0  0  0  0  0  0
    3.6030   -3.1932    0.0000 C   0  0  0  0  0  0  0  0  0  0  0  0
    5.6114   -0.7147    0.0000 C   0  0  0  0  0  0  0  0  0  0  0  0
    5.1114    0.1513    0.0000 C   0  0  0  0  0  0  0  0  0  0  0  0
    4.4691   -4.6932    0.0000 C   0  0  0  0  0  0  0  0  0  0  0  0
    2.7370   -3.6932    0.0000 C   0  0  0  0  0  0  0  0  0  0  0  0
    3.6030   -5.1932    0.0000 C   0  0  0  0  0  0  0  0  0  0  0  0
    2.7370   -4.6932    0.0000 C   0  0  0  0  0  0  0  0  0  0  0  0
    5.6114    1.0174    0.0000 C   0  0  0  0  0  0  0  0  0  0  0  0
    3.3938   -6.1650    0.0000 C   0  0  0  0  0  0  0  0  0  0  0  0
    4.0617   -6.9093    0.0000 C   0  0  0  0  0  0  0  0  0  0  0  0
    5.6114    2.7494    0.0000 C   0  0  0  0  0  0  0  0  0  0  0  0
    5.9478    4.3321    0.0000 C   0  0  0  0  0  0  0  0  0  0  0  0
    4.2265    3.8709    0.0000 C   0  0  0  0  0  0  0  0  0  0  0  0
    5.8432    5.3266    0.0000 C   0  0  0  0  0  0  0  0  0  0  0  0
    4.9772    5.8266    0.0000 C   0  0  0  0  0  0  0  0  0  0  0  0
    4.0637    5.4199    0.0000 C   0  0  0  0  0  0  0  0  0  0  0  0
    6.1796    6.9093    0.0000 C   0  0  0  0  0  0  0  0  0  0  0  0
    6.2028   -2.6987    0.0000 H   0  0  0  0  0  0  0  0  0  0  0  0
    6.0856   -1.9349    0.0000 H   0  0  0  0  0  0  0  0  0  0  0  0
    4.3175   -0.9141    0.0000 H   0  0  0  0  0  0  0  0  0  0  0  0
    3.5974   -1.1944    0.0000 H   0  0  0  0  0  0  0  0  0  0  0  0
    5.4756   -3.9412    0.0000 H   0  0  0  0  0  0  0  0  0  0  0  0
    5.9981   -3.3720    0.0000 H   0  0  0  0  0  0  0  0  0  0  0  0
    3.1167   -1.7084    0.0000 H   0  0  0  0  0  0  0  0  0  0  0  0
    2.8849   -2.4455    0.0000 H   0  0  0  0  0  0  0  0  0  0  0  0
    6.0863   -1.1132    0.0000 H   0  0  0  0  0  0  0  0  0  0  0  0
    6.0863   -0.3162    0.0000 H   0  0  0  0  0  0  0  0  0  0  0  0
    4.6364    0.5499    0.0000 H   0  0  0  0  0  0  0  0  0  0  0  0
    4.6364   -0.2472    0.0000 H   0  0  0  0  0  0  0  0  0  0  0  0
    5.0060   -5.0032    0.0000 H   0  0  0  0  0  0  0  0  0  0  0  0
    2.2001   -3.3832    0.0000 H   0  0  0  0  0  0  0  0  0  0  0  0
    6.0863    0.6188    0.0000 H   0  0  0  0  0  0  0  0  0  0  0  0
    6.0863    1.4159    0.0000 H   0  0  0  0  0  0  0  0  0  0  0  0
    3.6002   -7.3234    0.0000 H   0  0  0  0  0  0  0  0  0  0  0  0
    4.4757   -7.3708    0.0000 H   0  0  0  0  0  0  0  0  0  0  0  0
    4.5232   -6.4952    0.0000 H   0  0  0  0  0  0  0  0  0  0  0  0
    4.3554    4.4773    0.0000 H   0  0  0  0  0  0  0  0  0  0  0  0
    3.6200    3.9998    0.0000 H   0  0  0  0  0  0  0  0  0  0  0  0
    4.0976    3.2644    0.0000 H   0  0  0  0  0  0  0  0  0  0  0  0
    3.8115    5.9863    0.0000 H   0  0  0  0  0  0  0  0  0  0  0  0
    3.4973    5.1677    0.0000 H   0  0  0  0  0  0  0  0  0  0  0  0
    4.3158    4.8535    0.0000 H   0  0  0  0  0  0  0  0  0  0  0  0
    6.4896    7.4462    0.0000 H   0  0  0  0  0  0  0  0  0  0  0  0
  1 22  1  0  0  0  0
  1 25  1  0  0  0  0
  2  5  1  0  0  0  0
  2 21  1  0  0  0  0
  3 28  1  0  0  0  0
  3 31  1  0  0  0  0
  4 10  1  0  0  0  0
  4 11  1  0  0  0  0
  4 16  1  0  0  0  0
  5 23  2  0  0  0  0
  6 25  1  0  0  0  0
  6 26  1  0  0  0  0
  6 27  1  0  0  0  0
  7  8  1  0  0  0  0
  7 25  2  0  0  0  0
  8 26  2  0  0  0  0
  9 29  1  0  0  0  0
  9 31  2  0  0  0  0
 10 12  1  0  0  0  0
 10 32  1  0  0  0  0
 10 33  1  0  0  0  0
 11 13  1  0  0  0  0
 11 34  1  0  0  0  0
 11 35  1  0  0  0  0
 12 14  1  0  0  0  0
 12 36  1  0  0  0  0
 12 37  1  0  0  0  0
 13 15  1  0  0  0  0
 13 38  1  0  0  0  0
 13 39  1  0  0  0  0
 14 15  1  0  0  0  0
 14 18  2  0  0  0  0
 15 19  2  0  0  0  0
 16 17  1  0  0  0  0
 16 40  1  0  0  0  0
 16 41  1  0  0  0  0
 17 22  1  0  0  0  0
 17 42  1  0  0  0  0
 17 43  1  0  0  0  0
 18 20  1  0  0  0  0
 18 44  1  0  0  0  0
 19 21  1  0  0  0  0
 19 45  1  0  0  0  0
 20 21  2  0  0  0  0
 20 23  1  0  0  0  0
 22 46  1  0  0  0  0
 22 47  1  0  0  0  0
 23 24  1  0  0  0  0
 24 48  1  0  0  0  0
 24 49  1  0  0  0  0
 24 50  1  0  0  0  0
 26 28  1  0  0  0  0
 27 51  1  0  0  0  0
 27 52  1  0  0  0  0
 27 53  1  0  0  0  0
 28 29  2  0  0  0  0
 29 30  1  0  0  0  0
 30 54  1  0  0  0  0
 30 55  1  0  0  0  0
 30 56  1  0  0  0  0
 31 57  1  0  0  0  0
M  END
> <PUBCHEM_COMPOUND_CID>
44454168

> <PUBCHEM_COMPOUND_CANONICALIZED>
1

> <PUBCHEM_CACTVS_COMPLEXITY>
602

> <PUBCHEM_CACTVS_HBOND_ACCEPTOR>
8

> <PUBCHEM_CACTVS_HBOND_DONOR>
0

> <PUBCHEM_CACTVS_ROTATABLE_BOND>
6

> <PUBCHEM_CACTVS_SUBSKEYS>
AAADceB7sABAAAAAAAAAAAAAAAAAAWLFgAAwAAAABYAAAFgB/gAAHgQMAAAADAzF3wa3ltccFEirA6Zz9gSS2Ct/YLA12CG/TNqOLrrk3bONMahmzBvYyceY2fKO4AADAAAYAADAAAYAADAAAAAAAAAAAA==

> <PUBCHEM_IUPAC_OPENEYE_NAME>
3-methyl-7-[3-[[4-methyl-5-(4-methyloxazol-5-yl)-1,2,4-triazol-3-yl]sulfanyl]propyl]-5,6,8,9-tetrahydroisoxazolo[5,4-h][3]benzazepine

> <PUBCHEM_IUPAC_CAS_NAME>
3-methyl-7-[3-[[4-methyl-5-(4-methyl-5-oxazolyl)-1,2,4-triazol-3-yl]thio]propyl]-5,6,8,9-tetrahydroisoxazolo[5,4-h][3]benzazepine

> <PUBCHEM_IUPAC_NAME_MARKUP>
3-methyl-7-[3-[[4-methyl-5-(4-methyl-1,3-oxazol-5-yl)-1,2,4-triazol-3-yl]sulfanyl]propyl]-5,6,8,9-tetrahydro-[1,2]oxazolo[5,4-h][3]benzazepine

> <PUBCHEM_IUPAC_NAME>
3-methyl-7-[3-[[4-methyl-5-(4-methyl-1,3-oxazol-5-yl)-1,2,4-triazol-3-yl]sulfanyl]propyl]-5,6,8,9-tetrahydro-[1,2]oxazolo[5,4-h][3]benzazepine

> <PUBCHEM_IUPAC_SYSTEMATIC_NAME>
3-methyl-7-[3-[[4-methyl-5-(4-methyl-1,3-oxazol-5-yl)-1,2,4-triazol-3-yl]sulfanyl]propyl]-5,6,8,9-tetrahydro-[1,2]oxazolo[5,4-h][3]benzazepine

> <PUBCHEM_IUPAC_TRADITIONAL_NAME>
3-methyl-7-[3-[[4-methyl-5-(4-methyloxazol-5-yl)-1,2,4-triazol-3-yl]thio]propyl]-5,6,8,9-tetrahydroisoxazolo[5,4-h][3]benzazepine

> <PUBCHEM_IUPAC_INCHI>
InChI=1S/C22H26N6O2S/c1-14-18-11-16-5-8-28(9-6-17(16)12-19(18)30-26-14)7-4-10-31-22-25-24-21(27(22)3)20-15(2)23-13-29-20/h11-13H,4-10H2,1-3H3

> <PUBCHEM_IUPAC_INCHIKEY>
VPCYWMAVRBKXBM-UHFFFAOYSA-N

> <PUBCHEM_XLOGP3_AA>
3.4

> <PUBCHEM_EXACT_MASS>
438.18379527

> <PUBCHEM_MOLECULAR_FORMULA>
C22H26N6O2S

> <PUBCHEM_MOLECULAR_WEIGHT>
438.5

> <PUBCHEM_OPENEYE_CAN_SMILES>
CC1=C(OC=N1)C2=NN=C(N2C)SCCCN3CCC4=CC5=C(C=C4CC3)ON=C5C

> <PUBCHEM_OPENEYE_ISO_SMILES>
CC1=C(OC=N1)C2=NN=C(N2C)SCCCN3CCC4=CC5=C(C=C4CC3)ON=C5C

> <PUBCHEM_CACTVS_TPSA>
111

> <PUBCHEM_MONOISOTOPIC_WEIGHT>
438.18379527

> <PUBCHEM_TOTAL_CHARGE>
0

> <PUBCHEM_HEAVY_ATOM_COUNT>
31

> <PUBCHEM_ATOM_DEF_STEREO_COUNT>
0

> <PUBCHEM_ATOM_UDEF_STEREO_COUNT>
0

> <PUBCHEM_BOND_DEF_STEREO_COUNT>
0

> <PUBCHEM_BOND_UDEF_STEREO_COUNT>
0

> <PUBCHEM_ISOTOPIC_ATOM_COUNT>
0

> <PUBCHEM_COMPONENT_COUNT>
1

> <PUBCHEM_CACTVS_TAUTO_COUNT>
-1

> <PUBCHEM_COORDINATE_TYPE>
1
5
255

> <PUBCHEM_BONDANNOTATIONS>
14  15  8
14  18  8
15  19  8
18  20  8
19  21  8
2  21  8
2  5  8
20  21  8
20  23  8
28  29  8
3  28  8
3  31  8
5  23  8
6  25  8
6  26  8
7  25  8
7  8  8
8  26  8
9  29  8
9  31  8

$$$$
