127047859
  -OEChem-09292322002D

 67 70  0     0  0  0  0  0  0999 V2000
   12.4202   -3.5603    0.0000 O   0  0  0  0  0  0  0  0  0  0  0  0
    5.4641    2.4050    0.0000 O   0  0  0  0  0  0  0  0  0  0  0  0
   10.6603   -6.5950    0.0000 O   0  0  0  0  0  0  0  0  0  0  0  0
    5.4641    0.4050    0.0000 O   0  0  0  0  0  0  0  0  0  0  0  0
   14.1904   -5.6192    0.0000 O   0  0  0  0  0  0  0  0  0  0  0  0
    9.7942   -1.0950    0.0000 N   0  0  0  0  0  0  0  0  0  0  0  0
   12.4202   -5.6297    0.0000 N   0  0  0  0  0  0  0  0  0  0  0  0
   10.6603   -2.5950    0.0000 C   0  0  0  0  0  0  0  0  0  0  0  0
    9.7942   -2.0950    0.0000 C   0  0  0  0  0  0  0  0  0  0  0  0
   10.6603   -3.5950    0.0000 C   0  0  0  0  0  0  0  0  0  0  0  0
    8.9282   -0.5950    0.0000 C   0  0  0  0  0  0  0  0  0  0  0  0
    8.9282    0.4050    0.0000 C   0  0  0  0  0  0  0  0  0  0  0  0
   11.5263   -4.0950    0.0000 C   0  0  0  0  0  0  0  0  0  0  0  0
    8.0622    0.9050    0.0000 C   0  0  0  0  0  0  0  0  0  0  0  0
   11.5263   -5.0950    0.0000 C   0  0  0  0  0  0  0  0  0  0  0  0
    9.7942   -4.0950    0.0000 C   0  0  0  0  0  0  0  0  0  0  0  0
   10.6603   -5.5950    0.0000 C   0  0  0  0  0  0  0  0  0  0  0  0
    9.7942   -5.0950    0.0000 C   0  0  0  0  0  0  0  0  0  0  0  0
    7.1962    0.4050    0.0000 C   0  0  0  0  0  0  0  0  0  0  0  0
    4.5981    3.9050    0.0000 C   0  0  0  0  0  0  0  0  0  0  0  0
    8.0622    1.9050    0.0000 C   0  0  0  0  0  0  0  0  0  0  0  0
   13.3263   -4.0742    0.0000 C   0  0  0  0  0  0  0  0  0  0  0  0
    6.3301    1.9050    0.0000 C   0  0  0  0  0  0  0  0  0  0  0  0
    4.5981    4.9050    0.0000 C   0  0  0  0  0  0  0  0  0  0  0  0
    5.4641    3.4050    0.0000 C   0  0  0  0  0  0  0  0  0  0  0  0
    6.3301    0.9050    0.0000 C   0  0  0  0  0  0  0  0  0  0  0  0
    7.1962    2.4050    0.0000 C   0  0  0  0  0  0  0  0  0  0  0  0
   13.3263   -5.1158    0.0000 C   0  0  0  0  0  0  0  0  0  0  0  0
    3.7320    5.4050    0.0000 C   0  0  0  0  0  0  0  0  0  0  0  0
    3.7320    6.4050    0.0000 C   0  0  0  0  0  0  0  0  0  0  0  0
    2.8660    4.9050    0.0000 C   0  0  0  0  0  0  0  0  0  0  0  0
    2.8660    6.9050    0.0000 C   0  0  0  0  0  0  0  0  0  0  0  0
    2.0000    5.4050    0.0000 C   0  0  0  0  0  0  0  0  0  0  0  0
    2.0000    6.4050    0.0000 C   0  0  0  0  0  0  0  0  0  0  0  0
    5.4641   -0.5950    0.0000 C   0  0  0  0  0  0  0  0  0  0  0  0
   11.2708   -2.7027    0.0000 H   0  0  0  0  0  0  0  0  0  0  0  0
   10.8723   -2.0124    0.0000 H   0  0  0  0  0  0  0  0  0  0  0  0
    9.1836   -1.9873    0.0000 H   0  0  0  0  0  0  0  0  0  0  0  0
    9.5822   -2.6776    0.0000 H   0  0  0  0  0  0  0  0  0  0  0  0
    8.3176   -0.4873    0.0000 H   0  0  0  0  0  0  0  0  0  0  0  0
    8.7162   -1.1776    0.0000 H   0  0  0  0  0  0  0  0  0  0  0  0
    9.5388    0.2973    0.0000 H   0  0  0  0  0  0  0  0  0  0  0  0
    9.1403    0.9876    0.0000 H   0  0  0  0  0  0  0  0  0  0  0  0
   10.3312   -0.7850    0.0000 H   0  0  0  0  0  0  0  0  0  0  0  0
    9.2573   -3.7850    0.0000 H   0  0  0  0  0  0  0  0  0  0  0  0
    9.2573   -5.4050    0.0000 H   0  0  0  0  0  0  0  0  0  0  0  0
    7.1962   -0.2150    0.0000 H   0  0  0  0  0  0  0  0  0  0  0  0
    3.9875    4.0127    0.0000 H   0  0  0  0  0  0  0  0  0  0  0  0
    4.3860    3.3224    0.0000 H   0  0  0  0  0  0  0  0  0  0  0  0
    8.5991    2.2150    0.0000 H   0  0  0  0  0  0  0  0  0  0  0  0
   12.4131   -6.2496    0.0000 H   0  0  0  0  0  0  0  0  0  0  0  0
   13.9371   -4.1803    0.0000 H   0  0  0  0  0  0  0  0  0  0  0  0
   13.5353   -3.4905    0.0000 H   0  0  0  0  0  0  0  0  0  0  0  0
    5.2087    4.7973    0.0000 H   0  0  0  0  0  0  0  0  0  0  0  0
    4.8101    5.4876    0.0000 H   0  0  0  0  0  0  0  0  0  0  0  0
    6.0747    3.2973    0.0000 H   0  0  0  0  0  0  0  0  0  0  0  0
    5.6762    3.9876    0.0000 H   0  0  0  0  0  0  0  0  0  0  0  0
    7.1962    3.0250    0.0000 H   0  0  0  0  0  0  0  0  0  0  0  0
    4.2690    6.7150    0.0000 H   0  0  0  0  0  0  0  0  0  0  0  0
    2.8660    4.2850    0.0000 H   0  0  0  0  0  0  0  0  0  0  0  0
   10.1233   -6.9050    0.0000 H   0  0  0  0  0  0  0  0  0  0  0  0
    2.8660    7.5250    0.0000 H   0  0  0  0  0  0  0  0  0  0  0  0
    1.4631    5.0950    0.0000 H   0  0  0  0  0  0  0  0  0  0  0  0
    1.4631    6.7150    0.0000 H   0  0  0  0  0  0  0  0  0  0  0  0
    4.8441   -0.5950    0.0000 H   0  0  0  0  0  0  0  0  0  0  0  0
    5.4641   -1.2150    0.0000 H   0  0  0  0  0  0  0  0  0  0  0  0
    6.0841   -0.5950    0.0000 H   0  0  0  0  0  0  0  0  0  0  0  0
  1 13  1  0  0  0  0
  1 22  1  0  0  0  0
  2 23  1  0  0  0  0
  2 25  1  0  0  0  0
  3 17  1  0  0  0  0
  3 61  1  0  0  0  0
  4 26  1  0  0  0  0
  4 35  1  0  0  0  0
  5 28  2  0  0  0  0
  6  9  1  0  0  0  0
  6 11  1  0  0  0  0
  6 44  1  0  0  0  0
  7 15  1  0  0  0  0
  7 28  1  0  0  0  0
  7 51  1  0  0  0  0
  8  9  1  0  0  0  0
  8 10  1  0  0  0  0
  8 36  1  0  0  0  0
  8 37  1  0  0  0  0
  9 38  1  0  0  0  0
  9 39  1  0  0  0  0
 10 13  2  0  0  0  0
 10 16  1  0  0  0  0
 11 12  1  0  0  0  0
 11 40  1  0  0  0  0
 11 41  1  0  0  0  0
 12 14  1  0  0  0  0
 12 42  1  0  0  0  0
 12 43  1  0  0  0  0
 13 15  1  0  0  0  0
 14 19  2  0  0  0  0
 14 21  1  0  0  0  0
 15 17  2  0  0  0  0
 16 18  2  0  0  0  0
 16 45  1  0  0  0  0
 17 18  1  0  0  0  0
 18 46  1  0  0  0  0
 19 26  1  0  0  0  0
 19 47  1  0  0  0  0
 20 24  1  0  0  0  0
 20 25  1  0  0  0  0
 20 48  1  0  0  0  0
 20 49  1  0  0  0  0
 21 27  2  0  0  0  0
 21 50  1  0  0  0  0
 22 28  1  0  0  0  0
 22 52  1  0  0  0  0
 22 53  1  0  0  0  0
 23 26  2  0  0  0  0
 23 27  1  0  0  0  0
 24 29  1  0  0  0  0
 24 54  1  0  0  0  0
 24 55  1  0  0  0  0
 25 56  1  0  0  0  0
 25 57  1  0  0  0  0
 27 58  1  0  0  0  0
 29 30  2  0  0  0  0
 29 31  1  0  0  0  0
 30 32  1  0  0  0  0
 30 59  1  0  0  0  0
 31 33  2  0  0  0  0
 31 60  1  0  0  0  0
 32 34  2  0  0  0  0
 32 62  1  0  0  0  0
 33 34  1  0  0  0  0
 33 63  1  0  0  0  0
 34 64  1  0  0  0  0
 35 65  1  0  0  0  0
 35 66  1  0  0  0  0
 35 67  1  0  0  0  0
M  END
> <PUBCHEM_COMPOUND_CID>
127047859

> <PUBCHEM_COMPOUND_CANONICALIZED>
1

> <PUBCHEM_CACTVS_COMPLEXITY>
629

> <PUBCHEM_CACTVS_HBOND_ACCEPTOR>
6

> <PUBCHEM_CACTVS_HBOND_DONOR>
3

> <PUBCHEM_CACTVS_ROTATABLE_BOND>
12

> <PUBCHEM_CACTVS_SUBSKEYS>
AAADcfB7OAAAAAAAAAAAAAAAAAAAAAAAAAA8YMEAAAAAAACxUAAAHgAQCAAADAzhmAYyxoLABgCIAiVSUAKCCAAhIAAIiIBPzIgPJyLWsZ+HeCrl1BXa+Aew8L4OIAABSAAIUABAAAKQABCgAAAAAAAAAA==

> <PUBCHEM_IUPAC_OPENEYE_NAME>
5-hydroxy-8-[2-[2-[3-methoxy-4-(3-phenylpropoxy)phenyl]ethylamino]ethyl]-4H-1,4-benzoxazin-3-one

> <PUBCHEM_IUPAC_CAS_NAME>
5-hydroxy-8-[2-[2-[3-methoxy-4-(3-phenylpropoxy)phenyl]ethylamino]ethyl]-4H-1,4-benzoxazin-3-one

> <PUBCHEM_IUPAC_NAME_MARKUP>
5-hydroxy-8-[2-[2-[3-methoxy-4-(3-phenylpropoxy)phenyl]ethylamino]ethyl]-4<I>H</I>-1,4-benzoxazin-3-one

> <PUBCHEM_IUPAC_NAME>
5-hydroxy-8-[2-[2-[3-methoxy-4-(3-phenylpropoxy)phenyl]ethylamino]ethyl]-4H-1,4-benzoxazin-3-one

> <PUBCHEM_IUPAC_SYSTEMATIC_NAME>
8-[2-[2-[3-methoxy-4-(3-phenylpropoxy)phenyl]ethylamino]ethyl]-5-oxidanyl-4H-1,4-benzoxazin-3-one

> <PUBCHEM_IUPAC_TRADITIONAL_NAME>
5-hydroxy-8-[2-[2-[3-methoxy-4-(3-phenylpropoxy)phenyl]ethylamino]ethyl]-4H-1,4-benzoxazin-3-one

> <PUBCHEM_IUPAC_INCHI>
InChI=1S/C28H32N2O5/c1-33-25-18-21(9-12-24(25)34-17-5-8-20-6-3-2-4-7-20)13-15-29-16-14-22-10-11-23(31)27-28(22)35-19-26(32)30-27/h2-4,6-7,9-12,18,29,31H,5,8,13-17,19H2,1H3,(H,30,32)

> <PUBCHEM_IUPAC_INCHIKEY>
XFQRGEPJIICUBL-UHFFFAOYSA-N

> <PUBCHEM_XLOGP3_AA>
4.6

> <PUBCHEM_EXACT_MASS>
476.23112213

> <PUBCHEM_MOLECULAR_FORMULA>
C28H32N2O5

> <PUBCHEM_MOLECULAR_WEIGHT>
476.6

> <PUBCHEM_OPENEYE_CAN_SMILES>
COC1=C(C=CC(=C1)CCNCCC2=C3C(=C(C=C2)O)NC(=O)CO3)OCCCC4=CC=CC=C4

> <PUBCHEM_OPENEYE_ISO_SMILES>
COC1=C(C=CC(=C1)CCNCCC2=C3C(=C(C=C2)O)NC(=O)CO3)OCCCC4=CC=CC=C4

> <PUBCHEM_CACTVS_TPSA>
89

> <PUBCHEM_MONOISOTOPIC_WEIGHT>
476.23112213

> <PUBCHEM_TOTAL_CHARGE>
0

> <PUBCHEM_HEAVY_ATOM_COUNT>
35

> <PUBCHEM_ATOM_DEF_STEREO_COUNT>
0

> <PUBCHEM_ATOM_UDEF_STEREO_COUNT>
0

> <PUBCHEM_BOND_DEF_STEREO_COUNT>
0

> <PUBCHEM_BOND_UDEF_STEREO_COUNT>
0

> <PUBCHEM_ISOTOPIC_ATOM_COUNT>
0

> <PUBCHEM_COMPONENT_COUNT>
1

> <PUBCHEM_CACTVS_TAUTO_COUNT>
-1

> <PUBCHEM_COORDINATE_TYPE>
1
5
255

> <PUBCHEM_BONDANNOTATIONS>
10  13  8
10  16  8
13  15  8
14  19  8
14  21  8
15  17  8
16  18  8
17  18  8
19  26  8
21  27  8
23  26  8
23  27  8
29  30  8
29  31  8
30  32  8
31  33  8
32  34  8
33  34  8

$$$$
