44431553
  -OEChem-09292322242D

 70 73  0     0  0  0  0  0  0999 V2000
    4.5981   -1.0670    0.0000 S   0  0  0  0  0  0  0  0  0  0  0  0
    2.0000   -4.5670    0.0000 F   0  0  0  0  0  0  0  0  0  0  0  0
    3.3660   -4.9330    0.0000 F   0  0  0  0  0  0  0  0  0  0  0  0
    2.3660   -3.2010    0.0000 F   0  0  0  0  0  0  0  0  0  0  0  0
    5.5981   -1.0670    0.0000 O   0  0  0  0  0  0  0  0  0  0  0  0
    3.5981   -1.0670    0.0000 O   0  0  0  0  0  0  0  0  0  0  0  0
   11.5263    1.9330    0.0000 O   0  0  0  0  0  0  0  0  0  0  0  0
    8.0622    1.9330    0.0000 N   0  0  0  0  0  0  0  0  0  0  0  0
    9.7942    2.9330    0.0000 N   0  0  0  0  0  0  0  0  0  0  0  0
    4.5981   -0.0670    0.0000 N   0  0  0  0  0  0  0  0  0  0  0  0
    7.1962    1.4330    0.0000 C   0  0  0  0  0  0  0  0  0  0  0  0
    6.3301    1.9330    0.0000 C   0  0  0  0  0  0  0  0  0  0  0  0
    7.1962    0.4330    0.0000 C   0  0  0  0  0  0  0  0  0  0  0  0
    5.4641    0.4330    0.0000 C   0  0  0  0  0  0  0  0  0  0  0  0
    5.4641    1.4330    0.0000 C   0  0  0  0  0  0  0  0  0  0  0  0
    6.3301   -0.0670    0.0000 C   0  0  0  0  0  0  0  0  0  0  0  0
    8.9282    1.4330    0.0000 C   0  0  0  0  0  0  0  0  0  0  0  0
    8.0622    2.9330    0.0000 C   0  0  0  0  0  0  0  0  0  0  0  0
    9.7942    1.9330    0.0000 C   0  0  0  0  0  0  0  0  0  0  0  0
    8.9282    3.4330    0.0000 C   0  0  0  0  0  0  0  0  0  0  0  0
   10.6603    3.4330    0.0000 C   0  0  0  0  0  0  0  0  0  0  0  0
    4.5981   -2.0670    0.0000 C   0  0  0  0  0  0  0  0  0  0  0  0
   11.5263    2.9330    0.0000 C   0  0  0  0  0  0  0  0  0  0  0  0
   10.6603    4.4330    0.0000 C   0  0  0  0  0  0  0  0  0  0  0  0
    3.7320   -2.5670    0.0000 C   0  0  0  0  0  0  0  0  0  0  0  0
    5.4641   -2.5670    0.0000 C   0  0  0  0  0  0  0  0  0  0  0  0
   12.3923    3.4330    0.0000 C   0  0  0  0  0  0  0  0  0  0  0  0
   11.5263    4.9330    0.0000 C   0  0  0  0  0  0  0  0  0  0  0  0
   12.3923    4.4330    0.0000 C   0  0  0  0  0  0  0  0  0  0  0  0
    3.7320   -3.5670    0.0000 C   0  0  0  0  0  0  0  0  0  0  0  0
   12.3923    1.4330    0.0000 C   0  0  0  0  0  0  0  0  0  0  0  0
    5.4641   -3.5670    0.0000 C   0  0  0  0  0  0  0  0  0  0  0  0
    4.5981   -4.0670    0.0000 C   0  0  0  0  0  0  0  0  0  0  0  0
    2.8660   -4.0670    0.0000 C   0  0  0  0  0  0  0  0  0  0  0  0
   12.3923    0.4330    0.0000 C   0  0  0  0  0  0  0  0  0  0  0  0
   13.2583    1.9330    0.0000 C   0  0  0  0  0  0  0  0  0  0  0  0
    7.7331    1.1230    0.0000 H   0  0  0  0  0  0  0  0  0  0  0  0
    6.7287    2.4080    0.0000 H   0  0  0  0  0  0  0  0  0  0  0  0
    5.9316    2.4080    0.0000 H   0  0  0  0  0  0  0  0  0  0  0  0
    7.4082   -0.1496    0.0000 H   0  0  0  0  0  0  0  0  0  0  0  0
    7.8067    0.5407    0.0000 H   0  0  0  0  0  0  0  0  0  0  0  0
    5.4641   -0.1870    0.0000 H   0  0  0  0  0  0  0  0  0  0  0  0
    5.2520    2.0156    0.0000 H   0  0  0  0  0  0  0  0  0  0  0  0
    4.8535    1.3254    0.0000 H   0  0  0  0  0  0  0  0  0  0  0  0
    5.9316   -0.5419    0.0000 H   0  0  0  0  0  0  0  0  0  0  0  0
    6.7287   -0.5419    0.0000 H   0  0  0  0  0  0  0  0  0  0  0  0
    8.5297    0.9581    0.0000 H   0  0  0  0  0  0  0  0  0  0  0  0
    9.3267    0.9581    0.0000 H   0  0  0  0  0  0  0  0  0  0  0  0
    7.8501    3.5156    0.0000 H   0  0  0  0  0  0  0  0  0  0  0  0
    7.4516    2.8253    0.0000 H   0  0  0  0  0  0  0  0  0  0  0  0
   10.0063    1.3504    0.0000 H   0  0  0  0  0  0  0  0  0  0  0  0
   10.4048    2.0407    0.0000 H   0  0  0  0  0  0  0  0  0  0  0  0
    9.3267    3.9080    0.0000 H   0  0  0  0  0  0  0  0  0  0  0  0
    8.5297    3.9080    0.0000 H   0  0  0  0  0  0  0  0  0  0  0  0
    4.0611    0.2430    0.0000 H   0  0  0  0  0  0  0  0  0  0  0  0
   10.1233    4.7430    0.0000 H   0  0  0  0  0  0  0  0  0  0  0  0
    3.1951   -2.2570    0.0000 H   0  0  0  0  0  0  0  0  0  0  0  0
   12.9292    3.1230    0.0000 H   0  0  0  0  0  0  0  0  0  0  0  0
    6.0010   -2.2570    0.0000 H   0  0  0  0  0  0  0  0  0  0  0  0
   11.5263    5.5530    0.0000 H   0  0  0  0  0  0  0  0  0  0  0  0
   12.9292    4.7430    0.0000 H   0  0  0  0  0  0  0  0  0  0  0  0
   11.8554    1.1230    0.0000 H   0  0  0  0  0  0  0  0  0  0  0  0
    6.0010   -3.8770    0.0000 H   0  0  0  0  0  0  0  0  0  0  0  0
    4.5981   -4.6870    0.0000 H   0  0  0  0  0  0  0  0  0  0  0  0
   11.7723    0.4330    0.0000 H   0  0  0  0  0  0  0  0  0  0  0  0
   12.3923   -0.1870    0.0000 H   0  0  0  0  0  0  0  0  0  0  0  0
   13.0123    0.4330    0.0000 H   0  0  0  0  0  0  0  0  0  0  0  0
   13.5683    1.3961    0.0000 H   0  0  0  0  0  0  0  0  0  0  0  0
   13.7953    2.2430    0.0000 H   0  0  0  0  0  0  0  0  0  0  0  0
   12.9483    2.4700    0.0000 H   0  0  0  0  0  0  0  0  0  0  0  0
  1  5  2  0  0  0  0
  1  6  2  0  0  0  0
  1 10  1  0  0  0  0
  1 22  1  0  0  0  0
  2 34  1  0  0  0  0
  3 34  1  0  0  0  0
  4 34  1  0  0  0  0
  7 23  1  0  0  0  0
  7 31  1  0  0  0  0
  8 11  1  0  0  0  0
  8 17  1  0  0  0  0
  8 18  1  0  0  0  0
  9 19  1  0  0  0  0
  9 20  1  0  0  0  0
  9 21  1  0  0  0  0
 10 14  1  0  0  0  0
 10 55  1  0  0  0  0
 11 12  1  0  0  0  0
 11 13  1  0  0  0  0
 11 37  1  0  0  0  0
 12 15  1  0  0  0  0
 12 38  1  0  0  0  0
 12 39  1  0  0  0  0
 13 16  1  0  0  0  0
 13 40  1  0  0  0  0
 13 41  1  0  0  0  0
 14 15  1  0  0  0  0
 14 16  1  0  0  0  0
 14 42  1  0  0  0  0
 15 43  1  0  0  0  0
 15 44  1  0  0  0  0
 16 45  1  0  0  0  0
 16 46  1  0  0  0  0
 17 19  1  0  0  0  0
 17 47  1  0  0  0  0
 17 48  1  0  0  0  0
 18 20  1  0  0  0  0
 18 49  1  0  0  0  0
 18 50  1  0  0  0  0
 19 51  1  0  0  0  0
 19 52  1  0  0  0  0
 20 53  1  0  0  0  0
 20 54  1  0  0  0  0
 21 23  1  0  0  0  0
 21 24  2  0  0  0  0
 22 25  1  0  0  0  0
 22 26  2  0  0  0  0
 23 27  2  0  0  0  0
 24 28  1  0  0  0  0
 24 56  1  0  0  0  0
 25 30  2  0  0  0  0
 25 57  1  0  0  0  0
 26 32  1  0  0  0  0
 26 59  1  0  0  0  0
 27 29  1  0  0  0  0
 27 58  1  0  0  0  0
 28 29  2  0  0  0  0
 28 60  1  0  0  0  0
 29 61  1  0  0  0  0
 30 33  1  0  0  0  0
 30 34  1  0  0  0  0
 31 35  1  0  0  0  0
 31 36  1  0  0  0  0
 31 62  1  0  0  0  0
 32 33  2  0  0  0  0
 32 63  1  0  0  0  0
 33 64  1  0  0  0  0
 35 65  1  0  0  0  0
 35 66  1  0  0  0  0
 35 67  1  0  0  0  0
 36 68  1  0  0  0  0
 36 69  1  0  0  0  0
 36 70  1  0  0  0  0
M  END
> <PUBCHEM_COMPOUND_CID>
44431553

> <PUBCHEM_COMPOUND_CANONICALIZED>
1

> <PUBCHEM_CACTVS_COMPLEXITY>
789

> <PUBCHEM_CACTVS_HBOND_ACCEPTOR>
9

> <PUBCHEM_CACTVS_HBOND_DONOR>
1

> <PUBCHEM_CACTVS_ROTATABLE_BOND>
7

> <PUBCHEM_CACTVS_SUBSKEYS>
AAADcfB7MYBAAAAAAAAAAAAAAAAAAAAAAAA8YMEAAAAAAAABQAAAHwQQQAAADDzh2BYyx4NABAKAAiRCQHDCCBAhIgAIiJgPbIgOZiLEsZuXOCjk0BHY6AeQwAAOAAAAgAAAEAAAAQEAAAAgAAAAAAAAAA==

> <PUBCHEM_IUPAC_OPENEYE_NAME>
N-[4-[4-(2-isopropoxyphenyl)piperazin-1-yl]cyclohexyl]-3-(trifluoromethyl)benzenesulfonamide

> <PUBCHEM_IUPAC_CAS_NAME>
N-[4-[4-(2-propan-2-yloxyphenyl)-1-piperazinyl]cyclohexyl]-3-(trifluoromethyl)benzenesulfonamide

> <PUBCHEM_IUPAC_NAME_MARKUP>
<I>N</I>-[4-[4-(2-propan-2-yloxyphenyl)piperazin-1-yl]cyclohexyl]-3-(trifluoromethyl)benzenesulfonamide

> <PUBCHEM_IUPAC_NAME>
N-[4-[4-(2-propan-2-yloxyphenyl)piperazin-1-yl]cyclohexyl]-3-(trifluoromethyl)benzenesulfonamide

> <PUBCHEM_IUPAC_SYSTEMATIC_NAME>
N-[4-[4-(2-propan-2-yloxyphenyl)piperazin-1-yl]cyclohexyl]-3-(trifluoromethyl)benzenesulfonamide

> <PUBCHEM_IUPAC_TRADITIONAL_NAME>
N-[4-[4-(2-isopropoxyphenyl)piperazino]cyclohexyl]-3-(trifluoromethyl)benzenesulfonamide

> <PUBCHEM_IUPAC_INCHI>
InChI=1S/C26H34F3N3O3S/c1-19(2)35-25-9-4-3-8-24(25)32-16-14-31(15-17-32)22-12-10-21(11-13-22)30-36(33,34)23-7-5-6-20(18-23)26(27,28)29/h3-9,18-19,21-22,30H,10-17H2,1-2H3

> <PUBCHEM_IUPAC_INCHIKEY>
ZDNRYSVLOMAJEZ-UHFFFAOYSA-N

> <PUBCHEM_XLOGP3_AA>
5.5

> <PUBCHEM_EXACT_MASS>
525.22729761

> <PUBCHEM_MOLECULAR_FORMULA>
C26H34F3N3O3S

> <PUBCHEM_MOLECULAR_WEIGHT>
525.6

> <PUBCHEM_OPENEYE_CAN_SMILES>
CC(C)OC1=CC=CC=C1N2CCN(CC2)C3CCC(CC3)NS(=O)(=O)C4=CC=CC(=C4)C(F)(F)F

> <PUBCHEM_OPENEYE_ISO_SMILES>
CC(C)OC1=CC=CC=C1N2CCN(CC2)C3CCC(CC3)NS(=O)(=O)C4=CC=CC(=C4)C(F)(F)F

> <PUBCHEM_CACTVS_TPSA>
70.3

> <PUBCHEM_MONOISOTOPIC_WEIGHT>
525.22729761

> <PUBCHEM_TOTAL_CHARGE>
0

> <PUBCHEM_HEAVY_ATOM_COUNT>
36

> <PUBCHEM_ATOM_DEF_STEREO_COUNT>
0

> <PUBCHEM_ATOM_UDEF_STEREO_COUNT>
0

> <PUBCHEM_BOND_DEF_STEREO_COUNT>
0

> <PUBCHEM_BOND_UDEF_STEREO_COUNT>
0

> <PUBCHEM_ISOTOPIC_ATOM_COUNT>
0

> <PUBCHEM_COMPONENT_COUNT>
1

> <PUBCHEM_CACTVS_TAUTO_COUNT>
-1

> <PUBCHEM_COORDINATE_TYPE>
1
5
255

> <PUBCHEM_BONDANNOTATIONS>
21  23  8
21  24  8
22  25  8
22  26  8
23  27  8
24  28  8
25  30  8
26  32  8
27  29  8
28  29  8
30  33  8
32  33  8

$$$$
