52943802
  -OEChem-09292322312D

 60 62  0     0  0  0  0  0  0999 V2000
    6.3301    2.0000    0.0000 O   0  0  0  0  0  0  0  0  0  0  0  0
    3.7320   -0.5000    0.0000 N   0  0  0  0  0  0  0  0  0  0  0  0
    3.7320   -2.5000    0.0000 C   0  0  0  0  0  0  0  0  0  0  0  0
    2.8660   -2.0000    0.0000 C   0  0  0  0  0  0  0  0  0  0  0  0
    4.5981   -2.0000    0.0000 C   0  0  0  0  0  0  0  0  0  0  0  0
    2.8660   -1.0000    0.0000 C   0  0  0  0  0  0  0  0  0  0  0  0
    4.5981   -1.0000    0.0000 C   0  0  0  0  0  0  0  0  0  0  0  0
    3.7320   -3.5000    0.0000 C   0  0  0  0  0  0  0  0  0  0  0  0
    3.7320    0.5000    0.0000 C   0  0  0  0  0  0  0  0  0  0  0  0
    4.5981    1.0000    0.0000 C   0  0  0  0  0  0  0  0  0  0  0  0
    2.8660   -4.0000    0.0000 C   0  0  0  0  0  0  0  0  0  0  0  0
    4.5981   -4.0000    0.0000 C   0  0  0  0  0  0  0  0  0  0  0  0
    4.5981    2.0000    0.0000 C   0  0  0  0  0  0  0  0  0  0  0  0
    4.5981   -5.0000    0.0000 C   0  0  0  0  0  0  0  0  0  0  0  0
    2.8660   -5.0000    0.0000 C   0  0  0  0  0  0  0  0  0  0  0  0
    2.0000   -3.5000    0.0000 C   0  0  0  0  0  0  0  0  0  0  0  0
    3.7320   -5.5000    0.0000 C   0  0  0  0  0  0  0  0  0  0  0  0
    5.4641    2.5000    0.0000 C   0  0  0  0  0  0  0  0  0  0  0  0
    5.4641   -5.5000    0.0000 C   0  0  0  0  0  0  0  0  0  0  0  0
    5.4641    3.5000    0.0000 C   0  0  0  0  0  0  0  0  0  0  0  0
    6.3301    4.0000    0.0000 C   0  0  0  0  0  0  0  0  0  0  0  0
    4.5981    4.0000    0.0000 C   0  0  0  0  0  0  0  0  0  0  0  0
    4.5981    5.0000    0.0000 C   0  0  0  0  0  0  0  0  0  0  0  0
    6.3301    5.0000    0.0000 C   0  0  0  0  0  0  0  0  0  0  0  0
    7.1962    3.5000    0.0000 C   0  0  0  0  0  0  0  0  0  0  0  0
    5.4641    5.5000    0.0000 C   0  0  0  0  0  0  0  0  0  0  0  0
    3.7320    5.5000    0.0000 C   0  0  0  0  0  0  0  0  0  0  0  0
    4.2690   -2.8100    0.0000 H   0  0  0  0  0  0  0  0  0  0  0  0
    2.2554   -1.8923    0.0000 H   0  0  0  0  0  0  0  0  0  0  0  0
    2.6540   -2.5826    0.0000 H   0  0  0  0  0  0  0  0  0  0  0  0
    4.8101   -2.5826    0.0000 H   0  0  0  0  0  0  0  0  0  0  0  0
    5.2087   -1.8923    0.0000 H   0  0  0  0  0  0  0  0  0  0  0  0
    2.6540   -0.4174    0.0000 H   0  0  0  0  0  0  0  0  0  0  0  0
    2.2554   -1.1077    0.0000 H   0  0  0  0  0  0  0  0  0  0  0  0
    5.2087   -1.1077    0.0000 H   0  0  0  0  0  0  0  0  0  0  0  0
    4.8101   -0.4174    0.0000 H   0  0  0  0  0  0  0  0  0  0  0  0
    3.5200    1.0826    0.0000 H   0  0  0  0  0  0  0  0  0  0  0  0
    3.1215    0.3923    0.0000 H   0  0  0  0  0  0  0  0  0  0  0  0
    4.8101    0.4174    0.0000 H   0  0  0  0  0  0  0  0  0  0  0  0
    5.2087    1.1077    0.0000 H   0  0  0  0  0  0  0  0  0  0  0  0
    5.1350   -3.6900    0.0000 H   0  0  0  0  0  0  0  0  0  0  0  0
    4.3860    2.5826    0.0000 H   0  0  0  0  0  0  0  0  0  0  0  0
    3.9875    1.8923    0.0000 H   0  0  0  0  0  0  0  0  0  0  0  0
    2.3291   -5.3100    0.0000 H   0  0  0  0  0  0  0  0  0  0  0  0
    2.3100   -2.9631    0.0000 H   0  0  0  0  0  0  0  0  0  0  0  0
    1.4631   -3.1900    0.0000 H   0  0  0  0  0  0  0  0  0  0  0  0
    1.6900   -4.0369    0.0000 H   0  0  0  0  0  0  0  0  0  0  0  0
    3.7320   -6.1200    0.0000 H   0  0  0  0  0  0  0  0  0  0  0  0
    5.1541   -6.0369    0.0000 H   0  0  0  0  0  0  0  0  0  0  0  0
    6.0010   -5.8100    0.0000 H   0  0  0  0  0  0  0  0  0  0  0  0
    5.7741   -4.9631    0.0000 H   0  0  0  0  0  0  0  0  0  0  0  0
    4.0611    3.6900    0.0000 H   0  0  0  0  0  0  0  0  0  0  0  0
    6.8671    5.3100    0.0000 H   0  0  0  0  0  0  0  0  0  0  0  0
    6.8862    2.9631    0.0000 H   0  0  0  0  0  0  0  0  0  0  0  0
    7.7331    3.1900    0.0000 H   0  0  0  0  0  0  0  0  0  0  0  0
    7.5062    4.0369    0.0000 H   0  0  0  0  0  0  0  0  0  0  0  0
    5.4641    6.1200    0.0000 H   0  0  0  0  0  0  0  0  0  0  0  0
    4.0420    6.0369    0.0000 H   0  0  0  0  0  0  0  0  0  0  0  0
    3.1951    5.8100    0.0000 H   0  0  0  0  0  0  0  0  0  0  0  0
    3.4220    4.9631    0.0000 H   0  0  0  0  0  0  0  0  0  0  0  0
  1 18  2  0  0  0  0
  2  6  1  0  0  0  0
  2  7  1  0  0  0  0
  2  9  1  0  0  0  0
  3  4  1  0  0  0  0
  3  5  1  0  0  0  0
  3  8  1  0  0  0  0
  3 28  1  0  0  0  0
  4  6  1  0  0  0  0
  4 29  1  0  0  0  0
  4 30  1  0  0  0  0
  5  7  1  0  0  0  0
  5 31  1  0  0  0  0
  5 32  1  0  0  0  0
  6 33  1  0  0  0  0
  6 34  1  0  0  0  0
  7 35  1  0  0  0  0
  7 36  1  0  0  0  0
  8 11  2  0  0  0  0
  8 12  1  0  0  0  0
  9 10  1  0  0  0  0
  9 37  1  0  0  0  0
  9 38  1  0  0  0  0
 10 13  1  0  0  0  0
 10 39  1  0  0  0  0
 10 40  1  0  0  0  0
 11 15  1  0  0  0  0
 11 16  1  0  0  0  0
 12 14  2  0  0  0  0
 12 41  1  0  0  0  0
 13 18  1  0  0  0  0
 13 42  1  0  0  0  0
 13 43  1  0  0  0  0
 14 17  1  0  0  0  0
 14 19  1  0  0  0  0
 15 17  2  0  0  0  0
 15 44  1  0  0  0  0
 16 45  1  0  0  0  0
 16 46  1  0  0  0  0
 16 47  1  0  0  0  0
 17 48  1  0  0  0  0
 18 20  1  0  0  0  0
 19 49  1  0  0  0  0
 19 50  1  0  0  0  0
 19 51  1  0  0  0  0
 20 21  2  0  0  0  0
 20 22  1  0  0  0  0
 21 24  1  0  0  0  0
 21 25  1  0  0  0  0
 22 23  2  0  0  0  0
 22 52  1  0  0  0  0
 23 26  1  0  0  0  0
 23 27  1  0  0  0  0
 24 26  2  0  0  0  0
 24 53  1  0  0  0  0
 25 54  1  0  0  0  0
 25 55  1  0  0  0  0
 25 56  1  0  0  0  0
 26 57  1  0  0  0  0
 27 58  1  0  0  0  0
 27 59  1  0  0  0  0
 27 60  1  0  0  0  0
M  END
> <PUBCHEM_COMPOUND_CID>
52943802

> <PUBCHEM_COMPOUND_CANONICALIZED>
1

> <PUBCHEM_CACTVS_COMPLEXITY>
467

> <PUBCHEM_CACTVS_HBOND_ACCEPTOR>
2

> <PUBCHEM_CACTVS_HBOND_DONOR>
0

> <PUBCHEM_CACTVS_ROTATABLE_BOND>
6

> <PUBCHEM_CACTVS_SUBSKEYS>
AAADcfB6IAAAAAAAAAAAAAAAAAAAAAAAAAA8YIAAAAAAAAABQAAAHgAAAAAADQTBmAQyAIMAAACIAqBSAAACAAAkAAAIiAEIAMgIIDKAlRCEIQAggACIiYcciMCOwAACAAAQAACAAAQAACAAAAAAAAAAAA==

> <PUBCHEM_IUPAC_OPENEYE_NAME>
1-(2,5-dimethylphenyl)-4-[4-(2,5-dimethylphenyl)-1-piperidyl]butan-1-one

> <PUBCHEM_IUPAC_CAS_NAME>
1-(2,5-dimethylphenyl)-4-[4-(2,5-dimethylphenyl)-1-piperidinyl]-1-butanone

> <PUBCHEM_IUPAC_NAME_MARKUP>
1-(2,5-dimethylphenyl)-4-[4-(2,5-dimethylphenyl)piperidin-1-yl]butan-1-one

> <PUBCHEM_IUPAC_NAME>
1-(2,5-dimethylphenyl)-4-[4-(2,5-dimethylphenyl)piperidin-1-yl]butan-1-one

> <PUBCHEM_IUPAC_SYSTEMATIC_NAME>
1-(2,5-dimethylphenyl)-4-[4-(2,5-dimethylphenyl)piperidin-1-yl]butan-1-one

> <PUBCHEM_IUPAC_TRADITIONAL_NAME>
1-(2,5-dimethylphenyl)-4-[4-(2,5-dimethylphenyl)piperidino]butan-1-one

> <PUBCHEM_IUPAC_INCHI>
InChI=1S/C25H33NO/c1-18-7-9-20(3)23(16-18)22-11-14-26(15-12-22)13-5-6-25(27)24-17-19(2)8-10-21(24)4/h7-10,16-17,22H,5-6,11-15H2,1-4H3

> <PUBCHEM_IUPAC_INCHIKEY>
QPOPFNWPFQDIQV-UHFFFAOYSA-N

> <PUBCHEM_XLOGP3_AA>
5.6

> <PUBCHEM_EXACT_MASS>
363.256214676

> <PUBCHEM_MOLECULAR_FORMULA>
C25H33NO

> <PUBCHEM_MOLECULAR_WEIGHT>
363.5

> <PUBCHEM_OPENEYE_CAN_SMILES>
CC1=CC(=C(C=C1)C)C2CCN(CC2)CCCC(=O)C3=C(C=CC(=C3)C)C

> <PUBCHEM_OPENEYE_ISO_SMILES>
CC1=CC(=C(C=C1)C)C2CCN(CC2)CCCC(=O)C3=C(C=CC(=C3)C)C

> <PUBCHEM_CACTVS_TPSA>
20.3

> <PUBCHEM_MONOISOTOPIC_WEIGHT>
363.256214676

> <PUBCHEM_TOTAL_CHARGE>
0

> <PUBCHEM_HEAVY_ATOM_COUNT>
27

> <PUBCHEM_ATOM_DEF_STEREO_COUNT>
0

> <PUBCHEM_ATOM_UDEF_STEREO_COUNT>
0

> <PUBCHEM_BOND_DEF_STEREO_COUNT>
0

> <PUBCHEM_BOND_UDEF_STEREO_COUNT>
0

> <PUBCHEM_ISOTOPIC_ATOM_COUNT>
0

> <PUBCHEM_COMPONENT_COUNT>
1

> <PUBCHEM_CACTVS_TAUTO_COUNT>
-1

> <PUBCHEM_COORDINATE_TYPE>
1
5
255

> <PUBCHEM_BONDANNOTATIONS>
11  15  8
12  14  8
14  17  8
15  17  8
20  21  8
20  22  8
21  24  8
22  23  8
23  26  8
24  26  8
8  11  8
8  12  8

$$$$
