122180626
  -OEChem-09292322362D

 63 67  0     1  0  0  0  0  0999 V2000
    8.1482   -0.0051    0.0000 O   0  0  0  0  0  0  0  0  0  0  0  0
    4.1701   -0.4232    0.0000 O   0  0  0  0  0  0  0  0  0  0  0  0
    6.9726    1.6130    0.0000 N   0  0  0  0  0  0  0  0  0  0  0  0
    4.9836    1.4039    0.0000 N   0  0  0  0  0  0  0  0  0  0  0  0
   11.1317    0.3085    0.0000 N   0  0  0  0  0  0  0  0  0  0  0  0
   11.6317    1.1745    0.0000 N   0  0  0  0  0  0  0  0  0  0  0  0
   12.6099    0.9666    0.0000 N   0  0  0  0  0  0  0  0  0  0  0  0
   16.2587   -1.8326    0.0000 N   0  0  0  0  0  0  0  0  0  0  0  0
    6.3848    2.4220    0.0000 C   0  0  0  0  0  0  0  0  0  0  0  0
    6.5659    0.6994    0.0000 C   0  0  0  0  0  0  0  0  0  0  0  0
    5.3903    2.3174    0.0000 C   0  0  0  0  0  0  0  0  0  0  0  0
    5.5714    0.5949    0.0000 C   0  0  0  0  0  0  0  0  0  0  0  0
    7.9671    1.7175    0.0000 C   0  0  0  0  0  0  0  0  0  0  0  0
    8.5549    0.9085    0.0000 C   0  0  3  0  0  0  0  0  0  0  0  0
    9.5494    1.0130    0.0000 C   0  0  0  0  0  0  0  0  0  0  0  0
    3.9890    1.2994    0.0000 C   0  0  0  0  0  0  0  0  0  0  0  0
   10.1372    0.2040    0.0000 C   0  0  0  0  0  0  0  0  0  0  0  0
    3.5823    0.3858    0.0000 C   0  0  0  0  0  0  0  0  0  0  0  0
    3.4013    2.1084    0.0000 C   0  0  0  0  0  0  0  0  0  0  0  0
    2.5878    0.2813    0.0000 C   0  0  0  0  0  0  0  0  0  0  0  0
    2.4067    2.0038    0.0000 C   0  0  0  0  0  0  0  0  0  0  0  0
   11.8009   -0.4346    0.0000 C   0  0  0  0  0  0  0  0  0  0  0  0
    2.0000    1.0903    0.0000 C   0  0  0  0  0  0  0  0  0  0  0  0
   12.7144   -0.0279    0.0000 C   0  0  0  0  0  0  0  0  0  0  0  0
   13.5804   -0.5279    0.0000 C   0  0  0  0  0  0  0  0  0  0  0  0
   14.4465   -0.0279    0.0000 C   0  0  0  0  0  0  0  0  0  0  0  0
   15.3125   -0.5279    0.0000 C   0  0  0  0  0  0  0  0  0  0  0  0
    3.7634   -1.3368    0.0000 C   0  0  0  0  0  0  0  0  0  0  0  0
   15.3125   -1.5279    0.0000 C   0  0  0  0  0  0  0  0  0  0  0  0
   13.5804   -1.5279    0.0000 C   0  0  0  0  0  0  0  0  0  0  0  0
   14.4465   -2.0279    0.0000 C   0  0  0  0  0  0  0  0  0  0  0  0
   16.2587   -0.2232    0.0000 C   0  0  0  0  0  0  0  0  0  0  0  0
   16.8423   -1.0279    0.0000 C   0  0  0  0  0  0  0  0  0  0  0  0
    6.9421    2.6938    0.0000 H   0  0  0  0  0  0  0  0  0  0  0  0
    6.2139    3.0180    0.0000 H   0  0  0  0  0  0  0  0  0  0  0  0
    6.5226    0.0809    0.0000 H   0  0  0  0  0  0  0  0  0  0  0  0
    7.1675    0.5494    0.0000 H   0  0  0  0  0  0  0  0  0  0  0  0
    5.4336    2.9359    0.0000 H   0  0  0  0  0  0  0  0  0  0  0  0
    4.7887    2.4674    0.0000 H   0  0  0  0  0  0  0  0  0  0  0  0
    5.0141    0.3231    0.0000 H   0  0  0  0  0  0  0  0  0  0  0  0
    5.7422   -0.0011    0.0000 H   0  0  0  0  0  0  0  0  0  0  0  0
    8.5244    1.9893    0.0000 H   0  0  0  0  0  0  0  0  0  0  0  0
    7.7962    2.3135    0.0000 H   0  0  0  0  0  0  0  0  0  0  0  0
    7.9383    0.8437    0.0000 H   0  0  0  0  0  0  0  0  0  0  0  0
   10.1067    1.2848    0.0000 H   0  0  0  0  0  0  0  0  0  0  0  0
    9.3785    1.6090    0.0000 H   0  0  0  0  0  0  0  0  0  0  0  0
    9.5800   -0.0678    0.0000 H   0  0  0  0  0  0  0  0  0  0  0  0
   10.3081   -0.3920    0.0000 H   0  0  0  0  0  0  0  0  0  0  0  0
    8.5126   -0.5067    0.0000 H   0  0  0  0  0  0  0  0  0  0  0  0
    3.6534    2.6748    0.0000 H   0  0  0  0  0  0  0  0  0  0  0  0
    2.3356   -0.2851    0.0000 H   0  0  0  0  0  0  0  0  0  0  0  0
    2.0423    2.5054    0.0000 H   0  0  0  0  0  0  0  0  0  0  0  0
   11.6720   -1.0411    0.0000 H   0  0  0  0  0  0  0  0  0  0  0  0
    1.3834    1.0255    0.0000 H   0  0  0  0  0  0  0  0  0  0  0  0
   14.4465    0.5921    0.0000 H   0  0  0  0  0  0  0  0  0  0  0  0
   13.0435   -1.8379    0.0000 H   0  0  0  0  0  0  0  0  0  0  0  0
    3.1970   -1.0846    0.0000 H   0  0  0  0  0  0  0  0  0  0  0  0
    3.5112   -1.9031    0.0000 H   0  0  0  0  0  0  0  0  0  0  0  0
    4.3298   -1.5889    0.0000 H   0  0  0  0  0  0  0  0  0  0  0  0
   14.4465   -2.6479    0.0000 H   0  0  0  0  0  0  0  0  0  0  0  0
   16.4513    0.3661    0.0000 H   0  0  0  0  0  0  0  0  0  0  0  0
   16.4513   -2.4220    0.0000 H   0  0  0  0  0  0  0  0  0  0  0  0
   17.4623   -1.0279    0.0000 H   0  0  0  0  0  0  0  0  0  0  0  0
  1 14  1  0  0  0  0
  1 49  1  0  0  0  0
  2 18  1  0  0  0  0
  2 28  1  0  0  0  0
  3  9  1  0  0  0  0
  3 10  1  0  0  0  0
  3 13  1  0  0  0  0
  4 11  1  0  0  0  0
  4 12  1  0  0  0  0
  4 16  1  0  0  0  0
  5  6  1  0  0  0  0
  5 17  1  0  0  0  0
  5 22  1  0  0  0  0
  6  7  2  0  0  0  0
  7 24  1  0  0  0  0
  8 29  1  0  0  0  0
  8 33  1  0  0  0  0
  8 62  1  0  0  0  0
  9 11  1  0  0  0  0
  9 34  1  0  0  0  0
  9 35  1  0  0  0  0
 10 12  1  0  0  0  0
 10 36  1  0  0  0  0
 10 37  1  0  0  0  0
 11 38  1  0  0  0  0
 11 39  1  0  0  0  0
 12 40  1  0  0  0  0
 12 41  1  0  0  0  0
 13 14  1  0  0  0  0
 13 42  1  0  0  0  0
 13 43  1  0  0  0  0
 14 15  1  0  0  0  0
 14 44  1  0  0  0  0
 15 17  1  0  0  0  0
 15 45  1  0  0  0  0
 15 46  1  0  0  0  0
 16 18  1  0  0  0  0
 16 19  2  0  0  0  0
 17 47  1  0  0  0  0
 17 48  1  0  0  0  0
 18 20  2  0  0  0  0
 19 21  1  0  0  0  0
 19 50  1  0  0  0  0
 20 23  1  0  0  0  0
 20 51  1  0  0  0  0
 21 23  2  0  0  0  0
 21 52  1  0  0  0  0
 22 24  2  0  0  0  0
 22 53  1  0  0  0  0
 23 54  1  0  0  0  0
 24 25  1  0  0  0  0
 25 26  2  0  0  0  0
 25 30  1  0  0  0  0
 26 27  1  0  0  0  0
 26 55  1  0  0  0  0
 27 29  2  0  0  0  0
 27 32  1  0  0  0  0
 28 57  1  0  0  0  0
 28 58  1  0  0  0  0
 28 59  1  0  0  0  0
 29 31  1  0  0  0  0
 30 31  2  0  0  0  0
 30 56  1  0  0  0  0
 31 60  1  0  0  0  0
 32 33  2  0  0  0  0
 32 61  1  0  0  0  0
 33 63  1  0  0  0  0
M  END
> <PUBCHEM_COMPOUND_CID>
122180626

> <PUBCHEM_COMPOUND_CANONICALIZED>
1

> <PUBCHEM_CACTVS_COMPLEXITY>
603

> <PUBCHEM_CACTVS_HBOND_ACCEPTOR>
6

> <PUBCHEM_CACTVS_HBOND_DONOR>
2

> <PUBCHEM_CACTVS_ROTATABLE_BOND>
8

> <PUBCHEM_CACTVS_SUBSKEYS>
AAADceB7sAAAAAAAAAAAAAAAAAAAAWLAAAA8YIAAAAAAAFgB/AAAHgAYCAAADBzhngY+xvPJlgCiAzRnRACCjCQxsiAY2aA/fJgOduLEsZuVcChm0BHY6AeQwMAOCAACAAACEAAQAAQAAAQgAAAAAAAAAA==

> <PUBCHEM_IUPAC_OPENEYE_NAME>
4-[4-(1H-indol-5-yl)triazol-1-yl]-1-[4-(2-methoxyphenyl)piperazin-1-yl]butan-2-ol

> <PUBCHEM_IUPAC_CAS_NAME>
4-[4-(1H-indol-5-yl)-1-triazolyl]-1-[4-(2-methoxyphenyl)-1-piperazinyl]-2-butanol

> <PUBCHEM_IUPAC_NAME_MARKUP>
4-[4-(1<I>H</I>-indol-5-yl)triazol-1-yl]-1-[4-(2-methoxyphenyl)piperazin-1-yl]butan-2-ol

> <PUBCHEM_IUPAC_NAME>
4-[4-(1H-indol-5-yl)triazol-1-yl]-1-[4-(2-methoxyphenyl)piperazin-1-yl]butan-2-ol

> <PUBCHEM_IUPAC_SYSTEMATIC_NAME>
4-[4-(1H-indol-5-yl)-1,2,3-triazol-1-yl]-1-[4-(2-methoxyphenyl)piperazin-1-yl]butan-2-ol

> <PUBCHEM_IUPAC_TRADITIONAL_NAME>
4-[4-(1H-indol-5-yl)triazol-1-yl]-1-[4-(2-methoxyphenyl)piperazino]butan-2-ol

> <PUBCHEM_IUPAC_INCHI>
InChI=1S/C25H30N6O2/c1-33-25-5-3-2-4-24(25)30-14-12-29(13-15-30)17-21(32)9-11-31-18-23(27-28-31)19-6-7-22-20(16-19)8-10-26-22/h2-8,10,16,18,21,26,32H,9,11-15,17H2,1H3

> <PUBCHEM_IUPAC_INCHIKEY>
RGBNGNXRVODGQZ-UHFFFAOYSA-N

> <PUBCHEM_XLOGP3_AA>
2.8

> <PUBCHEM_EXACT_MASS>
446.24302422

> <PUBCHEM_MOLECULAR_FORMULA>
C25H30N6O2

> <PUBCHEM_MOLECULAR_WEIGHT>
446.5

> <PUBCHEM_OPENEYE_CAN_SMILES>
COC1=CC=CC=C1N2CCN(CC2)CC(CCN3C=C(N=N3)C4=CC5=C(C=C4)NC=C5)O

> <PUBCHEM_OPENEYE_ISO_SMILES>
COC1=CC=CC=C1N2CCN(CC2)CC(CCN3C=C(N=N3)C4=CC5=C(C=C4)NC=C5)O

> <PUBCHEM_CACTVS_TPSA>
82.4

> <PUBCHEM_MONOISOTOPIC_WEIGHT>
446.24302422

> <PUBCHEM_TOTAL_CHARGE>
0

> <PUBCHEM_HEAVY_ATOM_COUNT>
33

> <PUBCHEM_ATOM_DEF_STEREO_COUNT>
0

> <PUBCHEM_ATOM_UDEF_STEREO_COUNT>
1

> <PUBCHEM_BOND_DEF_STEREO_COUNT>
0

> <PUBCHEM_BOND_UDEF_STEREO_COUNT>
0

> <PUBCHEM_ISOTOPIC_ATOM_COUNT>
0

> <PUBCHEM_COMPONENT_COUNT>
1

> <PUBCHEM_CACTVS_TAUTO_COUNT>
-1

> <PUBCHEM_COORDINATE_TYPE>
1
5
255

> <PUBCHEM_BONDANNOTATIONS>
14  1  3
16  18  8
16  19  8
18  20  8
19  21  8
20  23  8
21  23  8
22  24  8
25  26  8
25  30  8
26  27  8
27  29  8
27  32  8
29  31  8
30  31  8
32  33  8
5  22  8
5  6  8
6  7  8
7  24  8
8  29  8
8  33  8

$$$$
