142405815
  -OEChem-09292322422D

 50 53  0     1  0  0  0  0  0999 V2000
   10.4105   -1.2603    0.0000 Cl  0  0  0  0  0  0  0  0  0  0  0  0
    4.7715    2.3063    0.0000 N   0  0  3  0  0  0  0  0  0  0  0  0
    7.0731   -0.3966    0.0000 N   0  0  0  0  0  0  0  0  0  0  0  0
    6.5731   -2.5873    0.0000 N   0  0  0  0  0  0  0  0  0  0  0  0
    5.7687    2.2316    0.0000 C   0  0  2  0  0  0  0  0  0  0  0  0
    4.2082    1.4801    0.0000 C   0  0  0  0  0  0  0  0  0  0  0  0
    4.6420    0.5791    0.0000 C   0  0  0  0  0  0  0  0  0  0  0  0
    5.6392    0.5044    0.0000 C   0  0  0  0  0  0  0  0  0  0  0  0
    6.2026    1.3306    0.0000 C   0  0  0  0  0  0  0  0  0  0  0  0
    6.0731   -0.3966    0.0000 C   0  0  0  0  0  0  0  0  0  0  0  0
    6.3320    3.0578    0.0000 C   0  0  0  0  0  0  0  0  0  0  0  0
    5.4496   -1.1784    0.0000 C   0  0  0  0  0  0  0  0  0  0  0  0
    4.3376    3.2073    0.0000 C   0  0  0  0  0  0  0  0  0  0  0  0
    5.6721   -2.1534    0.0000 C   0  0  0  0  0  0  0  0  0  0  0  0
    4.4591   -0.8561    0.0000 C   0  0  0  0  0  0  0  0  0  0  0  0
    3.6901   -1.5587    0.0000 C   0  0  0  0  0  0  0  0  0  0  0  0
    7.6966   -1.1785    0.0000 C   0  0  0  0  0  0  0  0  0  0  0  0
    7.4741   -2.1534    0.0000 C   0  0  0  0  0  0  0  0  0  0  0  0
    4.9196   -2.8736    0.0000 C   0  0  0  0  0  0  0  0  0  0  0  0
    3.9219   -2.5742    0.0000 C   0  0  0  0  0  0  0  0  0  0  0  0
    2.7357   -1.2602    0.0000 C   0  0  0  0  0  0  0  0  0  0  0  0
    8.6871   -0.8561    0.0000 C   0  0  0  0  0  0  0  0  0  0  0  0
    8.2266   -2.8736    0.0000 C   0  0  0  0  0  0  0  0  0  0  0  0
    2.0000   -1.9376    0.0000 C   0  0  0  0  0  0  0  0  0  0  0  0
    9.4561   -1.5587    0.0000 C   0  0  0  0  0  0  0  0  0  0  0  0
    9.2243   -2.5742    0.0000 C   0  0  0  0  0  0  0  0  0  0  0  0
    5.4997    2.7902    0.0000 H   0  0  0  0  0  0  0  0  0  0  0  0
    3.7643    1.9130    0.0000 H   0  0  0  0  0  0  0  0  0  0  0  0
    3.7048    1.1181    0.0000 H   0  0  0  0  0  0  0  0  0  0  0  0
    4.0452    0.4112    0.0000 H   0  0  0  0  0  0  0  0  0  0  0  0
    4.7038   -0.0378    0.0000 H   0  0  0  0  0  0  0  0  0  0  0  0
    6.8208    1.2842    0.0000 H   0  0  0  0  0  0  0  0  0  0  0  0
    6.8443    2.7085    0.0000 H   0  0  0  0  0  0  0  0  0  0  0  0
    6.6813    3.5701    0.0000 H   0  0  0  0  0  0  0  0  0  0  0  0
    5.8197    3.4070    0.0000 H   0  0  0  0  0  0  0  0  0  0  0  0
    4.8962    3.4763    0.0000 H   0  0  0  0  0  0  0  0  0  0  0  0
    4.0686    3.7659    0.0000 H   0  0  0  0  0  0  0  0  0  0  0  0
    3.7790    2.9383    0.0000 H   0  0  0  0  0  0  0  0  0  0  0  0
    4.3282   -0.2501    0.0000 H   0  0  0  0  0  0  0  0  0  0  0  0
    6.5731   -3.2073    0.0000 H   0  0  0  0  0  0  0  0  0  0  0  0
    5.0645   -3.4764    0.0000 H   0  0  0  0  0  0  0  0  0  0  0  0
    3.4690   -2.9976    0.0000 H   0  0  0  0  0  0  0  0  0  0  0  0
    3.0206   -0.7096    0.0000 H   0  0  0  0  0  0  0  0  0  0  0  0
    2.2429   -0.8840    0.0000 H   0  0  0  0  0  0  0  0  0  0  0  0
    8.8181   -0.2501    0.0000 H   0  0  0  0  0  0  0  0  0  0  0  0
    8.0817   -3.4764    0.0000 H   0  0  0  0  0  0  0  0  0  0  0  0
    1.5800   -1.4815    0.0000 H   0  0  0  0  0  0  0  0  0  0  0  0
    1.5439   -2.3575    0.0000 H   0  0  0  0  0  0  0  0  0  0  0  0
    2.4200   -2.3937    0.0000 H   0  0  0  0  0  0  0  0  0  0  0  0
    9.6772   -2.9977    0.0000 H   0  0  0  0  0  0  0  0  0  0  0  0
  1 25  1  0  0  0  0
  2  5  1  0  0  0  0
  2  6  1  0  0  0  0
  2 13  1  0  0  0  0
  3 10  2  0  0  0  0
  3 17  1  0  0  0  0
  4 14  1  0  0  0  0
  4 18  1  0  0  0  0
  4 40  1  0  0  0  0
  5  9  1  0  0  0  0
  5 11  1  1  0  0  0
  5 27  1  0  0  0  0
  6  7  1  0  0  0  0
  6 28  1  0  0  0  0
  6 29  1  0  0  0  0
  7  8  1  0  0  0  0
  7 30  1  0  0  0  0
  7 31  1  0  0  0  0
  8  9  2  0  0  0  0
  8 10  1  0  0  0  0
  9 32  1  0  0  0  0
 10 12  1  0  0  0  0
 11 33  1  0  0  0  0
 11 34  1  0  0  0  0
 11 35  1  0  0  0  0
 12 14  2  0  0  0  0
 12 15  1  0  0  0  0
 13 36  1  0  0  0  0
 13 37  1  0  0  0  0
 13 38  1  0  0  0  0
 14 19  1  0  0  0  0
 15 16  2  0  0  0  0
 15 39  1  0  0  0  0
 16 20  1  0  0  0  0
 16 21  1  0  0  0  0
 17 18  2  0  0  0  0
 17 22  1  0  0  0  0
 18 23  1  0  0  0  0
 19 20  2  0  0  0  0
 19 41  1  0  0  0  0
 20 42  1  0  0  0  0
 21 24  1  0  0  0  0
 21 43  1  0  0  0  0
 21 44  1  0  0  0  0
 22 25  2  0  0  0  0
 22 45  1  0  0  0  0
 23 26  2  0  0  0  0
 23 46  1  0  0  0  0
 24 47  1  0  0  0  0
 24 48  1  0  0  0  0
 24 49  1  0  0  0  0
 25 26  1  0  0  0  0
 26 50  1  0  0  0  0
M  END
> <PUBCHEM_COMPOUND_CID>
142405815

> <PUBCHEM_COMPOUND_CANONICALIZED>
1

> <PUBCHEM_CACTVS_COMPLEXITY>
572

> <PUBCHEM_CACTVS_HBOND_ACCEPTOR>
3

> <PUBCHEM_CACTVS_HBOND_DONOR>
1

> <PUBCHEM_CACTVS_ROTATABLE_BOND>
2

> <PUBCHEM_CACTVS_SUBSKEYS>
AAADceB7AAAEAAAAAAAAAAAAAAAAAAAAAAAwYIAABAAAAAABQAAAHAIQAAAADCrBGCQywIPAAACgAyRiRACCAAAhBwAIiAAodpgIYOLBk5GUIAhgkADIyAcQgMAOCABCAAICACAQAIQABAQAQAAAAAAAAA==

> <PUBCHEM_IUPAC_OPENEYE_NAME>
3-chloro-6-[(6S)-1,6-dimethyl-3,6-dihydro-2H-pyridin-4-yl]-8-ethyl-11H-benzo[b][1,4]benzodiazepine

> <PUBCHEM_IUPAC_CAS_NAME>
3-chloro-6-[(6S)-1,6-dimethyl-3,6-dihydro-2H-pyridin-4-yl]-8-ethyl-11H-benzo[b][1,4]benzodiazepine

> <PUBCHEM_IUPAC_NAME_MARKUP>
3-chloro-6-[(6<I>S</I>)-1,6-dimethyl-3,6-dihydro-2<I>H</I>-pyridin-4-yl]-8-ethyl-11<I>H</I>-benzo[b][1,4]benzodiazepine

> <PUBCHEM_IUPAC_NAME>
3-chloro-6-[(6S)-1,6-dimethyl-3,6-dihydro-2H-pyridin-4-yl]-8-ethyl-11H-benzo[b][1,4]benzodiazepine

> <PUBCHEM_IUPAC_SYSTEMATIC_NAME>
3-chloranyl-6-[(6S)-1,6-dimethyl-3,6-dihydro-2H-pyridin-4-yl]-8-ethyl-11H-benzo[b][1,4]benzodiazepine

> <PUBCHEM_IUPAC_TRADITIONAL_NAME>
3-chloro-6-[(6S)-1,6-dimethyl-3,6-dihydro-2H-pyridin-4-yl]-8-ethyl-11H-benzo[b][1,4]benzodiazepine

> <PUBCHEM_IUPAC_INCHI>
InChI=1S/C22H24ClN3/c1-4-15-5-7-19-18(12-15)22(16-9-10-26(3)14(2)11-16)25-21-13-17(23)6-8-20(21)24-19/h5-8,11-14,24H,4,9-10H2,1-3H3/t14-/m0/s1

> <PUBCHEM_IUPAC_INCHIKEY>
VSQDOVCYPJDCLP-AWEZNQCLSA-N

> <PUBCHEM_XLOGP3_AA>
5.2

> <PUBCHEM_EXACT_MASS>
365.1658755

> <PUBCHEM_MOLECULAR_FORMULA>
C22H24ClN3

> <PUBCHEM_MOLECULAR_WEIGHT>
365.9

> <PUBCHEM_OPENEYE_CAN_SMILES>
CCC1=CC2=C(C=C1)NC3=C(C=C(C=C3)Cl)N=C2C4=CC(N(CC4)C)C

> <PUBCHEM_OPENEYE_ISO_SMILES>
CCC1=CC2=C(C=C1)NC3=C(C=C(C=C3)Cl)N=C2C4=C[C@@H](N(CC4)C)C

> <PUBCHEM_CACTVS_TPSA>
27.6

> <PUBCHEM_MONOISOTOPIC_WEIGHT>
365.1658755

> <PUBCHEM_TOTAL_CHARGE>
0

> <PUBCHEM_HEAVY_ATOM_COUNT>
26

> <PUBCHEM_ATOM_DEF_STEREO_COUNT>
1

> <PUBCHEM_ATOM_UDEF_STEREO_COUNT>
0

> <PUBCHEM_BOND_DEF_STEREO_COUNT>
0

> <PUBCHEM_BOND_UDEF_STEREO_COUNT>
0

> <PUBCHEM_ISOTOPIC_ATOM_COUNT>
0

> <PUBCHEM_COMPONENT_COUNT>
1

> <PUBCHEM_CACTVS_TAUTO_COUNT>
-1

> <PUBCHEM_COORDINATE_TYPE>
1
5
255

> <PUBCHEM_BONDANNOTATIONS>
12  14  8
12  15  8
14  19  8
15  16  8
16  20  8
17  18  8
17  22  8
18  23  8
19  20  8
22  25  8
23  26  8
25  26  8
5  11  5

$$$$
