145950605
  -OEChem-09292322382D

 61 63  0     1  0  0  0  0  0999 V2000
    4.5407    0.0000    0.0000 Cl  0  0  0  0  0  0  0  0  0  0  0  0
    0.0000    6.2613    0.0000 Cl  0  0  0  0  0  0  0  0  0  0  0  0
    6.2656    6.9074    0.0000 O   0  0  0  0  0  0  0  0  0  0  0  0
    6.1285    3.1910    0.0000 O   0  0  0  0  0  0  0  0  0  0  0  0
    5.0407    6.5388    0.0000 O   0  0  0  0  0  0  0  0  0  0  0  0
    8.1677    7.5254    0.0000 N   0  0  0  0  0  0  0  0  0  0  0  0
    8.5835    9.4817    0.0000 N   0  0  0  0  0  0  0  0  0  0  0  0
    5.8497    4.9511    0.0000 N   0  0  0  0  0  0  0  0  0  0  0  0
    4.2317    4.9511    0.0000 N   0  0  0  0  0  0  0  0  0  0  0  0
   11.2287    9.4306    0.0000 N   0  0  0  0  0  0  0  0  0  0  0  0
    7.9598    6.5472    0.0000 C   0  0  0  0  0  0  0  0  0  0  0  0
    9.1187    7.8344    0.0000 C   0  0  0  0  0  0  0  0  0  0  0  0
    7.4245    8.1945    0.0000 C   0  0  0  0  0  0  0  0  0  0  0  0
    7.0087    6.2382    0.0000 C   0  0  3  0  0  0  0  0  0  0  0  0
    9.3266    8.8126    0.0000 C   0  0  0  0  0  0  0  0  0  0  0  0
    7.6324    9.1727    0.0000 C   0  0  0  0  0  0  0  0  0  0  0  0
    4.5407    4.0000    0.0000 C   0  0  3  0  0  0  0  0  0  0  0  0
    6.8008    5.2601    0.0000 C   0  0  0  0  0  0  0  0  0  0  0  0
    5.5407    4.0000    0.0000 C   0  0  0  0  0  0  0  0  0  0  0  0
    5.0407    5.5388    0.0000 C   0  0  0  0  0  0  0  0  0  0  0  0
    4.5407    3.0000    0.0000 C   0  0  0  0  0  0  0  0  0  0  0  0
    3.5896    3.6910    0.0000 C   0  0  0  0  0  0  0  0  0  0  0  0
    8.7914   10.4598    0.0000 C   0  0  0  0  0  0  0  0  0  0  0  0
    5.4067    2.5000    0.0000 C   0  0  0  0  0  0  0  0  0  0  0  0
    3.6747    2.5000    0.0000 C   0  0  0  0  0  0  0  0  0  0  0  0
    9.7425   10.7688    0.0000 C   0  0  0  0  0  0  0  0  0  0  0  0
    8.0482   11.1290    0.0000 C   0  0  0  0  0  0  0  0  0  0  0  0
    5.4067    1.5000    0.0000 C   0  0  0  0  0  0  0  0  0  0  0  0
    3.6747    1.5000    0.0000 C   0  0  0  0  0  0  0  0  0  0  0  0
    9.9504   11.7470    0.0000 C   0  0  0  0  0  0  0  0  0  0  0  0
    8.2562   12.1071    0.0000 C   0  0  0  0  0  0  0  0  0  0  0  0
    4.5407    1.0000    0.0000 C   0  0  0  0  0  0  0  0  0  0  0  0
    9.2072   12.4161    0.0000 C   0  0  0  0  0  0  0  0  0  0  0  0
   10.4856   10.0997    0.0000 C   0  0  0  0  0  0  0  0  0  0  0  0
    8.0460    5.9333    0.0000 H   0  0  0  0  0  0  0  0  0  0  0  0
    8.5794    6.5256    0.0000 H   0  0  0  0  0  0  0  0  0  0  0  0
    9.2050    7.2204    0.0000 H   0  0  0  0  0  0  0  0  0  0  0  0
    9.7383    7.8128    0.0000 H   0  0  0  0  0  0  0  0  0  0  0  0
    6.8497    8.4268    0.0000 H   0  0  0  0  0  0  0  0  0  0  0  0
    7.0960    7.6687    0.0000 H   0  0  0  0  0  0  0  0  0  0  0  0
    6.4190    6.0466    0.0000 H   0  0  0  0  0  0  0  0  0  0  0  0
    9.9015    8.5803    0.0000 H   0  0  0  0  0  0  0  0  0  0  0  0
    9.6552    9.3383    0.0000 H   0  0  0  0  0  0  0  0  0  0  0  0
    7.5461    9.7866    0.0000 H   0  0  0  0  0  0  0  0  0  0  0  0
    7.0128    9.1943    0.0000 H   0  0  0  0  0  0  0  0  0  0  0  0
    6.8871    4.6461    0.0000 H   0  0  0  0  0  0  0  0  0  0  0  0
    7.4204    5.2384    0.0000 H   0  0  0  0  0  0  0  0  0  0  0  0
    3.6420    5.1426    0.0000 H   0  0  0  0  0  0  0  0  0  0  0  0
    3.3981    4.2806    0.0000 H   0  0  0  0  0  0  0  0  0  0  0  0
    3.0000    3.4994    0.0000 H   0  0  0  0  0  0  0  0  0  0  0  0
    3.7812    3.1013    0.0000 H   0  0  0  0  0  0  0  0  0  0  0  0
    6.3945    7.5138    0.0000 H   0  0  0  0  0  0  0  0  0  0  0  0
    5.9437    2.8100    0.0000 H   0  0  0  0  0  0  0  0  0  0  0  0
    3.1378    2.8100    0.0000 H   0  0  0  0  0  0  0  0  0  0  0  0
    7.4586   10.9374    0.0000 H   0  0  0  0  0  0  0  0  0  0  0  0
    5.9437    1.1900    0.0000 H   0  0  0  0  0  0  0  0  0  0  0  0
    3.1378    1.1900    0.0000 H   0  0  0  0  0  0  0  0  0  0  0  0
   10.5400   11.9386    0.0000 H   0  0  0  0  0  0  0  0  0  0  0  0
    7.7954   12.5220    0.0000 H   0  0  0  0  0  0  0  0  0  0  0  0
    9.3361   13.0226    0.0000 H   0  0  0  0  0  0  0  0  0  0  0  0
    1.0000    6.2613    0.0000 H   0  0  0  0  0  0  0  0  0  0  0  0
  1 32  1  0  0  0  0
  2 61  1  0  0  0  0
  3 14  1  0  0  0  0
  3 52  1  0  0  0  0
  4 19  2  0  0  0  0
  5 20  2  0  0  0  0
  6 11  1  0  0  0  0
  6 12  1  0  0  0  0
  6 13  1  0  0  0  0
  7 15  1  0  0  0  0
  7 16  1  0  0  0  0
  7 23  1  0  0  0  0
  8 18  1  0  0  0  0
  8 19  1  0  0  0  0
  8 20  1  0  0  0  0
  9 17  1  0  0  0  0
  9 20  1  0  0  0  0
  9 48  1  0  0  0  0
 10 34  3  0  0  0  0
 11 14  1  0  0  0  0
 11 35  1  0  0  0  0
 11 36  1  0  0  0  0
 12 15  1  0  0  0  0
 12 37  1  0  0  0  0
 12 38  1  0  0  0  0
 13 16  1  0  0  0  0
 13 39  1  0  0  0  0
 13 40  1  0  0  0  0
 14 18  1  0  0  0  0
 14 41  1  0  0  0  0
 15 42  1  0  0  0  0
 15 43  1  0  0  0  0
 16 44  1  0  0  0  0
 16 45  1  0  0  0  0
 17 19  1  0  0  0  0
 17 21  1  0  0  0  0
 17 22  1  0  0  0  0
 18 46  1  0  0  0  0
 18 47  1  0  0  0  0
 21 24  2  0  0  0  0
 21 25  1  0  0  0  0
 22 49  1  0  0  0  0
 22 50  1  0  0  0  0
 22 51  1  0  0  0  0
 23 26  1  0  0  0  0
 23 27  2  0  0  0  0
 24 28  1  0  0  0  0
 24 53  1  0  0  0  0
 25 29  2  0  0  0  0
 25 54  1  0  0  0  0
 26 30  2  0  0  0  0
 26 34  1  0  0  0  0
 27 31  1  0  0  0  0
 27 55  1  0  0  0  0
 28 32  2  0  0  0  0
 28 56  1  0  0  0  0
 29 32  1  0  0  0  0
 29 57  1  0  0  0  0
 30 33  1  0  0  0  0
 30 58  1  0  0  0  0
 31 33  2  0  0  0  0
 31 59  1  0  0  0  0
 33 60  1  0  0  0  0
M  END
> <PUBCHEM_COMPOUND_CID>
145950605

> <PUBCHEM_COMPOUND_CANONICALIZED>
1

> <PUBCHEM_CACTVS_COMPLEXITY>
771

> <PUBCHEM_CACTVS_HBOND_ACCEPTOR>
6

> <PUBCHEM_CACTVS_HBOND_DONOR>
3

> <PUBCHEM_CACTVS_ROTATABLE_BOND>
6

> <PUBCHEM_CACTVS_SUBSKEYS>
AAADceB7sAAGAAAAAAAAAAAAAAAAAWAAAAA8YIAAAAAAAAABQAAAHgIQCAAADJ7hmCYzwIPAAgCYBiVSUACiAAAhBwAIiAGIZoiK8DLB17GUIAholyLYyA8YiMCOhAAAAAACAAAIAAAAAAQAAAAAAAAAAA==

> <PUBCHEM_IUPAC_OPENEYE_NAME>
2-[4-[3-[4-(4-chlorophenyl)-4-methyl-2,5-dioxo-imidazolidin-1-yl]-2-hydroxy-propyl]piperazin-1-yl]benzonitrile;hydrochloride

> <PUBCHEM_IUPAC_CAS_NAME>
2-[4-[3-[4-(4-chlorophenyl)-4-methyl-2,5-dioxo-1-imidazolidinyl]-2-hydroxypropyl]-1-piperazinyl]benzonitrile;hydrochloride

> <PUBCHEM_IUPAC_NAME_MARKUP>
2-[4-[3-[4-(4-chlorophenyl)-4-methyl-2,5-dioxoimidazolidin-1-yl]-2-hydroxypropyl]piperazin-1-yl]benzonitrile;hydrochloride

> <PUBCHEM_IUPAC_NAME>
2-[4-[3-[4-(4-chlorophenyl)-4-methyl-2,5-dioxoimidazolidin-1-yl]-2-hydroxypropyl]piperazin-1-yl]benzonitrile;hydrochloride

> <PUBCHEM_IUPAC_SYSTEMATIC_NAME>
2-[4-[3-[4-(4-chlorophenyl)-4-methyl-2,5-bis(oxidanylidene)imidazolidin-1-yl]-2-oxidanyl-propyl]piperazin-1-yl]benzenecarbonitrile;hydrochloride

> <PUBCHEM_IUPAC_TRADITIONAL_NAME>
2-[4-[3-[4-(4-chlorophenyl)-2,5-diketo-4-methyl-imidazolidin-1-yl]-2-hydroxy-propyl]piperazino]benzonitrile;hydrochloride

> <PUBCHEM_IUPAC_INCHI>
InChI=1S/C24H26ClN5O3.ClH/c1-24(18-6-8-19(25)9-7-18)22(32)30(23(33)27-24)16-20(31)15-28-10-12-29(13-11-28)21-5-3-2-4-17(21)14-26;/h2-9,20,31H,10-13,15-16H2,1H3,(H,27,33);1H

> <PUBCHEM_IUPAC_INCHIKEY>
GKYUYTZDIJOGKR-UHFFFAOYSA-N

> <PUBCHEM_EXACT_MASS>
503.1490951

> <PUBCHEM_MOLECULAR_FORMULA>
C24H27Cl2N5O3

> <PUBCHEM_MOLECULAR_WEIGHT>
504.4

> <PUBCHEM_OPENEYE_CAN_SMILES>
CC1(C(=O)N(C(=O)N1)CC(CN2CCN(CC2)C3=CC=CC=C3C#N)O)C4=CC=C(C=C4)Cl.Cl

> <PUBCHEM_OPENEYE_ISO_SMILES>
CC1(C(=O)N(C(=O)N1)CC(CN2CCN(CC2)C3=CC=CC=C3C#N)O)C4=CC=C(C=C4)Cl.Cl

> <PUBCHEM_CACTVS_TPSA>
99.9

> <PUBCHEM_MONOISOTOPIC_WEIGHT>
503.1490951

> <PUBCHEM_TOTAL_CHARGE>
0

> <PUBCHEM_HEAVY_ATOM_COUNT>
34

> <PUBCHEM_ATOM_DEF_STEREO_COUNT>
0

> <PUBCHEM_ATOM_UDEF_STEREO_COUNT>
2

> <PUBCHEM_BOND_DEF_STEREO_COUNT>
0

> <PUBCHEM_BOND_UDEF_STEREO_COUNT>
0

> <PUBCHEM_ISOTOPIC_ATOM_COUNT>
0

> <PUBCHEM_COMPONENT_COUNT>
2

> <PUBCHEM_CACTVS_TAUTO_COUNT>
-1

> <PUBCHEM_COORDINATE_TYPE>
1
5
255

> <PUBCHEM_BONDANNOTATIONS>
17  22  3
21  24  8
21  25  8
23  26  8
23  27  8
24  28  8
25  29  8
26  30  8
27  31  8
28  32  8
29  32  8
14  3  3
30  33  8
31  33  8

$$$$
