45264539
  -OEChem-09292322192D

 34 35  0     0  0  0  0  0  0999 V2000
    3.1284    0.0000    0.0000 Cl  0  0  0  0  0  0  0  0  0  0  0  0
    3.2078    3.1676    0.0000 O   0  0  0  0  0  0  0  0  0  0  0  0
    2.8988    5.7367    0.0000 O   0  0  0  0  0  0  0  0  0  0  0  0
    0.6200    3.9766    0.0000 N   0  0  0  0  0  0  0  0  0  0  0  0
    2.6200    3.9766    0.0000 C   0  0  0  0  0  0  0  0  0  0  0  0
    2.1200    3.1106    0.0000 C   0  0  0  0  0  0  0  0  0  0  0  0
    2.1200    4.8426    0.0000 C   0  0  0  0  0  0  0  0  0  0  0  0
    1.1200    3.1106    0.0000 C   0  0  0  0  0  0  0  0  0  0  0  0
    1.1200    4.8426    0.0000 C   0  0  0  0  0  0  0  0  0  0  0  0
    3.2078    4.7856    0.0000 C   0  0  0  0  0  0  0  0  0  0  0  0
    4.1588    4.4766    0.0000 C   0  0  0  0  0  0  0  0  0  0  0  0
    4.1588    3.4766    0.0000 C   0  0  0  0  0  0  0  0  0  0  0  0
    4.9679    5.0644    0.0000 C   0  0  0  0  0  0  0  0  0  0  0  0
    4.8633    6.0589    0.0000 C   0  0  0  0  0  0  0  0  0  0  0  0
    5.8814    4.6576    0.0000 C   0  0  0  0  0  0  0  0  0  0  0  0
    5.6724    6.6467    0.0000 C   0  0  0  0  0  0  0  0  0  0  0  0
    6.6904    5.2454    0.0000 C   0  0  0  0  0  0  0  0  0  0  0  0
    6.5859    6.2400    0.0000 C   0  0  0  0  0  0  0  0  0  0  0  0
    2.0123    2.5000    0.0000 H   0  0  0  0  0  0  0  0  0  0  0  0
    2.7026    2.8985    0.0000 H   0  0  0  0  0  0  0  0  0  0  0  0
    2.7026    5.0547    0.0000 H   0  0  0  0  0  0  0  0  0  0  0  0
    2.0123    5.4532    0.0000 H   0  0  0  0  0  0  0  0  0  0  0  0
    0.5374    2.8985    0.0000 H   0  0  0  0  0  0  0  0  0  0  0  0
    1.2277    2.5000    0.0000 H   0  0  0  0  0  0  0  0  0  0  0  0
    1.2277    5.4532    0.0000 H   0  0  0  0  0  0  0  0  0  0  0  0
    0.5374    5.0547    0.0000 H   0  0  0  0  0  0  0  0  0  0  0  0
    0.0000    3.9766    0.0000 H   0  0  0  0  0  0  0  0  0  0  0  0
    4.6604    3.1122    0.0000 H   0  0  0  0  0  0  0  0  0  0  0  0
    4.2969    6.3111    0.0000 H   0  0  0  0  0  0  0  0  0  0  0  0
    5.9462    4.0410    0.0000 H   0  0  0  0  0  0  0  0  0  0  0  0
    5.6075    7.2633    0.0000 H   0  0  0  0  0  0  0  0  0  0  0  0
    7.2568    4.9933    0.0000 H   0  0  0  0  0  0  0  0  0  0  0  0
    7.0875    6.6044    0.0000 H   0  0  0  0  0  0  0  0  0  0  0  0
    4.1284    0.0000    0.0000 H   0  0  0  0  0  0  0  0  0  0  0  0
  1 34  1  0  0  0  0
  2  5  1  0  0  0  0
  2 12  1  0  0  0  0
  3 10  2  0  0  0  0
  4  8  1  0  0  0  0
  4  9  1  0  0  0  0
  4 27  1  0  0  0  0
  5  6  1  0  0  0  0
  5  7  1  0  0  0  0
  5 10  1  0  0  0  0
  6  8  1  0  0  0  0
  6 19  1  0  0  0  0
  6 20  1  0  0  0  0
  7  9  1  0  0  0  0
  7 21  1  0  0  0  0
  7 22  1  0  0  0  0
  8 23  1  0  0  0  0
  8 24  1  0  0  0  0
  9 25  1  0  0  0  0
  9 26  1  0  0  0  0
 10 11  1  0  0  0  0
 11 12  2  0  0  0  0
 11 13  1  0  0  0  0
 12 28  1  0  0  0  0
 13 14  2  0  0  0  0
 13 15  1  0  0  0  0
 14 16  1  0  0  0  0
 14 29  1  0  0  0  0
 15 17  2  0  0  0  0
 15 30  1  0  0  0  0
 16 18  2  0  0  0  0
 16 31  1  0  0  0  0
 17 18  1  0  0  0  0
 17 32  1  0  0  0  0
 18 33  1  0  0  0  0
M  END
> <PUBCHEM_COMPOUND_CID>
45264539

> <PUBCHEM_COMPOUND_CANONICALIZED>
1

> <PUBCHEM_CACTVS_COMPLEXITY>
336

> <PUBCHEM_CACTVS_HBOND_ACCEPTOR>
3

> <PUBCHEM_CACTVS_HBOND_DONOR>
2

> <PUBCHEM_CACTVS_ROTATABLE_BOND>
1

> <PUBCHEM_CACTVS_SUBSKEYS>
AAADceByMAAEAAAAAAAAAAAAAAAAAQAAAAA8QAAAAAAAAAABAAAAHgAQAAAADEThmAYwAILABACIAqBSAAICCAAgIAAIiIFIAMgIIDKAlRSEIAAm0ACIiIecyOCOAAAAAAAAAAAAAAAAAAAAAAAAAAAAAA==

> <PUBCHEM_IUPAC_OPENEYE_NAME>
3-phenyl-1-oxa-8-azaspiro[4.5]dec-2-en-4-one;hydrochloride

> <PUBCHEM_IUPAC_CAS_NAME>
3-phenyl-1-oxa-8-azaspiro[4.5]dec-2-en-4-one;hydrochloride

> <PUBCHEM_IUPAC_NAME_MARKUP>
3-phenyl-1-oxa-8-azaspiro[4.5]dec-2-en-4-one;hydrochloride

> <PUBCHEM_IUPAC_NAME>
3-phenyl-1-oxa-8-azaspiro[4.5]dec-2-en-4-one;hydrochloride

> <PUBCHEM_IUPAC_SYSTEMATIC_NAME>
3-phenyl-1-oxa-8-azaspiro[4.5]dec-2-en-4-one;hydrochloride

> <PUBCHEM_IUPAC_TRADITIONAL_NAME>
3-phenyl-1-oxa-8-azaspiro[4.5]dec-2-en-4-one;hydrochloride

> <PUBCHEM_IUPAC_INCHI>
InChI=1S/C14H15NO2.ClH/c16-13-12(11-4-2-1-3-5-11)10-17-14(13)6-8-15-9-7-14;/h1-5,10,15H,6-9H2;1H

> <PUBCHEM_IUPAC_INCHIKEY>
FMHSCAAVUDTCCE-UHFFFAOYSA-N

> <PUBCHEM_EXACT_MASS>
265.0869564

> <PUBCHEM_MOLECULAR_FORMULA>
C14H16ClNO2

> <PUBCHEM_MOLECULAR_WEIGHT>
265.73

> <PUBCHEM_OPENEYE_CAN_SMILES>
C1CNCCC12C(=O)C(=CO2)C3=CC=CC=C3.Cl

> <PUBCHEM_OPENEYE_ISO_SMILES>
C1CNCCC12C(=O)C(=CO2)C3=CC=CC=C3.Cl

> <PUBCHEM_CACTVS_TPSA>
38.3

> <PUBCHEM_MONOISOTOPIC_WEIGHT>
265.0869564

> <PUBCHEM_TOTAL_CHARGE>
0

> <PUBCHEM_HEAVY_ATOM_COUNT>
18

> <PUBCHEM_ATOM_DEF_STEREO_COUNT>
0

> <PUBCHEM_ATOM_UDEF_STEREO_COUNT>
0

> <PUBCHEM_BOND_DEF_STEREO_COUNT>
0

> <PUBCHEM_BOND_UDEF_STEREO_COUNT>
0

> <PUBCHEM_ISOTOPIC_ATOM_COUNT>
0

> <PUBCHEM_COMPONENT_COUNT>
2

> <PUBCHEM_CACTVS_TAUTO_COUNT>
-1

> <PUBCHEM_COORDINATE_TYPE>
1
5
255

> <PUBCHEM_BONDANNOTATIONS>
13  14  8
13  15  8
14  16  8
15  17  8
16  18  8
17  18  8

$$$$
