46914775
  -OEChem-09292322302D

 55 58  0     0  0  0  0  0  0999 V2000
    4.6783    1.7264    0.0000 O   0  0  0  0  0  0  0  0  0  0  0  0
   11.2619   -2.6651    0.0000 O   0  0  0  0  0  0  0  0  0  0  0  0
    6.7619    1.6651    0.0000 N   0  0  0  0  0  0  0  0  0  0  0  0
    7.7619   -0.0670    0.0000 N   0  0  0  0  0  0  0  0  0  0  0  0
    6.2619    0.7990    0.0000 C   0  0  0  0  0  0  0  0  0  0  0  0
    7.7619    1.6651    0.0000 C   0  0  0  0  0  0  0  0  0  0  0  0
    6.7619   -0.0670    0.0000 C   0  0  0  0  0  0  0  0  0  0  0  0
    8.2619    0.7990    0.0000 C   0  0  0  0  0  0  0  0  0  0  0  0
    6.2619    2.5311    0.0000 C   0  0  0  0  0  0  0  0  0  0  0  0
    8.2619   -0.9330    0.0000 C   0  0  0  0  0  0  0  0  0  0  0  0
    5.2619    2.5311    0.0000 C   0  0  0  0  0  0  0  0  0  0  0  0
    9.2619   -0.9330    0.0000 C   0  0  0  0  0  0  0  0  0  0  0  0
    4.6783    3.3358    0.0000 C   0  0  0  0  0  0  0  0  0  0  0  0
    9.7619   -1.7990    0.0000 C   0  0  0  0  0  0  0  0  0  0  0  0
    9.7619   -0.0670    0.0000 C   0  0  0  0  0  0  0  0  0  0  0  0
    3.7320    3.0311    0.0000 C   0  0  0  0  0  0  0  0  0  0  0  0
    3.7320    2.0311    0.0000 C   0  0  0  0  0  0  0  0  0  0  0  0
   10.7619   -1.7990    0.0000 C   0  0  0  0  0  0  0  0  0  0  0  0
   10.7619   -0.0670    0.0000 C   0  0  0  0  0  0  0  0  0  0  0  0
   11.2619   -0.9330    0.0000 C   0  0  0  0  0  0  0  0  0  0  0  0
    2.8660    3.5311    0.0000 C   0  0  0  0  0  0  0  0  0  0  0  0
    2.8660    1.5311    0.0000 C   0  0  0  0  0  0  0  0  0  0  0  0
    2.0000    3.0311    0.0000 C   0  0  0  0  0  0  0  0  0  0  0  0
    2.0000    2.0311    0.0000 C   0  0  0  0  0  0  0  0  0  0  0  0
   12.2619   -2.6651    0.0000 C   0  0  0  0  0  0  0  0  0  0  0  0
   12.7619   -3.5311    0.0000 C   0  0  0  0  0  0  0  0  0  0  0  0
   13.7619   -3.5311    0.0000 C   0  0  0  0  0  0  0  0  0  0  0  0
    5.7869    1.1976    0.0000 H   0  0  0  0  0  0  0  0  0  0  0  0
    5.7869    0.4005    0.0000 H   0  0  0  0  0  0  0  0  0  0  0  0
    8.3445    1.8771    0.0000 H   0  0  0  0  0  0  0  0  0  0  0  0
    7.6542    2.2756    0.0000 H   0  0  0  0  0  0  0  0  0  0  0  0
    6.1793   -0.2790    0.0000 H   0  0  0  0  0  0  0  0  0  0  0  0
    6.8695   -0.6776    0.0000 H   0  0  0  0  0  0  0  0  0  0  0  0
    8.7368    0.4005    0.0000 H   0  0  0  0  0  0  0  0  0  0  0  0
    8.7368    1.1976    0.0000 H   0  0  0  0  0  0  0  0  0  0  0  0
    6.8445    2.7431    0.0000 H   0  0  0  0  0  0  0  0  0  0  0  0
    6.1542    3.1417    0.0000 H   0  0  0  0  0  0  0  0  0  0  0  0
    7.6793   -1.1451    0.0000 H   0  0  0  0  0  0  0  0  0  0  0  0
    8.3695   -1.5436    0.0000 H   0  0  0  0  0  0  0  0  0  0  0  0
    4.8709    3.9251    0.0000 H   0  0  0  0  0  0  0  0  0  0  0  0
    9.4519   -2.3360    0.0000 H   0  0  0  0  0  0  0  0  0  0  0  0
    9.4519    0.4699    0.0000 H   0  0  0  0  0  0  0  0  0  0  0  0
   11.0719    0.4699    0.0000 H   0  0  0  0  0  0  0  0  0  0  0  0
   11.8819   -0.9330    0.0000 H   0  0  0  0  0  0  0  0  0  0  0  0
    2.8660    4.1511    0.0000 H   0  0  0  0  0  0  0  0  0  0  0  0
    2.8660    0.9111    0.0000 H   0  0  0  0  0  0  0  0  0  0  0  0
    1.4631    3.3411    0.0000 H   0  0  0  0  0  0  0  0  0  0  0  0
    1.4631    1.7211    0.0000 H   0  0  0  0  0  0  0  0  0  0  0  0
   12.8445   -2.4530    0.0000 H   0  0  0  0  0  0  0  0  0  0  0  0
   12.1542   -2.0545    0.0000 H   0  0  0  0  0  0  0  0  0  0  0  0
   12.1793   -3.7431    0.0000 H   0  0  0  0  0  0  0  0  0  0  0  0
   12.8695   -4.1417    0.0000 H   0  0  0  0  0  0  0  0  0  0  0  0
   13.7619   -4.1511    0.0000 H   0  0  0  0  0  0  0  0  0  0  0  0
   14.3819   -3.5311    0.0000 H   0  0  0  0  0  0  0  0  0  0  0  0
   13.7619   -2.9111    0.0000 H   0  0  0  0  0  0  0  0  0  0  0  0
  1 11  1  0  0  0  0
  1 17  1  0  0  0  0
  2 18  1  0  0  0  0
  2 25  1  0  0  0  0
  3  5  1  0  0  0  0
  3  6  1  0  0  0  0
  3  9  1  0  0  0  0
  4  7  1  0  0  0  0
  4  8  1  0  0  0  0
  4 10  1  0  0  0  0
  5  7  1  0  0  0  0
  5 28  1  0  0  0  0
  5 29  1  0  0  0  0
  6  8  1  0  0  0  0
  6 30  1  0  0  0  0
  6 31  1  0  0  0  0
  7 32  1  0  0  0  0
  7 33  1  0  0  0  0
  8 34  1  0  0  0  0
  8 35  1  0  0  0  0
  9 11  1  0  0  0  0
  9 36  1  0  0  0  0
  9 37  1  0  0  0  0
 10 12  1  0  0  0  0
 10 38  1  0  0  0  0
 10 39  1  0  0  0  0
 11 13  2  0  0  0  0
 12 14  2  0  0  0  0
 12 15  1  0  0  0  0
 13 16  1  0  0  0  0
 13 40  1  0  0  0  0
 14 18  1  0  0  0  0
 14 41  1  0  0  0  0
 15 19  2  0  0  0  0
 15 42  1  0  0  0  0
 16 17  1  0  0  0  0
 16 21  2  0  0  0  0
 17 22  2  0  0  0  0
 18 20  2  0  0  0  0
 19 20  1  0  0  0  0
 19 43  1  0  0  0  0
 20 44  1  0  0  0  0
 21 23  1  0  0  0  0
 21 45  1  0  0  0  0
 22 24  1  0  0  0  0
 22 46  1  0  0  0  0
 23 24  2  0  0  0  0
 23 47  1  0  0  0  0
 24 48  1  0  0  0  0
 25 26  1  0  0  0  0
 25 49  1  0  0  0  0
 25 50  1  0  0  0  0
 26 27  1  0  0  0  0
 26 51  1  0  0  0  0
 26 52  1  0  0  0  0
 27 53  1  0  0  0  0
 27 54  1  0  0  0  0
 27 55  1  0  0  0  0
M  END
> <PUBCHEM_COMPOUND_CID>
46914775

> <PUBCHEM_COMPOUND_CANONICALIZED>
1

> <PUBCHEM_CACTVS_COMPLEXITY>
438

> <PUBCHEM_CACTVS_HBOND_ACCEPTOR>
4

> <PUBCHEM_CACTVS_HBOND_DONOR>
0

> <PUBCHEM_CACTVS_ROTATABLE_BOND>
7

> <PUBCHEM_CACTVS_SUBSKEYS>
AAADceB7MAAAAAAAAAAAAAAAAAAAASAAAAA8YIAAAAAAAEgB9AAAHgAAAAAADAThmAYyBsMABECIAqBSAACCCAAkIAAIiAGODMgOZjKEtTuXOSjkwBGYqYe42bKOAAABAAAIAAAAAAIAABAAAAAAAAAAAA==

> <PUBCHEM_IUPAC_OPENEYE_NAME>
1-(benzofuran-2-ylmethyl)-4-[(3-propoxyphenyl)methyl]piperazine

> <PUBCHEM_IUPAC_CAS_NAME>
1-(2-benzofuranylmethyl)-4-[(3-propoxyphenyl)methyl]piperazine

> <PUBCHEM_IUPAC_NAME_MARKUP>
1-(1-benzofuran-2-ylmethyl)-4-[(3-propoxyphenyl)methyl]piperazine

> <PUBCHEM_IUPAC_NAME>
1-(1-benzofuran-2-ylmethyl)-4-[(3-propoxyphenyl)methyl]piperazine

> <PUBCHEM_IUPAC_SYSTEMATIC_NAME>
1-(1-benzofuran-2-ylmethyl)-4-[(3-propoxyphenyl)methyl]piperazine

> <PUBCHEM_IUPAC_TRADITIONAL_NAME>
1-(benzofuran-2-ylmethyl)-4-(3-propoxybenzyl)piperazine

> <PUBCHEM_IUPAC_INCHI>
InChI=1S/C23H28N2O2/c1-2-14-26-21-8-5-6-19(15-21)17-24-10-12-25(13-11-24)18-22-16-20-7-3-4-9-23(20)27-22/h3-9,15-16H,2,10-14,17-18H2,1H3

> <PUBCHEM_IUPAC_INCHIKEY>
CZPHWPDUDLEVFW-UHFFFAOYSA-N

> <PUBCHEM_XLOGP3_AA>
4.4

> <PUBCHEM_EXACT_MASS>
364.215078140

> <PUBCHEM_MOLECULAR_FORMULA>
C23H28N2O2

> <PUBCHEM_MOLECULAR_WEIGHT>
364.5

> <PUBCHEM_OPENEYE_CAN_SMILES>
CCCOC1=CC=CC(=C1)CN2CCN(CC2)CC3=CC4=CC=CC=C4O3

> <PUBCHEM_OPENEYE_ISO_SMILES>
CCCOC1=CC=CC(=C1)CN2CCN(CC2)CC3=CC4=CC=CC=C4O3

> <PUBCHEM_CACTVS_TPSA>
28.8

> <PUBCHEM_MONOISOTOPIC_WEIGHT>
364.215078140

> <PUBCHEM_TOTAL_CHARGE>
0

> <PUBCHEM_HEAVY_ATOM_COUNT>
27

> <PUBCHEM_ATOM_DEF_STEREO_COUNT>
0

> <PUBCHEM_ATOM_UDEF_STEREO_COUNT>
0

> <PUBCHEM_BOND_DEF_STEREO_COUNT>
0

> <PUBCHEM_BOND_UDEF_STEREO_COUNT>
0

> <PUBCHEM_ISOTOPIC_ATOM_COUNT>
0

> <PUBCHEM_COMPONENT_COUNT>
1

> <PUBCHEM_CACTVS_TAUTO_COUNT>
-1

> <PUBCHEM_COORDINATE_TYPE>
1
5
255

> <PUBCHEM_BONDANNOTATIONS>
1  11  8
1  17  8
11  13  8
12  14  8
12  15  8
13  16  8
14  18  8
15  19  8
16  17  8
16  21  8
17  22  8
18  20  8
19  20  8
21  23  8
22  24  8
23  24  8

$$$$
