53363109
  -OEChem-09292322322D

 69 72  0     0  0  0  0  0  0999 V2000
    7.1962   -6.4920    0.0000 O   0  0  0  0  0  0  0  0  0  0  0  0
    4.5981    1.0080    0.0000 O   0  0  0  0  0  0  0  0  0  0  0  0
    2.8660    0.0080    0.0000 O   0  0  0  0  0  0  0  0  0  0  0  0
    5.4641   -3.4920    0.0000 N   0  0  0  0  0  0  0  0  0  0  0  0
    7.1962   -4.4920    0.0000 N   0  0  0  0  0  0  0  0  0  0  0  0
    5.9641    4.0469    0.0000 N   0  0  0  0  0  0  0  0  0  0  0  0
    4.9641    4.0469    0.0000 N   0  0  0  0  0  0  0  0  0  0  0  0
    4.6551    3.0958    0.0000 N   0  0  0  0  0  0  0  0  0  0  0  0
    6.3301   -2.9920    0.0000 C   0  0  0  0  0  0  0  0  0  0  0  0
    5.4641   -4.4920    0.0000 C   0  0  0  0  0  0  0  0  0  0  0  0
    7.1962   -3.4920    0.0000 C   0  0  0  0  0  0  0  0  0  0  0  0
    6.3301   -4.9920    0.0000 C   0  0  0  0  0  0  0  0  0  0  0  0
    4.5981   -2.9920    0.0000 C   0  0  0  0  0  0  0  0  0  0  0  0
    8.0622   -4.9920    0.0000 C   0  0  0  0  0  0  0  0  0  0  0  0
    4.5981   -1.9920    0.0000 C   0  0  0  0  0  0  0  0  0  0  0  0
    8.0622   -5.9920    0.0000 C   0  0  0  0  0  0  0  0  0  0  0  0
    8.9282   -4.4920    0.0000 C   0  0  0  0  0  0  0  0  0  0  0  0
    3.7320   -1.4920    0.0000 C   0  0  0  0  0  0  0  0  0  0  0  0
    5.4641   -1.4920    0.0000 C   0  0  0  0  0  0  0  0  0  0  0  0
    8.9282   -6.4920    0.0000 C   0  0  0  0  0  0  0  0  0  0  0  0
    9.7942   -4.9920    0.0000 C   0  0  0  0  0  0  0  0  0  0  0  0
    3.7320   -0.4920    0.0000 C   0  0  0  0  0  0  0  0  0  0  0  0
    5.4641   -0.4920    0.0000 C   0  0  0  0  0  0  0  0  0  0  0  0
    4.5981    0.0080    0.0000 C   0  0  0  0  0  0  0  0  0  0  0  0
    9.7942   -5.9920    0.0000 C   0  0  0  0  0  0  0  0  0  0  0  0
    6.5519    4.8559    0.0000 C   0  0  0  0  0  0  0  0  0  0  0  0
    5.4641    1.5080    0.0000 C   0  0  0  0  0  0  0  0  0  0  0  0
    6.1452    5.7694    0.0000 C   0  0  0  0  0  0  0  0  0  0  0  0
    7.1962   -7.4920    0.0000 C   0  0  0  0  0  0  0  0  0  0  0  0
    5.4641    2.5080    0.0000 C   0  0  0  0  0  0  0  0  0  0  0  0
    6.7329    6.5784    0.0000 C   0  0  0  0  0  0  0  0  0  0  0  0
    6.2731    3.0958    0.0000 C   0  0  0  0  0  0  0  0  0  0  0  0
    2.0000   -0.4920    0.0000 C   0  0  0  0  0  0  0  0  0  0  0  0
    6.3262    7.4920    0.0000 C   0  0  0  0  0  0  0  0  0  0  0  0
    6.7287   -2.5170    0.0000 H   0  0  0  0  0  0  0  0  0  0  0  0
    5.9316   -2.5170    0.0000 H   0  0  0  0  0  0  0  0  0  0  0  0
    4.8535   -4.3843    0.0000 H   0  0  0  0  0  0  0  0  0  0  0  0
    5.2520   -5.0746    0.0000 H   0  0  0  0  0  0  0  0  0  0  0  0
    7.8067   -3.5996    0.0000 H   0  0  0  0  0  0  0  0  0  0  0  0
    7.4082   -2.9094    0.0000 H   0  0  0  0  0  0  0  0  0  0  0  0
    5.9316   -5.4669    0.0000 H   0  0  0  0  0  0  0  0  0  0  0  0
    6.7287   -5.4669    0.0000 H   0  0  0  0  0  0  0  0  0  0  0  0
    3.9875   -2.8843    0.0000 H   0  0  0  0  0  0  0  0  0  0  0  0
    4.3860   -3.5746    0.0000 H   0  0  0  0  0  0  0  0  0  0  0  0
    8.9282   -3.8720    0.0000 H   0  0  0  0  0  0  0  0  0  0  0  0
    3.1951   -1.8020    0.0000 H   0  0  0  0  0  0  0  0  0  0  0  0
    6.0010   -1.8020    0.0000 H   0  0  0  0  0  0  0  0  0  0  0  0
    8.9282   -7.1120    0.0000 H   0  0  0  0  0  0  0  0  0  0  0  0
   10.3312   -4.6820    0.0000 H   0  0  0  0  0  0  0  0  0  0  0  0
    6.0010   -0.1820    0.0000 H   0  0  0  0  0  0  0  0  0  0  0  0
   10.3312   -6.3020    0.0000 H   0  0  0  0  0  0  0  0  0  0  0  0
    6.9826    4.4099    0.0000 H   0  0  0  0  0  0  0  0  0  0  0  0
    7.0659    5.2026    0.0000 H   0  0  0  0  0  0  0  0  0  0  0  0
    5.7145    6.2154    0.0000 H   0  0  0  0  0  0  0  0  0  0  0  0
    5.6312    5.4227    0.0000 H   0  0  0  0  0  0  0  0  0  0  0  0
    5.6762    0.9254    0.0000 H   0  0  0  0  0  0  0  0  0  0  0  0
    6.0747    1.6157    0.0000 H   0  0  0  0  0  0  0  0  0  0  0  0
    6.5762   -7.4920    0.0000 H   0  0  0  0  0  0  0  0  0  0  0  0
    7.1962   -8.1120    0.0000 H   0  0  0  0  0  0  0  0  0  0  0  0
    7.8162   -7.4920    0.0000 H   0  0  0  0  0  0  0  0  0  0  0  0
    7.1636    6.1325    0.0000 H   0  0  0  0  0  0  0  0  0  0  0  0
    7.2469    6.9251    0.0000 H   0  0  0  0  0  0  0  0  0  0  0  0
    6.8628    2.9042    0.0000 H   0  0  0  0  0  0  0  0  0  0  0  0
    1.6900    0.0450    0.0000 H   0  0  0  0  0  0  0  0  0  0  0  0
    1.4631   -0.8020    0.0000 H   0  0  0  0  0  0  0  0  0  0  0  0
    2.3100   -1.0289    0.0000 H   0  0  0  0  0  0  0  0  0  0  0  0
    6.8926    7.7442    0.0000 H   0  0  0  0  0  0  0  0  0  0  0  0
    6.0740    8.0584    0.0000 H   0  0  0  0  0  0  0  0  0  0  0  0
    5.7598    7.2398    0.0000 H   0  0  0  0  0  0  0  0  0  0  0  0
  1 16  1  0  0  0  0
  1 29  1  0  0  0  0
  2 24  1  0  0  0  0
  2 27  1  0  0  0  0
  3 22  1  0  0  0  0
  3 33  1  0  0  0  0
  4  9  1  0  0  0  0
  4 10  1  0  0  0  0
  4 13  1  0  0  0  0
  5 11  1  0  0  0  0
  5 12  1  0  0  0  0
  5 14  1  0  0  0  0
  6  7  1  0  0  0  0
  6 26  1  0  0  0  0
  6 32  1  0  0  0  0
  7  8  2  0  0  0  0
  8 30  1  0  0  0  0
  9 11  1  0  0  0  0
  9 35  1  0  0  0  0
  9 36  1  0  0  0  0
 10 12  1  0  0  0  0
 10 37  1  0  0  0  0
 10 38  1  0  0  0  0
 11 39  1  0  0  0  0
 11 40  1  0  0  0  0
 12 41  1  0  0  0  0
 12 42  1  0  0  0  0
 13 15  1  0  0  0  0
 13 43  1  0  0  0  0
 13 44  1  0  0  0  0
 14 16  1  0  0  0  0
 14 17  2  0  0  0  0
 15 18  2  0  0  0  0
 15 19  1  0  0  0  0
 16 20  2  0  0  0  0
 17 21  1  0  0  0  0
 17 45  1  0  0  0  0
 18 22  1  0  0  0  0
 18 46  1  0  0  0  0
 19 23  2  0  0  0  0
 19 47  1  0  0  0  0
 20 25  1  0  0  0  0
 20 48  1  0  0  0  0
 21 25  2  0  0  0  0
 21 49  1  0  0  0  0
 22 24  2  0  0  0  0
 23 24  1  0  0  0  0
 23 50  1  0  0  0  0
 25 51  1  0  0  0  0
 26 28  1  0  0  0  0
 26 52  1  0  0  0  0
 26 53  1  0  0  0  0
 27 30  1  0  0  0  0
 27 56  1  0  0  0  0
 27 57  1  0  0  0  0
 28 31  1  0  0  0  0
 28 54  1  0  0  0  0
 28 55  1  0  0  0  0
 29 58  1  0  0  0  0
 29 59  1  0  0  0  0
 29 60  1  0  0  0  0
 30 32  2  0  0  0  0
 31 34  1  0  0  0  0
 31 61  1  0  0  0  0
 31 62  1  0  0  0  0
 32 63  1  0  0  0  0
 33 64  1  0  0  0  0
 33 65  1  0  0  0  0
 33 66  1  0  0  0  0
 34 67  1  0  0  0  0
 34 68  1  0  0  0  0
 34 69  1  0  0  0  0
M  END
> <PUBCHEM_COMPOUND_CID>
53363109

> <PUBCHEM_COMPOUND_CANONICALIZED>
1

> <PUBCHEM_CACTVS_COMPLEXITY>
577

> <PUBCHEM_CACTVS_HBOND_ACCEPTOR>
7

> <PUBCHEM_CACTVS_HBOND_DONOR>
0

> <PUBCHEM_CACTVS_ROTATABLE_BOND>
11

> <PUBCHEM_CACTVS_SUBSKEYS>
AAADcfB7sAAAAAAAAAAAAAAAAAAAAWAAAAA8YIAAAAAAAAAB0AAAHgAIAAAADAzhngY+xpMIBACiAzRnRASCDAQxsgAY2AA//IgPZiLEsZuXOCrmwBHa6Aew0BIOIAABAAAAUABAAAIAAACgAAAAAAAAAA==

> <PUBCHEM_IUPAC_OPENEYE_NAME>
1-[[4-[(1-butyltriazol-4-yl)methoxy]-3-methoxy-phenyl]methyl]-4-(2-methoxyphenyl)piperazine

> <PUBCHEM_IUPAC_CAS_NAME>
1-[[4-[(1-butyl-4-triazolyl)methoxy]-3-methoxyphenyl]methyl]-4-(2-methoxyphenyl)piperazine

> <PUBCHEM_IUPAC_NAME_MARKUP>
1-[[4-[(1-butyltriazol-4-yl)methoxy]-3-methoxyphenyl]methyl]-4-(2-methoxyphenyl)piperazine

> <PUBCHEM_IUPAC_NAME>
1-[[4-[(1-butyltriazol-4-yl)methoxy]-3-methoxyphenyl]methyl]-4-(2-methoxyphenyl)piperazine

> <PUBCHEM_IUPAC_SYSTEMATIC_NAME>
1-[[4-[(1-butyl-1,2,3-triazol-4-yl)methoxy]-3-methoxy-phenyl]methyl]-4-(2-methoxyphenyl)piperazine

> <PUBCHEM_IUPAC_TRADITIONAL_NAME>
1-[4-[(1-butyltriazol-4-yl)methoxy]-3-methoxy-benzyl]-4-(2-methoxyphenyl)piperazine

> <PUBCHEM_IUPAC_INCHI>
InChI=1S/C26H35N5O3/c1-4-5-12-31-19-22(27-28-31)20-34-25-11-10-21(17-26(25)33-3)18-29-13-15-30(16-14-29)23-8-6-7-9-24(23)32-2/h6-11,17,19H,4-5,12-16,18,20H2,1-3H3

> <PUBCHEM_IUPAC_INCHIKEY>
DXCOQJVYSXJFAX-UHFFFAOYSA-N

> <PUBCHEM_XLOGP3_AA>
3.7

> <PUBCHEM_EXACT_MASS>
465.27399000

> <PUBCHEM_MOLECULAR_FORMULA>
C26H35N5O3

> <PUBCHEM_MOLECULAR_WEIGHT>
465.6

> <PUBCHEM_OPENEYE_CAN_SMILES>
CCCCN1C=C(N=N1)COC2=C(C=C(C=C2)CN3CCN(CC3)C4=CC=CC=C4OC)OC

> <PUBCHEM_OPENEYE_ISO_SMILES>
CCCCN1C=C(N=N1)COC2=C(C=C(C=C2)CN3CCN(CC3)C4=CC=CC=C4OC)OC

> <PUBCHEM_CACTVS_TPSA>
64.9

> <PUBCHEM_MONOISOTOPIC_WEIGHT>
465.27399000

> <PUBCHEM_TOTAL_CHARGE>
0

> <PUBCHEM_HEAVY_ATOM_COUNT>
34

> <PUBCHEM_ATOM_DEF_STEREO_COUNT>
0

> <PUBCHEM_ATOM_UDEF_STEREO_COUNT>
0

> <PUBCHEM_BOND_DEF_STEREO_COUNT>
0

> <PUBCHEM_BOND_UDEF_STEREO_COUNT>
0

> <PUBCHEM_ISOTOPIC_ATOM_COUNT>
0

> <PUBCHEM_COMPONENT_COUNT>
1

> <PUBCHEM_CACTVS_TAUTO_COUNT>
-1

> <PUBCHEM_COORDINATE_TYPE>
1
5
255

> <PUBCHEM_BONDANNOTATIONS>
14  16  8
14  17  8
15  18  8
15  19  8
16  20  8
17  21  8
18  22  8
19  23  8
20  25  8
21  25  8
22  24  8
23  24  8
30  32  8
6  32  8
6  7  8
7  8  8
8  30  8

$$$$
