138670324
  -OEChem-09292322452D

 67 71  0     1  0  0  0  0  0999 V2000
   18.5744    1.5188    0.0000 F   0  0  0  0  0  0  0  0  0  0  0  0
   17.7026    3.0154    0.0000 F   0  0  0  0  0  0  0  0  0  0  0  0
    5.5161   -0.0154    0.0000 O   0  0  0  0  0  0  0  0  0  0  0  0
   15.9744    2.0087    0.0000 O   0  0  0  0  0  0  0  0  0  0  0  0
   11.5783    0.4846    0.0000 N   0  0  3  0  0  0  0  0  0  0  0  0
    6.3821   -1.5154    0.0000 N   0  0  0  0  0  0  0  0  0  0  0  0
   14.2043    2.0192    0.0000 N   0  0  0  0  0  0  0  0  0  0  0  0
   15.1103    0.4638    0.0000 N   0  0  0  0  0  0  0  0  0  0  0  0
    2.0080   -1.0086    0.0000 N   0  0  0  0  0  0  0  0  0  0  0  0
    8.9802   -0.0154    0.0000 C   0  0  0  0  0  0  0  0  0  0  0  0
    8.9802   -1.0154    0.0000 C   0  0  0  0  0  0  0  0  0  0  0  0
    8.1142    0.4846    0.0000 C   0  0  0  0  0  0  0  0  0  0  0  0
    7.2482   -1.0154    0.0000 C   0  0  0  0  0  0  0  0  0  0  0  0
    8.1142   -1.5154    0.0000 C   0  0  0  0  0  0  0  0  0  0  0  0
    7.2482   -0.0154    0.0000 C   0  0  0  0  0  0  0  0  0  0  0  0
    9.8462    0.4846    0.0000 C   0  0  0  0  0  0  0  0  0  0  0  0
   10.7123   -0.0154    0.0000 C   0  0  0  0  0  0  0  0  0  0  0  0
   11.5783    1.4846    0.0000 C   0  0  0  0  0  0  0  0  0  0  0  0
   12.4443   -0.0154    0.0000 C   0  0  0  0  0  0  0  0  0  0  0  0
   12.4443    1.9846    0.0000 C   0  0  0  0  0  0  0  0  0  0  0  0
   13.3103    0.4846    0.0000 C   0  0  0  0  0  0  0  0  0  0  0  0
    5.5161   -1.0154    0.0000 C   0  0  0  0  0  0  0  0  0  0  0  0
   13.3103    1.4846    0.0000 C   0  0  0  0  0  0  0  0  0  0  0  0
    4.6501   -1.5154    0.0000 C   0  0  0  0  0  0  0  0  0  0  0  0
   14.2043   -0.0501    0.0000 C   0  0  0  0  0  0  0  0  0  0  0  0
    3.7841   -1.0154    0.0000 C   0  0  0  0  0  0  0  0  0  0  0  0
   15.1103    1.5054    0.0000 C   0  0  0  0  0  0  0  0  0  0  0  0
    4.6501   -2.5154    0.0000 C   0  0  0  0  0  0  0  0  0  0  0  0
    2.9180   -1.5154    0.0000 C   0  0  0  0  0  0  0  0  0  0  0  0
    3.7841   -3.0154    0.0000 C   0  0  0  0  0  0  0  0  0  0  0  0
    3.8001    0.0261    0.0000 C   0  0  0  0  0  0  0  0  0  0  0  0
    2.9180   -2.5154    0.0000 C   0  0  0  0  0  0  0  0  0  0  0  0
    2.9021    0.5539    0.0000 C   0  0  0  0  0  0  0  0  0  0  0  0
   16.8424    1.5121    0.0000 C   0  0  0  0  0  0  0  0  0  0  0  0
    2.0000    0.0330    0.0000 C   0  0  0  0  0  0  0  0  0  0  0  0
   17.7065    2.0154    0.0000 C   0  0  0  0  0  0  0  0  0  0  0  0
    9.5172   -0.3254    0.0000 H   0  0  0  0  0  0  0  0  0  0  0  0
    9.1923   -1.5980    0.0000 H   0  0  0  0  0  0  0  0  0  0  0  0
    9.5908   -0.9077    0.0000 H   0  0  0  0  0  0  0  0  0  0  0  0
    8.5127    0.9595    0.0000 H   0  0  0  0  0  0  0  0  0  0  0  0
    7.7156    0.9595    0.0000 H   0  0  0  0  0  0  0  0  0  0  0  0
    7.2482   -1.6354    0.0000 H   0  0  0  0  0  0  0  0  0  0  0  0
    7.7156   -1.9904    0.0000 H   0  0  0  0  0  0  0  0  0  0  0  0
    8.5127   -1.9904    0.0000 H   0  0  0  0  0  0  0  0  0  0  0  0
    7.0361    0.5672    0.0000 H   0  0  0  0  0  0  0  0  0  0  0  0
    6.6376   -0.1231    0.0000 H   0  0  0  0  0  0  0  0  0  0  0  0
   10.2448    0.9595    0.0000 H   0  0  0  0  0  0  0  0  0  0  0  0
    9.4477    0.9595    0.0000 H   0  0  0  0  0  0  0  0  0  0  0  0
   10.3137   -0.4904    0.0000 H   0  0  0  0  0  0  0  0  0  0  0  0
   11.1108   -0.4904    0.0000 H   0  0  0  0  0  0  0  0  0  0  0  0
    6.3821   -2.1354    0.0000 H   0  0  0  0  0  0  0  0  0  0  0  0
   11.3662    2.0672    0.0000 H   0  0  0  0  0  0  0  0  0  0  0  0
   10.9677    1.3769    0.0000 H   0  0  0  0  0  0  0  0  0  0  0  0
   12.0458   -0.4904    0.0000 H   0  0  0  0  0  0  0  0  0  0  0  0
   12.8428   -0.4904    0.0000 H   0  0  0  0  0  0  0  0  0  0  0  0
   12.8428    2.4595    0.0000 H   0  0  0  0  0  0  0  0  0  0  0  0
   12.0458    2.4595    0.0000 H   0  0  0  0  0  0  0  0  0  0  0  0
   14.1971   -0.6700    0.0000 H   0  0  0  0  0  0  0  0  0  0  0  0
    5.1870   -2.8254    0.0000 H   0  0  0  0  0  0  0  0  0  0  0  0
    3.7841   -3.6354    0.0000 H   0  0  0  0  0  0  0  0  0  0  0  0
    4.3406    0.3299    0.0000 H   0  0  0  0  0  0  0  0  0  0  0  0
    2.3811   -2.8254    0.0000 H   0  0  0  0  0  0  0  0  0  0  0  0
    2.9045    1.1738    0.0000 H   0  0  0  0  0  0  0  0  0  0  0  0
   16.4457    1.0356    0.0000 H   0  0  0  0  0  0  0  0  0  0  0  0
   17.2427    1.0387    0.0000 H   0  0  0  0  0  0  0  0  0  0  0  0
    1.4619    0.3410    0.0000 H   0  0  0  0  0  0  0  0  0  0  0  0
   17.7089    1.3954    0.0000 H   0  0  0  0  0  0  0  0  0  0  0  0
  1 36  1  0  0  0  0
  2 36  1  0  0  0  0
  3 22  2  0  0  0  0
  4 27  1  0  0  0  0
  4 34  1  0  0  0  0
  5 17  1  0  0  0  0
  5 18  1  0  0  0  0
  5 19  1  0  0  0  0
  6 13  1  0  0  0  0
  6 22  1  0  0  0  0
  6 51  1  0  0  0  0
  7 23  2  0  0  0  0
  7 27  1  0  0  0  0
  8 25  1  0  0  0  0
  8 27  2  0  0  0  0
  9 29  1  0  0  0  0
  9 35  2  0  0  0  0
 10 11  1  0  0  0  0
 10 12  1  0  0  0  0
 10 16  1  0  0  0  0
 10 37  1  0  0  0  0
 11 14  1  0  0  0  0
 11 38  1  0  0  0  0
 11 39  1  0  0  0  0
 12 15  1  0  0  0  0
 12 40  1  0  0  0  0
 12 41  1  0  0  0  0
 13 14  1  0  0  0  0
 13 15  1  0  0  0  0
 13 42  1  0  0  0  0
 14 43  1  0  0  0  0
 14 44  1  0  0  0  0
 15 45  1  0  0  0  0
 15 46  1  0  0  0  0
 16 17  1  0  0  0  0
 16 47  1  0  0  0  0
 16 48  1  0  0  0  0
 17 49  1  0  0  0  0
 17 50  1  0  0  0  0
 18 20  1  0  0  0  0
 18 52  1  0  0  0  0
 18 53  1  0  0  0  0
 19 21  1  0  0  0  0
 19 54  1  0  0  0  0
 19 55  1  0  0  0  0
 20 23  1  0  0  0  0
 20 56  1  0  0  0  0
 20 57  1  0  0  0  0
 21 23  1  0  0  0  0
 21 25  2  0  0  0  0
 22 24  1  0  0  0  0
 24 26  2  0  0  0  0
 24 28  1  0  0  0  0
 25 58  1  0  0  0  0
 26 29  1  0  0  0  0
 26 31  1  0  0  0  0
 28 30  2  0  0  0  0
 28 59  1  0  0  0  0
 29 32  2  0  0  0  0
 30 32  1  0  0  0  0
 30 60  1  0  0  0  0
 31 33  2  0  0  0  0
 31 61  1  0  0  0  0
 32 62  1  0  0  0  0
 33 35  1  0  0  0  0
 33 63  1  0  0  0  0
 34 36  1  0  0  0  0
 34 64  1  0  0  0  0
 34 65  1  0  0  0  0
 35 66  1  0  0  0  0
 36 67  1  0  0  0  0
M  END
> <PUBCHEM_COMPOUND_CID>
138670324

> <PUBCHEM_COMPOUND_CANONICALIZED>
1

> <PUBCHEM_CACTVS_COMPLEXITY>
708

> <PUBCHEM_CACTVS_HBOND_ACCEPTOR>
8

> <PUBCHEM_CACTVS_HBOND_DONOR>
1

> <PUBCHEM_CACTVS_ROTATABLE_BOND>
8

> <PUBCHEM_CACTVS_SUBSKEYS>
AAADceB7sYAAAAAAAAAAAAAAAAAAAAAAAAA8eLECAAAAAACx/AAAHwAQAAAADSjhnhY90PfIFACoAzV3dACCgCk1AqAJ2KE4ZNiIKPLA3dGMJQholgLIyacciICOgAAAQAASAAAQAACAACQAAAAAAAAAAA==

> <PUBCHEM_IUPAC_OPENEYE_NAME>
N-[4-[2-[2-(2,2-difluoroethoxy)-7,8-dihydro-5H-pyrido[4,3-d]pyrimidin-6-yl]ethyl]cyclohexyl]quinoline-5-carboxamide

> <PUBCHEM_IUPAC_CAS_NAME>
N-[4-[2-[2-(2,2-difluoroethoxy)-7,8-dihydro-5H-pyrido[4,3-d]pyrimidin-6-yl]ethyl]cyclohexyl]-5-quinolinecarboxamide

> <PUBCHEM_IUPAC_NAME_MARKUP>
<I>N</I>-[4-[2-[2-(2,2-difluoroethoxy)-7,8-dihydro-5<I>H</I>-pyrido[4,3-d]pyrimidin-6-yl]ethyl]cyclohexyl]quinoline-5-carboxamide

> <PUBCHEM_IUPAC_NAME>
N-[4-[2-[2-(2,2-difluoroethoxy)-7,8-dihydro-5H-pyrido[4,3-d]pyrimidin-6-yl]ethyl]cyclohexyl]quinoline-5-carboxamide

> <PUBCHEM_IUPAC_SYSTEMATIC_NAME>
N-[4-[2-[2-[2,2-bis(fluoranyl)ethoxy]-7,8-dihydro-5H-pyrido[4,3-d]pyrimidin-6-yl]ethyl]cyclohexyl]quinoline-5-carboxamide

> <PUBCHEM_IUPAC_TRADITIONAL_NAME>
N-[4-[2-[2-(2,2-difluoroethoxy)-7,8-dihydro-5H-pyrido[4,3-d]pyrimidin-6-yl]ethyl]cyclohexyl]quinoline-5-carboxamide

> <PUBCHEM_IUPAC_INCHI>
InChI=1S/C27H31F2N5O2/c28-25(29)17-36-27-31-15-19-16-34(14-11-23(19)33-27)13-10-18-6-8-20(9-7-18)32-26(35)22-3-1-5-24-21(22)4-2-12-30-24/h1-5,12,15,18,20,25H,6-11,13-14,16-17H2,(H,32,35)

> <PUBCHEM_IUPAC_INCHIKEY>
GTCKXYHDIZJJHT-UHFFFAOYSA-N

> <PUBCHEM_XLOGP3_AA>
4.4

> <PUBCHEM_EXACT_MASS>
495.24458157

> <PUBCHEM_MOLECULAR_FORMULA>
C27H31F2N5O2

> <PUBCHEM_MOLECULAR_WEIGHT>
495.6

> <PUBCHEM_OPENEYE_CAN_SMILES>
C1CC(CCC1CCN2CCC3=NC(=NC=C3C2)OCC(F)F)NC(=O)C4=C5C=CC=NC5=CC=C4

> <PUBCHEM_OPENEYE_ISO_SMILES>
C1CC(CCC1CCN2CCC3=NC(=NC=C3C2)OCC(F)F)NC(=O)C4=C5C=CC=NC5=CC=C4

> <PUBCHEM_CACTVS_TPSA>
80.2

> <PUBCHEM_MONOISOTOPIC_WEIGHT>
495.24458157

> <PUBCHEM_TOTAL_CHARGE>
0

> <PUBCHEM_HEAVY_ATOM_COUNT>
36

> <PUBCHEM_ATOM_DEF_STEREO_COUNT>
0

> <PUBCHEM_ATOM_UDEF_STEREO_COUNT>
0

> <PUBCHEM_BOND_DEF_STEREO_COUNT>
0

> <PUBCHEM_BOND_UDEF_STEREO_COUNT>
0

> <PUBCHEM_ISOTOPIC_ATOM_COUNT>
0

> <PUBCHEM_COMPONENT_COUNT>
1

> <PUBCHEM_CACTVS_TAUTO_COUNT>
-1

> <PUBCHEM_COORDINATE_TYPE>
1
5
255

> <PUBCHEM_BONDANNOTATIONS>
21  23  8
21  25  8
24  26  8
24  28  8
26  29  8
26  31  8
28  30  8
29  32  8
30  32  8
31  33  8
33  35  8
7  23  8
7  27  8
8  25  8
8  27  8
9  29  8
9  35  8

$$$$
