164614828
  -OEChem-09292322432D

 51 53  0     1  0  0  0  0  0999 V2000
    5.4641    1.9050    0.0000 Cl  0  0  0  0  0  0  0  0  0  0  0  0
    2.0000   -0.0950    0.0000 Cl  0  0  0  0  0  0  0  0  0  0  0  0
    5.4641   -0.0950    0.0000 O   0  0  0  0  0  0  0  0  0  0  0  0
    9.7942    0.4050    0.0000 N   0  0  0  0  0  0  0  0  0  0  0  0
   11.5263    1.4050    0.0000 N   0  0  0  0  0  0  0  0  0  0  0  0
    8.0622    0.4050    0.0000 N   0  0  0  0  0  0  0  0  0  0  0  0
    8.9282   -1.0950    0.0000 N   0  0  0  0  0  0  0  0  0  0  0  0
    7.1962   -1.0950    0.0000 N   0  0  0  0  0  0  0  0  0  0  0  0
    8.0622   -2.5950    0.0000 N   0  0  0  0  0  0  0  0  0  0  0  0
    9.7942    1.4050    0.0000 C   0  0  0  0  0  0  0  0  0  0  0  0
   10.6603   -0.0950    0.0000 C   0  0  0  0  0  0  0  0  0  0  0  0
   10.6603    1.9050    0.0000 C   0  0  0  0  0  0  0  0  0  0  0  0
   11.5263    0.4050    0.0000 C   0  0  0  0  0  0  0  0  0  0  0  0
    8.9282   -0.0950    0.0000 C   0  0  0  0  0  0  0  0  0  0  0  0
   12.3923    1.9050    0.0000 C   0  0  0  0  0  0  0  0  0  0  0  0
    6.3301    0.4050    0.0000 C   0  0  3  0  0  0  0  0  0  0  0  0
    6.3301    1.4050    0.0000 C   0  0  0  0  0  0  0  0  0  0  0  0
    7.1962   -0.0950    0.0000 C   0  0  0  0  0  0  0  0  0  0  0  0
    7.1962    1.9050    0.0000 C   0  0  0  0  0  0  0  0  0  0  0  0
    8.0622   -1.5950    0.0000 C   0  0  0  0  0  0  0  0  0  0  0  0
    7.1962    2.9050    0.0000 C   0  0  0  0  0  0  0  0  0  0  0  0
    4.5981    0.4050    0.0000 C   0  0  0  0  0  0  0  0  0  0  0  0
    4.5981    1.4050    0.0000 C   0  0  0  0  0  0  0  0  0  0  0  0
    3.7320   -0.0950    0.0000 C   0  0  0  0  0  0  0  0  0  0  0  0
    2.8660    0.4050    0.0000 C   0  0  0  0  0  0  0  0  0  0  0  0
    3.7320    1.9050    0.0000 C   0  0  0  0  0  0  0  0  0  0  0  0
    2.8660    1.4050    0.0000 C   0  0  0  0  0  0  0  0  0  0  0  0
    9.5822    1.9876    0.0000 H   0  0  0  0  0  0  0  0  0  0  0  0
    9.1836    1.2973    0.0000 H   0  0  0  0  0  0  0  0  0  0  0  0
   10.2617   -0.5699    0.0000 H   0  0  0  0  0  0  0  0  0  0  0  0
   11.0588   -0.5699    0.0000 H   0  0  0  0  0  0  0  0  0  0  0  0
   11.0588    2.3800    0.0000 H   0  0  0  0  0  0  0  0  0  0  0  0
   10.2617    2.3800    0.0000 H   0  0  0  0  0  0  0  0  0  0  0  0
   11.7383   -0.1776    0.0000 H   0  0  0  0  0  0  0  0  0  0  0  0
   12.1369    0.5127    0.0000 H   0  0  0  0  0  0  0  0  0  0  0  0
   12.7023    1.3681    0.0000 H   0  0  0  0  0  0  0  0  0  0  0  0
   12.9292    2.2150    0.0000 H   0  0  0  0  0  0  0  0  0  0  0  0
   12.0823    2.4419    0.0000 H   0  0  0  0  0  0  0  0  0  0  0  0
    5.7932    0.7150    0.0000 H   0  0  0  0  0  0  0  0  0  0  0  0
    6.1181    1.9876    0.0000 H   0  0  0  0  0  0  0  0  0  0  0  0
    5.7196    1.2973    0.0000 H   0  0  0  0  0  0  0  0  0  0  0  0
    7.4082    1.3224    0.0000 H   0  0  0  0  0  0  0  0  0  0  0  0
    7.8067    2.0127    0.0000 H   0  0  0  0  0  0  0  0  0  0  0  0
    7.8162    2.9050    0.0000 H   0  0  0  0  0  0  0  0  0  0  0  0
    7.1962    3.5250    0.0000 H   0  0  0  0  0  0  0  0  0  0  0  0
    6.5762    2.9050    0.0000 H   0  0  0  0  0  0  0  0  0  0  0  0
    8.5991   -2.9050    0.0000 H   0  0  0  0  0  0  0  0  0  0  0  0
    7.5252   -2.9050    0.0000 H   0  0  0  0  0  0  0  0  0  0  0  0
    3.7320   -0.7150    0.0000 H   0  0  0  0  0  0  0  0  0  0  0  0
    3.7320    2.5250    0.0000 H   0  0  0  0  0  0  0  0  0  0  0  0
    2.3291    1.7150    0.0000 H   0  0  0  0  0  0  0  0  0  0  0  0
  1 23  1  0  0  0  0
  2 25  1  0  0  0  0
  3 16  1  0  0  0  0
  3 22  1  0  0  0  0
  4 10  1  0  0  0  0
  4 11  1  0  0  0  0
  4 14  1  0  0  0  0
  5 12  1  0  0  0  0
  5 13  1  0  0  0  0
  5 15  1  0  0  0  0
  6 14  2  0  0  0  0
  6 18  1  0  0  0  0
  7 14  1  0  0  0  0
  7 20  2  0  0  0  0
  8 18  2  0  0  0  0
  8 20  1  0  0  0  0
  9 20  1  0  0  0  0
  9 47  1  0  0  0  0
  9 48  1  0  0  0  0
 10 12  1  0  0  0  0
 10 28  1  0  0  0  0
 10 29  1  0  0  0  0
 11 13  1  0  0  0  0
 11 30  1  0  0  0  0
 11 31  1  0  0  0  0
 12 32  1  0  0  0  0
 12 33  1  0  0  0  0
 13 34  1  0  0  0  0
 13 35  1  0  0  0  0
 15 36  1  0  0  0  0
 15 37  1  0  0  0  0
 15 38  1  0  0  0  0
 16 17  1  0  0  0  0
 16 18  1  0  0  0  0
 16 39  1  0  0  0  0
 17 19  1  0  0  0  0
 17 40  1  0  0  0  0
 17 41  1  0  0  0  0
 19 21  1  0  0  0  0
 19 42  1  0  0  0  0
 19 43  1  0  0  0  0
 21 44  1  0  0  0  0
 21 45  1  0  0  0  0
 21 46  1  0  0  0  0
 22 23  2  0  0  0  0
 22 24  1  0  0  0  0
 23 26  1  0  0  0  0
 24 25  2  0  0  0  0
 24 49  1  0  0  0  0
 25 27  1  0  0  0  0
 26 27  2  0  0  0  0
 26 50  1  0  0  0  0
 27 51  1  0  0  0  0
M  END
> <PUBCHEM_COMPOUND_CID>
164614828

> <PUBCHEM_COMPOUND_CANONICALIZED>
1

> <PUBCHEM_CACTVS_COMPLEXITY>
454

> <PUBCHEM_CACTVS_HBOND_ACCEPTOR>
7

> <PUBCHEM_CACTVS_HBOND_DONOR>
1

> <PUBCHEM_CACTVS_ROTATABLE_BOND>
6

> <PUBCHEM_CACTVS_SUBSKEYS>
AAADceB7oAAGAAAAAAAAAAAAAAAAAAAAAAA8WIAAAAAAAAABwAAAHgIQAAAACBbhkyYzFodIFACgACJiJAQCiAkgJeAJiAA+C4iObiOFuxqXOCCswBOYqAeQQAAAAAAQAQAACAAAACACAAAQAAAAAAAAAA==

> <PUBCHEM_IUPAC_OPENEYE_NAME>
4-[1-(2,5-dichlorophenoxy)butyl]-6-(4-methylpiperazin-1-yl)-1,3,5-triazin-2-amine

> <PUBCHEM_IUPAC_CAS_NAME>
4-[1-(2,5-dichlorophenoxy)butyl]-6-(4-methyl-1-piperazinyl)-1,3,5-triazin-2-amine

> <PUBCHEM_IUPAC_NAME_MARKUP>
4-[1-(2,5-dichlorophenoxy)butyl]-6-(4-methylpiperazin-1-yl)-1,3,5-triazin-2-amine

> <PUBCHEM_IUPAC_NAME>
4-[1-(2,5-dichlorophenoxy)butyl]-6-(4-methylpiperazin-1-yl)-1,3,5-triazin-2-amine

> <PUBCHEM_IUPAC_SYSTEMATIC_NAME>
4-[1-[2,5-bis(chloranyl)phenoxy]butyl]-6-(4-methylpiperazin-1-yl)-1,3,5-triazin-2-amine

> <PUBCHEM_IUPAC_TRADITIONAL_NAME>
[4-[1-(2,5-dichlorophenoxy)butyl]-6-(4-methylpiperazino)-s-triazin-2-yl]amine

> <PUBCHEM_IUPAC_INCHI>
InChI=1S/C18H24Cl2N6O/c1-3-4-14(27-15-11-12(19)5-6-13(15)20)16-22-17(21)24-18(23-16)26-9-7-25(2)8-10-26/h5-6,11,14H,3-4,7-10H2,1-2H3,(H2,21,22,23,24)

> <PUBCHEM_IUPAC_INCHIKEY>
XILSSYCQBDFLEK-UHFFFAOYSA-N

> <PUBCHEM_XLOGP3_AA>
3.9

> <PUBCHEM_EXACT_MASS>
410.1388648

> <PUBCHEM_MOLECULAR_FORMULA>
C18H24Cl2N6O

> <PUBCHEM_MOLECULAR_WEIGHT>
411.3

> <PUBCHEM_OPENEYE_CAN_SMILES>
CCCC(C1=NC(=NC(=N1)N2CCN(CC2)C)N)OC3=C(C=CC(=C3)Cl)Cl

> <PUBCHEM_OPENEYE_ISO_SMILES>
CCCC(C1=NC(=NC(=N1)N2CCN(CC2)C)N)OC3=C(C=CC(=C3)Cl)Cl

> <PUBCHEM_CACTVS_TPSA>
80.4

> <PUBCHEM_MONOISOTOPIC_WEIGHT>
410.1388648

> <PUBCHEM_TOTAL_CHARGE>
0

> <PUBCHEM_HEAVY_ATOM_COUNT>
27

> <PUBCHEM_ATOM_DEF_STEREO_COUNT>
0

> <PUBCHEM_ATOM_UDEF_STEREO_COUNT>
1

> <PUBCHEM_BOND_DEF_STEREO_COUNT>
0

> <PUBCHEM_BOND_UDEF_STEREO_COUNT>
0

> <PUBCHEM_ISOTOPIC_ATOM_COUNT>
0

> <PUBCHEM_COMPONENT_COUNT>
1

> <PUBCHEM_CACTVS_TAUTO_COUNT>
-1

> <PUBCHEM_COORDINATE_TYPE>
1
5
255

> <PUBCHEM_BONDANNOTATIONS>
16  17  3
22  23  8
22  24  8
23  26  8
24  25  8
25  27  8
26  27  8
6  14  8
6  18  8
7  14  8
7  20  8
8  18  8
8  20  8

$$$$
