71604379
  -OEChem-09292322072D

 53 55  0     0  0  0  0  0  0999 V2000
   10.7942    5.2500    0.0000 F   0  0  0  0  0  0  0  0  0  0  0  0
    9.7942    6.2500    0.0000 F   0  0  0  0  0  0  0  0  0  0  0  0
    8.7942    5.2500    0.0000 F   0  0  0  0  0  0  0  0  0  0  0  0
    6.3301    2.2500    0.0000 O   0  0  0  0  0  0  0  0  0  0  0  0
    6.3301   -3.7500    0.0000 O   0  0  0  0  0  0  0  0  0  0  0  0
    2.0000   -5.2500    0.0000 O   0  0  0  0  0  0  0  0  0  0  0  0
    9.7942    4.2500    0.0000 O   0  0  0  0  0  0  0  0  0  0  0  0
    5.4641   -0.2500    0.0000 N   0  0  0  0  0  0  0  0  0  0  0  0
    5.4641   -2.2500    0.0000 N   0  0  0  0  0  0  0  0  0  0  0  0
    6.3301   -0.7500    0.0000 C   0  0  0  0  0  0  0  0  0  0  0  0
    4.5981   -0.7500    0.0000 C   0  0  0  0  0  0  0  0  0  0  0  0
    6.3301   -1.7500    0.0000 C   0  0  0  0  0  0  0  0  0  0  0  0
    4.5981   -1.7500    0.0000 C   0  0  0  0  0  0  0  0  0  0  0  0
    5.4641    0.7500    0.0000 C   0  0  0  0  0  0  0  0  0  0  0  0
    5.4641   -3.2500    0.0000 C   0  0  0  0  0  0  0  0  0  0  0  0
    6.3301    1.2500    0.0000 C   0  0  0  0  0  0  0  0  0  0  0  0
    4.5981   -3.7500    0.0000 C   0  0  0  0  0  0  0  0  0  0  0  0
    3.7320   -3.2500    0.0000 C   0  0  0  0  0  0  0  0  0  0  0  0
    4.5981   -4.7500    0.0000 C   0  0  0  0  0  0  0  0  0  0  0  0
    7.1962    2.7500    0.0000 C   0  0  0  0  0  0  0  0  0  0  0  0
    2.8660   -3.7500    0.0000 C   0  0  0  0  0  0  0  0  0  0  0  0
    3.7320   -5.2500    0.0000 C   0  0  0  0  0  0  0  0  0  0  0  0
    2.8660   -4.7500    0.0000 C   0  0  0  0  0  0  0  0  0  0  0  0
    8.0622    2.2500    0.0000 C   0  0  0  0  0  0  0  0  0  0  0  0
    7.1962    3.7500    0.0000 C   0  0  0  0  0  0  0  0  0  0  0  0
    8.9282    2.7500    0.0000 C   0  0  0  0  0  0  0  0  0  0  0  0
    8.0622    4.2500    0.0000 C   0  0  0  0  0  0  0  0  0  0  0  0
    8.9282    3.7500    0.0000 C   0  0  0  0  0  0  0  0  0  0  0  0
    2.0000   -6.2500    0.0000 C   0  0  0  0  0  0  0  0  0  0  0  0
    9.7942    5.2500    0.0000 C   0  0  0  0  0  0  0  0  0  0  0  0
    6.9407   -0.8577    0.0000 H   0  0  0  0  0  0  0  0  0  0  0  0
    6.5422   -0.1674    0.0000 H   0  0  0  0  0  0  0  0  0  0  0  0
    4.3860   -0.1674    0.0000 H   0  0  0  0  0  0  0  0  0  0  0  0
    3.9875   -0.8577    0.0000 H   0  0  0  0  0  0  0  0  0  0  0  0
    6.5422   -2.3326    0.0000 H   0  0  0  0  0  0  0  0  0  0  0  0
    6.9407   -1.6423    0.0000 H   0  0  0  0  0  0  0  0  0  0  0  0
    3.9875   -1.6423    0.0000 H   0  0  0  0  0  0  0  0  0  0  0  0
    4.3860   -2.3326    0.0000 H   0  0  0  0  0  0  0  0  0  0  0  0
    5.2520    1.3326    0.0000 H   0  0  0  0  0  0  0  0  0  0  0  0
    4.8535    0.6423    0.0000 H   0  0  0  0  0  0  0  0  0  0  0  0
    6.5422    0.6674    0.0000 H   0  0  0  0  0  0  0  0  0  0  0  0
    6.9407    1.3577    0.0000 H   0  0  0  0  0  0  0  0  0  0  0  0
    3.7320   -2.6300    0.0000 H   0  0  0  0  0  0  0  0  0  0  0  0
    5.1350   -5.0600    0.0000 H   0  0  0  0  0  0  0  0  0  0  0  0
    2.3291   -3.4400    0.0000 H   0  0  0  0  0  0  0  0  0  0  0  0
    3.7320   -5.8700    0.0000 H   0  0  0  0  0  0  0  0  0  0  0  0
    8.0622    1.6300    0.0000 H   0  0  0  0  0  0  0  0  0  0  0  0
    6.6592    4.0600    0.0000 H   0  0  0  0  0  0  0  0  0  0  0  0
    9.4651    2.4400    0.0000 H   0  0  0  0  0  0  0  0  0  0  0  0
    8.0622    4.8700    0.0000 H   0  0  0  0  0  0  0  0  0  0  0  0
    1.3800   -6.2500    0.0000 H   0  0  0  0  0  0  0  0  0  0  0  0
    2.0000   -6.8700    0.0000 H   0  0  0  0  0  0  0  0  0  0  0  0
    2.6200   -6.2500    0.0000 H   0  0  0  0  0  0  0  0  0  0  0  0
  1 30  1  0  0  0  0
  2 30  1  0  0  0  0
  3 30  1  0  0  0  0
  4 16  1  0  0  0  0
  4 20  1  0  0  0  0
  5 15  2  0  0  0  0
  6 23  1  0  0  0  0
  6 29  1  0  0  0  0
  7 28  1  0  0  0  0
  7 30  1  0  0  0  0
  8 10  1  0  0  0  0
  8 11  1  0  0  0  0
  8 14  1  0  0  0  0
  9 12  1  0  0  0  0
  9 13  1  0  0  0  0
  9 15  1  0  0  0  0
 10 12  1  0  0  0  0
 10 31  1  0  0  0  0
 10 32  1  0  0  0  0
 11 13  1  0  0  0  0
 11 33  1  0  0  0  0
 11 34  1  0  0  0  0
 12 35  1  0  0  0  0
 12 36  1  0  0  0  0
 13 37  1  0  0  0  0
 13 38  1  0  0  0  0
 14 16  1  0  0  0  0
 14 39  1  0  0  0  0
 14 40  1  0  0  0  0
 15 17  1  0  0  0  0
 16 41  1  0  0  0  0
 16 42  1  0  0  0  0
 17 18  2  0  0  0  0
 17 19  1  0  0  0  0
 18 21  1  0  0  0  0
 18 43  1  0  0  0  0
 19 22  2  0  0  0  0
 19 44  1  0  0  0  0
 20 24  2  0  0  0  0
 20 25  1  0  0  0  0
 21 23  2  0  0  0  0
 21 45  1  0  0  0  0
 22 23  1  0  0  0  0
 22 46  1  0  0  0  0
 24 26  1  0  0  0  0
 24 47  1  0  0  0  0
 25 27  2  0  0  0  0
 25 48  1  0  0  0  0
 26 28  2  0  0  0  0
 26 49  1  0  0  0  0
 27 28  1  0  0  0  0
 27 50  1  0  0  0  0
 29 51  1  0  0  0  0
 29 52  1  0  0  0  0
 29 53  1  0  0  0  0
M  END
> <PUBCHEM_COMPOUND_CID>
71604379

> <PUBCHEM_COMPOUND_CANONICALIZED>
1

> <PUBCHEM_CACTVS_COMPLEXITY>
525

> <PUBCHEM_CACTVS_HBOND_ACCEPTOR>
8

> <PUBCHEM_CACTVS_HBOND_DONOR>
0

> <PUBCHEM_CACTVS_ROTATABLE_BOND>
7

> <PUBCHEM_CACTVS_SUBSKEYS>
AAADceB7OYAAAAAAAAAAAAAAAAAAAAAAAAA8YIAAAAAAAAABQAAAHwAAAAAADAThmBYyBoMABACIAiFSEACCCAAkIAAIiAEODMgOZjKEtRuXOSjkxhGYqYfY3ALOIQAAAAAAAABCAAAAAAAAAAAAAAAAAA==

> <PUBCHEM_IUPAC_OPENEYE_NAME>
(4-methoxyphenyl)-[4-[2-[4-(trifluoromethoxy)phenoxy]ethyl]piperazin-1-yl]methanone

> <PUBCHEM_IUPAC_CAS_NAME>
(4-methoxyphenyl)-[4-[2-[4-(trifluoromethoxy)phenoxy]ethyl]-1-piperazinyl]methanone

> <PUBCHEM_IUPAC_NAME_MARKUP>
(4-methoxyphenyl)-[4-[2-[4-(trifluoromethoxy)phenoxy]ethyl]piperazin-1-yl]methanone

> <PUBCHEM_IUPAC_NAME>
(4-methoxyphenyl)-[4-[2-[4-(trifluoromethoxy)phenoxy]ethyl]piperazin-1-yl]methanone

> <PUBCHEM_IUPAC_SYSTEMATIC_NAME>
(4-methoxyphenyl)-[4-[2-[4-(trifluoromethyloxy)phenoxy]ethyl]piperazin-1-yl]methanone

> <PUBCHEM_IUPAC_TRADITIONAL_NAME>
(4-methoxyphenyl)-[4-[2-[4-(trifluoromethoxy)phenoxy]ethyl]piperazino]methanone

> <PUBCHEM_IUPAC_INCHI>
InChI=1S/C21H23F3N2O4/c1-28-17-4-2-16(3-5-17)20(27)26-12-10-25(11-13-26)14-15-29-18-6-8-19(9-7-18)30-21(22,23)24/h2-9H,10-15H2,1H3

> <PUBCHEM_IUPAC_INCHIKEY>
KLYKTFHJKMEFAD-UHFFFAOYSA-N

> <PUBCHEM_XLOGP3_AA>
4

> <PUBCHEM_EXACT_MASS>
424.16099171

> <PUBCHEM_MOLECULAR_FORMULA>
C21H23F3N2O4

> <PUBCHEM_MOLECULAR_WEIGHT>
424.4

> <PUBCHEM_OPENEYE_CAN_SMILES>
COC1=CC=C(C=C1)C(=O)N2CCN(CC2)CCOC3=CC=C(C=C3)OC(F)(F)F

> <PUBCHEM_OPENEYE_ISO_SMILES>
COC1=CC=C(C=C1)C(=O)N2CCN(CC2)CCOC3=CC=C(C=C3)OC(F)(F)F

> <PUBCHEM_CACTVS_TPSA>
51.2

> <PUBCHEM_MONOISOTOPIC_WEIGHT>
424.16099171

> <PUBCHEM_TOTAL_CHARGE>
0

> <PUBCHEM_HEAVY_ATOM_COUNT>
30

> <PUBCHEM_ATOM_DEF_STEREO_COUNT>
0

> <PUBCHEM_ATOM_UDEF_STEREO_COUNT>
0

> <PUBCHEM_BOND_DEF_STEREO_COUNT>
0

> <PUBCHEM_BOND_UDEF_STEREO_COUNT>
0

> <PUBCHEM_ISOTOPIC_ATOM_COUNT>
0

> <PUBCHEM_COMPONENT_COUNT>
1

> <PUBCHEM_CACTVS_TAUTO_COUNT>
-1

> <PUBCHEM_COORDINATE_TYPE>
1
5
255

> <PUBCHEM_BONDANNOTATIONS>
17  18  8
17  19  8
18  21  8
19  22  8
20  24  8
20  25  8
21  23  8
22  23  8
24  26  8
25  27  8
26  28  8
27  28  8

$$$$
