24901141
  -OEChem-09292322042D

 62 65  0     1  0  0  0  0  0999 V2000
    4.5981    1.1550    0.0000 Cl  0  0  0  0  0  0  0  0  0  0  0  0
    2.8660    4.1550    0.0000 Cl  0  0  0  0  0  0  0  0  0  0  0  0
   14.2045   -1.5403    0.0000 S   0  0  0  0  0  0  0  0  0  0  0  0
   13.2583    0.1550    0.0000 O   0  0  0  0  0  0  0  0  0  0  0  0
   12.3923   -4.3450    0.0000 O   0  0  0  0  0  0  0  0  0  0  0  0
   15.7882   -2.3450    0.0000 O   0  0  0  0  0  0  0  0  0  0  0  0
   11.5263    1.1550    0.0000 N   0  0  0  0  0  0  0  0  0  0  0  0
    6.3301    3.1550    0.0000 N   0  0  0  0  0  0  0  0  0  0  0  0
   14.2045   -3.1497    0.0000 N   0  0  0  0  0  0  0  0  0  0  0  0
   12.3923   -0.3450    0.0000 C   0  0  1  0  0  0  0  0  0  0  0  0
   11.5263    0.1550    0.0000 C   0  0  0  0  0  0  0  0  0  0  0  0
   12.3923   -1.3450    0.0000 C   0  0  0  0  0  0  0  0  0  0  0  0
   10.6603    1.6550    0.0000 C   0  0  0  0  0  0  0  0  0  0  0  0
   10.6603    2.6550    0.0000 C   0  0  0  0  0  0  0  0  0  0  0  0
    9.7942    3.1550    0.0000 C   0  0  0  0  0  0  0  0  0  0  0  0
   13.2583   -1.8450    0.0000 C   0  0  0  0  0  0  0  0  0  0  0  0
    8.0622    3.1550    0.0000 C   0  0  0  0  0  0  0  0  0  0  0  0
   13.2583   -2.8450    0.0000 C   0  0  0  0  0  0  0  0  0  0  0  0
    8.9282    2.6550    0.0000 C   0  0  0  0  0  0  0  0  0  0  0  0
    7.1962    2.6550    0.0000 C   0  0  0  0  0  0  0  0  0  0  0  0
   11.5263   -1.8450    0.0000 C   0  0  0  0  0  0  0  0  0  0  0  0
    5.4641    2.6550    0.0000 C   0  0  0  0  0  0  0  0  0  0  0  0
    9.7942    4.1550    0.0000 C   0  0  0  0  0  0  0  0  0  0  0  0
   12.3923   -3.3450    0.0000 C   0  0  0  0  0  0  0  0  0  0  0  0
   11.5263   -2.8450    0.0000 C   0  0  0  0  0  0  0  0  0  0  0  0
    4.5981    3.1550    0.0000 C   0  0  0  0  0  0  0  0  0  0  0  0
    8.0622    4.1550    0.0000 C   0  0  0  0  0  0  0  0  0  0  0  0
    8.9282    4.6550    0.0000 C   0  0  0  0  0  0  0  0  0  0  0  0
   14.7882   -2.3450    0.0000 C   0  0  0  0  0  0  0  0  0  0  0  0
    3.7320    2.6550    0.0000 C   0  0  0  0  0  0  0  0  0  0  0  0
    3.7320    1.6550    0.0000 C   0  0  0  0  0  0  0  0  0  0  0  0
    2.8660    3.1550    0.0000 C   0  0  0  0  0  0  0  0  0  0  0  0
    2.8660    1.1550    0.0000 C   0  0  0  0  0  0  0  0  0  0  0  0
    2.0000    2.6550    0.0000 C   0  0  0  0  0  0  0  0  0  0  0  0
    2.0000    1.6550    0.0000 C   0  0  0  0  0  0  0  0  0  0  0  0
   12.3923    0.2750    0.0000 H   0  0  0  0  0  0  0  0  0  0  0  0
   10.9157    0.2627    0.0000 H   0  0  0  0  0  0  0  0  0  0  0  0
   11.3142   -0.4276    0.0000 H   0  0  0  0  0  0  0  0  0  0  0  0
   10.0497    1.7627    0.0000 H   0  0  0  0  0  0  0  0  0  0  0  0
   10.4482    1.0724    0.0000 H   0  0  0  0  0  0  0  0  0  0  0  0
   11.2708    2.5473    0.0000 H   0  0  0  0  0  0  0  0  0  0  0  0
   10.8723    3.2376    0.0000 H   0  0  0  0  0  0  0  0  0  0  0  0
   12.0632    1.4650    0.0000 H   0  0  0  0  0  0  0  0  0  0  0  0
    8.9282    2.0350    0.0000 H   0  0  0  0  0  0  0  0  0  0  0  0
    6.7976    2.1800    0.0000 H   0  0  0  0  0  0  0  0  0  0  0  0
    7.5947    2.1800    0.0000 H   0  0  0  0  0  0  0  0  0  0  0  0
   10.9893   -1.5350    0.0000 H   0  0  0  0  0  0  0  0  0  0  0  0
    5.0656    2.1800    0.0000 H   0  0  0  0  0  0  0  0  0  0  0  0
    5.8626    2.1800    0.0000 H   0  0  0  0  0  0  0  0  0  0  0  0
   10.3312    4.4650    0.0000 H   0  0  0  0  0  0  0  0  0  0  0  0
    6.3301    3.7750    0.0000 H   0  0  0  0  0  0  0  0  0  0  0  0
    4.9966    3.6300    0.0000 H   0  0  0  0  0  0  0  0  0  0  0  0
    4.1996    3.6300    0.0000 H   0  0  0  0  0  0  0  0  0  0  0  0
   10.9893   -3.1550    0.0000 H   0  0  0  0  0  0  0  0  0  0  0  0
    7.5252    4.4650    0.0000 H   0  0  0  0  0  0  0  0  0  0  0  0
   14.3972   -3.7390    0.0000 H   0  0  0  0  0  0  0  0  0  0  0  0
    8.9282    5.2750    0.0000 H   0  0  0  0  0  0  0  0  0  0  0  0
   13.2583    0.7750    0.0000 H   0  0  0  0  0  0  0  0  0  0  0  0
   11.8554   -4.6550    0.0000 H   0  0  0  0  0  0  0  0  0  0  0  0
    2.8660    0.5350    0.0000 H   0  0  0  0  0  0  0  0  0  0  0  0
    1.4631    2.9650    0.0000 H   0  0  0  0  0  0  0  0  0  0  0  0
    1.4631    1.3450    0.0000 H   0  0  0  0  0  0  0  0  0  0  0  0
  1 31  1  0  0  0  0
  2 32  1  0  0  0  0
  3 16  1  0  0  0  0
  3 29  1  0  0  0  0
 10  4  1  6  0  0  0
  4 58  1  0  0  0  0
  5 24  1  0  0  0  0
  5 59  1  0  0  0  0
  6 29  2  0  0  0  0
  7 11  1  0  0  0  0
  7 13  1  0  0  0  0
  7 43  1  0  0  0  0
  8 20  1  0  0  0  0
  8 22  1  0  0  0  0
  8 51  1  0  0  0  0
  9 18  1  0  0  0  0
  9 29  1  0  0  0  0
  9 56  1  0  0  0  0
 10 11  1  0  0  0  0
 10 12  1  0  0  0  0
 10 36  1  0  0  0  0
 11 37  1  0  0  0  0
 11 38  1  0  0  0  0
 12 16  2  0  0  0  0
 12 21  1  0  0  0  0
 13 14  1  0  0  0  0
 13 39  1  0  0  0  0
 13 40  1  0  0  0  0
 14 15  1  0  0  0  0
 14 41  1  0  0  0  0
 14 42  1  0  0  0  0
 15 19  2  0  0  0  0
 15 23  1  0  0  0  0
 16 18  1  0  0  0  0
 17 19  1  0  0  0  0
 17 20  1  0  0  0  0
 17 27  2  0  0  0  0
 18 24  2  0  0  0  0
 19 44  1  0  0  0  0
 20 45  1  0  0  0  0
 20 46  1  0  0  0  0
 21 25  2  0  0  0  0
 21 47  1  0  0  0  0
 22 26  1  0  0  0  0
 22 48  1  0  0  0  0
 22 49  1  0  0  0  0
 23 28  2  0  0  0  0
 23 50  1  0  0  0  0
 24 25  1  0  0  0  0
 25 54  1  0  0  0  0
 26 30  1  0  0  0  0
 26 52  1  0  0  0  0
 26 53  1  0  0  0  0
 27 28  1  0  0  0  0
 27 55  1  0  0  0  0
 28 57  1  0  0  0  0
 30 31  2  0  0  0  0
 30 32  1  0  0  0  0
 31 33  1  0  0  0  0
 32 34  2  0  0  0  0
 33 35  2  0  0  0  0
 33 60  1  0  0  0  0
 34 35  1  0  0  0  0
 34 61  1  0  0  0  0
 35 62  1  0  0  0  0
M  END
> <PUBCHEM_COMPOUND_CID>
24901141

> <PUBCHEM_COMPOUND_CANONICALIZED>
1

> <PUBCHEM_CACTVS_COMPLEXITY>
668

> <PUBCHEM_CACTVS_HBOND_ACCEPTOR>
6

> <PUBCHEM_CACTVS_HBOND_DONOR>
5

> <PUBCHEM_CACTVS_ROTATABLE_BOND>
11

> <PUBCHEM_CACTVS_SUBSKEYS>
AAADceB7MABGAAAAAAAAAAAAAAAAAWAAAAAwYMAAAAAAAFgBUAAAHgYQCAAADB7h2CYwx4LAAgiIAiRCUACCAABhLRAIiJQPTogKNiLzk5OEcAhk1BHY2Aew4OQOIAACRACFEQBAAASIAQoiAAAAAAAAAA==

> <PUBCHEM_IUPAC_OPENEYE_NAME>
7-[(1R)-2-[2-[3-[[2-(2,6-dichlorophenyl)ethylamino]methyl]phenyl]ethylamino]-1-hydroxy-ethyl]-4-hydroxy-3H-1,3-benzothiazol-2-one

> <PUBCHEM_IUPAC_CAS_NAME>
7-[(1R)-2-[2-[3-[[2-(2,6-dichlorophenyl)ethylamino]methyl]phenyl]ethylamino]-1-hydroxyethyl]-4-hydroxy-3H-1,3-benzothiazol-2-one

> <PUBCHEM_IUPAC_NAME_MARKUP>
7-[(1<I>R</I>)-2-[2-[3-[[2-(2,6-dichlorophenyl)ethylamino]methyl]phenyl]ethylamino]-1-hydroxyethyl]-4-hydroxy-3<I>H</I>-1,3-benzothiazol-2-one

> <PUBCHEM_IUPAC_NAME>
7-[(1R)-2-[2-[3-[[2-(2,6-dichlorophenyl)ethylamino]methyl]phenyl]ethylamino]-1-hydroxyethyl]-4-hydroxy-3H-1,3-benzothiazol-2-one

> <PUBCHEM_IUPAC_SYSTEMATIC_NAME>
7-[(1R)-2-[2-[3-[[2-[2,6-bis(chloranyl)phenyl]ethylamino]methyl]phenyl]ethylamino]-1-oxidanyl-ethyl]-4-oxidanyl-3H-1,3-benzothiazol-2-one

> <PUBCHEM_IUPAC_TRADITIONAL_NAME>
7-[(1R)-2-[2-[3-[[2-(2,6-dichlorophenyl)ethylamino]methyl]phenyl]ethylamino]-1-hydroxy-ethyl]-4-hydroxy-3H-1,3-benzothiazol-2-one

> <PUBCHEM_IUPAC_INCHI>
InChI=1S/C26H27Cl2N3O3S/c27-20-5-2-6-21(28)18(20)10-12-29-14-17-4-1-3-16(13-17)9-11-30-15-23(33)19-7-8-22(32)24-25(19)35-26(34)31-24/h1-8,13,23,29-30,32-33H,9-12,14-15H2,(H,31,34)/t23-/m0/s1

> <PUBCHEM_IUPAC_INCHIKEY>
MCZWBSFGGNTCLH-QHCPKHFHSA-N

> <PUBCHEM_XLOGP3_AA>
4.6

> <PUBCHEM_EXACT_MASS>
531.1150183

> <PUBCHEM_MOLECULAR_FORMULA>
C26H27Cl2N3O3S

> <PUBCHEM_MOLECULAR_WEIGHT>
532.5

> <PUBCHEM_OPENEYE_CAN_SMILES>
C1=CC(=CC(=C1)CNCCC2=C(C=CC=C2Cl)Cl)CCNCC(C3=C4C(=C(C=C3)O)NC(=O)S4)O

> <PUBCHEM_OPENEYE_ISO_SMILES>
C1=CC(=CC(=C1)CNCCC2=C(C=CC=C2Cl)Cl)CCNC[C@@H](C3=C4C(=C(C=C3)O)NC(=O)S4)O

> <PUBCHEM_CACTVS_TPSA>
119

> <PUBCHEM_MONOISOTOPIC_WEIGHT>
531.1150183

> <PUBCHEM_TOTAL_CHARGE>
0

> <PUBCHEM_HEAVY_ATOM_COUNT>
35

> <PUBCHEM_ATOM_DEF_STEREO_COUNT>
1

> <PUBCHEM_ATOM_UDEF_STEREO_COUNT>
0

> <PUBCHEM_BOND_DEF_STEREO_COUNT>
0

> <PUBCHEM_BOND_UDEF_STEREO_COUNT>
0

> <PUBCHEM_ISOTOPIC_ATOM_COUNT>
0

> <PUBCHEM_COMPONENT_COUNT>
1

> <PUBCHEM_CACTVS_TAUTO_COUNT>
-1

> <PUBCHEM_COORDINATE_TYPE>
1
5
255

> <PUBCHEM_BONDANNOTATIONS>
12  16  8
12  21  8
15  19  8
15  23  8
16  18  8
17  19  8
17  27  8
18  24  8
21  25  8
23  28  8
24  25  8
27  28  8
3  16  8
3  29  8
30  31  8
30  32  8
31  33  8
32  34  8
33  35  8
34  35  8
10  4  6
9  18  8
9  29  8

$$$$
