56944861
  -OEChem-09292322392D

 62 66  0     1  0  0  0  0  0999 V2000
    2.3572   -2.0850    0.0000 Cl  0  0  0  0  0  0  0  0  0  0  0  0
   12.6590   -1.0726    0.0000 S   0  0  0  0  0  0  0  0  0  0  0  0
   12.1590   -0.2066    0.0000 O   0  0  0  0  0  0  0  0  0  0  0  0
   13.1590   -1.9386    0.0000 O   0  0  0  0  0  0  0  0  0  0  0  0
    7.4629   -1.0726    0.0000 N   0  0  3  0  0  0  0  0  0  0  0  0
    3.7899    1.6253    0.0000 N   0  0  0  0  0  0  0  0  0  0  0  0
   11.7930   -1.5726    0.0000 N   0  0  0  0  0  0  0  0  0  0  0  0
    7.4629   -0.0726    0.0000 C   0  0  0  0  0  0  0  0  0  0  0  0
    6.5968    0.4274    0.0000 C   0  0  0  0  0  0  0  0  0  0  0  0
    8.3289   -1.5726    0.0000 C   0  0  0  0  0  0  0  0  0  0  0  0
    6.5968   -1.5726    0.0000 C   0  0  0  0  0  0  0  0  0  0  0  0
    5.7308   -0.0726    0.0000 C   0  0  0  0  0  0  0  0  0  0  0  0
    9.1949   -1.0726    0.0000 C   0  0  0  0  0  0  0  0  0  0  0  0
    5.7308   -1.0726    0.0000 C   0  0  0  0  0  0  0  0  0  0  0  0
    4.8648    0.4274    0.0000 C   0  0  0  0  0  0  0  0  0  0  0  0
   10.0610   -1.5726    0.0000 C   0  0  0  0  0  0  0  0  0  0  0  0
    3.9570    0.0223    0.0000 C   0  0  0  0  0  0  0  0  0  0  0  0
   10.9270   -1.0726    0.0000 C   0  0  0  0  0  0  0  0  0  0  0  0
    4.7617    1.4161    0.0000 C   0  0  0  0  0  0  0  0  0  0  0  0
    3.2892    0.7666    0.0000 C   0  0  0  0  0  0  0  0  0  0  0  0
    3.6464   -0.9282    0.0000 C   0  0  0  0  0  0  0  0  0  0  0  0
    2.3107    0.5604    0.0000 C   0  0  0  0  0  0  0  0  0  0  0  0
   13.5251   -0.5726    0.0000 C   0  0  0  0  0  0  0  0  0  0  0  0
    2.6678   -1.1344    0.0000 C   0  0  0  0  0  0  0  0  0  0  0  0
    2.0000   -0.3901    0.0000 C   0  0  0  0  0  0  0  0  0  0  0  0
   14.3911   -1.0726    0.0000 C   0  0  0  0  0  0  0  0  0  0  0  0
   13.5251    0.4274    0.0000 C   0  0  0  0  0  0  0  0  0  0  0  0
   15.2571   -0.5726    0.0000 C   0  0  0  0  0  0  0  0  0  0  0  0
   15.2571    0.4274    0.0000 C   0  0  0  0  0  0  0  0  0  0  0  0
   14.3911    0.9274    0.0000 C   0  0  0  0  0  0  0  0  0  0  0  0
   16.1510   -1.1073    0.0000 C   0  0  0  0  0  0  0  0  0  0  0  0
   16.1510    0.9621    0.0000 C   0  0  0  0  0  0  0  0  0  0  0  0
   17.0571   -0.5934    0.0000 C   0  0  0  0  0  0  0  0  0  0  0  0
   17.0571    0.4482    0.0000 C   0  0  0  0  0  0  0  0  0  0  0  0
    8.0734   -0.1803    0.0000 H   0  0  0  0  0  0  0  0  0  0  0  0
    7.6749    0.5100    0.0000 H   0  0  0  0  0  0  0  0  0  0  0  0
    6.9954    0.9024    0.0000 H   0  0  0  0  0  0  0  0  0  0  0  0
    6.1983    0.9024    0.0000 H   0  0  0  0  0  0  0  0  0  0  0  0
    7.9304   -2.0475    0.0000 H   0  0  0  0  0  0  0  0  0  0  0  0
    8.7274   -2.0475    0.0000 H   0  0  0  0  0  0  0  0  0  0  0  0
    6.1983   -2.0475    0.0000 H   0  0  0  0  0  0  0  0  0  0  0  0
    6.9954   -2.0475    0.0000 H   0  0  0  0  0  0  0  0  0  0  0  0
    9.5934   -0.5976    0.0000 H   0  0  0  0  0  0  0  0  0  0  0  0
    8.7964   -0.5976    0.0000 H   0  0  0  0  0  0  0  0  0  0  0  0
    5.1939   -1.3826    0.0000 H   0  0  0  0  0  0  0  0  0  0  0  0
    9.6624   -2.0475    0.0000 H   0  0  0  0  0  0  0  0  0  0  0  0
   10.4595   -2.0475    0.0000 H   0  0  0  0  0  0  0  0  0  0  0  0
   11.3255   -0.5976    0.0000 H   0  0  0  0  0  0  0  0  0  0  0  0
   10.5284   -0.5976    0.0000 H   0  0  0  0  0  0  0  0  0  0  0  0
    5.2232    1.8302    0.0000 H   0  0  0  0  0  0  0  0  0  0  0  0
    3.5397    2.1926    0.0000 H   0  0  0  0  0  0  0  0  0  0  0  0
   11.7930   -2.1926    0.0000 H   0  0  0  0  0  0  0  0  0  0  0  0
    4.0604   -1.3897    0.0000 H   0  0  0  0  0  0  0  0  0  0  0  0
    1.8966    1.0218    0.0000 H   0  0  0  0  0  0  0  0  0  0  0  0
    1.3933   -0.5180    0.0000 H   0  0  0  0  0  0  0  0  0  0  0  0
   14.3911   -1.6926    0.0000 H   0  0  0  0  0  0  0  0  0  0  0  0
   12.9881    0.7374    0.0000 H   0  0  0  0  0  0  0  0  0  0  0  0
   14.3911    1.5474    0.0000 H   0  0  0  0  0  0  0  0  0  0  0  0
   16.1439   -1.7272    0.0000 H   0  0  0  0  0  0  0  0  0  0  0  0
   16.1439    1.5820    0.0000 H   0  0  0  0  0  0  0  0  0  0  0  0
   17.5928   -0.9055    0.0000 H   0  0  0  0  0  0  0  0  0  0  0  0
   17.5928    0.7603    0.0000 H   0  0  0  0  0  0  0  0  0  0  0  0
  1 24  1  0  0  0  0
  2  3  2  0  0  0  0
  2  4  2  0  0  0  0
  2  7  1  0  0  0  0
  2 23  1  0  0  0  0
  5  8  1  0  0  0  0
  5 10  1  0  0  0  0
  5 11  1  0  0  0  0
  6 19  1  0  0  0  0
  6 20  1  0  0  0  0
  6 51  1  0  0  0  0
  7 18  1  0  0  0  0
  7 52  1  0  0  0  0
  8  9  1  0  0  0  0
  8 35  1  0  0  0  0
  8 36  1  0  0  0  0
  9 12  1  0  0  0  0
  9 37  1  0  0  0  0
  9 38  1  0  0  0  0
 10 13  1  0  0  0  0
 10 39  1  0  0  0  0
 10 40  1  0  0  0  0
 11 14  1  0  0  0  0
 11 41  1  0  0  0  0
 11 42  1  0  0  0  0
 12 14  2  0  0  0  0
 12 15  1  0  0  0  0
 13 16  1  0  0  0  0
 13 43  1  0  0  0  0
 13 44  1  0  0  0  0
 14 45  1  0  0  0  0
 15 17  1  0  0  0  0
 15 19  2  0  0  0  0
 16 18  1  0  0  0  0
 16 46  1  0  0  0  0
 16 47  1  0  0  0  0
 17 20  2  0  0  0  0
 17 21  1  0  0  0  0
 18 48  1  0  0  0  0
 18 49  1  0  0  0  0
 19 50  1  0  0  0  0
 20 22  1  0  0  0  0
 21 24  2  0  0  0  0
 21 53  1  0  0  0  0
 22 25  2  0  0  0  0
 22 54  1  0  0  0  0
 23 26  2  0  0  0  0
 23 27  1  0  0  0  0
 24 25  1  0  0  0  0
 25 55  1  0  0  0  0
 26 28  1  0  0  0  0
 26 56  1  0  0  0  0
 27 30  2  0  0  0  0
 27 57  1  0  0  0  0
 28 29  1  0  0  0  0
 28 31  2  0  0  0  0
 29 30  1  0  0  0  0
 29 32  2  0  0  0  0
 30 58  1  0  0  0  0
 31 33  1  0  0  0  0
 31 59  1  0  0  0  0
 32 34  1  0  0  0  0
 32 60  1  0  0  0  0
 33 34  2  0  0  0  0
 33 61  1  0  0  0  0
 34 62  1  0  0  0  0
M  END
> <PUBCHEM_COMPOUND_CID>
56944861

> <PUBCHEM_COMPOUND_CANONICALIZED>
1

> <PUBCHEM_CACTVS_COMPLEXITY>
813

> <PUBCHEM_CACTVS_HBOND_ACCEPTOR>
4

> <PUBCHEM_CACTVS_HBOND_DONOR>
2

> <PUBCHEM_CACTVS_ROTATABLE_BOND>
8

> <PUBCHEM_CACTVS_SUBSKEYS>
AAADceB7MABEAAAAAAAAAAAAAAAAAWAAAAAwYMEAAAAAAFjB9AAAHAYQQAAADArBXiQ8wfPJkAKgAzRnRHDCgDAxByAI2bg4ZpgIIOLBk5GEIAhgkADIyAcQgMAOkABAoAASAAAgAIFAACQAAAAAAAAAAA==

> <PUBCHEM_IUPAC_OPENEYE_NAME>
N-[4-[4-(5-chloro-1H-indol-3-yl)-3,6-dihydro-2H-pyridin-1-yl]butyl]naphthalene-2-sulfonamide

> <PUBCHEM_IUPAC_CAS_NAME>
N-[4-[4-(5-chloro-1H-indol-3-yl)-3,6-dihydro-2H-pyridin-1-yl]butyl]-2-naphthalenesulfonamide

> <PUBCHEM_IUPAC_NAME_MARKUP>
<I>N</I>-[4-[4-(5-chloro-1<I>H</I>-indol-3-yl)-3,6-dihydro-2<I>H</I>-pyridin-1-yl]butyl]naphthalene-2-sulfonamide

> <PUBCHEM_IUPAC_NAME>
N-[4-[4-(5-chloro-1H-indol-3-yl)-3,6-dihydro-2H-pyridin-1-yl]butyl]naphthalene-2-sulfonamide

> <PUBCHEM_IUPAC_SYSTEMATIC_NAME>
N-[4-[4-(5-chloranyl-1H-indol-3-yl)-3,6-dihydro-2H-pyridin-1-yl]butyl]naphthalene-2-sulfonamide

> <PUBCHEM_IUPAC_TRADITIONAL_NAME>
N-[4-[4-(5-chloro-1H-indol-3-yl)-3,6-dihydro-2H-pyridin-1-yl]butyl]naphthalene-2-sulfonamide

> <PUBCHEM_IUPAC_INCHI>
InChI=1S/C27H28ClN3O2S/c28-23-8-10-27-25(18-23)26(19-29-27)21-11-15-31(16-12-21)14-4-3-13-30-34(32,33)24-9-7-20-5-1-2-6-22(20)17-24/h1-2,5-11,17-19,29-30H,3-4,12-16H2

> <PUBCHEM_IUPAC_INCHIKEY>
OHLNGDFTLNKGPO-UHFFFAOYSA-N

> <PUBCHEM_XLOGP3_AA>
5.5

> <PUBCHEM_EXACT_MASS>
493.1590760

> <PUBCHEM_MOLECULAR_FORMULA>
C27H28ClN3O2S

> <PUBCHEM_MOLECULAR_WEIGHT>
494.0

> <PUBCHEM_OPENEYE_CAN_SMILES>
C1CN(CC=C1C2=CNC3=C2C=C(C=C3)Cl)CCCCNS(=O)(=O)C4=CC5=CC=CC=C5C=C4

> <PUBCHEM_OPENEYE_ISO_SMILES>
C1CN(CC=C1C2=CNC3=C2C=C(C=C3)Cl)CCCCNS(=O)(=O)C4=CC5=CC=CC=C5C=C4

> <PUBCHEM_CACTVS_TPSA>
73.6

> <PUBCHEM_MONOISOTOPIC_WEIGHT>
493.1590760

> <PUBCHEM_TOTAL_CHARGE>
0

> <PUBCHEM_HEAVY_ATOM_COUNT>
34

> <PUBCHEM_ATOM_DEF_STEREO_COUNT>
0

> <PUBCHEM_ATOM_UDEF_STEREO_COUNT>
0

> <PUBCHEM_BOND_DEF_STEREO_COUNT>
0

> <PUBCHEM_BOND_UDEF_STEREO_COUNT>
0

> <PUBCHEM_ISOTOPIC_ATOM_COUNT>
0

> <PUBCHEM_COMPONENT_COUNT>
1

> <PUBCHEM_CACTVS_TAUTO_COUNT>
-1

> <PUBCHEM_COORDINATE_TYPE>
1
5
255

> <PUBCHEM_BONDANNOTATIONS>
15  17  8
15  19  8
17  20  8
17  21  8
20  22  8
21  24  8
22  25  8
23  26  8
23  27  8
24  25  8
26  28  8
27  30  8
28  29  8
28  31  8
29  30  8
29  32  8
31  33  8
32  34  8
33  34  8
6  19  8
6  20  8

$$$$
