45268346
  -OEChem-09292322282D

 58 62  0     0  0  0  0  0  0999 V2000
    6.3982   -7.2772    0.0000 Cl  0  0  0  0  0  0  0  0  0  0  0  0
    3.8611    3.7946    0.0000 O   0  0  0  0  0  0  0  0  0  0  0  0
    7.2962   -2.5720    0.0000 O   0  0  0  0  0  0  0  0  0  0  0  0
    4.6701    0.2068    0.0000 N   0  0  0  0  0  0  0  0  0  0  0  0
    5.5361   -2.2932    0.0000 N   0  0  0  0  0  0  0  0  0  0  0  0
    6.0361   -3.8321    0.0000 N   0  0  0  0  0  0  0  0  0  0  0  0
    5.4791    3.7946    0.0000 N   0  0  0  0  0  0  0  0  0  0  0  0
    5.1701    4.7456    0.0000 N   0  0  0  0  0  0  0  0  0  0  0  0
    4.6701    2.2068    0.0000 C   0  0  0  0  0  0  0  0  0  0  0  0
    3.8041    1.7068    0.0000 C   0  0  0  0  0  0  0  0  0  0  0  0
    5.5361    1.7068    0.0000 C   0  0  0  0  0  0  0  0  0  0  0  0
    3.8041    0.7068    0.0000 C   0  0  0  0  0  0  0  0  0  0  0  0
    5.5361    0.7068    0.0000 C   0  0  0  0  0  0  0  0  0  0  0  0
    4.6701   -0.7932    0.0000 C   0  0  0  0  0  0  0  0  0  0  0  0
    5.5361   -1.2932    0.0000 C   0  0  0  0  0  0  0  0  0  0  0  0
    4.6701    3.2068    0.0000 C   0  0  0  0  0  0  0  0  0  0  0  0
    4.7271   -2.8810    0.0000 C   0  0  0  0  0  0  0  0  0  0  0  0
    5.0361   -3.8321    0.0000 C   0  0  0  0  0  0  0  0  0  0  0  0
    6.3451   -2.8810    0.0000 C   0  0  0  0  0  0  0  0  0  0  0  0
    6.6239   -4.6411    0.0000 C   0  0  0  0  0  0  0  0  0  0  0  0
    4.1701    4.7456    0.0000 C   0  0  0  0  0  0  0  0  0  0  0  0
    6.2172   -5.5546    0.0000 C   0  0  0  0  0  0  0  0  0  0  0  0
    7.6184   -4.5366    0.0000 C   0  0  0  0  0  0  0  0  0  0  0  0
    3.5823    5.5546    0.0000 C   0  0  0  0  0  0  0  0  0  0  0  0
    6.8050   -6.3636    0.0000 C   0  0  0  0  0  0  0  0  0  0  0  0
    8.2062   -5.3456    0.0000 C   0  0  0  0  0  0  0  0  0  0  0  0
    7.7995   -6.2591    0.0000 C   0  0  0  0  0  0  0  0  0  0  0  0
    2.5878    5.4501    0.0000 C   0  0  0  0  0  0  0  0  0  0  0  0
    3.9890    6.4682    0.0000 C   0  0  0  0  0  0  0  0  0  0  0  0
    2.0000    6.2591    0.0000 C   0  0  0  0  0  0  0  0  0  0  0  0
    3.4013    7.2772    0.0000 C   0  0  0  0  0  0  0  0  0  0  0  0
    2.4067    7.1727    0.0000 C   0  0  0  0  0  0  0  0  0  0  0  0
    5.2070    2.5168    0.0000 H   0  0  0  0  0  0  0  0  0  0  0  0
    3.5920    2.2894    0.0000 H   0  0  0  0  0  0  0  0  0  0  0  0
    3.1935    1.5991    0.0000 H   0  0  0  0  0  0  0  0  0  0  0  0
    6.1467    1.5991    0.0000 H   0  0  0  0  0  0  0  0  0  0  0  0
    5.7482    2.2894    0.0000 H   0  0  0  0  0  0  0  0  0  0  0  0
    3.1935    0.8144    0.0000 H   0  0  0  0  0  0  0  0  0  0  0  0
    3.5920    0.1242    0.0000 H   0  0  0  0  0  0  0  0  0  0  0  0
    5.7482    0.1242    0.0000 H   0  0  0  0  0  0  0  0  0  0  0  0
    6.1467    0.8144    0.0000 H   0  0  0  0  0  0  0  0  0  0  0  0
    4.0595   -0.6856    0.0000 H   0  0  0  0  0  0  0  0  0  0  0  0
    4.4580   -1.3758    0.0000 H   0  0  0  0  0  0  0  0  0  0  0  0
    6.1467   -1.4009    0.0000 H   0  0  0  0  0  0  0  0  0  0  0  0
    5.7482   -0.7106    0.0000 H   0  0  0  0  0  0  0  0  0  0  0  0
    4.4171   -2.3441    0.0000 H   0  0  0  0  0  0  0  0  0  0  0  0
    4.1607   -3.1332    0.0000 H   0  0  0  0  0  0  0  0  0  0  0  0
    4.4297   -3.9610    0.0000 H   0  0  0  0  0  0  0  0  0  0  0  0
    5.1009   -4.4487    0.0000 H   0  0  0  0  0  0  0  0  0  0  0  0
    5.6006   -5.6194    0.0000 H   0  0  0  0  0  0  0  0  0  0  0  0
    7.8706   -3.9702    0.0000 H   0  0  0  0  0  0  0  0  0  0  0  0
    8.8228   -5.2808    0.0000 H   0  0  0  0  0  0  0  0  0  0  0  0
    8.1639   -6.7607    0.0000 H   0  0  0  0  0  0  0  0  0  0  0  0
    2.3356    4.8837    0.0000 H   0  0  0  0  0  0  0  0  0  0  0  0
    4.6056    6.5330    0.0000 H   0  0  0  0  0  0  0  0  0  0  0  0
    1.3834    6.1943    0.0000 H   0  0  0  0  0  0  0  0  0  0  0  0
    3.6534    7.8436    0.0000 H   0  0  0  0  0  0  0  0  0  0  0  0
    2.0423    7.6743    0.0000 H   0  0  0  0  0  0  0  0  0  0  0  0
  1 25  1  0  0  0  0
  2 16  1  0  0  0  0
  2 21  1  0  0  0  0
  3 19  2  0  0  0  0
  4 12  1  0  0  0  0
  4 13  1  0  0  0  0
  4 14  1  0  0  0  0
  5 15  1  0  0  0  0
  5 17  1  0  0  0  0
  5 19  1  0  0  0  0
  6 18  1  0  0  0  0
  6 19  1  0  0  0  0
  6 20  1  0  0  0  0
  7  8  1  0  0  0  0
  7 16  2  0  0  0  0
  8 21  2  0  0  0  0
  9 10  1  0  0  0  0
  9 11  1  0  0  0  0
  9 16  1  0  0  0  0
  9 33  1  0  0  0  0
 10 12  1  0  0  0  0
 10 34  1  0  0  0  0
 10 35  1  0  0  0  0
 11 13  1  0  0  0  0
 11 36  1  0  0  0  0
 11 37  1  0  0  0  0
 12 38  1  0  0  0  0
 12 39  1  0  0  0  0
 13 40  1  0  0  0  0
 13 41  1  0  0  0  0
 14 15  1  0  0  0  0
 14 42  1  0  0  0  0
 14 43  1  0  0  0  0
 15 44  1  0  0  0  0
 15 45  1  0  0  0  0
 17 18  1  0  0  0  0
 17 46  1  0  0  0  0
 17 47  1  0  0  0  0
 18 48  1  0  0  0  0
 18 49  1  0  0  0  0
 20 22  2  0  0  0  0
 20 23  1  0  0  0  0
 21 24  1  0  0  0  0
 22 25  1  0  0  0  0
 22 50  1  0  0  0  0
 23 26  2  0  0  0  0
 23 51  1  0  0  0  0
 24 28  2  0  0  0  0
 24 29  1  0  0  0  0
 25 27  2  0  0  0  0
 26 27  1  0  0  0  0
 26 52  1  0  0  0  0
 27 53  1  0  0  0  0
 28 30  1  0  0  0  0
 28 54  1  0  0  0  0
 29 31  2  0  0  0  0
 29 55  1  0  0  0  0
 30 32  2  0  0  0  0
 30 56  1  0  0  0  0
 31 32  1  0  0  0  0
 31 57  1  0  0  0  0
 32 58  1  0  0  0  0
M  END
> <PUBCHEM_COMPOUND_CID>
45268346

> <PUBCHEM_COMPOUND_CANONICALIZED>
1

> <PUBCHEM_CACTVS_COMPLEXITY>
626

> <PUBCHEM_CACTVS_HBOND_ACCEPTOR>
5

> <PUBCHEM_CACTVS_HBOND_DONOR>
0

> <PUBCHEM_CACTVS_ROTATABLE_BOND>
6

> <PUBCHEM_CACTVS_SUBSKEYS>
AAADceB7sAAEAAAAAAAAAAAAAAAAAWLAAAA8YIAAAAAAAAAB0AAAHgIIAAAADQrBmiQxwIMABECqAiVyUACSAAAtBwAaiCE4btiIZrLBt5meMQhszgPI6ae8yCCOAAAAAAIAAAAAAAAABAAAAAAAAAAAAA==

> <PUBCHEM_IUPAC_OPENEYE_NAME>
1-(3-chlorophenyl)-3-[2-[4-(5-phenyl-1,3,4-oxadiazol-2-yl)-1-piperidyl]ethyl]imidazolidin-2-one

> <PUBCHEM_IUPAC_CAS_NAME>
1-(3-chlorophenyl)-3-[2-[4-(5-phenyl-1,3,4-oxadiazol-2-yl)-1-piperidinyl]ethyl]-2-imidazolidinone

> <PUBCHEM_IUPAC_NAME_MARKUP>
1-(3-chlorophenyl)-3-[2-[4-(5-phenyl-1,3,4-oxadiazol-2-yl)piperidin-1-yl]ethyl]imidazolidin-2-one

> <PUBCHEM_IUPAC_NAME>
1-(3-chlorophenyl)-3-[2-[4-(5-phenyl-1,3,4-oxadiazol-2-yl)piperidin-1-yl]ethyl]imidazolidin-2-one

> <PUBCHEM_IUPAC_SYSTEMATIC_NAME>
1-(3-chlorophenyl)-3-[2-[4-(5-phenyl-1,3,4-oxadiazol-2-yl)piperidin-1-yl]ethyl]imidazolidin-2-one

> <PUBCHEM_IUPAC_TRADITIONAL_NAME>
1-(3-chlorophenyl)-3-[2-[4-(5-phenyl-1,3,4-oxadiazol-2-yl)piperidino]ethyl]-2-imidazolidinone

> <PUBCHEM_IUPAC_INCHI>
InChI=1S/C24H26ClN5O2/c25-20-7-4-8-21(17-20)30-16-15-29(24(30)31)14-13-28-11-9-19(10-12-28)23-27-26-22(32-23)18-5-2-1-3-6-18/h1-8,17,19H,9-16H2

> <PUBCHEM_IUPAC_INCHIKEY>
INZVCQWDAXDGMY-UHFFFAOYSA-N

> <PUBCHEM_XLOGP3_AA>
3.5

> <PUBCHEM_EXACT_MASS>
451.1775028

> <PUBCHEM_MOLECULAR_FORMULA>
C24H26ClN5O2

> <PUBCHEM_MOLECULAR_WEIGHT>
451.9

> <PUBCHEM_OPENEYE_CAN_SMILES>
C1CN(CCC1C2=NN=C(O2)C3=CC=CC=C3)CCN4CCN(C4=O)C5=CC(=CC=C5)Cl

> <PUBCHEM_OPENEYE_ISO_SMILES>
C1CN(CCC1C2=NN=C(O2)C3=CC=CC=C3)CCN4CCN(C4=O)C5=CC(=CC=C5)Cl

> <PUBCHEM_CACTVS_TPSA>
65.7

> <PUBCHEM_MONOISOTOPIC_WEIGHT>
451.1775028

> <PUBCHEM_TOTAL_CHARGE>
0

> <PUBCHEM_HEAVY_ATOM_COUNT>
32

> <PUBCHEM_ATOM_DEF_STEREO_COUNT>
0

> <PUBCHEM_ATOM_UDEF_STEREO_COUNT>
0

> <PUBCHEM_BOND_DEF_STEREO_COUNT>
0

> <PUBCHEM_BOND_UDEF_STEREO_COUNT>
0

> <PUBCHEM_ISOTOPIC_ATOM_COUNT>
0

> <PUBCHEM_COMPONENT_COUNT>
1

> <PUBCHEM_CACTVS_TAUTO_COUNT>
-1

> <PUBCHEM_COORDINATE_TYPE>
1
5
255

> <PUBCHEM_BONDANNOTATIONS>
2  16  8
2  21  8
20  22  8
20  23  8
22  25  8
23  26  8
24  28  8
24  29  8
25  27  8
26  27  8
28  30  8
29  31  8
30  32  8
31  32  8
7  16  8
7  8  8
8  21  8

$$$$
