44283941
  -OEChem-09292322502D

 49 52  0     1  0  0  0  0  0999 V2000
    4.9889   -4.9790    0.0000 O   0  0  0  0  0  0  0  0  0  0  0  0
    6.2781   -0.3117    0.0000 N   0  0  0  0  0  0  0  0  0  0  0  0
    6.8994    1.5893    0.0000 N   0  0  0  0  0  0  0  0  0  0  0  0
    5.2619   -3.2237    0.0000 N   0  0  0  0  0  0  0  0  0  0  0  0
    8.1886    2.7461    0.0000 N   0  0  0  0  0  0  0  0  0  0  0  0
    5.9674   -1.2622    0.0000 C   0  0  0  0  0  0  0  0  0  0  0  0
    4.9889   -1.4685    0.0000 C   0  0  0  0  0  0  0  0  0  0  0  0
    7.2566   -0.1055    0.0000 C   0  0  0  0  0  0  0  0  0  0  0  0
    5.6103    0.4326    0.0000 C   0  0  0  0  0  0  0  0  0  0  0  0
    4.6783   -2.4190    0.0000 C   0  0  3  0  0  0  0  0  0  0  0  0
    7.5673    0.8450    0.0000 C   0  0  0  0  0  0  0  0  0  0  0  0
    5.9209    1.3831    0.0000 C   0  0  0  0  0  0  0  0  0  0  0  0
    3.7320   -2.7237    0.0000 C   0  0  0  0  0  0  0  0  0  0  0  0
    3.7320   -3.7237    0.0000 C   0  0  0  0  0  0  0  0  0  0  0  0
    7.2101    2.5398    0.0000 C   0  0  0  0  0  0  0  0  0  0  0  0
    4.6783   -4.0284    0.0000 C   0  0  0  0  0  0  0  0  0  0  0  0
    2.8660   -2.2237    0.0000 C   0  0  0  0  0  0  0  0  0  0  0  0
    2.8660   -4.2237    0.0000 C   0  0  0  0  0  0  0  0  0  0  0  0
    6.5422    3.2841    0.0000 C   0  0  0  0  0  0  0  0  0  0  0  0
    2.0000   -2.7237    0.0000 C   0  0  0  0  0  0  0  0  0  0  0  0
    2.0000   -3.7237    0.0000 C   0  0  0  0  0  0  0  0  0  0  0  0
    6.8529    4.2347    0.0000 C   0  0  0  0  0  0  0  0  0  0  0  0
    8.4993    3.6966    0.0000 C   0  0  0  0  0  0  0  0  0  0  0  0
    7.8314    4.4409    0.0000 C   0  0  0  0  0  0  0  0  0  0  0  0
    6.1851    4.9790    0.0000 C   0  0  0  0  0  0  0  0  0  0  0  0
    5.9880   -1.8819    0.0000 H   0  0  0  0  0  0  0  0  0  0  0  0
    6.5812   -1.3496    0.0000 H   0  0  0  0  0  0  0  0  0  0  0  0
    4.9684   -0.8488    0.0000 H   0  0  0  0  0  0  0  0  0  0  0  0
    4.3751   -1.3811    0.0000 H   0  0  0  0  0  0  0  0  0  0  0  0
    7.2772   -0.7252    0.0000 H   0  0  0  0  0  0  0  0  0  0  0  0
    7.8704   -0.1929    0.0000 H   0  0  0  0  0  0  0  0  0  0  0  0
    5.0633    0.7246    0.0000 H   0  0  0  0  0  0  0  0  0  0  0  0
    5.2277   -0.0553    0.0000 H   0  0  0  0  0  0  0  0  0  0  0  0
    5.2908   -2.3228    0.0000 H   0  0  0  0  0  0  0  0  0  0  0  0
    8.1142    0.5530    0.0000 H   0  0  0  0  0  0  0  0  0  0  0  0
    7.9498    1.3329    0.0000 H   0  0  0  0  0  0  0  0  0  0  0  0
    5.9004    2.0028    0.0000 H   0  0  0  0  0  0  0  0  0  0  0  0
    5.3071    1.4704    0.0000 H   0  0  0  0  0  0  0  0  0  0  0  0
    5.8819   -3.2237    0.0000 H   0  0  0  0  0  0  0  0  0  0  0  0
    2.8660   -1.6037    0.0000 H   0  0  0  0  0  0  0  0  0  0  0  0
    2.8660   -4.8437    0.0000 H   0  0  0  0  0  0  0  0  0  0  0  0
    5.9356    3.1563    0.0000 H   0  0  0  0  0  0  0  0  0  0  0  0
    1.4631   -2.4137    0.0000 H   0  0  0  0  0  0  0  0  0  0  0  0
    1.4631   -4.0337    0.0000 H   0  0  0  0  0  0  0  0  0  0  0  0
    9.1059    3.8244    0.0000 H   0  0  0  0  0  0  0  0  0  0  0  0
    8.0240    5.0302    0.0000 H   0  0  0  0  0  0  0  0  0  0  0  0
    6.6465    5.3930    0.0000 H   0  0  0  0  0  0  0  0  0  0  0  0
    5.7710    5.4404    0.0000 H   0  0  0  0  0  0  0  0  0  0  0  0
    5.7236    4.5649    0.0000 H   0  0  0  0  0  0  0  0  0  0  0  0
  1 16  2  0  0  0  0
  2  6  1  0  0  0  0
  2  8  1  0  0  0  0
  2  9  1  0  0  0  0
  3 11  1  0  0  0  0
  3 12  1  0  0  0  0
  3 15  1  0  0  0  0
  4 10  1  0  0  0  0
  4 16  1  0  0  0  0
  4 39  1  0  0  0  0
  5 15  2  0  0  0  0
  5 23  1  0  0  0  0
  6  7  1  0  0  0  0
  6 26  1  0  0  0  0
  6 27  1  0  0  0  0
  7 10  1  0  0  0  0
  7 28  1  0  0  0  0
  7 29  1  0  0  0  0
  8 11  1  0  0  0  0
  8 30  1  0  0  0  0
  8 31  1  0  0  0  0
  9 12  1  0  0  0  0
  9 32  1  0  0  0  0
  9 33  1  0  0  0  0
 10 13  1  0  0  0  0
 10 34  1  0  0  0  0
 11 35  1  0  0  0  0
 11 36  1  0  0  0  0
 12 37  1  0  0  0  0
 12 38  1  0  0  0  0
 13 14  1  0  0  0  0
 13 17  2  0  0  0  0
 14 16  1  0  0  0  0
 14 18  2  0  0  0  0
 15 19  1  0  0  0  0
 17 20  1  0  0  0  0
 17 40  1  0  0  0  0
 18 21  1  0  0  0  0
 18 41  1  0  0  0  0
 19 22  2  0  0  0  0
 19 42  1  0  0  0  0
 20 21  2  0  0  0  0
 20 43  1  0  0  0  0
 21 44  1  0  0  0  0
 22 24  1  0  0  0  0
 22 25  1  0  0  0  0
 23 24  2  0  0  0  0
 23 45  1  0  0  0  0
 24 46  1  0  0  0  0
 25 47  1  0  0  0  0
 25 48  1  0  0  0  0
 25 49  1  0  0  0  0
M  END
> <PUBCHEM_COMPOUND_CID>
44283941

> <PUBCHEM_COMPOUND_CANONICALIZED>
1

> <PUBCHEM_CACTVS_COMPLEXITY>
463

> <PUBCHEM_CACTVS_HBOND_ACCEPTOR>
4

> <PUBCHEM_CACTVS_HBOND_DONOR>
1

> <PUBCHEM_CACTVS_ROTATABLE_BOND>
4

> <PUBCHEM_CACTVS_SUBSKEYS>
AAADceB7oAAAAAAAAAAAAAAAAAAAAWAAAAA8WIAAAAAAAFgBwAAAHgAQAAAADCjBmgQ/sJPIEACoAjN3dACCgCk1AiAJ2KE4ZNiIYHLA3ZGUIQholgLIyacciICOgAAAAAAQAAAAAAAAACAAAAAAAAAAAA==

> <PUBCHEM_IUPAC_OPENEYE_NAME>
3-[2-[4-(4-methyl-2-pyridyl)piperazin-1-yl]ethyl]isoindolin-1-one

> <PUBCHEM_IUPAC_CAS_NAME>
3-[2-[4-(4-methyl-2-pyridinyl)-1-piperazinyl]ethyl]-2,3-dihydroisoindol-1-one

> <PUBCHEM_IUPAC_NAME_MARKUP>
3-[2-[4-(4-methylpyridin-2-yl)piperazin-1-yl]ethyl]-2,3-dihydroisoindol-1-one

> <PUBCHEM_IUPAC_NAME>
3-[2-[4-(4-methylpyridin-2-yl)piperazin-1-yl]ethyl]-2,3-dihydroisoindol-1-one

> <PUBCHEM_IUPAC_SYSTEMATIC_NAME>
3-[2-[4-(4-methylpyridin-2-yl)piperazin-1-yl]ethyl]-2,3-dihydroisoindol-1-one

> <PUBCHEM_IUPAC_TRADITIONAL_NAME>
3-[2-[4-(4-methyl-2-pyridyl)piperazino]ethyl]isoindolin-1-one

> <PUBCHEM_IUPAC_INCHI>
InChI=1S/C20H24N4O/c1-15-6-8-21-19(14-15)24-12-10-23(11-13-24)9-7-18-16-4-2-3-5-17(16)20(25)22-18/h2-6,8,14,18H,7,9-13H2,1H3,(H,22,25)

> <PUBCHEM_IUPAC_INCHIKEY>
DQPPITADMDONIT-UHFFFAOYSA-N

> <PUBCHEM_XLOGP3_AA>
2.4

> <PUBCHEM_EXACT_MASS>
336.19501140

> <PUBCHEM_MOLECULAR_FORMULA>
C20H24N4O

> <PUBCHEM_MOLECULAR_WEIGHT>
336.4

> <PUBCHEM_OPENEYE_CAN_SMILES>
CC1=CC(=NC=C1)N2CCN(CC2)CCC3C4=CC=CC=C4C(=O)N3

> <PUBCHEM_OPENEYE_ISO_SMILES>
CC1=CC(=NC=C1)N2CCN(CC2)CCC3C4=CC=CC=C4C(=O)N3

> <PUBCHEM_CACTVS_TPSA>
48.5

> <PUBCHEM_MONOISOTOPIC_WEIGHT>
336.19501140

> <PUBCHEM_TOTAL_CHARGE>
0

> <PUBCHEM_HEAVY_ATOM_COUNT>
25

> <PUBCHEM_ATOM_DEF_STEREO_COUNT>
0

> <PUBCHEM_ATOM_UDEF_STEREO_COUNT>
1

> <PUBCHEM_BOND_DEF_STEREO_COUNT>
0

> <PUBCHEM_BOND_UDEF_STEREO_COUNT>
0

> <PUBCHEM_ISOTOPIC_ATOM_COUNT>
0

> <PUBCHEM_COMPONENT_COUNT>
1

> <PUBCHEM_CACTVS_TAUTO_COUNT>
-1

> <PUBCHEM_COORDINATE_TYPE>
1
5
255

> <PUBCHEM_BONDANNOTATIONS>
13  14  8
13  17  8
14  18  8
15  19  8
17  20  8
18  21  8
19  22  8
20  21  8
22  24  8
23  24  8
5  15  8
5  23  8
10  7  3

$$$$
