44338292
  -OEChem-09292322192D

 44 47  0     0  0  0  0  0  0999 V2000
    2.3176    2.8662    0.0000 Cl  0  0  0  0  0  0  0  0  0  0  0  0
    9.7619   -2.7322    0.0000 O   0  0  0  0  0  0  0  0  0  0  0  0
    9.7619   -1.0002    0.0000 O   0  0  0  0  0  0  0  0  0  0  0  0
    4.6783   -1.0615    0.0000 N   0  0  0  0  0  0  0  0  0  0  0  0
    4.6783   -2.6710    0.0000 N   0  0  0  0  0  0  0  0  0  0  0  0
    3.7320   -1.3662    0.0000 C   0  0  0  0  0  0  0  0  0  0  0  0
    4.9889   -0.1110    0.0000 C   0  0  0  0  0  0  0  0  0  0  0  0
    5.2619   -1.8662    0.0000 C   0  0  0  0  0  0  0  0  0  0  0  0
    3.7320   -2.3662    0.0000 C   0  0  0  0  0  0  0  0  0  0  0  0
    6.2619   -1.8662    0.0000 C   0  0  0  0  0  0  0  0  0  0  0  0
    4.3211    0.6333    0.0000 C   0  0  0  0  0  0  0  0  0  0  0  0
    2.8660   -0.8662    0.0000 C   0  0  0  0  0  0  0  0  0  0  0  0
    2.8660   -2.8662    0.0000 C   0  0  0  0  0  0  0  0  0  0  0  0
    6.7619   -2.7322    0.0000 C   0  0  0  0  0  0  0  0  0  0  0  0
    6.7619   -1.0002    0.0000 C   0  0  0  0  0  0  0  0  0  0  0  0
    2.0000   -1.3662    0.0000 C   0  0  0  0  0  0  0  0  0  0  0  0
    2.0000   -2.3662    0.0000 C   0  0  0  0  0  0  0  0  0  0  0  0
    4.6318    1.5838    0.0000 C   0  0  0  0  0  0  0  0  0  0  0  0
    3.3426    0.4271    0.0000 C   0  0  0  0  0  0  0  0  0  0  0  0
    7.7619   -2.7322    0.0000 C   0  0  0  0  0  0  0  0  0  0  0  0
    7.7619   -1.0002    0.0000 C   0  0  0  0  0  0  0  0  0  0  0  0
    8.2619   -1.8662    0.0000 C   0  0  0  0  0  0  0  0  0  0  0  0
    3.9639    2.3282    0.0000 C   0  0  0  0  0  0  0  0  0  0  0  0
    2.6747    1.1714    0.0000 C   0  0  0  0  0  0  0  0  0  0  0  0
    2.9854    2.1219    0.0000 C   0  0  0  0  0  0  0  0  0  0  0  0
    9.2619   -1.8662    0.0000 C   0  0  0  0  0  0  0  0  0  0  0  0
   10.7619   -2.7322    0.0000 C   0  0  0  0  0  0  0  0  0  0  0  0
    5.5359   -0.4030    0.0000 H   0  0  0  0  0  0  0  0  0  0  0  0
    5.3715    0.3769    0.0000 H   0  0  0  0  0  0  0  0  0  0  0  0
    2.8660   -0.2462    0.0000 H   0  0  0  0  0  0  0  0  0  0  0  0
    2.8660   -3.4862    0.0000 H   0  0  0  0  0  0  0  0  0  0  0  0
    6.4519   -3.2692    0.0000 H   0  0  0  0  0  0  0  0  0  0  0  0
    6.4519   -0.4633    0.0000 H   0  0  0  0  0  0  0  0  0  0  0  0
    1.4631   -1.0562    0.0000 H   0  0  0  0  0  0  0  0  0  0  0  0
    1.4631   -2.6762    0.0000 H   0  0  0  0  0  0  0  0  0  0  0  0
    5.2384    1.7117    0.0000 H   0  0  0  0  0  0  0  0  0  0  0  0
    3.1500   -0.1622    0.0000 H   0  0  0  0  0  0  0  0  0  0  0  0
    8.0719   -3.2692    0.0000 H   0  0  0  0  0  0  0  0  0  0  0  0
    8.0719   -0.4633    0.0000 H   0  0  0  0  0  0  0  0  0  0  0  0
    4.1565    2.9175    0.0000 H   0  0  0  0  0  0  0  0  0  0  0  0
    2.0681    1.0436    0.0000 H   0  0  0  0  0  0  0  0  0  0  0  0
   10.7619   -3.3522    0.0000 H   0  0  0  0  0  0  0  0  0  0  0  0
   11.3819   -2.7322    0.0000 H   0  0  0  0  0  0  0  0  0  0  0  0
   10.7619   -2.1123    0.0000 H   0  0  0  0  0  0  0  0  0  0  0  0
  1 25  1  0  0  0  0
  2 26  1  0  0  0  0
  2 27  1  0  0  0  0
  3 26  2  0  0  0  0
  4  6  1  0  0  0  0
  4  7  1  0  0  0  0
  4  8  1  0  0  0  0
  5  8  2  0  0  0  0
  5  9  1  0  0  0  0
  6  9  1  0  0  0  0
  6 12  2  0  0  0  0
  7 11  1  0  0  0  0
  7 28  1  0  0  0  0
  7 29  1  0  0  0  0
  8 10  1  0  0  0  0
  9 13  2  0  0  0  0
 10 14  2  0  0  0  0
 10 15  1  0  0  0  0
 11 18  2  0  0  0  0
 11 19  1  0  0  0  0
 12 16  1  0  0  0  0
 12 30  1  0  0  0  0
 13 17  1  0  0  0  0
 13 31  1  0  0  0  0
 14 20  1  0  0  0  0
 14 32  1  0  0  0  0
 15 21  2  0  0  0  0
 15 33  1  0  0  0  0
 16 17  2  0  0  0  0
 16 34  1  0  0  0  0
 17 35  1  0  0  0  0
 18 23  1  0  0  0  0
 18 36  1  0  0  0  0
 19 24  2  0  0  0  0
 19 37  1  0  0  0  0
 20 22  2  0  0  0  0
 20 38  1  0  0  0  0
 21 22  1  0  0  0  0
 21 39  1  0  0  0  0
 22 26  1  0  0  0  0
 23 25  2  0  0  0  0
 23 40  1  0  0  0  0
 24 25  1  0  0  0  0
 24 41  1  0  0  0  0
 27 42  1  0  0  0  0
 27 43  1  0  0  0  0
 27 44  1  0  0  0  0
M  END
> <PUBCHEM_COMPOUND_CID>
44338292

> <PUBCHEM_COMPOUND_CANONICALIZED>
1

> <PUBCHEM_CACTVS_COMPLEXITY>
501

> <PUBCHEM_CACTVS_HBOND_ACCEPTOR>
3

> <PUBCHEM_CACTVS_HBOND_DONOR>
0

> <PUBCHEM_CACTVS_ROTATABLE_BOND>
5

> <PUBCHEM_CACTVS_SUBSKEYS>
AAADceB7MAAEAAAAAAAAAAAAAAAAAWAAAAAwYMAAAAAAAFgB9AAAHgIAAAAADArBnyYz2LcMFACoAybybACCgC0lF6AJ2CE4ftiIbrLBv5mUMQhswAPI6aeYyDCORAAAAAAAACCIAAAAAAAAQAAAAAAAAA==

> <PUBCHEM_IUPAC_OPENEYE_NAME>
methyl 4-[1-[(4-chlorophenyl)methyl]benzimidazol-2-yl]benzoate

> <PUBCHEM_IUPAC_CAS_NAME>
4-[1-[(4-chlorophenyl)methyl]-2-benzimidazolyl]benzoic acid methyl ester

> <PUBCHEM_IUPAC_NAME_MARKUP>
methyl 4-[1-[(4-chlorophenyl)methyl]benzimidazol-2-yl]benzoate

> <PUBCHEM_IUPAC_NAME>
methyl 4-[1-[(4-chlorophenyl)methyl]benzimidazol-2-yl]benzoate

> <PUBCHEM_IUPAC_SYSTEMATIC_NAME>
methyl 4-[1-[(4-chlorophenyl)methyl]benzimidazol-2-yl]benzoate

> <PUBCHEM_IUPAC_TRADITIONAL_NAME>
4-[1-(4-chlorobenzyl)benzimidazol-2-yl]benzoic acid methyl ester

> <PUBCHEM_IUPAC_INCHI>
InChI=1S/C22H17ClN2O2/c1-27-22(26)17-10-8-16(9-11-17)21-24-19-4-2-3-5-20(19)25(21)14-15-6-12-18(23)13-7-15/h2-13H,14H2,1H3

> <PUBCHEM_IUPAC_INCHIKEY>
GLYQQBFMZKSXNY-UHFFFAOYSA-N

> <PUBCHEM_XLOGP3_AA>
5.2

> <PUBCHEM_EXACT_MASS>
376.0978555

> <PUBCHEM_MOLECULAR_FORMULA>
C22H17ClN2O2

> <PUBCHEM_MOLECULAR_WEIGHT>
376.8

> <PUBCHEM_OPENEYE_CAN_SMILES>
COC(=O)C1=CC=C(C=C1)C2=NC3=CC=CC=C3N2CC4=CC=C(C=C4)Cl

> <PUBCHEM_OPENEYE_ISO_SMILES>
COC(=O)C1=CC=C(C=C1)C2=NC3=CC=CC=C3N2CC4=CC=C(C=C4)Cl

> <PUBCHEM_CACTVS_TPSA>
44.1

> <PUBCHEM_MONOISOTOPIC_WEIGHT>
376.0978555

> <PUBCHEM_TOTAL_CHARGE>
0

> <PUBCHEM_HEAVY_ATOM_COUNT>
27

> <PUBCHEM_ATOM_DEF_STEREO_COUNT>
0

> <PUBCHEM_ATOM_UDEF_STEREO_COUNT>
0

> <PUBCHEM_BOND_DEF_STEREO_COUNT>
0

> <PUBCHEM_BOND_UDEF_STEREO_COUNT>
0

> <PUBCHEM_ISOTOPIC_ATOM_COUNT>
0

> <PUBCHEM_COMPONENT_COUNT>
1

> <PUBCHEM_CACTVS_TAUTO_COUNT>
-1

> <PUBCHEM_COORDINATE_TYPE>
1
5
255

> <PUBCHEM_BONDANNOTATIONS>
10  14  8
10  15  8
11  18  8
11  19  8
12  16  8
13  17  8
14  20  8
15  21  8
16  17  8
18  23  8
19  24  8
20  22  8
21  22  8
23  25  8
24  25  8
4  6  8
4  8  8
5  8  8
5  9  8
6  12  8
6  9  8
9  13  8

$$$$
