166631490
  -OEChem-09292322452D

 36 38  0     1  0  0  0  0  0999 V2000
    3.0723    2.8664    0.0000 O   0  0  0  0  0  0  0  0  0  0  0  0
    6.0370   -2.7857    0.0000 O   0  0  0  0  0  0  0  0  0  0  0  0
    5.7405    0.8201    0.0000 N   0  0  0  0  0  0  0  0  0  0  0  0
    4.0501    0.0519    0.0000 C   0  0  1  0  0  0  0  0  0  0  0  0
    3.5723    2.0004    0.0000 C   0  0  2  0  0  0  0  0  0  0  0  0
    4.3089    1.0178    0.0000 C   0  0  2  0  0  0  0  0  0  0  0  0
    2.8290   -0.8138    0.0000 C   0  0  0  0  0  0  0  0  0  0  0  0
    5.3217   -0.7428    0.0000 C   0  0  0  0  0  0  0  0  0  0  0  0
    2.2756    0.7067    0.0000 C   0  0  0  0  0  0  0  0  0  0  0  0
    2.0000   -0.2546    0.0000 C   0  0  0  0  0  0  0  0  0  0  0  0
    6.0989   -0.1134    0.0000 C   0  0  0  0  0  0  0  0  0  0  0  0
    4.1373   -0.9443    0.0000 C   0  0  0  0  0  0  0  0  0  0  0  0
    5.0435   -1.3669    0.0000 C   0  0  0  0  0  0  0  0  0  0  0  0
    3.3181   -1.5179    0.0000 C   0  0  0  0  0  0  0  0  0  0  0  0
    5.1307   -2.3631    0.0000 C   0  0  0  0  0  0  0  0  0  0  0  0
    3.4052   -2.5141    0.0000 C   0  0  0  0  0  0  0  0  0  0  0  0
    4.3116   -2.9367    0.0000 C   0  0  0  0  0  0  0  0  0  0  0  0
    4.0897    2.3420    0.0000 H   0  0  0  0  0  0  0  0  0  0  0  0
    4.5289    1.8388    0.0000 H   0  0  0  0  0  0  0  0  0  0  0  0
    2.4232   -1.2825    0.0000 H   0  0  0  0  0  0  0  0  0  0  0  0
    3.2457   -1.2729    0.0000 H   0  0  0  0  0  0  0  0  0  0  0  0
    4.9372   -1.2291    0.0000 H   0  0  0  0  0  0  0  0  0  0  0  0
    5.7627   -1.1786    0.0000 H   0  0  0  0  0  0  0  0  0  0  0  0
    2.2706    1.3267    0.0000 H   0  0  0  0  0  0  0  0  0  0  0  0
    1.6613    0.7905    0.0000 H   0  0  0  0  0  0  0  0  0  0  0  0
    1.4252   -0.0223    0.0000 H   0  0  0  0  0  0  0  0  0  0  0  0
    1.7089   -0.8020    0.0000 H   0  0  0  0  0  0  0  0  0  0  0  0
    6.4366   -0.6334    0.0000 H   0  0  0  0  0  0  0  0  0  0  0  0
    6.6513    0.1680    0.0000 H   0  0  0  0  0  0  0  0  0  0  0  0
    6.0782    1.3401    0.0000 H   0  0  0  0  0  0  0  0  0  0  0  0
    3.3823    3.4034    0.0000 H   0  0  0  0  0  0  0  0  0  0  0  0
    5.5514   -1.0113    0.0000 H   0  0  0  0  0  0  0  0  0  0  0  0
    2.7562   -1.2559    0.0000 H   0  0  0  0  0  0  0  0  0  0  0  0
    2.8974   -2.8697    0.0000 H   0  0  0  0  0  0  0  0  0  0  0  0
    4.3657   -3.5543    0.0000 H   0  0  0  0  0  0  0  0  0  0  0  0
    6.0910   -3.4034    0.0000 H   0  0  0  0  0  0  0  0  0  0  0  0
  5  1  1  1  0  0  0
  1 31  1  0  0  0  0
  2 15  1  0  0  0  0
  2 36  1  0  0  0  0
  3  6  1  0  0  0  0
  3 11  1  0  0  0  0
  3 30  1  0  0  0  0
  4  5  1  0  0  0  0
  4  7  1  0  0  0  0
  4  8  1  0  0  0  0
  4 12  1  1  0  0  0
  5  6  1  0  0  0  0
  5 18  1  0  0  0  0
  6  9  1  0  0  0  0
  6 19  1  6  0  0  0
  7 10  1  0  0  0  0
  7 20  1  0  0  0  0
  7 21  1  0  0  0  0
  8 11  1  0  0  0  0
  8 22  1  0  0  0  0
  8 23  1  0  0  0  0
  9 10  1  0  0  0  0
  9 24  1  0  0  0  0
  9 25  1  0  0  0  0
 10 26  1  0  0  0  0
 10 27  1  0  0  0  0
 11 28  1  0  0  0  0
 11 29  1  0  0  0  0
 12 13  2  0  0  0  0
 12 14  1  0  0  0  0
 13 15  1  0  0  0  0
 13 32  1  0  0  0  0
 14 16  2  0  0  0  0
 14 33  1  0  0  0  0
 15 17  2  0  0  0  0
 16 17  1  0  0  0  0
 16 34  1  0  0  0  0
 17 35  1  0  0  0  0
M  END
> <PUBCHEM_COMPOUND_CID>
166631490

> <PUBCHEM_COMPOUND_CANONICALIZED>
1

> <PUBCHEM_CACTVS_COMPLEXITY>
283

> <PUBCHEM_CACTVS_HBOND_ACCEPTOR>
3

> <PUBCHEM_CACTVS_HBOND_DONOR>
3

> <PUBCHEM_CACTVS_ROTATABLE_BOND>
1

> <PUBCHEM_CACTVS_SUBSKEYS>
AAADceByMAAAAAAAAAAAAAAAAAAAAAAAAAA8YIAAAAAWAAABAAAAHgAQCAAADjzhmAYwBoLAAgCAAiBCAAACAAAgIAAIiIAOCIgKNiKCkRKEcAAk0BGYmAew4PQPgAABAAAAAAAAAAKAABAgAAAAAAAAAA==

> <PUBCHEM_IUPAC_OPENEYE_NAME>
(1S,5S,9R)-5-(3-hydroxyphenyl)-2-azabicyclo[3.3.1]nonan-9-ol

> <PUBCHEM_IUPAC_CAS_NAME>
(1S,5S,9R)-5-(3-hydroxyphenyl)-2-azabicyclo[3.3.1]nonan-9-ol

> <PUBCHEM_IUPAC_NAME_MARKUP>
(1<I>S</I>,5<I>S</I>,9<I>R</I>)-5-(3-hydroxyphenyl)-2-azabicyclo[3.3.1]nonan-9-ol

> <PUBCHEM_IUPAC_NAME>
(1S,5S,9R)-5-(3-hydroxyphenyl)-2-azabicyclo[3.3.1]nonan-9-ol

> <PUBCHEM_IUPAC_SYSTEMATIC_NAME>
(1S,5S,9R)-5-(3-hydroxyphenyl)-2-azabicyclo[3.3.1]nonan-9-ol

> <PUBCHEM_IUPAC_TRADITIONAL_NAME>
(1S,5S,9R)-5-(3-hydroxyphenyl)-2-azabicyclo[3.3.1]nonan-9-ol

> <PUBCHEM_IUPAC_INCHI>
InChI=1S/C14H19NO2/c16-11-4-1-3-10(9-11)14-6-2-5-12(13(14)17)15-8-7-14/h1,3-4,9,12-13,15-17H,2,5-8H2/t12-,13-,14-/m0/s1

> <PUBCHEM_IUPAC_INCHIKEY>
SCLHPUJRNBPHLE-IHRRRGAJSA-N

> <PUBCHEM_XLOGP3_AA>
1.6

> <PUBCHEM_EXACT_MASS>
233.141578849

> <PUBCHEM_MOLECULAR_FORMULA>
C14H19NO2

> <PUBCHEM_MOLECULAR_WEIGHT>
233.31

> <PUBCHEM_OPENEYE_CAN_SMILES>
C1CC2C(C(C1)(CCN2)C3=CC(=CC=C3)O)O

> <PUBCHEM_OPENEYE_ISO_SMILES>
C1C[C@H]2[C@@H]([C@@](C1)(CCN2)C3=CC(=CC=C3)O)O

> <PUBCHEM_CACTVS_TPSA>
52.5

> <PUBCHEM_MONOISOTOPIC_WEIGHT>
233.141578849

> <PUBCHEM_TOTAL_CHARGE>
0

> <PUBCHEM_HEAVY_ATOM_COUNT>
17

> <PUBCHEM_ATOM_DEF_STEREO_COUNT>
3

> <PUBCHEM_ATOM_UDEF_STEREO_COUNT>
0

> <PUBCHEM_BOND_DEF_STEREO_COUNT>
0

> <PUBCHEM_BOND_UDEF_STEREO_COUNT>
0

> <PUBCHEM_ISOTOPIC_ATOM_COUNT>
0

> <PUBCHEM_COMPONENT_COUNT>
1

> <PUBCHEM_CACTVS_TAUTO_COUNT>
-1

> <PUBCHEM_COORDINATE_TYPE>
1
5
255

> <PUBCHEM_BONDANNOTATIONS>
5  1  5
12  13  8
12  14  8
13  15  8
14  16  8
15  17  8
16  17  8
4  12  5
6  19  6

$$$$
