145985513
  -OEChem-09292322052D

 76 77  0     1  0  0  0  0  0999 V2000
    2.0000    0.7784    0.0000 S   0  0  0  0  0  0  0  0  0  0  0  0
   10.5109    0.4420    0.0000 O   0  0  0  0  0  0  0  0  0  0  0  0
    8.7788   -0.5580    0.0000 O   0  0  0  0  0  0  0  0  0  0  0  0
   16.5731   -1.0580    0.0000 N   0  0  3  0  0  0  0  0  0  0  0  0
   11.3769   -1.0580    0.0000 N   0  0  0  0  0  0  0  0  0  0  0  0
   24.3673   -0.5580    0.0000 N   0  0  0  0  0  0  0  0  0  0  0  0
   25.2333   -1.0580    0.0000 N   0  3  0  0  0  0  0  0  0  0  0  0
   26.0993   -1.5580    0.0000 N   0  5  0  0  0  0  0  0  0  0  0  0
    7.0468   -2.5580    0.0000 N   0  0  0  0  0  0  0  0  0  0  0  0
    3.4782    1.4365    0.0000 N   0  0  0  0  0  0  0  0  0  0  0  0
   18.3051   -1.0580    0.0000 C   0  0  0  0  0  0  0  0  0  0  0  0
   19.1711   -0.5580    0.0000 C   0  0  0  0  0  0  0  0  0  0  0  0
   17.4391   -0.5580    0.0000 C   0  0  0  0  0  0  0  0  0  0  0  0
   20.0372   -1.0580    0.0000 C   0  0  0  0  0  0  0  0  0  0  0  0
   15.7070   -0.5580    0.0000 C   0  0  0  0  0  0  0  0  0  0  0  0
   20.9032   -0.5580    0.0000 C   0  0  0  0  0  0  0  0  0  0  0  0
   14.8410   -1.0580    0.0000 C   0  0  0  0  0  0  0  0  0  0  0  0
   13.9750   -0.5580    0.0000 C   0  0  0  0  0  0  0  0  0  0  0  0
   21.7692   -1.0580    0.0000 C   0  0  0  0  0  0  0  0  0  0  0  0
   13.1090   -1.0580    0.0000 C   0  0  0  0  0  0  0  0  0  0  0  0
   16.5731   -2.0580    0.0000 C   0  0  0  0  0  0  0  0  0  0  0  0
   22.6352   -0.5580    0.0000 C   0  0  0  0  0  0  0  0  0  0  0  0
   12.2429   -0.5580    0.0000 C   0  0  0  0  0  0  0  0  0  0  0  0
   23.5013   -1.0580    0.0000 C   0  0  0  0  0  0  0  0  0  0  0  0
   10.5109   -0.5580    0.0000 C   0  0  0  0  0  0  0  0  0  0  0  0
    9.6448   -1.0580    0.0000 C   0  0  0  0  0  0  0  0  0  0  0  0
    7.9128   -1.0580    0.0000 C   0  0  0  0  0  0  0  0  0  0  0  0
    7.0468   -0.5580    0.0000 C   0  0  0  0  0  0  0  0  0  0  0  0
    7.9128   -2.0580    0.0000 C   0  0  0  0  0  0  0  0  0  0  0  0
    6.1808   -1.0580    0.0000 C   0  0  0  0  0  0  0  0  0  0  0  0
    6.1808   -2.0580    0.0000 C   0  0  0  0  0  0  0  0  0  0  0  0
    5.3147   -0.5580    0.0000 C   0  0  0  0  0  0  0  0  0  0  0  0
    4.4487   -0.0580    0.0000 C   0  0  0  0  0  0  0  0  0  0  0  0
    3.5827    0.4420    0.0000 C   0  0  0  0  0  0  0  0  0  0  0  0
    2.6691    0.0353    0.0000 C   0  0  0  0  0  0  0  0  0  0  0  0
    2.5000    1.6444    0.0000 C   0  0  0  0  0  0  0  0  0  0  0  0
    2.0933    2.5580    0.0000 C   0  0  0  0  0  0  0  0  0  0  0  0
   17.9066   -1.5329    0.0000 H   0  0  0  0  0  0  0  0  0  0  0  0
   18.7036   -1.5329    0.0000 H   0  0  0  0  0  0  0  0  0  0  0  0
   19.5697   -0.0830    0.0000 H   0  0  0  0  0  0  0  0  0  0  0  0
   18.7726   -0.0830    0.0000 H   0  0  0  0  0  0  0  0  0  0  0  0
   17.8376   -0.0830    0.0000 H   0  0  0  0  0  0  0  0  0  0  0  0
   17.0406   -0.0830    0.0000 H   0  0  0  0  0  0  0  0  0  0  0  0
   19.6386   -1.5329    0.0000 H   0  0  0  0  0  0  0  0  0  0  0  0
   20.4357   -1.5329    0.0000 H   0  0  0  0  0  0  0  0  0  0  0  0
   16.1056   -0.0830    0.0000 H   0  0  0  0  0  0  0  0  0  0  0  0
   15.3085   -0.0830    0.0000 H   0  0  0  0  0  0  0  0  0  0  0  0
   14.4425   -1.5329    0.0000 H   0  0  0  0  0  0  0  0  0  0  0  0
   15.2395   -1.5329    0.0000 H   0  0  0  0  0  0  0  0  0  0  0  0
   21.3017   -0.0830    0.0000 H   0  0  0  0  0  0  0  0  0  0  0  0
   20.5047   -0.0830    0.0000 H   0  0  0  0  0  0  0  0  0  0  0  0
   14.3735   -0.0830    0.0000 H   0  0  0  0  0  0  0  0  0  0  0  0
   13.5765   -0.0830    0.0000 H   0  0  0  0  0  0  0  0  0  0  0  0
   21.3707   -1.5329    0.0000 H   0  0  0  0  0  0  0  0  0  0  0  0
   22.1677   -1.5329    0.0000 H   0  0  0  0  0  0  0  0  0  0  0  0
   12.7104   -1.5329    0.0000 H   0  0  0  0  0  0  0  0  0  0  0  0
   13.5075   -1.5329    0.0000 H   0  0  0  0  0  0  0  0  0  0  0  0
   15.9531   -2.0580    0.0000 H   0  0  0  0  0  0  0  0  0  0  0  0
   16.5731   -2.6780    0.0000 H   0  0  0  0  0  0  0  0  0  0  0  0
   17.1931   -2.0580    0.0000 H   0  0  0  0  0  0  0  0  0  0  0  0
   23.0338   -0.0830    0.0000 H   0  0  0  0  0  0  0  0  0  0  0  0
   22.2367   -0.0830    0.0000 H   0  0  0  0  0  0  0  0  0  0  0  0
   12.6415   -0.0830    0.0000 H   0  0  0  0  0  0  0  0  0  0  0  0
   11.8444   -0.0830    0.0000 H   0  0  0  0  0  0  0  0  0  0  0  0
   23.1027   -1.5329    0.0000 H   0  0  0  0  0  0  0  0  0  0  0  0
   23.8998   -1.5329    0.0000 H   0  0  0  0  0  0  0  0  0  0  0  0
   11.3769   -1.6780    0.0000 H   0  0  0  0  0  0  0  0  0  0  0  0
    9.2463   -1.5329    0.0000 H   0  0  0  0  0  0  0  0  0  0  0  0
   10.0434   -1.5329    0.0000 H   0  0  0  0  0  0  0  0  0  0  0  0
    7.0468    0.0620    0.0000 H   0  0  0  0  0  0  0  0  0  0  0  0
    8.4497   -2.3680    0.0000 H   0  0  0  0  0  0  0  0  0  0  0  0
    5.6438   -2.3680    0.0000 H   0  0  0  0  0  0  0  0  0  0  0  0
    2.5402   -0.5712    0.0000 H   0  0  0  0  0  0  0  0  0  0  0  0
    2.6597    2.8102    0.0000 H   0  0  0  0  0  0  0  0  0  0  0  0
    1.8411    3.1244    0.0000 H   0  0  0  0  0  0  0  0  0  0  0  0
    1.5269    2.3058    0.0000 H   0  0  0  0  0  0  0  0  0  0  0  0
  1 35  1  0  0  0  0
  1 36  1  0  0  0  0
  2 25  2  0  0  0  0
  3 26  1  0  0  0  0
  3 27  1  0  0  0  0
  4 13  1  0  0  0  0
  4 15  1  0  0  0  0
  4 21  1  0  0  0  0
  5 23  1  0  0  0  0
  5 25  1  0  0  0  0
  5 67  1  0  0  0  0
  6  7  2  0  0  0  0
  6 24  1  0  0  0  0
  7  8  2  0  0  0  0
  9 29  1  0  0  0  0
  9 31  2  0  0  0  0
 10 34  1  0  0  0  0
 10 36  2  0  0  0  0
 11 12  1  0  0  0  0
 11 13  1  0  0  0  0
 11 38  1  0  0  0  0
 11 39  1  0  0  0  0
 12 14  1  0  0  0  0
 12 40  1  0  0  0  0
 12 41  1  0  0  0  0
 13 42  1  0  0  0  0
 13 43  1  0  0  0  0
 14 16  1  0  0  0  0
 14 44  1  0  0  0  0
 14 45  1  0  0  0  0
 15 17  1  0  0  0  0
 15 46  1  0  0  0  0
 15 47  1  0  0  0  0
 16 19  1  0  0  0  0
 16 50  1  0  0  0  0
 16 51  1  0  0  0  0
 17 18  1  0  0  0  0
 17 48  1  0  0  0  0
 17 49  1  0  0  0  0
 18 20  1  0  0  0  0
 18 52  1  0  0  0  0
 18 53  1  0  0  0  0
 19 22  1  0  0  0  0
 19 54  1  0  0  0  0
 19 55  1  0  0  0  0
 20 23  1  0  0  0  0
 20 56  1  0  0  0  0
 20 57  1  0  0  0  0
 21 58  1  0  0  0  0
 21 59  1  0  0  0  0
 21 60  1  0  0  0  0
 22 24  1  0  0  0  0
 22 61  1  0  0  0  0
 22 62  1  0  0  0  0
 23 63  1  0  0  0  0
 23 64  1  0  0  0  0
 24 65  1  0  0  0  0
 24 66  1  0  0  0  0
 25 26  1  0  0  0  0
 26 68  1  0  0  0  0
 26 69  1  0  0  0  0
 27 28  1  0  0  0  0
 27 29  2  0  0  0  0
 28 30  2  0  0  0  0
 28 70  1  0  0  0  0
 29 71  1  0  0  0  0
 30 31  1  0  0  0  0
 30 32  1  0  0  0  0
 31 72  1  0  0  0  0
 32 33  3  0  0  0  0
 33 34  1  0  0  0  0
 34 35  2  0  0  0  0
 35 73  1  0  0  0  0
 36 37  1  0  0  0  0
 37 74  1  0  0  0  0
 37 75  1  0  0  0  0
 37 76  1  0  0  0  0
M  CHG  2   7   1   8  -1
M  END
> <PUBCHEM_COMPOUND_CID>
145985513

> <PUBCHEM_COMPOUND_CANONICALIZED>
1

> <PUBCHEM_CACTVS_COMPLEXITY>
750

> <PUBCHEM_CACTVS_HBOND_ACCEPTOR>
8

> <PUBCHEM_CACTVS_HBOND_DONOR>
1

> <PUBCHEM_CACTVS_ROTATABLE_BOND>
20

> <PUBCHEM_CACTVS_SUBSKEYS>
AAADcfB7sABAAAAAAAAAAAAAAAAAAWAAAAAsAAAAAAAAAAAB4AAAHgQYAAAADAzl3ga+h5PIFAjuEzV3VA6C+KBxajgA2LR/bJgOJuLksZ+HOCjk1hH46AcwgIAMAAAAAAAAAAAAAAAAAAAAAAAAAAAAAA==

> <PUBCHEM_IUPAC_OPENEYE_NAME>
N-[5-[8-azidooctyl(methyl)amino]pentyl]-2-[[5-[2-(2-methylthiazol-4-yl)ethynyl]-3-pyridyl]oxy]acetamide

> <PUBCHEM_IUPAC_CAS_NAME>
N-[5-[8-azidooctyl(methyl)amino]pentyl]-2-[[5-[2-(2-methyl-4-thiazolyl)ethynyl]-3-pyridinyl]oxy]acetamide

> <PUBCHEM_IUPAC_NAME_MARKUP>
<I>N</I>-[5-[8-azidooctyl(methyl)amino]pentyl]-2-[5-[2-(2-methyl-1,3-thiazol-4-yl)ethynyl]pyridin-3-yl]oxyacetamide

> <PUBCHEM_IUPAC_NAME>
N-[5-[8-azidooctyl(methyl)amino]pentyl]-2-[5-[2-(2-methyl-1,3-thiazol-4-yl)ethynyl]pyridin-3-yl]oxyacetamide

> <PUBCHEM_IUPAC_SYSTEMATIC_NAME>
N-[5-[8-azidooctyl(methyl)amino]pentyl]-2-[5-[2-(2-methyl-1,3-thiazol-4-yl)ethynyl]pyridin-3-yl]oxy-ethanamide

> <PUBCHEM_IUPAC_TRADITIONAL_NAME>
N-[5-[8-azidooctyl(methyl)amino]pentyl]-2-[[5-[2-(2-methylthiazol-4-yl)ethynyl]-3-pyridyl]oxy]acetamide

> <PUBCHEM_IUPAC_INCHI>
InChI=1S/C27H39N7O2S/c1-23-32-25(22-37-23)13-12-24-18-26(20-29-19-24)36-21-27(35)30-14-8-7-11-17-34(2)16-10-6-4-3-5-9-15-31-33-28/h18-20,22H,3-11,14-17,21H2,1-2H3,(H,30,35)

> <PUBCHEM_IUPAC_INCHIKEY>
VUKQZDURBZZIME-UHFFFAOYSA-N

> <PUBCHEM_XLOGP3_AA>
6.2

> <PUBCHEM_EXACT_MASS>
525.28859469

> <PUBCHEM_MOLECULAR_FORMULA>
C27H39N7O2S

> <PUBCHEM_MOLECULAR_WEIGHT>
525.7

> <PUBCHEM_OPENEYE_CAN_SMILES>
CC1=NC(=CS1)C#CC2=CC(=CN=C2)OCC(=O)NCCCCCN(C)CCCCCCCCN=[N+]=[N-]

> <PUBCHEM_OPENEYE_ISO_SMILES>
CC1=NC(=CS1)C#CC2=CC(=CN=C2)OCC(=O)NCCCCCN(C)CCCCCCCCN=[N+]=[N-]

> <PUBCHEM_CACTVS_TPSA>
110

> <PUBCHEM_MONOISOTOPIC_WEIGHT>
525.28859469

> <PUBCHEM_TOTAL_CHARGE>
0

> <PUBCHEM_HEAVY_ATOM_COUNT>
37

> <PUBCHEM_ATOM_DEF_STEREO_COUNT>
0

> <PUBCHEM_ATOM_UDEF_STEREO_COUNT>
0

> <PUBCHEM_BOND_DEF_STEREO_COUNT>
0

> <PUBCHEM_BOND_UDEF_STEREO_COUNT>
0

> <PUBCHEM_ISOTOPIC_ATOM_COUNT>
0

> <PUBCHEM_COMPONENT_COUNT>
1

> <PUBCHEM_CACTVS_TAUTO_COUNT>
-1

> <PUBCHEM_COORDINATE_TYPE>
1
5
255

> <PUBCHEM_BONDANNOTATIONS>
1  35  8
1  36  8
10  34  8
10  36  8
27  28  8
27  29  8
28  30  8
30  31  8
34  35  8
9  29  8
9  31  8

$$$$
