142573428
  -OEChem-09292322412D

 76 80  0     0  0  0  0  0  0999 V2000
    3.3660   -8.5194    0.0000 S   0  0  0  0  0  0  0  0  0  0  0  0
    7.1962    6.5194    0.0000 O   0  0  0  0  0  0  0  0  0  0  0  0
    2.0000   -2.4806    0.0000 O   0  0  0  0  0  0  0  0  0  0  0  0
    5.4641    1.5194    0.0000 N   0  0  0  0  0  0  0  0  0  0  0  0
    5.4641    5.5194    0.0000 N   0  0  0  0  0  0  0  0  0  0  0  0
    3.7320   -2.4806    0.0000 N   0  0  0  0  0  0  0  0  0  0  0  0
    5.4641    3.5194    0.0000 C   0  0  0  0  0  0  0  0  0  0  0  0
    4.5981    3.0194    0.0000 C   0  0  0  0  0  0  0  0  0  0  0  0
    6.3301    3.0194    0.0000 C   0  0  0  0  0  0  0  0  0  0  0  0
    6.3301    4.0194    0.0000 C   0  0  0  0  0  0  0  0  0  0  0  0
    4.5981    4.0194    0.0000 C   0  0  0  0  0  0  0  0  0  0  0  0
    4.5981    2.0194    0.0000 C   0  0  0  0  0  0  0  0  0  0  0  0
    6.3301    2.0194    0.0000 C   0  0  0  0  0  0  0  0  0  0  0  0
    6.3301    5.0194    0.0000 C   0  0  0  0  0  0  0  0  0  0  0  0
    4.5981    5.0194    0.0000 C   0  0  0  0  0  0  0  0  0  0  0  0
    5.4641    0.5194    0.0000 C   0  0  0  0  0  0  0  0  0  0  0  0
    5.4641    6.5194    0.0000 C   0  0  0  0  0  0  0  0  0  0  0  0
    4.5981    0.0194    0.0000 C   0  0  0  0  0  0  0  0  0  0  0  0
    4.5981   -0.9806    0.0000 C   0  0  0  0  0  0  0  0  0  0  0  0
    6.3301    7.0194    0.0000 C   0  0  0  0  0  0  0  0  0  0  0  0
    4.5981    7.0194    0.0000 C   0  0  0  0  0  0  0  0  0  0  0  0
    3.7320   -1.4806    0.0000 C   0  0  0  0  0  0  0  0  0  0  0  0
    6.3301    8.0194    0.0000 C   0  0  0  0  0  0  0  0  0  0  0  0
    4.5981    8.0194    0.0000 C   0  0  0  0  0  0  0  0  0  0  0  0
    5.4641    8.5194    0.0000 C   0  0  0  0  0  0  0  0  0  0  0  0
    8.0622    7.0194    0.0000 C   0  0  0  0  0  0  0  0  0  0  0  0
    2.8660   -2.9806    0.0000 C   0  0  0  0  0  0  0  0  0  0  0  0
    2.8660   -3.9806    0.0000 C   0  0  0  0  0  0  0  0  0  0  0  0
    2.0000   -4.4806    0.0000 C   0  0  0  0  0  0  0  0  0  0  0  0
    3.7320   -4.4806    0.0000 C   0  0  0  0  0  0  0  0  0  0  0  0
    2.0000   -5.4806    0.0000 C   0  0  0  0  0  0  0  0  0  0  0  0
    3.7320   -5.4806    0.0000 C   0  0  0  0  0  0  0  0  0  0  0  0
    2.8660   -5.9806    0.0000 C   0  0  0  0  0  0  0  0  0  0  0  0
    2.8660   -6.9806    0.0000 C   0  0  0  0  0  0  0  0  0  0  0  0
    2.0570   -7.5684    0.0000 C   0  0  0  0  0  0  0  0  0  0  0  0
    3.6750   -7.5684    0.0000 C   0  0  0  0  0  0  0  0  0  0  0  0
    2.3660   -8.5194    0.0000 C   0  0  0  0  0  0  0  0  0  0  0  0
    4.3860    3.6020    0.0000 H   0  0  0  0  0  0  0  0  0  0  0  0
    3.9875    2.9118    0.0000 H   0  0  0  0  0  0  0  0  0  0  0  0
    6.9407    2.9118    0.0000 H   0  0  0  0  0  0  0  0  0  0  0  0
    6.5422    3.6020    0.0000 H   0  0  0  0  0  0  0  0  0  0  0  0
    6.5422    3.4368    0.0000 H   0  0  0  0  0  0  0  0  0  0  0  0
    6.9407    4.1271    0.0000 H   0  0  0  0  0  0  0  0  0  0  0  0
    3.9875    4.1271    0.0000 H   0  0  0  0  0  0  0  0  0  0  0  0
    4.3860    3.4368    0.0000 H   0  0  0  0  0  0  0  0  0  0  0  0
    3.9875    2.1271    0.0000 H   0  0  0  0  0  0  0  0  0  0  0  0
    4.3860    1.4368    0.0000 H   0  0  0  0  0  0  0  0  0  0  0  0
    6.5422    1.4368    0.0000 H   0  0  0  0  0  0  0  0  0  0  0  0
    6.9407    2.1271    0.0000 H   0  0  0  0  0  0  0  0  0  0  0  0
    6.9407    4.9118    0.0000 H   0  0  0  0  0  0  0  0  0  0  0  0
    6.5422    5.6020    0.0000 H   0  0  0  0  0  0  0  0  0  0  0  0
    4.3860    5.6020    0.0000 H   0  0  0  0  0  0  0  0  0  0  0  0
    3.9875    4.9118    0.0000 H   0  0  0  0  0  0  0  0  0  0  0  0
    5.6762   -0.0632    0.0000 H   0  0  0  0  0  0  0  0  0  0  0  0
    6.0747    0.6271    0.0000 H   0  0  0  0  0  0  0  0  0  0  0  0
    4.3860    0.6020    0.0000 H   0  0  0  0  0  0  0  0  0  0  0  0
    3.9875   -0.0882    0.0000 H   0  0  0  0  0  0  0  0  0  0  0  0
    4.8101   -1.5632    0.0000 H   0  0  0  0  0  0  0  0  0  0  0  0
    5.2087   -0.8729    0.0000 H   0  0  0  0  0  0  0  0  0  0  0  0
    4.0611    6.7094    0.0000 H   0  0  0  0  0  0  0  0  0  0  0  0
    3.5200   -0.8980    0.0000 H   0  0  0  0  0  0  0  0  0  0  0  0
    3.1215   -1.5882    0.0000 H   0  0  0  0  0  0  0  0  0  0  0  0
    6.8671    8.3294    0.0000 H   0  0  0  0  0  0  0  0  0  0  0  0
    4.0611    8.3294    0.0000 H   0  0  0  0  0  0  0  0  0  0  0  0
    5.4641    9.1394    0.0000 H   0  0  0  0  0  0  0  0  0  0  0  0
    4.2690   -2.7906    0.0000 H   0  0  0  0  0  0  0  0  0  0  0  0
    8.3722    6.4825    0.0000 H   0  0  0  0  0  0  0  0  0  0  0  0
    8.5991    7.3294    0.0000 H   0  0  0  0  0  0  0  0  0  0  0  0
    7.7522    7.5564    0.0000 H   0  0  0  0  0  0  0  0  0  0  0  0
    1.4631   -4.1706    0.0000 H   0  0  0  0  0  0  0  0  0  0  0  0
    4.2690   -4.1706    0.0000 H   0  0  0  0  0  0  0  0  0  0  0  0
    1.4631   -5.7906    0.0000 H   0  0  0  0  0  0  0  0  0  0  0  0
    4.2690   -5.7906    0.0000 H   0  0  0  0  0  0  0  0  0  0  0  0
    1.4674   -7.3768    0.0000 H   0  0  0  0  0  0  0  0  0  0  0  0
    4.2647   -7.3768    0.0000 H   0  0  0  0  0  0  0  0  0  0  0  0
    2.0016   -9.0210    0.0000 H   0  0  0  0  0  0  0  0  0  0  0  0
  1 36  1  0  0  0  0
  1 37  1  0  0  0  0
  2 20  1  0  0  0  0
  2 26  1  0  0  0  0
  3 27  2  0  0  0  0
  4 12  1  0  0  0  0
  4 13  1  0  0  0  0
  4 16  1  0  0  0  0
  5 14  1  0  0  0  0
  5 15  1  0  0  0  0
  5 17  1  0  0  0  0
  6 22  1  0  0  0  0
  6 27  1  0  0  0  0
  6 66  1  0  0  0  0
  7  8  1  0  0  0  0
  7  9  1  0  0  0  0
  7 10  1  0  0  0  0
  7 11  1  0  0  0  0
  8 12  1  0  0  0  0
  8 38  1  0  0  0  0
  8 39  1  0  0  0  0
  9 13  1  0  0  0  0
  9 40  1  0  0  0  0
  9 41  1  0  0  0  0
 10 14  1  0  0  0  0
 10 42  1  0  0  0  0
 10 43  1  0  0  0  0
 11 15  1  0  0  0  0
 11 44  1  0  0  0  0
 11 45  1  0  0  0  0
 12 46  1  0  0  0  0
 12 47  1  0  0  0  0
 13 48  1  0  0  0  0
 13 49  1  0  0  0  0
 14 50  1  0  0  0  0
 14 51  1  0  0  0  0
 15 52  1  0  0  0  0
 15 53  1  0  0  0  0
 16 18  1  0  0  0  0
 16 54  1  0  0  0  0
 16 55  1  0  0  0  0
 17 20  1  0  0  0  0
 17 21  2  0  0  0  0
 18 19  1  0  0  0  0
 18 56  1  0  0  0  0
 18 57  1  0  0  0  0
 19 22  1  0  0  0  0
 19 58  1  0  0  0  0
 19 59  1  0  0  0  0
 20 23  2  0  0  0  0
 21 24  1  0  0  0  0
 21 60  1  0  0  0  0
 22 61  1  0  0  0  0
 22 62  1  0  0  0  0
 23 25  1  0  0  0  0
 23 63  1  0  0  0  0
 24 25  2  0  0  0  0
 24 64  1  0  0  0  0
 25 65  1  0  0  0  0
 26 67  1  0  0  0  0
 26 68  1  0  0  0  0
 26 69  1  0  0  0  0
 27 28  1  0  0  0  0
 28 29  2  0  0  0  0
 28 30  1  0  0  0  0
 29 31  1  0  0  0  0
 29 70  1  0  0  0  0
 30 32  2  0  0  0  0
 30 71  1  0  0  0  0
 31 33  2  0  0  0  0
 31 72  1  0  0  0  0
 32 33  1  0  0  0  0
 32 73  1  0  0  0  0
 33 34  1  0  0  0  0
 34 35  1  0  0  0  0
 34 36  2  0  0  0  0
 35 37  2  0  0  0  0
 35 74  1  0  0  0  0
 36 75  1  0  0  0  0
 37 76  1  0  0  0  0
M  END
> <PUBCHEM_COMPOUND_CID>
142573428

> <PUBCHEM_COMPOUND_CANONICALIZED>
1

> <PUBCHEM_CACTVS_COMPLEXITY>
695

> <PUBCHEM_CACTVS_HBOND_ACCEPTOR>
5

> <PUBCHEM_CACTVS_HBOND_DONOR>
1

> <PUBCHEM_CACTVS_ROTATABLE_BOND>
9

> <PUBCHEM_CACTVS_SUBSKEYS>
AAADcfB7MABAAAAAAAAAAAAAAAAAASAAAAA8eIEAAAAAAAAB0AAAHgQQAAAADgzF2Aayx4PABAiMAiVSUACDCIAlKhBIiJkPbMgOJjLktZuFMShk1hH46YeYyMCPwAAAAAAAEACAAAAAAAAgAAAAAAAAAA==

> <PUBCHEM_IUPAC_OPENEYE_NAME>
N-[4-[3-(2-methoxyphenyl)-3,9-diazaspiro[5.5]undecan-9-yl]butyl]-4-(3-thienyl)benzamide

> <PUBCHEM_IUPAC_CAS_NAME>
N-[4-[3-(2-methoxyphenyl)-3,9-diazaspiro[5.5]undecan-9-yl]butyl]-4-(3-thiophenyl)benzamide

> <PUBCHEM_IUPAC_NAME_MARKUP>
<I>N</I>-[4-[3-(2-methoxyphenyl)-3,9-diazaspiro[5.5]undecan-9-yl]butyl]-4-thiophen-3-ylbenzamide

> <PUBCHEM_IUPAC_NAME>
N-[4-[3-(2-methoxyphenyl)-3,9-diazaspiro[5.5]undecan-9-yl]butyl]-4-thiophen-3-ylbenzamide

> <PUBCHEM_IUPAC_SYSTEMATIC_NAME>
N-[4-[3-(2-methoxyphenyl)-3,9-diazaspiro[5.5]undecan-9-yl]butyl]-4-thiophen-3-yl-benzamide

> <PUBCHEM_IUPAC_TRADITIONAL_NAME>
N-[4-[3-(2-methoxyphenyl)-3,9-diazaspiro[5.5]undecan-9-yl]butyl]-4-(3-thienyl)benzamide

> <PUBCHEM_IUPAC_INCHI>
InChI=1S/C31H39N3O2S/c1-36-29-7-3-2-6-28(29)34-21-15-31(16-22-34)13-19-33(20-14-31)18-5-4-17-32-30(35)26-10-8-25(9-11-26)27-12-23-37-24-27/h2-3,6-12,23-24H,4-5,13-22H2,1H3,(H,32,35)

> <PUBCHEM_IUPAC_INCHIKEY>
YTLHBRBFQQCIBL-UHFFFAOYSA-N

> <PUBCHEM_XLOGP3_AA>
6.1

> <PUBCHEM_EXACT_MASS>
517.27629867

> <PUBCHEM_MOLECULAR_FORMULA>
C31H39N3O2S

> <PUBCHEM_MOLECULAR_WEIGHT>
517.7

> <PUBCHEM_OPENEYE_CAN_SMILES>
COC1=CC=CC=C1N2CCC3(CCN(CC3)CCCCNC(=O)C4=CC=C(C=C4)C5=CSC=C5)CC2

> <PUBCHEM_OPENEYE_ISO_SMILES>
COC1=CC=CC=C1N2CCC3(CCN(CC3)CCCCNC(=O)C4=CC=C(C=C4)C5=CSC=C5)CC2

> <PUBCHEM_CACTVS_TPSA>
73

> <PUBCHEM_MONOISOTOPIC_WEIGHT>
517.27629867

> <PUBCHEM_TOTAL_CHARGE>
0

> <PUBCHEM_HEAVY_ATOM_COUNT>
37

> <PUBCHEM_ATOM_DEF_STEREO_COUNT>
0

> <PUBCHEM_ATOM_UDEF_STEREO_COUNT>
0

> <PUBCHEM_BOND_DEF_STEREO_COUNT>
0

> <PUBCHEM_BOND_UDEF_STEREO_COUNT>
0

> <PUBCHEM_ISOTOPIC_ATOM_COUNT>
0

> <PUBCHEM_COMPONENT_COUNT>
1

> <PUBCHEM_CACTVS_TAUTO_COUNT>
-1

> <PUBCHEM_COORDINATE_TYPE>
1
5
255

> <PUBCHEM_BONDANNOTATIONS>
1  36  8
1  37  8
17  20  8
17  21  8
20  23  8
21  24  8
23  25  8
24  25  8
28  29  8
28  30  8
29  31  8
30  32  8
31  33  8
32  33  8
34  35  8
34  36  8
35  37  8

$$$$
