145990453
  -OEChem-09292322392D

 58 61  0     1  0  0  0  0  0999 V2000
    2.0000    1.2945    0.0000 O   0  0  0  0  0  0  0  0  0  0  0  0
    2.0000   -0.7055    0.0000 O   0  0  0  0  0  0  0  0  0  0  0  0
   11.5981    0.7536    0.0000 O   0  0  0  0  0  0  0  0  0  0  0  0
    6.3981   -0.2263    0.0000 N   0  0  3  0  0  0  0  0  0  0  0  0
   10.7263   -0.7430    0.0000 N   0  0  0  0  0  0  0  0  0  0  0  0
    6.3981    0.8153    0.0000 C   0  0  0  0  0  0  0  0  0  0  0  0
    5.4920   -0.7402    0.0000 C   0  0  0  0  0  0  0  0  0  0  0  0
    5.4920    1.3291    0.0000 C   0  0  0  0  0  0  0  0  0  0  0  0
    7.2622   -0.7297    0.0000 C   0  0  0  0  0  0  0  0  0  0  0  0
    4.5981   -0.2055    0.0000 C   0  0  0  0  0  0  0  0  0  0  0  0
    4.5981    0.7945    0.0000 C   0  0  0  0  0  0  0  0  0  0  0  0
    8.1301   -0.2330    0.0000 C   0  0  0  0  0  0  0  0  0  0  0  0
    8.9942   -0.7364    0.0000 C   0  0  0  0  0  0  0  0  0  0  0  0
    3.7320   -0.7055    0.0000 C   0  0  0  0  0  0  0  0  0  0  0  0
    3.7320    1.2945    0.0000 C   0  0  0  0  0  0  0  0  0  0  0  0
    9.8622   -0.2397    0.0000 C   0  0  0  0  0  0  0  0  0  0  0  0
    2.8660    0.7945    0.0000 C   0  0  0  0  0  0  0  0  0  0  0  0
    2.8660   -0.2055    0.0000 C   0  0  0  0  0  0  0  0  0  0  0  0
   11.5942   -0.2464    0.0000 C   0  0  0  0  0  0  0  0  0  0  0  0
   12.4583   -0.7497    0.0000 C   0  0  0  0  0  0  0  0  0  0  0  0
    2.0000    2.2945    0.0000 C   0  0  0  0  0  0  0  0  0  0  0  0
   13.3262   -0.2530    0.0000 C   0  0  0  0  0  0  0  0  0  0  0  0
   14.1903   -0.7564    0.0000 C   0  0  0  0  0  0  0  0  0  0  0  0
   12.4544   -1.7497    0.0000 C   0  0  0  0  0  0  0  0  0  0  0  0
   14.1865   -1.7564    0.0000 C   0  0  0  0  0  0  0  0  0  0  0  0
   13.3185   -2.2530    0.0000 C   0  0  0  0  0  0  0  0  0  0  0  0
   15.0863   -0.2252    0.0000 C   0  0  0  0  0  0  0  0  0  0  0  0
   15.0783   -2.2945    0.0000 C   0  0  0  0  0  0  0  0  0  0  0  0
   15.9904   -0.7425    0.0000 C   0  0  0  0  0  0  0  0  0  0  0  0
   15.9864   -1.7841    0.0000 C   0  0  0  0  0  0  0  0  0  0  0  0
    7.0089    0.7092    0.0000 H   0  0  0  0  0  0  0  0  0  0  0  0
    6.6071    1.3990    0.0000 H   0  0  0  0  0  0  0  0  0  0  0  0
    5.0874   -1.2100    0.0000 H   0  0  0  0  0  0  0  0  0  0  0  0
    5.8856   -1.2192    0.0000 H   0  0  0  0  0  0  0  0  0  0  0  0
    5.8856    1.8082    0.0000 H   0  0  0  0  0  0  0  0  0  0  0  0
    5.0874    1.7989    0.0000 H   0  0  0  0  0  0  0  0  0  0  0  0
    6.8618   -1.2031    0.0000 H   0  0  0  0  0  0  0  0  0  0  0  0
    7.6589   -1.2062    0.0000 H   0  0  0  0  0  0  0  0  0  0  0  0
    8.5305    0.2404    0.0000 H   0  0  0  0  0  0  0  0  0  0  0  0
    7.7334    0.2435    0.0000 H   0  0  0  0  0  0  0  0  0  0  0  0
    8.5939   -1.2098    0.0000 H   0  0  0  0  0  0  0  0  0  0  0  0
    9.3909   -1.2128    0.0000 H   0  0  0  0  0  0  0  0  0  0  0  0
    3.7320   -1.3255    0.0000 H   0  0  0  0  0  0  0  0  0  0  0  0
    3.7320    1.9145    0.0000 H   0  0  0  0  0  0  0  0  0  0  0  0
   10.2625    0.2337    0.0000 H   0  0  0  0  0  0  0  0  0  0  0  0
    9.4655    0.2368    0.0000 H   0  0  0  0  0  0  0  0  0  0  0  0
   10.7239   -1.3630    0.0000 H   0  0  0  0  0  0  0  0  0  0  0  0
    2.0000   -1.3255    0.0000 H   0  0  0  0  0  0  0  0  0  0  0  0
    2.6200    2.2945    0.0000 H   0  0  0  0  0  0  0  0  0  0  0  0
    2.0000    2.9145    0.0000 H   0  0  0  0  0  0  0  0  0  0  0  0
    1.3800    2.2945    0.0000 H   0  0  0  0  0  0  0  0  0  0  0  0
   13.3286    0.3670    0.0000 H   0  0  0  0  0  0  0  0  0  0  0  0
   11.9163   -2.0576    0.0000 H   0  0  0  0  0  0  0  0  0  0  0  0
   13.3161   -2.8730    0.0000 H   0  0  0  0  0  0  0  0  0  0  0  0
   15.0815    0.3948    0.0000 H   0  0  0  0  0  0  0  0  0  0  0  0
   15.0688   -2.9144    0.0000 H   0  0  0  0  0  0  0  0  0  0  0  0
   16.5273   -0.4325    0.0000 H   0  0  0  0  0  0  0  0  0  0  0  0
   16.5209   -2.0983    0.0000 H   0  0  0  0  0  0  0  0  0  0  0  0
  1 17  1  0  0  0  0
  1 21  1  0  0  0  0
  2 18  1  0  0  0  0
  2 48  1  0  0  0  0
  3 19  2  0  0  0  0
  4  6  1  0  0  0  0
  4  7  1  0  0  0  0
  4  9  1  0  0  0  0
  5 16  1  0  0  0  0
  5 19  1  0  0  0  0
  5 47  1  0  0  0  0
  6  8  1  0  0  0  0
  6 31  1  0  0  0  0
  6 32  1  0  0  0  0
  7 10  1  0  0  0  0
  7 33  1  0  0  0  0
  7 34  1  0  0  0  0
  8 11  1  0  0  0  0
  8 35  1  0  0  0  0
  8 36  1  0  0  0  0
  9 12  1  0  0  0  0
  9 37  1  0  0  0  0
  9 38  1  0  0  0  0
 10 11  1  0  0  0  0
 10 14  2  0  0  0  0
 11 15  2  0  0  0  0
 12 13  1  0  0  0  0
 12 39  1  0  0  0  0
 12 40  1  0  0  0  0
 13 16  1  0  0  0  0
 13 41  1  0  0  0  0
 13 42  1  0  0  0  0
 14 18  1  0  0  0  0
 14 43  1  0  0  0  0
 15 17  1  0  0  0  0
 15 44  1  0  0  0  0
 16 45  1  0  0  0  0
 16 46  1  0  0  0  0
 17 18  2  0  0  0  0
 19 20  1  0  0  0  0
 20 22  2  0  0  0  0
 20 24  1  0  0  0  0
 21 49  1  0  0  0  0
 21 50  1  0  0  0  0
 21 51  1  0  0  0  0
 22 23  1  0  0  0  0
 22 52  1  0  0  0  0
 23 25  1  0  0  0  0
 23 27  2  0  0  0  0
 24 26  2  0  0  0  0
 24 53  1  0  0  0  0
 25 26  1  0  0  0  0
 25 28  2  0  0  0  0
 26 54  1  0  0  0  0
 27 29  1  0  0  0  0
 27 55  1  0  0  0  0
 28 30  1  0  0  0  0
 28 56  1  0  0  0  0
 29 30  2  0  0  0  0
 29 57  1  0  0  0  0
 30 58  1  0  0  0  0
M  END
> <PUBCHEM_COMPOUND_CID>
145990453

> <PUBCHEM_COMPOUND_CANONICALIZED>
1

> <PUBCHEM_CACTVS_COMPLEXITY>
557

> <PUBCHEM_CACTVS_HBOND_ACCEPTOR>
4

> <PUBCHEM_CACTVS_HBOND_DONOR>
2

> <PUBCHEM_CACTVS_ROTATABLE_BOND>
7

> <PUBCHEM_CACTVS_SUBSKEYS>
AAADceB7MAAAAAAAAAAAAAAAAAAAAAAAAAA8YMEAAAAAAADxVAAAHgAQCAAADATBmAYyBsPABgCIAiFSEACCCAAkIAAIiIEOjMgNJjKGtRuEcStk1hGLuYe42PKO4AADAAAQQADAAAYAACCAAAAAAAAAAA==

> <PUBCHEM_IUPAC_OPENEYE_NAME>
N-[4-(7-hydroxy-6-methoxy-3,4-dihydro-1H-isoquinolin-2-yl)butyl]naphthalene-2-carboxamide

> <PUBCHEM_IUPAC_CAS_NAME>
N-[4-(7-hydroxy-6-methoxy-3,4-dihydro-1H-isoquinolin-2-yl)butyl]-2-naphthalenecarboxamide

> <PUBCHEM_IUPAC_NAME_MARKUP>
<I>N</I>-[4-(7-hydroxy-6-methoxy-3,4-dihydro-1<I>H</I>-isoquinolin-2-yl)butyl]naphthalene-2-carboxamide

> <PUBCHEM_IUPAC_NAME>
N-[4-(7-hydroxy-6-methoxy-3,4-dihydro-1H-isoquinolin-2-yl)butyl]naphthalene-2-carboxamide

> <PUBCHEM_IUPAC_SYSTEMATIC_NAME>
N-[4-(6-methoxy-7-oxidanyl-3,4-dihydro-1H-isoquinolin-2-yl)butyl]naphthalene-2-carboxamide

> <PUBCHEM_IUPAC_TRADITIONAL_NAME>
N-[4-(7-hydroxy-6-methoxy-3,4-dihydro-1H-isoquinolin-2-yl)butyl]-2-naphthamide

> <PUBCHEM_IUPAC_INCHI>
InChI=1S/C25H28N2O3/c1-30-24-16-20-10-13-27(17-22(20)15-23(24)28)12-5-4-11-26-25(29)21-9-8-18-6-2-3-7-19(18)14-21/h2-3,6-9,14-16,28H,4-5,10-13,17H2,1H3,(H,26,29)

> <PUBCHEM_IUPAC_INCHIKEY>
BVFIHIUYFGGHND-UHFFFAOYSA-N

> <PUBCHEM_XLOGP3_AA>
4.3

> <PUBCHEM_EXACT_MASS>
404.20999276

> <PUBCHEM_MOLECULAR_FORMULA>
C25H28N2O3

> <PUBCHEM_MOLECULAR_WEIGHT>
404.5

> <PUBCHEM_OPENEYE_CAN_SMILES>
COC1=C(C=C2CN(CCC2=C1)CCCCNC(=O)C3=CC4=CC=CC=C4C=C3)O

> <PUBCHEM_OPENEYE_ISO_SMILES>
COC1=C(C=C2CN(CCC2=C1)CCCCNC(=O)C3=CC4=CC=CC=C4C=C3)O

> <PUBCHEM_CACTVS_TPSA>
61.8

> <PUBCHEM_MONOISOTOPIC_WEIGHT>
404.20999276

> <PUBCHEM_TOTAL_CHARGE>
0

> <PUBCHEM_HEAVY_ATOM_COUNT>
30

> <PUBCHEM_ATOM_DEF_STEREO_COUNT>
0

> <PUBCHEM_ATOM_UDEF_STEREO_COUNT>
0

> <PUBCHEM_BOND_DEF_STEREO_COUNT>
0

> <PUBCHEM_BOND_UDEF_STEREO_COUNT>
0

> <PUBCHEM_ISOTOPIC_ATOM_COUNT>
0

> <PUBCHEM_COMPONENT_COUNT>
1

> <PUBCHEM_CACTVS_TAUTO_COUNT>
-1

> <PUBCHEM_COORDINATE_TYPE>
1
5
255

> <PUBCHEM_BONDANNOTATIONS>
10  11  8
10  14  8
11  15  8
14  18  8
15  17  8
17  18  8
20  22  8
20  24  8
22  23  8
23  25  8
23  27  8
24  26  8
25  26  8
25  28  8
27  29  8
28  30  8
29  30  8

$$$$
