44436601
  -OEChem-09292322262D

 68 71  0     0  0  0  0  0  0999 V2000
    2.8660   -6.7500    0.0000 O   0  0  0  0  0  0  0  0  0  0  0  0
    8.0622    0.2500    0.0000 O   0  0  0  0  0  0  0  0  0  0  0  0
    4.5981   -3.7500    0.0000 N   0  0  0  0  0  0  0  0  0  0  0  0
    4.5981   -5.7500    0.0000 N   0  0  0  0  0  0  0  0  0  0  0  0
    6.3301    0.2500    0.0000 N   0  0  0  0  0  0  0  0  0  0  0  0
    5.4641   -4.2500    0.0000 C   0  0  0  0  0  0  0  0  0  0  0  0
    3.7320   -4.2500    0.0000 C   0  0  0  0  0  0  0  0  0  0  0  0
    5.4641   -5.2500    0.0000 C   0  0  0  0  0  0  0  0  0  0  0  0
    3.7320   -5.2500    0.0000 C   0  0  0  0  0  0  0  0  0  0  0  0
    4.5981   -2.7500    0.0000 C   0  0  0  0  0  0  0  0  0  0  0  0
    5.4641   -2.2500    0.0000 C   0  0  0  0  0  0  0  0  0  0  0  0
    4.5981   -6.7500    0.0000 C   0  0  0  0  0  0  0  0  0  0  0  0
    5.4641   -1.2500    0.0000 C   0  0  0  0  0  0  0  0  0  0  0  0
    6.3301   -0.7500    0.0000 C   0  0  0  0  0  0  0  0  0  0  0  0
    3.7320   -7.2500    0.0000 C   0  0  0  0  0  0  0  0  0  0  0  0
    5.4641   -7.2500    0.0000 C   0  0  0  0  0  0  0  0  0  0  0  0
    3.7320   -8.2500    0.0000 C   0  0  0  0  0  0  0  0  0  0  0  0
    5.4641   -8.2500    0.0000 C   0  0  0  0  0  0  0  0  0  0  0  0
    4.5981   -8.7500    0.0000 C   0  0  0  0  0  0  0  0  0  0  0  0
    7.1962    0.7500    0.0000 C   0  0  0  0  0  0  0  0  0  0  0  0
    2.0000   -7.2500    0.0000 C   0  0  0  0  0  0  0  0  0  0  0  0
    7.1962    1.7500    0.0000 C   0  0  0  0  0  0  0  0  0  0  0  0
    6.3301    2.2500    0.0000 C   0  0  0  0  0  0  0  0  0  0  0  0
    8.0622    2.2500    0.0000 C   0  0  0  0  0  0  0  0  0  0  0  0
    6.3301    3.2500    0.0000 C   0  0  0  0  0  0  0  0  0  0  0  0
    8.0622    3.2500    0.0000 C   0  0  0  0  0  0  0  0  0  0  0  0
    7.1962    3.7500    0.0000 C   0  0  0  0  0  0  0  0  0  0  0  0
    7.1962    4.7500    0.0000 C   0  0  0  0  0  0  0  0  0  0  0  0
    7.1962    5.7500    0.0000 C   0  0  0  0  0  0  0  0  0  0  0  0
    7.1962    6.7500    0.0000 C   0  0  0  0  0  0  0  0  0  0  0  0
    8.0622    7.2500    0.0000 C   0  0  0  0  0  0  0  0  0  0  0  0
    6.3301    7.2500    0.0000 C   0  0  0  0  0  0  0  0  0  0  0  0
    8.0622    8.2500    0.0000 C   0  0  0  0  0  0  0  0  0  0  0  0
    6.3301    8.2500    0.0000 C   0  0  0  0  0  0  0  0  0  0  0  0
    7.1962    8.7500    0.0000 C   0  0  0  0  0  0  0  0  0  0  0  0
    6.0747   -4.3577    0.0000 H   0  0  0  0  0  0  0  0  0  0  0  0
    5.6762   -3.6674    0.0000 H   0  0  0  0  0  0  0  0  0  0  0  0
    3.5200   -3.6674    0.0000 H   0  0  0  0  0  0  0  0  0  0  0  0
    3.1215   -4.3577    0.0000 H   0  0  0  0  0  0  0  0  0  0  0  0
    5.6762   -5.8326    0.0000 H   0  0  0  0  0  0  0  0  0  0  0  0
    6.0747   -5.1423    0.0000 H   0  0  0  0  0  0  0  0  0  0  0  0
    3.1215   -5.1423    0.0000 H   0  0  0  0  0  0  0  0  0  0  0  0
    3.5200   -5.8326    0.0000 H   0  0  0  0  0  0  0  0  0  0  0  0
    4.3860   -2.1674    0.0000 H   0  0  0  0  0  0  0  0  0  0  0  0
    3.9875   -2.8577    0.0000 H   0  0  0  0  0  0  0  0  0  0  0  0
    5.6762   -2.8326    0.0000 H   0  0  0  0  0  0  0  0  0  0  0  0
    6.0747   -2.1423    0.0000 H   0  0  0  0  0  0  0  0  0  0  0  0
    5.2520   -0.6674    0.0000 H   0  0  0  0  0  0  0  0  0  0  0  0
    4.8535   -1.3577    0.0000 H   0  0  0  0  0  0  0  0  0  0  0  0
    6.5422   -1.3326    0.0000 H   0  0  0  0  0  0  0  0  0  0  0  0
    6.9407   -0.6423    0.0000 H   0  0  0  0  0  0  0  0  0  0  0  0
    6.0010   -6.9400    0.0000 H   0  0  0  0  0  0  0  0  0  0  0  0
    3.1951   -8.5600    0.0000 H   0  0  0  0  0  0  0  0  0  0  0  0
    6.0010   -8.5600    0.0000 H   0  0  0  0  0  0  0  0  0  0  0  0
    5.7932    0.5600    0.0000 H   0  0  0  0  0  0  0  0  0  0  0  0
    4.5981   -9.3700    0.0000 H   0  0  0  0  0  0  0  0  0  0  0  0
    1.6900   -6.7131    0.0000 H   0  0  0  0  0  0  0  0  0  0  0  0
    1.4631   -7.5600    0.0000 H   0  0  0  0  0  0  0  0  0  0  0  0
    2.3100   -7.7869    0.0000 H   0  0  0  0  0  0  0  0  0  0  0  0
    5.7932    1.9400    0.0000 H   0  0  0  0  0  0  0  0  0  0  0  0
    8.5991    1.9400    0.0000 H   0  0  0  0  0  0  0  0  0  0  0  0
    5.7932    3.5600    0.0000 H   0  0  0  0  0  0  0  0  0  0  0  0
    8.5991    3.5600    0.0000 H   0  0  0  0  0  0  0  0  0  0  0  0
    8.5991    6.9400    0.0000 H   0  0  0  0  0  0  0  0  0  0  0  0
    5.7932    6.9400    0.0000 H   0  0  0  0  0  0  0  0  0  0  0  0
    8.5991    8.5600    0.0000 H   0  0  0  0  0  0  0  0  0  0  0  0
    5.7932    8.5600    0.0000 H   0  0  0  0  0  0  0  0  0  0  0  0
    7.1962    9.3700    0.0000 H   0  0  0  0  0  0  0  0  0  0  0  0
  1 15  1  0  0  0  0
  1 21  1  0  0  0  0
  2 20  2  0  0  0  0
  3  6  1  0  0  0  0
  3  7  1  0  0  0  0
  3 10  1  0  0  0  0
  4  8  1  0  0  0  0
  4  9  1  0  0  0  0
  4 12  1  0  0  0  0
  5 14  1  0  0  0  0
  5 20  1  0  0  0  0
  5 55  1  0  0  0  0
  6  8  1  0  0  0  0
  6 36  1  0  0  0  0
  6 37  1  0  0  0  0
  7  9  1  0  0  0  0
  7 38  1  0  0  0  0
  7 39  1  0  0  0  0
  8 40  1  0  0  0  0
  8 41  1  0  0  0  0
  9 42  1  0  0  0  0
  9 43  1  0  0  0  0
 10 11  1  0  0  0  0
 10 44  1  0  0  0  0
 10 45  1  0  0  0  0
 11 13  1  0  0  0  0
 11 46  1  0  0  0  0
 11 47  1  0  0  0  0
 12 15  1  0  0  0  0
 12 16  2  0  0  0  0
 13 14  1  0  0  0  0
 13 48  1  0  0  0  0
 13 49  1  0  0  0  0
 14 50  1  0  0  0  0
 14 51  1  0  0  0  0
 15 17  2  0  0  0  0
 16 18  1  0  0  0  0
 16 52  1  0  0  0  0
 17 19  1  0  0  0  0
 17 53  1  0  0  0  0
 18 19  2  0  0  0  0
 18 54  1  0  0  0  0
 19 56  1  0  0  0  0
 20 22  1  0  0  0  0
 21 57  1  0  0  0  0
 21 58  1  0  0  0  0
 21 59  1  0  0  0  0
 22 23  2  0  0  0  0
 22 24  1  0  0  0  0
 23 25  1  0  0  0  0
 23 60  1  0  0  0  0
 24 26  2  0  0  0  0
 24 61  1  0  0  0  0
 25 27  2  0  0  0  0
 25 62  1  0  0  0  0
 26 27  1  0  0  0  0
 26 63  1  0  0  0  0
 27 28  1  0  0  0  0
 28 29  3  0  0  0  0
 29 30  1  0  0  0  0
 30 31  2  0  0  0  0
 30 32  1  0  0  0  0
 31 33  1  0  0  0  0
 31 64  1  0  0  0  0
 32 34  2  0  0  0  0
 32 65  1  0  0  0  0
 33 35  2  0  0  0  0
 33 66  1  0  0  0  0
 34 35  1  0  0  0  0
 34 67  1  0  0  0  0
 35 68  1  0  0  0  0
M  END
> <PUBCHEM_COMPOUND_CID>
44436601

> <PUBCHEM_COMPOUND_CANONICALIZED>
1

> <PUBCHEM_CACTVS_COMPLEXITY>
691

> <PUBCHEM_CACTVS_HBOND_ACCEPTOR>
4

> <PUBCHEM_CACTVS_HBOND_DONOR>
1

> <PUBCHEM_CACTVS_ROTATABLE_BOND>
10

> <PUBCHEM_CACTVS_SUBSKEYS>
AAADcfB7MAAAAAAAAAAAAAAAAAAAAAAAAAA8YMEAAAAAAAABUAAAHgAQAAAADAzBmAYyxoPABADIEiVSUAiCCAAlIgAIiIEPbMgOZjLEtZuVMShk1hHY6YeYyACOQAAAAAAAEACAAAAAAAAgAAAAAAAAAA==

> <PUBCHEM_IUPAC_OPENEYE_NAME>
N-[4-[4-(2-methoxyphenyl)piperazin-1-yl]butyl]-4-(2-phenylethynyl)benzamide

> <PUBCHEM_IUPAC_CAS_NAME>
N-[4-[4-(2-methoxyphenyl)-1-piperazinyl]butyl]-4-(2-phenylethynyl)benzamide

> <PUBCHEM_IUPAC_NAME_MARKUP>
<I>N</I>-[4-[4-(2-methoxyphenyl)piperazin-1-yl]butyl]-4-(2-phenylethynyl)benzamide

> <PUBCHEM_IUPAC_NAME>
N-[4-[4-(2-methoxyphenyl)piperazin-1-yl]butyl]-4-(2-phenylethynyl)benzamide

> <PUBCHEM_IUPAC_SYSTEMATIC_NAME>
N-[4-[4-(2-methoxyphenyl)piperazin-1-yl]butyl]-4-(2-phenylethynyl)benzamide

> <PUBCHEM_IUPAC_TRADITIONAL_NAME>
N-[4-[4-(2-methoxyphenyl)piperazino]butyl]-4-(2-phenylethynyl)benzamide

> <PUBCHEM_IUPAC_INCHI>
InChI=1S/C30H33N3O2/c1-35-29-12-6-5-11-28(29)33-23-21-32(22-24-33)20-8-7-19-31-30(34)27-17-15-26(16-18-27)14-13-25-9-3-2-4-10-25/h2-6,9-12,15-18H,7-8,19-24H2,1H3,(H,31,34)

> <PUBCHEM_IUPAC_INCHIKEY>
GJRMDYLDWDRDIG-UHFFFAOYSA-N

> <PUBCHEM_XLOGP3_AA>
5.5

> <PUBCHEM_EXACT_MASS>
467.25727730

> <PUBCHEM_MOLECULAR_FORMULA>
C30H33N3O2

> <PUBCHEM_MOLECULAR_WEIGHT>
467.6

> <PUBCHEM_OPENEYE_CAN_SMILES>
COC1=CC=CC=C1N2CCN(CC2)CCCCNC(=O)C3=CC=C(C=C3)C#CC4=CC=CC=C4

> <PUBCHEM_OPENEYE_ISO_SMILES>
COC1=CC=CC=C1N2CCN(CC2)CCCCNC(=O)C3=CC=C(C=C3)C#CC4=CC=CC=C4

> <PUBCHEM_CACTVS_TPSA>
44.8

> <PUBCHEM_MONOISOTOPIC_WEIGHT>
467.25727730

> <PUBCHEM_TOTAL_CHARGE>
0

> <PUBCHEM_HEAVY_ATOM_COUNT>
35

> <PUBCHEM_ATOM_DEF_STEREO_COUNT>
0

> <PUBCHEM_ATOM_UDEF_STEREO_COUNT>
0

> <PUBCHEM_BOND_DEF_STEREO_COUNT>
0

> <PUBCHEM_BOND_UDEF_STEREO_COUNT>
0

> <PUBCHEM_ISOTOPIC_ATOM_COUNT>
0

> <PUBCHEM_COMPONENT_COUNT>
1

> <PUBCHEM_CACTVS_TAUTO_COUNT>
-1

> <PUBCHEM_COORDINATE_TYPE>
1
5
255

> <PUBCHEM_BONDANNOTATIONS>
12  15  8
12  16  8
15  17  8
16  18  8
17  19  8
18  19  8
22  23  8
22  24  8
23  25  8
24  26  8
25  27  8
26  27  8
30  31  8
30  32  8
31  33  8
32  34  8
33  35  8
34  35  8

$$$$
