118719791
  -OEChem-09292322362D

 55 58  0     0  0  0  0  0  0999 V2000
    2.8660   -3.9715    0.0000 O   0  0  0  0  0  0  0  0  0  0  0  0
    4.5981   -0.9715    0.0000 N   0  0  0  0  0  0  0  0  0  0  0  0
    4.5981   -2.9715    0.0000 N   0  0  0  0  0  0  0  0  0  0  0  0
    7.4128    3.2309    0.0000 N   0  0  0  0  0  0  0  0  0  0  0  0
    7.2437    1.6217    0.0000 N   0  0  0  0  0  0  0  0  0  0  0  0
    7.9128    2.3649    0.0000 N   0  0  0  0  0  0  0  0  0  0  0  0
    5.4641   -1.4715    0.0000 C   0  0  0  0  0  0  0  0  0  0  0  0
    3.7320   -1.4715    0.0000 C   0  0  0  0  0  0  0  0  0  0  0  0
    5.4641   -2.4715    0.0000 C   0  0  0  0  0  0  0  0  0  0  0  0
    3.7320   -2.4715    0.0000 C   0  0  0  0  0  0  0  0  0  0  0  0
    4.5981    0.0285    0.0000 C   0  0  0  0  0  0  0  0  0  0  0  0
    5.4641    0.5285    0.0000 C   0  0  0  0  0  0  0  0  0  0  0  0
    4.5981   -3.9715    0.0000 C   0  0  0  0  0  0  0  0  0  0  0  0
    5.4641    1.5285    0.0000 C   0  0  0  0  0  0  0  0  0  0  0  0
    3.7320   -4.4715    0.0000 C   0  0  0  0  0  0  0  0  0  0  0  0
    5.4641   -4.4715    0.0000 C   0  0  0  0  0  0  0  0  0  0  0  0
    6.3301    2.0285    0.0000 C   0  0  0  0  0  0  0  0  0  0  0  0
    3.7320   -5.4715    0.0000 C   0  0  0  0  0  0  0  0  0  0  0  0
    5.4641   -5.4715    0.0000 C   0  0  0  0  0  0  0  0  0  0  0  0
    6.4347    3.0230    0.0000 C   0  0  0  0  0  0  0  0  0  0  0  0
    4.5981   -5.9715    0.0000 C   0  0  0  0  0  0  0  0  0  0  0  0
    7.8195    4.1444    0.0000 C   0  0  0  0  0  0  0  0  0  0  0  0
    2.0000   -4.4715    0.0000 C   0  0  0  0  0  0  0  0  0  0  0  0
    7.2318    4.9535    0.0000 C   0  0  0  0  0  0  0  0  0  0  0  0
    8.8141    4.2490    0.0000 C   0  0  0  0  0  0  0  0  0  0  0  0
    7.6385    5.8670    0.0000 C   0  0  0  0  0  0  0  0  0  0  0  0
    9.2208    5.1625    0.0000 C   0  0  0  0  0  0  0  0  0  0  0  0
    8.6330    5.9715    0.0000 C   0  0  0  0  0  0  0  0  0  0  0  0
    6.0747   -1.5792    0.0000 H   0  0  0  0  0  0  0  0  0  0  0  0
    5.6762   -0.8889    0.0000 H   0  0  0  0  0  0  0  0  0  0  0  0
    3.5200   -0.8889    0.0000 H   0  0  0  0  0  0  0  0  0  0  0  0
    3.1215   -1.5792    0.0000 H   0  0  0  0  0  0  0  0  0  0  0  0
    5.6762   -3.0541    0.0000 H   0  0  0  0  0  0  0  0  0  0  0  0
    6.0747   -2.3639    0.0000 H   0  0  0  0  0  0  0  0  0  0  0  0
    3.1215   -2.3639    0.0000 H   0  0  0  0  0  0  0  0  0  0  0  0
    3.5200   -3.0541    0.0000 H   0  0  0  0  0  0  0  0  0  0  0  0
    4.3860    0.6111    0.0000 H   0  0  0  0  0  0  0  0  0  0  0  0
    3.9875   -0.0792    0.0000 H   0  0  0  0  0  0  0  0  0  0  0  0
    5.6762   -0.0541    0.0000 H   0  0  0  0  0  0  0  0  0  0  0  0
    6.0747    0.6361    0.0000 H   0  0  0  0  0  0  0  0  0  0  0  0
    5.2520    2.1111    0.0000 H   0  0  0  0  0  0  0  0  0  0  0  0
    4.8535    1.4208    0.0000 H   0  0  0  0  0  0  0  0  0  0  0  0
    6.0010   -4.1615    0.0000 H   0  0  0  0  0  0  0  0  0  0  0  0
    3.1951   -5.7815    0.0000 H   0  0  0  0  0  0  0  0  0  0  0  0
    6.0010   -5.7815    0.0000 H   0  0  0  0  0  0  0  0  0  0  0  0
    5.9739    3.4378    0.0000 H   0  0  0  0  0  0  0  0  0  0  0  0
    4.5981   -6.5915    0.0000 H   0  0  0  0  0  0  0  0  0  0  0  0
    1.6900   -3.9346    0.0000 H   0  0  0  0  0  0  0  0  0  0  0  0
    1.4631   -4.7815    0.0000 H   0  0  0  0  0  0  0  0  0  0  0  0
    2.3100   -5.0085    0.0000 H   0  0  0  0  0  0  0  0  0  0  0  0
    6.6152    4.8886    0.0000 H   0  0  0  0  0  0  0  0  0  0  0  0
    9.1785    3.7474    0.0000 H   0  0  0  0  0  0  0  0  0  0  0  0
    7.2741    6.3686    0.0000 H   0  0  0  0  0  0  0  0  0  0  0  0
    9.8374    5.2273    0.0000 H   0  0  0  0  0  0  0  0  0  0  0  0
    8.8852    6.5379    0.0000 H   0  0  0  0  0  0  0  0  0  0  0  0
  1 15  1  0  0  0  0
  1 23  1  0  0  0  0
  2  7  1  0  0  0  0
  2  8  1  0  0  0  0
  2 11  1  0  0  0  0
  3  9  1  0  0  0  0
  3 10  1  0  0  0  0
  3 13  1  0  0  0  0
  4  6  1  0  0  0  0
  4 20  1  0  0  0  0
  4 22  1  0  0  0  0
  5  6  2  0  0  0  0
  5 17  1  0  0  0  0
  7  9  1  0  0  0  0
  7 29  1  0  0  0  0
  7 30  1  0  0  0  0
  8 10  1  0  0  0  0
  8 31  1  0  0  0  0
  8 32  1  0  0  0  0
  9 33  1  0  0  0  0
  9 34  1  0  0  0  0
 10 35  1  0  0  0  0
 10 36  1  0  0  0  0
 11 12  1  0  0  0  0
 11 37  1  0  0  0  0
 11 38  1  0  0  0  0
 12 14  1  0  0  0  0
 12 39  1  0  0  0  0
 12 40  1  0  0  0  0
 13 15  1  0  0  0  0
 13 16  2  0  0  0  0
 14 17  1  0  0  0  0
 14 41  1  0  0  0  0
 14 42  1  0  0  0  0
 15 18  2  0  0  0  0
 16 19  1  0  0  0  0
 16 43  1  0  0  0  0
 17 20  2  0  0  0  0
 18 21  1  0  0  0  0
 18 44  1  0  0  0  0
 19 21  2  0  0  0  0
 19 45  1  0  0  0  0
 20 46  1  0  0  0  0
 21 47  1  0  0  0  0
 22 24  2  0  0  0  0
 22 25  1  0  0  0  0
 23 48  1  0  0  0  0
 23 49  1  0  0  0  0
 23 50  1  0  0  0  0
 24 26  1  0  0  0  0
 24 51  1  0  0  0  0
 25 27  2  0  0  0  0
 25 52  1  0  0  0  0
 26 28  2  0  0  0  0
 26 53  1  0  0  0  0
 27 28  1  0  0  0  0
 27 54  1  0  0  0  0
 28 55  1  0  0  0  0
M  END
> <PUBCHEM_COMPOUND_CID>
118719791

> <PUBCHEM_COMPOUND_CANONICALIZED>
1

> <PUBCHEM_CACTVS_COMPLEXITY>
450

> <PUBCHEM_CACTVS_HBOND_ACCEPTOR>
5

> <PUBCHEM_CACTVS_HBOND_DONOR>
0

> <PUBCHEM_CACTVS_ROTATABLE_BOND>
7

> <PUBCHEM_CACTVS_SUBSKEYS>
AAADceB7oAAAAAAAAAAAAAAAAAAAAWAAAAA8YIAAAAAAAAAB0AAAHgAIAAAACAzBlgY+xpMIBACiATRnRACCDCQxsgAYmAA/fIgOZmLEsZuVMChkwBHY6AeQQAAAAAAAAAAAEAAAAAAAAAAgAAAAAAAAAA==

> <PUBCHEM_IUPAC_OPENEYE_NAME>
1-(2-methoxyphenyl)-4-[3-(1-phenyltriazol-4-yl)propyl]piperazine

> <PUBCHEM_IUPAC_CAS_NAME>
1-(2-methoxyphenyl)-4-[3-(1-phenyl-4-triazolyl)propyl]piperazine

> <PUBCHEM_IUPAC_NAME_MARKUP>
1-(2-methoxyphenyl)-4-[3-(1-phenyltriazol-4-yl)propyl]piperazine

> <PUBCHEM_IUPAC_NAME>
1-(2-methoxyphenyl)-4-[3-(1-phenyltriazol-4-yl)propyl]piperazine

> <PUBCHEM_IUPAC_SYSTEMATIC_NAME>
1-(2-methoxyphenyl)-4-[3-(1-phenyl-1,2,3-triazol-4-yl)propyl]piperazine

> <PUBCHEM_IUPAC_TRADITIONAL_NAME>
1-(2-methoxyphenyl)-4-[3-(1-phenyltriazol-4-yl)propyl]piperazine

> <PUBCHEM_IUPAC_INCHI>
InChI=1S/C22H27N5O/c1-28-22-12-6-5-11-21(22)26-16-14-25(15-17-26)13-7-8-19-18-27(24-23-19)20-9-3-2-4-10-20/h2-6,9-12,18H,7-8,13-17H2,1H3

> <PUBCHEM_IUPAC_INCHIKEY>
XQESGARESDXCGW-UHFFFAOYSA-N

> <PUBCHEM_XLOGP3_AA>
3.6

> <PUBCHEM_EXACT_MASS>
377.22156050

> <PUBCHEM_MOLECULAR_FORMULA>
C22H27N5O

> <PUBCHEM_MOLECULAR_WEIGHT>
377.5

> <PUBCHEM_OPENEYE_CAN_SMILES>
COC1=CC=CC=C1N2CCN(CC2)CCCC3=CN(N=N3)C4=CC=CC=C4

> <PUBCHEM_OPENEYE_ISO_SMILES>
COC1=CC=CC=C1N2CCN(CC2)CCCC3=CN(N=N3)C4=CC=CC=C4

> <PUBCHEM_CACTVS_TPSA>
46.4

> <PUBCHEM_MONOISOTOPIC_WEIGHT>
377.22156050

> <PUBCHEM_TOTAL_CHARGE>
0

> <PUBCHEM_HEAVY_ATOM_COUNT>
28

> <PUBCHEM_ATOM_DEF_STEREO_COUNT>
0

> <PUBCHEM_ATOM_UDEF_STEREO_COUNT>
0

> <PUBCHEM_BOND_DEF_STEREO_COUNT>
0

> <PUBCHEM_BOND_UDEF_STEREO_COUNT>
0

> <PUBCHEM_ISOTOPIC_ATOM_COUNT>
0

> <PUBCHEM_COMPONENT_COUNT>
1

> <PUBCHEM_CACTVS_TAUTO_COUNT>
-1

> <PUBCHEM_COORDINATE_TYPE>
1
5
255

> <PUBCHEM_BONDANNOTATIONS>
13  15  8
13  16  8
15  18  8
16  19  8
17  20  8
18  21  8
19  21  8
22  24  8
22  25  8
24  26  8
25  27  8
26  28  8
27  28  8
4  20  8
4  6  8
5  17  8
5  6  8

$$$$
