15344574
  -OEChem-09292322212D

 55 59  0     1  0  0  0  0  0999 V2000
   11.6361    0.8738    0.0000 O   0  0  0  0  0  0  0  0  0  0  0  0
    7.0547    0.7676    0.0000 N   0  0  3  0  0  0  0  0  0  0  0  0
   12.0027   -0.8190    0.0000 N   0  0  0  0  0  0  0  0  0  0  0  0
    4.5274    1.8918    0.0000 N   0  0  0  0  0  0  0  0  0  0  0  0
    5.0274    0.3530    0.0000 C   0  0  0  0  0  0  0  0  0  0  0  0
    5.7123   -0.4317    0.0000 C   0  0  0  0  0  0  0  0  0  0  0  0
    6.7328   -0.2230    0.0000 C   0  0  0  0  0  0  0  0  0  0  0  0
    6.3518    1.5363    0.0000 C   0  0  0  0  0  0  0  0  0  0  0  0
    5.3364    1.3040    0.0000 C   0  0  0  0  0  0  0  0  0  0  0  0
    4.0274    0.3530    0.0000 C   0  0  0  0  0  0  0  0  0  0  0  0
    8.0321    0.9793    0.0000 C   0  0  0  0  0  0  0  0  0  0  0  0
   13.3467   -2.3002    0.0000 C   0  0  0  0  0  0  0  0  0  0  0  0
   13.6520   -1.3479    0.0000 C   0  0  0  0  0  0  0  0  0  0  0  0
   12.3693   -2.5118    0.0000 C   0  0  0  0  0  0  0  0  0  0  0  0
   12.9800   -0.6073    0.0000 C   0  0  0  0  0  0  0  0  0  0  0  0
   11.6974   -1.7713    0.0000 C   0  0  0  0  0  0  0  0  0  0  0  0
    3.7183    1.3040    0.0000 C   0  0  0  0  0  0  0  0  0  0  0  0
    8.7040    0.2387    0.0000 C   0  0  0  0  0  0  0  0  0  0  0  0
   11.3307   -0.0785    0.0000 C   0  0  0  0  0  0  0  0  0  0  0  0
    3.3424   -0.4317    0.0000 C   0  0  0  0  0  0  0  0  0  0  0  0
   10.3534   -0.2902    0.0000 C   0  0  0  0  0  0  0  0  0  0  0  0
    9.6814    0.4504    0.0000 C   0  0  0  0  0  0  0  0  0  0  0  0
    2.7029    1.5363    0.0000 C   0  0  0  0  0  0  0  0  0  0  0  0
    8.3987   -0.7135    0.0000 C   0  0  0  0  0  0  0  0  0  0  0  0
    2.3219   -0.2230    0.0000 C   0  0  0  0  0  0  0  0  0  0  0  0
    2.0000    0.7676    0.0000 C   0  0  0  0  0  0  0  0  0  0  0  0
   10.0480   -1.2424    0.0000 C   0  0  0  0  0  0  0  0  0  0  0  0
    9.0707   -1.4541    0.0000 C   0  0  0  0  0  0  0  0  0  0  0  0
    5.1824   -0.7535    0.0000 H   0  0  0  0  0  0  0  0  0  0  0  0
    5.9387   -1.0090    0.0000 H   0  0  0  0  0  0  0  0  0  0  0  0
    6.7513   -0.8428    0.0000 H   0  0  0  0  0  0  0  0  0  0  0  0
    7.3466   -0.3109    0.0000 H   0  0  0  0  0  0  0  0  0  0  0  0
    6.8742    1.8702    0.0000 H   0  0  0  0  0  0  0  0  0  0  0  0
    6.1122    2.1081    0.0000 H   0  0  0  0  0  0  0  0  0  0  0  0
    8.5566    1.3099    0.0000 H   0  0  0  0  0  0  0  0  0  0  0  0
    7.7976    1.5532    0.0000 H   0  0  0  0  0  0  0  0  0  0  0  0
   13.3707   -2.9197    0.0000 H   0  0  0  0  0  0  0  0  0  0  0  0
   13.9610   -2.3841    0.0000 H   0  0  0  0  0  0  0  0  0  0  0  0
   14.2006   -1.6369    0.0000 H   0  0  0  0  0  0  0  0  0  0  0  0
   14.0319   -0.8579    0.0000 H   0  0  0  0  0  0  0  0  0  0  0  0
   11.8448   -2.8424    0.0000 H   0  0  0  0  0  0  0  0  0  0  0  0
   12.6038   -3.0858    0.0000 H   0  0  0  0  0  0  0  0  0  0  0  0
   13.5046   -0.2768    0.0000 H   0  0  0  0  0  0  0  0  0  0  0  0
   12.7456   -0.0334    0.0000 H   0  0  0  0  0  0  0  0  0  0  0  0
   11.1488   -1.4823    0.0000 H   0  0  0  0  0  0  0  0  0  0  0  0
   11.3175   -2.2613    0.0000 H   0  0  0  0  0  0  0  0  0  0  0  0
    4.5274    2.5118    0.0000 H   0  0  0  0  0  0  0  0  0  0  0  0
    3.5408   -1.0192    0.0000 H   0  0  0  0  0  0  0  0  0  0  0  0
    9.8707    1.0408    0.0000 H   0  0  0  0  0  0  0  0  0  0  0  0
    2.5182    2.1281    0.0000 H   0  0  0  0  0  0  0  0  0  0  0  0
    7.7928   -0.8448    0.0000 H   0  0  0  0  0  0  0  0  0  0  0  0
    1.9088   -0.6854    0.0000 H   0  0  0  0  0  0  0  0  0  0  0  0
    1.3940    0.8989    0.0000 H   0  0  0  0  0  0  0  0  0  0  0  0
   10.4647   -1.7015    0.0000 H   0  0  0  0  0  0  0  0  0  0  0  0
    8.8814   -2.0445    0.0000 H   0  0  0  0  0  0  0  0  0  0  0  0
  1 19  2  0  0  0  0
  2  7  1  0  0  0  0
  2  8  1  0  0  0  0
  2 11  1  0  0  0  0
  3 15  1  0  0  0  0
  3 16  1  0  0  0  0
  3 19  1  0  0  0  0
  4  9  1  0  0  0  0
  4 17  1  0  0  0  0
  4 47  1  0  0  0  0
  5  6  1  0  0  0  0
  5  9  2  0  0  0  0
  5 10  1  0  0  0  0
  6  7  1  0  0  0  0
  6 29  1  0  0  0  0
  6 30  1  0  0  0  0
  7 31  1  0  0  0  0
  7 32  1  0  0  0  0
  8  9  1  0  0  0  0
  8 33  1  0  0  0  0
  8 34  1  0  0  0  0
 10 17  1  0  0  0  0
 10 20  2  0  0  0  0
 11 18  1  0  0  0  0
 11 35  1  0  0  0  0
 11 36  1  0  0  0  0
 12 13  1  0  0  0  0
 12 14  1  0  0  0  0
 12 37  1  0  0  0  0
 12 38  1  0  0  0  0
 13 15  1  0  0  0  0
 13 39  1  0  0  0  0
 13 40  1  0  0  0  0
 14 16  1  0  0  0  0
 14 41  1  0  0  0  0
 14 42  1  0  0  0  0
 15 43  1  0  0  0  0
 15 44  1  0  0  0  0
 16 45  1  0  0  0  0
 16 46  1  0  0  0  0
 17 23  2  0  0  0  0
 18 22  2  0  0  0  0
 18 24  1  0  0  0  0
 19 21  1  0  0  0  0
 20 25  1  0  0  0  0
 20 48  1  0  0  0  0
 21 22  1  0  0  0  0
 21 27  2  0  0  0  0
 22 49  1  0  0  0  0
 23 26  1  0  0  0  0
 23 50  1  0  0  0  0
 24 28  2  0  0  0  0
 24 51  1  0  0  0  0
 25 26  2  0  0  0  0
 25 52  1  0  0  0  0
 26 53  1  0  0  0  0
 27 28  1  0  0  0  0
 27 54  1  0  0  0  0
 28 55  1  0  0  0  0
M  END
> <PUBCHEM_COMPOUND_CID>
15344574

> <PUBCHEM_COMPOUND_CANONICALIZED>
1

> <PUBCHEM_CACTVS_COMPLEXITY>
546

> <PUBCHEM_CACTVS_HBOND_ACCEPTOR>
2

> <PUBCHEM_CACTVS_HBOND_DONOR>
1

> <PUBCHEM_CACTVS_ROTATABLE_BOND>
3

> <PUBCHEM_CACTVS_SUBSKEYS>
AAADceB7IAAAAAAAAAAAAAAAAAAAAWAAAAA8eIEAAAAAAFgB9AAAHgAQAAAADAjBngQwwPPJkACoAyVyVACCgCAlAiAImSE4ZNgIYPLAlZGUIQhglgDIyYcYicCOgAACAAACAAAAAAQAAAQAAAAAAAAAAA==

> <PUBCHEM_IUPAC_OPENEYE_NAME>
1-piperidyl-[3-(1,3,4,9-tetrahydropyrido[3,4-b]indol-2-ylmethyl)phenyl]methanone

> <PUBCHEM_IUPAC_CAS_NAME>
1-piperidinyl-[3-(1,3,4,9-tetrahydropyrido[3,4-b]indol-2-ylmethyl)phenyl]methanone

> <PUBCHEM_IUPAC_NAME_MARKUP>
piperidin-1-yl-[3-(1,3,4,9-tetrahydropyrido[3,4-b]indol-2-ylmethyl)phenyl]methanone

> <PUBCHEM_IUPAC_NAME>
piperidin-1-yl-[3-(1,3,4,9-tetrahydropyrido[3,4-b]indol-2-ylmethyl)phenyl]methanone

> <PUBCHEM_IUPAC_SYSTEMATIC_NAME>
piperidin-1-yl-[3-(1,3,4,9-tetrahydropyrido[3,4-b]indol-2-ylmethyl)phenyl]methanone

> <PUBCHEM_IUPAC_TRADITIONAL_NAME>
piperidino-[3-(1,3,4,9-tetrahydro-beta-carbolin-2-ylmethyl)phenyl]methanone

> <PUBCHEM_IUPAC_INCHI>
InChI=1S/C24H27N3O/c28-24(27-12-4-1-5-13-27)19-8-6-7-18(15-19)16-26-14-11-21-20-9-2-3-10-22(20)25-23(21)17-26/h2-3,6-10,15,25H,1,4-5,11-14,16-17H2

> <PUBCHEM_IUPAC_INCHIKEY>
GPBYZZHKBHRMCG-UHFFFAOYSA-N

> <PUBCHEM_XLOGP3_AA>
3.8

> <PUBCHEM_EXACT_MASS>
373.215412493

> <PUBCHEM_MOLECULAR_FORMULA>
C24H27N3O

> <PUBCHEM_MOLECULAR_WEIGHT>
373.5

> <PUBCHEM_OPENEYE_CAN_SMILES>
C1CCN(CC1)C(=O)C2=CC=CC(=C2)CN3CCC4=C(C3)NC5=CC=CC=C45

> <PUBCHEM_OPENEYE_ISO_SMILES>
C1CCN(CC1)C(=O)C2=CC=CC(=C2)CN3CCC4=C(C3)NC5=CC=CC=C45

> <PUBCHEM_CACTVS_TPSA>
39.3

> <PUBCHEM_MONOISOTOPIC_WEIGHT>
373.215412493

> <PUBCHEM_TOTAL_CHARGE>
0

> <PUBCHEM_HEAVY_ATOM_COUNT>
28

> <PUBCHEM_ATOM_DEF_STEREO_COUNT>
0

> <PUBCHEM_ATOM_UDEF_STEREO_COUNT>
0

> <PUBCHEM_BOND_DEF_STEREO_COUNT>
0

> <PUBCHEM_BOND_UDEF_STEREO_COUNT>
0

> <PUBCHEM_ISOTOPIC_ATOM_COUNT>
0

> <PUBCHEM_COMPONENT_COUNT>
1

> <PUBCHEM_CACTVS_TAUTO_COUNT>
-1

> <PUBCHEM_COORDINATE_TYPE>
1
5
255

> <PUBCHEM_BONDANNOTATIONS>
10  17  8
10  20  8
17  23  8
18  22  8
18  24  8
20  25  8
21  22  8
21  27  8
23  26  8
24  28  8
25  26  8
27  28  8
4  17  8
4  9  8
5  10  8
5  9  8

$$$$
