24901211
  -OEChem-09292322072D

 66 69  0     1  0  0  0  0  0999 V2000
   14.2045   -1.5403    0.0000 S   0  0  0  0  0  0  0  0  0  0  0  0
   13.2583    0.1550    0.0000 O   0  0  0  0  0  0  0  0  0  0  0  0
   12.3923   -4.3450    0.0000 O   0  0  0  0  0  0  0  0  0  0  0  0
    2.8660    4.1550    0.0000 O   0  0  0  0  0  0  0  0  0  0  0  0
   15.7882   -2.3450    0.0000 O   0  0  0  0  0  0  0  0  0  0  0  0
   11.5263    1.1550    0.0000 N   0  0  0  0  0  0  0  0  0  0  0  0
    6.3301    3.1550    0.0000 N   0  0  0  0  0  0  0  0  0  0  0  0
   14.2045   -3.1497    0.0000 N   0  0  0  0  0  0  0  0  0  0  0  0
   12.3923   -0.3450    0.0000 C   0  0  1  0  0  0  0  0  0  0  0  0
   11.5263    0.1550    0.0000 C   0  0  0  0  0  0  0  0  0  0  0  0
   12.3923   -1.3450    0.0000 C   0  0  0  0  0  0  0  0  0  0  0  0
   10.6603    1.6550    0.0000 C   0  0  0  0  0  0  0  0  0  0  0  0
   10.6603    2.6550    0.0000 C   0  0  0  0  0  0  0  0  0  0  0  0
    9.7942    3.1550    0.0000 C   0  0  0  0  0  0  0  0  0  0  0  0
   13.2583   -1.8450    0.0000 C   0  0  0  0  0  0  0  0  0  0  0  0
    8.0622    3.1550    0.0000 C   0  0  0  0  0  0  0  0  0  0  0  0
   13.2583   -2.8450    0.0000 C   0  0  0  0  0  0  0  0  0  0  0  0
    7.1962    2.6550    0.0000 C   0  0  0  0  0  0  0  0  0  0  0  0
    8.9282    2.6550    0.0000 C   0  0  0  0  0  0  0  0  0  0  0  0
   11.5263   -1.8450    0.0000 C   0  0  0  0  0  0  0  0  0  0  0  0
    5.4641    2.6550    0.0000 C   0  0  0  0  0  0  0  0  0  0  0  0
    9.7942    4.1550    0.0000 C   0  0  0  0  0  0  0  0  0  0  0  0
    4.5981    3.1550    0.0000 C   0  0  0  0  0  0  0  0  0  0  0  0
   12.3923   -3.3450    0.0000 C   0  0  0  0  0  0  0  0  0  0  0  0
   11.5263   -2.8450    0.0000 C   0  0  0  0  0  0  0  0  0  0  0  0
    8.0622    4.1550    0.0000 C   0  0  0  0  0  0  0  0  0  0  0  0
    8.9282    4.6550    0.0000 C   0  0  0  0  0  0  0  0  0  0  0  0
    3.7320    2.6550    0.0000 C   0  0  0  0  0  0  0  0  0  0  0  0
   14.7882   -2.3450    0.0000 C   0  0  0  0  0  0  0  0  0  0  0  0
    2.8660    3.1550    0.0000 C   0  0  0  0  0  0  0  0  0  0  0  0
    3.7320    1.6550    0.0000 C   0  0  0  0  0  0  0  0  0  0  0  0
    2.0000    2.6550    0.0000 C   0  0  0  0  0  0  0  0  0  0  0  0
    2.8660    1.1550    0.0000 C   0  0  0  0  0  0  0  0  0  0  0  0
    2.0000    1.6550    0.0000 C   0  0  0  0  0  0  0  0  0  0  0  0
    2.0000    4.6550    0.0000 C   0  0  0  0  0  0  0  0  0  0  0  0
   12.3923    0.2750    0.0000 H   0  0  0  0  0  0  0  0  0  0  0  0
   10.9157    0.2627    0.0000 H   0  0  0  0  0  0  0  0  0  0  0  0
   11.3142   -0.4276    0.0000 H   0  0  0  0  0  0  0  0  0  0  0  0
   10.0497    1.7627    0.0000 H   0  0  0  0  0  0  0  0  0  0  0  0
   10.4482    1.0724    0.0000 H   0  0  0  0  0  0  0  0  0  0  0  0
   11.2708    2.5473    0.0000 H   0  0  0  0  0  0  0  0  0  0  0  0
   10.8723    3.2376    0.0000 H   0  0  0  0  0  0  0  0  0  0  0  0
   12.0632    1.4650    0.0000 H   0  0  0  0  0  0  0  0  0  0  0  0
    6.7976    2.1800    0.0000 H   0  0  0  0  0  0  0  0  0  0  0  0
    7.5947    2.1800    0.0000 H   0  0  0  0  0  0  0  0  0  0  0  0
    8.9282    2.0350    0.0000 H   0  0  0  0  0  0  0  0  0  0  0  0
   10.9893   -1.5350    0.0000 H   0  0  0  0  0  0  0  0  0  0  0  0
    5.0656    2.1800    0.0000 H   0  0  0  0  0  0  0  0  0  0  0  0
    5.8626    2.1800    0.0000 H   0  0  0  0  0  0  0  0  0  0  0  0
    4.9966    3.6300    0.0000 H   0  0  0  0  0  0  0  0  0  0  0  0
    4.1996    3.6300    0.0000 H   0  0  0  0  0  0  0  0  0  0  0  0
   10.3312    4.4650    0.0000 H   0  0  0  0  0  0  0  0  0  0  0  0
    6.3301    3.7750    0.0000 H   0  0  0  0  0  0  0  0  0  0  0  0
   10.9893   -3.1550    0.0000 H   0  0  0  0  0  0  0  0  0  0  0  0
    7.5252    4.4650    0.0000 H   0  0  0  0  0  0  0  0  0  0  0  0
   14.3972   -3.7390    0.0000 H   0  0  0  0  0  0  0  0  0  0  0  0
    8.9282    5.2750    0.0000 H   0  0  0  0  0  0  0  0  0  0  0  0
   13.2583    0.7750    0.0000 H   0  0  0  0  0  0  0  0  0  0  0  0
    4.2690    1.3450    0.0000 H   0  0  0  0  0  0  0  0  0  0  0  0
    1.4631    2.9650    0.0000 H   0  0  0  0  0  0  0  0  0  0  0  0
   11.8554   -4.6550    0.0000 H   0  0  0  0  0  0  0  0  0  0  0  0
    2.8660    0.5350    0.0000 H   0  0  0  0  0  0  0  0  0  0  0  0
    1.4631    1.3450    0.0000 H   0  0  0  0  0  0  0  0  0  0  0  0
    2.3100    5.1919    0.0000 H   0  0  0  0  0  0  0  0  0  0  0  0
    1.4631    4.9650    0.0000 H   0  0  0  0  0  0  0  0  0  0  0  0
    1.6900    4.1181    0.0000 H   0  0  0  0  0  0  0  0  0  0  0  0
  1 15  1  0  0  0  0
  1 29  1  0  0  0  0
  9  2  1  6  0  0  0
  2 58  1  0  0  0  0
  3 24  1  0  0  0  0
  3 61  1  0  0  0  0
  4 30  1  0  0  0  0
  4 35  1  0  0  0  0
  5 29  2  0  0  0  0
  6 10  1  0  0  0  0
  6 12  1  0  0  0  0
  6 43  1  0  0  0  0
  7 18  1  0  0  0  0
  7 21  1  0  0  0  0
  7 53  1  0  0  0  0
  8 17  1  0  0  0  0
  8 29  1  0  0  0  0
  8 56  1  0  0  0  0
  9 10  1  0  0  0  0
  9 11  1  0  0  0  0
  9 36  1  0  0  0  0
 10 37  1  0  0  0  0
 10 38  1  0  0  0  0
 11 15  2  0  0  0  0
 11 20  1  0  0  0  0
 12 13  1  0  0  0  0
 12 39  1  0  0  0  0
 12 40  1  0  0  0  0
 13 14  1  0  0  0  0
 13 41  1  0  0  0  0
 13 42  1  0  0  0  0
 14 19  2  0  0  0  0
 14 22  1  0  0  0  0
 15 17  1  0  0  0  0
 16 18  1  0  0  0  0
 16 19  1  0  0  0  0
 16 26  2  0  0  0  0
 17 24  2  0  0  0  0
 18 44  1  0  0  0  0
 18 45  1  0  0  0  0
 19 46  1  0  0  0  0
 20 25  2  0  0  0  0
 20 47  1  0  0  0  0
 21 23  1  0  0  0  0
 21 48  1  0  0  0  0
 21 49  1  0  0  0  0
 22 27  2  0  0  0  0
 22 52  1  0  0  0  0
 23 28  1  0  0  0  0
 23 50  1  0  0  0  0
 23 51  1  0  0  0  0
 24 25  1  0  0  0  0
 25 54  1  0  0  0  0
 26 27  1  0  0  0  0
 26 55  1  0  0  0  0
 27 57  1  0  0  0  0
 28 30  1  0  0  0  0
 28 31  2  0  0  0  0
 30 32  2  0  0  0  0
 31 33  1  0  0  0  0
 31 59  1  0  0  0  0
 32 34  1  0  0  0  0
 32 60  1  0  0  0  0
 33 34  2  0  0  0  0
 33 62  1  0  0  0  0
 34 63  1  0  0  0  0
 35 64  1  0  0  0  0
 35 65  1  0  0  0  0
 35 66  1  0  0  0  0
M  END
> <PUBCHEM_COMPOUND_CID>
24901211

> <PUBCHEM_COMPOUND_CANONICALIZED>
1

> <PUBCHEM_CACTVS_COMPLEXITY>
656

> <PUBCHEM_CACTVS_HBOND_ACCEPTOR>
7

> <PUBCHEM_CACTVS_HBOND_DONOR>
5

> <PUBCHEM_CACTVS_ROTATABLE_BOND>
12

> <PUBCHEM_CACTVS_SUBSKEYS>
AAADceB7OABAAAAAAAAAAAAAAAAAAWAAAAAwYMAAAAAAAFgBUAAAHgQQCAAADBzh2AYyx4LABgiIAiRCUACCCABhKBAIiJQPTIgONiL2sZuEcChk1BHY+Aew4OQOIAACRAAMEQBAAASIABgiAAAAAAAAAA==

> <PUBCHEM_IUPAC_OPENEYE_NAME>
4-hydroxy-7-[(1R)-1-hydroxy-2-[2-[3-[[2-(2-methoxyphenyl)ethylamino]methyl]phenyl]ethylamino]ethyl]-3H-1,3-benzothiazol-2-one

> <PUBCHEM_IUPAC_CAS_NAME>
4-hydroxy-7-[(1R)-1-hydroxy-2-[2-[3-[[2-(2-methoxyphenyl)ethylamino]methyl]phenyl]ethylamino]ethyl]-3H-1,3-benzothiazol-2-one

> <PUBCHEM_IUPAC_NAME_MARKUP>
4-hydroxy-7-[(1<I>R</I>)-1-hydroxy-2-[2-[3-[[2-(2-methoxyphenyl)ethylamino]methyl]phenyl]ethylamino]ethyl]-3<I>H</I>-1,3-benzothiazol-2-one

> <PUBCHEM_IUPAC_NAME>
4-hydroxy-7-[(1R)-1-hydroxy-2-[2-[3-[[2-(2-methoxyphenyl)ethylamino]methyl]phenyl]ethylamino]ethyl]-3H-1,3-benzothiazol-2-one

> <PUBCHEM_IUPAC_SYSTEMATIC_NAME>
7-[(1R)-2-[2-[3-[[2-(2-methoxyphenyl)ethylamino]methyl]phenyl]ethylamino]-1-oxidanyl-ethyl]-4-oxidanyl-3H-1,3-benzothiazol-2-one

> <PUBCHEM_IUPAC_TRADITIONAL_NAME>
4-hydroxy-7-[(1R)-1-hydroxy-2-[2-[3-[[2-(2-methoxyphenyl)ethylamino]methyl]phenyl]ethylamino]ethyl]-3H-1,3-benzothiazol-2-one

> <PUBCHEM_IUPAC_INCHI>
InChI=1S/C27H31N3O4S/c1-34-24-8-3-2-7-20(24)12-14-28-16-19-6-4-5-18(15-19)11-13-29-17-23(32)21-9-10-22(31)25-26(21)35-27(33)30-25/h2-10,15,23,28-29,31-32H,11-14,16-17H2,1H3,(H,30,33)/t23-/m0/s1

> <PUBCHEM_IUPAC_INCHIKEY>
PIQKJCGMILEGLT-QHCPKHFHSA-N

> <PUBCHEM_XLOGP3_AA>
3.3

> <PUBCHEM_EXACT_MASS>
493.20352765

> <PUBCHEM_MOLECULAR_FORMULA>
C27H31N3O4S

> <PUBCHEM_MOLECULAR_WEIGHT>
493.6

> <PUBCHEM_OPENEYE_CAN_SMILES>
COC1=CC=CC=C1CCNCC2=CC=CC(=C2)CCNCC(C3=C4C(=C(C=C3)O)NC(=O)S4)O

> <PUBCHEM_OPENEYE_ISO_SMILES>
COC1=CC=CC=C1CCNCC2=CC=CC(=C2)CCNC[C@@H](C3=C4C(=C(C=C3)O)NC(=O)S4)O

> <PUBCHEM_CACTVS_TPSA>
128

> <PUBCHEM_MONOISOTOPIC_WEIGHT>
493.20352765

> <PUBCHEM_TOTAL_CHARGE>
0

> <PUBCHEM_HEAVY_ATOM_COUNT>
35

> <PUBCHEM_ATOM_DEF_STEREO_COUNT>
1

> <PUBCHEM_ATOM_UDEF_STEREO_COUNT>
0

> <PUBCHEM_BOND_DEF_STEREO_COUNT>
0

> <PUBCHEM_BOND_UDEF_STEREO_COUNT>
0

> <PUBCHEM_ISOTOPIC_ATOM_COUNT>
0

> <PUBCHEM_COMPONENT_COUNT>
1

> <PUBCHEM_CACTVS_TAUTO_COUNT>
-1

> <PUBCHEM_COORDINATE_TYPE>
1
5
255

> <PUBCHEM_BONDANNOTATIONS>
1  15  8
1  29  8
11  15  8
11  20  8
14  19  8
14  22  8
15  17  8
16  19  8
16  26  8
17  24  8
9  2  6
20  25  8
22  27  8
24  25  8
26  27  8
28  30  8
28  31  8
30  32  8
31  33  8
32  34  8
33  34  8
8  17  8
8  29  8

$$$$
