44431590
  -OEChem-09292322242D

 74 77  0     0  0  0  0  0  0999 V2000
    4.5981   -1.0670    0.0000 S   0  0  0  0  0  0  0  0  0  0  0  0
    7.1962   -4.5670    0.0000 F   0  0  0  0  0  0  0  0  0  0  0  0
    5.8301   -4.9330    0.0000 F   0  0  0  0  0  0  0  0  0  0  0  0
    6.8301   -3.2010    0.0000 F   0  0  0  0  0  0  0  0  0  0  0  0
    5.5981   -1.0670    0.0000 O   0  0  0  0  0  0  0  0  0  0  0  0
    3.5981   -1.0670    0.0000 O   0  0  0  0  0  0  0  0  0  0  0  0
   11.5263    1.9330    0.0000 O   0  0  0  0  0  0  0  0  0  0  0  0
    2.8660   -2.0670    0.0000 O   0  0  0  0  0  0  0  0  0  0  0  0
    8.0622    1.9330    0.0000 N   0  0  0  0  0  0  0  0  0  0  0  0
    4.5981   -0.0670    0.0000 N   0  0  0  0  0  0  0  0  0  0  0  0
    9.7942    2.9330    0.0000 N   0  0  0  0  0  0  0  0  0  0  0  0
    7.1962    1.4330    0.0000 C   0  0  0  0  0  0  0  0  0  0  0  0
    7.1962    0.4330    0.0000 C   0  0  0  0  0  0  0  0  0  0  0  0
    6.3301    1.9330    0.0000 C   0  0  0  0  0  0  0  0  0  0  0  0
    5.4641    0.4330    0.0000 C   0  0  0  0  0  0  0  0  0  0  0  0
    6.3301   -0.0670    0.0000 C   0  0  0  0  0  0  0  0  0  0  0  0
    5.4641    1.4330    0.0000 C   0  0  0  0  0  0  0  0  0  0  0  0
    8.9282    1.4330    0.0000 C   0  0  0  0  0  0  0  0  0  0  0  0
    8.0622    2.9330    0.0000 C   0  0  0  0  0  0  0  0  0  0  0  0
    9.7942    1.9330    0.0000 C   0  0  0  0  0  0  0  0  0  0  0  0
    8.9282    3.4330    0.0000 C   0  0  0  0  0  0  0  0  0  0  0  0
   10.6603    3.4330    0.0000 C   0  0  0  0  0  0  0  0  0  0  0  0
    4.5981   -2.0670    0.0000 C   0  0  0  0  0  0  0  0  0  0  0  0
   11.5263    2.9330    0.0000 C   0  0  0  0  0  0  0  0  0  0  0  0
   10.6603    4.4330    0.0000 C   0  0  0  0  0  0  0  0  0  0  0  0
    3.7320   -2.5670    0.0000 C   0  0  0  0  0  0  0  0  0  0  0  0
    5.4641   -2.5670    0.0000 C   0  0  0  0  0  0  0  0  0  0  0  0
   12.3923    3.4330    0.0000 C   0  0  0  0  0  0  0  0  0  0  0  0
   11.5263    4.9330    0.0000 C   0  0  0  0  0  0  0  0  0  0  0  0
   12.3923    4.4330    0.0000 C   0  0  0  0  0  0  0  0  0  0  0  0
    5.4641   -3.5670    0.0000 C   0  0  0  0  0  0  0  0  0  0  0  0
    3.7320   -3.5670    0.0000 C   0  0  0  0  0  0  0  0  0  0  0  0
   12.3923    1.4330    0.0000 C   0  0  0  0  0  0  0  0  0  0  0  0
    4.5981   -4.0670    0.0000 C   0  0  0  0  0  0  0  0  0  0  0  0
    6.3301   -4.0670    0.0000 C   0  0  0  0  0  0  0  0  0  0  0  0
   12.3923    0.4330    0.0000 C   0  0  0  0  0  0  0  0  0  0  0  0
   13.2583    1.9330    0.0000 C   0  0  0  0  0  0  0  0  0  0  0  0
    2.0000   -2.5670    0.0000 C   0  0  0  0  0  0  0  0  0  0  0  0
    7.7331    1.1230    0.0000 H   0  0  0  0  0  0  0  0  0  0  0  0
    7.4082   -0.1496    0.0000 H   0  0  0  0  0  0  0  0  0  0  0  0
    7.8067    0.5407    0.0000 H   0  0  0  0  0  0  0  0  0  0  0  0
    6.7287    2.4080    0.0000 H   0  0  0  0  0  0  0  0  0  0  0  0
    5.9316    2.4080    0.0000 H   0  0  0  0  0  0  0  0  0  0  0  0
    5.4641   -0.1870    0.0000 H   0  0  0  0  0  0  0  0  0  0  0  0
    5.9316   -0.5419    0.0000 H   0  0  0  0  0  0  0  0  0  0  0  0
    6.7287   -0.5419    0.0000 H   0  0  0  0  0  0  0  0  0  0  0  0
    5.2520    2.0156    0.0000 H   0  0  0  0  0  0  0  0  0  0  0  0
    4.8535    1.3254    0.0000 H   0  0  0  0  0  0  0  0  0  0  0  0
    8.5297    0.9581    0.0000 H   0  0  0  0  0  0  0  0  0  0  0  0
    9.3267    0.9581    0.0000 H   0  0  0  0  0  0  0  0  0  0  0  0
    7.8501    3.5156    0.0000 H   0  0  0  0  0  0  0  0  0  0  0  0
    7.4516    2.8253    0.0000 H   0  0  0  0  0  0  0  0  0  0  0  0
   10.0063    1.3504    0.0000 H   0  0  0  0  0  0  0  0  0  0  0  0
   10.4048    2.0407    0.0000 H   0  0  0  0  0  0  0  0  0  0  0  0
    9.3267    3.9080    0.0000 H   0  0  0  0  0  0  0  0  0  0  0  0
    8.5297    3.9080    0.0000 H   0  0  0  0  0  0  0  0  0  0  0  0
    4.0611    0.2430    0.0000 H   0  0  0  0  0  0  0  0  0  0  0  0
   10.1233    4.7430    0.0000 H   0  0  0  0  0  0  0  0  0  0  0  0
    6.0010   -2.2570    0.0000 H   0  0  0  0  0  0  0  0  0  0  0  0
   12.9292    3.1230    0.0000 H   0  0  0  0  0  0  0  0  0  0  0  0
   11.5263    5.5530    0.0000 H   0  0  0  0  0  0  0  0  0  0  0  0
   12.9292    4.7430    0.0000 H   0  0  0  0  0  0  0  0  0  0  0  0
    3.1951   -3.8770    0.0000 H   0  0  0  0  0  0  0  0  0  0  0  0
   11.8554    1.1230    0.0000 H   0  0  0  0  0  0  0  0  0  0  0  0
    4.5981   -4.6870    0.0000 H   0  0  0  0  0  0  0  0  0  0  0  0
   11.7723    0.4330    0.0000 H   0  0  0  0  0  0  0  0  0  0  0  0
   12.3923   -0.1870    0.0000 H   0  0  0  0  0  0  0  0  0  0  0  0
   13.0123    0.4330    0.0000 H   0  0  0  0  0  0  0  0  0  0  0  0
   13.5683    1.3961    0.0000 H   0  0  0  0  0  0  0  0  0  0  0  0
   13.7953    2.2430    0.0000 H   0  0  0  0  0  0  0  0  0  0  0  0
   12.9483    2.4700    0.0000 H   0  0  0  0  0  0  0  0  0  0  0  0
    1.6900   -2.0300    0.0000 H   0  0  0  0  0  0  0  0  0  0  0  0
    1.4631   -2.8770    0.0000 H   0  0  0  0  0  0  0  0  0  0  0  0
    2.3100   -3.1039    0.0000 H   0  0  0  0  0  0  0  0  0  0  0  0
  1  5  2  0  0  0  0
  1  6  2  0  0  0  0
  1 10  1  0  0  0  0
  1 23  1  0  0  0  0
  2 35  1  0  0  0  0
  3 35  1  0  0  0  0
  4 35  1  0  0  0  0
  7 24  1  0  0  0  0
  7 33  1  0  0  0  0
  8 26  1  0  0  0  0
  8 38  1  0  0  0  0
  9 12  1  0  0  0  0
  9 18  1  0  0  0  0
  9 19  1  0  0  0  0
 10 15  1  0  0  0  0
 10 57  1  0  0  0  0
 11 20  1  0  0  0  0
 11 21  1  0  0  0  0
 11 22  1  0  0  0  0
 12 13  1  0  0  0  0
 12 14  1  0  0  0  0
 12 39  1  0  0  0  0
 13 16  1  0  0  0  0
 13 40  1  0  0  0  0
 13 41  1  0  0  0  0
 14 17  1  0  0  0  0
 14 42  1  0  0  0  0
 14 43  1  0  0  0  0
 15 16  1  0  0  0  0
 15 17  1  0  0  0  0
 15 44  1  0  0  0  0
 16 45  1  0  0  0  0
 16 46  1  0  0  0  0
 17 47  1  0  0  0  0
 17 48  1  0  0  0  0
 18 20  1  0  0  0  0
 18 49  1  0  0  0  0
 18 50  1  0  0  0  0
 19 21  1  0  0  0  0
 19 51  1  0  0  0  0
 19 52  1  0  0  0  0
 20 53  1  0  0  0  0
 20 54  1  0  0  0  0
 21 55  1  0  0  0  0
 21 56  1  0  0  0  0
 22 24  1  0  0  0  0
 22 25  2  0  0  0  0
 23 26  2  0  0  0  0
 23 27  1  0  0  0  0
 24 28  2  0  0  0  0
 25 29  1  0  0  0  0
 25 58  1  0  0  0  0
 26 32  1  0  0  0  0
 27 31  2  0  0  0  0
 27 59  1  0  0  0  0
 28 30  1  0  0  0  0
 28 60  1  0  0  0  0
 29 30  2  0  0  0  0
 29 61  1  0  0  0  0
 30 62  1  0  0  0  0
 31 34  1  0  0  0  0
 31 35  1  0  0  0  0
 32 34  2  0  0  0  0
 32 63  1  0  0  0  0
 33 36  1  0  0  0  0
 33 37  1  0  0  0  0
 33 64  1  0  0  0  0
 34 65  1  0  0  0  0
 36 66  1  0  0  0  0
 36 67  1  0  0  0  0
 36 68  1  0  0  0  0
 37 69  1  0  0  0  0
 37 70  1  0  0  0  0
 37 71  1  0  0  0  0
 38 72  1  0  0  0  0
 38 73  1  0  0  0  0
 38 74  1  0  0  0  0
M  END
> <PUBCHEM_COMPOUND_CID>
44431590

> <PUBCHEM_COMPOUND_CANONICALIZED>
1

> <PUBCHEM_CACTVS_COMPLEXITY>
838

> <PUBCHEM_CACTVS_HBOND_ACCEPTOR>
10

> <PUBCHEM_CACTVS_HBOND_DONOR>
1

> <PUBCHEM_CACTVS_ROTATABLE_BOND>
8

> <PUBCHEM_CACTVS_SUBSKEYS>
AAADcfB7OYBAAAAAAAAAAAAAAAAAAAAAAAA8YMEAAAAAAAABQAAAHwQQQAAADDzh2BYyx4NABAKAAiRCQHDCCBAhIgAIiJoPbIgOZiLEsZuXOCjk0BHY6AeQwAAOIAAAgAAAMABAAQEAAABgAAAAAAAAAA==

> <PUBCHEM_IUPAC_OPENEYE_NAME>
N-[4-[4-(2-isopropoxyphenyl)piperazin-1-yl]cyclohexyl]-2-methoxy-5-(trifluoromethyl)benzenesulfonamide

> <PUBCHEM_IUPAC_CAS_NAME>
2-methoxy-N-[4-[4-(2-propan-2-yloxyphenyl)-1-piperazinyl]cyclohexyl]-5-(trifluoromethyl)benzenesulfonamide

> <PUBCHEM_IUPAC_NAME_MARKUP>
2-methoxy-<I>N</I>-[4-[4-(2-propan-2-yloxyphenyl)piperazin-1-yl]cyclohexyl]-5-(trifluoromethyl)benzenesulfonamide

> <PUBCHEM_IUPAC_NAME>
2-methoxy-N-[4-[4-(2-propan-2-yloxyphenyl)piperazin-1-yl]cyclohexyl]-5-(trifluoromethyl)benzenesulfonamide

> <PUBCHEM_IUPAC_SYSTEMATIC_NAME>
2-methoxy-N-[4-[4-(2-propan-2-yloxyphenyl)piperazin-1-yl]cyclohexyl]-5-(trifluoromethyl)benzenesulfonamide

> <PUBCHEM_IUPAC_TRADITIONAL_NAME>
N-[4-[4-(2-isopropoxyphenyl)piperazino]cyclohexyl]-2-methoxy-5-(trifluoromethyl)benzenesulfonamide

> <PUBCHEM_IUPAC_INCHI>
InChI=1S/C27H36F3N3O4S/c1-19(2)37-24-7-5-4-6-23(24)33-16-14-32(15-17-33)22-11-9-21(10-12-22)31-38(34,35)26-18-20(27(28,29)30)8-13-25(26)36-3/h4-8,13,18-19,21-22,31H,9-12,14-17H2,1-3H3

> <PUBCHEM_IUPAC_INCHIKEY>
VXZHIQQSDIJVSS-UHFFFAOYSA-N

> <PUBCHEM_XLOGP3_AA>
5.5

> <PUBCHEM_EXACT_MASS>
555.23786230

> <PUBCHEM_MOLECULAR_FORMULA>
C27H36F3N3O4S

> <PUBCHEM_MOLECULAR_WEIGHT>
555.7

> <PUBCHEM_OPENEYE_CAN_SMILES>
CC(C)OC1=CC=CC=C1N2CCN(CC2)C3CCC(CC3)NS(=O)(=O)C4=C(C=CC(=C4)C(F)(F)F)OC

> <PUBCHEM_OPENEYE_ISO_SMILES>
CC(C)OC1=CC=CC=C1N2CCN(CC2)C3CCC(CC3)NS(=O)(=O)C4=C(C=CC(=C4)C(F)(F)F)OC

> <PUBCHEM_CACTVS_TPSA>
79.5

> <PUBCHEM_MONOISOTOPIC_WEIGHT>
555.23786230

> <PUBCHEM_TOTAL_CHARGE>
0

> <PUBCHEM_HEAVY_ATOM_COUNT>
38

> <PUBCHEM_ATOM_DEF_STEREO_COUNT>
0

> <PUBCHEM_ATOM_UDEF_STEREO_COUNT>
0

> <PUBCHEM_BOND_DEF_STEREO_COUNT>
0

> <PUBCHEM_BOND_UDEF_STEREO_COUNT>
0

> <PUBCHEM_ISOTOPIC_ATOM_COUNT>
0

> <PUBCHEM_COMPONENT_COUNT>
1

> <PUBCHEM_CACTVS_TAUTO_COUNT>
-1

> <PUBCHEM_COORDINATE_TYPE>
1
5
255

> <PUBCHEM_BONDANNOTATIONS>
22  24  8
22  25  8
23  26  8
23  27  8
24  28  8
25  29  8
26  32  8
27  31  8
28  30  8
29  30  8
31  34  8
32  34  8

$$$$
