118710458
  -OEChem-09292322352D

 55 58  0     0  0  0  0  0  0999 V2000
    6.7619    2.0981    0.0000 O   0  0  0  0  0  0  0  0  0  0  0  0
   10.7619   -1.3660    0.0000 N   0  0  0  0  0  0  0  0  0  0  0  0
   12.7619   -1.3660    0.0000 N   0  0  0  0  0  0  0  0  0  0  0  0
    6.7619    0.3660    0.0000 N   0  0  0  0  0  0  0  0  0  0  0  0
    3.7320    1.7320    0.0000 N   0  0  0  0  0  0  0  0  0  0  0  0
    4.6783    0.4273    0.0000 N   0  0  0  0  0  0  0  0  0  0  0  0
   11.2619   -2.2320    0.0000 C   0  0  0  0  0  0  0  0  0  0  0  0
   11.2619   -0.5000    0.0000 C   0  0  0  0  0  0  0  0  0  0  0  0
   12.2619   -2.2320    0.0000 C   0  0  0  0  0  0  0  0  0  0  0  0
   12.2619   -0.5000    0.0000 C   0  0  0  0  0  0  0  0  0  0  0  0
    9.7619   -1.3660    0.0000 C   0  0  0  0  0  0  0  0  0  0  0  0
    9.2619   -0.5000    0.0000 C   0  0  0  0  0  0  0  0  0  0  0  0
    8.2619   -0.5000    0.0000 C   0  0  0  0  0  0  0  0  0  0  0  0
   13.7619   -1.3660    0.0000 C   0  0  0  0  0  0  0  0  0  0  0  0
    7.7619    0.3660    0.0000 C   0  0  0  0  0  0  0  0  0  0  0  0
   14.2619   -2.2320    0.0000 C   0  0  0  0  0  0  0  0  0  0  0  0
   14.2619   -0.5000    0.0000 C   0  0  0  0  0  0  0  0  0  0  0  0
   15.2619   -2.2320    0.0000 C   0  0  0  0  0  0  0  0  0  0  0  0
   15.2619   -0.5000    0.0000 C   0  0  0  0  0  0  0  0  0  0  0  0
   15.7619   -1.3660    0.0000 C   0  0  0  0  0  0  0  0  0  0  0  0
    6.2619    1.2320    0.0000 C   0  0  0  0  0  0  0  0  0  0  0  0
    5.2619    1.2320    0.0000 C   0  0  0  0  0  0  0  0  0  0  0  0
    4.6783    2.0368    0.0000 C   0  0  0  0  0  0  0  0  0  0  0  0
    3.7320    0.7321    0.0000 C   0  0  0  0  0  0  0  0  0  0  0  0
    2.8660    2.2320    0.0000 C   0  0  0  0  0  0  0  0  0  0  0  0
    2.8660    0.2321    0.0000 C   0  0  0  0  0  0  0  0  0  0  0  0
    2.0000    1.7320    0.0000 C   0  0  0  0  0  0  0  0  0  0  0  0
    2.0000    0.7321    0.0000 C   0  0  0  0  0  0  0  0  0  0  0  0
   10.6793   -2.4441    0.0000 H   0  0  0  0  0  0  0  0  0  0  0  0
   11.3695   -2.8426    0.0000 H   0  0  0  0  0  0  0  0  0  0  0  0
   11.3695    0.1106    0.0000 H   0  0  0  0  0  0  0  0  0  0  0  0
   10.6793   -0.2879    0.0000 H   0  0  0  0  0  0  0  0  0  0  0  0
   12.1542   -2.8426    0.0000 H   0  0  0  0  0  0  0  0  0  0  0  0
   12.8445   -2.4441    0.0000 H   0  0  0  0  0  0  0  0  0  0  0  0
   12.8445   -0.2879    0.0000 H   0  0  0  0  0  0  0  0  0  0  0  0
   12.1542    0.1106    0.0000 H   0  0  0  0  0  0  0  0  0  0  0  0
    9.1793   -1.5781    0.0000 H   0  0  0  0  0  0  0  0  0  0  0  0
    9.8695   -1.9766    0.0000 H   0  0  0  0  0  0  0  0  0  0  0  0
    9.8445   -0.2879    0.0000 H   0  0  0  0  0  0  0  0  0  0  0  0
    9.1542    0.1106    0.0000 H   0  0  0  0  0  0  0  0  0  0  0  0
    7.6793   -0.7121    0.0000 H   0  0  0  0  0  0  0  0  0  0  0  0
    8.3695   -1.1106    0.0000 H   0  0  0  0  0  0  0  0  0  0  0  0
    8.3445    0.5781    0.0000 H   0  0  0  0  0  0  0  0  0  0  0  0
    7.6542    0.9766    0.0000 H   0  0  0  0  0  0  0  0  0  0  0  0
   13.9519   -2.7690    0.0000 H   0  0  0  0  0  0  0  0  0  0  0  0
   13.9519    0.0369    0.0000 H   0  0  0  0  0  0  0  0  0  0  0  0
    6.4519   -0.1709    0.0000 H   0  0  0  0  0  0  0  0  0  0  0  0
   15.5719   -2.7690    0.0000 H   0  0  0  0  0  0  0  0  0  0  0  0
   15.5719    0.0369    0.0000 H   0  0  0  0  0  0  0  0  0  0  0  0
   16.3819   -1.3660    0.0000 H   0  0  0  0  0  0  0  0  0  0  0  0
    4.8709    2.6261    0.0000 H   0  0  0  0  0  0  0  0  0  0  0  0
    2.8660    2.8521    0.0000 H   0  0  0  0  0  0  0  0  0  0  0  0
    2.8660   -0.3879    0.0000 H   0  0  0  0  0  0  0  0  0  0  0  0
    1.4631    2.0420    0.0000 H   0  0  0  0  0  0  0  0  0  0  0  0
    1.4631    0.4221    0.0000 H   0  0  0  0  0  0  0  0  0  0  0  0
  1 21  2  0  0  0  0
  2  7  1  0  0  0  0
  2  8  1  0  0  0  0
  2 11  1  0  0  0  0
  3  9  1  0  0  0  0
  3 10  1  0  0  0  0
  3 14  1  0  0  0  0
  4 15  1  0  0  0  0
  4 21  1  0  0  0  0
  4 47  1  0  0  0  0
  5 23  1  0  0  0  0
  5 24  1  0  0  0  0
  5 25  1  0  0  0  0
  6 22  1  0  0  0  0
  6 24  2  0  0  0  0
  7  9  1  0  0  0  0
  7 29  1  0  0  0  0
  7 30  1  0  0  0  0
  8 10  1  0  0  0  0
  8 31  1  0  0  0  0
  8 32  1  0  0  0  0
  9 33  1  0  0  0  0
  9 34  1  0  0  0  0
 10 35  1  0  0  0  0
 10 36  1  0  0  0  0
 11 12  1  0  0  0  0
 11 37  1  0  0  0  0
 11 38  1  0  0  0  0
 12 13  1  0  0  0  0
 12 39  1  0  0  0  0
 12 40  1  0  0  0  0
 13 15  1  0  0  0  0
 13 41  1  0  0  0  0
 13 42  1  0  0  0  0
 14 16  2  0  0  0  0
 14 17  1  0  0  0  0
 15 43  1  0  0  0  0
 15 44  1  0  0  0  0
 16 18  1  0  0  0  0
 16 45  1  0  0  0  0
 17 19  2  0  0  0  0
 17 46  1  0  0  0  0
 18 20  2  0  0  0  0
 18 48  1  0  0  0  0
 19 20  1  0  0  0  0
 19 49  1  0  0  0  0
 20 50  1  0  0  0  0
 21 22  1  0  0  0  0
 22 23  2  0  0  0  0
 23 51  1  0  0  0  0
 24 26  1  0  0  0  0
 25 27  2  0  0  0  0
 25 52  1  0  0  0  0
 26 28  2  0  0  0  0
 26 53  1  0  0  0  0
 27 28  1  0  0  0  0
 27 54  1  0  0  0  0
 28 55  1  0  0  0  0
M  END
> <PUBCHEM_COMPOUND_CID>
118710458

> <PUBCHEM_COMPOUND_CANONICALIZED>
1

> <PUBCHEM_CACTVS_COMPLEXITY>
487

> <PUBCHEM_CACTVS_HBOND_ACCEPTOR>
4

> <PUBCHEM_CACTVS_HBOND_DONOR>
1

> <PUBCHEM_CACTVS_ROTATABLE_BOND>
7

> <PUBCHEM_CACTVS_SUBSKEYS>
AAADceB7oAAAAAAAAAAAAAAAAAAAAWAAAAA8WIAAAAAAAFgB8AAAHgAQAAAACAjBlwQ98J/MGACoATd3dACCgC03EqAJ2KG4dNiIaOrA2bGUIIholgLIyOcQAAAAAAAAAAAAAAAAAAAAAAAAAAAAAAAAAA==

> <PUBCHEM_IUPAC_OPENEYE_NAME>
N-[4-(4-phenylpiperazin-1-yl)butyl]imidazo[1,2-a]pyridine-2-carboxamide

> <PUBCHEM_IUPAC_CAS_NAME>
N-[4-(4-phenyl-1-piperazinyl)butyl]-2-imidazo[1,2-a]pyridinecarboxamide

> <PUBCHEM_IUPAC_NAME_MARKUP>
<I>N</I>-[4-(4-phenylpiperazin-1-yl)butyl]imidazo[1,2-a]pyridine-2-carboxamide

> <PUBCHEM_IUPAC_NAME>
N-[4-(4-phenylpiperazin-1-yl)butyl]imidazo[1,2-a]pyridine-2-carboxamide

> <PUBCHEM_IUPAC_SYSTEMATIC_NAME>
N-[4-(4-phenylpiperazin-1-yl)butyl]imidazo[1,2-a]pyridine-2-carboxamide

> <PUBCHEM_IUPAC_TRADITIONAL_NAME>
N-[4-(4-phenylpiperazino)butyl]imidazo[1,2-a]pyridine-2-carboxamide

> <PUBCHEM_IUPAC_INCHI>
InChI=1S/C22H27N5O/c28-22(20-18-27-13-6-4-10-21(27)24-20)23-11-5-7-12-25-14-16-26(17-15-25)19-8-2-1-3-9-19/h1-4,6,8-10,13,18H,5,7,11-12,14-17H2,(H,23,28)

> <PUBCHEM_IUPAC_INCHIKEY>
GVJCGWLQVQHHKA-UHFFFAOYSA-N

> <PUBCHEM_XLOGP3_AA>
3.7

> <PUBCHEM_EXACT_MASS>
377.22156050

> <PUBCHEM_MOLECULAR_FORMULA>
C22H27N5O

> <PUBCHEM_MOLECULAR_WEIGHT>
377.5

> <PUBCHEM_OPENEYE_CAN_SMILES>
C1CN(CCN1CCCCNC(=O)C2=CN3C=CC=CC3=N2)C4=CC=CC=C4

> <PUBCHEM_OPENEYE_ISO_SMILES>
C1CN(CCN1CCCCNC(=O)C2=CN3C=CC=CC3=N2)C4=CC=CC=C4

> <PUBCHEM_CACTVS_TPSA>
52.9

> <PUBCHEM_MONOISOTOPIC_WEIGHT>
377.22156050

> <PUBCHEM_TOTAL_CHARGE>
0

> <PUBCHEM_HEAVY_ATOM_COUNT>
28

> <PUBCHEM_ATOM_DEF_STEREO_COUNT>
0

> <PUBCHEM_ATOM_UDEF_STEREO_COUNT>
0

> <PUBCHEM_BOND_DEF_STEREO_COUNT>
0

> <PUBCHEM_BOND_UDEF_STEREO_COUNT>
0

> <PUBCHEM_ISOTOPIC_ATOM_COUNT>
0

> <PUBCHEM_COMPONENT_COUNT>
1

> <PUBCHEM_CACTVS_TAUTO_COUNT>
-1

> <PUBCHEM_COORDINATE_TYPE>
1
5
255

> <PUBCHEM_BONDANNOTATIONS>
14  16  8
14  17  8
16  18  8
17  19  8
18  20  8
19  20  8
22  23  8
24  26  8
25  27  8
26  28  8
27  28  8
5  23  8
5  24  8
5  25  8
6  22  8
6  24  8

$$$$
