142590728
  -OEChem-09292322432D

 63 65  0     0  0  0  0  0  0999 V2000
    5.4641    2.1830    0.0000 S   0  0  0  0  0  0  0  0  0  0  0  0
    8.9282    5.1830    0.0000 F   0  0  0  0  0  0  0  0  0  0  0  0
    2.0000    5.1830    0.0000 F   0  0  0  0  0  0  0  0  0  0  0  0
    4.5981   -4.3170    0.0000 O   0  0  0  0  0  0  0  0  0  0  0  0
    3.7320   -2.8170    0.0000 N   0  0  0  0  0  0  0  0  0  0  0  0
    3.7320    0.1830    0.0000 N   0  0  0  0  0  0  0  0  0  0  0  0
    3.7320   -0.8170    0.0000 C   0  0  0  0  0  0  0  0  0  0  0  0
    2.8660   -1.3170    0.0000 C   0  0  0  0  0  0  0  0  0  0  0  0
    4.5981   -1.3170    0.0000 C   0  0  0  0  0  0  0  0  0  0  0  0
    2.8660   -2.3170    0.0000 C   0  0  0  0  0  0  0  0  0  0  0  0
    4.5981   -2.3170    0.0000 C   0  0  0  0  0  0  0  0  0  0  0  0
    2.8660   -4.3170    0.0000 C   0  0  0  0  0  0  0  0  0  0  0  0
    3.7320   -3.8170    0.0000 C   0  0  0  0  0  0  0  0  0  0  0  0
    4.5981    0.6830    0.0000 C   0  0  0  0  0  0  0  0  0  0  0  0
    2.0000   -4.8170    0.0000 C   0  0  0  0  0  0  0  0  0  0  0  0
    3.3660   -5.1830    0.0000 C   0  0  0  0  0  0  0  0  0  0  0  0
    2.3660   -3.4510    0.0000 C   0  0  0  0  0  0  0  0  0  0  0  0
    4.5981    1.6830    0.0000 C   0  0  0  0  0  0  0  0  0  0  0  0
    5.4641    3.1830    0.0000 C   0  0  0  0  0  0  0  0  0  0  0  0
    6.3301    3.6830    0.0000 C   0  0  0  0  0  0  0  0  0  0  0  0
    4.5981    3.6830    0.0000 C   0  0  0  0  0  0  0  0  0  0  0  0
    6.3301    4.6830    0.0000 C   0  0  0  0  0  0  0  0  0  0  0  0
    4.5981    4.6830    0.0000 C   0  0  0  0  0  0  0  0  0  0  0  0
    7.1962    3.1830    0.0000 C   0  0  0  0  0  0  0  0  0  0  0  0
    3.7320    3.1830    0.0000 C   0  0  0  0  0  0  0  0  0  0  0  0
    7.1962    5.1830    0.0000 C   0  0  0  0  0  0  0  0  0  0  0  0
    3.7320    5.1830    0.0000 C   0  0  0  0  0  0  0  0  0  0  0  0
    8.0622    3.6830    0.0000 C   0  0  0  0  0  0  0  0  0  0  0  0
    2.8660    3.6830    0.0000 C   0  0  0  0  0  0  0  0  0  0  0  0
    8.0622    4.6830    0.0000 C   0  0  0  0  0  0  0  0  0  0  0  0
    2.8660    4.6830    0.0000 C   0  0  0  0  0  0  0  0  0  0  0  0
    4.2690   -0.5070    0.0000 H   0  0  0  0  0  0  0  0  0  0  0  0
    2.6540   -0.7344    0.0000 H   0  0  0  0  0  0  0  0  0  0  0  0
    2.2554   -1.4246    0.0000 H   0  0  0  0  0  0  0  0  0  0  0  0
    5.2087   -1.4246    0.0000 H   0  0  0  0  0  0  0  0  0  0  0  0
    4.8101   -0.7344    0.0000 H   0  0  0  0  0  0  0  0  0  0  0  0
    2.2554   -2.2093    0.0000 H   0  0  0  0  0  0  0  0  0  0  0  0
    2.6540   -2.8996    0.0000 H   0  0  0  0  0  0  0  0  0  0  0  0
    4.8101   -2.8996    0.0000 H   0  0  0  0  0  0  0  0  0  0  0  0
    5.2087   -2.2093    0.0000 H   0  0  0  0  0  0  0  0  0  0  0  0
    3.1951    0.4930    0.0000 H   0  0  0  0  0  0  0  0  0  0  0  0
    4.8101    0.1004    0.0000 H   0  0  0  0  0  0  0  0  0  0  0  0
    5.2087    0.7907    0.0000 H   0  0  0  0  0  0  0  0  0  0  0  0
    1.6900   -4.2800    0.0000 H   0  0  0  0  0  0  0  0  0  0  0  0
    1.4631   -5.1270    0.0000 H   0  0  0  0  0  0  0  0  0  0  0  0
    2.3100   -5.3539    0.0000 H   0  0  0  0  0  0  0  0  0  0  0  0
    2.8291   -5.4930    0.0000 H   0  0  0  0  0  0  0  0  0  0  0  0
    3.6760   -5.7200    0.0000 H   0  0  0  0  0  0  0  0  0  0  0  0
    3.9030   -4.8730    0.0000 H   0  0  0  0  0  0  0  0  0  0  0  0
    2.9030   -3.1410    0.0000 H   0  0  0  0  0  0  0  0  0  0  0  0
    2.0560   -2.9140    0.0000 H   0  0  0  0  0  0  0  0  0  0  0  0
    1.8291   -3.7610    0.0000 H   0  0  0  0  0  0  0  0  0  0  0  0
    4.3860    2.2656    0.0000 H   0  0  0  0  0  0  0  0  0  0  0  0
    3.9875    1.5754    0.0000 H   0  0  0  0  0  0  0  0  0  0  0  0
    6.0010    2.8730    0.0000 H   0  0  0  0  0  0  0  0  0  0  0  0
    5.7932    4.9930    0.0000 H   0  0  0  0  0  0  0  0  0  0  0  0
    5.1350    4.9930    0.0000 H   0  0  0  0  0  0  0  0  0  0  0  0
    7.1962    2.5630    0.0000 H   0  0  0  0  0  0  0  0  0  0  0  0
    3.7320    2.5630    0.0000 H   0  0  0  0  0  0  0  0  0  0  0  0
    7.1962    5.8030    0.0000 H   0  0  0  0  0  0  0  0  0  0  0  0
    3.7320    5.8030    0.0000 H   0  0  0  0  0  0  0  0  0  0  0  0
    8.5991    3.3730    0.0000 H   0  0  0  0  0  0  0  0  0  0  0  0
    2.3291    3.3730    0.0000 H   0  0  0  0  0  0  0  0  0  0  0  0
  1 18  1  0  0  0  0
  1 19  1  0  0  0  0
  2 30  1  0  0  0  0
  3 31  1  0  0  0  0
  4 13  2  0  0  0  0
  5 10  1  0  0  0  0
  5 11  1  0  0  0  0
  5 13  1  0  0  0  0
  6  7  1  0  0  0  0
  6 14  1  0  0  0  0
  6 41  1  0  0  0  0
  7  8  1  0  0  0  0
  7  9  1  0  0  0  0
  7 32  1  0  0  0  0
  8 10  1  0  0  0  0
  8 33  1  0  0  0  0
  8 34  1  0  0  0  0
  9 11  1  0  0  0  0
  9 35  1  0  0  0  0
  9 36  1  0  0  0  0
 10 37  1  0  0  0  0
 10 38  1  0  0  0  0
 11 39  1  0  0  0  0
 11 40  1  0  0  0  0
 12 13  1  0  0  0  0
 12 15  1  0  0  0  0
 12 16  1  0  0  0  0
 12 17  1  0  0  0  0
 14 18  1  0  0  0  0
 14 42  1  0  0  0  0
 14 43  1  0  0  0  0
 15 44  1  0  0  0  0
 15 45  1  0  0  0  0
 15 46  1  0  0  0  0
 16 47  1  0  0  0  0
 16 48  1  0  0  0  0
 16 49  1  0  0  0  0
 17 50  1  0  0  0  0
 17 51  1  0  0  0  0
 17 52  1  0  0  0  0
 18 53  1  0  0  0  0
 18 54  1  0  0  0  0
 19 20  1  0  0  0  0
 19 21  1  0  0  0  0
 19 55  1  0  0  0  0
 20 22  2  0  0  0  0
 20 24  1  0  0  0  0
 21 23  2  0  0  0  0
 21 25  1  0  0  0  0
 22 26  1  0  0  0  0
 22 56  1  0  0  0  0
 23 27  1  0  0  0  0
 23 57  1  0  0  0  0
 24 28  2  0  0  0  0
 24 58  1  0  0  0  0
 25 29  2  0  0  0  0
 25 59  1  0  0  0  0
 26 30  2  0  0  0  0
 26 60  1  0  0  0  0
 27 31  2  0  0  0  0
 27 61  1  0  0  0  0
 28 30  1  0  0  0  0
 28 62  1  0  0  0  0
 29 31  1  0  0  0  0
 29 63  1  0  0  0  0
M  END
> <PUBCHEM_COMPOUND_CID>
142590728

> <PUBCHEM_COMPOUND_CANONICALIZED>
1

> <PUBCHEM_CACTVS_COMPLEXITY>
524

> <PUBCHEM_CACTVS_HBOND_ACCEPTOR>
5

> <PUBCHEM_CACTVS_HBOND_DONOR>
1

> <PUBCHEM_CACTVS_ROTATABLE_BOND>
8

> <PUBCHEM_CACTVS_SUBSKEYS>
AAADcfB7IYBAAAAAAAAAAAAAAAAAAAAAAAA8YIAAAAAAAAABQAAAHwQQAAAADijF2AyyAIPAAAiIAiFSEAACAAAgABAIiIEIAIgIICKg0RCEIAAglgCoiAcQgMAOAAAAAAAAAAAAAAAAAAAAAAAAAAAAAA==

> <PUBCHEM_IUPAC_OPENEYE_NAME>
1-[4-[2-[bis(4-fluorophenyl)methylsulfanyl]ethylamino]-1-piperidyl]-2,2-dimethyl-propan-1-one

> <PUBCHEM_IUPAC_CAS_NAME>
1-[4-[2-[bis(4-fluorophenyl)methylthio]ethylamino]-1-piperidinyl]-2,2-dimethyl-1-propanone

> <PUBCHEM_IUPAC_NAME_MARKUP>
1-[4-[2-[bis(4-fluorophenyl)methylsulfanyl]ethylamino]piperidin-1-yl]-2,2-dimethylpropan-1-one

> <PUBCHEM_IUPAC_NAME>
1-[4-[2-[bis(4-fluorophenyl)methylsulfanyl]ethylamino]piperidin-1-yl]-2,2-dimethylpropan-1-one

> <PUBCHEM_IUPAC_SYSTEMATIC_NAME>
1-[4-[2-[bis(4-fluorophenyl)methylsulfanyl]ethylamino]piperidin-1-yl]-2,2-dimethyl-propan-1-one

> <PUBCHEM_IUPAC_TRADITIONAL_NAME>
1-[4-[2-[bis(4-fluorophenyl)methylthio]ethylamino]piperidino]-2,2-dimethyl-propan-1-one

> <PUBCHEM_IUPAC_INCHI>
InChI=1S/C25H32F2N2OS/c1-25(2,3)24(30)29-15-12-22(13-16-29)28-14-17-31-23(18-4-8-20(26)9-5-18)19-6-10-21(27)11-7-19/h4-11,22-23,28H,12-17H2,1-3H3

> <PUBCHEM_IUPAC_INCHIKEY>
JJISSBKYYCWHFH-UHFFFAOYSA-N

> <PUBCHEM_XLOGP3_AA>
5.3

> <PUBCHEM_EXACT_MASS>
446.22034115

> <PUBCHEM_MOLECULAR_FORMULA>
C25H32F2N2OS

> <PUBCHEM_MOLECULAR_WEIGHT>
446.6

> <PUBCHEM_OPENEYE_CAN_SMILES>
CC(C)(C)C(=O)N1CCC(CC1)NCCSC(C2=CC=C(C=C2)F)C3=CC=C(C=C3)F

> <PUBCHEM_OPENEYE_ISO_SMILES>
CC(C)(C)C(=O)N1CCC(CC1)NCCSC(C2=CC=C(C=C2)F)C3=CC=C(C=C3)F

> <PUBCHEM_CACTVS_TPSA>
57.6

> <PUBCHEM_MONOISOTOPIC_WEIGHT>
446.22034115

> <PUBCHEM_TOTAL_CHARGE>
0

> <PUBCHEM_HEAVY_ATOM_COUNT>
31

> <PUBCHEM_ATOM_DEF_STEREO_COUNT>
0

> <PUBCHEM_ATOM_UDEF_STEREO_COUNT>
0

> <PUBCHEM_BOND_DEF_STEREO_COUNT>
0

> <PUBCHEM_BOND_UDEF_STEREO_COUNT>
0

> <PUBCHEM_ISOTOPIC_ATOM_COUNT>
0

> <PUBCHEM_COMPONENT_COUNT>
1

> <PUBCHEM_CACTVS_TAUTO_COUNT>
-1

> <PUBCHEM_COORDINATE_TYPE>
1
5
255

> <PUBCHEM_BONDANNOTATIONS>
20  22  8
20  24  8
21  23  8
21  25  8
22  26  8
23  27  8
24  28  8
25  29  8
26  30  8
27  31  8
28  30  8
29  31  8

$$$$
