44415625
  -OEChem-09292322282D

 56 60  0     0  0  0  0  0  0999 V2000
    2.0000    1.1798    0.0000 Cl  0  0  0  0  0  0  0  0  0  0  0  0
    4.9714   -2.6473    0.0000 F   0  0  0  0  0  0  0  0  0  0  0  0
    4.9714   -4.6473    0.0000 F   0  0  0  0  0  0  0  0  0  0  0  0
    8.4355   -4.6473    0.0000 F   0  0  0  0  0  0  0  0  0  0  0  0
    6.7034   -5.6473    0.0000 F   0  0  0  0  0  0  0  0  0  0  0  0
    7.5695   -1.1473    0.0000 O   0  0  0  0  0  0  0  0  0  0  0  0
    4.9036    2.9444    0.0000 N   0  0  0  0  0  0  0  0  0  0  0  0
    4.0358    4.7463    0.0000 N   0  0  0  0  0  0  0  0  0  0  0  0
    5.8374   -0.1473    0.0000 N   0  0  0  0  0  0  0  0  0  0  0  0
    6.3374    2.0434    0.0000 N   0  0  0  0  0  0  0  0  0  0  0  0
    5.8374   -1.1473    0.0000 N   0  0  0  0  0  0  0  0  0  0  0  0
    5.4669    3.7706    0.0000 C   0  0  0  0  0  0  0  0  0  0  0  0
    3.9064    3.0191    0.0000 C   0  0  0  0  0  0  0  0  0  0  0  0
    5.0330    4.6716    0.0000 C   0  0  0  0  0  0  0  0  0  0  0  0
    3.4725    3.9201    0.0000 C   0  0  0  0  0  0  0  0  0  0  0  0
    5.3374    2.0434    0.0000 C   0  0  0  0  0  0  0  0  0  0  0  0
    4.7139    1.2616    0.0000 C   0  0  0  0  0  0  0  0  0  0  0  0
    3.6019    5.6473    0.0000 C   0  0  0  0  0  0  0  0  0  0  0  0
    4.9364    0.2866    0.0000 C   0  0  0  0  0  0  0  0  0  0  0  0
    6.7384    0.2866    0.0000 C   0  0  0  0  0  0  0  0  0  0  0  0
    6.9609    1.2615    0.0000 C   0  0  0  0  0  0  0  0  0  0  0  0
    3.7234    1.5839    0.0000 C   0  0  0  0  0  0  0  0  0  0  0  0
    4.1839   -0.4335    0.0000 C   0  0  0  0  0  0  0  0  0  0  0  0
    2.9544    0.8813    0.0000 C   0  0  0  0  0  0  0  0  0  0  0  0
    7.4909   -0.4336    0.0000 C   0  0  0  0  0  0  0  0  0  0  0  0
    7.9514    1.5839    0.0000 C   0  0  0  0  0  0  0  0  0  0  0  0
    3.1862   -0.1342    0.0000 C   0  0  0  0  0  0  0  0  0  0  0  0
    8.4886   -0.1342    0.0000 C   0  0  0  0  0  0  0  0  0  0  0  0
    8.7204    0.8813    0.0000 C   0  0  0  0  0  0  0  0  0  0  0  0
    6.7034   -1.6473    0.0000 C   0  0  0  0  0  0  0  0  0  0  0  0
    6.7034   -2.6473    0.0000 C   0  0  0  0  0  0  0  0  0  0  0  0
    5.8374   -3.1473    0.0000 C   0  0  0  0  0  0  0  0  0  0  0  0
    7.5694   -3.1473    0.0000 C   0  0  0  0  0  0  0  0  0  0  0  0
    5.8374   -4.1473    0.0000 C   0  0  0  0  0  0  0  0  0  0  0  0
    7.5694   -4.1473    0.0000 C   0  0  0  0  0  0  0  0  0  0  0  0
    6.7034   -4.6473    0.0000 C   0  0  0  0  0  0  0  0  0  0  0  0
    5.9107    3.3377    0.0000 H   0  0  0  0  0  0  0  0  0  0  0  0
    5.9703    4.1325    0.0000 H   0  0  0  0  0  0  0  0  0  0  0  0
    3.3095    2.8512    0.0000 H   0  0  0  0  0  0  0  0  0  0  0  0
    3.9681    2.4022    0.0000 H   0  0  0  0  0  0  0  0  0  0  0  0
    5.6298    4.8395    0.0000 H   0  0  0  0  0  0  0  0  0  0  0  0
    4.9713    5.2885    0.0000 H   0  0  0  0  0  0  0  0  0  0  0  0
    3.0286    4.3530    0.0000 H   0  0  0  0  0  0  0  0  0  0  0  0
    2.9691    3.5582    0.0000 H   0  0  0  0  0  0  0  0  0  0  0  0
    4.1605    5.9163    0.0000 H   0  0  0  0  0  0  0  0  0  0  0  0
    3.3329    6.2059    0.0000 H   0  0  0  0  0  0  0  0  0  0  0  0
    3.0433    5.3783    0.0000 H   0  0  0  0  0  0  0  0  0  0  0  0
    3.5925    2.1899    0.0000 H   0  0  0  0  0  0  0  0  0  0  0  0
    4.3288   -1.0364    0.0000 H   0  0  0  0  0  0  0  0  0  0  0  0
    7.3460   -1.0364    0.0000 H   0  0  0  0  0  0  0  0  0  0  0  0
    5.3005   -1.4573    0.0000 H   0  0  0  0  0  0  0  0  0  0  0  0
    8.0824    2.1899    0.0000 H   0  0  0  0  0  0  0  0  0  0  0  0
    2.7333   -0.5576    0.0000 H   0  0  0  0  0  0  0  0  0  0  0  0
    8.9415   -0.5577    0.0000 H   0  0  0  0  0  0  0  0  0  0  0  0
    9.3122    1.0663    0.0000 H   0  0  0  0  0  0  0  0  0  0  0  0
    8.1064   -2.8373    0.0000 H   0  0  0  0  0  0  0  0  0  0  0  0
  1 24  1  0  0  0  0
  2 32  1  0  0  0  0
  3 34  1  0  0  0  0
  4 35  1  0  0  0  0
  5 36  1  0  0  0  0
  6 30  2  0  0  0  0
  7 12  1  0  0  0  0
  7 13  1  0  0  0  0
  7 16  1  0  0  0  0
  8 14  1  0  0  0  0
  8 15  1  0  0  0  0
  8 18  1  0  0  0  0
  9 11  1  0  0  0  0
  9 19  1  0  0  0  0
  9 20  1  0  0  0  0
 10 16  2  0  0  0  0
 10 21  1  0  0  0  0
 11 30  1  0  0  0  0
 11 51  1  0  0  0  0
 12 14  1  0  0  0  0
 12 37  1  0  0  0  0
 12 38  1  0  0  0  0
 13 15  1  0  0  0  0
 13 39  1  0  0  0  0
 13 40  1  0  0  0  0
 14 41  1  0  0  0  0
 14 42  1  0  0  0  0
 15 43  1  0  0  0  0
 15 44  1  0  0  0  0
 16 17  1  0  0  0  0
 17 19  2  0  0  0  0
 17 22  1  0  0  0  0
 18 45  1  0  0  0  0
 18 46  1  0  0  0  0
 18 47  1  0  0  0  0
 19 23  1  0  0  0  0
 20 21  1  0  0  0  0
 20 25  2  0  0  0  0
 21 26  2  0  0  0  0
 22 24  2  0  0  0  0
 22 48  1  0  0  0  0
 23 27  2  0  0  0  0
 23 49  1  0  0  0  0
 24 27  1  0  0  0  0
 25 28  1  0  0  0  0
 25 50  1  0  0  0  0
 26 29  1  0  0  0  0
 26 52  1  0  0  0  0
 27 53  1  0  0  0  0
 28 29  2  0  0  0  0
 28 54  1  0  0  0  0
 29 55  1  0  0  0  0
 30 31  1  0  0  0  0
 31 32  1  0  0  0  0
 31 33  2  0  0  0  0
 32 34  2  0  0  0  0
 33 35  1  0  0  0  0
 33 56  1  0  0  0  0
 34 36  1  0  0  0  0
 35 36  2  0  0  0  0
M  END
> <PUBCHEM_COMPOUND_CID>
44415625

> <PUBCHEM_COMPOUND_CANONICALIZED>
1

> <PUBCHEM_CACTVS_COMPLEXITY>
830

> <PUBCHEM_CACTVS_HBOND_ACCEPTOR>
8

> <PUBCHEM_CACTVS_HBOND_DONOR>
1

> <PUBCHEM_CACTVS_ROTATABLE_BOND>
3

> <PUBCHEM_CACTVS_SUBSKEYS>
AAADceB7ocAEAAAAAAAAAAAAAAAAAAAAAAA8YMEABAAAAAABUAAAHwIYAAAADArBmCwzwINiAACoAidydACCBAElBwAbqAEodtgIYPLB35GUIQhggADIyYcYiACOAABAIAACACAAAIBAAAQAQAAAAAAAAA==

> <PUBCHEM_IUPAC_OPENEYE_NAME>
N-[8-chloro-6-(4-methylpiperazin-1-yl)benzo[b][1,4]benzodiazepin-11-yl]-2,3,4,5-tetrafluoro-benzamide

> <PUBCHEM_IUPAC_CAS_NAME>
N-[8-chloro-6-(4-methyl-1-piperazinyl)-11-benzo[b][1,4]benzodiazepinyl]-2,3,4,5-tetrafluorobenzamide

> <PUBCHEM_IUPAC_NAME_MARKUP>
<I>N</I>-[8-chloro-6-(4-methylpiperazin-1-yl)benzo[b][1,4]benzodiazepin-11-yl]-2,3,4,5-tetrafluorobenzamide

> <PUBCHEM_IUPAC_NAME>
N-[8-chloro-6-(4-methylpiperazin-1-yl)benzo[b][1,4]benzodiazepin-11-yl]-2,3,4,5-tetrafluorobenzamide

> <PUBCHEM_IUPAC_SYSTEMATIC_NAME>
N-[8-chloranyl-6-(4-methylpiperazin-1-yl)benzo[b][1,4]benzodiazepin-11-yl]-2,3,4,5-tetrakis(fluoranyl)benzamide

> <PUBCHEM_IUPAC_TRADITIONAL_NAME>
N-[8-chloro-6-(4-methylpiperazino)benzo[b][1,4]benzodiazepin-11-yl]-2,3,4,5-tetrafluoro-benzamide

> <PUBCHEM_IUPAC_INCHI>
InChI=1S/C25H20ClF4N5O/c1-33-8-10-34(11-9-33)24-15-12-14(26)6-7-19(15)35(20-5-3-2-4-18(20)31-24)32-25(36)16-13-17(27)22(29)23(30)21(16)28/h2-7,12-13H,8-11H2,1H3,(H,32,36)

> <PUBCHEM_IUPAC_INCHIKEY>
IYDUTHNIPZPIDW-UHFFFAOYSA-N

> <PUBCHEM_XLOGP3_AA>
4.8

> <PUBCHEM_EXACT_MASS>
517.1292506

> <PUBCHEM_MOLECULAR_FORMULA>
C25H20ClF4N5O

> <PUBCHEM_MOLECULAR_WEIGHT>
517.9

> <PUBCHEM_OPENEYE_CAN_SMILES>
CN1CCN(CC1)C2=NC3=CC=CC=C3N(C4=C2C=C(C=C4)Cl)NC(=O)C5=CC(=C(C(=C5F)F)F)F

> <PUBCHEM_OPENEYE_ISO_SMILES>
CN1CCN(CC1)C2=NC3=CC=CC=C3N(C4=C2C=C(C=C4)Cl)NC(=O)C5=CC(=C(C(=C5F)F)F)F

> <PUBCHEM_CACTVS_TPSA>
51.2

> <PUBCHEM_MONOISOTOPIC_WEIGHT>
517.1292506

> <PUBCHEM_TOTAL_CHARGE>
0

> <PUBCHEM_HEAVY_ATOM_COUNT>
36

> <PUBCHEM_ATOM_DEF_STEREO_COUNT>
0

> <PUBCHEM_ATOM_UDEF_STEREO_COUNT>
0

> <PUBCHEM_BOND_DEF_STEREO_COUNT>
0

> <PUBCHEM_BOND_UDEF_STEREO_COUNT>
0

> <PUBCHEM_ISOTOPIC_ATOM_COUNT>
0

> <PUBCHEM_COMPONENT_COUNT>
1

> <PUBCHEM_CACTVS_TAUTO_COUNT>
-1

> <PUBCHEM_COORDINATE_TYPE>
1
5
255

> <PUBCHEM_BONDANNOTATIONS>
17  19  8
17  22  8
19  23  8
20  21  8
20  25  8
21  26  8
22  24  8
23  27  8
24  27  8
25  28  8
26  29  8
28  29  8
31  32  8
31  33  8
32  34  8
33  35  8
34  36  8
35  36  8

$$$$
