118711259
  -OEChem-09292322472D

 45 47  0     1  0  0  0  0  0999 V2000
    7.8547    0.2638    0.0000 O   0  0  0  0  0  0  0  0  0  0  0  0
    6.9829   -3.2812    0.0000 O   0  0  0  0  0  0  0  0  0  0  0  0
    3.0000   -0.7604    0.0000 N   0  0  3  0  0  0  0  0  0  0  0  0
    7.8547   -1.7846    0.0000 N   0  0  0  0  0  0  0  0  0  0  0  0
    4.4088    0.3631    0.0000 C   0  0  3  0  0  0  0  0  0  0  0  0
    3.4339    0.1406    0.0000 C   0  0  0  0  0  0  0  0  0  0  0  0
    5.1906   -0.2604    0.0000 C   0  0  0  0  0  0  0  0  0  0  0  0
    5.1906   -1.2604    0.0000 C   0  0  0  0  0  0  0  0  0  0  0  0
    3.4339   -1.6614    0.0000 C   0  0  0  0  0  0  0  0  0  0  0  0
    4.4088   -1.8839    0.0000 C   0  0  0  0  0  0  0  0  0  0  0  0
    4.6313    1.3380    0.0000 C   0  0  0  0  0  0  0  0  0  0  0  0
    6.0846    0.2743    0.0000 C   0  0  0  0  0  0  0  0  0  0  0  0
    6.0846   -1.7951    0.0000 C   0  0  0  0  0  0  0  0  0  0  0  0
    2.0000   -0.7604    0.0000 C   0  0  0  0  0  0  0  0  0  0  0  0
    6.9906   -1.2812    0.0000 C   0  0  0  0  0  0  0  0  0  0  0  0
    6.9906   -0.2396    0.0000 C   0  0  0  0  0  0  0  0  0  0  0  0
    5.5869    1.6328    0.0000 C   0  0  0  0  0  0  0  0  0  0  0  0
    3.8983    2.0182    0.0000 C   0  0  0  0  0  0  0  0  0  0  0  0
    5.8094    2.6077    0.0000 C   0  0  0  0  0  0  0  0  0  0  0  0
    4.1208    2.9931    0.0000 C   0  0  0  0  0  0  0  0  0  0  0  0
    5.0764    3.2879    0.0000 C   0  0  0  0  0  0  0  0  0  0  0  0
    7.8509   -2.7845    0.0000 C   0  0  0  0  0  0  0  0  0  0  0  0
    8.7150   -3.2879    0.0000 C   0  0  0  0  0  0  0  0  0  0  0  0
    3.9704    0.8015    0.0000 H   0  0  0  0  0  0  0  0  0  0  0  0
    3.4339    0.7606    0.0000 H   0  0  0  0  0  0  0  0  0  0  0  0
    2.8294    0.2785    0.0000 H   0  0  0  0  0  0  0  0  0  0  0  0
    2.8294   -1.7993    0.0000 H   0  0  0  0  0  0  0  0  0  0  0  0
    3.4339   -2.2814    0.0000 H   0  0  0  0  0  0  0  0  0  0  0  0
    4.1398   -2.4425    0.0000 H   0  0  0  0  0  0  0  0  0  0  0  0
    4.8936   -2.2704    0.0000 H   0  0  0  0  0  0  0  0  0  0  0  0
    6.0774    0.8942    0.0000 H   0  0  0  0  0  0  0  0  0  0  0  0
    6.0774   -2.4150    0.0000 H   0  0  0  0  0  0  0  0  0  0  0  0
    2.0000   -0.1404    0.0000 H   0  0  0  0  0  0  0  0  0  0  0  0
    1.3800   -0.7604    0.0000 H   0  0  0  0  0  0  0  0  0  0  0  0
    2.0000   -1.3804    0.0000 H   0  0  0  0  0  0  0  0  0  0  0  0
    6.0414    1.2111    0.0000 H   0  0  0  0  0  0  0  0  0  0  0  0
    3.3058    1.8354    0.0000 H   0  0  0  0  0  0  0  0  0  0  0  0
    6.4019    2.7904    0.0000 H   0  0  0  0  0  0  0  0  0  0  0  0
    3.6663    3.4148    0.0000 H   0  0  0  0  0  0  0  0  0  0  0  0
    8.3929   -1.4766    0.0000 H   0  0  0  0  0  0  0  0  0  0  0  0
    5.2143    3.8923    0.0000 H   0  0  0  0  0  0  0  0  0  0  0  0
    7.8524    0.8837    0.0000 H   0  0  0  0  0  0  0  0  0  0  0  0
    8.4029   -3.8236    0.0000 H   0  0  0  0  0  0  0  0  0  0  0  0
    9.2507   -3.5999    0.0000 H   0  0  0  0  0  0  0  0  0  0  0  0
    9.0270   -2.7521    0.0000 H   0  0  0  0  0  0  0  0  0  0  0  0
  1 16  1  0  0  0  0
  1 42  1  0  0  0  0
  2 22  2  0  0  0  0
  3  6  1  0  0  0  0
  3  9  1  0  0  0  0
  3 14  1  0  0  0  0
  4 15  1  0  0  0  0
  4 22  1  0  0  0  0
  4 40  1  0  0  0  0
  5  6  1  0  0  0  0
  5  7  1  0  0  0  0
  5 11  1  0  0  0  0
  5 24  1  0  0  0  0
  6 25  1  0  0  0  0
  6 26  1  0  0  0  0
  7  8  1  0  0  0  0
  7 12  2  0  0  0  0
  8 10  1  0  0  0  0
  8 13  2  0  0  0  0
  9 10  1  0  0  0  0
  9 27  1  0  0  0  0
  9 28  1  0  0  0  0
 10 29  1  0  0  0  0
 10 30  1  0  0  0  0
 11 17  2  0  0  0  0
 11 18  1  0  0  0  0
 12 16  1  0  0  0  0
 12 31  1  0  0  0  0
 13 15  1  0  0  0  0
 13 32  1  0  0  0  0
 14 33  1  0  0  0  0
 14 34  1  0  0  0  0
 14 35  1  0  0  0  0
 15 16  2  0  0  0  0
 17 19  1  0  0  0  0
 17 36  1  0  0  0  0
 18 20  2  0  0  0  0
 18 37  1  0  0  0  0
 19 21  2  0  0  0  0
 19 38  1  0  0  0  0
 20 21  1  0  0  0  0
 20 39  1  0  0  0  0
 21 41  1  0  0  0  0
 22 23  1  0  0  0  0
 23 43  1  0  0  0  0
 23 44  1  0  0  0  0
 23 45  1  0  0  0  0
M  END
> <PUBCHEM_COMPOUND_CID>
118711259

> <PUBCHEM_COMPOUND_CANONICALIZED>
1

> <PUBCHEM_CACTVS_COMPLEXITY>
408

> <PUBCHEM_CACTVS_HBOND_ACCEPTOR>
3

> <PUBCHEM_CACTVS_HBOND_DONOR>
2

> <PUBCHEM_CACTVS_ROTATABLE_BOND>
2

> <PUBCHEM_CACTVS_SUBSKEYS>
AAADceB7MAAAAAAAAAAAAAAAAAAAAAAAAAAwYAAABYAAAAABQAAAHgAQCAAADQzBmAQyxoPAAgCIAiVSUACCAAAhIgAIiAAPbIgKJiLSkZOEcAhk1BHY2AeQ0PIOqAABQAAQEABQAAKAACAgAAAAAAAAAA==

> <PUBCHEM_IUPAC_OPENEYE_NAME>
N-(7-hydroxy-3-methyl-5-phenyl-1,2,4,5-tetrahydro-3-benzazepin-8-yl)acetamide

> <PUBCHEM_IUPAC_CAS_NAME>
N-(7-hydroxy-3-methyl-5-phenyl-1,2,4,5-tetrahydro-3-benzazepin-8-yl)acetamide

> <PUBCHEM_IUPAC_NAME_MARKUP>
<I>N</I>-(7-hydroxy-3-methyl-5-phenyl-1,2,4,5-tetrahydro-3-benzazepin-8-yl)acetamide

> <PUBCHEM_IUPAC_NAME>
N-(7-hydroxy-3-methyl-5-phenyl-1,2,4,5-tetrahydro-3-benzazepin-8-yl)acetamide

> <PUBCHEM_IUPAC_SYSTEMATIC_NAME>
N-(3-methyl-7-oxidanyl-5-phenyl-1,2,4,5-tetrahydro-3-benzazepin-8-yl)ethanamide

> <PUBCHEM_IUPAC_TRADITIONAL_NAME>
N-(7-hydroxy-3-methyl-5-phenyl-1,2,4,5-tetrahydro-3-benzazepin-8-yl)acetamide

> <PUBCHEM_IUPAC_INCHI>
InChI=1S/C19H22N2O2/c1-13(22)20-18-10-15-8-9-21(2)12-17(16(15)11-19(18)23)14-6-4-3-5-7-14/h3-7,10-11,17,23H,8-9,12H2,1-2H3,(H,20,22)

> <PUBCHEM_IUPAC_INCHIKEY>
ZAWHSSDPGDMUJG-UHFFFAOYSA-N

> <PUBCHEM_XLOGP3_AA>
2.5

> <PUBCHEM_EXACT_MASS>
310.168127949

> <PUBCHEM_MOLECULAR_FORMULA>
C19H22N2O2

> <PUBCHEM_MOLECULAR_WEIGHT>
310.4

> <PUBCHEM_OPENEYE_CAN_SMILES>
CC(=O)NC1=C(C=C2C(CN(CCC2=C1)C)C3=CC=CC=C3)O

> <PUBCHEM_OPENEYE_ISO_SMILES>
CC(=O)NC1=C(C=C2C(CN(CCC2=C1)C)C3=CC=CC=C3)O

> <PUBCHEM_CACTVS_TPSA>
52.6

> <PUBCHEM_MONOISOTOPIC_WEIGHT>
310.168127949

> <PUBCHEM_TOTAL_CHARGE>
0

> <PUBCHEM_HEAVY_ATOM_COUNT>
23

> <PUBCHEM_ATOM_DEF_STEREO_COUNT>
0

> <PUBCHEM_ATOM_UDEF_STEREO_COUNT>
1

> <PUBCHEM_BOND_DEF_STEREO_COUNT>
0

> <PUBCHEM_BOND_UDEF_STEREO_COUNT>
0

> <PUBCHEM_ISOTOPIC_ATOM_COUNT>
0

> <PUBCHEM_COMPONENT_COUNT>
1

> <PUBCHEM_CACTVS_TAUTO_COUNT>
-1

> <PUBCHEM_COORDINATE_TYPE>
1
5
255

> <PUBCHEM_BONDANNOTATIONS>
11  17  8
11  18  8
12  16  8
13  15  8
15  16  8
17  19  8
18  20  8
19  21  8
20  21  8
5  11  3
7  12  8
7  8  8
8  13  8

$$$$
