408648
  -OEChem-09292322452D

 49 50  0     0  0  0  0  0  0999 V2000
    6.5000    0.8660    0.0000 O   0  0  0  0  0  0  0  0  0  0  0  0
    2.5000    0.8660    0.0000 N   0  0  0  0  0  0  0  0  0  0  0  0
    6.9397   -0.3420    0.0000 N   0  0  0  0  0  0  0  0  0  0  0  0
    5.0000    0.0000    0.0000 C   0  0  0  0  0  0  0  0  0  0  0  0
    4.0000    0.0000    0.0000 C   0  0  0  0  0  0  0  0  0  0  0  0
    5.0000   -1.0000    0.0000 C   0  0  0  0  0  0  0  0  0  0  0  0
    5.0000    1.0000    0.0000 C   0  0  0  0  0  0  0  0  0  0  0  0
    3.5000    0.8660    0.0000 C   0  0  0  0  0  0  0  0  0  0  0  0
    6.0000    0.0000    0.0000 C   0  0  0  0  0  0  0  0  0  0  0  0
    4.1340   -1.5000    0.0000 C   0  0  0  0  0  0  0  0  0  0  0  0
    4.1340    1.5000    0.0000 C   0  0  0  0  0  0  0  0  0  0  0  0
    5.8660   -1.5000    0.0000 C   0  0  0  0  0  0  0  0  0  0  0  0
    5.8660    1.5000    0.0000 C   0  0  0  0  0  0  0  0  0  0  0  0
    2.0000    1.7320    0.0000 C   0  0  0  0  0  0  0  0  0  0  0  0
    2.0000    0.0000    0.0000 C   0  0  0  0  0  0  0  0  0  0  0  0
    4.1340   -2.5000    0.0000 C   0  0  0  0  0  0  0  0  0  0  0  0
    4.1340    2.5000    0.0000 C   0  0  0  0  0  0  0  0  0  0  0  0
    5.8660   -2.5000    0.0000 C   0  0  0  0  0  0  0  0  0  0  0  0
    5.8660    2.5000    0.0000 C   0  0  0  0  0  0  0  0  0  0  0  0
    7.7057    0.3008    0.0000 C   0  0  0  0  0  0  0  0  0  0  0  0
    7.1134   -1.3268    0.0000 C   0  0  0  0  0  0  0  0  0  0  0  0
    5.0000   -3.0000    0.0000 C   0  0  0  0  0  0  0  0  0  0  0  0
    5.0000    3.0000    0.0000 C   0  0  0  0  0  0  0  0  0  0  0  0
    3.4174   -0.2121    0.0000 H   0  0  0  0  0  0  0  0  0  0  0  0
    4.1077   -0.6106    0.0000 H   0  0  0  0  0  0  0  0  0  0  0  0
    4.0826    1.0781    0.0000 H   0  0  0  0  0  0  0  0  0  0  0  0
    3.3923    1.4766    0.0000 H   0  0  0  0  0  0  0  0  0  0  0  0
    3.5970   -1.1900    0.0000 H   0  0  0  0  0  0  0  0  0  0  0  0
    3.5970    1.1900    0.0000 H   0  0  0  0  0  0  0  0  0  0  0  0
    6.4030   -1.1900    0.0000 H   0  0  0  0  0  0  0  0  0  0  0  0
    6.4030    1.1900    0.0000 H   0  0  0  0  0  0  0  0  0  0  0  0
    2.5369    2.0420    0.0000 H   0  0  0  0  0  0  0  0  0  0  0  0
    1.6900    2.2690    0.0000 H   0  0  0  0  0  0  0  0  0  0  0  0
    1.4631    1.4220    0.0000 H   0  0  0  0  0  0  0  0  0  0  0  0
    1.4631    0.3100    0.0000 H   0  0  0  0  0  0  0  0  0  0  0  0
    1.6900   -0.5369    0.0000 H   0  0  0  0  0  0  0  0  0  0  0  0
    2.5369   -0.3100    0.0000 H   0  0  0  0  0  0  0  0  0  0  0  0
    3.5970   -2.8100    0.0000 H   0  0  0  0  0  0  0  0  0  0  0  0
    3.5970    2.8100    0.0000 H   0  0  0  0  0  0  0  0  0  0  0  0
    6.4030   -2.8100    0.0000 H   0  0  0  0  0  0  0  0  0  0  0  0
    6.4030    2.8100    0.0000 H   0  0  0  0  0  0  0  0  0  0  0  0
    8.1043   -0.1742    0.0000 H   0  0  0  0  0  0  0  0  0  0  0  0
    8.1807    0.6993    0.0000 H   0  0  0  0  0  0  0  0  0  0  0  0
    7.3072    0.7757    0.0000 H   0  0  0  0  0  0  0  0  0  0  0  0
    6.5028   -1.4345    0.0000 H   0  0  0  0  0  0  0  0  0  0  0  0
    7.2211   -1.9373    0.0000 H   0  0  0  0  0  0  0  0  0  0  0  0
    7.7240   -1.2190    0.0000 H   0  0  0  0  0  0  0  0  0  0  0  0
    5.0000   -3.6200    0.0000 H   0  0  0  0  0  0  0  0  0  0  0  0
    5.0000    3.6200    0.0000 H   0  0  0  0  0  0  0  0  0  0  0  0
  1  9  2  0  0  0  0
  2  8  1  0  0  0  0
  2 14  1  0  0  0  0
  2 15  1  0  0  0  0
  3  9  1  0  0  0  0
  3 20  1  0  0  0  0
  3 21  1  0  0  0  0
  4  5  1  0  0  0  0
  4  6  1  0  0  0  0
  4  7  1  0  0  0  0
  4  9  1  0  0  0  0
  5  8  1  0  0  0  0
  5 24  1  0  0  0  0
  5 25  1  0  0  0  0
  6 10  2  0  0  0  0
  6 12  1  0  0  0  0
  7 11  2  0  0  0  0
  7 13  1  0  0  0  0
  8 26  1  0  0  0  0
  8 27  1  0  0  0  0
 10 16  1  0  0  0  0
 10 28  1  0  0  0  0
 11 17  1  0  0  0  0
 11 29  1  0  0  0  0
 12 18  2  0  0  0  0
 12 30  1  0  0  0  0
 13 19  2  0  0  0  0
 13 31  1  0  0  0  0
 14 32  1  0  0  0  0
 14 33  1  0  0  0  0
 14 34  1  0  0  0  0
 15 35  1  0  0  0  0
 15 36  1  0  0  0  0
 15 37  1  0  0  0  0
 16 22  2  0  0  0  0
 16 38  1  0  0  0  0
 17 23  2  0  0  0  0
 17 39  1  0  0  0  0
 18 22  1  0  0  0  0
 18 40  1  0  0  0  0
 19 23  1  0  0  0  0
 19 41  1  0  0  0  0
 20 42  1  0  0  0  0
 20 43  1  0  0  0  0
 20 44  1  0  0  0  0
 21 45  1  0  0  0  0
 21 46  1  0  0  0  0
 21 47  1  0  0  0  0
 22 48  1  0  0  0  0
 23 49  1  0  0  0  0
M  END
> <PUBCHEM_COMPOUND_CID>
408648

> <PUBCHEM_COMPOUND_CANONICALIZED>
1

> <PUBCHEM_CACTVS_COMPLEXITY>
348

> <PUBCHEM_CACTVS_HBOND_ACCEPTOR>
2

> <PUBCHEM_CACTVS_HBOND_DONOR>
0

> <PUBCHEM_CACTVS_ROTATABLE_BOND>
6

> <PUBCHEM_CACTVS_SUBSKEYS>
AAADceB7IAAAAAAAAAAAAAAAAAAAAAAAAAAwYAAAAAAAAAABQAAAHgAAAAAADgDBmAQyAIMAAACIAiFSEAACAAAgAAAIiAEIAIgIIDKAlRGEIAAgggAIiAcciMCPgAAAAAAAAAAAAAAAAAAAAAAAAAAAAA==

> <PUBCHEM_IUPAC_OPENEYE_NAME>
4-(dimethylamino)-N,N-dimethyl-2,2-diphenyl-butanamide

> <PUBCHEM_IUPAC_CAS_NAME>
4-(dimethylamino)-N,N-dimethyl-2,2-diphenylbutanamide

> <PUBCHEM_IUPAC_NAME_MARKUP>
4-(dimethylamino)-<I>N</I>,<I>N</I>-dimethyl-2,2-diphenylbutanamide

> <PUBCHEM_IUPAC_NAME>
4-(dimethylamino)-N,N-dimethyl-2,2-diphenylbutanamide

> <PUBCHEM_IUPAC_SYSTEMATIC_NAME>
4-(dimethylamino)-N,N-dimethyl-2,2-diphenyl-butanamide

> <PUBCHEM_IUPAC_TRADITIONAL_NAME>
4-(dimethylamino)-N,N-dimethyl-2,2-diphenyl-butyramide

> <PUBCHEM_IUPAC_INCHI>
InChI=1S/C20H26N2O/c1-21(2)16-15-20(19(23)22(3)4,17-11-7-5-8-12-17)18-13-9-6-10-14-18/h5-14H,15-16H2,1-4H3

> <PUBCHEM_IUPAC_INCHIKEY>
PCDNISCTQCOCTC-UHFFFAOYSA-N

> <PUBCHEM_XLOGP3_AA>
3.2

> <PUBCHEM_EXACT_MASS>
310.204513457

> <PUBCHEM_MOLECULAR_FORMULA>
C20H26N2O

> <PUBCHEM_MOLECULAR_WEIGHT>
310.4

> <PUBCHEM_OPENEYE_CAN_SMILES>
CN(C)CCC(C1=CC=CC=C1)(C2=CC=CC=C2)C(=O)N(C)C

> <PUBCHEM_OPENEYE_ISO_SMILES>
CN(C)CCC(C1=CC=CC=C1)(C2=CC=CC=C2)C(=O)N(C)C

> <PUBCHEM_CACTVS_TPSA>
23.6

> <PUBCHEM_MONOISOTOPIC_WEIGHT>
310.204513457

> <PUBCHEM_TOTAL_CHARGE>
0

> <PUBCHEM_HEAVY_ATOM_COUNT>
23

> <PUBCHEM_ATOM_DEF_STEREO_COUNT>
0

> <PUBCHEM_ATOM_UDEF_STEREO_COUNT>
0

> <PUBCHEM_BOND_DEF_STEREO_COUNT>
0

> <PUBCHEM_BOND_UDEF_STEREO_COUNT>
0

> <PUBCHEM_ISOTOPIC_ATOM_COUNT>
0

> <PUBCHEM_COMPONENT_COUNT>
1

> <PUBCHEM_CACTVS_TAUTO_COUNT>
-1

> <PUBCHEM_COORDINATE_TYPE>
1
5
255

> <PUBCHEM_BONDANNOTATIONS>
10  16  8
11  17  8
12  18  8
13  19  8
16  22  8
17  23  8
18  22  8
19  23  8
6  10  8
6  12  8
7  11  8
7  13  8

$$$$
