44439945
  -OEChem-09292322262D

 45 48  0     1  0  0  0  0  0999 V2000
    2.0000    2.8804    0.0000 O   0  0  0  0  0  0  0  0  0  0  0  0
    6.3961    1.3563    0.0000 N   0  0  3  0  0  0  0  0  0  0  0  0
    4.7931   -0.8108    0.0000 N   0  0  0  0  0  0  0  0  0  0  0  0
    6.3961   -0.6437    0.0000 C   0  0  0  0  0  0  0  0  0  0  0  0
    5.5301   -0.1437    0.0000 C   0  0  0  0  0  0  0  0  0  0  0  0
    7.2622   -0.1437    0.0000 C   0  0  0  0  0  0  0  0  0  0  0  0
    7.2622    0.8563    0.0000 C   0  0  0  0  0  0  0  0  0  0  0  0
    5.5301    0.8563    0.0000 C   0  0  0  0  0  0  0  0  0  0  0  0
    6.1870   -1.6155    0.0000 C   0  0  0  0  0  0  0  0  0  0  0  0
    6.3961    2.3563    0.0000 C   0  0  0  0  0  0  0  0  0  0  0  0
    5.5301    2.8563    0.0000 C   0  0  0  0  0  0  0  0  0  0  0  0
    4.6641    1.3563    0.0000 C   0  0  0  0  0  0  0  0  0  0  0  0
    4.6641    2.3563    0.0000 C   0  0  0  0  0  0  0  0  0  0  0  0
    5.1982   -1.7186    0.0000 C   0  0  0  0  0  0  0  0  0  0  0  0
    6.8077   -2.4443    0.0000 C   0  0  0  0  0  0  0  0  0  0  0  0
    5.5301    1.8563    0.0000 C   0  0  0  0  0  0  0  0  0  0  0  0
    3.7702    0.8216    0.0000 C   0  0  0  0  0  0  0  0  0  0  0  0
    3.7702    2.8910    0.0000 C   0  0  0  0  0  0  0  0  0  0  0  0
    4.7617   -2.6575    0.0000 C   0  0  0  0  0  0  0  0  0  0  0  0
    2.8641    2.3771    0.0000 C   0  0  0  0  0  0  0  0  0  0  0  0
    6.3930   -3.3931    0.0000 C   0  0  0  0  0  0  0  0  0  0  0  0
    2.8641    1.3355    0.0000 C   0  0  0  0  0  0  0  0  0  0  0  0
    5.3631   -3.5004    0.0000 C   0  0  0  0  0  0  0  0  0  0  0  0
    7.4742   -0.7263    0.0000 H   0  0  0  0  0  0  0  0  0  0  0  0
    7.8728   -0.0360    0.0000 H   0  0  0  0  0  0  0  0  0  0  0  0
    7.8728    0.7486    0.0000 H   0  0  0  0  0  0  0  0  0  0  0  0
    7.4742    1.4389    0.0000 H   0  0  0  0  0  0  0  0  0  0  0  0
    6.1407    0.7486    0.0000 H   0  0  0  0  0  0  0  0  0  0  0  0
    5.7422    1.4389    0.0000 H   0  0  0  0  0  0  0  0  0  0  0  0
    7.0067    2.2486    0.0000 H   0  0  0  0  0  0  0  0  0  0  0  0
    6.6082    2.9389    0.0000 H   0  0  0  0  0  0  0  0  0  0  0  0
    5.9286    3.3312    0.0000 H   0  0  0  0  0  0  0  0  0  0  0  0
    5.1316    3.3312    0.0000 H   0  0  0  0  0  0  0  0  0  0  0  0
    4.1864   -0.6829    0.0000 H   0  0  0  0  0  0  0  0  0  0  0  0
    7.4236   -2.3729    0.0000 H   0  0  0  0  0  0  0  0  0  0  0  0
    5.8402    2.3932    0.0000 H   0  0  0  0  0  0  0  0  0  0  0  0
    4.9932    2.1663    0.0000 H   0  0  0  0  0  0  0  0  0  0  0  0
    5.2201    1.3194    0.0000 H   0  0  0  0  0  0  0  0  0  0  0  0
    3.7773    0.2017    0.0000 H   0  0  0  0  0  0  0  0  0  0  0  0
    3.7773    3.5109    0.0000 H   0  0  0  0  0  0  0  0  0  0  0  0
    4.1444   -2.7147    0.0000 H   0  0  0  0  0  0  0  0  0  0  0  0
    2.3284    1.0234    0.0000 H   0  0  0  0  0  0  0  0  0  0  0  0
    6.7590   -3.8936    0.0000 H   0  0  0  0  0  0  0  0  0  0  0  0
    5.1083   -4.0656    0.0000 H   0  0  0  0  0  0  0  0  0  0  0  0
    2.0024    3.5004    0.0000 H   0  0  0  0  0  0  0  0  0  0  0  0
  1 20  1  0  0  0  0
  1 45  1  0  0  0  0
  2  7  1  0  0  0  0
  2 10  1  0  0  0  0
  2 16  1  0  0  0  0
  3  5  1  0  0  0  0
  3 14  1  0  0  0  0
  3 34  1  0  0  0  0
  4  5  2  0  0  0  0
  4  6  1  0  0  0  0
  4  9  1  0  0  0  0
  5  8  1  0  0  0  0
  6  7  1  0  0  0  0
  6 24  1  0  0  0  0
  6 25  1  0  0  0  0
  7 26  1  0  0  0  0
  7 27  1  0  0  0  0
  8 12  1  0  0  0  0
  8 28  1  0  0  0  0
  8 29  1  0  0  0  0
  9 14  1  0  0  0  0
  9 15  2  0  0  0  0
 10 11  1  0  0  0  0
 10 30  1  0  0  0  0
 10 31  1  0  0  0  0
 11 13  1  0  0  0  0
 11 32  1  0  0  0  0
 11 33  1  0  0  0  0
 12 13  2  0  0  0  0
 12 17  1  0  0  0  0
 13 18  1  0  0  0  0
 14 19  2  0  0  0  0
 15 21  1  0  0  0  0
 15 35  1  0  0  0  0
 16 36  1  0  0  0  0
 16 37  1  0  0  0  0
 16 38  1  0  0  0  0
 17 22  2  0  0  0  0
 17 39  1  0  0  0  0
 18 20  2  0  0  0  0
 18 40  1  0  0  0  0
 19 23  1  0  0  0  0
 19 41  1  0  0  0  0
 20 22  1  0  0  0  0
 21 23  2  0  0  0  0
 21 43  1  0  0  0  0
 22 42  1  0  0  0  0
 23 44  1  0  0  0  0
M  END
> <PUBCHEM_COMPOUND_CID>
44439945

> <PUBCHEM_COMPOUND_CANONICALIZED>
1

> <PUBCHEM_CACTVS_COMPLEXITY>
401

> <PUBCHEM_CACTVS_HBOND_ACCEPTOR>
2

> <PUBCHEM_CACTVS_HBOND_DONOR>
2

> <PUBCHEM_CACTVS_ROTATABLE_BOND>
0

> <PUBCHEM_CACTVS_SUBSKEYS>
AAADceB7IAAAAAAAAAAAAAAAAAAAAWAAAAAwYAAAAAAAAFix9AAAHgAQCAAADAzBngQyxvPJkgCgAyRiRACCgCAhIiAImSA+bJgIJuLCkZOEcAhk0BHI2AeQ0PIOoAABAAASAABAAAIAACQAAAAAAAAAAA==

> <PUBCHEM_IUPAC_OPENEYE_NAME>
11-methyl-11,21-diazatetracyclo[12.7.0.03,8.015,20]henicosa-1(14),3(8),4,6,15,17,19-heptaen-6-ol

> <PUBCHEM_IUPAC_CAS_NAME>
11-methyl-11,21-diazatetracyclo[12.7.0.03,8.015,20]heneicosa-1(14),3(8),4,6,15,17,19-heptaen-6-ol

> <PUBCHEM_IUPAC_NAME_MARKUP>
11-methyl-11,21-diazatetracyclo[12.7.0.0<SUP>3,8</SUP>.0<SUP>15,20</SUP>]henicosa-1(14),3(8),4,6,15,17,19-heptaen-6-ol

> <PUBCHEM_IUPAC_NAME>
11-methyl-11,21-diazatetracyclo[12.7.0.03,8.015,20]henicosa-1(14),3(8),4,6,15,17,19-heptaen-6-ol

> <PUBCHEM_IUPAC_SYSTEMATIC_NAME>
11-methyl-11,21-diazatetracyclo[12.7.0.03,8.015,20]henicosa-1(14),3(8),4,6,15,17,19-heptaen-6-ol

> <PUBCHEM_IUPAC_TRADITIONAL_NAME>
11-methyl-11,21-diazatetracyclo[12.7.0.03,8.015,20]heneicosa-1(14),3(8),4,6,15,17,19-heptaen-6-ol

> <PUBCHEM_IUPAC_INCHI>
InChI=1S/C20H22N2O/c1-22-10-8-15-12-16(23)7-6-14(15)13-20-18(9-11-22)17-4-2-3-5-19(17)21-20/h2-7,12,21,23H,8-11,13H2,1H3

> <PUBCHEM_IUPAC_INCHIKEY>
LXEDLNSPOBVDQV-UHFFFAOYSA-N

> <PUBCHEM_XLOGP3_AA>
4

> <PUBCHEM_EXACT_MASS>
306.173213330

> <PUBCHEM_MOLECULAR_FORMULA>
C20H22N2O

> <PUBCHEM_MOLECULAR_WEIGHT>
306.4

> <PUBCHEM_OPENEYE_CAN_SMILES>
CN1CCC2=C(CC3=C(CC1)C4=CC=CC=C4N3)C=CC(=C2)O

> <PUBCHEM_OPENEYE_ISO_SMILES>
CN1CCC2=C(CC3=C(CC1)C4=CC=CC=C4N3)C=CC(=C2)O

> <PUBCHEM_CACTVS_TPSA>
39.3

> <PUBCHEM_MONOISOTOPIC_WEIGHT>
306.173213330

> <PUBCHEM_TOTAL_CHARGE>
0

> <PUBCHEM_HEAVY_ATOM_COUNT>
23

> <PUBCHEM_ATOM_DEF_STEREO_COUNT>
0

> <PUBCHEM_ATOM_UDEF_STEREO_COUNT>
0

> <PUBCHEM_BOND_DEF_STEREO_COUNT>
0

> <PUBCHEM_BOND_UDEF_STEREO_COUNT>
0

> <PUBCHEM_ISOTOPIC_ATOM_COUNT>
0

> <PUBCHEM_COMPONENT_COUNT>
1

> <PUBCHEM_CACTVS_TAUTO_COUNT>
-1

> <PUBCHEM_COORDINATE_TYPE>
1
5
255

> <PUBCHEM_BONDANNOTATIONS>
12  13  8
12  17  8
13  18  8
14  19  8
15  21  8
17  22  8
18  20  8
19  23  8
20  22  8
21  23  8
3  14  8
3  5  8
4  5  8
4  9  8
9  14  8
9  15  8

$$$$
