142573438
  -OEChem-09292322462D

 71 75  0     0  0  0  0  0  0999 V2000
    4.6701   -3.4648    0.0000 S   0  0  0  0  0  0  0  0  0  0  0  0
    8.1342    4.5352    0.0000 F   0  0  0  0  0  0  0  0  0  0  0  0
    6.4021    8.5352    0.0000 F   0  0  0  0  0  0  0  0  0  0  0  0
    5.4021    7.5352    0.0000 F   0  0  0  0  0  0  0  0  0  0  0  0
    7.4021    7.5352    0.0000 F   0  0  0  0  0  0  0  0  0  0  0  0
    6.4021   -0.4648    0.0000 N   0  0  0  0  0  0  0  0  0  0  0  0
    6.4021    3.5352    0.0000 N   0  0  0  0  0  0  0  0  0  0  0  0
    3.8611   -5.0526    0.0000 N   0  0  0  0  0  0  0  0  0  0  0  0
    5.4791   -5.0526    0.0000 N   0  0  0  0  0  0  0  0  0  0  0  0
    5.1701   -6.0036    0.0000 N   0  0  0  0  0  0  0  0  0  0  0  0
    6.4021    1.5352    0.0000 C   0  0  0  0  0  0  0  0  0  0  0  0
    5.5361    1.0352    0.0000 C   0  0  0  0  0  0  0  0  0  0  0  0
    7.2682    1.0352    0.0000 C   0  0  0  0  0  0  0  0  0  0  0  0
    5.5361    2.0352    0.0000 C   0  0  0  0  0  0  0  0  0  0  0  0
    7.2682    2.0352    0.0000 C   0  0  0  0  0  0  0  0  0  0  0  0
    5.5361    0.0352    0.0000 C   0  0  0  0  0  0  0  0  0  0  0  0
    7.2682    0.0352    0.0000 C   0  0  0  0  0  0  0  0  0  0  0  0
    5.5361    3.0352    0.0000 C   0  0  0  0  0  0  0  0  0  0  0  0
    7.2682    3.0352    0.0000 C   0  0  0  0  0  0  0  0  0  0  0  0
    6.4021   -1.4648    0.0000 C   0  0  0  0  0  0  0  0  0  0  0  0
    6.4021    4.5352    0.0000 C   0  0  0  0  0  0  0  0  0  0  0  0
    5.5361   -1.9648    0.0000 C   0  0  0  0  0  0  0  0  0  0  0  0
    7.2682    5.0352    0.0000 C   0  0  0  0  0  0  0  0  0  0  0  0
    5.5361    5.0352    0.0000 C   0  0  0  0  0  0  0  0  0  0  0  0
    5.5361   -2.9648    0.0000 C   0  0  0  0  0  0  0  0  0  0  0  0
    7.2682    6.0352    0.0000 C   0  0  0  0  0  0  0  0  0  0  0  0
    5.5361    6.0352    0.0000 C   0  0  0  0  0  0  0  0  0  0  0  0
    6.4021    6.5352    0.0000 C   0  0  0  0  0  0  0  0  0  0  0  0
    6.4021    7.5352    0.0000 C   0  0  0  0  0  0  0  0  0  0  0  0
    4.6701   -4.4648    0.0000 C   0  0  0  0  0  0  0  0  0  0  0  0
    4.1701   -6.0036    0.0000 C   0  0  0  0  0  0  0  0  0  0  0  0
    2.9100   -4.7436    0.0000 C   0  0  0  0  0  0  0  0  0  0  0  0
    3.5823   -6.8126    0.0000 C   0  0  0  0  0  0  0  0  0  0  0  0
    2.5878   -6.7081    0.0000 C   0  0  0  0  0  0  0  0  0  0  0  0
    3.9890   -7.7262    0.0000 C   0  0  0  0  0  0  0  0  0  0  0  0
    2.0000   -7.5171    0.0000 C   0  0  0  0  0  0  0  0  0  0  0  0
    3.4013   -8.5352    0.0000 C   0  0  0  0  0  0  0  0  0  0  0  0
    2.4067   -8.4307    0.0000 C   0  0  0  0  0  0  0  0  0  0  0  0
    5.3241    1.6178    0.0000 H   0  0  0  0  0  0  0  0  0  0  0  0
    4.9255    0.9275    0.0000 H   0  0  0  0  0  0  0  0  0  0  0  0
    7.8788    0.9275    0.0000 H   0  0  0  0  0  0  0  0  0  0  0  0
    7.4802    1.6178    0.0000 H   0  0  0  0  0  0  0  0  0  0  0  0
    4.9255    2.1429    0.0000 H   0  0  0  0  0  0  0  0  0  0  0  0
    5.3241    1.4526    0.0000 H   0  0  0  0  0  0  0  0  0  0  0  0
    7.4802    1.4526    0.0000 H   0  0  0  0  0  0  0  0  0  0  0  0
    7.8788    2.1429    0.0000 H   0  0  0  0  0  0  0  0  0  0  0  0
    4.9255    0.1429    0.0000 H   0  0  0  0  0  0  0  0  0  0  0  0
    5.3241   -0.5474    0.0000 H   0  0  0  0  0  0  0  0  0  0  0  0
    7.4802   -0.5474    0.0000 H   0  0  0  0  0  0  0  0  0  0  0  0
    7.8788    0.1429    0.0000 H   0  0  0  0  0  0  0  0  0  0  0  0
    5.3241    3.6178    0.0000 H   0  0  0  0  0  0  0  0  0  0  0  0
    4.9255    2.9276    0.0000 H   0  0  0  0  0  0  0  0  0  0  0  0
    7.8788    2.9276    0.0000 H   0  0  0  0  0  0  0  0  0  0  0  0
    7.4802    3.6178    0.0000 H   0  0  0  0  0  0  0  0  0  0  0  0
    6.6142   -2.0474    0.0000 H   0  0  0  0  0  0  0  0  0  0  0  0
    7.0127   -1.3571    0.0000 H   0  0  0  0  0  0  0  0  0  0  0  0
    5.3241   -1.3822    0.0000 H   0  0  0  0  0  0  0  0  0  0  0  0
    4.9255   -2.0724    0.0000 H   0  0  0  0  0  0  0  0  0  0  0  0
    4.9992    4.7252    0.0000 H   0  0  0  0  0  0  0  0  0  0  0  0
    5.7482   -3.5474    0.0000 H   0  0  0  0  0  0  0  0  0  0  0  0
    6.1467   -2.8571    0.0000 H   0  0  0  0  0  0  0  0  0  0  0  0
    7.8051    6.3452    0.0000 H   0  0  0  0  0  0  0  0  0  0  0  0
    4.9992    6.3452    0.0000 H   0  0  0  0  0  0  0  0  0  0  0  0
    3.1016   -4.1539    0.0000 H   0  0  0  0  0  0  0  0  0  0  0  0
    2.3204   -4.5520    0.0000 H   0  0  0  0  0  0  0  0  0  0  0  0
    2.7184   -5.3332    0.0000 H   0  0  0  0  0  0  0  0  0  0  0  0
    2.3356   -6.1417    0.0000 H   0  0  0  0  0  0  0  0  0  0  0  0
    4.6056   -7.7910    0.0000 H   0  0  0  0  0  0  0  0  0  0  0  0
    1.3834   -7.4523    0.0000 H   0  0  0  0  0  0  0  0  0  0  0  0
    3.6534   -9.1016    0.0000 H   0  0  0  0  0  0  0  0  0  0  0  0
    2.0423   -8.9323    0.0000 H   0  0  0  0  0  0  0  0  0  0  0  0
  1 25  1  0  0  0  0
  1 30  1  0  0  0  0
  2 23  1  0  0  0  0
  3 29  1  0  0  0  0
  4 29  1  0  0  0  0
  5 29  1  0  0  0  0
  6 16  1  0  0  0  0
  6 17  1  0  0  0  0
  6 20  1  0  0  0  0
  7 18  1  0  0  0  0
  7 19  1  0  0  0  0
  7 21  1  0  0  0  0
  8 30  1  0  0  0  0
  8 31  1  0  0  0  0
  8 32  1  0  0  0  0
  9 10  1  0  0  0  0
  9 30  2  0  0  0  0
 10 31  2  0  0  0  0
 11 12  1  0  0  0  0
 11 13  1  0  0  0  0
 11 14  1  0  0  0  0
 11 15  1  0  0  0  0
 12 16  1  0  0  0  0
 12 39  1  0  0  0  0
 12 40  1  0  0  0  0
 13 17  1  0  0  0  0
 13 41  1  0  0  0  0
 13 42  1  0  0  0  0
 14 18  1  0  0  0  0
 14 43  1  0  0  0  0
 14 44  1  0  0  0  0
 15 19  1  0  0  0  0
 15 45  1  0  0  0  0
 15 46  1  0  0  0  0
 16 47  1  0  0  0  0
 16 48  1  0  0  0  0
 17 49  1  0  0  0  0
 17 50  1  0  0  0  0
 18 51  1  0  0  0  0
 18 52  1  0  0  0  0
 19 53  1  0  0  0  0
 19 54  1  0  0  0  0
 20 22  1  0  0  0  0
 20 55  1  0  0  0  0
 20 56  1  0  0  0  0
 21 23  2  0  0  0  0
 21 24  1  0  0  0  0
 22 25  1  0  0  0  0
 22 57  1  0  0  0  0
 22 58  1  0  0  0  0
 23 26  1  0  0  0  0
 24 27  2  0  0  0  0
 24 59  1  0  0  0  0
 25 60  1  0  0  0  0
 25 61  1  0  0  0  0
 26 28  2  0  0  0  0
 26 62  1  0  0  0  0
 27 28  1  0  0  0  0
 27 63  1  0  0  0  0
 28 29  1  0  0  0  0
 31 33  1  0  0  0  0
 32 64  1  0  0  0  0
 32 65  1  0  0  0  0
 32 66  1  0  0  0  0
 33 34  2  0  0  0  0
 33 35  1  0  0  0  0
 34 36  1  0  0  0  0
 34 67  1  0  0  0  0
 35 37  2  0  0  0  0
 35 68  1  0  0  0  0
 36 38  2  0  0  0  0
 36 69  1  0  0  0  0
 37 38  1  0  0  0  0
 37 70  1  0  0  0  0
 38 71  1  0  0  0  0
M  END
> <PUBCHEM_COMPOUND_CID>
142573438

> <PUBCHEM_COMPOUND_CANONICALIZED>
1

> <PUBCHEM_CACTVS_COMPLEXITY>
733

> <PUBCHEM_CACTVS_HBOND_ACCEPTOR>
9

> <PUBCHEM_CACTVS_HBOND_DONOR>
0

> <PUBCHEM_CACTVS_ROTATABLE_BOND>
7

> <PUBCHEM_CACTVS_SUBSKEYS>
AAADcfB7gcBAAAAAAAAAAAAAAAAAAWAAAAA8eIEAAAAAAAAB0AAAHQQIAAAADgjFWxyz0IcMEAiiAiZiZACS0AthArAdyCAoZJiIKKLgmZGEIAhgiALIyAcQgAAPCAAAAAAAAAAQAAAAAAAAAAAAAAAAAA==

> <PUBCHEM_IUPAC_OPENEYE_NAME>
3-[2-fluoro-4-(trifluoromethyl)phenyl]-9-[3-[(4-methyl-5-phenyl-1,2,4-triazol-3-yl)sulfanyl]propyl]-3,9-diazaspiro[5.5]undecane

> <PUBCHEM_IUPAC_CAS_NAME>
3-[2-fluoro-4-(trifluoromethyl)phenyl]-9-[3-[(4-methyl-5-phenyl-1,2,4-triazol-3-yl)thio]propyl]-3,9-diazaspiro[5.5]undecane

> <PUBCHEM_IUPAC_NAME_MARKUP>
3-[2-fluoro-4-(trifluoromethyl)phenyl]-9-[3-[(4-methyl-5-phenyl-1,2,4-triazol-3-yl)sulfanyl]propyl]-3,9-diazaspiro[5.5]undecane

> <PUBCHEM_IUPAC_NAME>
3-[2-fluoro-4-(trifluoromethyl)phenyl]-9-[3-[(4-methyl-5-phenyl-1,2,4-triazol-3-yl)sulfanyl]propyl]-3,9-diazaspiro[5.5]undecane

> <PUBCHEM_IUPAC_SYSTEMATIC_NAME>
3-[2-fluoranyl-4-(trifluoromethyl)phenyl]-9-[3-[(4-methyl-5-phenyl-1,2,4-triazol-3-yl)sulfanyl]propyl]-3,9-diazaspiro[5.5]undecane

> <PUBCHEM_IUPAC_TRADITIONAL_NAME>
3-[2-fluoro-4-(trifluoromethyl)phenyl]-9-[3-[(4-methyl-5-phenyl-1,2,4-triazol-3-yl)thio]propyl]-3,9-diazaspiro[5.5]undecane

> <PUBCHEM_IUPAC_INCHI>
InChI=1S/C28H33F4N5S/c1-35-25(21-6-3-2-4-7-21)33-34-26(35)38-19-5-14-36-15-10-27(11-16-36)12-17-37(18-13-27)24-9-8-22(20-23(24)29)28(30,31)32/h2-4,6-9,20H,5,10-19H2,1H3

> <PUBCHEM_IUPAC_INCHIKEY>
WUDCCQFZITUELQ-UHFFFAOYSA-N

> <PUBCHEM_XLOGP3_AA>
6.2

> <PUBCHEM_EXACT_MASS>
547.23927990

> <PUBCHEM_MOLECULAR_FORMULA>
C28H33F4N5S

> <PUBCHEM_MOLECULAR_WEIGHT>
547.7

> <PUBCHEM_OPENEYE_CAN_SMILES>
CN1C(=NN=C1SCCCN2CCC3(CC2)CCN(CC3)C4=C(C=C(C=C4)C(F)(F)F)F)C5=CC=CC=C5

> <PUBCHEM_OPENEYE_ISO_SMILES>
CN1C(=NN=C1SCCCN2CCC3(CC2)CCN(CC3)C4=C(C=C(C=C4)C(F)(F)F)F)C5=CC=CC=C5

> <PUBCHEM_CACTVS_TPSA>
62.5

> <PUBCHEM_MONOISOTOPIC_WEIGHT>
547.23927990

> <PUBCHEM_TOTAL_CHARGE>
0

> <PUBCHEM_HEAVY_ATOM_COUNT>
38

> <PUBCHEM_ATOM_DEF_STEREO_COUNT>
0

> <PUBCHEM_ATOM_UDEF_STEREO_COUNT>
0

> <PUBCHEM_BOND_DEF_STEREO_COUNT>
0

> <PUBCHEM_BOND_UDEF_STEREO_COUNT>
0

> <PUBCHEM_ISOTOPIC_ATOM_COUNT>
0

> <PUBCHEM_COMPONENT_COUNT>
1

> <PUBCHEM_CACTVS_TAUTO_COUNT>
-1

> <PUBCHEM_COORDINATE_TYPE>
1
5
255

> <PUBCHEM_BONDANNOTATIONS>
10  31  8
21  23  8
21  24  8
23  26  8
24  27  8
26  28  8
27  28  8
33  34  8
33  35  8
34  36  8
35  37  8
36  38  8
37  38  8
8  30  8
8  31  8
9  10  8
9  30  8

$$$$
