10597050
  -OEChem-09292322102D

 59 62  0     1  0  0  0  0  0999 V2000
    2.0000   -4.7723    0.0000 Cl  0  0  0  0  0  0  0  0  0  0  0  0
   10.6766    4.2623    0.0000 O   0  0  0  0  0  0  0  0  0  0  0  0
    7.1962   -1.7723    0.0000 N   0  0  0  0  0  0  0  0  0  0  0  0
    5.4641   -2.7723    0.0000 N   0  0  0  0  0  0  0  0  0  0  0  0
    8.9282    1.2277    0.0000 C   0  0  3  0  0  0  0  0  0  0  0  0
    8.9282    0.2277    0.0000 C   0  0  0  0  0  0  0  0  0  0  0  0
    8.0622    1.7277    0.0000 C   0  0  0  0  0  0  0  0  0  0  0  0
    9.7942    1.7277    0.0000 C   0  0  0  0  0  0  0  0  0  0  0  0
    8.0622   -0.2723    0.0000 C   0  0  0  0  0  0  0  0  0  0  0  0
    8.0622    2.7277    0.0000 C   0  0  0  0  0  0  0  0  0  0  0  0
    8.0622   -1.2723    0.0000 C   0  0  0  0  0  0  0  0  0  0  0  0
    8.9282    3.2277    0.0000 C   0  0  0  0  0  0  0  0  0  0  0  0
    9.7942    2.7277    0.0000 C   0  0  0  0  0  0  0  0  0  0  0  0
    6.3301   -1.2723    0.0000 C   0  0  0  0  0  0  0  0  0  0  0  0
    7.1962   -2.7723    0.0000 C   0  0  0  0  0  0  0  0  0  0  0  0
    5.4641   -1.7723    0.0000 C   0  0  0  0  0  0  0  0  0  0  0  0
    6.3301   -3.2723    0.0000 C   0  0  0  0  0  0  0  0  0  0  0  0
   10.6882    1.1930    0.0000 C   0  0  0  0  0  0  0  0  0  0  0  0
   10.6882    3.2624    0.0000 C   0  0  0  0  0  0  0  0  0  0  0  0
   11.5942    1.7069    0.0000 C   0  0  0  0  0  0  0  0  0  0  0  0
    4.5981   -3.2723    0.0000 C   0  0  0  0  0  0  0  0  0  0  0  0
   11.5942    2.7485    0.0000 C   0  0  0  0  0  0  0  0  0  0  0  0
    3.7320   -2.7723    0.0000 C   0  0  0  0  0  0  0  0  0  0  0  0
    4.5981   -4.2723    0.0000 C   0  0  0  0  0  0  0  0  0  0  0  0
   11.5368    4.7723    0.0000 C   0  0  0  0  0  0  0  0  0  0  0  0
    2.8660   -3.2723    0.0000 C   0  0  0  0  0  0  0  0  0  0  0  0
    3.7320   -4.7723    0.0000 C   0  0  0  0  0  0  0  0  0  0  0  0
    2.8660   -4.2723    0.0000 C   0  0  0  0  0  0  0  0  0  0  0  0
    9.4651    0.9177    0.0000 H   0  0  0  0  0  0  0  0  0  0  0  0
    9.1403   -0.3549    0.0000 H   0  0  0  0  0  0  0  0  0  0  0  0
    9.5388    0.3354    0.0000 H   0  0  0  0  0  0  0  0  0  0  0  0
    7.4516    1.8354    0.0000 H   0  0  0  0  0  0  0  0  0  0  0  0
    7.8501    1.1451    0.0000 H   0  0  0  0  0  0  0  0  0  0  0  0
    7.8501    0.3103    0.0000 H   0  0  0  0  0  0  0  0  0  0  0  0
    7.4516   -0.3799    0.0000 H   0  0  0  0  0  0  0  0  0  0  0  0
    7.8501    3.3103    0.0000 H   0  0  0  0  0  0  0  0  0  0  0  0
    7.4516    2.6200    0.0000 H   0  0  0  0  0  0  0  0  0  0  0  0
    8.2742   -1.8549    0.0000 H   0  0  0  0  0  0  0  0  0  0  0  0
    8.6728   -1.1646    0.0000 H   0  0  0  0  0  0  0  0  0  0  0  0
    9.3267    3.7027    0.0000 H   0  0  0  0  0  0  0  0  0  0  0  0
    8.5297    3.7027    0.0000 H   0  0  0  0  0  0  0  0  0  0  0  0
    6.7287   -0.7973    0.0000 H   0  0  0  0  0  0  0  0  0  0  0  0
    5.9316   -0.7973    0.0000 H   0  0  0  0  0  0  0  0  0  0  0  0
    7.4082   -3.3549    0.0000 H   0  0  0  0  0  0  0  0  0  0  0  0
    7.8067   -2.6646    0.0000 H   0  0  0  0  0  0  0  0  0  0  0  0
    5.2520   -1.1897    0.0000 H   0  0  0  0  0  0  0  0  0  0  0  0
    4.8535   -1.8800    0.0000 H   0  0  0  0  0  0  0  0  0  0  0  0
    5.9316   -3.7472    0.0000 H   0  0  0  0  0  0  0  0  0  0  0  0
    6.7287   -3.7472    0.0000 H   0  0  0  0  0  0  0  0  0  0  0  0
   10.6810    0.5731    0.0000 H   0  0  0  0  0  0  0  0  0  0  0  0
   12.1300    1.3948    0.0000 H   0  0  0  0  0  0  0  0  0  0  0  0
   12.1300    3.0606    0.0000 H   0  0  0  0  0  0  0  0  0  0  0  0
    3.7320   -2.1523    0.0000 H   0  0  0  0  0  0  0  0  0  0  0  0
    5.1350   -4.5823    0.0000 H   0  0  0  0  0  0  0  0  0  0  0  0
    2.3291   -2.9623    0.0000 H   0  0  0  0  0  0  0  0  0  0  0  0
    3.7320   -5.3923    0.0000 H   0  0  0  0  0  0  0  0  0  0  0  0
   11.8530    4.2390    0.0000 H   0  0  0  0  0  0  0  0  0  0  0  0
   12.0701    5.0885    0.0000 H   0  0  0  0  0  0  0  0  0  0  0  0
   11.2206    5.3056    0.0000 H   0  0  0  0  0  0  0  0  0  0  0  0
  1 28  1  0  0  0  0
  2 19  1  0  0  0  0
  2 25  1  0  0  0  0
  3 11  1  0  0  0  0
  3 14  1  0  0  0  0
  3 15  1  0  0  0  0
  4 16  1  0  0  0  0
  4 17  1  0  0  0  0
  4 21  1  0  0  0  0
  5  6  1  0  0  0  0
  5  7  1  0  0  0  0
  5  8  1  0  0  0  0
  5 29  1  0  0  0  0
  6  9  1  0  0  0  0
  6 30  1  0  0  0  0
  6 31  1  0  0  0  0
  7 10  1  0  0  0  0
  7 32  1  0  0  0  0
  7 33  1  0  0  0  0
  8 13  2  0  0  0  0
  8 18  1  0  0  0  0
  9 11  1  0  0  0  0
  9 34  1  0  0  0  0
  9 35  1  0  0  0  0
 10 12  1  0  0  0  0
 10 36  1  0  0  0  0
 10 37  1  0  0  0  0
 11 38  1  0  0  0  0
 11 39  1  0  0  0  0
 12 13  1  0  0  0  0
 12 40  1  0  0  0  0
 12 41  1  0  0  0  0
 13 19  1  0  0  0  0
 14 16  1  0  0  0  0
 14 42  1  0  0  0  0
 14 43  1  0  0  0  0
 15 17  1  0  0  0  0
 15 44  1  0  0  0  0
 15 45  1  0  0  0  0
 16 46  1  0  0  0  0
 16 47  1  0  0  0  0
 17 48  1  0  0  0  0
 17 49  1  0  0  0  0
 18 20  2  0  0  0  0
 18 50  1  0  0  0  0
 19 22  2  0  0  0  0
 20 22  1  0  0  0  0
 20 51  1  0  0  0  0
 21 23  2  0  0  0  0
 21 24  1  0  0  0  0
 22 52  1  0  0  0  0
 23 26  1  0  0  0  0
 23 53  1  0  0  0  0
 24 27  2  0  0  0  0
 24 54  1  0  0  0  0
 25 57  1  0  0  0  0
 25 58  1  0  0  0  0
 25 59  1  0  0  0  0
 26 28  2  0  0  0  0
 26 55  1  0  0  0  0
 27 28  1  0  0  0  0
 27 56  1  0  0  0  0
M  END
> <PUBCHEM_COMPOUND_CID>
10597050

> <PUBCHEM_COMPOUND_CANONICALIZED>
1

> <PUBCHEM_CACTVS_COMPLEXITY>
460

> <PUBCHEM_CACTVS_HBOND_ACCEPTOR>
3

> <PUBCHEM_CACTVS_HBOND_DONOR>
0

> <PUBCHEM_CACTVS_ROTATABLE_BOND>
6

> <PUBCHEM_CACTVS_SUBSKEYS>
AAADceB7IAAEAAAAAAAAAAAAAAAAAAAAAAA8YMEAAAAAAADBQAAAHgIAAAAADQ7BmCYyxoMABACAAiRCQACCCAAhJwAIiAAObogMZiLFs5uUMChkwBHI6AeQwPAOgABBAAAYAAAAAIYAADAAAAAAAAAAAA==

> <PUBCHEM_IUPAC_OPENEYE_NAME>
1-(4-chlorophenyl)-4-[3-(5-methoxytetralin-1-yl)propyl]piperazine

> <PUBCHEM_IUPAC_CAS_NAME>
1-(4-chlorophenyl)-4-[3-(5-methoxy-1,2,3,4-tetrahydronaphthalen-1-yl)propyl]piperazine

> <PUBCHEM_IUPAC_NAME_MARKUP>
1-(4-chlorophenyl)-4-[3-(5-methoxy-1,2,3,4-tetrahydronaphthalen-1-yl)propyl]piperazine

> <PUBCHEM_IUPAC_NAME>
1-(4-chlorophenyl)-4-[3-(5-methoxy-1,2,3,4-tetrahydronaphthalen-1-yl)propyl]piperazine

> <PUBCHEM_IUPAC_SYSTEMATIC_NAME>
1-(4-chlorophenyl)-4-[3-(5-methoxy-1,2,3,4-tetrahydronaphthalen-1-yl)propyl]piperazine

> <PUBCHEM_IUPAC_TRADITIONAL_NAME>
1-(4-chlorophenyl)-4-[3-(5-methoxytetralin-1-yl)propyl]piperazine

> <PUBCHEM_IUPAC_INCHI>
InChI=1S/C24H31ClN2O/c1-28-24-9-3-7-22-19(5-2-8-23(22)24)6-4-14-26-15-17-27(18-16-26)21-12-10-20(25)11-13-21/h3,7,9-13,19H,2,4-6,8,14-18H2,1H3

> <PUBCHEM_IUPAC_INCHIKEY>
TWAJXJHCRRIGAN-UHFFFAOYSA-N

> <PUBCHEM_XLOGP3_AA>
6

> <PUBCHEM_EXACT_MASS>
398.2124913

> <PUBCHEM_MOLECULAR_FORMULA>
C24H31ClN2O

> <PUBCHEM_MOLECULAR_WEIGHT>
399.0

> <PUBCHEM_OPENEYE_CAN_SMILES>
COC1=CC=CC2=C1CCCC2CCCN3CCN(CC3)C4=CC=C(C=C4)Cl

> <PUBCHEM_OPENEYE_ISO_SMILES>
COC1=CC=CC2=C1CCCC2CCCN3CCN(CC3)C4=CC=C(C=C4)Cl

> <PUBCHEM_CACTVS_TPSA>
15.7

> <PUBCHEM_MONOISOTOPIC_WEIGHT>
398.2124913

> <PUBCHEM_TOTAL_CHARGE>
0

> <PUBCHEM_HEAVY_ATOM_COUNT>
28

> <PUBCHEM_ATOM_DEF_STEREO_COUNT>
0

> <PUBCHEM_ATOM_UDEF_STEREO_COUNT>
1

> <PUBCHEM_BOND_DEF_STEREO_COUNT>
0

> <PUBCHEM_BOND_UDEF_STEREO_COUNT>
0

> <PUBCHEM_ISOTOPIC_ATOM_COUNT>
0

> <PUBCHEM_COMPONENT_COUNT>
1

> <PUBCHEM_CACTVS_TAUTO_COUNT>
-1

> <PUBCHEM_COORDINATE_TYPE>
1
5
255

> <PUBCHEM_BONDANNOTATIONS>
13  19  8
18  20  8
19  22  8
20  22  8
21  23  8
21  24  8
23  26  8
24  27  8
26  28  8
27  28  8
5  6  3
8  13  8
8  18  8

$$$$
