117870915
  -OEChem-09292322352D

 63 67  0     0  0  0  0  0  0999 V2000
    3.3660   -7.3488    0.0000 F   0  0  0  0  0  0  0  0  0  0  0  0
    2.0000   -6.9828    0.0000 F   0  0  0  0  0  0  0  0  0  0  0  0
    2.3660   -5.6168    0.0000 F   0  0  0  0  0  0  0  0  0  0  0  0
    9.7410    2.5915    0.0000 O   0  0  0  0  0  0  0  0  0  0  0  0
    6.3233   -1.4483    0.0000 N   0  0  0  0  0  0  0  0  0  0  0  0
    6.3465   -3.4482    0.0000 N   0  0  0  0  0  0  0  0  0  0  0  0
    8.0090    2.5714    0.0000 N   0  0  0  0  0  0  0  0  0  0  0  0
    6.3580   -6.5174    0.0000 N   0  0  0  0  0  0  0  0  0  0  0  0
    8.3400    5.6053    0.0000 N   0  0  0  0  0  0  0  0  0  0  0  0
    9.6556    4.6742    0.0000 N   0  0  0  0  0  0  0  0  0  0  0  0
    7.1951   -1.9383    0.0000 C   0  0  0  0  0  0  0  0  0  0  0  0
    5.4632   -1.9583    0.0000 C   0  0  0  0  0  0  0  0  0  0  0  0
    7.2067   -2.9382    0.0000 C   0  0  0  0  0  0  0  0  0  0  0  0
    5.4747   -2.9582    0.0000 C   0  0  0  0  0  0  0  0  0  0  0  0
    6.3118   -0.4484    0.0000 C   0  0  0  0  0  0  0  0  0  0  0  0
    7.1720    0.0616    0.0000 C   0  0  0  0  0  0  0  0  0  0  0  0
    6.3580   -4.4481    0.0000 C   0  0  0  0  0  0  0  0  0  0  0  0
    7.1604    1.0615    0.0000 C   0  0  0  0  0  0  0  0  0  0  0  0
    5.4641   -4.9828    0.0000 C   0  0  0  0  0  0  0  0  0  0  0  0
    8.0206    1.5715    0.0000 C   0  0  0  0  0  0  0  0  0  0  0  0
    7.2641   -4.9620    0.0000 C   0  0  0  0  0  0  0  0  0  0  0  0
    5.4641   -5.9828    0.0000 C   0  0  0  0  0  0  0  0  0  0  0  0
    4.5981   -4.4828    0.0000 C   0  0  0  0  0  0  0  0  0  0  0  0
    7.2641   -6.0036    0.0000 C   0  0  0  0  0  0  0  0  0  0  0  0
    4.5981   -6.4828    0.0000 C   0  0  0  0  0  0  0  0  0  0  0  0
    3.7320   -4.9828    0.0000 C   0  0  0  0  0  0  0  0  0  0  0  0
    3.7320   -5.9828    0.0000 C   0  0  0  0  0  0  0  0  0  0  0  0
    8.8692    3.0814    0.0000 C   0  0  0  0  0  0  0  0  0  0  0  0
    2.8660   -6.4828    0.0000 C   0  0  0  0  0  0  0  0  0  0  0  0
    8.8577    4.0814    0.0000 C   0  0  0  0  0  0  0  0  0  0  0  0
    8.0462    4.6556    0.0000 C   0  0  0  0  0  0  0  0  0  0  0  0
    9.3399    5.6169    0.0000 C   0  0  0  0  0  0  0  0  0  0  0  0
    7.8300    6.4655    0.0000 C   0  0  0  0  0  0  0  0  0  0  0  0
    9.8299    6.4886    0.0000 C   0  0  0  0  0  0  0  0  0  0  0  0
    8.3200    7.3372    0.0000 C   0  0  0  0  0  0  0  0  0  0  0  0
    9.3199    7.3488    0.0000 C   0  0  0  0  0  0  0  0  0  0  0  0
    7.8069   -2.0389    0.0000 H   0  0  0  0  0  0  0  0  0  0  0  0
    7.4004   -1.3532    0.0000 H   0  0  0  0  0  0  0  0  0  0  0  0
    5.2444   -1.3782    0.0000 H   0  0  0  0  0  0  0  0  0  0  0  0
    4.8539   -2.0730    0.0000 H   0  0  0  0  0  0  0  0  0  0  0  0
    7.4254   -3.5183    0.0000 H   0  0  0  0  0  0  0  0  0  0  0  0
    7.8160   -2.8235    0.0000 H   0  0  0  0  0  0  0  0  0  0  0  0
    4.8630   -2.8576    0.0000 H   0  0  0  0  0  0  0  0  0  0  0  0
    5.2694   -3.5432    0.0000 H   0  0  0  0  0  0  0  0  0  0  0  0
    6.0930    0.1317    0.0000 H   0  0  0  0  0  0  0  0  0  0  0  0
    5.7025   -0.5631    0.0000 H   0  0  0  0  0  0  0  0  0  0  0  0
    7.3908   -0.5185    0.0000 H   0  0  0  0  0  0  0  0  0  0  0  0
    7.7813    0.1763    0.0000 H   0  0  0  0  0  0  0  0  0  0  0  0
    6.9416    1.6416    0.0000 H   0  0  0  0  0  0  0  0  0  0  0  0
    6.5511    0.9468    0.0000 H   0  0  0  0  0  0  0  0  0  0  0  0
    8.2394    0.9914    0.0000 H   0  0  0  0  0  0  0  0  0  0  0  0
    8.6299    1.6862    0.0000 H   0  0  0  0  0  0  0  0  0  0  0  0
    7.7998   -4.6499    0.0000 H   0  0  0  0  0  0  0  0  0  0  0  0
    4.5981   -3.8628    0.0000 H   0  0  0  0  0  0  0  0  0  0  0  0
    7.7998   -6.3157    0.0000 H   0  0  0  0  0  0  0  0  0  0  0  0
    7.4686    2.8752    0.0000 H   0  0  0  0  0  0  0  0  0  0  0  0
    4.5981   -7.1028    0.0000 H   0  0  0  0  0  0  0  0  0  0  0  0
    3.1951   -4.6728    0.0000 H   0  0  0  0  0  0  0  0  0  0  0  0
    7.4592    4.4562    0.0000 H   0  0  0  0  0  0  0  0  0  0  0  0
    7.2101    6.4583    0.0000 H   0  0  0  0  0  0  0  0  0  0  0  0
   10.4498    6.4958    0.0000 H   0  0  0  0  0  0  0  0  0  0  0  0
    8.0038    7.8706    0.0000 H   0  0  0  0  0  0  0  0  0  0  0  0
    9.6237    7.8893    0.0000 H   0  0  0  0  0  0  0  0  0  0  0  0
  1 29  1  0  0  0  0
  2 29  1  0  0  0  0
  3 29  1  0  0  0  0
  4 28  2  0  0  0  0
  5 11  1  0  0  0  0
  5 12  1  0  0  0  0
  5 15  1  0  0  0  0
  6 13  1  0  0  0  0
  6 14  1  0  0  0  0
  6 17  1  0  0  0  0
  7 20  1  0  0  0  0
  7 28  1  0  0  0  0
  7 56  1  0  0  0  0
  8 22  2  0  0  0  0
  8 24  1  0  0  0  0
  9 31  1  0  0  0  0
  9 32  1  0  0  0  0
  9 33  1  0  0  0  0
 10 30  1  0  0  0  0
 10 32  2  0  0  0  0
 11 13  1  0  0  0  0
 11 37  1  0  0  0  0
 11 38  1  0  0  0  0
 12 14  1  0  0  0  0
 12 39  1  0  0  0  0
 12 40  1  0  0  0  0
 13 41  1  0  0  0  0
 13 42  1  0  0  0  0
 14 43  1  0  0  0  0
 14 44  1  0  0  0  0
 15 16  1  0  0  0  0
 15 45  1  0  0  0  0
 15 46  1  0  0  0  0
 16 18  1  0  0  0  0
 16 47  1  0  0  0  0
 16 48  1  0  0  0  0
 17 19  2  0  0  0  0
 17 21  1  0  0  0  0
 18 20  1  0  0  0  0
 18 49  1  0  0  0  0
 18 50  1  0  0  0  0
 19 22  1  0  0  0  0
 19 23  1  0  0  0  0
 20 51  1  0  0  0  0
 20 52  1  0  0  0  0
 21 24  2  0  0  0  0
 21 53  1  0  0  0  0
 22 25  1  0  0  0  0
 23 26  2  0  0  0  0
 23 54  1  0  0  0  0
 24 55  1  0  0  0  0
 25 27  2  0  0  0  0
 25 57  1  0  0  0  0
 26 27  1  0  0  0  0
 26 58  1  0  0  0  0
 27 29  1  0  0  0  0
 28 30  1  0  0  0  0
 30 31  2  0  0  0  0
 31 59  1  0  0  0  0
 32 34  1  0  0  0  0
 33 35  2  0  0  0  0
 33 60  1  0  0  0  0
 34 36  2  0  0  0  0
 34 61  1  0  0  0  0
 35 36  1  0  0  0  0
 35 62  1  0  0  0  0
 36 63  1  0  0  0  0
M  END
> <PUBCHEM_COMPOUND_CID>
117870915

> <PUBCHEM_COMPOUND_CANONICALIZED>
1

> <PUBCHEM_CACTVS_COMPLEXITY>
731

> <PUBCHEM_CACTVS_HBOND_ACCEPTOR>
8

> <PUBCHEM_CACTVS_HBOND_DONOR>
1

> <PUBCHEM_CACTVS_ROTATABLE_BOND>
7

> <PUBCHEM_CACTVS_SUBSKEYS>
AAADceB7oYAAAAAAAAAAAAAAAAAAAWAAAAA8WLEAAAAAAFix/gAAHwAQAAAADAjBnxQ98P/MGACoAzd3dACCgC03EqAJ2KG4dNiIaOrA2fGUJIholgLIyOcQgMAOQAAAQAACAACAAACAAAQAAAAAAAAAAA==

> <PUBCHEM_IUPAC_OPENEYE_NAME>
N-[4-[4-[7-(trifluoromethyl)-4-quinolyl]piperazin-1-yl]butyl]imidazo[1,2-a]pyridine-2-carboxamide

> <PUBCHEM_IUPAC_CAS_NAME>
N-[4-[4-[7-(trifluoromethyl)-4-quinolinyl]-1-piperazinyl]butyl]-2-imidazo[1,2-a]pyridinecarboxamide

> <PUBCHEM_IUPAC_NAME_MARKUP>
<I>N</I>-[4-[4-[7-(trifluoromethyl)quinolin-4-yl]piperazin-1-yl]butyl]imidazo[1,2-a]pyridine-2-carboxamide

> <PUBCHEM_IUPAC_NAME>
N-[4-[4-[7-(trifluoromethyl)quinolin-4-yl]piperazin-1-yl]butyl]imidazo[1,2-a]pyridine-2-carboxamide

> <PUBCHEM_IUPAC_SYSTEMATIC_NAME>
N-[4-[4-[7-(trifluoromethyl)quinolin-4-yl]piperazin-1-yl]butyl]imidazo[1,2-a]pyridine-2-carboxamide

> <PUBCHEM_IUPAC_TRADITIONAL_NAME>
N-[4-[4-[7-(trifluoromethyl)-4-quinolyl]piperazino]butyl]imidazo[1,2-a]pyridine-2-carboxamide

> <PUBCHEM_IUPAC_INCHI>
InChI=1S/C26H27F3N6O/c27-26(28,29)19-6-7-20-21(17-19)30-10-8-23(20)34-15-13-33(14-16-34)11-4-2-9-31-25(36)22-18-35-12-3-1-5-24(35)32-22/h1,3,5-8,10,12,17-18H,2,4,9,11,13-16H2,(H,31,36)

> <PUBCHEM_IUPAC_INCHIKEY>
HZTKYJRCVZENNH-UHFFFAOYSA-N

> <PUBCHEM_XLOGP3_AA>
4.9

> <PUBCHEM_EXACT_MASS>
496.21984399

> <PUBCHEM_MOLECULAR_FORMULA>
C26H27F3N6O

> <PUBCHEM_MOLECULAR_WEIGHT>
496.5

> <PUBCHEM_OPENEYE_CAN_SMILES>
C1CN(CCN1CCCCNC(=O)C2=CN3C=CC=CC3=N2)C4=C5C=CC(=CC5=NC=C4)C(F)(F)F

> <PUBCHEM_OPENEYE_ISO_SMILES>
C1CN(CCN1CCCCNC(=O)C2=CN3C=CC=CC3=N2)C4=C5C=CC(=CC5=NC=C4)C(F)(F)F

> <PUBCHEM_CACTVS_TPSA>
65.8

> <PUBCHEM_MONOISOTOPIC_WEIGHT>
496.21984399

> <PUBCHEM_TOTAL_CHARGE>
0

> <PUBCHEM_HEAVY_ATOM_COUNT>
36

> <PUBCHEM_ATOM_DEF_STEREO_COUNT>
0

> <PUBCHEM_ATOM_UDEF_STEREO_COUNT>
0

> <PUBCHEM_BOND_DEF_STEREO_COUNT>
0

> <PUBCHEM_BOND_UDEF_STEREO_COUNT>
0

> <PUBCHEM_ISOTOPIC_ATOM_COUNT>
0

> <PUBCHEM_COMPONENT_COUNT>
1

> <PUBCHEM_CACTVS_TAUTO_COUNT>
-1

> <PUBCHEM_COORDINATE_TYPE>
1
5
255

> <PUBCHEM_BONDANNOTATIONS>
10  30  8
10  32  8
17  19  8
17  21  8
19  22  8
19  23  8
21  24  8
22  25  8
23  26  8
25  27  8
26  27  8
30  31  8
32  34  8
33  35  8
34  36  8
35  36  8
8  22  8
8  24  8
9  31  8
9  32  8
9  33  8

$$$$
