9928332
  -OEChem-09292322522D

 53 56  0     1  0  0  0  0  0999 V2000
    7.0835    4.7997    0.0000 O   0  0  0  0  0  0  0  0  0  0  0  0
    2.0000   -4.4019    0.0000 O   0  0  0  0  0  0  0  0  0  0  0  0
    4.4691    0.2651    0.0000 N   0  0  3  0  0  0  0  0  0  0  0  0
    5.3351    1.7652    0.0000 C   0  0  2  0  0  0  0  0  0  0  0  0
    4.4691    2.2652    0.0000 C   0  0  0  0  0  0  0  0  0  0  0  0
    6.2011    2.2652    0.0000 C   0  0  0  0  0  0  0  0  0  0  0  0
    4.4691    3.2652    0.0000 C   0  0  0  0  0  0  0  0  0  0  0  0
    5.3351    0.7651    0.0000 C   0  0  0  0  0  0  0  0  0  0  0  0
    5.3351    3.7652    0.0000 C   0  0  0  0  0  0  0  0  0  0  0  0
    6.2011    3.2652    0.0000 C   0  0  0  0  0  0  0  0  0  0  0  0
    7.0951    1.7305    0.0000 C   0  0  0  0  0  0  0  0  0  0  0  0
    7.0951    3.7998    0.0000 C   0  0  0  0  0  0  0  0  0  0  0  0
    4.4691   -0.7349    0.0000 C   0  0  0  0  0  0  0  0  0  0  0  0
    3.6030    0.7651    0.0000 C   0  0  0  0  0  0  0  0  0  0  0  0
    3.6030   -1.2348    0.0000 C   0  0  0  0  0  0  0  0  0  0  0  0
    8.0011    2.2443    0.0000 C   0  0  0  0  0  0  0  0  0  0  0  0
    8.0011    3.2860    0.0000 C   0  0  0  0  0  0  0  0  0  0  0  0
    3.6030   -2.2348    0.0000 C   0  0  0  0  0  0  0  0  0  0  0  0
    2.7370   -2.7348    0.0000 C   0  0  0  0  0  0  0  0  0  0  0  0
    4.4691   -2.7348    0.0000 C   0  0  0  0  0  0  0  0  0  0  0  0
    7.9437    5.3097    0.0000 C   0  0  0  0  0  0  0  0  0  0  0  0
    2.7370   -3.7348    0.0000 C   0  0  0  0  0  0  0  0  0  0  0  0
    3.6030   -4.2348    0.0000 C   0  0  0  0  0  0  0  0  0  0  0  0
    4.4691   -3.7348    0.0000 C   0  0  0  0  0  0  0  0  0  0  0  0
    3.3938   -5.2067    0.0000 C   0  0  0  0  0  0  0  0  0  0  0  0
    2.4051   -5.3097    0.0000 C   0  0  0  0  0  0  0  0  0  0  0  0
    5.8720    1.4552    0.0000 H   0  0  0  0  0  0  0  0  0  0  0  0
    3.8585    2.3728    0.0000 H   0  0  0  0  0  0  0  0  0  0  0  0
    4.2570    1.6825    0.0000 H   0  0  0  0  0  0  0  0  0  0  0  0
    4.2570    3.8478    0.0000 H   0  0  0  0  0  0  0  0  0  0  0  0
    3.8585    3.1575    0.0000 H   0  0  0  0  0  0  0  0  0  0  0  0
    5.5471    0.1825    0.0000 H   0  0  0  0  0  0  0  0  0  0  0  0
    5.9457    0.8728    0.0000 H   0  0  0  0  0  0  0  0  0  0  0  0
    5.7336    4.2401    0.0000 H   0  0  0  0  0  0  0  0  0  0  0  0
    4.9366    4.2401    0.0000 H   0  0  0  0  0  0  0  0  0  0  0  0
    7.0879    1.1105    0.0000 H   0  0  0  0  0  0  0  0  0  0  0  0
    4.6811   -1.3175    0.0000 H   0  0  0  0  0  0  0  0  0  0  0  0
    5.0796   -0.6272    0.0000 H   0  0  0  0  0  0  0  0  0  0  0  0
    3.9130    1.3021    0.0000 H   0  0  0  0  0  0  0  0  0  0  0  0
    3.0661    1.0752    0.0000 H   0  0  0  0  0  0  0  0  0  0  0  0
    3.2930    0.2282    0.0000 H   0  0  0  0  0  0  0  0  0  0  0  0
    3.3910   -0.6522    0.0000 H   0  0  0  0  0  0  0  0  0  0  0  0
    2.9925   -1.3425    0.0000 H   0  0  0  0  0  0  0  0  0  0  0  0
    8.5369    1.9323    0.0000 H   0  0  0  0  0  0  0  0  0  0  0  0
    8.5369    3.5980    0.0000 H   0  0  0  0  0  0  0  0  0  0  0  0
    2.2001   -2.4248    0.0000 H   0  0  0  0  0  0  0  0  0  0  0  0
    5.0060   -2.4248    0.0000 H   0  0  0  0  0  0  0  0  0  0  0  0
    8.2599    4.7764    0.0000 H   0  0  0  0  0  0  0  0  0  0  0  0
    8.4770    5.6259    0.0000 H   0  0  0  0  0  0  0  0  0  0  0  0
    7.6275    5.8430    0.0000 H   0  0  0  0  0  0  0  0  0  0  0  0
    5.0060   -4.0448    0.0000 H   0  0  0  0  0  0  0  0  0  0  0  0
    3.8079   -5.6681    0.0000 H   0  0  0  0  0  0  0  0  0  0  0  0
    2.0951   -5.8467    0.0000 H   0  0  0  0  0  0  0  0  0  0  0  0
  1 12  1  0  0  0  0
  1 21  1  0  0  0  0
  2 22  1  0  0  0  0
  2 26  1  0  0  0  0
  3  8  1  0  0  0  0
  3 13  1  0  0  0  0
  3 14  1  0  0  0  0
  4  5  1  0  0  0  0
  4  6  1  0  0  0  0
  4  8  1  6  0  0  0
  4 27  1  0  0  0  0
  5  7  1  0  0  0  0
  5 28  1  0  0  0  0
  5 29  1  0  0  0  0
  6 10  2  0  0  0  0
  6 11  1  0  0  0  0
  7  9  1  0  0  0  0
  7 30  1  0  0  0  0
  7 31  1  0  0  0  0
  8 32  1  0  0  0  0
  8 33  1  0  0  0  0
  9 10  1  0  0  0  0
  9 34  1  0  0  0  0
  9 35  1  0  0  0  0
 10 12  1  0  0  0  0
 11 16  2  0  0  0  0
 11 36  1  0  0  0  0
 12 17  2  0  0  0  0
 13 15  1  0  0  0  0
 13 37  1  0  0  0  0
 13 38  1  0  0  0  0
 14 39  1  0  0  0  0
 14 40  1  0  0  0  0
 14 41  1  0  0  0  0
 15 18  1  0  0  0  0
 15 42  1  0  0  0  0
 15 43  1  0  0  0  0
 16 17  1  0  0  0  0
 16 44  1  0  0  0  0
 17 45  1  0  0  0  0
 18 19  2  0  0  0  0
 18 20  1  0  0  0  0
 19 22  1  0  0  0  0
 19 46  1  0  0  0  0
 20 24  2  0  0  0  0
 20 47  1  0  0  0  0
 21 48  1  0  0  0  0
 21 49  1  0  0  0  0
 21 50  1  0  0  0  0
 22 23  2  0  0  0  0
 23 24  1  0  0  0  0
 23 25  1  0  0  0  0
 24 51  1  0  0  0  0
 25 26  2  0  0  0  0
 25 52  1  0  0  0  0
 26 53  1  0  0  0  0
M  END
> <PUBCHEM_COMPOUND_CID>
9928332

> <PUBCHEM_COMPOUND_CANONICALIZED>
1

> <PUBCHEM_CACTVS_COMPLEXITY>
442

> <PUBCHEM_CACTVS_HBOND_ACCEPTOR>
3

> <PUBCHEM_CACTVS_HBOND_DONOR>
0

> <PUBCHEM_CACTVS_ROTATABLE_BOND>
6

> <PUBCHEM_CACTVS_SUBSKEYS>
AAADceB6MAAAAAAAAAAAAAAAAAAAASAAAAAwYMAAAAAAAEjB9AAAHgAAAAAADQThmAYyBsMABECIAqhSgAACCAAkIAAIiAEOCMgMJjKEtRuGOSCkwBGIqYeY2fKOwAABAAAYAACAAAYAADAAAAAAAAAAAA==

> <PUBCHEM_IUPAC_OPENEYE_NAME>
2-(benzofuran-6-yl)-N-[[(1R)-5-methoxytetralin-1-yl]methyl]-N-methyl-ethanamine

> <PUBCHEM_IUPAC_CAS_NAME>
2-(6-benzofuranyl)-N-[[(1R)-5-methoxy-1,2,3,4-tetrahydronaphthalen-1-yl]methyl]-N-methylethanamine

> <PUBCHEM_IUPAC_NAME_MARKUP>
2-(1-benzofuran-6-yl)-<I>N</I>-[[(1<I>R</I>)-5-methoxy-1,2,3,4-tetrahydronaphthalen-1-yl]methyl]-<I>N</I>-methylethanamine

> <PUBCHEM_IUPAC_NAME>
2-(1-benzofuran-6-yl)-N-[[(1R)-5-methoxy-1,2,3,4-tetrahydronaphthalen-1-yl]methyl]-N-methylethanamine

> <PUBCHEM_IUPAC_SYSTEMATIC_NAME>
2-(1-benzofuran-6-yl)-N-[[(1R)-5-methoxy-1,2,3,4-tetrahydronaphthalen-1-yl]methyl]-N-methyl-ethanamine

> <PUBCHEM_IUPAC_TRADITIONAL_NAME>
2-(benzofuran-6-yl)ethyl-[[(1R)-5-methoxytetralin-1-yl]methyl]-methyl-amine

> <PUBCHEM_IUPAC_INCHI>
InChI=1S/C23H27NO2/c1-24(13-11-17-9-10-18-12-14-26-23(18)15-17)16-19-5-3-7-21-20(19)6-4-8-22(21)25-2/h4,6,8-10,12,14-15,19H,3,5,7,11,13,16H2,1-2H3/t19-/m0/s1

> <PUBCHEM_IUPAC_INCHIKEY>
MHPMXTGKTXJIDI-IBGZPJMESA-N

> <PUBCHEM_XLOGP3_AA>
5.3

> <PUBCHEM_EXACT_MASS>
349.204179104

> <PUBCHEM_MOLECULAR_FORMULA>
C23H27NO2

> <PUBCHEM_MOLECULAR_WEIGHT>
349.5

> <PUBCHEM_OPENEYE_CAN_SMILES>
CN(CCC1=CC2=C(C=C1)C=CO2)CC3CCCC4=C3C=CC=C4OC

> <PUBCHEM_OPENEYE_ISO_SMILES>
CN(CCC1=CC2=C(C=C1)C=CO2)C[C@@H]3CCCC4=C3C=CC=C4OC

> <PUBCHEM_CACTVS_TPSA>
25.6

> <PUBCHEM_MONOISOTOPIC_WEIGHT>
349.204179104

> <PUBCHEM_TOTAL_CHARGE>
0

> <PUBCHEM_HEAVY_ATOM_COUNT>
26

> <PUBCHEM_ATOM_DEF_STEREO_COUNT>
1

> <PUBCHEM_ATOM_UDEF_STEREO_COUNT>
0

> <PUBCHEM_BOND_DEF_STEREO_COUNT>
0

> <PUBCHEM_BOND_UDEF_STEREO_COUNT>
0

> <PUBCHEM_ISOTOPIC_ATOM_COUNT>
0

> <PUBCHEM_COMPONENT_COUNT>
1

> <PUBCHEM_CACTVS_TAUTO_COUNT>
1

> <PUBCHEM_COORDINATE_TYPE>
1
5
255

> <PUBCHEM_BONDANNOTATIONS>
10  12  8
11  16  8
12  17  8
16  17  8
18  19  8
18  20  8
19  22  8
2  22  8
2  26  8
20  24  8
22  23  8
23  24  8
23  25  8
25  26  8
4  8  6
6  10  8
6  11  8

$$$$
