10426373
  -OEChem-09292322202D

 53 55  0     0  0  0  0  0  0999 V2000
    5.4641    1.0000    0.0000 O   0  0  0  0  0  0  0  0  0  0  0  0
    4.5981   -2.5000    0.0000 N   0  0  0  0  0  0  0  0  0  0  0  0
    4.5981   -0.5000    0.0000 C   0  0  0  0  0  0  0  0  0  0  0  0
    3.7320   -1.0000    0.0000 C   0  0  0  0  0  0  0  0  0  0  0  0
    5.4641   -1.0000    0.0000 C   0  0  0  0  0  0  0  0  0  0  0  0
    3.7320   -2.0000    0.0000 C   0  0  0  0  0  0  0  0  0  0  0  0
    5.4641   -2.0000    0.0000 C   0  0  0  0  0  0  0  0  0  0  0  0
    4.5981    0.5000    0.0000 C   0  0  0  0  0  0  0  0  0  0  0  0
    4.5981   -3.5000    0.0000 C   0  0  0  0  0  0  0  0  0  0  0  0
    3.7320   -4.0000    0.0000 C   0  0  0  0  0  0  0  0  0  0  0  0
    5.4641    2.0000    0.0000 C   0  0  0  0  0  0  0  0  0  0  0  0
    6.3301    2.5000    0.0000 C   0  0  0  0  0  0  0  0  0  0  0  0
    3.7320   -5.0000    0.0000 C   0  0  0  0  0  0  0  0  0  0  0  0
    2.8660   -3.5000    0.0000 C   0  0  0  0  0  0  0  0  0  0  0  0
    6.3301    3.5000    0.0000 C   0  0  0  0  0  0  0  0  0  0  0  0
    2.8660   -5.5000    0.0000 C   0  0  0  0  0  0  0  0  0  0  0  0
    2.0000   -4.0000    0.0000 C   0  0  0  0  0  0  0  0  0  0  0  0
    7.1962    4.0000    0.0000 C   0  0  0  0  0  0  0  0  0  0  0  0
    2.0000   -5.0000    0.0000 C   0  0  0  0  0  0  0  0  0  0  0  0
    7.1962    5.0000    0.0000 C   0  0  0  0  0  0  0  0  0  0  0  0
    8.0622    3.5000    0.0000 C   0  0  0  0  0  0  0  0  0  0  0  0
    8.0622    5.5000    0.0000 C   0  0  0  0  0  0  0  0  0  0  0  0
    8.9282    4.0000    0.0000 C   0  0  0  0  0  0  0  0  0  0  0  0
    8.9282    5.0000    0.0000 C   0  0  0  0  0  0  0  0  0  0  0  0
    5.1350   -0.1900    0.0000 H   0  0  0  0  0  0  0  0  0  0  0  0
    3.5200   -0.4174    0.0000 H   0  0  0  0  0  0  0  0  0  0  0  0
    3.1215   -1.1077    0.0000 H   0  0  0  0  0  0  0  0  0  0  0  0
    6.0747   -1.1077    0.0000 H   0  0  0  0  0  0  0  0  0  0  0  0
    5.6762   -0.4174    0.0000 H   0  0  0  0  0  0  0  0  0  0  0  0
    3.1215   -1.8923    0.0000 H   0  0  0  0  0  0  0  0  0  0  0  0
    3.5200   -2.5826    0.0000 H   0  0  0  0  0  0  0  0  0  0  0  0
    5.6762   -2.5826    0.0000 H   0  0  0  0  0  0  0  0  0  0  0  0
    6.0747   -1.8923    0.0000 H   0  0  0  0  0  0  0  0  0  0  0  0
    4.3860    1.0826    0.0000 H   0  0  0  0  0  0  0  0  0  0  0  0
    3.9875    0.3923    0.0000 H   0  0  0  0  0  0  0  0  0  0  0  0
    4.8101   -4.0826    0.0000 H   0  0  0  0  0  0  0  0  0  0  0  0
    5.2087   -3.3923    0.0000 H   0  0  0  0  0  0  0  0  0  0  0  0
    5.2520    2.5826    0.0000 H   0  0  0  0  0  0  0  0  0  0  0  0
    4.8535    1.8923    0.0000 H   0  0  0  0  0  0  0  0  0  0  0  0
    6.5422    1.9174    0.0000 H   0  0  0  0  0  0  0  0  0  0  0  0
    6.9407    2.6077    0.0000 H   0  0  0  0  0  0  0  0  0  0  0  0
    4.2690   -5.3100    0.0000 H   0  0  0  0  0  0  0  0  0  0  0  0
    2.8660   -2.8800    0.0000 H   0  0  0  0  0  0  0  0  0  0  0  0
    6.1181    4.0826    0.0000 H   0  0  0  0  0  0  0  0  0  0  0  0
    5.7196    3.3923    0.0000 H   0  0  0  0  0  0  0  0  0  0  0  0
    2.8660   -6.1200    0.0000 H   0  0  0  0  0  0  0  0  0  0  0  0
    1.4631   -3.6900    0.0000 H   0  0  0  0  0  0  0  0  0  0  0  0
    1.4631   -5.3100    0.0000 H   0  0  0  0  0  0  0  0  0  0  0  0
    6.6592    5.3100    0.0000 H   0  0  0  0  0  0  0  0  0  0  0  0
    8.0622    2.8800    0.0000 H   0  0  0  0  0  0  0  0  0  0  0  0
    8.0622    6.1200    0.0000 H   0  0  0  0  0  0  0  0  0  0  0  0
    9.4651    3.6900    0.0000 H   0  0  0  0  0  0  0  0  0  0  0  0
    9.4651    5.3100    0.0000 H   0  0  0  0  0  0  0  0  0  0  0  0
  1  8  1  0  0  0  0
  1 11  1  0  0  0  0
  2  6  1  0  0  0  0
  2  7  1  0  0  0  0
  2  9  1  0  0  0  0
  3  4  1  0  0  0  0
  3  5  1  0  0  0  0
  3  8  1  0  0  0  0
  3 25  1  0  0  0  0
  4  6  1  0  0  0  0
  4 26  1  0  0  0  0
  4 27  1  0  0  0  0
  5  7  1  0  0  0  0
  5 28  1  0  0  0  0
  5 29  1  0  0  0  0
  6 30  1  0  0  0  0
  6 31  1  0  0  0  0
  7 32  1  0  0  0  0
  7 33  1  0  0  0  0
  8 34  1  0  0  0  0
  8 35  1  0  0  0  0
  9 10  1  0  0  0  0
  9 36  1  0  0  0  0
  9 37  1  0  0  0  0
 10 13  2  0  0  0  0
 10 14  1  0  0  0  0
 11 12  1  0  0  0  0
 11 38  1  0  0  0  0
 11 39  1  0  0  0  0
 12 15  1  0  0  0  0
 12 40  1  0  0  0  0
 12 41  1  0  0  0  0
 13 16  1  0  0  0  0
 13 42  1  0  0  0  0
 14 17  2  0  0  0  0
 14 43  1  0  0  0  0
 15 18  1  0  0  0  0
 15 44  1  0  0  0  0
 15 45  1  0  0  0  0
 16 19  2  0  0  0  0
 16 46  1  0  0  0  0
 17 19  1  0  0  0  0
 17 47  1  0  0  0  0
 18 20  2  0  0  0  0
 18 21  1  0  0  0  0
 19 48  1  0  0  0  0
 20 22  1  0  0  0  0
 20 49  1  0  0  0  0
 21 23  2  0  0  0  0
 21 50  1  0  0  0  0
 22 24  2  0  0  0  0
 22 51  1  0  0  0  0
 23 24  1  0  0  0  0
 23 52  1  0  0  0  0
 24 53  1  0  0  0  0
M  END
> <PUBCHEM_COMPOUND_CID>
10426373

> <PUBCHEM_COMPOUND_CANONICALIZED>
1

> <PUBCHEM_CACTVS_COMPLEXITY>
312

> <PUBCHEM_CACTVS_HBOND_ACCEPTOR>
2

> <PUBCHEM_CACTVS_HBOND_DONOR>
0

> <PUBCHEM_CACTVS_ROTATABLE_BOND>
8

> <PUBCHEM_CACTVS_SUBSKEYS>
AAADceB6IAAAAAAAAAAAAAAAAAAAAAAAAAA8YIAAAAAAAAABQAAAHgAAAAAADQDhmAYwAIMABACAAiBCAACCAAAgAAAIiAAIBIgIICKAkRGGIAhkgACIiAewwKAOAAAAAAAAAAAAAAAAAAAAAAAAAAAAAA==

> <PUBCHEM_IUPAC_OPENEYE_NAME>
1-benzyl-4-(3-phenylpropoxymethyl)piperidine

> <PUBCHEM_IUPAC_CAS_NAME>
1-(phenylmethyl)-4-(3-phenylpropoxymethyl)piperidine

> <PUBCHEM_IUPAC_NAME_MARKUP>
1-benzyl-4-(3-phenylpropoxymethyl)piperidine

> <PUBCHEM_IUPAC_NAME>
1-benzyl-4-(3-phenylpropoxymethyl)piperidine

> <PUBCHEM_IUPAC_SYSTEMATIC_NAME>
1-(phenylmethyl)-4-(3-phenylpropoxymethyl)piperidine

> <PUBCHEM_IUPAC_TRADITIONAL_NAME>
1-benzyl-4-(3-phenylpropoxymethyl)piperidine

> <PUBCHEM_IUPAC_INCHI>
InChI=1S/C22H29NO/c1-3-8-20(9-4-1)12-7-17-24-19-22-13-15-23(16-14-22)18-21-10-5-2-6-11-21/h1-6,8-11,22H,7,12-19H2

> <PUBCHEM_IUPAC_INCHIKEY>
CSHFTPUNJFOMTD-UHFFFAOYSA-N

> <PUBCHEM_XLOGP3_AA>
4.7

> <PUBCHEM_EXACT_MASS>
323.224914549

> <PUBCHEM_MOLECULAR_FORMULA>
C22H29NO

> <PUBCHEM_MOLECULAR_WEIGHT>
323.5

> <PUBCHEM_OPENEYE_CAN_SMILES>
C1CN(CCC1COCCCC2=CC=CC=C2)CC3=CC=CC=C3

> <PUBCHEM_OPENEYE_ISO_SMILES>
C1CN(CCC1COCCCC2=CC=CC=C2)CC3=CC=CC=C3

> <PUBCHEM_CACTVS_TPSA>
12.5

> <PUBCHEM_MONOISOTOPIC_WEIGHT>
323.224914549

> <PUBCHEM_TOTAL_CHARGE>
0

> <PUBCHEM_HEAVY_ATOM_COUNT>
24

> <PUBCHEM_ATOM_DEF_STEREO_COUNT>
0

> <PUBCHEM_ATOM_UDEF_STEREO_COUNT>
0

> <PUBCHEM_BOND_DEF_STEREO_COUNT>
0

> <PUBCHEM_BOND_UDEF_STEREO_COUNT>
0

> <PUBCHEM_ISOTOPIC_ATOM_COUNT>
0

> <PUBCHEM_COMPONENT_COUNT>
1

> <PUBCHEM_CACTVS_TAUTO_COUNT>
-1

> <PUBCHEM_COORDINATE_TYPE>
1
5
255

> <PUBCHEM_BONDANNOTATIONS>
10  13  8
10  14  8
13  16  8
14  17  8
16  19  8
17  19  8
18  20  8
18  21  8
20  22  8
21  23  8
22  24  8
23  24  8

$$$$
