11429008
  -OEChem-09292322342D

 53 56  0     0  0  0  0  0  0999 V2000
   15.7882    0.5530    0.0000 S   0  0  0  0  0  0  0  0  0  0  0  0
    2.8660   -1.9470    0.0000 O   0  0  0  0  0  0  0  0  0  0  0  0
    8.0622    1.0530    0.0000 N   0  0  0  0  0  0  0  0  0  0  0  0
    6.3301    0.0530    0.0000 N   0  0  0  0  0  0  0  0  0  0  0  0
   14.2045    1.3577    0.0000 N   0  0  0  0  0  0  0  0  0  0  0  0
   14.2045   -0.2518    0.0000 N   0  0  0  0  0  0  0  0  0  0  0  0
    7.1962    1.5530    0.0000 C   0  0  0  0  0  0  0  0  0  0  0  0
    8.0622    0.0530    0.0000 C   0  0  0  0  0  0  0  0  0  0  0  0
    6.3301    1.0530    0.0000 C   0  0  0  0  0  0  0  0  0  0  0  0
    7.1962   -0.4470    0.0000 C   0  0  0  0  0  0  0  0  0  0  0  0
    8.9282    1.5530    0.0000 C   0  0  0  0  0  0  0  0  0  0  0  0
    9.7942    1.0530    0.0000 C   0  0  0  0  0  0  0  0  0  0  0  0
   10.6603    1.5530    0.0000 C   0  0  0  0  0  0  0  0  0  0  0  0
    5.4641   -0.4470    0.0000 C   0  0  0  0  0  0  0  0  0  0  0  0
   11.5263    1.0530    0.0000 C   0  0  0  0  0  0  0  0  0  0  0  0
    4.5981    0.0530    0.0000 C   0  0  0  0  0  0  0  0  0  0  0  0
    5.4641   -1.4470    0.0000 C   0  0  0  0  0  0  0  0  0  0  0  0
   12.3923    1.5530    0.0000 C   0  0  0  0  0  0  0  0  0  0  0  0
   11.5263    0.0530    0.0000 C   0  0  0  0  0  0  0  0  0  0  0  0
   13.2583    1.0530    0.0000 C   0  0  0  0  0  0  0  0  0  0  0  0
   13.2583    0.0530    0.0000 C   0  0  0  0  0  0  0  0  0  0  0  0
    3.7320   -0.4470    0.0000 C   0  0  0  0  0  0  0  0  0  0  0  0
    4.5981   -1.9470    0.0000 C   0  0  0  0  0  0  0  0  0  0  0  0
   12.3923   -0.4470    0.0000 C   0  0  0  0  0  0  0  0  0  0  0  0
    3.7320   -1.4470    0.0000 C   0  0  0  0  0  0  0  0  0  0  0  0
   14.7882    0.5530    0.0000 C   0  0  0  0  0  0  0  0  0  0  0  0
    2.0000   -1.4470    0.0000 C   0  0  0  0  0  0  0  0  0  0  0  0
    7.5947    2.0279    0.0000 H   0  0  0  0  0  0  0  0  0  0  0  0
    6.7976    2.0279    0.0000 H   0  0  0  0  0  0  0  0  0  0  0  0
    8.2742   -0.5296    0.0000 H   0  0  0  0  0  0  0  0  0  0  0  0
    8.6728    0.1606    0.0000 H   0  0  0  0  0  0  0  0  0  0  0  0
    6.1181    1.6356    0.0000 H   0  0  0  0  0  0  0  0  0  0  0  0
    5.7196    0.9453    0.0000 H   0  0  0  0  0  0  0  0  0  0  0  0
    6.7976   -0.9220    0.0000 H   0  0  0  0  0  0  0  0  0  0  0  0
    7.5947   -0.9220    0.0000 H   0  0  0  0  0  0  0  0  0  0  0  0
    9.3267    2.0279    0.0000 H   0  0  0  0  0  0  0  0  0  0  0  0
    8.5297    2.0279    0.0000 H   0  0  0  0  0  0  0  0  0  0  0  0
    9.3957    0.5780    0.0000 H   0  0  0  0  0  0  0  0  0  0  0  0
   10.1928    0.5780    0.0000 H   0  0  0  0  0  0  0  0  0  0  0  0
   11.0588    2.0279    0.0000 H   0  0  0  0  0  0  0  0  0  0  0  0
   10.2617    2.0279    0.0000 H   0  0  0  0  0  0  0  0  0  0  0  0
    4.5981    0.6730    0.0000 H   0  0  0  0  0  0  0  0  0  0  0  0
    6.0010   -1.7570    0.0000 H   0  0  0  0  0  0  0  0  0  0  0  0
   12.3923    2.1730    0.0000 H   0  0  0  0  0  0  0  0  0  0  0  0
   10.9893   -0.2570    0.0000 H   0  0  0  0  0  0  0  0  0  0  0  0
    3.1951   -0.1370    0.0000 H   0  0  0  0  0  0  0  0  0  0  0  0
    4.5981   -2.5670    0.0000 H   0  0  0  0  0  0  0  0  0  0  0  0
   12.3923   -1.0670    0.0000 H   0  0  0  0  0  0  0  0  0  0  0  0
   14.3972    1.9470    0.0000 H   0  0  0  0  0  0  0  0  0  0  0  0
   14.3972   -0.8411    0.0000 H   0  0  0  0  0  0  0  0  0  0  0  0
    2.3100   -0.9101    0.0000 H   0  0  0  0  0  0  0  0  0  0  0  0
    1.4631   -1.1370    0.0000 H   0  0  0  0  0  0  0  0  0  0  0  0
    1.6900   -1.9840    0.0000 H   0  0  0  0  0  0  0  0  0  0  0  0
  1 26  2  0  0  0  0
  2 25  1  0  0  0  0
  2 27  1  0  0  0  0
  3  7  1  0  0  0  0
  3  8  1  0  0  0  0
  3 11  1  0  0  0  0
  4  9  1  0  0  0  0
  4 10  1  0  0  0  0
  4 14  1  0  0  0  0
  5 20  1  0  0  0  0
  5 26  1  0  0  0  0
  5 49  1  0  0  0  0
  6 21  1  0  0  0  0
  6 26  1  0  0  0  0
  6 50  1  0  0  0  0
  7  9  1  0  0  0  0
  7 28  1  0  0  0  0
  7 29  1  0  0  0  0
  8 10  1  0  0  0  0
  8 30  1  0  0  0  0
  8 31  1  0  0  0  0
  9 32  1  0  0  0  0
  9 33  1  0  0  0  0
 10 34  1  0  0  0  0
 10 35  1  0  0  0  0
 11 12  1  0  0  0  0
 11 36  1  0  0  0  0
 11 37  1  0  0  0  0
 12 13  1  0  0  0  0
 12 38  1  0  0  0  0
 12 39  1  0  0  0  0
 13 15  1  0  0  0  0
 13 40  1  0  0  0  0
 13 41  1  0  0  0  0
 14 16  2  0  0  0  0
 14 17  1  0  0  0  0
 15 18  2  0  0  0  0
 15 19  1  0  0  0  0
 16 22  1  0  0  0  0
 16 42  1  0  0  0  0
 17 23  2  0  0  0  0
 17 43  1  0  0  0  0
 18 20  1  0  0  0  0
 18 44  1  0  0  0  0
 19 24  2  0  0  0  0
 19 45  1  0  0  0  0
 20 21  2  0  0  0  0
 21 24  1  0  0  0  0
 22 25  2  0  0  0  0
 22 46  1  0  0  0  0
 23 25  1  0  0  0  0
 23 47  1  0  0  0  0
 24 48  1  0  0  0  0
 27 51  1  0  0  0  0
 27 52  1  0  0  0  0
 27 53  1  0  0  0  0
M  END
> <PUBCHEM_COMPOUND_CID>
11429008

> <PUBCHEM_COMPOUND_CANONICALIZED>
1

> <PUBCHEM_CACTVS_COMPLEXITY>
489

> <PUBCHEM_CACTVS_HBOND_ACCEPTOR>
4

> <PUBCHEM_CACTVS_HBOND_DONOR>
2

> <PUBCHEM_CACTVS_ROTATABLE_BOND>
6

> <PUBCHEM_CACTVS_SUBSKEYS>
AAADceB7oABAAAAAAAAAAAAAAAAAAWAAAAA8YIAAAAAAAFgBQAAAHgQQAAAADAzBmAYzxoPABACEAiRCQACCCAAhIgkIiAAOfIiMZiLEsZuUMChs0BPI6CewwIAOCEAAQAAAACAQgACAAAAAQAAAAAAAAA==

> <PUBCHEM_IUPAC_OPENEYE_NAME>
5-[3-[4-(4-methoxyphenyl)piperazin-1-yl]propyl]-1,3-dihydrobenzimidazole-2-thione

> <PUBCHEM_IUPAC_CAS_NAME>
5-[3-[4-(4-methoxyphenyl)-1-piperazinyl]propyl]-1,3-dihydrobenzimidazole-2-thione

> <PUBCHEM_IUPAC_NAME_MARKUP>
5-[3-[4-(4-methoxyphenyl)piperazin-1-yl]propyl]-1,3-dihydrobenzimidazole-2-thione

> <PUBCHEM_IUPAC_NAME>
5-[3-[4-(4-methoxyphenyl)piperazin-1-yl]propyl]-1,3-dihydrobenzimidazole-2-thione

> <PUBCHEM_IUPAC_SYSTEMATIC_NAME>
5-[3-[4-(4-methoxyphenyl)piperazin-1-yl]propyl]-1,3-dihydrobenzimidazole-2-thione

> <PUBCHEM_IUPAC_TRADITIONAL_NAME>
5-[3-[4-(4-methoxyphenyl)piperazino]propyl]-1,3-dihydrobenzimidazole-2-thione

> <PUBCHEM_IUPAC_INCHI>
InChI=1S/C21H26N4OS/c1-26-18-7-5-17(6-8-18)25-13-11-24(12-14-25)10-2-3-16-4-9-19-20(15-16)23-21(27)22-19/h4-9,15H,2-3,10-14H2,1H3,(H2,22,23,27)

> <PUBCHEM_IUPAC_INCHIKEY>
CHOFOIZYGVGSTB-UHFFFAOYSA-N

> <PUBCHEM_XLOGP3_AA>
3.4

> <PUBCHEM_EXACT_MASS>
382.18273264

> <PUBCHEM_MOLECULAR_FORMULA>
C21H26N4OS

> <PUBCHEM_MOLECULAR_WEIGHT>
382.5

> <PUBCHEM_OPENEYE_CAN_SMILES>
COC1=CC=C(C=C1)N2CCN(CC2)CCCC3=CC4=C(C=C3)NC(=S)N4

> <PUBCHEM_OPENEYE_ISO_SMILES>
COC1=CC=C(C=C1)N2CCN(CC2)CCCC3=CC4=C(C=C3)NC(=S)N4

> <PUBCHEM_CACTVS_TPSA>
71.9

> <PUBCHEM_MONOISOTOPIC_WEIGHT>
382.18273264

> <PUBCHEM_TOTAL_CHARGE>
0

> <PUBCHEM_HEAVY_ATOM_COUNT>
27

> <PUBCHEM_ATOM_DEF_STEREO_COUNT>
0

> <PUBCHEM_ATOM_UDEF_STEREO_COUNT>
0

> <PUBCHEM_BOND_DEF_STEREO_COUNT>
0

> <PUBCHEM_BOND_UDEF_STEREO_COUNT>
0

> <PUBCHEM_ISOTOPIC_ATOM_COUNT>
0

> <PUBCHEM_COMPONENT_COUNT>
1

> <PUBCHEM_CACTVS_TAUTO_COUNT>
-1

> <PUBCHEM_COORDINATE_TYPE>
1
5
255

> <PUBCHEM_BONDANNOTATIONS>
14  16  8
14  17  8
15  18  8
15  19  8
16  22  8
17  23  8
18  20  8
19  24  8
20  21  8
21  24  8
22  25  8
23  25  8
5  20  8
5  26  8
6  21  8
6  26  8

$$$$
