142590721
  -OEChem-09292322462D

 63 66  0     1  0  0  0  0  0999 V2000
    7.1962    2.5000    0.0000 S   0  0  3  0  0  0  0  0  0  0  0  0
    2.0000   -5.5000    0.0000 F   0  0  0  0  0  0  0  0  0  0  0  0
   10.6603    5.5000    0.0000 F   0  0  0  0  0  0  0  0  0  0  0  0
    3.7320    5.5000    0.0000 F   0  0  0  0  0  0  0  0  0  0  0  0
    8.0622    2.0000    0.0000 O   0  0  0  0  0  0  0  0  0  0  0  0
    5.4641   -2.5000    0.0000 N   0  0  0  0  0  0  0  0  0  0  0  0
    5.4641    0.5000    0.0000 N   0  0  0  0  0  0  0  0  0  0  0  0
    5.4641   -0.5000    0.0000 C   0  0  0  0  0  0  0  0  0  0  0  0
    4.5981   -1.0000    0.0000 C   0  0  0  0  0  0  0  0  0  0  0  0
    6.3301   -1.0000    0.0000 C   0  0  0  0  0  0  0  0  0  0  0  0
    4.5981   -2.0000    0.0000 C   0  0  0  0  0  0  0  0  0  0  0  0
    6.3301   -2.0000    0.0000 C   0  0  0  0  0  0  0  0  0  0  0  0
    5.4641   -3.5000    0.0000 C   0  0  0  0  0  0  0  0  0  0  0  0
    6.3301    1.0000    0.0000 C   0  0  0  0  0  0  0  0  0  0  0  0
    6.3301    2.0000    0.0000 C   0  0  0  0  0  0  0  0  0  0  0  0
    4.5981   -4.0000    0.0000 C   0  0  0  0  0  0  0  0  0  0  0  0
    7.1962    3.5000    0.0000 C   0  0  0  0  0  0  0  0  0  0  0  0
    4.5981   -5.0000    0.0000 C   0  0  0  0  0  0  0  0  0  0  0  0
    3.7320   -3.5000    0.0000 C   0  0  0  0  0  0  0  0  0  0  0  0
    8.0622    4.0000    0.0000 C   0  0  0  0  0  0  0  0  0  0  0  0
    6.3301    4.0000    0.0000 C   0  0  0  0  0  0  0  0  0  0  0  0
    3.7320   -5.5000    0.0000 C   0  0  0  0  0  0  0  0  0  0  0  0
    2.8660   -4.0000    0.0000 C   0  0  0  0  0  0  0  0  0  0  0  0
    2.8660   -5.0000    0.0000 C   0  0  0  0  0  0  0  0  0  0  0  0
    8.9282    3.5000    0.0000 C   0  0  0  0  0  0  0  0  0  0  0  0
    5.4641    3.5000    0.0000 C   0  0  0  0  0  0  0  0  0  0  0  0
    8.0622    5.0000    0.0000 C   0  0  0  0  0  0  0  0  0  0  0  0
    6.3301    5.0000    0.0000 C   0  0  0  0  0  0  0  0  0  0  0  0
    9.7942    4.0000    0.0000 C   0  0  0  0  0  0  0  0  0  0  0  0
    4.5981    4.0000    0.0000 C   0  0  0  0  0  0  0  0  0  0  0  0
    8.9282    5.5000    0.0000 C   0  0  0  0  0  0  0  0  0  0  0  0
    5.4641    5.5000    0.0000 C   0  0  0  0  0  0  0  0  0  0  0  0
    9.7942    5.0000    0.0000 C   0  0  0  0  0  0  0  0  0  0  0  0
    4.5981    5.0000    0.0000 C   0  0  0  0  0  0  0  0  0  0  0  0
    6.0010   -0.1900    0.0000 H   0  0  0  0  0  0  0  0  0  0  0  0
    4.3860   -0.4174    0.0000 H   0  0  0  0  0  0  0  0  0  0  0  0
    3.9875   -1.1077    0.0000 H   0  0  0  0  0  0  0  0  0  0  0  0
    6.9407   -1.1077    0.0000 H   0  0  0  0  0  0  0  0  0  0  0  0
    6.5422   -0.4174    0.0000 H   0  0  0  0  0  0  0  0  0  0  0  0
    3.9875   -1.8923    0.0000 H   0  0  0  0  0  0  0  0  0  0  0  0
    4.3860   -2.5826    0.0000 H   0  0  0  0  0  0  0  0  0  0  0  0
    6.5422   -2.5826    0.0000 H   0  0  0  0  0  0  0  0  0  0  0  0
    6.9407   -1.8923    0.0000 H   0  0  0  0  0  0  0  0  0  0  0  0
    4.9272    0.8100    0.0000 H   0  0  0  0  0  0  0  0  0  0  0  0
    5.6762   -4.0826    0.0000 H   0  0  0  0  0  0  0  0  0  0  0  0
    6.0747   -3.3923    0.0000 H   0  0  0  0  0  0  0  0  0  0  0  0
    6.5422    0.4174    0.0000 H   0  0  0  0  0  0  0  0  0  0  0  0
    6.9407    1.1077    0.0000 H   0  0  0  0  0  0  0  0  0  0  0  0
    6.1181    2.5826    0.0000 H   0  0  0  0  0  0  0  0  0  0  0  0
    5.7196    1.8923    0.0000 H   0  0  0  0  0  0  0  0  0  0  0  0
    6.6592    3.1900    0.0000 H   0  0  0  0  0  0  0  0  0  0  0  0
    5.1350   -5.3100    0.0000 H   0  0  0  0  0  0  0  0  0  0  0  0
    3.7320   -2.8800    0.0000 H   0  0  0  0  0  0  0  0  0  0  0  0
    3.7320   -6.1200    0.0000 H   0  0  0  0  0  0  0  0  0  0  0  0
    2.3291   -3.6900    0.0000 H   0  0  0  0  0  0  0  0  0  0  0  0
    8.9282    2.8800    0.0000 H   0  0  0  0  0  0  0  0  0  0  0  0
    5.4641    2.8800    0.0000 H   0  0  0  0  0  0  0  0  0  0  0  0
    7.5252    5.3100    0.0000 H   0  0  0  0  0  0  0  0  0  0  0  0
    6.8671    5.3100    0.0000 H   0  0  0  0  0  0  0  0  0  0  0  0
   10.3312    3.6900    0.0000 H   0  0  0  0  0  0  0  0  0  0  0  0
    4.0611    3.6900    0.0000 H   0  0  0  0  0  0  0  0  0  0  0  0
    8.9282    6.1200    0.0000 H   0  0  0  0  0  0  0  0  0  0  0  0
    5.4641    6.1200    0.0000 H   0  0  0  0  0  0  0  0  0  0  0  0
  1  5  2  0  0  0  0
  1 15  1  0  0  0  0
  1 17  1  0  0  0  0
  2 24  1  0  0  0  0
  3 33  1  0  0  0  0
  4 34  1  0  0  0  0
  6 11  1  0  0  0  0
  6 12  1  0  0  0  0
  6 13  1  0  0  0  0
  7  8  1  0  0  0  0
  7 14  1  0  0  0  0
  7 44  1  0  0  0  0
  8  9  1  0  0  0  0
  8 10  1  0  0  0  0
  8 35  1  0  0  0  0
  9 11  1  0  0  0  0
  9 36  1  0  0  0  0
  9 37  1  0  0  0  0
 10 12  1  0  0  0  0
 10 38  1  0  0  0  0
 10 39  1  0  0  0  0
 11 40  1  0  0  0  0
 11 41  1  0  0  0  0
 12 42  1  0  0  0  0
 12 43  1  0  0  0  0
 13 16  1  0  0  0  0
 13 45  1  0  0  0  0
 13 46  1  0  0  0  0
 14 15  1  0  0  0  0
 14 47  1  0  0  0  0
 14 48  1  0  0  0  0
 15 49  1  0  0  0  0
 15 50  1  0  0  0  0
 16 18  2  0  0  0  0
 16 19  1  0  0  0  0
 17 20  1  0  0  0  0
 17 21  1  0  0  0  0
 17 51  1  0  0  0  0
 18 22  1  0  0  0  0
 18 52  1  0  0  0  0
 19 23  2  0  0  0  0
 19 53  1  0  0  0  0
 20 25  2  0  0  0  0
 20 27  1  0  0  0  0
 21 26  2  0  0  0  0
 21 28  1  0  0  0  0
 22 24  2  0  0  0  0
 22 54  1  0  0  0  0
 23 24  1  0  0  0  0
 23 55  1  0  0  0  0
 25 29  1  0  0  0  0
 25 56  1  0  0  0  0
 26 30  1  0  0  0  0
 26 57  1  0  0  0  0
 27 31  2  0  0  0  0
 27 58  1  0  0  0  0
 28 32  2  0  0  0  0
 28 59  1  0  0  0  0
 29 33  2  0  0  0  0
 29 60  1  0  0  0  0
 30 34  2  0  0  0  0
 30 61  1  0  0  0  0
 31 33  1  0  0  0  0
 31 62  1  0  0  0  0
 32 34  1  0  0  0  0
 32 63  1  0  0  0  0
M  END
> <PUBCHEM_COMPOUND_CID>
142590721

> <PUBCHEM_COMPOUND_CANONICALIZED>
1

> <PUBCHEM_CACTVS_COMPLEXITY>
587

> <PUBCHEM_CACTVS_HBOND_ACCEPTOR>
7

> <PUBCHEM_CACTVS_HBOND_DONOR>
1

> <PUBCHEM_CACTVS_ROTATABLE_BOND>
9

> <PUBCHEM_CACTVS_SUBSKEYS>
AAADceB7IYBAAAAAAAAAAAAAAAAAAAAAAAA8YMEAAAAAAAABUAAAHQQQAAAADCjFWAywAIPAAAqAAiBCAEDCAAAgABAIiIAIBIgIICKg0RGEIAhgkACoiAcQgMAOAAAAAAAAAAAAAAAAAAAAAAAAAAAAAA==

> <PUBCHEM_IUPAC_OPENEYE_NAME>
N-[2-[bis(4-fluorophenyl)methylsulfinyl]ethyl]-1-[(4-fluorophenyl)methyl]piperidin-4-amine

> <PUBCHEM_IUPAC_CAS_NAME>
N-[2-[bis(4-fluorophenyl)methylsulfinyl]ethyl]-1-[(4-fluorophenyl)methyl]-4-piperidinamine

> <PUBCHEM_IUPAC_NAME_MARKUP>
<I>N</I>-[2-[bis(4-fluorophenyl)methylsulfinyl]ethyl]-1-[(4-fluorophenyl)methyl]piperidin-4-amine

> <PUBCHEM_IUPAC_NAME>
N-[2-[bis(4-fluorophenyl)methylsulfinyl]ethyl]-1-[(4-fluorophenyl)methyl]piperidin-4-amine

> <PUBCHEM_IUPAC_SYSTEMATIC_NAME>
N-[2-[bis(4-fluorophenyl)methylsulfinyl]ethyl]-1-[(4-fluorophenyl)methyl]piperidin-4-amine

> <PUBCHEM_IUPAC_TRADITIONAL_NAME>
2-[bis(4-fluorophenyl)methylsulfinyl]ethyl-[1-(4-fluorobenzyl)-4-piperidyl]amine

> <PUBCHEM_IUPAC_INCHI>
InChI=1S/C27H29F3N2OS/c28-23-7-1-20(2-8-23)19-32-16-13-26(14-17-32)31-15-18-34(33)27(21-3-9-24(29)10-4-21)22-5-11-25(30)12-6-22/h1-12,26-27,31H,13-19H2

> <PUBCHEM_IUPAC_INCHIKEY>
FECGZFUZXKQCAY-UHFFFAOYSA-N

> <PUBCHEM_XLOGP3_AA>
5.1

> <PUBCHEM_EXACT_MASS>
486.19526921

> <PUBCHEM_MOLECULAR_FORMULA>
C27H29F3N2OS

> <PUBCHEM_MOLECULAR_WEIGHT>
486.6

> <PUBCHEM_OPENEYE_CAN_SMILES>
C1CN(CCC1NCCS(=O)C(C2=CC=C(C=C2)F)C3=CC=C(C=C3)F)CC4=CC=C(C=C4)F

> <PUBCHEM_OPENEYE_ISO_SMILES>
C1CN(CCC1NCCS(=O)C(C2=CC=C(C=C2)F)C3=CC=C(C=C3)F)CC4=CC=C(C=C4)F

> <PUBCHEM_CACTVS_TPSA>
51.6

> <PUBCHEM_MONOISOTOPIC_WEIGHT>
486.19526921

> <PUBCHEM_TOTAL_CHARGE>
0

> <PUBCHEM_HEAVY_ATOM_COUNT>
34

> <PUBCHEM_ATOM_DEF_STEREO_COUNT>
0

> <PUBCHEM_ATOM_UDEF_STEREO_COUNT>
1

> <PUBCHEM_BOND_DEF_STEREO_COUNT>
0

> <PUBCHEM_BOND_UDEF_STEREO_COUNT>
0

> <PUBCHEM_ISOTOPIC_ATOM_COUNT>
0

> <PUBCHEM_COMPONENT_COUNT>
1

> <PUBCHEM_CACTVS_TAUTO_COUNT>
-1

> <PUBCHEM_COORDINATE_TYPE>
1
5
255

> <PUBCHEM_BONDANNOTATIONS>
1  15  3
16  18  8
16  19  8
18  22  8
19  23  8
20  25  8
20  27  8
21  26  8
21  28  8
22  24  8
23  24  8
25  29  8
26  30  8
27  31  8
28  32  8
29  33  8
30  34  8
31  33  8
32  34  8

$$$$
