24901347
  -OEChem-09292322042D

 62 65  0     1  0  0  0  0  0999 V2000
   12.4725   -3.7903    0.0000 S   0  0  0  0  0  0  0  0  0  0  0  0
   11.5263   -2.0950    0.0000 O   0  0  0  0  0  0  0  0  0  0  0  0
   10.6603   -6.5950    0.0000 O   0  0  0  0  0  0  0  0  0  0  0  0
   14.0561   -4.5950    0.0000 O   0  0  0  0  0  0  0  0  0  0  0  0
    9.7942   -1.0950    0.0000 N   0  0  0  0  0  0  0  0  0  0  0  0
    5.4641    3.4050    0.0000 N   0  0  0  0  0  0  0  0  0  0  0  0
   12.4725   -5.3997    0.0000 N   0  0  0  0  0  0  0  0  0  0  0  0
   10.6603   -2.5950    0.0000 C   0  0  1  0  0  0  0  0  0  0  0  0
    9.7942   -2.0950    0.0000 C   0  0  0  0  0  0  0  0  0  0  0  0
   10.6603   -3.5950    0.0000 C   0  0  0  0  0  0  0  0  0  0  0  0
    8.9282   -0.5950    0.0000 C   0  0  0  0  0  0  0  0  0  0  0  0
    8.9282    0.4050    0.0000 C   0  0  0  0  0  0  0  0  0  0  0  0
   11.5263   -4.0950    0.0000 C   0  0  0  0  0  0  0  0  0  0  0  0
    8.0622    0.9050    0.0000 C   0  0  0  0  0  0  0  0  0  0  0  0
   11.5263   -5.0950    0.0000 C   0  0  0  0  0  0  0  0  0  0  0  0
    9.7942   -4.0950    0.0000 C   0  0  0  0  0  0  0  0  0  0  0  0
    6.3301    1.9050    0.0000 C   0  0  0  0  0  0  0  0  0  0  0  0
    5.4641    2.4050    0.0000 C   0  0  0  0  0  0  0  0  0  0  0  0
    7.1962    0.4050    0.0000 C   0  0  0  0  0  0  0  0  0  0  0  0
    8.0622    1.9050    0.0000 C   0  0  0  0  0  0  0  0  0  0  0  0
   10.6603   -5.5950    0.0000 C   0  0  0  0  0  0  0  0  0  0  0  0
    9.7942   -5.0950    0.0000 C   0  0  0  0  0  0  0  0  0  0  0  0
    4.5981    3.9050    0.0000 C   0  0  0  0  0  0  0  0  0  0  0  0
    6.3301    0.9050    0.0000 C   0  0  0  0  0  0  0  0  0  0  0  0
    7.1962    2.4050    0.0000 C   0  0  0  0  0  0  0  0  0  0  0  0
    4.5981    4.9050    0.0000 C   0  0  0  0  0  0  0  0  0  0  0  0
   13.0561   -4.5950    0.0000 C   0  0  0  0  0  0  0  0  0  0  0  0
    3.7320    5.4050    0.0000 C   0  0  0  0  0  0  0  0  0  0  0  0
    3.7320    6.4050    0.0000 C   0  0  0  0  0  0  0  0  0  0  0  0
    2.8660    4.9050    0.0000 C   0  0  0  0  0  0  0  0  0  0  0  0
    2.8660    6.9050    0.0000 C   0  0  0  0  0  0  0  0  0  0  0  0
    2.0000    5.4050    0.0000 C   0  0  0  0  0  0  0  0  0  0  0  0
    2.0000    6.4050    0.0000 C   0  0  0  0  0  0  0  0  0  0  0  0
   11.1972   -2.9050    0.0000 H   0  0  0  0  0  0  0  0  0  0  0  0
    9.1836   -1.9873    0.0000 H   0  0  0  0  0  0  0  0  0  0  0  0
    9.5822   -2.6776    0.0000 H   0  0  0  0  0  0  0  0  0  0  0  0
    8.3176   -0.4873    0.0000 H   0  0  0  0  0  0  0  0  0  0  0  0
    8.7162   -1.1776    0.0000 H   0  0  0  0  0  0  0  0  0  0  0  0
    9.5388    0.2973    0.0000 H   0  0  0  0  0  0  0  0  0  0  0  0
    9.1403    0.9876    0.0000 H   0  0  0  0  0  0  0  0  0  0  0  0
   10.3312   -0.7850    0.0000 H   0  0  0  0  0  0  0  0  0  0  0  0
    9.2573   -3.7850    0.0000 H   0  0  0  0  0  0  0  0  0  0  0  0
    4.8535    2.5127    0.0000 H   0  0  0  0  0  0  0  0  0  0  0  0
    5.2520    1.8224    0.0000 H   0  0  0  0  0  0  0  0  0  0  0  0
    7.1962   -0.2150    0.0000 H   0  0  0  0  0  0  0  0  0  0  0  0
    8.5991    2.2150    0.0000 H   0  0  0  0  0  0  0  0  0  0  0  0
    3.9875    4.0127    0.0000 H   0  0  0  0  0  0  0  0  0  0  0  0
    4.3860    3.3224    0.0000 H   0  0  0  0  0  0  0  0  0  0  0  0
    9.2573   -5.4050    0.0000 H   0  0  0  0  0  0  0  0  0  0  0  0
    5.7932    0.5950    0.0000 H   0  0  0  0  0  0  0  0  0  0  0  0
    7.1962    3.0250    0.0000 H   0  0  0  0  0  0  0  0  0  0  0  0
    6.0010    3.7150    0.0000 H   0  0  0  0  0  0  0  0  0  0  0  0
    5.2087    4.7973    0.0000 H   0  0  0  0  0  0  0  0  0  0  0  0
    4.8101    5.4876    0.0000 H   0  0  0  0  0  0  0  0  0  0  0  0
   12.6651   -5.9891    0.0000 H   0  0  0  0  0  0  0  0  0  0  0  0
   11.5263   -1.4750    0.0000 H   0  0  0  0  0  0  0  0  0  0  0  0
    4.2690    6.7150    0.0000 H   0  0  0  0  0  0  0  0  0  0  0  0
    2.8660    4.2850    0.0000 H   0  0  0  0  0  0  0  0  0  0  0  0
   10.1233   -6.9050    0.0000 H   0  0  0  0  0  0  0  0  0  0  0  0
    2.8660    7.5250    0.0000 H   0  0  0  0  0  0  0  0  0  0  0  0
    1.4631    5.0950    0.0000 H   0  0  0  0  0  0  0  0  0  0  0  0
    1.4631    6.7150    0.0000 H   0  0  0  0  0  0  0  0  0  0  0  0
  1 13  1  0  0  0  0
  1 27  1  0  0  0  0
  8  2  1  6  0  0  0
  2 56  1  0  0  0  0
  3 21  1  0  0  0  0
  3 59  1  0  0  0  0
  4 27  2  0  0  0  0
  5  9  1  0  0  0  0
  5 11  1  0  0  0  0
  5 41  1  0  0  0  0
  6 18  1  0  0  0  0
  6 23  1  0  0  0  0
  6 52  1  0  0  0  0
  7 15  1  0  0  0  0
  7 27  1  0  0  0  0
  7 55  1  0  0  0  0
  8  9  1  0  0  0  0
  8 10  1  0  0  0  0
  8 34  1  0  0  0  0
  9 35  1  0  0  0  0
  9 36  1  0  0  0  0
 10 13  2  0  0  0  0
 10 16  1  0  0  0  0
 11 12  1  0  0  0  0
 11 37  1  0  0  0  0
 11 38  1  0  0  0  0
 12 14  1  0  0  0  0
 12 39  1  0  0  0  0
 12 40  1  0  0  0  0
 13 15  1  0  0  0  0
 14 19  2  0  0  0  0
 14 20  1  0  0  0  0
 15 21  2  0  0  0  0
 16 22  2  0  0  0  0
 16 42  1  0  0  0  0
 17 18  1  0  0  0  0
 17 24  2  0  0  0  0
 17 25  1  0  0  0  0
 18 43  1  0  0  0  0
 18 44  1  0  0  0  0
 19 24  1  0  0  0  0
 19 45  1  0  0  0  0
 20 25  2  0  0  0  0
 20 46  1  0  0  0  0
 21 22  1  0  0  0  0
 22 49  1  0  0  0  0
 23 26  1  0  0  0  0
 23 47  1  0  0  0  0
 23 48  1  0  0  0  0
 24 50  1  0  0  0  0
 25 51  1  0  0  0  0
 26 28  1  0  0  0  0
 26 53  1  0  0  0  0
 26 54  1  0  0  0  0
 28 29  2  0  0  0  0
 28 30  1  0  0  0  0
 29 31  1  0  0  0  0
 29 57  1  0  0  0  0
 30 32  2  0  0  0  0
 30 58  1  0  0  0  0
 31 33  2  0  0  0  0
 31 60  1  0  0  0  0
 32 33  1  0  0  0  0
 32 61  1  0  0  0  0
 33 62  1  0  0  0  0
M  END
> <PUBCHEM_COMPOUND_CID>
24901347

> <PUBCHEM_COMPOUND_CANONICALIZED>
1

> <PUBCHEM_CACTVS_COMPLEXITY>
595

> <PUBCHEM_CACTVS_HBOND_ACCEPTOR>
6

> <PUBCHEM_CACTVS_HBOND_DONOR>
5

> <PUBCHEM_CACTVS_ROTATABLE_BOND>
11

> <PUBCHEM_CACTVS_SUBSKEYS>
AAADceB7MABAAAAAAAAAAAAAAAAAAWAAAAAwYMAAAAAAAFgBUAAAHgQQCAAADBzh2AYwx4LAAgiIAiRCUACCAABhKBAIiJQPTIgKNiLykZOEcAhk1BHY2Aew4OQOYAAARAAEEQDAAACIAAgiAAAAAAAAAA==

> <PUBCHEM_IUPAC_OPENEYE_NAME>
4-hydroxy-7-[(1R)-1-hydroxy-2-[2-[4-[(2-phenylethylamino)methyl]phenyl]ethylamino]ethyl]-3H-1,3-benzothiazol-2-one

> <PUBCHEM_IUPAC_CAS_NAME>
4-hydroxy-7-[(1R)-1-hydroxy-2-[2-[4-[(2-phenylethylamino)methyl]phenyl]ethylamino]ethyl]-3H-1,3-benzothiazol-2-one

> <PUBCHEM_IUPAC_NAME_MARKUP>
4-hydroxy-7-[(1<I>R</I>)-1-hydroxy-2-[2-[4-[(2-phenylethylamino)methyl]phenyl]ethylamino]ethyl]-3<I>H</I>-1,3-benzothiazol-2-one

> <PUBCHEM_IUPAC_NAME>
4-hydroxy-7-[(1R)-1-hydroxy-2-[2-[4-[(2-phenylethylamino)methyl]phenyl]ethylamino]ethyl]-3H-1,3-benzothiazol-2-one

> <PUBCHEM_IUPAC_SYSTEMATIC_NAME>
4-oxidanyl-7-[(1R)-1-oxidanyl-2-[2-[4-[(2-phenylethylamino)methyl]phenyl]ethylamino]ethyl]-3H-1,3-benzothiazol-2-one

> <PUBCHEM_IUPAC_TRADITIONAL_NAME>
4-hydroxy-7-[(1R)-1-hydroxy-2-[2-[4-[(phenethylamino)methyl]phenyl]ethylamino]ethyl]-3H-1,3-benzothiazol-2-one

> <PUBCHEM_IUPAC_INCHI>
InChI=1S/C26H29N3O3S/c30-22-11-10-21(25-24(22)29-26(32)33-25)23(31)17-28-15-13-19-6-8-20(9-7-19)16-27-14-12-18-4-2-1-3-5-18/h1-11,23,27-28,30-31H,12-17H2,(H,29,32)/t23-/m0/s1

> <PUBCHEM_IUPAC_INCHIKEY>
IYDIXGIHBUITOM-QHCPKHFHSA-N

> <PUBCHEM_XLOGP3_AA>
3.3

> <PUBCHEM_EXACT_MASS>
463.19296297

> <PUBCHEM_MOLECULAR_FORMULA>
C26H29N3O3S

> <PUBCHEM_MOLECULAR_WEIGHT>
463.6

> <PUBCHEM_OPENEYE_CAN_SMILES>
C1=CC=C(C=C1)CCNCC2=CC=C(C=C2)CCNCC(C3=C4C(=C(C=C3)O)NC(=O)S4)O

> <PUBCHEM_OPENEYE_ISO_SMILES>
C1=CC=C(C=C1)CCNCC2=CC=C(C=C2)CCNC[C@@H](C3=C4C(=C(C=C3)O)NC(=O)S4)O

> <PUBCHEM_CACTVS_TPSA>
119

> <PUBCHEM_MONOISOTOPIC_WEIGHT>
463.19296297

> <PUBCHEM_TOTAL_CHARGE>
0

> <PUBCHEM_HEAVY_ATOM_COUNT>
33

> <PUBCHEM_ATOM_DEF_STEREO_COUNT>
1

> <PUBCHEM_ATOM_UDEF_STEREO_COUNT>
0

> <PUBCHEM_BOND_DEF_STEREO_COUNT>
0

> <PUBCHEM_BOND_UDEF_STEREO_COUNT>
0

> <PUBCHEM_ISOTOPIC_ATOM_COUNT>
0

> <PUBCHEM_COMPONENT_COUNT>
1

> <PUBCHEM_CACTVS_TAUTO_COUNT>
-1

> <PUBCHEM_COORDINATE_TYPE>
1
5
255

> <PUBCHEM_BONDANNOTATIONS>
1  13  8
1  27  8
10  13  8
10  16  8
13  15  8
14  19  8
14  20  8
15  21  8
16  22  8
17  24  8
17  25  8
19  24  8
8  2  6
20  25  8
21  22  8
28  29  8
28  30  8
29  31  8
30  32  8
31  33  8
32  33  8
7  15  8
7  27  8

$$$$
