155539246
  -OEChem-09292322412D

 59 61  0     1  0  0  0  0  0999 V2000
   12.6064    6.7478    0.0000 Cl  0  0  0  0  0  0  0  0  0  0  0  0
    6.2331    8.9860    0.0000 S   0  0  0  0  0  0  0  0  0  0  0  0
    4.8671    0.6200    0.0000 F   0  0  0  0  0  0  0  0  0  0  0  0
    1.4030    2.6200    0.0000 O   0  0  0  0  0  0  0  0  0  0  0  0
    4.5010    5.9860    0.0000 N   0  0  0  0  0  0  0  0  0  0  0  0
    7.2036   10.4805    0.0000 N   0  0  0  0  0  0  0  0  0  0  0  0
    8.0127    9.0793    0.0000 N   0  0  0  0  0  0  0  0  0  0  0  0
    8.6818    9.8224    0.0000 N   0  0  0  0  0  0  0  0  0  0  0  0
    3.6350    4.4860    0.0000 C   0  0  3  0  0  0  0  0  0  0  0  0
    3.1350    3.6200    0.0000 C   0  0  3  0  0  0  0  0  0  0  0  0
    2.6350    4.4860    0.0000 C   0  0  0  0  0  0  0  0  0  0  0  0
    4.5010    4.9860    0.0000 C   0  0  0  0  0  0  0  0  0  0  0  0
    3.1350    2.6200    0.0000 C   0  0  0  0  0  0  0  0  0  0  0  0
    2.2690    2.1200    0.0000 C   0  0  0  0  0  0  0  0  0  0  0  0
    4.0010    2.1200    0.0000 C   0  0  0  0  0  0  0  0  0  0  0  0
    5.3671    6.4860    0.0000 C   0  0  0  0  0  0  0  0  0  0  0  0
    2.2690    1.1200    0.0000 C   0  0  0  0  0  0  0  0  0  0  0  0
    4.0010    1.1200    0.0000 C   0  0  0  0  0  0  0  0  0  0  0  0
    5.3671    7.4860    0.0000 C   0  0  0  0  0  0  0  0  0  0  0  0
    3.1350    0.6200    0.0000 C   0  0  0  0  0  0  0  0  0  0  0  0
    6.2331    7.9860    0.0000 C   0  0  0  0  0  0  0  0  0  0  0  0
    0.5369    2.1200    0.0000 C   0  0  0  0  0  0  0  0  0  0  0  0
    7.0991    9.4860    0.0000 C   0  0  0  0  0  0  0  0  0  0  0  0
    8.1818   10.6885    0.0000 C   0  0  0  0  0  0  0  0  0  0  0  0
    6.4605   11.1497    0.0000 C   0  0  0  0  0  0  0  0  0  0  0  0
    8.5885   11.6020    0.0000 C   0  0  0  0  0  0  0  0  0  0  0  0
    8.0007   12.4110    0.0000 C   0  0  0  0  0  0  0  0  0  0  0  0
    9.5830   11.7065    0.0000 C   0  0  0  0  0  0  0  0  0  0  0  0
    8.4075   13.3246    0.0000 C   0  0  0  0  0  0  0  0  0  0  0  0
    9.9898   12.6201    0.0000 C   0  0  0  0  0  0  0  0  0  0  0  0
    9.4020   13.4291    0.0000 C   0  0  0  0  0  0  0  0  0  0  0  0
    3.4745    5.0849    0.0000 H   0  0  0  0  0  0  0  0  0  0  0  0
    3.7339    3.4595    0.0000 H   0  0  0  0  0  0  0  0  0  0  0  0
    2.5274    5.0966    0.0000 H   0  0  0  0  0  0  0  0  0  0  0  0
    2.0524    4.2740    0.0000 H   0  0  0  0  0  0  0  0  0  0  0  0
    4.7131    4.4034    0.0000 H   0  0  0  0  0  0  0  0  0  0  0  0
    5.1116    5.0937    0.0000 H   0  0  0  0  0  0  0  0  0  0  0  0
    3.9641    6.2960    0.0000 H   0  0  0  0  0  0  0  0  0  0  0  0
    4.5380    2.4300    0.0000 H   0  0  0  0  0  0  0  0  0  0  0  0
    5.5791    5.9034    0.0000 H   0  0  0  0  0  0  0  0  0  0  0  0
    5.9776    6.5937    0.0000 H   0  0  0  0  0  0  0  0  0  0  0  0
    1.7320    0.8100    0.0000 H   0  0  0  0  0  0  0  0  0  0  0  0
    5.1550    8.0686    0.0000 H   0  0  0  0  0  0  0  0  0  0  0  0
    4.7565    7.3784    0.0000 H   0  0  0  0  0  0  0  0  0  0  0  0
    3.1350    0.0000    0.0000 H   0  0  0  0  0  0  0  0  0  0  0  0
    6.4451    7.4034    0.0000 H   0  0  0  0  0  0  0  0  0  0  0  0
    6.8437    8.0937    0.0000 H   0  0  0  0  0  0  0  0  0  0  0  0
    0.2269    2.6569    0.0000 H   0  0  0  0  0  0  0  0  0  0  0  0
    0.0000    1.8100    0.0000 H   0  0  0  0  0  0  0  0  0  0  0  0
    0.8469    1.5831    0.0000 H   0  0  0  0  0  0  0  0  0  0  0  0
    6.8754   11.6104    0.0000 H   0  0  0  0  0  0  0  0  0  0  0  0
    5.9998   11.5645    0.0000 H   0  0  0  0  0  0  0  0  0  0  0  0
    6.0456   10.6889    0.0000 H   0  0  0  0  0  0  0  0  0  0  0  0
    7.3841   12.3462    0.0000 H   0  0  0  0  0  0  0  0  0  0  0  0
    9.9475   11.2049    0.0000 H   0  0  0  0  0  0  0  0  0  0  0  0
    8.0430   13.8262    0.0000 H   0  0  0  0  0  0  0  0  0  0  0  0
   10.6064   12.6849    0.0000 H   0  0  0  0  0  0  0  0  0  0  0  0
    9.6542   13.9955    0.0000 H   0  0  0  0  0  0  0  0  0  0  0  0
   13.6064    6.7478    0.0000 H   0  0  0  0  0  0  0  0  0  0  0  0
  1 59  1  0  0  0  0
  2 21  1  0  0  0  0
  2 23  1  0  0  0  0
  3 18  1  0  0  0  0
  4 14  1  0  0  0  0
  4 22  1  0  0  0  0
  5 12  1  0  0  0  0
  5 16  1  0  0  0  0
  5 38  1  0  0  0  0
  6 23  1  0  0  0  0
  6 24  1  0  0  0  0
  6 25  1  0  0  0  0
  7  8  1  0  0  0  0
  7 23  2  0  0  0  0
  8 24  2  0  0  0  0
  9 10  1  0  0  0  0
  9 11  1  0  0  0  0
  9 12  1  0  0  0  0
  9 32  1  0  0  0  0
 10 11  1  0  0  0  0
 10 13  1  0  0  0  0
 10 33  1  0  0  0  0
 11 34  1  0  0  0  0
 11 35  1  0  0  0  0
 12 36  1  0  0  0  0
 12 37  1  0  0  0  0
 13 14  2  0  0  0  0
 13 15  1  0  0  0  0
 14 17  1  0  0  0  0
 15 18  2  0  0  0  0
 15 39  1  0  0  0  0
 16 19  1  0  0  0  0
 16 40  1  0  0  0  0
 16 41  1  0  0  0  0
 17 20  2  0  0  0  0
 17 42  1  0  0  0  0
 18 20  1  0  0  0  0
 19 21  1  0  0  0  0
 19 43  1  0  0  0  0
 19 44  1  0  0  0  0
 20 45  1  0  0  0  0
 21 46  1  0  0  0  0
 21 47  1  0  0  0  0
 22 48  1  0  0  0  0
 22 49  1  0  0  0  0
 22 50  1  0  0  0  0
 24 26  1  0  0  0  0
 25 51  1  0  0  0  0
 25 52  1  0  0  0  0
 25 53  1  0  0  0  0
 26 27  2  0  0  0  0
 26 28  1  0  0  0  0
 27 29  1  0  0  0  0
 27 54  1  0  0  0  0
 28 30  2  0  0  0  0
 28 55  1  0  0  0  0
 29 31  2  0  0  0  0
 29 56  1  0  0  0  0
 30 31  1  0  0  0  0
 30 57  1  0  0  0  0
 31 58  1  0  0  0  0
M  END
> <PUBCHEM_COMPOUND_CID>
155539246

> <PUBCHEM_COMPOUND_CANONICALIZED>
1

> <PUBCHEM_CACTVS_COMPLEXITY>
523

> <PUBCHEM_CACTVS_HBOND_ACCEPTOR>
6

> <PUBCHEM_CACTVS_HBOND_DONOR>
2

> <PUBCHEM_CACTVS_ROTATABLE_BOND>
10

> <PUBCHEM_CACTVS_SUBSKEYS>
AAADceB7oQBEAAAAAAAAAAAAGAAAAWAAAAAwYAAAAAAAAAAB0AAAHwQYAAAADQTF2w6zFofMFAiiAiJiJACS2AtgILAdyKAuDJiMLqKkuRuEMChk2BOIqAeQ0OIOgAAAAAAIAAAAAAAAABAAAAAAAAAAAA==

> <PUBCHEM_IUPAC_OPENEYE_NAME>
N-[[2-(5-fluoro-2-methoxy-phenyl)cyclopropyl]methyl]-3-[(4-methyl-5-phenyl-1,2,4-triazol-3-yl)sulfanyl]propan-1-amine;hydrochloride

> <PUBCHEM_IUPAC_CAS_NAME>
N-[[2-(5-fluoro-2-methoxyphenyl)cyclopropyl]methyl]-3-[(4-methyl-5-phenyl-1,2,4-triazol-3-yl)thio]-1-propanamine;hydrochloride

> <PUBCHEM_IUPAC_NAME_MARKUP>
<I>N</I>-[[2-(5-fluoro-2-methoxyphenyl)cyclopropyl]methyl]-3-[(4-methyl-5-phenyl-1,2,4-triazol-3-yl)sulfanyl]propan-1-amine;hydrochloride

> <PUBCHEM_IUPAC_NAME>
N-[[2-(5-fluoro-2-methoxyphenyl)cyclopropyl]methyl]-3-[(4-methyl-5-phenyl-1,2,4-triazol-3-yl)sulfanyl]propan-1-amine;hydrochloride

> <PUBCHEM_IUPAC_SYSTEMATIC_NAME>
N-[[2-(5-fluoranyl-2-methoxy-phenyl)cyclopropyl]methyl]-3-[(4-methyl-5-phenyl-1,2,4-triazol-3-yl)sulfanyl]propan-1-amine;hydrochloride

> <PUBCHEM_IUPAC_TRADITIONAL_NAME>
[2-(5-fluoro-2-methoxy-phenyl)cyclopropyl]methyl-[3-[(4-methyl-5-phenyl-1,2,4-triazol-3-yl)thio]propyl]amine;hydrochloride

> <PUBCHEM_IUPAC_INCHI>
InChI=1S/C23H27FN4OS.ClH/c1-28-22(16-7-4-3-5-8-16)26-27-23(28)30-12-6-11-25-15-17-13-19(17)20-14-18(24)9-10-21(20)29-2;/h3-5,7-10,14,17,19,25H,6,11-13,15H2,1-2H3;1H

> <PUBCHEM_IUPAC_INCHIKEY>
VYHRVDZNMSGPDZ-UHFFFAOYSA-N

> <PUBCHEM_EXACT_MASS>
462.1656386

> <PUBCHEM_MOLECULAR_FORMULA>
C23H28ClFN4OS

> <PUBCHEM_MOLECULAR_WEIGHT>
463.0

> <PUBCHEM_OPENEYE_CAN_SMILES>
CN1C(=NN=C1SCCCNCC2CC2C3=C(C=CC(=C3)F)OC)C4=CC=CC=C4.Cl

> <PUBCHEM_OPENEYE_ISO_SMILES>
CN1C(=NN=C1SCCCNCC2CC2C3=C(C=CC(=C3)F)OC)C4=CC=CC=C4.Cl

> <PUBCHEM_CACTVS_TPSA>
77.3

> <PUBCHEM_MONOISOTOPIC_WEIGHT>
462.1656386

> <PUBCHEM_TOTAL_CHARGE>
0

> <PUBCHEM_HEAVY_ATOM_COUNT>
31

> <PUBCHEM_ATOM_DEF_STEREO_COUNT>
0

> <PUBCHEM_ATOM_UDEF_STEREO_COUNT>
2

> <PUBCHEM_BOND_DEF_STEREO_COUNT>
0

> <PUBCHEM_BOND_UDEF_STEREO_COUNT>
0

> <PUBCHEM_ISOTOPIC_ATOM_COUNT>
0

> <PUBCHEM_COMPONENT_COUNT>
2

> <PUBCHEM_CACTVS_TAUTO_COUNT>
-1

> <PUBCHEM_COORDINATE_TYPE>
1
5
255

> <PUBCHEM_BONDANNOTATIONS>
10  13  3
13  14  8
13  15  8
14  17  8
15  18  8
17  20  8
18  20  8
26  27  8
26  28  8
27  29  8
28  30  8
29  31  8
30  31  8
6  23  8
6  24  8
7  23  8
7  8  8
8  24  8
9  12  3

$$$$
