127025242
  -OEChem-09292322362D

 62 65  0     1  0  0  0  0  0999 V2000
    4.2267   -2.9118    0.0000 S   0  0  0  0  0  0  0  0  0  0  0  0
    2.0000   -5.5654    0.0000 F   0  0  0  0  0  0  0  0  0  0  0  0
    6.4123    3.2681    0.0000 O   0  0  0  0  0  0  0  0  0  0  0  0
    3.2419   -2.7381    0.0000 O   0  0  0  0  0  0  0  0  0  0  0  0
    5.2115   -3.0854    0.0000 O   0  0  0  0  0  0  0  0  0  0  0  0
    6.9123    0.6701    0.0000 N   0  0  0  0  0  0  0  0  0  0  0  0
    4.4003   -1.9270    0.0000 N   0  0  0  0  0  0  0  0  0  0  0  0
    7.6489   -0.3126    0.0000 C   0  0  3  0  0  0  0  0  0  0  0  0
    7.3901   -1.2785    0.0000 C   0  0  3  0  0  0  0  0  0  0  0  0
    9.0478   -0.8214    0.0000 C   0  0  0  0  0  0  0  0  0  0  0  0
    8.7890   -1.7873    0.0000 C   0  0  0  0  0  0  0  0  0  0  0  0
    5.6157   -0.6237    0.0000 C   0  0  0  0  0  0  0  0  0  0  0  0
    6.1691   -2.1441    0.0000 C   0  0  0  0  0  0  0  0  0  0  0  0
    5.3400   -1.5850    0.0000 C   0  0  0  0  0  0  0  0  0  0  0  0
    6.4123    1.5361    0.0000 C   0  0  0  0  0  0  0  0  0  0  0  0
    6.9123    2.4021    0.0000 C   0  0  0  0  0  0  0  0  0  0  0  0
    4.0530   -3.8966    0.0000 C   0  0  0  0  0  0  0  0  0  0  0  0
    6.9123    4.1342    0.0000 C   0  0  0  0  0  0  0  0  0  0  0  0
    4.8191   -4.5394    0.0000 C   0  0  0  0  0  0  0  0  0  0  0  0
    3.1133   -4.2386    0.0000 C   0  0  0  0  0  0  0  0  0  0  0  0
    7.9123    4.1342    0.0000 C   0  0  0  0  0  0  0  0  0  0  0  0
    6.4123    5.0002    0.0000 C   0  0  0  0  0  0  0  0  0  0  0  0
    2.9397   -5.2234    0.0000 C   0  0  0  0  0  0  0  0  0  0  0  0
    4.6454   -5.5242    0.0000 C   0  0  0  0  0  0  0  0  0  0  0  0
    8.4123    5.0002    0.0000 C   0  0  0  0  0  0  0  0  0  0  0  0
    3.7057   -5.8662    0.0000 C   0  0  0  0  0  0  0  0  0  0  0  0
    9.4123    5.0002    0.0000 C   0  0  0  0  0  0  0  0  0  0  0  0
    6.9123    5.8662    0.0000 C   0  0  0  0  0  0  0  0  0  0  0  0
    7.9123    5.8662    0.0000 C   0  0  0  0  0  0  0  0  0  0  0  0
    9.9123    5.8662    0.0000 C   0  0  0  0  0  0  0  0  0  0  0  0
    9.9123    4.1342    0.0000 C   0  0  0  0  0  0  0  0  0  0  0  0
    8.0183    0.1854    0.0000 H   0  0  0  0  0  0  0  0  0  0  0  0
    7.4729   -1.8929    0.0000 H   0  0  0  0  0  0  0  0  0  0  0  0
    9.6418   -0.9992    0.0000 H   0  0  0  0  0  0  0  0  0  0  0  0
    9.2428   -0.2328    0.0000 H   0  0  0  0  0  0  0  0  0  0  0  0
    8.5941   -2.3759    0.0000 H   0  0  0  0  0  0  0  0  0  0  0  0
    9.3830   -1.9651    0.0000 H   0  0  0  0  0  0  0  0  0  0  0  0
    5.6106   -0.0037    0.0000 H   0  0  0  0  0  0  0  0  0  0  0  0
    5.0014   -0.5399    0.0000 H   0  0  0  0  0  0  0  0  0  0  0  0
    5.7632   -2.6129    0.0000 H   0  0  0  0  0  0  0  0  0  0  0  0
    6.5857   -2.6033    0.0000 H   0  0  0  0  0  0  0  0  0  0  0  0
    5.2645   -2.2003    0.0000 H   0  0  0  0  0  0  0  0  0  0  0  0
    5.9373    1.9346    0.0000 H   0  0  0  0  0  0  0  0  0  0  0  0
    5.9373    1.1376    0.0000 H   0  0  0  0  0  0  0  0  0  0  0  0
    3.9254   -1.5284    0.0000 H   0  0  0  0  0  0  0  0  0  0  0  0
    7.3872    2.0036    0.0000 H   0  0  0  0  0  0  0  0  0  0  0  0
    7.3872    2.8006    0.0000 H   0  0  0  0  0  0  0  0  0  0  0  0
    2.6384   -3.8401    0.0000 H   0  0  0  0  0  0  0  0  0  0  0  0
    5.4017   -4.3273    0.0000 H   0  0  0  0  0  0  0  0  0  0  0  0
    8.2223    3.5972    0.0000 H   0  0  0  0  0  0  0  0  0  0  0  0
    5.7923    5.0002    0.0000 H   0  0  0  0  0  0  0  0  0  0  0  0
    5.1204   -5.9227    0.0000 H   0  0  0  0  0  0  0  0  0  0  0  0
    3.5981   -6.4768    0.0000 H   0  0  0  0  0  0  0  0  0  0  0  0
   10.0323    5.0002    0.0000 H   0  0  0  0  0  0  0  0  0  0  0  0
    6.6023    6.4031    0.0000 H   0  0  0  0  0  0  0  0  0  0  0  0
    8.2223    6.4031    0.0000 H   0  0  0  0  0  0  0  0  0  0  0  0
   10.4492    5.5562    0.0000 H   0  0  0  0  0  0  0  0  0  0  0  0
   10.2223    6.4031    0.0000 H   0  0  0  0  0  0  0  0  0  0  0  0
    9.3753    6.1762    0.0000 H   0  0  0  0  0  0  0  0  0  0  0  0
    9.3753    3.8242    0.0000 H   0  0  0  0  0  0  0  0  0  0  0  0
   10.2223    3.5972    0.0000 H   0  0  0  0  0  0  0  0  0  0  0  0
   10.4492    4.4442    0.0000 H   0  0  0  0  0  0  0  0  0  0  0  0
  1  4  2  0  0  0  0
  1  5  2  0  0  0  0
  1  7  1  0  0  0  0
  1 17  1  0  0  0  0
  2 23  1  0  0  0  0
  3 16  1  0  0  0  0
  3 18  1  0  0  0  0
  6  8  1  0  0  0  0
  6  9  1  0  0  0  0
  6 15  1  0  0  0  0
  7 14  1  0  0  0  0
  7 45  1  0  0  0  0
  8 10  1  0  0  0  0
  8 12  1  0  0  0  0
  8 32  1  0  0  0  0
  9 11  1  0  0  0  0
  9 13  1  0  0  0  0
  9 33  1  0  0  0  0
 10 11  1  0  0  0  0
 10 34  1  0  0  0  0
 10 35  1  0  0  0  0
 11 36  1  0  0  0  0
 11 37  1  0  0  0  0
 12 14  1  0  0  0  0
 12 38  1  0  0  0  0
 12 39  1  0  0  0  0
 13 14  1  0  0  0  0
 13 40  1  0  0  0  0
 13 41  1  0  0  0  0
 14 42  1  0  0  0  0
 15 16  1  0  0  0  0
 15 43  1  0  0  0  0
 15 44  1  0  0  0  0
 16 46  1  0  0  0  0
 16 47  1  0  0  0  0
 17 19  2  0  0  0  0
 17 20  1  0  0  0  0
 18 21  1  0  0  0  0
 18 22  2  0  0  0  0
 19 24  1  0  0  0  0
 19 49  1  0  0  0  0
 20 23  2  0  0  0  0
 20 48  1  0  0  0  0
 21 25  2  0  0  0  0
 21 50  1  0  0  0  0
 22 28  1  0  0  0  0
 22 51  1  0  0  0  0
 23 26  1  0  0  0  0
 24 26  2  0  0  0  0
 24 52  1  0  0  0  0
 25 27  1  0  0  0  0
 25 29  1  0  0  0  0
 26 53  1  0  0  0  0
 27 30  1  0  0  0  0
 27 31  1  0  0  0  0
 27 54  1  0  0  0  0
 28 29  2  0  0  0  0
 28 55  1  0  0  0  0
 29 56  1  0  0  0  0
 30 57  1  0  0  0  0
 30 58  1  0  0  0  0
 30 59  1  0  0  0  0
 31 60  1  0  0  0  0
 31 61  1  0  0  0  0
 31 62  1  0  0  0  0
M  END
> <PUBCHEM_COMPOUND_CID>
127025242

> <PUBCHEM_COMPOUND_CANONICALIZED>
1

> <PUBCHEM_CACTVS_COMPLEXITY>
669

> <PUBCHEM_CACTVS_HBOND_ACCEPTOR>
6

> <PUBCHEM_CACTVS_HBOND_DONOR>
1

> <PUBCHEM_CACTVS_ROTATABLE_BOND>
8

> <PUBCHEM_CACTVS_SUBSKEYS>
AAADceB7MQBAAAAAAAAAAAAAAAAAAWAAAAA8YIAABgAAAAABQAAAHwQQQAAADSzh2A4yB4NABAKAAiBCAHBCCBAgIAAIiJgOCIgOJiKE8RqHOCCk0BGYqAeQwPAOgAABAAAAAAAAAAIAAAAAAAAAAAAAAA==

> <PUBCHEM_IUPAC_OPENEYE_NAME>
3-fluoro-N-[8-[2-(3-isopropylphenoxy)ethyl]-8-azabicyclo[3.2.1]octan-3-yl]benzenesulfonamide

> <PUBCHEM_IUPAC_CAS_NAME>
3-fluoro-N-[8-[2-(3-propan-2-ylphenoxy)ethyl]-8-azabicyclo[3.2.1]octan-3-yl]benzenesulfonamide

> <PUBCHEM_IUPAC_NAME_MARKUP>
3-fluoro-<I>N</I>-[8-[2-(3-propan-2-ylphenoxy)ethyl]-8-azabicyclo[3.2.1]octan-3-yl]benzenesulfonamide

> <PUBCHEM_IUPAC_NAME>
3-fluoro-N-[8-[2-(3-propan-2-ylphenoxy)ethyl]-8-azabicyclo[3.2.1]octan-3-yl]benzenesulfonamide

> <PUBCHEM_IUPAC_SYSTEMATIC_NAME>
3-fluoranyl-N-[8-[2-(3-propan-2-ylphenoxy)ethyl]-8-azabicyclo[3.2.1]octan-3-yl]benzenesulfonamide

> <PUBCHEM_IUPAC_TRADITIONAL_NAME>
3-fluoro-N-[8-[2-(3-isopropylphenoxy)ethyl]-8-azabicyclo[3.2.1]octan-3-yl]benzenesulfonamide

> <PUBCHEM_IUPAC_INCHI>
InChI=1S/C24H31FN2O3S/c1-17(2)18-5-3-7-23(13-18)30-12-11-27-21-9-10-22(27)16-20(15-21)26-31(28,29)24-8-4-6-19(25)14-24/h3-8,13-14,17,20-22,26H,9-12,15-16H2,1-2H3

> <PUBCHEM_IUPAC_INCHIKEY>
BTZVGHPJECWTNY-UHFFFAOYSA-N

> <PUBCHEM_XLOGP3_AA>
5

> <PUBCHEM_EXACT_MASS>
446.20394219

> <PUBCHEM_MOLECULAR_FORMULA>
C24H31FN2O3S

> <PUBCHEM_MOLECULAR_WEIGHT>
446.6

> <PUBCHEM_OPENEYE_CAN_SMILES>
CC(C)C1=CC(=CC=C1)OCCN2C3CCC2CC(C3)NS(=O)(=O)C4=CC=CC(=C4)F

> <PUBCHEM_OPENEYE_ISO_SMILES>
CC(C)C1=CC(=CC=C1)OCCN2C3CCC2CC(C3)NS(=O)(=O)C4=CC=CC(=C4)F

> <PUBCHEM_CACTVS_TPSA>
67

> <PUBCHEM_MONOISOTOPIC_WEIGHT>
446.20394219

> <PUBCHEM_TOTAL_CHARGE>
0

> <PUBCHEM_HEAVY_ATOM_COUNT>
31

> <PUBCHEM_ATOM_DEF_STEREO_COUNT>
0

> <PUBCHEM_ATOM_UDEF_STEREO_COUNT>
2

> <PUBCHEM_BOND_DEF_STEREO_COUNT>
0

> <PUBCHEM_BOND_UDEF_STEREO_COUNT>
0

> <PUBCHEM_ISOTOPIC_ATOM_COUNT>
0

> <PUBCHEM_COMPONENT_COUNT>
1

> <PUBCHEM_CACTVS_TAUTO_COUNT>
-1

> <PUBCHEM_COORDINATE_TYPE>
1
5
255

> <PUBCHEM_BONDANNOTATIONS>
17  19  8
17  20  8
18  21  8
18  22  8
19  24  8
20  23  8
21  25  8
22  28  8
23  26  8
24  26  8
25  29  8
28  29  8
8  10  3
9  11  3

$$$$
