11670438
  -OEChem-09292322482D

 71 75  0     0  0  0  0  0  0999 V2000
    6.4103   -6.4102    0.0000 O   0  0  0  0  0  0  0  0  0  0  0  0
    9.1598    6.3993    0.0000 O   0  0  0  0  0  0  0  0  0  0  0  0
    2.8660   -4.6055    0.0000 O   0  0  0  0  0  0  0  0  0  0  0  0
   11.8777    0.7767    0.0000 O   0  0  0  0  0  0  0  0  0  0  0  0
    7.3423   -1.9492    0.0000 N   0  0  0  0  0  0  0  0  0  0  0  0
    6.7210   -3.8502    0.0000 N   0  0  0  0  0  0  0  0  0  0  0  0
    6.9939   -5.6055    0.0000 N   0  0  0  0  0  0  0  0  0  0  0  0
   10.4955    4.9107    0.0000 N   0  0  0  0  0  0  0  0  0  0  0  0
   10.2313    1.3148    0.0000 N   0  0  0  0  0  0  0  0  0  0  0  0
    6.3638   -2.1554    0.0000 C   0  0  0  0  0  0  0  0  0  0  0  0
    8.0102   -2.6935    0.0000 C   0  0  0  0  0  0  0  0  0  0  0  0
    6.0531   -3.1059    0.0000 C   0  0  0  0  0  0  0  0  0  0  0  0
    7.6995   -3.6440    0.0000 C   0  0  0  0  0  0  0  0  0  0  0  0
    7.6530   -0.9987    0.0000 C   0  0  0  0  0  0  0  0  0  0  0  0
    8.6315   -0.7925    0.0000 C   0  0  0  0  0  0  0  0  0  0  0  0
    6.4103   -4.8008    0.0000 C   0  0  0  0  0  0  0  0  0  0  0  0
    8.9421    0.1581    0.0000 C   0  0  0  0  0  0  0  0  0  0  0  0
    5.4641   -5.1055    0.0000 C   0  0  0  0  0  0  0  0  0  0  0  0
    9.9206    0.3643    0.0000 C   0  0  0  0  0  0  0  0  0  0  0  0
    5.4641   -6.1055    0.0000 C   0  0  0  0  0  0  0  0  0  0  0  0
    4.5981   -4.6055    0.0000 C   0  0  0  0  0  0  0  0  0  0  0  0
   10.8061    5.8612    0.0000 C   0  0  0  0  0  0  0  0  0  0  0  0
    9.5169    4.7044    0.0000 C   0  0  0  0  0  0  0  0  0  0  0  0
   11.1633    4.1664    0.0000 C   0  0  0  0  0  0  0  0  0  0  0  0
   10.1383    6.6055    0.0000 C   0  0  0  0  0  0  0  0  0  0  0  0
    8.8491    5.4488    0.0000 C   0  0  0  0  0  0  0  0  0  0  0  0
    4.5981   -6.6055    0.0000 C   0  0  0  0  0  0  0  0  0  0  0  0
    3.7320   -5.1055    0.0000 C   0  0  0  0  0  0  0  0  0  0  0  0
   11.2098    1.5210    0.0000 C   0  0  0  0  0  0  0  0  0  0  0  0
   11.5205    2.4715    0.0000 C   0  0  0  0  0  0  0  0  0  0  0  0
   10.8526    3.2158    0.0000 C   0  0  0  0  0  0  0  0  0  0  0  0
    3.7320   -6.1055    0.0000 C   0  0  0  0  0  0  0  0  0  0  0  0
   12.1418    4.3726    0.0000 C   0  0  0  0  0  0  0  0  0  0  0  0
   12.4990    2.6778    0.0000 C   0  0  0  0  0  0  0  0  0  0  0  0
   12.8096    3.6283    0.0000 C   0  0  0  0  0  0  0  0  0  0  0  0
    2.0000   -5.1055    0.0000 C   0  0  0  0  0  0  0  0  0  0  0  0
    6.3432   -1.5358    0.0000 H   0  0  0  0  0  0  0  0  0  0  0  0
    5.7500   -2.0681    0.0000 H   0  0  0  0  0  0  0  0  0  0  0  0
    8.5571   -2.9855    0.0000 H   0  0  0  0  0  0  0  0  0  0  0  0
    8.3927   -2.2056    0.0000 H   0  0  0  0  0  0  0  0  0  0  0  0
    5.5062   -2.8139    0.0000 H   0  0  0  0  0  0  0  0  0  0  0  0
    5.6706   -3.5938    0.0000 H   0  0  0  0  0  0  0  0  0  0  0  0
    7.7201   -4.2637    0.0000 H   0  0  0  0  0  0  0  0  0  0  0  0
    8.3133   -3.7314    0.0000 H   0  0  0  0  0  0  0  0  0  0  0  0
    7.6324   -0.3790    0.0000 H   0  0  0  0  0  0  0  0  0  0  0  0
    7.0392   -0.9113    0.0000 H   0  0  0  0  0  0  0  0  0  0  0  0
    8.6520   -1.4121    0.0000 H   0  0  0  0  0  0  0  0  0  0  0  0
    9.2453   -0.8798    0.0000 H   0  0  0  0  0  0  0  0  0  0  0  0
    8.9216    0.7777    0.0000 H   0  0  0  0  0  0  0  0  0  0  0  0
    8.3283    0.2454    0.0000 H   0  0  0  0  0  0  0  0  0  0  0  0
    9.9412   -0.2554    0.0000 H   0  0  0  0  0  0  0  0  0  0  0  0
   10.5345    0.2769    0.0000 H   0  0  0  0  0  0  0  0  0  0  0  0
    4.5981   -3.9855    0.0000 H   0  0  0  0  0  0  0  0  0  0  0  0
    9.8172    1.7763    0.0000 H   0  0  0  0  0  0  0  0  0  0  0  0
   11.3530    5.5692    0.0000 H   0  0  0  0  0  0  0  0  0  0  0  0
   11.1887    6.3491    0.0000 H   0  0  0  0  0  0  0  0  0  0  0  0
    8.9906    4.3768    0.0000 H   0  0  0  0  0  0  0  0  0  0  0  0
    9.7482    4.1292    0.0000 H   0  0  0  0  0  0  0  0  0  0  0  0
   10.6646    6.9331    0.0000 H   0  0  0  0  0  0  0  0  0  0  0  0
    9.9070    7.1807    0.0000 H   0  0  0  0  0  0  0  0  0  0  0  0
    8.3022    5.7408    0.0000 H   0  0  0  0  0  0  0  0  0  0  0  0
    8.4666    4.9608    0.0000 H   0  0  0  0  0  0  0  0  0  0  0  0
    4.5981   -7.2255    0.0000 H   0  0  0  0  0  0  0  0  0  0  0  0
   10.2460    3.0880    0.0000 H   0  0  0  0  0  0  0  0  0  0  0  0
    3.1951   -6.4155    0.0000 H   0  0  0  0  0  0  0  0  0  0  0  0
   12.3344    4.9619    0.0000 H   0  0  0  0  0  0  0  0  0  0  0  0
   12.9130    2.2163    0.0000 H   0  0  0  0  0  0  0  0  0  0  0  0
   13.4163    3.7561    0.0000 H   0  0  0  0  0  0  0  0  0  0  0  0
    1.6900   -4.5686    0.0000 H   0  0  0  0  0  0  0  0  0  0  0  0
    1.4631   -5.4155    0.0000 H   0  0  0  0  0  0  0  0  0  0  0  0
    2.3100   -5.6424    0.0000 H   0  0  0  0  0  0  0  0  0  0  0  0
  1  7  1  0  0  0  0
  1 20  1  0  0  0  0
  2 25  1  0  0  0  0
  2 26  1  0  0  0  0
  3 28  1  0  0  0  0
  3 36  1  0  0  0  0
  4 29  2  0  0  0  0
  5 10  1  0  0  0  0
  5 11  1  0  0  0  0
  5 14  1  0  0  0  0
  6 12  1  0  0  0  0
  6 13  1  0  0  0  0
  6 16  1  0  0  0  0
  7 16  2  0  0  0  0
  8 22  1  0  0  0  0
  8 23  1  0  0  0  0
  8 24  1  0  0  0  0
  9 19  1  0  0  0  0
  9 29  1  0  0  0  0
  9 54  1  0  0  0  0
 10 12  1  0  0  0  0
 10 37  1  0  0  0  0
 10 38  1  0  0  0  0
 11 13  1  0  0  0  0
 11 39  1  0  0  0  0
 11 40  1  0  0  0  0
 12 41  1  0  0  0  0
 12 42  1  0  0  0  0
 13 43  1  0  0  0  0
 13 44  1  0  0  0  0
 14 15  1  0  0  0  0
 14 45  1  0  0  0  0
 14 46  1  0  0  0  0
 15 17  1  0  0  0  0
 15 47  1  0  0  0  0
 15 48  1  0  0  0  0
 16 18  1  0  0  0  0
 17 19  1  0  0  0  0
 17 49  1  0  0  0  0
 17 50  1  0  0  0  0
 18 20  2  0  0  0  0
 18 21  1  0  0  0  0
 19 51  1  0  0  0  0
 19 52  1  0  0  0  0
 20 27  1  0  0  0  0
 21 28  2  0  0  0  0
 21 53  1  0  0  0  0
 22 25  1  0  0  0  0
 22 55  1  0  0  0  0
 22 56  1  0  0  0  0
 23 26  1  0  0  0  0
 23 57  1  0  0  0  0
 23 58  1  0  0  0  0
 24 31  1  0  0  0  0
 24 33  2  0  0  0  0
 25 59  1  0  0  0  0
 25 60  1  0  0  0  0
 26 61  1  0  0  0  0
 26 62  1  0  0  0  0
 27 32  2  0  0  0  0
 27 63  1  0  0  0  0
 28 32  1  0  0  0  0
 29 30  1  0  0  0  0
 30 31  2  0  0  0  0
 30 34  1  0  0  0  0
 31 64  1  0  0  0  0
 32 65  1  0  0  0  0
 33 35  1  0  0  0  0
 33 66  1  0  0  0  0
 34 35  2  0  0  0  0
 34 67  1  0  0  0  0
 35 68  1  0  0  0  0
 36 69  1  0  0  0  0
 36 70  1  0  0  0  0
 36 71  1  0  0  0  0
M  END
> <PUBCHEM_COMPOUND_CID>
11670438

> <PUBCHEM_COMPOUND_CANONICALIZED>
1

> <PUBCHEM_CACTVS_COMPLEXITY>
685

> <PUBCHEM_CACTVS_HBOND_ACCEPTOR>
8

> <PUBCHEM_CACTVS_HBOND_DONOR>
1

> <PUBCHEM_CACTVS_ROTATABLE_BOND>
9

> <PUBCHEM_CACTVS_SUBSKEYS>
AAADcfB7uAAAAAAAAAAAAAAAAAAAAWAAAAA8eIEAAAAAAFgB9AAAHgAUAAAADAzhmgYz9tPQBACpAqdycgCCCAAlIgApmKEubNqOZrrEvZuXMahm1hvY6cf+yDCOAQABQAAIAAACAAKAABAAAAAAAAAAAA==

> <PUBCHEM_IUPAC_OPENEYE_NAME>
N-[4-[4-(5-methoxy-1,2-benzoxazol-3-yl)piperazin-1-yl]butyl]-3-morpholino-benzamide

> <PUBCHEM_IUPAC_CAS_NAME>
N-[4-[4-(5-methoxy-1,2-benzoxazol-3-yl)-1-piperazinyl]butyl]-3-(4-morpholinyl)benzamide

> <PUBCHEM_IUPAC_NAME_MARKUP>
<I>N</I>-[4-[4-(5-methoxy-1,2-benzoxazol-3-yl)piperazin-1-yl]butyl]-3-morpholin-4-ylbenzamide

> <PUBCHEM_IUPAC_NAME>
N-[4-[4-(5-methoxy-1,2-benzoxazol-3-yl)piperazin-1-yl]butyl]-3-morpholin-4-ylbenzamide

> <PUBCHEM_IUPAC_SYSTEMATIC_NAME>
N-[4-[4-(5-methoxy-1,2-benzoxazol-3-yl)piperazin-1-yl]butyl]-3-morpholin-4-yl-benzamide

> <PUBCHEM_IUPAC_TRADITIONAL_NAME>
N-[4-[4-(5-methoxyindoxazen-3-yl)piperazino]butyl]-3-morpholino-benzamide

> <PUBCHEM_IUPAC_INCHI>
InChI=1S/C27H35N5O4/c1-34-23-7-8-25-24(20-23)26(29-36-25)32-13-11-30(12-14-32)10-3-2-9-28-27(33)21-5-4-6-22(19-21)31-15-17-35-18-16-31/h4-8,19-20H,2-3,9-18H2,1H3,(H,28,33)

> <PUBCHEM_IUPAC_INCHIKEY>
DNZUVQAJHJARBX-UHFFFAOYSA-N

> <PUBCHEM_XLOGP3_AA>
3.4

> <PUBCHEM_EXACT_MASS>
493.26890461

> <PUBCHEM_MOLECULAR_FORMULA>
C27H35N5O4

> <PUBCHEM_MOLECULAR_WEIGHT>
493.6

> <PUBCHEM_OPENEYE_CAN_SMILES>
COC1=CC2=C(C=C1)ON=C2N3CCN(CC3)CCCCNC(=O)C4=CC(=CC=C4)N5CCOCC5

> <PUBCHEM_OPENEYE_ISO_SMILES>
COC1=CC2=C(C=C1)ON=C2N3CCN(CC3)CCCCNC(=O)C4=CC(=CC=C4)N5CCOCC5

> <PUBCHEM_CACTVS_TPSA>
83.3

> <PUBCHEM_MONOISOTOPIC_WEIGHT>
493.26890461

> <PUBCHEM_TOTAL_CHARGE>
0

> <PUBCHEM_HEAVY_ATOM_COUNT>
36

> <PUBCHEM_ATOM_DEF_STEREO_COUNT>
0

> <PUBCHEM_ATOM_UDEF_STEREO_COUNT>
0

> <PUBCHEM_BOND_DEF_STEREO_COUNT>
0

> <PUBCHEM_BOND_UDEF_STEREO_COUNT>
0

> <PUBCHEM_ISOTOPIC_ATOM_COUNT>
0

> <PUBCHEM_COMPONENT_COUNT>
1

> <PUBCHEM_CACTVS_TAUTO_COUNT>
-1

> <PUBCHEM_COORDINATE_TYPE>
1
5
255

> <PUBCHEM_BONDANNOTATIONS>
1  20  8
1  7  8
16  18  8
18  20  8
18  21  8
20  27  8
21  28  8
24  31  8
24  33  8
27  32  8
28  32  8
30  31  8
30  34  8
33  35  8
34  35  8
7  16  8

$$$$
