137658832
  -OEChem-09292322062D

 58 62  0     1  0  0  0  0  0999 V2000
   13.7057    0.3062    0.0000 F   0  0  0  0  0  0  0  0  0  0  0  0
   12.6876    0.8940    0.0000 F   0  0  0  0  0  0  0  0  0  0  0  0
    2.9176    2.8592    0.0000 O   0  0  0  0  0  0  0  0  0  0  0  0
   11.8034   -0.2036    0.0000 O   0  0  0  0  0  0  0  0  0  0  0  0
    4.6660   -1.1754    0.0000 O   0  0  0  0  0  0  0  0  0  0  0  0
   13.1973   -1.0083    0.0000 O   0  0  0  0  0  0  0  0  0  0  0  0
    8.1301   -0.1754    0.0000 N   0  0  0  0  0  0  0  0  0  0  0  0
    9.8622   -1.1754    0.0000 N   0  0  0  0  0  0  0  0  0  0  0  0
    3.8000    0.3246    0.0000 N   0  0  0  0  0  0  0  0  0  0  0  0
    4.6660    1.8246    0.0000 N   0  0  0  0  0  0  0  0  0  0  0  0
    8.1301   -1.1754    0.0000 C   0  0  0  0  0  0  0  0  0  0  0  0
    8.9962    0.3246    0.0000 C   0  0  0  0  0  0  0  0  0  0  0  0
    8.9962   -1.6754    0.0000 C   0  0  0  0  0  0  0  0  0  0  0  0
    9.8622   -0.1754    0.0000 C   0  0  0  0  0  0  0  0  0  0  0  0
    7.2641    0.3246    0.0000 C   0  0  0  0  0  0  0  0  0  0  0  0
    6.3981   -0.1754    0.0000 C   0  0  0  0  0  0  0  0  0  0  0  0
    2.9061   -0.2101    0.0000 C   0  0  0  0  0  0  0  0  0  0  0  0
    2.9061    1.8593    0.0000 C   0  0  3  0  0  0  0  0  0  0  0  0
    2.0000    0.3038    0.0000 C   0  0  0  0  0  0  0  0  0  0  0  0
    2.0000    1.3454    0.0000 C   0  0  0  0  0  0  0  0  0  0  0  0
    5.5321    0.3246    0.0000 C   0  0  0  0  0  0  0  0  0  0  0  0
    3.8000    1.3246    0.0000 C   0  0  0  0  0  0  0  0  0  0  0  0
    4.6660   -0.1754    0.0000 C   0  0  0  0  0  0  0  0  0  0  0  0
   10.7282   -1.6754    0.0000 C   0  0  0  0  0  0  0  0  0  0  0  0
    5.5321    1.3246    0.0000 C   0  0  0  0  0  0  0  0  0  0  0  0
   11.5942   -1.1754    0.0000 C   0  0  0  0  0  0  0  0  0  0  0  0
   10.7282   -2.6754    0.0000 C   0  0  0  0  0  0  0  0  0  0  0  0
    6.3981    1.8246    0.0000 C   0  0  0  0  0  0  0  0  0  0  0  0
   12.4603   -1.6754    0.0000 C   0  0  0  0  0  0  0  0  0  0  0  0
   11.5942   -3.1754    0.0000 C   0  0  0  0  0  0  0  0  0  0  0  0
   12.4603   -2.6754    0.0000 C   0  0  0  0  0  0  0  0  0  0  0  0
   12.7922   -0.1005    0.0000 C   0  0  0  0  0  0  0  0  0  0  0  0
    7.5196   -1.0677    0.0000 H   0  0  0  0  0  0  0  0  0  0  0  0
    7.9181   -1.7580    0.0000 H   0  0  0  0  0  0  0  0  0  0  0  0
    9.3947    0.7996    0.0000 H   0  0  0  0  0  0  0  0  0  0  0  0
    8.5976    0.7996    0.0000 H   0  0  0  0  0  0  0  0  0  0  0  0
    8.5976   -2.1503    0.0000 H   0  0  0  0  0  0  0  0  0  0  0  0
    9.3947   -2.1503    0.0000 H   0  0  0  0  0  0  0  0  0  0  0  0
   10.4728   -0.2831    0.0000 H   0  0  0  0  0  0  0  0  0  0  0  0
   10.0742    0.4072    0.0000 H   0  0  0  0  0  0  0  0  0  0  0  0
    7.6626    0.7996    0.0000 H   0  0  0  0  0  0  0  0  0  0  0  0
    6.8656    0.7996    0.0000 H   0  0  0  0  0  0  0  0  0  0  0  0
    5.9996   -0.6503    0.0000 H   0  0  0  0  0  0  0  0  0  0  0  0
    6.7966   -0.6503    0.0000 H   0  0  0  0  0  0  0  0  0  0  0  0
    2.5124   -0.6891    0.0000 H   0  0  0  0  0  0  0  0  0  0  0  0
    3.3107   -0.6798    0.0000 H   0  0  0  0  0  0  0  0  0  0  0  0
    2.3721    2.1744    0.0000 H   0  0  0  0  0  0  0  0  0  0  0  0
    1.3891    0.4099    0.0000 H   0  0  0  0  0  0  0  0  0  0  0  0
    1.7909   -0.2799    0.0000 H   0  0  0  0  0  0  0  0  0  0  0  0
    1.7909    1.9291    0.0000 H   0  0  0  0  0  0  0  0  0  0  0  0
    1.3891    1.2393    0.0000 H   0  0  0  0  0  0  0  0  0  0  0  0
   10.1913   -2.9854    0.0000 H   0  0  0  0  0  0  0  0  0  0  0  0
    6.7081    1.2877    0.0000 H   0  0  0  0  0  0  0  0  0  0  0  0
    6.9350    2.1346    0.0000 H   0  0  0  0  0  0  0  0  0  0  0  0
    6.0881    2.3615    0.0000 H   0  0  0  0  0  0  0  0  0  0  0  0
    2.3843    3.1754    0.0000 H   0  0  0  0  0  0  0  0  0  0  0  0
   11.5942   -3.7954    0.0000 H   0  0  0  0  0  0  0  0  0  0  0  0
   12.9972   -2.9854    0.0000 H   0  0  0  0  0  0  0  0  0  0  0  0
  1 32  1  0  0  0  0
  2 32  1  0  0  0  0
  3 18  1  0  0  0  0
  3 56  1  0  0  0  0
  4 26  1  0  0  0  0
  4 32  1  0  0  0  0
  5 23  2  0  0  0  0
  6 29  1  0  0  0  0
  6 32  1  0  0  0  0
  7 11  1  0  0  0  0
  7 12  1  0  0  0  0
  7 15  1  0  0  0  0
  8 13  1  0  0  0  0
  8 14  1  0  0  0  0
  8 24  1  0  0  0  0
  9 17  1  0  0  0  0
  9 22  1  0  0  0  0
  9 23  1  0  0  0  0
 10 22  2  0  0  0  0
 10 25  1  0  0  0  0
 11 13  1  0  0  0  0
 11 33  1  0  0  0  0
 11 34  1  0  0  0  0
 12 14  1  0  0  0  0
 12 35  1  0  0  0  0
 12 36  1  0  0  0  0
 13 37  1  0  0  0  0
 13 38  1  0  0  0  0
 14 39  1  0  0  0  0
 14 40  1  0  0  0  0
 15 16  1  0  0  0  0
 15 41  1  0  0  0  0
 15 42  1  0  0  0  0
 16 21  1  0  0  0  0
 16 43  1  0  0  0  0
 16 44  1  0  0  0  0
 17 19  1  0  0  0  0
 17 45  1  0  0  0  0
 17 46  1  0  0  0  0
 18 20  1  0  0  0  0
 18 22  1  0  0  0  0
 18 47  1  0  0  0  0
 19 20  1  0  0  0  0
 19 48  1  0  0  0  0
 19 49  1  0  0  0  0
 20 50  1  0  0  0  0
 20 51  1  0  0  0  0
 21 23  1  0  0  0  0
 21 25  2  0  0  0  0
 24 26  2  0  0  0  0
 24 27  1  0  0  0  0
 25 28  1  0  0  0  0
 26 29  1  0  0  0  0
 27 30  2  0  0  0  0
 27 52  1  0  0  0  0
 28 53  1  0  0  0  0
 28 54  1  0  0  0  0
 28 55  1  0  0  0  0
 29 31  2  0  0  0  0
 30 31  1  0  0  0  0
 30 57  1  0  0  0  0
 31 58  1  0  0  0  0
M  END
> <PUBCHEM_COMPOUND_CID>
137658832

> <PUBCHEM_COMPOUND_CANONICALIZED>
1

> <PUBCHEM_CACTVS_COMPLEXITY>
812

> <PUBCHEM_CACTVS_HBOND_ACCEPTOR>
9

> <PUBCHEM_CACTVS_HBOND_DONOR>
1

> <PUBCHEM_CACTVS_ROTATABLE_BOND>
4

> <PUBCHEM_CACTVS_SUBSKEYS>
AAADceB7uYAAAAAAAAAAAAAAAAAAASAAAAA8WIEAAAAAAEiBAAAAHwAACAAADBzhkBYzzoMABgCoAidydASCCAEhIgAJiAE/7MgfdjLEuZu1cCpmxhne6Ue0UAMAAAAAAgAAUAAAAAAEAACgAAAAAAAAAA==

> <PUBCHEM_IUPAC_OPENEYE_NAME>
3-[2-[4-(2,2-difluoro-1,3-benzodioxol-4-yl)piperazin-1-yl]ethyl]-9-hydroxy-2-methyl-6,7,8,9-tetrahydropyrido[1,2-a]pyrimidin-4-one

> <PUBCHEM_IUPAC_CAS_NAME>
3-[2-[4-(2,2-difluoro-1,3-benzodioxol-4-yl)-1-piperazinyl]ethyl]-9-hydroxy-2-methyl-6,7,8,9-tetrahydropyrido[1,2-a]pyrimidin-4-one

> <PUBCHEM_IUPAC_NAME_MARKUP>
3-[2-[4-(2,2-difluoro-1,3-benzodioxol-4-yl)piperazin-1-yl]ethyl]-9-hydroxy-2-methyl-6,7,8,9-tetrahydropyrido[1,2-a]pyrimidin-4-one

> <PUBCHEM_IUPAC_NAME>
3-[2-[4-(2,2-difluoro-1,3-benzodioxol-4-yl)piperazin-1-yl]ethyl]-9-hydroxy-2-methyl-6,7,8,9-tetrahydropyrido[1,2-a]pyrimidin-4-one

> <PUBCHEM_IUPAC_SYSTEMATIC_NAME>
3-[2-[4-[2,2-bis(fluoranyl)-1,3-benzodioxol-4-yl]piperazin-1-yl]ethyl]-2-methyl-9-oxidanyl-6,7,8,9-tetrahydropyrido[1,2-a]pyrimidin-4-one

> <PUBCHEM_IUPAC_TRADITIONAL_NAME>
3-[2-[4-(2,2-difluoro-1,3-benzodioxol-4-yl)piperazino]ethyl]-9-hydroxy-2-methyl-6,7,8,9-tetrahydropyrido[1,2-a]pyrimidin-4-one

> <PUBCHEM_IUPAC_INCHI>
InChI=1S/C22H26F2N4O4/c1-14-15(21(30)28-8-3-5-17(29)20(28)25-14)7-9-26-10-12-27(13-11-26)16-4-2-6-18-19(16)32-22(23,24)31-18/h2,4,6,17,29H,3,5,7-13H2,1H3

> <PUBCHEM_IUPAC_INCHIKEY>
UZUKFTSIGCBYIU-UHFFFAOYSA-N

> <PUBCHEM_XLOGP3_AA>
2.2

> <PUBCHEM_EXACT_MASS>
448.19221165

> <PUBCHEM_MOLECULAR_FORMULA>
C22H26F2N4O4

> <PUBCHEM_MOLECULAR_WEIGHT>
448.5

> <PUBCHEM_OPENEYE_CAN_SMILES>
CC1=C(C(=O)N2CCCC(C2=N1)O)CCN3CCN(CC3)C4=C5C(=CC=C4)OC(O5)(F)F

> <PUBCHEM_OPENEYE_ISO_SMILES>
CC1=C(C(=O)N2CCCC(C2=N1)O)CCN3CCN(CC3)C4=C5C(=CC=C4)OC(O5)(F)F

> <PUBCHEM_CACTVS_TPSA>
77.8

> <PUBCHEM_MONOISOTOPIC_WEIGHT>
448.19221165

> <PUBCHEM_TOTAL_CHARGE>
0

> <PUBCHEM_HEAVY_ATOM_COUNT>
32

> <PUBCHEM_ATOM_DEF_STEREO_COUNT>
0

> <PUBCHEM_ATOM_UDEF_STEREO_COUNT>
1

> <PUBCHEM_BOND_DEF_STEREO_COUNT>
0

> <PUBCHEM_BOND_UDEF_STEREO_COUNT>
0

> <PUBCHEM_ISOTOPIC_ATOM_COUNT>
0

> <PUBCHEM_COMPONENT_COUNT>
1

> <PUBCHEM_CACTVS_TAUTO_COUNT>
-1

> <PUBCHEM_COORDINATE_TYPE>
1
5
255

> <PUBCHEM_BONDANNOTATIONS>
10  22  8
10  25  8
21  23  8
21  25  8
24  26  8
24  27  8
26  29  8
27  30  8
29  31  8
18  3  3
30  31  8
9  22  8
9  23  8

$$$$
