11811808
  -OEChem-09292322112D

 62 65  0     0  0  0  0  0  0999 V2000
    2.8660   -2.2673    0.0000 O   0  0  0  0  0  0  0  0  0  0  0  0
    2.0000   -5.7673    0.0000 O   0  0  0  0  0  0  0  0  0  0  0  0
    6.3301    1.7327    0.0000 N   0  0  0  0  0  0  0  0  0  0  0  0
    6.3301    3.7327    0.0000 N   0  0  0  0  0  0  0  0  0  0  0  0
    4.5981   -2.2673    0.0000 N   0  0  0  0  0  0  0  0  0  0  0  0
    7.1962    2.2327    0.0000 C   0  0  0  0  0  0  0  0  0  0  0  0
    5.4641    2.2327    0.0000 C   0  0  0  0  0  0  0  0  0  0  0  0
    7.1962    3.2327    0.0000 C   0  0  0  0  0  0  0  0  0  0  0  0
    5.4641    3.2327    0.0000 C   0  0  0  0  0  0  0  0  0  0  0  0
    6.3301    0.7327    0.0000 C   0  0  0  0  0  0  0  0  0  0  0  0
    5.4641    0.2327    0.0000 C   0  0  0  0  0  0  0  0  0  0  0  0
    6.3301    4.7327    0.0000 C   0  0  0  0  0  0  0  0  0  0  0  0
    5.4641   -0.7673    0.0000 C   0  0  0  0  0  0  0  0  0  0  0  0
    7.1962    5.2327    0.0000 C   0  0  0  0  0  0  0  0  0  0  0  0
    5.4641    5.2327    0.0000 C   0  0  0  0  0  0  0  0  0  0  0  0
    4.5981   -1.2673    0.0000 C   0  0  0  0  0  0  0  0  0  0  0  0
    7.1962    6.2327    0.0000 C   0  0  0  0  0  0  0  0  0  0  0  0
    8.0901    4.6980    0.0000 C   0  0  0  0  0  0  0  0  0  0  0  0
    5.4641    6.2327    0.0000 C   0  0  0  0  0  0  0  0  0  0  0  0
    6.3301    6.7327    0.0000 C   0  0  0  0  0  0  0  0  0  0  0  0
    8.0901    6.7673    0.0000 C   0  0  0  0  0  0  0  0  0  0  0  0
    8.9962    5.2118    0.0000 C   0  0  0  0  0  0  0  0  0  0  0  0
    8.9962    6.2535    0.0000 C   0  0  0  0  0  0  0  0  0  0  0  0
    3.7320   -2.7673    0.0000 C   0  0  0  0  0  0  0  0  0  0  0  0
    3.7320   -3.7673    0.0000 C   0  0  0  0  0  0  0  0  0  0  0  0
    2.8660   -4.2673    0.0000 C   0  0  0  0  0  0  0  0  0  0  0  0
    4.5981   -4.2673    0.0000 C   0  0  0  0  0  0  0  0  0  0  0  0
    2.8660   -5.2673    0.0000 C   0  0  0  0  0  0  0  0  0  0  0  0
    4.5981   -5.2673    0.0000 C   0  0  0  0  0  0  0  0  0  0  0  0
    3.7320   -5.7673    0.0000 C   0  0  0  0  0  0  0  0  0  0  0  0
    2.0000   -6.7673    0.0000 C   0  0  0  0  0  0  0  0  0  0  0  0
    7.4082    1.6501    0.0000 H   0  0  0  0  0  0  0  0  0  0  0  0
    7.8067    2.3403    0.0000 H   0  0  0  0  0  0  0  0  0  0  0  0
    4.8535    2.3403    0.0000 H   0  0  0  0  0  0  0  0  0  0  0  0
    5.2520    1.6501    0.0000 H   0  0  0  0  0  0  0  0  0  0  0  0
    7.8067    3.1250    0.0000 H   0  0  0  0  0  0  0  0  0  0  0  0
    7.4082    3.8153    0.0000 H   0  0  0  0  0  0  0  0  0  0  0  0
    5.2520    3.8153    0.0000 H   0  0  0  0  0  0  0  0  0  0  0  0
    4.8535    3.1250    0.0000 H   0  0  0  0  0  0  0  0  0  0  0  0
    6.5422    0.1501    0.0000 H   0  0  0  0  0  0  0  0  0  0  0  0
    6.9407    0.8403    0.0000 H   0  0  0  0  0  0  0  0  0  0  0  0
    5.2520    0.8153    0.0000 H   0  0  0  0  0  0  0  0  0  0  0  0
    4.8535    0.1250    0.0000 H   0  0  0  0  0  0  0  0  0  0  0  0
    5.6762   -1.3499    0.0000 H   0  0  0  0  0  0  0  0  0  0  0  0
    6.0747   -0.6597    0.0000 H   0  0  0  0  0  0  0  0  0  0  0  0
    4.9272    4.9227    0.0000 H   0  0  0  0  0  0  0  0  0  0  0  0
    4.3860   -0.6847    0.0000 H   0  0  0  0  0  0  0  0  0  0  0  0
    3.9875   -1.3750    0.0000 H   0  0  0  0  0  0  0  0  0  0  0  0
    8.0829    4.0780    0.0000 H   0  0  0  0  0  0  0  0  0  0  0  0
    4.9272    6.5427    0.0000 H   0  0  0  0  0  0  0  0  0  0  0  0
    6.3301    7.3527    0.0000 H   0  0  0  0  0  0  0  0  0  0  0  0
    8.0829    7.3873    0.0000 H   0  0  0  0  0  0  0  0  0  0  0  0
    5.1350   -2.5773    0.0000 H   0  0  0  0  0  0  0  0  0  0  0  0
    9.5319    4.8998    0.0000 H   0  0  0  0  0  0  0  0  0  0  0  0
    9.5319    6.5656    0.0000 H   0  0  0  0  0  0  0  0  0  0  0  0
    2.3291   -3.9573    0.0000 H   0  0  0  0  0  0  0  0  0  0  0  0
    5.1350   -3.9573    0.0000 H   0  0  0  0  0  0  0  0  0  0  0  0
    5.1350   -5.5773    0.0000 H   0  0  0  0  0  0  0  0  0  0  0  0
    3.7320   -6.3873    0.0000 H   0  0  0  0  0  0  0  0  0  0  0  0
    1.3800   -6.7673    0.0000 H   0  0  0  0  0  0  0  0  0  0  0  0
    2.0000   -7.3873    0.0000 H   0  0  0  0  0  0  0  0  0  0  0  0
    2.6200   -6.7673    0.0000 H   0  0  0  0  0  0  0  0  0  0  0  0
  1 24  2  0  0  0  0
  2 28  1  0  0  0  0
  2 31  1  0  0  0  0
  3  6  1  0  0  0  0
  3  7  1  0  0  0  0
  3 10  1  0  0  0  0
  4  8  1  0  0  0  0
  4  9  1  0  0  0  0
  4 12  1  0  0  0  0
  5 16  1  0  0  0  0
  5 24  1  0  0  0  0
  5 53  1  0  0  0  0
  6  8  1  0  0  0  0
  6 32  1  0  0  0  0
  6 33  1  0  0  0  0
  7  9  1  0  0  0  0
  7 34  1  0  0  0  0
  7 35  1  0  0  0  0
  8 36  1  0  0  0  0
  8 37  1  0  0  0  0
  9 38  1  0  0  0  0
  9 39  1  0  0  0  0
 10 11  1  0  0  0  0
 10 40  1  0  0  0  0
 10 41  1  0  0  0  0
 11 13  1  0  0  0  0
 11 42  1  0  0  0  0
 11 43  1  0  0  0  0
 12 14  1  0  0  0  0
 12 15  2  0  0  0  0
 13 16  1  0  0  0  0
 13 44  1  0  0  0  0
 13 45  1  0  0  0  0
 14 17  1  0  0  0  0
 14 18  2  0  0  0  0
 15 19  1  0  0  0  0
 15 46  1  0  0  0  0
 16 47  1  0  0  0  0
 16 48  1  0  0  0  0
 17 20  1  0  0  0  0
 17 21  2  0  0  0  0
 18 22  1  0  0  0  0
 18 49  1  0  0  0  0
 19 20  2  0  0  0  0
 19 50  1  0  0  0  0
 20 51  1  0  0  0  0
 21 23  1  0  0  0  0
 21 52  1  0  0  0  0
 22 23  2  0  0  0  0
 22 54  1  0  0  0  0
 23 55  1  0  0  0  0
 24 25  1  0  0  0  0
 25 26  2  0  0  0  0
 25 27  1  0  0  0  0
 26 28  1  0  0  0  0
 26 56  1  0  0  0  0
 27 29  2  0  0  0  0
 27 57  1  0  0  0  0
 28 30  2  0  0  0  0
 29 30  1  0  0  0  0
 29 58  1  0  0  0  0
 30 59  1  0  0  0  0
 31 60  1  0  0  0  0
 31 61  1  0  0  0  0
 31 62  1  0  0  0  0
M  END
> <PUBCHEM_COMPOUND_CID>
11811808

> <PUBCHEM_COMPOUND_CANONICALIZED>
1

> <PUBCHEM_CACTVS_COMPLEXITY>
549

> <PUBCHEM_CACTVS_HBOND_ACCEPTOR>
4

> <PUBCHEM_CACTVS_HBOND_DONOR>
1

> <PUBCHEM_CACTVS_ROTATABLE_BOND>
8

> <PUBCHEM_CACTVS_SUBSKEYS>
AAADceB7MAAAAAAAAAAAAAAAAAAAAAAAAAA8YMEAAAAAAADBVAAAHgAQAAAADAzBmAYyxsPABACIAiVSUACCCAAlIgAIiIEObMgMZjLEtZuUMShk1hHI6Ye6yJCOgAABQAASAAAAAAKAACQAAAAAAAAAAA==

> <PUBCHEM_IUPAC_OPENEYE_NAME>
3-methoxy-N-[4-[4-(1-naphthyl)piperazin-1-yl]butyl]benzamide

> <PUBCHEM_IUPAC_CAS_NAME>
3-methoxy-N-[4-[4-(1-naphthalenyl)-1-piperazinyl]butyl]benzamide

> <PUBCHEM_IUPAC_NAME_MARKUP>
3-methoxy-<I>N</I>-[4-(4-naphthalen-1-ylpiperazin-1-yl)butyl]benzamide

> <PUBCHEM_IUPAC_NAME>
3-methoxy-N-[4-(4-naphthalen-1-ylpiperazin-1-yl)butyl]benzamide

> <PUBCHEM_IUPAC_SYSTEMATIC_NAME>
3-methoxy-N-[4-(4-naphthalen-1-ylpiperazin-1-yl)butyl]benzamide

> <PUBCHEM_IUPAC_TRADITIONAL_NAME>
3-methoxy-N-[4-[4-(1-naphthyl)piperazino]butyl]benzamide

> <PUBCHEM_IUPAC_INCHI>
InChI=1S/C26H31N3O2/c1-31-23-11-6-10-22(20-23)26(30)27-14-4-5-15-28-16-18-29(19-17-28)25-13-7-9-21-8-2-3-12-24(21)25/h2-3,6-13,20H,4-5,14-19H2,1H3,(H,27,30)

> <PUBCHEM_IUPAC_INCHIKEY>
CQGCCVPXYLTEHT-UHFFFAOYSA-N

> <PUBCHEM_XLOGP3_AA>
4.8

> <PUBCHEM_EXACT_MASS>
417.24162724

> <PUBCHEM_MOLECULAR_FORMULA>
C26H31N3O2

> <PUBCHEM_MOLECULAR_WEIGHT>
417.5

> <PUBCHEM_OPENEYE_CAN_SMILES>
COC1=CC=CC(=C1)C(=O)NCCCCN2CCN(CC2)C3=CC=CC4=CC=CC=C43

> <PUBCHEM_OPENEYE_ISO_SMILES>
COC1=CC=CC(=C1)C(=O)NCCCCN2CCN(CC2)C3=CC=CC4=CC=CC=C43

> <PUBCHEM_CACTVS_TPSA>
44.8

> <PUBCHEM_MONOISOTOPIC_WEIGHT>
417.24162724

> <PUBCHEM_TOTAL_CHARGE>
0

> <PUBCHEM_HEAVY_ATOM_COUNT>
31

> <PUBCHEM_ATOM_DEF_STEREO_COUNT>
0

> <PUBCHEM_ATOM_UDEF_STEREO_COUNT>
0

> <PUBCHEM_BOND_DEF_STEREO_COUNT>
0

> <PUBCHEM_BOND_UDEF_STEREO_COUNT>
0

> <PUBCHEM_ISOTOPIC_ATOM_COUNT>
0

> <PUBCHEM_COMPONENT_COUNT>
1

> <PUBCHEM_CACTVS_TAUTO_COUNT>
-1

> <PUBCHEM_COORDINATE_TYPE>
1
5
255

> <PUBCHEM_BONDANNOTATIONS>
12  14  8
12  15  8
14  17  8
14  18  8
15  19  8
17  20  8
17  21  8
18  22  8
19  20  8
21  23  8
22  23  8
25  26  8
25  27  8
26  28  8
27  29  8
28  30  8
29  30  8

$$$$
