46881464
  -OEChem-09292322022D

 40 42  0     1  0  0  0  0  0999 V2000
    2.0000   -4.2428    0.0000 Cl  0  0  0  0  0  0  0  0  0  0  0  0
    5.4921   -0.9640    0.0000 O   0  0  0  0  0  0  0  0  0  0  0  0
    4.2320    0.2961    0.0000 N   0  0  0  0  0  0  0  0  0  0  0  0
    4.5942    3.7412    0.0000 N   0  0  0  0  0  0  0  0  0  0  0  0
    3.7320   -1.2428    0.0000 N   0  0  0  0  0  0  0  0  0  0  0  0
    4.4131    2.0186    0.0000 C   0  0  3  0  0  0  0  0  0  0  0  0
    3.4186    2.1232    0.0000 C   0  0  0  0  0  0  0  0  0  0  0  0
    4.8198    1.1051    0.0000 C   0  0  0  0  0  0  0  0  0  0  0  0
    5.0009    2.8276    0.0000 C   0  0  0  0  0  0  0  0  0  0  0  0
    3.0118    3.0367    0.0000 C   0  0  0  0  0  0  0  0  0  0  0  0
    3.5996    3.8457    0.0000 C   0  0  0  0  0  0  0  0  0  0  0  0
    3.2320    0.2961    0.0000 C   0  0  0  0  0  0  0  0  0  0  0  0
    2.9230   -0.6550    0.0000 C   0  0  0  0  0  0  0  0  0  0  0  0
    4.5411   -0.6550    0.0000 C   0  0  0  0  0  0  0  0  0  0  0  0
    3.7320   -2.2428    0.0000 C   0  0  0  0  0  0  0  0  0  0  0  0
    2.8660   -2.7428    0.0000 C   0  0  0  0  0  0  0  0  0  0  0  0
    4.5981   -2.7428    0.0000 C   0  0  0  0  0  0  0  0  0  0  0  0
    2.8660   -3.7428    0.0000 C   0  0  0  0  0  0  0  0  0  0  0  0
    4.5981   -3.7428    0.0000 C   0  0  0  0  0  0  0  0  0  0  0  0
    3.7320   -4.2428    0.0000 C   0  0  0  0  0  0  0  0  0  0  0  0
    4.0487    1.5170    0.0000 H   0  0  0  0  0  0  0  0  0  0  0  0
    5.2505    0.6591    0.0000 H   0  0  0  0  0  0  0  0  0  0  0  0
    5.3338    1.4518    0.0000 H   0  0  0  0  0  0  0  0  0  0  0  0
    2.8170    1.9732    0.0000 H   0  0  0  0  0  0  0  0  0  0  0  0
    3.4618    1.5047    0.0000 H   0  0  0  0  0  0  0  0  0  0  0  0
    5.4316    2.3816    0.0000 H   0  0  0  0  0  0  0  0  0  0  0  0
    5.5149    3.1743    0.0000 H   0  0  0  0  0  0  0  0  0  0  0  0
    2.5812    3.4827    0.0000 H   0  0  0  0  0  0  0  0  0  0  0  0
    2.4978    2.6900    0.0000 H   0  0  0  0  0  0  0  0  0  0  0  0
    3.7705    4.4417    0.0000 H   0  0  0  0  0  0  0  0  0  0  0  0
    3.0424    4.1175    0.0000 H   0  0  0  0  0  0  0  0  0  0  0  0
    3.2969    0.9127    0.0000 H   0  0  0  0  0  0  0  0  0  0  0  0
    2.6256    0.4250    0.0000 H   0  0  0  0  0  0  0  0  0  0  0  0
    4.9586    4.2428    0.0000 H   0  0  0  0  0  0  0  0  0  0  0  0
    2.3566   -0.4028    0.0000 H   0  0  0  0  0  0  0  0  0  0  0  0
    2.6130   -1.1919    0.0000 H   0  0  0  0  0  0  0  0  0  0  0  0
    2.3291   -2.4328    0.0000 H   0  0  0  0  0  0  0  0  0  0  0  0
    5.1350   -2.4328    0.0000 H   0  0  0  0  0  0  0  0  0  0  0  0
    5.1350   -4.0528    0.0000 H   0  0  0  0  0  0  0  0  0  0  0  0
    3.7320   -4.8628    0.0000 H   0  0  0  0  0  0  0  0  0  0  0  0
  1 18  1  0  0  0  0
  2 14  2  0  0  0  0
  3  8  1  0  0  0  0
  3 12  1  0  0  0  0
  3 14  1  0  0  0  0
  4  9  1  0  0  0  0
  4 11  1  0  0  0  0
  4 34  1  0  0  0  0
  5 13  1  0  0  0  0
  5 14  1  0  0  0  0
  5 15  1  0  0  0  0
  6  7  1  0  0  0  0
  6  8  1  0  0  0  0
  6  9  1  0  0  0  0
  6 21  1  0  0  0  0
  7 10  1  0  0  0  0
  7 24  1  0  0  0  0
  7 25  1  0  0  0  0
  8 22  1  0  0  0  0
  8 23  1  0  0  0  0
  9 26  1  0  0  0  0
  9 27  1  0  0  0  0
 10 11  1  0  0  0  0
 10 28  1  0  0  0  0
 10 29  1  0  0  0  0
 11 30  1  0  0  0  0
 11 31  1  0  0  0  0
 12 13  1  0  0  0  0
 12 32  1  0  0  0  0
 12 33  1  0  0  0  0
 13 35  1  0  0  0  0
 13 36  1  0  0  0  0
 15 16  2  0  0  0  0
 15 17  1  0  0  0  0
 16 18  1  0  0  0  0
 16 37  1  0  0  0  0
 17 19  2  0  0  0  0
 17 38  1  0  0  0  0
 18 20  2  0  0  0  0
 19 20  1  0  0  0  0
 19 39  1  0  0  0  0
 20 40  1  0  0  0  0
M  END
> <PUBCHEM_COMPOUND_CID>
46881464

> <PUBCHEM_COMPOUND_CANONICALIZED>
1

> <PUBCHEM_CACTVS_COMPLEXITY>
352

> <PUBCHEM_CACTVS_HBOND_ACCEPTOR>
2

> <PUBCHEM_CACTVS_HBOND_DONOR>
1

> <PUBCHEM_CACTVS_ROTATABLE_BOND>
3

> <PUBCHEM_CACTVS_SUBSKEYS>
AAADceBzIAAEAAAAAAAAAAAAAAAAAWAAAAA8QAAAAAAAAAABAAAAHgIQAAAADQrBECQxwIPAAACIACRCUACCAAAhBwAIiIAIZoiIYCLB05GUIAholgLIyCcQAAAMAAAAAAIAAAAAAAAABAAAAAAAAAAAAA==

> <PUBCHEM_IUPAC_OPENEYE_NAME>
1-(3-chlorophenyl)-3-(3-piperidylmethyl)imidazolidin-2-one

> <PUBCHEM_IUPAC_CAS_NAME>
1-(3-chlorophenyl)-3-(3-piperidinylmethyl)-2-imidazolidinone

> <PUBCHEM_IUPAC_NAME_MARKUP>
1-(3-chlorophenyl)-3-(piperidin-3-ylmethyl)imidazolidin-2-one

> <PUBCHEM_IUPAC_NAME>
1-(3-chlorophenyl)-3-(piperidin-3-ylmethyl)imidazolidin-2-one

> <PUBCHEM_IUPAC_SYSTEMATIC_NAME>
1-(3-chlorophenyl)-3-(piperidin-3-ylmethyl)imidazolidin-2-one

> <PUBCHEM_IUPAC_TRADITIONAL_NAME>
1-(3-chlorophenyl)-3-(3-piperidylmethyl)-2-imidazolidinone

> <PUBCHEM_IUPAC_INCHI>
InChI=1S/C15H20ClN3O/c16-13-4-1-5-14(9-13)19-8-7-18(15(19)20)11-12-3-2-6-17-10-12/h1,4-5,9,12,17H,2-3,6-8,10-11H2

> <PUBCHEM_IUPAC_INCHIKEY>
FRYFTASOYSPSFB-UHFFFAOYSA-N

> <PUBCHEM_XLOGP3_AA>
2

> <PUBCHEM_EXACT_MASS>
293.1294900

> <PUBCHEM_MOLECULAR_FORMULA>
C15H20ClN3O

> <PUBCHEM_MOLECULAR_WEIGHT>
293.79

> <PUBCHEM_OPENEYE_CAN_SMILES>
C1CC(CNC1)CN2CCN(C2=O)C3=CC(=CC=C3)Cl

> <PUBCHEM_OPENEYE_ISO_SMILES>
C1CC(CNC1)CN2CCN(C2=O)C3=CC(=CC=C3)Cl

> <PUBCHEM_CACTVS_TPSA>
35.6

> <PUBCHEM_MONOISOTOPIC_WEIGHT>
293.1294900

> <PUBCHEM_TOTAL_CHARGE>
0

> <PUBCHEM_HEAVY_ATOM_COUNT>
20

> <PUBCHEM_ATOM_DEF_STEREO_COUNT>
0

> <PUBCHEM_ATOM_UDEF_STEREO_COUNT>
1

> <PUBCHEM_BOND_DEF_STEREO_COUNT>
0

> <PUBCHEM_BOND_UDEF_STEREO_COUNT>
0

> <PUBCHEM_ISOTOPIC_ATOM_COUNT>
0

> <PUBCHEM_COMPONENT_COUNT>
1

> <PUBCHEM_CACTVS_TAUTO_COUNT>
-1

> <PUBCHEM_COORDINATE_TYPE>
1
5
255

> <PUBCHEM_BONDANNOTATIONS>
15  16  8
15  17  8
16  18  8
17  19  8
18  20  8
19  20  8
6  8  3

$$$$
