15817172
  -OEChem-09292322202D

 58 62  0     0  0  0  0  0  0999 V2000
    9.2619    0.6020    0.0000 O   0  0  0  0  0  0  0  0  0  0  0  0
   12.2619   -1.1300    0.0000 N   0  0  0  0  0  0  0  0  0  0  0  0
   14.2619   -1.1300    0.0000 N   0  0  0  0  0  0  0  0  0  0  0  0
   15.7619   -1.9961    0.0000 N   0  0  0  0  0  0  0  0  0  0  0  0
    4.6783    1.4067    0.0000 N   0  0  0  0  0  0  0  0  0  0  0  0
    4.6783   -0.2027    0.0000 N   0  0  0  0  0  0  0  0  0  0  0  0
   12.7619   -0.2640    0.0000 C   0  0  0  0  0  0  0  0  0  0  0  0
   12.7619   -1.9961    0.0000 C   0  0  0  0  0  0  0  0  0  0  0  0
   13.7619   -0.2640    0.0000 C   0  0  0  0  0  0  0  0  0  0  0  0
   13.7619   -1.9961    0.0000 C   0  0  0  0  0  0  0  0  0  0  0  0
   11.2619   -1.1300    0.0000 C   0  0  0  0  0  0  0  0  0  0  0  0
   10.7619   -0.2640    0.0000 C   0  0  0  0  0  0  0  0  0  0  0  0
   15.2619   -1.1300    0.0000 C   0  0  0  0  0  0  0  0  0  0  0  0
    9.7619   -0.2640    0.0000 C   0  0  0  0  0  0  0  0  0  0  0  0
   15.7619   -0.2640    0.0000 C   0  0  0  0  0  0  0  0  0  0  0  0
   16.7619   -0.2640    0.0000 C   0  0  0  0  0  0  0  0  0  0  0  0
    8.2619    0.6020    0.0000 C   0  0  0  0  0  0  0  0  0  0  0  0
   16.7619   -1.9961    0.0000 C   0  0  0  0  0  0  0  0  0  0  0  0
   17.2619   -1.1300    0.0000 C   0  0  0  0  0  0  0  0  0  0  0  0
    6.2619    0.6020    0.0000 C   0  0  0  0  0  0  0  0  0  0  0  0
    7.7619    1.4680    0.0000 C   0  0  0  0  0  0  0  0  0  0  0  0
    7.7619   -0.2640    0.0000 C   0  0  0  0  0  0  0  0  0  0  0  0
    5.2619    0.6020    0.0000 C   0  0  0  0  0  0  0  0  0  0  0  0
    6.7619    1.4680    0.0000 C   0  0  0  0  0  0  0  0  0  0  0  0
    6.7619   -0.2640    0.0000 C   0  0  0  0  0  0  0  0  0  0  0  0
    3.7320    1.1020    0.0000 C   0  0  0  0  0  0  0  0  0  0  0  0
    3.7320    0.1020    0.0000 C   0  0  0  0  0  0  0  0  0  0  0  0
    2.8660    1.6020    0.0000 C   0  0  0  0  0  0  0  0  0  0  0  0
    2.8660   -0.3980    0.0000 C   0  0  0  0  0  0  0  0  0  0  0  0
    2.0000    1.1020    0.0000 C   0  0  0  0  0  0  0  0  0  0  0  0
    2.0000    0.1020    0.0000 C   0  0  0  0  0  0  0  0  0  0  0  0
   12.8695    0.3466    0.0000 H   0  0  0  0  0  0  0  0  0  0  0  0
   12.1793   -0.0520    0.0000 H   0  0  0  0  0  0  0  0  0  0  0  0
   12.1793   -2.2081    0.0000 H   0  0  0  0  0  0  0  0  0  0  0  0
   12.8695   -2.6066    0.0000 H   0  0  0  0  0  0  0  0  0  0  0  0
   14.3445   -0.0520    0.0000 H   0  0  0  0  0  0  0  0  0  0  0  0
   13.6542    0.3466    0.0000 H   0  0  0  0  0  0  0  0  0  0  0  0
   13.6542   -2.6066    0.0000 H   0  0  0  0  0  0  0  0  0  0  0  0
   14.3445   -2.2081    0.0000 H   0  0  0  0  0  0  0  0  0  0  0  0
   10.6793   -1.3421    0.0000 H   0  0  0  0  0  0  0  0  0  0  0  0
   11.3695   -1.7406    0.0000 H   0  0  0  0  0  0  0  0  0  0  0  0
   11.3445   -0.0520    0.0000 H   0  0  0  0  0  0  0  0  0  0  0  0
   10.6542    0.3466    0.0000 H   0  0  0  0  0  0  0  0  0  0  0  0
    9.1793   -0.4761    0.0000 H   0  0  0  0  0  0  0  0  0  0  0  0
    9.8695   -0.8746    0.0000 H   0  0  0  0  0  0  0  0  0  0  0  0
   15.4519    0.2729    0.0000 H   0  0  0  0  0  0  0  0  0  0  0  0
   17.0719    0.2729    0.0000 H   0  0  0  0  0  0  0  0  0  0  0  0
   17.0719   -2.5330    0.0000 H   0  0  0  0  0  0  0  0  0  0  0  0
   17.8819   -1.1300    0.0000 H   0  0  0  0  0  0  0  0  0  0  0  0
    8.0719    2.0050    0.0000 H   0  0  0  0  0  0  0  0  0  0  0  0
    8.0719   -0.8010    0.0000 H   0  0  0  0  0  0  0  0  0  0  0  0
    6.4519    2.0050    0.0000 H   0  0  0  0  0  0  0  0  0  0  0  0
    6.4519   -0.8010    0.0000 H   0  0  0  0  0  0  0  0  0  0  0  0
    4.8709    1.9961    0.0000 H   0  0  0  0  0  0  0  0  0  0  0  0
    2.8660    2.2220    0.0000 H   0  0  0  0  0  0  0  0  0  0  0  0
    2.8660   -1.0180    0.0000 H   0  0  0  0  0  0  0  0  0  0  0  0
    1.4631    1.4120    0.0000 H   0  0  0  0  0  0  0  0  0  0  0  0
    1.4631   -0.2080    0.0000 H   0  0  0  0  0  0  0  0  0  0  0  0
  1 14  1  0  0  0  0
  1 17  1  0  0  0  0
  2  7  1  0  0  0  0
  2  8  1  0  0  0  0
  2 11  1  0  0  0  0
  3  9  1  0  0  0  0
  3 10  1  0  0  0  0
  3 13  1  0  0  0  0
  4 13  1  0  0  0  0
  4 18  2  0  0  0  0
  5 23  1  0  0  0  0
  5 26  1  0  0  0  0
  5 54  1  0  0  0  0
  6 23  2  0  0  0  0
  6 27  1  0  0  0  0
  7  9  1  0  0  0  0
  7 32  1  0  0  0  0
  7 33  1  0  0  0  0
  8 10  1  0  0  0  0
  8 34  1  0  0  0  0
  8 35  1  0  0  0  0
  9 36  1  0  0  0  0
  9 37  1  0  0  0  0
 10 38  1  0  0  0  0
 10 39  1  0  0  0  0
 11 12  1  0  0  0  0
 11 40  1  0  0  0  0
 11 41  1  0  0  0  0
 12 14  1  0  0  0  0
 12 42  1  0  0  0  0
 12 43  1  0  0  0  0
 13 15  2  0  0  0  0
 14 44  1  0  0  0  0
 14 45  1  0  0  0  0
 15 16  1  0  0  0  0
 15 46  1  0  0  0  0
 16 19  2  0  0  0  0
 16 47  1  0  0  0  0
 17 21  2  0  0  0  0
 17 22  1  0  0  0  0
 18 19  1  0  0  0  0
 18 48  1  0  0  0  0
 19 49  1  0  0  0  0
 20 23  1  0  0  0  0
 20 24  2  0  0  0  0
 20 25  1  0  0  0  0
 21 24  1  0  0  0  0
 21 50  1  0  0  0  0
 22 25  2  0  0  0  0
 22 51  1  0  0  0  0
 24 52  1  0  0  0  0
 25 53  1  0  0  0  0
 26 27  1  0  0  0  0
 26 28  2  0  0  0  0
 27 29  2  0  0  0  0
 28 30  1  0  0  0  0
 28 55  1  0  0  0  0
 29 31  1  0  0  0  0
 29 56  1  0  0  0  0
 30 31  2  0  0  0  0
 30 57  1  0  0  0  0
 31 58  1  0  0  0  0
M  END
> <PUBCHEM_COMPOUND_CID>
15817172

> <PUBCHEM_COMPOUND_CANONICALIZED>
1

> <PUBCHEM_CACTVS_COMPLEXITY>
532

> <PUBCHEM_CACTVS_HBOND_ACCEPTOR>
5

> <PUBCHEM_CACTVS_HBOND_DONOR>
1

> <PUBCHEM_CACTVS_ROTATABLE_BOND>
7

> <PUBCHEM_CACTVS_SUBSKEYS>
AAADceB7oAAAAAAAAAAAAAAAAAAAAWAAAAA8eIEAAAAAAFgB/AAAHgAQAAAADAzhnwY99rfJlACgAzZnZACCiC2xMqAJ2SA+fJiMbuLEuZuWOCju0BPI6CeQ0AIOIAAAAAAAACBAAAAAAAAAQAAAAAAAAA==

> <PUBCHEM_IUPAC_OPENEYE_NAME>
2-[4-[3-[4-(2-pyridyl)piperazin-1-yl]propoxy]phenyl]-1H-benzimidazole

> <PUBCHEM_IUPAC_CAS_NAME>
2-[4-[3-[4-(2-pyridinyl)-1-piperazinyl]propoxy]phenyl]-1H-benzimidazole

> <PUBCHEM_IUPAC_NAME_MARKUP>
2-[4-[3-(4-pyridin-2-ylpiperazin-1-yl)propoxy]phenyl]-1<I>H</I>-benzimidazole

> <PUBCHEM_IUPAC_NAME>
2-[4-[3-(4-pyridin-2-ylpiperazin-1-yl)propoxy]phenyl]-1H-benzimidazole

> <PUBCHEM_IUPAC_SYSTEMATIC_NAME>
2-[4-[3-(4-pyridin-2-ylpiperazin-1-yl)propoxy]phenyl]-1H-benzimidazole

> <PUBCHEM_IUPAC_TRADITIONAL_NAME>
2-[4-[3-[4-(2-pyridyl)piperazino]propoxy]phenyl]-1H-benzimidazole

> <PUBCHEM_IUPAC_INCHI>
InChI=1S/C25H27N5O/c1-2-7-23-22(6-1)27-25(28-23)20-9-11-21(12-10-20)31-19-5-14-29-15-17-30(18-16-29)24-8-3-4-13-26-24/h1-4,6-13H,5,14-19H2,(H,27,28)

> <PUBCHEM_IUPAC_INCHIKEY>
ZUXITOJFACOGFP-UHFFFAOYSA-N

> <PUBCHEM_XLOGP3_AA>
4.4

> <PUBCHEM_EXACT_MASS>
413.22156050

> <PUBCHEM_MOLECULAR_FORMULA>
C25H27N5O

> <PUBCHEM_MOLECULAR_WEIGHT>
413.5

> <PUBCHEM_OPENEYE_CAN_SMILES>
C1CN(CCN1CCCOC2=CC=C(C=C2)C3=NC4=CC=CC=C4N3)C5=CC=CC=N5

> <PUBCHEM_OPENEYE_ISO_SMILES>
C1CN(CCN1CCCOC2=CC=C(C=C2)C3=NC4=CC=CC=C4N3)C5=CC=CC=N5

> <PUBCHEM_CACTVS_TPSA>
57.3

> <PUBCHEM_MONOISOTOPIC_WEIGHT>
413.22156050

> <PUBCHEM_TOTAL_CHARGE>
0

> <PUBCHEM_HEAVY_ATOM_COUNT>
31

> <PUBCHEM_ATOM_DEF_STEREO_COUNT>
0

> <PUBCHEM_ATOM_UDEF_STEREO_COUNT>
0

> <PUBCHEM_BOND_DEF_STEREO_COUNT>
0

> <PUBCHEM_BOND_UDEF_STEREO_COUNT>
0

> <PUBCHEM_ISOTOPIC_ATOM_COUNT>
0

> <PUBCHEM_COMPONENT_COUNT>
1

> <PUBCHEM_CACTVS_TAUTO_COUNT>
-1

> <PUBCHEM_COORDINATE_TYPE>
1
5
255

> <PUBCHEM_BONDANNOTATIONS>
13  15  8
15  16  8
16  19  8
17  21  8
17  22  8
18  19  8
20  24  8
20  25  8
21  24  8
22  25  8
26  27  8
26  28  8
27  29  8
28  30  8
29  31  8
30  31  8
4  13  8
4  18  8
5  23  8
5  26  8
6  23  8
6  27  8

$$$$
