46888983
  -OEChem-09292322292D

 63 66  0     0  0  0  0  0  0999 V2000
    2.8660   -1.3343    0.0000 S   0  0  0  0  0  0  0  0  0  0  0  0
    5.4641    2.1657    0.0000 O   0  0  0  0  0  0  0  0  0  0  0  0
   15.9224    0.1415    0.0000 O   0  0  0  0  0  0  0  0  0  0  0  0
    3.3660   -2.2003    0.0000 O   0  0  0  0  0  0  0  0  0  0  0  0
    2.3660   -0.4683    0.0000 O   0  0  0  0  0  0  0  0  0  0  0  0
    8.0622    1.6657    0.0000 N   0  0  0  0  0  0  0  0  0  0  0  0
   14.1523    0.1310    0.0000 N   0  0  0  0  0  0  0  0  0  0  0  0
    3.7320   -0.8343    0.0000 N   0  0  0  0  0  0  0  0  0  0  0  0
    9.7942    0.6657    0.0000 C   0  0  0  0  0  0  0  0  0  0  0  0
    8.9282    0.1657    0.0000 C   0  0  0  0  0  0  0  0  0  0  0  0
    9.7942    1.6657    0.0000 C   0  0  0  0  0  0  0  0  0  0  0  0
    8.0622    0.6657    0.0000 C   0  0  0  0  0  0  0  0  0  0  0  0
    8.9282    2.1657    0.0000 C   0  0  0  0  0  0  0  0  0  0  0  0
   10.6603    0.1657    0.0000 C   0  0  0  0  0  0  0  0  0  0  0  0
    7.1962    2.1657    0.0000 C   0  0  0  0  0  0  0  0  0  0  0  0
   11.5263    0.6657    0.0000 C   0  0  0  0  0  0  0  0  0  0  0  0
    6.3301    1.6657    0.0000 C   0  0  0  0  0  0  0  0  0  0  0  0
   12.3923    0.1657    0.0000 C   0  0  0  0  0  0  0  0  0  0  0  0
   11.5263    1.6657    0.0000 C   0  0  0  0  0  0  0  0  0  0  0  0
   13.2583    0.6657    0.0000 C   0  0  0  0  0  0  0  0  0  0  0  0
   13.2583    1.6657    0.0000 C   0  0  0  0  0  0  0  0  0  0  0  0
   12.3923    2.1657    0.0000 C   0  0  0  0  0  0  0  0  0  0  0  0
   14.1523    2.2003    0.0000 C   0  0  0  0  0  0  0  0  0  0  0  0
   15.0583    1.6865    0.0000 C   0  0  0  0  0  0  0  0  0  0  0  0
   15.0583    0.6449    0.0000 C   0  0  0  0  0  0  0  0  0  0  0  0
    4.5981    1.6657    0.0000 C   0  0  0  0  0  0  0  0  0  0  0  0
    4.5981    0.6657    0.0000 C   0  0  0  0  0  0  0  0  0  0  0  0
    3.7320    2.1657    0.0000 C   0  0  0  0  0  0  0  0  0  0  0  0
    3.7320    0.1657    0.0000 C   0  0  0  0  0  0  0  0  0  0  0  0
    2.8660    1.6657    0.0000 C   0  0  0  0  0  0  0  0  0  0  0  0
    2.8660    0.6657    0.0000 C   0  0  0  0  0  0  0  0  0  0  0  0
    2.0000   -1.8343    0.0000 C   0  0  0  0  0  0  0  0  0  0  0  0
    9.7942    0.0457    0.0000 H   0  0  0  0  0  0  0  0  0  0  0  0
    8.5297   -0.3093    0.0000 H   0  0  0  0  0  0  0  0  0  0  0  0
    9.3267   -0.3093    0.0000 H   0  0  0  0  0  0  0  0  0  0  0  0
   10.4048    1.5580    0.0000 H   0  0  0  0  0  0  0  0  0  0  0  0
   10.0063    2.2483    0.0000 H   0  0  0  0  0  0  0  0  0  0  0  0
    7.4516    0.7733    0.0000 H   0  0  0  0  0  0  0  0  0  0  0  0
    7.8501    0.0831    0.0000 H   0  0  0  0  0  0  0  0  0  0  0  0
    9.3267    2.6406    0.0000 H   0  0  0  0  0  0  0  0  0  0  0  0
    8.5297    2.6406    0.0000 H   0  0  0  0  0  0  0  0  0  0  0  0
   10.2617   -0.3093    0.0000 H   0  0  0  0  0  0  0  0  0  0  0  0
   11.0588   -0.3093    0.0000 H   0  0  0  0  0  0  0  0  0  0  0  0
    7.5947    2.6406    0.0000 H   0  0  0  0  0  0  0  0  0  0  0  0
    6.7976    2.6406    0.0000 H   0  0  0  0  0  0  0  0  0  0  0  0
    5.9316    1.1907    0.0000 H   0  0  0  0  0  0  0  0  0  0  0  0
    6.7287    1.1907    0.0000 H   0  0  0  0  0  0  0  0  0  0  0  0
   12.3923   -0.4543    0.0000 H   0  0  0  0  0  0  0  0  0  0  0  0
   10.9893    1.9757    0.0000 H   0  0  0  0  0  0  0  0  0  0  0  0
   12.3923    2.7857    0.0000 H   0  0  0  0  0  0  0  0  0  0  0  0
   14.5459    2.6794    0.0000 H   0  0  0  0  0  0  0  0  0  0  0  0
   13.7477    2.6701    0.0000 H   0  0  0  0  0  0  0  0  0  0  0  0
   15.6692    1.5804    0.0000 H   0  0  0  0  0  0  0  0  0  0  0  0
   15.2674    2.2702    0.0000 H   0  0  0  0  0  0  0  0  0  0  0  0
   14.1451   -0.4889    0.0000 H   0  0  0  0  0  0  0  0  0  0  0  0
    5.1350    0.3557    0.0000 H   0  0  0  0  0  0  0  0  0  0  0  0
    3.7320    2.7857    0.0000 H   0  0  0  0  0  0  0  0  0  0  0  0
    2.3291    1.9757    0.0000 H   0  0  0  0  0  0  0  0  0  0  0  0
    2.3291    0.3557    0.0000 H   0  0  0  0  0  0  0  0  0  0  0  0
    4.2690   -1.1443    0.0000 H   0  0  0  0  0  0  0  0  0  0  0  0
    1.6900   -1.2974    0.0000 H   0  0  0  0  0  0  0  0  0  0  0  0
    1.4631   -2.1443    0.0000 H   0  0  0  0  0  0  0  0  0  0  0  0
    2.3100   -2.3712    0.0000 H   0  0  0  0  0  0  0  0  0  0  0  0
  1  4  2  0  0  0  0
  1  5  2  0  0  0  0
  1  8  1  0  0  0  0
  1 32  1  0  0  0  0
  2 17  1  0  0  0  0
  2 26  1  0  0  0  0
  3 25  2  0  0  0  0
  6 12  1  0  0  0  0
  6 13  1  0  0  0  0
  6 15  1  0  0  0  0
  7 20  1  0  0  0  0
  7 25  1  0  0  0  0
  7 55  1  0  0  0  0
  8 29  1  0  0  0  0
  8 60  1  0  0  0  0
  9 10  1  0  0  0  0
  9 11  1  0  0  0  0
  9 14  1  0  0  0  0
  9 33  1  0  0  0  0
 10 12  1  0  0  0  0
 10 34  1  0  0  0  0
 10 35  1  0  0  0  0
 11 13  1  0  0  0  0
 11 36  1  0  0  0  0
 11 37  1  0  0  0  0
 12 38  1  0  0  0  0
 12 39  1  0  0  0  0
 13 40  1  0  0  0  0
 13 41  1  0  0  0  0
 14 16  1  0  0  0  0
 14 42  1  0  0  0  0
 14 43  1  0  0  0  0
 15 17  1  0  0  0  0
 15 44  1  0  0  0  0
 15 45  1  0  0  0  0
 16 18  2  0  0  0  0
 16 19  1  0  0  0  0
 17 46  1  0  0  0  0
 17 47  1  0  0  0  0
 18 20  1  0  0  0  0
 18 48  1  0  0  0  0
 19 22  2  0  0  0  0
 19 49  1  0  0  0  0
 20 21  2  0  0  0  0
 21 22  1  0  0  0  0
 21 23  1  0  0  0  0
 22 50  1  0  0  0  0
 23 24  1  0  0  0  0
 23 51  1  0  0  0  0
 23 52  1  0  0  0  0
 24 25  1  0  0  0  0
 24 53  1  0  0  0  0
 24 54  1  0  0  0  0
 26 27  1  0  0  0  0
 26 28  2  0  0  0  0
 27 29  2  0  0  0  0
 27 56  1  0  0  0  0
 28 30  1  0  0  0  0
 28 57  1  0  0  0  0
 29 31  1  0  0  0  0
 30 31  2  0  0  0  0
 30 58  1  0  0  0  0
 31 59  1  0  0  0  0
 32 61  1  0  0  0  0
 32 62  1  0  0  0  0
 32 63  1  0  0  0  0
M  END
> <PUBCHEM_COMPOUND_CID>
46888983

> <PUBCHEM_COMPOUND_CANONICALIZED>
1

> <PUBCHEM_CACTVS_COMPLEXITY>
717

> <PUBCHEM_CACTVS_HBOND_ACCEPTOR>
6

> <PUBCHEM_CACTVS_HBOND_DONOR>
2

> <PUBCHEM_CACTVS_ROTATABLE_BOND>
8

> <PUBCHEM_CACTVS_SUBSKEYS>
AAADceB7OABAAAAAAAAAAAAAAAAAAAAAAAA8eIEAAAAAAACxQAAAHgQQQAAADQzhmAayxoPABAKIAiVSUHCCCAAhIgAIiAEObIgOJjLEsZuHOCjm1BnY6AeY2cGeQAAAQgACAACAAACEAAQAAAAAAAAAAA==

> <PUBCHEM_IUPAC_OPENEYE_NAME>
N-[3-[2-[4-[(2-oxo-3,4-dihydro-1H-quinolin-7-yl)methyl]-1-piperidyl]ethoxy]phenyl]methanesulfonamide

> <PUBCHEM_IUPAC_CAS_NAME>
N-[3-[2-[4-[(2-oxo-3,4-dihydro-1H-quinolin-7-yl)methyl]-1-piperidinyl]ethoxy]phenyl]methanesulfonamide

> <PUBCHEM_IUPAC_NAME_MARKUP>
<I>N</I>-[3-[2-[4-[(2-oxo-3,4-dihydro-1<I>H</I>-quinolin-7-yl)methyl]piperidin-1-yl]ethoxy]phenyl]methanesulfonamide

> <PUBCHEM_IUPAC_NAME>
N-[3-[2-[4-[(2-oxo-3,4-dihydro-1H-quinolin-7-yl)methyl]piperidin-1-yl]ethoxy]phenyl]methanesulfonamide

> <PUBCHEM_IUPAC_SYSTEMATIC_NAME>
N-[3-[2-[4-[(2-oxidanylidene-3,4-dihydro-1H-quinolin-7-yl)methyl]piperidin-1-yl]ethoxy]phenyl]methanesulfonamide

> <PUBCHEM_IUPAC_TRADITIONAL_NAME>
N-[3-[2-[4-[(2-keto-3,4-dihydro-1H-quinolin-7-yl)methyl]piperidino]ethoxy]phenyl]methanesulfonamide

> <PUBCHEM_IUPAC_INCHI>
InChI=1S/C24H31N3O4S/c1-32(29,30)26-21-3-2-4-22(17-21)31-14-13-27-11-9-18(10-12-27)15-19-5-6-20-7-8-24(28)25-23(20)16-19/h2-6,16-18,26H,7-15H2,1H3,(H,25,28)

> <PUBCHEM_IUPAC_INCHIKEY>
ZBISUMKKQFCYDI-UHFFFAOYSA-N

> <PUBCHEM_XLOGP3_AA>
2.7

> <PUBCHEM_EXACT_MASS>
457.20352765

> <PUBCHEM_MOLECULAR_FORMULA>
C24H31N3O4S

> <PUBCHEM_MOLECULAR_WEIGHT>
457.6

> <PUBCHEM_OPENEYE_CAN_SMILES>
CS(=O)(=O)NC1=CC(=CC=C1)OCCN2CCC(CC2)CC3=CC4=C(CCC(=O)N4)C=C3

> <PUBCHEM_OPENEYE_ISO_SMILES>
CS(=O)(=O)NC1=CC(=CC=C1)OCCN2CCC(CC2)CC3=CC4=C(CCC(=O)N4)C=C3

> <PUBCHEM_CACTVS_TPSA>
96.1

> <PUBCHEM_MONOISOTOPIC_WEIGHT>
457.20352765

> <PUBCHEM_TOTAL_CHARGE>
0

> <PUBCHEM_HEAVY_ATOM_COUNT>
32

> <PUBCHEM_ATOM_DEF_STEREO_COUNT>
0

> <PUBCHEM_ATOM_UDEF_STEREO_COUNT>
0

> <PUBCHEM_BOND_DEF_STEREO_COUNT>
0

> <PUBCHEM_BOND_UDEF_STEREO_COUNT>
0

> <PUBCHEM_ISOTOPIC_ATOM_COUNT>
0

> <PUBCHEM_COMPONENT_COUNT>
1

> <PUBCHEM_CACTVS_TAUTO_COUNT>
-1

> <PUBCHEM_COORDINATE_TYPE>
1
5
255

> <PUBCHEM_BONDANNOTATIONS>
16  18  8
16  19  8
18  20  8
19  22  8
20  21  8
21  22  8
26  27  8
26  28  8
27  29  8
28  30  8
29  31  8
30  31  8

$$$$
