145964427
  -OEChem-09292322052D

 67 67  0     0  0  0  0  0  0999 V2000
    3.0000    6.6200    0.0000 Cl  0  0  0  0  0  0  0  0  0  0  0  0
    0.0000    6.6200    0.0000 Cl  0  0  0  0  0  0  0  0  0  0  0  0
   10.0010    5.6200    0.0000 O   0  0  0  0  0  0  0  0  0  0  0  0
   12.5991   11.1200    0.0000 O   0  0  0  0  0  0  0  0  0  0  0  0
    8.2690    3.6200    0.0000 O   0  0  0  0  0  0  0  0  0  0  0  0
   10.8671    8.1200    0.0000 N   0  0  0  0  0  0  0  0  0  0  0  0
   10.8671   10.1200    0.0000 N   0  0  0  0  0  0  0  0  0  0  0  0
   10.0010    8.6200    0.0000 C   0  0  0  0  0  0  0  0  0  0  0  0
   11.7331    8.6200    0.0000 C   0  0  0  0  0  0  0  0  0  0  0  0
   10.0010    9.6200    0.0000 C   0  0  0  0  0  0  0  0  0  0  0  0
   11.7331    9.6200    0.0000 C   0  0  0  0  0  0  0  0  0  0  0  0
   10.8671    7.1200    0.0000 C   0  0  0  0  0  0  0  0  0  0  0  0
   10.8671   11.1200    0.0000 C   0  0  0  0  0  0  0  0  0  0  0  0
   10.0010    6.6200    0.0000 C   0  0  0  0  0  0  0  0  0  0  0  0
   11.7331   11.6200    0.0000 C   0  0  0  0  0  0  0  0  0  0  0  0
   10.0010   11.6200    0.0000 C   0  0  0  0  0  0  0  0  0  0  0  0
   11.7331   12.6200    0.0000 C   0  0  0  0  0  0  0  0  0  0  0  0
   10.0010   12.6200    0.0000 C   0  0  0  0  0  0  0  0  0  0  0  0
    9.1350    5.1200    0.0000 C   0  0  0  0  0  0  0  0  0  0  0  0
   10.8671   13.1200    0.0000 C   0  0  0  0  0  0  0  0  0  0  0  0
    9.1350    4.1200    0.0000 C   0  0  0  0  0  0  0  0  0  0  0  0
    8.2690    2.6200    0.0000 C   0  0  0  0  0  0  0  0  0  0  0  0
   13.4651   11.6200    0.0000 C   0  0  0  0  0  0  0  0  0  0  0  0
    7.4030    2.1200    0.0000 C   0  0  0  0  0  0  0  0  0  0  0  0
    7.4030    1.1200    0.0000 C   0  0  0  0  0  0  0  0  0  0  0  0
    9.1350    2.1200    0.0000 C   0  0  0  0  0  0  0  0  0  0  0  0
    9.1350    1.1200    0.0000 C   0  0  0  0  0  0  0  0  0  0  0  0
    8.2690    0.6200    0.0000 C   0  0  0  0  0  0  0  0  0  0  0  0
    6.5369    2.6200    0.0000 C   0  0  0  0  0  0  0  0  0  0  0  0
    6.5369    0.6200    0.0000 C   0  0  0  0  0  0  0  0  0  0  0  0
   10.0010    0.6200    0.0000 C   0  0  0  0  0  0  0  0  0  0  0  0
    9.3905    8.7277    0.0000 H   0  0  0  0  0  0  0  0  0  0  0  0
    9.7890    8.0374    0.0000 H   0  0  0  0  0  0  0  0  0  0  0  0
   11.9451    8.0374    0.0000 H   0  0  0  0  0  0  0  0  0  0  0  0
   12.3437    8.7277    0.0000 H   0  0  0  0  0  0  0  0  0  0  0  0
    9.7890   10.2026    0.0000 H   0  0  0  0  0  0  0  0  0  0  0  0
    9.3905    9.5123    0.0000 H   0  0  0  0  0  0  0  0  0  0  0  0
   12.3437    9.5123    0.0000 H   0  0  0  0  0  0  0  0  0  0  0  0
   11.9451   10.2026    0.0000 H   0  0  0  0  0  0  0  0  0  0  0  0
   11.0791    6.5374    0.0000 H   0  0  0  0  0  0  0  0  0  0  0  0
   11.4776    7.2277    0.0000 H   0  0  0  0  0  0  0  0  0  0  0  0
    9.7890    7.2026    0.0000 H   0  0  0  0  0  0  0  0  0  0  0  0
    9.3905    6.5123    0.0000 H   0  0  0  0  0  0  0  0  0  0  0  0
    9.4641   11.3100    0.0000 H   0  0  0  0  0  0  0  0  0  0  0  0
   12.2700   12.9300    0.0000 H   0  0  0  0  0  0  0  0  0  0  0  0
    9.4641   12.9300    0.0000 H   0  0  0  0  0  0  0  0  0  0  0  0
    8.9230    5.7026    0.0000 H   0  0  0  0  0  0  0  0  0  0  0  0
    8.5244    5.0123    0.0000 H   0  0  0  0  0  0  0  0  0  0  0  0
   10.8671   13.7400    0.0000 H   0  0  0  0  0  0  0  0  0  0  0  0
    9.3471    3.5374    0.0000 H   0  0  0  0  0  0  0  0  0  0  0  0
    9.7456    4.2277    0.0000 H   0  0  0  0  0  0  0  0  0  0  0  0
   13.7751   11.0831    0.0000 H   0  0  0  0  0  0  0  0  0  0  0  0
   14.0021   11.9300    0.0000 H   0  0  0  0  0  0  0  0  0  0  0  0
   13.1551   12.1569    0.0000 H   0  0  0  0  0  0  0  0  0  0  0  0
    9.6720    2.4300    0.0000 H   0  0  0  0  0  0  0  0  0  0  0  0
    8.2690    0.0000    0.0000 H   0  0  0  0  0  0  0  0  0  0  0  0
    6.8469    3.1569    0.0000 H   0  0  0  0  0  0  0  0  0  0  0  0
    6.0000    2.9300    0.0000 H   0  0  0  0  0  0  0  0  0  0  0  0
    6.2269    2.0831    0.0000 H   0  0  0  0  0  0  0  0  0  0  0  0
    6.2269    1.1569    0.0000 H   0  0  0  0  0  0  0  0  0  0  0  0
    6.0000    0.3100    0.0000 H   0  0  0  0  0  0  0  0  0  0  0  0
    6.8469    0.0831    0.0000 H   0  0  0  0  0  0  0  0  0  0  0  0
    9.6910    0.0831    0.0000 H   0  0  0  0  0  0  0  0  0  0  0  0
   10.5380    0.3100    0.0000 H   0  0  0  0  0  0  0  0  0  0  0  0
   10.3110    1.1569    0.0000 H   0  0  0  0  0  0  0  0  0  0  0  0
    4.0000    6.6200    0.0000 H   0  0  0  0  0  0  0  0  0  0  0  0
    1.0000    6.6200    0.0000 H   0  0  0  0  0  0  0  0  0  0  0  0
  1 66  1  0  0  0  0
  2 67  1  0  0  0  0
  3 14  1  0  0  0  0
  3 19  1  0  0  0  0
  4 15  1  0  0  0  0
  4 23  1  0  0  0  0
  5 21  1  0  0  0  0
  5 22  1  0  0  0  0
  6  8  1  0  0  0  0
  6  9  1  0  0  0  0
  6 12  1  0  0  0  0
  7 10  1  0  0  0  0
  7 11  1  0  0  0  0
  7 13  1  0  0  0  0
  8 10  1  0  0  0  0
  8 32  1  0  0  0  0
  8 33  1  0  0  0  0
  9 11  1  0  0  0  0
  9 34  1  0  0  0  0
  9 35  1  0  0  0  0
 10 36  1  0  0  0  0
 10 37  1  0  0  0  0
 11 38  1  0  0  0  0
 11 39  1  0  0  0  0
 12 14  1  0  0  0  0
 12 40  1  0  0  0  0
 12 41  1  0  0  0  0
 13 15  1  0  0  0  0
 13 16  2  0  0  0  0
 14 42  1  0  0  0  0
 14 43  1  0  0  0  0
 15 17  2  0  0  0  0
 16 18  1  0  0  0  0
 16 44  1  0  0  0  0
 17 20  1  0  0  0  0
 17 45  1  0  0  0  0
 18 20  2  0  0  0  0
 18 46  1  0  0  0  0
 19 21  1  0  0  0  0
 19 47  1  0  0  0  0
 19 48  1  0  0  0  0
 20 49  1  0  0  0  0
 21 50  1  0  0  0  0
 21 51  1  0  0  0  0
 22 24  1  0  0  0  0
 22 26  2  0  0  0  0
 23 52  1  0  0  0  0
 23 53  1  0  0  0  0
 23 54  1  0  0  0  0
 24 25  2  0  0  0  0
 24 29  1  0  0  0  0
 25 28  1  0  0  0  0
 25 30  1  0  0  0  0
 26 27  1  0  0  0  0
 26 55  1  0  0  0  0
 27 28  2  0  0  0  0
 27 31  1  0  0  0  0
 28 56  1  0  0  0  0
 29 57  1  0  0  0  0
 29 58  1  0  0  0  0
 29 59  1  0  0  0  0
 30 60  1  0  0  0  0
 30 61  1  0  0  0  0
 30 62  1  0  0  0  0
 31 63  1  0  0  0  0
 31 64  1  0  0  0  0
 31 65  1  0  0  0  0
M  END
> <PUBCHEM_COMPOUND_CID>
145964427

> <PUBCHEM_COMPOUND_CANONICALIZED>
1

> <PUBCHEM_CACTVS_COMPLEXITY>
455

> <PUBCHEM_CACTVS_HBOND_ACCEPTOR>
5

> <PUBCHEM_CACTVS_HBOND_DONOR>
2

> <PUBCHEM_CACTVS_ROTATABLE_BOND>
9

> <PUBCHEM_CACTVS_SUBSKEYS>
AAADcfB7MAAGAAAAAAAAAAAAAAAAAAAAAAA8YIAAAAAAAAABQAAAHgAAAAAADAzhmAYyxoMABACAAiRCQACCCAAhIgAIiAAPbIgPZiLEsZuXOCjkwBHa6AeQwPAOwAADAAAYEACAAAYAADAgAAAAAAAAAA==

> <PUBCHEM_IUPAC_OPENEYE_NAME>
1-(2-methoxyphenyl)-4-[2-[2-(2,3,5-trimethylphenoxy)ethoxy]ethyl]piperazine;dihydrochloride

> <PUBCHEM_IUPAC_CAS_NAME>
1-(2-methoxyphenyl)-4-[2-[2-(2,3,5-trimethylphenoxy)ethoxy]ethyl]piperazine;dihydrochloride

> <PUBCHEM_IUPAC_NAME_MARKUP>
1-(2-methoxyphenyl)-4-[2-[2-(2,3,5-trimethylphenoxy)ethoxy]ethyl]piperazine;dihydrochloride

> <PUBCHEM_IUPAC_NAME>
1-(2-methoxyphenyl)-4-[2-[2-(2,3,5-trimethylphenoxy)ethoxy]ethyl]piperazine;dihydrochloride

> <PUBCHEM_IUPAC_SYSTEMATIC_NAME>
1-(2-methoxyphenyl)-4-[2-[2-(2,3,5-trimethylphenoxy)ethoxy]ethyl]piperazine;dihydrochloride

> <PUBCHEM_IUPAC_TRADITIONAL_NAME>
1-(2-methoxyphenyl)-4-[2-[2-(2,3,5-trimethylphenoxy)ethoxy]ethyl]piperazine;dihydrochloride

> <PUBCHEM_IUPAC_INCHI>
InChI=1S/C24H34N2O3.2ClH/c1-19-17-20(2)21(3)24(18-19)29-16-15-28-14-13-25-9-11-26(12-10-25)22-7-5-6-8-23(22)27-4;;/h5-8,17-18H,9-16H2,1-4H3;2*1H

> <PUBCHEM_IUPAC_INCHIKEY>
BKAPUHZAVMXBQP-UHFFFAOYSA-N

> <PUBCHEM_EXACT_MASS>
470.2102984

> <PUBCHEM_MOLECULAR_FORMULA>
C24H36Cl2N2O3

> <PUBCHEM_MOLECULAR_WEIGHT>
471.5

> <PUBCHEM_OPENEYE_CAN_SMILES>
CC1=CC(=C(C(=C1)OCCOCCN2CCN(CC2)C3=CC=CC=C3OC)C)C.Cl.Cl

> <PUBCHEM_OPENEYE_ISO_SMILES>
CC1=CC(=C(C(=C1)OCCOCCN2CCN(CC2)C3=CC=CC=C3OC)C)C.Cl.Cl

> <PUBCHEM_CACTVS_TPSA>
34.2

> <PUBCHEM_MONOISOTOPIC_WEIGHT>
470.2102984

> <PUBCHEM_TOTAL_CHARGE>
0

> <PUBCHEM_HEAVY_ATOM_COUNT>
31

> <PUBCHEM_ATOM_DEF_STEREO_COUNT>
0

> <PUBCHEM_ATOM_UDEF_STEREO_COUNT>
0

> <PUBCHEM_BOND_DEF_STEREO_COUNT>
0

> <PUBCHEM_BOND_UDEF_STEREO_COUNT>
0

> <PUBCHEM_ISOTOPIC_ATOM_COUNT>
0

> <PUBCHEM_COMPONENT_COUNT>
3

> <PUBCHEM_CACTVS_TAUTO_COUNT>
-1

> <PUBCHEM_COORDINATE_TYPE>
1
5
255

> <PUBCHEM_BONDANNOTATIONS>
13  15  8
13  16  8
15  17  8
16  18  8
17  20  8
18  20  8
22  24  8
22  26  8
24  25  8
25  28  8
26  27  8
27  28  8

$$$$
