44387743
  -OEChem-09292322092D

 55 58  0     0  0  0  0  0  0999 V2000
    5.0981    1.8386    0.0000 S   0  0  0  0  0  0  0  0  0  0  0  0
    3.7320    1.4726    0.0000 F   0  0  0  0  0  0  0  0  0  0  0  0
    2.0000   -3.5274    0.0000 F   0  0  0  0  0  0  0  0  0  0  0  0
    3.7320   -6.5274    0.0000 F   0  0  0  0  0  0  0  0  0  0  0  0
    5.9641    1.3386    0.0000 O   0  0  0  0  0  0  0  0  0  0  0  0
    4.2320    2.3386    0.0000 O   0  0  0  0  0  0  0  0  0  0  0  0
    4.5981   -1.0274    0.0000 N   0  0  0  0  0  0  0  0  0  0  0  0
    7.0981    5.3027    0.0000 N   0  0  0  0  0  0  0  0  0  0  0  0
    4.5981    0.9726    0.0000 C   0  0  0  0  0  0  0  0  0  0  0  0
    5.4641    0.4726    0.0000 C   0  0  0  0  0  0  0  0  0  0  0  0
    3.7320    0.4726    0.0000 C   0  0  0  0  0  0  0  0  0  0  0  0
    5.4641   -0.5274    0.0000 C   0  0  0  0  0  0  0  0  0  0  0  0
    3.7320   -0.5274    0.0000 C   0  0  0  0  0  0  0  0  0  0  0  0
    4.5981   -2.0274    0.0000 C   0  0  0  0  0  0  0  0  0  0  0  0
    5.5981    2.7046    0.0000 C   0  0  0  0  0  0  0  0  0  0  0  0
    8.0640    5.5615    0.0000 C   0  0  0  0  0  0  0  0  0  0  0  0
    6.8393    6.2686    0.0000 C   0  0  0  0  0  0  0  0  0  0  0  0
    7.8052    6.5274    0.0000 C   0  0  0  0  0  0  0  0  0  0  0  0
    3.7320   -2.5274    0.0000 C   0  0  0  0  0  0  0  0  0  0  0  0
    6.5981    4.4367    0.0000 C   0  0  0  0  0  0  0  0  0  0  0  0
    5.0981    3.5706    0.0000 C   0  0  0  0  0  0  0  0  0  0  0  0
    6.5981    2.7046    0.0000 C   0  0  0  0  0  0  0  0  0  0  0  0
    5.5981    4.4367    0.0000 C   0  0  0  0  0  0  0  0  0  0  0  0
    7.0981    3.5706    0.0000 C   0  0  0  0  0  0  0  0  0  0  0  0
    3.7320   -3.5274    0.0000 C   0  0  0  0  0  0  0  0  0  0  0  0
    2.8660   -4.0274    0.0000 C   0  0  0  0  0  0  0  0  0  0  0  0
    4.5981   -4.0274    0.0000 C   0  0  0  0  0  0  0  0  0  0  0  0
    2.8660   -5.0274    0.0000 C   0  0  0  0  0  0  0  0  0  0  0  0
    4.5981   -5.0274    0.0000 C   0  0  0  0  0  0  0  0  0  0  0  0
    3.7320   -5.5274    0.0000 C   0  0  0  0  0  0  0  0  0  0  0  0
    6.0747    0.3649    0.0000 H   0  0  0  0  0  0  0  0  0  0  0  0
    5.6762    1.0552    0.0000 H   0  0  0  0  0  0  0  0  0  0  0  0
    3.5200    1.0552    0.0000 H   0  0  0  0  0  0  0  0  0  0  0  0
    3.1215    0.3649    0.0000 H   0  0  0  0  0  0  0  0  0  0  0  0
    5.6762   -1.1100    0.0000 H   0  0  0  0  0  0  0  0  0  0  0  0
    6.0747   -0.4198    0.0000 H   0  0  0  0  0  0  0  0  0  0  0  0
    3.1215   -0.4198    0.0000 H   0  0  0  0  0  0  0  0  0  0  0  0
    3.5200   -1.1100    0.0000 H   0  0  0  0  0  0  0  0  0  0  0  0
    4.8101   -2.6101    0.0000 H   0  0  0  0  0  0  0  0  0  0  0  0
    5.2087   -1.9198    0.0000 H   0  0  0  0  0  0  0  0  0  0  0  0
    8.2245    4.9626    0.0000 H   0  0  0  0  0  0  0  0  0  0  0  0
    8.6629    5.7220    0.0000 H   0  0  0  0  0  0  0  0  0  0  0  0
    6.6788    6.8675    0.0000 H   0  0  0  0  0  0  0  0  0  0  0  0
    6.2404    6.1082    0.0000 H   0  0  0  0  0  0  0  0  0  0  0  0
    8.4041    6.6879    0.0000 H   0  0  0  0  0  0  0  0  0  0  0  0
    7.6447    7.1263    0.0000 H   0  0  0  0  0  0  0  0  0  0  0  0
    3.5200   -1.9448    0.0000 H   0  0  0  0  0  0  0  0  0  0  0  0
    3.1215   -2.6351    0.0000 H   0  0  0  0  0  0  0  0  0  0  0  0
    4.4781    3.5706    0.0000 H   0  0  0  0  0  0  0  0  0  0  0  0
    6.9081    2.1677    0.0000 H   0  0  0  0  0  0  0  0  0  0  0  0
    5.2881    4.9736    0.0000 H   0  0  0  0  0  0  0  0  0  0  0  0
    7.7181    3.5706    0.0000 H   0  0  0  0  0  0  0  0  0  0  0  0
    5.1350   -3.7174    0.0000 H   0  0  0  0  0  0  0  0  0  0  0  0
    2.3291   -5.3374    0.0000 H   0  0  0  0  0  0  0  0  0  0  0  0
    5.1350   -5.3374    0.0000 H   0  0  0  0  0  0  0  0  0  0  0  0
  1  5  2  0  0  0  0
  1  6  2  0  0  0  0
  1  9  1  0  0  0  0
  1 15  1  0  0  0  0
  2  9  1  0  0  0  0
  3 26  1  0  0  0  0
  4 30  1  0  0  0  0
  7 12  1  0  0  0  0
  7 13  1  0  0  0  0
  7 14  1  0  0  0  0
  8 16  1  0  0  0  0
  8 17  1  0  0  0  0
  8 20  1  0  0  0  0
  9 10  1  0  0  0  0
  9 11  1  0  0  0  0
 10 12  1  0  0  0  0
 10 31  1  0  0  0  0
 10 32  1  0  0  0  0
 11 13  1  0  0  0  0
 11 33  1  0  0  0  0
 11 34  1  0  0  0  0
 12 35  1  0  0  0  0
 12 36  1  0  0  0  0
 13 37  1  0  0  0  0
 13 38  1  0  0  0  0
 14 19  1  0  0  0  0
 14 39  1  0  0  0  0
 14 40  1  0  0  0  0
 15 21  2  0  0  0  0
 15 22  1  0  0  0  0
 16 18  1  0  0  0  0
 16 41  1  0  0  0  0
 16 42  1  0  0  0  0
 17 18  1  0  0  0  0
 17 43  1  0  0  0  0
 17 44  1  0  0  0  0
 18 45  1  0  0  0  0
 18 46  1  0  0  0  0
 19 25  1  0  0  0  0
 19 47  1  0  0  0  0
 19 48  1  0  0  0  0
 20 23  2  0  0  0  0
 20 24  1  0  0  0  0
 21 23  1  0  0  0  0
 21 49  1  0  0  0  0
 22 24  2  0  0  0  0
 22 50  1  0  0  0  0
 23 51  1  0  0  0  0
 24 52  1  0  0  0  0
 25 26  2  0  0  0  0
 25 27  1  0  0  0  0
 26 28  1  0  0  0  0
 27 29  2  0  0  0  0
 27 53  1  0  0  0  0
 28 30  2  0  0  0  0
 28 54  1  0  0  0  0
 29 30  1  0  0  0  0
 29 55  1  0  0  0  0
M  END
> <PUBCHEM_COMPOUND_CID>
44387743

> <PUBCHEM_COMPOUND_CANONICALIZED>
1

> <PUBCHEM_CACTVS_COMPLEXITY>
666

> <PUBCHEM_CACTVS_HBOND_ACCEPTOR>
7

> <PUBCHEM_CACTVS_HBOND_DONOR>
0

> <PUBCHEM_CACTVS_ROTATABLE_BOND>
6

> <PUBCHEM_CACTVS_SUBSKEYS>
AAADceB7MYBAAAAAAAAAAAAAAABYAAAAAAA8YIAAAAAAAAABQAAAHQQAAAAADAjBWAwwwYMAAAqAAiRCQHDCAAAhChAIiBgIZIgIICLgkZGEIAhggADoyAcQgIAOAAQAAAAAAAAACAAAAAAAAAAAAAAAAA==

> <PUBCHEM_IUPAC_OPENEYE_NAME>
4-[4-(azetidin-1-yl)phenyl]sulfonyl-1-[2-(2,4-difluorophenyl)ethyl]-4-fluoro-piperidine

> <PUBCHEM_IUPAC_CAS_NAME>
4-[4-(1-azetidinyl)phenyl]sulfonyl-1-[2-(2,4-difluorophenyl)ethyl]-4-fluoropiperidine

> <PUBCHEM_IUPAC_NAME_MARKUP>
4-[4-(azetidin-1-yl)phenyl]sulfonyl-1-[2-(2,4-difluorophenyl)ethyl]-4-fluoropiperidine

> <PUBCHEM_IUPAC_NAME>
4-[4-(azetidin-1-yl)phenyl]sulfonyl-1-[2-(2,4-difluorophenyl)ethyl]-4-fluoropiperidine

> <PUBCHEM_IUPAC_SYSTEMATIC_NAME>
4-[4-(azetidin-1-yl)phenyl]sulfonyl-1-[2-[2,4-bis(fluoranyl)phenyl]ethyl]-4-fluoranyl-piperidine

> <PUBCHEM_IUPAC_TRADITIONAL_NAME>
4-[4-(azetidin-1-yl)phenyl]sulfonyl-1-[2-(2,4-difluorophenyl)ethyl]-4-fluoro-piperidine

> <PUBCHEM_IUPAC_INCHI>
InChI=1S/C22H25F3N2O2S/c23-18-3-2-17(21(24)16-18)8-13-26-14-9-22(25,10-15-26)30(28,29)20-6-4-19(5-7-20)27-11-1-12-27/h2-7,16H,1,8-15H2

> <PUBCHEM_IUPAC_INCHIKEY>
WCUXCSHIFAMMQM-UHFFFAOYSA-N

> <PUBCHEM_XLOGP3_AA>
4.4

> <PUBCHEM_EXACT_MASS>
438.15888370

> <PUBCHEM_MOLECULAR_FORMULA>
C22H25F3N2O2S

> <PUBCHEM_MOLECULAR_WEIGHT>
438.5

> <PUBCHEM_OPENEYE_CAN_SMILES>
C1CN(C1)C2=CC=C(C=C2)S(=O)(=O)C3(CCN(CC3)CCC4=C(C=C(C=C4)F)F)F

> <PUBCHEM_OPENEYE_ISO_SMILES>
C1CN(C1)C2=CC=C(C=C2)S(=O)(=O)C3(CCN(CC3)CCC4=C(C=C(C=C4)F)F)F

> <PUBCHEM_CACTVS_TPSA>
49

> <PUBCHEM_MONOISOTOPIC_WEIGHT>
438.15888370

> <PUBCHEM_TOTAL_CHARGE>
0

> <PUBCHEM_HEAVY_ATOM_COUNT>
30

> <PUBCHEM_ATOM_DEF_STEREO_COUNT>
0

> <PUBCHEM_ATOM_UDEF_STEREO_COUNT>
0

> <PUBCHEM_BOND_DEF_STEREO_COUNT>
0

> <PUBCHEM_BOND_UDEF_STEREO_COUNT>
0

> <PUBCHEM_ISOTOPIC_ATOM_COUNT>
0

> <PUBCHEM_COMPONENT_COUNT>
1

> <PUBCHEM_CACTVS_TAUTO_COUNT>
-1

> <PUBCHEM_COORDINATE_TYPE>
1
5
255

> <PUBCHEM_BONDANNOTATIONS>
15  21  8
15  22  8
20  23  8
20  24  8
21  23  8
22  24  8
25  26  8
25  27  8
26  28  8
27  29  8
28  30  8
29  30  8

$$$$
