11554831
  -OEChem-09292322272D

 62 66  0     0  0  0  0  0  0999 V2000
    4.6783   -2.0793    0.0000 O   0  0  0  0  0  0  0  0  0  0  0  0
    6.7619   -2.1406    0.0000 O   0  0  0  0  0  0  0  0  0  0  0  0
    2.8660   -3.2746    0.0000 O   0  0  0  0  0  0  0  0  0  0  0  0
   10.7619    1.3235    0.0000 N   0  0  0  0  0  0  0  0  0  0  0  0
   12.7619    1.3235    0.0000 N   0  0  0  0  0  0  0  0  0  0  0  0
   14.3455    0.5188    0.0000 N   0  0  0  0  0  0  0  0  0  0  0  0
   15.2917    0.8235    0.0000 N   0  0  0  0  0  0  0  0  0  0  0  0
    6.7619   -0.4086    0.0000 N   0  0  0  0  0  0  0  0  0  0  0  0
   11.2619    0.4575    0.0000 C   0  0  0  0  0  0  0  0  0  0  0  0
   11.2619    2.1895    0.0000 C   0  0  0  0  0  0  0  0  0  0  0  0
   12.2619    0.4575    0.0000 C   0  0  0  0  0  0  0  0  0  0  0  0
   12.2619    2.1895    0.0000 C   0  0  0  0  0  0  0  0  0  0  0  0
    9.7619    1.3235    0.0000 C   0  0  0  0  0  0  0  0  0  0  0  0
    9.2619    0.4575    0.0000 C   0  0  0  0  0  0  0  0  0  0  0  0
   13.7619    1.3235    0.0000 C   0  0  0  0  0  0  0  0  0  0  0  0
    8.2619    0.4575    0.0000 C   0  0  0  0  0  0  0  0  0  0  0  0
   14.3455    2.1282    0.0000 C   0  0  0  0  0  0  0  0  0  0  0  0
    7.7619   -0.4086    0.0000 C   0  0  0  0  0  0  0  0  0  0  0  0
   15.2960    1.8176    0.0000 C   0  0  0  0  0  0  0  0  0  0  0  0
   14.1393    3.1067    0.0000 C   0  0  0  0  0  0  0  0  0  0  0  0
   16.0403    2.4854    0.0000 C   0  0  0  0  0  0  0  0  0  0  0  0
   14.8836    3.7746    0.0000 C   0  0  0  0  0  0  0  0  0  0  0  0
   15.8341    3.4639    0.0000 C   0  0  0  0  0  0  0  0  0  0  0  0
    6.2619   -1.2746    0.0000 C   0  0  0  0  0  0  0  0  0  0  0  0
    5.2619   -1.2746    0.0000 C   0  0  0  0  0  0  0  0  0  0  0  0
    4.6783   -0.4698    0.0000 C   0  0  0  0  0  0  0  0  0  0  0  0
    3.7320   -0.7746    0.0000 C   0  0  0  0  0  0  0  0  0  0  0  0
    3.7320   -1.7746    0.0000 C   0  0  0  0  0  0  0  0  0  0  0  0
    2.8660   -2.2746    0.0000 C   0  0  0  0  0  0  0  0  0  0  0  0
    2.8660   -0.2746    0.0000 C   0  0  0  0  0  0  0  0  0  0  0  0
    2.0000   -1.7746    0.0000 C   0  0  0  0  0  0  0  0  0  0  0  0
    2.0000   -0.7746    0.0000 C   0  0  0  0  0  0  0  0  0  0  0  0
    2.0000   -3.7746    0.0000 C   0  0  0  0  0  0  0  0  0  0  0  0
   10.6793    0.2454    0.0000 H   0  0  0  0  0  0  0  0  0  0  0  0
   11.3695   -0.1531    0.0000 H   0  0  0  0  0  0  0  0  0  0  0  0
   11.3695    2.8001    0.0000 H   0  0  0  0  0  0  0  0  0  0  0  0
   10.6793    2.4016    0.0000 H   0  0  0  0  0  0  0  0  0  0  0  0
   12.1542   -0.1531    0.0000 H   0  0  0  0  0  0  0  0  0  0  0  0
   12.8445    0.2454    0.0000 H   0  0  0  0  0  0  0  0  0  0  0  0
   12.8445    2.4016    0.0000 H   0  0  0  0  0  0  0  0  0  0  0  0
   12.1542    2.8001    0.0000 H   0  0  0  0  0  0  0  0  0  0  0  0
    9.8695    1.9341    0.0000 H   0  0  0  0  0  0  0  0  0  0  0  0
    9.1793    1.5356    0.0000 H   0  0  0  0  0  0  0  0  0  0  0  0
    9.1542   -0.1531    0.0000 H   0  0  0  0  0  0  0  0  0  0  0  0
    9.8445    0.2454    0.0000 H   0  0  0  0  0  0  0  0  0  0  0  0
    8.3695    1.0680    0.0000 H   0  0  0  0  0  0  0  0  0  0  0  0
    7.6793    0.6695    0.0000 H   0  0  0  0  0  0  0  0  0  0  0  0
    7.6542   -1.0191    0.0000 H   0  0  0  0  0  0  0  0  0  0  0  0
    8.3445   -0.6206    0.0000 H   0  0  0  0  0  0  0  0  0  0  0  0
   15.7920    0.4573    0.0000 H   0  0  0  0  0  0  0  0  0  0  0  0
   13.5499    3.2994    0.0000 H   0  0  0  0  0  0  0  0  0  0  0  0
    6.4519    0.1284    0.0000 H   0  0  0  0  0  0  0  0  0  0  0  0
   16.6296    2.2928    0.0000 H   0  0  0  0  0  0  0  0  0  0  0  0
   14.7557    4.3812    0.0000 H   0  0  0  0  0  0  0  0  0  0  0  0
   16.2956    3.8780    0.0000 H   0  0  0  0  0  0  0  0  0  0  0  0
    4.8709    0.1195    0.0000 H   0  0  0  0  0  0  0  0  0  0  0  0
    2.8660    0.3454    0.0000 H   0  0  0  0  0  0  0  0  0  0  0  0
    1.4631   -2.0846    0.0000 H   0  0  0  0  0  0  0  0  0  0  0  0
    1.4631   -0.4646    0.0000 H   0  0  0  0  0  0  0  0  0  0  0  0
    1.6900   -3.2376    0.0000 H   0  0  0  0  0  0  0  0  0  0  0  0
    1.4631   -4.0846    0.0000 H   0  0  0  0  0  0  0  0  0  0  0  0
    2.3100   -4.3115    0.0000 H   0  0  0  0  0  0  0  0  0  0  0  0
  1 25  1  0  0  0  0
  1 28  1  0  0  0  0
  2 24  2  0  0  0  0
  3 29  1  0  0  0  0
  3 33  1  0  0  0  0
  4  9  1  0  0  0  0
  4 10  1  0  0  0  0
  4 13  1  0  0  0  0
  5 11  1  0  0  0  0
  5 12  1  0  0  0  0
  5 15  1  0  0  0  0
  6  7  1  0  0  0  0
  6 15  2  0  0  0  0
  7 19  1  0  0  0  0
  7 50  1  0  0  0  0
  8 18  1  0  0  0  0
  8 24  1  0  0  0  0
  8 52  1  0  0  0  0
  9 11  1  0  0  0  0
  9 34  1  0  0  0  0
  9 35  1  0  0  0  0
 10 12  1  0  0  0  0
 10 36  1  0  0  0  0
 10 37  1  0  0  0  0
 11 38  1  0  0  0  0
 11 39  1  0  0  0  0
 12 40  1  0  0  0  0
 12 41  1  0  0  0  0
 13 14  1  0  0  0  0
 13 42  1  0  0  0  0
 13 43  1  0  0  0  0
 14 16  1  0  0  0  0
 14 44  1  0  0  0  0
 14 45  1  0  0  0  0
 15 17  1  0  0  0  0
 16 18  1  0  0  0  0
 16 46  1  0  0  0  0
 16 47  1  0  0  0  0
 17 19  1  0  0  0  0
 17 20  2  0  0  0  0
 18 48  1  0  0  0  0
 18 49  1  0  0  0  0
 19 21  2  0  0  0  0
 20 22  1  0  0  0  0
 20 51  1  0  0  0  0
 21 23  1  0  0  0  0
 21 53  1  0  0  0  0
 22 23  2  0  0  0  0
 22 54  1  0  0  0  0
 23 55  1  0  0  0  0
 24 25  1  0  0  0  0
 25 26  2  0  0  0  0
 26 27  1  0  0  0  0
 26 56  1  0  0  0  0
 27 28  2  0  0  0  0
 27 30  1  0  0  0  0
 28 29  1  0  0  0  0
 29 31  2  0  0  0  0
 30 32  2  0  0  0  0
 30 57  1  0  0  0  0
 31 32  1  0  0  0  0
 31 58  1  0  0  0  0
 32 59  1  0  0  0  0
 33 60  1  0  0  0  0
 33 61  1  0  0  0  0
 33 62  1  0  0  0  0
M  END
> <PUBCHEM_COMPOUND_CID>
11554831

> <PUBCHEM_COMPOUND_CANONICALIZED>
1

> <PUBCHEM_CACTVS_COMPLEXITY>
644

> <PUBCHEM_CACTVS_HBOND_ACCEPTOR>
6

> <PUBCHEM_CACTVS_HBOND_DONOR>
2

> <PUBCHEM_CACTVS_ROTATABLE_BOND>
8

> <PUBCHEM_CACTVS_SUBSKEYS>
AAADceB7sAAAAAAAAAAAAAAAAAAAAWJAAAA8YIAAAAAAAFgB/gAAHgAYAAAADAzBngYz9vPjBECqA6dycAKSDAIlIgAduaH+7NiPZrLE/f+XvSrk3hPa6YeY/77uAAABAAAKQAAAAAIAABSAAAAAAAAAAA==

> <PUBCHEM_IUPAC_OPENEYE_NAME>
N-[4-[4-(1H-indazol-3-yl)piperazin-1-yl]butyl]-7-methoxy-benzofuran-2-carboxamide

> <PUBCHEM_IUPAC_CAS_NAME>
N-[4-[4-(1H-indazol-3-yl)-1-piperazinyl]butyl]-7-methoxy-2-benzofurancarboxamide

> <PUBCHEM_IUPAC_NAME_MARKUP>
<I>N</I>-[4-[4-(1<I>H</I>-indazol-3-yl)piperazin-1-yl]butyl]-7-methoxy-1-benzofuran-2-carboxamide

> <PUBCHEM_IUPAC_NAME>
N-[4-[4-(1H-indazol-3-yl)piperazin-1-yl]butyl]-7-methoxy-1-benzofuran-2-carboxamide

> <PUBCHEM_IUPAC_SYSTEMATIC_NAME>
N-[4-[4-(1H-indazol-3-yl)piperazin-1-yl]butyl]-7-methoxy-1-benzofuran-2-carboxamide

> <PUBCHEM_IUPAC_TRADITIONAL_NAME>
N-[4-[4-(1H-indazol-3-yl)piperazino]butyl]-7-methoxy-coumarilamide

> <PUBCHEM_IUPAC_INCHI>
InChI=1S/C25H29N5O3/c1-32-21-10-6-7-18-17-22(33-23(18)21)25(31)26-11-4-5-12-29-13-15-30(16-14-29)24-19-8-2-3-9-20(19)27-28-24/h2-3,6-10,17H,4-5,11-16H2,1H3,(H,26,31)(H,27,28)

> <PUBCHEM_IUPAC_INCHIKEY>
RZKVFRDPHKJKDU-UHFFFAOYSA-N

> <PUBCHEM_XLOGP3_AA>
4.2

> <PUBCHEM_EXACT_MASS>
447.22703980

> <PUBCHEM_MOLECULAR_FORMULA>
C25H29N5O3

> <PUBCHEM_MOLECULAR_WEIGHT>
447.5

> <PUBCHEM_OPENEYE_CAN_SMILES>
COC1=CC=CC2=C1OC(=C2)C(=O)NCCCCN3CCN(CC3)C4=NNC5=CC=CC=C54

> <PUBCHEM_OPENEYE_ISO_SMILES>
COC1=CC=CC2=C1OC(=C2)C(=O)NCCCCN3CCN(CC3)C4=NNC5=CC=CC=C54

> <PUBCHEM_CACTVS_TPSA>
86.6

> <PUBCHEM_MONOISOTOPIC_WEIGHT>
447.22703980

> <PUBCHEM_TOTAL_CHARGE>
0

> <PUBCHEM_HEAVY_ATOM_COUNT>
33

> <PUBCHEM_ATOM_DEF_STEREO_COUNT>
0

> <PUBCHEM_ATOM_UDEF_STEREO_COUNT>
0

> <PUBCHEM_BOND_DEF_STEREO_COUNT>
0

> <PUBCHEM_BOND_UDEF_STEREO_COUNT>
0

> <PUBCHEM_ISOTOPIC_ATOM_COUNT>
0

> <PUBCHEM_COMPONENT_COUNT>
1

> <PUBCHEM_CACTVS_TAUTO_COUNT>
-1

> <PUBCHEM_COORDINATE_TYPE>
1
5
255

> <PUBCHEM_BONDANNOTATIONS>
1  25  8
1  28  8
15  17  8
17  19  8
17  20  8
19  21  8
20  22  8
21  23  8
22  23  8
25  26  8
26  27  8
27  28  8
27  30  8
28  29  8
29  31  8
30  32  8
31  32  8
6  15  8
6  7  8
7  19  8

$$$$
