138670893
  -OEChem-09292322452D

 69 73  0     1  0  0  0  0  0999 V2000
    3.4887    4.2023    0.0000 S   0  0  0  0  0  0  0  0  0  0  0  0
    6.2960   -4.2695    0.0000 O   0  0  0  0  0  0  0  0  0  0  0  0
    2.0000    5.1714    0.0000 O   0  0  0  0  0  0  0  0  0  0  0  0
    3.6979    1.2305    0.0000 N   0  0  3  0  0  0  0  0  0  0  0  0
    4.5640   -4.2695    0.0000 N   0  0  0  0  0  0  0  0  0  0  0  0
    2.0949    3.3976    0.0000 N   0  0  0  0  0  0  0  0  0  0  0  0
    7.8258   -6.7695    0.0000 N   0  0  0  0  0  0  0  0  0  0  0  0
    7.2422   -7.5742    0.0000 N   0  0  0  0  0  0  0  0  0  0  0  0
    4.5640   -1.2695    0.0000 C   0  0  0  0  0  0  0  0  0  0  0  0
    5.4300   -1.7695    0.0000 C   0  0  0  0  0  0  0  0  0  0  0  0
    3.6979   -1.7695    0.0000 C   0  0  0  0  0  0  0  0  0  0  0  0
    4.5640   -3.2695    0.0000 C   0  0  0  0  0  0  0  0  0  0  0  0
    5.4300   -2.7695    0.0000 C   0  0  0  0  0  0  0  0  0  0  0  0
    3.6979   -2.7695    0.0000 C   0  0  0  0  0  0  0  0  0  0  0  0
    4.5640   -0.2695    0.0000 C   0  0  0  0  0  0  0  0  0  0  0  0
    3.6979    0.2305    0.0000 C   0  0  0  0  0  0  0  0  0  0  0  0
    4.5640    1.7305    0.0000 C   0  0  0  0  0  0  0  0  0  0  0  0
    2.8319    1.7305    0.0000 C   0  0  0  0  0  0  0  0  0  0  0  0
    4.5640    2.7305    0.0000 C   0  0  0  0  0  0  0  0  0  0  0  0
    2.8319    2.7305    0.0000 C   0  0  0  0  0  0  0  0  0  0  0  0
    5.4300   -4.7695    0.0000 C   0  0  0  0  0  0  0  0  0  0  0  0
    3.6979    3.2305    0.0000 C   0  0  0  0  0  0  0  0  0  0  0  0
    5.4300   -5.7695    0.0000 C   0  0  0  0  0  0  0  0  0  0  0  0
    2.5000    4.3054    0.0000 C   0  0  0  0  0  0  0  0  0  0  0  0
    6.2960   -6.2695    0.0000 C   0  0  0  0  0  0  0  0  0  0  0  0
    4.5640   -6.2695    0.0000 C   0  0  0  0  0  0  0  0  0  0  0  0
    6.2960   -7.2695    0.0000 C   0  0  0  0  0  0  0  0  0  0  0  0
    7.2422   -5.9648    0.0000 C   0  0  0  0  0  0  0  0  0  0  0  0
    4.5640   -7.2695    0.0000 C   0  0  0  0  0  0  0  0  0  0  0  0
    5.4300   -7.7695    0.0000 C   0  0  0  0  0  0  0  0  0  0  0  0
    2.5000    6.0374    0.0000 C   0  0  0  0  0  0  0  0  0  0  0  0
    2.0000    6.9035    0.0000 C   0  0  0  0  0  0  0  0  0  0  0  0
    8.8258   -6.7695    0.0000 C   0  0  0  0  0  0  0  0  0  0  0  0
    2.5000    7.7695    0.0000 C   0  0  0  0  0  0  0  0  0  0  0  0
    4.0270   -0.9595    0.0000 H   0  0  0  0  0  0  0  0  0  0  0  0
    6.0406   -1.8772    0.0000 H   0  0  0  0  0  0  0  0  0  0  0  0
    5.6420   -1.1869    0.0000 H   0  0  0  0  0  0  0  0  0  0  0  0
    3.4859   -1.1869    0.0000 H   0  0  0  0  0  0  0  0  0  0  0  0
    3.0873   -1.8772    0.0000 H   0  0  0  0  0  0  0  0  0  0  0  0
    4.0270   -3.5795    0.0000 H   0  0  0  0  0  0  0  0  0  0  0  0
    5.6420   -3.3521    0.0000 H   0  0  0  0  0  0  0  0  0  0  0  0
    6.0406   -2.6618    0.0000 H   0  0  0  0  0  0  0  0  0  0  0  0
    3.0873   -2.6618    0.0000 H   0  0  0  0  0  0  0  0  0  0  0  0
    3.4859   -3.3521    0.0000 H   0  0  0  0  0  0  0  0  0  0  0  0
    5.1745   -0.3771    0.0000 H   0  0  0  0  0  0  0  0  0  0  0  0
    4.7760    0.3131    0.0000 H   0  0  0  0  0  0  0  0  0  0  0  0
    3.0873    0.3382    0.0000 H   0  0  0  0  0  0  0  0  0  0  0  0
    3.4859   -0.3521    0.0000 H   0  0  0  0  0  0  0  0  0  0  0  0
    4.0270   -4.5795    0.0000 H   0  0  0  0  0  0  0  0  0  0  0  0
    4.7760    1.1479    0.0000 H   0  0  0  0  0  0  0  0  0  0  0  0
    5.1745    1.8382    0.0000 H   0  0  0  0  0  0  0  0  0  0  0  0
    2.2213    1.8382    0.0000 H   0  0  0  0  0  0  0  0  0  0  0  0
    2.6198    1.1479    0.0000 H   0  0  0  0  0  0  0  0  0  0  0  0
    5.1745    2.6228    0.0000 H   0  0  0  0  0  0  0  0  0  0  0  0
    4.7760    3.3131    0.0000 H   0  0  0  0  0  0  0  0  0  0  0  0
    4.0270   -5.9595    0.0000 H   0  0  0  0  0  0  0  0  0  0  0  0
    7.4348   -5.3754    0.0000 H   0  0  0  0  0  0  0  0  0  0  0  0
    4.0270   -7.5795    0.0000 H   0  0  0  0  0  0  0  0  0  0  0  0
    5.4300   -8.3895    0.0000 H   0  0  0  0  0  0  0  0  0  0  0  0
    2.9750    5.6389    0.0000 H   0  0  0  0  0  0  0  0  0  0  0  0
    2.9750    6.4360    0.0000 H   0  0  0  0  0  0  0  0  0  0  0  0
    1.5250    7.3020    0.0000 H   0  0  0  0  0  0  0  0  0  0  0  0
    1.5250    6.5049    0.0000 H   0  0  0  0  0  0  0  0  0  0  0  0
    8.8258   -7.3895    0.0000 H   0  0  0  0  0  0  0  0  0  0  0  0
    9.4458   -6.7695    0.0000 H   0  0  0  0  0  0  0  0  0  0  0  0
    8.8258   -6.1495    0.0000 H   0  0  0  0  0  0  0  0  0  0  0  0
    3.0369    7.4595    0.0000 H   0  0  0  0  0  0  0  0  0  0  0  0
    2.8100    8.3064    0.0000 H   0  0  0  0  0  0  0  0  0  0  0  0
    1.9631    8.0795    0.0000 H   0  0  0  0  0  0  0  0  0  0  0  0
  1 22  1  0  0  0  0
  1 24  1  0  0  0  0
  2 21  2  0  0  0  0
  3 24  1  0  0  0  0
  3 31  1  0  0  0  0
  4 16  1  0  0  0  0
  4 17  1  0  0  0  0
  4 18  1  0  0  0  0
  5 12  1  0  0  0  0
  5 21  1  0  0  0  0
  5 49  1  0  0  0  0
  6 20  1  0  0  0  0
  6 24  2  0  0  0  0
  7  8  1  0  0  0  0
  7 28  1  0  0  0  0
  7 33  1  0  0  0  0
  8 27  2  0  0  0  0
  9 10  1  0  0  0  0
  9 11  1  0  0  0  0
  9 15  1  0  0  0  0
  9 35  1  0  0  0  0
 10 13  1  0  0  0  0
 10 36  1  0  0  0  0
 10 37  1  0  0  0  0
 11 14  1  0  0  0  0
 11 38  1  0  0  0  0
 11 39  1  0  0  0  0
 12 13  1  0  0  0  0
 12 14  1  0  0  0  0
 12 40  1  0  0  0  0
 13 41  1  0  0  0  0
 13 42  1  0  0  0  0
 14 43  1  0  0  0  0
 14 44  1  0  0  0  0
 15 16  1  0  0  0  0
 15 45  1  0  0  0  0
 15 46  1  0  0  0  0
 16 47  1  0  0  0  0
 16 48  1  0  0  0  0
 17 19  1  0  0  0  0
 17 50  1  0  0  0  0
 17 51  1  0  0  0  0
 18 20  1  0  0  0  0
 18 52  1  0  0  0  0
 18 53  1  0  0  0  0
 19 22  1  0  0  0  0
 19 54  1  0  0  0  0
 19 55  1  0  0  0  0
 20 22  2  0  0  0  0
 21 23  1  0  0  0  0
 23 25  1  0  0  0  0
 23 26  2  0  0  0  0
 25 27  1  0  0  0  0
 25 28  2  0  0  0  0
 26 29  1  0  0  0  0
 26 56  1  0  0  0  0
 27 30  1  0  0  0  0
 28 57  1  0  0  0  0
 29 30  2  0  0  0  0
 29 58  1  0  0  0  0
 30 59  1  0  0  0  0
 31 32  1  0  0  0  0
 31 60  1  0  0  0  0
 31 61  1  0  0  0  0
 32 34  1  0  0  0  0
 32 62  1  0  0  0  0
 32 63  1  0  0  0  0
 33 64  1  0  0  0  0
 33 65  1  0  0  0  0
 33 66  1  0  0  0  0
 34 67  1  0  0  0  0
 34 68  1  0  0  0  0
 34 69  1  0  0  0  0
M  END
> <PUBCHEM_COMPOUND_CID>
138670893

> <PUBCHEM_COMPOUND_CANONICALIZED>
1

> <PUBCHEM_CACTVS_COMPLEXITY>
676

> <PUBCHEM_CACTVS_HBOND_ACCEPTOR>
6

> <PUBCHEM_CACTVS_HBOND_DONOR>
1

> <PUBCHEM_CACTVS_ROTATABLE_BOND>
8

> <PUBCHEM_CACTVS_SUBSKEYS>
AAADcfB7sABAAAAAAAAAAAAAAAAAAWLAAAA8YIAAAAAAAFgB/AAAHgQYAAAADSjh3gY+wfPIFAiuAzV3VACS9KB1ijgY2LU4ZNgIYLLg1dGcpQhgngDIyYcciICOgAAAQAASAAAQAACAACQAAAAAAAAAAA==

> <PUBCHEM_IUPAC_OPENEYE_NAME>
2-methyl-N-[4-[2-(2-propoxy-6,7-dihydro-4H-thiazolo[4,5-c]pyridin-5-yl)ethyl]cyclohexyl]indazole-4-carboxamide

> <PUBCHEM_IUPAC_CAS_NAME>
2-methyl-N-[4-[2-(2-propoxy-6,7-dihydro-4H-thiazolo[4,5-c]pyridin-5-yl)ethyl]cyclohexyl]-4-indazolecarboxamide

> <PUBCHEM_IUPAC_NAME_MARKUP>
2-methyl-<I>N</I>-[4-[2-(2-propoxy-6,7-dihydro-4<I>H</I>-[1,3]thiazolo[4,5-c]pyridin-5-yl)ethyl]cyclohexyl]indazole-4-carboxamide

> <PUBCHEM_IUPAC_NAME>
2-methyl-N-[4-[2-(2-propoxy-6,7-dihydro-4H-[1,3]thiazolo[4,5-c]pyridin-5-yl)ethyl]cyclohexyl]indazole-4-carboxamide

> <PUBCHEM_IUPAC_SYSTEMATIC_NAME>
2-methyl-N-[4-[2-(2-propoxy-6,7-dihydro-4H-[1,3]thiazolo[4,5-c]pyridin-5-yl)ethyl]cyclohexyl]indazole-4-carboxamide

> <PUBCHEM_IUPAC_TRADITIONAL_NAME>
2-methyl-N-[4-[2-(2-propoxy-6,7-dihydro-4H-thiazolo[4,5-c]pyridin-5-yl)ethyl]cyclohexyl]indazole-4-carboxamide

> <PUBCHEM_IUPAC_INCHI>
InChI=1S/C26H35N5O2S/c1-3-15-33-26-28-23-17-31(14-12-24(23)34-26)13-11-18-7-9-19(10-8-18)27-25(32)20-5-4-6-22-21(20)16-30(2)29-22/h4-6,16,18-19H,3,7-15,17H2,1-2H3,(H,27,32)

> <PUBCHEM_IUPAC_INCHIKEY>
MZYJTTCCTJDSIK-UHFFFAOYSA-N

> <PUBCHEM_XLOGP3_AA>
4.6

> <PUBCHEM_EXACT_MASS>
481.25114655

> <PUBCHEM_MOLECULAR_FORMULA>
C26H35N5O2S

> <PUBCHEM_MOLECULAR_WEIGHT>
481.7

> <PUBCHEM_OPENEYE_CAN_SMILES>
CCCOC1=NC2=C(S1)CCN(C2)CCC3CCC(CC3)NC(=O)C4=CC=CC5=NN(C=C54)C

> <PUBCHEM_OPENEYE_ISO_SMILES>
CCCOC1=NC2=C(S1)CCN(C2)CCC3CCC(CC3)NC(=O)C4=CC=CC5=NN(C=C54)C

> <PUBCHEM_CACTVS_TPSA>
101

> <PUBCHEM_MONOISOTOPIC_WEIGHT>
481.25114655

> <PUBCHEM_TOTAL_CHARGE>
0

> <PUBCHEM_HEAVY_ATOM_COUNT>
34

> <PUBCHEM_ATOM_DEF_STEREO_COUNT>
0

> <PUBCHEM_ATOM_UDEF_STEREO_COUNT>
0

> <PUBCHEM_BOND_DEF_STEREO_COUNT>
0

> <PUBCHEM_BOND_UDEF_STEREO_COUNT>
0

> <PUBCHEM_ISOTOPIC_ATOM_COUNT>
0

> <PUBCHEM_COMPONENT_COUNT>
1

> <PUBCHEM_CACTVS_TAUTO_COUNT>
-1

> <PUBCHEM_COORDINATE_TYPE>
1
5
255

> <PUBCHEM_BONDANNOTATIONS>
1  22  8
1  24  8
20  22  8
23  25  8
23  26  8
25  27  8
25  28  8
26  29  8
27  30  8
29  30  8
6  20  8
6  24  8
7  28  8
7  8  8
8  27  8

$$$$
