44350660
  -OEChem-09292322122D

 78 82  0     1  0  0  0  0  0999 V2000
   10.1227    4.6543    0.0000 O   0  0  0  0  0  0  0  0  0  0  0  0
    1.4030    3.6200    0.0000 O   0  0  0  0  0  0  0  0  0  0  0  0
    8.8273   11.3172    0.0000 O   0  0  0  0  0  0  0  0  0  0  0  0
    6.2292   11.8172    0.0000 O   0  0  0  0  0  0  0  0  0  0  0  0
    7.9613   12.8172    0.0000 O   0  0  0  0  0  0  0  0  0  0  0  0
    7.0952   10.3172    0.0000 O   0  0  0  0  0  0  0  0  0  0  0  0
    4.8671    3.6200    0.0000 N   0  0  0  0  0  0  0  0  0  0  0  0
    9.2567    6.1543    0.0000 N   0  0  0  0  0  0  0  0  0  0  0  0
    3.1350    2.6200    0.0000 N   0  0  0  0  0  0  0  0  0  0  0  0
    7.3080    4.4519    0.0000 C   0  0  3  0  0  0  0  0  0  0  0  0
    6.8080    5.3179    0.0000 C   0  0  3  0  0  0  0  0  0  0  0  0
    5.7331    4.1200    0.0000 C   0  0  0  0  0  0  0  0  0  0  0  0
    6.6409    3.7149    0.0000 C   0  0  0  0  0  0  0  0  0  0  0  0
    5.8361    5.1087    0.0000 C   0  0  0  0  0  0  0  0  0  0  0  0
    8.2861    4.6598    0.0000 C   0  0  0  0  0  0  0  0  0  0  0  0
    7.4771    6.0611    0.0000 C   0  0  0  0  0  0  0  0  0  0  0  0
    8.3906    5.6543    0.0000 C   0  0  0  0  0  0  0  0  0  0  0  0
    4.0010    4.1200    0.0000 C   0  0  0  0  0  0  0  0  0  0  0  0
    4.8671    2.6200    0.0000 C   0  0  0  0  0  0  0  0  0  0  0  0
    3.1350    3.6200    0.0000 C   0  0  0  0  0  0  0  0  0  0  0  0
    4.0010    2.1200    0.0000 C   0  0  0  0  0  0  0  0  0  0  0  0
   10.1227    5.6543    0.0000 C   0  0  0  0  0  0  0  0  0  0  0  0
    2.2690    2.1200    0.0000 C   0  0  0  0  0  0  0  0  0  0  0  0
   10.9887    6.1543    0.0000 C   0  0  0  0  0  0  0  0  0  0  0  0
    1.4030    2.6200    0.0000 C   0  0  0  0  0  0  0  0  0  0  0  0
    2.2690    1.1200    0.0000 C   0  0  0  0  0  0  0  0  0  0  0  0
   11.8547    5.6543    0.0000 C   0  0  0  0  0  0  0  0  0  0  0  0
   10.9887    7.1543    0.0000 C   0  0  0  0  0  0  0  0  0  0  0  0
    0.5369    2.1200    0.0000 C   0  0  0  0  0  0  0  0  0  0  0  0
    1.4030    0.6200    0.0000 C   0  0  0  0  0  0  0  0  0  0  0  0
   12.7208    6.1543    0.0000 C   0  0  0  0  0  0  0  0  0  0  0  0
   11.8547    7.6543    0.0000 C   0  0  0  0  0  0  0  0  0  0  0  0
    0.5369    1.1200    0.0000 C   0  0  0  0  0  0  0  0  0  0  0  0
   12.7208    7.1543    0.0000 C   0  0  0  0  0  0  0  0  0  0  0  0
   13.6147    5.6197    0.0000 C   0  0  0  0  0  0  0  0  0  0  0  0
    0.5369    4.1200    0.0000 C   0  0  0  0  0  0  0  0  0  0  0  0
   13.6147    7.6890    0.0000 C   0  0  0  0  0  0  0  0  0  0  0  0
   14.5208    6.1335    0.0000 C   0  0  0  0  0  0  0  0  0  0  0  0
   14.5208    7.1752    0.0000 C   0  0  0  0  0  0  0  0  0  0  0  0
    7.9613   11.8172    0.0000 C   0  0  0  0  0  0  0  0  0  0  0  0
    7.0952   11.3172    0.0000 C   0  0  0  0  0  0  0  0  0  0  0  0
    7.6173    3.9146    0.0000 H   0  0  0  0  0  0  0  0  0  0  0  0
    6.4973    5.8545    0.0000 H   0  0  0  0  0  0  0  0  0  0  0  0
    5.2130    4.4574    0.0000 H   0  0  0  0  0  0  0  0  0  0  0  0
    6.3301    3.1784    0.0000 H   0  0  0  0  0  0  0  0  0  0  0  0
    7.1417    3.3494    0.0000 H   0  0  0  0  0  0  0  0  0  0  0  0
    5.7701    5.7252    0.0000 H   0  0  0  0  0  0  0  0  0  0  0  0
    5.2161    5.1078    0.0000 H   0  0  0  0  0  0  0  0  0  0  0  0
    8.3509    4.0432    0.0000 H   0  0  0  0  0  0  0  0  0  0  0  0
    8.9061    4.6598    0.0000 H   0  0  0  0  0  0  0  0  0  0  0  0
    7.7871    6.5980    0.0000 H   0  0  0  0  0  0  0  0  0  0  0  0
    6.9755    6.4255    0.0000 H   0  0  0  0  0  0  0  0  0  0  0  0
    8.3582    6.2735    0.0000 H   0  0  0  0  0  0  0  0  0  0  0  0
    9.2567    6.7743    0.0000 H   0  0  0  0  0  0  0  0  0  0  0  0
    4.3996    4.5950    0.0000 H   0  0  0  0  0  0  0  0  0  0  0  0
    3.6025    4.5950    0.0000 H   0  0  0  0  0  0  0  0  0  0  0  0
    5.0791    2.0374    0.0000 H   0  0  0  0  0  0  0  0  0  0  0  0
    5.4776    2.7277    0.0000 H   0  0  0  0  0  0  0  0  0  0  0  0
    2.9230    4.2026    0.0000 H   0  0  0  0  0  0  0  0  0  0  0  0
    2.5244    3.5123    0.0000 H   0  0  0  0  0  0  0  0  0  0  0  0
    3.6025    1.6450    0.0000 H   0  0  0  0  0  0  0  0  0  0  0  0
    4.3996    1.6450    0.0000 H   0  0  0  0  0  0  0  0  0  0  0  0
    2.8059    0.8100    0.0000 H   0  0  0  0  0  0  0  0  0  0  0  0
   11.8547    5.0343    0.0000 H   0  0  0  0  0  0  0  0  0  0  0  0
   10.4518    7.4643    0.0000 H   0  0  0  0  0  0  0  0  0  0  0  0
    0.0000    2.4300    0.0000 H   0  0  0  0  0  0  0  0  0  0  0  0
    1.4030    0.0000    0.0000 H   0  0  0  0  0  0  0  0  0  0  0  0
   11.8547    8.2743    0.0000 H   0  0  0  0  0  0  0  0  0  0  0  0
    0.0000    0.8100    0.0000 H   0  0  0  0  0  0  0  0  0  0  0  0
   13.6075    4.9997    0.0000 H   0  0  0  0  0  0  0  0  0  0  0  0
    0.8469    4.6569    0.0000 H   0  0  0  0  0  0  0  0  0  0  0  0
    0.0000    4.4300    0.0000 H   0  0  0  0  0  0  0  0  0  0  0  0
    0.2269    3.5831    0.0000 H   0  0  0  0  0  0  0  0  0  0  0  0
   13.6075    8.3090    0.0000 H   0  0  0  0  0  0  0  0  0  0  0  0
   15.0565    5.8214    0.0000 H   0  0  0  0  0  0  0  0  0  0  0  0
   15.0565    7.4872    0.0000 H   0  0  0  0  0  0  0  0  0  0  0  0
    9.3642   11.6272    0.0000 H   0  0  0  0  0  0  0  0  0  0  0  0
    5.6923   11.5072    0.0000 H   0  0  0  0  0  0  0  0  0  0  0  0
  1 22  2  0  0  0  0
  2 25  1  0  0  0  0
  2 36  1  0  0  0  0
  3 40  1  0  0  0  0
  3 77  1  0  0  0  0
  4 41  1  0  0  0  0
  4 78  1  0  0  0  0
  5 40  2  0  0  0  0
  6 41  2  0  0  0  0
  7 12  1  0  0  0  0
  7 18  1  0  0  0  0
  7 19  1  0  0  0  0
  8 17  1  0  0  0  0
  8 22  1  0  0  0  0
  8 54  1  0  0  0  0
  9 20  1  0  0  0  0
  9 21  1  0  0  0  0
  9 23  1  0  0  0  0
 10 11  1  0  0  0  0
 10 13  1  0  0  0  0
 10 15  1  0  0  0  0
 10 42  1  0  0  0  0
 11 14  1  0  0  0  0
 11 16  1  0  0  0  0
 11 43  1  0  0  0  0
 12 13  1  0  0  0  0
 12 14  1  0  0  0  0
 12 44  1  0  0  0  0
 13 45  1  0  0  0  0
 13 46  1  0  0  0  0
 14 47  1  0  0  0  0
 14 48  1  0  0  0  0
 15 17  1  0  0  0  0
 15 49  1  0  0  0  0
 15 50  1  0  0  0  0
 16 17  1  0  0  0  0
 16 51  1  0  0  0  0
 16 52  1  0  0  0  0
 17 53  1  0  0  0  0
 18 20  1  0  0  0  0
 18 55  1  0  0  0  0
 18 56  1  0  0  0  0
 19 21  1  0  0  0  0
 19 57  1  0  0  0  0
 19 58  1  0  0  0  0
 20 59  1  0  0  0  0
 20 60  1  0  0  0  0
 21 61  1  0  0  0  0
 21 62  1  0  0  0  0
 22 24  1  0  0  0  0
 23 25  1  0  0  0  0
 23 26  2  0  0  0  0
 24 27  2  0  0  0  0
 24 28  1  0  0  0  0
 25 29  2  0  0  0  0
 26 30  1  0  0  0  0
 26 63  1  0  0  0  0
 27 31  1  0  0  0  0
 27 64  1  0  0  0  0
 28 32  2  0  0  0  0
 28 65  1  0  0  0  0
 29 33  1  0  0  0  0
 29 66  1  0  0  0  0
 30 33  2  0  0  0  0
 30 67  1  0  0  0  0
 31 34  1  0  0  0  0
 31 35  2  0  0  0  0
 32 34  1  0  0  0  0
 32 68  1  0  0  0  0
 33 69  1  0  0  0  0
 34 37  2  0  0  0  0
 35 38  1  0  0  0  0
 35 70  1  0  0  0  0
 36 71  1  0  0  0  0
 36 72  1  0  0  0  0
 36 73  1  0  0  0  0
 37 39  1  0  0  0  0
 37 74  1  0  0  0  0
 38 39  2  0  0  0  0
 38 75  1  0  0  0  0
 39 76  1  0  0  0  0
 40 41  1  0  0  0  0
M  END
> <PUBCHEM_COMPOUND_CID>
44350660

> <PUBCHEM_COMPOUND_CANONICALIZED>
1

> <PUBCHEM_CACTVS_COMPLEXITY>
780

> <PUBCHEM_CACTVS_HBOND_ACCEPTOR>
8

> <PUBCHEM_CACTVS_HBOND_DONOR>
3

> <PUBCHEM_CACTVS_ROTATABLE_BOND>
6

> <PUBCHEM_CACTVS_SUBSKEYS>
AAADcfB/OAAAAAAAAAAAAAAAAAAAAYMAAAA8YMEAAAAYAADBVAAAHgAQCAAADSzBmAYyzsPABgCIAiXSWAKCCAAlIgAIiIFPbMgPZjLEtZuVMShk1hHZ6YeYyMCOwAACAAAQEACAAAQAACAgACAACAAAAA==

> <PUBCHEM_IUPAC_OPENEYE_NAME>
N-[5-[4-(2-methoxyphenyl)piperazin-1-yl]-1,2,3,3a,4,5,6,6a-octahydropentalen-2-yl]naphthalene-2-carboxamide;oxalic acid

> <PUBCHEM_IUPAC_CAS_NAME>
N-[5-[4-(2-methoxyphenyl)-1-piperazinyl]-1,2,3,3a,4,5,6,6a-octahydropentalen-2-yl]-2-naphthalenecarboxamide;oxalic acid

> <PUBCHEM_IUPAC_NAME_MARKUP>
<I>N</I>-[5-[4-(2-methoxyphenyl)piperazin-1-yl]-1,2,3,3<I>a</I>,4,5,6,6<I>a</I>-octahydropentalen-2-yl]naphthalene-2-carboxamide;oxalic acid

> <PUBCHEM_IUPAC_NAME>
N-[5-[4-(2-methoxyphenyl)piperazin-1-yl]-1,2,3,3a,4,5,6,6a-octahydropentalen-2-yl]naphthalene-2-carboxamide;oxalic acid

> <PUBCHEM_IUPAC_SYSTEMATIC_NAME>
ethanedioic acid;N-[5-[4-(2-methoxyphenyl)piperazin-1-yl]-1,2,3,3a,4,5,6,6a-octahydropentalen-2-yl]naphthalene-2-carboxamide

> <PUBCHEM_IUPAC_TRADITIONAL_NAME>
N-[5-[4-(2-methoxyphenyl)piperazino]-1,2,3,3a,4,5,6,6a-octahydropentalen-2-yl]-2-naphthamide;oxalic acid

> <PUBCHEM_IUPAC_INCHI>
InChI=1S/C30H35N3O2.C2H2O4/c1-35-29-9-5-4-8-28(29)33-14-12-32(13-15-33)27-19-24-17-26(18-25(24)20-27)31-30(34)23-11-10-21-6-2-3-7-22(21)16-23;3-1(4)2(5)6/h2-11,16,24-27H,12-15,17-20H2,1H3,(H,31,34);(H,3,4)(H,5,6)

> <PUBCHEM_IUPAC_INCHIKEY>
DCDMKUCJUXWAIJ-UHFFFAOYSA-N

> <PUBCHEM_EXACT_MASS>
559.26823591

> <PUBCHEM_MOLECULAR_FORMULA>
C32H37N3O6

> <PUBCHEM_MOLECULAR_WEIGHT>
559.7

> <PUBCHEM_OPENEYE_CAN_SMILES>
COC1=CC=CC=C1N2CCN(CC2)C3CC4CC(CC4C3)NC(=O)C5=CC6=CC=CC=C6C=C5.C(=O)(C(=O)O)O

> <PUBCHEM_OPENEYE_ISO_SMILES>
COC1=CC=CC=C1N2CCN(CC2)C3CC4CC(CC4C3)NC(=O)C5=CC6=CC=CC=C6C=C5.C(=O)(C(=O)O)O

> <PUBCHEM_CACTVS_TPSA>
119

> <PUBCHEM_MONOISOTOPIC_WEIGHT>
559.26823591

> <PUBCHEM_TOTAL_CHARGE>
0

> <PUBCHEM_HEAVY_ATOM_COUNT>
41

> <PUBCHEM_ATOM_DEF_STEREO_COUNT>
0

> <PUBCHEM_ATOM_UDEF_STEREO_COUNT>
2

> <PUBCHEM_BOND_DEF_STEREO_COUNT>
0

> <PUBCHEM_BOND_UDEF_STEREO_COUNT>
0

> <PUBCHEM_ISOTOPIC_ATOM_COUNT>
0

> <PUBCHEM_COMPONENT_COUNT>
2

> <PUBCHEM_CACTVS_TAUTO_COUNT>
-1

> <PUBCHEM_COORDINATE_TYPE>
1
5
255

> <PUBCHEM_BONDANNOTATIONS>
10  15  3
11  16  3
23  25  8
23  26  8
24  27  8
24  28  8
25  29  8
26  30  8
27  31  8
28  32  8
29  33  8
30  33  8
31  34  8
31  35  8
32  34  8
34  37  8
35  38  8
37  39  8
38  39  8

$$$$
