51354567
  -OEChem-09292322312D

 73 74  0     0  0  0  0  0  0999 V2000
    5.6720    2.1200    0.0000 F   0  0  0  0  0  0  0  0  0  0  0  0
   13.4662   15.6200    0.0000 F   0  0  0  0  0  0  0  0  0  0  0  0
    8.2700    2.6200    0.0000 O   0  0  0  0  0  0  0  0  0  0  0  0
   13.4662    9.6200    0.0000 O   0  0  0  0  0  0  0  0  0  0  0  0
    3.1350    7.5600    0.0000 O   0  0  0  0  0  0  0  0  0  0  0  0
    0.5369    8.0600    0.0000 O   0  0  0  0  0  0  0  0  0  0  0  0
    2.2690    9.0600    0.0000 O   0  0  0  0  0  0  0  0  0  0  0  0
    1.4030    6.5600    0.0000 O   0  0  0  0  0  0  0  0  0  0  0  0
   10.0021    5.6200    0.0000 N   0  0  0  0  0  0  0  0  0  0  0  0
   10.0021    3.6200    0.0000 N   0  0  0  0  0  0  0  0  0  0  0  0
   11.7341    9.6200    0.0000 N   0  0  0  0  0  0  0  0  0  0  0  0
    9.1360    5.1200    0.0000 C   0  0  0  0  0  0  0  0  0  0  0  0
   10.8681    5.1200    0.0000 C   0  0  0  0  0  0  0  0  0  0  0  0
    9.1360    4.1200    0.0000 C   0  0  0  0  0  0  0  0  0  0  0  0
   10.8681    4.1200    0.0000 C   0  0  0  0  0  0  0  0  0  0  0  0
   10.0021    6.6200    0.0000 C   0  0  0  0  0  0  0  0  0  0  0  0
   10.8681    7.1200    0.0000 C   0  0  0  0  0  0  0  0  0  0  0  0
   10.0021    2.6200    0.0000 C   0  0  0  0  0  0  0  0  0  0  0  0
   10.8681    8.1200    0.0000 C   0  0  0  0  0  0  0  0  0  0  0  0
   11.7341    8.6200    0.0000 C   0  0  0  0  0  0  0  0  0  0  0  0
    9.1360    2.1200    0.0000 C   0  0  0  0  0  0  0  0  0  0  0  0
   10.8681    2.1200    0.0000 C   0  0  0  0  0  0  0  0  0  0  0  0
    9.1360    1.1200    0.0000 C   0  0  0  0  0  0  0  0  0  0  0  0
   10.8681    1.1200    0.0000 C   0  0  0  0  0  0  0  0  0  0  0  0
   10.0021    0.6200    0.0000 C   0  0  0  0  0  0  0  0  0  0  0  0
   12.6002   10.1200    0.0000 C   0  0  0  0  0  0  0  0  0  0  0  0
    7.4040    2.1200    0.0000 C   0  0  0  0  0  0  0  0  0  0  0  0
   12.6002   11.1200    0.0000 C   0  0  0  0  0  0  0  0  0  0  0  0
    6.5380    2.6200    0.0000 C   0  0  0  0  0  0  0  0  0  0  0  0
   13.4662   11.6200    0.0000 C   0  0  0  0  0  0  0  0  0  0  0  0
   11.7341   11.6200    0.0000 C   0  0  0  0  0  0  0  0  0  0  0  0
   12.6002   13.1200    0.0000 C   0  0  0  0  0  0  0  0  0  0  0  0
   13.4662   12.6200    0.0000 C   0  0  0  0  0  0  0  0  0  0  0  0
   11.7341   12.6200    0.0000 C   0  0  0  0  0  0  0  0  0  0  0  0
   12.6002   14.1200    0.0000 C   0  0  0  0  0  0  0  0  0  0  0  0
   13.4662   14.6200    0.0000 C   0  0  0  0  0  0  0  0  0  0  0  0
    2.2690    8.0600    0.0000 C   0  0  0  0  0  0  0  0  0  0  0  0
    1.4030    7.5600    0.0000 C   0  0  0  0  0  0  0  0  0  0  0  0
    8.9240    5.7026    0.0000 H   0  0  0  0  0  0  0  0  0  0  0  0
    8.5255    5.0123    0.0000 H   0  0  0  0  0  0  0  0  0  0  0  0
   11.4787    5.0123    0.0000 H   0  0  0  0  0  0  0  0  0  0  0  0
   11.0802    5.7026    0.0000 H   0  0  0  0  0  0  0  0  0  0  0  0
    8.5255    4.2277    0.0000 H   0  0  0  0  0  0  0  0  0  0  0  0
    8.9240    3.5374    0.0000 H   0  0  0  0  0  0  0  0  0  0  0  0
   11.0802    3.5374    0.0000 H   0  0  0  0  0  0  0  0  0  0  0  0
   11.4787    4.2277    0.0000 H   0  0  0  0  0  0  0  0  0  0  0  0
    9.7900    7.2026    0.0000 H   0  0  0  0  0  0  0  0  0  0  0  0
    9.3915    6.5123    0.0000 H   0  0  0  0  0  0  0  0  0  0  0  0
   11.0802    6.5374    0.0000 H   0  0  0  0  0  0  0  0  0  0  0  0
   11.4787    7.2277    0.0000 H   0  0  0  0  0  0  0  0  0  0  0  0
   10.6560    8.7026    0.0000 H   0  0  0  0  0  0  0  0  0  0  0  0
   10.2575    8.0123    0.0000 H   0  0  0  0  0  0  0  0  0  0  0  0
   11.9462    8.0374    0.0000 H   0  0  0  0  0  0  0  0  0  0  0  0
   12.3447    8.7277    0.0000 H   0  0  0  0  0  0  0  0  0  0  0  0
   11.4050    2.4300    0.0000 H   0  0  0  0  0  0  0  0  0  0  0  0
    8.5991    0.8100    0.0000 H   0  0  0  0  0  0  0  0  0  0  0  0
   11.4050    0.8100    0.0000 H   0  0  0  0  0  0  0  0  0  0  0  0
   11.1972    9.9300    0.0000 H   0  0  0  0  0  0  0  0  0  0  0  0
   10.0021    0.0000    0.0000 H   0  0  0  0  0  0  0  0  0  0  0  0
    7.0055    1.6450    0.0000 H   0  0  0  0  0  0  0  0  0  0  0  0
    7.8025    1.6450    0.0000 H   0  0  0  0  0  0  0  0  0  0  0  0
    6.9365    3.0950    0.0000 H   0  0  0  0  0  0  0  0  0  0  0  0
    6.1394    3.0950    0.0000 H   0  0  0  0  0  0  0  0  0  0  0  0
   14.0031   11.3100    0.0000 H   0  0  0  0  0  0  0  0  0  0  0  0
   11.1972   11.3100    0.0000 H   0  0  0  0  0  0  0  0  0  0  0  0
   14.0031   12.9300    0.0000 H   0  0  0  0  0  0  0  0  0  0  0  0
   11.1972   12.9300    0.0000 H   0  0  0  0  0  0  0  0  0  0  0  0
   12.3881   14.7026    0.0000 H   0  0  0  0  0  0  0  0  0  0  0  0
   11.9896   14.0123    0.0000 H   0  0  0  0  0  0  0  0  0  0  0  0
   13.6782   14.0374    0.0000 H   0  0  0  0  0  0  0  0  0  0  0  0
   14.0768   14.7277    0.0000 H   0  0  0  0  0  0  0  0  0  0  0  0
    3.6720    7.8700    0.0000 H   0  0  0  0  0  0  0  0  0  0  0  0
    0.0000    7.7500    0.0000 H   0  0  0  0  0  0  0  0  0  0  0  0
  1 29  1  0  0  0  0
  2 36  1  0  0  0  0
  3 21  1  0  0  0  0
  3 27  1  0  0  0  0
  4 26  2  0  0  0  0
  5 37  1  0  0  0  0
  5 72  1  0  0  0  0
  6 38  1  0  0  0  0
  6 73  1  0  0  0  0
  7 37  2  0  0  0  0
  8 38  2  0  0  0  0
  9 12  1  0  0  0  0
  9 13  1  0  0  0  0
  9 16  1  0  0  0  0
 10 14  1  0  0  0  0
 10 15  1  0  0  0  0
 10 18  1  0  0  0  0
 11 20  1  0  0  0  0
 11 26  1  0  0  0  0
 11 58  1  0  0  0  0
 12 14  1  0  0  0  0
 12 39  1  0  0  0  0
 12 40  1  0  0  0  0
 13 15  1  0  0  0  0
 13 41  1  0  0  0  0
 13 42  1  0  0  0  0
 14 43  1  0  0  0  0
 14 44  1  0  0  0  0
 15 45  1  0  0  0  0
 15 46  1  0  0  0  0
 16 17  1  0  0  0  0
 16 47  1  0  0  0  0
 16 48  1  0  0  0  0
 17 19  1  0  0  0  0
 17 49  1  0  0  0  0
 17 50  1  0  0  0  0
 18 21  1  0  0  0  0
 18 22  2  0  0  0  0
 19 20  1  0  0  0  0
 19 51  1  0  0  0  0
 19 52  1  0  0  0  0
 20 53  1  0  0  0  0
 20 54  1  0  0  0  0
 21 23  2  0  0  0  0
 22 24  1  0  0  0  0
 22 55  1  0  0  0  0
 23 25  1  0  0  0  0
 23 56  1  0  0  0  0
 24 25  2  0  0  0  0
 24 57  1  0  0  0  0
 25 59  1  0  0  0  0
 26 28  1  0  0  0  0
 27 29  1  0  0  0  0
 27 60  1  0  0  0  0
 27 61  1  0  0  0  0
 28 30  2  0  0  0  0
 28 31  1  0  0  0  0
 29 62  1  0  0  0  0
 29 63  1  0  0  0  0
 30 33  1  0  0  0  0
 30 64  1  0  0  0  0
 31 34  2  0  0  0  0
 31 65  1  0  0  0  0
 32 33  2  0  0  0  0
 32 34  1  0  0  0  0
 32 35  1  0  0  0  0
 33 66  1  0  0  0  0
 34 67  1  0  0  0  0
 35 36  1  0  0  0  0
 35 68  1  0  0  0  0
 35 69  1  0  0  0  0
 36 70  1  0  0  0  0
 36 71  1  0  0  0  0
 37 38  1  0  0  0  0
M  END
> <PUBCHEM_COMPOUND_CID>
51354567

> <PUBCHEM_COMPOUND_CANONICALIZED>
1

> <PUBCHEM_CACTVS_COMPLEXITY>
595

> <PUBCHEM_CACTVS_HBOND_ACCEPTOR>
10

> <PUBCHEM_CACTVS_HBOND_DONOR>
3

> <PUBCHEM_CACTVS_ROTATABLE_BOND>
13

> <PUBCHEM_CACTVS_SUBSKEYS>
AAADcfB7OYAAAAAAAAAAAAAAAAAAAAAAAAA8YIAAAAAAAAABQAAAHwAQCAAADAzhmAYwzoPABgCIAiXSWAKCCAAlIgAIiIFPbMgPZjLEtZuXOSjk1hHZ6YeYyMCOQAAAAAAAEACAAAAAAAAgAAAAAAAAAA==

> <PUBCHEM_IUPAC_OPENEYE_NAME>
N-[4-[4-[2-(2-fluoroethoxy)phenyl]piperazin-1-yl]butyl]-4-(2-fluoroethyl)benzamide;oxalic acid

> <PUBCHEM_IUPAC_CAS_NAME>
N-[4-[4-[2-(2-fluoroethoxy)phenyl]-1-piperazinyl]butyl]-4-(2-fluoroethyl)benzamide;oxalic acid

> <PUBCHEM_IUPAC_NAME_MARKUP>
<I>N</I>-[4-[4-[2-(2-fluoroethoxy)phenyl]piperazin-1-yl]butyl]-4-(2-fluoroethyl)benzamide;oxalic acid

> <PUBCHEM_IUPAC_NAME>
N-[4-[4-[2-(2-fluoroethoxy)phenyl]piperazin-1-yl]butyl]-4-(2-fluoroethyl)benzamide;oxalic acid

> <PUBCHEM_IUPAC_SYSTEMATIC_NAME>
ethanedioic acid;N-[4-[4-[2-(2-fluoranylethoxy)phenyl]piperazin-1-yl]butyl]-4-(2-fluoranylethyl)benzamide

> <PUBCHEM_IUPAC_TRADITIONAL_NAME>
N-[4-[4-[2-(2-fluoroethoxy)phenyl]piperazino]butyl]-4-(2-fluoroethyl)benzamide;oxalic acid

> <PUBCHEM_IUPAC_INCHI>
InChI=1S/C25H33F2N3O2.C2H2O4/c26-12-11-21-7-9-22(10-8-21)25(31)28-14-3-4-15-29-16-18-30(19-17-29)23-5-1-2-6-24(23)32-20-13-27;3-1(4)2(5)6/h1-2,5-10H,3-4,11-20H2,(H,28,31);(H,3,4)(H,5,6)

> <PUBCHEM_IUPAC_INCHIKEY>
MERHPVYKOZNGFK-UHFFFAOYSA-N

> <PUBCHEM_EXACT_MASS>
535.24939217

> <PUBCHEM_MOLECULAR_FORMULA>
C27H35F2N3O6

> <PUBCHEM_MOLECULAR_WEIGHT>
535.6

> <PUBCHEM_OPENEYE_CAN_SMILES>
C1CN(CCN1CCCCNC(=O)C2=CC=C(C=C2)CCF)C3=CC=CC=C3OCCF.C(=O)(C(=O)O)O

> <PUBCHEM_OPENEYE_ISO_SMILES>
C1CN(CCN1CCCCNC(=O)C2=CC=C(C=C2)CCF)C3=CC=CC=C3OCCF.C(=O)(C(=O)O)O

> <PUBCHEM_CACTVS_TPSA>
119

> <PUBCHEM_MONOISOTOPIC_WEIGHT>
535.24939217

> <PUBCHEM_TOTAL_CHARGE>
0

> <PUBCHEM_HEAVY_ATOM_COUNT>
38

> <PUBCHEM_ATOM_DEF_STEREO_COUNT>
0

> <PUBCHEM_ATOM_UDEF_STEREO_COUNT>
0

> <PUBCHEM_BOND_DEF_STEREO_COUNT>
0

> <PUBCHEM_BOND_UDEF_STEREO_COUNT>
0

> <PUBCHEM_ISOTOPIC_ATOM_COUNT>
0

> <PUBCHEM_COMPONENT_COUNT>
2

> <PUBCHEM_CACTVS_TAUTO_COUNT>
-1

> <PUBCHEM_COORDINATE_TYPE>
1
5
255

> <PUBCHEM_BONDANNOTATIONS>
18  21  8
18  22  8
21  23  8
22  24  8
23  25  8
24  25  8
28  30  8
28  31  8
30  33  8
31  34  8
32  33  8
32  34  8

$$$$
