42626293
  -OEChem-09292322252D

 53 56  0     0  0  0  0  0  0999 V2000
    6.2619    3.9107    0.0000 O   0  0  0  0  0  0  0  0  0  0  0  0
    7.5673   -0.1581    0.0000 N   0  0  0  0  0  0  0  0  0  0  0  0
    8.1886   -2.0591    0.0000 N   0  0  0  0  0  0  0  0  0  0  0  0
    4.6783    3.1059    0.0000 N   0  0  0  0  0  0  0  0  0  0  0  0
    8.5458   -0.3643    0.0000 C   0  0  0  0  0  0  0  0  0  0  0  0
    6.8994   -0.9024    0.0000 C   0  0  0  0  0  0  0  0  0  0  0  0
    7.2566    0.7925    0.0000 C   0  0  0  0  0  0  0  0  0  0  0  0
    8.8564   -1.3148    0.0000 C   0  0  0  0  0  0  0  0  0  0  0  0
    7.2101   -1.8529    0.0000 C   0  0  0  0  0  0  0  0  0  0  0  0
    6.2781    0.9987    0.0000 C   0  0  0  0  0  0  0  0  0  0  0  0
    5.9674    1.9492    0.0000 C   0  0  0  0  0  0  0  0  0  0  0  0
    4.9889    2.1554    0.0000 C   0  0  0  0  0  0  0  0  0  0  0  0
    8.4993   -3.0096    0.0000 C   0  0  0  0  0  0  0  0  0  0  0  0
    3.7320    3.4107    0.0000 C   0  0  0  0  0  0  0  0  0  0  0  0
    3.7320    4.4107    0.0000 C   0  0  0  0  0  0  0  0  0  0  0  0
    4.6783    4.7154    0.0000 C   0  0  0  0  0  0  0  0  0  0  0  0
    5.2619    3.9107    0.0000 C   0  0  0  0  0  0  0  0  0  0  0  0
    7.8314   -3.7539    0.0000 C   0  0  0  0  0  0  0  0  0  0  0  0
    9.4778   -3.2158    0.0000 C   0  0  0  0  0  0  0  0  0  0  0  0
    2.8660    2.9107    0.0000 C   0  0  0  0  0  0  0  0  0  0  0  0
    2.8660    4.9107    0.0000 C   0  0  0  0  0  0  0  0  0  0  0  0
    2.0000    3.4107    0.0000 C   0  0  0  0  0  0  0  0  0  0  0  0
    2.0000    4.4107    0.0000 C   0  0  0  0  0  0  0  0  0  0  0  0
    8.1421   -4.7044    0.0000 C   0  0  0  0  0  0  0  0  0  0  0  0
    9.7884   -4.1664    0.0000 C   0  0  0  0  0  0  0  0  0  0  0  0
    9.1206   -4.9107    0.0000 C   0  0  0  0  0  0  0  0  0  0  0  0
    9.1596   -0.2769    0.0000 H   0  0  0  0  0  0  0  0  0  0  0  0
    8.5663    0.2554    0.0000 H   0  0  0  0  0  0  0  0  0  0  0  0
    6.5169   -0.4145    0.0000 H   0  0  0  0  0  0  0  0  0  0  0  0
    6.3525   -1.1944    0.0000 H   0  0  0  0  0  0  0  0  0  0  0  0
    7.8704    0.8798    0.0000 H   0  0  0  0  0  0  0  0  0  0  0  0
    7.2772    1.4121    0.0000 H   0  0  0  0  0  0  0  0  0  0  0  0
    9.2390   -1.8027    0.0000 H   0  0  0  0  0  0  0  0  0  0  0  0
    9.4034   -1.0228    0.0000 H   0  0  0  0  0  0  0  0  0  0  0  0
    6.5963   -1.9402    0.0000 H   0  0  0  0  0  0  0  0  0  0  0  0
    7.1895   -2.4726    0.0000 H   0  0  0  0  0  0  0  0  0  0  0  0
    5.6643    0.9113    0.0000 H   0  0  0  0  0  0  0  0  0  0  0  0
    6.2575    0.3790    0.0000 H   0  0  0  0  0  0  0  0  0  0  0  0
    6.5812    2.0365    0.0000 H   0  0  0  0  0  0  0  0  0  0  0  0
    5.9880    2.5688    0.0000 H   0  0  0  0  0  0  0  0  0  0  0  0
    4.3751    2.0681    0.0000 H   0  0  0  0  0  0  0  0  0  0  0  0
    4.9684    1.5358    0.0000 H   0  0  0  0  0  0  0  0  0  0  0  0
    5.2156    5.0246    0.0000 H   0  0  0  0  0  0  0  0  0  0  0  0
    4.4272    5.2823    0.0000 H   0  0  0  0  0  0  0  0  0  0  0  0
    7.2247   -3.6261    0.0000 H   0  0  0  0  0  0  0  0  0  0  0  0
    9.8918   -2.7544    0.0000 H   0  0  0  0  0  0  0  0  0  0  0  0
    2.8660    2.2907    0.0000 H   0  0  0  0  0  0  0  0  0  0  0  0
    2.8660    5.5307    0.0000 H   0  0  0  0  0  0  0  0  0  0  0  0
    1.4631    3.1007    0.0000 H   0  0  0  0  0  0  0  0  0  0  0  0
    1.4631    4.7207    0.0000 H   0  0  0  0  0  0  0  0  0  0  0  0
    7.7280   -5.1659    0.0000 H   0  0  0  0  0  0  0  0  0  0  0  0
   10.3951   -4.2942    0.0000 H   0  0  0  0  0  0  0  0  0  0  0  0
    9.3132   -5.5000    0.0000 H   0  0  0  0  0  0  0  0  0  0  0  0
  1 17  2  0  0  0  0
  2  5  1  0  0  0  0
  2  6  1  0  0  0  0
  2  7  1  0  0  0  0
  3  8  1  0  0  0  0
  3  9  1  0  0  0  0
  3 13  1  0  0  0  0
  4 12  1  0  0  0  0
  4 14  1  0  0  0  0
  4 17  1  0  0  0  0
  5  8  1  0  0  0  0
  5 27  1  0  0  0  0
  5 28  1  0  0  0  0
  6  9  1  0  0  0  0
  6 29  1  0  0  0  0
  6 30  1  0  0  0  0
  7 10  1  0  0  0  0
  7 31  1  0  0  0  0
  7 32  1  0  0  0  0
  8 33  1  0  0  0  0
  8 34  1  0  0  0  0
  9 35  1  0  0  0  0
  9 36  1  0  0  0  0
 10 11  1  0  0  0  0
 10 37  1  0  0  0  0
 10 38  1  0  0  0  0
 11 12  1  0  0  0  0
 11 39  1  0  0  0  0
 11 40  1  0  0  0  0
 12 41  1  0  0  0  0
 12 42  1  0  0  0  0
 13 18  2  0  0  0  0
 13 19  1  0  0  0  0
 14 15  1  0  0  0  0
 14 20  2  0  0  0  0
 15 16  1  0  0  0  0
 15 21  2  0  0  0  0
 16 17  1  0  0  0  0
 16 43  1  0  0  0  0
 16 44  1  0  0  0  0
 18 24  1  0  0  0  0
 18 45  1  0  0  0  0
 19 25  2  0  0  0  0
 19 46  1  0  0  0  0
 20 22  1  0  0  0  0
 20 47  1  0  0  0  0
 21 23  1  0  0  0  0
 21 48  1  0  0  0  0
 22 23  2  0  0  0  0
 22 49  1  0  0  0  0
 23 50  1  0  0  0  0
 24 26  2  0  0  0  0
 24 51  1  0  0  0  0
 25 26  1  0  0  0  0
 25 52  1  0  0  0  0
 26 53  1  0  0  0  0
M  END
> <PUBCHEM_COMPOUND_CID>
42626293

> <PUBCHEM_COMPOUND_CANONICALIZED>
1

> <PUBCHEM_CACTVS_COMPLEXITY>
454

> <PUBCHEM_CACTVS_HBOND_ACCEPTOR>
3

> <PUBCHEM_CACTVS_HBOND_DONOR>
0

> <PUBCHEM_CACTVS_ROTATABLE_BOND>
6

> <PUBCHEM_CACTVS_SUBSKEYS>
AAADceB7IAAAAAAAAAAAAAAAAAAAAWAAAAA8YIAAAAAAAFgBQAAAHgAAAAAADAjBmAQwwIMAAACIAiVSUACCAAAhAgAIiAEIZIgIYDLAlZGUIAhghgDIyAcciICOAAAAAAACAAAAAAAAAAQAAAAAAAAAAA==

> <PUBCHEM_IUPAC_OPENEYE_NAME>
1-[4-(4-phenylpiperazin-1-yl)butyl]indolin-2-one

> <PUBCHEM_IUPAC_CAS_NAME>
1-[4-(4-phenyl-1-piperazinyl)butyl]-3H-indol-2-one

> <PUBCHEM_IUPAC_NAME_MARKUP>
1-[4-(4-phenylpiperazin-1-yl)butyl]-3<I>H</I>-indol-2-one

> <PUBCHEM_IUPAC_NAME>
1-[4-(4-phenylpiperazin-1-yl)butyl]-3H-indol-2-one

> <PUBCHEM_IUPAC_SYSTEMATIC_NAME>
1-[4-(4-phenylpiperazin-1-yl)butyl]-3H-indol-2-one

> <PUBCHEM_IUPAC_TRADITIONAL_NAME>
1-[4-(4-phenylpiperazino)butyl]oxindole

> <PUBCHEM_IUPAC_INCHI>
InChI=1S/C22H27N3O/c26-22-18-19-8-4-5-11-21(19)25(22)13-7-6-12-23-14-16-24(17-15-23)20-9-2-1-3-10-20/h1-5,8-11H,6-7,12-18H2

> <PUBCHEM_IUPAC_INCHIKEY>
LNEVPGGCVOGZMM-UHFFFAOYSA-N

> <PUBCHEM_XLOGP3_AA>
3.3

> <PUBCHEM_EXACT_MASS>
349.215412493

> <PUBCHEM_MOLECULAR_FORMULA>
C22H27N3O

> <PUBCHEM_MOLECULAR_WEIGHT>
349.5

> <PUBCHEM_OPENEYE_CAN_SMILES>
C1CN(CCN1CCCCN2C(=O)CC3=CC=CC=C32)C4=CC=CC=C4

> <PUBCHEM_OPENEYE_ISO_SMILES>
C1CN(CCN1CCCCN2C(=O)CC3=CC=CC=C32)C4=CC=CC=C4

> <PUBCHEM_CACTVS_TPSA>
26.8

> <PUBCHEM_MONOISOTOPIC_WEIGHT>
349.215412493

> <PUBCHEM_TOTAL_CHARGE>
0

> <PUBCHEM_HEAVY_ATOM_COUNT>
26

> <PUBCHEM_ATOM_DEF_STEREO_COUNT>
0

> <PUBCHEM_ATOM_UDEF_STEREO_COUNT>
0

> <PUBCHEM_BOND_DEF_STEREO_COUNT>
0

> <PUBCHEM_BOND_UDEF_STEREO_COUNT>
0

> <PUBCHEM_ISOTOPIC_ATOM_COUNT>
0

> <PUBCHEM_COMPONENT_COUNT>
1

> <PUBCHEM_CACTVS_TAUTO_COUNT>
-1

> <PUBCHEM_COORDINATE_TYPE>
1
5
255

> <PUBCHEM_BONDANNOTATIONS>
13  18  8
13  19  8
14  15  8
14  20  8
15  21  8
18  24  8
19  25  8
20  22  8
21  23  8
22  23  8
24  26  8
25  26  8

$$$$
