22132503
  -OEChem-09292322222D

 62 65  0     1  0  0  0  0  0999 V2000
    3.7320    0.3932    0.0000 S   0  0  0  0  0  0  0  0  0  0  0  0
    2.0000    1.3932    0.0000 F   0  0  0  0  0  0  0  0  0  0  0  0
    2.3660    0.0272    0.0000 F   0  0  0  0  0  0  0  0  0  0  0  0
    3.3660    1.7593    0.0000 F   0  0  0  0  0  0  0  0  0  0  0  0
    4.5981   -0.1068    0.0000 O   0  0  0  0  0  0  0  0  0  0  0  0
    3.2320   -0.4728    0.0000 O   0  0  0  0  0  0  0  0  0  0  0  0
    4.2320    1.2593    0.0000 O   0  0  0  0  0  0  0  0  0  0  0  0
   14.1961    1.3524    0.0000 O   0  0  0  0  0  0  0  0  0  0  0  0
    8.9962    0.3724    0.0000 N   0  0  3  0  0  0  0  0  0  0  0  0
   13.3243   -0.1443    0.0000 N   0  0  0  0  0  0  0  0  0  0  0  0
   17.8587   -1.3597    0.0000 N   0  0  0  0  0  0  0  0  0  0  0  0
    8.9962    1.4141    0.0000 C   0  0  0  0  0  0  0  0  0  0  0  0
    8.0901   -0.1414    0.0000 C   0  0  0  0  0  0  0  0  0  0  0  0
    8.0901    1.9279    0.0000 C   0  0  0  0  0  0  0  0  0  0  0  0
    9.8602   -0.1309    0.0000 C   0  0  0  0  0  0  0  0  0  0  0  0
    7.1962    0.3932    0.0000 C   0  0  0  0  0  0  0  0  0  0  0  0
    7.1962    1.3932    0.0000 C   0  0  0  0  0  0  0  0  0  0  0  0
   10.7282    0.3658    0.0000 C   0  0  0  0  0  0  0  0  0  0  0  0
   11.5923   -0.1376    0.0000 C   0  0  0  0  0  0  0  0  0  0  0  0
    6.3301   -0.1068    0.0000 C   0  0  0  0  0  0  0  0  0  0  0  0
    6.3301    1.8932    0.0000 C   0  0  0  0  0  0  0  0  0  0  0  0
    5.4641    0.3932    0.0000 C   0  0  0  0  0  0  0  0  0  0  0  0
   12.4602    0.3591    0.0000 C   0  0  0  0  0  0  0  0  0  0  0  0
    5.4641    1.3932    0.0000 C   0  0  0  0  0  0  0  0  0  0  0  0
   14.1923    0.3524    0.0000 C   0  0  0  0  0  0  0  0  0  0  0  0
   16.7884   -0.1576    0.0000 C   0  0  0  0  0  0  0  0  0  0  0  0
   17.6977    0.2440    0.0000 C   0  0  0  0  0  0  0  0  0  0  0  0
   15.0564   -0.1509    0.0000 C   0  0  0  0  0  0  0  0  0  0  0  0
   18.3627   -0.5029    0.0000 C   0  0  0  0  0  0  0  0  0  0  0  0
    2.8660    0.8932    0.0000 C   0  0  0  0  0  0  0  0  0  0  0  0
   15.9243    0.3457    0.0000 C   0  0  0  0  0  0  0  0  0  0  0  0
   16.8876   -1.1467    0.0000 C   0  0  0  0  0  0  0  0  0  0  0  0
   18.0121    1.1933    0.0000 C   0  0  0  0  0  0  0  0  0  0  0  0
   19.3420   -0.3004    0.0000 C   0  0  0  0  0  0  0  0  0  0  0  0
   18.9914    1.3958    0.0000 C   0  0  0  0  0  0  0  0  0  0  0  0
   19.6563    0.6489    0.0000 C   0  0  0  0  0  0  0  0  0  0  0  0
    9.6070    1.3080    0.0000 H   0  0  0  0  0  0  0  0  0  0  0  0
    9.2052    1.9978    0.0000 H   0  0  0  0  0  0  0  0  0  0  0  0
    7.6855   -0.6112    0.0000 H   0  0  0  0  0  0  0  0  0  0  0  0
    8.4837   -0.6204    0.0000 H   0  0  0  0  0  0  0  0  0  0  0  0
    8.4837    2.4069    0.0000 H   0  0  0  0  0  0  0  0  0  0  0  0
    7.6855    2.3977    0.0000 H   0  0  0  0  0  0  0  0  0  0  0  0
    9.4599   -0.6043    0.0000 H   0  0  0  0  0  0  0  0  0  0  0  0
   10.2569   -0.6074    0.0000 H   0  0  0  0  0  0  0  0  0  0  0  0
   11.1286    0.8392    0.0000 H   0  0  0  0  0  0  0  0  0  0  0  0
   10.3315    0.8422    0.0000 H   0  0  0  0  0  0  0  0  0  0  0  0
   11.1919   -0.6110    0.0000 H   0  0  0  0  0  0  0  0  0  0  0  0
   11.9890   -0.6141    0.0000 H   0  0  0  0  0  0  0  0  0  0  0  0
    6.3301   -0.7268    0.0000 H   0  0  0  0  0  0  0  0  0  0  0  0
    6.3301    2.5132    0.0000 H   0  0  0  0  0  0  0  0  0  0  0  0
   12.8606    0.8325    0.0000 H   0  0  0  0  0  0  0  0  0  0  0  0
   12.0635    0.8356    0.0000 H   0  0  0  0  0  0  0  0  0  0  0  0
    4.9272    1.7032    0.0000 H   0  0  0  0  0  0  0  0  0  0  0  0
   13.3219   -0.7643    0.0000 H   0  0  0  0  0  0  0  0  0  0  0  0
   15.0540   -0.7709    0.0000 H   0  0  0  0  0  0  0  0  0  0  0  0
   15.9267    0.9657    0.0000 H   0  0  0  0  0  0  0  0  0  0  0  0
   16.4246   -1.5590    0.0000 H   0  0  0  0  0  0  0  0  0  0  0  0
   18.1067   -1.9279    0.0000 H   0  0  0  0  0  0  0  0  0  0  0  0
   17.5998    1.6564    0.0000 H   0  0  0  0  0  0  0  0  0  0  0  0
   19.7543   -0.7635    0.0000 H   0  0  0  0  0  0  0  0  0  0  0  0
   19.1862    1.9843    0.0000 H   0  0  0  0  0  0  0  0  0  0  0  0
   20.2635    0.7744    0.0000 H   0  0  0  0  0  0  0  0  0  0  0  0
  1  5  1  0  0  0  0
  1  6  2  0  0  0  0
  1  7  2  0  0  0  0
  1 30  1  0  0  0  0
  2 30  1  0  0  0  0
  3 30  1  0  0  0  0
  4 30  1  0  0  0  0
  5 22  1  0  0  0  0
  8 25  2  0  0  0  0
  9 12  1  0  0  0  0
  9 13  1  0  0  0  0
  9 15  1  0  0  0  0
 10 23  1  0  0  0  0
 10 25  1  0  0  0  0
 10 54  1  0  0  0  0
 11 29  1  0  0  0  0
 11 32  1  0  0  0  0
 11 58  1  0  0  0  0
 12 14  1  0  0  0  0
 12 37  1  0  0  0  0
 12 38  1  0  0  0  0
 13 16  1  0  0  0  0
 13 39  1  0  0  0  0
 13 40  1  0  0  0  0
 14 17  1  0  0  0  0
 14 41  1  0  0  0  0
 14 42  1  0  0  0  0
 15 18  1  0  0  0  0
 15 43  1  0  0  0  0
 15 44  1  0  0  0  0
 16 17  2  0  0  0  0
 16 20  1  0  0  0  0
 17 21  1  0  0  0  0
 18 19  1  0  0  0  0
 18 45  1  0  0  0  0
 18 46  1  0  0  0  0
 19 23  1  0  0  0  0
 19 47  1  0  0  0  0
 19 48  1  0  0  0  0
 20 22  2  0  0  0  0
 20 49  1  0  0  0  0
 21 24  2  0  0  0  0
 21 50  1  0  0  0  0
 22 24  1  0  0  0  0
 23 51  1  0  0  0  0
 23 52  1  0  0  0  0
 24 53  1  0  0  0  0
 25 28  1  0  0  0  0
 26 27  1  0  0  0  0
 26 31  1  0  0  0  0
 26 32  2  0  0  0  0
 27 29  1  0  0  0  0
 27 33  2  0  0  0  0
 28 31  2  0  0  0  0
 28 55  1  0  0  0  0
 29 34  2  0  0  0  0
 31 56  1  0  0  0  0
 32 57  1  0  0  0  0
 33 35  1  0  0  0  0
 33 59  1  0  0  0  0
 34 36  1  0  0  0  0
 34 60  1  0  0  0  0
 35 36  2  0  0  0  0
 35 61  1  0  0  0  0
 36 62  1  0  0  0  0
M  END
> <PUBCHEM_COMPOUND_CID>
22132503

> <PUBCHEM_COMPOUND_CANONICALIZED>
1

> <PUBCHEM_CACTVS_COMPLEXITY>
877

> <PUBCHEM_CACTVS_HBOND_ACCEPTOR>
8

> <PUBCHEM_CACTVS_HBOND_DONOR>
2

> <PUBCHEM_CACTVS_ROTATABLE_BOND>
9

> <PUBCHEM_CACTVS_SUBSKEYS>
AAADceB7OYBAAAAAAAAAAAAAAAAAAWAAAAA8YIAAAAAAAFix9AAAHwQQAAAADAzBnhQ8xvPJkAKoAzV3VHCCgCAxIiAI2aA+bNgIJuLAkZOEMAhk1hHIyYewwNAOoAABAAASAABAAAIAACQAAAAAAAAAAA==

> <PUBCHEM_IUPAC_OPENEYE_NAME>
[2-[4-[[(E)-3-(1H-indol-3-yl)prop-2-enoyl]amino]butyl]-3,4-dihydro-1H-isoquinolin-7-yl] trifluoromethanesulfonate

> <PUBCHEM_IUPAC_CAS_NAME>
trifluoromethanesulfonic acid [2-[4-[[(E)-3-(1H-indol-3-yl)-1-oxoprop-2-enyl]amino]butyl]-3,4-dihydro-1H-isoquinolin-7-yl] ester

> <PUBCHEM_IUPAC_NAME_MARKUP>
[2-[4-[[(<I>E</I>)-3-(1<I>H</I>-indol-3-yl)prop-2-enoyl]amino]butyl]-3,4-dihydro-1<I>H</I>-isoquinolin-7-yl] trifluoromethanesulfonate

> <PUBCHEM_IUPAC_NAME>
[2-[4-[[(E)-3-(1H-indol-3-yl)prop-2-enoyl]amino]butyl]-3,4-dihydro-1H-isoquinolin-7-yl] trifluoromethanesulfonate

> <PUBCHEM_IUPAC_SYSTEMATIC_NAME>
[2-[4-[[(E)-3-(1H-indol-3-yl)prop-2-enoyl]amino]butyl]-3,4-dihydro-1H-isoquinolin-7-yl] tris(fluoranyl)methanesulfonate

> <PUBCHEM_IUPAC_TRADITIONAL_NAME>
trifluoromethanesulfonic acid [2-[4-[[(E)-3-(1H-indol-3-yl)acryloyl]amino]butyl]-3,4-dihydro-1H-isoquinolin-7-yl] ester

> <PUBCHEM_IUPAC_INCHI>
InChI=1S/C25H26F3N3O4S/c26-25(27,28)36(33,34)35-21-9-7-18-11-14-31(17-20(18)15-21)13-4-3-12-29-24(32)10-8-19-16-30-23-6-2-1-5-22(19)23/h1-2,5-10,15-16,30H,3-4,11-14,17H2,(H,29,32)/b10-8+

> <PUBCHEM_IUPAC_INCHIKEY>
AFKRYMMWFODFAD-CSKARUKUSA-N

> <PUBCHEM_XLOGP3_AA>
4.8

> <PUBCHEM_EXACT_MASS>
521.15961198

> <PUBCHEM_MOLECULAR_FORMULA>
C25H26F3N3O4S

> <PUBCHEM_MOLECULAR_WEIGHT>
521.6

> <PUBCHEM_OPENEYE_CAN_SMILES>
C1CN(CC2=C1C=CC(=C2)OS(=O)(=O)C(F)(F)F)CCCCNC(=O)C=CC3=CNC4=CC=CC=C43

> <PUBCHEM_OPENEYE_ISO_SMILES>
C1CN(CC2=C1C=CC(=C2)OS(=O)(=O)C(F)(F)F)CCCCNC(=O)/C=C/C3=CNC4=CC=CC=C43

> <PUBCHEM_CACTVS_TPSA>
99.9

> <PUBCHEM_MONOISOTOPIC_WEIGHT>
521.15961198

> <PUBCHEM_TOTAL_CHARGE>
0

> <PUBCHEM_HEAVY_ATOM_COUNT>
36

> <PUBCHEM_ATOM_DEF_STEREO_COUNT>
0

> <PUBCHEM_ATOM_UDEF_STEREO_COUNT>
0

> <PUBCHEM_BOND_DEF_STEREO_COUNT>
1

> <PUBCHEM_BOND_UDEF_STEREO_COUNT>
0

> <PUBCHEM_ISOTOPIC_ATOM_COUNT>
0

> <PUBCHEM_COMPONENT_COUNT>
1

> <PUBCHEM_CACTVS_TAUTO_COUNT>
-1

> <PUBCHEM_COORDINATE_TYPE>
1
5
255

> <PUBCHEM_BONDANNOTATIONS>
11  29  8
11  32  8
16  17  8
16  20  8
17  21  8
20  22  8
21  24  8
22  24  8
26  27  8
26  32  8
27  29  8
27  33  8
29  34  8
33  35  8
34  36  8
35  36  8

$$$$
