72545239
  -OEChem-09292322342D

 70 73  0     0  0  0  0  0  0999 V2000
   14.7733    7.7667    0.0000 F   0  0  0  0  0  0  0  0  0  0  0  0
    2.8660   -5.7667    0.0000 O   0  0  0  0  0  0  0  0  0  0  0  0
    8.1737    3.5899    0.0000 O   0  0  0  0  0  0  0  0  0  0  0  0
   10.5695    4.7125    0.0000 O   0  0  0  0  0  0  0  0  0  0  0  0
   12.3775    6.6441    0.0000 O   0  0  0  0  0  0  0  0  0  0  0  0
    4.5981   -2.7667    0.0000 N   0  0  0  0  0  0  0  0  0  0  0  0
    4.5981   -4.7667    0.0000 N   0  0  0  0  0  0  0  0  0  0  0  0
    6.3776   -1.6735    0.0000 N   0  0  0  0  0  0  0  0  0  0  0  0
    6.5468   -0.0643    0.0000 N   0  0  0  0  0  0  0  0  0  0  0  0
    7.0468   -0.9303    0.0000 N   0  0  0  0  0  0  0  0  0  0  0  0
    5.4641   -3.2667    0.0000 C   0  0  0  0  0  0  0  0  0  0  0  0
    3.7320   -3.2667    0.0000 C   0  0  0  0  0  0  0  0  0  0  0  0
    5.4641   -4.2667    0.0000 C   0  0  0  0  0  0  0  0  0  0  0  0
    3.7320   -4.2667    0.0000 C   0  0  0  0  0  0  0  0  0  0  0  0
    4.5981   -1.7667    0.0000 C   0  0  0  0  0  0  0  0  0  0  0  0
    4.5981   -5.7667    0.0000 C   0  0  0  0  0  0  0  0  0  0  0  0
    5.4641   -1.2667    0.0000 C   0  0  0  0  0  0  0  0  0  0  0  0
    3.7320   -6.2667    0.0000 C   0  0  0  0  0  0  0  0  0  0  0  0
    5.4641   -6.2667    0.0000 C   0  0  0  0  0  0  0  0  0  0  0  0
    5.5686   -0.2722    0.0000 C   0  0  0  0  0  0  0  0  0  0  0  0
    3.7320   -7.2667    0.0000 C   0  0  0  0  0  0  0  0  0  0  0  0
    5.4641   -7.2667    0.0000 C   0  0  0  0  0  0  0  0  0  0  0  0
    4.5981   -7.7667    0.0000 C   0  0  0  0  0  0  0  0  0  0  0  0
    6.9535    0.8493    0.0000 C   0  0  0  0  0  0  0  0  0  0  0  0
    2.0000   -6.2667    0.0000 C   0  0  0  0  0  0  0  0  0  0  0  0
    6.3657    1.6583    0.0000 C   0  0  0  0  0  0  0  0  0  0  0  0
    7.9480    0.9538    0.0000 C   0  0  0  0  0  0  0  0  0  0  0  0
    6.7725    2.5718    0.0000 C   0  0  0  0  0  0  0  0  0  0  0  0
    8.3548    1.8673    0.0000 C   0  0  0  0  0  0  0  0  0  0  0  0
    7.7670    2.6763    0.0000 C   0  0  0  0  0  0  0  0  0  0  0  0
    9.1682    3.6944    0.0000 C   0  0  0  0  0  0  0  0  0  0  0  0
    9.5750    4.6080    0.0000 C   0  0  0  0  0  0  0  0  0  0  0  0
   10.9762    5.6260    0.0000 C   0  0  0  0  0  0  0  0  0  0  0  0
   11.9708    5.7306    0.0000 C   0  0  0  0  0  0  0  0  0  0  0  0
   13.3720    6.7486    0.0000 C   0  0  0  0  0  0  0  0  0  0  0  0
   13.7788    7.6622    0.0000 C   0  0  0  0  0  0  0  0  0  0  0  0
    6.0747   -3.3744    0.0000 H   0  0  0  0  0  0  0  0  0  0  0  0
    5.6762   -2.6841    0.0000 H   0  0  0  0  0  0  0  0  0  0  0  0
    3.5200   -2.6841    0.0000 H   0  0  0  0  0  0  0  0  0  0  0  0
    3.1215   -3.3744    0.0000 H   0  0  0  0  0  0  0  0  0  0  0  0
    5.6762   -4.8493    0.0000 H   0  0  0  0  0  0  0  0  0  0  0  0
    6.0747   -4.1591    0.0000 H   0  0  0  0  0  0  0  0  0  0  0  0
    3.1215   -4.1591    0.0000 H   0  0  0  0  0  0  0  0  0  0  0  0
    3.5200   -4.8493    0.0000 H   0  0  0  0  0  0  0  0  0  0  0  0
    4.3860   -1.1841    0.0000 H   0  0  0  0  0  0  0  0  0  0  0  0
    3.9875   -1.8744    0.0000 H   0  0  0  0  0  0  0  0  0  0  0  0
    6.0010   -5.9567    0.0000 H   0  0  0  0  0  0  0  0  0  0  0  0
    5.1079    0.1427    0.0000 H   0  0  0  0  0  0  0  0  0  0  0  0
    3.1951   -7.5767    0.0000 H   0  0  0  0  0  0  0  0  0  0  0  0
    6.0010   -7.5767    0.0000 H   0  0  0  0  0  0  0  0  0  0  0  0
    4.5981   -8.3867    0.0000 H   0  0  0  0  0  0  0  0  0  0  0  0
    1.6900   -5.7298    0.0000 H   0  0  0  0  0  0  0  0  0  0  0  0
    1.4631   -6.5767    0.0000 H   0  0  0  0  0  0  0  0  0  0  0  0
    2.3100   -6.8037    0.0000 H   0  0  0  0  0  0  0  0  0  0  0  0
    5.7491    1.5935    0.0000 H   0  0  0  0  0  0  0  0  0  0  0  0
    8.3125    0.4522    0.0000 H   0  0  0  0  0  0  0  0  0  0  0  0
    6.4080    3.0734    0.0000 H   0  0  0  0  0  0  0  0  0  0  0  0
    8.9714    1.9321    0.0000 H   0  0  0  0  0  0  0  0  0  0  0  0
    9.1250    3.0759    0.0000 H   0  0  0  0  0  0  0  0  0  0  0  0
    9.7698    3.5444    0.0000 H   0  0  0  0  0  0  0  0  0  0  0  0
    9.6182    5.2265    0.0000 H   0  0  0  0  0  0  0  0  0  0  0  0
    8.9734    4.7580    0.0000 H   0  0  0  0  0  0  0  0  0  0  0  0
   11.0195    6.2445    0.0000 H   0  0  0  0  0  0  0  0  0  0  0  0
   10.3747    5.7760    0.0000 H   0  0  0  0  0  0  0  0  0  0  0  0
   11.9275    5.1121    0.0000 H   0  0  0  0  0  0  0  0  0  0  0  0
   12.5723    5.5806    0.0000 H   0  0  0  0  0  0  0  0  0  0  0  0
   13.3288    6.1302    0.0000 H   0  0  0  0  0  0  0  0  0  0  0  0
   13.9736    6.5986    0.0000 H   0  0  0  0  0  0  0  0  0  0  0  0
   13.8220    8.2807    0.0000 H   0  0  0  0  0  0  0  0  0  0  0  0
   13.1772    7.8122    0.0000 H   0  0  0  0  0  0  0  0  0  0  0  0
  1 36  1  0  0  0  0
  2 18  1  0  0  0  0
  2 25  1  0  0  0  0
  3 30  1  0  0  0  0
  3 31  1  0  0  0  0
  4 32  1  0  0  0  0
  4 33  1  0  0  0  0
  5 34  1  0  0  0  0
  5 35  1  0  0  0  0
  6 11  1  0  0  0  0
  6 12  1  0  0  0  0
  6 15  1  0  0  0  0
  7 13  1  0  0  0  0
  7 14  1  0  0  0  0
  7 16  1  0  0  0  0
  8 10  2  0  0  0  0
  8 17  1  0  0  0  0
  9 10  1  0  0  0  0
  9 20  1  0  0  0  0
  9 24  1  0  0  0  0
 11 13  1  0  0  0  0
 11 37  1  0  0  0  0
 11 38  1  0  0  0  0
 12 14  1  0  0  0  0
 12 39  1  0  0  0  0
 12 40  1  0  0  0  0
 13 41  1  0  0  0  0
 13 42  1  0  0  0  0
 14 43  1  0  0  0  0
 14 44  1  0  0  0  0
 15 17  1  0  0  0  0
 15 45  1  0  0  0  0
 15 46  1  0  0  0  0
 16 18  1  0  0  0  0
 16 19  2  0  0  0  0
 17 20  2  0  0  0  0
 18 21  2  0  0  0  0
 19 22  1  0  0  0  0
 19 47  1  0  0  0  0
 20 48  1  0  0  0  0
 21 23  1  0  0  0  0
 21 49  1  0  0  0  0
 22 23  2  0  0  0  0
 22 50  1  0  0  0  0
 23 51  1  0  0  0  0
 24 26  2  0  0  0  0
 24 27  1  0  0  0  0
 25 52  1  0  0  0  0
 25 53  1  0  0  0  0
 25 54  1  0  0  0  0
 26 28  1  0  0  0  0
 26 55  1  0  0  0  0
 27 29  2  0  0  0  0
 27 56  1  0  0  0  0
 28 30  2  0  0  0  0
 28 57  1  0  0  0  0
 29 30  1  0  0  0  0
 29 58  1  0  0  0  0
 31 32  1  0  0  0  0
 31 59  1  0  0  0  0
 31 60  1  0  0  0  0
 32 61  1  0  0  0  0
 32 62  1  0  0  0  0
 33 34  1  0  0  0  0
 33 63  1  0  0  0  0
 33 64  1  0  0  0  0
 34 65  1  0  0  0  0
 34 66  1  0  0  0  0
 35 36  1  0  0  0  0
 35 67  1  0  0  0  0
 35 68  1  0  0  0  0
 36 69  1  0  0  0  0
 36 70  1  0  0  0  0
M  END
> <PUBCHEM_COMPOUND_CID>
72545239

> <PUBCHEM_COMPOUND_CANONICALIZED>
1

> <PUBCHEM_CACTVS_COMPLEXITY>
593

> <PUBCHEM_CACTVS_HBOND_ACCEPTOR>
9

> <PUBCHEM_CACTVS_HBOND_DONOR>
0

> <PUBCHEM_CACTVS_ROTATABLE_BOND>
14

> <PUBCHEM_CACTVS_SUBSKEYS>
AAADcfB7uQAAAAAAAAAAAAAAAAAAAWAAAAA8YIAAAAAAAAAB0AAAHwAIAAAACAzhlgY+xpMIBACiATRnRACCDCQxsgAYmAA/fIgPZmLE8ZuXOCjkwBHa6AewQAAAAEAAAAAAEAAAgAAAAAAgAAAAAAAAAA==

> <PUBCHEM_IUPAC_OPENEYE_NAME>
1-[[1-[4-[2-[2-(2-fluoroethoxy)ethoxy]ethoxy]phenyl]triazol-4-yl]methyl]-4-(2-methoxyphenyl)piperazine

> <PUBCHEM_IUPAC_CAS_NAME>
1-[[1-[4-[2-[2-(2-fluoroethoxy)ethoxy]ethoxy]phenyl]-4-triazolyl]methyl]-4-(2-methoxyphenyl)piperazine

> <PUBCHEM_IUPAC_NAME_MARKUP>
1-[[1-[4-[2-[2-(2-fluoroethoxy)ethoxy]ethoxy]phenyl]triazol-4-yl]methyl]-4-(2-methoxyphenyl)piperazine

> <PUBCHEM_IUPAC_NAME>
1-[[1-[4-[2-[2-(2-fluoroethoxy)ethoxy]ethoxy]phenyl]triazol-4-yl]methyl]-4-(2-methoxyphenyl)piperazine

> <PUBCHEM_IUPAC_SYSTEMATIC_NAME>
1-[[1-[4-[2-[2-(2-fluoranylethoxy)ethoxy]ethoxy]phenyl]-1,2,3-triazol-4-yl]methyl]-4-(2-methoxyphenyl)piperazine

> <PUBCHEM_IUPAC_TRADITIONAL_NAME>
1-[[1-[4-[2-[2-(2-fluoroethoxy)ethoxy]ethoxy]phenyl]triazol-4-yl]methyl]-4-(2-methoxyphenyl)piperazine

> <PUBCHEM_IUPAC_INCHI>
InChI=1S/C26H34FN5O4/c1-33-26-5-3-2-4-25(26)31-13-11-30(12-14-31)20-22-21-32(29-28-22)23-6-8-24(9-7-23)36-19-18-35-17-16-34-15-10-27/h2-9,21H,10-20H2,1H3

> <PUBCHEM_IUPAC_INCHIKEY>
NJTHDWRTKWUXOY-UHFFFAOYSA-N

> <PUBCHEM_XLOGP3_AA>
2.8

> <PUBCHEM_EXACT_MASS>
499.25948274

> <PUBCHEM_MOLECULAR_FORMULA>
C26H34FN5O4

> <PUBCHEM_MOLECULAR_WEIGHT>
499.6

> <PUBCHEM_OPENEYE_CAN_SMILES>
COC1=CC=CC=C1N2CCN(CC2)CC3=CN(N=N3)C4=CC=C(C=C4)OCCOCCOCCF

> <PUBCHEM_OPENEYE_ISO_SMILES>
COC1=CC=CC=C1N2CCN(CC2)CC3=CN(N=N3)C4=CC=C(C=C4)OCCOCCOCCF

> <PUBCHEM_CACTVS_TPSA>
74.1

> <PUBCHEM_MONOISOTOPIC_WEIGHT>
499.25948274

> <PUBCHEM_TOTAL_CHARGE>
0

> <PUBCHEM_HEAVY_ATOM_COUNT>
36

> <PUBCHEM_ATOM_DEF_STEREO_COUNT>
0

> <PUBCHEM_ATOM_UDEF_STEREO_COUNT>
0

> <PUBCHEM_BOND_DEF_STEREO_COUNT>
0

> <PUBCHEM_BOND_UDEF_STEREO_COUNT>
0

> <PUBCHEM_ISOTOPIC_ATOM_COUNT>
0

> <PUBCHEM_COMPONENT_COUNT>
1

> <PUBCHEM_CACTVS_TAUTO_COUNT>
-1

> <PUBCHEM_COORDINATE_TYPE>
1
5
255

> <PUBCHEM_BONDANNOTATIONS>
16  18  8
16  19  8
17  20  8
18  21  8
19  22  8
21  23  8
22  23  8
24  26  8
24  27  8
26  28  8
27  29  8
28  30  8
29  30  8
8  10  8
8  17  8
9  10  8
9  20  8

$$$$
