155195287
  -OEChem-09292322412D

 65 69  0     1  0  0  0  0  0999 V2000
   11.4516    6.4487    0.0000 S   0  0  0  0  0  0  0  0  0  0  0  0
    2.9061   -2.7758    0.0000 O   0  0  0  0  0  0  0  0  0  0  0  0
    5.5321   -4.3104    0.0000 O   0  0  0  0  0  0  0  0  0  0  0  0
    5.5442   -0.2412    0.0000 O   0  0  0  0  0  0  0  0  0  0  0  0
    7.2569    4.7655    0.0000 O   0  0  0  0  0  0  0  0  0  0  0  0
    2.9061   -4.8451    0.0000 N   0  0  3  0  0  0  0  0  0  0  0  0
    8.1287    3.2688    0.0000 N   0  0  0  0  0  0  0  0  0  0  0  0
   10.0547    7.2481    0.0000 N   0  0  0  0  0  0  0  0  0  0  0  0
    3.8000   -4.3104    0.0000 C   0  0  1  0  0  0  0  0  0  0  0  0
    3.8000   -3.3104    0.0000 C   0  0  1  0  0  0  0  0  0  0  0  0
    4.6660   -4.8104    0.0000 C   0  0  0  0  0  0  0  0  0  0  0  0
    2.0000   -4.3312    0.0000 C   0  0  0  0  0  0  0  0  0  0  0  0
    4.6660   -2.8104    0.0000 C   0  0  0  0  0  0  0  0  0  0  0  0
    2.9176   -5.8450    0.0000 C   0  0  0  0  0  0  0  0  0  0  0  0
    2.0000   -3.2896    0.0000 C   0  0  0  0  0  0  0  0  0  0  0  0
    5.5321   -3.3104    0.0000 C   0  0  0  0  0  0  0  0  0  0  0  0
    2.0574   -6.3550    0.0000 C   0  0  0  0  0  0  0  0  0  0  0  0
    4.6500   -1.7689    0.0000 C   0  0  0  0  0  0  0  0  0  0  0  0
    6.4421   -2.8036    0.0000 C   0  0  0  0  0  0  0  0  0  0  0  0
    5.5480   -1.2412    0.0000 C   0  0  0  0  0  0  0  0  0  0  0  0
    6.4501   -1.7620    0.0000 C   0  0  0  0  0  0  0  0  0  0  0  0
    2.0690   -7.3549    0.0000 C   0  0  0  0  0  0  0  0  0  0  0  0
    6.4082    0.2622    0.0000 C   0  0  0  0  0  0  0  0  0  0  0  0
    6.4044    1.2622    0.0000 C   0  0  0  0  0  0  0  0  0  0  0  0
    7.2685    1.7655    0.0000 C   0  0  0  0  0  0  0  0  0  0  0  0
    7.2646    2.7655    0.0000 C   0  0  0  0  0  0  0  0  0  0  0  0
    8.1249    4.2688    0.0000 C   0  0  0  0  0  0  0  0  0  0  0  0
    8.9890    4.7721    0.0000 C   0  0  0  0  0  0  0  0  0  0  0  0
    8.9851    5.7721    0.0000 C   0  0  0  0  0  0  0  0  0  0  0  0
    9.8569    4.2755    0.0000 C   0  0  0  0  0  0  0  0  0  0  0  0
    9.8492    6.2755    0.0000 C   0  0  0  0  0  0  0  0  0  0  0  0
   10.7171    5.7788    0.0000 C   0  0  0  0  0  0  0  0  0  0  0  0
   10.7210    4.7788    0.0000 C   0  0  0  0  0  0  0  0  0  0  0  0
   11.0430    7.3549    0.0000 C   0  0  0  0  0  0  0  0  0  0  0  0
    3.8066   -5.1604    0.0000 H   0  0  0  0  0  0  0  0  0  0  0  0
    3.8066   -2.4605    0.0000 H   0  0  0  0  0  0  0  0  0  0  0  0
    4.2675   -5.2854    0.0000 H   0  0  0  0  0  0  0  0  0  0  0  0
    5.0646   -5.2854    0.0000 H   0  0  0  0  0  0  0  0  0  0  0  0
    1.3891   -4.2252    0.0000 H   0  0  0  0  0  0  0  0  0  0  0  0
    1.7909   -4.9149    0.0000 H   0  0  0  0  0  0  0  0  0  0  0  0
    3.1364   -6.4252    0.0000 H   0  0  0  0  0  0  0  0  0  0  0  0
    3.5269   -5.7303    0.0000 H   0  0  0  0  0  0  0  0  0  0  0  0
    1.7909   -2.7059    0.0000 H   0  0  0  0  0  0  0  0  0  0  0  0
    1.3891   -3.3957    0.0000 H   0  0  0  0  0  0  0  0  0  0  0  0
    1.8387   -5.7749    0.0000 H   0  0  0  0  0  0  0  0  0  0  0  0
    1.4482   -6.4697    0.0000 H   0  0  0  0  0  0  0  0  0  0  0  0
    4.1095   -1.4652    0.0000 H   0  0  0  0  0  0  0  0  0  0  0  0
    6.9754   -3.1198    0.0000 H   0  0  0  0  0  0  0  0  0  0  0  0
    6.9882   -1.4541    0.0000 H   0  0  0  0  0  0  0  0  0  0  0  0
    1.4490   -7.3621    0.0000 H   0  0  0  0  0  0  0  0  0  0  0  0
    2.0762   -7.9749    0.0000 H   0  0  0  0  0  0  0  0  0  0  0  0
    2.6890   -7.3478    0.0000 H   0  0  0  0  0  0  0  0  0  0  0  0
    6.6226   -0.3196    0.0000 H   0  0  0  0  0  0  0  0  0  0  0  0
    7.0184    0.3722    0.0000 H   0  0  0  0  0  0  0  0  0  0  0  0
    6.1901    1.8439    0.0000 H   0  0  0  0  0  0  0  0  0  0  0  0
    5.7942    1.1521    0.0000 H   0  0  0  0  0  0  0  0  0  0  0  0
    7.4828    1.1837    0.0000 H   0  0  0  0  0  0  0  0  0  0  0  0
    7.8786    1.8755    0.0000 H   0  0  0  0  0  0  0  0  0  0  0  0
    7.0503    3.3473    0.0000 H   0  0  0  0  0  0  0  0  0  0  0  0
    6.6545    2.6555    0.0000 H   0  0  0  0  0  0  0  0  0  0  0  0
    8.6668    2.9609    0.0000 H   0  0  0  0  0  0  0  0  0  0  0  0
    8.4470    6.0801    0.0000 H   0  0  0  0  0  0  0  0  0  0  0  0
    9.8593    3.6555    0.0000 H   0  0  0  0  0  0  0  0  0  0  0  0
   11.2591    4.4709    0.0000 H   0  0  0  0  0  0  0  0  0  0  0  0
   11.3509    7.8931    0.0000 H   0  0  0  0  0  0  0  0  0  0  0  0
  1 32  1  0  0  0  0
  1 34  1  0  0  0  0
  2 10  1  0  0  0  0
  2 15  1  0  0  0  0
  3 11  1  0  0  0  0
  3 16  1  0  0  0  0
  4 20  1  0  0  0  0
  4 23  1  0  0  0  0
  5 27  2  0  0  0  0
  6  9  1  0  0  0  0
  6 12  1  0  0  0  0
  6 14  1  0  0  0  0
  7 26  1  0  0  0  0
  7 27  1  0  0  0  0
  7 61  1  0  0  0  0
  8 31  1  0  0  0  0
  8 34  2  0  0  0  0
  9 10  1  0  0  0  0
  9 11  1  0  0  0  0
  9 35  1  6  0  0  0
 10 13  1  0  0  0  0
 10 36  1  1  0  0  0
 11 37  1  0  0  0  0
 11 38  1  0  0  0  0
 12 15  1  0  0  0  0
 12 39  1  0  0  0  0
 12 40  1  0  0  0  0
 13 16  2  0  0  0  0
 13 18  1  0  0  0  0
 14 17  1  0  0  0  0
 14 41  1  0  0  0  0
 14 42  1  0  0  0  0
 15 43  1  0  0  0  0
 15 44  1  0  0  0  0
 16 19  1  0  0  0  0
 17 22  1  0  0  0  0
 17 45  1  0  0  0  0
 17 46  1  0  0  0  0
 18 20  2  0  0  0  0
 18 47  1  0  0  0  0
 19 21  2  0  0  0  0
 19 48  1  0  0  0  0
 20 21  1  0  0  0  0
 21 49  1  0  0  0  0
 22 50  1  0  0  0  0
 22 51  1  0  0  0  0
 22 52  1  0  0  0  0
 23 24  1  0  0  0  0
 23 53  1  0  0  0  0
 23 54  1  0  0  0  0
 24 25  1  0  0  0  0
 24 55  1  0  0  0  0
 24 56  1  0  0  0  0
 25 26  1  0  0  0  0
 25 57  1  0  0  0  0
 25 58  1  0  0  0  0
 26 59  1  0  0  0  0
 26 60  1  0  0  0  0
 27 28  1  0  0  0  0
 28 29  2  0  0  0  0
 28 30  1  0  0  0  0
 29 31  1  0  0  0  0
 29 62  1  0  0  0  0
 30 33  2  0  0  0  0
 30 63  1  0  0  0  0
 31 32  2  0  0  0  0
 32 33  1  0  0  0  0
 33 64  1  0  0  0  0
 34 65  1  0  0  0  0
M  END
> <PUBCHEM_COMPOUND_CID>
155195287

> <PUBCHEM_COMPOUND_CANONICALIZED>
1

> <PUBCHEM_CACTVS_COMPLEXITY>
670

> <PUBCHEM_CACTVS_HBOND_ACCEPTOR>
7

> <PUBCHEM_CACTVS_HBOND_DONOR>
1

> <PUBCHEM_CACTVS_ROTATABLE_BOND>
9

> <PUBCHEM_CACTVS_SUBSKEYS>
AAADceB7OABAAAAAAAAAAAAAAAAAAWAAAAA8aIEAAAAAAFix9AAAHgQQAAAADDzh3ga2x7PIFAisAyVzVACD+KB1KjhI2L0+bNgOJ7LktZuHOSjl1hHY6Yf82LOOEQABQAAIAQAiAAKAABACAAAAAAAAAA==

> <PUBCHEM_IUPAC_OPENEYE_NAME>
N-[4-[[(4aR,10bR)-4-propyl-3,4a,5,10b-tetrahydro-2H-chromeno[4,3-b][1,4]oxazin-9-yl]oxy]butyl]-1,3-benzothiazole-5-carboxamide

> <PUBCHEM_IUPAC_CAS_NAME>
N-[4-[[(4aR,10bR)-4-propyl-3,4a,5,10b-tetrahydro-2H-[1]benzopyrano[4,3-b][1,4]oxazin-9-yl]oxy]butyl]-1,3-benzothiazole-5-carboxamide

> <PUBCHEM_IUPAC_NAME_MARKUP>
<I>N</I>-[4-[[(4<I>a</I><I>R</I>,10<I>b</I><I>R</I>)-4-propyl-3,4<I>a</I>,5,10<I>b</I>-tetrahydro-2<I>H</I>-chromeno[4,3-b][1,4]oxazin-9-yl]oxy]butyl]-1,3-benzothiazole-5-carboxamide

> <PUBCHEM_IUPAC_NAME>
N-[4-[[(4aR,10bR)-4-propyl-3,4a,5,10b-tetrahydro-2H-chromeno[4,3-b][1,4]oxazin-9-yl]oxy]butyl]-1,3-benzothiazole-5-carboxamide

> <PUBCHEM_IUPAC_SYSTEMATIC_NAME>
N-[4-[[(4aR,10bR)-4-propyl-3,4a,5,10b-tetrahydro-2H-chromeno[4,3-b][1,4]oxazin-9-yl]oxy]butyl]-1,3-benzothiazole-5-carboxamide

> <PUBCHEM_IUPAC_TRADITIONAL_NAME>
N-[4-[[(4aR,10bR)-4-propyl-3,4a,5,10b-tetrahydro-2H-chromeno[4,3-b][1,4]oxazin-9-yl]oxy]butyl]-1,3-benzothiazole-5-carboxamide

> <PUBCHEM_IUPAC_INCHI>
InChI=1S/C26H31N3O4S/c1-2-10-29-11-13-32-25-20-15-19(6-7-23(20)33-16-22(25)29)31-12-4-3-9-27-26(30)18-5-8-24-21(14-18)28-17-34-24/h5-8,14-15,17,22,25H,2-4,9-13,16H2,1H3,(H,27,30)/t22-,25-/m1/s1

> <PUBCHEM_IUPAC_INCHIKEY>
LYLNGHHEGYQUJV-RCZVLFRGSA-N

> <PUBCHEM_XLOGP3>
4.4

> <PUBCHEM_EXACT_MASS>
481.20352765

> <PUBCHEM_MOLECULAR_FORMULA>
C26H31N3O4S

> <PUBCHEM_MOLECULAR_WEIGHT>
481.6

> <PUBCHEM_OPENEYE_CAN_SMILES>
CCCN1CCOC2C1COC3=C2C=C(C=C3)OCCCCNC(=O)C4=CC5=C(C=C4)SC=N5

> <PUBCHEM_OPENEYE_ISO_SMILES>
CCCN1CCO[C@H]2[C@H]1COC3=C2C=C(C=C3)OCCCCNC(=O)C4=CC5=C(C=C4)SC=N5

> <PUBCHEM_CACTVS_TPSA>
101

> <PUBCHEM_MONOISOTOPIC_WEIGHT>
481.20352765

> <PUBCHEM_TOTAL_CHARGE>
0

> <PUBCHEM_HEAVY_ATOM_COUNT>
34

> <PUBCHEM_ATOM_DEF_STEREO_COUNT>
2

> <PUBCHEM_ATOM_UDEF_STEREO_COUNT>
0

> <PUBCHEM_BOND_DEF_STEREO_COUNT>
0

> <PUBCHEM_BOND_UDEF_STEREO_COUNT>
0

> <PUBCHEM_ISOTOPIC_ATOM_COUNT>
0

> <PUBCHEM_COMPONENT_COUNT>
1

> <PUBCHEM_CACTVS_TAUTO_COUNT>
-1

> <PUBCHEM_COORDINATE_TYPE>
1
5
255

> <PUBCHEM_BONDANNOTATIONS>
1  32  8
1  34  8
10  36  5
13  16  8
13  18  8
16  19  8
18  20  8
19  21  8
20  21  8
28  29  8
28  30  8
29  31  8
30  33  8
31  32  8
32  33  8
8  31  8
8  34  8
9  35  6

$$$$
