11511117
  -OEChem-09292322492D

 58 62  0     1  0  0  0  0  0999 V2000
    8.2062    1.7644    0.0000 S   0  0  0  0  0  0  0  0  0  0  0  0
   13.3538    3.3510    0.0000 F   0  0  0  0  0  0  0  0  0  0  0  0
   13.5628    5.3400    0.0000 F   0  0  0  0  0  0  0  0  0  0  0  0
    3.4887   -4.5520    0.0000 O   0  0  0  0  0  0  0  0  0  0  0  0
    5.2062    0.0323    0.0000 N   0  0  3  0  0  0  0  0  0  0  0  0
    2.0949   -3.7472    0.0000 N   0  0  0  0  0  0  0  0  0  0  0  0
    9.7008    2.7349    0.0000 N   0  0  0  0  0  0  0  0  0  0  0  0
    8.2995    3.5439    0.0000 N   0  0  0  0  0  0  0  0  0  0  0  0
    9.0426    4.2131    0.0000 N   0  0  0  0  0  0  0  0  0  0  0  0
    5.7598   -0.7773    0.0000 C   0  0  0  0  0  0  0  0  0  0  0  0
    4.2283    0.1069    0.0000 C   0  0  0  0  0  0  0  0  0  0  0  0
    5.4745   -1.7157    0.0000 C   0  0  0  0  0  0  0  0  0  0  0  0
    3.5583   -0.6094    0.0000 C   0  0  0  0  0  0  0  0  0  0  0  0
    4.5640   -2.0802    0.0000 C   0  0  0  0  0  0  0  0  0  0  0  0
    3.6979   -1.5802    0.0000 C   0  0  0  0  0  0  0  0  0  0  0  0
    5.7062    0.8983    0.0000 C   0  0  0  0  0  0  0  0  0  0  0  0
    6.7062    0.8983    0.0000 C   0  0  0  0  0  0  0  0  0  0  0  0
    4.5640   -3.0802    0.0000 C   0  0  0  0  0  0  0  0  0  0  0  0
    2.8319   -2.0802    0.0000 C   0  0  0  0  0  0  0  0  0  0  0  0
    3.6979   -3.5802    0.0000 C   0  0  0  0  0  0  0  0  0  0  0  0
    2.8319   -3.0802    0.0000 C   0  0  0  0  0  0  0  0  0  0  0  0
    7.2062    1.7644    0.0000 C   0  0  0  0  0  0  0  0  0  0  0  0
    2.5000   -4.6550    0.0000 C   0  0  0  0  0  0  0  0  0  0  0  0
    8.7062    2.6304    0.0000 C   0  0  0  0  0  0  0  0  0  0  0  0
    2.0000   -5.5210    0.0000 C   0  0  0  0  0  0  0  0  0  0  0  0
    9.9087    3.7131    0.0000 C   0  0  0  0  0  0  0  0  0  0  0  0
   10.3699    1.9918    0.0000 C   0  0  0  0  0  0  0  0  0  0  0  0
   10.8222    4.1198    0.0000 C   0  0  0  0  0  0  0  0  0  0  0  0
   11.6312    3.5320    0.0000 C   0  0  0  0  0  0  0  0  0  0  0  0
   10.9267    5.1143    0.0000 C   0  0  0  0  0  0  0  0  0  0  0  0
   12.5448    3.9388    0.0000 C   0  0  0  0  0  0  0  0  0  0  0  0
   11.8403    5.5210    0.0000 C   0  0  0  0  0  0  0  0  0  0  0  0
   12.6493    4.9333    0.0000 C   0  0  0  0  0  0  0  0  0  0  0  0
    6.2977   -1.0856    0.0000 H   0  0  0  0  0  0  0  0  0  0  0  0
    6.1805   -0.3219    0.0000 H   0  0  0  0  0  0  0  0  0  0  0  0
    4.4124    0.6990    0.0000 H   0  0  0  0  0  0  0  0  0  0  0  0
    3.6923    0.4186    0.0000 H   0  0  0  0  0  0  0  0  0  0  0  0
    5.5705   -2.3282    0.0000 H   0  0  0  0  0  0  0  0  0  0  0  0
    6.0930   -1.7590    0.0000 H   0  0  0  0  0  0  0  0  0  0  0  0
    3.2116   -0.0954    0.0000 H   0  0  0  0  0  0  0  0  0  0  0  0
    2.9798   -0.8325    0.0000 H   0  0  0  0  0  0  0  0  0  0  0  0
    5.8139    1.5089    0.0000 H   0  0  0  0  0  0  0  0  0  0  0  0
    5.1236    1.1104    0.0000 H   0  0  0  0  0  0  0  0  0  0  0  0
    6.5986    0.2878    0.0000 H   0  0  0  0  0  0  0  0  0  0  0  0
    7.2888    0.6863    0.0000 H   0  0  0  0  0  0  0  0  0  0  0  0
    5.1009   -3.3902    0.0000 H   0  0  0  0  0  0  0  0  0  0  0  0
    2.2950   -1.7702    0.0000 H   0  0  0  0  0  0  0  0  0  0  0  0
    7.3139    2.3749    0.0000 H   0  0  0  0  0  0  0  0  0  0  0  0
    6.6236    1.9764    0.0000 H   0  0  0  0  0  0  0  0  0  0  0  0
    1.4631   -5.2110    0.0000 H   0  0  0  0  0  0  0  0  0  0  0  0
    1.6900   -6.0580    0.0000 H   0  0  0  0  0  0  0  0  0  0  0  0
    2.5369   -5.8310    0.0000 H   0  0  0  0  0  0  0  0  0  0  0  0
    9.9091    1.5769    0.0000 H   0  0  0  0  0  0  0  0  0  0  0  0
   10.7847    1.5310    0.0000 H   0  0  0  0  0  0  0  0  0  0  0  0
   10.8306    2.4066    0.0000 H   0  0  0  0  0  0  0  0  0  0  0  0
   11.5664    2.9154    0.0000 H   0  0  0  0  0  0  0  0  0  0  0  0
   10.4251    5.4787    0.0000 H   0  0  0  0  0  0  0  0  0  0  0  0
   11.9051    6.1377    0.0000 H   0  0  0  0  0  0  0  0  0  0  0  0
  1 22  1  0  0  0  0
  1 24  1  0  0  0  0
  2 31  1  0  0  0  0
  3 33  1  0  0  0  0
  4 20  1  0  0  0  0
  4 23  1  0  0  0  0
  5 10  1  0  0  0  0
  5 11  1  0  0  0  0
  5 16  1  0  0  0  0
  6 21  1  0  0  0  0
  6 23  2  0  0  0  0
  7 24  1  0  0  0  0
  7 26  1  0  0  0  0
  7 27  1  0  0  0  0
  8  9  1  0  0  0  0
  8 24  2  0  0  0  0
  9 26  2  0  0  0  0
 10 12  1  0  0  0  0
 10 34  1  0  0  0  0
 10 35  1  0  0  0  0
 11 13  1  0  0  0  0
 11 36  1  0  0  0  0
 11 37  1  0  0  0  0
 12 14  1  0  0  0  0
 12 38  1  0  0  0  0
 12 39  1  0  0  0  0
 13 15  1  0  0  0  0
 13 40  1  0  0  0  0
 13 41  1  0  0  0  0
 14 15  1  0  0  0  0
 14 18  2  0  0  0  0
 15 19  2  0  0  0  0
 16 17  1  0  0  0  0
 16 42  1  0  0  0  0
 16 43  1  0  0  0  0
 17 22  1  0  0  0  0
 17 44  1  0  0  0  0
 17 45  1  0  0  0  0
 18 20  1  0  0  0  0
 18 46  1  0  0  0  0
 19 21  1  0  0  0  0
 19 47  1  0  0  0  0
 20 21  2  0  0  0  0
 22 48  1  0  0  0  0
 22 49  1  0  0  0  0
 23 25  1  0  0  0  0
 25 50  1  0  0  0  0
 25 51  1  0  0  0  0
 25 52  1  0  0  0  0
 26 28  1  0  0  0  0
 27 53  1  0  0  0  0
 27 54  1  0  0  0  0
 27 55  1  0  0  0  0
 28 29  2  0  0  0  0
 28 30  1  0  0  0  0
 29 31  1  0  0  0  0
 29 56  1  0  0  0  0
 30 32  2  0  0  0  0
 30 57  1  0  0  0  0
 31 33  2  0  0  0  0
 32 33  1  0  0  0  0
 32 58  1  0  0  0  0
M  END
> <PUBCHEM_COMPOUND_CID>
11511117

> <PUBCHEM_COMPOUND_CANONICALIZED>
1

> <PUBCHEM_CACTVS_COMPLEXITY>
650

> <PUBCHEM_CACTVS_HBOND_ACCEPTOR>
8

> <PUBCHEM_CACTVS_HBOND_DONOR>
0

> <PUBCHEM_CACTVS_ROTATABLE_BOND>
6

> <PUBCHEM_CACTVS_SUBSKEYS>
AAADceB7oYBAAAAAAAAAAAAAAAAAAWLAAAAwYAAABYAAAFgB/AAAHwQIAAAADAzF3wyz1rcMFEiqA6dydASS2CtvYrAd2CG/bNiOLrLkvbuPOSjkzBPY6YeY2bKOqAABQAAQEABQAAKAACAgAAAAAAAAAA==

> <PUBCHEM_IUPAC_OPENEYE_NAME>
7-[3-[[5-(3,4-difluorophenyl)-4-methyl-1,2,4-triazol-3-yl]sulfanyl]propyl]-2-methyl-5,6,8,9-tetrahydrooxazolo[4,5-h][3]benzazepine

> <PUBCHEM_IUPAC_CAS_NAME>
7-[3-[[5-(3,4-difluorophenyl)-4-methyl-1,2,4-triazol-3-yl]thio]propyl]-2-methyl-5,6,8,9-tetrahydrooxazolo[4,5-h][3]benzazepine

> <PUBCHEM_IUPAC_NAME_MARKUP>
7-[3-[[5-(3,4-difluorophenyl)-4-methyl-1,2,4-triazol-3-yl]sulfanyl]propyl]-2-methyl-5,6,8,9-tetrahydro-[1,3]oxazolo[4,5-h][3]benzazepine

> <PUBCHEM_IUPAC_NAME>
7-[3-[[5-(3,4-difluorophenyl)-4-methyl-1,2,4-triazol-3-yl]sulfanyl]propyl]-2-methyl-5,6,8,9-tetrahydro-[1,3]oxazolo[4,5-h][3]benzazepine

> <PUBCHEM_IUPAC_SYSTEMATIC_NAME>
7-[3-[[5-[3,4-bis(fluoranyl)phenyl]-4-methyl-1,2,4-triazol-3-yl]sulfanyl]propyl]-2-methyl-5,6,8,9-tetrahydro-[1,3]oxazolo[4,5-h][3]benzazepine

> <PUBCHEM_IUPAC_TRADITIONAL_NAME>
7-[3-[[5-(3,4-difluorophenyl)-4-methyl-1,2,4-triazol-3-yl]thio]propyl]-2-methyl-5,6,8,9-tetrahydrooxazolo[4,5-h][3]benzazepine

> <PUBCHEM_IUPAC_INCHI>
InChI=1S/C24H25F2N5OS/c1-15-27-21-13-16-6-9-31(10-7-17(16)14-22(21)32-15)8-3-11-33-24-29-28-23(30(24)2)18-4-5-19(25)20(26)12-18/h4-5,12-14H,3,6-11H2,1-2H3

> <PUBCHEM_IUPAC_INCHIKEY>
ZTSFFHIKWHSHGP-UHFFFAOYSA-N

> <PUBCHEM_XLOGP3_AA>
4.8

> <PUBCHEM_EXACT_MASS>
469.17478794

> <PUBCHEM_MOLECULAR_FORMULA>
C24H25F2N5OS

> <PUBCHEM_MOLECULAR_WEIGHT>
469.6

> <PUBCHEM_OPENEYE_CAN_SMILES>
CC1=NC2=C(O1)C=C3CCN(CCC3=C2)CCCSC4=NN=C(N4C)C5=CC(=C(C=C5)F)F

> <PUBCHEM_OPENEYE_ISO_SMILES>
CC1=NC2=C(O1)C=C3CCN(CCC3=C2)CCCSC4=NN=C(N4C)C5=CC(=C(C=C5)F)F

> <PUBCHEM_CACTVS_TPSA>
85.3

> <PUBCHEM_MONOISOTOPIC_WEIGHT>
469.17478794

> <PUBCHEM_TOTAL_CHARGE>
0

> <PUBCHEM_HEAVY_ATOM_COUNT>
33

> <PUBCHEM_ATOM_DEF_STEREO_COUNT>
0

> <PUBCHEM_ATOM_UDEF_STEREO_COUNT>
0

> <PUBCHEM_BOND_DEF_STEREO_COUNT>
0

> <PUBCHEM_BOND_UDEF_STEREO_COUNT>
0

> <PUBCHEM_ISOTOPIC_ATOM_COUNT>
0

> <PUBCHEM_COMPONENT_COUNT>
1

> <PUBCHEM_CACTVS_TAUTO_COUNT>
-1

> <PUBCHEM_COORDINATE_TYPE>
1
5
255

> <PUBCHEM_BONDANNOTATIONS>
14  15  8
14  18  8
15  19  8
18  20  8
19  21  8
20  21  8
28  29  8
28  30  8
29  31  8
30  32  8
31  33  8
32  33  8
4  20  8
4  23  8
6  21  8
6  23  8
7  24  8
7  26  8
8  24  8
8  9  8
9  26  8

$$$$
