44251389
  -OEChem-09292322072D

 45 48  0     0  0  0  0  0  0999 V2000
    5.1871   -0.6357    0.0000 O   0  0  0  0  0  0  0  0  0  0  0  0
    8.0761    2.6283    0.0000 O   0  0  0  0  0  0  0  0  0  0  0  0
    5.5443   -3.9400    0.0000 N   0  0  0  0  0  0  0  0  0  0  0  0
    6.8335   -1.1738    0.0000 N   0  0  0  0  0  0  0  0  0  0  0  0
    6.7870    1.4715    0.0000 N   0  0  0  0  0  0  0  0  0  0  0  0
   10.3438    3.9912    0.0000 N   0  0  0  0  0  0  0  0  0  0  0  0
    4.5981   -2.6353    0.0000 C   0  0  0  0  0  0  0  0  0  0  0  0
    4.5981   -3.6353    0.0000 C   0  0  0  0  0  0  0  0  0  0  0  0
    5.5443   -2.3305    0.0000 C   0  0  0  0  0  0  0  0  0  0  0  0
    3.7320   -4.1353    0.0000 C   0  0  0  0  0  0  0  0  0  0  0  0
    6.1279   -3.1353    0.0000 C   0  0  0  0  0  0  0  0  0  0  0  0
    3.7320   -2.1353    0.0000 C   0  0  0  0  0  0  0  0  0  0  0  0
    2.8660   -3.6353    0.0000 C   0  0  0  0  0  0  0  0  0  0  0  0
    2.8660   -2.6353    0.0000 C   0  0  0  0  0  0  0  0  0  0  0  0
    5.8550   -1.3800    0.0000 C   0  0  0  0  0  0  0  0  0  0  0  0
    2.0000   -4.1353    0.0000 C   0  0  0  0  0  0  0  0  0  0  0  0
    7.1441   -0.2233    0.0000 C   0  0  0  0  0  0  0  0  0  0  0  0
    8.1226   -0.0171    0.0000 C   0  0  0  0  0  0  0  0  0  0  0  0
    6.4763    0.5210    0.0000 C   0  0  0  0  0  0  0  0  0  0  0  0
    7.7654    1.6778    0.0000 C   0  0  0  0  0  0  0  0  0  0  0  0
    8.4333    0.9335    0.0000 C   0  0  0  0  0  0  0  0  0  0  0  0
    9.0546    2.8345    0.0000 C   0  0  0  0  0  0  0  0  0  0  0  0
    9.3653    3.7850    0.0000 C   0  0  0  0  0  0  0  0  0  0  0  0
    9.7225    2.0902    0.0000 C   0  0  0  0  0  0  0  0  0  0  0  0
    8.6974    4.5293    0.0000 C   0  0  0  0  0  0  0  0  0  0  0  0
   10.7010    2.2964    0.0000 C   0  0  0  0  0  0  0  0  0  0  0  0
   11.0116    3.2469    0.0000 C   0  0  0  0  0  0  0  0  0  0  0  0
    5.7369   -4.5293    0.0000 H   0  0  0  0  0  0  0  0  0  0  0  0
    3.7320   -4.7553    0.0000 H   0  0  0  0  0  0  0  0  0  0  0  0
    6.7479   -3.1353    0.0000 H   0  0  0  0  0  0  0  0  0  0  0  0
    3.7320   -1.5153    0.0000 H   0  0  0  0  0  0  0  0  0  0  0  0
    2.3291   -2.3253    0.0000 H   0  0  0  0  0  0  0  0  0  0  0  0
    1.6900   -3.5983    0.0000 H   0  0  0  0  0  0  0  0  0  0  0  0
    1.4631   -4.4453    0.0000 H   0  0  0  0  0  0  0  0  0  0  0  0
    2.3100   -4.6722    0.0000 H   0  0  0  0  0  0  0  0  0  0  0  0
    7.2475   -1.6353    0.0000 H   0  0  0  0  0  0  0  0  0  0  0  0
    8.5367   -0.4785    0.0000 H   0  0  0  0  0  0  0  0  0  0  0  0
    5.8696    0.3932    0.0000 H   0  0  0  0  0  0  0  0  0  0  0  0
    9.0400    1.0613    0.0000 H   0  0  0  0  0  0  0  0  0  0  0  0
    9.5298    1.5009    0.0000 H   0  0  0  0  0  0  0  0  0  0  0  0
    9.1589    4.9434    0.0000 H   0  0  0  0  0  0  0  0  0  0  0  0
    8.2834    4.9908    0.0000 H   0  0  0  0  0  0  0  0  0  0  0  0
    8.2360    4.1153    0.0000 H   0  0  0  0  0  0  0  0  0  0  0  0
   11.1150    1.8350    0.0000 H   0  0  0  0  0  0  0  0  0  0  0  0
   11.6183    3.3748    0.0000 H   0  0  0  0  0  0  0  0  0  0  0  0
  1 15  2  0  0  0  0
  2 20  1  0  0  0  0
  2 22  1  0  0  0  0
  3  8  1  0  0  0  0
  3 11  1  0  0  0  0
  3 28  1  0  0  0  0
  4 15  1  0  0  0  0
  4 17  1  0  0  0  0
  4 36  1  0  0  0  0
  5 19  1  0  0  0  0
  5 20  2  0  0  0  0
  6 23  1  0  0  0  0
  6 27  2  0  0  0  0
  7  8  2  0  0  0  0
  7  9  1  0  0  0  0
  7 12  1  0  0  0  0
  8 10  1  0  0  0  0
  9 11  2  0  0  0  0
  9 15  1  0  0  0  0
 10 13  2  0  0  0  0
 10 29  1  0  0  0  0
 11 30  1  0  0  0  0
 12 14  2  0  0  0  0
 12 31  1  0  0  0  0
 13 14  1  0  0  0  0
 13 16  1  0  0  0  0
 14 32  1  0  0  0  0
 16 33  1  0  0  0  0
 16 34  1  0  0  0  0
 16 35  1  0  0  0  0
 17 18  1  0  0  0  0
 17 19  2  0  0  0  0
 18 21  2  0  0  0  0
 18 37  1  0  0  0  0
 19 38  1  0  0  0  0
 20 21  1  0  0  0  0
 21 39  1  0  0  0  0
 22 23  2  0  0  0  0
 22 24  1  0  0  0  0
 23 25  1  0  0  0  0
 24 26  2  0  0  0  0
 24 40  1  0  0  0  0
 25 41  1  0  0  0  0
 25 42  1  0  0  0  0
 25 43  1  0  0  0  0
 26 27  1  0  0  0  0
 26 44  1  0  0  0  0
 27 45  1  0  0  0  0
M  END
> <PUBCHEM_COMPOUND_CID>
44251389

> <PUBCHEM_COMPOUND_CANONICALIZED>
1

> <PUBCHEM_CACTVS_COMPLEXITY>
516

> <PUBCHEM_CACTVS_HBOND_ACCEPTOR>
4

> <PUBCHEM_CACTVS_HBOND_DONOR>
2

> <PUBCHEM_CACTVS_ROTATABLE_BOND>
4

> <PUBCHEM_CACTVS_SUBSKEYS>
AAADceB7sAAAAAAAAAAAAAAAAAAAAWAAAAA8WIAAAAAAAFgB/gAAHgAQAAAADAzBngQ+xvLJlACoAzV3VASCiCA1ciAI2aE/fNgOZvrE9ZufOajk1BHY6ce8mMCOwAAAQAACAACAAACAAAQAAAAAAAAAAA==

> <PUBCHEM_IUPAC_OPENEYE_NAME>
6-methyl-N-[6-[(2-methyl-3-pyridyl)oxy]-3-pyridyl]-1H-indole-3-carboxamide

> <PUBCHEM_IUPAC_CAS_NAME>
6-methyl-N-[6-[(2-methyl-3-pyridinyl)oxy]-3-pyridinyl]-1H-indole-3-carboxamide

> <PUBCHEM_IUPAC_NAME_MARKUP>
6-methyl-<I>N</I>-[6-(2-methylpyridin-3-yl)oxypyridin-3-yl]-1<I>H</I>-indole-3-carboxamide

> <PUBCHEM_IUPAC_NAME>
6-methyl-N-[6-(2-methylpyridin-3-yl)oxypyridin-3-yl]-1H-indole-3-carboxamide

> <PUBCHEM_IUPAC_SYSTEMATIC_NAME>
6-methyl-N-[6-(2-methylpyridin-3-yl)oxypyridin-3-yl]-1H-indole-3-carboxamide

> <PUBCHEM_IUPAC_TRADITIONAL_NAME>
6-methyl-N-[6-[(2-methyl-3-pyridyl)oxy]-3-pyridyl]-1H-indole-3-carboxamide

> <PUBCHEM_IUPAC_INCHI>
InChI=1S/C21H18N4O2/c1-13-5-7-16-17(12-23-18(16)10-13)21(26)25-15-6-8-20(24-11-15)27-19-4-3-9-22-14(19)2/h3-12,23H,1-2H3,(H,25,26)

> <PUBCHEM_IUPAC_INCHIKEY>
IVCPUOLRERPDSF-UHFFFAOYSA-N

> <PUBCHEM_XLOGP3_AA>
3.4

> <PUBCHEM_EXACT_MASS>
358.14297583

> <PUBCHEM_MOLECULAR_FORMULA>
C21H18N4O2

> <PUBCHEM_MOLECULAR_WEIGHT>
358.4

> <PUBCHEM_OPENEYE_CAN_SMILES>
CC1=CC2=C(C=C1)C(=CN2)C(=O)NC3=CN=C(C=C3)OC4=C(N=CC=C4)C

> <PUBCHEM_OPENEYE_ISO_SMILES>
CC1=CC2=C(C=C1)C(=CN2)C(=O)NC3=CN=C(C=C3)OC4=C(N=CC=C4)C

> <PUBCHEM_CACTVS_TPSA>
79.9

> <PUBCHEM_MONOISOTOPIC_WEIGHT>
358.14297583

> <PUBCHEM_TOTAL_CHARGE>
0

> <PUBCHEM_HEAVY_ATOM_COUNT>
27

> <PUBCHEM_ATOM_DEF_STEREO_COUNT>
0

> <PUBCHEM_ATOM_UDEF_STEREO_COUNT>
0

> <PUBCHEM_BOND_DEF_STEREO_COUNT>
0

> <PUBCHEM_BOND_UDEF_STEREO_COUNT>
0

> <PUBCHEM_ISOTOPIC_ATOM_COUNT>
0

> <PUBCHEM_COMPONENT_COUNT>
1

> <PUBCHEM_CACTVS_TAUTO_COUNT>
-1

> <PUBCHEM_COORDINATE_TYPE>
1
5
255

> <PUBCHEM_BONDANNOTATIONS>
10  13  8
12  14  8
13  14  8
17  18  8
17  19  8
18  21  8
20  21  8
22  23  8
22  24  8
24  26  8
26  27  8
3  11  8
3  8  8
5  19  8
5  20  8
6  23  8
6  27  8
7  12  8
7  8  8
7  9  8
8  10  8
9  11  8

$$$$
