44447008
  -OEChem-09292322262D

 65 70  0     1  0  0  0  0  0999 V2000
    3.7899    1.7914    0.0000 S   0  0  0  0  0  0  0  0  0  0  0  0
   14.6962   -0.6893    0.0000 O   0  0  0  0  0  0  0  0  0  0  0  0
    7.4629   -0.9065    0.0000 N   0  0  0  0  0  0  0  0  0  0  0  0
    5.7308    0.0935    0.0000 N   0  0  0  0  0  0  0  0  0  0  0  0
   13.0499   -0.1513    0.0000 N   0  0  0  0  0  0  0  0  0  0  0  0
    4.7617    1.5822    0.0000 N   0  0  0  0  0  0  0  0  0  0  0  0
   12.7392   -1.1018    0.0000 C   0  0  3  0  0  0  0  0  0  0  0  0
   11.7930   -1.4065    0.0000 C   0  0  0  0  0  0  0  0  0  0  0  0
   13.3228   -1.9065    0.0000 C   0  0  0  0  0  0  0  0  0  0  0  0
   12.7392   -2.7112    0.0000 C   0  0  0  0  0  0  0  0  0  0  0  0
   11.7930   -2.4065    0.0000 C   0  0  0  0  0  0  0  0  0  0  0  0
    7.4629    0.0935    0.0000 C   0  0  0  0  0  0  0  0  0  0  0  0
    6.5968   -1.4065    0.0000 C   0  0  0  0  0  0  0  0  0  0  0  0
    8.3289   -1.4065    0.0000 C   0  0  0  0  0  0  0  0  0  0  0  0
    6.5968    0.5935    0.0000 C   0  0  0  0  0  0  0  0  0  0  0  0
    5.7308   -0.9065    0.0000 C   0  0  0  0  0  0  0  0  0  0  0  0
    9.1949   -0.9065    0.0000 C   0  0  0  0  0  0  0  0  0  0  0  0
   10.0610   -1.4065    0.0000 C   0  0  0  0  0  0  0  0  0  0  0  0
   10.9270   -0.9065    0.0000 C   0  0  0  0  0  0  0  0  0  0  0  0
   10.9270   -2.9065    0.0000 C   0  0  0  0  0  0  0  0  0  0  0  0
   10.0610   -2.4065    0.0000 C   0  0  0  0  0  0  0  0  0  0  0  0
    4.8648    0.5935    0.0000 C   0  0  0  0  0  0  0  0  0  0  0  0
    3.9570    0.1884    0.0000 C   0  0  0  0  0  0  0  0  0  0  0  0
   14.0284    0.0550    0.0000 C   0  0  0  0  0  0  0  0  0  0  0  0
    3.2892    0.9327    0.0000 C   0  0  0  0  0  0  0  0  0  0  0  0
   14.3391    1.0055    0.0000 C   0  0  0  0  0  0  0  0  0  0  0  0
    3.6464   -0.7622    0.0000 C   0  0  0  0  0  0  0  0  0  0  0  0
    2.3107    0.7265    0.0000 C   0  0  0  0  0  0  0  0  0  0  0  0
    2.6678   -0.9684    0.0000 C   0  0  0  0  0  0  0  0  0  0  0  0
    2.0000   -0.2241    0.0000 C   0  0  0  0  0  0  0  0  0  0  0  0
   15.3176    1.2117    0.0000 C   0  0  0  0  0  0  0  0  0  0  0  0
   13.6712    1.7498    0.0000 C   0  0  0  0  0  0  0  0  0  0  0  0
   15.6282    2.1622    0.0000 C   0  0  0  0  0  0  0  0  0  0  0  0
   13.9819    2.7003    0.0000 C   0  0  0  0  0  0  0  0  0  0  0  0
   14.9604    2.9065    0.0000 C   0  0  0  0  0  0  0  0  0  0  0  0
   13.3517   -1.0056    0.0000 H   0  0  0  0  0  0  0  0  0  0  0  0
   13.7837   -2.3212    0.0000 H   0  0  0  0  0  0  0  0  0  0  0  0
   13.7837   -1.4918    0.0000 H   0  0  0  0  0  0  0  0  0  0  0  0
   12.4882   -3.2782    0.0000 H   0  0  0  0  0  0  0  0  0  0  0  0
   13.2766   -3.0205    0.0000 H   0  0  0  0  0  0  0  0  0  0  0  0
    8.0734   -0.0142    0.0000 H   0  0  0  0  0  0  0  0  0  0  0  0
    7.6749    0.6761    0.0000 H   0  0  0  0  0  0  0  0  0  0  0  0
    6.1983   -1.8815    0.0000 H   0  0  0  0  0  0  0  0  0  0  0  0
    6.9954   -1.8815    0.0000 H   0  0  0  0  0  0  0  0  0  0  0  0
    7.9304   -1.8815    0.0000 H   0  0  0  0  0  0  0  0  0  0  0  0
    8.7274   -1.8815    0.0000 H   0  0  0  0  0  0  0  0  0  0  0  0
    6.9954    1.0684    0.0000 H   0  0  0  0  0  0  0  0  0  0  0  0
    6.1983    1.0684    0.0000 H   0  0  0  0  0  0  0  0  0  0  0  0
    5.1202   -0.7989    0.0000 H   0  0  0  0  0  0  0  0  0  0  0  0
    5.5188   -1.4891    0.0000 H   0  0  0  0  0  0  0  0  0  0  0  0
    9.5934   -0.4316    0.0000 H   0  0  0  0  0  0  0  0  0  0  0  0
    8.7964   -0.4316    0.0000 H   0  0  0  0  0  0  0  0  0  0  0  0
   10.9270   -0.2865    0.0000 H   0  0  0  0  0  0  0  0  0  0  0  0
   10.9270   -3.5265    0.0000 H   0  0  0  0  0  0  0  0  0  0  0  0
    9.5240   -2.7165    0.0000 H   0  0  0  0  0  0  0  0  0  0  0  0
   12.6358    0.3102    0.0000 H   0  0  0  0  0  0  0  0  0  0  0  0
    4.0604   -1.2236    0.0000 H   0  0  0  0  0  0  0  0  0  0  0  0
    1.8966    1.1879    0.0000 H   0  0  0  0  0  0  0  0  0  0  0  0
    2.4752   -1.5577    0.0000 H   0  0  0  0  0  0  0  0  0  0  0  0
    1.3933   -0.3519    0.0000 H   0  0  0  0  0  0  0  0  0  0  0  0
   15.7316    0.7502    0.0000 H   0  0  0  0  0  0  0  0  0  0  0  0
   13.0645    1.6219    0.0000 H   0  0  0  0  0  0  0  0  0  0  0  0
   16.2349    2.2901    0.0000 H   0  0  0  0  0  0  0  0  0  0  0  0
   13.5678    3.1618    0.0000 H   0  0  0  0  0  0  0  0  0  0  0  0
   15.1530    3.4958    0.0000 H   0  0  0  0  0  0  0  0  0  0  0  0
  1  6  1  0  0  0  0
  1 25  1  0  0  0  0
  2 24  2  0  0  0  0
  3 12  1  0  0  0  0
  3 13  1  0  0  0  0
  3 14  1  0  0  0  0
  4 15  1  0  0  0  0
  4 16  1  0  0  0  0
  4 22  1  0  0  0  0
  5  7  1  0  0  0  0
  5 24  1  0  0  0  0
  5 56  1  0  0  0  0
  6 22  2  0  0  0  0
  7  8  1  0  0  0  0
  7  9  1  0  0  0  0
  7 36  1  0  0  0  0
  8 11  2  0  0  0  0
  8 19  1  0  0  0  0
  9 10  1  0  0  0  0
  9 37  1  0  0  0  0
  9 38  1  0  0  0  0
 10 11  1  0  0  0  0
 10 39  1  0  0  0  0
 10 40  1  0  0  0  0
 11 20  1  0  0  0  0
 12 15  1  0  0  0  0
 12 41  1  0  0  0  0
 12 42  1  0  0  0  0
 13 16  1  0  0  0  0
 13 43  1  0  0  0  0
 13 44  1  0  0  0  0
 14 17  1  0  0  0  0
 14 45  1  0  0  0  0
 14 46  1  0  0  0  0
 15 47  1  0  0  0  0
 15 48  1  0  0  0  0
 16 49  1  0  0  0  0
 16 50  1  0  0  0  0
 17 18  1  0  0  0  0
 17 51  1  0  0  0  0
 17 52  1  0  0  0  0
 18 19  2  0  0  0  0
 18 21  1  0  0  0  0
 19 53  1  0  0  0  0
 20 21  2  0  0  0  0
 20 54  1  0  0  0  0
 21 55  1  0  0  0  0
 22 23  1  0  0  0  0
 23 25  1  0  0  0  0
 23 27  2  0  0  0  0
 24 26  1  0  0  0  0
 25 28  2  0  0  0  0
 26 31  2  0  0  0  0
 26 32  1  0  0  0  0
 27 29  1  0  0  0  0
 27 57  1  0  0  0  0
 28 30  1  0  0  0  0
 28 58  1  0  0  0  0
 29 30  2  0  0  0  0
 29 59  1  0  0  0  0
 30 60  1  0  0  0  0
 31 33  1  0  0  0  0
 31 61  1  0  0  0  0
 32 34  2  0  0  0  0
 32 62  1  0  0  0  0
 33 35  2  0  0  0  0
 33 63  1  0  0  0  0
 34 35  1  0  0  0  0
 34 64  1  0  0  0  0
 35 65  1  0  0  0  0
M  END
> <PUBCHEM_COMPOUND_CID>
44447008

> <PUBCHEM_COMPOUND_CANONICALIZED>
1

> <PUBCHEM_CACTVS_COMPLEXITY>
707

> <PUBCHEM_CACTVS_HBOND_ACCEPTOR>
5

> <PUBCHEM_CACTVS_HBOND_DONOR>
1

> <PUBCHEM_CACTVS_ROTATABLE_BOND>
6

> <PUBCHEM_CACTVS_SUBSKEYS>
AAADceB7oABAAAAAAAAAAAAAAAAAAeIAAAA8YMEAAAAAAHgB9AAAHgQQQAAADCjB2gQxsdPAAACsAiNycACDABAlAABJmLkoRNiIYLLAnZGUIQxglgLIyYcYiMCOwAACAAAUAACAAAQAACgAACAACQAAAA==

> <PUBCHEM_IUPAC_OPENEYE_NAME>
N-[6-[2-[4-(1,2-benzothiazol-3-yl)piperazin-1-yl]ethyl]indan-1-yl]benzamide

> <PUBCHEM_IUPAC_CAS_NAME>
N-[6-[2-[4-(1,2-benzothiazol-3-yl)-1-piperazinyl]ethyl]-2,3-dihydro-1H-inden-1-yl]benzamide

> <PUBCHEM_IUPAC_NAME_MARKUP>
<I>N</I>-[6-[2-[4-(1,2-benzothiazol-3-yl)piperazin-1-yl]ethyl]-2,3-dihydro-1<I>H</I>-inden-1-yl]benzamide

> <PUBCHEM_IUPAC_NAME>
N-[6-[2-[4-(1,2-benzothiazol-3-yl)piperazin-1-yl]ethyl]-2,3-dihydro-1H-inden-1-yl]benzamide

> <PUBCHEM_IUPAC_SYSTEMATIC_NAME>
N-[6-[2-[4-(1,2-benzothiazol-3-yl)piperazin-1-yl]ethyl]-2,3-dihydro-1H-inden-1-yl]benzamide

> <PUBCHEM_IUPAC_TRADITIONAL_NAME>
N-[6-[2-[4-(1,2-benzothiazol-3-yl)piperazino]ethyl]indan-1-yl]benzamide

> <PUBCHEM_IUPAC_INCHI>
InChI=1S/C29H30N4OS/c34-29(23-6-2-1-3-7-23)30-26-13-12-22-11-10-21(20-25(22)26)14-15-32-16-18-33(19-17-32)28-24-8-4-5-9-27(24)35-31-28/h1-11,20,26H,12-19H2,(H,30,34)

> <PUBCHEM_IUPAC_INCHIKEY>
AXDZGPVPBMNCMT-UHFFFAOYSA-N

> <PUBCHEM_XLOGP3_AA>
5.7

> <PUBCHEM_EXACT_MASS>
482.21403277

> <PUBCHEM_MOLECULAR_FORMULA>
C29H30N4OS

> <PUBCHEM_MOLECULAR_WEIGHT>
482.6

> <PUBCHEM_OPENEYE_CAN_SMILES>
C1CC2=C(C1NC(=O)C3=CC=CC=C3)C=C(C=C2)CCN4CCN(CC4)C5=NSC6=CC=CC=C65

> <PUBCHEM_OPENEYE_ISO_SMILES>
C1CC2=C(C1NC(=O)C3=CC=CC=C3)C=C(C=C2)CCN4CCN(CC4)C5=NSC6=CC=CC=C65

> <PUBCHEM_CACTVS_TPSA>
76.7

> <PUBCHEM_MONOISOTOPIC_WEIGHT>
482.21403277

> <PUBCHEM_TOTAL_CHARGE>
0

> <PUBCHEM_HEAVY_ATOM_COUNT>
35

> <PUBCHEM_ATOM_DEF_STEREO_COUNT>
0

> <PUBCHEM_ATOM_UDEF_STEREO_COUNT>
1

> <PUBCHEM_BOND_DEF_STEREO_COUNT>
0

> <PUBCHEM_BOND_UDEF_STEREO_COUNT>
0

> <PUBCHEM_ISOTOPIC_ATOM_COUNT>
0

> <PUBCHEM_COMPONENT_COUNT>
1

> <PUBCHEM_CACTVS_TAUTO_COUNT>
-1

> <PUBCHEM_COORDINATE_TYPE>
1
5
255

> <PUBCHEM_BONDANNOTATIONS>
1  25  8
1  6  8
11  20  8
18  19  8
18  21  8
20  21  8
22  23  8
23  25  8
23  27  8
25  28  8
26  31  8
26  32  8
27  29  8
28  30  8
29  30  8
31  33  8
32  34  8
33  35  8
34  35  8
7  5  3
6  22  8
8  11  8
8  19  8

$$$$
