71151870
  -OEChem-09292322352D

 67 71  0     0  0  0  0  0  0999 V2000
   10.6350   -6.0210    0.0000 F   0  0  0  0  0  0  0  0  0  0  0  0
    2.8660    3.5591    0.0000 O   0  0  0  0  0  0  0  0  0  0  0  0
    4.5981    3.5591    0.0000 O   0  0  0  0  0  0  0  0  0  0  0  0
    4.5981    0.5591    0.0000 N   0  0  0  0  0  0  0  0  0  0  0  0
    4.5981   -1.4409    0.0000 N   0  0  0  0  0  0  0  0  0  0  0  0
    6.4103   -4.2456    0.0000 N   0  0  0  0  0  0  0  0  0  0  0  0
    5.4641    5.0591    0.0000 N   0  0  0  0  0  0  0  0  0  0  0  0
    3.7320    0.0591    0.0000 C   0  0  0  0  0  0  0  0  0  0  0  0
    5.4641    0.0591    0.0000 C   0  0  0  0  0  0  0  0  0  0  0  0
    3.7320   -0.9409    0.0000 C   0  0  0  0  0  0  0  0  0  0  0  0
    5.4641   -0.9409    0.0000 C   0  0  0  0  0  0  0  0  0  0  0  0
    4.5981    1.5591    0.0000 C   0  0  0  0  0  0  0  0  0  0  0  0
    4.5981   -2.4409    0.0000 C   0  0  0  0  0  0  0  0  0  0  0  0
    5.4641   -2.9409    0.0000 C   0  0  0  0  0  0  0  0  0  0  0  0
    3.7320    2.0591    0.0000 C   0  0  0  0  0  0  0  0  0  0  0  0
    5.4641   -3.9409    0.0000 C   0  0  0  0  0  0  0  0  0  0  0  0
    3.7320   -2.9409    0.0000 C   0  0  0  0  0  0  0  0  0  0  0  0
    6.4103   -2.6362    0.0000 C   0  0  0  0  0  0  0  0  0  0  0  0
    3.7320    3.0591    0.0000 C   0  0  0  0  0  0  0  0  0  0  0  0
    4.5981   -4.4409    0.0000 C   0  0  0  0  0  0  0  0  0  0  0  0
    6.9939   -3.4409    0.0000 C   0  0  0  0  0  0  0  0  0  0  0  0
    3.7320   -3.9409    0.0000 C   0  0  0  0  0  0  0  0  0  0  0  0
    6.7210   -5.1962    0.0000 C   0  0  0  0  0  0  0  0  0  0  0  0
    7.6995   -5.4024    0.0000 C   0  0  0  0  0  0  0  0  0  0  0  0
    8.3673   -4.6581    0.0000 C   0  0  0  0  0  0  0  0  0  0  0  0
    8.0102   -6.3529    0.0000 C   0  0  0  0  0  0  0  0  0  0  0  0
    2.8660    4.5591    0.0000 C   0  0  0  0  0  0  0  0  0  0  0  0
    9.3458   -4.8643    0.0000 C   0  0  0  0  0  0  0  0  0  0  0  0
    8.9887   -6.5591    0.0000 C   0  0  0  0  0  0  0  0  0  0  0  0
    3.7320    5.0591    0.0000 C   0  0  0  0  0  0  0  0  0  0  0  0
    2.0000    5.0591    0.0000 C   0  0  0  0  0  0  0  0  0  0  0  0
    9.6565   -5.8148    0.0000 C   0  0  0  0  0  0  0  0  0  0  0  0
    3.7320    6.0591    0.0000 C   0  0  0  0  0  0  0  0  0  0  0  0
    2.0000    6.0591    0.0000 C   0  0  0  0  0  0  0  0  0  0  0  0
    2.8660    6.5591    0.0000 C   0  0  0  0  0  0  0  0  0  0  0  0
    4.5981    4.5591    0.0000 C   0  0  0  0  0  0  0  0  0  0  0  0
    3.5200    0.6417    0.0000 H   0  0  0  0  0  0  0  0  0  0  0  0
    3.1215   -0.0486    0.0000 H   0  0  0  0  0  0  0  0  0  0  0  0
    6.0747   -0.0486    0.0000 H   0  0  0  0  0  0  0  0  0  0  0  0
    5.6762    0.6417    0.0000 H   0  0  0  0  0  0  0  0  0  0  0  0
    3.1215   -0.8332    0.0000 H   0  0  0  0  0  0  0  0  0  0  0  0
    3.5200   -1.5235    0.0000 H   0  0  0  0  0  0  0  0  0  0  0  0
    5.6762   -1.5235    0.0000 H   0  0  0  0  0  0  0  0  0  0  0  0
    6.0747   -0.8332    0.0000 H   0  0  0  0  0  0  0  0  0  0  0  0
    5.2087    1.4514    0.0000 H   0  0  0  0  0  0  0  0  0  0  0  0
    4.8101    2.1417    0.0000 H   0  0  0  0  0  0  0  0  0  0  0  0
    3.1215    2.1668    0.0000 H   0  0  0  0  0  0  0  0  0  0  0  0
    3.5200    1.4765    0.0000 H   0  0  0  0  0  0  0  0  0  0  0  0
    3.1951   -2.6309    0.0000 H   0  0  0  0  0  0  0  0  0  0  0  0
    6.6029   -2.0468    0.0000 H   0  0  0  0  0  0  0  0  0  0  0  0
    4.3426    2.9514    0.0000 H   0  0  0  0  0  0  0  0  0  0  0  0
    3.9441    3.6417    0.0000 H   0  0  0  0  0  0  0  0  0  0  0  0
    4.5981   -5.0609    0.0000 H   0  0  0  0  0  0  0  0  0  0  0  0
    7.6139   -3.4409    0.0000 H   0  0  0  0  0  0  0  0  0  0  0  0
    3.1951   -4.2509    0.0000 H   0  0  0  0  0  0  0  0  0  0  0  0
    6.1072   -5.2835    0.0000 H   0  0  0  0  0  0  0  0  0  0  0  0
    6.7004   -5.8158    0.0000 H   0  0  0  0  0  0  0  0  0  0  0  0
    8.1747   -4.0687    0.0000 H   0  0  0  0  0  0  0  0  0  0  0  0
    7.5961   -6.8144    0.0000 H   0  0  0  0  0  0  0  0  0  0  0  0
    9.7599   -4.4028    0.0000 H   0  0  0  0  0  0  0  0  0  0  0  0
    9.1813   -7.1484    0.0000 H   0  0  0  0  0  0  0  0  0  0  0  0
    1.4631    4.7491    0.0000 H   0  0  0  0  0  0  0  0  0  0  0  0
    4.2690    6.3691    0.0000 H   0  0  0  0  0  0  0  0  0  0  0  0
    1.4631    6.3691    0.0000 H   0  0  0  0  0  0  0  0  0  0  0  0
    2.8660    7.1791    0.0000 H   0  0  0  0  0  0  0  0  0  0  0  0
    6.0010    4.7491    0.0000 H   0  0  0  0  0  0  0  0  0  0  0  0
    5.4641    5.6791    0.0000 H   0  0  0  0  0  0  0  0  0  0  0  0
  1 32  1  0  0  0  0
  2 19  1  0  0  0  0
  2 27  1  0  0  0  0
  3 36  2  0  0  0  0
  4  8  1  0  0  0  0
  4  9  1  0  0  0  0
  4 12  1  0  0  0  0
  5 10  1  0  0  0  0
  5 11  1  0  0  0  0
  5 13  1  0  0  0  0
  6 16  1  0  0  0  0
  6 21  1  0  0  0  0
  6 23  1  0  0  0  0
  7 36  1  0  0  0  0
  7 66  1  0  0  0  0
  7 67  1  0  0  0  0
  8 10  1  0  0  0  0
  8 37  1  0  0  0  0
  8 38  1  0  0  0  0
  9 11  1  0  0  0  0
  9 39  1  0  0  0  0
  9 40  1  0  0  0  0
 10 41  1  0  0  0  0
 10 42  1  0  0  0  0
 11 43  1  0  0  0  0
 11 44  1  0  0  0  0
 12 15  1  0  0  0  0
 12 45  1  0  0  0  0
 12 46  1  0  0  0  0
 13 14  1  0  0  0  0
 13 17  2  0  0  0  0
 14 16  2  0  0  0  0
 14 18  1  0  0  0  0
 15 19  1  0  0  0  0
 15 47  1  0  0  0  0
 15 48  1  0  0  0  0
 16 20  1  0  0  0  0
 17 22  1  0  0  0  0
 17 49  1  0  0  0  0
 18 21  2  0  0  0  0
 18 50  1  0  0  0  0
 19 51  1  0  0  0  0
 19 52  1  0  0  0  0
 20 22  2  0  0  0  0
 20 53  1  0  0  0  0
 21 54  1  0  0  0  0
 22 55  1  0  0  0  0
 23 24  1  0  0  0  0
 23 56  1  0  0  0  0
 23 57  1  0  0  0  0
 24 25  2  0  0  0  0
 24 26  1  0  0  0  0
 25 28  1  0  0  0  0
 25 58  1  0  0  0  0
 26 29  2  0  0  0  0
 26 59  1  0  0  0  0
 27 30  1  0  0  0  0
 27 31  2  0  0  0  0
 28 32  2  0  0  0  0
 28 60  1  0  0  0  0
 29 32  1  0  0  0  0
 29 61  1  0  0  0  0
 30 33  2  0  0  0  0
 30 36  1  0  0  0  0
 31 34  1  0  0  0  0
 31 62  1  0  0  0  0
 33 35  1  0  0  0  0
 33 63  1  0  0  0  0
 34 35  2  0  0  0  0
 34 64  1  0  0  0  0
 35 65  1  0  0  0  0
M  END
> <PUBCHEM_COMPOUND_CID>
71151870

> <PUBCHEM_COMPOUND_CANONICALIZED>
1

> <PUBCHEM_CACTVS_COMPLEXITY>
695

> <PUBCHEM_CACTVS_HBOND_ACCEPTOR>
5

> <PUBCHEM_CACTVS_HBOND_DONOR>
1

> <PUBCHEM_CACTVS_ROTATABLE_BOND>
9

> <PUBCHEM_CACTVS_SUBSKEYS>
AAADceB7sQAAAAAAAAAAAAAAAAAAAWAAAAA8YMEAAAAAAFgB9AAAHwAQAAAADAzhng48xvNMFACoAzV3VACCiCA1IiAI2CE+bNgMZvbE9duWPWjm4BHI6YeYyKCOAAAAAAQKAAAAAAAACBQAAAAAAAAAAA==

> <PUBCHEM_IUPAC_OPENEYE_NAME>
2-[3-[4-[1-[(4-fluorophenyl)methyl]indol-4-yl]piperazin-1-yl]propoxy]benzamide

> <PUBCHEM_IUPAC_CAS_NAME>
2-[3-[4-[1-[(4-fluorophenyl)methyl]-4-indolyl]-1-piperazinyl]propoxy]benzamide

> <PUBCHEM_IUPAC_NAME_MARKUP>
2-[3-[4-[1-[(4-fluorophenyl)methyl]indol-4-yl]piperazin-1-yl]propoxy]benzamide

> <PUBCHEM_IUPAC_NAME>
2-[3-[4-[1-[(4-fluorophenyl)methyl]indol-4-yl]piperazin-1-yl]propoxy]benzamide

> <PUBCHEM_IUPAC_SYSTEMATIC_NAME>
2-[3-[4-[1-[(4-fluorophenyl)methyl]indol-4-yl]piperazin-1-yl]propoxy]benzamide

> <PUBCHEM_IUPAC_TRADITIONAL_NAME>
2-[3-[4-[1-(4-fluorobenzyl)indol-4-yl]piperazino]propoxy]benzamide

> <PUBCHEM_IUPAC_INCHI>
InChI=1S/C29H31FN4O2/c30-23-11-9-22(10-12-23)21-34-15-13-24-26(6-3-7-27(24)34)33-18-16-32(17-19-33)14-4-20-36-28-8-2-1-5-25(28)29(31)35/h1-3,5-13,15H,4,14,16-21H2,(H2,31,35)

> <PUBCHEM_IUPAC_INCHIKEY>
CCPODSOEHBIKBW-UHFFFAOYSA-N

> <PUBCHEM_XLOGP3_AA>
4.5

> <PUBCHEM_EXACT_MASS>
486.24310441

> <PUBCHEM_MOLECULAR_FORMULA>
C29H31FN4O2

> <PUBCHEM_MOLECULAR_WEIGHT>
486.6

> <PUBCHEM_OPENEYE_CAN_SMILES>
C1CN(CCN1CCCOC2=CC=CC=C2C(=O)N)C3=CC=CC4=C3C=CN4CC5=CC=C(C=C5)F

> <PUBCHEM_OPENEYE_ISO_SMILES>
C1CN(CCN1CCCOC2=CC=CC=C2C(=O)N)C3=CC=CC4=C3C=CN4CC5=CC=C(C=C5)F

> <PUBCHEM_CACTVS_TPSA>
63.7

> <PUBCHEM_MONOISOTOPIC_WEIGHT>
486.24310441

> <PUBCHEM_TOTAL_CHARGE>
0

> <PUBCHEM_HEAVY_ATOM_COUNT>
36

> <PUBCHEM_ATOM_DEF_STEREO_COUNT>
0

> <PUBCHEM_ATOM_UDEF_STEREO_COUNT>
0

> <PUBCHEM_BOND_DEF_STEREO_COUNT>
0

> <PUBCHEM_BOND_UDEF_STEREO_COUNT>
0

> <PUBCHEM_ISOTOPIC_ATOM_COUNT>
0

> <PUBCHEM_COMPONENT_COUNT>
1

> <PUBCHEM_CACTVS_TAUTO_COUNT>
-1

> <PUBCHEM_COORDINATE_TYPE>
1
5
255

> <PUBCHEM_BONDANNOTATIONS>
13  14  8
13  17  8
14  16  8
14  18  8
16  20  8
17  22  8
18  21  8
20  22  8
24  25  8
24  26  8
25  28  8
26  29  8
27  30  8
27  31  8
28  32  8
29  32  8
30  33  8
31  34  8
33  35  8
34  35  8
6  16  8
6  21  8

$$$$
