44353361
  -OEChem-09292322202D

 65 67  0     1  0  0  0  0  0999 V2000
    9.8680   -0.9962    0.0000 O   0  0  0  0  0  0  0  0  0  0  0  0
   14.1846    2.5204    0.0000 O   0  0  0  0  0  0  0  0  0  0  0  0
    4.5981   -1.0204    0.0000 N   0  0  0  0  0  0  0  0  0  0  0  0
   10.7282    0.5071    0.0000 N   0  0  0  0  0  0  0  0  0  0  0  0
   11.6000   -0.9896    0.0000 N   0  0  0  0  0  0  0  0  0  0  0  0
    5.4641   -0.5204    0.0000 C   0  0  3  0  0  0  0  0  0  0  0  0
    5.4641    0.4796    0.0000 C   0  0  0  0  0  0  0  0  0  0  0  0
    6.3301   -1.0204    0.0000 C   0  0  0  0  0  0  0  0  0  0  0  0
    6.3301    0.9796    0.0000 C   0  0  0  0  0  0  0  0  0  0  0  0
    7.1962   -0.5204    0.0000 C   0  0  0  0  0  0  0  0  0  0  0  0
    7.1962    0.4796    0.0000 C   0  0  0  0  0  0  0  0  0  0  0  0
    3.7320   -0.5204    0.0000 C   0  0  0  0  0  0  0  0  0  0  0  0
    4.5981   -2.0204    0.0000 C   0  0  0  0  0  0  0  0  0  0  0  0
    8.0901    1.0143    0.0000 C   0  0  0  0  0  0  0  0  0  0  0  0
    8.0901   -1.0551    0.0000 C   0  0  0  0  0  0  0  0  0  0  0  0
    2.8660   -1.0204    0.0000 C   0  0  0  0  0  0  0  0  0  0  0  0
    3.7320   -2.5204    0.0000 C   0  0  0  0  0  0  0  0  0  0  0  0
    8.9962    0.5004    0.0000 C   0  0  0  0  0  0  0  0  0  0  0  0
    8.9962   -0.5412    0.0000 C   0  0  0  0  0  0  0  0  0  0  0  0
    9.8602    1.0037    0.0000 C   0  0  0  0  0  0  0  0  0  0  0  0
    2.0000   -0.5204    0.0000 C   0  0  0  0  0  0  0  0  0  0  0  0
    3.7320   -3.5204    0.0000 C   0  0  0  0  0  0  0  0  0  0  0  0
   11.5923    1.0104    0.0000 C   0  0  0  0  0  0  0  0  0  0  0  0
   10.7321   -0.4929    0.0000 C   0  0  0  0  0  0  0  0  0  0  0  0
   11.5884    2.0104    0.0000 C   0  0  0  0  0  0  0  0  0  0  0  0
   12.4602    0.5138    0.0000 C   0  0  0  0  0  0  0  0  0  0  0  0
   12.4525    2.5137    0.0000 C   0  0  0  0  0  0  0  0  0  0  0  0
   13.3243    1.0171    0.0000 C   0  0  0  0  0  0  0  0  0  0  0  0
   13.3205    2.0171    0.0000 C   0  0  0  0  0  0  0  0  0  0  0  0
   14.1807    3.5204    0.0000 C   0  0  0  0  0  0  0  0  0  0  0  0
    5.4641   -1.1404    0.0000 H   0  0  0  0  0  0  0  0  0  0  0  0
    5.2520    1.0622    0.0000 H   0  0  0  0  0  0  0  0  0  0  0  0
    4.8535    0.3719    0.0000 H   0  0  0  0  0  0  0  0  0  0  0  0
    5.9316   -1.4954    0.0000 H   0  0  0  0  0  0  0  0  0  0  0  0
    6.7287   -1.4954    0.0000 H   0  0  0  0  0  0  0  0  0  0  0  0
    6.7287    1.4545    0.0000 H   0  0  0  0  0  0  0  0  0  0  0  0
    5.9316    1.4545    0.0000 H   0  0  0  0  0  0  0  0  0  0  0  0
    4.1306   -0.0455    0.0000 H   0  0  0  0  0  0  0  0  0  0  0  0
    3.3335   -0.0455    0.0000 H   0  0  0  0  0  0  0  0  0  0  0  0
    4.8101   -2.6030    0.0000 H   0  0  0  0  0  0  0  0  0  0  0  0
    5.2087   -1.9128    0.0000 H   0  0  0  0  0  0  0  0  0  0  0  0
    8.0829    1.6342    0.0000 H   0  0  0  0  0  0  0  0  0  0  0  0
    8.0829   -1.6750    0.0000 H   0  0  0  0  0  0  0  0  0  0  0  0
    2.4675   -1.4954    0.0000 H   0  0  0  0  0  0  0  0  0  0  0  0
    3.2646   -1.4954    0.0000 H   0  0  0  0  0  0  0  0  0  0  0  0
    3.5200   -1.9378    0.0000 H   0  0  0  0  0  0  0  0  0  0  0  0
    3.1215   -2.6281    0.0000 H   0  0  0  0  0  0  0  0  0  0  0  0
    9.5319   -0.8533    0.0000 H   0  0  0  0  0  0  0  0  0  0  0  0
   10.2569    1.4802    0.0000 H   0  0  0  0  0  0  0  0  0  0  0  0
    9.4599    1.4772    0.0000 H   0  0  0  0  0  0  0  0  0  0  0  0
    2.3100    0.0165    0.0000 H   0  0  0  0  0  0  0  0  0  0  0  0
    1.4631   -0.2104    0.0000 H   0  0  0  0  0  0  0  0  0  0  0  0
    1.6900   -1.0574    0.0000 H   0  0  0  0  0  0  0  0  0  0  0  0
    3.1120   -3.5204    0.0000 H   0  0  0  0  0  0  0  0  0  0  0  0
    3.7320   -4.1404    0.0000 H   0  0  0  0  0  0  0  0  0  0  0  0
    4.3520   -3.5204    0.0000 H   0  0  0  0  0  0  0  0  0  0  0  0
   11.0503    2.3183    0.0000 H   0  0  0  0  0  0  0  0  0  0  0  0
   12.4626   -0.1062    0.0000 H   0  0  0  0  0  0  0  0  0  0  0  0
   11.6024   -1.6096    0.0000 H   0  0  0  0  0  0  0  0  0  0  0  0
   12.1357   -0.6775    0.0000 H   0  0  0  0  0  0  0  0  0  0  0  0
   12.4501    3.1337    0.0000 H   0  0  0  0  0  0  0  0  0  0  0  0
   13.8625    0.7092    0.0000 H   0  0  0  0  0  0  0  0  0  0  0  0
   14.8007    3.5228    0.0000 H   0  0  0  0  0  0  0  0  0  0  0  0
   14.1783    4.1404    0.0000 H   0  0  0  0  0  0  0  0  0  0  0  0
   13.5607    3.5180    0.0000 H   0  0  0  0  0  0  0  0  0  0  0  0
  1 24  2  0  0  0  0
  2 29  1  0  0  0  0
  2 30  1  0  0  0  0
  3  6  1  0  0  0  0
  3 12  1  0  0  0  0
  3 13  1  0  0  0  0
  4 20  1  0  0  0  0
  4 23  1  0  0  0  0
  4 24  1  0  0  0  0
  5 24  1  0  0  0  0
  5 59  1  0  0  0  0
  5 60  1  0  0  0  0
  6  7  1  0  0  0  0
  6  8  1  0  0  0  0
  6 31  1  0  0  0  0
  7  9  1  0  0  0  0
  7 32  1  0  0  0  0
  7 33  1  0  0  0  0
  8 10  1  0  0  0  0
  8 34  1  0  0  0  0
  8 35  1  0  0  0  0
  9 11  1  0  0  0  0
  9 36  1  0  0  0  0
  9 37  1  0  0  0  0
 10 11  2  0  0  0  0
 10 15  1  0  0  0  0
 11 14  1  0  0  0  0
 12 16  1  0  0  0  0
 12 38  1  0  0  0  0
 12 39  1  0  0  0  0
 13 17  1  0  0  0  0
 13 40  1  0  0  0  0
 13 41  1  0  0  0  0
 14 18  2  0  0  0  0
 14 42  1  0  0  0  0
 15 19  2  0  0  0  0
 15 43  1  0  0  0  0
 16 21  1  0  0  0  0
 16 44  1  0  0  0  0
 16 45  1  0  0  0  0
 17 22  1  0  0  0  0
 17 46  1  0  0  0  0
 17 47  1  0  0  0  0
 18 19  1  0  0  0  0
 18 20  1  0  0  0  0
 19 48  1  0  0  0  0
 20 49  1  0  0  0  0
 20 50  1  0  0  0  0
 21 51  1  0  0  0  0
 21 52  1  0  0  0  0
 21 53  1  0  0  0  0
 22 54  1  0  0  0  0
 22 55  1  0  0  0  0
 22 56  1  0  0  0  0
 23 25  2  0  0  0  0
 23 26  1  0  0  0  0
 25 27  1  0  0  0  0
 25 57  1  0  0  0  0
 26 28  2  0  0  0  0
 26 58  1  0  0  0  0
 27 29  2  0  0  0  0
 27 61  1  0  0  0  0
 28 29  1  0  0  0  0
 28 62  1  0  0  0  0
 30 63  1  0  0  0  0
 30 64  1  0  0  0  0
 30 65  1  0  0  0  0
M  END
> <PUBCHEM_COMPOUND_CID>
44353361

> <PUBCHEM_COMPOUND_CANONICALIZED>
1

> <PUBCHEM_CACTVS_COMPLEXITY>
515

> <PUBCHEM_CACTVS_HBOND_ACCEPTOR>
3

> <PUBCHEM_CACTVS_HBOND_DONOR>
1

> <PUBCHEM_CACTVS_ROTATABLE_BOND>
9

> <PUBCHEM_CACTVS_SUBSKEYS>
AAADcfB7MAAAAAAAAAAAAAAAAAAAAAAAAAAwYMAAAAAAAADBQAAAHgAQAAAADCzBmAYzxoNABACIAiRCUACCCAAhIgAIiAAObIiMJiLEsZuEMChkxhPI6CewwMAOwEACAAAQAACQgASAACAAAAAAAAAAAA==

> <PUBCHEM_IUPAC_OPENEYE_NAME>
1-[[2-(dipropylamino)tetralin-6-yl]methyl]-1-(4-methoxyphenyl)urea

> <PUBCHEM_IUPAC_CAS_NAME>
1-[[6-(dipropylamino)-5,6,7,8-tetrahydronaphthalen-2-yl]methyl]-1-(4-methoxyphenyl)urea

> <PUBCHEM_IUPAC_NAME_MARKUP>
1-[[6-(dipropylamino)-5,6,7,8-tetrahydronaphthalen-2-yl]methyl]-1-(4-methoxyphenyl)urea

> <PUBCHEM_IUPAC_NAME>
1-[[6-(dipropylamino)-5,6,7,8-tetrahydronaphthalen-2-yl]methyl]-1-(4-methoxyphenyl)urea

> <PUBCHEM_IUPAC_SYSTEMATIC_NAME>
1-[[6-(dipropylamino)-5,6,7,8-tetrahydronaphthalen-2-yl]methyl]-1-(4-methoxyphenyl)urea

> <PUBCHEM_IUPAC_TRADITIONAL_NAME>
1-[[2-(dipropylamino)tetralin-6-yl]methyl]-1-(4-methoxyphenyl)urea

> <PUBCHEM_IUPAC_INCHI>
InChI=1S/C25H35N3O2/c1-4-14-27(15-5-2)23-9-8-20-16-19(6-7-21(20)17-23)18-28(25(26)29)22-10-12-24(30-3)13-11-22/h6-7,10-13,16,23H,4-5,8-9,14-15,17-18H2,1-3H3,(H2,26,29)

> <PUBCHEM_IUPAC_INCHIKEY>
AGQAAIRBRCRFGB-UHFFFAOYSA-N

> <PUBCHEM_XLOGP3_AA>
4.7

> <PUBCHEM_EXACT_MASS>
409.27292737

> <PUBCHEM_MOLECULAR_FORMULA>
C25H35N3O2

> <PUBCHEM_MOLECULAR_WEIGHT>
409.6

> <PUBCHEM_OPENEYE_CAN_SMILES>
CCCN(CCC)C1CCC2=C(C1)C=CC(=C2)CN(C3=CC=C(C=C3)OC)C(=O)N

> <PUBCHEM_OPENEYE_ISO_SMILES>
CCCN(CCC)C1CCC2=C(C1)C=CC(=C2)CN(C3=CC=C(C=C3)OC)C(=O)N

> <PUBCHEM_CACTVS_TPSA>
58.8

> <PUBCHEM_MONOISOTOPIC_WEIGHT>
409.27292737

> <PUBCHEM_TOTAL_CHARGE>
0

> <PUBCHEM_HEAVY_ATOM_COUNT>
30

> <PUBCHEM_ATOM_DEF_STEREO_COUNT>
0

> <PUBCHEM_ATOM_UDEF_STEREO_COUNT>
1

> <PUBCHEM_BOND_DEF_STEREO_COUNT>
0

> <PUBCHEM_BOND_UDEF_STEREO_COUNT>
0

> <PUBCHEM_ISOTOPIC_ATOM_COUNT>
0

> <PUBCHEM_COMPONENT_COUNT>
1

> <PUBCHEM_CACTVS_TAUTO_COUNT>
-1

> <PUBCHEM_COORDINATE_TYPE>
1
5
255

> <PUBCHEM_BONDANNOTATIONS>
10  11  8
10  15  8
11  14  8
14  18  8
15  19  8
18  19  8
23  25  8
23  26  8
25  27  8
26  28  8
27  29  8
28  29  8
6  3  3

$$$$
