44350795
  -OEChem-09292322112D

108114  0     1  0  0  0  0  0999 V2000
   14.2230    1.4030    0.0000 O   0  0  0  0  0  0  0  0  0  0  0  0
    3.6200   10.9887    0.0000 O   0  0  0  0  0  0  0  0  0  0  0  0
    7.1225   15.8900    0.0000 O   0  0  0  0  0  0  0  0  0  0  0  0
    9.7205   15.3900    0.0000 O   0  0  0  0  0  0  0  0  0  0  0  0
    7.9885   14.3900    0.0000 O   0  0  0  0  0  0  0  0  0  0  0  0
    8.8545   16.8900    0.0000 O   0  0  0  0  0  0  0  0  0  0  0  0
    6.1543    3.1350    0.0000 N   0  0  0  0  0  0  0  0  0  0  0  0
   11.2230    3.1350    0.0000 N   0  0  0  0  0  0  0  0  0  0  0  0
    3.6200    7.5246    0.0000 N   0  0  0  0  0  0  0  0  0  0  0  0
   13.2230    3.1350    0.0000 N   0  0  0  0  0  0  0  0  0  0  0  0
    2.6200    9.2567    0.0000 N   0  0  0  0  0  0  0  0  0  0  0  0
    8.6932    3.6350    0.0000 C   0  0  3  0  0  0  0  0  0  0  0  0
    8.6932    2.6350    0.0000 C   0  0  3  0  0  0  0  0  0  0  0  0
    5.3179    5.5837    0.0000 C   0  0  3  0  0  0  0  0  0  0  0  0
    4.4519    5.0837    0.0000 C   0  0  3  0  0  0  0  0  0  0  0  0
    7.1543    3.1350    0.0000 C   0  0  0  0  0  0  0  0  0  0  0  0
    5.6543    4.0010    0.0000 C   0  0  0  0  0  0  0  0  0  0  0  0
    7.7421    3.9440    0.0000 C   0  0  0  0  0  0  0  0  0  0  0  0
    7.7421    2.3260    0.0000 C   0  0  0  0  0  0  0  0  0  0  0  0
    6.0611    4.9146    0.0000 C   0  0  0  0  0  0  0  0  0  0  0  0
    4.6598    4.1056    0.0000 C   0  0  0  0  0  0  0  0  0  0  0  0
    9.6394    3.9397    0.0000 C   0  0  0  0  0  0  0  0  0  0  0  0
    9.6394    2.3303    0.0000 C   0  0  0  0  0  0  0  0  0  0  0  0
    5.1087    6.5555    0.0000 C   0  0  0  0  0  0  0  0  0  0  0  0
    3.7149    5.7508    0.0000 C   0  0  0  0  0  0  0  0  0  0  0  0
   10.2230    3.1350    0.0000 C   0  0  0  0  0  0  0  0  0  0  0  0
    4.1200    6.6586    0.0000 C   0  0  0  0  0  0  0  0  0  0  0  0
   11.7230    4.0010    0.0000 C   0  0  0  0  0  0  0  0  0  0  0  0
   11.7230    2.2690    0.0000 C   0  0  0  0  0  0  0  0  0  0  0  0
    4.1200    8.3906    0.0000 C   0  0  0  0  0  0  0  0  0  0  0  0
    2.6200    7.5246    0.0000 C   0  0  0  0  0  0  0  0  0  0  0  0
   12.7230    4.0010    0.0000 C   0  0  0  0  0  0  0  0  0  0  0  0
   12.7230    2.2690    0.0000 C   0  0  0  0  0  0  0  0  0  0  0  0
    3.6200    9.2567    0.0000 C   0  0  0  0  0  0  0  0  0  0  0  0
    2.1200    8.3906    0.0000 C   0  0  0  0  0  0  0  0  0  0  0  0
   14.2230    3.1350    0.0000 C   0  0  0  0  0  0  0  0  0  0  0  0
    2.1200   10.1227    0.0000 C   0  0  0  0  0  0  0  0  0  0  0  0
   14.7230    2.2690    0.0000 C   0  0  0  0  0  0  0  0  0  0  0  0
    2.6200   10.9887    0.0000 C   0  0  0  0  0  0  0  0  0  0  0  0
   14.7230    4.0010    0.0000 C   0  0  0  0  0  0  0  0  0  0  0  0
    1.1200   10.1227    0.0000 C   0  0  0  0  0  0  0  0  0  0  0  0
   15.7230    2.2690    0.0000 C   0  0  0  0  0  0  0  0  0  0  0  0
    2.1200   11.8547    0.0000 C   0  0  0  0  0  0  0  0  0  0  0  0
   15.7230    4.0010    0.0000 C   0  0  0  0  0  0  0  0  0  0  0  0
    0.6200   10.9887    0.0000 C   0  0  0  0  0  0  0  0  0  0  0  0
   16.2230    3.1350    0.0000 C   0  0  0  0  0  0  0  0  0  0  0  0
    1.1200   11.8547    0.0000 C   0  0  0  0  0  0  0  0  0  0  0  0
   14.7230    0.5369    0.0000 C   0  0  0  0  0  0  0  0  0  0  0  0
    4.1200   11.8547    0.0000 C   0  0  0  0  0  0  0  0  0  0  0  0
    7.9885   15.3900    0.0000 C   0  0  0  0  0  0  0  0  0  0  0  0
    8.8545   15.8900    0.0000 C   0  0  0  0  0  0  0  0  0  0  0  0
    8.6940    4.2550    0.0000 H   0  0  0  0  0  0  0  0  0  0  0  0
    8.6940    2.0150    0.0000 H   0  0  0  0  0  0  0  0  0  0  0  0
    5.8545    5.8944    0.0000 H   0  0  0  0  0  0  0  0  0  0  0  0
    3.9146    4.7744    0.0000 H   0  0  0  0  0  0  0  0  0  0  0  0
    6.8729    3.6874    0.0000 H   0  0  0  0  0  0  0  0  0  0  0  0
    5.3167    3.4811    0.0000 H   0  0  0  0  0  0  0  0  0  0  0  0
    7.9943    4.5104    0.0000 H   0  0  0  0  0  0  0  0  0  0  0  0
    7.2052    4.2540    0.0000 H   0  0  0  0  0  0  0  0  0  0  0  0
    7.2052    2.0160    0.0000 H   0  0  0  0  0  0  0  0  0  0  0  0
    7.9943    1.7596    0.0000 H   0  0  0  0  0  0  0  0  0  0  0  0
    6.5980    4.6046    0.0000 H   0  0  0  0  0  0  0  0  0  0  0  0
    6.4255    5.4162    0.0000 H   0  0  0  0  0  0  0  0  0  0  0  0
    4.0432    4.0408    0.0000 H   0  0  0  0  0  0  0  0  0  0  0  0
    4.6598    3.4856    0.0000 H   0  0  0  0  0  0  0  0  0  0  0  0
   10.1768    4.2490    0.0000 H   0  0  0  0  0  0  0  0  0  0  0  0
    9.3884    4.5066    0.0000 H   0  0  0  0  0  0  0  0  0  0  0  0
    9.3884    1.7634    0.0000 H   0  0  0  0  0  0  0  0  0  0  0  0
   10.1768    2.0210    0.0000 H   0  0  0  0  0  0  0  0  0  0  0  0
    5.7252    6.6216    0.0000 H   0  0  0  0  0  0  0  0  0  0  0  0
    5.1078    7.1755    0.0000 H   0  0  0  0  0  0  0  0  0  0  0  0
    3.1784    6.0616    0.0000 H   0  0  0  0  0  0  0  0  0  0  0  0
    3.3494    5.2499    0.0000 H   0  0  0  0  0  0  0  0  0  0  0  0
   10.5047    2.5827    0.0000 H   0  0  0  0  0  0  0  0  0  0  0  0
    4.4574    7.1787    0.0000 H   0  0  0  0  0  0  0  0  0  0  0  0
    5.8443    2.5981    0.0000 H   0  0  0  0  0  0  0  0  0  0  0  0
   11.8307    4.6116    0.0000 H   0  0  0  0  0  0  0  0  0  0  0  0
   11.1404    4.2131    0.0000 H   0  0  0  0  0  0  0  0  0  0  0  0
   11.1404    2.0569    0.0000 H   0  0  0  0  0  0  0  0  0  0  0  0
   11.8307    1.6584    0.0000 H   0  0  0  0  0  0  0  0  0  0  0  0
    4.5950    7.9921    0.0000 H   0  0  0  0  0  0  0  0  0  0  0  0
    4.5950    8.7892    0.0000 H   0  0  0  0  0  0  0  0  0  0  0  0
    2.0374    7.3126    0.0000 H   0  0  0  0  0  0  0  0  0  0  0  0
    2.7277    6.9140    0.0000 H   0  0  0  0  0  0  0  0  0  0  0  0
   13.3056    4.2131    0.0000 H   0  0  0  0  0  0  0  0  0  0  0  0
   12.6153    4.6116    0.0000 H   0  0  0  0  0  0  0  0  0  0  0  0
   12.6153    1.6584    0.0000 H   0  0  0  0  0  0  0  0  0  0  0  0
   13.3056    2.0569    0.0000 H   0  0  0  0  0  0  0  0  0  0  0  0
    4.2026    9.4687    0.0000 H   0  0  0  0  0  0  0  0  0  0  0  0
    3.5123    9.8672    0.0000 H   0  0  0  0  0  0  0  0  0  0  0  0
    1.6450    8.7892    0.0000 H   0  0  0  0  0  0  0  0  0  0  0  0
    1.6450    7.9921    0.0000 H   0  0  0  0  0  0  0  0  0  0  0  0
   14.4130    4.5380    0.0000 H   0  0  0  0  0  0  0  0  0  0  0  0
    0.8100    9.5858    0.0000 H   0  0  0  0  0  0  0  0  0  0  0  0
   16.0330    1.7320    0.0000 H   0  0  0  0  0  0  0  0  0  0  0  0
    2.4300   12.3917    0.0000 H   0  0  0  0  0  0  0  0  0  0  0  0
   16.0330    4.5380    0.0000 H   0  0  0  0  0  0  0  0  0  0  0  0
    0.0000   10.9887    0.0000 H   0  0  0  0  0  0  0  0  0  0  0  0
   16.8430    3.1350    0.0000 H   0  0  0  0  0  0  0  0  0  0  0  0
    0.8100   12.3917    0.0000 H   0  0  0  0  0  0  0  0  0  0  0  0
   14.1861    0.2269    0.0000 H   0  0  0  0  0  0  0  0  0  0  0  0
   15.0330    0.0000    0.0000 H   0  0  0  0  0  0  0  0  0  0  0  0
   15.2599    0.8469    0.0000 H   0  0  0  0  0  0  0  0  0  0  0  0
    4.6569   11.5447    0.0000 H   0  0  0  0  0  0  0  0  0  0  0  0
    4.4300   12.3917    0.0000 H   0  0  0  0  0  0  0  0  0  0  0  0
    3.5831   12.1647    0.0000 H   0  0  0  0  0  0  0  0  0  0  0  0
    6.5855   15.5800    0.0000 H   0  0  0  0  0  0  0  0  0  0  0  0
   10.2575   15.7000    0.0000 H   0  0  0  0  0  0  0  0  0  0  0  0
  1 38  1  0  0  0  0
  1 48  1  0  0  0  0
  2 39  1  0  0  0  0
  2 49  1  0  0  0  0
  3 50  1  0  0  0  0
  3107  1  0  0  0  0
  4 51  1  0  0  0  0
  4108  1  0  0  0  0
  5 50  2  0  0  0  0
  6 51  2  0  0  0  0
  7 16  1  0  0  0  0
  7 17  1  0  0  0  0
  7 76  1  0  0  0  0
  8 26  1  0  0  0  0
  8 28  1  0  0  0  0
  8 29  1  0  0  0  0
  9 27  1  0  0  0  0
  9 30  1  0  0  0  0
  9 31  1  0  0  0  0
 10 32  1  0  0  0  0
 10 33  1  0  0  0  0
 10 36  1  0  0  0  0
 11 34  1  0  0  0  0
 11 35  1  0  0  0  0
 11 37  1  0  0  0  0
 12 13  1  0  0  0  0
 12 18  1  0  0  0  0
 12 22  1  0  0  0  0
 12 52  1  0  0  0  0
 13 19  1  0  0  0  0
 13 23  1  0  0  0  0
 13 53  1  0  0  0  0
 14 15  1  0  0  0  0
 14 20  1  0  0  0  0
 14 24  1  0  0  0  0
 14 54  1  0  0  0  0
 15 21  1  0  0  0  0
 15 25  1  0  0  0  0
 15 55  1  0  0  0  0
 16 18  1  0  0  0  0
 16 19  1  0  0  0  0
 16 56  1  0  0  0  0
 17 20  1  0  0  0  0
 17 21  1  0  0  0  0
 17 57  1  0  0  0  0
 18 58  1  0  0  0  0
 18 59  1  0  0  0  0
 19 60  1  0  0  0  0
 19 61  1  0  0  0  0
 20 62  1  0  0  0  0
 20 63  1  0  0  0  0
 21 64  1  0  0  0  0
 21 65  1  0  0  0  0
 22 26  1  0  0  0  0
 22 66  1  0  0  0  0
 22 67  1  0  0  0  0
 23 26  1  0  0  0  0
 23 68  1  0  0  0  0
 23 69  1  0  0  0  0
 24 27  1  0  0  0  0
 24 70  1  0  0  0  0
 24 71  1  0  0  0  0
 25 27  1  0  0  0  0
 25 72  1  0  0  0  0
 25 73  1  0  0  0  0
 26 74  1  0  0  0  0
 27 75  1  0  0  0  0
 28 32  1  0  0  0  0
 28 77  1  0  0  0  0
 28 78  1  0  0  0  0
 29 33  1  0  0  0  0
 29 79  1  0  0  0  0
 29 80  1  0  0  0  0
 30 34  1  0  0  0  0
 30 81  1  0  0  0  0
 30 82  1  0  0  0  0
 31 35  1  0  0  0  0
 31 83  1  0  0  0  0
 31 84  1  0  0  0  0
 32 85  1  0  0  0  0
 32 86  1  0  0  0  0
 33 87  1  0  0  0  0
 33 88  1  0  0  0  0
 34 89  1  0  0  0  0
 34 90  1  0  0  0  0
 35 91  1  0  0  0  0
 35 92  1  0  0  0  0
 36 38  1  0  0  0  0
 36 40  2  0  0  0  0
 37 39  1  0  0  0  0
 37 41  2  0  0  0  0
 38 42  2  0  0  0  0
 39 43  2  0  0  0  0
 40 44  1  0  0  0  0
 40 93  1  0  0  0  0
 41 45  1  0  0  0  0
 41 94  1  0  0  0  0
 42 46  1  0  0  0  0
 42 95  1  0  0  0  0
 43 47  1  0  0  0  0
 43 96  1  0  0  0  0
 44 46  2  0  0  0  0
 44 97  1  0  0  0  0
 45 47  2  0  0  0  0
 45 98  1  0  0  0  0
 46 99  1  0  0  0  0
 47100  1  0  0  0  0
 48101  1  0  0  0  0
 48102  1  0  0  0  0
 48103  1  0  0  0  0
 49104  1  0  0  0  0
 49105  1  0  0  0  0
 49106  1  0  0  0  0
 50 51  1  0  0  0  0
M  END
> <PUBCHEM_COMPOUND_CID>
44350795

> <PUBCHEM_COMPOUND_CANONICALIZED>
1

> <PUBCHEM_CACTVS_COMPLEXITY>
922

> <PUBCHEM_CACTVS_HBOND_ACCEPTOR>
11

> <PUBCHEM_CACTVS_HBOND_DONOR>
3

> <PUBCHEM_CACTVS_ROTATABLE_BOND>
9

> <PUBCHEM_CACTVS_SUBSKEYS>
AAADcfB/uAAAAAAAAAAAAAAAAAAAAYMGDAA8eIEAAAAYMAABQAAAHgAQCAAADSzBkAYyzoPABgCIACTSSAKCCAAhIgAIiIBPbIgPZiLEsZuVMChk0BHZ6AeQwIAOgAAAAAAAEAAAAAAAAAAgACAACAAAAA==

> <PUBCHEM_IUPAC_OPENEYE_NAME>
5-[4-(2-methoxyphenyl)piperazin-1-yl]-N-[5-[4-(2-methoxyphenyl)piperazin-1-yl]-1,2,3,3a,4,5,6,6a-octahydropentalen-2-yl]-1,2,3,3a,4,5,6,6a-octahydropentalen-2-amine;oxalic acid

> <PUBCHEM_IUPAC_CAS_NAME>
5-[4-(2-methoxyphenyl)-1-piperazinyl]-N-[5-[4-(2-methoxyphenyl)-1-piperazinyl]-1,2,3,3a,4,5,6,6a-octahydropentalen-2-yl]-1,2,3,3a,4,5,6,6a-octahydropentalen-2-amine;oxalic acid

> <PUBCHEM_IUPAC_NAME_MARKUP>
5-[4-(2-methoxyphenyl)piperazin-1-yl]-<I>N</I>-[5-[4-(2-methoxyphenyl)piperazin-1-yl]-1,2,3,3<I>a</I>,4,5,6,6<I>a</I>-octahydropentalen-2-yl]-1,2,3,3<I>a</I>,4,5,6,6<I>a</I>-octahydropentalen-2-amine;oxalic acid

> <PUBCHEM_IUPAC_NAME>
5-[4-(2-methoxyphenyl)piperazin-1-yl]-N-[5-[4-(2-methoxyphenyl)piperazin-1-yl]-1,2,3,3a,4,5,6,6a-octahydropentalen-2-yl]-1,2,3,3a,4,5,6,6a-octahydropentalen-2-amine;oxalic acid

> <PUBCHEM_IUPAC_SYSTEMATIC_NAME>
ethanedioic acid;5-[4-(2-methoxyphenyl)piperazin-1-yl]-N-[5-[4-(2-methoxyphenyl)piperazin-1-yl]-1,2,3,3a,4,5,6,6a-octahydropentalen-2-yl]-1,2,3,3a,4,5,6,6a-octahydropentalen-2-amine

> <PUBCHEM_IUPAC_TRADITIONAL_NAME>
bis[5-[4-(2-methoxyphenyl)piperazino]-1,2,3,3a,4,5,6,6a-octahydropentalen-2-yl]amine;oxalic acid

> <PUBCHEM_IUPAC_INCHI>
InChI=1S/C38H55N5O2.C2H2O4/c1-44-37-9-5-3-7-35(37)42-15-11-40(12-16-42)33-23-27-19-31(20-28(27)24-33)39-32-21-29-25-34(26-30(29)22-32)41-13-17-43(18-14-41)36-8-4-6-10-38(36)45-2;3-1(4)2(5)6/h3-10,27-34,39H,11-26H2,1-2H3;(H,3,4)(H,5,6)

> <PUBCHEM_IUPAC_INCHIKEY>
CGIDVWVHYNNASF-UHFFFAOYSA-N

> <PUBCHEM_EXACT_MASS>
703.43088455

> <PUBCHEM_MOLECULAR_FORMULA>
C40H57N5O6

> <PUBCHEM_MOLECULAR_WEIGHT>
703.9

> <PUBCHEM_OPENEYE_CAN_SMILES>
COC1=CC=CC=C1N2CCN(CC2)C3CC4CC(CC4C3)NC5CC6CC(CC6C5)N7CCN(CC7)C8=CC=CC=C8OC.C(=O)(C(=O)O)O

> <PUBCHEM_OPENEYE_ISO_SMILES>
COC1=CC=CC=C1N2CCN(CC2)C3CC4CC(CC4C3)NC5CC6CC(CC6C5)N7CCN(CC7)C8=CC=CC=C8OC.C(=O)(C(=O)O)O

> <PUBCHEM_CACTVS_TPSA>
118

> <PUBCHEM_MONOISOTOPIC_WEIGHT>
703.43088455

> <PUBCHEM_TOTAL_CHARGE>
0

> <PUBCHEM_HEAVY_ATOM_COUNT>
51

> <PUBCHEM_ATOM_DEF_STEREO_COUNT>
0

> <PUBCHEM_ATOM_UDEF_STEREO_COUNT>
4

> <PUBCHEM_BOND_DEF_STEREO_COUNT>
0

> <PUBCHEM_BOND_UDEF_STEREO_COUNT>
0

> <PUBCHEM_ISOTOPIC_ATOM_COUNT>
0

> <PUBCHEM_COMPONENT_COUNT>
2

> <PUBCHEM_CACTVS_TAUTO_COUNT>
-1

> <PUBCHEM_COORDINATE_TYPE>
1
5
255

> <PUBCHEM_BONDANNOTATIONS>
12  18  3
13  19  3
14  20  3
15  21  3
36  38  8
36  40  8
37  39  8
37  41  8
38  42  8
39  43  8
40  44  8
41  45  8
42  46  8
43  47  8
44  46  8
45  47  8

$$$$
