10450580
  -OEChem-09292322132D

 43 44  0     1  0  0  0  0  0999 V2000
    3.7320   -1.7500    0.0000 S   0  0  0  0  0  0  0  0  0  0  0  0
    2.0000   -2.7500    0.0000 F   0  0  0  0  0  0  0  0  0  0  0  0
    2.3660   -1.3840    0.0000 F   0  0  0  0  0  0  0  0  0  0  0  0
    3.3660   -3.1160    0.0000 F   0  0  0  0  0  0  0  0  0  0  0  0
    4.5981   -1.2500    0.0000 O   0  0  0  0  0  0  0  0  0  0  0  0
    3.2320   -0.8840    0.0000 O   0  0  0  0  0  0  0  0  0  0  0  0
    4.2320   -2.6160    0.0000 O   0  0  0  0  0  0  0  0  0  0  0  0
    5.4641    1.2500    0.0000 N   0  0  3  0  0  0  0  0  0  0  0  0
    6.3301   -0.2500    0.0000 C   0  0  1  0  0  0  0  0  0  0  0  0
    5.4641    0.2500    0.0000 C   0  0  0  0  0  0  0  0  0  0  0  0
    7.1962    0.2500    0.0000 C   0  0  0  0  0  0  0  0  0  0  0  0
    7.1962    1.2500    0.0000 C   0  0  0  0  0  0  0  0  0  0  0  0
    6.3301    1.7500    0.0000 C   0  0  0  0  0  0  0  0  0  0  0  0
    6.3301   -1.2500    0.0000 C   0  0  0  0  0  0  0  0  0  0  0  0
    4.5981    1.7500    0.0000 C   0  0  0  0  0  0  0  0  0  0  0  0
    4.5981    2.7500    0.0000 C   0  0  0  0  0  0  0  0  0  0  0  0
    5.4641   -1.7500    0.0000 C   0  0  0  0  0  0  0  0  0  0  0  0
    7.1962   -1.7500    0.0000 C   0  0  0  0  0  0  0  0  0  0  0  0
    3.7320    3.2500    0.0000 C   0  0  0  0  0  0  0  0  0  0  0  0
    5.4641   -2.7500    0.0000 C   0  0  0  0  0  0  0  0  0  0  0  0
    7.1962   -2.7500    0.0000 C   0  0  0  0  0  0  0  0  0  0  0  0
    6.3301   -3.2500    0.0000 C   0  0  0  0  0  0  0  0  0  0  0  0
    2.8660   -2.2500    0.0000 C   0  0  0  0  0  0  0  0  0  0  0  0
    7.0662   -0.6750    0.0000 H   0  0  0  0  0  0  0  0  0  0  0  0
    4.8535    0.3577    0.0000 H   0  0  0  0  0  0  0  0  0  0  0  0
    5.2520   -0.3326    0.0000 H   0  0  0  0  0  0  0  0  0  0  0  0
    7.4082   -0.3326    0.0000 H   0  0  0  0  0  0  0  0  0  0  0  0
    7.8067    0.3577    0.0000 H   0  0  0  0  0  0  0  0  0  0  0  0
    7.8067    1.1423    0.0000 H   0  0  0  0  0  0  0  0  0  0  0  0
    7.4082    1.8326    0.0000 H   0  0  0  0  0  0  0  0  0  0  0  0
    6.7287    2.2250    0.0000 H   0  0  0  0  0  0  0  0  0  0  0  0
    5.9316    2.2250    0.0000 H   0  0  0  0  0  0  0  0  0  0  0  0
    3.9875    1.8577    0.0000 H   0  0  0  0  0  0  0  0  0  0  0  0
    4.3860    1.1674    0.0000 H   0  0  0  0  0  0  0  0  0  0  0  0
    5.2087    2.6423    0.0000 H   0  0  0  0  0  0  0  0  0  0  0  0
    4.8101    3.3326    0.0000 H   0  0  0  0  0  0  0  0  0  0  0  0
    7.7331   -1.4400    0.0000 H   0  0  0  0  0  0  0  0  0  0  0  0
    4.0420    3.7869    0.0000 H   0  0  0  0  0  0  0  0  0  0  0  0
    3.1951    3.5600    0.0000 H   0  0  0  0  0  0  0  0  0  0  0  0
    3.4220    2.7131    0.0000 H   0  0  0  0  0  0  0  0  0  0  0  0
    4.9272   -3.0600    0.0000 H   0  0  0  0  0  0  0  0  0  0  0  0
    7.7331   -3.0600    0.0000 H   0  0  0  0  0  0  0  0  0  0  0  0
    6.3301   -3.8700    0.0000 H   0  0  0  0  0  0  0  0  0  0  0  0
  1  5  1  0  0  0  0
  1  6  2  0  0  0  0
  1  7  2  0  0  0  0
  1 23  1  0  0  0  0
  2 23  1  0  0  0  0
  3 23  1  0  0  0  0
  4 23  1  0  0  0  0
  5 17  1  0  0  0  0
  8 10  1  0  0  0  0
  8 13  1  0  0  0  0
  8 15  1  0  0  0  0
  9 10  1  0  0  0  0
  9 11  1  0  0  0  0
  9 14  1  0  0  0  0
  9 24  1  6  0  0  0
 10 25  1  0  0  0  0
 10 26  1  0  0  0  0
 11 12  1  0  0  0  0
 11 27  1  0  0  0  0
 11 28  1  0  0  0  0
 12 13  1  0  0  0  0
 12 29  1  0  0  0  0
 12 30  1  0  0  0  0
 13 31  1  0  0  0  0
 13 32  1  0  0  0  0
 14 17  1  0  0  0  0
 14 18  2  0  0  0  0
 15 16  1  0  0  0  0
 15 33  1  0  0  0  0
 15 34  1  0  0  0  0
 16 19  1  0  0  0  0
 16 35  1  0  0  0  0
 16 36  1  0  0  0  0
 17 20  2  0  0  0  0
 18 21  1  0  0  0  0
 18 37  1  0  0  0  0
 19 38  1  0  0  0  0
 19 39  1  0  0  0  0
 19 40  1  0  0  0  0
 20 22  1  0  0  0  0
 20 41  1  0  0  0  0
 21 22  2  0  0  0  0
 21 42  1  0  0  0  0
 22 43  1  0  0  0  0
M  END
> <PUBCHEM_COMPOUND_CID>
10450580

> <PUBCHEM_COMPOUND_CANONICALIZED>
1

> <PUBCHEM_CACTVS_COMPLEXITY>
475

> <PUBCHEM_CACTVS_HBOND_ACCEPTOR>
7

> <PUBCHEM_CACTVS_HBOND_DONOR>
0

> <PUBCHEM_CACTVS_ROTATABLE_BOND>
5

> <PUBCHEM_CACTVS_SUBSKEYS>
AAADceByMYBAAAAAAAAAAAAAAAAAAAAAAAA8QAAAAAAAAAABAAAAHwQAAAAADQTBmBQyBoMAAAKAAiBCAHACAAAgIAAIiAAOCIgIJiKAkROEMAAkwBGIiAewwOAOgAAAAAAIAAAAAAAAABAAAAAAAAAAAA==

> <PUBCHEM_IUPAC_OPENEYE_NAME>
[2-[(3S)-1-propyl-3-piperidyl]phenyl] trifluoromethanesulfonate

> <PUBCHEM_IUPAC_CAS_NAME>
trifluoromethanesulfonic acid [2-[(3S)-1-propyl-3-piperidinyl]phenyl] ester

> <PUBCHEM_IUPAC_NAME_MARKUP>
[2-[(3<I>S</I>)-1-propylpiperidin-3-yl]phenyl] trifluoromethanesulfonate

> <PUBCHEM_IUPAC_NAME>
[2-[(3S)-1-propylpiperidin-3-yl]phenyl] trifluoromethanesulfonate

> <PUBCHEM_IUPAC_SYSTEMATIC_NAME>
[2-[(3S)-1-propylpiperidin-3-yl]phenyl] tris(fluoranyl)methanesulfonate

> <PUBCHEM_IUPAC_TRADITIONAL_NAME>
trifluoromethanesulfonic acid [2-[(3S)-1-propyl-3-piperidyl]phenyl] ester

> <PUBCHEM_IUPAC_INCHI>
InChI=1S/C15H20F3NO3S/c1-2-9-19-10-5-6-12(11-19)13-7-3-4-8-14(13)22-23(20,21)15(16,17)18/h3-4,7-8,12H,2,5-6,9-11H2,1H3/t12-/m1/s1

> <PUBCHEM_IUPAC_INCHIKEY>
IQMKIUFAVWKRQY-GFCCVEGCSA-N

> <PUBCHEM_XLOGP3_AA>
4.1

> <PUBCHEM_EXACT_MASS>
351.11159916

> <PUBCHEM_MOLECULAR_FORMULA>
C15H20F3NO3S

> <PUBCHEM_MOLECULAR_WEIGHT>
351.4

> <PUBCHEM_OPENEYE_CAN_SMILES>
CCCN1CCCC(C1)C2=CC=CC=C2OS(=O)(=O)C(F)(F)F

> <PUBCHEM_OPENEYE_ISO_SMILES>
CCCN1CCC[C@H](C1)C2=CC=CC=C2OS(=O)(=O)C(F)(F)F

> <PUBCHEM_CACTVS_TPSA>
55

> <PUBCHEM_MONOISOTOPIC_WEIGHT>
351.11159916

> <PUBCHEM_TOTAL_CHARGE>
0

> <PUBCHEM_HEAVY_ATOM_COUNT>
23

> <PUBCHEM_ATOM_DEF_STEREO_COUNT>
1

> <PUBCHEM_ATOM_UDEF_STEREO_COUNT>
0

> <PUBCHEM_BOND_DEF_STEREO_COUNT>
0

> <PUBCHEM_BOND_UDEF_STEREO_COUNT>
0

> <PUBCHEM_ISOTOPIC_ATOM_COUNT>
0

> <PUBCHEM_COMPONENT_COUNT>
1

> <PUBCHEM_CACTVS_TAUTO_COUNT>
-1

> <PUBCHEM_COORDINATE_TYPE>
1
5
255

> <PUBCHEM_BONDANNOTATIONS>
14  17  8
14  18  8
17  20  8
18  21  8
20  22  8
21  22  8
9  24  6

$$$$
