45264511
  -OEChem-09292322502D

 40 41  0     0  0  0  0  0  0999 V2000
    5.2087    4.3700    0.0000 Cl  0  0  0  0  0  0  0  0  0  0  0  0
    2.5981    4.1200    0.0000 O   0  0  0  0  0  0  0  0  0  0  0  0
    0.0000    5.6200    0.0000 O   0  0  0  0  0  0  0  0  0  0  0  0
    1.7320    1.6200    0.0000 N   0  0  0  0  0  0  0  0  0  0  0  0
    1.7320    3.6200    0.0000 C   0  0  0  0  0  0  0  0  0  0  0  0
    0.8660    3.1200    0.0000 C   0  0  0  0  0  0  0  0  0  0  0  0
    2.5981    3.1200    0.0000 C   0  0  0  0  0  0  0  0  0  0  0  0
    0.8660    2.1200    0.0000 C   0  0  0  0  0  0  0  0  0  0  0  0
    2.5981    2.1200    0.0000 C   0  0  0  0  0  0  0  0  0  0  0  0
    0.8660    4.1200    0.0000 C   0  0  0  0  0  0  0  0  0  0  0  0
    0.8660    5.1200    0.0000 C   0  0  0  0  0  0  0  0  0  0  0  0
    1.7320    0.6200    0.0000 C   0  0  0  0  0  0  0  0  0  0  0  0
    1.7320    5.6200    0.0000 C   0  0  0  0  0  0  0  0  0  0  0  0
    2.5981    5.1200    0.0000 C   0  0  0  0  0  0  0  0  0  0  0  0
    1.7320    6.6200    0.0000 C   0  0  0  0  0  0  0  0  0  0  0  0
    0.8660    7.1200    0.0000 C   0  0  0  0  0  0  0  0  0  0  0  0
    2.5981    7.1200    0.0000 C   0  0  0  0  0  0  0  0  0  0  0  0
    0.8660    8.1200    0.0000 C   0  0  0  0  0  0  0  0  0  0  0  0
    2.5981    8.1200    0.0000 C   0  0  0  0  0  0  0  0  0  0  0  0
    1.7320    8.6200    0.0000 C   0  0  0  0  0  0  0  0  0  0  0  0
    0.6540    3.7026    0.0000 H   0  0  0  0  0  0  0  0  0  0  0  0
    0.2554    3.0123    0.0000 H   0  0  0  0  0  0  0  0  0  0  0  0
    3.2087    3.0123    0.0000 H   0  0  0  0  0  0  0  0  0  0  0  0
    2.8101    3.7026    0.0000 H   0  0  0  0  0  0  0  0  0  0  0  0
    0.2554    2.2277    0.0000 H   0  0  0  0  0  0  0  0  0  0  0  0
    0.6540    1.5374    0.0000 H   0  0  0  0  0  0  0  0  0  0  0  0
    2.8101    1.5374    0.0000 H   0  0  0  0  0  0  0  0  0  0  0  0
    3.2087    2.2277    0.0000 H   0  0  0  0  0  0  0  0  0  0  0  0
    0.2554    4.2277    0.0000 H   0  0  0  0  0  0  0  0  0  0  0  0
    0.6540    3.5374    0.0000 H   0  0  0  0  0  0  0  0  0  0  0  0
    1.1120    0.6200    0.0000 H   0  0  0  0  0  0  0  0  0  0  0  0
    1.7320    0.0000    0.0000 H   0  0  0  0  0  0  0  0  0  0  0  0
    2.3521    0.6200    0.0000 H   0  0  0  0  0  0  0  0  0  0  0  0
    3.1350    5.4300    0.0000 H   0  0  0  0  0  0  0  0  0  0  0  0
    0.3291    6.8100    0.0000 H   0  0  0  0  0  0  0  0  0  0  0  0
    3.1350    6.8100    0.0000 H   0  0  0  0  0  0  0  0  0  0  0  0
    0.3291    8.4300    0.0000 H   0  0  0  0  0  0  0  0  0  0  0  0
    3.1350    8.4300    0.0000 H   0  0  0  0  0  0  0  0  0  0  0  0
    1.7320    9.2400    0.0000 H   0  0  0  0  0  0  0  0  0  0  0  0
    6.2087    4.3700    0.0000 H   0  0  0  0  0  0  0  0  0  0  0  0
  1 40  1  0  0  0  0
  2  5  1  0  0  0  0
  2 14  1  0  0  0  0
  3 11  2  0  0  0  0
  4  8  1  0  0  0  0
  4  9  1  0  0  0  0
  4 12  1  0  0  0  0
  5  6  1  0  0  0  0
  5  7  1  0  0  0  0
  5 10  1  0  0  0  0
  6  8  1  0  0  0  0
  6 21  1  0  0  0  0
  6 22  1  0  0  0  0
  7  9  1  0  0  0  0
  7 23  1  0  0  0  0
  7 24  1  0  0  0  0
  8 25  1  0  0  0  0
  8 26  1  0  0  0  0
  9 27  1  0  0  0  0
  9 28  1  0  0  0  0
 10 11  1  0  0  0  0
 10 29  1  0  0  0  0
 10 30  1  0  0  0  0
 11 13  1  0  0  0  0
 12 31  1  0  0  0  0
 12 32  1  0  0  0  0
 12 33  1  0  0  0  0
 13 14  2  0  0  0  0
 13 15  1  0  0  0  0
 14 34  1  0  0  0  0
 15 16  2  0  0  0  0
 15 17  1  0  0  0  0
 16 18  1  0  0  0  0
 16 35  1  0  0  0  0
 17 19  2  0  0  0  0
 17 36  1  0  0  0  0
 18 20  2  0  0  0  0
 18 37  1  0  0  0  0
 19 20  1  0  0  0  0
 19 38  1  0  0  0  0
 20 39  1  0  0  0  0
M  END
> <PUBCHEM_COMPOUND_CID>
45264511

> <PUBCHEM_COMPOUND_CANONICALIZED>
1

> <PUBCHEM_CACTVS_COMPLEXITY>
374

> <PUBCHEM_CACTVS_HBOND_ACCEPTOR>
3

> <PUBCHEM_CACTVS_HBOND_DONOR>
1

> <PUBCHEM_CACTVS_ROTATABLE_BOND>
1

> <PUBCHEM_CACTVS_SUBSKEYS>
AAADceB6MAAEAAAAAAAAAAAAAAAAAAAAAAA8QIAAAAAAAAABAAAAHgAAAAAADEThmAYyAIMABACIAqBSAAACCAAgIAAIiAEIAMgIIDaAlRCEIAAmoACIiIeYyfCOAAAAAAAAAAAAAAAAAAAAAAAAAAAAAA==

> <PUBCHEM_IUPAC_OPENEYE_NAME>
9-methyl-3-phenyl-1-oxa-9-azaspiro[5.5]undec-2-en-4-one;hydrochloride

> <PUBCHEM_IUPAC_CAS_NAME>
9-methyl-3-phenyl-1-oxa-9-azaspiro[5.5]undec-2-en-4-one;hydrochloride

> <PUBCHEM_IUPAC_NAME_MARKUP>
9-methyl-3-phenyl-1-oxa-9-azaspiro[5.5]undec-2-en-4-one;hydrochloride

> <PUBCHEM_IUPAC_NAME>
9-methyl-3-phenyl-1-oxa-9-azaspiro[5.5]undec-2-en-4-one;hydrochloride

> <PUBCHEM_IUPAC_SYSTEMATIC_NAME>
9-methyl-3-phenyl-1-oxa-9-azaspiro[5.5]undec-2-en-4-one;hydrochloride

> <PUBCHEM_IUPAC_TRADITIONAL_NAME>
9-methyl-3-phenyl-1-oxa-9-azaspiro[5.5]undec-2-en-4-one;hydrochloride

> <PUBCHEM_IUPAC_INCHI>
InChI=1S/C16H19NO2.ClH/c1-17-9-7-16(8-10-17)11-15(18)14(12-19-16)13-5-3-2-4-6-13;/h2-6,12H,7-11H2,1H3;1H

> <PUBCHEM_IUPAC_INCHIKEY>
QPJFEVDYPNWRFV-UHFFFAOYSA-N

> <PUBCHEM_EXACT_MASS>
293.1182566

> <PUBCHEM_MOLECULAR_FORMULA>
C16H20ClNO2

> <PUBCHEM_MOLECULAR_WEIGHT>
293.79

> <PUBCHEM_OPENEYE_CAN_SMILES>
CN1CCC2(CC1)CC(=O)C(=CO2)C3=CC=CC=C3.Cl

> <PUBCHEM_OPENEYE_ISO_SMILES>
CN1CCC2(CC1)CC(=O)C(=CO2)C3=CC=CC=C3.Cl

> <PUBCHEM_CACTVS_TPSA>
29.5

> <PUBCHEM_MONOISOTOPIC_WEIGHT>
293.1182566

> <PUBCHEM_TOTAL_CHARGE>
0

> <PUBCHEM_HEAVY_ATOM_COUNT>
20

> <PUBCHEM_ATOM_DEF_STEREO_COUNT>
0

> <PUBCHEM_ATOM_UDEF_STEREO_COUNT>
0

> <PUBCHEM_BOND_DEF_STEREO_COUNT>
0

> <PUBCHEM_BOND_UDEF_STEREO_COUNT>
0

> <PUBCHEM_ISOTOPIC_ATOM_COUNT>
0

> <PUBCHEM_COMPONENT_COUNT>
2

> <PUBCHEM_CACTVS_TAUTO_COUNT>
-1

> <PUBCHEM_COORDINATE_TYPE>
1
5
255

> <PUBCHEM_BONDANNOTATIONS>
15  16  8
15  17  8
16  18  8
17  19  8
18  20  8
19  20  8

$$$$
