155540807
  -OEChem-09292322402D

 71 76  0     1  0  0  0  0  0999 V2000
    5.1346   -3.3342    0.0000 O   0  0  0  0  0  0  0  0  0  0  0  0
    8.4843   -2.2523    0.0000 O   0  0  0  0  0  0  0  0  0  0  0  0
    2.8660   -4.9013    0.0000 O   0  0  0  0  0  0  0  0  0  0  0  0
    7.1425    1.8108    0.0000 N   0  0  0  0  0  0  0  0  0  0  0  0
    6.7238   -2.5280    0.0000 N   0  0  0  0  0  0  0  0  0  0  0  0
    5.2744    5.9676    0.0000 N   0  0  0  0  0  0  0  0  0  0  0  0
    6.4103   -6.7060    0.0000 N   0  0  0  0  0  0  0  0  0  0  0  0
    6.5278    3.7139    0.0000 C   0  0  0  0  0  0  0  0  0  0  0  0
    7.5056    3.5043    0.0000 C   0  0  0  0  0  0  0  0  0  0  0  0
    5.8574    2.9720    0.0000 C   0  0  0  0  0  0  0  0  0  0  0  0
    7.8129    2.5527    0.0000 C   0  0  0  0  0  0  0  0  0  0  0  0
    6.1647    2.0204    0.0000 C   0  0  0  0  0  0  0  0  0  0  0  0
    7.4499    0.8592    0.0000 C   0  0  0  0  0  0  0  0  0  0  0  0
    6.2204    4.6655    0.0000 C   0  0  0  0  0  0  0  0  0  0  0  0
    6.7795    0.1172    0.0000 C   0  0  0  0  0  0  0  0  0  0  0  0
    7.0868   -0.8344    0.0000 C   0  0  0  0  0  0  0  0  0  0  0  0
    6.8068    5.4682    0.0000 C   0  0  0  0  0  0  0  0  0  0  0  0
    6.4164   -1.5764    0.0000 C   0  0  0  0  0  0  0  0  0  0  0  0
    6.7210   -4.1460    0.0000 C   0  0  3  0  0  0  0  0  0  0  0  0
    5.2752    4.9735    0.0000 C   0  0  0  0  0  0  0  0  0  0  0  0
    7.6726   -3.8386    0.0000 C   0  0  0  0  0  0  0  0  0  0  0  0
    6.2190    6.2773    0.0000 C   0  0  0  0  0  0  0  0  0  0  0  0
    6.1346   -3.3360    0.0000 C   0  0  0  0  0  0  0  0  0  0  0  0
    7.6743   -2.8386    0.0000 C   0  0  0  0  0  0  0  0  0  0  0  0
    6.4103   -5.0965    0.0000 C   0  0  0  0  0  0  0  0  0  0  0  0
    7.8013    5.5728    0.0000 C   0  0  0  0  0  0  0  0  0  0  0  0
    5.4641   -5.4013    0.0000 C   0  0  0  0  0  0  0  0  0  0  0  0
    6.6257    7.1908    0.0000 C   0  0  0  0  0  0  0  0  0  0  0  0
    6.9939   -5.9013    0.0000 C   0  0  0  0  0  0  0  0  0  0  0  0
    5.4641   -6.4013    0.0000 C   0  0  0  0  0  0  0  0  0  0  0  0
    8.2080    6.4863    0.0000 C   0  0  0  0  0  0  0  0  0  0  0  0
    7.6202    7.2953    0.0000 C   0  0  0  0  0  0  0  0  0  0  0  0
    4.5981   -4.9013    0.0000 C   0  0  0  0  0  0  0  0  0  0  0  0
    4.5981   -6.9013    0.0000 C   0  0  0  0  0  0  0  0  0  0  0  0
    3.7320   -5.4013    0.0000 C   0  0  0  0  0  0  0  0  0  0  0  0
    3.7320   -6.4013    0.0000 C   0  0  0  0  0  0  0  0  0  0  0  0
    2.0000   -5.4013    0.0000 C   0  0  0  0  0  0  0  0  0  0  0  0
    5.9215    3.8439    0.0000 H   0  0  0  0  0  0  0  0  0  0  0  0
    8.1197    3.5896    0.0000 H   0  0  0  0  0  0  0  0  0  0  0  0
    7.5283    4.1239    0.0000 H   0  0  0  0  0  0  0  0  0  0  0  0
    5.4765    3.4612    0.0000 H   0  0  0  0  0  0  0  0  0  0  0  0
    5.3094    2.6818    0.0000 H   0  0  0  0  0  0  0  0  0  0  0  0
    8.1938    2.0635    0.0000 H   0  0  0  0  0  0  0  0  0  0  0  0
    8.3608    2.8429    0.0000 H   0  0  0  0  0  0  0  0  0  0  0  0
    5.5506    1.9351    0.0000 H   0  0  0  0  0  0  0  0  0  0  0  0
    6.1420    1.4008    0.0000 H   0  0  0  0  0  0  0  0  0  0  0  0
    7.8307    0.3699    0.0000 H   0  0  0  0  0  0  0  0  0  0  0  0
    7.9978    1.1493    0.0000 H   0  0  0  0  0  0  0  0  0  0  0  0
    6.3986    0.6064    0.0000 H   0  0  0  0  0  0  0  0  0  0  0  0
    6.2315   -0.1729    0.0000 H   0  0  0  0  0  0  0  0  0  0  0  0
    7.4677   -1.3236    0.0000 H   0  0  0  0  0  0  0  0  0  0  0  0
    7.6348   -0.5443    0.0000 H   0  0  0  0  0  0  0  0  0  0  0  0
    6.1085   -4.2420    0.0000 H   0  0  0  0  0  0  0  0  0  0  0  0
    6.0356   -1.0872    0.0000 H   0  0  0  0  0  0  0  0  0  0  0  0
    5.8685   -1.8665    0.0000 H   0  0  0  0  0  0  0  0  0  0  0  0
    4.7736    4.6091    0.0000 H   0  0  0  0  0  0  0  0  0  0  0  0
    7.8004   -4.4453    0.0000 H   0  0  0  0  0  0  0  0  0  0  0  0
    8.2893   -3.7749    0.0000 H   0  0  0  0  0  0  0  0  0  0  0  0
    4.7722    6.3312    0.0000 H   0  0  0  0  0  0  0  0  0  0  0  0
    8.1657    5.0712    0.0000 H   0  0  0  0  0  0  0  0  0  0  0  0
    6.2613    7.6924    0.0000 H   0  0  0  0  0  0  0  0  0  0  0  0
    7.6139   -5.9013    0.0000 H   0  0  0  0  0  0  0  0  0  0  0  0
    8.8246    6.5511    0.0000 H   0  0  0  0  0  0  0  0  0  0  0  0
    6.6029   -7.2953    0.0000 H   0  0  0  0  0  0  0  0  0  0  0  0
    7.8724    7.8617    0.0000 H   0  0  0  0  0  0  0  0  0  0  0  0
    4.5981   -4.2813    0.0000 H   0  0  0  0  0  0  0  0  0  0  0  0
    4.5981   -7.5213    0.0000 H   0  0  0  0  0  0  0  0  0  0  0  0
    3.1951   -6.7113    0.0000 H   0  0  0  0  0  0  0  0  0  0  0  0
    1.6900   -4.8643    0.0000 H   0  0  0  0  0  0  0  0  0  0  0  0
    1.4631   -5.7113    0.0000 H   0  0  0  0  0  0  0  0  0  0  0  0
    2.3100   -5.9382    0.0000 H   0  0  0  0  0  0  0  0  0  0  0  0
  1 23  2  0  0  0  0
  2 24  2  0  0  0  0
  3 35  1  0  0  0  0
  3 37  1  0  0  0  0
  4 11  1  0  0  0  0
  4 12  1  0  0  0  0
  4 13  1  0  0  0  0
  5 18  1  0  0  0  0
  5 23  1  0  0  0  0
  5 24  1  0  0  0  0
  6 20  1  0  0  0  0
  6 22  1  0  0  0  0
  6 59  1  0  0  0  0
  7 29  1  0  0  0  0
  7 30  1  0  0  0  0
  7 64  1  0  0  0  0
  8  9  1  0  0  0  0
  8 10  1  0  0  0  0
  8 14  1  0  0  0  0
  8 38  1  0  0  0  0
  9 11  1  0  0  0  0
  9 39  1  0  0  0  0
  9 40  1  0  0  0  0
 10 12  1  0  0  0  0
 10 41  1  0  0  0  0
 10 42  1  0  0  0  0
 11 43  1  0  0  0  0
 11 44  1  0  0  0  0
 12 45  1  0  0  0  0
 12 46  1  0  0  0  0
 13 15  1  0  0  0  0
 13 47  1  0  0  0  0
 13 48  1  0  0  0  0
 14 17  1  0  0  0  0
 14 20  2  0  0  0  0
 15 16  1  0  0  0  0
 15 49  1  0  0  0  0
 15 50  1  0  0  0  0
 16 18  1  0  0  0  0
 16 51  1  0  0  0  0
 16 52  1  0  0  0  0
 17 22  1  0  0  0  0
 17 26  2  0  0  0  0
 18 54  1  0  0  0  0
 18 55  1  0  0  0  0
 19 21  1  0  0  0  0
 19 23  1  0  0  0  0
 19 25  1  0  0  0  0
 19 53  1  0  0  0  0
 20 56  1  0  0  0  0
 21 24  1  0  0  0  0
 21 57  1  0  0  0  0
 21 58  1  0  0  0  0
 22 28  2  0  0  0  0
 25 27  1  0  0  0  0
 25 29  2  0  0  0  0
 26 31  1  0  0  0  0
 26 60  1  0  0  0  0
 27 30  2  0  0  0  0
 27 33  1  0  0  0  0
 28 32  1  0  0  0  0
 28 61  1  0  0  0  0
 29 62  1  0  0  0  0
 30 34  1  0  0  0  0
 31 32  2  0  0  0  0
 31 63  1  0  0  0  0
 32 65  1  0  0  0  0
 33 35  2  0  0  0  0
 33 66  1  0  0  0  0
 34 36  2  0  0  0  0
 34 67  1  0  0  0  0
 35 36  1  0  0  0  0
 36 68  1  0  0  0  0
 37 69  1  0  0  0  0
 37 70  1  0  0  0  0
 37 71  1  0  0  0  0
M  END
> <PUBCHEM_COMPOUND_CID>
155540807

> <PUBCHEM_COMPOUND_CANONICALIZED>
1

> <PUBCHEM_CACTVS_COMPLEXITY>
815

> <PUBCHEM_CACTVS_HBOND_ACCEPTOR>
4

> <PUBCHEM_CACTVS_HBOND_DONOR>
2

> <PUBCHEM_CACTVS_ROTATABLE_BOND>
8

> <PUBCHEM_CACTVS_SUBSKEYS>
AAADcfB7sAAAAAAAAAAAAAAAAAAAAWLFgAA8YIAAAAAAAFgB/gAAHgAQAAAADQzBngY+xvPJlACoAzV3VACCiCAxIiAI2aE+bJgMJvLEtZuEMChk1jHI6Ae92fKegEABAAACAAAAgAIAAAQAAAAAAAAAAA==

> <PUBCHEM_IUPAC_OPENEYE_NAME>
1-[4-[4-(1H-indol-3-yl)-1-piperidyl]butyl]-3-(5-methoxy-1H-indol-3-yl)pyrrolidine-2,5-dione

> <PUBCHEM_IUPAC_CAS_NAME>
1-[4-[4-(1H-indol-3-yl)-1-piperidinyl]butyl]-3-(5-methoxy-1H-indol-3-yl)pyrrolidine-2,5-dione

> <PUBCHEM_IUPAC_NAME_MARKUP>
1-[4-[4-(1<I>H</I>-indol-3-yl)piperidin-1-yl]butyl]-3-(5-methoxy-1<I>H</I>-indol-3-yl)pyrrolidine-2,5-dione

> <PUBCHEM_IUPAC_NAME>
1-[4-[4-(1H-indol-3-yl)piperidin-1-yl]butyl]-3-(5-methoxy-1H-indol-3-yl)pyrrolidine-2,5-dione

> <PUBCHEM_IUPAC_SYSTEMATIC_NAME>
1-[4-[4-(1H-indol-3-yl)piperidin-1-yl]butyl]-3-(5-methoxy-1H-indol-3-yl)pyrrolidine-2,5-dione

> <PUBCHEM_IUPAC_TRADITIONAL_NAME>
1-[4-[4-(1H-indol-3-yl)piperidino]butyl]-3-(5-methoxy-1H-indol-3-yl)pyrrolidine-2,5-quinone

> <PUBCHEM_IUPAC_INCHI>
InChI=1S/C30H34N4O3/c1-37-21-8-9-28-23(16-21)26(19-32-28)24-17-29(35)34(30(24)36)13-5-4-12-33-14-10-20(11-15-33)25-18-31-27-7-3-2-6-22(25)27/h2-3,6-9,16,18-20,24,31-32H,4-5,10-15,17H2,1H3

> <PUBCHEM_IUPAC_INCHIKEY>
ZUDVHWCNTPJCDE-UHFFFAOYSA-N

> <PUBCHEM_XLOGP3_AA>
4.1

> <PUBCHEM_EXACT_MASS>
498.26309096

> <PUBCHEM_MOLECULAR_FORMULA>
C30H34N4O3

> <PUBCHEM_MOLECULAR_WEIGHT>
498.6

> <PUBCHEM_OPENEYE_CAN_SMILES>
COC1=CC2=C(C=C1)NC=C2C3CC(=O)N(C3=O)CCCCN4CCC(CC4)C5=CNC6=CC=CC=C65

> <PUBCHEM_OPENEYE_ISO_SMILES>
COC1=CC2=C(C=C1)NC=C2C3CC(=O)N(C3=O)CCCCN4CCC(CC4)C5=CNC6=CC=CC=C65

> <PUBCHEM_CACTVS_TPSA>
81.4

> <PUBCHEM_MONOISOTOPIC_WEIGHT>
498.26309096

> <PUBCHEM_TOTAL_CHARGE>
0

> <PUBCHEM_HEAVY_ATOM_COUNT>
37

> <PUBCHEM_ATOM_DEF_STEREO_COUNT>
0

> <PUBCHEM_ATOM_UDEF_STEREO_COUNT>
1

> <PUBCHEM_BOND_DEF_STEREO_COUNT>
0

> <PUBCHEM_BOND_UDEF_STEREO_COUNT>
0

> <PUBCHEM_ISOTOPIC_ATOM_COUNT>
0

> <PUBCHEM_COMPONENT_COUNT>
1

> <PUBCHEM_CACTVS_TAUTO_COUNT>
-1

> <PUBCHEM_COORDINATE_TYPE>
1
5
255

> <PUBCHEM_BONDANNOTATIONS>
14  17  8
14  20  8
17  22  8
17  26  8
19  25  3
22  28  8
25  27  8
25  29  8
26  31  8
27  30  8
27  33  8
28  32  8
30  34  8
31  32  8
33  35  8
34  36  8
35  36  8
6  20  8
6  22  8
7  29  8
7  30  8

$$$$
