10429067
  -OEChem-09292322102D

 60 62  0     1  0  0  0  0  0999 V2000
    9.8105   -1.7874    0.0000 O   0  0  0  0  0  0  0  0  0  0  0  0
    6.3466   -1.7473    0.0000 O   0  0  0  0  0  0  0  0  0  0  0  0
    4.5981    1.2672    0.0000 N   0  0  0  0  0  0  0  0  0  0  0  0
    5.4641    0.7672    0.0000 C   0  0  1  0  0  0  0  0  0  0  0  0
    5.4641   -0.2328    0.0000 C   0  0  0  0  0  0  0  0  0  0  0  0
    6.3301    1.2672    0.0000 C   0  0  0  0  0  0  0  0  0  0  0  0
    6.3301   -0.7328    0.0000 C   0  0  0  0  0  0  0  0  0  0  0  0
    7.1962    0.7672    0.0000 C   0  0  0  0  0  0  0  0  0  0  0  0
    7.1962   -0.2328    0.0000 C   0  0  0  0  0  0  0  0  0  0  0  0
    4.5981    2.2672    0.0000 C   0  0  0  0  0  0  0  0  0  0  0  0
    3.7320    0.7672    0.0000 C   0  0  0  0  0  0  0  0  0  0  0  0
    8.0901   -0.7674    0.0000 C   0  0  0  0  0  0  0  0  0  0  0  0
    8.0901    1.3019    0.0000 C   0  0  0  0  0  0  0  0  0  0  0  0
    3.7320    2.7672    0.0000 C   0  0  0  0  0  0  0  0  0  0  0  0
    2.8660    1.2672    0.0000 C   0  0  0  0  0  0  0  0  0  0  0  0
    8.9962   -0.2536    0.0000 C   0  0  0  0  0  0  0  0  0  0  0  0
    8.9962    0.7880    0.0000 C   0  0  0  0  0  0  0  0  0  0  0  0
    8.0785   -1.7674    0.0000 C   0  0  0  0  0  0  0  0  0  0  0  0
    3.7320    3.7672    0.0000 C   0  0  0  0  0  0  0  0  0  0  0  0
    2.0000    0.7672    0.0000 C   0  0  0  0  0  0  0  0  0  0  0  0
    8.9387   -2.2773    0.0000 C   0  0  0  0  0  0  0  0  0  0  0  0
    7.2068   -2.2573    0.0000 C   0  0  0  0  0  0  0  0  0  0  0  0
    8.9271   -3.2773    0.0000 C   0  0  0  0  0  0  0  0  0  0  0  0
    7.1952   -3.2572    0.0000 C   0  0  0  0  0  0  0  0  0  0  0  0
    8.0554   -3.7672    0.0000 C   0  0  0  0  0  0  0  0  0  0  0  0
   10.6707   -2.2974    0.0000 C   0  0  0  0  0  0  0  0  0  0  0  0
    5.4748   -2.2373    0.0000 C   0  0  0  0  0  0  0  0  0  0  0  0
    4.9272    0.4572    0.0000 H   0  0  0  0  0  0  0  0  0  0  0  0
    4.8535   -0.1251    0.0000 H   0  0  0  0  0  0  0  0  0  0  0  0
    5.2520   -0.8154    0.0000 H   0  0  0  0  0  0  0  0  0  0  0  0
    6.7287    1.7422    0.0000 H   0  0  0  0  0  0  0  0  0  0  0  0
    5.9316    1.7422    0.0000 H   0  0  0  0  0  0  0  0  0  0  0  0
    5.9316   -1.2077    0.0000 H   0  0  0  0  0  0  0  0  0  0  0  0
    6.7287   -1.2077    0.0000 H   0  0  0  0  0  0  0  0  0  0  0  0
    5.2087    2.1596    0.0000 H   0  0  0  0  0  0  0  0  0  0  0  0
    4.8101    2.8498    0.0000 H   0  0  0  0  0  0  0  0  0  0  0  0
    3.3335    0.2923    0.0000 H   0  0  0  0  0  0  0  0  0  0  0  0
    4.1306    0.2923    0.0000 H   0  0  0  0  0  0  0  0  0  0  0  0
    8.0829    1.9218    0.0000 H   0  0  0  0  0  0  0  0  0  0  0  0
    3.1215    2.8749    0.0000 H   0  0  0  0  0  0  0  0  0  0  0  0
    3.5200    2.1846    0.0000 H   0  0  0  0  0  0  0  0  0  0  0  0
    3.2646    1.7422    0.0000 H   0  0  0  0  0  0  0  0  0  0  0  0
    2.4675    1.7422    0.0000 H   0  0  0  0  0  0  0  0  0  0  0  0
    9.5319   -0.5657    0.0000 H   0  0  0  0  0  0  0  0  0  0  0  0
    9.5319    1.1001    0.0000 H   0  0  0  0  0  0  0  0  0  0  0  0
    4.3520    3.7672    0.0000 H   0  0  0  0  0  0  0  0  0  0  0  0
    3.7320    4.3872    0.0000 H   0  0  0  0  0  0  0  0  0  0  0  0
    3.1120    3.7672    0.0000 H   0  0  0  0  0  0  0  0  0  0  0  0
    1.6900    1.3042    0.0000 H   0  0  0  0  0  0  0  0  0  0  0  0
    1.4631    0.4572    0.0000 H   0  0  0  0  0  0  0  0  0  0  0  0
    2.3100    0.2303    0.0000 H   0  0  0  0  0  0  0  0  0  0  0  0
    9.4605   -3.5935    0.0000 H   0  0  0  0  0  0  0  0  0  0  0  0
    6.6547   -3.5610    0.0000 H   0  0  0  0  0  0  0  0  0  0  0  0
    8.0482   -4.3872    0.0000 H   0  0  0  0  0  0  0  0  0  0  0  0
   10.3545   -2.8307    0.0000 H   0  0  0  0  0  0  0  0  0  0  0  0
   11.2040   -2.6136    0.0000 H   0  0  0  0  0  0  0  0  0  0  0  0
   10.9868   -1.7641    0.0000 H   0  0  0  0  0  0  0  0  0  0  0  0
    5.1711   -1.6968    0.0000 H   0  0  0  0  0  0  0  0  0  0  0  0
    4.9344   -2.5411    0.0000 H   0  0  0  0  0  0  0  0  0  0  0  0
    5.7786   -2.7778    0.0000 H   0  0  0  0  0  0  0  0  0  0  0  0
  1 21  1  0  0  0  0
  1 26  1  0  0  0  0
  2 22  1  0  0  0  0
  2 27  1  0  0  0  0
  4  3  1  6  0  0  0
  3 10  1  0  0  0  0
  3 11  1  0  0  0  0
  4  5  1  0  0  0  0
  4  6  1  0  0  0  0
  4 28  1  0  0  0  0
  5  7  1  0  0  0  0
  5 29  1  0  0  0  0
  5 30  1  0  0  0  0
  6  8  1  0  0  0  0
  6 31  1  0  0  0  0
  6 32  1  0  0  0  0
  7  9  1  0  0  0  0
  7 33  1  0  0  0  0
  7 34  1  0  0  0  0
  8  9  2  0  0  0  0
  8 13  1  0  0  0  0
  9 12  1  0  0  0  0
 10 14  1  0  0  0  0
 10 35  1  0  0  0  0
 10 36  1  0  0  0  0
 11 15  1  0  0  0  0
 11 37  1  0  0  0  0
 11 38  1  0  0  0  0
 12 16  2  0  0  0  0
 12 18  1  0  0  0  0
 13 17  2  0  0  0  0
 13 39  1  0  0  0  0
 14 19  1  0  0  0  0
 14 40  1  0  0  0  0
 14 41  1  0  0  0  0
 15 20  1  0  0  0  0
 15 42  1  0  0  0  0
 15 43  1  0  0  0  0
 16 17  1  0  0  0  0
 16 44  1  0  0  0  0
 17 45  1  0  0  0  0
 18 21  2  0  0  0  0
 18 22  1  0  0  0  0
 19 46  1  0  0  0  0
 19 47  1  0  0  0  0
 19 48  1  0  0  0  0
 20 49  1  0  0  0  0
 20 50  1  0  0  0  0
 20 51  1  0  0  0  0
 21 23  1  0  0  0  0
 22 24  2  0  0  0  0
 23 25  2  0  0  0  0
 23 52  1  0  0  0  0
 24 25  1  0  0  0  0
 24 53  1  0  0  0  0
 25 54  1  0  0  0  0
 26 55  1  0  0  0  0
 26 56  1  0  0  0  0
 26 57  1  0  0  0  0
 27 58  1  0  0  0  0
 27 59  1  0  0  0  0
 27 60  1  0  0  0  0
M  END
> <PUBCHEM_COMPOUND_CID>
10429067

> <PUBCHEM_COMPOUND_CANONICALIZED>
1

> <PUBCHEM_CACTVS_COMPLEXITY>
411

> <PUBCHEM_CACTVS_HBOND_ACCEPTOR>
3

> <PUBCHEM_CACTVS_HBOND_DONOR>
0

> <PUBCHEM_CACTVS_ROTATABLE_BOND>
8

> <PUBCHEM_CACTVS_SUBSKEYS>
AAADcfB6MAAAAAAAAAAAAAAAAAAAAAAAAAAwYMAAAAAAAADBQAAAHgAAAAAADCzBmAYyBoMABACAAiBCAAACCAAgIAAIiAAOCIgMJyKEsRuEMCAlwBWIqAeQ4PwOgAACCAAYAAAQAASQADAAAAAAAAAAAA==

> <PUBCHEM_IUPAC_OPENEYE_NAME>
(2S)-5-(2,6-dimethoxyphenyl)-N,N-dipropyl-tetralin-2-amine

> <PUBCHEM_IUPAC_CAS_NAME>
(2S)-5-(2,6-dimethoxyphenyl)-N,N-dipropyl-1,2,3,4-tetrahydronaphthalen-2-amine

> <PUBCHEM_IUPAC_NAME_MARKUP>
(2<I>S</I>)-5-(2,6-dimethoxyphenyl)-<I>N</I>,<I>N</I>-dipropyl-1,2,3,4-tetrahydronaphthalen-2-amine

> <PUBCHEM_IUPAC_NAME>
(2S)-5-(2,6-dimethoxyphenyl)-N,N-dipropyl-1,2,3,4-tetrahydronaphthalen-2-amine

> <PUBCHEM_IUPAC_SYSTEMATIC_NAME>
(2S)-5-(2,6-dimethoxyphenyl)-N,N-dipropyl-1,2,3,4-tetrahydronaphthalen-2-amine

> <PUBCHEM_IUPAC_TRADITIONAL_NAME>
[(2S)-5-(2,6-dimethoxyphenyl)tetralin-2-yl]-dipropyl-amine

> <PUBCHEM_IUPAC_INCHI>
InChI=1S/C24H33NO2/c1-5-15-25(16-6-2)19-13-14-20-18(17-19)9-7-10-21(20)24-22(26-3)11-8-12-23(24)27-4/h7-12,19H,5-6,13-17H2,1-4H3/t19-/m0/s1

> <PUBCHEM_IUPAC_INCHIKEY>
UZMHRPBLJWVAII-IBGZPJMESA-N

> <PUBCHEM_XLOGP3_AA>
6

> <PUBCHEM_EXACT_MASS>
367.251129295

> <PUBCHEM_MOLECULAR_FORMULA>
C24H33NO2

> <PUBCHEM_MOLECULAR_WEIGHT>
367.5

> <PUBCHEM_OPENEYE_CAN_SMILES>
CCCN(CCC)C1CCC2=C(C1)C=CC=C2C3=C(C=CC=C3OC)OC

> <PUBCHEM_OPENEYE_ISO_SMILES>
CCCN(CCC)[C@H]1CCC2=C(C1)C=CC=C2C3=C(C=CC=C3OC)OC

> <PUBCHEM_CACTVS_TPSA>
21.7

> <PUBCHEM_MONOISOTOPIC_WEIGHT>
367.251129295

> <PUBCHEM_TOTAL_CHARGE>
0

> <PUBCHEM_HEAVY_ATOM_COUNT>
27

> <PUBCHEM_ATOM_DEF_STEREO_COUNT>
1

> <PUBCHEM_ATOM_UDEF_STEREO_COUNT>
0

> <PUBCHEM_BOND_DEF_STEREO_COUNT>
0

> <PUBCHEM_BOND_UDEF_STEREO_COUNT>
0

> <PUBCHEM_ISOTOPIC_ATOM_COUNT>
0

> <PUBCHEM_COMPONENT_COUNT>
1

> <PUBCHEM_CACTVS_TAUTO_COUNT>
-1

> <PUBCHEM_COORDINATE_TYPE>
1
5
255

> <PUBCHEM_BONDANNOTATIONS>
12  16  8
13  17  8
16  17  8
18  21  8
18  22  8
21  23  8
22  24  8
23  25  8
24  25  8
4  3  6
8  13  8
8  9  8
9  12  8

$$$$
