134150900
  -OEChem-09292322472D

 45 48  0     1  0  0  0  0  0999 V2000
    3.5998    1.2265    0.0000 S   0  0  0  0  0  0  0  0  0  0  0  0
    9.7351   -1.7050    0.0000 O   0  0  0  0  0  0  0  0  0  0  0  0
    2.6493    0.9158    0.0000 O   0  0  0  0  0  0  0  0  0  0  0  0
    4.5504    1.5371    0.0000 O   0  0  0  0  0  0  0  0  0  0  0  0
    5.9625   -3.3695    0.0000 N   0  0  0  0  0  0  0  0  0  0  0  0
    3.9105    0.2759    0.0000 N   0  0  0  0  0  0  0  0  0  0  0  0
    7.0965   -1.8999    0.0000 C   0  0  2  0  0  0  0  0  0  0  0  0
    6.2233   -2.4041    0.0000 C   0  0  2  0  0  0  0  0  0  0  0  0
    5.7227   -1.5288    0.0000 C   0  0  0  0  0  0  0  0  0  0  0  0
    6.5888   -1.0288    0.0000 C   0  0  0  0  0  0  0  0  0  0  0  0
    8.0630   -2.1568    0.0000 C   0  0  0  0  0  0  0  0  0  0  0  0
    4.8567   -1.0288    0.0000 C   0  0  0  0  0  0  0  0  0  0  0  0
    6.5888   -0.0288    0.0000 C   0  0  0  0  0  0  0  0  0  0  0  0
    4.8567   -0.0288    0.0000 C   0  0  0  0  0  0  0  0  0  0  0  0
    5.7227    0.4712    0.0000 C   0  0  0  0  0  0  0  0  0  0  0  0
    8.7686   -1.4482    0.0000 C   0  0  0  0  0  0  0  0  0  0  0  0
    3.9105   -1.3335    0.0000 C   0  0  0  0  0  0  0  0  0  0  0  0
    3.3269   -0.5288    0.0000 C   0  0  0  0  0  0  0  0  0  0  0  0
    6.6681   -4.0780    0.0000 C   0  0  0  0  0  0  0  0  0  0  0  0
    3.2892    2.1770    0.0000 C   0  0  0  0  0  0  0  0  0  0  0  0
    2.3107    2.3832    0.0000 C   0  0  0  0  0  0  0  0  0  0  0  0
    3.9570    2.9213    0.0000 C   0  0  0  0  0  0  0  0  0  0  0  0
    2.0000    3.3337    0.0000 C   0  0  0  0  0  0  0  0  0  0  0  0
    3.6464    3.8718    0.0000 C   0  0  0  0  0  0  0  0  0  0  0  0
    2.6678    4.0780    0.0000 C   0  0  0  0  0  0  0  0  0  0  0  0
    7.4724   -1.4069    0.0000 H   0  0  0  0  0  0  0  0  0  0  0  0
    5.6084   -2.4831    0.0000 H   0  0  0  0  0  0  0  0  0  0  0  0
    7.8021   -2.7192    0.0000 H   0  0  0  0  0  0  0  0  0  0  0  0
    8.5716   -2.5113    0.0000 H   0  0  0  0  0  0  0  0  0  0  0  0
    7.1257    0.2812    0.0000 H   0  0  0  0  0  0  0  0  0  0  0  0
    5.3633   -3.5287    0.0000 H   0  0  0  0  0  0  0  0  0  0  0  0
    5.7227    1.0912    0.0000 H   0  0  0  0  0  0  0  0  0  0  0  0
    9.0295   -0.8857    0.0000 H   0  0  0  0  0  0  0  0  0  0  0  0
    8.2600   -1.0936    0.0000 H   0  0  0  0  0  0  0  0  0  0  0  0
    3.7179   -1.9228    0.0000 H   0  0  0  0  0  0  0  0  0  0  0  0
    2.7069   -0.5288    0.0000 H   0  0  0  0  0  0  0  0  0  0  0  0
    6.2288   -4.5155    0.0000 H   0  0  0  0  0  0  0  0  0  0  0  0
    7.1056   -4.5173    0.0000 H   0  0  0  0  0  0  0  0  0  0  0  0
    7.1074   -3.6405    0.0000 H   0  0  0  0  0  0  0  0  0  0  0  0
   10.1726   -1.2657    0.0000 H   0  0  0  0  0  0  0  0  0  0  0  0
    1.8966    1.9217    0.0000 H   0  0  0  0  0  0  0  0  0  0  0  0
    4.5637    2.7934    0.0000 H   0  0  0  0  0  0  0  0  0  0  0  0
    1.3933    3.4616    0.0000 H   0  0  0  0  0  0  0  0  0  0  0  0
    4.0604    4.3333    0.0000 H   0  0  0  0  0  0  0  0  0  0  0  0
    2.4752    4.6673    0.0000 H   0  0  0  0  0  0  0  0  0  0  0  0
  1  3  2  0  0  0  0
  1  4  2  0  0  0  0
  1  6  1  0  0  0  0
  1 20  1  0  0  0  0
  2 16  1  0  0  0  0
  2 40  1  0  0  0  0
  8  5  1  1  0  0  0
  5 19  1  0  0  0  0
  5 31  1  0  0  0  0
  6 14  1  0  0  0  0
  6 18  1  0  0  0  0
  7  8  1  0  0  0  0
  7 10  1  0  0  0  0
  7 11  1  6  0  0  0
  7 26  1  0  0  0  0
  8  9  1  0  0  0  0
  8 27  1  0  0  0  0
  9 10  2  0  0  0  0
  9 12  1  0  0  0  0
 10 13  1  0  0  0  0
 11 16  1  0  0  0  0
 11 28  1  0  0  0  0
 11 29  1  0  0  0  0
 12 14  2  0  0  0  0
 12 17  1  0  0  0  0
 13 15  2  0  0  0  0
 13 30  1  0  0  0  0
 14 15  1  0  0  0  0
 15 32  1  0  0  0  0
 16 33  1  0  0  0  0
 16 34  1  0  0  0  0
 17 18  2  0  0  0  0
 17 35  1  0  0  0  0
 18 36  1  0  0  0  0
 19 37  1  0  0  0  0
 19 38  1  0  0  0  0
 19 39  1  0  0  0  0
 20 21  2  0  0  0  0
 20 22  1  0  0  0  0
 21 23  1  0  0  0  0
 21 41  1  0  0  0  0
 22 24  2  0  0  0  0
 22 42  1  0  0  0  0
 23 25  2  0  0  0  0
 23 43  1  0  0  0  0
 24 25  1  0  0  0  0
 24 44  1  0  0  0  0
 25 45  1  0  0  0  0
M  END
> <PUBCHEM_COMPOUND_CID>
134150900

> <PUBCHEM_COMPOUND_CANONICALIZED>
1

> <PUBCHEM_CACTVS_COMPLEXITY>
570

> <PUBCHEM_CACTVS_HBOND_ACCEPTOR>
4

> <PUBCHEM_CACTVS_HBOND_DONOR>
2

> <PUBCHEM_CACTVS_ROTATABLE_BOND>
5

> <PUBCHEM_CACTVS_SUBSKEYS>
AAADceB7MABAAAAAAAAAAAAAAABgAWAAAAAwYAAAAAAYAFgB9AAAHgQQSAAADSjh3gY+wfLIEgKgAzRnRHDCgDAxAiAI2Lg4ZJgIMOLAkZGEYAhkkADIyAewwPAOiAACQAASAAAQAASAACQAAAAAAAAAAA==

> <PUBCHEM_IUPAC_OPENEYE_NAME>
2-[(6S,7R)-3-(benzenesulfonyl)-7-(methylamino)-6,7-dihydrocyclobuta[e]indol-6-yl]ethanol

> <PUBCHEM_IUPAC_CAS_NAME>
2-[(6S,7R)-3-(benzenesulfonyl)-7-(methylamino)-6,7-dihydrocyclobuta[e]indol-6-yl]ethanol

> <PUBCHEM_IUPAC_NAME_MARKUP>
2-[(6<I>S</I>,7<I>R</I>)-3-(benzenesulfonyl)-7-(methylamino)-6,7-dihydrocyclobuta[e]indol-6-yl]ethanol

> <PUBCHEM_IUPAC_NAME>
2-[(6S,7R)-3-(benzenesulfonyl)-7-(methylamino)-6,7-dihydrocyclobuta[e]indol-6-yl]ethanol

> <PUBCHEM_IUPAC_SYSTEMATIC_NAME>
2-[(6S,7R)-7-(methylamino)-3-(phenylsulfonyl)-6,7-dihydrocyclobuta[e]indol-6-yl]ethanol

> <PUBCHEM_IUPAC_TRADITIONAL_NAME>
2-[(6S,7R)-3-besyl-7-(methylamino)-6,7-dihydrocyclobut[e]indol-6-yl]ethanol

> <PUBCHEM_IUPAC_INCHI>
InChI=1S/C19H20N2O3S/c1-20-19-15(10-12-22)14-7-8-17-16(18(14)19)9-11-21(17)25(23,24)13-5-3-2-4-6-13/h2-9,11,15,19-20,22H,10,12H2,1H3/t15-,19+/m0/s1

> <PUBCHEM_IUPAC_INCHIKEY>
QBRPGZFNANDQNL-HNAYVOBHSA-N

> <PUBCHEM_XLOGP3_AA>
1.2

> <PUBCHEM_EXACT_MASS>
356.11946368

> <PUBCHEM_MOLECULAR_FORMULA>
C19H20N2O3S

> <PUBCHEM_MOLECULAR_WEIGHT>
356.4

> <PUBCHEM_OPENEYE_CAN_SMILES>
CNC1C(C2=C1C3=C(C=C2)N(C=C3)S(=O)(=O)C4=CC=CC=C4)CCO

> <PUBCHEM_OPENEYE_ISO_SMILES>
CN[C@@H]1[C@H](C2=C1C3=C(C=C2)N(C=C3)S(=O)(=O)C4=CC=CC=C4)CCO

> <PUBCHEM_CACTVS_TPSA>
79.7

> <PUBCHEM_MONOISOTOPIC_WEIGHT>
356.11946368

> <PUBCHEM_TOTAL_CHARGE>
0

> <PUBCHEM_HEAVY_ATOM_COUNT>
25

> <PUBCHEM_ATOM_DEF_STEREO_COUNT>
2

> <PUBCHEM_ATOM_UDEF_STEREO_COUNT>
0

> <PUBCHEM_BOND_DEF_STEREO_COUNT>
0

> <PUBCHEM_BOND_UDEF_STEREO_COUNT>
0

> <PUBCHEM_ISOTOPIC_ATOM_COUNT>
0

> <PUBCHEM_COMPONENT_COUNT>
1

> <PUBCHEM_CACTVS_TAUTO_COUNT>
-1

> <PUBCHEM_COORDINATE_TYPE>
1
5
255

> <PUBCHEM_BONDANNOTATIONS>
10  13  8
12  14  8
12  17  8
13  15  8
14  15  8
17  18  8
20  21  8
20  22  8
21  23  8
22  24  8
23  25  8
24  25  8
8  5  5
6  14  8
6  18  8
7  11  6
9  10  8
9  12  8

$$$$
