51122451
  -OEChem-09292322472D

 55 58  0     0  0  0  0  0  0999 V2000
    4.6783    0.4273    0.0000 O   0  0  0  0  0  0  0  0  0  0  0  0
    6.7619    2.0981    0.0000 O   0  0  0  0  0  0  0  0  0  0  0  0
   10.7619   -1.3660    0.0000 N   0  0  0  0  0  0  0  0  0  0  0  0
   12.7619   -1.3660    0.0000 N   0  0  0  0  0  0  0  0  0  0  0  0
    6.7619    0.3660    0.0000 N   0  0  0  0  0  0  0  0  0  0  0  0
   11.2619   -2.2320    0.0000 C   0  0  0  0  0  0  0  0  0  0  0  0
   11.2619   -0.5000    0.0000 C   0  0  0  0  0  0  0  0  0  0  0  0
   12.2619   -2.2320    0.0000 C   0  0  0  0  0  0  0  0  0  0  0  0
   12.2619   -0.5000    0.0000 C   0  0  0  0  0  0  0  0  0  0  0  0
    9.7619   -1.3660    0.0000 C   0  0  0  0  0  0  0  0  0  0  0  0
    9.2619   -0.5000    0.0000 C   0  0  0  0  0  0  0  0  0  0  0  0
    8.2619   -0.5000    0.0000 C   0  0  0  0  0  0  0  0  0  0  0  0
   13.7619   -1.3660    0.0000 C   0  0  0  0  0  0  0  0  0  0  0  0
    7.7619    0.3660    0.0000 C   0  0  0  0  0  0  0  0  0  0  0  0
   14.2619   -0.5000    0.0000 C   0  0  0  0  0  0  0  0  0  0  0  0
   14.2619   -2.2320    0.0000 C   0  0  0  0  0  0  0  0  0  0  0  0
   15.2619   -0.5000    0.0000 C   0  0  0  0  0  0  0  0  0  0  0  0
   15.2619   -2.2320    0.0000 C   0  0  0  0  0  0  0  0  0  0  0  0
   15.7619   -1.3660    0.0000 C   0  0  0  0  0  0  0  0  0  0  0  0
    6.2619    1.2320    0.0000 C   0  0  0  0  0  0  0  0  0  0  0  0
    5.2619    1.2320    0.0000 C   0  0  0  0  0  0  0  0  0  0  0  0
    4.6783    2.0368    0.0000 C   0  0  0  0  0  0  0  0  0  0  0  0
    3.7320    1.7320    0.0000 C   0  0  0  0  0  0  0  0  0  0  0  0
    3.7320    0.7321    0.0000 C   0  0  0  0  0  0  0  0  0  0  0  0
    2.8660    2.2320    0.0000 C   0  0  0  0  0  0  0  0  0  0  0  0
    2.8660    0.2321    0.0000 C   0  0  0  0  0  0  0  0  0  0  0  0
    2.0000    1.7320    0.0000 C   0  0  0  0  0  0  0  0  0  0  0  0
    2.0000    0.7321    0.0000 C   0  0  0  0  0  0  0  0  0  0  0  0
   10.6793   -2.4441    0.0000 H   0  0  0  0  0  0  0  0  0  0  0  0
   11.3695   -2.8426    0.0000 H   0  0  0  0  0  0  0  0  0  0  0  0
   11.3695    0.1106    0.0000 H   0  0  0  0  0  0  0  0  0  0  0  0
   10.6793   -0.2879    0.0000 H   0  0  0  0  0  0  0  0  0  0  0  0
   12.1542   -2.8426    0.0000 H   0  0  0  0  0  0  0  0  0  0  0  0
   12.8445   -2.4441    0.0000 H   0  0  0  0  0  0  0  0  0  0  0  0
   12.8445   -0.2879    0.0000 H   0  0  0  0  0  0  0  0  0  0  0  0
   12.1542    0.1106    0.0000 H   0  0  0  0  0  0  0  0  0  0  0  0
    9.1793   -1.5781    0.0000 H   0  0  0  0  0  0  0  0  0  0  0  0
    9.8695   -1.9766    0.0000 H   0  0  0  0  0  0  0  0  0  0  0  0
    9.8445   -0.2879    0.0000 H   0  0  0  0  0  0  0  0  0  0  0  0
    9.1542    0.1106    0.0000 H   0  0  0  0  0  0  0  0  0  0  0  0
    7.6793   -0.7121    0.0000 H   0  0  0  0  0  0  0  0  0  0  0  0
    8.3695   -1.1106    0.0000 H   0  0  0  0  0  0  0  0  0  0  0  0
    8.3445    0.5781    0.0000 H   0  0  0  0  0  0  0  0  0  0  0  0
    7.6542    0.9766    0.0000 H   0  0  0  0  0  0  0  0  0  0  0  0
   13.9519    0.0369    0.0000 H   0  0  0  0  0  0  0  0  0  0  0  0
   13.9519   -2.7690    0.0000 H   0  0  0  0  0  0  0  0  0  0  0  0
    6.4519   -0.1709    0.0000 H   0  0  0  0  0  0  0  0  0  0  0  0
   15.5719    0.0369    0.0000 H   0  0  0  0  0  0  0  0  0  0  0  0
   15.5719   -2.7690    0.0000 H   0  0  0  0  0  0  0  0  0  0  0  0
   16.3819   -1.3660    0.0000 H   0  0  0  0  0  0  0  0  0  0  0  0
    4.8709    2.6261    0.0000 H   0  0  0  0  0  0  0  0  0  0  0  0
    2.8660    2.8521    0.0000 H   0  0  0  0  0  0  0  0  0  0  0  0
    2.8660   -0.3879    0.0000 H   0  0  0  0  0  0  0  0  0  0  0  0
    1.4631    2.0420    0.0000 H   0  0  0  0  0  0  0  0  0  0  0  0
    1.4631    0.4221    0.0000 H   0  0  0  0  0  0  0  0  0  0  0  0
  1 21  1  0  0  0  0
  1 24  1  0  0  0  0
  2 20  2  0  0  0  0
  3  6  1  0  0  0  0
  3  7  1  0  0  0  0
  3 10  1  0  0  0  0
  4  8  1  0  0  0  0
  4  9  1  0  0  0  0
  4 13  1  0  0  0  0
  5 14  1  0  0  0  0
  5 20  1  0  0  0  0
  5 47  1  0  0  0  0
  6  8  1  0  0  0  0
  6 29  1  0  0  0  0
  6 30  1  0  0  0  0
  7  9  1  0  0  0  0
  7 31  1  0  0  0  0
  7 32  1  0  0  0  0
  8 33  1  0  0  0  0
  8 34  1  0  0  0  0
  9 35  1  0  0  0  0
  9 36  1  0  0  0  0
 10 11  1  0  0  0  0
 10 37  1  0  0  0  0
 10 38  1  0  0  0  0
 11 12  1  0  0  0  0
 11 39  1  0  0  0  0
 11 40  1  0  0  0  0
 12 14  1  0  0  0  0
 12 41  1  0  0  0  0
 12 42  1  0  0  0  0
 13 15  2  0  0  0  0
 13 16  1  0  0  0  0
 14 43  1  0  0  0  0
 14 44  1  0  0  0  0
 15 17  1  0  0  0  0
 15 45  1  0  0  0  0
 16 18  2  0  0  0  0
 16 46  1  0  0  0  0
 17 19  2  0  0  0  0
 17 48  1  0  0  0  0
 18 19  1  0  0  0  0
 18 49  1  0  0  0  0
 19 50  1  0  0  0  0
 20 21  1  0  0  0  0
 21 22  2  0  0  0  0
 22 23  1  0  0  0  0
 22 51  1  0  0  0  0
 23 24  1  0  0  0  0
 23 25  2  0  0  0  0
 24 26  2  0  0  0  0
 25 27  1  0  0  0  0
 25 52  1  0  0  0  0
 26 28  1  0  0  0  0
 26 53  1  0  0  0  0
 27 28  2  0  0  0  0
 27 54  1  0  0  0  0
 28 55  1  0  0  0  0
M  END
> <PUBCHEM_COMPOUND_CID>
51122451

> <PUBCHEM_COMPOUND_CANONICALIZED>
1

> <PUBCHEM_CACTVS_COMPLEXITY>
486

> <PUBCHEM_CACTVS_HBOND_ACCEPTOR>
4

> <PUBCHEM_CACTVS_HBOND_DONOR>
1

> <PUBCHEM_CACTVS_ROTATABLE_BOND>
7

> <PUBCHEM_CACTVS_SUBSKEYS>
AAADceB7MAAAAAAAAAAAAAAAAAAAASAAAAA8YIAAAAAAAEgB9AAAHgAQAAAADAzBmAQwxsPABECIAqVSUAKCCAAlIgAIiIHObMgOZjLEtb+XOSjk1hHY6YeY36LuAAAAAAAIAAAAAAAAABAAAAAAAAAAAA==

> <PUBCHEM_IUPAC_OPENEYE_NAME>
N-[4-(4-phenylpiperazin-1-yl)butyl]benzofuran-2-carboxamide

> <PUBCHEM_IUPAC_CAS_NAME>
N-[4-(4-phenyl-1-piperazinyl)butyl]-2-benzofurancarboxamide

> <PUBCHEM_IUPAC_NAME_MARKUP>
<I>N</I>-[4-(4-phenylpiperazin-1-yl)butyl]-1-benzofuran-2-carboxamide

> <PUBCHEM_IUPAC_NAME>
N-[4-(4-phenylpiperazin-1-yl)butyl]-1-benzofuran-2-carboxamide

> <PUBCHEM_IUPAC_SYSTEMATIC_NAME>
N-[4-(4-phenylpiperazin-1-yl)butyl]-1-benzofuran-2-carboxamide

> <PUBCHEM_IUPAC_TRADITIONAL_NAME>
N-[4-(4-phenylpiperazino)butyl]coumarilamide

> <PUBCHEM_IUPAC_INCHI>
InChI=1S/C23H27N3O2/c27-23(22-18-19-8-4-5-11-21(19)28-22)24-12-6-7-13-25-14-16-26(17-15-25)20-9-2-1-3-10-20/h1-5,8-11,18H,6-7,12-17H2,(H,24,27)

> <PUBCHEM_IUPAC_INCHIKEY>
CAWFRCMJYFIMLP-UHFFFAOYSA-N

> <PUBCHEM_XLOGP3_AA>
4.3

> <PUBCHEM_EXACT_MASS>
377.21032711

> <PUBCHEM_MOLECULAR_FORMULA>
C23H27N3O2

> <PUBCHEM_MOLECULAR_WEIGHT>
377.5

> <PUBCHEM_OPENEYE_CAN_SMILES>
C1CN(CCN1CCCCNC(=O)C2=CC3=CC=CC=C3O2)C4=CC=CC=C4

> <PUBCHEM_OPENEYE_ISO_SMILES>
C1CN(CCN1CCCCNC(=O)C2=CC3=CC=CC=C3O2)C4=CC=CC=C4

> <PUBCHEM_CACTVS_TPSA>
48.7

> <PUBCHEM_MONOISOTOPIC_WEIGHT>
377.21032711

> <PUBCHEM_TOTAL_CHARGE>
0

> <PUBCHEM_HEAVY_ATOM_COUNT>
28

> <PUBCHEM_ATOM_DEF_STEREO_COUNT>
0

> <PUBCHEM_ATOM_UDEF_STEREO_COUNT>
0

> <PUBCHEM_BOND_DEF_STEREO_COUNT>
0

> <PUBCHEM_BOND_UDEF_STEREO_COUNT>
0

> <PUBCHEM_ISOTOPIC_ATOM_COUNT>
0

> <PUBCHEM_COMPONENT_COUNT>
1

> <PUBCHEM_CACTVS_TAUTO_COUNT>
-1

> <PUBCHEM_COORDINATE_TYPE>
1
5
255

> <PUBCHEM_BONDANNOTATIONS>
1  21  8
1  24  8
13  15  8
13  16  8
15  17  8
16  18  8
17  19  8
18  19  8
21  22  8
22  23  8
23  24  8
23  25  8
24  26  8
25  27  8
26  28  8
27  28  8

$$$$
