155542687
  -OEChem-09292322462D

 62 65  0     0  0  0  0  0  0999 V2000
    3.3660   -8.5194    0.0000 S   0  0  0  0  0  0  0  0  0  0  0  0
    5.4641    8.5194    0.0000 F   0  0  0  0  0  0  0  0  0  0  0  0
    6.4641    7.5194    0.0000 F   0  0  0  0  0  0  0  0  0  0  0  0
    4.4641    7.5194    0.0000 F   0  0  0  0  0  0  0  0  0  0  0  0
    2.0000   -2.4806    0.0000 O   0  0  0  0  0  0  0  0  0  0  0  0
    5.4641    1.5194    0.0000 N   0  0  0  0  0  0  0  0  0  0  0  0
    5.4641    3.5194    0.0000 N   0  0  0  0  0  0  0  0  0  0  0  0
    3.7320   -2.4806    0.0000 N   0  0  0  0  0  0  0  0  0  0  0  0
    6.3301    2.0194    0.0000 C   0  0  0  0  0  0  0  0  0  0  0  0
    4.5981    2.0194    0.0000 C   0  0  0  0  0  0  0  0  0  0  0  0
    6.3301    3.0194    0.0000 C   0  0  0  0  0  0  0  0  0  0  0  0
    4.5981    3.0194    0.0000 C   0  0  0  0  0  0  0  0  0  0  0  0
    5.4641    0.5194    0.0000 C   0  0  0  0  0  0  0  0  0  0  0  0
    4.5981    0.0194    0.0000 C   0  0  0  0  0  0  0  0  0  0  0  0
    5.4641    4.5194    0.0000 C   0  0  0  0  0  0  0  0  0  0  0  0
    4.5981   -0.9806    0.0000 C   0  0  0  0  0  0  0  0  0  0  0  0
    3.7320   -1.4806    0.0000 C   0  0  0  0  0  0  0  0  0  0  0  0
    6.3301    5.0194    0.0000 C   0  0  0  0  0  0  0  0  0  0  0  0
    4.5981    5.0194    0.0000 C   0  0  0  0  0  0  0  0  0  0  0  0
    6.3301    6.0194    0.0000 C   0  0  0  0  0  0  0  0  0  0  0  0
    4.5981    6.0194    0.0000 C   0  0  0  0  0  0  0  0  0  0  0  0
    5.4641    6.5194    0.0000 C   0  0  0  0  0  0  0  0  0  0  0  0
    2.8660   -2.9806    0.0000 C   0  0  0  0  0  0  0  0  0  0  0  0
    5.4641    7.5194    0.0000 C   0  0  0  0  0  0  0  0  0  0  0  0
    2.8660   -3.9806    0.0000 C   0  0  0  0  0  0  0  0  0  0  0  0
    3.7320   -4.4806    0.0000 C   0  0  0  0  0  0  0  0  0  0  0  0
    2.0000   -4.4806    0.0000 C   0  0  0  0  0  0  0  0  0  0  0  0
    2.8660   -5.9806    0.0000 C   0  0  0  0  0  0  0  0  0  0  0  0
    3.7320   -5.4806    0.0000 C   0  0  0  0  0  0  0  0  0  0  0  0
    2.0000   -5.4806    0.0000 C   0  0  0  0  0  0  0  0  0  0  0  0
    2.8660   -6.9806    0.0000 C   0  0  0  0  0  0  0  0  0  0  0  0
    2.0570   -7.5684    0.0000 C   0  0  0  0  0  0  0  0  0  0  0  0
    3.6750   -7.5684    0.0000 C   0  0  0  0  0  0  0  0  0  0  0  0
    2.3660   -8.5194    0.0000 C   0  0  0  0  0  0  0  0  0  0  0  0
    6.5422    1.4368    0.0000 H   0  0  0  0  0  0  0  0  0  0  0  0
    6.9407    2.1271    0.0000 H   0  0  0  0  0  0  0  0  0  0  0  0
    3.9875    2.1271    0.0000 H   0  0  0  0  0  0  0  0  0  0  0  0
    4.3860    1.4368    0.0000 H   0  0  0  0  0  0  0  0  0  0  0  0
    6.9407    2.9118    0.0000 H   0  0  0  0  0  0  0  0  0  0  0  0
    6.5422    3.6020    0.0000 H   0  0  0  0  0  0  0  0  0  0  0  0
    4.3860    3.6020    0.0000 H   0  0  0  0  0  0  0  0  0  0  0  0
    3.9875    2.9118    0.0000 H   0  0  0  0  0  0  0  0  0  0  0  0
    5.6762   -0.0632    0.0000 H   0  0  0  0  0  0  0  0  0  0  0  0
    6.0747    0.6271    0.0000 H   0  0  0  0  0  0  0  0  0  0  0  0
    4.3860    0.6020    0.0000 H   0  0  0  0  0  0  0  0  0  0  0  0
    3.9875   -0.0882    0.0000 H   0  0  0  0  0  0  0  0  0  0  0  0
    4.8101   -1.5632    0.0000 H   0  0  0  0  0  0  0  0  0  0  0  0
    5.2087   -0.8729    0.0000 H   0  0  0  0  0  0  0  0  0  0  0  0
    3.5200   -0.8980    0.0000 H   0  0  0  0  0  0  0  0  0  0  0  0
    3.1215   -1.5882    0.0000 H   0  0  0  0  0  0  0  0  0  0  0  0
    6.8671    4.7094    0.0000 H   0  0  0  0  0  0  0  0  0  0  0  0
    4.0611    4.7094    0.0000 H   0  0  0  0  0  0  0  0  0  0  0  0
    6.8671    6.3294    0.0000 H   0  0  0  0  0  0  0  0  0  0  0  0
    4.0611    6.3294    0.0000 H   0  0  0  0  0  0  0  0  0  0  0  0
    4.2690   -2.7906    0.0000 H   0  0  0  0  0  0  0  0  0  0  0  0
    4.2690   -4.1706    0.0000 H   0  0  0  0  0  0  0  0  0  0  0  0
    1.4631   -4.1706    0.0000 H   0  0  0  0  0  0  0  0  0  0  0  0
    4.2690   -5.7906    0.0000 H   0  0  0  0  0  0  0  0  0  0  0  0
    1.4631   -5.7906    0.0000 H   0  0  0  0  0  0  0  0  0  0  0  0
    1.4674   -7.3768    0.0000 H   0  0  0  0  0  0  0  0  0  0  0  0
    4.2647   -7.3768    0.0000 H   0  0  0  0  0  0  0  0  0  0  0  0
    2.0016   -9.0210    0.0000 H   0  0  0  0  0  0  0  0  0  0  0  0
  1 33  1  0  0  0  0
  1 34  1  0  0  0  0
  2 24  1  0  0  0  0
  3 24  1  0  0  0  0
  4 24  1  0  0  0  0
  5 23  2  0  0  0  0
  6  9  1  0  0  0  0
  6 10  1  0  0  0  0
  6 13  1  0  0  0  0
  7 11  1  0  0  0  0
  7 12  1  0  0  0  0
  7 15  1  0  0  0  0
  8 17  1  0  0  0  0
  8 23  1  0  0  0  0
  8 55  1  0  0  0  0
  9 11  1  0  0  0  0
  9 35  1  0  0  0  0
  9 36  1  0  0  0  0
 10 12  1  0  0  0  0
 10 37  1  0  0  0  0
 10 38  1  0  0  0  0
 11 39  1  0  0  0  0
 11 40  1  0  0  0  0
 12 41  1  0  0  0  0
 12 42  1  0  0  0  0
 13 14  1  0  0  0  0
 13 43  1  0  0  0  0
 13 44  1  0  0  0  0
 14 16  1  0  0  0  0
 14 45  1  0  0  0  0
 14 46  1  0  0  0  0
 15 18  2  0  0  0  0
 15 19  1  0  0  0  0
 16 17  1  0  0  0  0
 16 47  1  0  0  0  0
 16 48  1  0  0  0  0
 17 49  1  0  0  0  0
 17 50  1  0  0  0  0
 18 20  1  0  0  0  0
 18 51  1  0  0  0  0
 19 21  2  0  0  0  0
 19 52  1  0  0  0  0
 20 22  2  0  0  0  0
 20 53  1  0  0  0  0
 21 22  1  0  0  0  0
 21 54  1  0  0  0  0
 22 24  1  0  0  0  0
 23 25  1  0  0  0  0
 25 26  2  0  0  0  0
 25 27  1  0  0  0  0
 26 29  1  0  0  0  0
 26 56  1  0  0  0  0
 27 30  2  0  0  0  0
 27 57  1  0  0  0  0
 28 29  2  0  0  0  0
 28 30  1  0  0  0  0
 28 31  1  0  0  0  0
 29 58  1  0  0  0  0
 30 59  1  0  0  0  0
 31 32  1  0  0  0  0
 31 33  2  0  0  0  0
 32 34  2  0  0  0  0
 32 60  1  0  0  0  0
 33 61  1  0  0  0  0
 34 62  1  0  0  0  0
M  END
> <PUBCHEM_COMPOUND_CID>
155542687

> <PUBCHEM_COMPOUND_CANONICALIZED>
1

> <PUBCHEM_CACTVS_COMPLEXITY>
625

> <PUBCHEM_CACTVS_HBOND_ACCEPTOR>
7

> <PUBCHEM_CACTVS_HBOND_DONOR>
1

> <PUBCHEM_CACTVS_ROTATABLE_BOND>
8

> <PUBCHEM_CACTVS_SUBSKEYS>
AAADceB7IYBAAAAAAAAAAAAAAAAAASAAAAA8YIAAAAAAAAAB0AAAHwQQAAAADAjF2BSwwYPAAAiMAiVSUACDAIAlChBIiJkIZMgIYDLglZGUIQhglgDoyYcYiMCOyAAAAAAAAACQAAAAAAAAAAAAAAAAAA==

> <PUBCHEM_IUPAC_OPENEYE_NAME>
4-(3-thienyl)-N-[4-[4-[4-(trifluoromethyl)phenyl]piperazin-1-yl]butyl]benzamide

> <PUBCHEM_IUPAC_CAS_NAME>
4-(3-thiophenyl)-N-[4-[4-[4-(trifluoromethyl)phenyl]-1-piperazinyl]butyl]benzamide

> <PUBCHEM_IUPAC_NAME_MARKUP>
4-thiophen-3-yl-<I>N</I>-[4-[4-[4-(trifluoromethyl)phenyl]piperazin-1-yl]butyl]benzamide

> <PUBCHEM_IUPAC_NAME>
4-thiophen-3-yl-N-[4-[4-[4-(trifluoromethyl)phenyl]piperazin-1-yl]butyl]benzamide

> <PUBCHEM_IUPAC_SYSTEMATIC_NAME>
4-thiophen-3-yl-N-[4-[4-[4-(trifluoromethyl)phenyl]piperazin-1-yl]butyl]benzamide

> <PUBCHEM_IUPAC_TRADITIONAL_NAME>
4-(3-thienyl)-N-[4-[4-[4-(trifluoromethyl)phenyl]piperazino]butyl]benzamide

> <PUBCHEM_IUPAC_INCHI>
InChI=1S/C26H28F3N3OS/c27-26(28,29)23-7-9-24(10-8-23)32-16-14-31(15-17-32)13-2-1-12-30-25(33)21-5-3-20(4-6-21)22-11-18-34-19-22/h3-11,18-19H,1-2,12-17H2,(H,30,33)

> <PUBCHEM_IUPAC_INCHIKEY>
BUJDRHDSUWKHNQ-UHFFFAOYSA-N

> <PUBCHEM_XLOGP3_AA>
5.7

> <PUBCHEM_EXACT_MASS>
487.19051818

> <PUBCHEM_MOLECULAR_FORMULA>
C26H28F3N3OS

> <PUBCHEM_MOLECULAR_WEIGHT>
487.6

> <PUBCHEM_OPENEYE_CAN_SMILES>
C1CN(CCN1CCCCNC(=O)C2=CC=C(C=C2)C3=CSC=C3)C4=CC=C(C=C4)C(F)(F)F

> <PUBCHEM_OPENEYE_ISO_SMILES>
C1CN(CCN1CCCCNC(=O)C2=CC=C(C=C2)C3=CSC=C3)C4=CC=C(C=C4)C(F)(F)F

> <PUBCHEM_CACTVS_TPSA>
63.8

> <PUBCHEM_MONOISOTOPIC_WEIGHT>
487.19051818

> <PUBCHEM_TOTAL_CHARGE>
0

> <PUBCHEM_HEAVY_ATOM_COUNT>
34

> <PUBCHEM_ATOM_DEF_STEREO_COUNT>
0

> <PUBCHEM_ATOM_UDEF_STEREO_COUNT>
0

> <PUBCHEM_BOND_DEF_STEREO_COUNT>
0

> <PUBCHEM_BOND_UDEF_STEREO_COUNT>
0

> <PUBCHEM_ISOTOPIC_ATOM_COUNT>
0

> <PUBCHEM_COMPONENT_COUNT>
1

> <PUBCHEM_CACTVS_TAUTO_COUNT>
-1

> <PUBCHEM_COORDINATE_TYPE>
1
5
255

> <PUBCHEM_BONDANNOTATIONS>
1  33  8
1  34  8
15  18  8
15  19  8
18  20  8
19  21  8
20  22  8
21  22  8
25  26  8
25  27  8
26  29  8
27  30  8
28  29  8
28  30  8
31  32  8
31  33  8
32  34  8

$$$$
