11857711
  -OEChem-09292322242D

 66 70  0     0  0  0  0  0  0999 V2000
    5.4641   -4.5000    0.0000 Cl  0  0  0  0  0  0  0  0  0  0  0  0
    3.7320   -1.5000    0.0000 S   0  0  0  0  0  0  0  0  0  0  0  0
    2.0000   -2.5000    0.0000 F   0  0  0  0  0  0  0  0  0  0  0  0
   10.6603    1.5000    0.0000 O   0  0  0  0  0  0  0  0  0  0  0  0
    4.7320   -1.5000    0.0000 O   0  0  0  0  0  0  0  0  0  0  0  0
    2.7320   -1.5000    0.0000 O   0  0  0  0  0  0  0  0  0  0  0  0
    7.1962    1.5000    0.0000 N   0  0  0  0  0  0  0  0  0  0  0  0
    3.7320   -0.5000    0.0000 N   0  0  0  0  0  0  0  0  0  0  0  0
    6.3301    1.0000    0.0000 C   0  0  0  0  0  0  0  0  0  0  0  0
    6.3301    0.0000    0.0000 C   0  0  0  0  0  0  0  0  0  0  0  0
    5.4641    1.5000    0.0000 C   0  0  0  0  0  0  0  0  0  0  0  0
    4.5981    0.0000    0.0000 C   0  0  0  0  0  0  0  0  0  0  0  0
    8.9282    2.5000    0.0000 C   0  0  0  0  0  0  0  0  0  0  0  0
    5.4641   -0.5000    0.0000 C   0  0  0  0  0  0  0  0  0  0  0  0
    4.5981    1.0000    0.0000 C   0  0  0  0  0  0  0  0  0  0  0  0
    8.0622    1.0000    0.0000 C   0  0  0  0  0  0  0  0  0  0  0  0
    7.1962    2.5000    0.0000 C   0  0  0  0  0  0  0  0  0  0  0  0
    8.9282    1.5000    0.0000 C   0  0  0  0  0  0  0  0  0  0  0  0
    8.0622    3.0000    0.0000 C   0  0  0  0  0  0  0  0  0  0  0  0
    9.7942    3.0000    0.0000 C   0  0  0  0  0  0  0  0  0  0  0  0
   11.5263    1.0000    0.0000 C   0  0  0  0  0  0  0  0  0  0  0  0
   12.0263    0.1340    0.0000 C   0  0  0  0  0  0  0  0  0  0  0  0
   12.5263    1.0000    0.0000 C   0  0  0  0  0  0  0  0  0  0  0  0
   10.6603    2.5000    0.0000 C   0  0  0  0  0  0  0  0  0  0  0  0
    9.7942    4.0000    0.0000 C   0  0  0  0  0  0  0  0  0  0  0  0
   11.5263    3.0000    0.0000 C   0  0  0  0  0  0  0  0  0  0  0  0
   10.6603    4.5000    0.0000 C   0  0  0  0  0  0  0  0  0  0  0  0
    3.7320   -2.5000    0.0000 C   0  0  0  0  0  0  0  0  0  0  0  0
   11.5263    4.0000    0.0000 C   0  0  0  0  0  0  0  0  0  0  0  0
    2.8660   -3.0000    0.0000 C   0  0  0  0  0  0  0  0  0  0  0  0
    4.5981   -3.0000    0.0000 C   0  0  0  0  0  0  0  0  0  0  0  0
    4.5981   -4.0000    0.0000 C   0  0  0  0  0  0  0  0  0  0  0  0
    2.8660   -4.0000    0.0000 C   0  0  0  0  0  0  0  0  0  0  0  0
    3.7320   -4.5000    0.0000 C   0  0  0  0  0  0  0  0  0  0  0  0
    6.8671    0.6900    0.0000 H   0  0  0  0  0  0  0  0  0  0  0  0
    6.5422   -0.5826    0.0000 H   0  0  0  0  0  0  0  0  0  0  0  0
    6.9407    0.1077    0.0000 H   0  0  0  0  0  0  0  0  0  0  0  0
    5.8626    1.9750    0.0000 H   0  0  0  0  0  0  0  0  0  0  0  0
    5.0656    1.9750    0.0000 H   0  0  0  0  0  0  0  0  0  0  0  0
    4.5981   -0.6200    0.0000 H   0  0  0  0  0  0  0  0  0  0  0  0
    9.4651    2.1900    0.0000 H   0  0  0  0  0  0  0  0  0  0  0  0
    5.0656   -0.9749    0.0000 H   0  0  0  0  0  0  0  0  0  0  0  0
    5.8626   -0.9749    0.0000 H   0  0  0  0  0  0  0  0  0  0  0  0
    4.3860    1.5826    0.0000 H   0  0  0  0  0  0  0  0  0  0  0  0
    3.9875    0.8923    0.0000 H   0  0  0  0  0  0  0  0  0  0  0  0
    7.6636    0.5251    0.0000 H   0  0  0  0  0  0  0  0  0  0  0  0
    8.4607    0.5251    0.0000 H   0  0  0  0  0  0  0  0  0  0  0  0
    6.9841    3.0826    0.0000 H   0  0  0  0  0  0  0  0  0  0  0  0
    6.5856    2.3923    0.0000 H   0  0  0  0  0  0  0  0  0  0  0  0
    9.1403    0.9174    0.0000 H   0  0  0  0  0  0  0  0  0  0  0  0
    9.5388    1.6077    0.0000 H   0  0  0  0  0  0  0  0  0  0  0  0
    8.4607    3.4750    0.0000 H   0  0  0  0  0  0  0  0  0  0  0  0
    7.6636    3.4750    0.0000 H   0  0  0  0  0  0  0  0  0  0  0  0
    3.1951   -0.1900    0.0000 H   0  0  0  0  0  0  0  0  0  0  0  0
   11.0879    0.5616    0.0000 H   0  0  0  0  0  0  0  0  0  0  0  0
   11.5513   -0.2646    0.0000 H   0  0  0  0  0  0  0  0  0  0  0  0
   12.5012   -0.2646    0.0000 H   0  0  0  0  0  0  0  0  0  0  0  0
   13.1089    0.7879    0.0000 H   0  0  0  0  0  0  0  0  0  0  0  0
   12.6339    1.6106    0.0000 H   0  0  0  0  0  0  0  0  0  0  0  0
    9.2573    4.3100    0.0000 H   0  0  0  0  0  0  0  0  0  0  0  0
   12.0632    2.6900    0.0000 H   0  0  0  0  0  0  0  0  0  0  0  0
   10.6603    5.1200    0.0000 H   0  0  0  0  0  0  0  0  0  0  0  0
   12.0632    4.3100    0.0000 H   0  0  0  0  0  0  0  0  0  0  0  0
    5.1350   -2.6900    0.0000 H   0  0  0  0  0  0  0  0  0  0  0  0
    2.3291   -4.3100    0.0000 H   0  0  0  0  0  0  0  0  0  0  0  0
    3.7320   -5.1200    0.0000 H   0  0  0  0  0  0  0  0  0  0  0  0
  1 32  1  0  0  0  0
  2  5  2  0  0  0  0
  2  6  2  0  0  0  0
  2  8  1  0  0  0  0
  2 28  1  0  0  0  0
  3 30  1  0  0  0  0
  4 21  1  0  0  0  0
  4 24  1  0  0  0  0
  7  9  1  0  0  0  0
  7 16  1  0  0  0  0
  7 17  1  0  0  0  0
  8 12  1  0  0  0  0
  8 54  1  0  0  0  0
  9 10  1  0  0  0  0
  9 11  1  0  0  0  0
  9 35  1  0  0  0  0
 10 14  1  0  0  0  0
 10 36  1  0  0  0  0
 10 37  1  0  0  0  0
 11 15  1  0  0  0  0
 11 38  1  0  0  0  0
 11 39  1  0  0  0  0
 12 14  1  0  0  0  0
 12 15  1  0  0  0  0
 12 40  1  0  0  0  0
 13 18  1  0  0  0  0
 13 19  1  0  0  0  0
 13 20  1  0  0  0  0
 13 41  1  0  0  0  0
 14 42  1  0  0  0  0
 14 43  1  0  0  0  0
 15 44  1  0  0  0  0
 15 45  1  0  0  0  0
 16 18  1  0  0  0  0
 16 46  1  0  0  0  0
 16 47  1  0  0  0  0
 17 19  1  0  0  0  0
 17 48  1  0  0  0  0
 17 49  1  0  0  0  0
 18 50  1  0  0  0  0
 18 51  1  0  0  0  0
 19 52  1  0  0  0  0
 19 53  1  0  0  0  0
 20 24  1  0  0  0  0
 20 25  2  0  0  0  0
 21 22  1  0  0  0  0
 21 23  1  0  0  0  0
 21 55  1  0  0  0  0
 22 23  1  0  0  0  0
 22 56  1  0  0  0  0
 22 57  1  0  0  0  0
 23 58  1  0  0  0  0
 23 59  1  0  0  0  0
 24 26  2  0  0  0  0
 25 27  1  0  0  0  0
 25 60  1  0  0  0  0
 26 29  1  0  0  0  0
 26 61  1  0  0  0  0
 27 29  2  0  0  0  0
 27 62  1  0  0  0  0
 28 30  2  0  0  0  0
 28 31  1  0  0  0  0
 29 63  1  0  0  0  0
 30 33  1  0  0  0  0
 31 32  2  0  0  0  0
 31 64  1  0  0  0  0
 32 34  1  0  0  0  0
 33 34  2  0  0  0  0
 33 65  1  0  0  0  0
 34 66  1  0  0  0  0
M  END
> <PUBCHEM_COMPOUND_CID>
11857711

> <PUBCHEM_COMPOUND_CANONICALIZED>
1

> <PUBCHEM_CACTVS_COMPLEXITY>
761

> <PUBCHEM_CACTVS_HBOND_ACCEPTOR>
6

> <PUBCHEM_CACTVS_HBOND_DONOR>
1

> <PUBCHEM_CACTVS_ROTATABLE_BOND>
7

> <PUBCHEM_CACTVS_SUBSKEYS>
AAADcfB7MQBEAAAAAAAAAAAAGAAAAAAAAAA8YMEAAAAAAAABQAAAHwYQQAAADT7h2C4wB4NABAKAAiBCAHBCCBAgJQAIiJgOCogMJiKFsxqGOCCk0BGIqAeQ0OIOgAAAABAIAAAAAQAAIBAAAAAAAAAAAA==

> <PUBCHEM_IUPAC_OPENEYE_NAME>
5-chloro-N-[4-[4-[2-(cyclopropoxy)phenyl]-1-piperidyl]cyclohexyl]-2-fluoro-benzenesulfonamide

> <PUBCHEM_IUPAC_CAS_NAME>
5-chloro-N-[4-[4-(2-cyclopropyloxyphenyl)-1-piperidinyl]cyclohexyl]-2-fluorobenzenesulfonamide

> <PUBCHEM_IUPAC_NAME_MARKUP>
5-chloro-<I>N</I>-[4-[4-(2-cyclopropyloxyphenyl)piperidin-1-yl]cyclohexyl]-2-fluorobenzenesulfonamide

> <PUBCHEM_IUPAC_NAME>
5-chloro-N-[4-[4-(2-cyclopropyloxyphenyl)piperidin-1-yl]cyclohexyl]-2-fluorobenzenesulfonamide

> <PUBCHEM_IUPAC_SYSTEMATIC_NAME>
5-chloranyl-N-[4-[4-(2-cyclopropyloxyphenyl)piperidin-1-yl]cyclohexyl]-2-fluoranyl-benzenesulfonamide

> <PUBCHEM_IUPAC_TRADITIONAL_NAME>
5-chloro-N-[4-[4-[2-(cyclopropoxy)phenyl]piperidino]cyclohexyl]-2-fluoro-benzenesulfonamide

> <PUBCHEM_IUPAC_INCHI>
InChI=1S/C26H32ClFN2O3S/c27-19-5-12-24(28)26(17-19)34(31,32)29-20-6-8-21(9-7-20)30-15-13-18(14-16-30)23-3-1-2-4-25(23)33-22-10-11-22/h1-5,12,17-18,20-22,29H,6-11,13-16H2

> <PUBCHEM_IUPAC_INCHIKEY>
LVDRNYWTLKUNNT-UHFFFAOYSA-N

> <PUBCHEM_XLOGP3_AA>
5.8

> <PUBCHEM_EXACT_MASS>
506.1806199

> <PUBCHEM_MOLECULAR_FORMULA>
C26H32ClFN2O3S

> <PUBCHEM_MOLECULAR_WEIGHT>
507.1

> <PUBCHEM_OPENEYE_CAN_SMILES>
C1CC(CCC1NS(=O)(=O)C2=C(C=CC(=C2)Cl)F)N3CCC(CC3)C4=CC=CC=C4OC5CC5

> <PUBCHEM_OPENEYE_ISO_SMILES>
C1CC(CCC1NS(=O)(=O)C2=C(C=CC(=C2)Cl)F)N3CCC(CC3)C4=CC=CC=C4OC5CC5

> <PUBCHEM_CACTVS_TPSA>
67

> <PUBCHEM_MONOISOTOPIC_WEIGHT>
506.1806199

> <PUBCHEM_TOTAL_CHARGE>
0

> <PUBCHEM_HEAVY_ATOM_COUNT>
34

> <PUBCHEM_ATOM_DEF_STEREO_COUNT>
0

> <PUBCHEM_ATOM_UDEF_STEREO_COUNT>
0

> <PUBCHEM_BOND_DEF_STEREO_COUNT>
0

> <PUBCHEM_BOND_UDEF_STEREO_COUNT>
0

> <PUBCHEM_ISOTOPIC_ATOM_COUNT>
0

> <PUBCHEM_COMPONENT_COUNT>
1

> <PUBCHEM_CACTVS_TAUTO_COUNT>
-1

> <PUBCHEM_COORDINATE_TYPE>
1
5
255

> <PUBCHEM_BONDANNOTATIONS>
20  24  8
20  25  8
24  26  8
25  27  8
26  29  8
27  29  8
28  30  8
28  31  8
30  33  8
31  32  8
32  34  8
33  34  8

$$$$
