146025781
  -OEChem-09292322012D

 55 57  0     1  0  0  0  0  0999 V2000
    2.9176   -0.8019    0.0000 Br  0  0  0  0  0  0  0  0  0  0  0  0
   11.5942    0.2327    0.0000 O   0  0  0  0  0  0  0  0  0  0  0  0
    5.5321    0.7327    0.0000 N   0  0  3  0  0  0  0  0  0  0  0  0
   10.7282   -1.2673    0.0000 N   0  0  0  0  0  0  0  0  0  0  0  0
   12.4603   -1.2673    0.0000 N   0  0  0  0  0  0  0  0  0  0  0  0
    8.1301    0.2327    0.0000 C   0  0  0  0  0  0  0  0  0  0  0  0
    8.9962    0.7327    0.0000 C   0  0  0  0  0  0  0  0  0  0  0  0
    8.1301   -0.7673    0.0000 C   0  0  0  0  0  0  0  0  0  0  0  0
    9.8622   -0.7673    0.0000 C   0  0  0  0  0  0  0  0  0  0  0  0
    9.8622    0.2327    0.0000 C   0  0  0  0  0  0  0  0  0  0  0  0
    8.9962   -1.2673    0.0000 C   0  0  0  0  0  0  0  0  0  0  0  0
    7.2641    0.7327    0.0000 C   0  0  0  0  0  0  0  0  0  0  0  0
    6.3981    0.2327    0.0000 C   0  0  0  0  0  0  0  0  0  0  0  0
    5.5321    1.7327    0.0000 C   0  0  0  0  0  0  0  0  0  0  0  0
    4.6660    0.2327    0.0000 C   0  0  0  0  0  0  0  0  0  0  0  0
    4.6660    2.2327    0.0000 C   0  0  0  0  0  0  0  0  0  0  0  0
    3.8000    0.7327    0.0000 C   0  0  0  0  0  0  0  0  0  0  0  0
    3.8000    1.7327    0.0000 C   0  0  0  0  0  0  0  0  0  0  0  0
   11.5942   -0.7673    0.0000 C   0  0  0  0  0  0  0  0  0  0  0  0
    2.9061    0.1980    0.0000 C   0  0  0  0  0  0  0  0  0  0  0  0
    2.9061    2.2673    0.0000 C   0  0  0  0  0  0  0  0  0  0  0  0
    2.0000    0.7119    0.0000 C   0  0  0  0  0  0  0  0  0  0  0  0
    2.0000    1.7535    0.0000 C   0  0  0  0  0  0  0  0  0  0  0  0
   13.3263   -0.7673    0.0000 C   0  0  0  0  0  0  0  0  0  0  0  0
   12.4603   -2.2673    0.0000 C   0  0  0  0  0  0  0  0  0  0  0  0
    7.5932   -0.0773    0.0000 H   0  0  0  0  0  0  0  0  0  0  0  0
    9.3947    1.2076    0.0000 H   0  0  0  0  0  0  0  0  0  0  0  0
    8.5976    1.2076    0.0000 H   0  0  0  0  0  0  0  0  0  0  0  0
    7.5196   -0.6597    0.0000 H   0  0  0  0  0  0  0  0  0  0  0  0
    7.9181   -1.3499    0.0000 H   0  0  0  0  0  0  0  0  0  0  0  0
    9.8622   -1.3873    0.0000 H   0  0  0  0  0  0  0  0  0  0  0  0
   10.4728    0.1250    0.0000 H   0  0  0  0  0  0  0  0  0  0  0  0
   10.0742    0.8153    0.0000 H   0  0  0  0  0  0  0  0  0  0  0  0
    8.5976   -1.7423    0.0000 H   0  0  0  0  0  0  0  0  0  0  0  0
    9.3947   -1.7423    0.0000 H   0  0  0  0  0  0  0  0  0  0  0  0
    7.6626    1.2076    0.0000 H   0  0  0  0  0  0  0  0  0  0  0  0
    6.8656    1.2076    0.0000 H   0  0  0  0  0  0  0  0  0  0  0  0
    5.9996   -0.2423    0.0000 H   0  0  0  0  0  0  0  0  0  0  0  0
    6.7966   -0.2423    0.0000 H   0  0  0  0  0  0  0  0  0  0  0  0
   10.7282   -1.8873    0.0000 H   0  0  0  0  0  0  0  0  0  0  0  0
    6.1426    1.6250    0.0000 H   0  0  0  0  0  0  0  0  0  0  0  0
    5.7441    2.3153    0.0000 H   0  0  0  0  0  0  0  0  0  0  0  0
    4.2675   -0.2423    0.0000 H   0  0  0  0  0  0  0  0  0  0  0  0
    5.0646   -0.2423    0.0000 H   0  0  0  0  0  0  0  0  0  0  0  0
    5.0646    2.7076    0.0000 H   0  0  0  0  0  0  0  0  0  0  0  0
    4.2675    2.7076    0.0000 H   0  0  0  0  0  0  0  0  0  0  0  0
    2.9132    2.8873    0.0000 H   0  0  0  0  0  0  0  0  0  0  0  0
    1.4643    0.3998    0.0000 H   0  0  0  0  0  0  0  0  0  0  0  0
    1.4643    2.0656    0.0000 H   0  0  0  0  0  0  0  0  0  0  0  0
   13.6363   -1.3043    0.0000 H   0  0  0  0  0  0  0  0  0  0  0  0
   13.8632   -0.4573    0.0000 H   0  0  0  0  0  0  0  0  0  0  0  0
   13.0163   -0.2304    0.0000 H   0  0  0  0  0  0  0  0  0  0  0  0
   11.8403   -2.2673    0.0000 H   0  0  0  0  0  0  0  0  0  0  0  0
   12.4603   -2.8873    0.0000 H   0  0  0  0  0  0  0  0  0  0  0  0
   13.0803   -2.2673    0.0000 H   0  0  0  0  0  0  0  0  0  0  0  0
  1 20  1  0  0  0  0
  2 19  2  0  0  0  0
  3 13  1  0  0  0  0
  3 14  1  0  0  0  0
  3 15  1  0  0  0  0
  4  9  1  0  0  0  0
  4 19  1  0  0  0  0
  4 40  1  0  0  0  0
  5 19  1  0  0  0  0
  5 24  1  0  0  0  0
  5 25  1  0  0  0  0
  6  7  1  0  0  0  0
  6  8  1  0  0  0  0
  6 12  1  0  0  0  0
  6 26  1  0  0  0  0
  7 10  1  0  0  0  0
  7 27  1  0  0  0  0
  7 28  1  0  0  0  0
  8 11  1  0  0  0  0
  8 29  1  0  0  0  0
  8 30  1  0  0  0  0
  9 10  1  0  0  0  0
  9 11  1  0  0  0  0
  9 31  1  0  0  0  0
 10 32  1  0  0  0  0
 10 33  1  0  0  0  0
 11 34  1  0  0  0  0
 11 35  1  0  0  0  0
 12 13  1  0  0  0  0
 12 36  1  0  0  0  0
 12 37  1  0  0  0  0
 13 38  1  0  0  0  0
 13 39  1  0  0  0  0
 14 16  1  0  0  0  0
 14 41  1  0  0  0  0
 14 42  1  0  0  0  0
 15 17  1  0  0  0  0
 15 43  1  0  0  0  0
 15 44  1  0  0  0  0
 16 18  1  0  0  0  0
 16 45  1  0  0  0  0
 16 46  1  0  0  0  0
 17 18  2  0  0  0  0
 17 20  1  0  0  0  0
 18 21  1  0  0  0  0
 20 22  2  0  0  0  0
 21 23  2  0  0  0  0
 21 47  1  0  0  0  0
 22 23  1  0  0  0  0
 22 48  1  0  0  0  0
 23 49  1  0  0  0  0
 24 50  1  0  0  0  0
 24 51  1  0  0  0  0
 24 52  1  0  0  0  0
 25 53  1  0  0  0  0
 25 54  1  0  0  0  0
 25 55  1  0  0  0  0
M  END
> <PUBCHEM_COMPOUND_CID>
146025781

> <PUBCHEM_COMPOUND_CANONICALIZED>
1

> <PUBCHEM_CACTVS_COMPLEXITY>
437

> <PUBCHEM_CACTVS_HBOND_ACCEPTOR>
2

> <PUBCHEM_CACTVS_HBOND_DONOR>
1

> <PUBCHEM_CACTVS_ROTATABLE_BOND>
4

> <PUBCHEM_CACTVS_SUBSKEYS>
AAADceB7IAAAEAAAAAAAAAAAAAAAAAAAAAA8YIAAAAAAAACxAAAAHgBQAAABrSjBGAQzAIPAAACIAiBCEACCAAAgAAQIiIAIBKiIICKAkRGEIAholgKIihcQgIAOgAAAEAAQgAAQAAAgACEAAAAAAAAAAA==

> <PUBCHEM_IUPAC_OPENEYE_NAME>
3-[4-[2-(8-bromo-3,4-dihydro-1H-isoquinolin-2-yl)ethyl]cyclohexyl]-1,1-dimethyl-urea

> <PUBCHEM_IUPAC_CAS_NAME>
3-[4-[2-(8-bromo-3,4-dihydro-1H-isoquinolin-2-yl)ethyl]cyclohexyl]-1,1-dimethylurea

> <PUBCHEM_IUPAC_NAME_MARKUP>
3-[4-[2-(8-bromo-3,4-dihydro-1<I>H</I>-isoquinolin-2-yl)ethyl]cyclohexyl]-1,1-dimethylurea

> <PUBCHEM_IUPAC_NAME>
3-[4-[2-(8-bromo-3,4-dihydro-1H-isoquinolin-2-yl)ethyl]cyclohexyl]-1,1-dimethylurea

> <PUBCHEM_IUPAC_SYSTEMATIC_NAME>
3-[4-[2-(8-bromanyl-3,4-dihydro-1H-isoquinolin-2-yl)ethyl]cyclohexyl]-1,1-dimethyl-urea

> <PUBCHEM_IUPAC_TRADITIONAL_NAME>
3-[4-[2-(8-bromo-3,4-dihydro-1H-isoquinolin-2-yl)ethyl]cyclohexyl]-1,1-dimethyl-urea

> <PUBCHEM_IUPAC_INCHI>
InChI=1S/C20H30BrN3O/c1-23(2)20(25)22-17-8-6-15(7-9-17)10-12-24-13-11-16-4-3-5-19(21)18(16)14-24/h3-5,15,17H,6-14H2,1-2H3,(H,22,25)

> <PUBCHEM_IUPAC_INCHIKEY>
UGCFNMABVTZWEE-UHFFFAOYSA-N

> <PUBCHEM_XLOGP3_AA>
3.7

> <PUBCHEM_EXACT_MASS>
407.15723

> <PUBCHEM_MOLECULAR_FORMULA>
C20H30BrN3O

> <PUBCHEM_MOLECULAR_WEIGHT>
408.4

> <PUBCHEM_OPENEYE_CAN_SMILES>
CN(C)C(=O)NC1CCC(CC1)CCN2CCC3=C(C2)C(=CC=C3)Br

> <PUBCHEM_OPENEYE_ISO_SMILES>
CN(C)C(=O)NC1CCC(CC1)CCN2CCC3=C(C2)C(=CC=C3)Br

> <PUBCHEM_CACTVS_TPSA>
35.6

> <PUBCHEM_MONOISOTOPIC_WEIGHT>
407.15723

> <PUBCHEM_TOTAL_CHARGE>
0

> <PUBCHEM_HEAVY_ATOM_COUNT>
25

> <PUBCHEM_ATOM_DEF_STEREO_COUNT>
0

> <PUBCHEM_ATOM_UDEF_STEREO_COUNT>
0

> <PUBCHEM_BOND_DEF_STEREO_COUNT>
0

> <PUBCHEM_BOND_UDEF_STEREO_COUNT>
0

> <PUBCHEM_ISOTOPIC_ATOM_COUNT>
0

> <PUBCHEM_COMPONENT_COUNT>
1

> <PUBCHEM_CACTVS_TAUTO_COUNT>
-1

> <PUBCHEM_COORDINATE_TYPE>
1
5
255

> <PUBCHEM_BONDANNOTATIONS>
17  18  8
17  20  8
18  21  8
20  22  8
21  23  8
22  23  8

$$$$
