10450375
  -OEChem-09292322142D

 51 54  0     0  0  0  0  0  0999 V2000
    2.8660   -3.2215    0.0000 O   0  0  0  0  0  0  0  0  0  0  0  0
    4.5981   -0.2215    0.0000 N   0  0  0  0  0  0  0  0  0  0  0  0
    4.5981   -2.2215    0.0000 N   0  0  0  0  0  0  0  0  0  0  0  0
    6.5468    2.4809    0.0000 N   0  0  0  0  0  0  0  0  0  0  0  0
    5.4641   -0.7215    0.0000 C   0  0  0  0  0  0  0  0  0  0  0  0
    3.7320   -0.7215    0.0000 C   0  0  0  0  0  0  0  0  0  0  0  0
    5.4641   -1.7215    0.0000 C   0  0  0  0  0  0  0  0  0  0  0  0
    3.7320   -1.7215    0.0000 C   0  0  0  0  0  0  0  0  0  0  0  0
    4.5981    0.7785    0.0000 C   0  0  0  0  0  0  0  0  0  0  0  0
    4.5981   -3.2215    0.0000 C   0  0  0  0  0  0  0  0  0  0  0  0
    5.4641    1.2785    0.0000 C   0  0  0  0  0  0  0  0  0  0  0  0
    5.5686    2.2730    0.0000 C   0  0  0  0  0  0  0  0  0  0  0  0
    3.7320   -3.7215    0.0000 C   0  0  0  0  0  0  0  0  0  0  0  0
    6.3776    0.8717    0.0000 C   0  0  0  0  0  0  0  0  0  0  0  0
    5.4641   -3.7215    0.0000 C   0  0  0  0  0  0  0  0  0  0  0  0
    7.0468    1.6149    0.0000 C   0  0  0  0  0  0  0  0  0  0  0  0
    3.7320   -4.7215    0.0000 C   0  0  0  0  0  0  0  0  0  0  0  0
    5.4641   -4.7215    0.0000 C   0  0  0  0  0  0  0  0  0  0  0  0
    6.9535    3.3944    0.0000 C   0  0  0  0  0  0  0  0  0  0  0  0
    4.5981   -5.2215    0.0000 C   0  0  0  0  0  0  0  0  0  0  0  0
    7.9480    3.4990    0.0000 C   0  0  0  0  0  0  0  0  0  0  0  0
    6.3657    4.2035    0.0000 C   0  0  0  0  0  0  0  0  0  0  0  0
    2.0000   -3.7215    0.0000 C   0  0  0  0  0  0  0  0  0  0  0  0
    8.3548    4.4125    0.0000 C   0  0  0  0  0  0  0  0  0  0  0  0
    6.7725    5.1170    0.0000 C   0  0  0  0  0  0  0  0  0  0  0  0
    7.7670    5.2215    0.0000 C   0  0  0  0  0  0  0  0  0  0  0  0
    6.0747   -0.8292    0.0000 H   0  0  0  0  0  0  0  0  0  0  0  0
    5.6762   -0.1389    0.0000 H   0  0  0  0  0  0  0  0  0  0  0  0
    3.5200   -0.1389    0.0000 H   0  0  0  0  0  0  0  0  0  0  0  0
    3.1215   -0.8292    0.0000 H   0  0  0  0  0  0  0  0  0  0  0  0
    5.6762   -2.3041    0.0000 H   0  0  0  0  0  0  0  0  0  0  0  0
    6.0747   -1.6139    0.0000 H   0  0  0  0  0  0  0  0  0  0  0  0
    3.1215   -1.6139    0.0000 H   0  0  0  0  0  0  0  0  0  0  0  0
    3.5200   -2.3041    0.0000 H   0  0  0  0  0  0  0  0  0  0  0  0
    4.3860    1.3611    0.0000 H   0  0  0  0  0  0  0  0  0  0  0  0
    3.9875    0.6708    0.0000 H   0  0  0  0  0  0  0  0  0  0  0  0
    5.1079    2.6878    0.0000 H   0  0  0  0  0  0  0  0  0  0  0  0
    6.5066    0.2653    0.0000 H   0  0  0  0  0  0  0  0  0  0  0  0
    6.0010   -3.4115    0.0000 H   0  0  0  0  0  0  0  0  0  0  0  0
    7.6634    1.5501    0.0000 H   0  0  0  0  0  0  0  0  0  0  0  0
    3.1951   -5.0315    0.0000 H   0  0  0  0  0  0  0  0  0  0  0  0
    6.0010   -5.0315    0.0000 H   0  0  0  0  0  0  0  0  0  0  0  0
    4.5981   -5.8415    0.0000 H   0  0  0  0  0  0  0  0  0  0  0  0
    8.3125    2.9974    0.0000 H   0  0  0  0  0  0  0  0  0  0  0  0
    5.7491    4.1386    0.0000 H   0  0  0  0  0  0  0  0  0  0  0  0
    1.6900   -3.1846    0.0000 H   0  0  0  0  0  0  0  0  0  0  0  0
    1.4631   -4.0315    0.0000 H   0  0  0  0  0  0  0  0  0  0  0  0
    2.3100   -4.2585    0.0000 H   0  0  0  0  0  0  0  0  0  0  0  0
    8.9714    4.4773    0.0000 H   0  0  0  0  0  0  0  0  0  0  0  0
    6.4080    5.6186    0.0000 H   0  0  0  0  0  0  0  0  0  0  0  0
    8.0192    5.7879    0.0000 H   0  0  0  0  0  0  0  0  0  0  0  0
  1 13  1  0  0  0  0
  1 23  1  0  0  0  0
  2  5  1  0  0  0  0
  2  6  1  0  0  0  0
  2  9  1  0  0  0  0
  3  7  1  0  0  0  0
  3  8  1  0  0  0  0
  3 10  1  0  0  0  0
  4 12  1  0  0  0  0
  4 16  1  0  0  0  0
  4 19  1  0  0  0  0
  5  7  1  0  0  0  0
  5 27  1  0  0  0  0
  5 28  1  0  0  0  0
  6  8  1  0  0  0  0
  6 29  1  0  0  0  0
  6 30  1  0  0  0  0
  7 31  1  0  0  0  0
  7 32  1  0  0  0  0
  8 33  1  0  0  0  0
  8 34  1  0  0  0  0
  9 11  1  0  0  0  0
  9 35  1  0  0  0  0
  9 36  1  0  0  0  0
 10 13  1  0  0  0  0
 10 15  2  0  0  0  0
 11 12  2  0  0  0  0
 11 14  1  0  0  0  0
 12 37  1  0  0  0  0
 13 17  2  0  0  0  0
 14 16  2  0  0  0  0
 14 38  1  0  0  0  0
 15 18  1  0  0  0  0
 15 39  1  0  0  0  0
 16 40  1  0  0  0  0
 17 20  1  0  0  0  0
 17 41  1  0  0  0  0
 18 20  2  0  0  0  0
 18 42  1  0  0  0  0
 19 21  2  0  0  0  0
 19 22  1  0  0  0  0
 20 43  1  0  0  0  0
 21 24  1  0  0  0  0
 21 44  1  0  0  0  0
 22 25  2  0  0  0  0
 22 45  1  0  0  0  0
 23 46  1  0  0  0  0
 23 47  1  0  0  0  0
 23 48  1  0  0  0  0
 24 26  2  0  0  0  0
 24 49  1  0  0  0  0
 25 26  1  0  0  0  0
 25 50  1  0  0  0  0
 26 51  1  0  0  0  0
M  END
> <PUBCHEM_COMPOUND_CID>
10450375

> <PUBCHEM_COMPOUND_CANONICALIZED>
1

> <PUBCHEM_CACTVS_COMPLEXITY>
418

> <PUBCHEM_CACTVS_HBOND_ACCEPTOR>
3

> <PUBCHEM_CACTVS_HBOND_DONOR>
0

> <PUBCHEM_CACTVS_ROTATABLE_BOND>
5

> <PUBCHEM_CACTVS_SUBSKEYS>
AAADceB7IAAAAAAAAAAAAAAAAAAAAWAAAAA8YIAAAAAAAAAB0AAAHgAAAAAADAzBmgY+xpMMFACgAjRnRACCiCAxIiAI2CA/bJgOZuLE8ZuVMChkwBHY6AeQQAAIAAAAAAAAEAAAAAAAAAAgAAAAAAAAAA==

> <PUBCHEM_IUPAC_OPENEYE_NAME>
1-(2-methoxyphenyl)-4-[(1-phenylpyrrol-3-yl)methyl]piperazine

> <PUBCHEM_IUPAC_CAS_NAME>
1-(2-methoxyphenyl)-4-[(1-phenyl-3-pyrrolyl)methyl]piperazine

> <PUBCHEM_IUPAC_NAME_MARKUP>
1-(2-methoxyphenyl)-4-[(1-phenylpyrrol-3-yl)methyl]piperazine

> <PUBCHEM_IUPAC_NAME>
1-(2-methoxyphenyl)-4-[(1-phenylpyrrol-3-yl)methyl]piperazine

> <PUBCHEM_IUPAC_SYSTEMATIC_NAME>
1-(2-methoxyphenyl)-4-[(1-phenylpyrrol-3-yl)methyl]piperazine

> <PUBCHEM_IUPAC_TRADITIONAL_NAME>
1-(2-methoxyphenyl)-4-[(1-phenylpyrrol-3-yl)methyl]piperazine

> <PUBCHEM_IUPAC_INCHI>
InChI=1S/C22H25N3O/c1-26-22-10-6-5-9-21(22)24-15-13-23(14-16-24)17-19-11-12-25(18-19)20-7-3-2-4-8-20/h2-12,18H,13-17H2,1H3

> <PUBCHEM_IUPAC_INCHIKEY>
UPXJKNQVKALXKP-UHFFFAOYSA-N

> <PUBCHEM_XLOGP3_AA>
3.7

> <PUBCHEM_EXACT_MASS>
347.199762429

> <PUBCHEM_MOLECULAR_FORMULA>
C22H25N3O

> <PUBCHEM_MOLECULAR_WEIGHT>
347.5

> <PUBCHEM_OPENEYE_CAN_SMILES>
COC1=CC=CC=C1N2CCN(CC2)CC3=CN(C=C3)C4=CC=CC=C4

> <PUBCHEM_OPENEYE_ISO_SMILES>
COC1=CC=CC=C1N2CCN(CC2)CC3=CN(C=C3)C4=CC=CC=C4

> <PUBCHEM_CACTVS_TPSA>
20.6

> <PUBCHEM_MONOISOTOPIC_WEIGHT>
347.199762429

> <PUBCHEM_TOTAL_CHARGE>
0

> <PUBCHEM_HEAVY_ATOM_COUNT>
26

> <PUBCHEM_ATOM_DEF_STEREO_COUNT>
0

> <PUBCHEM_ATOM_UDEF_STEREO_COUNT>
0

> <PUBCHEM_BOND_DEF_STEREO_COUNT>
0

> <PUBCHEM_BOND_UDEF_STEREO_COUNT>
0

> <PUBCHEM_ISOTOPIC_ATOM_COUNT>
0

> <PUBCHEM_COMPONENT_COUNT>
1

> <PUBCHEM_CACTVS_TAUTO_COUNT>
-1

> <PUBCHEM_COORDINATE_TYPE>
1
5
255

> <PUBCHEM_BONDANNOTATIONS>
10  13  8
10  15  8
11  12  8
11  14  8
13  17  8
14  16  8
15  18  8
17  20  8
18  20  8
19  21  8
19  22  8
21  24  8
22  25  8
24  26  8
25  26  8
4  12  8
4  16  8

$$$$
