72737728
  -OEChem-09292322072D

 48 50  0     1  0  0  0  0  0999 V2000
    6.3301    1.5000    0.0000 O   0  0  0  0  0  0  0  0  0  0  0  0
    9.7942   -3.5000    0.0000 O   0  0  0  0  0  0  0  0  0  0  0  0
    6.3301   -0.5000    0.0000 N   0  0  3  0  0  0  0  0  0  0  0  0
    5.4641    1.0000    0.0000 C   0  0  3  0  0  0  0  0  0  0  0  0
    5.4641    0.0000    0.0000 C   0  0  0  0  0  0  0  0  0  0  0  0
    4.5981    1.5000    0.0000 C   0  0  0  0  0  0  0  0  0  0  0  0
    7.1962    0.0000    0.0000 C   0  0  0  0  0  0  0  0  0  0  0  0
    7.1962    1.0000    0.0000 C   0  0  0  0  0  0  0  0  0  0  0  0
    6.3301   -1.5000    0.0000 C   0  0  0  0  0  0  0  0  0  0  0  0
    4.5981    2.5000    0.0000 C   0  0  0  0  0  0  0  0  0  0  0  0
    7.1962   -2.0000    0.0000 C   0  0  0  0  0  0  0  0  0  0  0  0
    3.7320    3.0000    0.0000 C   0  0  0  0  0  0  0  0  0  0  0  0
    8.0622   -1.5000    0.0000 C   0  0  0  0  0  0  0  0  0  0  0  0
    7.1962   -3.0000    0.0000 C   0  0  0  0  0  0  0  0  0  0  0  0
    3.7320    4.0000    0.0000 C   0  0  0  0  0  0  0  0  0  0  0  0
    2.8660    2.5000    0.0000 C   0  0  0  0  0  0  0  0  0  0  0  0
    8.9282   -2.0000    0.0000 C   0  0  0  0  0  0  0  0  0  0  0  0
    8.0622   -3.5000    0.0000 C   0  0  0  0  0  0  0  0  0  0  0  0
    8.9282   -3.0000    0.0000 C   0  0  0  0  0  0  0  0  0  0  0  0
    2.8660    4.5000    0.0000 C   0  0  0  0  0  0  0  0  0  0  0  0
    2.0000    3.0000    0.0000 C   0  0  0  0  0  0  0  0  0  0  0  0
    2.0000    4.0000    0.0000 C   0  0  0  0  0  0  0  0  0  0  0  0
    9.7942   -4.5000    0.0000 C   0  0  0  0  0  0  0  0  0  0  0  0
    5.4641    1.6200    0.0000 H   0  0  0  0  0  0  0  0  0  0  0  0
    4.8535    0.1077    0.0000 H   0  0  0  0  0  0  0  0  0  0  0  0
    5.2520   -0.5826    0.0000 H   0  0  0  0  0  0  0  0  0  0  0  0
    3.9875    1.6077    0.0000 H   0  0  0  0  0  0  0  0  0  0  0  0
    4.3860    0.9174    0.0000 H   0  0  0  0  0  0  0  0  0  0  0  0
    7.4082   -0.5826    0.0000 H   0  0  0  0  0  0  0  0  0  0  0  0
    7.8067    0.1077    0.0000 H   0  0  0  0  0  0  0  0  0  0  0  0
    7.8067    0.8923    0.0000 H   0  0  0  0  0  0  0  0  0  0  0  0
    7.4082    1.5826    0.0000 H   0  0  0  0  0  0  0  0  0  0  0  0
    5.7196   -1.3923    0.0000 H   0  0  0  0  0  0  0  0  0  0  0  0
    6.1181   -2.0826    0.0000 H   0  0  0  0  0  0  0  0  0  0  0  0
    5.2087    2.3923    0.0000 H   0  0  0  0  0  0  0  0  0  0  0  0
    4.8101    3.0826    0.0000 H   0  0  0  0  0  0  0  0  0  0  0  0
    8.0622   -0.8800    0.0000 H   0  0  0  0  0  0  0  0  0  0  0  0
    6.6592   -3.3100    0.0000 H   0  0  0  0  0  0  0  0  0  0  0  0
    4.2690    4.3100    0.0000 H   0  0  0  0  0  0  0  0  0  0  0  0
    2.8660    1.8800    0.0000 H   0  0  0  0  0  0  0  0  0  0  0  0
    9.4651   -1.6900    0.0000 H   0  0  0  0  0  0  0  0  0  0  0  0
    8.0622   -4.1200    0.0000 H   0  0  0  0  0  0  0  0  0  0  0  0
    2.8660    5.1200    0.0000 H   0  0  0  0  0  0  0  0  0  0  0  0
    1.4631    2.6900    0.0000 H   0  0  0  0  0  0  0  0  0  0  0  0
    1.4631    4.3100    0.0000 H   0  0  0  0  0  0  0  0  0  0  0  0
    9.1742   -4.5000    0.0000 H   0  0  0  0  0  0  0  0  0  0  0  0
    9.7942   -5.1200    0.0000 H   0  0  0  0  0  0  0  0  0  0  0  0
   10.4142   -4.5000    0.0000 H   0  0  0  0  0  0  0  0  0  0  0  0
  1  4  1  0  0  0  0
  1  8  1  0  0  0  0
  2 19  1  0  0  0  0
  2 23  1  0  0  0  0
  3  5  1  0  0  0  0
  3  7  1  0  0  0  0
  3  9  1  0  0  0  0
  4  5  1  0  0  0  0
  4  6  1  0  0  0  0
  4 24  1  0  0  0  0
  5 25  1  0  0  0  0
  5 26  1  0  0  0  0
  6 10  1  0  0  0  0
  6 27  1  0  0  0  0
  6 28  1  0  0  0  0
  7  8  1  0  0  0  0
  7 29  1  0  0  0  0
  7 30  1  0  0  0  0
  8 31  1  0  0  0  0
  8 32  1  0  0  0  0
  9 11  1  0  0  0  0
  9 33  1  0  0  0  0
  9 34  1  0  0  0  0
 10 12  1  0  0  0  0
 10 35  1  0  0  0  0
 10 36  1  0  0  0  0
 11 13  2  0  0  0  0
 11 14  1  0  0  0  0
 12 15  2  0  0  0  0
 12 16  1  0  0  0  0
 13 17  1  0  0  0  0
 13 37  1  0  0  0  0
 14 18  2  0  0  0  0
 14 38  1  0  0  0  0
 15 20  1  0  0  0  0
 15 39  1  0  0  0  0
 16 21  2  0  0  0  0
 16 40  1  0  0  0  0
 17 19  2  0  0  0  0
 17 41  1  0  0  0  0
 18 19  1  0  0  0  0
 18 42  1  0  0  0  0
 20 22  2  0  0  0  0
 20 43  1  0  0  0  0
 21 22  1  0  0  0  0
 21 44  1  0  0  0  0
 22 45  1  0  0  0  0
 23 46  1  0  0  0  0
 23 47  1  0  0  0  0
 23 48  1  0  0  0  0
M  END
> <PUBCHEM_COMPOUND_CID>
72737728

> <PUBCHEM_COMPOUND_CANONICALIZED>
1

> <PUBCHEM_CACTVS_COMPLEXITY>
322

> <PUBCHEM_CACTVS_HBOND_ACCEPTOR>
3

> <PUBCHEM_CACTVS_HBOND_DONOR>
0

> <PUBCHEM_CACTVS_ROTATABLE_BOND>
6

> <PUBCHEM_CACTVS_SUBSKEYS>
AAADceB6MAAAAAAAAAAAAAAAAAAAAAAAAAA8YIAAAAAAAAABQAAAHgAAAAAADBThmAYyBoMABACAAiBCAACCCAAgIAAIiAAODIgOJiKEsRuHMChkwBGYqAeQ0KIOIAAAAAAAAABAAAAAAAAAAAAAAAAAAA==

> <PUBCHEM_IUPAC_OPENEYE_NAME>
4-[(4-methoxyphenyl)methyl]-2-(2-phenylethyl)morpholine

> <PUBCHEM_IUPAC_CAS_NAME>
4-[(4-methoxyphenyl)methyl]-2-(2-phenylethyl)morpholine

> <PUBCHEM_IUPAC_NAME_MARKUP>
4-[(4-methoxyphenyl)methyl]-2-(2-phenylethyl)morpholine

> <PUBCHEM_IUPAC_NAME>
4-[(4-methoxyphenyl)methyl]-2-(2-phenylethyl)morpholine

> <PUBCHEM_IUPAC_SYSTEMATIC_NAME>
4-[(4-methoxyphenyl)methyl]-2-(2-phenylethyl)morpholine

> <PUBCHEM_IUPAC_TRADITIONAL_NAME>
4-p-anisyl-2-phenethyl-morpholine

> <PUBCHEM_IUPAC_INCHI>
InChI=1S/C20H25NO2/c1-22-19-10-8-18(9-11-19)15-21-13-14-23-20(16-21)12-7-17-5-3-2-4-6-17/h2-6,8-11,20H,7,12-16H2,1H3

> <PUBCHEM_IUPAC_INCHIKEY>
DFDOLOVKMMATDA-UHFFFAOYSA-N

> <PUBCHEM_XLOGP3_AA>
3.7

> <PUBCHEM_EXACT_MASS>
311.188529040

> <PUBCHEM_MOLECULAR_FORMULA>
C20H25NO2

> <PUBCHEM_MOLECULAR_WEIGHT>
311.4

> <PUBCHEM_OPENEYE_CAN_SMILES>
COC1=CC=C(C=C1)CN2CCOC(C2)CCC3=CC=CC=C3

> <PUBCHEM_OPENEYE_ISO_SMILES>
COC1=CC=C(C=C1)CN2CCOC(C2)CCC3=CC=CC=C3

> <PUBCHEM_CACTVS_TPSA>
21.7

> <PUBCHEM_MONOISOTOPIC_WEIGHT>
311.188529040

> <PUBCHEM_TOTAL_CHARGE>
0

> <PUBCHEM_HEAVY_ATOM_COUNT>
23

> <PUBCHEM_ATOM_DEF_STEREO_COUNT>
0

> <PUBCHEM_ATOM_UDEF_STEREO_COUNT>
1

> <PUBCHEM_BOND_DEF_STEREO_COUNT>
0

> <PUBCHEM_BOND_UDEF_STEREO_COUNT>
0

> <PUBCHEM_ISOTOPIC_ATOM_COUNT>
0

> <PUBCHEM_COMPONENT_COUNT>
1

> <PUBCHEM_CACTVS_TAUTO_COUNT>
-1

> <PUBCHEM_COORDINATE_TYPE>
1
5
255

> <PUBCHEM_BONDANNOTATIONS>
11  13  8
11  14  8
12  15  8
12  16  8
13  17  8
14  18  8
15  20  8
16  21  8
17  19  8
18  19  8
20  22  8
21  22  8
4  6  3

$$$$
