137640451
  -OEChem-09292322392D

 68 72  0     0  0  0  0  0  0999 V2000
    4.6701   -2.9648    0.0000 S   0  0  0  0  0  0  0  0  0  0  0  0
    6.4021    8.0352    0.0000 F   0  0  0  0  0  0  0  0  0  0  0  0
    6.4021    0.0352    0.0000 N   0  0  0  0  0  0  0  0  0  0  0  0
    6.4021    4.0352    0.0000 N   0  0  0  0  0  0  0  0  0  0  0  0
    3.8611   -4.5526    0.0000 N   0  0  0  0  0  0  0  0  0  0  0  0
    5.4791   -4.5526    0.0000 N   0  0  0  0  0  0  0  0  0  0  0  0
    5.1701   -5.5036    0.0000 N   0  0  0  0  0  0  0  0  0  0  0  0
    6.4021    2.0352    0.0000 C   0  0  0  0  0  0  0  0  0  0  0  0
    5.5361    1.5352    0.0000 C   0  0  0  0  0  0  0  0  0  0  0  0
    7.2682    1.5352    0.0000 C   0  0  0  0  0  0  0  0  0  0  0  0
    7.2682    2.5352    0.0000 C   0  0  0  0  0  0  0  0  0  0  0  0
    5.5361    2.5352    0.0000 C   0  0  0  0  0  0  0  0  0  0  0  0
    5.5361    0.5352    0.0000 C   0  0  0  0  0  0  0  0  0  0  0  0
    7.2682    0.5352    0.0000 C   0  0  0  0  0  0  0  0  0  0  0  0
    7.2682    3.5352    0.0000 C   0  0  0  0  0  0  0  0  0  0  0  0
    5.5361    3.5352    0.0000 C   0  0  0  0  0  0  0  0  0  0  0  0
    6.4021   -0.9648    0.0000 C   0  0  0  0  0  0  0  0  0  0  0  0
    6.4021    5.0352    0.0000 C   0  0  0  0  0  0  0  0  0  0  0  0
    5.5361   -1.4648    0.0000 C   0  0  0  0  0  0  0  0  0  0  0  0
    5.5361    5.5352    0.0000 C   0  0  0  0  0  0  0  0  0  0  0  0
    7.2682    5.5352    0.0000 C   0  0  0  0  0  0  0  0  0  0  0  0
    5.5361   -2.4648    0.0000 C   0  0  0  0  0  0  0  0  0  0  0  0
    5.5361    6.5352    0.0000 C   0  0  0  0  0  0  0  0  0  0  0  0
    7.2682    6.5352    0.0000 C   0  0  0  0  0  0  0  0  0  0  0  0
    6.4021    7.0352    0.0000 C   0  0  0  0  0  0  0  0  0  0  0  0
    4.6701   -3.9648    0.0000 C   0  0  0  0  0  0  0  0  0  0  0  0
    4.1701   -5.5036    0.0000 C   0  0  0  0  0  0  0  0  0  0  0  0
    2.9100   -4.2436    0.0000 C   0  0  0  0  0  0  0  0  0  0  0  0
    3.5823   -6.3126    0.0000 C   0  0  0  0  0  0  0  0  0  0  0  0
    2.5878   -6.2081    0.0000 C   0  0  0  0  0  0  0  0  0  0  0  0
    3.9890   -7.2262    0.0000 C   0  0  0  0  0  0  0  0  0  0  0  0
    2.0000   -7.0171    0.0000 C   0  0  0  0  0  0  0  0  0  0  0  0
    3.4013   -8.0352    0.0000 C   0  0  0  0  0  0  0  0  0  0  0  0
    2.4067   -7.9307    0.0000 C   0  0  0  0  0  0  0  0  0  0  0  0
    5.3241    2.1178    0.0000 H   0  0  0  0  0  0  0  0  0  0  0  0
    4.9255    1.4276    0.0000 H   0  0  0  0  0  0  0  0  0  0  0  0
    7.8788    1.4276    0.0000 H   0  0  0  0  0  0  0  0  0  0  0  0
    7.4802    2.1178    0.0000 H   0  0  0  0  0  0  0  0  0  0  0  0
    7.4802    1.9526    0.0000 H   0  0  0  0  0  0  0  0  0  0  0  0
    7.8788    2.6429    0.0000 H   0  0  0  0  0  0  0  0  0  0  0  0
    4.9255    2.6429    0.0000 H   0  0  0  0  0  0  0  0  0  0  0  0
    5.3241    1.9526    0.0000 H   0  0  0  0  0  0  0  0  0  0  0  0
    4.9255    0.6429    0.0000 H   0  0  0  0  0  0  0  0  0  0  0  0
    5.3241   -0.0474    0.0000 H   0  0  0  0  0  0  0  0  0  0  0  0
    7.4802   -0.0474    0.0000 H   0  0  0  0  0  0  0  0  0  0  0  0
    7.8788    0.6429    0.0000 H   0  0  0  0  0  0  0  0  0  0  0  0
    7.8788    3.4276    0.0000 H   0  0  0  0  0  0  0  0  0  0  0  0
    7.4802    4.1178    0.0000 H   0  0  0  0  0  0  0  0  0  0  0  0
    5.3241    4.1178    0.0000 H   0  0  0  0  0  0  0  0  0  0  0  0
    4.9255    3.4276    0.0000 H   0  0  0  0  0  0  0  0  0  0  0  0
    6.6142   -1.5474    0.0000 H   0  0  0  0  0  0  0  0  0  0  0  0
    7.0127   -0.8571    0.0000 H   0  0  0  0  0  0  0  0  0  0  0  0
    5.3241   -0.8822    0.0000 H   0  0  0  0  0  0  0  0  0  0  0  0
    4.9255   -1.5724    0.0000 H   0  0  0  0  0  0  0  0  0  0  0  0
    4.9992    5.2252    0.0000 H   0  0  0  0  0  0  0  0  0  0  0  0
    7.8051    5.2252    0.0000 H   0  0  0  0  0  0  0  0  0  0  0  0
    5.7482   -3.0474    0.0000 H   0  0  0  0  0  0  0  0  0  0  0  0
    6.1467   -2.3571    0.0000 H   0  0  0  0  0  0  0  0  0  0  0  0
    4.9992    6.8452    0.0000 H   0  0  0  0  0  0  0  0  0  0  0  0
    7.8051    6.8452    0.0000 H   0  0  0  0  0  0  0  0  0  0  0  0
    3.1016   -3.6539    0.0000 H   0  0  0  0  0  0  0  0  0  0  0  0
    2.3204   -4.0520    0.0000 H   0  0  0  0  0  0  0  0  0  0  0  0
    2.7184   -4.8332    0.0000 H   0  0  0  0  0  0  0  0  0  0  0  0
    2.3356   -5.6417    0.0000 H   0  0  0  0  0  0  0  0  0  0  0  0
    4.6056   -7.2910    0.0000 H   0  0  0  0  0  0  0  0  0  0  0  0
    1.3834   -6.9523    0.0000 H   0  0  0  0  0  0  0  0  0  0  0  0
    3.6534   -8.6016    0.0000 H   0  0  0  0  0  0  0  0  0  0  0  0
    2.0423   -8.4323    0.0000 H   0  0  0  0  0  0  0  0  0  0  0  0
  1 22  1  0  0  0  0
  1 26  1  0  0  0  0
  2 25  1  0  0  0  0
  3 13  1  0  0  0  0
  3 14  1  0  0  0  0
  3 17  1  0  0  0  0
  4 15  1  0  0  0  0
  4 16  1  0  0  0  0
  4 18  1  0  0  0  0
  5 26  1  0  0  0  0
  5 27  1  0  0  0  0
  5 28  1  0  0  0  0
  6  7  1  0  0  0  0
  6 26  2  0  0  0  0
  7 27  2  0  0  0  0
  8  9  1  0  0  0  0
  8 10  1  0  0  0  0
  8 11  1  0  0  0  0
  8 12  1  0  0  0  0
  9 13  1  0  0  0  0
  9 35  1  0  0  0  0
  9 36  1  0  0  0  0
 10 14  1  0  0  0  0
 10 37  1  0  0  0  0
 10 38  1  0  0  0  0
 11 15  1  0  0  0  0
 11 39  1  0  0  0  0
 11 40  1  0  0  0  0
 12 16  1  0  0  0  0
 12 41  1  0  0  0  0
 12 42  1  0  0  0  0
 13 43  1  0  0  0  0
 13 44  1  0  0  0  0
 14 45  1  0  0  0  0
 14 46  1  0  0  0  0
 15 47  1  0  0  0  0
 15 48  1  0  0  0  0
 16 49  1  0  0  0  0
 16 50  1  0  0  0  0
 17 19  1  0  0  0  0
 17 51  1  0  0  0  0
 17 52  1  0  0  0  0
 18 20  2  0  0  0  0
 18 21  1  0  0  0  0
 19 22  1  0  0  0  0
 19 53  1  0  0  0  0
 19 54  1  0  0  0  0
 20 23  1  0  0  0  0
 20 55  1  0  0  0  0
 21 24  2  0  0  0  0
 21 56  1  0  0  0  0
 22 57  1  0  0  0  0
 22 58  1  0  0  0  0
 23 25  2  0  0  0  0
 23 59  1  0  0  0  0
 24 25  1  0  0  0  0
 24 60  1  0  0  0  0
 27 29  1  0  0  0  0
 28 61  1  0  0  0  0
 28 62  1  0  0  0  0
 28 63  1  0  0  0  0
 29 30  2  0  0  0  0
 29 31  1  0  0  0  0
 30 32  1  0  0  0  0
 30 64  1  0  0  0  0
 31 33  2  0  0  0  0
 31 65  1  0  0  0  0
 32 34  2  0  0  0  0
 32 66  1  0  0  0  0
 33 34  1  0  0  0  0
 33 67  1  0  0  0  0
 34 68  1  0  0  0  0
M  END
> <PUBCHEM_COMPOUND_CID>
137640451

> <PUBCHEM_COMPOUND_CANONICALIZED>
1

> <PUBCHEM_CACTVS_COMPLEXITY>
606

> <PUBCHEM_CACTVS_HBOND_ACCEPTOR>
6

> <PUBCHEM_CACTVS_HBOND_DONOR>
0

> <PUBCHEM_CACTVS_ROTATABLE_BOND>
7

> <PUBCHEM_CACTVS_SUBSKEYS>
AAADcfB7gQBAAAAAAAAAAAAAAAAAAWAAAAA8eIEAAAAAAAAB0AAAHQQIAAAADgjFWwyz0IcMEAiiAiZiZACS0AthArAdyCAoZJiIKKLgmZGEIAhgiALIyAcQgAAPAAAAAAAAAAAAAAAAAAAAAAAAAAAAAA==

> <PUBCHEM_IUPAC_OPENEYE_NAME>
3-(4-fluorophenyl)-9-[3-[(4-methyl-5-phenyl-1,2,4-triazol-3-yl)sulfanyl]propyl]-3,9-diazaspiro[5.5]undecane

> <PUBCHEM_IUPAC_CAS_NAME>
3-(4-fluorophenyl)-9-[3-[(4-methyl-5-phenyl-1,2,4-triazol-3-yl)thio]propyl]-3,9-diazaspiro[5.5]undecane

> <PUBCHEM_IUPAC_NAME_MARKUP>
3-(4-fluorophenyl)-9-[3-[(4-methyl-5-phenyl-1,2,4-triazol-3-yl)sulfanyl]propyl]-3,9-diazaspiro[5.5]undecane

> <PUBCHEM_IUPAC_NAME>
3-(4-fluorophenyl)-9-[3-[(4-methyl-5-phenyl-1,2,4-triazol-3-yl)sulfanyl]propyl]-3,9-diazaspiro[5.5]undecane

> <PUBCHEM_IUPAC_SYSTEMATIC_NAME>
3-(4-fluorophenyl)-9-[3-[(4-methyl-5-phenyl-1,2,4-triazol-3-yl)sulfanyl]propyl]-3,9-diazaspiro[5.5]undecane

> <PUBCHEM_IUPAC_TRADITIONAL_NAME>
3-(4-fluorophenyl)-9-[3-[(4-methyl-5-phenyl-1,2,4-triazol-3-yl)thio]propyl]-3,9-diazaspiro[5.5]undecane

> <PUBCHEM_IUPAC_INCHI>
InChI=1S/C27H34FN5S/c1-31-25(22-6-3-2-4-7-22)29-30-26(31)34-21-5-16-32-17-12-27(13-18-32)14-19-33(20-15-27)24-10-8-23(28)9-11-24/h2-4,6-11H,5,12-21H2,1H3

> <PUBCHEM_IUPAC_INCHIKEY>
ZFMUBWAYZJMZAS-UHFFFAOYSA-N

> <PUBCHEM_XLOGP3_AA>
5.3

> <PUBCHEM_EXACT_MASS>
479.25189544

> <PUBCHEM_MOLECULAR_FORMULA>
C27H34FN5S

> <PUBCHEM_MOLECULAR_WEIGHT>
479.7

> <PUBCHEM_OPENEYE_CAN_SMILES>
CN1C(=NN=C1SCCCN2CCC3(CC2)CCN(CC3)C4=CC=C(C=C4)F)C5=CC=CC=C5

> <PUBCHEM_OPENEYE_ISO_SMILES>
CN1C(=NN=C1SCCCN2CCC3(CC2)CCN(CC3)C4=CC=C(C=C4)F)C5=CC=CC=C5

> <PUBCHEM_CACTVS_TPSA>
62.5

> <PUBCHEM_MONOISOTOPIC_WEIGHT>
479.25189544

> <PUBCHEM_TOTAL_CHARGE>
0

> <PUBCHEM_HEAVY_ATOM_COUNT>
34

> <PUBCHEM_ATOM_DEF_STEREO_COUNT>
0

> <PUBCHEM_ATOM_UDEF_STEREO_COUNT>
0

> <PUBCHEM_BOND_DEF_STEREO_COUNT>
0

> <PUBCHEM_BOND_UDEF_STEREO_COUNT>
0

> <PUBCHEM_ISOTOPIC_ATOM_COUNT>
0

> <PUBCHEM_COMPONENT_COUNT>
1

> <PUBCHEM_CACTVS_TAUTO_COUNT>
-1

> <PUBCHEM_COORDINATE_TYPE>
1
5
255

> <PUBCHEM_BONDANNOTATIONS>
18  20  8
18  21  8
20  23  8
21  24  8
23  25  8
24  25  8
29  30  8
29  31  8
30  32  8
31  33  8
32  34  8
33  34  8
5  26  8
5  27  8
6  26  8
6  7  8
7  27  8

$$$$
