164611757
  -OEChem-09292322012D

 58 59  0     1  0  0  0  0  0999 V2000
    4.0015    5.6857    0.0000 S   0  0  0  0  0  0  0  0  0  0  0  0
    4.9720    0.1912    0.0000 O   0  0  0  0  0  0  0  0  0  0  0  0
    5.8381   -1.3088    0.0000 N   0  0  0  0  0  0  0  0  0  0  0  0
    6.7041    0.1912    0.0000 N   0  0  0  0  0  0  0  0  0  0  0  0
    5.8381    1.6912    0.0000 N   0  0  0  0  0  0  0  0  0  0  0  0
    2.5233    5.0276    0.0000 N   0  0  0  0  0  0  0  0  0  0  0  0
    7.5701    1.6912    0.0000 N   0  0  0  0  0  0  0  0  0  0  0  0
    2.6166    6.8072    0.0000 N   0  0  0  0  0  0  0  0  0  0  0  0
    4.9720   -2.8088    0.0000 C   0  0  3  0  0  0  0  0  0  0  0  0
    4.1060   -3.3088    0.0000 C   0  0  0  0  0  0  0  0  0  0  0  0
    4.9720   -1.8088    0.0000 C   0  0  0  0  0  0  0  0  0  0  0  0
    5.8381   -3.3088    0.0000 C   0  0  0  0  0  0  0  0  0  0  0  0
    4.1060   -4.3088    0.0000 C   0  0  0  0  0  0  0  0  0  0  0  0
    3.2400   -4.8088    0.0000 C   0  0  0  0  0  0  0  0  0  0  0  0
    4.9720   -4.8088    0.0000 C   0  0  0  0  0  0  0  0  0  0  0  0
    4.9720    3.1912    0.0000 C   0  0  0  0  0  0  0  0  0  0  0  0
    3.2400   -5.8088    0.0000 C   0  0  0  0  0  0  0  0  0  0  0  0
    4.9720   -5.8088    0.0000 C   0  0  0  0  0  0  0  0  0  0  0  0
    4.9720    4.1912    0.0000 C   0  0  0  0  0  0  0  0  0  0  0  0
    4.1060   -6.3088    0.0000 C   0  0  0  0  0  0  0  0  0  0  0  0
    5.8381   -0.3088    0.0000 C   0  0  0  0  0  0  0  0  0  0  0  0
    5.8381    2.6912    0.0000 C   0  0  0  0  0  0  0  0  0  0  0  0
    4.1060    4.6912    0.0000 C   0  0  0  0  0  0  0  0  0  0  0  0
    3.1925    4.2845    0.0000 C   0  0  0  0  0  0  0  0  0  0  0  0
    4.1060   -7.3088    0.0000 C   0  0  0  0  0  0  0  0  0  0  0  0
    6.7041    1.1912    0.0000 C   0  0  0  0  0  0  0  0  0  0  0  0
    2.9846    3.3063    0.0000 C   0  0  0  0  0  0  0  0  0  0  0  0
    3.0233    5.8936    0.0000 C   0  0  0  0  0  0  0  0  0  0  0  0
    4.9720   -3.4288    0.0000 H   0  0  0  0  0  0  0  0  0  0  0  0
    3.8940   -2.7262    0.0000 H   0  0  0  0  0  0  0  0  0  0  0  0
    3.4954   -3.4164    0.0000 H   0  0  0  0  0  0  0  0  0  0  0  0
    4.7600   -1.2262    0.0000 H   0  0  0  0  0  0  0  0  0  0  0  0
    4.3615   -1.9164    0.0000 H   0  0  0  0  0  0  0  0  0  0  0  0
    5.5281   -3.8457    0.0000 H   0  0  0  0  0  0  0  0  0  0  0  0
    6.3750   -3.6188    0.0000 H   0  0  0  0  0  0  0  0  0  0  0  0
    6.1481   -2.7718    0.0000 H   0  0  0  0  0  0  0  0  0  0  0  0
    6.3750   -1.6188    0.0000 H   0  0  0  0  0  0  0  0  0  0  0  0
    2.7031   -4.4988    0.0000 H   0  0  0  0  0  0  0  0  0  0  0  0
    5.5090   -4.4988    0.0000 H   0  0  0  0  0  0  0  0  0  0  0  0
    4.3615    3.2989    0.0000 H   0  0  0  0  0  0  0  0  0  0  0  0
    4.7600    2.6086    0.0000 H   0  0  0  0  0  0  0  0  0  0  0  0
    5.5826    4.0836    0.0000 H   0  0  0  0  0  0  0  0  0  0  0  0
    5.1841    4.7738    0.0000 H   0  0  0  0  0  0  0  0  0  0  0  0
    2.7031   -6.1188    0.0000 H   0  0  0  0  0  0  0  0  0  0  0  0
    5.5090   -6.1188    0.0000 H   0  0  0  0  0  0  0  0  0  0  0  0
    6.4486    2.5835    0.0000 H   0  0  0  0  0  0  0  0  0  0  0  0
    6.0501    3.2738    0.0000 H   0  0  0  0  0  0  0  0  0  0  0  0
    7.2410   -0.1188    0.0000 H   0  0  0  0  0  0  0  0  0  0  0  0
    3.4860   -7.3088    0.0000 H   0  0  0  0  0  0  0  0  0  0  0  0
    4.1060   -7.9288    0.0000 H   0  0  0  0  0  0  0  0  0  0  0  0
    4.7260   -7.3088    0.0000 H   0  0  0  0  0  0  0  0  0  0  0  0
    2.3781    3.4352    0.0000 H   0  0  0  0  0  0  0  0  0  0  0  0
    2.8556    2.6999    0.0000 H   0  0  0  0  0  0  0  0  0  0  0  0
    3.5910    3.1774    0.0000 H   0  0  0  0  0  0  0  0  0  0  0  0
    7.5701    2.3112    0.0000 H   0  0  0  0  0  0  0  0  0  0  0  0
    8.1070    1.3812    0.0000 H   0  0  0  0  0  0  0  0  0  0  0  0
    2.0000    6.8720    0.0000 H   0  0  0  0  0  0  0  0  0  0  0  0
    2.9810    7.3088    0.0000 H   0  0  0  0  0  0  0  0  0  0  0  0
  1 23  1  0  0  0  0
  1 28  1  0  0  0  0
  2 21  2  0  0  0  0
  3 11  1  0  0  0  0
  3 21  1  0  0  0  0
  3 37  1  0  0  0  0
  4 21  1  0  0  0  0
  4 26  1  0  0  0  0
  4 48  1  0  0  0  0
  5 22  1  0  0  0  0
  5 26  2  0  0  0  0
  6 24  1  0  0  0  0
  6 28  2  0  0  0  0
  7 26  1  0  0  0  0
  7 55  1  0  0  0  0
  7 56  1  0  0  0  0
  8 28  1  0  0  0  0
  8 57  1  0  0  0  0
  8 58  1  0  0  0  0
  9 10  1  0  0  0  0
  9 11  1  0  0  0  0
  9 12  1  0  0  0  0
  9 29  1  0  0  0  0
 10 13  1  0  0  0  0
 10 30  1  0  0  0  0
 10 31  1  0  0  0  0
 11 32  1  0  0  0  0
 11 33  1  0  0  0  0
 12 34  1  0  0  0  0
 12 35  1  0  0  0  0
 12 36  1  0  0  0  0
 13 14  2  0  0  0  0
 13 15  1  0  0  0  0
 14 17  1  0  0  0  0
 14 38  1  0  0  0  0
 15 18  2  0  0  0  0
 15 39  1  0  0  0  0
 16 19  1  0  0  0  0
 16 22  1  0  0  0  0
 16 40  1  0  0  0  0
 16 41  1  0  0  0  0
 17 20  2  0  0  0  0
 17 44  1  0  0  0  0
 18 20  1  0  0  0  0
 18 45  1  0  0  0  0
 19 23  1  0  0  0  0
 19 42  1  0  0  0  0
 19 43  1  0  0  0  0
 20 25  1  0  0  0  0
 22 46  1  0  0  0  0
 22 47  1  0  0  0  0
 23 24  2  0  0  0  0
 24 27  1  0  0  0  0
 25 49  1  0  0  0  0
 25 50  1  0  0  0  0
 25 51  1  0  0  0  0
 27 52  1  0  0  0  0
 27 53  1  0  0  0  0
 27 54  1  0  0  0  0
M  END
> <PUBCHEM_COMPOUND_CID>
164611757

> <PUBCHEM_COMPOUND_CANONICALIZED>
1

> <PUBCHEM_CACTVS_COMPLEXITY>
509

> <PUBCHEM_CACTVS_HBOND_ACCEPTOR>
5

> <PUBCHEM_CACTVS_HBOND_DONOR>
4

> <PUBCHEM_CACTVS_ROTATABLE_BOND>
9

> <PUBCHEM_CACTVS_SUBSKEYS>
AAADceB7oABAAAAAAAAAAAAAAAAAAWAAAAAwAAAAAAAAAAABwAAAHgQQAAAADQjBXgQzkZLIEAisAyRidAAC8KlhCDkJmJQ4QIiIICLgkRCEIAAolwJIyCcQgMAOQAAAAAAAAACAAAAAAAAAAAAAAAAAAA==

> <PUBCHEM_IUPAC_OPENEYE_NAME>
1-[N'-[3-(2-amino-4-methyl-thiazol-5-yl)propyl]carbamimidoyl]-3-[2-methyl-3-(p-tolyl)propyl]urea

> <PUBCHEM_IUPAC_CAS_NAME>
1-[amino-[3-(2-amino-4-methyl-5-thiazolyl)propylimino]methyl]-3-[2-methyl-3-(4-methylphenyl)propyl]urea

> <PUBCHEM_IUPAC_NAME_MARKUP>
1-[<I>N</I>&apos;-[3-(2-amino-4-methyl-1,3-thiazol-5-yl)propyl]carbamimidoyl]-3-[2-methyl-3-(4-methylphenyl)propyl]urea

> <PUBCHEM_IUPAC_NAME>
1-[N'-[3-(2-amino-4-methyl-1,3-thiazol-5-yl)propyl]carbamimidoyl]-3-[2-methyl-3-(4-methylphenyl)propyl]urea

> <PUBCHEM_IUPAC_SYSTEMATIC_NAME>
1-[N'-[3-(2-azanyl-4-methyl-1,3-thiazol-5-yl)propyl]carbamimidoyl]-3-[2-methyl-3-(4-methylphenyl)propyl]urea

> <PUBCHEM_IUPAC_TRADITIONAL_NAME>
1-[N'-[3-(2-amino-4-methyl-thiazol-5-yl)propyl]amidino]-3-[2-methyl-3-(p-tolyl)propyl]urea

> <PUBCHEM_IUPAC_INCHI>
InChI=1S/C20H30N6OS/c1-13-6-8-16(9-7-13)11-14(2)12-24-20(27)26-18(21)23-10-4-5-17-15(3)25-19(22)28-17/h6-9,14H,4-5,10-12H2,1-3H3,(H2,22,25)(H4,21,23,24,26,27)

> <PUBCHEM_IUPAC_INCHIKEY>
BIZMGZSJEDDVNF-UHFFFAOYSA-N

> <PUBCHEM_XLOGP3_AA>
3.8

> <PUBCHEM_EXACT_MASS>
402.22018078

> <PUBCHEM_MOLECULAR_FORMULA>
C20H30N6OS

> <PUBCHEM_MOLECULAR_WEIGHT>
402.6

> <PUBCHEM_OPENEYE_CAN_SMILES>
CC1=CC=C(C=C1)CC(C)CNC(=O)NC(=NCCCC2=C(N=C(S2)N)C)N

> <PUBCHEM_OPENEYE_ISO_SMILES>
CC1=CC=C(C=C1)CC(C)CNC(=O)NC(=NCCCC2=C(N=C(S2)N)C)N

> <PUBCHEM_CACTVS_TPSA>
147

> <PUBCHEM_MONOISOTOPIC_WEIGHT>
402.22018078

> <PUBCHEM_TOTAL_CHARGE>
0

> <PUBCHEM_HEAVY_ATOM_COUNT>
28

> <PUBCHEM_ATOM_DEF_STEREO_COUNT>
0

> <PUBCHEM_ATOM_UDEF_STEREO_COUNT>
1

> <PUBCHEM_BOND_DEF_STEREO_COUNT>
0

> <PUBCHEM_BOND_UDEF_STEREO_COUNT>
0

> <PUBCHEM_ISOTOPIC_ATOM_COUNT>
0

> <PUBCHEM_COMPONENT_COUNT>
1

> <PUBCHEM_CACTVS_TAUTO_COUNT>
-1

> <PUBCHEM_COORDINATE_TYPE>
1
5
255

> <PUBCHEM_BONDANNOTATIONS>
1  23  8
1  28  8
13  14  8
13  15  8
14  17  8
15  18  8
17  20  8
18  20  8
23  24  8
6  24  8
6  28  8
9  12  3

$$$$
