46842383
  -OEChem-09292322072D

 71 74  0     1  0  0  0  0  0999 V2000
    7.2731    7.6190    0.0000 F   0  0  0  0  0  0  0  0  0  0  0  0
    6.2731    8.6190    0.0000 F   0  0  0  0  0  0  0  0  0  0  0  0
    5.2731    7.6190    0.0000 F   0  0  0  0  0  0  0  0  0  0  0  0
    6.8357   -5.7739    0.0000 O   0  0  0  0  0  0  0  0  0  0  0  0
    4.5411    1.6191    0.0000 O   0  0  0  0  0  0  0  0  0  0  0  0
    3.6750    5.1190    0.0000 O   0  0  0  0  0  0  0  0  0  0  0  0
    3.3090   -0.9198    0.0000 N   0  0  3  0  0  0  0  0  0  0  0  0
    5.2534   -5.0694    0.0000 N   0  0  0  0  0  0  0  0  0  0  0  0
    2.8090    1.6191    0.0000 N   0  0  0  0  0  0  0  0  0  0  0  0
    4.5411    3.6190    0.0000 N   0  0  0  0  0  0  0  0  0  0  0  0
    4.0778   -3.4514    0.0000 C   0  0  0  0  0  0  0  0  0  0  0  0
    3.4901   -2.6424    0.0000 C   0  0  0  0  0  0  0  0  0  0  0  0
    3.8968   -1.7288    0.0000 C   0  0  0  0  0  0  0  0  0  0  0  0
    2.8090    0.6191    0.0000 C   0  0  1  0  0  0  0  0  0  0  0  0
    3.6711   -4.3649    0.0000 C   0  0  0  0  0  0  0  0  0  0  0  0
    5.0724   -3.3468    0.0000 C   0  0  0  0  0  0  0  0  0  0  0  0
    3.6180    0.0313    0.0000 C   0  0  0  0  0  0  0  0  0  0  0  0
    2.3090   -0.9198    0.0000 C   0  0  0  0  0  0  0  0  0  0  0  0
    2.0000    0.0313    0.0000 C   0  0  0  0  0  0  0  0  0  0  0  0
    4.2589   -5.1739    0.0000 C   0  0  0  0  0  0  0  0  0  0  0  0
    5.6602   -4.1559    0.0000 C   0  0  0  0  0  0  0  0  0  0  0  0
    5.8412   -5.8784    0.0000 C   0  0  0  0  0  0  0  0  0  0  0  0
    3.6750    2.1190    0.0000 C   0  0  0  0  0  0  0  0  0  0  0  0
    5.4345   -6.7920    0.0000 C   0  0  0  0  0  0  0  0  0  0  0  0
    3.6750    3.1190    0.0000 C   0  0  0  0  0  0  0  0  0  0  0  0
    4.4399   -6.8965    0.0000 C   0  0  0  0  0  0  0  0  0  0  0  0
    6.0223   -7.6010    0.0000 C   0  0  0  0  0  0  0  0  0  0  0  0
    4.0332   -7.8100    0.0000 C   0  0  0  0  0  0  0  0  0  0  0  0
    5.6155   -8.5145    0.0000 C   0  0  0  0  0  0  0  0  0  0  0  0
    4.6210   -8.6190    0.0000 C   0  0  0  0  0  0  0  0  0  0  0  0
    4.5411    4.6190    0.0000 C   0  0  0  0  0  0  0  0  0  0  0  0
    5.4071    5.1190    0.0000 C   0  0  0  0  0  0  0  0  0  0  0  0
    5.4071    6.1190    0.0000 C   0  0  0  0  0  0  0  0  0  0  0  0
    6.2731    4.6190    0.0000 C   0  0  0  0  0  0  0  0  0  0  0  0
    6.2731    6.6190    0.0000 C   0  0  0  0  0  0  0  0  0  0  0  0
    7.1391    5.1190    0.0000 C   0  0  0  0  0  0  0  0  0  0  0  0
    7.1391    6.1190    0.0000 C   0  0  0  0  0  0  0  0  0  0  0  0
    6.2731    7.6190    0.0000 C   0  0  0  0  0  0  0  0  0  0  0  0
    4.3300   -2.8850    0.0000 H   0  0  0  0  0  0  0  0  0  0  0  0
    2.9761   -2.2957    0.0000 H   0  0  0  0  0  0  0  0  0  0  0  0
    3.0594   -3.0883    0.0000 H   0  0  0  0  0  0  0  0  0  0  0  0
    4.4108   -2.0755    0.0000 H   0  0  0  0  0  0  0  0  0  0  0  0
    4.3275   -1.2828    0.0000 H   0  0  0  0  0  0  0  0  0  0  0  0
    3.3614    0.9005    0.0000 H   0  0  0  0  0  0  0  0  0  0  0  0
    3.1571   -4.0182    0.0000 H   0  0  0  0  0  0  0  0  0  0  0  0
    3.2404   -4.8109    0.0000 H   0  0  0  0  0  0  0  0  0  0  0  0
    5.6296   -3.0750    0.0000 H   0  0  0  0  0  0  0  0  0  0  0  0
    4.9015   -2.7509    0.0000 H   0  0  0  0  0  0  0  0  0  0  0  0
    4.1844   -0.2209    0.0000 H   0  0  0  0  0  0  0  0  0  0  0  0
    3.9280    0.5682    0.0000 H   0  0  0  0  0  0  0  0  0  0  0  0
    1.7026   -1.0487    0.0000 H   0  0  0  0  0  0  0  0  0  0  0  0
    2.3738   -1.5364    0.0000 H   0  0  0  0  0  0  0  0  0  0  0  0
    1.6900    0.5682    0.0000 H   0  0  0  0  0  0  0  0  0  0  0  0
    1.4336   -0.2209    0.0000 H   0  0  0  0  0  0  0  0  0  0  0  0
    3.7016   -5.4457    0.0000 H   0  0  0  0  0  0  0  0  0  0  0  0
    4.4298   -5.7699    0.0000 H   0  0  0  0  0  0  0  0  0  0  0  0
    6.1742   -4.5026    0.0000 H   0  0  0  0  0  0  0  0  0  0  0  0
    6.0908   -3.7099    0.0000 H   0  0  0  0  0  0  0  0  0  0  0  0
    2.2721    1.9290    0.0000 H   0  0  0  0  0  0  0  0  0  0  0  0
    3.4630    3.7017    0.0000 H   0  0  0  0  0  0  0  0  0  0  0  0
    3.0645    3.0114    0.0000 H   0  0  0  0  0  0  0  0  0  0  0  0
    4.0755   -6.3949    0.0000 H   0  0  0  0  0  0  0  0  0  0  0  0
    6.6389   -7.5362    0.0000 H   0  0  0  0  0  0  0  0  0  0  0  0
    5.0780    3.3090    0.0000 H   0  0  0  0  0  0  0  0  0  0  0  0
    3.4166   -7.8748    0.0000 H   0  0  0  0  0  0  0  0  0  0  0  0
    5.9800   -9.0161    0.0000 H   0  0  0  0  0  0  0  0  0  0  0  0
    4.3688   -9.1854    0.0000 H   0  0  0  0  0  0  0  0  0  0  0  0
    4.8702    6.4290    0.0000 H   0  0  0  0  0  0  0  0  0  0  0  0
    6.2731    3.9990    0.0000 H   0  0  0  0  0  0  0  0  0  0  0  0
    7.6761    4.8090    0.0000 H   0  0  0  0  0  0  0  0  0  0  0  0
    7.6761    6.4290    0.0000 H   0  0  0  0  0  0  0  0  0  0  0  0
  1 38  1  0  0  0  0
  2 38  1  0  0  0  0
  3 38  1  0  0  0  0
  4 22  2  0  0  0  0
  5 23  2  0  0  0  0
  6 31  2  0  0  0  0
  7 13  1  0  0  0  0
  7 17  1  0  0  0  0
  7 18  1  0  0  0  0
  8 20  1  0  0  0  0
  8 21  1  0  0  0  0
  8 22  1  0  0  0  0
 14  9  1  1  0  0  0
  9 23  1  0  0  0  0
  9 59  1  0  0  0  0
 10 25  1  0  0  0  0
 10 31  1  0  0  0  0
 10 64  1  0  0  0  0
 11 12  1  0  0  0  0
 11 15  1  0  0  0  0
 11 16  1  0  0  0  0
 11 39  1  0  0  0  0
 12 13  1  0  0  0  0
 12 40  1  0  0  0  0
 12 41  1  0  0  0  0
 13 42  1  0  0  0  0
 13 43  1  0  0  0  0
 14 17  1  0  0  0  0
 14 19  1  0  0  0  0
 14 44  1  0  0  0  0
 15 20  1  0  0  0  0
 15 45  1  0  0  0  0
 15 46  1  0  0  0  0
 16 21  1  0  0  0  0
 16 47  1  0  0  0  0
 16 48  1  0  0  0  0
 17 49  1  0  0  0  0
 17 50  1  0  0  0  0
 18 19  1  0  0  0  0
 18 51  1  0  0  0  0
 18 52  1  0  0  0  0
 19 53  1  0  0  0  0
 19 54  1  0  0  0  0
 20 55  1  0  0  0  0
 20 56  1  0  0  0  0
 21 57  1  0  0  0  0
 21 58  1  0  0  0  0
 22 24  1  0  0  0  0
 23 25  1  0  0  0  0
 24 26  2  0  0  0  0
 24 27  1  0  0  0  0
 25 60  1  0  0  0  0
 25 61  1  0  0  0  0
 26 28  1  0  0  0  0
 26 62  1  0  0  0  0
 27 29  2  0  0  0  0
 27 63  1  0  0  0  0
 28 30  2  0  0  0  0
 28 65  1  0  0  0  0
 29 30  1  0  0  0  0
 29 66  1  0  0  0  0
 30 67  1  0  0  0  0
 31 32  1  0  0  0  0
 32 33  2  0  0  0  0
 32 34  1  0  0  0  0
 33 35  1  0  0  0  0
 33 68  1  0  0  0  0
 34 36  2  0  0  0  0
 34 69  1  0  0  0  0
 35 37  2  0  0  0  0
 35 38  1  0  0  0  0
 36 37  1  0  0  0  0
 36 70  1  0  0  0  0
 37 71  1  0  0  0  0
M  END
> <PUBCHEM_COMPOUND_CID>
46842383

> <PUBCHEM_COMPOUND_CANONICALIZED>
1

> <PUBCHEM_CACTVS_COMPLEXITY>
810

> <PUBCHEM_CACTVS_HBOND_ACCEPTOR>
7

> <PUBCHEM_CACTVS_HBOND_DONOR>
2

> <PUBCHEM_CACTVS_ROTATABLE_BOND>
8

> <PUBCHEM_CACTVS_SUBSKEYS>
AAADcfB7sYAAAAAAAAAAAAAAAAAAAWAAAAA8YIAAAAAAAAABQAAAHwAQAAAADSjBmBQwAIPAAACIAiFSEACCAAAkAAAIiIGIBMgIYDKA1TGUIQhglgCIiYcYiECOAAACAAAAAAAAAAQAAAAAAAAAAAAAAA==

> <PUBCHEM_IUPAC_OPENEYE_NAME>
N-[2-[[(3R)-1-[2-(1-benzoyl-4-piperidyl)ethyl]pyrrolidin-3-yl]amino]-2-oxo-ethyl]-3-(trifluoromethyl)benzamide

> <PUBCHEM_IUPAC_CAS_NAME>
N-[2-[[(3R)-1-[2-(1-benzoyl-4-piperidinyl)ethyl]-3-pyrrolidinyl]amino]-2-oxoethyl]-3-(trifluoromethyl)benzamide

> <PUBCHEM_IUPAC_NAME_MARKUP>
<I>N</I>-[2-[[(3<I>R</I>)-1-[2-(1-benzoylpiperidin-4-yl)ethyl]pyrrolidin-3-yl]amino]-2-oxoethyl]-3-(trifluoromethyl)benzamide

> <PUBCHEM_IUPAC_NAME>
N-[2-[[(3R)-1-[2-(1-benzoylpiperidin-4-yl)ethyl]pyrrolidin-3-yl]amino]-2-oxoethyl]-3-(trifluoromethyl)benzamide

> <PUBCHEM_IUPAC_SYSTEMATIC_NAME>
N-[2-oxidanylidene-2-[[(3R)-1-[2-[1-(phenylcarbonyl)piperidin-4-yl]ethyl]pyrrolidin-3-yl]amino]ethyl]-3-(trifluoromethyl)benzamide

> <PUBCHEM_IUPAC_TRADITIONAL_NAME>
N-[2-[[(3R)-1-[2-(1-benzoyl-4-piperidyl)ethyl]pyrrolidin-3-yl]amino]-2-keto-ethyl]-3-(trifluoromethyl)benzamide

> <PUBCHEM_IUPAC_INCHI>
InChI=1S/C28H33F3N4O3/c29-28(30,31)23-8-4-7-22(17-23)26(37)32-18-25(36)33-24-12-14-34(19-24)13-9-20-10-15-35(16-11-20)27(38)21-5-2-1-3-6-21/h1-8,17,20,24H,9-16,18-19H2,(H,32,37)(H,33,36)/t24-/m1/s1

> <PUBCHEM_IUPAC_INCHIKEY>
MCEPAFGIBULHLP-XMMPIXPASA-N

> <PUBCHEM_XLOGP3_AA>
3.9

> <PUBCHEM_EXACT_MASS>
530.25047541

> <PUBCHEM_MOLECULAR_FORMULA>
C28H33F3N4O3

> <PUBCHEM_MOLECULAR_WEIGHT>
530.6

> <PUBCHEM_OPENEYE_CAN_SMILES>
C1CN(CCC1CCN2CCC(C2)NC(=O)CNC(=O)C3=CC(=CC=C3)C(F)(F)F)C(=O)C4=CC=CC=C4

> <PUBCHEM_OPENEYE_ISO_SMILES>
C1CN(C[C@@H]1NC(=O)CNC(=O)C2=CC(=CC=C2)C(F)(F)F)CCC3CCN(CC3)C(=O)C4=CC=CC=C4

> <PUBCHEM_CACTVS_TPSA>
81.8

> <PUBCHEM_MONOISOTOPIC_WEIGHT>
530.25047541

> <PUBCHEM_TOTAL_CHARGE>
0

> <PUBCHEM_HEAVY_ATOM_COUNT>
38

> <PUBCHEM_ATOM_DEF_STEREO_COUNT>
1

> <PUBCHEM_ATOM_UDEF_STEREO_COUNT>
0

> <PUBCHEM_BOND_DEF_STEREO_COUNT>
0

> <PUBCHEM_BOND_UDEF_STEREO_COUNT>
0

> <PUBCHEM_ISOTOPIC_ATOM_COUNT>
0

> <PUBCHEM_COMPONENT_COUNT>
1

> <PUBCHEM_CACTVS_TAUTO_COUNT>
-1

> <PUBCHEM_COORDINATE_TYPE>
1
5
255

> <PUBCHEM_BONDANNOTATIONS>
24  26  8
24  27  8
26  28  8
27  29  8
28  30  8
29  30  8
32  33  8
32  34  8
33  35  8
34  36  8
35  37  8
36  37  8
14  9  5

$$$$
