44214766
  -OEChem-09292322092D

 48 51  0     1  0  0  0  0  0999 V2000
    3.6750   -5.1126    0.0000 S   0  0  0  0  0  0  0  0  0  0  0  0
    2.0000   -0.0248    0.0000 O   0  0  0  0  0  0  0  0  0  0  0  0
    4.2320    2.5140    0.0000 N   0  0  3  0  0  0  0  0  0  0  0  0
    3.7320   -0.0248    0.0000 N   0  0  0  0  0  0  0  0  0  0  0  0
    3.7320    0.9752    0.0000 C   0  0  3  0  0  0  0  0  0  0  0  0
    2.9230    1.5630    0.0000 C   0  0  0  0  0  0  0  0  0  0  0  0
    4.5411    1.5630    0.0000 C   0  0  0  0  0  0  0  0  0  0  0  0
    3.2320    2.5140    0.0000 C   0  0  0  0  0  0  0  0  0  0  0  0
    4.8198    3.3230    0.0000 C   0  0  0  0  0  0  0  0  0  0  0  0
    4.4131    4.2366    0.0000 C   0  0  0  0  0  0  0  0  0  0  0  0
    2.8660   -0.5248    0.0000 C   0  0  0  0  0  0  0  0  0  0  0  0
    3.4186    4.3411    0.0000 C   0  0  0  0  0  0  0  0  0  0  0  0
    5.0009    5.0456    0.0000 C   0  0  0  0  0  0  0  0  0  0  0  0
    2.8660   -1.5248    0.0000 C   0  0  0  0  0  0  0  0  0  0  0  0
    3.0118    5.2546    0.0000 C   0  0  0  0  0  0  0  0  0  0  0  0
    4.5942    5.9591    0.0000 C   0  0  0  0  0  0  0  0  0  0  0  0
    2.0000   -2.0248    0.0000 C   0  0  0  0  0  0  0  0  0  0  0  0
    3.7320   -2.0248    0.0000 C   0  0  0  0  0  0  0  0  0  0  0  0
    3.5996    6.0637    0.0000 C   0  0  0  0  0  0  0  0  0  0  0  0
    2.8660   -3.5248    0.0000 C   0  0  0  0  0  0  0  0  0  0  0  0
    2.0000   -3.0248    0.0000 C   0  0  0  0  0  0  0  0  0  0  0  0
    3.7320   -3.0248    0.0000 C   0  0  0  0  0  0  0  0  0  0  0  0
    2.8660   -4.5248    0.0000 C   0  0  0  0  0  0  0  0  0  0  0  0
    2.0570   -5.1126    0.0000 C   0  0  0  0  0  0  0  0  0  0  0  0
    2.3660   -6.0637    0.0000 C   0  0  0  0  0  0  0  0  0  0  0  0
    3.3660   -6.0637    0.0000 C   0  0  0  0  0  0  0  0  0  0  0  0
    4.2845    0.6937    0.0000 H   0  0  0  0  0  0  0  0  0  0  0  0
    2.3566    1.8151    0.0000 H   0  0  0  0  0  0  0  0  0  0  0  0
    2.6130    1.0260    0.0000 H   0  0  0  0  0  0  0  0  0  0  0  0
    4.8511    1.0260    0.0000 H   0  0  0  0  0  0  0  0  0  0  0  0
    5.1075    1.8151    0.0000 H   0  0  0  0  0  0  0  0  0  0  0  0
    3.2969    3.1306    0.0000 H   0  0  0  0  0  0  0  0  0  0  0  0
    2.6256    2.6429    0.0000 H   0  0  0  0  0  0  0  0  0  0  0  0
    5.2505    2.8770    0.0000 H   0  0  0  0  0  0  0  0  0  0  0  0
    5.3338    3.6697    0.0000 H   0  0  0  0  0  0  0  0  0  0  0  0
    4.2690   -0.3348    0.0000 H   0  0  0  0  0  0  0  0  0  0  0  0
    3.0542    3.8395    0.0000 H   0  0  0  0  0  0  0  0  0  0  0  0
    5.6175    4.9808    0.0000 H   0  0  0  0  0  0  0  0  0  0  0  0
    2.3952    5.3195    0.0000 H   0  0  0  0  0  0  0  0  0  0  0  0
    4.9586    6.4607    0.0000 H   0  0  0  0  0  0  0  0  0  0  0  0
    1.4631   -1.7148    0.0000 H   0  0  0  0  0  0  0  0  0  0  0  0
    4.2690   -1.7148    0.0000 H   0  0  0  0  0  0  0  0  0  0  0  0
    3.3474    6.6301    0.0000 H   0  0  0  0  0  0  0  0  0  0  0  0
    1.4631   -3.3348    0.0000 H   0  0  0  0  0  0  0  0  0  0  0  0
    4.2690   -3.3348    0.0000 H   0  0  0  0  0  0  0  0  0  0  0  0
    1.4674   -4.9210    0.0000 H   0  0  0  0  0  0  0  0  0  0  0  0
    2.0016   -6.5653    0.0000 H   0  0  0  0  0  0  0  0  0  0  0  0
    3.7304   -6.5653    0.0000 H   0  0  0  0  0  0  0  0  0  0  0  0
  1 23  1  0  0  0  0
  1 26  1  0  0  0  0
  2 11  2  0  0  0  0
  3  7  1  0  0  0  0
  3  8  1  0  0  0  0
  3  9  1  0  0  0  0
  4  5  1  0  0  0  0
  4 11  1  0  0  0  0
  4 36  1  0  0  0  0
  5  6  1  0  0  0  0
  5  7  1  0  0  0  0
  5 27  1  0  0  0  0
  6  8  1  0  0  0  0
  6 28  1  0  0  0  0
  6 29  1  0  0  0  0
  7 30  1  0  0  0  0
  7 31  1  0  0  0  0
  8 32  1  0  0  0  0
  8 33  1  0  0  0  0
  9 10  1  0  0  0  0
  9 34  1  0  0  0  0
  9 35  1  0  0  0  0
 10 12  2  0  0  0  0
 10 13  1  0  0  0  0
 11 14  1  0  0  0  0
 12 15  1  0  0  0  0
 12 37  1  0  0  0  0
 13 16  2  0  0  0  0
 13 38  1  0  0  0  0
 14 17  2  0  0  0  0
 14 18  1  0  0  0  0
 15 19  2  0  0  0  0
 15 39  1  0  0  0  0
 16 19  1  0  0  0  0
 16 40  1  0  0  0  0
 17 21  1  0  0  0  0
 17 41  1  0  0  0  0
 18 22  2  0  0  0  0
 18 42  1  0  0  0  0
 19 43  1  0  0  0  0
 20 21  2  0  0  0  0
 20 22  1  0  0  0  0
 20 23  1  0  0  0  0
 21 44  1  0  0  0  0
 22 45  1  0  0  0  0
 23 24  2  0  0  0  0
 24 25  1  0  0  0  0
 24 46  1  0  0  0  0
 25 26  2  0  0  0  0
 25 47  1  0  0  0  0
 26 48  1  0  0  0  0
M  END
> <PUBCHEM_COMPOUND_CID>
44214766

> <PUBCHEM_COMPOUND_CANONICALIZED>
1

> <PUBCHEM_CACTVS_COMPLEXITY>
457

> <PUBCHEM_CACTVS_HBOND_ACCEPTOR>
3

> <PUBCHEM_CACTVS_HBOND_DONOR>
1

> <PUBCHEM_CACTVS_ROTATABLE_BOND>
5

> <PUBCHEM_CACTVS_SUBSKEYS>
AAADceB7IABAAAAAAAAAAAAAAAAAAWJAAAAwYAAAAAAAAAAB0AAAHgQQAAAADCjF2ASwAYPAAAiMAiFSEACDAIAkCBBIiJkIBMgIYDKg1RGUIQhglgCoiYcYiMCOQAAAAAAAAACAAAAAAAAAAAAAAAAAAA==

> <PUBCHEM_IUPAC_OPENEYE_NAME>
N-(1-benzylpyrrolidin-3-yl)-4-(2-thienyl)benzamide

> <PUBCHEM_IUPAC_CAS_NAME>
N-[1-(phenylmethyl)-3-pyrrolidinyl]-4-thiophen-2-ylbenzamide

> <PUBCHEM_IUPAC_NAME_MARKUP>
<I>N</I>-(1-benzylpyrrolidin-3-yl)-4-thiophen-2-ylbenzamide

> <PUBCHEM_IUPAC_NAME>
N-(1-benzylpyrrolidin-3-yl)-4-thiophen-2-ylbenzamide

> <PUBCHEM_IUPAC_SYSTEMATIC_NAME>
N-[1-(phenylmethyl)pyrrolidin-3-yl]-4-thiophen-2-yl-benzamide

> <PUBCHEM_IUPAC_TRADITIONAL_NAME>
N-(1-benzylpyrrolidin-3-yl)-4-(2-thienyl)benzamide

> <PUBCHEM_IUPAC_INCHI>
InChI=1S/C22H22N2OS/c25-22(19-10-8-18(9-11-19)21-7-4-14-26-21)23-20-12-13-24(16-20)15-17-5-2-1-3-6-17/h1-11,14,20H,12-13,15-16H2,(H,23,25)

> <PUBCHEM_IUPAC_INCHIKEY>
JJEJCAOIJWQBMJ-UHFFFAOYSA-N

> <PUBCHEM_XLOGP3_AA>
4.3

> <PUBCHEM_EXACT_MASS>
362.14528450

> <PUBCHEM_MOLECULAR_FORMULA>
C22H22N2OS

> <PUBCHEM_MOLECULAR_WEIGHT>
362.5

> <PUBCHEM_OPENEYE_CAN_SMILES>
C1CN(CC1NC(=O)C2=CC=C(C=C2)C3=CC=CS3)CC4=CC=CC=C4

> <PUBCHEM_OPENEYE_ISO_SMILES>
C1CN(CC1NC(=O)C2=CC=C(C=C2)C3=CC=CS3)CC4=CC=CC=C4

> <PUBCHEM_CACTVS_TPSA>
60.6

> <PUBCHEM_MONOISOTOPIC_WEIGHT>
362.14528450

> <PUBCHEM_TOTAL_CHARGE>
0

> <PUBCHEM_HEAVY_ATOM_COUNT>
26

> <PUBCHEM_ATOM_DEF_STEREO_COUNT>
0

> <PUBCHEM_ATOM_UDEF_STEREO_COUNT>
1

> <PUBCHEM_BOND_DEF_STEREO_COUNT>
0

> <PUBCHEM_BOND_UDEF_STEREO_COUNT>
0

> <PUBCHEM_ISOTOPIC_ATOM_COUNT>
0

> <PUBCHEM_COMPONENT_COUNT>
1

> <PUBCHEM_CACTVS_TAUTO_COUNT>
-1

> <PUBCHEM_COORDINATE_TYPE>
1
5
255

> <PUBCHEM_BONDANNOTATIONS>
1  23  8
1  26  8
10  12  8
10  13  8
12  15  8
13  16  8
14  17  8
14  18  8
15  19  8
16  19  8
17  21  8
18  22  8
20  21  8
20  22  8
23  24  8
24  25  8
25  26  8
5  4  3

$$$$
