10618875
  -OEChem-09292322132D

 50 53  0     0  0  0  0  0  0999 V2000
    7.4492    5.3874    0.0000 Cl  0  0  0  0  0  0  0  0  0  0  0  0
    4.5981   -2.3874    0.0000 N   0  0  0  0  0  0  0  0  0  0  0  0
    3.7891    1.2003    0.0000 N   0  0  0  0  0  0  0  0  0  0  0  0
    4.0981    2.1514    0.0000 N   0  0  0  0  0  0  0  0  0  0  0  0
    4.5981   -0.3875    0.0000 C   0  0  0  0  0  0  0  0  0  0  0  0
    3.7320   -0.8875    0.0000 C   0  0  0  0  0  0  0  0  0  0  0  0
    5.4641   -0.8875    0.0000 C   0  0  0  0  0  0  0  0  0  0  0  0
    3.7320   -1.8874    0.0000 C   0  0  0  0  0  0  0  0  0  0  0  0
    5.4641   -1.8874    0.0000 C   0  0  0  0  0  0  0  0  0  0  0  0
    4.5981    0.6125    0.0000 C   0  0  0  0  0  0  0  0  0  0  0  0
    4.5981   -3.3874    0.0000 C   0  0  0  0  0  0  0  0  0  0  0  0
    5.4071    1.2003    0.0000 C   0  0  0  0  0  0  0  0  0  0  0  0
    5.0981    2.1514    0.0000 C   0  0  0  0  0  0  0  0  0  0  0  0
    3.7320   -3.8874    0.0000 C   0  0  0  0  0  0  0  0  0  0  0  0
    6.3582    0.8913    0.0000 C   0  0  0  0  0  0  0  0  0  0  0  0
    5.6859    2.9604    0.0000 C   0  0  0  0  0  0  0  0  0  0  0  0
    3.7320   -4.8874    0.0000 C   0  0  0  0  0  0  0  0  0  0  0  0
    2.8660   -3.3874    0.0000 C   0  0  0  0  0  0  0  0  0  0  0  0
    5.2791    3.8740    0.0000 C   0  0  0  0  0  0  0  0  0  0  0  0
    6.6804    2.8559    0.0000 C   0  0  0  0  0  0  0  0  0  0  0  0
    2.8660   -5.3874    0.0000 C   0  0  0  0  0  0  0  0  0  0  0  0
    2.0000   -3.8874    0.0000 C   0  0  0  0  0  0  0  0  0  0  0  0
    2.0000   -4.8874    0.0000 C   0  0  0  0  0  0  0  0  0  0  0  0
    5.8669    4.6830    0.0000 C   0  0  0  0  0  0  0  0  0  0  0  0
    7.2682    3.6649    0.0000 C   0  0  0  0  0  0  0  0  0  0  0  0
    6.8614    4.5784    0.0000 C   0  0  0  0  0  0  0  0  0  0  0  0
    5.1350   -0.0775    0.0000 H   0  0  0  0  0  0  0  0  0  0  0  0
    3.5200   -0.3048    0.0000 H   0  0  0  0  0  0  0  0  0  0  0  0
    3.1215   -0.9951    0.0000 H   0  0  0  0  0  0  0  0  0  0  0  0
    6.0747   -0.9951    0.0000 H   0  0  0  0  0  0  0  0  0  0  0  0
    5.6762   -0.3048    0.0000 H   0  0  0  0  0  0  0  0  0  0  0  0
    3.1215   -1.7798    0.0000 H   0  0  0  0  0  0  0  0  0  0  0  0
    3.5200   -2.4701    0.0000 H   0  0  0  0  0  0  0  0  0  0  0  0
    5.6762   -2.4701    0.0000 H   0  0  0  0  0  0  0  0  0  0  0  0
    6.0747   -1.7798    0.0000 H   0  0  0  0  0  0  0  0  0  0  0  0
    4.8101   -3.9701    0.0000 H   0  0  0  0  0  0  0  0  0  0  0  0
    5.2087   -3.2798    0.0000 H   0  0  0  0  0  0  0  0  0  0  0  0
    3.1994    1.0087    0.0000 H   0  0  0  0  0  0  0  0  0  0  0  0
    6.1666    0.3017    0.0000 H   0  0  0  0  0  0  0  0  0  0  0  0
    6.9478    0.6997    0.0000 H   0  0  0  0  0  0  0  0  0  0  0  0
    6.5497    1.4810    0.0000 H   0  0  0  0  0  0  0  0  0  0  0  0
    4.2690   -5.1974    0.0000 H   0  0  0  0  0  0  0  0  0  0  0  0
    2.8660   -2.7675    0.0000 H   0  0  0  0  0  0  0  0  0  0  0  0
    4.6625    3.9388    0.0000 H   0  0  0  0  0  0  0  0  0  0  0  0
    6.9326    2.2895    0.0000 H   0  0  0  0  0  0  0  0  0  0  0  0
    2.8660   -6.0075    0.0000 H   0  0  0  0  0  0  0  0  0  0  0  0
    1.4631   -3.5775    0.0000 H   0  0  0  0  0  0  0  0  0  0  0  0
    1.4631   -5.1974    0.0000 H   0  0  0  0  0  0  0  0  0  0  0  0
    5.6147    5.2494    0.0000 H   0  0  0  0  0  0  0  0  0  0  0  0
    7.8848    3.6001    0.0000 H   0  0  0  0  0  0  0  0  0  0  0  0
  1 26  1  0  0  0  0
  2  8  1  0  0  0  0
  2  9  1  0  0  0  0
  2 11  1  0  0  0  0
  3  4  1  0  0  0  0
  3 10  1  0  0  0  0
  3 38  1  0  0  0  0
  4 13  2  0  0  0  0
  5  6  1  0  0  0  0
  5  7  1  0  0  0  0
  5 10  1  0  0  0  0
  5 27  1  0  0  0  0
  6  8  1  0  0  0  0
  6 28  1  0  0  0  0
  6 29  1  0  0  0  0
  7  9  1  0  0  0  0
  7 30  1  0  0  0  0
  7 31  1  0  0  0  0
  8 32  1  0  0  0  0
  8 33  1  0  0  0  0
  9 34  1  0  0  0  0
  9 35  1  0  0  0  0
 10 12  2  0  0  0  0
 11 14  1  0  0  0  0
 11 36  1  0  0  0  0
 11 37  1  0  0  0  0
 12 13  1  0  0  0  0
 12 15  1  0  0  0  0
 13 16  1  0  0  0  0
 14 17  2  0  0  0  0
 14 18  1  0  0  0  0
 15 39  1  0  0  0  0
 15 40  1  0  0  0  0
 15 41  1  0  0  0  0
 16 19  2  0  0  0  0
 16 20  1  0  0  0  0
 17 21  1  0  0  0  0
 17 42  1  0  0  0  0
 18 22  2  0  0  0  0
 18 43  1  0  0  0  0
 19 24  1  0  0  0  0
 19 44  1  0  0  0  0
 20 25  2  0  0  0  0
 20 45  1  0  0  0  0
 21 23  2  0  0  0  0
 21 46  1  0  0  0  0
 22 23  1  0  0  0  0
 22 47  1  0  0  0  0
 23 48  1  0  0  0  0
 24 26  2  0  0  0  0
 24 49  1  0  0  0  0
 25 26  1  0  0  0  0
 25 50  1  0  0  0  0
M  END
> <PUBCHEM_COMPOUND_CID>
10618875

> <PUBCHEM_COMPOUND_CANONICALIZED>
1

> <PUBCHEM_CACTVS_COMPLEXITY>
423

> <PUBCHEM_CACTVS_HBOND_ACCEPTOR>
2

> <PUBCHEM_CACTVS_HBOND_DONOR>
1

> <PUBCHEM_CACTVS_ROTATABLE_BOND>
4

> <PUBCHEM_CACTVS_SUBSKEYS>
AAADceB7AAAEAAAAAAAAAAAAAAAAAWAAAAA8YIAAAAAAAAAB0AAAHAIYAAAADQrBHiQygJNjAACiAyRiQACSBAAgBQAYuSA4RpgIIKKB09GEpAhgmACIyAcQgMAOBAAAAAAAAAAIAAAAAAAAAAAAAAAAAA==

> <PUBCHEM_IUPAC_OPENEYE_NAME>
1-benzyl-4-[3-(4-chlorophenyl)-4-methyl-1H-pyrazol-5-yl]piperidine

> <PUBCHEM_IUPAC_CAS_NAME>
4-[3-(4-chlorophenyl)-4-methyl-1H-pyrazol-5-yl]-1-(phenylmethyl)piperidine

> <PUBCHEM_IUPAC_NAME_MARKUP>
1-benzyl-4-[3-(4-chlorophenyl)-4-methyl-1<I>H</I>-pyrazol-5-yl]piperidine

> <PUBCHEM_IUPAC_NAME>
1-benzyl-4-[3-(4-chlorophenyl)-4-methyl-1H-pyrazol-5-yl]piperidine

> <PUBCHEM_IUPAC_SYSTEMATIC_NAME>
4-[3-(4-chlorophenyl)-4-methyl-1H-pyrazol-5-yl]-1-(phenylmethyl)piperidine

> <PUBCHEM_IUPAC_TRADITIONAL_NAME>
1-benzyl-4-[3-(4-chlorophenyl)-4-methyl-1H-pyrazol-5-yl]piperidine

> <PUBCHEM_IUPAC_INCHI>
InChI=1S/C22H24ClN3/c1-16-21(18-7-9-20(23)10-8-18)24-25-22(16)19-11-13-26(14-12-19)15-17-5-3-2-4-6-17/h2-10,19H,11-15H2,1H3,(H,24,25)

> <PUBCHEM_IUPAC_INCHIKEY>
GWSJSKIZAIMZOZ-UHFFFAOYSA-N

> <PUBCHEM_XLOGP3_AA>
5

> <PUBCHEM_EXACT_MASS>
365.1658755

> <PUBCHEM_MOLECULAR_FORMULA>
C22H24ClN3

> <PUBCHEM_MOLECULAR_WEIGHT>
365.9

> <PUBCHEM_OPENEYE_CAN_SMILES>
CC1=C(NN=C1C2=CC=C(C=C2)Cl)C3CCN(CC3)CC4=CC=CC=C4

> <PUBCHEM_OPENEYE_ISO_SMILES>
CC1=C(NN=C1C2=CC=C(C=C2)Cl)C3CCN(CC3)CC4=CC=CC=C4

> <PUBCHEM_CACTVS_TPSA>
31.9

> <PUBCHEM_MONOISOTOPIC_WEIGHT>
365.1658755

> <PUBCHEM_TOTAL_CHARGE>
0

> <PUBCHEM_HEAVY_ATOM_COUNT>
26

> <PUBCHEM_ATOM_DEF_STEREO_COUNT>
0

> <PUBCHEM_ATOM_UDEF_STEREO_COUNT>
0

> <PUBCHEM_BOND_DEF_STEREO_COUNT>
0

> <PUBCHEM_BOND_UDEF_STEREO_COUNT>
0

> <PUBCHEM_ISOTOPIC_ATOM_COUNT>
0

> <PUBCHEM_COMPONENT_COUNT>
1

> <PUBCHEM_CACTVS_TAUTO_COUNT>
-1

> <PUBCHEM_COORDINATE_TYPE>
1
5
255

> <PUBCHEM_BONDANNOTATIONS>
10  12  8
12  13  8
14  17  8
14  18  8
16  19  8
16  20  8
17  21  8
18  22  8
19  24  8
20  25  8
21  23  8
22  23  8
24  26  8
25  26  8
3  10  8
3  4  8
4  13  8

$$$$
