127026133
  -OEChem-09292322362D

 63 67  0     1  0  0  0  0  0999 V2000
    2.0000   -6.8645    0.0000 Cl  0  0  0  0  0  0  0  0  0  0  0  0
    4.2267   -4.2108    0.0000 S   0  0  0  0  0  0  0  0  0  0  0  0
    6.4123    1.9691    0.0000 O   0  0  0  0  0  0  0  0  0  0  0  0
    3.2419   -4.0372    0.0000 O   0  0  0  0  0  0  0  0  0  0  0  0
    5.2115   -4.3845    0.0000 O   0  0  0  0  0  0  0  0  0  0  0  0
    6.9123   -0.6290    0.0000 N   0  0  0  0  0  0  0  0  0  0  0  0
    4.4003   -3.2260    0.0000 N   0  0  0  0  0  0  0  0  0  0  0  0
    7.3901   -2.5775    0.0000 C   0  0  3  0  0  0  0  0  0  0  0  0
    7.6489   -1.6116    0.0000 C   0  0  3  0  0  0  0  0  0  0  0  0
    8.7890   -3.0863    0.0000 C   0  0  0  0  0  0  0  0  0  0  0  0
    9.0478   -2.1204    0.0000 C   0  0  0  0  0  0  0  0  0  0  0  0
    6.1691   -3.4432    0.0000 C   0  0  0  0  0  0  0  0  0  0  0  0
    5.6157   -1.9227    0.0000 C   0  0  0  0  0  0  0  0  0  0  0  0
    5.3400   -2.8840    0.0000 C   0  0  0  0  0  0  0  0  0  0  0  0
    6.4123    0.2370    0.0000 C   0  0  0  0  0  0  0  0  0  0  0  0
    6.9123    1.1031    0.0000 C   0  0  0  0  0  0  0  0  0  0  0  0
    4.0530   -5.1956    0.0000 C   0  0  0  0  0  0  0  0  0  0  0  0
    6.9123    2.8351    0.0000 C   0  0  0  0  0  0  0  0  0  0  0  0
    3.1133   -5.5376    0.0000 C   0  0  0  0  0  0  0  0  0  0  0  0
    4.8191   -5.8384    0.0000 C   0  0  0  0  0  0  0  0  0  0  0  0
    2.9397   -6.5225    0.0000 C   0  0  0  0  0  0  0  0  0  0  0  0
    4.6454   -6.8232    0.0000 C   0  0  0  0  0  0  0  0  0  0  0  0
    6.4123    3.7011    0.0000 C   0  0  0  0  0  0  0  0  0  0  0  0
    7.9123    2.8351    0.0000 C   0  0  0  0  0  0  0  0  0  0  0  0
    3.7057   -7.1652    0.0000 C   0  0  0  0  0  0  0  0  0  0  0  0
    6.9123    4.5672    0.0000 C   0  0  0  0  0  0  0  0  0  0  0  0
    8.4123    3.7011    0.0000 C   0  0  0  0  0  0  0  0  0  0  0  0
    7.9123    4.5672    0.0000 C   0  0  0  0  0  0  0  0  0  0  0  0
    6.4123    5.4332    0.0000 C   0  0  0  0  0  0  0  0  0  0  0  0
    5.4123    5.4332    0.0000 C   0  0  0  0  0  0  0  0  0  0  0  0
    6.9123    6.2992    0.0000 C   0  0  0  0  0  0  0  0  0  0  0  0
    4.9123    6.2992    0.0000 C   0  0  0  0  0  0  0  0  0  0  0  0
    6.4123    7.1652    0.0000 C   0  0  0  0  0  0  0  0  0  0  0  0
    5.4123    7.1652    0.0000 C   0  0  0  0  0  0  0  0  0  0  0  0
    7.4729   -3.1920    0.0000 H   0  0  0  0  0  0  0  0  0  0  0  0
    8.0183   -1.1136    0.0000 H   0  0  0  0  0  0  0  0  0  0  0  0
    8.5941   -3.6749    0.0000 H   0  0  0  0  0  0  0  0  0  0  0  0
    9.3830   -3.2641    0.0000 H   0  0  0  0  0  0  0  0  0  0  0  0
    9.6418   -2.2982    0.0000 H   0  0  0  0  0  0  0  0  0  0  0  0
    9.2428   -1.5319    0.0000 H   0  0  0  0  0  0  0  0  0  0  0  0
    5.7632   -3.9119    0.0000 H   0  0  0  0  0  0  0  0  0  0  0  0
    6.5857   -3.9023    0.0000 H   0  0  0  0  0  0  0  0  0  0  0  0
    5.6106   -1.3028    0.0000 H   0  0  0  0  0  0  0  0  0  0  0  0
    5.0014   -1.8390    0.0000 H   0  0  0  0  0  0  0  0  0  0  0  0
    4.8866   -2.4612    0.0000 H   0  0  0  0  0  0  0  0  0  0  0  0
    5.9373    0.6356    0.0000 H   0  0  0  0  0  0  0  0  0  0  0  0
    5.9373   -0.1615    0.0000 H   0  0  0  0  0  0  0  0  0  0  0  0
    3.9254   -2.8275    0.0000 H   0  0  0  0  0  0  0  0  0  0  0  0
    7.3872    0.7045    0.0000 H   0  0  0  0  0  0  0  0  0  0  0  0
    7.3872    1.5016    0.0000 H   0  0  0  0  0  0  0  0  0  0  0  0
    2.6384   -5.1391    0.0000 H   0  0  0  0  0  0  0  0  0  0  0  0
    5.4017   -5.6264    0.0000 H   0  0  0  0  0  0  0  0  0  0  0  0
    5.1204   -7.2218    0.0000 H   0  0  0  0  0  0  0  0  0  0  0  0
    5.7923    3.7011    0.0000 H   0  0  0  0  0  0  0  0  0  0  0  0
    8.2223    2.2982    0.0000 H   0  0  0  0  0  0  0  0  0  0  0  0
    3.5981   -7.7758    0.0000 H   0  0  0  0  0  0  0  0  0  0  0  0
    9.0323    3.7011    0.0000 H   0  0  0  0  0  0  0  0  0  0  0  0
    8.2223    5.1041    0.0000 H   0  0  0  0  0  0  0  0  0  0  0  0
    5.1023    4.8963    0.0000 H   0  0  0  0  0  0  0  0  0  0  0  0
    7.5323    6.2992    0.0000 H   0  0  0  0  0  0  0  0  0  0  0  0
    4.2923    6.2992    0.0000 H   0  0  0  0  0  0  0  0  0  0  0  0
    6.7223    7.7022    0.0000 H   0  0  0  0  0  0  0  0  0  0  0  0
    5.1023    7.7022    0.0000 H   0  0  0  0  0  0  0  0  0  0  0  0
  1 21  1  0  0  0  0
  2  4  2  0  0  0  0
  2  5  2  0  0  0  0
  2  7  1  0  0  0  0
  2 17  1  0  0  0  0
  3 16  1  0  0  0  0
  3 18  1  0  0  0  0
  6  8  1  0  0  0  0
  6  9  1  0  0  0  0
  6 15  1  0  0  0  0
  7 14  1  0  0  0  0
  7 48  1  0  0  0  0
  8 10  1  0  0  0  0
  8 12  1  0  0  0  0
  8 35  1  0  0  0  0
  9 11  1  0  0  0  0
  9 13  1  0  0  0  0
  9 36  1  0  0  0  0
 10 11  1  0  0  0  0
 10 37  1  0  0  0  0
 10 38  1  0  0  0  0
 11 39  1  0  0  0  0
 11 40  1  0  0  0  0
 12 14  1  0  0  0  0
 12 41  1  0  0  0  0
 12 42  1  0  0  0  0
 13 14  1  0  0  0  0
 13 43  1  0  0  0  0
 13 44  1  0  0  0  0
 14 45  1  0  0  0  0
 15 16  1  0  0  0  0
 15 46  1  0  0  0  0
 15 47  1  0  0  0  0
 16 49  1  0  0  0  0
 16 50  1  0  0  0  0
 17 19  2  0  0  0  0
 17 20  1  0  0  0  0
 18 23  1  0  0  0  0
 18 24  2  0  0  0  0
 19 21  1  0  0  0  0
 19 51  1  0  0  0  0
 20 22  2  0  0  0  0
 20 52  1  0  0  0  0
 21 25  2  0  0  0  0
 22 25  1  0  0  0  0
 22 53  1  0  0  0  0
 23 26  2  0  0  0  0
 23 54  1  0  0  0  0
 24 27  1  0  0  0  0
 24 55  1  0  0  0  0
 25 56  1  0  0  0  0
 26 28  1  0  0  0  0
 26 29  1  0  0  0  0
 27 28  2  0  0  0  0
 27 57  1  0  0  0  0
 28 58  1  0  0  0  0
 29 30  2  0  0  0  0
 29 31  1  0  0  0  0
 30 32  1  0  0  0  0
 30 59  1  0  0  0  0
 31 33  2  0  0  0  0
 31 60  1  0  0  0  0
 32 34  2  0  0  0  0
 32 61  1  0  0  0  0
 33 34  1  0  0  0  0
 33 62  1  0  0  0  0
 34 63  1  0  0  0  0
M  END
> <PUBCHEM_COMPOUND_CID>
127026133

> <PUBCHEM_COMPOUND_CANONICALIZED>
1

> <PUBCHEM_CACTVS_COMPLEXITY>
740

> <PUBCHEM_CACTVS_HBOND_ACCEPTOR>
5

> <PUBCHEM_CACTVS_HBOND_DONOR>
1

> <PUBCHEM_CACTVS_ROTATABLE_BOND>
8

> <PUBCHEM_CACTVS_SUBSKEYS>
AAADceB7MABEAAAAAAAAAAAAAAAAAWAAAAA8YMEABgAAAAABUAAAHgYQQAAADC7h2CYwB4NABAKAAiBCAHBCCBAgJQAIiJgOCogOJiKF8xqHOCCk0BGYqAeQwPAOgAABABAAAAAAAAIAIAAAAAAAAAAAAA==

> <PUBCHEM_IUPAC_OPENEYE_NAME>
3-chloro-N-[8-[2-(3-phenylphenoxy)ethyl]-8-azabicyclo[3.2.1]octan-3-yl]benzenesulfonamide

> <PUBCHEM_IUPAC_CAS_NAME>
3-chloro-N-[8-[2-(3-phenylphenoxy)ethyl]-8-azabicyclo[3.2.1]octan-3-yl]benzenesulfonamide

> <PUBCHEM_IUPAC_NAME_MARKUP>
3-chloro-<I>N</I>-[8-[2-(3-phenylphenoxy)ethyl]-8-azabicyclo[3.2.1]octan-3-yl]benzenesulfonamide

> <PUBCHEM_IUPAC_NAME>
3-chloro-N-[8-[2-(3-phenylphenoxy)ethyl]-8-azabicyclo[3.2.1]octan-3-yl]benzenesulfonamide

> <PUBCHEM_IUPAC_SYSTEMATIC_NAME>
3-chloranyl-N-[8-[2-(3-phenylphenoxy)ethyl]-8-azabicyclo[3.2.1]octan-3-yl]benzenesulfonamide

> <PUBCHEM_IUPAC_TRADITIONAL_NAME>
3-chloro-N-[8-[2-(3-phenylphenoxy)ethyl]-8-azabicyclo[3.2.1]octan-3-yl]benzenesulfonamide

> <PUBCHEM_IUPAC_INCHI>
InChI=1S/C27H29ClN2O3S/c28-22-9-5-11-27(17-22)34(31,32)29-23-18-24-12-13-25(19-23)30(24)14-15-33-26-10-4-8-21(16-26)20-6-2-1-3-7-20/h1-11,16-17,23-25,29H,12-15,18-19H2

> <PUBCHEM_IUPAC_INCHIKEY>
FARUXTURXOFRQS-UHFFFAOYSA-N

> <PUBCHEM_XLOGP3_AA>
6

> <PUBCHEM_EXACT_MASS>
496.1587417

> <PUBCHEM_MOLECULAR_FORMULA>
C27H29ClN2O3S

> <PUBCHEM_MOLECULAR_WEIGHT>
497.0

> <PUBCHEM_OPENEYE_CAN_SMILES>
C1CC2CC(CC1N2CCOC3=CC=CC(=C3)C4=CC=CC=C4)NS(=O)(=O)C5=CC(=CC=C5)Cl

> <PUBCHEM_OPENEYE_ISO_SMILES>
C1CC2CC(CC1N2CCOC3=CC=CC(=C3)C4=CC=CC=C4)NS(=O)(=O)C5=CC(=CC=C5)Cl

> <PUBCHEM_CACTVS_TPSA>
67

> <PUBCHEM_MONOISOTOPIC_WEIGHT>
496.1587417

> <PUBCHEM_TOTAL_CHARGE>
0

> <PUBCHEM_HEAVY_ATOM_COUNT>
34

> <PUBCHEM_ATOM_DEF_STEREO_COUNT>
0

> <PUBCHEM_ATOM_UDEF_STEREO_COUNT>
2

> <PUBCHEM_BOND_DEF_STEREO_COUNT>
0

> <PUBCHEM_BOND_UDEF_STEREO_COUNT>
0

> <PUBCHEM_ISOTOPIC_ATOM_COUNT>
0

> <PUBCHEM_COMPONENT_COUNT>
1

> <PUBCHEM_CACTVS_TAUTO_COUNT>
-1

> <PUBCHEM_COORDINATE_TYPE>
1
5
255

> <PUBCHEM_BONDANNOTATIONS>
17  19  8
17  20  8
18  23  8
18  24  8
19  21  8
20  22  8
21  25  8
22  25  8
23  26  8
24  27  8
26  28  8
27  28  8
29  30  8
29  31  8
30  32  8
31  33  8
32  34  8
33  34  8
8  10  3
9  11  3

$$$$
