122183776
  -OEChem-09292322362D

 61 64  0     0  0  0  0  0  0999 V2000
    2.0000    3.0068    0.0000 F   0  0  0  0  0  0  0  0  0  0  0  0
   14.1904   -2.0173    0.0000 O   0  0  0  0  0  0  0  0  0  0  0  0
    7.2622   -0.0173    0.0000 O   0  0  0  0  0  0  0  0  0  0  0  0
   12.4583    0.9827    0.0000 N   0  0  0  0  0  0  0  0  0  0  0  0
   14.1904   -0.0173    0.0000 N   0  0  0  0  0  0  0  0  0  0  0  0
    8.1282    1.4827    0.0000 N   0  0  0  0  0  0  0  0  0  0  0  0
    5.5301    0.9827    0.0000 N   0  0  0  0  0  0  0  0  0  0  0  0
   12.4583   -0.0173    0.0000 C   0  0  0  0  0  0  0  0  0  0  0  0
   13.3244    1.4827    0.0000 C   0  0  0  0  0  0  0  0  0  0  0  0
   13.3244   -0.5173    0.0000 C   0  0  0  0  0  0  0  0  0  0  0  0
   14.1904    0.9827    0.0000 C   0  0  0  0  0  0  0  0  0  0  0  0
   11.5923    1.4827    0.0000 C   0  0  0  0  0  0  0  0  0  0  0  0
   10.7263    0.9827    0.0000 C   0  0  0  0  0  0  0  0  0  0  0  0
   15.0564   -0.5173    0.0000 C   0  0  0  0  0  0  0  0  0  0  0  0
    9.8602    1.4827    0.0000 C   0  0  0  0  0  0  0  0  0  0  0  0
    8.9942    0.9827    0.0000 C   0  0  0  0  0  0  0  0  0  0  0  0
   15.0564   -1.5173    0.0000 C   0  0  0  0  0  0  0  0  0  0  0  0
   15.9224   -0.0173    0.0000 C   0  0  0  0  0  0  0  0  0  0  0  0
   15.9224   -2.0173    0.0000 C   0  0  0  0  0  0  0  0  0  0  0  0
   16.7885   -0.5173    0.0000 C   0  0  0  0  0  0  0  0  0  0  0  0
   16.7885   -1.5173    0.0000 C   0  0  0  0  0  0  0  0  0  0  0  0
    7.2622    0.9827    0.0000 C   0  0  0  0  0  0  0  0  0  0  0  0
   14.1904   -3.0173    0.0000 C   0  0  0  0  0  0  0  0  0  0  0  0
    6.3961    1.4827    0.0000 C   0  0  0  0  0  0  0  0  0  0  0  0
    6.3961    2.4827    0.0000 C   0  0  0  0  0  0  0  0  0  0  0  0
    4.6641    1.4827    0.0000 C   0  0  0  0  0  0  0  0  0  0  0  0
    4.6641    2.4827    0.0000 C   0  0  0  0  0  0  0  0  0  0  0  0
    5.5301    2.9827    0.0000 C   0  0  0  0  0  0  0  0  0  0  0  0
    3.7702    0.9480    0.0000 C   0  0  0  0  0  0  0  0  0  0  0  0
    3.7702    3.0173    0.0000 C   0  0  0  0  0  0  0  0  0  0  0  0
    2.8641    1.4619    0.0000 C   0  0  0  0  0  0  0  0  0  0  0  0
    2.8641    2.5035    0.0000 C   0  0  0  0  0  0  0  0  0  0  0  0
   11.8477    0.0903    0.0000 H   0  0  0  0  0  0  0  0  0  0  0  0
   12.2463   -0.5999    0.0000 H   0  0  0  0  0  0  0  0  0  0  0  0
   13.7229    1.9576    0.0000 H   0  0  0  0  0  0  0  0  0  0  0  0
   12.9258    1.9576    0.0000 H   0  0  0  0  0  0  0  0  0  0  0  0
   12.9258   -0.9923    0.0000 H   0  0  0  0  0  0  0  0  0  0  0  0
   13.7229   -0.9923    0.0000 H   0  0  0  0  0  0  0  0  0  0  0  0
   14.8010    0.8750    0.0000 H   0  0  0  0  0  0  0  0  0  0  0  0
   14.4024    1.5653    0.0000 H   0  0  0  0  0  0  0  0  0  0  0  0
   11.9908    1.9576    0.0000 H   0  0  0  0  0  0  0  0  0  0  0  0
   11.1938    1.9576    0.0000 H   0  0  0  0  0  0  0  0  0  0  0  0
   10.3278    0.5077    0.0000 H   0  0  0  0  0  0  0  0  0  0  0  0
   11.1248    0.5077    0.0000 H   0  0  0  0  0  0  0  0  0  0  0  0
   10.2588    1.9576    0.0000 H   0  0  0  0  0  0  0  0  0  0  0  0
    9.4617    1.9576    0.0000 H   0  0  0  0  0  0  0  0  0  0  0  0
    8.5957    0.5077    0.0000 H   0  0  0  0  0  0  0  0  0  0  0  0
    9.3928    0.5077    0.0000 H   0  0  0  0  0  0  0  0  0  0  0  0
   15.9224    0.6027    0.0000 H   0  0  0  0  0  0  0  0  0  0  0  0
   15.9224   -2.6373    0.0000 H   0  0  0  0  0  0  0  0  0  0  0  0
   17.3254   -0.2073    0.0000 H   0  0  0  0  0  0  0  0  0  0  0  0
    8.1282    2.1027    0.0000 H   0  0  0  0  0  0  0  0  0  0  0  0
   17.3254   -1.8273    0.0000 H   0  0  0  0  0  0  0  0  0  0  0  0
   13.5704   -3.0173    0.0000 H   0  0  0  0  0  0  0  0  0  0  0  0
   14.1904   -3.6373    0.0000 H   0  0  0  0  0  0  0  0  0  0  0  0
   14.8104   -3.0173    0.0000 H   0  0  0  0  0  0  0  0  0  0  0  0
    6.9331    2.7927    0.0000 H   0  0  0  0  0  0  0  0  0  0  0  0
    5.5301    3.6027    0.0000 H   0  0  0  0  0  0  0  0  0  0  0  0
    3.7773    0.3280    0.0000 H   0  0  0  0  0  0  0  0  0  0  0  0
    3.7773    3.6373    0.0000 H   0  0  0  0  0  0  0  0  0  0  0  0
    2.3284    1.1498    0.0000 H   0  0  0  0  0  0  0  0  0  0  0  0
  1 32  1  0  0  0  0
  2 17  1  0  0  0  0
  2 23  1  0  0  0  0
  3 22  2  0  0  0  0
  4  8  1  0  0  0  0
  4  9  1  0  0  0  0
  4 12  1  0  0  0  0
  5 10  1  0  0  0  0
  5 11  1  0  0  0  0
  5 14  1  0  0  0  0
  6 16  1  0  0  0  0
  6 22  1  0  0  0  0
  6 52  1  0  0  0  0
  7 24  2  0  0  0  0
  7 26  1  0  0  0  0
  8 10  1  0  0  0  0
  8 33  1  0  0  0  0
  8 34  1  0  0  0  0
  9 11  1  0  0  0  0
  9 35  1  0  0  0  0
  9 36  1  0  0  0  0
 10 37  1  0  0  0  0
 10 38  1  0  0  0  0
 11 39  1  0  0  0  0
 11 40  1  0  0  0  0
 12 13  1  0  0  0  0
 12 41  1  0  0  0  0
 12 42  1  0  0  0  0
 13 15  1  0  0  0  0
 13 43  1  0  0  0  0
 13 44  1  0  0  0  0
 14 17  1  0  0  0  0
 14 18  2  0  0  0  0
 15 16  1  0  0  0  0
 15 45  1  0  0  0  0
 15 46  1  0  0  0  0
 16 47  1  0  0  0  0
 16 48  1  0  0  0  0
 17 19  2  0  0  0  0
 18 20  1  0  0  0  0
 18 49  1  0  0  0  0
 19 21  1  0  0  0  0
 19 50  1  0  0  0  0
 20 21  2  0  0  0  0
 20 51  1  0  0  0  0
 21 53  1  0  0  0  0
 22 24  1  0  0  0  0
 23 54  1  0  0  0  0
 23 55  1  0  0  0  0
 23 56  1  0  0  0  0
 24 25  1  0  0  0  0
 25 28  2  0  0  0  0
 25 57  1  0  0  0  0
 26 27  2  0  0  0  0
 26 29  1  0  0  0  0
 27 28  1  0  0  0  0
 27 30  1  0  0  0  0
 28 58  1  0  0  0  0
 29 31  2  0  0  0  0
 29 59  1  0  0  0  0
 30 32  2  0  0  0  0
 30 60  1  0  0  0  0
 31 32  1  0  0  0  0
 31 61  1  0  0  0  0
M  END
> <PUBCHEM_COMPOUND_CID>
122183776

> <PUBCHEM_COMPOUND_CANONICALIZED>
1

> <PUBCHEM_CACTVS_COMPLEXITY>
586

> <PUBCHEM_CACTVS_HBOND_ACCEPTOR>
6

> <PUBCHEM_CACTVS_HBOND_DONOR>
1

> <PUBCHEM_CACTVS_ROTATABLE_BOND>
8

> <PUBCHEM_CACTVS_SUBSKEYS>
AAADceB7sQAAAAAAAAAAAAAAAAAAAAAAAAA8eIEAAAAAAACx9AAAHwAQAAAADAzBng4yxvPIFACoAyVyVACCiCAnIiAImKG/bNgOZvLEtbuVMShk1hHY6YeYyICOAAAAAAACEAAAAAAAAAQgAAAAAAAAAA==

> <PUBCHEM_IUPAC_OPENEYE_NAME>
6-fluoro-N-[4-[4-(2-methoxyphenyl)piperazin-1-yl]butyl]quinoline-2-carboxamide

> <PUBCHEM_IUPAC_CAS_NAME>
6-fluoro-N-[4-[4-(2-methoxyphenyl)-1-piperazinyl]butyl]-2-quinolinecarboxamide

> <PUBCHEM_IUPAC_NAME_MARKUP>
6-fluoro-<I>N</I>-[4-[4-(2-methoxyphenyl)piperazin-1-yl]butyl]quinoline-2-carboxamide

> <PUBCHEM_IUPAC_NAME>
6-fluoro-N-[4-[4-(2-methoxyphenyl)piperazin-1-yl]butyl]quinoline-2-carboxamide

> <PUBCHEM_IUPAC_SYSTEMATIC_NAME>
6-fluoranyl-N-[4-[4-(2-methoxyphenyl)piperazin-1-yl]butyl]quinoline-2-carboxamide

> <PUBCHEM_IUPAC_TRADITIONAL_NAME>
6-fluoro-N-[4-[4-(2-methoxyphenyl)piperazino]butyl]quinaldamide

> <PUBCHEM_IUPAC_INCHI>
InChI=1S/C25H29FN4O2/c1-32-24-7-3-2-6-23(24)30-16-14-29(15-17-30)13-5-4-12-27-25(31)22-10-8-19-18-20(26)9-11-21(19)28-22/h2-3,6-11,18H,4-5,12-17H2,1H3,(H,27,31)

> <PUBCHEM_IUPAC_INCHIKEY>
BVXTUFOXINIFQV-UHFFFAOYSA-N

> <PUBCHEM_XLOGP3_AA>
4.2

> <PUBCHEM_EXACT_MASS>
436.22745434

> <PUBCHEM_MOLECULAR_FORMULA>
C25H29FN4O2

> <PUBCHEM_MOLECULAR_WEIGHT>
436.5

> <PUBCHEM_OPENEYE_CAN_SMILES>
COC1=CC=CC=C1N2CCN(CC2)CCCCNC(=O)C3=NC4=C(C=C3)C=C(C=C4)F

> <PUBCHEM_OPENEYE_ISO_SMILES>
COC1=CC=CC=C1N2CCN(CC2)CCCCNC(=O)C3=NC4=C(C=C3)C=C(C=C4)F

> <PUBCHEM_CACTVS_TPSA>
57.7

> <PUBCHEM_MONOISOTOPIC_WEIGHT>
436.22745434

> <PUBCHEM_TOTAL_CHARGE>
0

> <PUBCHEM_HEAVY_ATOM_COUNT>
32

> <PUBCHEM_ATOM_DEF_STEREO_COUNT>
0

> <PUBCHEM_ATOM_UDEF_STEREO_COUNT>
0

> <PUBCHEM_BOND_DEF_STEREO_COUNT>
0

> <PUBCHEM_BOND_UDEF_STEREO_COUNT>
0

> <PUBCHEM_ISOTOPIC_ATOM_COUNT>
0

> <PUBCHEM_COMPONENT_COUNT>
1

> <PUBCHEM_CACTVS_TAUTO_COUNT>
-1

> <PUBCHEM_COORDINATE_TYPE>
1
5
255

> <PUBCHEM_BONDANNOTATIONS>
14  17  8
14  18  8
17  19  8
18  20  8
19  21  8
20  21  8
24  25  8
25  28  8
26  27  8
26  29  8
27  28  8
27  30  8
29  31  8
30  32  8
31  32  8
7  24  8
7  26  8

$$$$
