44329130
  -OEChem-09292322212D

 65 69  0     1  0  0  0  0  0999 V2000
   12.8636    5.9516    0.0000 O   0  0  0  0  0  0  0  0  0  0  0  0
    3.8640   -0.1242    0.0000 O   0  0  0  0  0  0  0  0  0  0  0  0
    8.3993    2.6018    0.0000 N   0  0  3  0  0  0  0  0  0  0  0  0
    5.5103   -0.6622    0.0000 N   0  0  0  0  0  0  0  0  0  0  0  0
    9.3455    2.9065    0.0000 C   0  0  2  0  0  0  0  0  0  0  0  0
    9.3455    3.9065    0.0000 C   0  0  1  0  0  0  0  0  0  0  0  0
    8.3993    4.2112    0.0000 C   0  0  0  0  0  0  0  0  0  0  0  0
   10.2116    2.4065    0.0000 C   0  0  0  0  0  0  0  0  0  0  0  0
    7.8157    3.4065    0.0000 C   0  0  0  0  0  0  0  0  0  0  0  0
   10.2116    4.4065    0.0000 C   0  0  0  0  0  0  0  0  0  0  0  0
   11.0776    2.9065    0.0000 C   0  0  0  0  0  0  0  0  0  0  0  0
   11.0776    3.9065    0.0000 C   0  0  0  0  0  0  0  0  0  0  0  0
    8.0887    1.6512    0.0000 C   0  0  0  0  0  0  0  0  0  0  0  0
    7.1102    1.4450    0.0000 C   0  0  0  0  0  0  0  0  0  0  0  0
   10.1955    5.4480    0.0000 C   0  0  0  0  0  0  0  0  0  0  0  0
   11.9876    4.4133    0.0000 C   0  0  0  0  0  0  0  0  0  0  0  0
    6.7995    0.4945    0.0000 C   0  0  0  0  0  0  0  0  0  0  0  0
   11.0935    5.9758    0.0000 C   0  0  0  0  0  0  0  0  0  0  0  0
   11.9956    5.4549    0.0000 C   0  0  0  0  0  0  0  0  0  0  0  0
    5.8210    0.2883    0.0000 C   0  0  0  0  0  0  0  0  0  0  0  0
    4.5318   -0.8685    0.0000 C   0  0  0  0  0  0  0  0  0  0  0  0
    4.2212   -1.8190    0.0000 C   0  0  0  0  0  0  0  0  0  0  0  0
    3.2426   -2.0252    0.0000 C   0  0  0  0  0  0  0  0  0  0  0  0
    4.8890   -2.5633    0.0000 C   0  0  0  0  0  0  0  0  0  0  0  0
    2.9320   -2.9757    0.0000 C   0  0  0  0  0  0  0  0  0  0  0  0
    4.5783   -3.5138    0.0000 C   0  0  0  0  0  0  0  0  0  0  0  0
    3.5998   -3.7200    0.0000 C   0  0  0  0  0  0  0  0  0  0  0  0
    3.2892   -4.6705    0.0000 C   0  0  0  0  0  0  0  0  0  0  0  0
    2.3107   -4.8768    0.0000 C   0  0  0  0  0  0  0  0  0  0  0  0
    3.9570   -5.4149    0.0000 C   0  0  0  0  0  0  0  0  0  0  0  0
    2.0000   -5.8273    0.0000 C   0  0  0  0  0  0  0  0  0  0  0  0
    3.6464   -6.3654    0.0000 C   0  0  0  0  0  0  0  0  0  0  0  0
    2.6678   -6.5716    0.0000 C   0  0  0  0  0  0  0  0  0  0  0  0
    9.2556    2.0613    0.0000 H   0  0  0  0  0  0  0  0  0  0  0  0
    9.2556    4.7517    0.0000 H   0  0  0  0  0  0  0  0  0  0  0  0
    8.6504    4.7781    0.0000 H   0  0  0  0  0  0  0  0  0  0  0  0
    7.8619    4.5204    0.0000 H   0  0  0  0  0  0  0  0  0  0  0  0
    9.8130    1.9315    0.0000 H   0  0  0  0  0  0  0  0  0  0  0  0
   10.6101    1.9315    0.0000 H   0  0  0  0  0  0  0  0  0  0  0  0
    7.3548    3.8212    0.0000 H   0  0  0  0  0  0  0  0  0  0  0  0
    7.3548    2.9918    0.0000 H   0  0  0  0  0  0  0  0  0  0  0  0
   11.2896    2.3239    0.0000 H   0  0  0  0  0  0  0  0  0  0  0  0
   11.6882    3.0142    0.0000 H   0  0  0  0  0  0  0  0  0  0  0  0
    8.1092    1.0316    0.0000 H   0  0  0  0  0  0  0  0  0  0  0  0
    8.7025    1.5639    0.0000 H   0  0  0  0  0  0  0  0  0  0  0  0
    7.0896    2.0647    0.0000 H   0  0  0  0  0  0  0  0  0  0  0  0
    6.4963    1.5324    0.0000 H   0  0  0  0  0  0  0  0  0  0  0  0
    9.6550    5.7518    0.0000 H   0  0  0  0  0  0  0  0  0  0  0  0
   12.5209    4.0971    0.0000 H   0  0  0  0  0  0  0  0  0  0  0  0
    6.8201   -0.1252    0.0000 H   0  0  0  0  0  0  0  0  0  0  0  0
    7.4133    0.4071    0.0000 H   0  0  0  0  0  0  0  0  0  0  0  0
   11.0912    6.5957    0.0000 H   0  0  0  0  0  0  0  0  0  0  0  0
    5.8004    0.9079    0.0000 H   0  0  0  0  0  0  0  0  0  0  0  0
    5.2072    0.3756    0.0000 H   0  0  0  0  0  0  0  0  0  0  0  0
   12.8660    6.5716    0.0000 H   0  0  0  0  0  0  0  0  0  0  0  0
    5.9244   -1.1237    0.0000 H   0  0  0  0  0  0  0  0  0  0  0  0
    2.8286   -1.5637    0.0000 H   0  0  0  0  0  0  0  0  0  0  0  0
    5.4957   -2.4354    0.0000 H   0  0  0  0  0  0  0  0  0  0  0  0
    2.3253   -3.1036    0.0000 H   0  0  0  0  0  0  0  0  0  0  0  0
    4.9924   -3.9753    0.0000 H   0  0  0  0  0  0  0  0  0  0  0  0
    1.8966   -4.4153    0.0000 H   0  0  0  0  0  0  0  0  0  0  0  0
    4.5637   -5.2870    0.0000 H   0  0  0  0  0  0  0  0  0  0  0  0
    1.3933   -5.9551    0.0000 H   0  0  0  0  0  0  0  0  0  0  0  0
    4.0604   -6.8268    0.0000 H   0  0  0  0  0  0  0  0  0  0  0  0
    2.4752   -7.1609    0.0000 H   0  0  0  0  0  0  0  0  0  0  0  0
  1 19  1  0  0  0  0
  1 55  1  0  0  0  0
  2 21  2  0  0  0  0
  3  5  1  0  0  0  0
  3  9  1  0  0  0  0
  3 13  1  0  0  0  0
  4 20  1  0  0  0  0
  4 21  1  0  0  0  0
  4 56  1  0  0  0  0
  5  6  1  0  0  0  0
  5  8  1  0  0  0  0
  5 34  1  1  0  0  0
  6  7  1  0  0  0  0
  6 10  1  0  0  0  0
  6 35  1  6  0  0  0
  7  9  1  0  0  0  0
  7 36  1  0  0  0  0
  7 37  1  0  0  0  0
  8 11  1  0  0  0  0
  8 38  1  0  0  0  0
  8 39  1  0  0  0  0
  9 40  1  0  0  0  0
  9 41  1  0  0  0  0
 10 12  2  0  0  0  0
 10 15  1  0  0  0  0
 11 12  1  0  0  0  0
 11 42  1  0  0  0  0
 11 43  1  0  0  0  0
 12 16  1  0  0  0  0
 13 14  1  0  0  0  0
 13 44  1  0  0  0  0
 13 45  1  0  0  0  0
 14 17  1  0  0  0  0
 14 46  1  0  0  0  0
 14 47  1  0  0  0  0
 15 18  2  0  0  0  0
 15 48  1  0  0  0  0
 16 19  2  0  0  0  0
 16 49  1  0  0  0  0
 17 20  1  0  0  0  0
 17 50  1  0  0  0  0
 17 51  1  0  0  0  0
 18 19  1  0  0  0  0
 18 52  1  0  0  0  0
 20 53  1  0  0  0  0
 20 54  1  0  0  0  0
 21 22  1  0  0  0  0
 22 23  2  0  0  0  0
 22 24  1  0  0  0  0
 23 25  1  0  0  0  0
 23 57  1  0  0  0  0
 24 26  2  0  0  0  0
 24 58  1  0  0  0  0
 25 27  2  0  0  0  0
 25 59  1  0  0  0  0
 26 27  1  0  0  0  0
 26 60  1  0  0  0  0
 27 28  1  0  0  0  0
 28 29  2  0  0  0  0
 28 30  1  0  0  0  0
 29 31  1  0  0  0  0
 29 61  1  0  0  0  0
 30 32  2  0  0  0  0
 30 62  1  0  0  0  0
 31 33  2  0  0  0  0
 31 63  1  0  0  0  0
 32 33  1  0  0  0  0
 32 64  1  0  0  0  0
 33 65  1  0  0  0  0
M  END
> <PUBCHEM_COMPOUND_CID>
44329130

> <PUBCHEM_COMPOUND_CANONICALIZED>
1

> <PUBCHEM_CACTVS_COMPLEXITY>
625

> <PUBCHEM_CACTVS_HBOND_ACCEPTOR>
3

> <PUBCHEM_CACTVS_HBOND_DONOR>
2

> <PUBCHEM_CACTVS_ROTATABLE_BOND>
7

> <PUBCHEM_CACTVS_SUBSKEYS>
AAADcfB7MAAAAAAAAAAAAAAAAAAAAWAAAAAwYMGAAAAAAFjBUAAAHgAQCAAADSzBmAQwBoPAAgCIAiFSEACCAAAkIAAIiIEODMgIJjKClROEcQhk1hGImYeYyPCO4AABAAAQAADQAAaAACQAAAAAAAAAAA==

> <PUBCHEM_IUPAC_OPENEYE_NAME>
N-[4-[(3aS,9bS)-7-hydroxy-1,2,3a,4,5,9b-hexahydrobenzo[e]indol-3-yl]butyl]-4-phenyl-benzamide

> <PUBCHEM_IUPAC_CAS_NAME>
N-[4-[(3aS,9bS)-7-hydroxy-1,2,3a,4,5,9b-hexahydrobenzo[e]indol-3-yl]butyl]-4-phenylbenzamide

> <PUBCHEM_IUPAC_NAME_MARKUP>
<I>N</I>-[4-[(3<I>a</I><I>S</I>,9<I>b</I><I>S</I>)-7-hydroxy-1,2,3<I>a</I>,4,5,9<I>b</I>-hexahydrobenzo[e]indol-3-yl]butyl]-4-phenylbenzamide

> <PUBCHEM_IUPAC_NAME>
N-[4-[(3aS,9bS)-7-hydroxy-1,2,3a,4,5,9b-hexahydrobenzo[e]indol-3-yl]butyl]-4-phenylbenzamide

> <PUBCHEM_IUPAC_SYSTEMATIC_NAME>
N-[4-[(3aS,9bS)-7-oxidanyl-1,2,3a,4,5,9b-hexahydrobenzo[e]indol-3-yl]butyl]-4-phenyl-benzamide

> <PUBCHEM_IUPAC_TRADITIONAL_NAME>
N-[4-[(3aS,9bS)-7-hydroxy-1,2,3a,4,5,9b-hexahydrobenz[e]indol-3-yl]butyl]-4-phenyl-benzamide

> <PUBCHEM_IUPAC_INCHI>
InChI=1S/C29H32N2O2/c32-25-13-14-26-24(20-25)12-15-28-27(26)16-19-31(28)18-5-4-17-30-29(33)23-10-8-22(9-11-23)21-6-2-1-3-7-21/h1-3,6-11,13-14,20,27-28,32H,4-5,12,15-19H2,(H,30,33)/t27-,28-/m0/s1

> <PUBCHEM_IUPAC_INCHIKEY>
GFWJJPMDPCQZBK-NSOVKSMOSA-N

> <PUBCHEM_XLOGP3_AA>
5.6

> <PUBCHEM_EXACT_MASS>
440.246378268

> <PUBCHEM_MOLECULAR_FORMULA>
C29H32N2O2

> <PUBCHEM_MOLECULAR_WEIGHT>
440.6

> <PUBCHEM_OPENEYE_CAN_SMILES>
C1CC2=C(C=CC(=C2)O)C3C1N(CC3)CCCCNC(=O)C4=CC=C(C=C4)C5=CC=CC=C5

> <PUBCHEM_OPENEYE_ISO_SMILES>
C1CC2=C(C=CC(=C2)O)[C@H]3[C@H]1N(CC3)CCCCNC(=O)C4=CC=C(C=C4)C5=CC=CC=C5

> <PUBCHEM_CACTVS_TPSA>
52.6

> <PUBCHEM_MONOISOTOPIC_WEIGHT>
440.246378268

> <PUBCHEM_TOTAL_CHARGE>
0

> <PUBCHEM_HEAVY_ATOM_COUNT>
33

> <PUBCHEM_ATOM_DEF_STEREO_COUNT>
2

> <PUBCHEM_ATOM_UDEF_STEREO_COUNT>
0

> <PUBCHEM_BOND_DEF_STEREO_COUNT>
0

> <PUBCHEM_BOND_UDEF_STEREO_COUNT>
0

> <PUBCHEM_ISOTOPIC_ATOM_COUNT>
0

> <PUBCHEM_COMPONENT_COUNT>
1

> <PUBCHEM_CACTVS_TAUTO_COUNT>
-1

> <PUBCHEM_COORDINATE_TYPE>
1
5
255

> <PUBCHEM_BONDANNOTATIONS>
10  12  8
10  15  8
12  16  8
15  18  8
16  19  8
18  19  8
22  23  8
22  24  8
23  25  8
24  26  8
25  27  8
26  27  8
28  29  8
28  30  8
29  31  8
30  32  8
31  33  8
32  33  8
5  34  5
6  35  6

$$$$
