71451454
  -OEChem-09292322332D

 49 51  0     0  0  0  0  0  0999 V2000
    7.1962    3.2306    0.0000 S   0  0  0  0  0  0  0  0  0  0  0  0
    8.0052    4.8184    0.0000 S   0  0  0  0  0  0  0  0  0  0  0  0
    2.0000   -3.7694    0.0000 F   0  0  0  0  0  0  0  0  0  0  0  0
    5.4641   -3.7694    0.0000 O   0  0  0  0  0  0  0  0  0  0  0  0
    8.1962    3.2306    0.0000 O   0  0  0  0  0  0  0  0  0  0  0  0
    6.1962    3.2306    0.0000 O   0  0  0  0  0  0  0  0  0  0  0  0
    6.3301   -1.2694    0.0000 N   0  0  0  0  0  0  0  0  0  0  0  0
    7.1962    2.2306    0.0000 N   0  0  0  0  0  0  0  0  0  0  0  0
    6.3301    0.7306    0.0000 C   0  0  0  0  0  0  0  0  0  0  0  0
    5.4641    0.2306    0.0000 C   0  0  0  0  0  0  0  0  0  0  0  0
    7.1962    0.2306    0.0000 C   0  0  0  0  0  0  0  0  0  0  0  0
    5.4641   -0.7694    0.0000 C   0  0  0  0  0  0  0  0  0  0  0  0
    7.1962   -0.7694    0.0000 C   0  0  0  0  0  0  0  0  0  0  0  0
    6.3301    1.7306    0.0000 C   0  0  0  0  0  0  0  0  0  0  0  0
    6.3301   -2.2694    0.0000 C   0  0  0  0  0  0  0  0  0  0  0  0
    5.4641   -2.7694    0.0000 C   0  0  0  0  0  0  0  0  0  0  0  0
    7.1962    4.2306    0.0000 C   0  0  0  0  0  0  0  0  0  0  0  0
    4.5981   -4.2694    0.0000 C   0  0  0  0  0  0  0  0  0  0  0  0
    6.3871    4.8184    0.0000 C   0  0  0  0  0  0  0  0  0  0  0  0
    6.6962    5.7694    0.0000 C   0  0  0  0  0  0  0  0  0  0  0  0
    7.6962    5.7694    0.0000 C   0  0  0  0  0  0  0  0  0  0  0  0
    3.7320   -3.7694    0.0000 C   0  0  0  0  0  0  0  0  0  0  0  0
    4.5981   -5.2694    0.0000 C   0  0  0  0  0  0  0  0  0  0  0  0
    2.8660   -4.2694    0.0000 C   0  0  0  0  0  0  0  0  0  0  0  0
    3.7320   -5.7694    0.0000 C   0  0  0  0  0  0  0  0  0  0  0  0
    2.8660   -5.2694    0.0000 C   0  0  0  0  0  0  0  0  0  0  0  0
    6.8671    1.0406    0.0000 H   0  0  0  0  0  0  0  0  0  0  0  0
    5.2520    0.8132    0.0000 H   0  0  0  0  0  0  0  0  0  0  0  0
    4.8535    0.1229    0.0000 H   0  0  0  0  0  0  0  0  0  0  0  0
    7.8067    0.1229    0.0000 H   0  0  0  0  0  0  0  0  0  0  0  0
    7.4082    0.8132    0.0000 H   0  0  0  0  0  0  0  0  0  0  0  0
    4.8535   -0.6618    0.0000 H   0  0  0  0  0  0  0  0  0  0  0  0
    5.2520   -1.3520    0.0000 H   0  0  0  0  0  0  0  0  0  0  0  0
    7.4082   -1.3520    0.0000 H   0  0  0  0  0  0  0  0  0  0  0  0
    7.8067   -0.6618    0.0000 H   0  0  0  0  0  0  0  0  0  0  0  0
    6.1181    2.3132    0.0000 H   0  0  0  0  0  0  0  0  0  0  0  0
    5.7196    1.6229    0.0000 H   0  0  0  0  0  0  0  0  0  0  0  0
    6.5422   -2.8520    0.0000 H   0  0  0  0  0  0  0  0  0  0  0  0
    6.9407   -2.1618    0.0000 H   0  0  0  0  0  0  0  0  0  0  0  0
    7.7331    1.9206    0.0000 H   0  0  0  0  0  0  0  0  0  0  0  0
    5.2520   -2.1868    0.0000 H   0  0  0  0  0  0  0  0  0  0  0  0
    4.8535   -2.8771    0.0000 H   0  0  0  0  0  0  0  0  0  0  0  0
    5.7975    4.6268    0.0000 H   0  0  0  0  0  0  0  0  0  0  0  0
    6.3317    6.2710    0.0000 H   0  0  0  0  0  0  0  0  0  0  0  0
    8.0606    6.2710    0.0000 H   0  0  0  0  0  0  0  0  0  0  0  0
    3.7320   -3.1494    0.0000 H   0  0  0  0  0  0  0  0  0  0  0  0
    5.1350   -5.5794    0.0000 H   0  0  0  0  0  0  0  0  0  0  0  0
    3.7320   -6.3894    0.0000 H   0  0  0  0  0  0  0  0  0  0  0  0
    2.3291   -5.5794    0.0000 H   0  0  0  0  0  0  0  0  0  0  0  0
  1  5  2  0  0  0  0
  1  6  2  0  0  0  0
  1  8  1  0  0  0  0
  1 17  1  0  0  0  0
  2 17  1  0  0  0  0
  2 21  1  0  0  0  0
  3 24  1  0  0  0  0
  4 16  1  0  0  0  0
  4 18  1  0  0  0  0
  7 12  1  0  0  0  0
  7 13  1  0  0  0  0
  7 15  1  0  0  0  0
  8 14  1  0  0  0  0
  8 40  1  0  0  0  0
  9 10  1  0  0  0  0
  9 11  1  0  0  0  0
  9 14  1  0  0  0  0
  9 27  1  0  0  0  0
 10 12  1  0  0  0  0
 10 28  1  0  0  0  0
 10 29  1  0  0  0  0
 11 13  1  0  0  0  0
 11 30  1  0  0  0  0
 11 31  1  0  0  0  0
 12 32  1  0  0  0  0
 12 33  1  0  0  0  0
 13 34  1  0  0  0  0
 13 35  1  0  0  0  0
 14 36  1  0  0  0  0
 14 37  1  0  0  0  0
 15 16  1  0  0  0  0
 15 38  1  0  0  0  0
 15 39  1  0  0  0  0
 16 41  1  0  0  0  0
 16 42  1  0  0  0  0
 17 19  2  0  0  0  0
 18 22  2  0  0  0  0
 18 23  1  0  0  0  0
 19 20  1  0  0  0  0
 19 43  1  0  0  0  0
 20 21  2  0  0  0  0
 20 44  1  0  0  0  0
 21 45  1  0  0  0  0
 22 24  1  0  0  0  0
 22 46  1  0  0  0  0
 23 25  2  0  0  0  0
 23 47  1  0  0  0  0
 24 26  2  0  0  0  0
 25 26  1  0  0  0  0
 25 48  1  0  0  0  0
 26 49  1  0  0  0  0
M  END
> <PUBCHEM_COMPOUND_CID>
71451454

> <PUBCHEM_COMPOUND_CANONICALIZED>
1

> <PUBCHEM_CACTVS_COMPLEXITY>
521

> <PUBCHEM_CACTVS_HBOND_ACCEPTOR>
7

> <PUBCHEM_CACTVS_HBOND_DONOR>
1

> <PUBCHEM_CACTVS_ROTATABLE_BOND>
8

> <PUBCHEM_CACTVS_SUBSKEYS>
AAADceB7MQBgAAAAAAAAAAAAAAAAASAAAAA8QAAAAAAAAAABwAAAHwQQQAAADQTl0A6wB4NABAqEACBCAHBDCZAgKBBIiJgOCIgOJiKksRqHOCCk0BG4qAeQQAAKAAAAAAAAAAAAAAAAAAAAAAAAAAAAAA==

> <PUBCHEM_IUPAC_OPENEYE_NAME>
N-[[1-[2-(3-fluorophenoxy)ethyl]-4-piperidyl]methyl]thiophene-2-sulfonamide

> <PUBCHEM_IUPAC_CAS_NAME>
N-[[1-[2-(3-fluorophenoxy)ethyl]-4-piperidinyl]methyl]-2-thiophenesulfonamide

> <PUBCHEM_IUPAC_NAME_MARKUP>
<I>N</I>-[[1-[2-(3-fluorophenoxy)ethyl]piperidin-4-yl]methyl]thiophene-2-sulfonamide

> <PUBCHEM_IUPAC_NAME>
N-[[1-[2-(3-fluorophenoxy)ethyl]piperidin-4-yl]methyl]thiophene-2-sulfonamide

> <PUBCHEM_IUPAC_SYSTEMATIC_NAME>
N-[[1-[2-(3-fluoranylphenoxy)ethyl]piperidin-4-yl]methyl]thiophene-2-sulfonamide

> <PUBCHEM_IUPAC_TRADITIONAL_NAME>
N-[[1-[2-(3-fluorophenoxy)ethyl]-4-piperidyl]methyl]thiophene-2-sulfonamide

> <PUBCHEM_IUPAC_INCHI>
InChI=1S/C18H23FN2O3S2/c19-16-3-1-4-17(13-16)24-11-10-21-8-6-15(7-9-21)14-20-26(22,23)18-5-2-12-25-18/h1-5,12-13,15,20H,6-11,14H2

> <PUBCHEM_IUPAC_INCHIKEY>
BMFHZRZIYNLNCC-UHFFFAOYSA-N

> <PUBCHEM_XLOGP3_AA>
3.5

> <PUBCHEM_EXACT_MASS>
398.11341311

> <PUBCHEM_MOLECULAR_FORMULA>
C18H23FN2O3S2

> <PUBCHEM_MOLECULAR_WEIGHT>
398.5

> <PUBCHEM_OPENEYE_CAN_SMILES>
C1CN(CCC1CNS(=O)(=O)C2=CC=CS2)CCOC3=CC(=CC=C3)F

> <PUBCHEM_OPENEYE_ISO_SMILES>
C1CN(CCC1CNS(=O)(=O)C2=CC=CS2)CCOC3=CC(=CC=C3)F

> <PUBCHEM_CACTVS_TPSA>
95.3

> <PUBCHEM_MONOISOTOPIC_WEIGHT>
398.11341311

> <PUBCHEM_TOTAL_CHARGE>
0

> <PUBCHEM_HEAVY_ATOM_COUNT>
26

> <PUBCHEM_ATOM_DEF_STEREO_COUNT>
0

> <PUBCHEM_ATOM_UDEF_STEREO_COUNT>
0

> <PUBCHEM_BOND_DEF_STEREO_COUNT>
0

> <PUBCHEM_BOND_UDEF_STEREO_COUNT>
0

> <PUBCHEM_ISOTOPIC_ATOM_COUNT>
0

> <PUBCHEM_COMPONENT_COUNT>
1

> <PUBCHEM_CACTVS_TAUTO_COUNT>
-1

> <PUBCHEM_COORDINATE_TYPE>
1
5
255

> <PUBCHEM_BONDANNOTATIONS>
17  19  8
18  22  8
18  23  8
19  20  8
2  17  8
2  21  8
20  21  8
22  24  8
23  25  8
24  26  8
25  26  8

$$$$
