11670421
  -OEChem-09292322242D

 72 75  0     0  0  0  0  0  0999 V2000
    8.0902   -6.6555    0.0000 O   0  0  0  0  0  0  0  0  0  0  0  0
    2.8940    0.3445    0.0000 O   0  0  0  0  0  0  0  0  0  0  0  0
    4.2992    7.8465    0.0000 O   0  0  0  0  0  0  0  0  0  0  0  0
    6.3582   -3.6555    0.0000 N   0  0  0  0  0  0  0  0  0  0  0  0
    6.3582   -5.6555    0.0000 N   0  0  0  0  0  0  0  0  0  0  0  0
    4.6261    0.3445    0.0000 N   0  0  0  0  0  0  0  0  0  0  0  0
    3.2601    3.3833    0.0000 N   0  0  0  0  0  0  0  0  0  0  0  0
    4.5691    2.4323    0.0000 N   0  0  0  0  0  0  0  0  0  0  0  0
    4.2601    3.3833    0.0000 N   0  0  0  0  0  0  0  0  0  0  0  0
    5.4921   -4.1555    0.0000 C   0  0  0  0  0  0  0  0  0  0  0  0
    7.2242   -4.1555    0.0000 C   0  0  0  0  0  0  0  0  0  0  0  0
    5.4921   -5.1555    0.0000 C   0  0  0  0  0  0  0  0  0  0  0  0
    7.2242   -5.1555    0.0000 C   0  0  0  0  0  0  0  0  0  0  0  0
    6.3582   -2.6555    0.0000 C   0  0  0  0  0  0  0  0  0  0  0  0
    5.4921   -2.1555    0.0000 C   0  0  0  0  0  0  0  0  0  0  0  0
    6.3582   -6.6555    0.0000 C   0  0  0  0  0  0  0  0  0  0  0  0
    5.4921   -1.1555    0.0000 C   0  0  0  0  0  0  0  0  0  0  0  0
    4.6261   -0.6555    0.0000 C   0  0  0  0  0  0  0  0  0  0  0  0
    7.2242   -7.1555    0.0000 C   0  0  0  0  0  0  0  0  0  0  0  0
    5.4921   -7.1555    0.0000 C   0  0  0  0  0  0  0  0  0  0  0  0
    7.2242   -8.1555    0.0000 C   0  0  0  0  0  0  0  0  0  0  0  0
    5.4921   -8.1555    0.0000 C   0  0  0  0  0  0  0  0  0  0  0  0
    6.3582   -8.6555    0.0000 C   0  0  0  0  0  0  0  0  0  0  0  0
    3.7601    0.8445    0.0000 C   0  0  0  0  0  0  0  0  0  0  0  0
    3.7601    1.8445    0.0000 C   0  0  0  0  0  0  0  0  0  0  0  0
    2.9511    2.4323    0.0000 C   0  0  0  0  0  0  0  0  0  0  0  0
    8.9562   -7.1555    0.0000 C   0  0  0  0  0  0  0  0  0  0  0  0
    2.6723    4.1923    0.0000 C   0  0  0  0  0  0  0  0  0  0  0  0
    2.0000    2.1232    0.0000 C   0  0  0  0  0  0  0  0  0  0  0  0
    3.0790    5.1059    0.0000 C   0  0  0  0  0  0  0  0  0  0  0  0
    4.0736    5.2104    0.0000 C   0  0  0  0  0  0  0  0  0  0  0  0
    2.4912    5.9149    0.0000 C   0  0  0  0  0  0  0  0  0  0  0  0
    4.4803    6.1240    0.0000 C   0  0  0  0  0  0  0  0  0  0  0  0
    2.8980    6.8284    0.0000 C   0  0  0  0  0  0  0  0  0  0  0  0
    3.8925    6.9330    0.0000 C   0  0  0  0  0  0  0  0  0  0  0  0
    3.7114    8.6555    0.0000 C   0  0  0  0  0  0  0  0  0  0  0  0
    5.2801   -3.5729    0.0000 H   0  0  0  0  0  0  0  0  0  0  0  0
    4.8815   -4.2632    0.0000 H   0  0  0  0  0  0  0  0  0  0  0  0
    7.8348   -4.2632    0.0000 H   0  0  0  0  0  0  0  0  0  0  0  0
    7.4362   -3.5729    0.0000 H   0  0  0  0  0  0  0  0  0  0  0  0
    4.8815   -5.0479    0.0000 H   0  0  0  0  0  0  0  0  0  0  0  0
    5.2801   -5.7381    0.0000 H   0  0  0  0  0  0  0  0  0  0  0  0
    7.4362   -5.7381    0.0000 H   0  0  0  0  0  0  0  0  0  0  0  0
    7.8348   -5.0479    0.0000 H   0  0  0  0  0  0  0  0  0  0  0  0
    6.9687   -2.7632    0.0000 H   0  0  0  0  0  0  0  0  0  0  0  0
    6.5702   -2.0729    0.0000 H   0  0  0  0  0  0  0  0  0  0  0  0
    4.8815   -2.0479    0.0000 H   0  0  0  0  0  0  0  0  0  0  0  0
    5.2801   -2.7381    0.0000 H   0  0  0  0  0  0  0  0  0  0  0  0
    6.1027   -1.2632    0.0000 H   0  0  0  0  0  0  0  0  0  0  0  0
    5.7042   -0.5729    0.0000 H   0  0  0  0  0  0  0  0  0  0  0  0
    4.0155   -0.5479    0.0000 H   0  0  0  0  0  0  0  0  0  0  0  0
    4.4140   -1.2381    0.0000 H   0  0  0  0  0  0  0  0  0  0  0  0
    4.9552   -6.8455    0.0000 H   0  0  0  0  0  0  0  0  0  0  0  0
    7.7611   -8.4655    0.0000 H   0  0  0  0  0  0  0  0  0  0  0  0
    5.1630    0.6545    0.0000 H   0  0  0  0  0  0  0  0  0  0  0  0
    4.9552   -8.4655    0.0000 H   0  0  0  0  0  0  0  0  0  0  0  0
    6.3582   -9.2755    0.0000 H   0  0  0  0  0  0  0  0  0  0  0  0
    8.6462   -7.6925    0.0000 H   0  0  0  0  0  0  0  0  0  0  0  0
    9.4932   -7.4655    0.0000 H   0  0  0  0  0  0  0  0  0  0  0  0
    9.2662   -6.6186    0.0000 H   0  0  0  0  0  0  0  0  0  0  0  0
    2.1583    4.5390    0.0000 H   0  0  0  0  0  0  0  0  0  0  0  0
    2.2416    3.7463    0.0000 H   0  0  0  0  0  0  0  0  0  0  0  0
    1.8084    2.7129    0.0000 H   0  0  0  0  0  0  0  0  0  0  0  0
    1.4103    1.9316    0.0000 H   0  0  0  0  0  0  0  0  0  0  0  0
    2.1916    1.5336    0.0000 H   0  0  0  0  0  0  0  0  0  0  0  0
    4.4380    4.7088    0.0000 H   0  0  0  0  0  0  0  0  0  0  0  0
    1.8746    5.8501    0.0000 H   0  0  0  0  0  0  0  0  0  0  0  0
    5.0969    6.1888    0.0000 H   0  0  0  0  0  0  0  0  0  0  0  0
    2.5336    7.3300    0.0000 H   0  0  0  0  0  0  0  0  0  0  0  0
    4.2130    9.0200    0.0000 H   0  0  0  0  0  0  0  0  0  0  0  0
    3.3470    9.1571    0.0000 H   0  0  0  0  0  0  0  0  0  0  0  0
    3.2099    8.2911    0.0000 H   0  0  0  0  0  0  0  0  0  0  0  0
  1 19  1  0  0  0  0
  1 27  1  0  0  0  0
  2 24  2  0  0  0  0
  3 35  1  0  0  0  0
  3 36  1  0  0  0  0
  4 10  1  0  0  0  0
  4 11  1  0  0  0  0
  4 14  1  0  0  0  0
  5 12  1  0  0  0  0
  5 13  1  0  0  0  0
  5 16  1  0  0  0  0
  6 18  1  0  0  0  0
  6 24  1  0  0  0  0
  6 55  1  0  0  0  0
  7  9  1  0  0  0  0
  7 26  1  0  0  0  0
  7 28  1  0  0  0  0
  8  9  2  0  0  0  0
  8 25  1  0  0  0  0
 10 12  1  0  0  0  0
 10 37  1  0  0  0  0
 10 38  1  0  0  0  0
 11 13  1  0  0  0  0
 11 39  1  0  0  0  0
 11 40  1  0  0  0  0
 12 41  1  0  0  0  0
 12 42  1  0  0  0  0
 13 43  1  0  0  0  0
 13 44  1  0  0  0  0
 14 15  1  0  0  0  0
 14 45  1  0  0  0  0
 14 46  1  0  0  0  0
 15 17  1  0  0  0  0
 15 47  1  0  0  0  0
 15 48  1  0  0  0  0
 16 19  1  0  0  0  0
 16 20  2  0  0  0  0
 17 18  1  0  0  0  0
 17 49  1  0  0  0  0
 17 50  1  0  0  0  0
 18 51  1  0  0  0  0
 18 52  1  0  0  0  0
 19 21  2  0  0  0  0
 20 22  1  0  0  0  0
 20 53  1  0  0  0  0
 21 23  1  0  0  0  0
 21 54  1  0  0  0  0
 22 23  2  0  0  0  0
 22 56  1  0  0  0  0
 23 57  1  0  0  0  0
 24 25  1  0  0  0  0
 25 26  2  0  0  0  0
 26 29  1  0  0  0  0
 27 58  1  0  0  0  0
 27 59  1  0  0  0  0
 27 60  1  0  0  0  0
 28 30  1  0  0  0  0
 28 61  1  0  0  0  0
 28 62  1  0  0  0  0
 29 63  1  0  0  0  0
 29 64  1  0  0  0  0
 29 65  1  0  0  0  0
 30 31  2  0  0  0  0
 30 32  1  0  0  0  0
 31 33  1  0  0  0  0
 31 66  1  0  0  0  0
 32 34  2  0  0  0  0
 32 67  1  0  0  0  0
 33 35  2  0  0  0  0
 33 68  1  0  0  0  0
 34 35  1  0  0  0  0
 34 69  1  0  0  0  0
 36 70  1  0  0  0  0
 36 71  1  0  0  0  0
 36 72  1  0  0  0  0
M  END
> <PUBCHEM_COMPOUND_CID>
11670421

> <PUBCHEM_COMPOUND_CANONICALIZED>
1

> <PUBCHEM_CACTVS_COMPLEXITY>
653

> <PUBCHEM_CACTVS_HBOND_ACCEPTOR>
7

> <PUBCHEM_CACTVS_HBOND_DONOR>
1

> <PUBCHEM_CACTVS_ROTATABLE_BOND>
11

> <PUBCHEM_CACTVS_SUBSKEYS>
AAADcfB7sAAAAAAAAAAAAAAAAAAAAWAAAAA8YIAAAAAAAAAB0AAAHgAYAAAADAzBngYyxpPIBACqAyVyVACCDAQnsgAY2IG/fMgOZjrE8ZuVMahk1hHY6UeQ0AIOIAAAAAAAEABAAAAAAAAgAAAAAAAAAA==

> <PUBCHEM_IUPAC_OPENEYE_NAME>
1-[(4-methoxyphenyl)methyl]-N-[4-[4-(2-methoxyphenyl)piperazin-1-yl]butyl]-5-methyl-triazole-4-carboxamide

> <PUBCHEM_IUPAC_CAS_NAME>
1-[(4-methoxyphenyl)methyl]-N-[4-[4-(2-methoxyphenyl)-1-piperazinyl]butyl]-5-methyl-4-triazolecarboxamide

> <PUBCHEM_IUPAC_NAME_MARKUP>
1-[(4-methoxyphenyl)methyl]-<I>N</I>-[4-[4-(2-methoxyphenyl)piperazin-1-yl]butyl]-5-methyltriazole-4-carboxamide

> <PUBCHEM_IUPAC_NAME>
1-[(4-methoxyphenyl)methyl]-N-[4-[4-(2-methoxyphenyl)piperazin-1-yl]butyl]-5-methyltriazole-4-carboxamide

> <PUBCHEM_IUPAC_SYSTEMATIC_NAME>
1-[(4-methoxyphenyl)methyl]-N-[4-[4-(2-methoxyphenyl)piperazin-1-yl]butyl]-5-methyl-1,2,3-triazole-4-carboxamide

> <PUBCHEM_IUPAC_TRADITIONAL_NAME>
N-[4-[4-(2-methoxyphenyl)piperazino]butyl]-5-methyl-1-p-anisyl-triazole-4-carboxamide

> <PUBCHEM_IUPAC_INCHI>
InChI=1S/C27H36N6O3/c1-21-26(29-30-33(21)20-22-10-12-23(35-2)13-11-22)27(34)28-14-6-7-15-31-16-18-32(19-17-31)24-8-4-5-9-25(24)36-3/h4-5,8-13H,6-7,14-20H2,1-3H3,(H,28,34)

> <PUBCHEM_IUPAC_INCHIKEY>
FYWWZJPZGSOQHH-UHFFFAOYSA-N

> <PUBCHEM_XLOGP3_AA>
3.6

> <PUBCHEM_EXACT_MASS>
492.28488903

> <PUBCHEM_MOLECULAR_FORMULA>
C27H36N6O3

> <PUBCHEM_MOLECULAR_WEIGHT>
492.6

> <PUBCHEM_OPENEYE_CAN_SMILES>
CC1=C(N=NN1CC2=CC=C(C=C2)OC)C(=O)NCCCCN3CCN(CC3)C4=CC=CC=C4OC

> <PUBCHEM_OPENEYE_ISO_SMILES>
CC1=C(N=NN1CC2=CC=C(C=C2)OC)C(=O)NCCCCN3CCN(CC3)C4=CC=CC=C4OC

> <PUBCHEM_CACTVS_TPSA>
84.8

> <PUBCHEM_MONOISOTOPIC_WEIGHT>
492.28488903

> <PUBCHEM_TOTAL_CHARGE>
0

> <PUBCHEM_HEAVY_ATOM_COUNT>
36

> <PUBCHEM_ATOM_DEF_STEREO_COUNT>
0

> <PUBCHEM_ATOM_UDEF_STEREO_COUNT>
0

> <PUBCHEM_BOND_DEF_STEREO_COUNT>
0

> <PUBCHEM_BOND_UDEF_STEREO_COUNT>
0

> <PUBCHEM_ISOTOPIC_ATOM_COUNT>
0

> <PUBCHEM_COMPONENT_COUNT>
1

> <PUBCHEM_CACTVS_TAUTO_COUNT>
-1

> <PUBCHEM_COORDINATE_TYPE>
1
5
255

> <PUBCHEM_BONDANNOTATIONS>
16  19  8
16  20  8
19  21  8
20  22  8
21  23  8
22  23  8
25  26  8
30  31  8
30  32  8
31  33  8
32  34  8
33  35  8
34  35  8
7  26  8
7  9  8
8  25  8
8  9  8

$$$$
