56944667
  -OEChem-09292322342D

 59 62  0     0  0  0  0  0  0999 V2000
   10.3438    3.3818    0.0000 S   0  0  0  0  0  0  0  0  0  0  0  0
    2.0000   -4.7447    0.0000 F   0  0  0  0  0  0  0  0  0  0  0  0
    5.5443   -4.5495    0.0000 O   0  0  0  0  0  0  0  0  0  0  0  0
   10.1376    4.3603    0.0000 O   0  0  0  0  0  0  0  0  0  0  0  0
   10.5500    2.4033    0.0000 O   0  0  0  0  0  0  0  0  0  0  0  0
    6.4763   -0.0884    0.0000 N   0  0  0  0  0  0  0  0  0  0  0  0
    6.1279   -3.7447    0.0000 N   0  0  0  0  0  0  0  0  0  0  0  0
    9.3653    3.1756    0.0000 N   0  0  0  0  0  0  0  0  0  0  0  0
    5.8550   -1.9895    0.0000 C   0  0  0  0  0  0  0  0  0  0  0  0
    5.1871   -1.2452    0.0000 C   0  0  0  0  0  0  0  0  0  0  0  0
    6.8335   -1.7833    0.0000 C   0  0  0  0  0  0  0  0  0  0  0  0
    5.4978   -0.2947    0.0000 C   0  0  0  0  0  0  0  0  0  0  0  0
    7.1441   -0.8327    0.0000 C   0  0  0  0  0  0  0  0  0  0  0  0
    6.7870    0.8621    0.0000 C   0  0  0  0  0  0  0  0  0  0  0  0
    5.5443   -2.9400    0.0000 C   0  0  0  0  0  0  0  0  0  0  0  0
    7.7654    1.0683    0.0000 C   0  0  0  0  0  0  0  0  0  0  0  0
    4.5981   -3.2447    0.0000 C   0  0  0  0  0  0  0  0  0  0  0  0
    8.0761    2.0188    0.0000 C   0  0  0  0  0  0  0  0  0  0  0  0
    4.5981   -4.2447    0.0000 C   0  0  0  0  0  0  0  0  0  0  0  0
    9.0546    2.2250    0.0000 C   0  0  0  0  0  0  0  0  0  0  0  0
    3.7320   -2.7447    0.0000 C   0  0  0  0  0  0  0  0  0  0  0  0
    3.7320   -4.7447    0.0000 C   0  0  0  0  0  0  0  0  0  0  0  0
    2.8660   -3.2447    0.0000 C   0  0  0  0  0  0  0  0  0  0  0  0
    2.8660   -4.2447    0.0000 C   0  0  0  0  0  0  0  0  0  0  0  0
   11.3223    3.5880    0.0000 C   0  0  0  0  0  0  0  0  0  0  0  0
   11.9901    2.8437    0.0000 C   0  0  0  0  0  0  0  0  0  0  0  0
   11.6330    4.5385    0.0000 C   0  0  0  0  0  0  0  0  0  0  0  0
   12.9686    3.0499    0.0000 C   0  0  0  0  0  0  0  0  0  0  0  0
   12.6115    4.7447    0.0000 C   0  0  0  0  0  0  0  0  0  0  0  0
   13.2793    4.0004    0.0000 C   0  0  0  0  0  0  0  0  0  0  0  0
   13.6365    2.3056    0.0000 C   0  0  0  0  0  0  0  0  0  0  0  0
    6.2690   -2.4510    0.0000 H   0  0  0  0  0  0  0  0  0  0  0  0
    4.6402   -0.9532    0.0000 H   0  0  0  0  0  0  0  0  0  0  0  0
    4.8046   -1.7331    0.0000 H   0  0  0  0  0  0  0  0  0  0  0  0
    6.8540   -2.4029    0.0000 H   0  0  0  0  0  0  0  0  0  0  0  0
    7.4473   -1.8706    0.0000 H   0  0  0  0  0  0  0  0  0  0  0  0
    5.4772    0.3250    0.0000 H   0  0  0  0  0  0  0  0  0  0  0  0
    4.8840   -0.2073    0.0000 H   0  0  0  0  0  0  0  0  0  0  0  0
    7.6910   -1.1248    0.0000 H   0  0  0  0  0  0  0  0  0  0  0  0
    7.5267   -0.3448    0.0000 H   0  0  0  0  0  0  0  0  0  0  0  0
    6.7664    1.4817    0.0000 H   0  0  0  0  0  0  0  0  0  0  0  0
    6.1731    0.9494    0.0000 H   0  0  0  0  0  0  0  0  0  0  0  0
    7.7860    0.4486    0.0000 H   0  0  0  0  0  0  0  0  0  0  0  0
    8.3793    0.9809    0.0000 H   0  0  0  0  0  0  0  0  0  0  0  0
    8.0556    2.6385    0.0000 H   0  0  0  0  0  0  0  0  0  0  0  0
    7.4623    2.1062    0.0000 H   0  0  0  0  0  0  0  0  0  0  0  0
    9.0752    1.6054    0.0000 H   0  0  0  0  0  0  0  0  0  0  0  0
    9.6684    2.1377    0.0000 H   0  0  0  0  0  0  0  0  0  0  0  0
    3.7320   -2.1247    0.0000 H   0  0  0  0  0  0  0  0  0  0  0  0
    8.9512    3.6370    0.0000 H   0  0  0  0  0  0  0  0  0  0  0  0
    3.7320   -5.3647    0.0000 H   0  0  0  0  0  0  0  0  0  0  0  0
    2.3291   -2.9347    0.0000 H   0  0  0  0  0  0  0  0  0  0  0  0
   11.7975    2.2544    0.0000 H   0  0  0  0  0  0  0  0  0  0  0  0
   11.2189    5.0000    0.0000 H   0  0  0  0  0  0  0  0  0  0  0  0
   12.8041    5.3341    0.0000 H   0  0  0  0  0  0  0  0  0  0  0  0
   13.8860    4.1283    0.0000 H   0  0  0  0  0  0  0  0  0  0  0  0
   13.1750    1.8916    0.0000 H   0  0  0  0  0  0  0  0  0  0  0  0
   14.0506    1.8441    0.0000 H   0  0  0  0  0  0  0  0  0  0  0  0
   14.0980    2.7197    0.0000 H   0  0  0  0  0  0  0  0  0  0  0  0
  1  4  2  0  0  0  0
  1  5  2  0  0  0  0
  1  8  1  0  0  0  0
  1 25  1  0  0  0  0
  2 24  1  0  0  0  0
  3  7  1  0  0  0  0
  3 19  1  0  0  0  0
  6 12  1  0  0  0  0
  6 13  1  0  0  0  0
  6 14  1  0  0  0  0
  7 15  2  0  0  0  0
  8 20  1  0  0  0  0
  8 50  1  0  0  0  0
  9 10  1  0  0  0  0
  9 11  1  0  0  0  0
  9 15  1  0  0  0  0
  9 32  1  0  0  0  0
 10 12  1  0  0  0  0
 10 33  1  0  0  0  0
 10 34  1  0  0  0  0
 11 13  1  0  0  0  0
 11 35  1  0  0  0  0
 11 36  1  0  0  0  0
 12 37  1  0  0  0  0
 12 38  1  0  0  0  0
 13 39  1  0  0  0  0
 13 40  1  0  0  0  0
 14 16  1  0  0  0  0
 14 41  1  0  0  0  0
 14 42  1  0  0  0  0
 15 17  1  0  0  0  0
 16 18  1  0  0  0  0
 16 43  1  0  0  0  0
 16 44  1  0  0  0  0
 17 19  2  0  0  0  0
 17 21  1  0  0  0  0
 18 20  1  0  0  0  0
 18 45  1  0  0  0  0
 18 46  1  0  0  0  0
 19 22  1  0  0  0  0
 20 47  1  0  0  0  0
 20 48  1  0  0  0  0
 21 23  2  0  0  0  0
 21 49  1  0  0  0  0
 22 24  2  0  0  0  0
 22 51  1  0  0  0  0
 23 24  1  0  0  0  0
 23 52  1  0  0  0  0
 25 26  1  0  0  0  0
 25 27  2  0  0  0  0
 26 28  2  0  0  0  0
 26 53  1  0  0  0  0
 27 29  1  0  0  0  0
 27 54  1  0  0  0  0
 28 30  1  0  0  0  0
 28 31  1  0  0  0  0
 29 30  2  0  0  0  0
 29 55  1  0  0  0  0
 30 56  1  0  0  0  0
 31 57  1  0  0  0  0
 31 58  1  0  0  0  0
 31 59  1  0  0  0  0
M  END
> <PUBCHEM_COMPOUND_CID>
56944667

> <PUBCHEM_COMPOUND_CANONICALIZED>
1

> <PUBCHEM_CACTVS_COMPLEXITY>
666

> <PUBCHEM_CACTVS_HBOND_ACCEPTOR>
7

> <PUBCHEM_CACTVS_HBOND_DONOR>
1

> <PUBCHEM_CACTVS_ROTATABLE_BOND>
8

> <PUBCHEM_CACTVS_SUBSKEYS>
AAADceB7MQBAAAAAAAAAAAAAAAAAAWAAAAA8YIAAAAAAAFgB9AAAHwQUQAAADQzB3gwyh9NQAAKpA6RyQnDCABAkIAAomLk+TNoIJrqAlZOEMYBm0BmIyceYyOCOAAAAgAAIAAAAAAEAABAAAAAAAAAAAA==

> <PUBCHEM_IUPAC_OPENEYE_NAME>
N-[4-[4-(6-fluoro-1,2-benzoxazol-3-yl)-1-piperidyl]butyl]-3-methyl-benzenesulfonamide

> <PUBCHEM_IUPAC_CAS_NAME>
N-[4-[4-(6-fluoro-1,2-benzoxazol-3-yl)-1-piperidinyl]butyl]-3-methylbenzenesulfonamide

> <PUBCHEM_IUPAC_NAME_MARKUP>
<I>N</I>-[4-[4-(6-fluoro-1,2-benzoxazol-3-yl)piperidin-1-yl]butyl]-3-methylbenzenesulfonamide

> <PUBCHEM_IUPAC_NAME>
N-[4-[4-(6-fluoro-1,2-benzoxazol-3-yl)piperidin-1-yl]butyl]-3-methylbenzenesulfonamide

> <PUBCHEM_IUPAC_SYSTEMATIC_NAME>
N-[4-[4-(6-fluoranyl-1,2-benzoxazol-3-yl)piperidin-1-yl]butyl]-3-methyl-benzenesulfonamide

> <PUBCHEM_IUPAC_TRADITIONAL_NAME>
N-[4-[4-(6-fluoroindoxazen-3-yl)piperidino]butyl]-3-methyl-benzenesulfonamide

> <PUBCHEM_IUPAC_INCHI>
InChI=1S/C23H28FN3O3S/c1-17-5-4-6-20(15-17)31(28,29)25-11-2-3-12-27-13-9-18(10-14-27)23-21-8-7-19(24)16-22(21)30-26-23/h4-8,15-16,18,25H,2-3,9-14H2,1H3

> <PUBCHEM_IUPAC_INCHIKEY>
BPVLKJSAFIGBKX-UHFFFAOYSA-N

> <PUBCHEM_XLOGP3_AA>
4.2

> <PUBCHEM_EXACT_MASS>
445.18354110

> <PUBCHEM_MOLECULAR_FORMULA>
C23H28FN3O3S

> <PUBCHEM_MOLECULAR_WEIGHT>
445.6

> <PUBCHEM_OPENEYE_CAN_SMILES>
CC1=CC(=CC=C1)S(=O)(=O)NCCCCN2CCC(CC2)C3=NOC4=C3C=CC(=C4)F

> <PUBCHEM_OPENEYE_ISO_SMILES>
CC1=CC(=CC=C1)S(=O)(=O)NCCCCN2CCC(CC2)C3=NOC4=C3C=CC(=C4)F

> <PUBCHEM_CACTVS_TPSA>
83.8

> <PUBCHEM_MONOISOTOPIC_WEIGHT>
445.18354110

> <PUBCHEM_TOTAL_CHARGE>
0

> <PUBCHEM_HEAVY_ATOM_COUNT>
31

> <PUBCHEM_ATOM_DEF_STEREO_COUNT>
0

> <PUBCHEM_ATOM_UDEF_STEREO_COUNT>
0

> <PUBCHEM_BOND_DEF_STEREO_COUNT>
0

> <PUBCHEM_BOND_UDEF_STEREO_COUNT>
0

> <PUBCHEM_ISOTOPIC_ATOM_COUNT>
0

> <PUBCHEM_COMPONENT_COUNT>
1

> <PUBCHEM_CACTVS_TAUTO_COUNT>
-1

> <PUBCHEM_COORDINATE_TYPE>
1
5
255

> <PUBCHEM_BONDANNOTATIONS>
15  17  8
17  19  8
17  21  8
19  22  8
21  23  8
22  24  8
23  24  8
25  26  8
25  27  8
26  28  8
27  29  8
28  30  8
29  30  8
3  19  8
3  7  8
7  15  8

$$$$
