11341394
  -OEChem-09292322462D

 69 72  0     1  0  0  0  0  0999 V2000
    8.5991    2.4827    0.0000 O   0  0  0  0  0  0  0  0  0  0  0  0
    4.2690   -2.0173    0.0000 O   0  0  0  0  0  0  0  0  0  0  0  0
    6.8671   -2.5173    0.0000 N   0  0  0  0  0  0  0  0  0  0  0  0
    5.1350   -3.5173    0.0000 N   0  0  0  0  0  0  0  0  0  0  0  0
   10.3312    2.4827    0.0000 N   0  0  0  0  0  0  0  0  0  0  0  0
    2.5369   -2.0173    0.0000 N   0  0  0  0  0  0  0  0  0  0  0  0
    6.0010   -2.0173    0.0000 C   0  0  0  0  0  0  0  0  0  0  0  0
    6.8671   -3.5173    0.0000 C   0  0  0  0  0  0  0  0  0  0  0  0
   10.3312    3.4827    0.0000 C   0  0  3  0  0  0  0  0  0  0  0  0
    7.7331   -2.0173    0.0000 C   0  0  0  0  0  0  0  0  0  0  0  0
    5.1350   -2.5173    0.0000 C   0  0  0  0  0  0  0  0  0  0  0  0
    6.0010   -4.0173    0.0000 C   0  0  0  0  0  0  0  0  0  0  0  0
    9.4651    3.9827    0.0000 C   0  0  0  0  0  0  0  0  0  0  0  0
    7.7331   -1.0173    0.0000 C   0  0  0  0  0  0  0  0  0  0  0  0
    9.4651    4.9827    0.0000 C   0  0  0  0  0  0  0  0  0  0  0  0
   11.1972    3.9827    0.0000 C   0  0  0  0  0  0  0  0  0  0  0  0
   10.3312    5.4827    0.0000 C   0  0  0  0  0  0  0  0  0  0  0  0
   11.1972    4.9827    0.0000 C   0  0  0  0  0  0  0  0  0  0  0  0
    8.5991   -0.5173    0.0000 C   0  0  0  0  0  0  0  0  0  0  0  0
    8.5991    0.4827    0.0000 C   0  0  0  0  0  0  0  0  0  0  0  0
    4.2690   -4.0173    0.0000 C   0  0  0  0  0  0  0  0  0  0  0  0
    9.4651    0.9827    0.0000 C   0  0  0  0  0  0  0  0  0  0  0  0
    9.4651    1.9827    0.0000 C   0  0  0  0  0  0  0  0  0  0  0  0
   12.0911    3.4480    0.0000 C   0  0  0  0  0  0  0  0  0  0  0  0
   12.0911    5.5173    0.0000 C   0  0  0  0  0  0  0  0  0  0  0  0
    3.4030   -3.5173    0.0000 C   0  0  0  0  0  0  0  0  0  0  0  0
    4.2690   -5.0173    0.0000 C   0  0  0  0  0  0  0  0  0  0  0  0
   12.9972    3.9618    0.0000 C   0  0  0  0  0  0  0  0  0  0  0  0
   12.9972    5.0035    0.0000 C   0  0  0  0  0  0  0  0  0  0  0  0
    2.5369   -4.0173    0.0000 C   0  0  0  0  0  0  0  0  0  0  0  0
    3.4030   -5.5173    0.0000 C   0  0  0  0  0  0  0  0  0  0  0  0
    3.4030   -2.5173    0.0000 C   0  0  0  0  0  0  0  0  0  0  0  0
    2.5369   -5.0173    0.0000 C   0  0  0  0  0  0  0  0  0  0  0  0
    6.3996   -1.5424    0.0000 H   0  0  0  0  0  0  0  0  0  0  0  0
    5.6025   -1.5424    0.0000 H   0  0  0  0  0  0  0  0  0  0  0  0
    7.0791   -4.0999    0.0000 H   0  0  0  0  0  0  0  0  0  0  0  0
    7.4776   -3.4097    0.0000 H   0  0  0  0  0  0  0  0  0  0  0  0
   10.8681    3.1727    0.0000 H   0  0  0  0  0  0  0  0  0  0  0  0
    7.9451   -2.5999    0.0000 H   0  0  0  0  0  0  0  0  0  0  0  0
    8.3437   -1.9097    0.0000 H   0  0  0  0  0  0  0  0  0  0  0  0
    4.9230   -1.9347    0.0000 H   0  0  0  0  0  0  0  0  0  0  0  0
    4.5244   -2.6250    0.0000 H   0  0  0  0  0  0  0  0  0  0  0  0
    5.6025   -4.4923    0.0000 H   0  0  0  0  0  0  0  0  0  0  0  0
    6.3996   -4.4923    0.0000 H   0  0  0  0  0  0  0  0  0  0  0  0
    8.8546    4.0903    0.0000 H   0  0  0  0  0  0  0  0  0  0  0  0
    9.2531    3.4001    0.0000 H   0  0  0  0  0  0  0  0  0  0  0  0
    7.5210   -0.4347    0.0000 H   0  0  0  0  0  0  0  0  0  0  0  0
    7.1225   -1.1250    0.0000 H   0  0  0  0  0  0  0  0  0  0  0  0
    9.2531    5.5653    0.0000 H   0  0  0  0  0  0  0  0  0  0  0  0
    8.8546    4.8750    0.0000 H   0  0  0  0  0  0  0  0  0  0  0  0
   10.7297    5.9576    0.0000 H   0  0  0  0  0  0  0  0  0  0  0  0
    9.9326    5.9576    0.0000 H   0  0  0  0  0  0  0  0  0  0  0  0
    8.8112   -1.0999    0.0000 H   0  0  0  0  0  0  0  0  0  0  0  0
    9.2097   -0.4097    0.0000 H   0  0  0  0  0  0  0  0  0  0  0  0
    8.3871    1.0653    0.0000 H   0  0  0  0  0  0  0  0  0  0  0  0
    7.9885    0.3750    0.0000 H   0  0  0  0  0  0  0  0  0  0  0  0
   10.8681    2.1727    0.0000 H   0  0  0  0  0  0  0  0  0  0  0  0
    9.6772    0.4001    0.0000 H   0  0  0  0  0  0  0  0  0  0  0  0
   10.0757    1.0903    0.0000 H   0  0  0  0  0  0  0  0  0  0  0  0
   12.0840    2.8280    0.0000 H   0  0  0  0  0  0  0  0  0  0  0  0
   12.0840    6.1373    0.0000 H   0  0  0  0  0  0  0  0  0  0  0  0
    4.8059   -5.3273    0.0000 H   0  0  0  0  0  0  0  0  0  0  0  0
   13.5329    3.6498    0.0000 H   0  0  0  0  0  0  0  0  0  0  0  0
   13.5329    5.3156    0.0000 H   0  0  0  0  0  0  0  0  0  0  0  0
    2.0000   -3.7073    0.0000 H   0  0  0  0  0  0  0  0  0  0  0  0
    3.4030   -6.1373    0.0000 H   0  0  0  0  0  0  0  0  0  0  0  0
    2.0000   -5.3273    0.0000 H   0  0  0  0  0  0  0  0  0  0  0  0
    2.5369   -1.3973    0.0000 H   0  0  0  0  0  0  0  0  0  0  0  0
    2.0000   -2.3273    0.0000 H   0  0  0  0  0  0  0  0  0  0  0  0
  1 23  2  0  0  0  0
  2 32  2  0  0  0  0
  3  7  1  0  0  0  0
  3  8  1  0  0  0  0
  3 10  1  0  0  0  0
  4 11  1  0  0  0  0
  4 12  1  0  0  0  0
  4 21  1  0  0  0  0
  5  9  1  0  0  0  0
  5 23  1  0  0  0  0
  5 57  1  0  0  0  0
  6 32  1  0  0  0  0
  6 68  1  0  0  0  0
  6 69  1  0  0  0  0
  7 11  1  0  0  0  0
  7 34  1  0  0  0  0
  7 35  1  0  0  0  0
  8 12  1  0  0  0  0
  8 36  1  0  0  0  0
  8 37  1  0  0  0  0
  9 13  1  0  0  0  0
  9 16  1  0  0  0  0
  9 38  1  0  0  0  0
 10 14  1  0  0  0  0
 10 39  1  0  0  0  0
 10 40  1  0  0  0  0
 11 41  1  0  0  0  0
 11 42  1  0  0  0  0
 12 43  1  0  0  0  0
 12 44  1  0  0  0  0
 13 15  1  0  0  0  0
 13 45  1  0  0  0  0
 13 46  1  0  0  0  0
 14 19  1  0  0  0  0
 14 47  1  0  0  0  0
 14 48  1  0  0  0  0
 15 17  1  0  0  0  0
 15 49  1  0  0  0  0
 15 50  1  0  0  0  0
 16 18  1  0  0  0  0
 16 24  2  0  0  0  0
 17 18  1  0  0  0  0
 17 51  1  0  0  0  0
 17 52  1  0  0  0  0
 18 25  2  0  0  0  0
 19 20  1  0  0  0  0
 19 53  1  0  0  0  0
 19 54  1  0  0  0  0
 20 22  1  0  0  0  0
 20 55  1  0  0  0  0
 20 56  1  0  0  0  0
 21 26  1  0  0  0  0
 21 27  2  0  0  0  0
 22 23  1  0  0  0  0
 22 58  1  0  0  0  0
 22 59  1  0  0  0  0
 24 28  1  0  0  0  0
 24 60  1  0  0  0  0
 25 29  1  0  0  0  0
 25 61  1  0  0  0  0
 26 30  2  0  0  0  0
 26 32  1  0  0  0  0
 27 31  1  0  0  0  0
 27 62  1  0  0  0  0
 28 29  2  0  0  0  0
 28 63  1  0  0  0  0
 29 64  1  0  0  0  0
 30 33  1  0  0  0  0
 30 65  1  0  0  0  0
 31 33  2  0  0  0  0
 31 66  1  0  0  0  0
 33 67  1  0  0  0  0
M  END
> <PUBCHEM_COMPOUND_CID>
11341394

> <PUBCHEM_COMPOUND_CANONICALIZED>
1

> <PUBCHEM_CACTVS_COMPLEXITY>
634

> <PUBCHEM_CACTVS_HBOND_ACCEPTOR>
4

> <PUBCHEM_CACTVS_HBOND_DONOR>
2

> <PUBCHEM_CACTVS_ROTATABLE_BOND>
9

> <PUBCHEM_CACTVS_SUBSKEYS>
AAADcfB7sAAAAAAAAAAAAAAAAAAAAAAAAAA8YMEAAAAAAADBQAAAHgAQAAAADCjBmAQwwIPAAACIAiVSUACCAAAlAgAIiIEIZMgIYDrA1ZGUIYhglgDIyccYiICOgAAAAAASAAAAAACAACQAAAAAAAAAAA==

> <PUBCHEM_IUPAC_OPENEYE_NAME>
2-[4-[6-oxo-6-(tetralin-1-ylamino)hexyl]piperazin-1-yl]benzamide

> <PUBCHEM_IUPAC_CAS_NAME>
2-[4-[6-oxo-6-(1,2,3,4-tetrahydronaphthalen-1-ylamino)hexyl]-1-piperazinyl]benzamide

> <PUBCHEM_IUPAC_NAME_MARKUP>
2-[4-[6-oxo-6-(1,2,3,4-tetrahydronaphthalen-1-ylamino)hexyl]piperazin-1-yl]benzamide

> <PUBCHEM_IUPAC_NAME>
2-[4-[6-oxo-6-(1,2,3,4-tetrahydronaphthalen-1-ylamino)hexyl]piperazin-1-yl]benzamide

> <PUBCHEM_IUPAC_SYSTEMATIC_NAME>
2-[4-[6-oxidanylidene-6-(1,2,3,4-tetrahydronaphthalen-1-ylamino)hexyl]piperazin-1-yl]benzamide

> <PUBCHEM_IUPAC_TRADITIONAL_NAME>
2-[4-[6-keto-6-(tetralin-1-ylamino)hexyl]piperazino]benzamide

> <PUBCHEM_IUPAC_INCHI>
InChI=1S/C27H36N4O2/c28-27(33)23-12-5-6-14-25(23)31-19-17-30(18-20-31)16-7-1-2-15-26(32)29-24-13-8-10-21-9-3-4-11-22(21)24/h3-6,9,11-12,14,24H,1-2,7-8,10,13,15-20H2,(H2,28,33)(H,29,32)

> <PUBCHEM_IUPAC_INCHIKEY>
CUNIRIUQESLLLU-UHFFFAOYSA-N

> <PUBCHEM_XLOGP3_AA>
3.3

> <PUBCHEM_EXACT_MASS>
448.28382640

> <PUBCHEM_MOLECULAR_FORMULA>
C27H36N4O2

> <PUBCHEM_MOLECULAR_WEIGHT>
448.6

> <PUBCHEM_OPENEYE_CAN_SMILES>
C1CC(C2=CC=CC=C2C1)NC(=O)CCCCCN3CCN(CC3)C4=CC=CC=C4C(=O)N

> <PUBCHEM_OPENEYE_ISO_SMILES>
C1CC(C2=CC=CC=C2C1)NC(=O)CCCCCN3CCN(CC3)C4=CC=CC=C4C(=O)N

> <PUBCHEM_CACTVS_TPSA>
78.7

> <PUBCHEM_MONOISOTOPIC_WEIGHT>
448.28382640

> <PUBCHEM_TOTAL_CHARGE>
0

> <PUBCHEM_HEAVY_ATOM_COUNT>
33

> <PUBCHEM_ATOM_DEF_STEREO_COUNT>
0

> <PUBCHEM_ATOM_UDEF_STEREO_COUNT>
1

> <PUBCHEM_BOND_DEF_STEREO_COUNT>
0

> <PUBCHEM_BOND_UDEF_STEREO_COUNT>
0

> <PUBCHEM_ISOTOPIC_ATOM_COUNT>
0

> <PUBCHEM_COMPONENT_COUNT>
1

> <PUBCHEM_CACTVS_TAUTO_COUNT>
-1

> <PUBCHEM_COORDINATE_TYPE>
1
5
255

> <PUBCHEM_BONDANNOTATIONS>
16  18  8
16  24  8
18  25  8
21  26  8
21  27  8
24  28  8
25  29  8
26  30  8
27  31  8
28  29  8
30  33  8
31  33  8
9  5  3

$$$$
