24768525
  -OEChem-09292322462D

 64 67  0     1  0  0  0  0  0999 V2000
    8.0622    2.4827    0.0000 O   0  0  0  0  0  0  0  0  0  0  0  0
    6.3301   -2.5173    0.0000 N   0  0  0  0  0  0  0  0  0  0  0  0
    4.5981   -3.5173    0.0000 N   0  0  0  0  0  0  0  0  0  0  0  0
    9.7942    2.4827    0.0000 N   0  0  0  0  0  0  0  0  0  0  0  0
    3.7320   -5.0173    0.0000 N   0  0  0  0  0  0  0  0  0  0  0  0
    9.7942    3.4827    0.0000 C   0  0  3  0  0  0  0  0  0  0  0  0
    5.4641   -2.0173    0.0000 C   0  0  0  0  0  0  0  0  0  0  0  0
    6.3301   -3.5173    0.0000 C   0  0  0  0  0  0  0  0  0  0  0  0
    8.9282    3.9827    0.0000 C   0  0  0  0  0  0  0  0  0  0  0  0
    7.1962   -2.0173    0.0000 C   0  0  0  0  0  0  0  0  0  0  0  0
    4.5981   -2.5173    0.0000 C   0  0  0  0  0  0  0  0  0  0  0  0
    5.4641   -4.0173    0.0000 C   0  0  0  0  0  0  0  0  0  0  0  0
    8.9282    4.9827    0.0000 C   0  0  0  0  0  0  0  0  0  0  0  0
   10.6603    3.9827    0.0000 C   0  0  0  0  0  0  0  0  0  0  0  0
    7.1962   -1.0173    0.0000 C   0  0  0  0  0  0  0  0  0  0  0  0
    9.7942    5.4827    0.0000 C   0  0  0  0  0  0  0  0  0  0  0  0
   10.6603    4.9827    0.0000 C   0  0  0  0  0  0  0  0  0  0  0  0
    8.0622   -0.5173    0.0000 C   0  0  0  0  0  0  0  0  0  0  0  0
    8.0622    0.4827    0.0000 C   0  0  0  0  0  0  0  0  0  0  0  0
    8.9282    0.9827    0.0000 C   0  0  0  0  0  0  0  0  0  0  0  0
    8.9282    1.9827    0.0000 C   0  0  0  0  0  0  0  0  0  0  0  0
   11.5542    3.4480    0.0000 C   0  0  0  0  0  0  0  0  0  0  0  0
    3.7320   -4.0173    0.0000 C   0  0  0  0  0  0  0  0  0  0  0  0
   11.5542    5.5173    0.0000 C   0  0  0  0  0  0  0  0  0  0  0  0
   12.4603    3.9618    0.0000 C   0  0  0  0  0  0  0  0  0  0  0  0
   12.4603    5.0035    0.0000 C   0  0  0  0  0  0  0  0  0  0  0  0
    2.8660   -3.5173    0.0000 C   0  0  0  0  0  0  0  0  0  0  0  0
    2.0000   -4.0173    0.0000 C   0  0  0  0  0  0  0  0  0  0  0  0
    2.8660   -5.5173    0.0000 C   0  0  0  0  0  0  0  0  0  0  0  0
    2.0000   -5.0173    0.0000 C   0  0  0  0  0  0  0  0  0  0  0  0
    9.2573    3.1727    0.0000 H   0  0  0  0  0  0  0  0  0  0  0  0
    5.8626   -1.5424    0.0000 H   0  0  0  0  0  0  0  0  0  0  0  0
    5.0656   -1.5424    0.0000 H   0  0  0  0  0  0  0  0  0  0  0  0
    6.5422   -4.0999    0.0000 H   0  0  0  0  0  0  0  0  0  0  0  0
    6.9407   -3.4097    0.0000 H   0  0  0  0  0  0  0  0  0  0  0  0
    8.3176    4.0903    0.0000 H   0  0  0  0  0  0  0  0  0  0  0  0
    8.7162    3.4001    0.0000 H   0  0  0  0  0  0  0  0  0  0  0  0
    7.4082   -2.5999    0.0000 H   0  0  0  0  0  0  0  0  0  0  0  0
    7.8067   -1.9097    0.0000 H   0  0  0  0  0  0  0  0  0  0  0  0
    4.3860   -1.9347    0.0000 H   0  0  0  0  0  0  0  0  0  0  0  0
    3.9875   -2.6250    0.0000 H   0  0  0  0  0  0  0  0  0  0  0  0
    5.0656   -4.4923    0.0000 H   0  0  0  0  0  0  0  0  0  0  0  0
    5.8626   -4.4923    0.0000 H   0  0  0  0  0  0  0  0  0  0  0  0
    8.7162    5.5653    0.0000 H   0  0  0  0  0  0  0  0  0  0  0  0
    8.3176    4.8750    0.0000 H   0  0  0  0  0  0  0  0  0  0  0  0
    6.9841   -0.4347    0.0000 H   0  0  0  0  0  0  0  0  0  0  0  0
    6.5856   -1.1250    0.0000 H   0  0  0  0  0  0  0  0  0  0  0  0
   10.1928    5.9576    0.0000 H   0  0  0  0  0  0  0  0  0  0  0  0
    9.3957    5.9576    0.0000 H   0  0  0  0  0  0  0  0  0  0  0  0
    8.2742   -1.0999    0.0000 H   0  0  0  0  0  0  0  0  0  0  0  0
    8.6728   -0.4097    0.0000 H   0  0  0  0  0  0  0  0  0  0  0  0
    7.8501    1.0653    0.0000 H   0  0  0  0  0  0  0  0  0  0  0  0
    7.4516    0.3750    0.0000 H   0  0  0  0  0  0  0  0  0  0  0  0
   10.3312    2.1727    0.0000 H   0  0  0  0  0  0  0  0  0  0  0  0
    9.1403    0.4001    0.0000 H   0  0  0  0  0  0  0  0  0  0  0  0
    9.5388    1.0903    0.0000 H   0  0  0  0  0  0  0  0  0  0  0  0
   11.5470    2.8280    0.0000 H   0  0  0  0  0  0  0  0  0  0  0  0
   11.5470    6.1373    0.0000 H   0  0  0  0  0  0  0  0  0  0  0  0
   12.9960    3.6498    0.0000 H   0  0  0  0  0  0  0  0  0  0  0  0
   12.9960    5.3156    0.0000 H   0  0  0  0  0  0  0  0  0  0  0  0
    2.8660   -2.8973    0.0000 H   0  0  0  0  0  0  0  0  0  0  0  0
    1.4631   -3.7073    0.0000 H   0  0  0  0  0  0  0  0  0  0  0  0
    2.8660   -6.1373    0.0000 H   0  0  0  0  0  0  0  0  0  0  0  0
    1.4631   -5.3273    0.0000 H   0  0  0  0  0  0  0  0  0  0  0  0
  1 21  2  0  0  0  0
  2  7  1  0  0  0  0
  2  8  1  0  0  0  0
  2 10  1  0  0  0  0
  3 11  1  0  0  0  0
  3 12  1  0  0  0  0
  3 23  1  0  0  0  0
  4  6  1  0  0  0  0
  4 21  1  0  0  0  0
  4 54  1  0  0  0  0
  5 23  1  0  0  0  0
  5 29  2  0  0  0  0
  6  9  1  0  0  0  0
  6 14  1  0  0  0  0
  6 31  1  0  0  0  0
  7 11  1  0  0  0  0
  7 32  1  0  0  0  0
  7 33  1  0  0  0  0
  8 12  1  0  0  0  0
  8 34  1  0  0  0  0
  8 35  1  0  0  0  0
  9 13  1  0  0  0  0
  9 36  1  0  0  0  0
  9 37  1  0  0  0  0
 10 15  1  0  0  0  0
 10 38  1  0  0  0  0
 10 39  1  0  0  0  0
 11 40  1  0  0  0  0
 11 41  1  0  0  0  0
 12 42  1  0  0  0  0
 12 43  1  0  0  0  0
 13 16  1  0  0  0  0
 13 44  1  0  0  0  0
 13 45  1  0  0  0  0
 14 17  1  0  0  0  0
 14 22  2  0  0  0  0
 15 18  1  0  0  0  0
 15 46  1  0  0  0  0
 15 47  1  0  0  0  0
 16 17  1  0  0  0  0
 16 48  1  0  0  0  0
 16 49  1  0  0  0  0
 17 24  2  0  0  0  0
 18 19  1  0  0  0  0
 18 50  1  0  0  0  0
 18 51  1  0  0  0  0
 19 20  1  0  0  0  0
 19 52  1  0  0  0  0
 19 53  1  0  0  0  0
 20 21  1  0  0  0  0
 20 55  1  0  0  0  0
 20 56  1  0  0  0  0
 22 25  1  0  0  0  0
 22 57  1  0  0  0  0
 23 27  2  0  0  0  0
 24 26  1  0  0  0  0
 24 58  1  0  0  0  0
 25 26  2  0  0  0  0
 25 59  1  0  0  0  0
 26 60  1  0  0  0  0
 27 28  1  0  0  0  0
 27 61  1  0  0  0  0
 28 30  2  0  0  0  0
 28 62  1  0  0  0  0
 29 30  1  0  0  0  0
 29 63  1  0  0  0  0
 30 64  1  0  0  0  0
M  END
> <PUBCHEM_COMPOUND_CID>
24768525

> <PUBCHEM_COMPOUND_CANONICALIZED>
1

> <PUBCHEM_CACTVS_COMPLEXITY>
519

> <PUBCHEM_CACTVS_HBOND_ACCEPTOR>
4

> <PUBCHEM_CACTVS_HBOND_DONOR>
1

> <PUBCHEM_CACTVS_ROTATABLE_BOND>
8

> <PUBCHEM_CACTVS_SUBSKEYS>
AAADcfB7oAAAAAAAAAAAAAAAAAAAAAAAAAA8eIEAAAAAAADBwAAAHgAQAAAADCjBmgQ9sJPIEACoAjN3dACCgCkxAiAJ2KE4ZJiIYPLAmZGUIAholgLIyCcYiIAOgAAAAAAQAAAAAACAACQAAAAAAAAAAA==

> <PUBCHEM_IUPAC_OPENEYE_NAME>
6-[4-(2-pyridyl)piperazin-1-yl]-N-tetralin-1-yl-hexanamide

> <PUBCHEM_IUPAC_CAS_NAME>
6-[4-(2-pyridinyl)-1-piperazinyl]-N-(1,2,3,4-tetrahydronaphthalen-1-yl)hexanamide

> <PUBCHEM_IUPAC_NAME_MARKUP>
6-(4-pyridin-2-ylpiperazin-1-yl)-<I>N</I>-(1,2,3,4-tetrahydronaphthalen-1-yl)hexanamide

> <PUBCHEM_IUPAC_NAME>
6-(4-pyridin-2-ylpiperazin-1-yl)-N-(1,2,3,4-tetrahydronaphthalen-1-yl)hexanamide

> <PUBCHEM_IUPAC_SYSTEMATIC_NAME>
6-(4-pyridin-2-ylpiperazin-1-yl)-N-(1,2,3,4-tetrahydronaphthalen-1-yl)hexanamide

> <PUBCHEM_IUPAC_TRADITIONAL_NAME>
6-[4-(2-pyridyl)piperazino]-N-tetralin-1-yl-hexanamide

> <PUBCHEM_IUPAC_INCHI>
InChI=1S/C25H34N4O/c30-25(27-23-12-8-10-21-9-3-4-11-22(21)23)14-2-1-7-16-28-17-19-29(20-18-28)24-13-5-6-15-26-24/h3-6,9,11,13,15,23H,1-2,7-8,10,12,14,16-20H2,(H,27,30)

> <PUBCHEM_IUPAC_INCHIKEY>
XJYAXSYLDGSUII-UHFFFAOYSA-N

> <PUBCHEM_XLOGP3_AA>
3.7

> <PUBCHEM_EXACT_MASS>
406.27326172

> <PUBCHEM_MOLECULAR_FORMULA>
C25H34N4O

> <PUBCHEM_MOLECULAR_WEIGHT>
406.6

> <PUBCHEM_OPENEYE_CAN_SMILES>
C1CC(C2=CC=CC=C2C1)NC(=O)CCCCCN3CCN(CC3)C4=CC=CC=N4

> <PUBCHEM_OPENEYE_ISO_SMILES>
C1CC(C2=CC=CC=C2C1)NC(=O)CCCCCN3CCN(CC3)C4=CC=CC=N4

> <PUBCHEM_CACTVS_TPSA>
48.5

> <PUBCHEM_MONOISOTOPIC_WEIGHT>
406.27326172

> <PUBCHEM_TOTAL_CHARGE>
0

> <PUBCHEM_HEAVY_ATOM_COUNT>
30

> <PUBCHEM_ATOM_DEF_STEREO_COUNT>
0

> <PUBCHEM_ATOM_UDEF_STEREO_COUNT>
1

> <PUBCHEM_BOND_DEF_STEREO_COUNT>
0

> <PUBCHEM_BOND_UDEF_STEREO_COUNT>
0

> <PUBCHEM_ISOTOPIC_ATOM_COUNT>
0

> <PUBCHEM_COMPONENT_COUNT>
1

> <PUBCHEM_CACTVS_TAUTO_COUNT>
-1

> <PUBCHEM_COORDINATE_TYPE>
1
5
255

> <PUBCHEM_BONDANNOTATIONS>
14  17  8
14  22  8
17  24  8
22  25  8
23  27  8
24  26  8
25  26  8
27  28  8
28  30  8
29  30  8
6  4  3
5  23  8
5  29  8

$$$$
