45262363
  -OEChem-09292322122D

 77 80  0     1  0  0  0  0  0999 V2000
    8.6244    0.0000    0.0000 Cl  0  0  0  0  0  0  0  0  0  0  0  0
   16.8427    6.1746    0.0000 S   0  0  0  0  0  0  0  0  0  0  0  0
    5.6200    3.0490    0.0000 O   0  0  0  0  0  0  0  0  0  0  0  0
   15.9747    6.6713    0.0000 O   0  0  0  0  0  0  0  0  0  0  0  0
   17.3393    7.0426    0.0000 O   0  0  0  0  0  0  0  0  0  0  0  0
   16.3460    5.3067    0.0000 O   0  0  0  0  0  0  0  0  0  0  0  0
   11.1200    5.6471    0.0000 N   0  0  3  0  0  0  0  0  0  0  0  0
    5.6200    4.7811    0.0000 N   0  0  0  0  0  0  0  0  0  0  0  0
    2.6200    6.5131    0.0000 N   0  0  0  0  0  0  0  0  0  0  0  0
    1.1200    5.6471    0.0000 N   0  0  0  0  0  0  0  0  0  0  0  0
    8.6200    4.7811    0.0000 C   0  0  0  0  0  0  0  0  0  0  0  0
    8.1200    3.9151    0.0000 C   0  0  0  0  0  0  0  0  0  0  0  0
    8.1200    5.6471    0.0000 C   0  0  0  0  0  0  0  0  0  0  0  0
    6.6200    4.7811    0.0000 C   0  0  0  0  0  0  0  0  0  0  0  0
    7.1200    3.9151    0.0000 C   0  0  0  0  0  0  0  0  0  0  0  0
    7.1200    5.6471    0.0000 C   0  0  0  0  0  0  0  0  0  0  0  0
    9.6200    4.7811    0.0000 C   0  0  0  0  0  0  0  0  0  0  0  0
   10.1200    5.6471    0.0000 C   0  0  0  0  0  0  0  0  0  0  0  0
   11.5539    6.5481    0.0000 C   0  0  0  0  0  0  0  0  0  0  0  0
   11.5539    4.7462    0.0000 C   0  0  0  0  0  0  0  0  0  0  0  0
   12.5288    6.7706    0.0000 C   0  0  0  0  0  0  0  0  0  0  0  0
   12.5288    4.5236    0.0000 C   0  0  0  0  0  0  0  0  0  0  0  0
   13.3106    6.1471    0.0000 C   0  0  0  0  0  0  0  0  0  0  0  0
   13.3106    5.1471    0.0000 C   0  0  0  0  0  0  0  0  0  0  0  0
    5.1200    3.9151    0.0000 C   0  0  0  0  0  0  0  0  0  0  0  0
   14.2046    6.6818    0.0000 C   0  0  0  0  0  0  0  0  0  0  0  0
   14.2046    4.6124    0.0000 C   0  0  0  0  0  0  0  0  0  0  0  0
    4.1200    3.9151    0.0000 C   0  0  0  0  0  0  0  0  0  0  0  0
   15.1107    6.1679    0.0000 C   0  0  0  0  0  0  0  0  0  0  0  0
   15.1107    5.1263    0.0000 C   0  0  0  0  0  0  0  0  0  0  0  0
    3.6200    4.7811    0.0000 C   0  0  0  0  0  0  0  0  0  0  0  0
    3.6200    3.0490    0.0000 C   0  0  0  0  0  0  0  0  0  0  0  0
    2.6200    4.7811    0.0000 C   0  0  0  0  0  0  0  0  0  0  0  0
    2.6200    3.0490    0.0000 C   0  0  0  0  0  0  0  0  0  0  0  0
    2.1200    3.9151    0.0000 C   0  0  0  0  0  0  0  0  0  0  0  0
    2.1200    5.6471    0.0000 C   0  0  0  0  0  0  0  0  0  0  0  0
   17.7106    5.6780    0.0000 C   0  0  0  0  0  0  0  0  0  0  0  0
    2.1200    7.3792    0.0000 C   0  0  0  0  0  0  0  0  0  0  0  0
    0.6200    6.5131    0.0000 C   0  0  0  0  0  0  0  0  0  0  0  0
    1.1200    7.3792    0.0000 C   0  0  0  0  0  0  0  0  0  0  0  0
    8.9300    4.2442    0.0000 H   0  0  0  0  0  0  0  0  0  0  0  0
    8.0123    3.3045    0.0000 H   0  0  0  0  0  0  0  0  0  0  0  0
    8.7026    3.7030    0.0000 H   0  0  0  0  0  0  0  0  0  0  0  0
    8.7026    5.8592    0.0000 H   0  0  0  0  0  0  0  0  0  0  0  0
    8.0123    6.2577    0.0000 H   0  0  0  0  0  0  0  0  0  0  0  0
    6.3100    4.2442    0.0000 H   0  0  0  0  0  0  0  0  0  0  0  0
    6.5374    3.7030    0.0000 H   0  0  0  0  0  0  0  0  0  0  0  0
    7.2277    3.3045    0.0000 H   0  0  0  0  0  0  0  0  0  0  0  0
    7.2277    6.2577    0.0000 H   0  0  0  0  0  0  0  0  0  0  0  0
    6.5374    5.8592    0.0000 H   0  0  0  0  0  0  0  0  0  0  0  0
    9.5123    4.1705    0.0000 H   0  0  0  0  0  0  0  0  0  0  0  0
   10.2026    4.5690    0.0000 H   0  0  0  0  0  0  0  0  0  0  0  0
   10.2277    6.2577    0.0000 H   0  0  0  0  0  0  0  0  0  0  0  0
    9.5374    5.8592    0.0000 H   0  0  0  0  0  0  0  0  0  0  0  0
    5.3100    5.3180    0.0000 H   0  0  0  0  0  0  0  0  0  0  0  0
   11.5539    7.1681    0.0000 H   0  0  0  0  0  0  0  0  0  0  0  0
   10.9494    6.6860    0.0000 H   0  0  0  0  0  0  0  0  0  0  0  0
   10.9494    4.6082    0.0000 H   0  0  0  0  0  0  0  0  0  0  0  0
   11.5539    4.1262    0.0000 H   0  0  0  0  0  0  0  0  0  0  0  0
   13.0135    7.1572    0.0000 H   0  0  0  0  0  0  0  0  0  0  0  0
   12.2598    7.3292    0.0000 H   0  0  0  0  0  0  0  0  0  0  0  0
   12.2598    3.9650    0.0000 H   0  0  0  0  0  0  0  0  0  0  0  0
   13.0135    4.1371    0.0000 H   0  0  0  0  0  0  0  0  0  0  0  0
   14.1974    7.3017    0.0000 H   0  0  0  0  0  0  0  0  0  0  0  0
   14.1974    3.9925    0.0000 H   0  0  0  0  0  0  0  0  0  0  0  0
   15.6464    4.8142    0.0000 H   0  0  0  0  0  0  0  0  0  0  0  0
    3.9300    5.3180    0.0000 H   0  0  0  0  0  0  0  0  0  0  0  0
    3.9300    2.5121    0.0000 H   0  0  0  0  0  0  0  0  0  0  0  0
    2.3100    2.5121    0.0000 H   0  0  0  0  0  0  0  0  0  0  0  0
    1.5000    3.9151    0.0000 H   0  0  0  0  0  0  0  0  0  0  0  0
   17.4027    5.1398    0.0000 H   0  0  0  0  0  0  0  0  0  0  0  0
   18.2488    5.3700    0.0000 H   0  0  0  0  0  0  0  0  0  0  0  0
   18.0186    6.2161    0.0000 H   0  0  0  0  0  0  0  0  0  0  0  0
    2.4300    7.9161    0.0000 H   0  0  0  0  0  0  0  0  0  0  0  0
    0.0000    6.5131    0.0000 H   0  0  0  0  0  0  0  0  0  0  0  0
    0.8100    7.9161    0.0000 H   0  0  0  0  0  0  0  0  0  0  0  0
    9.6244    0.0000    0.0000 H   0  0  0  0  0  0  0  0  0  0  0  0
  1 77  1  0  0  0  0
  2  4  1  0  0  0  0
  2  5  2  0  0  0  0
  2  6  2  0  0  0  0
  2 37  1  0  0  0  0
  3 25  2  0  0  0  0
  4 29  1  0  0  0  0
  7 18  1  0  0  0  0
  7 19  1  0  0  0  0
  7 20  1  0  0  0  0
  8 14  1  0  0  0  0
  8 25  1  0  0  0  0
  8 55  1  0  0  0  0
  9 36  2  0  0  0  0
  9 38  1  0  0  0  0
 10 36  1  0  0  0  0
 10 39  2  0  0  0  0
 11 12  1  0  0  0  0
 11 13  1  0  0  0  0
 11 17  1  0  0  0  0
 11 41  1  0  0  0  0
 12 15  1  0  0  0  0
 12 42  1  0  0  0  0
 12 43  1  0  0  0  0
 13 16  1  0  0  0  0
 13 44  1  0  0  0  0
 13 45  1  0  0  0  0
 14 15  1  0  0  0  0
 14 16  1  0  0  0  0
 14 46  1  0  0  0  0
 15 47  1  0  0  0  0
 15 48  1  0  0  0  0
 16 49  1  0  0  0  0
 16 50  1  0  0  0  0
 17 18  1  0  0  0  0
 17 51  1  0  0  0  0
 17 52  1  0  0  0  0
 18 53  1  0  0  0  0
 18 54  1  0  0  0  0
 19 21  1  0  0  0  0
 19 56  1  0  0  0  0
 19 57  1  0  0  0  0
 20 22  1  0  0  0  0
 20 58  1  0  0  0  0
 20 59  1  0  0  0  0
 21 23  1  0  0  0  0
 21 60  1  0  0  0  0
 21 61  1  0  0  0  0
 22 24  1  0  0  0  0
 22 62  1  0  0  0  0
 22 63  1  0  0  0  0
 23 24  2  0  0  0  0
 23 26  1  0  0  0  0
 24 27  1  0  0  0  0
 25 28  1  0  0  0  0
 26 29  2  0  0  0  0
 26 64  1  0  0  0  0
 27 30  2  0  0  0  0
 27 65  1  0  0  0  0
 28 31  1  0  0  0  0
 28 32  2  0  0  0  0
 29 30  1  0  0  0  0
 30 66  1  0  0  0  0
 31 33  2  0  0  0  0
 31 67  1  0  0  0  0
 32 34  1  0  0  0  0
 32 68  1  0  0  0  0
 33 35  1  0  0  0  0
 33 36  1  0  0  0  0
 34 35  2  0  0  0  0
 34 69  1  0  0  0  0
 35 70  1  0  0  0  0
 37 71  1  0  0  0  0
 37 72  1  0  0  0  0
 37 73  1  0  0  0  0
 38 40  2  0  0  0  0
 38 74  1  0  0  0  0
 39 40  1  0  0  0  0
 39 75  1  0  0  0  0
 40 76  1  0  0  0  0
M  END
> <PUBCHEM_COMPOUND_CID>
45262363

> <PUBCHEM_COMPOUND_CANONICALIZED>
1

> <PUBCHEM_CACTVS_COMPLEXITY>
882

> <PUBCHEM_CACTVS_HBOND_ACCEPTOR>
7

> <PUBCHEM_CACTVS_HBOND_DONOR>
2

> <PUBCHEM_CACTVS_ROTATABLE_BOND>
8

> <PUBCHEM_CACTVS_SUBSKEYS>
AAADcfB7uABEAAAAAAAAAAAAAAAAAAAAAAA8YMEABYAAAAAB0AAAHgQQAAAADSzBmwS/lpfIEAKoAjN3dHCCgCk1IqAJ2KE+bNiILrLA3VOENQhs1hPIiaeY2fKOoAADAAAQAABQAAYAACAAAAAAAAAAAA==

> <PUBCHEM_IUPAC_OPENEYE_NAME>
[3-[2-[4-[(3-pyrimidin-2-ylbenzoyl)amino]cyclohexyl]ethyl]-1,2,4,5-tetrahydro-3-benzazepin-7-yl] methanesulfonate;hydrochloride

> <PUBCHEM_IUPAC_CAS_NAME>
methanesulfonic acid [3-[2-[4-[[oxo-[3-(2-pyrimidinyl)phenyl]methyl]amino]cyclohexyl]ethyl]-1,2,4,5-tetrahydro-3-benzazepin-7-yl] ester;hydrochloride

> <PUBCHEM_IUPAC_NAME_MARKUP>
[3-[2-[4-[(3-pyrimidin-2-ylbenzoyl)amino]cyclohexyl]ethyl]-1,2,4,5-tetrahydro-3-benzazepin-7-yl] methanesulfonate;hydrochloride

> <PUBCHEM_IUPAC_NAME>
[3-[2-[4-[(3-pyrimidin-2-ylbenzoyl)amino]cyclohexyl]ethyl]-1,2,4,5-tetrahydro-3-benzazepin-7-yl] methanesulfonate;hydrochloride

> <PUBCHEM_IUPAC_SYSTEMATIC_NAME>
[3-[2-[4-[(3-pyrimidin-2-ylphenyl)carbonylamino]cyclohexyl]ethyl]-1,2,4,5-tetrahydro-3-benzazepin-7-yl] methanesulfonate;hydrochloride

> <PUBCHEM_IUPAC_TRADITIONAL_NAME>
methanesulfonic acid [3-[2-[4-[[3-(2-pyrimidyl)benzoyl]amino]cyclohexyl]ethyl]-1,2,4,5-tetrahydro-3-benzazepin-7-yl] ester;hydrochloride

> <PUBCHEM_IUPAC_INCHI>
InChI=1S/C30H36N4O4S.ClH/c1-39(36,37)38-28-11-8-23-13-18-34(19-14-24(23)21-28)17-12-22-6-9-27(10-7-22)33-30(35)26-5-2-4-25(20-26)29-31-15-3-16-32-29;/h2-5,8,11,15-16,20-22,27H,6-7,9-10,12-14,17-19H2,1H3,(H,33,35);1H

> <PUBCHEM_IUPAC_INCHIKEY>
JBMNHDAWGJRPEB-UHFFFAOYSA-N

> <PUBCHEM_EXACT_MASS>
584.2224045

> <PUBCHEM_MOLECULAR_FORMULA>
C30H37ClN4O4S

> <PUBCHEM_MOLECULAR_WEIGHT>
585.2

> <PUBCHEM_OPENEYE_CAN_SMILES>
CS(=O)(=O)OC1=CC2=C(CCN(CC2)CCC3CCC(CC3)NC(=O)C4=CC=CC(=C4)C5=NC=CC=N5)C=C1.Cl

> <PUBCHEM_OPENEYE_ISO_SMILES>
CS(=O)(=O)OC1=CC2=C(CCN(CC2)CCC3CCC(CC3)NC(=O)C4=CC=CC(=C4)C5=NC=CC=N5)C=C1.Cl

> <PUBCHEM_CACTVS_TPSA>
110

> <PUBCHEM_MONOISOTOPIC_WEIGHT>
584.2224045

> <PUBCHEM_TOTAL_CHARGE>
0

> <PUBCHEM_HEAVY_ATOM_COUNT>
40

> <PUBCHEM_ATOM_DEF_STEREO_COUNT>
0

> <PUBCHEM_ATOM_UDEF_STEREO_COUNT>
0

> <PUBCHEM_BOND_DEF_STEREO_COUNT>
0

> <PUBCHEM_BOND_UDEF_STEREO_COUNT>
0

> <PUBCHEM_ISOTOPIC_ATOM_COUNT>
0

> <PUBCHEM_COMPONENT_COUNT>
2

> <PUBCHEM_CACTVS_TAUTO_COUNT>
-1

> <PUBCHEM_COORDINATE_TYPE>
1
5
255

> <PUBCHEM_BONDANNOTATIONS>
10  36  8
10  39  8
23  24  8
23  26  8
24  27  8
26  29  8
27  30  8
28  31  8
28  32  8
29  30  8
31  33  8
32  34  8
33  35  8
34  35  8
38  40  8
39  40  8
9  36  8
9  38  8

$$$$
