163196369
  -OEChem-09292322062D

 58 61  0     1  0  0  0  0  0999 V2000
    4.5981    0.5427    0.0000 N   0  0  3  0  0  0  0  0  0  0  0  0
    5.4641    3.0427    0.0000 N   0  0  0  0  0  0  0  0  0  0  0  0
    4.6420   -1.4642    0.0000 N   0  0  0  0  0  0  0  0  0  0  0  0
    8.0901    1.5080    0.0000 N   0  0  0  0  0  0  0  0  0  0  0  0
    7.1962   -2.9573    0.0000 N   0  0  0  0  0  0  0  0  0  0  0  0
    3.7320    0.0427    0.0000 C   0  0  1  0  0  0  0  0  0  0  0  0
    4.5981    1.5427    0.0000 C   0  0  0  0  0  0  0  0  0  0  0  0
    2.8660    0.5427    0.0000 C   0  0  0  0  0  0  0  0  0  0  0  0
    5.4641    2.0427    0.0000 C   0  0  1  0  0  0  0  0  0  0  0  0
    2.0000    0.0427    0.0000 C   0  0  0  0  0  0  0  0  0  0  0  0
    3.7320   -0.9573    0.0000 C   0  0  0  0  0  0  0  0  0  0  0  0
    5.4641    0.0427    0.0000 C   0  0  0  0  0  0  0  0  0  0  0  0
    2.0000   -0.9573    0.0000 C   0  0  0  0  0  0  0  0  0  0  0  0
    6.3301    1.5427    0.0000 C   0  0  0  0  0  0  0  0  0  0  0  0
    2.8660   -1.4573    0.0000 C   0  0  0  0  0  0  0  0  0  0  0  0
    5.4641   -0.9573    0.0000 C   0  0  0  0  0  0  0  0  0  0  0  0
    6.3301    3.5427    0.0000 C   0  0  0  0  0  0  0  0  0  0  0  0
    7.1962    2.0427    0.0000 C   0  0  0  0  0  0  0  0  0  0  0  0
    7.1962    3.0427    0.0000 C   0  0  0  0  0  0  0  0  0  0  0  0
    6.3301   -1.4573    0.0000 C   0  0  0  0  0  0  0  0  0  0  0  0
    2.8500   -2.4988    0.0000 C   0  0  0  0  0  0  0  0  0  0  0  0
    3.7480   -3.0266    0.0000 C   0  0  0  0  0  0  0  0  0  0  0  0
    8.0901    3.5773    0.0000 C   0  0  0  0  0  0  0  0  0  0  0  0
    4.6501   -2.5058    0.0000 C   0  0  0  0  0  0  0  0  0  0  0  0
    6.3301   -2.4573    0.0000 C   0  0  0  0  0  0  0  0  0  0  0  0
    8.9962    3.0635    0.0000 C   0  0  0  0  0  0  0  0  0  0  0  0
    8.9962    2.0218    0.0000 C   0  0  0  0  0  0  0  0  0  0  0  0
    3.7320    0.6627    0.0000 H   0  0  0  0  0  0  0  0  0  0  0  0
    4.3860    2.1253    0.0000 H   0  0  0  0  0  0  0  0  0  0  0  0
    3.9875    1.4350    0.0000 H   0  0  0  0  0  0  0  0  0  0  0  0
    3.2646    1.0176    0.0000 H   0  0  0  0  0  0  0  0  0  0  0  0
    2.4675    1.0176    0.0000 H   0  0  0  0  0  0  0  0  0  0  0  0
    4.9272    2.3527    0.0000 H   0  0  0  0  0  0  0  0  0  0  0  0
    1.7880    0.6253    0.0000 H   0  0  0  0  0  0  0  0  0  0  0  0
    1.3894   -0.0650    0.0000 H   0  0  0  0  0  0  0  0  0  0  0  0
    6.0747   -0.0650    0.0000 H   0  0  0  0  0  0  0  0  0  0  0  0
    5.6762    0.6253    0.0000 H   0  0  0  0  0  0  0  0  0  0  0  0
    1.3894   -0.8497    0.0000 H   0  0  0  0  0  0  0  0  0  0  0  0
    1.7880   -1.5399    0.0000 H   0  0  0  0  0  0  0  0  0  0  0  0
    5.9316    1.0677    0.0000 H   0  0  0  0  0  0  0  0  0  0  0  0
    6.7287    1.0677    0.0000 H   0  0  0  0  0  0  0  0  0  0  0  0
    4.9272    3.3527    0.0000 H   0  0  0  0  0  0  0  0  0  0  0  0
    4.8535   -0.8497    0.0000 H   0  0  0  0  0  0  0  0  0  0  0  0
    5.2520   -1.5399    0.0000 H   0  0  0  0  0  0  0  0  0  0  0  0
    6.7287    4.0176    0.0000 H   0  0  0  0  0  0  0  0  0  0  0  0
    5.9316    4.0176    0.0000 H   0  0  0  0  0  0  0  0  0  0  0  0
    6.9407   -1.5650    0.0000 H   0  0  0  0  0  0  0  0  0  0  0  0
    6.5422   -0.8747    0.0000 H   0  0  0  0  0  0  0  0  0  0  0  0
    2.3095   -2.8026    0.0000 H   0  0  0  0  0  0  0  0  0  0  0  0
    3.7456   -3.6466    0.0000 H   0  0  0  0  0  0  0  0  0  0  0  0
    8.0829    4.1973    0.0000 H   0  0  0  0  0  0  0  0  0  0  0  0
    5.1882   -2.8137    0.0000 H   0  0  0  0  0  0  0  0  0  0  0  0
    5.7196   -2.3497    0.0000 H   0  0  0  0  0  0  0  0  0  0  0  0
    6.1181   -3.0399    0.0000 H   0  0  0  0  0  0  0  0  0  0  0  0
    9.5319    3.3756    0.0000 H   0  0  0  0  0  0  0  0  0  0  0  0
    9.5319    1.7098    0.0000 H   0  0  0  0  0  0  0  0  0  0  0  0
    7.1962   -3.5773    0.0000 H   0  0  0  0  0  0  0  0  0  0  0  0
    7.7331   -2.6473    0.0000 H   0  0  0  0  0  0  0  0  0  0  0  0
  6  1  1  6  0  0  0
  1  7  1  0  0  0  0
  1 12  1  0  0  0  0
  2  9  1  0  0  0  0
  2 17  1  0  0  0  0
  2 42  1  0  0  0  0
  3 11  1  0  0  0  0
  3 24  2  0  0  0  0
  4 18  1  0  0  0  0
  4 27  2  0  0  0  0
  5 25  1  0  0  0  0
  5 57  1  0  0  0  0
  5 58  1  0  0  0  0
  6  8  1  0  0  0  0
  6 11  1  0  0  0  0
  6 28  1  0  0  0  0
  9  7  1  6  0  0  0
  7 29  1  0  0  0  0
  7 30  1  0  0  0  0
  8 10  1  0  0  0  0
  8 31  1  0  0  0  0
  8 32  1  0  0  0  0
  9 14  1  0  0  0  0
  9 33  1  0  0  0  0
 10 13  1  0  0  0  0
 10 34  1  0  0  0  0
 10 35  1  0  0  0  0
 11 15  2  0  0  0  0
 12 16  1  0  0  0  0
 12 36  1  0  0  0  0
 12 37  1  0  0  0  0
 13 15  1  0  0  0  0
 13 38  1  0  0  0  0
 13 39  1  0  0  0  0
 14 18  1  0  0  0  0
 14 40  1  0  0  0  0
 14 41  1  0  0  0  0
 15 21  1  0  0  0  0
 16 20  1  0  0  0  0
 16 43  1  0  0  0  0
 16 44  1  0  0  0  0
 17 19  1  0  0  0  0
 17 45  1  0  0  0  0
 17 46  1  0  0  0  0
 18 19  2  0  0  0  0
 19 23  1  0  0  0  0
 20 25  1  0  0  0  0
 20 47  1  0  0  0  0
 20 48  1  0  0  0  0
 21 22  2  0  0  0  0
 21 49  1  0  0  0  0
 22 24  1  0  0  0  0
 22 50  1  0  0  0  0
 23 26  2  0  0  0  0
 23 51  1  0  0  0  0
 24 52  1  0  0  0  0
 25 53  1  0  0  0  0
 25 54  1  0  0  0  0
 26 27  1  0  0  0  0
 26 55  1  0  0  0  0
 27 56  1  0  0  0  0
M  END
> <PUBCHEM_COMPOUND_CID>
163196369

> <PUBCHEM_COMPOUND_CANONICALIZED>
1

> <PUBCHEM_CACTVS_COMPLEXITY>
444

> <PUBCHEM_CACTVS_HBOND_ACCEPTOR>
5

> <PUBCHEM_CACTVS_HBOND_DONOR>
2

> <PUBCHEM_CACTVS_ROTATABLE_BOND>
7

> <PUBCHEM_CACTVS_SUBSKEYS>
AAADceB7gAAAAAAAAAAAAAAAAAAAAAAAAAA8WLEAAAAAAACx4AAAHAAQAAAADCjBHgQ8gJPIEACgAzRnRACCgCAxAiAI2KA4ZJgIYOLA0ZGUIAhgkADIyAcQgIAOAAAAAAAAAAAAAACAAAQAQAAAAAAAAA==

> <PUBCHEM_IUPAC_OPENEYE_NAME>
N'-[[(7R)-5,6,7,8-tetrahydro-1,6-naphthyridin-7-yl]methyl]-N'-[(8S)-5,6,7,8-tetrahydroquinolin-8-yl]butane-1,4-diamine

> <PUBCHEM_IUPAC_CAS_NAME>
N'-[[(7R)-5,6,7,8-tetrahydro-1,6-naphthyridin-7-yl]methyl]-N'-[(8S)-5,6,7,8-tetrahydroquinolin-8-yl]butane-1,4-diamine

> <PUBCHEM_IUPAC_NAME_MARKUP>
<I>N</I>&apos;-[[(7<I>R</I>)-5,6,7,8-tetrahydro-1,6-naphthyridin-7-yl]methyl]-<I>N</I>&apos;-[(8<I>S</I>)-5,6,7,8-tetrahydroquinolin-8-yl]butane-1,4-diamine

> <PUBCHEM_IUPAC_NAME>
N'-[[(7R)-5,6,7,8-tetrahydro-1,6-naphthyridin-7-yl]methyl]-N'-[(8S)-5,6,7,8-tetrahydroquinolin-8-yl]butane-1,4-diamine

> <PUBCHEM_IUPAC_SYSTEMATIC_NAME>
N'-[[(7R)-5,6,7,8-tetrahydro-1,6-naphthyridin-7-yl]methyl]-N'-[(8S)-5,6,7,8-tetrahydroquinolin-8-yl]butane-1,4-diamine

> <PUBCHEM_IUPAC_TRADITIONAL_NAME>
4-aminobutyl-[[(7R)-5,6,7,8-tetrahydro-1,6-naphthyridin-7-yl]methyl]-[(8S)-5,6,7,8-tetrahydroquinolin-8-yl]amine

> <PUBCHEM_IUPAC_INCHI>
InChI=1S/C22H31N5/c23-10-1-2-13-27(21-9-3-6-17-7-4-12-25-22(17)21)16-19-14-20-18(15-26-19)8-5-11-24-20/h4-5,7-8,11-12,19,21,26H,1-3,6,9-10,13-16,23H2/t19-,21+/m1/s1

> <PUBCHEM_IUPAC_INCHIKEY>
AJBIIZLEMNVANQ-CTNGQTDRSA-N

> <PUBCHEM_XLOGP3_AA>
1.4

> <PUBCHEM_EXACT_MASS>
365.25794601

> <PUBCHEM_MOLECULAR_FORMULA>
C22H31N5

> <PUBCHEM_MOLECULAR_WEIGHT>
365.5

> <PUBCHEM_OPENEYE_CAN_SMILES>
C1CC(C2=C(C1)C=CC=N2)N(CCCCN)CC3CC4=C(CN3)C=CC=N4

> <PUBCHEM_OPENEYE_ISO_SMILES>
C1C[C@@H](C2=C(C1)C=CC=N2)N(CCCCN)C[C@H]3CC4=C(CN3)C=CC=N4

> <PUBCHEM_CACTVS_TPSA>
67.1

> <PUBCHEM_MONOISOTOPIC_WEIGHT>
365.25794601

> <PUBCHEM_TOTAL_CHARGE>
0

> <PUBCHEM_HEAVY_ATOM_COUNT>
27

> <PUBCHEM_ATOM_DEF_STEREO_COUNT>
2

> <PUBCHEM_ATOM_UDEF_STEREO_COUNT>
0

> <PUBCHEM_BOND_DEF_STEREO_COUNT>
0

> <PUBCHEM_BOND_UDEF_STEREO_COUNT>
0

> <PUBCHEM_ISOTOPIC_ATOM_COUNT>
0

> <PUBCHEM_COMPONENT_COUNT>
1

> <PUBCHEM_CACTVS_TAUTO_COUNT>
-1

> <PUBCHEM_COORDINATE_TYPE>
1
5
255

> <PUBCHEM_BONDANNOTATIONS>
6  1  6
11  15  8
15  21  8
18  19  8
19  23  8
21  22  8
22  24  8
23  26  8
26  27  8
3  11  8
3  24  8
4  18  8
4  27  8
9  7  6

$$$$
