117869686
  -OEChem-09292322052D

 59 63  0     0  0  0  0  0  0999 V2000
    8.1301   -2.1364    0.0000 O   0  0  0  0  0  0  0  0  0  0  0  0
    4.6660    1.8636    0.0000 N   0  0  0  0  0  0  0  0  0  0  0  0
    4.6660    3.8636    0.0000 N   0  0  0  0  0  0  0  0  0  0  0  0
    5.5321    5.3636    0.0000 N   0  0  0  0  0  0  0  0  0  0  0  0
    6.3981   -2.1364    0.0000 N   0  0  0  0  0  0  0  0  0  0  0  0
    4.6660    6.8636    0.0000 N   0  0  0  0  0  0  0  0  0  0  0  0
    7.7641   -5.1662    0.0000 N   0  0  0  0  0  0  0  0  0  0  0  0
    6.4594   -4.2200    0.0000 N   0  0  0  0  0  0  0  0  0  0  0  0
    5.5321    2.3636    0.0000 C   0  0  0  0  0  0  0  0  0  0  0  0
    3.8000    2.3636    0.0000 C   0  0  0  0  0  0  0  0  0  0  0  0
    5.5321    3.3636    0.0000 C   0  0  0  0  0  0  0  0  0  0  0  0
    3.8000    3.3636    0.0000 C   0  0  0  0  0  0  0  0  0  0  0  0
    4.6660    0.8636    0.0000 C   0  0  0  0  0  0  0  0  0  0  0  0
    5.5321    0.3636    0.0000 C   0  0  0  0  0  0  0  0  0  0  0  0
    4.6660    4.8636    0.0000 C   0  0  0  0  0  0  0  0  0  0  0  0
    5.5321   -0.6364    0.0000 C   0  0  0  0  0  0  0  0  0  0  0  0
    6.3981   -1.1364    0.0000 C   0  0  0  0  0  0  0  0  0  0  0  0
    3.8000    5.3636    0.0000 C   0  0  0  0  0  0  0  0  0  0  0  0
    3.8000    6.3636    0.0000 C   0  0  0  0  0  0  0  0  0  0  0  0
    2.9061    4.8290    0.0000 C   0  0  0  0  0  0  0  0  0  0  0  0
    5.5321    6.3636    0.0000 C   0  0  0  0  0  0  0  0  0  0  0  0
    2.9061    6.8983    0.0000 C   0  0  0  0  0  0  0  0  0  0  0  0
    2.0000    5.3428    0.0000 C   0  0  0  0  0  0  0  0  0  0  0  0
    7.2641   -2.6364    0.0000 C   0  0  0  0  0  0  0  0  0  0  0  0
    2.0000    6.3844    0.0000 C   0  0  0  0  0  0  0  0  0  0  0  0
    7.2641   -3.6364    0.0000 C   0  0  0  0  0  0  0  0  0  0  0  0
    8.0688   -4.2200    0.0000 C   0  0  0  0  0  0  0  0  0  0  0  0
    6.7641   -5.1662    0.0000 C   0  0  0  0  0  0  0  0  0  0  0  0
    8.2641   -6.0322    0.0000 C   0  0  0  0  0  0  0  0  0  0  0  0
    6.2641   -6.0322    0.0000 C   0  0  0  0  0  0  0  0  0  0  0  0
    7.7641   -6.8983    0.0000 C   0  0  0  0  0  0  0  0  0  0  0  0
    6.7641   -6.8983    0.0000 C   0  0  0  0  0  0  0  0  0  0  0  0
    5.7441    1.7810    0.0000 H   0  0  0  0  0  0  0  0  0  0  0  0
    6.1426    2.4713    0.0000 H   0  0  0  0  0  0  0  0  0  0  0  0
    3.1894    2.4713    0.0000 H   0  0  0  0  0  0  0  0  0  0  0  0
    3.5880    1.7810    0.0000 H   0  0  0  0  0  0  0  0  0  0  0  0
    6.1426    3.2560    0.0000 H   0  0  0  0  0  0  0  0  0  0  0  0
    5.7441    3.9462    0.0000 H   0  0  0  0  0  0  0  0  0  0  0  0
    3.5880    3.9462    0.0000 H   0  0  0  0  0  0  0  0  0  0  0  0
    3.1894    3.2560    0.0000 H   0  0  0  0  0  0  0  0  0  0  0  0
    4.0555    0.9713    0.0000 H   0  0  0  0  0  0  0  0  0  0  0  0
    4.4540    0.2810    0.0000 H   0  0  0  0  0  0  0  0  0  0  0  0
    6.1426    0.2559    0.0000 H   0  0  0  0  0  0  0  0  0  0  0  0
    5.7441    0.9462    0.0000 H   0  0  0  0  0  0  0  0  0  0  0  0
    4.9215   -0.5287    0.0000 H   0  0  0  0  0  0  0  0  0  0  0  0
    5.3200   -1.2190    0.0000 H   0  0  0  0  0  0  0  0  0  0  0  0
    7.0087   -1.2441    0.0000 H   0  0  0  0  0  0  0  0  0  0  0  0
    6.6101   -0.5538    0.0000 H   0  0  0  0  0  0  0  0  0  0  0  0
    5.8612   -2.4464    0.0000 H   0  0  0  0  0  0  0  0  0  0  0  0
    2.9132    4.2090    0.0000 H   0  0  0  0  0  0  0  0  0  0  0  0
    6.0690    6.6736    0.0000 H   0  0  0  0  0  0  0  0  0  0  0  0
    2.9132    7.5182    0.0000 H   0  0  0  0  0  0  0  0  0  0  0  0
    1.4643    5.0307    0.0000 H   0  0  0  0  0  0  0  0  0  0  0  0
    1.4643    6.6965    0.0000 H   0  0  0  0  0  0  0  0  0  0  0  0
    8.6582   -4.0274    0.0000 H   0  0  0  0  0  0  0  0  0  0  0  0
    8.8841   -6.0322    0.0000 H   0  0  0  0  0  0  0  0  0  0  0  0
    5.6441   -6.0322    0.0000 H   0  0  0  0  0  0  0  0  0  0  0  0
    8.0741   -7.4352    0.0000 H   0  0  0  0  0  0  0  0  0  0  0  0
    6.4541   -7.4352    0.0000 H   0  0  0  0  0  0  0  0  0  0  0  0
  1 24  2  0  0  0  0
  2  9  1  0  0  0  0
  2 10  1  0  0  0  0
  2 13  1  0  0  0  0
  3 11  1  0  0  0  0
  3 12  1  0  0  0  0
  3 15  1  0  0  0  0
  4 15  2  0  0  0  0
  4 21  1  0  0  0  0
  5 17  1  0  0  0  0
  5 24  1  0  0  0  0
  5 49  1  0  0  0  0
  6 19  1  0  0  0  0
  6 21  2  0  0  0  0
  7 27  1  0  0  0  0
  7 28  1  0  0  0  0
  7 29  1  0  0  0  0
  8 26  1  0  0  0  0
  8 28  2  0  0  0  0
  9 11  1  0  0  0  0
  9 33  1  0  0  0  0
  9 34  1  0  0  0  0
 10 12  1  0  0  0  0
 10 35  1  0  0  0  0
 10 36  1  0  0  0  0
 11 37  1  0  0  0  0
 11 38  1  0  0  0  0
 12 39  1  0  0  0  0
 12 40  1  0  0  0  0
 13 14  1  0  0  0  0
 13 41  1  0  0  0  0
 13 42  1  0  0  0  0
 14 16  1  0  0  0  0
 14 43  1  0  0  0  0
 14 44  1  0  0  0  0
 15 18  1  0  0  0  0
 16 17  1  0  0  0  0
 16 45  1  0  0  0  0
 16 46  1  0  0  0  0
 17 47  1  0  0  0  0
 17 48  1  0  0  0  0
 18 19  1  0  0  0  0
 18 20  2  0  0  0  0
 19 22  2  0  0  0  0
 20 23  1  0  0  0  0
 20 50  1  0  0  0  0
 21 51  1  0  0  0  0
 22 25  1  0  0  0  0
 22 52  1  0  0  0  0
 23 25  2  0  0  0  0
 23 53  1  0  0  0  0
 24 26  1  0  0  0  0
 25 54  1  0  0  0  0
 26 27  2  0  0  0  0
 27 55  1  0  0  0  0
 28 30  1  0  0  0  0
 29 31  2  0  0  0  0
 29 56  1  0  0  0  0
 30 32  2  0  0  0  0
 30 57  1  0  0  0  0
 31 32  1  0  0  0  0
 31 58  1  0  0  0  0
 32 59  1  0  0  0  0
M  END
> <PUBCHEM_COMPOUND_CID>
117869686

> <PUBCHEM_COMPOUND_CANONICALIZED>
1

> <PUBCHEM_CACTVS_COMPLEXITY>
611

> <PUBCHEM_CACTVS_HBOND_ACCEPTOR>
6

> <PUBCHEM_CACTVS_HBOND_DONOR>
1

> <PUBCHEM_CACTVS_ROTATABLE_BOND>
7

> <PUBCHEM_CACTVS_SUBSKEYS>
AAADceB7oAAAAAAAAAAAAAAAAAAAAWAAAAA8WLEAAAAAAFix/gAAHgAQAAAADAjBnwQ98P/MGACoAzd3dACCgC03EqAJ2KG4dNiIaOrA2fGUJIholgLIyOcQgAAOAAAAAAACAAAAAAAAAAQAAAAAAAAAAA==

> <PUBCHEM_IUPAC_OPENEYE_NAME>
N-[4-(4-quinazolin-4-ylpiperazin-1-yl)butyl]imidazo[1,2-a]pyridine-2-carboxamide

> <PUBCHEM_IUPAC_CAS_NAME>
N-[4-[4-(4-quinazolinyl)-1-piperazinyl]butyl]-2-imidazo[1,2-a]pyridinecarboxamide

> <PUBCHEM_IUPAC_NAME_MARKUP>
<I>N</I>-[4-(4-quinazolin-4-ylpiperazin-1-yl)butyl]imidazo[1,2-a]pyridine-2-carboxamide

> <PUBCHEM_IUPAC_NAME>
N-[4-(4-quinazolin-4-ylpiperazin-1-yl)butyl]imidazo[1,2-a]pyridine-2-carboxamide

> <PUBCHEM_IUPAC_SYSTEMATIC_NAME>
N-[4-(4-quinazolin-4-ylpiperazin-1-yl)butyl]imidazo[1,2-a]pyridine-2-carboxamide

> <PUBCHEM_IUPAC_TRADITIONAL_NAME>
N-[4-(4-quinazolin-4-ylpiperazino)butyl]imidazo[1,2-a]pyridine-2-carboxamide

> <PUBCHEM_IUPAC_INCHI>
InChI=1S/C24H27N7O/c32-24(21-17-31-12-5-3-9-22(31)28-21)25-10-4-6-11-29-13-15-30(16-14-29)23-19-7-1-2-8-20(19)26-18-27-23/h1-3,5,7-9,12,17-18H,4,6,10-11,13-16H2,(H,25,32)

> <PUBCHEM_IUPAC_INCHIKEY>
HISGEOZMKTZBBP-UHFFFAOYSA-N

> <PUBCHEM_XLOGP3_AA>
3.7

> <PUBCHEM_EXACT_MASS>
429.22770851

> <PUBCHEM_MOLECULAR_FORMULA>
C24H27N7O

> <PUBCHEM_MOLECULAR_WEIGHT>
429.5

> <PUBCHEM_OPENEYE_CAN_SMILES>
C1CN(CCN1CCCCNC(=O)C2=CN3C=CC=CC3=N2)C4=NC=NC5=CC=CC=C54

> <PUBCHEM_OPENEYE_ISO_SMILES>
C1CN(CCN1CCCCNC(=O)C2=CN3C=CC=CC3=N2)C4=NC=NC5=CC=CC=C54

> <PUBCHEM_CACTVS_TPSA>
78.7

> <PUBCHEM_MONOISOTOPIC_WEIGHT>
429.22770851

> <PUBCHEM_TOTAL_CHARGE>
0

> <PUBCHEM_HEAVY_ATOM_COUNT>
32

> <PUBCHEM_ATOM_DEF_STEREO_COUNT>
0

> <PUBCHEM_ATOM_UDEF_STEREO_COUNT>
0

> <PUBCHEM_BOND_DEF_STEREO_COUNT>
0

> <PUBCHEM_BOND_UDEF_STEREO_COUNT>
0

> <PUBCHEM_ISOTOPIC_ATOM_COUNT>
0

> <PUBCHEM_COMPONENT_COUNT>
1

> <PUBCHEM_CACTVS_TAUTO_COUNT>
-1

> <PUBCHEM_COORDINATE_TYPE>
1
5
255

> <PUBCHEM_BONDANNOTATIONS>
15  18  8
18  19  8
18  20  8
19  22  8
20  23  8
22  25  8
23  25  8
26  27  8
28  30  8
29  31  8
30  32  8
31  32  8
4  15  8
4  21  8
6  19  8
6  21  8
7  27  8
7  28  8
7  29  8
8  26  8
8  28  8

$$$$
