56597939
  -OEChem-09292321592D

 49 52  0     0  0  0  0  0  0999 V2000
    3.7320    0.5000    0.0000 Cl  0  0  0  0  0  0  0  0  0  0  0  0
    2.0000   -0.5000    0.0000 Cl  0  0  0  0  0  0  0  0  0  0  0  0
   10.6603    0.5000    0.0000 O   0  0  0  0  0  0  0  0  0  0  0  0
    7.1962    0.5000    0.0000 N   0  0  0  0  0  0  0  0  0  0  0  0
    5.4641   -0.5000    0.0000 N   0  0  0  0  0  0  0  0  0  0  0  0
   14.2045    0.6953    0.0000 N   0  0  0  0  0  0  0  0  0  0  0  0
   14.7882    1.5000    0.0000 N   0  0  0  0  0  0  0  0  0  0  0  0
    7.1962   -0.5000    0.0000 C   0  0  0  0  0  0  0  0  0  0  0  0
    6.3301    1.0000    0.0000 C   0  0  0  0  0  0  0  0  0  0  0  0
    6.3301   -1.0000    0.0000 C   0  0  0  0  0  0  0  0  0  0  0  0
    5.4641    0.5000    0.0000 C   0  0  0  0  0  0  0  0  0  0  0  0
    8.0622    1.0000    0.0000 C   0  0  0  0  0  0  0  0  0  0  0  0
    8.9282    0.5000    0.0000 C   0  0  0  0  0  0  0  0  0  0  0  0
    4.5981   -1.0000    0.0000 C   0  0  0  0  0  0  0  0  0  0  0  0
    9.7942    1.0000    0.0000 C   0  0  0  0  0  0  0  0  0  0  0  0
    3.7320   -0.5000    0.0000 C   0  0  0  0  0  0  0  0  0  0  0  0
    4.5981   -2.0000    0.0000 C   0  0  0  0  0  0  0  0  0  0  0  0
    2.8660   -1.0000    0.0000 C   0  0  0  0  0  0  0  0  0  0  0  0
    3.7320   -2.5000    0.0000 C   0  0  0  0  0  0  0  0  0  0  0  0
    2.8660   -2.0000    0.0000 C   0  0  0  0  0  0  0  0  0  0  0  0
   11.5263    1.0000    0.0000 C   0  0  0  0  0  0  0  0  0  0  0  0
   12.3923    0.5000    0.0000 C   0  0  0  0  0  0  0  0  0  0  0  0
   13.2583    1.0000    0.0000 C   0  0  0  0  0  0  0  0  0  0  0  0
   11.5263    2.0000    0.0000 C   0  0  0  0  0  0  0  0  0  0  0  0
   13.2583    2.0000    0.0000 C   0  0  0  0  0  0  0  0  0  0  0  0
   12.3923    2.5000    0.0000 C   0  0  0  0  0  0  0  0  0  0  0  0
   14.2045    2.3047    0.0000 C   0  0  0  0  0  0  0  0  0  0  0  0
    7.4082   -1.0826    0.0000 H   0  0  0  0  0  0  0  0  0  0  0  0
    7.8067   -0.3923    0.0000 H   0  0  0  0  0  0  0  0  0  0  0  0
    6.7287    1.4750    0.0000 H   0  0  0  0  0  0  0  0  0  0  0  0
    5.9316    1.4750    0.0000 H   0  0  0  0  0  0  0  0  0  0  0  0
    5.9316   -1.4750    0.0000 H   0  0  0  0  0  0  0  0  0  0  0  0
    6.7287   -1.4750    0.0000 H   0  0  0  0  0  0  0  0  0  0  0  0
    5.2520    1.0826    0.0000 H   0  0  0  0  0  0  0  0  0  0  0  0
    4.8535    0.3923    0.0000 H   0  0  0  0  0  0  0  0  0  0  0  0
    8.4607    1.4750    0.0000 H   0  0  0  0  0  0  0  0  0  0  0  0
    7.6636    1.4750    0.0000 H   0  0  0  0  0  0  0  0  0  0  0  0
    8.5297    0.0251    0.0000 H   0  0  0  0  0  0  0  0  0  0  0  0
    9.3267    0.0251    0.0000 H   0  0  0  0  0  0  0  0  0  0  0  0
   10.1928    1.4750    0.0000 H   0  0  0  0  0  0  0  0  0  0  0  0
    9.3957    1.4750    0.0000 H   0  0  0  0  0  0  0  0  0  0  0  0
    5.1350   -2.3100    0.0000 H   0  0  0  0  0  0  0  0  0  0  0  0
    3.7320   -3.1200    0.0000 H   0  0  0  0  0  0  0  0  0  0  0  0
    2.3291   -2.3100    0.0000 H   0  0  0  0  0  0  0  0  0  0  0  0
   12.3923   -0.1200    0.0000 H   0  0  0  0  0  0  0  0  0  0  0  0
   10.9893    2.3100    0.0000 H   0  0  0  0  0  0  0  0  0  0  0  0
   12.3923    3.1200    0.0000 H   0  0  0  0  0  0  0  0  0  0  0  0
   14.3972    0.1059    0.0000 H   0  0  0  0  0  0  0  0  0  0  0  0
   14.3972    2.8940    0.0000 H   0  0  0  0  0  0  0  0  0  0  0  0
  1 16  1  0  0  0  0
  2 18  1  0  0  0  0
  3 15  1  0  0  0  0
  3 21  1  0  0  0  0
  4  8  1  0  0  0  0
  4  9  1  0  0  0  0
  4 12  1  0  0  0  0
  5 10  1  0  0  0  0
  5 11  1  0  0  0  0
  5 14  1  0  0  0  0
  6  7  1  0  0  0  0
  6 23  1  0  0  0  0
  6 48  1  0  0  0  0
  7 27  2  0  0  0  0
  8 10  1  0  0  0  0
  8 28  1  0  0  0  0
  8 29  1  0  0  0  0
  9 11  1  0  0  0  0
  9 30  1  0  0  0  0
  9 31  1  0  0  0  0
 10 32  1  0  0  0  0
 10 33  1  0  0  0  0
 11 34  1  0  0  0  0
 11 35  1  0  0  0  0
 12 13  1  0  0  0  0
 12 36  1  0  0  0  0
 12 37  1  0  0  0  0
 13 15  1  0  0  0  0
 13 38  1  0  0  0  0
 13 39  1  0  0  0  0
 14 16  2  0  0  0  0
 14 17  1  0  0  0  0
 15 40  1  0  0  0  0
 15 41  1  0  0  0  0
 16 18  1  0  0  0  0
 17 19  2  0  0  0  0
 17 42  1  0  0  0  0
 18 20  2  0  0  0  0
 19 20  1  0  0  0  0
 19 43  1  0  0  0  0
 20 44  1  0  0  0  0
 21 22  2  0  0  0  0
 21 24  1  0  0  0  0
 22 23  1  0  0  0  0
 22 45  1  0  0  0  0
 23 25  2  0  0  0  0
 24 26  2  0  0  0  0
 24 46  1  0  0  0  0
 25 26  1  0  0  0  0
 25 27  1  0  0  0  0
 26 47  1  0  0  0  0
 27 49  1  0  0  0  0
M  END
> <PUBCHEM_COMPOUND_CID>
56597939

> <PUBCHEM_COMPOUND_CANONICALIZED>
1

> <PUBCHEM_CACTVS_COMPLEXITY>
463

> <PUBCHEM_CACTVS_HBOND_ACCEPTOR>
4

> <PUBCHEM_CACTVS_HBOND_DONOR>
1

> <PUBCHEM_CACTVS_ROTATABLE_BOND>
6

> <PUBCHEM_CACTVS_SUBSKEYS>
AAADceB7oAAGAAAAAAAAAAAAAAAAAWAAAAA8YIAAAAAAAFgB9AAAHgIYAAAADA7hniY8xvNjBACiAzRnQACSDAAhpwAYu2A+bpgMZqLF89vWvCjm2BnI6AeQ0AEOIAAAAgICABRAAAAEBAQAKAAAAAAAAA==

> <PUBCHEM_IUPAC_OPENEYE_NAME>
6-[3-[4-(2,3-dichlorophenyl)piperazin-1-yl]propoxy]-1H-indazole

> <PUBCHEM_IUPAC_CAS_NAME>
6-[3-[4-(2,3-dichlorophenyl)-1-piperazinyl]propoxy]-1H-indazole

> <PUBCHEM_IUPAC_NAME_MARKUP>
6-[3-[4-(2,3-dichlorophenyl)piperazin-1-yl]propoxy]-1<I>H</I>-indazole

> <PUBCHEM_IUPAC_NAME>
6-[3-[4-(2,3-dichlorophenyl)piperazin-1-yl]propoxy]-1H-indazole

> <PUBCHEM_IUPAC_SYSTEMATIC_NAME>
6-[3-[4-[2,3-bis(chloranyl)phenyl]piperazin-1-yl]propoxy]-1H-indazole

> <PUBCHEM_IUPAC_TRADITIONAL_NAME>
6-[3-[4-(2,3-dichlorophenyl)piperazino]propoxy]-1H-indazole

> <PUBCHEM_IUPAC_INCHI>
InChI=1S/C20H22Cl2N4O/c21-17-3-1-4-19(20(17)22)26-10-8-25(9-11-26)7-2-12-27-16-6-5-15-14-23-24-18(15)13-16/h1,3-6,13-14H,2,7-12H2,(H,23,24)

> <PUBCHEM_IUPAC_INCHIKEY>
WOXYKTMEOIXZAQ-UHFFFAOYSA-N

> <PUBCHEM_XLOGP3_AA>
4.8

> <PUBCHEM_EXACT_MASS>
404.1170667

> <PUBCHEM_MOLECULAR_FORMULA>
C20H22Cl2N4O

> <PUBCHEM_MOLECULAR_WEIGHT>
405.3

> <PUBCHEM_OPENEYE_CAN_SMILES>
C1CN(CCN1CCCOC2=CC3=C(C=C2)C=NN3)C4=C(C(=CC=C4)Cl)Cl

> <PUBCHEM_OPENEYE_ISO_SMILES>
C1CN(CCN1CCCOC2=CC3=C(C=C2)C=NN3)C4=C(C(=CC=C4)Cl)Cl

> <PUBCHEM_CACTVS_TPSA>
44.4

> <PUBCHEM_MONOISOTOPIC_WEIGHT>
404.1170667

> <PUBCHEM_TOTAL_CHARGE>
0

> <PUBCHEM_HEAVY_ATOM_COUNT>
27

> <PUBCHEM_ATOM_DEF_STEREO_COUNT>
0

> <PUBCHEM_ATOM_UDEF_STEREO_COUNT>
0

> <PUBCHEM_BOND_DEF_STEREO_COUNT>
0

> <PUBCHEM_BOND_UDEF_STEREO_COUNT>
0

> <PUBCHEM_ISOTOPIC_ATOM_COUNT>
0

> <PUBCHEM_COMPONENT_COUNT>
1

> <PUBCHEM_CACTVS_TAUTO_COUNT>
-1

> <PUBCHEM_COORDINATE_TYPE>
1
5
255

> <PUBCHEM_BONDANNOTATIONS>
14  16  8
14  17  8
16  18  8
17  19  8
18  20  8
19  20  8
21  22  8
21  24  8
22  23  8
23  25  8
24  26  8
25  26  8
25  27  8
6  23  8
6  7  8
7  27  8

$$$$
