11733372
  -OEChem-09292322122D

 70 73  0     0  0  0  0  0  0999 V2000
    8.0622    6.5000    0.0000 O   0  0  0  0  0  0  0  0  0  0  0  0
    2.8660   -0.5000    0.0000 O   0  0  0  0  0  0  0  0  0  0  0  0
    6.3301    3.5000    0.0000 N   0  0  0  0  0  0  0  0  0  0  0  0
    6.3301    5.5000    0.0000 N   0  0  0  0  0  0  0  0  0  0  0  0
    4.5981   -0.5000    0.0000 N   0  0  0  0  0  0  0  0  0  0  0  0
    7.1962    4.0000    0.0000 C   0  0  0  0  0  0  0  0  0  0  0  0
    5.4641    4.0000    0.0000 C   0  0  0  0  0  0  0  0  0  0  0  0
    7.1962    5.0000    0.0000 C   0  0  0  0  0  0  0  0  0  0  0  0
    5.4641    5.0000    0.0000 C   0  0  0  0  0  0  0  0  0  0  0  0
    6.3301    2.5000    0.0000 C   0  0  0  0  0  0  0  0  0  0  0  0
    5.4641    2.0000    0.0000 C   0  0  0  0  0  0  0  0  0  0  0  0
    6.3301    6.5000    0.0000 C   0  0  0  0  0  0  0  0  0  0  0  0
    5.4641    1.0000    0.0000 C   0  0  0  0  0  0  0  0  0  0  0  0
    4.5981    0.5000    0.0000 C   0  0  0  0  0  0  0  0  0  0  0  0
    7.1962    7.0000    0.0000 C   0  0  0  0  0  0  0  0  0  0  0  0
    5.4641    7.0000    0.0000 C   0  0  0  0  0  0  0  0  0  0  0  0
    7.1962    8.0000    0.0000 C   0  0  0  0  0  0  0  0  0  0  0  0
    5.4641    8.0000    0.0000 C   0  0  0  0  0  0  0  0  0  0  0  0
    6.3301    8.5000    0.0000 C   0  0  0  0  0  0  0  0  0  0  0  0
    3.7320   -1.0000    0.0000 C   0  0  0  0  0  0  0  0  0  0  0  0
    8.9282    7.0000    0.0000 C   0  0  0  0  0  0  0  0  0  0  0  0
    3.7320   -2.0000    0.0000 C   0  0  0  0  0  0  0  0  0  0  0  0
    2.8660   -2.5000    0.0000 C   0  0  0  0  0  0  0  0  0  0  0  0
    2.8660   -3.5000    0.0000 C   0  0  0  0  0  0  0  0  0  0  0  0
    2.8660   -5.5000    0.0000 C   0  0  0  0  0  0  0  0  0  0  0  0
    3.7320   -4.0000    0.0000 C   0  0  0  0  0  0  0  0  0  0  0  0
    2.0000   -4.0000    0.0000 C   0  0  0  0  0  0  0  0  0  0  0  0
    3.7320   -5.0000    0.0000 C   0  0  0  0  0  0  0  0  0  0  0  0
    2.0000   -5.0000    0.0000 C   0  0  0  0  0  0  0  0  0  0  0  0
    2.8660   -6.5000    0.0000 C   0  0  0  0  0  0  0  0  0  0  0  0
    3.7320   -7.0000    0.0000 C   0  0  0  0  0  0  0  0  0  0  0  0
    2.0000   -7.0000    0.0000 C   0  0  0  0  0  0  0  0  0  0  0  0
    3.7320   -8.0000    0.0000 C   0  0  0  0  0  0  0  0  0  0  0  0
    2.0000   -8.0000    0.0000 C   0  0  0  0  0  0  0  0  0  0  0  0
    2.8660   -8.5000    0.0000 C   0  0  0  0  0  0  0  0  0  0  0  0
    7.4082    3.4174    0.0000 H   0  0  0  0  0  0  0  0  0  0  0  0
    7.8067    4.1077    0.0000 H   0  0  0  0  0  0  0  0  0  0  0  0
    4.8535    4.1077    0.0000 H   0  0  0  0  0  0  0  0  0  0  0  0
    5.2520    3.4174    0.0000 H   0  0  0  0  0  0  0  0  0  0  0  0
    7.8067    4.8923    0.0000 H   0  0  0  0  0  0  0  0  0  0  0  0
    7.4082    5.5826    0.0000 H   0  0  0  0  0  0  0  0  0  0  0  0
    5.2520    5.5826    0.0000 H   0  0  0  0  0  0  0  0  0  0  0  0
    4.8535    4.8923    0.0000 H   0  0  0  0  0  0  0  0  0  0  0  0
    6.5422    1.9174    0.0000 H   0  0  0  0  0  0  0  0  0  0  0  0
    6.9407    2.6077    0.0000 H   0  0  0  0  0  0  0  0  0  0  0  0
    5.2520    2.5826    0.0000 H   0  0  0  0  0  0  0  0  0  0  0  0
    4.8535    1.8923    0.0000 H   0  0  0  0  0  0  0  0  0  0  0  0
    5.6762    0.4174    0.0000 H   0  0  0  0  0  0  0  0  0  0  0  0
    6.0747    1.1077    0.0000 H   0  0  0  0  0  0  0  0  0  0  0  0
    4.3860    1.0826    0.0000 H   0  0  0  0  0  0  0  0  0  0  0  0
    3.9875    0.3923    0.0000 H   0  0  0  0  0  0  0  0  0  0  0  0
    4.9272    6.6900    0.0000 H   0  0  0  0  0  0  0  0  0  0  0  0
    7.7331    8.3100    0.0000 H   0  0  0  0  0  0  0  0  0  0  0  0
    4.9272    8.3100    0.0000 H   0  0  0  0  0  0  0  0  0  0  0  0
    5.1350   -0.8100    0.0000 H   0  0  0  0  0  0  0  0  0  0  0  0
    6.3301    9.1200    0.0000 H   0  0  0  0  0  0  0  0  0  0  0  0
    9.2382    6.4631    0.0000 H   0  0  0  0  0  0  0  0  0  0  0  0
    9.4651    7.3100    0.0000 H   0  0  0  0  0  0  0  0  0  0  0  0
    8.6182    7.5369    0.0000 H   0  0  0  0  0  0  0  0  0  0  0  0
    4.2690   -2.3100    0.0000 H   0  0  0  0  0  0  0  0  0  0  0  0
    2.3291   -2.1900    0.0000 H   0  0  0  0  0  0  0  0  0  0  0  0
    4.2690   -3.6900    0.0000 H   0  0  0  0  0  0  0  0  0  0  0  0
    1.4631   -3.6900    0.0000 H   0  0  0  0  0  0  0  0  0  0  0  0
    4.2690   -5.3100    0.0000 H   0  0  0  0  0  0  0  0  0  0  0  0
    1.4631   -5.3100    0.0000 H   0  0  0  0  0  0  0  0  0  0  0  0
    4.2690   -6.6900    0.0000 H   0  0  0  0  0  0  0  0  0  0  0  0
    1.4631   -6.6900    0.0000 H   0  0  0  0  0  0  0  0  0  0  0  0
    4.2690   -8.3100    0.0000 H   0  0  0  0  0  0  0  0  0  0  0  0
    1.4631   -8.3100    0.0000 H   0  0  0  0  0  0  0  0  0  0  0  0
    2.8660   -9.1200    0.0000 H   0  0  0  0  0  0  0  0  0  0  0  0
  1 15  1  0  0  0  0
  1 21  1  0  0  0  0
  2 20  2  0  0  0  0
  3  6  1  0  0  0  0
  3  7  1  0  0  0  0
  3 10  1  0  0  0  0
  4  8  1  0  0  0  0
  4  9  1  0  0  0  0
  4 12  1  0  0  0  0
  5 14  1  0  0  0  0
  5 20  1  0  0  0  0
  5 55  1  0  0  0  0
  6  8  1  0  0  0  0
  6 36  1  0  0  0  0
  6 37  1  0  0  0  0
  7  9  1  0  0  0  0
  7 38  1  0  0  0  0
  7 39  1  0  0  0  0
  8 40  1  0  0  0  0
  8 41  1  0  0  0  0
  9 42  1  0  0  0  0
  9 43  1  0  0  0  0
 10 11  1  0  0  0  0
 10 44  1  0  0  0  0
 10 45  1  0  0  0  0
 11 13  1  0  0  0  0
 11 46  1  0  0  0  0
 11 47  1  0  0  0  0
 12 15  1  0  0  0  0
 12 16  2  0  0  0  0
 13 14  1  0  0  0  0
 13 48  1  0  0  0  0
 13 49  1  0  0  0  0
 14 50  1  0  0  0  0
 14 51  1  0  0  0  0
 15 17  2  0  0  0  0
 16 18  1  0  0  0  0
 16 52  1  0  0  0  0
 17 19  1  0  0  0  0
 17 53  1  0  0  0  0
 18 19  2  0  0  0  0
 18 54  1  0  0  0  0
 19 56  1  0  0  0  0
 20 22  1  0  0  0  0
 21 57  1  0  0  0  0
 21 58  1  0  0  0  0
 21 59  1  0  0  0  0
 22 23  2  0  0  0  0
 22 60  1  0  0  0  0
 23 24  1  0  0  0  0
 23 61  1  0  0  0  0
 24 26  2  0  0  0  0
 24 27  1  0  0  0  0
 25 28  2  0  0  0  0
 25 29  1  0  0  0  0
 25 30  1  0  0  0  0
 26 28  1  0  0  0  0
 26 62  1  0  0  0  0
 27 29  2  0  0  0  0
 27 63  1  0  0  0  0
 28 64  1  0  0  0  0
 29 65  1  0  0  0  0
 30 31  2  0  0  0  0
 30 32  1  0  0  0  0
 31 33  1  0  0  0  0
 31 66  1  0  0  0  0
 32 34  2  0  0  0  0
 32 67  1  0  0  0  0
 33 35  2  0  0  0  0
 33 68  1  0  0  0  0
 34 35  1  0  0  0  0
 34 69  1  0  0  0  0
 35 70  1  0  0  0  0
M  END
> <PUBCHEM_COMPOUND_CID>
11733372

> <PUBCHEM_COMPOUND_CANONICALIZED>
1

> <PUBCHEM_CACTVS_COMPLEXITY>
632

> <PUBCHEM_CACTVS_HBOND_ACCEPTOR>
4

> <PUBCHEM_CACTVS_HBOND_DONOR>
1

> <PUBCHEM_CACTVS_ROTATABLE_BOND>
10

> <PUBCHEM_CACTVS_SUBSKEYS>
AAADcfB7MAAAAAAAAAAAAAAAAAAAAAAAAAA8YMEAAAAAAAABUAAAHgAQAAAADAzBmAYyxoPABACIAiVSUACCCAAhIgAIiIAPbMgOZiLEsZuVMChk1hHY6YeQwMAOwAAAAAAAEACAAAAAAAAgAAAAAAAAAA==

> <PUBCHEM_IUPAC_OPENEYE_NAME>
(E)-N-[4-[4-(2-methoxyphenyl)piperazin-1-yl]butyl]-3-(4-phenylphenyl)prop-2-enamide

> <PUBCHEM_IUPAC_CAS_NAME>
(E)-N-[4-[4-(2-methoxyphenyl)-1-piperazinyl]butyl]-3-(4-phenylphenyl)-2-propenamide

> <PUBCHEM_IUPAC_NAME_MARKUP>
(<I>E</I>)-<I>N</I>-[4-[4-(2-methoxyphenyl)piperazin-1-yl]butyl]-3-(4-phenylphenyl)prop-2-enamide

> <PUBCHEM_IUPAC_NAME>
(E)-N-[4-[4-(2-methoxyphenyl)piperazin-1-yl]butyl]-3-(4-phenylphenyl)prop-2-enamide

> <PUBCHEM_IUPAC_SYSTEMATIC_NAME>
(E)-N-[4-[4-(2-methoxyphenyl)piperazin-1-yl]butyl]-3-(4-phenylphenyl)prop-2-enamide

> <PUBCHEM_IUPAC_TRADITIONAL_NAME>
(E)-N-[4-[4-(2-methoxyphenyl)piperazino]butyl]-3-(4-phenylphenyl)acrylamide

> <PUBCHEM_IUPAC_INCHI>
InChI=1S/C30H35N3O2/c1-35-29-12-6-5-11-28(29)33-23-21-32(22-24-33)20-8-7-19-31-30(34)18-15-25-13-16-27(17-14-25)26-9-3-2-4-10-26/h2-6,9-18H,7-8,19-24H2,1H3,(H,31,34)/b18-15+

> <PUBCHEM_IUPAC_INCHIKEY>
JOCSRIUJRNEKRZ-OBGWFSINSA-N

> <PUBCHEM_XLOGP3_AA>
5.6

> <PUBCHEM_EXACT_MASS>
469.27292737

> <PUBCHEM_MOLECULAR_FORMULA>
C30H35N3O2

> <PUBCHEM_MOLECULAR_WEIGHT>
469.6

> <PUBCHEM_OPENEYE_CAN_SMILES>
COC1=CC=CC=C1N2CCN(CC2)CCCCNC(=O)C=CC3=CC=C(C=C3)C4=CC=CC=C4

> <PUBCHEM_OPENEYE_ISO_SMILES>
COC1=CC=CC=C1N2CCN(CC2)CCCCNC(=O)/C=C/C3=CC=C(C=C3)C4=CC=CC=C4

> <PUBCHEM_CACTVS_TPSA>
44.8

> <PUBCHEM_MONOISOTOPIC_WEIGHT>
469.27292737

> <PUBCHEM_TOTAL_CHARGE>
0

> <PUBCHEM_HEAVY_ATOM_COUNT>
35

> <PUBCHEM_ATOM_DEF_STEREO_COUNT>
0

> <PUBCHEM_ATOM_UDEF_STEREO_COUNT>
0

> <PUBCHEM_BOND_DEF_STEREO_COUNT>
1

> <PUBCHEM_BOND_UDEF_STEREO_COUNT>
0

> <PUBCHEM_ISOTOPIC_ATOM_COUNT>
0

> <PUBCHEM_COMPONENT_COUNT>
1

> <PUBCHEM_CACTVS_TAUTO_COUNT>
-1

> <PUBCHEM_COORDINATE_TYPE>
1
5
255

> <PUBCHEM_BONDANNOTATIONS>
12  15  8
12  16  8
15  17  8
16  18  8
17  19  8
18  19  8
24  26  8
24  27  8
25  28  8
25  29  8
26  28  8
27  29  8
30  31  8
30  32  8
31  33  8
32  34  8
33  35  8
34  35  8

$$$$
