133080719
  -OEChem-09292322452D

 40 42  0     0  0  0  0  0  0999 V2000
    7.1962    2.2500    0.0000 S   0  0  0  0  0  0  0  0  0  0  0  0
    8.9282    1.2500    0.0000 F   0  0  0  0  0  0  0  0  0  0  0  0
    7.1962   -2.7500    0.0000 F   0  0  0  0  0  0  0  0  0  0  0  0
    6.6962    3.1160    0.0000 O   0  0  0  0  0  0  0  0  0  0  0  0
    7.6962    1.3840    0.0000 O   0  0  0  0  0  0  0  0  0  0  0  0
    4.5981    0.7500    0.0000 O   0  0  0  0  0  0  0  0  0  0  0  0
    6.3301    1.7500    0.0000 N   0  0  0  0  0  0  0  0  0  0  0  0
    6.3301    0.7500    0.0000 N   0  0  0  0  0  0  0  0  0  0  0  0
    3.7320   -3.7500    0.0000 N   0  0  0  0  0  0  0  0  0  0  0  0
    8.0622    2.7500    0.0000 C   0  0  0  0  0  0  0  0  0  0  0  0
    5.4641   -0.7500    0.0000 C   0  0  0  0  0  0  0  0  0  0  0  0
    4.5981   -2.2500    0.0000 C   0  0  0  0  0  0  0  0  0  0  0  0
    4.5981   -1.2500    0.0000 C   0  0  0  0  0  0  0  0  0  0  0  0
    5.4641    0.2500    0.0000 C   0  0  0  0  0  0  0  0  0  0  0  0
    6.3301   -1.2500    0.0000 C   0  0  0  0  0  0  0  0  0  0  0  0
    3.7320   -2.7500    0.0000 C   0  0  0  0  0  0  0  0  0  0  0  0
    5.4641   -2.7500    0.0000 C   0  0  0  0  0  0  0  0  0  0  0  0
    8.9282    2.2500    0.0000 C   0  0  0  0  0  0  0  0  0  0  0  0
    8.0622    3.7500    0.0000 C   0  0  0  0  0  0  0  0  0  0  0  0
    6.3301   -2.2500    0.0000 C   0  0  0  0  0  0  0  0  0  0  0  0
    9.7942    2.7500    0.0000 C   0  0  0  0  0  0  0  0  0  0  0  0
    8.9282    4.2500    0.0000 C   0  0  0  0  0  0  0  0  0  0  0  0
    9.7942    3.7500    0.0000 C   0  0  0  0  0  0  0  0  0  0  0  0
    2.8660   -2.2500    0.0000 C   0  0  0  0  0  0  0  0  0  0  0  0
    2.0000   -2.7500    0.0000 C   0  0  0  0  0  0  0  0  0  0  0  0
    2.8660   -4.2500    0.0000 C   0  0  0  0  0  0  0  0  0  0  0  0
    2.0000   -3.7500    0.0000 C   0  0  0  0  0  0  0  0  0  0  0  0
    4.0611   -0.9400    0.0000 H   0  0  0  0  0  0  0  0  0  0  0  0
    5.7932    2.0600    0.0000 H   0  0  0  0  0  0  0  0  0  0  0  0
    6.8671   -0.9400    0.0000 H   0  0  0  0  0  0  0  0  0  0  0  0
    5.4641   -3.3700    0.0000 H   0  0  0  0  0  0  0  0  0  0  0  0
    6.8671    0.4400    0.0000 H   0  0  0  0  0  0  0  0  0  0  0  0
    7.5252    4.0600    0.0000 H   0  0  0  0  0  0  0  0  0  0  0  0
   10.3312    2.4400    0.0000 H   0  0  0  0  0  0  0  0  0  0  0  0
    8.9282    4.8700    0.0000 H   0  0  0  0  0  0  0  0  0  0  0  0
   10.3312    4.0600    0.0000 H   0  0  0  0  0  0  0  0  0  0  0  0
    2.8660   -1.6300    0.0000 H   0  0  0  0  0  0  0  0  0  0  0  0
    1.4631   -2.4400    0.0000 H   0  0  0  0  0  0  0  0  0  0  0  0
    2.8660   -4.8700    0.0000 H   0  0  0  0  0  0  0  0  0  0  0  0
    1.4631   -4.0600    0.0000 H   0  0  0  0  0  0  0  0  0  0  0  0
  1  4  2  0  0  0  0
  1  5  2  0  0  0  0
  1  7  1  0  0  0  0
  1 10  1  0  0  0  0
  2 18  1  0  0  0  0
  3 20  1  0  0  0  0
  6 14  2  0  0  0  0
  7  8  1  0  0  0  0
  7 29  1  0  0  0  0
  8 14  1  0  0  0  0
  8 32  1  0  0  0  0
  9 16  1  0  0  0  0
  9 26  2  0  0  0  0
 10 18  1  0  0  0  0
 10 19  2  0  0  0  0
 11 13  1  0  0  0  0
 11 14  1  0  0  0  0
 11 15  2  0  0  0  0
 12 13  2  0  0  0  0
 12 16  1  0  0  0  0
 12 17  1  0  0  0  0
 13 28  1  0  0  0  0
 15 20  1  0  0  0  0
 15 30  1  0  0  0  0
 16 24  2  0  0  0  0
 17 20  2  0  0  0  0
 17 31  1  0  0  0  0
 18 21  2  0  0  0  0
 19 22  1  0  0  0  0
 19 33  1  0  0  0  0
 21 23  1  0  0  0  0
 21 34  1  0  0  0  0
 22 23  2  0  0  0  0
 22 35  1  0  0  0  0
 23 36  1  0  0  0  0
 24 25  1  0  0  0  0
 24 37  1  0  0  0  0
 25 27  2  0  0  0  0
 25 38  1  0  0  0  0
 26 27  1  0  0  0  0
 26 39  1  0  0  0  0
 27 40  1  0  0  0  0
M  END
> <PUBCHEM_COMPOUND_CID>
133080719

> <PUBCHEM_COMPOUND_CANONICALIZED>
1

> <PUBCHEM_CACTVS_COMPLEXITY>
614

> <PUBCHEM_CACTVS_HBOND_ACCEPTOR>
7

> <PUBCHEM_CACTVS_HBOND_DONOR>
2

> <PUBCHEM_CACTVS_ROTATABLE_BOND>
5

> <PUBCHEM_CACTVS_SUBSKEYS>
AAADccB7MYBAAAAAAAAAAAAAAAAAAAAAAAA8YIAAAAAAAAAB0AAAHwQYQAAADAjB3gw8gZJqEAKoAzV3VHDCgDA1AiIa+Dk4ZNgIIPLAlZGEIQhggADIyYcYicCeAAACAAAAAAAAAAQAAAAAAAAAAAAAAA==

> <PUBCHEM_IUPAC_OPENEYE_NAME>
3-fluoro-N'-(2-fluorophenyl)sulfonyl-5-(2-pyridyl)benzohydrazide

> <PUBCHEM_IUPAC_CAS_NAME>
3-fluoro-N'-(2-fluorophenyl)sulfonyl-5-(2-pyridinyl)benzohydrazide

> <PUBCHEM_IUPAC_NAME_MARKUP>
3-fluoro-<I>N</I>&apos;-(2-fluorophenyl)sulfonyl-5-pyridin-2-ylbenzohydrazide

> <PUBCHEM_IUPAC_NAME>
3-fluoro-N'-(2-fluorophenyl)sulfonyl-5-pyridin-2-ylbenzohydrazide

> <PUBCHEM_IUPAC_SYSTEMATIC_NAME>
3-fluoranyl-N'-(2-fluorophenyl)sulfonyl-5-pyridin-2-yl-benzohydrazide

> <PUBCHEM_IUPAC_TRADITIONAL_NAME>
3-fluoro-N'-(2-fluorophenyl)sulfonyl-5-(2-pyridyl)benzohydrazide

> <PUBCHEM_IUPAC_INCHI>
InChI=1S/C18H13F2N3O3S/c19-14-10-12(16-6-3-4-8-21-16)9-13(11-14)18(24)22-23-27(25,26)17-7-2-1-5-15(17)20/h1-11,23H,(H,22,24)

> <PUBCHEM_IUPAC_INCHIKEY>
QLXULUNLCRKWRD-UHFFFAOYSA-N

> <PUBCHEM_XLOGP3_AA>
2.8

> <PUBCHEM_EXACT_MASS>
389.06456878

> <PUBCHEM_MOLECULAR_FORMULA>
C18H13F2N3O3S

> <PUBCHEM_MOLECULAR_WEIGHT>
389.4

> <PUBCHEM_OPENEYE_CAN_SMILES>
C1=CC=C(C(=C1)F)S(=O)(=O)NNC(=O)C2=CC(=CC(=C2)C3=CC=CC=N3)F

> <PUBCHEM_OPENEYE_ISO_SMILES>
C1=CC=C(C(=C1)F)S(=O)(=O)NNC(=O)C2=CC(=CC(=C2)C3=CC=CC=N3)F

> <PUBCHEM_CACTVS_TPSA>
96.5

> <PUBCHEM_MONOISOTOPIC_WEIGHT>
389.06456878

> <PUBCHEM_TOTAL_CHARGE>
0

> <PUBCHEM_HEAVY_ATOM_COUNT>
27

> <PUBCHEM_ATOM_DEF_STEREO_COUNT>
0

> <PUBCHEM_ATOM_UDEF_STEREO_COUNT>
0

> <PUBCHEM_BOND_DEF_STEREO_COUNT>
0

> <PUBCHEM_BOND_UDEF_STEREO_COUNT>
0

> <PUBCHEM_ISOTOPIC_ATOM_COUNT>
0

> <PUBCHEM_COMPONENT_COUNT>
1

> <PUBCHEM_CACTVS_TAUTO_COUNT>
-1

> <PUBCHEM_COORDINATE_TYPE>
1
5
255

> <PUBCHEM_BONDANNOTATIONS>
10  18  8
10  19  8
11  13  8
11  15  8
12  13  8
12  17  8
15  20  8
16  24  8
17  20  8
18  21  8
19  22  8
21  23  8
22  23  8
24  25  8
25  27  8
26  27  8
9  16  8
9  26  8

$$$$
