45262410
  -OEChem-09292322122D

 78 81  0     1  0  0  0  0  0999 V2000
    8.0117    0.0000    0.0000 Cl  0  0  0  0  0  0  0  0  0  0  0  0
   15.6236    8.7286    0.0000 S   0  0  0  0  0  0  0  0  0  0  0  0
    5.2688    5.1063    0.0000 O   0  0  0  0  0  0  0  0  0  0  0  0
   16.1269    7.8645    0.0000 O   0  0  0  0  0  0  0  0  0  0  0  0
   15.1202    9.5926    0.0000 O   0  0  0  0  0  0  0  0  0  0  0  0
   10.7688    7.7044    0.0000 N   0  0  3  0  0  0  0  0  0  0  0  0
    5.2688    6.8384    0.0000 N   0  0  0  0  0  0  0  0  0  0  0  0
    2.1756    3.3268    0.0000 N   0  0  0  0  0  0  0  0  0  0  0  0
    1.4324    2.6576    0.0000 N   0  0  0  0  0  0  0  0  0  0  0  0
    8.2688    6.8384    0.0000 C   0  0  0  0  0  0  0  0  0  0  0  0
    7.7688    5.9723    0.0000 C   0  0  0  0  0  0  0  0  0  0  0  0
    7.7688    7.7044    0.0000 C   0  0  0  0  0  0  0  0  0  0  0  0
    6.2688    6.8384    0.0000 C   0  0  0  0  0  0  0  0  0  0  0  0
    6.7688    5.9723    0.0000 C   0  0  0  0  0  0  0  0  0  0  0  0
    6.7688    7.7044    0.0000 C   0  0  0  0  0  0  0  0  0  0  0  0
    9.2688    6.8384    0.0000 C   0  0  0  0  0  0  0  0  0  0  0  0
    9.7688    7.7044    0.0000 C   0  0  0  0  0  0  0  0  0  0  0  0
   11.2027    8.6054    0.0000 C   0  0  0  0  0  0  0  0  0  0  0  0
   11.2027    6.8034    0.0000 C   0  0  0  0  0  0  0  0  0  0  0  0
   12.1776    8.8279    0.0000 C   0  0  0  0  0  0  0  0  0  0  0  0
   12.1776    6.5809    0.0000 C   0  0  0  0  0  0  0  0  0  0  0  0
   12.9595    8.2044    0.0000 C   0  0  0  0  0  0  0  0  0  0  0  0
   12.9595    7.2044    0.0000 C   0  0  0  0  0  0  0  0  0  0  0  0
    4.7688    5.9723    0.0000 C   0  0  0  0  0  0  0  0  0  0  0  0
   13.8534    8.7391    0.0000 C   0  0  0  0  0  0  0  0  0  0  0  0
   13.8534    6.6697    0.0000 C   0  0  0  0  0  0  0  0  0  0  0  0
    3.7688    5.9723    0.0000 C   0  0  0  0  0  0  0  0  0  0  0  0
   14.7595    8.2252    0.0000 C   0  0  0  0  0  0  0  0  0  0  0  0
   14.7595    7.1836    0.0000 C   0  0  0  0  0  0  0  0  0  0  0  0
    3.2688    5.1063    0.0000 C   0  0  0  0  0  0  0  0  0  0  0  0
    3.2688    6.8384    0.0000 C   0  0  0  0  0  0  0  0  0  0  0  0
    2.2688    5.1063    0.0000 C   0  0  0  0  0  0  0  0  0  0  0  0
   16.4877    9.2319    0.0000 C   0  0  0  0  0  0  0  0  0  0  0  0
    2.2688    6.8384    0.0000 C   0  0  0  0  0  0  0  0  0  0  0  0
    1.7688    5.9723    0.0000 C   0  0  0  0  0  0  0  0  0  0  0  0
    1.7688    4.2403    0.0000 C   0  0  0  0  0  0  0  0  0  0  0  0
    0.7743    4.1358    0.0000 C   0  0  0  0  0  0  0  0  0  0  0  0
    0.5664    3.1576    0.0000 C   0  0  0  0  0  0  0  0  0  0  0  0
    3.1537    3.1188    0.0000 C   0  0  0  0  0  0  0  0  0  0  0  0
    8.5788    6.3014    0.0000 H   0  0  0  0  0  0  0  0  0  0  0  0
    7.6612    5.3618    0.0000 H   0  0  0  0  0  0  0  0  0  0  0  0
    8.3514    5.7603    0.0000 H   0  0  0  0  0  0  0  0  0  0  0  0
    8.3514    7.9164    0.0000 H   0  0  0  0  0  0  0  0  0  0  0  0
    7.6612    8.3150    0.0000 H   0  0  0  0  0  0  0  0  0  0  0  0
    5.9588    6.3014    0.0000 H   0  0  0  0  0  0  0  0  0  0  0  0
    6.1862    5.7603    0.0000 H   0  0  0  0  0  0  0  0  0  0  0  0
    6.8765    5.3618    0.0000 H   0  0  0  0  0  0  0  0  0  0  0  0
    6.8765    8.3150    0.0000 H   0  0  0  0  0  0  0  0  0  0  0  0
    6.1862    7.9164    0.0000 H   0  0  0  0  0  0  0  0  0  0  0  0
    9.1612    6.2278    0.0000 H   0  0  0  0  0  0  0  0  0  0  0  0
    9.8514    6.6263    0.0000 H   0  0  0  0  0  0  0  0  0  0  0  0
    9.8765    8.3150    0.0000 H   0  0  0  0  0  0  0  0  0  0  0  0
    9.1862    7.9164    0.0000 H   0  0  0  0  0  0  0  0  0  0  0  0
    4.9588    7.3753    0.0000 H   0  0  0  0  0  0  0  0  0  0  0  0
   11.2027    9.2254    0.0000 H   0  0  0  0  0  0  0  0  0  0  0  0
   10.5983    8.7433    0.0000 H   0  0  0  0  0  0  0  0  0  0  0  0
   10.5983    6.6655    0.0000 H   0  0  0  0  0  0  0  0  0  0  0  0
   11.2027    6.1834    0.0000 H   0  0  0  0  0  0  0  0  0  0  0  0
   12.6624    9.2144    0.0000 H   0  0  0  0  0  0  0  0  0  0  0  0
   11.9086    9.3865    0.0000 H   0  0  0  0  0  0  0  0  0  0  0  0
   11.9086    6.0223    0.0000 H   0  0  0  0  0  0  0  0  0  0  0  0
   12.6624    6.1944    0.0000 H   0  0  0  0  0  0  0  0  0  0  0  0
   13.8462    9.3590    0.0000 H   0  0  0  0  0  0  0  0  0  0  0  0
   13.8462    6.0498    0.0000 H   0  0  0  0  0  0  0  0  0  0  0  0
   15.2952    6.8715    0.0000 H   0  0  0  0  0  0  0  0  0  0  0  0
    3.5788    4.5694    0.0000 H   0  0  0  0  0  0  0  0  0  0  0  0
    3.5788    7.3753    0.0000 H   0  0  0  0  0  0  0  0  0  0  0  0
   16.7997    8.6962    0.0000 H   0  0  0  0  0  0  0  0  0  0  0  0
   17.0234    9.5440    0.0000 H   0  0  0  0  0  0  0  0  0  0  0  0
   16.1756    9.7676    0.0000 H   0  0  0  0  0  0  0  0  0  0  0  0
    1.9588    7.3753    0.0000 H   0  0  0  0  0  0  0  0  0  0  0  0
    1.1488    5.9723    0.0000 H   0  0  0  0  0  0  0  0  0  0  0  0
    0.3594    4.5965    0.0000 H   0  0  0  0  0  0  0  0  0  0  0  0
    0.0000    2.9054    0.0000 H   0  0  0  0  0  0  0  0  0  0  0  0
    3.0248    2.5124    0.0000 H   0  0  0  0  0  0  0  0  0  0  0  0
    3.7602    2.9899    0.0000 H   0  0  0  0  0  0  0  0  0  0  0  0
    3.2826    3.7253    0.0000 H   0  0  0  0  0  0  0  0  0  0  0  0
    9.0117    0.0000    0.0000 H   0  0  0  0  0  0  0  0  0  0  0  0
  1 78  1  0  0  0  0
  2  4  2  0  0  0  0
  2  5  2  0  0  0  0
  2 28  1  0  0  0  0
  2 33  1  0  0  0  0
  3 24  2  0  0  0  0
  6 17  1  0  0  0  0
  6 18  1  0  0  0  0
  6 19  1  0  0  0  0
  7 13  1  0  0  0  0
  7 24  1  0  0  0  0
  7 54  1  0  0  0  0
  8  9  1  0  0  0  0
  8 36  1  0  0  0  0
  8 39  1  0  0  0  0
  9 38  2  0  0  0  0
 10 11  1  0  0  0  0
 10 12  1  0  0  0  0
 10 16  1  0  0  0  0
 10 40  1  0  0  0  0
 11 14  1  0  0  0  0
 11 41  1  0  0  0  0
 11 42  1  0  0  0  0
 12 15  1  0  0  0  0
 12 43  1  0  0  0  0
 12 44  1  0  0  0  0
 13 14  1  0  0  0  0
 13 15  1  0  0  0  0
 13 45  1  0  0  0  0
 14 46  1  0  0  0  0
 14 47  1  0  0  0  0
 15 48  1  0  0  0  0
 15 49  1  0  0  0  0
 16 17  1  0  0  0  0
 16 50  1  0  0  0  0
 16 51  1  0  0  0  0
 17 52  1  0  0  0  0
 17 53  1  0  0  0  0
 18 20  1  0  0  0  0
 18 55  1  0  0  0  0
 18 56  1  0  0  0  0
 19 21  1  0  0  0  0
 19 57  1  0  0  0  0
 19 58  1  0  0  0  0
 20 22  1  0  0  0  0
 20 59  1  0  0  0  0
 20 60  1  0  0  0  0
 21 23  1  0  0  0  0
 21 61  1  0  0  0  0
 21 62  1  0  0  0  0
 22 23  2  0  0  0  0
 22 25  1  0  0  0  0
 23 26  1  0  0  0  0
 24 27  1  0  0  0  0
 25 28  2  0  0  0  0
 25 63  1  0  0  0  0
 26 29  2  0  0  0  0
 26 64  1  0  0  0  0
 27 30  1  0  0  0  0
 27 31  2  0  0  0  0
 28 29  1  0  0  0  0
 29 65  1  0  0  0  0
 30 32  2  0  0  0  0
 30 66  1  0  0  0  0
 31 34  1  0  0  0  0
 31 67  1  0  0  0  0
 32 35  1  0  0  0  0
 32 36  1  0  0  0  0
 33 68  1  0  0  0  0
 33 69  1  0  0  0  0
 33 70  1  0  0  0  0
 34 35  2  0  0  0  0
 34 71  1  0  0  0  0
 35 72  1  0  0  0  0
 36 37  2  0  0  0  0
 37 38  1  0  0  0  0
 37 73  1  0  0  0  0
 38 74  1  0  0  0  0
 39 75  1  0  0  0  0
 39 76  1  0  0  0  0
 39 77  1  0  0  0  0
M  END
> <PUBCHEM_COMPOUND_CID>
45262410

> <PUBCHEM_COMPOUND_CANONICALIZED>
1

> <PUBCHEM_CACTVS_COMPLEXITY>
884

> <PUBCHEM_CACTVS_HBOND_ACCEPTOR>
5

> <PUBCHEM_CACTVS_HBOND_DONOR>
2

> <PUBCHEM_CACTVS_ROTATABLE_BOND>
7

> <PUBCHEM_CACTVS_SUBSKEYS>
AAADcfB7sABEAAAAAAAAAAAAAAAAAWAAAAAwYMAABYAAAAAB0AAAHgQYAAAADSjB3gS+gZPIAAqqAzV3VHDSBAAlihAY2Lk4ZNgIILLg1dGEpQhgngDIyYcYicCekAACgAAQAAAwAAUAACAAAAAAAAAAAA==

> <PUBCHEM_IUPAC_OPENEYE_NAME>
3-(2-methylpyrazol-3-yl)-N-[4-[2-(7-methylsulfonyl-1,2,4,5-tetrahydro-3-benzazepin-3-yl)ethyl]cyclohexyl]benzamide;hydrochloride

> <PUBCHEM_IUPAC_CAS_NAME>
3-(2-methyl-3-pyrazolyl)-N-[4-[2-(7-methylsulfonyl-1,2,4,5-tetrahydro-3-benzazepin-3-yl)ethyl]cyclohexyl]benzamide;hydrochloride

> <PUBCHEM_IUPAC_NAME_MARKUP>
3-(2-methylpyrazol-3-yl)-<I>N</I>-[4-[2-(7-methylsulfonyl-1,2,4,5-tetrahydro-3-benzazepin-3-yl)ethyl]cyclohexyl]benzamide;hydrochloride

> <PUBCHEM_IUPAC_NAME>
3-(2-methylpyrazol-3-yl)-N-[4-[2-(7-methylsulfonyl-1,2,4,5-tetrahydro-3-benzazepin-3-yl)ethyl]cyclohexyl]benzamide;hydrochloride

> <PUBCHEM_IUPAC_SYSTEMATIC_NAME>
3-(2-methylpyrazol-3-yl)-N-[4-[2-(7-methylsulfonyl-1,2,4,5-tetrahydro-3-benzazepin-3-yl)ethyl]cyclohexyl]benzamide;hydrochloride

> <PUBCHEM_IUPAC_TRADITIONAL_NAME>
N-[4-[2-(7-mesyl-1,2,4,5-tetrahydro-3-benzazepin-3-yl)ethyl]cyclohexyl]-3-(2-methylpyrazol-3-yl)benzamide;hydrochloride

> <PUBCHEM_IUPAC_INCHI>
InChI=1S/C30H38N4O3S.ClH/c1-33-29(12-16-31-33)25-4-3-5-26(20-25)30(35)32-27-9-6-22(7-10-27)13-17-34-18-14-23-8-11-28(38(2,36)37)21-24(23)15-19-34;/h3-5,8,11-12,16,20-22,27H,6-7,9-10,13-15,17-19H2,1-2H3,(H,32,35);1H

> <PUBCHEM_IUPAC_INCHIKEY>
FIKZHKYYUYLHFL-UHFFFAOYSA-N

> <PUBCHEM_EXACT_MASS>
570.2431400

> <PUBCHEM_MOLECULAR_FORMULA>
C30H39ClN4O3S

> <PUBCHEM_MOLECULAR_WEIGHT>
571.2

> <PUBCHEM_OPENEYE_CAN_SMILES>
CN1C(=CC=N1)C2=CC(=CC=C2)C(=O)NC3CCC(CC3)CCN4CCC5=C(CC4)C=C(C=C5)S(=O)(=O)C.Cl

> <PUBCHEM_OPENEYE_ISO_SMILES>
CN1C(=CC=N1)C2=CC(=CC=C2)C(=O)NC3CCC(CC3)CCN4CCC5=C(CC4)C=C(C=C5)S(=O)(=O)C.Cl

> <PUBCHEM_CACTVS_TPSA>
92.7

> <PUBCHEM_MONOISOTOPIC_WEIGHT>
570.2431400

> <PUBCHEM_TOTAL_CHARGE>
0

> <PUBCHEM_HEAVY_ATOM_COUNT>
39

> <PUBCHEM_ATOM_DEF_STEREO_COUNT>
0

> <PUBCHEM_ATOM_UDEF_STEREO_COUNT>
0

> <PUBCHEM_BOND_DEF_STEREO_COUNT>
0

> <PUBCHEM_BOND_UDEF_STEREO_COUNT>
0

> <PUBCHEM_ISOTOPIC_ATOM_COUNT>
0

> <PUBCHEM_COMPONENT_COUNT>
2

> <PUBCHEM_CACTVS_TAUTO_COUNT>
-1

> <PUBCHEM_COORDINATE_TYPE>
1
5
255

> <PUBCHEM_BONDANNOTATIONS>
22  23  8
22  25  8
23  26  8
25  28  8
26  29  8
27  30  8
27  31  8
28  29  8
30  32  8
31  34  8
32  35  8
34  35  8
36  37  8
37  38  8
8  36  8
8  9  8
9  38  8

$$$$
