44415673
  -OEChem-09292322282D

 66 71  0     0  0  0  0  0  0999 V2000
    8.7204    1.3107    0.0000 Cl  0  0  0  0  0  0  0  0  0  0  0  0
    4.9443   -3.0999    0.0000 S   0  0  0  0  0  0  0  0  0  0  0  0
    7.5042   -2.7893    0.0000 O   0  0  0  0  0  0  0  0  0  0  0  0
    6.6150   -1.0163    0.0000 O   0  0  0  0  0  0  0  0  0  0  0  0
    3.9491    3.0753    0.0000 N   0  0  0  0  0  0  0  0  0  0  0  0
    3.0814    4.8772    0.0000 N   0  0  0  0  0  0  0  0  0  0  0  0
    4.8830   -0.0163    0.0000 N   0  0  0  0  0  0  0  0  0  0  0  0
    5.3830    2.1743    0.0000 N   0  0  0  0  0  0  0  0  0  0  0  0
    4.8830   -1.0163    0.0000 N   0  0  0  0  0  0  0  0  0  0  0  0
    4.5125    3.9015    0.0000 C   0  0  0  0  0  0  0  0  0  0  0  0
    2.9519    3.1500    0.0000 C   0  0  0  0  0  0  0  0  0  0  0  0
    4.0786    4.8025    0.0000 C   0  0  0  0  0  0  0  0  0  0  0  0
    2.5180    4.0510    0.0000 C   0  0  0  0  0  0  0  0  0  0  0  0
    4.3830    2.1743    0.0000 C   0  0  0  0  0  0  0  0  0  0  0  0
    3.7595    1.3925    0.0000 C   0  0  0  0  0  0  0  0  0  0  0  0
    2.6475    5.7782    0.0000 C   0  0  0  0  0  0  0  0  0  0  0  0
    3.9820    0.4176    0.0000 C   0  0  0  0  0  0  0  0  0  0  0  0
    5.7840    0.4176    0.0000 C   0  0  0  0  0  0  0  0  0  0  0  0
    6.0065    1.3925    0.0000 C   0  0  0  0  0  0  0  0  0  0  0  0
    2.7690    1.7148    0.0000 C   0  0  0  0  0  0  0  0  0  0  0  0
    3.2295   -0.3026    0.0000 C   0  0  0  0  0  0  0  0  0  0  0  0
    2.0000    1.0123    0.0000 C   0  0  0  0  0  0  0  0  0  0  0  0
    6.5365   -0.3026    0.0000 C   0  0  0  0  0  0  0  0  0  0  0  0
    6.9970    1.7148    0.0000 C   0  0  0  0  0  0  0  0  0  0  0  0
    2.2318   -0.0033    0.0000 C   0  0  0  0  0  0  0  0  0  0  0  0
    7.5342   -0.0033    0.0000 C   0  0  0  0  0  0  0  0  0  0  0  0
    5.7490   -1.5163    0.0000 C   0  0  0  0  0  0  0  0  0  0  0  0
    7.7660    1.0122    0.0000 C   0  0  0  0  0  0  0  0  0  0  0  0
    5.7490   -2.5163    0.0000 C   0  0  0  0  0  0  0  0  0  0  0  0
    6.5537   -3.0999    0.0000 C   0  0  0  0  0  0  0  0  0  0  0  0
    6.2490   -4.0462    0.0000 C   0  0  0  0  0  0  0  0  0  0  0  0
    5.2490   -4.0462    0.0000 C   0  0  0  0  0  0  0  0  0  0  0  0
    6.7490   -4.9122    0.0000 C   0  0  0  0  0  0  0  0  0  0  0  0
    4.7490   -4.9122    0.0000 C   0  0  0  0  0  0  0  0  0  0  0  0
    6.2490   -5.7782    0.0000 C   0  0  0  0  0  0  0  0  0  0  0  0
    5.2490   -5.7782    0.0000 C   0  0  0  0  0  0  0  0  0  0  0  0
    8.2486   -3.4571    0.0000 C   0  0  0  0  0  0  0  0  0  0  0  0
    9.1991   -3.1465    0.0000 C   0  0  0  0  0  0  0  0  0  0  0  0
    4.9563    3.4686    0.0000 H   0  0  0  0  0  0  0  0  0  0  0  0
    5.0159    4.2634    0.0000 H   0  0  0  0  0  0  0  0  0  0  0  0
    2.3551    2.9821    0.0000 H   0  0  0  0  0  0  0  0  0  0  0  0
    3.0137    2.5331    0.0000 H   0  0  0  0  0  0  0  0  0  0  0  0
    4.6754    4.9704    0.0000 H   0  0  0  0  0  0  0  0  0  0  0  0
    4.0168    5.4194    0.0000 H   0  0  0  0  0  0  0  0  0  0  0  0
    2.0742    4.4839    0.0000 H   0  0  0  0  0  0  0  0  0  0  0  0
    2.0146    3.6891    0.0000 H   0  0  0  0  0  0  0  0  0  0  0  0
    3.2061    6.0472    0.0000 H   0  0  0  0  0  0  0  0  0  0  0  0
    2.3785    6.3368    0.0000 H   0  0  0  0  0  0  0  0  0  0  0  0
    2.0889    5.5092    0.0000 H   0  0  0  0  0  0  0  0  0  0  0  0
    2.6380    2.3208    0.0000 H   0  0  0  0  0  0  0  0  0  0  0  0
    3.3744   -0.9054    0.0000 H   0  0  0  0  0  0  0  0  0  0  0  0
    4.3460   -1.3263    0.0000 H   0  0  0  0  0  0  0  0  0  0  0  0
    1.4083    1.1973    0.0000 H   0  0  0  0  0  0  0  0  0  0  0  0
    6.3916   -0.9054    0.0000 H   0  0  0  0  0  0  0  0  0  0  0  0
    7.1280    2.3208    0.0000 H   0  0  0  0  0  0  0  0  0  0  0  0
    1.7789   -0.4267    0.0000 H   0  0  0  0  0  0  0  0  0  0  0  0
    7.9871   -0.4268    0.0000 H   0  0  0  0  0  0  0  0  0  0  0  0
    7.3690   -4.9122    0.0000 H   0  0  0  0  0  0  0  0  0  0  0  0
    4.1290   -4.9122    0.0000 H   0  0  0  0  0  0  0  0  0  0  0  0
    6.5590   -6.3152    0.0000 H   0  0  0  0  0  0  0  0  0  0  0  0
    4.9390   -6.3151    0.0000 H   0  0  0  0  0  0  0  0  0  0  0  0
    7.7606   -3.8397    0.0000 H   0  0  0  0  0  0  0  0  0  0  0  0
    8.5406   -4.0041    0.0000 H   0  0  0  0  0  0  0  0  0  0  0  0
    9.3917   -3.7358    0.0000 H   0  0  0  0  0  0  0  0  0  0  0  0
    9.7884   -2.9539    0.0000 H   0  0  0  0  0  0  0  0  0  0  0  0
    9.0065   -2.5572    0.0000 H   0  0  0  0  0  0  0  0  0  0  0  0
  1 28  1  0  0  0  0
  2 29  1  0  0  0  0
  2 32  1  0  0  0  0
  3 30  1  0  0  0  0
  3 37  1  0  0  0  0
  4 27  2  0  0  0  0
  5 10  1  0  0  0  0
  5 11  1  0  0  0  0
  5 14  1  0  0  0  0
  6 12  1  0  0  0  0
  6 13  1  0  0  0  0
  6 16  1  0  0  0  0
  7  9  1  0  0  0  0
  7 17  1  0  0  0  0
  7 18  1  0  0  0  0
  8 14  2  0  0  0  0
  8 19  1  0  0  0  0
  9 27  1  0  0  0  0
  9 52  1  0  0  0  0
 10 12  1  0  0  0  0
 10 39  1  0  0  0  0
 10 40  1  0  0  0  0
 11 13  1  0  0  0  0
 11 41  1  0  0  0  0
 11 42  1  0  0  0  0
 12 43  1  0  0  0  0
 12 44  1  0  0  0  0
 13 45  1  0  0  0  0
 13 46  1  0  0  0  0
 14 15  1  0  0  0  0
 15 17  1  0  0  0  0
 15 20  2  0  0  0  0
 16 47  1  0  0  0  0
 16 48  1  0  0  0  0
 16 49  1  0  0  0  0
 17 21  2  0  0  0  0
 18 19  2  0  0  0  0
 18 23  1  0  0  0  0
 19 24  1  0  0  0  0
 20 22  1  0  0  0  0
 20 50  1  0  0  0  0
 21 25  1  0  0  0  0
 21 51  1  0  0  0  0
 22 25  2  0  0  0  0
 22 53  1  0  0  0  0
 23 26  2  0  0  0  0
 23 54  1  0  0  0  0
 24 28  2  0  0  0  0
 24 55  1  0  0  0  0
 25 56  1  0  0  0  0
 26 28  1  0  0  0  0
 26 57  1  0  0  0  0
 27 29  1  0  0  0  0
 29 30  2  0  0  0  0
 30 31  1  0  0  0  0
 31 32  1  0  0  0  0
 31 33  2  0  0  0  0
 32 34  2  0  0  0  0
 33 35  1  0  0  0  0
 33 58  1  0  0  0  0
 34 36  1  0  0  0  0
 34 59  1  0  0  0  0
 35 36  2  0  0  0  0
 35 60  1  0  0  0  0
 36 61  1  0  0  0  0
 37 38  1  0  0  0  0
 37 62  1  0  0  0  0
 37 63  1  0  0  0  0
 38 64  1  0  0  0  0
 38 65  1  0  0  0  0
 38 66  1  0  0  0  0
M  END
> <PUBCHEM_COMPOUND_CID>
44415673

> <PUBCHEM_COMPOUND_CANONICALIZED>
1

> <PUBCHEM_CACTVS_COMPLEXITY>
870

> <PUBCHEM_CACTVS_HBOND_ACCEPTOR>
6

> <PUBCHEM_CACTVS_HBOND_DONOR>
1

> <PUBCHEM_CACTVS_ROTATABLE_BOND>
5

> <PUBCHEM_CACTVS_SUBSKEYS>
AAADceB7sABEAAAAAAAAAAAAAAAAASAAAAA8YMEABAAAAEgB9AAAHgYYAAAADA7h2CYzx8NiBAisAidydACDDIElLxBbqBssftgMZvbl/5uWOWjm4BHo6QeYyKCOAABAAAIGACAAAIAABAwAQAAAAAAAAA==

> <PUBCHEM_IUPAC_OPENEYE_NAME>
N-[3-chloro-6-(4-methylpiperazin-1-yl)benzo[b][1,4]benzodiazepin-11-yl]-3-ethoxy-benzothiophene-2-carboxamide

> <PUBCHEM_IUPAC_CAS_NAME>
N-[3-chloro-6-(4-methyl-1-piperazinyl)-11-benzo[b][1,4]benzodiazepinyl]-3-ethoxy-1-benzothiophene-2-carboxamide

> <PUBCHEM_IUPAC_NAME_MARKUP>
<I>N</I>-[3-chloro-6-(4-methylpiperazin-1-yl)benzo[b][1,4]benzodiazepin-11-yl]-3-ethoxy-1-benzothiophene-2-carboxamide

> <PUBCHEM_IUPAC_NAME>
N-[3-chloro-6-(4-methylpiperazin-1-yl)benzo[b][1,4]benzodiazepin-11-yl]-3-ethoxy-1-benzothiophene-2-carboxamide

> <PUBCHEM_IUPAC_SYSTEMATIC_NAME>
N-[3-chloranyl-6-(4-methylpiperazin-1-yl)benzo[b][1,4]benzodiazepin-11-yl]-3-ethoxy-1-benzothiophene-2-carboxamide

> <PUBCHEM_IUPAC_TRADITIONAL_NAME>
N-[3-chloro-6-(4-methylpiperazino)benzo[b][1,4]benzodiazepin-11-yl]-3-ethoxy-benzothiophene-2-carboxamide

> <PUBCHEM_IUPAC_INCHI>
InChI=1S/C29H28ClN5O2S/c1-3-37-26-21-9-5-7-11-25(21)38-27(26)29(36)32-35-23-10-6-4-8-20(23)28(34-16-14-33(2)15-17-34)31-22-18-19(30)12-13-24(22)35/h4-13,18H,3,14-17H2,1-2H3,(H,32,36)

> <PUBCHEM_IUPAC_INCHIKEY>
XUTRVIHVFHKDOS-UHFFFAOYSA-N

> <PUBCHEM_XLOGP3_AA>
6.1

> <PUBCHEM_EXACT_MASS>
545.1652240

> <PUBCHEM_MOLECULAR_FORMULA>
C29H28ClN5O2S

> <PUBCHEM_MOLECULAR_WEIGHT>
546.1

> <PUBCHEM_OPENEYE_CAN_SMILES>
CCOC1=C(SC2=CC=CC=C21)C(=O)NN3C4=C(C=C(C=C4)Cl)N=C(C5=CC=CC=C53)N6CCN(CC6)C

> <PUBCHEM_OPENEYE_ISO_SMILES>
CCOC1=C(SC2=CC=CC=C21)C(=O)NN3C4=C(C=C(C=C4)Cl)N=C(C5=CC=CC=C53)N6CCN(CC6)C

> <PUBCHEM_CACTVS_TPSA>
88.6

> <PUBCHEM_MONOISOTOPIC_WEIGHT>
545.1652240

> <PUBCHEM_TOTAL_CHARGE>
0

> <PUBCHEM_HEAVY_ATOM_COUNT>
38

> <PUBCHEM_ATOM_DEF_STEREO_COUNT>
0

> <PUBCHEM_ATOM_UDEF_STEREO_COUNT>
0

> <PUBCHEM_BOND_DEF_STEREO_COUNT>
0

> <PUBCHEM_BOND_UDEF_STEREO_COUNT>
0

> <PUBCHEM_ISOTOPIC_ATOM_COUNT>
0

> <PUBCHEM_COMPONENT_COUNT>
1

> <PUBCHEM_CACTVS_TAUTO_COUNT>
-1

> <PUBCHEM_COORDINATE_TYPE>
1
5
255

> <PUBCHEM_BONDANNOTATIONS>
15  17  8
15  20  8
17  21  8
18  19  8
18  23  8
19  24  8
2  29  8
2  32  8
20  22  8
21  25  8
22  25  8
23  26  8
24  28  8
26  28  8
29  30  8
30  31  8
31  32  8
31  33  8
32  34  8
33  35  8
34  36  8
35  36  8

$$$$
