155544709
  -OEChem-09292322092D

 57 61  0     0  0  0  0  0  0999 V2000
    5.4841    3.1099    0.0000 S   0  0  0  0  0  0  0  0  0  0  0  0
    2.0000   -3.7714    0.0000 F   0  0  0  0  0  0  0  0  0  0  0  0
    3.3942   -4.0087    0.0000 F   0  0  0  0  0  0  0  0  0  0  0  0
    2.2374   -2.3772    0.0000 F   0  0  0  0  0  0  0  0  0  0  0  0
   10.2033    2.0843    0.0000 O   0  0  0  0  0  0  0  0  0  0  0  0
    8.5898    0.9025    0.0000 N   0  0  0  0  0  0  0  0  0  0  0  0
    6.7511    1.7499    0.0000 N   0  0  0  0  0  0  0  0  0  0  0  0
    6.0253    0.1025    0.0000 N   0  0  0  0  0  0  0  0  0  0  0  0
    4.2612   -0.0449    0.0000 N   0  0  0  0  0  0  0  0  0  0  0  0
    4.1751    2.1588    0.0000 C   0  0  0  0  0  0  0  0  0  0  0  0
    3.2545    1.8204    0.0000 C   0  0  0  0  0  0  0  0  0  0  0  0
    2.4146    2.3268    0.0000 C   0  0  0  0  0  0  0  0  0  0  0  0
    2.2843    3.2989    0.0000 C   0  0  0  0  0  0  0  0  0  0  0  0
    2.9611    4.0087    0.0000 C   0  0  0  0  0  0  0  0  0  0  0  0
    3.9383    3.9248    0.0000 C   0  0  0  0  0  0  0  0  0  0  0  0
    4.4841    3.1099    0.0000 C   0  0  0  0  0  0  0  0  0  0  0  0
    4.9841    1.5710    0.0000 C   0  0  0  0  0  0  0  0  0  0  0  0
    5.7931    2.1588    0.0000 C   0  0  0  0  0  0  0  0  0  0  0  0
    5.0770    0.5335    0.0000 C   0  0  0  0  0  0  0  0  0  0  0  0
    7.7831    0.3116    0.0000 C   0  0  0  0  0  0  0  0  0  0  0  0
    8.4815    1.8966    0.0000 C   0  0  0  0  0  0  0  0  0  0  0  0
    9.5049    0.4993    0.0000 C   0  0  0  0  0  0  0  0  0  0  0  0
    6.8680    0.7148    0.0000 C   0  0  0  0  0  0  0  0  0  0  0  0
    9.2882    2.4875    0.0000 C   0  0  0  0  0  0  0  0  0  0  0  0
   10.3117    1.0902    0.0000 C   0  0  0  0  0  0  0  0  0  0  0  0
    4.3543   -1.0405    0.0000 C   0  0  0  0  0  0  0  0  0  0  0  0
    3.5385   -1.6189    0.0000 C   0  0  0  0  0  0  0  0  0  0  0  0
    5.2630   -1.4578    0.0000 C   0  0  0  0  0  0  0  0  0  0  0  0
    3.6315   -2.6146    0.0000 C   0  0  0  0  0  0  0  0  0  0  0  0
    5.3561   -2.4534    0.0000 C   0  0  0  0  0  0  0  0  0  0  0  0
    4.5403   -3.0318    0.0000 C   0  0  0  0  0  0  0  0  0  0  0  0
    2.8158   -3.1930    0.0000 C   0  0  0  0  0  0  0  0  0  0  0  0
    2.8239    1.3744    0.0000 H   0  0  0  0  0  0  0  0  0  0  0  0
    3.5931    1.3009    0.0000 H   0  0  0  0  0  0  0  0  0  0  0  0
    1.7972    2.3838    0.0000 H   0  0  0  0  0  0  0  0  0  0  0  0
    2.2212    1.7378    0.0000 H   0  0  0  0  0  0  0  0  0  0  0  0
    1.9425    3.8162    0.0000 H   0  0  0  0  0  0  0  0  0  0  0  0
    1.7037    3.0813    0.0000 H   0  0  0  0  0  0  0  0  0  0  0  0
    3.1508    4.5990    0.0000 H   0  0  0  0  0  0  0  0  0  0  0  0
    2.4282    4.3255    0.0000 H   0  0  0  0  0  0  0  0  0  0  0  0
    4.5175    4.1460    0.0000 H   0  0  0  0  0  0  0  0  0  0  0  0
    3.8520    4.5387    0.0000 H   0  0  0  0  0  0  0  0  0  0  0  0
    7.4384   -0.2037    0.0000 H   0  0  0  0  0  0  0  0  0  0  0  0
    8.2307   -0.1174    0.0000 H   0  0  0  0  0  0  0  0  0  0  0  0
    8.2075    2.4528    0.0000 H   0  0  0  0  0  0  0  0  0  0  0  0
    7.8862    1.7234    0.0000 H   0  0  0  0  0  0  0  0  0  0  0  0
    9.1602   -0.0161    0.0000 H   0  0  0  0  0  0  0  0  0  0  0  0
    9.9526    0.0703    0.0000 H   0  0  0  0  0  0  0  0  0  0  0  0
    9.6329    3.0028    0.0000 H   0  0  0  0  0  0  0  0  0  0  0  0
    8.8406    2.9165    0.0000 H   0  0  0  0  0  0  0  0  0  0  0  0
   10.5856    0.5340    0.0000 H   0  0  0  0  0  0  0  0  0  0  0  0
   10.9070    1.2634    0.0000 H   0  0  0  0  0  0  0  0  0  0  0  0
    3.6978    0.2139    0.0000 H   0  0  0  0  0  0  0  0  0  0  0  0
    2.9750   -1.3602    0.0000 H   0  0  0  0  0  0  0  0  0  0  0  0
    5.7688   -1.0992    0.0000 H   0  0  0  0  0  0  0  0  0  0  0  0
    5.9195   -2.7122    0.0000 H   0  0  0  0  0  0  0  0  0  0  0  0
    4.5980   -3.6492    0.0000 H   0  0  0  0  0  0  0  0  0  0  0  0
  1 16  1  0  0  0  0
  1 18  1  0  0  0  0
  2 32  1  0  0  0  0
  3 32  1  0  0  0  0
  4 32  1  0  0  0  0
  5 24  1  0  0  0  0
  5 25  1  0  0  0  0
  6 20  1  0  0  0  0
  6 21  1  0  0  0  0
  6 22  1  0  0  0  0
  7 18  2  0  0  0  0
  7 23  1  0  0  0  0
  8 19  1  0  0  0  0
  8 23  2  0  0  0  0
  9 19  1  0  0  0  0
  9 26  1  0  0  0  0
  9 53  1  0  0  0  0
 10 11  1  0  0  0  0
 10 16  2  0  0  0  0
 10 17  1  0  0  0  0
 11 12  1  0  0  0  0
 11 33  1  0  0  0  0
 11 34  1  0  0  0  0
 12 13  1  0  0  0  0
 12 35  1  0  0  0  0
 12 36  1  0  0  0  0
 13 14  1  0  0  0  0
 13 37  1  0  0  0  0
 13 38  1  0  0  0  0
 14 15  1  0  0  0  0
 14 39  1  0  0  0  0
 14 40  1  0  0  0  0
 15 16  1  0  0  0  0
 15 41  1  0  0  0  0
 15 42  1  0  0  0  0
 17 18  1  0  0  0  0
 17 19  2  0  0  0  0
 20 23  1  0  0  0  0
 20 43  1  0  0  0  0
 20 44  1  0  0  0  0
 21 24  1  0  0  0  0
 21 45  1  0  0  0  0
 21 46  1  0  0  0  0
 22 25  1  0  0  0  0
 22 47  1  0  0  0  0
 22 48  1  0  0  0  0
 24 49  1  0  0  0  0
 24 50  1  0  0  0  0
 25 51  1  0  0  0  0
 25 52  1  0  0  0  0
 26 27  1  0  0  0  0
 26 28  2  0  0  0  0
 27 29  2  0  0  0  0
 27 54  1  0  0  0  0
 28 30  1  0  0  0  0
 28 55  1  0  0  0  0
 29 31  1  0  0  0  0
 29 32  1  0  0  0  0
 30 31  2  0  0  0  0
 30 56  1  0  0  0  0
 31 57  1  0  0  0  0
M  END
> <PUBCHEM_COMPOUND_CID>
155544709

> <PUBCHEM_COMPOUND_CANONICALIZED>
1

> <PUBCHEM_CACTVS_COMPLEXITY>
621

> <PUBCHEM_CACTVS_HBOND_ACCEPTOR>
9

> <PUBCHEM_CACTVS_HBOND_DONOR>
1

> <PUBCHEM_CACTVS_ROTATABLE_BOND>
4

> <PUBCHEM_CACTVS_SUBSKEYS>
AAADceB7oYBAAAAAAAAAAAAAAAAAASAAAAA8WIAABgAAAFiR/AAAHwQQAAAADAjh2xYx8dfIFAikAiZiZACD0KlhCrgJmDA4ZJiKaGLg2dGXJAxokAL4yCcQgMAOgAAAQAAAAAAAAACAAAAAAAAAAAAAAA==

> <PUBCHEM_IUPAC_OPENEYE_NAME>
5-(morpholinomethyl)-N-[3-(trifluoromethyl)phenyl]-8-thia-4,6-diazatricyclo[7.5.0.02,7]tetradeca-1(9),2,4,6-tetraen-3-amine

> <PUBCHEM_IUPAC_CAS_NAME>
5-(4-morpholinylmethyl)-N-[3-(trifluoromethyl)phenyl]-8-thia-4,6-diazatricyclo[7.5.0.02,7]tetradeca-1(9),2,4,6-tetraen-3-amine

> <PUBCHEM_IUPAC_NAME_MARKUP>
5-(morpholin-4-ylmethyl)-<I>N</I>-[3-(trifluoromethyl)phenyl]-8-thia-4,6-diazatricyclo[7.5.0.0<SUP>2,7</SUP>]tetradeca-1(9),2,4,6-tetraen-3-amine

> <PUBCHEM_IUPAC_NAME>
5-(morpholin-4-ylmethyl)-N-[3-(trifluoromethyl)phenyl]-8-thia-4,6-diazatricyclo[7.5.0.02,7]tetradeca-1(9),2,4,6-tetraen-3-amine

> <PUBCHEM_IUPAC_SYSTEMATIC_NAME>
5-(morpholin-4-ylmethyl)-N-[3-(trifluoromethyl)phenyl]-8-thia-4,6-diazatricyclo[7.5.0.02,7]tetradeca-1(9),2,4,6-tetraen-3-amine

> <PUBCHEM_IUPAC_TRADITIONAL_NAME>
[5-(morpholinomethyl)-8-thia-4,6-diazatricyclo[7.5.0.02,7]tetradeca-1(9),2,4,6-tetraen-3-yl]-[3-(trifluoromethyl)phenyl]amine

> <PUBCHEM_IUPAC_INCHI>
InChI=1S/C23H25F3N4OS/c24-23(25,26)15-5-4-6-16(13-15)27-21-20-17-7-2-1-3-8-18(17)32-22(20)29-19(28-21)14-30-9-11-31-12-10-30/h4-6,13H,1-3,7-12,14H2,(H,27,28,29)

> <PUBCHEM_IUPAC_INCHIKEY>
HACKGIHMYLSTKK-UHFFFAOYSA-N

> <PUBCHEM_XLOGP3_AA>
5.6

> <PUBCHEM_EXACT_MASS>
462.17011709

> <PUBCHEM_MOLECULAR_FORMULA>
C23H25F3N4OS

> <PUBCHEM_MOLECULAR_WEIGHT>
462.5

> <PUBCHEM_OPENEYE_CAN_SMILES>
C1CCC2=C(CC1)SC3=NC(=NC(=C23)NC4=CC=CC(=C4)C(F)(F)F)CN5CCOCC5

> <PUBCHEM_OPENEYE_ISO_SMILES>
C1CCC2=C(CC1)SC3=NC(=NC(=C23)NC4=CC=CC(=C4)C(F)(F)F)CN5CCOCC5

> <PUBCHEM_CACTVS_TPSA>
78.5

> <PUBCHEM_MONOISOTOPIC_WEIGHT>
462.17011709

> <PUBCHEM_TOTAL_CHARGE>
0

> <PUBCHEM_HEAVY_ATOM_COUNT>
32

> <PUBCHEM_ATOM_DEF_STEREO_COUNT>
0

> <PUBCHEM_ATOM_UDEF_STEREO_COUNT>
0

> <PUBCHEM_BOND_DEF_STEREO_COUNT>
0

> <PUBCHEM_BOND_UDEF_STEREO_COUNT>
0

> <PUBCHEM_ISOTOPIC_ATOM_COUNT>
0

> <PUBCHEM_COMPONENT_COUNT>
1

> <PUBCHEM_CACTVS_TAUTO_COUNT>
-1

> <PUBCHEM_COORDINATE_TYPE>
1
5
255

> <PUBCHEM_BONDANNOTATIONS>
1  16  8
1  18  8
10  16  8
10  17  8
17  18  8
17  19  8
26  27  8
26  28  8
27  29  8
28  30  8
29  31  8
30  31  8
7  18  8
7  23  8
8  19  8
8  23  8

$$$$
