22403070
  -OEChem-09292322212D

 61 63  0     1  0  0  0  0  0999 V2000
    6.3301   -5.0168    0.0000 S   0  0  0  0  0  0  0  0  0  0  0  0
    2.8660   -3.0168    0.0000 O   0  0  0  0  0  0  0  0  0  0  0  0
    5.8301   -5.8828    0.0000 O   0  0  0  0  0  0  0  0  0  0  0  0
    6.8301   -4.1508    0.0000 O   0  0  0  0  0  0  0  0  0  0  0  0
    4.9562    5.7078    0.0000 O   0  0  0  0  0  0  0  0  0  0  0  0
    3.9170    1.2446    0.0000 N   0  0  3  0  0  0  0  0  0  0  0  0
    3.7891   -1.4290    0.0000 N   0  0  0  0  0  0  0  0  0  0  0  0
    3.5103    0.3310    0.0000 C   0  0  0  0  0  0  0  0  0  0  0  0
    4.0981   -0.4780    0.0000 C   0  0  0  0  0  0  0  0  0  0  0  0
    3.3292    2.0536    0.0000 C   0  0  0  0  0  0  0  0  0  0  0  0
    4.5981   -2.0168    0.0000 C   0  0  0  0  0  0  0  0  0  0  0  0
    4.9116    1.3491    0.0000 C   0  0  0  0  0  0  0  0  0  0  0  0
    4.5981   -3.0168    0.0000 C   0  0  0  0  0  0  0  0  0  0  0  0
    5.0981   -0.4780    0.0000 C   0  0  0  0  0  0  0  0  0  0  0  0
    5.4071   -1.4290    0.0000 C   0  0  0  0  0  0  0  0  0  0  0  0
    5.4641   -4.5168    0.0000 C   0  0  0  0  0  0  0  0  0  0  0  0
    3.7360    2.9672    0.0000 C   0  0  0  0  0  0  0  0  0  0  0  0
    5.4641   -3.5168    0.0000 C   0  0  0  0  0  0  0  0  0  0  0  0
    3.7320   -3.5168    0.0000 C   0  0  0  0  0  0  0  0  0  0  0  0
    5.3183    2.2627    0.0000 C   0  0  0  0  0  0  0  0  0  0  0  0
    7.1962   -5.5168    0.0000 C   0  0  0  0  0  0  0  0  0  0  0  0
    4.5981   -5.0168    0.0000 C   0  0  0  0  0  0  0  0  0  0  0  0
    3.7320   -4.5168    0.0000 C   0  0  0  0  0  0  0  0  0  0  0  0
    3.1482    3.7762    0.0000 C   0  0  0  0  0  0  0  0  0  0  0  0
    4.7305    3.0717    0.0000 C   0  0  0  0  0  0  0  0  0  0  0  0
    7.1962   -6.5168    0.0000 C   0  0  0  0  0  0  0  0  0  0  0  0
    3.5549    4.6897    0.0000 C   0  0  0  0  0  0  0  0  0  0  0  0
    5.1372    3.9852    0.0000 C   0  0  0  0  0  0  0  0  0  0  0  0
    4.5494    4.7942    0.0000 C   0  0  0  0  0  0  0  0  0  0  0  0
    2.0000   -3.5168    0.0000 C   0  0  0  0  0  0  0  0  0  0  0  0
    4.3684    6.5168    0.0000 C   0  0  0  0  0  0  0  0  0  0  0  0
    2.9963    0.6777    0.0000 H   0  0  0  0  0  0  0  0  0  0  0  0
    3.0796   -0.1149    0.0000 H   0  0  0  0  0  0  0  0  0  0  0  0
    2.8152    2.4003    0.0000 H   0  0  0  0  0  0  0  0  0  0  0  0
    2.8986    1.6076    0.0000 H   0  0  0  0  0  0  0  0  0  0  0  0
    4.8683    0.7306    0.0000 H   0  0  0  0  0  0  0  0  0  0  0  0
    5.5131    1.1991    0.0000 H   0  0  0  0  0  0  0  0  0  0  0  0
    3.1994   -1.6206    0.0000 H   0  0  0  0  0  0  0  0  0  0  0  0
    5.4625    0.0236    0.0000 H   0  0  0  0  0  0  0  0  0  0  0  0
    5.9967   -1.6206    0.0000 H   0  0  0  0  0  0  0  0  0  0  0  0
    6.0010   -3.2068    0.0000 H   0  0  0  0  0  0  0  0  0  0  0  0
    5.8847    2.0105    0.0000 H   0  0  0  0  0  0  0  0  0  0  0  0
    5.5705    2.8291    0.0000 H   0  0  0  0  0  0  0  0  0  0  0  0
    4.7519    2.5148    0.0000 H   0  0  0  0  0  0  0  0  0  0  0  0
    7.8067   -5.6245    0.0000 H   0  0  0  0  0  0  0  0  0  0  0  0
    7.4082   -4.9342    0.0000 H   0  0  0  0  0  0  0  0  0  0  0  0
    4.5981   -5.6368    0.0000 H   0  0  0  0  0  0  0  0  0  0  0  0
    3.1951   -4.8268    0.0000 H   0  0  0  0  0  0  0  0  0  0  0  0
    2.5316    3.7114    0.0000 H   0  0  0  0  0  0  0  0  0  0  0  0
    5.0949    2.5701    0.0000 H   0  0  0  0  0  0  0  0  0  0  0  0
    6.5762   -6.5168    0.0000 H   0  0  0  0  0  0  0  0  0  0  0  0
    7.1962   -7.1368    0.0000 H   0  0  0  0  0  0  0  0  0  0  0  0
    7.8162   -6.5168    0.0000 H   0  0  0  0  0  0  0  0  0  0  0  0
    3.1905    5.1913    0.0000 H   0  0  0  0  0  0  0  0  0  0  0  0
    5.7538    4.0500    0.0000 H   0  0  0  0  0  0  0  0  0  0  0  0
    1.6900   -2.9799    0.0000 H   0  0  0  0  0  0  0  0  0  0  0  0
    1.4631   -3.8268    0.0000 H   0  0  0  0  0  0  0  0  0  0  0  0
    2.3100   -4.0538    0.0000 H   0  0  0  0  0  0  0  0  0  0  0  0
    4.8700    6.8812    0.0000 H   0  0  0  0  0  0  0  0  0  0  0  0
    4.0040    7.0184    0.0000 H   0  0  0  0  0  0  0  0  0  0  0  0
    3.8668    6.1524    0.0000 H   0  0  0  0  0  0  0  0  0  0  0  0
  1  3  2  0  0  0  0
  1  4  2  0  0  0  0
  1 16  1  0  0  0  0
  1 21  1  0  0  0  0
  2 19  1  0  0  0  0
  2 30  1  0  0  0  0
  5 29  1  0  0  0  0
  5 31  1  0  0  0  0
  6  8  1  0  0  0  0
  6 10  1  0  0  0  0
  6 12  1  0  0  0  0
  7  9  1  0  0  0  0
  7 11  1  0  0  0  0
  7 38  1  0  0  0  0
  8  9  1  0  0  0  0
  8 32  1  0  0  0  0
  8 33  1  0  0  0  0
  9 14  2  0  0  0  0
 10 17  1  0  0  0  0
 10 34  1  0  0  0  0
 10 35  1  0  0  0  0
 11 13  1  0  0  0  0
 11 15  2  0  0  0  0
 12 20  1  0  0  0  0
 12 36  1  0  0  0  0
 12 37  1  0  0  0  0
 13 18  1  0  0  0  0
 13 19  2  0  0  0  0
 14 15  1  0  0  0  0
 14 39  1  0  0  0  0
 15 40  1  0  0  0  0
 16 18  2  0  0  0  0
 16 22  1  0  0  0  0
 17 24  2  0  0  0  0
 17 25  1  0  0  0  0
 18 41  1  0  0  0  0
 19 23  1  0  0  0  0
 20 42  1  0  0  0  0
 20 43  1  0  0  0  0
 20 44  1  0  0  0  0
 21 26  1  0  0  0  0
 21 45  1  0  0  0  0
 21 46  1  0  0  0  0
 22 23  2  0  0  0  0
 22 47  1  0  0  0  0
 23 48  1  0  0  0  0
 24 27  1  0  0  0  0
 24 49  1  0  0  0  0
 25 28  2  0  0  0  0
 25 50  1  0  0  0  0
 26 51  1  0  0  0  0
 26 52  1  0  0  0  0
 26 53  1  0  0  0  0
 27 29  2  0  0  0  0
 27 54  1  0  0  0  0
 28 29  1  0  0  0  0
 28 55  1  0  0  0  0
 30 56  1  0  0  0  0
 30 57  1  0  0  0  0
 30 58  1  0  0  0  0
 31 59  1  0  0  0  0
 31 60  1  0  0  0  0
 31 61  1  0  0  0  0
M  END
> <PUBCHEM_COMPOUND_CID>
22403070

> <PUBCHEM_COMPOUND_CANONICALIZED>
1

> <PUBCHEM_CACTVS_COMPLEXITY>
630

> <PUBCHEM_CACTVS_HBOND_ACCEPTOR>
5

> <PUBCHEM_CACTVS_HBOND_DONOR>
1

> <PUBCHEM_CACTVS_ROTATABLE_BOND>
10

> <PUBCHEM_CACTVS_SUBSKEYS>
AAADceB7OABAAAAAAAAAAAAAAAAAAWAAAAAwYAAAAAAAAAAB0AAAHgQQAAAADAzF3gayh5PJlAqgAyRiRHDCiCAhKjAImTg+bJgMZuLksZuUMChm0BHo6AeQ0OIOIIAAgAAIAABBAAEAABAAAAAAAAAAAA==

> <PUBCHEM_IUPAC_OPENEYE_NAME>
N-[[5-(5-ethylsulfonyl-2-methoxy-phenyl)-1H-pyrrol-2-yl]methyl]-N-[(4-methoxyphenyl)methyl]ethanamine

> <PUBCHEM_IUPAC_CAS_NAME>
N-[[5-(5-ethylsulfonyl-2-methoxyphenyl)-1H-pyrrol-2-yl]methyl]-N-[(4-methoxyphenyl)methyl]ethanamine

> <PUBCHEM_IUPAC_NAME_MARKUP>
<I>N</I>-[[5-(5-ethylsulfonyl-2-methoxyphenyl)-1<I>H</I>-pyrrol-2-yl]methyl]-<I>N</I>-[(4-methoxyphenyl)methyl]ethanamine

> <PUBCHEM_IUPAC_NAME>
N-[[5-(5-ethylsulfonyl-2-methoxyphenyl)-1H-pyrrol-2-yl]methyl]-N-[(4-methoxyphenyl)methyl]ethanamine

> <PUBCHEM_IUPAC_SYSTEMATIC_NAME>
N-[[5-(5-ethylsulfonyl-2-methoxy-phenyl)-1H-pyrrol-2-yl]methyl]-N-[(4-methoxyphenyl)methyl]ethanamine

> <PUBCHEM_IUPAC_TRADITIONAL_NAME>
[5-(5-esyl-2-methoxy-phenyl)-1H-pyrrol-2-yl]methyl-ethyl-p-anisyl-amine

> <PUBCHEM_IUPAC_INCHI>
InChI=1S/C24H30N2O4S/c1-5-26(16-18-7-10-20(29-3)11-8-18)17-19-9-13-23(25-19)22-15-21(31(27,28)6-2)12-14-24(22)30-4/h7-15,25H,5-6,16-17H2,1-4H3

> <PUBCHEM_IUPAC_INCHIKEY>
DFUHQLOJRVHHKU-UHFFFAOYSA-N

> <PUBCHEM_XLOGP3_AA>
3.7

> <PUBCHEM_EXACT_MASS>
442.19262862

> <PUBCHEM_MOLECULAR_FORMULA>
C24H30N2O4S

> <PUBCHEM_MOLECULAR_WEIGHT>
442.6

> <PUBCHEM_OPENEYE_CAN_SMILES>
CCN(CC1=CC=C(C=C1)OC)CC2=CC=C(N2)C3=C(C=CC(=C3)S(=O)(=O)CC)OC

> <PUBCHEM_OPENEYE_ISO_SMILES>
CCN(CC1=CC=C(C=C1)OC)CC2=CC=C(N2)C3=C(C=CC(=C3)S(=O)(=O)CC)OC

> <PUBCHEM_CACTVS_TPSA>
80

> <PUBCHEM_MONOISOTOPIC_WEIGHT>
442.19262862

> <PUBCHEM_TOTAL_CHARGE>
0

> <PUBCHEM_HEAVY_ATOM_COUNT>
31

> <PUBCHEM_ATOM_DEF_STEREO_COUNT>
0

> <PUBCHEM_ATOM_UDEF_STEREO_COUNT>
0

> <PUBCHEM_BOND_DEF_STEREO_COUNT>
0

> <PUBCHEM_BOND_UDEF_STEREO_COUNT>
0

> <PUBCHEM_ISOTOPIC_ATOM_COUNT>
0

> <PUBCHEM_COMPONENT_COUNT>
1

> <PUBCHEM_CACTVS_TAUTO_COUNT>
-1

> <PUBCHEM_COORDINATE_TYPE>
1
5
255

> <PUBCHEM_BONDANNOTATIONS>
11  15  8
13  18  8
13  19  8
14  15  8
16  18  8
16  22  8
17  24  8
17  25  8
19  23  8
22  23  8
24  27  8
25  28  8
27  29  8
28  29  8
7  11  8
7  9  8
9  14  8

$$$$
