53304086
  -OEChem-09292322352D

 50 54  0     1  0  0  0  0  0999 V2000
    4.5923    1.1307    0.0000 N   0  0  3  0  0  0  0  0  0  0  0  0
    4.6082   -0.9386    0.0000 N   0  0  3  0  0  0  0  0  0  0  0  0
    6.4783   -3.5872    0.0000 N   0  0  0  0  0  0  0  0  0  0  0  0
    5.4742   -0.4386    0.0000 C   0  0  3  0  0  0  0  0  0  0  0  0
    3.7320    2.6340    0.0000 C   0  0  0  0  0  0  0  0  0  0  0  0
    5.4903    0.6029    0.0000 C   0  0  0  0  0  0  0  0  0  0  0  0
    4.5961    2.1307    0.0000 C   0  0  0  0  0  0  0  0  0  0  0  0
    3.6902    0.6099    0.0000 C   0  0  0  0  0  0  0  0  0  0  0  0
    3.6982   -0.4317    0.0000 C   0  0  0  0  0  0  0  0  0  0  0  0
    6.3403   -0.9386    0.0000 C   0  0  0  0  0  0  0  0  0  0  0  0
    3.7359    3.6340    0.0000 C   0  0  0  0  0  0  0  0  0  0  0  0
    2.8641    2.1374    0.0000 C   0  0  0  0  0  0  0  0  0  0  0  0
    4.6082   -1.9386    0.0000 C   0  0  0  0  0  0  0  0  0  0  0  0
    2.8718    4.1373    0.0000 C   0  0  0  0  0  0  0  0  0  0  0  0
    2.0000    2.6407    0.0000 C   0  0  0  0  0  0  0  0  0  0  0  0
    6.3403   -1.9386    0.0000 C   0  0  0  0  0  0  0  0  0  0  0  0
    5.4742   -2.4386    0.0000 C   0  0  0  0  0  0  0  0  0  0  0  0
    2.0038    3.6407    0.0000 C   0  0  0  0  0  0  0  0  0  0  0  0
    5.4903   -3.4801    0.0000 C   0  0  0  0  0  0  0  0  0  0  0  0
    6.9582   -2.7169    0.0000 C   0  0  0  0  0  0  0  0  0  0  0  0
    3.6982   -2.4454    0.0000 C   0  0  0  0  0  0  0  0  0  0  0  0
    4.5923   -4.0078    0.0000 C   0  0  0  0  0  0  0  0  0  0  0  0
    3.6902   -3.4870    0.0000 C   0  0  0  0  0  0  0  0  0  0  0  0
    6.0136   -0.1327    0.0000 H   0  0  0  0  0  0  0  0  0  0  0  0
    3.7296    2.0140    0.0000 H   0  0  0  0  0  0  0  0  0  0  0  0
    6.0995    0.4874    0.0000 H   0  0  0  0  0  0  0  0  0  0  0  0
    5.7083    1.1833    0.0000 H   0  0  0  0  0  0  0  0  0  0  0  0
    5.2063    2.0206    0.0000 H   0  0  0  0  0  0  0  0  0  0  0  0
    4.8104    2.7125    0.0000 H   0  0  0  0  0  0  0  0  0  0  0  0
    3.4766    1.1919    0.0000 H   0  0  0  0  0  0  0  0  0  0  0  0
    3.0802    0.4991    0.0000 H   0  0  0  0  0  0  0  0  0  0  0  0
    3.0866   -0.3304    0.0000 H   0  0  0  0  0  0  0  0  0  0  0  0
    3.4937   -1.0170    0.0000 H   0  0  0  0  0  0  0  0  0  0  0  0
    6.9509   -1.0462    0.0000 H   0  0  0  0  0  0  0  0  0  0  0  0
    6.5523   -0.3560    0.0000 H   0  0  0  0  0  0  0  0  0  0  0  0
    4.3460    3.5240    0.0000 H   0  0  0  0  0  0  0  0  0  0  0  0
    3.9502    4.2158    0.0000 H   0  0  0  0  0  0  0  0  0  0  0  0
    2.4637    1.6639    0.0000 H   0  0  0  0  0  0  0  0  0  0  0  0
    3.2608    1.6609    0.0000 H   0  0  0  0  0  0  0  0  0  0  0  0
    3.2722    4.6107    0.0000 H   0  0  0  0  0  0  0  0  0  0  0  0
    2.4751    4.6138    0.0000 H   0  0  0  0  0  0  0  0  0  0  0  0
    1.3898    2.7507    0.0000 H   0  0  0  0  0  0  0  0  0  0  0  0
    1.7857    2.0589    0.0000 H   0  0  0  0  0  0  0  0  0  0  0  0
    1.7940    4.2241    0.0000 H   0  0  0  0  0  0  0  0  0  0  0  0
    1.3929    3.5354    0.0000 H   0  0  0  0  0  0  0  0  0  0  0  0
    7.5760   -2.6652    0.0000 H   0  0  0  0  0  0  0  0  0  0  0  0
    3.1649   -2.1292    0.0000 H   0  0  0  0  0  0  0  0  0  0  0  0
    6.7643   -4.1373    0.0000 H   0  0  0  0  0  0  0  0  0  0  0  0
    4.5947   -4.6278    0.0000 H   0  0  0  0  0  0  0  0  0  0  0  0
    3.1521   -3.7950    0.0000 H   0  0  0  0  0  0  0  0  0  0  0  0
  1  6  1  0  0  0  0
  1  7  1  0  0  0  0
  1  8  1  0  0  0  0
  2  4  1  0  0  0  0
  2  9  1  0  0  0  0
  2 13  1  0  0  0  0
  3 19  1  0  0  0  0
  3 20  1  0  0  0  0
  3 48  1  0  0  0  0
  4  6  1  0  0  0  0
  4 10  1  0  0  0  0
  4 24  1  0  0  0  0
  5  7  1  0  0  0  0
  5 11  1  0  0  0  0
  5 12  1  0  0  0  0
  5 25  1  0  0  0  0
  6 26  1  0  0  0  0
  6 27  1  0  0  0  0
  7 28  1  0  0  0  0
  7 29  1  0  0  0  0
  8  9  1  0  0  0  0
  8 30  1  0  0  0  0
  8 31  1  0  0  0  0
  9 32  1  0  0  0  0
  9 33  1  0  0  0  0
 10 16  1  0  0  0  0
 10 34  1  0  0  0  0
 10 35  1  0  0  0  0
 11 14  1  0  0  0  0
 11 36  1  0  0  0  0
 11 37  1  0  0  0  0
 12 15  1  0  0  0  0
 12 38  1  0  0  0  0
 12 39  1  0  0  0  0
 13 17  1  0  0  0  0
 13 21  2  0  0  0  0
 14 18  1  0  0  0  0
 14 40  1  0  0  0  0
 14 41  1  0  0  0  0
 15 18  1  0  0  0  0
 15 42  1  0  0  0  0
 15 43  1  0  0  0  0
 16 17  1  0  0  0  0
 16 20  2  0  0  0  0
 17 19  2  0  0  0  0
 18 44  1  0  0  0  0
 18 45  1  0  0  0  0
 19 22  1  0  0  0  0
 20 46  1  0  0  0  0
 21 23  1  0  0  0  0
 21 47  1  0  0  0  0
 22 23  2  0  0  0  0
 22 49  1  0  0  0  0
 23 50  1  0  0  0  0
M  END
> <PUBCHEM_COMPOUND_CID>
53304086

> <PUBCHEM_COMPOUND_CANONICALIZED>
1

> <PUBCHEM_CACTVS_COMPLEXITY>
419

> <PUBCHEM_CACTVS_HBOND_ACCEPTOR>
2

> <PUBCHEM_CACTVS_HBOND_DONOR>
1

> <PUBCHEM_CACTVS_ROTATABLE_BOND>
2

> <PUBCHEM_CACTVS_SUBSKEYS>
AAADceB7AAAAAAAAAAAAAAAAAAAAAWAAAAA8eIEAAAAAAFix8AAAHAAQAAAADSjBHgQ8wPPJkACgAzRnRACCgCAxAiAI2aA4ZJgIYOLA0dGUJAhgkADIyAcQgMAOgAAAAAQCAAAAAAAACAQAAAAAAAAAAA==

> <PUBCHEM_IUPAC_OPENEYE_NAME>
5-(cyclohexylmethyl)-2,5,11-triazatetracyclo[7.6.1.02,7.012,16]hexadeca-1(15),9,12(16),13-tetraene

> <PUBCHEM_IUPAC_CAS_NAME>
5-(cyclohexylmethyl)-2,5,11-triazatetracyclo[7.6.1.02,7.012,16]hexadeca-1(15),9,12(16),13-tetraene

> <PUBCHEM_IUPAC_NAME_MARKUP>
5-(cyclohexylmethyl)-2,5,11-triazatetracyclo[7.6.1.0<SUP>2,7</SUP>.0<SUP>12,16</SUP>]hexadeca-1(15),9,12(16),13-tetraene

> <PUBCHEM_IUPAC_NAME>
5-(cyclohexylmethyl)-2,5,11-triazatetracyclo[7.6.1.02,7.012,16]hexadeca-1(15),9,12(16),13-tetraene

> <PUBCHEM_IUPAC_SYSTEMATIC_NAME>
5-(cyclohexylmethyl)-2,5,11-triazatetracyclo[7.6.1.02,7.012,16]hexadeca-1(15),9,12(16),13-tetraene

> <PUBCHEM_IUPAC_TRADITIONAL_NAME>
5-(cyclohexylmethyl)-2,5,11-triazatetracyclo[7.6.1.02,7.012,16]hexadeca-1(15),9,12(16),13-tetraene

> <PUBCHEM_IUPAC_INCHI>
InChI=1S/C20H27N3/c1-2-5-15(6-3-1)13-22-9-10-23-17(14-22)11-16-12-21-18-7-4-8-19(23)20(16)18/h4,7-8,12,15,17,21H,1-3,5-6,9-11,13-14H2

> <PUBCHEM_IUPAC_INCHIKEY>
FKYWQYRHUAFYJR-UHFFFAOYSA-N

> <PUBCHEM_XLOGP3_AA>
4.5

> <PUBCHEM_EXACT_MASS>
309.220497874

> <PUBCHEM_MOLECULAR_FORMULA>
C20H27N3

> <PUBCHEM_MOLECULAR_WEIGHT>
309.4

> <PUBCHEM_OPENEYE_CAN_SMILES>
C1CCC(CC1)CN2CCN3C(C2)CC4=CNC5=C4C3=CC=C5

> <PUBCHEM_OPENEYE_ISO_SMILES>
C1CCC(CC1)CN2CCN3C(C2)CC4=CNC5=C4C3=CC=C5

> <PUBCHEM_CACTVS_TPSA>
22.3

> <PUBCHEM_MONOISOTOPIC_WEIGHT>
309.220497874

> <PUBCHEM_TOTAL_CHARGE>
0

> <PUBCHEM_HEAVY_ATOM_COUNT>
23

> <PUBCHEM_ATOM_DEF_STEREO_COUNT>
0

> <PUBCHEM_ATOM_UDEF_STEREO_COUNT>
1

> <PUBCHEM_BOND_DEF_STEREO_COUNT>
0

> <PUBCHEM_BOND_UDEF_STEREO_COUNT>
0

> <PUBCHEM_ISOTOPIC_ATOM_COUNT>
0

> <PUBCHEM_COMPONENT_COUNT>
1

> <PUBCHEM_CACTVS_TAUTO_COUNT>
-1

> <PUBCHEM_COORDINATE_TYPE>
1
5
255

> <PUBCHEM_BONDANNOTATIONS>
13  17  8
13  21  8
16  17  8
16  20  8
17  19  8
19  22  8
21  23  8
22  23  8
3  19  8
3  20  8
4  10  3

$$$$
