138671652
  -OEChem-09292322452D

 66 70  0     1  0  0  0  0  0999 V2000
    4.3548    4.2023    0.0000 S   0  0  0  0  0  0  0  0  0  0  0  0
    2.3660    7.7695    0.0000 F   0  0  0  0  0  0  0  0  0  0  0  0
    3.7320    7.4035    0.0000 F   0  0  0  0  0  0  0  0  0  0  0  0
    2.0000    6.4035    0.0000 F   0  0  0  0  0  0  0  0  0  0  0  0
    7.1620   -4.2695    0.0000 O   0  0  0  0  0  0  0  0  0  0  0  0
    3.3660    6.0374    0.0000 O   0  0  0  0  0  0  0  0  0  0  0  0
    4.5640    1.2305    0.0000 N   0  0  3  0  0  0  0  0  0  0  0  0
    5.4300   -4.2695    0.0000 N   0  0  0  0  0  0  0  0  0  0  0  0
    2.9609    3.3976    0.0000 N   0  0  0  0  0  0  0  0  0  0  0  0
    8.6919   -6.7695    0.0000 N   0  0  0  0  0  0  0  0  0  0  0  0
    8.1082   -7.5742    0.0000 N   0  0  0  0  0  0  0  0  0  0  0  0
    5.4300   -1.2695    0.0000 C   0  0  0  0  0  0  0  0  0  0  0  0
    6.2960   -1.7695    0.0000 C   0  0  0  0  0  0  0  0  0  0  0  0
    4.5640   -1.7695    0.0000 C   0  0  0  0  0  0  0  0  0  0  0  0
    5.4300   -3.2695    0.0000 C   0  0  0  0  0  0  0  0  0  0  0  0
    6.2960   -2.7695    0.0000 C   0  0  0  0  0  0  0  0  0  0  0  0
    4.5640   -2.7695    0.0000 C   0  0  0  0  0  0  0  0  0  0  0  0
    5.4300   -0.2695    0.0000 C   0  0  0  0  0  0  0  0  0  0  0  0
    4.5640    0.2305    0.0000 C   0  0  0  0  0  0  0  0  0  0  0  0
    5.4300    1.7305    0.0000 C   0  0  0  0  0  0  0  0  0  0  0  0
    3.6979    1.7305    0.0000 C   0  0  0  0  0  0  0  0  0  0  0  0
    5.4300    2.7305    0.0000 C   0  0  0  0  0  0  0  0  0  0  0  0
    3.6979    2.7305    0.0000 C   0  0  0  0  0  0  0  0  0  0  0  0
    4.5640    3.2305    0.0000 C   0  0  0  0  0  0  0  0  0  0  0  0
    6.2960   -4.7695    0.0000 C   0  0  0  0  0  0  0  0  0  0  0  0
    6.2960   -5.7695    0.0000 C   0  0  0  0  0  0  0  0  0  0  0  0
    3.3660    4.3054    0.0000 C   0  0  0  0  0  0  0  0  0  0  0  0
    7.1620   -6.2695    0.0000 C   0  0  0  0  0  0  0  0  0  0  0  0
    5.4300   -6.2695    0.0000 C   0  0  0  0  0  0  0  0  0  0  0  0
    2.8660    5.1714    0.0000 C   0  0  0  0  0  0  0  0  0  0  0  0
    7.1620   -7.2695    0.0000 C   0  0  0  0  0  0  0  0  0  0  0  0
    8.1082   -5.9648    0.0000 C   0  0  0  0  0  0  0  0  0  0  0  0
    5.4300   -7.2695    0.0000 C   0  0  0  0  0  0  0  0  0  0  0  0
    6.2960   -7.7695    0.0000 C   0  0  0  0  0  0  0  0  0  0  0  0
    9.6919   -6.7695    0.0000 C   0  0  0  0  0  0  0  0  0  0  0  0
    2.8660    6.9035    0.0000 C   0  0  0  0  0  0  0  0  0  0  0  0
    5.9669   -0.9595    0.0000 H   0  0  0  0  0  0  0  0  0  0  0  0
    6.9066   -1.8772    0.0000 H   0  0  0  0  0  0  0  0  0  0  0  0
    6.5081   -1.1869    0.0000 H   0  0  0  0  0  0  0  0  0  0  0  0
    4.3519   -1.1869    0.0000 H   0  0  0  0  0  0  0  0  0  0  0  0
    3.9534   -1.8772    0.0000 H   0  0  0  0  0  0  0  0  0  0  0  0
    5.9669   -3.5795    0.0000 H   0  0  0  0  0  0  0  0  0  0  0  0
    6.5081   -3.3521    0.0000 H   0  0  0  0  0  0  0  0  0  0  0  0
    6.9066   -2.6618    0.0000 H   0  0  0  0  0  0  0  0  0  0  0  0
    3.9534   -2.6618    0.0000 H   0  0  0  0  0  0  0  0  0  0  0  0
    4.3519   -3.3521    0.0000 H   0  0  0  0  0  0  0  0  0  0  0  0
    6.0406   -0.3771    0.0000 H   0  0  0  0  0  0  0  0  0  0  0  0
    5.6420    0.3131    0.0000 H   0  0  0  0  0  0  0  0  0  0  0  0
    3.9534    0.3382    0.0000 H   0  0  0  0  0  0  0  0  0  0  0  0
    4.3519   -0.3521    0.0000 H   0  0  0  0  0  0  0  0  0  0  0  0
    4.8930   -4.5795    0.0000 H   0  0  0  0  0  0  0  0  0  0  0  0
    5.6420    1.1479    0.0000 H   0  0  0  0  0  0  0  0  0  0  0  0
    6.0406    1.8382    0.0000 H   0  0  0  0  0  0  0  0  0  0  0  0
    3.0873    1.8382    0.0000 H   0  0  0  0  0  0  0  0  0  0  0  0
    3.4859    1.1479    0.0000 H   0  0  0  0  0  0  0  0  0  0  0  0
    6.0406    2.6228    0.0000 H   0  0  0  0  0  0  0  0  0  0  0  0
    5.6420    3.3131    0.0000 H   0  0  0  0  0  0  0  0  0  0  0  0
    4.8930   -5.9595    0.0000 H   0  0  0  0  0  0  0  0  0  0  0  0
    2.3911    5.5699    0.0000 H   0  0  0  0  0  0  0  0  0  0  0  0
    2.3911    4.7729    0.0000 H   0  0  0  0  0  0  0  0  0  0  0  0
    8.3009   -5.3754    0.0000 H   0  0  0  0  0  0  0  0  0  0  0  0
    4.8930   -7.5795    0.0000 H   0  0  0  0  0  0  0  0  0  0  0  0
    6.2960   -8.3895    0.0000 H   0  0  0  0  0  0  0  0  0  0  0  0
    9.6919   -7.3895    0.0000 H   0  0  0  0  0  0  0  0  0  0  0  0
   10.3119   -6.7695    0.0000 H   0  0  0  0  0  0  0  0  0  0  0  0
    9.6919   -6.1495    0.0000 H   0  0  0  0  0  0  0  0  0  0  0  0
  1 24  1  0  0  0  0
  1 27  1  0  0  0  0
  2 36  1  0  0  0  0
  3 36  1  0  0  0  0
  4 36  1  0  0  0  0
  5 25  2  0  0  0  0
  6 30  1  0  0  0  0
  6 36  1  0  0  0  0
  7 19  1  0  0  0  0
  7 20  1  0  0  0  0
  7 21  1  0  0  0  0
  8 15  1  0  0  0  0
  8 25  1  0  0  0  0
  8 51  1  0  0  0  0
  9 23  1  0  0  0  0
  9 27  2  0  0  0  0
 10 11  1  0  0  0  0
 10 32  1  0  0  0  0
 10 35  1  0  0  0  0
 11 31  2  0  0  0  0
 12 13  1  0  0  0  0
 12 14  1  0  0  0  0
 12 18  1  0  0  0  0
 12 37  1  0  0  0  0
 13 16  1  0  0  0  0
 13 38  1  0  0  0  0
 13 39  1  0  0  0  0
 14 17  1  0  0  0  0
 14 40  1  0  0  0  0
 14 41  1  0  0  0  0
 15 16  1  0  0  0  0
 15 17  1  0  0  0  0
 15 42  1  0  0  0  0
 16 43  1  0  0  0  0
 16 44  1  0  0  0  0
 17 45  1  0  0  0  0
 17 46  1  0  0  0  0
 18 19  1  0  0  0  0
 18 47  1  0  0  0  0
 18 48  1  0  0  0  0
 19 49  1  0  0  0  0
 19 50  1  0  0  0  0
 20 22  1  0  0  0  0
 20 52  1  0  0  0  0
 20 53  1  0  0  0  0
 21 23  1  0  0  0  0
 21 54  1  0  0  0  0
 21 55  1  0  0  0  0
 22 24  1  0  0  0  0
 22 56  1  0  0  0  0
 22 57  1  0  0  0  0
 23 24  2  0  0  0  0
 25 26  1  0  0  0  0
 26 28  1  0  0  0  0
 26 29  2  0  0  0  0
 27 30  1  0  0  0  0
 28 31  1  0  0  0  0
 28 32  2  0  0  0  0
 29 33  1  0  0  0  0
 29 58  1  0  0  0  0
 30 59  1  0  0  0  0
 30 60  1  0  0  0  0
 31 34  1  0  0  0  0
 32 61  1  0  0  0  0
 33 34  2  0  0  0  0
 33 62  1  0  0  0  0
 34 63  1  0  0  0  0
 35 64  1  0  0  0  0
 35 65  1  0  0  0  0
 35 66  1  0  0  0  0
M  END
> <PUBCHEM_COMPOUND_CID>
138671652

> <PUBCHEM_COMPOUND_CANONICALIZED>
1

> <PUBCHEM_CACTVS_COMPLEXITY>
754

> <PUBCHEM_CACTVS_HBOND_ACCEPTOR>
9

> <PUBCHEM_CACTVS_HBOND_DONOR>
1

> <PUBCHEM_CACTVS_ROTATABLE_BOND>
7

> <PUBCHEM_CACTVS_SUBSKEYS>
AAADceB7sYBAAAAAAAAAAAAAAAAAAWLAAAA8YIAAAAAAAFgB/AAAHwQYAAAADSjh3hY+wfPIFAiuAzV3VASS9KB1ijgY2LU4ZNgKYLLg1dGVpQhgngD4yYcciICOgAAAQAASAAAQAACAACQAAAAAAAAAAA==

> <PUBCHEM_IUPAC_OPENEYE_NAME>
2-methyl-N-[4-[2-[2-(trifluoromethoxymethyl)-6,7-dihydro-4H-thiazolo[4,5-c]pyridin-5-yl]ethyl]cyclohexyl]indazole-4-carboxamide

> <PUBCHEM_IUPAC_CAS_NAME>
2-methyl-N-[4-[2-[2-(trifluoromethoxymethyl)-6,7-dihydro-4H-thiazolo[4,5-c]pyridin-5-yl]ethyl]cyclohexyl]-4-indazolecarboxamide

> <PUBCHEM_IUPAC_NAME_MARKUP>
2-methyl-<I>N</I>-[4-[2-[2-(trifluoromethoxymethyl)-6,7-dihydro-4<I>H</I>-[1,3]thiazolo[4,5-c]pyridin-5-yl]ethyl]cyclohexyl]indazole-4-carboxamide

> <PUBCHEM_IUPAC_NAME>
2-methyl-N-[4-[2-[2-(trifluoromethoxymethyl)-6,7-dihydro-4H-[1,3]thiazolo[4,5-c]pyridin-5-yl]ethyl]cyclohexyl]indazole-4-carboxamide

> <PUBCHEM_IUPAC_SYSTEMATIC_NAME>
2-methyl-N-[4-[2-[2-(trifluoromethyloxymethyl)-6,7-dihydro-4H-[1,3]thiazolo[4,5-c]pyridin-5-yl]ethyl]cyclohexyl]indazole-4-carboxamide

> <PUBCHEM_IUPAC_TRADITIONAL_NAME>
2-methyl-N-[4-[2-[2-(trifluoromethoxymethyl)-6,7-dihydro-4H-thiazolo[4,5-c]pyridin-5-yl]ethyl]cyclohexyl]indazole-4-carboxamide

> <PUBCHEM_IUPAC_INCHI>
InChI=1S/C25H30F3N5O2S/c1-32-13-19-18(3-2-4-20(19)31-32)24(34)29-17-7-5-16(6-8-17)9-11-33-12-10-22-21(14-33)30-23(36-22)15-35-25(26,27)28/h2-4,13,16-17H,5-12,14-15H2,1H3,(H,29,34)

> <PUBCHEM_IUPAC_INCHIKEY>
TZTXKAZOHVWLJQ-UHFFFAOYSA-N

> <PUBCHEM_XLOGP3_AA>
4.3

> <PUBCHEM_EXACT_MASS>
521.20723088

> <PUBCHEM_MOLECULAR_FORMULA>
C25H30F3N5O2S

> <PUBCHEM_MOLECULAR_WEIGHT>
521.6

> <PUBCHEM_OPENEYE_CAN_SMILES>
CN1C=C2C(=N1)C=CC=C2C(=O)NC3CCC(CC3)CCN4CCC5=C(C4)N=C(S5)COC(F)(F)F

> <PUBCHEM_OPENEYE_ISO_SMILES>
CN1C=C2C(=N1)C=CC=C2C(=O)NC3CCC(CC3)CCN4CCC5=C(C4)N=C(S5)COC(F)(F)F

> <PUBCHEM_CACTVS_TPSA>
101

> <PUBCHEM_MONOISOTOPIC_WEIGHT>
521.20723088

> <PUBCHEM_TOTAL_CHARGE>
0

> <PUBCHEM_HEAVY_ATOM_COUNT>
36

> <PUBCHEM_ATOM_DEF_STEREO_COUNT>
0

> <PUBCHEM_ATOM_UDEF_STEREO_COUNT>
0

> <PUBCHEM_BOND_DEF_STEREO_COUNT>
0

> <PUBCHEM_BOND_UDEF_STEREO_COUNT>
0

> <PUBCHEM_ISOTOPIC_ATOM_COUNT>
0

> <PUBCHEM_COMPONENT_COUNT>
1

> <PUBCHEM_CACTVS_TAUTO_COUNT>
-1

> <PUBCHEM_COORDINATE_TYPE>
1
5
255

> <PUBCHEM_BONDANNOTATIONS>
1  24  8
1  27  8
10  11  8
10  32  8
11  31  8
23  24  8
26  28  8
26  29  8
28  31  8
28  32  8
29  33  8
31  34  8
33  34  8
9  23  8
9  27  8

$$$$
