11957671
  -OEChem-09292322092D

 52 53  0     1  0  0  0  0  0999 V2000
    4.4004    0.0000    0.0000 Cl  0  0  0  0  0  0  0  0  0  0  0  0
    8.3475    2.8370    0.0000 O   0  0  0  0  0  0  0  0  0  0  0  0
    4.8671    5.8716    0.0000 N   0  0  3  0  0  0  0  0  0  0  0  0
    5.7331    5.3716    0.0000 C   0  0  3  0  0  0  0  0  0  0  0  0
    5.7331    4.3716    0.0000 C   0  0  0  0  0  0  0  0  0  0  0  0
    6.5991    5.8716    0.0000 C   0  0  0  0  0  0  0  0  0  0  0  0
    6.5991    3.8716    0.0000 C   0  0  0  0  0  0  0  0  0  0  0  0
    7.4651    5.3716    0.0000 C   0  0  0  0  0  0  0  0  0  0  0  0
    7.4651    4.3716    0.0000 C   0  0  0  0  0  0  0  0  0  0  0  0
    4.0010    5.3716    0.0000 C   0  0  0  0  0  0  0  0  0  0  0  0
    4.8671    6.8716    0.0000 C   0  0  0  0  0  0  0  0  0  0  0  0
    3.1350    5.8716    0.0000 C   0  0  0  0  0  0  0  0  0  0  0  0
    4.0010    7.3716    0.0000 C   0  0  0  0  0  0  0  0  0  0  0  0
    8.3591    5.9063    0.0000 C   0  0  0  0  0  0  0  0  0  0  0  0
    8.3591    3.8369    0.0000 C   0  0  0  0  0  0  0  0  0  0  0  0
    9.2652    5.3924    0.0000 C   0  0  0  0  0  0  0  0  0  0  0  0
    9.2652    4.3508    0.0000 C   0  0  0  0  0  0  0  0  0  0  0  0
    2.2690    5.3716    0.0000 C   0  0  0  0  0  0  0  0  0  0  0  0
    4.0010    8.3716    0.0000 C   0  0  0  0  0  0  0  0  0  0  0  0
    1.4030    5.8716    0.0000 C   0  0  0  0  0  0  0  0  0  0  0  0
    2.2690    4.3716    0.0000 C   0  0  0  0  0  0  0  0  0  0  0  0
    0.5369    5.3716    0.0000 C   0  0  0  0  0  0  0  0  0  0  0  0
    1.4030    3.8716    0.0000 C   0  0  0  0  0  0  0  0  0  0  0  0
    0.5369    4.3716    0.0000 C   0  0  0  0  0  0  0  0  0  0  0  0
    5.7331    5.9916    0.0000 H   0  0  0  0  0  0  0  0  0  0  0  0
    5.1225    4.4793    0.0000 H   0  0  0  0  0  0  0  0  0  0  0  0
    5.5210    3.7890    0.0000 H   0  0  0  0  0  0  0  0  0  0  0  0
    6.9976    6.3466    0.0000 H   0  0  0  0  0  0  0  0  0  0  0  0
    6.2006    6.3466    0.0000 H   0  0  0  0  0  0  0  0  0  0  0  0
    6.2006    3.3966    0.0000 H   0  0  0  0  0  0  0  0  0  0  0  0
    6.9976    3.3966    0.0000 H   0  0  0  0  0  0  0  0  0  0  0  0
    3.6025    4.8966    0.0000 H   0  0  0  0  0  0  0  0  0  0  0  0
    4.3996    4.8966    0.0000 H   0  0  0  0  0  0  0  0  0  0  0  0
    5.4776    6.7639    0.0000 H   0  0  0  0  0  0  0  0  0  0  0  0
    5.0791    7.4542    0.0000 H   0  0  0  0  0  0  0  0  0  0  0  0
    3.5335    6.3466    0.0000 H   0  0  0  0  0  0  0  0  0  0  0  0
    2.7365    6.3466    0.0000 H   0  0  0  0  0  0  0  0  0  0  0  0
    3.3905    7.4793    0.0000 H   0  0  0  0  0  0  0  0  0  0  0  0
    3.7890    6.7890    0.0000 H   0  0  0  0  0  0  0  0  0  0  0  0
    8.3519    6.5262    0.0000 H   0  0  0  0  0  0  0  0  0  0  0  0
    9.8009    5.7045    0.0000 H   0  0  0  0  0  0  0  0  0  0  0  0
    9.8009    4.0387    0.0000 H   0  0  0  0  0  0  0  0  0  0  0  0
    4.6210    8.3716    0.0000 H   0  0  0  0  0  0  0  0  0  0  0  0
    4.0010    8.9916    0.0000 H   0  0  0  0  0  0  0  0  0  0  0  0
    3.3810    8.3716    0.0000 H   0  0  0  0  0  0  0  0  0  0  0  0
    8.8808    2.5208    0.0000 H   0  0  0  0  0  0  0  0  0  0  0  0
    1.4030    6.4916    0.0000 H   0  0  0  0  0  0  0  0  0  0  0  0
    2.8059    4.0616    0.0000 H   0  0  0  0  0  0  0  0  0  0  0  0
    0.0000    5.6816    0.0000 H   0  0  0  0  0  0  0  0  0  0  0  0
    1.4030    3.2516    0.0000 H   0  0  0  0  0  0  0  0  0  0  0  0
    0.0000    4.0616    0.0000 H   0  0  0  0  0  0  0  0  0  0  0  0
    5.4004    0.0000    0.0000 H   0  0  0  0  0  0  0  0  0  0  0  0
  1 52  1  0  0  0  0
  2 15  1  0  0  0  0
  2 46  1  0  0  0  0
  3  4  1  0  0  0  0
  3 10  1  0  0  0  0
  3 11  1  0  0  0  0
  4  5  1  0  0  0  0
  4  6  1  0  0  0  0
  4 25  1  0  0  0  0
  5  7  1  0  0  0  0
  5 26  1  0  0  0  0
  5 27  1  0  0  0  0
  6  8  1  0  0  0  0
  6 28  1  0  0  0  0
  6 29  1  0  0  0  0
  7  9  1  0  0  0  0
  7 30  1  0  0  0  0
  7 31  1  0  0  0  0
  8  9  2  0  0  0  0
  8 14  1  0  0  0  0
  9 15  1  0  0  0  0
 10 12  1  0  0  0  0
 10 32  1  0  0  0  0
 10 33  1  0  0  0  0
 11 13  1  0  0  0  0
 11 34  1  0  0  0  0
 11 35  1  0  0  0  0
 12 18  1  0  0  0  0
 12 36  1  0  0  0  0
 12 37  1  0  0  0  0
 13 19  1  0  0  0  0
 13 38  1  0  0  0  0
 13 39  1  0  0  0  0
 14 16  2  0  0  0  0
 14 40  1  0  0  0  0
 15 17  2  0  0  0  0
 16 17  1  0  0  0  0
 16 41  1  0  0  0  0
 17 42  1  0  0  0  0
 18 20  2  0  0  0  0
 18 21  1  0  0  0  0
 19 43  1  0  0  0  0
 19 44  1  0  0  0  0
 19 45  1  0  0  0  0
 20 22  1  0  0  0  0
 20 47  1  0  0  0  0
 21 23  2  0  0  0  0
 21 48  1  0  0  0  0
 22 24  2  0  0  0  0
 22 49  1  0  0  0  0
 23 24  1  0  0  0  0
 23 50  1  0  0  0  0
 24 51  1  0  0  0  0
M  END
> <PUBCHEM_COMPOUND_CID>
11957671

> <PUBCHEM_COMPOUND_CANONICALIZED>
1

> <PUBCHEM_CACTVS_COMPLEXITY>
339

> <PUBCHEM_CACTVS_HBOND_ACCEPTOR>
2

> <PUBCHEM_CACTVS_HBOND_DONOR>
2

> <PUBCHEM_CACTVS_ROTATABLE_BOND>
6

> <PUBCHEM_CACTVS_SUBSKEYS>
AAADceB6IAAEAAAAAAAAAAAAAAAAAAAAAAAwYMAAAAAAAADBQAAAHgAACAAADCzBmAQyBoMAAgCAAiBCAAACAAAgIAAIiAAOCIgIJiKCkROEcAAkwBGImAeQ0LMOgAABAAAYAAAQAAKAADAAAAAAAAAAAA==

> <PUBCHEM_IUPAC_OPENEYE_NAME>
2-[2-phenylethyl(propyl)amino]tetralin-5-ol;hydrochloride

> <PUBCHEM_IUPAC_CAS_NAME>
6-[2-phenylethyl(propyl)amino]-5,6,7,8-tetrahydronaphthalen-1-ol;hydrochloride

> <PUBCHEM_IUPAC_NAME_MARKUP>
6-[2-phenylethyl(propyl)amino]-5,6,7,8-tetrahydronaphthalen-1-ol;hydrochloride

> <PUBCHEM_IUPAC_NAME>
6-[2-phenylethyl(propyl)amino]-5,6,7,8-tetrahydronaphthalen-1-ol;hydrochloride

> <PUBCHEM_IUPAC_SYSTEMATIC_NAME>
6-[2-phenylethyl(propyl)amino]-5,6,7,8-tetrahydronaphthalen-1-ol;hydrochloride

> <PUBCHEM_IUPAC_TRADITIONAL_NAME>
2-[phenethyl(propyl)amino]tetralin-5-ol;hydrochloride

> <PUBCHEM_IUPAC_INCHI>
InChI=1S/C21H27NO.ClH/c1-2-14-22(15-13-17-7-4-3-5-8-17)19-11-12-20-18(16-19)9-6-10-21(20)23;/h3-10,19,23H,2,11-16H2,1H3;1H

> <PUBCHEM_IUPAC_INCHIKEY>
XWLCIDLCEZAOEY-UHFFFAOYSA-N

> <PUBCHEM_EXACT_MASS>
345.1859422

> <PUBCHEM_MOLECULAR_FORMULA>
C21H28ClNO

> <PUBCHEM_MOLECULAR_WEIGHT>
345.9

> <PUBCHEM_OPENEYE_CAN_SMILES>
CCCN(CCC1=CC=CC=C1)C2CCC3=C(C2)C=CC=C3O.Cl

> <PUBCHEM_OPENEYE_ISO_SMILES>
CCCN(CCC1=CC=CC=C1)C2CCC3=C(C2)C=CC=C3O.Cl

> <PUBCHEM_CACTVS_TPSA>
23.5

> <PUBCHEM_MONOISOTOPIC_WEIGHT>
345.1859422

> <PUBCHEM_TOTAL_CHARGE>
0

> <PUBCHEM_HEAVY_ATOM_COUNT>
24

> <PUBCHEM_ATOM_DEF_STEREO_COUNT>
0

> <PUBCHEM_ATOM_UDEF_STEREO_COUNT>
1

> <PUBCHEM_BOND_DEF_STEREO_COUNT>
0

> <PUBCHEM_BOND_UDEF_STEREO_COUNT>
0

> <PUBCHEM_ISOTOPIC_ATOM_COUNT>
0

> <PUBCHEM_COMPONENT_COUNT>
2

> <PUBCHEM_CACTVS_TAUTO_COUNT>
-1

> <PUBCHEM_COORDINATE_TYPE>
1
5
255

> <PUBCHEM_BONDANNOTATIONS>
14  16  8
15  17  8
16  17  8
18  20  8
18  21  8
20  22  8
21  23  8
22  24  8
23  24  8
4  3  3
8  14  8
8  9  8
9  15  8

$$$$
