164627090
  -OEChem-09292322442D

 60 63  0     1  0  0  0  0  0999 V2000
    2.0000    2.7704    0.0000 O   0  0  0  0  0  0  0  0  0  0  0  0
    2.0000    0.7704    0.0000 O   0  0  0  0  0  0  0  0  0  0  0  0
    8.9826   -2.2604    0.0000 O   0  0  0  0  0  0  0  0  0  0  0  0
   11.5865   -0.7704    0.0000 O   0  0  0  0  0  0  0  0  0  0  0  0
    6.3981    1.2496    0.0000 N   0  0  3  0  0  0  0  0  0  0  0  0
    9.8544   -0.7638    0.0000 N   0  0  0  0  0  0  0  0  0  0  0  0
    6.3981    2.2912    0.0000 C   0  0  0  0  0  0  0  0  0  0  0  0
    5.4920    0.7357    0.0000 C   0  0  0  0  0  0  0  0  0  0  0  0
    5.4920    2.8051    0.0000 C   0  0  0  0  0  0  0  0  0  0  0  0
    4.5981    1.2704    0.0000 C   0  0  0  0  0  0  0  0  0  0  0  0
    4.5981    2.2704    0.0000 C   0  0  0  0  0  0  0  0  0  0  0  0
    7.2622    0.7463    0.0000 C   0  0  0  0  0  0  0  0  0  0  0  0
    8.1301    1.2429    0.0000 C   0  0  0  0  0  0  0  0  0  0  0  0
    3.7320    2.7704    0.0000 C   0  0  0  0  0  0  0  0  0  0  0  0
    3.7320    0.7704    0.0000 C   0  0  0  0  0  0  0  0  0  0  0  0
    8.9942    0.7396    0.0000 C   0  0  0  0  0  0  0  0  0  0  0  0
    2.8660    2.2704    0.0000 C   0  0  0  0  0  0  0  0  0  0  0  0
    2.8660    1.2704    0.0000 C   0  0  0  0  0  0  0  0  0  0  0  0
    8.1340    2.2429    0.0000 C   0  0  0  0  0  0  0  0  0  0  0  0
    8.9904   -0.2604    0.0000 C   0  0  0  0  0  0  0  0  0  0  0  0
    9.8622    1.2362    0.0000 C   0  0  0  0  0  0  0  0  0  0  0  0
    9.0019    2.7396    0.0000 C   0  0  0  0  0  0  0  0  0  0  0  0
    9.8660    2.2362    0.0000 C   0  0  0  0  0  0  0  0  0  0  0  0
    9.8506   -1.7637    0.0000 C   0  0  0  0  0  0  0  0  0  0  0  0
    2.0000    3.7704    0.0000 C   0  0  0  0  0  0  0  0  0  0  0  0
   10.7147   -2.2671    0.0000 C   0  0  0  0  0  0  0  0  0  0  0  0
   11.5826   -1.7704    0.0000 C   0  0  0  0  0  0  0  0  0  0  0  0
   10.7108   -3.2671    0.0000 C   0  0  0  0  0  0  0  0  0  0  0  0
   12.4467   -2.2738    0.0000 C   0  0  0  0  0  0  0  0  0  0  0  0
   11.5749   -3.7704    0.0000 C   0  0  0  0  0  0  0  0  0  0  0  0
   12.4429   -3.2738    0.0000 C   0  0  0  0  0  0  0  0  0  0  0  0
   12.4544   -0.2738    0.0000 C   0  0  0  0  0  0  0  0  0  0  0  0
    7.0089    2.1851    0.0000 H   0  0  0  0  0  0  0  0  0  0  0  0
    6.6071    2.8749    0.0000 H   0  0  0  0  0  0  0  0  0  0  0  0
    5.0874    0.2660    0.0000 H   0  0  0  0  0  0  0  0  0  0  0  0
    5.8856    0.2567    0.0000 H   0  0  0  0  0  0  0  0  0  0  0  0
    5.8856    3.2841    0.0000 H   0  0  0  0  0  0  0  0  0  0  0  0
    5.0874    3.2748    0.0000 H   0  0  0  0  0  0  0  0  0  0  0  0
    6.8618    0.2728    0.0000 H   0  0  0  0  0  0  0  0  0  0  0  0
    7.6589    0.2698    0.0000 H   0  0  0  0  0  0  0  0  0  0  0  0
    3.7320    3.3904    0.0000 H   0  0  0  0  0  0  0  0  0  0  0  0
    3.7320    0.1504    0.0000 H   0  0  0  0  0  0  0  0  0  0  0  0
    7.5982    2.5550    0.0000 H   0  0  0  0  0  0  0  0  0  0  0  0
    8.3802   -0.1504    0.0000 H   0  0  0  0  0  0  0  0  0  0  0  0
    8.7761   -0.8422    0.0000 H   0  0  0  0  0  0  0  0  0  0  0  0
   10.3979    0.9242    0.0000 H   0  0  0  0  0  0  0  0  0  0  0  0
    9.0043    3.3596    0.0000 H   0  0  0  0  0  0  0  0  0  0  0  0
   10.4041    2.5442    0.0000 H   0  0  0  0  0  0  0  0  0  0  0  0
   10.3926   -0.4558    0.0000 H   0  0  0  0  0  0  0  0  0  0  0  0
    2.0000    0.1504    0.0000 H   0  0  0  0  0  0  0  0  0  0  0  0
    2.6200    3.7704    0.0000 H   0  0  0  0  0  0  0  0  0  0  0  0
    2.0000    4.3904    0.0000 H   0  0  0  0  0  0  0  0  0  0  0  0
    1.3800    3.7704    0.0000 H   0  0  0  0  0  0  0  0  0  0  0  0
   10.1727   -3.5750    0.0000 H   0  0  0  0  0  0  0  0  0  0  0  0
   12.9849   -1.9658    0.0000 H   0  0  0  0  0  0  0  0  0  0  0  0
   11.5725   -4.3904    0.0000 H   0  0  0  0  0  0  0  0  0  0  0  0
   12.9786   -3.5858    0.0000 H   0  0  0  0  0  0  0  0  0  0  0  0
   12.7624   -0.8119    0.0000 H   0  0  0  0  0  0  0  0  0  0  0  0
   12.9926    0.0342    0.0000 H   0  0  0  0  0  0  0  0  0  0  0  0
   12.1465    0.2644    0.0000 H   0  0  0  0  0  0  0  0  0  0  0  0
  1 17  1  0  0  0  0
  1 25  1  0  0  0  0
  2 18  1  0  0  0  0
  2 50  1  0  0  0  0
  3 24  2  0  0  0  0
  4 27  1  0  0  0  0
  4 32  1  0  0  0  0
  5  7  1  0  0  0  0
  5  8  1  0  0  0  0
  5 12  1  0  0  0  0
  6 20  1  0  0  0  0
  6 24  1  0  0  0  0
  6 49  1  0  0  0  0
  7  9  1  0  0  0  0
  7 33  1  0  0  0  0
  7 34  1  0  0  0  0
  8 10  1  0  0  0  0
  8 35  1  0  0  0  0
  8 36  1  0  0  0  0
  9 11  1  0  0  0  0
  9 37  1  0  0  0  0
  9 38  1  0  0  0  0
 10 11  1  0  0  0  0
 10 15  2  0  0  0  0
 11 14  2  0  0  0  0
 12 13  1  0  0  0  0
 12 39  1  0  0  0  0
 12 40  1  0  0  0  0
 13 16  1  0  0  0  0
 13 19  2  0  0  0  0
 14 17  1  0  0  0  0
 14 41  1  0  0  0  0
 15 18  1  0  0  0  0
 15 42  1  0  0  0  0
 16 20  1  0  0  0  0
 16 21  2  0  0  0  0
 17 18  2  0  0  0  0
 19 22  1  0  0  0  0
 19 43  1  0  0  0  0
 20 44  1  0  0  0  0
 20 45  1  0  0  0  0
 21 23  1  0  0  0  0
 21 46  1  0  0  0  0
 22 23  2  0  0  0  0
 22 47  1  0  0  0  0
 23 48  1  0  0  0  0
 24 26  1  0  0  0  0
 25 51  1  0  0  0  0
 25 52  1  0  0  0  0
 25 53  1  0  0  0  0
 26 27  1  0  0  0  0
 26 28  2  0  0  0  0
 27 29  2  0  0  0  0
 28 30  1  0  0  0  0
 28 54  1  0  0  0  0
 29 31  1  0  0  0  0
 29 55  1  0  0  0  0
 30 31  2  0  0  0  0
 30 56  1  0  0  0  0
 31 57  1  0  0  0  0
 32 58  1  0  0  0  0
 32 59  1  0  0  0  0
 32 60  1  0  0  0  0
M  END
> <PUBCHEM_COMPOUND_CID>
164627090

> <PUBCHEM_COMPOUND_CANONICALIZED>
1

> <PUBCHEM_CACTVS_COMPLEXITY>
602

> <PUBCHEM_CACTVS_HBOND_ACCEPTOR>
5

> <PUBCHEM_CACTVS_HBOND_DONOR>
2

> <PUBCHEM_CACTVS_ROTATABLE_BOND>
7

> <PUBCHEM_CACTVS_SUBSKEYS>
AAADceB7OAAAAAAAAAAAAAAAAAAAAAAAAAA8YMEAAAAAAACxUAAAHgAQCAAADATBmAYyBoPABgCIAiFSEACCCAAkIAAIiIEOjMgNJjaGtRuEcWtm5hGLuYe42LKOoAABAAAYQABAAAIAADCAAAAAAAAAAA==

> <PUBCHEM_IUPAC_OPENEYE_NAME>
N-[[2-[(7-hydroxy-6-methoxy-3,4-dihydro-1H-isoquinolin-2-yl)methyl]phenyl]methyl]-2-methoxy-benzamide

> <PUBCHEM_IUPAC_CAS_NAME>
N-[[2-[(7-hydroxy-6-methoxy-3,4-dihydro-1H-isoquinolin-2-yl)methyl]phenyl]methyl]-2-methoxybenzamide

> <PUBCHEM_IUPAC_NAME_MARKUP>
<I>N</I>-[[2-[(7-hydroxy-6-methoxy-3,4-dihydro-1<I>H</I>-isoquinolin-2-yl)methyl]phenyl]methyl]-2-methoxybenzamide

> <PUBCHEM_IUPAC_NAME>
N-[[2-[(7-hydroxy-6-methoxy-3,4-dihydro-1H-isoquinolin-2-yl)methyl]phenyl]methyl]-2-methoxybenzamide

> <PUBCHEM_IUPAC_SYSTEMATIC_NAME>
2-methoxy-N-[[2-[(6-methoxy-7-oxidanyl-3,4-dihydro-1H-isoquinolin-2-yl)methyl]phenyl]methyl]benzamide

> <PUBCHEM_IUPAC_TRADITIONAL_NAME>
N-[2-[(7-hydroxy-6-methoxy-3,4-dihydro-1H-isoquinolin-2-yl)methyl]benzyl]-2-methoxy-benzamide

> <PUBCHEM_IUPAC_INCHI>
InChI=1S/C26H28N2O4/c1-31-24-10-6-5-9-22(24)26(30)27-15-19-7-3-4-8-20(19)16-28-12-11-18-14-25(32-2)23(29)13-21(18)17-28/h3-10,13-14,29H,11-12,15-17H2,1-2H3,(H,27,30)

> <PUBCHEM_IUPAC_INCHIKEY>
PKBLQXOBPRBPQT-UHFFFAOYSA-N

> <PUBCHEM_XLOGP3_AA>
3.6

> <PUBCHEM_EXACT_MASS>
432.20490738

> <PUBCHEM_MOLECULAR_FORMULA>
C26H28N2O4

> <PUBCHEM_MOLECULAR_WEIGHT>
432.5

> <PUBCHEM_OPENEYE_CAN_SMILES>
COC1=CC=CC=C1C(=O)NCC2=CC=CC=C2CN3CCC4=CC(=C(C=C4C3)O)OC

> <PUBCHEM_OPENEYE_ISO_SMILES>
COC1=CC=CC=C1C(=O)NCC2=CC=CC=C2CN3CCC4=CC(=C(C=C4C3)O)OC

> <PUBCHEM_CACTVS_TPSA>
71

> <PUBCHEM_MONOISOTOPIC_WEIGHT>
432.20490738

> <PUBCHEM_TOTAL_CHARGE>
0

> <PUBCHEM_HEAVY_ATOM_COUNT>
32

> <PUBCHEM_ATOM_DEF_STEREO_COUNT>
0

> <PUBCHEM_ATOM_UDEF_STEREO_COUNT>
0

> <PUBCHEM_BOND_DEF_STEREO_COUNT>
0

> <PUBCHEM_BOND_UDEF_STEREO_COUNT>
0

> <PUBCHEM_ISOTOPIC_ATOM_COUNT>
0

> <PUBCHEM_COMPONENT_COUNT>
1

> <PUBCHEM_CACTVS_TAUTO_COUNT>
-1

> <PUBCHEM_COORDINATE_TYPE>
1
5
255

> <PUBCHEM_BONDANNOTATIONS>
10  11  8
10  15  8
11  14  8
13  16  8
13  19  8
14  17  8
15  18  8
16  21  8
17  18  8
19  22  8
21  23  8
22  23  8
26  27  8
26  28  8
27  29  8
28  30  8
29  31  8
30  31  8

$$$$
