46888986
  -OEChem-09292322292D

 61 64  0     0  0  0  0  0  0999 V2000
    2.8660   -1.3343    0.0000 S   0  0  0  0  0  0  0  0  0  0  0  0
   10.6603    0.1657    0.0000 O   0  0  0  0  0  0  0  0  0  0  0  0
    5.4641    2.1657    0.0000 O   0  0  0  0  0  0  0  0  0  0  0  0
   15.9224    0.1415    0.0000 O   0  0  0  0  0  0  0  0  0  0  0  0
    3.3660   -2.2003    0.0000 O   0  0  0  0  0  0  0  0  0  0  0  0
    2.3660   -0.4683    0.0000 O   0  0  0  0  0  0  0  0  0  0  0  0
    8.0622    1.6657    0.0000 N   0  0  0  0  0  0  0  0  0  0  0  0
   14.1523    0.1310    0.0000 N   0  0  0  0  0  0  0  0  0  0  0  0
    3.7320   -0.8343    0.0000 N   0  0  0  0  0  0  0  0  0  0  0  0
    9.7942    0.6657    0.0000 C   0  0  0  0  0  0  0  0  0  0  0  0
    8.9282    0.1657    0.0000 C   0  0  0  0  0  0  0  0  0  0  0  0
    9.7942    1.6657    0.0000 C   0  0  0  0  0  0  0  0  0  0  0  0
    8.0622    0.6657    0.0000 C   0  0  0  0  0  0  0  0  0  0  0  0
    8.9282    2.1657    0.0000 C   0  0  0  0  0  0  0  0  0  0  0  0
    7.1962    2.1657    0.0000 C   0  0  0  0  0  0  0  0  0  0  0  0
    6.3301    1.6657    0.0000 C   0  0  0  0  0  0  0  0  0  0  0  0
   11.5263    0.6657    0.0000 C   0  0  0  0  0  0  0  0  0  0  0  0
   12.3923    0.1657    0.0000 C   0  0  0  0  0  0  0  0  0  0  0  0
   13.2583    1.6657    0.0000 C   0  0  0  0  0  0  0  0  0  0  0  0
   13.2583    0.6657    0.0000 C   0  0  0  0  0  0  0  0  0  0  0  0
   11.5263    1.6657    0.0000 C   0  0  0  0  0  0  0  0  0  0  0  0
   14.1523    2.2003    0.0000 C   0  0  0  0  0  0  0  0  0  0  0  0
   12.3923    2.1657    0.0000 C   0  0  0  0  0  0  0  0  0  0  0  0
   15.0583    1.6865    0.0000 C   0  0  0  0  0  0  0  0  0  0  0  0
   15.0583    0.6449    0.0000 C   0  0  0  0  0  0  0  0  0  0  0  0
    4.5981    1.6657    0.0000 C   0  0  0  0  0  0  0  0  0  0  0  0
    4.5981    0.6657    0.0000 C   0  0  0  0  0  0  0  0  0  0  0  0
    3.7320    2.1657    0.0000 C   0  0  0  0  0  0  0  0  0  0  0  0
    3.7320    0.1657    0.0000 C   0  0  0  0  0  0  0  0  0  0  0  0
    2.8660    1.6657    0.0000 C   0  0  0  0  0  0  0  0  0  0  0  0
    2.8660    0.6657    0.0000 C   0  0  0  0  0  0  0  0  0  0  0  0
    2.0000   -1.8343    0.0000 C   0  0  0  0  0  0  0  0  0  0  0  0
    9.7942    0.0457    0.0000 H   0  0  0  0  0  0  0  0  0  0  0  0
    8.5297   -0.3093    0.0000 H   0  0  0  0  0  0  0  0  0  0  0  0
    9.3267   -0.3093    0.0000 H   0  0  0  0  0  0  0  0  0  0  0  0
   10.4048    1.5580    0.0000 H   0  0  0  0  0  0  0  0  0  0  0  0
   10.0063    2.2483    0.0000 H   0  0  0  0  0  0  0  0  0  0  0  0
    7.4516    0.7733    0.0000 H   0  0  0  0  0  0  0  0  0  0  0  0
    7.8501    0.0831    0.0000 H   0  0  0  0  0  0  0  0  0  0  0  0
    9.3267    2.6406    0.0000 H   0  0  0  0  0  0  0  0  0  0  0  0
    8.5297    2.6406    0.0000 H   0  0  0  0  0  0  0  0  0  0  0  0
    7.5947    2.6406    0.0000 H   0  0  0  0  0  0  0  0  0  0  0  0
    6.7976    2.6406    0.0000 H   0  0  0  0  0  0  0  0  0  0  0  0
    5.9316    1.1907    0.0000 H   0  0  0  0  0  0  0  0  0  0  0  0
    6.7287    1.1907    0.0000 H   0  0  0  0  0  0  0  0  0  0  0  0
   12.3923   -0.4543    0.0000 H   0  0  0  0  0  0  0  0  0  0  0  0
   10.9893    1.9757    0.0000 H   0  0  0  0  0  0  0  0  0  0  0  0
   14.5459    2.6794    0.0000 H   0  0  0  0  0  0  0  0  0  0  0  0
   13.7477    2.6701    0.0000 H   0  0  0  0  0  0  0  0  0  0  0  0
   12.3923    2.7857    0.0000 H   0  0  0  0  0  0  0  0  0  0  0  0
   15.6692    1.5804    0.0000 H   0  0  0  0  0  0  0  0  0  0  0  0
   15.2674    2.2702    0.0000 H   0  0  0  0  0  0  0  0  0  0  0  0
   14.1451   -0.4889    0.0000 H   0  0  0  0  0  0  0  0  0  0  0  0
    5.1350    0.3557    0.0000 H   0  0  0  0  0  0  0  0  0  0  0  0
    3.7320    2.7857    0.0000 H   0  0  0  0  0  0  0  0  0  0  0  0
    2.3291    1.9757    0.0000 H   0  0  0  0  0  0  0  0  0  0  0  0
    2.3291    0.3557    0.0000 H   0  0  0  0  0  0  0  0  0  0  0  0
    4.2690   -1.1443    0.0000 H   0  0  0  0  0  0  0  0  0  0  0  0
    1.6900   -1.2974    0.0000 H   0  0  0  0  0  0  0  0  0  0  0  0
    1.4631   -2.1443    0.0000 H   0  0  0  0  0  0  0  0  0  0  0  0
    2.3100   -2.3712    0.0000 H   0  0  0  0  0  0  0  0  0  0  0  0
  1  5  2  0  0  0  0
  1  6  2  0  0  0  0
  1  9  1  0  0  0  0
  1 32  1  0  0  0  0
  2 10  1  0  0  0  0
  2 17  1  0  0  0  0
  3 16  1  0  0  0  0
  3 26  1  0  0  0  0
  4 25  2  0  0  0  0
  7 13  1  0  0  0  0
  7 14  1  0  0  0  0
  7 15  1  0  0  0  0
  8 20  1  0  0  0  0
  8 25  1  0  0  0  0
  8 53  1  0  0  0  0
  9 29  1  0  0  0  0
  9 58  1  0  0  0  0
 10 11  1  0  0  0  0
 10 12  1  0  0  0  0
 10 33  1  0  0  0  0
 11 13  1  0  0  0  0
 11 34  1  0  0  0  0
 11 35  1  0  0  0  0
 12 14  1  0  0  0  0
 12 36  1  0  0  0  0
 12 37  1  0  0  0  0
 13 38  1  0  0  0  0
 13 39  1  0  0  0  0
 14 40  1  0  0  0  0
 14 41  1  0  0  0  0
 15 16  1  0  0  0  0
 15 42  1  0  0  0  0
 15 43  1  0  0  0  0
 16 44  1  0  0  0  0
 16 45  1  0  0  0  0
 17 18  2  0  0  0  0
 17 21  1  0  0  0  0
 18 20  1  0  0  0  0
 18 46  1  0  0  0  0
 19 20  2  0  0  0  0
 19 22  1  0  0  0  0
 19 23  1  0  0  0  0
 21 23  2  0  0  0  0
 21 47  1  0  0  0  0
 22 24  1  0  0  0  0
 22 48  1  0  0  0  0
 22 49  1  0  0  0  0
 23 50  1  0  0  0  0
 24 25  1  0  0  0  0
 24 51  1  0  0  0  0
 24 52  1  0  0  0  0
 26 27  1  0  0  0  0
 26 28  2  0  0  0  0
 27 29  2  0  0  0  0
 27 54  1  0  0  0  0
 28 30  1  0  0  0  0
 28 55  1  0  0  0  0
 29 31  1  0  0  0  0
 30 31  2  0  0  0  0
 30 56  1  0  0  0  0
 31 57  1  0  0  0  0
 32 59  1  0  0  0  0
 32 60  1  0  0  0  0
 32 61  1  0  0  0  0
M  END
> <PUBCHEM_COMPOUND_CID>
46888986

> <PUBCHEM_COMPOUND_CANONICALIZED>
1

> <PUBCHEM_CACTVS_COMPLEXITY>
720

> <PUBCHEM_CACTVS_HBOND_ACCEPTOR>
7

> <PUBCHEM_CACTVS_HBOND_DONOR>
2

> <PUBCHEM_CACTVS_ROTATABLE_BOND>
8

> <PUBCHEM_CACTVS_SUBSKEYS>
AAADceB7OABAAAAAAAAAAAAAAAAAAAAAAAA8eIEAAAAAAACxQAAAHgQQQAAADBzhmAayxoPABAKIAiVSUHCCCAAhIgAIiAEObIgOJjLEsZuHOCjm1BnY6AeY2aOeIAAAAgACAABAAAAEAAQAAAAAAAAAAA==

> <PUBCHEM_IUPAC_OPENEYE_NAME>
N-[3-[2-[4-[(2-oxo-3,4-dihydro-1H-quinolin-7-yl)oxy]-1-piperidyl]ethoxy]phenyl]methanesulfonamide

> <PUBCHEM_IUPAC_CAS_NAME>
N-[3-[2-[4-[(2-oxo-3,4-dihydro-1H-quinolin-7-yl)oxy]-1-piperidinyl]ethoxy]phenyl]methanesulfonamide

> <PUBCHEM_IUPAC_NAME_MARKUP>
<I>N</I>-[3-[2-[4-[(2-oxo-3,4-dihydro-1<I>H</I>-quinolin-7-yl)oxy]piperidin-1-yl]ethoxy]phenyl]methanesulfonamide

> <PUBCHEM_IUPAC_NAME>
N-[3-[2-[4-[(2-oxo-3,4-dihydro-1H-quinolin-7-yl)oxy]piperidin-1-yl]ethoxy]phenyl]methanesulfonamide

> <PUBCHEM_IUPAC_SYSTEMATIC_NAME>
N-[3-[2-[4-[(2-oxidanylidene-3,4-dihydro-1H-quinolin-7-yl)oxy]piperidin-1-yl]ethoxy]phenyl]methanesulfonamide

> <PUBCHEM_IUPAC_TRADITIONAL_NAME>
N-[3-[2-[4-[(2-keto-3,4-dihydro-1H-quinolin-7-yl)oxy]piperidino]ethoxy]phenyl]methanesulfonamide

> <PUBCHEM_IUPAC_INCHI>
InChI=1S/C23H29N3O5S/c1-32(28,29)25-18-3-2-4-20(15-18)30-14-13-26-11-9-19(10-12-26)31-21-7-5-17-6-8-23(27)24-22(17)16-21/h2-5,7,15-16,19,25H,6,8-14H2,1H3,(H,24,27)

> <PUBCHEM_IUPAC_INCHIKEY>
RJGPBFPTKNFYQH-UHFFFAOYSA-N

> <PUBCHEM_XLOGP3_AA>
2.3

> <PUBCHEM_EXACT_MASS>
459.18279221

> <PUBCHEM_MOLECULAR_FORMULA>
C23H29N3O5S

> <PUBCHEM_MOLECULAR_WEIGHT>
459.6

> <PUBCHEM_OPENEYE_CAN_SMILES>
CS(=O)(=O)NC1=CC(=CC=C1)OCCN2CCC(CC2)OC3=CC4=C(CCC(=O)N4)C=C3

> <PUBCHEM_OPENEYE_ISO_SMILES>
CS(=O)(=O)NC1=CC(=CC=C1)OCCN2CCC(CC2)OC3=CC4=C(CCC(=O)N4)C=C3

> <PUBCHEM_CACTVS_TPSA>
105

> <PUBCHEM_MONOISOTOPIC_WEIGHT>
459.18279221

> <PUBCHEM_TOTAL_CHARGE>
0

> <PUBCHEM_HEAVY_ATOM_COUNT>
32

> <PUBCHEM_ATOM_DEF_STEREO_COUNT>
0

> <PUBCHEM_ATOM_UDEF_STEREO_COUNT>
0

> <PUBCHEM_BOND_DEF_STEREO_COUNT>
0

> <PUBCHEM_BOND_UDEF_STEREO_COUNT>
0

> <PUBCHEM_ISOTOPIC_ATOM_COUNT>
0

> <PUBCHEM_COMPONENT_COUNT>
1

> <PUBCHEM_CACTVS_TAUTO_COUNT>
-1

> <PUBCHEM_COORDINATE_TYPE>
1
5
255

> <PUBCHEM_BONDANNOTATIONS>
17  18  8
17  21  8
18  20  8
19  20  8
19  23  8
21  23  8
26  27  8
26  28  8
27  29  8
28  30  8
29  31  8
30  31  8

$$$$
