127051865
  -OEChem-09292322372D

 60 63  0     1  0  0  0  0  0999 V2000
   14.9771    4.3860    0.0000 Cl  0  0  0  0  0  0  0  0  0  0  0  0
    6.9885    9.8891    0.0000 Cl  0  0  0  0  0  0  0  0  0  0  0  0
    3.2152    6.8601    0.0000 S   0  0  0  0  0  0  0  0  0  0  0  0
   11.3799    4.6311    0.0000 O   0  0  0  0  0  0  0  0  0  0  0  0
    5.2988    6.9214    0.0000 O   0  0  0  0  0  0  0  0  0  0  0  0
    8.2988    3.4573    0.0000 N   0  0  0  0  0  0  0  0  0  0  0  0
    3.2152    5.2506    0.0000 N   0  0  0  0  0  0  0  0  0  0  0  0
    9.7474    2.0692    0.0000 C   0  0  3  0  0  0  0  0  0  0  0  0
    8.7815    2.3280    0.0000 C   0  0  3  0  0  0  0  0  0  0  0  0
   11.0378    3.6914    0.0000 C   0  0  0  0  0  0  0  0  0  0  0  0
   11.1076    2.6938    0.0000 C   0  0  0  0  0  0  0  0  0  0  0  0
   10.0675    3.9333    0.0000 C   0  0  0  0  0  0  0  0  0  0  0  0
    9.4886    0.6033    0.0000 C   0  0  0  0  0  0  0  0  0  0  0  0
    8.5227    0.8621    0.0000 C   0  0  0  0  0  0  0  0  0  0  0  0
    7.7988    4.3233    0.0000 C   0  0  0  0  0  0  0  0  0  0  0  0
   12.0227    3.8650    0.0000 C   0  0  0  0  0  0  0  0  0  0  0  0
    6.7988    4.3233    0.0000 C   0  0  0  0  0  0  0  0  0  0  0  0
   12.3647    4.8047    0.0000 C   0  0  0  0  0  0  0  0  0  0  0  0
   12.6654    3.0990    0.0000 C   0  0  0  0  0  0  0  0  0  0  0  0
    6.2988    5.1893    0.0000 C   0  0  0  0  0  0  0  0  0  0  0  0
    5.2988    5.1893    0.0000 C   0  0  0  0  0  0  0  0  0  0  0  0
   13.3495    4.9784    0.0000 C   0  0  0  0  0  0  0  0  0  0  0  0
   13.6502    3.2726    0.0000 C   0  0  0  0  0  0  0  0  0  0  0  0
   13.9923    4.2123    0.0000 C   0  0  0  0  0  0  0  0  0  0  0  0
    4.7988    6.0553    0.0000 C   0  0  0  0  0  0  0  0  0  0  0  0
    3.7988    6.0553    0.0000 C   0  0  0  0  0  0  0  0  0  0  0  0
    2.2690    6.5553    0.0000 C   0  0  0  0  0  0  0  0  0  0  0  0
    2.2690    5.5553    0.0000 C   0  0  0  0  0  0  0  0  0  0  0  0
    1.4030    7.0553    0.0000 C   0  0  0  0  0  0  0  0  0  0  0  0
    1.4030    5.0553    0.0000 C   0  0  0  0  0  0  0  0  0  0  0  0
    0.5369    6.5553    0.0000 C   0  0  0  0  0  0  0  0  0  0  0  0
    0.5369    5.5553    0.0000 C   0  0  0  0  0  0  0  0  0  0  0  0
   10.2381    1.6903    0.0000 H   0  0  0  0  0  0  0  0  0  0  0  0
    9.3463    2.0723    0.0000 H   0  0  0  0  0  0  0  0  0  0  0  0
   11.2969    2.1034    0.0000 H   0  0  0  0  0  0  0  0  0  0  0  0
   11.7164    2.8109    0.0000 H   0  0  0  0  0  0  0  0  0  0  0  0
   10.3021    4.5072    0.0000 H   0  0  0  0  0  0  0  0  0  0  0  0
    9.5331    4.2477    0.0000 H   0  0  0  0  0  0  0  0  0  0  0  0
    9.3456    0.0000    0.0000 H   0  0  0  0  0  0  0  0  0  0  0  0
   10.0958    0.4778    0.0000 H   0  0  0  0  0  0  0  0  0  0  0  0
    7.9155    0.9876    0.0000 H   0  0  0  0  0  0  0  0  0  0  0  0
    8.3796    0.2588    0.0000 H   0  0  0  0  0  0  0  0  0  0  0  0
    8.3814    4.5353    0.0000 H   0  0  0  0  0  0  0  0  0  0  0  0
    7.6912    4.9339    0.0000 H   0  0  0  0  0  0  0  0  0  0  0  0
    6.2162    4.1112    0.0000 H   0  0  0  0  0  0  0  0  0  0  0  0
    6.9065    3.7127    0.0000 H   0  0  0  0  0  0  0  0  0  0  0  0
   10.9813    5.1060    0.0000 H   0  0  0  0  0  0  0  0  0  0  0  0
   11.9661    5.2797    0.0000 H   0  0  0  0  0  0  0  0  0  0  0  0
   12.4534    2.5164    0.0000 H   0  0  0  0  0  0  0  0  0  0  0  0
    6.8814    5.4014    0.0000 H   0  0  0  0  0  0  0  0  0  0  0  0
    6.1912    5.7999    0.0000 H   0  0  0  0  0  0  0  0  0  0  0  0
    4.7162    4.9772    0.0000 H   0  0  0  0  0  0  0  0  0  0  0  0
    5.4065    4.5787    0.0000 H   0  0  0  0  0  0  0  0  0  0  0  0
   13.5615    5.5610    0.0000 H   0  0  0  0  0  0  0  0  0  0  0  0
   14.0488    2.7977    0.0000 H   0  0  0  0  0  0  0  0  0  0  0  0
    1.4030    7.6753    0.0000 H   0  0  0  0  0  0  0  0  0  0  0  0
    1.4030    4.4353    0.0000 H   0  0  0  0  0  0  0  0  0  0  0  0
    0.0000    6.8653    0.0000 H   0  0  0  0  0  0  0  0  0  0  0  0
    0.0000    5.2453    0.0000 H   0  0  0  0  0  0  0  0  0  0  0  0
    7.9885    9.8891    0.0000 H   0  0  0  0  0  0  0  0  0  0  0  0
  1 24  1  0  0  0  0
  2 60  1  0  0  0  0
  3 26  1  0  0  0  0
  3 27  1  0  0  0  0
  4 10  1  0  0  0  0
  4 47  1  0  0  0  0
  5 25  2  0  0  0  0
  6  8  1  0  0  0  0
  6  9  1  0  0  0  0
  6 15  1  0  0  0  0
  7 26  2  0  0  0  0
  7 28  1  0  0  0  0
  8 11  1  0  0  0  0
  8 13  1  0  0  0  0
  8 33  1  0  0  0  0
  9 12  1  0  0  0  0
  9 14  1  0  0  0  0
  9 34  1  0  0  0  0
 10 11  1  0  0  0  0
 10 12  1  0  0  0  0
 10 16  1  0  0  0  0
 11 35  1  0  0  0  0
 11 36  1  0  0  0  0
 12 37  1  0  0  0  0
 12 38  1  0  0  0  0
 13 14  1  0  0  0  0
 13 39  1  0  0  0  0
 13 40  1  0  0  0  0
 14 41  1  0  0  0  0
 14 42  1  0  0  0  0
 15 17  1  0  0  0  0
 15 43  1  0  0  0  0
 15 44  1  0  0  0  0
 16 18  2  0  0  0  0
 16 19  1  0  0  0  0
 17 20  1  0  0  0  0
 17 45  1  0  0  0  0
 17 46  1  0  0  0  0
 18 22  1  0  0  0  0
 18 48  1  0  0  0  0
 19 23  2  0  0  0  0
 19 49  1  0  0  0  0
 20 21  1  0  0  0  0
 20 50  1  0  0  0  0
 20 51  1  0  0  0  0
 21 25  1  0  0  0  0
 21 52  1  0  0  0  0
 21 53  1  0  0  0  0
 22 24  2  0  0  0  0
 22 54  1  0  0  0  0
 23 24  1  0  0  0  0
 23 55  1  0  0  0  0
 25 26  1  0  0  0  0
 27 28  1  0  0  0  0
 27 29  2  0  0  0  0
 28 30  2  0  0  0  0
 29 31  1  0  0  0  0
 29 56  1  0  0  0  0
 30 32  1  0  0  0  0
 30 57  1  0  0  0  0
 31 32  2  0  0  0  0
 31 58  1  0  0  0  0
 32 59  1  0  0  0  0
M  END
> <PUBCHEM_COMPOUND_CID>
127051865

> <PUBCHEM_COMPOUND_CANONICALIZED>
1

> <PUBCHEM_CACTVS_COMPLEXITY>
627

> <PUBCHEM_CACTVS_HBOND_ACCEPTOR>
5

> <PUBCHEM_CACTVS_HBOND_DONOR>
2

> <PUBCHEM_CACTVS_ROTATABLE_BOND>
7

> <PUBCHEM_CACTVS_SUBSKEYS>
AAADceB7MABGAAAAAAAAAAAAAAAAAWLAAAA8YIAABgAAAFgB9AAAHgYACAAADG7B3iQwwbMIEgisA6RyRACD8KBjDzhImD24bpgIJrLhk7GEcAhmwAHo2AeYweAOhAAAAAAAAQAIAAAAAAACAAAAAAAAAA==

> <PUBCHEM_IUPAC_OPENEYE_NAME>
1-(1,3-benzothiazol-2-yl)-5-[3-(4-chlorophenyl)-3-hydroxy-8-azabicyclo[3.2.1]octan-8-yl]pentan-1-one;hydrochloride

> <PUBCHEM_IUPAC_CAS_NAME>
1-(1,3-benzothiazol-2-yl)-5-[3-(4-chlorophenyl)-3-hydroxy-8-azabicyclo[3.2.1]octan-8-yl]-1-pentanone;hydrochloride

> <PUBCHEM_IUPAC_NAME_MARKUP>
1-(1,3-benzothiazol-2-yl)-5-[3-(4-chlorophenyl)-3-hydroxy-8-azabicyclo[3.2.1]octan-8-yl]pentan-1-one;hydrochloride

> <PUBCHEM_IUPAC_NAME>
1-(1,3-benzothiazol-2-yl)-5-[3-(4-chlorophenyl)-3-hydroxy-8-azabicyclo[3.2.1]octan-8-yl]pentan-1-one;hydrochloride

> <PUBCHEM_IUPAC_SYSTEMATIC_NAME>
1-(1,3-benzothiazol-2-yl)-5-[3-(4-chlorophenyl)-3-oxidanyl-8-azabicyclo[3.2.1]octan-8-yl]pentan-1-one;hydrochloride

> <PUBCHEM_IUPAC_TRADITIONAL_NAME>
1-(1,3-benzothiazol-2-yl)-5-[3-(4-chlorophenyl)-3-hydroxy-8-azabicyclo[3.2.1]octan-8-yl]pentan-1-one;hydrochloride

> <PUBCHEM_IUPAC_INCHI>
InChI=1S/C25H27ClN2O2S.ClH/c26-18-10-8-17(9-11-18)25(30)15-19-12-13-20(16-25)28(19)14-4-3-6-22(29)24-27-21-5-1-2-7-23(21)31-24;/h1-2,5,7-11,19-20,30H,3-4,6,12-16H2;1H

> <PUBCHEM_IUPAC_INCHIKEY>
PCETXEVYTSSFMY-UHFFFAOYSA-N

> <PUBCHEM_EXACT_MASS>
490.1248547

> <PUBCHEM_MOLECULAR_FORMULA>
C25H28Cl2N2O2S

> <PUBCHEM_MOLECULAR_WEIGHT>
491.5

> <PUBCHEM_OPENEYE_CAN_SMILES>
C1CC2CC(CC1N2CCCCC(=O)C3=NC4=CC=CC=C4S3)(C5=CC=C(C=C5)Cl)O.Cl

> <PUBCHEM_OPENEYE_ISO_SMILES>
C1CC2CC(CC1N2CCCCC(=O)C3=NC4=CC=CC=C4S3)(C5=CC=C(C=C5)Cl)O.Cl

> <PUBCHEM_CACTVS_TPSA>
81.7

> <PUBCHEM_MONOISOTOPIC_WEIGHT>
490.1248547

> <PUBCHEM_TOTAL_CHARGE>
0

> <PUBCHEM_HEAVY_ATOM_COUNT>
32

> <PUBCHEM_ATOM_DEF_STEREO_COUNT>
0

> <PUBCHEM_ATOM_UDEF_STEREO_COUNT>
2

> <PUBCHEM_BOND_DEF_STEREO_COUNT>
0

> <PUBCHEM_BOND_UDEF_STEREO_COUNT>
0

> <PUBCHEM_ISOTOPIC_ATOM_COUNT>
0

> <PUBCHEM_COMPONENT_COUNT>
2

> <PUBCHEM_CACTVS_TAUTO_COUNT>
-1

> <PUBCHEM_COORDINATE_TYPE>
1
5
255

> <PUBCHEM_BONDANNOTATIONS>
16  18  8
16  19  8
18  22  8
19  23  8
22  24  8
23  24  8
27  28  8
27  29  8
28  30  8
29  31  8
3  26  8
3  27  8
30  32  8
31  32  8
7  26  8
7  28  8
8  13  3
9  14  3

$$$$
