44323978
  -OEChem-09292322212D

 43 46  0     0  0  0  0  0  0999 V2000
    2.8660   -1.8030    0.0000 Cl  0  0  0  0  0  0  0  0  0  0  0  0
    4.5981   -0.8030    0.0000 N   0  0  0  0  0  0  0  0  0  0  0  0
    4.5981    1.1970    0.0000 N   0  0  0  0  0  0  0  0  0  0  0  0
    6.4103   -3.6077    0.0000 N   0  0  0  0  0  0  0  0  0  0  0  0
    3.7320   -0.3030    0.0000 C   0  0  0  0  0  0  0  0  0  0  0  0
    5.4641   -0.3030    0.0000 C   0  0  0  0  0  0  0  0  0  0  0  0
    3.7320    0.6970    0.0000 C   0  0  0  0  0  0  0  0  0  0  0  0
    5.4641    0.6970    0.0000 C   0  0  0  0  0  0  0  0  0  0  0  0
    4.5981   -1.8030    0.0000 C   0  0  0  0  0  0  0  0  0  0  0  0
    4.5981    2.1970    0.0000 C   0  0  0  0  0  0  0  0  0  0  0  0
    5.4641   -2.3030    0.0000 C   0  0  0  0  0  0  0  0  0  0  0  0
    3.7320    2.6970    0.0000 C   0  0  0  0  0  0  0  0  0  0  0  0
    3.7320   -2.3030    0.0000 C   0  0  0  0  0  0  0  0  0  0  0  0
    5.4641   -3.3030    0.0000 C   0  0  0  0  0  0  0  0  0  0  0  0
    6.4103   -1.9982    0.0000 C   0  0  0  0  0  0  0  0  0  0  0  0
    3.7320   -3.3030    0.0000 C   0  0  0  0  0  0  0  0  0  0  0  0
    4.5981   -3.8030    0.0000 C   0  0  0  0  0  0  0  0  0  0  0  0
    6.9939   -2.8030    0.0000 C   0  0  0  0  0  0  0  0  0  0  0  0
    3.7320    3.6970    0.0000 C   0  0  0  0  0  0  0  0  0  0  0  0
    2.8660    2.1970    0.0000 C   0  0  0  0  0  0  0  0  0  0  0  0
    2.8660    4.1970    0.0000 C   0  0  0  0  0  0  0  0  0  0  0  0
    2.0000    2.6970    0.0000 C   0  0  0  0  0  0  0  0  0  0  0  0
    2.0000    3.6970    0.0000 C   0  0  0  0  0  0  0  0  0  0  0  0
    3.1215   -0.1953    0.0000 H   0  0  0  0  0  0  0  0  0  0  0  0
    3.5200   -0.8856    0.0000 H   0  0  0  0  0  0  0  0  0  0  0  0
    5.6762   -0.8856    0.0000 H   0  0  0  0  0  0  0  0  0  0  0  0
    6.0747   -0.1953    0.0000 H   0  0  0  0  0  0  0  0  0  0  0  0
    3.5200    1.2796    0.0000 H   0  0  0  0  0  0  0  0  0  0  0  0
    3.1215    0.5894    0.0000 H   0  0  0  0  0  0  0  0  0  0  0  0
    6.0747    0.5894    0.0000 H   0  0  0  0  0  0  0  0  0  0  0  0
    5.6762    1.2796    0.0000 H   0  0  0  0  0  0  0  0  0  0  0  0
    5.2087    2.0894    0.0000 H   0  0  0  0  0  0  0  0  0  0  0  0
    4.8101    2.7796    0.0000 H   0  0  0  0  0  0  0  0  0  0  0  0
    6.6029   -1.4089    0.0000 H   0  0  0  0  0  0  0  0  0  0  0  0
    3.1951   -3.6130    0.0000 H   0  0  0  0  0  0  0  0  0  0  0  0
    4.5981   -4.4230    0.0000 H   0  0  0  0  0  0  0  0  0  0  0  0
    6.6029   -4.1970    0.0000 H   0  0  0  0  0  0  0  0  0  0  0  0
    7.6139   -2.8030    0.0000 H   0  0  0  0  0  0  0  0  0  0  0  0
    4.2690    4.0070    0.0000 H   0  0  0  0  0  0  0  0  0  0  0  0
    2.8660    1.5770    0.0000 H   0  0  0  0  0  0  0  0  0  0  0  0
    2.8660    4.8170    0.0000 H   0  0  0  0  0  0  0  0  0  0  0  0
    1.4631    2.3870    0.0000 H   0  0  0  0  0  0  0  0  0  0  0  0
    1.4631    4.0070    0.0000 H   0  0  0  0  0  0  0  0  0  0  0  0
  1 13  1  0  0  0  0
  2  5  1  0  0  0  0
  2  6  1  0  0  0  0
  2  9  1  0  0  0  0
  3  7  1  0  0  0  0
  3  8  1  0  0  0  0
  3 10  1  0  0  0  0
  4 14  1  0  0  0  0
  4 18  1  0  0  0  0
  4 37  1  0  0  0  0
  5  7  1  0  0  0  0
  5 24  1  0  0  0  0
  5 25  1  0  0  0  0
  6  8  1  0  0  0  0
  6 26  1  0  0  0  0
  6 27  1  0  0  0  0
  7 28  1  0  0  0  0
  7 29  1  0  0  0  0
  8 30  1  0  0  0  0
  8 31  1  0  0  0  0
  9 11  1  0  0  0  0
  9 13  2  0  0  0  0
 10 12  1  0  0  0  0
 10 32  1  0  0  0  0
 10 33  1  0  0  0  0
 11 14  2  0  0  0  0
 11 15  1  0  0  0  0
 12 19  2  0  0  0  0
 12 20  1  0  0  0  0
 13 16  1  0  0  0  0
 14 17  1  0  0  0  0
 15 18  2  0  0  0  0
 15 34  1  0  0  0  0
 16 17  2  0  0  0  0
 16 35  1  0  0  0  0
 17 36  1  0  0  0  0
 18 38  1  0  0  0  0
 19 21  1  0  0  0  0
 19 39  1  0  0  0  0
 20 22  2  0  0  0  0
 20 40  1  0  0  0  0
 21 23  2  0  0  0  0
 21 41  1  0  0  0  0
 22 23  1  0  0  0  0
 22 42  1  0  0  0  0
 23 43  1  0  0  0  0
M  END
> <PUBCHEM_COMPOUND_CID>
44323978

> <PUBCHEM_COMPOUND_CANONICALIZED>
1

> <PUBCHEM_CACTVS_COMPLEXITY>
377

> <PUBCHEM_CACTVS_HBOND_ACCEPTOR>
2

> <PUBCHEM_CACTVS_HBOND_DONOR>
1

> <PUBCHEM_CACTVS_ROTATABLE_BOND>
3

> <PUBCHEM_CACTVS_SUBSKEYS>
AAADceB7AAAEAAAAAAAAAAAAAAAAAWAAAAA8YIAAAAAAAFgB9AAAHAIQAAAADArBHiQ8wPPJkACgAzRnRACCgCAxByAI2aA4ZpgIYOLB09HUJAhgkADIyAcQgIAOAABAIAQCABAAAIBACAQAIAAAAAAAAA==

> <PUBCHEM_IUPAC_OPENEYE_NAME>
4-(4-benzylpiperazin-1-yl)-5-chloro-1H-indole

> <PUBCHEM_IUPAC_CAS_NAME>
5-chloro-4-[4-(phenylmethyl)-1-piperazinyl]-1H-indole

> <PUBCHEM_IUPAC_NAME_MARKUP>
4-(4-benzylpiperazin-1-yl)-5-chloro-1<I>H</I>-indole

> <PUBCHEM_IUPAC_NAME>
4-(4-benzylpiperazin-1-yl)-5-chloro-1H-indole

> <PUBCHEM_IUPAC_SYSTEMATIC_NAME>
5-chloranyl-4-[4-(phenylmethyl)piperazin-1-yl]-1H-indole

> <PUBCHEM_IUPAC_TRADITIONAL_NAME>
4-(4-benzylpiperazino)-5-chloro-1H-indole

> <PUBCHEM_IUPAC_INCHI>
InChI=1S/C19H20ClN3/c20-17-6-7-18-16(8-9-21-18)19(17)23-12-10-22(11-13-23)14-15-4-2-1-3-5-15/h1-9,21H,10-14H2

> <PUBCHEM_IUPAC_INCHIKEY>
IRFLVVGRMBDQSJ-UHFFFAOYSA-N

> <PUBCHEM_XLOGP3_AA>
4.1

> <PUBCHEM_EXACT_MASS>
325.1345753

> <PUBCHEM_MOLECULAR_FORMULA>
C19H20ClN3

> <PUBCHEM_MOLECULAR_WEIGHT>
325.8

> <PUBCHEM_OPENEYE_CAN_SMILES>
C1CN(CCN1CC2=CC=CC=C2)C3=C(C=CC4=C3C=CN4)Cl

> <PUBCHEM_OPENEYE_ISO_SMILES>
C1CN(CCN1CC2=CC=CC=C2)C3=C(C=CC4=C3C=CN4)Cl

> <PUBCHEM_CACTVS_TPSA>
22.3

> <PUBCHEM_MONOISOTOPIC_WEIGHT>
325.1345753

> <PUBCHEM_TOTAL_CHARGE>
0

> <PUBCHEM_HEAVY_ATOM_COUNT>
23

> <PUBCHEM_ATOM_DEF_STEREO_COUNT>
0

> <PUBCHEM_ATOM_UDEF_STEREO_COUNT>
0

> <PUBCHEM_BOND_DEF_STEREO_COUNT>
0

> <PUBCHEM_BOND_UDEF_STEREO_COUNT>
0

> <PUBCHEM_ISOTOPIC_ATOM_COUNT>
0

> <PUBCHEM_COMPONENT_COUNT>
1

> <PUBCHEM_CACTVS_TAUTO_COUNT>
-1

> <PUBCHEM_COORDINATE_TYPE>
1
5
255

> <PUBCHEM_BONDANNOTATIONS>
11  14  8
11  15  8
12  19  8
12  20  8
13  16  8
14  17  8
15  18  8
16  17  8
19  21  8
20  22  8
21  23  8
22  23  8
4  14  8
4  18  8
9  11  8
9  13  8

$$$$
