10451844
  -OEChem-09292322132D

 41 42  0     1  0  0  0  0  0999 V2000
    2.0000    0.4254    0.0000 I   0  0  0  0  0  0  0  0  0  0  0  0
    8.9446   -2.6092    0.0000 O   0  0  0  0  0  0  0  0  0  0  0  0
    5.4641    0.4254    0.0000 N   0  0  3  0  0  0  0  0  0  0  0  0
    6.3301   -0.0746    0.0000 C   0  0  3  0  0  0  0  0  0  0  0  0
    6.3301   -1.0746    0.0000 C   0  0  0  0  0  0  0  0  0  0  0  0
    7.1962    0.4254    0.0000 C   0  0  0  0  0  0  0  0  0  0  0  0
    7.1962   -1.5746    0.0000 C   0  0  0  0  0  0  0  0  0  0  0  0
    8.0622   -0.0746    0.0000 C   0  0  0  0  0  0  0  0  0  0  0  0
    8.0622   -1.0746    0.0000 C   0  0  0  0  0  0  0  0  0  0  0  0
    5.4641    1.4254    0.0000 C   0  0  0  0  0  0  0  0  0  0  0  0
    4.5981   -0.0746    0.0000 C   0  0  0  0  0  0  0  0  0  0  0  0
    8.9561    0.4601    0.0000 C   0  0  0  0  0  0  0  0  0  0  0  0
    8.9561   -1.6093    0.0000 C   0  0  0  0  0  0  0  0  0  0  0  0
    4.5981    1.9254    0.0000 C   0  0  0  0  0  0  0  0  0  0  0  0
    9.8622   -0.0538    0.0000 C   0  0  0  0  0  0  0  0  0  0  0  0
    9.8622   -1.0954    0.0000 C   0  0  0  0  0  0  0  0  0  0  0  0
    3.7320    0.4254    0.0000 C   0  0  0  0  0  0  0  0  0  0  0  0
    4.5981    2.9254    0.0000 C   0  0  0  0  0  0  0  0  0  0  0  0
    2.8660   -0.0746    0.0000 C   0  0  0  0  0  0  0  0  0  0  0  0
    5.7932   -0.3846    0.0000 H   0  0  0  0  0  0  0  0  0  0  0  0
    5.7196   -0.9669    0.0000 H   0  0  0  0  0  0  0  0  0  0  0  0
    6.1181   -1.6572    0.0000 H   0  0  0  0  0  0  0  0  0  0  0  0
    7.5947    0.9003    0.0000 H   0  0  0  0  0  0  0  0  0  0  0  0
    6.7976    0.9003    0.0000 H   0  0  0  0  0  0  0  0  0  0  0  0
    6.7976   -2.0496    0.0000 H   0  0  0  0  0  0  0  0  0  0  0  0
    7.5947   -2.0496    0.0000 H   0  0  0  0  0  0  0  0  0  0  0  0
    6.0747    1.3177    0.0000 H   0  0  0  0  0  0  0  0  0  0  0  0
    5.6762    2.0080    0.0000 H   0  0  0  0  0  0  0  0  0  0  0  0
    4.1996   -0.5496    0.0000 H   0  0  0  0  0  0  0  0  0  0  0  0
    4.9966   -0.5496    0.0000 H   0  0  0  0  0  0  0  0  0  0  0  0
    8.9490    1.0800    0.0000 H   0  0  0  0  0  0  0  0  0  0  0  0
    3.9875    2.0330    0.0000 H   0  0  0  0  0  0  0  0  0  0  0  0
    4.3860    1.3428    0.0000 H   0  0  0  0  0  0  0  0  0  0  0  0
   10.3979    0.2583    0.0000 H   0  0  0  0  0  0  0  0  0  0  0  0
   10.3979   -1.4075    0.0000 H   0  0  0  0  0  0  0  0  0  0  0  0
    3.7320    1.0454    0.0000 H   0  0  0  0  0  0  0  0  0  0  0  0
    5.2181    2.9254    0.0000 H   0  0  0  0  0  0  0  0  0  0  0  0
    4.5981    3.5454    0.0000 H   0  0  0  0  0  0  0  0  0  0  0  0
    3.9781    2.9254    0.0000 H   0  0  0  0  0  0  0  0  0  0  0  0
    9.4779   -2.9254    0.0000 H   0  0  0  0  0  0  0  0  0  0  0  0
    2.8660   -0.6946    0.0000 H   0  0  0  0  0  0  0  0  0  0  0  0
  1 19  1  0  0  0  0
  2 13  1  0  0  0  0
  2 40  1  0  0  0  0
  3  4  1  0  0  0  0
  3 10  1  0  0  0  0
  3 11  1  0  0  0  0
  4  5  1  0  0  0  0
  4  6  1  0  0  0  0
  4 20  1  0  0  0  0
  5  7  1  0  0  0  0
  5 21  1  0  0  0  0
  5 22  1  0  0  0  0
  6  8  1  0  0  0  0
  6 23  1  0  0  0  0
  6 24  1  0  0  0  0
  7  9  1  0  0  0  0
  7 25  1  0  0  0  0
  7 26  1  0  0  0  0
  8  9  2  0  0  0  0
  8 12  1  0  0  0  0
  9 13  1  0  0  0  0
 10 14  1  0  0  0  0
 10 27  1  0  0  0  0
 10 28  1  0  0  0  0
 11 17  1  0  0  0  0
 11 29  1  0  0  0  0
 11 30  1  0  0  0  0
 12 15  2  0  0  0  0
 12 31  1  0  0  0  0
 13 16  2  0  0  0  0
 14 18  1  0  0  0  0
 14 32  1  0  0  0  0
 14 33  1  0  0  0  0
 15 16  1  0  0  0  0
 15 34  1  0  0  0  0
 16 35  1  0  0  0  0
 17 19  2  0  0  0  0
 17 36  1  0  0  0  0
 18 37  1  0  0  0  0
 18 38  1  0  0  0  0
 18 39  1  0  0  0  0
 19 41  1  0  0  0  0
M  END
> <PUBCHEM_COMPOUND_CID>
10451844

> <PUBCHEM_COMPOUND_CANONICALIZED>
1

> <PUBCHEM_CACTVS_COMPLEXITY>
295

> <PUBCHEM_CACTVS_HBOND_ACCEPTOR>
2

> <PUBCHEM_CACTVS_HBOND_DONOR>
1

> <PUBCHEM_CACTVS_ROTATABLE_BOND>
5

> <PUBCHEM_CACTVS_SUBSKEYS>
AAADceB6IAAAAgAAAAAAAAAAAAAAAAAAAAAwYAAAAAAAAADBAAAAHgAgCAAADCzDmAQyBoMAAgCAAiBCAACCAAAgIAAIiAAOCIgIJiKCkROEcAAkwBGImAeQ0LMOgAABAAAYAAAQAAKAADAAAAAAAAAAAA==

> <PUBCHEM_IUPAC_OPENEYE_NAME>
2-[[(E)-3-iodoallyl]-propyl-amino]tetralin-5-ol

> <PUBCHEM_IUPAC_CAS_NAME>
6-[[(E)-3-iodoprop-2-enyl]-propylamino]-5,6,7,8-tetrahydronaphthalen-1-ol

> <PUBCHEM_IUPAC_NAME_MARKUP>
6-[[(<I>E</I>)-3-iodoprop-2-enyl]-propylamino]-5,6,7,8-tetrahydronaphthalen-1-ol

> <PUBCHEM_IUPAC_NAME>
6-[[(E)-3-iodoprop-2-enyl]-propylamino]-5,6,7,8-tetrahydronaphthalen-1-ol

> <PUBCHEM_IUPAC_SYSTEMATIC_NAME>
6-[[(E)-3-iodanylprop-2-enyl]-propyl-amino]-5,6,7,8-tetrahydronaphthalen-1-ol

> <PUBCHEM_IUPAC_TRADITIONAL_NAME>
2-[[(E)-3-iodoallyl]-propyl-amino]tetralin-5-ol

> <PUBCHEM_IUPAC_INCHI>
InChI=1S/C16H22INO/c1-2-10-18(11-4-9-17)14-7-8-15-13(12-14)5-3-6-16(15)19/h3-6,9,14,19H,2,7-8,10-12H2,1H3/b9-4+

> <PUBCHEM_IUPAC_INCHIKEY>
LYFXQSOWXVVQIV-RUDMXATFSA-N

> <PUBCHEM_XLOGP3_AA>
4.4

> <PUBCHEM_EXACT_MASS>
371.07461

> <PUBCHEM_MOLECULAR_FORMULA>
C16H22INO

> <PUBCHEM_MOLECULAR_WEIGHT>
371.26

> <PUBCHEM_OPENEYE_CAN_SMILES>
CCCN(CC=CI)C1CCC2=C(C1)C=CC=C2O

> <PUBCHEM_OPENEYE_ISO_SMILES>
CCCN(C/C=C/I)C1CCC2=C(C1)C=CC=C2O

> <PUBCHEM_CACTVS_TPSA>
23.5

> <PUBCHEM_MONOISOTOPIC_WEIGHT>
371.07461

> <PUBCHEM_TOTAL_CHARGE>
0

> <PUBCHEM_HEAVY_ATOM_COUNT>
19

> <PUBCHEM_ATOM_DEF_STEREO_COUNT>
0

> <PUBCHEM_ATOM_UDEF_STEREO_COUNT>
1

> <PUBCHEM_BOND_DEF_STEREO_COUNT>
1

> <PUBCHEM_BOND_UDEF_STEREO_COUNT>
0

> <PUBCHEM_ISOTOPIC_ATOM_COUNT>
0

> <PUBCHEM_COMPONENT_COUNT>
1

> <PUBCHEM_CACTVS_TAUTO_COUNT>
-1

> <PUBCHEM_COORDINATE_TYPE>
1
5
255

> <PUBCHEM_BONDANNOTATIONS>
12  15  8
13  16  8
15  16  8
4  3  3
8  12  8
8  9  8
9  13  8

$$$$
