44371025
  -OEChem-09292322182D

 68 71  0     1  0  0  0  0  0999 V2000
   15.0564    0.7085    0.0000 O   0  0  0  0  0  0  0  0  0  0  0  0
    9.7942    0.7327    0.0000 N   0  0  3  0  0  0  0  0  0  0  0  0
    6.3301    0.7327    0.0000 N   0  0  0  0  0  0  0  0  0  0  0  0
    4.5981   -0.2673    0.0000 N   0  0  0  0  0  0  0  0  0  0  0  0
    7.1962   -2.7673    0.0000 N   0  0  0  0  0  0  0  0  0  0  0  0
   10.6603    1.2327    0.0000 C   0  0  3  0  0  0  0  0  0  0  0  0
   10.6603    2.2327    0.0000 C   0  0  0  0  0  0  0  0  0  0  0  0
   11.5263    0.7327    0.0000 C   0  0  0  0  0  0  0  0  0  0  0  0
    8.9282    1.2327    0.0000 C   0  0  0  0  0  0  0  0  0  0  0  0
   11.5263    2.7327    0.0000 C   0  0  0  0  0  0  0  0  0  0  0  0
   12.3923    1.2327    0.0000 C   0  0  0  0  0  0  0  0  0  0  0  0
    8.0622    0.7327    0.0000 C   0  0  0  0  0  0  0  0  0  0  0  0
    9.7942   -0.2673    0.0000 C   0  0  0  0  0  0  0  0  0  0  0  0
   12.3923    2.2327    0.0000 C   0  0  0  0  0  0  0  0  0  0  0  0
    7.1962    1.2327    0.0000 C   0  0  0  0  0  0  0  0  0  0  0  0
    5.4641    1.2327    0.0000 C   0  0  0  0  0  0  0  0  0  0  0  0
    6.3301   -0.2673    0.0000 C   0  0  0  0  0  0  0  0  0  0  0  0
    4.5981    0.7327    0.0000 C   0  0  0  0  0  0  0  0  0  0  0  0
    5.4641   -0.7673    0.0000 C   0  0  0  0  0  0  0  0  0  0  0  0
    8.9282   -0.7673    0.0000 C   0  0  0  0  0  0  0  0  0  0  0  0
   13.2862    0.6980    0.0000 C   0  0  0  0  0  0  0  0  0  0  0  0
   13.2862    2.7673    0.0000 C   0  0  0  0  0  0  0  0  0  0  0  0
   14.1923    1.2119    0.0000 C   0  0  0  0  0  0  0  0  0  0  0  0
    3.7320   -0.7673    0.0000 C   0  0  0  0  0  0  0  0  0  0  0  0
   14.1923    2.2535    0.0000 C   0  0  0  0  0  0  0  0  0  0  0  0
    8.9282   -1.7673    0.0000 C   0  0  0  0  0  0  0  0  0  0  0  0
    3.7320   -1.7673    0.0000 C   0  0  0  0  0  0  0  0  0  0  0  0
    2.8660   -0.2673    0.0000 C   0  0  0  0  0  0  0  0  0  0  0  0
    8.0622   -2.2673    0.0000 C   0  0  0  0  0  0  0  0  0  0  0  0
    2.8660   -2.2673    0.0000 C   0  0  0  0  0  0  0  0  0  0  0  0
    2.0000   -0.7673    0.0000 C   0  0  0  0  0  0  0  0  0  0  0  0
    2.0000   -1.7673    0.0000 C   0  0  0  0  0  0  0  0  0  0  0  0
   10.6603    0.6127    0.0000 H   0  0  0  0  0  0  0  0  0  0  0  0
   10.4482    2.8153    0.0000 H   0  0  0  0  0  0  0  0  0  0  0  0
   10.0497    2.1250    0.0000 H   0  0  0  0  0  0  0  0  0  0  0  0
   11.1278    0.2577    0.0000 H   0  0  0  0  0  0  0  0  0  0  0  0
   11.9248    0.2577    0.0000 H   0  0  0  0  0  0  0  0  0  0  0  0
    9.3267    1.7076    0.0000 H   0  0  0  0  0  0  0  0  0  0  0  0
    8.5297    1.7076    0.0000 H   0  0  0  0  0  0  0  0  0  0  0  0
   11.9248    3.2076    0.0000 H   0  0  0  0  0  0  0  0  0  0  0  0
   11.1278    3.2076    0.0000 H   0  0  0  0  0  0  0  0  0  0  0  0
    7.6636    0.2577    0.0000 H   0  0  0  0  0  0  0  0  0  0  0  0
    8.4607    0.2577    0.0000 H   0  0  0  0  0  0  0  0  0  0  0  0
   10.0063   -0.8499    0.0000 H   0  0  0  0  0  0  0  0  0  0  0  0
   10.4048   -0.1597    0.0000 H   0  0  0  0  0  0  0  0  0  0  0  0
    7.5947    1.7076    0.0000 H   0  0  0  0  0  0  0  0  0  0  0  0
    6.7976    1.7076    0.0000 H   0  0  0  0  0  0  0  0  0  0  0  0
    5.8626    1.7076    0.0000 H   0  0  0  0  0  0  0  0  0  0  0  0
    5.0656    1.7076    0.0000 H   0  0  0  0  0  0  0  0  0  0  0  0
    6.5422   -0.8499    0.0000 H   0  0  0  0  0  0  0  0  0  0  0  0
    6.9407   -0.1597    0.0000 H   0  0  0  0  0  0  0  0  0  0  0  0
    4.3860    1.3153    0.0000 H   0  0  0  0  0  0  0  0  0  0  0  0
    3.9875    0.6250    0.0000 H   0  0  0  0  0  0  0  0  0  0  0  0
    5.0656   -1.2423    0.0000 H   0  0  0  0  0  0  0  0  0  0  0  0
    5.8626   -1.2423    0.0000 H   0  0  0  0  0  0  0  0  0  0  0  0
    8.7162   -0.1847    0.0000 H   0  0  0  0  0  0  0  0  0  0  0  0
    8.3176   -0.8750    0.0000 H   0  0  0  0  0  0  0  0  0  0  0  0
   13.2791    0.0780    0.0000 H   0  0  0  0  0  0  0  0  0  0  0  0
   13.2791    3.3873    0.0000 H   0  0  0  0  0  0  0  0  0  0  0  0
   14.7281    2.5656    0.0000 H   0  0  0  0  0  0  0  0  0  0  0  0
    9.1403   -2.3499    0.0000 H   0  0  0  0  0  0  0  0  0  0  0  0
    9.5388   -1.6597    0.0000 H   0  0  0  0  0  0  0  0  0  0  0  0
    4.2690   -2.0773    0.0000 H   0  0  0  0  0  0  0  0  0  0  0  0
    2.8660    0.3527    0.0000 H   0  0  0  0  0  0  0  0  0  0  0  0
   15.5945    1.0164    0.0000 H   0  0  0  0  0  0  0  0  0  0  0  0
    2.8660   -2.8873    0.0000 H   0  0  0  0  0  0  0  0  0  0  0  0
    1.4631   -0.4573    0.0000 H   0  0  0  0  0  0  0  0  0  0  0  0
    1.4631   -2.0773    0.0000 H   0  0  0  0  0  0  0  0  0  0  0  0
  1 23  1  0  0  0  0
  1 65  1  0  0  0  0
  2  6  1  0  0  0  0
  2  9  1  0  0  0  0
  2 13  1  0  0  0  0
  3 15  1  0  0  0  0
  3 16  1  0  0  0  0
  3 17  1  0  0  0  0
  4 18  1  0  0  0  0
  4 19  1  0  0  0  0
  4 24  1  0  0  0  0
  5 29  3  0  0  0  0
  6  7  1  0  0  0  0
  6  8  1  0  0  0  0
  6 33  1  0  0  0  0
  7 10  1  0  0  0  0
  7 34  1  0  0  0  0
  7 35  1  0  0  0  0
  8 11  1  0  0  0  0
  8 36  1  0  0  0  0
  8 37  1  0  0  0  0
  9 12  1  0  0  0  0
  9 38  1  0  0  0  0
  9 39  1  0  0  0  0
 10 14  1  0  0  0  0
 10 40  1  0  0  0  0
 10 41  1  0  0  0  0
 11 14  2  0  0  0  0
 11 21  1  0  0  0  0
 12 15  1  0  0  0  0
 12 42  1  0  0  0  0
 12 43  1  0  0  0  0
 13 20  1  0  0  0  0
 13 44  1  0  0  0  0
 13 45  1  0  0  0  0
 14 22  1  0  0  0  0
 15 46  1  0  0  0  0
 15 47  1  0  0  0  0
 16 18  1  0  0  0  0
 16 48  1  0  0  0  0
 16 49  1  0  0  0  0
 17 19  1  0  0  0  0
 17 50  1  0  0  0  0
 17 51  1  0  0  0  0
 18 52  1  0  0  0  0
 18 53  1  0  0  0  0
 19 54  1  0  0  0  0
 19 55  1  0  0  0  0
 20 26  1  0  0  0  0
 20 56  1  0  0  0  0
 20 57  1  0  0  0  0
 21 23  2  0  0  0  0
 21 58  1  0  0  0  0
 22 25  2  0  0  0  0
 22 59  1  0  0  0  0
 23 25  1  0  0  0  0
 24 27  2  0  0  0  0
 24 28  1  0  0  0  0
 25 60  1  0  0  0  0
 26 29  1  0  0  0  0
 26 61  1  0  0  0  0
 26 62  1  0  0  0  0
 27 30  1  0  0  0  0
 27 63  1  0  0  0  0
 28 31  2  0  0  0  0
 28 64  1  0  0  0  0
 30 32  2  0  0  0  0
 30 66  1  0  0  0  0
 31 32  1  0  0  0  0
 31 67  1  0  0  0  0
 32 68  1  0  0  0  0
M  END
> <PUBCHEM_COMPOUND_CID>
44371025

> <PUBCHEM_COMPOUND_CANONICALIZED>
1

> <PUBCHEM_CACTVS_COMPLEXITY>
590

> <PUBCHEM_CACTVS_HBOND_ACCEPTOR>
5

> <PUBCHEM_CACTVS_HBOND_DONOR>
1

> <PUBCHEM_CACTVS_ROTATABLE_BOND>
9

> <PUBCHEM_CACTVS_SUBSKEYS>
AAADcfB7oAAAAAAAAAAAAAAAAAAAAAAAAAA8YMEAAAAAAADBQAAAHgAACAAADCzBmAQwxoMAAgCQBiRCQACCAAAhIgAIiAAObIgI5iLC0ZOUcAhkwBHI2A+Q0LMOoAABAAAQAABQAAKAACAAAAAAAAAAAA==

> <PUBCHEM_IUPAC_OPENEYE_NAME>
4-[(7-hydroxytetralin-2-yl)-[3-(4-phenylpiperazin-1-yl)propyl]amino]butanenitrile

> <PUBCHEM_IUPAC_CAS_NAME>
4-[(7-hydroxy-1,2,3,4-tetrahydronaphthalen-2-yl)-[3-(4-phenyl-1-piperazinyl)propyl]amino]butanenitrile

> <PUBCHEM_IUPAC_NAME_MARKUP>
4-[(7-hydroxy-1,2,3,4-tetrahydronaphthalen-2-yl)-[3-(4-phenylpiperazin-1-yl)propyl]amino]butanenitrile

> <PUBCHEM_IUPAC_NAME>
4-[(7-hydroxy-1,2,3,4-tetrahydronaphthalen-2-yl)-[3-(4-phenylpiperazin-1-yl)propyl]amino]butanenitrile

> <PUBCHEM_IUPAC_SYSTEMATIC_NAME>
4-[(7-oxidanyl-1,2,3,4-tetrahydronaphthalen-2-yl)-[3-(4-phenylpiperazin-1-yl)propyl]amino]butanenitrile

> <PUBCHEM_IUPAC_TRADITIONAL_NAME>
4-[(7-hydroxytetralin-2-yl)-[3-(4-phenylpiperazino)propyl]amino]butyronitrile

> <PUBCHEM_IUPAC_INCHI>
InChI=1S/C27H36N4O/c28-13-4-5-15-30(26-11-9-23-10-12-27(32)22-24(23)21-26)16-6-14-29-17-19-31(20-18-29)25-7-2-1-3-8-25/h1-3,7-8,10,12,22,26,32H,4-6,9,11,14-21H2

> <PUBCHEM_IUPAC_INCHIKEY>
OSAUGWDHZYWLTI-UHFFFAOYSA-N

> <PUBCHEM_XLOGP3_AA>
4.4

> <PUBCHEM_EXACT_MASS>
432.28891178

> <PUBCHEM_MOLECULAR_FORMULA>
C27H36N4O

> <PUBCHEM_MOLECULAR_WEIGHT>
432.6

> <PUBCHEM_OPENEYE_CAN_SMILES>
C1CC2=C(CC1N(CCCC#N)CCCN3CCN(CC3)C4=CC=CC=C4)C=C(C=C2)O

> <PUBCHEM_OPENEYE_ISO_SMILES>
C1CC2=C(CC1N(CCCC#N)CCCN3CCN(CC3)C4=CC=CC=C4)C=C(C=C2)O

> <PUBCHEM_CACTVS_TPSA>
53.7

> <PUBCHEM_MONOISOTOPIC_WEIGHT>
432.28891178

> <PUBCHEM_TOTAL_CHARGE>
0

> <PUBCHEM_HEAVY_ATOM_COUNT>
32

> <PUBCHEM_ATOM_DEF_STEREO_COUNT>
0

> <PUBCHEM_ATOM_UDEF_STEREO_COUNT>
1

> <PUBCHEM_BOND_DEF_STEREO_COUNT>
0

> <PUBCHEM_BOND_UDEF_STEREO_COUNT>
0

> <PUBCHEM_ISOTOPIC_ATOM_COUNT>
0

> <PUBCHEM_COMPONENT_COUNT>
1

> <PUBCHEM_CACTVS_TAUTO_COUNT>
-1

> <PUBCHEM_COORDINATE_TYPE>
1
5
255

> <PUBCHEM_BONDANNOTATIONS>
11  14  8
11  21  8
14  22  8
6  2  3
21  23  8
22  25  8
23  25  8
24  27  8
24  28  8
27  30  8
28  31  8
30  32  8
31  32  8

$$$$
