155519378
  -OEChem-09292322402D

 73 76  0     1  0  0  0  0  0999 V2000
    5.4641    7.5000    0.0000 F   0  0  0  0  0  0  0  0  0  0  0  0
   10.6603   -5.5000    0.0000 O   0  0  0  0  0  0  0  0  0  0  0  0
    5.4641    1.5000    0.0000 O   0  0  0  0  0  0  0  0  0  0  0  0
    8.9282   -2.5000    0.0000 N   0  0  0  0  0  0  0  0  0  0  0  0
    8.9282   -4.5000    0.0000 N   0  0  0  0  0  0  0  0  0  0  0  0
    7.1962    1.5000    0.0000 N   0  0  0  0  0  0  0  0  0  0  0  0
    6.3301    3.0000    0.0000 N   0  0  0  0  0  0  0  0  0  0  0  0
    5.4641    3.5000    0.0000 N   0  0  3  0  0  0  0  0  0  0  0  0
    9.7942   -3.0000    0.0000 C   0  0  0  0  0  0  0  0  0  0  0  0
    8.0622   -3.0000    0.0000 C   0  0  0  0  0  0  0  0  0  0  0  0
    9.7942   -4.0000    0.0000 C   0  0  0  0  0  0  0  0  0  0  0  0
    8.0622   -4.0000    0.0000 C   0  0  0  0  0  0  0  0  0  0  0  0
    8.9282   -1.5000    0.0000 C   0  0  0  0  0  0  0  0  0  0  0  0
    8.0622   -1.0000    0.0000 C   0  0  0  0  0  0  0  0  0  0  0  0
    8.9282   -5.5000    0.0000 C   0  0  0  0  0  0  0  0  0  0  0  0
    8.0622    0.0000    0.0000 C   0  0  0  0  0  0  0  0  0  0  0  0
    7.1962    0.5000    0.0000 C   0  0  0  0  0  0  0  0  0  0  0  0
    9.7942   -6.0000    0.0000 C   0  0  0  0  0  0  0  0  0  0  0  0
    8.0622   -6.0000    0.0000 C   0  0  0  0  0  0  0  0  0  0  0  0
    9.7942   -7.0000    0.0000 C   0  0  0  0  0  0  0  0  0  0  0  0
    8.0622   -7.0000    0.0000 C   0  0  0  0  0  0  0  0  0  0  0  0
    8.9282   -7.5000    0.0000 C   0  0  0  0  0  0  0  0  0  0  0  0
    6.3301    2.0000    0.0000 C   0  0  0  0  0  0  0  0  0  0  0  0
   11.5263   -6.0000    0.0000 C   0  0  0  0  0  0  0  0  0  0  0  0
    4.5981    3.0000    0.0000 C   0  0  0  0  0  0  0  0  0  0  0  0
    5.4641    4.5000    0.0000 C   0  0  0  0  0  0  0  0  0  0  0  0
    3.7320    3.5000    0.0000 C   0  0  0  0  0  0  0  0  0  0  0  0
    6.3301    5.0000    0.0000 C   0  0  0  0  0  0  0  0  0  0  0  0
    4.5981    5.0000    0.0000 C   0  0  0  0  0  0  0  0  0  0  0  0
    3.7320    4.5000    0.0000 C   0  0  0  0  0  0  0  0  0  0  0  0
    2.8660    3.0000    0.0000 C   0  0  0  0  0  0  0  0  0  0  0  0
    6.3301    6.0000    0.0000 C   0  0  0  0  0  0  0  0  0  0  0  0
    4.5981    6.0000    0.0000 C   0  0  0  0  0  0  0  0  0  0  0  0
    2.8660    5.0000    0.0000 C   0  0  0  0  0  0  0  0  0  0  0  0
    2.0000    3.5000    0.0000 C   0  0  0  0  0  0  0  0  0  0  0  0
    5.4641    6.5000    0.0000 C   0  0  0  0  0  0  0  0  0  0  0  0
    2.0000    4.5000    0.0000 C   0  0  0  0  0  0  0  0  0  0  0  0
   10.4048   -3.1077    0.0000 H   0  0  0  0  0  0  0  0  0  0  0  0
   10.0063   -2.4174    0.0000 H   0  0  0  0  0  0  0  0  0  0  0  0
    7.8501   -2.4174    0.0000 H   0  0  0  0  0  0  0  0  0  0  0  0
    7.4516   -3.1077    0.0000 H   0  0  0  0  0  0  0  0  0  0  0  0
   10.0063   -4.5826    0.0000 H   0  0  0  0  0  0  0  0  0  0  0  0
   10.4048   -3.8923    0.0000 H   0  0  0  0  0  0  0  0  0  0  0  0
    7.4516   -3.8923    0.0000 H   0  0  0  0  0  0  0  0  0  0  0  0
    7.8501   -4.5826    0.0000 H   0  0  0  0  0  0  0  0  0  0  0  0
    9.5388   -1.6077    0.0000 H   0  0  0  0  0  0  0  0  0  0  0  0
    9.1403   -0.9174    0.0000 H   0  0  0  0  0  0  0  0  0  0  0  0
    7.4516   -0.8923    0.0000 H   0  0  0  0  0  0  0  0  0  0  0  0
    7.8501   -1.5826    0.0000 H   0  0  0  0  0  0  0  0  0  0  0  0
    8.6728   -0.1077    0.0000 H   0  0  0  0  0  0  0  0  0  0  0  0
    8.2742    0.5826    0.0000 H   0  0  0  0  0  0  0  0  0  0  0  0
    6.5856    0.6077    0.0000 H   0  0  0  0  0  0  0  0  0  0  0  0
    6.9841   -0.0826    0.0000 H   0  0  0  0  0  0  0  0  0  0  0  0
    7.5252   -5.6900    0.0000 H   0  0  0  0  0  0  0  0  0  0  0  0
   10.3312   -7.3100    0.0000 H   0  0  0  0  0  0  0  0  0  0  0  0
    7.5252   -7.3100    0.0000 H   0  0  0  0  0  0  0  0  0  0  0  0
    7.7331    1.8100    0.0000 H   0  0  0  0  0  0  0  0  0  0  0  0
    8.9282   -8.1200    0.0000 H   0  0  0  0  0  0  0  0  0  0  0  0
   11.2163   -6.5369    0.0000 H   0  0  0  0  0  0  0  0  0  0  0  0
   12.0632   -6.3100    0.0000 H   0  0  0  0  0  0  0  0  0  0  0  0
   11.8363   -5.4631    0.0000 H   0  0  0  0  0  0  0  0  0  0  0  0
    6.8671    3.3100    0.0000 H   0  0  0  0  0  0  0  0  0  0  0  0
    4.1996    2.5250    0.0000 H   0  0  0  0  0  0  0  0  0  0  0  0
    4.9966    2.5250    0.0000 H   0  0  0  0  0  0  0  0  0  0  0  0
    6.8671    4.6900    0.0000 H   0  0  0  0  0  0  0  0  0  0  0  0
    4.0611    4.6900    0.0000 H   0  0  0  0  0  0  0  0  0  0  0  0
    4.2690    4.8100    0.0000 H   0  0  0  0  0  0  0  0  0  0  0  0
    2.8660    2.3800    0.0000 H   0  0  0  0  0  0  0  0  0  0  0  0
    6.8671    6.3100    0.0000 H   0  0  0  0  0  0  0  0  0  0  0  0
    4.0611    6.3100    0.0000 H   0  0  0  0  0  0  0  0  0  0  0  0
    2.8660    5.6200    0.0000 H   0  0  0  0  0  0  0  0  0  0  0  0
    1.4631    3.1900    0.0000 H   0  0  0  0  0  0  0  0  0  0  0  0
    1.4631    4.8100    0.0000 H   0  0  0  0  0  0  0  0  0  0  0  0
  1 36  1  0  0  0  0
  2 18  1  0  0  0  0
  2 24  1  0  0  0  0
  3 23  2  0  0  0  0
  4  9  1  0  0  0  0
  4 10  1  0  0  0  0
  4 13  1  0  0  0  0
  5 11  1  0  0  0  0
  5 12  1  0  0  0  0
  5 15  1  0  0  0  0
  6 17  1  0  0  0  0
  6 23  1  0  0  0  0
  6 57  1  0  0  0  0
  7  8  1  0  0  0  0
  7 23  1  0  0  0  0
  7 62  1  0  0  0  0
  8 25  1  0  0  0  0
  8 26  1  0  0  0  0
  9 11  1  0  0  0  0
  9 38  1  0  0  0  0
  9 39  1  0  0  0  0
 10 12  1  0  0  0  0
 10 40  1  0  0  0  0
 10 41  1  0  0  0  0
 11 42  1  0  0  0  0
 11 43  1  0  0  0  0
 12 44  1  0  0  0  0
 12 45  1  0  0  0  0
 13 14  1  0  0  0  0
 13 46  1  0  0  0  0
 13 47  1  0  0  0  0
 14 16  1  0  0  0  0
 14 48  1  0  0  0  0
 14 49  1  0  0  0  0
 15 18  1  0  0  0  0
 15 19  2  0  0  0  0
 16 17  1  0  0  0  0
 16 50  1  0  0  0  0
 16 51  1  0  0  0  0
 17 52  1  0  0  0  0
 17 53  1  0  0  0  0
 18 20  2  0  0  0  0
 19 21  1  0  0  0  0
 19 54  1  0  0  0  0
 20 22  1  0  0  0  0
 20 55  1  0  0  0  0
 21 22  2  0  0  0  0
 21 56  1  0  0  0  0
 22 58  1  0  0  0  0
 24 59  1  0  0  0  0
 24 60  1  0  0  0  0
 24 61  1  0  0  0  0
 25 27  1  0  0  0  0
 25 63  1  0  0  0  0
 25 64  1  0  0  0  0
 26 28  2  0  0  0  0
 26 29  1  0  0  0  0
 27 30  2  0  0  0  0
 27 31  1  0  0  0  0
 28 32  1  0  0  0  0
 28 65  1  0  0  0  0
 29 33  2  0  0  0  0
 29 66  1  0  0  0  0
 30 34  1  0  0  0  0
 30 67  1  0  0  0  0
 31 35  2  0  0  0  0
 31 68  1  0  0  0  0
 32 36  2  0  0  0  0
 32 69  1  0  0  0  0
 33 36  1  0  0  0  0
 33 70  1  0  0  0  0
 34 37  2  0  0  0  0
 34 71  1  0  0  0  0
 35 37  1  0  0  0  0
 35 72  1  0  0  0  0
 37 73  1  0  0  0  0
M  END
> <PUBCHEM_COMPOUND_CID>
155519378

> <PUBCHEM_COMPOUND_CANONICALIZED>
1

> <PUBCHEM_CACTVS_COMPLEXITY>
648

> <PUBCHEM_CACTVS_HBOND_ACCEPTOR>
6

> <PUBCHEM_CACTVS_HBOND_DONOR>
2

> <PUBCHEM_CACTVS_ROTATABLE_BOND>
11

> <PUBCHEM_CACTVS_SUBSKEYS>
AAADcfB7sQAAAAAAAAAAAAAAAAAAAAAAAAA8YMEAAAAAAAABUAAAHwAYAAAADAzBmA4zxoPiBACIAiRCUACCDAAhIgAeqIAPbIiOZiLEsZuVMCh01hPY6AeQwAAOAAAAAAAAEAAAAAAAAAAgAAAAAAAAAA==

> <PUBCHEM_IUPAC_OPENEYE_NAME>
1-(N-benzyl-4-fluoro-anilino)-3-[4-[4-(2-methoxyphenyl)piperazin-1-yl]butyl]urea

> <PUBCHEM_IUPAC_CAS_NAME>
1-(4-fluoro-N-(phenylmethyl)anilino)-3-[4-[4-(2-methoxyphenyl)-1-piperazinyl]butyl]urea

> <PUBCHEM_IUPAC_NAME_MARKUP>
1-(<I>N</I>-benzyl-4-fluoroanilino)-3-[4-[4-(2-methoxyphenyl)piperazin-1-yl]butyl]urea

> <PUBCHEM_IUPAC_NAME>
1-(N-benzyl-4-fluoroanilino)-3-[4-[4-(2-methoxyphenyl)piperazin-1-yl]butyl]urea

> <PUBCHEM_IUPAC_SYSTEMATIC_NAME>
1-[(4-fluorophenyl)-(phenylmethyl)amino]-3-[4-[4-(2-methoxyphenyl)piperazin-1-yl]butyl]urea

> <PUBCHEM_IUPAC_TRADITIONAL_NAME>
1-(N-benzyl-4-fluoro-anilino)-3-[4-[4-(2-methoxyphenyl)piperazino]butyl]urea

> <PUBCHEM_IUPAC_INCHI>
InChI=1S/C29H36FN5O2/c1-37-28-12-6-5-11-27(28)34-21-19-33(20-22-34)18-8-7-17-31-29(36)32-35(23-24-9-3-2-4-10-24)26-15-13-25(30)14-16-26/h2-6,9-16H,7-8,17-23H2,1H3,(H2,31,32,36)

> <PUBCHEM_IUPAC_INCHIKEY>
DHOLLIZICIPGNS-UHFFFAOYSA-N

> <PUBCHEM_XLOGP3_AA>
5.3

> <PUBCHEM_EXACT_MASS>
505.28530357

> <PUBCHEM_MOLECULAR_FORMULA>
C29H36FN5O2

> <PUBCHEM_MOLECULAR_WEIGHT>
505.6

> <PUBCHEM_OPENEYE_CAN_SMILES>
COC1=CC=CC=C1N2CCN(CC2)CCCCNC(=O)NN(CC3=CC=CC=C3)C4=CC=C(C=C4)F

> <PUBCHEM_OPENEYE_ISO_SMILES>
COC1=CC=CC=C1N2CCN(CC2)CCCCNC(=O)NN(CC3=CC=CC=C3)C4=CC=C(C=C4)F

> <PUBCHEM_CACTVS_TPSA>
60.1

> <PUBCHEM_MONOISOTOPIC_WEIGHT>
505.28530357

> <PUBCHEM_TOTAL_CHARGE>
0

> <PUBCHEM_HEAVY_ATOM_COUNT>
37

> <PUBCHEM_ATOM_DEF_STEREO_COUNT>
0

> <PUBCHEM_ATOM_UDEF_STEREO_COUNT>
0

> <PUBCHEM_BOND_DEF_STEREO_COUNT>
0

> <PUBCHEM_BOND_UDEF_STEREO_COUNT>
0

> <PUBCHEM_ISOTOPIC_ATOM_COUNT>
0

> <PUBCHEM_COMPONENT_COUNT>
1

> <PUBCHEM_CACTVS_TAUTO_COUNT>
-1

> <PUBCHEM_COORDINATE_TYPE>
1
5
255

> <PUBCHEM_BONDANNOTATIONS>
15  18  8
15  19  8
18  20  8
19  21  8
20  22  8
21  22  8
26  28  8
26  29  8
27  30  8
27  31  8
28  32  8
29  33  8
30  34  8
31  35  8
32  36  8
33  36  8
34  37  8
35  37  8

$$$$
