155516041
  -OEChem-09292322412D

 70 72  0     1  0  0  0  0  0999 V2000
    3.0000    2.6200    0.0000 Cl  0  0  0  0  0  0  0  0  0  0  0  0
    3.0000    0.6200    0.0000 Cl  0  0  0  0  0  0  0  0  0  0  0  0
    0.0000    7.0530    0.0000 Cl  0  0  0  0  0  0  0  0  0  0  0  0
    7.8301   10.9860    0.0000 O   0  0  0  0  0  0  0  0  0  0  0  0
    6.0981    5.9860    0.0000 N   0  0  3  0  0  0  0  0  0  0  0  0
    8.6962    9.4860    0.0000 N   0  0  0  0  0  0  0  0  0  0  0  0
   13.0263   11.9860    0.0000 N   0  0  0  0  0  0  0  0  0  0  0  0
    5.2320    4.4860    0.0000 C   0  0  1  0  0  0  0  0  0  0  0  0
    4.7320    3.6200    0.0000 C   0  0  1  0  0  0  0  0  0  0  0  0
    4.2320    4.4860    0.0000 C   0  0  0  0  0  0  0  0  0  0  0  0
    6.0981    4.9860    0.0000 C   0  0  0  0  0  0  0  0  0  0  0  0
    4.7320    2.6200    0.0000 C   0  0  0  0  0  0  0  0  0  0  0  0
    6.9641    6.4860    0.0000 C   0  0  0  0  0  0  0  0  0  0  0  0
    5.2320    6.4860    0.0000 C   0  0  0  0  0  0  0  0  0  0  0  0
    3.8660    2.1200    0.0000 C   0  0  0  0  0  0  0  0  0  0  0  0
    5.5981    2.1200    0.0000 C   0  0  0  0  0  0  0  0  0  0  0  0
    6.9641    7.4860    0.0000 C   0  0  0  0  0  0  0  0  0  0  0  0
    5.2320    7.4860    0.0000 C   0  0  0  0  0  0  0  0  0  0  0  0
    3.8660    1.1200    0.0000 C   0  0  0  0  0  0  0  0  0  0  0  0
    5.5981    1.1200    0.0000 C   0  0  0  0  0  0  0  0  0  0  0  0
    4.7320    0.6200    0.0000 C   0  0  0  0  0  0  0  0  0  0  0  0
    7.8301    7.9860    0.0000 C   0  0  0  0  0  0  0  0  0  0  0  0
    4.3660    7.9860    0.0000 C   0  0  0  0  0  0  0  0  0  0  0  0
    7.8301    8.9860    0.0000 C   0  0  0  0  0  0  0  0  0  0  0  0
    8.6962   10.4860    0.0000 C   0  0  0  0  0  0  0  0  0  0  0  0
    9.5622   10.9860    0.0000 C   0  0  0  0  0  0  0  0  0  0  0  0
   10.4282   10.4860    0.0000 C   0  0  0  0  0  0  0  0  0  0  0  0
    9.5622   11.9860    0.0000 C   0  0  0  0  0  0  0  0  0  0  0  0
   11.2942   10.9860    0.0000 C   0  0  0  0  0  0  0  0  0  0  0  0
   10.4282   12.4860    0.0000 C   0  0  0  0  0  0  0  0  0  0  0  0
   11.2942   11.9860    0.0000 C   0  0  0  0  0  0  0  0  0  0  0  0
   12.1603   12.4860    0.0000 C   0  0  0  0  0  0  0  0  0  0  0  0
   12.1603   13.4860    0.0000 C   0  0  0  0  0  0  0  0  0  0  0  0
   13.0263   13.9860    0.0000 C   0  0  0  0  0  0  0  0  0  0  0  0
   13.8923   12.4860    0.0000 C   0  0  0  0  0  0  0  0  0  0  0  0
   13.8923   13.4860    0.0000 C   0  0  0  0  0  0  0  0  0  0  0  0
    5.0716    5.0849    0.0000 H   0  0  0  0  0  0  0  0  0  0  0  0
    5.3309    3.4595    0.0000 H   0  0  0  0  0  0  0  0  0  0  0  0
    4.1244    5.0966    0.0000 H   0  0  0  0  0  0  0  0  0  0  0  0
    3.6494    4.2740    0.0000 H   0  0  0  0  0  0  0  0  0  0  0  0
    6.3101    4.4034    0.0000 H   0  0  0  0  0  0  0  0  0  0  0  0
    6.7087    5.0937    0.0000 H   0  0  0  0  0  0  0  0  0  0  0  0
    7.1762    5.9034    0.0000 H   0  0  0  0  0  0  0  0  0  0  0  0
    7.5747    6.5937    0.0000 H   0  0  0  0  0  0  0  0  0  0  0  0
    4.6215    6.5937    0.0000 H   0  0  0  0  0  0  0  0  0  0  0  0
    5.0200    5.9034    0.0000 H   0  0  0  0  0  0  0  0  0  0  0  0
    6.1350    2.4300    0.0000 H   0  0  0  0  0  0  0  0  0  0  0  0
    6.7520    8.0686    0.0000 H   0  0  0  0  0  0  0  0  0  0  0  0
    6.3535    7.3784    0.0000 H   0  0  0  0  0  0  0  0  0  0  0  0
    5.8426    7.3784    0.0000 H   0  0  0  0  0  0  0  0  0  0  0  0
    5.4441    8.0686    0.0000 H   0  0  0  0  0  0  0  0  0  0  0  0
    6.1350    0.8100    0.0000 H   0  0  0  0  0  0  0  0  0  0  0  0
    4.7320    0.0000    0.0000 H   0  0  0  0  0  0  0  0  0  0  0  0
    8.0422    7.4034    0.0000 H   0  0  0  0  0  0  0  0  0  0  0  0
    8.4407    8.0937    0.0000 H   0  0  0  0  0  0  0  0  0  0  0  0
    4.6760    8.5230    0.0000 H   0  0  0  0  0  0  0  0  0  0  0  0
    3.8291    8.2960    0.0000 H   0  0  0  0  0  0  0  0  0  0  0  0
    4.0560    7.4491    0.0000 H   0  0  0  0  0  0  0  0  0  0  0  0
    7.6181    9.5686    0.0000 H   0  0  0  0  0  0  0  0  0  0  0  0
    7.2196    8.8784    0.0000 H   0  0  0  0  0  0  0  0  0  0  0  0
    9.2331    9.1760    0.0000 H   0  0  0  0  0  0  0  0  0  0  0  0
   10.4282    9.8660    0.0000 H   0  0  0  0  0  0  0  0  0  0  0  0
    9.0252   12.2960    0.0000 H   0  0  0  0  0  0  0  0  0  0  0  0
   11.8312   10.6760    0.0000 H   0  0  0  0  0  0  0  0  0  0  0  0
   10.4282   13.1060    0.0000 H   0  0  0  0  0  0  0  0  0  0  0  0
   11.6233   13.7960    0.0000 H   0  0  0  0  0  0  0  0  0  0  0  0
   13.0263   14.6060    0.0000 H   0  0  0  0  0  0  0  0  0  0  0  0
   14.4292   12.1760    0.0000 H   0  0  0  0  0  0  0  0  0  0  0  0
   14.4292   13.7960    0.0000 H   0  0  0  0  0  0  0  0  0  0  0  0
    1.0000    7.0530    0.0000 H   0  0  0  0  0  0  0  0  0  0  0  0
  1 15  1  0  0  0  0
  2 19  1  0  0  0  0
  3 70  1  0  0  0  0
  4 25  2  0  0  0  0
  5 11  1  0  0  0  0
  5 13  1  0  0  0  0
  5 14  1  0  0  0  0
  6 24  1  0  0  0  0
  6 25  1  0  0  0  0
  6 61  1  0  0  0  0
  7 32  1  0  0  0  0
  7 35  2  0  0  0  0
  8  9  1  0  0  0  0
  8 10  1  0  0  0  0
  8 11  1  1  0  0  0
  8 37  1  0  0  0  0
  9 10  1  0  0  0  0
  9 12  1  6  0  0  0
  9 38  1  0  0  0  0
 10 39  1  0  0  0  0
 10 40  1  0  0  0  0
 11 41  1  0  0  0  0
 11 42  1  0  0  0  0
 12 15  2  0  0  0  0
 12 16  1  0  0  0  0
 13 17  1  0  0  0  0
 13 43  1  0  0  0  0
 13 44  1  0  0  0  0
 14 18  1  0  0  0  0
 14 45  1  0  0  0  0
 14 46  1  0  0  0  0
 15 19  1  0  0  0  0
 16 20  2  0  0  0  0
 16 47  1  0  0  0  0
 17 22  1  0  0  0  0
 17 48  1  0  0  0  0
 17 49  1  0  0  0  0
 18 23  1  0  0  0  0
 18 50  1  0  0  0  0
 18 51  1  0  0  0  0
 19 21  2  0  0  0  0
 20 21  1  0  0  0  0
 20 52  1  0  0  0  0
 21 53  1  0  0  0  0
 22 24  1  0  0  0  0
 22 54  1  0  0  0  0
 22 55  1  0  0  0  0
 23 56  1  0  0  0  0
 23 57  1  0  0  0  0
 23 58  1  0  0  0  0
 24 59  1  0  0  0  0
 24 60  1  0  0  0  0
 25 26  1  0  0  0  0
 26 27  2  0  0  0  0
 26 28  1  0  0  0  0
 27 29  1  0  0  0  0
 27 62  1  0  0  0  0
 28 30  2  0  0  0  0
 28 63  1  0  0  0  0
 29 31  2  0  0  0  0
 29 64  1  0  0  0  0
 30 31  1  0  0  0  0
 30 65  1  0  0  0  0
 31 32  1  0  0  0  0
 32 33  2  0  0  0  0
 33 34  1  0  0  0  0
 33 66  1  0  0  0  0
 34 36  2  0  0  0  0
 34 67  1  0  0  0  0
 35 36  1  0  0  0  0
 35 68  1  0  0  0  0
 36 69  1  0  0  0  0
M  END
> <PUBCHEM_COMPOUND_CID>
155516041

> <PUBCHEM_COMPOUND_CANONICALIZED>
1

> <PUBCHEM_CACTVS_COMPLEXITY>
641

> <PUBCHEM_CACTVS_HBOND_ACCEPTOR>
3

> <PUBCHEM_CACTVS_HBOND_DONOR>
2

> <PUBCHEM_CACTVS_ROTATABLE_BOND>
12

> <PUBCHEM_CACTVS_SUBSKEYS>
AAADcfB7IAAGAAAAAAAAAAAAGAAAAAAAAAA8YIAAAAAAAAAB0AAAHgIQAAAADQrBniQ+gJPIEACoAzV3VACCgCA1ByAI2uE4ZtgIIPLBl5GEIQhglgDIyYcYiMCOwAAAIAABAASAAABAAAIACAAAAAAAAA==

> <PUBCHEM_IUPAC_OPENEYE_NAME>
N-[4-[[(1R,2R)-2-(2,3-dichlorophenyl)cyclopropyl]methyl-propyl-amino]butyl]-4-(2-pyridyl)benzamide;hydrochloride

> <PUBCHEM_IUPAC_CAS_NAME>
N-[4-[[(1R,2R)-2-(2,3-dichlorophenyl)cyclopropyl]methyl-propylamino]butyl]-4-(2-pyridinyl)benzamide;hydrochloride

> <PUBCHEM_IUPAC_NAME_MARKUP>
<I>N</I>-[4-[[(1<I>R</I>,2<I>R</I>)-2-(2,3-dichlorophenyl)cyclopropyl]methyl-propylamino]butyl]-4-pyridin-2-ylbenzamide;hydrochloride

> <PUBCHEM_IUPAC_NAME>
N-[4-[[(1R,2R)-2-(2,3-dichlorophenyl)cyclopropyl]methyl-propylamino]butyl]-4-pyridin-2-ylbenzamide;hydrochloride

> <PUBCHEM_IUPAC_SYSTEMATIC_NAME>
N-[4-[[(1R,2R)-2-[2,3-bis(chloranyl)phenyl]cyclopropyl]methyl-propyl-amino]butyl]-4-pyridin-2-yl-benzamide;hydrochloride

> <PUBCHEM_IUPAC_TRADITIONAL_NAME>
N-[4-[[(1R,2R)-2-(2,3-dichlorophenyl)cyclopropyl]methyl-propyl-amino]butyl]-4-(2-pyridyl)benzamide;hydrochloride

> <PUBCHEM_IUPAC_INCHI>
InChI=1S/C29H33Cl2N3O.ClH/c1-2-17-34(20-23-19-25(23)24-8-7-9-26(30)28(24)31)18-6-5-16-33-29(35)22-13-11-21(12-14-22)27-10-3-4-15-32-27;/h3-4,7-15,23,25H,2,5-6,16-20H2,1H3,(H,33,35);1H/t23-,25+;/m0./s1

> <PUBCHEM_IUPAC_INCHIKEY>
JEMQTHDWBCYAAO-LMIIKYDLSA-N

> <PUBCHEM_EXACT_MASS>
545.176746

> <PUBCHEM_MOLECULAR_FORMULA>
C29H34Cl3N3O

> <PUBCHEM_MOLECULAR_WEIGHT>
547.0

> <PUBCHEM_OPENEYE_CAN_SMILES>
CCCN(CCCCNC(=O)C1=CC=C(C=C1)C2=CC=CC=N2)CC3CC3C4=C(C(=CC=C4)Cl)Cl.Cl

> <PUBCHEM_OPENEYE_ISO_SMILES>
CCCN(CCCCNC(=O)C1=CC=C(C=C1)C2=CC=CC=N2)C[C@@H]3C[C@H]3C4=C(C(=CC=C4)Cl)Cl.Cl

> <PUBCHEM_CACTVS_TPSA>
45.2

> <PUBCHEM_MONOISOTOPIC_WEIGHT>
545.176746

> <PUBCHEM_TOTAL_CHARGE>
0

> <PUBCHEM_HEAVY_ATOM_COUNT>
36

> <PUBCHEM_ATOM_DEF_STEREO_COUNT>
2

> <PUBCHEM_ATOM_UDEF_STEREO_COUNT>
0

> <PUBCHEM_BOND_DEF_STEREO_COUNT>
0

> <PUBCHEM_BOND_UDEF_STEREO_COUNT>
0

> <PUBCHEM_ISOTOPIC_ATOM_COUNT>
0

> <PUBCHEM_COMPONENT_COUNT>
2

> <PUBCHEM_CACTVS_TAUTO_COUNT>
-1

> <PUBCHEM_COORDINATE_TYPE>
1
5
255

> <PUBCHEM_BONDANNOTATIONS>
12  15  8
12  16  8
15  19  8
16  20  8
19  21  8
20  21  8
26  27  8
26  28  8
27  29  8
28  30  8
29  31  8
30  31  8
32  33  8
33  34  8
34  36  8
35  36  8
7  32  8
7  35  8
8  11  5
9  12  6

$$$$
