164609493
  -OEChem-09292322012D

 46 47  0     1  0  0  0  0  0999 V2000
    9.5174    2.5547    0.0000 S   0  0  0  0  0  0  0  0  0  0  0  0
    2.0000   -3.7001    0.0000 O   0  0  0  0  0  0  0  0  0  0  0  0
    3.5373   -0.3589    0.0000 O   0  0  0  0  0  0  0  0  0  0  0  0
    4.0725   -2.0062    0.0000 N   0  0  0  0  0  0  0  0  0  0  0  0
    6.3905    0.5681    0.0000 N   0  0  0  0  0  0  0  0  0  0  0  0
   10.0174    4.0935    0.0000 N   0  0  0  0  0  0  0  0  0  0  0  0
    5.2315   -0.7190    0.0000 N   0  0  0  0  0  0  0  0  0  0  0  0
   11.2775    2.8334    0.0000 N   0  0  0  0  0  0  0  0  0  0  0  0
    4.6962    0.9282    0.0000 N   0  0  0  0  0  0  0  0  0  0  0  0
    7.7573    2.8334    0.0000 C   0  0  0  0  0  0  0  0  0  0  0  0
    7.5494    1.8553    0.0000 C   0  0  0  0  0  0  0  0  0  0  0  0
    3.1215   -2.3152    0.0000 C   0  0  3  0  0  0  0  0  0  0  0  0
    8.7084    3.1425    0.0000 C   0  0  0  0  0  0  0  0  0  0  0  0
    6.5984    1.5463    0.0000 C   0  0  0  0  0  0  0  0  0  0  0  0
    2.9136   -3.2934    0.0000 C   0  0  0  0  0  0  0  0  0  0  0  0
    9.0174    4.0935    0.0000 C   0  0  0  0  0  0  0  0  0  0  0  0
    2.3783   -1.6461    0.0000 C   0  0  0  0  0  0  0  0  0  0  0  0
    3.5827   -4.0365    0.0000 C   0  0  0  0  0  0  0  0  0  0  0  0
    8.4296    4.9025    0.0000 C   0  0  0  0  0  0  0  0  0  0  0  0
    4.2804   -1.0280    0.0000 C   0  0  0  0  0  0  0  0  0  0  0  0
   10.3264    3.1425    0.0000 C   0  0  0  0  0  0  0  0  0  0  0  0
    5.4394    0.2591    0.0000 C   0  0  0  0  0  0  0  0  0  0  0  0
    3.0827   -4.9025    0.0000 C   0  0  0  0  0  0  0  0  0  0  0  0
    2.1045   -4.6946    0.0000 C   0  0  0  0  0  0  0  0  0  0  0  0
    7.6710    3.4474    0.0000 H   0  0  0  0  0  0  0  0  0  0  0  0
    7.1377    2.8551    0.0000 H   0  0  0  0  0  0  0  0  0  0  0  0
    7.6357    1.2413    0.0000 H   0  0  0  0  0  0  0  0  0  0  0  0
    8.1690    1.8337    0.0000 H   0  0  0  0  0  0  0  0  0  0  0  0
    3.5822   -2.7301    0.0000 H   0  0  0  0  0  0  0  0  0  0  0  0
    6.5121    2.1602    0.0000 H   0  0  0  0  0  0  0  0  0  0  0  0
    5.9787    1.5679    0.0000 H   0  0  0  0  0  0  0  0  0  0  0  0
    2.7932   -1.1853    0.0000 H   0  0  0  0  0  0  0  0  0  0  0  0
    1.9176   -1.2312    0.0000 H   0  0  0  0  0  0  0  0  0  0  0  0
    1.9634   -2.1068    0.0000 H   0  0  0  0  0  0  0  0  0  0  0  0
    4.5333   -2.4211    0.0000 H   0  0  0  0  0  0  0  0  0  0  0  0
    4.1993   -3.9717    0.0000 H   0  0  0  0  0  0  0  0  0  0  0  0
    8.9312    5.2670    0.0000 H   0  0  0  0  0  0  0  0  0  0  0  0
    8.0652    5.4041    0.0000 H   0  0  0  0  0  0  0  0  0  0  0  0
    7.9280    4.5381    0.0000 H   0  0  0  0  0  0  0  0  0  0  0  0
    5.6922   -1.1339    0.0000 H   0  0  0  0  0  0  0  0  0  0  0  0
    3.3348   -5.4689    0.0000 H   0  0  0  0  0  0  0  0  0  0  0  0
    1.6438   -5.1095    0.0000 H   0  0  0  0  0  0  0  0  0  0  0  0
   11.4064    2.2270    0.0000 H   0  0  0  0  0  0  0  0  0  0  0  0
   11.7382    3.2483    0.0000 H   0  0  0  0  0  0  0  0  0  0  0  0
    4.1066    0.7367    0.0000 H   0  0  0  0  0  0  0  0  0  0  0  0
    4.8252    1.5347    0.0000 H   0  0  0  0  0  0  0  0  0  0  0  0
  1 13  1  0  0  0  0
  1 21  1  0  0  0  0
  2 15  1  0  0  0  0
  2 24  1  0  0  0  0
  3 20  2  0  0  0  0
  4 12  1  0  0  0  0
  4 20  1  0  0  0  0
  4 35  1  0  0  0  0
  5 14  1  0  0  0  0
  5 22  2  0  0  0  0
  6 16  1  0  0  0  0
  6 21  2  0  0  0  0
  7 20  1  0  0  0  0
  7 22  1  0  0  0  0
  7 40  1  0  0  0  0
  8 21  1  0  0  0  0
  8 43  1  0  0  0  0
  8 44  1  0  0  0  0
  9 22  1  0  0  0  0
  9 45  1  0  0  0  0
  9 46  1  0  0  0  0
 10 11  1  0  0  0  0
 10 13  1  0  0  0  0
 10 25  1  0  0  0  0
 10 26  1  0  0  0  0
 11 14  1  0  0  0  0
 11 27  1  0  0  0  0
 11 28  1  0  0  0  0
 12 15  1  0  0  0  0
 12 17  1  0  0  0  0
 12 29  1  0  0  0  0
 13 16  2  0  0  0  0
 14 30  1  0  0  0  0
 14 31  1  0  0  0  0
 15 18  2  0  0  0  0
 16 19  1  0  0  0  0
 17 32  1  0  0  0  0
 17 33  1  0  0  0  0
 17 34  1  0  0  0  0
 18 23  1  0  0  0  0
 18 36  1  0  0  0  0
 19 37  1  0  0  0  0
 19 38  1  0  0  0  0
 19 39  1  0  0  0  0
 23 24  2  0  0  0  0
 23 41  1  0  0  0  0
 24 42  1  0  0  0  0
M  END
> <PUBCHEM_COMPOUND_CID>
164609493

> <PUBCHEM_COMPOUND_CANONICALIZED>
1

> <PUBCHEM_CACTVS_COMPLEXITY>
450

> <PUBCHEM_CACTVS_HBOND_ACCEPTOR>
6

> <PUBCHEM_CACTVS_HBOND_DONOR>
4

> <PUBCHEM_CACTVS_ROTATABLE_BOND>
7

> <PUBCHEM_CACTVS_SUBSKEYS>
AAADceBzsABAAAAAAAAAAAAAAAAAAWJAAAAAAAAAAAAAAAAB4AAAHgQQAAAACCzh1gYzlZLIFEisAaxy9ACC+KllKDkJmJW+TMiOJjLktTuHGSjs1xNY6aeYWQMQAAAAAAAAAAAAAAAAAAAAAAAAAAAAAA==

> <PUBCHEM_IUPAC_OPENEYE_NAME>
1-[N'-[3-(2-amino-4-methyl-thiazol-5-yl)propyl]carbamimidoyl]-3-[1-(2-furyl)ethyl]urea

> <PUBCHEM_IUPAC_CAS_NAME>
1-[amino-[3-(2-amino-4-methyl-5-thiazolyl)propylimino]methyl]-3-[1-(2-furanyl)ethyl]urea

> <PUBCHEM_IUPAC_NAME_MARKUP>
1-[<I>N</I>&apos;-[3-(2-amino-4-methyl-1,3-thiazol-5-yl)propyl]carbamimidoyl]-3-[1-(furan-2-yl)ethyl]urea

> <PUBCHEM_IUPAC_NAME>
1-[N'-[3-(2-amino-4-methyl-1,3-thiazol-5-yl)propyl]carbamimidoyl]-3-[1-(furan-2-yl)ethyl]urea

> <PUBCHEM_IUPAC_SYSTEMATIC_NAME>
1-[N'-[3-(2-azanyl-4-methyl-1,3-thiazol-5-yl)propyl]carbamimidoyl]-3-[1-(furan-2-yl)ethyl]urea

> <PUBCHEM_IUPAC_TRADITIONAL_NAME>
1-[N'-[3-(2-amino-4-methyl-thiazol-5-yl)propyl]amidino]-3-[1-(2-furyl)ethyl]urea

> <PUBCHEM_IUPAC_INCHI>
InChI=1S/C15H22N6O2S/c1-9(11-5-4-8-23-11)20-15(22)21-13(16)18-7-3-6-12-10(2)19-14(17)24-12/h4-5,8-9H,3,6-7H2,1-2H3,(H2,17,19)(H4,16,18,20,21,22)

> <PUBCHEM_IUPAC_INCHIKEY>
MZDWSPIRGJHBII-UHFFFAOYSA-N

> <PUBCHEM_XLOGP3_AA>
1.7

> <PUBCHEM_EXACT_MASS>
350.15249514

> <PUBCHEM_MOLECULAR_FORMULA>
C15H22N6O2S

> <PUBCHEM_MOLECULAR_WEIGHT>
350.4

> <PUBCHEM_OPENEYE_CAN_SMILES>
CC1=C(SC(=N1)N)CCCN=C(N)NC(=O)NC(C)C2=CC=CO2

> <PUBCHEM_OPENEYE_ISO_SMILES>
CC1=C(SC(=N1)N)CCCN=C(N)NC(=O)NC(C)C2=CC=CO2

> <PUBCHEM_CACTVS_TPSA>
160

> <PUBCHEM_MONOISOTOPIC_WEIGHT>
350.15249514

> <PUBCHEM_TOTAL_CHARGE>
0

> <PUBCHEM_HEAVY_ATOM_COUNT>
24

> <PUBCHEM_ATOM_DEF_STEREO_COUNT>
0

> <PUBCHEM_ATOM_UDEF_STEREO_COUNT>
1

> <PUBCHEM_BOND_DEF_STEREO_COUNT>
0

> <PUBCHEM_BOND_UDEF_STEREO_COUNT>
0

> <PUBCHEM_ISOTOPIC_ATOM_COUNT>
0

> <PUBCHEM_COMPONENT_COUNT>
1

> <PUBCHEM_CACTVS_TAUTO_COUNT>
-1

> <PUBCHEM_COORDINATE_TYPE>
1
5
255

> <PUBCHEM_BONDANNOTATIONS>
1  13  8
1  21  8
12  17  3
13  16  8
15  18  8
18  23  8
2  15  8
2  24  8
23  24  8
6  16  8
6  21  8

$$$$
