11663504
  -OEChem-09292322492D

 69 74  0     1  0  0  0  0  0999 V2000
    5.2062    1.3069    0.0000 S   0  0  0  0  0  0  0  0  0  0  0  0
    3.4887   -6.7415    0.0000 O   0  0  0  0  0  0  0  0  0  0  0  0
    5.2062   -2.1572    0.0000 N   0  0  3  0  0  0  0  0  0  0  0  0
    2.0949   -5.9368    0.0000 N   0  0  0  0  0  0  0  0  0  0  0  0
    6.7008    2.2774    0.0000 N   0  0  0  0  0  0  0  0  0  0  0  0
    5.2995    3.0865    0.0000 N   0  0  0  0  0  0  0  0  0  0  0  0
    6.0426    3.7556    0.0000 N   0  0  0  0  0  0  0  0  0  0  0  0
    8.9651    6.0977    0.0000 N   0  0  0  0  0  0  0  0  0  0  0  0
    5.7598   -2.9668    0.0000 C   0  0  0  0  0  0  0  0  0  0  0  0
    4.2283   -2.0826    0.0000 C   0  0  0  0  0  0  0  0  0  0  0  0
    5.4745   -3.9052    0.0000 C   0  0  0  0  0  0  0  0  0  0  0  0
    4.5640   -4.2697    0.0000 C   0  0  0  0  0  0  0  0  0  0  0  0
    3.5583   -2.7989    0.0000 C   0  0  0  0  0  0  0  0  0  0  0  0
    3.6979   -3.7697    0.0000 C   0  0  0  0  0  0  0  0  0  0  0  0
    5.7062   -1.2912    0.0000 C   0  0  0  0  0  0  0  0  0  0  0  0
    4.5640   -5.2697    0.0000 C   0  0  0  0  0  0  0  0  0  0  0  0
    2.8319   -4.2697    0.0000 C   0  0  0  0  0  0  0  0  0  0  0  0
    5.2062   -0.4252    0.0000 C   0  0  0  0  0  0  0  0  0  0  0  0
    3.6979   -5.7697    0.0000 C   0  0  0  0  0  0  0  0  0  0  0  0
    2.8319   -5.2697    0.0000 C   0  0  0  0  0  0  0  0  0  0  0  0
    5.4300   -5.7697    0.0000 C   0  0  0  0  0  0  0  0  0  0  0  0
    5.7062    0.4409    0.0000 C   0  0  0  0  0  0  0  0  0  0  0  0
    2.5000   -6.8445    0.0000 C   0  0  0  0  0  0  0  0  0  0  0  0
    2.0000   -7.7106    0.0000 C   0  0  0  0  0  0  0  0  0  0  0  0
    5.7062    2.1729    0.0000 C   0  0  0  0  0  0  0  0  0  0  0  0
    6.9087    3.2556    0.0000 C   0  0  0  0  0  0  0  0  0  0  0  0
    7.8222    3.6623    0.0000 C   0  0  0  0  0  0  0  0  0  0  0  0
    7.9267    4.6569    0.0000 C   0  0  0  0  0  0  0  0  0  0  0  0
    7.3699    1.5343    0.0000 C   0  0  0  0  0  0  0  0  0  0  0  0
    8.8403    5.0636    0.0000 C   0  0  0  0  0  0  0  0  0  0  0  0
    8.6312    3.0746    0.0000 C   0  0  0  0  0  0  0  0  0  0  0  0
    7.0747    5.2560    0.0000 C   0  0  0  0  0  0  0  0  0  0  0  0
    9.6493    4.4758    0.0000 C   0  0  0  0  0  0  0  0  0  0  0  0
    9.5448    3.4813    0.0000 C   0  0  0  0  0  0  0  0  0  0  0  0
    7.1756    6.2928    0.0000 C   0  0  0  0  0  0  0  0  0  0  0  0
    8.1272    6.7164    0.0000 C   0  0  0  0  0  0  0  0  0  0  0  0
    8.2355    7.7106    0.0000 C   0  0  0  0  0  0  0  0  0  0  0  0
    6.2977   -3.2751    0.0000 H   0  0  0  0  0  0  0  0  0  0  0  0
    6.1805   -2.5114    0.0000 H   0  0  0  0  0  0  0  0  0  0  0  0
    4.4124   -1.4906    0.0000 H   0  0  0  0  0  0  0  0  0  0  0  0
    3.6923   -1.7709    0.0000 H   0  0  0  0  0  0  0  0  0  0  0  0
    5.5705   -4.5177    0.0000 H   0  0  0  0  0  0  0  0  0  0  0  0
    6.0930   -3.9485    0.0000 H   0  0  0  0  0  0  0  0  0  0  0  0
    3.2116   -2.2849    0.0000 H   0  0  0  0  0  0  0  0  0  0  0  0
    2.9798   -3.0220    0.0000 H   0  0  0  0  0  0  0  0  0  0  0  0
    6.1812   -1.6897    0.0000 H   0  0  0  0  0  0  0  0  0  0  0  0
    6.1812   -0.8926    0.0000 H   0  0  0  0  0  0  0  0  0  0  0  0
    2.2950   -3.9597    0.0000 H   0  0  0  0  0  0  0  0  0  0  0  0
    4.7313   -0.0266    0.0000 H   0  0  0  0  0  0  0  0  0  0  0  0
    4.7313   -0.8237    0.0000 H   0  0  0  0  0  0  0  0  0  0  0  0
    5.1200   -6.3066    0.0000 H   0  0  0  0  0  0  0  0  0  0  0  0
    5.9669   -6.0797    0.0000 H   0  0  0  0  0  0  0  0  0  0  0  0
    5.7400   -5.2327    0.0000 H   0  0  0  0  0  0  0  0  0  0  0  0
    6.1812    0.0423    0.0000 H   0  0  0  0  0  0  0  0  0  0  0  0
    6.1812    0.8394    0.0000 H   0  0  0  0  0  0  0  0  0  0  0  0
    1.4631   -7.4006    0.0000 H   0  0  0  0  0  0  0  0  0  0  0  0
    1.6900   -8.2475    0.0000 H   0  0  0  0  0  0  0  0  0  0  0  0
    2.5369   -8.0206    0.0000 H   0  0  0  0  0  0  0  0  0  0  0  0
    6.9091    1.1194    0.0000 H   0  0  0  0  0  0  0  0  0  0  0  0
    7.7848    1.0736    0.0000 H   0  0  0  0  0  0  0  0  0  0  0  0
    7.8306    1.9492    0.0000 H   0  0  0  0  0  0  0  0  0  0  0  0
    8.5664    2.4580    0.0000 H   0  0  0  0  0  0  0  0  0  0  0  0
    6.5113    4.9973    0.0000 H   0  0  0  0  0  0  0  0  0  0  0  0
   10.2157    4.7280    0.0000 H   0  0  0  0  0  0  0  0  0  0  0  0
   10.0464    3.1169    0.0000 H   0  0  0  0  0  0  0  0  0  0  0  0
    6.6726    6.6553    0.0000 H   0  0  0  0  0  0  0  0  0  0  0  0
    8.8519    7.6434    0.0000 H   0  0  0  0  0  0  0  0  0  0  0  0
    8.3027    8.3269    0.0000 H   0  0  0  0  0  0  0  0  0  0  0  0
    7.6192    7.7778    0.0000 H   0  0  0  0  0  0  0  0  0  0  0  0
  1 22  1  0  0  0  0
  1 25  1  0  0  0  0
  2 19  1  0  0  0  0
  2 23  1  0  0  0  0
  3  9  1  0  0  0  0
  3 10  1  0  0  0  0
  3 15  1  0  0  0  0
  4 20  1  0  0  0  0
  4 23  2  0  0  0  0
  5 25  1  0  0  0  0
  5 26  1  0  0  0  0
  5 29  1  0  0  0  0
  6  7  1  0  0  0  0
  6 25  2  0  0  0  0
  7 26  2  0  0  0  0
  8 30  1  0  0  0  0
  8 36  2  0  0  0  0
  9 11  1  0  0  0  0
  9 38  1  0  0  0  0
  9 39  1  0  0  0  0
 10 13  1  0  0  0  0
 10 40  1  0  0  0  0
 10 41  1  0  0  0  0
 11 12  1  0  0  0  0
 11 42  1  0  0  0  0
 11 43  1  0  0  0  0
 12 14  1  0  0  0  0
 12 16  2  0  0  0  0
 13 14  1  0  0  0  0
 13 44  1  0  0  0  0
 13 45  1  0  0  0  0
 14 17  2  0  0  0  0
 15 18  1  0  0  0  0
 15 46  1  0  0  0  0
 15 47  1  0  0  0  0
 16 19  1  0  0  0  0
 16 21  1  0  0  0  0
 17 20  1  0  0  0  0
 17 48  1  0  0  0  0
 18 22  1  0  0  0  0
 18 49  1  0  0  0  0
 18 50  1  0  0  0  0
 19 20  2  0  0  0  0
 21 51  1  0  0  0  0
 21 52  1  0  0  0  0
 21 53  1  0  0  0  0
 22 54  1  0  0  0  0
 22 55  1  0  0  0  0
 23 24  1  0  0  0  0
 24 56  1  0  0  0  0
 24 57  1  0  0  0  0
 24 58  1  0  0  0  0
 26 27  1  0  0  0  0
 27 28  2  0  0  0  0
 27 31  1  0  0  0  0
 28 30  1  0  0  0  0
 28 32  1  0  0  0  0
 29 59  1  0  0  0  0
 29 60  1  0  0  0  0
 29 61  1  0  0  0  0
 30 33  2  0  0  0  0
 31 34  2  0  0  0  0
 31 62  1  0  0  0  0
 32 35  2  0  0  0  0
 32 63  1  0  0  0  0
 33 34  1  0  0  0  0
 33 64  1  0  0  0  0
 34 65  1  0  0  0  0
 35 36  1  0  0  0  0
 35 66  1  0  0  0  0
 36 37  1  0  0  0  0
 37 67  1  0  0  0  0
 37 68  1  0  0  0  0
 37 69  1  0  0  0  0
M  END
> <PUBCHEM_COMPOUND_CID>
11663504

> <PUBCHEM_COMPOUND_CANONICALIZED>
1

> <PUBCHEM_CACTVS_COMPLEXITY>
760

> <PUBCHEM_CACTVS_HBOND_ACCEPTOR>
7

> <PUBCHEM_CACTVS_HBOND_DONOR>
0

> <PUBCHEM_CACTVS_ROTATABLE_BOND>
6

> <PUBCHEM_CACTVS_SUBSKEYS>
AAADcfB7oABAAAAAAAAAAAAAAAAAAWLAAAA8YIAABYAAAFix/gAAHgQIAAAADAzF3wSz1vcMFEiqA6dydASS2CtvYrAd2CG9bNiOLvLkvbuPOSjkzBPY6YeY2fKOqAADQAAaEABQAAaAADQgAAAAAAAAAA==

> <PUBCHEM_IUPAC_OPENEYE_NAME>
2,10-dimethyl-7-[3-[[4-methyl-5-(2-methyl-5-quinolyl)-1,2,4-triazol-3-yl]sulfanyl]propyl]-5,6,8,9-tetrahydrooxazolo[4,5-h][3]benzazepine

> <PUBCHEM_IUPAC_CAS_NAME>
2,10-dimethyl-7-[3-[[4-methyl-5-(2-methyl-5-quinolinyl)-1,2,4-triazol-3-yl]thio]propyl]-5,6,8,9-tetrahydrooxazolo[4,5-h][3]benzazepine

> <PUBCHEM_IUPAC_NAME_MARKUP>
2,10-dimethyl-7-[3-[[4-methyl-5-(2-methylquinolin-5-yl)-1,2,4-triazol-3-yl]sulfanyl]propyl]-5,6,8,9-tetrahydro-[1,3]oxazolo[4,5-h][3]benzazepine

> <PUBCHEM_IUPAC_NAME>
2,10-dimethyl-7-[3-[[4-methyl-5-(2-methylquinolin-5-yl)-1,2,4-triazol-3-yl]sulfanyl]propyl]-5,6,8,9-tetrahydro-[1,3]oxazolo[4,5-h][3]benzazepine

> <PUBCHEM_IUPAC_SYSTEMATIC_NAME>
2,10-dimethyl-7-[3-[[4-methyl-5-(2-methylquinolin-5-yl)-1,2,4-triazol-3-yl]sulfanyl]propyl]-5,6,8,9-tetrahydro-[1,3]oxazolo[4,5-h][3]benzazepine

> <PUBCHEM_IUPAC_TRADITIONAL_NAME>
2,10-dimethyl-7-[3-[[4-methyl-5-(2-methyl-5-quinolyl)-1,2,4-triazol-3-yl]thio]propyl]-5,6,8,9-tetrahydrooxazolo[4,5-h][3]benzazepine

> <PUBCHEM_IUPAC_INCHI>
InChI=1S/C29H32N6OS/c1-18-9-10-23-24(7-5-8-25(23)30-18)28-32-33-29(34(28)4)37-16-6-13-35-14-11-21-17-26-27(36-20(3)31-26)19(2)22(21)12-15-35/h5,7-10,17H,6,11-16H2,1-4H3

> <PUBCHEM_IUPAC_INCHIKEY>
ACRMNEFOWLXFLY-UHFFFAOYSA-N

> <PUBCHEM_XLOGP3_AA>
5.6

> <PUBCHEM_EXACT_MASS>
512.23583084

> <PUBCHEM_MOLECULAR_FORMULA>
C29H32N6OS

> <PUBCHEM_MOLECULAR_WEIGHT>
512.7

> <PUBCHEM_OPENEYE_CAN_SMILES>
CC1=NC2=CC=CC(=C2C=C1)C3=NN=C(N3C)SCCCN4CCC5=CC6=C(C(=C5CC4)C)OC(=N6)C

> <PUBCHEM_OPENEYE_ISO_SMILES>
CC1=NC2=CC=CC(=C2C=C1)C3=NN=C(N3C)SCCCN4CCC5=CC6=C(C(=C5CC4)C)OC(=N6)C

> <PUBCHEM_CACTVS_TPSA>
98.2

> <PUBCHEM_MONOISOTOPIC_WEIGHT>
512.23583084

> <PUBCHEM_TOTAL_CHARGE>
0

> <PUBCHEM_HEAVY_ATOM_COUNT>
37

> <PUBCHEM_ATOM_DEF_STEREO_COUNT>
0

> <PUBCHEM_ATOM_UDEF_STEREO_COUNT>
0

> <PUBCHEM_BOND_DEF_STEREO_COUNT>
0

> <PUBCHEM_BOND_UDEF_STEREO_COUNT>
0

> <PUBCHEM_ISOTOPIC_ATOM_COUNT>
0

> <PUBCHEM_COMPONENT_COUNT>
1

> <PUBCHEM_CACTVS_TAUTO_COUNT>
-1

> <PUBCHEM_COORDINATE_TYPE>
1
5
255

> <PUBCHEM_BONDANNOTATIONS>
12  14  8
12  16  8
14  17  8
16  19  8
17  20  8
19  20  8
2  19  8
2  23  8
27  28  8
27  31  8
28  30  8
28  32  8
30  33  8
31  34  8
32  35  8
33  34  8
35  36  8
4  20  8
4  23  8
5  25  8
5  26  8
6  25  8
6  7  8
7  26  8
8  30  8
8  36  8

$$$$
