137643951
  -OEChem-09292322002D

 58 61  0     0  0  0  0  0  0999 V2000
    2.8660    0.6416    0.0000 O   0  0  0  0  0  0  0  0  0  0  0  0
    9.7942   -0.3584    0.0000 O   0  0  0  0  0  0  0  0  0  0  0  0
   15.4937    2.1031    0.0000 O   0  0  0  0  0  0  0  0  0  0  0  0
    6.3301    0.6416    0.0000 N   0  0  0  0  0  0  0  0  0  0  0  0
    4.5981   -0.3584    0.0000 N   0  0  0  0  0  0  0  0  0  0  0  0
   10.6603    1.1416    0.0000 N   0  0  0  0  0  0  0  0  0  0  0  0
   13.2583   -0.3584    0.0000 N   0  0  0  0  0  0  0  0  0  0  0  0
   14.2045   -0.6631    0.0000 N   0  0  0  0  0  0  0  0  0  0  0  0
    5.4641    1.1416    0.0000 C   0  0  0  0  0  0  0  0  0  0  0  0
    6.3301   -0.3584    0.0000 C   0  0  0  0  0  0  0  0  0  0  0  0
    4.5981    0.6416    0.0000 C   0  0  0  0  0  0  0  0  0  0  0  0
    5.4641   -0.8584    0.0000 C   0  0  0  0  0  0  0  0  0  0  0  0
    7.1962    1.1416    0.0000 C   0  0  0  0  0  0  0  0  0  0  0  0
    8.0622    0.6416    0.0000 C   0  0  0  0  0  0  0  0  0  0  0  0
    3.7320   -0.8584    0.0000 C   0  0  0  0  0  0  0  0  0  0  0  0
    8.9282    1.1416    0.0000 C   0  0  0  0  0  0  0  0  0  0  0  0
    2.8660   -0.3584    0.0000 C   0  0  0  0  0  0  0  0  0  0  0  0
    3.7320   -1.8584    0.0000 C   0  0  0  0  0  0  0  0  0  0  0  0
    9.7942    0.6416    0.0000 C   0  0  0  0  0  0  0  0  0  0  0  0
    2.0000   -0.8584    0.0000 C   0  0  0  0  0  0  0  0  0  0  0  0
    2.8660   -2.3584    0.0000 C   0  0  0  0  0  0  0  0  0  0  0  0
    2.0000   -1.8584    0.0000 C   0  0  0  0  0  0  0  0  0  0  0  0
   11.5263    0.6416    0.0000 C   0  0  0  0  0  0  0  0  0  0  0  0
   12.3923    1.1416    0.0000 C   0  0  0  0  0  0  0  0  0  0  0  0
   13.2583    0.6416    0.0000 C   0  0  0  0  0  0  0  0  0  0  0  0
    2.0000    1.1416    0.0000 C   0  0  0  0  0  0  0  0  0  0  0  0
   11.5263   -0.3584    0.0000 C   0  0  0  0  0  0  0  0  0  0  0  0
   12.3923   -0.8584    0.0000 C   0  0  0  0  0  0  0  0  0  0  0  0
   14.2045    0.9464    0.0000 C   0  0  0  0  0  0  0  0  0  0  0  0
   14.7882    0.1416    0.0000 C   0  0  0  0  0  0  0  0  0  0  0  0
   14.5152    1.8969    0.0000 C   0  0  0  0  0  0  0  0  0  0  0  0
    5.8626    1.6166    0.0000 H   0  0  0  0  0  0  0  0  0  0  0  0
    5.0656    1.6166    0.0000 H   0  0  0  0  0  0  0  0  0  0  0  0
    6.5422   -0.9410    0.0000 H   0  0  0  0  0  0  0  0  0  0  0  0
    6.9407   -0.2507    0.0000 H   0  0  0  0  0  0  0  0  0  0  0  0
    4.3860    1.2242    0.0000 H   0  0  0  0  0  0  0  0  0  0  0  0
    3.9875    0.5340    0.0000 H   0  0  0  0  0  0  0  0  0  0  0  0
    5.0656   -1.3333    0.0000 H   0  0  0  0  0  0  0  0  0  0  0  0
    5.8626   -1.3333    0.0000 H   0  0  0  0  0  0  0  0  0  0  0  0
    7.5947    1.6166    0.0000 H   0  0  0  0  0  0  0  0  0  0  0  0
    6.7976    1.6166    0.0000 H   0  0  0  0  0  0  0  0  0  0  0  0
    7.6636    0.1667    0.0000 H   0  0  0  0  0  0  0  0  0  0  0  0
    8.4607    0.1667    0.0000 H   0  0  0  0  0  0  0  0  0  0  0  0
    9.3267    1.6166    0.0000 H   0  0  0  0  0  0  0  0  0  0  0  0
    8.5297    1.6166    0.0000 H   0  0  0  0  0  0  0  0  0  0  0  0
    4.2690   -2.1684    0.0000 H   0  0  0  0  0  0  0  0  0  0  0  0
    1.4631   -0.5484    0.0000 H   0  0  0  0  0  0  0  0  0  0  0  0
    2.8660   -2.9784    0.0000 H   0  0  0  0  0  0  0  0  0  0  0  0
    1.4631   -2.1684    0.0000 H   0  0  0  0  0  0  0  0  0  0  0  0
   10.6603    1.7616    0.0000 H   0  0  0  0  0  0  0  0  0  0  0  0
   12.3923    1.7616    0.0000 H   0  0  0  0  0  0  0  0  0  0  0  0
   10.9893   -0.6684    0.0000 H   0  0  0  0  0  0  0  0  0  0  0  0
    2.3100    1.6786    0.0000 H   0  0  0  0  0  0  0  0  0  0  0  0
    1.4631    1.4516    0.0000 H   0  0  0  0  0  0  0  0  0  0  0  0
    1.6900    0.6047    0.0000 H   0  0  0  0  0  0  0  0  0  0  0  0
   12.3923   -1.4784    0.0000 H   0  0  0  0  0  0  0  0  0  0  0  0
   15.4082    0.1416    0.0000 H   0  0  0  0  0  0  0  0  0  0  0  0
   14.1011    2.3584    0.0000 H   0  0  0  0  0  0  0  0  0  0  0  0
  1 17  1  0  0  0  0
  1 26  1  0  0  0  0
  2 19  2  0  0  0  0
  3 31  2  0  0  0  0
  4  9  1  0  0  0  0
  4 10  1  0  0  0  0
  4 13  1  0  0  0  0
  5 11  1  0  0  0  0
  5 12  1  0  0  0  0
  5 15  1  0  0  0  0
  6 19  1  0  0  0  0
  6 23  1  0  0  0  0
  6 50  1  0  0  0  0
  7  8  1  0  0  0  0
  7 25  1  0  0  0  0
  7 28  1  0  0  0  0
  8 30  2  0  0  0  0
  9 11  1  0  0  0  0
  9 32  1  0  0  0  0
  9 33  1  0  0  0  0
 10 12  1  0  0  0  0
 10 34  1  0  0  0  0
 10 35  1  0  0  0  0
 11 36  1  0  0  0  0
 11 37  1  0  0  0  0
 12 38  1  0  0  0  0
 12 39  1  0  0  0  0
 13 14  1  0  0  0  0
 13 40  1  0  0  0  0
 13 41  1  0  0  0  0
 14 16  1  0  0  0  0
 14 42  1  0  0  0  0
 14 43  1  0  0  0  0
 15 17  1  0  0  0  0
 15 18  2  0  0  0  0
 16 19  1  0  0  0  0
 16 44  1  0  0  0  0
 16 45  1  0  0  0  0
 17 20  2  0  0  0  0
 18 21  1  0  0  0  0
 18 46  1  0  0  0  0
 20 22  1  0  0  0  0
 20 47  1  0  0  0  0
 21 22  2  0  0  0  0
 21 48  1  0  0  0  0
 22 49  1  0  0  0  0
 23 24  2  0  0  0  0
 23 27  1  0  0  0  0
 24 25  1  0  0  0  0
 24 51  1  0  0  0  0
 25 29  2  0  0  0  0
 26 53  1  0  0  0  0
 26 54  1  0  0  0  0
 26 55  1  0  0  0  0
 27 28  2  0  0  0  0
 27 52  1  0  0  0  0
 28 56  1  0  0  0  0
 29 30  1  0  0  0  0
 29 31  1  0  0  0  0
 30 57  1  0  0  0  0
 31 58  1  0  0  0  0
M  END
> <PUBCHEM_COMPOUND_CID>
137643951

> <PUBCHEM_COMPOUND_CANONICALIZED>
1

> <PUBCHEM_CACTVS_COMPLEXITY>
598

> <PUBCHEM_CACTVS_HBOND_ACCEPTOR>
6

> <PUBCHEM_CACTVS_HBOND_DONOR>
1

> <PUBCHEM_CACTVS_ROTATABLE_BOND>
8

> <PUBCHEM_CACTVS_SUBSKEYS>
AAADceB7sAAAAAAAAAAAAAAAAAAAAWAAAAA8WIAAAAAAAFgB8AAAHgAYAAAADAzhngY+xrPIFACqAz131ACSjCA1oiAY2CE/bNgOZvrE9duVtahk3BHY6cecyUCcAAAAAAAAEAAAAAAAAAAgAAAAAAAAAA==

> <PUBCHEM_IUPAC_OPENEYE_NAME>
N-(3-formylpyrazolo[1,5-a]pyridin-5-yl)-4-[4-(2-methoxyphenyl)piperazin-1-yl]butanamide

> <PUBCHEM_IUPAC_CAS_NAME>
N-(3-formyl-5-pyrazolo[1,5-a]pyridinyl)-4-[4-(2-methoxyphenyl)-1-piperazinyl]butanamide

> <PUBCHEM_IUPAC_NAME_MARKUP>
<I>N</I>-(3-formylpyrazolo[1,5-a]pyridin-5-yl)-4-[4-(2-methoxyphenyl)piperazin-1-yl]butanamide

> <PUBCHEM_IUPAC_NAME>
N-(3-formylpyrazolo[1,5-a]pyridin-5-yl)-4-[4-(2-methoxyphenyl)piperazin-1-yl]butanamide

> <PUBCHEM_IUPAC_SYSTEMATIC_NAME>
N-(3-methanoylpyrazolo[1,5-a]pyridin-5-yl)-4-[4-(2-methoxyphenyl)piperazin-1-yl]butanamide

> <PUBCHEM_IUPAC_TRADITIONAL_NAME>
N-(3-formylpyrazolo[1,5-a]pyridin-5-yl)-4-[4-(2-methoxyphenyl)piperazino]butyramide

> <PUBCHEM_IUPAC_INCHI>
InChI=1S/C23H27N5O3/c1-31-22-6-3-2-5-20(22)27-13-11-26(12-14-27)9-4-7-23(30)25-19-8-10-28-21(15-19)18(17-29)16-24-28/h2-3,5-6,8,10,15-17H,4,7,9,11-14H2,1H3,(H,25,30)

> <PUBCHEM_IUPAC_INCHIKEY>
NHDFEXRNVMOWCZ-UHFFFAOYSA-N

> <PUBCHEM_XLOGP3_AA>
1.6

> <PUBCHEM_EXACT_MASS>
421.21138974

> <PUBCHEM_MOLECULAR_FORMULA>
C23H27N5O3

> <PUBCHEM_MOLECULAR_WEIGHT>
421.5

> <PUBCHEM_OPENEYE_CAN_SMILES>
COC1=CC=CC=C1N2CCN(CC2)CCCC(=O)NC3=CC4=C(C=NN4C=C3)C=O

> <PUBCHEM_OPENEYE_ISO_SMILES>
COC1=CC=CC=C1N2CCN(CC2)CCCC(=O)NC3=CC4=C(C=NN4C=C3)C=O

> <PUBCHEM_CACTVS_TPSA>
79.2

> <PUBCHEM_MONOISOTOPIC_WEIGHT>
421.21138974

> <PUBCHEM_TOTAL_CHARGE>
0

> <PUBCHEM_HEAVY_ATOM_COUNT>
31

> <PUBCHEM_ATOM_DEF_STEREO_COUNT>
0

> <PUBCHEM_ATOM_UDEF_STEREO_COUNT>
0

> <PUBCHEM_BOND_DEF_STEREO_COUNT>
0

> <PUBCHEM_BOND_UDEF_STEREO_COUNT>
0

> <PUBCHEM_ISOTOPIC_ATOM_COUNT>
0

> <PUBCHEM_COMPONENT_COUNT>
1

> <PUBCHEM_CACTVS_TAUTO_COUNT>
-1

> <PUBCHEM_COORDINATE_TYPE>
1
5
255

> <PUBCHEM_BONDANNOTATIONS>
15  17  8
15  18  8
17  20  8
18  21  8
20  22  8
21  22  8
23  24  8
23  27  8
24  25  8
25  29  8
27  28  8
29  30  8
7  25  8
7  28  8
7  8  8
8  30  8

$$$$
