54583898
  -OEChem-09292322312D

 62 65  0     0  0  0  0  0  0999 V2000
   15.5902    0.0802    0.0000 O   0  0  0  0  0  0  0  0  0  0  0  0
    6.9300   -0.9198    0.0000 O   0  0  0  0  0  0  0  0  0  0  0  0
   12.1261    0.0802    0.0000 N   0  0  0  0  0  0  0  0  0  0  0  0
   13.8582   -0.9198    0.0000 N   0  0  0  0  0  0  0  0  0  0  0  0
    7.7960    0.5802    0.0000 N   0  0  0  0  0  0  0  0  0  0  0  0
   12.9921    0.5802    0.0000 C   0  0  0  0  0  0  0  0  0  0  0  0
   12.1261   -0.9198    0.0000 C   0  0  0  0  0  0  0  0  0  0  0  0
   11.2601    0.5802    0.0000 C   0  0  0  0  0  0  0  0  0  0  0  0
   13.8582    0.0802    0.0000 C   0  0  0  0  0  0  0  0  0  0  0  0
   12.9921   -1.4198    0.0000 C   0  0  0  0  0  0  0  0  0  0  0  0
   10.3941    0.0802    0.0000 C   0  0  0  0  0  0  0  0  0  0  0  0
    9.5280    0.5802    0.0000 C   0  0  0  0  0  0  0  0  0  0  0  0
    8.6620    0.0802    0.0000 C   0  0  0  0  0  0  0  0  0  0  0  0
   14.7242   -1.4198    0.0000 C   0  0  0  0  0  0  0  0  0  0  0  0
    7.7960    1.5802    0.0000 C   0  0  0  0  0  0  0  0  0  0  0  0
    6.9300    2.0802    0.0000 C   0  0  0  0  0  0  0  0  0  0  0  0
    6.9300    0.0802    0.0000 C   0  0  0  0  0  0  0  0  0  0  0  0
    6.0639    1.5802    0.0000 C   0  0  0  0  0  0  0  0  0  0  0  0
    6.0639    0.5802    0.0000 C   0  0  0  0  0  0  0  0  0  0  0  0
   15.5902   -0.9198    0.0000 C   0  0  0  0  0  0  0  0  0  0  0  0
   14.7242   -2.4198    0.0000 C   0  0  0  0  0  0  0  0  0  0  0  0
    5.1700    2.1149    0.0000 C   0  0  0  0  0  0  0  0  0  0  0  0
    5.1700    0.0456    0.0000 C   0  0  0  0  0  0  0  0  0  0  0  0
   16.4562   -1.4198    0.0000 C   0  0  0  0  0  0  0  0  0  0  0  0
   15.5902   -2.9198    0.0000 C   0  0  0  0  0  0  0  0  0  0  0  0
    4.2639    1.6010    0.0000 C   0  0  0  0  0  0  0  0  0  0  0  0
    4.2639    0.5594    0.0000 C   0  0  0  0  0  0  0  0  0  0  0  0
   16.4562   -2.4198    0.0000 C   0  0  0  0  0  0  0  0  0  0  0  0
   16.4562    0.5802    0.0000 C   0  0  0  0  0  0  0  0  0  0  0  0
    3.3998    2.1044    0.0000 C   0  0  0  0  0  0  0  0  0  0  0  0
    2.5357    2.6077    0.0000 C   0  0  0  0  0  0  0  0  0  0  0  0
   13.3907    1.0552    0.0000 H   0  0  0  0  0  0  0  0  0  0  0  0
   12.5936    1.0552    0.0000 H   0  0  0  0  0  0  0  0  0  0  0  0
   11.5155   -0.8121    0.0000 H   0  0  0  0  0  0  0  0  0  0  0  0
   11.9141   -1.5024    0.0000 H   0  0  0  0  0  0  0  0  0  0  0  0
   11.6586    1.0552    0.0000 H   0  0  0  0  0  0  0  0  0  0  0  0
   10.8616    1.0552    0.0000 H   0  0  0  0  0  0  0  0  0  0  0  0
   14.4687   -0.0274    0.0000 H   0  0  0  0  0  0  0  0  0  0  0  0
   14.0702    0.6628    0.0000 H   0  0  0  0  0  0  0  0  0  0  0  0
   12.5936   -1.8947    0.0000 H   0  0  0  0  0  0  0  0  0  0  0  0
   13.3907   -1.8947    0.0000 H   0  0  0  0  0  0  0  0  0  0  0  0
    9.9955   -0.3947    0.0000 H   0  0  0  0  0  0  0  0  0  0  0  0
   10.7926   -0.3947    0.0000 H   0  0  0  0  0  0  0  0  0  0  0  0
    9.9266    1.0552    0.0000 H   0  0  0  0  0  0  0  0  0  0  0  0
    9.1295    1.0552    0.0000 H   0  0  0  0  0  0  0  0  0  0  0  0
    8.2635   -0.3947    0.0000 H   0  0  0  0  0  0  0  0  0  0  0  0
    9.0605   -0.3947    0.0000 H   0  0  0  0  0  0  0  0  0  0  0  0
    8.4066    1.4726    0.0000 H   0  0  0  0  0  0  0  0  0  0  0  0
    8.0080    2.1628    0.0000 H   0  0  0  0  0  0  0  0  0  0  0  0
    7.3285    2.5552    0.0000 H   0  0  0  0  0  0  0  0  0  0  0  0
    6.5314    2.5552    0.0000 H   0  0  0  0  0  0  0  0  0  0  0  0
   14.1872   -2.7298    0.0000 H   0  0  0  0  0  0  0  0  0  0  0  0
    5.1772    2.7348    0.0000 H   0  0  0  0  0  0  0  0  0  0  0  0
    5.1772   -0.5744    0.0000 H   0  0  0  0  0  0  0  0  0  0  0  0
   16.9932   -1.1098    0.0000 H   0  0  0  0  0  0  0  0  0  0  0  0
   15.5902   -3.5398    0.0000 H   0  0  0  0  0  0  0  0  0  0  0  0
    3.7282    0.2473    0.0000 H   0  0  0  0  0  0  0  0  0  0  0  0
   16.9932   -2.7298    0.0000 H   0  0  0  0  0  0  0  0  0  0  0  0
   16.7662    0.0433    0.0000 H   0  0  0  0  0  0  0  0  0  0  0  0
   16.9932    0.8902    0.0000 H   0  0  0  0  0  0  0  0  0  0  0  0
   16.1462    1.1172    0.0000 H   0  0  0  0  0  0  0  0  0  0  0  0
    2.0000    2.9198    0.0000 H   0  0  0  0  0  0  0  0  0  0  0  0
  1 20  1  0  0  0  0
  1 29  1  0  0  0  0
  2 17  2  0  0  0  0
  3  6  1  0  0  0  0
  3  7  1  0  0  0  0
  3  8  1  0  0  0  0
  4  9  1  0  0  0  0
  4 10  1  0  0  0  0
  4 14  1  0  0  0  0
  5 13  1  0  0  0  0
  5 15  1  0  0  0  0
  5 17  1  0  0  0  0
  6  9  1  0  0  0  0
  6 32  1  0  0  0  0
  6 33  1  0  0  0  0
  7 10  1  0  0  0  0
  7 34  1  0  0  0  0
  7 35  1  0  0  0  0
  8 11  1  0  0  0  0
  8 36  1  0  0  0  0
  8 37  1  0  0  0  0
  9 38  1  0  0  0  0
  9 39  1  0  0  0  0
 10 40  1  0  0  0  0
 10 41  1  0  0  0  0
 11 12  1  0  0  0  0
 11 42  1  0  0  0  0
 11 43  1  0  0  0  0
 12 13  1  0  0  0  0
 12 44  1  0  0  0  0
 12 45  1  0  0  0  0
 13 46  1  0  0  0  0
 13 47  1  0  0  0  0
 14 20  1  0  0  0  0
 14 21  2  0  0  0  0
 15 16  1  0  0  0  0
 15 48  1  0  0  0  0
 15 49  1  0  0  0  0
 16 18  1  0  0  0  0
 16 50  1  0  0  0  0
 16 51  1  0  0  0  0
 17 19  1  0  0  0  0
 18 19  2  0  0  0  0
 18 22  1  0  0  0  0
 19 23  1  0  0  0  0
 20 24  2  0  0  0  0
 21 25  1  0  0  0  0
 21 52  1  0  0  0  0
 22 26  2  0  0  0  0
 22 53  1  0  0  0  0
 23 27  2  0  0  0  0
 23 54  1  0  0  0  0
 24 28  1  0  0  0  0
 24 55  1  0  0  0  0
 25 28  2  0  0  0  0
 25 56  1  0  0  0  0
 26 27  1  0  0  0  0
 26 30  1  0  0  0  0
 27 57  1  0  0  0  0
 28 58  1  0  0  0  0
 29 59  1  0  0  0  0
 29 60  1  0  0  0  0
 29 61  1  0  0  0  0
 30 31  3  0  0  0  0
 31 62  1  0  0  0  0
M  END
> <PUBCHEM_COMPOUND_CID>
54583898

> <PUBCHEM_COMPOUND_CANONICALIZED>
1

> <PUBCHEM_CACTVS_COMPLEXITY>
636

> <PUBCHEM_CACTVS_HBOND_ACCEPTOR>
4

> <PUBCHEM_CACTVS_HBOND_DONOR>
0

> <PUBCHEM_CACTVS_ROTATABLE_BOND>
8

> <PUBCHEM_CACTVS_SUBSKEYS>
AAADceB7MAAAAAAAAAAAAAAAAAAAAAAAAAA8eIEAAAAAAACxQAAAHgAAAAAADAzBmAYyxoMABADIGiVSUAiCCAAlIgAIiAEPbMgOZjLEtZuVMShkxhHY6YeYycCOwAACAAAQEACAAAQAACAgAAAAAAAAAA==

> <PUBCHEM_IUPAC_OPENEYE_NAME>
6-ethynyl-2-[4-[4-(2-methoxyphenyl)piperazin-1-yl]butyl]-3,4-dihydroisoquinolin-1-one

> <PUBCHEM_IUPAC_CAS_NAME>
6-ethynyl-2-[4-[4-(2-methoxyphenyl)-1-piperazinyl]butyl]-3,4-dihydroisoquinolin-1-one

> <PUBCHEM_IUPAC_NAME_MARKUP>
6-ethynyl-2-[4-[4-(2-methoxyphenyl)piperazin-1-yl]butyl]-3,4-dihydroisoquinolin-1-one

> <PUBCHEM_IUPAC_NAME>
6-ethynyl-2-[4-[4-(2-methoxyphenyl)piperazin-1-yl]butyl]-3,4-dihydroisoquinolin-1-one

> <PUBCHEM_IUPAC_SYSTEMATIC_NAME>
6-ethynyl-2-[4-[4-(2-methoxyphenyl)piperazin-1-yl]butyl]-3,4-dihydroisoquinolin-1-one

> <PUBCHEM_IUPAC_TRADITIONAL_NAME>
6-ethynyl-2-[4-[4-(2-methoxyphenyl)piperazino]butyl]-3,4-dihydroisocarbostyril

> <PUBCHEM_IUPAC_INCHI>
InChI=1S/C26H31N3O2/c1-3-21-10-11-23-22(20-21)12-15-29(26(23)30)14-7-6-13-27-16-18-28(19-17-27)24-8-4-5-9-25(24)31-2/h1,4-5,8-11,20H,6-7,12-19H2,2H3

> <PUBCHEM_IUPAC_INCHIKEY>
XKAIELUQYYUCFN-UHFFFAOYSA-N

> <PUBCHEM_XLOGP3_AA>
4

> <PUBCHEM_EXACT_MASS>
417.24162724

> <PUBCHEM_MOLECULAR_FORMULA>
C26H31N3O2

> <PUBCHEM_MOLECULAR_WEIGHT>
417.5

> <PUBCHEM_OPENEYE_CAN_SMILES>
COC1=CC=CC=C1N2CCN(CC2)CCCCN3CCC4=C(C3=O)C=CC(=C4)C#C

> <PUBCHEM_OPENEYE_ISO_SMILES>
COC1=CC=CC=C1N2CCN(CC2)CCCCN3CCC4=C(C3=O)C=CC(=C4)C#C

> <PUBCHEM_CACTVS_TPSA>
36

> <PUBCHEM_MONOISOTOPIC_WEIGHT>
417.24162724

> <PUBCHEM_TOTAL_CHARGE>
0

> <PUBCHEM_HEAVY_ATOM_COUNT>
31

> <PUBCHEM_ATOM_DEF_STEREO_COUNT>
0

> <PUBCHEM_ATOM_UDEF_STEREO_COUNT>
0

> <PUBCHEM_BOND_DEF_STEREO_COUNT>
0

> <PUBCHEM_BOND_UDEF_STEREO_COUNT>
0

> <PUBCHEM_ISOTOPIC_ATOM_COUNT>
0

> <PUBCHEM_COMPONENT_COUNT>
1

> <PUBCHEM_CACTVS_TAUTO_COUNT>
-1

> <PUBCHEM_COORDINATE_TYPE>
1
5
255

> <PUBCHEM_BONDANNOTATIONS>
14  20  8
14  21  8
18  19  8
18  22  8
19  23  8
20  24  8
21  25  8
22  26  8
23  27  8
24  28  8
25  28  8
26  27  8

$$$$
