134151118
  -OEChem-09292322382D

 79 82  0     0  0  0  0  0  0999 V2000
    8.9282    0.7500    0.0000 O   0  0  0  0  0  0  0  0  0  0  0  0
    5.4641   -3.2500    0.0000 N   0  0  0  0  0  0  0  0  0  0  0  0
    5.4641   -5.2500    0.0000 N   0  0  0  0  0  0  0  0  0  0  0  0
    8.0622    2.2500    0.0000 N   0  0  0  0  0  0  0  0  0  0  0  0
    9.7942    7.2500    0.0000 N   0  0  0  0  0  0  0  0  0  0  0  0
    4.5981   -3.7500    0.0000 C   0  0  0  0  0  0  0  0  0  0  0  0
    6.3301   -3.7500    0.0000 C   0  0  0  0  0  0  0  0  0  0  0  0
    4.5981   -4.7500    0.0000 C   0  0  0  0  0  0  0  0  0  0  0  0
    6.3301   -4.7500    0.0000 C   0  0  0  0  0  0  0  0  0  0  0  0
    5.4641   -2.2500    0.0000 C   0  0  0  0  0  0  0  0  0  0  0  0
    6.3301   -1.7500    0.0000 C   0  0  0  0  0  0  0  0  0  0  0  0
    5.4641   -6.2500    0.0000 C   0  0  0  0  0  0  0  0  0  0  0  0
    6.3301   -0.7500    0.0000 C   0  0  0  0  0  0  0  0  0  0  0  0
    7.1962   -0.2500    0.0000 C   0  0  0  0  0  0  0  0  0  0  0  0
    4.5981   -6.7500    0.0000 C   0  0  0  0  0  0  0  0  0  0  0  0
    6.3301   -6.7500    0.0000 C   0  0  0  0  0  0  0  0  0  0  0  0
    7.1962    0.7500    0.0000 C   0  0  0  0  0  0  0  0  0  0  0  0
    4.5981   -7.7500    0.0000 C   0  0  0  0  0  0  0  0  0  0  0  0
    3.7320   -6.2500    0.0000 C   0  0  0  0  0  0  0  0  0  0  0  0
    6.3301   -7.7500    0.0000 C   0  0  0  0  0  0  0  0  0  0  0  0
    5.4641   -8.2500    0.0000 C   0  0  0  0  0  0  0  0  0  0  0  0
    8.0622    1.2500    0.0000 C   0  0  0  0  0  0  0  0  0  0  0  0
    2.8660   -6.7500    0.0000 C   0  0  0  0  0  0  0  0  0  0  0  0
    3.7320   -5.2500    0.0000 C   0  0  0  0  0  0  0  0  0  0  0  0
    8.9282    2.7500    0.0000 C   0  0  0  0  0  0  0  0  0  0  0  0
    2.0000   -6.2500    0.0000 C   0  0  0  0  0  0  0  0  0  0  0  0
    2.8660   -4.7500    0.0000 C   0  0  0  0  0  0  0  0  0  0  0  0
    8.9282    3.7500    0.0000 C   0  0  0  0  0  0  0  0  0  0  0  0
    2.0000   -5.2500    0.0000 C   0  0  0  0  0  0  0  0  0  0  0  0
    9.7942    4.2500    0.0000 C   0  0  0  0  0  0  0  0  0  0  0  0
    8.0622    4.2500    0.0000 C   0  0  0  0  0  0  0  0  0  0  0  0
    8.9282    5.7500    0.0000 C   0  0  0  0  0  0  0  0  0  0  0  0
    8.9282    6.7500    0.0000 C   0  0  0  0  0  0  0  0  0  0  0  0
    9.7942    5.2500    0.0000 C   0  0  0  0  0  0  0  0  0  0  0  0
    8.0622    5.2500    0.0000 C   0  0  0  0  0  0  0  0  0  0  0  0
    9.7942    8.2500    0.0000 C   0  0  0  0  0  0  0  0  0  0  0  0
   10.6603    6.7500    0.0000 C   0  0  0  0  0  0  0  0  0  0  0  0
    4.3860   -3.1674    0.0000 H   0  0  0  0  0  0  0  0  0  0  0  0
    3.9875   -3.8577    0.0000 H   0  0  0  0  0  0  0  0  0  0  0  0
    6.9407   -3.8577    0.0000 H   0  0  0  0  0  0  0  0  0  0  0  0
    6.5422   -3.1674    0.0000 H   0  0  0  0  0  0  0  0  0  0  0  0
    3.9875   -4.6423    0.0000 H   0  0  0  0  0  0  0  0  0  0  0  0
    4.3860   -5.3326    0.0000 H   0  0  0  0  0  0  0  0  0  0  0  0
    6.5422   -5.3326    0.0000 H   0  0  0  0  0  0  0  0  0  0  0  0
    6.9407   -4.6423    0.0000 H   0  0  0  0  0  0  0  0  0  0  0  0
    5.2520   -1.6674    0.0000 H   0  0  0  0  0  0  0  0  0  0  0  0
    4.8535   -2.3577    0.0000 H   0  0  0  0  0  0  0  0  0  0  0  0
    6.5422   -2.3326    0.0000 H   0  0  0  0  0  0  0  0  0  0  0  0
    6.9407   -1.6423    0.0000 H   0  0  0  0  0  0  0  0  0  0  0  0
    6.1181   -0.1674    0.0000 H   0  0  0  0  0  0  0  0  0  0  0  0
    5.7196   -0.8577    0.0000 H   0  0  0  0  0  0  0  0  0  0  0  0
    7.4082   -0.8326    0.0000 H   0  0  0  0  0  0  0  0  0  0  0  0
    7.8067   -0.1423    0.0000 H   0  0  0  0  0  0  0  0  0  0  0  0
    6.8671   -6.4400    0.0000 H   0  0  0  0  0  0  0  0  0  0  0  0
    6.9841    1.3326    0.0000 H   0  0  0  0  0  0  0  0  0  0  0  0
    6.5856    0.6423    0.0000 H   0  0  0  0  0  0  0  0  0  0  0  0
    4.0611   -8.0600    0.0000 H   0  0  0  0  0  0  0  0  0  0  0  0
    6.8671   -8.0600    0.0000 H   0  0  0  0  0  0  0  0  0  0  0  0
    5.4641   -8.8700    0.0000 H   0  0  0  0  0  0  0  0  0  0  0  0
    2.8660   -7.3700    0.0000 H   0  0  0  0  0  0  0  0  0  0  0  0
    4.2690   -4.9400    0.0000 H   0  0  0  0  0  0  0  0  0  0  0  0
    7.5252    2.5600    0.0000 H   0  0  0  0  0  0  0  0  0  0  0  0
    9.1403    2.1674    0.0000 H   0  0  0  0  0  0  0  0  0  0  0  0
    9.5388    2.8577    0.0000 H   0  0  0  0  0  0  0  0  0  0  0  0
    1.4631   -6.5600    0.0000 H   0  0  0  0  0  0  0  0  0  0  0  0
    2.8660   -4.1300    0.0000 H   0  0  0  0  0  0  0  0  0  0  0  0
    1.4631   -4.9400    0.0000 H   0  0  0  0  0  0  0  0  0  0  0  0
   10.3312    3.9400    0.0000 H   0  0  0  0  0  0  0  0  0  0  0  0
    7.5252    3.9400    0.0000 H   0  0  0  0  0  0  0  0  0  0  0  0
    8.7162    7.3326    0.0000 H   0  0  0  0  0  0  0  0  0  0  0  0
    8.3176    6.6423    0.0000 H   0  0  0  0  0  0  0  0  0  0  0  0
   10.3312    5.5600    0.0000 H   0  0  0  0  0  0  0  0  0  0  0  0
    7.5252    5.5600    0.0000 H   0  0  0  0  0  0  0  0  0  0  0  0
   10.4142    8.2500    0.0000 H   0  0  0  0  0  0  0  0  0  0  0  0
    9.7942    8.8700    0.0000 H   0  0  0  0  0  0  0  0  0  0  0  0
    9.1742    8.2500    0.0000 H   0  0  0  0  0  0  0  0  0  0  0  0
   10.3503    6.2131    0.0000 H   0  0  0  0  0  0  0  0  0  0  0  0
   11.1972    6.4400    0.0000 H   0  0  0  0  0  0  0  0  0  0  0  0
   10.9703    7.2869    0.0000 H   0  0  0  0  0  0  0  0  0  0  0  0
  1 22  2  0  0  0  0
  2  6  1  0  0  0  0
  2  7  1  0  0  0  0
  2 10  1  0  0  0  0
  3  8  1  0  0  0  0
  3  9  1  0  0  0  0
  3 12  1  0  0  0  0
  4 22  1  0  0  0  0
  4 25  1  0  0  0  0
  4 62  1  0  0  0  0
  5 33  1  0  0  0  0
  5 36  1  0  0  0  0
  5 37  1  0  0  0  0
  6  8  1  0  0  0  0
  6 38  1  0  0  0  0
  6 39  1  0  0  0  0
  7  9  1  0  0  0  0
  7 40  1  0  0  0  0
  7 41  1  0  0  0  0
  8 42  1  0  0  0  0
  8 43  1  0  0  0  0
  9 44  1  0  0  0  0
  9 45  1  0  0  0  0
 10 11  1  0  0  0  0
 10 46  1  0  0  0  0
 10 47  1  0  0  0  0
 11 13  1  0  0  0  0
 11 48  1  0  0  0  0
 11 49  1  0  0  0  0
 12 15  1  0  0  0  0
 12 16  2  0  0  0  0
 13 14  1  0  0  0  0
 13 50  1  0  0  0  0
 13 51  1  0  0  0  0
 14 17  1  0  0  0  0
 14 52  1  0  0  0  0
 14 53  1  0  0  0  0
 15 18  2  0  0  0  0
 15 19  1  0  0  0  0
 16 20  1  0  0  0  0
 16 54  1  0  0  0  0
 17 22  1  0  0  0  0
 17 55  1  0  0  0  0
 17 56  1  0  0  0  0
 18 21  1  0  0  0  0
 18 57  1  0  0  0  0
 19 23  2  0  0  0  0
 19 24  1  0  0  0  0
 20 21  2  0  0  0  0
 20 58  1  0  0  0  0
 21 59  1  0  0  0  0
 23 26  1  0  0  0  0
 23 60  1  0  0  0  0
 24 27  2  0  0  0  0
 24 61  1  0  0  0  0
 25 28  1  0  0  0  0
 25 63  1  0  0  0  0
 25 64  1  0  0  0  0
 26 29  2  0  0  0  0
 26 65  1  0  0  0  0
 27 29  1  0  0  0  0
 27 66  1  0  0  0  0
 28 30  2  0  0  0  0
 28 31  1  0  0  0  0
 29 67  1  0  0  0  0
 30 34  1  0  0  0  0
 30 68  1  0  0  0  0
 31 35  2  0  0  0  0
 31 69  1  0  0  0  0
 32 33  1  0  0  0  0
 32 34  2  0  0  0  0
 32 35  1  0  0  0  0
 33 70  1  0  0  0  0
 33 71  1  0  0  0  0
 34 72  1  0  0  0  0
 35 73  1  0  0  0  0
 36 74  1  0  0  0  0
 36 75  1  0  0  0  0
 36 76  1  0  0  0  0
 37 77  1  0  0  0  0
 37 78  1  0  0  0  0
 37 79  1  0  0  0  0
M  END
> <PUBCHEM_COMPOUND_CID>
134151118

> <PUBCHEM_COMPOUND_CANONICALIZED>
1

> <PUBCHEM_CACTVS_COMPLEXITY>
633

> <PUBCHEM_CACTVS_HBOND_ACCEPTOR>
4

> <PUBCHEM_CACTVS_HBOND_DONOR>
1

> <PUBCHEM_CACTVS_ROTATABLE_BOND>
12

> <PUBCHEM_CACTVS_SUBSKEYS>
AAADcfB/oAAAAAAAAAAAAAAAAAAAAAAAAAA8YMEAAAAAAAABUAAAHgAQAAAADAjBmAQywIPAAACIAiVSUACCAAAhAgAIiIEIZIgIYDLAkZGUIAhglgDIyAcYiMAOwAAAAAACAACAAAAAAAQAAAAAAAAAAA==

> <PUBCHEM_IUPAC_OPENEYE_NAME>
N-[[4-[(dimethylamino)methyl]phenyl]methyl]-6-[4-(2-phenylphenyl)piperazin-1-yl]hexanamide

> <PUBCHEM_IUPAC_CAS_NAME>
N-[[4-[(dimethylamino)methyl]phenyl]methyl]-6-[4-(2-phenylphenyl)-1-piperazinyl]hexanamide

> <PUBCHEM_IUPAC_NAME_MARKUP>
<I>N</I>-[[4-[(dimethylamino)methyl]phenyl]methyl]-6-[4-(2-phenylphenyl)piperazin-1-yl]hexanamide

> <PUBCHEM_IUPAC_NAME>
N-[[4-[(dimethylamino)methyl]phenyl]methyl]-6-[4-(2-phenylphenyl)piperazin-1-yl]hexanamide

> <PUBCHEM_IUPAC_SYSTEMATIC_NAME>
N-[[4-[(dimethylamino)methyl]phenyl]methyl]-6-[4-(2-phenylphenyl)piperazin-1-yl]hexanamide

> <PUBCHEM_IUPAC_TRADITIONAL_NAME>
N-[4-[(dimethylamino)methyl]benzyl]-6-[4-(2-phenylphenyl)piperazino]hexanamide

> <PUBCHEM_IUPAC_INCHI>
InChI=1S/C32H42N4O/c1-34(2)26-28-18-16-27(17-19-28)25-33-32(37)15-7-4-10-20-35-21-23-36(24-22-35)31-14-9-8-13-30(31)29-11-5-3-6-12-29/h3,5-6,8-9,11-14,16-19H,4,7,10,15,20-26H2,1-2H3,(H,33,37)

> <PUBCHEM_IUPAC_INCHIKEY>
UUWNDYITXWRHHK-UHFFFAOYSA-N

> <PUBCHEM_XLOGP3_AA>
5.1

> <PUBCHEM_EXACT_MASS>
498.33586198

> <PUBCHEM_MOLECULAR_FORMULA>
C32H42N4O

> <PUBCHEM_MOLECULAR_WEIGHT>
498.7

> <PUBCHEM_OPENEYE_CAN_SMILES>
CN(C)CC1=CC=C(C=C1)CNC(=O)CCCCCN2CCN(CC2)C3=CC=CC=C3C4=CC=CC=C4

> <PUBCHEM_OPENEYE_ISO_SMILES>
CN(C)CC1=CC=C(C=C1)CNC(=O)CCCCCN2CCN(CC2)C3=CC=CC=C3C4=CC=CC=C4

> <PUBCHEM_CACTVS_TPSA>
38.8

> <PUBCHEM_MONOISOTOPIC_WEIGHT>
498.33586198

> <PUBCHEM_TOTAL_CHARGE>
0

> <PUBCHEM_HEAVY_ATOM_COUNT>
37

> <PUBCHEM_ATOM_DEF_STEREO_COUNT>
0

> <PUBCHEM_ATOM_UDEF_STEREO_COUNT>
0

> <PUBCHEM_BOND_DEF_STEREO_COUNT>
0

> <PUBCHEM_BOND_UDEF_STEREO_COUNT>
0

> <PUBCHEM_ISOTOPIC_ATOM_COUNT>
0

> <PUBCHEM_COMPONENT_COUNT>
1

> <PUBCHEM_CACTVS_TAUTO_COUNT>
-1

> <PUBCHEM_COORDINATE_TYPE>
1
5
255

> <PUBCHEM_BONDANNOTATIONS>
12  15  8
12  16  8
15  18  8
16  20  8
18  21  8
19  23  8
19  24  8
20  21  8
23  26  8
24  27  8
26  29  8
27  29  8
28  30  8
28  31  8
30  34  8
31  35  8
32  34  8
32  35  8

$$$$
