17756110
  -OEChem-09292322492D

 42 45  0     1  0  0  0  0  0999 V2000
    4.5164   -3.1858    0.0000 Cl  0  0  0  0  0  0  0  0  0  0  0  0
    2.7973   -1.9943    0.0000 O   0  0  0  0  0  0  0  0  0  0  0  0
    5.7840    1.4291    0.0000 N   0  0  3  0  0  0  0  0  0  0  0  0
    4.8830    0.9952    0.0000 C   0  0  3  0  0  0  0  0  0  0  0  0
    6.6536    0.8556    0.0000 C   0  0  0  0  0  0  0  0  0  0  0  0
    6.0065    2.4040    0.0000 C   0  0  0  0  0  0  0  0  0  0  0  0
    4.7892   -0.0422    0.0000 C   0  0  0  0  0  0  0  0  0  0  0  0
    3.9820    1.4291    0.0000 C   0  0  0  0  0  0  0  0  0  0  0  0
    6.5837   -0.1837    0.0000 C   0  0  0  0  0  0  0  0  0  0  0  0
    5.3830    3.1858    0.0000 C   0  0  0  0  0  0  0  0  0  0  0  0
    5.6452   -0.6356    0.0000 C   0  0  0  0  0  0  0  0  0  0  0  0
    4.3830    3.1858    0.0000 C   0  0  0  0  0  0  0  0  0  0  0  0
    3.7595    2.4040    0.0000 C   0  0  0  0  0  0  0  0  0  0  0  0
    3.8010   -0.4902    0.0000 C   0  0  0  0  0  0  0  0  0  0  0  0
    3.2295    0.7089    0.0000 C   0  0  0  0  0  0  0  0  0  0  0  0
    5.5725   -1.7182    0.0000 C   0  0  0  0  0  0  0  0  0  0  0  0
    2.7690    2.7263    0.0000 C   0  0  0  0  0  0  0  0  0  0  0  0
    3.7032   -1.5708    0.0000 C   0  0  0  0  0  0  0  0  0  0  0  0
    4.5950   -2.1889    0.0000 C   0  0  0  0  0  0  0  0  0  0  0  0
    2.2318    1.0082    0.0000 C   0  0  0  0  0  0  0  0  0  0  0  0
    2.0000    2.0238    0.0000 C   0  0  0  0  0  0  0  0  0  0  0  0
    2.7110   -2.9905    0.0000 C   0  0  0  0  0  0  0  0  0  0  0  0
    4.3437    0.6893    0.0000 H   0  0  0  0  0  0  0  0  0  0  0  0
    7.2559    0.7088    0.0000 H   0  0  0  0  0  0  0  0  0  0  0  0
    6.9013    1.4240    0.0000 H   0  0  0  0  0  0  0  0  0  0  0  0
    6.5651    2.1350    0.0000 H   0  0  0  0  0  0  0  0  0  0  0  0
    6.3930    2.8887    0.0000 H   0  0  0  0  0  0  0  0  0  0  0  0
    6.7532   -0.7800    0.0000 H   0  0  0  0  0  0  0  0  0  0  0  0
    7.2003   -0.1188    0.0000 H   0  0  0  0  0  0  0  0  0  0  0  0
    5.9416    3.4548    0.0000 H   0  0  0  0  0  0  0  0  0  0  0  0
    5.2450    3.7903    0.0000 H   0  0  0  0  0  0  0  0  0  0  0  0
    4.5210    3.7903    0.0000 H   0  0  0  0  0  0  0  0  0  0  0  0
    3.8244    3.4548    0.0000 H   0  0  0  0  0  0  0  0  0  0  0  0
    3.2955   -0.1312    0.0000 H   0  0  0  0  0  0  0  0  0  0  0  0
    3.3744    0.1061    0.0000 H   0  0  0  0  0  0  0  0  0  0  0  0
    6.0861   -2.0654    0.0000 H   0  0  0  0  0  0  0  0  0  0  0  0
    2.6380    3.3323    0.0000 H   0  0  0  0  0  0  0  0  0  0  0  0
    1.7789    0.5848    0.0000 H   0  0  0  0  0  0  0  0  0  0  0  0
    1.4082    2.2088    0.0000 H   0  0  0  0  0  0  0  0  0  0  0  0
    2.0934   -2.9371    0.0000 H   0  0  0  0  0  0  0  0  0  0  0  0
    2.6576   -3.6082    0.0000 H   0  0  0  0  0  0  0  0  0  0  0  0
    3.3287   -3.0440    0.0000 H   0  0  0  0  0  0  0  0  0  0  0  0
  1 19  1  0  0  0  0
  2 18  1  0  0  0  0
  2 22  1  0  0  0  0
  3  4  1  0  0  0  0
  3  5  1  0  0  0  0
  3  6  1  0  0  0  0
  4  7  1  0  0  0  0
  4  8  1  0  0  0  0
  4 23  1  0  0  0  0
  5  9  1  0  0  0  0
  5 24  1  0  0  0  0
  5 25  1  0  0  0  0
  6 10  1  0  0  0  0
  6 26  1  0  0  0  0
  6 27  1  0  0  0  0
  7 11  1  0  0  0  0
  7 14  2  0  0  0  0
  8 13  1  0  0  0  0
  8 15  2  0  0  0  0
  9 11  1  0  0  0  0
  9 28  1  0  0  0  0
  9 29  1  0  0  0  0
 10 12  1  0  0  0  0
 10 30  1  0  0  0  0
 10 31  1  0  0  0  0
 11 16  2  0  0  0  0
 12 13  1  0  0  0  0
 12 32  1  0  0  0  0
 12 33  1  0  0  0  0
 13 17  2  0  0  0  0
 14 18  1  0  0  0  0
 14 34  1  0  0  0  0
 15 20  1  0  0  0  0
 15 35  1  0  0  0  0
 16 19  1  0  0  0  0
 16 36  1  0  0  0  0
 17 21  1  0  0  0  0
 17 37  1  0  0  0  0
 18 19  2  0  0  0  0
 20 21  2  0  0  0  0
 20 38  1  0  0  0  0
 21 39  1  0  0  0  0
 22 40  1  0  0  0  0
 22 41  1  0  0  0  0
 22 42  1  0  0  0  0
M  END
> <PUBCHEM_COMPOUND_CID>
17756110

> <PUBCHEM_COMPOUND_CANONICALIZED>
1

> <PUBCHEM_CACTVS_COMPLEXITY>
390

> <PUBCHEM_CACTVS_HBOND_ACCEPTOR>
2

> <PUBCHEM_CACTVS_HBOND_DONOR>
0

> <PUBCHEM_CACTVS_ROTATABLE_BOND>
1

> <PUBCHEM_CACTVS_SUBSKEYS>
AAADceB6IAAEAAAAAAAAAAAAAAAAAAAAAAA8YIAABYAAAACxQAAAHgIAAAAADC7BmCYyBoMABACAAiBCAACCCAAgJUAIiAAOD4gMJiOFsxuEMChkwBGIqAewwPAOpAABIAAQCABIAAJAACAQAAAAAAAAAA==

> <PUBCHEM_IUPAC_OPENEYE_NAME>
3-chloro-2-methoxy-5,6,8,9,10,14b-hexahydroisoquinolino[1,2-a][2]benzazepine

> <PUBCHEM_IUPAC_CAS_NAME>
3-chloro-2-methoxy-5,6,8,9,10,14b-hexahydroisoquinolino[1,2-a][2]benzazepine

> <PUBCHEM_IUPAC_NAME_MARKUP>
3-chloro-2-methoxy-5,6,8,9,10,14<I>b</I>-hexahydroisoquinolino[1,2-a][2]benzazepine

> <PUBCHEM_IUPAC_NAME>
3-chloro-2-methoxy-5,6,8,9,10,14b-hexahydroisoquinolino[1,2-a][2]benzazepine

> <PUBCHEM_IUPAC_SYSTEMATIC_NAME>
3-chloranyl-2-methoxy-5,6,8,9,10,14b-hexahydroisoquinolino[1,2-a][2]benzazepine

> <PUBCHEM_IUPAC_TRADITIONAL_NAME>
3-chloro-2-methoxy-5,6,8,9,10,14b-hexahydroisoquinolino[1,2-a][2]benzazepine

> <PUBCHEM_IUPAC_INCHI>
InChI=1S/C19H20ClNO/c1-22-18-12-16-14(11-17(18)20)8-10-21-9-4-6-13-5-2-3-7-15(13)19(16)21/h2-3,5,7,11-12,19H,4,6,8-10H2,1H3

> <PUBCHEM_IUPAC_INCHIKEY>
CSMHWQDLHDNUCX-UHFFFAOYSA-N

> <PUBCHEM_XLOGP3_AA>
4.5

> <PUBCHEM_EXACT_MASS>
313.1233420

> <PUBCHEM_MOLECULAR_FORMULA>
C19H20ClNO

> <PUBCHEM_MOLECULAR_WEIGHT>
313.8

> <PUBCHEM_OPENEYE_CAN_SMILES>
COC1=C(C=C2CCN3CCCC4=CC=CC=C4C3C2=C1)Cl

> <PUBCHEM_OPENEYE_ISO_SMILES>
COC1=C(C=C2CCN3CCCC4=CC=CC=C4C3C2=C1)Cl

> <PUBCHEM_CACTVS_TPSA>
12.5

> <PUBCHEM_MONOISOTOPIC_WEIGHT>
313.1233420

> <PUBCHEM_TOTAL_CHARGE>
0

> <PUBCHEM_HEAVY_ATOM_COUNT>
22

> <PUBCHEM_ATOM_DEF_STEREO_COUNT>
0

> <PUBCHEM_ATOM_UDEF_STEREO_COUNT>
1

> <PUBCHEM_BOND_DEF_STEREO_COUNT>
0

> <PUBCHEM_BOND_UDEF_STEREO_COUNT>
0

> <PUBCHEM_ISOTOPIC_ATOM_COUNT>
0

> <PUBCHEM_COMPONENT_COUNT>
1

> <PUBCHEM_CACTVS_TAUTO_COUNT>
-1

> <PUBCHEM_COORDINATE_TYPE>
1
5
255

> <PUBCHEM_BONDANNOTATIONS>
11  16  8
13  17  8
14  18  8
15  20  8
16  19  8
17  21  8
18  19  8
20  21  8
4  8  3
7  11  8
7  14  8
8  13  8
8  15  8

$$$$
