66559587
  -OEChem-09292321592D

 57 60  0     1  0  0  0  0  0999 V2000
    3.1203   -0.3836    0.0000 Cl  0  0  0  0  0  0  0  0  0  0  0  0
    2.0000   -2.0404    0.0000 Cl  0  0  0  0  0  0  0  0  0  0  0  0
   10.2206    1.0227    0.0000 O   0  0  0  0  0  0  0  0  0  0  0  0
   13.7507    0.0468    0.0000 O   0  0  0  0  0  0  0  0  0  0  0  0
    6.7565    1.0093    0.0000 N   0  0  3  0  0  0  0  0  0  0  0  0
    5.1152   -0.5254    0.0000 N   0  0  3  0  0  0  0  0  0  0  0  0
   14.6167    1.5468    0.0000 N   0  0  0  0  0  0  0  0  0  0  0  0
    5.9281    1.5694    0.0000 C   0  0  0  0  0  0  0  0  0  0  0  0
    6.8350    0.0124    0.0000 C   0  0  0  0  0  0  0  0  0  0  0  0
    4.9736    1.2710    0.0000 C   0  0  0  0  0  0  0  0  0  0  0  0
    6.1046   -0.6706    0.0000 C   0  0  0  0  0  0  0  0  0  0  0  0
    4.6119    0.3387    0.0000 C   0  0  0  0  0  0  0  0  0  0  0  0
    7.6206    1.5126    0.0000 C   0  0  0  0  0  0  0  0  0  0  0  0
    8.4885    1.0160    0.0000 C   0  0  0  0  0  0  0  0  0  0  0  0
    4.5551   -1.3538    0.0000 C   0  0  0  0  0  0  0  0  0  0  0  0
    9.3526    1.5193    0.0000 C   0  0  0  0  0  0  0  0  0  0  0  0
    3.5576   -1.2829    0.0000 C   0  0  0  0  0  0  0  0  0  0  0  0
    4.9924   -2.2531    0.0000 C   0  0  0  0  0  0  0  0  0  0  0  0
   12.8847    2.5468    0.0000 C   0  0  0  0  0  0  0  0  0  0  0  0
   13.7507    3.0468    0.0000 C   0  0  0  0  0  0  0  0  0  0  0  0
   12.8847    1.5468    0.0000 C   0  0  0  0  0  0  0  0  0  0  0  0
   11.0846    1.5260    0.0000 C   0  0  0  0  0  0  0  0  0  0  0  0
   14.6167    2.5468    0.0000 C   0  0  0  0  0  0  0  0  0  0  0  0
    2.9975   -2.1113    0.0000 C   0  0  0  0  0  0  0  0  0  0  0  0
    4.4323   -3.0815    0.0000 C   0  0  0  0  0  0  0  0  0  0  0  0
   11.9907    1.0121    0.0000 C   0  0  0  0  0  0  0  0  0  0  0  0
   11.9907    3.0815    0.0000 C   0  0  0  0  0  0  0  0  0  0  0  0
   11.0846    2.5676    0.0000 C   0  0  0  0  0  0  0  0  0  0  0  0
   13.7507    1.0468    0.0000 C   0  0  0  0  0  0  0  0  0  0  0  0
    3.4348   -3.0106    0.0000 C   0  0  0  0  0  0  0  0  0  0  0  0
    6.3809    1.9929    0.0000 H   0  0  0  0  0  0  0  0  0  0  0  0
    5.6160    2.1052    0.0000 H   0  0  0  0  0  0  0  0  0  0  0  0
    7.1471   -0.5233    0.0000 H   0  0  0  0  0  0  0  0  0  0  0  0
    7.4268    0.1974    0.0000 H   0  0  0  0  0  0  0  0  0  0  0  0
    4.9249    1.8891    0.0000 H   0  0  0  0  0  0  0  0  0  0  0  0
    4.3602    1.3610    0.0000 H   0  0  0  0  0  0  0  0  0  0  0  0
    5.8803   -1.2486    0.0000 H   0  0  0  0  0  0  0  0  0  0  0  0
    6.6182   -1.0179    0.0000 H   0  0  0  0  0  0  0  0  0  0  0  0
    4.0983    0.6860    0.0000 H   0  0  0  0  0  0  0  0  0  0  0  0
    4.1590   -0.0847    0.0000 H   0  0  0  0  0  0  0  0  0  0  0  0
    8.0173    1.9891    0.0000 H   0  0  0  0  0  0  0  0  0  0  0  0
    7.2202    1.9860    0.0000 H   0  0  0  0  0  0  0  0  0  0  0  0
    8.0918    0.5395    0.0000 H   0  0  0  0  0  0  0  0  0  0  0  0
    8.8889    0.5426    0.0000 H   0  0  0  0  0  0  0  0  0  0  0  0
    9.7493    1.9958    0.0000 H   0  0  0  0  0  0  0  0  0  0  0  0
    8.9522    1.9927    0.0000 H   0  0  0  0  0  0  0  0  0  0  0  0
    5.6109   -2.2970    0.0000 H   0  0  0  0  0  0  0  0  0  0  0  0
   14.1492    3.5218    0.0000 H   0  0  0  0  0  0  0  0  0  0  0  0
   13.3522    3.5218    0.0000 H   0  0  0  0  0  0  0  0  0  0  0  0
   15.2273    2.4391    0.0000 H   0  0  0  0  0  0  0  0  0  0  0  0
   14.8288    3.1294    0.0000 H   0  0  0  0  0  0  0  0  0  0  0  0
   11.9979    0.3922    0.0000 H   0  0  0  0  0  0  0  0  0  0  0  0
    4.7035   -3.6390    0.0000 H   0  0  0  0  0  0  0  0  0  0  0  0
   11.9979    3.7014    0.0000 H   0  0  0  0  0  0  0  0  0  0  0  0
   10.5489    2.8797    0.0000 H   0  0  0  0  0  0  0  0  0  0  0  0
   15.1536    1.2368    0.0000 H   0  0  0  0  0  0  0  0  0  0  0  0
    3.0876   -3.5242    0.0000 H   0  0  0  0  0  0  0  0  0  0  0  0
  1 17  1  0  0  0  0
  2 24  1  0  0  0  0
  3 16  1  0  0  0  0
  3 22  1  0  0  0  0
  4 29  2  0  0  0  0
  5  8  1  0  0  0  0
  5  9  1  0  0  0  0
  5 13  1  0  0  0  0
  6 11  1  0  0  0  0
  6 12  1  0  0  0  0
  6 15  1  0  0  0  0
  7 23  1  0  0  0  0
  7 29  1  0  0  0  0
  7 56  1  0  0  0  0
  8 10  1  0  0  0  0
  8 31  1  0  0  0  0
  8 32  1  0  0  0  0
  9 11  1  0  0  0  0
  9 33  1  0  0  0  0
  9 34  1  0  0  0  0
 10 12  1  0  0  0  0
 10 35  1  0  0  0  0
 10 36  1  0  0  0  0
 11 37  1  0  0  0  0
 11 38  1  0  0  0  0
 12 39  1  0  0  0  0
 12 40  1  0  0  0  0
 13 14  1  0  0  0  0
 13 41  1  0  0  0  0
 13 42  1  0  0  0  0
 14 16  1  0  0  0  0
 14 43  1  0  0  0  0
 14 44  1  0  0  0  0
 15 17  2  0  0  0  0
 15 18  1  0  0  0  0
 16 45  1  0  0  0  0
 16 46  1  0  0  0  0
 17 24  1  0  0  0  0
 18 25  2  0  0  0  0
 18 47  1  0  0  0  0
 19 20  1  0  0  0  0
 19 21  2  0  0  0  0
 19 27  1  0  0  0  0
 20 23  1  0  0  0  0
 20 48  1  0  0  0  0
 20 49  1  0  0  0  0
 21 26  1  0  0  0  0
 21 29  1  0  0  0  0
 22 26  2  0  0  0  0
 22 28  1  0  0  0  0
 23 50  1  0  0  0  0
 23 51  1  0  0  0  0
 24 30  2  0  0  0  0
 25 30  1  0  0  0  0
 25 53  1  0  0  0  0
 26 52  1  0  0  0  0
 27 28  2  0  0  0  0
 27 54  1  0  0  0  0
 28 55  1  0  0  0  0
 30 57  1  0  0  0  0
M  END
> <PUBCHEM_COMPOUND_CID>
66559587

> <PUBCHEM_COMPOUND_CANONICALIZED>
1

> <PUBCHEM_CACTVS_COMPLEXITY>
567

> <PUBCHEM_CACTVS_HBOND_ACCEPTOR>
4

> <PUBCHEM_CACTVS_HBOND_DONOR>
1

> <PUBCHEM_CACTVS_ROTATABLE_BOND>
6

> <PUBCHEM_CACTVS_SUBSKEYS>
AAADceB7MAAGAAAAAAAAAAAAAAAAAAAAAAA8YIAABYAAAACxQAAAHgIQAAAADA7hmCYwxoPABACIAiVSUACCCAAlJwAIisEObsgMZjLF95vWOSjm1hHI6Ye6yZCOoAABAAIQABRAAAIABCAAKAAAAAAAAA==

> <PUBCHEM_IUPAC_OPENEYE_NAME>
7-[3-[4-(2,3-dichlorophenyl)-1,4-diazepan-1-yl]propoxy]-3,4-dihydro-2H-isoquinolin-1-one

> <PUBCHEM_IUPAC_CAS_NAME>
7-[3-[4-(2,3-dichlorophenyl)-1,4-diazepan-1-yl]propoxy]-3,4-dihydro-2H-isoquinolin-1-one

> <PUBCHEM_IUPAC_NAME_MARKUP>
7-[3-[4-(2,3-dichlorophenyl)-1,4-diazepan-1-yl]propoxy]-3,4-dihydro-2<I>H</I>-isoquinolin-1-one

> <PUBCHEM_IUPAC_NAME>
7-[3-[4-(2,3-dichlorophenyl)-1,4-diazepan-1-yl]propoxy]-3,4-dihydro-2H-isoquinolin-1-one

> <PUBCHEM_IUPAC_SYSTEMATIC_NAME>
7-[3-[4-[2,3-bis(chloranyl)phenyl]-1,4-diazepan-1-yl]propoxy]-3,4-dihydro-2H-isoquinolin-1-one

> <PUBCHEM_IUPAC_TRADITIONAL_NAME>
7-[3-[4-(2,3-dichlorophenyl)-1,4-diazepan-1-yl]propoxy]-3,4-dihydroisocarbostyril

> <PUBCHEM_IUPAC_INCHI>
InChI=1S/C23H27Cl2N3O2/c24-20-4-1-5-21(22(20)25)28-12-2-10-27(13-14-28)11-3-15-30-18-7-6-17-8-9-26-23(29)19(17)16-18/h1,4-7,16H,2-3,8-15H2,(H,26,29)

> <PUBCHEM_IUPAC_INCHIKEY>
IHIMEHQDIJSRNN-UHFFFAOYSA-N

> <PUBCHEM_XLOGP3_AA>
4.8

> <PUBCHEM_EXACT_MASS>
447.1480325

> <PUBCHEM_MOLECULAR_FORMULA>
C23H27Cl2N3O2

> <PUBCHEM_MOLECULAR_WEIGHT>
448.4

> <PUBCHEM_OPENEYE_CAN_SMILES>
C1CN(CCN(C1)C2=C(C(=CC=C2)Cl)Cl)CCCOC3=CC4=C(CCNC4=O)C=C3

> <PUBCHEM_OPENEYE_ISO_SMILES>
C1CN(CCN(C1)C2=C(C(=CC=C2)Cl)Cl)CCCOC3=CC4=C(CCNC4=O)C=C3

> <PUBCHEM_CACTVS_TPSA>
44.8

> <PUBCHEM_MONOISOTOPIC_WEIGHT>
447.1480325

> <PUBCHEM_TOTAL_CHARGE>
0

> <PUBCHEM_HEAVY_ATOM_COUNT>
30

> <PUBCHEM_ATOM_DEF_STEREO_COUNT>
0

> <PUBCHEM_ATOM_UDEF_STEREO_COUNT>
0

> <PUBCHEM_BOND_DEF_STEREO_COUNT>
0

> <PUBCHEM_BOND_UDEF_STEREO_COUNT>
0

> <PUBCHEM_ISOTOPIC_ATOM_COUNT>
0

> <PUBCHEM_COMPONENT_COUNT>
1

> <PUBCHEM_CACTVS_TAUTO_COUNT>
-1

> <PUBCHEM_COORDINATE_TYPE>
1
5
255

> <PUBCHEM_BONDANNOTATIONS>
15  17  8
15  18  8
17  24  8
18  25  8
19  21  8
19  27  8
21  26  8
22  26  8
22  28  8
24  30  8
25  30  8
27  28  8

$$$$
