127028408
  -OEChem-09292322362D

 34 34  0     1  0  0  0  0  0999 V2000
    2.9218    0.0000    0.0000 Cl  0  0  0  0  0  0  0  0  0  0  0  0
    6.5991    3.5000    0.0000 F   0  0  0  0  0  0  0  0  0  0  0  0
    4.8671    2.5000    0.0000 F   0  0  0  0  0  0  0  0  0  0  0  0
    3.1350    5.5000    0.0000 O   0  0  0  0  0  0  0  0  0  0  0  0
    6.2331    8.8660    0.0000 N   0  0  0  0  0  0  0  0  0  0  0  0
    5.3671    7.3660    0.0000 C   0  0  3  0  0  0  0  0  0  0  0  0
    4.8671    6.5000    0.0000 C   0  0  3  0  0  0  0  0  0  0  0  0
    4.3671    7.3660    0.0000 C   0  0  0  0  0  0  0  0  0  0  0  0
    6.2331    7.8660    0.0000 C   0  0  0  0  0  0  0  0  0  0  0  0
    4.8671    5.5000    0.0000 C   0  0  0  0  0  0  0  0  0  0  0  0
    4.0010    5.0000    0.0000 C   0  0  0  0  0  0  0  0  0  0  0  0
    5.7331    5.0000    0.0000 C   0  0  0  0  0  0  0  0  0  0  0  0
    4.0010    4.0000    0.0000 C   0  0  0  0  0  0  0  0  0  0  0  0
    5.7331    4.0000    0.0000 C   0  0  0  0  0  0  0  0  0  0  0  0
    4.8671    3.5000    0.0000 C   0  0  0  0  0  0  0  0  0  0  0  0
    2.2690    5.0000    0.0000 C   0  0  0  0  0  0  0  0  0  0  0  0
    1.4030    5.5000    0.0000 C   0  0  0  0  0  0  0  0  0  0  0  0
    0.5369    5.0000    0.0000 C   0  0  0  0  0  0  0  0  0  0  0  0
    5.2066    7.9649    0.0000 H   0  0  0  0  0  0  0  0  0  0  0  0
    5.4659    6.3395    0.0000 H   0  0  0  0  0  0  0  0  0  0  0  0
    4.2594    7.9766    0.0000 H   0  0  0  0  0  0  0  0  0  0  0  0
    3.7844    7.1540    0.0000 H   0  0  0  0  0  0  0  0  0  0  0  0
    6.4451    7.2834    0.0000 H   0  0  0  0  0  0  0  0  0  0  0  0
    6.8437    7.9737    0.0000 H   0  0  0  0  0  0  0  0  0  0  0  0
    6.2700    5.3100    0.0000 H   0  0  0  0  0  0  0  0  0  0  0  0
    6.7700    9.1760    0.0000 H   0  0  0  0  0  0  0  0  0  0  0  0
    5.6962    9.1760    0.0000 H   0  0  0  0  0  0  0  0  0  0  0  0
    3.4641    3.6900    0.0000 H   0  0  0  0  0  0  0  0  0  0  0  0
    1.8705    4.5250    0.0000 H   0  0  0  0  0  0  0  0  0  0  0  0
    2.6675    4.5250    0.0000 H   0  0  0  0  0  0  0  0  0  0  0  0
    1.4030    6.1200    0.0000 H   0  0  0  0  0  0  0  0  0  0  0  0
    0.0000    5.3100    0.0000 H   0  0  0  0  0  0  0  0  0  0  0  0
    0.5369    4.3800    0.0000 H   0  0  0  0  0  0  0  0  0  0  0  0
    3.9218    0.0000    0.0000 H   0  0  0  0  0  0  0  0  0  0  0  0
  1 34  1  0  0  0  0
  2 14  1  0  0  0  0
  3 15  1  0  0  0  0
  4 11  1  0  0  0  0
  4 16  1  0  0  0  0
  5  9  1  0  0  0  0
  5 26  1  0  0  0  0
  5 27  1  0  0  0  0
  6  7  1  0  0  0  0
  6  8  1  0  0  0  0
  6  9  1  0  0  0  0
  6 19  1  0  0  0  0
  7  8  1  0  0  0  0
  7 10  1  0  0  0  0
  7 20  1  0  0  0  0
  8 21  1  0  0  0  0
  8 22  1  0  0  0  0
  9 23  1  0  0  0  0
  9 24  1  0  0  0  0
 10 11  1  0  0  0  0
 10 12  2  0  0  0  0
 11 13  2  0  0  0  0
 12 14  1  0  0  0  0
 12 25  1  0  0  0  0
 13 15  1  0  0  0  0
 13 28  1  0  0  0  0
 14 15  2  0  0  0  0
 16 17  1  0  0  0  0
 16 29  1  0  0  0  0
 16 30  1  0  0  0  0
 17 18  2  0  0  0  0
 17 31  1  0  0  0  0
 18 32  1  0  0  0  0
 18 33  1  0  0  0  0
M  END
> <PUBCHEM_COMPOUND_CID>
127028408

> <PUBCHEM_COMPOUND_CANONICALIZED>
1

> <PUBCHEM_CACTVS_COMPLEXITY>
274

> <PUBCHEM_CACTVS_HBOND_ACCEPTOR>
4

> <PUBCHEM_CACTVS_HBOND_DONOR>
2

> <PUBCHEM_CACTVS_ROTATABLE_BOND>
5

> <PUBCHEM_CACTVS_SUBSKEYS>
AAADceByIYAEAAAAAAAAAAAAGAAAAAAAAAAwAAAAAAAAAAABAAAAHwAQAAAADQThmA4wBoBABACAAiBCAAACCAAgIAAIiIAGCIgMJiKEsRqCOCCk0BEIqAeQ0OAOgAAAAAAIAAAAAAAAABAAAAAAAAAAAA==

> <PUBCHEM_IUPAC_OPENEYE_NAME>
[2-(2-allyloxy-4,5-difluoro-phenyl)cyclopropyl]methanamine;hydrochloride

> <PUBCHEM_IUPAC_CAS_NAME>
[2-(4,5-difluoro-2-prop-2-enoxyphenyl)cyclopropyl]methanamine;hydrochloride

> <PUBCHEM_IUPAC_NAME_MARKUP>
[2-(4,5-difluoro-2-prop-2-enoxyphenyl)cyclopropyl]methanamine;hydrochloride

> <PUBCHEM_IUPAC_NAME>
[2-(4,5-difluoro-2-prop-2-enoxyphenyl)cyclopropyl]methanamine;hydrochloride

> <PUBCHEM_IUPAC_SYSTEMATIC_NAME>
[2-[4,5-bis(fluoranyl)-2-prop-2-enoxy-phenyl]cyclopropyl]methanamine;hydrochloride

> <PUBCHEM_IUPAC_TRADITIONAL_NAME>
[2-(2-allyloxy-4,5-difluoro-phenyl)cyclopropyl]methylamine;hydrochloride

> <PUBCHEM_IUPAC_INCHI>
InChI=1S/C13H15F2NO.ClH/c1-2-3-17-13-6-12(15)11(14)5-10(13)9-4-8(9)7-16;/h2,5-6,8-9H,1,3-4,7,16H2;1H

> <PUBCHEM_IUPAC_INCHIKEY>
XGCOQOYOBQPELW-UHFFFAOYSA-N

> <PUBCHEM_EXACT_MASS>
275.0888482

> <PUBCHEM_MOLECULAR_FORMULA>
C13H16ClF2NO

> <PUBCHEM_MOLECULAR_WEIGHT>
275.72

> <PUBCHEM_OPENEYE_CAN_SMILES>
C=CCOC1=CC(=C(C=C1C2CC2CN)F)F.Cl

> <PUBCHEM_OPENEYE_ISO_SMILES>
C=CCOC1=CC(=C(C=C1C2CC2CN)F)F.Cl

> <PUBCHEM_CACTVS_TPSA>
35.2

> <PUBCHEM_MONOISOTOPIC_WEIGHT>
275.0888482

> <PUBCHEM_TOTAL_CHARGE>
0

> <PUBCHEM_HEAVY_ATOM_COUNT>
18

> <PUBCHEM_ATOM_DEF_STEREO_COUNT>
0

> <PUBCHEM_ATOM_UDEF_STEREO_COUNT>
2

> <PUBCHEM_BOND_DEF_STEREO_COUNT>
0

> <PUBCHEM_BOND_UDEF_STEREO_COUNT>
0

> <PUBCHEM_ISOTOPIC_ATOM_COUNT>
0

> <PUBCHEM_COMPONENT_COUNT>
2

> <PUBCHEM_CACTVS_TAUTO_COUNT>
-1

> <PUBCHEM_COORDINATE_TYPE>
1
5
255

> <PUBCHEM_BONDANNOTATIONS>
10  11  8
10  12  8
11  13  8
12  14  8
13  15  8
14  15  8
6  9  3
7  10  3

$$$$
