134133464
  -OEChem-09292322382D

 74 77  0     0  0  0  0  0  0999 V2000
    4.6783   -6.0381    0.0000 S   0  0  0  0  0  0  0  0  0  0  0  0
    9.7884    2.8437    0.0000 O   0  0  0  0  0  0  0  0  0  0  0  0
    5.6103   -1.5770    0.0000 N   0  0  0  0  0  0  0  0  0  0  0  0
    8.1421    3.3818    0.0000 N   0  0  0  0  0  0  0  0  0  0  0  0
    4.9889   -3.4781    0.0000 N   0  0  0  0  0  0  0  0  0  0  0  0
    9.4312    4.5385    0.0000 N   0  0  0  0  0  0  0  0  0  0  0  0
    5.2619   -5.2333    0.0000 N   0  0  0  0  0  0  0  0  0  0  0  0
    7.2101    0.5302    0.0000 C   0  0  0  0  0  0  0  0  0  0  0  0
    6.5422    1.2745    0.0000 C   0  0  0  0  0  0  0  0  0  0  0  0
    8.1886    0.7364    0.0000 C   0  0  0  0  0  0  0  0  0  0  0  0
    7.8314    2.4313    0.0000 C   0  0  0  0  0  0  0  0  0  0  0  0
    6.8529    2.2250    0.0000 C   0  0  0  0  0  0  0  0  0  0  0  0
    8.4993    1.6870    0.0000 C   0  0  0  0  0  0  0  0  0  0  0  0
    6.8994   -0.4203    0.0000 C   0  0  0  0  0  0  0  0  0  0  0  0
    5.9209   -0.6265    0.0000 C   0  0  0  0  0  0  0  0  0  0  0  0
    4.6318   -1.7833    0.0000 C   0  0  0  0  0  0  0  0  0  0  0  0
    6.2781   -2.3213    0.0000 C   0  0  0  0  0  0  0  0  0  0  0  0
    4.3211   -2.7338    0.0000 C   0  0  0  0  0  0  0  0  0  0  0  0
    5.9674   -3.2719    0.0000 C   0  0  0  0  0  0  0  0  0  0  0  0
    9.1206    3.5880    0.0000 C   0  0  0  0  0  0  0  0  0  0  0  0
    4.6783   -4.4286    0.0000 C   0  0  0  0  0  0  0  0  0  0  0  0
   10.4097    4.7447    0.0000 C   0  0  0  0  0  0  0  0  0  0  0  0
    8.7634    5.2828    0.0000 C   0  0  0  0  0  0  0  0  0  0  0  0
    3.7320   -4.7333    0.0000 C   0  0  0  0  0  0  0  0  0  0  0  0
   10.7204    5.6952    0.0000 C   0  0  0  0  0  0  0  0  0  0  0  0
   11.0776    4.0004    0.0000 C   0  0  0  0  0  0  0  0  0  0  0  0
    9.0741    6.2333    0.0000 C   0  0  0  0  0  0  0  0  0  0  0  0
    7.7849    5.0766    0.0000 C   0  0  0  0  0  0  0  0  0  0  0  0
    3.7320   -5.7333    0.0000 C   0  0  0  0  0  0  0  0  0  0  0  0
    2.8660   -4.2333    0.0000 C   0  0  0  0  0  0  0  0  0  0  0  0
    2.8660   -6.2333    0.0000 C   0  0  0  0  0  0  0  0  0  0  0  0
    2.0000   -4.7333    0.0000 C   0  0  0  0  0  0  0  0  0  0  0  0
    2.0000   -5.7333    0.0000 C   0  0  0  0  0  0  0  0  0  0  0  0
    7.6242    0.0687    0.0000 H   0  0  0  0  0  0  0  0  0  0  0  0
    5.9953    1.5665    0.0000 H   0  0  0  0  0  0  0  0  0  0  0  0
    6.1597    0.7866    0.0000 H   0  0  0  0  0  0  0  0  0  0  0  0
    8.2092    0.1168    0.0000 H   0  0  0  0  0  0  0  0  0  0  0  0
    8.8024    0.6491    0.0000 H   0  0  0  0  0  0  0  0  0  0  0  0
    8.4381    2.5591    0.0000 H   0  0  0  0  0  0  0  0  0  0  0  0
    6.8323    2.8447    0.0000 H   0  0  0  0  0  0  0  0  0  0  0  0
    6.2391    2.3124    0.0000 H   0  0  0  0  0  0  0  0  0  0  0  0
    9.0462    1.3949    0.0000 H   0  0  0  0  0  0  0  0  0  0  0  0
    8.8818    2.1749    0.0000 H   0  0  0  0  0  0  0  0  0  0  0  0
    6.9200   -1.0400    0.0000 H   0  0  0  0  0  0  0  0  0  0  0  0
    7.5132   -0.5077    0.0000 H   0  0  0  0  0  0  0  0  0  0  0  0
    5.9004   -0.0069    0.0000 H   0  0  0  0  0  0  0  0  0  0  0  0
    5.3071   -0.5392    0.0000 H   0  0  0  0  0  0  0  0  0  0  0  0
    7.7280    3.8432    0.0000 H   0  0  0  0  0  0  0  0  0  0  0  0
    4.6112   -1.1636    0.0000 H   0  0  0  0  0  0  0  0  0  0  0  0
    4.0179   -1.6959    0.0000 H   0  0  0  0  0  0  0  0  0  0  0  0
    6.8250   -2.6134    0.0000 H   0  0  0  0  0  0  0  0  0  0  0  0
    6.6607   -1.8334    0.0000 H   0  0  0  0  0  0  0  0  0  0  0  0
    3.7742   -2.4418    0.0000 H   0  0  0  0  0  0  0  0  0  0  0  0
    3.9385   -3.2217    0.0000 H   0  0  0  0  0  0  0  0  0  0  0  0
    5.9880   -3.8915    0.0000 H   0  0  0  0  0  0  0  0  0  0  0  0
    6.5812   -3.3592    0.0000 H   0  0  0  0  0  0  0  0  0  0  0  0
   10.2171    4.1554    0.0000 H   0  0  0  0  0  0  0  0  0  0  0  0
    9.3701    5.4107    0.0000 H   0  0  0  0  0  0  0  0  0  0  0  0
   11.3097    5.5026    0.0000 H   0  0  0  0  0  0  0  0  0  0  0  0
   10.9130    6.2846    0.0000 H   0  0  0  0  0  0  0  0  0  0  0  0
   10.1311    5.8879    0.0000 H   0  0  0  0  0  0  0  0  0  0  0  0
   10.6161    3.5864    0.0000 H   0  0  0  0  0  0  0  0  0  0  0  0
   11.4917    3.5390    0.0000 H   0  0  0  0  0  0  0  0  0  0  0  0
   11.5391    4.4145    0.0000 H   0  0  0  0  0  0  0  0  0  0  0  0
    9.6634    6.0407    0.0000 H   0  0  0  0  0  0  0  0  0  0  0  0
    9.2667    6.8227    0.0000 H   0  0  0  0  0  0  0  0  0  0  0  0
    8.4847    6.4260    0.0000 H   0  0  0  0  0  0  0  0  0  0  0  0
    7.6570    5.6833    0.0000 H   0  0  0  0  0  0  0  0  0  0  0  0
    7.1782    4.9487    0.0000 H   0  0  0  0  0  0  0  0  0  0  0  0
    7.9128    4.4699    0.0000 H   0  0  0  0  0  0  0  0  0  0  0  0
    2.8660   -3.6133    0.0000 H   0  0  0  0  0  0  0  0  0  0  0  0
    2.8660   -6.8533    0.0000 H   0  0  0  0  0  0  0  0  0  0  0  0
    1.4631   -4.4233    0.0000 H   0  0  0  0  0  0  0  0  0  0  0  0
    1.4631   -6.0433    0.0000 H   0  0  0  0  0  0  0  0  0  0  0  0
  1  7  1  0  0  0  0
  1 29  1  0  0  0  0
  2 20  2  0  0  0  0
  3 15  1  0  0  0  0
  3 16  1  0  0  0  0
  3 17  1  0  0  0  0
  4 11  1  0  0  0  0
  4 20  1  0  0  0  0
  4 48  1  0  0  0  0
  5 18  1  0  0  0  0
  5 19  1  0  0  0  0
  5 21  1  0  0  0  0
  6 20  1  0  0  0  0
  6 22  1  0  0  0  0
  6 23  1  0  0  0  0
  7 21  2  0  0  0  0
  8  9  1  0  0  0  0
  8 10  1  0  0  0  0
  8 14  1  0  0  0  0
  8 34  1  0  0  0  0
  9 12  1  0  0  0  0
  9 35  1  0  0  0  0
  9 36  1  0  0  0  0
 10 13  1  0  0  0  0
 10 37  1  0  0  0  0
 10 38  1  0  0  0  0
 11 12  1  0  0  0  0
 11 13  1  0  0  0  0
 11 39  1  0  0  0  0
 12 40  1  0  0  0  0
 12 41  1  0  0  0  0
 13 42  1  0  0  0  0
 13 43  1  0  0  0  0
 14 15  1  0  0  0  0
 14 44  1  0  0  0  0
 14 45  1  0  0  0  0
 15 46  1  0  0  0  0
 15 47  1  0  0  0  0
 16 18  1  0  0  0  0
 16 49  1  0  0  0  0
 16 50  1  0  0  0  0
 17 19  1  0  0  0  0
 17 51  1  0  0  0  0
 17 52  1  0  0  0  0
 18 53  1  0  0  0  0
 18 54  1  0  0  0  0
 19 55  1  0  0  0  0
 19 56  1  0  0  0  0
 21 24  1  0  0  0  0
 22 25  1  0  0  0  0
 22 26  1  0  0  0  0
 22 57  1  0  0  0  0
 23 27  1  0  0  0  0
 23 28  1  0  0  0  0
 23 58  1  0  0  0  0
 24 29  1  0  0  0  0
 24 30  2  0  0  0  0
 25 59  1  0  0  0  0
 25 60  1  0  0  0  0
 25 61  1  0  0  0  0
 26 62  1  0  0  0  0
 26 63  1  0  0  0  0
 26 64  1  0  0  0  0
 27 65  1  0  0  0  0
 27 66  1  0  0  0  0
 27 67  1  0  0  0  0
 28 68  1  0  0  0  0
 28 69  1  0  0  0  0
 28 70  1  0  0  0  0
 29 31  2  0  0  0  0
 30 32  1  0  0  0  0
 30 71  1  0  0  0  0
 31 33  1  0  0  0  0
 31 72  1  0  0  0  0
 32 33  2  0  0  0  0
 32 73  1  0  0  0  0
 33 74  1  0  0  0  0
M  END
> <PUBCHEM_COMPOUND_CID>
134133464

> <PUBCHEM_COMPOUND_CANONICALIZED>
1

> <PUBCHEM_CACTVS_COMPLEXITY>
608

> <PUBCHEM_CACTVS_HBOND_ACCEPTOR>
5

> <PUBCHEM_CACTVS_HBOND_DONOR>
1

> <PUBCHEM_CACTVS_ROTATABLE_BOND>
7

> <PUBCHEM_CACTVS_SUBSKEYS>
AAADcfB7oABAAAAAAAAAAAAAAAAAAWAAAAA8YIAAAAAAAFgB8AAAHgQQQAAADSjBWgQzsdPAAACsAiJicACDABAhAABJmLgoRJiIYKLAmZGUIAxolgLIyAcQgIAOAAAAAAAEAAAQAAAAAAgAAAAAAAAAAA==

> <PUBCHEM_IUPAC_OPENEYE_NAME>
3-[4-[2-[4-(1,2-benzothiazol-3-yl)piperazin-1-yl]ethyl]cyclohexyl]-1,1-diisopropyl-urea

> <PUBCHEM_IUPAC_CAS_NAME>
3-[4-[2-[4-(1,2-benzothiazol-3-yl)-1-piperazinyl]ethyl]cyclohexyl]-1,1-di(propan-2-yl)urea

> <PUBCHEM_IUPAC_NAME_MARKUP>
3-[4-[2-[4-(1,2-benzothiazol-3-yl)piperazin-1-yl]ethyl]cyclohexyl]-1,1-di(propan-2-yl)urea

> <PUBCHEM_IUPAC_NAME>
3-[4-[2-[4-(1,2-benzothiazol-3-yl)piperazin-1-yl]ethyl]cyclohexyl]-1,1-di(propan-2-yl)urea

> <PUBCHEM_IUPAC_SYSTEMATIC_NAME>
3-[4-[2-[4-(1,2-benzothiazol-3-yl)piperazin-1-yl]ethyl]cyclohexyl]-1,1-di(propan-2-yl)urea

> <PUBCHEM_IUPAC_TRADITIONAL_NAME>
3-[4-[2-[4-(1,2-benzothiazol-3-yl)piperazino]ethyl]cyclohexyl]-1,1-diisopropyl-urea

> <PUBCHEM_IUPAC_INCHI>
InChI=1S/C26H41N5OS/c1-19(2)31(20(3)4)26(32)27-22-11-9-21(10-12-22)13-14-29-15-17-30(18-16-29)25-23-7-5-6-8-24(23)33-28-25/h5-8,19-22H,9-18H2,1-4H3,(H,27,32)

> <PUBCHEM_IUPAC_INCHIKEY>
XOLGUSIUXDCCCM-UHFFFAOYSA-N

> <PUBCHEM_XLOGP3_AA>
5.4

> <PUBCHEM_EXACT_MASS>
471.30318212

> <PUBCHEM_MOLECULAR_FORMULA>
C26H41N5OS

> <PUBCHEM_MOLECULAR_WEIGHT>
471.7

> <PUBCHEM_OPENEYE_CAN_SMILES>
CC(C)N(C(C)C)C(=O)NC1CCC(CC1)CCN2CCN(CC2)C3=NSC4=CC=CC=C43

> <PUBCHEM_OPENEYE_ISO_SMILES>
CC(C)N(C(C)C)C(=O)NC1CCC(CC1)CCN2CCN(CC2)C3=NSC4=CC=CC=C43

> <PUBCHEM_CACTVS_TPSA>
80

> <PUBCHEM_MONOISOTOPIC_WEIGHT>
471.30318212

> <PUBCHEM_TOTAL_CHARGE>
0

> <PUBCHEM_HEAVY_ATOM_COUNT>
33

> <PUBCHEM_ATOM_DEF_STEREO_COUNT>
0

> <PUBCHEM_ATOM_UDEF_STEREO_COUNT>
0

> <PUBCHEM_BOND_DEF_STEREO_COUNT>
0

> <PUBCHEM_BOND_UDEF_STEREO_COUNT>
0

> <PUBCHEM_ISOTOPIC_ATOM_COUNT>
0

> <PUBCHEM_COMPONENT_COUNT>
1

> <PUBCHEM_CACTVS_TAUTO_COUNT>
-1

> <PUBCHEM_COORDINATE_TYPE>
1
5
255

> <PUBCHEM_BONDANNOTATIONS>
1  29  8
1  7  8
21  24  8
24  29  8
24  30  8
29  31  8
30  32  8
31  33  8
32  33  8
7  21  8

$$$$
