44350842
  -OEChem-09292322122D

 70 71  0     0  0  0  0  0  0999 V2000
   12.2711   13.5000    0.0000 O   0  0  0  0  0  0  0  0  0  0  0  0
    7.0749    6.5000    0.0000 O   0  0  0  0  0  0  0  0  0  0  0  0
    6.2089    0.0000    0.0000 O   0  0  0  0  0  0  0  0  0  0  0  0
    0.5369    8.3100    0.0000 O   0  0  0  0  0  0  0  0  0  0  0  0
    3.1350    7.8100    0.0000 O   0  0  0  0  0  0  0  0  0  0  0  0
    1.4030    6.8100    0.0000 O   0  0  0  0  0  0  0  0  0  0  0  0
    2.2690    9.3100    0.0000 O   0  0  0  0  0  0  0  0  0  0  0  0
   10.5390   10.5000    0.0000 N   0  0  0  0  0  0  0  0  0  0  0  0
   10.5390   12.5000    0.0000 N   0  0  0  0  0  0  0  0  0  0  0  0
    8.8070    6.5000    0.0000 N   0  0  0  0  0  0  0  0  0  0  0  0
   11.4050   11.0000    0.0000 C   0  0  0  0  0  0  0  0  0  0  0  0
    9.6730   11.0000    0.0000 C   0  0  0  0  0  0  0  0  0  0  0  0
   11.4050   12.0000    0.0000 C   0  0  0  0  0  0  0  0  0  0  0  0
    9.6730   12.0000    0.0000 C   0  0  0  0  0  0  0  0  0  0  0  0
   10.5390    9.5000    0.0000 C   0  0  0  0  0  0  0  0  0  0  0  0
    9.6730    9.0000    0.0000 C   0  0  0  0  0  0  0  0  0  0  0  0
   10.5390   13.5000    0.0000 C   0  0  0  0  0  0  0  0  0  0  0  0
    9.6730    8.0000    0.0000 C   0  0  0  0  0  0  0  0  0  0  0  0
    8.8070    7.5000    0.0000 C   0  0  0  0  0  0  0  0  0  0  0  0
   11.4050   14.0000    0.0000 C   0  0  0  0  0  0  0  0  0  0  0  0
    9.6730   14.0000    0.0000 C   0  0  0  0  0  0  0  0  0  0  0  0
   11.4050   15.0000    0.0000 C   0  0  0  0  0  0  0  0  0  0  0  0
    9.6730   15.0000    0.0000 C   0  0  0  0  0  0  0  0  0  0  0  0
   10.5390   15.5000    0.0000 C   0  0  0  0  0  0  0  0  0  0  0  0
    7.9409    6.0000    0.0000 C   0  0  0  0  0  0  0  0  0  0  0  0
   13.1371   14.0000    0.0000 C   0  0  0  0  0  0  0  0  0  0  0  0
    7.9409    5.0000    0.0000 C   0  0  0  0  0  0  0  0  0  0  0  0
    7.0749    4.5000    0.0000 C   0  0  0  0  0  0  0  0  0  0  0  0
    7.0749    3.5000    0.0000 C   0  0  0  0  0  0  0  0  0  0  0  0
    7.9409    3.0000    0.0000 C   0  0  0  0  0  0  0  0  0  0  0  0
    6.2089    3.0000    0.0000 C   0  0  0  0  0  0  0  0  0  0  0  0
    7.9409    2.0000    0.0000 C   0  0  0  0  0  0  0  0  0  0  0  0
    6.2089    2.0000    0.0000 C   0  0  0  0  0  0  0  0  0  0  0  0
    7.0749    1.5000    0.0000 C   0  0  0  0  0  0  0  0  0  0  0  0
    7.0749    0.5000    0.0000 C   0  0  0  0  0  0  0  0  0  0  0  0
    1.4030    7.8100    0.0000 C   0  0  0  0  0  0  0  0  0  0  0  0
    2.2690    8.3100    0.0000 C   0  0  0  0  0  0  0  0  0  0  0  0
   11.6171   10.4174    0.0000 H   0  0  0  0  0  0  0  0  0  0  0  0
   12.0156   11.1077    0.0000 H   0  0  0  0  0  0  0  0  0  0  0  0
    9.0624   11.1077    0.0000 H   0  0  0  0  0  0  0  0  0  0  0  0
    9.4609   10.4174    0.0000 H   0  0  0  0  0  0  0  0  0  0  0  0
   12.0156   11.8923    0.0000 H   0  0  0  0  0  0  0  0  0  0  0  0
   11.6171   12.5826    0.0000 H   0  0  0  0  0  0  0  0  0  0  0  0
    9.4609   12.5826    0.0000 H   0  0  0  0  0  0  0  0  0  0  0  0
    9.0624   11.8923    0.0000 H   0  0  0  0  0  0  0  0  0  0  0  0
   10.7511    8.9174    0.0000 H   0  0  0  0  0  0  0  0  0  0  0  0
   11.1496    9.6077    0.0000 H   0  0  0  0  0  0  0  0  0  0  0  0
    9.4609    9.5826    0.0000 H   0  0  0  0  0  0  0  0  0  0  0  0
    9.0624    8.8923    0.0000 H   0  0  0  0  0  0  0  0  0  0  0  0
    9.8850    7.4174    0.0000 H   0  0  0  0  0  0  0  0  0  0  0  0
   10.2836    8.1077    0.0000 H   0  0  0  0  0  0  0  0  0  0  0  0
    8.5949    8.0826    0.0000 H   0  0  0  0  0  0  0  0  0  0  0  0
    8.1964    7.3923    0.0000 H   0  0  0  0  0  0  0  0  0  0  0  0
    9.1360   13.6900    0.0000 H   0  0  0  0  0  0  0  0  0  0  0  0
   11.9420   15.3100    0.0000 H   0  0  0  0  0  0  0  0  0  0  0  0
    9.1360   15.3100    0.0000 H   0  0  0  0  0  0  0  0  0  0  0  0
    9.3439    6.1900    0.0000 H   0  0  0  0  0  0  0  0  0  0  0  0
   10.5390   16.1200    0.0000 H   0  0  0  0  0  0  0  0  0  0  0  0
   13.4471   13.4631    0.0000 H   0  0  0  0  0  0  0  0  0  0  0  0
   13.6740   14.3100    0.0000 H   0  0  0  0  0  0  0  0  0  0  0  0
   12.8271   14.5369    0.0000 H   0  0  0  0  0  0  0  0  0  0  0  0
    8.4779    4.6900    0.0000 H   0  0  0  0  0  0  0  0  0  0  0  0
    6.5380    4.8100    0.0000 H   0  0  0  0  0  0  0  0  0  0  0  0
    8.4779    3.3100    0.0000 H   0  0  0  0  0  0  0  0  0  0  0  0
    5.6720    3.3100    0.0000 H   0  0  0  0  0  0  0  0  0  0  0  0
    8.4779    1.6900    0.0000 H   0  0  0  0  0  0  0  0  0  0  0  0
    5.6720    1.6900    0.0000 H   0  0  0  0  0  0  0  0  0  0  0  0
    7.6118    0.1900    0.0000 H   0  0  0  0  0  0  0  0  0  0  0  0
    0.0000    8.0000    0.0000 H   0  0  0  0  0  0  0  0  0  0  0  0
    3.6720    8.1200    0.0000 H   0  0  0  0  0  0  0  0  0  0  0  0
  1 20  1  0  0  0  0
  1 26  1  0  0  0  0
  2 25  2  0  0  0  0
  3 35  2  0  0  0  0
  4 36  1  0  0  0  0
  4 69  1  0  0  0  0
  5 37  1  0  0  0  0
  5 70  1  0  0  0  0
  6 36  2  0  0  0  0
  7 37  2  0  0  0  0
  8 11  1  0  0  0  0
  8 12  1  0  0  0  0
  8 15  1  0  0  0  0
  9 13  1  0  0  0  0
  9 14  1  0  0  0  0
  9 17  1  0  0  0  0
 10 19  1  0  0  0  0
 10 25  1  0  0  0  0
 10 57  1  0  0  0  0
 11 13  1  0  0  0  0
 11 38  1  0  0  0  0
 11 39  1  0  0  0  0
 12 14  1  0  0  0  0
 12 40  1  0  0  0  0
 12 41  1  0  0  0  0
 13 42  1  0  0  0  0
 13 43  1  0  0  0  0
 14 44  1  0  0  0  0
 14 45  1  0  0  0  0
 15 16  1  0  0  0  0
 15 46  1  0  0  0  0
 15 47  1  0  0  0  0
 16 18  1  0  0  0  0
 16 48  1  0  0  0  0
 16 49  1  0  0  0  0
 17 20  1  0  0  0  0
 17 21  2  0  0  0  0
 18 19  1  0  0  0  0
 18 50  1  0  0  0  0
 18 51  1  0  0  0  0
 19 52  1  0  0  0  0
 19 53  1  0  0  0  0
 20 22  2  0  0  0  0
 21 23  1  0  0  0  0
 21 54  1  0  0  0  0
 22 24  1  0  0  0  0
 22 55  1  0  0  0  0
 23 24  2  0  0  0  0
 23 56  1  0  0  0  0
 24 58  1  0  0  0  0
 25 27  1  0  0  0  0
 26 59  1  0  0  0  0
 26 60  1  0  0  0  0
 26 61  1  0  0  0  0
 27 28  2  0  0  0  0
 27 62  1  0  0  0  0
 28 29  1  0  0  0  0
 28 63  1  0  0  0  0
 29 30  2  0  0  0  0
 29 31  1  0  0  0  0
 30 32  1  0  0  0  0
 30 64  1  0  0  0  0
 31 33  2  0  0  0  0
 31 65  1  0  0  0  0
 32 34  2  0  0  0  0
 32 66  1  0  0  0  0
 33 34  1  0  0  0  0
 33 67  1  0  0  0  0
 34 35  1  0  0  0  0
 35 68  1  0  0  0  0
 36 37  1  0  0  0  0
M  END
> <PUBCHEM_COMPOUND_CID>
44350842

> <PUBCHEM_COMPOUND_CANONICALIZED>
1

> <PUBCHEM_CACTVS_COMPLEXITY>
638

> <PUBCHEM_CACTVS_HBOND_ACCEPTOR>
9

> <PUBCHEM_CACTVS_HBOND_DONOR>
3

> <PUBCHEM_CACTVS_ROTATABLE_BOND>
11

> <PUBCHEM_CACTVS_SUBSKEYS>
AAADcfB7OAAAAAAAAAAAAAAAAAAAAAAAAAA8YIAAAAAAAAABQAAAHgAQCAAADAzhmAYyzoPABgCIAi3S2AKCCAAlIgAIiIFPbMgPZjLEtZuVMShk1hHZ6YeYyACOQAAAAAAAEACAAAAAAAAgAAAAAAAAAA==

> <PUBCHEM_IUPAC_OPENEYE_NAME>
(E)-3-(4-formylphenyl)-N-[4-[4-(2-methoxyphenyl)piperazin-1-yl]butyl]prop-2-enamide;oxalic acid

> <PUBCHEM_IUPAC_CAS_NAME>
(E)-3-(4-formylphenyl)-N-[4-[4-(2-methoxyphenyl)-1-piperazinyl]butyl]-2-propenamide;oxalic acid

> <PUBCHEM_IUPAC_NAME_MARKUP>
(<I>E</I>)-3-(4-formylphenyl)-<I>N</I>-[4-[4-(2-methoxyphenyl)piperazin-1-yl]butyl]prop-2-enamide;oxalic acid

> <PUBCHEM_IUPAC_NAME>
(E)-3-(4-formylphenyl)-N-[4-[4-(2-methoxyphenyl)piperazin-1-yl]butyl]prop-2-enamide;oxalic acid

> <PUBCHEM_IUPAC_SYSTEMATIC_NAME>
ethanedioic acid;(E)-3-(4-methanoylphenyl)-N-[4-[4-(2-methoxyphenyl)piperazin-1-yl]butyl]prop-2-enamide

> <PUBCHEM_IUPAC_TRADITIONAL_NAME>
(E)-3-(4-formylphenyl)-N-[4-[4-(2-methoxyphenyl)piperazino]butyl]acrylamide;oxalic acid

> <PUBCHEM_IUPAC_INCHI>
InChI=1S/C25H31N3O3.C2H2O4/c1-31-24-7-3-2-6-23(24)28-18-16-27(17-19-28)15-5-4-14-26-25(30)13-12-21-8-10-22(20-29)11-9-21;3-1(4)2(5)6/h2-3,6-13,20H,4-5,14-19H2,1H3,(H,26,30);(H,3,4)(H,5,6)/b13-12+;

> <PUBCHEM_IUPAC_INCHIKEY>
VUEAQHGGISPMKO-UEIGIMKUSA-N

> <PUBCHEM_EXACT_MASS>
511.23185040

> <PUBCHEM_MOLECULAR_FORMULA>
C27H33N3O7

> <PUBCHEM_MOLECULAR_WEIGHT>
511.6

> <PUBCHEM_OPENEYE_CAN_SMILES>
COC1=CC=CC=C1N2CCN(CC2)CCCCNC(=O)C=CC3=CC=C(C=C3)C=O.C(=O)(C(=O)O)O

> <PUBCHEM_OPENEYE_ISO_SMILES>
COC1=CC=CC=C1N2CCN(CC2)CCCCNC(=O)/C=C/C3=CC=C(C=C3)C=O.C(=O)(C(=O)O)O

> <PUBCHEM_CACTVS_TPSA>
137

> <PUBCHEM_MONOISOTOPIC_WEIGHT>
511.23185040

> <PUBCHEM_TOTAL_CHARGE>
0

> <PUBCHEM_HEAVY_ATOM_COUNT>
37

> <PUBCHEM_ATOM_DEF_STEREO_COUNT>
0

> <PUBCHEM_ATOM_UDEF_STEREO_COUNT>
0

> <PUBCHEM_BOND_DEF_STEREO_COUNT>
1

> <PUBCHEM_BOND_UDEF_STEREO_COUNT>
0

> <PUBCHEM_ISOTOPIC_ATOM_COUNT>
0

> <PUBCHEM_COMPONENT_COUNT>
2

> <PUBCHEM_CACTVS_TAUTO_COUNT>
-1

> <PUBCHEM_COORDINATE_TYPE>
1
5
255

> <PUBCHEM_BONDANNOTATIONS>
17  20  8
17  21  8
20  22  8
21  23  8
22  24  8
23  24  8
29  30  8
29  31  8
30  32  8
31  33  8
32  34  8
33  34  8

$$$$
