11662592
  -OEChem-09292322272D

 61 66  0     1  0  0  0  0  0999 V2000
    5.5047    3.6674    0.0000 S   0  0  0  0  0  0  0  0  0  0  0  0
    6.3697    0.3965    0.0000 O   0  0  0  0  0  0  0  0  0  0  0  0
   10.0216    0.2653    0.0000 N   0  0  0  0  0  0  0  0  0  0  0  0
   11.3542   -1.2262    0.0000 N   0  0  0  0  0  0  0  0  0  0  0  0
    7.7102    1.5526    0.0000 N   0  0  0  0  0  0  0  0  0  0  0  0
    2.9773    2.5432    0.0000 N   0  0  3  0  0  0  0  0  0  0  0  0
    7.3291    3.3119    0.0000 N   0  0  0  0  0  0  0  0  0  0  0  0
   13.3529   -3.4633    0.0000 N   0  0  0  0  0  0  0  0  0  0  0  0
    9.7090   -0.6846    0.0000 C   0  0  0  0  0  0  0  0  0  0  0  0
   11.0006    0.4694    0.0000 C   0  0  0  0  0  0  0  0  0  0  0  0
   10.3752   -1.4303    0.0000 C   0  0  0  0  0  0  0  0  0  0  0  0
   11.6668   -0.2763    0.0000 C   0  0  0  0  0  0  0  0  0  0  0  0
    9.3554    1.0110    0.0000 C   0  0  0  0  0  0  0  0  0  0  0  0
    8.3764    0.8069    0.0000 C   0  0  0  0  0  0  0  0  0  0  0  0
    5.0047    2.1286    0.0000 C   0  0  0  0  0  0  0  0  0  0  0  0
    4.3197    1.3439    0.0000 C   0  0  0  0  0  0  0  0  0  0  0  0
    4.6957    3.0797    0.0000 C   0  0  0  0  0  0  0  0  0  0  0  0
    6.0047    2.1286    0.0000 C   0  0  0  0  0  0  0  0  0  0  0  0
    3.2992    1.5526    0.0000 C   0  0  0  0  0  0  0  0  0  0  0  0
    3.6803    3.3119    0.0000 C   0  0  0  0  0  0  0  0  0  0  0  0
   12.0204   -1.9719    0.0000 C   0  0  0  0  0  0  0  0  0  0  0  0
    6.6897    1.3439    0.0000 C   0  0  0  0  0  0  0  0  0  0  0  0
    6.3137    3.0797    0.0000 C   0  0  0  0  0  0  0  0  0  0  0  0
   12.9994   -1.7677    0.0000 C   0  0  0  0  0  0  0  0  0  0  0  0
    8.0321    2.5432    0.0000 C   0  0  0  0  0  0  0  0  0  0  0  0
    2.0000    2.7549    0.0000 C   0  0  0  0  0  0  0  0  0  0  0  0
   11.7077   -2.9217    0.0000 C   0  0  0  0  0  0  0  0  0  0  0  0
   13.6656   -2.5135    0.0000 C   0  0  0  0  0  0  0  0  0  0  0  0
   13.3098   -0.7734    0.0000 C   0  0  0  0  0  0  0  0  0  0  0  0
   12.3740   -3.6674    0.0000 C   0  0  0  0  0  0  0  0  0  0  0  0
   14.6885   -2.3166    0.0000 C   0  0  0  0  0  0  0  0  0  0  0  0
   14.3278   -0.5529    0.0000 C   0  0  0  0  0  0  0  0  0  0  0  0
   15.0218   -1.3297    0.0000 C   0  0  0  0  0  0  0  0  0  0  0  0
    9.1627   -0.3914    0.0000 H   0  0  0  0  0  0  0  0  0  0  0  0
    9.3254   -1.1717    0.0000 H   0  0  0  0  0  0  0  0  0  0  0  0
   11.5276    0.7959    0.0000 H   0  0  0  0  0  0  0  0  0  0  0  0
   10.7705    1.0452    0.0000 H   0  0  0  0  0  0  0  0  0  0  0  0
    9.8482   -1.7568    0.0000 H   0  0  0  0  0  0  0  0  0  0  0  0
   10.6053   -2.0060    0.0000 H   0  0  0  0  0  0  0  0  0  0  0  0
   12.2131   -0.5695    0.0000 H   0  0  0  0  0  0  0  0  0  0  0  0
   12.0504    0.2108    0.0000 H   0  0  0  0  0  0  0  0  0  0  0  0
    9.8824    1.3375    0.0000 H   0  0  0  0  0  0  0  0  0  0  0  0
    9.1253    1.5868    0.0000 H   0  0  0  0  0  0  0  0  0  0  0  0
    7.8494    0.4803    0.0000 H   0  0  0  0  0  0  0  0  0  0  0  0
    8.6065    0.2311    0.0000 H   0  0  0  0  0  0  0  0  0  0  0  0
    4.0934    0.7667    0.0000 H   0  0  0  0  0  0  0  0  0  0  0  0
    4.8497    1.0221    0.0000 H   0  0  0  0  0  0  0  0  0  0  0  0
    2.6855    1.4647    0.0000 H   0  0  0  0  0  0  0  0  0  0  0  0
    3.2808    0.9329    0.0000 H   0  0  0  0  0  0  0  0  0  0  0  0
    3.9199    3.8837    0.0000 H   0  0  0  0  0  0  0  0  0  0  0  0
    3.1579    3.6458    0.0000 H   0  0  0  0  0  0  0  0  0  0  0  0
    8.6380    2.6745    0.0000 H   0  0  0  0  0  0  0  0  0  0  0  0
    2.1312    3.3609    0.0000 H   0  0  0  0  0  0  0  0  0  0  0  0
    1.3940    2.8862    0.0000 H   0  0  0  0  0  0  0  0  0  0  0  0
    1.8688    2.1490    0.0000 H   0  0  0  0  0  0  0  0  0  0  0  0
   11.1008   -3.0483    0.0000 H   0  0  0  0  0  0  0  0  0  0  0  0
   12.8914   -0.3159    0.0000 H   0  0  0  0  0  0  0  0  0  0  0  0
   12.1801   -4.2564    0.0000 H   0  0  0  0  0  0  0  0  0  0  0  0
   15.0962   -2.7836    0.0000 H   0  0  0  0  0  0  0  0  0  0  0  0
   14.5194    0.0367    0.0000 H   0  0  0  0  0  0  0  0  0  0  0  0
   15.6292   -1.2055    0.0000 H   0  0  0  0  0  0  0  0  0  0  0  0
  1 17  1  0  0  0  0
  1 23  1  0  0  0  0
  2 22  2  0  0  0  0
  3  9  1  0  0  0  0
  3 10  1  0  0  0  0
  3 13  1  0  0  0  0
  4 11  1  0  0  0  0
  4 12  1  0  0  0  0
  4 21  1  0  0  0  0
  5 14  1  0  0  0  0
  5 22  1  0  0  0  0
  5 25  1  0  0  0  0
  6 19  1  0  0  0  0
  6 20  1  0  0  0  0
  6 26  1  0  0  0  0
  7 23  1  0  0  0  0
  7 25  2  0  0  0  0
  8 28  1  0  0  0  0
  8 30  2  0  0  0  0
  9 11  1  0  0  0  0
  9 34  1  0  0  0  0
  9 35  1  0  0  0  0
 10 12  1  0  0  0  0
 10 36  1  0  0  0  0
 10 37  1  0  0  0  0
 11 38  1  0  0  0  0
 11 39  1  0  0  0  0
 12 40  1  0  0  0  0
 12 41  1  0  0  0  0
 13 14  1  0  0  0  0
 13 42  1  0  0  0  0
 13 43  1  0  0  0  0
 14 44  1  0  0  0  0
 14 45  1  0  0  0  0
 15 16  1  0  0  0  0
 15 17  2  0  0  0  0
 15 18  1  0  0  0  0
 16 19  1  0  0  0  0
 16 46  1  0  0  0  0
 16 47  1  0  0  0  0
 17 20  1  0  0  0  0
 18 22  1  0  0  0  0
 18 23  2  0  0  0  0
 19 48  1  0  0  0  0
 19 49  1  0  0  0  0
 20 50  1  0  0  0  0
 20 51  1  0  0  0  0
 21 24  1  0  0  0  0
 21 27  2  0  0  0  0
 24 28  1  0  0  0  0
 24 29  2  0  0  0  0
 25 52  1  0  0  0  0
 26 53  1  0  0  0  0
 26 54  1  0  0  0  0
 26 55  1  0  0  0  0
 27 30  1  0  0  0  0
 27 56  1  0  0  0  0
 28 31  2  0  0  0  0
 29 32  1  0  0  0  0
 29 57  1  0  0  0  0
 30 58  1  0  0  0  0
 31 33  1  0  0  0  0
 31 59  1  0  0  0  0
 32 33  2  0  0  0  0
 32 60  1  0  0  0  0
 33 61  1  0  0  0  0
M  END
> <PUBCHEM_COMPOUND_CID>
11662592

> <PUBCHEM_COMPOUND_CANONICALIZED>
1

> <PUBCHEM_CACTVS_COMPLEXITY>
742

> <PUBCHEM_CACTVS_HBOND_ACCEPTOR>
7

> <PUBCHEM_CACTVS_HBOND_DONOR>
0

> <PUBCHEM_CACTVS_ROTATABLE_BOND>
4

> <PUBCHEM_CACTVS_SUBSKEYS>
AAADceB7oABAAAAAAAAAAAAAAAAAASAAAAA8WLECAAAAAFix/AAAHgQAAAAADAjB3gQ/wfMIEAisAzV3dACDgKF1CjAJ2DE4ZNgIYPrg3dGUJYhghgDoyUcYgYAOgAAAAAACAAAAAAAAAAQAAAAAAAAAAA==

> <PUBCHEM_IUPAC_OPENEYE_NAME>
11-methyl-4-[2-[4-(4-quinolyl)piperazin-1-yl]ethyl]-8-thia-4,6,11-triazatricyclo[7.4.0.02,7]trideca-1(9),2(7),5-trien-3-one

> <PUBCHEM_IUPAC_CAS_NAME>
11-methyl-4-[2-[4-(4-quinolinyl)-1-piperazinyl]ethyl]-8-thia-4,6,11-triazatricyclo[7.4.0.02,7]trideca-1(9),2(7),5-trien-3-one

> <PUBCHEM_IUPAC_NAME_MARKUP>
11-methyl-4-[2-(4-quinolin-4-ylpiperazin-1-yl)ethyl]-8-thia-4,6,11-triazatricyclo[7.4.0.0<SUP>2,7</SUP>]trideca-1(9),2(7),5-trien-3-one

> <PUBCHEM_IUPAC_NAME>
11-methyl-4-[2-(4-quinolin-4-ylpiperazin-1-yl)ethyl]-8-thia-4,6,11-triazatricyclo[7.4.0.02,7]trideca-1(9),2(7),5-trien-3-one

> <PUBCHEM_IUPAC_SYSTEMATIC_NAME>
11-methyl-4-[2-(4-quinolin-4-ylpiperazin-1-yl)ethyl]-8-thia-4,6,11-triazatricyclo[7.4.0.02,7]trideca-1(9),2(7),5-trien-3-one

> <PUBCHEM_IUPAC_TRADITIONAL_NAME>
11-methyl-4-[2-[4-(4-quinolyl)piperazino]ethyl]-8-thia-4,6,11-triazatricyclo[7.4.0.02,7]trideca-1(9),2(7),5-trien-3-one

> <PUBCHEM_IUPAC_INCHI>
InChI=1S/C25H28N6OS/c1-28-9-7-19-22(16-28)33-24-23(19)25(32)31(17-27-24)15-12-29-10-13-30(14-11-29)21-6-8-26-20-5-3-2-4-18(20)21/h2-6,8,17H,7,9-16H2,1H3

> <PUBCHEM_IUPAC_INCHIKEY>
IXHFUNSVBJAYHP-UHFFFAOYSA-N

> <PUBCHEM_XLOGP3_AA>
2.7

> <PUBCHEM_EXACT_MASS>
460.20453071

> <PUBCHEM_MOLECULAR_FORMULA>
C25H28N6OS

> <PUBCHEM_MOLECULAR_WEIGHT>
460.6

> <PUBCHEM_OPENEYE_CAN_SMILES>
CN1CCC2=C(C1)SC3=C2C(=O)N(C=N3)CCN4CCN(CC4)C5=CC=NC6=CC=CC=C65

> <PUBCHEM_OPENEYE_ISO_SMILES>
CN1CCC2=C(C1)SC3=C2C(=O)N(C=N3)CCN4CCN(CC4)C5=CC=NC6=CC=CC=C65

> <PUBCHEM_CACTVS_TPSA>
83.5

> <PUBCHEM_MONOISOTOPIC_WEIGHT>
460.20453071

> <PUBCHEM_TOTAL_CHARGE>
0

> <PUBCHEM_HEAVY_ATOM_COUNT>
33

> <PUBCHEM_ATOM_DEF_STEREO_COUNT>
0

> <PUBCHEM_ATOM_UDEF_STEREO_COUNT>
0

> <PUBCHEM_BOND_DEF_STEREO_COUNT>
0

> <PUBCHEM_BOND_UDEF_STEREO_COUNT>
0

> <PUBCHEM_ISOTOPIC_ATOM_COUNT>
0

> <PUBCHEM_COMPONENT_COUNT>
1

> <PUBCHEM_CACTVS_TAUTO_COUNT>
-1

> <PUBCHEM_COORDINATE_TYPE>
1
5
255

> <PUBCHEM_BONDANNOTATIONS>
1  17  8
1  23  8
15  17  8
15  18  8
18  22  8
18  23  8
21  24  8
21  27  8
24  28  8
24  29  8
27  30  8
28  31  8
29  32  8
31  33  8
32  33  8
5  22  8
5  25  8
7  23  8
7  25  8
8  28  8
8  30  8

$$$$
