4302960
  -OEChem-09292322202D

 71 74  0     0  0  0  0  0  0999 V2000
    2.8660   -6.5000    0.0000 O   0  0  0  0  0  0  0  0  0  0  0  0
    8.0622    0.5000    0.0000 O   0  0  0  0  0  0  0  0  0  0  0  0
    6.3301    8.5000    0.0000 O   0  0  0  0  0  0  0  0  0  0  0  0
    4.5981   -3.5000    0.0000 N   0  0  0  0  0  0  0  0  0  0  0  0
    4.5981   -5.5000    0.0000 N   0  0  0  0  0  0  0  0  0  0  0  0
    6.3301    0.5000    0.0000 N   0  0  0  0  0  0  0  0  0  0  0  0
    5.4641   -4.0000    0.0000 C   0  0  0  0  0  0  0  0  0  0  0  0
    3.7320   -4.0000    0.0000 C   0  0  0  0  0  0  0  0  0  0  0  0
    5.4641   -5.0000    0.0000 C   0  0  0  0  0  0  0  0  0  0  0  0
    3.7320   -5.0000    0.0000 C   0  0  0  0  0  0  0  0  0  0  0  0
    4.5981   -2.5000    0.0000 C   0  0  0  0  0  0  0  0  0  0  0  0
    5.4641   -2.0000    0.0000 C   0  0  0  0  0  0  0  0  0  0  0  0
    4.5981   -6.5000    0.0000 C   0  0  0  0  0  0  0  0  0  0  0  0
    5.4641   -1.0000    0.0000 C   0  0  0  0  0  0  0  0  0  0  0  0
    6.3301   -0.5000    0.0000 C   0  0  0  0  0  0  0  0  0  0  0  0
    3.7320   -7.0000    0.0000 C   0  0  0  0  0  0  0  0  0  0  0  0
    5.4641   -7.0000    0.0000 C   0  0  0  0  0  0  0  0  0  0  0  0
    3.7320   -8.0000    0.0000 C   0  0  0  0  0  0  0  0  0  0  0  0
    5.4641   -8.0000    0.0000 C   0  0  0  0  0  0  0  0  0  0  0  0
    4.5981   -8.5000    0.0000 C   0  0  0  0  0  0  0  0  0  0  0  0
    7.1962    1.0000    0.0000 C   0  0  0  0  0  0  0  0  0  0  0  0
    2.0000   -7.0000    0.0000 C   0  0  0  0  0  0  0  0  0  0  0  0
    7.1962    2.0000    0.0000 C   0  0  0  0  0  0  0  0  0  0  0  0
    8.0622    2.5000    0.0000 C   0  0  0  0  0  0  0  0  0  0  0  0
    6.3301    2.5000    0.0000 C   0  0  0  0  0  0  0  0  0  0  0  0
    7.1962    4.0000    0.0000 C   0  0  0  0  0  0  0  0  0  0  0  0
    8.0622    3.5000    0.0000 C   0  0  0  0  0  0  0  0  0  0  0  0
    6.3301    3.5000    0.0000 C   0  0  0  0  0  0  0  0  0  0  0  0
    7.1962    5.0000    0.0000 C   0  0  0  0  0  0  0  0  0  0  0  0
    8.0622    5.5000    0.0000 C   0  0  0  0  0  0  0  0  0  0  0  0
    6.3301    5.5000    0.0000 C   0  0  0  0  0  0  0  0  0  0  0  0
    7.1962    7.0000    0.0000 C   0  0  0  0  0  0  0  0  0  0  0  0
    8.0622    6.5000    0.0000 C   0  0  0  0  0  0  0  0  0  0  0  0
    6.3301    6.5000    0.0000 C   0  0  0  0  0  0  0  0  0  0  0  0
    7.1962    8.0000    0.0000 C   0  0  0  0  0  0  0  0  0  0  0  0
    8.0622    8.5000    0.0000 C   0  0  0  0  0  0  0  0  0  0  0  0
    6.0747   -4.1077    0.0000 H   0  0  0  0  0  0  0  0  0  0  0  0
    5.6762   -3.4174    0.0000 H   0  0  0  0  0  0  0  0  0  0  0  0
    3.5200   -3.4174    0.0000 H   0  0  0  0  0  0  0  0  0  0  0  0
    3.1215   -4.1077    0.0000 H   0  0  0  0  0  0  0  0  0  0  0  0
    5.6762   -5.5826    0.0000 H   0  0  0  0  0  0  0  0  0  0  0  0
    6.0747   -4.8923    0.0000 H   0  0  0  0  0  0  0  0  0  0  0  0
    3.1215   -4.8923    0.0000 H   0  0  0  0  0  0  0  0  0  0  0  0
    3.5200   -5.5826    0.0000 H   0  0  0  0  0  0  0  0  0  0  0  0
    4.3860   -1.9174    0.0000 H   0  0  0  0  0  0  0  0  0  0  0  0
    3.9875   -2.6077    0.0000 H   0  0  0  0  0  0  0  0  0  0  0  0
    5.6762   -2.5826    0.0000 H   0  0  0  0  0  0  0  0  0  0  0  0
    6.0747   -1.8923    0.0000 H   0  0  0  0  0  0  0  0  0  0  0  0
    5.2520   -0.4174    0.0000 H   0  0  0  0  0  0  0  0  0  0  0  0
    4.8535   -1.1077    0.0000 H   0  0  0  0  0  0  0  0  0  0  0  0
    6.5422   -1.0826    0.0000 H   0  0  0  0  0  0  0  0  0  0  0  0
    6.9407   -0.3923    0.0000 H   0  0  0  0  0  0  0  0  0  0  0  0
    6.0010   -6.6900    0.0000 H   0  0  0  0  0  0  0  0  0  0  0  0
    3.1951   -8.3100    0.0000 H   0  0  0  0  0  0  0  0  0  0  0  0
    6.0010   -8.3100    0.0000 H   0  0  0  0  0  0  0  0  0  0  0  0
    5.7932    0.8100    0.0000 H   0  0  0  0  0  0  0  0  0  0  0  0
    4.5981   -9.1200    0.0000 H   0  0  0  0  0  0  0  0  0  0  0  0
    1.6900   -6.4631    0.0000 H   0  0  0  0  0  0  0  0  0  0  0  0
    1.4631   -7.3100    0.0000 H   0  0  0  0  0  0  0  0  0  0  0  0
    2.3100   -7.5369    0.0000 H   0  0  0  0  0  0  0  0  0  0  0  0
    8.5991    2.1900    0.0000 H   0  0  0  0  0  0  0  0  0  0  0  0
    5.7932    2.1900    0.0000 H   0  0  0  0  0  0  0  0  0  0  0  0
    8.5991    3.8100    0.0000 H   0  0  0  0  0  0  0  0  0  0  0  0
    5.7932    3.8100    0.0000 H   0  0  0  0  0  0  0  0  0  0  0  0
    8.5991    5.1900    0.0000 H   0  0  0  0  0  0  0  0  0  0  0  0
    5.7932    5.1900    0.0000 H   0  0  0  0  0  0  0  0  0  0  0  0
    8.5991    6.8100    0.0000 H   0  0  0  0  0  0  0  0  0  0  0  0
    5.7932    6.8100    0.0000 H   0  0  0  0  0  0  0  0  0  0  0  0
    8.3722    7.9631    0.0000 H   0  0  0  0  0  0  0  0  0  0  0  0
    8.5991    8.8100    0.0000 H   0  0  0  0  0  0  0  0  0  0  0  0
    7.7522    9.0369    0.0000 H   0  0  0  0  0  0  0  0  0  0  0  0
  1 16  1  0  0  0  0
  1 22  1  0  0  0  0
  2 21  2  0  0  0  0
  3 35  2  0  0  0  0
  4  7  1  0  0  0  0
  4  8  1  0  0  0  0
  4 11  1  0  0  0  0
  5  9  1  0  0  0  0
  5 10  1  0  0  0  0
  5 13  1  0  0  0  0
  6 15  1  0  0  0  0
  6 21  1  0  0  0  0
  6 56  1  0  0  0  0
  7  9  1  0  0  0  0
  7 37  1  0  0  0  0
  7 38  1  0  0  0  0
  8 10  1  0  0  0  0
  8 39  1  0  0  0  0
  8 40  1  0  0  0  0
  9 41  1  0  0  0  0
  9 42  1  0  0  0  0
 10 43  1  0  0  0  0
 10 44  1  0  0  0  0
 11 12  1  0  0  0  0
 11 45  1  0  0  0  0
 11 46  1  0  0  0  0
 12 14  1  0  0  0  0
 12 47  1  0  0  0  0
 12 48  1  0  0  0  0
 13 16  1  0  0  0  0
 13 17  2  0  0  0  0
 14 15  1  0  0  0  0
 14 49  1  0  0  0  0
 14 50  1  0  0  0  0
 15 51  1  0  0  0  0
 15 52  1  0  0  0  0
 16 18  2  0  0  0  0
 17 19  1  0  0  0  0
 17 53  1  0  0  0  0
 18 20  1  0  0  0  0
 18 54  1  0  0  0  0
 19 20  2  0  0  0  0
 19 55  1  0  0  0  0
 20 57  1  0  0  0  0
 21 23  1  0  0  0  0
 22 58  1  0  0  0  0
 22 59  1  0  0  0  0
 22 60  1  0  0  0  0
 23 24  2  0  0  0  0
 23 25  1  0  0  0  0
 24 27  1  0  0  0  0
 24 61  1  0  0  0  0
 25 28  2  0  0  0  0
 25 62  1  0  0  0  0
 26 27  2  0  0  0  0
 26 28  1  0  0  0  0
 26 29  1  0  0  0  0
 27 63  1  0  0  0  0
 28 64  1  0  0  0  0
 29 30  2  0  0  0  0
 29 31  1  0  0  0  0
 30 33  1  0  0  0  0
 30 65  1  0  0  0  0
 31 34  2  0  0  0  0
 31 66  1  0  0  0  0
 32 33  2  0  0  0  0
 32 34  1  0  0  0  0
 32 35  1  0  0  0  0
 33 67  1  0  0  0  0
 34 68  1  0  0  0  0
 35 36  1  0  0  0  0
 36 69  1  0  0  0  0
 36 70  1  0  0  0  0
 36 71  1  0  0  0  0
M  END
> <PUBCHEM_COMPOUND_CID>
4302960

> <PUBCHEM_COMPOUND_CANONICALIZED>
1

> <PUBCHEM_CACTVS_COMPLEXITY>
677

> <PUBCHEM_CACTVS_HBOND_ACCEPTOR>
5

> <PUBCHEM_CACTVS_HBOND_DONOR>
1

> <PUBCHEM_CACTVS_ROTATABLE_BOND>
10

> <PUBCHEM_CACTVS_SUBSKEYS>
AAADcfB7MAAAAAAAAAAAAAAAAAAAAAAAAAA8YMEAAAAAAAABUAAAHgAQAAAADAzBmAYyxoPABACIAqVSUACCCAAlIgAIiIEPbMgOZjLEtZuVMShk1hHY6YeYyMCOwAAAAAAAEACAAAAAAAAgAAAAAAAAAA==

> <PUBCHEM_IUPAC_OPENEYE_NAME>
4-(4-acetylphenyl)-N-[4-[4-(2-methoxyphenyl)piperazin-1-yl]butyl]benzamide

> <PUBCHEM_IUPAC_CAS_NAME>
4-(4-acetylphenyl)-N-[4-[4-(2-methoxyphenyl)-1-piperazinyl]butyl]benzamide

> <PUBCHEM_IUPAC_NAME_MARKUP>
4-(4-acetylphenyl)-<I>N</I>-[4-[4-(2-methoxyphenyl)piperazin-1-yl]butyl]benzamide

> <PUBCHEM_IUPAC_NAME>
4-(4-acetylphenyl)-N-[4-[4-(2-methoxyphenyl)piperazin-1-yl]butyl]benzamide

> <PUBCHEM_IUPAC_SYSTEMATIC_NAME>
4-(4-ethanoylphenyl)-N-[4-[4-(2-methoxyphenyl)piperazin-1-yl]butyl]benzamide

> <PUBCHEM_IUPAC_TRADITIONAL_NAME>
4-(4-acetylphenyl)-N-[4-[4-(2-methoxyphenyl)piperazino]butyl]benzamide

> <PUBCHEM_IUPAC_INCHI>
InChI=1S/C30H35N3O3/c1-23(34)24-9-11-25(12-10-24)26-13-15-27(16-14-26)30(35)31-17-5-6-18-32-19-21-33(22-20-32)28-7-3-4-8-29(28)36-2/h3-4,7-16H,5-6,17-22H2,1-2H3,(H,31,35)

> <PUBCHEM_IUPAC_INCHIKEY>
JARNORYOPMINDY-UHFFFAOYSA-N

> <PUBCHEM_XLOGP3_AA>
4.8

> <PUBCHEM_EXACT_MASS>
485.26784199

> <PUBCHEM_MOLECULAR_FORMULA>
C30H35N3O3

> <PUBCHEM_MOLECULAR_WEIGHT>
485.6

> <PUBCHEM_OPENEYE_CAN_SMILES>
CC(=O)C1=CC=C(C=C1)C2=CC=C(C=C2)C(=O)NCCCCN3CCN(CC3)C4=CC=CC=C4OC

> <PUBCHEM_OPENEYE_ISO_SMILES>
CC(=O)C1=CC=C(C=C1)C2=CC=C(C=C2)C(=O)NCCCCN3CCN(CC3)C4=CC=CC=C4OC

> <PUBCHEM_CACTVS_TPSA>
61.9

> <PUBCHEM_MONOISOTOPIC_WEIGHT>
485.26784199

> <PUBCHEM_TOTAL_CHARGE>
0

> <PUBCHEM_HEAVY_ATOM_COUNT>
36

> <PUBCHEM_ATOM_DEF_STEREO_COUNT>
0

> <PUBCHEM_ATOM_UDEF_STEREO_COUNT>
0

> <PUBCHEM_BOND_DEF_STEREO_COUNT>
0

> <PUBCHEM_BOND_UDEF_STEREO_COUNT>
0

> <PUBCHEM_ISOTOPIC_ATOM_COUNT>
0

> <PUBCHEM_COMPONENT_COUNT>
1

> <PUBCHEM_CACTVS_TAUTO_COUNT>
-1

> <PUBCHEM_COORDINATE_TYPE>
1
5
255

> <PUBCHEM_BONDANNOTATIONS>
13  16  8
13  17  8
16  18  8
17  19  8
18  20  8
19  20  8
23  24  8
23  25  8
24  27  8
25  28  8
26  27  8
26  28  8
29  30  8
29  31  8
30  33  8
31  34  8
32  33  8
32  34  8

$$$$
