46880630
  -OEChem-09292322482D

 60 64  0     1  0  0  0  0  0999 V2000
    2.0000    0.7500    0.0000 F   0  0  0  0  0  0  0  0  0  0  0  0
    3.0000    1.7500    0.0000 F   0  0  0  0  0  0  0  0  0  0  0  0
    4.0000    0.7500    0.0000 F   0  0  0  0  0  0  0  0  0  0  0  0
   10.7942   -1.7500    0.0000 O   0  0  0  0  0  0  0  0  0  0  0  0
    7.3301    2.2500    0.0000 O   0  0  0  0  0  0  0  0  0  0  0  0
    9.9282   -0.2500    0.0000 N   0  0  0  0  0  0  0  0  0  0  0  0
    8.1962    0.7500    0.0000 N   0  0  0  0  0  0  0  0  0  0  0  0
   14.3385   -0.5547    0.0000 N   0  0  0  0  0  0  0  0  0  0  0  0
    9.0622   -0.7500    0.0000 C   0  0  2  0  0  0  0  0  0  0  0  0
    8.1962   -0.2500    0.0000 C   0  0  0  0  0  0  0  0  0  0  0  0
    9.9282    0.7500    0.0000 C   0  0  0  0  0  0  0  0  0  0  0  0
    9.0622    1.2500    0.0000 C   0  0  0  0  0  0  0  0  0  0  0  0
    9.0622   -1.7500    0.0000 C   0  0  0  0  0  0  0  0  0  0  0  0
   10.7942   -0.7500    0.0000 C   0  0  0  0  0  0  0  0  0  0  0  0
    7.3301    1.2500    0.0000 C   0  0  0  0  0  0  0  0  0  0  0  0
   11.6603   -0.2500    0.0000 C   0  0  0  0  0  0  0  0  0  0  0  0
    6.4641    0.7500    0.0000 C   0  0  0  0  0  0  0  0  0  0  0  0
   12.5263   -0.7500    0.0000 C   0  0  0  0  0  0  0  0  0  0  0  0
   11.6603    0.7500    0.0000 C   0  0  0  0  0  0  0  0  0  0  0  0
   13.3923   -0.2500    0.0000 C   0  0  0  0  0  0  0  0  0  0  0  0
    5.5981    1.2500    0.0000 C   0  0  0  0  0  0  0  0  0  0  0  0
    6.4641   -0.2500    0.0000 C   0  0  0  0  0  0  0  0  0  0  0  0
   13.3923    0.7500    0.0000 C   0  0  0  0  0  0  0  0  0  0  0  0
   12.5263    1.2500    0.0000 C   0  0  0  0  0  0  0  0  0  0  0  0
    4.7320   -0.2500    0.0000 C   0  0  0  0  0  0  0  0  0  0  0  0
    4.7320    0.7500    0.0000 C   0  0  0  0  0  0  0  0  0  0  0  0
    5.5981   -0.7500    0.0000 C   0  0  0  0  0  0  0  0  0  0  0  0
   14.3385    1.0547    0.0000 C   0  0  0  0  0  0  0  0  0  0  0  0
    3.8660   -0.7500    0.0000 C   0  0  0  0  0  0  0  0  0  0  0  0
   14.9221    0.2500    0.0000 C   0  0  0  0  0  0  0  0  0  0  0  0
    3.0000   -0.2500    0.0000 C   0  0  0  0  0  0  0  0  0  0  0  0
    3.8660   -1.7500    0.0000 C   0  0  0  0  0  0  0  0  0  0  0  0
    2.1340   -0.7500    0.0000 C   0  0  0  0  0  0  0  0  0  0  0  0
    3.0000    0.7500    0.0000 C   0  0  0  0  0  0  0  0  0  0  0  0
    3.0000   -2.2500    0.0000 C   0  0  0  0  0  0  0  0  0  0  0  0
    2.1340   -1.7500    0.0000 C   0  0  0  0  0  0  0  0  0  0  0  0
    9.5991   -1.0600    0.0000 H   0  0  0  0  0  0  0  0  0  0  0  0
    7.5856   -0.1423    0.0000 H   0  0  0  0  0  0  0  0  0  0  0  0
    7.9841   -0.8326    0.0000 H   0  0  0  0  0  0  0  0  0  0  0  0
   10.5388    0.6423    0.0000 H   0  0  0  0  0  0  0  0  0  0  0  0
   10.1403    1.3326    0.0000 H   0  0  0  0  0  0  0  0  0  0  0  0
    9.4607    1.7250    0.0000 H   0  0  0  0  0  0  0  0  0  0  0  0
    8.6636    1.7250    0.0000 H   0  0  0  0  0  0  0  0  0  0  0  0
    8.4422   -1.7500    0.0000 H   0  0  0  0  0  0  0  0  0  0  0  0
    9.0622   -2.3700    0.0000 H   0  0  0  0  0  0  0  0  0  0  0  0
    9.6822   -1.7500    0.0000 H   0  0  0  0  0  0  0  0  0  0  0  0
   12.5263   -1.3700    0.0000 H   0  0  0  0  0  0  0  0  0  0  0  0
   11.1233    1.0600    0.0000 H   0  0  0  0  0  0  0  0  0  0  0  0
    5.5981    1.8700    0.0000 H   0  0  0  0  0  0  0  0  0  0  0  0
    7.0010   -0.5600    0.0000 H   0  0  0  0  0  0  0  0  0  0  0  0
   12.5263    1.8700    0.0000 H   0  0  0  0  0  0  0  0  0  0  0  0
    4.1951    1.0600    0.0000 H   0  0  0  0  0  0  0  0  0  0  0  0
    5.5981   -1.3700    0.0000 H   0  0  0  0  0  0  0  0  0  0  0  0
   14.5311   -1.1440    0.0000 H   0  0  0  0  0  0  0  0  0  0  0  0
   14.5311    1.6440    0.0000 H   0  0  0  0  0  0  0  0  0  0  0  0
   15.5421    0.2500    0.0000 H   0  0  0  0  0  0  0  0  0  0  0  0
    4.4030   -2.0600    0.0000 H   0  0  0  0  0  0  0  0  0  0  0  0
    1.5970   -0.4400    0.0000 H   0  0  0  0  0  0  0  0  0  0  0  0
    3.0000   -2.8700    0.0000 H   0  0  0  0  0  0  0  0  0  0  0  0
    1.5970   -2.0600    0.0000 H   0  0  0  0  0  0  0  0  0  0  0  0
  1 34  1  0  0  0  0
  2 34  1  0  0  0  0
  3 34  1  0  0  0  0
  4 14  2  0  0  0  0
  5 15  2  0  0  0  0
  6  9  1  0  0  0  0
  6 11  1  0  0  0  0
  6 14  1  0  0  0  0
  7 10  1  0  0  0  0
  7 12  1  0  0  0  0
  7 15  1  0  0  0  0
  8 20  1  0  0  0  0
  8 30  1  0  0  0  0
  8 54  1  0  0  0  0
  9 10  1  0  0  0  0
  9 13  1  1  0  0  0
  9 37  1  0  0  0  0
 10 38  1  0  0  0  0
 10 39  1  0  0  0  0
 11 12  1  0  0  0  0
 11 40  1  0  0  0  0
 11 41  1  0  0  0  0
 12 42  1  0  0  0  0
 12 43  1  0  0  0  0
 13 44  1  0  0  0  0
 13 45  1  0  0  0  0
 13 46  1  0  0  0  0
 14 16  1  0  0  0  0
 15 17  1  0  0  0  0
 16 18  2  0  0  0  0
 16 19  1  0  0  0  0
 17 21  2  0  0  0  0
 17 22  1  0  0  0  0
 18 20  1  0  0  0  0
 18 47  1  0  0  0  0
 19 24  2  0  0  0  0
 19 48  1  0  0  0  0
 20 23  2  0  0  0  0
 21 26  1  0  0  0  0
 21 49  1  0  0  0  0
 22 27  2  0  0  0  0
 22 50  1  0  0  0  0
 23 24  1  0  0  0  0
 23 28  1  0  0  0  0
 24 51  1  0  0  0  0
 25 26  2  0  0  0  0
 25 27  1  0  0  0  0
 25 29  1  0  0  0  0
 26 52  1  0  0  0  0
 27 53  1  0  0  0  0
 28 30  2  0  0  0  0
 28 55  1  0  0  0  0
 29 31  1  0  0  0  0
 29 32  2  0  0  0  0
 30 56  1  0  0  0  0
 31 33  2  0  0  0  0
 31 34  1  0  0  0  0
 32 35  1  0  0  0  0
 32 57  1  0  0  0  0
 33 36  1  0  0  0  0
 33 58  1  0  0  0  0
 35 36  2  0  0  0  0
 35 59  1  0  0  0  0
 36 60  1  0  0  0  0
M  END
> <PUBCHEM_COMPOUND_CID>
46880630

> <PUBCHEM_COMPOUND_CANONICALIZED>
1

> <PUBCHEM_CACTVS_COMPLEXITY>
797

> <PUBCHEM_CACTVS_HBOND_ACCEPTOR>
5

> <PUBCHEM_CACTVS_HBOND_DONOR>
1

> <PUBCHEM_CACTVS_ROTATABLE_BOND>
3

> <PUBCHEM_CACTVS_SUBSKEYS>
AAADceB7MYAAAAAAAAAAAAAAAAAAAWAAAAA8YMEAAAAAAFgB9AAAHwAQAAAADCjBnhQ+wPPJkACoAzV3VACCgCA1AiAI2aE4ZNgIYPLAlZGUIQhglgDIyYcciMCOwAAAQAASAACAAACAACQAAAAAAAAAAA==

> <PUBCHEM_IUPAC_OPENEYE_NAME>
[(3S)-4-(1H-indole-6-carbonyl)-3-methyl-piperazin-1-yl]-[4-[2-(trifluoromethyl)phenyl]phenyl]methanone

> <PUBCHEM_IUPAC_CAS_NAME>
[(3S)-4-[1H-indol-6-yl(oxo)methyl]-3-methyl-1-piperazinyl]-[4-[2-(trifluoromethyl)phenyl]phenyl]methanone

> <PUBCHEM_IUPAC_NAME_MARKUP>
[(3<I>S</I>)-4-(1<I>H</I>-indole-6-carbonyl)-3-methylpiperazin-1-yl]-[4-[2-(trifluoromethyl)phenyl]phenyl]methanone

> <PUBCHEM_IUPAC_NAME>
[(3S)-4-(1H-indole-6-carbonyl)-3-methylpiperazin-1-yl]-[4-[2-(trifluoromethyl)phenyl]phenyl]methanone

> <PUBCHEM_IUPAC_SYSTEMATIC_NAME>
[(3S)-4-(1H-indol-6-ylcarbonyl)-3-methyl-piperazin-1-yl]-[4-[2-(trifluoromethyl)phenyl]phenyl]methanone

> <PUBCHEM_IUPAC_TRADITIONAL_NAME>
[(3S)-4-(1H-indole-6-carbonyl)-3-methyl-piperazino]-[4-[2-(trifluoromethyl)phenyl]phenyl]methanone

> <PUBCHEM_IUPAC_INCHI>
InChI=1S/C28H24F3N3O2/c1-18-17-33(14-15-34(18)27(36)22-11-8-20-12-13-32-25(20)16-22)26(35)21-9-6-19(7-10-21)23-4-2-3-5-24(23)28(29,30)31/h2-13,16,18,32H,14-15,17H2,1H3/t18-/m0/s1

> <PUBCHEM_IUPAC_INCHIKEY>
CZUGKEKGXKWONC-SFHVURJKSA-N

> <PUBCHEM_XLOGP3_AA>
5.4

> <PUBCHEM_EXACT_MASS>
491.18206150

> <PUBCHEM_MOLECULAR_FORMULA>
C28H24F3N3O2

> <PUBCHEM_MOLECULAR_WEIGHT>
491.5

> <PUBCHEM_OPENEYE_CAN_SMILES>
CC1CN(CCN1C(=O)C2=CC3=C(C=C2)C=CN3)C(=O)C4=CC=C(C=C4)C5=CC=CC=C5C(F)(F)F

> <PUBCHEM_OPENEYE_ISO_SMILES>
C[C@H]1CN(CCN1C(=O)C2=CC3=C(C=C2)C=CN3)C(=O)C4=CC=C(C=C4)C5=CC=CC=C5C(F)(F)F

> <PUBCHEM_CACTVS_TPSA>
56.4

> <PUBCHEM_MONOISOTOPIC_WEIGHT>
491.18206150

> <PUBCHEM_TOTAL_CHARGE>
0

> <PUBCHEM_HEAVY_ATOM_COUNT>
36

> <PUBCHEM_ATOM_DEF_STEREO_COUNT>
1

> <PUBCHEM_ATOM_UDEF_STEREO_COUNT>
0

> <PUBCHEM_BOND_DEF_STEREO_COUNT>
0

> <PUBCHEM_BOND_UDEF_STEREO_COUNT>
0

> <PUBCHEM_ISOTOPIC_ATOM_COUNT>
0

> <PUBCHEM_COMPONENT_COUNT>
1

> <PUBCHEM_CACTVS_TAUTO_COUNT>
-1

> <PUBCHEM_COORDINATE_TYPE>
1
5
255

> <PUBCHEM_BONDANNOTATIONS>
16  18  8
16  19  8
17  21  8
17  22  8
18  20  8
19  24  8
20  23  8
21  26  8
22  27  8
23  24  8
23  28  8
25  26  8
25  27  8
28  30  8
29  31  8
29  32  8
31  33  8
32  35  8
33  36  8
35  36  8
8  20  8
8  30  8
9  13  5

$$$$
