138670313
  -OEChem-09292322452D

 70 75  0     1  0  0  0  0  0999 V2000
    5.5163    0.4639    0.0000 O   0  0  0  0  0  0  0  0  0  0  0  0
   11.5765    0.9873    0.0000 N   0  0  3  0  0  0  0  0  0  0  0  0
    6.3881   -1.0327    0.0000 N   0  0  0  0  0  0  0  0  0  0  0  0
   14.2425    0.5081    0.0000 N   0  0  0  0  0  0  0  0  0  0  0  0
   15.1085    2.0081    0.0000 N   0  0  0  0  0  0  0  0  0  0  0  0
    2.0120   -0.5428    0.0000 N   0  0  0  0  0  0  0  0  0  0  0  0
    8.9803    0.4773    0.0000 C   0  0  0  0  0  0  0  0  0  0  0  0
   16.8406    1.0081    0.0000 C   0  0  0  0  0  0  0  0  0  0  0  0
   17.8406    1.0081    0.0000 C   0  0  0  0  0  0  0  0  0  0  0  0
   17.3406    1.8741    0.0000 C   0  0  0  0  0  0  0  0  0  0  0  0
    8.9842   -0.5227    0.0000 C   0  0  0  0  0  0  0  0  0  0  0  0
    8.1124    0.9739    0.0000 C   0  0  0  0  0  0  0  0  0  0  0  0
    7.2522   -0.5294    0.0000 C   0  0  0  0  0  0  0  0  0  0  0  0
    8.1201   -1.0261    0.0000 C   0  0  0  0  0  0  0  0  0  0  0  0
    7.2483    0.4706    0.0000 C   0  0  0  0  0  0  0  0  0  0  0  0
    9.8444    0.9806    0.0000 C   0  0  0  0  0  0  0  0  0  0  0  0
   15.9746    0.5081    0.0000 C   0  0  0  0  0  0  0  0  0  0  0  0
   10.7124    0.4839    0.0000 C   0  0  0  0  0  0  0  0  0  0  0  0
   12.4825    0.4734    0.0000 C   0  0  0  0  0  0  0  0  0  0  0  0
   11.5765    2.0289    0.0000 C   0  0  0  0  0  0  0  0  0  0  0  0
   15.1085    1.0081    0.0000 C   0  0  0  0  0  0  0  0  0  0  0  0
   13.3765    1.0081    0.0000 C   0  0  0  0  0  0  0  0  0  0  0  0
   12.4825    2.5428    0.0000 C   0  0  0  0  0  0  0  0  0  0  0  0
   13.3765    2.0081    0.0000 C   0  0  0  0  0  0  0  0  0  0  0  0
   14.2425    2.5081    0.0000 C   0  0  0  0  0  0  0  0  0  0  0  0
    5.5201   -0.5361    0.0000 C   0  0  0  0  0  0  0  0  0  0  0  0
    4.6560   -1.0394    0.0000 C   0  0  0  0  0  0  0  0  0  0  0  0
    3.7881   -0.5428    0.0000 C   0  0  0  0  0  0  0  0  0  0  0  0
    4.6599   -2.0394    0.0000 C   0  0  0  0  0  0  0  0  0  0  0  0
    2.9240   -1.0461    0.0000 C   0  0  0  0  0  0  0  0  0  0  0  0
    3.7958   -2.5428    0.0000 C   0  0  0  0  0  0  0  0  0  0  0  0
    3.8001    0.4988    0.0000 C   0  0  0  0  0  0  0  0  0  0  0  0
    2.9278   -2.0461    0.0000 C   0  0  0  0  0  0  0  0  0  0  0  0
    2.9001    1.0231    0.0000 C   0  0  0  0  0  0  0  0  0  0  0  0
    2.0000    0.4988    0.0000 C   0  0  0  0  0  0  0  0  0  0  0  0
    8.9780    1.0972    0.0000 H   0  0  0  0  0  0  0  0  0  0  0  0
   16.4022    1.4465    0.0000 H   0  0  0  0  0  0  0  0  0  0  0  0
   17.9482    0.3975    0.0000 H   0  0  0  0  0  0  0  0  0  0  0  0
   18.4232    1.2201    0.0000 H   0  0  0  0  0  0  0  0  0  0  0  0
   17.8155    2.2726    0.0000 H   0  0  0  0  0  0  0  0  0  0  0  0
   16.8656    2.2726    0.0000 H   0  0  0  0  0  0  0  0  0  0  0  0
    9.1985   -1.1045    0.0000 H   0  0  0  0  0  0  0  0  0  0  0  0
    9.5944   -0.4127    0.0000 H   0  0  0  0  0  0  0  0  0  0  0  0
    8.5091    1.4504    0.0000 H   0  0  0  0  0  0  0  0  0  0  0  0
    7.7120    1.4473    0.0000 H   0  0  0  0  0  0  0  0  0  0  0  0
    7.2546   -1.1494    0.0000 H   0  0  0  0  0  0  0  0  0  0  0  0
    7.7234   -1.5026    0.0000 H   0  0  0  0  0  0  0  0  0  0  0  0
    8.5205   -1.4995    0.0000 H   0  0  0  0  0  0  0  0  0  0  0  0
    7.0340    1.0524    0.0000 H   0  0  0  0  0  0  0  0  0  0  0  0
    6.6381    0.3606    0.0000 H   0  0  0  0  0  0  0  0  0  0  0  0
   10.2411    1.4571    0.0000 H   0  0  0  0  0  0  0  0  0  0  0  0
    9.4441    1.4540    0.0000 H   0  0  0  0  0  0  0  0  0  0  0  0
   15.5760    0.0331    0.0000 H   0  0  0  0  0  0  0  0  0  0  0  0
   16.3731    0.0331    0.0000 H   0  0  0  0  0  0  0  0  0  0  0  0
   10.3157    0.0075    0.0000 H   0  0  0  0  0  0  0  0  0  0  0  0
   11.1127    0.0105    0.0000 H   0  0  0  0  0  0  0  0  0  0  0  0
   12.0889   -0.0056    0.0000 H   0  0  0  0  0  0  0  0  0  0  0  0
   12.8871    0.0036    0.0000 H   0  0  0  0  0  0  0  0  0  0  0  0
    6.3905   -1.6527    0.0000 H   0  0  0  0  0  0  0  0  0  0  0  0
   11.3674    2.6126    0.0000 H   0  0  0  0  0  0  0  0  0  0  0  0
   10.9656    1.9228    0.0000 H   0  0  0  0  0  0  0  0  0  0  0  0
   12.8871    3.0125    0.0000 H   0  0  0  0  0  0  0  0  0  0  0  0
   12.0889    3.0218    0.0000 H   0  0  0  0  0  0  0  0  0  0  0  0
   14.2425    3.1281    0.0000 H   0  0  0  0  0  0  0  0  0  0  0  0
    5.1980   -2.3473    0.0000 H   0  0  0  0  0  0  0  0  0  0  0  0
    3.7982   -3.1627    0.0000 H   0  0  0  0  0  0  0  0  0  0  0  0
    4.3394    0.8047    0.0000 H   0  0  0  0  0  0  0  0  0  0  0  0
    2.3921   -2.3582    0.0000 H   0  0  0  0  0  0  0  0  0  0  0  0
    2.9001    1.6431    0.0000 H   0  0  0  0  0  0  0  0  0  0  0  0
    1.4607    0.8047    0.0000 H   0  0  0  0  0  0  0  0  0  0  0  0
  1 26  2  0  0  0  0
  2 18  1  0  0  0  0
  2 19  1  0  0  0  0
  2 20  1  0  0  0  0
  3 13  1  0  0  0  0
  3 26  1  0  0  0  0
  3 59  1  0  0  0  0
  4 21  1  0  0  0  0
  4 22  2  0  0  0  0
  5 21  2  0  0  0  0
  5 25  1  0  0  0  0
  6 30  1  0  0  0  0
  6 35  2  0  0  0  0
  7 11  1  0  0  0  0
  7 12  1  0  0  0  0
  7 16  1  0  0  0  0
  7 36  1  0  0  0  0
  8  9  1  0  0  0  0
  8 10  1  0  0  0  0
  8 17  1  0  0  0  0
  8 37  1  0  0  0  0
  9 10  1  0  0  0  0
  9 38  1  0  0  0  0
  9 39  1  0  0  0  0
 10 40  1  0  0  0  0
 10 41  1  0  0  0  0
 11 14  1  0  0  0  0
 11 42  1  0  0  0  0
 11 43  1  0  0  0  0
 12 15  1  0  0  0  0
 12 44  1  0  0  0  0
 12 45  1  0  0  0  0
 13 14  1  0  0  0  0
 13 15  1  0  0  0  0
 13 46  1  0  0  0  0
 14 47  1  0  0  0  0
 14 48  1  0  0  0  0
 15 49  1  0  0  0  0
 15 50  1  0  0  0  0
 16 18  1  0  0  0  0
 16 51  1  0  0  0  0
 16 52  1  0  0  0  0
 17 21  1  0  0  0  0
 17 53  1  0  0  0  0
 17 54  1  0  0  0  0
 18 55  1  0  0  0  0
 18 56  1  0  0  0  0
 19 22  1  0  0  0  0
 19 57  1  0  0  0  0
 19 58  1  0  0  0  0
 20 23  1  0  0  0  0
 20 60  1  0  0  0  0
 20 61  1  0  0  0  0
 22 24  1  0  0  0  0
 23 24  1  0  0  0  0
 23 62  1  0  0  0  0
 23 63  1  0  0  0  0
 24 25  2  0  0  0  0
 25 64  1  0  0  0  0
 26 27  1  0  0  0  0
 27 28  2  0  0  0  0
 27 29  1  0  0  0  0
 28 30  1  0  0  0  0
 28 32  1  0  0  0  0
 29 31  2  0  0  0  0
 29 65  1  0  0  0  0
 30 33  2  0  0  0  0
 31 33  1  0  0  0  0
 31 66  1  0  0  0  0
 32 34  2  0  0  0  0
 32 67  1  0  0  0  0
 33 68  1  0  0  0  0
 34 35  1  0  0  0  0
 34 69  1  0  0  0  0
 35 70  1  0  0  0  0
M  END
> <PUBCHEM_COMPOUND_CID>
138670313

> <PUBCHEM_COMPOUND_CANONICALIZED>
1

> <PUBCHEM_CACTVS_COMPLEXITY>
705

> <PUBCHEM_CACTVS_HBOND_ACCEPTOR>
5

> <PUBCHEM_CACTVS_HBOND_DONOR>
1

> <PUBCHEM_CACTVS_ROTATABLE_BOND>
7

> <PUBCHEM_CACTVS_SUBSKEYS>
AAADcfB7oAAAAAAAAAAAAAAAGAAAAAAAAAA8eLECAAAAAACx/AAAHgAQAAAADSjBnwQ90PfIEACoAzd3dACCgCk1AqAJ2KE4ZNiIaPLA3dGUJQholgLIyacciICOgAAAQAASAAAQAACAACQAAAAAAAAAAA==

> <PUBCHEM_IUPAC_OPENEYE_NAME>
N-[4-[2-[2-(cyclopropylmethyl)-6,8-dihydro-5H-pyrido[3,4-d]pyrimidin-7-yl]ethyl]cyclohexyl]quinoline-5-carboxamide

> <PUBCHEM_IUPAC_CAS_NAME>
N-[4-[2-[2-(cyclopropylmethyl)-6,8-dihydro-5H-pyrido[3,4-d]pyrimidin-7-yl]ethyl]cyclohexyl]-5-quinolinecarboxamide

> <PUBCHEM_IUPAC_NAME_MARKUP>
<I>N</I>-[4-[2-[2-(cyclopropylmethyl)-6,8-dihydro-5<I>H</I>-pyrido[3,4-d]pyrimidin-7-yl]ethyl]cyclohexyl]quinoline-5-carboxamide

> <PUBCHEM_IUPAC_NAME>
N-[4-[2-[2-(cyclopropylmethyl)-6,8-dihydro-5H-pyrido[3,4-d]pyrimidin-7-yl]ethyl]cyclohexyl]quinoline-5-carboxamide

> <PUBCHEM_IUPAC_SYSTEMATIC_NAME>
N-[4-[2-[2-(cyclopropylmethyl)-6,8-dihydro-5H-pyrido[3,4-d]pyrimidin-7-yl]ethyl]cyclohexyl]quinoline-5-carboxamide

> <PUBCHEM_IUPAC_TRADITIONAL_NAME>
N-[4-[2-[2-(cyclopropylmethyl)-6,8-dihydro-5H-pyrido[3,4-d]pyrimidin-7-yl]ethyl]cyclohexyl]quinoline-5-carboxamide

> <PUBCHEM_IUPAC_INCHI>
InChI=1S/C29H35N5O/c35-29(25-3-1-5-26-24(25)4-2-14-30-26)32-23-10-8-20(9-11-23)12-15-34-16-13-22-18-31-28(17-21-6-7-21)33-27(22)19-34/h1-5,14,18,20-21,23H,6-13,15-17,19H2,(H,32,35)

> <PUBCHEM_IUPAC_INCHIKEY>
JDXNRQBNLDPZOL-UHFFFAOYSA-N

> <PUBCHEM_XLOGP3_AA>
4.6

> <PUBCHEM_EXACT_MASS>
469.28416076

> <PUBCHEM_MOLECULAR_FORMULA>
C29H35N5O

> <PUBCHEM_MOLECULAR_WEIGHT>
469.6

> <PUBCHEM_OPENEYE_CAN_SMILES>
C1CC(CCC1CCN2CCC3=CN=C(N=C3C2)CC4CC4)NC(=O)C5=C6C=CC=NC6=CC=C5

> <PUBCHEM_OPENEYE_ISO_SMILES>
C1CC(CCC1CCN2CCC3=CN=C(N=C3C2)CC4CC4)NC(=O)C5=C6C=CC=NC6=CC=C5

> <PUBCHEM_CACTVS_TPSA>
71

> <PUBCHEM_MONOISOTOPIC_WEIGHT>
469.28416076

> <PUBCHEM_TOTAL_CHARGE>
0

> <PUBCHEM_HEAVY_ATOM_COUNT>
35

> <PUBCHEM_ATOM_DEF_STEREO_COUNT>
0

> <PUBCHEM_ATOM_UDEF_STEREO_COUNT>
0

> <PUBCHEM_BOND_DEF_STEREO_COUNT>
0

> <PUBCHEM_BOND_UDEF_STEREO_COUNT>
0

> <PUBCHEM_ISOTOPIC_ATOM_COUNT>
0

> <PUBCHEM_COMPONENT_COUNT>
1

> <PUBCHEM_CACTVS_TAUTO_COUNT>
-1

> <PUBCHEM_COORDINATE_TYPE>
1
5
255

> <PUBCHEM_BONDANNOTATIONS>
22  24  8
24  25  8
27  28  8
27  29  8
28  30  8
28  32  8
29  31  8
30  33  8
31  33  8
32  34  8
34  35  8
4  21  8
4  22  8
5  21  8
5  25  8
6  30  8
6  35  8

$$$$
