90644930
  -OEChem-09292322352D

 55 58  0     1  0  0  0  0  0999 V2000
   12.7619   -1.3660    0.0000 Cl  0  0  0  0  0  0  0  0  0  0  0  0
   13.7619   -3.0981    0.0000 Cl  0  0  0  0  0  0  0  0  0  0  0  0
   10.7619    2.0981    0.0000 F   0  0  0  0  0  0  0  0  0  0  0  0
    4.6783    2.1594    0.0000 O   0  0  0  0  0  0  0  0  0  0  0  0
    6.7619    3.8301    0.0000 O   0  0  0  0  0  0  0  0  0  0  0  0
    9.7619    0.3660    0.0000 N   0  0  0  0  0  0  0  0  0  0  0  0
   10.7619   -1.3660    0.0000 N   0  0  0  0  0  0  0  0  0  0  0  0
    6.7619    2.0981    0.0000 N   0  0  0  0  0  0  0  0  0  0  0  0
    9.2619    1.2320    0.0000 C   0  0  3  0  0  0  0  0  0  0  0  0
   10.7619    0.3660    0.0000 C   0  0  0  0  0  0  0  0  0  0  0  0
    9.2619   -0.5000    0.0000 C   0  0  0  0  0  0  0  0  0  0  0  0
   11.2619   -0.5000    0.0000 C   0  0  0  0  0  0  0  0  0  0  0  0
    9.7619   -1.3660    0.0000 C   0  0  0  0  0  0  0  0  0  0  0  0
    8.2619    1.2320    0.0000 C   0  0  0  0  0  0  0  0  0  0  0  0
    9.7619    2.0981    0.0000 C   0  0  0  0  0  0  0  0  0  0  0  0
    7.7619    2.0981    0.0000 C   0  0  0  0  0  0  0  0  0  0  0  0
   11.2619   -2.2320    0.0000 C   0  0  0  0  0  0  0  0  0  0  0  0
   12.2619   -2.2320    0.0000 C   0  0  0  0  0  0  0  0  0  0  0  0
   10.7619   -3.0981    0.0000 C   0  0  0  0  0  0  0  0  0  0  0  0
   12.7619   -3.0981    0.0000 C   0  0  0  0  0  0  0  0  0  0  0  0
   11.2619   -3.9641    0.0000 C   0  0  0  0  0  0  0  0  0  0  0  0
    6.2619    2.9641    0.0000 C   0  0  0  0  0  0  0  0  0  0  0  0
   12.2619   -3.9641    0.0000 C   0  0  0  0  0  0  0  0  0  0  0  0
    5.2619    2.9641    0.0000 C   0  0  0  0  0  0  0  0  0  0  0  0
    4.6783    3.7688    0.0000 C   0  0  0  0  0  0  0  0  0  0  0  0
    3.7320    3.4641    0.0000 C   0  0  0  0  0  0  0  0  0  0  0  0
    3.7320    2.4641    0.0000 C   0  0  0  0  0  0  0  0  0  0  0  0
    2.8660    3.9641    0.0000 C   0  0  0  0  0  0  0  0  0  0  0  0
    2.8660    1.9641    0.0000 C   0  0  0  0  0  0  0  0  0  0  0  0
    2.0000    3.4641    0.0000 C   0  0  0  0  0  0  0  0  0  0  0  0
    2.0000    2.4641    0.0000 C   0  0  0  0  0  0  0  0  0  0  0  0
    9.8819    1.2320    0.0000 H   0  0  0  0  0  0  0  0  0  0  0  0
   11.3445    0.5781    0.0000 H   0  0  0  0  0  0  0  0  0  0  0  0
   10.6542    0.9766    0.0000 H   0  0  0  0  0  0  0  0  0  0  0  0
    8.7869   -0.1015    0.0000 H   0  0  0  0  0  0  0  0  0  0  0  0
    8.7869   -0.8985    0.0000 H   0  0  0  0  0  0  0  0  0  0  0  0
   11.7368   -0.8985    0.0000 H   0  0  0  0  0  0  0  0  0  0  0  0
   11.7368   -0.1015    0.0000 H   0  0  0  0  0  0  0  0  0  0  0  0
    9.1793   -1.5781    0.0000 H   0  0  0  0  0  0  0  0  0  0  0  0
    9.8695   -1.9766    0.0000 H   0  0  0  0  0  0  0  0  0  0  0  0
    7.6793    1.0200    0.0000 H   0  0  0  0  0  0  0  0  0  0  0  0
    8.3695    0.6215    0.0000 H   0  0  0  0  0  0  0  0  0  0  0  0
    9.8695    2.7087    0.0000 H   0  0  0  0  0  0  0  0  0  0  0  0
    9.1793    2.3101    0.0000 H   0  0  0  0  0  0  0  0  0  0  0  0
    8.3445    2.3101    0.0000 H   0  0  0  0  0  0  0  0  0  0  0  0
    7.6542    2.7087    0.0000 H   0  0  0  0  0  0  0  0  0  0  0  0
    6.4519    1.5611    0.0000 H   0  0  0  0  0  0  0  0  0  0  0  0
   10.1419   -3.0981    0.0000 H   0  0  0  0  0  0  0  0  0  0  0  0
   10.9519   -4.5010    0.0000 H   0  0  0  0  0  0  0  0  0  0  0  0
   12.5719   -4.5010    0.0000 H   0  0  0  0  0  0  0  0  0  0  0  0
    4.8709    4.3582    0.0000 H   0  0  0  0  0  0  0  0  0  0  0  0
    2.8660    4.5841    0.0000 H   0  0  0  0  0  0  0  0  0  0  0  0
    2.8660    1.3441    0.0000 H   0  0  0  0  0  0  0  0  0  0  0  0
    1.4631    3.7741    0.0000 H   0  0  0  0  0  0  0  0  0  0  0  0
    1.4631    2.1541    0.0000 H   0  0  0  0  0  0  0  0  0  0  0  0
  1 18  1  0  0  0  0
  2 20  1  0  0  0  0
  3 15  1  0  0  0  0
  4 24  1  0  0  0  0
  4 27  1  0  0  0  0
  5 22  2  0  0  0  0
  6  9  1  0  0  0  0
  6 10  1  0  0  0  0
  6 11  1  0  0  0  0
  7 12  1  0  0  0  0
  7 13  1  0  0  0  0
  7 17  1  0  0  0  0
  8 16  1  0  0  0  0
  8 22  1  0  0  0  0
  8 47  1  0  0  0  0
  9 14  1  0  0  0  0
  9 15  1  0  0  0  0
  9 32  1  0  0  0  0
 10 12  1  0  0  0  0
 10 33  1  0  0  0  0
 10 34  1  0  0  0  0
 11 13  1  0  0  0  0
 11 35  1  0  0  0  0
 11 36  1  0  0  0  0
 12 37  1  0  0  0  0
 12 38  1  0  0  0  0
 13 39  1  0  0  0  0
 13 40  1  0  0  0  0
 14 16  1  0  0  0  0
 14 41  1  0  0  0  0
 14 42  1  0  0  0  0
 15 43  1  0  0  0  0
 15 44  1  0  0  0  0
 16 45  1  0  0  0  0
 16 46  1  0  0  0  0
 17 18  2  0  0  0  0
 17 19  1  0  0  0  0
 18 20  1  0  0  0  0
 19 21  2  0  0  0  0
 19 48  1  0  0  0  0
 20 23  2  0  0  0  0
 21 23  1  0  0  0  0
 21 49  1  0  0  0  0
 22 24  1  0  0  0  0
 23 50  1  0  0  0  0
 24 25  2  0  0  0  0
 25 26  1  0  0  0  0
 25 51  1  0  0  0  0
 26 27  1  0  0  0  0
 26 28  2  0  0  0  0
 27 29  2  0  0  0  0
 28 30  1  0  0  0  0
 28 52  1  0  0  0  0
 29 31  1  0  0  0  0
 29 53  1  0  0  0  0
 30 31  2  0  0  0  0
 30 54  1  0  0  0  0
 31 55  1  0  0  0  0
M  END
> <PUBCHEM_COMPOUND_CID>
90644930

> <PUBCHEM_COMPOUND_CANONICALIZED>
1

> <PUBCHEM_CACTVS_COMPLEXITY>
593

> <PUBCHEM_CACTVS_HBOND_ACCEPTOR>
5

> <PUBCHEM_CACTVS_HBOND_DONOR>
1

> <PUBCHEM_CACTVS_ROTATABLE_BOND>
7

> <PUBCHEM_CACTVS_SUBSKEYS>
AAADceB7MQAGAAAAAAAAAAAAAAAAASAAAAA8YIAAAAAAAEgB9AAAHwIQAAAADC7BmCQwxsPABECIAqVSUAKCCAAlJwAIisHObsgOZjLF97/XOSjk1hHY6YeY36LuAAAAAAIIABQAAAAABBAAKAAAAAAAAA==

> <PUBCHEM_IUPAC_OPENEYE_NAME>
N-[3-[4-(2,3-dichlorophenyl)piperazin-1-yl]-4-fluoro-butyl]benzofuran-2-carboxamide

> <PUBCHEM_IUPAC_CAS_NAME>
N-[3-[4-(2,3-dichlorophenyl)-1-piperazinyl]-4-fluorobutyl]-2-benzofurancarboxamide

> <PUBCHEM_IUPAC_NAME_MARKUP>
<I>N</I>-[3-[4-(2,3-dichlorophenyl)piperazin-1-yl]-4-fluorobutyl]-1-benzofuran-2-carboxamide

> <PUBCHEM_IUPAC_NAME>
N-[3-[4-(2,3-dichlorophenyl)piperazin-1-yl]-4-fluorobutyl]-1-benzofuran-2-carboxamide

> <PUBCHEM_IUPAC_SYSTEMATIC_NAME>
N-[3-[4-[2,3-bis(chloranyl)phenyl]piperazin-1-yl]-4-fluoranyl-butyl]-1-benzofuran-2-carboxamide

> <PUBCHEM_IUPAC_TRADITIONAL_NAME>
N-[3-[4-(2,3-dichlorophenyl)piperazino]-4-fluoro-butyl]coumarilamide

> <PUBCHEM_IUPAC_INCHI>
InChI=1S/C23H24Cl2FN3O2/c24-18-5-3-6-19(22(18)25)29-12-10-28(11-13-29)17(15-26)8-9-27-23(30)21-14-16-4-1-2-7-20(16)31-21/h1-7,14,17H,8-13,15H2,(H,27,30)

> <PUBCHEM_IUPAC_INCHIKEY>
QBRAQPXCJIBXIU-UHFFFAOYSA-N

> <PUBCHEM_XLOGP3_AA>
5.6

> <PUBCHEM_EXACT_MASS>
463.1229606

> <PUBCHEM_MOLECULAR_FORMULA>
C23H24Cl2FN3O2

> <PUBCHEM_MOLECULAR_WEIGHT>
464.4

> <PUBCHEM_OPENEYE_CAN_SMILES>
C1CN(CCN1C2=C(C(=CC=C2)Cl)Cl)C(CCNC(=O)C3=CC4=CC=CC=C4O3)CF

> <PUBCHEM_OPENEYE_ISO_SMILES>
C1CN(CCN1C2=C(C(=CC=C2)Cl)Cl)C(CCNC(=O)C3=CC4=CC=CC=C4O3)CF

> <PUBCHEM_CACTVS_TPSA>
48.7

> <PUBCHEM_MONOISOTOPIC_WEIGHT>
463.1229606

> <PUBCHEM_TOTAL_CHARGE>
0

> <PUBCHEM_HEAVY_ATOM_COUNT>
31

> <PUBCHEM_ATOM_DEF_STEREO_COUNT>
0

> <PUBCHEM_ATOM_UDEF_STEREO_COUNT>
1

> <PUBCHEM_BOND_DEF_STEREO_COUNT>
0

> <PUBCHEM_BOND_UDEF_STEREO_COUNT>
0

> <PUBCHEM_ISOTOPIC_ATOM_COUNT>
0

> <PUBCHEM_COMPONENT_COUNT>
1

> <PUBCHEM_CACTVS_TAUTO_COUNT>
-1

> <PUBCHEM_COORDINATE_TYPE>
1
5
255

> <PUBCHEM_BONDANNOTATIONS>
17  18  8
17  19  8
18  20  8
19  21  8
20  23  8
21  23  8
24  25  8
25  26  8
26  27  8
26  28  8
27  29  8
28  30  8
29  31  8
30  31  8
4  24  8
4  27  8
9  14  3

$$$$
