56595402
  -OEChem-09292322482D

 41 42  0     1  0  0  0  0  0999 V2000
    2.0000   -4.3807    0.0000 Cl  0  0  0  0  0  0  0  0  0  0  0  0
    3.7320   -1.3807    0.0000 S   0  0  0  0  0  0  0  0  0  0  0  0
    4.7320   -1.3807    0.0000 O   0  0  0  0  0  0  0  0  0  0  0  0
    2.7320   -1.3807    0.0000 O   0  0  0  0  0  0  0  0  0  0  0  0
    4.5981    1.1193    0.0000 N   0  0  0  0  0  0  0  0  0  0  0  0
    3.7891    1.7071    0.0000 N   0  0  0  0  0  0  0  0  0  0  0  0
    3.7320   -0.3807    0.0000 N   0  0  0  0  0  0  0  0  0  0  0  0
    5.4641   -0.3807    0.0000 N   0  0  0  0  0  0  0  0  0  0  0  0
    5.0981    2.6581    0.0000 C   0  0  3  0  0  0  0  0  0  0  0  0
    5.4071    1.7071    0.0000 C   0  0  0  0  0  0  0  0  0  0  0  0
    5.6859    3.4672    0.0000 C   0  0  0  0  0  0  0  0  0  0  0  0
    4.0981    2.6581    0.0000 C   0  0  0  0  0  0  0  0  0  0  0  0
    4.5981    0.1193    0.0000 C   0  0  0  0  0  0  0  0  0  0  0  0
    5.2791    4.3807    0.0000 C   0  0  0  0  0  0  0  0  0  0  0  0
    3.7320   -2.3807    0.0000 C   0  0  0  0  0  0  0  0  0  0  0  0
    6.3301    0.1193    0.0000 C   0  0  0  0  0  0  0  0  0  0  0  0
    2.8660   -2.8807    0.0000 C   0  0  0  0  0  0  0  0  0  0  0  0
    4.5981   -2.8807    0.0000 C   0  0  0  0  0  0  0  0  0  0  0  0
    7.1962   -0.3807    0.0000 C   0  0  0  0  0  0  0  0  0  0  0  0
    2.8660   -3.8807    0.0000 C   0  0  0  0  0  0  0  0  0  0  0  0
    4.5981   -3.8807    0.0000 C   0  0  0  0  0  0  0  0  0  0  0  0
    3.7320   -4.3807    0.0000 C   0  0  0  0  0  0  0  0  0  0  0  0
    5.7104    2.5612    0.0000 H   0  0  0  0  0  0  0  0  0  0  0  0
    5.7171    1.1702    0.0000 H   0  0  0  0  0  0  0  0  0  0  0  0
    5.9735    1.9593    0.0000 H   0  0  0  0  0  0  0  0  0  0  0  0
    6.1166    3.0212    0.0000 H   0  0  0  0  0  0  0  0  0  0  0  0
    6.1999    3.8139    0.0000 H   0  0  0  0  0  0  0  0  0  0  0  0
    3.7336    3.1597    0.0000 H   0  0  0  0  0  0  0  0  0  0  0  0
    5.8455    4.6329    0.0000 H   0  0  0  0  0  0  0  0  0  0  0  0
    5.0270    4.9471    0.0000 H   0  0  0  0  0  0  0  0  0  0  0  0
    4.7127    4.1285    0.0000 H   0  0  0  0  0  0  0  0  0  0  0  0
    3.1951   -0.0707    0.0000 H   0  0  0  0  0  0  0  0  0  0  0  0
    6.7287    0.5942    0.0000 H   0  0  0  0  0  0  0  0  0  0  0  0
    5.9316    0.5942    0.0000 H   0  0  0  0  0  0  0  0  0  0  0  0
    2.3291   -2.5707    0.0000 H   0  0  0  0  0  0  0  0  0  0  0  0
    5.1350   -2.5707    0.0000 H   0  0  0  0  0  0  0  0  0  0  0  0
    6.8862   -0.9176    0.0000 H   0  0  0  0  0  0  0  0  0  0  0  0
    7.7331   -0.6907    0.0000 H   0  0  0  0  0  0  0  0  0  0  0  0
    7.5062    0.1562    0.0000 H   0  0  0  0  0  0  0  0  0  0  0  0
    5.1350   -4.1907    0.0000 H   0  0  0  0  0  0  0  0  0  0  0  0
    3.7320   -5.0007    0.0000 H   0  0  0  0  0  0  0  0  0  0  0  0
  1 20  1  0  0  0  0
  2  3  2  0  0  0  0
  2  4  2  0  0  0  0
  2  7  1  0  0  0  0
  2 15  1  0  0  0  0
  5  6  1  0  0  0  0
  5 10  1  0  0  0  0
  5 13  1  0  0  0  0
  6 12  2  0  0  0  0
  7 13  1  0  0  0  0
  7 32  1  0  0  0  0
  8 13  2  0  0  0  0
  8 16  1  0  0  0  0
  9 10  1  0  0  0  0
  9 11  1  0  0  0  0
  9 12  1  0  0  0  0
  9 23  1  0  0  0  0
 10 24  1  0  0  0  0
 10 25  1  0  0  0  0
 11 14  1  0  0  0  0
 11 26  1  0  0  0  0
 11 27  1  0  0  0  0
 12 28  1  0  0  0  0
 14 29  1  0  0  0  0
 14 30  1  0  0  0  0
 14 31  1  0  0  0  0
 15 17  2  0  0  0  0
 15 18  1  0  0  0  0
 16 19  1  0  0  0  0
 16 33  1  0  0  0  0
 16 34  1  0  0  0  0
 17 20  1  0  0  0  0
 17 35  1  0  0  0  0
 18 21  2  0  0  0  0
 18 36  1  0  0  0  0
 19 37  1  0  0  0  0
 19 38  1  0  0  0  0
 19 39  1  0  0  0  0
 20 22  2  0  0  0  0
 21 22  1  0  0  0  0
 21 40  1  0  0  0  0
 22 41  1  0  0  0  0
M  END
> <PUBCHEM_COMPOUND_CID>
56595402

> <PUBCHEM_COMPOUND_CANONICALIZED>
1

> <PUBCHEM_CACTVS_COMPLEXITY>
530

> <PUBCHEM_CACTVS_HBOND_ACCEPTOR>
4

> <PUBCHEM_CACTVS_HBOND_DONOR>
1

> <PUBCHEM_CACTVS_ROTATABLE_BOND>
6

> <PUBCHEM_CACTVS_SUBSKEYS>
AAADceBzsABEAAAAAAAAAAAAAAAAAQAAAAAwAAAAAAAAAAABAAAAHAYYQAAADQLBUCQzAYJAAAKgADBjJHBSABEgBQAdiBg4AoiIICKBmxCEIAAwiAIIiAcAAAAIAAAAABAAAAAAAAAAIAAAAAAAAAAAAA==

> <PUBCHEM_IUPAC_OPENEYE_NAME>
N-(3-chlorophenyl)sulfonyl-N',4-diethyl-3,4-dihydropyrazole-2-carboxamidine

> <PUBCHEM_IUPAC_CAS_NAME>
N-(3-chlorophenyl)sulfonyl-N',4-diethyl-3,4-dihydropyrazole-2-carboximidamide

> <PUBCHEM_IUPAC_NAME_MARKUP>
<I>N</I>-(3-chlorophenyl)sulfonyl-<I>N</I>&apos;,4-diethyl-3,4-dihydropyrazole-2-carboximidamide

> <PUBCHEM_IUPAC_NAME>
N-(3-chlorophenyl)sulfonyl-N',4-diethyl-3,4-dihydropyrazole-2-carboximidamide

> <PUBCHEM_IUPAC_SYSTEMATIC_NAME>
N-(3-chlorophenyl)sulfonyl-N',4-diethyl-3,4-dihydropyrazole-2-carboximidamide

> <PUBCHEM_IUPAC_TRADITIONAL_NAME>
N-(3-chlorophenyl)sulfonyl-N',4-diethyl-2-pyrazoline-1-carboxamidine

> <PUBCHEM_IUPAC_INCHI>
InChI=1S/C14H19ClN4O2S/c1-3-11-9-17-19(10-11)14(16-4-2)18-22(20,21)13-7-5-6-12(15)8-13/h5-9,11H,3-4,10H2,1-2H3,(H,16,18)

> <PUBCHEM_IUPAC_INCHIKEY>
MKGZFKFZQDUADL-UHFFFAOYSA-N

> <PUBCHEM_XLOGP3_AA>
2.2

> <PUBCHEM_EXACT_MASS>
342.0917247

> <PUBCHEM_MOLECULAR_FORMULA>
C14H19ClN4O2S

> <PUBCHEM_MOLECULAR_WEIGHT>
342.8

> <PUBCHEM_OPENEYE_CAN_SMILES>
CCC1CN(N=C1)C(=NCC)NS(=O)(=O)C2=CC(=CC=C2)Cl

> <PUBCHEM_OPENEYE_ISO_SMILES>
CCC1CN(N=C1)C(=NCC)NS(=O)(=O)C2=CC(=CC=C2)Cl

> <PUBCHEM_CACTVS_TPSA>
82.5

> <PUBCHEM_MONOISOTOPIC_WEIGHT>
342.0917247

> <PUBCHEM_TOTAL_CHARGE>
0

> <PUBCHEM_HEAVY_ATOM_COUNT>
22

> <PUBCHEM_ATOM_DEF_STEREO_COUNT>
0

> <PUBCHEM_ATOM_UDEF_STEREO_COUNT>
1

> <PUBCHEM_BOND_DEF_STEREO_COUNT>
0

> <PUBCHEM_BOND_UDEF_STEREO_COUNT>
0

> <PUBCHEM_ISOTOPIC_ATOM_COUNT>
0

> <PUBCHEM_COMPONENT_COUNT>
1

> <PUBCHEM_CACTVS_TAUTO_COUNT>
-1

> <PUBCHEM_COORDINATE_TYPE>
1
5
255

> <PUBCHEM_BONDANNOTATIONS>
15  17  8
15  18  8
17  20  8
18  21  8
20  22  8
21  22  8
9  11  3

$$$$
