145712390
  -OEChem-09292322082D

 35 38  0     0  0  0  0  0  0999 V2000
    4.5274    2.5418    0.0000 S   0  0  0  0  0  0  0  0  0  0  0  0
    5.3923   -0.7292    0.0000 N   0  0  0  0  0  0  0  0  0  0  0  0
    6.7328    0.4270    0.0000 N   0  0  0  0  0  0  0  0  0  0  0  0
    6.3518    2.1863    0.0000 N   0  0  0  0  0  0  0  0  0  0  0  0
    6.0528   -1.4800    0.0000 C   0  0  0  0  0  0  0  0  0  0  0  0
    7.0508   -1.5439    0.0000 C   0  0  0  0  0  0  0  0  0  0  0  0
    5.9890   -2.4780    0.0000 C   0  0  0  0  0  0  0  0  0  0  0  0
    6.9869   -2.5418    0.0000 C   0  0  0  0  0  0  0  0  0  0  0  0
    4.0274    1.0030    0.0000 C   0  0  0  0  0  0  0  0  0  0  0  0
    3.3424    0.2183    0.0000 C   0  0  0  0  0  0  0  0  0  0  0  0
    5.0274    1.0030    0.0000 C   0  0  0  0  0  0  0  0  0  0  0  0
    2.3219    0.4270    0.0000 C   0  0  0  0  0  0  0  0  0  0  0  0
    5.7123    0.2183    0.0000 C   0  0  0  0  0  0  0  0  0  0  0  0
    3.7183    1.9540    0.0000 C   0  0  0  0  0  0  0  0  0  0  0  0
    2.0000    1.4176    0.0000 C   0  0  0  0  0  0  0  0  0  0  0  0
    2.7029    2.1863    0.0000 C   0  0  0  0  0  0  0  0  0  0  0  0
    5.3364    1.9540    0.0000 C   0  0  0  0  0  0  0  0  0  0  0  0
    7.0547    1.4176    0.0000 C   0  0  0  0  0  0  0  0  0  0  0  0
    6.3262   -0.9235    0.0000 H   0  0  0  0  0  0  0  0  0  0  0  0
    7.6695   -1.5835    0.0000 H   0  0  0  0  0  0  0  0  0  0  0  0
    7.0904   -0.9251    0.0000 H   0  0  0  0  0  0  0  0  0  0  0  0
    5.3702   -2.4383    0.0000 H   0  0  0  0  0  0  0  0  0  0  0  0
    5.9493   -3.0967    0.0000 H   0  0  0  0  0  0  0  0  0  0  0  0
    6.9473   -3.1606    0.0000 H   0  0  0  0  0  0  0  0  0  0  0  0
    7.6056   -2.5814    0.0000 H   0  0  0  0  0  0  0  0  0  0  0  0
    4.7844   -0.8510    0.0000 H   0  0  0  0  0  0  0  0  0  0  0  0
    3.1160   -0.3590    0.0000 H   0  0  0  0  0  0  0  0  0  0  0  0
    3.8724   -0.1035    0.0000 H   0  0  0  0  0  0  0  0  0  0  0  0
    1.7081    0.3391    0.0000 H   0  0  0  0  0  0  0  0  0  0  0  0
    2.3034   -0.1928    0.0000 H   0  0  0  0  0  0  0  0  0  0  0  0
    1.6208    1.9081    0.0000 H   0  0  0  0  0  0  0  0  0  0  0  0
    1.4518    1.1280    0.0000 H   0  0  0  0  0  0  0  0  0  0  0  0
    2.9426    2.7581    0.0000 H   0  0  0  0  0  0  0  0  0  0  0  0
    2.1806    2.5202    0.0000 H   0  0  0  0  0  0  0  0  0  0  0  0
    7.6607    1.5488    0.0000 H   0  0  0  0  0  0  0  0  0  0  0  0
  1 14  1  0  0  0  0
  1 17  1  0  0  0  0
  2  5  1  0  0  0  0
  2 13  1  0  0  0  0
  2 26  1  0  0  0  0
  3 13  1  0  0  0  0
  3 18  2  0  0  0  0
  4 17  2  0  0  0  0
  4 18  1  0  0  0  0
  5  6  1  0  0  0  0
  5  7  1  0  0  0  0
  5 19  1  0  0  0  0
  6  8  1  0  0  0  0
  6 20  1  0  0  0  0
  6 21  1  0  0  0  0
  7  8  1  0  0  0  0
  7 22  1  0  0  0  0
  7 23  1  0  0  0  0
  8 24  1  0  0  0  0
  8 25  1  0  0  0  0
  9 10  1  0  0  0  0
  9 11  1  0  0  0  0
  9 14  2  0  0  0  0
 10 12  1  0  0  0  0
 10 27  1  0  0  0  0
 10 28  1  0  0  0  0
 11 13  2  0  0  0  0
 11 17  1  0  0  0  0
 12 15  1  0  0  0  0
 12 29  1  0  0  0  0
 12 30  1  0  0  0  0
 14 16  1  0  0  0  0
 15 16  1  0  0  0  0
 15 31  1  0  0  0  0
 15 32  1  0  0  0  0
 16 33  1  0  0  0  0
 16 34  1  0  0  0  0
 18 35  1  0  0  0  0
M  END
> <PUBCHEM_COMPOUND_CID>
145712390

> <PUBCHEM_COMPOUND_CANONICALIZED>
1

> <PUBCHEM_CACTVS_COMPLEXITY>
307

> <PUBCHEM_CACTVS_HBOND_ACCEPTOR>
4

> <PUBCHEM_CACTVS_HBOND_DONOR>
1

> <PUBCHEM_CACTVS_ROTATABLE_BOND>
2

> <PUBCHEM_CACTVS_SUBSKEYS>
AAADceBzAABAAAAAAAAAAAAAAABgASAAAAA8QAAAAAAAAFgB+AAAHAQQAAAADCjBWgQFsdbIEAikAgJhZACD0KlxCLgB2LAoRJiIKCLg2NGEBAxokALoyCcQgMAOgAAAAAAAAAAAAAAAAAgAAAAAAAAAAA==

> <PUBCHEM_IUPAC_OPENEYE_NAME>
N-cyclobutyl-5,6,7,8-tetrahydrobenzothiopheno[2,3-d]pyrimidin-4-amine

> <PUBCHEM_IUPAC_CAS_NAME>
N-cyclobutyl-5,6,7,8-tetrahydro-[1]benzothiolo[2,3-d]pyrimidin-4-amine

> <PUBCHEM_IUPAC_NAME_MARKUP>
<I>N</I>-cyclobutyl-5,6,7,8-tetrahydro-[1]benzothiolo[2,3-d]pyrimidin-4-amine

> <PUBCHEM_IUPAC_NAME>
N-cyclobutyl-5,6,7,8-tetrahydro-[1]benzothiolo[2,3-d]pyrimidin-4-amine

> <PUBCHEM_IUPAC_SYSTEMATIC_NAME>
N-cyclobutyl-5,6,7,8-tetrahydro-[1]benzothiolo[2,3-d]pyrimidin-4-amine

> <PUBCHEM_IUPAC_TRADITIONAL_NAME>
cyclobutyl(5,6,7,8-tetrahydrobenzothiopheno[2,3-d]pyrimidin-4-yl)amine

> <PUBCHEM_IUPAC_INCHI>
InChI=1S/C14H17N3S/c1-2-7-11-10(6-1)12-13(17-9-4-3-5-9)15-8-16-14(12)18-11/h8-9H,1-7H2,(H,15,16,17)

> <PUBCHEM_IUPAC_INCHIKEY>
ANUJDLRACOBTTB-UHFFFAOYSA-N

> <PUBCHEM_XLOGP3_AA>
4

> <PUBCHEM_EXACT_MASS>
259.11431873

> <PUBCHEM_MOLECULAR_FORMULA>
C14H17N3S

> <PUBCHEM_MOLECULAR_WEIGHT>
259.37

> <PUBCHEM_OPENEYE_CAN_SMILES>
C1CCC2=C(C1)C3=C(N=CN=C3S2)NC4CCC4

> <PUBCHEM_OPENEYE_ISO_SMILES>
C1CCC2=C(C1)C3=C(N=CN=C3S2)NC4CCC4

> <PUBCHEM_CACTVS_TPSA>
66

> <PUBCHEM_MONOISOTOPIC_WEIGHT>
259.11431873

> <PUBCHEM_TOTAL_CHARGE>
0

> <PUBCHEM_HEAVY_ATOM_COUNT>
18

> <PUBCHEM_ATOM_DEF_STEREO_COUNT>
0

> <PUBCHEM_ATOM_UDEF_STEREO_COUNT>
0

> <PUBCHEM_BOND_DEF_STEREO_COUNT>
0

> <PUBCHEM_BOND_UDEF_STEREO_COUNT>
0

> <PUBCHEM_ISOTOPIC_ATOM_COUNT>
0

> <PUBCHEM_COMPONENT_COUNT>
1

> <PUBCHEM_CACTVS_TAUTO_COUNT>
-1

> <PUBCHEM_COORDINATE_TYPE>
1
5
255

> <PUBCHEM_BONDANNOTATIONS>
1  14  8
1  17  8
11  13  8
11  17  8
3  13  8
3  18  8
4  17  8
4  18  8
9  11  8
9  14  8

$$$$
