25069356
  -OEChem-09292322302D

 60 64  0     0  0  0  0  0  0999 V2000
   10.5973    6.3649    0.0000 F   0  0  0  0  0  0  0  0  0  0  0  0
    5.3351   -4.6593    0.0000 F   0  0  0  0  0  0  0  0  0  0  0  0
    5.3351   -2.6593    0.0000 O   0  0  0  0  0  0  0  0  0  0  0  0
    4.0617   -6.3754    0.0000 O   0  0  0  0  0  0  0  0  0  0  0  0
    7.0671    1.3407    0.0000 N   0  0  0  0  0  0  0  0  0  0  0  0
    7.0671    3.3407    0.0000 N   0  0  0  0  0  0  0  0  0  0  0  0
    2.4051   -5.7341    0.0000 N   0  0  0  0  0  0  0  0  0  0  0  0
    6.2011    1.8407    0.0000 C   0  0  0  0  0  0  0  0  0  0  0  0
    7.9332    1.8407    0.0000 C   0  0  0  0  0  0  0  0  0  0  0  0
    6.2011    2.8407    0.0000 C   0  0  0  0  0  0  0  0  0  0  0  0
    7.9332    2.8407    0.0000 C   0  0  0  0  0  0  0  0  0  0  0  0
    7.0671    0.3407    0.0000 C   0  0  0  0  0  0  0  0  0  0  0  0
    6.2011   -0.1593    0.0000 C   0  0  0  0  0  0  0  0  0  0  0  0
    7.0671    4.3407    0.0000 C   0  0  0  0  0  0  0  0  0  0  0  0
    6.2011   -1.1593    0.0000 C   0  0  0  0  0  0  0  0  0  0  0  0
    7.9332    4.8407    0.0000 C   0  0  0  0  0  0  0  0  0  0  0  0
    6.2011    4.8407    0.0000 C   0  0  0  0  0  0  0  0  0  0  0  0
    5.3351   -1.6593    0.0000 C   0  0  0  0  0  0  0  0  0  0  0  0
    7.9332    5.8407    0.0000 C   0  0  0  0  0  0  0  0  0  0  0  0
    8.8271    4.3061    0.0000 C   0  0  0  0  0  0  0  0  0  0  0  0
    6.2011    5.8407    0.0000 C   0  0  0  0  0  0  0  0  0  0  0  0
    7.0671    6.3407    0.0000 C   0  0  0  0  0  0  0  0  0  0  0  0
    8.8271    6.3754    0.0000 C   0  0  0  0  0  0  0  0  0  0  0  0
    9.7332    4.8199    0.0000 C   0  0  0  0  0  0  0  0  0  0  0  0
    4.4691   -3.1593    0.0000 C   0  0  0  0  0  0  0  0  0  0  0  0
    2.7370   -4.1593    0.0000 C   0  0  0  0  0  0  0  0  0  0  0  0
    3.6030   -4.6593    0.0000 C   0  0  0  0  0  0  0  0  0  0  0  0
    9.7332    5.8615    0.0000 C   0  0  0  0  0  0  0  0  0  0  0  0
    2.0000   -4.8264    0.0000 C   0  0  0  0  0  0  0  0  0  0  0  0
    4.4691   -4.1593    0.0000 C   0  0  0  0  0  0  0  0  0  0  0  0
    3.6030   -2.6593    0.0000 C   0  0  0  0  0  0  0  0  0  0  0  0
    2.7370   -3.1593    0.0000 C   0  0  0  0  0  0  0  0  0  0  0  0
    3.3938   -5.6311    0.0000 C   0  0  0  0  0  0  0  0  0  0  0  0
    5.5905    1.9484    0.0000 H   0  0  0  0  0  0  0  0  0  0  0  0
    5.9891    1.2581    0.0000 H   0  0  0  0  0  0  0  0  0  0  0  0
    8.1452    1.2581    0.0000 H   0  0  0  0  0  0  0  0  0  0  0  0
    8.5438    1.9484    0.0000 H   0  0  0  0  0  0  0  0  0  0  0  0
    5.9891    3.4233    0.0000 H   0  0  0  0  0  0  0  0  0  0  0  0
    5.5905    2.7331    0.0000 H   0  0  0  0  0  0  0  0  0  0  0  0
    8.5438    2.7331    0.0000 H   0  0  0  0  0  0  0  0  0  0  0  0
    8.1452    3.4233    0.0000 H   0  0  0  0  0  0  0  0  0  0  0  0
    7.2792   -0.2419    0.0000 H   0  0  0  0  0  0  0  0  0  0  0  0
    7.6777    0.4484    0.0000 H   0  0  0  0  0  0  0  0  0  0  0  0
    5.9891    0.4233    0.0000 H   0  0  0  0  0  0  0  0  0  0  0  0
    5.5905   -0.2669    0.0000 H   0  0  0  0  0  0  0  0  0  0  0  0
    6.4132   -1.7419    0.0000 H   0  0  0  0  0  0  0  0  0  0  0  0
    6.8117   -1.0516    0.0000 H   0  0  0  0  0  0  0  0  0  0  0  0
    5.6642    4.5307    0.0000 H   0  0  0  0  0  0  0  0  0  0  0  0
    5.1230   -1.0767    0.0000 H   0  0  0  0  0  0  0  0  0  0  0  0
    4.7245   -1.7669    0.0000 H   0  0  0  0  0  0  0  0  0  0  0  0
    8.8199    3.6861    0.0000 H   0  0  0  0  0  0  0  0  0  0  0  0
    5.6642    6.1507    0.0000 H   0  0  0  0  0  0  0  0  0  0  0  0
    7.0671    6.9607    0.0000 H   0  0  0  0  0  0  0  0  0  0  0  0
    8.8199    6.9954    0.0000 H   0  0  0  0  0  0  0  0  0  0  0  0
   10.2689    4.5078    0.0000 H   0  0  0  0  0  0  0  0  0  0  0  0
    1.6346   -4.3255    0.0000 H   0  0  0  0  0  0  0  0  0  0  0  0
    1.4635   -5.1371    0.0000 H   0  0  0  0  0  0  0  0  0  0  0  0
    3.6030   -2.0393    0.0000 H   0  0  0  0  0  0  0  0  0  0  0  0
    2.2001   -2.8493    0.0000 H   0  0  0  0  0  0  0  0  0  0  0  0
    2.0951   -6.2711    0.0000 H   0  0  0  0  0  0  0  0  0  0  0  0
  1 28  1  0  0  0  0
  2 30  1  0  0  0  0
  3 18  1  0  0  0  0
  3 25  1  0  0  0  0
  4 33  2  0  0  0  0
  5  8  1  0  0  0  0
  5  9  1  0  0  0  0
  5 12  1  0  0  0  0
  6 10  1  0  0  0  0
  6 11  1  0  0  0  0
  6 14  1  0  0  0  0
  7 29  1  0  0  0  0
  7 33  1  0  0  0  0
  7 60  1  0  0  0  0
  8 10  1  0  0  0  0
  8 34  1  0  0  0  0
  8 35  1  0  0  0  0
  9 11  1  0  0  0  0
  9 36  1  0  0  0  0
  9 37  1  0  0  0  0
 10 38  1  0  0  0  0
 10 39  1  0  0  0  0
 11 40  1  0  0  0  0
 11 41  1  0  0  0  0
 12 13  1  0  0  0  0
 12 42  1  0  0  0  0
 12 43  1  0  0  0  0
 13 15  1  0  0  0  0
 13 44  1  0  0  0  0
 13 45  1  0  0  0  0
 14 16  1  0  0  0  0
 14 17  2  0  0  0  0
 15 18  1  0  0  0  0
 15 46  1  0  0  0  0
 15 47  1  0  0  0  0
 16 19  2  0  0  0  0
 16 20  1  0  0  0  0
 17 21  1  0  0  0  0
 17 48  1  0  0  0  0
 18 49  1  0  0  0  0
 18 50  1  0  0  0  0
 19 22  1  0  0  0  0
 19 23  1  0  0  0  0
 20 24  2  0  0  0  0
 20 51  1  0  0  0  0
 21 22  2  0  0  0  0
 21 52  1  0  0  0  0
 22 53  1  0  0  0  0
 23 28  2  0  0  0  0
 23 54  1  0  0  0  0
 24 28  1  0  0  0  0
 24 55  1  0  0  0  0
 25 30  2  0  0  0  0
 25 31  1  0  0  0  0
 26 27  2  0  0  0  0
 26 29  1  0  0  0  0
 26 32  1  0  0  0  0
 27 30  1  0  0  0  0
 27 33  1  0  0  0  0
 29 56  1  0  0  0  0
 29 57  1  0  0  0  0
 31 32  2  0  0  0  0
 31 58  1  0  0  0  0
 32 59  1  0  0  0  0
M  END
> <PUBCHEM_COMPOUND_CID>
25069356

> <PUBCHEM_COMPOUND_CANONICALIZED>
1

> <PUBCHEM_CACTVS_COMPLEXITY>
659

> <PUBCHEM_CACTVS_HBOND_ACCEPTOR>
6

> <PUBCHEM_CACTVS_HBOND_DONOR>
1

> <PUBCHEM_CACTVS_ROTATABLE_BOND>
7

> <PUBCHEM_CACTVS_SUBSKEYS>
AAADceB7MYAAAAAAAAAAAAAAAAAAAWAAAAA8YMEAAAAAAFjBVAAAHwAQAAAADAzhmA4wxsPABACIAiVSUACCCAAlIgAIiIEObMgMZjLEtZuWOSjkxhHI6Qe+2JKOoAABQAASAABAAAKAACQAAAAAAAAAAA==

> <PUBCHEM_IUPAC_OPENEYE_NAME>
7-fluoro-6-[4-[4-(6-fluoro-1-naphthyl)piperazin-1-yl]butoxy]isoindolin-1-one

> <PUBCHEM_IUPAC_CAS_NAME>
7-fluoro-6-[4-[4-(6-fluoro-1-naphthalenyl)-1-piperazinyl]butoxy]-2,3-dihydroisoindol-1-one

> <PUBCHEM_IUPAC_NAME_MARKUP>
7-fluoro-6-[4-[4-(6-fluoronaphthalen-1-yl)piperazin-1-yl]butoxy]-2,3-dihydroisoindol-1-one

> <PUBCHEM_IUPAC_NAME>
7-fluoro-6-[4-[4-(6-fluoronaphthalen-1-yl)piperazin-1-yl]butoxy]-2,3-dihydroisoindol-1-one

> <PUBCHEM_IUPAC_SYSTEMATIC_NAME>
7-fluoranyl-6-[4-[4-(6-fluoranylnaphthalen-1-yl)piperazin-1-yl]butoxy]-2,3-dihydroisoindol-1-one

> <PUBCHEM_IUPAC_TRADITIONAL_NAME>
7-fluoro-6-[4-[4-(6-fluoro-1-naphthyl)piperazino]butoxy]isoindolin-1-one

> <PUBCHEM_IUPAC_INCHI>
InChI=1S/C26H27F2N3O2/c27-20-7-8-21-18(16-20)4-3-5-22(21)31-13-11-30(12-14-31)10-1-2-15-33-23-9-6-19-17-29-26(32)24(19)25(23)28/h3-9,16H,1-2,10-15,17H2,(H,29,32)

> <PUBCHEM_IUPAC_INCHIKEY>
KQAZKHAFHWSVKK-UHFFFAOYSA-N

> <PUBCHEM_XLOGP3_AA>
4.5

> <PUBCHEM_EXACT_MASS>
451.20713344

> <PUBCHEM_MOLECULAR_FORMULA>
C26H27F2N3O2

> <PUBCHEM_MOLECULAR_WEIGHT>
451.5

> <PUBCHEM_OPENEYE_CAN_SMILES>
C1CN(CCN1CCCCOC2=C(C3=C(CNC3=O)C=C2)F)C4=CC=CC5=C4C=CC(=C5)F

> <PUBCHEM_OPENEYE_ISO_SMILES>
C1CN(CCN1CCCCOC2=C(C3=C(CNC3=O)C=C2)F)C4=CC=CC5=C4C=CC(=C5)F

> <PUBCHEM_CACTVS_TPSA>
44.8

> <PUBCHEM_MONOISOTOPIC_WEIGHT>
451.20713344

> <PUBCHEM_TOTAL_CHARGE>
0

> <PUBCHEM_HEAVY_ATOM_COUNT>
33

> <PUBCHEM_ATOM_DEF_STEREO_COUNT>
0

> <PUBCHEM_ATOM_UDEF_STEREO_COUNT>
0

> <PUBCHEM_BOND_DEF_STEREO_COUNT>
0

> <PUBCHEM_BOND_UDEF_STEREO_COUNT>
0

> <PUBCHEM_ISOTOPIC_ATOM_COUNT>
0

> <PUBCHEM_COMPONENT_COUNT>
1

> <PUBCHEM_CACTVS_TAUTO_COUNT>
-1

> <PUBCHEM_COORDINATE_TYPE>
1
5
255

> <PUBCHEM_BONDANNOTATIONS>
14  16  8
14  17  8
16  19  8
16  20  8
17  21  8
19  22  8
19  23  8
20  24  8
21  22  8
23  28  8
24  28  8
25  30  8
25  31  8
26  27  8
26  32  8
27  30  8
31  32  8

$$$$
