71722298
  -OEChem-09292321592D

 53 56  0     1  0  0  0  0  0999 V2000
    9.3146    4.4729    0.0000 Cl  0  0  0  0  0  0  0  0  0  0  0  0
    2.3199    4.6515    0.0000 O   0  0  0  0  0  0  0  0  0  0  0  0
    0.5381    3.6410    0.0000 O   0  0  0  0  0  0  0  0  0  0  0  0
    3.1342    9.1481    0.0000 O   0  0  0  0  0  0  0  0  0  0  0  0
    5.7925    1.6200    0.0000 N   0  0  3  0  0  0  0  0  0  0  0  0
    4.9343    2.1169    0.0000 C   0  0  1  0  0  0  0  0  0  0  0  0
    4.9343    3.1169    0.0000 C   0  0  0  0  0  0  0  0  0  0  0  0
    4.0682    1.6169    0.0000 C   0  0  0  0  0  0  0  0  0  0  0  0
    4.0682    3.6169    0.0000 C   0  0  0  0  0  0  0  0  0  0  0  0
    5.8443    3.6237    0.0000 C   0  0  0  0  0  0  0  0  0  0  0  0
    6.6580    2.1041    0.0000 C   0  0  0  0  0  0  0  0  0  0  0  0
    6.6836    3.0955    0.0000 C   0  0  0  0  0  0  0  0  0  0  0  0
    3.2022    2.1169    0.0000 C   0  0  0  0  0  0  0  0  0  0  0  0
    3.2022    3.1169    0.0000 C   0  0  0  0  0  0  0  0  0  0  0  0
    4.0522    4.6584    0.0000 C   0  0  0  0  0  0  0  0  0  0  0  0
    5.8523    4.6653    0.0000 C   0  0  0  0  0  0  0  0  0  0  0  0
    5.7851    0.6200    0.0000 C   0  0  0  0  0  0  0  0  0  0  0  0
    4.9502    5.1861    0.0000 C   0  0  0  0  0  0  0  0  0  0  0  0
    2.3083    3.6516    0.0000 C   0  0  0  0  0  0  0  0  0  0  0  0
    3.1804    5.1483    0.0000 C   0  0  0  0  0  0  0  0  0  0  0  0
    2.3083    1.5822    0.0000 C   0  0  0  0  0  0  0  0  0  0  0  0
    1.4022    3.1377    0.0000 C   0  0  0  0  0  0  0  0  0  0  0  0
    1.4022    2.0961    0.0000 C   0  0  0  0  0  0  0  0  0  0  0  0
    3.1689    6.1483    0.0000 C   0  0  0  0  0  0  0  0  0  0  0  0
    4.0291    6.6583    0.0000 C   0  0  0  0  0  0  0  0  0  0  0  0
    2.2971    6.6382    0.0000 C   0  0  0  0  0  0  0  0  0  0  0  0
    4.0175    7.6582    0.0000 C   0  0  0  0  0  0  0  0  0  0  0  0
    2.2856    7.6382    0.0000 C   0  0  0  0  0  0  0  0  0  0  0  0
    3.1458    8.1481    0.0000 C   0  0  0  0  0  0  0  0  0  0  0  0
    4.9337    1.2669    0.0000 H   0  0  0  0  0  0  0  0  0  0  0  0
    3.6697    1.1419    0.0000 H   0  0  0  0  0  0  0  0  0  0  0  0
    4.4668    1.1419    0.0000 H   0  0  0  0  0  0  0  0  0  0  0  0
    6.8597    1.5179    0.0000 H   0  0  0  0  0  0  0  0  0  0  0  0
    7.2708    2.1985    0.0000 H   0  0  0  0  0  0  0  0  0  0  0  0
    7.2907    2.9696    0.0000 H   0  0  0  0  0  0  0  0  0  0  0  0
    6.9154    3.6706    0.0000 H   0  0  0  0  0  0  0  0  0  0  0  0
    6.3904    4.9733    0.0000 H   0  0  0  0  0  0  0  0  0  0  0  0
    5.1651    0.6246    0.0000 H   0  0  0  0  0  0  0  0  0  0  0  0
    5.7805    0.0000    0.0000 H   0  0  0  0  0  0  0  0  0  0  0  0
    6.4051    0.6154    0.0000 H   0  0  0  0  0  0  0  0  0  0  0  0
    4.9478    5.8061    0.0000 H   0  0  0  0  0  0  0  0  0  0  0  0
    2.5687    5.2489    0.0000 H   0  0  0  0  0  0  0  0  0  0  0  0
    2.9751    4.5633    0.0000 H   0  0  0  0  0  0  0  0  0  0  0  0
    2.3154    0.9623    0.0000 H   0  0  0  0  0  0  0  0  0  0  0  0
    0.8665    1.7840    0.0000 H   0  0  0  0  0  0  0  0  0  0  0  0
    1.7865    4.9677    0.0000 H   0  0  0  0  0  0  0  0  0  0  0  0
    4.5695    6.3545    0.0000 H   0  0  0  0  0  0  0  0  0  0  0  0
    1.7638    6.3220    0.0000 H   0  0  0  0  0  0  0  0  0  0  0  0
    0.0000    3.3331    0.0000 H   0  0  0  0  0  0  0  0  0  0  0  0
    4.5508    7.9744    0.0000 H   0  0  0  0  0  0  0  0  0  0  0  0
    1.7451    7.9419    0.0000 H   0  0  0  0  0  0  0  0  0  0  0  0
    2.5937    9.4518    0.0000 H   0  0  0  0  0  0  0  0  0  0  0  0
   10.3146    4.4729    0.0000 H   0  0  0  0  0  0  0  0  0  0  0  0
  1 53  1  0  0  0  0
  2 19  1  0  0  0  0
  2 46  1  0  0  0  0
  3 22  1  0  0  0  0
  3 49  1  0  0  0  0
  4 29  1  0  0  0  0
  4 52  1  0  0  0  0
  5  6  1  0  0  0  0
  5 11  1  0  0  0  0
  5 17  1  0  0  0  0
  6  7  1  0  0  0  0
  6  8  1  0  0  0  0
  6 30  1  1  0  0  0
  7  9  1  0  0  0  0
  7 10  2  0  0  0  0
  8 13  1  0  0  0  0
  8 31  1  0  0  0  0
  8 32  1  0  0  0  0
  9 14  1  0  0  0  0
  9 15  2  0  0  0  0
 10 12  1  0  0  0  0
 10 16  1  0  0  0  0
 11 12  1  0  0  0  0
 11 33  1  0  0  0  0
 11 34  1  0  0  0  0
 12 35  1  0  0  0  0
 12 36  1  0  0  0  0
 13 14  2  0  0  0  0
 13 21  1  0  0  0  0
 14 19  1  0  0  0  0
 15 18  1  0  0  0  0
 15 20  1  0  0  0  0
 16 18  2  0  0  0  0
 16 37  1  0  0  0  0
 17 38  1  0  0  0  0
 17 39  1  0  0  0  0
 17 40  1  0  0  0  0
 18 41  1  0  0  0  0
 19 22  2  0  0  0  0
 20 24  1  0  0  0  0
 20 42  1  0  0  0  0
 20 43  1  0  0  0  0
 21 23  2  0  0  0  0
 21 44  1  0  0  0  0
 22 23  1  0  0  0  0
 23 45  1  0  0  0  0
 24 25  2  0  0  0  0
 24 26  1  0  0  0  0
 25 27  1  0  0  0  0
 25 47  1  0  0  0  0
 26 28  2  0  0  0  0
 26 48  1  0  0  0  0
 27 29  2  0  0  0  0
 27 50  1  0  0  0  0
 28 29  1  0  0  0  0
 28 51  1  0  0  0  0
M  END
> <PUBCHEM_COMPOUND_CID>
71722298

> <PUBCHEM_COMPOUND_CANONICALIZED>
1

> <PUBCHEM_CACTVS_COMPLEXITY>
548

> <PUBCHEM_CACTVS_HBOND_ACCEPTOR>
4

> <PUBCHEM_CACTVS_HBOND_DONOR>
4

> <PUBCHEM_CACTVS_ROTATABLE_BOND>
2

> <PUBCHEM_CACTVS_SUBSKEYS>
AAADceB6MAAEAAAAAAAAAAAAAAAAAAAAAAA8YMGCAAAAAADxUAAAHgAACAAADCzBmAQyBoMAAgCAAiBCAACCAAAgIAAIiAAOjIgJJiKCkROEcAlkwBGJmAeQ0PMO4AADAAAYQADQAAaAADSAAAAAAAAAAA==

> <PUBCHEM_IUPAC_OPENEYE_NAME>
(6aR)-1-[(4-hydroxyphenyl)methyl]-6-methyl-5,6,6a,7-tetrahydro-4H-dibenzo[de,g]quinoline-10,11-diol;hydrochloride

> <PUBCHEM_IUPAC_CAS_NAME>
(6aR)-1-[(4-hydroxyphenyl)methyl]-6-methyl-5,6,6a,7-tetrahydro-4H-dibenzo[de,g]quinoline-10,11-diol;hydrochloride

> <PUBCHEM_IUPAC_NAME_MARKUP>
(6<I>a</I><I>R</I>)-1-[(4-hydroxyphenyl)methyl]-6-methyl-5,6,6<I>a</I>,7-tetrahydro-4<I>H</I>-dibenzo[de,g]quinoline-10,11-diol;hydrochloride

> <PUBCHEM_IUPAC_NAME>
(6aR)-1-[(4-hydroxyphenyl)methyl]-6-methyl-5,6,6a,7-tetrahydro-4H-dibenzo[de,g]quinoline-10,11-diol;hydrochloride

> <PUBCHEM_IUPAC_SYSTEMATIC_NAME>
(6aR)-1-[(4-hydroxyphenyl)methyl]-6-methyl-5,6,6a,7-tetrahydro-4H-dibenzo[de,g]quinoline-10,11-diol;hydrochloride

> <PUBCHEM_IUPAC_TRADITIONAL_NAME>
(6aR)-1-(4-hydroxybenzyl)-6-methyl-5,6,6a,7-tetrahydro-4H-dibenzo[de,g]quinoline-10,11-diol;hydrochloride

> <PUBCHEM_IUPAC_INCHI>
InChI=1S/C24H23NO3.ClH/c1-25-11-10-15-4-5-16(12-14-2-7-18(26)8-3-14)22-21(15)19(25)13-17-6-9-20(27)24(28)23(17)22;/h2-9,19,26-28H,10-13H2,1H3;1H/t19-;/m1./s1

> <PUBCHEM_IUPAC_INCHIKEY>
CEZDNVUWAICKSL-FSRHSHDFSA-N

> <PUBCHEM_EXACT_MASS>
409.1444713

> <PUBCHEM_MOLECULAR_FORMULA>
C24H24ClNO3

> <PUBCHEM_MOLECULAR_WEIGHT>
409.9

> <PUBCHEM_OPENEYE_CAN_SMILES>
CN1CCC2=C3C1CC4=C(C3=C(C=C2)CC5=CC=C(C=C5)O)C(=C(C=C4)O)O.Cl

> <PUBCHEM_OPENEYE_ISO_SMILES>
CN1CCC2=C3[C@H]1CC4=C(C3=C(C=C2)CC5=CC=C(C=C5)O)C(=C(C=C4)O)O.Cl

> <PUBCHEM_CACTVS_TPSA>
63.9

> <PUBCHEM_MONOISOTOPIC_WEIGHT>
409.1444713

> <PUBCHEM_TOTAL_CHARGE>
0

> <PUBCHEM_HEAVY_ATOM_COUNT>
29

> <PUBCHEM_ATOM_DEF_STEREO_COUNT>
1

> <PUBCHEM_ATOM_UDEF_STEREO_COUNT>
0

> <PUBCHEM_BOND_DEF_STEREO_COUNT>
0

> <PUBCHEM_BOND_UDEF_STEREO_COUNT>
0

> <PUBCHEM_ISOTOPIC_ATOM_COUNT>
0

> <PUBCHEM_COMPONENT_COUNT>
2

> <PUBCHEM_CACTVS_TAUTO_COUNT>
-1

> <PUBCHEM_COORDINATE_TYPE>
1
5
255

> <PUBCHEM_BONDANNOTATIONS>
10  16  8
13  14  8
13  21  8
14  19  8
15  18  8
16  18  8
19  22  8
21  23  8
22  23  8
24  25  8
24  26  8
25  27  8
26  28  8
27  29  8
28  29  8
6  30  5
7  10  8
7  9  8
9  15  8

$$$$
