121881
  -OEChem-09292322122D

 53 55  0     0  0  0  0  0  0999 V2000
    5.4641   -3.8450    0.0000 Cl  0  0  0  0  0  0  0  0  0  0  0  0
    6.3301   -0.3450    0.0000 O   0  0  0  0  0  0  0  0  0  0  0  0
    8.9561   -1.8103    0.0000 O   0  0  0  0  0  0  0  0  0  0  0  0
    8.0622   -0.3450    0.0000 O   0  0  0  0  0  0  0  0  0  0  0  0
    8.9561   -3.8797    0.0000 O   0  0  0  0  0  0  0  0  0  0  0  0
    3.7320    2.1550    0.0000 N   0  0  0  0  0  0  0  0  0  0  0  0
    7.1962   -4.8450    0.0000 N   0  0  0  0  0  0  0  0  0  0  0  0
    5.4641    1.1550    0.0000 C   0  0  0  0  0  0  0  0  0  0  0  0
    4.5981    0.6550    0.0000 C   0  0  0  0  0  0  0  0  0  0  0  0
    5.4641    2.1550    0.0000 C   0  0  0  0  0  0  0  0  0  0  0  0
    3.7320    1.1550    0.0000 C   0  0  0  0  0  0  0  0  0  0  0  0
    4.5981    2.6550    0.0000 C   0  0  0  0  0  0  0  0  0  0  0  0
    6.3301    0.6550    0.0000 C   0  0  0  0  0  0  0  0  0  0  0  0
    2.8660    2.6550    0.0000 C   0  0  0  0  0  0  0  0  0  0  0  0
    2.8660    3.6550    0.0000 C   0  0  0  0  0  0  0  0  0  0  0  0
    2.0000    4.1550    0.0000 C   0  0  0  0  0  0  0  0  0  0  0  0
    2.0000    5.1550    0.0000 C   0  0  0  0  0  0  0  0  0  0  0  0
    7.1962   -0.8450    0.0000 C   0  0  0  0  0  0  0  0  0  0  0  0
    7.1962   -1.8450    0.0000 C   0  0  0  0  0  0  0  0  0  0  0  0
    8.0622   -2.3450    0.0000 C   0  0  0  0  0  0  0  0  0  0  0  0
    8.0622   -3.3450    0.0000 C   0  0  0  0  0  0  0  0  0  0  0  0
    6.3301   -2.3450    0.0000 C   0  0  0  0  0  0  0  0  0  0  0  0
    7.1962   -3.8450    0.0000 C   0  0  0  0  0  0  0  0  0  0  0  0
    9.8622   -2.3242    0.0000 C   0  0  0  0  0  0  0  0  0  0  0  0
    6.3301   -3.3450    0.0000 C   0  0  0  0  0  0  0  0  0  0  0  0
    9.8622   -3.3658    0.0000 C   0  0  0  0  0  0  0  0  0  0  0  0
    5.4641    0.5350    0.0000 H   0  0  0  0  0  0  0  0  0  0  0  0
    4.1996    0.1801    0.0000 H   0  0  0  0  0  0  0  0  0  0  0  0
    4.9966    0.1801    0.0000 H   0  0  0  0  0  0  0  0  0  0  0  0
    6.0747    2.0473    0.0000 H   0  0  0  0  0  0  0  0  0  0  0  0
    5.6762    2.7376    0.0000 H   0  0  0  0  0  0  0  0  0  0  0  0
    3.1215    1.2627    0.0000 H   0  0  0  0  0  0  0  0  0  0  0  0
    3.5200    0.5724    0.0000 H   0  0  0  0  0  0  0  0  0  0  0  0
    4.9966    3.1300    0.0000 H   0  0  0  0  0  0  0  0  0  0  0  0
    4.1996    3.1300    0.0000 H   0  0  0  0  0  0  0  0  0  0  0  0
    6.9407    0.5473    0.0000 H   0  0  0  0  0  0  0  0  0  0  0  0
    6.5422    1.2376    0.0000 H   0  0  0  0  0  0  0  0  0  0  0  0
    2.2554    2.7627    0.0000 H   0  0  0  0  0  0  0  0  0  0  0  0
    2.6540    2.0724    0.0000 H   0  0  0  0  0  0  0  0  0  0  0  0
    3.4766    3.5473    0.0000 H   0  0  0  0  0  0  0  0  0  0  0  0
    3.0781    4.2376    0.0000 H   0  0  0  0  0  0  0  0  0  0  0  0
    1.3894    4.2627    0.0000 H   0  0  0  0  0  0  0  0  0  0  0  0
    1.7880    3.5724    0.0000 H   0  0  0  0  0  0  0  0  0  0  0  0
    2.6200    5.1550    0.0000 H   0  0  0  0  0  0  0  0  0  0  0  0
    2.0000    5.7750    0.0000 H   0  0  0  0  0  0  0  0  0  0  0  0
    1.3800    5.1550    0.0000 H   0  0  0  0  0  0  0  0  0  0  0  0
    5.7932   -2.0350    0.0000 H   0  0  0  0  0  0  0  0  0  0  0  0
   10.4730   -2.4303    0.0000 H   0  0  0  0  0  0  0  0  0  0  0  0
   10.0712   -1.7405    0.0000 H   0  0  0  0  0  0  0  0  0  0  0  0
   10.0712   -3.9495    0.0000 H   0  0  0  0  0  0  0  0  0  0  0  0
   10.4730   -3.2597    0.0000 H   0  0  0  0  0  0  0  0  0  0  0  0
    6.6592   -5.1550    0.0000 H   0  0  0  0  0  0  0  0  0  0  0  0
    7.7331   -5.1550    0.0000 H   0  0  0  0  0  0  0  0  0  0  0  0
  1 25  1  0  0  0  0
  2 13  1  0  0  0  0
  2 18  1  0  0  0  0
  3 20  1  0  0  0  0
  3 24  1  0  0  0  0
  4 18  2  0  0  0  0
  5 21  1  0  0  0  0
  5 26  1  0  0  0  0
  6 11  1  0  0  0  0
  6 12  1  0  0  0  0
  6 14  1  0  0  0  0
  7 23  1  0  0  0  0
  7 52  1  0  0  0  0
  7 53  1  0  0  0  0
  8  9  1  0  0  0  0
  8 10  1  0  0  0  0
  8 13  1  0  0  0  0
  8 27  1  0  0  0  0
  9 11  1  0  0  0  0
  9 28  1  0  0  0  0
  9 29  1  0  0  0  0
 10 12  1  0  0  0  0
 10 30  1  0  0  0  0
 10 31  1  0  0  0  0
 11 32  1  0  0  0  0
 11 33  1  0  0  0  0
 12 34  1  0  0  0  0
 12 35  1  0  0  0  0
 13 36  1  0  0  0  0
 13 37  1  0  0  0  0
 14 15  1  0  0  0  0
 14 38  1  0  0  0  0
 14 39  1  0  0  0  0
 15 16  1  0  0  0  0
 15 40  1  0  0  0  0
 15 41  1  0  0  0  0
 16 17  1  0  0  0  0
 16 42  1  0  0  0  0
 16 43  1  0  0  0  0
 17 44  1  0  0  0  0
 17 45  1  0  0  0  0
 17 46  1  0  0  0  0
 18 19  1  0  0  0  0
 19 20  1  0  0  0  0
 19 22  2  0  0  0  0
 20 21  2  0  0  0  0
 21 23  1  0  0  0  0
 22 25  1  0  0  0  0
 22 47  1  0  0  0  0
 23 25  2  0  0  0  0
 24 26  1  0  0  0  0
 24 48  1  0  0  0  0
 24 49  1  0  0  0  0
 26 50  1  0  0  0  0
 26 51  1  0  0  0  0
M  END
> <PUBCHEM_COMPOUND_CID>
121881

> <PUBCHEM_COMPOUND_CANONICALIZED>
1

> <PUBCHEM_CACTVS_COMPLEXITY>
459

> <PUBCHEM_CACTVS_HBOND_ACCEPTOR>
6

> <PUBCHEM_CACTVS_HBOND_DONOR>
1

> <PUBCHEM_CACTVS_ROTATABLE_BOND>
7

> <PUBCHEM_CACTVS_SUBSKEYS>
AAADceB7OAAEAAAAAAAAAAAAAAAAAAAAAAA8SIAAAAAAAACRAAAAHgIQAAAADQ7hmCYyzoNABACIAiTSSACCCAAkJQAAiAENzsgPJzaFtpuHOWLn4BmK6Yf62TGeCCABIwAIUBAQQAJGABCgIAAAAAAAAA==

> <PUBCHEM_IUPAC_OPENEYE_NAME>
(1-butyl-4-piperidyl)methyl 5-amino-6-chloro-2,3-dihydro-1,4-benzodioxine-8-carboxylate

> <PUBCHEM_IUPAC_CAS_NAME>
5-amino-6-chloro-2,3-dihydro-1,4-benzodioxin-8-carboxylic acid (1-butyl-4-piperidinyl)methyl ester

> <PUBCHEM_IUPAC_NAME_MARKUP>
(1-butylpiperidin-4-yl)methyl 5-amino-6-chloro-2,3-dihydro-1,4-benzodioxine-8-carboxylate

> <PUBCHEM_IUPAC_NAME>
(1-butylpiperidin-4-yl)methyl 5-amino-6-chloro-2,3-dihydro-1,4-benzodioxine-8-carboxylate

> <PUBCHEM_IUPAC_SYSTEMATIC_NAME>
(1-butylpiperidin-4-yl)methyl 5-azanyl-6-chloranyl-2,3-dihydro-1,4-benzodioxine-8-carboxylate

> <PUBCHEM_IUPAC_TRADITIONAL_NAME>
5-amino-6-chloro-2,3-dihydro-1,4-benzodioxin-8-carboxylic acid (1-butyl-4-piperidyl)methyl ester

> <PUBCHEM_IUPAC_INCHI>
InChI=1S/C19H27ClN2O4/c1-2-3-6-22-7-4-13(5-8-22)12-26-19(23)14-11-15(20)16(21)18-17(14)24-9-10-25-18/h11,13H,2-10,12,21H2,1H3

> <PUBCHEM_IUPAC_INCHIKEY>
AOOSJYIINXVNHV-UHFFFAOYSA-N

> <PUBCHEM_XLOGP3_AA>
3.5

> <PUBCHEM_EXACT_MASS>
382.1659350

> <PUBCHEM_MOLECULAR_FORMULA>
C19H27ClN2O4

> <PUBCHEM_MOLECULAR_WEIGHT>
382.9

> <PUBCHEM_OPENEYE_CAN_SMILES>
CCCCN1CCC(CC1)COC(=O)C2=CC(=C(C3=C2OCCO3)N)Cl

> <PUBCHEM_OPENEYE_ISO_SMILES>
CCCCN1CCC(CC1)COC(=O)C2=CC(=C(C3=C2OCCO3)N)Cl

> <PUBCHEM_CACTVS_TPSA>
74

> <PUBCHEM_MONOISOTOPIC_WEIGHT>
382.1659350

> <PUBCHEM_TOTAL_CHARGE>
0

> <PUBCHEM_HEAVY_ATOM_COUNT>
26

> <PUBCHEM_ATOM_DEF_STEREO_COUNT>
0

> <PUBCHEM_ATOM_UDEF_STEREO_COUNT>
0

> <PUBCHEM_BOND_DEF_STEREO_COUNT>
0

> <PUBCHEM_BOND_UDEF_STEREO_COUNT>
0

> <PUBCHEM_ISOTOPIC_ATOM_COUNT>
0

> <PUBCHEM_COMPONENT_COUNT>
1

> <PUBCHEM_CACTVS_TAUTO_COUNT>
3

> <PUBCHEM_COORDINATE_TYPE>
1
5
255

> <PUBCHEM_BONDANNOTATIONS>
19  20  8
19  22  8
20  21  8
21  23  8
22  25  8
23  25  8

$$$$
