122180622
  -OEChem-09292322362D

 70 75  0     1  0  0  0  0  0999 V2000
   11.4290    0.2649    0.0000 O   0  0  0  0  0  0  0  0  0  0  0  0
   14.0940    3.2478    0.0000 O   0  0  0  0  0  0  0  0  0  0  0  0
   13.3869   -0.1433    0.0000 N   0  0  0  0  0  0  0  0  0  0  0  0
   14.7194    1.3481    0.0000 N   0  0  0  0  0  0  0  0  0  0  0  0
    9.4302   -1.9722    0.0000 N   0  0  0  0  0  0  0  0  0  0  0  0
    9.6419   -2.9496    0.0000 N   0  0  0  0  0  0  0  0  0  0  0  0
    8.7778   -3.4529    0.0000 N   0  0  0  0  0  0  0  0  0  0  0  0
   14.3658   -0.3475    0.0000 C   0  0  0  0  0  0  0  0  0  0  0  0
   13.0742    0.8065    0.0000 C   0  0  0  0  0  0  0  0  0  0  0  0
   15.0321    0.3982    0.0000 C   0  0  0  0  0  0  0  0  0  0  0  0
   13.7404    1.5522    0.0000 C   0  0  0  0  0  0  0  0  0  0  0  0
   12.7206   -0.8891    0.0000 C   0  0  0  0  0  0  0  0  0  0  0  0
   11.7417   -0.6849    0.0000 C   0  0  3  0  0  0  0  0  0  0  0  0
   11.0754   -1.4306    0.0000 C   0  0  0  0  0  0  0  0  0  0  0  0
   15.3856    2.0938    0.0000 C   0  0  0  0  0  0  0  0  0  0  0  0
   10.0964   -1.2265    0.0000 C   0  0  0  0  0  0  0  0  0  0  0  0
   15.0730    3.0437    0.0000 C   0  0  0  0  0  0  0  0  0  0  0  0
   16.3646    1.8897    0.0000 C   0  0  0  0  0  0  0  0  0  0  0  0
    5.3364   -2.4619    0.0000 C   0  0  0  0  0  0  0  0  0  0  0  0
    4.5274   -1.8741    0.0000 C   0  0  0  0  0  0  0  0  0  0  0  0
    5.0274   -3.4129    0.0000 C   0  0  0  0  0  0  0  0  0  0  0  0
    3.7183   -2.4619    0.0000 C   0  0  0  0  0  0  0  0  0  0  0  0
    4.0274   -3.4129    0.0000 C   0  0  0  0  0  0  0  0  0  0  0  0
    7.0547   -2.9983    0.0000 C   0  0  0  0  0  0  0  0  0  0  0  0
    6.3518   -2.2296    0.0000 C   0  0  0  0  0  0  0  0  0  0  0  0
    8.4353   -1.8715    0.0000 C   0  0  0  0  0  0  0  0  0  0  0  0
    8.0321   -2.7866    0.0000 C   0  0  0  0  0  0  0  0  0  0  0  0
   15.7392    3.7894    0.0000 C   0  0  0  0  0  0  0  0  0  0  0  0
    5.7123   -4.1977    0.0000 C   0  0  0  0  0  0  0  0  0  0  0  0
   17.0308    2.6354    0.0000 C   0  0  0  0  0  0  0  0  0  0  0  0
    6.7328   -3.9890    0.0000 C   0  0  0  0  0  0  0  0  0  0  0  0
    2.7029   -2.2296    0.0000 C   0  0  0  0  0  0  0  0  0  0  0  0
   16.7182    3.5852    0.0000 C   0  0  0  0  0  0  0  0  0  0  0  0
    3.3424   -4.1977    0.0000 C   0  0  0  0  0  0  0  0  0  0  0  0
    2.0000   -2.9983    0.0000 C   0  0  0  0  0  0  0  0  0  0  0  0
    2.3219   -3.9890    0.0000 C   0  0  0  0  0  0  0  0  0  0  0  0
   13.7813    4.1977    0.0000 C   0  0  0  0  0  0  0  0  0  0  0  0
   14.1358   -0.9232    0.0000 H   0  0  0  0  0  0  0  0  0  0  0  0
   14.8928   -0.6740    0.0000 H   0  0  0  0  0  0  0  0  0  0  0  0
   12.6906    1.2936    0.0000 H   0  0  0  0  0  0  0  0  0  0  0  0
   12.5279    0.5133    0.0000 H   0  0  0  0  0  0  0  0  0  0  0  0
   15.4156   -0.0889    0.0000 H   0  0  0  0  0  0  0  0  0  0  0  0
   15.5784    0.6914    0.0000 H   0  0  0  0  0  0  0  0  0  0  0  0
   13.9705    2.1280    0.0000 H   0  0  0  0  0  0  0  0  0  0  0  0
   13.2134    1.8788    0.0000 H   0  0  0  0  0  0  0  0  0  0  0  0
   12.4906   -1.4648    0.0000 H   0  0  0  0  0  0  0  0  0  0  0  0
   13.2476   -1.2156    0.0000 H   0  0  0  0  0  0  0  0  0  0  0  0
   11.1347   -0.5584    0.0000 H   0  0  0  0  0  0  0  0  0  0  0  0
   10.8454   -2.0064    0.0000 H   0  0  0  0  0  0  0  0  0  0  0  0
   11.6024   -1.7572    0.0000 H   0  0  0  0  0  0  0  0  0  0  0  0
   10.3265   -0.6508    0.0000 H   0  0  0  0  0  0  0  0  0  0  0  0
    9.5694   -0.9000    0.0000 H   0  0  0  0  0  0  0  0  0  0  0  0
   10.8220    0.3915    0.0000 H   0  0  0  0  0  0  0  0  0  0  0  0
   16.5584    1.3008    0.0000 H   0  0  0  0  0  0  0  0  0  0  0  0
    4.9422   -1.4133    0.0000 H   0  0  0  0  0  0  0  0  0  0  0  0
    4.1125   -1.4133    0.0000 H   0  0  0  0  0  0  0  0  0  0  0  0
    6.5365   -1.6378    0.0000 H   0  0  0  0  0  0  0  0  0  0  0  0
    8.1232   -1.3358    0.0000 H   0  0  0  0  0  0  0  0  0  0  0  0
   15.5454    4.3783    0.0000 H   0  0  0  0  0  0  0  0  0  0  0  0
    5.5139   -4.7851    0.0000 H   0  0  0  0  0  0  0  0  0  0  0  0
   17.6378    2.5088    0.0000 H   0  0  0  0  0  0  0  0  0  0  0  0
    7.1459   -4.4513    0.0000 H   0  0  0  0  0  0  0  0  0  0  0  0
    2.5182   -1.6378    0.0000 H   0  0  0  0  0  0  0  0  0  0  0  0
    3.5408   -4.7851    0.0000 H   0  0  0  0  0  0  0  0  0  0  0  0
   17.1312    4.0476    0.0000 H   0  0  0  0  0  0  0  0  0  0  0  0
    1.3940   -2.8671    0.0000 H   0  0  0  0  0  0  0  0  0  0  0  0
    1.9088   -4.4513    0.0000 H   0  0  0  0  0  0  0  0  0  0  0  0
   14.3702    4.3915    0.0000 H   0  0  0  0  0  0  0  0  0  0  0  0
   13.5875    4.7866    0.0000 H   0  0  0  0  0  0  0  0  0  0  0  0
   13.1924    4.0038    0.0000 H   0  0  0  0  0  0  0  0  0  0  0  0
  1 13  1  0  0  0  0
  1 53  1  0  0  0  0
  2 17  1  0  0  0  0
  2 37  1  0  0  0  0
  3  8  1  0  0  0  0
  3  9  1  0  0  0  0
  3 12  1  0  0  0  0
  4 10  1  0  0  0  0
  4 11  1  0  0  0  0
  4 15  1  0  0  0  0
  5  6  1  0  0  0  0
  5 16  1  0  0  0  0
  5 26  1  0  0  0  0
  6  7  2  0  0  0  0
  7 27  1  0  0  0  0
  8 10  1  0  0  0  0
  8 38  1  0  0  0  0
  8 39  1  0  0  0  0
  9 11  1  0  0  0  0
  9 40  1  0  0  0  0
  9 41  1  0  0  0  0
 10 42  1  0  0  0  0
 10 43  1  0  0  0  0
 11 44  1  0  0  0  0
 11 45  1  0  0  0  0
 12 13  1  0  0  0  0
 12 46  1  0  0  0  0
 12 47  1  0  0  0  0
 13 14  1  0  0  0  0
 13 48  1  0  0  0  0
 14 16  1  0  0  0  0
 14 49  1  0  0  0  0
 14 50  1  0  0  0  0
 15 17  1  0  0  0  0
 15 18  2  0  0  0  0
 16 51  1  0  0  0  0
 16 52  1  0  0  0  0
 17 28  2  0  0  0  0
 18 30  1  0  0  0  0
 18 54  1  0  0  0  0
 19 20  1  0  0  0  0
 19 21  2  0  0  0  0
 19 25  1  0  0  0  0
 20 22  1  0  0  0  0
 20 55  1  0  0  0  0
 20 56  1  0  0  0  0
 21 23  1  0  0  0  0
 21 29  1  0  0  0  0
 22 23  1  0  0  0  0
 22 32  2  0  0  0  0
 23 34  2  0  0  0  0
 24 25  2  0  0  0  0
 24 27  1  0  0  0  0
 24 31  1  0  0  0  0
 25 57  1  0  0  0  0
 26 27  2  0  0  0  0
 26 58  1  0  0  0  0
 28 33  1  0  0  0  0
 28 59  1  0  0  0  0
 29 31  2  0  0  0  0
 29 60  1  0  0  0  0
 30 33  2  0  0  0  0
 30 61  1  0  0  0  0
 31 62  1  0  0  0  0
 32 35  1  0  0  0  0
 32 63  1  0  0  0  0
 33 65  1  0  0  0  0
 34 36  1  0  0  0  0
 34 64  1  0  0  0  0
 35 36  2  0  0  0  0
 35 66  1  0  0  0  0
 36 67  1  0  0  0  0
 37 68  1  0  0  0  0
 37 69  1  0  0  0  0
 37 70  1  0  0  0  0
M  END
> <PUBCHEM_COMPOUND_CID>
122180622

> <PUBCHEM_COMPOUND_CANONICALIZED>
1

> <PUBCHEM_CACTVS_COMPLEXITY>
718

> <PUBCHEM_CACTVS_HBOND_ACCEPTOR>
6

> <PUBCHEM_CACTVS_HBOND_DONOR>
1

> <PUBCHEM_CACTVS_ROTATABLE_BOND>
8

> <PUBCHEM_CACTVS_SUBSKEYS>
AAADcfB7sAAAAAAAAAAAAAAAAAAAAeIAAAA8YMEAAAAAAGAB1AAAHgAICAAADBzhngY+xpMIBgCiAzRnRACCDAQxsgAY2CA/fJgOdqLEsZuVcChmwBHY6AeQwMAOwAACAAAQEACAAAQAACAgAQAACAAAAA==

> <PUBCHEM_IUPAC_OPENEYE_NAME>
4-[4-(9H-fluoren-2-yl)triazol-1-yl]-1-[4-(2-methoxyphenyl)piperazin-1-yl]butan-2-ol

> <PUBCHEM_IUPAC_CAS_NAME>
4-[4-(9H-fluoren-2-yl)-1-triazolyl]-1-[4-(2-methoxyphenyl)-1-piperazinyl]-2-butanol

> <PUBCHEM_IUPAC_NAME_MARKUP>
4-[4-(9<I>H</I>-fluoren-2-yl)triazol-1-yl]-1-[4-(2-methoxyphenyl)piperazin-1-yl]butan-2-ol

> <PUBCHEM_IUPAC_NAME>
4-[4-(9H-fluoren-2-yl)triazol-1-yl]-1-[4-(2-methoxyphenyl)piperazin-1-yl]butan-2-ol

> <PUBCHEM_IUPAC_SYSTEMATIC_NAME>
4-[4-(9H-fluoren-2-yl)-1,2,3-triazol-1-yl]-1-[4-(2-methoxyphenyl)piperazin-1-yl]butan-2-ol

> <PUBCHEM_IUPAC_TRADITIONAL_NAME>
4-[4-(9H-fluoren-2-yl)triazol-1-yl]-1-[4-(2-methoxyphenyl)piperazino]butan-2-ol

> <PUBCHEM_IUPAC_INCHI>
InChI=1S/C30H33N5O2/c1-37-30-9-5-4-8-29(30)34-16-14-33(15-17-34)20-25(36)12-13-35-21-28(31-32-35)23-10-11-27-24(19-23)18-22-6-2-3-7-26(22)27/h2-11,19,21,25,36H,12-18,20H2,1H3

> <PUBCHEM_IUPAC_INCHIKEY>
ZDGYKEJTDUCVRG-UHFFFAOYSA-N

> <PUBCHEM_XLOGP3_AA>
4.3

> <PUBCHEM_EXACT_MASS>
495.26342531

> <PUBCHEM_MOLECULAR_FORMULA>
C30H33N5O2

> <PUBCHEM_MOLECULAR_WEIGHT>
495.6

> <PUBCHEM_OPENEYE_CAN_SMILES>
COC1=CC=CC=C1N2CCN(CC2)CC(CCN3C=C(N=N3)C4=CC5=C(C=C4)C6=CC=CC=C6C5)O

> <PUBCHEM_OPENEYE_ISO_SMILES>
COC1=CC=CC=C1N2CCN(CC2)CC(CCN3C=C(N=N3)C4=CC5=C(C=C4)C6=CC=CC=C6C5)O

> <PUBCHEM_CACTVS_TPSA>
66.6

> <PUBCHEM_MONOISOTOPIC_WEIGHT>
495.26342531

> <PUBCHEM_TOTAL_CHARGE>
0

> <PUBCHEM_HEAVY_ATOM_COUNT>
37

> <PUBCHEM_ATOM_DEF_STEREO_COUNT>
0

> <PUBCHEM_ATOM_UDEF_STEREO_COUNT>
1

> <PUBCHEM_BOND_DEF_STEREO_COUNT>
0

> <PUBCHEM_BOND_UDEF_STEREO_COUNT>
0

> <PUBCHEM_ISOTOPIC_ATOM_COUNT>
0

> <PUBCHEM_COMPONENT_COUNT>
1

> <PUBCHEM_CACTVS_TAUTO_COUNT>
-1

> <PUBCHEM_COORDINATE_TYPE>
1
5
255

> <PUBCHEM_BONDANNOTATIONS>
13  1  3
15  17  8
15  18  8
17  28  8
18  30  8
19  21  8
19  25  8
21  29  8
22  23  8
22  32  8
23  34  8
24  25  8
24  31  8
26  27  8
28  33  8
29  31  8
30  33  8
32  35  8
34  36  8
35  36  8
5  26  8
5  6  8
6  7  8
7  27  8

$$$$
