44582518
  -OEChem-09292322232D

 56 59  0     0  0  0  0  0  0999 V2000
    3.9777   -2.2778    0.0000 Cl  0  0  0  0  0  0  0  0  0  0  0  0
    2.0000   -1.9797    0.0000 Cl  0  0  0  0  0  0  0  0  0  0  0  0
   11.6244   -0.9441    0.0000 O   0  0  0  0  0  0  0  0  0  0  0  0
    7.2023   -1.0122    0.0000 N   0  0  0  0  0  0  0  0  0  0  0  0
    5.2246   -0.7141    0.0000 N   0  0  0  0  0  0  0  0  0  0  0  0
   10.4269    0.2533    0.0000 N   0  0  0  0  0  0  0  0  0  0  0  0
    6.8370   -0.0814    0.0000 C   0  0  0  0  0  0  0  0  0  0  0  0
    6.5788   -1.7941    0.0000 C   0  0  0  0  0  0  0  0  0  0  0  0
    8.1911   -1.1613    0.0000 C   0  0  0  0  0  0  0  0  0  0  0  0
    5.8481    0.0677    0.0000 C   0  0  0  0  0  0  0  0  0  0  0  0
    5.5900   -1.6450    0.0000 C   0  0  0  0  0  0  0  0  0  0  0  0
    8.8146   -0.3794    0.0000 C   0  0  0  0  0  0  0  0  0  0  0  0
    9.8034   -0.5285    0.0000 C   0  0  0  0  0  0  0  0  0  0  0  0
    9.9931    1.1543    0.0000 C   0  0  0  0  0  0  0  0  0  0  0  0
   10.4269    2.0553    0.0000 C   0  0  0  0  0  0  0  0  0  0  0  0
    4.2358   -0.5651    0.0000 C   0  0  0  0  0  0  0  0  0  0  0  0
   11.4019    2.2778    0.0000 C   0  0  0  0  0  0  0  0  0  0  0  0
   11.4019    0.0308    0.0000 C   0  0  0  0  0  0  0  0  0  0  0  0
   12.1837    1.6543    0.0000 C   0  0  0  0  0  0  0  0  0  0  0  0
   12.1837    0.6543    0.0000 C   0  0  0  0  0  0  0  0  0  0  0  0
    3.6123   -1.3469    0.0000 C   0  0  0  0  0  0  0  0  0  0  0  0
    3.8705    0.3658    0.0000 C   0  0  0  0  0  0  0  0  0  0  0  0
   13.0776    2.1890    0.0000 C   0  0  0  0  0  0  0  0  0  0  0  0
   13.0776    0.1197    0.0000 C   0  0  0  0  0  0  0  0  0  0  0  0
    2.6235   -1.1979    0.0000 C   0  0  0  0  0  0  0  0  0  0  0  0
    2.8816    0.5148    0.0000 C   0  0  0  0  0  0  0  0  0  0  0  0
   13.9837    1.6751    0.0000 C   0  0  0  0  0  0  0  0  0  0  0  0
   13.9837    0.6335    0.0000 C   0  0  0  0  0  0  0  0  0  0  0  0
    2.2582   -0.2670    0.0000 C   0  0  0  0  0  0  0  0  0  0  0  0
    7.4447    0.0415    0.0000 H   0  0  0  0  0  0  0  0  0  0  0  0
    6.8215    0.5385    0.0000 H   0  0  0  0  0  0  0  0  0  0  0  0
    6.3814   -2.3818    0.0000 H   0  0  0  0  0  0  0  0  0  0  0  0
    7.1233   -2.0906    0.0000 H   0  0  0  0  0  0  0  0  0  0  0  0
    7.9937   -1.7490    0.0000 H   0  0  0  0  0  0  0  0  0  0  0  0
    8.7356   -1.4578    0.0000 H   0  0  0  0  0  0  0  0  0  0  0  0
    6.0456    0.6554    0.0000 H   0  0  0  0  0  0  0  0  0  0  0  0
    5.3036    0.3642    0.0000 H   0  0  0  0  0  0  0  0  0  0  0  0
    4.9823   -1.7679    0.0000 H   0  0  0  0  0  0  0  0  0  0  0  0
    5.6054   -2.2648    0.0000 H   0  0  0  0  0  0  0  0  0  0  0  0
    9.0121    0.2083    0.0000 H   0  0  0  0  0  0  0  0  0  0  0  0
    8.2701   -0.0829    0.0000 H   0  0  0  0  0  0  0  0  0  0  0  0
    9.6060   -1.1162    0.0000 H   0  0  0  0  0  0  0  0  0  0  0  0
   10.3480   -0.8250    0.0000 H   0  0  0  0  0  0  0  0  0  0  0  0
    9.5083    1.5409    0.0000 H   0  0  0  0  0  0  0  0  0  0  0  0
    9.5083    0.7678    0.0000 H   0  0  0  0  0  0  0  0  0  0  0  0
   10.4269    2.6753    0.0000 H   0  0  0  0  0  0  0  0  0  0  0  0
    9.8225    2.1932    0.0000 H   0  0  0  0  0  0  0  0  0  0  0  0
   11.8866    2.6644    0.0000 H   0  0  0  0  0  0  0  0  0  0  0  0
   11.1329    2.8364    0.0000 H   0  0  0  0  0  0  0  0  0  0  0  0
    4.2570    0.8505    0.0000 H   0  0  0  0  0  0  0  0  0  0  0  0
   13.0705    2.8089    0.0000 H   0  0  0  0  0  0  0  0  0  0  0  0
   13.0705   -0.5003    0.0000 H   0  0  0  0  0  0  0  0  0  0  0  0
    2.6551    1.0920    0.0000 H   0  0  0  0  0  0  0  0  0  0  0  0
   14.5194    1.9872    0.0000 H   0  0  0  0  0  0  0  0  0  0  0  0
   14.5194    0.3214    0.0000 H   0  0  0  0  0  0  0  0  0  0  0  0
    1.6451   -0.1746    0.0000 H   0  0  0  0  0  0  0  0  0  0  0  0
  1 21  1  0  0  0  0
  2 25  1  0  0  0  0
  3 18  2  0  0  0  0
  4  7  1  0  0  0  0
  4  8  1  0  0  0  0
  4  9  1  0  0  0  0
  5 10  1  0  0  0  0
  5 11  1  0  0  0  0
  5 16  1  0  0  0  0
  6 13  1  0  0  0  0
  6 14  1  0  0  0  0
  6 18  1  0  0  0  0
  7 10  1  0  0  0  0
  7 30  1  0  0  0  0
  7 31  1  0  0  0  0
  8 11  1  0  0  0  0
  8 32  1  0  0  0  0
  8 33  1  0  0  0  0
  9 12  1  0  0  0  0
  9 34  1  0  0  0  0
  9 35  1  0  0  0  0
 10 36  1  0  0  0  0
 10 37  1  0  0  0  0
 11 38  1  0  0  0  0
 11 39  1  0  0  0  0
 12 13  1  0  0  0  0
 12 40  1  0  0  0  0
 12 41  1  0  0  0  0
 13 42  1  0  0  0  0
 13 43  1  0  0  0  0
 14 15  1  0  0  0  0
 14 44  1  0  0  0  0
 14 45  1  0  0  0  0
 15 17  1  0  0  0  0
 15 46  1  0  0  0  0
 15 47  1  0  0  0  0
 16 21  2  0  0  0  0
 16 22  1  0  0  0  0
 17 19  1  0  0  0  0
 17 48  1  0  0  0  0
 17 49  1  0  0  0  0
 18 20  1  0  0  0  0
 19 20  1  0  0  0  0
 19 23  2  0  0  0  0
 20 24  2  0  0  0  0
 21 25  1  0  0  0  0
 22 26  2  0  0  0  0
 22 50  1  0  0  0  0
 23 27  1  0  0  0  0
 23 51  1  0  0  0  0
 24 28  1  0  0  0  0
 24 52  1  0  0  0  0
 25 29  2  0  0  0  0
 26 29  1  0  0  0  0
 26 53  1  0  0  0  0
 27 28  2  0  0  0  0
 27 54  1  0  0  0  0
 28 55  1  0  0  0  0
 29 56  1  0  0  0  0
M  END
> <PUBCHEM_COMPOUND_CID>
44582518

> <PUBCHEM_COMPOUND_CANONICALIZED>
1

> <PUBCHEM_CACTVS_COMPLEXITY>
540

> <PUBCHEM_CACTVS_HBOND_ACCEPTOR>
3

> <PUBCHEM_CACTVS_HBOND_DONOR>
0

> <PUBCHEM_CACTVS_ROTATABLE_BOND>
5

> <PUBCHEM_CACTVS_SUBSKEYS>
AAADceB7IAAGAAAAAAAAAAAAAAAAAAAAAAA8YIAABYAAAAABQAAAHgIAAAAADArBmCQwwIMAAACIAiVSUACCAAAlBwAIikEIZsgIYDLB15HUIQhghgDIyYcYiICOgAAAAAIQABQAAAAABCAAKAAAAAAAAA==

> <PUBCHEM_IUPAC_OPENEYE_NAME>
2-[3-[4-(2,3-dichlorophenyl)piperazin-1-yl]propyl]-4,5-dihydro-3H-2-benzazepin-1-one

> <PUBCHEM_IUPAC_CAS_NAME>
2-[3-[4-(2,3-dichlorophenyl)-1-piperazinyl]propyl]-4,5-dihydro-3H-2-benzazepin-1-one

> <PUBCHEM_IUPAC_NAME_MARKUP>
2-[3-[4-(2,3-dichlorophenyl)piperazin-1-yl]propyl]-4,5-dihydro-3<I>H</I>-2-benzazepin-1-one

> <PUBCHEM_IUPAC_NAME>
2-[3-[4-(2,3-dichlorophenyl)piperazin-1-yl]propyl]-4,5-dihydro-3H-2-benzazepin-1-one

> <PUBCHEM_IUPAC_SYSTEMATIC_NAME>
2-[3-[4-[2,3-bis(chloranyl)phenyl]piperazin-1-yl]propyl]-4,5-dihydro-3H-2-benzazepin-1-one

> <PUBCHEM_IUPAC_TRADITIONAL_NAME>
2-[3-[4-(2,3-dichlorophenyl)piperazino]propyl]-4,5-dihydro-3H-2-benzazepin-1-one

> <PUBCHEM_IUPAC_INCHI>
InChI=1S/C23H27Cl2N3O/c24-20-9-3-10-21(22(20)25)27-16-14-26(15-17-27)11-5-13-28-12-4-7-18-6-1-2-8-19(18)23(28)29/h1-3,6,8-10H,4-5,7,11-17H2

> <PUBCHEM_IUPAC_INCHIKEY>
LVXZELAZCGYHRC-UHFFFAOYSA-N

> <PUBCHEM_XLOGP3_AA>
5

> <PUBCHEM_EXACT_MASS>
431.1531179

> <PUBCHEM_MOLECULAR_FORMULA>
C23H27Cl2N3O

> <PUBCHEM_MOLECULAR_WEIGHT>
432.4

> <PUBCHEM_OPENEYE_CAN_SMILES>
C1CC2=CC=CC=C2C(=O)N(C1)CCCN3CCN(CC3)C4=C(C(=CC=C4)Cl)Cl

> <PUBCHEM_OPENEYE_ISO_SMILES>
C1CC2=CC=CC=C2C(=O)N(C1)CCCN3CCN(CC3)C4=C(C(=CC=C4)Cl)Cl

> <PUBCHEM_CACTVS_TPSA>
26.8

> <PUBCHEM_MONOISOTOPIC_WEIGHT>
431.1531179

> <PUBCHEM_TOTAL_CHARGE>
0

> <PUBCHEM_HEAVY_ATOM_COUNT>
29

> <PUBCHEM_ATOM_DEF_STEREO_COUNT>
0

> <PUBCHEM_ATOM_UDEF_STEREO_COUNT>
0

> <PUBCHEM_BOND_DEF_STEREO_COUNT>
0

> <PUBCHEM_BOND_UDEF_STEREO_COUNT>
0

> <PUBCHEM_ISOTOPIC_ATOM_COUNT>
0

> <PUBCHEM_COMPONENT_COUNT>
1

> <PUBCHEM_CACTVS_TAUTO_COUNT>
-1

> <PUBCHEM_COORDINATE_TYPE>
1
5
255

> <PUBCHEM_BONDANNOTATIONS>
16  21  8
16  22  8
19  20  8
19  23  8
20  24  8
21  25  8
22  26  8
23  27  8
24  28  8
25  29  8
26  29  8
27  28  8

$$$$
