101885477
  -OEChem-09292322002D

134137  0     1  0  0  0  0  0999 V2000
   14.0561   -6.2500    0.0000 O   0  0  0  0  0  0  0  0  0  0  0  0
    9.7260    6.2500    0.0000 O   0  0  0  0  0  0  0  0  0  0  0  0
   21.7821  -12.7500    0.0000 O   0  0  0  0  0  0  0  0  0  0  0  0
    2.0000   12.7500    0.0000 O   0  0  0  0  0  0  0  0  0  0  0  0
   17.5202   -9.2500    0.0000 N   0  0  3  0  0  0  0  0  0  0  0  0
    6.2619    9.2500    0.0000 N   0  0  3  0  0  0  0  0  0  0  0  0
   15.7882   -6.2500    0.0000 N   0  0  0  0  0  0  0  0  0  0  0  0
    7.9939    6.2500    0.0000 N   0  0  0  0  0  0  0  0  0  0  0  0
   20.1985  -13.5547    0.0000 N   0  0  0  0  0  0  0  0  0  0  0  0
    3.5836   13.5547    0.0000 N   0  0  0  0  0  0  0  0  0  0  0  0
   12.3241   -0.2500    0.0000 C   0  0  0  0  0  0  0  0  0  0  0  0
   11.4580    0.2500    0.0000 C   0  0  0  0  0  0  0  0  0  0  0  0
   12.3241   -1.2500    0.0000 C   0  0  0  0  0  0  0  0  0  0  0  0
   11.4580    1.2500    0.0000 C   0  0  0  0  0  0  0  0  0  0  0  0
   13.1901   -1.7500    0.0000 C   0  0  0  0  0  0  0  0  0  0  0  0
   10.5920    1.7500    0.0000 C   0  0  0  0  0  0  0  0  0  0  0  0
   13.1901   -2.7500    0.0000 C   0  0  0  0  0  0  0  0  0  0  0  0
   10.5920    2.7500    0.0000 C   0  0  0  0  0  0  0  0  0  0  0  0
   14.0561   -3.2500    0.0000 C   0  0  0  0  0  0  0  0  0  0  0  0
    9.7260    3.2500    0.0000 C   0  0  0  0  0  0  0  0  0  0  0  0
   17.5202  -10.2500    0.0000 C   0  0  0  0  0  0  0  0  0  0  0  0
    6.2619   10.2500    0.0000 C   0  0  0  0  0  0  0  0  0  0  0  0
   16.6542   -8.7500    0.0000 C   0  0  0  0  0  0  0  0  0  0  0  0
    7.1279    8.7500    0.0000 C   0  0  0  0  0  0  0  0  0  0  0  0
   18.3862  -10.7500    0.0000 C   0  0  0  0  0  0  0  0  0  0  0  0
    5.3958   10.7500    0.0000 C   0  0  0  0  0  0  0  0  0  0  0  0
   14.0561   -4.2500    0.0000 C   0  0  0  0  0  0  0  0  0  0  0  0
    9.7260    4.2500    0.0000 C   0  0  0  0  0  0  0  0  0  0  0  0
   18.3862   -8.7500    0.0000 C   0  0  0  0  0  0  0  0  0  0  0  0
    5.3958    8.7500    0.0000 C   0  0  0  0  0  0  0  0  0  0  0  0
   16.6542   -7.7500    0.0000 C   0  0  0  0  0  0  0  0  0  0  0  0
    7.1279    7.7500    0.0000 C   0  0  0  0  0  0  0  0  0  0  0  0
   18.3862  -11.7500    0.0000 C   0  0  0  0  0  0  0  0  0  0  0  0
    5.3958   11.7500    0.0000 C   0  0  0  0  0  0  0  0  0  0  0  0
   19.2523  -12.2500    0.0000 C   0  0  0  0  0  0  0  0  0  0  0  0
    4.5298   12.2500    0.0000 C   0  0  0  0  0  0  0  0  0  0  0  0
   14.9221   -4.7500    0.0000 C   0  0  0  0  0  0  0  0  0  0  0  0
    8.8600    4.7500    0.0000 C   0  0  0  0  0  0  0  0  0  0  0  0
   15.7882   -7.2500    0.0000 C   0  0  0  0  0  0  0  0  0  0  0  0
    7.9939    7.2500    0.0000 C   0  0  0  0  0  0  0  0  0  0  0  0
   18.3862   -7.7500    0.0000 C   0  0  0  0  0  0  0  0  0  0  0  0
    4.5298    9.2500    0.0000 C   0  0  0  0  0  0  0  0  0  0  0  0
   20.1985  -11.9453    0.0000 C   0  0  0  0  0  0  0  0  0  0  0  0
    3.5836   11.9453    0.0000 C   0  0  0  0  0  0  0  0  0  0  0  0
   19.2523  -13.2500    0.0000 C   0  0  0  0  0  0  0  0  0  0  0  0
    4.5298   13.2500    0.0000 C   0  0  0  0  0  0  0  0  0  0  0  0
   14.9221   -5.7500    0.0000 C   0  0  0  0  0  0  0  0  0  0  0  0
    8.8600    5.7500    0.0000 C   0  0  0  0  0  0  0  0  0  0  0  0
   17.5202  -12.2500    0.0000 C   0  0  0  0  0  0  0  0  0  0  0  0
    6.2619   12.2500    0.0000 C   0  0  0  0  0  0  0  0  0  0  0  0
   20.7821  -12.7500    0.0000 C   0  0  0  0  0  0  0  0  0  0  0  0
    3.0000   12.7500    0.0000 C   0  0  0  0  0  0  0  0  0  0  0  0
   18.3862  -13.7500    0.0000 C   0  0  0  0  0  0  0  0  0  0  0  0
    5.3958   13.7500    0.0000 C   0  0  0  0  0  0  0  0  0  0  0  0
   17.5202  -13.2500    0.0000 C   0  0  0  0  0  0  0  0  0  0  0  0
    6.2619   13.2500    0.0000 C   0  0  0  0  0  0  0  0  0  0  0  0
   19.2523   -7.2500    0.0000 C   0  0  0  0  0  0  0  0  0  0  0  0
    3.6638    8.7500    0.0000 C   0  0  0  0  0  0  0  0  0  0  0  0
   12.9346   -0.3577    0.0000 H   0  0  0  0  0  0  0  0  0  0  0  0
   12.5361    0.3326    0.0000 H   0  0  0  0  0  0  0  0  0  0  0  0
   10.8475    0.3577    0.0000 H   0  0  0  0  0  0  0  0  0  0  0  0
   11.2460   -0.3326    0.0000 H   0  0  0  0  0  0  0  0  0  0  0  0
   11.7135   -1.1423    0.0000 H   0  0  0  0  0  0  0  0  0  0  0  0
   12.1120   -1.8326    0.0000 H   0  0  0  0  0  0  0  0  0  0  0  0
   12.0686    1.1423    0.0000 H   0  0  0  0  0  0  0  0  0  0  0  0
   11.6701    1.8326    0.0000 H   0  0  0  0  0  0  0  0  0  0  0  0
   13.8007   -1.8577    0.0000 H   0  0  0  0  0  0  0  0  0  0  0  0
   13.4021   -1.1674    0.0000 H   0  0  0  0  0  0  0  0  0  0  0  0
    9.9814    1.8577    0.0000 H   0  0  0  0  0  0  0  0  0  0  0  0
   10.3800    1.1674    0.0000 H   0  0  0  0  0  0  0  0  0  0  0  0
   12.5795   -2.6423    0.0000 H   0  0  0  0  0  0  0  0  0  0  0  0
   12.9780   -3.3326    0.0000 H   0  0  0  0  0  0  0  0  0  0  0  0
   11.2026    2.6423    0.0000 H   0  0  0  0  0  0  0  0  0  0  0  0
   10.8041    3.3326    0.0000 H   0  0  0  0  0  0  0  0  0  0  0  0
   14.6667   -3.3577    0.0000 H   0  0  0  0  0  0  0  0  0  0  0  0
   14.2682   -2.6674    0.0000 H   0  0  0  0  0  0  0  0  0  0  0  0
    9.1154    3.3577    0.0000 H   0  0  0  0  0  0  0  0  0  0  0  0
    9.5139    2.6674    0.0000 H   0  0  0  0  0  0  0  0  0  0  0  0
   16.9096  -10.1423    0.0000 H   0  0  0  0  0  0  0  0  0  0  0  0
   17.3082  -10.8326    0.0000 H   0  0  0  0  0  0  0  0  0  0  0  0
    6.8725   10.1423    0.0000 H   0  0  0  0  0  0  0  0  0  0  0  0
    6.4739   10.8326    0.0000 H   0  0  0  0  0  0  0  0  0  0  0  0
   16.0436   -8.6423    0.0000 H   0  0  0  0  0  0  0  0  0  0  0  0
   16.4421   -9.3326    0.0000 H   0  0  0  0  0  0  0  0  0  0  0  0
    7.7385    8.6423    0.0000 H   0  0  0  0  0  0  0  0  0  0  0  0
    7.3400    9.3326    0.0000 H   0  0  0  0  0  0  0  0  0  0  0  0
   18.9968  -10.8577    0.0000 H   0  0  0  0  0  0  0  0  0  0  0  0
   18.5983  -10.1674    0.0000 H   0  0  0  0  0  0  0  0  0  0  0  0
    4.7853   10.8577    0.0000 H   0  0  0  0  0  0  0  0  0  0  0  0
    5.1838   10.1674    0.0000 H   0  0  0  0  0  0  0  0  0  0  0  0
   13.4455   -4.1423    0.0000 H   0  0  0  0  0  0  0  0  0  0  0  0
   13.8441   -4.8326    0.0000 H   0  0  0  0  0  0  0  0  0  0  0  0
   10.3366    4.1423    0.0000 H   0  0  0  0  0  0  0  0  0  0  0  0
    9.9380    4.8326    0.0000 H   0  0  0  0  0  0  0  0  0  0  0  0
   18.5983   -9.3326    0.0000 H   0  0  0  0  0  0  0  0  0  0  0  0
   18.9968   -8.6423    0.0000 H   0  0  0  0  0  0  0  0  0  0  0  0
    4.9973    8.2750    0.0000 H   0  0  0  0  0  0  0  0  0  0  0  0
    5.7944    8.2750    0.0000 H   0  0  0  0  0  0  0  0  0  0  0  0
   17.2648   -7.8577    0.0000 H   0  0  0  0  0  0  0  0  0  0  0  0
   16.8662   -7.1674    0.0000 H   0  0  0  0  0  0  0  0  0  0  0  0
    6.5173    7.8577    0.0000 H   0  0  0  0  0  0  0  0  0  0  0  0
    6.9158    7.1674    0.0000 H   0  0  0  0  0  0  0  0  0  0  0  0
   15.5327   -4.8577    0.0000 H   0  0  0  0  0  0  0  0  0  0  0  0
   15.1342   -4.1674    0.0000 H   0  0  0  0  0  0  0  0  0  0  0  0
    8.2494    4.8577    0.0000 H   0  0  0  0  0  0  0  0  0  0  0  0
    8.6479    4.1674    0.0000 H   0  0  0  0  0  0  0  0  0  0  0  0
   15.1776   -7.1423    0.0000 H   0  0  0  0  0  0  0  0  0  0  0  0
   15.5761   -7.8326    0.0000 H   0  0  0  0  0  0  0  0  0  0  0  0
    8.6045    7.1423    0.0000 H   0  0  0  0  0  0  0  0  0  0  0  0
    8.2060    7.8326    0.0000 H   0  0  0  0  0  0  0  0  0  0  0  0
   18.1742   -7.1674    0.0000 H   0  0  0  0  0  0  0  0  0  0  0  0
   17.7757   -7.8577    0.0000 H   0  0  0  0  0  0  0  0  0  0  0  0
    4.9284    9.7250    0.0000 H   0  0  0  0  0  0  0  0  0  0  0  0
    4.1313    9.7250    0.0000 H   0  0  0  0  0  0  0  0  0  0  0  0
   20.7359  -11.6360    0.0000 H   0  0  0  0  0  0  0  0  0  0  0  0
   19.9474  -11.3784    0.0000 H   0  0  0  0  0  0  0  0  0  0  0  0
    3.0462   11.6360    0.0000 H   0  0  0  0  0  0  0  0  0  0  0  0
    3.8346   11.3784    0.0000 H   0  0  0  0  0  0  0  0  0  0  0  0
   16.9833  -11.9400    0.0000 H   0  0  0  0  0  0  0  0  0  0  0  0
    6.7988   11.9400    0.0000 H   0  0  0  0  0  0  0  0  0  0  0  0
   16.3251   -5.9400    0.0000 H   0  0  0  0  0  0  0  0  0  0  0  0
    7.4570    5.9400    0.0000 H   0  0  0  0  0  0  0  0  0  0  0  0
   20.3911  -14.1441    0.0000 H   0  0  0  0  0  0  0  0  0  0  0  0
    3.3910   14.1441    0.0000 H   0  0  0  0  0  0  0  0  0  0  0  0
   18.3862  -14.3700    0.0000 H   0  0  0  0  0  0  0  0  0  0  0  0
    5.3958   14.3700    0.0000 H   0  0  0  0  0  0  0  0  0  0  0  0
   16.9833  -13.5600    0.0000 H   0  0  0  0  0  0  0  0  0  0  0  0
    6.7988   13.5600    0.0000 H   0  0  0  0  0  0  0  0  0  0  0  0
   19.5623   -7.7869    0.0000 H   0  0  0  0  0  0  0  0  0  0  0  0
   19.7892   -6.9400    0.0000 H   0  0  0  0  0  0  0  0  0  0  0  0
   18.9423   -6.7131    0.0000 H   0  0  0  0  0  0  0  0  0  0  0  0
    3.3538    9.2869    0.0000 H   0  0  0  0  0  0  0  0  0  0  0  0
    3.1269    8.4400    0.0000 H   0  0  0  0  0  0  0  0  0  0  0  0
    3.9738    8.2131    0.0000 H   0  0  0  0  0  0  0  0  0  0  0  0
  1 47  2  0  0  0  0
  2 48  2  0  0  0  0
  3 51  2  0  0  0  0
  4 52  2  0  0  0  0
  5 21  1  0  0  0  0
  5 23  1  0  0  0  0
  5 29  1  0  0  0  0
  6 22  1  0  0  0  0
  6 24  1  0  0  0  0
  6 30  1  0  0  0  0
  7 39  1  0  0  0  0
  7 47  1  0  0  0  0
  7121  1  0  0  0  0
  8 40  1  0  0  0  0
  8 48  1  0  0  0  0
  8122  1  0  0  0  0
  9 45  1  0  0  0  0
  9 51  1  0  0  0  0
  9123  1  0  0  0  0
 10 46  1  0  0  0  0
 10 52  1  0  0  0  0
 10124  1  0  0  0  0
 11 12  1  0  0  0  0
 11 13  1  0  0  0  0
 11 59  1  0  0  0  0
 11 60  1  0  0  0  0
 12 14  1  0  0  0  0
 12 61  1  0  0  0  0
 12 62  1  0  0  0  0
 13 15  1  0  0  0  0
 13 63  1  0  0  0  0
 13 64  1  0  0  0  0
 14 16  1  0  0  0  0
 14 65  1  0  0  0  0
 14 66  1  0  0  0  0
 15 17  1  0  0  0  0
 15 67  1  0  0  0  0
 15 68  1  0  0  0  0
 16 18  1  0  0  0  0
 16 69  1  0  0  0  0
 16 70  1  0  0  0  0
 17 19  1  0  0  0  0
 17 71  1  0  0  0  0
 17 72  1  0  0  0  0
 18 20  1  0  0  0  0
 18 73  1  0  0  0  0
 18 74  1  0  0  0  0
 19 27  1  0  0  0  0
 19 75  1  0  0  0  0
 19 76  1  0  0  0  0
 20 28  1  0  0  0  0
 20 77  1  0  0  0  0
 20 78  1  0  0  0  0
 21 25  1  0  0  0  0
 21 79  1  0  0  0  0
 21 80  1  0  0  0  0
 22 26  1  0  0  0  0
 22 81  1  0  0  0  0
 22 82  1  0  0  0  0
 23 31  1  0  0  0  0
 23 83  1  0  0  0  0
 23 84  1  0  0  0  0
 24 32  1  0  0  0  0
 24 85  1  0  0  0  0
 24 86  1  0  0  0  0
 25 33  1  0  0  0  0
 25 87  1  0  0  0  0
 25 88  1  0  0  0  0
 26 34  1  0  0  0  0
 26 89  1  0  0  0  0
 26 90  1  0  0  0  0
 27 37  1  0  0  0  0
 27 91  1  0  0  0  0
 27 92  1  0  0  0  0
 28 38  1  0  0  0  0
 28 93  1  0  0  0  0
 28 94  1  0  0  0  0
 29 41  1  0  0  0  0
 29 95  1  0  0  0  0
 29 96  1  0  0  0  0
 30 42  1  0  0  0  0
 30 97  1  0  0  0  0
 30 98  1  0  0  0  0
 31 39  1  0  0  0  0
 31 99  1  0  0  0  0
 31100  1  0  0  0  0
 32 40  1  0  0  0  0
 32101  1  0  0  0  0
 32102  1  0  0  0  0
 33 35  2  0  0  0  0
 33 49  1  0  0  0  0
 34 36  2  0  0  0  0
 34 50  1  0  0  0  0
 35 43  1  0  0  0  0
 35 45  1  0  0  0  0
 36 44  1  0  0  0  0
 36 46  1  0  0  0  0
 37 47  1  0  0  0  0
 37103  1  0  0  0  0
 37104  1  0  0  0  0
 38 48  1  0  0  0  0
 38105  1  0  0  0  0
 38106  1  0  0  0  0
 39107  1  0  0  0  0
 39108  1  0  0  0  0
 40109  1  0  0  0  0
 40110  1  0  0  0  0
 41 57  1  0  0  0  0
 41111  1  0  0  0  0
 41112  1  0  0  0  0
 42 58  1  0  0  0  0
 42113  1  0  0  0  0
 42114  1  0  0  0  0
 43 51  1  0  0  0  0
 43115  1  0  0  0  0
 43116  1  0  0  0  0
 44 52  1  0  0  0  0
 44117  1  0  0  0  0
 44118  1  0  0  0  0
 45 53  2  0  0  0  0
 46 54  2  0  0  0  0
 49 55  2  0  0  0  0
 49119  1  0  0  0  0
 50 56  2  0  0  0  0
 50120  1  0  0  0  0
 53 55  1  0  0  0  0
 53125  1  0  0  0  0
 54 56  1  0  0  0  0
 54126  1  0  0  0  0
 55127  1  0  0  0  0
 56128  1  0  0  0  0
 57129  1  0  0  0  0
 57130  1  0  0  0  0
 57131  1  0  0  0  0
 58132  1  0  0  0  0
 58133  1  0  0  0  0
 58134  1  0  0  0  0
M  END
> <PUBCHEM_COMPOUND_CID>
101885477

> <PUBCHEM_COMPOUND_CANONICALIZED>
1

> <PUBCHEM_CACTVS_COMPLEXITY>
1080

> <PUBCHEM_CACTVS_HBOND_ACCEPTOR>
6

> <PUBCHEM_CACTVS_HBOND_DONOR>
4

> <PUBCHEM_CACTVS_ROTATABLE_BOND>
33

> <PUBCHEM_CACTVS_SUBSKEYS>
AAADcfB/uAAAAAAAAAAAAAAAAAAAAWLAAAAwYAAAAAAAAFgBQAAAHgAQAAAADAjBmAQywIPAAACIAiVSUACCAAAhAgAIiIEIZIgIIDLA1ZGEIAhglgDIyAcciICOgAAAQAASAAAAAACAACQAAAAAAAAAAA==

> <PUBCHEM_IUPAC_OPENEYE_NAME>
N,N'-bis[3-[2-(2-oxoindolin-4-yl)ethyl-propyl-amino]propyl]hexadecanediamide

> <PUBCHEM_IUPAC_CAS_NAME>
N,N'-bis[3-[2-(2-oxo-1,3-dihydroindol-4-yl)ethyl-propylamino]propyl]hexadecanediamide

> <PUBCHEM_IUPAC_NAME_MARKUP>
<I>N</I>,<I>N</I>&apos;-bis[3-[2-(2-oxo-1,3-dihydroindol-4-yl)ethyl-propylamino]propyl]hexadecanediamide

> <PUBCHEM_IUPAC_NAME>
N,N'-bis[3-[2-(2-oxo-1,3-dihydroindol-4-yl)ethyl-propylamino]propyl]hexadecanediamide

> <PUBCHEM_IUPAC_SYSTEMATIC_NAME>
N,N'-bis[3-[2-(2-oxidanylidene-1,3-dihydroindol-4-yl)ethyl-propyl-amino]propyl]hexadecanediamide

> <PUBCHEM_IUPAC_TRADITIONAL_NAME>
N,N'-bis[3-[2-(2-ketoindolin-4-yl)ethyl-propyl-amino]propyl]thapsamide

> <PUBCHEM_IUPAC_INCHI>
InChI=1S/C48H76N6O4/c1-3-31-53(35-27-39-21-17-23-43-41(39)37-47(57)51-43)33-19-29-49-45(55)25-15-13-11-9-7-5-6-8-10-12-14-16-26-46(56)50-30-20-34-54(32-4-2)36-28-40-22-18-24-44-42(40)38-48(58)52-44/h17-18,21-24H,3-16,19-20,25-38H2,1-2H3,(H,49,55)(H,50,56)(H,51,57)(H,52,58)

> <PUBCHEM_IUPAC_INCHIKEY>
LCNOMCCKMYRJLA-UHFFFAOYSA-N

> <PUBCHEM_XLOGP3_AA>
9

> <PUBCHEM_EXACT_MASS>
800.59280493

> <PUBCHEM_MOLECULAR_FORMULA>
C48H76N6O4

> <PUBCHEM_MOLECULAR_WEIGHT>
801.2

> <PUBCHEM_OPENEYE_CAN_SMILES>
CCCN(CCCNC(=O)CCCCCCCCCCCCCCC(=O)NCCCN(CCC)CCC1=C2CC(=O)NC2=CC=C1)CCC3=C4CC(=O)NC4=CC=C3

> <PUBCHEM_OPENEYE_ISO_SMILES>
CCCN(CCCNC(=O)CCCCCCCCCCCCCCC(=O)NCCCN(CCC)CCC1=C2CC(=O)NC2=CC=C1)CCC3=C4CC(=O)NC4=CC=C3

> <PUBCHEM_CACTVS_TPSA>
123

> <PUBCHEM_MONOISOTOPIC_WEIGHT>
800.59280493

> <PUBCHEM_TOTAL_CHARGE>
0

> <PUBCHEM_HEAVY_ATOM_COUNT>
58

> <PUBCHEM_ATOM_DEF_STEREO_COUNT>
0

> <PUBCHEM_ATOM_UDEF_STEREO_COUNT>
0

> <PUBCHEM_BOND_DEF_STEREO_COUNT>
0

> <PUBCHEM_BOND_UDEF_STEREO_COUNT>
0

> <PUBCHEM_ISOTOPIC_ATOM_COUNT>
0

> <PUBCHEM_COMPONENT_COUNT>
1

> <PUBCHEM_CACTVS_TAUTO_COUNT>
-1

> <PUBCHEM_COORDINATE_TYPE>
1
5
255

> <PUBCHEM_BONDANNOTATIONS>
33  35  8
33  49  8
34  36  8
34  50  8
35  45  8
36  46  8
45  53  8
46  54  8
49  55  8
50  56  8
53  55  8
54  56  8

$$$$
