10811378
  -OEChem-09292321592D

 63 66  0     0  0  0  0  0  0999 V2000
   11.5320   -1.4370    0.0000 O   0  0  0  0  0  0  0  0  0  0  0  0
   16.7942   -1.4129    0.0000 O   0  0  0  0  0  0  0  0  0  0  0  0
    7.2000   -0.9537    0.0000 N   0  0  0  0  0  0  0  0  0  0  0  0
    5.4641    0.0396    0.0000 N   0  0  0  0  0  0  0  0  0  0  0  0
   15.0621   -1.4129    0.0000 N   0  0  0  0  0  0  0  0  0  0  0  0
    7.1961    0.0463    0.0000 C   0  0  0  0  0  0  0  0  0  0  0  0
    6.3359   -1.4571    0.0000 C   0  0  0  0  0  0  0  0  0  0  0  0
    6.3282    0.5429    0.0000 C   0  0  0  0  0  0  0  0  0  0  0  0
    5.4679   -0.9604    0.0000 C   0  0  0  0  0  0  0  0  0  0  0  0
    8.0679   -1.4504    0.0000 C   0  0  0  0  0  0  0  0  0  0  0  0
    8.9320   -0.9471    0.0000 C   0  0  0  0  0  0  0  0  0  0  0  0
    4.5961    0.5362    0.0000 C   0  0  0  0  0  0  0  0  0  0  0  0
    9.8000   -1.4437    0.0000 C   0  0  0  0  0  0  0  0  0  0  0  0
    3.7320    0.0329    0.0000 C   0  0  0  0  0  0  0  0  0  0  0  0
    4.5923    1.5362    0.0000 C   0  0  0  0  0  0  0  0  0  0  0  0
   10.6640   -0.9404    0.0000 C   0  0  0  0  0  0  0  0  0  0  0  0
    2.8641    0.5296    0.0000 C   0  0  0  0  0  0  0  0  0  0  0  0
    3.7359   -0.9671    0.0000 C   0  0  0  0  0  0  0  0  0  0  0  0
    3.7243    2.0329    0.0000 C   0  0  0  0  0  0  0  0  0  0  0  0
    2.8602    1.5296    0.0000 C   0  0  0  0  0  0  0  0  0  0  0  0
    2.0000    0.0262    0.0000 C   0  0  0  0  0  0  0  0  0  0  0  0
   14.1961    0.0871    0.0000 C   0  0  0  0  0  0  0  0  0  0  0  0
   15.0621    0.5871    0.0000 C   0  0  0  0  0  0  0  0  0  0  0  0
   12.3961   -0.9337    0.0000 C   0  0  0  0  0  0  0  0  0  0  0  0
   14.1961   -0.9129    0.0000 C   0  0  0  0  0  0  0  0  0  0  0  0
   15.9281    0.0871    0.0000 C   0  0  0  0  0  0  0  0  0  0  0  0
   13.3021   -1.4475    0.0000 C   0  0  0  0  0  0  0  0  0  0  0  0
   13.3021    0.6218    0.0000 C   0  0  0  0  0  0  0  0  0  0  0  0
   12.3961    0.1079    0.0000 C   0  0  0  0  0  0  0  0  0  0  0  0
   15.9281   -0.9129    0.0000 C   0  0  0  0  0  0  0  0  0  0  0  0
    7.8071   -0.0590    0.0000 H   0  0  0  0  0  0  0  0  0  0  0  0
    7.4059    0.6297    0.0000 H   0  0  0  0  0  0  0  0  0  0  0  0
    5.9392   -1.9336    0.0000 H   0  0  0  0  0  0  0  0  0  0  0  0
    6.7362   -1.9305    0.0000 H   0  0  0  0  0  0  0  0  0  0  0  0
    6.7249    1.0194    0.0000 H   0  0  0  0  0  0  0  0  0  0  0  0
    5.9278    1.0163    0.0000 H   0  0  0  0  0  0  0  0  0  0  0  0
    4.8569   -0.8551    0.0000 H   0  0  0  0  0  0  0  0  0  0  0  0
    5.2581   -1.5438    0.0000 H   0  0  0  0  0  0  0  0  0  0  0  0
    7.6712   -1.9269    0.0000 H   0  0  0  0  0  0  0  0  0  0  0  0
    8.4683   -1.9238    0.0000 H   0  0  0  0  0  0  0  0  0  0  0  0
    9.3287   -0.4706    0.0000 H   0  0  0  0  0  0  0  0  0  0  0  0
    8.5317   -0.4737    0.0000 H   0  0  0  0  0  0  0  0  0  0  0  0
    9.4033   -1.9202    0.0000 H   0  0  0  0  0  0  0  0  0  0  0  0
   10.2003   -1.9171    0.0000 H   0  0  0  0  0  0  0  0  0  0  0  0
    5.1280    1.8483    0.0000 H   0  0  0  0  0  0  0  0  0  0  0  0
   11.0607   -0.4639    0.0000 H   0  0  0  0  0  0  0  0  0  0  0  0
   10.2637   -0.4670    0.0000 H   0  0  0  0  0  0  0  0  0  0  0  0
    3.1159   -0.9695    0.0000 H   0  0  0  0  0  0  0  0  0  0  0  0
    3.7383   -1.5871    0.0000 H   0  0  0  0  0  0  0  0  0  0  0  0
    4.3559   -0.9647    0.0000 H   0  0  0  0  0  0  0  0  0  0  0  0
    3.7219    2.6529    0.0000 H   0  0  0  0  0  0  0  0  0  0  0  0
    2.3221    1.8375    0.0000 H   0  0  0  0  0  0  0  0  0  0  0  0
    1.6879    0.5620    0.0000 H   0  0  0  0  0  0  0  0  0  0  0  0
    1.4643   -0.2858    0.0000 H   0  0  0  0  0  0  0  0  0  0  0  0
    2.3121   -0.5095    0.0000 H   0  0  0  0  0  0  0  0  0  0  0  0
   15.4606    1.0621    0.0000 H   0  0  0  0  0  0  0  0  0  0  0  0
   14.6636    1.0621    0.0000 H   0  0  0  0  0  0  0  0  0  0  0  0
   16.5387   -0.0206    0.0000 H   0  0  0  0  0  0  0  0  0  0  0  0
   16.1402    0.6697    0.0000 H   0  0  0  0  0  0  0  0  0  0  0  0
   13.3093   -2.0675    0.0000 H   0  0  0  0  0  0  0  0  0  0  0  0
   13.3093    1.2417    0.0000 H   0  0  0  0  0  0  0  0  0  0  0  0
   11.8603    0.4200    0.0000 H   0  0  0  0  0  0  0  0  0  0  0  0
   15.0621   -2.0329    0.0000 H   0  0  0  0  0  0  0  0  0  0  0  0
  1 16  1  0  0  0  0
  1 24  1  0  0  0  0
  2 30  2  0  0  0  0
  3  6  1  0  0  0  0
  3  7  1  0  0  0  0
  3 10  1  0  0  0  0
  4  8  1  0  0  0  0
  4  9  1  0  0  0  0
  4 12  1  0  0  0  0
  5 25  1  0  0  0  0
  5 30  1  0  0  0  0
  5 63  1  0  0  0  0
  6  8  1  0  0  0  0
  6 31  1  0  0  0  0
  6 32  1  0  0  0  0
  7  9  1  0  0  0  0
  7 33  1  0  0  0  0
  7 34  1  0  0  0  0
  8 35  1  0  0  0  0
  8 36  1  0  0  0  0
  9 37  1  0  0  0  0
  9 38  1  0  0  0  0
 10 11  1  0  0  0  0
 10 39  1  0  0  0  0
 10 40  1  0  0  0  0
 11 13  1  0  0  0  0
 11 41  1  0  0  0  0
 11 42  1  0  0  0  0
 12 14  1  0  0  0  0
 12 15  2  0  0  0  0
 13 16  1  0  0  0  0
 13 43  1  0  0  0  0
 13 44  1  0  0  0  0
 14 17  2  0  0  0  0
 14 18  1  0  0  0  0
 15 19  1  0  0  0  0
 15 45  1  0  0  0  0
 16 46  1  0  0  0  0
 16 47  1  0  0  0  0
 17 20  1  0  0  0  0
 17 21  1  0  0  0  0
 18 48  1  0  0  0  0
 18 49  1  0  0  0  0
 18 50  1  0  0  0  0
 19 20  2  0  0  0  0
 19 51  1  0  0  0  0
 20 52  1  0  0  0  0
 21 53  1  0  0  0  0
 21 54  1  0  0  0  0
 21 55  1  0  0  0  0
 22 23  1  0  0  0  0
 22 25  2  0  0  0  0
 22 28  1  0  0  0  0
 23 26  1  0  0  0  0
 23 56  1  0  0  0  0
 23 57  1  0  0  0  0
 24 27  2  0  0  0  0
 24 29  1  0  0  0  0
 25 27  1  0  0  0  0
 26 30  1  0  0  0  0
 26 58  1  0  0  0  0
 26 59  1  0  0  0  0
 27 60  1  0  0  0  0
 28 29  2  0  0  0  0
 28 61  1  0  0  0  0
 29 62  1  0  0  0  0
M  END
> <PUBCHEM_COMPOUND_CID>
10811378

> <PUBCHEM_COMPOUND_CANONICALIZED>
1

> <PUBCHEM_CACTVS_COMPLEXITY>
549

> <PUBCHEM_CACTVS_HBOND_ACCEPTOR>
4

> <PUBCHEM_CACTVS_HBOND_DONOR>
1

> <PUBCHEM_CACTVS_ROTATABLE_BOND>
7

> <PUBCHEM_CACTVS_SUBSKEYS>
AAADcfB7MAAAAAAAAAAAAAAAAAAAAAAAAAA8eIEAAAAAAACxQAAAHgAQAAAADAzhmAYyxoPABACIAiVSUACCCAAhIgAIiAEObIgMZjLEsZuWOCjm1BnI6Ae42aOeoAAAQgASAABAAACEACQAAAAAAAAAAA==

> <PUBCHEM_IUPAC_OPENEYE_NAME>
7-[4-[4-(2,3-dimethylphenyl)piperazin-1-yl]butoxy]-3,4-dihydro-1H-quinolin-2-one

> <PUBCHEM_IUPAC_CAS_NAME>
7-[4-[4-(2,3-dimethylphenyl)-1-piperazinyl]butoxy]-3,4-dihydro-1H-quinolin-2-one

> <PUBCHEM_IUPAC_NAME_MARKUP>
7-[4-[4-(2,3-dimethylphenyl)piperazin-1-yl]butoxy]-3,4-dihydro-1<I>H</I>-quinolin-2-one

> <PUBCHEM_IUPAC_NAME>
7-[4-[4-(2,3-dimethylphenyl)piperazin-1-yl]butoxy]-3,4-dihydro-1H-quinolin-2-one

> <PUBCHEM_IUPAC_SYSTEMATIC_NAME>
7-[4-[4-(2,3-dimethylphenyl)piperazin-1-yl]butoxy]-3,4-dihydro-1H-quinolin-2-one

> <PUBCHEM_IUPAC_TRADITIONAL_NAME>
7-[4-[4-(2,3-dimethylphenyl)piperazino]butoxy]-3,4-dihydrocarbostyril

> <PUBCHEM_IUPAC_INCHI>
InChI=1S/C25H33N3O2/c1-19-6-5-7-24(20(19)2)28-15-13-27(14-16-28)12-3-4-17-30-22-10-8-21-9-11-25(29)26-23(21)18-22/h5-8,10,18H,3-4,9,11-17H2,1-2H3,(H,26,29)

> <PUBCHEM_IUPAC_INCHIKEY>
ROIODKFPKIFWND-UHFFFAOYSA-N

> <PUBCHEM_XLOGP3_AA>
4.1

> <PUBCHEM_EXACT_MASS>
407.25727730

> <PUBCHEM_MOLECULAR_FORMULA>
C25H33N3O2

> <PUBCHEM_MOLECULAR_WEIGHT>
407.5

> <PUBCHEM_OPENEYE_CAN_SMILES>
CC1=C(C(=CC=C1)N2CCN(CC2)CCCCOC3=CC4=C(CCC(=O)N4)C=C3)C

> <PUBCHEM_OPENEYE_ISO_SMILES>
CC1=C(C(=CC=C1)N2CCN(CC2)CCCCOC3=CC4=C(CCC(=O)N4)C=C3)C

> <PUBCHEM_CACTVS_TPSA>
44.8

> <PUBCHEM_MONOISOTOPIC_WEIGHT>
407.25727730

> <PUBCHEM_TOTAL_CHARGE>
0

> <PUBCHEM_HEAVY_ATOM_COUNT>
30

> <PUBCHEM_ATOM_DEF_STEREO_COUNT>
0

> <PUBCHEM_ATOM_UDEF_STEREO_COUNT>
0

> <PUBCHEM_BOND_DEF_STEREO_COUNT>
0

> <PUBCHEM_BOND_UDEF_STEREO_COUNT>
0

> <PUBCHEM_ISOTOPIC_ATOM_COUNT>
0

> <PUBCHEM_COMPONENT_COUNT>
1

> <PUBCHEM_CACTVS_TAUTO_COUNT>
-1

> <PUBCHEM_COORDINATE_TYPE>
1
5
255

> <PUBCHEM_BONDANNOTATIONS>
12  14  8
12  15  8
14  17  8
15  19  8
17  20  8
19  20  8
22  25  8
22  28  8
24  27  8
24  29  8
25  27  8
28  29  8

$$$$
