155568278
  -OEChem-09292322012D

 39 41  0     1  0  0  0  0  0999 V2000
    5.4573   -2.8172    0.0000 Br  0  0  0  0  0  0  0  0  0  0  0  0
    2.0000    0.2172    0.0000 O   0  0  0  0  0  0  0  0  0  0  0  0
    2.0000    2.2172    0.0000 O   0  0  0  0  0  0  0  0  0  0  0  0
    6.3981    0.6964    0.0000 N   0  0  3  0  0  0  0  0  0  0  0  0
    5.4920    0.1826    0.0000 C   0  0  3  0  0  0  0  0  0  0  0  0
    4.5981    0.7172    0.0000 C   0  0  0  0  0  0  0  0  0  0  0  0
    6.3981    1.7381    0.0000 C   0  0  0  0  0  0  0  0  0  0  0  0
    5.4920    2.2519    0.0000 C   0  0  0  0  0  0  0  0  0  0  0  0
    4.5981    1.7172    0.0000 C   0  0  0  0  0  0  0  0  0  0  0  0
    5.4804   -0.8174    0.0000 C   0  0  0  0  0  0  0  0  0  0  0  0
    7.2622    0.1931    0.0000 C   0  0  0  0  0  0  0  0  0  0  0  0
    3.7320    0.2172    0.0000 C   0  0  0  0  0  0  0  0  0  0  0  0
    6.3406   -1.3273    0.0000 C   0  0  0  0  0  0  0  0  0  0  0  0
    3.7320    2.2172    0.0000 C   0  0  0  0  0  0  0  0  0  0  0  0
    2.8660    0.7172    0.0000 C   0  0  0  0  0  0  0  0  0  0  0  0
    2.8660    1.7172    0.0000 C   0  0  0  0  0  0  0  0  0  0  0  0
    6.3291   -2.3273    0.0000 C   0  0  0  0  0  0  0  0  0  0  0  0
    7.2124   -0.8374    0.0000 C   0  0  0  0  0  0  0  0  0  0  0  0
    7.1893   -2.8372    0.0000 C   0  0  0  0  0  0  0  0  0  0  0  0
    8.0726   -1.3474    0.0000 C   0  0  0  0  0  0  0  0  0  0  0  0
    8.0610   -2.3473    0.0000 C   0  0  0  0  0  0  0  0  0  0  0  0
    6.0259   -0.1326    0.0000 H   0  0  0  0  0  0  0  0  0  0  0  0
    7.0089    1.6320    0.0000 H   0  0  0  0  0  0  0  0  0  0  0  0
    6.6071    2.3218    0.0000 H   0  0  0  0  0  0  0  0  0  0  0  0
    5.8856    2.7309    0.0000 H   0  0  0  0  0  0  0  0  0  0  0  0
    5.0874    2.7217    0.0000 H   0  0  0  0  0  0  0  0  0  0  0  0
    4.8712   -0.7026    0.0000 H   0  0  0  0  0  0  0  0  0  0  0  0
    5.2617   -1.3975    0.0000 H   0  0  0  0  0  0  0  0  0  0  0  0
    6.9501   -0.3426    0.0000 H   0  0  0  0  0  0  0  0  0  0  0  0
    7.7979   -0.1190    0.0000 H   0  0  0  0  0  0  0  0  0  0  0  0
    7.5742    0.7288    0.0000 H   0  0  0  0  0  0  0  0  0  0  0  0
    3.7320   -0.4028    0.0000 H   0  0  0  0  0  0  0  0  0  0  0  0
    3.7320    2.8372    0.0000 H   0  0  0  0  0  0  0  0  0  0  0  0
    7.2196   -0.2174    0.0000 H   0  0  0  0  0  0  0  0  0  0  0  0
    7.1821   -3.4572    0.0000 H   0  0  0  0  0  0  0  0  0  0  0  0
    8.6131   -1.0436    0.0000 H   0  0  0  0  0  0  0  0  0  0  0  0
    2.0000   -0.4028    0.0000 H   0  0  0  0  0  0  0  0  0  0  0  0
    8.5943   -2.6635    0.0000 H   0  0  0  0  0  0  0  0  0  0  0  0
    2.0000    2.8372    0.0000 H   0  0  0  0  0  0  0  0  0  0  0  0
  1 17  1  0  0  0  0
  2 15  1  0  0  0  0
  2 37  1  0  0  0  0
  3 16  1  0  0  0  0
  3 39  1  0  0  0  0
  4  5  1  0  0  0  0
  4  7  1  0  0  0  0
  4 11  1  0  0  0  0
  5  6  1  0  0  0  0
  5 10  1  0  0  0  0
  5 22  1  0  0  0  0
  6  9  1  0  0  0  0
  6 12  2  0  0  0  0
  7  8  1  0  0  0  0
  7 23  1  0  0  0  0
  7 24  1  0  0  0  0
  8  9  1  0  0  0  0
  8 25  1  0  0  0  0
  8 26  1  0  0  0  0
  9 14  2  0  0  0  0
 10 13  1  0  0  0  0
 10 27  1  0  0  0  0
 10 28  1  0  0  0  0
 11 29  1  0  0  0  0
 11 30  1  0  0  0  0
 11 31  1  0  0  0  0
 12 15  1  0  0  0  0
 12 32  1  0  0  0  0
 13 17  1  0  0  0  0
 13 18  2  0  0  0  0
 14 16  1  0  0  0  0
 14 33  1  0  0  0  0
 15 16  2  0  0  0  0
 17 19  2  0  0  0  0
 18 20  1  0  0  0  0
 18 34  1  0  0  0  0
 19 21  1  0  0  0  0
 19 35  1  0  0  0  0
 20 21  2  0  0  0  0
 20 36  1  0  0  0  0
 21 38  1  0  0  0  0
M  END
> <PUBCHEM_COMPOUND_CID>
155568278

> <PUBCHEM_COMPOUND_CANONICALIZED>
1

> <PUBCHEM_CACTVS_COMPLEXITY>
354

> <PUBCHEM_CACTVS_HBOND_ACCEPTOR>
3

> <PUBCHEM_CACTVS_HBOND_DONOR>
2

> <PUBCHEM_CACTVS_ROTATABLE_BOND>
2

> <PUBCHEM_CACTVS_SUBSKEYS>
AAADceB6MAAAEAAAAAAAAAAAAAAAAAAAAAA8YIAAAAAAAACxQAAAHgBACAABrCzBmAQyBoMAAgCAAiBCAACCAAAgIAQIiAAOjKgJJiKCkROEcAlkwBGJmhew0PMOoAABAAAQwABAAAIAACGAAAAAAAAAAA==

> <PUBCHEM_IUPAC_OPENEYE_NAME>
1-[(2-bromophenyl)methyl]-2-methyl-3,4-dihydro-1H-isoquinoline-6,7-diol

> <PUBCHEM_IUPAC_CAS_NAME>
1-[(2-bromophenyl)methyl]-2-methyl-3,4-dihydro-1H-isoquinoline-6,7-diol

> <PUBCHEM_IUPAC_NAME_MARKUP>
1-[(2-bromophenyl)methyl]-2-methyl-3,4-dihydro-1<I>H</I>-isoquinoline-6,7-diol

> <PUBCHEM_IUPAC_NAME>
1-[(2-bromophenyl)methyl]-2-methyl-3,4-dihydro-1H-isoquinoline-6,7-diol

> <PUBCHEM_IUPAC_SYSTEMATIC_NAME>
1-[(2-bromophenyl)methyl]-2-methyl-3,4-dihydro-1H-isoquinoline-6,7-diol

> <PUBCHEM_IUPAC_TRADITIONAL_NAME>
1-(2-bromobenzyl)-2-methyl-3,4-dihydro-1H-isoquinoline-6,7-diol

> <PUBCHEM_IUPAC_INCHI>
InChI=1S/C17H18BrNO2/c1-19-7-6-11-9-16(20)17(21)10-13(11)15(19)8-12-4-2-3-5-14(12)18/h2-5,9-10,15,20-21H,6-8H2,1H3

> <PUBCHEM_IUPAC_INCHIKEY>
PUMDJZOMWDDEEH-UHFFFAOYSA-N

> <PUBCHEM_XLOGP3_AA>
3.8

> <PUBCHEM_EXACT_MASS>
347.05209

> <PUBCHEM_MOLECULAR_FORMULA>
C17H18BrNO2

> <PUBCHEM_MOLECULAR_WEIGHT>
348.2

> <PUBCHEM_OPENEYE_CAN_SMILES>
CN1CCC2=CC(=C(C=C2C1CC3=CC=CC=C3Br)O)O

> <PUBCHEM_OPENEYE_ISO_SMILES>
CN1CCC2=CC(=C(C=C2C1CC3=CC=CC=C3Br)O)O

> <PUBCHEM_CACTVS_TPSA>
43.7

> <PUBCHEM_MONOISOTOPIC_WEIGHT>
347.05209

> <PUBCHEM_TOTAL_CHARGE>
0

> <PUBCHEM_HEAVY_ATOM_COUNT>
21

> <PUBCHEM_ATOM_DEF_STEREO_COUNT>
0

> <PUBCHEM_ATOM_UDEF_STEREO_COUNT>
1

> <PUBCHEM_BOND_DEF_STEREO_COUNT>
0

> <PUBCHEM_BOND_UDEF_STEREO_COUNT>
0

> <PUBCHEM_ISOTOPIC_ATOM_COUNT>
0

> <PUBCHEM_COMPONENT_COUNT>
1

> <PUBCHEM_CACTVS_TAUTO_COUNT>
-1

> <PUBCHEM_COORDINATE_TYPE>
1
5
255

> <PUBCHEM_BONDANNOTATIONS>
12  15  8
13  17  8
13  18  8
14  16  8
15  16  8
17  19  8
18  20  8
19  21  8
20  21  8
5  10  3
6  12  8
6  9  8
9  14  8

$$$$
