45269235
  -OEChem-09292322282D

 59 62  0     1  0  0  0  0  0999 V2000
    5.8706   -6.3026    0.0000 F   0  0  0  0  0  0  0  0  0  0  0  0
    5.9804   -1.6773    0.0000 O   0  0  0  0  0  0  0  0  0  0  0  0
    4.1630    1.6865    0.0000 N   0  0  3  0  0  0  0  0  0  0  0  0
    4.3525   -0.9525    0.0000 N   0  0  0  0  0  0  0  0  0  0  0  0
    4.4372   -2.5683    0.0000 N   0  0  0  0  0  0  0  0  0  0  0  0
    3.7147    3.3595    0.0000 C   0  0  0  0  0  0  0  0  0  0  0  0
    3.2369    5.3081    0.0000 C   0  0  0  0  0  0  0  0  0  0  0  0
    3.9735    4.3255    0.0000 C   0  0  0  0  0  0  0  0  0  0  0  0
    2.3420    2.7675    0.0000 C   0  0  0  0  0  0  0  0  0  0  0  0
    5.1137    2.8507    0.0000 C   0  0  0  0  0  0  0  0  0  0  0  0
    2.0000    3.7072    0.0000 C   0  0  0  0  0  0  0  0  0  0  0  0
    5.3725    3.8166    0.0000 C   0  0  0  0  0  0  0  0  0  0  0  0
    3.4559    2.3936    0.0000 C   0  0  0  0  0  0  0  0  0  0  0  0
    3.3415    6.3026    0.0000 C   0  0  0  0  0  0  0  0  0  0  0  0
    2.3234    5.7148    0.0000 C   0  0  0  0  0  0  0  0  0  0  0  0
    3.9042    0.7206    0.0000 C   0  0  0  0  0  0  0  0  0  0  0  0
    5.1289    1.9453    0.0000 C   0  0  0  0  0  0  0  0  0  0  0  0
    4.6113    0.0135    0.0000 C   0  0  0  0  0  0  0  0  0  0  0  0
    3.4189   -1.3108    0.0000 C   0  0  0  0  0  0  0  0  0  0  0  0
    4.9818   -1.7296    0.0000 C   0  0  0  0  0  0  0  0  0  0  0  0
    3.4712   -2.3094    0.0000 C   0  0  0  0  0  0  0  0  0  0  0  0
    4.7955   -3.5018    0.0000 C   0  0  0  0  0  0  0  0  0  0  0  0
    5.7832   -3.6583    0.0000 C   0  0  0  0  0  0  0  0  0  0  0  0
    4.1662   -4.2790    0.0000 C   0  0  0  0  0  0  0  0  0  0  0  0
    6.1416   -4.5919    0.0000 C   0  0  0  0  0  0  0  0  0  0  0  0
    4.5246   -5.2126    0.0000 C   0  0  0  0  0  0  0  0  0  0  0  0
    5.5123   -5.3690    0.0000 C   0  0  0  0  0  0  0  0  0  0  0  0
    3.9595    3.7056    0.0000 H   0  0  0  0  0  0  0  0  0  0  0  0
    1.7636    2.5442    0.0000 H   0  0  0  0  0  0  0  0  0  0  0  0
    2.5765    2.1936    0.0000 H   0  0  0  0  0  0  0  0  0  0  0  0
    4.9187    2.2622    0.0000 H   0  0  0  0  0  0  0  0  0  0  0  0
    5.7076    2.6729    0.0000 H   0  0  0  0  0  0  0  0  0  0  0  0
    1.8057    4.2960    0.0000 H   0  0  0  0  0  0  0  0  0  0  0  0
    1.4142    3.5040    0.0000 H   0  0  0  0  0  0  0  0  0  0  0  0
    5.9664    3.6389    0.0000 H   0  0  0  0  0  0  0  0  0  0  0  0
    5.5674    4.4052    0.0000 H   0  0  0  0  0  0  0  0  0  0  0  0
    2.8940    2.6556    0.0000 H   0  0  0  0  0  0  0  0  0  0  0  0
    3.1003    1.8857    0.0000 H   0  0  0  0  0  0  0  0  0  0  0  0
    3.9581    6.2378    0.0000 H   0  0  0  0  0  0  0  0  0  0  0  0
    3.4063    6.9192    0.0000 H   0  0  0  0  0  0  0  0  0  0  0  0
    2.7248    6.3674    0.0000 H   0  0  0  0  0  0  0  0  0  0  0  0
    2.5756    6.2812    0.0000 H   0  0  0  0  0  0  0  0  0  0  0  0
    1.7570    5.9670    0.0000 H   0  0  0  0  0  0  0  0  0  0  0  0
    2.0712    5.1484    0.0000 H   0  0  0  0  0  0  0  0  0  0  0  0
    3.3423    0.9826    0.0000 H   0  0  0  0  0  0  0  0  0  0  0  0
    3.5486    0.2127    0.0000 H   0  0  0  0  0  0  0  0  0  0  0  0
    5.2894    1.3464    0.0000 H   0  0  0  0  0  0  0  0  0  0  0  0
    5.7278    2.1058    0.0000 H   0  0  0  0  0  0  0  0  0  0  0  0
    4.9685    2.5442    0.0000 H   0  0  0  0  0  0  0  0  0  0  0  0
    5.1732   -0.2486    0.0000 H   0  0  0  0  0  0  0  0  0  0  0  0
    4.9669    0.5213    0.0000 H   0  0  0  0  0  0  0  0  0  0  0  0
    3.2584   -0.7120    0.0000 H   0  0  0  0  0  0  0  0  0  0  0  0
    2.8065   -1.4078    0.0000 H   0  0  0  0  0  0  0  0  0  0  0  0
    2.8521   -2.2770    0.0000 H   0  0  0  0  0  0  0  0  0  0  0  0
    3.3742   -2.9218    0.0000 H   0  0  0  0  0  0  0  0  0  0  0  0
    6.1734   -3.1765    0.0000 H   0  0  0  0  0  0  0  0  0  0  0  0
    3.5538   -4.1820    0.0000 H   0  0  0  0  0  0  0  0  0  0  0  0
    6.7540   -4.6889    0.0000 H   0  0  0  0  0  0  0  0  0  0  0  0
    4.1344   -5.6944    0.0000 H   0  0  0  0  0  0  0  0  0  0  0  0
  1 27  1  0  0  0  0
  2 20  2  0  0  0  0
  3 13  1  0  0  0  0
  3 16  1  0  0  0  0
  3 17  1  0  0  0  0
  4 18  1  0  0  0  0
  4 19  1  0  0  0  0
  4 20  1  0  0  0  0
  5 20  1  0  0  0  0
  5 21  1  0  0  0  0
  5 22  1  0  0  0  0
  6  7  1  0  0  0  0
  6  9  1  0  0  0  0
  6 10  1  0  0  0  0
  6 13  1  0  0  0  0
  7  8  1  0  0  0  0
  7 14  1  0  0  0  0
  7 15  1  0  0  0  0
  8 11  1  0  0  0  0
  8 12  1  0  0  0  0
  8 28  1  0  0  0  0
  9 11  1  0  0  0  0
  9 29  1  0  0  0  0
  9 30  1  0  0  0  0
 10 12  1  0  0  0  0
 10 31  1  0  0  0  0
 10 32  1  0  0  0  0
 11 33  1  0  0  0  0
 11 34  1  0  0  0  0
 12 35  1  0  0  0  0
 12 36  1  0  0  0  0
 13 37  1  0  0  0  0
 13 38  1  0  0  0  0
 14 39  1  0  0  0  0
 14 40  1  0  0  0  0
 14 41  1  0  0  0  0
 15 42  1  0  0  0  0
 15 43  1  0  0  0  0
 15 44  1  0  0  0  0
 16 18  1  0  0  0  0
 16 45  1  0  0  0  0
 16 46  1  0  0  0  0
 17 47  1  0  0  0  0
 17 48  1  0  0  0  0
 17 49  1  0  0  0  0
 18 50  1  0  0  0  0
 18 51  1  0  0  0  0
 19 21  1  0  0  0  0
 19 52  1  0  0  0  0
 19 53  1  0  0  0  0
 21 54  1  0  0  0  0
 21 55  1  0  0  0  0
 22 23  2  0  0  0  0
 22 24  1  0  0  0  0
 23 25  1  0  0  0  0
 23 56  1  0  0  0  0
 24 26  2  0  0  0  0
 24 57  1  0  0  0  0
 25 27  2  0  0  0  0
 25 58  1  0  0  0  0
 26 27  1  0  0  0  0
 26 59  1  0  0  0  0
M  END
> <PUBCHEM_COMPOUND_CID>
45269235

> <PUBCHEM_COMPOUND_CANONICALIZED>
1

> <PUBCHEM_CACTVS_COMPLEXITY>
550

> <PUBCHEM_CACTVS_HBOND_ACCEPTOR>
3

> <PUBCHEM_CACTVS_HBOND_DONOR>
0

> <PUBCHEM_CACTVS_ROTATABLE_BOND>
6

> <PUBCHEM_CACTVS_SUBSKEYS>
AAADcfB7IQAAAAAAAAAAAAAAAAAAAeMEAAAwYAAAAAAAAAABAAAAHwAAAAAADwjBEAwzwIMAAACIACRCUACCAAAhAgAIiAAIZIiIYCLAkZGUIAhohgLIyCcQgMAPgAAAAAAAAACAAAAAAAAAAQAACAAAAA==

> <PUBCHEM_IUPAC_OPENEYE_NAME>
1-[2-[(7,7-dimethylnorbornan-1-yl)methyl-methyl-amino]ethyl]-3-(4-fluorophenyl)imidazolidin-2-one

> <PUBCHEM_IUPAC_CAS_NAME>
1-[2-[(7,7-dimethyl-1-bicyclo[2.2.1]heptanyl)methyl-methylamino]ethyl]-3-(4-fluorophenyl)-2-imidazolidinone

> <PUBCHEM_IUPAC_NAME_MARKUP>
1-[2-[(7,7-dimethyl-1-bicyclo[2.2.1]heptanyl)methyl-methylamino]ethyl]-3-(4-fluorophenyl)imidazolidin-2-one

> <PUBCHEM_IUPAC_NAME>
1-[2-[(7,7-dimethyl-1-bicyclo[2.2.1]heptanyl)methyl-methylamino]ethyl]-3-(4-fluorophenyl)imidazolidin-2-one

> <PUBCHEM_IUPAC_SYSTEMATIC_NAME>
1-[2-[(7,7-dimethyl-1-bicyclo[2.2.1]heptanyl)methyl-methyl-amino]ethyl]-3-(4-fluorophenyl)imidazolidin-2-one

> <PUBCHEM_IUPAC_TRADITIONAL_NAME>
1-[2-[(7,7-dimethylnorbornan-1-yl)methyl-methyl-amino]ethyl]-3-(4-fluorophenyl)-2-imidazolidinone

> <PUBCHEM_IUPAC_INCHI>
InChI=1S/C22H32FN3O/c1-21(2)17-8-10-22(21,11-9-17)16-24(3)12-13-25-14-15-26(20(25)27)19-6-4-18(23)5-7-19/h4-7,17H,8-16H2,1-3H3

> <PUBCHEM_IUPAC_INCHIKEY>
MLUVBFQPCVSGBZ-UHFFFAOYSA-N

> <PUBCHEM_XLOGP3_AA>
4.1

> <PUBCHEM_EXACT_MASS>
373.25294081

> <PUBCHEM_MOLECULAR_FORMULA>
C22H32FN3O

> <PUBCHEM_MOLECULAR_WEIGHT>
373.5

> <PUBCHEM_OPENEYE_CAN_SMILES>
CC1(C2CCC1(CC2)CN(C)CCN3CCN(C3=O)C4=CC=C(C=C4)F)C

> <PUBCHEM_OPENEYE_ISO_SMILES>
CC1(C2CCC1(CC2)CN(C)CCN3CCN(C3=O)C4=CC=C(C=C4)F)C

> <PUBCHEM_CACTVS_TPSA>
26.8

> <PUBCHEM_MONOISOTOPIC_WEIGHT>
373.25294081

> <PUBCHEM_TOTAL_CHARGE>
0

> <PUBCHEM_HEAVY_ATOM_COUNT>
27

> <PUBCHEM_ATOM_DEF_STEREO_COUNT>
0

> <PUBCHEM_ATOM_UDEF_STEREO_COUNT>
0

> <PUBCHEM_BOND_DEF_STEREO_COUNT>
0

> <PUBCHEM_BOND_UDEF_STEREO_COUNT>
0

> <PUBCHEM_ISOTOPIC_ATOM_COUNT>
0

> <PUBCHEM_COMPONENT_COUNT>
1

> <PUBCHEM_CACTVS_TAUTO_COUNT>
-1

> <PUBCHEM_COORDINATE_TYPE>
1
5
255

> <PUBCHEM_BONDANNOTATIONS>
22  23  8
22  24  8
23  25  8
24  26  8
25  27  8
26  27  8

$$$$
