9904074
  -OEChem-09292322102D

 43 45  0     1  0  0  0  0  0999 V2000
    3.8936   -0.8047    0.0000 S   0  0  0  0  0  0  0  0  0  0  0  0
    9.1017    0.0000    0.0000 N   0  0  0  0  0  0  0  0  0  0  0  0
    3.8936    0.8047    0.0000 N   0  0  0  0  0  0  0  0  0  0  0  0
    2.3100    0.0000    0.0000 N   0  0  0  0  0  0  0  0  0  0  0  0
    8.1017    0.0000    0.0000 C   0  0  3  0  0  0  0  0  0  0  0  0
    7.5181   -0.8047    0.0000 C   0  0  0  0  0  0  0  0  0  0  0  0
    7.5181    0.8047    0.0000 C   0  0  0  0  0  0  0  0  0  0  0  0
    6.5719   -0.5000    0.0000 C   0  0  0  0  0  0  0  0  0  0  0  0
    6.5719    0.5000    0.0000 C   0  0  0  0  0  0  0  0  0  0  0  0
    9.6017   -0.8660    0.0000 C   0  0  0  0  0  0  0  0  0  0  0  0
    9.6017    0.8660    0.0000 C   0  0  0  0  0  0  0  0  0  0  0  0
    5.7058   -1.0000    0.0000 C   0  0  0  0  0  0  0  0  0  0  0  0
    5.7058    1.0000    0.0000 C   0  0  0  0  0  0  0  0  0  0  0  0
   10.6017   -0.8660    0.0000 C   0  0  0  0  0  0  0  0  0  0  0  0
   10.6017    0.8660    0.0000 C   0  0  0  0  0  0  0  0  0  0  0  0
    4.8398   -0.5000    0.0000 C   0  0  0  0  0  0  0  0  0  0  0  0
    4.8398    0.5000    0.0000 C   0  0  0  0  0  0  0  0  0  0  0  0
   11.1017   -1.7320    0.0000 C   0  0  0  0  0  0  0  0  0  0  0  0
   11.1017    1.7320    0.0000 C   0  0  0  0  0  0  0  0  0  0  0  0
    3.3100    0.0000    0.0000 C   0  0  0  0  0  0  0  0  0  0  0  0
    8.3834    0.5523    0.0000 H   0  0  0  0  0  0  0  0  0  0  0  0
    7.2671   -1.3716    0.0000 H   0  0  0  0  0  0  0  0  0  0  0  0
    8.0555   -1.1140    0.0000 H   0  0  0  0  0  0  0  0  0  0  0  0
    8.0555    1.1140    0.0000 H   0  0  0  0  0  0  0  0  0  0  0  0
    7.2671    1.3716    0.0000 H   0  0  0  0  0  0  0  0  0  0  0  0
    9.0191   -1.0781    0.0000 H   0  0  0  0  0  0  0  0  0  0  0  0
    9.7094   -1.4766    0.0000 H   0  0  0  0  0  0  0  0  0  0  0  0
    9.7094    1.4766    0.0000 H   0  0  0  0  0  0  0  0  0  0  0  0
    9.0191    1.0781    0.0000 H   0  0  0  0  0  0  0  0  0  0  0  0
    5.7058   -1.6200    0.0000 H   0  0  0  0  0  0  0  0  0  0  0  0
    5.7058    1.6200    0.0000 H   0  0  0  0  0  0  0  0  0  0  0  0
   11.1843   -0.6540    0.0000 H   0  0  0  0  0  0  0  0  0  0  0  0
   10.4940   -0.2554    0.0000 H   0  0  0  0  0  0  0  0  0  0  0  0
   10.4940    0.2554    0.0000 H   0  0  0  0  0  0  0  0  0  0  0  0
   11.1843    0.6540    0.0000 H   0  0  0  0  0  0  0  0  0  0  0  0
   10.5648   -2.0420    0.0000 H   0  0  0  0  0  0  0  0  0  0  0  0
   11.4117   -2.2690    0.0000 H   0  0  0  0  0  0  0  0  0  0  0  0
   11.6386   -1.4220    0.0000 H   0  0  0  0  0  0  0  0  0  0  0  0
   11.6386    1.4220    0.0000 H   0  0  0  0  0  0  0  0  0  0  0  0
   11.4117    2.2690    0.0000 H   0  0  0  0  0  0  0  0  0  0  0  0
   10.5648    2.0420    0.0000 H   0  0  0  0  0  0  0  0  0  0  0  0
    2.0000    0.5369    0.0000 H   0  0  0  0  0  0  0  0  0  0  0  0
    2.0000   -0.5369    0.0000 H   0  0  0  0  0  0  0  0  0  0  0  0
  1 16  1  0  0  0  0
  1 20  1  0  0  0  0
  2  5  1  0  0  0  0
  2 10  1  0  0  0  0
  2 11  1  0  0  0  0
  3 17  1  0  0  0  0
  3 20  2  0  0  0  0
  4 20  1  0  0  0  0
  4 42  1  0  0  0  0
  4 43  1  0  0  0  0
  5  6  1  0  0  0  0
  5  7  1  0  0  0  0
  5 21  1  0  0  0  0
  6  8  1  0  0  0  0
  6 22  1  0  0  0  0
  6 23  1  0  0  0  0
  7  9  1  0  0  0  0
  7 24  1  0  0  0  0
  7 25  1  0  0  0  0
  8  9  1  0  0  0  0
  8 12  2  0  0  0  0
  9 13  2  0  0  0  0
 10 14  1  0  0  0  0
 10 26  1  0  0  0  0
 10 27  1  0  0  0  0
 11 15  1  0  0  0  0
 11 28  1  0  0  0  0
 11 29  1  0  0  0  0
 12 16  1  0  0  0  0
 12 30  1  0  0  0  0
 13 17  1  0  0  0  0
 13 31  1  0  0  0  0
 14 18  1  0  0  0  0
 14 32  1  0  0  0  0
 14 33  1  0  0  0  0
 15 19  1  0  0  0  0
 15 34  1  0  0  0  0
 15 35  1  0  0  0  0
 16 17  2  0  0  0  0
 18 36  1  0  0  0  0
 18 37  1  0  0  0  0
 18 38  1  0  0  0  0
 19 39  1  0  0  0  0
 19 40  1  0  0  0  0
 19 41  1  0  0  0  0
M  END
> <PUBCHEM_COMPOUND_CID>
9904074

> <PUBCHEM_COMPOUND_CANONICALIZED>
1

> <PUBCHEM_CACTVS_COMPLEXITY>
319

> <PUBCHEM_CACTVS_HBOND_ACCEPTOR>
4

> <PUBCHEM_CACTVS_HBOND_DONOR>
1

> <PUBCHEM_CACTVS_ROTATABLE_BOND>
5

> <PUBCHEM_CACTVS_SUBSKEYS>
AAADceB7AABAAAAAAAAAAAAAAAAAAeIAAAAwAAAAAAAAAHgB8AAAHAQQAAAADCjBXgQz0bNIEAikAyRiZACD8KlhCjlAmDw4ZJiIIKLgkZGEIAhggALIyCcQgIAOmAAAwAAQAQAwAAGAACACACAACAAAAA==

> <PUBCHEM_IUPAC_OPENEYE_NAME>
N6,N6-dipropyl-6,7-dihydro-5H-cyclopenta[f][1,3]benzothiazole-2,6-diamine

> <PUBCHEM_IUPAC_CAS_NAME>
N6,N6-dipropyl-6,7-dihydro-5H-cyclopenta[f][1,3]benzothiazole-2,6-diamine

> <PUBCHEM_IUPAC_NAME_MARKUP>
6-<I>N</I>,6-<I>N</I>-dipropyl-6,7-dihydro-5<I>H</I>-cyclopenta[f][1,3]benzothiazole-2,6-diamine

> <PUBCHEM_IUPAC_NAME>
6-N,6-N-dipropyl-6,7-dihydro-5H-cyclopenta[f][1,3]benzothiazole-2,6-diamine

> <PUBCHEM_IUPAC_SYSTEMATIC_NAME>
N6,N6-dipropyl-6,7-dihydro-5H-cyclopenta[f][1,3]benzothiazole-2,6-diamine

> <PUBCHEM_IUPAC_TRADITIONAL_NAME>
(2-amino-6,7-dihydro-5H-cyclopenta[f][1,3]benzothiazol-6-yl)-dipropyl-amine

> <PUBCHEM_IUPAC_INCHI>
InChI=1S/C16H23N3S/c1-3-5-19(6-4-2)13-7-11-9-14-15(10-12(11)8-13)20-16(17)18-14/h9-10,13H,3-8H2,1-2H3,(H2,17,18)

> <PUBCHEM_IUPAC_INCHIKEY>
REAPOTFJKWYQFW-UHFFFAOYSA-N

> <PUBCHEM_XLOGP3_AA>
4.2

> <PUBCHEM_EXACT_MASS>
289.16126892

> <PUBCHEM_MOLECULAR_FORMULA>
C16H23N3S

> <PUBCHEM_MOLECULAR_WEIGHT>
289.4

> <PUBCHEM_OPENEYE_CAN_SMILES>
CCCN(CCC)C1CC2=CC3=C(C=C2C1)SC(=N3)N

> <PUBCHEM_OPENEYE_ISO_SMILES>
CCCN(CCC)C1CC2=CC3=C(C=C2C1)SC(=N3)N

> <PUBCHEM_CACTVS_TPSA>
70.4

> <PUBCHEM_MONOISOTOPIC_WEIGHT>
289.16126892

> <PUBCHEM_TOTAL_CHARGE>
0

> <PUBCHEM_HEAVY_ATOM_COUNT>
20

> <PUBCHEM_ATOM_DEF_STEREO_COUNT>
0

> <PUBCHEM_ATOM_UDEF_STEREO_COUNT>
1

> <PUBCHEM_BOND_DEF_STEREO_COUNT>
0

> <PUBCHEM_BOND_UDEF_STEREO_COUNT>
0

> <PUBCHEM_ISOTOPIC_ATOM_COUNT>
0

> <PUBCHEM_COMPONENT_COUNT>
1

> <PUBCHEM_CACTVS_TAUTO_COUNT>
2

> <PUBCHEM_COORDINATE_TYPE>
1
5
255

> <PUBCHEM_BONDANNOTATIONS>
1  16  8
1  20  8
12  16  8
13  17  8
16  17  8
5  2  3
3  17  8
3  20  8
8  12  8
8  9  8
9  13  8

$$$$
