155566854
  -OEChem-09292322402D

 43 45  0     0  0  0  0  0  0999 V2000
    7.8535    4.4811    0.0000 Cl  0  0  0  0  0  0  0  0  0  0  0  0
    3.5259    3.4409    0.0000 S   0  0  0  0  0  0  0  0  0  0  0  0
    4.4764    3.7516    0.0000 O   0  0  0  0  0  0  0  0  0  0  0  0
    2.5753    3.1302    0.0000 O   0  0  0  0  0  0  0  0  0  0  0  0
    3.2152    4.3914    0.0000 N   0  0  0  0  0  0  0  0  0  0  0  0
    3.5287    8.5694    0.0000 N   0  0  0  0  0  0  0  0  0  0  0  0
    4.4775    7.2588    0.0000 N   0  0  0  0  0  0  0  0  0  0  0  0
    5.2892    8.8451    0.0000 N   0  0  0  0  0  0  0  0  0  0  0  0
    2.2690    4.6961    0.0000 C   0  0  0  0  0  0  0  0  0  0  0  0
    2.2690    5.6961    0.0000 C   0  0  0  0  0  0  0  0  0  0  0  0
    3.2152    6.0009    0.0000 C   0  0  0  0  0  0  0  0  0  0  0  0
    3.7988    5.1961    0.0000 C   0  0  0  0  0  0  0  0  0  0  0  0
    3.5259    6.9514    0.0000 C   0  0  0  0  0  0  0  0  0  0  0  0
    1.4030    4.1961    0.0000 C   0  0  0  0  0  0  0  0  0  0  0  0
    1.4030    6.1961    0.0000 C   0  0  0  0  0  0  0  0  0  0  0  0
    3.8365    2.4904    0.0000 C   0  0  0  0  0  0  0  0  0  0  0  0
    2.9395    7.7614    0.0000 C   0  0  0  0  0  0  0  0  0  0  0  0
    0.5369    4.6961    0.0000 C   0  0  0  0  0  0  0  0  0  0  0  0
    0.5369    5.6961    0.0000 C   0  0  0  0  0  0  0  0  0  0  0  0
    4.4792    8.2588    0.0000 C   0  0  0  0  0  0  0  0  0  0  0  0
    4.8150    2.2841    0.0000 C   0  0  0  0  0  0  0  0  0  0  0  0
    3.1687    1.7461    0.0000 C   0  0  0  0  0  0  0  0  0  0  0  0
    1.9395    7.7632    0.0000 C   0  0  0  0  0  0  0  0  0  0  0  0
    5.1257    1.3336    0.0000 C   0  0  0  0  0  0  0  0  0  0  0  0
    3.4794    0.7955    0.0000 C   0  0  0  0  0  0  0  0  0  0  0  0
    4.4579    0.5893    0.0000 C   0  0  0  0  0  0  0  0  0  0  0  0
    4.4188    5.1961    0.0000 H   0  0  0  0  0  0  0  0  0  0  0  0
    1.4030    3.5761    0.0000 H   0  0  0  0  0  0  0  0  0  0  0  0
    1.4030    6.8161    0.0000 H   0  0  0  0  0  0  0  0  0  0  0  0
    0.0000    4.3861    0.0000 H   0  0  0  0  0  0  0  0  0  0  0  0
    0.0000    6.0061    0.0000 H   0  0  0  0  0  0  0  0  0  0  0  0
    3.3381    9.1594    0.0000 H   0  0  0  0  0  0  0  0  0  0  0  0
    5.2291    2.7456    0.0000 H   0  0  0  0  0  0  0  0  0  0  0  0
    2.5620    1.8739    0.0000 H   0  0  0  0  0  0  0  0  0  0  0  0
    1.9406    8.3832    0.0000 H   0  0  0  0  0  0  0  0  0  0  0  0
    1.3195    7.7642    0.0000 H   0  0  0  0  0  0  0  0  0  0  0  0
    1.9384    7.1432    0.0000 H   0  0  0  0  0  0  0  0  0  0  0  0
    5.7324    1.2058    0.0000 H   0  0  0  0  0  0  0  0  0  0  0  0
    3.0653    0.3341    0.0000 H   0  0  0  0  0  0  0  0  0  0  0  0
    4.6505    0.0000    0.0000 H   0  0  0  0  0  0  0  0  0  0  0  0
    5.8552    8.5920    0.0000 H   0  0  0  0  0  0  0  0  0  0  0  0
    5.2255    9.4619    0.0000 H   0  0  0  0  0  0  0  0  0  0  0  0
    8.8535    4.4811    0.0000 H   0  0  0  0  0  0  0  0  0  0  0  0
  1 43  1  0  0  0  0
  2  3  2  0  0  0  0
  2  4  2  0  0  0  0
  2  5  1  0  0  0  0
  2 16  1  0  0  0  0
  5  9  1  0  0  0  0
  5 12  1  0  0  0  0
  6 17  1  0  0  0  0
  6 20  1  0  0  0  0
  6 32  1  0  0  0  0
  7 13  1  0  0  0  0
  7 20  2  0  0  0  0
  8 20  1  0  0  0  0
  8 41  1  0  0  0  0
  8 42  1  0  0  0  0
  9 10  1  0  0  0  0
  9 14  2  0  0  0  0
 10 11  1  0  0  0  0
 10 15  2  0  0  0  0
 11 12  2  0  0  0  0
 11 13  1  0  0  0  0
 12 27  1  0  0  0  0
 13 17  2  0  0  0  0
 14 18  1  0  0  0  0
 14 28  1  0  0  0  0
 15 19  1  0  0  0  0
 15 29  1  0  0  0  0
 16 21  2  0  0  0  0
 16 22  1  0  0  0  0
 17 23  1  0  0  0  0
 18 19  2  0  0  0  0
 18 30  1  0  0  0  0
 19 31  1  0  0  0  0
 21 24  1  0  0  0  0
 21 33  1  0  0  0  0
 22 25  2  0  0  0  0
 22 34  1  0  0  0  0
 23 35  1  0  0  0  0
 23 36  1  0  0  0  0
 23 37  1  0  0  0  0
 24 26  2  0  0  0  0
 24 38  1  0  0  0  0
 25 26  1  0  0  0  0
 25 39  1  0  0  0  0
 26 40  1  0  0  0  0
M  END
> <PUBCHEM_COMPOUND_CID>
155566854

> <PUBCHEM_COMPOUND_CANONICALIZED>
1

> <PUBCHEM_CACTVS_COMPLEXITY>
572

> <PUBCHEM_CACTVS_HBOND_ACCEPTOR>
4

> <PUBCHEM_CACTVS_HBOND_DONOR>
3

> <PUBCHEM_CACTVS_ROTATABLE_BOND>
3

> <PUBCHEM_CACTVS_SUBSKEYS>
AAADceB7sABEAAAAAAAAAAAAAAAAAWLAAAAwYAAAAAAAAFgB/AAAHAQQQAAADAjBXgQ/0fbJkAKgAzRnZHDCgD2xEqAJ2Tg4dJiIaOLA2ZGUIAhokALIyCcQgMAOgAAAAAACAAAAAAAAAAQAAAAAAAAAAA==

> <PUBCHEM_IUPAC_OPENEYE_NAME>
4-[1-(benzenesulfonyl)indol-3-yl]-5-methyl-1H-imidazol-2-amine;hydrochloride

> <PUBCHEM_IUPAC_CAS_NAME>
4-[1-(benzenesulfonyl)-3-indolyl]-5-methyl-1H-imidazol-2-amine;hydrochloride

> <PUBCHEM_IUPAC_NAME_MARKUP>
4-[1-(benzenesulfonyl)indol-3-yl]-5-methyl-1<I>H</I>-imidazol-2-amine;hydrochloride

> <PUBCHEM_IUPAC_NAME>
4-[1-(benzenesulfonyl)indol-3-yl]-5-methyl-1H-imidazol-2-amine;hydrochloride

> <PUBCHEM_IUPAC_SYSTEMATIC_NAME>
5-methyl-4-[1-(phenylsulfonyl)indol-3-yl]-1H-imidazol-2-amine;hydrochloride

> <PUBCHEM_IUPAC_TRADITIONAL_NAME>
[4-(1-besylindol-3-yl)-5-methyl-1H-imidazol-2-yl]amine;hydrochloride

> <PUBCHEM_IUPAC_INCHI>
InChI=1S/C18H16N4O2S.ClH/c1-12-17(21-18(19)20-12)15-11-22(16-10-6-5-9-14(15)16)25(23,24)13-7-3-2-4-8-13;/h2-11H,1H3,(H3,19,20,21);1H

> <PUBCHEM_IUPAC_INCHIKEY>
STZUMLRYDHMVFY-UHFFFAOYSA-N

> <PUBCHEM_EXACT_MASS>
388.0760747

> <PUBCHEM_MOLECULAR_FORMULA>
C18H17ClN4O2S

> <PUBCHEM_MOLECULAR_WEIGHT>
388.9

> <PUBCHEM_OPENEYE_CAN_SMILES>
CC1=C(N=C(N1)N)C2=CN(C3=CC=CC=C32)S(=O)(=O)C4=CC=CC=C4.Cl

> <PUBCHEM_OPENEYE_ISO_SMILES>
CC1=C(N=C(N1)N)C2=CN(C3=CC=CC=C32)S(=O)(=O)C4=CC=CC=C4.Cl

> <PUBCHEM_CACTVS_TPSA>
102

> <PUBCHEM_MONOISOTOPIC_WEIGHT>
388.0760747

> <PUBCHEM_TOTAL_CHARGE>
0

> <PUBCHEM_HEAVY_ATOM_COUNT>
26

> <PUBCHEM_ATOM_DEF_STEREO_COUNT>
0

> <PUBCHEM_ATOM_UDEF_STEREO_COUNT>
0

> <PUBCHEM_BOND_DEF_STEREO_COUNT>
0

> <PUBCHEM_BOND_UDEF_STEREO_COUNT>
0

> <PUBCHEM_ISOTOPIC_ATOM_COUNT>
0

> <PUBCHEM_COMPONENT_COUNT>
2

> <PUBCHEM_CACTVS_TAUTO_COUNT>
-1

> <PUBCHEM_COORDINATE_TYPE>
1
5
255

> <PUBCHEM_BONDANNOTATIONS>
10  11  8
10  15  8
11  12  8
13  17  8
14  18  8
15  19  8
16  21  8
16  22  8
18  19  8
21  24  8
22  25  8
24  26  8
25  26  8
5  12  8
5  9  8
6  17  8
6  20  8
7  13  8
7  20  8
9  10  8
9  14  8

$$$$
