10642106
  -OEChem-09292322522D

 45 48  0     0  0  0  0  0  0999 V2000
    2.0000    2.0773    0.0000 Cl  0  0  0  0  0  0  0  0  0  0  0  0
   11.5542    0.6120    0.0000 O   0  0  0  0  0  0  0  0  0  0  0  0
   13.3244   -1.4468    0.0000 O   0  0  0  0  0  0  0  0  0  0  0  0
    7.1962   -0.9227    0.0000 N   0  0  0  0  0  0  0  0  0  0  0  0
    5.4641    0.0773    0.0000 N   0  0  0  0  0  0  0  0  0  0  0  0
   11.5542   -1.4574    0.0000 N   0  0  0  0  0  0  0  0  0  0  0  0
    7.1962    0.0773    0.0000 C   0  0  0  0  0  0  0  0  0  0  0  0
    6.3301   -1.4227    0.0000 C   0  0  0  0  0  0  0  0  0  0  0  0
    6.3301    0.5773    0.0000 C   0  0  0  0  0  0  0  0  0  0  0  0
    5.4641   -0.9227    0.0000 C   0  0  0  0  0  0  0  0  0  0  0  0
    8.0622   -1.4227    0.0000 C   0  0  0  0  0  0  0  0  0  0  0  0
    4.5981    0.5773    0.0000 C   0  0  0  0  0  0  0  0  0  0  0  0
    8.9282   -0.9227    0.0000 C   0  0  0  0  0  0  0  0  0  0  0  0
    9.7942   -1.4227    0.0000 C   0  0  0  0  0  0  0  0  0  0  0  0
    8.9282    0.0773    0.0000 C   0  0  0  0  0  0  0  0  0  0  0  0
    3.7320    0.0773    0.0000 C   0  0  0  0  0  0  0  0  0  0  0  0
    4.5981    1.5773    0.0000 C   0  0  0  0  0  0  0  0  0  0  0  0
   10.6603   -0.9227    0.0000 C   0  0  0  0  0  0  0  0  0  0  0  0
   10.6603    0.0773    0.0000 C   0  0  0  0  0  0  0  0  0  0  0  0
    9.7942    0.5773    0.0000 C   0  0  0  0  0  0  0  0  0  0  0  0
    2.8660    0.5773    0.0000 C   0  0  0  0  0  0  0  0  0  0  0  0
    3.7320    2.0773    0.0000 C   0  0  0  0  0  0  0  0  0  0  0  0
    2.8660    1.5773    0.0000 C   0  0  0  0  0  0  0  0  0  0  0  0
   12.4603    0.0981    0.0000 C   0  0  0  0  0  0  0  0  0  0  0  0
   12.4603   -0.9435    0.0000 C   0  0  0  0  0  0  0  0  0  0  0  0
    7.8067   -0.0304    0.0000 H   0  0  0  0  0  0  0  0  0  0  0  0
    7.4082    0.6599    0.0000 H   0  0  0  0  0  0  0  0  0  0  0  0
    5.9316   -1.8976    0.0000 H   0  0  0  0  0  0  0  0  0  0  0  0
    6.7287   -1.8976    0.0000 H   0  0  0  0  0  0  0  0  0  0  0  0
    6.7287    1.0523    0.0000 H   0  0  0  0  0  0  0  0  0  0  0  0
    5.9316    1.0523    0.0000 H   0  0  0  0  0  0  0  0  0  0  0  0
    4.8535   -0.8150    0.0000 H   0  0  0  0  0  0  0  0  0  0  0  0
    5.2520   -1.5053    0.0000 H   0  0  0  0  0  0  0  0  0  0  0  0
    7.6636   -1.8976    0.0000 H   0  0  0  0  0  0  0  0  0  0  0  0
    8.4607   -1.8976    0.0000 H   0  0  0  0  0  0  0  0  0  0  0  0
    9.7942   -2.0427    0.0000 H   0  0  0  0  0  0  0  0  0  0  0  0
    8.3913    0.3873    0.0000 H   0  0  0  0  0  0  0  0  0  0  0  0
    3.7320   -0.5427    0.0000 H   0  0  0  0  0  0  0  0  0  0  0  0
    5.1350    1.8873    0.0000 H   0  0  0  0  0  0  0  0  0  0  0  0
    9.7942    1.1973    0.0000 H   0  0  0  0  0  0  0  0  0  0  0  0
    2.3291    0.2673    0.0000 H   0  0  0  0  0  0  0  0  0  0  0  0
    3.7320    2.6973    0.0000 H   0  0  0  0  0  0  0  0  0  0  0  0
   11.5470   -2.0773    0.0000 H   0  0  0  0  0  0  0  0  0  0  0  0
   13.0711   -0.0080    0.0000 H   0  0  0  0  0  0  0  0  0  0  0  0
   12.6693    0.6818    0.0000 H   0  0  0  0  0  0  0  0  0  0  0  0
  1 23  1  0  0  0  0
  2 19  1  0  0  0  0
  2 24  1  0  0  0  0
  3 25  2  0  0  0  0
  4  7  1  0  0  0  0
  4  8  1  0  0  0  0
  4 11  1  0  0  0  0
  5  9  1  0  0  0  0
  5 10  1  0  0  0  0
  5 12  1  0  0  0  0
  6 18  1  0  0  0  0
  6 25  1  0  0  0  0
  6 43  1  0  0  0  0
  7  9  1  0  0  0  0
  7 26  1  0  0  0  0
  7 27  1  0  0  0  0
  8 10  1  0  0  0  0
  8 28  1  0  0  0  0
  8 29  1  0  0  0  0
  9 30  1  0  0  0  0
  9 31  1  0  0  0  0
 10 32  1  0  0  0  0
 10 33  1  0  0  0  0
 11 13  1  0  0  0  0
 11 34  1  0  0  0  0
 11 35  1  0  0  0  0
 12 16  2  0  0  0  0
 12 17  1  0  0  0  0
 13 14  2  0  0  0  0
 13 15  1  0  0  0  0
 14 18  1  0  0  0  0
 14 36  1  0  0  0  0
 15 20  2  0  0  0  0
 15 37  1  0  0  0  0
 16 21  1  0  0  0  0
 16 38  1  0  0  0  0
 17 22  2  0  0  0  0
 17 39  1  0  0  0  0
 18 19  2  0  0  0  0
 19 20  1  0  0  0  0
 20 40  1  0  0  0  0
 21 23  2  0  0  0  0
 21 41  1  0  0  0  0
 22 23  1  0  0  0  0
 22 42  1  0  0  0  0
 24 25  1  0  0  0  0
 24 44  1  0  0  0  0
 24 45  1  0  0  0  0
M  END
> <PUBCHEM_COMPOUND_CID>
10642106

> <PUBCHEM_COMPOUND_CANONICALIZED>
1

> <PUBCHEM_CACTVS_COMPLEXITY>
462

> <PUBCHEM_CACTVS_HBOND_ACCEPTOR>
4

> <PUBCHEM_CACTVS_HBOND_DONOR>
1

> <PUBCHEM_CACTVS_ROTATABLE_BOND>
3

> <PUBCHEM_CACTVS_SUBSKEYS>
AAADceB7MAAEAAAAAAAAAAAAAAAAAAAAAAA8eIEAAAAAAACxQAAAHgIQAAAADA7hmCYwxoPABACIAiVSUAKCCAAhJwAIiABPbogOZiLFs5+XOCjk1BHY6AeQ0AIOIABAQAAAEABAAICAAAAgAAAAAAAAAA==

> <PUBCHEM_IUPAC_OPENEYE_NAME>
6-[[4-(4-chlorophenyl)piperazin-1-yl]methyl]-4H-1,4-benzoxazin-3-one

> <PUBCHEM_IUPAC_CAS_NAME>
6-[[4-(4-chlorophenyl)-1-piperazinyl]methyl]-4H-1,4-benzoxazin-3-one

> <PUBCHEM_IUPAC_NAME_MARKUP>
6-[[4-(4-chlorophenyl)piperazin-1-yl]methyl]-4<I>H</I>-1,4-benzoxazin-3-one

> <PUBCHEM_IUPAC_NAME>
6-[[4-(4-chlorophenyl)piperazin-1-yl]methyl]-4H-1,4-benzoxazin-3-one

> <PUBCHEM_IUPAC_SYSTEMATIC_NAME>
6-[[4-(4-chlorophenyl)piperazin-1-yl]methyl]-4H-1,4-benzoxazin-3-one

> <PUBCHEM_IUPAC_TRADITIONAL_NAME>
6-[[4-(4-chlorophenyl)piperazino]methyl]-4H-1,4-benzoxazin-3-one

> <PUBCHEM_IUPAC_INCHI>
InChI=1S/C19H20ClN3O2/c20-15-2-4-16(5-3-15)23-9-7-22(8-10-23)12-14-1-6-18-17(11-14)21-19(24)13-25-18/h1-6,11H,7-10,12-13H2,(H,21,24)

> <PUBCHEM_IUPAC_INCHIKEY>
XJCFFIUVQKFBHI-UHFFFAOYSA-N

> <PUBCHEM_XLOGP3_AA>
2.9

> <PUBCHEM_EXACT_MASS>
357.1244046

> <PUBCHEM_MOLECULAR_FORMULA>
C19H20ClN3O2

> <PUBCHEM_MOLECULAR_WEIGHT>
357.8

> <PUBCHEM_OPENEYE_CAN_SMILES>
C1CN(CCN1CC2=CC3=C(C=C2)OCC(=O)N3)C4=CC=C(C=C4)Cl

> <PUBCHEM_OPENEYE_ISO_SMILES>
C1CN(CCN1CC2=CC3=C(C=C2)OCC(=O)N3)C4=CC=C(C=C4)Cl

> <PUBCHEM_CACTVS_TPSA>
44.8

> <PUBCHEM_MONOISOTOPIC_WEIGHT>
357.1244046

> <PUBCHEM_TOTAL_CHARGE>
0

> <PUBCHEM_HEAVY_ATOM_COUNT>
25

> <PUBCHEM_ATOM_DEF_STEREO_COUNT>
0

> <PUBCHEM_ATOM_UDEF_STEREO_COUNT>
0

> <PUBCHEM_BOND_DEF_STEREO_COUNT>
0

> <PUBCHEM_BOND_UDEF_STEREO_COUNT>
0

> <PUBCHEM_ISOTOPIC_ATOM_COUNT>
0

> <PUBCHEM_COMPONENT_COUNT>
1

> <PUBCHEM_CACTVS_TAUTO_COUNT>
-1

> <PUBCHEM_COORDINATE_TYPE>
1
5
255

> <PUBCHEM_BONDANNOTATIONS>
12  16  8
12  17  8
13  14  8
13  15  8
14  18  8
15  20  8
16  21  8
17  22  8
18  19  8
19  20  8
21  23  8
22  23  8

$$$$
