10176243
  -OEChem-09292322082D

 22 23  0     0  0  0  0  0  0999 V2000
    7.2641   -0.2881    0.0000 N   0  0  0  0  0  0  0  0  0  0  0  0
    2.0000   -1.2673    0.0000 N   0  0  0  0  0  0  0  0  0  0  0  0
    6.3580    1.2673    0.0000 C   0  0  0  0  0  0  0  0  0  0  0  0
    5.4641    0.7327    0.0000 C   0  0  0  0  0  0  0  0  0  0  0  0
    5.4641   -0.2673    0.0000 C   0  0  0  0  0  0  0  0  0  0  0  0
    7.2641    0.7535    0.0000 C   0  0  0  0  0  0  0  0  0  0  0  0
    6.3580   -0.8020    0.0000 C   0  0  0  0  0  0  0  0  0  0  0  0
    4.5981    1.2327    0.0000 C   0  0  0  0  0  0  0  0  0  0  0  0
    4.5981   -0.7673    0.0000 C   0  0  0  0  0  0  0  0  0  0  0  0
    3.7320   -0.2673    0.0000 C   0  0  0  0  0  0  0  0  0  0  0  0
    3.7320    0.7327    0.0000 C   0  0  0  0  0  0  0  0  0  0  0  0
    2.8660   -0.7673    0.0000 C   0  0  0  0  0  0  0  0  0  0  0  0
    6.7517    1.7464    0.0000 H   0  0  0  0  0  0  0  0  0  0  0  0
    5.9534    1.7371    0.0000 H   0  0  0  0  0  0  0  0  0  0  0  0
    7.8750    0.6474    0.0000 H   0  0  0  0  0  0  0  0  0  0  0  0
    7.4732    1.3372    0.0000 H   0  0  0  0  0  0  0  0  0  0  0  0
    5.9534   -1.2718    0.0000 H   0  0  0  0  0  0  0  0  0  0  0  0
    6.7517   -1.2810    0.0000 H   0  0  0  0  0  0  0  0  0  0  0  0
    7.7998   -0.6002    0.0000 H   0  0  0  0  0  0  0  0  0  0  0  0
    4.5981    1.8527    0.0000 H   0  0  0  0  0  0  0  0  0  0  0  0
    4.5981   -1.3873    0.0000 H   0  0  0  0  0  0  0  0  0  0  0  0
    3.1951    1.0427    0.0000 H   0  0  0  0  0  0  0  0  0  0  0  0
  1  6  1  0  0  0  0
  1  7  1  0  0  0  0
  1 19  1  0  0  0  0
  2 12  3  0  0  0  0
  3  4  1  0  0  0  0
  3  6  1  0  0  0  0
  3 13  1  0  0  0  0
  3 14  1  0  0  0  0
  4  5  2  0  0  0  0
  4  8  1  0  0  0  0
  5  7  1  0  0  0  0
  5  9  1  0  0  0  0
  6 15  1  0  0  0  0
  6 16  1  0  0  0  0
  7 17  1  0  0  0  0
  7 18  1  0  0  0  0
  8 11  2  0  0  0  0
  8 20  1  0  0  0  0
  9 10  2  0  0  0  0
  9 21  1  0  0  0  0
 10 11  1  0  0  0  0
 10 12  1  0  0  0  0
 11 22  1  0  0  0  0
M  END
> <PUBCHEM_COMPOUND_CID>
10176243

> <PUBCHEM_COMPOUND_CANONICALIZED>
1

> <PUBCHEM_CACTVS_COMPLEXITY>
203

> <PUBCHEM_CACTVS_HBOND_ACCEPTOR>
2

> <PUBCHEM_CACTVS_HBOND_DONOR>
1

> <PUBCHEM_CACTVS_ROTATABLE_BOND>
0

> <PUBCHEM_CACTVS_SUBSKEYS>
AAADccBzAAAAAAAAAAAAAAAAAAAAAAAAAAA8QAAAAAAAAACxAAAAHAAQAAAADADBGAQwAILAAACQBiBCAACiAAAgAAAIiIAIBIgIoCKAkRGEIAhgkACIiA8QgMAOwAACAAAQAACAAAQAACAAAAAAAAAAAA==

> <PUBCHEM_IUPAC_OPENEYE_NAME>
1,2,3,4-tetrahydroisoquinoline-7-carbonitrile

> <PUBCHEM_IUPAC_CAS_NAME>
1,2,3,4-tetrahydroisoquinoline-7-carbonitrile

> <PUBCHEM_IUPAC_NAME_MARKUP>
1,2,3,4-tetrahydroisoquinoline-7-carbonitrile

> <PUBCHEM_IUPAC_NAME>
1,2,3,4-tetrahydroisoquinoline-7-carbonitrile

> <PUBCHEM_IUPAC_SYSTEMATIC_NAME>
1,2,3,4-tetrahydroisoquinoline-7-carbonitrile

> <PUBCHEM_IUPAC_TRADITIONAL_NAME>
1,2,3,4-tetrahydroisoquinoline-7-carbonitrile

> <PUBCHEM_IUPAC_INCHI>
InChI=1S/C10H10N2/c11-6-8-1-2-9-3-4-12-7-10(9)5-8/h1-2,5,12H,3-4,7H2

> <PUBCHEM_IUPAC_INCHIKEY>
LJFNUFCUPDECPC-UHFFFAOYSA-N

> <PUBCHEM_XLOGP3_AA>
1

> <PUBCHEM_EXACT_MASS>
158.084398327

> <PUBCHEM_MOLECULAR_FORMULA>
C10H10N2

> <PUBCHEM_MOLECULAR_WEIGHT>
158.20

> <PUBCHEM_OPENEYE_CAN_SMILES>
C1CNCC2=C1C=CC(=C2)C#N

> <PUBCHEM_OPENEYE_ISO_SMILES>
C1CNCC2=C1C=CC(=C2)C#N

> <PUBCHEM_CACTVS_TPSA>
35.8

> <PUBCHEM_MONOISOTOPIC_WEIGHT>
158.084398327

> <PUBCHEM_TOTAL_CHARGE>
0

> <PUBCHEM_HEAVY_ATOM_COUNT>
12

> <PUBCHEM_ATOM_DEF_STEREO_COUNT>
0

> <PUBCHEM_ATOM_UDEF_STEREO_COUNT>
0

> <PUBCHEM_BOND_DEF_STEREO_COUNT>
0

> <PUBCHEM_BOND_UDEF_STEREO_COUNT>
0

> <PUBCHEM_ISOTOPIC_ATOM_COUNT>
0

> <PUBCHEM_COMPONENT_COUNT>
1

> <PUBCHEM_CACTVS_TAUTO_COUNT>
1

> <PUBCHEM_COORDINATE_TYPE>
1
5
255

> <PUBCHEM_BONDANNOTATIONS>
10  11  8
4  5  8
4  8  8
5  9  8
8  11  8
9  10  8

$$$$
