137655029
  -OEChem-09292322392D

 61 65  0     0  0  0  0  0  0999 V2000
    8.8271    4.1437    0.0000 O   0  0  0  0  0  0  0  0  0  0  0  0
    8.8271    6.2130    0.0000 O   0  0  0  0  0  0  0  0  0  0  0  0
    5.3351   -2.8217    0.0000 O   0  0  0  0  0  0  0  0  0  0  0  0
    7.0671    7.1783    0.0000 O   0  0  0  0  0  0  0  0  0  0  0  0
    3.7510   -7.4883    0.0000 O   0  0  0  0  0  0  0  0  0  0  0  0
    7.0671    1.1783    0.0000 N   0  0  0  0  0  0  0  0  0  0  0  0
    7.0671    3.1783    0.0000 N   0  0  0  0  0  0  0  0  0  0  0  0
    2.7370   -4.3217    0.0000 N   0  0  0  0  0  0  0  0  0  0  0  0
    2.0000   -4.9888    0.0000 N   0  0  0  0  0  0  0  0  0  0  0  0
    7.9332    1.6783    0.0000 C   0  0  0  0  0  0  0  0  0  0  0  0
    6.2011    1.6783    0.0000 C   0  0  0  0  0  0  0  0  0  0  0  0
    7.9332    2.6783    0.0000 C   0  0  0  0  0  0  0  0  0  0  0  0
    6.2011    2.6783    0.0000 C   0  0  0  0  0  0  0  0  0  0  0  0
    7.0671    0.1783    0.0000 C   0  0  0  0  0  0  0  0  0  0  0  0
    6.2011   -0.3217    0.0000 C   0  0  0  0  0  0  0  0  0  0  0  0
    7.0671    4.1783    0.0000 C   0  0  0  0  0  0  0  0  0  0  0  0
    6.2011   -1.3217    0.0000 C   0  0  0  0  0  0  0  0  0  0  0  0
    7.9332    4.6783    0.0000 C   0  0  0  0  0  0  0  0  0  0  0  0
    6.2011    4.6783    0.0000 C   0  0  0  0  0  0  0  0  0  0  0  0
    5.3351   -1.8217    0.0000 C   0  0  0  0  0  0  0  0  0  0  0  0
    7.9332    5.6783    0.0000 C   0  0  0  0  0  0  0  0  0  0  0  0
    6.2011    5.6783    0.0000 C   0  0  0  0  0  0  0  0  0  0  0  0
    7.0671    6.1783    0.0000 C   0  0  0  0  0  0  0  0  0  0  0  0
    9.7332    4.6575    0.0000 C   0  0  0  0  0  0  0  0  0  0  0  0
    9.7332    5.6991    0.0000 C   0  0  0  0  0  0  0  0  0  0  0  0
    4.4691   -3.3217    0.0000 C   0  0  0  0  0  0  0  0  0  0  0  0
    4.4691   -4.3217    0.0000 C   0  0  0  0  0  0  0  0  0  0  0  0
    3.6030   -4.8217    0.0000 C   0  0  0  0  0  0  0  0  0  0  0  0
    3.6030   -2.8217    0.0000 C   0  0  0  0  0  0  0  0  0  0  0  0
    2.7370   -3.3217    0.0000 C   0  0  0  0  0  0  0  0  0  0  0  0
    3.3938   -5.7935    0.0000 C   0  0  0  0  0  0  0  0  0  0  0  0
    2.4051   -5.8966    0.0000 C   0  0  0  0  0  0  0  0  0  0  0  0
    4.0617   -6.5378    0.0000 C   0  0  0  0  0  0  0  0  0  0  0  0
    8.1452    1.0957    0.0000 H   0  0  0  0  0  0  0  0  0  0  0  0
    8.5438    1.7860    0.0000 H   0  0  0  0  0  0  0  0  0  0  0  0
    5.5905    1.7860    0.0000 H   0  0  0  0  0  0  0  0  0  0  0  0
    5.9891    1.0957    0.0000 H   0  0  0  0  0  0  0  0  0  0  0  0
    8.5438    2.5707    0.0000 H   0  0  0  0  0  0  0  0  0  0  0  0
    8.1452    3.2609    0.0000 H   0  0  0  0  0  0  0  0  0  0  0  0
    5.9891    3.2609    0.0000 H   0  0  0  0  0  0  0  0  0  0  0  0
    5.5905    2.5707    0.0000 H   0  0  0  0  0  0  0  0  0  0  0  0
    7.2792   -0.4043    0.0000 H   0  0  0  0  0  0  0  0  0  0  0  0
    7.6777    0.2860    0.0000 H   0  0  0  0  0  0  0  0  0  0  0  0
    5.9891    0.2609    0.0000 H   0  0  0  0  0  0  0  0  0  0  0  0
    5.5905   -0.4293    0.0000 H   0  0  0  0  0  0  0  0  0  0  0  0
    6.4132   -1.9043    0.0000 H   0  0  0  0  0  0  0  0  0  0  0  0
    6.8117   -1.2140    0.0000 H   0  0  0  0  0  0  0  0  0  0  0  0
    5.6642    4.3683    0.0000 H   0  0  0  0  0  0  0  0  0  0  0  0
    5.1230   -1.2391    0.0000 H   0  0  0  0  0  0  0  0  0  0  0  0
    4.7245   -1.9293    0.0000 H   0  0  0  0  0  0  0  0  0  0  0  0
    5.6642    5.9883    0.0000 H   0  0  0  0  0  0  0  0  0  0  0  0
    9.9422    4.0738    0.0000 H   0  0  0  0  0  0  0  0  0  0  0  0
   10.3440    4.7636    0.0000 H   0  0  0  0  0  0  0  0  0  0  0  0
   10.3440    5.5930    0.0000 H   0  0  0  0  0  0  0  0  0  0  0  0
    9.9422    6.2828    0.0000 H   0  0  0  0  0  0  0  0  0  0  0  0
    6.5302    7.4883    0.0000 H   0  0  0  0  0  0  0  0  0  0  0  0
    5.0060   -4.6317    0.0000 H   0  0  0  0  0  0  0  0  0  0  0  0
    3.6030   -2.2017    0.0000 H   0  0  0  0  0  0  0  0  0  0  0  0
    2.2001   -3.0117    0.0000 H   0  0  0  0  0  0  0  0  0  0  0  0
    2.0951   -6.4335    0.0000 H   0  0  0  0  0  0  0  0  0  0  0  0
    4.6684   -6.4099    0.0000 H   0  0  0  0  0  0  0  0  0  0  0  0
  1 18  1  0  0  0  0
  1 24  1  0  0  0  0
  2 21  1  0  0  0  0
  2 25  1  0  0  0  0
  3 20  1  0  0  0  0
  3 26  1  0  0  0  0
  4 23  1  0  0  0  0
  4 56  1  0  0  0  0
  5 33  2  0  0  0  0
  6 10  1  0  0  0  0
  6 11  1  0  0  0  0
  6 14  1  0  0  0  0
  7 12  1  0  0  0  0
  7 13  1  0  0  0  0
  7 16  1  0  0  0  0
  8  9  1  0  0  0  0
  8 28  1  0  0  0  0
  8 30  1  0  0  0  0
  9 32  2  0  0  0  0
 10 12  1  0  0  0  0
 10 34  1  0  0  0  0
 10 35  1  0  0  0  0
 11 13  1  0  0  0  0
 11 36  1  0  0  0  0
 11 37  1  0  0  0  0
 12 38  1  0  0  0  0
 12 39  1  0  0  0  0
 13 40  1  0  0  0  0
 13 41  1  0  0  0  0
 14 15  1  0  0  0  0
 14 42  1  0  0  0  0
 14 43  1  0  0  0  0
 15 17  1  0  0  0  0
 15 44  1  0  0  0  0
 15 45  1  0  0  0  0
 16 18  2  0  0  0  0
 16 19  1  0  0  0  0
 17 20  1  0  0  0  0
 17 46  1  0  0  0  0
 17 47  1  0  0  0  0
 18 21  1  0  0  0  0
 19 22  2  0  0  0  0
 19 48  1  0  0  0  0
 20 49  1  0  0  0  0
 20 50  1  0  0  0  0
 21 23  2  0  0  0  0
 22 23  1  0  0  0  0
 22 51  1  0  0  0  0
 24 25  1  0  0  0  0
 24 52  1  0  0  0  0
 24 53  1  0  0  0  0
 25 54  1  0  0  0  0
 25 55  1  0  0  0  0
 26 27  2  0  0  0  0
 26 29  1  0  0  0  0
 27 28  1  0  0  0  0
 27 57  1  0  0  0  0
 28 31  2  0  0  0  0
 29 30  2  0  0  0  0
 29 58  1  0  0  0  0
 30 59  1  0  0  0  0
 31 32  1  0  0  0  0
 31 33  1  0  0  0  0
 32 60  1  0  0  0  0
 33 61  1  0  0  0  0
M  END
> <PUBCHEM_COMPOUND_CID>
137655029

> <PUBCHEM_COMPOUND_CANONICALIZED>
1

> <PUBCHEM_CACTVS_COMPLEXITY>
634

> <PUBCHEM_CACTVS_HBOND_ACCEPTOR>
8

> <PUBCHEM_CACTVS_HBOND_DONOR>
1

> <PUBCHEM_CACTVS_ROTATABLE_BOND>
8

> <PUBCHEM_CACTVS_SUBSKEYS>
AAADceB7uAAAAAAAAAAAAAAAAAAAAWAAAAA8WJEAAAAAAFiR8AAAHgAICAAADAzhngY8xrMIFgCqAzx3xACSjCA1oiAY2CE/7NgPZ/rG9duX/avnyB3b+ce4/E/MAEAACgAAUAAAgAAUAACgAAAAAAAAAA==

> <PUBCHEM_IUPAC_OPENEYE_NAME>
5-[4-[4-(5-hydroxy-2,3-dihydro-1,4-benzodioxin-8-yl)piperazin-1-yl]butoxy]pyrazolo[1,5-a]pyridine-3-carbaldehyde

> <PUBCHEM_IUPAC_CAS_NAME>
5-[4-[4-(5-hydroxy-2,3-dihydro-1,4-benzodioxin-8-yl)-1-piperazinyl]butoxy]-3-pyrazolo[1,5-a]pyridinecarboxaldehyde

> <PUBCHEM_IUPAC_NAME_MARKUP>
5-[4-[4-(5-hydroxy-2,3-dihydro-1,4-benzodioxin-8-yl)piperazin-1-yl]butoxy]pyrazolo[1,5-a]pyridine-3-carbaldehyde

> <PUBCHEM_IUPAC_NAME>
5-[4-[4-(5-hydroxy-2,3-dihydro-1,4-benzodioxin-8-yl)piperazin-1-yl]butoxy]pyrazolo[1,5-a]pyridine-3-carbaldehyde

> <PUBCHEM_IUPAC_SYSTEMATIC_NAME>
5-[4-[4-(5-oxidanyl-2,3-dihydro-1,4-benzodioxin-8-yl)piperazin-1-yl]butoxy]pyrazolo[1,5-a]pyridine-3-carbaldehyde

> <PUBCHEM_IUPAC_TRADITIONAL_NAME>
5-[4-[4-(5-hydroxy-2,3-dihydro-1,4-benzodioxin-8-yl)piperazino]butoxy]pyrazolo[1,5-a]pyridine-3-carbaldehyde

> <PUBCHEM_IUPAC_INCHI>
InChI=1S/C24H28N4O5/c29-17-18-16-25-28-7-5-19(15-21(18)28)31-12-2-1-6-26-8-10-27(11-9-26)20-3-4-22(30)24-23(20)32-13-14-33-24/h3-5,7,15-17,30H,1-2,6,8-14H2

> <PUBCHEM_IUPAC_INCHIKEY>
LGUYPNXAMCYIHX-UHFFFAOYSA-N

> <PUBCHEM_XLOGP3_AA>
2.2

> <PUBCHEM_EXACT_MASS>
452.20597001

> <PUBCHEM_MOLECULAR_FORMULA>
C24H28N4O5

> <PUBCHEM_MOLECULAR_WEIGHT>
452.5

> <PUBCHEM_OPENEYE_CAN_SMILES>
C1CN(CCN1CCCCOC2=CC3=C(C=NN3C=C2)C=O)C4=C5C(=C(C=C4)O)OCCO5

> <PUBCHEM_OPENEYE_ISO_SMILES>
C1CN(CCN1CCCCOC2=CC3=C(C=NN3C=C2)C=O)C4=C5C(=C(C=C4)O)OCCO5

> <PUBCHEM_CACTVS_TPSA>
88.8

> <PUBCHEM_MONOISOTOPIC_WEIGHT>
452.20597001

> <PUBCHEM_TOTAL_CHARGE>
0

> <PUBCHEM_HEAVY_ATOM_COUNT>
33

> <PUBCHEM_ATOM_DEF_STEREO_COUNT>
0

> <PUBCHEM_ATOM_UDEF_STEREO_COUNT>
0

> <PUBCHEM_BOND_DEF_STEREO_COUNT>
0

> <PUBCHEM_BOND_UDEF_STEREO_COUNT>
0

> <PUBCHEM_ISOTOPIC_ATOM_COUNT>
0

> <PUBCHEM_COMPONENT_COUNT>
1

> <PUBCHEM_CACTVS_TAUTO_COUNT>
-1

> <PUBCHEM_COORDINATE_TYPE>
1
5
255

> <PUBCHEM_BONDANNOTATIONS>
16  18  8
16  19  8
18  21  8
19  22  8
21  23  8
22  23  8
26  27  8
26  29  8
27  28  8
28  31  8
29  30  8
31  32  8
8  28  8
8  30  8
8  9  8
9  32  8

$$$$
