24771120
  -OEChem-09292322462D

 53 57  0     0  0  0  0  0  0999 V2000
    9.6396    0.2878    0.0000 S   0  0  0  0  0  0  0  0  0  0  0  0
    5.8528   -3.3225    0.0000 O   0  0  0  0  0  0  0  0  0  0  0  0
    8.6396    0.2878    0.0000 O   0  0  0  0  0  0  0  0  0  0  0  0
   10.6396    0.2878    0.0000 O   0  0  0  0  0  0  0  0  0  0  0  0
    2.6067   -1.7533    0.0000 N   0  0  0  0  0  0  0  0  0  0  0  0
    6.2100   -1.6277    0.0000 N   0  0  0  0  0  0  0  0  0  0  0  0
    9.6396   -0.7122    0.0000 N   0  0  0  0  0  0  0  0  0  0  0  0
   10.4444   -1.2958    0.0000 N   0  0  0  0  0  0  0  0  0  0  0  0
    4.5637   -2.1657    0.0000 C   0  0  0  0  0  0  0  0  0  0  0  0
    3.8958   -2.9100    0.0000 C   0  0  0  0  0  0  0  0  0  0  0  0
    4.2530   -1.2152    0.0000 C   0  0  0  0  0  0  0  0  0  0  0  0
    2.9173   -2.7038    0.0000 C   0  0  0  0  0  0  0  0  0  0  0  0
    3.2745   -1.0090    0.0000 C   0  0  0  0  0  0  0  0  0  0  0  0
    5.5422   -2.3720    0.0000 C   0  0  0  0  0  0  0  0  0  0  0  0
    7.1885   -1.8339    0.0000 C   0  0  0  0  0  0  0  0  0  0  0  0
    8.8349   -1.2958    0.0000 C   0  0  0  0  0  0  0  0  0  0  0  0
    7.8564   -1.0896    0.0000 C   0  0  0  0  0  0  0  0  0  0  0  0
    9.1456   -2.2463    0.0000 C   0  0  0  0  0  0  0  0  0  0  0  0
    9.6396    1.2878    0.0000 C   0  0  0  0  0  0  0  0  0  0  0  0
    7.4992   -2.7844    0.0000 C   0  0  0  0  0  0  0  0  0  0  0  0
    8.4777   -2.9906    0.0000 C   0  0  0  0  0  0  0  0  0  0  0  0
   10.5056    1.7878    0.0000 C   0  0  0  0  0  0  0  0  0  0  0  0
   10.1396   -2.2420    0.0000 C   0  0  0  0  0  0  0  0  0  0  0  0
   10.5056    2.7878    0.0000 C   0  0  0  0  0  0  0  0  0  0  0  0
    8.7736    1.7878    0.0000 C   0  0  0  0  0  0  0  0  0  0  0  0
   11.3996    1.2532    0.0000 C   0  0  0  0  0  0  0  0  0  0  0  0
    9.6396    3.2878    0.0000 C   0  0  0  0  0  0  0  0  0  0  0  0
    8.7736    2.7878    0.0000 C   0  0  0  0  0  0  0  0  0  0  0  0
   11.3996    3.3225    0.0000 C   0  0  0  0  0  0  0  0  0  0  0  0
   12.3057    1.7670    0.0000 C   0  0  0  0  0  0  0  0  0  0  0  0
   12.3057    2.8086    0.0000 C   0  0  0  0  0  0  0  0  0  0  0  0
    4.7563   -2.7551    0.0000 H   0  0  0  0  0  0  0  0  0  0  0  0
    3.6646   -3.4853    0.0000 H   0  0  0  0  0  0  0  0  0  0  0  0
    4.4222   -3.2377    0.0000 H   0  0  0  0  0  0  0  0  0  0  0  0
    4.8668   -1.1279    0.0000 H   0  0  0  0  0  0  0  0  0  0  0  0
    4.2736   -0.5956    0.0000 H   0  0  0  0  0  0  0  0  0  0  0  0
    2.3035   -2.7912    0.0000 H   0  0  0  0  0  0  0  0  0  0  0  0
    2.8968   -3.3235    0.0000 H   0  0  0  0  0  0  0  0  0  0  0  0
    3.5058   -0.4337    0.0000 H   0  0  0  0  0  0  0  0  0  0  0  0
    2.7482   -0.6814    0.0000 H   0  0  0  0  0  0  0  0  0  0  0  0
    2.0000   -1.6254    0.0000 H   0  0  0  0  0  0  0  0  0  0  0  0
    6.0174   -1.0383    0.0000 H   0  0  0  0  0  0  0  0  0  0  0  0
    7.6638   -0.5003    0.0000 H   0  0  0  0  0  0  0  0  0  0  0  0
    7.0851   -3.2459    0.0000 H   0  0  0  0  0  0  0  0  0  0  0  0
    8.6703   -3.5799    0.0000 H   0  0  0  0  0  0  0  0  0  0  0  0
   10.5058   -2.7423    0.0000 H   0  0  0  0  0  0  0  0  0  0  0  0
    8.2367    1.4778    0.0000 H   0  0  0  0  0  0  0  0  0  0  0  0
   11.3924    0.6332    0.0000 H   0  0  0  0  0  0  0  0  0  0  0  0
    9.6396    3.9078    0.0000 H   0  0  0  0  0  0  0  0  0  0  0  0
    8.2367    3.0978    0.0000 H   0  0  0  0  0  0  0  0  0  0  0  0
   11.3924    3.9424    0.0000 H   0  0  0  0  0  0  0  0  0  0  0  0
   12.8414    1.4549    0.0000 H   0  0  0  0  0  0  0  0  0  0  0  0
   12.8414    3.1207    0.0000 H   0  0  0  0  0  0  0  0  0  0  0  0
  1  3  2  0  0  0  0
  1  4  2  0  0  0  0
  1  7  1  0  0  0  0
  1 19  1  0  0  0  0
  2 14  2  0  0  0  0
  5 12  1  0  0  0  0
  5 13  1  0  0  0  0
  5 41  1  0  0  0  0
  6 14  1  0  0  0  0
  6 15  1  0  0  0  0
  6 42  1  0  0  0  0
  7  8  1  0  0  0  0
  7 16  1  0  0  0  0
  8 23  2  0  0  0  0
  9 10  1  0  0  0  0
  9 11  1  0  0  0  0
  9 14  1  0  0  0  0
  9 32  1  0  0  0  0
 10 12  1  0  0  0  0
 10 33  1  0  0  0  0
 10 34  1  0  0  0  0
 11 13  1  0  0  0  0
 11 35  1  0  0  0  0
 11 36  1  0  0  0  0
 12 37  1  0  0  0  0
 12 38  1  0  0  0  0
 13 39  1  0  0  0  0
 13 40  1  0  0  0  0
 15 17  2  0  0  0  0
 15 20  1  0  0  0  0
 16 17  1  0  0  0  0
 16 18  2  0  0  0  0
 17 43  1  0  0  0  0
 18 21  1  0  0  0  0
 18 23  1  0  0  0  0
 19 22  1  0  0  0  0
 19 25  2  0  0  0  0
 20 21  2  0  0  0  0
 20 44  1  0  0  0  0
 21 45  1  0  0  0  0
 22 24  1  0  0  0  0
 22 26  2  0  0  0  0
 23 46  1  0  0  0  0
 24 27  1  0  0  0  0
 24 29  2  0  0  0  0
 25 28  1  0  0  0  0
 25 47  1  0  0  0  0
 26 30  1  0  0  0  0
 26 48  1  0  0  0  0
 27 28  2  0  0  0  0
 27 49  1  0  0  0  0
 28 50  1  0  0  0  0
 29 31  1  0  0  0  0
 29 51  1  0  0  0  0
 30 31  2  0  0  0  0
 30 52  1  0  0  0  0
 31 53  1  0  0  0  0
M  END
> <PUBCHEM_COMPOUND_CID>
24771120

> <PUBCHEM_COMPOUND_CANONICALIZED>
1

> <PUBCHEM_CACTVS_COMPLEXITY>
748

> <PUBCHEM_CACTVS_HBOND_ACCEPTOR>
5

> <PUBCHEM_CACTVS_HBOND_DONOR>
2

> <PUBCHEM_CACTVS_ROTATABLE_BOND>
4

> <PUBCHEM_CACTVS_SUBSKEYS>
AAADceB7sABAAAAAAAAAAAAAAAAAAWAAAAA8YMEAAAAAAFjB9AAAHgQYQAAADQjB3gQ8wfLAAAKqAzV3UHDSBBAhggAYmLk4ZJgIILLA0dGEpAhgnADIyAcUgIAOiAAAgAQWAAAQAAEACCwAAAAAAAAAAA==

> <PUBCHEM_IUPAC_OPENEYE_NAME>
N-[1-(1-naphthylsulfonyl)indazol-6-yl]piperidine-4-carboxamide

> <PUBCHEM_IUPAC_CAS_NAME>
N-[1-(1-naphthalenylsulfonyl)-6-indazolyl]-4-piperidinecarboxamide

> <PUBCHEM_IUPAC_NAME_MARKUP>
<I>N</I>-(1-naphthalen-1-ylsulfonylindazol-6-yl)piperidine-4-carboxamide

> <PUBCHEM_IUPAC_NAME>
N-(1-naphthalen-1-ylsulfonylindazol-6-yl)piperidine-4-carboxamide

> <PUBCHEM_IUPAC_SYSTEMATIC_NAME>
N-(1-naphthalen-1-ylsulfonylindazol-6-yl)piperidine-4-carboxamide

> <PUBCHEM_IUPAC_TRADITIONAL_NAME>
N-[1-(1-naphthylsulfonyl)indazol-6-yl]isonipecotamide

> <PUBCHEM_IUPAC_INCHI>
InChI=1S/C23H22N4O3S/c28-23(17-10-12-24-13-11-17)26-19-9-8-18-15-25-27(21(18)14-19)31(29,30)22-7-3-5-16-4-1-2-6-20(16)22/h1-9,14-15,17,24H,10-13H2,(H,26,28)

> <PUBCHEM_IUPAC_INCHIKEY>
KVDHEMNUTADYJJ-UHFFFAOYSA-N

> <PUBCHEM_XLOGP3_AA>
3.3

> <PUBCHEM_EXACT_MASS>
434.14126175

> <PUBCHEM_MOLECULAR_FORMULA>
C23H22N4O3S

> <PUBCHEM_MOLECULAR_WEIGHT>
434.5

> <PUBCHEM_OPENEYE_CAN_SMILES>
C1CNCCC1C(=O)NC2=CC3=C(C=C2)C=NN3S(=O)(=O)C4=CC=CC5=CC=CC=C54

> <PUBCHEM_OPENEYE_ISO_SMILES>
C1CNCCC1C(=O)NC2=CC3=C(C=C2)C=NN3S(=O)(=O)C4=CC=CC5=CC=CC=C54

> <PUBCHEM_CACTVS_TPSA>
102

> <PUBCHEM_MONOISOTOPIC_WEIGHT>
434.14126175

> <PUBCHEM_TOTAL_CHARGE>
0

> <PUBCHEM_HEAVY_ATOM_COUNT>
31

> <PUBCHEM_ATOM_DEF_STEREO_COUNT>
0

> <PUBCHEM_ATOM_UDEF_STEREO_COUNT>
0

> <PUBCHEM_BOND_DEF_STEREO_COUNT>
0

> <PUBCHEM_BOND_UDEF_STEREO_COUNT>
0

> <PUBCHEM_ISOTOPIC_ATOM_COUNT>
0

> <PUBCHEM_COMPONENT_COUNT>
1

> <PUBCHEM_CACTVS_TAUTO_COUNT>
-1

> <PUBCHEM_COORDINATE_TYPE>
1
5
255

> <PUBCHEM_BONDANNOTATIONS>
15  17  8
15  20  8
16  17  8
16  18  8
18  21  8
18  23  8
19  22  8
19  25  8
20  21  8
22  24  8
22  26  8
24  27  8
24  29  8
25  28  8
26  30  8
27  28  8
29  31  8
30  31  8
7  16  8
7  8  8
8  23  8

$$$$
