10765237
  -OEChem-09292322142D

 61 64  0     0  0  0  0  0  0999 V2000
   11.6603    4.7500    0.0000 F   0  0  0  0  0  0  0  0  0  0  0  0
   10.6603    5.7500    0.0000 F   0  0  0  0  0  0  0  0  0  0  0  0
    9.6602    4.7500    0.0000 F   0  0  0  0  0  0  0  0  0  0  0  0
    7.1962    0.7500    0.0000 N   0  0  0  0  0  0  0  0  0  0  0  0
    2.8660   -2.7500    0.0000 N   0  0  0  0  0  0  0  0  0  0  0  0
    8.9282    1.7500    0.0000 N   0  0  0  0  0  0  0  0  0  0  0  0
    3.7320   -4.2500    0.0000 N   0  0  0  0  0  0  0  0  0  0  0  0
    2.0000   -4.2500    0.0000 N   0  0  0  0  0  0  0  0  0  0  0  0
    5.4641   -1.2500    0.0000 C   0  0  0  0  0  0  0  0  0  0  0  0
    5.4641   -2.2500    0.0000 C   0  0  0  0  0  0  0  0  0  0  0  0
    4.5981   -0.7500    0.0000 C   0  0  0  0  0  0  0  0  0  0  0  0
    3.7320   -2.2500    0.0000 C   0  0  0  0  0  0  0  0  0  0  0  0
    4.5981   -2.7500    0.0000 C   0  0  0  0  0  0  0  0  0  0  0  0
    3.7320   -1.2500    0.0000 C   0  0  0  0  0  0  0  0  0  0  0  0
    6.3301   -0.7500    0.0000 C   0  0  0  0  0  0  0  0  0  0  0  0
    6.3301    0.2500    0.0000 C   0  0  0  0  0  0  0  0  0  0  0  0
    7.1962    1.7500    0.0000 C   0  0  0  0  0  0  0  0  0  0  0  0
    8.0622    0.2500    0.0000 C   0  0  0  0  0  0  0  0  0  0  0  0
    8.0622    2.2500    0.0000 C   0  0  0  0  0  0  0  0  0  0  0  0
    8.9282    0.7500    0.0000 C   0  0  0  0  0  0  0  0  0  0  0  0
    2.8660   -3.7500    0.0000 C   0  0  0  0  0  0  0  0  0  0  0  0
    9.7942    2.2500    0.0000 C   0  0  0  0  0  0  0  0  0  0  0  0
    9.7942    3.2500    0.0000 C   0  0  0  0  0  0  0  0  0  0  0  0
   10.6603    1.7500    0.0000 C   0  0  0  0  0  0  0  0  0  0  0  0
   10.6603    3.7500    0.0000 C   0  0  0  0  0  0  0  0  0  0  0  0
   11.5263    2.2500    0.0000 C   0  0  0  0  0  0  0  0  0  0  0  0
   11.5263    3.2500    0.0000 C   0  0  0  0  0  0  0  0  0  0  0  0
    3.7320   -5.2500    0.0000 C   0  0  0  0  0  0  0  0  0  0  0  0
    2.0000   -5.2500    0.0000 C   0  0  0  0  0  0  0  0  0  0  0  0
   10.6603    4.7500    0.0000 C   0  0  0  0  0  0  0  0  0  0  0  0
    2.8660   -5.7500    0.0000 C   0  0  0  0  0  0  0  0  0  0  0  0
    5.4641   -0.6300    0.0000 H   0  0  0  0  0  0  0  0  0  0  0  0
    5.6762   -2.8326    0.0000 H   0  0  0  0  0  0  0  0  0  0  0  0
    6.0747   -2.1423    0.0000 H   0  0  0  0  0  0  0  0  0  0  0  0
    4.9966   -0.2751    0.0000 H   0  0  0  0  0  0  0  0  0  0  0  0
    4.1996   -0.2751    0.0000 H   0  0  0  0  0  0  0  0  0  0  0  0
    3.7320   -2.8700    0.0000 H   0  0  0  0  0  0  0  0  0  0  0  0
    4.1996   -3.2250    0.0000 H   0  0  0  0  0  0  0  0  0  0  0  0
    4.9966   -3.2250    0.0000 H   0  0  0  0  0  0  0  0  0  0  0  0
    3.5200   -0.6674    0.0000 H   0  0  0  0  0  0  0  0  0  0  0  0
    3.1215   -1.3577    0.0000 H   0  0  0  0  0  0  0  0  0  0  0  0
    6.5422   -1.3326    0.0000 H   0  0  0  0  0  0  0  0  0  0  0  0
    6.9407   -0.6423    0.0000 H   0  0  0  0  0  0  0  0  0  0  0  0
    6.1181    0.8326    0.0000 H   0  0  0  0  0  0  0  0  0  0  0  0
    5.7196    0.1423    0.0000 H   0  0  0  0  0  0  0  0  0  0  0  0
    6.9841    2.3326    0.0000 H   0  0  0  0  0  0  0  0  0  0  0  0
    6.5856    1.6423    0.0000 H   0  0  0  0  0  0  0  0  0  0  0  0
    7.6636   -0.2249    0.0000 H   0  0  0  0  0  0  0  0  0  0  0  0
    8.4607   -0.2249    0.0000 H   0  0  0  0  0  0  0  0  0  0  0  0
    2.3291   -2.4400    0.0000 H   0  0  0  0  0  0  0  0  0  0  0  0
    8.4607    2.7250    0.0000 H   0  0  0  0  0  0  0  0  0  0  0  0
    7.6636    2.7250    0.0000 H   0  0  0  0  0  0  0  0  0  0  0  0
    9.1403    0.1674    0.0000 H   0  0  0  0  0  0  0  0  0  0  0  0
    9.5388    0.8577    0.0000 H   0  0  0  0  0  0  0  0  0  0  0  0
    9.2573    3.5600    0.0000 H   0  0  0  0  0  0  0  0  0  0  0  0
   10.6603    1.1300    0.0000 H   0  0  0  0  0  0  0  0  0  0  0  0
   12.0632    1.9400    0.0000 H   0  0  0  0  0  0  0  0  0  0  0  0
   12.0632    3.5600    0.0000 H   0  0  0  0  0  0  0  0  0  0  0  0
    4.2690   -5.5600    0.0000 H   0  0  0  0  0  0  0  0  0  0  0  0
    1.4631   -5.5600    0.0000 H   0  0  0  0  0  0  0  0  0  0  0  0
    2.8660   -6.3700    0.0000 H   0  0  0  0  0  0  0  0  0  0  0  0
  1 30  1  0  0  0  0
  2 30  1  0  0  0  0
  3 30  1  0  0  0  0
  4 16  1  0  0  0  0
  4 17  1  0  0  0  0
  4 18  1  0  0  0  0
  5 12  1  0  0  0  0
  5 21  1  0  0  0  0
  5 50  1  0  0  0  0
  6 19  1  0  0  0  0
  6 20  1  0  0  0  0
  6 22  1  0  0  0  0
  7 21  2  0  0  0  0
  7 28  1  0  0  0  0
  8 21  1  0  0  0  0
  8 29  2  0  0  0  0
  9 10  1  0  0  0  0
  9 11  1  0  0  0  0
  9 15  1  0  0  0  0
  9 32  1  0  0  0  0
 10 13  1  0  0  0  0
 10 33  1  0  0  0  0
 10 34  1  0  0  0  0
 11 14  1  0  0  0  0
 11 35  1  0  0  0  0
 11 36  1  0  0  0  0
 12 13  1  0  0  0  0
 12 14  1  0  0  0  0
 12 37  1  0  0  0  0
 13 38  1  0  0  0  0
 13 39  1  0  0  0  0
 14 40  1  0  0  0  0
 14 41  1  0  0  0  0
 15 16  1  0  0  0  0
 15 42  1  0  0  0  0
 15 43  1  0  0  0  0
 16 44  1  0  0  0  0
 16 45  1  0  0  0  0
 17 19  1  0  0  0  0
 17 46  1  0  0  0  0
 17 47  1  0  0  0  0
 18 20  1  0  0  0  0
 18 48  1  0  0  0  0
 18 49  1  0  0  0  0
 19 51  1  0  0  0  0
 19 52  1  0  0  0  0
 20 53  1  0  0  0  0
 20 54  1  0  0  0  0
 22 23  1  0  0  0  0
 22 24  2  0  0  0  0
 23 25  2  0  0  0  0
 23 55  1  0  0  0  0
 24 26  1  0  0  0  0
 24 56  1  0  0  0  0
 25 27  1  0  0  0  0
 25 30  1  0  0  0  0
 26 27  2  0  0  0  0
 26 57  1  0  0  0  0
 27 58  1  0  0  0  0
 28 31  2  0  0  0  0
 28 59  1  0  0  0  0
 29 31  1  0  0  0  0
 29 60  1  0  0  0  0
 31 61  1  0  0  0  0
M  END
> <PUBCHEM_COMPOUND_CID>
10765237

> <PUBCHEM_COMPOUND_CANONICALIZED>
1

> <PUBCHEM_CACTVS_COMPLEXITY>
524

> <PUBCHEM_CACTVS_HBOND_ACCEPTOR>
8

> <PUBCHEM_CACTVS_HBOND_DONOR>
1

> <PUBCHEM_CACTVS_ROTATABLE_BOND>
6

> <PUBCHEM_CACTVS_SUBSKEYS>
AAADceB7gYAAAAAAAAAAAAAAAAAAAAAAAAA8eIEAAAAAAAABwAAAHQAQAAAADSjBGhQ90JfIEACgAjRnZACCgCkxAqAJ2KA4ZJiIaKLA2dGUJAhokALIyCcQgIAOAAAAQAAAAAAQAACAAAAAAAAAAAAAAA==

> <PUBCHEM_IUPAC_OPENEYE_NAME>
N-[4-[2-[4-[3-(trifluoromethyl)phenyl]piperazin-1-yl]ethyl]cyclohexyl]pyrimidin-2-amine

> <PUBCHEM_IUPAC_CAS_NAME>
N-[4-[2-[4-[3-(trifluoromethyl)phenyl]-1-piperazinyl]ethyl]cyclohexyl]-2-pyrimidinamine

> <PUBCHEM_IUPAC_NAME_MARKUP>
<I>N</I>-[4-[2-[4-[3-(trifluoromethyl)phenyl]piperazin-1-yl]ethyl]cyclohexyl]pyrimidin-2-amine

> <PUBCHEM_IUPAC_NAME>
N-[4-[2-[4-[3-(trifluoromethyl)phenyl]piperazin-1-yl]ethyl]cyclohexyl]pyrimidin-2-amine

> <PUBCHEM_IUPAC_SYSTEMATIC_NAME>
N-[4-[2-[4-[3-(trifluoromethyl)phenyl]piperazin-1-yl]ethyl]cyclohexyl]pyrimidin-2-amine

> <PUBCHEM_IUPAC_TRADITIONAL_NAME>
2-pyrimidyl-[4-[2-[4-[3-(trifluoromethyl)phenyl]piperazino]ethyl]cyclohexyl]amine

> <PUBCHEM_IUPAC_INCHI>
InChI=1S/C23H30F3N5/c24-23(25,26)19-3-1-4-21(17-19)31-15-13-30(14-16-31)12-9-18-5-7-20(8-6-18)29-22-27-10-2-11-28-22/h1-4,10-11,17-18,20H,5-9,12-16H2,(H,27,28,29)

> <PUBCHEM_IUPAC_INCHIKEY>
CHELUMIQBPPRGN-UHFFFAOYSA-N

> <PUBCHEM_XLOGP3_AA>
4.9

> <PUBCHEM_EXACT_MASS>
433.24533046

> <PUBCHEM_MOLECULAR_FORMULA>
C23H30F3N5

> <PUBCHEM_MOLECULAR_WEIGHT>
433.5

> <PUBCHEM_OPENEYE_CAN_SMILES>
C1CC(CCC1CCN2CCN(CC2)C3=CC=CC(=C3)C(F)(F)F)NC4=NC=CC=N4

> <PUBCHEM_OPENEYE_ISO_SMILES>
C1CC(CCC1CCN2CCN(CC2)C3=CC=CC(=C3)C(F)(F)F)NC4=NC=CC=N4

> <PUBCHEM_CACTVS_TPSA>
44.3

> <PUBCHEM_MONOISOTOPIC_WEIGHT>
433.24533046

> <PUBCHEM_TOTAL_CHARGE>
0

> <PUBCHEM_HEAVY_ATOM_COUNT>
31

> <PUBCHEM_ATOM_DEF_STEREO_COUNT>
0

> <PUBCHEM_ATOM_UDEF_STEREO_COUNT>
0

> <PUBCHEM_BOND_DEF_STEREO_COUNT>
0

> <PUBCHEM_BOND_UDEF_STEREO_COUNT>
0

> <PUBCHEM_ISOTOPIC_ATOM_COUNT>
0

> <PUBCHEM_COMPONENT_COUNT>
1

> <PUBCHEM_CACTVS_TAUTO_COUNT>
-1

> <PUBCHEM_COORDINATE_TYPE>
1
5
255

> <PUBCHEM_BONDANNOTATIONS>
22  23  8
22  24  8
23  25  8
24  26  8
25  27  8
26  27  8
28  31  8
29  31  8
7  21  8
7  28  8
8  21  8
8  29  8

$$$$
