90656835
  -OEChem-09292322352D

333337  0     1  0  0  0  0  0999 V2000
    6.3301   15.5147    0.0000 S   0  0  0  0  0  0  0  0  0  0  0  0
    8.6736  -19.4303    0.0000 O   0  0  0  0  0  0  0  0  0  0  0  0
    9.0945  -18.1348    0.0000 O   0  0  0  0  0  0  0  0  0  0  0  0
    7.4292  -19.9843    0.0000 O   0  0  0  0  0  0  0  0  0  0  0  0
   11.3092  -15.2897    0.0000 O   0  0  0  0  0  0  0  0  0  0  0  0
    3.9651  -20.9843    0.0000 O   0  0  0  0  0  0  0  0  0  0  0  0
    4.8312  -22.4843    0.0000 O   0  0  0  0  0  0  0  0  0  0  0  0
    5.6972  -17.9843    0.0000 O   0  0  0  0  0  0  0  0  0  0  0  0
    8.5513  -12.9671    0.0000 O   0  0  0  0  0  0  0  0  0  0  0  0
    6.3301   21.5147    0.0000 O   0  0  0  0  0  0  0  0  0  0  0  0
    4.5981   21.5147    0.0000 O   0  0  0  0  0  0  0  0  0  0  0  0
   10.7661  -10.1220    0.0000 O   0  0  0  0  0  0  0  0  0  0  0  0
    2.8660   20.5147    0.0000 O   0  0  0  0  0  0  0  0  0  0  0  0
    8.0082   -7.7995    0.0000 O   0  0  0  0  0  0  0  0  0  0  0  0
    6.2002   -9.7311    0.0000 O   0  0  0  0  0  0  0  0  0  0  0  0
    8.0902   14.2359    0.0000 O   0  0  0  0  0  0  0  0  0  0  0  0
   10.2229   -4.9543    0.0000 O   0  0  0  0  0  0  0  0  0  0  0  0
    5.2423   12.1668    0.0000 O   0  0  0  0  0  0  0  0  0  0  0  0
    7.4650   -2.6318    0.0000 O   0  0  0  0  0  0  0  0  0  0  0  0
    9.6798    0.2134    0.0000 O   0  0  0  0  0  0  0  0  0  0  0  0
    6.9219    2.5359    0.0000 O   0  0  0  0  0  0  0  0  0  0  0  0
    6.3788    7.7036    0.0000 O   0  0  0  0  0  0  0  0  0  0  0  0
    9.1366    5.3811    0.0000 O   0  0  0  0  0  0  0  0  0  0  0  0
    9.2088  -21.0775    0.0000 N   0  0  0  0  0  0  0  0  0  0  0  0
   10.6768  -18.8393    0.0000 N   0  0  0  0  0  0  0  0  0  0  0  0
    6.5632  -21.4843    0.0000 N   0  0  0  0  0  0  0  0  0  0  0  0
    9.9080  -16.3077    0.0000 N   0  0  0  0  0  0  0  0  0  0  0  0
    9.8418   20.4214    0.0000 N   0  0  3  0  0  0  0  0  0  0  0  0
   13.2983  -15.0806    0.0000 N   0  0  0  0  0  0  0  0  0  0  0  0
   10.1336  -13.6716    0.0000 N   0  0  0  0  0  0  0  0  0  0  0  0
    7.1962   20.0147    0.0000 N   0  0  0  0  0  0  0  0  0  0  0  0
    3.9651  -17.9843    0.0000 N   0  0  0  0  0  0  0  0  0  0  0  0
    6.5623  -13.1762    0.0000 N   0  0  0  0  0  0  0  0  0  0  0  0
    9.3648  -11.1401    0.0000 N   0  0  0  0  0  0  0  0  0  0  0  0
   14.6995  -14.0625    0.0000 N   0  0  0  0  0  0  0  0  0  0  0  0
   14.8806  -15.7851    0.0000 N   0  0  0  0  0  0  0  0  0  0  0  0
   12.7551   -9.9129    0.0000 N   0  0  0  0  0  0  0  0  0  0  0  0
    9.5905   -8.5040    0.0000 N   0  0  0  0  0  0  0  0  0  0  0  0
    4.9800  -12.4717    0.0000 N   0  0  0  0  0  0  0  0  0  0  0  0
    5.1610  -14.1943    0.0000 N   0  0  0  0  0  0  0  0  0  0  0  0
    8.8217   -5.9724    0.0000 N   0  0  0  0  0  0  0  0  0  0  0  0
   14.1564   -8.8948    0.0000 N   0  0  0  0  0  0  0  0  0  0  0  0
    6.8301   12.9758    0.0000 N   0  0  0  0  0  0  0  0  0  0  0  0
   14.3374  -10.6174    0.0000 N   0  0  0  0  0  0  0  0  0  0  0  0
    6.0191   -8.0085    0.0000 N   0  0  0  0  0  0  0  0  0  0  0  0
    9.0474   -3.3363    0.0000 N   0  0  0  0  0  0  0  0  0  0  0  0
   12.2120   -4.7452    0.0000 N   0  0  0  0  0  0  0  0  0  0  0  0
    8.2785   -0.8047    0.0000 N   0  0  0  0  0  0  0  0  0  0  0  0
    8.5042    1.8314    0.0000 N   0  0  0  0  0  0  0  0  0  0  0  0
    5.4760   -2.8408    0.0000 N   0  0  0  0  0  0  0  0  0  0  0  0
   13.6132   -3.7272    0.0000 N   0  0  0  0  0  0  0  0  0  0  0  0
    7.7354    4.3630    0.0000 N   0  0  0  0  0  0  0  0  0  0  0  0
    7.9611    6.9991    0.0000 N   0  0  0  0  0  0  0  0  0  0  0  0
   13.7943   -5.4497    0.0000 N   0  0  0  0  0  0  0  0  0  0  0  0
   12.6633    0.5270    0.0000 N   0  0  0  0  0  0  0  0  0  0  0  0
    3.9383    2.2223    0.0000 N   0  0  0  0  0  0  0  0  0  0  0  0
    3.8937   -2.1363    0.0000 N   0  0  0  0  0  0  0  0  0  0  0  0
   11.1257    5.5901    0.0000 N   0  0  0  0  0  0  0  0  0  0  0  0
    4.0747   -3.8589    0.0000 N   0  0  0  0  0  0  0  0  0  0  0  0
   12.5269    6.6082    0.0000 N   0  0  0  0  0  0  0  0  0  0  0  0
   12.7080    4.8856    0.0000 N   0  0  0  0  0  0  0  0  0  0  0  0
   10.3678  -19.7904    0.0000 C   0  0  1  0  0  0  0  0  0  0  0  0
   11.1768  -20.3782    0.0000 C   0  0  0  0  0  0  0  0  0  0  0  0
    8.2953  -21.4843    0.0000 C   0  0  1  0  0  0  0  0  0  0  0  0
   11.9858  -19.7904    0.0000 C   0  0  0  0  0  0  0  0  0  0  0  0
   11.6768  -18.8393    0.0000 C   0  0  0  0  0  0  0  0  0  0  0  0
    8.3998  -22.4788    0.0000 C   0  0  0  0  0  0  0  0  0  0  0  0
    9.8779  -21.8207    0.0000 C   0  0  0  0  0  0  0  0  0  0  0  0
    9.4167  -20.0994    0.0000 C   0  0  0  0  0  0  0  0  0  0  0  0
    9.3779  -22.6867    0.0000 C   0  0  0  0  0  0  0  0  0  0  0  0
   10.0890  -18.0303    0.0000 C   0  0  0  0  0  0  0  0  0  0  0  0
    7.4292  -20.9843    0.0000 C   0  0  0  0  0  0  0  0  0  0  0  0
   10.4957  -17.1168    0.0000 C   0  0  2  0  0  0  0  0  0  0  0  0
   11.4903  -17.0122    0.0000 C   0  0  0  0  0  0  0  0  0  0  0  0
    5.6972  -20.9843    0.0000 C   0  0  1  0  0  0  0  0  0  0  0  0
   11.8970  -16.0987    0.0000 C   0  0  0  0  0  0  0  0  0  0  0  0
   10.3147  -15.3942    0.0000 C   0  0  0  0  0  0  0  0  0  0  0  0
    8.9282   20.0147    0.0000 C   0  0  1  0  0  0  0  0  0  0  0  0
    5.6972  -19.9843    0.0000 C   0  0  0  0  0  0  0  0  0  0  0  0
   12.8915  -15.9942    0.0000 C   0  0  0  0  0  0  0  0  0  0  0  0
    9.0327   19.0201    0.0000 C   0  0  0  0  0  0  0  0  0  0  0  0
    9.7269  -14.5852    0.0000 C   0  0  2  0  0  0  0  0  0  0  0  0
   10.0109   18.8122    0.0000 C   0  0  0  0  0  0  0  0  0  0  0  0
   10.5109   19.6783    0.0000 C   0  0  0  0  0  0  0  0  0  0  0  0
    4.8312  -21.4843    0.0000 C   0  0  0  0  0  0  0  0  0  0  0  0
    8.0622   20.5147    0.0000 C   0  0  0  0  0  0  0  0  0  0  0  0
    4.8312  -19.4843    0.0000 C   0  0  0  0  0  0  0  0  0  0  0  0
    8.7324  -14.6897    0.0000 C   0  0  0  0  0  0  0  0  0  0  0  0
   10.0497   21.3995    0.0000 C   0  0  0  0  0  0  0  0  0  0  0  0
    8.1446  -13.8807    0.0000 C   0  0  0  0  0  0  0  0  0  0  0  0
    4.8312  -18.4843    0.0000 C   0  0  0  0  0  0  0  0  0  0  0  0
    9.5459  -12.8626    0.0000 C   0  0  0  0  0  0  0  0  0  0  0  0
   11.0007   21.7086    0.0000 C   0  0  0  0  0  0  0  0  0  0  0  0
    7.1501  -13.9852    0.0000 C   0  0  0  0  0  0  0  0  0  0  0  0
    9.9526  -11.9491    0.0000 C   0  0  2  0  0  0  0  0  0  0  0  0
   14.2928  -14.9761    0.0000 C   0  0  0  0  0  0  0  0  0  0  0  0
    6.3301   20.5147    0.0000 C   0  0  0  0  0  0  0  0  0  0  0  0
   10.9471  -11.8445    0.0000 C   0  0  0  0  0  0  0  0  0  0  0  0
   11.2086   22.6867    0.0000 C   0  0  0  0  0  0  0  0  0  0  0  0
   11.3539  -10.9310    0.0000 C   0  0  0  0  0  0  0  0  0  0  0  0
    5.4641   20.0147    0.0000 C   0  0  0  0  0  0  0  0  0  0  0  0
    9.7715  -10.2265    0.0000 C   0  0  0  0  0  0  0  0  0  0  0  0
   12.3484  -10.8265    0.0000 C   0  0  0  0  0  0  0  0  0  0  0  0
    5.4641   19.0147    0.0000 C   0  0  0  0  0  0  0  0  0  0  0  0
    4.5981   20.5147    0.0000 C   0  0  0  0  0  0  0  0  0  0  0  0
    9.1838   -9.4175    0.0000 C   0  0  2  0  0  0  0  0  0  0  0  0
    5.5678  -13.2807    0.0000 C   0  0  0  0  0  0  0  0  0  0  0  0
    4.5981   18.5147    0.0000 C   0  0  0  0  0  0  0  0  0  0  0  0
    3.7320   20.0147    0.0000 C   0  0  0  0  0  0  0  0  0  0  0  0
    8.1892   -9.5220    0.0000 C   0  0  0  0  0  0  0  0  0  0  0  0
    3.7320   19.0147    0.0000 C   0  0  0  0  0  0  0  0  0  0  0  0
    4.5981   17.5147    0.0000 C   0  0  0  0  0  0  0  0  0  0  0  0
    5.4641   17.0147    0.0000 C   0  0  0  0  0  0  0  0  0  0  0  0
    7.6014   -8.7130    0.0000 C   0  0  0  0  0  0  0  0  0  0  0  0
    9.0027   -7.6949    0.0000 C   0  0  0  0  0  0  0  0  0  0  0  0
    9.4094   -6.7814    0.0000 C   0  0  2  0  0  0  0  0  0  0  0  0
    5.4641   16.0147    0.0000 C   0  0  0  0  0  0  0  0  0  0  0  0
   13.7496   -9.8084    0.0000 C   0  0  0  0  0  0  0  0  0  0  0  0
    3.7320   22.0147    0.0000 C   0  0  0  0  0  0  0  0  0  0  0  0
   10.4040   -6.6768    0.0000 C   0  0  0  0  0  0  0  0  0  0  0  0
    6.6069   -8.8175    0.0000 C   0  0  0  0  0  0  0  0  0  0  0  0
    2.0000   20.0147    0.0000 C   0  0  0  0  0  0  0  0  0  0  0  0
    6.3301   14.5147    0.0000 C   0  0  3  0  0  0  0  0  0  0  0  0
   10.8107   -5.7633    0.0000 C   0  0  0  0  0  0  0  0  0  0  0  0
    5.5211   13.9269    0.0000 C   0  0  0  0  0  0  0  0  0  0  0  0
    7.1391   13.9269    0.0000 C   0  0  0  0  0  0  0  0  0  0  0  0
    9.2284   -5.0588    0.0000 C   0  0  0  0  0  0  0  0  0  0  0  0
    8.6406   -4.2498    0.0000 C   0  0  2  0  0  0  0  0  0  0  0  0
    5.8301   12.9758    0.0000 C   0  0  0  0  0  0  0  0  0  0  0  0
   11.8052   -5.6588    0.0000 C   0  0  0  0  0  0  0  0  0  0  0  0
    7.4179   12.1668    0.0000 C   0  0  0  0  0  0  0  0  0  0  0  0
    7.6461   -4.3543    0.0000 C   0  0  0  0  0  0  0  0  0  0  0  0
    7.0112   11.2533    0.0000 C   0  0  0  0  0  0  0  0  0  0  0  0
    7.0583   -3.5453    0.0000 C   0  0  0  0  0  0  0  0  0  0  0  0
    8.8663   -1.6137    0.0000 C   0  0  2  0  0  0  0  0  0  0  0  0
    7.5990   10.4442    0.0000 C   0  0  0  0  0  0  0  0  0  0  0  0
    8.4596   -2.5272    0.0000 C   0  0  0  0  0  0  0  0  0  0  0  0
    9.8608   -1.5092    0.0000 C   0  0  0  0  0  0  0  0  0  0  0  0
    7.1922    9.5307    0.0000 C   0  0  0  0  0  0  0  0  0  0  0  0
    6.0638   -3.6498    0.0000 C   0  0  0  0  0  0  0  0  0  0  0  0
   10.2676   -0.5956    0.0000 C   0  0  0  0  0  0  0  0  0  0  0  0
    8.0975    0.9179    0.0000 C   0  0  2  0  0  0  0  0  0  0  0  0
    8.6852    0.1089    0.0000 C   0  0  0  0  0  0  0  0  0  0  0  0
    7.1029    0.8134    0.0000 C   0  0  0  0  0  0  0  0  0  0  0  0
    7.7800    8.7217    0.0000 C   0  0  0  0  0  0  0  0  0  0  0  0
   11.2621   -0.4911    0.0000 C   0  0  0  0  0  0  0  0  0  0  0  0
   13.2065   -4.6407    0.0000 C   0  0  0  0  0  0  0  0  0  0  0  0
    6.5152    1.6224    0.0000 C   0  0  0  0  0  0  0  0  0  0  0  0
    8.3232    3.5540    0.0000 C   0  0  2  0  0  0  0  0  0  0  0  0
    5.5206    1.5178    0.0000 C   0  0  0  0  0  0  0  0  0  0  0  0
    7.9164    2.6404    0.0000 C   0  0  0  0  0  0  0  0  0  0  0  0
   11.6688    0.4225    0.0000 C   0  0  0  0  0  0  0  0  0  0  0  0
    9.3177    3.6585    0.0000 C   0  0  0  0  0  0  0  0  0  0  0  0
    7.3733    7.8081    0.0000 C   0  0  0  0  0  0  0  0  0  0  0  0
    9.7244    4.5721    0.0000 C   0  0  0  0  0  0  0  0  0  0  0  0
    4.9328    2.3269    0.0000 C   0  0  0  0  0  0  0  0  0  0  0  0
    4.4815   -2.9454    0.0000 C   0  0  0  0  0  0  0  0  0  0  0  0
    7.5543    6.0856    0.0000 C   0  0  0  0  0  0  0  0  0  0  0  0
    8.1421    5.2766    0.0000 C   0  0  0  0  0  0  0  0  0  0  0  0
   10.7189    4.6766    0.0000 C   0  0  0  0  0  0  0  0  0  0  0  0
   12.1202    5.6947    0.0000 C   0  0  0  0  0  0  0  0  0  0  0  0
    9.9294  -19.3520    0.0000 H   0  0  0  0  0  0  0  0  0  0  0  0
   10.7619  -20.8389    0.0000 H   0  0  0  0  0  0  0  0  0  0  0  0
   11.5916  -20.8389    0.0000 H   0  0  0  0  0  0  0  0  0  0  0  0
    8.3277  -20.8651    0.0000 H   0  0  0  0  0  0  0  0  0  0  0  0
   12.2958  -20.3273    0.0000 H   0  0  0  0  0  0  0  0  0  0  0  0
   12.5522  -19.5382    0.0000 H   0  0  0  0  0  0  0  0  0  0  0  0
   12.2832  -18.7104    0.0000 H   0  0  0  0  0  0  0  0  0  0  0  0
   11.6120  -18.2227    0.0000 H   0  0  0  0  0  0  0  0  0  0  0  0
    7.7798  -22.4788    0.0000 H   0  0  0  0  0  0  0  0  0  0  0  0
    8.3350  -23.0954    0.0000 H   0  0  0  0  0  0  0  0  0  0  0  0
   10.3795  -22.1851    0.0000 H   0  0  0  0  0  0  0  0  0  0  0  0
   10.2928  -21.3599    0.0000 H   0  0  0  0  0  0  0  0  0  0  0  0
    9.1863  -23.2764    0.0000 H   0  0  0  0  0  0  0  0  0  0  0  0
    9.9443  -22.9389    0.0000 H   0  0  0  0  0  0  0  0  0  0  0  0
   10.7479  -16.5504    0.0000 H   0  0  0  0  0  0  0  0  0  0  0  0
   11.4470  -17.6307    0.0000 H   0  0  0  0  0  0  0  0  0  0  0  0
   12.0918  -17.1622    0.0000 H   0  0  0  0  0  0  0  0  0  0  0  0
    6.5632  -22.1043    0.0000 H   0  0  0  0  0  0  0  0  0  0  0  0
    9.2914  -16.3725    0.0000 H   0  0  0  0  0  0  0  0  0  0  0  0
    6.2341  -20.6743    0.0000 H   0  0  0  0  0  0  0  0  0  0  0  0
   11.9402  -15.4802    0.0000 H   0  0  0  0  0  0  0  0  0  0  0  0
   11.2954  -15.9487    0.0000 H   0  0  0  0  0  0  0  0  0  0  0  0
    8.9606   20.6338    0.0000 H   0  0  0  0  0  0  0  0  0  0  0  0
    6.3078  -20.0919    0.0000 H   0  0  0  0  0  0  0  0  0  0  0  0
    5.9092  -19.4017    0.0000 H   0  0  0  0  0  0  0  0  0  0  0  0
   12.8483  -16.6126    0.0000 H   0  0  0  0  0  0  0  0  0  0  0  0
   13.4931  -16.1441    0.0000 H   0  0  0  0  0  0  0  0  0  0  0  0
    8.4127   19.0201    0.0000 H   0  0  0  0  0  0  0  0  0  0  0  0
    8.9679   18.4035    0.0000 H   0  0  0  0  0  0  0  0  0  0  0  0
    9.3625  -14.0836    0.0000 H   0  0  0  0  0  0  0  0  0  0  0  0
    9.8193   18.2226    0.0000 H   0  0  0  0  0  0  0  0  0  0  0  0
   10.5773   18.5601    0.0000 H   0  0  0  0  0  0  0  0  0  0  0  0
   11.0125   19.3138    0.0000 H   0  0  0  0  0  0  0  0  0  0  0  0
   10.9257   20.1390    0.0000 H   0  0  0  0  0  0  0  0  0  0  0  0
    8.4607   20.9896    0.0000 H   0  0  0  0  0  0  0  0  0  0  0  0
    7.6636   20.9896    0.0000 H   0  0  0  0  0  0  0  0  0  0  0  0
    4.2206  -19.3766    0.0000 H   0  0  0  0  0  0  0  0  0  0  0  0
    4.6191  -20.0669    0.0000 H   0  0  0  0  0  0  0  0  0  0  0  0
    8.1751  -14.9615    0.0000 H   0  0  0  0  0  0  0  0  0  0  0  0
    8.9033  -15.2857    0.0000 H   0  0  0  0  0  0  0  0  0  0  0  0
    9.9634   22.0135    0.0000 H   0  0  0  0  0  0  0  0  0  0  0  0
    9.4300   21.4212    0.0000 H   0  0  0  0  0  0  0  0  0  0  0  0
   12.9338  -14.5790    0.0000 H   0  0  0  0  0  0  0  0  0  0  0  0
   10.7502  -13.6068    0.0000 H   0  0  0  0  0  0  0  0  0  0  0  0
    8.7018  -13.6089    0.0000 H   0  0  0  0  0  0  0  0  0  0  0  0
    7.9737  -13.2847    0.0000 H   0  0  0  0  0  0  0  0  0  0  0  0
    7.1962   19.3947    0.0000 H   0  0  0  0  0  0  0  0  0  0  0  0
   11.4615   21.2937    0.0000 H   0  0  0  0  0  0  0  0  0  0  0  0
    3.4282  -21.2943    0.0000 H   0  0  0  0  0  0  0  0  0  0  0  0
    6.5928  -14.2570    0.0000 H   0  0  0  0  0  0  0  0  0  0  0  0
    7.3210  -14.5812    0.0000 H   0  0  0  0  0  0  0  0  0  0  0  0
    9.3360  -12.0139    0.0000 H   0  0  0  0  0  0  0  0  0  0  0  0
   10.9039  -12.4630    0.0000 H   0  0  0  0  0  0  0  0  0  0  0  0
   11.5487  -11.9945    0.0000 H   0  0  0  0  0  0  0  0  0  0  0  0
    3.9651  -17.3643    0.0000 H   0  0  0  0  0  0  0  0  0  0  0  0
    3.4282  -18.2943    0.0000 H   0  0  0  0  0  0  0  0  0  0  0  0
    6.8145  -12.6098    0.0000 H   0  0  0  0  0  0  0  0  0  0  0  0
    8.7482  -11.2049    0.0000 H   0  0  0  0  0  0  0  0  0  0  0  0
   11.7983   22.8783    0.0000 H   0  0  0  0  0  0  0  0  0  0  0  0
   10.7479   23.1016    0.0000 H   0  0  0  0  0  0  0  0  0  0  0  0
   11.3971  -10.3125    0.0000 H   0  0  0  0  0  0  0  0  0  0  0  0
   10.7523  -10.7810    0.0000 H   0  0  0  0  0  0  0  0  0  0  0  0
   15.3161  -13.9977    0.0000 H   0  0  0  0  0  0  0  0  0  0  0  0
   14.3351  -13.5609    0.0000 H   0  0  0  0  0  0  0  0  0  0  0  0
   15.4972  -15.7203    0.0000 H   0  0  0  0  0  0  0  0  0  0  0  0
   12.3051  -11.4450    0.0000 H   0  0  0  0  0  0  0  0  0  0  0  0
   12.9500  -10.9765    0.0000 H   0  0  0  0  0  0  0  0  0  0  0  0
    6.0010   18.7047    0.0000 H   0  0  0  0  0  0  0  0  0  0  0  0
    9.8004   -9.3527    0.0000 H   0  0  0  0  0  0  0  0  0  0  0  0
    7.6320   -9.7938    0.0000 H   0  0  0  0  0  0  0  0  0  0  0  0
    8.3601  -10.1180    0.0000 H   0  0  0  0  0  0  0  0  0  0  0  0
    3.1951   18.7047    0.0000 H   0  0  0  0  0  0  0  0  0  0  0  0
    3.9875   17.6223    0.0000 H   0  0  0  0  0  0  0  0  0  0  0  0
    4.3860   16.9321    0.0000 H   0  0  0  0  0  0  0  0  0  0  0  0
   12.3907   -9.4113    0.0000 H   0  0  0  0  0  0  0  0  0  0  0  0
   10.2071   -8.4391    0.0000 H   0  0  0  0  0  0  0  0  0  0  0  0
    4.3634  -12.5365    0.0000 H   0  0  0  0  0  0  0  0  0  0  0  0
    5.2322  -11.9053    0.0000 H   0  0  0  0  0  0  0  0  0  0  0  0
    6.0747   16.9070    0.0000 H   0  0  0  0  0  0  0  0  0  0  0  0
    5.6762   17.5973    0.0000 H   0  0  0  0  0  0  0  0  0  0  0  0
    8.1587   -8.4412    0.0000 H   0  0  0  0  0  0  0  0  0  0  0  0
    7.4306   -8.1170    0.0000 H   0  0  0  0  0  0  0  0  0  0  0  0
    4.5444  -14.2591    0.0000 H   0  0  0  0  0  0  0  0  0  0  0  0
    9.6616   -6.2150    0.0000 H   0  0  0  0  0  0  0  0  0  0  0  0
    4.8535   16.1223    0.0000 H   0  0  0  0  0  0  0  0  0  0  0  0
    5.2520   15.4321    0.0000 H   0  0  0  0  0  0  0  0  0  0  0  0
    4.0420   22.5516    0.0000 H   0  0  0  0  0  0  0  0  0  0  0  0
    3.1951   22.3247    0.0000 H   0  0  0  0  0  0  0  0  0  0  0  0
    3.4220   21.4777    0.0000 H   0  0  0  0  0  0  0  0  0  0  0  0
   10.3607   -7.2953    0.0000 H   0  0  0  0  0  0  0  0  0  0  0  0
   11.0056   -6.8268    0.0000 H   0  0  0  0  0  0  0  0  0  0  0  0
    1.6900   20.5516    0.0000 H   0  0  0  0  0  0  0  0  0  0  0  0
    1.4631   19.7047    0.0000 H   0  0  0  0  0  0  0  0  0  0  0  0
    2.3100   19.4777    0.0000 H   0  0  0  0  0  0  0  0  0  0  0  0
    5.7777   14.7961    0.0000 H   0  0  0  0  0  0  0  0  0  0  0  0
    8.2051   -6.0372    0.0000 H   0  0  0  0  0  0  0  0  0  0  0  0
   10.8540   -5.1448    0.0000 H   0  0  0  0  0  0  0  0  0  0  0  0
   10.2091   -5.6133    0.0000 H   0  0  0  0  0  0  0  0  0  0  0  0
    5.2111   14.4638    0.0000 H   0  0  0  0  0  0  0  0  0  0  0  0
    4.9547   13.6747    0.0000 H   0  0  0  0  0  0  0  0  0  0  0  0
   14.7730   -8.8300    0.0000 H   0  0  0  0  0  0  0  0  0  0  0  0
   13.7919   -8.3933    0.0000 H   0  0  0  0  0  0  0  0  0  0  0  0
    9.2572   -4.1850    0.0000 H   0  0  0  0  0  0  0  0  0  0  0  0
   14.9540  -10.5526    0.0000 H   0  0  0  0  0  0  0  0  0  0  0  0
   11.7620   -6.2773    0.0000 H   0  0  0  0  0  0  0  0  0  0  0  0
   12.4068   -5.8088    0.0000 H   0  0  0  0  0  0  0  0  0  0  0  0
    5.4025   -8.0733    0.0000 H   0  0  0  0  0  0  0  0  0  0  0  0
    6.2713   -7.4421    0.0000 H   0  0  0  0  0  0  0  0  0  0  0  0
    7.9319   11.8201    0.0000 H   0  0  0  0  0  0  0  0  0  0  0  0
    7.8486   12.6128    0.0000 H   0  0  0  0  0  0  0  0  0  0  0  0
    7.0888   -4.6261    0.0000 H   0  0  0  0  0  0  0  0  0  0  0  0
    7.8170   -4.9503    0.0000 H   0  0  0  0  0  0  0  0  0  0  0  0
    6.4972   11.6000    0.0000 H   0  0  0  0  0  0  0  0  0  0  0  0
    6.5805   10.8073    0.0000 H   0  0  0  0  0  0  0  0  0  0  0  0
    9.6640   -3.2715    0.0000 H   0  0  0  0  0  0  0  0  0  0  0  0
    7.6156   -3.2735    0.0000 H   0  0  0  0  0  0  0  0  0  0  0  0
    6.8874   -2.9493    0.0000 H   0  0  0  0  0  0  0  0  0  0  0  0
    8.2497   -1.6785    0.0000 H   0  0  0  0  0  0  0  0  0  0  0  0
    8.1130   10.0975    0.0000 H   0  0  0  0  0  0  0  0  0  0  0  0
    8.0296   10.8902    0.0000 H   0  0  0  0  0  0  0  0  0  0  0  0
   11.8475   -4.2436    0.0000 H   0  0  0  0  0  0  0  0  0  0  0  0
    9.8176   -2.1277    0.0000 H   0  0  0  0  0  0  0  0  0  0  0  0
   10.4624   -1.6592    0.0000 H   0  0  0  0  0  0  0  0  0  0  0  0
    6.6782    9.8774    0.0000 H   0  0  0  0  0  0  0  0  0  0  0  0
    6.7615    9.0847    0.0000 H   0  0  0  0  0  0  0  0  0  0  0  0
    5.5065   -3.9216    0.0000 H   0  0  0  0  0  0  0  0  0  0  0  0
    6.2347   -4.2458    0.0000 H   0  0  0  0  0  0  0  0  0  0  0  0
   10.3108    0.0229    0.0000 H   0  0  0  0  0  0  0  0  0  0  0  0
    9.6660   -0.4456    0.0000 H   0  0  0  0  0  0  0  0  0  0  0  0
    7.6619   -0.8695    0.0000 H   0  0  0  0  0  0  0  0  0  0  0  0
    7.7330    1.4195    0.0000 H   0  0  0  0  0  0  0  0  0  0  0  0
    6.5457    0.5416    0.0000 H   0  0  0  0  0  0  0  0  0  0  0  0
    7.2738    0.2174    0.0000 H   0  0  0  0  0  0  0  0  0  0  0  0
    8.2940    8.3750    0.0000 H   0  0  0  0  0  0  0  0  0  0  0  0
    8.2107    9.1677    0.0000 H   0  0  0  0  0  0  0  0  0  0  0  0
   11.2188   -1.1096    0.0000 H   0  0  0  0  0  0  0  0  0  0  0  0
   11.8637   -0.6411    0.0000 H   0  0  0  0  0  0  0  0  0  0  0  0
    7.0724    1.8942    0.0000 H   0  0  0  0  0  0  0  0  0  0  0  0
    6.3443    2.2184    0.0000 H   0  0  0  0  0  0  0  0  0  0  0  0
    9.1208    1.8962    0.0000 H   0  0  0  0  0  0  0  0  0  0  0  0
    5.7282   -2.2744    0.0000 H   0  0  0  0  0  0  0  0  0  0  0  0
    8.5753    4.1204    0.0000 H   0  0  0  0  0  0  0  0  0  0  0  0
    4.9634    1.2461    0.0000 H   0  0  0  0  0  0  0  0  0  0  0  0
    5.6915    0.9219    0.0000 H   0  0  0  0  0  0  0  0  0  0  0  0
   11.7121    1.0409    0.0000 H   0  0  0  0  0  0  0  0  0  0  0  0
   11.0672    0.5724    0.0000 H   0  0  0  0  0  0  0  0  0  0  0  0
    9.2744    3.0400    0.0000 H   0  0  0  0  0  0  0  0  0  0  0  0
    9.9193    3.5085    0.0000 H   0  0  0  0  0  0  0  0  0  0  0  0
    9.7677    5.1906    0.0000 H   0  0  0  0  0  0  0  0  0  0  0  0
    9.1228    4.7221    0.0000 H   0  0  0  0  0  0  0  0  0  0  0  0
    7.1188    4.2982    0.0000 H   0  0  0  0  0  0  0  0  0  0  0  0
   14.2298   -3.6624    0.0000 H   0  0  0  0  0  0  0  0  0  0  0  0
   13.2488   -3.2256    0.0000 H   0  0  0  0  0  0  0  0  0  0  0  0
    5.4901    2.5986    0.0000 H   0  0  0  0  0  0  0  0  0  0  0  0
    4.7620    2.9228    0.0000 H   0  0  0  0  0  0  0  0  0  0  0  0
    8.5777    7.0639    0.0000 H   0  0  0  0  0  0  0  0  0  0  0  0
   14.4109   -5.3849    0.0000 H   0  0  0  0  0  0  0  0  0  0  0  0
    7.0403    6.4323    0.0000 H   0  0  0  0  0  0  0  0  0  0  0  0
    7.1236    5.6396    0.0000 H   0  0  0  0  0  0  0  0  0  0  0  0
   10.6757    4.0581    0.0000 H   0  0  0  0  0  0  0  0  0  0  0  0
   11.3205    4.5266    0.0000 H   0  0  0  0  0  0  0  0  0  0  0  0
   12.9155    1.0934    0.0000 H   0  0  0  0  0  0  0  0  0  0  0  0
   13.0278    0.0254    0.0000 H   0  0  0  0  0  0  0  0  0  0  0  0
    3.5739    2.7239    0.0000 H   0  0  0  0  0  0  0  0  0  0  0  0
    3.6862    1.6559    0.0000 H   0  0  0  0  0  0  0  0  0  0  0  0
    3.2771   -2.2012    0.0000 H   0  0  0  0  0  0  0  0  0  0  0  0
    4.1459   -1.5699    0.0000 H   0  0  0  0  0  0  0  0  0  0  0  0
   10.7612    6.0917    0.0000 H   0  0  0  0  0  0  0  0  0  0  0  0
    3.4581   -3.9237    0.0000 H   0  0  0  0  0  0  0  0  0  0  0  0
   13.1435    6.6730    0.0000 H   0  0  0  0  0  0  0  0  0  0  0  0
   12.1625    7.1098    0.0000 H   0  0  0  0  0  0  0  0  0  0  0  0
   13.3246    4.9505    0.0000 H   0  0  0  0  0  0  0  0  0  0  0  0
  1117  1  0  0  0  0
  1123  1  0  0  0  0
  2 69  2  0  0  0  0
  3 71  2  0  0  0  0
  4 72  2  0  0  0  0
  5 77  2  0  0  0  0
  6 85  1  0  0  0  0
  6210  1  0  0  0  0
  7 85  2  0  0  0  0
  8 91  2  0  0  0  0
  9 92  2  0  0  0  0
 10 97  2  0  0  0  0
 11105  1  0  0  0  0
 11119  1  0  0  0  0
 12102  2  0  0  0  0
 13109  1  0  0  0  0
 13122  1  0  0  0  0
 14115  2  0  0  0  0
 15121  2  0  0  0  0
 16126  2  0  0  0  0
 17127  2  0  0  0  0
 18129  2  0  0  0  0
 19137  2  0  0  0  0
 20143  2  0  0  0  0
 21151  2  0  0  0  0
 22154  2  0  0  0  0
 23159  2  0  0  0  0
 24 64  1  0  0  0  0
 24 68  1  0  0  0  0
 24 69  1  0  0  0  0
 25 62  1  0  0  0  0
 25 66  1  0  0  0  0
 25 71  1  0  0  0  0
 26 72  1  0  0  0  0
 75 26  1  6  0  0  0
 26179  1  0  0  0  0
 73 27  1  1  0  0  0
 27 77  1  0  0  0  0
 27180  1  0  0  0  0
 28 78  1  0  0  0  0
 28 84  1  0  0  0  0
 28 89  1  0  0  0  0
 29 80  1  0  0  0  0
 29 96  1  0  0  0  0
 29204  1  0  0  0  0
 82 30  1  6  0  0  0
 30 92  1  0  0  0  0
 30205  1  0  0  0  0
 31 86  1  0  0  0  0
 31 97  1  0  0  0  0
 31208  1  0  0  0  0
 32 91  1  0  0  0  0
 32216  1  0  0  0  0
 32217  1  0  0  0  0
 33 94  1  0  0  0  0
 33107  1  0  0  0  0
 33218  1  0  0  0  0
 95 34  1  1  0  0  0
 34102  1  0  0  0  0
 34219  1  0  0  0  0
 35 96  1  0  0  0  0
 35224  1  0  0  0  0
 35225  1  0  0  0  0
 36 96  2  0  0  0  0
 36226  1  0  0  0  0
 37103  1  0  0  0  0
 37118  1  0  0  0  0
 37236  1  0  0  0  0
106 38  1  6  0  0  0
 38115  1  0  0  0  0
 38237  1  0  0  0  0
 39107  1  0  0  0  0
 39238  1  0  0  0  0
 39239  1  0  0  0  0
 40107  2  0  0  0  0
 40244  1  0  0  0  0
116 41  1  1  0  0  0
 41127  1  0  0  0  0
 41257  1  0  0  0  0
 42118  1  0  0  0  0
 42262  1  0  0  0  0
 42263  1  0  0  0  0
 43126  1  0  0  0  0
 43129  1  0  0  0  0
 43131  1  0  0  0  0
 44118  2  0  0  0  0
 44265  1  0  0  0  0
 45121  1  0  0  0  0
 45268  1  0  0  0  0
 45269  1  0  0  0  0
128 46  1  6  0  0  0
 46137  1  0  0  0  0
 46276  1  0  0  0  0
 47130  1  0  0  0  0
 47147  1  0  0  0  0
 47282  1  0  0  0  0
135 48  1  1  0  0  0
 48143  1  0  0  0  0
 48291  1  0  0  0  0
142 49  1  6  0  0  0
 49151  1  0  0  0  0
 49301  1  0  0  0  0
 50140  1  0  0  0  0
 50157  1  0  0  0  0
 50302  1  0  0  0  0
 51147  1  0  0  0  0
 51313  1  0  0  0  0
 51314  1  0  0  0  0
149 52  1  1  0  0  0
 52159  1  0  0  0  0
 52312  1  0  0  0  0
 53154  1  0  0  0  0
 53158  1  0  0  0  0
 53317  1  0  0  0  0
 54147  2  0  0  0  0
 54318  1  0  0  0  0
 55152  1  0  0  0  0
 55323  1  0  0  0  0
 55324  1  0  0  0  0
 56156  1  0  0  0  0
 56325  1  0  0  0  0
 56326  1  0  0  0  0
 57157  1  0  0  0  0
 57327  1  0  0  0  0
 57328  1  0  0  0  0
 58160  1  0  0  0  0
 58161  1  0  0  0  0
 58329  1  0  0  0  0
 59157  2  0  0  0  0
 59330  1  0  0  0  0
 60161  1  0  0  0  0
 60331  1  0  0  0  0
 60332  1  0  0  0  0
 61161  2  0  0  0  0
 61333  1  0  0  0  0
 62 63  1  0  0  0  0
 62 69  1  1  0  0  0
 62162  1  0  0  0  0
 63 65  1  0  0  0  0
 63163  1  0  0  0  0
 63164  1  0  0  0  0
 64 67  1  0  0  0  0
 64 72  1  1  0  0  0
 64165  1  0  0  0  0
 65 66  1  0  0  0  0
 65166  1  0  0  0  0
 65167  1  0  0  0  0
 66168  1  0  0  0  0
 66169  1  0  0  0  0
 67 70  1  0  0  0  0
 67170  1  0  0  0  0
 67171  1  0  0  0  0
 68 70  1  0  0  0  0
 68172  1  0  0  0  0
 68173  1  0  0  0  0
 70174  1  0  0  0  0
 70175  1  0  0  0  0
 71 73  1  0  0  0  0
 73 74  1  0  0  0  0
 73176  1  0  0  0  0
 74 76  1  0  0  0  0
 74177  1  0  0  0  0
 74178  1  0  0  0  0
 75 79  1  0  0  0  0
 75 85  1  0  0  0  0
 75181  1  0  0  0  0
 76 80  1  0  0  0  0
 76182  1  0  0  0  0
 76183  1  0  0  0  0
 77 82  1  0  0  0  0
 78 81  1  0  0  0  0
 78 86  1  1  0  0  0
 78184  1  0  0  0  0
 79 87  1  0  0  0  0
 79185  1  0  0  0  0
 79186  1  0  0  0  0
 80187  1  0  0  0  0
 80188  1  0  0  0  0
 81 83  1  0  0  0  0
 81189  1  0  0  0  0
 81190  1  0  0  0  0
 82 88  1  0  0  0  0
 82191  1  0  0  0  0
 83 84  1  0  0  0  0
 83192  1  0  0  0  0
 83193  1  0  0  0  0
 84194  1  0  0  0  0
 84195  1  0  0  0  0
 86196  1  0  0  0  0
 86197  1  0  0  0  0
 87 91  1  0  0  0  0
 87198  1  0  0  0  0
 87199  1  0  0  0  0
 88 90  1  0  0  0  0
 88200  1  0  0  0  0
 88201  1  0  0  0  0
 89 93  1  0  0  0  0
 89202  1  0  0  0  0
 89203  1  0  0  0  0
 90 94  1  0  0  0  0
 90206  1  0  0  0  0
 90207  1  0  0  0  0
 92 95  1  0  0  0  0
 93 99  2  0  0  0  0
 93209  1  0  0  0  0
 94211  1  0  0  0  0
 94212  1  0  0  0  0
 95 98  1  0  0  0  0
 95213  1  0  0  0  0
 97101  1  0  0  0  0
 98100  1  0  0  0  0
 98214  1  0  0  0  0
 98215  1  0  0  0  0
 99220  1  0  0  0  0
 99221  1  0  0  0  0
100103  1  0  0  0  0
100222  1  0  0  0  0
100223  1  0  0  0  0
101104  1  0  0  0  0
101105  2  0  0  0  0
102106  1  0  0  0  0
103227  1  0  0  0  0
103228  1  0  0  0  0
104108  2  0  0  0  0
104229  1  0  0  0  0
105109  1  0  0  0  0
106110  1  0  0  0  0
106230  1  0  0  0  0
108111  1  0  0  0  0
108112  1  0  0  0  0
109111  2  0  0  0  0
110114  1  0  0  0  0
110231  1  0  0  0  0
110232  1  0  0  0  0
111233  1  0  0  0  0
112113  1  0  0  0  0
112234  1  0  0  0  0
112235  1  0  0  0  0
113117  1  0  0  0  0
113240  1  0  0  0  0
113241  1  0  0  0  0
114121  1  0  0  0  0
114242  1  0  0  0  0
114243  1  0  0  0  0
115116  1  0  0  0  0
116120  1  0  0  0  0
116245  1  0  0  0  0
117246  1  0  0  0  0
117247  1  0  0  0  0
119248  1  0  0  0  0
119249  1  0  0  0  0
119250  1  0  0  0  0
120124  1  0  0  0  0
120251  1  0  0  0  0
120252  1  0  0  0  0
122253  1  0  0  0  0
122254  1  0  0  0  0
122255  1  0  0  0  0
123125  1  0  0  0  0
123126  1  0  0  0  0
123256  1  0  0  0  0
124130  1  0  0  0  0
124258  1  0  0  0  0
124259  1  0  0  0  0
125129  1  0  0  0  0
125260  1  0  0  0  0
125261  1  0  0  0  0
127128  1  0  0  0  0
128132  1  0  0  0  0
128264  1  0  0  0  0
130266  1  0  0  0  0
130267  1  0  0  0  0
131133  1  0  0  0  0
131270  1  0  0  0  0
131271  1  0  0  0  0
132134  1  0  0  0  0
132272  1  0  0  0  0
132273  1  0  0  0  0
133136  1  0  0  0  0
133274  1  0  0  0  0
133275  1  0  0  0  0
134140  1  0  0  0  0
134277  1  0  0  0  0
134278  1  0  0  0  0
135137  1  0  0  0  0
135138  1  0  0  0  0
135279  1  0  0  0  0
136139  1  0  0  0  0
136280  1  0  0  0  0
136281  1  0  0  0  0
138141  1  0  0  0  0
138283  1  0  0  0  0
138284  1  0  0  0  0
139145  1  0  0  0  0
139285  1  0  0  0  0
139286  1  0  0  0  0
140287  1  0  0  0  0
140288  1  0  0  0  0
141146  1  0  0  0  0
141289  1  0  0  0  0
141290  1  0  0  0  0
142143  1  0  0  0  0
142144  1  0  0  0  0
142292  1  0  0  0  0
144148  1  0  0  0  0
144293  1  0  0  0  0
144294  1  0  0  0  0
145154  1  0  0  0  0
145295  1  0  0  0  0
145296  1  0  0  0  0
146152  1  0  0  0  0
146297  1  0  0  0  0
146298  1  0  0  0  0
148150  1  0  0  0  0
148299  1  0  0  0  0
148300  1  0  0  0  0
149151  1  0  0  0  0
149153  1  0  0  0  0
149303  1  0  0  0  0
150156  1  0  0  0  0
150304  1  0  0  0  0
150305  1  0  0  0  0
152306  1  0  0  0  0
152307  1  0  0  0  0
153155  1  0  0  0  0
153308  1  0  0  0  0
153309  1  0  0  0  0
155160  1  0  0  0  0
155310  1  0  0  0  0
155311  1  0  0  0  0
156315  1  0  0  0  0
156316  1  0  0  0  0
158159  1  0  0  0  0
158319  1  0  0  0  0
158320  1  0  0  0  0
160321  1  0  0  0  0
160322  1  0  0  0  0
M  END
> <PUBCHEM_COMPOUND_CID>
90656835

> <PUBCHEM_COMPOUND_CANONICALIZED>
1

> <PUBCHEM_CACTVS_COMPLEXITY>
4920

> <PUBCHEM_CACTVS_HBOND_ACCEPTOR>
32

> <PUBCHEM_CACTVS_HBOND_DONOR>
35

> <PUBCHEM_CACTVS_ROTATABLE_BOND>
86

> <PUBCHEM_CACTVS_SUBSKEYS>
AAADcfB//gBAAAAAAAAAAAAAAAAAAWLFiwAwAAAAAAAAAAABAAAAHgQQCAAADCzF2AazDoPABgioAiHSOACCCACkIBAJiIGOjMiPZjakvTuUcWpm9jO6qYe/3/COIAADAAAIQABAAAYAABCAAAAAAAAAAA==

> <PUBCHEM_IUPAC_OPENEYE_NAME>
(2S)-2-[[(2S)-1-[(2S)-1-[(2S)-2-[[(2S)-2-[[(2S)-2-[[(2S)-2-[[(2S)-2-[[(2S)-2-[[(2S)-2-[[(2S)-2-[[(2S)-2-[[2-[6-[3-[3-[3-[[(2S)-1-allylpyrrolidin-2-yl]methylcarbamoyl]-4,5-dimethoxy-phenyl]propylsulfanyl]-2,5-dioxo-pyrrolidin-1-yl]hexanoylamino]acetyl]amino]-5-guanidino-pentanoyl]amino]-6-amino-hexanoyl]amino]-6-amino-hexanoyl]amino]-5-guanidino-pentanoyl]amino]-5-guanidino-pentanoyl]amino]-5-amino-5-oxo-pentanoyl]amino]-5-guanidino-pentanoyl]amino]-5-guanidino-pentanoyl]amino]-5-guanidino-pentanoyl]pyrrolidine-2-carbonyl]pyrrolidine-2-carbonyl]amino]-5-amino-5-oxo-pentanoic acid

> <PUBCHEM_IUPAC_CAS_NAME>
(2S)-5-amino-2-[[[(2S)-1-[[(2S)-1-[(2S)-2-[[(2S)-2-[[(2S)-2-[[(2S)-5-amino-2-[[(2S)-2-[[(2S)-2-[[(2S)-6-amino-2-[[(2S)-6-amino-2-[[(2S)-5-carbamimidamido-2-[[2-[[6-[3-[3-[3,4-dimethoxy-5-[oxo-[[(2S)-1-prop-2-enyl-2-pyrrolidinyl]methylamino]methyl]phenyl]propylthio]-2,5-dioxo-1-pyrrolidinyl]-1-oxohexyl]amino]-1-oxoethyl]amino]-1-oxopentyl]amino]-1-oxohexyl]amino]-1-oxohexyl]amino]-5-carbamimidamido-1-oxopentyl]amino]-5-carbamimidamido-1-oxopentyl]amino]-1,5-dioxopentyl]amino]-5-carbamimidamido-1-oxopentyl]amino]-5-carbamimidamido-1-oxopentyl]amino]-5-carbamimidamido-1-oxopentyl]-2-pyrrolidinyl]-oxomethyl]-2-pyrrolidinyl]-oxomethyl]amino]-5-oxopentanoic acid

> <PUBCHEM_IUPAC_NAME_MARKUP>
(2<I>S</I>)-5-amino-2-[[(2<I>S</I>)-1-[(2<I>S</I>)-1-[(2<I>S</I>)-2-[[(2<I>S</I>)-2-[[(2<I>S</I>)-2-[[(2<I>S</I>)-5-amino-2-[[(2<I>S</I>)-2-[[(2<I>S</I>)-2-[[(2<I>S</I>)-6-amino-2-[[(2<I>S</I>)-6-amino-2-[[(2<I>S</I>)-5-carbamimidamido-2-[[2-[6-[3-[3-[3,4-dimethoxy-5-[[(2<I>S</I>)-1-prop-2-enylpyrrolidin-2-yl]methylcarbamoyl]phenyl]propylsulfanyl]-2,5-dioxopyrrolidin-1-yl]hexanoylamino]acetyl]amino]pentanoyl]amino]hexanoyl]amino]hexanoyl]amino]-5-carbamimidamidopentanoyl]amino]-5-carbamimidamidopentanoyl]amino]-5-oxopentanoyl]amino]-5-carbamimidamidopentanoyl]amino]-5-carbamimidamidopentanoyl]amino]-5-carbamimidamidopentanoyl]pyrrolidine-2-carbonyl]pyrrolidine-2-carbonyl]amino]-5-oxopentanoic acid

> <PUBCHEM_IUPAC_NAME>
(2S)-5-amino-2-[[(2S)-1-[(2S)-1-[(2S)-2-[[(2S)-2-[[(2S)-2-[[(2S)-5-amino-2-[[(2S)-2-[[(2S)-2-[[(2S)-6-amino-2-[[(2S)-6-amino-2-[[(2S)-5-carbamimidamido-2-[[2-[6-[3-[3-[3,4-dimethoxy-5-[[(2S)-1-prop-2-enylpyrrolidin-2-yl]methylcarbamoyl]phenyl]propylsulfanyl]-2,5-dioxopyrrolidin-1-yl]hexanoylamino]acetyl]amino]pentanoyl]amino]hexanoyl]amino]hexanoyl]amino]-5-carbamimidamidopentanoyl]amino]-5-carbamimidamidopentanoyl]amino]-5-oxopentanoyl]amino]-5-carbamimidamidopentanoyl]amino]-5-carbamimidamidopentanoyl]amino]-5-carbamimidamidopentanoyl]pyrrolidine-2-carbonyl]pyrrolidine-2-carbonyl]amino]-5-oxopentanoic acid

> <PUBCHEM_IUPAC_SYSTEMATIC_NAME>
(2S)-5-azanyl-2-[[(2S)-1-[(2S)-1-[(2S)-2-[[(2S)-2-[[(2S)-2-[[(2S)-5-azanyl-2-[[(2S)-2-[[(2S)-2-[[(2S)-6-azanyl-2-[[(2S)-6-azanyl-2-[[(2S)-5-carbamimidamido-2-[2-[6-[3-[3-[3,4-dimethoxy-5-[[(2S)-1-prop-2-enylpyrrolidin-2-yl]methylcarbamoyl]phenyl]propylsulfanyl]-2,5-bis(oxidanylidene)pyrrolidin-1-yl]hexanoylamino]ethanoylamino]pentanoyl]amino]hexanoyl]amino]hexanoyl]amino]-5-carbamimidamido-pentanoyl]amino]-5-carbamimidamido-pentanoyl]amino]-5-oxidanylidene-pentanoyl]amino]-5-carbamimidamido-pentanoyl]amino]-5-carbamimidamido-pentanoyl]amino]-5-carbamimidamido-pentanoyl]pyrrolidin-2-yl]carbonylpyrrolidin-2-yl]carbonylamino]-5-oxidanylidene-pentanoic acid

> <PUBCHEM_IUPAC_TRADITIONAL_NAME>
(2S)-2-[[(2S)-1-[(2S)-1-[(2S)-2-[[(2S)-2-[[(2S)-2-[[(2S)-2-[[(2S)-2-[[(2S)-2-[[(2S)-2-[[(2S)-2-[[(2S)-2-[[2-[6-[3-[3-[3-[[(2S)-1-allylpyrrolidin-2-yl]methylcarbamoyl]-4,5-dimethoxy-phenyl]propylthio]-2,5-diketo-pyrrolidino]hexanoylamino]acetyl]amino]-5-guanidino-pentanoyl]amino]-6-amino-hexanoyl]amino]-6-amino-hexanoyl]amino]-5-guanidino-pentanoyl]amino]-5-guanidino-pentanoyl]amino]-5-amino-5-keto-pentanoyl]amino]-5-guanidino-pentanoyl]amino]-5-guanidino-pentanoyl]amino]-5-guanidino-pentanoyl]prolyl]prolyl]amino]-5-amino-5-keto-valeric acid

> <PUBCHEM_IUPAC_INCHI>
InChI=1S/C100H172N38O22S/c1-4-47-135-48-18-23-59(135)56-124-81(144)60-53-58(54-73(159-2)80(60)160-3)22-21-52-161-74-55-79(143)138(93(74)156)49-11-5-6-34-77(141)123-57-78(142)125-61(26-12-41-117-95(105)106)82(145)126-62(24-7-9-39-101)83(146)127-63(25-8-10-40-102)84(147)128-64(27-13-42-118-96(107)108)85(148)129-66(29-15-44-120-98(111)112)87(150)132-68(35-37-75(103)139)89(152)131-65(28-14-43-119-97(109)110)86(149)130-67(30-16-45-121-99(113)114)88(151)133-69(31-17-46-122-100(115)116)91(154)137-51-20-33-72(137)92(155)136-50-19-32-71(136)90(153)134-70(94(157)158)36-38-76(104)140/h4,53-54,59,61-72,74H,1,5-52,55-57,101-102H2,2-3H3,(H2,103,139)(H2,104,140)(H,123,141)(H,124,144)(H,125,142)(H,126,145)(H,127,146)(H,128,147)(H,129,148)(H,130,149)(H,131,152)(H,132,150)(H,133,151)(H,134,153)(H,157,158)(H4,105,106,117)(H4,107,108,118)(H4,109,110,119)(H4,111,112,120)(H4,113,114,121)(H4,115,116,122)/t59-,61-,62-,63-,64-,65-,66-,67-,68-,69-,70-,71-,72-,74?/m0/s1

> <PUBCHEM_IUPAC_INCHIKEY>
JTBUMIDWZWHPHA-NQWOSTQESA-N

> <PUBCHEM_XLOGP3_AA>
-9.8

> <PUBCHEM_EXACT_MASS>
2290.3262653

> <PUBCHEM_MOLECULAR_FORMULA>
C100H172N38O22S

> <PUBCHEM_MOLECULAR_WEIGHT>
2290.7

> <PUBCHEM_OPENEYE_CAN_SMILES>
COC1=CC(=CC(=C1OC)C(=O)NCC2CCCN2CC=C)CCCSC3CC(=O)N(C3=O)CCCCCC(=O)NCC(=O)NC(CCCNC(=N)N)C(=O)NC(CCCCN)C(=O)NC(CCCCN)C(=O)NC(CCCNC(=N)N)C(=O)NC(CCCNC(=N)N)C(=O)NC(CCC(=O)N)C(=O)NC(CCCNC(=N)N)C(=O)NC(CCCNC(=N)N)C(=O)NC(CCCNC(=N)N)C(=O)N4CCCC4C(=O)N5CCCC5C(=O)NC(CCC(=O)N)C(=O)O

> <PUBCHEM_OPENEYE_ISO_SMILES>
COC1=CC(=CC(=C1OC)C(=O)NC[C@@H]2CCCN2CC=C)CCCSC3CC(=O)N(C3=O)CCCCCC(=O)NCC(=O)N[C@@H](CCCNC(=N)N)C(=O)N[C@@H](CCCCN)C(=O)N[C@@H](CCCCN)C(=O)N[C@@H](CCCNC(=N)N)C(=O)N[C@@H](CCCNC(=N)N)C(=O)N[C@@H](CCC(=O)N)C(=O)N[C@@H](CCCNC(=N)N)C(=O)N[C@@H](CCCNC(=N)N)C(=O)N[C@@H](CCCNC(=N)N)C(=O)N4CCC[C@H]4C(=O)N5CCC[C@H]5C(=O)N[C@@H](CCC(=O)N)C(=O)O

> <PUBCHEM_CACTVS_TPSA>
1020

> <PUBCHEM_MONOISOTOPIC_WEIGHT>
2289.3229104

> <PUBCHEM_TOTAL_CHARGE>
0

> <PUBCHEM_HEAVY_ATOM_COUNT>
161

> <PUBCHEM_ATOM_DEF_STEREO_COUNT>
13

> <PUBCHEM_ATOM_UDEF_STEREO_COUNT>
1

> <PUBCHEM_BOND_DEF_STEREO_COUNT>
0

> <PUBCHEM_BOND_UDEF_STEREO_COUNT>
0

> <PUBCHEM_ISOTOPIC_ATOM_COUNT>
0

> <PUBCHEM_COMPONENT_COUNT>
1

> <PUBCHEM_CACTVS_TAUTO_COUNT>
-1

> <PUBCHEM_COORDINATE_TYPE>
1
5
255

> <PUBCHEM_BONDANNOTATIONS>
123  1  3
101  104  8
101  105  8
104  108  8
105  109  8
108  111  8
109  111  8
75  26  6
73  27  5
82  30  6
95  34  5
106  38  6
116  41  5
128  46  6
135  48  5
142  49  6
149  52  5
62  69  5
64  72  5
78  86  5

$$$$
