44431546
  -OEChem-09292322242D

 68 71  0     0  0  0  0  0  0999 V2000
    6.3301    3.7500    0.0000 S   0  0  0  0  0  0  0  0  0  0  0  0
    5.8301    4.6160    0.0000 O   0  0  0  0  0  0  0  0  0  0  0  0
    6.8301    2.8840    0.0000 O   0  0  0  0  0  0  0  0  0  0  0  0
    3.7320   -3.7500    0.0000 O   0  0  0  0  0  0  0  0  0  0  0  0
    5.4641   -0.7500    0.0000 N   0  0  0  0  0  0  0  0  0  0  0  0
    5.4641   -2.7500    0.0000 N   0  0  0  0  0  0  0  0  0  0  0  0
    5.4641    3.2500    0.0000 N   0  0  0  0  0  0  0  0  0  0  0  0
    8.0622    1.7500    0.0000 N   0  0  0  0  0  0  0  0  0  0  0  0
    5.4641    0.2500    0.0000 C   0  0  0  0  0  0  0  0  0  0  0  0
    4.5981    0.7500    0.0000 C   0  0  0  0  0  0  0  0  0  0  0  0
    6.3301    0.7500    0.0000 C   0  0  0  0  0  0  0  0  0  0  0  0
    5.4641    2.2500    0.0000 C   0  0  0  0  0  0  0  0  0  0  0  0
    4.5981    1.7500    0.0000 C   0  0  0  0  0  0  0  0  0  0  0  0
    6.3301    1.7500    0.0000 C   0  0  0  0  0  0  0  0  0  0  0  0
    4.5981   -1.2500    0.0000 C   0  0  0  0  0  0  0  0  0  0  0  0
    6.3301   -1.2500    0.0000 C   0  0  0  0  0  0  0  0  0  0  0  0
    4.5981   -2.2500    0.0000 C   0  0  0  0  0  0  0  0  0  0  0  0
    6.3301   -2.2500    0.0000 C   0  0  0  0  0  0  0  0  0  0  0  0
    5.4641   -3.7500    0.0000 C   0  0  0  0  0  0  0  0  0  0  0  0
    7.1962    4.2500    0.0000 C   0  0  0  0  0  0  0  0  0  0  0  0
    4.5981   -4.2500    0.0000 C   0  0  0  0  0  0  0  0  0  0  0  0
    6.3301   -4.2500    0.0000 C   0  0  0  0  0  0  0  0  0  0  0  0
    4.5981   -5.2500    0.0000 C   0  0  0  0  0  0  0  0  0  0  0  0
    8.0622    3.7500    0.0000 C   0  0  0  0  0  0  0  0  0  0  0  0
    7.1962    5.2500    0.0000 C   0  0  0  0  0  0  0  0  0  0  0  0
    6.3301   -5.2500    0.0000 C   0  0  0  0  0  0  0  0  0  0  0  0
    5.4641   -5.7500    0.0000 C   0  0  0  0  0  0  0  0  0  0  0  0
    2.8660   -4.2500    0.0000 C   0  0  0  0  0  0  0  0  0  0  0  0
    8.9282    4.2500    0.0000 C   0  0  0  0  0  0  0  0  0  0  0  0
    8.0622    5.7500    0.0000 C   0  0  0  0  0  0  0  0  0  0  0  0
    8.9282    5.2500    0.0000 C   0  0  0  0  0  0  0  0  0  0  0  0
    8.0622    2.7500    0.0000 C   0  0  0  0  0  0  0  0  0  0  0  0
    2.0000   -3.7500    0.0000 C   0  0  0  0  0  0  0  0  0  0  0  0
    2.8660   -5.2500    0.0000 C   0  0  0  0  0  0  0  0  0  0  0  0
    6.0010   -0.0600    0.0000 H   0  0  0  0  0  0  0  0  0  0  0  0
    3.9875    0.8577    0.0000 H   0  0  0  0  0  0  0  0  0  0  0  0
    4.3860    0.1674    0.0000 H   0  0  0  0  0  0  0  0  0  0  0  0
    6.5422    0.1674    0.0000 H   0  0  0  0  0  0  0  0  0  0  0  0
    6.9407    0.8577    0.0000 H   0  0  0  0  0  0  0  0  0  0  0  0
    6.0010    2.5600    0.0000 H   0  0  0  0  0  0  0  0  0  0  0  0
    4.3860    2.3326    0.0000 H   0  0  0  0  0  0  0  0  0  0  0  0
    3.9875    1.6423    0.0000 H   0  0  0  0  0  0  0  0  0  0  0  0
    6.9407    1.6423    0.0000 H   0  0  0  0  0  0  0  0  0  0  0  0
    6.5422    2.3326    0.0000 H   0  0  0  0  0  0  0  0  0  0  0  0
    4.3860   -0.6674    0.0000 H   0  0  0  0  0  0  0  0  0  0  0  0
    3.9875   -1.3577    0.0000 H   0  0  0  0  0  0  0  0  0  0  0  0
    6.9407   -1.3577    0.0000 H   0  0  0  0  0  0  0  0  0  0  0  0
    6.5422   -0.6674    0.0000 H   0  0  0  0  0  0  0  0  0  0  0  0
    3.9875   -2.1423    0.0000 H   0  0  0  0  0  0  0  0  0  0  0  0
    4.3860   -2.8326    0.0000 H   0  0  0  0  0  0  0  0  0  0  0  0
    6.5422   -2.8326    0.0000 H   0  0  0  0  0  0  0  0  0  0  0  0
    6.9407   -2.1423    0.0000 H   0  0  0  0  0  0  0  0  0  0  0  0
    4.9272    3.5600    0.0000 H   0  0  0  0  0  0  0  0  0  0  0  0
    6.8671   -3.9400    0.0000 H   0  0  0  0  0  0  0  0  0  0  0  0
    4.0611   -5.5600    0.0000 H   0  0  0  0  0  0  0  0  0  0  0  0
    6.6592    5.5600    0.0000 H   0  0  0  0  0  0  0  0  0  0  0  0
    6.8671   -5.5600    0.0000 H   0  0  0  0  0  0  0  0  0  0  0  0
    5.4641   -6.3700    0.0000 H   0  0  0  0  0  0  0  0  0  0  0  0
    2.8660   -3.6300    0.0000 H   0  0  0  0  0  0  0  0  0  0  0  0
    9.4651    3.9400    0.0000 H   0  0  0  0  0  0  0  0  0  0  0  0
    8.0622    6.3700    0.0000 H   0  0  0  0  0  0  0  0  0  0  0  0
    9.4651    5.5600    0.0000 H   0  0  0  0  0  0  0  0  0  0  0  0
    2.3100   -3.2131    0.0000 H   0  0  0  0  0  0  0  0  0  0  0  0
    1.4631   -3.4400    0.0000 H   0  0  0  0  0  0  0  0  0  0  0  0
    1.6900   -4.2869    0.0000 H   0  0  0  0  0  0  0  0  0  0  0  0
    2.2460   -5.2500    0.0000 H   0  0  0  0  0  0  0  0  0  0  0  0
    2.8660   -5.8700    0.0000 H   0  0  0  0  0  0  0  0  0  0  0  0
    3.4860   -5.2500    0.0000 H   0  0  0  0  0  0  0  0  0  0  0  0
  1  2  2  0  0  0  0
  1  3  2  0  0  0  0
  1  7  1  0  0  0  0
  1 20  1  0  0  0  0
  4 21  1  0  0  0  0
  4 28  1  0  0  0  0
  5  9  1  0  0  0  0
  5 15  1  0  0  0  0
  5 16  1  0  0  0  0
  6 17  1  0  0  0  0
  6 18  1  0  0  0  0
  6 19  1  0  0  0  0
  7 12  1  0  0  0  0
  7 53  1  0  0  0  0
  8 32  3  0  0  0  0
  9 10  1  0  0  0  0
  9 11  1  0  0  0  0
  9 35  1  0  0  0  0
 10 13  1  0  0  0  0
 10 36  1  0  0  0  0
 10 37  1  0  0  0  0
 11 14  1  0  0  0  0
 11 38  1  0  0  0  0
 11 39  1  0  0  0  0
 12 13  1  0  0  0  0
 12 14  1  0  0  0  0
 12 40  1  0  0  0  0
 13 41  1  0  0  0  0
 13 42  1  0  0  0  0
 14 43  1  0  0  0  0
 14 44  1  0  0  0  0
 15 17  1  0  0  0  0
 15 45  1  0  0  0  0
 15 46  1  0  0  0  0
 16 18  1  0  0  0  0
 16 47  1  0  0  0  0
 16 48  1  0  0  0  0
 17 49  1  0  0  0  0
 17 50  1  0  0  0  0
 18 51  1  0  0  0  0
 18 52  1  0  0  0  0
 19 21  1  0  0  0  0
 19 22  2  0  0  0  0
 20 24  1  0  0  0  0
 20 25  2  0  0  0  0
 21 23  2  0  0  0  0
 22 26  1  0  0  0  0
 22 54  1  0  0  0  0
 23 27  1  0  0  0  0
 23 55  1  0  0  0  0
 24 29  2  0  0  0  0
 24 32  1  0  0  0  0
 25 30  1  0  0  0  0
 25 56  1  0  0  0  0
 26 27  2  0  0  0  0
 26 57  1  0  0  0  0
 27 58  1  0  0  0  0
 28 33  1  0  0  0  0
 28 34  1  0  0  0  0
 28 59  1  0  0  0  0
 29 31  1  0  0  0  0
 29 60  1  0  0  0  0
 30 31  2  0  0  0  0
 30 61  1  0  0  0  0
 31 62  1  0  0  0  0
 33 63  1  0  0  0  0
 33 64  1  0  0  0  0
 33 65  1  0  0  0  0
 34 66  1  0  0  0  0
 34 67  1  0  0  0  0
 34 68  1  0  0  0  0
M  END
> <PUBCHEM_COMPOUND_CID>
44431546

> <PUBCHEM_COMPOUND_CANONICALIZED>
1

> <PUBCHEM_CACTVS_COMPLEXITY>
789

> <PUBCHEM_CACTVS_HBOND_ACCEPTOR>
7

> <PUBCHEM_CACTVS_HBOND_DONOR>
1

> <PUBCHEM_CACTVS_ROTATABLE_BOND>
7

> <PUBCHEM_CACTVS_SUBSKEYS>
AAADcfB7sABAAAAAAAAAAAAAAAAAAAAAAAA8YMEAAAAAAAABQAAAHgQQQAAADDzh2AYyx4NABAKQBiRCQHDiCBAhIgAIiJgPbIgO5iLEsZuXOCjk0BHY6A+QwAAOAAAAAAAEEAAAAQAAAAggAAAAAAAAAA==

> <PUBCHEM_IUPAC_OPENEYE_NAME>
2-cyano-N-[4-[4-(2-isopropoxyphenyl)piperazin-1-yl]cyclohexyl]benzenesulfonamide

> <PUBCHEM_IUPAC_CAS_NAME>
2-cyano-N-[4-[4-(2-propan-2-yloxyphenyl)-1-piperazinyl]cyclohexyl]benzenesulfonamide

> <PUBCHEM_IUPAC_NAME_MARKUP>
2-cyano-<I>N</I>-[4-[4-(2-propan-2-yloxyphenyl)piperazin-1-yl]cyclohexyl]benzenesulfonamide

> <PUBCHEM_IUPAC_NAME>
2-cyano-N-[4-[4-(2-propan-2-yloxyphenyl)piperazin-1-yl]cyclohexyl]benzenesulfonamide

> <PUBCHEM_IUPAC_SYSTEMATIC_NAME>
2-cyano-N-[4-[4-(2-propan-2-yloxyphenyl)piperazin-1-yl]cyclohexyl]benzenesulfonamide

> <PUBCHEM_IUPAC_TRADITIONAL_NAME>
2-cyano-N-[4-[4-(2-isopropoxyphenyl)piperazino]cyclohexyl]benzenesulfonamide

> <PUBCHEM_IUPAC_INCHI>
InChI=1S/C26H34N4O3S/c1-20(2)33-25-9-5-4-8-24(25)30-17-15-29(16-18-30)23-13-11-22(12-14-23)28-34(31,32)26-10-6-3-7-21(26)19-27/h3-10,20,22-23,28H,11-18H2,1-2H3

> <PUBCHEM_IUPAC_INCHIKEY>
PAUUPYPPPJQSIG-UHFFFAOYSA-N

> <PUBCHEM_XLOGP3_AA>
4.3

> <PUBCHEM_EXACT_MASS>
482.23516213

> <PUBCHEM_MOLECULAR_FORMULA>
C26H34N4O3S

> <PUBCHEM_MOLECULAR_WEIGHT>
482.6

> <PUBCHEM_OPENEYE_CAN_SMILES>
CC(C)OC1=CC=CC=C1N2CCN(CC2)C3CCC(CC3)NS(=O)(=O)C4=CC=CC=C4C#N

> <PUBCHEM_OPENEYE_ISO_SMILES>
CC(C)OC1=CC=CC=C1N2CCN(CC2)C3CCC(CC3)NS(=O)(=O)C4=CC=CC=C4C#N

> <PUBCHEM_CACTVS_TPSA>
94

> <PUBCHEM_MONOISOTOPIC_WEIGHT>
482.23516213

> <PUBCHEM_TOTAL_CHARGE>
0

> <PUBCHEM_HEAVY_ATOM_COUNT>
34

> <PUBCHEM_ATOM_DEF_STEREO_COUNT>
0

> <PUBCHEM_ATOM_UDEF_STEREO_COUNT>
0

> <PUBCHEM_BOND_DEF_STEREO_COUNT>
0

> <PUBCHEM_BOND_UDEF_STEREO_COUNT>
0

> <PUBCHEM_ISOTOPIC_ATOM_COUNT>
0

> <PUBCHEM_COMPONENT_COUNT>
1

> <PUBCHEM_CACTVS_TAUTO_COUNT>
-1

> <PUBCHEM_COORDINATE_TYPE>
1
5
255

> <PUBCHEM_BONDANNOTATIONS>
19  21  8
19  22  8
20  24  8
20  25  8
21  23  8
22  26  8
23  27  8
24  29  8
25  30  8
26  27  8
29  31  8
30  31  8

$$$$
