71449643
  -OEChem-09292322332D

 56 59  0     1  0  0  0  0  0999 V2000
    3.7320   -0.8783    0.0000 S   0  0  0  0  0  0  0  0  0  0  0  0
    2.0000   -3.8783    0.0000 F   0  0  0  0  0  0  0  0  0  0  0  0
    3.7320   -4.8783    0.0000 F   0  0  0  0  0  0  0  0  0  0  0  0
    7.4888    3.7557    0.0000 O   0  0  0  0  0  0  0  0  0  0  0  0
    4.7320   -0.8783    0.0000 O   0  0  0  0  0  0  0  0  0  0  0  0
    2.7320   -0.8783    0.0000 O   0  0  0  0  0  0  0  0  0  0  0  0
    5.6808    1.8241    0.0000 N   0  0  3  0  0  0  0  0  0  0  0  0
    3.7320    0.1217    0.0000 N   0  0  0  0  0  0  0  0  0  0  0  0
    4.5981    0.6217    0.0000 C   0  0  3  0  0  0  0  0  0  0  0  0
    5.5116    0.2149    0.0000 C   0  0  0  0  0  0  0  0  0  0  0  0
    4.7026    1.6162    0.0000 C   0  0  0  0  0  0  0  0  0  0  0  0
    6.1808    0.9581    0.0000 C   0  0  0  0  0  0  0  0  0  0  0  0
    6.0875    2.7376    0.0000 C   0  0  0  0  0  0  0  0  0  0  0  0
    7.0820    2.8422    0.0000 C   0  0  0  0  0  0  0  0  0  0  0  0
    3.7320   -1.8783    0.0000 C   0  0  0  0  0  0  0  0  0  0  0  0
    2.8660   -2.3783    0.0000 C   0  0  0  0  0  0  0  0  0  0  0  0
    4.5981   -2.3783    0.0000 C   0  0  0  0  0  0  0  0  0  0  0  0
    8.4833    3.8602    0.0000 C   0  0  0  0  0  0  0  0  0  0  0  0
    9.0710    3.0512    0.0000 C   0  0  0  0  0  0  0  0  0  0  0  0
    2.8660   -3.3783    0.0000 C   0  0  0  0  0  0  0  0  0  0  0  0
    4.5981   -3.3783    0.0000 C   0  0  0  0  0  0  0  0  0  0  0  0
    8.8900    4.7738    0.0000 C   0  0  0  0  0  0  0  0  0  0  0  0
    3.7320   -3.8783    0.0000 C   0  0  0  0  0  0  0  0  0  0  0  0
    8.6643    2.1377    0.0000 C   0  0  0  0  0  0  0  0  0  0  0  0
   10.0656    3.1558    0.0000 C   0  0  0  0  0  0  0  0  0  0  0  0
    9.8845    4.8783    0.0000 C   0  0  0  0  0  0  0  0  0  0  0  0
   10.4723    4.0693    0.0000 C   0  0  0  0  0  0  0  0  0  0  0  0
    9.2521    1.3287    0.0000 C   0  0  0  0  0  0  0  0  0  0  0  0
    7.6698    2.0332    0.0000 C   0  0  0  0  0  0  0  0  0  0  0  0
    8.8454    0.4151    0.0000 C   0  0  0  0  0  0  0  0  0  0  0  0
    7.2631    1.1196    0.0000 C   0  0  0  0  0  0  0  0  0  0  0  0
    7.8508    0.3106    0.0000 C   0  0  0  0  0  0  0  0  0  0  0  0
    4.0781    0.9593    0.0000 H   0  0  0  0  0  0  0  0  0  0  0  0
    5.2016   -0.3220    0.0000 H   0  0  0  0  0  0  0  0  0  0  0  0
    6.0132   -0.1495    0.0000 H   0  0  0  0  0  0  0  0  0  0  0  0
    4.6378    2.2328    0.0000 H   0  0  0  0  0  0  0  0  0  0  0  0
    4.0826    1.6162    0.0000 H   0  0  0  0  0  0  0  0  0  0  0  0
    6.5956    0.4973    0.0000 H   0  0  0  0  0  0  0  0  0  0  0  0
    6.6823    1.3225    0.0000 H   0  0  0  0  0  0  0  0  0  0  0  0
    6.1307    3.3561    0.0000 H   0  0  0  0  0  0  0  0  0  0  0  0
    5.4859    2.8876    0.0000 H   0  0  0  0  0  0  0  0  0  0  0  0
    3.1951    0.4317    0.0000 H   0  0  0  0  0  0  0  0  0  0  0  0
    7.0388    2.2237    0.0000 H   0  0  0  0  0  0  0  0  0  0  0  0
    7.6836    2.6922    0.0000 H   0  0  0  0  0  0  0  0  0  0  0  0
    2.3291   -2.0683    0.0000 H   0  0  0  0  0  0  0  0  0  0  0  0
    5.1350   -2.0683    0.0000 H   0  0  0  0  0  0  0  0  0  0  0  0
    5.1350   -3.6883    0.0000 H   0  0  0  0  0  0  0  0  0  0  0  0
    8.5256    5.2754    0.0000 H   0  0  0  0  0  0  0  0  0  0  0  0
   10.4300    2.6542    0.0000 H   0  0  0  0  0  0  0  0  0  0  0  0
   10.1367    5.4447    0.0000 H   0  0  0  0  0  0  0  0  0  0  0  0
   11.0889    4.1341    0.0000 H   0  0  0  0  0  0  0  0  0  0  0  0
    9.8687    1.3935    0.0000 H   0  0  0  0  0  0  0  0  0  0  0  0
    7.3054    2.5348    0.0000 H   0  0  0  0  0  0  0  0  0  0  0  0
    9.2098   -0.0865    0.0000 H   0  0  0  0  0  0  0  0  0  0  0  0
    6.6465    1.0548    0.0000 H   0  0  0  0  0  0  0  0  0  0  0  0
    7.5987   -0.2558    0.0000 H   0  0  0  0  0  0  0  0  0  0  0  0
  1  5  2  0  0  0  0
  1  6  2  0  0  0  0
  1  8  1  0  0  0  0
  1 15  1  0  0  0  0
  2 20  1  0  0  0  0
  3 23  1  0  0  0  0
  4 14  1  0  0  0  0
  4 18  1  0  0  0  0
  7 11  1  0  0  0  0
  7 12  1  0  0  0  0
  7 13  1  0  0  0  0
  8  9  1  0  0  0  0
  8 42  1  0  0  0  0
  9 10  1  0  0  0  0
  9 11  1  0  0  0  0
  9 33  1  0  0  0  0
 10 12  1  0  0  0  0
 10 34  1  0  0  0  0
 10 35  1  0  0  0  0
 11 36  1  0  0  0  0
 11 37  1  0  0  0  0
 12 38  1  0  0  0  0
 12 39  1  0  0  0  0
 13 14  1  0  0  0  0
 13 40  1  0  0  0  0
 13 41  1  0  0  0  0
 14 43  1  0  0  0  0
 14 44  1  0  0  0  0
 15 16  2  0  0  0  0
 15 17  1  0  0  0  0
 16 20  1  0  0  0  0
 16 45  1  0  0  0  0
 17 21  2  0  0  0  0
 17 46  1  0  0  0  0
 18 19  1  0  0  0  0
 18 22  2  0  0  0  0
 19 24  1  0  0  0  0
 19 25  2  0  0  0  0
 20 23  2  0  0  0  0
 21 23  1  0  0  0  0
 21 47  1  0  0  0  0
 22 26  1  0  0  0  0
 22 48  1  0  0  0  0
 24 28  2  0  0  0  0
 24 29  1  0  0  0  0
 25 27  1  0  0  0  0
 25 49  1  0  0  0  0
 26 27  2  0  0  0  0
 26 50  1  0  0  0  0
 27 51  1  0  0  0  0
 28 30  1  0  0  0  0
 28 52  1  0  0  0  0
 29 31  2  0  0  0  0
 29 53  1  0  0  0  0
 30 32  2  0  0  0  0
 30 54  1  0  0  0  0
 31 32  1  0  0  0  0
 31 55  1  0  0  0  0
 32 56  1  0  0  0  0
M  END
> <PUBCHEM_COMPOUND_CID>
71449643

> <PUBCHEM_COMPOUND_CANONICALIZED>
1

> <PUBCHEM_CACTVS_COMPLEXITY>
683

> <PUBCHEM_CACTVS_HBOND_ACCEPTOR>
7

> <PUBCHEM_CACTVS_HBOND_DONOR>
1

> <PUBCHEM_CACTVS_ROTATABLE_BOND>
8

> <PUBCHEM_CACTVS_SUBSKEYS>
AAADceB7MYBAAAAAAAAAAAAAAAAAAWAAAAAwYMAAAAAAAAABUAAAHwQQQAAADCzh2A4wB4NABAKAAiBCAHBCCBAgIAAIiJgOCIgOZiKE8RqXOCCk0BGYqAeAwOAOgAAAAAAIAAAAAAAAABAAAAAAAAAAAA==

> <PUBCHEM_IUPAC_OPENEYE_NAME>
3,4-difluoro-N-[1-[2-(2-phenylphenoxy)ethyl]pyrrolidin-3-yl]benzenesulfonamide

> <PUBCHEM_IUPAC_CAS_NAME>
3,4-difluoro-N-[1-[2-(2-phenylphenoxy)ethyl]-3-pyrrolidinyl]benzenesulfonamide

> <PUBCHEM_IUPAC_NAME_MARKUP>
3,4-difluoro-<I>N</I>-[1-[2-(2-phenylphenoxy)ethyl]pyrrolidin-3-yl]benzenesulfonamide

> <PUBCHEM_IUPAC_NAME>
3,4-difluoro-N-[1-[2-(2-phenylphenoxy)ethyl]pyrrolidin-3-yl]benzenesulfonamide

> <PUBCHEM_IUPAC_SYSTEMATIC_NAME>
3,4-bis(fluoranyl)-N-[1-[2-(2-phenylphenoxy)ethyl]pyrrolidin-3-yl]benzenesulfonamide

> <PUBCHEM_IUPAC_TRADITIONAL_NAME>
3,4-difluoro-N-[1-[2-(2-phenylphenoxy)ethyl]pyrrolidin-3-yl]benzenesulfonamide

> <PUBCHEM_IUPAC_INCHI>
InChI=1S/C24H24F2N2O3S/c25-22-11-10-20(16-23(22)26)32(29,30)27-19-12-13-28(17-19)14-15-31-24-9-5-4-8-21(24)18-6-2-1-3-7-18/h1-11,16,19,27H,12-15,17H2

> <PUBCHEM_IUPAC_INCHIKEY>
AJRQMVCEFKRUBB-UHFFFAOYSA-N

> <PUBCHEM_XLOGP3_AA>
4.6

> <PUBCHEM_EXACT_MASS>
458.14757013

> <PUBCHEM_MOLECULAR_FORMULA>
C24H24F2N2O3S

> <PUBCHEM_MOLECULAR_WEIGHT>
458.5

> <PUBCHEM_OPENEYE_CAN_SMILES>
C1CN(CC1NS(=O)(=O)C2=CC(=C(C=C2)F)F)CCOC3=CC=CC=C3C4=CC=CC=C4

> <PUBCHEM_OPENEYE_ISO_SMILES>
C1CN(CC1NS(=O)(=O)C2=CC(=C(C=C2)F)F)CCOC3=CC=CC=C3C4=CC=CC=C4

> <PUBCHEM_CACTVS_TPSA>
67

> <PUBCHEM_MONOISOTOPIC_WEIGHT>
458.14757013

> <PUBCHEM_TOTAL_CHARGE>
0

> <PUBCHEM_HEAVY_ATOM_COUNT>
32

> <PUBCHEM_ATOM_DEF_STEREO_COUNT>
0

> <PUBCHEM_ATOM_UDEF_STEREO_COUNT>
1

> <PUBCHEM_BOND_DEF_STEREO_COUNT>
0

> <PUBCHEM_BOND_UDEF_STEREO_COUNT>
0

> <PUBCHEM_ISOTOPIC_ATOM_COUNT>
0

> <PUBCHEM_COMPONENT_COUNT>
1

> <PUBCHEM_CACTVS_TAUTO_COUNT>
-1

> <PUBCHEM_COORDINATE_TYPE>
1
5
255

> <PUBCHEM_BONDANNOTATIONS>
15  16  8
15  17  8
16  20  8
17  21  8
18  19  8
18  22  8
19  25  8
20  23  8
21  23  8
22  26  8
24  28  8
24  29  8
25  27  8
26  27  8
28  30  8
29  31  8
30  32  8
31  32  8
9  8  3

$$$$
