71449641
  -OEChem-09292322332D

 62 65  0     0  0  0  0  0  0999 V2000
    5.4641   -1.5000    0.0000 S   0  0  0  0  0  0  0  0  0  0  0  0
    2.0000   -3.5000    0.0000 F   0  0  0  0  0  0  0  0  0  0  0  0
   12.3923    0.5000    0.0000 O   0  0  0  0  0  0  0  0  0  0  0  0
    4.9641   -0.6340    0.0000 O   0  0  0  0  0  0  0  0  0  0  0  0
    5.9641   -2.3660    0.0000 O   0  0  0  0  0  0  0  0  0  0  0  0
    9.7942   -0.0000    0.0000 N   0  0  0  0  0  0  0  0  0  0  0  0
    6.3301   -1.0000    0.0000 N   0  0  0  0  0  0  0  0  0  0  0  0
    8.0622   -1.0000    0.0000 C   0  0  0  0  0  0  0  0  0  0  0  0
    8.0622   -0.0000    0.0000 C   0  0  0  0  0  0  0  0  0  0  0  0
    8.9282   -1.5000    0.0000 C   0  0  0  0  0  0  0  0  0  0  0  0
    8.9282    0.5000    0.0000 C   0  0  0  0  0  0  0  0  0  0  0  0
    9.7942   -1.0000    0.0000 C   0  0  0  0  0  0  0  0  0  0  0  0
    7.1962   -1.5000    0.0000 C   0  0  0  0  0  0  0  0  0  0  0  0
   10.6603    0.5000    0.0000 C   0  0  0  0  0  0  0  0  0  0  0  0
   11.5263   -0.0000    0.0000 C   0  0  0  0  0  0  0  0  0  0  0  0
    4.5981   -2.0000    0.0000 C   0  0  0  0  0  0  0  0  0  0  0  0
   13.2583   -0.0000    0.0000 C   0  0  0  0  0  0  0  0  0  0  0  0
    4.5981   -3.0000    0.0000 C   0  0  0  0  0  0  0  0  0  0  0  0
    3.7320   -1.5000    0.0000 C   0  0  0  0  0  0  0  0  0  0  0  0
   14.1244    0.5000    0.0000 C   0  0  0  0  0  0  0  0  0  0  0  0
   13.2583   -1.0000    0.0000 C   0  0  0  0  0  0  0  0  0  0  0  0
    3.7320   -3.5000    0.0000 C   0  0  0  0  0  0  0  0  0  0  0  0
    2.8660   -2.0000    0.0000 C   0  0  0  0  0  0  0  0  0  0  0  0
   14.1244    1.5000    0.0000 C   0  0  0  0  0  0  0  0  0  0  0  0
    2.8660   -3.0000    0.0000 C   0  0  0  0  0  0  0  0  0  0  0  0
   14.9904   -0.0000    0.0000 C   0  0  0  0  0  0  0  0  0  0  0  0
   14.1244   -1.5000    0.0000 C   0  0  0  0  0  0  0  0  0  0  0  0
   14.9904   -1.0000    0.0000 C   0  0  0  0  0  0  0  0  0  0  0  0
   13.2583    2.0000    0.0000 C   0  0  0  0  0  0  0  0  0  0  0  0
   14.9904    2.0000    0.0000 C   0  0  0  0  0  0  0  0  0  0  0  0
   13.2583    3.0000    0.0000 C   0  0  0  0  0  0  0  0  0  0  0  0
   14.9904    3.0000    0.0000 C   0  0  0  0  0  0  0  0  0  0  0  0
   14.1244    3.5000    0.0000 C   0  0  0  0  0  0  0  0  0  0  0  0
    8.0622   -1.6200    0.0000 H   0  0  0  0  0  0  0  0  0  0  0  0
    7.8501    0.5826    0.0000 H   0  0  0  0  0  0  0  0  0  0  0  0
    7.4516   -0.1077    0.0000 H   0  0  0  0  0  0  0  0  0  0  0  0
    8.5297   -1.9750    0.0000 H   0  0  0  0  0  0  0  0  0  0  0  0
    9.3267   -1.9750    0.0000 H   0  0  0  0  0  0  0  0  0  0  0  0
    9.3267    0.9749    0.0000 H   0  0  0  0  0  0  0  0  0  0  0  0
    8.5297    0.9749    0.0000 H   0  0  0  0  0  0  0  0  0  0  0  0
   10.0063   -1.5826    0.0000 H   0  0  0  0  0  0  0  0  0  0  0  0
   10.4048   -0.8923    0.0000 H   0  0  0  0  0  0  0  0  0  0  0  0
    6.7976   -1.9750    0.0000 H   0  0  0  0  0  0  0  0  0  0  0  0
    7.5947   -1.9750    0.0000 H   0  0  0  0  0  0  0  0  0  0  0  0
   11.0588    0.9749    0.0000 H   0  0  0  0  0  0  0  0  0  0  0  0
   10.2617    0.9749    0.0000 H   0  0  0  0  0  0  0  0  0  0  0  0
    6.3301   -0.3800    0.0000 H   0  0  0  0  0  0  0  0  0  0  0  0
   11.1278   -0.4749    0.0000 H   0  0  0  0  0  0  0  0  0  0  0  0
   11.9248   -0.4749    0.0000 H   0  0  0  0  0  0  0  0  0  0  0  0
    5.1350   -3.3100    0.0000 H   0  0  0  0  0  0  0  0  0  0  0  0
    3.7320   -0.8800    0.0000 H   0  0  0  0  0  0  0  0  0  0  0  0
   12.7214   -1.3100    0.0000 H   0  0  0  0  0  0  0  0  0  0  0  0
    3.7320   -4.1200    0.0000 H   0  0  0  0  0  0  0  0  0  0  0  0
    2.3291   -1.6900    0.0000 H   0  0  0  0  0  0  0  0  0  0  0  0
   15.5273    0.3100    0.0000 H   0  0  0  0  0  0  0  0  0  0  0  0
   14.1244   -2.1200    0.0000 H   0  0  0  0  0  0  0  0  0  0  0  0
   15.5273   -1.3100    0.0000 H   0  0  0  0  0  0  0  0  0  0  0  0
   12.7214    1.6900    0.0000 H   0  0  0  0  0  0  0  0  0  0  0  0
   15.5273    1.6900    0.0000 H   0  0  0  0  0  0  0  0  0  0  0  0
   12.7214    3.3100    0.0000 H   0  0  0  0  0  0  0  0  0  0  0  0
   15.5273    3.3100    0.0000 H   0  0  0  0  0  0  0  0  0  0  0  0
   14.1244    4.1200    0.0000 H   0  0  0  0  0  0  0  0  0  0  0  0
  1  4  2  0  0  0  0
  1  5  2  0  0  0  0
  1  7  1  0  0  0  0
  1 16  1  0  0  0  0
  2 25  1  0  0  0  0
  3 15  1  0  0  0  0
  3 17  1  0  0  0  0
  6 11  1  0  0  0  0
  6 12  1  0  0  0  0
  6 14  1  0  0  0  0
  7 13  1  0  0  0  0
  7 47  1  0  0  0  0
  8  9  1  0  0  0  0
  8 10  1  0  0  0  0
  8 13  1  0  0  0  0
  8 34  1  0  0  0  0
  9 11  1  0  0  0  0
  9 35  1  0  0  0  0
  9 36  1  0  0  0  0
 10 12  1  0  0  0  0
 10 37  1  0  0  0  0
 10 38  1  0  0  0  0
 11 39  1  0  0  0  0
 11 40  1  0  0  0  0
 12 41  1  0  0  0  0
 12 42  1  0  0  0  0
 13 43  1  0  0  0  0
 13 44  1  0  0  0  0
 14 15  1  0  0  0  0
 14 45  1  0  0  0  0
 14 46  1  0  0  0  0
 15 48  1  0  0  0  0
 15 49  1  0  0  0  0
 16 18  2  0  0  0  0
 16 19  1  0  0  0  0
 17 20  1  0  0  0  0
 17 21  2  0  0  0  0
 18 22  1  0  0  0  0
 18 50  1  0  0  0  0
 19 23  2  0  0  0  0
 19 51  1  0  0  0  0
 20 24  1  0  0  0  0
 20 26  2  0  0  0  0
 21 27  1  0  0  0  0
 21 52  1  0  0  0  0
 22 25  2  0  0  0  0
 22 53  1  0  0  0  0
 23 25  1  0  0  0  0
 23 54  1  0  0  0  0
 24 29  2  0  0  0  0
 24 30  1  0  0  0  0
 26 28  1  0  0  0  0
 26 55  1  0  0  0  0
 27 28  2  0  0  0  0
 27 56  1  0  0  0  0
 28 57  1  0  0  0  0
 29 31  1  0  0  0  0
 29 58  1  0  0  0  0
 30 32  2  0  0  0  0
 30 59  1  0  0  0  0
 31 33  2  0  0  0  0
 31 60  1  0  0  0  0
 32 33  1  0  0  0  0
 32 61  1  0  0  0  0
 33 62  1  0  0  0  0
M  END
> <PUBCHEM_COMPOUND_CID>
71449641

> <PUBCHEM_COMPOUND_CANONICALIZED>
1

> <PUBCHEM_CACTVS_COMPLEXITY>
664

> <PUBCHEM_CACTVS_HBOND_ACCEPTOR>
6

> <PUBCHEM_CACTVS_HBOND_DONOR>
1

> <PUBCHEM_CACTVS_ROTATABLE_BOND>
9

> <PUBCHEM_CACTVS_SUBSKEYS>
AAADceB7MQBAAAAAAAAAAAAAAAAAAAAAAAA8YMEAAAAAAAABUAAAHwQQQAAADQTh2A4wB4NABAKAAiBCAHBCCBAgIAAIiJgOCIgOJiKEsRqHOCCk0BGYqAeQwOAOgAAAAAAIAAAAAAAAABAAAAAAAAAAAA==

> <PUBCHEM_IUPAC_OPENEYE_NAME>
4-fluoro-N-[[1-[2-(2-phenylphenoxy)ethyl]-4-piperidyl]methyl]benzenesulfonamide

> <PUBCHEM_IUPAC_CAS_NAME>
4-fluoro-N-[[1-[2-(2-phenylphenoxy)ethyl]-4-piperidinyl]methyl]benzenesulfonamide

> <PUBCHEM_IUPAC_NAME_MARKUP>
4-fluoro-<I>N</I>-[[1-[2-(2-phenylphenoxy)ethyl]piperidin-4-yl]methyl]benzenesulfonamide

> <PUBCHEM_IUPAC_NAME>
4-fluoro-N-[[1-[2-(2-phenylphenoxy)ethyl]piperidin-4-yl]methyl]benzenesulfonamide

> <PUBCHEM_IUPAC_SYSTEMATIC_NAME>
4-fluoranyl-N-[[1-[2-(2-phenylphenoxy)ethyl]piperidin-4-yl]methyl]benzenesulfonamide

> <PUBCHEM_IUPAC_TRADITIONAL_NAME>
4-fluoro-N-[[1-[2-(2-phenylphenoxy)ethyl]-4-piperidyl]methyl]benzenesulfonamide

> <PUBCHEM_IUPAC_INCHI>
InChI=1S/C26H29FN2O3S/c27-23-10-12-24(13-11-23)33(30,31)28-20-21-14-16-29(17-15-21)18-19-32-26-9-5-4-8-25(26)22-6-2-1-3-7-22/h1-13,21,28H,14-20H2

> <PUBCHEM_IUPAC_INCHIKEY>
BQDBCWZXPYWQGM-UHFFFAOYSA-N

> <PUBCHEM_XLOGP3_AA>
5.1

> <PUBCHEM_EXACT_MASS>
468.18829213

> <PUBCHEM_MOLECULAR_FORMULA>
C26H29FN2O3S

> <PUBCHEM_MOLECULAR_WEIGHT>
468.6

> <PUBCHEM_OPENEYE_CAN_SMILES>
C1CN(CCC1CNS(=O)(=O)C2=CC=C(C=C2)F)CCOC3=CC=CC=C3C4=CC=CC=C4

> <PUBCHEM_OPENEYE_ISO_SMILES>
C1CN(CCC1CNS(=O)(=O)C2=CC=C(C=C2)F)CCOC3=CC=CC=C3C4=CC=CC=C4

> <PUBCHEM_CACTVS_TPSA>
67

> <PUBCHEM_MONOISOTOPIC_WEIGHT>
468.18829213

> <PUBCHEM_TOTAL_CHARGE>
0

> <PUBCHEM_HEAVY_ATOM_COUNT>
33

> <PUBCHEM_ATOM_DEF_STEREO_COUNT>
0

> <PUBCHEM_ATOM_UDEF_STEREO_COUNT>
0

> <PUBCHEM_BOND_DEF_STEREO_COUNT>
0

> <PUBCHEM_BOND_UDEF_STEREO_COUNT>
0

> <PUBCHEM_ISOTOPIC_ATOM_COUNT>
0

> <PUBCHEM_COMPONENT_COUNT>
1

> <PUBCHEM_CACTVS_TAUTO_COUNT>
-1

> <PUBCHEM_COORDINATE_TYPE>
1
5
255

> <PUBCHEM_BONDANNOTATIONS>
16  18  8
16  19  8
17  20  8
17  21  8
18  22  8
19  23  8
20  26  8
21  27  8
22  25  8
23  25  8
24  29  8
24  30  8
26  28  8
27  28  8
29  31  8
30  32  8
31  33  8
32  33  8

$$$$
