25212275
  -OEChem-09292322232D

 93 98  0     0  0  0  0  0  0999 V2000
   14.1244   -7.7327    0.0000 S   0  0  0  0  0  0  0  0  0  0  0  0
   18.5186   -5.2052    0.0000 F   0  0  0  0  0  0  0  0  0  0  0  0
   18.1578   -6.5726    0.0000 F   0  0  0  0  0  0  0  0  0  0  0  0
   17.1511   -4.8444    0.0000 F   0  0  0  0  0  0  0  0  0  0  0  0
    8.9282    0.2673    0.0000 O   0  0  0  0  0  0  0  0  0  0  0  0
    5.4641    3.2673    0.0000 O   0  0  0  0  0  0  0  0  0  0  0  0
    9.7942    1.7673    0.0000 O   0  0  0  0  0  0  0  0  0  0  0  0
   12.3923   -2.7327    0.0000 N   0  0  0  0  0  0  0  0  0  0  0  0
   10.6603   -1.7327    0.0000 N   0  0  0  0  0  0  0  0  0  0  0  0
    3.7320    6.2673    0.0000 N   0  0  0  0  0  0  0  0  0  0  0  0
   14.1244   -5.7327    0.0000 N   0  0  0  0  0  0  0  0  0  0  0  0
   11.5263   -3.2327    0.0000 C   0  0  0  0  0  0  0  0  0  0  0  0
   12.3923   -1.7327    0.0000 C   0  0  0  0  0  0  0  0  0  0  0  0
   10.6603   -2.7327    0.0000 C   0  0  0  0  0  0  0  0  0  0  0  0
   11.5263   -1.2327    0.0000 C   0  0  0  0  0  0  0  0  0  0  0  0
   13.2583   -3.2327    0.0000 C   0  0  0  0  0  0  0  0  0  0  0  0
    3.7320    7.2673    0.0000 C   0  0  0  0  0  0  0  0  0  0  0  0
    2.8660    5.7673    0.0000 C   0  0  0  0  0  0  0  0  0  0  0  0
   13.2583   -4.2327    0.0000 C   0  0  0  0  0  0  0  0  0  0  0  0
    2.8660    7.7673    0.0000 C   0  0  0  0  0  0  0  0  0  0  0  0
    2.0000    6.2673    0.0000 C   0  0  0  0  0  0  0  0  0  0  0  0
    2.0000    7.2673    0.0000 C   0  0  0  0  0  0  0  0  0  0  0  0
    9.7942   -1.2327    0.0000 C   0  0  0  0  0  0  0  0  0  0  0  0
    4.5981    5.7673    0.0000 C   0  0  0  0  0  0  0  0  0  0  0  0
   14.1244   -4.7327    0.0000 C   0  0  0  0  0  0  0  0  0  0  0  0
    9.7942   -0.2327    0.0000 C   0  0  0  0  0  0  0  0  0  0  0  0
    4.5981    4.7673    0.0000 C   0  0  0  0  0  0  0  0  0  0  0  0
   14.9904   -6.2327    0.0000 C   0  0  0  0  0  0  0  0  0  0  0  0
   13.2583   -6.2327    0.0000 C   0  0  0  0  0  0  0  0  0  0  0  0
    5.4641    4.2673    0.0000 C   0  0  0  0  0  0  0  0  0  0  0  0
   14.9904   -7.2327    0.0000 C   0  0  0  0  0  0  0  0  0  0  0  0
   13.2583   -7.2327    0.0000 C   0  0  0  0  0  0  0  0  0  0  0  0
   15.8843   -5.6980    0.0000 C   0  0  0  0  0  0  0  0  0  0  0  0
   12.3644   -5.6980    0.0000 C   0  0  0  0  0  0  0  0  0  0  0  0
   16.7904   -6.2118    0.0000 C   0  0  0  0  0  0  0  0  0  0  0  0
   15.8843   -7.7673    0.0000 C   0  0  0  0  0  0  0  0  0  0  0  0
   12.3644   -7.7673    0.0000 C   0  0  0  0  0  0  0  0  0  0  0  0
   16.7904   -7.2535    0.0000 C   0  0  0  0  0  0  0  0  0  0  0  0
    8.9282    1.2673    0.0000 C   0  0  0  0  0  0  0  0  0  0  0  0
   11.4583   -6.2118    0.0000 C   0  0  0  0  0  0  0  0  0  0  0  0
   11.4583   -7.2535    0.0000 C   0  0  0  0  0  0  0  0  0  0  0  0
    6.3301    2.7673    0.0000 C   0  0  0  0  0  0  0  0  0  0  0  0
    8.0622    1.7673    0.0000 C   0  0  0  0  0  0  0  0  0  0  0  0
   17.6545   -5.7085    0.0000 C   0  0  0  0  0  0  0  0  0  0  0  0
    6.3301    1.7673    0.0000 C   0  0  0  0  0  0  0  0  0  0  0  0
    7.1962    3.2673    0.0000 C   0  0  0  0  0  0  0  0  0  0  0  0
    7.1962    1.2673    0.0000 C   0  0  0  0  0  0  0  0  0  0  0  0
    8.0622    2.7673    0.0000 C   0  0  0  0  0  0  0  0  0  0  0  0
   11.1278   -3.7076    0.0000 H   0  0  0  0  0  0  0  0  0  0  0  0
   11.9248   -3.7076    0.0000 H   0  0  0  0  0  0  0  0  0  0  0  0
   13.0029   -1.8403    0.0000 H   0  0  0  0  0  0  0  0  0  0  0  0
   12.6044   -1.1501    0.0000 H   0  0  0  0  0  0  0  0  0  0  0  0
   10.0497   -2.6250    0.0000 H   0  0  0  0  0  0  0  0  0  0  0  0
   10.4482   -3.3153    0.0000 H   0  0  0  0  0  0  0  0  0  0  0  0
   11.9248   -0.7577    0.0000 H   0  0  0  0  0  0  0  0  0  0  0  0
   11.1278   -0.7577    0.0000 H   0  0  0  0  0  0  0  0  0  0  0  0
   13.8689   -3.3403    0.0000 H   0  0  0  0  0  0  0  0  0  0  0  0
   13.4704   -2.6501    0.0000 H   0  0  0  0  0  0  0  0  0  0  0  0
    4.3426    7.1597    0.0000 H   0  0  0  0  0  0  0  0  0  0  0  0
    3.9441    7.8499    0.0000 H   0  0  0  0  0  0  0  0  0  0  0  0
    2.4675    5.2924    0.0000 H   0  0  0  0  0  0  0  0  0  0  0  0
    3.2646    5.2924    0.0000 H   0  0  0  0  0  0  0  0  0  0  0  0
   12.6477   -4.1250    0.0000 H   0  0  0  0  0  0  0  0  0  0  0  0
   13.0463   -4.8153    0.0000 H   0  0  0  0  0  0  0  0  0  0  0  0
    3.2646    8.2423    0.0000 H   0  0  0  0  0  0  0  0  0  0  0  0
    2.4675    8.2423    0.0000 H   0  0  0  0  0  0  0  0  0  0  0  0
    1.3894    6.3750    0.0000 H   0  0  0  0  0  0  0  0  0  0  0  0
    1.7880    5.6847    0.0000 H   0  0  0  0  0  0  0  0  0  0  0  0
    1.7880    7.8499    0.0000 H   0  0  0  0  0  0  0  0  0  0  0  0
    1.3894    7.1597    0.0000 H   0  0  0  0  0  0  0  0  0  0  0  0
    9.1836   -1.1250    0.0000 H   0  0  0  0  0  0  0  0  0  0  0  0
    9.5822   -1.8153    0.0000 H   0  0  0  0  0  0  0  0  0  0  0  0
    5.2087    5.6597    0.0000 H   0  0  0  0  0  0  0  0  0  0  0  0
    4.8101    6.3499    0.0000 H   0  0  0  0  0  0  0  0  0  0  0  0
   14.7349   -4.8403    0.0000 H   0  0  0  0  0  0  0  0  0  0  0  0
   14.3364   -4.1501    0.0000 H   0  0  0  0  0  0  0  0  0  0  0  0
   10.4048   -0.3403    0.0000 H   0  0  0  0  0  0  0  0  0  0  0  0
   10.0063    0.3499    0.0000 H   0  0  0  0  0  0  0  0  0  0  0  0
    3.9875    4.8750    0.0000 H   0  0  0  0  0  0  0  0  0  0  0  0
    4.3860    4.1847    0.0000 H   0  0  0  0  0  0  0  0  0  0  0  0
    6.0747    4.1597    0.0000 H   0  0  0  0  0  0  0  0  0  0  0  0
    5.6762    4.8499    0.0000 H   0  0  0  0  0  0  0  0  0  0  0  0
   15.8772   -5.0780    0.0000 H   0  0  0  0  0  0  0  0  0  0  0  0
   12.3716   -5.0780    0.0000 H   0  0  0  0  0  0  0  0  0  0  0  0
   15.8772   -8.3873    0.0000 H   0  0  0  0  0  0  0  0  0  0  0  0
   12.3716   -8.3873    0.0000 H   0  0  0  0  0  0  0  0  0  0  0  0
   17.3261   -7.5656    0.0000 H   0  0  0  0  0  0  0  0  0  0  0  0
   10.9226   -5.8998    0.0000 H   0  0  0  0  0  0  0  0  0  0  0  0
   10.9226   -7.5656    0.0000 H   0  0  0  0  0  0  0  0  0  0  0  0
    5.7932    1.4573    0.0000 H   0  0  0  0  0  0  0  0  0  0  0  0
    7.1962    3.8873    0.0000 H   0  0  0  0  0  0  0  0  0  0  0  0
    7.1962    0.6473    0.0000 H   0  0  0  0  0  0  0  0  0  0  0  0
    8.5991    3.0773    0.0000 H   0  0  0  0  0  0  0  0  0  0  0  0
  1 31  1  0  0  0  0
  1 32  1  0  0  0  0
  2 44  1  0  0  0  0
  3 44  1  0  0  0  0
  4 44  1  0  0  0  0
  5 26  1  0  0  0  0
  5 39  1  0  0  0  0
  6 30  1  0  0  0  0
  6 42  1  0  0  0  0
  7 39  2  0  0  0  0
  8 12  1  0  0  0  0
  8 13  1  0  0  0  0
  8 16  1  0  0  0  0
  9 14  1  0  0  0  0
  9 15  1  0  0  0  0
  9 23  1  0  0  0  0
 10 17  1  0  0  0  0
 10 18  1  0  0  0  0
 10 24  1  0  0  0  0
 11 25  1  0  0  0  0
 11 28  1  0  0  0  0
 11 29  1  0  0  0  0
 12 14  1  0  0  0  0
 12 49  1  0  0  0  0
 12 50  1  0  0  0  0
 13 15  1  0  0  0  0
 13 51  1  0  0  0  0
 13 52  1  0  0  0  0
 14 53  1  0  0  0  0
 14 54  1  0  0  0  0
 15 55  1  0  0  0  0
 15 56  1  0  0  0  0
 16 19  1  0  0  0  0
 16 57  1  0  0  0  0
 16 58  1  0  0  0  0
 17 20  1  0  0  0  0
 17 59  1  0  0  0  0
 17 60  1  0  0  0  0
 18 21  1  0  0  0  0
 18 61  1  0  0  0  0
 18 62  1  0  0  0  0
 19 25  1  0  0  0  0
 19 63  1  0  0  0  0
 19 64  1  0  0  0  0
 20 22  1  0  0  0  0
 20 65  1  0  0  0  0
 20 66  1  0  0  0  0
 21 22  1  0  0  0  0
 21 67  1  0  0  0  0
 21 68  1  0  0  0  0
 22 69  1  0  0  0  0
 22 70  1  0  0  0  0
 23 26  1  0  0  0  0
 23 71  1  0  0  0  0
 23 72  1  0  0  0  0
 24 27  1  0  0  0  0
 24 73  1  0  0  0  0
 24 74  1  0  0  0  0
 25 75  1  0  0  0  0
 25 76  1  0  0  0  0
 26 77  1  0  0  0  0
 26 78  1  0  0  0  0
 27 30  1  0  0  0  0
 27 79  1  0  0  0  0
 27 80  1  0  0  0  0
 28 31  2  0  0  0  0
 28 33  1  0  0  0  0
 29 32  1  0  0  0  0
 29 34  2  0  0  0  0
 30 81  1  0  0  0  0
 30 82  1  0  0  0  0
 31 36  1  0  0  0  0
 32 37  2  0  0  0  0
 33 35  2  0  0  0  0
 33 83  1  0  0  0  0
 34 40  1  0  0  0  0
 34 84  1  0  0  0  0
 35 38  1  0  0  0  0
 35 44  1  0  0  0  0
 36 38  2  0  0  0  0
 36 85  1  0  0  0  0
 37 41  1  0  0  0  0
 37 86  1  0  0  0  0
 38 87  1  0  0  0  0
 39 43  1  0  0  0  0
 40 41  2  0  0  0  0
 40 88  1  0  0  0  0
 41 89  1  0  0  0  0
 42 45  2  0  0  0  0
 42 46  1  0  0  0  0
 43 47  2  0  0  0  0
 43 48  1  0  0  0  0
 45 47  1  0  0  0  0
 45 90  1  0  0  0  0
 46 48  2  0  0  0  0
 46 91  1  0  0  0  0
 47 92  1  0  0  0  0
 48 93  1  0  0  0  0
M  END
> <PUBCHEM_COMPOUND_CID>
25212275

> <PUBCHEM_COMPOUND_CANONICALIZED>
1

> <PUBCHEM_CACTVS_COMPLEXITY>
972

> <PUBCHEM_CACTVS_HBOND_ACCEPTOR>
11

> <PUBCHEM_CACTVS_HBOND_DONOR>
0

> <PUBCHEM_CACTVS_ROTATABLE_BOND>
14

> <PUBCHEM_CACTVS_SUBSKEYS>
AAADcfB/sYBAAAAAAAAAAAAAAAAAAAAAAAA8ePECAAAAAACxUAAAHwQAAAAADAzh2BYwz4MABAiIAiTSSACCCAAlKhAIiB0ObMgOZnLk9ZuXOSjmwBH46YeY7CzOMAAAQAAAAQBgAACAAAACAAAAAAAAAA==

> <PUBCHEM_IUPAC_OPENEYE_NAME>
2-[4-[3-[2-(trifluoromethyl)phenothiazin-10-yl]propyl]piperazin-1-yl]ethyl 4-[3-(1-piperidyl)propoxy]benzoate

> <PUBCHEM_IUPAC_CAS_NAME>
4-[3-(1-piperidinyl)propoxy]benzoic acid 2-[4-[3-[2-(trifluoromethyl)-10-phenothiazinyl]propyl]-1-piperazinyl]ethyl ester

> <PUBCHEM_IUPAC_NAME_MARKUP>
2-[4-[3-[2-(trifluoromethyl)phenothiazin-10-yl]propyl]piperazin-1-yl]ethyl 4-(3-piperidin-1-ylpropoxy)benzoate

> <PUBCHEM_IUPAC_NAME>
2-[4-[3-[2-(trifluoromethyl)phenothiazin-10-yl]propyl]piperazin-1-yl]ethyl 4-(3-piperidin-1-ylpropoxy)benzoate

> <PUBCHEM_IUPAC_SYSTEMATIC_NAME>
2-[4-[3-[2-(trifluoromethyl)phenothiazin-10-yl]propyl]piperazin-1-yl]ethyl 4-(3-piperidin-1-ylpropoxy)benzoate

> <PUBCHEM_IUPAC_TRADITIONAL_NAME>
4-(3-piperidinopropoxy)benzoic acid 2-[4-[3-[2-(trifluoromethyl)phenothiazin-10-yl]propyl]piperazino]ethyl ester

> <PUBCHEM_IUPAC_INCHI>
InChI=1S/C37H45F3N4O3S/c38-37(39,40)30-12-15-35-33(28-30)44(32-8-2-3-9-34(32)48-35)20-6-18-42-21-23-43(24-22-42)25-27-47-36(45)29-10-13-31(14-11-29)46-26-7-19-41-16-4-1-5-17-41/h2-3,8-15,28H,1,4-7,16-27H2

> <PUBCHEM_IUPAC_INCHIKEY>
OXJGPZFAZUEPIX-UHFFFAOYSA-N

> <PUBCHEM_XLOGP3>
7.8

> <PUBCHEM_EXACT_MASS>
682.31644697

> <PUBCHEM_MOLECULAR_FORMULA>
C37H45F3N4O3S

> <PUBCHEM_MOLECULAR_WEIGHT>
682.8

> <PUBCHEM_OPENEYE_CAN_SMILES>
C1CCN(CC1)CCCOC2=CC=C(C=C2)C(=O)OCCN3CCN(CC3)CCCN4C5=CC=CC=C5SC6=C4C=C(C=C6)C(F)(F)F

> <PUBCHEM_OPENEYE_ISO_SMILES>
C1CCN(CC1)CCCOC2=CC=C(C=C2)C(=O)OCCN3CCN(CC3)CCCN4C5=CC=CC=C5SC6=C4C=C(C=C6)C(F)(F)F

> <PUBCHEM_CACTVS_TPSA>
73.8

> <PUBCHEM_MONOISOTOPIC_WEIGHT>
682.31644697

> <PUBCHEM_TOTAL_CHARGE>
0

> <PUBCHEM_HEAVY_ATOM_COUNT>
48

> <PUBCHEM_ATOM_DEF_STEREO_COUNT>
0

> <PUBCHEM_ATOM_UDEF_STEREO_COUNT>
0

> <PUBCHEM_BOND_DEF_STEREO_COUNT>
0

> <PUBCHEM_BOND_UDEF_STEREO_COUNT>
0

> <PUBCHEM_ISOTOPIC_ATOM_COUNT>
0

> <PUBCHEM_COMPONENT_COUNT>
1

> <PUBCHEM_CACTVS_TAUTO_COUNT>
-1

> <PUBCHEM_COORDINATE_TYPE>
1
5
255

> <PUBCHEM_BONDANNOTATIONS>
28  31  8
28  33  8
29  32  8
29  34  8
31  36  8
32  37  8
33  35  8
34  40  8
35  38  8
36  38  8
37  41  8
40  41  8
42  45  8
42  46  8
43  47  8
43  48  8
45  47  8
46  48  8

$$$$
