11044146
  -OEChem-09292322112D

 39 40  0     0  0  0  0  0  0999 V2000
    2.8090   -2.8442    0.0000 S   0  0  0  0  0  0  0  0  0  0  0  0
    9.5341    0.1500    0.0000 S   0  0  0  0  0  0  0  0  0  0  0  0
    5.4791    0.2081    0.0000 N   0  0  0  0  0  0  0  0  0  0  0  0
    4.8913   -0.6009    0.0000 C   0  0  0  0  0  0  0  0  0  0  0  0
    6.4736    0.1036    0.0000 C   0  0  0  0  0  0  0  0  0  0  0  0
    5.0724    1.1217    0.0000 C   0  0  0  0  0  0  0  0  0  0  0  0
    3.8968   -0.4964    0.0000 C   0  0  0  0  0  0  0  0  0  0  0  0
    7.0614    0.9126    0.0000 C   0  0  0  0  0  0  0  0  0  0  0  0
    5.6602    1.9307    0.0000 C   0  0  0  0  0  0  0  0  0  0  0  0
    3.3090   -1.3054    0.0000 C   0  0  0  0  0  0  0  0  0  0  0  0
    8.0559    0.8081    0.0000 C   0  0  0  0  0  0  0  0  0  0  0  0
    5.2534    2.8442    0.0000 C   0  0  0  0  0  0  0  0  0  0  0  0
    2.3090   -1.3054    0.0000 C   0  0  0  0  0  0  0  0  0  0  0  0
    8.7251    1.5512    0.0000 C   0  0  0  0  0  0  0  0  0  0  0  0
    3.6180   -2.2564    0.0000 C   0  0  0  0  0  0  0  0  0  0  0  0
    8.5559   -0.0579    0.0000 C   0  0  0  0  0  0  0  0  0  0  0  0
    2.0000   -2.2564    0.0000 C   0  0  0  0  0  0  0  0  0  0  0  0
    9.6386    1.1445    0.0000 C   0  0  0  0  0  0  0  0  0  0  0  0
    4.7204   -1.1969    0.0000 H   0  0  0  0  0  0  0  0  0  0  0  0
    5.4486   -0.8727    0.0000 H   0  0  0  0  0  0  0  0  0  0  0  0
    6.3027   -0.4924    0.0000 H   0  0  0  0  0  0  0  0  0  0  0  0
    7.0309   -0.1682    0.0000 H   0  0  0  0  0  0  0  0  0  0  0  0
    4.6417    1.5677    0.0000 H   0  0  0  0  0  0  0  0  0  0  0  0
    4.5584    0.7750    0.0000 H   0  0  0  0  0  0  0  0  0  0  0  0
    4.0677    0.0996    0.0000 H   0  0  0  0  0  0  0  0  0  0  0  0
    3.3396   -0.2246    0.0000 H   0  0  0  0  0  0  0  0  0  0  0  0
    7.2323    1.5086    0.0000 H   0  0  0  0  0  0  0  0  0  0  0  0
    6.5042    1.1844    0.0000 H   0  0  0  0  0  0  0  0  0  0  0  0
    6.0908    1.4847    0.0000 H   0  0  0  0  0  0  0  0  0  0  0  0
    6.1742    2.2774    0.0000 H   0  0  0  0  0  0  0  0  0  0  0  0
    5.8198    3.0964    0.0000 H   0  0  0  0  0  0  0  0  0  0  0  0
    5.0012    3.4106    0.0000 H   0  0  0  0  0  0  0  0  0  0  0  0
    4.6870    2.5920    0.0000 H   0  0  0  0  0  0  0  0  0  0  0  0
    1.9446   -0.8038    0.0000 H   0  0  0  0  0  0  0  0  0  0  0  0
    8.5962    2.1577    0.0000 H   0  0  0  0  0  0  0  0  0  0  0  0
    4.2077   -2.4480    0.0000 H   0  0  0  0  0  0  0  0  0  0  0  0
    8.3038   -0.6243    0.0000 H   0  0  0  0  0  0  0  0  0  0  0  0
    1.4103   -2.4480    0.0000 H   0  0  0  0  0  0  0  0  0  0  0  0
   10.1756    1.4545    0.0000 H   0  0  0  0  0  0  0  0  0  0  0  0
  1 15  1  0  0  0  0
  1 17  1  0  0  0  0
  2 16  1  0  0  0  0
  2 18  1  0  0  0  0
  3  4  1  0  0  0  0
  3  5  1  0  0  0  0
  3  6  1  0  0  0  0
  4  7  1  0  0  0  0
  4 19  1  0  0  0  0
  4 20  1  0  0  0  0
  5  8  1  0  0  0  0
  5 21  1  0  0  0  0
  5 22  1  0  0  0  0
  6  9  1  0  0  0  0
  6 23  1  0  0  0  0
  6 24  1  0  0  0  0
  7 10  1  0  0  0  0
  7 25  1  0  0  0  0
  7 26  1  0  0  0  0
  8 11  1  0  0  0  0
  8 27  1  0  0  0  0
  8 28  1  0  0  0  0
  9 12  1  0  0  0  0
  9 29  1  0  0  0  0
  9 30  1  0  0  0  0
 10 13  1  0  0  0  0
 10 15  2  0  0  0  0
 11 14  1  0  0  0  0
 11 16  2  0  0  0  0
 12 31  1  0  0  0  0
 12 32  1  0  0  0  0
 12 33  1  0  0  0  0
 13 17  2  0  0  0  0
 13 34  1  0  0  0  0
 14 18  2  0  0  0  0
 14 35  1  0  0  0  0
 15 36  1  0  0  0  0
 16 37  1  0  0  0  0
 17 38  1  0  0  0  0
 18 39  1  0  0  0  0
M  END
> <PUBCHEM_COMPOUND_CID>
11044146

> <PUBCHEM_COMPOUND_CANONICALIZED>
1

> <PUBCHEM_CACTVS_COMPLEXITY>
203

> <PUBCHEM_CACTVS_HBOND_ACCEPTOR>
3

> <PUBCHEM_CACTVS_HBOND_DONOR>
0

> <PUBCHEM_CACTVS_ROTATABLE_BOND>
8

> <PUBCHEM_CACTVS_SUBSKEYS>
AAADceByAABgAAAAAAAAAAAAAAAAASJAAAAAAAAAAAAAAAAB4AAAHAQAAAAADADFWASyAYMAAAiEAiBCAAADAIAgCBBIiBgIAIgIIAIgkQGEAAAggACoCAIQAAAKAAAAAAAAAAAAAAAAAAAAAAAAAAAAAA==

> <PUBCHEM_IUPAC_OPENEYE_NAME>
N,N-bis[2-(3-thienyl)ethyl]propan-1-amine

> <PUBCHEM_IUPAC_CAS_NAME>
N,N-bis[2-(3-thiophenyl)ethyl]-1-propanamine

> <PUBCHEM_IUPAC_NAME_MARKUP>
<I>N</I>,<I>N</I>-bis(2-thiophen-3-ylethyl)propan-1-amine

> <PUBCHEM_IUPAC_NAME>
N,N-bis(2-thiophen-3-ylethyl)propan-1-amine

> <PUBCHEM_IUPAC_SYSTEMATIC_NAME>
N,N-bis(2-thiophen-3-ylethyl)propan-1-amine

> <PUBCHEM_IUPAC_TRADITIONAL_NAME>
propyl-bis[2-(3-thienyl)ethyl]amine

> <PUBCHEM_IUPAC_INCHI>
InChI=1S/C15H21NS2/c1-2-7-16(8-3-14-5-10-17-12-14)9-4-15-6-11-18-13-15/h5-6,10-13H,2-4,7-9H2,1H3

> <PUBCHEM_IUPAC_INCHIKEY>
KBDGMPYTNATHKA-UHFFFAOYSA-N

> <PUBCHEM_XLOGP3_AA>
4.4

> <PUBCHEM_EXACT_MASS>
279.11154202

> <PUBCHEM_MOLECULAR_FORMULA>
C15H21NS2

> <PUBCHEM_MOLECULAR_WEIGHT>
279.5

> <PUBCHEM_OPENEYE_CAN_SMILES>
CCCN(CCC1=CSC=C1)CCC2=CSC=C2

> <PUBCHEM_OPENEYE_ISO_SMILES>
CCCN(CCC1=CSC=C1)CCC2=CSC=C2

> <PUBCHEM_CACTVS_TPSA>
59.7

> <PUBCHEM_MONOISOTOPIC_WEIGHT>
279.11154202

> <PUBCHEM_TOTAL_CHARGE>
0

> <PUBCHEM_HEAVY_ATOM_COUNT>
18

> <PUBCHEM_ATOM_DEF_STEREO_COUNT>
0

> <PUBCHEM_ATOM_UDEF_STEREO_COUNT>
0

> <PUBCHEM_BOND_DEF_STEREO_COUNT>
0

> <PUBCHEM_BOND_UDEF_STEREO_COUNT>
0

> <PUBCHEM_ISOTOPIC_ATOM_COUNT>
0

> <PUBCHEM_COMPONENT_COUNT>
1

> <PUBCHEM_CACTVS_TAUTO_COUNT>
-1

> <PUBCHEM_COORDINATE_TYPE>
1
5
255

> <PUBCHEM_BONDANNOTATIONS>
1  15  8
1  17  8
10  13  8
10  15  8
11  14  8
11  16  8
13  17  8
14  18  8
2  16  8
2  18  8

$$$$
