146025727
  -OEChem-09292322412D

 41 45  0     0  0  0  0  0  0999 V2000
    4.4691    3.6296    0.0000 S   0  0  0  0  0  0  0  0  0  0  0  0
    6.8301   -0.6714    0.0000 F   0  0  0  0  0  0  0  0  0  0  0  0
    7.1962   -2.0374    0.0000 F   0  0  0  0  0  0  0  0  0  0  0  0
    5.8301   -2.4035    0.0000 F   0  0  0  0  0  0  0  0  0  0  0  0
    4.5981    1.4626    0.0000 O   0  0  0  0  0  0  0  0  0  0  0  0
    5.4641   -3.0374    0.0000 N   0  0  0  0  0  0  0  0  0  0  0  0
    6.4103   -4.3422    0.0000 N   0  0  0  0  0  0  0  0  0  0  0  0
    2.8660    1.4626    0.0000 N   0  0  0  0  0  0  0  0  0  0  0  0
    4.5981   -2.5374    0.0000 C   0  0  0  0  0  0  0  0  0  0  0  0
    4.5981   -1.5374    0.0000 C   0  0  0  0  0  0  0  0  0  0  0  0
    5.4641   -1.0374    0.0000 C   0  0  0  0  0  0  0  0  0  0  0  0
    5.4641   -4.0374    0.0000 C   0  0  0  0  0  0  0  0  0  0  0  0
    3.7320   -1.0374    0.0000 C   0  0  0  0  0  0  0  0  0  0  0  0
    3.7320   -3.0374    0.0000 C   0  0  0  0  0  0  0  0  0  0  0  0
    5.4641   -0.0374    0.0000 C   0  0  0  0  0  0  0  0  0  0  0  0
    4.5981    0.4626    0.0000 C   0  0  0  0  0  0  0  0  0  0  0  0
    3.7320   -0.0374    0.0000 C   0  0  0  0  0  0  0  0  0  0  0  0
    6.4103   -2.7327    0.0000 C   0  0  0  0  0  0  0  0  0  0  0  0
    4.5981   -4.5374    0.0000 C   0  0  0  0  0  0  0  0  0  0  0  0
    6.3301   -1.5374    0.0000 C   0  0  0  0  0  0  0  0  0  0  0  0
    3.7320   -4.0374    0.0000 C   0  0  0  0  0  0  0  0  0  0  0  0
    6.9939   -3.5374    0.0000 C   0  0  0  0  0  0  0  0  0  0  0  0
    3.7320    2.9626    0.0000 C   0  0  0  0  0  0  0  0  0  0  0  0
    3.7320    1.9626    0.0000 C   0  0  0  0  0  0  0  0  0  0  0  0
    2.8660    3.4626    0.0000 C   0  0  0  0  0  0  0  0  0  0  0  0
    3.0752    4.4344    0.0000 C   0  0  0  0  0  0  0  0  0  0  0  0
    2.0000    2.9626    0.0000 C   0  0  0  0  0  0  0  0  0  0  0  0
    4.0640    4.5374    0.0000 C   0  0  0  0  0  0  0  0  0  0  0  0
    2.0000    1.9626    0.0000 C   0  0  0  0  0  0  0  0  0  0  0  0
    3.1951   -1.3474    0.0000 H   0  0  0  0  0  0  0  0  0  0  0  0
    3.1951   -2.7274    0.0000 H   0  0  0  0  0  0  0  0  0  0  0  0
    6.0010    0.2726    0.0000 H   0  0  0  0  0  0  0  0  0  0  0  0
    3.1951    0.2726    0.0000 H   0  0  0  0  0  0  0  0  0  0  0  0
    6.6029   -2.1434    0.0000 H   0  0  0  0  0  0  0  0  0  0  0  0
    4.5981   -5.1574    0.0000 H   0  0  0  0  0  0  0  0  0  0  0  0
    3.1951   -4.3474    0.0000 H   0  0  0  0  0  0  0  0  0  0  0  0
    7.6139   -3.5374    0.0000 H   0  0  0  0  0  0  0  0  0  0  0  0
    2.6612    4.8958    0.0000 H   0  0  0  0  0  0  0  0  0  0  0  0
    1.4631    3.2726    0.0000 H   0  0  0  0  0  0  0  0  0  0  0  0
    4.3740    5.0744    0.0000 H   0  0  0  0  0  0  0  0  0  0  0  0
    1.4631    1.6526    0.0000 H   0  0  0  0  0  0  0  0  0  0  0  0
  1 23  1  0  0  0  0
  1 28  1  0  0  0  0
  2 20  1  0  0  0  0
  3 20  1  0  0  0  0
  4 20  1  0  0  0  0
  5 16  1  0  0  0  0
  5 24  1  0  0  0  0
  6  9  1  0  0  0  0
  6 12  1  0  0  0  0
  6 18  1  0  0  0  0
  7 12  2  0  0  0  0
  7 22  1  0  0  0  0
  8 24  2  0  0  0  0
  8 29  1  0  0  0  0
  9 10  1  0  0  0  0
  9 14  2  0  0  0  0
 10 11  2  0  0  0  0
 10 13  1  0  0  0  0
 11 15  1  0  0  0  0
 11 20  1  0  0  0  0
 12 19  1  0  0  0  0
 13 17  2  0  0  0  0
 13 30  1  0  0  0  0
 14 21  1  0  0  0  0
 14 31  1  0  0  0  0
 15 16  2  0  0  0  0
 15 32  1  0  0  0  0
 16 17  1  0  0  0  0
 17 33  1  0  0  0  0
 18 22  2  0  0  0  0
 18 34  1  0  0  0  0
 19 21  2  0  0  0  0
 19 35  1  0  0  0  0
 21 36  1  0  0  0  0
 22 37  1  0  0  0  0
 23 24  1  0  0  0  0
 23 25  2  0  0  0  0
 25 26  1  0  0  0  0
 25 27  1  0  0  0  0
 26 28  2  0  0  0  0
 26 38  1  0  0  0  0
 27 29  2  0  0  0  0
 27 39  1  0  0  0  0
 28 40  1  0  0  0  0
 29 41  1  0  0  0  0
M  END
> <PUBCHEM_COMPOUND_CID>
146025727

> <PUBCHEM_COMPOUND_CANONICALIZED>
1

> <PUBCHEM_CACTVS_COMPLEXITY>
580

> <PUBCHEM_CACTVS_HBOND_ACCEPTOR>
7

> <PUBCHEM_CACTVS_HBOND_DONOR>
0

> <PUBCHEM_CACTVS_ROTATABLE_BOND>
3

> <PUBCHEM_CACTVS_SUBSKEYS>
AAADccB7IYBAAAAAAAAAAAAAAAAAAWJAAAA8WIAAAAAAAFgB/gAAHwQAAAAADAzF3xS9t98MHAikAzZnZACDqK0xOrBJ2D4+fJiMbuLkuZueOCjswBPo6CeQ0PMOoAABAAAQAABAAAIAACAAAAAAAAAAAA==

> <PUBCHEM_IUPAC_OPENEYE_NAME>
7-[4-imidazo[1,2-a]pyridin-5-yl-3-(trifluoromethyl)phenoxy]thieno[2,3-c]pyridine

> <PUBCHEM_IUPAC_CAS_NAME>
7-[4-(5-imidazo[1,2-a]pyridinyl)-3-(trifluoromethyl)phenoxy]thieno[2,3-c]pyridine

> <PUBCHEM_IUPAC_NAME_MARKUP>
7-[4-imidazo[1,2-a]pyridin-5-yl-3-(trifluoromethyl)phenoxy]thieno[2,3-c]pyridine

> <PUBCHEM_IUPAC_NAME>
7-[4-imidazo[1,2-a]pyridin-5-yl-3-(trifluoromethyl)phenoxy]thieno[2,3-c]pyridine

> <PUBCHEM_IUPAC_SYSTEMATIC_NAME>
7-[4-imidazo[1,2-a]pyridin-5-yl-3-(trifluoromethyl)phenoxy]thieno[2,3-c]pyridine

> <PUBCHEM_IUPAC_TRADITIONAL_NAME>
7-[4-imidazo[1,2-a]pyridin-5-yl-3-(trifluoromethyl)phenoxy]thieno[2,3-c]pyridine

> <PUBCHEM_IUPAC_INCHI>
InChI=1S/C21H12F3N3OS/c22-21(23,24)16-12-14(28-20-19-13(6-8-26-20)7-11-29-19)4-5-15(16)17-2-1-3-18-25-9-10-27(17)18/h1-12H

> <PUBCHEM_IUPAC_INCHIKEY>
BWXKKFQODXKNLQ-UHFFFAOYSA-N

> <PUBCHEM_XLOGP3_AA>
6.1

> <PUBCHEM_EXACT_MASS>
411.06531767

> <PUBCHEM_MOLECULAR_FORMULA>
C21H12F3N3OS

> <PUBCHEM_MOLECULAR_WEIGHT>
411.4

> <PUBCHEM_OPENEYE_CAN_SMILES>
C1=CC2=NC=CN2C(=C1)C3=C(C=C(C=C3)OC4=NC=CC5=C4SC=C5)C(F)(F)F

> <PUBCHEM_OPENEYE_ISO_SMILES>
C1=CC2=NC=CN2C(=C1)C3=C(C=C(C=C3)OC4=NC=CC5=C4SC=C5)C(F)(F)F

> <PUBCHEM_CACTVS_TPSA>
67.7

> <PUBCHEM_MONOISOTOPIC_WEIGHT>
411.06531767

> <PUBCHEM_TOTAL_CHARGE>
0

> <PUBCHEM_HEAVY_ATOM_COUNT>
29

> <PUBCHEM_ATOM_DEF_STEREO_COUNT>
0

> <PUBCHEM_ATOM_UDEF_STEREO_COUNT>
0

> <PUBCHEM_BOND_DEF_STEREO_COUNT>
0

> <PUBCHEM_BOND_UDEF_STEREO_COUNT>
0

> <PUBCHEM_ISOTOPIC_ATOM_COUNT>
0

> <PUBCHEM_COMPONENT_COUNT>
1

> <PUBCHEM_CACTVS_TAUTO_COUNT>
-1

> <PUBCHEM_COORDINATE_TYPE>
1
5
255

> <PUBCHEM_BONDANNOTATIONS>
1  23  8
1  28  8
10  11  8
10  13  8
11  15  8
12  19  8
13  17  8
14  21  8
15  16  8
16  17  8
18  22  8
19  21  8
23  24  8
23  25  8
25  26  8
25  27  8
26  28  8
27  29  8
6  12  8
6  18  8
6  9  8
7  12  8
7  22  8
8  24  8
8  29  8
9  14  8

$$$$
