138671063
  -OEChem-09292322452D

 72 77  0     1  0  0  0  0  0999 V2000
    6.2960   -4.2522    0.0000 O   0  0  0  0  0  0  0  0  0  0  0  0
    3.6979    1.2478    0.0000 N   0  0  3  0  0  0  0  0  0  0  0  0
    4.5640   -4.2522    0.0000 N   0  0  0  0  0  0  0  0  0  0  0  0
    2.5000    4.3227    0.0000 N   0  0  0  0  0  0  0  0  0  0  0  0
    2.0949    3.4149    0.0000 N   0  0  0  0  0  0  0  0  0  0  0  0
    7.1900   -7.7868    0.0000 N   0  0  0  0  0  0  0  0  0  0  0  0
    4.5640   -1.2522    0.0000 C   0  0  0  0  0  0  0  0  0  0  0  0
    5.4300   -1.7522    0.0000 C   0  0  0  0  0  0  0  0  0  0  0  0
    3.6979   -1.7522    0.0000 C   0  0  0  0  0  0  0  0  0  0  0  0
    4.5640   -3.2522    0.0000 C   0  0  0  0  0  0  0  0  0  0  0  0
    5.4300   -2.7522    0.0000 C   0  0  0  0  0  0  0  0  0  0  0  0
    3.6979   -2.7522    0.0000 C   0  0  0  0  0  0  0  0  0  0  0  0
    4.5640   -0.2522    0.0000 C   0  0  0  0  0  0  0  0  0  0  0  0
    3.6979    0.2478    0.0000 C   0  0  0  0  0  0  0  0  0  0  0  0
    4.5640    1.7478    0.0000 C   0  0  0  0  0  0  0  0  0  0  0  0
    2.8319    1.7478    0.0000 C   0  0  0  0  0  0  0  0  0  0  0  0
    4.5640    2.7478    0.0000 C   0  0  0  0  0  0  0  0  0  0  0  0
    2.8319    2.7478    0.0000 C   0  0  0  0  0  0  0  0  0  0  0  0
    3.6979    3.2478    0.0000 C   0  0  0  0  0  0  0  0  0  0  0  0
    5.4300   -4.7522    0.0000 C   0  0  0  0  0  0  0  0  0  0  0  0
    3.4887    4.2197    0.0000 C   0  0  0  0  0  0  0  0  0  0  0  0
    5.4300   -5.7522    0.0000 C   0  0  0  0  0  0  0  0  0  0  0  0
    2.0000    5.1887    0.0000 C   0  0  0  0  0  0  0  0  0  0  0  0
    6.2960   -6.2522    0.0000 C   0  0  0  0  0  0  0  0  0  0  0  0
    4.5640   -6.2522    0.0000 C   0  0  0  0  0  0  0  0  0  0  0  0
    2.5000    6.0548    0.0000 C   0  0  0  0  0  0  0  0  0  0  0  0
    6.2960   -7.2522    0.0000 C   0  0  0  0  0  0  0  0  0  0  0  0
    4.5640   -7.2522    0.0000 C   0  0  0  0  0  0  0  0  0  0  0  0
    7.1900   -5.7175    0.0000 C   0  0  0  0  0  0  0  0  0  0  0  0
    5.4300   -7.7522    0.0000 C   0  0  0  0  0  0  0  0  0  0  0  0
    3.5000    6.0548    0.0000 C   0  0  0  0  0  0  0  0  0  0  0  0
    2.0000    6.9208    0.0000 C   0  0  0  0  0  0  0  0  0  0  0  0
    8.0960   -6.2313    0.0000 C   0  0  0  0  0  0  0  0  0  0  0  0
    4.0000    6.9208    0.0000 C   0  0  0  0  0  0  0  0  0  0  0  0
    2.5000    7.7868    0.0000 C   0  0  0  0  0  0  0  0  0  0  0  0
    8.0960   -7.2730    0.0000 C   0  0  0  0  0  0  0  0  0  0  0  0
    3.5000    7.7868    0.0000 C   0  0  0  0  0  0  0  0  0  0  0  0
    4.0270   -0.9422    0.0000 H   0  0  0  0  0  0  0  0  0  0  0  0
    6.0406   -1.8598    0.0000 H   0  0  0  0  0  0  0  0  0  0  0  0
    5.6420   -1.1696    0.0000 H   0  0  0  0  0  0  0  0  0  0  0  0
    3.4859   -1.1696    0.0000 H   0  0  0  0  0  0  0  0  0  0  0  0
    3.0873   -1.8598    0.0000 H   0  0  0  0  0  0  0  0  0  0  0  0
    4.0270   -3.5622    0.0000 H   0  0  0  0  0  0  0  0  0  0  0  0
    5.6420   -3.3348    0.0000 H   0  0  0  0  0  0  0  0  0  0  0  0
    6.0406   -2.6445    0.0000 H   0  0  0  0  0  0  0  0  0  0  0  0
    3.0873   -2.6445    0.0000 H   0  0  0  0  0  0  0  0  0  0  0  0
    3.4859   -3.3348    0.0000 H   0  0  0  0  0  0  0  0  0  0  0  0
    5.1745   -0.3598    0.0000 H   0  0  0  0  0  0  0  0  0  0  0  0
    4.7760    0.3305    0.0000 H   0  0  0  0  0  0  0  0  0  0  0  0
    3.0873    0.3555    0.0000 H   0  0  0  0  0  0  0  0  0  0  0  0
    3.4859   -0.3348    0.0000 H   0  0  0  0  0  0  0  0  0  0  0  0
    4.0270   -4.5622    0.0000 H   0  0  0  0  0  0  0  0  0  0  0  0
    4.7760    1.1652    0.0000 H   0  0  0  0  0  0  0  0  0  0  0  0
    5.1745    1.8555    0.0000 H   0  0  0  0  0  0  0  0  0  0  0  0
    2.2213    1.8555    0.0000 H   0  0  0  0  0  0  0  0  0  0  0  0
    2.6198    1.1652    0.0000 H   0  0  0  0  0  0  0  0  0  0  0  0
    5.1745    2.6402    0.0000 H   0  0  0  0  0  0  0  0  0  0  0  0
    4.7760    3.3304    0.0000 H   0  0  0  0  0  0  0  0  0  0  0  0
    3.9028    4.6811    0.0000 H   0  0  0  0  0  0  0  0  0  0  0  0
    1.5250    5.5873    0.0000 H   0  0  0  0  0  0  0  0  0  0  0  0
    1.5250    4.7902    0.0000 H   0  0  0  0  0  0  0  0  0  0  0  0
    4.0270   -5.9422    0.0000 H   0  0  0  0  0  0  0  0  0  0  0  0
    4.0270   -7.5622    0.0000 H   0  0  0  0  0  0  0  0  0  0  0  0
    7.1828   -5.0975    0.0000 H   0  0  0  0  0  0  0  0  0  0  0  0
    5.4300   -8.3722    0.0000 H   0  0  0  0  0  0  0  0  0  0  0  0
    3.8100    5.5178    0.0000 H   0  0  0  0  0  0  0  0  0  0  0  0
    1.3800    6.9208    0.0000 H   0  0  0  0  0  0  0  0  0  0  0  0
    8.6318   -5.9193    0.0000 H   0  0  0  0  0  0  0  0  0  0  0  0
    4.6200    6.9208    0.0000 H   0  0  0  0  0  0  0  0  0  0  0  0
    2.1900    8.3238    0.0000 H   0  0  0  0  0  0  0  0  0  0  0  0
    8.6318   -7.5850    0.0000 H   0  0  0  0  0  0  0  0  0  0  0  0
    3.8100    8.3238    0.0000 H   0  0  0  0  0  0  0  0  0  0  0  0
  1 20  2  0  0  0  0
  2 14  1  0  0  0  0
  2 15  1  0  0  0  0
  2 16  1  0  0  0  0
  3 10  1  0  0  0  0
  3 20  1  0  0  0  0
  3 52  1  0  0  0  0
  4  5  1  0  0  0  0
  4 21  1  0  0  0  0
  4 23  1  0  0  0  0
  5 18  2  0  0  0  0
  6 27  1  0  0  0  0
  6 36  2  0  0  0  0
  7  8  1  0  0  0  0
  7  9  1  0  0  0  0
  7 13  1  0  0  0  0
  7 38  1  0  0  0  0
  8 11  1  0  0  0  0
  8 39  1  0  0  0  0
  8 40  1  0  0  0  0
  9 12  1  0  0  0  0
  9 41  1  0  0  0  0
  9 42  1  0  0  0  0
 10 11  1  0  0  0  0
 10 12  1  0  0  0  0
 10 43  1  0  0  0  0
 11 44  1  0  0  0  0
 11 45  1  0  0  0  0
 12 46  1  0  0  0  0
 12 47  1  0  0  0  0
 13 14  1  0  0  0  0
 13 48  1  0  0  0  0
 13 49  1  0  0  0  0
 14 50  1  0  0  0  0
 14 51  1  0  0  0  0
 15 17  1  0  0  0  0
 15 53  1  0  0  0  0
 15 54  1  0  0  0  0
 16 18  1  0  0  0  0
 16 55  1  0  0  0  0
 16 56  1  0  0  0  0
 17 19  1  0  0  0  0
 17 57  1  0  0  0  0
 17 58  1  0  0  0  0
 18 19  1  0  0  0  0
 19 21  2  0  0  0  0
 20 22  1  0  0  0  0
 21 59  1  0  0  0  0
 22 24  2  0  0  0  0
 22 25  1  0  0  0  0
 23 26  1  0  0  0  0
 23 60  1  0  0  0  0
 23 61  1  0  0  0  0
 24 27  1  0  0  0  0
 24 29  1  0  0  0  0
 25 28  2  0  0  0  0
 25 62  1  0  0  0  0
 26 31  2  0  0  0  0
 26 32  1  0  0  0  0
 27 30  2  0  0  0  0
 28 30  1  0  0  0  0
 28 63  1  0  0  0  0
 29 33  2  0  0  0  0
 29 64  1  0  0  0  0
 30 65  1  0  0  0  0
 31 34  1  0  0  0  0
 31 66  1  0  0  0  0
 32 35  2  0  0  0  0
 32 67  1  0  0  0  0
 33 36  1  0  0  0  0
 33 68  1  0  0  0  0
 34 37  2  0  0  0  0
 34 69  1  0  0  0  0
 35 37  1  0  0  0  0
 35 70  1  0  0  0  0
 36 71  1  0  0  0  0
 37 72  1  0  0  0  0
M  END
> <PUBCHEM_COMPOUND_CID>
138671063

> <PUBCHEM_COMPOUND_CANONICALIZED>
1

> <PUBCHEM_CACTVS_COMPLEXITY>
733

> <PUBCHEM_CACTVS_HBOND_ACCEPTOR>
4

> <PUBCHEM_CACTVS_HBOND_DONOR>
1

> <PUBCHEM_CACTVS_ROTATABLE_BOND>
7

> <PUBCHEM_CACTVS_SUBSKEYS>
AAADcfB7oAAAAAAAAAAAAAAAAAAAAWAAAAA8eMECAAAAAFix/AAAHgAYAAAADSjBngQ8wPPIEACqAzV3VACShCA1giAY2KE4ZNgIYPLA1dGUpQhgngDIyYcciICOgAAAQAASAAAQAACAACQAAAAAAAAAAA==

> <PUBCHEM_IUPAC_OPENEYE_NAME>
N-[4-[2-(2-benzyl-5,7-dihydro-4H-pyrazolo[3,4-c]pyridin-6-yl)ethyl]cyclohexyl]quinoline-5-carboxamide

> <PUBCHEM_IUPAC_CAS_NAME>
N-[4-[2-[2-(phenylmethyl)-5,7-dihydro-4H-pyrazolo[3,4-c]pyridin-6-yl]ethyl]cyclohexyl]-5-quinolinecarboxamide

> <PUBCHEM_IUPAC_NAME_MARKUP>
<I>N</I>-[4-[2-(2-benzyl-5,7-dihydro-4<I>H</I>-pyrazolo[3,4-c]pyridin-6-yl)ethyl]cyclohexyl]quinoline-5-carboxamide

> <PUBCHEM_IUPAC_NAME>
N-[4-[2-(2-benzyl-5,7-dihydro-4H-pyrazolo[3,4-c]pyridin-6-yl)ethyl]cyclohexyl]quinoline-5-carboxamide

> <PUBCHEM_IUPAC_SYSTEMATIC_NAME>
N-[4-[2-[2-(phenylmethyl)-5,7-dihydro-4H-pyrazolo[3,4-c]pyridin-6-yl]ethyl]cyclohexyl]quinoline-5-carboxamide

> <PUBCHEM_IUPAC_TRADITIONAL_NAME>
N-[4-[2-(2-benzyl-5,7-dihydro-4H-pyrazolo[3,4-c]pyridin-6-yl)ethyl]cyclohexyl]quinoline-5-carboxamide

> <PUBCHEM_IUPAC_INCHI>
InChI=1S/C31H35N5O/c37-31(28-8-4-10-29-27(28)9-5-17-32-29)33-26-13-11-23(12-14-26)15-18-35-19-16-25-21-36(34-30(25)22-35)20-24-6-2-1-3-7-24/h1-10,17,21,23,26H,11-16,18-20,22H2,(H,33,37)

> <PUBCHEM_IUPAC_INCHIKEY>
PUVINHDPRXBNSI-UHFFFAOYSA-N

> <PUBCHEM_XLOGP3_AA>
4.9

> <PUBCHEM_EXACT_MASS>
493.28416076

> <PUBCHEM_MOLECULAR_FORMULA>
C31H35N5O

> <PUBCHEM_MOLECULAR_WEIGHT>
493.6

> <PUBCHEM_OPENEYE_CAN_SMILES>
C1CC(CCC1CCN2CCC3=CN(N=C3C2)CC4=CC=CC=C4)NC(=O)C5=C6C=CC=NC6=CC=C5

> <PUBCHEM_OPENEYE_ISO_SMILES>
C1CC(CCC1CCN2CCC3=CN(N=C3C2)CC4=CC=CC=C4)NC(=O)C5=C6C=CC=NC6=CC=C5

> <PUBCHEM_CACTVS_TPSA>
63

> <PUBCHEM_MONOISOTOPIC_WEIGHT>
493.28416076

> <PUBCHEM_TOTAL_CHARGE>
0

> <PUBCHEM_HEAVY_ATOM_COUNT>
37

> <PUBCHEM_ATOM_DEF_STEREO_COUNT>
0

> <PUBCHEM_ATOM_UDEF_STEREO_COUNT>
0

> <PUBCHEM_BOND_DEF_STEREO_COUNT>
0

> <PUBCHEM_BOND_UDEF_STEREO_COUNT>
0

> <PUBCHEM_ISOTOPIC_ATOM_COUNT>
0

> <PUBCHEM_COMPONENT_COUNT>
1

> <PUBCHEM_CACTVS_TAUTO_COUNT>
-1

> <PUBCHEM_COORDINATE_TYPE>
1
5
255

> <PUBCHEM_BONDANNOTATIONS>
18  19  8
19  21  8
22  24  8
22  25  8
24  27  8
24  29  8
25  28  8
26  31  8
26  32  8
27  30  8
28  30  8
29  33  8
31  34  8
32  35  8
33  36  8
34  37  8
35  37  8
4  21  8
4  5  8
5  18  8
6  27  8
6  36  8

$$$$
