49781890
  -OEChem-09292322312D

 55 59  0     1  0  0  0  0  0999 V2000
    8.0439   -2.0268    0.0000 S   0  0  0  0  0  0  0  0  0  0  0  0
    7.1100    1.0648    0.0000 N   0  0  0  0  0  0  0  0  0  0  0  0
    6.2422    2.8667    0.0000 N   0  0  0  0  0  0  0  0  0  0  0  0
    3.5863   -2.3704    0.0000 N   0  0  0  0  0  0  0  0  0  0  0  0
    2.4904   -1.1801    0.0000 N   0  0  0  0  0  0  0  0  0  0  0  0
    2.6773   -2.7873    0.0000 N   0  0  0  0  0  0  0  0  0  0  0  0
    2.0000   -2.0516    0.0000 N   0  0  0  0  0  0  0  0  0  0  0  0
    7.5439    0.1638    0.0000 C   0  0  3  0  0  0  0  0  0  0  0  0
    6.1128    1.1395    0.0000 C   0  0  0  0  0  0  0  0  0  0  0  0
    7.6733    1.8910    0.0000 C   0  0  0  0  0  0  0  0  0  0  0  0
    5.6789    2.0405    0.0000 C   0  0  0  0  0  0  0  0  0  0  0  0
    7.2394    2.7920    0.0000 C   0  0  0  0  0  0  0  0  0  0  0  0
    8.5439    0.1638    0.0000 C   0  0  0  0  0  0  0  0  0  0  0  0
    6.9204   -0.6180    0.0000 C   0  0  0  0  0  0  0  0  0  0  0  0
    9.1674   -0.6180    0.0000 C   0  0  0  0  0  0  0  0  0  0  0  0
    7.1429   -1.5930    0.0000 C   0  0  0  0  0  0  0  0  0  0  0  0
    5.9299   -0.2957    0.0000 C   0  0  0  0  0  0  0  0  0  0  0  0
    5.8084    3.7677    0.0000 C   0  0  0  0  0  0  0  0  0  0  0  0
    8.9448   -1.5930    0.0000 C   0  0  0  0  0  0  0  0  0  0  0  0
    5.1608   -0.9983    0.0000 C   0  0  0  0  0  0  0  0  0  0  0  0
    6.3903   -2.3131    0.0000 C   0  0  0  0  0  0  0  0  0  0  0  0
   10.1579   -0.2957    0.0000 C   0  0  0  0  0  0  0  0  0  0  0  0
    5.3926   -2.0138    0.0000 C   0  0  0  0  0  0  0  0  0  0  0  0
    9.6974   -2.3131    0.0000 C   0  0  0  0  0  0  0  0  0  0  0  0
    4.2064   -0.6998    0.0000 C   0  0  0  0  0  0  0  0  0  0  0  0
   10.9269   -0.9983    0.0000 C   0  0  0  0  0  0  0  0  0  0  0  0
   10.6951   -2.0138    0.0000 C   0  0  0  0  0  0  0  0  0  0  0  0
    3.4708   -1.3772    0.0000 C   0  0  0  0  0  0  0  0  0  0  0  0
    2.4803   -3.7677    0.0000 C   0  0  0  0  0  0  0  0  0  0  0  0
    7.8737    0.6888    0.0000 H   0  0  0  0  0  0  0  0  0  0  0  0
    5.5160    0.9716    0.0000 H   0  0  0  0  0  0  0  0  0  0  0  0
    6.1745    0.5226    0.0000 H   0  0  0  0  0  0  0  0  0  0  0  0
    8.1172    1.4581    0.0000 H   0  0  0  0  0  0  0  0  0  0  0  0
    8.1767    2.2529    0.0000 H   0  0  0  0  0  0  0  0  0  0  0  0
    5.2351    2.4734    0.0000 H   0  0  0  0  0  0  0  0  0  0  0  0
    5.1755    1.6786    0.0000 H   0  0  0  0  0  0  0  0  0  0  0  0
    7.8363    2.9599    0.0000 H   0  0  0  0  0  0  0  0  0  0  0  0
    7.1777    3.4089    0.0000 H   0  0  0  0  0  0  0  0  0  0  0  0
    9.1025    0.4328    0.0000 H   0  0  0  0  0  0  0  0  0  0  0  0
    8.4059    0.7683    0.0000 H   0  0  0  0  0  0  0  0  0  0  0  0
    5.7989    0.3103    0.0000 H   0  0  0  0  0  0  0  0  0  0  0  0
    6.3670    4.0367    0.0000 H   0  0  0  0  0  0  0  0  0  0  0  0
    5.5394    4.3263    0.0000 H   0  0  0  0  0  0  0  0  0  0  0  0
    5.2498    3.4987    0.0000 H   0  0  0  0  0  0  0  0  0  0  0  0
    6.5353   -2.9159    0.0000 H   0  0  0  0  0  0  0  0  0  0  0  0
   10.2888    0.3103    0.0000 H   0  0  0  0  0  0  0  0  0  0  0  0
    4.9398   -2.4372    0.0000 H   0  0  0  0  0  0  0  0  0  0  0  0
    9.5524   -2.9160    0.0000 H   0  0  0  0  0  0  0  0  0  0  0  0
    4.4914   -0.1492    0.0000 H   0  0  0  0  0  0  0  0  0  0  0  0
    3.7136   -0.3235    0.0000 H   0  0  0  0  0  0  0  0  0  0  0  0
   11.5186   -0.8133    0.0000 H   0  0  0  0  0  0  0  0  0  0  0  0
   11.1479   -2.4373    0.0000 H   0  0  0  0  0  0  0  0  0  0  0  0
    1.8724   -3.6455    0.0000 H   0  0  0  0  0  0  0  0  0  0  0  0
    2.3581   -4.3755    0.0000 H   0  0  0  0  0  0  0  0  0  0  0  0
    3.0881   -3.8899    0.0000 H   0  0  0  0  0  0  0  0  0  0  0  0
  1 16  1  0  0  0  0
  1 19  1  0  0  0  0
  2  8  1  0  0  0  0
  2  9  1  0  0  0  0
  2 10  1  0  0  0  0
  3 11  1  0  0  0  0
  3 12  1  0  0  0  0
  3 18  1  0  0  0  0
  4  6  1  0  0  0  0
  4 28  2  0  0  0  0
  5  7  2  0  0  0  0
  5 28  1  0  0  0  0
  6  7  1  0  0  0  0
  6 29  1  0  0  0  0
  8 13  1  0  0  0  0
  8 14  1  0  0  0  0
  8 30  1  0  0  0  0
  9 11  1  0  0  0  0
  9 31  1  0  0  0  0
  9 32  1  0  0  0  0
 10 12  1  0  0  0  0
 10 33  1  0  0  0  0
 10 34  1  0  0  0  0
 11 35  1  0  0  0  0
 11 36  1  0  0  0  0
 12 37  1  0  0  0  0
 12 38  1  0  0  0  0
 13 15  1  0  0  0  0
 13 39  1  0  0  0  0
 13 40  1  0  0  0  0
 14 16  2  0  0  0  0
 14 17  1  0  0  0  0
 15 19  1  0  0  0  0
 15 22  2  0  0  0  0
 16 21  1  0  0  0  0
 17 20  2  0  0  0  0
 17 41  1  0  0  0  0
 18 42  1  0  0  0  0
 18 43  1  0  0  0  0
 18 44  1  0  0  0  0
 19 24  2  0  0  0  0
 20 23  1  0  0  0  0
 20 25  1  0  0  0  0
 21 23  2  0  0  0  0
 21 45  1  0  0  0  0
 22 26  1  0  0  0  0
 22 46  1  0  0  0  0
 23 47  1  0  0  0  0
 24 27  1  0  0  0  0
 24 48  1  0  0  0  0
 25 28  1  0  0  0  0
 25 49  1  0  0  0  0
 25 50  1  0  0  0  0
 26 27  2  0  0  0  0
 26 51  1  0  0  0  0
 27 52  1  0  0  0  0
 29 53  1  0  0  0  0
 29 54  1  0  0  0  0
 29 55  1  0  0  0  0
M  END
> <PUBCHEM_COMPOUND_CID>
49781890

> <PUBCHEM_COMPOUND_CANONICALIZED>
1

> <PUBCHEM_CACTVS_COMPLEXITY>
541

> <PUBCHEM_CACTVS_HBOND_ACCEPTOR>
6

> <PUBCHEM_CACTVS_HBOND_DONOR>
0

> <PUBCHEM_CACTVS_ROTATABLE_BOND>
3

> <PUBCHEM_CACTVS_SUBSKEYS>
AAADceB7gABAAAAAAAAAAAAAAAAAAWAAAAA8YIAABIAAAAAB0AAAHAQIAAAADCjBWwQzEYcAAAiiAiJiIACSAAIgiBAciBg4BIgIYCKgkRGUIAhgiACoiAcQgMAOEAACAAAEAAAgAAQAAAgAAAAAAAAAAA==

> <PUBCHEM_IUPAC_OPENEYE_NAME>
1-methyl-4-[3-[(2-methyltetrazol-5-yl)methyl]-5,6-dihydrobenzo[b][1]benzothiepin-5-yl]piperazine

> <PUBCHEM_IUPAC_CAS_NAME>
1-methyl-4-[3-[(2-methyl-5-tetrazolyl)methyl]-5,6-dihydrobenzo[b][1]benzothiepin-5-yl]piperazine

> <PUBCHEM_IUPAC_NAME_MARKUP>
1-methyl-4-[3-[(2-methyltetrazol-5-yl)methyl]-5,6-dihydrobenzo[b][1]benzothiepin-5-yl]piperazine

> <PUBCHEM_IUPAC_NAME>
1-methyl-4-[3-[(2-methyltetrazol-5-yl)methyl]-5,6-dihydrobenzo[b][1]benzothiepin-5-yl]piperazine

> <PUBCHEM_IUPAC_SYSTEMATIC_NAME>
1-methyl-4-[3-[(2-methyl-1,2,3,4-tetrazol-5-yl)methyl]-5,6-dihydrobenzo[b][1]benzothiepin-5-yl]piperazine

> <PUBCHEM_IUPAC_TRADITIONAL_NAME>
1-methyl-4-[3-[(2-methyltetrazol-5-yl)methyl]-5,6-dihydrobenzo[b][1]benzothiepin-5-yl]piperazine

> <PUBCHEM_IUPAC_INCHI>
InChI=1S/C22H26N6S/c1-26-9-11-28(12-10-26)19-15-17-5-3-4-6-20(17)29-21-8-7-16(13-18(19)21)14-22-23-25-27(2)24-22/h3-8,13,19H,9-12,14-15H2,1-2H3

> <PUBCHEM_IUPAC_INCHIKEY>
HMSQOZVGOAWQNS-UHFFFAOYSA-N

> <PUBCHEM_XLOGP3_AA>
3.9

> <PUBCHEM_EXACT_MASS>
406.19396603

> <PUBCHEM_MOLECULAR_FORMULA>
C22H26N6S

> <PUBCHEM_MOLECULAR_WEIGHT>
406.5

> <PUBCHEM_OPENEYE_CAN_SMILES>
CN1CCN(CC1)C2CC3=CC=CC=C3SC4=C2C=C(C=C4)CC5=NN(N=N5)C

> <PUBCHEM_OPENEYE_ISO_SMILES>
CN1CCN(CC1)C2CC3=CC=CC=C3SC4=C2C=C(C=C4)CC5=NN(N=N5)C

> <PUBCHEM_CACTVS_TPSA>
75.4

> <PUBCHEM_MONOISOTOPIC_WEIGHT>
406.19396603

> <PUBCHEM_TOTAL_CHARGE>
0

> <PUBCHEM_HEAVY_ATOM_COUNT>
29

> <PUBCHEM_ATOM_DEF_STEREO_COUNT>
0

> <PUBCHEM_ATOM_UDEF_STEREO_COUNT>
1

> <PUBCHEM_BOND_DEF_STEREO_COUNT>
0

> <PUBCHEM_BOND_UDEF_STEREO_COUNT>
0

> <PUBCHEM_ISOTOPIC_ATOM_COUNT>
0

> <PUBCHEM_COMPONENT_COUNT>
1

> <PUBCHEM_CACTVS_TAUTO_COUNT>
-1

> <PUBCHEM_COORDINATE_TYPE>
1
5
255

> <PUBCHEM_BONDANNOTATIONS>
14  16  8
14  17  8
15  19  8
15  22  8
16  21  8
17  20  8
19  24  8
8  2  3
20  23  8
21  23  8
22  26  8
24  27  8
26  27  8
4  28  8
4  6  8
5  28  8
5  7  8
6  7  8

$$$$
