10466922
  -OEChem-09292322122D

 40 41  0     1  0  0  0  0  0999 V2000
    8.0622   -0.5000    0.0000 N   0  0  3  0  0  0  0  0  0  0  0  0
    2.0000    2.0000    0.0000 N   0  0  0  0  0  0  0  0  0  0  0  0
    7.1962    1.0000    0.0000 C   0  0  1  0  0  0  0  0  0  0  0  0
    7.1962    0.0000    0.0000 C   0  0  0  0  0  0  0  0  0  0  0  0
    8.0622    1.5000    0.0000 C   0  0  0  0  0  0  0  0  0  0  0  0
    8.9282    1.0000    0.0000 C   0  0  0  0  0  0  0  0  0  0  0  0
    8.9282    0.0000    0.0000 C   0  0  0  0  0  0  0  0  0  0  0  0
    6.3301    1.5000    0.0000 C   0  0  0  0  0  0  0  0  0  0  0  0
    8.0622   -1.5000    0.0000 C   0  0  0  0  0  0  0  0  0  0  0  0
    8.9282   -2.0000    0.0000 C   0  0  0  0  0  0  0  0  0  0  0  0
    5.4641    1.0000    0.0000 C   0  0  0  0  0  0  0  0  0  0  0  0
    6.3301    2.5000    0.0000 C   0  0  0  0  0  0  0  0  0  0  0  0
    4.5981    1.5000    0.0000 C   0  0  0  0  0  0  0  0  0  0  0  0
    8.9282   -3.0000    0.0000 C   0  0  0  0  0  0  0  0  0  0  0  0
    5.4641    3.0000    0.0000 C   0  0  0  0  0  0  0  0  0  0  0  0
    4.5981    2.5000    0.0000 C   0  0  0  0  0  0  0  0  0  0  0  0
    3.7320    1.0000    0.0000 C   0  0  0  0  0  0  0  0  0  0  0  0
    2.8660    1.5000    0.0000 C   0  0  0  0  0  0  0  0  0  0  0  0
    6.6592    0.6900    0.0000 H   0  0  0  0  0  0  0  0  0  0  0  0
    6.5856    0.1077    0.0000 H   0  0  0  0  0  0  0  0  0  0  0  0
    6.9841   -0.5826    0.0000 H   0  0  0  0  0  0  0  0  0  0  0  0
    8.4607    1.9750    0.0000 H   0  0  0  0  0  0  0  0  0  0  0  0
    7.6636    1.9750    0.0000 H   0  0  0  0  0  0  0  0  0  0  0  0
    9.5388    0.8923    0.0000 H   0  0  0  0  0  0  0  0  0  0  0  0
    9.1403    1.5826    0.0000 H   0  0  0  0  0  0  0  0  0  0  0  0
    9.1403   -0.5826    0.0000 H   0  0  0  0  0  0  0  0  0  0  0  0
    9.5388    0.1077    0.0000 H   0  0  0  0  0  0  0  0  0  0  0  0
    7.4516   -1.3923    0.0000 H   0  0  0  0  0  0  0  0  0  0  0  0
    7.8501   -2.0826    0.0000 H   0  0  0  0  0  0  0  0  0  0  0  0
    9.5388   -2.1077    0.0000 H   0  0  0  0  0  0  0  0  0  0  0  0
    9.1403   -1.4174    0.0000 H   0  0  0  0  0  0  0  0  0  0  0  0
    5.4641    0.3800    0.0000 H   0  0  0  0  0  0  0  0  0  0  0  0
    6.8671    2.8100    0.0000 H   0  0  0  0  0  0  0  0  0  0  0  0
    8.3082   -3.0000    0.0000 H   0  0  0  0  0  0  0  0  0  0  0  0
    8.9282   -3.6200    0.0000 H   0  0  0  0  0  0  0  0  0  0  0  0
    9.5482   -3.0000    0.0000 H   0  0  0  0  0  0  0  0  0  0  0  0
    5.4641    3.6200    0.0000 H   0  0  0  0  0  0  0  0  0  0  0  0
    4.0611    2.8100    0.0000 H   0  0  0  0  0  0  0  0  0  0  0  0
    3.3335    0.5251    0.0000 H   0  0  0  0  0  0  0  0  0  0  0  0
    4.1306    0.5251    0.0000 H   0  0  0  0  0  0  0  0  0  0  0  0
  1  4  1  0  0  0  0
  1  7  1  0  0  0  0
  1  9  1  0  0  0  0
  2 18  3  0  0  0  0
  3  4  1  0  0  0  0
  3  5  1  0  0  0  0
  3  8  1  6  0  0  0
  3 19  1  0  0  0  0
  4 20  1  0  0  0  0
  4 21  1  0  0  0  0
  5  6  1  0  0  0  0
  5 22  1  0  0  0  0
  5 23  1  0  0  0  0
  6  7  1  0  0  0  0
  6 24  1  0  0  0  0
  6 25  1  0  0  0  0
  7 26  1  0  0  0  0
  7 27  1  0  0  0  0
  8 11  1  0  0  0  0
  8 12  2  0  0  0  0
  9 10  1  0  0  0  0
  9 28  1  0  0  0  0
  9 29  1  0  0  0  0
 10 14  1  0  0  0  0
 10 30  1  0  0  0  0
 10 31  1  0  0  0  0
 11 13  2  0  0  0  0
 11 32  1  0  0  0  0
 12 15  1  0  0  0  0
 12 33  1  0  0  0  0
 13 16  1  0  0  0  0
 13 17  1  0  0  0  0
 14 34  1  0  0  0  0
 14 35  1  0  0  0  0
 14 36  1  0  0  0  0
 15 16  2  0  0  0  0
 15 37  1  0  0  0  0
 16 38  1  0  0  0  0
 17 18  1  0  0  0  0
 17 39  1  0  0  0  0
 17 40  1  0  0  0  0
M  END
> <PUBCHEM_COMPOUND_CID>
10466922

> <PUBCHEM_COMPOUND_CANONICALIZED>
1

> <PUBCHEM_CACTVS_COMPLEXITY>
291

> <PUBCHEM_CACTVS_HBOND_ACCEPTOR>
2

> <PUBCHEM_CACTVS_HBOND_DONOR>
0

> <PUBCHEM_CACTVS_ROTATABLE_BOND>
4

> <PUBCHEM_CACTVS_SUBSKEYS>
AAADceB7AAAAAAAAAAAAAAAAAAAAAAAAAAA8QAAAAAAAAAABAAAAHAAAAAAADQDBGAQyAIMAAACQBiBCAAACAAAgAAAIiAAIAIgIoCKAkRGEIAAggACIiA8QgMAOgAACAAAAAAAAAAQAAAAAAAAAAAAAAA==

> <PUBCHEM_IUPAC_OPENEYE_NAME>
2-[3-[(3S)-1-propyl-3-piperidyl]phenyl]acetonitrile

> <PUBCHEM_IUPAC_CAS_NAME>
2-[3-[(3S)-1-propyl-3-piperidinyl]phenyl]acetonitrile

> <PUBCHEM_IUPAC_NAME_MARKUP>
2-[3-[(3<I>S</I>)-1-propylpiperidin-3-yl]phenyl]acetonitrile

> <PUBCHEM_IUPAC_NAME>
2-[3-[(3S)-1-propylpiperidin-3-yl]phenyl]acetonitrile

> <PUBCHEM_IUPAC_SYSTEMATIC_NAME>
2-[3-[(3S)-1-propylpiperidin-3-yl]phenyl]ethanenitrile

> <PUBCHEM_IUPAC_TRADITIONAL_NAME>
2-[3-[(3S)-1-propyl-3-piperidyl]phenyl]acetonitrile

> <PUBCHEM_IUPAC_INCHI>
InChI=1S/C16H22N2/c1-2-10-18-11-4-7-16(13-18)15-6-3-5-14(12-15)8-9-17/h3,5-6,12,16H,2,4,7-8,10-11,13H2,1H3/t16-/m1/s1

> <PUBCHEM_IUPAC_INCHIKEY>
RURTXDUFVIOALE-MRXNPFEDSA-N

> <PUBCHEM_XLOGP3_AA>
3

> <PUBCHEM_EXACT_MASS>
242.178298710

> <PUBCHEM_MOLECULAR_FORMULA>
C16H22N2

> <PUBCHEM_MOLECULAR_WEIGHT>
242.36

> <PUBCHEM_OPENEYE_CAN_SMILES>
CCCN1CCCC(C1)C2=CC=CC(=C2)CC#N

> <PUBCHEM_OPENEYE_ISO_SMILES>
CCCN1CCC[C@H](C1)C2=CC=CC(=C2)CC#N

> <PUBCHEM_CACTVS_TPSA>
27

> <PUBCHEM_MONOISOTOPIC_WEIGHT>
242.178298710

> <PUBCHEM_TOTAL_CHARGE>
0

> <PUBCHEM_HEAVY_ATOM_COUNT>
18

> <PUBCHEM_ATOM_DEF_STEREO_COUNT>
1

> <PUBCHEM_ATOM_UDEF_STEREO_COUNT>
0

> <PUBCHEM_BOND_DEF_STEREO_COUNT>
0

> <PUBCHEM_BOND_UDEF_STEREO_COUNT>
0

> <PUBCHEM_ISOTOPIC_ATOM_COUNT>
0

> <PUBCHEM_COMPONENT_COUNT>
1

> <PUBCHEM_CACTVS_TAUTO_COUNT>
-1

> <PUBCHEM_COORDINATE_TYPE>
1
5
255

> <PUBCHEM_BONDANNOTATIONS>
11  13  8
12  15  8
13  16  8
15  16  8
3  8  6
8  11  8
8  12  8

$$$$
