44436725
  -OEChem-09292322252D

 71 75  0     1  0  0  0  0  0999 V2000
    2.0000    1.7327    0.0000 Cl  0  0  0  0  0  0  0  0  0  0  0  0
   13.2583    0.2327    0.0000 O   0  0  0  0  0  0  0  0  0  0  0  0
    6.3301    0.2327    0.0000 N   0  0  0  0  0  0  0  0  0  0  0  0
    8.0622    1.2327    0.0000 N   0  0  0  0  0  0  0  0  0  0  0  0
   12.3923    1.7327    0.0000 N   0  0  0  0  0  0  0  0  0  0  0  0
    7.1962   -0.2673    0.0000 C   0  0  0  0  0  0  0  0  0  0  0  0
    6.3301    1.2327    0.0000 C   0  0  0  0  0  0  0  0  0  0  0  0
    8.0622    0.2327    0.0000 C   0  0  0  0  0  0  0  0  0  0  0  0
    7.1962    1.7327    0.0000 C   0  0  0  0  0  0  0  0  0  0  0  0
    5.4641   -0.2673    0.0000 C   0  0  3  0  0  0  0  0  0  0  0  0
    8.9282    1.7327    0.0000 C   0  0  0  0  0  0  0  0  0  0  0  0
    9.7942    1.2327    0.0000 C   0  0  0  0  0  0  0  0  0  0  0  0
    4.5981    0.2327    0.0000 C   0  0  0  0  0  0  0  0  0  0  0  0
    5.4641   -1.2673    0.0000 C   0  0  0  0  0  0  0  0  0  0  0  0
   10.6603    1.7327    0.0000 C   0  0  0  0  0  0  0  0  0  0  0  0
    3.7320   -0.2673    0.0000 C   0  0  0  0  0  0  0  0  0  0  0  0
    4.5981    1.2327    0.0000 C   0  0  0  0  0  0  0  0  0  0  0  0
    6.3301   -1.7673    0.0000 C   0  0  0  0  0  0  0  0  0  0  0  0
    4.5981   -1.7673    0.0000 C   0  0  0  0  0  0  0  0  0  0  0  0
   11.5263    1.2327    0.0000 C   0  0  0  0  0  0  0  0  0  0  0  0
    2.8660    0.2327    0.0000 C   0  0  0  0  0  0  0  0  0  0  0  0
    3.7320    1.7327    0.0000 C   0  0  0  0  0  0  0  0  0  0  0  0
    6.3301   -2.7673    0.0000 C   0  0  0  0  0  0  0  0  0  0  0  0
    4.5981   -2.7673    0.0000 C   0  0  0  0  0  0  0  0  0  0  0  0
    2.8660    1.2327    0.0000 C   0  0  0  0  0  0  0  0  0  0  0  0
    5.4641   -3.2673    0.0000 C   0  0  0  0  0  0  0  0  0  0  0  0
   13.2583    1.2327    0.0000 C   0  0  0  0  0  0  0  0  0  0  0  0
   14.1244    1.7327    0.0000 C   0  0  0  0  0  0  0  0  0  0  0  0
   14.9904    1.2327    0.0000 C   0  0  0  0  0  0  0  0  0  0  0  0
   14.1244    2.7327    0.0000 C   0  0  0  0  0  0  0  0  0  0  0  0
   15.8564    1.7327    0.0000 C   0  0  0  0  0  0  0  0  0  0  0  0
   15.8564    2.7327    0.0000 C   0  0  0  0  0  0  0  0  0  0  0  0
   14.9904    3.2327    0.0000 C   0  0  0  0  0  0  0  0  0  0  0  0
   16.7503    1.1980    0.0000 C   0  0  0  0  0  0  0  0  0  0  0  0
   16.7503    3.2673    0.0000 C   0  0  0  0  0  0  0  0  0  0  0  0
   17.6564    1.7118    0.0000 C   0  0  0  0  0  0  0  0  0  0  0  0
   17.6564    2.7535    0.0000 C   0  0  0  0  0  0  0  0  0  0  0  0
    6.7976   -0.7423    0.0000 H   0  0  0  0  0  0  0  0  0  0  0  0
    7.5947   -0.7423    0.0000 H   0  0  0  0  0  0  0  0  0  0  0  0
    6.1181    1.8153    0.0000 H   0  0  0  0  0  0  0  0  0  0  0  0
    5.7196    1.1250    0.0000 H   0  0  0  0  0  0  0  0  0  0  0  0
    8.2742   -0.3499    0.0000 H   0  0  0  0  0  0  0  0  0  0  0  0
    8.6728    0.3403    0.0000 H   0  0  0  0  0  0  0  0  0  0  0  0
    7.5947    2.2076    0.0000 H   0  0  0  0  0  0  0  0  0  0  0  0
    6.7976    2.2076    0.0000 H   0  0  0  0  0  0  0  0  0  0  0  0
    5.4641    0.3527    0.0000 H   0  0  0  0  0  0  0  0  0  0  0  0
    9.3267    2.2076    0.0000 H   0  0  0  0  0  0  0  0  0  0  0  0
    8.5297    2.2076    0.0000 H   0  0  0  0  0  0  0  0  0  0  0  0
    9.3957    0.7577    0.0000 H   0  0  0  0  0  0  0  0  0  0  0  0
   10.1928    0.7577    0.0000 H   0  0  0  0  0  0  0  0  0  0  0  0
   11.0588    2.2076    0.0000 H   0  0  0  0  0  0  0  0  0  0  0  0
   10.2617    2.2076    0.0000 H   0  0  0  0  0  0  0  0  0  0  0  0
    3.7320   -0.8873    0.0000 H   0  0  0  0  0  0  0  0  0  0  0  0
    5.1350    1.5427    0.0000 H   0  0  0  0  0  0  0  0  0  0  0  0
    6.8671   -1.4573    0.0000 H   0  0  0  0  0  0  0  0  0  0  0  0
    4.0611   -1.4573    0.0000 H   0  0  0  0  0  0  0  0  0  0  0  0
   11.1278    0.7577    0.0000 H   0  0  0  0  0  0  0  0  0  0  0  0
   11.9248    0.7577    0.0000 H   0  0  0  0  0  0  0  0  0  0  0  0
    2.3291   -0.0773    0.0000 H   0  0  0  0  0  0  0  0  0  0  0  0
    3.7320    2.3527    0.0000 H   0  0  0  0  0  0  0  0  0  0  0  0
    6.8671   -3.0773    0.0000 H   0  0  0  0  0  0  0  0  0  0  0  0
    4.0611   -3.0773    0.0000 H   0  0  0  0  0  0  0  0  0  0  0  0
   12.3923    2.3527    0.0000 H   0  0  0  0  0  0  0  0  0  0  0  0
    5.4641   -3.8873    0.0000 H   0  0  0  0  0  0  0  0  0  0  0  0
   14.9904    0.6127    0.0000 H   0  0  0  0  0  0  0  0  0  0  0  0
   13.5874    3.0427    0.0000 H   0  0  0  0  0  0  0  0  0  0  0  0
   14.9904    3.8527    0.0000 H   0  0  0  0  0  0  0  0  0  0  0  0
   16.7432    0.5780    0.0000 H   0  0  0  0  0  0  0  0  0  0  0  0
   16.7432    3.8873    0.0000 H   0  0  0  0  0  0  0  0  0  0  0  0
   18.1922    1.3998    0.0000 H   0  0  0  0  0  0  0  0  0  0  0  0
   18.1922    3.0656    0.0000 H   0  0  0  0  0  0  0  0  0  0  0  0
  1 25  1  0  0  0  0
  2 27  2  0  0  0  0
  3  6  1  0  0  0  0
  3  7  1  0  0  0  0
  3 10  1  0  0  0  0
  4  8  1  0  0  0  0
  4  9  1  0  0  0  0
  4 11  1  0  0  0  0
  5 20  1  0  0  0  0
  5 27  1  0  0  0  0
  5 63  1  0  0  0  0
  6  8  1  0  0  0  0
  6 38  1  0  0  0  0
  6 39  1  0  0  0  0
  7  9  1  0  0  0  0
  7 40  1  0  0  0  0
  7 41  1  0  0  0  0
  8 42  1  0  0  0  0
  8 43  1  0  0  0  0
  9 44  1  0  0  0  0
  9 45  1  0  0  0  0
 10 13  1  0  0  0  0
 10 14  1  0  0  0  0
 10 46  1  0  0  0  0
 11 12  1  0  0  0  0
 11 47  1  0  0  0  0
 11 48  1  0  0  0  0
 12 15  1  0  0  0  0
 12 49  1  0  0  0  0
 12 50  1  0  0  0  0
 13 16  2  0  0  0  0
 13 17  1  0  0  0  0
 14 18  2  0  0  0  0
 14 19  1  0  0  0  0
 15 20  1  0  0  0  0
 15 51  1  0  0  0  0
 15 52  1  0  0  0  0
 16 21  1  0  0  0  0
 16 53  1  0  0  0  0
 17 22  2  0  0  0  0
 17 54  1  0  0  0  0
 18 23  1  0  0  0  0
 18 55  1  0  0  0  0
 19 24  2  0  0  0  0
 19 56  1  0  0  0  0
 20 57  1  0  0  0  0
 20 58  1  0  0  0  0
 21 25  2  0  0  0  0
 21 59  1  0  0  0  0
 22 25  1  0  0  0  0
 22 60  1  0  0  0  0
 23 26  2  0  0  0  0
 23 61  1  0  0  0  0
 24 26  1  0  0  0  0
 24 62  1  0  0  0  0
 26 64  1  0  0  0  0
 27 28  1  0  0  0  0
 28 29  2  0  0  0  0
 28 30  1  0  0  0  0
 29 31  1  0  0  0  0
 29 65  1  0  0  0  0
 30 33  2  0  0  0  0
 30 66  1  0  0  0  0
 31 32  1  0  0  0  0
 31 34  2  0  0  0  0
 32 33  1  0  0  0  0
 32 35  2  0  0  0  0
 33 67  1  0  0  0  0
 34 36  1  0  0  0  0
 34 68  1  0  0  0  0
 35 37  1  0  0  0  0
 35 69  1  0  0  0  0
 36 37  2  0  0  0  0
 36 70  1  0  0  0  0
 37 71  1  0  0  0  0
M  END
> <PUBCHEM_COMPOUND_CID>
44436725

> <PUBCHEM_COMPOUND_CANONICALIZED>
1

> <PUBCHEM_CACTVS_COMPLEXITY>
682

> <PUBCHEM_CACTVS_HBOND_ACCEPTOR>
3

> <PUBCHEM_CACTVS_HBOND_DONOR>
1

> <PUBCHEM_CACTVS_ROTATABLE_BOND>
9

> <PUBCHEM_CACTVS_SUBSKEYS>
AAADcfB/IAAEAAAAAAAAAAAAAAAAAAAAAAA8YMGCAAAAAADBVAAAHgIQAAAADCrBmCQwAMPAAACIAiFSEACCAAAkBQAIiIEIBsgIYDKBlxGUIQhglgCIiYcYiMCOxAACAAAQAACIAAQAACAAAAAAAAAAAA==

> <PUBCHEM_IUPAC_OPENEYE_NAME>
N-[4-[4-[(4-chlorophenyl)-phenyl-methyl]piperazin-1-yl]butyl]naphthalene-2-carboxamide

> <PUBCHEM_IUPAC_CAS_NAME>
N-[4-[4-[(4-chlorophenyl)-phenylmethyl]-1-piperazinyl]butyl]-2-naphthalenecarboxamide

> <PUBCHEM_IUPAC_NAME_MARKUP>
<I>N</I>-[4-[4-[(4-chlorophenyl)-phenylmethyl]piperazin-1-yl]butyl]naphthalene-2-carboxamide

> <PUBCHEM_IUPAC_NAME>
N-[4-[4-[(4-chlorophenyl)-phenylmethyl]piperazin-1-yl]butyl]naphthalene-2-carboxamide

> <PUBCHEM_IUPAC_SYSTEMATIC_NAME>
N-[4-[4-[(4-chlorophenyl)-phenyl-methyl]piperazin-1-yl]butyl]naphthalene-2-carboxamide

> <PUBCHEM_IUPAC_TRADITIONAL_NAME>
N-[4-[4-[(4-chlorophenyl)-phenyl-methyl]piperazino]butyl]-2-naphthamide

> <PUBCHEM_IUPAC_INCHI>
InChI=1S/C32H34ClN3O/c33-30-16-14-27(15-17-30)31(26-9-2-1-3-10-26)36-22-20-35(21-23-36)19-7-6-18-34-32(37)29-13-12-25-8-4-5-11-28(25)24-29/h1-5,8-17,24,31H,6-7,18-23H2,(H,34,37)

> <PUBCHEM_IUPAC_INCHIKEY>
MLUHKGHTLUYKBS-UHFFFAOYSA-N

> <PUBCHEM_XLOGP3_AA>
6.8

> <PUBCHEM_EXACT_MASS>
511.2390404

> <PUBCHEM_MOLECULAR_FORMULA>
C32H34ClN3O

> <PUBCHEM_MOLECULAR_WEIGHT>
512.1

> <PUBCHEM_OPENEYE_CAN_SMILES>
C1CN(CCN1CCCCNC(=O)C2=CC3=CC=CC=C3C=C2)C(C4=CC=CC=C4)C5=CC=C(C=C5)Cl

> <PUBCHEM_OPENEYE_ISO_SMILES>
C1CN(CCN1CCCCNC(=O)C2=CC3=CC=CC=C3C=C2)C(C4=CC=CC=C4)C5=CC=C(C=C5)Cl

> <PUBCHEM_CACTVS_TPSA>
35.6

> <PUBCHEM_MONOISOTOPIC_WEIGHT>
511.2390404

> <PUBCHEM_TOTAL_CHARGE>
0

> <PUBCHEM_HEAVY_ATOM_COUNT>
37

> <PUBCHEM_ATOM_DEF_STEREO_COUNT>
0

> <PUBCHEM_ATOM_UDEF_STEREO_COUNT>
1

> <PUBCHEM_BOND_DEF_STEREO_COUNT>
0

> <PUBCHEM_BOND_UDEF_STEREO_COUNT>
0

> <PUBCHEM_ISOTOPIC_ATOM_COUNT>
0

> <PUBCHEM_COMPONENT_COUNT>
1

> <PUBCHEM_CACTVS_TAUTO_COUNT>
-1

> <PUBCHEM_COORDINATE_TYPE>
1
5
255

> <PUBCHEM_BONDANNOTATIONS>
10  14  3
13  16  8
13  17  8
14  18  8
14  19  8
16  21  8
17  22  8
18  23  8
19  24  8
21  25  8
22  25  8
23  26  8
24  26  8
28  29  8
28  30  8
29  31  8
30  33  8
31  32  8
31  34  8
32  33  8
32  35  8
34  36  8
35  37  8
36  37  8

$$$$
