155549528
  -OEChem-09292322412D

 56 59  0     1  0  0  0  0  0999 V2000
    3.7320   -1.4941    0.0000 O   0  0  0  0  0  0  0  0  0  0  0  0
   12.4330    2.9376    0.0000 O   0  0  0  0  0  0  0  0  0  0  0  0
    8.2083    1.1622    0.0000 N   0  0  3  0  0  0  0  0  0  0  0  0
    7.2764   -3.2988    0.0000 N   0  0  0  0  0  0  0  0  0  0  0  0
    7.2298    0.9560    0.0000 C   0  0  0  0  0  0  0  0  0  0  0  0
    6.9192    0.0055    0.0000 C   0  0  0  0  0  0  0  0  0  0  0  0
    7.5870   -0.7388    0.0000 C   0  0  0  0  0  0  0  0  0  0  0  0
    8.8762    0.4179    0.0000 C   0  0  0  0  0  0  0  0  0  0  0  0
    7.2764   -1.6893    0.0000 C   0  0  0  0  0  0  0  0  0  0  0  0
    8.5655   -0.5326    0.0000 C   0  0  0  0  0  0  0  0  0  0  0  0
    8.5190    2.1127    0.0000 C   0  0  0  0  0  0  0  0  0  0  0  0
    6.3301   -1.9941    0.0000 C   0  0  0  0  0  0  0  0  0  0  0  0
    6.3301   -2.9941    0.0000 C   0  0  0  0  0  0  0  0  0  0  0  0
    7.8600   -2.4941    0.0000 C   0  0  0  0  0  0  0  0  0  0  0  0
    9.4975    2.3190    0.0000 C   0  0  0  0  0  0  0  0  0  0  0  0
    5.4641   -1.4941    0.0000 C   0  0  0  0  0  0  0  0  0  0  0  0
    5.4641   -3.4941    0.0000 C   0  0  0  0  0  0  0  0  0  0  0  0
    4.5981   -1.9941    0.0000 C   0  0  0  0  0  0  0  0  0  0  0  0
    4.5981   -2.9941    0.0000 C   0  0  0  0  0  0  0  0  0  0  0  0
    9.8082    3.2695    0.0000 C   0  0  0  0  0  0  0  0  0  0  0  0
   10.1653    1.5747    0.0000 C   0  0  0  0  0  0  0  0  0  0  0  0
   10.7867    3.4757    0.0000 C   0  0  0  0  0  0  0  0  0  0  0  0
   11.1439    1.7809    0.0000 C   0  0  0  0  0  0  0  0  0  0  0  0
    2.8660   -1.9941    0.0000 C   0  0  0  0  0  0  0  0  0  0  0  0
   11.4545    2.7314    0.0000 C   0  0  0  0  0  0  0  0  0  0  0  0
    2.0000   -1.4941    0.0000 C   0  0  0  0  0  0  0  0  0  0  0  0
    2.8660   -2.9941    0.0000 C   0  0  0  0  0  0  0  0  0  0  0  0
   12.7437    3.8881    0.0000 C   0  0  0  0  0  0  0  0  0  0  0  0
    7.2093    1.5757    0.0000 H   0  0  0  0  0  0  0  0  0  0  0  0
    6.6160    1.0434    0.0000 H   0  0  0  0  0  0  0  0  0  0  0  0
    6.3722    0.2975    0.0000 H   0  0  0  0  0  0  0  0  0  0  0  0
    6.5366   -0.4824    0.0000 H   0  0  0  0  0  0  0  0  0  0  0  0
    9.4231    0.1259    0.0000 H   0  0  0  0  0  0  0  0  0  0  0  0
    9.2587    0.9058    0.0000 H   0  0  0  0  0  0  0  0  0  0  0  0
    8.9796   -0.9941    0.0000 H   0  0  0  0  0  0  0  0  0  0  0  0
    8.4984    2.7324    0.0000 H   0  0  0  0  0  0  0  0  0  0  0  0
    7.9052    2.2001    0.0000 H   0  0  0  0  0  0  0  0  0  0  0  0
    8.4800   -2.4941    0.0000 H   0  0  0  0  0  0  0  0  0  0  0  0
    7.4690   -3.8881    0.0000 H   0  0  0  0  0  0  0  0  0  0  0  0
    5.4641   -0.8741    0.0000 H   0  0  0  0  0  0  0  0  0  0  0  0
    5.4641   -4.1141    0.0000 H   0  0  0  0  0  0  0  0  0  0  0  0
    4.0611   -3.3041    0.0000 H   0  0  0  0  0  0  0  0  0  0  0  0
    9.3941    3.7309    0.0000 H   0  0  0  0  0  0  0  0  0  0  0  0
    9.9727    0.9853    0.0000 H   0  0  0  0  0  0  0  0  0  0  0  0
    2.8660   -1.3741    0.0000 H   0  0  0  0  0  0  0  0  0  0  0  0
   10.9793    4.0650    0.0000 H   0  0  0  0  0  0  0  0  0  0  0  0
   11.5579    1.3194    0.0000 H   0  0  0  0  0  0  0  0  0  0  0  0
    2.3100   -0.9571    0.0000 H   0  0  0  0  0  0  0  0  0  0  0  0
    1.4631   -1.1841    0.0000 H   0  0  0  0  0  0  0  0  0  0  0  0
    1.6900   -2.0310    0.0000 H   0  0  0  0  0  0  0  0  0  0  0  0
    2.2460   -2.9941    0.0000 H   0  0  0  0  0  0  0  0  0  0  0  0
    2.8660   -3.6141    0.0000 H   0  0  0  0  0  0  0  0  0  0  0  0
    3.4860   -2.9941    0.0000 H   0  0  0  0  0  0  0  0  0  0  0  0
   13.3330    3.6955    0.0000 H   0  0  0  0  0  0  0  0  0  0  0  0
   12.9363    4.4774    0.0000 H   0  0  0  0  0  0  0  0  0  0  0  0
   12.1544    4.0807    0.0000 H   0  0  0  0  0  0  0  0  0  0  0  0
  1 18  1  0  0  0  0
  1 24  1  0  0  0  0
  2 25  1  0  0  0  0
  2 28  1  0  0  0  0
  3  5  1  0  0  0  0
  3  8  1  0  0  0  0
  3 11  1  0  0  0  0
  4 13  1  0  0  0  0
  4 14  1  0  0  0  0
  4 39  1  0  0  0  0
  5  6  1  0  0  0  0
  5 29  1  0  0  0  0
  5 30  1  0  0  0  0
  6  7  1  0  0  0  0
  6 31  1  0  0  0  0
  6 32  1  0  0  0  0
  7  9  1  0  0  0  0
  7 10  2  0  0  0  0
  8 10  1  0  0  0  0
  8 33  1  0  0  0  0
  8 34  1  0  0  0  0
  9 12  1  0  0  0  0
  9 14  2  0  0  0  0
 10 35  1  0  0  0  0
 11 15  1  0  0  0  0
 11 36  1  0  0  0  0
 11 37  1  0  0  0  0
 12 13  2  0  0  0  0
 12 16  1  0  0  0  0
 13 17  1  0  0  0  0
 14 38  1  0  0  0  0
 15 20  2  0  0  0  0
 15 21  1  0  0  0  0
 16 18  2  0  0  0  0
 16 40  1  0  0  0  0
 17 19  2  0  0  0  0
 17 41  1  0  0  0  0
 18 19  1  0  0  0  0
 19 42  1  0  0  0  0
 20 22  1  0  0  0  0
 20 43  1  0  0  0  0
 21 23  2  0  0  0  0
 21 44  1  0  0  0  0
 22 25  2  0  0  0  0
 22 46  1  0  0  0  0
 23 25  1  0  0  0  0
 23 47  1  0  0  0  0
 24 26  1  0  0  0  0
 24 27  1  0  0  0  0
 24 45  1  0  0  0  0
 26 48  1  0  0  0  0
 26 49  1  0  0  0  0
 26 50  1  0  0  0  0
 27 51  1  0  0  0  0
 27 52  1  0  0  0  0
 27 53  1  0  0  0  0
 28 54  1  0  0  0  0
 28 55  1  0  0  0  0
 28 56  1  0  0  0  0
M  END
> <PUBCHEM_COMPOUND_CID>
155549528

> <PUBCHEM_COMPOUND_CANONICALIZED>
1

> <PUBCHEM_CACTVS_COMPLEXITY>
527

> <PUBCHEM_CACTVS_HBOND_ACCEPTOR>
3

> <PUBCHEM_CACTVS_HBOND_DONOR>
1

> <PUBCHEM_CACTVS_ROTATABLE_BOND>
6

> <PUBCHEM_CACTVS_SUBSKEYS>
AAADceB7MAAAAAAAAAAAAAAAAAAAAWAAAAAwYIAAAAAAAFgB9AAAHgAQAAAADBzhngY+xvPJlACgAzRnRACCiCAxIiAI2aA+bJgMJuLEsZuGOCjk0BHI6Aew0PIOoEABAAACAABAgAIAAAQAAAAAAAAAAA==

> <PUBCHEM_IUPAC_OPENEYE_NAME>
5-isopropoxy-3-[1-[(4-methoxyphenyl)methyl]-3,6-dihydro-2H-pyridin-4-yl]-1H-indole

> <PUBCHEM_IUPAC_CAS_NAME>
3-[1-[(4-methoxyphenyl)methyl]-3,6-dihydro-2H-pyridin-4-yl]-5-propan-2-yloxy-1H-indole

> <PUBCHEM_IUPAC_NAME_MARKUP>
3-[1-[(4-methoxyphenyl)methyl]-3,6-dihydro-2<I>H</I>-pyridin-4-yl]-5-propan-2-yloxy-1<I>H</I>-indole

> <PUBCHEM_IUPAC_NAME>
3-[1-[(4-methoxyphenyl)methyl]-3,6-dihydro-2H-pyridin-4-yl]-5-propan-2-yloxy-1H-indole

> <PUBCHEM_IUPAC_SYSTEMATIC_NAME>
3-[1-[(4-methoxyphenyl)methyl]-3,6-dihydro-2H-pyridin-4-yl]-5-propan-2-yloxy-1H-indole

> <PUBCHEM_IUPAC_TRADITIONAL_NAME>
5-isopropoxy-3-(1-p-anisyl-3,6-dihydro-2H-pyridin-4-yl)-1H-indole

> <PUBCHEM_IUPAC_INCHI>
InChI=1S/C24H28N2O2/c1-17(2)28-21-8-9-24-22(14-21)23(15-25-24)19-10-12-26(13-11-19)16-18-4-6-20(27-3)7-5-18/h4-10,14-15,17,25H,11-13,16H2,1-3H3

> <PUBCHEM_IUPAC_INCHIKEY>
AAPNNVKAQPYKAA-UHFFFAOYSA-N

> <PUBCHEM_XLOGP3_AA>
4.5

> <PUBCHEM_EXACT_MASS>
376.215078140

> <PUBCHEM_MOLECULAR_FORMULA>
C24H28N2O2

> <PUBCHEM_MOLECULAR_WEIGHT>
376.5

> <PUBCHEM_OPENEYE_CAN_SMILES>
CC(C)OC1=CC2=C(C=C1)NC=C2C3=CCN(CC3)CC4=CC=C(C=C4)OC

> <PUBCHEM_OPENEYE_ISO_SMILES>
CC(C)OC1=CC2=C(C=C1)NC=C2C3=CCN(CC3)CC4=CC=C(C=C4)OC

> <PUBCHEM_CACTVS_TPSA>
37.5

> <PUBCHEM_MONOISOTOPIC_WEIGHT>
376.215078140

> <PUBCHEM_TOTAL_CHARGE>
0

> <PUBCHEM_HEAVY_ATOM_COUNT>
28

> <PUBCHEM_ATOM_DEF_STEREO_COUNT>
0

> <PUBCHEM_ATOM_UDEF_STEREO_COUNT>
0

> <PUBCHEM_BOND_DEF_STEREO_COUNT>
0

> <PUBCHEM_BOND_UDEF_STEREO_COUNT>
0

> <PUBCHEM_ISOTOPIC_ATOM_COUNT>
0

> <PUBCHEM_COMPONENT_COUNT>
1

> <PUBCHEM_CACTVS_TAUTO_COUNT>
-1

> <PUBCHEM_COORDINATE_TYPE>
1
5
255

> <PUBCHEM_BONDANNOTATIONS>
12  13  8
12  16  8
13  17  8
15  20  8
15  21  8
16  18  8
17  19  8
18  19  8
20  22  8
21  23  8
22  25  8
23  25  8
4  13  8
4  14  8
9  12  8
9  14  8

$$$$
