3378093
  -OEChem-09292322522D

 71 77  0     0  0  0  0  0  0999 V2000
    2.0000   -2.8898    0.0000 O   0  0  0  0  0  0  0  0  0  0  0  0
    6.4953   -1.7124    0.0000 O   0  0  0  0  0  0  0  0  0  0  0  0
   11.5150    5.9275    0.0000 O   0  0  0  0  0  0  0  0  0  0  0  0
    4.7295   -5.1832    0.0000 N   0  0  0  0  0  0  0  0  0  0  0  0
    5.2061   -0.5557    0.0000 N   0  0  0  0  0  0  0  0  0  0  0  0
   11.8542    4.3454    0.0000 N   0  0  0  0  0  0  0  0  0  0  0  0
   10.6499    5.4260    0.0000 N   0  0  0  0  0  0  0  0  0  0  0  0
    3.3938   -3.6946    0.0000 C   0  0  0  0  0  0  0  0  0  0  0  0
    3.0832   -4.6451    0.0000 C   0  0  0  0  0  0  0  0  0  0  0  0
    4.3723   -3.4884    0.0000 C   0  0  0  0  0  0  0  0  0  0  0  0
    3.6030   -2.7228    0.0000 C   0  0  0  0  0  0  0  0  0  0  0  0
    2.4051   -3.7976    0.0000 C   0  0  0  0  0  0  0  0  0  0  0  0
    3.7510   -5.3894    0.0000 C   0  0  0  0  0  0  0  0  0  0  0  0
    5.0402   -4.2327    0.0000 C   0  0  0  0  0  0  0  0  0  0  0  0
    2.7370   -2.2228    0.0000 C   0  0  0  0  0  0  0  0  0  0  0  0
    4.4691   -2.2228    0.0000 C   0  0  0  0  0  0  0  0  0  0  0  0
    4.4691   -1.2228    0.0000 C   0  0  0  0  0  0  0  0  0  0  0  0
    3.6030   -0.7228    0.0000 C   0  0  0  0  0  0  0  0  0  0  0  0
    2.7370   -1.2228    0.0000 C   0  0  0  0  0  0  0  0  0  0  0  0
    3.8122    0.2490    0.0000 C   0  0  0  0  0  0  0  0  0  0  0  0
    5.3974   -5.9275    0.0000 C   0  0  0  0  0  0  0  0  0  0  0  0
    4.8010    0.3521    0.0000 C   0  0  0  0  0  0  0  0  0  0  0  0
    6.1846   -0.7619    0.0000 C   0  0  0  0  0  0  0  0  0  0  0  0
    6.8524   -0.0176    0.0000 C   0  0  0  0  0  0  0  0  0  0  0  0
    6.5418    0.9329    0.0000 C   0  0  0  0  0  0  0  0  0  0  0  0
    7.8309   -0.2238    0.0000 C   0  0  0  0  0  0  0  0  0  0  0  0
    7.2096    1.6772    0.0000 C   0  0  0  0  0  0  0  0  0  0  0  0
    8.4988    0.5205    0.0000 C   0  0  0  0  0  0  0  0  0  0  0  0
    8.1881    1.4710    0.0000 C   0  0  0  0  0  0  0  0  0  0  0  0
    8.8560    2.2153    0.0000 C   0  0  0  0  0  0  0  0  0  0  0  0
    9.8345    2.0091    0.0000 C   0  0  0  0  0  0  0  0  0  0  0  0
    8.5453    3.1658    0.0000 C   0  0  0  0  0  0  0  0  0  0  0  0
   10.5023    2.7534    0.0000 C   0  0  0  0  0  0  0  0  0  0  0  0
    9.2131    3.9101    0.0000 C   0  0  0  0  0  0  0  0  0  0  0  0
   10.1917    3.7039    0.0000 C   0  0  0  0  0  0  0  0  0  0  0  0
   10.1451    1.0586    0.0000 C   0  0  0  0  0  0  0  0  0  0  0  0
   10.8595    4.4482    0.0000 C   0  0  0  0  0  0  0  0  0  0  0  0
   12.2593    5.2596    0.0000 C   0  0  0  0  0  0  0  0  0  0  0  0
   13.2371    5.4692    0.0000 C   0  0  0  0  0  0  0  0  0  0  0  0
    2.5362   -4.3531    0.0000 H   0  0  0  0  0  0  0  0  0  0  0  0
    2.7006   -5.1330    0.0000 H   0  0  0  0  0  0  0  0  0  0  0  0
    4.8987   -3.1607    0.0000 H   0  0  0  0  0  0  0  0  0  0  0  0
    4.1411   -2.9131    0.0000 H   0  0  0  0  0  0  0  0  0  0  0  0
    1.8155   -3.9894    0.0000 H   0  0  0  0  0  0  0  0  0  0  0  0
    2.5338   -4.4041    0.0000 H   0  0  0  0  0  0  0  0  0  0  0  0
    3.2247   -5.7171    0.0000 H   0  0  0  0  0  0  0  0  0  0  0  0
    3.9823   -5.9647    0.0000 H   0  0  0  0  0  0  0  0  0  0  0  0
    5.5871   -4.5247    0.0000 H   0  0  0  0  0  0  0  0  0  0  0  0
    5.4227   -3.7448    0.0000 H   0  0  0  0  0  0  0  0  0  0  0  0
    5.0060   -2.5328    0.0000 H   0  0  0  0  0  0  0  0  0  0  0  0
    2.2001   -0.9128    0.0000 H   0  0  0  0  0  0  0  0  0  0  0  0
    3.8131    0.8690    0.0000 H   0  0  0  0  0  0  0  0  0  0  0  0
    3.1958    0.3151    0.0000 H   0  0  0  0  0  0  0  0  0  0  0  0
    4.9359   -6.3416    0.0000 H   0  0  0  0  0  0  0  0  0  0  0  0
    5.8114   -6.3890    0.0000 H   0  0  0  0  0  0  0  0  0  0  0  0
    5.8588   -5.5134    0.0000 H   0  0  0  0  0  0  0  0  0  0  0  0
    5.3906    0.5439    0.0000 H   0  0  0  0  0  0  0  0  0  0  0  0
    4.6722    0.9586    0.0000 H   0  0  0  0  0  0  0  0  0  0  0  0
    5.9351    1.0608    0.0000 H   0  0  0  0  0  0  0  0  0  0  0  0
    8.0236   -0.8131    0.0000 H   0  0  0  0  0  0  0  0  0  0  0  0
    7.0170    2.2665    0.0000 H   0  0  0  0  0  0  0  0  0  0  0  0
    9.1054    0.3926    0.0000 H   0  0  0  0  0  0  0  0  0  0  0  0
    7.9386    3.2937    0.0000 H   0  0  0  0  0  0  0  0  0  0  0  0
   11.1090    2.6255    0.0000 H   0  0  0  0  0  0  0  0  0  0  0  0
    9.0205    4.4995    0.0000 H   0  0  0  0  0  0  0  0  0  0  0  0
    9.5558    0.8660    0.0000 H   0  0  0  0  0  0  0  0  0  0  0  0
   10.3377    0.4692    0.0000 H   0  0  0  0  0  0  0  0  0  0  0  0
   10.7345    1.2512    0.0000 H   0  0  0  0  0  0  0  0  0  0  0  0
   13.3671    4.8630    0.0000 H   0  0  0  0  0  0  0  0  0  0  0  0
   13.8434    5.5992    0.0000 H   0  0  0  0  0  0  0  0  0  0  0  0
   13.1072    6.0755    0.0000 H   0  0  0  0  0  0  0  0  0  0  0  0
  1 12  1  0  0  0  0
  1 15  1  0  0  0  0
  2 23  2  0  0  0  0
  3  7  1  0  0  0  0
  3 38  1  0  0  0  0
  4 13  1  0  0  0  0
  4 14  1  0  0  0  0
  4 21  1  0  0  0  0
  5 17  1  0  0  0  0
  5 22  1  0  0  0  0
  5 23  1  0  0  0  0
  6 37  1  0  0  0  0
  6 38  2  0  0  0  0
  7 37  2  0  0  0  0
  8  9  1  0  0  0  0
  8 10  1  0  0  0  0
  8 11  1  0  0  0  0
  8 12  1  0  0  0  0
  9 13  1  0  0  0  0
  9 40  1  0  0  0  0
  9 41  1  0  0  0  0
 10 14  1  0  0  0  0
 10 42  1  0  0  0  0
 10 43  1  0  0  0  0
 11 15  2  0  0  0  0
 11 16  1  0  0  0  0
 12 44  1  0  0  0  0
 12 45  1  0  0  0  0
 13 46  1  0  0  0  0
 13 47  1  0  0  0  0
 14 48  1  0  0  0  0
 14 49  1  0  0  0  0
 15 19  1  0  0  0  0
 16 17  2  0  0  0  0
 16 50  1  0  0  0  0
 17 18  1  0  0  0  0
 18 19  2  0  0  0  0
 18 20  1  0  0  0  0
 19 51  1  0  0  0  0
 20 22  1  0  0  0  0
 20 52  1  0  0  0  0
 20 53  1  0  0  0  0
 21 54  1  0  0  0  0
 21 55  1  0  0  0  0
 21 56  1  0  0  0  0
 22 57  1  0  0  0  0
 22 58  1  0  0  0  0
 23 24  1  0  0  0  0
 24 25  2  0  0  0  0
 24 26  1  0  0  0  0
 25 27  1  0  0  0  0
 25 59  1  0  0  0  0
 26 28  2  0  0  0  0
 26 60  1  0  0  0  0
 27 29  2  0  0  0  0
 27 61  1  0  0  0  0
 28 29  1  0  0  0  0
 28 62  1  0  0  0  0
 29 30  1  0  0  0  0
 30 31  2  0  0  0  0
 30 32  1  0  0  0  0
 31 33  1  0  0  0  0
 31 36  1  0  0  0  0
 32 34  2  0  0  0  0
 32 63  1  0  0  0  0
 33 35  2  0  0  0  0
 33 64  1  0  0  0  0
 34 35  1  0  0  0  0
 34 65  1  0  0  0  0
 35 37  1  0  0  0  0
 36 66  1  0  0  0  0
 36 67  1  0  0  0  0
 36 68  1  0  0  0  0
 38 39  1  0  0  0  0
 39 69  1  0  0  0  0
 39 70  1  0  0  0  0
 39 71  1  0  0  0  0
M  END
> <PUBCHEM_COMPOUND_CID>
3378093

> <PUBCHEM_COMPOUND_CANONICALIZED>
1

> <PUBCHEM_CACTVS_COMPLEXITY>
885

> <PUBCHEM_CACTVS_HBOND_ACCEPTOR>
6

> <PUBCHEM_CACTVS_HBOND_DONOR>
0

> <PUBCHEM_CACTVS_ROTATABLE_BOND>
3

> <PUBCHEM_CACTVS_SUBSKEYS>
AAADcfB/sAAAAAAAAAAAAAAAAAAAAWLEgAA8YMEAAAAAAFgB1AAAHgAEAAAADgzhmwYz1ocYFACpAidydgCCiAklIqApiCE+bNiMLrLEvZuGOSjkxxPI6Ye42POPwEADQAAaAACAgAaAADQAAAAAAAAAAA==

> <PUBCHEM_IUPAC_OPENEYE_NAME>
[4-[2-methyl-4-(5-methyl-1,2,4-oxadiazol-3-yl)phenyl]phenyl]-(1'-methylspiro[6,7-dihydro-2H-furo[2,3-f]indole-3,4'-piperidine]-5-yl)methanone

> <PUBCHEM_IUPAC_CAS_NAME>
[4-[2-methyl-4-(5-methyl-1,2,4-oxadiazol-3-yl)phenyl]phenyl]-(1'-methyl-5-spiro[6,7-dihydro-2H-furo[2,3-f]indole-3,4'-piperidine]yl)methanone

> <PUBCHEM_IUPAC_NAME_MARKUP>
[4-[2-methyl-4-(5-methyl-1,2,4-oxadiazol-3-yl)phenyl]phenyl]-(1&apos;-methylspiro[6,7-dihydro-2<I>H</I>-furo[2,3-f]indole-3,4&apos;-piperidine]-5-yl)methanone

> <PUBCHEM_IUPAC_NAME>
[4-[2-methyl-4-(5-methyl-1,2,4-oxadiazol-3-yl)phenyl]phenyl]-(1'-methylspiro[6,7-dihydro-2H-furo[2,3-f]indole-3,4'-piperidine]-5-yl)methanone

> <PUBCHEM_IUPAC_SYSTEMATIC_NAME>
[4-[2-methyl-4-(5-methyl-1,2,4-oxadiazol-3-yl)phenyl]phenyl]-(1'-methylspiro[6,7-dihydro-2H-furo[2,3-f]indole-3,4'-piperidine]-5-yl)methanone

> <PUBCHEM_IUPAC_TRADITIONAL_NAME>
[4-[2-methyl-4-(5-methyl-1,2,4-oxadiazol-3-yl)phenyl]phenyl]-(1'-methylspiro[6,7-dihydro-2H-fur[2,3-f]indole-3,4'-piperidine]-5-yl)methanone

> <PUBCHEM_IUPAC_INCHI>
InChI=1S/C32H32N4O3/c1-20-16-25(30-33-21(2)39-34-30)8-9-26(20)22-4-6-23(7-5-22)31(37)36-13-10-24-17-29-27(18-28(24)36)32(19-38-29)11-14-35(3)15-12-32/h4-9,16-18H,10-15,19H2,1-3H3

> <PUBCHEM_IUPAC_INCHIKEY>
ATQMRMGXINTJHV-UHFFFAOYSA-N

> <PUBCHEM_XLOGP3_AA>
5.6

> <PUBCHEM_EXACT_MASS>
520.24744090

> <PUBCHEM_MOLECULAR_FORMULA>
C32H32N4O3

> <PUBCHEM_MOLECULAR_WEIGHT>
520.6

> <PUBCHEM_OPENEYE_CAN_SMILES>
CC1=C(C=CC(=C1)C2=NOC(=N2)C)C3=CC=C(C=C3)C(=O)N4CCC5=CC6=C(C=C54)C7(CCN(CC7)C)CO6

> <PUBCHEM_OPENEYE_ISO_SMILES>
CC1=C(C=CC(=C1)C2=NOC(=N2)C)C3=CC=C(C=C3)C(=O)N4CCC5=CC6=C(C=C54)C7(CCN(CC7)C)CO6

> <PUBCHEM_CACTVS_TPSA>
71.7

> <PUBCHEM_MONOISOTOPIC_WEIGHT>
520.24744090

> <PUBCHEM_TOTAL_CHARGE>
0

> <PUBCHEM_HEAVY_ATOM_COUNT>
39

> <PUBCHEM_ATOM_DEF_STEREO_COUNT>
0

> <PUBCHEM_ATOM_UDEF_STEREO_COUNT>
0

> <PUBCHEM_BOND_DEF_STEREO_COUNT>
0

> <PUBCHEM_BOND_UDEF_STEREO_COUNT>
0

> <PUBCHEM_ISOTOPIC_ATOM_COUNT>
0

> <PUBCHEM_COMPONENT_COUNT>
1

> <PUBCHEM_CACTVS_TAUTO_COUNT>
-1

> <PUBCHEM_COORDINATE_TYPE>
1
5
255

> <PUBCHEM_BONDANNOTATIONS>
11  15  8
11  16  8
15  19  8
16  17  8
17  18  8
18  19  8
24  25  8
24  26  8
25  27  8
26  28  8
27  29  8
28  29  8
3  38  8
3  7  8
30  31  8
30  32  8
31  33  8
32  34  8
33  35  8
34  35  8
6  37  8
6  38  8
7  37  8

$$$$
