11705929
  -OEChem-09292322492D

 63 67  0     1  0  0  0  0  0999 V2000
    7.3566    0.1027    0.0000 S   0  0  0  0  0  0  0  0  0  0  0  0
    2.2091   -1.4839    0.0000 F   0  0  0  0  0  0  0  0  0  0  0  0
    2.0000   -3.4730    0.0000 F   0  0  0  0  0  0  0  0  0  0  0  0
    9.8566    0.9687    0.0000 N   0  0  3  0  0  0  0  0  0  0  0  0
   14.8121    2.9878    0.0000 N   0  0  0  0  0  0  0  0  0  0  0  0
   15.7894    3.1994    0.0000 N   0  0  0  0  0  0  0  0  0  0  0  0
    5.8621   -0.8679    0.0000 N   0  0  0  0  0  0  0  0  0  0  0  0
    7.2634   -1.6769    0.0000 N   0  0  0  0  0  0  0  0  0  0  0  0
    6.5202   -2.3460    0.0000 N   0  0  0  0  0  0  0  0  0  0  0  0
   10.2905    1.8697    0.0000 C   0  0  0  0  0  0  0  0  0  0  0  0
   10.2905    0.0677    0.0000 C   0  0  0  0  0  0  0  0  0  0  0  0
   11.2654    2.0922    0.0000 C   0  0  0  0  0  0  0  0  0  0  0  0
   11.2654   -0.1548    0.0000 C   0  0  0  0  0  0  0  0  0  0  0  0
   12.0473    1.4687    0.0000 C   0  0  0  0  0  0  0  0  0  0  0  0
   12.0473    0.4687    0.0000 C   0  0  0  0  0  0  0  0  0  0  0  0
    8.8566    0.9687    0.0000 C   0  0  0  0  0  0  0  0  0  0  0  0
   12.9412    2.0034    0.0000 C   0  0  0  0  0  0  0  0  0  0  0  0
   12.9412   -0.0660    0.0000 C   0  0  0  0  0  0  0  0  0  0  0  0
   13.8473    1.4895    0.0000 C   0  0  0  0  0  0  0  0  0  0  0  0
    8.3566    0.1027    0.0000 C   0  0  0  0  0  0  0  0  0  0  0  0
   13.8473    0.4479    0.0000 C   0  0  0  0  0  0  0  0  0  0  0  0
   14.7114    1.9928    0.0000 C   0  0  0  0  0  0  0  0  0  0  0  0
   15.6265    1.5896    0.0000 C   0  0  0  0  0  0  0  0  0  0  0  0
   16.2927    2.3354    0.0000 C   0  0  0  0  0  0  0  0  0  0  0  0
    6.8566   -0.7634    0.0000 C   0  0  0  0  0  0  0  0  0  0  0  0
   14.0663    3.6540    0.0000 C   0  0  0  0  0  0  0  0  0  0  0  0
   17.2876    2.2347    0.0000 C   0  0  0  0  0  0  0  0  0  0  0  0
    5.6542   -1.8460    0.0000 C   0  0  0  0  0  0  0  0  0  0  0  0
    5.1930   -0.1247    0.0000 C   0  0  0  0  0  0  0  0  0  0  0  0
    4.7406   -2.2528    0.0000 C   0  0  0  0  0  0  0  0  0  0  0  0
    3.9316   -1.6650    0.0000 C   0  0  0  0  0  0  0  0  0  0  0  0
    4.6361   -3.2473    0.0000 C   0  0  0  0  0  0  0  0  0  0  0  0
    3.0181   -2.0717    0.0000 C   0  0  0  0  0  0  0  0  0  0  0  0
    3.7226   -3.6540    0.0000 C   0  0  0  0  0  0  0  0  0  0  0  0
    2.9136   -3.0662    0.0000 C   0  0  0  0  0  0  0  0  0  0  0  0
   10.2905    2.4897    0.0000 H   0  0  0  0  0  0  0  0  0  0  0  0
    9.6860    2.0076    0.0000 H   0  0  0  0  0  0  0  0  0  0  0  0
    9.6860   -0.0702    0.0000 H   0  0  0  0  0  0  0  0  0  0  0  0
   10.2905   -0.5523    0.0000 H   0  0  0  0  0  0  0  0  0  0  0  0
   11.7502    2.4787    0.0000 H   0  0  0  0  0  0  0  0  0  0  0  0
   10.9964    2.6508    0.0000 H   0  0  0  0  0  0  0  0  0  0  0  0
   10.9964   -0.7134    0.0000 H   0  0  0  0  0  0  0  0  0  0  0  0
   11.7502   -0.5414    0.0000 H   0  0  0  0  0  0  0  0  0  0  0  0
    8.9643    1.5793    0.0000 H   0  0  0  0  0  0  0  0  0  0  0  0
    8.2740    1.1808    0.0000 H   0  0  0  0  0  0  0  0  0  0  0  0
   12.9340    2.6233    0.0000 H   0  0  0  0  0  0  0  0  0  0  0  0
   12.9340   -0.6859    0.0000 H   0  0  0  0  0  0  0  0  0  0  0  0
    8.2490   -0.5079    0.0000 H   0  0  0  0  0  0  0  0  0  0  0  0
    8.9392   -0.1094    0.0000 H   0  0  0  0  0  0  0  0  0  0  0  0
   14.3830    0.1358    0.0000 H   0  0  0  0  0  0  0  0  0  0  0  0
   15.7577    0.9837    0.0000 H   0  0  0  0  0  0  0  0  0  0  0  0
   14.4794    4.1164    0.0000 H   0  0  0  0  0  0  0  0  0  0  0  0
   13.6040    4.0671    0.0000 H   0  0  0  0  0  0  0  0  0  0  0  0
   13.6533    3.1917    0.0000 H   0  0  0  0  0  0  0  0  0  0  0  0
   17.2252    1.6178    0.0000 H   0  0  0  0  0  0  0  0  0  0  0  0
   17.9045    2.1722    0.0000 H   0  0  0  0  0  0  0  0  0  0  0  0
   17.3501    2.8515    0.0000 H   0  0  0  0  0  0  0  0  0  0  0  0
    5.6537    0.2901    0.0000 H   0  0  0  0  0  0  0  0  0  0  0  0
    4.7781    0.3360    0.0000 H   0  0  0  0  0  0  0  0  0  0  0  0
    4.7322   -0.5396    0.0000 H   0  0  0  0  0  0  0  0  0  0  0  0
    3.9964   -1.0484    0.0000 H   0  0  0  0  0  0  0  0  0  0  0  0
    5.1377   -3.6117    0.0000 H   0  0  0  0  0  0  0  0  0  0  0  0
    3.6578   -4.2706    0.0000 H   0  0  0  0  0  0  0  0  0  0  0  0
  1 20  1  0  0  0  0
  1 25  1  0  0  0  0
  2 33  1  0  0  0  0
  3 35  1  0  0  0  0
  4 10  1  0  0  0  0
  4 11  1  0  0  0  0
  4 16  1  0  0  0  0
  5  6  1  0  0  0  0
  5 22  1  0  0  0  0
  5 26  1  0  0  0  0
  6 24  2  0  0  0  0
  7 25  1  0  0  0  0
  7 28  1  0  0  0  0
  7 29  1  0  0  0  0
  8  9  1  0  0  0  0
  8 25  2  0  0  0  0
  9 28  2  0  0  0  0
 10 12  1  0  0  0  0
 10 36  1  0  0  0  0
 10 37  1  0  0  0  0
 11 13  1  0  0  0  0
 11 38  1  0  0  0  0
 11 39  1  0  0  0  0
 12 14  1  0  0  0  0
 12 40  1  0  0  0  0
 12 41  1  0  0  0  0
 13 15  1  0  0  0  0
 13 42  1  0  0  0  0
 13 43  1  0  0  0  0
 14 15  2  0  0  0  0
 14 17  1  0  0  0  0
 15 18  1  0  0  0  0
 16 20  1  0  0  0  0
 16 44  1  0  0  0  0
 16 45  1  0  0  0  0
 17 19  2  0  0  0  0
 17 46  1  0  0  0  0
 18 21  2  0  0  0  0
 18 47  1  0  0  0  0
 19 21  1  0  0  0  0
 19 22  1  0  0  0  0
 20 48  1  0  0  0  0
 20 49  1  0  0  0  0
 21 50  1  0  0  0  0
 22 23  2  0  0  0  0
 23 24  1  0  0  0  0
 23 51  1  0  0  0  0
 24 27  1  0  0  0  0
 26 52  1  0  0  0  0
 26 53  1  0  0  0  0
 26 54  1  0  0  0  0
 27 55  1  0  0  0  0
 27 56  1  0  0  0  0
 27 57  1  0  0  0  0
 28 30  1  0  0  0  0
 29 58  1  0  0  0  0
 29 59  1  0  0  0  0
 29 60  1  0  0  0  0
 30 31  2  0  0  0  0
 30 32  1  0  0  0  0
 31 33  1  0  0  0  0
 31 61  1  0  0  0  0
 32 34  2  0  0  0  0
 32 62  1  0  0  0  0
 33 35  2  0  0  0  0
 34 35  1  0  0  0  0
 34 63  1  0  0  0  0
M  END
> <PUBCHEM_COMPOUND_CID>
11705929

> <PUBCHEM_COMPOUND_CANONICALIZED>
1

> <PUBCHEM_CACTVS_COMPLEXITY>
690

> <PUBCHEM_CACTVS_HBOND_ACCEPTOR>
7

> <PUBCHEM_CACTVS_HBOND_DONOR>
0

> <PUBCHEM_CACTVS_ROTATABLE_BOND>
6

> <PUBCHEM_CACTVS_SUBSKEYS>
AAADceB7gYBAAAAAAAAAAAAAAAAAAWLAAAAwYAAABYAAAAAB9AAAHQQIAAAADAjFXwyzkJcMEAiiAyZiZACS1AthgrAd2CA4ZJiIKKLA2dGEpAhgiALIyAcQgMAOwAACAAAQAACAAAQAACAAAAAAAAAAAA==

> <PUBCHEM_IUPAC_OPENEYE_NAME>
3-[2-[[5-(3,4-difluorophenyl)-4-methyl-1,2,4-triazol-3-yl]sulfanyl]ethyl]-7-(2,5-dimethylpyrazol-3-yl)-1,2,4,5-tetrahydro-3-benzazepine

> <PUBCHEM_IUPAC_CAS_NAME>
3-[2-[[5-(3,4-difluorophenyl)-4-methyl-1,2,4-triazol-3-yl]thio]ethyl]-7-(2,5-dimethyl-3-pyrazolyl)-1,2,4,5-tetrahydro-3-benzazepine

> <PUBCHEM_IUPAC_NAME_MARKUP>
3-[2-[[5-(3,4-difluorophenyl)-4-methyl-1,2,4-triazol-3-yl]sulfanyl]ethyl]-7-(2,5-dimethylpyrazol-3-yl)-1,2,4,5-tetrahydro-3-benzazepine

> <PUBCHEM_IUPAC_NAME>
3-[2-[[5-(3,4-difluorophenyl)-4-methyl-1,2,4-triazol-3-yl]sulfanyl]ethyl]-7-(2,5-dimethylpyrazol-3-yl)-1,2,4,5-tetrahydro-3-benzazepine

> <PUBCHEM_IUPAC_SYSTEMATIC_NAME>
3-[2-[[5-[3,4-bis(fluoranyl)phenyl]-4-methyl-1,2,4-triazol-3-yl]sulfanyl]ethyl]-7-(2,5-dimethylpyrazol-3-yl)-1,2,4,5-tetrahydro-3-benzazepine

> <PUBCHEM_IUPAC_TRADITIONAL_NAME>
3-[2-[[5-(3,4-difluorophenyl)-4-methyl-1,2,4-triazol-3-yl]thio]ethyl]-7-(2,5-dimethylpyrazol-3-yl)-1,2,4,5-tetrahydro-3-benzazepine

> <PUBCHEM_IUPAC_INCHI>
InChI=1S/C26H28F2N6S/c1-17-14-24(33(3)31-17)20-5-4-18-8-10-34(11-9-19(18)15-20)12-13-35-26-30-29-25(32(26)2)21-6-7-22(27)23(28)16-21/h4-7,14-16H,8-13H2,1-3H3

> <PUBCHEM_IUPAC_INCHIKEY>
XHYYPLOOWDKARF-UHFFFAOYSA-N

> <PUBCHEM_XLOGP3_AA>
4.5

> <PUBCHEM_EXACT_MASS>
494.20642242

> <PUBCHEM_MOLECULAR_FORMULA>
C26H28F2N6S

> <PUBCHEM_MOLECULAR_WEIGHT>
494.6

> <PUBCHEM_OPENEYE_CAN_SMILES>
CC1=NN(C(=C1)C2=CC3=C(CCN(CC3)CCSC4=NN=C(N4C)C5=CC(=C(C=C5)F)F)C=C2)C

> <PUBCHEM_OPENEYE_ISO_SMILES>
CC1=NN(C(=C1)C2=CC3=C(CCN(CC3)CCSC4=NN=C(N4C)C5=CC(=C(C=C5)F)F)C=C2)C

> <PUBCHEM_CACTVS_TPSA>
77.1

> <PUBCHEM_MONOISOTOPIC_WEIGHT>
494.20642242

> <PUBCHEM_TOTAL_CHARGE>
0

> <PUBCHEM_HEAVY_ATOM_COUNT>
35

> <PUBCHEM_ATOM_DEF_STEREO_COUNT>
0

> <PUBCHEM_ATOM_UDEF_STEREO_COUNT>
0

> <PUBCHEM_BOND_DEF_STEREO_COUNT>
0

> <PUBCHEM_BOND_UDEF_STEREO_COUNT>
0

> <PUBCHEM_ISOTOPIC_ATOM_COUNT>
0

> <PUBCHEM_COMPONENT_COUNT>
1

> <PUBCHEM_CACTVS_TAUTO_COUNT>
-1

> <PUBCHEM_COORDINATE_TYPE>
1
5
255

> <PUBCHEM_BONDANNOTATIONS>
14  15  8
14  17  8
15  18  8
17  19  8
18  21  8
19  21  8
22  23  8
23  24  8
30  31  8
30  32  8
31  33  8
32  34  8
33  35  8
34  35  8
5  22  8
5  6  8
6  24  8
7  25  8
7  28  8
8  25  8
8  9  8
9  28  8

$$$$
