11431895
  -OEChem-09292322112D

 63 67  0     0  0  0  0  0  0999 V2000
   13.0419   -3.1925    0.0000 Cl  0  0  0  0  0  0  0  0  0  0  0  0
   14.3744   -4.6840    0.0000 Cl  0  0  0  0  0  0  0  0  0  0  0  0
    7.0864    0.8735    0.0000 O   0  0  0  0  0  0  0  0  0  0  0  0
   12.3347    0.1986    0.0000 N   0  0  0  0  0  0  0  0  0  0  0  0
   13.6672   -1.2928    0.0000 N   0  0  0  0  0  0  0  0  0  0  0  0
    8.3780    2.0275    0.0000 N   0  0  0  0  0  0  0  0  0  0  0  0
   13.3136    0.4028    0.0000 C   0  0  0  0  0  0  0  0  0  0  0  0
   12.0220   -0.7512    0.0000 C   0  0  0  0  0  0  0  0  0  0  0  0
   13.9799   -0.3429    0.0000 C   0  0  0  0  0  0  0  0  0  0  0  0
   12.6883   -1.4969    0.0000 C   0  0  0  0  0  0  0  0  0  0  0  0
   11.6684    0.9444    0.0000 C   0  0  0  0  0  0  0  0  0  0  0  0
   10.6895    0.7402    0.0000 C   0  0  0  0  0  0  0  0  0  0  0  0
   10.0232    1.4859    0.0000 C   0  0  0  0  0  0  0  0  0  0  0  0
   14.3335   -2.0385    0.0000 C   0  0  0  0  0  0  0  0  0  0  0  0
    9.0443    1.2818    0.0000 C   0  0  0  0  0  0  0  0  0  0  0  0
    5.0274    3.1451    0.0000 C   0  0  0  0  0  0  0  0  0  0  0  0
    5.3364    4.0962    0.0000 C   0  0  0  0  0  0  0  0  0  0  0  0
    4.5274    4.6840    0.0000 C   0  0  0  0  0  0  0  0  0  0  0  0
    4.0274    3.1451    0.0000 C   0  0  0  0  0  0  0  0  0  0  0  0
    3.7183    4.0962    0.0000 C   0  0  0  0  0  0  0  0  0  0  0  0
   14.0208   -2.9884    0.0000 C   0  0  0  0  0  0  0  0  0  0  0  0
   15.3124   -1.8344    0.0000 C   0  0  0  0  0  0  0  0  0  0  0  0
    6.7328    2.5691    0.0000 C   0  0  0  0  0  0  0  0  0  0  0  0
    5.7123    2.3604    0.0000 C   0  0  0  0  0  0  0  0  0  0  0  0
    6.3518    4.3284    0.0000 C   0  0  0  0  0  0  0  0  0  0  0  0
    7.3991    1.8234    0.0000 C   0  0  0  0  0  0  0  0  0  0  0  0
    7.0547    3.5597    0.0000 C   0  0  0  0  0  0  0  0  0  0  0  0
   14.6871   -3.7341    0.0000 C   0  0  0  0  0  0  0  0  0  0  0  0
   15.9787   -2.5801    0.0000 C   0  0  0  0  0  0  0  0  0  0  0  0
    3.3424    2.3604    0.0000 C   0  0  0  0  0  0  0  0  0  0  0  0
    2.7029    4.3284    0.0000 C   0  0  0  0  0  0  0  0  0  0  0  0
   15.6660   -3.5300    0.0000 C   0  0  0  0  0  0  0  0  0  0  0  0
    2.3219    2.5691    0.0000 C   0  0  0  0  0  0  0  0  0  0  0  0
    2.0000    3.5597    0.0000 C   0  0  0  0  0  0  0  0  0  0  0  0
   13.8407    0.7293    0.0000 H   0  0  0  0  0  0  0  0  0  0  0  0
   13.0836    0.9785    0.0000 H   0  0  0  0  0  0  0  0  0  0  0  0
   11.4757   -0.4580    0.0000 H   0  0  0  0  0  0  0  0  0  0  0  0
   11.6384   -1.2383    0.0000 H   0  0  0  0  0  0  0  0  0  0  0  0
   14.5262   -0.6361    0.0000 H   0  0  0  0  0  0  0  0  0  0  0  0
   14.3635    0.1441    0.0000 H   0  0  0  0  0  0  0  0  0  0  0  0
   12.1612   -1.8235    0.0000 H   0  0  0  0  0  0  0  0  0  0  0  0
   12.9183   -2.0727    0.0000 H   0  0  0  0  0  0  0  0  0  0  0  0
   12.1955    1.2709    0.0000 H   0  0  0  0  0  0  0  0  0  0  0  0
   11.4384    1.5201    0.0000 H   0  0  0  0  0  0  0  0  0  0  0  0
   10.1625    0.4137    0.0000 H   0  0  0  0  0  0  0  0  0  0  0  0
   10.9195    0.1645    0.0000 H   0  0  0  0  0  0  0  0  0  0  0  0
   10.5503    1.8124    0.0000 H   0  0  0  0  0  0  0  0  0  0  0  0
    9.7932    2.0617    0.0000 H   0  0  0  0  0  0  0  0  0  0  0  0
    8.5172    0.9553    0.0000 H   0  0  0  0  0  0  0  0  0  0  0  0
    9.2743    0.7060    0.0000 H   0  0  0  0  0  0  0  0  0  0  0  0
    4.9422    5.1447    0.0000 H   0  0  0  0  0  0  0  0  0  0  0  0
    4.1125    5.1447    0.0000 H   0  0  0  0  0  0  0  0  0  0  0  0
   15.5063   -1.2455    0.0000 H   0  0  0  0  0  0  0  0  0  0  0  0
    8.5719    2.6164    0.0000 H   0  0  0  0  0  0  0  0  0  0  0  0
    5.5139    1.7730    0.0000 H   0  0  0  0  0  0  0  0  0  0  0  0
    6.5365    4.9202    0.0000 H   0  0  0  0  0  0  0  0  0  0  0  0
    7.6607    3.6910    0.0000 H   0  0  0  0  0  0  0  0  0  0  0  0
    3.5408    1.7730    0.0000 H   0  0  0  0  0  0  0  0  0  0  0  0
   16.5856   -2.4535    0.0000 H   0  0  0  0  0  0  0  0  0  0  0  0
    2.5182    4.9202    0.0000 H   0  0  0  0  0  0  0  0  0  0  0  0
   16.0791   -3.9923    0.0000 H   0  0  0  0  0  0  0  0  0  0  0  0
    1.9088    2.1067    0.0000 H   0  0  0  0  0  0  0  0  0  0  0  0
    1.3940    3.6910    0.0000 H   0  0  0  0  0  0  0  0  0  0  0  0
  1 21  1  0  0  0  0
  2 28  1  0  0  0  0
  3 26  2  0  0  0  0
  4  7  1  0  0  0  0
  4  8  1  0  0  0  0
  4 11  1  0  0  0  0
  5  9  1  0  0  0  0
  5 10  1  0  0  0  0
  5 14  1  0  0  0  0
  6 15  1  0  0  0  0
  6 26  1  0  0  0  0
  6 54  1  0  0  0  0
  7  9  1  0  0  0  0
  7 35  1  0  0  0  0
  7 36  1  0  0  0  0
  8 10  1  0  0  0  0
  8 37  1  0  0  0  0
  8 38  1  0  0  0  0
  9 39  1  0  0  0  0
  9 40  1  0  0  0  0
 10 41  1  0  0  0  0
 10 42  1  0  0  0  0
 11 12  1  0  0  0  0
 11 43  1  0  0  0  0
 11 44  1  0  0  0  0
 12 13  1  0  0  0  0
 12 45  1  0  0  0  0
 12 46  1  0  0  0  0
 13 15  1  0  0  0  0
 13 47  1  0  0  0  0
 13 48  1  0  0  0  0
 14 21  2  0  0  0  0
 14 22  1  0  0  0  0
 15 49  1  0  0  0  0
 15 50  1  0  0  0  0
 16 17  2  0  0  0  0
 16 19  1  0  0  0  0
 16 24  1  0  0  0  0
 17 18  1  0  0  0  0
 17 25  1  0  0  0  0
 18 20  1  0  0  0  0
 18 51  1  0  0  0  0
 18 52  1  0  0  0  0
 19 20  1  0  0  0  0
 19 30  2  0  0  0  0
 20 31  2  0  0  0  0
 21 28  1  0  0  0  0
 22 29  2  0  0  0  0
 22 53  1  0  0  0  0
 23 24  2  0  0  0  0
 23 26  1  0  0  0  0
 23 27  1  0  0  0  0
 24 55  1  0  0  0  0
 25 27  2  0  0  0  0
 25 56  1  0  0  0  0
 27 57  1  0  0  0  0
 28 32  2  0  0  0  0
 29 32  1  0  0  0  0
 29 59  1  0  0  0  0
 30 33  1  0  0  0  0
 30 58  1  0  0  0  0
 31 34  1  0  0  0  0
 31 60  1  0  0  0  0
 32 61  1  0  0  0  0
 33 34  2  0  0  0  0
 33 62  1  0  0  0  0
 34 63  1  0  0  0  0
M  END
> <PUBCHEM_COMPOUND_CID>
11431895

> <PUBCHEM_COMPOUND_CANONICALIZED>
1

> <PUBCHEM_CACTVS_COMPLEXITY>
670

> <PUBCHEM_CACTVS_HBOND_ACCEPTOR>
3

> <PUBCHEM_CACTVS_HBOND_DONOR>
1

> <PUBCHEM_CACTVS_ROTATABLE_BOND>
7

> <PUBCHEM_CACTVS_SUBSKEYS>
AAADceB7IAAGAAAAAAAAAAAAAAAAAYAAAAA8YMEAAAAAAGABUAAAHgIQAAAADArBmCQwwIPAAACIAiVSUACCAAAlBwAIisEIZsgIYDLBl5HUIQhglgDIyYcYiMCOwAACAAIQABSAAAQABCAAKQAACAAAAA==

> <PUBCHEM_IUPAC_OPENEYE_NAME>
N-[4-[4-(2,3-dichlorophenyl)piperazin-1-yl]butyl]-9H-fluorene-3-carboxamide

> <PUBCHEM_IUPAC_CAS_NAME>
N-[4-[4-(2,3-dichlorophenyl)-1-piperazinyl]butyl]-9H-fluorene-3-carboxamide

> <PUBCHEM_IUPAC_NAME_MARKUP>
<I>N</I>-[4-[4-(2,3-dichlorophenyl)piperazin-1-yl]butyl]-9<I>H</I>-fluorene-3-carboxamide

> <PUBCHEM_IUPAC_NAME>
N-[4-[4-(2,3-dichlorophenyl)piperazin-1-yl]butyl]-9H-fluorene-3-carboxamide

> <PUBCHEM_IUPAC_SYSTEMATIC_NAME>
N-[4-[4-[2,3-bis(chloranyl)phenyl]piperazin-1-yl]butyl]-9H-fluorene-3-carboxamide

> <PUBCHEM_IUPAC_TRADITIONAL_NAME>
N-[4-[4-(2,3-dichlorophenyl)piperazino]butyl]-9H-fluorene-3-carboxamide

> <PUBCHEM_IUPAC_INCHI>
InChI=1S/C28H29Cl2N3O/c29-25-8-5-9-26(27(25)30)33-16-14-32(15-17-33)13-4-3-12-31-28(34)22-11-10-21-18-20-6-1-2-7-23(20)24(21)19-22/h1-2,5-11,19H,3-4,12-18H2,(H,31,34)

> <PUBCHEM_IUPAC_INCHIKEY>
VCYJYQQXTOICSB-UHFFFAOYSA-N

> <PUBCHEM_XLOGP3_AA>
6.4

> <PUBCHEM_EXACT_MASS>
493.1687679

> <PUBCHEM_MOLECULAR_FORMULA>
C28H29Cl2N3O

> <PUBCHEM_MOLECULAR_WEIGHT>
494.5

> <PUBCHEM_OPENEYE_CAN_SMILES>
C1CN(CCN1CCCCNC(=O)C2=CC3=C(CC4=CC=CC=C43)C=C2)C5=C(C(=CC=C5)Cl)Cl

> <PUBCHEM_OPENEYE_ISO_SMILES>
C1CN(CCN1CCCCNC(=O)C2=CC3=C(CC4=CC=CC=C43)C=C2)C5=C(C(=CC=C5)Cl)Cl

> <PUBCHEM_CACTVS_TPSA>
35.6

> <PUBCHEM_MONOISOTOPIC_WEIGHT>
493.1687679

> <PUBCHEM_TOTAL_CHARGE>
0

> <PUBCHEM_HEAVY_ATOM_COUNT>
34

> <PUBCHEM_ATOM_DEF_STEREO_COUNT>
0

> <PUBCHEM_ATOM_UDEF_STEREO_COUNT>
0

> <PUBCHEM_BOND_DEF_STEREO_COUNT>
0

> <PUBCHEM_BOND_UDEF_STEREO_COUNT>
0

> <PUBCHEM_ISOTOPIC_ATOM_COUNT>
0

> <PUBCHEM_COMPONENT_COUNT>
1

> <PUBCHEM_CACTVS_TAUTO_COUNT>
-1

> <PUBCHEM_COORDINATE_TYPE>
1
5
255

> <PUBCHEM_BONDANNOTATIONS>
14  21  8
14  22  8
16  17  8
16  24  8
17  25  8
19  20  8
19  30  8
20  31  8
21  28  8
22  29  8
23  24  8
23  27  8
25  27  8
28  32  8
29  32  8
30  33  8
31  34  8
33  34  8

$$$$
