76317651
  -OEChem-09292322072D

 36 38  0     0  0  0  0  0  0999 V2000
    6.3981   -2.2521    0.0000 O   0  0  0  0  0  0  0  0  0  0  0  0
    8.1301   -2.2521    0.0000 O   0  0  0  0  0  0  0  0  0  0  0  0
    2.8680   -0.2279    0.0000 O   0  0  0  0  0  0  0  0  0  0  0  0
    8.1301    0.7479    0.0000 N   0  0  0  0  0  0  0  0  0  0  0  0
    8.9391    1.3357    0.0000 C   0  0  0  0  0  0  0  0  0  0  0  0
    7.3211    1.3357    0.0000 C   0  0  0  0  0  0  0  0  0  0  0  0
    8.6301    2.2868    0.0000 C   0  0  0  0  0  0  0  0  0  0  0  0
    7.6301    2.2868    0.0000 C   0  0  0  0  0  0  0  0  0  0  0  0
    8.1301   -0.2521    0.0000 C   0  0  0  0  0  0  0  0  0  0  0  0
    7.2641   -0.7521    0.0000 C   0  0  0  0  0  0  0  0  0  0  0  0
    6.3981   -0.2521    0.0000 C   0  0  0  0  0  0  0  0  0  0  0  0
    7.2641   -1.7521    0.0000 C   0  0  0  0  0  0  0  0  0  0  0  0
    5.5320   -0.7521    0.0000 C   0  0  0  0  0  0  0  0  0  0  0  0
    5.5320   -1.7521    0.0000 C   0  0  0  0  0  0  0  0  0  0  0  0
    4.6381   -0.2174    0.0000 C   0  0  0  0  0  0  0  0  0  0  0  0
    4.6381   -2.2868    0.0000 C   0  0  0  0  0  0  0  0  0  0  0  0
    3.7320   -0.7313    0.0000 C   0  0  0  0  0  0  0  0  0  0  0  0
    3.7320   -1.7729    0.0000 C   0  0  0  0  0  0  0  0  0  0  0  0
    2.0000   -0.7246    0.0000 C   0  0  0  0  0  0  0  0  0  0  0  0
    9.2491    0.7988    0.0000 H   0  0  0  0  0  0  0  0  0  0  0  0
    9.5055    1.5879    0.0000 H   0  0  0  0  0  0  0  0  0  0  0  0
    6.7547    1.5879    0.0000 H   0  0  0  0  0  0  0  0  0  0  0  0
    7.0111    0.7988    0.0000 H   0  0  0  0  0  0  0  0  0  0  0  0
    9.2366    2.4157    0.0000 H   0  0  0  0  0  0  0  0  0  0  0  0
    8.5653    2.9034    0.0000 H   0  0  0  0  0  0  0  0  0  0  0  0
    7.6949    2.9034    0.0000 H   0  0  0  0  0  0  0  0  0  0  0  0
    7.0237    2.4157    0.0000 H   0  0  0  0  0  0  0  0  0  0  0  0
    8.3422   -0.8347    0.0000 H   0  0  0  0  0  0  0  0  0  0  0  0
    8.7407   -0.1444    0.0000 H   0  0  0  0  0  0  0  0  0  0  0  0
    6.3981    0.3679    0.0000 H   0  0  0  0  0  0  0  0  0  0  0  0
    4.6453    0.4025    0.0000 H   0  0  0  0  0  0  0  0  0  0  0  0
    4.6453   -2.9067    0.0000 H   0  0  0  0  0  0  0  0  0  0  0  0
    3.1963   -2.0850    0.0000 H   0  0  0  0  0  0  0  0  0  0  0  0
    1.6921   -0.1865    0.0000 H   0  0  0  0  0  0  0  0  0  0  0  0
    1.4619   -1.0325    0.0000 H   0  0  0  0  0  0  0  0  0  0  0  0
    2.3079   -1.2627    0.0000 H   0  0  0  0  0  0  0  0  0  0  0  0
  1 12  1  0  0  0  0
  1 14  1  0  0  0  0
  2 12  2  0  0  0  0
  3 17  1  0  0  0  0
  3 19  1  0  0  0  0
  4  5  1  0  0  0  0
  4  6  1  0  0  0  0
  4  9  1  0  0  0  0
  5  7  1  0  0  0  0
  5 20  1  0  0  0  0
  5 21  1  0  0  0  0
  6  8  1  0  0  0  0
  6 22  1  0  0  0  0
  6 23  1  0  0  0  0
  7  8  1  0  0  0  0
  7 24  1  0  0  0  0
  7 25  1  0  0  0  0
  8 26  1  0  0  0  0
  8 27  1  0  0  0  0
  9 10  1  0  0  0  0
  9 28  1  0  0  0  0
  9 29  1  0  0  0  0
 10 11  2  0  0  0  0
 10 12  1  0  0  0  0
 11 13  1  0  0  0  0
 11 30  1  0  0  0  0
 13 14  2  0  0  0  0
 13 15  1  0  0  0  0
 14 16  1  0  0  0  0
 15 17  2  0  0  0  0
 15 31  1  0  0  0  0
 16 18  2  0  0  0  0
 16 32  1  0  0  0  0
 17 18  1  0  0  0  0
 18 33  1  0  0  0  0
 19 34  1  0  0  0  0
 19 35  1  0  0  0  0
 19 36  1  0  0  0  0
M  END
> <PUBCHEM_COMPOUND_CID>
76317651

> <PUBCHEM_COMPOUND_CANONICALIZED>
1

> <PUBCHEM_CACTVS_COMPLEXITY>
374

> <PUBCHEM_CACTVS_HBOND_ACCEPTOR>
4

> <PUBCHEM_CACTVS_HBOND_DONOR>
0

> <PUBCHEM_CACTVS_ROTATABLE_BOND>
3

> <PUBCHEM_CACTVS_SUBSKEYS>
AAADceByMAAAAAAAAAAAAAAAAAAAAWAAAAAwQAAAAAAAAACBAAAAHgAAAAAADATBmAYyDoMABACIAiDSCACCCAAgIAAIiAEOCMgMJiqEsRqGOiCmwBGIqYfAwDAOAQABAAAIAAACAAIAABAAAAAAAAAAAA==

> <PUBCHEM_IUPAC_OPENEYE_NAME>
6-methoxy-3-(pyrrolidin-1-ylmethyl)chromen-2-one

> <PUBCHEM_IUPAC_CAS_NAME>
6-methoxy-3-(1-pyrrolidinylmethyl)-1-benzopyran-2-one

> <PUBCHEM_IUPAC_NAME_MARKUP>
6-methoxy-3-(pyrrolidin-1-ylmethyl)chromen-2-one

> <PUBCHEM_IUPAC_NAME>
6-methoxy-3-(pyrrolidin-1-ylmethyl)chromen-2-one

> <PUBCHEM_IUPAC_SYSTEMATIC_NAME>
6-methoxy-3-(pyrrolidin-1-ylmethyl)chromen-2-one

> <PUBCHEM_IUPAC_TRADITIONAL_NAME>
6-methoxy-3-(pyrrolidinomethyl)coumarin

> <PUBCHEM_IUPAC_INCHI>
InChI=1S/C15H17NO3/c1-18-13-4-5-14-11(9-13)8-12(15(17)19-14)10-16-6-2-3-7-16/h4-5,8-9H,2-3,6-7,10H2,1H3

> <PUBCHEM_IUPAC_INCHIKEY>
CTEJFLVANVVPLM-UHFFFAOYSA-N

> <PUBCHEM_XLOGP3_AA>
2.2

> <PUBCHEM_EXACT_MASS>
259.12084340

> <PUBCHEM_MOLECULAR_FORMULA>
C15H17NO3

> <PUBCHEM_MOLECULAR_WEIGHT>
259.30

> <PUBCHEM_OPENEYE_CAN_SMILES>
COC1=CC2=C(C=C1)OC(=O)C(=C2)CN3CCCC3

> <PUBCHEM_OPENEYE_ISO_SMILES>
COC1=CC2=C(C=C1)OC(=O)C(=C2)CN3CCCC3

> <PUBCHEM_CACTVS_TPSA>
38.8

> <PUBCHEM_MONOISOTOPIC_WEIGHT>
259.12084340

> <PUBCHEM_TOTAL_CHARGE>
0

> <PUBCHEM_HEAVY_ATOM_COUNT>
19

> <PUBCHEM_ATOM_DEF_STEREO_COUNT>
0

> <PUBCHEM_ATOM_UDEF_STEREO_COUNT>
0

> <PUBCHEM_BOND_DEF_STEREO_COUNT>
0

> <PUBCHEM_BOND_UDEF_STEREO_COUNT>
0

> <PUBCHEM_ISOTOPIC_ATOM_COUNT>
0

> <PUBCHEM_COMPONENT_COUNT>
1

> <PUBCHEM_CACTVS_TAUTO_COUNT>
-1

> <PUBCHEM_COORDINATE_TYPE>
1
5
255

> <PUBCHEM_BONDANNOTATIONS>
1  12  8
1  14  8
10  11  8
10  12  8
11  13  8
13  14  8
13  15  8
14  16  8
15  17  8
16  18  8
17  18  8

$$$$
