132257058
  -OEChem-09292322462D

 57 60  0     0  0  0  0  0  0999 V2000
    2.0000    3.4470    0.0000 Cl  0  0  0  0  0  0  0  0  0  0  0  0
    8.8660    2.2150    0.0000 F   0  0  0  0  0  0  0  0  0  0  0  0
    3.0000    5.1791    0.0000 F   0  0  0  0  0  0  0  0  0  0  0  0
   10.5981   -1.7850    0.0000 O   0  0  0  0  0  0  0  0  0  0  0  0
    4.5000    0.8490    0.0000 O   0  0  0  0  0  0  0  0  0  0  0  0
    6.0000    1.7150    0.0000 N   0  0  0  0  0  0  0  0  0  0  0  0
    8.8660    0.2150    0.0000 N   0  0  0  0  0  0  0  0  0  0  0  0
   12.4103   -4.5898    0.0000 N   0  0  0  0  0  0  0  0  0  0  0  0
    8.0000    1.7150    0.0000 C   0  0  0  0  0  0  0  0  0  0  0  0
    7.5000    0.8490    0.0000 C   0  0  0  0  0  0  0  0  0  0  0  0
    7.5000    2.5810    0.0000 C   0  0  0  0  0  0  0  0  0  0  0  0
    6.5000    0.8490    0.0000 C   0  0  0  0  0  0  0  0  0  0  0  0
    6.5000    2.5810    0.0000 C   0  0  0  0  0  0  0  0  0  0  0  0
    8.8660    1.2150    0.0000 C   0  0  0  0  0  0  0  0  0  0  0  0
    5.0000    1.7150    0.0000 C   0  0  0  0  0  0  0  0  0  0  0  0
    9.7320   -0.2850    0.0000 C   0  0  0  0  0  0  0  0  0  0  0  0
    9.7320   -1.2850    0.0000 C   0  0  0  0  0  0  0  0  0  0  0  0
    4.5000    2.5810    0.0000 C   0  0  0  0  0  0  0  0  0  0  0  0
   11.4641   -3.2850    0.0000 C   0  0  0  0  0  0  0  0  0  0  0  0
   12.4103   -2.9803    0.0000 C   0  0  0  0  0  0  0  0  0  0  0  0
   12.9939   -3.7850    0.0000 C   0  0  0  0  0  0  0  0  0  0  0  0
   11.4641   -4.2850    0.0000 C   0  0  0  0  0  0  0  0  0  0  0  0
   10.5981   -2.7850    0.0000 C   0  0  0  0  0  0  0  0  0  0  0  0
    3.5000    2.5810    0.0000 C   0  0  0  0  0  0  0  0  0  0  0  0
    5.0000    3.4470    0.0000 C   0  0  0  0  0  0  0  0  0  0  0  0
   10.5981   -4.7850    0.0000 C   0  0  0  0  0  0  0  0  0  0  0  0
    9.7320   -3.2850    0.0000 C   0  0  0  0  0  0  0  0  0  0  0  0
    9.7320   -4.2850    0.0000 C   0  0  0  0  0  0  0  0  0  0  0  0
    3.0000    3.4470    0.0000 C   0  0  0  0  0  0  0  0  0  0  0  0
    4.5000    4.3130    0.0000 C   0  0  0  0  0  0  0  0  0  0  0  0
    3.5000    4.3130    0.0000 C   0  0  0  0  0  0  0  0  0  0  0  0
    7.3923    0.2384    0.0000 H   0  0  0  0  0  0  0  0  0  0  0  0
    8.0826    0.6369    0.0000 H   0  0  0  0  0  0  0  0  0  0  0  0
    8.0826    2.7930    0.0000 H   0  0  0  0  0  0  0  0  0  0  0  0
    7.3923    3.1916    0.0000 H   0  0  0  0  0  0  0  0  0  0  0  0
    5.9174    0.6369    0.0000 H   0  0  0  0  0  0  0  0  0  0  0  0
    6.6077    0.2384    0.0000 H   0  0  0  0  0  0  0  0  0  0  0  0
    6.6077    3.1916    0.0000 H   0  0  0  0  0  0  0  0  0  0  0  0
    5.9174    2.7930    0.0000 H   0  0  0  0  0  0  0  0  0  0  0  0
    9.4766    1.1073    0.0000 H   0  0  0  0  0  0  0  0  0  0  0  0
    9.0781    1.7976    0.0000 H   0  0  0  0  0  0  0  0  0  0  0  0
    8.3291   -0.0950    0.0000 H   0  0  0  0  0  0  0  0  0  0  0  0
   10.3426   -0.3927    0.0000 H   0  0  0  0  0  0  0  0  0  0  0  0
    9.9441    0.2976    0.0000 H   0  0  0  0  0  0  0  0  0  0  0  0
    9.1215   -1.1774    0.0000 H   0  0  0  0  0  0  0  0  0  0  0  0
    9.5200   -1.8676    0.0000 H   0  0  0  0  0  0  0  0  0  0  0  0
   12.9477   -2.6711    0.0000 H   0  0  0  0  0  0  0  0  0  0  0  0
   12.1593   -2.4134    0.0000 H   0  0  0  0  0  0  0  0  0  0  0  0
   13.4548   -4.1998    0.0000 H   0  0  0  0  0  0  0  0  0  0  0  0
   13.4548   -3.3703    0.0000 H   0  0  0  0  0  0  0  0  0  0  0  0
   12.6029   -5.1791    0.0000 H   0  0  0  0  0  0  0  0  0  0  0  0
    3.1900    2.0441    0.0000 H   0  0  0  0  0  0  0  0  0  0  0  0
    5.6200    3.4470    0.0000 H   0  0  0  0  0  0  0  0  0  0  0  0
   10.5981   -5.4050    0.0000 H   0  0  0  0  0  0  0  0  0  0  0  0
    9.1951   -2.9750    0.0000 H   0  0  0  0  0  0  0  0  0  0  0  0
    9.1951   -4.5950    0.0000 H   0  0  0  0  0  0  0  0  0  0  0  0
    4.8100    4.8500    0.0000 H   0  0  0  0  0  0  0  0  0  0  0  0
  1 29  1  0  0  0  0
  2  9  1  0  0  0  0
  3 31  1  0  0  0  0
  4 17  1  0  0  0  0
  4 23  1  0  0  0  0
  5 15  2  0  0  0  0
  6 12  1  0  0  0  0
  6 13  1  0  0  0  0
  6 15  1  0  0  0  0
  7 14  1  0  0  0  0
  7 16  1  0  0  0  0
  7 42  1  0  0  0  0
  8 21  1  0  0  0  0
  8 22  1  0  0  0  0
  8 51  1  0  0  0  0
  9 10  1  0  0  0  0
  9 11  1  0  0  0  0
  9 14  1  0  0  0  0
 10 12  1  0  0  0  0
 10 32  1  0  0  0  0
 10 33  1  0  0  0  0
 11 13  1  0  0  0  0
 11 34  1  0  0  0  0
 11 35  1  0  0  0  0
 12 36  1  0  0  0  0
 12 37  1  0  0  0  0
 13 38  1  0  0  0  0
 13 39  1  0  0  0  0
 14 40  1  0  0  0  0
 14 41  1  0  0  0  0
 15 18  1  0  0  0  0
 16 17  1  0  0  0  0
 16 43  1  0  0  0  0
 16 44  1  0  0  0  0
 17 45  1  0  0  0  0
 17 46  1  0  0  0  0
 18 24  2  0  0  0  0
 18 25  1  0  0  0  0
 19 20  1  0  0  0  0
 19 22  2  0  0  0  0
 19 23  1  0  0  0  0
 20 21  1  0  0  0  0
 20 47  1  0  0  0  0
 20 48  1  0  0  0  0
 21 49  1  0  0  0  0
 21 50  1  0  0  0  0
 22 26  1  0  0  0  0
 23 27  2  0  0  0  0
 24 29  1  0  0  0  0
 24 52  1  0  0  0  0
 25 30  2  0  0  0  0
 25 53  1  0  0  0  0
 26 28  2  0  0  0  0
 26 54  1  0  0  0  0
 27 28  1  0  0  0  0
 27 55  1  0  0  0  0
 28 56  1  0  0  0  0
 29 31  2  0  0  0  0
 30 31  1  0  0  0  0
 30 57  1  0  0  0  0
M  END
> <PUBCHEM_COMPOUND_CID>
132257058

> <PUBCHEM_COMPOUND_CANONICALIZED>
1

> <PUBCHEM_CACTVS_COMPLEXITY>
605

> <PUBCHEM_CACTVS_HBOND_ACCEPTOR>
6

> <PUBCHEM_CACTVS_HBOND_DONOR>
2

> <PUBCHEM_CACTVS_ROTATABLE_BOND>
7

> <PUBCHEM_CACTVS_SUBSKEYS>
AAADceB7MYAEAAAAAAAAAAAAAAAAAWAAAAA8YIAAAAAAAFgBQAAAHwIQAAAADA7hmC4wxoPABACIAiVSUACCCAAlJwAIiIEObsgOJjLFt5uHOSjm1hnY6Ye42KOOAAAAIgAKAAAAAABEABQAAAAAAAAAAA==

> <PUBCHEM_IUPAC_OPENEYE_NAME>
(3-chloro-4-fluoro-phenyl)-[4-fluoro-4-[(2-indolin-4-yloxyethylamino)methyl]-1-piperidyl]methanone

> <PUBCHEM_IUPAC_CAS_NAME>
(3-chloro-4-fluorophenyl)-[4-[[2-(2,3-dihydro-1H-indol-4-yloxy)ethylamino]methyl]-4-fluoro-1-piperidinyl]methanone

> <PUBCHEM_IUPAC_NAME_MARKUP>
(3-chloro-4-fluorophenyl)-[4-[[2-(2,3-dihydro-1<I>H</I>-indol-4-yloxy)ethylamino]methyl]-4-fluoropiperidin-1-yl]methanone

> <PUBCHEM_IUPAC_NAME>
(3-chloro-4-fluorophenyl)-[4-[[2-(2,3-dihydro-1H-indol-4-yloxy)ethylamino]methyl]-4-fluoropiperidin-1-yl]methanone

> <PUBCHEM_IUPAC_SYSTEMATIC_NAME>
(3-chloranyl-4-fluoranyl-phenyl)-[4-[[2-(2,3-dihydro-1H-indol-4-yloxy)ethylamino]methyl]-4-fluoranyl-piperidin-1-yl]methanone

> <PUBCHEM_IUPAC_TRADITIONAL_NAME>
(3-chloro-4-fluoro-phenyl)-[4-fluoro-4-[(2-indolin-4-yloxyethylamino)methyl]piperidino]methanone

> <PUBCHEM_IUPAC_INCHI>
InChI=1S/C23H26ClF2N3O2/c24-18-14-16(4-5-19(18)25)22(30)29-11-7-23(26,8-12-29)15-27-10-13-31-21-3-1-2-20-17(21)6-9-28-20/h1-5,14,27-28H,6-13,15H2

> <PUBCHEM_IUPAC_INCHIKEY>
PKCZHVJFTWAZHM-UHFFFAOYSA-N

> <PUBCHEM_XLOGP3_AA>
4.1

> <PUBCHEM_EXACT_MASS>
449.1681611

> <PUBCHEM_MOLECULAR_FORMULA>
C23H26ClF2N3O2

> <PUBCHEM_MOLECULAR_WEIGHT>
449.9

> <PUBCHEM_OPENEYE_CAN_SMILES>
C1CNC2=C1C(=CC=C2)OCCNCC3(CCN(CC3)C(=O)C4=CC(=C(C=C4)F)Cl)F

> <PUBCHEM_OPENEYE_ISO_SMILES>
C1CNC2=C1C(=CC=C2)OCCNCC3(CCN(CC3)C(=O)C4=CC(=C(C=C4)F)Cl)F

> <PUBCHEM_CACTVS_TPSA>
53.6

> <PUBCHEM_MONOISOTOPIC_WEIGHT>
449.1681611

> <PUBCHEM_TOTAL_CHARGE>
0

> <PUBCHEM_HEAVY_ATOM_COUNT>
31

> <PUBCHEM_ATOM_DEF_STEREO_COUNT>
0

> <PUBCHEM_ATOM_UDEF_STEREO_COUNT>
0

> <PUBCHEM_BOND_DEF_STEREO_COUNT>
0

> <PUBCHEM_BOND_UDEF_STEREO_COUNT>
0

> <PUBCHEM_ISOTOPIC_ATOM_COUNT>
0

> <PUBCHEM_COMPONENT_COUNT>
1

> <PUBCHEM_CACTVS_TAUTO_COUNT>
-1

> <PUBCHEM_COORDINATE_TYPE>
1
5
255

> <PUBCHEM_BONDANNOTATIONS>
18  24  8
18  25  8
19  22  8
19  23  8
22  26  8
23  27  8
24  29  8
25  30  8
26  28  8
27  28  8
29  31  8
30  31  8

$$$$
