21969204
  -OEChem-09292322212D

 71 75  0     1  0  0  0  0  0999 V2000
   13.7195    4.6912    0.0000 S   0  0  0  0  0  0  0  0  0  0  0  0
   12.8478    4.2013    0.0000 O   0  0  0  0  0  0  0  0  0  0  0  0
   14.2095    3.8195    0.0000 O   0  0  0  0  0  0  0  0  0  0  0  0
   13.2296    5.5630    0.0000 O   0  0  0  0  0  0  0  0  0  0  0  0
    3.8640    0.1738    0.0000 O   0  0  0  0  0  0  0  0  0  0  0  0
    8.3993    2.8997    0.0000 N   0  0  3  0  0  0  0  0  0  0  0  0
    5.5103   -0.3643    0.0000 N   0  0  0  0  0  0  0  0  0  0  0  0
    9.3455    3.2044    0.0000 C   0  0  2  0  0  0  0  0  0  0  0  0
    9.3455    4.2044    0.0000 C   0  0  1  0  0  0  0  0  0  0  0  0
    8.3993    4.5091    0.0000 C   0  0  0  0  0  0  0  0  0  0  0  0
   10.2116    2.7044    0.0000 C   0  0  0  0  0  0  0  0  0  0  0  0
    7.8157    3.7044    0.0000 C   0  0  0  0  0  0  0  0  0  0  0  0
   10.2116    4.7044    0.0000 C   0  0  0  0  0  0  0  0  0  0  0  0
   11.0776    3.2044    0.0000 C   0  0  0  0  0  0  0  0  0  0  0  0
   11.0776    4.2044    0.0000 C   0  0  0  0  0  0  0  0  0  0  0  0
    8.0887    1.9492    0.0000 C   0  0  0  0  0  0  0  0  0  0  0  0
   10.1955    5.7459    0.0000 C   0  0  0  0  0  0  0  0  0  0  0  0
    7.1102    1.7429    0.0000 C   0  0  0  0  0  0  0  0  0  0  0  0
   11.9876    4.7112    0.0000 C   0  0  0  0  0  0  0  0  0  0  0  0
   11.0935    6.2737    0.0000 C   0  0  0  0  0  0  0  0  0  0  0  0
    6.7995    0.7924    0.0000 C   0  0  0  0  0  0  0  0  0  0  0  0
   11.9956    5.7528    0.0000 C   0  0  0  0  0  0  0  0  0  0  0  0
    5.8210    0.5862    0.0000 C   0  0  0  0  0  0  0  0  0  0  0  0
   14.5913    5.1812    0.0000 C   0  0  0  0  0  0  0  0  0  0  0  0
    4.5318   -0.5705    0.0000 C   0  0  0  0  0  0  0  0  0  0  0  0
    4.2212   -1.5211    0.0000 C   0  0  0  0  0  0  0  0  0  0  0  0
    4.8890   -2.2654    0.0000 C   0  0  0  0  0  0  0  0  0  0  0  0
    3.2426   -1.7273    0.0000 C   0  0  0  0  0  0  0  0  0  0  0  0
    4.5783   -3.2159    0.0000 C   0  0  0  0  0  0  0  0  0  0  0  0
    2.9320   -2.6778    0.0000 C   0  0  0  0  0  0  0  0  0  0  0  0
    3.5998   -3.4221    0.0000 C   0  0  0  0  0  0  0  0  0  0  0  0
    3.2892   -4.3726    0.0000 C   0  0  0  0  0  0  0  0  0  0  0  0
    2.3107   -4.5788    0.0000 C   0  0  0  0  0  0  0  0  0  0  0  0
    3.9570   -5.1169    0.0000 C   0  0  0  0  0  0  0  0  0  0  0  0
    2.0000   -5.5294    0.0000 C   0  0  0  0  0  0  0  0  0  0  0  0
    3.6464   -6.0674    0.0000 C   0  0  0  0  0  0  0  0  0  0  0  0
    2.6678   -6.2737    0.0000 C   0  0  0  0  0  0  0  0  0  0  0  0
    9.2556    2.3592    0.0000 H   0  0  0  0  0  0  0  0  0  0  0  0
    9.2556    5.0496    0.0000 H   0  0  0  0  0  0  0  0  0  0  0  0
    8.6504    5.0760    0.0000 H   0  0  0  0  0  0  0  0  0  0  0  0
    7.8619    4.8184    0.0000 H   0  0  0  0  0  0  0  0  0  0  0  0
    9.8130    2.2295    0.0000 H   0  0  0  0  0  0  0  0  0  0  0  0
   10.6101    2.2295    0.0000 H   0  0  0  0  0  0  0  0  0  0  0  0
    7.3548    4.1191    0.0000 H   0  0  0  0  0  0  0  0  0  0  0  0
    7.3548    3.2897    0.0000 H   0  0  0  0  0  0  0  0  0  0  0  0
   11.2896    2.6218    0.0000 H   0  0  0  0  0  0  0  0  0  0  0  0
   11.6882    3.3121    0.0000 H   0  0  0  0  0  0  0  0  0  0  0  0
    8.1092    1.3295    0.0000 H   0  0  0  0  0  0  0  0  0  0  0  0
    8.7025    1.8618    0.0000 H   0  0  0  0  0  0  0  0  0  0  0  0
    9.6550    6.0497    0.0000 H   0  0  0  0  0  0  0  0  0  0  0  0
    7.0896    2.3626    0.0000 H   0  0  0  0  0  0  0  0  0  0  0  0
    6.4963    1.8303    0.0000 H   0  0  0  0  0  0  0  0  0  0  0  0
    6.8201    0.1728    0.0000 H   0  0  0  0  0  0  0  0  0  0  0  0
    7.4133    0.7051    0.0000 H   0  0  0  0  0  0  0  0  0  0  0  0
   11.0912    6.8937    0.0000 H   0  0  0  0  0  0  0  0  0  0  0  0
   12.5338    6.0608    0.0000 H   0  0  0  0  0  0  0  0  0  0  0  0
    5.8004    1.2058    0.0000 H   0  0  0  0  0  0  0  0  0  0  0  0
    5.2072    0.6735    0.0000 H   0  0  0  0  0  0  0  0  0  0  0  0
    5.9244   -0.8258    0.0000 H   0  0  0  0  0  0  0  0  0  0  0  0
   14.8950    4.6407    0.0000 H   0  0  0  0  0  0  0  0  0  0  0  0
   15.1318    5.4850    0.0000 H   0  0  0  0  0  0  0  0  0  0  0  0
   14.2875    5.7217    0.0000 H   0  0  0  0  0  0  0  0  0  0  0  0
    5.4957   -2.1375    0.0000 H   0  0  0  0  0  0  0  0  0  0  0  0
    2.8286   -1.2658    0.0000 H   0  0  0  0  0  0  0  0  0  0  0  0
    4.9924   -3.6774    0.0000 H   0  0  0  0  0  0  0  0  0  0  0  0
    2.3253   -2.8057    0.0000 H   0  0  0  0  0  0  0  0  0  0  0  0
    1.8966   -4.1174    0.0000 H   0  0  0  0  0  0  0  0  0  0  0  0
    4.5637   -4.9891    0.0000 H   0  0  0  0  0  0  0  0  0  0  0  0
    1.3933   -5.6572    0.0000 H   0  0  0  0  0  0  0  0  0  0  0  0
    4.0604   -6.5289    0.0000 H   0  0  0  0  0  0  0  0  0  0  0  0
    2.4752   -6.8630    0.0000 H   0  0  0  0  0  0  0  0  0  0  0  0
  1  2  1  0  0  0  0
  1  3  2  0  0  0  0
  1  4  2  0  0  0  0
  1 24  1  0  0  0  0
  2 19  1  0  0  0  0
  5 25  2  0  0  0  0
  6  8  1  0  0  0  0
  6 12  1  0  0  0  0
  6 16  1  0  0  0  0
  7 23  1  0  0  0  0
  7 25  1  0  0  0  0
  7 59  1  0  0  0  0
  8  9  1  0  0  0  0
  8 11  1  0  0  0  0
  8 38  1  1  0  0  0
  9 10  1  0  0  0  0
  9 13  1  0  0  0  0
  9 39  1  6  0  0  0
 10 12  1  0  0  0  0
 10 40  1  0  0  0  0
 10 41  1  0  0  0  0
 11 14  1  0  0  0  0
 11 42  1  0  0  0  0
 11 43  1  0  0  0  0
 12 44  1  0  0  0  0
 12 45  1  0  0  0  0
 13 15  2  0  0  0  0
 13 17  1  0  0  0  0
 14 15  1  0  0  0  0
 14 46  1  0  0  0  0
 14 47  1  0  0  0  0
 15 19  1  0  0  0  0
 16 18  1  0  0  0  0
 16 48  1  0  0  0  0
 16 49  1  0  0  0  0
 17 20  2  0  0  0  0
 17 50  1  0  0  0  0
 18 21  1  0  0  0  0
 18 51  1  0  0  0  0
 18 52  1  0  0  0  0
 19 22  2  0  0  0  0
 20 22  1  0  0  0  0
 20 55  1  0  0  0  0
 21 23  1  0  0  0  0
 21 53  1  0  0  0  0
 21 54  1  0  0  0  0
 22 56  1  0  0  0  0
 23 57  1  0  0  0  0
 23 58  1  0  0  0  0
 24 60  1  0  0  0  0
 24 61  1  0  0  0  0
 24 62  1  0  0  0  0
 25 26  1  0  0  0  0
 26 27  2  0  0  0  0
 26 28  1  0  0  0  0
 27 29  1  0  0  0  0
 27 63  1  0  0  0  0
 28 30  2  0  0  0  0
 28 64  1  0  0  0  0
 29 31  2  0  0  0  0
 29 65  1  0  0  0  0
 30 31  1  0  0  0  0
 30 66  1  0  0  0  0
 31 32  1  0  0  0  0
 32 33  2  0  0  0  0
 32 34  1  0  0  0  0
 33 35  1  0  0  0  0
 33 67  1  0  0  0  0
 34 36  2  0  0  0  0
 34 68  1  0  0  0  0
 35 37  2  0  0  0  0
 35 69  1  0  0  0  0
 36 37  1  0  0  0  0
 36 70  1  0  0  0  0
 37 71  1  0  0  0  0
M  END
> <PUBCHEM_COMPOUND_CID>
21969204

> <PUBCHEM_COMPOUND_CANONICALIZED>
1

> <PUBCHEM_CACTVS_COMPLEXITY>
844

> <PUBCHEM_CACTVS_HBOND_ACCEPTOR>
5

> <PUBCHEM_CACTVS_HBOND_DONOR>
1

> <PUBCHEM_CACTVS_ROTATABLE_BOND>
9

> <PUBCHEM_CACTVS_SUBSKEYS>
AAADcfB7OABAAAAAAAAAAAAAAAAAAWAAAAAwYMGAAAAAAFjBUAAAHgQQAAAADSzBmASyBoPAAAKIAiFSEHCCAAAkIAAIiIEODMgIJjKAlROEMQhk1hGIiYeY2POOwAABAAAYAACQAAaAADQAAAAAAAAAAA==

> <PUBCHEM_IUPAC_OPENEYE_NAME>
[(3aS,9bS)-3-[4-[(4-phenylbenzoyl)amino]butyl]-1,2,3a,4,5,9b-hexahydrobenzo[e]indol-6-yl] methanesulfonate

> <PUBCHEM_IUPAC_CAS_NAME>
methanesulfonic acid [(3aS,9bS)-3-[4-[[oxo-(4-phenylphenyl)methyl]amino]butyl]-1,2,3a,4,5,9b-hexahydrobenzo[e]indol-6-yl] ester

> <PUBCHEM_IUPAC_NAME_MARKUP>
[(3<I>a</I><I>S</I>,9<I>b</I><I>S</I>)-3-[4-[(4-phenylbenzoyl)amino]butyl]-1,2,3<I>a</I>,4,5,9<I>b</I>-hexahydrobenzo[e]indol-6-yl] methanesulfonate

> <PUBCHEM_IUPAC_NAME>
[(3aS,9bS)-3-[4-[(4-phenylbenzoyl)amino]butyl]-1,2,3a,4,5,9b-hexahydrobenzo[e]indol-6-yl] methanesulfonate

> <PUBCHEM_IUPAC_SYSTEMATIC_NAME>
[(3aS,9bS)-3-[4-[(4-phenylphenyl)carbonylamino]butyl]-1,2,3a,4,5,9b-hexahydrobenzo[e]indol-6-yl] methanesulfonate

> <PUBCHEM_IUPAC_TRADITIONAL_NAME>
methanesulfonic acid [(3aS,9bS)-3-[4-[(4-phenylbenzoyl)amino]butyl]-1,2,3a,4,5,9b-hexahydrobenz[e]indol-6-yl] ester

> <PUBCHEM_IUPAC_INCHI>
InChI=1S/C30H34N2O4S/c1-37(34,35)36-29-11-7-10-25-26-18-21-32(28(26)17-16-27(25)29)20-6-5-19-31-30(33)24-14-12-23(13-15-24)22-8-3-2-4-9-22/h2-4,7-15,26,28H,5-6,16-21H2,1H3,(H,31,33)/t26-,28-/m0/s1

> <PUBCHEM_IUPAC_INCHIKEY>
FAWJQUFCTSZCAC-XCZPVHLTSA-N

> <PUBCHEM_XLOGP3_AA>
5.5

> <PUBCHEM_EXACT_MASS>
518.22392874

> <PUBCHEM_MOLECULAR_FORMULA>
C30H34N2O4S

> <PUBCHEM_MOLECULAR_WEIGHT>
518.7

> <PUBCHEM_OPENEYE_CAN_SMILES>
CS(=O)(=O)OC1=CC=CC2=C1CCC3C2CCN3CCCCNC(=O)C4=CC=C(C=C4)C5=CC=CC=C5

> <PUBCHEM_OPENEYE_ISO_SMILES>
CS(=O)(=O)OC1=CC=CC2=C1CC[C@H]3[C@H]2CCN3CCCCNC(=O)C4=CC=C(C=C4)C5=CC=CC=C5

> <PUBCHEM_CACTVS_TPSA>
84.1

> <PUBCHEM_MONOISOTOPIC_WEIGHT>
518.22392874

> <PUBCHEM_TOTAL_CHARGE>
0

> <PUBCHEM_HEAVY_ATOM_COUNT>
37

> <PUBCHEM_ATOM_DEF_STEREO_COUNT>
2

> <PUBCHEM_ATOM_UDEF_STEREO_COUNT>
0

> <PUBCHEM_BOND_DEF_STEREO_COUNT>
0

> <PUBCHEM_BOND_UDEF_STEREO_COUNT>
0

> <PUBCHEM_ISOTOPIC_ATOM_COUNT>
0

> <PUBCHEM_COMPONENT_COUNT>
1

> <PUBCHEM_CACTVS_TAUTO_COUNT>
-1

> <PUBCHEM_COORDINATE_TYPE>
1
5
255

> <PUBCHEM_BONDANNOTATIONS>
13  15  8
13  17  8
15  19  8
17  20  8
19  22  8
20  22  8
26  27  8
26  28  8
27  29  8
28  30  8
29  31  8
30  31  8
32  33  8
32  34  8
33  35  8
34  36  8
35  37  8
36  37  8
8  38  5
9  39  6

$$$$
