57383430
  -OEChem-09292321582D

 49 52  0     1  0  0  0  0  0999 V2000
   10.4702   -1.0783    0.0000 S   0  0  2  0  0  0  0  0  0  0  0  0
    2.0000   -2.8395    0.0000 F   0  0  0  0  0  0  0  0  0  0  0  0
   11.4041    2.0133    0.0000 O   0  0  0  0  0  0  0  0  0  0  0  0
   10.4702   -2.0783    0.0000 O   0  0  0  0  0  0  0  0  0  0  0  0
    6.4140    1.2245    0.0000 O   0  0  0  0  0  0  0  0  0  0  0  0
    9.9702    1.1123    0.0000 N   0  0  0  0  0  0  0  0  0  0  0  0
    5.8971   -0.4286    0.0000 N   0  0  0  0  0  0  0  0  0  0  0  0
    9.3467    0.3305    0.0000 C   0  0  0  0  0  0  0  0  0  0  0  0
    9.5692   -0.6444    0.0000 C   0  0  0  0  0  0  0  0  0  0  0  0
   11.5937    0.3305    0.0000 C   0  0  0  0  0  0  0  0  0  0  0  0
    9.5364    2.0133    0.0000 C   0  0  0  0  0  0  0  0  0  0  0  0
   11.3712   -0.6444    0.0000 C   0  0  0  0  0  0  0  0  0  0  0  0
   10.9702    1.1123    0.0000 C   0  0  0  0  0  0  0  0  0  0  0  0
    8.3562    0.6528    0.0000 C   0  0  0  0  0  0  0  0  0  0  0  0
    7.5872   -0.0497    0.0000 C   0  0  0  0  0  0  0  0  0  0  0  0
    8.8167   -1.3646    0.0000 C   0  0  0  0  0  0  0  0  0  0  0  0
    7.8190   -1.0652    0.0000 C   0  0  0  0  0  0  0  0  0  0  0  0
   12.5842    0.6528    0.0000 C   0  0  0  0  0  0  0  0  0  0  0  0
   12.1237   -1.3646    0.0000 C   0  0  0  0  0  0  0  0  0  0  0  0
   10.0997    2.8395    0.0000 C   0  0  0  0  0  0  0  0  0  0  0  0
    6.6328    0.2487    0.0000 C   0  0  0  0  0  0  0  0  0  0  0  0
   13.3532   -0.0498    0.0000 C   0  0  0  0  0  0  0  0  0  0  0  0
   13.1214   -1.0653    0.0000 C   0  0  0  0  0  0  0  0  0  0  0  0
    4.9427   -0.1302    0.0000 C   0  0  0  0  0  0  0  0  0  0  0  0
    4.2070   -0.8075    0.0000 C   0  0  0  0  0  0  0  0  0  0  0  0
    4.4258   -1.7833    0.0000 C   0  0  0  0  0  0  0  0  0  0  0  0
    3.2526   -0.5091    0.0000 C   0  0  0  0  0  0  0  0  0  0  0  0
    3.6901   -2.4606    0.0000 C   0  0  0  0  0  0  0  0  0  0  0  0
    2.5169   -1.1864    0.0000 C   0  0  0  0  0  0  0  0  0  0  0  0
    2.7357   -2.1622    0.0000 C   0  0  0  0  0  0  0  0  0  0  0  0
    9.0925    2.4462    0.0000 H   0  0  0  0  0  0  0  0  0  0  0  0
    9.0330    1.6514    0.0000 H   0  0  0  0  0  0  0  0  0  0  0  0
    8.2253    1.2588    0.0000 H   0  0  0  0  0  0  0  0  0  0  0  0
    8.9616   -1.9674    0.0000 H   0  0  0  0  0  0  0  0  0  0  0  0
    7.3661   -1.4887    0.0000 H   0  0  0  0  0  0  0  0  0  0  0  0
   12.7152    1.2588    0.0000 H   0  0  0  0  0  0  0  0  0  0  0  0
   11.9788   -1.9674    0.0000 H   0  0  0  0  0  0  0  0  0  0  0  0
   10.6119    2.4903    0.0000 H   0  0  0  0  0  0  0  0  0  0  0  0
   10.4489    3.3518    0.0000 H   0  0  0  0  0  0  0  0  0  0  0  0
    9.5874    3.1888    0.0000 H   0  0  0  0  0  0  0  0  0  0  0  0
   13.9450    0.1352    0.0000 H   0  0  0  0  0  0  0  0  0  0  0  0
   13.5743   -1.4888    0.0000 H   0  0  0  0  0  0  0  0  0  0  0  0
    6.0328   -1.0336    0.0000 H   0  0  0  0  0  0  0  0  0  0  0  0
    5.2277    0.4204    0.0000 H   0  0  0  0  0  0  0  0  0  0  0  0
    4.4499    0.2461    0.0000 H   0  0  0  0  0  0  0  0  0  0  0  0
    5.0175   -1.9683    0.0000 H   0  0  0  0  0  0  0  0  0  0  0  0
    3.1170    0.0959    0.0000 H   0  0  0  0  0  0  0  0  0  0  0  0
    3.8257   -3.0656    0.0000 H   0  0  0  0  0  0  0  0  0  0  0  0
    1.9252   -1.0014    0.0000 H   0  0  0  0  0  0  0  0  0  0  0  0
  1  4  2  0  0  0  0
  1  9  1  6  0  0  0
  1 12  1  0  0  0  0
  2 30  1  0  0  0  0
  3 13  2  0  0  0  0
  5 21  2  0  0  0  0
  6  8  1  0  0  0  0
  6 11  1  0  0  0  0
  6 13  1  0  0  0  0
  7 21  1  0  0  0  0
  7 24  1  0  0  0  0
  7 43  1  0  0  0  0
  8  9  2  0  0  0  0
  8 14  1  0  0  0  0
  9 16  1  0  0  0  0
 10 12  1  0  0  0  0
 10 13  1  0  0  0  0
 10 18  2  0  0  0  0
 11 20  1  0  0  0  0
 11 31  1  0  0  0  0
 11 32  1  0  0  0  0
 12 19  2  0  0  0  0
 14 15  2  0  0  0  0
 14 33  1  0  0  0  0
 15 17  1  0  0  0  0
 15 21  1  0  0  0  0
 16 17  2  0  0  0  0
 16 34  1  0  0  0  0
 17 35  1  0  0  0  0
 18 22  1  0  0  0  0
 18 36  1  0  0  0  0
 19 23  1  0  0  0  0
 19 37  1  0  0  0  0
 20 38  1  0  0  0  0
 20 39  1  0  0  0  0
 20 40  1  0  0  0  0
 22 23  2  0  0  0  0
 22 41  1  0  0  0  0
 23 42  1  0  0  0  0
 24 25  1  0  0  0  0
 24 44  1  0  0  0  0
 24 45  1  0  0  0  0
 25 26  2  0  0  0  0
 25 27  1  0  0  0  0
 26 28  1  0  0  0  0
 26 46  1  0  0  0  0
 27 29  2  0  0  0  0
 27 47  1  0  0  0  0
 28 30  2  0  0  0  0
 28 48  1  0  0  0  0
 29 30  1  0  0  0  0
 29 49  1  0  0  0  0
M  END
> <PUBCHEM_COMPOUND_CID>
57383430

> <PUBCHEM_COMPOUND_CANONICALIZED>
1

> <PUBCHEM_CACTVS_COMPLEXITY>
667

> <PUBCHEM_CACTVS_HBOND_ACCEPTOR>
5

> <PUBCHEM_CACTVS_HBOND_DONOR>
1

> <PUBCHEM_CACTVS_ROTATABLE_BOND>
4

> <PUBCHEM_CACTVS_SUBSKEYS>
AAADceB7MQBAAAAAAAAAAAAAAAAAAAAAAAAwYMAABYAAAAABUAAAHwQQAAAADAjB2AwywYPAAAqIAiVSUEDCAAAlChAIiJ0IZMgIIDLglZGEIQhghgDoyYcciACOEAAAQAAEAQAgAACAAAgCAAAAAAAAAA==

> <PUBCHEM_IUPAC_OPENEYE_NAME>
(11S)-5-ethyl-N-[(4-fluorophenyl)methyl]-6,11-dioxo-benzo[b][1,4]benzothiazepine-3-carboxamide

> <PUBCHEM_IUPAC_CAS_NAME>
(11S)-5-ethyl-N-[(4-fluorophenyl)methyl]-6,11-dioxo-3-benzo[b][1,4]benzothiazepinecarboxamide

> <PUBCHEM_IUPAC_NAME_MARKUP>
(11<I>S</I>)-5-ethyl-<I>N</I>-[(4-fluorophenyl)methyl]-6,11-dioxobenzo[b][1,4]benzothiazepine-3-carboxamide

> <PUBCHEM_IUPAC_NAME>
(11S)-5-ethyl-N-[(4-fluorophenyl)methyl]-6,11-dioxobenzo[b][1,4]benzothiazepine-3-carboxamide

> <PUBCHEM_IUPAC_SYSTEMATIC_NAME>
(11S)-5-ethyl-N-[(4-fluorophenyl)methyl]-6,11-bis(oxidanylidene)benzo[b][1,4]benzothiazepine-3-carboxamide

> <PUBCHEM_IUPAC_TRADITIONAL_NAME>
(11S)-5-ethyl-N-(4-fluorobenzyl)-6,11-diketo-benzo[b][1,4]benzothiazepine-3-carboxamide

> <PUBCHEM_IUPAC_INCHI>
InChI=1S/C23H19FN2O3S/c1-2-26-19-13-16(22(27)25-14-15-7-10-17(24)11-8-15)9-12-21(19)30(29)20-6-4-3-5-18(20)23(26)28/h3-13H,2,14H2,1H3,(H,25,27)/t30-/m0/s1

> <PUBCHEM_IUPAC_INCHIKEY>
VPRRPJPYZLZPNF-PMERELPUSA-N

> <PUBCHEM_XLOGP3_AA>
3

> <PUBCHEM_EXACT_MASS>
422.11004181

> <PUBCHEM_MOLECULAR_FORMULA>
C23H19FN2O3S

> <PUBCHEM_MOLECULAR_WEIGHT>
422.5

> <PUBCHEM_OPENEYE_CAN_SMILES>
CCN1C2=C(C=CC(=C2)C(=O)NCC3=CC=C(C=C3)F)S(=O)C4=CC=CC=C4C1=O

> <PUBCHEM_OPENEYE_ISO_SMILES>
CCN1C2=C(C=CC(=C2)C(=O)NCC3=CC=C(C=C3)F)[S@@](=O)C4=CC=CC=C4C1=O

> <PUBCHEM_CACTVS_TPSA>
85.7

> <PUBCHEM_MONOISOTOPIC_WEIGHT>
422.11004181

> <PUBCHEM_TOTAL_CHARGE>
0

> <PUBCHEM_HEAVY_ATOM_COUNT>
30

> <PUBCHEM_ATOM_DEF_STEREO_COUNT>
1

> <PUBCHEM_ATOM_UDEF_STEREO_COUNT>
0

> <PUBCHEM_BOND_DEF_STEREO_COUNT>
0

> <PUBCHEM_BOND_UDEF_STEREO_COUNT>
0

> <PUBCHEM_ISOTOPIC_ATOM_COUNT>
0

> <PUBCHEM_COMPONENT_COUNT>
1

> <PUBCHEM_CACTVS_TAUTO_COUNT>
-1

> <PUBCHEM_COORDINATE_TYPE>
1
5
255

> <PUBCHEM_BONDANNOTATIONS>
1  9  6
10  12  8
10  18  8
12  19  8
14  15  8
15  17  8
16  17  8
18  22  8
19  23  8
22  23  8
25  26  8
25  27  8
26  28  8
27  29  8
28  30  8
29  30  8
8  14  8
8  9  8
9  16  8

$$$$
