76317649
  -OEChem-09292322072D

 34 36  0     0  0  0  0  0  0999 V2000
    6.3981   -2.2521    0.0000 O   0  0  0  0  0  0  0  0  0  0  0  0
    8.1301   -2.2521    0.0000 O   0  0  0  0  0  0  0  0  0  0  0  0
    2.0000   -0.7246    0.0000 O   0  5  0  0  0  0  0  0  0  0  0  0
    2.8718    0.7721    0.0000 O   0  0  0  0  0  0  0  0  0  0  0  0
    8.1301    0.7479    0.0000 N   0  0  0  0  0  0  0  0  0  0  0  0
    2.8680   -0.2279    0.0000 N   0  3  0  0  0  0  0  0  0  0  0  0
    8.9391    1.3357    0.0000 C   0  0  0  0  0  0  0  0  0  0  0  0
    7.3211    1.3357    0.0000 C   0  0  0  0  0  0  0  0  0  0  0  0
    8.6301    2.2868    0.0000 C   0  0  0  0  0  0  0  0  0  0  0  0
    7.6301    2.2868    0.0000 C   0  0  0  0  0  0  0  0  0  0  0  0
    8.1301   -0.2521    0.0000 C   0  0  0  0  0  0  0  0  0  0  0  0
    7.2641   -0.7521    0.0000 C   0  0  0  0  0  0  0  0  0  0  0  0
    6.3981   -0.2521    0.0000 C   0  0  0  0  0  0  0  0  0  0  0  0
    5.5320   -0.7521    0.0000 C   0  0  0  0  0  0  0  0  0  0  0  0
    7.2641   -1.7521    0.0000 C   0  0  0  0  0  0  0  0  0  0  0  0
    5.5320   -1.7521    0.0000 C   0  0  0  0  0  0  0  0  0  0  0  0
    4.6381   -0.2174    0.0000 C   0  0  0  0  0  0  0  0  0  0  0  0
    4.6381   -2.2868    0.0000 C   0  0  0  0  0  0  0  0  0  0  0  0
    3.7320   -0.7313    0.0000 C   0  0  0  0  0  0  0  0  0  0  0  0
    3.7320   -1.7729    0.0000 C   0  0  0  0  0  0  0  0  0  0  0  0
    9.2491    0.7988    0.0000 H   0  0  0  0  0  0  0  0  0  0  0  0
    9.5055    1.5879    0.0000 H   0  0  0  0  0  0  0  0  0  0  0  0
    6.7547    1.5879    0.0000 H   0  0  0  0  0  0  0  0  0  0  0  0
    7.0111    0.7988    0.0000 H   0  0  0  0  0  0  0  0  0  0  0  0
    9.2366    2.4157    0.0000 H   0  0  0  0  0  0  0  0  0  0  0  0
    8.5653    2.9034    0.0000 H   0  0  0  0  0  0  0  0  0  0  0  0
    7.6949    2.9034    0.0000 H   0  0  0  0  0  0  0  0  0  0  0  0
    7.0237    2.4157    0.0000 H   0  0  0  0  0  0  0  0  0  0  0  0
    8.3422   -0.8347    0.0000 H   0  0  0  0  0  0  0  0  0  0  0  0
    8.7407   -0.1444    0.0000 H   0  0  0  0  0  0  0  0  0  0  0  0
    6.3981    0.3679    0.0000 H   0  0  0  0  0  0  0  0  0  0  0  0
    4.6453    0.4025    0.0000 H   0  0  0  0  0  0  0  0  0  0  0  0
    4.6453   -2.9067    0.0000 H   0  0  0  0  0  0  0  0  0  0  0  0
    3.1963   -2.0850    0.0000 H   0  0  0  0  0  0  0  0  0  0  0  0
  1 15  1  0  0  0  0
  1 16  1  0  0  0  0
  2 15  2  0  0  0  0
  3  6  1  0  0  0  0
  4  6  2  0  0  0  0
  5  7  1  0  0  0  0
  5  8  1  0  0  0  0
  5 11  1  0  0  0  0
  6 19  1  0  0  0  0
  7  9  1  0  0  0  0
  7 21  1  0  0  0  0
  7 22  1  0  0  0  0
  8 10  1  0  0  0  0
  8 23  1  0  0  0  0
  8 24  1  0  0  0  0
  9 10  1  0  0  0  0
  9 25  1  0  0  0  0
  9 26  1  0  0  0  0
 10 27  1  0  0  0  0
 10 28  1  0  0  0  0
 11 12  1  0  0  0  0
 11 29  1  0  0  0  0
 11 30  1  0  0  0  0
 12 13  2  0  0  0  0
 12 15  1  0  0  0  0
 13 14  1  0  0  0  0
 13 31  1  0  0  0  0
 14 16  2  0  0  0  0
 14 17  1  0  0  0  0
 16 18  1  0  0  0  0
 17 19  2  0  0  0  0
 17 32  1  0  0  0  0
 18 20  2  0  0  0  0
 18 33  1  0  0  0  0
 19 20  1  0  0  0  0
 20 34  1  0  0  0  0
M  CHG  2   3  -1   6   1
M  END
> <PUBCHEM_COMPOUND_CID>
76317649

> <PUBCHEM_COMPOUND_CANONICALIZED>
1

> <PUBCHEM_CACTVS_COMPLEXITY>
437

> <PUBCHEM_CACTVS_HBOND_ACCEPTOR>
5

> <PUBCHEM_CACTVS_HBOND_DONOR>
0

> <PUBCHEM_CACTVS_ROTATABLE_BOND>
2

> <PUBCHEM_CACTVS_SUBSKEYS>
AAADccBzOAAAAAAAAAAAAAAAAAAAAWAAAAAwQAAAAAAAAACBAAAAHgAEAAAADAzBmAQwzoMQRACJAiTSSwCCCAAgIgAoiAEObMoMJiqEsZuGOiDmwBGI6YewwCAOAEAAQAAIAAAAgACAABAAAAAAAAAAAA==

> <PUBCHEM_IUPAC_OPENEYE_NAME>
6-nitro-3-(pyrrolidin-1-ylmethyl)chromen-2-one

> <PUBCHEM_IUPAC_CAS_NAME>
6-nitro-3-(1-pyrrolidinylmethyl)-1-benzopyran-2-one

> <PUBCHEM_IUPAC_NAME_MARKUP>
6-nitro-3-(pyrrolidin-1-ylmethyl)chromen-2-one

> <PUBCHEM_IUPAC_NAME>
6-nitro-3-(pyrrolidin-1-ylmethyl)chromen-2-one

> <PUBCHEM_IUPAC_SYSTEMATIC_NAME>
6-nitro-3-(pyrrolidin-1-ylmethyl)chromen-2-one

> <PUBCHEM_IUPAC_TRADITIONAL_NAME>
6-nitro-3-(pyrrolidinomethyl)coumarin

> <PUBCHEM_IUPAC_INCHI>
InChI=1S/C14H14N2O4/c17-14-11(9-15-5-1-2-6-15)7-10-8-12(16(18)19)3-4-13(10)20-14/h3-4,7-8H,1-2,5-6,9H2

> <PUBCHEM_IUPAC_INCHIKEY>
ZONOLZRPBGXBSD-UHFFFAOYSA-N

> <PUBCHEM_XLOGP3_AA>
2.1

> <PUBCHEM_EXACT_MASS>
274.09535693

> <PUBCHEM_MOLECULAR_FORMULA>
C14H14N2O4

> <PUBCHEM_MOLECULAR_WEIGHT>
274.27

> <PUBCHEM_OPENEYE_CAN_SMILES>
C1CCN(C1)CC2=CC3=C(C=CC(=C3)[N+](=O)[O-])OC2=O

> <PUBCHEM_OPENEYE_ISO_SMILES>
C1CCN(C1)CC2=CC3=C(C=CC(=C3)[N+](=O)[O-])OC2=O

> <PUBCHEM_CACTVS_TPSA>
75.4

> <PUBCHEM_MONOISOTOPIC_WEIGHT>
274.09535693

> <PUBCHEM_TOTAL_CHARGE>
0

> <PUBCHEM_HEAVY_ATOM_COUNT>
20

> <PUBCHEM_ATOM_DEF_STEREO_COUNT>
0

> <PUBCHEM_ATOM_UDEF_STEREO_COUNT>
0

> <PUBCHEM_BOND_DEF_STEREO_COUNT>
0

> <PUBCHEM_BOND_UDEF_STEREO_COUNT>
0

> <PUBCHEM_ISOTOPIC_ATOM_COUNT>
0

> <PUBCHEM_COMPONENT_COUNT>
1

> <PUBCHEM_CACTVS_TAUTO_COUNT>
-1

> <PUBCHEM_COORDINATE_TYPE>
1
5
255

> <PUBCHEM_BONDANNOTATIONS>
1  15  8
1  16  8
12  13  8
12  15  8
13  14  8
14  16  8
14  17  8
16  18  8
17  19  8
18  20  8
19  20  8

$$$$
