23631540
  -OEChem-09292322252D

 65 69  0     1  0  0  0  0  0999 V2000
    6.8867   -1.2406    0.0000 S   0  0  0  0  0  0  0  0  0  0  0  0
   16.3228    1.8582    0.0000 O   0  0  0  0  0  0  0  0  0  0  0  0
    5.2989   -2.0496    0.0000 N   0  0  0  0  0  0  0  0  0  0  0  0
    9.8867    0.4915    0.0000 N   0  0  3  0  0  0  0  0  0  0  0  0
    4.3479   -0.7406    0.0000 N   0  0  0  0  0  0  0  0  0  0  0  0
    5.2989   -0.4315    0.0000 N   0  0  0  0  0  0  0  0  0  0  0  0
   15.6566    1.1124    0.0000 N   0  0  0  0  0  0  0  0  0  0  0  0
    3.5388   -2.3283    0.0000 C   0  0  0  0  0  0  0  0  0  0  0  0
    2.5878   -2.0193    0.0000 C   0  0  0  0  0  0  0  0  0  0  0  0
    3.5388   -3.3283    0.0000 C   0  0  0  0  0  0  0  0  0  0  0  0
    2.0000   -2.8283    0.0000 C   0  0  0  0  0  0  0  0  0  0  0  0
    2.5878   -3.6374    0.0000 C   0  0  0  0  0  0  0  0  0  0  0  0
    4.3479   -1.7406    0.0000 C   0  0  0  0  0  0  0  0  0  0  0  0
   10.3206    1.3925    0.0000 C   0  0  0  0  0  0  0  0  0  0  0  0
   10.3206   -0.4095    0.0000 C   0  0  0  0  0  0  0  0  0  0  0  0
   11.2955    1.6150    0.0000 C   0  0  0  0  0  0  0  0  0  0  0  0
   11.2955   -0.6320    0.0000 C   0  0  0  0  0  0  0  0  0  0  0  0
    8.8867    0.4915    0.0000 C   0  0  0  0  0  0  0  0  0  0  0  0
   12.0773    0.9915    0.0000 C   0  0  0  0  0  0  0  0  0  0  0  0
   12.0773   -0.0085    0.0000 C   0  0  0  0  0  0  0  0  0  0  0  0
    5.8867   -1.2406    0.0000 C   0  0  0  0  0  0  0  0  0  0  0  0
    8.3867   -0.3745    0.0000 C   0  0  0  0  0  0  0  0  0  0  0  0
    5.6079   -3.0006    0.0000 C   0  0  0  0  0  0  0  0  0  0  0  0
    7.3867   -0.3745    0.0000 C   0  0  0  0  0  0  0  0  0  0  0  0
   12.9713    1.5262    0.0000 C   0  0  0  0  0  0  0  0  0  0  0  0
   12.9713   -0.5432    0.0000 C   0  0  0  0  0  0  0  0  0  0  0  0
   13.8774    1.0123    0.0000 C   0  0  0  0  0  0  0  0  0  0  0  0
   13.8774   -0.0293    0.0000 C   0  0  0  0  0  0  0  0  0  0  0  0
   14.7414    1.5156    0.0000 C   0  0  0  0  0  0  0  0  0  0  0  0
   14.8421    2.5106    0.0000 C   0  0  0  0  0  0  0  0  0  0  0  0
   15.8195    2.7222    0.0000 C   0  0  0  0  0  0  0  0  0  0  0  0
   16.2227    3.6374    0.0000 C   0  0  0  0  0  0  0  0  0  0  0  0
    3.4418   -1.7160    0.0000 H   0  0  0  0  0  0  0  0  0  0  0  0
    2.8400   -1.4529    0.0000 H   0  0  0  0  0  0  0  0  0  0  0  0
    2.0508   -1.7093    0.0000 H   0  0  0  0  0  0  0  0  0  0  0  0
    3.6678   -3.9348    0.0000 H   0  0  0  0  0  0  0  0  0  0  0  0
    4.1554   -3.2635    0.0000 H   0  0  0  0  0  0  0  0  0  0  0  0
    1.5392   -2.4135    0.0000 H   0  0  0  0  0  0  0  0  0  0  0  0
    1.5392   -3.2432    0.0000 H   0  0  0  0  0  0  0  0  0  0  0  0
    2.0508   -3.9474    0.0000 H   0  0  0  0  0  0  0  0  0  0  0  0
    2.8400   -4.2038    0.0000 H   0  0  0  0  0  0  0  0  0  0  0  0
   10.3206    2.0125    0.0000 H   0  0  0  0  0  0  0  0  0  0  0  0
    9.7161    1.5304    0.0000 H   0  0  0  0  0  0  0  0  0  0  0  0
    9.7161   -0.5474    0.0000 H   0  0  0  0  0  0  0  0  0  0  0  0
   10.3206   -1.0295    0.0000 H   0  0  0  0  0  0  0  0  0  0  0  0
   11.7802    2.0016    0.0000 H   0  0  0  0  0  0  0  0  0  0  0  0
   11.0265    2.1736    0.0000 H   0  0  0  0  0  0  0  0  0  0  0  0
   11.0265   -1.1906    0.0000 H   0  0  0  0  0  0  0  0  0  0  0  0
   11.7802   -1.0186    0.0000 H   0  0  0  0  0  0  0  0  0  0  0  0
    8.9944    1.1021    0.0000 H   0  0  0  0  0  0  0  0  0  0  0  0
    8.3041    0.7036    0.0000 H   0  0  0  0  0  0  0  0  0  0  0  0
    8.2790   -0.9851    0.0000 H   0  0  0  0  0  0  0  0  0  0  0  0
    8.9693   -0.5866    0.0000 H   0  0  0  0  0  0  0  0  0  0  0  0
    5.0183   -3.1922    0.0000 H   0  0  0  0  0  0  0  0  0  0  0  0
    5.7995   -3.5903    0.0000 H   0  0  0  0  0  0  0  0  0  0  0  0
    6.1976   -2.8090    0.0000 H   0  0  0  0  0  0  0  0  0  0  0  0
    7.4944    0.2361    0.0000 H   0  0  0  0  0  0  0  0  0  0  0  0
    6.8041   -0.1625    0.0000 H   0  0  0  0  0  0  0  0  0  0  0  0
   12.9641    2.1461    0.0000 H   0  0  0  0  0  0  0  0  0  0  0  0
   12.9641   -1.1631    0.0000 H   0  0  0  0  0  0  0  0  0  0  0  0
   14.4131   -0.3414    0.0000 H   0  0  0  0  0  0  0  0  0  0  0  0
   14.3798    2.9236    0.0000 H   0  0  0  0  0  0  0  0  0  0  0  0
   16.7901    3.3874    0.0000 H   0  0  0  0  0  0  0  0  0  0  0  0
   16.4727    4.2047    0.0000 H   0  0  0  0  0  0  0  0  0  0  0  0
   15.6553    3.8874    0.0000 H   0  0  0  0  0  0  0  0  0  0  0  0
  1 21  1  0  0  0  0
  1 24  1  0  0  0  0
  2  7  1  0  0  0  0
  2 31  1  0  0  0  0
  3 13  1  0  0  0  0
  3 21  1  0  0  0  0
  3 23  1  0  0  0  0
  4 14  1  0  0  0  0
  4 15  1  0  0  0  0
  4 18  1  0  0  0  0
  5  6  1  0  0  0  0
  5 13  2  0  0  0  0
  6 21  2  0  0  0  0
  7 29  2  0  0  0  0
  8  9  1  0  0  0  0
  8 10  1  0  0  0  0
  8 13  1  0  0  0  0
  8 33  1  0  0  0  0
  9 11  1  0  0  0  0
  9 34  1  0  0  0  0
  9 35  1  0  0  0  0
 10 12  1  0  0  0  0
 10 36  1  0  0  0  0
 10 37  1  0  0  0  0
 11 12  1  0  0  0  0
 11 38  1  0  0  0  0
 11 39  1  0  0  0  0
 12 40  1  0  0  0  0
 12 41  1  0  0  0  0
 14 16  1  0  0  0  0
 14 42  1  0  0  0  0
 14 43  1  0  0  0  0
 15 17  1  0  0  0  0
 15 44  1  0  0  0  0
 15 45  1  0  0  0  0
 16 19  1  0  0  0  0
 16 46  1  0  0  0  0
 16 47  1  0  0  0  0
 17 20  1  0  0  0  0
 17 48  1  0  0  0  0
 17 49  1  0  0  0  0
 18 22  1  0  0  0  0
 18 50  1  0  0  0  0
 18 51  1  0  0  0  0
 19 20  2  0  0  0  0
 19 25  1  0  0  0  0
 20 26  1  0  0  0  0
 22 24  1  0  0  0  0
 22 52  1  0  0  0  0
 22 53  1  0  0  0  0
 23 54  1  0  0  0  0
 23 55  1  0  0  0  0
 23 56  1  0  0  0  0
 24 57  1  0  0  0  0
 24 58  1  0  0  0  0
 25 27  2  0  0  0  0
 25 59  1  0  0  0  0
 26 28  2  0  0  0  0
 26 60  1  0  0  0  0
 27 28  1  0  0  0  0
 27 29  1  0  0  0  0
 28 61  1  0  0  0  0
 29 30  1  0  0  0  0
 30 31  2  0  0  0  0
 30 62  1  0  0  0  0
 31 32  1  0  0  0  0
 32 63  1  0  0  0  0
 32 64  1  0  0  0  0
 32 65  1  0  0  0  0
M  END
> <PUBCHEM_COMPOUND_CID>
23631540

> <PUBCHEM_COMPOUND_CANONICALIZED>
1

> <PUBCHEM_CACTVS_COMPLEXITY>
591

> <PUBCHEM_CACTVS_HBOND_ACCEPTOR>
6

> <PUBCHEM_CACTVS_HBOND_DONOR>
0

> <PUBCHEM_CACTVS_ROTATABLE_BOND>
7

> <PUBCHEM_CACTVS_SUBSKEYS>
AAADcfB7oABAAAAAAAAAAAAAAAAAAeLEAAAwAAAABYAAAAAB8AAAHgQMAAAADQzF3wSzlJccEAirA6ZyZgCS0AtkIrA92CE+bNqILrqgmZOEMYBmiBqIyUeYyOCOwAACAAAQAACAAAQAACAAAAAAAAAAAA==

> <PUBCHEM_IUPAC_OPENEYE_NAME>
3-[3-[3-[(5-cyclopentyl-4-methyl-1,2,4-triazol-3-yl)sulfanyl]propyl]-1,2,4,5-tetrahydro-3-benzazepin-7-yl]-5-methyl-isoxazole

> <PUBCHEM_IUPAC_CAS_NAME>
3-[3-[3-[(5-cyclopentyl-4-methyl-1,2,4-triazol-3-yl)thio]propyl]-1,2,4,5-tetrahydro-3-benzazepin-7-yl]-5-methylisoxazole

> <PUBCHEM_IUPAC_NAME_MARKUP>
3-[3-[3-[(5-cyclopentyl-4-methyl-1,2,4-triazol-3-yl)sulfanyl]propyl]-1,2,4,5-tetrahydro-3-benzazepin-7-yl]-5-methyl-1,2-oxazole

> <PUBCHEM_IUPAC_NAME>
3-[3-[3-[(5-cyclopentyl-4-methyl-1,2,4-triazol-3-yl)sulfanyl]propyl]-1,2,4,5-tetrahydro-3-benzazepin-7-yl]-5-methyl-1,2-oxazole

> <PUBCHEM_IUPAC_SYSTEMATIC_NAME>
3-[3-[3-[(5-cyclopentyl-4-methyl-1,2,4-triazol-3-yl)sulfanyl]propyl]-1,2,4,5-tetrahydro-3-benzazepin-7-yl]-5-methyl-1,2-oxazole

> <PUBCHEM_IUPAC_TRADITIONAL_NAME>
3-[3-[3-[(5-cyclopentyl-4-methyl-1,2,4-triazol-3-yl)thio]propyl]-1,2,4,5-tetrahydro-3-benzazepin-7-yl]-5-methyl-isoxazole

> <PUBCHEM_IUPAC_INCHI>
InChI=1S/C25H33N5OS/c1-18-16-23(28-31-18)22-9-8-19-10-13-30(14-11-21(19)17-22)12-5-15-32-25-27-26-24(29(25)2)20-6-3-4-7-20/h8-9,16-17,20H,3-7,10-15H2,1-2H3

> <PUBCHEM_IUPAC_INCHIKEY>
GRQQDQSHIQXVLZ-UHFFFAOYSA-N

> <PUBCHEM_XLOGP3_AA>
4.8

> <PUBCHEM_EXACT_MASS>
451.24058187

> <PUBCHEM_MOLECULAR_FORMULA>
C25H33N5OS

> <PUBCHEM_MOLECULAR_WEIGHT>
451.6

> <PUBCHEM_OPENEYE_CAN_SMILES>
CC1=CC(=NO1)C2=CC3=C(CCN(CC3)CCCSC4=NN=C(N4C)C5CCCC5)C=C2

> <PUBCHEM_OPENEYE_ISO_SMILES>
CC1=CC(=NO1)C2=CC3=C(CCN(CC3)CCCSC4=NN=C(N4C)C5CCCC5)C=C2

> <PUBCHEM_CACTVS_TPSA>
85.3

> <PUBCHEM_MONOISOTOPIC_WEIGHT>
451.24058187

> <PUBCHEM_TOTAL_CHARGE>
0

> <PUBCHEM_HEAVY_ATOM_COUNT>
32

> <PUBCHEM_ATOM_DEF_STEREO_COUNT>
0

> <PUBCHEM_ATOM_UDEF_STEREO_COUNT>
0

> <PUBCHEM_BOND_DEF_STEREO_COUNT>
0

> <PUBCHEM_BOND_UDEF_STEREO_COUNT>
0

> <PUBCHEM_ISOTOPIC_ATOM_COUNT>
0

> <PUBCHEM_COMPONENT_COUNT>
1

> <PUBCHEM_CACTVS_TAUTO_COUNT>
-1

> <PUBCHEM_COORDINATE_TYPE>
1
5
255

> <PUBCHEM_BONDANNOTATIONS>
19  20  8
19  25  8
2  31  8
2  7  8
20  26  8
25  27  8
26  28  8
27  28  8
29  30  8
3  13  8
3  21  8
30  31  8
5  13  8
5  6  8
6  21  8
7  29  8

$$$$
