155531012
  -OEChem-09292322402D

 59 62  0     0  0  0  0  0  0999 V2000
   15.7619    0.0121    0.0000 Cl  0  0  0  0  0  0  0  0  0  0  0  0
   16.7619    1.7442    0.0000 Cl  0  0  0  0  0  0  0  0  0  0  0  0
    4.6783   -1.6586    0.0000 S   0  0  0  0  0  0  0  0  0  0  0  0
    5.4883   -2.2450    0.0000 O   0  0  0  0  0  0  0  0  0  0  0  0
    4.3709   -2.6102    0.0000 O   0  0  0  0  0  0  0  0  0  0  0  0
    4.9889    0.9014    0.0000 O   0  0  0  0  0  0  0  0  0  0  0  0
   10.7619    1.7442    0.0000 N   0  0  0  0  0  0  0  0  0  0  0  0
   12.7619    1.7442    0.0000 N   0  0  0  0  0  0  0  0  0  0  0  0
    5.2619   -0.8539    0.0000 N   0  0  0  0  0  0  0  0  0  0  0  0
   11.2619    2.6102    0.0000 C   0  0  0  0  0  0  0  0  0  0  0  0
   11.2619    0.8782    0.0000 C   0  0  0  0  0  0  0  0  0  0  0  0
    9.7619    1.7442    0.0000 C   0  0  0  0  0  0  0  0  0  0  0  0
   12.2619    2.6102    0.0000 C   0  0  0  0  0  0  0  0  0  0  0  0
   12.2619    0.8782    0.0000 C   0  0  0  0  0  0  0  0  0  0  0  0
    9.2619    0.8782    0.0000 C   0  0  0  0  0  0  0  0  0  0  0  0
    8.2619    0.8782    0.0000 C   0  0  0  0  0  0  0  0  0  0  0  0
    7.7619    0.0121    0.0000 C   0  0  0  0  0  0  0  0  0  0  0  0
    6.7619    0.0121    0.0000 C   0  0  0  0  0  0  0  0  0  0  0  0
    6.2619   -0.8539    0.0000 C   0  0  0  0  0  0  0  0  0  0  0  0
   13.7619    1.7442    0.0000 C   0  0  0  0  0  0  0  0  0  0  0  0
    3.7320   -1.3539    0.0000 C   0  0  0  0  0  0  0  0  0  0  0  0
    4.6783   -0.0492    0.0000 C   0  0  0  0  0  0  0  0  0  0  0  0
    3.7320   -0.3539    0.0000 C   0  0  0  0  0  0  0  0  0  0  0  0
   14.2619    0.8782    0.0000 C   0  0  0  0  0  0  0  0  0  0  0  0
   14.2619    2.6102    0.0000 C   0  0  0  0  0  0  0  0  0  0  0  0
    2.8660   -1.8539    0.0000 C   0  0  0  0  0  0  0  0  0  0  0  0
    2.8660    0.1461    0.0000 C   0  0  0  0  0  0  0  0  0  0  0  0
   15.2619    0.8782    0.0000 C   0  0  0  0  0  0  0  0  0  0  0  0
   15.2619    2.6102    0.0000 C   0  0  0  0  0  0  0  0  0  0  0  0
    2.0000   -1.3539    0.0000 C   0  0  0  0  0  0  0  0  0  0  0  0
    2.0000   -0.3539    0.0000 C   0  0  0  0  0  0  0  0  0  0  0  0
   15.7619    1.7442    0.0000 C   0  0  0  0  0  0  0  0  0  0  0  0
   11.3695    3.2208    0.0000 H   0  0  0  0  0  0  0  0  0  0  0  0
   10.6793    2.8223    0.0000 H   0  0  0  0  0  0  0  0  0  0  0  0
   10.6793    0.6661    0.0000 H   0  0  0  0  0  0  0  0  0  0  0  0
   11.3695    0.2676    0.0000 H   0  0  0  0  0  0  0  0  0  0  0  0
    9.8695    2.3548    0.0000 H   0  0  0  0  0  0  0  0  0  0  0  0
    9.1793    1.9562    0.0000 H   0  0  0  0  0  0  0  0  0  0  0  0
   12.8445    2.8223    0.0000 H   0  0  0  0  0  0  0  0  0  0  0  0
   12.1542    3.2208    0.0000 H   0  0  0  0  0  0  0  0  0  0  0  0
   12.1542    0.2676    0.0000 H   0  0  0  0  0  0  0  0  0  0  0  0
   12.8445    0.6661    0.0000 H   0  0  0  0  0  0  0  0  0  0  0  0
    9.1542    0.2676    0.0000 H   0  0  0  0  0  0  0  0  0  0  0  0
    9.8445    0.6661    0.0000 H   0  0  0  0  0  0  0  0  0  0  0  0
    8.3695    1.4887    0.0000 H   0  0  0  0  0  0  0  0  0  0  0  0
    7.6793    1.0902    0.0000 H   0  0  0  0  0  0  0  0  0  0  0  0
    7.6542   -0.5984    0.0000 H   0  0  0  0  0  0  0  0  0  0  0  0
    8.3445   -0.1999    0.0000 H   0  0  0  0  0  0  0  0  0  0  0  0
    6.8695    0.6227    0.0000 H   0  0  0  0  0  0  0  0  0  0  0  0
    6.1793    0.2242    0.0000 H   0  0  0  0  0  0  0  0  0  0  0  0
    6.1542   -1.4645    0.0000 H   0  0  0  0  0  0  0  0  0  0  0  0
    6.8445   -1.0659    0.0000 H   0  0  0  0  0  0  0  0  0  0  0  0
   13.9519    0.3412    0.0000 H   0  0  0  0  0  0  0  0  0  0  0  0
   13.9519    3.1472    0.0000 H   0  0  0  0  0  0  0  0  0  0  0  0
    2.8660   -2.4739    0.0000 H   0  0  0  0  0  0  0  0  0  0  0  0
    2.8660    0.7661    0.0000 H   0  0  0  0  0  0  0  0  0  0  0  0
   15.5719    3.1472    0.0000 H   0  0  0  0  0  0  0  0  0  0  0  0
    1.4631   -1.6639    0.0000 H   0  0  0  0  0  0  0  0  0  0  0  0
    1.4631   -0.0439    0.0000 H   0  0  0  0  0  0  0  0  0  0  0  0
  1 28  1  0  0  0  0
  2 32  1  0  0  0  0
  3  4  2  0  0  0  0
  3  5  2  0  0  0  0
  3  9  1  0  0  0  0
  3 21  1  0  0  0  0
  6 22  2  0  0  0  0
  7 10  1  0  0  0  0
  7 11  1  0  0  0  0
  7 12  1  0  0  0  0
  8 13  1  0  0  0  0
  8 14  1  0  0  0  0
  8 20  1  0  0  0  0
  9 19  1  0  0  0  0
  9 22  1  0  0  0  0
 10 13  1  0  0  0  0
 10 33  1  0  0  0  0
 10 34  1  0  0  0  0
 11 14  1  0  0  0  0
 11 35  1  0  0  0  0
 11 36  1  0  0  0  0
 12 15  1  0  0  0  0
 12 37  1  0  0  0  0
 12 38  1  0  0  0  0
 13 39  1  0  0  0  0
 13 40  1  0  0  0  0
 14 41  1  0  0  0  0
 14 42  1  0  0  0  0
 15 16  1  0  0  0  0
 15 43  1  0  0  0  0
 15 44  1  0  0  0  0
 16 17  1  0  0  0  0
 16 45  1  0  0  0  0
 16 46  1  0  0  0  0
 17 18  1  0  0  0  0
 17 47  1  0  0  0  0
 17 48  1  0  0  0  0
 18 19  1  0  0  0  0
 18 49  1  0  0  0  0
 18 50  1  0  0  0  0
 19 51  1  0  0  0  0
 19 52  1  0  0  0  0
 20 24  2  0  0  0  0
 20 25  1  0  0  0  0
 21 23  1  0  0  0  0
 21 26  2  0  0  0  0
 22 23  1  0  0  0  0
 23 27  2  0  0  0  0
 24 28  1  0  0  0  0
 24 53  1  0  0  0  0
 25 29  2  0  0  0  0
 25 54  1  0  0  0  0
 26 30  1  0  0  0  0
 26 55  1  0  0  0  0
 27 31  1  0  0  0  0
 27 56  1  0  0  0  0
 28 32  2  0  0  0  0
 29 32  1  0  0  0  0
 29 57  1  0  0  0  0
 30 31  2  0  0  0  0
 30 58  1  0  0  0  0
 31 59  1  0  0  0  0
M  END
> <PUBCHEM_COMPOUND_CID>
155531012

> <PUBCHEM_COMPOUND_CANONICALIZED>
1

> <PUBCHEM_CACTVS_COMPLEXITY>
739

> <PUBCHEM_CACTVS_HBOND_ACCEPTOR>
5

> <PUBCHEM_CACTVS_HBOND_DONOR>
0

> <PUBCHEM_CACTVS_ROTATABLE_BOND>
8

> <PUBCHEM_CACTVS_SUBSKEYS>
AAADceB7MABGAAAAAAAAAAAAAAAAAWAAAAA8YIAAAAAAAFgBQAAAHgYAQAAADArB2CQwwYMAAAKIAiVSUHDCABAlBwAIilkIZsgIYDLBl5GUIQhghgDIyYcYiACOAABAAAIEAAQAAIAABAgACAAAAAAAAA==

> <PUBCHEM_IUPAC_OPENEYE_NAME>
2-[6-[4-(3,4-dichlorophenyl)piperazin-1-yl]hexyl]-1,1-dioxo-1,2-benzothiazol-3-one

> <PUBCHEM_IUPAC_CAS_NAME>
2-[6-[4-(3,4-dichlorophenyl)-1-piperazinyl]hexyl]-1,1-dioxo-1,2-benzothiazol-3-one

> <PUBCHEM_IUPAC_NAME_MARKUP>
2-[6-[4-(3,4-dichlorophenyl)piperazin-1-yl]hexyl]-1,1-dioxo-1,2-benzothiazol-3-one

> <PUBCHEM_IUPAC_NAME>
2-[6-[4-(3,4-dichlorophenyl)piperazin-1-yl]hexyl]-1,1-dioxo-1,2-benzothiazol-3-one

> <PUBCHEM_IUPAC_SYSTEMATIC_NAME>
2-[6-[4-(3,4-dichlorophenyl)piperazin-1-yl]hexyl]-1,1-bis(oxidanylidene)-1,2-benzothiazol-3-one

> <PUBCHEM_IUPAC_TRADITIONAL_NAME>
2-[6-[4-(3,4-dichlorophenyl)piperazino]hexyl]-1,1-diketo-1,2-benzothiazol-3-one

> <PUBCHEM_IUPAC_INCHI>
InChI=1S/C23H27Cl2N3O3S/c24-20-10-9-18(17-21(20)25)27-15-13-26(14-16-27)11-5-1-2-6-12-28-23(29)19-7-3-4-8-22(19)32(28,30)31/h3-4,7-10,17H,1-2,5-6,11-16H2

> <PUBCHEM_IUPAC_INCHIKEY>
LKCRBUFMFBJKHT-UHFFFAOYSA-N

> <PUBCHEM_XLOGP3_AA>
4.9

> <PUBCHEM_EXACT_MASS>
495.1150183

> <PUBCHEM_MOLECULAR_FORMULA>
C23H27Cl2N3O3S

> <PUBCHEM_MOLECULAR_WEIGHT>
496.4

> <PUBCHEM_OPENEYE_CAN_SMILES>
C1CN(CCN1CCCCCCN2C(=O)C3=CC=CC=C3S2(=O)=O)C4=CC(=C(C=C4)Cl)Cl

> <PUBCHEM_OPENEYE_ISO_SMILES>
C1CN(CCN1CCCCCCN2C(=O)C3=CC=CC=C3S2(=O)=O)C4=CC(=C(C=C4)Cl)Cl

> <PUBCHEM_CACTVS_TPSA>
69.3

> <PUBCHEM_MONOISOTOPIC_WEIGHT>
495.1150183

> <PUBCHEM_TOTAL_CHARGE>
0

> <PUBCHEM_HEAVY_ATOM_COUNT>
32

> <PUBCHEM_ATOM_DEF_STEREO_COUNT>
0

> <PUBCHEM_ATOM_UDEF_STEREO_COUNT>
0

> <PUBCHEM_BOND_DEF_STEREO_COUNT>
0

> <PUBCHEM_BOND_UDEF_STEREO_COUNT>
0

> <PUBCHEM_ISOTOPIC_ATOM_COUNT>
0

> <PUBCHEM_COMPONENT_COUNT>
1

> <PUBCHEM_CACTVS_TAUTO_COUNT>
-1

> <PUBCHEM_COORDINATE_TYPE>
1
5
255

> <PUBCHEM_BONDANNOTATIONS>
20  24  8
20  25  8
21  23  8
21  26  8
23  27  8
24  28  8
25  29  8
26  30  8
27  31  8
28  32  8
29  32  8
30  31  8

$$$$
