71453281
  -OEChem-09292322332D

 55 57  0     1  0  0  0  0  0999 V2000
    2.0000   -5.1873    0.0000 Cl  0  0  0  0  0  0  0  0  0  0  0  0
    3.7320   -2.1873    0.0000 S   0  0  0  0  0  0  0  0  0  0  0  0
    7.4888    2.4467    0.0000 O   0  0  0  0  0  0  0  0  0  0  0  0
    4.7320   -2.1873    0.0000 O   0  0  0  0  0  0  0  0  0  0  0  0
    2.7320   -2.1873    0.0000 O   0  0  0  0  0  0  0  0  0  0  0  0
    5.6808    0.5151    0.0000 N   0  0  3  0  0  0  0  0  0  0  0  0
    3.7320   -1.1873    0.0000 N   0  0  0  0  0  0  0  0  0  0  0  0
    4.5981   -0.6873    0.0000 C   0  0  3  0  0  0  0  0  0  0  0  0
    4.7026    0.3072    0.0000 C   0  0  0  0  0  0  0  0  0  0  0  0
    5.5116   -1.0941    0.0000 C   0  0  0  0  0  0  0  0  0  0  0  0
    6.1808   -0.3509    0.0000 C   0  0  0  0  0  0  0  0  0  0  0  0
    6.0875    1.4286    0.0000 C   0  0  0  0  0  0  0  0  0  0  0  0
    7.0820    1.5332    0.0000 C   0  0  0  0  0  0  0  0  0  0  0  0
    3.7320   -3.1873    0.0000 C   0  0  0  0  0  0  0  0  0  0  0  0
    8.4833    2.5512    0.0000 C   0  0  0  0  0  0  0  0  0  0  0  0
    8.8900    3.4648    0.0000 C   0  0  0  0  0  0  0  0  0  0  0  0
    8.3022    4.2738    0.0000 C   0  0  0  0  0  0  0  0  0  0  0  0
    2.8660   -3.6873    0.0000 C   0  0  0  0  0  0  0  0  0  0  0  0
    4.5981   -3.6873    0.0000 C   0  0  0  0  0  0  0  0  0  0  0  0
    9.0710    1.7422    0.0000 C   0  0  0  0  0  0  0  0  0  0  0  0
    9.8845    3.5693    0.0000 C   0  0  0  0  0  0  0  0  0  0  0  0
    8.7090    5.1873    0.0000 C   0  0  0  0  0  0  0  0  0  0  0  0
    7.3077    4.1693    0.0000 C   0  0  0  0  0  0  0  0  0  0  0  0
    2.8660   -4.6873    0.0000 C   0  0  0  0  0  0  0  0  0  0  0  0
    4.5981   -4.6873    0.0000 C   0  0  0  0  0  0  0  0  0  0  0  0
   10.0656    1.8468    0.0000 C   0  0  0  0  0  0  0  0  0  0  0  0
    3.7320   -5.1873    0.0000 C   0  0  0  0  0  0  0  0  0  0  0  0
   10.4723    2.7603    0.0000 C   0  0  0  0  0  0  0  0  0  0  0  0
    4.0781   -0.3497    0.0000 H   0  0  0  0  0  0  0  0  0  0  0  0
    4.6378    0.9238    0.0000 H   0  0  0  0  0  0  0  0  0  0  0  0
    4.0826    0.3072    0.0000 H   0  0  0  0  0  0  0  0  0  0  0  0
    5.2016   -1.6310    0.0000 H   0  0  0  0  0  0  0  0  0  0  0  0
    6.0132   -1.4585    0.0000 H   0  0  0  0  0  0  0  0  0  0  0  0
    6.5956   -0.8117    0.0000 H   0  0  0  0  0  0  0  0  0  0  0  0
    6.6823    0.0135    0.0000 H   0  0  0  0  0  0  0  0  0  0  0  0
    6.1307    2.0471    0.0000 H   0  0  0  0  0  0  0  0  0  0  0  0
    5.4859    1.5786    0.0000 H   0  0  0  0  0  0  0  0  0  0  0  0
    3.1951   -0.8773    0.0000 H   0  0  0  0  0  0  0  0  0  0  0  0
    7.0388    0.9147    0.0000 H   0  0  0  0  0  0  0  0  0  0  0  0
    7.6836    1.3832    0.0000 H   0  0  0  0  0  0  0  0  0  0  0  0
    7.9378    4.7754    0.0000 H   0  0  0  0  0  0  0  0  0  0  0  0
    2.3291   -3.3773    0.0000 H   0  0  0  0  0  0  0  0  0  0  0  0
    5.1350   -3.3773    0.0000 H   0  0  0  0  0  0  0  0  0  0  0  0
    8.8189    1.1758    0.0000 H   0  0  0  0  0  0  0  0  0  0  0  0
   10.1367    4.1357    0.0000 H   0  0  0  0  0  0  0  0  0  0  0  0
    9.2754    4.9352    0.0000 H   0  0  0  0  0  0  0  0  0  0  0  0
    8.9611    5.7537    0.0000 H   0  0  0  0  0  0  0  0  0  0  0  0
    8.1426    5.4395    0.0000 H   0  0  0  0  0  0  0  0  0  0  0  0
    7.2429    4.7859    0.0000 H   0  0  0  0  0  0  0  0  0  0  0  0
    6.6911    4.1045    0.0000 H   0  0  0  0  0  0  0  0  0  0  0  0
    7.3725    3.5527    0.0000 H   0  0  0  0  0  0  0  0  0  0  0  0
    5.1350   -4.9973    0.0000 H   0  0  0  0  0  0  0  0  0  0  0  0
   10.4300    1.3452    0.0000 H   0  0  0  0  0  0  0  0  0  0  0  0
    3.7320   -5.8073    0.0000 H   0  0  0  0  0  0  0  0  0  0  0  0
   11.0889    2.8251    0.0000 H   0  0  0  0  0  0  0  0  0  0  0  0
  1 24  1  0  0  0  0
  2  4  2  0  0  0  0
  2  5  2  0  0  0  0
  2  7  1  0  0  0  0
  2 14  1  0  0  0  0
  3 13  1  0  0  0  0
  3 15  1  0  0  0  0
  6  9  1  0  0  0  0
  6 11  1  0  0  0  0
  6 12  1  0  0  0  0
  7  8  1  0  0  0  0
  7 38  1  0  0  0  0
  8  9  1  0  0  0  0
  8 10  1  0  0  0  0
  8 29  1  0  0  0  0
  9 30  1  0  0  0  0
  9 31  1  0  0  0  0
 10 11  1  0  0  0  0
 10 32  1  0  0  0  0
 10 33  1  0  0  0  0
 11 34  1  0  0  0  0
 11 35  1  0  0  0  0
 12 13  1  0  0  0  0
 12 36  1  0  0  0  0
 12 37  1  0  0  0  0
 13 39  1  0  0  0  0
 13 40  1  0  0  0  0
 14 18  2  0  0  0  0
 14 19  1  0  0  0  0
 15 16  1  0  0  0  0
 15 20  2  0  0  0  0
 16 17  1  0  0  0  0
 16 21  2  0  0  0  0
 17 22  1  0  0  0  0
 17 23  1  0  0  0  0
 17 41  1  0  0  0  0
 18 24  1  0  0  0  0
 18 42  1  0  0  0  0
 19 25  2  0  0  0  0
 19 43  1  0  0  0  0
 20 26  1  0  0  0  0
 20 44  1  0  0  0  0
 21 28  1  0  0  0  0
 21 45  1  0  0  0  0
 22 46  1  0  0  0  0
 22 47  1  0  0  0  0
 22 48  1  0  0  0  0
 23 49  1  0  0  0  0
 23 50  1  0  0  0  0
 23 51  1  0  0  0  0
 24 27  2  0  0  0  0
 25 27  1  0  0  0  0
 25 52  1  0  0  0  0
 26 28  2  0  0  0  0
 26 53  1  0  0  0  0
 27 54  1  0  0  0  0
 28 55  1  0  0  0  0
M  END
> <PUBCHEM_COMPOUND_CID>
71453281

> <PUBCHEM_COMPOUND_CANONICALIZED>
1

> <PUBCHEM_CACTVS_COMPLEXITY>
581

> <PUBCHEM_CACTVS_HBOND_ACCEPTOR>
5

> <PUBCHEM_CACTVS_HBOND_DONOR>
1

> <PUBCHEM_CACTVS_ROTATABLE_BOND>
8

> <PUBCHEM_CACTVS_SUBSKEYS>
AAADceB7MABEAAAAAAAAAAAAAAAAAWAAAAAwYAAAAAAAAAABQAAAHgYQQAAADS7h2CYyB4NABAKAAiBCAHBCCBAgJQAIiJgOCogOZiKF8xqXOCCk0BGYqAeAwOAOgAAAABAIAAAAAAAAIBAAAAAAAAAAAA==

> <PUBCHEM_IUPAC_OPENEYE_NAME>
3-chloro-N-[1-[2-(2-isopropylphenoxy)ethyl]pyrrolidin-3-yl]benzenesulfonamide

> <PUBCHEM_IUPAC_CAS_NAME>
3-chloro-N-[1-[2-(2-propan-2-ylphenoxy)ethyl]-3-pyrrolidinyl]benzenesulfonamide

> <PUBCHEM_IUPAC_NAME_MARKUP>
3-chloro-<I>N</I>-[1-[2-(2-propan-2-ylphenoxy)ethyl]pyrrolidin-3-yl]benzenesulfonamide

> <PUBCHEM_IUPAC_NAME>
3-chloro-N-[1-[2-(2-propan-2-ylphenoxy)ethyl]pyrrolidin-3-yl]benzenesulfonamide

> <PUBCHEM_IUPAC_SYSTEMATIC_NAME>
3-chloranyl-N-[1-[2-(2-propan-2-ylphenoxy)ethyl]pyrrolidin-3-yl]benzenesulfonamide

> <PUBCHEM_IUPAC_TRADITIONAL_NAME>
3-chloro-N-[1-[2-(2-isopropylphenoxy)ethyl]pyrrolidin-3-yl]benzenesulfonamide

> <PUBCHEM_IUPAC_INCHI>
InChI=1S/C21H27ClN2O3S/c1-16(2)20-8-3-4-9-21(20)27-13-12-24-11-10-18(15-24)23-28(25,26)19-7-5-6-17(22)14-19/h3-9,14,16,18,23H,10-13,15H2,1-2H3

> <PUBCHEM_IUPAC_INCHIKEY>
VLUZXILOPLVBGT-UHFFFAOYSA-N

> <PUBCHEM_XLOGP3_AA>
4.5

> <PUBCHEM_EXACT_MASS>
422.1430916

> <PUBCHEM_MOLECULAR_FORMULA>
C21H27ClN2O3S

> <PUBCHEM_MOLECULAR_WEIGHT>
423.0

> <PUBCHEM_OPENEYE_CAN_SMILES>
CC(C)C1=CC=CC=C1OCCN2CCC(C2)NS(=O)(=O)C3=CC(=CC=C3)Cl

> <PUBCHEM_OPENEYE_ISO_SMILES>
CC(C)C1=CC=CC=C1OCCN2CCC(C2)NS(=O)(=O)C3=CC(=CC=C3)Cl

> <PUBCHEM_CACTVS_TPSA>
67

> <PUBCHEM_MONOISOTOPIC_WEIGHT>
422.1430916

> <PUBCHEM_TOTAL_CHARGE>
0

> <PUBCHEM_HEAVY_ATOM_COUNT>
28

> <PUBCHEM_ATOM_DEF_STEREO_COUNT>
0

> <PUBCHEM_ATOM_UDEF_STEREO_COUNT>
1

> <PUBCHEM_BOND_DEF_STEREO_COUNT>
0

> <PUBCHEM_BOND_UDEF_STEREO_COUNT>
0

> <PUBCHEM_ISOTOPIC_ATOM_COUNT>
0

> <PUBCHEM_COMPONENT_COUNT>
1

> <PUBCHEM_CACTVS_TAUTO_COUNT>
-1

> <PUBCHEM_COORDINATE_TYPE>
1
5
255

> <PUBCHEM_BONDANNOTATIONS>
14  18  8
14  19  8
15  16  8
15  20  8
16  21  8
18  24  8
19  25  8
20  26  8
21  28  8
24  27  8
25  27  8
26  28  8
8  7  3

$$$$
