9983212
  -OEChem-09292322272D

 72 74  0     0  0  0  0  0  0999 V2000
    3.3660   -6.9330    0.0000 F   0  0  0  0  0  0  0  0  0  0  0  0
    2.0000   -6.5670    0.0000 F   0  0  0  0  0  0  0  0  0  0  0  0
    2.3660   -5.2010    0.0000 F   0  0  0  0  0  0  0  0  0  0  0  0
    8.0622    2.9330    0.0000 O   0  0  0  0  0  0  0  0  0  0  0  0
    4.5981   -1.0670    0.0000 N   0  0  0  0  0  0  0  0  0  0  0  0
    4.5981   -3.0670    0.0000 N   0  0  0  0  0  0  0  0  0  0  0  0
    5.4641   -4.5670    0.0000 N   0  0  0  0  0  0  0  0  0  0  0  0
    6.3301    2.9330    0.0000 N   0  0  0  0  0  0  0  0  0  0  0  0
    4.5981   -6.0670    0.0000 N   0  0  0  0  0  0  0  0  0  0  0  0
    7.1962    4.4330    0.0000 N   0  0  0  0  0  0  0  0  0  0  0  0
    5.4641   -1.5670    0.0000 C   0  0  0  0  0  0  0  0  0  0  0  0
    3.7320   -1.5670    0.0000 C   0  0  0  0  0  0  0  0  0  0  0  0
    5.4641   -2.5670    0.0000 C   0  0  0  0  0  0  0  0  0  0  0  0
    3.7320   -2.5670    0.0000 C   0  0  0  0  0  0  0  0  0  0  0  0
    4.5981   -0.0670    0.0000 C   0  0  0  0  0  0  0  0  0  0  0  0
    5.4641    0.4330    0.0000 C   0  0  0  0  0  0  0  0  0  0  0  0
    5.4641    1.4330    0.0000 C   0  0  0  0  0  0  0  0  0  0  0  0
    4.5981   -4.0670    0.0000 C   0  0  0  0  0  0  0  0  0  0  0  0
    6.3301    1.9330    0.0000 C   0  0  0  0  0  0  0  0  0  0  0  0
    6.3301   -6.0670    0.0000 C   0  0  0  0  0  0  0  0  0  0  0  0
    5.4641   -5.5670    0.0000 C   0  0  0  0  0  0  0  0  0  0  0  0
    3.7320   -4.5670    0.0000 C   0  0  0  0  0  0  0  0  0  0  0  0
    6.3301    5.9330    0.0000 C   0  0  0  0  0  0  0  0  0  0  0  0
    3.7320   -5.5670    0.0000 C   0  0  0  0  0  0  0  0  0  0  0  0
    7.1962   -6.5670    0.0000 C   0  0  0  0  0  0  0  0  0  0  0  0
    5.8301   -6.9330    0.0000 C   0  0  0  0  0  0  0  0  0  0  0  0
    6.8301   -5.2010    0.0000 C   0  0  0  0  0  0  0  0  0  0  0  0
    6.3301    4.9330    0.0000 C   0  0  0  0  0  0  0  0  0  0  0  0
    5.4641    3.4330    0.0000 C   0  0  0  0  0  0  0  0  0  0  0  0
    7.1962    3.4330    0.0000 C   0  0  0  0  0  0  0  0  0  0  0  0
    5.4641    4.4330    0.0000 C   0  0  0  0  0  0  0  0  0  0  0  0
    6.3301    6.9330    0.0000 C   0  0  0  0  0  0  0  0  0  0  0  0
    5.3301    5.9330    0.0000 C   0  0  0  0  0  0  0  0  0  0  0  0
    7.3301    5.9330    0.0000 C   0  0  0  0  0  0  0  0  0  0  0  0
    2.8660   -6.0670    0.0000 C   0  0  0  0  0  0  0  0  0  0  0  0
    6.0747   -1.6746    0.0000 H   0  0  0  0  0  0  0  0  0  0  0  0
    5.6762   -0.9844    0.0000 H   0  0  0  0  0  0  0  0  0  0  0  0
    3.5200   -0.9844    0.0000 H   0  0  0  0  0  0  0  0  0  0  0  0
    3.1215   -1.6746    0.0000 H   0  0  0  0  0  0  0  0  0  0  0  0
    5.6762   -3.1496    0.0000 H   0  0  0  0  0  0  0  0  0  0  0  0
    6.0747   -2.4593    0.0000 H   0  0  0  0  0  0  0  0  0  0  0  0
    3.1215   -2.4593    0.0000 H   0  0  0  0  0  0  0  0  0  0  0  0
    3.5200   -3.1496    0.0000 H   0  0  0  0  0  0  0  0  0  0  0  0
    4.3860    0.5156    0.0000 H   0  0  0  0  0  0  0  0  0  0  0  0
    3.9875   -0.1746    0.0000 H   0  0  0  0  0  0  0  0  0  0  0  0
    5.6762   -0.1496    0.0000 H   0  0  0  0  0  0  0  0  0  0  0  0
    6.0747    0.5407    0.0000 H   0  0  0  0  0  0  0  0  0  0  0  0
    5.2520    2.0156    0.0000 H   0  0  0  0  0  0  0  0  0  0  0  0
    4.8535    1.3254    0.0000 H   0  0  0  0  0  0  0  0  0  0  0  0
    6.5422    1.3504    0.0000 H   0  0  0  0  0  0  0  0  0  0  0  0
    6.9407    2.0407    0.0000 H   0  0  0  0  0  0  0  0  0  0  0  0
    3.1951   -4.2570    0.0000 H   0  0  0  0  0  0  0  0  0  0  0  0
    6.8862   -7.1039    0.0000 H   0  0  0  0  0  0  0  0  0  0  0  0
    7.7331   -6.8770    0.0000 H   0  0  0  0  0  0  0  0  0  0  0  0
    7.5062   -6.0300    0.0000 H   0  0  0  0  0  0  0  0  0  0  0  0
    5.2932   -6.6230    0.0000 H   0  0  0  0  0  0  0  0  0  0  0  0
    5.5201   -7.4700    0.0000 H   0  0  0  0  0  0  0  0  0  0  0  0
    6.3671   -7.2430    0.0000 H   0  0  0  0  0  0  0  0  0  0  0  0
    7.3671   -5.5110    0.0000 H   0  0  0  0  0  0  0  0  0  0  0  0
    7.1401   -4.6640    0.0000 H   0  0  0  0  0  0  0  0  0  0  0  0
    6.2932   -4.8910    0.0000 H   0  0  0  0  0  0  0  0  0  0  0  0
    4.9272    3.1230    0.0000 H   0  0  0  0  0  0  0  0  0  0  0  0
    4.9272    4.7430    0.0000 H   0  0  0  0  0  0  0  0  0  0  0  0
    6.9501    6.9330    0.0000 H   0  0  0  0  0  0  0  0  0  0  0  0
    6.3301    7.5530    0.0000 H   0  0  0  0  0  0  0  0  0  0  0  0
    5.7101    6.9330    0.0000 H   0  0  0  0  0  0  0  0  0  0  0  0
    5.3301    6.5530    0.0000 H   0  0  0  0  0  0  0  0  0  0  0  0
    4.7101    5.9330    0.0000 H   0  0  0  0  0  0  0  0  0  0  0  0
    5.3301    5.3130    0.0000 H   0  0  0  0  0  0  0  0  0  0  0  0
    7.3301    5.3130    0.0000 H   0  0  0  0  0  0  0  0  0  0  0  0
    7.9501    5.9330    0.0000 H   0  0  0  0  0  0  0  0  0  0  0  0
    7.3301    6.5530    0.0000 H   0  0  0  0  0  0  0  0  0  0  0  0
  1 35  1  0  0  0  0
  2 35  1  0  0  0  0
  3 35  1  0  0  0  0
  4 30  2  0  0  0  0
  5 11  1  0  0  0  0
  5 12  1  0  0  0  0
  5 15  1  0  0  0  0
  6 13  1  0  0  0  0
  6 14  1  0  0  0  0
  6 18  1  0  0  0  0
  7 18  2  0  0  0  0
  7 21  1  0  0  0  0
  8 19  1  0  0  0  0
  8 29  1  0  0  0  0
  8 30  1  0  0  0  0
  9 21  2  0  0  0  0
  9 24  1  0  0  0  0
 10 28  2  0  0  0  0
 10 30  1  0  0  0  0
 11 13  1  0  0  0  0
 11 36  1  0  0  0  0
 11 37  1  0  0  0  0
 12 14  1  0  0  0  0
 12 38  1  0  0  0  0
 12 39  1  0  0  0  0
 13 40  1  0  0  0  0
 13 41  1  0  0  0  0
 14 42  1  0  0  0  0
 14 43  1  0  0  0  0
 15 16  1  0  0  0  0
 15 44  1  0  0  0  0
 15 45  1  0  0  0  0
 16 17  1  0  0  0  0
 16 46  1  0  0  0  0
 16 47  1  0  0  0  0
 17 19  1  0  0  0  0
 17 48  1  0  0  0  0
 17 49  1  0  0  0  0
 18 22  1  0  0  0  0
 19 50  1  0  0  0  0
 19 51  1  0  0  0  0
 20 21  1  0  0  0  0
 20 25  1  0  0  0  0
 20 26  1  0  0  0  0
 20 27  1  0  0  0  0
 22 24  2  0  0  0  0
 22 52  1  0  0  0  0
 23 28  1  0  0  0  0
 23 32  1  0  0  0  0
 23 33  1  0  0  0  0
 23 34  1  0  0  0  0
 24 35  1  0  0  0  0
 25 53  1  0  0  0  0
 25 54  1  0  0  0  0
 25 55  1  0  0  0  0
 26 56  1  0  0  0  0
 26 57  1  0  0  0  0
 26 58  1  0  0  0  0
 27 59  1  0  0  0  0
 27 60  1  0  0  0  0
 27 61  1  0  0  0  0
 28 31  1  0  0  0  0
 29 31  2  0  0  0  0
 29 62  1  0  0  0  0
 31 63  1  0  0  0  0
 32 64  1  0  0  0  0
 32 65  1  0  0  0  0
 32 66  1  0  0  0  0
 33 67  1  0  0  0  0
 33 68  1  0  0  0  0
 33 69  1  0  0  0  0
 34 70  1  0  0  0  0
 34 71  1  0  0  0  0
 34 72  1  0  0  0  0
M  END
> <PUBCHEM_COMPOUND_CID>
9983212

> <PUBCHEM_COMPOUND_CANONICALIZED>
1

> <PUBCHEM_CACTVS_COMPLEXITY>
791

> <PUBCHEM_CACTVS_HBOND_ACCEPTOR>
8

> <PUBCHEM_CACTVS_HBOND_DONOR>
0

> <PUBCHEM_CACTVS_ROTATABLE_BOND>
8

> <PUBCHEM_CACTVS_SUBSKEYS>
AAADcfB7oYAAAAAAAAAAAAAAAAAAAAAAAAAsWIAAAAAAAAABgAAAHwAAAAAADgjBFxQzsJcIEACoASZmdACAgCkhAqAJGCA4ZBiAaABAyMAUBAhIhgLAQCAAAAAJAAAAAAAAAAAAAAAAAAAAAAAAAAAAAA==

> <PUBCHEM_IUPAC_OPENEYE_NAME>
4-tert-butyl-1-[4-[4-[2-tert-butyl-6-(trifluoromethyl)pyrimidin-4-yl]piperazin-1-yl]butyl]pyrimidin-2-one

> <PUBCHEM_IUPAC_CAS_NAME>
4-tert-butyl-1-[4-[4-[2-tert-butyl-6-(trifluoromethyl)-4-pyrimidinyl]-1-piperazinyl]butyl]-2-pyrimidinone

> <PUBCHEM_IUPAC_NAME_MARKUP>
4-<I>tert</I>-butyl-1-[4-[4-[2-<I>tert</I>-butyl-6-(trifluoromethyl)pyrimidin-4-yl]piperazin-1-yl]butyl]pyrimidin-2-one

> <PUBCHEM_IUPAC_NAME>
4-tert-butyl-1-[4-[4-[2-tert-butyl-6-(trifluoromethyl)pyrimidin-4-yl]piperazin-1-yl]butyl]pyrimidin-2-one

> <PUBCHEM_IUPAC_SYSTEMATIC_NAME>
4-tert-butyl-1-[4-[4-[2-tert-butyl-6-(trifluoromethyl)pyrimidin-4-yl]piperazin-1-yl]butyl]pyrimidin-2-one

> <PUBCHEM_IUPAC_TRADITIONAL_NAME>
4-tert-butyl-1-[4-[4-[2-tert-butyl-6-(trifluoromethyl)pyrimidin-4-yl]piperazino]butyl]pyrimidin-2-one

> <PUBCHEM_IUPAC_INCHI>
InChI=1S/C25H37F3N6O/c1-23(2,3)18-9-12-34(22(35)30-18)11-8-7-10-32-13-15-33(16-14-32)20-17-19(25(26,27)28)29-21(31-20)24(4,5)6/h9,12,17H,7-8,10-11,13-16H2,1-6H3

> <PUBCHEM_IUPAC_INCHIKEY>
YVXCFLFONVBIJR-UHFFFAOYSA-N

> <PUBCHEM_XLOGP3_AA>
4.8

> <PUBCHEM_EXACT_MASS>
494.29809431

> <PUBCHEM_MOLECULAR_FORMULA>
C25H37F3N6O

> <PUBCHEM_MOLECULAR_WEIGHT>
494.6

> <PUBCHEM_OPENEYE_CAN_SMILES>
CC(C)(C)C1=NC(=O)N(C=C1)CCCCN2CCN(CC2)C3=NC(=NC(=C3)C(F)(F)F)C(C)(C)C

> <PUBCHEM_OPENEYE_ISO_SMILES>
CC(C)(C)C1=NC(=O)N(C=C1)CCCCN2CCN(CC2)C3=NC(=NC(=C3)C(F)(F)F)C(C)(C)C

> <PUBCHEM_CACTVS_TPSA>
64.9

> <PUBCHEM_MONOISOTOPIC_WEIGHT>
494.29809431

> <PUBCHEM_TOTAL_CHARGE>
0

> <PUBCHEM_HEAVY_ATOM_COUNT>
35

> <PUBCHEM_ATOM_DEF_STEREO_COUNT>
0

> <PUBCHEM_ATOM_UDEF_STEREO_COUNT>
0

> <PUBCHEM_BOND_DEF_STEREO_COUNT>
0

> <PUBCHEM_BOND_UDEF_STEREO_COUNT>
0

> <PUBCHEM_ISOTOPIC_ATOM_COUNT>
0

> <PUBCHEM_COMPONENT_COUNT>
1

> <PUBCHEM_CACTVS_TAUTO_COUNT>
-1

> <PUBCHEM_COORDINATE_TYPE>
1
5
255

> <PUBCHEM_BONDANNOTATIONS>
10  28  8
10  30  8
18  22  8
22  24  8
28  31  8
29  31  8
7  18  8
7  21  8
8  29  8
8  30  8
9  21  8
9  24  8

$$$$
