127042372
  -OEChem-09292322002D

 68 71  0     1  0  0  0  0  0999 V2000
   11.5001    2.5000    0.0000 Cl  0  0  0  0  0  0  0  0  0  0  0  0
    1.8936    2.1953    0.0000 S   0  0  0  0  0  0  0  0  0  0  0  0
    6.0565    9.8498    0.0000 F   0  0  0  0  0  0  0  0  0  0  0  0
    5.6905    8.4838    0.0000 F   0  0  0  0  0  0  0  0  0  0  0  0
    7.0565    8.1177    0.0000 F   0  0  0  0  0  0  0  0  0  0  0  0
    8.2885    8.9838    0.0000 O   0  0  0  0  0  0  0  0  0  0  0  0
    7.4225   10.4838    0.0000 O   0  0  0  0  0  0  0  0  0  0  0  0
    5.4379    2.0000    0.0000 N   0  0  3  0  0  0  0  0  0  0  0  0
    8.0360    2.5000    0.0000 N   0  0  0  0  0  0  0  0  0  0  0  0
    9.7680    3.5000    0.0000 N   0  0  0  0  0  0  0  0  0  0  0  0
    1.8936    3.8047    0.0000 N   0  0  0  0  0  0  0  0  0  0  0  0
    0.3100    3.0000    0.0000 N   0  0  0  0  0  0  0  0  0  0  0  0
   13.3123    3.6953    0.0000 N   0  0  0  0  0  0  0  0  0  0  0  0
    3.7058    0.0000    0.0000 N   0  0  0  0  0  0  0  0  0  0  0  0
    4.5719    2.5000    0.0000 C   0  0  1  0  0  0  0  0  0  0  0  0
    4.5719    3.5000    0.0000 C   0  0  0  0  0  0  0  0  0  0  0  0
    3.7058    2.0000    0.0000 C   0  0  0  0  0  0  0  0  0  0  0  0
    6.3039    2.5000    0.0000 C   0  0  0  0  0  0  0  0  0  0  0  0
    7.1700    2.0000    0.0000 C   0  0  0  0  0  0  0  0  0  0  0  0
    3.7058    4.0000    0.0000 C   0  0  0  0  0  0  0  0  0  0  0  0
    8.9020    2.0000    0.0000 C   0  0  0  0  0  0  0  0  0  0  0  0
    8.0360    3.5000    0.0000 C   0  0  0  0  0  0  0  0  0  0  0  0
    9.7680    2.5000    0.0000 C   0  0  0  0  0  0  0  0  0  0  0  0
    8.9020    4.0000    0.0000 C   0  0  0  0  0  0  0  0  0  0  0  0
    2.8398    2.5000    0.0000 C   0  0  0  0  0  0  0  0  0  0  0  0
    2.8398    3.5000    0.0000 C   0  0  0  0  0  0  0  0  0  0  0  0
    5.4379    1.0000    0.0000 C   0  0  0  0  0  0  0  0  0  0  0  0
   10.6341    4.0000    0.0000 C   0  0  0  0  0  0  0  0  0  0  0  0
    1.3100    3.0000    0.0000 C   0  0  0  0  0  0  0  0  0  0  0  0
   11.5001    3.5000    0.0000 C   0  0  0  0  0  0  0  0  0  0  0  0
   10.6341    5.0000    0.0000 C   0  0  0  0  0  0  0  0  0  0  0  0
    4.5719    0.5000    0.0000 C   0  0  0  0  0  0  0  0  0  0  0  0
   12.3661    4.0000    0.0000 C   0  0  0  0  0  0  0  0  0  0  0  0
   12.3661    5.0000    0.0000 C   0  0  0  0  0  0  0  0  0  0  0  0
   11.5001    5.5000    0.0000 C   0  0  0  0  0  0  0  0  0  0  0  0
   13.3123    5.3047    0.0000 C   0  0  0  0  0  0  0  0  0  0  0  0
   13.8959    4.5000    0.0000 C   0  0  0  0  0  0  0  0  0  0  0  0
    6.5565    8.9838    0.0000 C   0  0  0  0  0  0  0  0  0  0  0  0
    7.4225    9.4838    0.0000 C   0  0  0  0  0  0  0  0  0  0  0  0
    4.5719    1.8800    0.0000 H   0  0  0  0  0  0  0  0  0  0  0  0
    5.1825    3.3923    0.0000 H   0  0  0  0  0  0  0  0  0  0  0  0
    4.7839    4.0826    0.0000 H   0  0  0  0  0  0  0  0  0  0  0  0
    3.3073    1.5250    0.0000 H   0  0  0  0  0  0  0  0  0  0  0  0
    4.1044    1.5250    0.0000 H   0  0  0  0  0  0  0  0  0  0  0  0
    6.7025    2.9750    0.0000 H   0  0  0  0  0  0  0  0  0  0  0  0
    5.9054    2.9750    0.0000 H   0  0  0  0  0  0  0  0  0  0  0  0
    6.7714    1.5250    0.0000 H   0  0  0  0  0  0  0  0  0  0  0  0
    7.5685    1.5250    0.0000 H   0  0  0  0  0  0  0  0  0  0  0  0
    4.1044    4.4750    0.0000 H   0  0  0  0  0  0  0  0  0  0  0  0
    3.3073    4.4750    0.0000 H   0  0  0  0  0  0  0  0  0  0  0  0
    8.5035    1.5250    0.0000 H   0  0  0  0  0  0  0  0  0  0  0  0
    9.3005    1.5250    0.0000 H   0  0  0  0  0  0  0  0  0  0  0  0
    7.8239    4.0826    0.0000 H   0  0  0  0  0  0  0  0  0  0  0  0
    7.4254    3.3923    0.0000 H   0  0  0  0  0  0  0  0  0  0  0  0
    9.9801    1.9174    0.0000 H   0  0  0  0  0  0  0  0  0  0  0  0
   10.3786    2.6077    0.0000 H   0  0  0  0  0  0  0  0  0  0  0  0
    9.3005    4.4750    0.0000 H   0  0  0  0  0  0  0  0  0  0  0  0
    8.5035    4.4750    0.0000 H   0  0  0  0  0  0  0  0  0  0  0  0
    5.6500    0.4174    0.0000 H   0  0  0  0  0  0  0  0  0  0  0  0
    6.0485    1.1077    0.0000 H   0  0  0  0  0  0  0  0  0  0  0  0
   10.0971    5.3100    0.0000 H   0  0  0  0  0  0  0  0  0  0  0  0
   11.5001    6.1200    0.0000 H   0  0  0  0  0  0  0  0  0  0  0  0
    0.0000    3.5369    0.0000 H   0  0  0  0  0  0  0  0  0  0  0  0
    0.0000    2.4631    0.0000 H   0  0  0  0  0  0  0  0  0  0  0  0
   13.5049    3.1060    0.0000 H   0  0  0  0  0  0  0  0  0  0  0  0
   13.5049    5.8940    0.0000 H   0  0  0  0  0  0  0  0  0  0  0  0
   14.5159    4.5000    0.0000 H   0  0  0  0  0  0  0  0  0  0  0  0
    8.8255    9.2938    0.0000 H   0  0  0  0  0  0  0  0  0  0  0  0
  1 30  1  0  0  0  0
  2 25  1  0  0  0  0
  2 29  1  0  0  0  0
  3 38  1  0  0  0  0
  4 38  1  0  0  0  0
  5 38  1  0  0  0  0
  6 39  1  0  0  0  0
  6 68  1  0  0  0  0
  7 39  2  0  0  0  0
 15  8  1  6  0  0  0
  8 18  1  0  0  0  0
  8 27  1  0  0  0  0
  9 19  1  0  0  0  0
  9 21  1  0  0  0  0
  9 22  1  0  0  0  0
 10 23  1  0  0  0  0
 10 24  1  0  0  0  0
 10 28  1  0  0  0  0
 11 26  1  0  0  0  0
 11 29  2  0  0  0  0
 12 29  1  0  0  0  0
 12 63  1  0  0  0  0
 12 64  1  0  0  0  0
 13 33  1  0  0  0  0
 13 37  1  0  0  0  0
 13 65  1  0  0  0  0
 14 32  3  0  0  0  0
 15 16  1  0  0  0  0
 15 17  1  0  0  0  0
 15 40  1  0  0  0  0
 16 20  1  0  0  0  0
 16 41  1  0  0  0  0
 16 42  1  0  0  0  0
 17 25  1  0  0  0  0
 17 43  1  0  0  0  0
 17 44  1  0  0  0  0
 18 19  1  0  0  0  0
 18 45  1  0  0  0  0
 18 46  1  0  0  0  0
 19 47  1  0  0  0  0
 19 48  1  0  0  0  0
 20 26  1  0  0  0  0
 20 49  1  0  0  0  0
 20 50  1  0  0  0  0
 21 23  1  0  0  0  0
 21 51  1  0  0  0  0
 21 52  1  0  0  0  0
 22 24  1  0  0  0  0
 22 53  1  0  0  0  0
 22 54  1  0  0  0  0
 23 55  1  0  0  0  0
 23 56  1  0  0  0  0
 24 57  1  0  0  0  0
 24 58  1  0  0  0  0
 25 26  2  0  0  0  0
 27 32  1  0  0  0  0
 27 59  1  0  0  0  0
 27 60  1  0  0  0  0
 28 30  2  0  0  0  0
 28 31  1  0  0  0  0
 30 33  1  0  0  0  0
 31 35  2  0  0  0  0
 31 61  1  0  0  0  0
 33 34  2  0  0  0  0
 34 35  1  0  0  0  0
 34 36  1  0  0  0  0
 35 62  1  0  0  0  0
 36 37  2  0  0  0  0
 36 66  1  0  0  0  0
 37 67  1  0  0  0  0
 38 39  1  0  0  0  0
M  END
> <PUBCHEM_COMPOUND_CID>
127042372

> <PUBCHEM_COMPOUND_CANONICALIZED>
1

> <PUBCHEM_CACTVS_COMPLEXITY>
764

> <PUBCHEM_CACTVS_HBOND_ACCEPTOR>
12

> <PUBCHEM_CACTVS_HBOND_DONOR>
3

> <PUBCHEM_CACTVS_ROTATABLE_BOND>
6

> <PUBCHEM_CACTVS_SUBSKEYS>
AAADceB7sYBEAAAAAAAAAAAAAAAAAWLAAAA8YIAAAAAAAFgB/AAAHwYQCAAADCrB3jQ92fPJkgi8BzT3bACC8KlxDjkI2bQ4ZpiIYOLh09HUJAhgkALIyCcQgIAOCAAAIAQCABAQAQBASAQCIAAAAAAAAA==

> <PUBCHEM_IUPAC_OPENEYE_NAME>
2-[[(6S)-2-amino-4,5,6,7-tetrahydro-1,3-benzothiazol-6-yl]-[2-[4-(7-chloro-1H-indol-6-yl)piperazin-1-yl]ethyl]amino]acetonitrile;2,2,2-trifluoroacetic acid

> <PUBCHEM_IUPAC_CAS_NAME>
2-[[(6S)-2-amino-4,5,6,7-tetrahydro-1,3-benzothiazol-6-yl]-[2-[4-(7-chloro-1H-indol-6-yl)-1-piperazinyl]ethyl]amino]acetonitrile;2,2,2-trifluoroacetic acid

> <PUBCHEM_IUPAC_NAME_MARKUP>
2-[[(6<I>S</I>)-2-amino-4,5,6,7-tetrahydro-1,3-benzothiazol-6-yl]-[2-[4-(7-chloro-1<I>H</I>-indol-6-yl)piperazin-1-yl]ethyl]amino]acetonitrile;2,2,2-trifluoroacetic acid

> <PUBCHEM_IUPAC_NAME>
2-[[(6S)-2-amino-4,5,6,7-tetrahydro-1,3-benzothiazol-6-yl]-[2-[4-(7-chloro-1H-indol-6-yl)piperazin-1-yl]ethyl]amino]acetonitrile;2,2,2-trifluoroacetic acid

> <PUBCHEM_IUPAC_SYSTEMATIC_NAME>
2-[[(6S)-2-azanyl-4,5,6,7-tetrahydro-1,3-benzothiazol-6-yl]-[2-[4-(7-chloranyl-1H-indol-6-yl)piperazin-1-yl]ethyl]amino]ethanenitrile;2,2,2-tris(fluoranyl)ethanoic acid

> <PUBCHEM_IUPAC_TRADITIONAL_NAME>
2-[[(6S)-2-amino-4,5,6,7-tetrahydro-1,3-benzothiazol-6-yl]-[2-[4-(7-chloro-1H-indol-6-yl)piperazino]ethyl]amino]acetonitrile;2,2,2-trifluoroacetic acid

> <PUBCHEM_IUPAC_INCHI>
InChI=1S/C23H28ClN7S.C2HF3O2/c24-21-19(4-1-16-5-7-27-22(16)21)31-13-10-29(11-14-31)9-12-30(8-6-25)17-2-3-18-20(15-17)32-23(26)28-18;3-2(4,5)1(6)7/h1,4-5,7,17,27H,2-3,8-15H2,(H2,26,28);(H,6,7)/t17-;/m0./s1

> <PUBCHEM_IUPAC_INCHIKEY>
MBQJYUJUUCIPML-LMOVPXPDSA-N

> <PUBCHEM_EXACT_MASS>
583.1744065

> <PUBCHEM_MOLECULAR_FORMULA>
C25H29ClF3N7O2S

> <PUBCHEM_MOLECULAR_WEIGHT>
584.1

> <PUBCHEM_OPENEYE_CAN_SMILES>
C1CC2=C(CC1N(CCN3CCN(CC3)C4=C(C5=C(C=C4)C=CN5)Cl)CC#N)SC(=N2)N.C(=O)(C(F)(F)F)O

> <PUBCHEM_OPENEYE_ISO_SMILES>
C1CC2=C(C[C@H]1N(CCN3CCN(CC3)C4=C(C5=C(C=C4)C=CN5)Cl)CC#N)SC(=N2)N.C(=O)(C(F)(F)F)O

> <PUBCHEM_CACTVS_TPSA>
154

> <PUBCHEM_MONOISOTOPIC_WEIGHT>
583.1744065

> <PUBCHEM_TOTAL_CHARGE>
0

> <PUBCHEM_HEAVY_ATOM_COUNT>
39

> <PUBCHEM_ATOM_DEF_STEREO_COUNT>
1

> <PUBCHEM_ATOM_UDEF_STEREO_COUNT>
0

> <PUBCHEM_BOND_DEF_STEREO_COUNT>
0

> <PUBCHEM_BOND_UDEF_STEREO_COUNT>
0

> <PUBCHEM_ISOTOPIC_ATOM_COUNT>
0

> <PUBCHEM_COMPONENT_COUNT>
2

> <PUBCHEM_CACTVS_TAUTO_COUNT>
-1

> <PUBCHEM_COORDINATE_TYPE>
1
5
255

> <PUBCHEM_BONDANNOTATIONS>
11  26  8
11  29  8
13  33  8
13  37  8
2  25  8
2  29  8
25  26  8
28  30  8
28  31  8
30  33  8
31  35  8
33  34  8
34  35  8
34  36  8
36  37  8
15  8  6

$$$$
