46231646
  -OEChem-09292322292D

 44 47  0     1  0  0  0  0  0999 V2000
    2.1374    2.4978    0.0000 Cl  0  0  0  0  0  0  0  0  0  0  0  0
    2.5932    0.5009    0.0000 O   0  0  0  0  0  0  0  0  0  0  0  0
    7.0983    2.5796    0.0000 N   0  0  3  0  0  0  0  0  0  0  0  0
    5.6082   -3.0102    0.0000 N   0  0  0  0  0  0  0  0  0  0  0  0
    6.8758    1.6047    0.0000 C   0  0  2  0  0  0  0  0  0  0  0  0
    5.9748    1.1708    0.0000 C   0  0  2  0  0  0  0  0  0  0  0  0
    7.7453    1.0312    0.0000 C   0  0  0  0  0  0  0  0  0  0  0  0
    5.8810    0.1334    0.0000 C   0  0  0  0  0  0  0  0  0  0  0  0
    7.6755   -0.0080    0.0000 C   0  0  0  0  0  0  0  0  0  0  0  0
    5.0738    1.6047    0.0000 C   0  0  0  0  0  0  0  0  0  0  0  0
    6.7370   -0.4600    0.0000 C   0  0  0  0  0  0  0  0  0  0  0  0
    6.4748    3.3614    0.0000 C   0  0  0  0  0  0  0  0  0  0  0  0
    4.8513    2.5796    0.0000 C   0  0  0  0  0  0  0  0  0  0  0  0
    5.4748    3.3614    0.0000 C   0  0  0  0  0  0  0  0  0  0  0  0
    8.0732    2.8021    0.0000 C   0  0  0  0  0  0  0  0  0  0  0  0
    4.8928   -0.3146    0.0000 C   0  0  0  0  0  0  0  0  0  0  0  0
    4.3213    0.8845    0.0000 C   0  0  0  0  0  0  0  0  0  0  0  0
    6.6643   -1.5425    0.0000 C   0  0  0  0  0  0  0  0  0  0  0  0
    3.8608    2.9019    0.0000 C   0  0  0  0  0  0  0  0  0  0  0  0
    4.7950   -1.3952    0.0000 C   0  0  0  0  0  0  0  0  0  0  0  0
    5.6868   -2.0133    0.0000 C   0  0  0  0  0  0  0  0  0  0  0  0
    3.3236    1.1838    0.0000 C   0  0  0  0  0  0  0  0  0  0  0  0
    3.0918    2.1994    0.0000 C   0  0  0  0  0  0  0  0  0  0  0  0
    7.6646    1.9213    0.0000 H   0  0  0  0  0  0  0  0  0  0  0  0
    5.2354    0.7515    0.0000 H   0  0  0  0  0  0  0  0  0  0  0  0
    8.3477    0.8844    0.0000 H   0  0  0  0  0  0  0  0  0  0  0  0
    7.9931    1.5996    0.0000 H   0  0  0  0  0  0  0  0  0  0  0  0
    7.8450   -0.6044    0.0000 H   0  0  0  0  0  0  0  0  0  0  0  0
    8.2921    0.0569    0.0000 H   0  0  0  0  0  0  0  0  0  0  0  0
    7.0334    3.6304    0.0000 H   0  0  0  0  0  0  0  0  0  0  0  0
    6.3368    3.9659    0.0000 H   0  0  0  0  0  0  0  0  0  0  0  0
    5.6128    3.9659    0.0000 H   0  0  0  0  0  0  0  0  0  0  0  0
    4.9162    3.6304    0.0000 H   0  0  0  0  0  0  0  0  0  0  0  0
    8.2112    2.1977    0.0000 H   0  0  0  0  0  0  0  0  0  0  0  0
    8.6777    2.9401    0.0000 H   0  0  0  0  0  0  0  0  0  0  0  0
    7.9352    3.4066    0.0000 H   0  0  0  0  0  0  0  0  0  0  0  0
    4.3873    0.0444    0.0000 H   0  0  0  0  0  0  0  0  0  0  0  0
    4.4662    0.2817    0.0000 H   0  0  0  0  0  0  0  0  0  0  0  0
    7.1779   -1.8898    0.0000 H   0  0  0  0  0  0  0  0  0  0  0  0
    3.7298    3.5080    0.0000 H   0  0  0  0  0  0  0  0  0  0  0  0
    4.2334   -1.6577    0.0000 H   0  0  0  0  0  0  0  0  0  0  0  0
    6.1191   -3.3614    0.0000 H   0  0  0  0  0  0  0  0  0  0  0  0
    5.0485   -3.2771    0.0000 H   0  0  0  0  0  0  0  0  0  0  0  0
    2.0000    0.6813    0.0000 H   0  0  0  0  0  0  0  0  0  0  0  0
  1 23  1  0  0  0  0
  2 22  1  0  0  0  0
  2 44  1  0  0  0  0
  3  5  1  0  0  0  0
  3 12  1  0  0  0  0
  3 15  1  0  0  0  0
  4 21  1  0  0  0  0
  4 42  1  0  0  0  0
  4 43  1  0  0  0  0
  5  6  1  0  0  0  0
  5  7  1  0  0  0  0
  5 24  1  6  0  0  0
  6  8  1  0  0  0  0
  6 10  1  0  0  0  0
  6 25  1  1  0  0  0
  7  9  1  0  0  0  0
  7 26  1  0  0  0  0
  7 27  1  0  0  0  0
  8 11  2  0  0  0  0
  8 16  1  0  0  0  0
  9 11  1  0  0  0  0
  9 28  1  0  0  0  0
  9 29  1  0  0  0  0
 10 13  1  0  0  0  0
 10 17  2  0  0  0  0
 11 18  1  0  0  0  0
 12 14  1  0  0  0  0
 12 30  1  0  0  0  0
 12 31  1  0  0  0  0
 13 14  1  0  0  0  0
 13 19  2  0  0  0  0
 14 32  1  0  0  0  0
 14 33  1  0  0  0  0
 15 34  1  0  0  0  0
 15 35  1  0  0  0  0
 15 36  1  0  0  0  0
 16 20  2  0  0  0  0
 16 37  1  0  0  0  0
 17 22  1  0  0  0  0
 17 38  1  0  0  0  0
 18 21  2  0  0  0  0
 18 39  1  0  0  0  0
 19 23  1  0  0  0  0
 19 40  1  0  0  0  0
 20 21  1  0  0  0  0
 20 41  1  0  0  0  0
 22 23  2  0  0  0  0
M  END
> <PUBCHEM_COMPOUND_CID>
46231646

> <PUBCHEM_COMPOUND_CANONICALIZED>
1

> <PUBCHEM_CACTVS_COMPLEXITY>
434

> <PUBCHEM_CACTVS_HBOND_ACCEPTOR>
3

> <PUBCHEM_CACTVS_HBOND_DONOR>
2

> <PUBCHEM_CACTVS_ROTATABLE_BOND>
0

> <PUBCHEM_CACTVS_SUBSKEYS>
AAADceB7IAAEAAAAAAAAAAAAAAAAAAAAAAAwYMAABYAAAADBQAAAHgIQCAAADS7BmCQyxoNAAgCAAiRCQACCAAAgJ0AIiAAOb4gIJiKDk5OEcABk0BGI2AeQ0PMOrAABYAAQCABYAAbAACQQAAAAAAAAAA==

> <PUBCHEM_IUPAC_OPENEYE_NAME>
(6aS,13bR)-3-amino-11-chloro-7-methyl-5,6,6a,8,9,13b-hexahydronaphtho[1,2-a][3]benzazepin-12-ol

> <PUBCHEM_IUPAC_CAS_NAME>
(6aS,13bR)-3-amino-11-chloro-7-methyl-5,6,6a,8,9,13b-hexahydronaphtho[1,2-a][3]benzazepin-12-ol

> <PUBCHEM_IUPAC_NAME_MARKUP>
(6<I>a</I><I>S</I>,13<I>b</I><I>R</I>)-3-amino-11-chloro-7-methyl-5,6,6<I>a</I>,8,9,13<I>b</I>-hexahydronaphtho[1,2-a][3]benzazepin-12-ol

> <PUBCHEM_IUPAC_NAME>
(6aS,13bR)-3-amino-11-chloro-7-methyl-5,6,6a,8,9,13b-hexahydronaphtho[1,2-a][3]benzazepin-12-ol

> <PUBCHEM_IUPAC_SYSTEMATIC_NAME>
(6aS,13bR)-3-azanyl-11-chloranyl-7-methyl-5,6,6a,8,9,13b-hexahydronaphtho[1,2-a][3]benzazepin-12-ol

> <PUBCHEM_IUPAC_TRADITIONAL_NAME>
(6aS,13bR)-3-amino-11-chloro-7-methyl-5,6,6a,8,9,13b-hexahydronaphtho[1,2-a][3]benzazepin-12-ol

> <PUBCHEM_IUPAC_INCHI>
InChI=1S/C19H21ClN2O/c1-22-7-6-12-9-16(20)18(23)10-15(12)19-14-4-3-13(21)8-11(14)2-5-17(19)22/h3-4,8-10,17,19,23H,2,5-7,21H2,1H3/t17-,19+/m0/s1

> <PUBCHEM_IUPAC_INCHIKEY>
WUHZOOKLPVGRAI-PKOBYXMFSA-N

> <PUBCHEM_XLOGP3_AA>
3.8

> <PUBCHEM_EXACT_MASS>
328.1342410

> <PUBCHEM_MOLECULAR_FORMULA>
C19H21ClN2O

> <PUBCHEM_MOLECULAR_WEIGHT>
328.8

> <PUBCHEM_OPENEYE_CAN_SMILES>
CN1CCC2=CC(=C(C=C2C3C1CCC4=C3C=CC(=C4)N)O)Cl

> <PUBCHEM_OPENEYE_ISO_SMILES>
CN1CCC2=CC(=C(C=C2[C@@H]3[C@@H]1CCC4=C3C=CC(=C4)N)O)Cl

> <PUBCHEM_CACTVS_TPSA>
49.5

> <PUBCHEM_MONOISOTOPIC_WEIGHT>
328.1342410

> <PUBCHEM_TOTAL_CHARGE>
0

> <PUBCHEM_HEAVY_ATOM_COUNT>
23

> <PUBCHEM_ATOM_DEF_STEREO_COUNT>
2

> <PUBCHEM_ATOM_UDEF_STEREO_COUNT>
0

> <PUBCHEM_BOND_DEF_STEREO_COUNT>
0

> <PUBCHEM_BOND_UDEF_STEREO_COUNT>
0

> <PUBCHEM_ISOTOPIC_ATOM_COUNT>
0

> <PUBCHEM_COMPONENT_COUNT>
1

> <PUBCHEM_CACTVS_TAUTO_COUNT>
-1

> <PUBCHEM_COORDINATE_TYPE>
1
5
255

> <PUBCHEM_BONDANNOTATIONS>
10  13  8
10  17  8
11  18  8
13  19  8
16  20  8
17  22  8
18  21  8
19  23  8
20  21  8
22  23  8
5  24  6
6  25  5
8  11  8
8  16  8

$$$$
