44330638
  -OEChem-09292322502D

 31 33  0     0  0  0  0  0  0999 V2000
    2.1245    0.2430    0.0000 S   0  0  0  0  0  0  0  0  0  0  0  0
    4.6282   -0.3379    0.0000 N   0  0  0  0  0  0  0  0  0  0  0  0
    6.2142   -0.6243    0.0000 N   0  0  0  0  0  0  0  0  0  0  0  0
    5.7424   -1.4993    0.0000 N   0  0  0  0  0  0  0  0  0  0  0  0
    3.5047    1.0709    0.0000 C   0  0  0  0  0  0  0  0  0  0  0  0
    4.1282    1.8527    0.0000 C   0  0  0  0  0  0  0  0  0  0  0  0
    5.1282    1.8527    0.0000 C   0  0  0  0  0  0  0  0  0  0  0  0
    3.7272    0.0960    0.0000 C   0  0  0  0  0  0  0  0  0  0  0  0
    5.7517    1.0709    0.0000 C   0  0  0  0  0  0  0  0  0  0  0  0
    5.5291    0.0960    0.0000 C   0  0  0  0  0  0  0  0  0  0  0  0
    2.5144    1.1574    0.0000 C   0  0  0  0  0  0  0  0  0  0  0  0
    2.8725   -0.4117    0.0000 C   0  0  0  0  0  0  0  0  0  0  0  0
    4.7642   -1.3227    0.0000 C   0  0  0  0  0  0  0  0  0  0  0  0
    2.0000    2.0150    0.0000 C   0  0  0  0  0  0  0  0  0  0  0  0
    2.7812   -1.4075    0.0000 C   0  0  0  0  0  0  0  0  0  0  0  0
    4.0426   -2.0150    0.0000 C   0  0  0  0  0  0  0  0  0  0  0  0
    4.2661    2.4572    0.0000 H   0  0  0  0  0  0  0  0  0  0  0  0
    3.5696    2.1217    0.0000 H   0  0  0  0  0  0  0  0  0  0  0  0
    5.6868    2.1217    0.0000 H   0  0  0  0  0  0  0  0  0  0  0  0
    4.9902    2.4572    0.0000 H   0  0  0  0  0  0  0  0  0  0  0  0
    6.3103    0.8019    0.0000 H   0  0  0  0  0  0  0  0  0  0  0  0
    6.1382    1.5556    0.0000 H   0  0  0  0  0  0  0  0  0  0  0  0
    2.5317    2.3339    0.0000 H   0  0  0  0  0  0  0  0  0  0  0  0
    1.6811    2.5467    0.0000 H   0  0  0  0  0  0  0  0  0  0  0  0
    1.4683    1.6961    0.0000 H   0  0  0  0  0  0  0  0  0  0  0  0
    2.1638   -1.3509    0.0000 H   0  0  0  0  0  0  0  0  0  0  0  0
    2.7245   -2.0249    0.0000 H   0  0  0  0  0  0  0  0  0  0  0  0
    3.3986   -1.4642    0.0000 H   0  0  0  0  0  0  0  0  0  0  0  0
    3.6133   -1.5676    0.0000 H   0  0  0  0  0  0  0  0  0  0  0  0
    3.5952   -2.4442    0.0000 H   0  0  0  0  0  0  0  0  0  0  0  0
    4.4718   -2.4624    0.0000 H   0  0  0  0  0  0  0  0  0  0  0  0
  1 11  1  0  0  0  0
  1 12  1  0  0  0  0
  2  8  1  0  0  0  0
  2 10  1  0  0  0  0
  2 13  1  0  0  0  0
  3  4  1  0  0  0  0
  3 10  2  0  0  0  0
  4 13  2  0  0  0  0
  5  6  1  0  0  0  0
  5  8  1  0  0  0  0
  5 11  2  0  0  0  0
  6  7  1  0  0  0  0
  6 17  1  0  0  0  0
  6 18  1  0  0  0  0
  7  9  1  0  0  0  0
  7 19  1  0  0  0  0
  7 20  1  0  0  0  0
  8 12  2  0  0  0  0
  9 10  1  0  0  0  0
  9 21  1  0  0  0  0
  9 22  1  0  0  0  0
 11 14  1  0  0  0  0
 12 15  1  0  0  0  0
 13 16  1  0  0  0  0
 14 23  1  0  0  0  0
 14 24  1  0  0  0  0
 14 25  1  0  0  0  0
 15 26  1  0  0  0  0
 15 27  1  0  0  0  0
 15 28  1  0  0  0  0
 16 29  1  0  0  0  0
 16 30  1  0  0  0  0
 16 31  1  0  0  0  0
M  END
> <PUBCHEM_COMPOUND_CID>
44330638

> <PUBCHEM_COMPOUND_CANONICALIZED>
1

> <PUBCHEM_CACTVS_COMPLEXITY>
273

> <PUBCHEM_CACTVS_HBOND_ACCEPTOR>
3

> <PUBCHEM_CACTVS_HBOND_DONOR>
0

> <PUBCHEM_CACTVS_ROTATABLE_BOND>
0

> <PUBCHEM_CACTVS_SUBSKEYS>
AAADccBzAABAAAAAAAAAAAAAAAAAAWJAAAAAAAAABYAAAACx4AAAHAQIAAAADAiBWwAD0YcMEAimAgZgZACTgKshCLAViBQwRIiIKCLgmJCEAAxgiALoyCcQgIAOAAAAAAAAAAAAAAAAAAAAAAAAAAAAAA==

> <PUBCHEM_IUPAC_OPENEYE_NAME>
3,5,13-trimethyl-4-thia-1,11,12-triazatricyclo[8.3.0.02,6]trideca-2,5,10,12-tetraene

> <PUBCHEM_IUPAC_CAS_NAME>
3,5,13-trimethyl-4-thia-1,11,12-triazatricyclo[8.3.0.02,6]trideca-2,5,10,12-tetraene

> <PUBCHEM_IUPAC_NAME_MARKUP>
3,5,13-trimethyl-4-thia-1,11,12-triazatricyclo[8.3.0.0<SUP>2,6</SUP>]trideca-2,5,10,12-tetraene

> <PUBCHEM_IUPAC_NAME>
3,5,13-trimethyl-4-thia-1,11,12-triazatricyclo[8.3.0.02,6]trideca-2,5,10,12-tetraene

> <PUBCHEM_IUPAC_SYSTEMATIC_NAME>
3,5,13-trimethyl-4-thia-1,11,12-triazatricyclo[8.3.0.02,6]trideca-2,5,10,12-tetraene

> <PUBCHEM_IUPAC_TRADITIONAL_NAME>
3,5,13-trimethyl-4-thia-1,11,12-triazatricyclo[8.3.0.02,6]trideca-2,5,10,12-tetraene

> <PUBCHEM_IUPAC_INCHI>
InChI=1S/C12H15N3S/c1-7-10-5-4-6-11-14-13-9(3)15(11)12(10)8(2)16-7/h4-6H2,1-3H3

> <PUBCHEM_IUPAC_INCHIKEY>
PCBQMQXSDSZDCB-UHFFFAOYSA-N

> <PUBCHEM_XLOGP3_AA>
2.7

> <PUBCHEM_EXACT_MASS>
233.09866866

> <PUBCHEM_MOLECULAR_FORMULA>
C12H15N3S

> <PUBCHEM_MOLECULAR_WEIGHT>
233.33

> <PUBCHEM_OPENEYE_CAN_SMILES>
CC1=C2CCCC3=NN=C(N3C2=C(S1)C)C

> <PUBCHEM_OPENEYE_ISO_SMILES>
CC1=C2CCCC3=NN=C(N3C2=C(S1)C)C

> <PUBCHEM_CACTVS_TPSA>
59

> <PUBCHEM_MONOISOTOPIC_WEIGHT>
233.09866866

> <PUBCHEM_TOTAL_CHARGE>
0

> <PUBCHEM_HEAVY_ATOM_COUNT>
16

> <PUBCHEM_ATOM_DEF_STEREO_COUNT>
0

> <PUBCHEM_ATOM_UDEF_STEREO_COUNT>
0

> <PUBCHEM_BOND_DEF_STEREO_COUNT>
0

> <PUBCHEM_BOND_UDEF_STEREO_COUNT>
0

> <PUBCHEM_ISOTOPIC_ATOM_COUNT>
0

> <PUBCHEM_COMPONENT_COUNT>
1

> <PUBCHEM_CACTVS_TAUTO_COUNT>
-1

> <PUBCHEM_COORDINATE_TYPE>
1
5
255

> <PUBCHEM_BONDANNOTATIONS>
1  11  8
1  12  8
2  10  8
2  13  8
3  10  8
3  4  8
4  13  8
5  11  8
5  8  8
8  12  8

$$$$
