44579031
  -OEChem-09292322502D

 62 65  0     1  0  0  0  0  0999 V2000
    5.4060    0.2491    0.0000 O   0  0  0  0  0  0  0  0  0  0  0  0
    3.6741    0.2691    0.0000 O   0  0  0  0  0  0  0  0  0  0  0  0
    8.8787   -2.7824    0.0000 N   0  0  3  0  0  0  0  0  0  0  0  0
    8.0205   -2.2855    0.0000 C   0  0  1  0  0  0  0  0  0  0  0  0
    8.0205   -1.2855    0.0000 C   0  0  0  0  0  0  0  0  0  0  0  0
    7.1545   -2.7855    0.0000 C   0  0  0  0  0  0  0  0  0  0  0  0
    9.7442   -2.2983    0.0000 C   0  0  0  0  0  0  0  0  0  0  0  0
    8.9305   -0.7787    0.0000 C   0  0  0  0  0  0  0  0  0  0  0  0
    9.7698   -1.3069    0.0000 C   0  0  0  0  0  0  0  0  0  0  0  0
    7.1545   -0.7855    0.0000 C   0  0  0  0  0  0  0  0  0  0  0  0
    6.2884   -2.2855    0.0000 C   0  0  0  0  0  0  0  0  0  0  0  0
    8.8713   -3.7824    0.0000 C   0  0  0  0  0  0  0  0  0  0  0  0
    6.2884   -1.2855    0.0000 C   0  0  0  0  0  0  0  0  0  0  0  0
    8.9385    0.2629    0.0000 C   0  0  0  0  0  0  0  0  0  0  0  0
    7.1384    0.2560    0.0000 C   0  0  0  0  0  0  0  0  0  0  0  0
    9.7336   -4.2888    0.0000 C   0  0  0  0  0  0  0  0  0  0  0  0
    5.3945   -0.7509    0.0000 C   0  0  0  0  0  0  0  0  0  0  0  0
    5.3945   -2.8202    0.0000 C   0  0  0  0  0  0  0  0  0  0  0  0
    8.0364    0.7837    0.0000 C   0  0  0  0  0  0  0  0  0  0  0  0
    4.4884   -1.2647    0.0000 C   0  0  0  0  0  0  0  0  0  0  0  0
    4.4884   -2.3063    0.0000 C   0  0  0  0  0  0  0  0  0  0  0  0
    9.7262   -5.2888    0.0000 C   0  0  0  0  0  0  0  0  0  0  0  0
    4.5459    0.7591    0.0000 C   0  0  0  0  0  0  0  0  0  0  0  0
    4.5574    1.7590    0.0000 C   0  0  0  0  0  0  0  0  0  0  0  0
    3.6972    2.2690    0.0000 C   0  0  0  0  0  0  0  0  0  0  0  0
    3.7088    3.2689    0.0000 C   0  0  0  0  0  0  0  0  0  0  0  0
    2.8486    3.7789    0.0000 C   0  0  0  0  0  0  0  0  0  0  0  0
    2.8602    4.7788    0.0000 C   0  0  0  0  0  0  0  0  0  0  0  0
    2.0000    5.2888    0.0000 C   0  0  0  0  0  0  0  0  0  0  0  0
    8.0200   -3.1355    0.0000 H   0  0  0  0  0  0  0  0  0  0  0  0
    6.7559   -3.2605    0.0000 H   0  0  0  0  0  0  0  0  0  0  0  0
    7.5530   -3.2605    0.0000 H   0  0  0  0  0  0  0  0  0  0  0  0
    9.9459   -2.8845    0.0000 H   0  0  0  0  0  0  0  0  0  0  0  0
   10.3570   -2.2039    0.0000 H   0  0  0  0  0  0  0  0  0  0  0  0
   10.3769   -1.4328    0.0000 H   0  0  0  0  0  0  0  0  0  0  0  0
   10.0016   -0.7318    0.0000 H   0  0  0  0  0  0  0  0  0  0  0  0
    8.2615   -3.6702    0.0000 H   0  0  0  0  0  0  0  0  0  0  0  0
    8.6549   -4.3634    0.0000 H   0  0  0  0  0  0  0  0  0  0  0  0
    9.4766    0.5709    0.0000 H   0  0  0  0  0  0  0  0  0  0  0  0
    6.5979    0.5598    0.0000 H   0  0  0  0  0  0  0  0  0  0  0  0
   10.3434   -4.4010    0.0000 H   0  0  0  0  0  0  0  0  0  0  0  0
    9.9500   -3.7078    0.0000 H   0  0  0  0  0  0  0  0  0  0  0  0
    5.4017   -3.4401    0.0000 H   0  0  0  0  0  0  0  0  0  0  0  0
    8.0340    1.4037    0.0000 H   0  0  0  0  0  0  0  0  0  0  0  0
    3.9527   -0.9526    0.0000 H   0  0  0  0  0  0  0  0  0  0  0  0
    3.9527   -2.6184    0.0000 H   0  0  0  0  0  0  0  0  0  0  0  0
    9.1062   -5.2842    0.0000 H   0  0  0  0  0  0  0  0  0  0  0  0
    9.7216   -5.9088    0.0000 H   0  0  0  0  0  0  0  0  0  0  0  0
   10.3462   -5.2934    0.0000 H   0  0  0  0  0  0  0  0  0  0  0  0
    5.1667    1.6443    0.0000 H   0  0  0  0  0  0  0  0  0  0  0  0
    4.7762    2.3391    0.0000 H   0  0  0  0  0  0  0  0  0  0  0  0
    3.0880    2.3837    0.0000 H   0  0  0  0  0  0  0  0  0  0  0  0
    3.4785    1.6888    0.0000 H   0  0  0  0  0  0  0  0  0  0  0  0
    4.3181    3.1542    0.0000 H   0  0  0  0  0  0  0  0  0  0  0  0
    3.9276    3.8490    0.0000 H   0  0  0  0  0  0  0  0  0  0  0  0
    2.2393    3.8936    0.0000 H   0  0  0  0  0  0  0  0  0  0  0  0
    2.6298    3.1988    0.0000 H   0  0  0  0  0  0  0  0  0  0  0  0
    3.4695    4.6641    0.0000 H   0  0  0  0  0  0  0  0  0  0  0  0
    3.0790    5.3589    0.0000 H   0  0  0  0  0  0  0  0  0  0  0  0
    2.3162    5.8221    0.0000 H   0  0  0  0  0  0  0  0  0  0  0  0
    1.4667    5.6050    0.0000 H   0  0  0  0  0  0  0  0  0  0  0  0
    1.6838    4.7555    0.0000 H   0  0  0  0  0  0  0  0  0  0  0  0
  1 17  1  0  0  0  0
  1 23  1  0  0  0  0
  2 23  2  0  0  0  0
  3  4  1  0  0  0  0
  3  7  1  0  0  0  0
  3 12  1  0  0  0  0
  4  5  1  0  0  0  0
  4  6  1  0  0  0  0
  4 30  1  1  0  0  0
  5  8  2  0  0  0  0
  5 10  1  0  0  0  0
  6 11  1  0  0  0  0
  6 31  1  0  0  0  0
  6 32  1  0  0  0  0
  7  9  1  0  0  0  0
  7 33  1  0  0  0  0
  7 34  1  0  0  0  0
  8  9  1  0  0  0  0
  8 14  1  0  0  0  0
  9 35  1  0  0  0  0
  9 36  1  0  0  0  0
 10 13  1  0  0  0  0
 10 15  2  0  0  0  0
 11 13  2  0  0  0  0
 11 18  1  0  0  0  0
 12 16  1  0  0  0  0
 12 37  1  0  0  0  0
 12 38  1  0  0  0  0
 13 17  1  0  0  0  0
 14 19  2  0  0  0  0
 14 39  1  0  0  0  0
 15 19  1  0  0  0  0
 15 40  1  0  0  0  0
 16 22  1  0  0  0  0
 16 41  1  0  0  0  0
 16 42  1  0  0  0  0
 17 20  2  0  0  0  0
 18 21  2  0  0  0  0
 18 43  1  0  0  0  0
 19 44  1  0  0  0  0
 20 21  1  0  0  0  0
 20 45  1  0  0  0  0
 21 46  1  0  0  0  0
 22 47  1  0  0  0  0
 22 48  1  0  0  0  0
 22 49  1  0  0  0  0
 23 24  1  0  0  0  0
 24 25  1  0  0  0  0
 24 50  1  0  0  0  0
 24 51  1  0  0  0  0
 25 26  1  0  0  0  0
 25 52  1  0  0  0  0
 25 53  1  0  0  0  0
 26 27  1  0  0  0  0
 26 54  1  0  0  0  0
 26 55  1  0  0  0  0
 27 28  1  0  0  0  0
 27 56  1  0  0  0  0
 27 57  1  0  0  0  0
 28 29  1  0  0  0  0
 28 58  1  0  0  0  0
 28 59  1  0  0  0  0
 29 60  1  0  0  0  0
 29 61  1  0  0  0  0
 29 62  1  0  0  0  0
M  END
> <PUBCHEM_COMPOUND_CID>
44579031

> <PUBCHEM_COMPOUND_CANONICALIZED>
1

> <PUBCHEM_CACTVS_COMPLEXITY>
535

> <PUBCHEM_CACTVS_HBOND_ACCEPTOR>
3

> <PUBCHEM_CACTVS_HBOND_DONOR>
0

> <PUBCHEM_CACTVS_ROTATABLE_BOND>
9

> <PUBCHEM_CACTVS_SUBSKEYS>
AAADcfB6MAAAAAAAAAAAAAAAAAAAAAAAAAA8YMEAAAAAAADxQAAAHgAAAAAADCzBmAQyDoMABACIAiDSCACCCAAgIAAIiAEODIgMJjKEsRuGOijkwBGIqAeY2POOgAADAAAYAACQAAaAADQAAAAAAAAAAA==

> <PUBCHEM_IUPAC_OPENEYE_NAME>
[(6aR)-6-propyl-5,6,6a,7-tetrahydro-4H-dibenzo[de,g]quinolin-11-yl] heptanoate

> <PUBCHEM_IUPAC_CAS_NAME>
heptanoic acid [(6aR)-6-propyl-5,6,6a,7-tetrahydro-4H-dibenzo[de,g]quinolin-11-yl] ester

> <PUBCHEM_IUPAC_NAME_MARKUP>
[(6<I>a</I><I>R</I>)-6-propyl-5,6,6<I>a</I>,7-tetrahydro-4<I>H</I>-dibenzo[de,g]quinolin-11-yl] heptanoate

> <PUBCHEM_IUPAC_NAME>
[(6aR)-6-propyl-5,6,6a,7-tetrahydro-4H-dibenzo[de,g]quinolin-11-yl] heptanoate

> <PUBCHEM_IUPAC_SYSTEMATIC_NAME>
[(6aR)-6-propyl-5,6,6a,7-tetrahydro-4H-dibenzo[de,g]quinolin-11-yl] heptanoate

> <PUBCHEM_IUPAC_TRADITIONAL_NAME>
enanthic acid [(6aR)-6-propyl-5,6,6a,7-tetrahydro-4H-dibenzo[de,g]quinolin-11-yl] ester

> <PUBCHEM_IUPAC_INCHI>
InChI=1S/C26H33NO2/c1-3-5-6-7-14-24(28)29-23-13-9-11-20-18-22-25-19(15-17-27(22)16-4-2)10-8-12-21(25)26(20)23/h8-13,22H,3-7,14-18H2,1-2H3/t22-/m1/s1

> <PUBCHEM_IUPAC_INCHIKEY>
KWMUKPVHQQVHLC-JOCHJYFZSA-N

> <PUBCHEM_XLOGP3_AA>
6.6

> <PUBCHEM_EXACT_MASS>
391.251129295

> <PUBCHEM_MOLECULAR_FORMULA>
C26H33NO2

> <PUBCHEM_MOLECULAR_WEIGHT>
391.5

> <PUBCHEM_OPENEYE_CAN_SMILES>
CCCCCCC(=O)OC1=CC=CC2=C1C3=CC=CC4=C3C(C2)N(CC4)CCC

> <PUBCHEM_OPENEYE_ISO_SMILES>
CCCCCCC(=O)OC1=CC=CC2=C1C3=CC=CC4=C3[C@@H](C2)N(CC4)CCC

> <PUBCHEM_CACTVS_TPSA>
29.5

> <PUBCHEM_MONOISOTOPIC_WEIGHT>
391.251129295

> <PUBCHEM_TOTAL_CHARGE>
0

> <PUBCHEM_HEAVY_ATOM_COUNT>
29

> <PUBCHEM_ATOM_DEF_STEREO_COUNT>
1

> <PUBCHEM_ATOM_UDEF_STEREO_COUNT>
0

> <PUBCHEM_BOND_DEF_STEREO_COUNT>
0

> <PUBCHEM_BOND_UDEF_STEREO_COUNT>
0

> <PUBCHEM_ISOTOPIC_ATOM_COUNT>
0

> <PUBCHEM_COMPONENT_COUNT>
1

> <PUBCHEM_CACTVS_TAUTO_COUNT>
-1

> <PUBCHEM_COORDINATE_TYPE>
1
5
255

> <PUBCHEM_BONDANNOTATIONS>
10  15  8
11  13  8
11  18  8
13  17  8
14  19  8
15  19  8
17  20  8
18  21  8
20  21  8
4  30  5
5  10  8
5  8  8
8  14  8

$$$$
