57383432
  -OEChem-09292321582D

 52 55  0     0  0  0  0  0  0999 V2000
   11.4246   -1.0783    0.0000 S   0  0  0  0  0  0  0  0  0  0  0  0
   12.3585    2.0133    0.0000 O   0  0  0  0  0  0  0  0  0  0  0  0
    7.3685    1.2245    0.0000 O   0  0  0  0  0  0  0  0  0  0  0  0
    2.9544   -2.8395    0.0000 O   0  0  0  0  0  0  0  0  0  0  0  0
   10.9247    1.1123    0.0000 N   0  0  0  0  0  0  0  0  0  0  0  0
    6.8516   -0.4286    0.0000 N   0  0  0  0  0  0  0  0  0  0  0  0
   10.3012    0.3305    0.0000 C   0  0  0  0  0  0  0  0  0  0  0  0
   10.5237   -0.6444    0.0000 C   0  0  0  0  0  0  0  0  0  0  0  0
   10.4908    2.0133    0.0000 C   0  0  0  0  0  0  0  0  0  0  0  0
   11.9247    1.1123    0.0000 C   0  0  0  0  0  0  0  0  0  0  0  0
    9.3107    0.6528    0.0000 C   0  0  0  0  0  0  0  0  0  0  0  0
   12.5481    0.3305    0.0000 C   0  0  0  0  0  0  0  0  0  0  0  0
    8.5416   -0.0497    0.0000 C   0  0  0  0  0  0  0  0  0  0  0  0
   12.3256   -0.6444    0.0000 C   0  0  0  0  0  0  0  0  0  0  0  0
    9.7711   -1.3646    0.0000 C   0  0  0  0  0  0  0  0  0  0  0  0
    8.7734   -1.0652    0.0000 C   0  0  0  0  0  0  0  0  0  0  0  0
   11.0541    2.8395    0.0000 C   0  0  0  0  0  0  0  0  0  0  0  0
    7.5872    0.2487    0.0000 C   0  0  0  0  0  0  0  0  0  0  0  0
   13.5386    0.6528    0.0000 C   0  0  0  0  0  0  0  0  0  0  0  0
   13.0782   -1.3646    0.0000 C   0  0  0  0  0  0  0  0  0  0  0  0
    5.8971   -0.1302    0.0000 C   0  0  0  0  0  0  0  0  0  0  0  0
   14.3076   -0.0498    0.0000 C   0  0  0  0  0  0  0  0  0  0  0  0
    5.1614   -0.8075    0.0000 C   0  0  0  0  0  0  0  0  0  0  0  0
   14.0759   -1.0653    0.0000 C   0  0  0  0  0  0  0  0  0  0  0  0
    4.2070   -0.5091    0.0000 C   0  0  0  0  0  0  0  0  0  0  0  0
    5.3802   -1.7833    0.0000 C   0  0  0  0  0  0  0  0  0  0  0  0
    3.4714   -1.1864    0.0000 C   0  0  0  0  0  0  0  0  0  0  0  0
    4.6445   -2.4606    0.0000 C   0  0  0  0  0  0  0  0  0  0  0  0
    3.6901   -2.1622    0.0000 C   0  0  0  0  0  0  0  0  0  0  0  0
    2.0000   -2.5411    0.0000 C   0  0  0  0  0  0  0  0  0  0  0  0
   10.0469    2.4462    0.0000 H   0  0  0  0  0  0  0  0  0  0  0  0
    9.9874    1.6514    0.0000 H   0  0  0  0  0  0  0  0  0  0  0  0
    9.1797    1.2588    0.0000 H   0  0  0  0  0  0  0  0  0  0  0  0
    9.9160   -1.9674    0.0000 H   0  0  0  0  0  0  0  0  0  0  0  0
    8.3206   -1.4887    0.0000 H   0  0  0  0  0  0  0  0  0  0  0  0
   11.5664    2.4903    0.0000 H   0  0  0  0  0  0  0  0  0  0  0  0
   11.4034    3.3518    0.0000 H   0  0  0  0  0  0  0  0  0  0  0  0
   10.5418    3.1888    0.0000 H   0  0  0  0  0  0  0  0  0  0  0  0
   13.6696    1.2588    0.0000 H   0  0  0  0  0  0  0  0  0  0  0  0
   12.9332   -1.9674    0.0000 H   0  0  0  0  0  0  0  0  0  0  0  0
    6.1821    0.4204    0.0000 H   0  0  0  0  0  0  0  0  0  0  0  0
    5.4044    0.2461    0.0000 H   0  0  0  0  0  0  0  0  0  0  0  0
    6.9872   -1.0336    0.0000 H   0  0  0  0  0  0  0  0  0  0  0  0
   14.8994    0.1352    0.0000 H   0  0  0  0  0  0  0  0  0  0  0  0
   14.5287   -1.4888    0.0000 H   0  0  0  0  0  0  0  0  0  0  0  0
    4.0714    0.0959    0.0000 H   0  0  0  0  0  0  0  0  0  0  0  0
    5.9720   -1.9683    0.0000 H   0  0  0  0  0  0  0  0  0  0  0  0
    2.8796   -1.0014    0.0000 H   0  0  0  0  0  0  0  0  0  0  0  0
    4.7802   -3.0656    0.0000 H   0  0  0  0  0  0  0  0  0  0  0  0
    2.1850   -1.9493    0.0000 H   0  0  0  0  0  0  0  0  0  0  0  0
    1.4083   -2.3561    0.0000 H   0  0  0  0  0  0  0  0  0  0  0  0
    1.8150   -3.1328    0.0000 H   0  0  0  0  0  0  0  0  0  0  0  0
  1  8  1  0  0  0  0
  1 14  1  0  0  0  0
  2 10  2  0  0  0  0
  3 18  2  0  0  0  0
  4 29  1  0  0  0  0
  4 30  1  0  0  0  0
  5  7  1  0  0  0  0
  5  9  1  0  0  0  0
  5 10  1  0  0  0  0
  6 18  1  0  0  0  0
  6 21  1  0  0  0  0
  6 43  1  0  0  0  0
  7  8  2  0  0  0  0
  7 11  1  0  0  0  0
  8 15  1  0  0  0  0
  9 17  1  0  0  0  0
  9 31  1  0  0  0  0
  9 32  1  0  0  0  0
 10 12  1  0  0  0  0
 11 13  2  0  0  0  0
 11 33  1  0  0  0  0
 12 14  1  0  0  0  0
 12 19  2  0  0  0  0
 13 16  1  0  0  0  0
 13 18  1  0  0  0  0
 14 20  2  0  0  0  0
 15 16  2  0  0  0  0
 15 34  1  0  0  0  0
 16 35  1  0  0  0  0
 17 36  1  0  0  0  0
 17 37  1  0  0  0  0
 17 38  1  0  0  0  0
 19 22  1  0  0  0  0
 19 39  1  0  0  0  0
 20 24  1  0  0  0  0
 20 40  1  0  0  0  0
 21 23  1  0  0  0  0
 21 41  1  0  0  0  0
 21 42  1  0  0  0  0
 22 24  2  0  0  0  0
 22 44  1  0  0  0  0
 23 25  2  0  0  0  0
 23 26  1  0  0  0  0
 24 45  1  0  0  0  0
 25 27  1  0  0  0  0
 25 46  1  0  0  0  0
 26 28  2  0  0  0  0
 26 47  1  0  0  0  0
 27 29  2  0  0  0  0
 27 48  1  0  0  0  0
 28 29  1  0  0  0  0
 28 49  1  0  0  0  0
 30 50  1  0  0  0  0
 30 51  1  0  0  0  0
 30 52  1  0  0  0  0
M  END
> <PUBCHEM_COMPOUND_CID>
57383432

> <PUBCHEM_COMPOUND_CANONICALIZED>
1

> <PUBCHEM_CACTVS_COMPLEXITY>
607

> <PUBCHEM_CACTVS_HBOND_ACCEPTOR>
4

> <PUBCHEM_CACTVS_HBOND_DONOR>
1

> <PUBCHEM_CACTVS_ROTATABLE_BOND>
5

> <PUBCHEM_CACTVS_SUBSKEYS>
AAADceB7MABAAAAAAAAAAAAAAAAAAAAAAAAwYMAABYAAAAABUAAAHgQQAAAADAzB2AYyx4PABAiIAiVSUACCCAAlKhAIiJ0ObMgMJjLktZuEMShkxhHo6Yec2AKOMAAAQAAEAQBgAACAAAgCAAAAAAAAAA==

> <PUBCHEM_IUPAC_OPENEYE_NAME>
5-ethyl-N-[(4-methoxyphenyl)methyl]-6-oxo-benzo[b][1,4]benzothiazepine-3-carboxamide

> <PUBCHEM_IUPAC_CAS_NAME>
5-ethyl-N-[(4-methoxyphenyl)methyl]-6-oxo-3-benzo[b][1,4]benzothiazepinecarboxamide

> <PUBCHEM_IUPAC_NAME_MARKUP>
5-ethyl-<I>N</I>-[(4-methoxyphenyl)methyl]-6-oxobenzo[b][1,4]benzothiazepine-3-carboxamide

> <PUBCHEM_IUPAC_NAME>
5-ethyl-N-[(4-methoxyphenyl)methyl]-6-oxobenzo[b][1,4]benzothiazepine-3-carboxamide

> <PUBCHEM_IUPAC_SYSTEMATIC_NAME>
5-ethyl-N-[(4-methoxyphenyl)methyl]-6-oxidanylidene-benzo[b][1,4]benzothiazepine-3-carboxamide

> <PUBCHEM_IUPAC_TRADITIONAL_NAME>
5-ethyl-6-keto-N-p-anisyl-benzo[b][1,4]benzothiazepine-3-carboxamide

> <PUBCHEM_IUPAC_INCHI>
InChI=1S/C24H22N2O3S/c1-3-26-20-14-17(23(27)25-15-16-8-11-18(29-2)12-9-16)10-13-22(20)30-21-7-5-4-6-19(21)24(26)28/h4-14H,3,15H2,1-2H3,(H,25,27)

> <PUBCHEM_IUPAC_INCHIKEY>
STPRJGIWQVNMMS-UHFFFAOYSA-N

> <PUBCHEM_XLOGP3_AA>
4.2

> <PUBCHEM_EXACT_MASS>
418.13511374

> <PUBCHEM_MOLECULAR_FORMULA>
C24H22N2O3S

> <PUBCHEM_MOLECULAR_WEIGHT>
418.5

> <PUBCHEM_OPENEYE_CAN_SMILES>
CCN1C2=C(C=CC(=C2)C(=O)NCC3=CC=C(C=C3)OC)SC4=CC=CC=C4C1=O

> <PUBCHEM_OPENEYE_ISO_SMILES>
CCN1C2=C(C=CC(=C2)C(=O)NCC3=CC=C(C=C3)OC)SC4=CC=CC=C4C1=O

> <PUBCHEM_CACTVS_TPSA>
83.9

> <PUBCHEM_MONOISOTOPIC_WEIGHT>
418.13511374

> <PUBCHEM_TOTAL_CHARGE>
0

> <PUBCHEM_HEAVY_ATOM_COUNT>
30

> <PUBCHEM_ATOM_DEF_STEREO_COUNT>
0

> <PUBCHEM_ATOM_UDEF_STEREO_COUNT>
0

> <PUBCHEM_BOND_DEF_STEREO_COUNT>
0

> <PUBCHEM_BOND_UDEF_STEREO_COUNT>
0

> <PUBCHEM_ISOTOPIC_ATOM_COUNT>
0

> <PUBCHEM_COMPONENT_COUNT>
1

> <PUBCHEM_CACTVS_TAUTO_COUNT>
-1

> <PUBCHEM_COORDINATE_TYPE>
1
5
255

> <PUBCHEM_BONDANNOTATIONS>
11  13  8
12  14  8
12  19  8
13  16  8
14  20  8
15  16  8
19  22  8
20  24  8
22  24  8
23  25  8
23  26  8
25  27  8
26  28  8
27  29  8
28  29  8
7  11  8
7  8  8
8  15  8

$$$$
