10560954
  -OEChem-09292322132D

 36 37  0     1  0  0  0  0  0999 V2000
    8.9446   -1.8273    0.0000 F   0  0  0  0  0  0  0  0  0  0  0  0
    5.4641    1.2073    0.0000 N   0  0  0  0  0  0  0  0  0  0  0  0
    6.3301    0.7073    0.0000 C   0  0  2  0  0  0  0  0  0  0  0  0
    6.3301   -0.2927    0.0000 C   0  0  0  0  0  0  0  0  0  0  0  0
    7.1962    1.2073    0.0000 C   0  0  0  0  0  0  0  0  0  0  0  0
    7.1962   -0.7927    0.0000 C   0  0  0  0  0  0  0  0  0  0  0  0
    8.0622    0.7073    0.0000 C   0  0  0  0  0  0  0  0  0  0  0  0
    8.0622   -0.2927    0.0000 C   0  0  0  0  0  0  0  0  0  0  0  0
    4.5981    0.7073    0.0000 C   0  0  0  0  0  0  0  0  0  0  0  0
    3.7320    1.2073    0.0000 C   0  0  0  0  0  0  0  0  0  0  0  0
    8.9561    1.2420    0.0000 C   0  0  0  0  0  0  0  0  0  0  0  0
    8.9561   -0.8274    0.0000 C   0  0  0  0  0  0  0  0  0  0  0  0
    2.8660    0.7073    0.0000 C   0  0  0  0  0  0  0  0  0  0  0  0
    9.8622    0.7281    0.0000 C   0  0  0  0  0  0  0  0  0  0  0  0
    9.8622   -0.3135    0.0000 C   0  0  0  0  0  0  0  0  0  0  0  0
    2.0000    1.2073    0.0000 C   0  0  0  0  0  0  0  0  0  0  0  0
    5.7932    0.3973    0.0000 H   0  0  0  0  0  0  0  0  0  0  0  0
    5.7196   -0.1850    0.0000 H   0  0  0  0  0  0  0  0  0  0  0  0
    6.1181   -0.8753    0.0000 H   0  0  0  0  0  0  0  0  0  0  0  0
    7.5947    1.6822    0.0000 H   0  0  0  0  0  0  0  0  0  0  0  0
    6.7976    1.6822    0.0000 H   0  0  0  0  0  0  0  0  0  0  0  0
    6.7976   -1.2676    0.0000 H   0  0  0  0  0  0  0  0  0  0  0  0
    7.5947   -1.2676    0.0000 H   0  0  0  0  0  0  0  0  0  0  0  0
    5.4641    1.8273    0.0000 H   0  0  0  0  0  0  0  0  0  0  0  0
    4.1996    0.2324    0.0000 H   0  0  0  0  0  0  0  0  0  0  0  0
    4.9966    0.2324    0.0000 H   0  0  0  0  0  0  0  0  0  0  0  0
    4.1306    1.6822    0.0000 H   0  0  0  0  0  0  0  0  0  0  0  0
    3.3335    1.6822    0.0000 H   0  0  0  0  0  0  0  0  0  0  0  0
    8.9490    1.8619    0.0000 H   0  0  0  0  0  0  0  0  0  0  0  0
    2.4675    0.2324    0.0000 H   0  0  0  0  0  0  0  0  0  0  0  0
    3.2646    0.2324    0.0000 H   0  0  0  0  0  0  0  0  0  0  0  0
   10.3979    1.0402    0.0000 H   0  0  0  0  0  0  0  0  0  0  0  0
   10.3979   -0.6256    0.0000 H   0  0  0  0  0  0  0  0  0  0  0  0
    2.3100    1.7442    0.0000 H   0  0  0  0  0  0  0  0  0  0  0  0
    1.4631    1.5173    0.0000 H   0  0  0  0  0  0  0  0  0  0  0  0
    1.6900    0.6704    0.0000 H   0  0  0  0  0  0  0  0  0  0  0  0
  1 12  1  0  0  0  0
  3  2  1  1  0  0  0
  2  9  1  0  0  0  0
  2 24  1  0  0  0  0
  3  4  1  0  0  0  0
  3  5  1  0  0  0  0
  3 17  1  0  0  0  0
  4  6  1  0  0  0  0
  4 18  1  0  0  0  0
  4 19  1  0  0  0  0
  5  7  1  0  0  0  0
  5 20  1  0  0  0  0
  5 21  1  0  0  0  0
  6  8  1  0  0  0  0
  6 22  1  0  0  0  0
  6 23  1  0  0  0  0
  7  8  2  0  0  0  0
  7 11  1  0  0  0  0
  8 12  1  0  0  0  0
  9 10  1  0  0  0  0
  9 25  1  0  0  0  0
  9 26  1  0  0  0  0
 10 13  1  0  0  0  0
 10 27  1  0  0  0  0
 10 28  1  0  0  0  0
 11 14  2  0  0  0  0
 11 29  1  0  0  0  0
 12 15  2  0  0  0  0
 13 16  1  0  0  0  0
 13 30  1  0  0  0  0
 13 31  1  0  0  0  0
 14 15  1  0  0  0  0
 14 32  1  0  0  0  0
 15 33  1  0  0  0  0
 16 34  1  0  0  0  0
 16 35  1  0  0  0  0
 16 36  1  0  0  0  0
M  END
> <PUBCHEM_COMPOUND_CID>
10560954

> <PUBCHEM_COMPOUND_CANONICALIZED>
1

> <PUBCHEM_CACTVS_COMPLEXITY>
207

> <PUBCHEM_CACTVS_HBOND_ACCEPTOR>
2

> <PUBCHEM_CACTVS_HBOND_DONOR>
1

> <PUBCHEM_CACTVS_ROTATABLE_BOND>
4

> <PUBCHEM_CACTVS_SUBSKEYS>
AAADceByAQAAAAAAAAAAAAAAAAAAAAAAAAAwYAAAAAAAAADBAAAAHQAQAAAADCjBGAwyAILAAACAAiBCAAACAAAgAAAIiIAIAIgIICKAkRGEIAAgkACIiAcQgIAOgAAAAAAQAAAQAACAACAAAAAAAAAAAA==

> <PUBCHEM_IUPAC_OPENEYE_NAME>
(2R)-N-butyl-5-fluoro-tetralin-2-amine

> <PUBCHEM_IUPAC_CAS_NAME>
(2R)-N-butyl-5-fluoro-1,2,3,4-tetrahydronaphthalen-2-amine

> <PUBCHEM_IUPAC_NAME_MARKUP>
(2<I>R</I>)-<I>N</I>-butyl-5-fluoro-1,2,3,4-tetrahydronaphthalen-2-amine

> <PUBCHEM_IUPAC_NAME>
(2R)-N-butyl-5-fluoro-1,2,3,4-tetrahydronaphthalen-2-amine

> <PUBCHEM_IUPAC_SYSTEMATIC_NAME>
(2R)-N-butyl-5-fluoranyl-1,2,3,4-tetrahydronaphthalen-2-amine

> <PUBCHEM_IUPAC_TRADITIONAL_NAME>
butyl-[(2R)-5-fluorotetralin-2-yl]amine

> <PUBCHEM_IUPAC_INCHI>
InChI=1S/C14H20FN/c1-2-3-9-16-12-7-8-13-11(10-12)5-4-6-14(13)15/h4-6,12,16H,2-3,7-10H2,1H3/t12-/m1/s1

> <PUBCHEM_IUPAC_INCHIKEY>
VXPJDPSEYZZZEM-GFCCVEGCSA-N

> <PUBCHEM_XLOGP3_AA>
3.6

> <PUBCHEM_EXACT_MASS>
221.157977804

> <PUBCHEM_MOLECULAR_FORMULA>
C14H20FN

> <PUBCHEM_MOLECULAR_WEIGHT>
221.31

> <PUBCHEM_OPENEYE_CAN_SMILES>
CCCCNC1CCC2=C(C1)C=CC=C2F

> <PUBCHEM_OPENEYE_ISO_SMILES>
CCCCN[C@@H]1CCC2=C(C1)C=CC=C2F

> <PUBCHEM_CACTVS_TPSA>
12

> <PUBCHEM_MONOISOTOPIC_WEIGHT>
221.157977804

> <PUBCHEM_TOTAL_CHARGE>
0

> <PUBCHEM_HEAVY_ATOM_COUNT>
16

> <PUBCHEM_ATOM_DEF_STEREO_COUNT>
1

> <PUBCHEM_ATOM_UDEF_STEREO_COUNT>
0

> <PUBCHEM_BOND_DEF_STEREO_COUNT>
0

> <PUBCHEM_BOND_UDEF_STEREO_COUNT>
0

> <PUBCHEM_ISOTOPIC_ATOM_COUNT>
0

> <PUBCHEM_COMPONENT_COUNT>
1

> <PUBCHEM_CACTVS_TAUTO_COUNT>
-1

> <PUBCHEM_COORDINATE_TYPE>
1
5
255

> <PUBCHEM_BONDANNOTATIONS>
11  14  8
12  15  8
14  15  8
3  2  5
7  11  8
7  8  8
8  12  8

$$$$
