72735991
  -OEChem-09292322342D

 62 64  0     1  0  0  0  0  0999 V2000
   14.1846   -1.4844    0.0000 O   0  0  0  0  0  0  0  0  0  0  0  0
   13.3243    0.0189    0.0000 O   0  0  0  0  0  0  0  0  0  0  0  0
    2.0000    0.5631    0.0000 O   0  5  0  0  0  0  0  0  0  0  0  0
    2.8660   -0.9369    0.0000 O   0  0  0  0  0  0  0  0  0  0  0  0
    7.2641    0.5423    0.0000 N   0  0  3  0  0  0  0  0  0  0  0  0
   12.4525   -1.4777    0.0000 N   0  0  0  0  0  0  0  0  0  0  0  0
    2.8660    0.0631    0.0000 N   0  3  0  0  0  0  0  0  0  0  0  0
    9.8602    0.0323    0.0000 C   0  0  0  0  0  0  0  0  0  0  0  0
   10.7282    0.5289    0.0000 C   0  0  0  0  0  0  0  0  0  0  0  0
    9.8564   -0.9677    0.0000 C   0  0  0  0  0  0  0  0  0  0  0  0
   11.5884   -0.9744    0.0000 C   0  0  0  0  0  0  0  0  0  0  0  0
   11.5923    0.0256    0.0000 C   0  0  0  0  0  0  0  0  0  0  0  0
   10.7205   -1.4711    0.0000 C   0  0  0  0  0  0  0  0  0  0  0  0
    8.9962    0.5356    0.0000 C   0  0  0  0  0  0  0  0  0  0  0  0
    8.1282    0.0389    0.0000 C   0  0  0  0  0  0  0  0  0  0  0  0
    7.2641    1.5839    0.0000 C   0  0  0  0  0  0  0  0  0  0  0  0
    6.3580    0.0284    0.0000 C   0  0  0  0  0  0  0  0  0  0  0  0
    6.3580    2.0977    0.0000 C   0  0  0  0  0  0  0  0  0  0  0  0
    5.4641    0.5631    0.0000 C   0  0  0  0  0  0  0  0  0  0  0  0
    5.4641    1.5631    0.0000 C   0  0  0  0  0  0  0  0  0  0  0  0
   13.3205   -0.9811    0.0000 C   0  0  0  0  0  0  0  0  0  0  0  0
    4.5981    0.0631    0.0000 C   0  0  0  0  0  0  0  0  0  0  0  0
    4.5981    2.0631    0.0000 C   0  0  0  0  0  0  0  0  0  0  0  0
    3.7320    0.5631    0.0000 C   0  0  0  0  0  0  0  0  0  0  0  0
   15.0525   -0.9878    0.0000 C   0  0  0  0  0  0  0  0  0  0  0  0
    3.7320    1.5631    0.0000 C   0  0  0  0  0  0  0  0  0  0  0  0
   15.9204   -0.4911    0.0000 C   0  0  0  0  0  0  0  0  0  0  0  0
   15.5492   -1.8557    0.0000 C   0  0  0  0  0  0  0  0  0  0  0  0
   14.5558   -0.1198    0.0000 C   0  0  0  0  0  0  0  0  0  0  0  0
    9.8626    0.6523    0.0000 H   0  0  0  0  0  0  0  0  0  0  0  0
   11.1285    1.0023    0.0000 H   0  0  0  0  0  0  0  0  0  0  0  0
   10.3315    1.0054    0.0000 H   0  0  0  0  0  0  0  0  0  0  0  0
    9.2462   -0.8577    0.0000 H   0  0  0  0  0  0  0  0  0  0  0  0
    9.6421   -1.5495    0.0000 H   0  0  0  0  0  0  0  0  0  0  0  0
   11.5860   -1.5944    0.0000 H   0  0  0  0  0  0  0  0  0  0  0  0
   12.2024   -0.0844    0.0000 H   0  0  0  0  0  0  0  0  0  0  0  0
   11.8066    0.6074    0.0000 H   0  0  0  0  0  0  0  0  0  0  0  0
   10.3201   -1.9445    0.0000 H   0  0  0  0  0  0  0  0  0  0  0  0
   11.1172   -1.9476    0.0000 H   0  0  0  0  0  0  0  0  0  0  0  0
    9.3965    1.0090    0.0000 H   0  0  0  0  0  0  0  0  0  0  0  0
    8.5994    1.0121    0.0000 H   0  0  0  0  0  0  0  0  0  0  0  0
    7.7278   -0.4345    0.0000 H   0  0  0  0  0  0  0  0  0  0  0  0
    8.5249   -0.4375    0.0000 H   0  0  0  0  0  0  0  0  0  0  0  0
   12.4501   -2.0977    0.0000 H   0  0  0  0  0  0  0  0  0  0  0  0
    7.8750    1.4778    0.0000 H   0  0  0  0  0  0  0  0  0  0  0  0
    7.4732    2.1676    0.0000 H   0  0  0  0  0  0  0  0  0  0  0  0
    5.9534   -0.4414    0.0000 H   0  0  0  0  0  0  0  0  0  0  0  0
    6.7517   -0.4506    0.0000 H   0  0  0  0  0  0  0  0  0  0  0  0
    6.7517    2.5768    0.0000 H   0  0  0  0  0  0  0  0  0  0  0  0
    5.9534    2.5675    0.0000 H   0  0  0  0  0  0  0  0  0  0  0  0
    4.5981   -0.5569    0.0000 H   0  0  0  0  0  0  0  0  0  0  0  0
    4.5981    2.6831    0.0000 H   0  0  0  0  0  0  0  0  0  0  0  0
    3.1951    1.8731    0.0000 H   0  0  0  0  0  0  0  0  0  0  0  0
   16.2284   -1.0292    0.0000 H   0  0  0  0  0  0  0  0  0  0  0  0
   16.4586   -0.1832    0.0000 H   0  0  0  0  0  0  0  0  0  0  0  0
   15.6125    0.0470    0.0000 H   0  0  0  0  0  0  0  0  0  0  0  0
   15.0110   -2.1636    0.0000 H   0  0  0  0  0  0  0  0  0  0  0  0
   15.8571   -2.3938    0.0000 H   0  0  0  0  0  0  0  0  0  0  0  0
   16.0873   -1.5478    0.0000 H   0  0  0  0  0  0  0  0  0  0  0  0
   15.0940    0.1881    0.0000 H   0  0  0  0  0  0  0  0  0  0  0  0
   14.2479    0.4183    0.0000 H   0  0  0  0  0  0  0  0  0  0  0  0
   14.0177   -0.4277    0.0000 H   0  0  0  0  0  0  0  0  0  0  0  0
  1 21  1  0  0  0  0
  1 25  1  0  0  0  0
  2 21  2  0  0  0  0
  3  7  1  0  0  0  0
  4  7  2  0  0  0  0
  5 15  1  0  0  0  0
  5 16  1  0  0  0  0
  5 17  1  0  0  0  0
  6 11  1  0  0  0  0
  6 21  1  0  0  0  0
  6 44  1  0  0  0  0
  7 24  1  0  0  0  0
  8  9  1  0  0  0  0
  8 10  1  0  0  0  0
  8 14  1  0  0  0  0
  8 30  1  0  0  0  0
  9 12  1  0  0  0  0
  9 31  1  0  0  0  0
  9 32  1  0  0  0  0
 10 13  1  0  0  0  0
 10 33  1  0  0  0  0
 10 34  1  0  0  0  0
 11 12  1  0  0  0  0
 11 13  1  0  0  0  0
 11 35  1  0  0  0  0
 12 36  1  0  0  0  0
 12 37  1  0  0  0  0
 13 38  1  0  0  0  0
 13 39  1  0  0  0  0
 14 15  1  0  0  0  0
 14 40  1  0  0  0  0
 14 41  1  0  0  0  0
 15 42  1  0  0  0  0
 15 43  1  0  0  0  0
 16 18  1  0  0  0  0
 16 45  1  0  0  0  0
 16 46  1  0  0  0  0
 17 19  1  0  0  0  0
 17 47  1  0  0  0  0
 17 48  1  0  0  0  0
 18 20  1  0  0  0  0
 18 49  1  0  0  0  0
 18 50  1  0  0  0  0
 19 20  2  0  0  0  0
 19 22  1  0  0  0  0
 20 23  1  0  0  0  0
 22 24  2  0  0  0  0
 22 51  1  0  0  0  0
 23 26  2  0  0  0  0
 23 52  1  0  0  0  0
 24 26  1  0  0  0  0
 25 27  1  0  0  0  0
 25 28  1  0  0  0  0
 25 29  1  0  0  0  0
 26 53  1  0  0  0  0
 27 54  1  0  0  0  0
 27 55  1  0  0  0  0
 27 56  1  0  0  0  0
 28 57  1  0  0  0  0
 28 58  1  0  0  0  0
 28 59  1  0  0  0  0
 29 60  1  0  0  0  0
 29 61  1  0  0  0  0
 29 62  1  0  0  0  0
M  CHG  2   3  -1   7   1
M  END
> <PUBCHEM_COMPOUND_CID>
72735991

> <PUBCHEM_COMPOUND_CANONICALIZED>
1

> <PUBCHEM_CACTVS_COMPLEXITY>
563

> <PUBCHEM_CACTVS_HBOND_ACCEPTOR>
5

> <PUBCHEM_CACTVS_HBOND_DONOR>
1

> <PUBCHEM_CACTVS_ROTATABLE_BOND>
6

> <PUBCHEM_CACTVS_SUBSKEYS>
AAADcfB7OAAAAAAAAAAAAAAAAAAAAAAAAAA8YIAAAAAAAACxAAAAHgAUAAAADWzBmAQyyIPQRACJAiRCWwCCAAAgAgAoiIAIZIsIICKAkZGMIAhglgCIyAcQgIAOiAAAQAAQAAAQAACAACAAAAAAAAAAAA==

> <PUBCHEM_IUPAC_OPENEYE_NAME>
tert-butyl N-[4-[2-(7-nitro-3,4-dihydro-1H-isoquinolin-2-yl)ethyl]cyclohexyl]carbamate

> <PUBCHEM_IUPAC_CAS_NAME>
N-[4-[2-(7-nitro-3,4-dihydro-1H-isoquinolin-2-yl)ethyl]cyclohexyl]carbamic acid tert-butyl ester

> <PUBCHEM_IUPAC_NAME_MARKUP>
<I>tert</I>-butyl <I>N</I>-[4-[2-(7-nitro-3,4-dihydro-1<I>H</I>-isoquinolin-2-yl)ethyl]cyclohexyl]carbamate

> <PUBCHEM_IUPAC_NAME>
tert-butyl N-[4-[2-(7-nitro-3,4-dihydro-1H-isoquinolin-2-yl)ethyl]cyclohexyl]carbamate

> <PUBCHEM_IUPAC_SYSTEMATIC_NAME>
tert-butyl N-[4-[2-(7-nitro-3,4-dihydro-1H-isoquinolin-2-yl)ethyl]cyclohexyl]carbamate

> <PUBCHEM_IUPAC_TRADITIONAL_NAME>
N-[4-[2-(7-nitro-3,4-dihydro-1H-isoquinolin-2-yl)ethyl]cyclohexyl]carbamic acid tert-butyl ester

> <PUBCHEM_IUPAC_INCHI>
InChI=1S/C22H33N3O4/c1-22(2,3)29-21(26)23-19-7-4-16(5-8-19)10-12-24-13-11-17-6-9-20(25(27)28)14-18(17)15-24/h6,9,14,16,19H,4-5,7-8,10-13,15H2,1-3H3,(H,23,26)

> <PUBCHEM_IUPAC_INCHIKEY>
XOSFZMMMGNXEFV-UHFFFAOYSA-N

> <PUBCHEM_XLOGP3_AA>
4.2

> <PUBCHEM_EXACT_MASS>
403.24710654

> <PUBCHEM_MOLECULAR_FORMULA>
C22H33N3O4

> <PUBCHEM_MOLECULAR_WEIGHT>
403.5

> <PUBCHEM_OPENEYE_CAN_SMILES>
CC(C)(C)OC(=O)NC1CCC(CC1)CCN2CCC3=C(C2)C=C(C=C3)[N+](=O)[O-]

> <PUBCHEM_OPENEYE_ISO_SMILES>
CC(C)(C)OC(=O)NC1CCC(CC1)CCN2CCC3=C(C2)C=C(C=C3)[N+](=O)[O-]

> <PUBCHEM_CACTVS_TPSA>
87.4

> <PUBCHEM_MONOISOTOPIC_WEIGHT>
403.24710654

> <PUBCHEM_TOTAL_CHARGE>
0

> <PUBCHEM_HEAVY_ATOM_COUNT>
29

> <PUBCHEM_ATOM_DEF_STEREO_COUNT>
0

> <PUBCHEM_ATOM_UDEF_STEREO_COUNT>
0

> <PUBCHEM_BOND_DEF_STEREO_COUNT>
0

> <PUBCHEM_BOND_UDEF_STEREO_COUNT>
0

> <PUBCHEM_ISOTOPIC_ATOM_COUNT>
0

> <PUBCHEM_COMPONENT_COUNT>
1

> <PUBCHEM_CACTVS_TAUTO_COUNT>
-1

> <PUBCHEM_COORDINATE_TYPE>
1
5
255

> <PUBCHEM_BONDANNOTATIONS>
19  20  8
19  22  8
20  23  8
22  24  8
23  26  8
24  26  8

$$$$
