117871069
  -OEChem-09292322052D

 79 82  0     0  0  0  0  0  0999 V2000
   16.2619   -4.3231    0.0000 F   0  0  0  0  0  0  0  0  0  0  0  0
   16.6279   -2.9571    0.0000 F   0  0  0  0  0  0  0  0  0  0  0  0
   14.8959   -3.9571    0.0000 F   0  0  0  0  0  0  0  0  0  0  0  0
    6.7619    1.7391    0.0000 O   0  0  0  0  0  0  0  0  0  0  0  0
   10.7619   -1.7250    0.0000 N   0  0  0  0  0  0  0  0  0  0  0  0
   12.7619   -1.7250    0.0000 N   0  0  0  0  0  0  0  0  0  0  0  0
   14.2619   -0.8590    0.0000 N   0  0  0  0  0  0  0  0  0  0  0  0
   15.7619   -1.7250    0.0000 N   0  0  0  0  0  0  0  0  0  0  0  0
    6.7619    0.0070    0.0000 N   0  0  0  0  0  0  0  0  0  0  0  0
    3.7320    1.3730    0.0000 N   0  0  0  0  0  0  0  0  0  0  0  0
    4.6783    0.0683    0.0000 N   0  0  0  0  0  0  0  0  0  0  0  0
    4.3211    3.3726    0.0000 N   0  0  0  0  0  0  0  0  0  0  0  0
   11.2619   -2.5911    0.0000 C   0  0  0  0  0  0  0  0  0  0  0  0
   11.2619   -0.8590    0.0000 C   0  0  0  0  0  0  0  0  0  0  0  0
   12.2619   -2.5911    0.0000 C   0  0  0  0  0  0  0  0  0  0  0  0
   12.2619   -0.8590    0.0000 C   0  0  0  0  0  0  0  0  0  0  0  0
    9.7619   -1.7250    0.0000 C   0  0  0  0  0  0  0  0  0  0  0  0
    9.2619   -0.8590    0.0000 C   0  0  0  0  0  0  0  0  0  0  0  0
   13.7619   -1.7250    0.0000 C   0  0  0  0  0  0  0  0  0  0  0  0
    8.2619   -0.8590    0.0000 C   0  0  0  0  0  0  0  0  0  0  0  0
   15.7619    0.0070    0.0000 C   0  0  0  0  0  0  0  0  0  0  0  0
    7.7619    0.0070    0.0000 C   0  0  0  0  0  0  0  0  0  0  0  0
   15.2619   -0.8590    0.0000 C   0  0  0  0  0  0  0  0  0  0  0  0
   14.2619   -2.5911    0.0000 C   0  0  0  0  0  0  0  0  0  0  0  0
   15.2619   -2.5911    0.0000 C   0  0  0  0  0  0  0  0  0  0  0  0
   16.2619    0.8730    0.0000 C   0  0  0  0  0  0  0  0  0  0  0  0
   16.6279   -0.4930    0.0000 C   0  0  0  0  0  0  0  0  0  0  0  0
   14.8959    0.5070    0.0000 C   0  0  0  0  0  0  0  0  0  0  0  0
   15.7619   -3.4571    0.0000 C   0  0  0  0  0  0  0  0  0  0  0  0
    6.2619    0.8730    0.0000 C   0  0  0  0  0  0  0  0  0  0  0  0
    5.2619    0.8730    0.0000 C   0  0  0  0  0  0  0  0  0  0  0  0
    4.6783    1.6778    0.0000 C   0  0  0  0  0  0  0  0  0  0  0  0
    4.9889    2.6283    0.0000 C   0  0  0  0  0  0  0  0  0  0  0  0
    3.7320    0.3730    0.0000 C   0  0  0  0  0  0  0  0  0  0  0  0
    2.8660    1.8730    0.0000 C   0  0  0  0  0  0  0  0  0  0  0  0
    2.8660   -0.1270    0.0000 C   0  0  0  0  0  0  0  0  0  0  0  0
    2.0000    1.3730    0.0000 C   0  0  0  0  0  0  0  0  0  0  0  0
    2.0000    0.3730    0.0000 C   0  0  0  0  0  0  0  0  0  0  0  0
    4.6318    4.3231    0.0000 C   0  0  0  0  0  0  0  0  0  0  0  0
    3.3426    3.1664    0.0000 C   0  0  0  0  0  0  0  0  0  0  0  0
   10.6793   -2.8031    0.0000 H   0  0  0  0  0  0  0  0  0  0  0  0
   11.3695   -3.2016    0.0000 H   0  0  0  0  0  0  0  0  0  0  0  0
   11.3695   -0.2484    0.0000 H   0  0  0  0  0  0  0  0  0  0  0  0
   10.6793   -0.6470    0.0000 H   0  0  0  0  0  0  0  0  0  0  0  0
   12.1542   -3.2016    0.0000 H   0  0  0  0  0  0  0  0  0  0  0  0
   12.8445   -2.8031    0.0000 H   0  0  0  0  0  0  0  0  0  0  0  0
   12.8445   -0.6470    0.0000 H   0  0  0  0  0  0  0  0  0  0  0  0
   12.1542   -0.2484    0.0000 H   0  0  0  0  0  0  0  0  0  0  0  0
    9.1793   -1.9371    0.0000 H   0  0  0  0  0  0  0  0  0  0  0  0
    9.8695   -2.3356    0.0000 H   0  0  0  0  0  0  0  0  0  0  0  0
    9.8445   -0.6470    0.0000 H   0  0  0  0  0  0  0  0  0  0  0  0
    9.1542   -0.2484    0.0000 H   0  0  0  0  0  0  0  0  0  0  0  0
    7.6793   -1.0711    0.0000 H   0  0  0  0  0  0  0  0  0  0  0  0
    8.3695   -1.4696    0.0000 H   0  0  0  0  0  0  0  0  0  0  0  0
    8.3445    0.2191    0.0000 H   0  0  0  0  0  0  0  0  0  0  0  0
    7.6542    0.6176    0.0000 H   0  0  0  0  0  0  0  0  0  0  0  0
   13.9519   -3.1280    0.0000 H   0  0  0  0  0  0  0  0  0  0  0  0
   16.7988    0.5630    0.0000 H   0  0  0  0  0  0  0  0  0  0  0  0
   16.5719    1.4100    0.0000 H   0  0  0  0  0  0  0  0  0  0  0  0
   15.7249    1.1830    0.0000 H   0  0  0  0  0  0  0  0  0  0  0  0
   16.3179   -1.0299    0.0000 H   0  0  0  0  0  0  0  0  0  0  0  0
   17.1648   -0.8030    0.0000 H   0  0  0  0  0  0  0  0  0  0  0  0
   16.9379    0.0439    0.0000 H   0  0  0  0  0  0  0  0  0  0  0  0
   15.2059    1.0440    0.0000 H   0  0  0  0  0  0  0  0  0  0  0  0
   14.3589    0.8170    0.0000 H   0  0  0  0  0  0  0  0  0  0  0  0
   14.5859   -0.0299    0.0000 H   0  0  0  0  0  0  0  0  0  0  0  0
    6.4519   -0.5299    0.0000 H   0  0  0  0  0  0  0  0  0  0  0  0
    5.5359    2.3363    0.0000 H   0  0  0  0  0  0  0  0  0  0  0  0
    5.3715    3.1162    0.0000 H   0  0  0  0  0  0  0  0  0  0  0  0
    2.8660    2.4930    0.0000 H   0  0  0  0  0  0  0  0  0  0  0  0
    2.8660   -0.7470    0.0000 H   0  0  0  0  0  0  0  0  0  0  0  0
    1.4631    1.6830    0.0000 H   0  0  0  0  0  0  0  0  0  0  0  0
    1.4631    0.0630    0.0000 H   0  0  0  0  0  0  0  0  0  0  0  0
    5.2211    4.1305    0.0000 H   0  0  0  0  0  0  0  0  0  0  0  0
    4.8244    4.9124    0.0000 H   0  0  0  0  0  0  0  0  0  0  0  0
    4.0424    4.5157    0.0000 H   0  0  0  0  0  0  0  0  0  0  0  0
    3.2147    3.7730    0.0000 H   0  0  0  0  0  0  0  0  0  0  0  0
    2.7359    3.0385    0.0000 H   0  0  0  0  0  0  0  0  0  0  0  0
    3.4704    2.5597    0.0000 H   0  0  0  0  0  0  0  0  0  0  0  0
  1 29  1  0  0  0  0
  2 29  1  0  0  0  0
  3 29  1  0  0  0  0
  4 30  2  0  0  0  0
  5 13  1  0  0  0  0
  5 14  1  0  0  0  0
  5 17  1  0  0  0  0
  6 15  1  0  0  0  0
  6 16  1  0  0  0  0
  6 19  1  0  0  0  0
  7 19  2  0  0  0  0
  7 23  1  0  0  0  0
  8 23  2  0  0  0  0
  8 25  1  0  0  0  0
  9 22  1  0  0  0  0
  9 30  1  0  0  0  0
  9 67  1  0  0  0  0
 10 32  1  0  0  0  0
 10 34  1  0  0  0  0
 10 35  1  0  0  0  0
 11 31  1  0  0  0  0
 11 34  2  0  0  0  0
 12 33  1  0  0  0  0
 12 39  1  0  0  0  0
 12 40  1  0  0  0  0
 13 15  1  0  0  0  0
 13 41  1  0  0  0  0
 13 42  1  0  0  0  0
 14 16  1  0  0  0  0
 14 43  1  0  0  0  0
 14 44  1  0  0  0  0
 15 45  1  0  0  0  0
 15 46  1  0  0  0  0
 16 47  1  0  0  0  0
 16 48  1  0  0  0  0
 17 18  1  0  0  0  0
 17 49  1  0  0  0  0
 17 50  1  0  0  0  0
 18 20  1  0  0  0  0
 18 51  1  0  0  0  0
 18 52  1  0  0  0  0
 19 24  1  0  0  0  0
 20 22  1  0  0  0  0
 20 53  1  0  0  0  0
 20 54  1  0  0  0  0
 21 23  1  0  0  0  0
 21 26  1  0  0  0  0
 21 27  1  0  0  0  0
 21 28  1  0  0  0  0
 22 55  1  0  0  0  0
 22 56  1  0  0  0  0
 24 25  2  0  0  0  0
 24 57  1  0  0  0  0
 25 29  1  0  0  0  0
 26 58  1  0  0  0  0
 26 59  1  0  0  0  0
 26 60  1  0  0  0  0
 27 61  1  0  0  0  0
 27 62  1  0  0  0  0
 27 63  1  0  0  0  0
 28 64  1  0  0  0  0
 28 65  1  0  0  0  0
 28 66  1  0  0  0  0
 30 31  1  0  0  0  0
 31 32  2  0  0  0  0
 32 33  1  0  0  0  0
 33 68  1  0  0  0  0
 33 69  1  0  0  0  0
 34 36  1  0  0  0  0
 35 37  2  0  0  0  0
 35 70  1  0  0  0  0
 36 38  2  0  0  0  0
 36 71  1  0  0  0  0
 37 38  1  0  0  0  0
 37 72  1  0  0  0  0
 38 73  1  0  0  0  0
 39 74  1  0  0  0  0
 39 75  1  0  0  0  0
 39 76  1  0  0  0  0
 40 77  1  0  0  0  0
 40 78  1  0  0  0  0
 40 79  1  0  0  0  0
M  END
> <PUBCHEM_COMPOUND_CID>
117871069

> <PUBCHEM_COMPOUND_CANONICALIZED>
1

> <PUBCHEM_CACTVS_COMPLEXITY>
814

> <PUBCHEM_CACTVS_HBOND_ACCEPTOR>
10

> <PUBCHEM_CACTVS_HBOND_DONOR>
1

> <PUBCHEM_CACTVS_ROTATABLE_BOND>
10

> <PUBCHEM_CACTVS_SUBSKEYS>
AAADcfB74YAAAAAAAAAAAAAAAAAAAWAAAAAsWLAAAAAAAFgB+AAAHwAQAAAADgjBlxQ/sJ/MGACoATd3dACCgC03EqAJ2KG4dNiIaPrA2fGUJYholgLIyWYUAAAAAAAAAAAAAAAAAAAAAAAAAAAAAAAAAA==

> <PUBCHEM_IUPAC_OPENEYE_NAME>
N-[4-[4-[2-tert-butyl-6-(trifluoromethyl)pyrimidin-4-yl]piperazin-1-yl]butyl]-3-[(dimethylamino)methyl]imidazo[1,2-a]pyridine-2-carboxamide

> <PUBCHEM_IUPAC_CAS_NAME>
N-[4-[4-[2-tert-butyl-6-(trifluoromethyl)-4-pyrimidinyl]-1-piperazinyl]butyl]-3-[(dimethylamino)methyl]-2-imidazo[1,2-a]pyridinecarboxamide

> <PUBCHEM_IUPAC_NAME_MARKUP>
<I>N</I>-[4-[4-[2-<I>tert</I>-butyl-6-(trifluoromethyl)pyrimidin-4-yl]piperazin-1-yl]butyl]-3-[(dimethylamino)methyl]imidazo[1,2-a]pyridine-2-carboxamide

> <PUBCHEM_IUPAC_NAME>
N-[4-[4-[2-tert-butyl-6-(trifluoromethyl)pyrimidin-4-yl]piperazin-1-yl]butyl]-3-[(dimethylamino)methyl]imidazo[1,2-a]pyridine-2-carboxamide

> <PUBCHEM_IUPAC_SYSTEMATIC_NAME>
N-[4-[4-[2-tert-butyl-6-(trifluoromethyl)pyrimidin-4-yl]piperazin-1-yl]butyl]-3-[(dimethylamino)methyl]imidazo[1,2-a]pyridine-2-carboxamide

> <PUBCHEM_IUPAC_TRADITIONAL_NAME>
N-[4-[4-[2-tert-butyl-6-(trifluoromethyl)pyrimidin-4-yl]piperazino]butyl]-3-[(dimethylamino)methyl]imidazo[1,2-a]pyridine-2-carboxamide

> <PUBCHEM_IUPAC_INCHI>
InChI=1S/C28H39F3N8O/c1-27(2,3)26-33-21(28(29,30)31)18-23(35-26)38-16-14-37(15-17-38)12-9-7-11-32-25(40)24-20(19-36(4)5)39-13-8-6-10-22(39)34-24/h6,8,10,13,18H,7,9,11-12,14-17,19H2,1-5H3,(H,32,40)

> <PUBCHEM_IUPAC_INCHIKEY>
WMXFRQFMQHQCBJ-UHFFFAOYSA-N

> <PUBCHEM_XLOGP3_AA>
4.8

> <PUBCHEM_EXACT_MASS>
560.31989238

> <PUBCHEM_MOLECULAR_FORMULA>
C28H39F3N8O

> <PUBCHEM_MOLECULAR_WEIGHT>
560.7

> <PUBCHEM_OPENEYE_CAN_SMILES>
CC(C)(C)C1=NC(=CC(=N1)N2CCN(CC2)CCCCNC(=O)C3=C(N4C=CC=CC4=N3)CN(C)C)C(F)(F)F

> <PUBCHEM_OPENEYE_ISO_SMILES>
CC(C)(C)C1=NC(=CC(=N1)N2CCN(CC2)CCCCNC(=O)C3=C(N4C=CC=CC4=N3)CN(C)C)C(F)(F)F

> <PUBCHEM_CACTVS_TPSA>
81.9

> <PUBCHEM_MONOISOTOPIC_WEIGHT>
560.31989238

> <PUBCHEM_TOTAL_CHARGE>
0

> <PUBCHEM_HEAVY_ATOM_COUNT>
40

> <PUBCHEM_ATOM_DEF_STEREO_COUNT>
0

> <PUBCHEM_ATOM_UDEF_STEREO_COUNT>
0

> <PUBCHEM_BOND_DEF_STEREO_COUNT>
0

> <PUBCHEM_BOND_UDEF_STEREO_COUNT>
0

> <PUBCHEM_ISOTOPIC_ATOM_COUNT>
0

> <PUBCHEM_COMPONENT_COUNT>
1

> <PUBCHEM_CACTVS_TAUTO_COUNT>
-1

> <PUBCHEM_COORDINATE_TYPE>
1
5
255

> <PUBCHEM_BONDANNOTATIONS>
10  32  8
10  34  8
10  35  8
11  31  8
11  34  8
19  24  8
24  25  8
31  32  8
34  36  8
35  37  8
36  38  8
37  38  8
7  19  8
7  23  8
8  23  8
8  25  8

$$$$
