53310757
  -OEChem-09292322472D

 47 49  0     0  0  0  0  0  0999 V2000
    4.9677    0.9034    0.0000 S   0  0  0  0  0  0  0  0  0  0  0  0
    5.7768    1.4912    0.0000 O   0  0  0  0  0  0  0  0  0  0  0  0
    4.1587    0.3156    0.0000 O   0  0  0  0  0  0  0  0  0  0  0  0
    5.7366   -1.6282    0.0000 N   0  0  0  0  0  0  0  0  0  0  0  0
    6.7366   -1.6282    0.0000 N   0  0  0  0  0  0  0  0  0  0  0  0
    5.5555    0.0944    0.0000 N   0  0  0  0  0  0  0  0  0  0  0  0
    4.1543   -0.9237    0.0000 N   0  0  0  0  0  0  0  0  0  0  0  0
    2.6166    4.1395    0.0000 N   0  0  0  0  0  0  0  0  0  0  0  0
    6.2366   -3.1670    0.0000 C   0  0  0  0  0  0  0  0  0  0  0  0
    7.0456   -3.7548    0.0000 C   0  0  0  0  0  0  0  0  0  0  0  0
    5.4276   -3.7548    0.0000 C   0  0  0  0  0  0  0  0  0  0  0  0
    6.7366   -4.7059    0.0000 C   0  0  0  0  0  0  0  0  0  0  0  0
    5.7366   -4.7059    0.0000 C   0  0  0  0  0  0  0  0  0  0  0  0
    5.4276   -2.5792    0.0000 C   0  0  0  0  0  0  0  0  0  0  0  0
    7.0456   -2.5792    0.0000 C   0  0  0  0  0  0  0  0  0  0  0  0
    5.1488   -0.8192    0.0000 C   0  0  0  0  0  0  0  0  0  0  0  0
    3.5665   -0.1147    0.0000 C   0  0  0  0  0  0  0  0  0  0  0  0
    4.3800    1.7124    0.0000 C   0  0  0  0  0  0  0  0  0  0  0  0
    2.5720   -0.2192    0.0000 C   0  0  0  0  0  0  0  0  0  0  0  0
    3.3854    1.6079    0.0000 C   0  0  0  0  0  0  0  0  0  0  0  0
    4.7867    2.6260    0.0000 C   0  0  0  0  0  0  0  0  0  0  0  0
    2.7976    2.4169    0.0000 C   0  0  0  0  0  0  0  0  0  0  0  0
    4.1989    3.4350    0.0000 C   0  0  0  0  0  0  0  0  0  0  0  0
    3.2044    3.3304    0.0000 C   0  0  0  0  0  0  0  0  0  0  0  0
    7.6120   -4.0070    0.0000 H   0  0  0  0  0  0  0  0  0  0  0  0
    7.3556   -3.2179    0.0000 H   0  0  0  0  0  0  0  0  0  0  0  0
    5.1176   -3.2179    0.0000 H   0  0  0  0  0  0  0  0  0  0  0  0
    4.8612   -4.0070    0.0000 H   0  0  0  0  0  0  0  0  0  0  0  0
    6.6718   -5.3225    0.0000 H   0  0  0  0  0  0  0  0  0  0  0  0
    7.3430   -4.8348    0.0000 H   0  0  0  0  0  0  0  0  0  0  0  0
    5.1301   -4.8348    0.0000 H   0  0  0  0  0  0  0  0  0  0  0  0
    5.8014   -5.3225    0.0000 H   0  0  0  0  0  0  0  0  0  0  0  0
    4.8612   -2.3271    0.0000 H   0  0  0  0  0  0  0  0  0  0  0  0
    5.1176   -3.1162    0.0000 H   0  0  0  0  0  0  0  0  0  0  0  0
    7.6352   -2.7708    0.0000 H   0  0  0  0  0  0  0  0  0  0  0  0
    6.1721    0.1592    0.0000 H   0  0  0  0  0  0  0  0  0  0  0  0
    4.1237    0.1571    0.0000 H   0  0  0  0  0  0  0  0  0  0  0  0
    3.3956    0.4813    0.0000 H   0  0  0  0  0  0  0  0  0  0  0  0
    2.5072    0.3974    0.0000 H   0  0  0  0  0  0  0  0  0  0  0  0
    1.9554   -0.2840    0.0000 H   0  0  0  0  0  0  0  0  0  0  0  0
    2.6368   -0.8358    0.0000 H   0  0  0  0  0  0  0  0  0  0  0  0
    3.1333    1.0415    0.0000 H   0  0  0  0  0  0  0  0  0  0  0  0
    5.4033    2.6908    0.0000 H   0  0  0  0  0  0  0  0  0  0  0  0
    2.1810    2.3521    0.0000 H   0  0  0  0  0  0  0  0  0  0  0  0
    4.4511    4.0014    0.0000 H   0  0  0  0  0  0  0  0  0  0  0  0
    2.8688    4.7059    0.0000 H   0  0  0  0  0  0  0  0  0  0  0  0
    2.0000    4.0747    0.0000 H   0  0  0  0  0  0  0  0  0  0  0  0
  1  2  2  0  0  0  0
  1  3  2  0  0  0  0
  1  6  1  0  0  0  0
  1 18  1  0  0  0  0
  4  5  1  0  0  0  0
  4 14  1  0  0  0  0
  4 16  1  0  0  0  0
  5 15  2  0  0  0  0
  6 16  1  0  0  0  0
  6 36  1  0  0  0  0
  7 16  2  0  0  0  0
  7 17  1  0  0  0  0
  8 24  1  0  0  0  0
  8 46  1  0  0  0  0
  8 47  1  0  0  0  0
  9 10  1  0  0  0  0
  9 11  1  0  0  0  0
  9 14  1  0  0  0  0
  9 15  1  0  0  0  0
 10 12  1  0  0  0  0
 10 25  1  0  0  0  0
 10 26  1  0  0  0  0
 11 13  1  0  0  0  0
 11 27  1  0  0  0  0
 11 28  1  0  0  0  0
 12 13  1  0  0  0  0
 12 29  1  0  0  0  0
 12 30  1  0  0  0  0
 13 31  1  0  0  0  0
 13 32  1  0  0  0  0
 14 33  1  0  0  0  0
 14 34  1  0  0  0  0
 15 35  1  0  0  0  0
 17 19  1  0  0  0  0
 17 37  1  0  0  0  0
 17 38  1  0  0  0  0
 18 20  2  0  0  0  0
 18 21  1  0  0  0  0
 19 39  1  0  0  0  0
 19 40  1  0  0  0  0
 19 41  1  0  0  0  0
 20 22  1  0  0  0  0
 20 42  1  0  0  0  0
 21 23  2  0  0  0  0
 21 43  1  0  0  0  0
 22 24  2  0  0  0  0
 22 44  1  0  0  0  0
 23 24  1  0  0  0  0
 23 45  1  0  0  0  0
M  END
> <PUBCHEM_COMPOUND_CID>
53310757

> <PUBCHEM_COMPOUND_CANONICALIZED>
1

> <PUBCHEM_CACTVS_COMPLEXITY>
596

> <PUBCHEM_CACTVS_HBOND_ACCEPTOR>
5

> <PUBCHEM_CACTVS_HBOND_DONOR>
2

> <PUBCHEM_CACTVS_ROTATABLE_BOND>
5

> <PUBCHEM_CACTVS_SUBSKEYS>
AAADceB7sABAAAAAAAAAAAAAAAAAAYIAAAAwAAAAAAAAAAABAAAAHAQYQAAADgjBUAQzwYJAAAKgADRjZHDSABEgAgAdiBgoZIiIICKAmZGEIABwmAIIyAcQAAAPAAQAAAAAAAAACAAAAAAAAAAAAAAAAA==

> <PUBCHEM_IUPAC_OPENEYE_NAME>
N-(4-aminophenyl)sulfonyl-N'-ethyl-2,3-diazaspiro[4.4]non-3-ene-2-carboxamidine

> <PUBCHEM_IUPAC_CAS_NAME>
N-(4-aminophenyl)sulfonyl-N'-ethyl-2,3-diazaspiro[4.4]non-3-ene-2-carboximidamide

> <PUBCHEM_IUPAC_NAME_MARKUP>
<I>N</I>-(4-aminophenyl)sulfonyl-<I>N</I>&apos;-ethyl-2,3-diazaspiro[4.4]non-3-ene-2-carboximidamide

> <PUBCHEM_IUPAC_NAME>
N-(4-aminophenyl)sulfonyl-N'-ethyl-2,3-diazaspiro[4.4]non-3-ene-2-carboximidamide

> <PUBCHEM_IUPAC_SYSTEMATIC_NAME>
N-(4-aminophenyl)sulfonyl-N'-ethyl-2,3-diazaspiro[4.4]non-3-ene-2-carboximidamide

> <PUBCHEM_IUPAC_TRADITIONAL_NAME>
N'-ethyl-N-sulfanilyl-2,3-diazaspiro[4.4]non-3-ene-2-carboxamidine

> <PUBCHEM_IUPAC_INCHI>
InChI=1S/C16H23N5O2S/c1-2-18-15(21-12-16(11-19-21)9-3-4-10-16)20-24(22,23)14-7-5-13(17)6-8-14/h5-8,11H,2-4,9-10,12,17H2,1H3,(H,18,20)

> <PUBCHEM_IUPAC_INCHIKEY>
FIGQVKAQXFFDHK-UHFFFAOYSA-N

> <PUBCHEM_XLOGP3_AA>
1.4

> <PUBCHEM_EXACT_MASS>
349.15724617

> <PUBCHEM_MOLECULAR_FORMULA>
C16H23N5O2S

> <PUBCHEM_MOLECULAR_WEIGHT>
349.5

> <PUBCHEM_OPENEYE_CAN_SMILES>
CCN=C(NS(=O)(=O)C1=CC=C(C=C1)N)N2CC3(CCCC3)C=N2

> <PUBCHEM_OPENEYE_ISO_SMILES>
CCN=C(NS(=O)(=O)C1=CC=C(C=C1)N)N2CC3(CCCC3)C=N2

> <PUBCHEM_CACTVS_TPSA>
109

> <PUBCHEM_MONOISOTOPIC_WEIGHT>
349.15724617

> <PUBCHEM_TOTAL_CHARGE>
0

> <PUBCHEM_HEAVY_ATOM_COUNT>
24

> <PUBCHEM_ATOM_DEF_STEREO_COUNT>
0

> <PUBCHEM_ATOM_UDEF_STEREO_COUNT>
0

> <PUBCHEM_BOND_DEF_STEREO_COUNT>
0

> <PUBCHEM_BOND_UDEF_STEREO_COUNT>
0

> <PUBCHEM_ISOTOPIC_ATOM_COUNT>
0

> <PUBCHEM_COMPONENT_COUNT>
1

> <PUBCHEM_CACTVS_TAUTO_COUNT>
-1

> <PUBCHEM_COORDINATE_TYPE>
1
5
255

> <PUBCHEM_BONDANNOTATIONS>
18  20  8
18  21  8
20  22  8
21  23  8
22  24  8
23  24  8

$$$$
