118710469
  -OEChem-09292322352D

 69 72  0     0  0  0  0  0  0999 V2000
    4.6783    0.6850    0.0000 S   0  0  0  0  0  0  0  0  0  0  0  0
   16.2619    1.4897    0.0000 F   0  0  0  0  0  0  0  0  0  0  0  0
   16.6279    0.1237    0.0000 F   0  0  0  0  0  0  0  0  0  0  0  0
   14.8959    1.1237    0.0000 F   0  0  0  0  0  0  0  0  0  0  0  0
    6.7619    2.3557    0.0000 O   0  0  0  0  0  0  0  0  0  0  0  0
   10.7619   -1.1084    0.0000 N   0  0  0  0  0  0  0  0  0  0  0  0
   12.7619   -1.1084    0.0000 N   0  0  0  0  0  0  0  0  0  0  0  0
   14.2619   -1.9744    0.0000 N   0  0  0  0  0  0  0  0  0  0  0  0
   15.7619   -1.1084    0.0000 N   0  0  0  0  0  0  0  0  0  0  0  0
    6.7619    0.6237    0.0000 N   0  0  0  0  0  0  0  0  0  0  0  0
    4.9889    3.2450    0.0000 N   0  0  0  0  0  0  0  0  0  0  0  0
    2.8660    0.4897    0.0000 N   0  0  0  0  0  0  0  0  0  0  0  0
   11.2619   -1.9744    0.0000 C   0  0  0  0  0  0  0  0  0  0  0  0
   11.2619   -0.2423    0.0000 C   0  0  0  0  0  0  0  0  0  0  0  0
   12.2619   -1.9744    0.0000 C   0  0  0  0  0  0  0  0  0  0  0  0
   12.2619   -0.2423    0.0000 C   0  0  0  0  0  0  0  0  0  0  0  0
    9.7619   -1.1084    0.0000 C   0  0  0  0  0  0  0  0  0  0  0  0
    9.2619   -0.2423    0.0000 C   0  0  0  0  0  0  0  0  0  0  0  0
   13.7619   -1.1084    0.0000 C   0  0  0  0  0  0  0  0  0  0  0  0
    8.2619   -0.2423    0.0000 C   0  0  0  0  0  0  0  0  0  0  0  0
   15.7619   -2.8404    0.0000 C   0  0  0  0  0  0  0  0  0  0  0  0
   15.2619   -1.9744    0.0000 C   0  0  0  0  0  0  0  0  0  0  0  0
   14.2619   -0.2423    0.0000 C   0  0  0  0  0  0  0  0  0  0  0  0
    7.7619    0.6237    0.0000 C   0  0  0  0  0  0  0  0  0  0  0  0
   15.2619   -0.2423    0.0000 C   0  0  0  0  0  0  0  0  0  0  0  0
   16.2619   -3.7064    0.0000 C   0  0  0  0  0  0  0  0  0  0  0  0
   16.6279   -2.3404    0.0000 C   0  0  0  0  0  0  0  0  0  0  0  0
   14.8959   -3.3404    0.0000 C   0  0  0  0  0  0  0  0  0  0  0  0
   15.7619    0.6237    0.0000 C   0  0  0  0  0  0  0  0  0  0  0  0
    6.2619    1.4897    0.0000 C   0  0  0  0  0  0  0  0  0  0  0  0
    5.2619    1.4897    0.0000 C   0  0  0  0  0  0  0  0  0  0  0  0
    4.6783    2.2944    0.0000 C   0  0  0  0  0  0  0  0  0  0  0  0
    3.7320    1.9897    0.0000 C   0  0  0  0  0  0  0  0  0  0  0  0
    3.7320    0.9897    0.0000 C   0  0  0  0  0  0  0  0  0  0  0  0
    2.8660    2.4897    0.0000 C   0  0  0  0  0  0  0  0  0  0  0  0
    2.0000    1.9897    0.0000 C   0  0  0  0  0  0  0  0  0  0  0  0
    2.0000    0.9897    0.0000 C   0  0  0  0  0  0  0  0  0  0  0  0
   10.6793   -2.1864    0.0000 H   0  0  0  0  0  0  0  0  0  0  0  0
   11.3695   -2.5850    0.0000 H   0  0  0  0  0  0  0  0  0  0  0  0
   11.3695    0.3682    0.0000 H   0  0  0  0  0  0  0  0  0  0  0  0
   10.6793   -0.0303    0.0000 H   0  0  0  0  0  0  0  0  0  0  0  0
   12.1542   -2.5850    0.0000 H   0  0  0  0  0  0  0  0  0  0  0  0
   12.8445   -2.1864    0.0000 H   0  0  0  0  0  0  0  0  0  0  0  0
   12.8445   -0.0303    0.0000 H   0  0  0  0  0  0  0  0  0  0  0  0
   12.1542    0.3682    0.0000 H   0  0  0  0  0  0  0  0  0  0  0  0
    9.1793   -1.3204    0.0000 H   0  0  0  0  0  0  0  0  0  0  0  0
    9.8695   -1.7189    0.0000 H   0  0  0  0  0  0  0  0  0  0  0  0
    9.8445   -0.0303    0.0000 H   0  0  0  0  0  0  0  0  0  0  0  0
    9.1542    0.3682    0.0000 H   0  0  0  0  0  0  0  0  0  0  0  0
    7.6793   -0.4544    0.0000 H   0  0  0  0  0  0  0  0  0  0  0  0
    8.3695   -0.8529    0.0000 H   0  0  0  0  0  0  0  0  0  0  0  0
   13.9519    0.2946    0.0000 H   0  0  0  0  0  0  0  0  0  0  0  0
    8.3445    0.8357    0.0000 H   0  0  0  0  0  0  0  0  0  0  0  0
    7.6542    1.2343    0.0000 H   0  0  0  0  0  0  0  0  0  0  0  0
   15.7249   -4.0164    0.0000 H   0  0  0  0  0  0  0  0  0  0  0  0
   16.5719   -4.2434    0.0000 H   0  0  0  0  0  0  0  0  0  0  0  0
   16.7988   -3.3964    0.0000 H   0  0  0  0  0  0  0  0  0  0  0  0
   16.9379   -2.8774    0.0000 H   0  0  0  0  0  0  0  0  0  0  0  0
   17.1648   -2.0304    0.0000 H   0  0  0  0  0  0  0  0  0  0  0  0
   16.3179   -1.8035    0.0000 H   0  0  0  0  0  0  0  0  0  0  0  0
   14.5859   -2.8035    0.0000 H   0  0  0  0  0  0  0  0  0  0  0  0
   14.3589   -3.6504    0.0000 H   0  0  0  0  0  0  0  0  0  0  0  0
   15.2059   -3.8774    0.0000 H   0  0  0  0  0  0  0  0  0  0  0  0
    6.4519    0.0868    0.0000 H   0  0  0  0  0  0  0  0  0  0  0  0
    2.8660    3.1097    0.0000 H   0  0  0  0  0  0  0  0  0  0  0  0
    4.5749    3.7064    0.0000 H   0  0  0  0  0  0  0  0  0  0  0  0
    5.5956    3.3728    0.0000 H   0  0  0  0  0  0  0  0  0  0  0  0
    1.4631    2.2997    0.0000 H   0  0  0  0  0  0  0  0  0  0  0  0
    1.4631    0.6797    0.0000 H   0  0  0  0  0  0  0  0  0  0  0  0
  1 31  1  0  0  0  0
  1 34  1  0  0  0  0
  2 29  1  0  0  0  0
  3 29  1  0  0  0  0
  4 29  1  0  0  0  0
  5 30  2  0  0  0  0
  6 13  1  0  0  0  0
  6 14  1  0  0  0  0
  6 17  1  0  0  0  0
  7 15  1  0  0  0  0
  7 16  1  0  0  0  0
  7 19  1  0  0  0  0
  8 19  2  0  0  0  0
  8 22  1  0  0  0  0
  9 22  2  0  0  0  0
  9 25  1  0  0  0  0
 10 24  1  0  0  0  0
 10 30  1  0  0  0  0
 10 64  1  0  0  0  0
 11 32  1  0  0  0  0
 11 66  1  0  0  0  0
 11 67  1  0  0  0  0
 12 34  1  0  0  0  0
 12 37  2  0  0  0  0
 13 15  1  0  0  0  0
 13 38  1  0  0  0  0
 13 39  1  0  0  0  0
 14 16  1  0  0  0  0
 14 40  1  0  0  0  0
 14 41  1  0  0  0  0
 15 42  1  0  0  0  0
 15 43  1  0  0  0  0
 16 44  1  0  0  0  0
 16 45  1  0  0  0  0
 17 18  1  0  0  0  0
 17 46  1  0  0  0  0
 17 47  1  0  0  0  0
 18 20  1  0  0  0  0
 18 48  1  0  0  0  0
 18 49  1  0  0  0  0
 19 23  1  0  0  0  0
 20 24  1  0  0  0  0
 20 50  1  0  0  0  0
 20 51  1  0  0  0  0
 21 22  1  0  0  0  0
 21 26  1  0  0  0  0
 21 27  1  0  0  0  0
 21 28  1  0  0  0  0
 23 25  2  0  0  0  0
 23 52  1  0  0  0  0
 24 53  1  0  0  0  0
 24 54  1  0  0  0  0
 25 29  1  0  0  0  0
 26 55  1  0  0  0  0
 26 56  1  0  0  0  0
 26 57  1  0  0  0  0
 27 58  1  0  0  0  0
 27 59  1  0  0  0  0
 27 60  1  0  0  0  0
 28 61  1  0  0  0  0
 28 62  1  0  0  0  0
 28 63  1  0  0  0  0
 30 31  1  0  0  0  0
 31 32  2  0  0  0  0
 32 33  1  0  0  0  0
 33 34  2  0  0  0  0
 33 35  1  0  0  0  0
 35 36  2  0  0  0  0
 35 65  1  0  0  0  0
 36 37  1  0  0  0  0
 36 68  1  0  0  0  0
 37 69  1  0  0  0  0
M  END
> <PUBCHEM_COMPOUND_CID>
118710469

> <PUBCHEM_COMPOUND_CANONICALIZED>
1

> <PUBCHEM_CACTVS_COMPLEXITY>
760

> <PUBCHEM_CACTVS_HBOND_ACCEPTOR>
11

> <PUBCHEM_CACTVS_HBOND_DONOR>
2

> <PUBCHEM_CACTVS_ROTATABLE_BOND>
8

> <PUBCHEM_CACTVS_SUBSKEYS>
AAADcfB7oYBAAAAAAAAAAAAAAAAAASAAAAAsWLAAAAAAAFgB/gAAHwQQAAAADgjB3xQ/8dfIEAisAzd3dACD0Kl1CrgJ2LU4ZNiIaPrg3dGUJYxolgLoyWcYiQCOAAAAAAAAAAAAAAAAAAAAAAAAAAAAAA==

> <PUBCHEM_IUPAC_OPENEYE_NAME>
3-amino-N-[4-[4-[2-tert-butyl-6-(trifluoromethyl)pyrimidin-4-yl]piperazin-1-yl]butyl]thieno[2,3-b]pyridine-2-carboxamide

> <PUBCHEM_IUPAC_CAS_NAME>
3-amino-N-[4-[4-[2-tert-butyl-6-(trifluoromethyl)-4-pyrimidinyl]-1-piperazinyl]butyl]-2-thieno[2,3-b]pyridinecarboxamide

> <PUBCHEM_IUPAC_NAME_MARKUP>
3-amino-<I>N</I>-[4-[4-[2-<I>tert</I>-butyl-6-(trifluoromethyl)pyrimidin-4-yl]piperazin-1-yl]butyl]thieno[2,3-b]pyridine-2-carboxamide

> <PUBCHEM_IUPAC_NAME>
3-amino-N-[4-[4-[2-tert-butyl-6-(trifluoromethyl)pyrimidin-4-yl]piperazin-1-yl]butyl]thieno[2,3-b]pyridine-2-carboxamide

> <PUBCHEM_IUPAC_SYSTEMATIC_NAME>
3-azanyl-N-[4-[4-[2-tert-butyl-6-(trifluoromethyl)pyrimidin-4-yl]piperazin-1-yl]butyl]thieno[2,3-b]pyridine-2-carboxamide

> <PUBCHEM_IUPAC_TRADITIONAL_NAME>
3-amino-N-[4-[4-[2-tert-butyl-6-(trifluoromethyl)pyrimidin-4-yl]piperazino]butyl]thieno[2,3-b]pyridine-2-carboxamide

> <PUBCHEM_IUPAC_INCHI>
InChI=1S/C25H32F3N7OS/c1-24(2,3)23-32-17(25(26,27)28)15-18(33-23)35-13-11-34(12-14-35)10-5-4-8-30-21(36)20-19(29)16-7-6-9-31-22(16)37-20/h6-7,9,15H,4-5,8,10-14,29H2,1-3H3,(H,30,36)

> <PUBCHEM_IUPAC_INCHIKEY>
IVVUETVVMPRMEL-UHFFFAOYSA-N

> <PUBCHEM_XLOGP3_AA>
5.3

> <PUBCHEM_EXACT_MASS>
535.23411433

> <PUBCHEM_MOLECULAR_FORMULA>
C25H32F3N7OS

> <PUBCHEM_MOLECULAR_WEIGHT>
535.6

> <PUBCHEM_OPENEYE_CAN_SMILES>
CC(C)(C)C1=NC(=CC(=N1)N2CCN(CC2)CCCCNC(=O)C3=C(C4=C(S3)N=CC=C4)N)C(F)(F)F

> <PUBCHEM_OPENEYE_ISO_SMILES>
CC(C)(C)C1=NC(=CC(=N1)N2CCN(CC2)CCCCNC(=O)C3=C(C4=C(S3)N=CC=C4)N)C(F)(F)F

> <PUBCHEM_CACTVS_TPSA>
129

> <PUBCHEM_MONOISOTOPIC_WEIGHT>
535.23411433

> <PUBCHEM_TOTAL_CHARGE>
0

> <PUBCHEM_HEAVY_ATOM_COUNT>
37

> <PUBCHEM_ATOM_DEF_STEREO_COUNT>
0

> <PUBCHEM_ATOM_UDEF_STEREO_COUNT>
0

> <PUBCHEM_BOND_DEF_STEREO_COUNT>
0

> <PUBCHEM_BOND_UDEF_STEREO_COUNT>
0

> <PUBCHEM_ISOTOPIC_ATOM_COUNT>
0

> <PUBCHEM_COMPONENT_COUNT>
1

> <PUBCHEM_CACTVS_TAUTO_COUNT>
-1

> <PUBCHEM_COORDINATE_TYPE>
1
5
255

> <PUBCHEM_BONDANNOTATIONS>
1  31  8
1  34  8
12  34  8
12  37  8
19  23  8
23  25  8
31  32  8
32  33  8
33  34  8
33  35  8
35  36  8
36  37  8
8  19  8
8  22  8
9  22  8
9  25  8

$$$$
