155533573
  -OEChem-09292322402D

 46 49  0     0  0  0  0  0  0999 V2000
    8.9267    0.0482    0.0000 S   0  0  0  0  0  0  0  0  0  0  0  0
    9.8772    0.3588    0.0000 O   0  0  0  0  0  0  0  0  0  0  0  0
    7.9762   -0.2625    0.0000 O   0  0  0  0  0  0  0  0  0  0  0  0
    2.0000   -0.6081    0.0000 O   0  0  0  0  0  0  0  0  0  0  0  0
    8.6160    0.9987    0.0000 N   0  0  0  0  0  0  0  0  0  0  0  0
    3.4890    0.4670    0.0000 N   0  0  0  0  0  0  0  0  0  0  0  0
    4.9672   -0.1911    0.0000 N   0  0  0  0  0  0  0  0  0  0  0  0
    3.5823   -1.3126    0.0000 N   0  0  0  0  0  0  0  0  0  0  0  0
    7.6698    1.3034    0.0000 C   0  0  0  0  0  0  0  0  0  0  0  0
    7.6698    2.3034    0.0000 C   0  0  0  0  0  0  0  0  0  0  0  0
    5.9378    1.3034    0.0000 C   0  0  0  0  0  0  0  0  0  0  0  0
    6.8038    0.8034    0.0000 C   0  0  0  0  0  0  0  0  0  0  0  0
    9.1996    1.8034    0.0000 C   0  0  0  0  0  0  0  0  0  0  0  0
    8.6160    2.6081    0.0000 C   0  0  0  0  0  0  0  0  0  0  0  0
    6.8038    2.8034    0.0000 C   0  0  0  0  0  0  0  0  0  0  0  0
    5.0717    0.8034    0.0000 C   0  0  0  0  0  0  0  0  0  0  0  0
    5.9378    2.3034    0.0000 C   0  0  0  0  0  0  0  0  0  0  0  0
    9.2373   -0.9024    0.0000 C   0  0  0  0  0  0  0  0  0  0  0  0
    4.1582    1.2101    0.0000 C   0  0  0  0  0  0  0  0  0  0  0  0
    3.9890   -0.3990    0.0000 C   0  0  0  0  0  0  0  0  0  0  0  0
    8.5695   -1.6467    0.0000 C   0  0  0  0  0  0  0  0  0  0  0  0
   10.2158   -1.1086    0.0000 C   0  0  0  0  0  0  0  0  0  0  0  0
    3.9503    2.1883    0.0000 C   0  0  0  0  0  0  0  0  0  0  0  0
    8.8802   -2.5972    0.0000 C   0  0  0  0  0  0  0  0  0  0  0  0
   10.5265   -2.0591    0.0000 C   0  0  0  0  0  0  0  0  0  0  0  0
    9.8587   -2.8034    0.0000 C   0  0  0  0  0  0  0  0  0  0  0  0
    2.5878   -1.4171    0.0000 C   0  0  0  0  0  0  0  0  0  0  0  0
    2.1810   -2.3306    0.0000 C   0  0  0  0  0  0  0  0  0  0  0  0
    6.8038    0.1834    0.0000 H   0  0  0  0  0  0  0  0  0  0  0  0
    9.8196    1.8034    0.0000 H   0  0  0  0  0  0  0  0  0  0  0  0
    8.8086    3.1975    0.0000 H   0  0  0  0  0  0  0  0  0  0  0  0
    6.8038    3.4234    0.0000 H   0  0  0  0  0  0  0  0  0  0  0  0
    5.4008    2.6134    0.0000 H   0  0  0  0  0  0  0  0  0  0  0  0
    2.8724    0.5318    0.0000 H   0  0  0  0  0  0  0  0  0  0  0  0
    7.9628   -1.5188    0.0000 H   0  0  0  0  0  0  0  0  0  0  0  0
   10.6299   -0.6471    0.0000 H   0  0  0  0  0  0  0  0  0  0  0  0
    4.5567    2.3172    0.0000 H   0  0  0  0  0  0  0  0  0  0  0  0
    3.8214    2.7947    0.0000 H   0  0  0  0  0  0  0  0  0  0  0  0
    3.3438    2.0594    0.0000 H   0  0  0  0  0  0  0  0  0  0  0  0
    8.4661   -3.0587    0.0000 H   0  0  0  0  0  0  0  0  0  0  0  0
   11.1332   -2.1870    0.0000 H   0  0  0  0  0  0  0  0  0  0  0  0
    3.9467   -1.8142    0.0000 H   0  0  0  0  0  0  0  0  0  0  0  0
   10.0513   -3.3927    0.0000 H   0  0  0  0  0  0  0  0  0  0  0  0
    1.6146   -2.0785    0.0000 H   0  0  0  0  0  0  0  0  0  0  0  0
    1.9289   -2.8970    0.0000 H   0  0  0  0  0  0  0  0  0  0  0  0
    2.7474   -2.5828    0.0000 H   0  0  0  0  0  0  0  0  0  0  0  0
  1  2  2  0  0  0  0
  1  3  2  0  0  0  0
  1  5  1  0  0  0  0
  1 18  1  0  0  0  0
  4 27  2  0  0  0  0
  5  9  1  0  0  0  0
  5 13  1  0  0  0  0
  6 19  1  0  0  0  0
  6 20  1  0  0  0  0
  6 34  1  0  0  0  0
  7 16  1  0  0  0  0
  7 20  2  0  0  0  0
  8 20  1  0  0  0  0
  8 27  1  0  0  0  0
  8 42  1  0  0  0  0
  9 10  2  0  0  0  0
  9 12  1  0  0  0  0
 10 14  1  0  0  0  0
 10 15  1  0  0  0  0
 11 12  2  0  0  0  0
 11 16  1  0  0  0  0
 11 17  1  0  0  0  0
 12 29  1  0  0  0  0
 13 14  2  0  0  0  0
 13 30  1  0  0  0  0
 14 31  1  0  0  0  0
 15 17  2  0  0  0  0
 15 32  1  0  0  0  0
 16 19  2  0  0  0  0
 17 33  1  0  0  0  0
 18 21  2  0  0  0  0
 18 22  1  0  0  0  0
 19 23  1  0  0  0  0
 21 24  1  0  0  0  0
 21 35  1  0  0  0  0
 22 25  2  0  0  0  0
 22 36  1  0  0  0  0
 23 37  1  0  0  0  0
 23 38  1  0  0  0  0
 23 39  1  0  0  0  0
 24 26  2  0  0  0  0
 24 40  1  0  0  0  0
 25 26  1  0  0  0  0
 25 41  1  0  0  0  0
 26 43  1  0  0  0  0
 27 28  1  0  0  0  0
 28 44  1  0  0  0  0
 28 45  1  0  0  0  0
 28 46  1  0  0  0  0
M  END
> <PUBCHEM_COMPOUND_CID>
155533573

> <PUBCHEM_COMPOUND_CANONICALIZED>
1

> <PUBCHEM_CACTVS_COMPLEXITY>
673

> <PUBCHEM_CACTVS_HBOND_ACCEPTOR>
4

> <PUBCHEM_CACTVS_HBOND_DONOR>
2

> <PUBCHEM_CACTVS_ROTATABLE_BOND>
4

> <PUBCHEM_CACTVS_SUBSKEYS>
AAADceB7sABAAAAAAAAAAAAAAAAAAWLAAAAwYAAAAAAAAFgB/AAAHgQQQAAADAjB3gQ/0fbJkAKoAzV3dHDCgD2xEqAJ2Tg4dJiIaOLAmZGUIAhokQLIyCcQgMAOQAAAQAACAACAAACAAAQAAAAAAAAAAA==

> <PUBCHEM_IUPAC_OPENEYE_NAME>
N-[4-[1-(benzenesulfonyl)indol-6-yl]-5-methyl-1H-imidazol-2-yl]acetamide

> <PUBCHEM_IUPAC_CAS_NAME>
N-[4-[1-(benzenesulfonyl)-6-indolyl]-5-methyl-1H-imidazol-2-yl]acetamide

> <PUBCHEM_IUPAC_NAME_MARKUP>
<I>N</I>-[4-[1-(benzenesulfonyl)indol-6-yl]-5-methyl-1<I>H</I>-imidazol-2-yl]acetamide

> <PUBCHEM_IUPAC_NAME>
N-[4-[1-(benzenesulfonyl)indol-6-yl]-5-methyl-1H-imidazol-2-yl]acetamide

> <PUBCHEM_IUPAC_SYSTEMATIC_NAME>
N-[5-methyl-4-[1-(phenylsulfonyl)indol-6-yl]-1H-imidazol-2-yl]ethanamide

> <PUBCHEM_IUPAC_TRADITIONAL_NAME>
N-[4-(1-besylindol-6-yl)-5-methyl-1H-imidazol-2-yl]acetamide

> <PUBCHEM_IUPAC_INCHI>
InChI=1S/C20H18N4O3S/c1-13-19(23-20(21-13)22-14(2)25)16-9-8-15-10-11-24(18(15)12-16)28(26,27)17-6-4-3-5-7-17/h3-12H,1-2H3,(H2,21,22,23,25)

> <PUBCHEM_IUPAC_INCHIKEY>
IJGAQYGFGDVRAH-UHFFFAOYSA-N

> <PUBCHEM_XLOGP3_AA>
2.9

> <PUBCHEM_EXACT_MASS>
394.10996162

> <PUBCHEM_MOLECULAR_FORMULA>
C20H18N4O3S

> <PUBCHEM_MOLECULAR_WEIGHT>
394.4

> <PUBCHEM_OPENEYE_CAN_SMILES>
CC1=C(N=C(N1)NC(=O)C)C2=CC3=C(C=C2)C=CN3S(=O)(=O)C4=CC=CC=C4

> <PUBCHEM_OPENEYE_ISO_SMILES>
CC1=C(N=C(N1)NC(=O)C)C2=CC3=C(C=C2)C=CN3S(=O)(=O)C4=CC=CC=C4

> <PUBCHEM_CACTVS_TPSA>
105

> <PUBCHEM_MONOISOTOPIC_WEIGHT>
394.10996162

> <PUBCHEM_TOTAL_CHARGE>
0

> <PUBCHEM_HEAVY_ATOM_COUNT>
28

> <PUBCHEM_ATOM_DEF_STEREO_COUNT>
0

> <PUBCHEM_ATOM_UDEF_STEREO_COUNT>
0

> <PUBCHEM_BOND_DEF_STEREO_COUNT>
0

> <PUBCHEM_BOND_UDEF_STEREO_COUNT>
0

> <PUBCHEM_ISOTOPIC_ATOM_COUNT>
0

> <PUBCHEM_COMPONENT_COUNT>
1

> <PUBCHEM_CACTVS_TAUTO_COUNT>
-1

> <PUBCHEM_COORDINATE_TYPE>
1
5
255

> <PUBCHEM_BONDANNOTATIONS>
10  14  8
10  15  8
11  12  8
11  17  8
13  14  8
15  17  8
16  19  8
18  21  8
18  22  8
21  24  8
22  25  8
24  26  8
25  26  8
5  13  8
5  9  8
6  19  8
6  20  8
7  16  8
7  20  8
9  10  8
9  12  8

$$$$
