137645295
  -OEChem-09292322062D

 61 65  0     1  0  0  0  0  0999 V2000
   14.7754   -0.5841    0.0000 F   0  0  0  0  0  0  0  0  0  0  0  0
    2.6200    2.7986    0.0000 O   0  0  0  0  0  0  0  0  0  0  0  0
   12.0069   -2.8058    0.0000 O   0  0  0  0  0  0  0  0  0  0  0  0
    4.8699   -1.1078    0.0000 O   0  0  0  0  0  0  0  0  0  0  0  0
    8.3340   -0.1078    0.0000 N   0  0  0  0  0  0  0  0  0  0  0  0
    4.0038    0.3922    0.0000 N   0  0  0  0  0  0  0  0  0  0  0  0
    4.8699    1.8922    0.0000 N   0  0  0  0  0  0  0  0  0  0  0  0
   11.0351   -2.5966    0.0000 N   0  0  0  0  0  0  0  0  0  0  0  0
   10.0660   -1.1078    0.0000 C   0  0  0  0  0  0  0  0  0  0  0  0
    9.2000   -1.6078    0.0000 C   0  0  0  0  0  0  0  0  0  0  0  0
   10.0660   -0.1078    0.0000 C   0  0  0  0  0  0  0  0  0  0  0  0
    8.3340   -1.1078    0.0000 C   0  0  0  0  0  0  0  0  0  0  0  0
    9.2000    0.3922    0.0000 C   0  0  0  0  0  0  0  0  0  0  0  0
    3.1099    1.9268    0.0000 C   0  0  3  0  0  0  0  0  0  0  0  0
    7.4680    0.3922    0.0000 C   0  0  0  0  0  0  0  0  0  0  0  0
    2.2038    1.4130    0.0000 C   0  0  0  0  0  0  0  0  0  0  0  0
    4.0038    1.3922    0.0000 C   0  0  0  0  0  0  0  0  0  0  0  0
    6.6019   -0.1078    0.0000 C   0  0  0  0  0  0  0  0  0  0  0  0
    2.2038    0.3714    0.0000 C   0  0  0  0  0  0  0  0  0  0  0  0
    3.1099   -0.1425    0.0000 C   0  0  0  0  0  0  0  0  0  0  0  0
   10.9321   -1.6078    0.0000 C   0  0  0  0  0  0  0  0  0  0  0  0
    5.7359    0.3922    0.0000 C   0  0  0  0  0  0  0  0  0  0  0  0
    4.8699   -0.1078    0.0000 C   0  0  0  0  0  0  0  0  0  0  0  0
    3.6199    2.7870    0.0000 C   0  0  0  0  0  0  0  0  0  0  0  0
    5.7359    1.3922    0.0000 C   0  0  0  0  0  0  0  0  0  0  0  0
   11.8398   -1.2027    0.0000 C   0  0  0  0  0  0  0  0  0  0  0  0
   12.5077   -1.9470    0.0000 C   0  0  0  0  0  0  0  0  0  0  0  0
    6.6019    1.8922    0.0000 C   0  0  0  0  0  0  0  0  0  0  0  0
   12.1505   -0.2522    0.0000 C   0  0  0  0  0  0  0  0  0  0  0  0
   13.4862   -1.7408    0.0000 C   0  0  0  0  0  0  0  0  0  0  0  0
   13.1290   -0.0460    0.0000 C   0  0  0  0  0  0  0  0  0  0  0  0
   13.7969   -0.7903    0.0000 C   0  0  0  0  0  0  0  0  0  0  0  0
   10.0660   -1.7278    0.0000 H   0  0  0  0  0  0  0  0  0  0  0  0
    8.8015   -2.0828    0.0000 H   0  0  0  0  0  0  0  0  0  0  0  0
    9.5985   -2.0828    0.0000 H   0  0  0  0  0  0  0  0  0  0  0  0
   10.6766   -0.2155    0.0000 H   0  0  0  0  0  0  0  0  0  0  0  0
   10.2781    0.4748    0.0000 H   0  0  0  0  0  0  0  0  0  0  0  0
    7.7234   -1.0002    0.0000 H   0  0  0  0  0  0  0  0  0  0  0  0
    8.1219   -1.6904    0.0000 H   0  0  0  0  0  0  0  0  0  0  0  0
    9.5985    0.8671    0.0000 H   0  0  0  0  0  0  0  0  0  0  0  0
    8.8015    0.8671    0.0000 H   0  0  0  0  0  0  0  0  0  0  0  0
    7.8665    0.8671    0.0000 H   0  0  0  0  0  0  0  0  0  0  0  0
    7.0694    0.8671    0.0000 H   0  0  0  0  0  0  0  0  0  0  0  0
    1.9948    1.9967    0.0000 H   0  0  0  0  0  0  0  0  0  0  0  0
    1.5930    1.3069    0.0000 H   0  0  0  0  0  0  0  0  0  0  0  0
    6.2034   -0.5828    0.0000 H   0  0  0  0  0  0  0  0  0  0  0  0
    7.0005   -0.5828    0.0000 H   0  0  0  0  0  0  0  0  0  0  0  0
    1.5930    0.4775    0.0000 H   0  0  0  0  0  0  0  0  0  0  0  0
    1.9948   -0.2123    0.0000 H   0  0  0  0  0  0  0  0  0  0  0  0
    2.7163   -0.6215    0.0000 H   0  0  0  0  0  0  0  0  0  0  0  0
    3.5145   -0.6123    0.0000 H   0  0  0  0  0  0  0  0  0  0  0  0
    4.1532    2.4708    0.0000 H   0  0  0  0  0  0  0  0  0  0  0  0
    3.9361    3.3203    0.0000 H   0  0  0  0  0  0  0  0  0  0  0  0
    3.0866    3.1032    0.0000 H   0  0  0  0  0  0  0  0  0  0  0  0
    2.0000    2.8058    0.0000 H   0  0  0  0  0  0  0  0  0  0  0  0
    6.9119    1.3552    0.0000 H   0  0  0  0  0  0  0  0  0  0  0  0
    7.1389    2.2022    0.0000 H   0  0  0  0  0  0  0  0  0  0  0  0
    6.2919    2.4291    0.0000 H   0  0  0  0  0  0  0  0  0  0  0  0
   11.7364    0.2093    0.0000 H   0  0  0  0  0  0  0  0  0  0  0  0
   13.9003   -2.2023    0.0000 H   0  0  0  0  0  0  0  0  0  0  0  0
   13.3216    0.5433    0.0000 H   0  0  0  0  0  0  0  0  0  0  0  0
  1 32  1  0  0  0  0
  2 14  1  0  0  0  0
  2 55  1  0  0  0  0
  3  8  1  0  0  0  0
  3 27  1  0  0  0  0
  4 23  2  0  0  0  0
  5 12  1  0  0  0  0
  5 13  1  0  0  0  0
  5 15  1  0  0  0  0
  6 17  1  0  0  0  0
  6 20  1  0  0  0  0
  6 23  1  0  0  0  0
  7 17  2  0  0  0  0
  7 25  1  0  0  0  0
  8 21  2  0  0  0  0
  9 10  1  0  0  0  0
  9 11  1  0  0  0  0
  9 21  1  0  0  0  0
  9 33  1  0  0  0  0
 10 12  1  0  0  0  0
 10 34  1  0  0  0  0
 10 35  1  0  0  0  0
 11 13  1  0  0  0  0
 11 36  1  0  0  0  0
 11 37  1  0  0  0  0
 12 38  1  0  0  0  0
 12 39  1  0  0  0  0
 13 40  1  0  0  0  0
 13 41  1  0  0  0  0
 14 16  1  0  0  0  0
 14 17  1  0  0  0  0
 14 24  1  0  0  0  0
 15 18  1  0  0  0  0
 15 42  1  0  0  0  0
 15 43  1  0  0  0  0
 16 19  1  0  0  0  0
 16 44  1  0  0  0  0
 16 45  1  0  0  0  0
 18 22  1  0  0  0  0
 18 46  1  0  0  0  0
 18 47  1  0  0  0  0
 19 20  1  0  0  0  0
 19 48  1  0  0  0  0
 19 49  1  0  0  0  0
 20 50  1  0  0  0  0
 20 51  1  0  0  0  0
 21 26  1  0  0  0  0
 22 23  1  0  0  0  0
 22 25  2  0  0  0  0
 24 52  1  0  0  0  0
 24 53  1  0  0  0  0
 24 54  1  0  0  0  0
 25 28  1  0  0  0  0
 26 27  2  0  0  0  0
 26 29  1  0  0  0  0
 27 30  1  0  0  0  0
 28 56  1  0  0  0  0
 28 57  1  0  0  0  0
 28 58  1  0  0  0  0
 29 31  2  0  0  0  0
 29 59  1  0  0  0  0
 30 32  2  0  0  0  0
 30 60  1  0  0  0  0
 31 32  1  0  0  0  0
 31 61  1  0  0  0  0
M  END
> <PUBCHEM_COMPOUND_CID>
137645295

> <PUBCHEM_COMPOUND_CANONICALIZED>
1

> <PUBCHEM_CACTVS_COMPLEXITY>
809

> <PUBCHEM_CACTVS_HBOND_ACCEPTOR>
7

> <PUBCHEM_CACTVS_HBOND_DONOR>
1

> <PUBCHEM_CACTVS_ROTATABLE_BOND>
4

> <PUBCHEM_CACTVS_SUBSKEYS>
AAADceB7sQAAAAAAAAAAAAAAAAAAAWAAAAA8WIEAAAAAAFiB8AAAHwAECAAADUzBngwzhtMQAgCpA6dydgSCAAEkIAApmCE+TNoKJrqAnZOEcYBmxhmYyce8yOCOAAAAAAAIAAAAAAAAABAAAAAAAAAAAA==

> <PUBCHEM_IUPAC_OPENEYE_NAME>
3-[2-[4-(6-fluoro-1,2-benzoxazol-3-yl)-1-piperidyl]ethyl]-9-hydroxy-2,9-dimethyl-7,8-dihydro-6H-pyrido[1,2-a]pyrimidin-4-one

> <PUBCHEM_IUPAC_CAS_NAME>
3-[2-[4-(6-fluoro-1,2-benzoxazol-3-yl)-1-piperidinyl]ethyl]-9-hydroxy-2,9-dimethyl-7,8-dihydro-6H-pyrido[1,2-a]pyrimidin-4-one

> <PUBCHEM_IUPAC_NAME_MARKUP>
3-[2-[4-(6-fluoro-1,2-benzoxazol-3-yl)piperidin-1-yl]ethyl]-9-hydroxy-2,9-dimethyl-7,8-dihydro-6<I>H</I>-pyrido[1,2-a]pyrimidin-4-one

> <PUBCHEM_IUPAC_NAME>
3-[2-[4-(6-fluoro-1,2-benzoxazol-3-yl)piperidin-1-yl]ethyl]-9-hydroxy-2,9-dimethyl-7,8-dihydro-6H-pyrido[1,2-a]pyrimidin-4-one

> <PUBCHEM_IUPAC_SYSTEMATIC_NAME>
3-[2-[4-(6-fluoranyl-1,2-benzoxazol-3-yl)piperidin-1-yl]ethyl]-2,9-dimethyl-9-oxidanyl-7,8-dihydro-6H-pyrido[1,2-a]pyrimidin-4-one

> <PUBCHEM_IUPAC_TRADITIONAL_NAME>
3-[2-[4-(6-fluoroindoxazen-3-yl)piperidino]ethyl]-9-hydroxy-2,9-dimethyl-7,8-dihydro-6H-pyrido[1,2-a]pyrimidin-4-one

> <PUBCHEM_IUPAC_INCHI>
InChI=1S/C24H29FN4O3/c1-15-18(22(30)29-10-3-9-24(2,31)23(29)26-15)8-13-28-11-6-16(7-12-28)21-19-5-4-17(25)14-20(19)32-27-21/h4-5,14,16,31H,3,6-13H2,1-2H3

> <PUBCHEM_IUPAC_INCHIKEY>
BQYKGUJOFYMQBC-UHFFFAOYSA-N

> <PUBCHEM_XLOGP3_AA>
2.4

> <PUBCHEM_EXACT_MASS>
440.22236896

> <PUBCHEM_MOLECULAR_FORMULA>
C24H29FN4O3

> <PUBCHEM_MOLECULAR_WEIGHT>
440.5

> <PUBCHEM_OPENEYE_CAN_SMILES>
CC1=C(C(=O)N2CCCC(C2=N1)(C)O)CCN3CCC(CC3)C4=NOC5=C4C=CC(=C5)F

> <PUBCHEM_OPENEYE_ISO_SMILES>
CC1=C(C(=O)N2CCCC(C2=N1)(C)O)CCN3CCC(CC3)C4=NOC5=C4C=CC(=C5)F

> <PUBCHEM_CACTVS_TPSA>
82.2

> <PUBCHEM_MONOISOTOPIC_WEIGHT>
440.22236896

> <PUBCHEM_TOTAL_CHARGE>
0

> <PUBCHEM_HEAVY_ATOM_COUNT>
32

> <PUBCHEM_ATOM_DEF_STEREO_COUNT>
0

> <PUBCHEM_ATOM_UDEF_STEREO_COUNT>
1

> <PUBCHEM_BOND_DEF_STEREO_COUNT>
0

> <PUBCHEM_BOND_UDEF_STEREO_COUNT>
0

> <PUBCHEM_ISOTOPIC_ATOM_COUNT>
0

> <PUBCHEM_COMPONENT_COUNT>
1

> <PUBCHEM_CACTVS_TAUTO_COUNT>
-1

> <PUBCHEM_COORDINATE_TYPE>
1
5
255

> <PUBCHEM_BONDANNOTATIONS>
14  2  3
21  26  8
22  23  8
22  25  8
26  27  8
26  29  8
27  30  8
29  31  8
3  27  8
3  8  8
30  32  8
31  32  8
6  17  8
6  23  8
7  17  8
7  25  8
8  21  8

$$$$
