44469677
  -OEChem-09292322072D

 40 42  0     0  0  0  0  0  0999 V2000
    7.1391    4.3184    0.0000 S   0  0  0  0  0  0  0  0  0  0  0  0
    3.7320   -0.7694    0.0000 O   0  0  0  0  0  0  0  0  0  0  0  0
    4.5981   -2.2694    0.0000 O   0  0  0  0  0  0  0  0  0  0  0  0
    4.5981   -0.2694    0.0000 N   0  0  0  0  0  0  0  0  0  0  0  0
    2.8660   -2.2694    0.0000 N   0  0  0  0  0  0  0  0  0  0  0  0
    6.3301    2.7306    0.0000 C   0  0  0  0  0  0  0  0  0  0  0  0
    5.4641    1.2306    0.0000 C   0  0  0  0  0  0  0  0  0  0  0  0
    5.4641    2.2306    0.0000 C   0  0  0  0  0  0  0  0  0  0  0  0
    6.3301    3.7306    0.0000 C   0  0  0  0  0  0  0  0  0  0  0  0
    7.1962    2.2306    0.0000 C   0  0  0  0  0  0  0  0  0  0  0  0
    6.3301    0.7306    0.0000 C   0  0  0  0  0  0  0  0  0  0  0  0
    4.5981    0.7306    0.0000 C   0  0  0  0  0  0  0  0  0  0  0  0
    7.1962    1.2306    0.0000 C   0  0  0  0  0  0  0  0  0  0  0  0
    5.5211    4.3184    0.0000 C   0  0  0  0  0  0  0  0  0  0  0  0
    3.7320    1.2306    0.0000 C   0  0  0  0  0  0  0  0  0  0  0  0
    5.8301    5.2694    0.0000 C   0  0  0  0  0  0  0  0  0  0  0  0
    6.8301    5.2694    0.0000 C   0  0  0  0  0  0  0  0  0  0  0  0
    2.8660   -3.2694    0.0000 C   0  0  0  0  0  0  0  0  0  0  0  0
    3.7320   -3.7694    0.0000 C   0  0  0  0  0  0  0  0  0  0  0  0
    2.0000   -3.7694    0.0000 C   0  0  0  0  0  0  0  0  0  0  0  0
    3.7320   -4.7694    0.0000 C   0  0  0  0  0  0  0  0  0  0  0  0
    2.0000   -4.7694    0.0000 C   0  0  0  0  0  0  0  0  0  0  0  0
    2.8660   -5.2694    0.0000 C   0  0  0  0  0  0  0  0  0  0  0  0
    3.7320   -1.7694    0.0000 C   0  0  0  0  0  0  0  0  0  0  0  0
    4.9272    2.5406    0.0000 H   0  0  0  0  0  0  0  0  0  0  0  0
    7.7331    2.5406    0.0000 H   0  0  0  0  0  0  0  0  0  0  0  0
    6.3301    0.1106    0.0000 H   0  0  0  0  0  0  0  0  0  0  0  0
    7.7331    0.9206    0.0000 H   0  0  0  0  0  0  0  0  0  0  0  0
    4.9315    4.1268    0.0000 H   0  0  0  0  0  0  0  0  0  0  0  0
    4.0420    1.7675    0.0000 H   0  0  0  0  0  0  0  0  0  0  0  0
    3.1951    1.5406    0.0000 H   0  0  0  0  0  0  0  0  0  0  0  0
    3.4220    0.6936    0.0000 H   0  0  0  0  0  0  0  0  0  0  0  0
    5.4657    5.7710    0.0000 H   0  0  0  0  0  0  0  0  0  0  0  0
    7.1946    5.7710    0.0000 H   0  0  0  0  0  0  0  0  0  0  0  0
    4.2690   -3.4594    0.0000 H   0  0  0  0  0  0  0  0  0  0  0  0
    1.4631   -3.4594    0.0000 H   0  0  0  0  0  0  0  0  0  0  0  0
    2.3291   -1.9594    0.0000 H   0  0  0  0  0  0  0  0  0  0  0  0
    4.2690   -5.0794    0.0000 H   0  0  0  0  0  0  0  0  0  0  0  0
    1.4631   -5.0794    0.0000 H   0  0  0  0  0  0  0  0  0  0  0  0
    2.8660   -5.8894    0.0000 H   0  0  0  0  0  0  0  0  0  0  0  0
  1  9  1  0  0  0  0
  1 17  1  0  0  0  0
  2  4  1  0  0  0  0
  2 24  1  0  0  0  0
  3 24  2  0  0  0  0
  4 12  2  0  0  0  0
  5 18  1  0  0  0  0
  5 24  1  0  0  0  0
  5 37  1  0  0  0  0
  6  8  2  0  0  0  0
  6  9  1  0  0  0  0
  6 10  1  0  0  0  0
  7  8  1  0  0  0  0
  7 11  2  0  0  0  0
  7 12  1  0  0  0  0
  8 25  1  0  0  0  0
  9 14  2  0  0  0  0
 10 13  2  0  0  0  0
 10 26  1  0  0  0  0
 11 13  1  0  0  0  0
 11 27  1  0  0  0  0
 12 15  1  0  0  0  0
 13 28  1  0  0  0  0
 14 16  1  0  0  0  0
 14 29  1  0  0  0  0
 15 30  1  0  0  0  0
 15 31  1  0  0  0  0
 15 32  1  0  0  0  0
 16 17  2  0  0  0  0
 16 33  1  0  0  0  0
 17 34  1  0  0  0  0
 18 19  2  0  0  0  0
 18 20  1  0  0  0  0
 19 21  1  0  0  0  0
 19 35  1  0  0  0  0
 20 22  2  0  0  0  0
 20 36  1  0  0  0  0
 21 23  2  0  0  0  0
 21 38  1  0  0  0  0
 22 23  1  0  0  0  0
 22 39  1  0  0  0  0
 23 40  1  0  0  0  0
M  END
> <PUBCHEM_COMPOUND_CID>
44469677

> <PUBCHEM_COMPOUND_CANONICALIZED>
1

> <PUBCHEM_CACTVS_COMPLEXITY>
449

> <PUBCHEM_CACTVS_HBOND_ACCEPTOR>
4

> <PUBCHEM_CACTVS_HBOND_DONOR>
1

> <PUBCHEM_CACTVS_ROTATABLE_BOND>
5

> <PUBCHEM_CACTVS_SUBSKEYS>
AAADceB7MABAAAAAAAAAAAAAAAAAASAAAAAwYAAAAAAAAAAB0AAAHgQUAAAADAiFWACyyYLQAAisAyRiWACDAIAhChBIiBgwZJkIIKLgkZGEIAhglABoyAcQgMAOAAACAAAAAAAAAAQAAAAAAAAAAAAAAA==

> <PUBCHEM_IUPAC_OPENEYE_NAME>
[(E)-1-[3-(2-thienyl)phenyl]ethylideneamino] N-phenylcarbamate

> <PUBCHEM_IUPAC_CAS_NAME>
N-phenylcarbamic acid [(E)-1-(3-thiophen-2-ylphenyl)ethylideneamino] ester

> <PUBCHEM_IUPAC_NAME_MARKUP>
[(<I>E</I>)-1-(3-thiophen-2-ylphenyl)ethylideneamino] <I>N</I>-phenylcarbamate

> <PUBCHEM_IUPAC_NAME>
[(E)-1-(3-thiophen-2-ylphenyl)ethylideneamino] N-phenylcarbamate

> <PUBCHEM_IUPAC_SYSTEMATIC_NAME>
[(E)-1-(3-thiophen-2-ylphenyl)ethylideneamino] N-phenylcarbamate

> <PUBCHEM_IUPAC_TRADITIONAL_NAME>
N-phenylcarbamic acid [(E)-1-[3-(2-thienyl)phenyl]ethylideneamino] ester

> <PUBCHEM_IUPAC_INCHI>
InChI=1S/C19H16N2O2S/c1-14(21-23-19(22)20-17-9-3-2-4-10-17)15-7-5-8-16(13-15)18-11-6-12-24-18/h2-13H,1H3,(H,20,22)/b21-14+

> <PUBCHEM_IUPAC_INCHIKEY>
CQUWKHKELQQYRI-KGENOOAVSA-N

> <PUBCHEM_XLOGP3_AA>
4.7

> <PUBCHEM_EXACT_MASS>
336.09324893

> <PUBCHEM_MOLECULAR_FORMULA>
C19H16N2O2S

> <PUBCHEM_MOLECULAR_WEIGHT>
336.4

> <PUBCHEM_OPENEYE_CAN_SMILES>
CC(=NOC(=O)NC1=CC=CC=C1)C2=CC=CC(=C2)C3=CC=CS3

> <PUBCHEM_OPENEYE_ISO_SMILES>
C/C(=N\OC(=O)NC1=CC=CC=C1)/C2=CC=CC(=C2)C3=CC=CS3

> <PUBCHEM_CACTVS_TPSA>
78.9

> <PUBCHEM_MONOISOTOPIC_WEIGHT>
336.09324893

> <PUBCHEM_TOTAL_CHARGE>
0

> <PUBCHEM_HEAVY_ATOM_COUNT>
24

> <PUBCHEM_ATOM_DEF_STEREO_COUNT>
0

> <PUBCHEM_ATOM_UDEF_STEREO_COUNT>
0

> <PUBCHEM_BOND_DEF_STEREO_COUNT>
1

> <PUBCHEM_BOND_UDEF_STEREO_COUNT>
0

> <PUBCHEM_ISOTOPIC_ATOM_COUNT>
0

> <PUBCHEM_COMPONENT_COUNT>
1

> <PUBCHEM_CACTVS_TAUTO_COUNT>
-1

> <PUBCHEM_COORDINATE_TYPE>
1
5
255

> <PUBCHEM_BONDANNOTATIONS>
1  17  8
1  9  8
10  13  8
11  13  8
14  16  8
16  17  8
18  19  8
18  20  8
19  21  8
20  22  8
21  23  8
22  23  8
6  10  8
6  8  8
7  11  8
7  8  8
9  14  8

$$$$
