53362715
  -OEChem-09292322322D

 62 67  0     1  0  0  0  0  0999 V2000
    5.4407    0.2245    0.0000 O   0  0  0  0  0  0  0  0  0  0  0  0
    3.7088    0.2446    0.0000 O   0  0  0  0  0  0  0  0  0  0  0  0
    8.9134   -2.8070    0.0000 N   0  0  3  0  0  0  0  0  0  0  0  0
    4.5921    1.7345    0.0000 N   0  0  0  0  0  0  0  0  0  0  0  0
    8.0552   -2.3100    0.0000 C   0  0  3  0  0  0  0  0  0  0  0  0
    8.0552   -1.3100    0.0000 C   0  0  0  0  0  0  0  0  0  0  0  0
    7.1892   -2.8100    0.0000 C   0  0  0  0  0  0  0  0  0  0  0  0
    9.7789   -2.3228    0.0000 C   0  0  0  0  0  0  0  0  0  0  0  0
    8.9652   -0.8032    0.0000 C   0  0  0  0  0  0  0  0  0  0  0  0
    9.8045   -1.3314    0.0000 C   0  0  0  0  0  0  0  0  0  0  0  0
    7.1892   -0.8100    0.0000 C   0  0  0  0  0  0  0  0  0  0  0  0
    6.3231   -2.3100    0.0000 C   0  0  0  0  0  0  0  0  0  0  0  0
    8.9060   -3.8070    0.0000 C   0  0  0  0  0  0  0  0  0  0  0  0
    6.3231   -1.3100    0.0000 C   0  0  0  0  0  0  0  0  0  0  0  0
    8.9732    0.2384    0.0000 C   0  0  0  0  0  0  0  0  0  0  0  0
    7.1731    0.2315    0.0000 C   0  0  0  0  0  0  0  0  0  0  0  0
    9.7683   -4.3133    0.0000 C   0  0  0  0  0  0  0  0  0  0  0  0
    5.4292   -0.7754    0.0000 C   0  0  0  0  0  0  0  0  0  0  0  0
    5.4292   -2.8447    0.0000 C   0  0  0  0  0  0  0  0  0  0  0  0
    8.0711    0.7592    0.0000 C   0  0  0  0  0  0  0  0  0  0  0  0
    4.5231   -1.2892    0.0000 C   0  0  0  0  0  0  0  0  0  0  0  0
    4.5231   -2.3309    0.0000 C   0  0  0  0  0  0  0  0  0  0  0  0
    9.7609   -5.3133    0.0000 C   0  0  0  0  0  0  0  0  0  0  0  0
    4.5806    0.7345    0.0000 C   0  0  0  0  0  0  0  0  0  0  0  0
    3.7319    2.2444    0.0000 C   0  0  0  0  0  0  0  0  0  0  0  0
    3.7435    3.2444    0.0000 C   0  0  0  0  0  0  0  0  0  0  0  0
    2.8833    3.7544    0.0000 C   0  0  0  0  0  0  0  0  0  0  0  0
    2.8602    1.7545    0.0000 C   0  0  0  0  0  0  0  0  0  0  0  0
    4.6593    3.7407    0.0000 C   0  0  0  0  0  0  0  0  0  0  0  0
    2.0116    3.2644    0.0000 C   0  0  0  0  0  0  0  0  0  0  0  0
    2.0000    2.2645    0.0000 C   0  0  0  0  0  0  0  0  0  0  0  0
    2.8793    4.7960    0.0000 C   0  0  0  0  0  0  0  0  0  0  0  0
    4.6794    4.7821    0.0000 C   0  0  0  0  0  0  0  0  0  0  0  0
    3.7834    5.3133    0.0000 C   0  0  0  0  0  0  0  0  0  0  0  0
    8.0548   -2.9300    0.0000 H   0  0  0  0  0  0  0  0  0  0  0  0
    6.7906   -3.2850    0.0000 H   0  0  0  0  0  0  0  0  0  0  0  0
    7.5877   -3.2850    0.0000 H   0  0  0  0  0  0  0  0  0  0  0  0
    9.9806   -2.9091    0.0000 H   0  0  0  0  0  0  0  0  0  0  0  0
   10.3916   -2.2284    0.0000 H   0  0  0  0  0  0  0  0  0  0  0  0
   10.4116   -1.4573    0.0000 H   0  0  0  0  0  0  0  0  0  0  0  0
   10.0362   -0.7564    0.0000 H   0  0  0  0  0  0  0  0  0  0  0  0
    8.2962   -3.6948    0.0000 H   0  0  0  0  0  0  0  0  0  0  0  0
    8.6896   -4.3880    0.0000 H   0  0  0  0  0  0  0  0  0  0  0  0
    9.5113    0.5463    0.0000 H   0  0  0  0  0  0  0  0  0  0  0  0
    6.6326    0.5352    0.0000 H   0  0  0  0  0  0  0  0  0  0  0  0
   10.3781   -4.4255    0.0000 H   0  0  0  0  0  0  0  0  0  0  0  0
    9.9846   -3.7323    0.0000 H   0  0  0  0  0  0  0  0  0  0  0  0
    5.4364   -3.4647    0.0000 H   0  0  0  0  0  0  0  0  0  0  0  0
    8.0687    1.3792    0.0000 H   0  0  0  0  0  0  0  0  0  0  0  0
    3.9874   -0.9772    0.0000 H   0  0  0  0  0  0  0  0  0  0  0  0
    3.9874   -2.6429    0.0000 H   0  0  0  0  0  0  0  0  0  0  0  0
    9.1409   -5.3087    0.0000 H   0  0  0  0  0  0  0  0  0  0  0  0
    9.7563   -5.9333    0.0000 H   0  0  0  0  0  0  0  0  0  0  0  0
   10.3809   -5.3179    0.0000 H   0  0  0  0  0  0  0  0  0  0  0  0
    5.1326    2.0382    0.0000 H   0  0  0  0  0  0  0  0  0  0  0  0
    2.8530    1.1345    0.0000 H   0  0  0  0  0  0  0  0  0  0  0  0
    5.1889    3.4183    0.0000 H   0  0  0  0  0  0  0  0  0  0  0  0
    1.4782    3.5806    0.0000 H   0  0  0  0  0  0  0  0  0  0  0  0
    1.4595    1.9607    0.0000 H   0  0  0  0  0  0  0  0  0  0  0  0
    2.3424    5.1060    0.0000 H   0  0  0  0  0  0  0  0  0  0  0  0
    5.2210    5.0838    0.0000 H   0  0  0  0  0  0  0  0  0  0  0  0
    3.7882    5.9333    0.0000 H   0  0  0  0  0  0  0  0  0  0  0  0
  1 18  1  0  0  0  0
  1 24  1  0  0  0  0
  2 24  2  0  0  0  0
  3  5  1  0  0  0  0
  3  8  1  0  0  0  0
  3 13  1  0  0  0  0
  4 24  1  0  0  0  0
  4 25  1  0  0  0  0
  4 55  1  0  0  0  0
  5  6  1  0  0  0  0
  5  7  1  0  0  0  0
  5 35  1  0  0  0  0
  6  9  2  0  0  0  0
  6 11  1  0  0  0  0
  7 12  1  0  0  0  0
  7 36  1  0  0  0  0
  7 37  1  0  0  0  0
  8 10  1  0  0  0  0
  8 38  1  0  0  0  0
  8 39  1  0  0  0  0
  9 10  1  0  0  0  0
  9 15  1  0  0  0  0
 10 40  1  0  0  0  0
 10 41  1  0  0  0  0
 11 14  1  0  0  0  0
 11 16  2  0  0  0  0
 12 14  2  0  0  0  0
 12 19  1  0  0  0  0
 13 17  1  0  0  0  0
 13 42  1  0  0  0  0
 13 43  1  0  0  0  0
 14 18  1  0  0  0  0
 15 20  2  0  0  0  0
 15 44  1  0  0  0  0
 16 20  1  0  0  0  0
 16 45  1  0  0  0  0
 17 23  1  0  0  0  0
 17 46  1  0  0  0  0
 17 47  1  0  0  0  0
 18 21  2  0  0  0  0
 19 22  2  0  0  0  0
 19 48  1  0  0  0  0
 20 49  1  0  0  0  0
 21 22  1  0  0  0  0
 21 50  1  0  0  0  0
 22 51  1  0  0  0  0
 23 52  1  0  0  0  0
 23 53  1  0  0  0  0
 23 54  1  0  0  0  0
 25 26  1  0  0  0  0
 25 28  2  0  0  0  0
 26 27  1  0  0  0  0
 26 29  2  0  0  0  0
 27 30  1  0  0  0  0
 27 32  2  0  0  0  0
 28 31  1  0  0  0  0
 28 56  1  0  0  0  0
 29 33  1  0  0  0  0
 29 57  1  0  0  0  0
 30 31  2  0  0  0  0
 30 58  1  0  0  0  0
 31 59  1  0  0  0  0
 32 34  1  0  0  0  0
 32 60  1  0  0  0  0
 33 34  2  0  0  0  0
 33 61  1  0  0  0  0
 34 62  1  0  0  0  0
M  END
> <PUBCHEM_COMPOUND_CID>
53362715

> <PUBCHEM_COMPOUND_CANONICALIZED>
1

> <PUBCHEM_CACTVS_COMPLEXITY>
712

> <PUBCHEM_CACTVS_HBOND_ACCEPTOR>
3

> <PUBCHEM_CACTVS_HBOND_DONOR>
1

> <PUBCHEM_CACTVS_ROTATABLE_BOND>
5

> <PUBCHEM_CACTVS_SUBSKEYS>
AAADceB7MAAAAAAAAAAAAAAAAAAAAAAAAAA8YMGDAAAAAADxVAAAHgAQAAAADCzBmAQyzsPABACIAiRCWACCCAAhIgAIiAAObIkMJiLEsZuMMihk1BHI6AeQ0PMOgAADQAAaAACQAAaAADQAAAAAAAAAAA==

> <PUBCHEM_IUPAC_OPENEYE_NAME>
(6-propyl-5,6,6a,7-tetrahydro-4H-dibenzo[de,g]quinolin-11-yl) N-(1-naphthyl)carbamate

> <PUBCHEM_IUPAC_CAS_NAME>
N-(1-naphthalenyl)carbamic acid (6-propyl-5,6,6a,7-tetrahydro-4H-dibenzo[de,g]quinolin-11-yl) ester

> <PUBCHEM_IUPAC_NAME_MARKUP>
(6-propyl-5,6,6<I>a</I>,7-tetrahydro-4<I>H</I>-dibenzo[de,g]quinolin-11-yl) <I>N</I>-naphthalen-1-ylcarbamate

> <PUBCHEM_IUPAC_NAME>
(6-propyl-5,6,6a,7-tetrahydro-4H-dibenzo[de,g]quinolin-11-yl) N-naphthalen-1-ylcarbamate

> <PUBCHEM_IUPAC_SYSTEMATIC_NAME>
(6-propyl-5,6,6a,7-tetrahydro-4H-dibenzo[de,g]quinolin-11-yl) N-naphthalen-1-ylcarbamate

> <PUBCHEM_IUPAC_TRADITIONAL_NAME>
N-(1-naphthyl)carbamic acid (6-propyl-5,6,6a,7-tetrahydro-4H-dibenzo[de,g]quinolin-11-yl) ester

> <PUBCHEM_IUPAC_INCHI>
InChI=1S/C30H28N2O2/c1-2-17-32-18-16-21-10-5-13-24-28(21)26(32)19-22-11-7-15-27(29(22)24)34-30(33)31-25-14-6-9-20-8-3-4-12-23(20)25/h3-15,26H,2,16-19H2,1H3,(H,31,33)

> <PUBCHEM_IUPAC_INCHIKEY>
GSEIFCYYFLMJKI-UHFFFAOYSA-N

> <PUBCHEM_XLOGP3_AA>
6.8

> <PUBCHEM_EXACT_MASS>
448.215078140

> <PUBCHEM_MOLECULAR_FORMULA>
C30H28N2O2

> <PUBCHEM_MOLECULAR_WEIGHT>
448.6

> <PUBCHEM_OPENEYE_CAN_SMILES>
CCCN1CCC2=C3C1CC4=C(C3=CC=C2)C(=CC=C4)OC(=O)NC5=CC=CC6=CC=CC=C65

> <PUBCHEM_OPENEYE_ISO_SMILES>
CCCN1CCC2=C3C1CC4=C(C3=CC=C2)C(=CC=C4)OC(=O)NC5=CC=CC6=CC=CC=C65

> <PUBCHEM_CACTVS_TPSA>
41.6

> <PUBCHEM_MONOISOTOPIC_WEIGHT>
448.215078140

> <PUBCHEM_TOTAL_CHARGE>
0

> <PUBCHEM_HEAVY_ATOM_COUNT>
34

> <PUBCHEM_ATOM_DEF_STEREO_COUNT>
0

> <PUBCHEM_ATOM_UDEF_STEREO_COUNT>
1

> <PUBCHEM_BOND_DEF_STEREO_COUNT>
0

> <PUBCHEM_BOND_UDEF_STEREO_COUNT>
0

> <PUBCHEM_ISOTOPIC_ATOM_COUNT>
0

> <PUBCHEM_COMPONENT_COUNT>
1

> <PUBCHEM_CACTVS_TAUTO_COUNT>
-1

> <PUBCHEM_COORDINATE_TYPE>
1
5
255

> <PUBCHEM_BONDANNOTATIONS>
11  16  8
12  14  8
12  19  8
14  18  8
15  20  8
16  20  8
18  21  8
19  22  8
21  22  8
25  26  8
25  28  8
26  27  8
26  29  8
27  30  8
27  32  8
28  31  8
29  33  8
30  31  8
32  34  8
33  34  8
5  7  3
6  11  8
6  9  8
9  15  8

$$$$
