155524423
  -OEChem-09292322412D

 65 67  0     1  0  0  0  0  0999 V2000
   13.6648    5.5841    0.0000 Cl  0  0  0  0  0  0  0  0  0  0  0  0
   14.6648    7.3162    0.0000 Cl  0  0  0  0  0  0  0  0  0  0  0  0
    6.8324   10.7178    0.0000 Cl  0  0  0  0  0  0  0  0  0  0  0  0
    5.2988    0.7540    0.0000 O   0  0  0  0  0  0  0  0  0  0  0  0
    9.2988    4.2181    0.0000 N   0  0  3  0  0  0  0  0  0  0  0  0
    5.2988    2.4860    0.0000 N   0  0  0  0  0  0  0  0  0  0  0  0
    3.2152    0.8153    0.0000 N   0  0  0  0  0  0  0  0  0  0  0  0
   10.7988    5.0841    0.0000 C   0  0  3  0  0  0  0  0  0  0  0  0
   11.6648    5.5841    0.0000 C   0  0  3  0  0  0  0  0  0  0  0  0
   11.6648    4.5841    0.0000 C   0  0  0  0  0  0  0  0  0  0  0  0
    9.7988    5.0841    0.0000 C   0  0  0  0  0  0  0  0  0  0  0  0
   12.1648    6.4501    0.0000 C   0  0  0  0  0  0  0  0  0  0  0  0
    8.2988    4.2181    0.0000 C   0  0  0  0  0  0  0  0  0  0  0  0
    9.7988    3.3520    0.0000 C   0  0  0  0  0  0  0  0  0  0  0  0
   13.1648    6.4501    0.0000 C   0  0  0  0  0  0  0  0  0  0  0  0
   11.6648    7.3162    0.0000 C   0  0  0  0  0  0  0  0  0  0  0  0
    7.7988    3.3520    0.0000 C   0  0  0  0  0  0  0  0  0  0  0  0
    9.2988    2.4860    0.0000 C   0  0  0  0  0  0  0  0  0  0  0  0
   13.6648    7.3162    0.0000 C   0  0  0  0  0  0  0  0  0  0  0  0
   12.1648    8.1822    0.0000 C   0  0  0  0  0  0  0  0  0  0  0  0
    6.7988    3.3520    0.0000 C   0  0  0  0  0  0  0  0  0  0  0  0
   13.1648    8.1822    0.0000 C   0  0  0  0  0  0  0  0  0  0  0  0
    9.7988    1.6200    0.0000 C   0  0  0  0  0  0  0  0  0  0  0  0
    6.2988    2.4860    0.0000 C   0  0  0  0  0  0  0  0  0  0  0  0
    4.7988    1.6200    0.0000 C   0  0  0  0  0  0  0  0  0  0  0  0
    3.7988    1.6200    0.0000 C   0  0  0  0  0  0  0  0  0  0  0  0
    3.2152    2.4247    0.0000 C   0  0  0  0  0  0  0  0  0  0  0  0
    2.2690    1.1200    0.0000 C   0  0  0  0  0  0  0  0  0  0  0  0
    2.2690    2.1200    0.0000 C   0  0  0  0  0  0  0  0  0  0  0  0
    1.4030    0.6200    0.0000 C   0  0  0  0  0  0  0  0  0  0  0  0
    1.4030    2.6200    0.0000 C   0  0  0  0  0  0  0  0  0  0  0  0
    0.5369    1.1200    0.0000 C   0  0  0  0  0  0  0  0  0  0  0  0
    0.5369    2.1200    0.0000 C   0  0  0  0  0  0  0  0  0  0  0  0
   10.6383    5.6830    0.0000 H   0  0  0  0  0  0  0  0  0  0  0  0
   11.2264    6.0225    0.0000 H   0  0  0  0  0  0  0  0  0  0  0  0
   11.4528    4.0015    0.0000 H   0  0  0  0  0  0  0  0  0  0  0  0
   12.2754    4.4764    0.0000 H   0  0  0  0  0  0  0  0  0  0  0  0
    9.9065    5.6947    0.0000 H   0  0  0  0  0  0  0  0  0  0  0  0
    9.2162    5.2962    0.0000 H   0  0  0  0  0  0  0  0  0  0  0  0
    8.4065    4.8287    0.0000 H   0  0  0  0  0  0  0  0  0  0  0  0
    7.7162    4.4301    0.0000 H   0  0  0  0  0  0  0  0  0  0  0  0
   10.2738    2.9535    0.0000 H   0  0  0  0  0  0  0  0  0  0  0  0
   10.2738    3.7506    0.0000 H   0  0  0  0  0  0  0  0  0  0  0  0
   11.0448    7.3162    0.0000 H   0  0  0  0  0  0  0  0  0  0  0  0
    7.6912    2.7415    0.0000 H   0  0  0  0  0  0  0  0  0  0  0  0
    8.3814    3.1400    0.0000 H   0  0  0  0  0  0  0  0  0  0  0  0
    8.8239    2.8846    0.0000 H   0  0  0  0  0  0  0  0  0  0  0  0
    8.8239    2.0875    0.0000 H   0  0  0  0  0  0  0  0  0  0  0  0
   11.8548    8.7191    0.0000 H   0  0  0  0  0  0  0  0  0  0  0  0
    6.9065    3.9626    0.0000 H   0  0  0  0  0  0  0  0  0  0  0  0
    6.2162    3.5641    0.0000 H   0  0  0  0  0  0  0  0  0  0  0  0
   13.4748    8.7191    0.0000 H   0  0  0  0  0  0  0  0  0  0  0  0
    9.2619    1.3100    0.0000 H   0  0  0  0  0  0  0  0  0  0  0  0
   10.1088    1.0831    0.0000 H   0  0  0  0  0  0  0  0  0  0  0  0
   10.3358    1.9300    0.0000 H   0  0  0  0  0  0  0  0  0  0  0  0
    6.1912    1.8754    0.0000 H   0  0  0  0  0  0  0  0  0  0  0  0
    6.8814    2.2740    0.0000 H   0  0  0  0  0  0  0  0  0  0  0  0
    4.9888    3.0230    0.0000 H   0  0  0  0  0  0  0  0  0  0  0  0
    3.4078    0.2259    0.0000 H   0  0  0  0  0  0  0  0  0  0  0  0
    3.4078    3.0140    0.0000 H   0  0  0  0  0  0  0  0  0  0  0  0
    1.4030    0.0000    0.0000 H   0  0  0  0  0  0  0  0  0  0  0  0
    1.4030    3.2400    0.0000 H   0  0  0  0  0  0  0  0  0  0  0  0
    0.0000    0.8100    0.0000 H   0  0  0  0  0  0  0  0  0  0  0  0
    0.0000    2.4300    0.0000 H   0  0  0  0  0  0  0  0  0  0  0  0
    7.8324   10.7178    0.0000 H   0  0  0  0  0  0  0  0  0  0  0  0
  1 15  1  0  0  0  0
  2 19  1  0  0  0  0
  3 65  1  0  0  0  0
  4 25  2  0  0  0  0
  5 11  1  0  0  0  0
  5 13  1  0  0  0  0
  5 14  1  0  0  0  0
  6 24  1  0  0  0  0
  6 25  1  0  0  0  0
  6 58  1  0  0  0  0
  7 26  1  0  0  0  0
  7 28  1  0  0  0  0
  7 59  1  0  0  0  0
  8  9  1  0  0  0  0
  8 10  1  0  0  0  0
  8 11  1  0  0  0  0
  8 34  1  0  0  0  0
  9 10  1  0  0  0  0
  9 12  1  0  0  0  0
  9 35  1  0  0  0  0
 10 36  1  0  0  0  0
 10 37  1  0  0  0  0
 11 38  1  0  0  0  0
 11 39  1  0  0  0  0
 12 15  2  0  0  0  0
 12 16  1  0  0  0  0
 13 17  1  0  0  0  0
 13 40  1  0  0  0  0
 13 41  1  0  0  0  0
 14 18  1  0  0  0  0
 14 42  1  0  0  0  0
 14 43  1  0  0  0  0
 15 19  1  0  0  0  0
 16 20  2  0  0  0  0
 16 44  1  0  0  0  0
 17 21  1  0  0  0  0
 17 45  1  0  0  0  0
 17 46  1  0  0  0  0
 18 23  1  0  0  0  0
 18 47  1  0  0  0  0
 18 48  1  0  0  0  0
 19 22  2  0  0  0  0
 20 22  1  0  0  0  0
 20 49  1  0  0  0  0
 21 24  1  0  0  0  0
 21 50  1  0  0  0  0
 21 51  1  0  0  0  0
 22 52  1  0  0  0  0
 23 53  1  0  0  0  0
 23 54  1  0  0  0  0
 23 55  1  0  0  0  0
 24 56  1  0  0  0  0
 24 57  1  0  0  0  0
 25 26  1  0  0  0  0
 26 27  2  0  0  0  0
 27 29  1  0  0  0  0
 27 60  1  0  0  0  0
 28 29  1  0  0  0  0
 28 30  2  0  0  0  0
 29 31  2  0  0  0  0
 30 32  1  0  0  0  0
 30 61  1  0  0  0  0
 31 33  1  0  0  0  0
 31 62  1  0  0  0  0
 32 33  2  0  0  0  0
 32 63  1  0  0  0  0
 33 64  1  0  0  0  0
M  END
> <PUBCHEM_COMPOUND_CID>
155524423

> <PUBCHEM_COMPOUND_CANONICALIZED>
1

> <PUBCHEM_CACTVS_COMPLEXITY>
606

> <PUBCHEM_CACTVS_HBOND_ACCEPTOR>
2

> <PUBCHEM_CACTVS_HBOND_DONOR>
3

> <PUBCHEM_CACTVS_ROTATABLE_BOND>
11

> <PUBCHEM_CACTVS_SUBSKEYS>
AAADcfB7IAAGAAAAAAAAAAAAGAAAAWAAAAAwYAAAAAAAAFgB9AAAHgIQAAAADQrBniQywPPJkACoAyVyVACCgCAnByAIm+G4ZtgIYPLBl7GUIQhglgDIyYcYicCegAAAIAADAAQAAABAAAYACAAAAAAAAA==

> <PUBCHEM_IUPAC_OPENEYE_NAME>
N-[4-[[2-(2,3-dichlorophenyl)cyclopropyl]methyl-propyl-amino]butyl]-1H-indole-2-carboxamide;hydrochloride

> <PUBCHEM_IUPAC_CAS_NAME>
N-[4-[[2-(2,3-dichlorophenyl)cyclopropyl]methyl-propylamino]butyl]-1H-indole-2-carboxamide;hydrochloride

> <PUBCHEM_IUPAC_NAME_MARKUP>
<I>N</I>-[4-[[2-(2,3-dichlorophenyl)cyclopropyl]methyl-propylamino]butyl]-1<I>H</I>-indole-2-carboxamide;hydrochloride

> <PUBCHEM_IUPAC_NAME>
N-[4-[[2-(2,3-dichlorophenyl)cyclopropyl]methyl-propylamino]butyl]-1H-indole-2-carboxamide;hydrochloride

> <PUBCHEM_IUPAC_SYSTEMATIC_NAME>
N-[4-[[2-[2,3-bis(chloranyl)phenyl]cyclopropyl]methyl-propyl-amino]butyl]-1H-indole-2-carboxamide;hydrochloride

> <PUBCHEM_IUPAC_TRADITIONAL_NAME>
N-[4-[[2-(2,3-dichlorophenyl)cyclopropyl]methyl-propyl-amino]butyl]-1H-indole-2-carboxamide;hydrochloride

> <PUBCHEM_IUPAC_INCHI>
InChI=1S/C26H31Cl2N3O.ClH/c1-2-13-31(17-19-15-21(19)20-9-7-10-22(27)25(20)28)14-6-5-12-29-26(32)24-16-18-8-3-4-11-23(18)30-24;/h3-4,7-11,16,19,21,30H,2,5-6,12-15,17H2,1H3,(H,29,32);1H

> <PUBCHEM_IUPAC_INCHIKEY>
SUJXBDJLOIDKBO-UHFFFAOYSA-N

> <PUBCHEM_EXACT_MASS>
507.161096

> <PUBCHEM_MOLECULAR_FORMULA>
C26H32Cl3N3O

> <PUBCHEM_MOLECULAR_WEIGHT>
508.9

> <PUBCHEM_OPENEYE_CAN_SMILES>
CCCN(CCCCNC(=O)C1=CC2=CC=CC=C2N1)CC3CC3C4=C(C(=CC=C4)Cl)Cl.Cl

> <PUBCHEM_OPENEYE_ISO_SMILES>
CCCN(CCCCNC(=O)C1=CC2=CC=CC=C2N1)CC3CC3C4=C(C(=CC=C4)Cl)Cl.Cl

> <PUBCHEM_CACTVS_TPSA>
48.1

> <PUBCHEM_MONOISOTOPIC_WEIGHT>
507.161096

> <PUBCHEM_TOTAL_CHARGE>
0

> <PUBCHEM_HEAVY_ATOM_COUNT>
33

> <PUBCHEM_ATOM_DEF_STEREO_COUNT>
0

> <PUBCHEM_ATOM_UDEF_STEREO_COUNT>
2

> <PUBCHEM_BOND_DEF_STEREO_COUNT>
0

> <PUBCHEM_BOND_UDEF_STEREO_COUNT>
0

> <PUBCHEM_ISOTOPIC_ATOM_COUNT>
0

> <PUBCHEM_COMPONENT_COUNT>
2

> <PUBCHEM_CACTVS_TAUTO_COUNT>
-1

> <PUBCHEM_COORDINATE_TYPE>
1
5
255

> <PUBCHEM_BONDANNOTATIONS>
12  15  8
12  16  8
15  19  8
16  20  8
19  22  8
20  22  8
26  27  8
27  29  8
28  29  8
28  30  8
29  31  8
30  32  8
31  33  8
32  33  8
7  26  8
7  28  8
8  11  3
9  12  3

$$$$
