145989451
  -OEChem-09292322062D

 60 65  0     1  0  0  0  0  0999 V2000
    2.0000    1.4517    0.0000 F   0  0  0  0  0  0  0  0  0  0  0  0
    3.1047    1.8538    0.0000 F   0  0  0  0  0  0  0  0  0  0  0  0
   12.6152   -1.8063    0.0000 O   0  0  0  0  0  0  0  0  0  0  0  0
   11.4146    1.4925    0.0000 O   0  0  0  0  0  0  0  0  0  0  0  0
    3.7848    0.6193    0.0000 O   0  0  0  0  0  0  0  0  0  0  0  0
    2.2724    0.0689    0.0000 O   0  0  0  0  0  0  0  0  0  0  0  0
   11.7584   -0.2503    0.0000 N   0  0  0  0  0  0  0  0  0  0  0  0
    7.4072    0.0092    0.0000 N   0  0  0  0  0  0  0  0  0  0  0  0
    5.5278   -0.6748    0.0000 N   0  0  0  0  0  0  0  0  0  0  0  0
   13.3670   -0.1969    0.0000 C   0  0  1  0  0  0  0  0  0  0  0  0
   13.0250    0.7428    0.0000 C   0  0  2  0  0  0  0  0  0  0  0  0
   14.7397    0.3951    0.0000 C   0  0  2  0  0  0  0  0  0  0  0  0
   14.9985    1.3611    0.0000 C   0  0  1  0  0  0  0  0  0  0  0  0
   14.2619    2.3437    0.0000 C   0  0  0  0  0  0  0  0  0  0  0  0
   16.1386   -0.1137    0.0000 C   0  0  0  0  0  0  0  0  0  0  0  0
   16.3974    0.8522    0.0000 C   0  0  0  0  0  0  0  0  0  0  0  0
   12.5821   -0.8069    0.0000 C   0  0  0  0  0  0  0  0  0  0  0  0
   12.0316    0.7055    0.0000 C   0  0  0  0  0  0  0  0  0  0  0  0
   10.8187   -0.5923    0.0000 C   0  0  0  0  0  0  0  0  0  0  0  0
   10.0527    0.0505    0.0000 C   0  0  0  0  0  0  0  0  0  0  0  0
    9.1130   -0.2915    0.0000 C   0  0  0  0  0  0  0  0  0  0  0  0
    8.3469    0.3512    0.0000 C   0  0  0  0  0  0  0  0  0  0  0  0
    6.6412    0.6520    0.0000 C   0  0  0  0  0  0  0  0  0  0  0  0
    7.2336   -0.9756    0.0000 C   0  0  0  0  0  0  0  0  0  0  0  0
    5.7015    0.3100    0.0000 C   0  0  0  0  0  0  0  0  0  0  0  0
    6.2939   -1.3176    0.0000 C   0  0  0  0  0  0  0  0  0  0  0  0
    4.5882   -1.0168    0.0000 C   0  0  0  0  0  0  0  0  0  0  0  0
    3.8221   -0.3740    0.0000 C   0  0  0  0  0  0  0  0  0  0  0  0
    4.4145   -2.0016    0.0000 C   0  0  0  0  0  0  0  0  0  0  0  0
    2.8824   -0.7161    0.0000 C   0  0  0  0  0  0  0  0  0  0  0  0
    3.4748   -2.3437    0.0000 C   0  0  0  0  0  0  0  0  0  0  0  0
    2.7088   -1.7009    0.0000 C   0  0  0  0  0  0  0  0  0  0  0  0
    2.8290    0.8925    0.0000 C   0  0  0  0  0  0  0  0  0  0  0  0
   13.6577   -0.9956    0.0000 H   0  0  0  0  0  0  0  0  0  0  0  0
   12.7342    1.5415    0.0000 H   0  0  0  0  0  0  0  0  0  0  0  0
   14.5197   -0.4259    0.0000 H   0  0  0  0  0  0  0  0  0  0  0  0
   15.2185    2.1821    0.0000 H   0  0  0  0  0  0  0  0  0  0  0  0
   14.5797    2.8760    0.0000 H   0  0  0  0  0  0  0  0  0  0  0  0
   13.6488    2.4356    0.0000 H   0  0  0  0  0  0  0  0  0  0  0  0
   16.4250   -0.6636    0.0000 H   0  0  0  0  0  0  0  0  0  0  0  0
   16.9474    1.1386    0.0000 H   0  0  0  0  0  0  0  0  0  0  0  0
   10.3438   -0.9908    0.0000 H   0  0  0  0  0  0  0  0  0  0  0  0
   11.1287   -1.1292    0.0000 H   0  0  0  0  0  0  0  0  0  0  0  0
   10.5276    0.4490    0.0000 H   0  0  0  0  0  0  0  0  0  0  0  0
    9.7427    0.5874    0.0000 H   0  0  0  0  0  0  0  0  0  0  0  0
    8.6380   -0.6901    0.0000 H   0  0  0  0  0  0  0  0  0  0  0  0
    9.4230   -0.8285    0.0000 H   0  0  0  0  0  0  0  0  0  0  0  0
    8.8219    0.7498    0.0000 H   0  0  0  0  0  0  0  0  0  0  0  0
    8.0369    0.8882    0.0000 H   0  0  0  0  0  0  0  0  0  0  0  0
    7.1161    1.0505    0.0000 H   0  0  0  0  0  0  0  0  0  0  0  0
    6.3312    1.1890    0.0000 H   0  0  0  0  0  0  0  0  0  0  0  0
    7.3412   -1.5862    0.0000 H   0  0  0  0  0  0  0  0  0  0  0  0
    7.8536   -0.9756    0.0000 H   0  0  0  0  0  0  0  0  0  0  0  0
    5.5938    0.9206    0.0000 H   0  0  0  0  0  0  0  0  0  0  0  0
    5.0815    0.3100    0.0000 H   0  0  0  0  0  0  0  0  0  0  0  0
    5.8190   -1.7161    0.0000 H   0  0  0  0  0  0  0  0  0  0  0  0
    6.6039   -1.8545    0.0000 H   0  0  0  0  0  0  0  0  0  0  0  0
    4.8895   -2.4002    0.0000 H   0  0  0  0  0  0  0  0  0  0  0  0
    3.3672   -2.9542    0.0000 H   0  0  0  0  0  0  0  0  0  0  0  0
    2.1262   -1.9129    0.0000 H   0  0  0  0  0  0  0  0  0  0  0  0
  1 33  1  0  0  0  0
  2 33  1  0  0  0  0
  3 17  2  0  0  0  0
  4 18  2  0  0  0  0
  5 28  1  0  0  0  0
  5 33  1  0  0  0  0
  6 30  1  0  0  0  0
  6 33  1  0  0  0  0
  7 17  1  0  0  0  0
  7 18  1  0  0  0  0
  7 19  1  0  0  0  0
  8 22  1  0  0  0  0
  8 23  1  0  0  0  0
  8 24  1  0  0  0  0
  9 25  1  0  0  0  0
  9 26  1  0  0  0  0
  9 27  1  0  0  0  0
 10 11  1  0  0  0  0
 10 12  1  0  0  0  0
 10 17  1  0  0  0  0
 10 34  1  6  0  0  0
 11 13  1  0  0  0  0
 11 18  1  0  0  0  0
 11 35  1  6  0  0  0
 12 14  1  0  0  0  0
 12 15  1  0  0  0  0
 12 36  1  1  0  0  0
 13 14  1  0  0  0  0
 13 16  1  0  0  0  0
 13 37  1  6  0  0  0
 14 38  1  0  0  0  0
 14 39  1  0  0  0  0
 15 16  2  0  0  0  0
 15 40  1  0  0  0  0
 16 41  1  0  0  0  0
 19 20  1  0  0  0  0
 19 42  1  0  0  0  0
 19 43  1  0  0  0  0
 20 21  1  0  0  0  0
 20 44  1  0  0  0  0
 20 45  1  0  0  0  0
 21 22  1  0  0  0  0
 21 46  1  0  0  0  0
 21 47  1  0  0  0  0
 22 48  1  0  0  0  0
 22 49  1  0  0  0  0
 23 25  1  0  0  0  0
 23 50  1  0  0  0  0
 23 51  1  0  0  0  0
 24 26  1  0  0  0  0
 24 52  1  0  0  0  0
 24 53  1  0  0  0  0
 25 54  1  0  0  0  0
 25 55  1  0  0  0  0
 26 56  1  0  0  0  0
 26 57  1  0  0  0  0
 27 28  2  0  0  0  0
 27 29  1  0  0  0  0
 28 30  1  0  0  0  0
 29 31  2  0  0  0  0
 29 58  1  0  0  0  0
 30 32  2  0  0  0  0
 31 32  1  0  0  0  0
 31 59  1  0  0  0  0
 32 60  1  0  0  0  0
M  END
> <PUBCHEM_COMPOUND_CID>
145989451

> <PUBCHEM_COMPOUND_CANONICALIZED>
1

> <PUBCHEM_CACTVS_COMPLEXITY>
801

> <PUBCHEM_CACTVS_HBOND_ACCEPTOR>
8

> <PUBCHEM_CACTVS_HBOND_DONOR>
0

> <PUBCHEM_CACTVS_ROTATABLE_BOND>
6

> <PUBCHEM_CACTVS_SUBSKEYS>
AAADceB7OYAAAAAAAAAAAAAAAAAAAeJECAA8QIAAAAAWAEgBAAAAHwAAAAAADQzBkBQwzoMABACIACVSUACCCAAhIgAIiAEP7IgfZjLEsZu1MCpmxjne6Aed2AOOgAAAAgAAUAAAAAAEAACgAQAACAAAAA==

> <PUBCHEM_IUPAC_OPENEYE_NAME>
(1R,2R,6S,7S)-4-[4-[4-(2,2-difluoro-1,3-benzodioxol-4-yl)piperazin-1-yl]butyl]-4-azatricyclo[5.2.1.02,6]dec-8-ene-3,5-dione

> <PUBCHEM_IUPAC_CAS_NAME>
(1R,2R,6S,7S)-4-[4-[4-(2,2-difluoro-1,3-benzodioxol-4-yl)-1-piperazinyl]butyl]-4-azatricyclo[5.2.1.02,6]dec-8-ene-3,5-dione

> <PUBCHEM_IUPAC_NAME_MARKUP>
(1<I>R</I>,2<I>R</I>,6<I>S</I>,7<I>S</I>)-4-[4-[4-(2,2-difluoro-1,3-benzodioxol-4-yl)piperazin-1-yl]butyl]-4-azatricyclo[5.2.1.0<SUP>2,6</SUP>]dec-8-ene-3,5-dione

> <PUBCHEM_IUPAC_NAME>
(1R,2R,6S,7S)-4-[4-[4-(2,2-difluoro-1,3-benzodioxol-4-yl)piperazin-1-yl]butyl]-4-azatricyclo[5.2.1.02,6]dec-8-ene-3,5-dione

> <PUBCHEM_IUPAC_SYSTEMATIC_NAME>
(1R,2R,6S,7S)-4-[4-[4-[2,2-bis(fluoranyl)-1,3-benzodioxol-4-yl]piperazin-1-yl]butyl]-4-azatricyclo[5.2.1.02,6]dec-8-ene-3,5-dione

> <PUBCHEM_IUPAC_TRADITIONAL_NAME>
(1R,2R,6S,7S)-4-[4-[4-(2,2-difluoro-1,3-benzodioxol-4-yl)piperazino]butyl]-4-azatricyclo[5.2.1.02,6]dec-8-ene-3,5-quinone

> <PUBCHEM_IUPAC_INCHI>
InChI=1S/C24H27F2N3O4/c25-24(26)32-18-5-3-4-17(21(18)33-24)28-12-10-27(11-13-28)8-1-2-9-29-22(30)19-15-6-7-16(14-15)20(19)23(29)31/h3-7,15-16,19-20H,1-2,8-14H2/t15-,16+,19+,20-

> <PUBCHEM_IUPAC_INCHIKEY>
HWQRTZYDLYMZFE-OBMJPTGESA-N

> <PUBCHEM_XLOGP3_AA>
3.2

> <PUBCHEM_EXACT_MASS>
459.19696268

> <PUBCHEM_MOLECULAR_FORMULA>
C24H27F2N3O4

> <PUBCHEM_MOLECULAR_WEIGHT>
459.5

> <PUBCHEM_OPENEYE_CAN_SMILES>
C1CN(CCN1CCCCN2C(=O)C3C4CC(C3C2=O)C=C4)C5=C6C(=CC=C5)OC(O6)(F)F

> <PUBCHEM_OPENEYE_ISO_SMILES>
C1CN(CCN1CCCCN2C(=O)[C@@H]3[C@@H]4C[C@H]([C@@H]3C2=O)C=C4)C5=C6C(=CC=C5)OC(O6)(F)F

> <PUBCHEM_CACTVS_TPSA>
62.3

> <PUBCHEM_MONOISOTOPIC_WEIGHT>
459.19696268

> <PUBCHEM_TOTAL_CHARGE>
0

> <PUBCHEM_HEAVY_ATOM_COUNT>
33

> <PUBCHEM_ATOM_DEF_STEREO_COUNT>
4

> <PUBCHEM_ATOM_UDEF_STEREO_COUNT>
0

> <PUBCHEM_BOND_DEF_STEREO_COUNT>
0

> <PUBCHEM_BOND_UDEF_STEREO_COUNT>
0

> <PUBCHEM_ISOTOPIC_ATOM_COUNT>
0

> <PUBCHEM_COMPONENT_COUNT>
1

> <PUBCHEM_CACTVS_TAUTO_COUNT>
-1

> <PUBCHEM_COORDINATE_TYPE>
1
5
255

> <PUBCHEM_BONDANNOTATIONS>
10  34  6
11  35  6
12  36  5
13  37  6
27  28  8
27  29  8
28  30  8
29  31  8
30  32  8
31  32  8

$$$$
