134156222
  -OEChem-09292322382D

 47 50  0     1  0  0  0  0  0999 V2000
    8.9962    1.4297    0.0000 O   0  0  0  0  0  0  0  0  0  0  0  0
   14.1241   -0.5703    0.0000 O   0  0  0  0  0  0  0  0  0  0  0  0
    5.5321    0.4297    0.0000 N   0  0  3  0  0  0  0  0  0  0  0  0
   12.5405   -1.3750    0.0000 N   0  0  0  0  0  0  0  0  0  0  0  0
    5.5321    1.4297    0.0000 C   0  0  0  0  0  0  0  0  0  0  0  0
    4.6660   -0.0703    0.0000 C   0  0  0  0  0  0  0  0  0  0  0  0
    6.3981   -0.0703    0.0000 C   0  0  0  0  0  0  0  0  0  0  0  0
    4.6660    1.9297    0.0000 C   0  0  0  0  0  0  0  0  0  0  0  0
    3.8000    0.4297    0.0000 C   0  0  0  0  0  0  0  0  0  0  0  0
    3.8000    1.4297    0.0000 C   0  0  0  0  0  0  0  0  0  0  0  0
    7.2641    0.4297    0.0000 C   0  0  0  0  0  0  0  0  0  0  0  0
    8.1301   -0.0703    0.0000 C   0  0  0  0  0  0  0  0  0  0  0  0
    2.9061   -0.1050    0.0000 C   0  0  0  0  0  0  0  0  0  0  0  0
    2.9061    1.9644    0.0000 C   0  0  0  0  0  0  0  0  0  0  0  0
    8.9962    0.4297    0.0000 C   0  0  0  0  0  0  0  0  0  0  0  0
    9.8622   -0.0703    0.0000 C   0  0  0  0  0  0  0  0  0  0  0  0
   11.5942   -0.0703    0.0000 C   0  0  0  0  0  0  0  0  0  0  0  0
    2.0000    0.4089    0.0000 C   0  0  0  0  0  0  0  0  0  0  0  0
    2.0000    1.4505    0.0000 C   0  0  0  0  0  0  0  0  0  0  0  0
   11.5942   -1.0703    0.0000 C   0  0  0  0  0  0  0  0  0  0  0  0
   10.7282    0.4297    0.0000 C   0  0  0  0  0  0  0  0  0  0  0  0
   12.5405    0.2344    0.0000 C   0  0  0  0  0  0  0  0  0  0  0  0
    9.8622   -1.0703    0.0000 C   0  0  0  0  0  0  0  0  0  0  0  0
   10.7282   -1.5703    0.0000 C   0  0  0  0  0  0  0  0  0  0  0  0
   13.1241   -0.5703    0.0000 C   0  0  0  0  0  0  0  0  0  0  0  0
    6.1426    1.3220    0.0000 H   0  0  0  0  0  0  0  0  0  0  0  0
    5.7441    2.0123    0.0000 H   0  0  0  0  0  0  0  0  0  0  0  0
    4.2675   -0.5453    0.0000 H   0  0  0  0  0  0  0  0  0  0  0  0
    5.0646   -0.5453    0.0000 H   0  0  0  0  0  0  0  0  0  0  0  0
    5.9996   -0.5453    0.0000 H   0  0  0  0  0  0  0  0  0  0  0  0
    6.7966   -0.5453    0.0000 H   0  0  0  0  0  0  0  0  0  0  0  0
    5.0646    2.4046    0.0000 H   0  0  0  0  0  0  0  0  0  0  0  0
    4.2675    2.4046    0.0000 H   0  0  0  0  0  0  0  0  0  0  0  0
    7.6626    0.9046    0.0000 H   0  0  0  0  0  0  0  0  0  0  0  0
    6.8656    0.9046    0.0000 H   0  0  0  0  0  0  0  0  0  0  0  0
    7.7316   -0.5453    0.0000 H   0  0  0  0  0  0  0  0  0  0  0  0
    8.5287   -0.5453    0.0000 H   0  0  0  0  0  0  0  0  0  0  0  0
    2.9132   -0.7249    0.0000 H   0  0  0  0  0  0  0  0  0  0  0  0
    2.9132    2.5843    0.0000 H   0  0  0  0  0  0  0  0  0  0  0  0
    1.4643    0.0968    0.0000 H   0  0  0  0  0  0  0  0  0  0  0  0
    1.4643    1.7626    0.0000 H   0  0  0  0  0  0  0  0  0  0  0  0
   13.0778    0.5437    0.0000 H   0  0  0  0  0  0  0  0  0  0  0  0
   12.2894    0.8013    0.0000 H   0  0  0  0  0  0  0  0  0  0  0  0
   10.7282    1.0497    0.0000 H   0  0  0  0  0  0  0  0  0  0  0  0
    9.3252   -1.3803    0.0000 H   0  0  0  0  0  0  0  0  0  0  0  0
   10.7282   -2.1903    0.0000 H   0  0  0  0  0  0  0  0  0  0  0  0
   12.7331   -1.9644    0.0000 H   0  0  0  0  0  0  0  0  0  0  0  0
  1 15  2  0  0  0  0
  2 25  2  0  0  0  0
  3  5  1  0  0  0  0
  3  6  1  0  0  0  0
  3  7  1  0  0  0  0
  4 20  1  0  0  0  0
  4 25  1  0  0  0  0
  4 47  1  0  0  0  0
  5  8  1  0  0  0  0
  5 26  1  0  0  0  0
  5 27  1  0  0  0  0
  6  9  1  0  0  0  0
  6 28  1  0  0  0  0
  6 29  1  0  0  0  0
  7 11  1  0  0  0  0
  7 30  1  0  0  0  0
  7 31  1  0  0  0  0
  8 10  1  0  0  0  0
  8 32  1  0  0  0  0
  8 33  1  0  0  0  0
  9 10  1  0  0  0  0
  9 13  2  0  0  0  0
 10 14  2  0  0  0  0
 11 12  1  0  0  0  0
 11 34  1  0  0  0  0
 11 35  1  0  0  0  0
 12 15  1  0  0  0  0
 12 36  1  0  0  0  0
 12 37  1  0  0  0  0
 13 18  1  0  0  0  0
 13 38  1  0  0  0  0
 14 19  1  0  0  0  0
 14 39  1  0  0  0  0
 15 16  1  0  0  0  0
 16 21  2  0  0  0  0
 16 23  1  0  0  0  0
 17 20  2  0  0  0  0
 17 21  1  0  0  0  0
 17 22  1  0  0  0  0
 18 19  2  0  0  0  0
 18 40  1  0  0  0  0
 19 41  1  0  0  0  0
 20 24  1  0  0  0  0
 21 44  1  0  0  0  0
 22 25  1  0  0  0  0
 22 42  1  0  0  0  0
 22 43  1  0  0  0  0
 23 24  2  0  0  0  0
 23 45  1  0  0  0  0
 24 46  1  0  0  0  0
M  END
> <PUBCHEM_COMPOUND_CID>
134156222

> <PUBCHEM_COMPOUND_CANONICALIZED>
1

> <PUBCHEM_CACTVS_COMPLEXITY>
506

> <PUBCHEM_CACTVS_HBOND_ACCEPTOR>
3

> <PUBCHEM_CACTVS_HBOND_DONOR>
1

> <PUBCHEM_CACTVS_ROTATABLE_BOND>
5

> <PUBCHEM_CACTVS_SUBSKEYS>
AAADceB7MAAAAAAAAAAAAAAAAAAAAWAAAAA8YIAAAAAAAFixQAAAHgAQAAAADAzBmAQwwIPAAACIAqVSUACCAAAlAgAIiAEIZMgIIDLAlZGEIQhglADIyYccicCeiAACAAASAAAQAAQAACQAAAAAAAAAAA==

> <PUBCHEM_IUPAC_OPENEYE_NAME>
5-[4-(3,4-dihydro-1H-isoquinolin-2-yl)butanoyl]indolin-2-one

> <PUBCHEM_IUPAC_CAS_NAME>
5-[4-(3,4-dihydro-1H-isoquinolin-2-yl)-1-oxobutyl]-1,3-dihydroindol-2-one

> <PUBCHEM_IUPAC_NAME_MARKUP>
5-[4-(3,4-dihydro-1<I>H</I>-isoquinolin-2-yl)butanoyl]-1,3-dihydroindol-2-one

> <PUBCHEM_IUPAC_NAME>
5-[4-(3,4-dihydro-1H-isoquinolin-2-yl)butanoyl]-1,3-dihydroindol-2-one

> <PUBCHEM_IUPAC_SYSTEMATIC_NAME>
5-[4-(3,4-dihydro-1H-isoquinolin-2-yl)butanoyl]-1,3-dihydroindol-2-one

> <PUBCHEM_IUPAC_TRADITIONAL_NAME>
5-[4-(3,4-dihydro-1H-isoquinolin-2-yl)butanoyl]oxindole

> <PUBCHEM_IUPAC_INCHI>
InChI=1S/C21H22N2O2/c24-20(16-7-8-19-18(12-16)13-21(25)22-19)6-3-10-23-11-9-15-4-1-2-5-17(15)14-23/h1-2,4-5,7-8,12H,3,6,9-11,13-14H2,(H,22,25)

> <PUBCHEM_IUPAC_INCHIKEY>
GJUWVTJJMMQPAO-UHFFFAOYSA-N

> <PUBCHEM_XLOGP3_AA>
2.3

> <PUBCHEM_EXACT_MASS>
334.168127949

> <PUBCHEM_MOLECULAR_FORMULA>
C21H22N2O2

> <PUBCHEM_MOLECULAR_WEIGHT>
334.4

> <PUBCHEM_OPENEYE_CAN_SMILES>
C1CN(CC2=CC=CC=C21)CCCC(=O)C3=CC4=C(C=C3)NC(=O)C4

> <PUBCHEM_OPENEYE_ISO_SMILES>
C1CN(CC2=CC=CC=C21)CCCC(=O)C3=CC4=C(C=C3)NC(=O)C4

> <PUBCHEM_CACTVS_TPSA>
49.4

> <PUBCHEM_MONOISOTOPIC_WEIGHT>
334.168127949

> <PUBCHEM_TOTAL_CHARGE>
0

> <PUBCHEM_HEAVY_ATOM_COUNT>
25

> <PUBCHEM_ATOM_DEF_STEREO_COUNT>
0

> <PUBCHEM_ATOM_UDEF_STEREO_COUNT>
0

> <PUBCHEM_BOND_DEF_STEREO_COUNT>
0

> <PUBCHEM_BOND_UDEF_STEREO_COUNT>
0

> <PUBCHEM_ISOTOPIC_ATOM_COUNT>
0

> <PUBCHEM_COMPONENT_COUNT>
1

> <PUBCHEM_CACTVS_TAUTO_COUNT>
-1

> <PUBCHEM_COORDINATE_TYPE>
1
5
255

> <PUBCHEM_BONDANNOTATIONS>
10  14  8
13  18  8
14  19  8
16  21  8
16  23  8
17  20  8
17  21  8
18  19  8
20  24  8
23  24  8
9  10  8
9  13  8

$$$$
