45260664
  -OEChem-09292322502D

 34 35  0     1  0  0  0  0  0999 V2000
    3.0559    0.0000    0.0000 Cl  0  0  0  0  0  0  0  0  0  0  0  0
    3.0627    3.1676    0.0000 O   0  0  0  0  0  0  0  0  0  0  0  0
    2.7537    5.7367    0.0000 O   0  0  0  0  0  0  0  0  0  0  0  0
    0.9749    3.1106    0.0000 N   0  0  0  0  0  0  0  0  0  0  0  0
    2.4750    3.9766    0.0000 C   0  0  3  0  0  0  0  0  0  0  0  0
    1.9750    4.8426    0.0000 C   0  0  0  0  0  0  0  0  0  0  0  0
    1.9750    3.1106    0.0000 C   0  0  0  0  0  0  0  0  0  0  0  0
    0.9749    4.8426    0.0000 C   0  0  0  0  0  0  0  0  0  0  0  0
    0.4749    3.9766    0.0000 C   0  0  0  0  0  0  0  0  0  0  0  0
    3.0627    4.7856    0.0000 C   0  0  0  0  0  0  0  0  0  0  0  0
    4.0138    4.4766    0.0000 C   0  0  0  0  0  0  0  0  0  0  0  0
    4.0138    3.4766    0.0000 C   0  0  0  0  0  0  0  0  0  0  0  0
    4.8228    5.0644    0.0000 C   0  0  0  0  0  0  0  0  0  0  0  0
    5.7364    4.6576    0.0000 C   0  0  0  0  0  0  0  0  0  0  0  0
    4.7183    6.0589    0.0000 C   0  0  0  0  0  0  0  0  0  0  0  0
    6.5454    5.2454    0.0000 C   0  0  0  0  0  0  0  0  0  0  0  0
    5.5273    6.6467    0.0000 C   0  0  0  0  0  0  0  0  0  0  0  0
    6.4408    6.2400    0.0000 C   0  0  0  0  0  0  0  0  0  0  0  0
    2.5576    5.0547    0.0000 H   0  0  0  0  0  0  0  0  0  0  0  0
    1.8673    5.4532    0.0000 H   0  0  0  0  0  0  0  0  0  0  0  0
    1.8673    2.5000    0.0000 H   0  0  0  0  0  0  0  0  0  0  0  0
    2.5576    2.8985    0.0000 H   0  0  0  0  0  0  0  0  0  0  0  0
    1.0826    5.4532    0.0000 H   0  0  0  0  0  0  0  0  0  0  0  0
    0.3923    5.0547    0.0000 H   0  0  0  0  0  0  0  0  0  0  0  0
    0.0000    4.3751    0.0000 H   0  0  0  0  0  0  0  0  0  0  0  0
    0.0000    3.5781    0.0000 H   0  0  0  0  0  0  0  0  0  0  0  0
    0.6649    2.5737    0.0000 H   0  0  0  0  0  0  0  0  0  0  0  0
    4.5154    3.1122    0.0000 H   0  0  0  0  0  0  0  0  0  0  0  0
    5.8012    4.0410    0.0000 H   0  0  0  0  0  0  0  0  0  0  0  0
    4.1519    6.3111    0.0000 H   0  0  0  0  0  0  0  0  0  0  0  0
    7.1118    4.9933    0.0000 H   0  0  0  0  0  0  0  0  0  0  0  0
    5.4625    7.2633    0.0000 H   0  0  0  0  0  0  0  0  0  0  0  0
    6.9424    6.6044    0.0000 H   0  0  0  0  0  0  0  0  0  0  0  0
    4.0559    0.0000    0.0000 H   0  0  0  0  0  0  0  0  0  0  0  0
  1 34  1  0  0  0  0
  2  5  1  0  0  0  0
  2 12  1  0  0  0  0
  3 10  2  0  0  0  0
  4  7  1  0  0  0  0
  4  9  1  0  0  0  0
  4 27  1  0  0  0  0
  5  6  1  0  0  0  0
  5  7  1  0  0  0  0
  5 10  1  0  0  0  0
  6  8  1  0  0  0  0
  6 19  1  0  0  0  0
  6 20  1  0  0  0  0
  7 21  1  0  0  0  0
  7 22  1  0  0  0  0
  8  9  1  0  0  0  0
  8 23  1  0  0  0  0
  8 24  1  0  0  0  0
  9 25  1  0  0  0  0
  9 26  1  0  0  0  0
 10 11  1  0  0  0  0
 11 12  2  0  0  0  0
 11 13  1  0  0  0  0
 12 28  1  0  0  0  0
 13 14  2  0  0  0  0
 13 15  1  0  0  0  0
 14 16  1  0  0  0  0
 14 29  1  0  0  0  0
 15 17  2  0  0  0  0
 15 30  1  0  0  0  0
 16 18  2  0  0  0  0
 16 31  1  0  0  0  0
 17 18  1  0  0  0  0
 17 32  1  0  0  0  0
 18 33  1  0  0  0  0
M  END
> <PUBCHEM_COMPOUND_CID>
45260664

> <PUBCHEM_COMPOUND_CANONICALIZED>
1

> <PUBCHEM_CACTVS_COMPLEXITY>
344

> <PUBCHEM_CACTVS_HBOND_ACCEPTOR>
3

> <PUBCHEM_CACTVS_HBOND_DONOR>
2

> <PUBCHEM_CACTVS_ROTATABLE_BOND>
1

> <PUBCHEM_CACTVS_SUBSKEYS>
AAADceByMAAEAAAAAAAAAAAAAAAAAQAAAAA8QAAAAAAAAAABAAAAHgAQAAAADEThmAYwAILABACIAqBSAAICCAAgIAAIiIFIAMgKIDqAlRSFIAAk0ACYiIe4yeCOAAAAAAAAAAAAAAAAAAAAAAAAAAAAAA==

> <PUBCHEM_IUPAC_OPENEYE_NAME>
3-phenyl-1-oxa-9-azaspiro[4.5]dec-2-en-4-one;hydrochloride

> <PUBCHEM_IUPAC_CAS_NAME>
3-phenyl-1-oxa-9-azaspiro[4.5]dec-2-en-4-one;hydrochloride

> <PUBCHEM_IUPAC_NAME_MARKUP>
3-phenyl-1-oxa-9-azaspiro[4.5]dec-2-en-4-one;hydrochloride

> <PUBCHEM_IUPAC_NAME>
3-phenyl-1-oxa-9-azaspiro[4.5]dec-2-en-4-one;hydrochloride

> <PUBCHEM_IUPAC_SYSTEMATIC_NAME>
3-phenyl-1-oxa-9-azaspiro[4.5]dec-2-en-4-one;hydrochloride

> <PUBCHEM_IUPAC_TRADITIONAL_NAME>
3-phenyl-1-oxa-9-azaspiro[4.5]dec-2-en-4-one;hydrochloride

> <PUBCHEM_IUPAC_INCHI>
InChI=1S/C14H15NO2.ClH/c16-13-12(11-5-2-1-3-6-11)9-17-14(13)7-4-8-15-10-14;/h1-3,5-6,9,15H,4,7-8,10H2;1H

> <PUBCHEM_IUPAC_INCHIKEY>
ZSTPEHDZVNEXKR-UHFFFAOYSA-N

> <PUBCHEM_EXACT_MASS>
265.0869564

> <PUBCHEM_MOLECULAR_FORMULA>
C14H16ClNO2

> <PUBCHEM_MOLECULAR_WEIGHT>
265.73

> <PUBCHEM_OPENEYE_CAN_SMILES>
C1CC2(CNC1)C(=O)C(=CO2)C3=CC=CC=C3.Cl

> <PUBCHEM_OPENEYE_ISO_SMILES>
C1CC2(CNC1)C(=O)C(=CO2)C3=CC=CC=C3.Cl

> <PUBCHEM_CACTVS_TPSA>
38.3

> <PUBCHEM_MONOISOTOPIC_WEIGHT>
265.0869564

> <PUBCHEM_TOTAL_CHARGE>
0

> <PUBCHEM_HEAVY_ATOM_COUNT>
18

> <PUBCHEM_ATOM_DEF_STEREO_COUNT>
0

> <PUBCHEM_ATOM_UDEF_STEREO_COUNT>
1

> <PUBCHEM_BOND_DEF_STEREO_COUNT>
0

> <PUBCHEM_BOND_UDEF_STEREO_COUNT>
0

> <PUBCHEM_ISOTOPIC_ATOM_COUNT>
0

> <PUBCHEM_COMPONENT_COUNT>
2

> <PUBCHEM_CACTVS_TAUTO_COUNT>
-1

> <PUBCHEM_COORDINATE_TYPE>
1
5
255

> <PUBCHEM_BONDANNOTATIONS>
13  14  8
13  15  8
14  16  8
15  17  8
16  18  8
17  18  8
5  6  3

$$$$
