44409606
  -OEChem-09292322272D

 64 66  0     0  0  0  0  0  0999 V2000
    3.3660   -6.9330    0.0000 F   0  0  0  0  0  0  0  0  0  0  0  0
    2.0000   -6.5670    0.0000 F   0  0  0  0  0  0  0  0  0  0  0  0
    2.3660   -5.2010    0.0000 F   0  0  0  0  0  0  0  0  0  0  0  0
    6.3301    6.9330    0.0000 F   0  0  0  0  0  0  0  0  0  0  0  0
    5.3301    5.9330    0.0000 F   0  0  0  0  0  0  0  0  0  0  0  0
    7.3301    5.9330    0.0000 F   0  0  0  0  0  0  0  0  0  0  0  0
    8.0622    2.9330    0.0000 O   0  0  0  0  0  0  0  0  0  0  0  0
    4.5981   -1.0670    0.0000 N   0  0  0  0  0  0  0  0  0  0  0  0
    4.5981   -3.0670    0.0000 N   0  0  0  0  0  0  0  0  0  0  0  0
    5.4641   -4.5670    0.0000 N   0  0  0  0  0  0  0  0  0  0  0  0
    6.3301    2.9330    0.0000 N   0  0  0  0  0  0  0  0  0  0  0  0
    4.5981   -6.0670    0.0000 N   0  0  0  0  0  0  0  0  0  0  0  0
    3.7320   -1.5670    0.0000 C   0  0  0  0  0  0  0  0  0  0  0  0
    5.4641   -1.5670    0.0000 C   0  0  0  0  0  0  0  0  0  0  0  0
    3.7320   -2.5670    0.0000 C   0  0  0  0  0  0  0  0  0  0  0  0
    5.4641   -2.5670    0.0000 C   0  0  0  0  0  0  0  0  0  0  0  0
    4.5981   -0.0670    0.0000 C   0  0  0  0  0  0  0  0  0  0  0  0
    5.4641    0.4330    0.0000 C   0  0  0  0  0  0  0  0  0  0  0  0
    4.5981   -4.0670    0.0000 C   0  0  0  0  0  0  0  0  0  0  0  0
    5.4641    1.4330    0.0000 C   0  0  0  0  0  0  0  0  0  0  0  0
    6.3301   -6.0670    0.0000 C   0  0  0  0  0  0  0  0  0  0  0  0
    6.3301    1.9330    0.0000 C   0  0  0  0  0  0  0  0  0  0  0  0
    5.4641   -5.5670    0.0000 C   0  0  0  0  0  0  0  0  0  0  0  0
    3.7320   -4.5670    0.0000 C   0  0  0  0  0  0  0  0  0  0  0  0
    3.7320   -5.5670    0.0000 C   0  0  0  0  0  0  0  0  0  0  0  0
    7.1962   -6.5670    0.0000 C   0  0  0  0  0  0  0  0  0  0  0  0
    5.8301   -6.9330    0.0000 C   0  0  0  0  0  0  0  0  0  0  0  0
    6.8301   -5.2010    0.0000 C   0  0  0  0  0  0  0  0  0  0  0  0
    2.8660   -6.0670    0.0000 C   0  0  0  0  0  0  0  0  0  0  0  0
    7.1962    3.4330    0.0000 C   0  0  0  0  0  0  0  0  0  0  0  0
    5.4641    3.4330    0.0000 C   0  0  0  0  0  0  0  0  0  0  0  0
    7.1962    4.4330    0.0000 C   0  0  0  0  0  0  0  0  0  0  0  0
    5.4641    4.4330    0.0000 C   0  0  0  0  0  0  0  0  0  0  0  0
    6.3301    4.9330    0.0000 C   0  0  0  0  0  0  0  0  0  0  0  0
    6.3301    5.9330    0.0000 C   0  0  0  0  0  0  0  0  0  0  0  0
    3.5200   -0.9844    0.0000 H   0  0  0  0  0  0  0  0  0  0  0  0
    3.1215   -1.6746    0.0000 H   0  0  0  0  0  0  0  0  0  0  0  0
    6.0747   -1.6746    0.0000 H   0  0  0  0  0  0  0  0  0  0  0  0
    5.6762   -0.9844    0.0000 H   0  0  0  0  0  0  0  0  0  0  0  0
    3.1215   -2.4593    0.0000 H   0  0  0  0  0  0  0  0  0  0  0  0
    3.5200   -3.1496    0.0000 H   0  0  0  0  0  0  0  0  0  0  0  0
    5.6762   -3.1496    0.0000 H   0  0  0  0  0  0  0  0  0  0  0  0
    6.0747   -2.4593    0.0000 H   0  0  0  0  0  0  0  0  0  0  0  0
    4.3860    0.5156    0.0000 H   0  0  0  0  0  0  0  0  0  0  0  0
    3.9875   -0.1746    0.0000 H   0  0  0  0  0  0  0  0  0  0  0  0
    5.6762   -0.1496    0.0000 H   0  0  0  0  0  0  0  0  0  0  0  0
    6.0747    0.5407    0.0000 H   0  0  0  0  0  0  0  0  0  0  0  0
    5.2520    2.0156    0.0000 H   0  0  0  0  0  0  0  0  0  0  0  0
    4.8535    1.3254    0.0000 H   0  0  0  0  0  0  0  0  0  0  0  0
    6.5422    1.3504    0.0000 H   0  0  0  0  0  0  0  0  0  0  0  0
    6.9407    2.0407    0.0000 H   0  0  0  0  0  0  0  0  0  0  0  0
    3.1951   -4.2570    0.0000 H   0  0  0  0  0  0  0  0  0  0  0  0
    6.8862   -7.1039    0.0000 H   0  0  0  0  0  0  0  0  0  0  0  0
    7.7331   -6.8770    0.0000 H   0  0  0  0  0  0  0  0  0  0  0  0
    7.5062   -6.0300    0.0000 H   0  0  0  0  0  0  0  0  0  0  0  0
    5.2932   -6.6230    0.0000 H   0  0  0  0  0  0  0  0  0  0  0  0
    5.5201   -7.4700    0.0000 H   0  0  0  0  0  0  0  0  0  0  0  0
    6.3671   -7.2430    0.0000 H   0  0  0  0  0  0  0  0  0  0  0  0
    7.3671   -5.5110    0.0000 H   0  0  0  0  0  0  0  0  0  0  0  0
    7.1401   -4.6640    0.0000 H   0  0  0  0  0  0  0  0  0  0  0  0
    6.2932   -4.8910    0.0000 H   0  0  0  0  0  0  0  0  0  0  0  0
    4.9272    3.1230    0.0000 H   0  0  0  0  0  0  0  0  0  0  0  0
    7.7331    4.7430    0.0000 H   0  0  0  0  0  0  0  0  0  0  0  0
    4.9272    4.7430    0.0000 H   0  0  0  0  0  0  0  0  0  0  0  0
  1 29  1  0  0  0  0
  2 29  1  0  0  0  0
  3 29  1  0  0  0  0
  4 35  1  0  0  0  0
  5 35  1  0  0  0  0
  6 35  1  0  0  0  0
  7 30  2  0  0  0  0
  8 13  1  0  0  0  0
  8 14  1  0  0  0  0
  8 17  1  0  0  0  0
  9 15  1  0  0  0  0
  9 16  1  0  0  0  0
  9 19  1  0  0  0  0
 10 19  2  0  0  0  0
 10 23  1  0  0  0  0
 11 22  1  0  0  0  0
 11 30  1  0  0  0  0
 11 31  1  0  0  0  0
 12 23  2  0  0  0  0
 12 25  1  0  0  0  0
 13 15  1  0  0  0  0
 13 36  1  0  0  0  0
 13 37  1  0  0  0  0
 14 16  1  0  0  0  0
 14 38  1  0  0  0  0
 14 39  1  0  0  0  0
 15 40  1  0  0  0  0
 15 41  1  0  0  0  0
 16 42  1  0  0  0  0
 16 43  1  0  0  0  0
 17 18  1  0  0  0  0
 17 44  1  0  0  0  0
 17 45  1  0  0  0  0
 18 20  1  0  0  0  0
 18 46  1  0  0  0  0
 18 47  1  0  0  0  0
 19 24  1  0  0  0  0
 20 22  1  0  0  0  0
 20 48  1  0  0  0  0
 20 49  1  0  0  0  0
 21 23  1  0  0  0  0
 21 26  1  0  0  0  0
 21 27  1  0  0  0  0
 21 28  1  0  0  0  0
 22 50  1  0  0  0  0
 22 51  1  0  0  0  0
 24 25  2  0  0  0  0
 24 52  1  0  0  0  0
 25 29  1  0  0  0  0
 26 53  1  0  0  0  0
 26 54  1  0  0  0  0
 26 55  1  0  0  0  0
 27 56  1  0  0  0  0
 27 57  1  0  0  0  0
 27 58  1  0  0  0  0
 28 59  1  0  0  0  0
 28 60  1  0  0  0  0
 28 61  1  0  0  0  0
 30 32  1  0  0  0  0
 31 33  2  0  0  0  0
 31 62  1  0  0  0  0
 32 34  2  0  0  0  0
 32 63  1  0  0  0  0
 33 34  1  0  0  0  0
 33 64  1  0  0  0  0
 34 35  1  0  0  0  0
M  END
> <PUBCHEM_COMPOUND_CID>
44409606

> <PUBCHEM_COMPOUND_CANONICALIZED>
1

> <PUBCHEM_CACTVS_COMPLEXITY>
796

> <PUBCHEM_CACTVS_HBOND_ACCEPTOR>
11

> <PUBCHEM_CACTVS_HBOND_DONOR>
0

> <PUBCHEM_CACTVS_ROTATABLE_BOND>
7

> <PUBCHEM_CACTVS_SUBSKEYS>
AAADceB7ocAAAAAAAAAAAAAAAAAAAAAAAAAsWIAAAAAAAAABgAAAHwAAAAAADgjBlxQzsJcIEACoAyd2dACAgCkhAqAJGCA4ZFiIaABAycAUBAhIBgLAwSAAAAAAAAAAAAAAAAAAAAAAAAAAAAAAAAAAAA==

> <PUBCHEM_IUPAC_OPENEYE_NAME>
1-[4-[4-[2-tert-butyl-6-(trifluoromethyl)pyrimidin-4-yl]piperazin-1-yl]butyl]-4-(trifluoromethyl)pyridin-2-one

> <PUBCHEM_IUPAC_CAS_NAME>
1-[4-[4-[2-tert-butyl-6-(trifluoromethyl)-4-pyrimidinyl]-1-piperazinyl]butyl]-4-(trifluoromethyl)-2-pyridinone

> <PUBCHEM_IUPAC_NAME_MARKUP>
1-[4-[4-[2-<I>tert</I>-butyl-6-(trifluoromethyl)pyrimidin-4-yl]piperazin-1-yl]butyl]-4-(trifluoromethyl)pyridin-2-one

> <PUBCHEM_IUPAC_NAME>
1-[4-[4-[2-tert-butyl-6-(trifluoromethyl)pyrimidin-4-yl]piperazin-1-yl]butyl]-4-(trifluoromethyl)pyridin-2-one

> <PUBCHEM_IUPAC_SYSTEMATIC_NAME>
1-[4-[4-[2-tert-butyl-6-(trifluoromethyl)pyrimidin-4-yl]piperazin-1-yl]butyl]-4-(trifluoromethyl)pyridin-2-one

> <PUBCHEM_IUPAC_TRADITIONAL_NAME>
1-[4-[4-[2-tert-butyl-6-(trifluoromethyl)pyrimidin-4-yl]piperazino]butyl]-4-(trifluoromethyl)-2-pyridone

> <PUBCHEM_IUPAC_INCHI>
InChI=1S/C23H29F6N5O/c1-21(2,3)20-30-17(23(27,28)29)15-18(31-20)33-12-10-32(11-13-33)7-4-5-8-34-9-6-16(14-19(34)35)22(24,25)26/h6,9,14-15H,4-5,7-8,10-13H2,1-3H3

> <PUBCHEM_IUPAC_INCHIKEY>
QAWQNXXSPFROGF-UHFFFAOYSA-N

> <PUBCHEM_XLOGP3_AA>
4.4

> <PUBCHEM_EXACT_MASS>
505.22762954

> <PUBCHEM_MOLECULAR_FORMULA>
C23H29F6N5O

> <PUBCHEM_MOLECULAR_WEIGHT>
505.5

> <PUBCHEM_OPENEYE_CAN_SMILES>
CC(C)(C)C1=NC(=CC(=N1)N2CCN(CC2)CCCCN3C=CC(=CC3=O)C(F)(F)F)C(F)(F)F

> <PUBCHEM_OPENEYE_ISO_SMILES>
CC(C)(C)C1=NC(=CC(=N1)N2CCN(CC2)CCCCN3C=CC(=CC3=O)C(F)(F)F)C(F)(F)F

> <PUBCHEM_CACTVS_TPSA>
52.6

> <PUBCHEM_MONOISOTOPIC_WEIGHT>
505.22762954

> <PUBCHEM_TOTAL_CHARGE>
0

> <PUBCHEM_HEAVY_ATOM_COUNT>
35

> <PUBCHEM_ATOM_DEF_STEREO_COUNT>
0

> <PUBCHEM_ATOM_UDEF_STEREO_COUNT>
0

> <PUBCHEM_BOND_DEF_STEREO_COUNT>
0

> <PUBCHEM_BOND_UDEF_STEREO_COUNT>
0

> <PUBCHEM_ISOTOPIC_ATOM_COUNT>
0

> <PUBCHEM_COMPONENT_COUNT>
1

> <PUBCHEM_CACTVS_TAUTO_COUNT>
-1

> <PUBCHEM_COORDINATE_TYPE>
1
5
255

> <PUBCHEM_BONDANNOTATIONS>
10  19  8
10  23  8
11  30  8
11  31  8
12  23  8
12  25  8
19  24  8
24  25  8
30  32  8
31  33  8
32  34  8
33  34  8

$$$$
