53363110
  -OEChem-09292322322D

 78 81  0     0  0  0  0  0  0999 V2000
    7.1962   -6.6193    0.0000 O   0  0  0  0  0  0  0  0  0  0  0  0
    4.5981    0.8807    0.0000 O   0  0  0  0  0  0  0  0  0  0  0  0
    2.8660   -0.1193    0.0000 O   0  0  0  0  0  0  0  0  0  0  0  0
    5.4641   -3.6193    0.0000 N   0  0  0  0  0  0  0  0  0  0  0  0
    7.1962   -4.6193    0.0000 N   0  0  0  0  0  0  0  0  0  0  0  0
    8.2788    5.5831    0.0000 N   0  0  0  0  0  0  0  0  0  0  0  0
    8.1097    3.9740    0.0000 N   0  0  0  0  0  0  0  0  0  0  0  0
    8.7788    4.7171    0.0000 N   0  0  0  0  0  0  0  0  0  0  0  0
    5.4641   -4.6193    0.0000 C   0  0  0  0  0  0  0  0  0  0  0  0
    6.3301   -3.1193    0.0000 C   0  0  0  0  0  0  0  0  0  0  0  0
    6.3301   -5.1193    0.0000 C   0  0  0  0  0  0  0  0  0  0  0  0
    7.1962   -3.6193    0.0000 C   0  0  0  0  0  0  0  0  0  0  0  0
    4.5981   -3.1193    0.0000 C   0  0  0  0  0  0  0  0  0  0  0  0
    8.0622   -5.1193    0.0000 C   0  0  0  0  0  0  0  0  0  0  0  0
    4.5981   -2.1193    0.0000 C   0  0  0  0  0  0  0  0  0  0  0  0
    8.0622   -6.1193    0.0000 C   0  0  0  0  0  0  0  0  0  0  0  0
    8.9282   -4.6193    0.0000 C   0  0  0  0  0  0  0  0  0  0  0  0
    3.7320   -1.6193    0.0000 C   0  0  0  0  0  0  0  0  0  0  0  0
    5.4641   -1.6193    0.0000 C   0  0  0  0  0  0  0  0  0  0  0  0
    3.7320   -0.6193    0.0000 C   0  0  0  0  0  0  0  0  0  0  0  0
    8.9282   -6.6193    0.0000 C   0  0  0  0  0  0  0  0  0  0  0  0
    9.7942   -5.1193    0.0000 C   0  0  0  0  0  0  0  0  0  0  0  0
    5.4641   -0.6193    0.0000 C   0  0  0  0  0  0  0  0  0  0  0  0
    4.5981   -0.1193    0.0000 C   0  0  0  0  0  0  0  0  0  0  0  0
    9.7942   -6.1193    0.0000 C   0  0  0  0  0  0  0  0  0  0  0  0
    5.4641    2.3807    0.0000 C   0  0  0  0  0  0  0  0  0  0  0  0
    6.3301    2.8807    0.0000 C   0  0  0  0  0  0  0  0  0  0  0  0
    5.4641    1.3807    0.0000 C   0  0  0  0  0  0  0  0  0  0  0  0
    6.3301    3.8807    0.0000 C   0  0  0  0  0  0  0  0  0  0  0  0
    7.1962    4.3807    0.0000 C   0  0  0  0  0  0  0  0  0  0  0  0
    8.6856    6.4967    0.0000 C   0  0  0  0  0  0  0  0  0  0  0  0
    9.6801    6.6012    0.0000 C   0  0  0  0  0  0  0  0  0  0  0  0
    7.3007    5.3752    0.0000 C   0  0  0  0  0  0  0  0  0  0  0  0
    7.1962   -7.6193    0.0000 C   0  0  0  0  0  0  0  0  0  0  0  0
   10.0868    7.5148    0.0000 C   0  0  0  0  0  0  0  0  0  0  0  0
    2.0000   -0.6193    0.0000 C   0  0  0  0  0  0  0  0  0  0  0  0
   11.0813    7.6193    0.0000 C   0  0  0  0  0  0  0  0  0  0  0  0
    4.8535   -4.5116    0.0000 H   0  0  0  0  0  0  0  0  0  0  0  0
    5.2520   -5.2019    0.0000 H   0  0  0  0  0  0  0  0  0  0  0  0
    6.7287   -2.6443    0.0000 H   0  0  0  0  0  0  0  0  0  0  0  0
    5.9316   -2.6443    0.0000 H   0  0  0  0  0  0  0  0  0  0  0  0
    5.9316   -5.5942    0.0000 H   0  0  0  0  0  0  0  0  0  0  0  0
    6.7287   -5.5942    0.0000 H   0  0  0  0  0  0  0  0  0  0  0  0
    7.8067   -3.7270    0.0000 H   0  0  0  0  0  0  0  0  0  0  0  0
    7.4082   -3.0367    0.0000 H   0  0  0  0  0  0  0  0  0  0  0  0
    3.9875   -3.0116    0.0000 H   0  0  0  0  0  0  0  0  0  0  0  0
    4.3860   -3.7019    0.0000 H   0  0  0  0  0  0  0  0  0  0  0  0
    8.9282   -3.9993    0.0000 H   0  0  0  0  0  0  0  0  0  0  0  0
    3.1951   -1.9293    0.0000 H   0  0  0  0  0  0  0  0  0  0  0  0
    6.0010   -1.9293    0.0000 H   0  0  0  0  0  0  0  0  0  0  0  0
    8.9282   -7.2393    0.0000 H   0  0  0  0  0  0  0  0  0  0  0  0
   10.3312   -4.8093    0.0000 H   0  0  0  0  0  0  0  0  0  0  0  0
    6.0010   -0.3093    0.0000 H   0  0  0  0  0  0  0  0  0  0  0  0
   10.3312   -6.4293    0.0000 H   0  0  0  0  0  0  0  0  0  0  0  0
    5.2520    2.9633    0.0000 H   0  0  0  0  0  0  0  0  0  0  0  0
    4.8535    2.2730    0.0000 H   0  0  0  0  0  0  0  0  0  0  0  0
    6.5422    2.2981    0.0000 H   0  0  0  0  0  0  0  0  0  0  0  0
    6.9407    2.9884    0.0000 H   0  0  0  0  0  0  0  0  0  0  0  0
    5.6762    0.7981    0.0000 H   0  0  0  0  0  0  0  0  0  0  0  0
    6.0747    1.4884    0.0000 H   0  0  0  0  0  0  0  0  0  0  0  0
    6.1181    4.4633    0.0000 H   0  0  0  0  0  0  0  0  0  0  0  0
    5.7196    3.7730    0.0000 H   0  0  0  0  0  0  0  0  0  0  0  0
    8.7288    7.1152    0.0000 H   0  0  0  0  0  0  0  0  0  0  0  0
    8.0840    6.6467    0.0000 H   0  0  0  0  0  0  0  0  0  0  0  0
    9.6368    5.9827    0.0000 H   0  0  0  0  0  0  0  0  0  0  0  0
   10.2817    6.4512    0.0000 H   0  0  0  0  0  0  0  0  0  0  0  0
    6.8399    5.7901    0.0000 H   0  0  0  0  0  0  0  0  0  0  0  0
    6.5762   -7.6193    0.0000 H   0  0  0  0  0  0  0  0  0  0  0  0
    7.1962   -8.2393    0.0000 H   0  0  0  0  0  0  0  0  0  0  0  0
    7.8162   -7.6193    0.0000 H   0  0  0  0  0  0  0  0  0  0  0  0
   10.1301    8.1332    0.0000 H   0  0  0  0  0  0  0  0  0  0  0  0
    9.4852    7.6648    0.0000 H   0  0  0  0  0  0  0  0  0  0  0  0
    1.6900   -0.0824    0.0000 H   0  0  0  0  0  0  0  0  0  0  0  0
    1.4631   -0.9293    0.0000 H   0  0  0  0  0  0  0  0  0  0  0  0
    2.3100   -1.1562    0.0000 H   0  0  0  0  0  0  0  0  0  0  0  0
   11.1462    7.0027    0.0000 H   0  0  0  0  0  0  0  0  0  0  0  0
   11.6979    7.6841    0.0000 H   0  0  0  0  0  0  0  0  0  0  0  0
   11.0165    8.2359    0.0000 H   0  0  0  0  0  0  0  0  0  0  0  0
  1 16  1  0  0  0  0
  1 34  1  0  0  0  0
  2 24  1  0  0  0  0
  2 28  1  0  0  0  0
  3 20  1  0  0  0  0
  3 36  1  0  0  0  0
  4  9  1  0  0  0  0
  4 10  1  0  0  0  0
  4 13  1  0  0  0  0
  5 11  1  0  0  0  0
  5 12  1  0  0  0  0
  5 14  1  0  0  0  0
  6  8  1  0  0  0  0
  6 31  1  0  0  0  0
  6 33  1  0  0  0  0
  7  8  2  0  0  0  0
  7 30  1  0  0  0  0
  9 11  1  0  0  0  0
  9 38  1  0  0  0  0
  9 39  1  0  0  0  0
 10 12  1  0  0  0  0
 10 40  1  0  0  0  0
 10 41  1  0  0  0  0
 11 42  1  0  0  0  0
 11 43  1  0  0  0  0
 12 44  1  0  0  0  0
 12 45  1  0  0  0  0
 13 15  1  0  0  0  0
 13 46  1  0  0  0  0
 13 47  1  0  0  0  0
 14 16  1  0  0  0  0
 14 17  2  0  0  0  0
 15 18  2  0  0  0  0
 15 19  1  0  0  0  0
 16 21  2  0  0  0  0
 17 22  1  0  0  0  0
 17 48  1  0  0  0  0
 18 20  1  0  0  0  0
 18 49  1  0  0  0  0
 19 23  2  0  0  0  0
 19 50  1  0  0  0  0
 20 24  2  0  0  0  0
 21 25  1  0  0  0  0
 21 51  1  0  0  0  0
 22 25  2  0  0  0  0
 22 52  1  0  0  0  0
 23 24  1  0  0  0  0
 23 53  1  0  0  0  0
 25 54  1  0  0  0  0
 26 27  1  0  0  0  0
 26 28  1  0  0  0  0
 26 55  1  0  0  0  0
 26 56  1  0  0  0  0
 27 29  1  0  0  0  0
 27 57  1  0  0  0  0
 27 58  1  0  0  0  0
 28 59  1  0  0  0  0
 28 60  1  0  0  0  0
 29 30  1  0  0  0  0
 29 61  1  0  0  0  0
 29 62  1  0  0  0  0
 30 33  2  0  0  0  0
 31 32  1  0  0  0  0
 31 63  1  0  0  0  0
 31 64  1  0  0  0  0
 32 35  1  0  0  0  0
 32 65  1  0  0  0  0
 32 66  1  0  0  0  0
 33 67  1  0  0  0  0
 34 68  1  0  0  0  0
 34 69  1  0  0  0  0
 34 70  1  0  0  0  0
 35 37  1  0  0  0  0
 35 71  1  0  0  0  0
 35 72  1  0  0  0  0
 36 73  1  0  0  0  0
 36 74  1  0  0  0  0
 36 75  1  0  0  0  0
 37 76  1  0  0  0  0
 37 77  1  0  0  0  0
 37 78  1  0  0  0  0
M  END
> <PUBCHEM_COMPOUND_CID>
53363110

> <PUBCHEM_COMPOUND_CANONICALIZED>
1

> <PUBCHEM_CACTVS_COMPLEXITY>
620

> <PUBCHEM_CACTVS_HBOND_ACCEPTOR>
7

> <PUBCHEM_CACTVS_HBOND_DONOR>
0

> <PUBCHEM_CACTVS_ROTATABLE_BOND>
14

> <PUBCHEM_CACTVS_SUBSKEYS>
AAADcfB7sAAAAAAAAAAAAAAAAAAAAWAAAAA8YIAAAAAAAAAB0AAAHgAIAAAADAzhngY+xpMIBACiAzRnRACCDAQxsgAY2AA//IgPZiLEsZuXOCrkwBHa6Aew0BMOIAABAAAAUABAAAIAAACgAAAAAAAAAA==

> <PUBCHEM_IUPAC_OPENEYE_NAME>
1-[[4-[4-(1-butyltriazol-4-yl)butoxy]-3-methoxy-phenyl]methyl]-4-(2-methoxyphenyl)piperazine

> <PUBCHEM_IUPAC_CAS_NAME>
1-[[4-[4-(1-butyl-4-triazolyl)butoxy]-3-methoxyphenyl]methyl]-4-(2-methoxyphenyl)piperazine

> <PUBCHEM_IUPAC_NAME_MARKUP>
1-[[4-[4-(1-butyltriazol-4-yl)butoxy]-3-methoxyphenyl]methyl]-4-(2-methoxyphenyl)piperazine

> <PUBCHEM_IUPAC_NAME>
1-[[4-[4-(1-butyltriazol-4-yl)butoxy]-3-methoxyphenyl]methyl]-4-(2-methoxyphenyl)piperazine

> <PUBCHEM_IUPAC_SYSTEMATIC_NAME>
1-[[4-[4-(1-butyl-1,2,3-triazol-4-yl)butoxy]-3-methoxy-phenyl]methyl]-4-(2-methoxyphenyl)piperazine

> <PUBCHEM_IUPAC_TRADITIONAL_NAME>
1-[4-[4-(1-butyltriazol-4-yl)butoxy]-3-methoxy-benzyl]-4-(2-methoxyphenyl)piperazine

> <PUBCHEM_IUPAC_INCHI>
InChI=1S/C29H41N5O3/c1-4-5-15-34-23-25(30-31-34)10-8-9-20-37-28-14-13-24(21-29(28)36-3)22-32-16-18-33(19-17-32)26-11-6-7-12-27(26)35-2/h6-7,11-14,21,23H,4-5,8-10,15-20,22H2,1-3H3

> <PUBCHEM_IUPAC_INCHIKEY>
SVCSCOQWJKNMQT-UHFFFAOYSA-N

> <PUBCHEM_XLOGP3_AA>
4.9

> <PUBCHEM_EXACT_MASS>
507.32094019

> <PUBCHEM_MOLECULAR_FORMULA>
C29H41N5O3

> <PUBCHEM_MOLECULAR_WEIGHT>
507.7

> <PUBCHEM_OPENEYE_CAN_SMILES>
CCCCN1C=C(N=N1)CCCCOC2=C(C=C(C=C2)CN3CCN(CC3)C4=CC=CC=C4OC)OC

> <PUBCHEM_OPENEYE_ISO_SMILES>
CCCCN1C=C(N=N1)CCCCOC2=C(C=C(C=C2)CN3CCN(CC3)C4=CC=CC=C4OC)OC

> <PUBCHEM_CACTVS_TPSA>
64.9

> <PUBCHEM_MONOISOTOPIC_WEIGHT>
507.32094019

> <PUBCHEM_TOTAL_CHARGE>
0

> <PUBCHEM_HEAVY_ATOM_COUNT>
37

> <PUBCHEM_ATOM_DEF_STEREO_COUNT>
0

> <PUBCHEM_ATOM_UDEF_STEREO_COUNT>
0

> <PUBCHEM_BOND_DEF_STEREO_COUNT>
0

> <PUBCHEM_BOND_UDEF_STEREO_COUNT>
0

> <PUBCHEM_ISOTOPIC_ATOM_COUNT>
0

> <PUBCHEM_COMPONENT_COUNT>
1

> <PUBCHEM_CACTVS_TAUTO_COUNT>
-1

> <PUBCHEM_COORDINATE_TYPE>
1
5
255

> <PUBCHEM_BONDANNOTATIONS>
14  16  8
14  17  8
15  18  8
15  19  8
16  21  8
17  22  8
18  20  8
19  23  8
20  24  8
21  25  8
22  25  8
23  24  8
30  33  8
6  33  8
6  8  8
7  30  8
7  8  8

$$$$
