44363215
  -OEChem-09292322212D

 79 83  0     1  0  0  0  0  0999 V2000
   10.1467   -2.3943    0.0000 S   0  0  0  0  0  0  0  0  0  0  0  0
    6.1686   -1.9762    0.0000 O   0  0  0  0  0  0  0  0  0  0  0  0
   10.0422   -3.3888    0.0000 O   0  0  0  0  0  0  0  0  0  0  0  0
   10.2513   -1.3998    0.0000 O   0  0  0  0  0  0  0  0  0  0  0  0
    5.3955    2.3443    0.0000 N   0  0  3  0  0  0  0  0  0  0  0  0
    6.3661   -0.1502    0.0000 N   0  0  0  0  0  0  0  0  0  0  0  0
   11.1412   -2.4988    0.0000 N   0  0  3  0  0  0  0  0  0  0  0  0
    4.4945    2.7782    0.0000 C   0  0  3  0  0  0  0  0  0  0  0  0
    4.2720    3.7531    0.0000 C   0  0  0  0  0  0  0  0  0  0  0  0
    6.2965    2.7782    0.0000 C   0  0  0  0  0  0  0  0  0  0  0  0
    4.8955    4.5350    0.0000 C   0  0  0  0  0  0  0  0  0  0  0  0
    6.5190    3.7531    0.0000 C   0  0  0  0  0  0  0  0  0  0  0  0
    5.8955    4.5350    0.0000 C   0  0  0  0  0  0  0  0  0  0  0  0
    5.3955    1.3443    0.0000 C   0  0  0  0  0  0  0  0  0  0  0  0
    3.7127    2.1547    0.0000 C   0  0  0  0  0  0  0  0  0  0  0  0
    6.2615    0.8443    0.0000 C   0  0  0  0  0  0  0  0  0  0  0  0
    2.7818    2.5200    0.0000 C   0  0  0  0  0  0  0  0  0  0  0  0
    3.8618    1.1659    0.0000 C   0  0  0  0  0  0  0  0  0  0  0  0
    7.1751    1.2510    0.0000 C   0  0  0  0  0  0  0  0  0  0  0  0
    7.3442   -0.3581    0.0000 C   0  0  0  0  0  0  0  0  0  0  0  0
    7.8442    0.5079    0.0000 C   0  0  0  0  0  0  0  0  0  0  0  0
    2.0000    1.8966    0.0000 C   0  0  0  0  0  0  0  0  0  0  0  0
    3.0799    0.5424    0.0000 C   0  0  0  0  0  0  0  0  0  0  0  0
    7.7509   -1.2717    0.0000 C   0  0  0  0  0  0  0  0  0  0  0  0
    2.1490    0.9077    0.0000 C   0  0  0  0  0  0  0  0  0  0  0  0
    8.7455   -1.3762    0.0000 C   0  0  0  0  0  0  0  0  0  0  0  0
    9.1522   -2.2898    0.0000 C   0  0  0  0  0  0  0  0  0  0  0  0
    7.1632   -2.0807    0.0000 C   0  0  0  0  0  0  0  0  0  0  0  0
    8.5644   -3.0988    0.0000 C   0  0  0  0  0  0  0  0  0  0  0  0
    7.5699   -2.9942    0.0000 C   0  0  0  0  0  0  0  0  0  0  0  0
   11.5480   -3.4124    0.0000 C   0  0  0  0  0  0  0  0  0  0  0  0
   11.7290   -1.6898    0.0000 C   0  0  0  0  0  0  0  0  0  0  0  0
   12.5425   -3.5169    0.0000 C   0  0  0  0  0  0  0  0  0  0  0  0
   11.3223   -0.7762    0.0000 C   0  0  0  0  0  0  0  0  0  0  0  0
   12.9492   -4.4304    0.0000 C   0  0  0  0  0  0  0  0  0  0  0  0
   13.1303   -2.7079    0.0000 C   0  0  0  0  0  0  0  0  0  0  0  0
    5.5808   -2.7852    0.0000 C   0  0  0  0  0  0  0  0  0  0  0  0
   13.9438   -4.5350    0.0000 C   0  0  0  0  0  0  0  0  0  0  0  0
   14.1248   -2.8124    0.0000 C   0  0  0  0  0  0  0  0  0  0  0  0
   14.5315   -3.7259    0.0000 C   0  0  0  0  0  0  0  0  0  0  0  0
    4.5640    2.1621    0.0000 H   0  0  0  0  0  0  0  0  0  0  0  0
    3.8854    4.2378    0.0000 H   0  0  0  0  0  0  0  0  0  0  0  0
    3.7134    3.4841    0.0000 H   0  0  0  0  0  0  0  0  0  0  0  0
    6.4344    2.1737    0.0000 H   0  0  0  0  0  0  0  0  0  0  0  0
    6.9165    2.7782    0.0000 H   0  0  0  0  0  0  0  0  0  0  0  0
    5.0335    5.1394    0.0000 H   0  0  0  0  0  0  0  0  0  0  0  0
    4.3369    4.8040    0.0000 H   0  0  0  0  0  0  0  0  0  0  0  0
    7.0776    3.4841    0.0000 H   0  0  0  0  0  0  0  0  0  0  0  0
    6.9056    4.2378    0.0000 H   0  0  0  0  0  0  0  0  0  0  0  0
    6.4541    4.8040    0.0000 H   0  0  0  0  0  0  0  0  0  0  0  0
    5.7575    5.1394    0.0000 H   0  0  0  0  0  0  0  0  0  0  0  0
    4.7849    1.4520    0.0000 H   0  0  0  0  0  0  0  0  0  0  0  0
    5.1834    0.7617    0.0000 H   0  0  0  0  0  0  0  0  0  0  0  0
    2.6894    3.1331    0.0000 H   0  0  0  0  0  0  0  0  0  0  0  0
    4.4389    0.9394    0.0000 H   0  0  0  0  0  0  0  0  0  0  0  0
    5.9053   -0.5651    0.0000 H   0  0  0  0  0  0  0  0  0  0  0  0
    7.3040    1.8575    0.0000 H   0  0  0  0  0  0  0  0  0  0  0  0
    8.4608    0.5727    0.0000 H   0  0  0  0  0  0  0  0  0  0  0  0
    1.4229    2.1231    0.0000 H   0  0  0  0  0  0  0  0  0  0  0  0
    3.1723   -0.0707    0.0000 H   0  0  0  0  0  0  0  0  0  0  0  0
    1.6643    0.5212    0.0000 H   0  0  0  0  0  0  0  0  0  0  0  0
    9.1099   -0.8746    0.0000 H   0  0  0  0  0  0  0  0  0  0  0  0
    8.8166   -3.6652    0.0000 H   0  0  0  0  0  0  0  0  0  0  0  0
    7.2055   -3.4958    0.0000 H   0  0  0  0  0  0  0  0  0  0  0  0
   10.9464   -3.5623    0.0000 H   0  0  0  0  0  0  0  0  0  0  0  0
   11.5912   -4.0308    0.0000 H   0  0  0  0  0  0  0  0  0  0  0  0
   12.1597   -2.1358    0.0000 H   0  0  0  0  0  0  0  0  0  0  0  0
   12.2430   -1.3431    0.0000 H   0  0  0  0  0  0  0  0  0  0  0  0
   11.8887   -0.5241    0.0000 H   0  0  0  0  0  0  0  0  0  0  0  0
   11.0701   -0.2098    0.0000 H   0  0  0  0  0  0  0  0  0  0  0  0
   10.7559   -1.0284    0.0000 H   0  0  0  0  0  0  0  0  0  0  0  0
   12.5848   -4.9320    0.0000 H   0  0  0  0  0  0  0  0  0  0  0  0
   12.8781   -2.1415    0.0000 H   0  0  0  0  0  0  0  0  0  0  0  0
    5.0793   -2.4208    0.0000 H   0  0  0  0  0  0  0  0  0  0  0  0
    5.2164   -3.2868    0.0000 H   0  0  0  0  0  0  0  0  0  0  0  0
    6.0824   -3.1496    0.0000 H   0  0  0  0  0  0  0  0  0  0  0  0
   14.1959   -5.1014    0.0000 H   0  0  0  0  0  0  0  0  0  0  0  0
   14.4892   -2.3108    0.0000 H   0  0  0  0  0  0  0  0  0  0  0  0
   15.1482   -3.7907    0.0000 H   0  0  0  0  0  0  0  0  0  0  0  0
  1  3  2  0  0  0  0
  1  4  2  0  0  0  0
  1  7  1  0  0  0  0
  1 27  1  0  0  0  0
  2 28  1  0  0  0  0
  2 37  1  0  0  0  0
  5  8  1  0  0  0  0
  5 10  1  0  0  0  0
  5 14  1  0  0  0  0
  6 16  1  0  0  0  0
  6 20  1  0  0  0  0
  6 56  1  0  0  0  0
  7 31  1  0  0  0  0
  7 32  1  0  0  0  0
  8  9  1  0  0  0  0
  8 15  1  0  0  0  0
  8 41  1  0  0  0  0
  9 11  1  0  0  0  0
  9 42  1  0  0  0  0
  9 43  1  0  0  0  0
 10 12  1  0  0  0  0
 10 44  1  0  0  0  0
 10 45  1  0  0  0  0
 11 13  1  0  0  0  0
 11 46  1  0  0  0  0
 11 47  1  0  0  0  0
 12 13  1  0  0  0  0
 12 48  1  0  0  0  0
 12 49  1  0  0  0  0
 13 50  1  0  0  0  0
 13 51  1  0  0  0  0
 14 16  1  0  0  0  0
 14 52  1  0  0  0  0
 14 53  1  0  0  0  0
 15 17  2  0  0  0  0
 15 18  1  0  0  0  0
 16 19  2  0  0  0  0
 17 22  1  0  0  0  0
 17 54  1  0  0  0  0
 18 23  2  0  0  0  0
 18 55  1  0  0  0  0
 19 21  1  0  0  0  0
 19 57  1  0  0  0  0
 20 21  2  0  0  0  0
 20 24  1  0  0  0  0
 21 58  1  0  0  0  0
 22 25  2  0  0  0  0
 22 59  1  0  0  0  0
 23 25  1  0  0  0  0
 23 60  1  0  0  0  0
 24 26  1  0  0  0  0
 24 28  2  0  0  0  0
 25 61  1  0  0  0  0
 26 27  2  0  0  0  0
 26 62  1  0  0  0  0
 27 29  1  0  0  0  0
 28 30  1  0  0  0  0
 29 30  2  0  0  0  0
 29 63  1  0  0  0  0
 30 64  1  0  0  0  0
 31 33  1  0  0  0  0
 31 65  1  0  0  0  0
 31 66  1  0  0  0  0
 32 34  1  0  0  0  0
 32 67  1  0  0  0  0
 32 68  1  0  0  0  0
 33 35  2  0  0  0  0
 33 36  1  0  0  0  0
 34 69  1  0  0  0  0
 34 70  1  0  0  0  0
 34 71  1  0  0  0  0
 35 38  1  0  0  0  0
 35 72  1  0  0  0  0
 36 39  2  0  0  0  0
 36 73  1  0  0  0  0
 37 74  1  0  0  0  0
 37 75  1  0  0  0  0
 37 76  1  0  0  0  0
 38 40  2  0  0  0  0
 38 77  1  0  0  0  0
 39 40  1  0  0  0  0
 39 78  1  0  0  0  0
 40 79  1  0  0  0  0
M  END
> <PUBCHEM_COMPOUND_CID>
44363215

> <PUBCHEM_COMPOUND_CANONICALIZED>
1

> <PUBCHEM_CACTVS_COMPLEXITY>
852

> <PUBCHEM_CACTVS_HBOND_ACCEPTOR>
5

> <PUBCHEM_CACTVS_HBOND_DONOR>
1

> <PUBCHEM_CACTVS_ROTATABLE_BOND>
10

> <PUBCHEM_CACTVS_SUBSKEYS>
AAADcfB/MABAAAAAAAAAAAAAAAAAAWAAAAAwYMAABYAAAAAB1AAAHgQQQAAADCzB3gYyh5PJlAKgAyRiRHDCiDAhIiAImTg+bJgMZuLEsZuUMChm0BHI6AeQwOAOAIAAgAAIAAABAAEAABAAAAAAAAAAAA==

> <PUBCHEM_IUPAC_OPENEYE_NAME>
N-benzyl-N-ethyl-4-methoxy-3-[5-[(2-phenylazepan-1-yl)methyl]-1H-pyrrol-2-yl]benzenesulfonamide

> <PUBCHEM_IUPAC_CAS_NAME>
N-ethyl-4-methoxy-3-[5-[(2-phenyl-1-azepanyl)methyl]-1H-pyrrol-2-yl]-N-(phenylmethyl)benzenesulfonamide

> <PUBCHEM_IUPAC_NAME_MARKUP>
<I>N</I>-benzyl-<I>N</I>-ethyl-4-methoxy-3-[5-[(2-phenylazepan-1-yl)methyl]-1<I>H</I>-pyrrol-2-yl]benzenesulfonamide

> <PUBCHEM_IUPAC_NAME>
N-benzyl-N-ethyl-4-methoxy-3-[5-[(2-phenylazepan-1-yl)methyl]-1H-pyrrol-2-yl]benzenesulfonamide

> <PUBCHEM_IUPAC_SYSTEMATIC_NAME>
N-ethyl-4-methoxy-3-[5-[(2-phenylazepan-1-yl)methyl]-1H-pyrrol-2-yl]-N-(phenylmethyl)benzenesulfonamide

> <PUBCHEM_IUPAC_TRADITIONAL_NAME>
N-benzyl-N-ethyl-4-methoxy-3-[5-[(2-phenylazepan-1-yl)methyl]-1H-pyrrol-2-yl]benzenesulfonamide

> <PUBCHEM_IUPAC_INCHI>
InChI=1S/C33H39N3O3S/c1-3-36(24-26-13-7-4-8-14-26)40(37,38)29-19-21-33(39-2)30(23-29)31-20-18-28(34-31)25-35-22-12-6-11-17-32(35)27-15-9-5-10-16-27/h4-5,7-10,13-16,18-21,23,32,34H,3,6,11-12,17,22,24-25H2,1-2H3

> <PUBCHEM_IUPAC_INCHIKEY>
ZFGRMWBYHAUOCE-UHFFFAOYSA-N

> <PUBCHEM_XLOGP3_AA>
6

> <PUBCHEM_EXACT_MASS>
557.27121329

> <PUBCHEM_MOLECULAR_FORMULA>
C33H39N3O3S

> <PUBCHEM_MOLECULAR_WEIGHT>
557.7

> <PUBCHEM_OPENEYE_CAN_SMILES>
CCN(CC1=CC=CC=C1)S(=O)(=O)C2=CC(=C(C=C2)OC)C3=CC=C(N3)CN4CCCCCC4C5=CC=CC=C5

> <PUBCHEM_OPENEYE_ISO_SMILES>
CCN(CC1=CC=CC=C1)S(=O)(=O)C2=CC(=C(C=C2)OC)C3=CC=C(N3)CN4CCCCCC4C5=CC=CC=C5

> <PUBCHEM_CACTVS_TPSA>
74

> <PUBCHEM_MONOISOTOPIC_WEIGHT>
557.27121329

> <PUBCHEM_TOTAL_CHARGE>
0

> <PUBCHEM_HEAVY_ATOM_COUNT>
40

> <PUBCHEM_ATOM_DEF_STEREO_COUNT>
0

> <PUBCHEM_ATOM_UDEF_STEREO_COUNT>
1

> <PUBCHEM_BOND_DEF_STEREO_COUNT>
0

> <PUBCHEM_BOND_UDEF_STEREO_COUNT>
0

> <PUBCHEM_ISOTOPIC_ATOM_COUNT>
0

> <PUBCHEM_COMPONENT_COUNT>
1

> <PUBCHEM_CACTVS_TAUTO_COUNT>
-1

> <PUBCHEM_COORDINATE_TYPE>
1
5
255

> <PUBCHEM_BONDANNOTATIONS>
15  17  8
15  18  8
16  19  8
17  22  8
18  23  8
19  21  8
20  21  8
22  25  8
23  25  8
24  26  8
24  28  8
26  27  8
27  29  8
28  30  8
29  30  8
33  35  8
33  36  8
35  38  8
36  39  8
38  40  8
39  40  8
6  16  8
6  20  8
8  15  3

$$$$
