164627635
  -OEChem-09292322432D

 57 61  0     1  0  0  0  0  0999 V2000
    5.9237    4.6659    0.0000 O   0  0  0  0  0  0  0  0  0  0  0  0
    8.5497    3.1313    0.0000 O   0  0  0  0  0  0  0  0  0  0  0  0
    2.5061   -1.4432    0.0000 O   0  0  0  0  0  0  0  0  0  0  0  0
    5.9237    2.5966    0.0000 N   0  0  3  0  0  0  0  0  0  0  0  0
    4.2381   -1.4232    0.0000 N   0  0  0  0  0  0  0  0  0  0  0  0
    2.5915   -3.5260    0.0000 N   0  0  0  0  0  0  0  0  0  0  0  0
    6.8177    3.1313    0.0000 C   0  0  1  0  0  0  0  0  0  0  0  0
    6.8177    4.1313    0.0000 C   0  0  1  0  0  0  0  0  0  0  0  0
    5.0177    3.1104    0.0000 C   0  0  0  0  0  0  0  0  0  0  0  0
    7.6837    2.6313    0.0000 C   0  0  0  0  0  0  0  0  0  0  0  0
    5.9353    1.5967    0.0000 C   0  0  0  0  0  0  0  0  0  0  0  0
    7.6837    4.6313    0.0000 C   0  0  0  0  0  0  0  0  0  0  0  0
    5.0177    4.1521    0.0000 C   0  0  0  0  0  0  0  0  0  0  0  0
    5.0751    1.0867    0.0000 C   0  0  0  0  0  0  0  0  0  0  0  0
    8.5497    4.1313    0.0000 C   0  0  0  0  0  0  0  0  0  0  0  0
    5.0867    0.0868    0.0000 C   0  0  0  0  0  0  0  0  0  0  0  0
    7.6676    5.6728    0.0000 C   0  0  0  0  0  0  0  0  0  0  0  0
    9.4597    4.6381    0.0000 C   0  0  0  0  0  0  0  0  0  0  0  0
    4.2265   -0.4232    0.0000 C   0  0  0  0  0  0  0  0  0  0  0  0
    8.5657    6.2005    0.0000 C   0  0  0  0  0  0  0  0  0  0  0  0
    9.4678    5.6797    0.0000 C   0  0  0  0  0  0  0  0  0  0  0  0
    3.3779   -1.9331    0.0000 C   0  0  0  0  0  0  0  0  0  0  0  0
    3.3894   -2.9331    0.0000 C   0  0  0  0  0  0  0  0  0  0  0  0
    4.2009   -3.5073    0.0000 C   0  0  0  0  0  0  0  0  0  0  0  0
    2.9072   -4.4686    0.0000 C   0  0  0  0  0  0  0  0  0  0  0  0
    3.9071   -4.4570    0.0000 C   0  0  0  0  0  0  0  0  0  0  0  0
    2.4172   -5.3403    0.0000 C   0  0  0  0  0  0  0  0  0  0  0  0
    4.4171   -5.3172    0.0000 C   0  0  0  0  0  0  0  0  0  0  0  0
    2.9272   -6.2005    0.0000 C   0  0  0  0  0  0  0  0  0  0  0  0
    3.9271   -6.1890    0.0000 C   0  0  0  0  0  0  0  0  0  0  0  0
    6.8242    2.2813    0.0000 H   0  0  0  0  0  0  0  0  0  0  0  0
    6.8242    4.9812    0.0000 H   0  0  0  0  0  0  0  0  0  0  0  0
    4.4068    3.2165    0.0000 H   0  0  0  0  0  0  0  0  0  0  0  0
    4.8086    2.5268    0.0000 H   0  0  0  0  0  0  0  0  0  0  0  0
    7.2852    2.1563    0.0000 H   0  0  0  0  0  0  0  0  0  0  0  0
    8.0822    2.1563    0.0000 H   0  0  0  0  0  0  0  0  0  0  0  0
    6.1541    1.0166    0.0000 H   0  0  0  0  0  0  0  0  0  0  0  0
    6.5446    1.7114    0.0000 H   0  0  0  0  0  0  0  0  0  0  0  0
    4.8086    4.7358    0.0000 H   0  0  0  0  0  0  0  0  0  0  0  0
    4.4068    4.0460    0.0000 H   0  0  0  0  0  0  0  0  0  0  0  0
    4.8564    1.6668    0.0000 H   0  0  0  0  0  0  0  0  0  0  0  0
    4.4658    0.9720    0.0000 H   0  0  0  0  0  0  0  0  0  0  0  0
    5.3055   -0.4934    0.0000 H   0  0  0  0  0  0  0  0  0  0  0  0
    5.6960    0.2015    0.0000 H   0  0  0  0  0  0  0  0  0  0  0  0
    7.1272    5.9765    0.0000 H   0  0  0  0  0  0  0  0  0  0  0  0
    9.9930    4.3219    0.0000 H   0  0  0  0  0  0  0  0  0  0  0  0
    4.0077    0.1569    0.0000 H   0  0  0  0  0  0  0  0  0  0  0  0
    3.6172   -0.5379    0.0000 H   0  0  0  0  0  0  0  0  0  0  0  0
    8.5633    6.8205    0.0000 H   0  0  0  0  0  0  0  0  0  0  0  0
   10.0059    5.9876    0.0000 H   0  0  0  0  0  0  0  0  0  0  0  0
    4.7786   -1.7269    0.0000 H   0  0  0  0  0  0  0  0  0  0  0  0
    2.0000   -3.3402    0.0000 H   0  0  0  0  0  0  0  0  0  0  0  0
    4.7879   -3.3079    0.0000 H   0  0  0  0  0  0  0  0  0  0  0  0
    1.7972   -5.3475    0.0000 H   0  0  0  0  0  0  0  0  0  0  0  0
    5.0370   -5.3100    0.0000 H   0  0  0  0  0  0  0  0  0  0  0  0
    2.6234   -6.7410    0.0000 H   0  0  0  0  0  0  0  0  0  0  0  0
    4.2433   -6.7223    0.0000 H   0  0  0  0  0  0  0  0  0  0  0  0
  1  8  1  0  0  0  0
  1 13  1  0  0  0  0
  2 10  1  0  0  0  0
  2 15  1  0  0  0  0
  3 22  2  0  0  0  0
  4  7  1  0  0  0  0
  4  9  1  0  0  0  0
  4 11  1  0  0  0  0
  5 19  1  0  0  0  0
  5 22  1  0  0  0  0
  5 51  1  0  0  0  0
  6 23  1  0  0  0  0
  6 25  1  0  0  0  0
  6 52  1  0  0  0  0
  7  8  1  0  0  0  0
  7 10  1  0  0  0  0
  7 31  1  6  0  0  0
  8 12  1  0  0  0  0
  8 32  1  1  0  0  0
  9 13  1  0  0  0  0
  9 33  1  0  0  0  0
  9 34  1  0  0  0  0
 10 35  1  0  0  0  0
 10 36  1  0  0  0  0
 11 14  1  0  0  0  0
 11 37  1  0  0  0  0
 11 38  1  0  0  0  0
 12 15  1  0  0  0  0
 12 17  2  0  0  0  0
 13 39  1  0  0  0  0
 13 40  1  0  0  0  0
 14 16  1  0  0  0  0
 14 41  1  0  0  0  0
 14 42  1  0  0  0  0
 15 18  2  0  0  0  0
 16 19  1  0  0  0  0
 16 43  1  0  0  0  0
 16 44  1  0  0  0  0
 17 20  1  0  0  0  0
 17 45  1  0  0  0  0
 18 21  1  0  0  0  0
 18 46  1  0  0  0  0
 19 47  1  0  0  0  0
 19 48  1  0  0  0  0
 20 21  2  0  0  0  0
 20 49  1  0  0  0  0
 21 50  1  0  0  0  0
 22 23  1  0  0  0  0
 23 24  2  0  0  0  0
 24 26  1  0  0  0  0
 24 53  1  0  0  0  0
 25 26  1  0  0  0  0
 25 27  2  0  0  0  0
 26 28  2  0  0  0  0
 27 29  1  0  0  0  0
 27 54  1  0  0  0  0
 28 30  1  0  0  0  0
 28 55  1  0  0  0  0
 29 30  2  0  0  0  0
 29 56  1  0  0  0  0
 30 57  1  0  0  0  0
M  END
> <PUBCHEM_COMPOUND_CID>
164627635

> <PUBCHEM_COMPOUND_CANONICALIZED>
1

> <PUBCHEM_CACTVS_COMPLEXITY>
588

> <PUBCHEM_CACTVS_HBOND_ACCEPTOR>
4

> <PUBCHEM_CACTVS_HBOND_DONOR>
2

> <PUBCHEM_CACTVS_ROTATABLE_BOND>
6

> <PUBCHEM_CACTVS_SUBSKEYS>
AAADceB7MAAAAAAAAAAAAAAAAAAAAWAAAAA8aIEAAAAAAFix9AAAHgAQAAAADDzhngYwxvPJlACoAyVyVACCiCAnIiAImaG+bNgOZ/LEtbuXOSjl1hHY6Ye4yaCeAAAAAAAKAAAAAAAAABQAAAAAAAAAAA==

> <PUBCHEM_IUPAC_OPENEYE_NAME>
N-[4-[(4aR,10bR)-3,4a,5,10b-tetrahydro-2H-chromeno[4,3-b][1,4]oxazin-4-yl]butyl]-1H-indole-2-carboxamide

> <PUBCHEM_IUPAC_CAS_NAME>
N-[4-[(4aR,10bR)-3,4a,5,10b-tetrahydro-2H-[1]benzopyrano[4,3-b][1,4]oxazin-4-yl]butyl]-1H-indole-2-carboxamide

> <PUBCHEM_IUPAC_NAME_MARKUP>
<I>N</I>-[4-[(4<I>a</I><I>R</I>,10<I>b</I><I>R</I>)-3,4<I>a</I>,5,10<I>b</I>-tetrahydro-2<I>H</I>-chromeno[4,3-b][1,4]oxazin-4-yl]butyl]-1<I>H</I>-indole-2-carboxamide

> <PUBCHEM_IUPAC_NAME>
N-[4-[(4aR,10bR)-3,4a,5,10b-tetrahydro-2H-chromeno[4,3-b][1,4]oxazin-4-yl]butyl]-1H-indole-2-carboxamide

> <PUBCHEM_IUPAC_SYSTEMATIC_NAME>
N-[4-[(4aR,10bR)-3,4a,5,10b-tetrahydro-2H-chromeno[4,3-b][1,4]oxazin-4-yl]butyl]-1H-indole-2-carboxamide

> <PUBCHEM_IUPAC_TRADITIONAL_NAME>
N-[4-[(4aR,10bR)-3,4a,5,10b-tetrahydro-2H-chromeno[4,3-b][1,4]oxazin-4-yl]butyl]-1H-indole-2-carboxamide

> <PUBCHEM_IUPAC_INCHI>
InChI=1S/C24H27N3O3/c28-24(20-15-17-7-1-3-9-19(17)26-20)25-11-5-6-12-27-13-14-29-23-18-8-2-4-10-22(18)30-16-21(23)27/h1-4,7-10,15,21,23,26H,5-6,11-14,16H2,(H,25,28)/t21-,23-/m1/s1

> <PUBCHEM_IUPAC_INCHIKEY>
ULWSKYKKYCILKM-FYYLOGMGSA-N

> <PUBCHEM_XLOGP3_AA>
3.4

> <PUBCHEM_EXACT_MASS>
405.20524173

> <PUBCHEM_MOLECULAR_FORMULA>
C24H27N3O3

> <PUBCHEM_MOLECULAR_WEIGHT>
405.5

> <PUBCHEM_OPENEYE_CAN_SMILES>
C1COC2C(N1CCCCNC(=O)C3=CC4=CC=CC=C4N3)COC5=CC=CC=C25

> <PUBCHEM_OPENEYE_ISO_SMILES>
C1CO[C@H]2[C@H](N1CCCCNC(=O)C3=CC4=CC=CC=C4N3)COC5=CC=CC=C25

> <PUBCHEM_CACTVS_TPSA>
66.6

> <PUBCHEM_MONOISOTOPIC_WEIGHT>
405.20524173

> <PUBCHEM_TOTAL_CHARGE>
0

> <PUBCHEM_HEAVY_ATOM_COUNT>
30

> <PUBCHEM_ATOM_DEF_STEREO_COUNT>
2

> <PUBCHEM_ATOM_UDEF_STEREO_COUNT>
0

> <PUBCHEM_BOND_DEF_STEREO_COUNT>
0

> <PUBCHEM_BOND_UDEF_STEREO_COUNT>
0

> <PUBCHEM_ISOTOPIC_ATOM_COUNT>
0

> <PUBCHEM_COMPONENT_COUNT>
1

> <PUBCHEM_CACTVS_TAUTO_COUNT>
-1

> <PUBCHEM_COORDINATE_TYPE>
1
5
255

> <PUBCHEM_BONDANNOTATIONS>
12  15  8
12  17  8
15  18  8
17  20  8
18  21  8
20  21  8
23  24  8
24  26  8
25  26  8
25  27  8
26  28  8
27  29  8
28  30  8
29  30  8
6  23  8
6  25  8
7  31  6
8  32  5

$$$$
