127040382
  -OEChem-09292322472D

 65 69  0     1  0  0  0  0  0999 V2000
    3.9444   -0.5198    0.0000 S   0  0  0  0  0  0  0  0  0  0  0  0
    5.4349    9.2156    0.0000 F   0  0  0  0  0  0  0  0  0  0  0  0
    4.1147    8.7088    0.0000 F   0  0  0  0  0  0  0  0  0  0  0  0
    5.9418    7.8953    0.0000 F   0  0  0  0  0  0  0  0  0  0  0  0
    2.4067    4.5433    0.0000 O   0  0  0  0  0  0  0  0  0  0  0  0
    4.5322   -8.4066    0.0000 O   0  0  0  0  0  0  0  0  0  0  0  0
    3.5823    2.9253    0.0000 N   0  0  3  0  0  0  0  0  0  0  0  0
    4.2232   -2.2799    0.0000 N   0  0  0  0  0  0  0  0  0  0  0  0
    5.5322   -1.3289    0.0000 N   0  0  0  0  0  0  0  0  0  0  0  0
    5.8412   -2.2799    0.0000 N   0  0  0  0  0  0  0  0  0  0  0  0
    5.8412   -7.4555    0.0000 N   0  0  0  0  0  0  0  0  0  0  0  0
    4.2232   -7.4555    0.0000 N   0  0  0  0  0  0  0  0  0  0  0  0
    3.9890    3.8388    0.0000 C   0  0  0  0  0  0  0  0  0  0  0  0
    3.4013    4.6478    0.0000 C   0  0  3  0  0  0  0  0  0  0  0  0
    2.5878    2.8208    0.0000 C   0  0  0  0  0  0  0  0  0  0  0  0
    4.1701    2.1163    0.0000 C   0  0  0  0  0  0  0  0  0  0  0  0
    2.0000    3.6298    0.0000 C   0  0  0  0  0  0  0  0  0  0  0  0
    3.8080    5.5614    0.0000 C   0  0  0  0  0  0  0  0  0  0  0  0
    3.7634    1.2027    0.0000 C   0  0  0  0  0  0  0  0  0  0  0  0
    4.3511    0.3937    0.0000 C   0  0  0  0  0  0  0  0  0  0  0  0
    3.2202    6.3704    0.0000 C   0  0  0  0  0  0  0  0  0  0  0  0
    4.8025    5.6659    0.0000 C   0  0  0  0  0  0  0  0  0  0  0  0
    3.6270    7.2840    0.0000 C   0  0  0  0  0  0  0  0  0  0  0  0
    5.2092    6.5795    0.0000 C   0  0  0  0  0  0  0  0  0  0  0  0
    4.6215    7.3885    0.0000 C   0  0  0  0  0  0  0  0  0  0  0  0
    4.5322   -1.3289    0.0000 C   0  0  0  0  0  0  0  0  0  0  0  0
    5.0282    8.3020    0.0000 C   0  0  0  0  0  0  0  0  0  0  0  0
    5.0322   -2.8677    0.0000 C   0  0  0  0  0  0  0  0  0  0  0  0
    5.0322   -3.8677    0.0000 C   0  0  0  0  0  0  0  0  0  0  0  0
    3.2721   -2.5889    0.0000 C   0  0  0  0  0  0  0  0  0  0  0  0
    4.1662   -4.3677    0.0000 C   0  0  0  0  0  0  0  0  0  0  0  0
    5.8982   -4.3677    0.0000 C   0  0  0  0  0  0  0  0  0  0  0  0
    5.0322   -5.8677    0.0000 C   0  0  0  0  0  0  0  0  0  0  0  0
    4.1662   -5.3677    0.0000 C   0  0  0  0  0  0  0  0  0  0  0  0
    5.8982   -5.3677    0.0000 C   0  0  0  0  0  0  0  0  0  0  0  0
    5.0322   -6.8677    0.0000 C   0  0  0  0  0  0  0  0  0  0  0  0
    5.5322   -8.4066    0.0000 C   0  0  0  0  0  0  0  0  0  0  0  0
    6.1200   -9.2156    0.0000 C   0  0  0  0  0  0  0  0  0  0  0  0
    4.5030    3.4921    0.0000 H   0  0  0  0  0  0  0  0  0  0  0  0
    4.4197    4.2848    0.0000 H   0  0  0  0  0  0  0  0  0  0  0  0
    4.0179    4.7126    0.0000 H   0  0  0  0  0  0  0  0  0  0  0  0
    2.0305    2.5490    0.0000 H   0  0  0  0  0  0  0  0  0  0  0  0
    2.7587    2.2248    0.0000 H   0  0  0  0  0  0  0  0  0  0  0  0
    4.6841    1.7696    0.0000 H   0  0  0  0  0  0  0  0  0  0  0  0
    4.6008    2.5622    0.0000 H   0  0  0  0  0  0  0  0  0  0  0  0
    1.4860    3.9765    0.0000 H   0  0  0  0  0  0  0  0  0  0  0  0
    1.5693    3.1838    0.0000 H   0  0  0  0  0  0  0  0  0  0  0  0
    3.2494    1.5494    0.0000 H   0  0  0  0  0  0  0  0  0  0  0  0
    3.3327    0.7567    0.0000 H   0  0  0  0  0  0  0  0  0  0  0  0
    4.8651    0.0470    0.0000 H   0  0  0  0  0  0  0  0  0  0  0  0
    4.7818    0.8397    0.0000 H   0  0  0  0  0  0  0  0  0  0  0  0
    2.6036    6.3056    0.0000 H   0  0  0  0  0  0  0  0  0  0  0  0
    5.1669    5.1643    0.0000 H   0  0  0  0  0  0  0  0  0  0  0  0
    3.2625    7.7855    0.0000 H   0  0  0  0  0  0  0  0  0  0  0  0
    5.8259    6.6443    0.0000 H   0  0  0  0  0  0  0  0  0  0  0  0
    3.0805   -1.9993    0.0000 H   0  0  0  0  0  0  0  0  0  0  0  0
    2.6825   -2.7805    0.0000 H   0  0  0  0  0  0  0  0  0  0  0  0
    3.4637   -3.1786    0.0000 H   0  0  0  0  0  0  0  0  0  0  0  0
    3.6292   -4.0577    0.0000 H   0  0  0  0  0  0  0  0  0  0  0  0
    6.4352   -4.0577    0.0000 H   0  0  0  0  0  0  0  0  0  0  0  0
    3.6292   -5.6777    0.0000 H   0  0  0  0  0  0  0  0  0  0  0  0
    6.4352   -5.6777    0.0000 H   0  0  0  0  0  0  0  0  0  0  0  0
    5.6184   -9.5800    0.0000 H   0  0  0  0  0  0  0  0  0  0  0  0
    6.4844   -9.7172    0.0000 H   0  0  0  0  0  0  0  0  0  0  0  0
    6.6216   -8.8511    0.0000 H   0  0  0  0  0  0  0  0  0  0  0  0
  1 20  1  0  0  0  0
  1 26  1  0  0  0  0
  2 27  1  0  0  0  0
  3 27  1  0  0  0  0
  4 27  1  0  0  0  0
  5 14  1  0  0  0  0
  5 17  1  0  0  0  0
  6 12  1  0  0  0  0
  6 37  1  0  0  0  0
  7 13  1  0  0  0  0
  7 15  1  0  0  0  0
  7 16  1  0  0  0  0
  8 26  1  0  0  0  0
  8 28  1  0  0  0  0
  8 30  1  0  0  0  0
  9 10  1  0  0  0  0
  9 26  2  0  0  0  0
 10 28  2  0  0  0  0
 11 36  1  0  0  0  0
 11 37  2  0  0  0  0
 12 36  2  0  0  0  0
 13 14  1  0  0  0  0
 13 39  1  0  0  0  0
 13 40  1  0  0  0  0
 14 18  1  0  0  0  0
 14 41  1  0  0  0  0
 15 17  1  0  0  0  0
 15 42  1  0  0  0  0
 15 43  1  0  0  0  0
 16 19  1  0  0  0  0
 16 44  1  0  0  0  0
 16 45  1  0  0  0  0
 17 46  1  0  0  0  0
 17 47  1  0  0  0  0
 18 21  2  0  0  0  0
 18 22  1  0  0  0  0
 19 20  1  0  0  0  0
 19 48  1  0  0  0  0
 19 49  1  0  0  0  0
 20 50  1  0  0  0  0
 20 51  1  0  0  0  0
 21 23  1  0  0  0  0
 21 52  1  0  0  0  0
 22 24  2  0  0  0  0
 22 53  1  0  0  0  0
 23 25  2  0  0  0  0
 23 54  1  0  0  0  0
 24 25  1  0  0  0  0
 24 55  1  0  0  0  0
 25 27  1  0  0  0  0
 28 29  1  0  0  0  0
 29 31  2  0  0  0  0
 29 32  1  0  0  0  0
 30 56  1  0  0  0  0
 30 57  1  0  0  0  0
 30 58  1  0  0  0  0
 31 34  1  0  0  0  0
 31 59  1  0  0  0  0
 32 35  2  0  0  0  0
 32 60  1  0  0  0  0
 33 34  2  0  0  0  0
 33 35  1  0  0  0  0
 33 36  1  0  0  0  0
 34 61  1  0  0  0  0
 35 62  1  0  0  0  0
 37 38  1  0  0  0  0
 38 63  1  0  0  0  0
 38 64  1  0  0  0  0
 38 65  1  0  0  0  0
M  END
> <PUBCHEM_COMPOUND_CID>
127040382

> <PUBCHEM_COMPOUND_CANONICALIZED>
1

> <PUBCHEM_CACTVS_COMPLEXITY>
738

> <PUBCHEM_CACTVS_HBOND_ACCEPTOR>
11

> <PUBCHEM_CACTVS_HBOND_DONOR>
0

> <PUBCHEM_CACTVS_ROTATABLE_BOND>
8

> <PUBCHEM_CACTVS_SUBSKEYS>
AAADceB7sYBAAAAAAAAAAAAAAAAAAWLAAAA8YIAAAAAAAAAB9AAAHwQMAAAADBTl2xazEIccFAirAiNyNgCS0AtgALA9yCA4DJiKLqKguRmHMAhkzQOYqAeQwPAOQAAAAAAAAACAAAAAAAAAAAAAAAAAAA==

> <PUBCHEM_IUPAC_OPENEYE_NAME>
4-[3-[[4-methyl-5-[4-(5-methyl-1,2,4-oxadiazol-3-yl)phenyl]-1,2,4-triazol-3-yl]sulfanyl]propyl]-2-[4-(trifluoromethyl)phenyl]morpholine

> <PUBCHEM_IUPAC_CAS_NAME>
4-[3-[[4-methyl-5-[4-(5-methyl-1,2,4-oxadiazol-3-yl)phenyl]-1,2,4-triazol-3-yl]thio]propyl]-2-[4-(trifluoromethyl)phenyl]morpholine

> <PUBCHEM_IUPAC_NAME_MARKUP>
4-[3-[[4-methyl-5-[4-(5-methyl-1,2,4-oxadiazol-3-yl)phenyl]-1,2,4-triazol-3-yl]sulfanyl]propyl]-2-[4-(trifluoromethyl)phenyl]morpholine

> <PUBCHEM_IUPAC_NAME>
4-[3-[[4-methyl-5-[4-(5-methyl-1,2,4-oxadiazol-3-yl)phenyl]-1,2,4-triazol-3-yl]sulfanyl]propyl]-2-[4-(trifluoromethyl)phenyl]morpholine

> <PUBCHEM_IUPAC_SYSTEMATIC_NAME>
4-[3-[[4-methyl-5-[4-(5-methyl-1,2,4-oxadiazol-3-yl)phenyl]-1,2,4-triazol-3-yl]sulfanyl]propyl]-2-[4-(trifluoromethyl)phenyl]morpholine

> <PUBCHEM_IUPAC_TRADITIONAL_NAME>
4-[3-[[4-methyl-5-[4-(5-methyl-1,2,4-oxadiazol-3-yl)phenyl]-1,2,4-triazol-3-yl]thio]propyl]-2-[4-(trifluoromethyl)phenyl]morpholine

> <PUBCHEM_IUPAC_INCHI>
InChI=1S/C26H27F3N6O2S/c1-17-30-23(33-37-17)19-4-6-20(7-5-19)24-31-32-25(34(24)2)38-15-3-12-35-13-14-36-22(16-35)18-8-10-21(11-9-18)26(27,28)29/h4-11,22H,3,12-16H2,1-2H3

> <PUBCHEM_IUPAC_INCHIKEY>
CRCNNTYVVVULMG-UHFFFAOYSA-N

> <PUBCHEM_XLOGP3_AA>
4.6

> <PUBCHEM_EXACT_MASS>
544.18682979

> <PUBCHEM_MOLECULAR_FORMULA>
C26H27F3N6O2S

> <PUBCHEM_MOLECULAR_WEIGHT>
544.6

> <PUBCHEM_OPENEYE_CAN_SMILES>
CC1=NC(=NO1)C2=CC=C(C=C2)C3=NN=C(N3C)SCCCN4CCOC(C4)C5=CC=C(C=C5)C(F)(F)F

> <PUBCHEM_OPENEYE_ISO_SMILES>
CC1=NC(=NO1)C2=CC=C(C=C2)C3=NN=C(N3C)SCCCN4CCOC(C4)C5=CC=C(C=C5)C(F)(F)F

> <PUBCHEM_CACTVS_TPSA>
107

> <PUBCHEM_MONOISOTOPIC_WEIGHT>
544.18682979

> <PUBCHEM_TOTAL_CHARGE>
0

> <PUBCHEM_HEAVY_ATOM_COUNT>
38

> <PUBCHEM_ATOM_DEF_STEREO_COUNT>
0

> <PUBCHEM_ATOM_UDEF_STEREO_COUNT>
1

> <PUBCHEM_BOND_DEF_STEREO_COUNT>
0

> <PUBCHEM_BOND_UDEF_STEREO_COUNT>
0

> <PUBCHEM_ISOTOPIC_ATOM_COUNT>
0

> <PUBCHEM_COMPONENT_COUNT>
1

> <PUBCHEM_CACTVS_TAUTO_COUNT>
-1

> <PUBCHEM_COORDINATE_TYPE>
1
5
255

> <PUBCHEM_BONDANNOTATIONS>
10  28  8
11  36  8
11  37  8
12  36  8
14  18  3
18  21  8
18  22  8
21  23  8
22  24  8
23  25  8
24  25  8
29  31  8
29  32  8
31  34  8
32  35  8
33  34  8
33  35  8
6  12  8
6  37  8
8  26  8
8  28  8
9  10  8
9  26  8

$$$$
