46882050
  -OEChem-09292322022D

 50 52  0     0  0  0  0  0  0999 V2000
    4.4923   -0.5889    0.0000 O   0  0  0  0  0  0  0  0  0  0  0  0
    2.5878   -3.2579    0.0000 O   0  0  0  0  0  0  0  0  0  0  0  0
    7.1184    2.1899    0.0000 N   0  0  0  0  0  0  0  0  0  0  0  0
    6.2524   -0.3101    0.0000 N   0  0  0  0  0  0  0  0  0  0  0  0
    5.7524   -1.8490    0.0000 N   0  0  0  0  0  0  0  0  0  0  0  0
    6.2175    2.6238    0.0000 C   0  0  0  0  0  0  0  0  0  0  0  0
    8.0194    2.6238    0.0000 C   0  0  0  0  0  0  0  0  0  0  0  0
    7.1184    1.1899    0.0000 C   0  0  0  0  0  0  0  0  0  0  0  0
    5.9949    3.5987    0.0000 C   0  0  0  0  0  0  0  0  0  0  0  0
    8.2419    3.5987    0.0000 C   0  0  0  0  0  0  0  0  0  0  0  0
    6.6184    4.3805    0.0000 C   0  0  0  0  0  0  0  0  0  0  0  0
    7.6184    4.3805    0.0000 C   0  0  0  0  0  0  0  0  0  0  0  0
    6.2524    0.6899    0.0000 C   0  0  0  0  0  0  0  0  0  0  0  0
    7.0614   -0.8979    0.0000 C   0  0  0  0  0  0  0  0  0  0  0  0
    6.7524   -1.8490    0.0000 C   0  0  0  0  0  0  0  0  0  0  0  0
    5.4434   -0.8979    0.0000 C   0  0  0  0  0  0  0  0  0  0  0  0
    5.1646   -2.6580    0.0000 C   0  0  0  0  0  0  0  0  0  0  0  0
    4.1701   -2.5534    0.0000 C   0  0  0  0  0  0  0  0  0  0  0  0
    5.5714   -3.5715    0.0000 C   0  0  0  0  0  0  0  0  0  0  0  0
    3.5823   -3.3625    0.0000 C   0  0  0  0  0  0  0  0  0  0  0  0
    4.9836   -4.3805    0.0000 C   0  0  0  0  0  0  0  0  0  0  0  0
    3.9890   -4.2760    0.0000 C   0  0  0  0  0  0  0  0  0  0  0  0
    2.0000   -4.0670    0.0000 C   0  0  0  0  0  0  0  0  0  0  0  0
    5.5975    2.6238    0.0000 H   0  0  0  0  0  0  0  0  0  0  0  0
    6.0795    2.0193    0.0000 H   0  0  0  0  0  0  0  0  0  0  0  0
    8.1574    2.0193    0.0000 H   0  0  0  0  0  0  0  0  0  0  0  0
    8.6394    2.6238    0.0000 H   0  0  0  0  0  0  0  0  0  0  0  0
    7.3305    0.6073    0.0000 H   0  0  0  0  0  0  0  0  0  0  0  0
    7.7290    1.2976    0.0000 H   0  0  0  0  0  0  0  0  0  0  0  0
    5.6084    4.0834    0.0000 H   0  0  0  0  0  0  0  0  0  0  0  0
    5.4363    3.3297    0.0000 H   0  0  0  0  0  0  0  0  0  0  0  0
    8.8005    3.3297    0.0000 H   0  0  0  0  0  0  0  0  0  0  0  0
    8.6285    4.0834    0.0000 H   0  0  0  0  0  0  0  0  0  0  0  0
    6.7564    4.9850    0.0000 H   0  0  0  0  0  0  0  0  0  0  0  0
    6.0598    4.6495    0.0000 H   0  0  0  0  0  0  0  0  0  0  0  0
    8.1770    4.6495    0.0000 H   0  0  0  0  0  0  0  0  0  0  0  0
    7.4805    4.9850    0.0000 H   0  0  0  0  0  0  0  0  0  0  0  0
    6.0404    1.2725    0.0000 H   0  0  0  0  0  0  0  0  0  0  0  0
    5.6418    0.5822    0.0000 H   0  0  0  0  0  0  0  0  0  0  0  0
    7.6278   -1.1501    0.0000 H   0  0  0  0  0  0  0  0  0  0  0  0
    7.3714   -0.3610    0.0000 H   0  0  0  0  0  0  0  0  0  0  0  0
    6.6876   -2.4656    0.0000 H   0  0  0  0  0  0  0  0  0  0  0  0
    7.3588   -1.9779    0.0000 H   0  0  0  0  0  0  0  0  0  0  0  0
    3.9179   -1.9870    0.0000 H   0  0  0  0  0  0  0  0  0  0  0  0
    6.1880   -3.6363    0.0000 H   0  0  0  0  0  0  0  0  0  0  0  0
    5.2357   -4.9469    0.0000 H   0  0  0  0  0  0  0  0  0  0  0  0
    3.6246   -4.7776    0.0000 H   0  0  0  0  0  0  0  0  0  0  0  0
    1.4984   -3.7025    0.0000 H   0  0  0  0  0  0  0  0  0  0  0  0
    1.6356   -4.5685    0.0000 H   0  0  0  0  0  0  0  0  0  0  0  0
    2.5016   -4.4314    0.0000 H   0  0  0  0  0  0  0  0  0  0  0  0
  1 16  2  0  0  0  0
  2 20  1  0  0  0  0
  2 23  1  0  0  0  0
  3  6  1  0  0  0  0
  3  7  1  0  0  0  0
  3  8  1  0  0  0  0
  4 13  1  0  0  0  0
  4 14  1  0  0  0  0
  4 16  1  0  0  0  0
  5 15  1  0  0  0  0
  5 16  1  0  0  0  0
  5 17  1  0  0  0  0
  6  9  1  0  0  0  0
  6 24  1  0  0  0  0
  6 25  1  0  0  0  0
  7 10  1  0  0  0  0
  7 26  1  0  0  0  0
  7 27  1  0  0  0  0
  8 13  1  0  0  0  0
  8 28  1  0  0  0  0
  8 29  1  0  0  0  0
  9 11  1  0  0  0  0
  9 30  1  0  0  0  0
  9 31  1  0  0  0  0
 10 12  1  0  0  0  0
 10 32  1  0  0  0  0
 10 33  1  0  0  0  0
 11 12  1  0  0  0  0
 11 34  1  0  0  0  0
 11 35  1  0  0  0  0
 12 36  1  0  0  0  0
 12 37  1  0  0  0  0
 13 38  1  0  0  0  0
 13 39  1  0  0  0  0
 14 15  1  0  0  0  0
 14 40  1  0  0  0  0
 14 41  1  0  0  0  0
 15 42  1  0  0  0  0
 15 43  1  0  0  0  0
 17 18  2  0  0  0  0
 17 19  1  0  0  0  0
 18 20  1  0  0  0  0
 18 44  1  0  0  0  0
 19 21  2  0  0  0  0
 19 45  1  0  0  0  0
 20 22  2  0  0  0  0
 21 22  1  0  0  0  0
 21 46  1  0  0  0  0
 22 47  1  0  0  0  0
 23 48  1  0  0  0  0
 23 49  1  0  0  0  0
 23 50  1  0  0  0  0
M  END
> <PUBCHEM_COMPOUND_CID>
46882050

> <PUBCHEM_COMPOUND_CANONICALIZED>
1

> <PUBCHEM_CACTVS_COMPLEXITY>
383

> <PUBCHEM_CACTVS_HBOND_ACCEPTOR>
3

> <PUBCHEM_CACTVS_HBOND_DONOR>
0

> <PUBCHEM_CACTVS_ROTATABLE_BOND>
5

> <PUBCHEM_CACTVS_SUBSKEYS>
AAADceB7MAAAAAAAAAAAAAAAAAAAAWAAAAAwAAAABYAAAAABAAAAHgAAAAAACAzBkAYzxoMABACIACRCUACCCAAhIgAIiAAObIiMZiLEsZuUMChuxhvI6CeQUAMAAAAAAgAAAAAAAAAEAAAAAAAAAAAAAA==

> <PUBCHEM_IUPAC_OPENEYE_NAME>
1-[2-(azepan-1-yl)ethyl]-3-(3-methoxyphenyl)imidazolidin-2-one

> <PUBCHEM_IUPAC_CAS_NAME>
1-[2-(1-azepanyl)ethyl]-3-(3-methoxyphenyl)-2-imidazolidinone

> <PUBCHEM_IUPAC_NAME_MARKUP>
1-[2-(azepan-1-yl)ethyl]-3-(3-methoxyphenyl)imidazolidin-2-one

> <PUBCHEM_IUPAC_NAME>
1-[2-(azepan-1-yl)ethyl]-3-(3-methoxyphenyl)imidazolidin-2-one

> <PUBCHEM_IUPAC_SYSTEMATIC_NAME>
1-[2-(azepan-1-yl)ethyl]-3-(3-methoxyphenyl)imidazolidin-2-one

> <PUBCHEM_IUPAC_TRADITIONAL_NAME>
1-[2-(azepan-1-yl)ethyl]-3-(3-methoxyphenyl)-2-imidazolidinone

> <PUBCHEM_IUPAC_INCHI>
InChI=1S/C18H27N3O2/c1-23-17-8-6-7-16(15-17)21-14-13-20(18(21)22)12-11-19-9-4-2-3-5-10-19/h6-8,15H,2-5,9-14H2,1H3

> <PUBCHEM_IUPAC_INCHIKEY>
ULMBXLAVXIEGRS-UHFFFAOYSA-N

> <PUBCHEM_XLOGP3_AA>
2.3

> <PUBCHEM_EXACT_MASS>
317.21032711

> <PUBCHEM_MOLECULAR_FORMULA>
C18H27N3O2

> <PUBCHEM_MOLECULAR_WEIGHT>
317.4

> <PUBCHEM_OPENEYE_CAN_SMILES>
COC1=CC=CC(=C1)N2CCN(C2=O)CCN3CCCCCC3

> <PUBCHEM_OPENEYE_ISO_SMILES>
COC1=CC=CC(=C1)N2CCN(C2=O)CCN3CCCCCC3

> <PUBCHEM_CACTVS_TPSA>
36

> <PUBCHEM_MONOISOTOPIC_WEIGHT>
317.21032711

> <PUBCHEM_TOTAL_CHARGE>
0

> <PUBCHEM_HEAVY_ATOM_COUNT>
23

> <PUBCHEM_ATOM_DEF_STEREO_COUNT>
0

> <PUBCHEM_ATOM_UDEF_STEREO_COUNT>
0

> <PUBCHEM_BOND_DEF_STEREO_COUNT>
0

> <PUBCHEM_BOND_UDEF_STEREO_COUNT>
0

> <PUBCHEM_ISOTOPIC_ATOM_COUNT>
0

> <PUBCHEM_COMPONENT_COUNT>
1

> <PUBCHEM_CACTVS_TAUTO_COUNT>
-1

> <PUBCHEM_COORDINATE_TYPE>
1
5
255

> <PUBCHEM_BONDANNOTATIONS>
17  18  8
17  19  8
18  20  8
19  21  8
20  22  8
21  22  8

$$$$
