44406895
  -OEChem-09292322272D

 61 63  0     0  0  0  0  0  0999 V2000
    4.5981    5.4330    0.0000 Cl  0  0  0  0  0  0  0  0  0  0  0  0
    2.0000   -6.0670    0.0000 F   0  0  0  0  0  0  0  0  0  0  0  0
    2.3660   -4.7010    0.0000 F   0  0  0  0  0  0  0  0  0  0  0  0
    3.3660   -6.4330    0.0000 F   0  0  0  0  0  0  0  0  0  0  0  0
    8.0622    3.4330    0.0000 O   0  0  0  0  0  0  0  0  0  0  0  0
    6.3301    6.4330    0.0000 O   0  0  0  0  0  0  0  0  0  0  0  0
    4.5981   -0.5670    0.0000 N   0  0  0  0  0  0  0  0  0  0  0  0
    4.5981   -2.5670    0.0000 N   0  0  0  0  0  0  0  0  0  0  0  0
    5.4641   -4.0670    0.0000 N   0  0  0  0  0  0  0  0  0  0  0  0
    6.3301    3.4330    0.0000 N   0  0  0  0  0  0  0  0  0  0  0  0
    4.5981   -5.5670    0.0000 N   0  0  0  0  0  0  0  0  0  0  0  0
    7.1962    4.9330    0.0000 N   0  0  0  0  0  0  0  0  0  0  0  0
    3.7320   -1.0670    0.0000 C   0  0  0  0  0  0  0  0  0  0  0  0
    5.4641   -1.0670    0.0000 C   0  0  0  0  0  0  0  0  0  0  0  0
    3.7320   -2.0670    0.0000 C   0  0  0  0  0  0  0  0  0  0  0  0
    5.4641   -2.0670    0.0000 C   0  0  0  0  0  0  0  0  0  0  0  0
    4.5981    0.4330    0.0000 C   0  0  0  0  0  0  0  0  0  0  0  0
    5.4641    0.9330    0.0000 C   0  0  0  0  0  0  0  0  0  0  0  0
    4.5981   -3.5670    0.0000 C   0  0  0  0  0  0  0  0  0  0  0  0
    5.4641    1.9330    0.0000 C   0  0  0  0  0  0  0  0  0  0  0  0
    6.3301   -5.5670    0.0000 C   0  0  0  0  0  0  0  0  0  0  0  0
    6.3301    2.4330    0.0000 C   0  0  0  0  0  0  0  0  0  0  0  0
    5.4641   -5.0670    0.0000 C   0  0  0  0  0  0  0  0  0  0  0  0
    3.7320   -4.0670    0.0000 C   0  0  0  0  0  0  0  0  0  0  0  0
    3.7320   -5.0670    0.0000 C   0  0  0  0  0  0  0  0  0  0  0  0
    7.1962   -6.0670    0.0000 C   0  0  0  0  0  0  0  0  0  0  0  0
    5.8301   -6.4330    0.0000 C   0  0  0  0  0  0  0  0  0  0  0  0
    6.8301   -4.7010    0.0000 C   0  0  0  0  0  0  0  0  0  0  0  0
    2.8660   -5.5670    0.0000 C   0  0  0  0  0  0  0  0  0  0  0  0
    7.1962    3.9330    0.0000 C   0  0  0  0  0  0  0  0  0  0  0  0
    5.4641    3.9330    0.0000 C   0  0  0  0  0  0  0  0  0  0  0  0
    5.4641    4.9330    0.0000 C   0  0  0  0  0  0  0  0  0  0  0  0
    6.3301    5.4330    0.0000 C   0  0  0  0  0  0  0  0  0  0  0  0
    3.5200   -0.4844    0.0000 H   0  0  0  0  0  0  0  0  0  0  0  0
    3.1215   -1.1746    0.0000 H   0  0  0  0  0  0  0  0  0  0  0  0
    6.0747   -1.1746    0.0000 H   0  0  0  0  0  0  0  0  0  0  0  0
    5.6762   -0.4844    0.0000 H   0  0  0  0  0  0  0  0  0  0  0  0
    3.1215   -1.9593    0.0000 H   0  0  0  0  0  0  0  0  0  0  0  0
    3.5200   -2.6496    0.0000 H   0  0  0  0  0  0  0  0  0  0  0  0
    5.6762   -2.6496    0.0000 H   0  0  0  0  0  0  0  0  0  0  0  0
    6.0747   -1.9593    0.0000 H   0  0  0  0  0  0  0  0  0  0  0  0
    4.3860    1.0156    0.0000 H   0  0  0  0  0  0  0  0  0  0  0  0
    3.9875    0.3254    0.0000 H   0  0  0  0  0  0  0  0  0  0  0  0
    5.6762    0.3504    0.0000 H   0  0  0  0  0  0  0  0  0  0  0  0
    6.0747    1.0407    0.0000 H   0  0  0  0  0  0  0  0  0  0  0  0
    5.2520    2.5156    0.0000 H   0  0  0  0  0  0  0  0  0  0  0  0
    4.8535    1.8254    0.0000 H   0  0  0  0  0  0  0  0  0  0  0  0
    6.5422    1.8504    0.0000 H   0  0  0  0  0  0  0  0  0  0  0  0
    6.9407    2.5407    0.0000 H   0  0  0  0  0  0  0  0  0  0  0  0
    3.1951   -3.7570    0.0000 H   0  0  0  0  0  0  0  0  0  0  0  0
    6.8862   -6.6039    0.0000 H   0  0  0  0  0  0  0  0  0  0  0  0
    7.7331   -6.3770    0.0000 H   0  0  0  0  0  0  0  0  0  0  0  0
    7.5062   -5.5300    0.0000 H   0  0  0  0  0  0  0  0  0  0  0  0
    5.2932   -6.1230    0.0000 H   0  0  0  0  0  0  0  0  0  0  0  0
    5.5201   -6.9700    0.0000 H   0  0  0  0  0  0  0  0  0  0  0  0
    6.3671   -6.7430    0.0000 H   0  0  0  0  0  0  0  0  0  0  0  0
    7.3671   -5.0110    0.0000 H   0  0  0  0  0  0  0  0  0  0  0  0
    7.1401   -4.1640    0.0000 H   0  0  0  0  0  0  0  0  0  0  0  0
    6.2932   -4.3910    0.0000 H   0  0  0  0  0  0  0  0  0  0  0  0
    4.9272    3.6230    0.0000 H   0  0  0  0  0  0  0  0  0  0  0  0
    7.7331    5.2430    0.0000 H   0  0  0  0  0  0  0  0  0  0  0  0
  1 32  1  0  0  0  0
  2 29  1  0  0  0  0
  3 29  1  0  0  0  0
  4 29  1  0  0  0  0
  5 30  2  0  0  0  0
  6 33  2  0  0  0  0
  7 13  1  0  0  0  0
  7 14  1  0  0  0  0
  7 17  1  0  0  0  0
  8 15  1  0  0  0  0
  8 16  1  0  0  0  0
  8 19  1  0  0  0  0
  9 19  2  0  0  0  0
  9 23  1  0  0  0  0
 10 22  1  0  0  0  0
 10 30  1  0  0  0  0
 10 31  1  0  0  0  0
 11 23  2  0  0  0  0
 11 25  1  0  0  0  0
 12 30  1  0  0  0  0
 12 33  1  0  0  0  0
 12 61  1  0  0  0  0
 13 15  1  0  0  0  0
 13 34  1  0  0  0  0
 13 35  1  0  0  0  0
 14 16  1  0  0  0  0
 14 36  1  0  0  0  0
 14 37  1  0  0  0  0
 15 38  1  0  0  0  0
 15 39  1  0  0  0  0
 16 40  1  0  0  0  0
 16 41  1  0  0  0  0
 17 18  1  0  0  0  0
 17 42  1  0  0  0  0
 17 43  1  0  0  0  0
 18 20  1  0  0  0  0
 18 44  1  0  0  0  0
 18 45  1  0  0  0  0
 19 24  1  0  0  0  0
 20 22  1  0  0  0  0
 20 46  1  0  0  0  0
 20 47  1  0  0  0  0
 21 23  1  0  0  0  0
 21 26  1  0  0  0  0
 21 27  1  0  0  0  0
 21 28  1  0  0  0  0
 22 48  1  0  0  0  0
 22 49  1  0  0  0  0
 24 25  2  0  0  0  0
 24 50  1  0  0  0  0
 25 29  1  0  0  0  0
 26 51  1  0  0  0  0
 26 52  1  0  0  0  0
 26 53  1  0  0  0  0
 27 54  1  0  0  0  0
 27 55  1  0  0  0  0
 27 56  1  0  0  0  0
 28 57  1  0  0  0  0
 28 58  1  0  0  0  0
 28 59  1  0  0  0  0
 31 32  2  0  0  0  0
 31 60  1  0  0  0  0
 32 33  1  0  0  0  0
M  END
> <PUBCHEM_COMPOUND_CID>
44406895

> <PUBCHEM_COMPOUND_CANONICALIZED>
1

> <PUBCHEM_CACTVS_COMPLEXITY>
749

> <PUBCHEM_CACTVS_HBOND_ACCEPTOR>
9

> <PUBCHEM_CACTVS_HBOND_DONOR>
1

> <PUBCHEM_CACTVS_ROTATABLE_BOND>
7

> <PUBCHEM_CACTVS_SUBSKEYS>
AAADceB7sYAEAAAAAAAAAAAAAAAAAAAAAAAsWIAAAAAAAAABgAAAHwIQAAAADgrBlxQzsJfIEACoASd2dACAgCkhAqABGCA4ZFjAaABAyMBUBAhIByLAQOAAAAAAAAAAAAAAAAAAAAAAAAAAAAAAAAAAAA==

> <PUBCHEM_IUPAC_OPENEYE_NAME>
1-[4-[4-[2-tert-butyl-6-(trifluoromethyl)pyrimidin-4-yl]piperazin-1-yl]butyl]-5-chloro-pyrimidine-2,4-dione

> <PUBCHEM_IUPAC_CAS_NAME>
1-[4-[4-[2-tert-butyl-6-(trifluoromethyl)-4-pyrimidinyl]-1-piperazinyl]butyl]-5-chloropyrimidine-2,4-dione

> <PUBCHEM_IUPAC_NAME_MARKUP>
1-[4-[4-[2-<I>tert</I>-butyl-6-(trifluoromethyl)pyrimidin-4-yl]piperazin-1-yl]butyl]-5-chloropyrimidine-2,4-dione

> <PUBCHEM_IUPAC_NAME>
1-[4-[4-[2-tert-butyl-6-(trifluoromethyl)pyrimidin-4-yl]piperazin-1-yl]butyl]-5-chloropyrimidine-2,4-dione

> <PUBCHEM_IUPAC_SYSTEMATIC_NAME>
1-[4-[4-[2-tert-butyl-6-(trifluoromethyl)pyrimidin-4-yl]piperazin-1-yl]butyl]-5-chloranyl-pyrimidine-2,4-dione

> <PUBCHEM_IUPAC_TRADITIONAL_NAME>
1-[4-[4-[2-tert-butyl-6-(trifluoromethyl)pyrimidin-4-yl]piperazino]butyl]-5-chloro-pyrimidine-2,4-quinone

> <PUBCHEM_IUPAC_INCHI>
InChI=1S/C21H28ClF3N6O2/c1-20(2,3)18-26-15(21(23,24)25)12-16(27-18)30-10-8-29(9-11-30)6-4-5-7-31-13-14(22)17(32)28-19(31)33/h12-13H,4-11H2,1-3H3,(H,28,32,33)

> <PUBCHEM_IUPAC_INCHIKEY>
BZVWETBNKDFSQG-UHFFFAOYSA-N

> <PUBCHEM_XLOGP3_AA>
3.6

> <PUBCHEM_EXACT_MASS>
488.1914363

> <PUBCHEM_MOLECULAR_FORMULA>
C21H28ClF3N6O2

> <PUBCHEM_MOLECULAR_WEIGHT>
488.9

> <PUBCHEM_OPENEYE_CAN_SMILES>
CC(C)(C)C1=NC(=CC(=N1)N2CCN(CC2)CCCCN3C=C(C(=O)NC3=O)Cl)C(F)(F)F

> <PUBCHEM_OPENEYE_ISO_SMILES>
CC(C)(C)C1=NC(=CC(=N1)N2CCN(CC2)CCCCN3C=C(C(=O)NC3=O)Cl)C(F)(F)F

> <PUBCHEM_CACTVS_TPSA>
81.7

> <PUBCHEM_MONOISOTOPIC_WEIGHT>
488.1914363

> <PUBCHEM_TOTAL_CHARGE>
0

> <PUBCHEM_HEAVY_ATOM_COUNT>
33

> <PUBCHEM_ATOM_DEF_STEREO_COUNT>
0

> <PUBCHEM_ATOM_UDEF_STEREO_COUNT>
0

> <PUBCHEM_BOND_DEF_STEREO_COUNT>
0

> <PUBCHEM_BOND_UDEF_STEREO_COUNT>
0

> <PUBCHEM_ISOTOPIC_ATOM_COUNT>
0

> <PUBCHEM_COMPONENT_COUNT>
1

> <PUBCHEM_CACTVS_TAUTO_COUNT>
-1

> <PUBCHEM_COORDINATE_TYPE>
1
5
255

> <PUBCHEM_BONDANNOTATIONS>
10  30  8
10  31  8
11  23  8
11  25  8
12  30  8
12  33  8
19  24  8
24  25  8
31  32  8
32  33  8
9  19  8
9  23  8

$$$$
