25156131
  -OEChem-09292322232D

 70 73  0     0  0  0  0  0  0999 V2000
    8.9282    2.5000    0.0000 O   0  0  0  0  0  0  0  0  0  0  0  0
    5.4641   -3.5000    0.0000 O   0  0  0  0  0  0  0  0  0  0  0  0
    2.8660    4.0000    0.0000 O   0  0  0  0  0  0  0  0  0  0  0  0
    7.1962   -0.5000    0.0000 N   0  0  0  0  0  0  0  0  0  0  0  0
    7.1962   -2.5000    0.0000 N   0  0  0  0  0  0  0  0  0  0  0  0
    8.0622   -1.0000    0.0000 C   0  0  0  0  0  0  0  0  0  0  0  0
    6.3301   -1.0000    0.0000 C   0  0  0  0  0  0  0  0  0  0  0  0
    8.0622   -2.0000    0.0000 C   0  0  0  0  0  0  0  0  0  0  0  0
    6.3301   -2.0000    0.0000 C   0  0  0  0  0  0  0  0  0  0  0  0
    7.1962    0.5000    0.0000 C   0  0  0  0  0  0  0  0  0  0  0  0
    8.0622    1.0000    0.0000 C   0  0  0  0  0  0  0  0  0  0  0  0
    7.1962   -3.5000    0.0000 C   0  0  0  0  0  0  0  0  0  0  0  0
    8.0622    2.0000    0.0000 C   0  0  0  0  0  0  0  0  0  0  0  0
    6.3301   -4.0000    0.0000 C   0  0  0  0  0  0  0  0  0  0  0  0
    8.0622   -4.0000    0.0000 C   0  0  0  0  0  0  0  0  0  0  0  0
    6.3301   -5.0000    0.0000 C   0  0  0  0  0  0  0  0  0  0  0  0
    8.0622   -5.0000    0.0000 C   0  0  0  0  0  0  0  0  0  0  0  0
    8.9282    3.5000    0.0000 C   0  0  0  0  0  0  0  0  0  0  0  0
    7.1962   -5.5000    0.0000 C   0  0  0  0  0  0  0  0  0  0  0  0
    8.0622    4.0000    0.0000 C   0  0  0  0  0  0  0  0  0  0  0  0
    7.1962    3.5000    0.0000 C   0  0  0  0  0  0  0  0  0  0  0  0
    6.3301    4.0000    0.0000 C   0  0  0  0  0  0  0  0  0  0  0  0
    9.7942    4.0000    0.0000 C   0  0  0  0  0  0  0  0  0  0  0  0
    8.0622    5.0000    0.0000 C   0  0  0  0  0  0  0  0  0  0  0  0
    5.4641    3.5000    0.0000 C   0  0  0  0  0  0  0  0  0  0  0  0
    4.5981   -4.0000    0.0000 C   0  0  0  0  0  0  0  0  0  0  0  0
    9.7942    5.0000    0.0000 C   0  0  0  0  0  0  0  0  0  0  0  0
    8.9282    5.5000    0.0000 C   0  0  0  0  0  0  0  0  0  0  0  0
    4.5981    4.0000    0.0000 C   0  0  0  0  0  0  0  0  0  0  0  0
    5.4641    2.5000    0.0000 C   0  0  0  0  0  0  0  0  0  0  0  0
    3.7320    3.5000    0.0000 C   0  0  0  0  0  0  0  0  0  0  0  0
    4.5981    2.0000    0.0000 C   0  0  0  0  0  0  0  0  0  0  0  0
    3.7320    2.5000    0.0000 C   0  0  0  0  0  0  0  0  0  0  0  0
    2.0000    3.5000    0.0000 C   0  0  0  0  0  0  0  0  0  0  0  0
    8.6728   -1.1077    0.0000 H   0  0  0  0  0  0  0  0  0  0  0  0
    8.2742   -0.4174    0.0000 H   0  0  0  0  0  0  0  0  0  0  0  0
    6.1181   -0.4174    0.0000 H   0  0  0  0  0  0  0  0  0  0  0  0
    5.7196   -1.1077    0.0000 H   0  0  0  0  0  0  0  0  0  0  0  0
    8.2742   -2.5826    0.0000 H   0  0  0  0  0  0  0  0  0  0  0  0
    8.6728   -1.8923    0.0000 H   0  0  0  0  0  0  0  0  0  0  0  0
    5.7196   -1.8923    0.0000 H   0  0  0  0  0  0  0  0  0  0  0  0
    6.1181   -2.5826    0.0000 H   0  0  0  0  0  0  0  0  0  0  0  0
    6.9841    1.0826    0.0000 H   0  0  0  0  0  0  0  0  0  0  0  0
    6.5856    0.3923    0.0000 H   0  0  0  0  0  0  0  0  0  0  0  0
    8.2742    0.4174    0.0000 H   0  0  0  0  0  0  0  0  0  0  0  0
    8.6728    1.1077    0.0000 H   0  0  0  0  0  0  0  0  0  0  0  0
    7.8501    2.5826    0.0000 H   0  0  0  0  0  0  0  0  0  0  0  0
    7.4516    1.8923    0.0000 H   0  0  0  0  0  0  0  0  0  0  0  0
    8.5991   -3.6900    0.0000 H   0  0  0  0  0  0  0  0  0  0  0  0
    5.7932   -5.3100    0.0000 H   0  0  0  0  0  0  0  0  0  0  0  0
    8.5991   -5.3100    0.0000 H   0  0  0  0  0  0  0  0  0  0  0  0
    7.1962   -6.1200    0.0000 H   0  0  0  0  0  0  0  0  0  0  0  0
    6.7976    3.0250    0.0000 H   0  0  0  0  0  0  0  0  0  0  0  0
    7.5947    3.0250    0.0000 H   0  0  0  0  0  0  0  0  0  0  0  0
    6.7287    4.4750    0.0000 H   0  0  0  0  0  0  0  0  0  0  0  0
    5.9316    4.4750    0.0000 H   0  0  0  0  0  0  0  0  0  0  0  0
   10.3312    3.6900    0.0000 H   0  0  0  0  0  0  0  0  0  0  0  0
    7.5252    5.3100    0.0000 H   0  0  0  0  0  0  0  0  0  0  0  0
    4.2881   -3.4631    0.0000 H   0  0  0  0  0  0  0  0  0  0  0  0
    4.0611   -4.3100    0.0000 H   0  0  0  0  0  0  0  0  0  0  0  0
    4.9081   -4.5369    0.0000 H   0  0  0  0  0  0  0  0  0  0  0  0
   10.3312    5.3100    0.0000 H   0  0  0  0  0  0  0  0  0  0  0  0
    8.9282    6.1200    0.0000 H   0  0  0  0  0  0  0  0  0  0  0  0
    4.5981    4.6200    0.0000 H   0  0  0  0  0  0  0  0  0  0  0  0
    6.0010    2.1900    0.0000 H   0  0  0  0  0  0  0  0  0  0  0  0
    4.5981    1.3800    0.0000 H   0  0  0  0  0  0  0  0  0  0  0  0
    3.1951    2.1900    0.0000 H   0  0  0  0  0  0  0  0  0  0  0  0
    1.6900    4.0369    0.0000 H   0  0  0  0  0  0  0  0  0  0  0  0
    1.4631    3.1900    0.0000 H   0  0  0  0  0  0  0  0  0  0  0  0
    2.3100    2.9631    0.0000 H   0  0  0  0  0  0  0  0  0  0  0  0
  1 13  1  0  0  0  0
  1 18  1  0  0  0  0
  2 14  1  0  0  0  0
  2 26  1  0  0  0  0
  3 31  1  0  0  0  0
  3 34  1  0  0  0  0
  4  6  1  0  0  0  0
  4  7  1  0  0  0  0
  4 10  1  0  0  0  0
  5  8  1  0  0  0  0
  5  9  1  0  0  0  0
  5 12  1  0  0  0  0
  6  8  1  0  0  0  0
  6 35  1  0  0  0  0
  6 36  1  0  0  0  0
  7  9  1  0  0  0  0
  7 37  1  0  0  0  0
  7 38  1  0  0  0  0
  8 39  1  0  0  0  0
  8 40  1  0  0  0  0
  9 41  1  0  0  0  0
  9 42  1  0  0  0  0
 10 11  1  0  0  0  0
 10 43  1  0  0  0  0
 10 44  1  0  0  0  0
 11 13  1  0  0  0  0
 11 45  1  0  0  0  0
 11 46  1  0  0  0  0
 12 14  1  0  0  0  0
 12 15  2  0  0  0  0
 13 47  1  0  0  0  0
 13 48  1  0  0  0  0
 14 16  2  0  0  0  0
 15 17  1  0  0  0  0
 15 49  1  0  0  0  0
 16 19  1  0  0  0  0
 16 50  1  0  0  0  0
 17 19  2  0  0  0  0
 17 51  1  0  0  0  0
 18 20  1  0  0  0  0
 18 23  2  0  0  0  0
 19 52  1  0  0  0  0
 20 21  1  0  0  0  0
 20 24  2  0  0  0  0
 21 22  1  0  0  0  0
 21 53  1  0  0  0  0
 21 54  1  0  0  0  0
 22 25  1  0  0  0  0
 22 55  1  0  0  0  0
 22 56  1  0  0  0  0
 23 27  1  0  0  0  0
 23 57  1  0  0  0  0
 24 28  1  0  0  0  0
 24 58  1  0  0  0  0
 25 29  2  0  0  0  0
 25 30  1  0  0  0  0
 26 59  1  0  0  0  0
 26 60  1  0  0  0  0
 26 61  1  0  0  0  0
 27 28  2  0  0  0  0
 27 62  1  0  0  0  0
 28 63  1  0  0  0  0
 29 31  1  0  0  0  0
 29 64  1  0  0  0  0
 30 32  2  0  0  0  0
 30 65  1  0  0  0  0
 31 33  2  0  0  0  0
 32 33  1  0  0  0  0
 32 66  1  0  0  0  0
 33 67  1  0  0  0  0
 34 68  1  0  0  0  0
 34 69  1  0  0  0  0
 34 70  1  0  0  0  0
M  END
> <PUBCHEM_COMPOUND_CID>
25156131

> <PUBCHEM_COMPOUND_CANONICALIZED>
1

> <PUBCHEM_CACTVS_COMPLEXITY>
554

> <PUBCHEM_CACTVS_HBOND_ACCEPTOR>
5

> <PUBCHEM_CACTVS_HBOND_DONOR>
0

> <PUBCHEM_CACTVS_ROTATABLE_BOND>
11

> <PUBCHEM_CACTVS_SUBSKEYS>
AAADcfB7MAAAAAAAAAAAAAAAAAAAAAAAAAA8YMEAAAAAAAABUAAAHgAAAAAADAzhmAYyxoMABACAAiRCQACCCAAhIgAIiAAPbIgOZiLEsZuXOCjmwBHY6AeQwPAOAAABAAAIEAAAAAIAABAgAAAAAAAAAA==

> <PUBCHEM_IUPAC_OPENEYE_NAME>
1-(2-methoxyphenyl)-4-[3-[2-[2-(3-methoxyphenyl)ethyl]phenoxy]propyl]piperazine

> <PUBCHEM_IUPAC_CAS_NAME>
1-(2-methoxyphenyl)-4-[3-[2-[2-(3-methoxyphenyl)ethyl]phenoxy]propyl]piperazine

> <PUBCHEM_IUPAC_NAME_MARKUP>
1-(2-methoxyphenyl)-4-[3-[2-[2-(3-methoxyphenyl)ethyl]phenoxy]propyl]piperazine

> <PUBCHEM_IUPAC_NAME>
1-(2-methoxyphenyl)-4-[3-[2-[2-(3-methoxyphenyl)ethyl]phenoxy]propyl]piperazine

> <PUBCHEM_IUPAC_SYSTEMATIC_NAME>
1-(2-methoxyphenyl)-4-[3-[2-[2-(3-methoxyphenyl)ethyl]phenoxy]propyl]piperazine

> <PUBCHEM_IUPAC_TRADITIONAL_NAME>
1-(2-methoxyphenyl)-4-[3-[2-[2-(3-methoxyphenyl)ethyl]phenoxy]propyl]piperazine

> <PUBCHEM_IUPAC_INCHI>
InChI=1S/C29H36N2O3/c1-32-26-11-7-9-24(23-26)15-16-25-10-3-5-13-28(25)34-22-8-17-30-18-20-31(21-19-30)27-12-4-6-14-29(27)33-2/h3-7,9-14,23H,8,15-22H2,1-2H3

> <PUBCHEM_IUPAC_INCHIKEY>
YALDYYSVNQBATO-UHFFFAOYSA-N

> <PUBCHEM_XLOGP3_AA>
6

> <PUBCHEM_EXACT_MASS>
460.27259301

> <PUBCHEM_MOLECULAR_FORMULA>
C29H36N2O3

> <PUBCHEM_MOLECULAR_WEIGHT>
460.6

> <PUBCHEM_OPENEYE_CAN_SMILES>
COC1=CC=CC(=C1)CCC2=CC=CC=C2OCCCN3CCN(CC3)C4=CC=CC=C4OC

> <PUBCHEM_OPENEYE_ISO_SMILES>
COC1=CC=CC(=C1)CCC2=CC=CC=C2OCCCN3CCN(CC3)C4=CC=CC=C4OC

> <PUBCHEM_CACTVS_TPSA>
34.2

> <PUBCHEM_MONOISOTOPIC_WEIGHT>
460.27259301

> <PUBCHEM_TOTAL_CHARGE>
0

> <PUBCHEM_HEAVY_ATOM_COUNT>
34

> <PUBCHEM_ATOM_DEF_STEREO_COUNT>
0

> <PUBCHEM_ATOM_UDEF_STEREO_COUNT>
0

> <PUBCHEM_BOND_DEF_STEREO_COUNT>
0

> <PUBCHEM_BOND_UDEF_STEREO_COUNT>
0

> <PUBCHEM_ISOTOPIC_ATOM_COUNT>
0

> <PUBCHEM_COMPONENT_COUNT>
1

> <PUBCHEM_CACTVS_TAUTO_COUNT>
-1

> <PUBCHEM_COORDINATE_TYPE>
1
5
255

> <PUBCHEM_BONDANNOTATIONS>
12  14  8
12  15  8
14  16  8
15  17  8
16  19  8
17  19  8
18  20  8
18  23  8
20  24  8
23  27  8
24  28  8
25  29  8
25  30  8
27  28  8
29  31  8
30  32  8
31  33  8
32  33  8

$$$$
