60165545
  -OEChem-09292322322D

 44 47  0     0  0  0  0  0  0999 V2000
    4.6783    3.1412    0.0000 S   0  0  0  0  0  0  0  0  0  0  0  0
    6.7619    3.2025    0.0000 O   0  0  0  0  0  0  0  0  0  0  0  0
    9.7619   -0.2616    0.0000 N   0  0  0  0  0  0  0  0  0  0  0  0
    4.6783    1.5317    0.0000 N   0  0  0  0  0  0  0  0  0  0  0  0
   10.7506   -0.3647    0.0000 C   0  0  0  0  0  0  0  0  0  0  0  0
    9.3568   -1.1694    0.0000 C   0  0  0  0  0  0  0  0  0  0  0  0
    9.2619    0.6044    0.0000 C   0  0  0  0  0  0  0  0  0  0  0  0
   10.9598   -1.3365    0.0000 C   0  0  0  0  0  0  0  0  0  0  0  0
   10.0938   -1.8365    0.0000 C   0  0  0  0  0  0  0  0  0  0  0  0
    8.2619    0.6044    0.0000 C   0  0  0  0  0  0  0  0  0  0  0  0
    7.7619    1.4704    0.0000 C   0  0  0  0  0  0  0  0  0  0  0  0
   11.8258   -1.8365    0.0000 C   0  0  0  0  0  0  0  0  0  0  0  0
   10.0938   -2.8365    0.0000 C   0  0  0  0  0  0  0  0  0  0  0  0
    6.7619    1.4704    0.0000 C   0  0  0  0  0  0  0  0  0  0  0  0
   11.8258   -2.8365    0.0000 C   0  0  0  0  0  0  0  0  0  0  0  0
   10.9598   -3.3365    0.0000 C   0  0  0  0  0  0  0  0  0  0  0  0
    6.2619    2.3365    0.0000 C   0  0  0  0  0  0  0  0  0  0  0  0
    5.2619    2.3365    0.0000 C   0  0  0  0  0  0  0  0  0  0  0  0
    3.7320    2.8365    0.0000 C   0  0  0  0  0  0  0  0  0  0  0  0
    3.7320    1.8365    0.0000 C   0  0  0  0  0  0  0  0  0  0  0  0
    2.8660    3.3365    0.0000 C   0  0  0  0  0  0  0  0  0  0  0  0
    2.8660    1.3365    0.0000 C   0  0  0  0  0  0  0  0  0  0  0  0
    2.0000    2.8365    0.0000 C   0  0  0  0  0  0  0  0  0  0  0  0
    2.0000    1.8365    0.0000 C   0  0  0  0  0  0  0  0  0  0  0  0
   11.3671   -0.2986    0.0000 H   0  0  0  0  0  0  0  0  0  0  0  0
   10.7497    0.2553    0.0000 H   0  0  0  0  0  0  0  0  0  0  0  0
    8.8203   -0.8586    0.0000 H   0  0  0  0  0  0  0  0  0  0  0  0
    8.9913   -1.6702    0.0000 H   0  0  0  0  0  0  0  0  0  0  0  0
    9.8445    0.8165    0.0000 H   0  0  0  0  0  0  0  0  0  0  0  0
    9.1542    1.2150    0.0000 H   0  0  0  0  0  0  0  0  0  0  0  0
    7.6793    0.3924    0.0000 H   0  0  0  0  0  0  0  0  0  0  0  0
    8.3695   -0.0062    0.0000 H   0  0  0  0  0  0  0  0  0  0  0  0
    8.3445    1.6825    0.0000 H   0  0  0  0  0  0  0  0  0  0  0  0
    7.6542    2.0810    0.0000 H   0  0  0  0  0  0  0  0  0  0  0  0
   12.3628   -1.5265    0.0000 H   0  0  0  0  0  0  0  0  0  0  0  0
    9.5569   -3.1465    0.0000 H   0  0  0  0  0  0  0  0  0  0  0  0
    6.1793    1.2584    0.0000 H   0  0  0  0  0  0  0  0  0  0  0  0
    6.8695    0.8599    0.0000 H   0  0  0  0  0  0  0  0  0  0  0  0
   12.3628   -3.1465    0.0000 H   0  0  0  0  0  0  0  0  0  0  0  0
   10.9598   -3.9565    0.0000 H   0  0  0  0  0  0  0  0  0  0  0  0
    2.8660    3.9565    0.0000 H   0  0  0  0  0  0  0  0  0  0  0  0
    2.8660    0.7165    0.0000 H   0  0  0  0  0  0  0  0  0  0  0  0
    1.4631    3.1465    0.0000 H   0  0  0  0  0  0  0  0  0  0  0  0
    1.4631    1.5265    0.0000 H   0  0  0  0  0  0  0  0  0  0  0  0
  1 18  1  0  0  0  0
  1 19  1  0  0  0  0
  2 17  2  0  0  0  0
  3  5  1  0  0  0  0
  3  6  1  0  0  0  0
  3  7  1  0  0  0  0
  4 18  2  0  0  0  0
  4 20  1  0  0  0  0
  5  8  1  0  0  0  0
  5 25  1  0  0  0  0
  5 26  1  0  0  0  0
  6  9  1  0  0  0  0
  6 27  1  0  0  0  0
  6 28  1  0  0  0  0
  7 10  1  0  0  0  0
  7 29  1  0  0  0  0
  7 30  1  0  0  0  0
  8  9  1  0  0  0  0
  8 12  2  0  0  0  0
  9 13  2  0  0  0  0
 10 11  1  0  0  0  0
 10 31  1  0  0  0  0
 10 32  1  0  0  0  0
 11 14  1  0  0  0  0
 11 33  1  0  0  0  0
 11 34  1  0  0  0  0
 12 15  1  0  0  0  0
 12 35  1  0  0  0  0
 13 16  1  0  0  0  0
 13 36  1  0  0  0  0
 14 17  1  0  0  0  0
 14 37  1  0  0  0  0
 14 38  1  0  0  0  0
 15 16  2  0  0  0  0
 15 39  1  0  0  0  0
 16 40  1  0  0  0  0
 17 18  1  0  0  0  0
 19 20  1  0  0  0  0
 19 21  2  0  0  0  0
 20 22  2  0  0  0  0
 21 23  1  0  0  0  0
 21 41  1  0  0  0  0
 22 24  1  0  0  0  0
 22 42  1  0  0  0  0
 23 24  2  0  0  0  0
 23 43  1  0  0  0  0
 24 44  1  0  0  0  0
M  END
> <PUBCHEM_COMPOUND_CID>
60165545

> <PUBCHEM_COMPOUND_CANONICALIZED>
1

> <PUBCHEM_CACTVS_COMPLEXITY>
429

> <PUBCHEM_CACTVS_HBOND_ACCEPTOR>
4

> <PUBCHEM_CACTVS_HBOND_DONOR>
0

> <PUBCHEM_CACTVS_ROTATABLE_BOND>
6

> <PUBCHEM_CACTVS_SUBSKEYS>
AAADceB7IABAAAAAAAAAAAAAAAAAAWLAAAAwYAAAAAAAAFgB9AAAHgQAAAAADAzB3gQwwbMIEAisA6RyRACD8KBjCjhImD24ZJgIILLgkbGEIAhggADoyAcYgYAOgAAAAAAQAQAAAAAAACACAAAAAAAAAA==

> <PUBCHEM_IUPAC_OPENEYE_NAME>
1-(1,3-benzothiazol-2-yl)-5-isoindolin-2-yl-pentan-1-one

> <PUBCHEM_IUPAC_CAS_NAME>
1-(1,3-benzothiazol-2-yl)-5-(1,3-dihydroisoindol-2-yl)-1-pentanone

> <PUBCHEM_IUPAC_NAME_MARKUP>
1-(1,3-benzothiazol-2-yl)-5-(1,3-dihydroisoindol-2-yl)pentan-1-one

> <PUBCHEM_IUPAC_NAME>
1-(1,3-benzothiazol-2-yl)-5-(1,3-dihydroisoindol-2-yl)pentan-1-one

> <PUBCHEM_IUPAC_SYSTEMATIC_NAME>
1-(1,3-benzothiazol-2-yl)-5-(1,3-dihydroisoindol-2-yl)pentan-1-one

> <PUBCHEM_IUPAC_TRADITIONAL_NAME>
1-(1,3-benzothiazol-2-yl)-5-isoindolin-2-yl-pentan-1-one

> <PUBCHEM_IUPAC_INCHI>
InChI=1S/C20H20N2OS/c23-18(20-21-17-9-3-4-11-19(17)24-20)10-5-6-12-22-13-15-7-1-2-8-16(15)14-22/h1-4,7-9,11H,5-6,10,12-14H2

> <PUBCHEM_IUPAC_INCHIKEY>
QQMNSBRRJCWJNN-UHFFFAOYSA-N

> <PUBCHEM_XLOGP3_AA>
4.1

> <PUBCHEM_EXACT_MASS>
336.12963444

> <PUBCHEM_MOLECULAR_FORMULA>
C20H20N2OS

> <PUBCHEM_MOLECULAR_WEIGHT>
336.5

> <PUBCHEM_OPENEYE_CAN_SMILES>
C1C2=CC=CC=C2CN1CCCCC(=O)C3=NC4=CC=CC=C4S3

> <PUBCHEM_OPENEYE_ISO_SMILES>
C1C2=CC=CC=C2CN1CCCCC(=O)C3=NC4=CC=CC=C4S3

> <PUBCHEM_CACTVS_TPSA>
61.4

> <PUBCHEM_MONOISOTOPIC_WEIGHT>
336.12963444

> <PUBCHEM_TOTAL_CHARGE>
0

> <PUBCHEM_HEAVY_ATOM_COUNT>
24

> <PUBCHEM_ATOM_DEF_STEREO_COUNT>
0

> <PUBCHEM_ATOM_UDEF_STEREO_COUNT>
0

> <PUBCHEM_BOND_DEF_STEREO_COUNT>
0

> <PUBCHEM_BOND_UDEF_STEREO_COUNT>
0

> <PUBCHEM_ISOTOPIC_ATOM_COUNT>
0

> <PUBCHEM_COMPONENT_COUNT>
1

> <PUBCHEM_CACTVS_TAUTO_COUNT>
-1

> <PUBCHEM_COORDINATE_TYPE>
1
5
255

> <PUBCHEM_BONDANNOTATIONS>
1  18  8
1  19  8
12  15  8
13  16  8
15  16  8
19  20  8
19  21  8
20  22  8
21  23  8
22  24  8
23  24  8
4  18  8
4  20  8
8  12  8
8  9  8
9  13  8

$$$$
