155526424
  -OEChem-09292322402D

 60 63  0     0  0  0  0  0  0999 V2000
    6.3671    7.5194    0.0000 S   0  0  0  0  0  0  0  0  0  0  0  0
    2.5369   -5.5194    0.0000 O   0  0  0  0  0  0  0  0  0  0  0  0
    7.7331    1.4806    0.0000 O   0  0  0  0  0  0  0  0  0  0  0  0
    4.2690   -2.5194    0.0000 N   0  0  0  0  0  0  0  0  0  0  0  0
    4.2690   -4.5194    0.0000 N   0  0  0  0  0  0  0  0  0  0  0  0
    6.0010    1.4806    0.0000 N   0  0  0  0  0  0  0  0  0  0  0  0
    5.1350   -3.0194    0.0000 C   0  0  0  0  0  0  0  0  0  0  0  0
    3.4030   -3.0194    0.0000 C   0  0  0  0  0  0  0  0  0  0  0  0
    5.1350   -4.0194    0.0000 C   0  0  0  0  0  0  0  0  0  0  0  0
    3.4030   -4.0194    0.0000 C   0  0  0  0  0  0  0  0  0  0  0  0
    4.2690   -1.5194    0.0000 C   0  0  0  0  0  0  0  0  0  0  0  0
    5.1350   -1.0194    0.0000 C   0  0  0  0  0  0  0  0  0  0  0  0
    4.2690   -5.5194    0.0000 C   0  0  0  0  0  0  0  0  0  0  0  0
    5.1350   -0.0194    0.0000 C   0  0  0  0  0  0  0  0  0  0  0  0
    6.0010    0.4806    0.0000 C   0  0  0  0  0  0  0  0  0  0  0  0
    3.4030   -6.0194    0.0000 C   0  0  0  0  0  0  0  0  0  0  0  0
    5.1350   -6.0194    0.0000 C   0  0  0  0  0  0  0  0  0  0  0  0
    3.4030   -7.0194    0.0000 C   0  0  0  0  0  0  0  0  0  0  0  0
    5.1350   -7.0194    0.0000 C   0  0  0  0  0  0  0  0  0  0  0  0
    4.2690   -7.5194    0.0000 C   0  0  0  0  0  0  0  0  0  0  0  0
    6.8671    1.9806    0.0000 C   0  0  0  0  0  0  0  0  0  0  0  0
    6.8671    2.9806    0.0000 C   0  0  0  0  0  0  0  0  0  0  0  0
    7.7331    3.4806    0.0000 C   0  0  0  0  0  0  0  0  0  0  0  0
    6.0010    3.4806    0.0000 C   0  0  0  0  0  0  0  0  0  0  0  0
    6.8671    4.9806    0.0000 C   0  0  0  0  0  0  0  0  0  0  0  0
    7.7331    4.4806    0.0000 C   0  0  0  0  0  0  0  0  0  0  0  0
    6.0010    4.4806    0.0000 C   0  0  0  0  0  0  0  0  0  0  0  0
    6.8671    5.9806    0.0000 C   0  0  0  0  0  0  0  0  0  0  0  0
    7.6761    6.5684    0.0000 C   0  0  0  0  0  0  0  0  0  0  0  0
    6.0580    6.5684    0.0000 C   0  0  0  0  0  0  0  0  0  0  0  0
    7.3671    7.5194    0.0000 C   0  0  0  0  0  0  0  0  0  0  0  0
    5.7456   -3.1271    0.0000 H   0  0  0  0  0  0  0  0  0  0  0  0
    5.3471   -2.4368    0.0000 H   0  0  0  0  0  0  0  0  0  0  0  0
    3.1909   -2.4368    0.0000 H   0  0  0  0  0  0  0  0  0  0  0  0
    2.7924   -3.1271    0.0000 H   0  0  0  0  0  0  0  0  0  0  0  0
    5.3471   -4.6020    0.0000 H   0  0  0  0  0  0  0  0  0  0  0  0
    5.7456   -3.9118    0.0000 H   0  0  0  0  0  0  0  0  0  0  0  0
    2.7924   -3.9118    0.0000 H   0  0  0  0  0  0  0  0  0  0  0  0
    3.1909   -4.6020    0.0000 H   0  0  0  0  0  0  0  0  0  0  0  0
    4.0569   -0.9368    0.0000 H   0  0  0  0  0  0  0  0  0  0  0  0
    3.6584   -1.6271    0.0000 H   0  0  0  0  0  0  0  0  0  0  0  0
    5.3471   -1.6020    0.0000 H   0  0  0  0  0  0  0  0  0  0  0  0
    5.7456   -0.9118    0.0000 H   0  0  0  0  0  0  0  0  0  0  0  0
    4.9230    0.5632    0.0000 H   0  0  0  0  0  0  0  0  0  0  0  0
    4.5244   -0.1271    0.0000 H   0  0  0  0  0  0  0  0  0  0  0  0
    6.2131   -0.1020    0.0000 H   0  0  0  0  0  0  0  0  0  0  0  0
    6.6116    0.5882    0.0000 H   0  0  0  0  0  0  0  0  0  0  0  0
    5.6720   -5.7094    0.0000 H   0  0  0  0  0  0  0  0  0  0  0  0
    5.4641    1.7906    0.0000 H   0  0  0  0  0  0  0  0  0  0  0  0
    2.8660   -7.3294    0.0000 H   0  0  0  0  0  0  0  0  0  0  0  0
    5.6720   -7.3294    0.0000 H   0  0  0  0  0  0  0  0  0  0  0  0
    4.2690   -8.1394    0.0000 H   0  0  0  0  0  0  0  0  0  0  0  0
    2.0000   -5.8294    0.0000 H   0  0  0  0  0  0  0  0  0  0  0  0
    8.2700    3.1706    0.0000 H   0  0  0  0  0  0  0  0  0  0  0  0
    5.4641    3.1706    0.0000 H   0  0  0  0  0  0  0  0  0  0  0  0
    8.2700    4.7906    0.0000 H   0  0  0  0  0  0  0  0  0  0  0  0
    5.4641    4.7906    0.0000 H   0  0  0  0  0  0  0  0  0  0  0  0
    8.2657    6.3768    0.0000 H   0  0  0  0  0  0  0  0  0  0  0  0
    5.4684    6.3768    0.0000 H   0  0  0  0  0  0  0  0  0  0  0  0
    7.7315    8.0210    0.0000 H   0  0  0  0  0  0  0  0  0  0  0  0
  1 30  1  0  0  0  0
  1 31  1  0  0  0  0
  2 16  1  0  0  0  0
  2 53  1  0  0  0  0
  3 21  2  0  0  0  0
  4  7  1  0  0  0  0
  4  8  1  0  0  0  0
  4 11  1  0  0  0  0
  5  9  1  0  0  0  0
  5 10  1  0  0  0  0
  5 13  1  0  0  0  0
  6 15  1  0  0  0  0
  6 21  1  0  0  0  0
  6 49  1  0  0  0  0
  7  9  1  0  0  0  0
  7 32  1  0  0  0  0
  7 33  1  0  0  0  0
  8 10  1  0  0  0  0
  8 34  1  0  0  0  0
  8 35  1  0  0  0  0
  9 36  1  0  0  0  0
  9 37  1  0  0  0  0
 10 38  1  0  0  0  0
 10 39  1  0  0  0  0
 11 12  1  0  0  0  0
 11 40  1  0  0  0  0
 11 41  1  0  0  0  0
 12 14  1  0  0  0  0
 12 42  1  0  0  0  0
 12 43  1  0  0  0  0
 13 16  1  0  0  0  0
 13 17  2  0  0  0  0
 14 15  1  0  0  0  0
 14 44  1  0  0  0  0
 14 45  1  0  0  0  0
 15 46  1  0  0  0  0
 15 47  1  0  0  0  0
 16 18  2  0  0  0  0
 17 19  1  0  0  0  0
 17 48  1  0  0  0  0
 18 20  1  0  0  0  0
 18 50  1  0  0  0  0
 19 20  2  0  0  0  0
 19 51  1  0  0  0  0
 20 52  1  0  0  0  0
 21 22  1  0  0  0  0
 22 23  2  0  0  0  0
 22 24  1  0  0  0  0
 23 26  1  0  0  0  0
 23 54  1  0  0  0  0
 24 27  2  0  0  0  0
 24 55  1  0  0  0  0
 25 26  2  0  0  0  0
 25 27  1  0  0  0  0
 25 28  1  0  0  0  0
 26 56  1  0  0  0  0
 27 57  1  0  0  0  0
 28 29  1  0  0  0  0
 28 30  2  0  0  0  0
 29 31  2  0  0  0  0
 29 58  1  0  0  0  0
 30 59  1  0  0  0  0
 31 60  1  0  0  0  0
M  END
> <PUBCHEM_COMPOUND_CID>
155526424

> <PUBCHEM_COMPOUND_CANONICALIZED>
1

> <PUBCHEM_CACTVS_COMPLEXITY>
547

> <PUBCHEM_CACTVS_HBOND_ACCEPTOR>
5

> <PUBCHEM_CACTVS_HBOND_DONOR>
2

> <PUBCHEM_CACTVS_ROTATABLE_BOND>
8

> <PUBCHEM_CACTVS_SUBSKEYS>
AAADceB7MABAAAAAAAAAAAAAAAAAASAAAAA8YIAAAAAAAAAB0AAAHgQQCAAADAzF2ASwx4PAAgiMAiVSUACDAIAlKhBIiJkPbMgKZjLylZOUcQhk1hH42YeYyMCOwAAAAAAAEACAAAAAAAAgAAAAAAAAAA==

> <PUBCHEM_IUPAC_OPENEYE_NAME>
N-[4-[4-(2-hydroxyphenyl)piperazin-1-yl]butyl]-4-(3-thienyl)benzamide

> <PUBCHEM_IUPAC_CAS_NAME>
N-[4-[4-(2-hydroxyphenyl)-1-piperazinyl]butyl]-4-(3-thiophenyl)benzamide

> <PUBCHEM_IUPAC_NAME_MARKUP>
<I>N</I>-[4-[4-(2-hydroxyphenyl)piperazin-1-yl]butyl]-4-thiophen-3-ylbenzamide

> <PUBCHEM_IUPAC_NAME>
N-[4-[4-(2-hydroxyphenyl)piperazin-1-yl]butyl]-4-thiophen-3-ylbenzamide

> <PUBCHEM_IUPAC_SYSTEMATIC_NAME>
N-[4-[4-(2-hydroxyphenyl)piperazin-1-yl]butyl]-4-thiophen-3-yl-benzamide

> <PUBCHEM_IUPAC_TRADITIONAL_NAME>
N-[4-[4-(2-hydroxyphenyl)piperazino]butyl]-4-(3-thienyl)benzamide

> <PUBCHEM_IUPAC_INCHI>
InChI=1S/C25H29N3O2S/c29-24-6-2-1-5-23(24)28-16-14-27(15-17-28)13-4-3-12-26-25(30)21-9-7-20(8-10-21)22-11-18-31-19-22/h1-2,5-11,18-19,29H,3-4,12-17H2,(H,26,30)

> <PUBCHEM_IUPAC_INCHIKEY>
PPNFHFXNWYTHCJ-UHFFFAOYSA-N

> <PUBCHEM_XLOGP3_AA>
4.5

> <PUBCHEM_EXACT_MASS>
435.19804835

> <PUBCHEM_MOLECULAR_FORMULA>
C25H29N3O2S

> <PUBCHEM_MOLECULAR_WEIGHT>
435.6

> <PUBCHEM_OPENEYE_CAN_SMILES>
C1CN(CCN1CCCCNC(=O)C2=CC=C(C=C2)C3=CSC=C3)C4=CC=CC=C4O

> <PUBCHEM_OPENEYE_ISO_SMILES>
C1CN(CCN1CCCCNC(=O)C2=CC=C(C=C2)C3=CSC=C3)C4=CC=CC=C4O

> <PUBCHEM_CACTVS_TPSA>
84

> <PUBCHEM_MONOISOTOPIC_WEIGHT>
435.19804835

> <PUBCHEM_TOTAL_CHARGE>
0

> <PUBCHEM_HEAVY_ATOM_COUNT>
31

> <PUBCHEM_ATOM_DEF_STEREO_COUNT>
0

> <PUBCHEM_ATOM_UDEF_STEREO_COUNT>
0

> <PUBCHEM_BOND_DEF_STEREO_COUNT>
0

> <PUBCHEM_BOND_UDEF_STEREO_COUNT>
0

> <PUBCHEM_ISOTOPIC_ATOM_COUNT>
0

> <PUBCHEM_COMPONENT_COUNT>
1

> <PUBCHEM_CACTVS_TAUTO_COUNT>
-1

> <PUBCHEM_COORDINATE_TYPE>
1
5
255

> <PUBCHEM_BONDANNOTATIONS>
1  30  8
1  31  8
13  16  8
13  17  8
16  18  8
17  19  8
18  20  8
19  20  8
22  23  8
22  24  8
23  26  8
24  27  8
25  26  8
25  27  8
28  29  8
28  30  8
29  31  8

$$$$
