44431557
  -OEChem-09292322242D

 71 74  0     0  0  0  0  0  0999 V2000
    6.3301    2.7500    0.0000 S   0  0  0  0  0  0  0  0  0  0  0  0
    9.7942    6.7500    0.0000 F   0  0  0  0  0  0  0  0  0  0  0  0
   10.7942    5.7500    0.0000 F   0  0  0  0  0  0  0  0  0  0  0  0
    8.7942    5.7500    0.0000 F   0  0  0  0  0  0  0  0  0  0  0  0
    5.8301    3.6160    0.0000 O   0  0  0  0  0  0  0  0  0  0  0  0
    6.8301    1.8840    0.0000 O   0  0  0  0  0  0  0  0  0  0  0  0
    3.7320   -4.7500    0.0000 O   0  0  0  0  0  0  0  0  0  0  0  0
    9.7942    4.7500    0.0000 O   0  0  0  0  0  0  0  0  0  0  0  0
    5.4641   -1.7500    0.0000 N   0  0  0  0  0  0  0  0  0  0  0  0
    5.4641   -3.7500    0.0000 N   0  0  0  0  0  0  0  0  0  0  0  0
    5.4641    2.2500    0.0000 N   0  0  0  0  0  0  0  0  0  0  0  0
    5.4641   -0.7500    0.0000 C   0  0  0  0  0  0  0  0  0  0  0  0
    4.5981   -0.2500    0.0000 C   0  0  0  0  0  0  0  0  0  0  0  0
    6.3301   -0.2500    0.0000 C   0  0  0  0  0  0  0  0  0  0  0  0
    5.4641    1.2500    0.0000 C   0  0  0  0  0  0  0  0  0  0  0  0
    4.5981    0.7500    0.0000 C   0  0  0  0  0  0  0  0  0  0  0  0
    6.3301    0.7500    0.0000 C   0  0  0  0  0  0  0  0  0  0  0  0
    6.3301   -2.2500    0.0000 C   0  0  0  0  0  0  0  0  0  0  0  0
    4.5981   -2.2500    0.0000 C   0  0  0  0  0  0  0  0  0  0  0  0
    6.3301   -3.2500    0.0000 C   0  0  0  0  0  0  0  0  0  0  0  0
    4.5981   -3.2500    0.0000 C   0  0  0  0  0  0  0  0  0  0  0  0
    5.4641   -4.7500    0.0000 C   0  0  0  0  0  0  0  0  0  0  0  0
    7.1962    3.2500    0.0000 C   0  0  0  0  0  0  0  0  0  0  0  0
    4.5981   -5.2500    0.0000 C   0  0  0  0  0  0  0  0  0  0  0  0
    6.3301   -5.2500    0.0000 C   0  0  0  0  0  0  0  0  0  0  0  0
    4.5981   -6.2500    0.0000 C   0  0  0  0  0  0  0  0  0  0  0  0
    7.1962    4.2500    0.0000 C   0  0  0  0  0  0  0  0  0  0  0  0
    8.0622    2.7500    0.0000 C   0  0  0  0  0  0  0  0  0  0  0  0
    6.3301   -6.2500    0.0000 C   0  0  0  0  0  0  0  0  0  0  0  0
    5.4641   -6.7500    0.0000 C   0  0  0  0  0  0  0  0  0  0  0  0
    2.8660   -5.2500    0.0000 C   0  0  0  0  0  0  0  0  0  0  0  0
    8.0622    4.7500    0.0000 C   0  0  0  0  0  0  0  0  0  0  0  0
    8.9282    3.2500    0.0000 C   0  0  0  0  0  0  0  0  0  0  0  0
    8.9282    4.2500    0.0000 C   0  0  0  0  0  0  0  0  0  0  0  0
    2.0000   -4.7500    0.0000 C   0  0  0  0  0  0  0  0  0  0  0  0
    2.8660   -6.2500    0.0000 C   0  0  0  0  0  0  0  0  0  0  0  0
    9.7942    5.7500    0.0000 C   0  0  0  0  0  0  0  0  0  0  0  0
    6.0010   -1.0600    0.0000 H   0  0  0  0  0  0  0  0  0  0  0  0
    3.9875   -0.1423    0.0000 H   0  0  0  0  0  0  0  0  0  0  0  0
    4.3860   -0.8326    0.0000 H   0  0  0  0  0  0  0  0  0  0  0  0
    6.5422   -0.8326    0.0000 H   0  0  0  0  0  0  0  0  0  0  0  0
    6.9407   -0.1423    0.0000 H   0  0  0  0  0  0  0  0  0  0  0  0
    6.0010    1.5600    0.0000 H   0  0  0  0  0  0  0  0  0  0  0  0
    4.3860    1.3326    0.0000 H   0  0  0  0  0  0  0  0  0  0  0  0
    3.9875    0.6423    0.0000 H   0  0  0  0  0  0  0  0  0  0  0  0
    6.9407    0.6423    0.0000 H   0  0  0  0  0  0  0  0  0  0  0  0
    6.5422    1.3326    0.0000 H   0  0  0  0  0  0  0  0  0  0  0  0
    6.9407   -2.3577    0.0000 H   0  0  0  0  0  0  0  0  0  0  0  0
    6.5422   -1.6674    0.0000 H   0  0  0  0  0  0  0  0  0  0  0  0
    4.3860   -1.6674    0.0000 H   0  0  0  0  0  0  0  0  0  0  0  0
    3.9875   -2.3577    0.0000 H   0  0  0  0  0  0  0  0  0  0  0  0
    6.5422   -3.8326    0.0000 H   0  0  0  0  0  0  0  0  0  0  0  0
    6.9407   -3.1423    0.0000 H   0  0  0  0  0  0  0  0  0  0  0  0
    3.9875   -3.1423    0.0000 H   0  0  0  0  0  0  0  0  0  0  0  0
    4.3860   -3.8326    0.0000 H   0  0  0  0  0  0  0  0  0  0  0  0
    4.9272    2.5600    0.0000 H   0  0  0  0  0  0  0  0  0  0  0  0
    6.8671   -4.9400    0.0000 H   0  0  0  0  0  0  0  0  0  0  0  0
    4.0611   -6.5600    0.0000 H   0  0  0  0  0  0  0  0  0  0  0  0
    6.6592    4.5600    0.0000 H   0  0  0  0  0  0  0  0  0  0  0  0
    8.0622    2.1300    0.0000 H   0  0  0  0  0  0  0  0  0  0  0  0
    6.8671   -6.5600    0.0000 H   0  0  0  0  0  0  0  0  0  0  0  0
    5.4641   -7.3700    0.0000 H   0  0  0  0  0  0  0  0  0  0  0  0
    2.8660   -4.6300    0.0000 H   0  0  0  0  0  0  0  0  0  0  0  0
    8.0622    5.3700    0.0000 H   0  0  0  0  0  0  0  0  0  0  0  0
    9.4651    2.9400    0.0000 H   0  0  0  0  0  0  0  0  0  0  0  0
    2.3100   -4.2131    0.0000 H   0  0  0  0  0  0  0  0  0  0  0  0
    1.4631   -4.4400    0.0000 H   0  0  0  0  0  0  0  0  0  0  0  0
    1.6900   -5.2869    0.0000 H   0  0  0  0  0  0  0  0  0  0  0  0
    2.2460   -6.2500    0.0000 H   0  0  0  0  0  0  0  0  0  0  0  0
    2.8660   -6.8700    0.0000 H   0  0  0  0  0  0  0  0  0  0  0  0
    3.4860   -6.2500    0.0000 H   0  0  0  0  0  0  0  0  0  0  0  0
  1  5  2  0  0  0  0
  1  6  2  0  0  0  0
  1 11  1  0  0  0  0
  1 23  1  0  0  0  0
  2 37  1  0  0  0  0
  3 37  1  0  0  0  0
  4 37  1  0  0  0  0
  7 24  1  0  0  0  0
  7 31  1  0  0  0  0
  8 34  1  0  0  0  0
  8 37  1  0  0  0  0
  9 12  1  0  0  0  0
  9 18  1  0  0  0  0
  9 19  1  0  0  0  0
 10 20  1  0  0  0  0
 10 21  1  0  0  0  0
 10 22  1  0  0  0  0
 11 15  1  0  0  0  0
 11 56  1  0  0  0  0
 12 13  1  0  0  0  0
 12 14  1  0  0  0  0
 12 38  1  0  0  0  0
 13 16  1  0  0  0  0
 13 39  1  0  0  0  0
 13 40  1  0  0  0  0
 14 17  1  0  0  0  0
 14 41  1  0  0  0  0
 14 42  1  0  0  0  0
 15 16  1  0  0  0  0
 15 17  1  0  0  0  0
 15 43  1  0  0  0  0
 16 44  1  0  0  0  0
 16 45  1  0  0  0  0
 17 46  1  0  0  0  0
 17 47  1  0  0  0  0
 18 20  1  0  0  0  0
 18 48  1  0  0  0  0
 18 49  1  0  0  0  0
 19 21  1  0  0  0  0
 19 50  1  0  0  0  0
 19 51  1  0  0  0  0
 20 52  1  0  0  0  0
 20 53  1  0  0  0  0
 21 54  1  0  0  0  0
 21 55  1  0  0  0  0
 22 24  1  0  0  0  0
 22 25  2  0  0  0  0
 23 27  2  0  0  0  0
 23 28  1  0  0  0  0
 24 26  2  0  0  0  0
 25 29  1  0  0  0  0
 25 57  1  0  0  0  0
 26 30  1  0  0  0  0
 26 58  1  0  0  0  0
 27 32  1  0  0  0  0
 27 59  1  0  0  0  0
 28 33  2  0  0  0  0
 28 60  1  0  0  0  0
 29 30  2  0  0  0  0
 29 61  1  0  0  0  0
 30 62  1  0  0  0  0
 31 35  1  0  0  0  0
 31 36  1  0  0  0  0
 31 63  1  0  0  0  0
 32 34  2  0  0  0  0
 32 64  1  0  0  0  0
 33 34  1  0  0  0  0
 33 65  1  0  0  0  0
 35 66  1  0  0  0  0
 35 67  1  0  0  0  0
 35 68  1  0  0  0  0
 36 69  1  0  0  0  0
 36 70  1  0  0  0  0
 36 71  1  0  0  0  0
M  END
> <PUBCHEM_COMPOUND_CID>
44431557

> <PUBCHEM_COMPOUND_CANONICALIZED>
1

> <PUBCHEM_CACTVS_COMPLEXITY>
799

> <PUBCHEM_CACTVS_HBOND_ACCEPTOR>
10

> <PUBCHEM_CACTVS_HBOND_DONOR>
1

> <PUBCHEM_CACTVS_ROTATABLE_BOND>
8

> <PUBCHEM_CACTVS_SUBSKEYS>
AAADcfB7OYBAAAAAAAAAAAAAAAAAAAAAAAA8YMEAAAAAAAABQAAAHwQQQAAACDzh0BYyx4NABAKAACRCQHDCCBAhIgAIiJgPbIgOZiLEsZuXOCjk0BHY6AeQQAAAAIAAAAAAEAABAQAAAAAgAAAAAAAAAA==

> <PUBCHEM_IUPAC_OPENEYE_NAME>
N-[4-[4-(2-isopropoxyphenyl)piperazin-1-yl]cyclohexyl]-4-(trifluoromethoxy)benzenesulfonamide

> <PUBCHEM_IUPAC_CAS_NAME>
N-[4-[4-(2-propan-2-yloxyphenyl)-1-piperazinyl]cyclohexyl]-4-(trifluoromethoxy)benzenesulfonamide

> <PUBCHEM_IUPAC_NAME_MARKUP>
<I>N</I>-[4-[4-(2-propan-2-yloxyphenyl)piperazin-1-yl]cyclohexyl]-4-(trifluoromethoxy)benzenesulfonamide

> <PUBCHEM_IUPAC_NAME>
N-[4-[4-(2-propan-2-yloxyphenyl)piperazin-1-yl]cyclohexyl]-4-(trifluoromethoxy)benzenesulfonamide

> <PUBCHEM_IUPAC_SYSTEMATIC_NAME>
N-[4-[4-(2-propan-2-yloxyphenyl)piperazin-1-yl]cyclohexyl]-4-(trifluoromethyloxy)benzenesulfonamide

> <PUBCHEM_IUPAC_TRADITIONAL_NAME>
N-[4-[4-(2-isopropoxyphenyl)piperazino]cyclohexyl]-4-(trifluoromethoxy)benzenesulfonamide

> <PUBCHEM_IUPAC_INCHI>
InChI=1S/C26H34F3N3O4S/c1-19(2)35-25-6-4-3-5-24(25)32-17-15-31(16-18-32)21-9-7-20(8-10-21)30-37(33,34)23-13-11-22(12-14-23)36-26(27,28)29/h3-6,11-14,19-21,30H,7-10,15-18H2,1-2H3

> <PUBCHEM_IUPAC_INCHIKEY>
STAISUAHBRKLLH-UHFFFAOYSA-N

> <PUBCHEM_XLOGP3_AA>
5.8

> <PUBCHEM_EXACT_MASS>
541.22221223

> <PUBCHEM_MOLECULAR_FORMULA>
C26H34F3N3O4S

> <PUBCHEM_MOLECULAR_WEIGHT>
541.6

> <PUBCHEM_OPENEYE_CAN_SMILES>
CC(C)OC1=CC=CC=C1N2CCN(CC2)C3CCC(CC3)NS(=O)(=O)C4=CC=C(C=C4)OC(F)(F)F

> <PUBCHEM_OPENEYE_ISO_SMILES>
CC(C)OC1=CC=CC=C1N2CCN(CC2)C3CCC(CC3)NS(=O)(=O)C4=CC=C(C=C4)OC(F)(F)F

> <PUBCHEM_CACTVS_TPSA>
79.5

> <PUBCHEM_MONOISOTOPIC_WEIGHT>
541.22221223

> <PUBCHEM_TOTAL_CHARGE>
0

> <PUBCHEM_HEAVY_ATOM_COUNT>
37

> <PUBCHEM_ATOM_DEF_STEREO_COUNT>
0

> <PUBCHEM_ATOM_UDEF_STEREO_COUNT>
0

> <PUBCHEM_BOND_DEF_STEREO_COUNT>
0

> <PUBCHEM_BOND_UDEF_STEREO_COUNT>
0

> <PUBCHEM_ISOTOPIC_ATOM_COUNT>
0

> <PUBCHEM_COMPONENT_COUNT>
1

> <PUBCHEM_CACTVS_TAUTO_COUNT>
-1

> <PUBCHEM_COORDINATE_TYPE>
1
5
255

> <PUBCHEM_BONDANNOTATIONS>
22  24  8
22  25  8
23  27  8
23  28  8
24  26  8
25  29  8
26  30  8
27  32  8
28  33  8
29  30  8
32  34  8
33  34  8

$$$$
