25130155
  -OEChem-09292322232D

 48 52  0     1  0  0  0  0  0999 V2000
    8.7332    3.5649    0.0000 Cl  0  0  0  0  0  0  0  0  0  0  0  0
    7.1594    4.7989    0.0000 Cl  0  0  0  0  0  0  0  0  0  0  0  0
    4.6783   -4.6036    0.0000 S   0  0  0  0  0  0  0  0  0  0  0  0
    5.8089    1.4558    0.0000 O   0  0  0  0  0  0  0  0  0  0  0  0
    5.9674   -1.8374    0.0000 N   0  0  0  0  0  0  0  0  0  0  0  0
    7.7368   -0.8917    0.0000 C   0  0  2  0  0  0  0  0  0  0  0  0
    7.1907   -1.7295    0.0000 C   0  0  1  0  0  0  0  0  0  0  0  0
    6.5958    0.8388    0.0000 C   0  0  0  0  0  0  0  0  0  0  0  0
    7.5657    0.5952    0.0000 C   0  0  0  0  0  0  0  0  0  0  0  0
    6.0644   -0.0083    0.0000 C   0  0  0  0  0  0  0  0  0  0  0  0
    9.0498   -1.5932    0.0000 C   0  0  0  0  0  0  0  0  0  0  0  0
    8.5037   -2.4309    0.0000 C   0  0  0  0  0  0  0  0  0  0  0  0
    4.9889   -2.0436    0.0000 C   0  0  0  0  0  0  0  0  0  0  0  0
    6.7367    1.8288    0.0000 C   0  0  0  0  0  0  0  0  0  0  0  0
    4.6783   -2.9942    0.0000 C   0  0  0  0  0  0  0  0  0  0  0  0
    7.6645    2.2018    0.0000 C   0  0  0  0  0  0  0  0  0  0  0  0
    5.9498    2.4458    0.0000 C   0  0  0  0  0  0  0  0  0  0  0  0
    3.7320   -3.2989    0.0000 C   0  0  0  0  0  0  0  0  0  0  0  0
    5.2619   -3.7989    0.0000 C   0  0  0  0  0  0  0  0  0  0  0  0
    7.8054    3.1918    0.0000 C   0  0  0  0  0  0  0  0  0  0  0  0
    6.0906    3.4359    0.0000 C   0  0  0  0  0  0  0  0  0  0  0  0
    3.7320   -4.2989    0.0000 C   0  0  0  0  0  0  0  0  0  0  0  0
    7.0185    3.8089    0.0000 C   0  0  0  0  0  0  0  0  0  0  0  0
    2.8660   -2.7989    0.0000 C   0  0  0  0  0  0  0  0  0  0  0  0
    2.8660   -4.7989    0.0000 C   0  0  0  0  0  0  0  0  0  0  0  0
    2.0000   -3.2989    0.0000 C   0  0  0  0  0  0  0  0  0  0  0  0
    2.0000   -4.2989    0.0000 C   0  0  0  0  0  0  0  0  0  0  0  0
    8.2010   -0.1797    0.0000 H   0  0  0  0  0  0  0  0  0  0  0  0
    6.7266   -2.4415    0.0000 H   0  0  0  0  0  0  0  0  0  0  0  0
    8.1857    0.5917    0.0000 H   0  0  0  0  0  0  0  0  0  0  0  0
    7.6435    1.2103    0.0000 H   0  0  0  0  0  0  0  0  0  0  0  0
    5.5918    0.3929    0.0000 H   0  0  0  0  0  0  0  0  0  0  0  0
    5.5996   -0.4186    0.0000 H   0  0  0  0  0  0  0  0  0  0  0  0
    9.5788   -1.9165    0.0000 H   0  0  0  0  0  0  0  0  0  0  0  0
    9.3577   -1.0550    0.0000 H   0  0  0  0  0  0  0  0  0  0  0  0
    8.1958   -2.9690    0.0000 H   0  0  0  0  0  0  0  0  0  0  0  0
    9.0327   -2.7542    0.0000 H   0  0  0  0  0  0  0  0  0  0  0  0
    4.9684   -1.4240    0.0000 H   0  0  0  0  0  0  0  0  0  0  0  0
    4.3751   -1.9563    0.0000 H   0  0  0  0  0  0  0  0  0  0  0  0
    5.2336    1.2246    0.0000 H   0  0  0  0  0  0  0  0  0  0  0  0
    8.1524    1.8193    0.0000 H   0  0  0  0  0  0  0  0  0  0  0  0
    5.3745    2.2146    0.0000 H   0  0  0  0  0  0  0  0  0  0  0  0
    5.8819   -3.7989    0.0000 H   0  0  0  0  0  0  0  0  0  0  0  0
    5.6027    3.8184    0.0000 H   0  0  0  0  0  0  0  0  0  0  0  0
    2.8660   -2.1789    0.0000 H   0  0  0  0  0  0  0  0  0  0  0  0
    2.8660   -5.4189    0.0000 H   0  0  0  0  0  0  0  0  0  0  0  0
    1.4631   -2.9889    0.0000 H   0  0  0  0  0  0  0  0  0  0  0  0
    1.4631   -4.6089    0.0000 H   0  0  0  0  0  0  0  0  0  0  0  0
  1 20  1  0  0  0  0
  2 23  1  0  0  0  0
  3 19  1  0  0  0  0
  3 22  1  0  0  0  0
  4  8  1  0  0  0  0
  4 40  1  0  0  0  0
  5  6  1  0  0  0  0
  5  7  1  0  0  0  0
  5 13  1  0  0  0  0
  6  9  1  0  0  0  0
  6 11  1  0  0  0  0
  6 28  1  1  0  0  0
  7 10  1  0  0  0  0
  7 12  1  0  0  0  0
  7 29  1  6  0  0  0
  8  9  1  0  0  0  0
  8 10  1  0  0  0  0
  8 14  1  0  0  0  0
  9 30  1  0  0  0  0
  9 31  1  0  0  0  0
 10 32  1  0  0  0  0
 10 33  1  0  0  0  0
 11 12  1  0  0  0  0
 11 34  1  0  0  0  0
 11 35  1  0  0  0  0
 12 36  1  0  0  0  0
 12 37  1  0  0  0  0
 13 15  1  0  0  0  0
 13 38  1  0  0  0  0
 13 39  1  0  0  0  0
 14 16  2  0  0  0  0
 14 17  1  0  0  0  0
 15 18  1  0  0  0  0
 15 19  2  0  0  0  0
 16 20  1  0  0  0  0
 16 41  1  0  0  0  0
 17 21  2  0  0  0  0
 17 42  1  0  0  0  0
 18 22  1  0  0  0  0
 18 24  2  0  0  0  0
 19 43  1  0  0  0  0
 20 23  2  0  0  0  0
 21 23  1  0  0  0  0
 21 44  1  0  0  0  0
 22 25  2  0  0  0  0
 24 26  1  0  0  0  0
 24 45  1  0  0  0  0
 25 27  1  0  0  0  0
 25 46  1  0  0  0  0
 26 27  2  0  0  0  0
 26 47  1  0  0  0  0
 27 48  1  0  0  0  0
M  END
> <PUBCHEM_COMPOUND_CID>
25130155

> <PUBCHEM_COMPOUND_CANONICALIZED>
1

> <PUBCHEM_CACTVS_COMPLEXITY>
534

> <PUBCHEM_CACTVS_HBOND_ACCEPTOR>
3

> <PUBCHEM_CACTVS_HBOND_DONOR>
1

> <PUBCHEM_CACTVS_ROTATABLE_BOND>
3

> <PUBCHEM_CACTVS_SUBSKEYS>
AAADceB6IABGAAAAAAAAAAAAAAAAAWJAAAA8YIAABgAAAEgB9AAAHgYACAAADG7F2CSwAcMAAgiEAiBCAACDAIAgDRBIilgIDogIJiKhkxGEcAhmwAGomAeQwOAOhAAAIAAEAAQIAABAAAgACAAAAAAAAA==

> <PUBCHEM_IUPAC_OPENEYE_NAME>
(1S,5R)-8-(benzothiophen-3-ylmethyl)-3-(3,4-dichlorophenyl)-8-azabicyclo[3.2.1]octan-3-ol

> <PUBCHEM_IUPAC_CAS_NAME>
(1S,5R)-8-(1-benzothiophen-3-ylmethyl)-3-(3,4-dichlorophenyl)-8-azabicyclo[3.2.1]octan-3-ol

> <PUBCHEM_IUPAC_NAME_MARKUP>
(1<I>S</I>,5<I>R</I>)-8-(1-benzothiophen-3-ylmethyl)-3-(3,4-dichlorophenyl)-8-azabicyclo[3.2.1]octan-3-ol

> <PUBCHEM_IUPAC_NAME>
(1S,5R)-8-(1-benzothiophen-3-ylmethyl)-3-(3,4-dichlorophenyl)-8-azabicyclo[3.2.1]octan-3-ol

> <PUBCHEM_IUPAC_SYSTEMATIC_NAME>
(1S,5R)-8-(1-benzothiophen-3-ylmethyl)-3-(3,4-dichlorophenyl)-8-azabicyclo[3.2.1]octan-3-ol

> <PUBCHEM_IUPAC_TRADITIONAL_NAME>
(1S,5R)-8-(benzothiophen-3-ylmethyl)-3-(3,4-dichlorophenyl)-8-azabicyclo[3.2.1]octan-3-ol

> <PUBCHEM_IUPAC_INCHI>
InChI=1S/C22H21Cl2NOS/c23-19-8-5-15(9-20(19)24)22(26)10-16-6-7-17(11-22)25(16)12-14-13-27-21-4-2-1-3-18(14)21/h1-5,8-9,13,16-17,26H,6-7,10-12H2/t16-,17+,22?

> <PUBCHEM_IUPAC_INCHIKEY>
VFPMJQLPEIDGKV-AQKKSAQBSA-N

> <PUBCHEM_XLOGP3_AA>
5.8

> <PUBCHEM_EXACT_MASS>
417.0720909

> <PUBCHEM_MOLECULAR_FORMULA>
C22H21Cl2NOS

> <PUBCHEM_MOLECULAR_WEIGHT>
418.4

> <PUBCHEM_OPENEYE_CAN_SMILES>
C1CC2CC(CC1N2CC3=CSC4=CC=CC=C43)(C5=CC(=C(C=C5)Cl)Cl)O

> <PUBCHEM_OPENEYE_ISO_SMILES>
C1C[C@H]2CC(C[C@@H]1N2CC3=CSC4=CC=CC=C43)(C5=CC(=C(C=C5)Cl)Cl)O

> <PUBCHEM_CACTVS_TPSA>
51.7

> <PUBCHEM_MONOISOTOPIC_WEIGHT>
417.0720909

> <PUBCHEM_TOTAL_CHARGE>
0

> <PUBCHEM_HEAVY_ATOM_COUNT>
27

> <PUBCHEM_ATOM_DEF_STEREO_COUNT>
2

> <PUBCHEM_ATOM_UDEF_STEREO_COUNT>
0

> <PUBCHEM_BOND_DEF_STEREO_COUNT>
0

> <PUBCHEM_BOND_UDEF_STEREO_COUNT>
0

> <PUBCHEM_ISOTOPIC_ATOM_COUNT>
0

> <PUBCHEM_COMPONENT_COUNT>
1

> <PUBCHEM_CACTVS_TAUTO_COUNT>
-1

> <PUBCHEM_COORDINATE_TYPE>
1
5
255

> <PUBCHEM_BONDANNOTATIONS>
14  16  8
14  17  8
15  18  8
15  19  8
16  20  8
17  21  8
18  22  8
18  24  8
20  23  8
21  23  8
22  25  8
24  26  8
25  27  8
26  27  8
3  19  8
3  22  8
6  28  5
7  29  6

$$$$
