57383427
  -OEChem-09292321582D

 56 59  0     1  0  0  0  0  0999 V2000
   12.8166   -1.4589    0.0000 S   0  0  3  0  0  0  0  0  0  0  0  0
   13.7505    1.6327    0.0000 O   0  0  0  0  0  0  0  0  0  0  0  0
   12.8166   -2.4589    0.0000 O   0  0  0  0  0  0  0  0  0  0  0  0
    8.7604    0.8439    0.0000 O   0  0  0  0  0  0  0  0  0  0  0  0
    2.7357    0.0056    0.0000 O   0  0  0  0  0  0  0  0  0  0  0  0
   12.3166    0.7317    0.0000 N   0  0  0  0  0  0  0  0  0  0  0  0
    8.2435   -0.8092    0.0000 N   0  0  0  0  0  0  0  0  0  0  0  0
   11.6931   -0.0501    0.0000 C   0  0  0  0  0  0  0  0  0  0  0  0
   11.9156   -1.0250    0.0000 C   0  0  0  0  0  0  0  0  0  0  0  0
   13.9401   -0.0501    0.0000 C   0  0  0  0  0  0  0  0  0  0  0  0
   11.8827    1.6327    0.0000 C   0  0  0  0  0  0  0  0  0  0  0  0
   13.7175   -1.0250    0.0000 C   0  0  0  0  0  0  0  0  0  0  0  0
   13.3166    0.7317    0.0000 C   0  0  0  0  0  0  0  0  0  0  0  0
   10.7026    0.2722    0.0000 C   0  0  0  0  0  0  0  0  0  0  0  0
    9.9336   -0.4303    0.0000 C   0  0  0  0  0  0  0  0  0  0  0  0
   11.1630   -1.7452    0.0000 C   0  0  0  0  0  0  0  0  0  0  0  0
   10.1654   -1.4459    0.0000 C   0  0  0  0  0  0  0  0  0  0  0  0
    7.2891   -0.5108    0.0000 C   0  0  0  0  0  0  0  0  0  0  0  0
   14.9306    0.2722    0.0000 C   0  0  0  0  0  0  0  0  0  0  0  0
    8.9792   -0.1319    0.0000 C   0  0  0  0  0  0  0  0  0  0  0  0
   14.4701   -1.7452    0.0000 C   0  0  0  0  0  0  0  0  0  0  0  0
   12.4460    2.4589    0.0000 C   0  0  0  0  0  0  0  0  0  0  0  0
    6.5534   -1.1881    0.0000 C   0  0  0  0  0  0  0  0  0  0  0  0
    5.5990   -0.8897    0.0000 C   0  0  0  0  0  0  0  0  0  0  0  0
   15.6996   -0.4304    0.0000 C   0  0  0  0  0  0  0  0  0  0  0  0
   15.4678   -1.4459    0.0000 C   0  0  0  0  0  0  0  0  0  0  0  0
    5.3802    0.0861    0.0000 C   0  0  0  0  0  0  0  0  0  0  0  0
    4.8633   -1.5670    0.0000 C   0  0  0  0  0  0  0  0  0  0  0  0
    4.4258    0.3845    0.0000 C   0  0  0  0  0  0  0  0  0  0  0  0
    3.9088   -1.2686    0.0000 C   0  0  0  0  0  0  0  0  0  0  0  0
    3.6901   -0.2928    0.0000 C   0  0  0  0  0  0  0  0  0  0  0  0
    2.0000   -0.6717    0.0000 C   0  0  0  0  0  0  0  0  0  0  0  0
   11.4389    2.0656    0.0000 H   0  0  0  0  0  0  0  0  0  0  0  0
   11.3793    1.2708    0.0000 H   0  0  0  0  0  0  0  0  0  0  0  0
   10.5716    0.8782    0.0000 H   0  0  0  0  0  0  0  0  0  0  0  0
   11.3080   -2.3480    0.0000 H   0  0  0  0  0  0  0  0  0  0  0  0
    9.7125   -1.8693    0.0000 H   0  0  0  0  0  0  0  0  0  0  0  0
    7.5740    0.0398    0.0000 H   0  0  0  0  0  0  0  0  0  0  0  0
    6.7963   -0.1345    0.0000 H   0  0  0  0  0  0  0  0  0  0  0  0
   15.0616    0.8782    0.0000 H   0  0  0  0  0  0  0  0  0  0  0  0
   14.3252   -2.3481    0.0000 H   0  0  0  0  0  0  0  0  0  0  0  0
    6.2684   -1.7388    0.0000 H   0  0  0  0  0  0  0  0  0  0  0  0
    7.0462   -1.5644    0.0000 H   0  0  0  0  0  0  0  0  0  0  0  0
   12.9583    2.1097    0.0000 H   0  0  0  0  0  0  0  0  0  0  0  0
   12.7953    2.9712    0.0000 H   0  0  0  0  0  0  0  0  0  0  0  0
   11.9338    2.8082    0.0000 H   0  0  0  0  0  0  0  0  0  0  0  0
    8.3791   -1.4142    0.0000 H   0  0  0  0  0  0  0  0  0  0  0  0
   16.2913   -0.2454    0.0000 H   0  0  0  0  0  0  0  0  0  0  0  0
   15.9207   -1.8694    0.0000 H   0  0  0  0  0  0  0  0  0  0  0  0
    5.8363    0.5060    0.0000 H   0  0  0  0  0  0  0  0  0  0  0  0
    4.9989   -2.1720    0.0000 H   0  0  0  0  0  0  0  0  0  0  0  0
    4.2902    0.9895    0.0000 H   0  0  0  0  0  0  0  0  0  0  0  0
    3.4527   -1.6885    0.0000 H   0  0  0  0  0  0  0  0  0  0  0  0
    1.5800   -0.2156    0.0000 H   0  0  0  0  0  0  0  0  0  0  0  0
    1.5439   -1.0916    0.0000 H   0  0  0  0  0  0  0  0  0  0  0  0
    2.4200   -1.1278    0.0000 H   0  0  0  0  0  0  0  0  0  0  0  0
  1  3  2  0  0  0  0
  1  9  1  0  0  0  0
  1 12  1  0  0  0  0
  2 13  2  0  0  0  0
  4 20  2  0  0  0  0
  5 31  1  0  0  0  0
  5 32  1  0  0  0  0
  6  8  1  0  0  0  0
  6 11  1  0  0  0  0
  6 13  1  0  0  0  0
  7 18  1  0  0  0  0
  7 20  1  0  0  0  0
  7 47  1  0  0  0  0
  8  9  2  0  0  0  0
  8 14  1  0  0  0  0
  9 16  1  0  0  0  0
 10 12  1  0  0  0  0
 10 13  1  0  0  0  0
 10 19  2  0  0  0  0
 11 22  1  0  0  0  0
 11 33  1  0  0  0  0
 11 34  1  0  0  0  0
 12 21  2  0  0  0  0
 14 15  2  0  0  0  0
 14 35  1  0  0  0  0
 15 17  1  0  0  0  0
 15 20  1  0  0  0  0
 16 17  2  0  0  0  0
 16 36  1  0  0  0  0
 17 37  1  0  0  0  0
 18 23  1  0  0  0  0
 18 38  1  0  0  0  0
 18 39  1  0  0  0  0
 19 25  1  0  0  0  0
 19 40  1  0  0  0  0
 21 26  1  0  0  0  0
 21 41  1  0  0  0  0
 22 44  1  0  0  0  0
 22 45  1  0  0  0  0
 22 46  1  0  0  0  0
 23 24  1  0  0  0  0
 23 42  1  0  0  0  0
 23 43  1  0  0  0  0
 24 27  2  0  0  0  0
 24 28  1  0  0  0  0
 25 26  2  0  0  0  0
 25 48  1  0  0  0  0
 26 49  1  0  0  0  0
 27 29  1  0  0  0  0
 27 50  1  0  0  0  0
 28 30  2  0  0  0  0
 28 51  1  0  0  0  0
 29 31  2  0  0  0  0
 29 52  1  0  0  0  0
 30 31  1  0  0  0  0
 30 53  1  0  0  0  0
 32 54  1  0  0  0  0
 32 55  1  0  0  0  0
 32 56  1  0  0  0  0
M  END
> <PUBCHEM_COMPOUND_CID>
57383427

> <PUBCHEM_COMPOUND_CANONICALIZED>
1

> <PUBCHEM_CACTVS_COMPLEXITY>
693

> <PUBCHEM_CACTVS_HBOND_ACCEPTOR>
5

> <PUBCHEM_CACTVS_HBOND_DONOR>
1

> <PUBCHEM_CACTVS_ROTATABLE_BOND>
6

> <PUBCHEM_CACTVS_SUBSKEYS>
AAADceB7OABAAAAAAAAAAAAAAAAAAAAAAAAwYMAABYAAAAABUAAAHgQQAAAADAzB2AYyx4PABAqIAiVSUEDCCAAlKhAIiJ0ObMgMJjLktZuEMShk1hHo6YecyICOMAAAQAAEAQBgAACAAAgCAAAAAAAAAA==

> <PUBCHEM_IUPAC_OPENEYE_NAME>
5-ethyl-N-[2-(4-methoxyphenyl)ethyl]-6,11-dioxo-benzo[b][1,4]benzothiazepine-3-carboxamide

> <PUBCHEM_IUPAC_CAS_NAME>
5-ethyl-N-[2-(4-methoxyphenyl)ethyl]-6,11-dioxo-3-benzo[b][1,4]benzothiazepinecarboxamide

> <PUBCHEM_IUPAC_NAME_MARKUP>
5-ethyl-<I>N</I>-[2-(4-methoxyphenyl)ethyl]-6,11-dioxobenzo[b][1,4]benzothiazepine-3-carboxamide

> <PUBCHEM_IUPAC_NAME>
5-ethyl-N-[2-(4-methoxyphenyl)ethyl]-6,11-dioxobenzo[b][1,4]benzothiazepine-3-carboxamide

> <PUBCHEM_IUPAC_SYSTEMATIC_NAME>
5-ethyl-N-[2-(4-methoxyphenyl)ethyl]-6,11-bis(oxidanylidene)benzo[b][1,4]benzothiazepine-3-carboxamide

> <PUBCHEM_IUPAC_TRADITIONAL_NAME>
5-ethyl-6,11-diketo-N-[2-(4-methoxyphenyl)ethyl]benzo[b][1,4]benzothiazepine-3-carboxamide

> <PUBCHEM_IUPAC_INCHI>
InChI=1S/C25H24N2O4S/c1-3-27-21-16-18(24(28)26-15-14-17-8-11-19(31-2)12-9-17)10-13-23(21)32(30)22-7-5-4-6-20(22)25(27)29/h4-13,16H,3,14-15H2,1-2H3,(H,26,28)

> <PUBCHEM_IUPAC_INCHIKEY>
YARXAQOOCYBPAE-UHFFFAOYSA-N

> <PUBCHEM_XLOGP3_AA>
3.4

> <PUBCHEM_EXACT_MASS>
448.14567842

> <PUBCHEM_MOLECULAR_FORMULA>
C25H24N2O4S

> <PUBCHEM_MOLECULAR_WEIGHT>
448.5

> <PUBCHEM_OPENEYE_CAN_SMILES>
CCN1C2=C(C=CC(=C2)C(=O)NCCC3=CC=C(C=C3)OC)S(=O)C4=CC=CC=C4C1=O

> <PUBCHEM_OPENEYE_ISO_SMILES>
CCN1C2=C(C=CC(=C2)C(=O)NCCC3=CC=C(C=C3)OC)S(=O)C4=CC=CC=C4C1=O

> <PUBCHEM_CACTVS_TPSA>
94.9

> <PUBCHEM_MONOISOTOPIC_WEIGHT>
448.14567842

> <PUBCHEM_TOTAL_CHARGE>
0

> <PUBCHEM_HEAVY_ATOM_COUNT>
32

> <PUBCHEM_ATOM_DEF_STEREO_COUNT>
0

> <PUBCHEM_ATOM_UDEF_STEREO_COUNT>
1

> <PUBCHEM_BOND_DEF_STEREO_COUNT>
0

> <PUBCHEM_BOND_UDEF_STEREO_COUNT>
0

> <PUBCHEM_ISOTOPIC_ATOM_COUNT>
0

> <PUBCHEM_COMPONENT_COUNT>
1

> <PUBCHEM_CACTVS_TAUTO_COUNT>
-1

> <PUBCHEM_COORDINATE_TYPE>
1
5
255

> <PUBCHEM_BONDANNOTATIONS>
1  12  3
10  12  8
10  19  8
12  21  8
14  15  8
15  17  8
16  17  8
19  25  8
21  26  8
24  27  8
24  28  8
25  26  8
27  29  8
28  30  8
29  31  8
30  31  8
8  14  8
8  9  8
9  16  8

$$$$
