138671108
  -OEChem-09292322452D

 68 71  0     1  0  0  0  0  0999 V2000
   16.6456    0.0283    0.0000 S   0  0  0  0  0  0  0  0  0  0  0  0
   20.7375   -1.6221    0.0000 F   0  0  0  0  0  0  0  0  0  0  0  0
   19.7425   -2.6271    0.0000 F   0  0  0  0  0  0  0  0  0  0  0  0
   19.7325   -0.6271    0.0000 F   0  0  0  0  0  0  0  0  0  0  0  0
    7.9999    1.7785    0.0000 O   0  0  0  0  0  0  0  0  0  0  0  0
   18.2332   -0.7686    0.0000 O   0  0  0  0  0  0  0  0  0  0  0  0
   13.5128   -0.7921    0.0000 N   0  0  3  0  0  0  0  0  0  0  0  0
    8.0086    0.0465    0.0000 N   0  0  0  0  0  0  0  0  0  0  0  0
   16.6537   -1.5812    0.0000 N   0  0  0  0  0  0  0  0  0  0  0  0
    3.5043    0.8901    0.0000 N   0  0  0  0  0  0  0  0  0  0  0  0
    3.4957    2.6221    0.0000 N   0  0  0  0  0  0  0  0  0  0  0  0
   11.0085    0.0615    0.0000 C   0  0  0  0  0  0  0  0  0  0  0  0
   10.5042    0.9250    0.0000 C   0  0  0  0  0  0  0  0  0  0  0  0
   10.5128   -0.8071    0.0000 C   0  0  0  0  0  0  0  0  0  0  0  0
    9.0086    0.0515    0.0000 C   0  0  0  0  0  0  0  0  0  0  0  0
    9.5042    0.9200    0.0000 C   0  0  0  0  0  0  0  0  0  0  0  0
    9.5129   -0.8120    0.0000 C   0  0  0  0  0  0  0  0  0  0  0  0
   12.0085    0.0664    0.0000 C   0  0  0  0  0  0  0  0  0  0  0  0
   12.5128   -0.7971    0.0000 C   0  0  0  0  0  0  0  0  0  0  0  0
   13.9422    0.1110    0.0000 C   0  0  0  0  0  0  0  0  0  0  0  0
   13.9512   -1.6909    0.0000 C   0  0  0  0  0  0  0  0  0  0  0  0
   14.9160    0.3384    0.0000 C   0  0  0  0  0  0  0  0  0  0  0  0
   14.9272   -1.9086    0.0000 C   0  0  0  0  0  0  0  0  0  0  0  0
    7.5042    0.9100    0.0000 C   0  0  0  0  0  0  0  0  0  0  0  0
   15.7009   -0.2812    0.0000 C   0  0  0  0  0  0  0  0  0  0  0  0
   15.7059   -1.2812    0.0000 C   0  0  0  0  0  0  0  0  0  0  0  0
    6.5043    0.9050    0.0000 C   0  0  0  0  0  0  0  0  0  0  0  0
   17.2332   -0.7735    0.0000 C   0  0  0  0  0  0  0  0  0  0  0  0
    6.0000    1.7686    0.0000 C   0  0  0  0  0  0  0  0  0  0  0  0
    5.0000    1.7636    0.0000 C   0  0  0  0  0  0  0  0  0  0  0  0
   18.7375   -1.6321    0.0000 C   0  0  0  0  0  0  0  0  0  0  0  0
   19.7375   -1.6271    0.0000 C   0  0  0  0  0  0  0  0  0  0  0  0
    4.5043    0.8951    0.0000 C   0  0  0  0  0  0  0  0  0  0  0  0
    4.4957    2.6271    0.0000 C   0  0  0  0  0  0  0  0  0  0  0  0
    3.0000    1.7536    0.0000 C   0  0  0  0  0  0  0  0  0  0  0  0
    2.0000    1.7486    0.0000 C   0  0  0  0  0  0  0  0  0  0  0  0
   11.3212   -0.4739    0.0000 H   0  0  0  0  0  0  0  0  0  0  0  0
   11.0858    1.1399    0.0000 H   0  0  0  0  0  0  0  0  0  0  0  0
   10.3935    1.5350    0.0000 H   0  0  0  0  0  0  0  0  0  0  0  0
   10.4082   -1.4182    0.0000 H   0  0  0  0  0  0  0  0  0  0  0  0
   11.0965   -1.0162    0.0000 H   0  0  0  0  0  0  0  0  0  0  0  0
    8.6959    0.5869    0.0000 H   0  0  0  0  0  0  0  0  0  0  0  0
    9.6088    1.5311    0.0000 H   0  0  0  0  0  0  0  0  0  0  0  0
    8.9206    1.1291    0.0000 H   0  0  0  0  0  0  0  0  0  0  0  0
    8.9313   -1.0270    0.0000 H   0  0  0  0  0  0  0  0  0  0  0  0
    9.6236   -1.4221    0.0000 H   0  0  0  0  0  0  0  0  0  0  0  0
   12.5901    0.2814    0.0000 H   0  0  0  0  0  0  0  0  0  0  0  0
   11.8978    0.6765    0.0000 H   0  0  0  0  0  0  0  0  0  0  0  0
   11.9313   -1.0120    0.0000 H   0  0  0  0  0  0  0  0  0  0  0  0
   12.6235   -1.4071    0.0000 H   0  0  0  0  0  0  0  0  0  0  0  0
    7.7012   -0.4920    0.0000 H   0  0  0  0  0  0  0  0  0  0  0  0
   13.9391    0.7310    0.0000 H   0  0  0  0  0  0  0  0  0  0  0  0
   13.3371    0.2460    0.0000 H   0  0  0  0  0  0  0  0  0  0  0  0
   13.3474   -1.8319    0.0000 H   0  0  0  0  0  0  0  0  0  0  0  0
   13.9543   -2.3109    0.0000 H   0  0  0  0  0  0  0  0  0  0  0  0
   15.3988    0.7274    0.0000 H   0  0  0  0  0  0  0  0  0  0  0  0
   14.6442    0.8957    0.0000 H   0  0  0  0  0  0  0  0  0  0  0  0
   14.6610   -2.4685    0.0000 H   0  0  0  0  0  0  0  0  0  0  0  0
   15.4139   -2.2927    0.0000 H   0  0  0  0  0  0  0  0  0  0  0  0
    6.1969    0.3666    0.0000 H   0  0  0  0  0  0  0  0  0  0  0  0
    6.3073    2.3070    0.0000 H   0  0  0  0  0  0  0  0  0  0  0  0
   18.1560   -1.8470    0.0000 H   0  0  0  0  0  0  0  0  0  0  0  0
   18.8482   -2.2421    0.0000 H   0  0  0  0  0  0  0  0  0  0  0  0
    4.8170    0.3597    0.0000 H   0  0  0  0  0  0  0  0  0  0  0  0
    4.8030    3.1656    0.0000 H   0  0  0  0  0  0  0  0  0  0  0  0
    1.9969    2.3686    0.0000 H   0  0  0  0  0  0  0  0  0  0  0  0
    1.3800    1.7455    0.0000 H   0  0  0  0  0  0  0  0  0  0  0  0
    2.0031    1.1286    0.0000 H   0  0  0  0  0  0  0  0  0  0  0  0
  1 25  1  0  0  0  0
  1 28  1  0  0  0  0
  2 32  1  0  0  0  0
  3 32  1  0  0  0  0
  4 32  1  0  0  0  0
  5 24  2  0  0  0  0
  6 28  1  0  0  0  0
  6 31  1  0  0  0  0
  7 19  1  0  0  0  0
  7 20  1  0  0  0  0
  7 21  1  0  0  0  0
  8 15  1  0  0  0  0
  8 24  1  0  0  0  0
  8 51  1  0  0  0  0
  9 26  1  0  0  0  0
  9 28  2  0  0  0  0
 10 33  2  0  0  0  0
 10 35  1  0  0  0  0
 11 34  1  0  0  0  0
 11 35  2  0  0  0  0
 12 13  1  0  0  0  0
 12 14  1  0  0  0  0
 12 18  1  0  0  0  0
 12 37  1  0  0  0  0
 13 16  1  0  0  0  0
 13 38  1  0  0  0  0
 13 39  1  0  0  0  0
 14 17  1  0  0  0  0
 14 40  1  0  0  0  0
 14 41  1  0  0  0  0
 15 16  1  0  0  0  0
 15 17  1  0  0  0  0
 15 42  1  0  0  0  0
 16 43  1  0  0  0  0
 16 44  1  0  0  0  0
 17 45  1  0  0  0  0
 17 46  1  0  0  0  0
 18 19  1  0  0  0  0
 18 47  1  0  0  0  0
 18 48  1  0  0  0  0
 19 49  1  0  0  0  0
 19 50  1  0  0  0  0
 20 22  1  0  0  0  0
 20 52  1  0  0  0  0
 20 53  1  0  0  0  0
 21 23  1  0  0  0  0
 21 54  1  0  0  0  0
 21 55  1  0  0  0  0
 22 25  1  0  0  0  0
 22 56  1  0  0  0  0
 22 57  1  0  0  0  0
 23 26  1  0  0  0  0
 23 58  1  0  0  0  0
 23 59  1  0  0  0  0
 24 27  1  0  0  0  0
 25 26  2  0  0  0  0
 27 29  2  0  0  0  0
 27 60  1  0  0  0  0
 29 30  1  0  0  0  0
 29 61  1  0  0  0  0
 30 33  1  0  0  0  0
 30 34  2  0  0  0  0
 31 32  1  0  0  0  0
 31 62  1  0  0  0  0
 31 63  1  0  0  0  0
 33 64  1  0  0  0  0
 34 65  1  0  0  0  0
 35 36  1  0  0  0  0
 36 66  1  0  0  0  0
 36 67  1  0  0  0  0
 36 68  1  0  0  0  0
M  END
> <PUBCHEM_COMPOUND_CID>
138671108

> <PUBCHEM_COMPOUND_CANONICALIZED>
1

> <PUBCHEM_CACTVS_COMPLEXITY>
727

> <PUBCHEM_CACTVS_HBOND_ACCEPTOR>
10

> <PUBCHEM_CACTVS_HBOND_DONOR>
1

> <PUBCHEM_CACTVS_ROTATABLE_BOND>
8

> <PUBCHEM_CACTVS_SUBSKEYS>
AAADcfB7sYBAAAAAAAAAAAAAAAAAAWAAAAA8QAAABYAAAACx4AAAHwQQAAAADSjh3xYvkZfIFAisAzd3dACC8KlxCLgJ2LQ4RFiIKILgyUEMBAgoFgLIyacQgIAOAAAAAAAAAAAQAAAAAAAAAAAAAAAAAA==

> <PUBCHEM_IUPAC_OPENEYE_NAME>
(E)-3-(2-methylpyrimidin-5-yl)-N-[4-[2-[2-(2,2,2-trifluoroethoxy)-4,5,7,8-tetrahydrothiazolo[4,5-d]azepin-6-yl]ethyl]cyclohexyl]prop-2-enamide

> <PUBCHEM_IUPAC_CAS_NAME>
(E)-3-(2-methyl-5-pyrimidinyl)-N-[4-[2-[2-(2,2,2-trifluoroethoxy)-4,5,7,8-tetrahydrothiazolo[4,5-d]azepin-6-yl]ethyl]cyclohexyl]-2-propenamide

> <PUBCHEM_IUPAC_NAME_MARKUP>
(<I>E</I>)-3-(2-methylpyrimidin-5-yl)-<I>N</I>-[4-[2-[2-(2,2,2-trifluoroethoxy)-4,5,7,8-tetrahydro-[1,3]thiazolo[4,5-d]azepin-6-yl]ethyl]cyclohexyl]prop-2-enamide

> <PUBCHEM_IUPAC_NAME>
(E)-3-(2-methylpyrimidin-5-yl)-N-[4-[2-[2-(2,2,2-trifluoroethoxy)-4,5,7,8-tetrahydro-[1,3]thiazolo[4,5-d]azepin-6-yl]ethyl]cyclohexyl]prop-2-enamide

> <PUBCHEM_IUPAC_SYSTEMATIC_NAME>
(E)-3-(2-methylpyrimidin-5-yl)-N-[4-[2-[2-[2,2,2-tris(fluoranyl)ethoxy]-4,5,7,8-tetrahydro-[1,3]thiazolo[4,5-d]azepin-6-yl]ethyl]cyclohexyl]prop-2-enamide

> <PUBCHEM_IUPAC_TRADITIONAL_NAME>
(E)-3-(2-methylpyrimidin-5-yl)-N-[4-[2-[2-(2,2,2-trifluoroethoxy)-4,5,7,8-tetrahydrothiazol[4,5-d]azepin-6-yl]ethyl]cyclohexyl]acrylamide

> <PUBCHEM_IUPAC_INCHI>
InChI=1S/C25H32F3N5O2S/c1-17-29-14-19(15-30-17)4-7-23(34)31-20-5-2-18(3-6-20)8-11-33-12-9-21-22(10-13-33)36-24(32-21)35-16-25(26,27)28/h4,7,14-15,18,20H,2-3,5-6,8-13,16H2,1H3,(H,31,34)/b7-4+

> <PUBCHEM_IUPAC_INCHIKEY>
SGDDGYVCUYRPDC-QPJJXVBHSA-N

> <PUBCHEM_XLOGP3_AA>
4.7

> <PUBCHEM_EXACT_MASS>
523.22288094

> <PUBCHEM_MOLECULAR_FORMULA>
C25H32F3N5O2S

> <PUBCHEM_MOLECULAR_WEIGHT>
523.6

> <PUBCHEM_OPENEYE_CAN_SMILES>
CC1=NC=C(C=N1)C=CC(=O)NC2CCC(CC2)CCN3CCC4=C(CC3)SC(=N4)OCC(F)(F)F

> <PUBCHEM_OPENEYE_ISO_SMILES>
CC1=NC=C(C=N1)/C=C/C(=O)NC2CCC(CC2)CCN3CCC4=C(CC3)SC(=N4)OCC(F)(F)F

> <PUBCHEM_CACTVS_TPSA>
109

> <PUBCHEM_MONOISOTOPIC_WEIGHT>
523.22288094

> <PUBCHEM_TOTAL_CHARGE>
0

> <PUBCHEM_HEAVY_ATOM_COUNT>
36

> <PUBCHEM_ATOM_DEF_STEREO_COUNT>
0

> <PUBCHEM_ATOM_UDEF_STEREO_COUNT>
0

> <PUBCHEM_BOND_DEF_STEREO_COUNT>
1

> <PUBCHEM_BOND_UDEF_STEREO_COUNT>
0

> <PUBCHEM_ISOTOPIC_ATOM_COUNT>
0

> <PUBCHEM_COMPONENT_COUNT>
1

> <PUBCHEM_CACTVS_TAUTO_COUNT>
-1

> <PUBCHEM_COORDINATE_TYPE>
1
5
255

> <PUBCHEM_BONDANNOTATIONS>
1  25  8
1  28  8
10  33  8
10  35  8
11  34  8
11  35  8
25  26  8
30  33  8
30  34  8
9  26  8
9  28  8

$$$$
