11505007
  -OEChem-09292322262D

 72 75  0     0  0  0  0  0  0999 V2000
    4.5981   -0.7500    0.0000 S   0  0  0  0  0  0  0  0  0  0  0  0
   12.3923   -0.2500    0.0000 F   0  0  0  0  0  0  0  0  0  0  0  0
   13.3923    0.7500    0.0000 F   0  0  0  0  0  0  0  0  0  0  0  0
   11.3923    0.7500    0.0000 F   0  0  0  0  0  0  0  0  0  0  0  0
    5.5981   -0.7500    0.0000 O   0  0  0  0  0  0  0  0  0  0  0  0
    3.5981   -0.7500    0.0000 O   0  0  0  0  0  0  0  0  0  0  0  0
   11.5263    2.2500    0.0000 O   0  0  0  0  0  0  0  0  0  0  0  0
    2.8660   -3.7500    0.0000 O   0  0  0  0  0  0  0  0  0  0  0  0
    4.5981   -4.7500    0.0000 O   0  0  0  0  0  0  0  0  0  0  0  0
    8.0622    2.2500    0.0000 N   0  0  0  0  0  0  0  0  0  0  0  0
    4.5981    0.2500    0.0000 N   0  0  0  0  0  0  0  0  0  0  0  0
    9.7942    3.2500    0.0000 N   0  0  0  0  0  0  0  0  0  0  0  0
    7.1962    1.7500    0.0000 C   0  0  0  0  0  0  0  0  0  0  0  0
    7.1962    0.7500    0.0000 C   0  0  0  0  0  0  0  0  0  0  0  0
    6.3301    2.2500    0.0000 C   0  0  0  0  0  0  0  0  0  0  0  0
    5.4641    0.7500    0.0000 C   0  0  0  0  0  0  0  0  0  0  0  0
    6.3301    0.2500    0.0000 C   0  0  0  0  0  0  0  0  0  0  0  0
    5.4641    1.7500    0.0000 C   0  0  0  0  0  0  0  0  0  0  0  0
    8.9282    1.7500    0.0000 C   0  0  0  0  0  0  0  0  0  0  0  0
    8.0622    3.2500    0.0000 C   0  0  0  0  0  0  0  0  0  0  0  0
    9.7942    2.2500    0.0000 C   0  0  0  0  0  0  0  0  0  0  0  0
    8.9282    3.7500    0.0000 C   0  0  0  0  0  0  0  0  0  0  0  0
   10.6603    3.7500    0.0000 C   0  0  0  0  0  0  0  0  0  0  0  0
    4.5981   -1.7500    0.0000 C   0  0  0  0  0  0  0  0  0  0  0  0
   11.5263    3.2500    0.0000 C   0  0  0  0  0  0  0  0  0  0  0  0
   10.6603    4.7500    0.0000 C   0  0  0  0  0  0  0  0  0  0  0  0
    3.7320   -2.2500    0.0000 C   0  0  0  0  0  0  0  0  0  0  0  0
    5.4641   -2.2500    0.0000 C   0  0  0  0  0  0  0  0  0  0  0  0
   12.3923    3.7500    0.0000 C   0  0  0  0  0  0  0  0  0  0  0  0
   11.5263    5.2500    0.0000 C   0  0  0  0  0  0  0  0  0  0  0  0
   12.3923    4.7500    0.0000 C   0  0  0  0  0  0  0  0  0  0  0  0
    3.7320   -3.2500    0.0000 C   0  0  0  0  0  0  0  0  0  0  0  0
    5.4641   -3.2500    0.0000 C   0  0  0  0  0  0  0  0  0  0  0  0
    4.5981   -3.7500    0.0000 C   0  0  0  0  0  0  0  0  0  0  0  0
   12.3923    1.7500    0.0000 C   0  0  0  0  0  0  0  0  0  0  0  0
   12.3923    0.7500    0.0000 C   0  0  0  0  0  0  0  0  0  0  0  0
    2.0000   -3.2500    0.0000 C   0  0  0  0  0  0  0  0  0  0  0  0
    5.4641   -5.2500    0.0000 C   0  0  0  0  0  0  0  0  0  0  0  0
    7.7331    1.4400    0.0000 H   0  0  0  0  0  0  0  0  0  0  0  0
    7.4082    0.1674    0.0000 H   0  0  0  0  0  0  0  0  0  0  0  0
    7.8067    0.8577    0.0000 H   0  0  0  0  0  0  0  0  0  0  0  0
    6.7287    2.7250    0.0000 H   0  0  0  0  0  0  0  0  0  0  0  0
    5.9316    2.7250    0.0000 H   0  0  0  0  0  0  0  0  0  0  0  0
    5.4641    0.1300    0.0000 H   0  0  0  0  0  0  0  0  0  0  0  0
    5.9316   -0.2249    0.0000 H   0  0  0  0  0  0  0  0  0  0  0  0
    6.7287   -0.2249    0.0000 H   0  0  0  0  0  0  0  0  0  0  0  0
    5.2520    2.3326    0.0000 H   0  0  0  0  0  0  0  0  0  0  0  0
    4.8535    1.6423    0.0000 H   0  0  0  0  0  0  0  0  0  0  0  0
    8.5297    1.2750    0.0000 H   0  0  0  0  0  0  0  0  0  0  0  0
    9.3267    1.2750    0.0000 H   0  0  0  0  0  0  0  0  0  0  0  0
    7.8501    3.8326    0.0000 H   0  0  0  0  0  0  0  0  0  0  0  0
    7.4516    3.1423    0.0000 H   0  0  0  0  0  0  0  0  0  0  0  0
   10.0063    1.6674    0.0000 H   0  0  0  0  0  0  0  0  0  0  0  0
   10.4048    2.3577    0.0000 H   0  0  0  0  0  0  0  0  0  0  0  0
    9.3267    4.2250    0.0000 H   0  0  0  0  0  0  0  0  0  0  0  0
    8.5297    4.2250    0.0000 H   0  0  0  0  0  0  0  0  0  0  0  0
    4.0611    0.5600    0.0000 H   0  0  0  0  0  0  0  0  0  0  0  0
   10.1233    5.0600    0.0000 H   0  0  0  0  0  0  0  0  0  0  0  0
    3.1951   -1.9400    0.0000 H   0  0  0  0  0  0  0  0  0  0  0  0
    6.0010   -1.9400    0.0000 H   0  0  0  0  0  0  0  0  0  0  0  0
   12.9292    3.4400    0.0000 H   0  0  0  0  0  0  0  0  0  0  0  0
   11.5263    5.8700    0.0000 H   0  0  0  0  0  0  0  0  0  0  0  0
   12.9292    5.0600    0.0000 H   0  0  0  0  0  0  0  0  0  0  0  0
    6.0010   -3.5600    0.0000 H   0  0  0  0  0  0  0  0  0  0  0  0
   13.0029    1.6423    0.0000 H   0  0  0  0  0  0  0  0  0  0  0  0
   12.6044    2.3326    0.0000 H   0  0  0  0  0  0  0  0  0  0  0  0
    2.3100   -2.7131    0.0000 H   0  0  0  0  0  0  0  0  0  0  0  0
    1.4631   -2.9400    0.0000 H   0  0  0  0  0  0  0  0  0  0  0  0
    1.6900   -3.7869    0.0000 H   0  0  0  0  0  0  0  0  0  0  0  0
    5.1541   -5.7869    0.0000 H   0  0  0  0  0  0  0  0  0  0  0  0
    6.0010   -5.5600    0.0000 H   0  0  0  0  0  0  0  0  0  0  0  0
    5.7741   -4.7131    0.0000 H   0  0  0  0  0  0  0  0  0  0  0  0
  1  5  2  0  0  0  0
  1  6  2  0  0  0  0
  1 11  1  0  0  0  0
  1 24  1  0  0  0  0
  2 36  1  0  0  0  0
  3 36  1  0  0  0  0
  4 36  1  0  0  0  0
  7 25  1  0  0  0  0
  7 35  1  0  0  0  0
  8 32  1  0  0  0  0
  8 37  1  0  0  0  0
  9 34  1  0  0  0  0
  9 38  1  0  0  0  0
 10 13  1  0  0  0  0
 10 19  1  0  0  0  0
 10 20  1  0  0  0  0
 11 16  1  0  0  0  0
 11 57  1  0  0  0  0
 12 21  1  0  0  0  0
 12 22  1  0  0  0  0
 12 23  1  0  0  0  0
 13 14  1  0  0  0  0
 13 15  1  0  0  0  0
 13 39  1  0  0  0  0
 14 17  1  0  0  0  0
 14 40  1  0  0  0  0
 14 41  1  0  0  0  0
 15 18  1  0  0  0  0
 15 42  1  0  0  0  0
 15 43  1  0  0  0  0
 16 17  1  0  0  0  0
 16 18  1  0  0  0  0
 16 44  1  0  0  0  0
 17 45  1  0  0  0  0
 17 46  1  0  0  0  0
 18 47  1  0  0  0  0
 18 48  1  0  0  0  0
 19 21  1  0  0  0  0
 19 49  1  0  0  0  0
 19 50  1  0  0  0  0
 20 22  1  0  0  0  0
 20 51  1  0  0  0  0
 20 52  1  0  0  0  0
 21 53  1  0  0  0  0
 21 54  1  0  0  0  0
 22 55  1  0  0  0  0
 22 56  1  0  0  0  0
 23 25  1  0  0  0  0
 23 26  2  0  0  0  0
 24 27  2  0  0  0  0
 24 28  1  0  0  0  0
 25 29  2  0  0  0  0
 26 30  1  0  0  0  0
 26 58  1  0  0  0  0
 27 32  1  0  0  0  0
 27 59  1  0  0  0  0
 28 33  2  0  0  0  0
 28 60  1  0  0  0  0
 29 31  1  0  0  0  0
 29 61  1  0  0  0  0
 30 31  2  0  0  0  0
 30 62  1  0  0  0  0
 31 63  1  0  0  0  0
 32 34  2  0  0  0  0
 33 34  1  0  0  0  0
 33 64  1  0  0  0  0
 35 36  1  0  0  0  0
 35 65  1  0  0  0  0
 35 66  1  0  0  0  0
 37 67  1  0  0  0  0
 37 68  1  0  0  0  0
 37 69  1  0  0  0  0
 38 70  1  0  0  0  0
 38 71  1  0  0  0  0
 38 72  1  0  0  0  0
M  END
> <PUBCHEM_COMPOUND_CID>
11505007

> <PUBCHEM_COMPOUND_CANONICALIZED>
1

> <PUBCHEM_CACTVS_COMPLEXITY>
827

> <PUBCHEM_CACTVS_HBOND_ACCEPTOR>
11

> <PUBCHEM_CACTVS_HBOND_DONOR>
1

> <PUBCHEM_CACTVS_ROTATABLE_BOND>
9

> <PUBCHEM_CACTVS_SUBSKEYS>
AAADcfB7OYBAAAAAAAAAAAAAAAAAAAAAAAA8YMEAAAAAAAABQAAAHwQQQAAACCzh0BYyx4NABAKAACRCQHDCCBAhIgAIiJgP7IgPZiLEsZuXOCrk0BHa6AeQQAAAAIAABAAAUAABAQAIAACgAAAAAAAAAA==

> <PUBCHEM_IUPAC_OPENEYE_NAME>
3,4-dimethoxy-N-[4-[4-[2-(2,2,2-trifluoroethoxy)phenyl]piperazin-1-yl]cyclohexyl]benzenesulfonamide

> <PUBCHEM_IUPAC_CAS_NAME>
3,4-dimethoxy-N-[4-[4-[2-(2,2,2-trifluoroethoxy)phenyl]-1-piperazinyl]cyclohexyl]benzenesulfonamide

> <PUBCHEM_IUPAC_NAME_MARKUP>
3,4-dimethoxy-<I>N</I>-[4-[4-[2-(2,2,2-trifluoroethoxy)phenyl]piperazin-1-yl]cyclohexyl]benzenesulfonamide

> <PUBCHEM_IUPAC_NAME>
3,4-dimethoxy-N-[4-[4-[2-(2,2,2-trifluoroethoxy)phenyl]piperazin-1-yl]cyclohexyl]benzenesulfonamide

> <PUBCHEM_IUPAC_SYSTEMATIC_NAME>
3,4-dimethoxy-N-[4-[4-[2-[2,2,2-tris(fluoranyl)ethoxy]phenyl]piperazin-1-yl]cyclohexyl]benzenesulfonamide

> <PUBCHEM_IUPAC_TRADITIONAL_NAME>
3,4-dimethoxy-N-[4-[4-[2-(2,2,2-trifluoroethoxy)phenyl]piperazino]cyclohexyl]benzenesulfonamide

> <PUBCHEM_IUPAC_INCHI>
InChI=1S/C26H34F3N3O5S/c1-35-24-12-11-21(17-25(24)36-2)38(33,34)30-19-7-9-20(10-8-19)31-13-15-32(16-14-31)22-5-3-4-6-23(22)37-18-26(27,28)29/h3-6,11-12,17,19-20,30H,7-10,13-16,18H2,1-2H3

> <PUBCHEM_IUPAC_INCHIKEY>
KBDQCTAMVLZQJL-UHFFFAOYSA-N

> <PUBCHEM_XLOGP3_AA>
4.9

> <PUBCHEM_EXACT_MASS>
557.21712685

> <PUBCHEM_MOLECULAR_FORMULA>
C26H34F3N3O5S

> <PUBCHEM_MOLECULAR_WEIGHT>
557.6

> <PUBCHEM_OPENEYE_CAN_SMILES>
COC1=C(C=C(C=C1)S(=O)(=O)NC2CCC(CC2)N3CCN(CC3)C4=CC=CC=C4OCC(F)(F)F)OC

> <PUBCHEM_OPENEYE_ISO_SMILES>
COC1=C(C=C(C=C1)S(=O)(=O)NC2CCC(CC2)N3CCN(CC3)C4=CC=CC=C4OCC(F)(F)F)OC

> <PUBCHEM_CACTVS_TPSA>
88.7

> <PUBCHEM_MONOISOTOPIC_WEIGHT>
557.21712685

> <PUBCHEM_TOTAL_CHARGE>
0

> <PUBCHEM_HEAVY_ATOM_COUNT>
38

> <PUBCHEM_ATOM_DEF_STEREO_COUNT>
0

> <PUBCHEM_ATOM_UDEF_STEREO_COUNT>
0

> <PUBCHEM_BOND_DEF_STEREO_COUNT>
0

> <PUBCHEM_BOND_UDEF_STEREO_COUNT>
0

> <PUBCHEM_ISOTOPIC_ATOM_COUNT>
0

> <PUBCHEM_COMPONENT_COUNT>
1

> <PUBCHEM_CACTVS_TAUTO_COUNT>
-1

> <PUBCHEM_COORDINATE_TYPE>
1
5
255

> <PUBCHEM_BONDANNOTATIONS>
23  25  8
23  26  8
24  27  8
24  28  8
25  29  8
26  30  8
27  32  8
28  33  8
29  31  8
30  31  8
32  34  8
33  34  8

$$$$
