145958490
  -OEChem-09292322382D

 68 71  0     1  0  0  0  0  0999 V2000
   10.8145    6.4317    0.0000 Cl  0  0  0  0  0  0  0  0  0  0  0  0
    4.3301    6.6200    0.0000 O   0  0  0  0  0  0  0  0  0  0  0  0
    3.6915   10.2837    0.0000 O   0  0  0  0  0  0  0  0  0  0  0  0
    5.4516    7.2351    0.0000 O   0  0  0  0  0  0  0  0  0  0  0  0
    2.5981    5.6200    0.0000 N   0  0  0  0  0  0  0  0  0  0  0  0
    2.5981    3.6200    0.0000 N   0  0  0  0  0  0  0  0  0  0  0  0
    4.3301    8.6200    0.0000 N   0  0  0  0  0  0  0  0  0  0  0  0
    5.9128    8.9564    0.0000 N   0  0  0  0  0  0  0  0  0  0  0  0
    0.0000    3.1200    0.0000 N   0  0  0  0  0  0  0  0  0  0  0  0
    2.5981    6.6200    0.0000 C   0  0  0  0  0  0  0  0  0  0  0  0
    3.4641    5.1200    0.0000 C   0  0  0  0  0  0  0  0  0  0  0  0
    1.7320    5.1200    0.0000 C   0  0  0  0  0  0  0  0  0  0  0  0
    3.4641    7.1200    0.0000 C   0  0  3  0  0  0  0  0  0  0  0  0
    5.4128    9.8224    0.0000 C   0  0  0  0  0  0  0  0  0  0  0  0
    3.4641    4.1200    0.0000 C   0  0  0  0  0  0  0  0  0  0  0  0
    1.7320    4.1200    0.0000 C   0  0  0  0  0  0  0  0  0  0  0  0
    3.4641    8.1200    0.0000 C   0  0  0  0  0  0  0  0  0  0  0  0
    4.4347    9.6145    0.0000 C   0  0  0  0  0  0  0  0  0  0  0  0
    5.2437    8.2133    0.0000 C   0  0  0  0  0  0  0  0  0  0  0  0
    6.3525   10.1645    0.0000 C   0  0  0  0  0  0  0  0  0  0  0  0
    5.2049   10.8006    0.0000 C   0  0  0  0  0  0  0  0  0  0  0  0
    2.5981    2.6200    0.0000 C   0  0  0  0  0  0  0  0  0  0  0  0
    6.5261   11.1493    0.0000 C   0  0  0  0  0  0  0  0  0  0  0  0
    5.9480   11.4697    0.0000 C   0  0  0  0  0  0  0  0  0  0  0  0
    7.1185    9.5217    0.0000 C   0  0  0  0  0  0  0  0  0  0  0  0
    4.2538   11.1096    0.0000 C   0  0  0  0  0  0  0  0  0  0  0  0
    1.7320    2.1200    0.0000 C   0  0  0  0  0  0  0  0  0  0  0  0
    3.4641    2.1200    0.0000 C   0  0  0  0  0  0  0  0  0  0  0  0
    7.4658   11.4913    0.0000 C   0  0  0  0  0  0  0  0  0  0  0  0
    5.7401   12.4479    0.0000 C   0  0  0  0  0  0  0  0  0  0  0  0
    8.0582    9.8637    0.0000 C   0  0  0  0  0  0  0  0  0  0  0  0
    4.0459   12.0877    0.0000 C   0  0  0  0  0  0  0  0  0  0  0  0
    1.7320    1.1200    0.0000 C   0  0  0  0  0  0  0  0  0  0  0  0
    3.4641    1.1200    0.0000 C   0  0  0  0  0  0  0  0  0  0  0  0
    8.2319   10.8485    0.0000 C   0  0  0  0  0  0  0  0  0  0  0  0
    4.7891   12.7569    0.0000 C   0  0  0  0  0  0  0  0  0  0  0  0
    2.5981    0.6200    0.0000 C   0  0  0  0  0  0  0  0  0  0  0  0
    0.8660    2.6200    0.0000 C   0  0  0  0  0  0  0  0  0  0  0  0
    2.3860    7.2026    0.0000 H   0  0  0  0  0  0  0  0  0  0  0  0
    1.9875    6.5123    0.0000 H   0  0  0  0  0  0  0  0  0  0  0  0
    4.0747    5.0123    0.0000 H   0  0  0  0  0  0  0  0  0  0  0  0
    3.6762    5.7026    0.0000 H   0  0  0  0  0  0  0  0  0  0  0  0
    1.5200    5.7026    0.0000 H   0  0  0  0  0  0  0  0  0  0  0  0
    1.1215    5.0123    0.0000 H   0  0  0  0  0  0  0  0  0  0  0  0
    4.0010    7.4300    0.0000 H   0  0  0  0  0  0  0  0  0  0  0  0
    3.6762    3.5374    0.0000 H   0  0  0  0  0  0  0  0  0  0  0  0
    4.0747    4.2277    0.0000 H   0  0  0  0  0  0  0  0  0  0  0  0
    1.1215    4.2277    0.0000 H   0  0  0  0  0  0  0  0  0  0  0  0
    1.5200    3.5374    0.0000 H   0  0  0  0  0  0  0  0  0  0  0  0
    3.2520    8.7026    0.0000 H   0  0  0  0  0  0  0  0  0  0  0  0
    2.8535    8.0123    0.0000 H   0  0  0  0  0  0  0  0  0  0  0  0
    6.5294    8.8916    0.0000 H   0  0  0  0  0  0  0  0  0  0  0  0
    4.8671    6.9300    0.0000 H   0  0  0  0  0  0  0  0  0  0  0  0
    6.0512   11.5478    0.0000 H   0  0  0  0  0  0  0  0  0  0  0  0
    6.5377   11.2781    0.0000 H   0  0  0  0  0  0  0  0  0  0  0  0
    7.0109    8.9111    0.0000 H   0  0  0  0  0  0  0  0  0  0  0  0
    3.7931   10.6947    0.0000 H   0  0  0  0  0  0  0  0  0  0  0  0
    4.0010    2.4300    0.0000 H   0  0  0  0  0  0  0  0  0  0  0  0
    7.5735   12.1019    0.0000 H   0  0  0  0  0  0  0  0  0  0  0  0
    6.2009   12.8627    0.0000 H   0  0  0  0  0  0  0  0  0  0  0  0
    8.5332    9.4652    0.0000 H   0  0  0  0  0  0  0  0  0  0  0  0
    3.4563   12.2793    0.0000 H   0  0  0  0  0  0  0  0  0  0  0  0
    1.1951    0.8100    0.0000 H   0  0  0  0  0  0  0  0  0  0  0  0
    4.0010    0.8100    0.0000 H   0  0  0  0  0  0  0  0  0  0  0  0
    8.8145   11.0605    0.0000 H   0  0  0  0  0  0  0  0  0  0  0  0
    4.6602   13.3633    0.0000 H   0  0  0  0  0  0  0  0  0  0  0  0
    2.5981    0.0000    0.0000 H   0  0  0  0  0  0  0  0  0  0  0  0
   11.8145    6.4317    0.0000 H   0  0  0  0  0  0  0  0  0  0  0  0
  1 68  1  0  0  0  0
  2 13  1  0  0  0  0
  2 53  1  0  0  0  0
  3 18  2  0  0  0  0
  4 19  2  0  0  0  0
  5 10  1  0  0  0  0
  5 11  1  0  0  0  0
  5 12  1  0  0  0  0
  6 15  1  0  0  0  0
  6 16  1  0  0  0  0
  6 22  1  0  0  0  0
  7 17  1  0  0  0  0
  7 18  1  0  0  0  0
  7 19  1  0  0  0  0
  8 14  1  0  0  0  0
  8 19  1  0  0  0  0
  8 52  1  0  0  0  0
  9 38  3  0  0  0  0
 10 13  1  0  0  0  0
 10 39  1  0  0  0  0
 10 40  1  0  0  0  0
 11 15  1  0  0  0  0
 11 41  1  0  0  0  0
 11 42  1  0  0  0  0
 12 16  1  0  0  0  0
 12 43  1  0  0  0  0
 12 44  1  0  0  0  0
 13 17  1  0  0  0  0
 13 45  1  0  0  0  0
 14 18  1  0  0  0  0
 14 20  1  0  0  0  0
 14 21  1  0  0  0  0
 15 46  1  0  0  0  0
 15 47  1  0  0  0  0
 16 48  1  0  0  0  0
 16 49  1  0  0  0  0
 17 50  1  0  0  0  0
 17 51  1  0  0  0  0
 20 23  2  0  0  0  0
 20 25  1  0  0  0  0
 21 24  2  0  0  0  0
 21 26  1  0  0  0  0
 22 27  1  0  0  0  0
 22 28  2  0  0  0  0
 23 29  1  0  0  0  0
 23 54  1  0  0  0  0
 24 30  1  0  0  0  0
 24 55  1  0  0  0  0
 25 31  2  0  0  0  0
 25 56  1  0  0  0  0
 26 32  2  0  0  0  0
 26 57  1  0  0  0  0
 27 33  2  0  0  0  0
 27 38  1  0  0  0  0
 28 34  1  0  0  0  0
 28 58  1  0  0  0  0
 29 35  2  0  0  0  0
 29 59  1  0  0  0  0
 30 36  2  0  0  0  0
 30 60  1  0  0  0  0
 31 35  1  0  0  0  0
 31 61  1  0  0  0  0
 32 36  1  0  0  0  0
 32 62  1  0  0  0  0
 33 37  1  0  0  0  0
 33 63  1  0  0  0  0
 34 37  2  0  0  0  0
 34 64  1  0  0  0  0
 35 65  1  0  0  0  0
 36 66  1  0  0  0  0
 37 67  1  0  0  0  0
M  END
> <PUBCHEM_COMPOUND_CID>
145958490

> <PUBCHEM_COMPOUND_CANONICALIZED>
1

> <PUBCHEM_CACTVS_COMPLEXITY>
833

> <PUBCHEM_CACTVS_HBOND_ACCEPTOR>
6

> <PUBCHEM_CACTVS_HBOND_DONOR>
3

> <PUBCHEM_CACTVS_ROTATABLE_BOND>
7

> <PUBCHEM_CACTVS_SUBSKEYS>
AAADceB7sAAEAAAAAAAAAAAAAAAAAWAAAAA8YMEAAAAAAAABUAAAHgAQCAAADJzhmAYxwIPAAgCYBiVSUACiAAAhAgAIiAGIZIiK8DLA1bGUIAhohyLYyA8YiMCOgAAAAAACAAAAAAAAAAQAAAAAAAAAAA==

> <PUBCHEM_IUPAC_OPENEYE_NAME>
2-[4-[3-(2,5-dioxo-4,4-diphenyl-imidazolidin-1-yl)-2-hydroxy-propyl]piperazin-1-yl]benzonitrile;hydrochloride

> <PUBCHEM_IUPAC_CAS_NAME>
2-[4-[3-(2,5-dioxo-4,4-diphenyl-1-imidazolidinyl)-2-hydroxypropyl]-1-piperazinyl]benzonitrile;hydrochloride

> <PUBCHEM_IUPAC_NAME_MARKUP>
2-[4-[3-(2,5-dioxo-4,4-diphenylimidazolidin-1-yl)-2-hydroxypropyl]piperazin-1-yl]benzonitrile;hydrochloride

> <PUBCHEM_IUPAC_NAME>
2-[4-[3-(2,5-dioxo-4,4-diphenylimidazolidin-1-yl)-2-hydroxypropyl]piperazin-1-yl]benzonitrile;hydrochloride

> <PUBCHEM_IUPAC_SYSTEMATIC_NAME>
2-[4-[3-[2,5-bis(oxidanylidene)-4,4-diphenyl-imidazolidin-1-yl]-2-oxidanyl-propyl]piperazin-1-yl]benzenecarbonitrile;hydrochloride

> <PUBCHEM_IUPAC_TRADITIONAL_NAME>
2-[4-[3-(2,5-diketo-4,4-diphenyl-imidazolidin-1-yl)-2-hydroxy-propyl]piperazino]benzonitrile;hydrochloride

> <PUBCHEM_IUPAC_INCHI>
InChI=1S/C29H29N5O3.ClH/c30-19-22-9-7-8-14-26(22)33-17-15-32(16-18-33)20-25(35)21-34-27(36)29(31-28(34)37,23-10-3-1-4-11-23)24-12-5-2-6-13-24;/h1-14,25,35H,15-18,20-21H2,(H,31,37);1H

> <PUBCHEM_IUPAC_INCHIKEY>
YJDIRPALFIZECR-UHFFFAOYSA-N

> <PUBCHEM_EXACT_MASS>
531.2037175

> <PUBCHEM_MOLECULAR_FORMULA>
C29H30ClN5O3

> <PUBCHEM_MOLECULAR_WEIGHT>
532.0

> <PUBCHEM_OPENEYE_CAN_SMILES>
C1CN(CCN1CC(CN2C(=O)C(NC2=O)(C3=CC=CC=C3)C4=CC=CC=C4)O)C5=CC=CC=C5C#N.Cl

> <PUBCHEM_OPENEYE_ISO_SMILES>
C1CN(CCN1CC(CN2C(=O)C(NC2=O)(C3=CC=CC=C3)C4=CC=CC=C4)O)C5=CC=CC=C5C#N.Cl

> <PUBCHEM_CACTVS_TPSA>
99.9

> <PUBCHEM_MONOISOTOPIC_WEIGHT>
531.2037175

> <PUBCHEM_TOTAL_CHARGE>
0

> <PUBCHEM_HEAVY_ATOM_COUNT>
38

> <PUBCHEM_ATOM_DEF_STEREO_COUNT>
0

> <PUBCHEM_ATOM_UDEF_STEREO_COUNT>
1

> <PUBCHEM_BOND_DEF_STEREO_COUNT>
0

> <PUBCHEM_BOND_UDEF_STEREO_COUNT>
0

> <PUBCHEM_ISOTOPIC_ATOM_COUNT>
0

> <PUBCHEM_COMPONENT_COUNT>
2

> <PUBCHEM_CACTVS_TAUTO_COUNT>
-1

> <PUBCHEM_COORDINATE_TYPE>
1
5
255

> <PUBCHEM_BONDANNOTATIONS>
13  2  3
20  23  8
20  25  8
21  24  8
21  26  8
22  27  8
22  28  8
23  29  8
24  30  8
25  31  8
26  32  8
27  33  8
28  34  8
29  35  8
30  36  8
31  35  8
32  36  8
33  37  8
34  37  8

$$$$
