10039198
  -OEChem-09292322102D

 50 50  0     1  0  0  0  0  0999 V2000
    3.7320   -3.5000    0.0000 Si  0  0  0  0  0  0  0  0  0  0  0  0
    3.7320    2.5000    0.0000 N   0  0  0  0  0  0  0  0  0  0  0  0
    3.7320    1.5000    0.0000 C   0  0  3  0  0  0  0  0  0  0  0  0
    2.8660    1.0000    0.0000 C   0  0  0  0  0  0  0  0  0  0  0  0
    4.5981    1.0000    0.0000 C   0  0  0  0  0  0  0  0  0  0  0  0
    2.8660    0.0000    0.0000 C   0  0  0  0  0  0  0  0  0  0  0  0
    4.5981    3.0000    0.0000 C   0  0  0  0  0  0  0  0  0  0  0  0
    2.8660    3.0000    0.0000 C   0  0  0  0  0  0  0  0  0  0  0  0
    4.5981   -0.0000    0.0000 C   0  0  0  0  0  0  0  0  0  0  0  0
    3.7320   -0.5000    0.0000 C   0  0  0  0  0  0  0  0  0  0  0  0
    4.5981    4.0000    0.0000 C   0  0  0  0  0  0  0  0  0  0  0  0
    2.8660    4.0000    0.0000 C   0  0  0  0  0  0  0  0  0  0  0  0
    3.7320   -1.5000    0.0000 C   0  0  0  0  0  0  0  0  0  0  0  0
    5.4641    4.5000    0.0000 C   0  0  0  0  0  0  0  0  0  0  0  0
    2.0000    4.5000    0.0000 C   0  0  0  0  0  0  0  0  0  0  0  0
    3.7320   -2.5000    0.0000 C   0  0  0  0  0  0  0  0  0  0  0  0
    3.7320   -4.5000    0.0000 C   0  0  0  0  0  0  0  0  0  0  0  0
    2.7320   -3.5000    0.0000 C   0  0  0  0  0  0  0  0  0  0  0  0
    4.7320   -3.5000    0.0000 C   0  0  0  0  0  0  0  0  0  0  0  0
    4.2690    1.8100    0.0000 H   0  0  0  0  0  0  0  0  0  0  0  0
    2.6540    1.5826    0.0000 H   0  0  0  0  0  0  0  0  0  0  0  0
    2.2554    0.8923    0.0000 H   0  0  0  0  0  0  0  0  0  0  0  0
    5.2087    0.8923    0.0000 H   0  0  0  0  0  0  0  0  0  0  0  0
    4.8101    1.5826    0.0000 H   0  0  0  0  0  0  0  0  0  0  0  0
    2.2554    0.1077    0.0000 H   0  0  0  0  0  0  0  0  0  0  0  0
    2.6540   -0.5826    0.0000 H   0  0  0  0  0  0  0  0  0  0  0  0
    4.8101    2.4174    0.0000 H   0  0  0  0  0  0  0  0  0  0  0  0
    5.2087    3.1077    0.0000 H   0  0  0  0  0  0  0  0  0  0  0  0
    2.2554    3.1077    0.0000 H   0  0  0  0  0  0  0  0  0  0  0  0
    2.6540    2.4174    0.0000 H   0  0  0  0  0  0  0  0  0  0  0  0
    5.1350   -0.3100    0.0000 H   0  0  0  0  0  0  0  0  0  0  0  0
    4.3860    4.5826    0.0000 H   0  0  0  0  0  0  0  0  0  0  0  0
    3.9875    3.8923    0.0000 H   0  0  0  0  0  0  0  0  0  0  0  0
    3.4766    3.8923    0.0000 H   0  0  0  0  0  0  0  0  0  0  0  0
    3.0781    4.5826    0.0000 H   0  0  0  0  0  0  0  0  0  0  0  0
    5.7741    3.9631    0.0000 H   0  0  0  0  0  0  0  0  0  0  0  0
    6.0010    4.8100    0.0000 H   0  0  0  0  0  0  0  0  0  0  0  0
    5.1541    5.0369    0.0000 H   0  0  0  0  0  0  0  0  0  0  0  0
    2.3100    5.0369    0.0000 H   0  0  0  0  0  0  0  0  0  0  0  0
    1.4631    4.8100    0.0000 H   0  0  0  0  0  0  0  0  0  0  0  0
    1.6900    3.9631    0.0000 H   0  0  0  0  0  0  0  0  0  0  0  0
    3.1120   -4.5000    0.0000 H   0  0  0  0  0  0  0  0  0  0  0  0
    3.7320   -5.1200    0.0000 H   0  0  0  0  0  0  0  0  0  0  0  0
    4.3520   -4.5000    0.0000 H   0  0  0  0  0  0  0  0  0  0  0  0
    2.7320   -2.8800    0.0000 H   0  0  0  0  0  0  0  0  0  0  0  0
    2.1120   -3.5000    0.0000 H   0  0  0  0  0  0  0  0  0  0  0  0
    2.7320   -4.1200    0.0000 H   0  0  0  0  0  0  0  0  0  0  0  0
    4.7320   -4.1200    0.0000 H   0  0  0  0  0  0  0  0  0  0  0  0
    5.3520   -3.5000    0.0000 H   0  0  0  0  0  0  0  0  0  0  0  0
    4.7320   -2.8800    0.0000 H   0  0  0  0  0  0  0  0  0  0  0  0
  1 16  1  0  0  0  0
  1 17  1  0  0  0  0
  1 18  1  0  0  0  0
  1 19  1  0  0  0  0
  2  3  1  0  0  0  0
  2  7  1  0  0  0  0
  2  8  1  0  0  0  0
  3  4  1  0  0  0  0
  3  5  1  0  0  0  0
  3 20  1  0  0  0  0
  4  6  1  0  0  0  0
  4 21  1  0  0  0  0
  4 22  1  0  0  0  0
  5  9  1  0  0  0  0
  5 23  1  0  0  0  0
  5 24  1  0  0  0  0
  6 10  1  0  0  0  0
  6 25  1  0  0  0  0
  6 26  1  0  0  0  0
  7 11  1  0  0  0  0
  7 27  1  0  0  0  0
  7 28  1  0  0  0  0
  8 12  1  0  0  0  0
  8 29  1  0  0  0  0
  8 30  1  0  0  0  0
  9 10  2  0  0  0  0
  9 31  1  0  0  0  0
 10 13  1  0  0  0  0
 11 14  1  0  0  0  0
 11 32  1  0  0  0  0
 11 33  1  0  0  0  0
 12 15  1  0  0  0  0
 12 34  1  0  0  0  0
 12 35  1  0  0  0  0
 13 16  3  0  0  0  0
 14 36  1  0  0  0  0
 14 37  1  0  0  0  0
 14 38  1  0  0  0  0
 15 39  1  0  0  0  0
 15 40  1  0  0  0  0
 15 41  1  0  0  0  0
 17 42  1  0  0  0  0
 17 43  1  0  0  0  0
 17 44  1  0  0  0  0
 18 45  1  0  0  0  0
 18 46  1  0  0  0  0
 18 47  1  0  0  0  0
 19 48  1  0  0  0  0
 19 49  1  0  0  0  0
 19 50  1  0  0  0  0
M  END
> <PUBCHEM_COMPOUND_CID>
10039198

> <PUBCHEM_COMPOUND_CANONICALIZED>
1

> <PUBCHEM_CACTVS_COMPLEXITY>
358

> <PUBCHEM_CACTVS_HBOND_ACCEPTOR>
1

> <PUBCHEM_CACTVS_HBOND_DONOR>
0

> <PUBCHEM_CACTVS_ROTATABLE_BOND>
7

> <PUBCHEM_CACTVS_SUBSKEYS>
AAADceB6AAgAAAAAAAAAAAAAAAAAAAAAAAAgAAAAAAAAAAAAAAAAHBAAAAAADCjBIARCAAMAAAHAEiBCAAgAAAAgAAAACAAIAAgAAAIAgQAEAAAAgACIAAMQgAAAAAAAAAAAAAAAAAAAAAAAAAAAAAAAAA==

> <PUBCHEM_IUPAC_OPENEYE_NAME>
N,N-dipropyl-4-(2-trimethylsilylethynyl)cyclohex-3-en-1-amine

> <PUBCHEM_IUPAC_CAS_NAME>
N,N-dipropyl-4-(2-trimethylsilylethynyl)-1-cyclohex-3-enamine

> <PUBCHEM_IUPAC_NAME_MARKUP>
<I>N</I>,<I>N</I>-dipropyl-4-(2-trimethylsilylethynyl)cyclohex-3-en-1-amine

> <PUBCHEM_IUPAC_NAME>
N,N-dipropyl-4-(2-trimethylsilylethynyl)cyclohex-3-en-1-amine

> <PUBCHEM_IUPAC_SYSTEMATIC_NAME>
N,N-dipropyl-4-(2-trimethylsilylethynyl)cyclohex-3-en-1-amine

> <PUBCHEM_IUPAC_TRADITIONAL_NAME>
dipropyl-[4-(2-trimethylsilylethynyl)cyclohex-3-en-1-yl]amine

> <PUBCHEM_IUPAC_INCHI>
InChI=1S/C17H31NSi/c1-6-13-18(14-7-2)17-10-8-16(9-11-17)12-15-19(3,4)5/h8,17H,6-7,9-11,13-14H2,1-5H3

> <PUBCHEM_IUPAC_INCHIKEY>
VJEWRCWFWRMYOH-UHFFFAOYSA-N

> <PUBCHEM_EXACT_MASS>
277.222576528

> <PUBCHEM_MOLECULAR_FORMULA>
C17H31NSi

> <PUBCHEM_MOLECULAR_WEIGHT>
277.5

> <PUBCHEM_OPENEYE_CAN_SMILES>
CCCN(CCC)C1CCC(=CC1)C#C[Si](C)(C)C

> <PUBCHEM_OPENEYE_ISO_SMILES>
CCCN(CCC)C1CCC(=CC1)C#C[Si](C)(C)C

> <PUBCHEM_CACTVS_TPSA>
3.2

> <PUBCHEM_MONOISOTOPIC_WEIGHT>
277.222576528

> <PUBCHEM_TOTAL_CHARGE>
0

> <PUBCHEM_HEAVY_ATOM_COUNT>
19

> <PUBCHEM_ATOM_DEF_STEREO_COUNT>
0

> <PUBCHEM_ATOM_UDEF_STEREO_COUNT>
1

> <PUBCHEM_BOND_DEF_STEREO_COUNT>
0

> <PUBCHEM_BOND_UDEF_STEREO_COUNT>
0

> <PUBCHEM_ISOTOPIC_ATOM_COUNT>
0

> <PUBCHEM_COMPONENT_COUNT>
1

> <PUBCHEM_CACTVS_TAUTO_COUNT>
-1

> <PUBCHEM_COORDINATE_TYPE>
1
5
255

> <PUBCHEM_BONDANNOTATIONS>
3  2  3

$$$$
