162658209
  -OEChem-09292322462D

 63 67  0     0  0  0  0  0  0999 V2000
    2.0000   -6.9148    0.0000 F   0  0  0  0  0  0  0  0  0  0  0  0
    5.5443   -6.7196    0.0000 O   0  0  0  0  0  0  0  0  0  0  0  0
    9.0546    0.0550    0.0000 O   0  0  0  0  0  0  0  0  0  0  0  0
   11.9436    3.3190    0.0000 O   0  0  0  0  0  0  0  0  0  0  0  0
    6.4763   -2.2585    0.0000 N   0  0  0  0  0  0  0  0  0  0  0  0
    6.1279   -5.9148    0.0000 N   0  0  0  0  0  0  0  0  0  0  0  0
   10.2973    3.8570    0.0000 N   0  0  0  0  0  0  0  0  0  0  0  0
    5.8550   -4.1596    0.0000 C   0  0  0  0  0  0  0  0  0  0  0  0
    6.8335   -3.9533    0.0000 C   0  0  0  0  0  0  0  0  0  0  0  0
    5.1871   -3.4153    0.0000 C   0  0  0  0  0  0  0  0  0  0  0  0
    7.1441   -3.0028    0.0000 C   0  0  0  0  0  0  0  0  0  0  0  0
    5.4978   -2.4647    0.0000 C   0  0  0  0  0  0  0  0  0  0  0  0
    6.7870   -1.3080    0.0000 C   0  0  0  0  0  0  0  0  0  0  0  0
    5.5443   -5.1101    0.0000 C   0  0  0  0  0  0  0  0  0  0  0  0
    7.7654   -1.1018    0.0000 C   0  0  0  0  0  0  0  0  0  0  0  0
    4.5981   -5.4148    0.0000 C   0  0  0  0  0  0  0  0  0  0  0  0
    4.5981   -6.4148    0.0000 C   0  0  0  0  0  0  0  0  0  0  0  0
    8.0761   -0.1513    0.0000 C   0  0  0  0  0  0  0  0  0  0  0  0
    3.7320   -4.9148    0.0000 C   0  0  0  0  0  0  0  0  0  0  0  0
    3.7320   -6.9148    0.0000 C   0  0  0  0  0  0  0  0  0  0  0  0
    2.8660   -5.4148    0.0000 C   0  0  0  0  0  0  0  0  0  0  0  0
    2.8660   -6.4148    0.0000 C   0  0  0  0  0  0  0  0  0  0  0  0
    9.3653    1.0055    0.0000 C   0  0  0  0  0  0  0  0  0  0  0  0
    8.6974    1.7498    0.0000 C   0  0  0  0  0  0  0  0  0  0  0  0
   10.3438    1.2117    0.0000 C   0  0  0  0  0  0  0  0  0  0  0  0
    9.0081    2.7003    0.0000 C   0  0  0  0  0  0  0  0  0  0  0  0
   10.6545    2.1622    0.0000 C   0  0  0  0  0  0  0  0  0  0  0  0
    9.9866    2.9065    0.0000 C   0  0  0  0  0  0  0  0  0  0  0  0
   11.2758    4.0633    0.0000 C   0  0  0  0  0  0  0  0  0  0  0  0
   11.5864    5.0138    0.0000 C   0  0  0  0  0  0  0  0  0  0  0  0
   12.5649    5.2200    0.0000 C   0  0  0  0  0  0  0  0  0  0  0  0
   10.9186    5.7581    0.0000 C   0  0  0  0  0  0  0  0  0  0  0  0
   12.8756    6.1705    0.0000 C   0  0  0  0  0  0  0  0  0  0  0  0
   11.2293    6.7086    0.0000 C   0  0  0  0  0  0  0  0  0  0  0  0
   12.2078    6.9148    0.0000 C   0  0  0  0  0  0  0  0  0  0  0  0
    6.2690   -4.6210    0.0000 H   0  0  0  0  0  0  0  0  0  0  0  0
    6.8540   -4.5730    0.0000 H   0  0  0  0  0  0  0  0  0  0  0  0
    7.4473   -4.0407    0.0000 H   0  0  0  0  0  0  0  0  0  0  0  0
    4.6402   -3.1232    0.0000 H   0  0  0  0  0  0  0  0  0  0  0  0
    4.8046   -3.9032    0.0000 H   0  0  0  0  0  0  0  0  0  0  0  0
    7.6910   -3.2948    0.0000 H   0  0  0  0  0  0  0  0  0  0  0  0
    7.5267   -2.5149    0.0000 H   0  0  0  0  0  0  0  0  0  0  0  0
    5.4772   -1.8451    0.0000 H   0  0  0  0  0  0  0  0  0  0  0  0
    4.8840   -2.3774    0.0000 H   0  0  0  0  0  0  0  0  0  0  0  0
    6.7664   -0.6883    0.0000 H   0  0  0  0  0  0  0  0  0  0  0  0
    6.1731   -1.2206    0.0000 H   0  0  0  0  0  0  0  0  0  0  0  0
    7.7860   -1.7214    0.0000 H   0  0  0  0  0  0  0  0  0  0  0  0
    8.3793   -1.1891    0.0000 H   0  0  0  0  0  0  0  0  0  0  0  0
    8.0556    0.4684    0.0000 H   0  0  0  0  0  0  0  0  0  0  0  0
    7.4623   -0.0639    0.0000 H   0  0  0  0  0  0  0  0  0  0  0  0
    3.7320   -4.2948    0.0000 H   0  0  0  0  0  0  0  0  0  0  0  0
    3.7320   -7.5348    0.0000 H   0  0  0  0  0  0  0  0  0  0  0  0
    2.3291   -5.1048    0.0000 H   0  0  0  0  0  0  0  0  0  0  0  0
    8.0908    1.6219    0.0000 H   0  0  0  0  0  0  0  0  0  0  0  0
   10.7578    0.7502    0.0000 H   0  0  0  0  0  0  0  0  0  0  0  0
    8.5940    3.1618    0.0000 H   0  0  0  0  0  0  0  0  0  0  0  0
   11.2611    2.2901    0.0000 H   0  0  0  0  0  0  0  0  0  0  0  0
    9.8832    4.3185    0.0000 H   0  0  0  0  0  0  0  0  0  0  0  0
   12.9790    4.7585    0.0000 H   0  0  0  0  0  0  0  0  0  0  0  0
   10.3119    5.6302    0.0000 H   0  0  0  0  0  0  0  0  0  0  0  0
   13.4823    6.2984    0.0000 H   0  0  0  0  0  0  0  0  0  0  0  0
   10.8152    7.1701    0.0000 H   0  0  0  0  0  0  0  0  0  0  0  0
   12.4004    7.5041    0.0000 H   0  0  0  0  0  0  0  0  0  0  0  0
  1 22  1  0  0  0  0
  2  6  1  0  0  0  0
  2 17  1  0  0  0  0
  3 18  1  0  0  0  0
  3 23  1  0  0  0  0
  4 29  2  0  0  0  0
  5 11  1  0  0  0  0
  5 12  1  0  0  0  0
  5 13  1  0  0  0  0
  6 14  2  0  0  0  0
  7 28  1  0  0  0  0
  7 29  1  0  0  0  0
  7 58  1  0  0  0  0
  8  9  1  0  0  0  0
  8 10  1  0  0  0  0
  8 14  1  0  0  0  0
  8 36  1  0  0  0  0
  9 11  1  0  0  0  0
  9 37  1  0  0  0  0
  9 38  1  0  0  0  0
 10 12  1  0  0  0  0
 10 39  1  0  0  0  0
 10 40  1  0  0  0  0
 11 41  1  0  0  0  0
 11 42  1  0  0  0  0
 12 43  1  0  0  0  0
 12 44  1  0  0  0  0
 13 15  1  0  0  0  0
 13 45  1  0  0  0  0
 13 46  1  0  0  0  0
 14 16  1  0  0  0  0
 15 18  1  0  0  0  0
 15 47  1  0  0  0  0
 15 48  1  0  0  0  0
 16 17  2  0  0  0  0
 16 19  1  0  0  0  0
 17 20  1  0  0  0  0
 18 49  1  0  0  0  0
 18 50  1  0  0  0  0
 19 21  2  0  0  0  0
 19 51  1  0  0  0  0
 20 22  2  0  0  0  0
 20 52  1  0  0  0  0
 21 22  1  0  0  0  0
 21 53  1  0  0  0  0
 23 24  2  0  0  0  0
 23 25  1  0  0  0  0
 24 26  1  0  0  0  0
 24 54  1  0  0  0  0
 25 27  2  0  0  0  0
 25 55  1  0  0  0  0
 26 28  2  0  0  0  0
 26 56  1  0  0  0  0
 27 28  1  0  0  0  0
 27 57  1  0  0  0  0
 29 30  1  0  0  0  0
 30 31  2  0  0  0  0
 30 32  1  0  0  0  0
 31 33  1  0  0  0  0
 31 59  1  0  0  0  0
 32 34  2  0  0  0  0
 32 60  1  0  0  0  0
 33 35  2  0  0  0  0
 33 61  1  0  0  0  0
 34 35  1  0  0  0  0
 34 62  1  0  0  0  0
 35 63  1  0  0  0  0
M  END
> <PUBCHEM_COMPOUND_CID>
162658209

> <PUBCHEM_COMPOUND_CANONICALIZED>
1

> <PUBCHEM_CACTVS_COMPLEXITY>
660

> <PUBCHEM_CACTVS_HBOND_ACCEPTOR>
6

> <PUBCHEM_CACTVS_HBOND_DONOR>
1

> <PUBCHEM_CACTVS_ROTATABLE_BOND>
8

> <PUBCHEM_CACTVS_SUBSKEYS>
AAADceB7MQAAAAAAAAAAAAAAAAAAAWAAAAA8YMEAAAAAAFgB9AAAHwAUAAAADQzhng4wxtPQBACpA6VyUgCCCAAlIgAomCE+bNoMJrrEtZuGOajm1BnI6ce4yOCOAEAAAAAIAAAAgAAAABAAAAAAAAAAAA==

> <PUBCHEM_IUPAC_OPENEYE_NAME>
N-[4-[3-[4-(6-fluoro-1,2-benzoxazol-3-yl)-1-piperidyl]propoxy]phenyl]benzamide

> <PUBCHEM_IUPAC_CAS_NAME>
N-[4-[3-[4-(6-fluoro-1,2-benzoxazol-3-yl)-1-piperidinyl]propoxy]phenyl]benzamide

> <PUBCHEM_IUPAC_NAME_MARKUP>
<I>N</I>-[4-[3-[4-(6-fluoro-1,2-benzoxazol-3-yl)piperidin-1-yl]propoxy]phenyl]benzamide

> <PUBCHEM_IUPAC_NAME>
N-[4-[3-[4-(6-fluoro-1,2-benzoxazol-3-yl)piperidin-1-yl]propoxy]phenyl]benzamide

> <PUBCHEM_IUPAC_SYSTEMATIC_NAME>
N-[4-[3-[4-(6-fluoranyl-1,2-benzoxazol-3-yl)piperidin-1-yl]propoxy]phenyl]benzamide

> <PUBCHEM_IUPAC_TRADITIONAL_NAME>
N-[4-[3-[4-(6-fluoroindoxazen-3-yl)piperidino]propoxy]phenyl]benzamide

> <PUBCHEM_IUPAC_INCHI>
InChI=1S/C28H28FN3O3/c29-22-7-12-25-26(19-22)35-31-27(25)20-13-16-32(17-14-20)15-4-18-34-24-10-8-23(9-11-24)30-28(33)21-5-2-1-3-6-21/h1-3,5-12,19-20H,4,13-18H2,(H,30,33)

> <PUBCHEM_IUPAC_INCHIKEY>
PPGVMDHDFFCWER-UHFFFAOYSA-N

> <PUBCHEM_XLOGP3_AA>
5.3

> <PUBCHEM_EXACT_MASS>
473.21146993

> <PUBCHEM_MOLECULAR_FORMULA>
C28H28FN3O3

> <PUBCHEM_MOLECULAR_WEIGHT>
473.5

> <PUBCHEM_OPENEYE_CAN_SMILES>
C1CN(CCC1C2=NOC3=C2C=CC(=C3)F)CCCOC4=CC=C(C=C4)NC(=O)C5=CC=CC=C5

> <PUBCHEM_OPENEYE_ISO_SMILES>
C1CN(CCC1C2=NOC3=C2C=CC(=C3)F)CCCOC4=CC=C(C=C4)NC(=O)C5=CC=CC=C5

> <PUBCHEM_CACTVS_TPSA>
67.6

> <PUBCHEM_MONOISOTOPIC_WEIGHT>
473.21146993

> <PUBCHEM_TOTAL_CHARGE>
0

> <PUBCHEM_HEAVY_ATOM_COUNT>
35

> <PUBCHEM_ATOM_DEF_STEREO_COUNT>
0

> <PUBCHEM_ATOM_UDEF_STEREO_COUNT>
0

> <PUBCHEM_BOND_DEF_STEREO_COUNT>
0

> <PUBCHEM_BOND_UDEF_STEREO_COUNT>
0

> <PUBCHEM_ISOTOPIC_ATOM_COUNT>
0

> <PUBCHEM_COMPONENT_COUNT>
1

> <PUBCHEM_CACTVS_TAUTO_COUNT>
-1

> <PUBCHEM_COORDINATE_TYPE>
1
5
255

> <PUBCHEM_BONDANNOTATIONS>
14  16  8
16  17  8
16  19  8
17  20  8
19  21  8
2  17  8
2  6  8
20  22  8
21  22  8
23  24  8
23  25  8
24  26  8
25  27  8
26  28  8
27  28  8
30  31  8
30  32  8
31  33  8
32  34  8
33  35  8
34  35  8
6  14  8

$$$$
