164916964
  -OEChem-09292322452D

 72 75  0     1  0  0  0  0  0999 V2000
    6.0010   -4.8741    0.0000 Cl  0  0  0  0  0  0  0  0  0  0  0  0
    3.4030   -1.3741    0.0000 O   0  0  0  0  0  0  0  0  0  0  0  0
    6.0010   -2.8741    0.0000 O   0  0  0  0  0  0  0  0  0  0  0  0
    2.5369   -2.8741    0.0000 O   0  0  0  0  0  0  0  0  0  0  0  0
    6.1056    1.1204    0.0000 N   0  0  3  0  0  0  0  0  0  0  0  0
    5.1350   -1.3741    0.0000 N   0  0  0  0  0  0  0  0  0  0  0  0
    3.4889    1.9505    0.0000 N   0  0  0  0  0  0  0  0  0  0  0  0
    6.0010    0.1259    0.0000 C   0  0  1  0  0  0  0  0  0  0  0  0
    6.9146   -0.2809    0.0000 C   0  0  0  0  0  0  0  0  0  0  0  0
    7.0837    1.3283    0.0000 C   0  0  0  0  0  0  0  0  0  0  0  0
    7.5837    0.4623    0.0000 C   0  0  0  0  0  0  0  0  0  0  0  0
    5.3624    1.7895    0.0000 C   0  0  0  0  0  0  0  0  0  0  0  0
    5.1350   -0.3741    0.0000 C   0  0  0  0  0  0  0  0  0  0  0  0
    5.5703    2.7677    0.0000 C   0  0  0  0  0  0  0  0  0  0  0  0
    4.8272    3.4368    0.0000 C   0  0  0  0  0  0  0  0  0  0  0  0
    4.0840    4.1059    0.0000 C   0  0  0  0  0  0  0  0  0  0  0  0
    5.4963    4.1799    0.0000 C   0  0  0  0  0  0  0  0  0  0  0  0
    4.1581    2.6936    0.0000 C   0  0  0  0  0  0  0  0  0  0  0  0
    4.2690   -1.8741    0.0000 C   0  0  0  0  0  0  0  0  0  0  0  0
    4.2920    5.0841    0.0000 C   0  0  0  0  0  0  0  0  0  0  0  0
    6.4745    3.9720    0.0000 C   0  0  0  0  0  0  0  0  0  0  0  0
    3.1330    3.7969    0.0000 C   0  0  0  0  0  0  0  0  0  0  0  0
    5.1873    5.1310    0.0000 C   0  0  0  0  0  0  0  0  0  0  0  0
    4.2690   -2.8741    0.0000 C   0  0  0  0  0  0  0  0  0  0  0  0
    3.5488    5.7532    0.0000 C   0  0  0  0  0  0  0  0  0  0  0  0
    7.1436    4.7152    0.0000 C   0  0  0  0  0  0  0  0  0  0  0  0
    2.3898    4.4660    0.0000 C   0  0  0  0  0  0  0  0  0  0  0  0
    5.8564    5.8741    0.0000 C   0  0  0  0  0  0  0  0  0  0  0  0
    2.5978    5.4442    0.0000 C   0  0  0  0  0  0  0  0  0  0  0  0
    6.8346    5.6662    0.0000 C   0  0  0  0  0  0  0  0  0  0  0  0
    3.4030   -3.3741    0.0000 C   0  0  0  0  0  0  0  0  0  0  0  0
    5.1350   -3.3741    0.0000 C   0  0  0  0  0  0  0  0  0  0  0  0
    3.4030   -4.3741    0.0000 C   0  0  0  0  0  0  0  0  0  0  0  0
    5.1350   -4.3741    0.0000 C   0  0  0  0  0  0  0  0  0  0  0  0
    4.2690   -4.8741    0.0000 C   0  0  0  0  0  0  0  0  0  0  0  0
    2.5369   -4.8741    0.0000 C   0  0  0  0  0  0  0  0  0  0  0  0
    2.5369   -5.8741    0.0000 C   0  0  0  0  0  0  0  0  0  0  0  0
    6.8671   -3.3741    0.0000 C   0  0  0  0  0  0  0  0  0  0  0  0
    5.4811    0.4635    0.0000 H   0  0  0  0  0  0  0  0  0  0  0  0
    6.6046   -0.8178    0.0000 H   0  0  0  0  0  0  0  0  0  0  0  0
    7.4162   -0.6453    0.0000 H   0  0  0  0  0  0  0  0  0  0  0  0
    7.6501    1.5805    0.0000 H   0  0  0  0  0  0  0  0  0  0  0  0
    6.8921    1.9180    0.0000 H   0  0  0  0  0  0  0  0  0  0  0  0
    7.9986    0.0015    0.0000 H   0  0  0  0  0  0  0  0  0  0  0  0
    8.0853    0.8267    0.0000 H   0  0  0  0  0  0  0  0  0  0  0  0
    4.7876    2.0218    0.0000 H   0  0  0  0  0  0  0  0  0  0  0  0
    5.0339    1.2637    0.0000 H   0  0  0  0  0  0  0  0  0  0  0  0
    4.9230    0.2085    0.0000 H   0  0  0  0  0  0  0  0  0  0  0  0
    4.5244   -0.4818    0.0000 H   0  0  0  0  0  0  0  0  0  0  0  0
    6.1452    2.5354    0.0000 H   0  0  0  0  0  0  0  0  0  0  0  0
    5.8989    3.2934    0.0000 H   0  0  0  0  0  0  0  0  0  0  0  0
    5.6720   -1.6841    0.0000 H   0  0  0  0  0  0  0  0  0  0  0  0
    4.8816    5.2757    0.0000 H   0  0  0  0  0  0  0  0  0  0  0  0
    6.6661    3.3824    0.0000 H   0  0  0  0  0  0  0  0  0  0  0  0
    3.0041    3.1904    0.0000 H   0  0  0  0  0  0  0  0  0  0  0  0
    4.5808    5.2599    0.0000 H   0  0  0  0  0  0  0  0  0  0  0  0
    3.6777    6.3596    0.0000 H   0  0  0  0  0  0  0  0  0  0  0  0
    7.7500    4.5863    0.0000 H   0  0  0  0  0  0  0  0  0  0  0  0
    1.8002    4.2744    0.0000 H   0  0  0  0  0  0  0  0  0  0  0  0
    5.6648    6.4638    0.0000 H   0  0  0  0  0  0  0  0  0  0  0  0
    2.1370    5.8590    0.0000 H   0  0  0  0  0  0  0  0  0  0  0  0
    7.2494    6.1270    0.0000 H   0  0  0  0  0  0  0  0  0  0  0  0
    4.2690   -5.4941    0.0000 H   0  0  0  0  0  0  0  0  0  0  0  0
    2.3249   -4.2915    0.0000 H   0  0  0  0  0  0  0  0  0  0  0  0
    1.9264   -4.9818    0.0000 H   0  0  0  0  0  0  0  0  0  0  0  0
    2.0000   -3.1841    0.0000 H   0  0  0  0  0  0  0  0  0  0  0  0
    1.9169   -5.8741    0.0000 H   0  0  0  0  0  0  0  0  0  0  0  0
    2.5369   -6.4941    0.0000 H   0  0  0  0  0  0  0  0  0  0  0  0
    3.1569   -5.8741    0.0000 H   0  0  0  0  0  0  0  0  0  0  0  0
    6.5571   -3.9111    0.0000 H   0  0  0  0  0  0  0  0  0  0  0  0
    7.4040   -3.6841    0.0000 H   0  0  0  0  0  0  0  0  0  0  0  0
    7.1771   -2.8372    0.0000 H   0  0  0  0  0  0  0  0  0  0  0  0
  1 34  1  0  0  0  0
  2 19  2  0  0  0  0
  3 32  1  0  0  0  0
  3 38  1  0  0  0  0
  4 31  1  0  0  0  0
  4 66  1  0  0  0  0
  5  8  1  0  0  0  0
  5 10  1  0  0  0  0
  5 12  1  0  0  0  0
  6 13  1  0  0  0  0
  6 19  1  0  0  0  0
  6 52  1  0  0  0  0
  7 18  3  0  0  0  0
  8  9  1  0  0  0  0
  8 13  1  1  0  0  0
  8 39  1  0  0  0  0
  9 11  1  0  0  0  0
  9 40  1  0  0  0  0
  9 41  1  0  0  0  0
 10 11  1  0  0  0  0
 10 42  1  0  0  0  0
 10 43  1  0  0  0  0
 11 44  1  0  0  0  0
 11 45  1  0  0  0  0
 12 14  1  0  0  0  0
 12 46  1  0  0  0  0
 12 47  1  0  0  0  0
 13 48  1  0  0  0  0
 13 49  1  0  0  0  0
 14 15  1  0  0  0  0
 14 50  1  0  0  0  0
 14 51  1  0  0  0  0
 15 16  1  0  0  0  0
 15 17  1  0  0  0  0
 15 18  1  0  0  0  0
 16 20  2  0  0  0  0
 16 22  1  0  0  0  0
 17 21  2  0  0  0  0
 17 23  1  0  0  0  0
 19 24  1  0  0  0  0
 20 25  1  0  0  0  0
 20 53  1  0  0  0  0
 21 26  1  0  0  0  0
 21 54  1  0  0  0  0
 22 27  2  0  0  0  0
 22 55  1  0  0  0  0
 23 28  2  0  0  0  0
 23 56  1  0  0  0  0
 24 31  2  0  0  0  0
 24 32  1  0  0  0  0
 25 29  2  0  0  0  0
 25 57  1  0  0  0  0
 26 30  2  0  0  0  0
 26 58  1  0  0  0  0
 27 29  1  0  0  0  0
 27 59  1  0  0  0  0
 28 30  1  0  0  0  0
 28 60  1  0  0  0  0
 29 61  1  0  0  0  0
 30 62  1  0  0  0  0
 31 33  1  0  0  0  0
 32 34  2  0  0  0  0
 33 35  2  0  0  0  0
 33 36  1  0  0  0  0
 34 35  1  0  0  0  0
 35 63  1  0  0  0  0
 36 37  1  0  0  0  0
 36 64  1  0  0  0  0
 36 65  1  0  0  0  0
 37 67  1  0  0  0  0
 37 68  1  0  0  0  0
 37 69  1  0  0  0  0
 38 70  1  0  0  0  0
 38 71  1  0  0  0  0
 38 72  1  0  0  0  0
M  END
> <PUBCHEM_COMPOUND_CID>
164916964

> <PUBCHEM_COMPOUND_CANONICALIZED>
1

> <PUBCHEM_CACTVS_COMPLEXITY>
785

> <PUBCHEM_CACTVS_HBOND_ACCEPTOR>
5

> <PUBCHEM_CACTVS_HBOND_DONOR>
2

> <PUBCHEM_CACTVS_ROTATABLE_BOND>
10

> <PUBCHEM_CACTVS_SUBSKEYS>
AAADcfB7MAAEAAAAAAAAAAAAAAAAAWAAAAAwYMAAAAAAAAABUAAAHgIQCAAADi7BmCYyBoPABgCYBiFSEACCCAAkJUAIiIEMD8gM5zeHtxuUcWhn9hWIuQ+Y6OyPoCACKAAICABAQARQABAQAAAAAAAAAA==

> <PUBCHEM_IUPAC_OPENEYE_NAME>
5-chloro-N-[[(2S)-1-(3-cyano-3,3-diphenyl-propyl)pyrrolidin-2-yl]methyl]-3-ethyl-2-hydroxy-6-methoxy-benzamide

> <PUBCHEM_IUPAC_CAS_NAME>
5-chloro-N-[[(2S)-1-(3-cyano-3,3-diphenylpropyl)-2-pyrrolidinyl]methyl]-3-ethyl-2-hydroxy-6-methoxybenzamide

> <PUBCHEM_IUPAC_NAME_MARKUP>
5-chloro-<I>N</I>-[[(2<I>S</I>)-1-(3-cyano-3,3-diphenylpropyl)pyrrolidin-2-yl]methyl]-3-ethyl-2-hydroxy-6-methoxybenzamide

> <PUBCHEM_IUPAC_NAME>
5-chloro-N-[[(2S)-1-(3-cyano-3,3-diphenylpropyl)pyrrolidin-2-yl]methyl]-3-ethyl-2-hydroxy-6-methoxybenzamide

> <PUBCHEM_IUPAC_SYSTEMATIC_NAME>
3-chloranyl-N-[[(2S)-1-(3-cyano-3,3-diphenyl-propyl)pyrrolidin-2-yl]methyl]-5-ethyl-2-methoxy-6-oxidanyl-benzamide

> <PUBCHEM_IUPAC_TRADITIONAL_NAME>
5-chloro-N-[[(2S)-1-(3-cyano-3,3-diphenyl-propyl)pyrrolidin-2-yl]methyl]-3-ethyl-2-hydroxy-6-methoxy-benzamide

> <PUBCHEM_IUPAC_INCHI>
InChI=1S/C31H34ClN3O3/c1-3-22-19-26(32)29(38-2)27(28(22)36)30(37)34-20-25-15-10-17-35(25)18-16-31(21-33,23-11-6-4-7-12-23)24-13-8-5-9-14-24/h4-9,11-14,19,25,36H,3,10,15-18,20H2,1-2H3,(H,34,37)/t25-/m0/s1

> <PUBCHEM_IUPAC_INCHIKEY>
GTJVZGFQTWRYQO-VWLOTQADSA-N

> <PUBCHEM_XLOGP3_AA>
6.6

> <PUBCHEM_EXACT_MASS>
531.2288696

> <PUBCHEM_MOLECULAR_FORMULA>
C31H34ClN3O3

> <PUBCHEM_MOLECULAR_WEIGHT>
532.1

> <PUBCHEM_OPENEYE_CAN_SMILES>
CCC1=CC(=C(C(=C1O)C(=O)NCC2CCCN2CCC(C#N)(C3=CC=CC=C3)C4=CC=CC=C4)OC)Cl

> <PUBCHEM_OPENEYE_ISO_SMILES>
CCC1=CC(=C(C(=C1O)C(=O)NC[C@@H]2CCCN2CCC(C#N)(C3=CC=CC=C3)C4=CC=CC=C4)OC)Cl

> <PUBCHEM_CACTVS_TPSA>
85.6

> <PUBCHEM_MONOISOTOPIC_WEIGHT>
531.2288696

> <PUBCHEM_TOTAL_CHARGE>
0

> <PUBCHEM_HEAVY_ATOM_COUNT>
38

> <PUBCHEM_ATOM_DEF_STEREO_COUNT>
1

> <PUBCHEM_ATOM_UDEF_STEREO_COUNT>
0

> <PUBCHEM_BOND_DEF_STEREO_COUNT>
0

> <PUBCHEM_BOND_UDEF_STEREO_COUNT>
0

> <PUBCHEM_ISOTOPIC_ATOM_COUNT>
0

> <PUBCHEM_COMPONENT_COUNT>
1

> <PUBCHEM_CACTVS_TAUTO_COUNT>
-1

> <PUBCHEM_COORDINATE_TYPE>
1
5
255

> <PUBCHEM_BONDANNOTATIONS>
16  20  8
16  22  8
17  21  8
17  23  8
20  25  8
21  26  8
22  27  8
23  28  8
24  31  8
24  32  8
25  29  8
26  30  8
27  29  8
28  30  8
31  33  8
32  34  8
33  35  8
34  35  8
8  13  5

$$$$
