44319568
  -OEChem-09292322202D

116123  0     0  0  0  0  0  0999 V2000
    8.4487    0.4966    0.0000 O   0  0  0  0  0  0  0  0  0  0  0  0
    9.2619   -2.5907    0.0000 O   0  0  0  0  0  0  0  0  0  0  0  0
   11.8926    0.1226    0.0000 N   0  0  0  0  0  0  0  0  0  0  0  0
   13.5065   -1.0586    0.0000 N   0  0  0  0  0  0  0  0  0  0  0  0
    4.2746    2.5542    0.0000 N   0  0  0  0  0  0  0  0  0  0  0  0
    4.6783   -1.7860    0.0000 N   0  0  0  0  0  0  0  0  0  0  0  0
   12.2619   -4.3228    0.0000 N   0  0  0  0  0  0  0  0  0  0  0  0
    5.2251    3.8530    0.0000 N   0  0  0  0  0  0  0  0  0  0  0  0
    4.6783   -3.3955    0.0000 N   0  0  0  0  0  0  0  0  0  0  0  0
   11.7846   -0.8716    0.0000 C   0  0  0  0  0  0  0  0  0  0  0  0
   12.8075    0.5261    0.0000 C   0  0  0  0  0  0  0  0  0  0  0  0
   12.5916   -1.4622    0.0000 C   0  0  0  0  0  0  0  0  0  0  0  0
   13.6145   -0.0644    0.0000 C   0  0  0  0  0  0  0  0  0  0  0  0
   11.0856    0.7131    0.0000 C   0  0  0  0  0  0  0  0  0  0  0  0
   10.1706    0.3096    0.0000 C   0  0  0  0  0  0  0  0  0  0  0  0
   14.3135   -1.6492    0.0000 C   0  0  0  0  0  0  0  0  0  0  0  0
    9.3636    0.9002    0.0000 C   0  0  0  0  0  0  0  0  0  0  0  0
   15.2284   -1.2456    0.0000 C   0  0  0  0  0  0  0  0  0  0  0  0
   14.2055   -2.6433    0.0000 C   0  0  0  0  0  0  0  0  0  0  0  0
   16.0354   -1.8362    0.0000 C   0  0  0  0  0  0  0  0  0  0  0  0
   15.0125   -3.2339    0.0000 C   0  0  0  0  0  0  0  0  0  0  0  0
   15.9274   -2.8304    0.0000 C   0  0  0  0  0  0  0  0  0  0  0  0
    7.6417    1.0872    0.0000 C   0  0  0  0  0  0  0  0  0  0  0  0
    6.0278    2.2683    0.0000 C   0  0  0  0  0  0  0  0  0  0  0  0
    5.2208    2.8589    0.0000 C   0  0  0  0  0  0  0  0  0  0  0  0
    7.7497    2.0813    0.0000 C   0  0  0  0  0  0  0  0  0  0  0  0
    6.7268    0.6836    0.0000 C   0  0  0  0  0  0  0  0  0  0  0  0
    3.6910    3.3589    0.0000 C   0  0  0  0  0  0  0  0  0  0  0  0
    3.9639    1.6036    0.0000 C   0  0  0  0  0  0  0  0  0  0  0  0
    6.9427    2.6719    0.0000 C   0  0  0  0  0  0  0  0  0  0  0  0
    5.9198    1.2742    0.0000 C   0  0  0  0  0  0  0  0  0  0  0  0
    4.2815    4.1659    0.0000 C   0  0  0  0  0  0  0  0  0  0  0  0
    4.9889   -0.8355    0.0000 C   0  0  0  0  0  0  0  0  0  0  0  0
   11.2619   -4.3228    0.0000 C   0  0  0  0  0  0  0  0  0  0  0  0
    3.7320   -2.0907    0.0000 C   0  0  0  0  0  0  0  0  0  0  0  0
    5.2619   -2.5907    0.0000 C   0  0  0  0  0  0  0  0  0  0  0  0
   10.7619   -3.4568    0.0000 C   0  0  0  0  0  0  0  0  0  0  0  0
    4.6318    0.8594    0.0000 C   0  0  0  0  0  0  0  0  0  0  0  0
    3.7320   -3.0907    0.0000 C   0  0  0  0  0  0  0  0  0  0  0  0
    4.3211   -0.0912    0.0000 C   0  0  0  0  0  0  0  0  0  0  0  0
    6.2619   -2.5907    0.0000 C   0  0  0  0  0  0  0  0  0  0  0  0
   12.7619   -5.1888    0.0000 C   0  0  0  0  0  0  0  0  0  0  0  0
   12.7619   -3.4568    0.0000 C   0  0  0  0  0  0  0  0  0  0  0  0
    2.6968    3.4669    0.0000 C   0  0  0  0  0  0  0  0  0  0  0  0
    9.7619   -3.4568    0.0000 C   0  0  0  0  0  0  0  0  0  0  0  0
    3.8780    5.0808    0.0000 C   0  0  0  0  0  0  0  0  0  0  0  0
    2.8660   -1.5907    0.0000 C   0  0  0  0  0  0  0  0  0  0  0  0
    2.8660   -3.5907    0.0000 C   0  0  0  0  0  0  0  0  0  0  0  0
    2.2932    4.3818    0.0000 C   0  0  0  0  0  0  0  0  0  0  0  0
    6.7619   -1.7247    0.0000 C   0  0  0  0  0  0  0  0  0  0  0  0
    6.7619   -3.4568    0.0000 C   0  0  0  0  0  0  0  0  0  0  0  0
    8.2619   -2.5907    0.0000 C   0  0  0  0  0  0  0  0  0  0  0  0
    2.8838    5.1888    0.0000 C   0  0  0  0  0  0  0  0  0  0  0  0
   13.7619   -5.1888    0.0000 C   0  0  0  0  0  0  0  0  0  0  0  0
   13.7619   -3.4568    0.0000 C   0  0  0  0  0  0  0  0  0  0  0  0
    7.7619   -1.7247    0.0000 C   0  0  0  0  0  0  0  0  0  0  0  0
    7.7619   -3.4568    0.0000 C   0  0  0  0  0  0  0  0  0  0  0  0
    2.0000   -2.0907    0.0000 C   0  0  0  0  0  0  0  0  0  0  0  0
    2.0000   -3.0907    0.0000 C   0  0  0  0  0  0  0  0  0  0  0  0
   11.1892   -0.6986    0.0000 H   0  0  0  0  0  0  0  0  0  0  0  0
   11.5109   -1.4279    0.0000 H   0  0  0  0  0  0  0  0  0  0  0  0
   13.2550    0.9553    0.0000 H   0  0  0  0  0  0  0  0  0  0  0  0
   12.4626    1.0413    0.0000 H   0  0  0  0  0  0  0  0  0  0  0  0
   12.1441   -1.8913    0.0000 H   0  0  0  0  0  0  0  0  0  0  0  0
   12.9365   -1.9774    0.0000 H   0  0  0  0  0  0  0  0  0  0  0  0
   14.2099   -0.2374    0.0000 H   0  0  0  0  0  0  0  0  0  0  0  0
   13.8882    0.4919    0.0000 H   0  0  0  0  0  0  0  0  0  0  0  0
   11.5331    1.1423    0.0000 H   0  0  0  0  0  0  0  0  0  0  0  0
   10.7407    1.2283    0.0000 H   0  0  0  0  0  0  0  0  0  0  0  0
    9.7232   -0.1196    0.0000 H   0  0  0  0  0  0  0  0  0  0  0  0
   10.5155   -0.2056    0.0000 H   0  0  0  0  0  0  0  0  0  0  0  0
    9.8111    1.3293    0.0000 H   0  0  0  0  0  0  0  0  0  0  0  0
    9.0187    1.4154    0.0000 H   0  0  0  0  0  0  0  0  0  0  0  0
   15.2954   -0.6292    0.0000 H   0  0  0  0  0  0  0  0  0  0  0  0
   13.6382   -2.8936    0.0000 H   0  0  0  0  0  0  0  0  0  0  0  0
   16.6027   -1.5860    0.0000 H   0  0  0  0  0  0  0  0  0  0  0  0
   14.9456   -3.8503    0.0000 H   0  0  0  0  0  0  0  0  0  0  0  0
   16.4278   -3.1965    0.0000 H   0  0  0  0  0  0  0  0  0  0  0  0
    8.3170    2.3315    0.0000 H   0  0  0  0  0  0  0  0  0  0  0  0
    6.6598    0.0672    0.0000 H   0  0  0  0  0  0  0  0  0  0  0  0
    3.4170    1.8957    0.0000 H   0  0  0  0  0  0  0  0  0  0  0  0
    3.5814    1.1158    0.0000 H   0  0  0  0  0  0  0  0  0  0  0  0
    7.0097    3.2883    0.0000 H   0  0  0  0  0  0  0  0  0  0  0  0
    5.3525    1.0240    0.0000 H   0  0  0  0  0  0  0  0  0  0  0  0
    5.5359   -1.1275    0.0000 H   0  0  0  0  0  0  0  0  0  0  0  0
    5.3715   -0.3476    0.0000 H   0  0  0  0  0  0  0  0  0  0  0  0
   10.6793   -4.5348    0.0000 H   0  0  0  0  0  0  0  0  0  0  0  0
   11.3695   -4.9334    0.0000 H   0  0  0  0  0  0  0  0  0  0  0  0
   11.3445   -3.2447    0.0000 H   0  0  0  0  0  0  0  0  0  0  0  0
   10.6542   -2.8462    0.0000 H   0  0  0  0  0  0  0  0  0  0  0  0
    5.2384    0.9872    0.0000 H   0  0  0  0  0  0  0  0  0  0  0  0
    3.7144   -0.2190    0.0000 H   0  0  0  0  0  0  0  0  0  0  0  0
   12.1793   -5.4008    0.0000 H   0  0  0  0  0  0  0  0  0  0  0  0
   12.8695   -5.7994    0.0000 H   0  0  0  0  0  0  0  0  0  0  0  0
   12.8695   -2.8462    0.0000 H   0  0  0  0  0  0  0  0  0  0  0  0
   12.1793   -3.2447    0.0000 H   0  0  0  0  0  0  0  0  0  0  0  0
    2.3306    2.9665    0.0000 H   0  0  0  0  0  0  0  0  0  0  0  0
    9.1793   -3.6688    0.0000 H   0  0  0  0  0  0  0  0  0  0  0  0
    9.8695   -4.0673    0.0000 H   0  0  0  0  0  0  0  0  0  0  0  0
    4.2441    5.5812    0.0000 H   0  0  0  0  0  0  0  0  0  0  0  0
    2.8660   -0.9707    0.0000 H   0  0  0  0  0  0  0  0  0  0  0  0
    2.8660   -4.2107    0.0000 H   0  0  0  0  0  0  0  0  0  0  0  0
    1.6769    4.4488    0.0000 H   0  0  0  0  0  0  0  0  0  0  0  0
    6.4519   -1.1878    0.0000 H   0  0  0  0  0  0  0  0  0  0  0  0
    6.4519   -3.9937    0.0000 H   0  0  0  0  0  0  0  0  0  0  0  0
    2.6336    5.7561    0.0000 H   0  0  0  0  0  0  0  0  0  0  0  0
   13.7619   -5.8088    0.0000 H   0  0  0  0  0  0  0  0  0  0  0  0
   14.3819   -5.1888    0.0000 H   0  0  0  0  0  0  0  0  0  0  0  0
   13.7619   -4.5688    0.0000 H   0  0  0  0  0  0  0  0  0  0  0  0
   13.7619   -4.0768    0.0000 H   0  0  0  0  0  0  0  0  0  0  0  0
   14.3819   -3.4568    0.0000 H   0  0  0  0  0  0  0  0  0  0  0  0
   13.7619   -2.8368    0.0000 H   0  0  0  0  0  0  0  0  0  0  0  0
    8.0719   -1.1878    0.0000 H   0  0  0  0  0  0  0  0  0  0  0  0
    8.0719   -3.9937    0.0000 H   0  0  0  0  0  0  0  0  0  0  0  0
    1.4631   -1.7807    0.0000 H   0  0  0  0  0  0  0  0  0  0  0  0
    1.4631   -3.4007    0.0000 H   0  0  0  0  0  0  0  0  0  0  0  0
  1 17  1  0  0  0  0
  1 23  1  0  0  0  0
  2 45  1  0  0  0  0
  2 52  1  0  0  0  0
  3 10  1  0  0  0  0
  3 11  1  0  0  0  0
  3 14  1  0  0  0  0
  4 12  1  0  0  0  0
  4 13  1  0  0  0  0
  4 16  1  0  0  0  0
  5 25  1  0  0  0  0
  5 28  1  0  0  0  0
  5 29  1  0  0  0  0
  6 33  1  0  0  0  0
  6 35  1  0  0  0  0
  6 36  1  0  0  0  0
  7 34  1  0  0  0  0
  7 42  1  0  0  0  0
  7 43  1  0  0  0  0
  8 25  2  0  0  0  0
  8 32  1  0  0  0  0
  9 36  2  0  0  0  0
  9 39  1  0  0  0  0
 10 12  1  0  0  0  0
 10 60  1  0  0  0  0
 10 61  1  0  0  0  0
 11 13  1  0  0  0  0
 11 62  1  0  0  0  0
 11 63  1  0  0  0  0
 12 64  1  0  0  0  0
 12 65  1  0  0  0  0
 13 66  1  0  0  0  0
 13 67  1  0  0  0  0
 14 15  1  0  0  0  0
 14 68  1  0  0  0  0
 14 69  1  0  0  0  0
 15 17  1  0  0  0  0
 15 70  1  0  0  0  0
 15 71  1  0  0  0  0
 16 18  2  0  0  0  0
 16 19  1  0  0  0  0
 17 72  1  0  0  0  0
 17 73  1  0  0  0  0
 18 20  1  0  0  0  0
 18 74  1  0  0  0  0
 19 21  2  0  0  0  0
 19 75  1  0  0  0  0
 20 22  2  0  0  0  0
 20 76  1  0  0  0  0
 21 22  1  0  0  0  0
 21 77  1  0  0  0  0
 22 78  1  0  0  0  0
 23 26  2  0  0  0  0
 23 27  1  0  0  0  0
 24 25  1  0  0  0  0
 24 30  2  0  0  0  0
 24 31  1  0  0  0  0
 26 30  1  0  0  0  0
 26 79  1  0  0  0  0
 27 31  2  0  0  0  0
 27 80  1  0  0  0  0
 28 32  1  0  0  0  0
 28 44  2  0  0  0  0
 29 38  1  0  0  0  0
 29 81  1  0  0  0  0
 29 82  1  0  0  0  0
 30 83  1  0  0  0  0
 31 84  1  0  0  0  0
 32 46  2  0  0  0  0
 33 40  1  0  0  0  0
 33 85  1  0  0  0  0
 33 86  1  0  0  0  0
 34 37  1  0  0  0  0
 34 87  1  0  0  0  0
 34 88  1  0  0  0  0
 35 39  1  0  0  0  0
 35 47  2  0  0  0  0
 36 41  1  0  0  0  0
 37 45  1  0  0  0  0
 37 89  1  0  0  0  0
 37 90  1  0  0  0  0
 38 40  2  0  0  0  0
 38 91  1  0  0  0  0
 39 48  2  0  0  0  0
 40 92  1  0  0  0  0
 41 50  2  0  0  0  0
 41 51  1  0  0  0  0
 42 54  1  0  0  0  0
 42 93  1  0  0  0  0
 42 94  1  0  0  0  0
 43 55  1  0  0  0  0
 43 95  1  0  0  0  0
 43 96  1  0  0  0  0
 44 49  1  0  0  0  0
 44 97  1  0  0  0  0
 45 98  1  0  0  0  0
 45 99  1  0  0  0  0
 46 53  1  0  0  0  0
 46100  1  0  0  0  0
 47 58  1  0  0  0  0
 47101  1  0  0  0  0
 48 59  1  0  0  0  0
 48102  1  0  0  0  0
 49 53  2  0  0  0  0
 49103  1  0  0  0  0
 50 56  1  0  0  0  0
 50104  1  0  0  0  0
 51 57  2  0  0  0  0
 51105  1  0  0  0  0
 52 56  2  0  0  0  0
 52 57  1  0  0  0  0
 53106  1  0  0  0  0
 54107  1  0  0  0  0
 54108  1  0  0  0  0
 54109  1  0  0  0  0
 55110  1  0  0  0  0
 55111  1  0  0  0  0
 55112  1  0  0  0  0
 56113  1  0  0  0  0
 57114  1  0  0  0  0
 58 59  2  0  0  0  0
 58115  1  0  0  0  0
 59116  1  0  0  0  0
M  END
> <PUBCHEM_COMPOUND_CID>
44319568

> <PUBCHEM_COMPOUND_CANONICALIZED>
1

> <PUBCHEM_CACTVS_COMPLEXITY>
1210

> <PUBCHEM_CACTVS_HBOND_ACCEPTOR>
7

> <PUBCHEM_CACTVS_HBOND_DONOR>
0

> <PUBCHEM_CACTVS_ROTATABLE_BOND>
19

> <PUBCHEM_CACTVS_SUBSKEYS>
AAADcfB/sAAAAAAAAAAAAAAAAAAAAWLAAAA8YMGDAAAAAFgB/gAAHgAAAAAADAzhnwYz1rcMFACgAyZiZACCiC0hMqAJ2CA+fJiMbqLEuZuWOCjuwBPI6CeQ0AIOIAAAAAAAACBAAAAAAAAAQAAAAAAAAA==

> <PUBCHEM_IUPAC_OPENEYE_NAME>
N,N-diethyl-3-[4-[1-[(E)-4-[2-[4-[3-(4-phenylpiperazin-1-yl)propoxy]phenyl]benzimidazol-1-yl]but-2-enyl]benzimidazol-2-yl]phenoxy]propan-1-amine

> <PUBCHEM_IUPAC_CAS_NAME>
N,N-diethyl-3-[4-[1-[(E)-4-[2-[4-[3-(4-phenyl-1-piperazinyl)propoxy]phenyl]-1-benzimidazolyl]but-2-enyl]-2-benzimidazolyl]phenoxy]-1-propanamine

> <PUBCHEM_IUPAC_NAME_MARKUP>
<I>N</I>,<I>N</I>-diethyl-3-[4-[1-[(<I>E</I>)-4-[2-[4-[3-(4-phenylpiperazin-1-yl)propoxy]phenyl]benzimidazol-1-yl]but-2-enyl]benzimidazol-2-yl]phenoxy]propan-1-amine

> <PUBCHEM_IUPAC_NAME>
N,N-diethyl-3-[4-[1-[(E)-4-[2-[4-[3-(4-phenylpiperazin-1-yl)propoxy]phenyl]benzimidazol-1-yl]but-2-enyl]benzimidazol-2-yl]phenoxy]propan-1-amine

> <PUBCHEM_IUPAC_SYSTEMATIC_NAME>
N,N-diethyl-3-[4-[1-[(E)-4-[2-[4-[3-(4-phenylpiperazin-1-yl)propoxy]phenyl]benzimidazol-1-yl]but-2-enyl]benzimidazol-2-yl]phenoxy]propan-1-amine

> <PUBCHEM_IUPAC_TRADITIONAL_NAME>
diethyl-[3-[4-[1-[(E)-4-[2-[4-[3-(4-phenylpiperazino)propoxy]phenyl]benzimidazol-1-yl]but-2-enyl]benzimidazol-2-yl]phenoxy]propyl]amine

> <PUBCHEM_IUPAC_INCHI>
InChI=1S/C50H57N7O2/c1-3-53(4-2)30-14-38-58-43-26-22-40(23-27-43)49-51-45-18-8-10-20-47(45)56(49)32-12-13-33-57-48-21-11-9-19-46(48)52-50(57)41-24-28-44(29-25-41)59-39-15-31-54-34-36-55(37-35-54)42-16-6-5-7-17-42/h5-13,16-29H,3-4,14-15,30-39H2,1-2H3/b13-12+

> <PUBCHEM_IUPAC_INCHIKEY>
FHMWRCSIRLHLAI-OUKQBFOZSA-N

> <PUBCHEM_XLOGP3_AA>
9.5

> <PUBCHEM_EXACT_MASS>
787.45737409

> <PUBCHEM_MOLECULAR_FORMULA>
C50H57N7O2

> <PUBCHEM_MOLECULAR_WEIGHT>
788.0

> <PUBCHEM_OPENEYE_CAN_SMILES>
CCN(CC)CCCOC1=CC=C(C=C1)C2=NC3=CC=CC=C3N2CC=CCN4C5=CC=CC=C5N=C4C6=CC=C(C=C6)OCCCN7CCN(CC7)C8=CC=CC=C8

> <PUBCHEM_OPENEYE_ISO_SMILES>
CCN(CC)CCCOC1=CC=C(C=C1)C2=NC3=CC=CC=C3N2C/C=C/CN4C5=CC=CC=C5N=C4C6=CC=C(C=C6)OCCCN7CCN(CC7)C8=CC=CC=C8

> <PUBCHEM_CACTVS_TPSA>
63.8

> <PUBCHEM_MONOISOTOPIC_WEIGHT>
787.45737409

> <PUBCHEM_TOTAL_CHARGE>
0

> <PUBCHEM_HEAVY_ATOM_COUNT>
59

> <PUBCHEM_ATOM_DEF_STEREO_COUNT>
0

> <PUBCHEM_ATOM_UDEF_STEREO_COUNT>
0

> <PUBCHEM_BOND_DEF_STEREO_COUNT>
1

> <PUBCHEM_BOND_UDEF_STEREO_COUNT>
0

> <PUBCHEM_ISOTOPIC_ATOM_COUNT>
0

> <PUBCHEM_COMPONENT_COUNT>
1

> <PUBCHEM_CACTVS_TAUTO_COUNT>
-1

> <PUBCHEM_COORDINATE_TYPE>
1
5
255

> <PUBCHEM_BONDANNOTATIONS>
16  18  8
16  19  8
18  20  8
19  21  8
20  22  8
21  22  8
23  26  8
23  27  8
24  30  8
24  31  8
26  30  8
27  31  8
28  32  8
28  44  8
32  46  8
35  39  8
35  47  8
39  48  8
41  50  8
41  51  8
44  49  8
46  53  8
47  58  8
48  59  8
49  53  8
5  25  8
5  28  8
50  56  8
51  57  8
52  56  8
52  57  8
58  59  8
6  35  8
6  36  8
8  25  8
8  32  8
9  36  8
9  39  8

$$$$
