10067380
  -OEChem-09292322142D

 42 43  0     1  0  0  0  0  0999 V2000
    6.0010   -4.1555    0.0000 Cl  0  0  0  0  0  0  0  0  0  0  0  0
    2.5369   -4.1555    0.0000 Cl  0  0  0  0  0  0  0  0  0  0  0  0
    4.8272    4.1555    0.0000 F   0  0  0  0  0  0  0  0  0  0  0  0
    3.4030   -0.6555    0.0000 O   0  0  0  0  0  0  0  0  0  0  0  0
    6.0010   -2.1555    0.0000 O   0  0  0  0  0  0  0  0  0  0  0  0
    2.5369   -2.1555    0.0000 O   0  0  0  0  0  0  0  0  0  0  0  0
    6.1056    1.8391    0.0000 N   0  0  3  0  0  0  0  0  0  0  0  0
    5.1350   -0.6555    0.0000 N   0  0  0  0  0  0  0  0  0  0  0  0
    6.0010    0.8445    0.0000 C   0  0  1  0  0  0  0  0  0  0  0  0
    6.9146    0.4378    0.0000 C   0  0  0  0  0  0  0  0  0  0  0  0
    7.5837    1.1809    0.0000 C   0  0  0  0  0  0  0  0  0  0  0  0
    7.0837    2.0470    0.0000 C   0  0  0  0  0  0  0  0  0  0  0  0
    5.1350    0.3445    0.0000 C   0  0  0  0  0  0  0  0  0  0  0  0
    5.3624    2.5082    0.0000 C   0  0  0  0  0  0  0  0  0  0  0  0
    5.5703    3.4863    0.0000 C   0  0  0  0  0  0  0  0  0  0  0  0
    4.2690   -1.1555    0.0000 C   0  0  0  0  0  0  0  0  0  0  0  0
    4.2690   -2.1555    0.0000 C   0  0  0  0  0  0  0  0  0  0  0  0
    5.1350   -2.6555    0.0000 C   0  0  0  0  0  0  0  0  0  0  0  0
    3.4030   -2.6555    0.0000 C   0  0  0  0  0  0  0  0  0  0  0  0
    5.1350   -3.6555    0.0000 C   0  0  0  0  0  0  0  0  0  0  0  0
    3.4030   -3.6555    0.0000 C   0  0  0  0  0  0  0  0  0  0  0  0
    4.2690   -4.1555    0.0000 C   0  0  0  0  0  0  0  0  0  0  0  0
    6.8671   -2.6555    0.0000 C   0  0  0  0  0  0  0  0  0  0  0  0
    5.4811    1.1822    0.0000 H   0  0  0  0  0  0  0  0  0  0  0  0
    6.6046   -0.0991    0.0000 H   0  0  0  0  0  0  0  0  0  0  0  0
    7.4162    0.0734    0.0000 H   0  0  0  0  0  0  0  0  0  0  0  0
    7.9986    0.7202    0.0000 H   0  0  0  0  0  0  0  0  0  0  0  0
    8.0853    1.5454    0.0000 H   0  0  0  0  0  0  0  0  0  0  0  0
    7.6501    2.2991    0.0000 H   0  0  0  0  0  0  0  0  0  0  0  0
    6.8921    2.6366    0.0000 H   0  0  0  0  0  0  0  0  0  0  0  0
    4.9230    0.9271    0.0000 H   0  0  0  0  0  0  0  0  0  0  0  0
    4.5244    0.2369    0.0000 H   0  0  0  0  0  0  0  0  0  0  0  0
    4.7876    2.7404    0.0000 H   0  0  0  0  0  0  0  0  0  0  0  0
    5.0339    1.9824    0.0000 H   0  0  0  0  0  0  0  0  0  0  0  0
    5.6720   -0.9655    0.0000 H   0  0  0  0  0  0  0  0  0  0  0  0
    6.1452    3.2541    0.0000 H   0  0  0  0  0  0  0  0  0  0  0  0
    5.8989    4.0121    0.0000 H   0  0  0  0  0  0  0  0  0  0  0  0
    4.2690   -4.7755    0.0000 H   0  0  0  0  0  0  0  0  0  0  0  0
    2.0000   -2.4655    0.0000 H   0  0  0  0  0  0  0  0  0  0  0  0
    6.5571   -3.1924    0.0000 H   0  0  0  0  0  0  0  0  0  0  0  0
    7.4040   -2.9655    0.0000 H   0  0  0  0  0  0  0  0  0  0  0  0
    7.1771   -2.1185    0.0000 H   0  0  0  0  0  0  0  0  0  0  0  0
  1 20  1  0  0  0  0
  2 21  1  0  0  0  0
  3 15  1  0  0  0  0
  4 16  2  0  0  0  0
  5 18  1  0  0  0  0
  5 23  1  0  0  0  0
  6 19  1  0  0  0  0
  6 39  1  0  0  0  0
  7  9  1  0  0  0  0
  7 12  1  0  0  0  0
  7 14  1  0  0  0  0
  8 13  1  0  0  0  0
  8 16  1  0  0  0  0
  8 35  1  0  0  0  0
  9 10  1  0  0  0  0
  9 13  1  1  0  0  0
  9 24  1  0  0  0  0
 10 11  1  0  0  0  0
 10 25  1  0  0  0  0
 10 26  1  0  0  0  0
 11 12  1  0  0  0  0
 11 27  1  0  0  0  0
 11 28  1  0  0  0  0
 12 29  1  0  0  0  0
 12 30  1  0  0  0  0
 13 31  1  0  0  0  0
 13 32  1  0  0  0  0
 14 15  1  0  0  0  0
 14 33  1  0  0  0  0
 14 34  1  0  0  0  0
 15 36  1  0  0  0  0
 15 37  1  0  0  0  0
 16 17  1  0  0  0  0
 17 18  1  0  0  0  0
 17 19  2  0  0  0  0
 18 20  2  0  0  0  0
 19 21  1  0  0  0  0
 20 22  1  0  0  0  0
 21 22  2  0  0  0  0
 22 38  1  0  0  0  0
 23 40  1  0  0  0  0
 23 41  1  0  0  0  0
 23 42  1  0  0  0  0
M  END
> <PUBCHEM_COMPOUND_CID>
10067380

> <PUBCHEM_COMPOUND_CANONICALIZED>
1

> <PUBCHEM_CACTVS_COMPLEXITY>
405

> <PUBCHEM_CACTVS_HBOND_ACCEPTOR>
5

> <PUBCHEM_CACTVS_HBOND_DONOR>
2

> <PUBCHEM_CACTVS_ROTATABLE_BOND>
6

> <PUBCHEM_CACTVS_SUBSKEYS>
AAADceBzMQAGAAAAAAAAAAAAAAAAAWAAAAAwAAAAAAAAAAABAAAAHwIQCAAADC7BmCYyBoPABgCIAiFSEACCCAAkJUAAiIEMD8gMZzeHthuUcWhn9hWIuQeY6CyOACAAKACICAAAQABQARAQAAAAAAAAAA==

> <PUBCHEM_IUPAC_OPENEYE_NAME>
3,5-dichloro-N-[[(2S)-1-(2-fluoroethyl)pyrrolidin-2-yl]methyl]-2-hydroxy-6-methoxy-benzamide

> <PUBCHEM_IUPAC_CAS_NAME>
3,5-dichloro-N-[[(2S)-1-(2-fluoroethyl)-2-pyrrolidinyl]methyl]-2-hydroxy-6-methoxybenzamide

> <PUBCHEM_IUPAC_NAME_MARKUP>
3,5-dichloro-<I>N</I>-[[(2<I>S</I>)-1-(2-fluoroethyl)pyrrolidin-2-yl]methyl]-2-hydroxy-6-methoxybenzamide

> <PUBCHEM_IUPAC_NAME>
3,5-dichloro-N-[[(2S)-1-(2-fluoroethyl)pyrrolidin-2-yl]methyl]-2-hydroxy-6-methoxybenzamide

> <PUBCHEM_IUPAC_SYSTEMATIC_NAME>
3,5-bis(chloranyl)-N-[[(2S)-1-(2-fluoranylethyl)pyrrolidin-2-yl]methyl]-2-methoxy-6-oxidanyl-benzamide

> <PUBCHEM_IUPAC_TRADITIONAL_NAME>
3,5-dichloro-N-[[(2S)-1-(2-fluoroethyl)pyrrolidin-2-yl]methyl]-2-hydroxy-6-methoxy-benzamide

> <PUBCHEM_IUPAC_INCHI>
InChI=1S/C15H19Cl2FN2O3/c1-23-14-11(17)7-10(16)13(21)12(14)15(22)19-8-9-3-2-5-20(9)6-4-18/h7,9,21H,2-6,8H2,1H3,(H,19,22)/t9-/m0/s1

> <PUBCHEM_IUPAC_INCHIKEY>
SUMSSRZHRHBCGI-VIFPVBQESA-N

> <PUBCHEM_XLOGP3_AA>
3.6

> <PUBCHEM_EXACT_MASS>
364.0756760

> <PUBCHEM_MOLECULAR_FORMULA>
C15H19Cl2FN2O3

> <PUBCHEM_MOLECULAR_WEIGHT>
365.2

> <PUBCHEM_OPENEYE_CAN_SMILES>
COC1=C(C=C(C(=C1C(=O)NCC2CCCN2CCF)O)Cl)Cl

> <PUBCHEM_OPENEYE_ISO_SMILES>
COC1=C(C=C(C(=C1C(=O)NC[C@@H]2CCCN2CCF)O)Cl)Cl

> <PUBCHEM_CACTVS_TPSA>
61.8

> <PUBCHEM_MONOISOTOPIC_WEIGHT>
364.0756760

> <PUBCHEM_TOTAL_CHARGE>
0

> <PUBCHEM_HEAVY_ATOM_COUNT>
23

> <PUBCHEM_ATOM_DEF_STEREO_COUNT>
1

> <PUBCHEM_ATOM_UDEF_STEREO_COUNT>
0

> <PUBCHEM_BOND_DEF_STEREO_COUNT>
0

> <PUBCHEM_BOND_UDEF_STEREO_COUNT>
0

> <PUBCHEM_ISOTOPIC_ATOM_COUNT>
0

> <PUBCHEM_COMPONENT_COUNT>
1

> <PUBCHEM_CACTVS_TAUTO_COUNT>
7

> <PUBCHEM_COORDINATE_TYPE>
1
5
255

> <PUBCHEM_BONDANNOTATIONS>
17  18  8
17  19  8
18  20  8
19  21  8
20  22  8
21  22  8
9  13  5

$$$$
