49782841
  -OEChem-09292322312D

 75 80  0     0  0  0  0  0  0999 V2000
    5.3181    4.6954    0.0000 S   0  0  0  0  0  0  0  0  0  0  0  0
    4.2232    2.9216    0.0000 O   0  0  0  0  0  0  0  0  0  0  0  0
    5.2232   -2.2746    0.0000 N   0  0  0  0  0  0  0  0  0  0  0  0
    4.2232   -4.0066    0.0000 N   0  0  0  0  0  0  0  0  0  0  0  0
    5.7232    2.0556    0.0000 N   0  0  0  0  0  0  0  0  0  0  0  0
    4.2232   -2.2746    0.0000 C   0  0  0  0  0  0  0  0  0  0  0  0
    5.7232   -3.1406    0.0000 C   0  0  0  0  0  0  0  0  0  0  0  0
    3.7232   -3.1406    0.0000 C   0  0  0  0  0  0  0  0  0  0  0  0
    5.2232   -4.0066    0.0000 C   0  0  0  0  0  0  0  0  0  0  0  0
    5.7232   -1.4085    0.0000 C   0  0  0  0  0  0  0  0  0  0  0  0
    3.7232   -4.8726    0.0000 C   0  0  0  0  0  0  0  0  0  0  0  0
    5.2232   -0.5425    0.0000 C   0  0  0  0  0  0  0  0  0  0  0  0
    2.8616   -4.3752    0.0000 C   0  0  0  0  0  0  0  0  0  0  0  0
    3.7232   -5.8676    0.0000 C   0  0  0  0  0  0  0  0  0  0  0  0
    3.7232   -3.8777    0.0000 C   0  0  0  0  0  0  0  0  0  0  0  0
    5.7232    0.3235    0.0000 C   0  0  0  0  0  0  0  0  0  0  0  0
    2.8616   -6.3650    0.0000 C   0  0  0  0  0  0  0  0  0  0  0  0
    2.0000   -4.8726    0.0000 C   0  0  0  0  0  0  0  0  0  0  0  0
    4.7637   -3.8556    0.0000 C   0  0  0  0  0  0  0  0  0  0  0  0
    3.7232   -6.8625    0.0000 C   0  0  0  0  0  0  0  0  0  0  0  0
    2.0000   -5.8676    0.0000 C   0  0  0  0  0  0  0  0  0  0  0  0
    4.7637   -6.8404    0.0000 C   0  0  0  0  0  0  0  0  0  0  0  0
    5.2232    1.1895    0.0000 C   0  0  0  0  0  0  0  0  0  0  0  0
    5.6253   -4.3531    0.0000 C   0  0  0  0  0  0  0  0  0  0  0  0
    5.6253   -6.3429    0.0000 C   0  0  0  0  0  0  0  0  0  0  0  0
    4.7637   -4.8505    0.0000 C   0  0  0  0  0  0  0  0  0  0  0  0
    6.4869   -4.8505    0.0000 C   0  0  0  0  0  0  0  0  0  0  0  0
    4.7637   -5.8454    0.0000 C   0  0  0  0  0  0  0  0  0  0  0  0
    6.4869   -5.8454    0.0000 C   0  0  0  0  0  0  0  0  0  0  0  0
    5.2232    2.9216    0.0000 C   0  0  0  0  0  0  0  0  0  0  0  0
    5.7232    3.7876    0.0000 C   0  0  0  0  0  0  0  0  0  0  0  0
    6.7120    3.8907    0.0000 C   0  0  0  0  0  0  0  0  0  0  0  0
    6.9212    4.8625    0.0000 C   0  0  0  0  0  0  0  0  0  0  0  0
    6.0551    5.3625    0.0000 C   0  0  0  0  0  0  0  0  0  0  0  0
    7.7872    5.3625    0.0000 C   0  0  0  0  0  0  0  0  0  0  0  0
    6.0551    6.3625    0.0000 C   0  0  0  0  0  0  0  0  0  0  0  0
    7.7872    6.3625    0.0000 C   0  0  0  0  0  0  0  0  0  0  0  0
    6.9212    6.8625    0.0000 C   0  0  0  0  0  0  0  0  0  0  0  0
    4.3309   -1.6640    0.0000 H   0  0  0  0  0  0  0  0  0  0  0  0
    3.6406   -2.0625    0.0000 H   0  0  0  0  0  0  0  0  0  0  0  0
    6.1982   -3.5391    0.0000 H   0  0  0  0  0  0  0  0  0  0  0  0
    6.1982   -2.7421    0.0000 H   0  0  0  0  0  0  0  0  0  0  0  0
    3.2483   -2.7421    0.0000 H   0  0  0  0  0  0  0  0  0  0  0  0
    3.2483   -3.5391    0.0000 H   0  0  0  0  0  0  0  0  0  0  0  0
    5.1156   -4.6172    0.0000 H   0  0  0  0  0  0  0  0  0  0  0  0
    5.8059   -4.2187    0.0000 H   0  0  0  0  0  0  0  0  0  0  0  0
    6.1982   -1.8071    0.0000 H   0  0  0  0  0  0  0  0  0  0  0  0
    6.1982   -1.0100    0.0000 H   0  0  0  0  0  0  0  0  0  0  0  0
    4.7483   -0.1440    0.0000 H   0  0  0  0  0  0  0  0  0  0  0  0
    4.7483   -0.9410    0.0000 H   0  0  0  0  0  0  0  0  0  0  0  0
    4.2602   -6.1776    0.0000 H   0  0  0  0  0  0  0  0  0  0  0  0
    3.9270   -3.2922    0.0000 H   0  0  0  0  0  0  0  0  0  0  0  0
    3.8901   -4.4749    0.0000 H   0  0  0  0  0  0  0  0  0  0  0  0
    6.1982   -0.0750    0.0000 H   0  0  0  0  0  0  0  0  0  0  0  0
    6.1982    0.7220    0.0000 H   0  0  0  0  0  0  0  0  0  0  0  0
    1.4631   -4.5626    0.0000 H   0  0  0  0  0  0  0  0  0  0  0  0
    5.2358   -3.4537    0.0000 H   0  0  0  0  0  0  0  0  0  0  0  0
    4.6096   -4.4562    0.0000 H   0  0  0  0  0  0  0  0  0  0  0  0
    3.2511   -7.2644    0.0000 H   0  0  0  0  0  0  0  0  0  0  0  0
    3.8774   -6.2619    0.0000 H   0  0  0  0  0  0  0  0  0  0  0  0
    1.4631   -6.1776    0.0000 H   0  0  0  0  0  0  0  0  0  0  0  0
    4.5599   -7.4259    0.0000 H   0  0  0  0  0  0  0  0  0  0  0  0
    4.5968   -6.2432    0.0000 H   0  0  0  0  0  0  0  0  0  0  0  0
    4.7483    1.5881    0.0000 H   0  0  0  0  0  0  0  0  0  0  0  0
    4.7483    0.7910    0.0000 H   0  0  0  0  0  0  0  0  0  0  0  0
    4.2267   -4.5405    0.0000 H   0  0  0  0  0  0  0  0  0  0  0  0
    7.0238   -4.5405    0.0000 H   0  0  0  0  0  0  0  0  0  0  0  0
    4.2267   -6.1554    0.0000 H   0  0  0  0  0  0  0  0  0  0  0  0
    7.0238   -6.1554    0.0000 H   0  0  0  0  0  0  0  0  0  0  0  0
    6.3432    2.0556    0.0000 H   0  0  0  0  0  0  0  0  0  0  0  0
    7.1260    3.4292    0.0000 H   0  0  0  0  0  0  0  0  0  0  0  0
    8.3241    5.0525    0.0000 H   0  0  0  0  0  0  0  0  0  0  0  0
    5.5182    6.6725    0.0000 H   0  0  0  0  0  0  0  0  0  0  0  0
    8.3241    6.6725    0.0000 H   0  0  0  0  0  0  0  0  0  0  0  0
    6.9212    7.4825    0.0000 H   0  0  0  0  0  0  0  0  0  0  0  0
  1 31  1  0  0  0  0
  1 34  1  0  0  0  0
  2 30  2  0  0  0  0
  3  6  1  0  0  0  0
  3  7  1  0  0  0  0
  3 10  1  0  0  0  0
  4  8  1  0  0  0  0
  4  9  1  0  0  0  0
  4 11  1  0  0  0  0
  5 23  1  0  0  0  0
  5 30  1  0  0  0  0
  5 70  1  0  0  0  0
  6  8  1  0  0  0  0
  6 39  1  0  0  0  0
  6 40  1  0  0  0  0
  7  9  1  0  0  0  0
  7 41  1  0  0  0  0
  7 42  1  0  0  0  0
  8 43  1  0  0  0  0
  8 44  1  0  0  0  0
  9 45  1  0  0  0  0
  9 46  1  0  0  0  0
 10 12  1  0  0  0  0
 10 47  1  0  0  0  0
 10 48  1  0  0  0  0
 11 13  2  0  0  0  0
 11 14  1  0  0  0  0
 12 16  1  0  0  0  0
 12 49  1  0  0  0  0
 12 50  1  0  0  0  0
 13 15  1  0  0  0  0
 13 18  1  0  0  0  0
 14 17  2  0  0  0  0
 14 51  1  0  0  0  0
 15 19  1  0  0  0  0
 15 52  1  0  0  0  0
 15 53  1  0  0  0  0
 16 23  1  0  0  0  0
 16 54  1  0  0  0  0
 16 55  1  0  0  0  0
 17 20  1  0  0  0  0
 17 21  1  0  0  0  0
 18 21  2  0  0  0  0
 18 56  1  0  0  0  0
 19 24  1  0  0  0  0
 19 57  1  0  0  0  0
 19 58  1  0  0  0  0
 20 22  1  0  0  0  0
 20 59  1  0  0  0  0
 20 60  1  0  0  0  0
 21 61  1  0  0  0  0
 22 25  1  0  0  0  0
 22 62  1  0  0  0  0
 22 63  1  0  0  0  0
 23 64  1  0  0  0  0
 23 65  1  0  0  0  0
 24 26  2  0  0  0  0
 24 27  1  0  0  0  0
 25 28  2  0  0  0  0
 25 29  1  0  0  0  0
 26 28  1  0  0  0  0
 26 66  1  0  0  0  0
 27 29  2  0  0  0  0
 27 67  1  0  0  0  0
 28 68  1  0  0  0  0
 29 69  1  0  0  0  0
 30 31  1  0  0  0  0
 31 32  2  0  0  0  0
 32 33  1  0  0  0  0
 32 71  1  0  0  0  0
 33 34  1  0  0  0  0
 33 35  2  0  0  0  0
 34 36  2  0  0  0  0
 35 37  1  0  0  0  0
 35 72  1  0  0  0  0
 36 38  1  0  0  0  0
 36 73  1  0  0  0  0
 37 38  2  0  0  0  0
 37 74  1  0  0  0  0
 38 75  1  0  0  0  0
M  END
> <PUBCHEM_COMPOUND_CID>
49782841

> <PUBCHEM_COMPOUND_CANONICALIZED>
1

> <PUBCHEM_CACTVS_COMPLEXITY>
747

> <PUBCHEM_CACTVS_HBOND_ACCEPTOR>
4

> <PUBCHEM_CACTVS_HBOND_DONOR>
1

> <PUBCHEM_CACTVS_ROTATABLE_BOND>
7

> <PUBCHEM_CACTVS_SUBSKEYS>
AAADcfB/IABAAAAAAAAAAAAAAAAAASAAAAA8YMEAAAAAAEgB9AAAHgQQAAAADAjB2AQwwcPAAAiMAiVSUACDAIAlChBIiJkIZMgIYDLglZGUIQhglgDoyYcYiMCOQAAAQAAGAACAAACAAAwAAAAAAAAAAA==

> <PUBCHEM_IUPAC_OPENEYE_NAME>
N-[4-[4-(5-tricyclo[8.2.2.24,7]hexadeca-1(13),4,6,10(14),11,15-hexaenyl)piperazin-1-yl]butyl]benzothiophene-2-carboxamide

> <PUBCHEM_IUPAC_CAS_NAME>
N-[4-[4-(5-tricyclo[8.2.2.24,7]hexadeca-1(13),4,6,10(14),11,15-hexaenyl)-1-piperazinyl]butyl]-1-benzothiophene-2-carboxamide

> <PUBCHEM_IUPAC_NAME_MARKUP>
<I>N</I>-[4-[4-(5-tricyclo[8.2.2.2<SUP>4,7</SUP>]hexadeca-1(13),4,6,10(14),11,15-hexaenyl)piperazin-1-yl]butyl]-1-benzothiophene-2-carboxamide

> <PUBCHEM_IUPAC_NAME>
N-[4-[4-(5-tricyclo[8.2.2.24,7]hexadeca-1(13),4,6,10(14),11,15-hexaenyl)piperazin-1-yl]butyl]-1-benzothiophene-2-carboxamide

> <PUBCHEM_IUPAC_SYSTEMATIC_NAME>
N-[4-[4-(5-tricyclo[8.2.2.24,7]hexadeca-1(13),4,6,10(14),11,15-hexaenyl)piperazin-1-yl]butyl]-1-benzothiophene-2-carboxamide

> <PUBCHEM_IUPAC_TRADITIONAL_NAME>
N-[4-[4-(5-tricyclo[8.2.2.24,7]hexadeca-1(13),4,6,10(14),11,15-hexaenyl)piperazino]butyl]benzothiophene-2-carboxamide

> <PUBCHEM_IUPAC_INCHI>
InChI=1S/C33H37N3OS/c37-33(32-24-29-5-1-2-6-31(29)38-32)34-17-3-4-18-35-19-21-36(22-20-35)30-23-27-12-11-25-7-9-26(10-8-25)13-15-28(30)16-14-27/h1-2,5-10,14,16,23-24H,3-4,11-13,15,17-22H2,(H,34,37)

> <PUBCHEM_IUPAC_INCHIKEY>
HIGILHVUMICSAW-UHFFFAOYSA-N

> <PUBCHEM_XLOGP3_AA>
7.4

> <PUBCHEM_EXACT_MASS>
523.26573399

> <PUBCHEM_MOLECULAR_FORMULA>
C33H37N3OS

> <PUBCHEM_MOLECULAR_WEIGHT>
523.7

> <PUBCHEM_OPENEYE_CAN_SMILES>
C1CC2=CC(=C(CCC3=CC=C1C=C3)C=C2)N4CCN(CC4)CCCCNC(=O)C5=CC6=CC=CC=C6S5

> <PUBCHEM_OPENEYE_ISO_SMILES>
C1CC2=CC(=C(CCC3=CC=C1C=C3)C=C2)N4CCN(CC4)CCCCNC(=O)C5=CC6=CC=CC=C6S5

> <PUBCHEM_CACTVS_TPSA>
63.8

> <PUBCHEM_MONOISOTOPIC_WEIGHT>
523.26573399

> <PUBCHEM_TOTAL_CHARGE>
0

> <PUBCHEM_HEAVY_ATOM_COUNT>
38

> <PUBCHEM_ATOM_DEF_STEREO_COUNT>
0

> <PUBCHEM_ATOM_UDEF_STEREO_COUNT>
0

> <PUBCHEM_BOND_DEF_STEREO_COUNT>
0

> <PUBCHEM_BOND_UDEF_STEREO_COUNT>
0

> <PUBCHEM_ISOTOPIC_ATOM_COUNT>
0

> <PUBCHEM_COMPONENT_COUNT>
1

> <PUBCHEM_CACTVS_TAUTO_COUNT>
-1

> <PUBCHEM_COORDINATE_TYPE>
1
5
255

> <PUBCHEM_BONDANNOTATIONS>
1  31  8
1  34  8
11  13  8
11  14  8
13  18  8
14  17  8
17  21  8
18  21  8
24  26  8
24  27  8
25  28  8
25  29  8
26  28  8
27  29  8
31  32  8
32  33  8
33  34  8
33  35  8
34  36  8
35  37  8
36  38  8
37  38  8

$$$$
