130431343
  -OEChem-09292322412D

 61 64  0     0  0  0  0  0  0999 V2000
   13.7619   -2.6651    0.0000 Cl  0  0  0  0  0  0  0  0  0  0  0  0
    6.7619    2.5311    0.0000 O   0  0  0  0  0  0  0  0  0  0  0  0
   10.7619   -0.9330    0.0000 N   0  0  0  0  0  0  0  0  0  0  0  0
   12.7619   -0.9330    0.0000 N   0  0  0  0  0  0  0  0  0  0  0  0
    6.7619    0.7990    0.0000 N   0  0  0  0  0  0  0  0  0  0  0  0
    3.7320    2.1651    0.0000 N   0  0  0  0  0  0  0  0  0  0  0  0
    4.6783    0.8603    0.0000 N   0  0  0  0  0  0  0  0  0  0  0  0
   11.2619   -1.7990    0.0000 C   0  0  0  0  0  0  0  0  0  0  0  0
   11.2619   -0.0670    0.0000 C   0  0  0  0  0  0  0  0  0  0  0  0
   12.2619   -1.7990    0.0000 C   0  0  0  0  0  0  0  0  0  0  0  0
   12.2619   -0.0670    0.0000 C   0  0  0  0  0  0  0  0  0  0  0  0
    9.7619   -0.9330    0.0000 C   0  0  0  0  0  0  0  0  0  0  0  0
    9.2619   -0.0670    0.0000 C   0  0  0  0  0  0  0  0  0  0  0  0
   13.7619   -0.9330    0.0000 C   0  0  0  0  0  0  0  0  0  0  0  0
    8.2619   -0.0670    0.0000 C   0  0  0  0  0  0  0  0  0  0  0  0
    7.7619    0.7990    0.0000 C   0  0  0  0  0  0  0  0  0  0  0  0
   14.2619   -1.7990    0.0000 C   0  0  0  0  0  0  0  0  0  0  0  0
   14.2619   -0.0670    0.0000 C   0  0  0  0  0  0  0  0  0  0  0  0
   15.2619   -1.7990    0.0000 C   0  0  0  0  0  0  0  0  0  0  0  0
   15.2619   -0.0670    0.0000 C   0  0  0  0  0  0  0  0  0  0  0  0
   15.7619   -0.9330    0.0000 C   0  0  0  0  0  0  0  0  0  0  0  0
   15.7619   -2.6651    0.0000 C   0  0  0  0  0  0  0  0  0  0  0  0
    6.2619    1.6651    0.0000 C   0  0  0  0  0  0  0  0  0  0  0  0
   16.7619   -2.6651    0.0000 C   0  0  0  0  0  0  0  0  0  0  0  0
    5.2619    1.6651    0.0000 C   0  0  0  0  0  0  0  0  0  0  0  0
    4.6783    2.4698    0.0000 C   0  0  0  0  0  0  0  0  0  0  0  0
    3.7320    1.1651    0.0000 C   0  0  0  0  0  0  0  0  0  0  0  0
    2.8660    2.6651    0.0000 C   0  0  0  0  0  0  0  0  0  0  0  0
    2.8660    0.6651    0.0000 C   0  0  0  0  0  0  0  0  0  0  0  0
    2.0000    2.1651    0.0000 C   0  0  0  0  0  0  0  0  0  0  0  0
    2.0000    1.1651    0.0000 C   0  0  0  0  0  0  0  0  0  0  0  0
   10.6793   -2.0111    0.0000 H   0  0  0  0  0  0  0  0  0  0  0  0
   11.3695   -2.4096    0.0000 H   0  0  0  0  0  0  0  0  0  0  0  0
   11.3695    0.5436    0.0000 H   0  0  0  0  0  0  0  0  0  0  0  0
   10.6793    0.1451    0.0000 H   0  0  0  0  0  0  0  0  0  0  0  0
   12.1542   -2.4096    0.0000 H   0  0  0  0  0  0  0  0  0  0  0  0
   12.8445   -2.0111    0.0000 H   0  0  0  0  0  0  0  0  0  0  0  0
   12.8445    0.1451    0.0000 H   0  0  0  0  0  0  0  0  0  0  0  0
   12.1542    0.5436    0.0000 H   0  0  0  0  0  0  0  0  0  0  0  0
    9.1793   -1.1451    0.0000 H   0  0  0  0  0  0  0  0  0  0  0  0
    9.8695   -1.5436    0.0000 H   0  0  0  0  0  0  0  0  0  0  0  0
    9.8445    0.1451    0.0000 H   0  0  0  0  0  0  0  0  0  0  0  0
    9.1542    0.5436    0.0000 H   0  0  0  0  0  0  0  0  0  0  0  0
    7.6793   -0.2790    0.0000 H   0  0  0  0  0  0  0  0  0  0  0  0
    8.3695   -0.6776    0.0000 H   0  0  0  0  0  0  0  0  0  0  0  0
    8.3445    1.0111    0.0000 H   0  0  0  0  0  0  0  0  0  0  0  0
    7.6542    1.4096    0.0000 H   0  0  0  0  0  0  0  0  0  0  0  0
   13.9519    0.4699    0.0000 H   0  0  0  0  0  0  0  0  0  0  0  0
   15.5719    0.4699    0.0000 H   0  0  0  0  0  0  0  0  0  0  0  0
   16.3819   -0.9330    0.0000 H   0  0  0  0  0  0  0  0  0  0  0  0
    6.4519    0.2621    0.0000 H   0  0  0  0  0  0  0  0  0  0  0  0
   15.1793   -2.8771    0.0000 H   0  0  0  0  0  0  0  0  0  0  0  0
   15.8695   -3.2756    0.0000 H   0  0  0  0  0  0  0  0  0  0  0  0
   16.7619   -3.2851    0.0000 H   0  0  0  0  0  0  0  0  0  0  0  0
   17.3819   -2.6651    0.0000 H   0  0  0  0  0  0  0  0  0  0  0  0
   16.7619   -2.0451    0.0000 H   0  0  0  0  0  0  0  0  0  0  0  0
    4.8709    3.0591    0.0000 H   0  0  0  0  0  0  0  0  0  0  0  0
    2.8660    3.2851    0.0000 H   0  0  0  0  0  0  0  0  0  0  0  0
    2.8660    0.0451    0.0000 H   0  0  0  0  0  0  0  0  0  0  0  0
    1.4631    2.4751    0.0000 H   0  0  0  0  0  0  0  0  0  0  0  0
    1.4631    0.8551    0.0000 H   0  0  0  0  0  0  0  0  0  0  0  0
  1 17  1  0  0  0  0
  2 23  2  0  0  0  0
  3  8  1  0  0  0  0
  3  9  1  0  0  0  0
  3 12  1  0  0  0  0
  4 10  1  0  0  0  0
  4 11  1  0  0  0  0
  4 14  1  0  0  0  0
  5 16  1  0  0  0  0
  5 23  1  0  0  0  0
  5 51  1  0  0  0  0
  6 26  1  0  0  0  0
  6 27  1  0  0  0  0
  6 28  1  0  0  0  0
  7 25  1  0  0  0  0
  7 27  2  0  0  0  0
  8 10  1  0  0  0  0
  8 32  1  0  0  0  0
  8 33  1  0  0  0  0
  9 11  1  0  0  0  0
  9 34  1  0  0  0  0
  9 35  1  0  0  0  0
 10 36  1  0  0  0  0
 10 37  1  0  0  0  0
 11 38  1  0  0  0  0
 11 39  1  0  0  0  0
 12 13  1  0  0  0  0
 12 40  1  0  0  0  0
 12 41  1  0  0  0  0
 13 15  1  0  0  0  0
 13 42  1  0  0  0  0
 13 43  1  0  0  0  0
 14 17  1  0  0  0  0
 14 18  2  0  0  0  0
 15 16  1  0  0  0  0
 15 44  1  0  0  0  0
 15 45  1  0  0  0  0
 16 46  1  0  0  0  0
 16 47  1  0  0  0  0
 17 19  2  0  0  0  0
 18 20  1  0  0  0  0
 18 48  1  0  0  0  0
 19 21  1  0  0  0  0
 19 22  1  0  0  0  0
 20 21  2  0  0  0  0
 20 49  1  0  0  0  0
 21 50  1  0  0  0  0
 22 24  1  0  0  0  0
 22 52  1  0  0  0  0
 22 53  1  0  0  0  0
 23 25  1  0  0  0  0
 24 54  1  0  0  0  0
 24 55  1  0  0  0  0
 24 56  1  0  0  0  0
 25 26  2  0  0  0  0
 26 57  1  0  0  0  0
 27 29  1  0  0  0  0
 28 30  2  0  0  0  0
 28 58  1  0  0  0  0
 29 31  2  0  0  0  0
 29 59  1  0  0  0  0
 30 31  1  0  0  0  0
 30 60  1  0  0  0  0
 31 61  1  0  0  0  0
M  END
> <PUBCHEM_COMPOUND_CID>
130431343

> <PUBCHEM_COMPOUND_CANONICALIZED>
1

> <PUBCHEM_CACTVS_COMPLEXITY>
570

> <PUBCHEM_CACTVS_HBOND_ACCEPTOR>
4

> <PUBCHEM_CACTVS_HBOND_DONOR>
1

> <PUBCHEM_CACTVS_ROTATABLE_BOND>
8

> <PUBCHEM_CACTVS_SUBSKEYS>
AAADceB7oAAEAAAAAAAAAAAAAAAAAWAAAAA8WIAAAAAAAFgB8AAAHgIQAAAADArBnyQ/8J/MGACoAzd3dACCgC03FqAJ2KG4dtiIaOrB27HUIIholgLIyOcQgIAOAAAAQAABABAAAACAAAIAIAAAAAAAAA==

> <PUBCHEM_IUPAC_OPENEYE_NAME>
N-[4-[4-(2-chloro-3-ethyl-phenyl)piperazin-1-yl]butyl]imidazo[1,2-a]pyridine-2-carboxamide

> <PUBCHEM_IUPAC_CAS_NAME>
N-[4-[4-(2-chloro-3-ethylphenyl)-1-piperazinyl]butyl]-2-imidazo[1,2-a]pyridinecarboxamide

> <PUBCHEM_IUPAC_NAME_MARKUP>
<I>N</I>-[4-[4-(2-chloro-3-ethylphenyl)piperazin-1-yl]butyl]imidazo[1,2-a]pyridine-2-carboxamide

> <PUBCHEM_IUPAC_NAME>
N-[4-[4-(2-chloro-3-ethylphenyl)piperazin-1-yl]butyl]imidazo[1,2-a]pyridine-2-carboxamide

> <PUBCHEM_IUPAC_SYSTEMATIC_NAME>
N-[4-[4-(2-chloranyl-3-ethyl-phenyl)piperazin-1-yl]butyl]imidazo[1,2-a]pyridine-2-carboxamide

> <PUBCHEM_IUPAC_TRADITIONAL_NAME>
N-[4-[4-(2-chloro-3-ethyl-phenyl)piperazino]butyl]imidazo[1,2-a]pyridine-2-carboxamide

> <PUBCHEM_IUPAC_INCHI>
InChI=1S/C24H30ClN5O/c1-2-19-8-7-9-21(23(19)25)29-16-14-28(15-17-29)12-6-4-11-26-24(31)20-18-30-13-5-3-10-22(30)27-20/h3,5,7-10,13,18H,2,4,6,11-12,14-17H2,1H3,(H,26,31)

> <PUBCHEM_IUPAC_INCHIKEY>
ADGRZRHCVXPKAN-UHFFFAOYSA-N

> <PUBCHEM_XLOGP3_AA>
5.1

> <PUBCHEM_EXACT_MASS>
439.2138883

> <PUBCHEM_MOLECULAR_FORMULA>
C24H30ClN5O

> <PUBCHEM_MOLECULAR_WEIGHT>
440.0

> <PUBCHEM_OPENEYE_CAN_SMILES>
CCC1=C(C(=CC=C1)N2CCN(CC2)CCCCNC(=O)C3=CN4C=CC=CC4=N3)Cl

> <PUBCHEM_OPENEYE_ISO_SMILES>
CCC1=C(C(=CC=C1)N2CCN(CC2)CCCCNC(=O)C3=CN4C=CC=CC4=N3)Cl

> <PUBCHEM_CACTVS_TPSA>
52.9

> <PUBCHEM_MONOISOTOPIC_WEIGHT>
439.2138883

> <PUBCHEM_TOTAL_CHARGE>
0

> <PUBCHEM_HEAVY_ATOM_COUNT>
31

> <PUBCHEM_ATOM_DEF_STEREO_COUNT>
0

> <PUBCHEM_ATOM_UDEF_STEREO_COUNT>
0

> <PUBCHEM_BOND_DEF_STEREO_COUNT>
0

> <PUBCHEM_BOND_UDEF_STEREO_COUNT>
0

> <PUBCHEM_ISOTOPIC_ATOM_COUNT>
0

> <PUBCHEM_COMPONENT_COUNT>
1

> <PUBCHEM_CACTVS_TAUTO_COUNT>
-1

> <PUBCHEM_COORDINATE_TYPE>
1
5
255

> <PUBCHEM_BONDANNOTATIONS>
14  17  8
14  18  8
17  19  8
18  20  8
19  21  8
20  21  8
25  26  8
27  29  8
28  30  8
29  31  8
30  31  8
6  26  8
6  27  8
6  28  8
7  25  8
7  27  8

$$$$
