10873956
  -OEChem-09292322112D

 56 59  0     0  0  0  0  0  0999 V2000
   11.4348    3.2469    0.0000 Cl  0  0  0  0  0  0  0  0  0  0  0  0
   12.0561    5.1480    0.0000 Cl  0  0  0  0  0  0  0  0  0  0  0  0
    4.3211   -1.7924    0.0000 O   0  0  0  0  0  0  0  0  0  0  0  0
    8.8564    0.9335    0.0000 N   0  0  0  0  0  0  0  0  0  0  0  0
    9.4778    2.8345    0.0000 N   0  0  0  0  0  0  0  0  0  0  0  0
    5.9674   -2.3305    0.0000 N   0  0  0  0  0  0  0  0  0  0  0  0
    4.6783   -5.0967    0.0000 N   0  0  0  0  0  0  0  0  0  0  0  0
    9.8349    1.1397    0.0000 C   0  0  0  0  0  0  0  0  0  0  0  0
    8.1886    1.6778    0.0000 C   0  0  0  0  0  0  0  0  0  0  0  0
   10.1456    2.0902    0.0000 C   0  0  0  0  0  0  0  0  0  0  0  0
    8.4993    2.6283    0.0000 C   0  0  0  0  0  0  0  0  0  0  0  0
    8.5458   -0.0171    0.0000 C   0  0  0  0  0  0  0  0  0  0  0  0
    7.5673   -0.2233    0.0000 C   0  0  0  0  0  0  0  0  0  0  0  0
    7.2566   -1.1738    0.0000 C   0  0  0  0  0  0  0  0  0  0  0  0
    9.7884    3.7850    0.0000 C   0  0  0  0  0  0  0  0  0  0  0  0
    6.2781   -1.3800    0.0000 C   0  0  0  0  0  0  0  0  0  0  0  0
   10.7669    3.9912    0.0000 C   0  0  0  0  0  0  0  0  0  0  0  0
    9.1206    4.5293    0.0000 C   0  0  0  0  0  0  0  0  0  0  0  0
   11.0776    4.9418    0.0000 C   0  0  0  0  0  0  0  0  0  0  0  0
    9.4312    5.4798    0.0000 C   0  0  0  0  0  0  0  0  0  0  0  0
    4.9889   -2.5368    0.0000 C   0  0  0  0  0  0  0  0  0  0  0  0
   10.4097    5.6861    0.0000 C   0  0  0  0  0  0  0  0  0  0  0  0
    4.6783   -3.4873    0.0000 C   0  0  0  0  0  0  0  0  0  0  0  0
    3.7320   -3.7920    0.0000 C   0  0  0  0  0  0  0  0  0  0  0  0
    3.7320   -4.7920    0.0000 C   0  0  0  0  0  0  0  0  0  0  0  0
    5.2619   -4.2920    0.0000 C   0  0  0  0  0  0  0  0  0  0  0  0
    2.8660   -3.2920    0.0000 C   0  0  0  0  0  0  0  0  0  0  0  0
    2.8660   -5.2920    0.0000 C   0  0  0  0  0  0  0  0  0  0  0  0
    2.0000   -3.7920    0.0000 C   0  0  0  0  0  0  0  0  0  0  0  0
    2.0000   -4.7920    0.0000 C   0  0  0  0  0  0  0  0  0  0  0  0
    9.8555    0.5200    0.0000 H   0  0  0  0  0  0  0  0  0  0  0  0
   10.4488    1.0523    0.0000 H   0  0  0  0  0  0  0  0  0  0  0  0
    7.6417    1.9698    0.0000 H   0  0  0  0  0  0  0  0  0  0  0  0
    7.8060    1.1899    0.0000 H   0  0  0  0  0  0  0  0  0  0  0  0
   10.6925    1.7982    0.0000 H   0  0  0  0  0  0  0  0  0  0  0  0
   10.5282    2.5781    0.0000 H   0  0  0  0  0  0  0  0  0  0  0  0
    8.4787    3.2479    0.0000 H   0  0  0  0  0  0  0  0  0  0  0  0
    7.8854    2.7156    0.0000 H   0  0  0  0  0  0  0  0  0  0  0  0
    8.5663   -0.6367    0.0000 H   0  0  0  0  0  0  0  0  0  0  0  0
    9.1596   -0.1044    0.0000 H   0  0  0  0  0  0  0  0  0  0  0  0
    7.5467    0.3964    0.0000 H   0  0  0  0  0  0  0  0  0  0  0  0
    6.9534   -0.1359    0.0000 H   0  0  0  0  0  0  0  0  0  0  0  0
    7.2772   -1.7935    0.0000 H   0  0  0  0  0  0  0  0  0  0  0  0
    7.8704   -1.2612    0.0000 H   0  0  0  0  0  0  0  0  0  0  0  0
    6.2575   -0.7604    0.0000 H   0  0  0  0  0  0  0  0  0  0  0  0
    5.6643   -1.2927    0.0000 H   0  0  0  0  0  0  0  0  0  0  0  0
    8.5139    4.4015    0.0000 H   0  0  0  0  0  0  0  0  0  0  0  0
    6.3815   -2.7920    0.0000 H   0  0  0  0  0  0  0  0  0  0  0  0
    9.0172    5.9413    0.0000 H   0  0  0  0  0  0  0  0  0  0  0  0
   10.6024    6.2754    0.0000 H   0  0  0  0  0  0  0  0  0  0  0  0
    5.8819   -4.2920    0.0000 H   0  0  0  0  0  0  0  0  0  0  0  0
    4.8709   -5.6861    0.0000 H   0  0  0  0  0  0  0  0  0  0  0  0
    2.8660   -2.6720    0.0000 H   0  0  0  0  0  0  0  0  0  0  0  0
    2.8660   -5.9120    0.0000 H   0  0  0  0  0  0  0  0  0  0  0  0
    1.4631   -3.4820    0.0000 H   0  0  0  0  0  0  0  0  0  0  0  0
    1.4631   -5.1020    0.0000 H   0  0  0  0  0  0  0  0  0  0  0  0
  1 17  1  0  0  0  0
  2 19  1  0  0  0  0
  3 21  2  0  0  0  0
  4  8  1  0  0  0  0
  4  9  1  0  0  0  0
  4 12  1  0  0  0  0
  5 10  1  0  0  0  0
  5 11  1  0  0  0  0
  5 15  1  0  0  0  0
  6 16  1  0  0  0  0
  6 21  1  0  0  0  0
  6 48  1  0  0  0  0
  7 25  1  0  0  0  0
  7 26  1  0  0  0  0
  7 52  1  0  0  0  0
  8 10  1  0  0  0  0
  8 31  1  0  0  0  0
  8 32  1  0  0  0  0
  9 11  1  0  0  0  0
  9 33  1  0  0  0  0
  9 34  1  0  0  0  0
 10 35  1  0  0  0  0
 10 36  1  0  0  0  0
 11 37  1  0  0  0  0
 11 38  1  0  0  0  0
 12 13  1  0  0  0  0
 12 39  1  0  0  0  0
 12 40  1  0  0  0  0
 13 14  1  0  0  0  0
 13 41  1  0  0  0  0
 13 42  1  0  0  0  0
 14 16  1  0  0  0  0
 14 43  1  0  0  0  0
 14 44  1  0  0  0  0
 15 17  2  0  0  0  0
 15 18  1  0  0  0  0
 16 45  1  0  0  0  0
 16 46  1  0  0  0  0
 17 19  1  0  0  0  0
 18 20  2  0  0  0  0
 18 47  1  0  0  0  0
 19 22  2  0  0  0  0
 20 22  1  0  0  0  0
 20 49  1  0  0  0  0
 21 23  1  0  0  0  0
 22 50  1  0  0  0  0
 23 24  1  0  0  0  0
 23 26  2  0  0  0  0
 24 25  1  0  0  0  0
 24 27  2  0  0  0  0
 25 28  2  0  0  0  0
 26 51  1  0  0  0  0
 27 29  1  0  0  0  0
 27 53  1  0  0  0  0
 28 30  1  0  0  0  0
 28 54  1  0  0  0  0
 29 30  2  0  0  0  0
 29 55  1  0  0  0  0
 30 56  1  0  0  0  0
M  END
> <PUBCHEM_COMPOUND_CID>
10873956

> <PUBCHEM_COMPOUND_CANONICALIZED>
1

> <PUBCHEM_CACTVS_COMPLEXITY>
557

> <PUBCHEM_CACTVS_HBOND_ACCEPTOR>
3

> <PUBCHEM_CACTVS_HBOND_DONOR>
2

> <PUBCHEM_CACTVS_ROTATABLE_BOND>
7

> <PUBCHEM_CACTVS_SUBSKEYS>
AAADceB7oAAGAAAAAAAAAAAAAAAAAWAAAAA8YIAAAAAAAFgB9AAAHgIQAAAADArBniQ8wPPJkACoAzV3VACCgCA1ByAI2+E4ZtgIYPrB15HUIYhglgDIyccciMCOgAAAAAICABQAAAAABAQAKAAAAAAAAA==

> <PUBCHEM_IUPAC_OPENEYE_NAME>
N-[4-[4-(2,3-dichlorophenyl)piperazin-1-yl]butyl]-1H-indole-3-carboxamide

> <PUBCHEM_IUPAC_CAS_NAME>
N-[4-[4-(2,3-dichlorophenyl)-1-piperazinyl]butyl]-1H-indole-3-carboxamide

> <PUBCHEM_IUPAC_NAME_MARKUP>
<I>N</I>-[4-[4-(2,3-dichlorophenyl)piperazin-1-yl]butyl]-1<I>H</I>-indole-3-carboxamide

> <PUBCHEM_IUPAC_NAME>
N-[4-[4-(2,3-dichlorophenyl)piperazin-1-yl]butyl]-1H-indole-3-carboxamide

> <PUBCHEM_IUPAC_SYSTEMATIC_NAME>
N-[4-[4-[2,3-bis(chloranyl)phenyl]piperazin-1-yl]butyl]-1H-indole-3-carboxamide

> <PUBCHEM_IUPAC_TRADITIONAL_NAME>
N-[4-[4-(2,3-dichlorophenyl)piperazino]butyl]-1H-indole-3-carboxamide

> <PUBCHEM_IUPAC_INCHI>
InChI=1S/C23H26Cl2N4O/c24-19-7-5-9-21(22(19)25)29-14-12-28(13-15-29)11-4-3-10-26-23(30)18-16-27-20-8-2-1-6-17(18)20/h1-2,5-9,16,27H,3-4,10-15H2,(H,26,30)

> <PUBCHEM_IUPAC_INCHIKEY>
SUMKBFVXRDCDIJ-UHFFFAOYSA-N

> <PUBCHEM_XLOGP3_AA>
4.9

> <PUBCHEM_EXACT_MASS>
444.1483669

> <PUBCHEM_MOLECULAR_FORMULA>
C23H26Cl2N4O

> <PUBCHEM_MOLECULAR_WEIGHT>
445.4

> <PUBCHEM_OPENEYE_CAN_SMILES>
C1CN(CCN1CCCCNC(=O)C2=CNC3=CC=CC=C32)C4=C(C(=CC=C4)Cl)Cl

> <PUBCHEM_OPENEYE_ISO_SMILES>
C1CN(CCN1CCCCNC(=O)C2=CNC3=CC=CC=C32)C4=C(C(=CC=C4)Cl)Cl

> <PUBCHEM_CACTVS_TPSA>
51.4

> <PUBCHEM_MONOISOTOPIC_WEIGHT>
444.1483669

> <PUBCHEM_TOTAL_CHARGE>
0

> <PUBCHEM_HEAVY_ATOM_COUNT>
30

> <PUBCHEM_ATOM_DEF_STEREO_COUNT>
0

> <PUBCHEM_ATOM_UDEF_STEREO_COUNT>
0

> <PUBCHEM_BOND_DEF_STEREO_COUNT>
0

> <PUBCHEM_BOND_UDEF_STEREO_COUNT>
0

> <PUBCHEM_ISOTOPIC_ATOM_COUNT>
0

> <PUBCHEM_COMPONENT_COUNT>
1

> <PUBCHEM_CACTVS_TAUTO_COUNT>
-1

> <PUBCHEM_COORDINATE_TYPE>
1
5
255

> <PUBCHEM_BONDANNOTATIONS>
15  17  8
15  18  8
17  19  8
18  20  8
19  22  8
20  22  8
23  24  8
23  26  8
24  25  8
24  27  8
25  28  8
27  29  8
28  30  8
29  30  8
7  25  8
7  26  8

$$$$
