57345619
  -OEChem-09292322322D

 51 53  0     1  0  0  0  0  0999 V2000
    3.1235   -6.6245    0.0000 Cl  0  0  0  0  0  0  0  0  0  0  0  0
    5.1002    6.6245    0.0000 F   0  0  0  0  0  0  0  0  0  0  0  0
    3.6235   -0.4338    0.0000 N   0  0  3  0  0  0  0  0  0  0  0  0
    3.1235   -2.6245    0.0000 N   0  0  3  0  0  0  0  0  0  0  0  0
    2.6235   -0.4338    0.0000 C   0  0  0  0  0  0  0  0  0  0  0  0
    4.2470   -1.2157    0.0000 C   0  0  0  0  0  0  0  0  0  0  0  0
    2.0000   -1.2157    0.0000 C   0  0  0  0  0  0  0  0  0  0  0  0
    4.0245   -2.1906    0.0000 C   0  0  0  0  0  0  0  0  0  0  0  0
    4.0574    0.4671    0.0000 C   0  0  0  0  0  0  0  0  0  0  0  0
    2.2225   -2.1906    0.0000 C   0  0  0  0  0  0  0  0  0  0  0  0
    3.4940    1.2934    0.0000 C   0  0  0  0  0  0  0  0  0  0  0  0
    3.9279    2.1944    0.0000 C   0  0  0  0  0  0  0  0  0  0  0  0
    3.1235   -3.6245    0.0000 C   0  0  0  0  0  0  0  0  0  0  0  0
    3.3646    3.0206    0.0000 C   0  0  0  0  0  0  0  0  0  0  0  0
    3.9895   -4.1245    0.0000 C   0  0  0  0  0  0  0  0  0  0  0  0
    2.2575   -4.1245    0.0000 C   0  0  0  0  0  0  0  0  0  0  0  0
    3.7985    3.9216    0.0000 C   0  0  0  0  0  0  0  0  0  0  0  0
    3.9895   -5.1245    0.0000 C   0  0  0  0  0  0  0  0  0  0  0  0
    2.2575   -5.1245    0.0000 C   0  0  0  0  0  0  0  0  0  0  0  0
    3.2352    4.7478    0.0000 C   0  0  0  0  0  0  0  0  0  0  0  0
    4.7957    3.9963    0.0000 C   0  0  0  0  0  0  0  0  0  0  0  0
    3.1235   -5.6245    0.0000 C   0  0  0  0  0  0  0  0  0  0  0  0
    3.6691    5.6488    0.0000 C   0  0  0  0  0  0  0  0  0  0  0  0
    5.2296    4.8973    0.0000 C   0  0  0  0  0  0  0  0  0  0  0  0
    4.6663    5.7235    0.0000 C   0  0  0  0  0  0  0  0  0  0  0  0
    2.7614    0.1706    0.0000 H   0  0  0  0  0  0  0  0  0  0  0  0
    2.0649   -0.1648    0.0000 H   0  0  0  0  0  0  0  0  0  0  0  0
    4.8056   -1.4847    0.0000 H   0  0  0  0  0  0  0  0  0  0  0  0
    4.6335   -0.7309    0.0000 H   0  0  0  0  0  0  0  0  0  0  0  0
    1.6134   -0.7309    0.0000 H   0  0  0  0  0  0  0  0  0  0  0  0
    1.4414   -1.4847    0.0000 H   0  0  0  0  0  0  0  0  0  0  0  0
    4.1624   -2.7950    0.0000 H   0  0  0  0  0  0  0  0  0  0  0  0
    4.6445   -2.1906    0.0000 H   0  0  0  0  0  0  0  0  0  0  0  0
    4.5608    0.1052    0.0000 H   0  0  0  0  0  0  0  0  0  0  0  0
    4.5012    0.9001    0.0000 H   0  0  0  0  0  0  0  0  0  0  0  0
    1.6025   -2.1906    0.0000 H   0  0  0  0  0  0  0  0  0  0  0  0
    2.0846   -2.7950    0.0000 H   0  0  0  0  0  0  0  0  0  0  0  0
    2.9906    1.6553    0.0000 H   0  0  0  0  0  0  0  0  0  0  0  0
    3.0502    0.8605    0.0000 H   0  0  0  0  0  0  0  0  0  0  0  0
    4.4313    1.8324    0.0000 H   0  0  0  0  0  0  0  0  0  0  0  0
    4.3718    2.6273    0.0000 H   0  0  0  0  0  0  0  0  0  0  0  0
    2.8612    3.3825    0.0000 H   0  0  0  0  0  0  0  0  0  0  0  0
    2.9208    2.5877    0.0000 H   0  0  0  0  0  0  0  0  0  0  0  0
    4.5264   -3.8145    0.0000 H   0  0  0  0  0  0  0  0  0  0  0  0
    1.7205   -3.8145    0.0000 H   0  0  0  0  0  0  0  0  0  0  0  0
    4.5264   -5.4345    0.0000 H   0  0  0  0  0  0  0  0  0  0  0  0
    1.7205   -5.4345    0.0000 H   0  0  0  0  0  0  0  0  0  0  0  0
    2.6169    4.7015    0.0000 H   0  0  0  0  0  0  0  0  0  0  0  0
    5.1450    3.4840    0.0000 H   0  0  0  0  0  0  0  0  0  0  0  0
    3.3198    6.1610    0.0000 H   0  0  0  0  0  0  0  0  0  0  0  0
    5.8479    4.9436    0.0000 H   0  0  0  0  0  0  0  0  0  0  0  0
  1 22  1  0  0  0  0
  2 25  1  0  0  0  0
  3  5  1  0  0  0  0
  3  6  1  0  0  0  0
  3  9  1  0  0  0  0
  4  8  1  0  0  0  0
  4 10  1  0  0  0  0
  4 13  1  0  0  0  0
  5  7  1  0  0  0  0
  5 26  1  0  0  0  0
  5 27  1  0  0  0  0
  6  8  1  0  0  0  0
  6 28  1  0  0  0  0
  6 29  1  0  0  0  0
  7 10  1  0  0  0  0
  7 30  1  0  0  0  0
  7 31  1  0  0  0  0
  8 32  1  0  0  0  0
  8 33  1  0  0  0  0
  9 11  1  0  0  0  0
  9 34  1  0  0  0  0
  9 35  1  0  0  0  0
 10 36  1  0  0  0  0
 10 37  1  0  0  0  0
 11 12  1  0  0  0  0
 11 38  1  0  0  0  0
 11 39  1  0  0  0  0
 12 14  1  0  0  0  0
 12 40  1  0  0  0  0
 12 41  1  0  0  0  0
 13 15  2  0  0  0  0
 13 16  1  0  0  0  0
 14 17  1  0  0  0  0
 14 42  1  0  0  0  0
 14 43  1  0  0  0  0
 15 18  1  0  0  0  0
 15 44  1  0  0  0  0
 16 19  2  0  0  0  0
 16 45  1  0  0  0  0
 17 20  2  0  0  0  0
 17 21  1  0  0  0  0
 18 22  2  0  0  0  0
 18 46  1  0  0  0  0
 19 22  1  0  0  0  0
 19 47  1  0  0  0  0
 20 23  1  0  0  0  0
 20 48  1  0  0  0  0
 21 24  2  0  0  0  0
 21 49  1  0  0  0  0
 23 25  2  0  0  0  0
 23 50  1  0  0  0  0
 24 25  1  0  0  0  0
 24 51  1  0  0  0  0
M  END
> <PUBCHEM_COMPOUND_CID>
57345619

> <PUBCHEM_COMPOUND_CANONICALIZED>
1

> <PUBCHEM_CACTVS_COMPLEXITY>
365

> <PUBCHEM_CACTVS_HBOND_ACCEPTOR>
3

> <PUBCHEM_CACTVS_HBOND_DONOR>
0

> <PUBCHEM_CACTVS_ROTATABLE_BOND>
6

> <PUBCHEM_CACTVS_SUBSKEYS>
AAADceB7AQAEAAAAAAAAAAAAAAAAAAAAAAAwYAAABYAAAAABQAAAHQIAAAAADArBGCwwwIMAAACAAiRCQACCAAAhBwAIiAAIZogIYCLB05GUIAhggADIyAcQgIAOAABAAAAAAAAAAIAAAAAAAAAAAAAAAA==

> <PUBCHEM_IUPAC_OPENEYE_NAME>
1-(4-chlorophenyl)-4-[4-(4-fluorophenyl)butyl]-1,4-diazepane

> <PUBCHEM_IUPAC_CAS_NAME>
1-(4-chlorophenyl)-4-[4-(4-fluorophenyl)butyl]-1,4-diazepane

> <PUBCHEM_IUPAC_NAME_MARKUP>
1-(4-chlorophenyl)-4-[4-(4-fluorophenyl)butyl]-1,4-diazepane

> <PUBCHEM_IUPAC_NAME>
1-(4-chlorophenyl)-4-[4-(4-fluorophenyl)butyl]-1,4-diazepane

> <PUBCHEM_IUPAC_SYSTEMATIC_NAME>
1-(4-chlorophenyl)-4-[4-(4-fluorophenyl)butyl]-1,4-diazepane

> <PUBCHEM_IUPAC_TRADITIONAL_NAME>
1-(4-chlorophenyl)-4-[4-(4-fluorophenyl)butyl]-1,4-diazepane

> <PUBCHEM_IUPAC_INCHI>
InChI=1S/C21H26ClFN2/c22-19-7-11-21(12-8-19)25-15-3-14-24(16-17-25)13-2-1-4-18-5-9-20(23)10-6-18/h5-12H,1-4,13-17H2

> <PUBCHEM_IUPAC_INCHIKEY>
FVMDOYQNOWAVCQ-UHFFFAOYSA-N

> <PUBCHEM_XLOGP3_AA>
5.6

> <PUBCHEM_EXACT_MASS>
360.1768547

> <PUBCHEM_MOLECULAR_FORMULA>
C21H26ClFN2

> <PUBCHEM_MOLECULAR_WEIGHT>
360.9

> <PUBCHEM_OPENEYE_CAN_SMILES>
C1CN(CCN(C1)C2=CC=C(C=C2)Cl)CCCCC3=CC=C(C=C3)F

> <PUBCHEM_OPENEYE_ISO_SMILES>
C1CN(CCN(C1)C2=CC=C(C=C2)Cl)CCCCC3=CC=C(C=C3)F

> <PUBCHEM_CACTVS_TPSA>
6.5

> <PUBCHEM_MONOISOTOPIC_WEIGHT>
360.1768547

> <PUBCHEM_TOTAL_CHARGE>
0

> <PUBCHEM_HEAVY_ATOM_COUNT>
25

> <PUBCHEM_ATOM_DEF_STEREO_COUNT>
0

> <PUBCHEM_ATOM_UDEF_STEREO_COUNT>
0

> <PUBCHEM_BOND_DEF_STEREO_COUNT>
0

> <PUBCHEM_BOND_UDEF_STEREO_COUNT>
0

> <PUBCHEM_ISOTOPIC_ATOM_COUNT>
0

> <PUBCHEM_COMPONENT_COUNT>
1

> <PUBCHEM_CACTVS_TAUTO_COUNT>
-1

> <PUBCHEM_COORDINATE_TYPE>
1
5
255

> <PUBCHEM_BONDANNOTATIONS>
13  15  8
13  16  8
15  18  8
16  19  8
17  20  8
17  21  8
18  22  8
19  22  8
20  23  8
21  24  8
23  25  8
24  25  8

$$$$
