44296101
  -OEChem-09292321582D

 58 63  0     1  0  0  0  0  0999 V2000
    2.0000    0.3761    0.0000 Cl  0  0  0  0  0  0  0  0  0  0  0  0
    9.2324   -1.1637    0.0000 O   0  0  0  0  0  0  0  0  0  0  0  0
    6.1452    0.6988    0.0000 N   0  0  0  0  0  0  0  0  0  0  0  0
    8.4560   -4.0615    0.0000 N   0  0  0  0  0  0  0  0  0  0  0  0
    5.6969    2.3718    0.0000 C   0  0  3  0  0  0  0  0  0  0  0  0
    5.2191    4.3203    0.0000 C   0  0  0  0  0  0  0  0  0  0  0  0
    5.9557    3.3377    0.0000 C   0  0  3  0  0  0  0  0  0  0  0  0
    4.3242    1.7798    0.0000 C   0  0  0  0  0  0  0  0  0  0  0  0
    7.0958    1.8630    0.0000 C   0  0  0  0  0  0  0  0  0  0  0  0
    5.4380    1.4059    0.0000 C   0  0  0  0  0  0  0  0  0  0  0  0
    3.9822    2.7195    0.0000 C   0  0  0  0  0  0  0  0  0  0  0  0
    7.3546    2.8289    0.0000 C   0  0  0  0  0  0  0  0  0  0  0  0
    5.8863   -0.2672    0.0000 C   0  0  0  0  0  0  0  0  0  0  0  0
    7.1111    0.9576    0.0000 C   0  0  0  0  0  0  0  0  0  0  0  0
    7.5594   -0.7155    0.0000 C   0  0  0  0  0  0  0  0  0  0  0  0
    3.6670    0.9716    0.0000 C   0  0  0  0  0  0  0  0  0  0  0  0
    7.8209    1.1152    0.0000 C   0  0  0  0  0  0  0  0  0  0  0  0
    6.5934   -0.9743    0.0000 C   0  0  0  0  0  0  0  0  0  0  0  0
    7.8182    0.2505    0.0000 C   0  0  0  0  0  0  0  0  0  0  0  0
    2.9592    2.9161    0.0000 C   0  0  0  0  0  0  0  0  0  0  0  0
    8.3565    3.1140    0.0000 C   0  0  0  0  0  0  0  0  0  0  0  0
    8.2665   -1.4226    0.0000 C   0  0  2  0  0  0  0  0  0  0  0  0
    2.6398    1.1446    0.0000 C   0  0  0  0  0  0  0  0  0  0  0  0
    8.8291    1.3770    0.0000 C   0  0  0  0  0  0  0  0  0  0  0  0
    2.2836    2.1234    0.0000 C   0  0  0  0  0  0  0  0  0  0  0  0
    9.0987    2.3831    0.0000 C   0  0  0  0  0  0  0  0  0  0  0  0
    8.0077   -2.3885    0.0000 C   0  0  0  0  0  0  0  0  0  0  0  0
    7.0417   -2.6473    0.0000 C   0  0  0  0  0  0  0  0  0  0  0  0
    8.7148   -3.0956    0.0000 C   0  0  0  0  0  0  0  0  0  0  0  0
    6.7829   -3.6132    0.0000 C   0  0  0  0  0  0  0  0  0  0  0  0
    7.4900   -4.3203    0.0000 C   0  0  0  0  0  0  0  0  0  0  0  0
    5.5369    4.8527    0.0000 H   0  0  0  0  0  0  0  0  0  0  0  0
    4.6059    4.4123    0.0000 H   0  0  0  0  0  0  0  0  0  0  0  0
    6.3250    3.8357    0.0000 H   0  0  0  0  0  0  0  0  0  0  0  0
    4.8761    1.6679    0.0000 H   0  0  0  0  0  0  0  0  0  0  0  0
    5.0824    0.8980    0.0000 H   0  0  0  0  0  0  0  0  0  0  0  0
    5.3244   -0.0051    0.0000 H   0  0  0  0  0  0  0  0  0  0  0  0
    5.5307   -0.7750    0.0000 H   0  0  0  0  0  0  0  0  0  0  0  0
    7.6190    1.3132    0.0000 H   0  0  0  0  0  0  0  0  0  0  0  0
    6.8491    1.5195    0.0000 H   0  0  0  0  0  0  0  0  0  0  0  0
    7.3989   -1.3143    0.0000 H   0  0  0  0  0  0  0  0  0  0  0  0
    3.8858    0.3915    0.0000 H   0  0  0  0  0  0  0  0  0  0  0  0
    7.6535    0.5182    0.0000 H   0  0  0  0  0  0  0  0  0  0  0  0
    6.0856   -1.3299    0.0000 H   0  0  0  0  0  0  0  0  0  0  0  0
    6.8555   -1.5362    0.0000 H   0  0  0  0  0  0  0  0  0  0  0  0
    8.3801   -0.0115    0.0000 H   0  0  0  0  0  0  0  0  0  0  0  0
    8.1738    0.7583    0.0000 H   0  0  0  0  0  0  0  0  0  0  0  0
    2.7540    3.5012    0.0000 H   0  0  0  0  0  0  0  0  0  0  0  0
    8.5100    3.7147    0.0000 H   0  0  0  0  0  0  0  0  0  0  0  0
    8.7049   -1.8610    0.0000 H   0  0  0  0  0  0  0  0  0  0  0  0
    9.2658    0.9369    0.0000 H   0  0  0  0  0  0  0  0  0  0  0  0
    1.6734    2.2334    0.0000 H   0  0  0  0  0  0  0  0  0  0  0  0
    9.6969    2.5459    0.0000 H   0  0  0  0  0  0  0  0  0  0  0  0
    9.6708   -1.6021    0.0000 H   0  0  0  0  0  0  0  0  0  0  0  0
    6.6033   -2.2089    0.0000 H   0  0  0  0  0  0  0  0  0  0  0  0
    9.3136   -2.9351    0.0000 H   0  0  0  0  0  0  0  0  0  0  0  0
    6.1840   -3.7737    0.0000 H   0  0  0  0  0  0  0  0  0  0  0  0
    7.3296   -4.9192    0.0000 H   0  0  0  0  0  0  0  0  0  0  0  0
  1 23  1  0  0  0  0
 22  2  1  1  0  0  0
  2 54  1  0  0  0  0
  3 10  1  0  0  0  0
  3 13  1  0  0  0  0
  3 14  1  0  0  0  0
  4 29  1  0  0  0  0
  4 31  2  0  0  0  0
  5  6  1  0  0  0  0
  5  8  1  0  0  0  0
  5  9  1  0  0  0  0
  5 10  1  0  0  0  0
  6  7  1  0  0  0  0
  6 32  1  0  0  0  0
  6 33  1  0  0  0  0
  7 11  1  0  0  0  0
  7 12  1  0  0  0  0
  7 34  1  0  0  0  0
  8 11  2  0  0  0  0
  8 16  1  0  0  0  0
  9 12  1  0  0  0  0
  9 17  2  0  0  0  0
 10 35  1  0  0  0  0
 10 36  1  0  0  0  0
 11 20  1  0  0  0  0
 12 21  2  0  0  0  0
 13 18  1  0  0  0  0
 13 37  1  0  0  0  0
 13 38  1  0  0  0  0
 14 19  1  0  0  0  0
 14 39  1  0  0  0  0
 14 40  1  0  0  0  0
 15 18  1  0  0  0  0
 15 19  1  0  0  0  0
 15 22  1  0  0  0  0
 15 41  1  0  0  0  0
 16 23  2  0  0  0  0
 16 42  1  0  0  0  0
 17 24  1  0  0  0  0
 17 43  1  0  0  0  0
 18 44  1  0  0  0  0
 18 45  1  0  0  0  0
 19 46  1  0  0  0  0
 19 47  1  0  0  0  0
 20 25  2  0  0  0  0
 20 48  1  0  0  0  0
 21 26  1  0  0  0  0
 21 49  1  0  0  0  0
 22 27  1  0  0  0  0
 22 50  1  0  0  0  0
 23 25  1  0  0  0  0
 24 26  2  0  0  0  0
 24 51  1  0  0  0  0
 25 52  1  0  0  0  0
 26 53  1  0  0  0  0
 27 28  1  0  0  0  0
 27 29  2  0  0  0  0
 28 30  2  0  0  0  0
 28 55  1  0  0  0  0
 29 56  1  0  0  0  0
 30 31  1  0  0  0  0
 30 57  1  0  0  0  0
 31 58  1  0  0  0  0
M  END
> <PUBCHEM_COMPOUND_CID>
44296101

> <PUBCHEM_COMPOUND_CANONICALIZED>
1

> <PUBCHEM_CACTVS_COMPLEXITY>
637

> <PUBCHEM_CACTVS_HBOND_ACCEPTOR>
3

> <PUBCHEM_CACTVS_HBOND_DONOR>
1

> <PUBCHEM_CACTVS_ROTATABLE_BOND>
4

> <PUBCHEM_CACTVS_SUBSKEYS>
AAADceB7IAAEAAAAAAAAAAAAAAAAAYMAAAA8eMECAAAAAGAB0AAAHgIACAAADxbhmiY8gJMIEgCgAjBnRACCgCAxByAI2CA4bpgINuLBk5GEcAhmwAHI2AewkMIPhAAAIAAQAACIAARAACAAAQAACAAAAA==

> <PUBCHEM_IUPAC_OPENEYE_NAME>
(R)-[1-[(4-chloro-1-tetracyclo[6.6.1.02,7.09,14]pentadeca-2(7),3,5,9,11,13-hexaenyl)methyl]-4-piperidyl]-(3-pyridyl)methanol

> <PUBCHEM_IUPAC_CAS_NAME>
(R)-[1-[(4-chloro-1-tetracyclo[6.6.1.02,7.09,14]pentadeca-2(7),3,5,9,11,13-hexaenyl)methyl]-4-piperidinyl]-(3-pyridinyl)methanol

> <PUBCHEM_IUPAC_NAME_MARKUP>
(<I>R</I>)-[1-[(4-chloro-1-tetracyclo[6.6.1.0<SUP>2,7</SUP>.0<SUP>9,14</SUP>]pentadeca-2(7),3,5,9,11,13-hexaenyl)methyl]piperidin-4-yl]-pyridin-3-ylmethanol

> <PUBCHEM_IUPAC_NAME>
(R)-[1-[(4-chloro-1-tetracyclo[6.6.1.02,7.09,14]pentadeca-2(7),3,5,9,11,13-hexaenyl)methyl]piperidin-4-yl]-pyridin-3-ylmethanol

> <PUBCHEM_IUPAC_SYSTEMATIC_NAME>
(R)-[1-[(4-chloranyl-1-tetracyclo[6.6.1.02,7.09,14]pentadeca-2(7),3,5,9,11,13-hexaenyl)methyl]piperidin-4-yl]-pyridin-3-yl-methanol

> <PUBCHEM_IUPAC_TRADITIONAL_NAME>
(R)-[1-[(4-chloro-1-tetracyclo[6.6.1.02,7.09,14]pentadeca-2(7),3,5,9,11,13-hexaenyl)methyl]-4-piperidyl]-(3-pyridyl)methanol

> <PUBCHEM_IUPAC_INCHI>
InChI=1S/C27H27ClN2O/c28-20-7-8-22-23-15-27(25(22)14-20,24-6-2-1-5-21(23)24)17-30-12-9-18(10-13-30)26(31)19-4-3-11-29-16-19/h1-8,11,14,16,18,23,26,31H,9-10,12-13,15,17H2/t23?,26-,27?/m1/s1

> <PUBCHEM_IUPAC_INCHIKEY>
FAIDZDOWNFSXLC-VJZLMVMKSA-N

> <PUBCHEM_XLOGP3_AA>
4.8

> <PUBCHEM_EXACT_MASS>
430.1811912

> <PUBCHEM_MOLECULAR_FORMULA>
C27H27ClN2O

> <PUBCHEM_MOLECULAR_WEIGHT>
431.0

> <PUBCHEM_OPENEYE_CAN_SMILES>
C1CN(CCC1C(C2=CN=CC=C2)O)CC34CC(C5=C3C=C(C=C5)Cl)C6=CC=CC=C46

> <PUBCHEM_OPENEYE_ISO_SMILES>
C1CN(CCC1[C@H](C2=CN=CC=C2)O)CC34CC(C5=C3C=C(C=C5)Cl)C6=CC=CC=C46

> <PUBCHEM_CACTVS_TPSA>
36.4

> <PUBCHEM_MONOISOTOPIC_WEIGHT>
430.1811912

> <PUBCHEM_TOTAL_CHARGE>
0

> <PUBCHEM_HEAVY_ATOM_COUNT>
31

> <PUBCHEM_ATOM_DEF_STEREO_COUNT>
1

> <PUBCHEM_ATOM_UDEF_STEREO_COUNT>
2

> <PUBCHEM_BOND_DEF_STEREO_COUNT>
0

> <PUBCHEM_BOND_UDEF_STEREO_COUNT>
0

> <PUBCHEM_ISOTOPIC_ATOM_COUNT>
0

> <PUBCHEM_COMPONENT_COUNT>
1

> <PUBCHEM_CACTVS_TAUTO_COUNT>
-1

> <PUBCHEM_COORDINATE_TYPE>
1
5
255

> <PUBCHEM_BONDANNOTATIONS>
11  20  8
12  21  8
16  23  8
17  24  8
22  2  5
20  25  8
21  26  8
23  25  8
24  26  8
27  28  8
27  29  8
28  30  8
30  31  8
4  29  8
4  31  8
5  6  3
7  6  3
8  11  8
8  16  8
9  12  8
9  17  8

$$$$
