53364154
  -OEChem-09292322322D

154161  0     0  0  0  0  0  0999 V2000
   14.8853   14.2498    0.0000 O   0  0  0  0  0  0  0  0  0  0  0  0
    7.1962  -16.2498    0.0000 O   0  0  0  0  0  0  0  0  0  0  0  0
   10.5552    9.7498    0.0000 O   0  0  0  0  0  0  0  0  0  0  0  0
    4.5981   -8.7498    0.0000 O   0  0  0  0  0  0  0  0  0  0  0  0
    8.8232   10.7498    0.0000 O   0  0  0  0  0  0  0  0  0  0  0  0
    2.8660   -9.7498    0.0000 O   0  0  0  0  0  0  0  0  0  0  0  0
   11.4212   14.2498    0.0000 N   0  0  0  0  0  0  0  0  0  0  0  0
    5.4641  -13.2498    0.0000 N   0  0  0  0  0  0  0  0  0  0  0  0
   13.1533   15.2498    0.0000 N   0  0  0  0  0  0  0  0  0  0  0  0
    7.1962  -14.2498    0.0000 N   0  0  0  0  0  0  0  0  0  0  0  0
    8.3232    5.2109    0.0000 N   0  0  0  0  0  0  0  0  0  0  0  0
    6.8301   -4.2109    0.0000 N   0  0  0  0  0  0  0  0  0  0  0  0
    9.3232    5.2109    0.0000 N   0  0  0  0  0  0  0  0  0  0  0  0
    5.8301   -4.2109    0.0000 N   0  0  0  0  0  0  0  0  0  0  0  0
    9.6322    6.1620    0.0000 N   0  0  0  0  0  0  0  0  0  0  0  0
    5.5211   -5.1620    0.0000 N   0  0  0  0  0  0  0  0  0  0  0  0
   11.4212   15.2498    0.0000 C   0  0  0  0  0  0  0  0  0  0  0  0
   12.2873   13.7498    0.0000 C   0  0  0  0  0  0  0  0  0  0  0  0
    5.4641  -14.2498    0.0000 C   0  0  0  0  0  0  0  0  0  0  0  0
    6.3301  -12.7498    0.0000 C   0  0  0  0  0  0  0  0  0  0  0  0
   12.2873   15.7498    0.0000 C   0  0  0  0  0  0  0  0  0  0  0  0
   13.1533   14.2498    0.0000 C   0  0  0  0  0  0  0  0  0  0  0  0
    6.3301  -14.7498    0.0000 C   0  0  0  0  0  0  0  0  0  0  0  0
    7.1962  -13.2498    0.0000 C   0  0  0  0  0  0  0  0  0  0  0  0
   10.5552   13.7498    0.0000 C   0  0  0  0  0  0  0  0  0  0  0  0
    4.5981  -12.7498    0.0000 C   0  0  0  0  0  0  0  0  0  0  0  0
   14.0193   15.7498    0.0000 C   0  0  0  0  0  0  0  0  0  0  0  0
    8.0622  -14.7498    0.0000 C   0  0  0  0  0  0  0  0  0  0  0  0
   10.5552   12.7498    0.0000 C   0  0  0  0  0  0  0  0  0  0  0  0
    4.5981  -11.7498    0.0000 C   0  0  0  0  0  0  0  0  0  0  0  0
   14.8853   15.2498    0.0000 C   0  0  0  0  0  0  0  0  0  0  0  0
    8.0622  -15.7498    0.0000 C   0  0  0  0  0  0  0  0  0  0  0  0
   14.0193   16.7498    0.0000 C   0  0  0  0  0  0  0  0  0  0  0  0
    8.9282  -14.2498    0.0000 C   0  0  0  0  0  0  0  0  0  0  0  0
    7.3733    0.9568    0.0000 C   0  0  0  0  0  0  0  0  0  0  0  0
    7.7800    0.0432    0.0000 C   0  0  0  0  0  0  0  0  0  0  0  0
    7.9611    1.7658    0.0000 C   0  0  0  0  0  0  0  0  0  0  0  0
    7.1922   -0.7658    0.0000 C   0  0  0  0  0  0  0  0  0  0  0  0
    9.6892   12.2498    0.0000 C   0  0  0  0  0  0  0  0  0  0  0  0
    3.7320  -11.2498    0.0000 C   0  0  0  0  0  0  0  0  0  0  0  0
   11.4212   12.2498    0.0000 C   0  0  0  0  0  0  0  0  0  0  0  0
    5.4641  -11.2498    0.0000 C   0  0  0  0  0  0  0  0  0  0  0  0
    7.5543    2.6793    0.0000 C   0  0  0  0  0  0  0  0  0  0  0  0
    7.5990   -1.6793    0.0000 C   0  0  0  0  0  0  0  0  0  0  0  0
   15.7514   15.7498    0.0000 C   0  0  0  0  0  0  0  0  0  0  0  0
    8.9282  -16.2498    0.0000 C   0  0  0  0  0  0  0  0  0  0  0  0
    8.1421    3.4884    0.0000 C   0  0  0  0  0  0  0  0  0  0  0  0
    7.0112   -2.4884    0.0000 C   0  0  0  0  0  0  0  0  0  0  0  0
   14.8853   17.2498    0.0000 C   0  0  0  0  0  0  0  0  0  0  0  0
    9.7942  -14.7498    0.0000 C   0  0  0  0  0  0  0  0  0  0  0  0
    9.6892   11.2498    0.0000 C   0  0  0  0  0  0  0  0  0  0  0  0
    3.7320  -10.2498    0.0000 C   0  0  0  0  0  0  0  0  0  0  0  0
   11.4212   11.2498    0.0000 C   0  0  0  0  0  0  0  0  0  0  0  0
    5.4641  -10.2498    0.0000 C   0  0  0  0  0  0  0  0  0  0  0  0
   10.5552   10.7498    0.0000 C   0  0  0  0  0  0  0  0  0  0  0  0
    4.5981   -9.7498    0.0000 C   0  0  0  0  0  0  0  0  0  0  0  0
   15.7514   16.7498    0.0000 C   0  0  0  0  0  0  0  0  0  0  0  0
    9.7942  -15.7498    0.0000 C   0  0  0  0  0  0  0  0  0  0  0  0
    7.7354    4.4019    0.0000 C   0  0  0  0  0  0  0  0  0  0  0  0
    7.4179   -3.4019    0.0000 C   0  0  0  0  0  0  0  0  0  0  0  0
    9.6892    9.2498    0.0000 C   0  0  0  0  0  0  0  0  0  0  0  0
    5.4641   -8.2498    0.0000 C   0  0  0  0  0  0  0  0  0  0  0  0
    9.6892    8.2498    0.0000 C   0  0  0  0  0  0  0  0  0  0  0  0
    5.4641   -7.2498    0.0000 C   0  0  0  0  0  0  0  0  0  0  0  0
    8.8232    7.7498    0.0000 C   0  0  0  0  0  0  0  0  0  0  0  0
    6.3301   -6.7498    0.0000 C   0  0  0  0  0  0  0  0  0  0  0  0
   15.7514   13.7498    0.0000 C   0  0  0  0  0  0  0  0  0  0  0  0
    7.1962  -17.2498    0.0000 C   0  0  0  0  0  0  0  0  0  0  0  0
    8.8232    6.7498    0.0000 C   0  0  0  0  0  0  0  0  0  0  0  0
    6.3301   -5.7498    0.0000 C   0  0  0  0  0  0  0  0  0  0  0  0
    8.0141    6.1620    0.0000 C   0  0  0  0  0  0  0  0  0  0  0  0
    7.1391   -5.1620    0.0000 C   0  0  0  0  0  0  0  0  0  0  0  0
    7.9571   11.2498    0.0000 C   0  0  0  0  0  0  0  0  0  0  0  0
    2.0000  -10.2498    0.0000 C   0  0  0  0  0  0  0  0  0  0  0  0
   11.2092   15.8324    0.0000 H   0  0  0  0  0  0  0  0  0  0  0  0
   10.8107   15.1421    0.0000 H   0  0  0  0  0  0  0  0  0  0  0  0
   11.8887   13.2748    0.0000 H   0  0  0  0  0  0  0  0  0  0  0  0
   12.6858   13.2748    0.0000 H   0  0  0  0  0  0  0  0  0  0  0  0
    4.8535  -14.1421    0.0000 H   0  0  0  0  0  0  0  0  0  0  0  0
    5.2520  -14.8324    0.0000 H   0  0  0  0  0  0  0  0  0  0  0  0
    6.7287  -12.2748    0.0000 H   0  0  0  0  0  0  0  0  0  0  0  0
    5.9316  -12.2748    0.0000 H   0  0  0  0  0  0  0  0  0  0  0  0
   12.6858   16.2247    0.0000 H   0  0  0  0  0  0  0  0  0  0  0  0
   11.8887   16.2247    0.0000 H   0  0  0  0  0  0  0  0  0  0  0  0
   13.3653   13.6671    0.0000 H   0  0  0  0  0  0  0  0  0  0  0  0
   13.7639   14.3574    0.0000 H   0  0  0  0  0  0  0  0  0  0  0  0
    5.9316  -15.2247    0.0000 H   0  0  0  0  0  0  0  0  0  0  0  0
    6.7287  -15.2247    0.0000 H   0  0  0  0  0  0  0  0  0  0  0  0
    7.8067  -13.3574    0.0000 H   0  0  0  0  0  0  0  0  0  0  0  0
    7.4082  -12.6671    0.0000 H   0  0  0  0  0  0  0  0  0  0  0  0
   10.3432   14.3324    0.0000 H   0  0  0  0  0  0  0  0  0  0  0  0
    9.9446   13.6421    0.0000 H   0  0  0  0  0  0  0  0  0  0  0  0
    3.9875  -12.6421    0.0000 H   0  0  0  0  0  0  0  0  0  0  0  0
    4.3860  -13.3324    0.0000 H   0  0  0  0  0  0  0  0  0  0  0  0
   13.4824   17.0598    0.0000 H   0  0  0  0  0  0  0  0  0  0  0  0
    8.9282  -13.6298    0.0000 H   0  0  0  0  0  0  0  0  0  0  0  0
    6.9426    1.4028    0.0000 H   0  0  0  0  0  0  0  0  0  0  0  0
    6.8593    0.6101    0.0000 H   0  0  0  0  0  0  0  0  0  0  0  0
    8.2107   -0.4028    0.0000 H   0  0  0  0  0  0  0  0  0  0  0  0
    8.2940    0.3899    0.0000 H   0  0  0  0  0  0  0  0  0  0  0  0
    8.3918    1.3198    0.0000 H   0  0  0  0  0  0  0  0  0  0  0  0
    8.4751    2.1125    0.0000 H   0  0  0  0  0  0  0  0  0  0  0  0
    6.7615   -0.3198    0.0000 H   0  0  0  0  0  0  0  0  0  0  0  0
    6.6782   -1.1125    0.0000 H   0  0  0  0  0  0  0  0  0  0  0  0
    9.1522   12.5598    0.0000 H   0  0  0  0  0  0  0  0  0  0  0  0
    3.1951  -11.5598    0.0000 H   0  0  0  0  0  0  0  0  0  0  0  0
   11.9582   12.5598    0.0000 H   0  0  0  0  0  0  0  0  0  0  0  0
    6.0010  -11.5598    0.0000 H   0  0  0  0  0  0  0  0  0  0  0  0
    7.1236    3.1253    0.0000 H   0  0  0  0  0  0  0  0  0  0  0  0
    7.0403    2.3326    0.0000 H   0  0  0  0  0  0  0  0  0  0  0  0
    8.0296   -2.1253    0.0000 H   0  0  0  0  0  0  0  0  0  0  0  0
    8.1130   -1.3326    0.0000 H   0  0  0  0  0  0  0  0  0  0  0  0
    8.5728    3.0424    0.0000 H   0  0  0  0  0  0  0  0  0  0  0  0
    8.6561    3.8350    0.0000 H   0  0  0  0  0  0  0  0  0  0  0  0
    6.5805   -2.0424    0.0000 H   0  0  0  0  0  0  0  0  0  0  0  0
    6.4972   -2.8350    0.0000 H   0  0  0  0  0  0  0  0  0  0  0  0
   16.2883   15.4398    0.0000 H   0  0  0  0  0  0  0  0  0  0  0  0
    8.9282  -16.8698    0.0000 H   0  0  0  0  0  0  0  0  0  0  0  0
   14.8853   17.8698    0.0000 H   0  0  0  0  0  0  0  0  0  0  0  0
   10.3312  -14.4398    0.0000 H   0  0  0  0  0  0  0  0  0  0  0  0
   11.9582   10.9398    0.0000 H   0  0  0  0  0  0  0  0  0  0  0  0
    6.0010   -9.9398    0.0000 H   0  0  0  0  0  0  0  0  0  0  0  0
   16.2883   17.0598    0.0000 H   0  0  0  0  0  0  0  0  0  0  0  0
   10.3312  -16.0598    0.0000 H   0  0  0  0  0  0  0  0  0  0  0  0
    7.3047    4.8479    0.0000 H   0  0  0  0  0  0  0  0  0  0  0  0
    7.2214    4.0552    0.0000 H   0  0  0  0  0  0  0  0  0  0  0  0
    7.8486   -3.8479    0.0000 H   0  0  0  0  0  0  0  0  0  0  0  0
    7.9319   -3.0552    0.0000 H   0  0  0  0  0  0  0  0  0  0  0  0
    9.4771    9.8324    0.0000 H   0  0  0  0  0  0  0  0  0  0  0  0
    9.0786    9.1421    0.0000 H   0  0  0  0  0  0  0  0  0  0  0  0
    5.6762   -8.8324    0.0000 H   0  0  0  0  0  0  0  0  0  0  0  0
    6.0747   -8.1421    0.0000 H   0  0  0  0  0  0  0  0  0  0  0  0
    9.9012    7.6672    0.0000 H   0  0  0  0  0  0  0  0  0  0  0  0
   10.2998    8.3574    0.0000 H   0  0  0  0  0  0  0  0  0  0  0  0
    5.2520   -6.6672    0.0000 H   0  0  0  0  0  0  0  0  0  0  0  0
    4.8535   -7.3574    0.0000 H   0  0  0  0  0  0  0  0  0  0  0  0
    8.6111    8.3324    0.0000 H   0  0  0  0  0  0  0  0  0  0  0  0
    8.2126    7.6421    0.0000 H   0  0  0  0  0  0  0  0  0  0  0  0
    6.5422   -7.3324    0.0000 H   0  0  0  0  0  0  0  0  0  0  0  0
    6.9407   -6.6421    0.0000 H   0  0  0  0  0  0  0  0  0  0  0  0
   15.4414   13.2128    0.0000 H   0  0  0  0  0  0  0  0  0  0  0  0
   16.2883   13.4398    0.0000 H   0  0  0  0  0  0  0  0  0  0  0  0
   16.0614   14.2867    0.0000 H   0  0  0  0  0  0  0  0  0  0  0  0
    6.5762  -17.2498    0.0000 H   0  0  0  0  0  0  0  0  0  0  0  0
    7.1962  -17.8698    0.0000 H   0  0  0  0  0  0  0  0  0  0  0  0
    7.8162  -17.2498    0.0000 H   0  0  0  0  0  0  0  0  0  0  0  0
    7.4245    6.3536    0.0000 H   0  0  0  0  0  0  0  0  0  0  0  0
    7.7288   -5.3536    0.0000 H   0  0  0  0  0  0  0  0  0  0  0  0
    8.2671   11.7867    0.0000 H   0  0  0  0  0  0  0  0  0  0  0  0
    7.4202   11.5598    0.0000 H   0  0  0  0  0  0  0  0  0  0  0  0
    7.6471   10.7128    0.0000 H   0  0  0  0  0  0  0  0  0  0  0  0
    1.6900   -9.7128    0.0000 H   0  0  0  0  0  0  0  0  0  0  0  0
    1.4631  -10.5598    0.0000 H   0  0  0  0  0  0  0  0  0  0  0  0
    2.3100  -10.7867    0.0000 H   0  0  0  0  0  0  0  0  0  0  0  0
  1 31  1  0  0  0  0
  1 67  1  0  0  0  0
  2 32  1  0  0  0  0
  2 68  1  0  0  0  0
  3 55  1  0  0  0  0
  3 61  1  0  0  0  0
  4 56  1  0  0  0  0
  4 62  1  0  0  0  0
  5 51  1  0  0  0  0
  5 73  1  0  0  0  0
  6 52  1  0  0  0  0
  6 74  1  0  0  0  0
  7 17  1  0  0  0  0
  7 18  1  0  0  0  0
  7 25  1  0  0  0  0
  8 19  1  0  0  0  0
  8 20  1  0  0  0  0
  8 26  1  0  0  0  0
  9 21  1  0  0  0  0
  9 22  1  0  0  0  0
  9 27  1  0  0  0  0
 10 23  1  0  0  0  0
 10 24  1  0  0  0  0
 10 28  1  0  0  0  0
 11 13  1  0  0  0  0
 11 59  1  0  0  0  0
 11 71  1  0  0  0  0
 12 14  1  0  0  0  0
 12 60  1  0  0  0  0
 12 72  1  0  0  0  0
 13 15  2  0  0  0  0
 14 16  2  0  0  0  0
 15 69  1  0  0  0  0
 16 70  1  0  0  0  0
 17 21  1  0  0  0  0
 17 75  1  0  0  0  0
 17 76  1  0  0  0  0
 18 22  1  0  0  0  0
 18 77  1  0  0  0  0
 18 78  1  0  0  0  0
 19 23  1  0  0  0  0
 19 79  1  0  0  0  0
 19 80  1  0  0  0  0
 20 24  1  0  0  0  0
 20 81  1  0  0  0  0
 20 82  1  0  0  0  0
 21 83  1  0  0  0  0
 21 84  1  0  0  0  0
 22 85  1  0  0  0  0
 22 86  1  0  0  0  0
 23 87  1  0  0  0  0
 23 88  1  0  0  0  0
 24 89  1  0  0  0  0
 24 90  1  0  0  0  0
 25 29  1  0  0  0  0
 25 91  1  0  0  0  0
 25 92  1  0  0  0  0
 26 30  1  0  0  0  0
 26 93  1  0  0  0  0
 26 94  1  0  0  0  0
 27 31  1  0  0  0  0
 27 33  2  0  0  0  0
 28 32  1  0  0  0  0
 28 34  2  0  0  0  0
 29 39  2  0  0  0  0
 29 41  1  0  0  0  0
 30 40  2  0  0  0  0
 30 42  1  0  0  0  0
 31 45  2  0  0  0  0
 32 46  2  0  0  0  0
 33 49  1  0  0  0  0
 33 95  1  0  0  0  0
 34 50  1  0  0  0  0
 34 96  1  0  0  0  0
 35 36  1  0  0  0  0
 35 37  1  0  0  0  0
 35 97  1  0  0  0  0
 35 98  1  0  0  0  0
 36 38  1  0  0  0  0
 36 99  1  0  0  0  0
 36100  1  0  0  0  0
 37 43  1  0  0  0  0
 37101  1  0  0  0  0
 37102  1  0  0  0  0
 38 44  1  0  0  0  0
 38103  1  0  0  0  0
 38104  1  0  0  0  0
 39 51  1  0  0  0  0
 39105  1  0  0  0  0
 40 52  1  0  0  0  0
 40106  1  0  0  0  0
 41 53  2  0  0  0  0
 41107  1  0  0  0  0
 42 54  2  0  0  0  0
 42108  1  0  0  0  0
 43 47  1  0  0  0  0
 43109  1  0  0  0  0
 43110  1  0  0  0  0
 44 48  1  0  0  0  0
 44111  1  0  0  0  0
 44112  1  0  0  0  0
 45 57  1  0  0  0  0
 45117  1  0  0  0  0
 46 58  1  0  0  0  0
 46118  1  0  0  0  0
 47 59  1  0  0  0  0
 47113  1  0  0  0  0
 47114  1  0  0  0  0
 48 60  1  0  0  0  0
 48115  1  0  0  0  0
 48116  1  0  0  0  0
 49 57  2  0  0  0  0
 49119  1  0  0  0  0
 50 58  2  0  0  0  0
 50120  1  0  0  0  0
 51 55  2  0  0  0  0
 52 56  2  0  0  0  0
 53 55  1  0  0  0  0
 53121  1  0  0  0  0
 54 56  1  0  0  0  0
 54122  1  0  0  0  0
 57123  1  0  0  0  0
 58124  1  0  0  0  0
 59125  1  0  0  0  0
 59126  1  0  0  0  0
 60127  1  0  0  0  0
 60128  1  0  0  0  0
 61 63  1  0  0  0  0
 61129  1  0  0  0  0
 61130  1  0  0  0  0
 62 64  1  0  0  0  0
 62131  1  0  0  0  0
 62132  1  0  0  0  0
 63 65  1  0  0  0  0
 63133  1  0  0  0  0
 63134  1  0  0  0  0
 64 66  1  0  0  0  0
 64135  1  0  0  0  0
 64136  1  0  0  0  0
 65 69  1  0  0  0  0
 65137  1  0  0  0  0
 65138  1  0  0  0  0
 66 70  1  0  0  0  0
 66139  1  0  0  0  0
 66140  1  0  0  0  0
 67141  1  0  0  0  0
 67142  1  0  0  0  0
 67143  1  0  0  0  0
 68144  1  0  0  0  0
 68145  1  0  0  0  0
 68146  1  0  0  0  0
 69 71  2  0  0  0  0
 70 72  2  0  0  0  0
 71147  1  0  0  0  0
 72148  1  0  0  0  0
 73149  1  0  0  0  0
 73150  1  0  0  0  0
 73151  1  0  0  0  0
 74152  1  0  0  0  0
 74153  1  0  0  0  0
 74154  1  0  0  0  0
M  END
> <PUBCHEM_COMPOUND_CID>
53364154

> <PUBCHEM_COMPOUND_CANONICALIZED>
1

> <PUBCHEM_CACTVS_COMPLEXITY>
1380

> <PUBCHEM_CACTVS_HBOND_ACCEPTOR>
14

> <PUBCHEM_CACTVS_HBOND_DONOR>
0

> <PUBCHEM_CACTVS_ROTATABLE_BOND>
31

> <PUBCHEM_CACTVS_SUBSKEYS>
AAADcfB/+AAAAAAAAAAAAAAAAAAAAWLAAAA8eMGCAAAAAAAB9AAAHgAIAAAADAzhngY+xpMIBACiAzRnRACCDAQxsgAY2AA//IgPZiLEsZuXOCrkwBHa6Aew0JIOIAABAAAAUABAAAIAAACgAAAAAAAAAA==

> <PUBCHEM_IUPAC_OPENEYE_NAME>
1-[[3-methoxy-4-[3-[1-[10-[4-[3-[2-methoxy-4-[[4-(2-methoxyphenyl)piperazin-1-yl]methyl]phenoxy]propyl]triazol-1-yl]decyl]triazol-4-yl]propoxy]phenyl]methyl]-4-(2-methoxyphenyl)piperazine

> <PUBCHEM_IUPAC_CAS_NAME>
1-[[3-methoxy-4-[3-[1-[10-[4-[3-[2-methoxy-4-[[4-(2-methoxyphenyl)-1-piperazinyl]methyl]phenoxy]propyl]-1-triazolyl]decyl]-4-triazolyl]propoxy]phenyl]methyl]-4-(2-methoxyphenyl)piperazine

> <PUBCHEM_IUPAC_NAME_MARKUP>
1-[[3-methoxy-4-[3-[1-[10-[4-[3-[2-methoxy-4-[[4-(2-methoxyphenyl)piperazin-1-yl]methyl]phenoxy]propyl]triazol-1-yl]decyl]triazol-4-yl]propoxy]phenyl]methyl]-4-(2-methoxyphenyl)piperazine

> <PUBCHEM_IUPAC_NAME>
1-[[3-methoxy-4-[3-[1-[10-[4-[3-[2-methoxy-4-[[4-(2-methoxyphenyl)piperazin-1-yl]methyl]phenoxy]propyl]triazol-1-yl]decyl]triazol-4-yl]propoxy]phenyl]methyl]-4-(2-methoxyphenyl)piperazine

> <PUBCHEM_IUPAC_SYSTEMATIC_NAME>
1-[[3-methoxy-4-[3-[1-[10-[4-[3-[2-methoxy-4-[[4-(2-methoxyphenyl)piperazin-1-yl]methyl]phenoxy]propyl]-1,2,3-triazol-1-yl]decyl]-1,2,3-triazol-4-yl]propoxy]phenyl]methyl]-4-(2-methoxyphenyl)piperazine

> <PUBCHEM_IUPAC_TRADITIONAL_NAME>
1-[3-methoxy-4-[3-[1-[10-[4-[3-[2-methoxy-4-[[4-(2-methoxyphenyl)piperazino]methyl]phenoxy]propyl]triazol-1-yl]decyl]triazol-4-yl]propoxy]benzyl]-4-(2-methoxyphenyl)piperazine

> <PUBCHEM_IUPAC_INCHI>
InChI=1S/C58H80N10O6/c1-69-53-23-13-11-21-51(53)65-35-31-63(32-36-65)43-47-25-27-55(57(41-47)71-3)73-39-17-19-49-45-67(61-59-49)29-15-9-7-5-6-8-10-16-30-68-46-50(60-62-68)20-18-40-74-56-28-26-48(42-58(56)72-4)44-64-33-37-66(38-34-64)52-22-12-14-24-54(52)70-2/h11-14,21-28,41-42,45-46H,5-10,15-20,29-40,43-44H2,1-4H3

> <PUBCHEM_IUPAC_INCHIKEY>
CLZFBRKWSABTPJ-UHFFFAOYSA-N

> <PUBCHEM_XLOGP3_AA>
10

> <PUBCHEM_EXACT_MASS>
1012.62623031

> <PUBCHEM_MOLECULAR_FORMULA>
C58H80N10O6

> <PUBCHEM_MOLECULAR_WEIGHT>
1013.3

> <PUBCHEM_OPENEYE_CAN_SMILES>
COC1=CC=CC=C1N2CCN(CC2)CC3=CC(=C(C=C3)OCCCC4=CN(N=N4)CCCCCCCCCCN5C=C(N=N5)CCCOC6=C(C=C(C=C6)CN7CCN(CC7)C8=CC=CC=C8OC)OC)OC

> <PUBCHEM_OPENEYE_ISO_SMILES>
COC1=CC=CC=C1N2CCN(CC2)CC3=CC(=C(C=C3)OCCCC4=CN(N=N4)CCCCCCCCCCN5C=C(N=N5)CCCOC6=C(C=C(C=C6)CN7CCN(CC7)C8=CC=CC=C8OC)OC)OC

> <PUBCHEM_CACTVS_TPSA>
130

> <PUBCHEM_MONOISOTOPIC_WEIGHT>
1012.62623031

> <PUBCHEM_TOTAL_CHARGE>
0

> <PUBCHEM_HEAVY_ATOM_COUNT>
74

> <PUBCHEM_ATOM_DEF_STEREO_COUNT>
0

> <PUBCHEM_ATOM_UDEF_STEREO_COUNT>
0

> <PUBCHEM_BOND_DEF_STEREO_COUNT>
0

> <PUBCHEM_BOND_UDEF_STEREO_COUNT>
0

> <PUBCHEM_ISOTOPIC_ATOM_COUNT>
0

> <PUBCHEM_COMPONENT_COUNT>
1

> <PUBCHEM_CACTVS_TAUTO_COUNT>
-1

> <PUBCHEM_COORDINATE_TYPE>
1
5
255

> <PUBCHEM_BONDANNOTATIONS>
11  13  8
11  71  8
12  14  8
12  72  8
13  15  8
14  16  8
15  69  8
16  70  8
27  31  8
27  33  8
28  32  8
28  34  8
29  39  8
29  41  8
30  40  8
30  42  8
31  45  8
32  46  8
33  49  8
34  50  8
39  51  8
40  52  8
41  53  8
42  54  8
45  57  8
46  58  8
49  57  8
50  58  8
51  55  8
52  56  8
53  55  8
54  56  8
69  71  8
70  72  8

$$$$
