118710465
  -OEChem-09292322352D

 59 62  0     0  0  0  0  0  0999 V2000
   14.8959   -2.7320    0.0000 F   0  0  0  0  0  0  0  0  0  0  0  0
   16.2619   -3.0981    0.0000 F   0  0  0  0  0  0  0  0  0  0  0  0
   16.6279   -1.7320    0.0000 F   0  0  0  0  0  0  0  0  0  0  0  0
    6.7619    2.9641    0.0000 O   0  0  0  0  0  0  0  0  0  0  0  0
   10.7619   -0.5000    0.0000 N   0  0  0  0  0  0  0  0  0  0  0  0
   12.7619   -0.5000    0.0000 N   0  0  0  0  0  0  0  0  0  0  0  0
   14.2619   -1.3660    0.0000 N   0  0  0  0  0  0  0  0  0  0  0  0
    6.7619    1.2320    0.0000 N   0  0  0  0  0  0  0  0  0  0  0  0
   15.7619   -0.5000    0.0000 N   0  0  0  0  0  0  0  0  0  0  0  0
    3.7320    2.5981    0.0000 N   0  0  0  0  0  0  0  0  0  0  0  0
    4.6783    1.2933    0.0000 N   0  0  0  0  0  0  0  0  0  0  0  0
   11.2619   -1.3660    0.0000 C   0  0  0  0  0  0  0  0  0  0  0  0
   11.2619    0.3660    0.0000 C   0  0  0  0  0  0  0  0  0  0  0  0
   12.2619   -1.3660    0.0000 C   0  0  0  0  0  0  0  0  0  0  0  0
   12.2619    0.3660    0.0000 C   0  0  0  0  0  0  0  0  0  0  0  0
    9.7619   -0.5000    0.0000 C   0  0  0  0  0  0  0  0  0  0  0  0
    9.2619    0.3660    0.0000 C   0  0  0  0  0  0  0  0  0  0  0  0
    8.2619    0.3660    0.0000 C   0  0  0  0  0  0  0  0  0  0  0  0
   13.7619   -0.5000    0.0000 C   0  0  0  0  0  0  0  0  0  0  0  0
    7.7619    1.2320    0.0000 C   0  0  0  0  0  0  0  0  0  0  0  0
   14.2619    0.3660    0.0000 C   0  0  0  0  0  0  0  0  0  0  0  0
   15.2619    0.3660    0.0000 C   0  0  0  0  0  0  0  0  0  0  0  0
   15.2619   -1.3660    0.0000 C   0  0  0  0  0  0  0  0  0  0  0  0
    6.2619    2.0981    0.0000 C   0  0  0  0  0  0  0  0  0  0  0  0
   15.7619    1.2320    0.0000 C   0  0  0  0  0  0  0  0  0  0  0  0
   15.7619   -2.2320    0.0000 C   0  0  0  0  0  0  0  0  0  0  0  0
    5.2619    2.0981    0.0000 C   0  0  0  0  0  0  0  0  0  0  0  0
    4.6783    2.9028    0.0000 C   0  0  0  0  0  0  0  0  0  0  0  0
    3.7320    1.5981    0.0000 C   0  0  0  0  0  0  0  0  0  0  0  0
    2.8660    3.0981    0.0000 C   0  0  0  0  0  0  0  0  0  0  0  0
    2.8660    1.0981    0.0000 C   0  0  0  0  0  0  0  0  0  0  0  0
    2.0000    2.5981    0.0000 C   0  0  0  0  0  0  0  0  0  0  0  0
    2.0000    1.5981    0.0000 C   0  0  0  0  0  0  0  0  0  0  0  0
   10.6793   -1.5781    0.0000 H   0  0  0  0  0  0  0  0  0  0  0  0
   11.3695   -1.9766    0.0000 H   0  0  0  0  0  0  0  0  0  0  0  0
   11.3695    0.9766    0.0000 H   0  0  0  0  0  0  0  0  0  0  0  0
   10.6793    0.5781    0.0000 H   0  0  0  0  0  0  0  0  0  0  0  0
   12.1542   -1.9766    0.0000 H   0  0  0  0  0  0  0  0  0  0  0  0
   12.8445   -1.5781    0.0000 H   0  0  0  0  0  0  0  0  0  0  0  0
   12.8445    0.5781    0.0000 H   0  0  0  0  0  0  0  0  0  0  0  0
   12.1542    0.9766    0.0000 H   0  0  0  0  0  0  0  0  0  0  0  0
    9.1793   -0.7121    0.0000 H   0  0  0  0  0  0  0  0  0  0  0  0
    9.8695   -1.1106    0.0000 H   0  0  0  0  0  0  0  0  0  0  0  0
    9.8445    0.5781    0.0000 H   0  0  0  0  0  0  0  0  0  0  0  0
    9.1542    0.9766    0.0000 H   0  0  0  0  0  0  0  0  0  0  0  0
    7.6793    0.1540    0.0000 H   0  0  0  0  0  0  0  0  0  0  0  0
    8.3695   -0.2446    0.0000 H   0  0  0  0  0  0  0  0  0  0  0  0
    8.3445    1.4441    0.0000 H   0  0  0  0  0  0  0  0  0  0  0  0
    7.6542    1.8426    0.0000 H   0  0  0  0  0  0  0  0  0  0  0  0
   13.9519    0.9030    0.0000 H   0  0  0  0  0  0  0  0  0  0  0  0
    6.4519    0.6951    0.0000 H   0  0  0  0  0  0  0  0  0  0  0  0
   16.2988    0.9221    0.0000 H   0  0  0  0  0  0  0  0  0  0  0  0
   16.0719    1.7690    0.0000 H   0  0  0  0  0  0  0  0  0  0  0  0
   15.2249    1.5420    0.0000 H   0  0  0  0  0  0  0  0  0  0  0  0
    4.8709    3.4921    0.0000 H   0  0  0  0  0  0  0  0  0  0  0  0
    2.8660    3.7181    0.0000 H   0  0  0  0  0  0  0  0  0  0  0  0
    2.8660    0.4781    0.0000 H   0  0  0  0  0  0  0  0  0  0  0  0
    1.4631    2.9081    0.0000 H   0  0  0  0  0  0  0  0  0  0  0  0
    1.4631    1.2881    0.0000 H   0  0  0  0  0  0  0  0  0  0  0  0
  1 26  1  0  0  0  0
  2 26  1  0  0  0  0
  3 26  1  0  0  0  0
  4 24  2  0  0  0  0
  5 12  1  0  0  0  0
  5 13  1  0  0  0  0
  5 16  1  0  0  0  0
  6 14  1  0  0  0  0
  6 15  1  0  0  0  0
  6 19  1  0  0  0  0
  7 19  2  0  0  0  0
  7 23  1  0  0  0  0
  8 20  1  0  0  0  0
  8 24  1  0  0  0  0
  8 51  1  0  0  0  0
  9 22  1  0  0  0  0
  9 23  2  0  0  0  0
 10 28  1  0  0  0  0
 10 29  1  0  0  0  0
 10 30  1  0  0  0  0
 11 27  1  0  0  0  0
 11 29  2  0  0  0  0
 12 14  1  0  0  0  0
 12 34  1  0  0  0  0
 12 35  1  0  0  0  0
 13 15  1  0  0  0  0
 13 36  1  0  0  0  0
 13 37  1  0  0  0  0
 14 38  1  0  0  0  0
 14 39  1  0  0  0  0
 15 40  1  0  0  0  0
 15 41  1  0  0  0  0
 16 17  1  0  0  0  0
 16 42  1  0  0  0  0
 16 43  1  0  0  0  0
 17 18  1  0  0  0  0
 17 44  1  0  0  0  0
 17 45  1  0  0  0  0
 18 20  1  0  0  0  0
 18 46  1  0  0  0  0
 18 47  1  0  0  0  0
 19 21  1  0  0  0  0
 20 48  1  0  0  0  0
 20 49  1  0  0  0  0
 21 22  2  0  0  0  0
 21 50  1  0  0  0  0
 22 25  1  0  0  0  0
 23 26  1  0  0  0  0
 24 27  1  0  0  0  0
 25 52  1  0  0  0  0
 25 53  1  0  0  0  0
 25 54  1  0  0  0  0
 27 28  2  0  0  0  0
 28 55  1  0  0  0  0
 29 31  1  0  0  0  0
 30 32  2  0  0  0  0
 30 56  1  0  0  0  0
 31 33  2  0  0  0  0
 31 57  1  0  0  0  0
 32 33  1  0  0  0  0
 32 58  1  0  0  0  0
 33 59  1  0  0  0  0
M  END
> <PUBCHEM_COMPOUND_CID>
118710465

> <PUBCHEM_COMPOUND_CANONICALIZED>
1

> <PUBCHEM_CACTVS_COMPLEXITY>
644

> <PUBCHEM_CACTVS_HBOND_ACCEPTOR>
9

> <PUBCHEM_CACTVS_HBOND_DONOR>
1

> <PUBCHEM_CACTVS_ROTATABLE_BOND>
7

> <PUBCHEM_CACTVS_SUBSKEYS>
AAADceB7oYAAAAAAAAAAAAAAAAAAAWAAAAAsWLAAAAAAAFgB+AAAHwAQAAAACAjBlxQ/sJ/MGACoATd3dACCgC03EqAJ2KG4dNiIaOrA2fGUJIholgLIyOYQAAAAAAAAAAAAAAAAAAAAAAAAAAAAAAAAAA==

> <PUBCHEM_IUPAC_OPENEYE_NAME>
N-[4-[4-[6-methyl-2-(trifluoromethyl)pyrimidin-4-yl]piperazin-1-yl]butyl]imidazo[1,2-a]pyridine-2-carboxamide

> <PUBCHEM_IUPAC_CAS_NAME>
N-[4-[4-[6-methyl-2-(trifluoromethyl)-4-pyrimidinyl]-1-piperazinyl]butyl]-2-imidazo[1,2-a]pyridinecarboxamide

> <PUBCHEM_IUPAC_NAME_MARKUP>
<I>N</I>-[4-[4-[6-methyl-2-(trifluoromethyl)pyrimidin-4-yl]piperazin-1-yl]butyl]imidazo[1,2-a]pyridine-2-carboxamide

> <PUBCHEM_IUPAC_NAME>
N-[4-[4-[6-methyl-2-(trifluoromethyl)pyrimidin-4-yl]piperazin-1-yl]butyl]imidazo[1,2-a]pyridine-2-carboxamide

> <PUBCHEM_IUPAC_SYSTEMATIC_NAME>
N-[4-[4-[6-methyl-2-(trifluoromethyl)pyrimidin-4-yl]piperazin-1-yl]butyl]imidazo[1,2-a]pyridine-2-carboxamide

> <PUBCHEM_IUPAC_TRADITIONAL_NAME>
N-[4-[4-[6-methyl-2-(trifluoromethyl)pyrimidin-4-yl]piperazino]butyl]imidazo[1,2-a]pyridine-2-carboxamide

> <PUBCHEM_IUPAC_INCHI>
InChI=1S/C22H26F3N7O/c1-16-14-19(29-21(27-16)22(23,24)25)31-12-10-30(11-13-31)8-5-3-7-26-20(33)17-15-32-9-4-2-6-18(32)28-17/h2,4,6,9,14-15H,3,5,7-8,10-13H2,1H3,(H,26,33)

> <PUBCHEM_IUPAC_INCHIKEY>
BHMLBWLDIQFCIS-UHFFFAOYSA-N

> <PUBCHEM_XLOGP3_AA>
3.7

> <PUBCHEM_EXACT_MASS>
461.21509296

> <PUBCHEM_MOLECULAR_FORMULA>
C22H26F3N7O

> <PUBCHEM_MOLECULAR_WEIGHT>
461.5

> <PUBCHEM_OPENEYE_CAN_SMILES>
CC1=CC(=NC(=N1)C(F)(F)F)N2CCN(CC2)CCCCNC(=O)C3=CN4C=CC=CC4=N3

> <PUBCHEM_OPENEYE_ISO_SMILES>
CC1=CC(=NC(=N1)C(F)(F)F)N2CCN(CC2)CCCCNC(=O)C3=CN4C=CC=CC4=N3

> <PUBCHEM_CACTVS_TPSA>
78.7

> <PUBCHEM_MONOISOTOPIC_WEIGHT>
461.21509296

> <PUBCHEM_TOTAL_CHARGE>
0

> <PUBCHEM_HEAVY_ATOM_COUNT>
33

> <PUBCHEM_ATOM_DEF_STEREO_COUNT>
0

> <PUBCHEM_ATOM_UDEF_STEREO_COUNT>
0

> <PUBCHEM_BOND_DEF_STEREO_COUNT>
0

> <PUBCHEM_BOND_UDEF_STEREO_COUNT>
0

> <PUBCHEM_ISOTOPIC_ATOM_COUNT>
0

> <PUBCHEM_COMPONENT_COUNT>
1

> <PUBCHEM_CACTVS_TAUTO_COUNT>
-1

> <PUBCHEM_COORDINATE_TYPE>
1
5
255

> <PUBCHEM_BONDANNOTATIONS>
10  28  8
10  29  8
10  30  8
11  27  8
11  29  8
19  21  8
21  22  8
27  28  8
29  31  8
30  32  8
31  33  8
32  33  8
7  19  8
7  23  8
9  22  8
9  23  8

$$$$
