137637817
  -OEChem-09292322392D

 69 73  0     1  0  0  0  0  0999 V2000
    7.0704    1.2728    0.0000 S   0  0  0  0  0  0  0  0  0  0  0  0
   13.4002   -2.9483    0.0000 O   0  0  0  0  0  0  0  0  0  0  0  0
   13.6093   -0.9593    0.0000 N   0  0  3  0  0  0  0  0  0  0  0  0
   10.0704   -0.4593    0.0000 N   0  0  0  0  0  0  0  0  0  0  0  0
    5.4826    2.0818    0.0000 N   0  0  0  0  0  0  0  0  0  0  0  0
    5.4826    0.4637    0.0000 N   0  0  0  0  0  0  0  0  0  0  0  0
    4.5316    0.7728    0.0000 N   0  0  0  0  0  0  0  0  0  0  0  0
   12.0704   -0.4593    0.0000 C   0  0  0  0  0  0  0  0  0  0  0  0
   12.6582    0.3497    0.0000 C   0  0  0  0  0  0  0  0  0  0  0  0
   12.6582   -1.2683    0.0000 C   0  0  0  0  0  0  0  0  0  0  0  0
   11.5704   -1.3253    0.0000 C   0  0  0  0  0  0  0  0  0  0  0  0
   11.5704    0.4067    0.0000 C   0  0  0  0  0  0  0  0  0  0  0  0
   13.6093    0.0407    0.0000 C   0  0  0  0  0  0  0  0  0  0  0  0
   10.5704   -1.3253    0.0000 C   0  0  0  0  0  0  0  0  0  0  0  0
   10.5704    0.4067    0.0000 C   0  0  0  0  0  0  0  0  0  0  0  0
    9.0704   -0.4593    0.0000 C   0  0  0  0  0  0  0  0  0  0  0  0
   14.4183   -1.5471    0.0000 C   0  0  0  0  0  0  0  0  0  0  0  0
    8.5704    0.4067    0.0000 C   0  0  0  0  0  0  0  0  0  0  0  0
   14.3138   -2.5416    0.0000 C   0  0  0  0  0  0  0  0  0  0  0  0
   15.3318   -1.1403    0.0000 C   0  0  0  0  0  0  0  0  0  0  0  0
    7.5704    0.4067    0.0000 C   0  0  0  0  0  0  0  0  0  0  0  0
   15.1228   -3.1294    0.0000 C   0  0  0  0  0  0  0  0  0  0  0  0
   16.1408   -1.7281    0.0000 C   0  0  0  0  0  0  0  0  0  0  0  0
   16.0363   -2.7226    0.0000 C   0  0  0  0  0  0  0  0  0  0  0  0
   13.2957   -3.9428    0.0000 C   0  0  0  0  0  0  0  0  0  0  0  0
    6.0704    1.2728    0.0000 C   0  0  0  0  0  0  0  0  0  0  0  0
    4.5316    1.7728    0.0000 C   0  0  0  0  0  0  0  0  0  0  0  0
    5.7916    3.0328    0.0000 C   0  0  0  0  0  0  0  0  0  0  0  0
    3.7226    2.3606    0.0000 C   0  0  0  0  0  0  0  0  0  0  0  0
    2.8090    1.9538    0.0000 C   0  0  0  0  0  0  0  0  0  0  0  0
    3.8271    3.3551    0.0000 C   0  0  0  0  0  0  0  0  0  0  0  0
    2.0000    2.5416    0.0000 C   0  0  0  0  0  0  0  0  0  0  0  0
    3.0181    3.9428    0.0000 C   0  0  0  0  0  0  0  0  0  0  0  0
    2.1045    3.5361    0.0000 C   0  0  0  0  0  0  0  0  0  0  0  0
   12.9104    0.9161    0.0000 H   0  0  0  0  0  0  0  0  0  0  0  0
   12.1213    0.6597    0.0000 H   0  0  0  0  0  0  0  0  0  0  0  0
   12.1213   -1.5783    0.0000 H   0  0  0  0  0  0  0  0  0  0  0  0
   12.9104   -1.8347    0.0000 H   0  0  0  0  0  0  0  0  0  0  0  0
   11.4628   -1.9359    0.0000 H   0  0  0  0  0  0  0  0  0  0  0  0
   12.1530   -1.5374    0.0000 H   0  0  0  0  0  0  0  0  0  0  0  0
   12.1530    0.6188    0.0000 H   0  0  0  0  0  0  0  0  0  0  0  0
   11.4628    1.0173    0.0000 H   0  0  0  0  0  0  0  0  0  0  0  0
   14.2259   -0.0241    0.0000 H   0  0  0  0  0  0  0  0  0  0  0  0
   13.7382    0.6472    0.0000 H   0  0  0  0  0  0  0  0  0  0  0  0
    9.9878   -1.5374    0.0000 H   0  0  0  0  0  0  0  0  0  0  0  0
   10.6781   -1.9359    0.0000 H   0  0  0  0  0  0  0  0  0  0  0  0
   10.6781    1.0173    0.0000 H   0  0  0  0  0  0  0  0  0  0  0  0
    9.9878    0.6188    0.0000 H   0  0  0  0  0  0  0  0  0  0  0  0
    8.4878   -0.6713    0.0000 H   0  0  0  0  0  0  0  0  0  0  0  0
    9.1781   -1.0699    0.0000 H   0  0  0  0  0  0  0  0  0  0  0  0
    9.1530    0.6188    0.0000 H   0  0  0  0  0  0  0  0  0  0  0  0
    8.4628    1.0173    0.0000 H   0  0  0  0  0  0  0  0  0  0  0  0
   15.3966   -0.5237    0.0000 H   0  0  0  0  0  0  0  0  0  0  0  0
    6.9878    0.1947    0.0000 H   0  0  0  0  0  0  0  0  0  0  0  0
    7.6781   -0.2038    0.0000 H   0  0  0  0  0  0  0  0  0  0  0  0
   15.0580   -3.7460    0.0000 H   0  0  0  0  0  0  0  0  0  0  0  0
   16.7072   -1.4760    0.0000 H   0  0  0  0  0  0  0  0  0  0  0  0
   16.5379   -3.0871    0.0000 H   0  0  0  0  0  0  0  0  0  0  0  0
   12.6791   -3.8780    0.0000 H   0  0  0  0  0  0  0  0  0  0  0  0
   13.2309   -4.5595    0.0000 H   0  0  0  0  0  0  0  0  0  0  0  0
   13.9123   -4.0077    0.0000 H   0  0  0  0  0  0  0  0  0  0  0  0
    6.3813    2.8412    0.0000 H   0  0  0  0  0  0  0  0  0  0  0  0
    5.9832    3.6225    0.0000 H   0  0  0  0  0  0  0  0  0  0  0  0
    5.2020    3.2244    0.0000 H   0  0  0  0  0  0  0  0  0  0  0  0
    2.7442    1.3372    0.0000 H   0  0  0  0  0  0  0  0  0  0  0  0
    4.3935    3.6072    0.0000 H   0  0  0  0  0  0  0  0  0  0  0  0
    1.4336    2.2894    0.0000 H   0  0  0  0  0  0  0  0  0  0  0  0
    3.0829    4.5595    0.0000 H   0  0  0  0  0  0  0  0  0  0  0  0
    1.6029    3.9005    0.0000 H   0  0  0  0  0  0  0  0  0  0  0  0
  1 21  1  0  0  0  0
  1 26  1  0  0  0  0
  2 19  1  0  0  0  0
  2 25  1  0  0  0  0
  3 10  1  0  0  0  0
  3 13  1  0  0  0  0
  3 17  1  0  0  0  0
  4 14  1  0  0  0  0
  4 15  1  0  0  0  0
  4 16  1  0  0  0  0
  5 26  1  0  0  0  0
  5 27  1  0  0  0  0
  5 28  1  0  0  0  0
  6  7  1  0  0  0  0
  6 26  2  0  0  0  0
  7 27  2  0  0  0  0
  8  9  1  0  0  0  0
  8 10  1  0  0  0  0
  8 11  1  0  0  0  0
  8 12  1  0  0  0  0
  9 13  1  0  0  0  0
  9 35  1  0  0  0  0
  9 36  1  0  0  0  0
 10 37  1  0  0  0  0
 10 38  1  0  0  0  0
 11 14  1  0  0  0  0
 11 39  1  0  0  0  0
 11 40  1  0  0  0  0
 12 15  1  0  0  0  0
 12 41  1  0  0  0  0
 12 42  1  0  0  0  0
 13 43  1  0  0  0  0
 13 44  1  0  0  0  0
 14 45  1  0  0  0  0
 14 46  1  0  0  0  0
 15 47  1  0  0  0  0
 15 48  1  0  0  0  0
 16 18  1  0  0  0  0
 16 49  1  0  0  0  0
 16 50  1  0  0  0  0
 17 19  1  0  0  0  0
 17 20  2  0  0  0  0
 18 21  1  0  0  0  0
 18 51  1  0  0  0  0
 18 52  1  0  0  0  0
 19 22  2  0  0  0  0
 20 23  1  0  0  0  0
 20 53  1  0  0  0  0
 21 54  1  0  0  0  0
 21 55  1  0  0  0  0
 22 24  1  0  0  0  0
 22 56  1  0  0  0  0
 23 24  2  0  0  0  0
 23 57  1  0  0  0  0
 24 58  1  0  0  0  0
 25 59  1  0  0  0  0
 25 60  1  0  0  0  0
 25 61  1  0  0  0  0
 27 29  1  0  0  0  0
 28 62  1  0  0  0  0
 28 63  1  0  0  0  0
 28 64  1  0  0  0  0
 29 30  2  0  0  0  0
 29 31  1  0  0  0  0
 30 32  1  0  0  0  0
 30 65  1  0  0  0  0
 31 33  2  0  0  0  0
 31 66  1  0  0  0  0
 32 34  2  0  0  0  0
 32 67  1  0  0  0  0
 33 34  1  0  0  0  0
 33 68  1  0  0  0  0
 34 69  1  0  0  0  0
M  END
> <PUBCHEM_COMPOUND_CID>
137637817

> <PUBCHEM_COMPOUND_CANONICALIZED>
1

> <PUBCHEM_CACTVS_COMPLEXITY>
624

> <PUBCHEM_CACTVS_HBOND_ACCEPTOR>
6

> <PUBCHEM_CACTVS_HBOND_DONOR>
0

> <PUBCHEM_CACTVS_ROTATABLE_BOND>
8

> <PUBCHEM_CACTVS_SUBSKEYS>
AAADcfB7oABAAAAAAAAAAAAAAAAAAWLAAAA8YIAAAAAAAAAB0AAAHgQIAAAADgzF2waz1ocMFAiiAiZiZACS2AthIrAdyCAvbJiOLqLkuZuFMChkyBPY6AeQwAAPAAAAAAAAEAAAAAAAAAAgAAAAAAAAAA==

> <PUBCHEM_IUPAC_OPENEYE_NAME>
2-(2-methoxyphenyl)-8-[3-[(4-methyl-5-phenyl-1,2,4-triazol-3-yl)sulfanyl]propyl]-2,8-diazaspiro[4.5]decane

> <PUBCHEM_IUPAC_CAS_NAME>
2-(2-methoxyphenyl)-8-[3-[(4-methyl-5-phenyl-1,2,4-triazol-3-yl)thio]propyl]-2,8-diazaspiro[4.5]decane

> <PUBCHEM_IUPAC_NAME_MARKUP>
2-(2-methoxyphenyl)-8-[3-[(4-methyl-5-phenyl-1,2,4-triazol-3-yl)sulfanyl]propyl]-2,8-diazaspiro[4.5]decane

> <PUBCHEM_IUPAC_NAME>
2-(2-methoxyphenyl)-8-[3-[(4-methyl-5-phenyl-1,2,4-triazol-3-yl)sulfanyl]propyl]-2,8-diazaspiro[4.5]decane

> <PUBCHEM_IUPAC_SYSTEMATIC_NAME>
2-(2-methoxyphenyl)-8-[3-[(4-methyl-5-phenyl-1,2,4-triazol-3-yl)sulfanyl]propyl]-2,8-diazaspiro[4.5]decane

> <PUBCHEM_IUPAC_TRADITIONAL_NAME>
2-(2-methoxyphenyl)-8-[3-[(4-methyl-5-phenyl-1,2,4-triazol-3-yl)thio]propyl]-2,8-diazaspiro[4.5]decane

> <PUBCHEM_IUPAC_INCHI>
InChI=1S/C27H35N5OS/c1-30-25(22-9-4-3-5-10-22)28-29-26(30)34-20-8-16-31-17-13-27(14-18-31)15-19-32(21-27)23-11-6-7-12-24(23)33-2/h3-7,9-12H,8,13-21H2,1-2H3

> <PUBCHEM_IUPAC_INCHIKEY>
AKUFOSYLIYVIGY-UHFFFAOYSA-N

> <PUBCHEM_XLOGP3_AA>
4.9

> <PUBCHEM_EXACT_MASS>
477.25623193

> <PUBCHEM_MOLECULAR_FORMULA>
C27H35N5OS

> <PUBCHEM_MOLECULAR_WEIGHT>
477.7

> <PUBCHEM_OPENEYE_CAN_SMILES>
CN1C(=NN=C1SCCCN2CCC3(CC2)CCN(C3)C4=CC=CC=C4OC)C5=CC=CC=C5

> <PUBCHEM_OPENEYE_ISO_SMILES>
CN1C(=NN=C1SCCCN2CCC3(CC2)CCN(C3)C4=CC=CC=C4OC)C5=CC=CC=C5

> <PUBCHEM_CACTVS_TPSA>
71.7

> <PUBCHEM_MONOISOTOPIC_WEIGHT>
477.25623193

> <PUBCHEM_TOTAL_CHARGE>
0

> <PUBCHEM_HEAVY_ATOM_COUNT>
34

> <PUBCHEM_ATOM_DEF_STEREO_COUNT>
0

> <PUBCHEM_ATOM_UDEF_STEREO_COUNT>
0

> <PUBCHEM_BOND_DEF_STEREO_COUNT>
0

> <PUBCHEM_BOND_UDEF_STEREO_COUNT>
0

> <PUBCHEM_ISOTOPIC_ATOM_COUNT>
0

> <PUBCHEM_COMPONENT_COUNT>
1

> <PUBCHEM_CACTVS_TAUTO_COUNT>
-1

> <PUBCHEM_COORDINATE_TYPE>
1
5
255

> <PUBCHEM_BONDANNOTATIONS>
17  19  8
17  20  8
19  22  8
20  23  8
22  24  8
23  24  8
29  30  8
29  31  8
30  32  8
31  33  8
32  34  8
33  34  8
5  26  8
5  27  8
6  26  8
6  7  8
7  27  8

$$$$
