44586410
  -OEChem-09292322502D

 45 46  0     0  0  0  0  0  0999 V2000
   11.1972   -1.2685    0.0000 I   0  0  0  0  0  0  0  0  0  0  0  0
    9.4651    1.7315    0.0000 O   0  0  0  0  0  0  0  0  0  0  0  0
    9.4651   -2.2685    0.0000 O   0  0  0  0  0  0  0  0  0  0  0  0
    3.4030   -0.7685    0.0000 O   0  0  0  0  0  0  0  0  0  0  0  0
    6.0010    0.7315    0.0000 N   0  0  0  0  0  0  0  0  0  0  0  0
    7.7331    0.7315    0.0000 C   0  0  0  0  0  0  0  0  0  0  0  0
    6.8671    0.2315    0.0000 C   0  0  0  0  0  0  0  0  0  0  0  0
    8.5991    0.2315    0.0000 C   0  0  0  0  0  0  0  0  0  0  0  0
    5.1350    0.2315    0.0000 C   0  0  0  0  0  0  0  0  0  0  0  0
    4.2690    0.7315    0.0000 C   0  0  0  0  0  0  0  0  0  0  0  0
    9.4651    0.7315    0.0000 C   0  0  0  0  0  0  0  0  0  0  0  0
    8.5991   -0.7685    0.0000 C   0  0  0  0  0  0  0  0  0  0  0  0
    9.4651   -1.2685    0.0000 C   0  0  0  0  0  0  0  0  0  0  0  0
    3.4030    0.2315    0.0000 C   0  0  0  0  0  0  0  0  0  0  0  0
   10.3312    0.2315    0.0000 C   0  0  0  0  0  0  0  0  0  0  0  0
    4.2690    1.7315    0.0000 C   0  0  0  0  0  0  0  0  0  0  0  0
   10.3312   -0.7685    0.0000 C   0  0  0  0  0  0  0  0  0  0  0  0
    2.5369    0.7315    0.0000 C   0  0  0  0  0  0  0  0  0  0  0  0
    3.4030    2.2315    0.0000 C   0  0  0  0  0  0  0  0  0  0  0  0
    2.5369    1.7315    0.0000 C   0  0  0  0  0  0  0  0  0  0  0  0
   10.3312    2.2315    0.0000 C   0  0  0  0  0  0  0  0  0  0  0  0
    8.5991   -2.7685    0.0000 C   0  0  0  0  0  0  0  0  0  0  0  0
    2.5369   -1.2685    0.0000 C   0  0  0  0  0  0  0  0  0  0  0  0
    8.1316    1.2065    0.0000 H   0  0  0  0  0  0  0  0  0  0  0  0
    7.3346    1.2065    0.0000 H   0  0  0  0  0  0  0  0  0  0  0  0
    6.4685   -0.2434    0.0000 H   0  0  0  0  0  0  0  0  0  0  0  0
    7.2656   -0.2434    0.0000 H   0  0  0  0  0  0  0  0  0  0  0  0
    4.7365   -0.2434    0.0000 H   0  0  0  0  0  0  0  0  0  0  0  0
    5.5335   -0.2434    0.0000 H   0  0  0  0  0  0  0  0  0  0  0  0
    6.0010    1.3515    0.0000 H   0  0  0  0  0  0  0  0  0  0  0  0
    8.0622   -1.0785    0.0000 H   0  0  0  0  0  0  0  0  0  0  0  0
   10.8681    0.5415    0.0000 H   0  0  0  0  0  0  0  0  0  0  0  0
    4.8059    2.0415    0.0000 H   0  0  0  0  0  0  0  0  0  0  0  0
    2.0000    0.4215    0.0000 H   0  0  0  0  0  0  0  0  0  0  0  0
    3.4030    2.8515    0.0000 H   0  0  0  0  0  0  0  0  0  0  0  0
    2.0000    2.0415    0.0000 H   0  0  0  0  0  0  0  0  0  0  0  0
   10.8681    2.5415    0.0000 H   2  0  0  0  0  0  0  0  0  0  0  0
   10.0212    2.7685    0.0000 H   2  0  0  0  0  0  0  0  0  0  0  0
   10.6412    1.6946    0.0000 H   2  0  0  0  0  0  0  0  0  0  0  0
    8.2891   -2.2315    0.0000 H   0  0  0  0  0  0  0  0  0  0  0  0
    8.0622   -3.0785    0.0000 H   0  0  0  0  0  0  0  0  0  0  0  0
    8.9091   -3.3054    0.0000 H   0  0  0  0  0  0  0  0  0  0  0  0
    2.0000   -1.5785    0.0000 H   2  0  0  0  0  0  0  0  0  0  0  0
    2.8469   -1.8054    0.0000 H   2  0  0  0  0  0  0  0  0  0  0  0
    2.2269   -0.7315    0.0000 H   2  0  0  0  0  0  0  0  0  0  0  0
  1 17  1  0  0  0  0
  2 11  1  0  0  0  0
  2 21  1  0  0  0  0
  3 13  1  0  0  0  0
  3 22  1  0  0  0  0
  4 14  1  0  0  0  0
  4 23  1  0  0  0  0
  5  7  1  0  0  0  0
  5  9  1  0  0  0  0
  5 30  1  0  0  0  0
  6  7  1  0  0  0  0
  6  8  1  0  0  0  0
  6 24  1  0  0  0  0
  6 25  1  0  0  0  0
  7 26  1  0  0  0  0
  7 27  1  0  0  0  0
  8 11  1  0  0  0  0
  8 12  2  0  0  0  0
  9 10  1  0  0  0  0
  9 28  1  0  0  0  0
  9 29  1  0  0  0  0
 10 14  1  0  0  0  0
 10 16  2  0  0  0  0
 11 15  2  0  0  0  0
 12 13  1  0  0  0  0
 12 31  1  0  0  0  0
 13 17  2  0  0  0  0
 14 18  2  0  0  0  0
 15 17  1  0  0  0  0
 15 32  1  0  0  0  0
 16 19  1  0  0  0  0
 16 33  1  0  0  0  0
 18 20  1  0  0  0  0
 18 34  1  0  0  0  0
 19 20  2  0  0  0  0
 19 35  1  0  0  0  0
 20 36  1  0  0  0  0
 21 37  1  0  0  0  0
 21 38  1  0  0  0  0
 21 39  1  0  0  0  0
 22 40  1  0  0  0  0
 22 41  1  0  0  0  0
 22 42  1  0  0  0  0
 23 43  1  0  0  0  0
 23 44  1  0  0  0  0
 23 45  1  0  0  0  0
M  ISO  6  37   3  38   3  39   3  43   3  44   3  45   3
M  END
> <PUBCHEM_COMPOUND_CID>
44586410

> <PUBCHEM_COMPOUND_CANONICALIZED>
1

> <PUBCHEM_CACTVS_COMPLEXITY>
331

> <PUBCHEM_CACTVS_HBOND_ACCEPTOR>
4

> <PUBCHEM_CACTVS_HBOND_DONOR>
1

> <PUBCHEM_CACTVS_ROTATABLE_BOND>
8

> <PUBCHEM_CACTVS_SUBSKEYS>
AAADceB6MAAAAgAAAAAAAAAAAAAAAAAAAAAwYAAAAAAAAAABQAAAHgAwAAAADATDmAYyBoLABACAAiBCAACCCAAgIAAIiIAODIgMJiKEsRuEMChm0BGIqAfw0LIOAQABAAAIAAACAAIAABAAAAAAAAAAAA==

> <PUBCHEM_IUPAC_OPENEYE_NAME>
2-[4-iodo-5-methoxy-2-(tritritiomethoxy)phenyl]-N-[[2-(tritritiomethoxy)phenyl]methyl]ethanamine

> <PUBCHEM_IUPAC_CAS_NAME>
2-[4-iodo-5-methoxy-2-(tritritiomethoxy)phenyl]-N-[[2-(tritritiomethoxy)phenyl]methyl]ethanamine

> <PUBCHEM_IUPAC_NAME_MARKUP>
2-[4-iodo-5-methoxy-2-(tritritiomethoxy)phenyl]-<I>N</I>-[[2-(tritritiomethoxy)phenyl]methyl]ethanamine

> <PUBCHEM_IUPAC_NAME>
2-[4-iodo-5-methoxy-2-(tritritiomethoxy)phenyl]-N-[[2-(tritritiomethoxy)phenyl]methyl]ethanamine

> <PUBCHEM_IUPAC_SYSTEMATIC_NAME>
2-[4-iodanyl-5-methoxy-2-(tritritiomethoxy)phenyl]-N-[[2-(tritritiomethoxy)phenyl]methyl]ethanamine

> <PUBCHEM_IUPAC_TRADITIONAL_NAME>
2-[4-iodo-5-methoxy-2-(tritritiomethoxy)phenyl]ethyl-[2-(tritritiomethoxy)benzyl]amine

> <PUBCHEM_IUPAC_INCHI>
InChI=1S/C18H22INO3/c1-21-16-7-5-4-6-14(16)12-20-9-8-13-10-18(23-3)15(19)11-17(13)22-2/h4-7,10-11,20H,8-9,12H2,1-3H3/i1T3,2T3

> <PUBCHEM_IUPAC_INCHIKEY>
ZFUOLNAKPBFDIJ-VQBNBCTGSA-N

> <PUBCHEM_XLOGP3_AA>
3.8

> <PUBCHEM_EXACT_MASS>
439.11379

> <PUBCHEM_MOLECULAR_FORMULA>
C18H22INO3

> <PUBCHEM_MOLECULAR_WEIGHT>
439.3

> <PUBCHEM_OPENEYE_CAN_SMILES>
COC1=CC=CC=C1CNCCC2=CC(=C(C=C2OC)I)OC

> <PUBCHEM_OPENEYE_ISO_SMILES>
[3H]C([3H])([3H])OC1=CC=CC=C1CNCCC2=CC(=C(C=C2OC([3H])([3H])[3H])I)OC

> <PUBCHEM_CACTVS_TPSA>
39.7

> <PUBCHEM_MONOISOTOPIC_WEIGHT>
439.11379

> <PUBCHEM_TOTAL_CHARGE>
0

> <PUBCHEM_HEAVY_ATOM_COUNT>
23

> <PUBCHEM_ATOM_DEF_STEREO_COUNT>
0

> <PUBCHEM_ATOM_UDEF_STEREO_COUNT>
0

> <PUBCHEM_BOND_DEF_STEREO_COUNT>
0

> <PUBCHEM_BOND_UDEF_STEREO_COUNT>
0

> <PUBCHEM_ISOTOPIC_ATOM_COUNT>
6

> <PUBCHEM_COMPONENT_COUNT>
1

> <PUBCHEM_CACTVS_TAUTO_COUNT>
-1

> <PUBCHEM_COORDINATE_TYPE>
1
5
255

> <PUBCHEM_BONDANNOTATIONS>
10  14  8
10  16  8
11  15  8
12  13  8
13  17  8
14  18  8
15  17  8
16  19  8
18  20  8
19  20  8
8  11  8
8  12  8

$$$$
