828447
  -OEChem-09292322092D

 37 39  0     0  0  0  0  0  0999 V2000
    5.8122   -2.1038    0.0000 S   0  0  0  0  0  0  0  0  0  0  0  0
    3.5000    0.5670    0.0000 N   0  0  0  0  0  0  0  0  0  0  0  0
    3.1340   -0.7990    0.0000 N   0  0  0  0  0  0  0  0  0  0  0  0
    4.0000   -2.2990    0.0000 N   0  0  0  0  0  0  0  0  0  0  0  0
    4.8660   -0.7990    0.0000 C   0  0  0  0  0  0  0  0  0  0  0  0
    4.0000   -0.2990    0.0000 C   0  0  0  0  0  0  0  0  0  0  0  0
    2.5000    0.5670    0.0000 C   0  0  0  0  0  0  0  0  0  0  0  0
    4.0000    1.4330    0.0000 C   0  0  0  0  0  0  0  0  0  0  0  0
    5.8122   -0.4943    0.0000 C   0  0  0  0  0  0  0  0  0  0  0  0
    4.8660   -1.7990    0.0000 C   0  0  0  0  0  0  0  0  0  0  0  0
    6.5566    0.1735    0.0000 C   0  0  0  0  0  0  0  0  0  0  0  0
    6.3958   -1.2990    0.0000 C   0  0  0  0  0  0  0  0  0  0  0  0
    2.0000    1.4330    0.0000 C   0  0  0  0  0  0  0  0  0  0  0  0
    3.5000    2.2990    0.0000 C   0  0  0  0  0  0  0  0  0  0  0  0
    7.5071   -0.1371    0.0000 C   0  0  0  0  0  0  0  0  0  0  0  0
    6.3503    1.1520    0.0000 C   0  0  0  0  0  0  0  0  0  0  0  0
    3.1340   -1.7990    0.0000 C   0  0  0  0  0  0  0  0  0  0  0  0
    8.2514    0.5307    0.0000 C   0  0  0  0  0  0  0  0  0  0  0  0
    7.0946    1.8199    0.0000 C   0  0  0  0  0  0  0  0  0  0  0  0
    8.0452    1.5092    0.0000 C   0  0  0  0  0  0  0  0  0  0  0  0
    1.9174    0.3549    0.0000 H   0  0  0  0  0  0  0  0  0  0  0  0
    2.6077   -0.0436    0.0000 H   0  0  0  0  0  0  0  0  0  0  0  0
    4.4750    1.0345    0.0000 H   0  0  0  0  0  0  0  0  0  0  0  0
    4.4750    1.8315    0.0000 H   0  0  0  0  0  0  0  0  0  0  0  0
    7.0158   -1.2990    0.0000 H   0  0  0  0  0  0  0  0  0  0  0  0
    2.5369    1.7430    0.0000 H   0  0  0  0  0  0  0  0  0  0  0  0
    1.6900    1.9700    0.0000 H   0  0  0  0  0  0  0  0  0  0  0  0
    1.4631    1.1230    0.0000 H   0  0  0  0  0  0  0  0  0  0  0  0
    4.0369    2.6090    0.0000 H   0  0  0  0  0  0  0  0  0  0  0  0
    3.1900    2.8360    0.0000 H   0  0  0  0  0  0  0  0  0  0  0  0
    2.9631    1.9890    0.0000 H   0  0  0  0  0  0  0  0  0  0  0  0
    7.6349   -0.7438    0.0000 H   0  0  0  0  0  0  0  0  0  0  0  0
    5.7610    1.3446    0.0000 H   0  0  0  0  0  0  0  0  0  0  0  0
    2.5970   -2.1090    0.0000 H   0  0  0  0  0  0  0  0  0  0  0  0
    8.8407    0.3381    0.0000 H   0  0  0  0  0  0  0  0  0  0  0  0
    6.9668    2.4266    0.0000 H   0  0  0  0  0  0  0  0  0  0  0  0
    8.5066    1.9233    0.0000 H   0  0  0  0  0  0  0  0  0  0  0  0
  1 10  1  0  0  0  0
  1 12  1  0  0  0  0
  2  6  1  0  0  0  0
  2  7  1  0  0  0  0
  2  8  1  0  0  0  0
  3  6  1  0  0  0  0
  3 17  2  0  0  0  0
  4 10  2  0  0  0  0
  4 17  1  0  0  0  0
  5  6  2  0  0  0  0
  5  9  1  0  0  0  0
  5 10  1  0  0  0  0
  7 13  1  0  0  0  0
  7 21  1  0  0  0  0
  7 22  1  0  0  0  0
  8 14  1  0  0  0  0
  8 23  1  0  0  0  0
  8 24  1  0  0  0  0
  9 11  1  0  0  0  0
  9 12  2  0  0  0  0
 11 15  2  0  0  0  0
 11 16  1  0  0  0  0
 12 25  1  0  0  0  0
 13 26  1  0  0  0  0
 13 27  1  0  0  0  0
 13 28  1  0  0  0  0
 14 29  1  0  0  0  0
 14 30  1  0  0  0  0
 14 31  1  0  0  0  0
 15 18  1  0  0  0  0
 15 32  1  0  0  0  0
 16 19  2  0  0  0  0
 16 33  1  0  0  0  0
 17 34  1  0  0  0  0
 18 20  2  0  0  0  0
 18 35  1  0  0  0  0
 19 20  1  0  0  0  0
 19 36  1  0  0  0  0
 20 37  1  0  0  0  0
M  END
> <PUBCHEM_COMPOUND_CID>
828447

> <PUBCHEM_COMPOUND_CANONICALIZED>
1

> <PUBCHEM_CACTVS_COMPLEXITY>
302

> <PUBCHEM_CACTVS_HBOND_ACCEPTOR>
4

> <PUBCHEM_CACTVS_HBOND_DONOR>
0

> <PUBCHEM_CACTVS_ROTATABLE_BOND>
4

> <PUBCHEM_CACTVS_SUBSKEYS>
AAADceB7AABAAAAAAAAAAAAAAAAAASAAAAA8QAAAAAAAAFgB/AAAHAQAAAAADADFWgS3sdcIEAikAiJjZACD0KlxCLgJ2DAoRJiIKCLg2dGEJAxogALoyCcQgMAOgAAAAAAAAAAAAAAAAAAAAAAAAAAAAA==

> <PUBCHEM_IUPAC_OPENEYE_NAME>
N,N-diethyl-5-phenyl-thieno[2,3-d]pyrimidin-4-amine

> <PUBCHEM_IUPAC_CAS_NAME>
N,N-diethyl-5-phenyl-4-thieno[2,3-d]pyrimidinamine

> <PUBCHEM_IUPAC_NAME_MARKUP>
<I>N</I>,<I>N</I>-diethyl-5-phenylthieno[2,3-d]pyrimidin-4-amine

> <PUBCHEM_IUPAC_NAME>
N,N-diethyl-5-phenylthieno[2,3-d]pyrimidin-4-amine

> <PUBCHEM_IUPAC_SYSTEMATIC_NAME>
N,N-diethyl-5-phenyl-thieno[2,3-d]pyrimidin-4-amine

> <PUBCHEM_IUPAC_TRADITIONAL_NAME>
diethyl-(5-phenylthieno[2,3-d]pyrimidin-4-yl)amine

> <PUBCHEM_IUPAC_INCHI>
InChI=1S/C16H17N3S/c1-3-19(4-2)15-14-13(12-8-6-5-7-9-12)10-20-16(14)18-11-17-15/h5-11H,3-4H2,1-2H3

> <PUBCHEM_IUPAC_INCHIKEY>
WZUNXPXPVJEDNR-UHFFFAOYSA-N

> <PUBCHEM_XLOGP3_AA>
4.4

> <PUBCHEM_EXACT_MASS>
283.11431873

> <PUBCHEM_MOLECULAR_FORMULA>
C16H17N3S

> <PUBCHEM_MOLECULAR_WEIGHT>
283.4

> <PUBCHEM_OPENEYE_CAN_SMILES>
CCN(CC)C1=C2C(=CSC2=NC=N1)C3=CC=CC=C3

> <PUBCHEM_OPENEYE_ISO_SMILES>
CCN(CC)C1=C2C(=CSC2=NC=N1)C3=CC=CC=C3

> <PUBCHEM_CACTVS_TPSA>
57.3

> <PUBCHEM_MONOISOTOPIC_WEIGHT>
283.11431873

> <PUBCHEM_TOTAL_CHARGE>
0

> <PUBCHEM_HEAVY_ATOM_COUNT>
20

> <PUBCHEM_ATOM_DEF_STEREO_COUNT>
0

> <PUBCHEM_ATOM_UDEF_STEREO_COUNT>
0

> <PUBCHEM_BOND_DEF_STEREO_COUNT>
0

> <PUBCHEM_BOND_UDEF_STEREO_COUNT>
0

> <PUBCHEM_ISOTOPIC_ATOM_COUNT>
0

> <PUBCHEM_COMPONENT_COUNT>
1

> <PUBCHEM_CACTVS_TAUTO_COUNT>
-1

> <PUBCHEM_COORDINATE_TYPE>
1
5
255

> <PUBCHEM_BONDANNOTATIONS>
1  10  8
1  12  8
11  15  8
11  16  8
15  18  8
16  19  8
18  20  8
19  20  8
3  17  8
3  6  8
4  10  8
4  17  8
5  10  8
5  6  8
5  9  8
9  12  8

$$$$
