9906454
  -OEChem-09292322502D

 51 54  0     1  0  0  0  0  0999 V2000
    4.9889   -5.2883    0.0000 O   0  0  0  0  0  0  0  0  0  0  0  0
    8.1421    5.0821    0.0000 O   0  0  0  0  0  0  0  0  0  0  0  0
    6.2781   -0.6210    0.0000 N   0  0  0  0  0  0  0  0  0  0  0  0
    6.8994    1.2800    0.0000 N   0  0  0  0  0  0  0  0  0  0  0  0
    5.2619   -3.5330    0.0000 N   0  0  0  0  0  0  0  0  0  0  0  0
    5.9674   -1.5716    0.0000 C   0  0  0  0  0  0  0  0  0  0  0  0
    7.2566   -0.4148    0.0000 C   0  0  0  0  0  0  0  0  0  0  0  0
    5.6103    0.1233    0.0000 C   0  0  0  0  0  0  0  0  0  0  0  0
    4.9889   -1.7778    0.0000 C   0  0  0  0  0  0  0  0  0  0  0  0
    4.6783   -2.7283    0.0000 C   0  0  3  0  0  0  0  0  0  0  0  0
    7.5673    0.5357    0.0000 C   0  0  0  0  0  0  0  0  0  0  0  0
    5.9209    1.0738    0.0000 C   0  0  0  0  0  0  0  0  0  0  0  0
    3.7320   -3.0330    0.0000 C   0  0  0  0  0  0  0  0  0  0  0  0
    3.7320   -4.0330    0.0000 C   0  0  0  0  0  0  0  0  0  0  0  0
    7.2101    2.2305    0.0000 C   0  0  0  0  0  0  0  0  0  0  0  0
    4.6783   -4.3378    0.0000 C   0  0  0  0  0  0  0  0  0  0  0  0
    2.8660   -2.5330    0.0000 C   0  0  0  0  0  0  0  0  0  0  0  0
    2.8660   -4.5330    0.0000 C   0  0  0  0  0  0  0  0  0  0  0  0
    6.5422    2.9748    0.0000 C   0  0  0  0  0  0  0  0  0  0  0  0
    8.1886    2.4367    0.0000 C   0  0  0  0  0  0  0  0  0  0  0  0
    2.0000   -3.0330    0.0000 C   0  0  0  0  0  0  0  0  0  0  0  0
    2.0000   -4.0330    0.0000 C   0  0  0  0  0  0  0  0  0  0  0  0
    6.8529    3.9253    0.0000 C   0  0  0  0  0  0  0  0  0  0  0  0
    8.4993    3.3872    0.0000 C   0  0  0  0  0  0  0  0  0  0  0  0
    7.8314    4.1316    0.0000 C   0  0  0  0  0  0  0  0  0  0  0  0
    9.1206    5.2883    0.0000 C   0  0  0  0  0  0  0  0  0  0  0  0
    5.9880   -2.1912    0.0000 H   0  0  0  0  0  0  0  0  0  0  0  0
    6.5812   -1.6589    0.0000 H   0  0  0  0  0  0  0  0  0  0  0  0
    7.2772   -1.0345    0.0000 H   0  0  0  0  0  0  0  0  0  0  0  0
    7.8704   -0.5022    0.0000 H   0  0  0  0  0  0  0  0  0  0  0  0
    5.0633    0.4153    0.0000 H   0  0  0  0  0  0  0  0  0  0  0  0
    5.2277   -0.3647    0.0000 H   0  0  0  0  0  0  0  0  0  0  0  0
    4.9684   -1.1581    0.0000 H   0  0  0  0  0  0  0  0  0  0  0  0
    4.3751   -1.6904    0.0000 H   0  0  0  0  0  0  0  0  0  0  0  0
    5.2908   -2.6321    0.0000 H   0  0  0  0  0  0  0  0  0  0  0  0
    8.1142    0.2437    0.0000 H   0  0  0  0  0  0  0  0  0  0  0  0
    7.9498    1.0236    0.0000 H   0  0  0  0  0  0  0  0  0  0  0  0
    5.9004    1.6934    0.0000 H   0  0  0  0  0  0  0  0  0  0  0  0
    5.3071    1.1611    0.0000 H   0  0  0  0  0  0  0  0  0  0  0  0
    5.8819   -3.5330    0.0000 H   0  0  0  0  0  0  0  0  0  0  0  0
    2.8660   -1.9130    0.0000 H   0  0  0  0  0  0  0  0  0  0  0  0
    2.8660   -5.1530    0.0000 H   0  0  0  0  0  0  0  0  0  0  0  0
    5.9356    2.8470    0.0000 H   0  0  0  0  0  0  0  0  0  0  0  0
    8.6027    1.9753    0.0000 H   0  0  0  0  0  0  0  0  0  0  0  0
    1.4631   -2.7230    0.0000 H   0  0  0  0  0  0  0  0  0  0  0  0
    1.4631   -4.3430    0.0000 H   0  0  0  0  0  0  0  0  0  0  0  0
    6.4388    4.3868    0.0000 H   0  0  0  0  0  0  0  0  0  0  0  0
    9.1059    3.5151    0.0000 H   0  0  0  0  0  0  0  0  0  0  0  0
    9.2484    4.6816    0.0000 H   0  0  0  0  0  0  0  0  0  0  0  0
    9.7272    5.4162    0.0000 H   0  0  0  0  0  0  0  0  0  0  0  0
    8.9927    5.8950    0.0000 H   0  0  0  0  0  0  0  0  0  0  0  0
  1 16  2  0  0  0  0
  2 25  1  0  0  0  0
  2 26  1  0  0  0  0
  3  6  1  0  0  0  0
  3  7  1  0  0  0  0
  3  8  1  0  0  0  0
  4 11  1  0  0  0  0
  4 12  1  0  0  0  0
  4 15  1  0  0  0  0
  5 10  1  0  0  0  0
  5 16  1  0  0  0  0
  5 40  1  0  0  0  0
  6  9  1  0  0  0  0
  6 27  1  0  0  0  0
  6 28  1  0  0  0  0
  7 11  1  0  0  0  0
  7 29  1  0  0  0  0
  7 30  1  0  0  0  0
  8 12  1  0  0  0  0
  8 31  1  0  0  0  0
  8 32  1  0  0  0  0
  9 10  1  0  0  0  0
  9 33  1  0  0  0  0
  9 34  1  0  0  0  0
 10 13  1  0  0  0  0
 10 35  1  0  0  0  0
 11 36  1  0  0  0  0
 11 37  1  0  0  0  0
 12 38  1  0  0  0  0
 12 39  1  0  0  0  0
 13 14  1  0  0  0  0
 13 17  2  0  0  0  0
 14 16  1  0  0  0  0
 14 18  2  0  0  0  0
 15 19  2  0  0  0  0
 15 20  1  0  0  0  0
 17 21  1  0  0  0  0
 17 41  1  0  0  0  0
 18 22  1  0  0  0  0
 18 42  1  0  0  0  0
 19 23  1  0  0  0  0
 19 43  1  0  0  0  0
 20 24  2  0  0  0  0
 20 44  1  0  0  0  0
 21 22  2  0  0  0  0
 21 45  1  0  0  0  0
 22 46  1  0  0  0  0
 23 25  2  0  0  0  0
 23 47  1  0  0  0  0
 24 25  1  0  0  0  0
 24 48  1  0  0  0  0
 26 49  1  0  0  0  0
 26 50  1  0  0  0  0
 26 51  1  0  0  0  0
M  END
> <PUBCHEM_COMPOUND_CID>
9906454

> <PUBCHEM_COMPOUND_CANONICALIZED>
1

> <PUBCHEM_CACTVS_COMPLEXITY>
470

> <PUBCHEM_CACTVS_HBOND_ACCEPTOR>
4

> <PUBCHEM_CACTVS_HBOND_DONOR>
1

> <PUBCHEM_CACTVS_ROTATABLE_BOND>
5

> <PUBCHEM_CACTVS_SUBSKEYS>
AAADceB7MAAAAAAAAAAAAAAAAAAAAWAAAAA8YIAAAAAAAFgBQAAAHgAQAAAADCzBmAYyxoPABACIAiVSUACCCAAlIgAIiIEObMgMZjLE9ZuUMShk1hHI6Ye8yICOgEAAAAAQAAAAgAAAACAAAAAAAAAAAA==

> <PUBCHEM_IUPAC_OPENEYE_NAME>
3-[2-[4-(4-methoxyphenyl)piperazin-1-yl]ethyl]isoindolin-1-one

> <PUBCHEM_IUPAC_CAS_NAME>
3-[2-[4-(4-methoxyphenyl)-1-piperazinyl]ethyl]-2,3-dihydroisoindol-1-one

> <PUBCHEM_IUPAC_NAME_MARKUP>
3-[2-[4-(4-methoxyphenyl)piperazin-1-yl]ethyl]-2,3-dihydroisoindol-1-one

> <PUBCHEM_IUPAC_NAME>
3-[2-[4-(4-methoxyphenyl)piperazin-1-yl]ethyl]-2,3-dihydroisoindol-1-one

> <PUBCHEM_IUPAC_SYSTEMATIC_NAME>
3-[2-[4-(4-methoxyphenyl)piperazin-1-yl]ethyl]-2,3-dihydroisoindol-1-one

> <PUBCHEM_IUPAC_TRADITIONAL_NAME>
3-[2-[4-(4-methoxyphenyl)piperazino]ethyl]isoindolin-1-one

> <PUBCHEM_IUPAC_INCHI>
InChI=1S/C21H25N3O2/c1-26-17-8-6-16(7-9-17)24-14-12-23(13-15-24)11-10-20-18-4-2-3-5-19(18)21(25)22-20/h2-9,20H,10-15H2,1H3,(H,22,25)

> <PUBCHEM_IUPAC_INCHIKEY>
WHYWZOSKHMUDHU-UHFFFAOYSA-N

> <PUBCHEM_XLOGP3_AA>
2.8

> <PUBCHEM_EXACT_MASS>
351.19467705

> <PUBCHEM_MOLECULAR_FORMULA>
C21H25N3O2

> <PUBCHEM_MOLECULAR_WEIGHT>
351.4

> <PUBCHEM_OPENEYE_CAN_SMILES>
COC1=CC=C(C=C1)N2CCN(CC2)CCC3C4=CC=CC=C4C(=O)N3

> <PUBCHEM_OPENEYE_ISO_SMILES>
COC1=CC=C(C=C1)N2CCN(CC2)CCC3C4=CC=CC=C4C(=O)N3

> <PUBCHEM_CACTVS_TPSA>
44.8

> <PUBCHEM_MONOISOTOPIC_WEIGHT>
351.19467705

> <PUBCHEM_TOTAL_CHARGE>
0

> <PUBCHEM_HEAVY_ATOM_COUNT>
26

> <PUBCHEM_ATOM_DEF_STEREO_COUNT>
0

> <PUBCHEM_ATOM_UDEF_STEREO_COUNT>
1

> <PUBCHEM_BOND_DEF_STEREO_COUNT>
0

> <PUBCHEM_BOND_UDEF_STEREO_COUNT>
0

> <PUBCHEM_ISOTOPIC_ATOM_COUNT>
0

> <PUBCHEM_COMPONENT_COUNT>
1

> <PUBCHEM_CACTVS_TAUTO_COUNT>
-1

> <PUBCHEM_COORDINATE_TYPE>
1
5
255

> <PUBCHEM_BONDANNOTATIONS>
13  14  8
13  17  8
14  18  8
15  19  8
15  20  8
17  21  8
18  22  8
19  23  8
20  24  8
21  22  8
23  25  8
24  25  8
10  9  3

$$$$
