44431614
  -OEChem-09292322242D

 72 76  0     0  0  0  0  0  0999 V2000
    6.3301   -4.5000    0.0000 Cl  0  0  0  0  0  0  0  0  0  0  0  0
    4.5981   -1.5000    0.0000 S   0  0  0  0  0  0  0  0  0  0  0  0
   11.5263    1.5000    0.0000 O   0  0  0  0  0  0  0  0  0  0  0  0
    5.5981   -1.5000    0.0000 O   0  0  0  0  0  0  0  0  0  0  0  0
    3.5981   -1.5000    0.0000 O   0  0  0  0  0  0  0  0  0  0  0  0
    2.8660   -2.5000    0.0000 O   0  0  0  0  0  0  0  0  0  0  0  0
    8.0622    1.5000    0.0000 N   0  0  0  0  0  0  0  0  0  0  0  0
    9.7942    2.5000    0.0000 N   0  0  0  0  0  0  0  0  0  0  0  0
    4.5981   -0.5000    0.0000 N   0  0  0  0  0  0  0  0  0  0  0  0
    7.1962    1.0000    0.0000 C   0  0  0  0  0  0  0  0  0  0  0  0
    7.1962    0.0000    0.0000 C   0  0  0  0  0  0  0  0  0  0  0  0
    6.3301    1.5000    0.0000 C   0  0  0  0  0  0  0  0  0  0  0  0
    5.4641    0.0000    0.0000 C   0  0  0  0  0  0  0  0  0  0  0  0
    6.3301   -0.5000    0.0000 C   0  0  0  0  0  0  0  0  0  0  0  0
    5.4641    1.0000    0.0000 C   0  0  0  0  0  0  0  0  0  0  0  0
   12.3923   -0.0000    0.0000 C   0  0  0  0  0  0  0  0  0  0  0  0
    8.9282    1.0000    0.0000 C   0  0  0  0  0  0  0  0  0  0  0  0
    8.0622    2.5000    0.0000 C   0  0  0  0  0  0  0  0  0  0  0  0
   11.8923   -0.8660    0.0000 C   0  0  0  0  0  0  0  0  0  0  0  0
   12.8923   -0.8660    0.0000 C   0  0  0  0  0  0  0  0  0  0  0  0
    9.7942    1.5000    0.0000 C   0  0  0  0  0  0  0  0  0  0  0  0
    8.9282    3.0000    0.0000 C   0  0  0  0  0  0  0  0  0  0  0  0
   12.3923    1.0000    0.0000 C   0  0  0  0  0  0  0  0  0  0  0  0
   10.6603    3.0000    0.0000 C   0  0  0  0  0  0  0  0  0  0  0  0
   11.5263    2.5000    0.0000 C   0  0  0  0  0  0  0  0  0  0  0  0
   10.6603    4.0000    0.0000 C   0  0  0  0  0  0  0  0  0  0  0  0
    4.5981   -2.5000    0.0000 C   0  0  0  0  0  0  0  0  0  0  0  0
   12.3923    3.0000    0.0000 C   0  0  0  0  0  0  0  0  0  0  0  0
   11.5263    4.5000    0.0000 C   0  0  0  0  0  0  0  0  0  0  0  0
   12.3923    4.0000    0.0000 C   0  0  0  0  0  0  0  0  0  0  0  0
    3.7320   -3.0000    0.0000 C   0  0  0  0  0  0  0  0  0  0  0  0
    5.4641   -3.0000    0.0000 C   0  0  0  0  0  0  0  0  0  0  0  0
    3.7320   -4.0000    0.0000 C   0  0  0  0  0  0  0  0  0  0  0  0
    5.4641   -4.0000    0.0000 C   0  0  0  0  0  0  0  0  0  0  0  0
    4.5981   -4.5000    0.0000 C   0  0  0  0  0  0  0  0  0  0  0  0
    2.0000   -3.0000    0.0000 C   0  0  0  0  0  0  0  0  0  0  0  0
    7.7331    0.6900    0.0000 H   0  0  0  0  0  0  0  0  0  0  0  0
    7.4082   -0.5826    0.0000 H   0  0  0  0  0  0  0  0  0  0  0  0
    7.8067    0.1077    0.0000 H   0  0  0  0  0  0  0  0  0  0  0  0
    6.7287    1.9750    0.0000 H   0  0  0  0  0  0  0  0  0  0  0  0
    5.9316    1.9750    0.0000 H   0  0  0  0  0  0  0  0  0  0  0  0
    5.4641   -0.6200    0.0000 H   0  0  0  0  0  0  0  0  0  0  0  0
    5.9316   -0.9749    0.0000 H   0  0  0  0  0  0  0  0  0  0  0  0
    6.7287   -0.9749    0.0000 H   0  0  0  0  0  0  0  0  0  0  0  0
    5.2520    1.5826    0.0000 H   0  0  0  0  0  0  0  0  0  0  0  0
    4.8535    0.8923    0.0000 H   0  0  0  0  0  0  0  0  0  0  0  0
   12.9912    0.1605    0.0000 H   0  0  0  0  0  0  0  0  0  0  0  0
    8.5297    0.5251    0.0000 H   0  0  0  0  0  0  0  0  0  0  0  0
    9.3267    0.5251    0.0000 H   0  0  0  0  0  0  0  0  0  0  0  0
    7.8501    3.0826    0.0000 H   0  0  0  0  0  0  0  0  0  0  0  0
    7.4516    2.3923    0.0000 H   0  0  0  0  0  0  0  0  0  0  0  0
   11.3097   -0.6540    0.0000 H   0  0  0  0  0  0  0  0  0  0  0  0
   11.7846   -1.4766    0.0000 H   0  0  0  0  0  0  0  0  0  0  0  0
   13.0000   -1.4766    0.0000 H   0  0  0  0  0  0  0  0  0  0  0  0
   13.4749   -0.6540    0.0000 H   0  0  0  0  0  0  0  0  0  0  0  0
   10.0063    0.9174    0.0000 H   0  0  0  0  0  0  0  0  0  0  0  0
   10.4048    1.6077    0.0000 H   0  0  0  0  0  0  0  0  0  0  0  0
    9.3267    3.4750    0.0000 H   0  0  0  0  0  0  0  0  0  0  0  0
    8.5297    3.4750    0.0000 H   0  0  0  0  0  0  0  0  0  0  0  0
    4.0611   -0.1900    0.0000 H   0  0  0  0  0  0  0  0  0  0  0  0
   13.0029    0.8923    0.0000 H   0  0  0  0  0  0  0  0  0  0  0  0
   12.6044    1.5826    0.0000 H   0  0  0  0  0  0  0  0  0  0  0  0
   10.1233    4.3100    0.0000 H   0  0  0  0  0  0  0  0  0  0  0  0
   12.9292    2.6900    0.0000 H   0  0  0  0  0  0  0  0  0  0  0  0
   11.5263    5.1200    0.0000 H   0  0  0  0  0  0  0  0  0  0  0  0
   12.9292    4.3100    0.0000 H   0  0  0  0  0  0  0  0  0  0  0  0
    6.0010   -2.6900    0.0000 H   0  0  0  0  0  0  0  0  0  0  0  0
    3.1951   -4.3100    0.0000 H   0  0  0  0  0  0  0  0  0  0  0  0
    4.5981   -5.1200    0.0000 H   0  0  0  0  0  0  0  0  0  0  0  0
    1.6900   -2.4631    0.0000 H   0  0  0  0  0  0  0  0  0  0  0  0
    1.4631   -3.3100    0.0000 H   0  0  0  0  0  0  0  0  0  0  0  0
    2.3100   -3.5369    0.0000 H   0  0  0  0  0  0  0  0  0  0  0  0
  1 34  1  0  0  0  0
  2  4  2  0  0  0  0
  2  5  2  0  0  0  0
  2  9  1  0  0  0  0
  2 27  1  0  0  0  0
  3 23  1  0  0  0  0
  3 25  1  0  0  0  0
  6 31  1  0  0  0  0
  6 36  1  0  0  0  0
  7 10  1  0  0  0  0
  7 17  1  0  0  0  0
  7 18  1  0  0  0  0
  8 21  1  0  0  0  0
  8 22  1  0  0  0  0
  8 24  1  0  0  0  0
  9 13  1  0  0  0  0
  9 60  1  0  0  0  0
 10 11  1  0  0  0  0
 10 12  1  0  0  0  0
 10 37  1  0  0  0  0
 11 14  1  0  0  0  0
 11 38  1  0  0  0  0
 11 39  1  0  0  0  0
 12 15  1  0  0  0  0
 12 40  1  0  0  0  0
 12 41  1  0  0  0  0
 13 14  1  0  0  0  0
 13 15  1  0  0  0  0
 13 42  1  0  0  0  0
 14 43  1  0  0  0  0
 14 44  1  0  0  0  0
 15 45  1  0  0  0  0
 15 46  1  0  0  0  0
 16 19  1  0  0  0  0
 16 20  1  0  0  0  0
 16 23  1  0  0  0  0
 16 47  1  0  0  0  0
 17 21  1  0  0  0  0
 17 48  1  0  0  0  0
 17 49  1  0  0  0  0
 18 22  1  0  0  0  0
 18 50  1  0  0  0  0
 18 51  1  0  0  0  0
 19 20  1  0  0  0  0
 19 52  1  0  0  0  0
 19 53  1  0  0  0  0
 20 54  1  0  0  0  0
 20 55  1  0  0  0  0
 21 56  1  0  0  0  0
 21 57  1  0  0  0  0
 22 58  1  0  0  0  0
 22 59  1  0  0  0  0
 23 61  1  0  0  0  0
 23 62  1  0  0  0  0
 24 25  1  0  0  0  0
 24 26  2  0  0  0  0
 25 28  2  0  0  0  0
 26 29  1  0  0  0  0
 26 63  1  0  0  0  0
 27 31  2  0  0  0  0
 27 32  1  0  0  0  0
 28 30  1  0  0  0  0
 28 64  1  0  0  0  0
 29 30  2  0  0  0  0
 29 65  1  0  0  0  0
 30 66  1  0  0  0  0
 31 33  1  0  0  0  0
 32 34  2  0  0  0  0
 32 67  1  0  0  0  0
 33 35  2  0  0  0  0
 33 68  1  0  0  0  0
 34 35  1  0  0  0  0
 35 69  1  0  0  0  0
 36 70  1  0  0  0  0
 36 71  1  0  0  0  0
 36 72  1  0  0  0  0
M  END
> <PUBCHEM_COMPOUND_CID>
44431614

> <PUBCHEM_COMPOUND_CANONICALIZED>
1

> <PUBCHEM_CACTVS_COMPLEXITY>
791

> <PUBCHEM_CACTVS_HBOND_ACCEPTOR>
7

> <PUBCHEM_CACTVS_HBOND_DONOR>
1

> <PUBCHEM_CACTVS_ROTATABLE_BOND>
9

> <PUBCHEM_CACTVS_SUBSKEYS>
AAADcfB7OABEAAAAAAAAAAAAGAAAAAAAAAA8YMEAAAAAAAABQAAAHgYQQAAADS7h0CYyx4NABAKAACRCQHDCCBAhJwAIiJoPbogOZiLFs5uXOCjk0BHY6AeQQAAAACAAABAAMAAAQQAAIABgAAAAAAAAAA==

> <PUBCHEM_IUPAC_OPENEYE_NAME>
5-chloro-N-[4-[4-[2-(cyclopropylmethoxy)phenyl]piperazin-1-yl]cyclohexyl]-2-methoxy-benzenesulfonamide

> <PUBCHEM_IUPAC_CAS_NAME>
5-chloro-N-[4-[4-[2-(cyclopropylmethoxy)phenyl]-1-piperazinyl]cyclohexyl]-2-methoxybenzenesulfonamide

> <PUBCHEM_IUPAC_NAME_MARKUP>
5-chloro-<I>N</I>-[4-[4-[2-(cyclopropylmethoxy)phenyl]piperazin-1-yl]cyclohexyl]-2-methoxybenzenesulfonamide

> <PUBCHEM_IUPAC_NAME>
5-chloro-N-[4-[4-[2-(cyclopropylmethoxy)phenyl]piperazin-1-yl]cyclohexyl]-2-methoxybenzenesulfonamide

> <PUBCHEM_IUPAC_SYSTEMATIC_NAME>
5-chloranyl-N-[4-[4-[2-(cyclopropylmethoxy)phenyl]piperazin-1-yl]cyclohexyl]-2-methoxy-benzenesulfonamide

> <PUBCHEM_IUPAC_TRADITIONAL_NAME>
5-chloro-N-[4-[4-[2-(cyclopropylmethoxy)phenyl]piperazino]cyclohexyl]-2-methoxy-benzenesulfonamide

> <PUBCHEM_IUPAC_INCHI>
InChI=1S/C27H36ClN3O4S/c1-34-26-13-8-21(28)18-27(26)36(32,33)29-22-9-11-23(12-10-22)30-14-16-31(17-15-30)24-4-2-3-5-25(24)35-19-20-6-7-20/h2-5,8,13,18,20,22-23,29H,6-7,9-12,14-17,19H2,1H3

> <PUBCHEM_IUPAC_INCHIKEY>
HQURDNFFLCLLLC-UHFFFAOYSA-N

> <PUBCHEM_XLOGP3_AA>
5.2

> <PUBCHEM_EXACT_MASS>
533.2115055

> <PUBCHEM_MOLECULAR_FORMULA>
C27H36ClN3O4S

> <PUBCHEM_MOLECULAR_WEIGHT>
534.1

> <PUBCHEM_OPENEYE_CAN_SMILES>
COC1=C(C=C(C=C1)Cl)S(=O)(=O)NC2CCC(CC2)N3CCN(CC3)C4=CC=CC=C4OCC5CC5

> <PUBCHEM_OPENEYE_ISO_SMILES>
COC1=C(C=C(C=C1)Cl)S(=O)(=O)NC2CCC(CC2)N3CCN(CC3)C4=CC=CC=C4OCC5CC5

> <PUBCHEM_CACTVS_TPSA>
79.5

> <PUBCHEM_MONOISOTOPIC_WEIGHT>
533.2115055

> <PUBCHEM_TOTAL_CHARGE>
0

> <PUBCHEM_HEAVY_ATOM_COUNT>
36

> <PUBCHEM_ATOM_DEF_STEREO_COUNT>
0

> <PUBCHEM_ATOM_UDEF_STEREO_COUNT>
0

> <PUBCHEM_BOND_DEF_STEREO_COUNT>
0

> <PUBCHEM_BOND_UDEF_STEREO_COUNT>
0

> <PUBCHEM_ISOTOPIC_ATOM_COUNT>
0

> <PUBCHEM_COMPONENT_COUNT>
1

> <PUBCHEM_CACTVS_TAUTO_COUNT>
-1

> <PUBCHEM_COORDINATE_TYPE>
1
5
255

> <PUBCHEM_BONDANNOTATIONS>
24  25  8
24  26  8
25  28  8
26  29  8
27  31  8
27  32  8
28  30  8
29  30  8
31  33  8
32  34  8
33  35  8
34  35  8

$$$$
