10357869
  -OEChem-09292322222D

 44 47  0     0  0  0  0  0  0999 V2000
    7.1672    3.0971    0.0000 O   0  0  0  0  0  0  0  0  0  0  0  0
    4.5981   -0.7694    0.0000 N   0  0  0  0  0  0  0  0  0  0  0  0
    4.5981    2.2306    0.0000 N   0  0  0  0  0  0  0  0  0  0  0  0
    7.6672    1.5583    0.0000 N   0  0  0  0  0  0  0  0  0  0  0  0
    4.5981    1.2306    0.0000 C   0  0  0  0  0  0  0  0  0  0  0  0
    3.7320    0.7306    0.0000 C   0  0  0  0  0  0  0  0  0  0  0  0
    5.4641    0.7306    0.0000 C   0  0  0  0  0  0  0  0  0  0  0  0
    3.7320   -0.2694    0.0000 C   0  0  0  0  0  0  0  0  0  0  0  0
    5.4641   -0.2694    0.0000 C   0  0  0  0  0  0  0  0  0  0  0  0
    4.5981   -1.7694    0.0000 C   0  0  0  0  0  0  0  0  0  0  0  0
    5.4071    2.8184    0.0000 C   0  0  0  0  0  0  0  0  0  0  0  0
    3.7891    2.8184    0.0000 C   0  0  0  0  0  0  0  0  0  0  0  0
    3.7320   -2.2694    0.0000 C   0  0  0  0  0  0  0  0  0  0  0  0
    5.0981    3.7694    0.0000 C   0  0  0  0  0  0  0  0  0  0  0  0
    4.0981    3.7694    0.0000 C   0  0  0  0  0  0  0  0  0  0  0  0
    6.3582    2.5094    0.0000 C   0  0  0  0  0  0  0  0  0  0  0  0
    2.8660   -1.7694    0.0000 C   0  0  0  0  0  0  0  0  0  0  0  0
    3.7320   -3.2694    0.0000 C   0  0  0  0  0  0  0  0  0  0  0  0
    6.6672    1.5583    0.0000 C   0  0  0  0  0  0  0  0  0  0  0  0
    2.0000   -2.2694    0.0000 C   0  0  0  0  0  0  0  0  0  0  0  0
    2.8660   -3.7694    0.0000 C   0  0  0  0  0  0  0  0  0  0  0  0
    2.0000   -3.2694    0.0000 C   0  0  0  0  0  0  0  0  0  0  0  0
    7.9762    2.5094    0.0000 C   0  0  0  0  0  0  0  0  0  0  0  0
    5.1350    1.5406    0.0000 H   0  0  0  0  0  0  0  0  0  0  0  0
    3.5200    1.3132    0.0000 H   0  0  0  0  0  0  0  0  0  0  0  0
    3.1215    0.6229    0.0000 H   0  0  0  0  0  0  0  0  0  0  0  0
    6.0747    0.6229    0.0000 H   0  0  0  0  0  0  0  0  0  0  0  0
    5.6762    1.3132    0.0000 H   0  0  0  0  0  0  0  0  0  0  0  0
    3.1215   -0.1618    0.0000 H   0  0  0  0  0  0  0  0  0  0  0  0
    3.5200   -0.8520    0.0000 H   0  0  0  0  0  0  0  0  0  0  0  0
    5.6762   -0.8520    0.0000 H   0  0  0  0  0  0  0  0  0  0  0  0
    6.0747   -0.1618    0.0000 H   0  0  0  0  0  0  0  0  0  0  0  0
    4.8101   -2.3520    0.0000 H   0  0  0  0  0  0  0  0  0  0  0  0
    5.2087   -1.6618    0.0000 H   0  0  0  0  0  0  0  0  0  0  0  0
    3.1994    2.6268    0.0000 H   0  0  0  0  0  0  0  0  0  0  0  0
    5.4625    4.2710    0.0000 H   0  0  0  0  0  0  0  0  0  0  0  0
    3.7336    4.2710    0.0000 H   0  0  0  0  0  0  0  0  0  0  0  0
    2.8660   -1.1494    0.0000 H   0  0  0  0  0  0  0  0  0  0  0  0
    4.2690   -3.5794    0.0000 H   0  0  0  0  0  0  0  0  0  0  0  0
    6.3027    1.0567    0.0000 H   0  0  0  0  0  0  0  0  0  0  0  0
    1.4631   -1.9594    0.0000 H   0  0  0  0  0  0  0  0  0  0  0  0
    2.8660   -4.3894    0.0000 H   0  0  0  0  0  0  0  0  0  0  0  0
    1.4631   -3.5794    0.0000 H   0  0  0  0  0  0  0  0  0  0  0  0
    8.5658    2.7009    0.0000 H   0  0  0  0  0  0  0  0  0  0  0  0
  1 16  1  0  0  0  0
  1 23  1  0  0  0  0
  2  8  1  0  0  0  0
  2  9  1  0  0  0  0
  2 10  1  0  0  0  0
  3  5  1  0  0  0  0
  3 11  1  0  0  0  0
  3 12  1  0  0  0  0
  4 19  1  0  0  0  0
  4 23  2  0  0  0  0
  5  6  1  0  0  0  0
  5  7  1  0  0  0  0
  5 24  1  0  0  0  0
  6  8  1  0  0  0  0
  6 25  1  0  0  0  0
  6 26  1  0  0  0  0
  7  9  1  0  0  0  0
  7 27  1  0  0  0  0
  7 28  1  0  0  0  0
  8 29  1  0  0  0  0
  8 30  1  0  0  0  0
  9 31  1  0  0  0  0
  9 32  1  0  0  0  0
 10 13  1  0  0  0  0
 10 33  1  0  0  0  0
 10 34  1  0  0  0  0
 11 14  2  0  0  0  0
 11 16  1  0  0  0  0
 12 15  2  0  0  0  0
 12 35  1  0  0  0  0
 13 17  2  0  0  0  0
 13 18  1  0  0  0  0
 14 15  1  0  0  0  0
 14 36  1  0  0  0  0
 15 37  1  0  0  0  0
 16 19  2  0  0  0  0
 17 20  1  0  0  0  0
 17 38  1  0  0  0  0
 18 21  2  0  0  0  0
 18 39  1  0  0  0  0
 19 40  1  0  0  0  0
 20 22  2  0  0  0  0
 20 41  1  0  0  0  0
 21 22  1  0  0  0  0
 21 42  1  0  0  0  0
 22 43  1  0  0  0  0
 23 44  1  0  0  0  0
M  END
> <PUBCHEM_COMPOUND_CID>
10357869

> <PUBCHEM_COMPOUND_CANONICALIZED>
1

> <PUBCHEM_CACTVS_COMPLEXITY>
364

> <PUBCHEM_CACTVS_HBOND_ACCEPTOR>
3

> <PUBCHEM_CACTVS_HBOND_DONOR>
0

> <PUBCHEM_CACTVS_ROTATABLE_BOND>
4

> <PUBCHEM_CACTVS_SUBSKEYS>
AAADceB7IAAAAAAAAAAAAAAAAAAAAWLAAAA8QAAAAAAAAAAB8AAAHgAAAAAADCzBngY8hJMMFECoA7R31ASCiCA/QiAI2CG7bNgOJvLA9bmNMQhkxgHY6YeYkQIOAAAAAAAAAAAAAAAAAAAAAAAAAAAAAA==

> <PUBCHEM_IUPAC_OPENEYE_NAME>
5-[1-(1-benzyl-4-piperidyl)pyrrol-2-yl]oxazole

> <PUBCHEM_IUPAC_CAS_NAME>
5-[1-[1-(phenylmethyl)-4-piperidinyl]-2-pyrrolyl]oxazole

> <PUBCHEM_IUPAC_NAME_MARKUP>
5-[1-(1-benzylpiperidin-4-yl)pyrrol-2-yl]-1,3-oxazole

> <PUBCHEM_IUPAC_NAME>
5-[1-(1-benzylpiperidin-4-yl)pyrrol-2-yl]-1,3-oxazole

> <PUBCHEM_IUPAC_SYSTEMATIC_NAME>
5-[1-[1-(phenylmethyl)piperidin-4-yl]pyrrol-2-yl]-1,3-oxazole

> <PUBCHEM_IUPAC_TRADITIONAL_NAME>
5-[1-(1-benzyl-4-piperidyl)pyrrol-2-yl]oxazole

> <PUBCHEM_IUPAC_INCHI>
InChI=1S/C19H21N3O/c1-2-5-16(6-3-1)14-21-11-8-17(9-12-21)22-10-4-7-18(22)19-13-20-15-23-19/h1-7,10,13,15,17H,8-9,11-12,14H2

> <PUBCHEM_IUPAC_INCHIKEY>
JTHXHSNJAJMWTQ-UHFFFAOYSA-N

> <PUBCHEM_XLOGP3_AA>
2.8

> <PUBCHEM_EXACT_MASS>
307.168462302

> <PUBCHEM_MOLECULAR_FORMULA>
C19H21N3O

> <PUBCHEM_MOLECULAR_WEIGHT>
307.4

> <PUBCHEM_OPENEYE_CAN_SMILES>
C1CN(CCC1N2C=CC=C2C3=CN=CO3)CC4=CC=CC=C4

> <PUBCHEM_OPENEYE_ISO_SMILES>
C1CN(CCC1N2C=CC=C2C3=CN=CO3)CC4=CC=CC=C4

> <PUBCHEM_CACTVS_TPSA>
34.2

> <PUBCHEM_MONOISOTOPIC_WEIGHT>
307.168462302

> <PUBCHEM_TOTAL_CHARGE>
0

> <PUBCHEM_HEAVY_ATOM_COUNT>
23

> <PUBCHEM_ATOM_DEF_STEREO_COUNT>
0

> <PUBCHEM_ATOM_UDEF_STEREO_COUNT>
0

> <PUBCHEM_BOND_DEF_STEREO_COUNT>
0

> <PUBCHEM_BOND_UDEF_STEREO_COUNT>
0

> <PUBCHEM_ISOTOPIC_ATOM_COUNT>
0

> <PUBCHEM_COMPONENT_COUNT>
1

> <PUBCHEM_CACTVS_TAUTO_COUNT>
-1

> <PUBCHEM_COORDINATE_TYPE>
1
5
255

> <PUBCHEM_BONDANNOTATIONS>
1  16  8
1  23  8
11  14  8
12  15  8
13  17  8
13  18  8
14  15  8
16  19  8
17  20  8
18  21  8
20  22  8
21  22  8
3  11  8
3  12  8
4  19  8
4  23  8

$$$$
