118719927
  -OEChem-09292322392D

 66 68  0     0  0  0  0  0  0999 V2000
    6.3981    4.1377    0.0000 O   0  0  0  0  0  0  0  0  0  0  0  0
   11.5942   -5.8623    0.0000 O   0  0  0  0  0  0  0  0  0  0  0  0
    6.3981    1.1377    0.0000 N   0  0  0  0  0  0  0  0  0  0  0  0
    4.6660    4.1377    0.0000 N   0  0  0  0  0  0  0  0  0  0  0  0
    8.1301    0.1377    0.0000 C   0  0  0  0  0  0  0  0  0  0  0  0
    8.1301    1.1377    0.0000 C   0  0  0  0  0  0  0  0  0  0  0  0
    7.2641   -0.3623    0.0000 C   0  0  0  0  0  0  0  0  0  0  0  0
    7.2641    1.6377    0.0000 C   0  0  0  0  0  0  0  0  0  0  0  0
    6.3981    0.1377    0.0000 C   0  0  0  0  0  0  0  0  0  0  0  0
    8.9962   -0.3623    0.0000 C   0  0  0  0  0  0  0  0  0  0  0  0
    5.5321    1.6377    0.0000 C   0  0  0  0  0  0  0  0  0  0  0  0
    8.9962   -1.3623    0.0000 C   0  0  0  0  0  0  0  0  0  0  0  0
    5.5321    2.6377    0.0000 C   0  0  0  0  0  0  0  0  0  0  0  0
    9.8622   -1.8623    0.0000 C   0  0  0  0  0  0  0  0  0  0  0  0
    4.6660    3.1377    0.0000 C   0  0  0  0  0  0  0  0  0  0  0  0
    9.8622   -2.8623    0.0000 C   0  0  0  0  0  0  0  0  0  0  0  0
   10.7282   -3.3623    0.0000 C   0  0  0  0  0  0  0  0  0  0  0  0
    3.8000    4.6377    0.0000 C   0  0  0  0  0  0  0  0  0  0  0  0
    5.5321    4.6377    0.0000 C   0  0  0  0  0  0  0  0  0  0  0  0
    5.5321    5.6377    0.0000 C   0  0  0  0  0  0  0  0  0  0  0  0
    3.8000    5.6377    0.0000 C   0  0  0  0  0  0  0  0  0  0  0  0
    4.6660    6.1377    0.0000 C   0  0  0  0  0  0  0  0  0  0  0  0
   10.7282   -4.3623    0.0000 C   0  0  0  0  0  0  0  0  0  0  0  0
    2.9061    4.1030    0.0000 C   0  0  0  0  0  0  0  0  0  0  0  0
    2.9061    6.1723    0.0000 C   0  0  0  0  0  0  0  0  0  0  0  0
   11.5942   -4.8623    0.0000 C   0  0  0  0  0  0  0  0  0  0  0  0
    2.0000    4.6168    0.0000 C   0  0  0  0  0  0  0  0  0  0  0  0
    2.0000    5.6585    0.0000 C   0  0  0  0  0  0  0  0  0  0  0  0
    8.1301   -0.4823    0.0000 H   0  0  0  0  0  0  0  0  0  0  0  0
    8.7407    1.0300    0.0000 H   0  0  0  0  0  0  0  0  0  0  0  0
    8.3422    1.7203    0.0000 H   0  0  0  0  0  0  0  0  0  0  0  0
    6.8656   -0.8373    0.0000 H   0  0  0  0  0  0  0  0  0  0  0  0
    7.6626   -0.8373    0.0000 H   0  0  0  0  0  0  0  0  0  0  0  0
    7.6626    2.1126    0.0000 H   0  0  0  0  0  0  0  0  0  0  0  0
    6.8656    2.1126    0.0000 H   0  0  0  0  0  0  0  0  0  0  0  0
    5.7875    0.2453    0.0000 H   0  0  0  0  0  0  0  0  0  0  0  0
    6.1860   -0.4449    0.0000 H   0  0  0  0  0  0  0  0  0  0  0  0
    9.6067   -0.4700    0.0000 H   0  0  0  0  0  0  0  0  0  0  0  0
    9.2082    0.2203    0.0000 H   0  0  0  0  0  0  0  0  0  0  0  0
    4.9215    1.7453    0.0000 H   0  0  0  0  0  0  0  0  0  0  0  0
    5.3200    1.0551    0.0000 H   0  0  0  0  0  0  0  0  0  0  0  0
    8.3856   -1.2547    0.0000 H   0  0  0  0  0  0  0  0  0  0  0  0
    8.7841   -1.9449    0.0000 H   0  0  0  0  0  0  0  0  0  0  0  0
    6.1426    2.5300    0.0000 H   0  0  0  0  0  0  0  0  0  0  0  0
    5.7441    3.2203    0.0000 H   0  0  0  0  0  0  0  0  0  0  0  0
   10.4728   -1.9700    0.0000 H   0  0  0  0  0  0  0  0  0  0  0  0
   10.0742   -1.2797    0.0000 H   0  0  0  0  0  0  0  0  0  0  0  0
    4.0555    3.2453    0.0000 H   0  0  0  0  0  0  0  0  0  0  0  0
    4.4540    2.5551    0.0000 H   0  0  0  0  0  0  0  0  0  0  0  0
    9.2516   -2.7547    0.0000 H   0  0  0  0  0  0  0  0  0  0  0  0
    9.6501   -3.4449    0.0000 H   0  0  0  0  0  0  0  0  0  0  0  0
   11.3388   -3.4700    0.0000 H   0  0  0  0  0  0  0  0  0  0  0  0
   10.9403   -2.7797    0.0000 H   0  0  0  0  0  0  0  0  0  0  0  0
    6.1426    5.5300    0.0000 H   0  0  0  0  0  0  0  0  0  0  0  0
    5.7441    6.2203    0.0000 H   0  0  0  0  0  0  0  0  0  0  0  0
    5.0646    6.6126    0.0000 H   0  0  0  0  0  0  0  0  0  0  0  0
    4.2675    6.6126    0.0000 H   0  0  0  0  0  0  0  0  0  0  0  0
   10.1176   -4.2547    0.0000 H   0  0  0  0  0  0  0  0  0  0  0  0
   10.5162   -4.9449    0.0000 H   0  0  0  0  0  0  0  0  0  0  0  0
    2.9132    3.4830    0.0000 H   0  0  0  0  0  0  0  0  0  0  0  0
    2.9132    6.7923    0.0000 H   0  0  0  0  0  0  0  0  0  0  0  0
   12.2048   -4.9700    0.0000 H   0  0  0  0  0  0  0  0  0  0  0  0
   11.8063   -4.2797    0.0000 H   0  0  0  0  0  0  0  0  0  0  0  0
    1.4643    4.3048    0.0000 H   0  0  0  0  0  0  0  0  0  0  0  0
    1.4643    5.9706    0.0000 H   0  0  0  0  0  0  0  0  0  0  0  0
   12.1312   -6.1723    0.0000 H   0  0  0  0  0  0  0  0  0  0  0  0
  1 19  2  0  0  0  0
  2 26  1  0  0  0  0
  2 66  1  0  0  0  0
  3  8  1  0  0  0  0
  3  9  1  0  0  0  0
  3 11  1  0  0  0  0
  4 15  1  0  0  0  0
  4 18  1  0  0  0  0
  4 19  1  0  0  0  0
  5  6  1  0  0  0  0
  5  7  1  0  0  0  0
  5 10  1  0  0  0  0
  5 29  1  0  0  0  0
  6  8  1  0  0  0  0
  6 30  1  0  0  0  0
  6 31  1  0  0  0  0
  7  9  1  0  0  0  0
  7 32  1  0  0  0  0
  7 33  1  0  0  0  0
  8 34  1  0  0  0  0
  8 35  1  0  0  0  0
  9 36  1  0  0  0  0
  9 37  1  0  0  0  0
 10 12  1  0  0  0  0
 10 38  1  0  0  0  0
 10 39  1  0  0  0  0
 11 13  1  0  0  0  0
 11 40  1  0  0  0  0
 11 41  1  0  0  0  0
 12 14  1  0  0  0  0
 12 42  1  0  0  0  0
 12 43  1  0  0  0  0
 13 15  1  0  0  0  0
 13 44  1  0  0  0  0
 13 45  1  0  0  0  0
 14 16  1  0  0  0  0
 14 46  1  0  0  0  0
 14 47  1  0  0  0  0
 15 48  1  0  0  0  0
 15 49  1  0  0  0  0
 16 17  1  0  0  0  0
 16 50  1  0  0  0  0
 16 51  1  0  0  0  0
 17 23  1  0  0  0  0
 17 52  1  0  0  0  0
 17 53  1  0  0  0  0
 18 21  1  0  0  0  0
 18 24  2  0  0  0  0
 19 20  1  0  0  0  0
 20 22  1  0  0  0  0
 20 54  1  0  0  0  0
 20 55  1  0  0  0  0
 21 22  1  0  0  0  0
 21 25  2  0  0  0  0
 22 56  1  0  0  0  0
 22 57  1  0  0  0  0
 23 26  1  0  0  0  0
 23 58  1  0  0  0  0
 23 59  1  0  0  0  0
 24 27  1  0  0  0  0
 24 60  1  0  0  0  0
 25 28  1  0  0  0  0
 25 61  1  0  0  0  0
 26 62  1  0  0  0  0
 26 63  1  0  0  0  0
 27 28  2  0  0  0  0
 27 64  1  0  0  0  0
 28 65  1  0  0  0  0
M  END
> <PUBCHEM_COMPOUND_CID>
118719927

> <PUBCHEM_COMPOUND_CANONICALIZED>
1

> <PUBCHEM_CACTVS_COMPLEXITY>
448

> <PUBCHEM_CACTVS_HBOND_ACCEPTOR>
3

> <PUBCHEM_CACTVS_HBOND_DONOR>
1

> <PUBCHEM_CACTVS_ROTATABLE_BOND>
11

> <PUBCHEM_CACTVS_SUBSKEYS>
AAADcfB7MAAAAAAAAAAAAAAAAAAAAAAAAAA8WIAAAAAAAACxAAAAHgAACAAADQjhmAYwwIMAAgCIAiVSUACCAAAhAgAIiAEIZIgIMDLA0ZGEYAhkhgDIyAeYyeCeAAAAAAACAAAAAAAAAAQAAAAAAAAAAA==

> <PUBCHEM_IUPAC_OPENEYE_NAME>
1-[3-[4-(7-hydroxyheptyl)-1-piperidyl]propyl]-3,4-dihydroquinolin-2-one

> <PUBCHEM_IUPAC_CAS_NAME>
1-[3-[4-(7-hydroxyheptyl)-1-piperidinyl]propyl]-3,4-dihydroquinolin-2-one

> <PUBCHEM_IUPAC_NAME_MARKUP>
1-[3-[4-(7-hydroxyheptyl)piperidin-1-yl]propyl]-3,4-dihydroquinolin-2-one

> <PUBCHEM_IUPAC_NAME>
1-[3-[4-(7-hydroxyheptyl)piperidin-1-yl]propyl]-3,4-dihydroquinolin-2-one

> <PUBCHEM_IUPAC_SYSTEMATIC_NAME>
1-[3-[4-(7-oxidanylheptyl)piperidin-1-yl]propyl]-3,4-dihydroquinolin-2-one

> <PUBCHEM_IUPAC_TRADITIONAL_NAME>
1-[3-[4-(7-hydroxyheptyl)piperidino]propyl]-3,4-dihydrocarbostyril

> <PUBCHEM_IUPAC_INCHI>
InChI=1S/C24H38N2O2/c27-20-7-3-1-2-4-9-21-14-18-25(19-15-21)16-8-17-26-23-11-6-5-10-22(23)12-13-24(26)28/h5-6,10-11,21,27H,1-4,7-9,12-20H2

> <PUBCHEM_IUPAC_INCHIKEY>
WOWRXMYCLGLRFQ-UHFFFAOYSA-N

> <PUBCHEM_XLOGP3_AA>
4.6

> <PUBCHEM_EXACT_MASS>
386.293328459

> <PUBCHEM_MOLECULAR_FORMULA>
C24H38N2O2

> <PUBCHEM_MOLECULAR_WEIGHT>
386.6

> <PUBCHEM_OPENEYE_CAN_SMILES>
C1CN(CCC1CCCCCCCO)CCCN2C(=O)CCC3=CC=CC=C32

> <PUBCHEM_OPENEYE_ISO_SMILES>
C1CN(CCC1CCCCCCCO)CCCN2C(=O)CCC3=CC=CC=C32

> <PUBCHEM_CACTVS_TPSA>
43.8

> <PUBCHEM_MONOISOTOPIC_WEIGHT>
386.293328459

> <PUBCHEM_TOTAL_CHARGE>
0

> <PUBCHEM_HEAVY_ATOM_COUNT>
28

> <PUBCHEM_ATOM_DEF_STEREO_COUNT>
0

> <PUBCHEM_ATOM_UDEF_STEREO_COUNT>
0

> <PUBCHEM_BOND_DEF_STEREO_COUNT>
0

> <PUBCHEM_BOND_UDEF_STEREO_COUNT>
0

> <PUBCHEM_ISOTOPIC_ATOM_COUNT>
0

> <PUBCHEM_COMPONENT_COUNT>
1

> <PUBCHEM_CACTVS_TAUTO_COUNT>
-1

> <PUBCHEM_COORDINATE_TYPE>
1
5
255

> <PUBCHEM_BONDANNOTATIONS>
18  21  8
18  24  8
21  25  8
24  27  8
25  28  8
27  28  8

$$$$
