156019026
  -OEChem-09292322422D

 59 63  0     0  0  0  0  0  0999 V2000
    9.7884    5.2456    0.0000 S   0  0  0  0  0  0  0  0  0  0  0  0
    4.6783   -5.2456    0.0000 O   0  0  0  0  0  0  0  0  0  0  0  0
    6.2619   -4.4409    0.0000 O   0  0  0  0  0  0  0  0  0  0  0  0
    8.8564    0.7846    0.0000 N   0  0  0  0  0  0  0  0  0  0  0  0
    9.4778    2.6856    0.0000 N   0  0  0  0  0  0  0  0  0  0  0  0
    4.6783   -3.6362    0.0000 N   0  0  0  0  0  0  0  0  0  0  0  0
    9.2048    4.4409    0.0000 N   0  0  0  0  0  0  0  0  0  0  0  0
    9.8349    0.9908    0.0000 C   0  0  0  0  0  0  0  0  0  0  0  0
    8.1886    1.5289    0.0000 C   0  0  0  0  0  0  0  0  0  0  0  0
    8.5458   -0.1659    0.0000 C   0  0  0  0  0  0  0  0  0  0  0  0
   10.1456    1.9413    0.0000 C   0  0  0  0  0  0  0  0  0  0  0  0
    8.4993    2.4794    0.0000 C   0  0  0  0  0  0  0  0  0  0  0  0
    7.5673   -0.3722    0.0000 C   0  0  0  0  0  0  0  0  0  0  0  0
    7.2566   -1.3227    0.0000 C   0  0  0  0  0  0  0  0  0  0  0  0
    6.2781   -1.5289    0.0000 C   0  0  0  0  0  0  0  0  0  0  0  0
    9.7884    3.6362    0.0000 C   0  0  0  0  0  0  0  0  0  0  0  0
    5.9674   -2.4794    0.0000 C   0  0  0  0  0  0  0  0  0  0  0  0
    4.9889   -2.6856    0.0000 C   0  0  0  0  0  0  0  0  0  0  0  0
   10.7346    3.9409    0.0000 C   0  0  0  0  0  0  0  0  0  0  0  0
   10.7346    4.9409    0.0000 C   0  0  0  0  0  0  0  0  0  0  0  0
    3.7320   -3.9409    0.0000 C   0  0  0  0  0  0  0  0  0  0  0  0
   11.6007    3.4409    0.0000 C   0  0  0  0  0  0  0  0  0  0  0  0
    5.2619   -4.4409    0.0000 C   0  0  0  0  0  0  0  0  0  0  0  0
    3.7320   -4.9409    0.0000 C   0  0  0  0  0  0  0  0  0  0  0  0
   11.6007    5.4409    0.0000 C   0  0  0  0  0  0  0  0  0  0  0  0
   12.4667    3.9409    0.0000 C   0  0  0  0  0  0  0  0  0  0  0  0
    2.8660   -3.4409    0.0000 C   0  0  0  0  0  0  0  0  0  0  0  0
   12.4667    4.9409    0.0000 C   0  0  0  0  0  0  0  0  0  0  0  0
    2.8660   -5.4409    0.0000 C   0  0  0  0  0  0  0  0  0  0  0  0
    2.0000   -3.9409    0.0000 C   0  0  0  0  0  0  0  0  0  0  0  0
    2.0000   -4.9409    0.0000 C   0  0  0  0  0  0  0  0  0  0  0  0
    9.8555    0.3711    0.0000 H   0  0  0  0  0  0  0  0  0  0  0  0
   10.4488    0.9035    0.0000 H   0  0  0  0  0  0  0  0  0  0  0  0
    7.6417    1.8209    0.0000 H   0  0  0  0  0  0  0  0  0  0  0  0
    7.8060    1.0410    0.0000 H   0  0  0  0  0  0  0  0  0  0  0  0
    8.5663   -0.7856    0.0000 H   0  0  0  0  0  0  0  0  0  0  0  0
    9.1596   -0.2533    0.0000 H   0  0  0  0  0  0  0  0  0  0  0  0
   10.6925    1.6493    0.0000 H   0  0  0  0  0  0  0  0  0  0  0  0
   10.5282    2.4292    0.0000 H   0  0  0  0  0  0  0  0  0  0  0  0
    8.4787    3.0991    0.0000 H   0  0  0  0  0  0  0  0  0  0  0  0
    7.8854    2.5668    0.0000 H   0  0  0  0  0  0  0  0  0  0  0  0
    7.5467    0.2475    0.0000 H   0  0  0  0  0  0  0  0  0  0  0  0
    6.9534   -0.2848    0.0000 H   0  0  0  0  0  0  0  0  0  0  0  0
    7.2772   -1.9423    0.0000 H   0  0  0  0  0  0  0  0  0  0  0  0
    7.8704   -1.4100    0.0000 H   0  0  0  0  0  0  0  0  0  0  0  0
    6.2575   -0.9092    0.0000 H   0  0  0  0  0  0  0  0  0  0  0  0
    5.6643   -1.4415    0.0000 H   0  0  0  0  0  0  0  0  0  0  0  0
    5.9880   -3.0991    0.0000 H   0  0  0  0  0  0  0  0  0  0  0  0
    6.5812   -2.5668    0.0000 H   0  0  0  0  0  0  0  0  0  0  0  0
    4.9684   -2.0660    0.0000 H   0  0  0  0  0  0  0  0  0  0  0  0
    4.3751   -2.5983    0.0000 H   0  0  0  0  0  0  0  0  0  0  0  0
   11.6007    2.8209    0.0000 H   0  0  0  0  0  0  0  0  0  0  0  0
   11.6007    6.0609    0.0000 H   0  0  0  0  0  0  0  0  0  0  0  0
   13.0036    3.6309    0.0000 H   0  0  0  0  0  0  0  0  0  0  0  0
    2.8660   -2.8209    0.0000 H   0  0  0  0  0  0  0  0  0  0  0  0
   13.0036    5.2509    0.0000 H   0  0  0  0  0  0  0  0  0  0  0  0
    2.8660   -6.0609    0.0000 H   0  0  0  0  0  0  0  0  0  0  0  0
    1.4631   -3.6309    0.0000 H   0  0  0  0  0  0  0  0  0  0  0  0
    1.4631   -5.2509    0.0000 H   0  0  0  0  0  0  0  0  0  0  0  0
  1  7  1  0  0  0  0
  1 20  1  0  0  0  0
  2 23  1  0  0  0  0
  2 24  1  0  0  0  0
  3 23  2  0  0  0  0
  4  8  1  0  0  0  0
  4  9  1  0  0  0  0
  4 10  1  0  0  0  0
  5 11  1  0  0  0  0
  5 12  1  0  0  0  0
  5 16  1  0  0  0  0
  6 18  1  0  0  0  0
  6 21  1  0  0  0  0
  6 23  1  0  0  0  0
  7 16  2  0  0  0  0
  8 11  1  0  0  0  0
  8 32  1  0  0  0  0
  8 33  1  0  0  0  0
  9 12  1  0  0  0  0
  9 34  1  0  0  0  0
  9 35  1  0  0  0  0
 10 13  1  0  0  0  0
 10 36  1  0  0  0  0
 10 37  1  0  0  0  0
 11 38  1  0  0  0  0
 11 39  1  0  0  0  0
 12 40  1  0  0  0  0
 12 41  1  0  0  0  0
 13 14  1  0  0  0  0
 13 42  1  0  0  0  0
 13 43  1  0  0  0  0
 14 15  1  0  0  0  0
 14 44  1  0  0  0  0
 14 45  1  0  0  0  0
 15 17  1  0  0  0  0
 15 46  1  0  0  0  0
 15 47  1  0  0  0  0
 16 19  1  0  0  0  0
 17 18  1  0  0  0  0
 17 48  1  0  0  0  0
 17 49  1  0  0  0  0
 18 50  1  0  0  0  0
 18 51  1  0  0  0  0
 19 20  1  0  0  0  0
 19 22  2  0  0  0  0
 20 25  2  0  0  0  0
 21 24  1  0  0  0  0
 21 27  2  0  0  0  0
 22 26  1  0  0  0  0
 22 52  1  0  0  0  0
 24 29  2  0  0  0  0
 25 28  1  0  0  0  0
 25 53  1  0  0  0  0
 26 28  2  0  0  0  0
 26 54  1  0  0  0  0
 27 30  1  0  0  0  0
 27 55  1  0  0  0  0
 28 56  1  0  0  0  0
 29 31  1  0  0  0  0
 29 57  1  0  0  0  0
 30 31  2  0  0  0  0
 30 58  1  0  0  0  0
 31 59  1  0  0  0  0
M  END
> <PUBCHEM_COMPOUND_CID>
156019026

> <PUBCHEM_COMPOUND_CANONICALIZED>
1

> <PUBCHEM_CACTVS_COMPLEXITY>
600

> <PUBCHEM_CACTVS_HBOND_ACCEPTOR>
6

> <PUBCHEM_CACTVS_HBOND_DONOR>
0

> <PUBCHEM_CACTVS_ROTATABLE_BOND>
8

> <PUBCHEM_CACTVS_SUBSKEYS>
AAADceB7sABAAAAAAAAAAAAAAAAAAWLAAAA8YIAAAAAAAFgB9AAAHgQAQAAADAzB2gQx/9MABACsAiZieACDCBAhIgBJmDgvbJiOZqLEuZudMixkxhPY6AeQwAAOAAAAAAAEEAAAAAAAAAggAAAAAAAAAA==

> <PUBCHEM_IUPAC_OPENEYE_NAME>
3-[6-[4-(1,2-benzothiazol-3-yl)piperazin-1-yl]hexyl]-1,3-benzoxazol-2-one

> <PUBCHEM_IUPAC_CAS_NAME>
3-[6-[4-(1,2-benzothiazol-3-yl)-1-piperazinyl]hexyl]-1,3-benzoxazol-2-one

> <PUBCHEM_IUPAC_NAME_MARKUP>
3-[6-[4-(1,2-benzothiazol-3-yl)piperazin-1-yl]hexyl]-1,3-benzoxazol-2-one

> <PUBCHEM_IUPAC_NAME>
3-[6-[4-(1,2-benzothiazol-3-yl)piperazin-1-yl]hexyl]-1,3-benzoxazol-2-one

> <PUBCHEM_IUPAC_SYSTEMATIC_NAME>
3-[6-[4-(1,2-benzothiazol-3-yl)piperazin-1-yl]hexyl]-1,3-benzoxazol-2-one

> <PUBCHEM_IUPAC_TRADITIONAL_NAME>
3-[6-[4-(1,2-benzothiazol-3-yl)piperazino]hexyl]-1,3-benzoxazol-2-one

> <PUBCHEM_IUPAC_INCHI>
InChI=1S/C24H28N4O2S/c29-24-28(20-10-4-5-11-21(20)30-24)14-8-2-1-7-13-26-15-17-27(18-16-26)23-19-9-3-6-12-22(19)31-25-23/h3-6,9-12H,1-2,7-8,13-18H2

> <PUBCHEM_IUPAC_INCHIKEY>
IYBWVCYBMXHESB-UHFFFAOYSA-N

> <PUBCHEM_XLOGP3_AA>
5.1

> <PUBCHEM_EXACT_MASS>
436.19329732

> <PUBCHEM_MOLECULAR_FORMULA>
C24H28N4O2S

> <PUBCHEM_MOLECULAR_WEIGHT>
436.6

> <PUBCHEM_OPENEYE_CAN_SMILES>
C1CN(CCN1CCCCCCN2C3=CC=CC=C3OC2=O)C4=NSC5=CC=CC=C54

> <PUBCHEM_OPENEYE_ISO_SMILES>
C1CN(CCN1CCCCCCN2C3=CC=CC=C3OC2=O)C4=NSC5=CC=CC=C54

> <PUBCHEM_CACTVS_TPSA>
77.2

> <PUBCHEM_MONOISOTOPIC_WEIGHT>
436.19329732

> <PUBCHEM_TOTAL_CHARGE>
0

> <PUBCHEM_HEAVY_ATOM_COUNT>
31

> <PUBCHEM_ATOM_DEF_STEREO_COUNT>
0

> <PUBCHEM_ATOM_UDEF_STEREO_COUNT>
0

> <PUBCHEM_BOND_DEF_STEREO_COUNT>
0

> <PUBCHEM_BOND_UDEF_STEREO_COUNT>
0

> <PUBCHEM_ISOTOPIC_ATOM_COUNT>
0

> <PUBCHEM_COMPONENT_COUNT>
1

> <PUBCHEM_CACTVS_TAUTO_COUNT>
-1

> <PUBCHEM_COORDINATE_TYPE>
1
5
255

> <PUBCHEM_BONDANNOTATIONS>
1  20  8
1  7  8
16  19  8
19  20  8
19  22  8
2  23  8
2  24  8
20  25  8
21  24  8
21  27  8
22  26  8
24  29  8
25  28  8
26  28  8
27  30  8
29  31  8
30  31  8
6  21  8
6  23  8
7  16  8

$$$$
