57326984
  -OEChem-09292322072D

120127  0     0  0  0  0  0  0999 V2000
    8.7204    7.0770    0.0000 Cl  0  0  0  0  0  0  0  0  0  0  0  0
    7.1076   -7.0770    0.0000 Cl  0  0  0  0  0  0  0  0  0  0  0  0
    6.6150    4.7500    0.0000 O   0  0  0  0  0  0  0  0  0  0  0  0
    9.2130   -4.7500    0.0000 O   0  0  0  0  0  0  0  0  0  0  0  0
    3.9491    8.8416    0.0000 N   0  0  0  0  0  0  0  0  0  0  0  0
   11.8789   -8.8416    0.0000 N   0  0  0  0  0  0  0  0  0  0  0  0
    3.0814   10.6436    0.0000 N   0  0  0  0  0  0  0  0  0  0  0  0
   12.7467  -10.6436    0.0000 N   0  0  0  0  0  0  0  0  0  0  0  0
    4.8830    5.7500    0.0000 N   0  0  0  0  0  0  0  0  0  0  0  0
   10.9451   -5.7500    0.0000 N   0  0  0  0  0  0  0  0  0  0  0  0
    5.3830    7.9407    0.0000 N   0  0  0  0  0  0  0  0  0  0  0  0
   10.4451   -7.9407    0.0000 N   0  0  0  0  0  0  0  0  0  0  0  0
    4.8830    4.7500    0.0000 N   0  0  0  0  0  0  0  0  0  0  0  0
   10.9451   -4.7500    0.0000 N   0  0  0  0  0  0  0  0  0  0  0  0
    4.5125    9.6679    0.0000 C   0  0  0  0  0  0  0  0  0  0  0  0
    2.9519    8.9164    0.0000 C   0  0  0  0  0  0  0  0  0  0  0  0
   11.3156   -9.6679    0.0000 C   0  0  0  0  0  0  0  0  0  0  0  0
   12.8761   -8.9164    0.0000 C   0  0  0  0  0  0  0  0  0  0  0  0
    4.0786   10.5688    0.0000 C   0  0  0  0  0  0  0  0  0  0  0  0
    2.5180    9.8174    0.0000 C   0  0  0  0  0  0  0  0  0  0  0  0
   11.7495  -10.5688    0.0000 C   0  0  0  0  0  0  0  0  0  0  0  0
   13.3100   -9.8174    0.0000 C   0  0  0  0  0  0  0  0  0  0  0  0
    4.3830    7.9407    0.0000 C   0  0  0  0  0  0  0  0  0  0  0  0
   11.4451   -7.9407    0.0000 C   0  0  0  0  0  0  0  0  0  0  0  0
    3.7595    7.1588    0.0000 C   0  0  0  0  0  0  0  0  0  0  0  0
   12.0686   -7.1588    0.0000 C   0  0  0  0  0  0  0  0  0  0  0  0
    7.4810    0.2500    0.0000 C   0  0  0  0  0  0  0  0  0  0  0  0
    8.3470   -0.2500    0.0000 C   0  0  0  0  0  0  0  0  0  0  0  0
    2.6475   11.5446    0.0000 C   0  0  0  0  0  0  0  0  0  0  0  0
   13.1806  -11.5446    0.0000 C   0  0  0  0  0  0  0  0  0  0  0  0
    7.4810    1.2500    0.0000 C   0  0  0  0  0  0  0  0  0  0  0  0
    8.3470   -1.2500    0.0000 C   0  0  0  0  0  0  0  0  0  0  0  0
    6.6150    1.7500    0.0000 C   0  0  0  0  0  0  0  0  0  0  0  0
    9.2131   -1.7500    0.0000 C   0  0  0  0  0  0  0  0  0  0  0  0
    3.9820    6.1839    0.0000 C   0  0  0  0  0  0  0  0  0  0  0  0
   11.8461   -6.1839    0.0000 C   0  0  0  0  0  0  0  0  0  0  0  0
    6.6150    2.7500    0.0000 C   0  0  0  0  0  0  0  0  0  0  0  0
    9.2131   -2.7500    0.0000 C   0  0  0  0  0  0  0  0  0  0  0  0
    5.7840    6.1839    0.0000 C   0  0  0  0  0  0  0  0  0  0  0  0
   10.0441   -6.1839    0.0000 C   0  0  0  0  0  0  0  0  0  0  0  0
    6.0065    7.1588    0.0000 C   0  0  0  0  0  0  0  0  0  0  0  0
    9.8216   -7.1588    0.0000 C   0  0  0  0  0  0  0  0  0  0  0  0
    5.7490    3.2500    0.0000 C   0  0  0  0  0  0  0  0  0  0  0  0
   10.0791   -3.2500    0.0000 C   0  0  0  0  0  0  0  0  0  0  0  0
    2.7690    7.4812    0.0000 C   0  0  0  0  0  0  0  0  0  0  0  0
   13.0591   -7.4812    0.0000 C   0  0  0  0  0  0  0  0  0  0  0  0
    3.2295    5.4637    0.0000 C   0  0  0  0  0  0  0  0  0  0  0  0
   12.5986   -5.4637    0.0000 C   0  0  0  0  0  0  0  0  0  0  0  0
    5.7490    4.2500    0.0000 C   0  0  0  0  0  0  0  0  0  0  0  0
   10.0791   -4.2500    0.0000 C   0  0  0  0  0  0  0  0  0  0  0  0
    2.0000    6.7786    0.0000 C   0  0  0  0  0  0  0  0  0  0  0  0
   13.8281   -6.7786    0.0000 C   0  0  0  0  0  0  0  0  0  0  0  0
    6.5365    5.4637    0.0000 C   0  0  0  0  0  0  0  0  0  0  0  0
    9.2916   -5.4637    0.0000 C   0  0  0  0  0  0  0  0  0  0  0  0
    2.2318    5.7631    0.0000 C   0  0  0  0  0  0  0  0  0  0  0  0
   13.5963   -5.7631    0.0000 C   0  0  0  0  0  0  0  0  0  0  0  0
    6.9970    7.4812    0.0000 C   0  0  0  0  0  0  0  0  0  0  0  0
    8.8311   -7.4812    0.0000 C   0  0  0  0  0  0  0  0  0  0  0  0
    7.5342    5.7630    0.0000 C   0  0  0  0  0  0  0  0  0  0  0  0
    8.2939   -5.7630    0.0000 C   0  0  0  0  0  0  0  0  0  0  0  0
    7.7660    6.7786    0.0000 C   0  0  0  0  0  0  0  0  0  0  0  0
    8.0621   -6.7786    0.0000 C   0  0  0  0  0  0  0  0  0  0  0  0
    4.9563    9.2350    0.0000 H   0  0  0  0  0  0  0  0  0  0  0  0
    5.0159   10.0298    0.0000 H   0  0  0  0  0  0  0  0  0  0  0  0
    2.3551    8.7485    0.0000 H   0  0  0  0  0  0  0  0  0  0  0  0
    3.0137    8.2995    0.0000 H   0  0  0  0  0  0  0  0  0  0  0  0
   10.8718   -9.2350    0.0000 H   0  0  0  0  0  0  0  0  0  0  0  0
   10.8122  -10.0298    0.0000 H   0  0  0  0  0  0  0  0  0  0  0  0
   13.4730   -8.7485    0.0000 H   0  0  0  0  0  0  0  0  0  0  0  0
   12.8144   -8.2995    0.0000 H   0  0  0  0  0  0  0  0  0  0  0  0
    4.6754   10.7368    0.0000 H   0  0  0  0  0  0  0  0  0  0  0  0
    4.0168   11.1858    0.0000 H   0  0  0  0  0  0  0  0  0  0  0  0
    2.0742   10.2503    0.0000 H   0  0  0  0  0  0  0  0  0  0  0  0
    2.0146    9.4554    0.0000 H   0  0  0  0  0  0  0  0  0  0  0  0
   11.1527  -10.7368    0.0000 H   0  0  0  0  0  0  0  0  0  0  0  0
   11.8112  -11.1858    0.0000 H   0  0  0  0  0  0  0  0  0  0  0  0
   13.7539  -10.2503    0.0000 H   0  0  0  0  0  0  0  0  0  0  0  0
   13.8134   -9.4554    0.0000 H   0  0  0  0  0  0  0  0  0  0  0  0
    6.8704    0.3577    0.0000 H   0  0  0  0  0  0  0  0  0  0  0  0
    7.2690   -0.3326    0.0000 H   0  0  0  0  0  0  0  0  0  0  0  0
    8.9576   -0.3577    0.0000 H   0  0  0  0  0  0  0  0  0  0  0  0
    8.5591    0.3326    0.0000 H   0  0  0  0  0  0  0  0  0  0  0  0
    3.2061   11.8136    0.0000 H   0  0  0  0  0  0  0  0  0  0  0  0
    2.3785   12.1032    0.0000 H   0  0  0  0  0  0  0  0  0  0  0  0
    2.0889   11.2756    0.0000 H   0  0  0  0  0  0  0  0  0  0  0  0
   12.6220  -11.8136    0.0000 H   0  0  0  0  0  0  0  0  0  0  0  0
   13.4496  -12.1032    0.0000 H   0  0  0  0  0  0  0  0  0  0  0  0
   13.7392  -11.2756    0.0000 H   0  0  0  0  0  0  0  0  0  0  0  0
    8.0916    1.1423    0.0000 H   0  0  0  0  0  0  0  0  0  0  0  0
    7.6931    1.8326    0.0000 H   0  0  0  0  0  0  0  0  0  0  0  0
    7.7365   -1.1423    0.0000 H   0  0  0  0  0  0  0  0  0  0  0  0
    8.1350   -1.8326    0.0000 H   0  0  0  0  0  0  0  0  0  0  0  0
    6.0044    1.8577    0.0000 H   0  0  0  0  0  0  0  0  0  0  0  0
    6.4030    1.1674    0.0000 H   0  0  0  0  0  0  0  0  0  0  0  0
    9.8236   -1.8577    0.0000 H   0  0  0  0  0  0  0  0  0  0  0  0
    9.4251   -1.1674    0.0000 H   0  0  0  0  0  0  0  0  0  0  0  0
    7.2256    2.6423    0.0000 H   0  0  0  0  0  0  0  0  0  0  0  0
    6.8271    3.3326    0.0000 H   0  0  0  0  0  0  0  0  0  0  0  0
    8.6025   -2.6423    0.0000 H   0  0  0  0  0  0  0  0  0  0  0  0
    9.0010   -3.3326    0.0000 H   0  0  0  0  0  0  0  0  0  0  0  0
    5.1384    3.3577    0.0000 H   0  0  0  0  0  0  0  0  0  0  0  0
    5.5369    2.6674    0.0000 H   0  0  0  0  0  0  0  0  0  0  0  0
   10.6897   -3.3577    0.0000 H   0  0  0  0  0  0  0  0  0  0  0  0
   10.2911   -2.6674    0.0000 H   0  0  0  0  0  0  0  0  0  0  0  0
    2.6380    8.0872    0.0000 H   0  0  0  0  0  0  0  0  0  0  0  0
   13.1900   -8.0872    0.0000 H   0  0  0  0  0  0  0  0  0  0  0  0
    4.3460    4.4400    0.0000 H   0  0  0  0  0  0  0  0  0  0  0  0
   11.4820   -4.4400    0.0000 H   0  0  0  0  0  0  0  0  0  0  0  0
    3.3744    4.8609    0.0000 H   0  0  0  0  0  0  0  0  0  0  0  0
   12.4537   -4.8609    0.0000 H   0  0  0  0  0  0  0  0  0  0  0  0
    1.4083    6.9636    0.0000 H   0  0  0  0  0  0  0  0  0  0  0  0
   14.4198   -6.9636    0.0000 H   0  0  0  0  0  0  0  0  0  0  0  0
    6.3916    4.8609    0.0000 H   0  0  0  0  0  0  0  0  0  0  0  0
    9.4365   -4.8609    0.0000 H   0  0  0  0  0  0  0  0  0  0  0  0
    1.7789    5.3396    0.0000 H   0  0  0  0  0  0  0  0  0  0  0  0
   14.0492   -5.3396    0.0000 H   0  0  0  0  0  0  0  0  0  0  0  0
    7.1280    8.0872    0.0000 H   0  0  0  0  0  0  0  0  0  0  0  0
    8.7001   -8.0872    0.0000 H   0  0  0  0  0  0  0  0  0  0  0  0
    7.9871    5.3396    0.0000 H   0  0  0  0  0  0  0  0  0  0  0  0
    7.8410   -5.3396    0.0000 H   0  0  0  0  0  0  0  0  0  0  0  0
  1 61  1  0  0  0  0
  2 62  1  0  0  0  0
  3 49  2  0  0  0  0
  4 50  2  0  0  0  0
  5 15  1  0  0  0  0
  5 16  1  0  0  0  0
  5 23  1  0  0  0  0
  6 17  1  0  0  0  0
  6 18  1  0  0  0  0
  6 24  1  0  0  0  0
  7 19  1  0  0  0  0
  7 20  1  0  0  0  0
  7 29  1  0  0  0  0
  8 21  1  0  0  0  0
  8 22  1  0  0  0  0
  8 30  1  0  0  0  0
  9 13  1  0  0  0  0
  9 35  1  0  0  0  0
  9 39  1  0  0  0  0
 10 14  1  0  0  0  0
 10 36  1  0  0  0  0
 10 40  1  0  0  0  0
 11 23  2  0  0  0  0
 11 41  1  0  0  0  0
 12 24  2  0  0  0  0
 12 42  1  0  0  0  0
 13 49  1  0  0  0  0
 13107  1  0  0  0  0
 14 50  1  0  0  0  0
 14108  1  0  0  0  0
 15 19  1  0  0  0  0
 15 63  1  0  0  0  0
 15 64  1  0  0  0  0
 16 20  1  0  0  0  0
 16 65  1  0  0  0  0
 16 66  1  0  0  0  0
 17 21  1  0  0  0  0
 17 67  1  0  0  0  0
 17 68  1  0  0  0  0
 18 22  1  0  0  0  0
 18 69  1  0  0  0  0
 18 70  1  0  0  0  0
 19 71  1  0  0  0  0
 19 72  1  0  0  0  0
 20 73  1  0  0  0  0
 20 74  1  0  0  0  0
 21 75  1  0  0  0  0
 21 76  1  0  0  0  0
 22 77  1  0  0  0  0
 22 78  1  0  0  0  0
 23 25  1  0  0  0  0
 24 26  1  0  0  0  0
 25 35  1  0  0  0  0
 25 45  2  0  0  0  0
 26 36  1  0  0  0  0
 26 46  2  0  0  0  0
 27 28  1  0  0  0  0
 27 31  1  0  0  0  0
 27 79  1  0  0  0  0
 27 80  1  0  0  0  0
 28 32  1  0  0  0  0
 28 81  1  0  0  0  0
 28 82  1  0  0  0  0
 29 83  1  0  0  0  0
 29 84  1  0  0  0  0
 29 85  1  0  0  0  0
 30 86  1  0  0  0  0
 30 87  1  0  0  0  0
 30 88  1  0  0  0  0
 31 33  1  0  0  0  0
 31 89  1  0  0  0  0
 31 90  1  0  0  0  0
 32 34  1  0  0  0  0
 32 91  1  0  0  0  0
 32 92  1  0  0  0  0
 33 37  1  0  0  0  0
 33 93  1  0  0  0  0
 33 94  1  0  0  0  0
 34 38  1  0  0  0  0
 34 95  1  0  0  0  0
 34 96  1  0  0  0  0
 35 47  2  0  0  0  0
 36 48  2  0  0  0  0
 37 43  1  0  0  0  0
 37 97  1  0  0  0  0
 37 98  1  0  0  0  0
 38 44  1  0  0  0  0
 38 99  1  0  0  0  0
 38100  1  0  0  0  0
 39 41  2  0  0  0  0
 39 53  1  0  0  0  0
 40 42  2  0  0  0  0
 40 54  1  0  0  0  0
 41 57  1  0  0  0  0
 42 58  1  0  0  0  0
 43 49  1  0  0  0  0
 43101  1  0  0  0  0
 43102  1  0  0  0  0
 44 50  1  0  0  0  0
 44103  1  0  0  0  0
 44104  1  0  0  0  0
 45 51  1  0  0  0  0
 45105  1  0  0  0  0
 46 52  1  0  0  0  0
 46106  1  0  0  0  0
 47 55  1  0  0  0  0
 47109  1  0  0  0  0
 48 56  1  0  0  0  0
 48110  1  0  0  0  0
 51 55  2  0  0  0  0
 51111  1  0  0  0  0
 52 56  2  0  0  0  0
 52112  1  0  0  0  0
 53 59  2  0  0  0  0
 53113  1  0  0  0  0
 54 60  2  0  0  0  0
 54114  1  0  0  0  0
 55115  1  0  0  0  0
 56116  1  0  0  0  0
 57 61  2  0  0  0  0
 57117  1  0  0  0  0
 58 62  2  0  0  0  0
 58118  1  0  0  0  0
 59 61  1  0  0  0  0
 59119  1  0  0  0  0
 60 62  1  0  0  0  0
 60120  1  0  0  0  0
M  END
> <PUBCHEM_COMPOUND_CID>
57326984

> <PUBCHEM_COMPOUND_CANONICALIZED>
1

> <PUBCHEM_CACTVS_COMPLEXITY>
1410

> <PUBCHEM_CACTVS_HBOND_ACCEPTOR>
8

> <PUBCHEM_CACTVS_HBOND_DONOR>
2

> <PUBCHEM_CACTVS_ROTATABLE_BOND>
15

> <PUBCHEM_CACTVS_SUBSKEYS>
AAADcfB/8AAGAAAAAAAAAAAAAAAAAAAAAAA8eMGCBAgAAAABVAAAHgIYAAAADArBmCQzwINiAACoAidydACCBAEhBwAbqAEodpgIYPLB25GUIAhgkADIyAcYiICOAABAAAICACAAAIAABAQAQAAAAAAAAA==

> <PUBCHEM_IUPAC_OPENEYE_NAME>
N,N'-bis[3-chloro-6-(4-methylpiperazin-1-yl)benzo[b][1,4]benzodiazepin-11-yl]dodecanediamide

> <PUBCHEM_IUPAC_CAS_NAME>
N,N'-bis[3-chloro-6-(4-methyl-1-piperazinyl)-11-benzo[b][1,4]benzodiazepinyl]dodecanediamide

> <PUBCHEM_IUPAC_NAME_MARKUP>
<I>N</I>,<I>N</I>&apos;-bis[3-chloro-6-(4-methylpiperazin-1-yl)benzo[b][1,4]benzodiazepin-11-yl]dodecanediamide

> <PUBCHEM_IUPAC_NAME>
N,N'-bis[3-chloro-6-(4-methylpiperazin-1-yl)benzo[b][1,4]benzodiazepin-11-yl]dodecanediamide

> <PUBCHEM_IUPAC_SYSTEMATIC_NAME>
N,N'-bis[3-chloranyl-6-(4-methylpiperazin-1-yl)benzo[b][1,4]benzodiazepin-11-yl]dodecanediamide

> <PUBCHEM_IUPAC_TRADITIONAL_NAME>
N,N'-bis[3-chloro-6-(4-methylpiperazino)benzo[b][1,4]benzodiazepin-11-yl]dodecanediamide

> <PUBCHEM_IUPAC_INCHI>
InChI=1S/C48H58Cl2N10O2/c1-55-25-29-57(30-26-55)47-37-15-11-13-17-41(37)59(43-23-21-35(49)33-39(43)51-47)53-45(61)19-9-7-5-3-4-6-8-10-20-46(62)54-60-42-18-14-12-16-38(42)48(58-31-27-56(2)28-32-58)52-40-34-36(50)22-24-44(40)60/h11-18,21-24,33-34H,3-10,19-20,25-32H2,1-2H3,(H,53,61)(H,54,62)

> <PUBCHEM_IUPAC_INCHIKEY>
JBVBKQZXRVDVKV-UHFFFAOYSA-N

> <PUBCHEM_XLOGP3_AA>
9.1

> <PUBCHEM_EXACT_MASS>
876.4121265

> <PUBCHEM_MOLECULAR_FORMULA>
C48H58Cl2N10O2

> <PUBCHEM_MOLECULAR_WEIGHT>
877.9

> <PUBCHEM_OPENEYE_CAN_SMILES>
CN1CCN(CC1)C2=NC3=C(C=CC(=C3)Cl)N(C4=CC=CC=C42)NC(=O)CCCCCCCCCCC(=O)NN5C6=C(C=C(C=C6)Cl)N=C(C7=CC=CC=C75)N8CCN(CC8)C

> <PUBCHEM_OPENEYE_ISO_SMILES>
CN1CCN(CC1)C2=NC3=C(C=CC(=C3)Cl)N(C4=CC=CC=C42)NC(=O)CCCCCCCCCCC(=O)NN5C6=C(C=C(C=C6)Cl)N=C(C7=CC=CC=C75)N8CCN(CC8)C

> <PUBCHEM_CACTVS_TPSA>
102

> <PUBCHEM_MONOISOTOPIC_WEIGHT>
876.4121265

> <PUBCHEM_TOTAL_CHARGE>
0

> <PUBCHEM_HEAVY_ATOM_COUNT>
62

> <PUBCHEM_ATOM_DEF_STEREO_COUNT>
0

> <PUBCHEM_ATOM_UDEF_STEREO_COUNT>
0

> <PUBCHEM_BOND_DEF_STEREO_COUNT>
0

> <PUBCHEM_BOND_UDEF_STEREO_COUNT>
0

> <PUBCHEM_ISOTOPIC_ATOM_COUNT>
0

> <PUBCHEM_COMPONENT_COUNT>
1

> <PUBCHEM_CACTVS_TAUTO_COUNT>
-1

> <PUBCHEM_COORDINATE_TYPE>
1
5
255

> <PUBCHEM_BONDANNOTATIONS>
25  35  8
25  45  8
26  36  8
26  46  8
35  47  8
36  48  8
39  41  8
39  53  8
40  42  8
40  54  8
41  57  8
42  58  8
45  51  8
46  52  8
47  55  8
48  56  8
51  55  8
52  56  8
53  59  8
54  60  8
57  61  8
58  62  8
59  61  8
60  62  8

$$$$
