15817169
  -OEChem-09292322202D

 59 63  0     0  0  0  0  0  0999 V2000
   17.2619   -2.4291    0.0000 Cl  0  0  0  0  0  0  0  0  0  0  0  0
    9.2619    1.0350    0.0000 O   0  0  0  0  0  0  0  0  0  0  0  0
   12.2619   -0.6970    0.0000 N   0  0  0  0  0  0  0  0  0  0  0  0
   14.2619   -0.6970    0.0000 N   0  0  0  0  0  0  0  0  0  0  0  0
    4.6783    1.8398    0.0000 N   0  0  0  0  0  0  0  0  0  0  0  0
    4.6783    0.2303    0.0000 N   0  0  0  0  0  0  0  0  0  0  0  0
   12.7619    0.1690    0.0000 C   0  0  0  0  0  0  0  0  0  0  0  0
   12.7619   -1.5630    0.0000 C   0  0  0  0  0  0  0  0  0  0  0  0
   13.7619    0.1690    0.0000 C   0  0  0  0  0  0  0  0  0  0  0  0
   13.7619   -1.5630    0.0000 C   0  0  0  0  0  0  0  0  0  0  0  0
   11.2619   -0.6970    0.0000 C   0  0  0  0  0  0  0  0  0  0  0  0
   10.7619    0.1690    0.0000 C   0  0  0  0  0  0  0  0  0  0  0  0
   15.2619   -0.6970    0.0000 C   0  0  0  0  0  0  0  0  0  0  0  0
    9.7619    0.1690    0.0000 C   0  0  0  0  0  0  0  0  0  0  0  0
   15.7619   -1.5630    0.0000 C   0  0  0  0  0  0  0  0  0  0  0  0
   15.7619    0.1690    0.0000 C   0  0  0  0  0  0  0  0  0  0  0  0
   16.7619   -1.5630    0.0000 C   0  0  0  0  0  0  0  0  0  0  0  0
   16.7619    0.1690    0.0000 C   0  0  0  0  0  0  0  0  0  0  0  0
   17.2619   -0.6970    0.0000 C   0  0  0  0  0  0  0  0  0  0  0  0
    8.2619    1.0350    0.0000 C   0  0  0  0  0  0  0  0  0  0  0  0
    6.2619    1.0350    0.0000 C   0  0  0  0  0  0  0  0  0  0  0  0
    7.7619    0.1690    0.0000 C   0  0  0  0  0  0  0  0  0  0  0  0
    7.7619    1.9010    0.0000 C   0  0  0  0  0  0  0  0  0  0  0  0
    5.2619    1.0350    0.0000 C   0  0  0  0  0  0  0  0  0  0  0  0
    6.7619    0.1690    0.0000 C   0  0  0  0  0  0  0  0  0  0  0  0
    6.7619    1.9010    0.0000 C   0  0  0  0  0  0  0  0  0  0  0  0
    3.7320    1.5350    0.0000 C   0  0  0  0  0  0  0  0  0  0  0  0
    3.7320    0.5350    0.0000 C   0  0  0  0  0  0  0  0  0  0  0  0
    2.8660    2.0350    0.0000 C   0  0  0  0  0  0  0  0  0  0  0  0
    2.8660    0.0350    0.0000 C   0  0  0  0  0  0  0  0  0  0  0  0
    2.0000    1.5350    0.0000 C   0  0  0  0  0  0  0  0  0  0  0  0
    2.0000    0.5350    0.0000 C   0  0  0  0  0  0  0  0  0  0  0  0
   12.8695    0.7796    0.0000 H   0  0  0  0  0  0  0  0  0  0  0  0
   12.1793    0.3810    0.0000 H   0  0  0  0  0  0  0  0  0  0  0  0
   12.1793   -1.7751    0.0000 H   0  0  0  0  0  0  0  0  0  0  0  0
   12.8695   -2.1736    0.0000 H   0  0  0  0  0  0  0  0  0  0  0  0
   14.3445    0.3810    0.0000 H   0  0  0  0  0  0  0  0  0  0  0  0
   13.6542    0.7796    0.0000 H   0  0  0  0  0  0  0  0  0  0  0  0
   13.6542   -2.1736    0.0000 H   0  0  0  0  0  0  0  0  0  0  0  0
   14.3445   -1.7751    0.0000 H   0  0  0  0  0  0  0  0  0  0  0  0
   10.6793   -0.9091    0.0000 H   0  0  0  0  0  0  0  0  0  0  0  0
   11.3695   -1.3076    0.0000 H   0  0  0  0  0  0  0  0  0  0  0  0
   11.3445    0.3810    0.0000 H   0  0  0  0  0  0  0  0  0  0  0  0
   10.6542    0.7796    0.0000 H   0  0  0  0  0  0  0  0  0  0  0  0
    9.1793   -0.0431    0.0000 H   0  0  0  0  0  0  0  0  0  0  0  0
    9.8695   -0.4416    0.0000 H   0  0  0  0  0  0  0  0  0  0  0  0
   15.4519   -2.1000    0.0000 H   0  0  0  0  0  0  0  0  0  0  0  0
   15.4519    0.7059    0.0000 H   0  0  0  0  0  0  0  0  0  0  0  0
   17.0719    0.7059    0.0000 H   0  0  0  0  0  0  0  0  0  0  0  0
   17.8819   -0.6970    0.0000 H   0  0  0  0  0  0  0  0  0  0  0  0
    8.0719   -0.3679    0.0000 H   0  0  0  0  0  0  0  0  0  0  0  0
    8.0719    2.4380    0.0000 H   0  0  0  0  0  0  0  0  0  0  0  0
    6.4519   -0.3679    0.0000 H   0  0  0  0  0  0  0  0  0  0  0  0
    6.4519    2.4380    0.0000 H   0  0  0  0  0  0  0  0  0  0  0  0
    4.8709    2.4291    0.0000 H   0  0  0  0  0  0  0  0  0  0  0  0
    2.8660    2.6550    0.0000 H   0  0  0  0  0  0  0  0  0  0  0  0
    2.8660   -0.5850    0.0000 H   0  0  0  0  0  0  0  0  0  0  0  0
    1.4631    1.8450    0.0000 H   0  0  0  0  0  0  0  0  0  0  0  0
    1.4631    0.2250    0.0000 H   0  0  0  0  0  0  0  0  0  0  0  0
  1 17  1  0  0  0  0
  2 14  1  0  0  0  0
  2 20  1  0  0  0  0
  3  7  1  0  0  0  0
  3  8  1  0  0  0  0
  3 11  1  0  0  0  0
  4  9  1  0  0  0  0
  4 10  1  0  0  0  0
  4 13  1  0  0  0  0
  5 24  1  0  0  0  0
  5 27  1  0  0  0  0
  5 55  1  0  0  0  0
  6 24  2  0  0  0  0
  6 28  1  0  0  0  0
  7  9  1  0  0  0  0
  7 33  1  0  0  0  0
  7 34  1  0  0  0  0
  8 10  1  0  0  0  0
  8 35  1  0  0  0  0
  8 36  1  0  0  0  0
  9 37  1  0  0  0  0
  9 38  1  0  0  0  0
 10 39  1  0  0  0  0
 10 40  1  0  0  0  0
 11 12  1  0  0  0  0
 11 41  1  0  0  0  0
 11 42  1  0  0  0  0
 12 14  1  0  0  0  0
 12 43  1  0  0  0  0
 12 44  1  0  0  0  0
 13 15  2  0  0  0  0
 13 16  1  0  0  0  0
 14 45  1  0  0  0  0
 14 46  1  0  0  0  0
 15 17  1  0  0  0  0
 15 47  1  0  0  0  0
 16 18  2  0  0  0  0
 16 48  1  0  0  0  0
 17 19  2  0  0  0  0
 18 19  1  0  0  0  0
 18 49  1  0  0  0  0
 19 50  1  0  0  0  0
 20 22  2  0  0  0  0
 20 23  1  0  0  0  0
 21 24  1  0  0  0  0
 21 25  2  0  0  0  0
 21 26  1  0  0  0  0
 22 25  1  0  0  0  0
 22 51  1  0  0  0  0
 23 26  2  0  0  0  0
 23 52  1  0  0  0  0
 25 53  1  0  0  0  0
 26 54  1  0  0  0  0
 27 28  1  0  0  0  0
 27 29  2  0  0  0  0
 28 30  2  0  0  0  0
 29 31  1  0  0  0  0
 29 56  1  0  0  0  0
 30 32  1  0  0  0  0
 30 57  1  0  0  0  0
 31 32  2  0  0  0  0
 31 58  1  0  0  0  0
 32 59  1  0  0  0  0
M  END
> <PUBCHEM_COMPOUND_CID>
15817169

> <PUBCHEM_COMPOUND_CANONICALIZED>
1

> <PUBCHEM_CACTVS_COMPLEXITY>
564

> <PUBCHEM_CACTVS_HBOND_ACCEPTOR>
4

> <PUBCHEM_CACTVS_HBOND_DONOR>
1

> <PUBCHEM_CACTVS_ROTATABLE_BOND>
7

> <PUBCHEM_CACTVS_SUBSKEYS>
AAADceB7oAAEAAAAAAAAAAAAAAAAAWAAAAA8YMEAAAAAAFgB9AAAHgIQAAAADA7hnyYx1rfJlACgAyZiZACCiC2hN6AJmSA+fpiMbqLFu5uWOCju0BPI6CeQ0AIOIAAAAAIAACBAAAAABAAAQAAAAAAAAA==

> <PUBCHEM_IUPAC_OPENEYE_NAME>
2-[4-[3-[4-(3-chlorophenyl)piperazin-1-yl]propoxy]phenyl]-1H-benzimidazole

> <PUBCHEM_IUPAC_CAS_NAME>
2-[4-[3-[4-(3-chlorophenyl)-1-piperazinyl]propoxy]phenyl]-1H-benzimidazole

> <PUBCHEM_IUPAC_NAME_MARKUP>
2-[4-[3-[4-(3-chlorophenyl)piperazin-1-yl]propoxy]phenyl]-1<I>H</I>-benzimidazole

> <PUBCHEM_IUPAC_NAME>
2-[4-[3-[4-(3-chlorophenyl)piperazin-1-yl]propoxy]phenyl]-1H-benzimidazole

> <PUBCHEM_IUPAC_SYSTEMATIC_NAME>
2-[4-[3-[4-(3-chlorophenyl)piperazin-1-yl]propoxy]phenyl]-1H-benzimidazole

> <PUBCHEM_IUPAC_TRADITIONAL_NAME>
2-[4-[3-[4-(3-chlorophenyl)piperazino]propoxy]phenyl]-1H-benzimidazole

> <PUBCHEM_IUPAC_INCHI>
InChI=1S/C26H27ClN4O/c27-21-5-3-6-22(19-21)31-16-14-30(15-17-31)13-4-18-32-23-11-9-20(10-12-23)26-28-24-7-1-2-8-25(24)29-26/h1-3,5-12,19H,4,13-18H2,(H,28,29)

> <PUBCHEM_IUPAC_INCHIKEY>
KHGQUBQJPRFGKU-UHFFFAOYSA-N

> <PUBCHEM_XLOGP3_AA>
5.7

> <PUBCHEM_EXACT_MASS>
446.1873392

> <PUBCHEM_MOLECULAR_FORMULA>
C26H27ClN4O

> <PUBCHEM_MOLECULAR_WEIGHT>
447.0

> <PUBCHEM_OPENEYE_CAN_SMILES>
C1CN(CCN1CCCOC2=CC=C(C=C2)C3=NC4=CC=CC=C4N3)C5=CC(=CC=C5)Cl

> <PUBCHEM_OPENEYE_ISO_SMILES>
C1CN(CCN1CCCOC2=CC=C(C=C2)C3=NC4=CC=CC=C4N3)C5=CC(=CC=C5)Cl

> <PUBCHEM_CACTVS_TPSA>
44.4

> <PUBCHEM_MONOISOTOPIC_WEIGHT>
446.1873392

> <PUBCHEM_TOTAL_CHARGE>
0

> <PUBCHEM_HEAVY_ATOM_COUNT>
32

> <PUBCHEM_ATOM_DEF_STEREO_COUNT>
0

> <PUBCHEM_ATOM_UDEF_STEREO_COUNT>
0

> <PUBCHEM_BOND_DEF_STEREO_COUNT>
0

> <PUBCHEM_BOND_UDEF_STEREO_COUNT>
0

> <PUBCHEM_ISOTOPIC_ATOM_COUNT>
0

> <PUBCHEM_COMPONENT_COUNT>
1

> <PUBCHEM_CACTVS_TAUTO_COUNT>
-1

> <PUBCHEM_COORDINATE_TYPE>
1
5
255

> <PUBCHEM_BONDANNOTATIONS>
13  15  8
13  16  8
15  17  8
16  18  8
17  19  8
18  19  8
20  22  8
20  23  8
21  25  8
21  26  8
22  25  8
23  26  8
27  28  8
27  29  8
28  30  8
29  31  8
30  32  8
31  32  8
5  24  8
5  27  8
6  24  8
6  28  8

$$$$
