127037681
  -OEChem-09292322362D

 58 60  0     0  0  0  0  0  0999 V2000
    6.3301    3.6488    0.0000 S   0  0  0  0  0  0  0  0  0  0  0  0
    4.5981   -2.3512    0.0000 O   0  0  0  0  0  0  0  0  0  0  0  0
    5.8301    4.5148    0.0000 O   0  0  0  0  0  0  0  0  0  0  0  0
    6.8301    2.7828    0.0000 O   0  0  0  0  0  0  0  0  0  0  0  0
    5.4641    0.1488    0.0000 N   0  0  0  0  0  0  0  0  0  0  0  0
    5.4641    3.1488    0.0000 N   0  0  0  0  0  0  0  0  0  0  0  0
    8.7788    4.4852    0.0000 N   0  0  0  0  0  0  0  0  0  0  0  0
    8.2788    5.3512    0.0000 N   0  0  0  0  0  0  0  0  0  0  0  0
    5.4641    2.1488    0.0000 C   0  0  0  0  0  0  0  0  0  0  0  0
    4.5981    1.6488    0.0000 C   0  0  0  0  0  0  0  0  0  0  0  0
    6.3301    1.6488    0.0000 C   0  0  0  0  0  0  0  0  0  0  0  0
    4.5981    0.6488    0.0000 C   0  0  0  0  0  0  0  0  0  0  0  0
    6.3301    0.6488    0.0000 C   0  0  0  0  0  0  0  0  0  0  0  0
    5.4641   -0.8512    0.0000 C   0  0  0  0  0  0  0  0  0  0  0  0
    4.5981   -1.3512    0.0000 C   0  0  0  0  0  0  0  0  0  0  0  0
    7.1962    4.1488    0.0000 C   0  0  0  0  0  0  0  0  0  0  0  0
    3.7320   -2.8512    0.0000 C   0  0  0  0  0  0  0  0  0  0  0  0
    8.1097    3.7420    0.0000 C   0  0  0  0  0  0  0  0  0  0  0  0
    7.3007    5.1433    0.0000 C   0  0  0  0  0  0  0  0  0  0  0  0
    3.7320   -3.8512    0.0000 C   0  0  0  0  0  0  0  0  0  0  0  0
    4.5981   -4.3512    0.0000 C   0  0  0  0  0  0  0  0  0  0  0  0
    2.8660   -2.3512    0.0000 C   0  0  0  0  0  0  0  0  0  0  0  0
    2.8660   -4.3512    0.0000 C   0  0  0  0  0  0  0  0  0  0  0  0
    4.5981   -5.3512    0.0000 C   0  0  0  0  0  0  0  0  0  0  0  0
    5.4641   -3.8512    0.0000 C   0  0  0  0  0  0  0  0  0  0  0  0
    2.0000   -2.8512    0.0000 C   0  0  0  0  0  0  0  0  0  0  0  0
    9.7734    4.3807    0.0000 C   0  0  0  0  0  0  0  0  0  0  0  0
    2.0000   -3.8512    0.0000 C   0  0  0  0  0  0  0  0  0  0  0  0
    6.0010    2.4588    0.0000 H   0  0  0  0  0  0  0  0  0  0  0  0
    4.3860    2.2314    0.0000 H   0  0  0  0  0  0  0  0  0  0  0  0
    3.9875    1.5411    0.0000 H   0  0  0  0  0  0  0  0  0  0  0  0
    6.9407    1.5411    0.0000 H   0  0  0  0  0  0  0  0  0  0  0  0
    6.5422    2.2314    0.0000 H   0  0  0  0  0  0  0  0  0  0  0  0
    3.9875    0.7564    0.0000 H   0  0  0  0  0  0  0  0  0  0  0  0
    4.3860    0.0662    0.0000 H   0  0  0  0  0  0  0  0  0  0  0  0
    6.5422    0.0662    0.0000 H   0  0  0  0  0  0  0  0  0  0  0  0
    6.9407    0.7564    0.0000 H   0  0  0  0  0  0  0  0  0  0  0  0
    5.6762   -1.4338    0.0000 H   0  0  0  0  0  0  0  0  0  0  0  0
    6.0747   -0.7436    0.0000 H   0  0  0  0  0  0  0  0  0  0  0  0
    4.9272    3.4588    0.0000 H   0  0  0  0  0  0  0  0  0  0  0  0
    4.3860   -0.7686    0.0000 H   0  0  0  0  0  0  0  0  0  0  0  0
    3.9875   -1.4589    0.0000 H   0  0  0  0  0  0  0  0  0  0  0  0
    8.2386    3.1356    0.0000 H   0  0  0  0  0  0  0  0  0  0  0  0
    6.8399    5.5582    0.0000 H   0  0  0  0  0  0  0  0  0  0  0  0
    4.5981   -3.7312    0.0000 H   0  0  0  0  0  0  0  0  0  0  0  0
    2.8660   -1.7312    0.0000 H   0  0  0  0  0  0  0  0  0  0  0  0
    2.8660   -4.9712    0.0000 H   0  0  0  0  0  0  0  0  0  0  0  0
    3.9781   -5.3512    0.0000 H   0  0  0  0  0  0  0  0  0  0  0  0
    4.5981   -5.9712    0.0000 H   0  0  0  0  0  0  0  0  0  0  0  0
    5.2181   -5.3512    0.0000 H   0  0  0  0  0  0  0  0  0  0  0  0
    5.7741   -4.3882    0.0000 H   0  0  0  0  0  0  0  0  0  0  0  0
    6.0010   -3.5412    0.0000 H   0  0  0  0  0  0  0  0  0  0  0  0
    5.1541   -3.3143    0.0000 H   0  0  0  0  0  0  0  0  0  0  0  0
    1.4631   -2.5412    0.0000 H   0  0  0  0  0  0  0  0  0  0  0  0
    9.7085    3.7641    0.0000 H   0  0  0  0  0  0  0  0  0  0  0  0
   10.3900    4.3159    0.0000 H   0  0  0  0  0  0  0  0  0  0  0  0
    9.8382    4.9973    0.0000 H   0  0  0  0  0  0  0  0  0  0  0  0
    1.4631   -4.1612    0.0000 H   0  0  0  0  0  0  0  0  0  0  0  0
  1  3  2  0  0  0  0
  1  4  2  0  0  0  0
  1  6  1  0  0  0  0
  1 16  1  0  0  0  0
  2 15  1  0  0  0  0
  2 17  1  0  0  0  0
  5 12  1  0  0  0  0
  5 13  1  0  0  0  0
  5 14  1  0  0  0  0
  6  9  1  0  0  0  0
  6 40  1  0  0  0  0
  7  8  1  0  0  0  0
  7 18  1  0  0  0  0
  7 27  1  0  0  0  0
  8 19  2  0  0  0  0
  9 10  1  0  0  0  0
  9 11  1  0  0  0  0
  9 29  1  0  0  0  0
 10 12  1  0  0  0  0
 10 30  1  0  0  0  0
 10 31  1  0  0  0  0
 11 13  1  0  0  0  0
 11 32  1  0  0  0  0
 11 33  1  0  0  0  0
 12 34  1  0  0  0  0
 12 35  1  0  0  0  0
 13 36  1  0  0  0  0
 13 37  1  0  0  0  0
 14 15  1  0  0  0  0
 14 38  1  0  0  0  0
 14 39  1  0  0  0  0
 15 41  1  0  0  0  0
 15 42  1  0  0  0  0
 16 18  2  0  0  0  0
 16 19  1  0  0  0  0
 17 20  1  0  0  0  0
 17 22  2  0  0  0  0
 18 43  1  0  0  0  0
 19 44  1  0  0  0  0
 20 21  1  0  0  0  0
 20 23  2  0  0  0  0
 21 24  1  0  0  0  0
 21 25  1  0  0  0  0
 21 45  1  0  0  0  0
 22 26  1  0  0  0  0
 22 46  1  0  0  0  0
 23 28  1  0  0  0  0
 23 47  1  0  0  0  0
 24 48  1  0  0  0  0
 24 49  1  0  0  0  0
 24 50  1  0  0  0  0
 25 51  1  0  0  0  0
 25 52  1  0  0  0  0
 25 53  1  0  0  0  0
 26 28  2  0  0  0  0
 26 54  1  0  0  0  0
 27 55  1  0  0  0  0
 27 56  1  0  0  0  0
 27 57  1  0  0  0  0
 28 58  1  0  0  0  0
M  END
> <PUBCHEM_COMPOUND_CID>
127037681

> <PUBCHEM_COMPOUND_CANONICALIZED>
1

> <PUBCHEM_CACTVS_COMPLEXITY>
573

> <PUBCHEM_CACTVS_HBOND_ACCEPTOR>
6

> <PUBCHEM_CACTVS_HBOND_DONOR>
1

> <PUBCHEM_CACTVS_ROTATABLE_BOND>
8

> <PUBCHEM_CACTVS_SUBSKEYS>
AAADceB7sABAAAAAAAAAAAAAAAAAAWAAAAA8QAAAAAAAAAABwAAAHgQYQAAADSzh2gY+h5NIBAKiAjBnRHDSDBAxoAAY2KwuTJgOJqLE8VqHvCik2BHYqAeQwOAOgAAAAAAIAAAAAAAAABAAAAAAAAAAAA==

> <PUBCHEM_IUPAC_OPENEYE_NAME>
N-[1-[2-(2-isopropylphenoxy)ethyl]-4-piperidyl]-1-methyl-pyrazole-4-sulfonamide

> <PUBCHEM_IUPAC_CAS_NAME>
1-methyl-N-[1-[2-(2-propan-2-ylphenoxy)ethyl]-4-piperidinyl]-4-pyrazolesulfonamide

> <PUBCHEM_IUPAC_NAME_MARKUP>
1-methyl-<I>N</I>-[1-[2-(2-propan-2-ylphenoxy)ethyl]piperidin-4-yl]pyrazole-4-sulfonamide

> <PUBCHEM_IUPAC_NAME>
1-methyl-N-[1-[2-(2-propan-2-ylphenoxy)ethyl]piperidin-4-yl]pyrazole-4-sulfonamide

> <PUBCHEM_IUPAC_SYSTEMATIC_NAME>
1-methyl-N-[1-[2-(2-propan-2-ylphenoxy)ethyl]piperidin-4-yl]pyrazole-4-sulfonamide

> <PUBCHEM_IUPAC_TRADITIONAL_NAME>
N-[1-[2-(2-isopropylphenoxy)ethyl]-4-piperidyl]-1-methyl-pyrazole-4-sulfonamide

> <PUBCHEM_IUPAC_INCHI>
InChI=1S/C20H30N4O3S/c1-16(2)19-6-4-5-7-20(19)27-13-12-24-10-8-17(9-11-24)22-28(25,26)18-14-21-23(3)15-18/h4-7,14-17,22H,8-13H2,1-3H3

> <PUBCHEM_IUPAC_INCHIKEY>
DHICCJDVBYVTJF-UHFFFAOYSA-N

> <PUBCHEM_XLOGP3_AA>
2.6

> <PUBCHEM_EXACT_MASS>
406.20386201

> <PUBCHEM_MOLECULAR_FORMULA>
C20H30N4O3S

> <PUBCHEM_MOLECULAR_WEIGHT>
406.5

> <PUBCHEM_OPENEYE_CAN_SMILES>
CC(C)C1=CC=CC=C1OCCN2CCC(CC2)NS(=O)(=O)C3=CN(N=C3)C

> <PUBCHEM_OPENEYE_ISO_SMILES>
CC(C)C1=CC=CC=C1OCCN2CCC(CC2)NS(=O)(=O)C3=CN(N=C3)C

> <PUBCHEM_CACTVS_TPSA>
84.8

> <PUBCHEM_MONOISOTOPIC_WEIGHT>
406.20386201

> <PUBCHEM_TOTAL_CHARGE>
0

> <PUBCHEM_HEAVY_ATOM_COUNT>
28

> <PUBCHEM_ATOM_DEF_STEREO_COUNT>
0

> <PUBCHEM_ATOM_UDEF_STEREO_COUNT>
0

> <PUBCHEM_BOND_DEF_STEREO_COUNT>
0

> <PUBCHEM_BOND_UDEF_STEREO_COUNT>
0

> <PUBCHEM_ISOTOPIC_ATOM_COUNT>
0

> <PUBCHEM_COMPONENT_COUNT>
1

> <PUBCHEM_CACTVS_TAUTO_COUNT>
-1

> <PUBCHEM_COORDINATE_TYPE>
1
5
255

> <PUBCHEM_BONDANNOTATIONS>
16  18  8
16  19  8
17  20  8
17  22  8
20  23  8
22  26  8
23  28  8
26  28  8
7  18  8
7  8  8
8  19  8

$$$$
