16049162
  -OEChem-09292322042D

 62 64  0     1  0  0  0  0  0999 V2000
    7.1962   -0.2780    0.0000 S   0  0  0  0  0  0  0  0  0  0  0  0
   11.6065   -4.9733    0.0000 S   0  0  0  0  0  0  0  0  0  0  0  0
    2.0000    7.7220    0.0000 F   0  0  0  0  0  0  0  0  0  0  0  0
    3.3660    8.0880    0.0000 F   0  0  0  0  0  0  0  0  0  0  0  0
    2.3660    6.3560    0.0000 F   0  0  0  0  0  0  0  0  0  0  0  0
   10.6603   -3.2780    0.0000 O   0  0  0  0  0  0  0  0  0  0  0  0
    9.7942   -7.7780    0.0000 O   0  0  0  0  0  0  0  0  0  0  0  0
   13.1901   -5.7780    0.0000 O   0  0  0  0  0  0  0  0  0  0  0  0
    8.9282   -2.2780    0.0000 N   0  0  0  0  0  0  0  0  0  0  0  0
    5.4641    2.7220    0.0000 N   0  0  0  0  0  0  0  0  0  0  0  0
   11.6065   -6.5828    0.0000 N   0  0  0  0  0  0  0  0  0  0  0  0
    9.7942   -3.7780    0.0000 C   0  0  1  0  0  0  0  0  0  0  0  0
    8.9282   -3.2780    0.0000 C   0  0  0  0  0  0  0  0  0  0  0  0
    9.7942   -4.7780    0.0000 C   0  0  0  0  0  0  0  0  0  0  0  0
   10.6603   -5.2780    0.0000 C   0  0  0  0  0  0  0  0  0  0  0  0
    8.0622   -1.7780    0.0000 C   0  0  0  0  0  0  0  0  0  0  0  0
    6.3301    1.2220    0.0000 C   0  0  0  0  0  0  0  0  0  0  0  0
    6.3301    2.2220    0.0000 C   0  0  0  0  0  0  0  0  0  0  0  0
    5.4641    3.7220    0.0000 C   0  0  0  0  0  0  0  0  0  0  0  0
   10.6603   -6.2780    0.0000 C   0  0  0  0  0  0  0  0  0  0  0  0
    4.5981    4.2220    0.0000 C   0  0  0  0  0  0  0  0  0  0  0  0
    7.1962    0.7220    0.0000 C   0  0  0  0  0  0  0  0  0  0  0  0
    8.0622   -0.7780    0.0000 C   0  0  0  0  0  0  0  0  0  0  0  0
    8.9282   -5.2780    0.0000 C   0  0  0  0  0  0  0  0  0  0  0  0
    9.7942   -6.7780    0.0000 C   0  0  0  0  0  0  0  0  0  0  0  0
    4.5981    5.2220    0.0000 C   0  0  0  0  0  0  0  0  0  0  0  0
    8.9282   -6.2780    0.0000 C   0  0  0  0  0  0  0  0  0  0  0  0
   12.1901   -5.7780    0.0000 C   0  0  0  0  0  0  0  0  0  0  0  0
    3.7320    5.7220    0.0000 C   0  0  0  0  0  0  0  0  0  0  0  0
    5.4641    5.7220    0.0000 C   0  0  0  0  0  0  0  0  0  0  0  0
    3.7320    6.7220    0.0000 C   0  0  0  0  0  0  0  0  0  0  0  0
    5.4641    6.7220    0.0000 C   0  0  0  0  0  0  0  0  0  0  0  0
    4.5981    7.2220    0.0000 C   0  0  0  0  0  0  0  0  0  0  0  0
    2.8660    7.2220    0.0000 C   0  0  0  0  0  0  0  0  0  0  0  0
    9.7942   -3.1580    0.0000 H   0  0  0  0  0  0  0  0  0  0  0  0
    8.3176   -3.1704    0.0000 H   0  0  0  0  0  0  0  0  0  0  0  0
    8.7162   -3.8606    0.0000 H   0  0  0  0  0  0  0  0  0  0  0  0
    7.4516   -1.6704    0.0000 H   0  0  0  0  0  0  0  0  0  0  0  0
    7.8501   -2.3606    0.0000 H   0  0  0  0  0  0  0  0  0  0  0  0
    5.7196    1.3296    0.0000 H   0  0  0  0  0  0  0  0  0  0  0  0
    6.1181    0.6394    0.0000 H   0  0  0  0  0  0  0  0  0  0  0  0
    9.4651   -1.9680    0.0000 H   0  0  0  0  0  0  0  0  0  0  0  0
    6.9407    2.1143    0.0000 H   0  0  0  0  0  0  0  0  0  0  0  0
    6.5422    2.8046    0.0000 H   0  0  0  0  0  0  0  0  0  0  0  0
    6.0747    3.6143    0.0000 H   0  0  0  0  0  0  0  0  0  0  0  0
    5.6762    4.3046    0.0000 H   0  0  0  0  0  0  0  0  0  0  0  0
    3.9875    4.3296    0.0000 H   0  0  0  0  0  0  0  0  0  0  0  0
    4.3860    3.6394    0.0000 H   0  0  0  0  0  0  0  0  0  0  0  0
    7.8067    0.6143    0.0000 H   0  0  0  0  0  0  0  0  0  0  0  0
    7.4082    1.3046    0.0000 H   0  0  0  0  0  0  0  0  0  0  0  0
    8.6728   -0.8857    0.0000 H   0  0  0  0  0  0  0  0  0  0  0  0
    8.2742   -0.1954    0.0000 H   0  0  0  0  0  0  0  0  0  0  0  0
    8.3913   -4.9680    0.0000 H   0  0  0  0  0  0  0  0  0  0  0  0
    4.9272    2.4120    0.0000 H   0  0  0  0  0  0  0  0  0  0  0  0
    8.3913   -6.5880    0.0000 H   0  0  0  0  0  0  0  0  0  0  0  0
   11.7991   -7.1721    0.0000 H   0  0  0  0  0  0  0  0  0  0  0  0
   10.6603   -2.6580    0.0000 H   0  0  0  0  0  0  0  0  0  0  0  0
    3.1951    5.4120    0.0000 H   0  0  0  0  0  0  0  0  0  0  0  0
    6.0010    5.4120    0.0000 H   0  0  0  0  0  0  0  0  0  0  0  0
    6.0010    7.0320    0.0000 H   0  0  0  0  0  0  0  0  0  0  0  0
    4.5981    7.8420    0.0000 H   0  0  0  0  0  0  0  0  0  0  0  0
    9.2573   -8.0880    0.0000 H   0  0  0  0  0  0  0  0  0  0  0  0
  1 22  1  0  0  0  0
  1 23  1  0  0  0  0
  2 15  1  0  0  0  0
  2 28  1  0  0  0  0
  3 34  1  0  0  0  0
  4 34  1  0  0  0  0
  5 34  1  0  0  0  0
 12  6  1  6  0  0  0
  6 57  1  0  0  0  0
  7 25  1  0  0  0  0
  7 62  1  0  0  0  0
  8 28  2  0  0  0  0
  9 13  1  0  0  0  0
  9 16  1  0  0  0  0
  9 42  1  0  0  0  0
 10 18  1  0  0  0  0
 10 19  1  0  0  0  0
 10 54  1  0  0  0  0
 11 20  1  0  0  0  0
 11 28  1  0  0  0  0
 11 56  1  0  0  0  0
 12 13  1  0  0  0  0
 12 14  1  0  0  0  0
 12 35  1  0  0  0  0
 13 36  1  0  0  0  0
 13 37  1  0  0  0  0
 14 15  2  0  0  0  0
 14 24  1  0  0  0  0
 15 20  1  0  0  0  0
 16 23  1  0  0  0  0
 16 38  1  0  0  0  0
 16 39  1  0  0  0  0
 17 18  1  0  0  0  0
 17 22  1  0  0  0  0
 17 40  1  0  0  0  0
 17 41  1  0  0  0  0
 18 43  1  0  0  0  0
 18 44  1  0  0  0  0
 19 21  1  0  0  0  0
 19 45  1  0  0  0  0
 19 46  1  0  0  0  0
 20 25  2  0  0  0  0
 21 26  1  0  0  0  0
 21 47  1  0  0  0  0
 21 48  1  0  0  0  0
 22 49  1  0  0  0  0
 22 50  1  0  0  0  0
 23 51  1  0  0  0  0
 23 52  1  0  0  0  0
 24 27  2  0  0  0  0
 24 53  1  0  0  0  0
 25 27  1  0  0  0  0
 26 29  2  0  0  0  0
 26 30  1  0  0  0  0
 27 55  1  0  0  0  0
 29 31  1  0  0  0  0
 29 58  1  0  0  0  0
 30 32  2  0  0  0  0
 30 59  1  0  0  0  0
 31 33  2  0  0  0  0
 31 34  1  0  0  0  0
 32 33  1  0  0  0  0
 32 60  1  0  0  0  0
 33 61  1  0  0  0  0
M  END
> <PUBCHEM_COMPOUND_CID>
16049162

> <PUBCHEM_COMPOUND_CANONICALIZED>
1

> <PUBCHEM_CACTVS_COMPLEXITY>
632

> <PUBCHEM_CACTVS_HBOND_ACCEPTOR>
10

> <PUBCHEM_CACTVS_HBOND_DONOR>
5

> <PUBCHEM_CACTVS_ROTATABLE_BOND>
13

> <PUBCHEM_CACTVS_SUBSKEYS>
AAADceB7MYBgAAAAAAAAAAAAAAAAAWAAAAAwYAAAAAAAAFgBQAAAHwQQCAAADBzl2Bawx4LAAgiIAiRCUACCAABhKBAIiJQPTIgKNiLykZOEcAhk1BH42Aew4OQOIAACRAAEEQBAAASIAAgiAAAAAAAAAA==

> <PUBCHEM_IUPAC_OPENEYE_NAME>
4-hydroxy-7-[(1R)-1-hydroxy-2-[2-[3-[2-[3-(trifluoromethyl)phenyl]ethylamino]propylsulfanyl]ethylamino]ethyl]-3H-1,3-benzothiazol-2-one

> <PUBCHEM_IUPAC_CAS_NAME>
4-hydroxy-7-[(1R)-1-hydroxy-2-[2-[3-[2-[3-(trifluoromethyl)phenyl]ethylamino]propylthio]ethylamino]ethyl]-3H-1,3-benzothiazol-2-one

> <PUBCHEM_IUPAC_NAME_MARKUP>
4-hydroxy-7-[(1<I>R</I>)-1-hydroxy-2-[2-[3-[2-[3-(trifluoromethyl)phenyl]ethylamino]propylsulfanyl]ethylamino]ethyl]-3<I>H</I>-1,3-benzothiazol-2-one

> <PUBCHEM_IUPAC_NAME>
4-hydroxy-7-[(1R)-1-hydroxy-2-[2-[3-[2-[3-(trifluoromethyl)phenyl]ethylamino]propylsulfanyl]ethylamino]ethyl]-3H-1,3-benzothiazol-2-one

> <PUBCHEM_IUPAC_SYSTEMATIC_NAME>
4-oxidanyl-7-[(1R)-1-oxidanyl-2-[2-[3-[2-[3-(trifluoromethyl)phenyl]ethylamino]propylsulfanyl]ethylamino]ethyl]-3H-1,3-benzothiazol-2-one

> <PUBCHEM_IUPAC_TRADITIONAL_NAME>
4-hydroxy-7-[(1R)-1-hydroxy-2-[2-[3-[2-[3-(trifluoromethyl)phenyl]ethylamino]propylthio]ethylamino]ethyl]-3H-1,3-benzothiazol-2-one

> <PUBCHEM_IUPAC_INCHI>
InChI=1S/C23H28F3N3O3S2/c24-23(25,26)16-4-1-3-15(13-16)7-9-27-8-2-11-33-12-10-28-14-19(31)17-5-6-18(30)20-21(17)34-22(32)29-20/h1,3-6,13,19,27-28,30-31H,2,7-12,14H2,(H,29,32)/t19-/m0/s1

> <PUBCHEM_IUPAC_INCHIKEY>
FKVLSJZELYFVGN-IBGZPJMESA-N

> <PUBCHEM_XLOGP3_AA>
3.5

> <PUBCHEM_EXACT_MASS>
515.15241860

> <PUBCHEM_MOLECULAR_FORMULA>
C23H28F3N3O3S2

> <PUBCHEM_MOLECULAR_WEIGHT>
515.6

> <PUBCHEM_OPENEYE_CAN_SMILES>
C1=CC(=CC(=C1)C(F)(F)F)CCNCCCSCCNCC(C2=C3C(=C(C=C2)O)NC(=O)S3)O

> <PUBCHEM_OPENEYE_ISO_SMILES>
C1=CC(=CC(=C1)C(F)(F)F)CCNCCCSCCNC[C@@H](C2=C3C(=C(C=C2)O)NC(=O)S3)O

> <PUBCHEM_CACTVS_TPSA>
144

> <PUBCHEM_MONOISOTOPIC_WEIGHT>
515.15241860

> <PUBCHEM_TOTAL_CHARGE>
0

> <PUBCHEM_HEAVY_ATOM_COUNT>
34

> <PUBCHEM_ATOM_DEF_STEREO_COUNT>
1

> <PUBCHEM_ATOM_UDEF_STEREO_COUNT>
0

> <PUBCHEM_BOND_DEF_STEREO_COUNT>
0

> <PUBCHEM_BOND_UDEF_STEREO_COUNT>
0

> <PUBCHEM_ISOTOPIC_ATOM_COUNT>
0

> <PUBCHEM_COMPONENT_COUNT>
1

> <PUBCHEM_CACTVS_TAUTO_COUNT>
-1

> <PUBCHEM_COORDINATE_TYPE>
1
5
255

> <PUBCHEM_BONDANNOTATIONS>
11  20  8
11  28  8
14  15  8
14  24  8
15  20  8
2  15  8
2  28  8
20  25  8
24  27  8
25  27  8
26  29  8
26  30  8
29  31  8
30  32  8
31  33  8
32  33  8
12  6  6

$$$$
