699517
  -OEChem-09292322082D

 35 38  0     0  0  0  0  0  0999 V2000
    4.5274    2.4445    0.0000 S   0  0  0  0  0  0  0  0  0  0  0  0
    5.3923   -0.8265    0.0000 N   0  0  0  0  0  0  0  0  0  0  0  0
    6.7328    0.3296    0.0000 N   0  0  0  0  0  0  0  0  0  0  0  0
    6.3518    2.0889    0.0000 N   0  0  0  0  0  0  0  0  0  0  0  0
    4.4378   -1.1245    0.0000 C   0  0  0  0  0  0  0  0  0  0  0  0
    5.9707   -1.6423    0.0000 C   0  0  0  0  0  0  0  0  0  0  0  0
    4.0274    0.9056    0.0000 C   0  0  0  0  0  0  0  0  0  0  0  0
    4.4262   -2.1245    0.0000 C   0  0  0  0  0  0  0  0  0  0  0  0
    5.3736   -2.4445    0.0000 C   0  0  0  0  0  0  0  0  0  0  0  0
    5.0274    0.9056    0.0000 C   0  0  0  0  0  0  0  0  0  0  0  0
    3.3424    0.1209    0.0000 C   0  0  0  0  0  0  0  0  0  0  0  0
    2.3219    0.3296    0.0000 C   0  0  0  0  0  0  0  0  0  0  0  0
    5.7123    0.1209    0.0000 C   0  0  0  0  0  0  0  0  0  0  0  0
    3.7183    1.8567    0.0000 C   0  0  0  0  0  0  0  0  0  0  0  0
    2.0000    1.3202    0.0000 C   0  0  0  0  0  0  0  0  0  0  0  0
    2.7029    2.0889    0.0000 C   0  0  0  0  0  0  0  0  0  0  0  0
    5.3364    1.8567    0.0000 C   0  0  0  0  0  0  0  0  0  0  0  0
    7.0547    1.3202    0.0000 C   0  0  0  0  0  0  0  0  0  0  0  0
    4.3159   -0.5166    0.0000 H   0  0  0  0  0  0  0  0  0  0  0  0
    3.8205   -1.1822    0.0000 H   0  0  0  0  0  0  0  0  0  0  0  0
    6.4267   -2.0625    0.0000 H   0  0  0  0  0  0  0  0  0  0  0  0
    6.4362   -1.2328    0.0000 H   0  0  0  0  0  0  0  0  0  0  0  0
    3.8104   -2.0525    0.0000 H   0  0  0  0  0  0  0  0  0  0  0  0
    4.2903   -2.7294    0.0000 H   0  0  0  0  0  0  0  0  0  0  0  0
    5.1149   -3.0079    0.0000 H   0  0  0  0  0  0  0  0  0  0  0  0
    5.9069   -2.7606    0.0000 H   0  0  0  0  0  0  0  0  0  0  0  0
    3.1160   -0.4563    0.0000 H   0  0  0  0  0  0  0  0  0  0  0  0
    3.8724   -0.2009    0.0000 H   0  0  0  0  0  0  0  0  0  0  0  0
    1.7081    0.2417    0.0000 H   0  0  0  0  0  0  0  0  0  0  0  0
    2.3034   -0.2901    0.0000 H   0  0  0  0  0  0  0  0  0  0  0  0
    1.6208    1.8108    0.0000 H   0  0  0  0  0  0  0  0  0  0  0  0
    1.4518    1.0306    0.0000 H   0  0  0  0  0  0  0  0  0  0  0  0
    2.9426    2.6608    0.0000 H   0  0  0  0  0  0  0  0  0  0  0  0
    2.1806    2.4229    0.0000 H   0  0  0  0  0  0  0  0  0  0  0  0
    7.6607    1.4515    0.0000 H   0  0  0  0  0  0  0  0  0  0  0  0
  1 14  1  0  0  0  0
  1 17  1  0  0  0  0
  2  5  1  0  0  0  0
  2  6  1  0  0  0  0
  2 13  1  0  0  0  0
  3 13  1  0  0  0  0
  3 18  2  0  0  0  0
  4 17  2  0  0  0  0
  4 18  1  0  0  0  0
  5  8  1  0  0  0  0
  5 19  1  0  0  0  0
  5 20  1  0  0  0  0
  6  9  1  0  0  0  0
  6 21  1  0  0  0  0
  6 22  1  0  0  0  0
  7 10  1  0  0  0  0
  7 11  1  0  0  0  0
  7 14  2  0  0  0  0
  8  9  1  0  0  0  0
  8 23  1  0  0  0  0
  8 24  1  0  0  0  0
  9 25  1  0  0  0  0
  9 26  1  0  0  0  0
 10 13  2  0  0  0  0
 10 17  1  0  0  0  0
 11 12  1  0  0  0  0
 11 27  1  0  0  0  0
 11 28  1  0  0  0  0
 12 15  1  0  0  0  0
 12 29  1  0  0  0  0
 12 30  1  0  0  0  0
 14 16  1  0  0  0  0
 15 16  1  0  0  0  0
 15 31  1  0  0  0  0
 15 32  1  0  0  0  0
 16 33  1  0  0  0  0
 16 34  1  0  0  0  0
 18 35  1  0  0  0  0
M  END
> <PUBCHEM_COMPOUND_CID>
699517

> <PUBCHEM_COMPOUND_CANONICALIZED>
1

> <PUBCHEM_CACTVS_COMPLEXITY>
305

> <PUBCHEM_CACTVS_HBOND_ACCEPTOR>
4

> <PUBCHEM_CACTVS_HBOND_DONOR>
0

> <PUBCHEM_CACTVS_ROTATABLE_BOND>
1

> <PUBCHEM_CACTVS_SUBSKEYS>
AAADceBzAABAAAAAAAAAAAAAAAAAAWJAAAA8QAAAAAAAAFgB+AAAHAQAAAAADADBWgQFsdcIEAikAgJhZACD0KlxCLgB2DAoRJiIKCLg2NGEBAxogALoyCcQgMAOgAAAAAAAAAAAAAAAAAgAAAAAAAAAAA==

> <PUBCHEM_IUPAC_OPENEYE_NAME>
4-pyrrolidin-1-yl-5,6,7,8-tetrahydrobenzothiopheno[2,3-d]pyrimidine

> <PUBCHEM_IUPAC_CAS_NAME>
4-(1-pyrrolidinyl)-5,6,7,8-tetrahydro-[1]benzothiolo[2,3-d]pyrimidine

> <PUBCHEM_IUPAC_NAME_MARKUP>
4-pyrrolidin-1-yl-5,6,7,8-tetrahydro-[1]benzothiolo[2,3-d]pyrimidine

> <PUBCHEM_IUPAC_NAME>
4-pyrrolidin-1-yl-5,6,7,8-tetrahydro-[1]benzothiolo[2,3-d]pyrimidine

> <PUBCHEM_IUPAC_SYSTEMATIC_NAME>
4-pyrrolidin-1-yl-5,6,7,8-tetrahydro-[1]benzothiolo[2,3-d]pyrimidine

> <PUBCHEM_IUPAC_TRADITIONAL_NAME>
4-pyrrolidino-5,6,7,8-tetrahydrobenzothiopheno[2,3-d]pyrimidine

> <PUBCHEM_IUPAC_INCHI>
InChI=1S/C14H17N3S/c1-2-6-11-10(5-1)12-13(17-7-3-4-8-17)15-9-16-14(12)18-11/h9H,1-8H2

> <PUBCHEM_IUPAC_INCHIKEY>
LGCNXFADJBQMSC-UHFFFAOYSA-N

> <PUBCHEM_XLOGP3_AA>
3.7

> <PUBCHEM_EXACT_MASS>
259.11431873

> <PUBCHEM_MOLECULAR_FORMULA>
C14H17N3S

> <PUBCHEM_MOLECULAR_WEIGHT>
259.37

> <PUBCHEM_OPENEYE_CAN_SMILES>
C1CCC2=C(C1)C3=C(N=CN=C3S2)N4CCCC4

> <PUBCHEM_OPENEYE_ISO_SMILES>
C1CCC2=C(C1)C3=C(N=CN=C3S2)N4CCCC4

> <PUBCHEM_CACTVS_TPSA>
57.3

> <PUBCHEM_MONOISOTOPIC_WEIGHT>
259.11431873

> <PUBCHEM_TOTAL_CHARGE>
0

> <PUBCHEM_HEAVY_ATOM_COUNT>
18

> <PUBCHEM_ATOM_DEF_STEREO_COUNT>
0

> <PUBCHEM_ATOM_UDEF_STEREO_COUNT>
0

> <PUBCHEM_BOND_DEF_STEREO_COUNT>
0

> <PUBCHEM_BOND_UDEF_STEREO_COUNT>
0

> <PUBCHEM_ISOTOPIC_ATOM_COUNT>
0

> <PUBCHEM_COMPONENT_COUNT>
1

> <PUBCHEM_CACTVS_TAUTO_COUNT>
1

> <PUBCHEM_COORDINATE_TYPE>
1
5
255

> <PUBCHEM_BONDANNOTATIONS>
1  14  8
1  17  8
10  13  8
10  17  8
3  13  8
3  18  8
4  17  8
4  18  8
7  10  8
7  14  8

$$$$
