122183764
  -OEChem-09292322002D

 64 68  0     1  0  0  0  0  0999 V2000
    4.6501    1.0173    0.0000 O   0  0  0  0  0  0  0  0  0  0  0  0
    2.9180   -1.9827    0.0000 O   0  0  0  0  0  0  0  0  0  0  0  0
    6.3821    2.0173    0.0000 N   0  0  0  0  0  0  0  0  0  0  0  0
    6.3821    4.0173    0.0000 N   0  0  0  0  0  0  0  0  0  0  0  0
    4.6501   -1.9827    0.0000 N   0  0  0  0  0  0  0  0  0  0  0  0
    4.6501   -4.9827    0.0000 N   0  0  0  0  0  0  0  0  0  0  0  0
    7.2482    2.5173    0.0000 C   0  0  0  0  0  0  0  0  0  0  0  0
    5.5161    2.5173    0.0000 C   0  0  0  0  0  0  0  0  0  0  0  0
    7.2482    3.5173    0.0000 C   0  0  0  0  0  0  0  0  0  0  0  0
    5.5161    3.5173    0.0000 C   0  0  0  0  0  0  0  0  0  0  0  0
    6.3821    1.0173    0.0000 C   0  0  0  0  0  0  0  0  0  0  0  0
    5.5161    0.5173    0.0000 C   0  0  3  0  0  0  0  0  0  0  0  0
    6.3821    5.0173    0.0000 C   0  0  0  0  0  0  0  0  0  0  0  0
    5.5161   -0.4827    0.0000 C   0  0  0  0  0  0  0  0  0  0  0  0
    7.2482    5.5173    0.0000 C   0  0  0  0  0  0  0  0  0  0  0  0
    4.6501   -0.9827    0.0000 C   0  0  0  0  0  0  0  0  0  0  0  0
    5.5161    5.5173    0.0000 C   0  0  0  0  0  0  0  0  0  0  0  0
    7.2482    6.5173    0.0000 C   0  0  0  0  0  0  0  0  0  0  0  0
    8.1421    4.9826    0.0000 C   0  0  0  0  0  0  0  0  0  0  0  0
    5.5161    6.5173    0.0000 C   0  0  0  0  0  0  0  0  0  0  0  0
    6.3821    7.0173    0.0000 C   0  0  0  0  0  0  0  0  0  0  0  0
    8.1421    7.0520    0.0000 C   0  0  0  0  0  0  0  0  0  0  0  0
    9.0482    5.4965    0.0000 C   0  0  0  0  0  0  0  0  0  0  0  0
    9.0482    6.5381    0.0000 C   0  0  0  0  0  0  0  0  0  0  0  0
    3.7841   -2.4827    0.0000 C   0  0  0  0  0  0  0  0  0  0  0  0
    3.7841   -3.4827    0.0000 C   0  0  0  0  0  0  0  0  0  0  0  0
    2.9180   -3.9827    0.0000 C   0  0  0  0  0  0  0  0  0  0  0  0
    4.6501   -3.9827    0.0000 C   0  0  0  0  0  0  0  0  0  0  0  0
    2.9180   -4.9827    0.0000 C   0  0  0  0  0  0  0  0  0  0  0  0
    3.7841   -5.4827    0.0000 C   0  0  0  0  0  0  0  0  0  0  0  0
    2.0080   -5.4896    0.0000 C   0  0  0  0  0  0  0  0  0  0  0  0
    3.8001   -6.5242    0.0000 C   0  0  0  0  0  0  0  0  0  0  0  0
    2.0000   -6.5312    0.0000 C   0  0  0  0  0  0  0  0  0  0  0  0
    2.9021   -7.0520    0.0000 C   0  0  0  0  0  0  0  0  0  0  0  0
    7.4602    1.9347    0.0000 H   0  0  0  0  0  0  0  0  0  0  0  0
    7.8587    2.6250    0.0000 H   0  0  0  0  0  0  0  0  0  0  0  0
    4.9055    2.6250    0.0000 H   0  0  0  0  0  0  0  0  0  0  0  0
    5.3040    1.9347    0.0000 H   0  0  0  0  0  0  0  0  0  0  0  0
    7.8587    3.4096    0.0000 H   0  0  0  0  0  0  0  0  0  0  0  0
    7.4602    4.0999    0.0000 H   0  0  0  0  0  0  0  0  0  0  0  0
    5.3040    4.0999    0.0000 H   0  0  0  0  0  0  0  0  0  0  0  0
    4.9055    3.4096    0.0000 H   0  0  0  0  0  0  0  0  0  0  0  0
    6.5942    0.4347    0.0000 H   0  0  0  0  0  0  0  0  0  0  0  0
    6.9927    1.1250    0.0000 H   0  0  0  0  0  0  0  0  0  0  0  0
    4.9792    0.2073    0.0000 H   0  0  0  0  0  0  0  0  0  0  0  0
    5.7282   -1.0653    0.0000 H   0  0  0  0  0  0  0  0  0  0  0  0
    6.1267   -0.3750    0.0000 H   0  0  0  0  0  0  0  0  0  0  0  0
    4.4380   -0.4001    0.0000 H   0  0  0  0  0  0  0  0  0  0  0  0
    4.0395   -1.0904    0.0000 H   0  0  0  0  0  0  0  0  0  0  0  0
    4.9792    5.2073    0.0000 H   0  0  0  0  0  0  0  0  0  0  0  0
    4.1132    0.7073    0.0000 H   0  0  0  0  0  0  0  0  0  0  0  0
    8.1349    4.3627    0.0000 H   0  0  0  0  0  0  0  0  0  0  0  0
    4.9792    6.8273    0.0000 H   0  0  0  0  0  0  0  0  0  0  0  0
    6.3821    7.6373    0.0000 H   0  0  0  0  0  0  0  0  0  0  0  0
    5.1870   -2.2927    0.0000 H   0  0  0  0  0  0  0  0  0  0  0  0
    8.1349    7.6719    0.0000 H   0  0  0  0  0  0  0  0  0  0  0  0
    9.5839    5.1844    0.0000 H   0  0  0  0  0  0  0  0  0  0  0  0
    9.5839    6.8502    0.0000 H   0  0  0  0  0  0  0  0  0  0  0  0
    2.3811   -3.6727    0.0000 H   0  0  0  0  0  0  0  0  0  0  0  0
    5.1870   -3.6727    0.0000 H   0  0  0  0  0  0  0  0  0  0  0  0
    1.4747   -5.1734    0.0000 H   0  0  0  0  0  0  0  0  0  0  0  0
    4.3406   -6.8280    0.0000 H   0  0  0  0  0  0  0  0  0  0  0  0
    1.4619   -6.8391    0.0000 H   0  0  0  0  0  0  0  0  0  0  0  0
    2.9045   -7.6720    0.0000 H   0  0  0  0  0  0  0  0  0  0  0  0
  1 12  1  0  0  0  0
  1 51  1  0  0  0  0
  2 25  2  0  0  0  0
  3  7  1  0  0  0  0
  3  8  1  0  0  0  0
  3 11  1  0  0  0  0
  4  9  1  0  0  0  0
  4 10  1  0  0  0  0
  4 13  1  0  0  0  0
  5 16  1  0  0  0  0
  5 25  1  0  0  0  0
  5 55  1  0  0  0  0
  6 28  2  0  0  0  0
  6 30  1  0  0  0  0
  7  9  1  0  0  0  0
  7 35  1  0  0  0  0
  7 36  1  0  0  0  0
  8 10  1  0  0  0  0
  8 37  1  0  0  0  0
  8 38  1  0  0  0  0
  9 39  1  0  0  0  0
  9 40  1  0  0  0  0
 10 41  1  0  0  0  0
 10 42  1  0  0  0  0
 11 12  1  0  0  0  0
 11 43  1  0  0  0  0
 11 44  1  0  0  0  0
 12 14  1  0  0  0  0
 12 45  1  0  0  0  0
 13 15  1  0  0  0  0
 13 17  2  0  0  0  0
 14 16  1  0  0  0  0
 14 46  1  0  0  0  0
 14 47  1  0  0  0  0
 15 18  1  0  0  0  0
 15 19  2  0  0  0  0
 16 48  1  0  0  0  0
 16 49  1  0  0  0  0
 17 20  1  0  0  0  0
 17 50  1  0  0  0  0
 18 21  1  0  0  0  0
 18 22  2  0  0  0  0
 19 23  1  0  0  0  0
 19 52  1  0  0  0  0
 20 21  2  0  0  0  0
 20 53  1  0  0  0  0
 21 54  1  0  0  0  0
 22 24  1  0  0  0  0
 22 56  1  0  0  0  0
 23 24  2  0  0  0  0
 23 57  1  0  0  0  0
 24 58  1  0  0  0  0
 25 26  1  0  0  0  0
 26 27  2  0  0  0  0
 26 28  1  0  0  0  0
 27 29  1  0  0  0  0
 27 59  1  0  0  0  0
 28 60  1  0  0  0  0
 29 30  1  0  0  0  0
 29 31  2  0  0  0  0
 30 32  2  0  0  0  0
 31 33  1  0  0  0  0
 31 61  1  0  0  0  0
 32 34  1  0  0  0  0
 32 62  1  0  0  0  0
 33 34  2  0  0  0  0
 33 63  1  0  0  0  0
 34 64  1  0  0  0  0
M  END
> <PUBCHEM_COMPOUND_CID>
122183764

> <PUBCHEM_COMPOUND_CANONICALIZED>
1

> <PUBCHEM_CACTVS_COMPLEXITY>
652

> <PUBCHEM_CACTVS_HBOND_ACCEPTOR>
5

> <PUBCHEM_CACTVS_HBOND_DONOR>
2

> <PUBCHEM_CACTVS_ROTATABLE_BOND>
7

> <PUBCHEM_CACTVS_SUBSKEYS>
AAADceB7sAAAAAAAAAAAAAAAAAAAAAAAAAA8eMECAAAAAADx9AAAHgAQCAAADBzhngY8wPPIEgCoAzV3VACCgCA1AiAI2KE4ZNgKcPrA1ZGUYYhilgDYyccYicCegAAAQAASAAAAAACAACQAAAAAAAAAAA==

> <PUBCHEM_IUPAC_OPENEYE_NAME>
N-[3-hydroxy-4-[4-(1-naphthyl)piperazin-1-yl]butyl]quinoline-3-carboxamide

> <PUBCHEM_IUPAC_CAS_NAME>
N-[3-hydroxy-4-[4-(1-naphthalenyl)-1-piperazinyl]butyl]-3-quinolinecarboxamide

> <PUBCHEM_IUPAC_NAME_MARKUP>
<I>N</I>-[3-hydroxy-4-(4-naphthalen-1-ylpiperazin-1-yl)butyl]quinoline-3-carboxamide

> <PUBCHEM_IUPAC_NAME>
N-[3-hydroxy-4-(4-naphthalen-1-ylpiperazin-1-yl)butyl]quinoline-3-carboxamide

> <PUBCHEM_IUPAC_SYSTEMATIC_NAME>
N-[4-(4-naphthalen-1-ylpiperazin-1-yl)-3-oxidanyl-butyl]quinoline-3-carboxamide

> <PUBCHEM_IUPAC_TRADITIONAL_NAME>
N-[3-hydroxy-4-[4-(1-naphthyl)piperazino]butyl]quinoline-3-carboxamide

> <PUBCHEM_IUPAC_INCHI>
InChI=1S/C28H30N4O2/c33-24(12-13-29-28(34)23-18-22-7-2-4-10-26(22)30-19-23)20-31-14-16-32(17-15-31)27-11-5-8-21-6-1-3-9-25(21)27/h1-11,18-19,24,33H,12-17,20H2,(H,29,34)

> <PUBCHEM_IUPAC_INCHIKEY>
KRUWNGHFXJBYSG-UHFFFAOYSA-N

> <PUBCHEM_XLOGP3_AA>
4.1

> <PUBCHEM_EXACT_MASS>
454.23687621

> <PUBCHEM_MOLECULAR_FORMULA>
C28H30N4O2

> <PUBCHEM_MOLECULAR_WEIGHT>
454.6

> <PUBCHEM_OPENEYE_CAN_SMILES>
C1CN(CCN1CC(CCNC(=O)C2=CC3=CC=CC=C3N=C2)O)C4=CC=CC5=CC=CC=C54

> <PUBCHEM_OPENEYE_ISO_SMILES>
C1CN(CCN1CC(CCNC(=O)C2=CC3=CC=CC=C3N=C2)O)C4=CC=CC5=CC=CC=C54

> <PUBCHEM_CACTVS_TPSA>
68.7

> <PUBCHEM_MONOISOTOPIC_WEIGHT>
454.23687621

> <PUBCHEM_TOTAL_CHARGE>
0

> <PUBCHEM_HEAVY_ATOM_COUNT>
34

> <PUBCHEM_ATOM_DEF_STEREO_COUNT>
0

> <PUBCHEM_ATOM_UDEF_STEREO_COUNT>
1

> <PUBCHEM_BOND_DEF_STEREO_COUNT>
0

> <PUBCHEM_BOND_UDEF_STEREO_COUNT>
0

> <PUBCHEM_ISOTOPIC_ATOM_COUNT>
0

> <PUBCHEM_COMPONENT_COUNT>
1

> <PUBCHEM_CACTVS_TAUTO_COUNT>
-1

> <PUBCHEM_COORDINATE_TYPE>
1
5
255

> <PUBCHEM_BONDANNOTATIONS>
12  1  3
13  15  8
13  17  8
15  18  8
15  19  8
17  20  8
18  21  8
18  22  8
19  23  8
20  21  8
22  24  8
23  24  8
26  27  8
26  28  8
27  29  8
29  30  8
29  31  8
30  32  8
31  33  8
32  34  8
33  34  8
6  28  8
6  30  8

$$$$
