155555201
  -OEChem-09292322412D

 67 70  0     0  0  0  0  0  0999 V2000
    4.5884    2.5296    0.0000 Cl  0  0  0  0  0  0  0  0  0  0  0  0
   12.3999   -1.9404    0.0000 O   0  0  0  0  0  0  0  0  0  0  0  0
    6.3243    1.5362    0.0000 O   0  0  0  0  0  0  0  0  0  0  0  0
   17.6621   -1.9162    0.0000 O   0  0  0  0  0  0  0  0  0  0  0  0
    8.0679   -1.4571    0.0000 N   0  0  0  0  0  0  0  0  0  0  0  0
    6.3320   -0.4638    0.0000 N   0  0  0  0  0  0  0  0  0  0  0  0
   15.9301   -1.9162    0.0000 N   0  0  0  0  0  0  0  0  0  0  0  0
    8.0641   -0.4571    0.0000 C   0  0  0  0  0  0  0  0  0  0  0  0
    7.2038   -1.9604    0.0000 C   0  0  0  0  0  0  0  0  0  0  0  0
    7.1961    0.0396    0.0000 C   0  0  0  0  0  0  0  0  0  0  0  0
    6.3359   -1.4638    0.0000 C   0  0  0  0  0  0  0  0  0  0  0  0
    8.9359   -1.9537    0.0000 C   0  0  0  0  0  0  0  0  0  0  0  0
    9.8000   -1.4504    0.0000 C   0  0  0  0  0  0  0  0  0  0  0  0
    5.4641    0.0329    0.0000 C   0  0  0  0  0  0  0  0  0  0  0  0
   10.6679   -1.9470    0.0000 C   0  0  0  0  0  0  0  0  0  0  0  0
    4.6000   -0.4704    0.0000 C   0  0  0  0  0  0  0  0  0  0  0  0
    5.4602    1.0329    0.0000 C   0  0  0  0  0  0  0  0  0  0  0  0
   11.5320   -1.4437    0.0000 C   0  0  0  0  0  0  0  0  0  0  0  0
    3.7320    0.0262    0.0000 C   0  0  0  0  0  0  0  0  0  0  0  0
    4.5923    1.5296    0.0000 C   0  0  0  0  0  0  0  0  0  0  0  0
    3.7282    1.0262    0.0000 C   0  0  0  0  0  0  0  0  0  0  0  0
    2.8680   -0.4771    0.0000 C   0  0  0  0  0  0  0  0  0  0  0  0
   15.0640   -0.4162    0.0000 C   0  0  0  0  0  0  0  0  0  0  0  0
   13.2640   -1.4370    0.0000 C   0  0  0  0  0  0  0  0  0  0  0  0
   15.9301    0.0838    0.0000 C   0  0  0  0  0  0  0  0  0  0  0  0
   15.0640   -1.4162    0.0000 C   0  0  0  0  0  0  0  0  0  0  0  0
   16.7961   -0.4162    0.0000 C   0  0  0  0  0  0  0  0  0  0  0  0
   14.1701   -1.9509    0.0000 C   0  0  0  0  0  0  0  0  0  0  0  0
    2.0000    0.0196    0.0000 C   0  0  0  0  0  0  0  0  0  0  0  0
   14.1701    0.1184    0.0000 C   0  0  0  0  0  0  0  0  0  0  0  0
   13.2640   -0.3954    0.0000 C   0  0  0  0  0  0  0  0  0  0  0  0
   16.7961   -1.4162    0.0000 C   0  0  0  0  0  0  0  0  0  0  0  0
    6.3205    2.5362    0.0000 C   0  0  0  0  0  0  0  0  0  0  0  0
    8.6750   -0.5624    0.0000 H   0  0  0  0  0  0  0  0  0  0  0  0
    8.2739    0.1263    0.0000 H   0  0  0  0  0  0  0  0  0  0  0  0
    6.8071   -2.4369    0.0000 H   0  0  0  0  0  0  0  0  0  0  0  0
    7.6042   -2.4338    0.0000 H   0  0  0  0  0  0  0  0  0  0  0  0
    7.5928    0.5161    0.0000 H   0  0  0  0  0  0  0  0  0  0  0  0
    6.7958    0.5130    0.0000 H   0  0  0  0  0  0  0  0  0  0  0  0
    5.7249   -1.3584    0.0000 H   0  0  0  0  0  0  0  0  0  0  0  0
    6.1261   -2.0472    0.0000 H   0  0  0  0  0  0  0  0  0  0  0  0
    8.5392   -2.4302    0.0000 H   0  0  0  0  0  0  0  0  0  0  0  0
    9.3362   -2.4271    0.0000 H   0  0  0  0  0  0  0  0  0  0  0  0
   10.1966   -0.9739    0.0000 H   0  0  0  0  0  0  0  0  0  0  0  0
    9.3996   -0.9770    0.0000 H   0  0  0  0  0  0  0  0  0  0  0  0
   10.2712   -2.4235    0.0000 H   0  0  0  0  0  0  0  0  0  0  0  0
   11.0683   -2.4205    0.0000 H   0  0  0  0  0  0  0  0  0  0  0  0
    4.6024   -1.0904    0.0000 H   0  0  0  0  0  0  0  0  0  0  0  0
   11.9287   -0.9672    0.0000 H   0  0  0  0  0  0  0  0  0  0  0  0
   11.1316   -0.9703    0.0000 H   0  0  0  0  0  0  0  0  0  0  0  0
    3.1901    1.3342    0.0000 H   0  0  0  0  0  0  0  0  0  0  0  0
    2.4712   -0.9536    0.0000 H   0  0  0  0  0  0  0  0  0  0  0  0
    3.2683   -0.9505    0.0000 H   0  0  0  0  0  0  0  0  0  0  0  0
   16.3286    0.5587    0.0000 H   0  0  0  0  0  0  0  0  0  0  0  0
   15.5315    0.5587    0.0000 H   0  0  0  0  0  0  0  0  0  0  0  0
   17.4067   -0.5239    0.0000 H   0  0  0  0  0  0  0  0  0  0  0  0
   17.0081    0.1664    0.0000 H   0  0  0  0  0  0  0  0  0  0  0  0
   14.1773   -2.5708    0.0000 H   0  0  0  0  0  0  0  0  0  0  0  0
    2.3079    0.5577    0.0000 H   0  0  0  0  0  0  0  0  0  0  0  0
    1.4619    0.3275    0.0000 H   0  0  0  0  0  0  0  0  0  0  0  0
    1.6921   -0.5186    0.0000 H   0  0  0  0  0  0  0  0  0  0  0  0
   14.1773    0.7384    0.0000 H   0  0  0  0  0  0  0  0  0  0  0  0
   12.7283   -0.0833    0.0000 H   0  0  0  0  0  0  0  0  0  0  0  0
   15.9301   -2.5362    0.0000 H   0  0  0  0  0  0  0  0  0  0  0  0
    6.9404    2.5386    0.0000 H   0  0  0  0  0  0  0  0  0  0  0  0
    6.3181    3.1562    0.0000 H   0  0  0  0  0  0  0  0  0  0  0  0
    5.7005    2.5338    0.0000 H   0  0  0  0  0  0  0  0  0  0  0  0
  1 20  1  0  0  0  0
  2 18  1  0  0  0  0
  2 24  1  0  0  0  0
  3 17  1  0  0  0  0
  3 33  1  0  0  0  0
  4 32  2  0  0  0  0
  5  8  1  0  0  0  0
  5  9  1  0  0  0  0
  5 12  1  0  0  0  0
  6 10  1  0  0  0  0
  6 11  1  0  0  0  0
  6 14  1  0  0  0  0
  7 26  1  0  0  0  0
  7 32  1  0  0  0  0
  7 64  1  0  0  0  0
  8 10  1  0  0  0  0
  8 34  1  0  0  0  0
  8 35  1  0  0  0  0
  9 11  1  0  0  0  0
  9 36  1  0  0  0  0
  9 37  1  0  0  0  0
 10 38  1  0  0  0  0
 10 39  1  0  0  0  0
 11 40  1  0  0  0  0
 11 41  1  0  0  0  0
 12 13  1  0  0  0  0
 12 42  1  0  0  0  0
 12 43  1  0  0  0  0
 13 15  1  0  0  0  0
 13 44  1  0  0  0  0
 13 45  1  0  0  0  0
 14 16  1  0  0  0  0
 14 17  2  0  0  0  0
 15 18  1  0  0  0  0
 15 46  1  0  0  0  0
 15 47  1  0  0  0  0
 16 19  2  0  0  0  0
 16 48  1  0  0  0  0
 17 20  1  0  0  0  0
 18 49  1  0  0  0  0
 18 50  1  0  0  0  0
 19 21  1  0  0  0  0
 19 22  1  0  0  0  0
 20 21  2  0  0  0  0
 21 51  1  0  0  0  0
 22 29  1  0  0  0  0
 22 52  1  0  0  0  0
 22 53  1  0  0  0  0
 23 25  1  0  0  0  0
 23 26  2  0  0  0  0
 23 30  1  0  0  0  0
 24 28  2  0  0  0  0
 24 31  1  0  0  0  0
 25 27  1  0  0  0  0
 25 54  1  0  0  0  0
 25 55  1  0  0  0  0
 26 28  1  0  0  0  0
 27 32  1  0  0  0  0
 27 56  1  0  0  0  0
 27 57  1  0  0  0  0
 28 58  1  0  0  0  0
 29 59  1  0  0  0  0
 29 60  1  0  0  0  0
 29 61  1  0  0  0  0
 30 31  2  0  0  0  0
 30 62  1  0  0  0  0
 31 63  1  0  0  0  0
 33 65  1  0  0  0  0
 33 66  1  0  0  0  0
 33 67  1  0  0  0  0
M  END
> <PUBCHEM_COMPOUND_CID>
155555201

> <PUBCHEM_COMPOUND_CANONICALIZED>
1

> <PUBCHEM_CACTVS_COMPLEXITY>
616

> <PUBCHEM_CACTVS_HBOND_ACCEPTOR>
5

> <PUBCHEM_CACTVS_HBOND_DONOR>
1

> <PUBCHEM_CACTVS_ROTATABLE_BOND>
9

> <PUBCHEM_CACTVS_SUBSKEYS>
AAADcfB7MAAEAAAAAAAAAAAAAAAAAAAAAAA8eIEAAAAAAACxQAAAHgIQAAAADA7hmCYyxoPABACIAiVSUACCCAAhJ0AIiAEPb4gOZjPFs5uXOCjm1BnY6Ae42aOeIAAAYgICGABAAADEBAQwAAAAAAAAAA==

> <PUBCHEM_IUPAC_OPENEYE_NAME>
7-[4-[4-(3-chloro-5-ethyl-2-methoxy-phenyl)piperazin-1-yl]butoxy]-3,4-dihydro-1H-quinolin-2-one

> <PUBCHEM_IUPAC_CAS_NAME>
7-[4-[4-(3-chloro-5-ethyl-2-methoxyphenyl)-1-piperazinyl]butoxy]-3,4-dihydro-1H-quinolin-2-one

> <PUBCHEM_IUPAC_NAME_MARKUP>
7-[4-[4-(3-chloro-5-ethyl-2-methoxyphenyl)piperazin-1-yl]butoxy]-3,4-dihydro-1<I>H</I>-quinolin-2-one

> <PUBCHEM_IUPAC_NAME>
7-[4-[4-(3-chloro-5-ethyl-2-methoxyphenyl)piperazin-1-yl]butoxy]-3,4-dihydro-1H-quinolin-2-one

> <PUBCHEM_IUPAC_SYSTEMATIC_NAME>
7-[4-[4-(3-chloranyl-5-ethyl-2-methoxy-phenyl)piperazin-1-yl]butoxy]-3,4-dihydro-1H-quinolin-2-one

> <PUBCHEM_IUPAC_TRADITIONAL_NAME>
7-[4-[4-(3-chloro-5-ethyl-2-methoxy-phenyl)piperazino]butoxy]-3,4-dihydrocarbostyril

> <PUBCHEM_IUPAC_INCHI>
InChI=1S/C26H34ClN3O3/c1-3-19-16-22(27)26(32-2)24(17-19)30-13-11-29(12-14-30)10-4-5-15-33-21-8-6-20-7-9-25(31)28-23(20)18-21/h6,8,16-18H,3-5,7,9-15H2,1-2H3,(H,28,31)

> <PUBCHEM_IUPAC_INCHIKEY>
WNQLAMRYPGPZKN-UHFFFAOYSA-N

> <PUBCHEM_XLOGP3_AA>
4.8

> <PUBCHEM_EXACT_MASS>
471.2288696

> <PUBCHEM_MOLECULAR_FORMULA>
C26H34ClN3O3

> <PUBCHEM_MOLECULAR_WEIGHT>
472.0

> <PUBCHEM_OPENEYE_CAN_SMILES>
CCC1=CC(=C(C(=C1)Cl)OC)N2CCN(CC2)CCCCOC3=CC4=C(CCC(=O)N4)C=C3

> <PUBCHEM_OPENEYE_ISO_SMILES>
CCC1=CC(=C(C(=C1)Cl)OC)N2CCN(CC2)CCCCOC3=CC4=C(CCC(=O)N4)C=C3

> <PUBCHEM_CACTVS_TPSA>
54

> <PUBCHEM_MONOISOTOPIC_WEIGHT>
471.2288696

> <PUBCHEM_TOTAL_CHARGE>
0

> <PUBCHEM_HEAVY_ATOM_COUNT>
33

> <PUBCHEM_ATOM_DEF_STEREO_COUNT>
0

> <PUBCHEM_ATOM_UDEF_STEREO_COUNT>
0

> <PUBCHEM_BOND_DEF_STEREO_COUNT>
0

> <PUBCHEM_BOND_UDEF_STEREO_COUNT>
0

> <PUBCHEM_ISOTOPIC_ATOM_COUNT>
0

> <PUBCHEM_COMPONENT_COUNT>
1

> <PUBCHEM_CACTVS_TAUTO_COUNT>
-1

> <PUBCHEM_COORDINATE_TYPE>
1
5
255

> <PUBCHEM_BONDANNOTATIONS>
14  16  8
14  17  8
16  19  8
17  20  8
19  21  8
20  21  8
23  26  8
23  30  8
24  28  8
24  31  8
26  28  8
30  31  8

$$$$
