118736409
  -OEChem-09292322092D

 99103  0     1  0  0  0  0  0999 V2000
   10.8184   -4.7862    0.0000 F   0  0  0  0  0  0  0  0  0  0  0  0
   12.7763   -5.1944    0.0000 F   0  0  0  0  0  0  0  0  0  0  0  0
    9.9622    3.3543    0.0000 O   0  0  0  0  0  0  0  0  0  0  0  0
   10.2339   -0.2410    0.0000 O   0  0  0  0  0  0  0  0  0  0  0  0
   13.4835   -1.8033    0.0000 O   0  0  0  0  0  0  0  0  0  0  0  0
   15.1696    1.3837    0.0000 O   0  0  0  0  0  0  0  0  0  0  0  0
    6.9654    4.0017    0.0000 N   0  0  3  0  0  0  0  0  0  0  0  0
    4.5124    2.8842    0.0000 N   0  0  0  0  0  0  0  0  0  0  0  0
    9.6086    1.6587    0.0000 N   0  0  0  0  0  0  0  0  0  0  0  0
   11.8792    0.3006    0.0000 N   0  0  0  0  0  0  0  0  0  0  0  0
   13.8370   -0.1077    0.0000 N   0  0  0  0  0  0  0  0  0  0  0  0
   16.4612    0.2297    0.0000 N   0  0  0  0  0  0  0  0  0  0  0  0
   17.7119   -3.5697    0.0000 N   0  0  0  0  0  0  0  0  0  0  0  0
    6.2962    3.2585    0.0000 C   0  0  2  0  0  0  0  0  0  0  0  0
    6.6028    2.2630    0.0000 C   0  0  0  0  0  0  0  0  0  0  0  0
    8.3170    2.8127    0.0000 C   0  0  2  0  0  0  0  0  0  0  0  0
    7.9875    3.8008    0.0000 C   0  0  0  0  0  0  0  0  0  0  0  0
    7.6200    2.0386    0.0000 C   0  0  0  0  0  0  0  0  0  0  0  0
    5.3181    3.4664    0.0000 C   0  0  0  0  0  0  0  0  0  0  0  0
    6.6564    4.9527    0.0000 C   0  0  0  0  0  0  0  0  0  0  0  0
    5.0091    4.4175    0.0000 C   0  0  0  0  0  0  0  0  0  0  0  0
    5.6782    5.1607    0.0000 C   0  0  0  0  0  0  0  0  0  0  0  0
    4.0150    4.4149    0.0000 C   0  0  0  0  0  0  0  0  0  0  0  0
    9.2959    2.6086    0.0000 C   0  0  0  0  0  0  0  0  0  0  0  0
    3.7086    3.4692    0.0000 C   0  0  0  0  0  0  0  0  0  0  0  0
    3.3334    5.1944    0.0000 C   0  0  0  0  0  0  0  0  0  0  0  0
    2.6994    3.2375    0.0000 C   0  0  0  0  0  0  0  0  0  0  0  0
   10.5875    1.4546    0.0000 C   0  0  1  0  0  0  0  0  0  0  0  0
    2.3191    4.9861    0.0000 C   0  0  0  0  0  0  0  0  0  0  0  0
    2.0000    4.0010    0.0000 C   0  0  0  0  0  0  0  0  0  0  0  0
   11.2538    2.2003    0.0000 C   0  0  0  0  0  0  0  0  0  0  0  0
   10.9002    0.5047    0.0000 C   0  0  0  0  0  0  0  0  0  0  0  0
   12.2327    1.9962    0.0000 C   0  0  0  0  0  0  0  0  0  0  0  0
   12.8990    2.7419    0.0000 C   0  0  0  0  0  0  0  0  0  0  0  0
   12.1918   -0.6493    0.0000 C   0  0  1  0  0  0  0  0  0  0  0  0
   11.5256   -1.3950    0.0000 C   0  0  0  0  0  0  0  0  0  0  0  0
   13.8779    2.5377    0.0000 C   0  0  0  0  0  0  0  0  0  0  0  0
   13.1708   -0.8534    0.0000 C   0  0  0  0  0  0  0  0  0  0  0  0
   14.8160   -0.3118    0.0000 C   0  0  1  0  0  0  0  0  0  0  0  0
   11.8383   -2.3449    0.0000 C   0  0  0  0  0  0  0  0  0  0  0  0
   15.1287   -1.2617    0.0000 C   0  0  0  0  0  0  0  0  0  0  0  0
   16.1076   -1.4658    0.0000 C   0  0  0  0  0  0  0  0  0  0  0  0
   11.1720   -3.0906    0.0000 C   0  0  0  0  0  0  0  0  0  0  0  0
   12.8172   -2.5490    0.0000 C   0  0  0  0  0  0  0  0  0  0  0  0
   16.4203   -2.4157    0.0000 C   0  0  0  0  0  0  0  0  0  0  0  0
   15.4822    0.4339    0.0000 C   0  0  0  0  0  0  0  0  0  0  0  0
   17.3992   -2.6198    0.0000 C   0  0  0  0  0  0  0  0  0  0  0  0
   11.4847   -4.0404    0.0000 C   0  0  0  0  0  0  0  0  0  0  0  0
   13.1299   -3.4988    0.0000 C   0  0  0  0  0  0  0  0  0  0  0  0
   12.4636   -4.2446    0.0000 C   0  0  0  0  0  0  0  0  0  0  0  0
    5.7226    2.6313    0.0000 H   0  0  0  0  0  0  0  0  0  0  0  0
    5.9878    2.1847    0.0000 H   0  0  0  0  0  0  0  0  0  0  0  0
    6.5748    1.6437    0.0000 H   0  0  0  0  0  0  0  0  0  0  0  0
    8.7292    3.2759    0.0000 H   0  0  0  0  0  0  0  0  0  0  0  0
    8.6005    3.8934    0.0000 H   0  0  0  0  0  0  0  0  0  0  0  0
    8.0011    4.4207    0.0000 H   0  0  0  0  0  0  0  0  0  0  0  0
    7.3848    1.4650    0.0000 H   0  0  0  0  0  0  0  0  0  0  0  0
    8.1449    1.7087    0.0000 H   0  0  0  0  0  0  0  0  0  0  0  0
    7.2703    5.0390    0.0000 H   0  0  0  0  0  0  0  0  0  0  0  0
    6.6780    5.5724    0.0000 H   0  0  0  0  0  0  0  0  0  0  0  0
    5.9105    5.7355    0.0000 H   0  0  0  0  0  0  0  0  0  0  0  0
    5.1524    5.4892    0.0000 H   0  0  0  0  0  0  0  0  0  0  0  0
    4.5113    2.2642    0.0000 H   0  0  0  0  0  0  0  0  0  0  0  0
    9.1955    1.1964    0.0000 H   0  0  0  0  0  0  0  0  0  0  0  0
    3.5313    5.7820    0.0000 H   0  0  0  0  0  0  0  0  0  0  0  0
    2.5152    2.6455    0.0000 H   0  0  0  0  0  0  0  0  0  0  0  0
   10.3937    2.0435    0.0000 H   0  0  0  0  0  0  0  0  0  0  0  0
    1.9056    5.4481    0.0000 H   0  0  0  0  0  0  0  0  0  0  0  0
    1.3942    3.8693    0.0000 H   0  0  0  0  0  0  0  0  0  0  0  0
   11.4838    2.7760    0.0000 H   0  0  0  0  0  0  0  0  0  0  0  0
   10.7267    2.5268    0.0000 H   0  0  0  0  0  0  0  0  0  0  0  0
   12.0027    1.4204    0.0000 H   0  0  0  0  0  0  0  0  0  0  0  0
   12.7598    1.6696    0.0000 H   0  0  0  0  0  0  0  0  0  0  0  0
   12.2922    0.7629    0.0000 H   0  0  0  0  0  0  0  0  0  0  0  0
   13.1290    3.3176    0.0000 H   0  0  0  0  0  0  0  0  0  0  0  0
   12.3719    3.0684    0.0000 H   0  0  0  0  0  0  0  0  0  0  0  0
   12.6049   -0.1869    0.0000 H   0  0  0  0  0  0  0  0  0  0  0  0
   11.1420   -0.9079    0.0000 H   0  0  0  0  0  0  0  0  0  0  0  0
   10.9793   -1.6882    0.0000 H   0  0  0  0  0  0  0  0  0  0  0  0
   13.7514    1.9308    0.0000 H   0  0  0  0  0  0  0  0  0  0  0  0
   14.4849    2.4112    0.0000 H   0  0  0  0  0  0  0  0  0  0  0  0
   14.0045    3.1447    0.0000 H   0  0  0  0  0  0  0  0  0  0  0  0
   14.6221    0.2771    0.0000 H   0  0  0  0  0  0  0  0  0  0  0  0
   13.6432    0.4812    0.0000 H   0  0  0  0  0  0  0  0  0  0  0  0
   14.5150   -1.3504    0.0000 H   0  0  0  0  0  0  0  0  0  0  0  0
   15.1094   -1.8814    0.0000 H   0  0  0  0  0  0  0  0  0  0  0  0
   16.7212   -1.3772    0.0000 H   0  0  0  0  0  0  0  0  0  0  0  0
   16.1268   -0.8461    0.0000 H   0  0  0  0  0  0  0  0  0  0  0  0
   15.8067   -2.5044    0.0000 H   0  0  0  0  0  0  0  0  0  0  0  0
   16.4010   -3.0354    0.0000 H   0  0  0  0  0  0  0  0  0  0  0  0
   10.5650   -2.9640    0.0000 H   0  0  0  0  0  0  0  0  0  0  0  0
   13.2303   -2.0866    0.0000 H   0  0  0  0  0  0  0  0  0  0  0  0
   18.0128   -2.5312    0.0000 H   0  0  0  0  0  0  0  0  0  0  0  0
   17.4185   -2.0001    0.0000 H   0  0  0  0  0  0  0  0  0  0  0  0
   13.7368   -3.6254    0.0000 H   0  0  0  0  0  0  0  0  0  0  0  0
   16.8743    0.6921    0.0000 H   0  0  0  0  0  0  0  0  0  0  0  0
   16.6550   -0.3592    0.0000 H   0  0  0  0  0  0  0  0  0  0  0  0
   18.3188   -3.6963    0.0000 H   0  0  0  0  0  0  0  0  0  0  0  0
   17.2988   -4.0320    0.0000 H   0  0  0  0  0  0  0  0  0  0  0  0
  1 48  1  0  0  0  0
  2 50  1  0  0  0  0
  3 24  2  0  0  0  0
  4 32  2  0  0  0  0
  5 38  2  0  0  0  0
  6 46  2  0  0  0  0
  7 14  1  0  0  0  0
  7 17  1  0  0  0  0
  7 20  1  0  0  0  0
  8 19  1  0  0  0  0
  8 25  1  0  0  0  0
  8 63  1  0  0  0  0
  9 24  1  0  0  0  0
 28  9  1  1  0  0  0
  9 64  1  0  0  0  0
 10 32  1  0  0  0  0
 35 10  1  6  0  0  0
 10 74  1  0  0  0  0
 11 38  1  0  0  0  0
 39 11  1  6  0  0  0
 11 84  1  0  0  0  0
 12 46  1  0  0  0  0
 12 96  1  0  0  0  0
 12 97  1  0  0  0  0
 13 47  1  0  0  0  0
 13 98  1  0  0  0  0
 13 99  1  0  0  0  0
 14 15  1  0  0  0  0
 14 19  1  0  0  0  0
 14 51  1  1  0  0  0
 15 18  1  0  0  0  0
 15 52  1  0  0  0  0
 15 53  1  0  0  0  0
 16 17  1  0  0  0  0
 16 18  1  0  0  0  0
 16 24  1  1  0  0  0
 16 54  1  0  0  0  0
 17 55  1  0  0  0  0
 17 56  1  0  0  0  0
 18 57  1  0  0  0  0
 18 58  1  0  0  0  0
 19 21  2  0  0  0  0
 20 22  1  0  0  0  0
 20 59  1  0  0  0  0
 20 60  1  0  0  0  0
 21 22  1  0  0  0  0
 21 23  1  0  0  0  0
 22 61  1  0  0  0  0
 22 62  1  0  0  0  0
 23 25  1  0  0  0  0
 23 26  2  0  0  0  0
 25 27  2  0  0  0  0
 26 29  1  0  0  0  0
 26 65  1  0  0  0  0
 27 30  1  0  0  0  0
 27 66  1  0  0  0  0
 28 31  1  0  0  0  0
 28 32  1  0  0  0  0
 28 67  1  0  0  0  0
 29 30  2  0  0  0  0
 29 68  1  0  0  0  0
 30 69  1  0  0  0  0
 31 33  1  0  0  0  0
 31 70  1  0  0  0  0
 31 71  1  0  0  0  0
 33 34  1  0  0  0  0
 33 72  1  0  0  0  0
 33 73  1  0  0  0  0
 34 37  1  0  0  0  0
 34 75  1  0  0  0  0
 34 76  1  0  0  0  0
 35 36  1  0  0  0  0
 35 38  1  0  0  0  0
 35 77  1  0  0  0  0
 36 40  1  0  0  0  0
 36 78  1  0  0  0  0
 36 79  1  0  0  0  0
 37 80  1  0  0  0  0
 37 81  1  0  0  0  0
 37 82  1  0  0  0  0
 39 41  1  0  0  0  0
 39 46  1  0  0  0  0
 39 83  1  0  0  0  0
 40 43  2  0  0  0  0
 40 44  1  0  0  0  0
 41 42  1  0  0  0  0
 41 85  1  0  0  0  0
 41 86  1  0  0  0  0
 42 45  1  0  0  0  0
 42 87  1  0  0  0  0
 42 88  1  0  0  0  0
 43 48  1  0  0  0  0
 43 91  1  0  0  0  0
 44 49  2  0  0  0  0
 44 92  1  0  0  0  0
 45 47  1  0  0  0  0
 45 89  1  0  0  0  0
 45 90  1  0  0  0  0
 47 93  1  0  0  0  0
 47 94  1  0  0  0  0
 48 50  2  0  0  0  0
 49 50  1  0  0  0  0
 49 95  1  0  0  0  0
M  END
> <PUBCHEM_COMPOUND_CID>
118736409

> <PUBCHEM_COMPOUND_CANONICALIZED>
1

> <PUBCHEM_CACTVS_COMPLEXITY>
1160

> <PUBCHEM_CACTVS_HBOND_ACCEPTOR>
8

> <PUBCHEM_CACTVS_HBOND_DONOR>
6

> <PUBCHEM_CACTVS_ROTATABLE_BOND>
16

> <PUBCHEM_CACTVS_SUBSKEYS>
AAADcfB/uYAAAAAAAAAAAAAAAAAAAWAAAAA8eIEAAAAAAFix9AAAHwAQAAAADSjBngwywPPJkACoAyVyVACCgCAhAiAImaG4ZJgIYPrA0bGUIAhglgDIyAcYicCegAAAAAACAAAAAAAAAAQAAAAAAAAAAA==

> <PUBCHEM_IUPAC_OPENEYE_NAME>
(3S,12bR)-N-[(1S)-1-[[(1S)-2-[[(1S)-5-amino-1-carbamoyl-pentyl]amino]-1-[(3,4-difluorophenyl)methyl]-2-oxo-ethyl]carbamoyl]pentyl]-1,2,3,4,6,7,12,12b-octahydroindolo[2,3-a]quinolizine-3-carboxamide

> <PUBCHEM_IUPAC_CAS_NAME>
(3S,12bR)-N-[(2S)-1-[[(2S)-1-[[(2S)-1,6-diamino-1-oxohexan-2-yl]amino]-3-(3,4-difluorophenyl)-1-oxopropan-2-yl]amino]-1-oxohexan-2-yl]-1,2,3,4,6,7,12,12b-octahydroindolo[2,3-a]quinolizine-3-carboxamide

> <PUBCHEM_IUPAC_NAME_MARKUP>
(3<I>S</I>,12<I>b</I><I>R</I>)-<I>N</I>-[(2<I>S</I>)-1-[[(2<I>S</I>)-1-[[(2<I>S</I>)-1,6-diamino-1-oxohexan-2-yl]amino]-3-(3,4-difluorophenyl)-1-oxopropan-2-yl]amino]-1-oxohexan-2-yl]-1,2,3,4,6,7,12,12<I>b</I>-octahydroindolo[2,3-a]quinolizine-3-carboxamide

> <PUBCHEM_IUPAC_NAME>
(3S,12bR)-N-[(2S)-1-[[(2S)-1-[[(2S)-1,6-diamino-1-oxohexan-2-yl]amino]-3-(3,4-difluorophenyl)-1-oxopropan-2-yl]amino]-1-oxohexan-2-yl]-1,2,3,4,6,7,12,12b-octahydroindolo[2,3-a]quinolizine-3-carboxamide

> <PUBCHEM_IUPAC_SYSTEMATIC_NAME>
(3S,12bR)-N-[(2S)-1-[[(2S)-1-[[(2S)-1,6-bis(azanyl)-1-oxidanylidene-hexan-2-yl]amino]-3-[3,4-bis(fluoranyl)phenyl]-1-oxidanylidene-propan-2-yl]amino]-1-oxidanylidene-hexan-2-yl]-1,2,3,4,6,7,12,12b-octahydroindolo[2,3-a]quinolizine-3-carboxamide

> <PUBCHEM_IUPAC_TRADITIONAL_NAME>
(3S,12bR)-N-[(1S)-1-[[(1S)-2-[[(1S)-5-amino-1-carbamoyl-pentyl]amino]-1-(3,4-difluorobenzyl)-2-keto-ethyl]carbamoyl]pentyl]-1,2,3,4,6,7,12,12b-octahydropyrido[2,1-a]beta-carboline-3-carboxamide

> <PUBCHEM_IUPAC_INCHI>
InChI=1S/C37H49F2N7O4/c1-2-3-9-30(44-35(48)23-13-15-32-33-25(16-18-46(32)21-23)24-8-4-5-10-28(24)42-33)36(49)45-31(20-22-12-14-26(38)27(39)19-22)37(50)43-29(34(41)47)11-6-7-17-40/h4-5,8,10,12,14,19,23,29-32,42H,2-3,6-7,9,11,13,15-18,20-21,40H2,1H3,(H2,41,47)(H,43,50)(H,44,48)(H,45,49)/t23-,29-,30-,31-,32+/m0/s1

> <PUBCHEM_IUPAC_INCHIKEY>
VGAFJYDHFQEKRB-CNRPLSBTSA-N

> <PUBCHEM_XLOGP3_AA>
3.6

> <PUBCHEM_EXACT_MASS>
693.38140939

> <PUBCHEM_MOLECULAR_FORMULA>
C37H49F2N7O4

> <PUBCHEM_MOLECULAR_WEIGHT>
693.8

> <PUBCHEM_OPENEYE_CAN_SMILES>
CCCCC(C(=O)NC(CC1=CC(=C(C=C1)F)F)C(=O)NC(CCCCN)C(=O)N)NC(=O)C2CCC3C4=C(CCN3C2)C5=CC=CC=C5N4

> <PUBCHEM_OPENEYE_ISO_SMILES>
CCCC[C@@H](C(=O)N[C@@H](CC1=CC(=C(C=C1)F)F)C(=O)N[C@@H](CCCCN)C(=O)N)NC(=O)[C@H]2CC[C@@H]3C4=C(CCN3C2)C5=CC=CC=C5N4

> <PUBCHEM_CACTVS_TPSA>
175

> <PUBCHEM_MONOISOTOPIC_WEIGHT>
693.38140939

> <PUBCHEM_TOTAL_CHARGE>
0

> <PUBCHEM_HEAVY_ATOM_COUNT>
50

> <PUBCHEM_ATOM_DEF_STEREO_COUNT>
5

> <PUBCHEM_ATOM_UDEF_STEREO_COUNT>
0

> <PUBCHEM_BOND_DEF_STEREO_COUNT>
0

> <PUBCHEM_BOND_UDEF_STEREO_COUNT>
0

> <PUBCHEM_ISOTOPIC_ATOM_COUNT>
0

> <PUBCHEM_COMPONENT_COUNT>
1

> <PUBCHEM_CACTVS_TAUTO_COUNT>
-1

> <PUBCHEM_COORDINATE_TYPE>
1
5
255

> <PUBCHEM_BONDANNOTATIONS>
35  10  6
39  11  6
14  51  5
16  24  5
19  21  8
21  23  8
23  25  8
23  26  8
25  27  8
26  29  8
27  30  8
29  30  8
40  43  8
40  44  8
43  48  8
44  49  8
48  50  8
49  50  8
8  19  8
8  25  8
28  9  5

$$$$
