156012823
  -OEChem-09292322422D

 74 78  0     1  0  0  0  0  0999 V2000
    9.1206    3.4221    0.0000 S   0  0  0  0  0  0  0  0  0  0  0  0
    4.6783   -6.2040    0.0000 S   0  0  0  0  0  0  0  0  0  0  0  0
    9.8649    4.0899    0.0000 O   0  0  0  0  0  0  0  0  0  0  0  0
    8.3763    2.7542    0.0000 O   0  0  0  0  0  0  0  0  0  0  0  0
    5.6103   -1.7430    0.0000 N   0  0  0  0  0  0  0  0  0  0  0  0
    4.9889   -3.6440    0.0000 N   0  0  0  0  0  0  0  0  0  0  0  0
    9.7884    2.6778    0.0000 N   0  0  3  0  0  0  0  0  0  0  0  0
    5.2619   -5.3993    0.0000 N   0  0  0  0  0  0  0  0  0  0  0  0
    4.6318   -1.9492    0.0000 C   0  0  0  0  0  0  0  0  0  0  0  0
    6.2781   -2.4873    0.0000 C   0  0  0  0  0  0  0  0  0  0  0  0
    5.9209   -0.7925    0.0000 C   0  0  0  0  0  0  0  0  0  0  0  0
    4.3211   -2.8997    0.0000 C   0  0  0  0  0  0  0  0  0  0  0  0
    5.9674   -3.4378    0.0000 C   0  0  0  0  0  0  0  0  0  0  0  0
    6.8994   -0.5862    0.0000 C   0  0  0  0  0  0  0  0  0  0  0  0
    7.2101    0.3643    0.0000 C   0  0  0  0  0  0  0  0  0  0  0  0
    8.1886    0.5705    0.0000 C   0  0  0  0  0  0  0  0  0  0  0  0
    4.6783   -4.5945    0.0000 C   0  0  0  0  0  0  0  0  0  0  0  0
    8.4993    1.5210    0.0000 C   0  0  0  0  0  0  0  0  0  0  0  0
    9.4778    1.7272    0.0000 C   0  0  0  0  0  0  0  0  0  0  0  0
    3.7320   -4.8993    0.0000 C   0  0  0  0  0  0  0  0  0  0  0  0
    3.7320   -5.8993    0.0000 C   0  0  0  0  0  0  0  0  0  0  0  0
   10.7669    2.8840    0.0000 C   0  0  0  0  0  0  0  0  0  0  0  0
    2.8660   -4.3993    0.0000 C   0  0  0  0  0  0  0  0  0  0  0  0
    8.4527    4.1664    0.0000 C   0  0  0  0  0  0  0  0  0  0  0  0
    2.8660   -6.3993    0.0000 C   0  0  0  0  0  0  0  0  0  0  0  0
    2.0000   -4.8993    0.0000 C   0  0  0  0  0  0  0  0  0  0  0  0
    2.0000   -5.8993    0.0000 C   0  0  0  0  0  0  0  0  0  0  0  0
   11.0776    3.8345    0.0000 C   0  0  0  0  0  0  0  0  0  0  0  0
   11.4348    2.1397    0.0000 C   0  0  0  0  0  0  0  0  0  0  0  0
    7.4742    3.9602    0.0000 C   0  0  0  0  0  0  0  0  0  0  0  0
    8.7634    5.1169    0.0000 C   0  0  0  0  0  0  0  0  0  0  0  0
   12.0561    4.0407    0.0000 C   0  0  0  0  0  0  0  0  0  0  0  0
   12.4133    2.3459    0.0000 C   0  0  0  0  0  0  0  0  0  0  0  0
    6.8064    4.7044    0.0000 C   0  0  0  0  0  0  0  0  0  0  0  0
    8.0956    5.8612    0.0000 C   0  0  0  0  0  0  0  0  0  0  0  0
    7.1170    5.6550    0.0000 C   0  0  0  0  0  0  0  0  0  0  0  0
   12.7239    3.2964    0.0000 C   0  0  0  0  0  0  0  0  0  0  0  0
    6.4492    6.3993    0.0000 C   0  0  0  0  0  0  0  0  0  0  0  0
    4.6112   -1.3295    0.0000 H   0  0  0  0  0  0  0  0  0  0  0  0
    4.0179   -1.8618    0.0000 H   0  0  0  0  0  0  0  0  0  0  0  0
    6.8250   -2.7793    0.0000 H   0  0  0  0  0  0  0  0  0  0  0  0
    6.6607   -1.9994    0.0000 H   0  0  0  0  0  0  0  0  0  0  0  0
    5.9004   -0.1728    0.0000 H   0  0  0  0  0  0  0  0  0  0  0  0
    5.3071   -0.7051    0.0000 H   0  0  0  0  0  0  0  0  0  0  0  0
    3.7742   -2.6077    0.0000 H   0  0  0  0  0  0  0  0  0  0  0  0
    3.9385   -3.3876    0.0000 H   0  0  0  0  0  0  0  0  0  0  0  0
    5.9880   -4.0575    0.0000 H   0  0  0  0  0  0  0  0  0  0  0  0
    6.5812   -3.5252    0.0000 H   0  0  0  0  0  0  0  0  0  0  0  0
    6.9200   -1.2059    0.0000 H   0  0  0  0  0  0  0  0  0  0  0  0
    7.5132   -0.6736    0.0000 H   0  0  0  0  0  0  0  0  0  0  0  0
    7.1895    0.9839    0.0000 H   0  0  0  0  0  0  0  0  0  0  0  0
    6.5963    0.4516    0.0000 H   0  0  0  0  0  0  0  0  0  0  0  0
    8.2092   -0.0492    0.0000 H   0  0  0  0  0  0  0  0  0  0  0  0
    8.8024    0.4832    0.0000 H   0  0  0  0  0  0  0  0  0  0  0  0
    8.4787    2.1407    0.0000 H   0  0  0  0  0  0  0  0  0  0  0  0
    7.8854    1.6084    0.0000 H   0  0  0  0  0  0  0  0  0  0  0  0
    9.4983    1.1076    0.0000 H   0  0  0  0  0  0  0  0  0  0  0  0
   10.0916    1.6399    0.0000 H   0  0  0  0  0  0  0  0  0  0  0  0
    2.8660   -3.7793    0.0000 H   0  0  0  0  0  0  0  0  0  0  0  0
    2.8660   -7.0193    0.0000 H   0  0  0  0  0  0  0  0  0  0  0  0
    1.4631   -4.5893    0.0000 H   0  0  0  0  0  0  0  0  0  0  0  0
   10.6635    4.2960    0.0000 H   0  0  0  0  0  0  0  0  0  0  0  0
   11.2422    1.5504    0.0000 H   0  0  0  0  0  0  0  0  0  0  0  0
    1.4631   -6.2093    0.0000 H   0  0  0  0  0  0  0  0  0  0  0  0
    7.2816    3.3708    0.0000 H   0  0  0  0  0  0  0  0  0  0  0  0
    9.3701    5.2447    0.0000 H   0  0  0  0  0  0  0  0  0  0  0  0
   12.2487    4.6300    0.0000 H   0  0  0  0  0  0  0  0  0  0  0  0
   12.8273    1.8844    0.0000 H   0  0  0  0  0  0  0  0  0  0  0  0
    6.1997    4.5766    0.0000 H   0  0  0  0  0  0  0  0  0  0  0  0
    8.2882    6.4505    0.0000 H   0  0  0  0  0  0  0  0  0  0  0  0
   13.3306    3.4243    0.0000 H   0  0  0  0  0  0  0  0  0  0  0  0
    6.9107    6.8133    0.0000 H   0  0  0  0  0  0  0  0  0  0  0  0
    6.0351    6.8607    0.0000 H   0  0  0  0  0  0  0  0  0  0  0  0
    5.9877    5.9852    0.0000 H   0  0  0  0  0  0  0  0  0  0  0  0
  1  3  2  0  0  0  0
  1  4  2  0  0  0  0
  1  7  1  0  0  0  0
  1 24  1  0  0  0  0
  2  8  1  0  0  0  0
  2 21  1  0  0  0  0
  5  9  1  0  0  0  0
  5 10  1  0  0  0  0
  5 11  1  0  0  0  0
  6 12  1  0  0  0  0
  6 13  1  0  0  0  0
  6 17  1  0  0  0  0
  7 19  1  0  0  0  0
  7 22  1  0  0  0  0
  8 17  2  0  0  0  0
  9 12  1  0  0  0  0
  9 39  1  0  0  0  0
  9 40  1  0  0  0  0
 10 13  1  0  0  0  0
 10 41  1  0  0  0  0
 10 42  1  0  0  0  0
 11 14  1  0  0  0  0
 11 43  1  0  0  0  0
 11 44  1  0  0  0  0
 12 45  1  0  0  0  0
 12 46  1  0  0  0  0
 13 47  1  0  0  0  0
 13 48  1  0  0  0  0
 14 15  1  0  0  0  0
 14 49  1  0  0  0  0
 14 50  1  0  0  0  0
 15 16  1  0  0  0  0
 15 51  1  0  0  0  0
 15 52  1  0  0  0  0
 16 18  1  0  0  0  0
 16 53  1  0  0  0  0
 16 54  1  0  0  0  0
 17 20  1  0  0  0  0
 18 19  1  0  0  0  0
 18 55  1  0  0  0  0
 18 56  1  0  0  0  0
 19 57  1  0  0  0  0
 19 58  1  0  0  0  0
 20 21  1  0  0  0  0
 20 23  2  0  0  0  0
 21 25  2  0  0  0  0
 22 28  2  0  0  0  0
 22 29  1  0  0  0  0
 23 26  1  0  0  0  0
 23 59  1  0  0  0  0
 24 30  2  0  0  0  0
 24 31  1  0  0  0  0
 25 27  1  0  0  0  0
 25 60  1  0  0  0  0
 26 27  2  0  0  0  0
 26 61  1  0  0  0  0
 27 64  1  0  0  0  0
 28 32  1  0  0  0  0
 28 62  1  0  0  0  0
 29 33  2  0  0  0  0
 29 63  1  0  0  0  0
 30 34  1  0  0  0  0
 30 65  1  0  0  0  0
 31 35  2  0  0  0  0
 31 66  1  0  0  0  0
 32 37  2  0  0  0  0
 32 67  1  0  0  0  0
 33 37  1  0  0  0  0
 33 68  1  0  0  0  0
 34 36  2  0  0  0  0
 34 69  1  0  0  0  0
 35 36  1  0  0  0  0
 35 70  1  0  0  0  0
 36 38  1  0  0  0  0
 37 71  1  0  0  0  0
 38 72  1  0  0  0  0
 38 73  1  0  0  0  0
 38 74  1  0  0  0  0
M  END
> <PUBCHEM_COMPOUND_CID>
156012823

> <PUBCHEM_COMPOUND_CANONICALIZED>
1

> <PUBCHEM_CACTVS_COMPLEXITY>
800

> <PUBCHEM_CACTVS_HBOND_ACCEPTOR>
7

> <PUBCHEM_CACTVS_HBOND_DONOR>
0

> <PUBCHEM_CACTVS_ROTATABLE_BOND>
11

> <PUBCHEM_CACTVS_SUBSKEYS>
AAADcfB7sABgAAAAAAAAAAAAAAAAAWAAAAA8YMEAAAAAAFgB9AAAHAQAQAAADAjBWgQz8dMAAAKkAiZiYHDDABAhAgBJmDgoZJiIYKLAmZGUIAxggALIyAcQgAAOEAAAAAAEAAAgAAAAAAgAAAAAAAAAAA==

> <PUBCHEM_IUPAC_OPENEYE_NAME>
N-[6-[4-(1,2-benzothiazol-3-yl)piperazin-1-yl]hexyl]-4-methyl-N-phenyl-benzenesulfonamide

> <PUBCHEM_IUPAC_CAS_NAME>
N-[6-[4-(1,2-benzothiazol-3-yl)-1-piperazinyl]hexyl]-4-methyl-N-phenylbenzenesulfonamide

> <PUBCHEM_IUPAC_NAME_MARKUP>
<I>N</I>-[6-[4-(1,2-benzothiazol-3-yl)piperazin-1-yl]hexyl]-4-methyl-<I>N</I>-phenylbenzenesulfonamide

> <PUBCHEM_IUPAC_NAME>
N-[6-[4-(1,2-benzothiazol-3-yl)piperazin-1-yl]hexyl]-4-methyl-N-phenylbenzenesulfonamide

> <PUBCHEM_IUPAC_SYSTEMATIC_NAME>
N-[6-[4-(1,2-benzothiazol-3-yl)piperazin-1-yl]hexyl]-4-methyl-N-phenyl-benzenesulfonamide

> <PUBCHEM_IUPAC_TRADITIONAL_NAME>
N-[6-[4-(1,2-benzothiazol-3-yl)piperazino]hexyl]-4-methyl-N-phenyl-benzenesulfonamide

> <PUBCHEM_IUPAC_INCHI>
InChI=1S/C30H36N4O2S2/c1-25-15-17-27(18-16-25)38(35,36)34(26-11-5-4-6-12-26)20-10-3-2-9-19-32-21-23-33(24-22-32)30-28-13-7-8-14-29(28)37-31-30/h4-8,11-18H,2-3,9-10,19-24H2,1H3

> <PUBCHEM_IUPAC_INCHIKEY>
QEGVRHLMTQXKBP-UHFFFAOYSA-N

> <PUBCHEM_XLOGP3_AA>
6.8

> <PUBCHEM_EXACT_MASS>
548.22796875

> <PUBCHEM_MOLECULAR_FORMULA>
C30H36N4O2S2

> <PUBCHEM_MOLECULAR_WEIGHT>
548.8

> <PUBCHEM_OPENEYE_CAN_SMILES>
CC1=CC=C(C=C1)S(=O)(=O)N(CCCCCCN2CCN(CC2)C3=NSC4=CC=CC=C43)C5=CC=CC=C5

> <PUBCHEM_OPENEYE_ISO_SMILES>
CC1=CC=C(C=C1)S(=O)(=O)N(CCCCCCN2CCN(CC2)C3=NSC4=CC=CC=C43)C5=CC=CC=C5

> <PUBCHEM_CACTVS_TPSA>
93.4

> <PUBCHEM_MONOISOTOPIC_WEIGHT>
548.22796875

> <PUBCHEM_TOTAL_CHARGE>
0

> <PUBCHEM_HEAVY_ATOM_COUNT>
38

> <PUBCHEM_ATOM_DEF_STEREO_COUNT>
0

> <PUBCHEM_ATOM_UDEF_STEREO_COUNT>
0

> <PUBCHEM_BOND_DEF_STEREO_COUNT>
0

> <PUBCHEM_BOND_UDEF_STEREO_COUNT>
0

> <PUBCHEM_ISOTOPIC_ATOM_COUNT>
0

> <PUBCHEM_COMPONENT_COUNT>
1

> <PUBCHEM_CACTVS_TAUTO_COUNT>
-1

> <PUBCHEM_COORDINATE_TYPE>
1
5
255

> <PUBCHEM_BONDANNOTATIONS>
17  20  8
2  21  8
2  8  8
20  21  8
20  23  8
21  25  8
22  28  8
22  29  8
23  26  8
24  30  8
24  31  8
25  27  8
26  27  8
28  32  8
29  33  8
30  34  8
31  35  8
32  37  8
33  37  8
34  36  8
35  36  8
8  17  8

$$$$
