56944952
  -OEChem-09292322392D

 53 56  0     1  0  0  0  0  0999 V2000
    2.0000   -3.6642    0.0000 Cl  0  0  0  0  0  0  0  0  0  0  0  0
    9.3653    2.2561    0.0000 S   0  0  0  0  0  0  0  0  0  0  0  0
   10.6079    6.0582    0.0000 F   0  0  0  0  0  0  0  0  0  0  0  0
   10.3158    1.9455    0.0000 O   0  0  0  0  0  0  0  0  0  0  0  0
    8.4148    2.5668    0.0000 O   0  0  0  0  0  0  0  0  0  0  0  0
    6.4763   -1.0079    0.0000 N   0  0  3  0  0  0  0  0  0  0  0  0
    5.5443   -5.4689    0.0000 N   0  0  0  0  0  0  0  0  0  0  0  0
    9.0546    1.3056    0.0000 N   0  0  0  0  0  0  0  0  0  0  0  0
    5.4978   -1.2141    0.0000 C   0  0  0  0  0  0  0  0  0  0  0  0
    5.1871   -2.1646    0.0000 C   0  0  0  0  0  0  0  0  0  0  0  0
    7.1441   -1.7522    0.0000 C   0  0  0  0  0  0  0  0  0  0  0  0
    6.7870   -0.0573    0.0000 C   0  0  0  0  0  0  0  0  0  0  0  0
    5.8550   -2.9089    0.0000 C   0  0  0  0  0  0  0  0  0  0  0  0
    6.8335   -2.7027    0.0000 C   0  0  0  0  0  0  0  0  0  0  0  0
    7.7654    0.1489    0.0000 C   0  0  0  0  0  0  0  0  0  0  0  0
    5.5443   -3.8594    0.0000 C   0  0  0  0  0  0  0  0  0  0  0  0
    8.0761    1.0994    0.0000 C   0  0  0  0  0  0  0  0  0  0  0  0
    4.5981   -4.1642    0.0000 C   0  0  0  0  0  0  0  0  0  0  0  0
    6.1279   -4.6642    0.0000 C   0  0  0  0  0  0  0  0  0  0  0  0
    4.5981   -5.1642    0.0000 C   0  0  0  0  0  0  0  0  0  0  0  0
    3.7320   -3.6642    0.0000 C   0  0  0  0  0  0  0  0  0  0  0  0
    3.7320   -5.6642    0.0000 C   0  0  0  0  0  0  0  0  0  0  0  0
    2.8660   -4.1642    0.0000 C   0  0  0  0  0  0  0  0  0  0  0  0
    2.8660   -5.1642    0.0000 C   0  0  0  0  0  0  0  0  0  0  0  0
    9.6759    3.2066    0.0000 C   0  0  0  0  0  0  0  0  0  0  0  0
   10.6545    3.4129    0.0000 C   0  0  0  0  0  0  0  0  0  0  0  0
    9.0081    3.9510    0.0000 C   0  0  0  0  0  0  0  0  0  0  0  0
   10.9651    4.3634    0.0000 C   0  0  0  0  0  0  0  0  0  0  0  0
    9.3188    4.9015    0.0000 C   0  0  0  0  0  0  0  0  0  0  0  0
   10.2973    5.1077    0.0000 C   0  0  0  0  0  0  0  0  0  0  0  0
    5.4772   -0.5944    0.0000 H   0  0  0  0  0  0  0  0  0  0  0  0
    4.8840   -1.1267    0.0000 H   0  0  0  0  0  0  0  0  0  0  0  0
    4.6402   -1.8726    0.0000 H   0  0  0  0  0  0  0  0  0  0  0  0
    4.8046   -2.6525    0.0000 H   0  0  0  0  0  0  0  0  0  0  0  0
    7.6910   -2.0442    0.0000 H   0  0  0  0  0  0  0  0  0  0  0  0
    7.5267   -1.2643    0.0000 H   0  0  0  0  0  0  0  0  0  0  0  0
    6.7664    0.5623    0.0000 H   0  0  0  0  0  0  0  0  0  0  0  0
    6.1731    0.0300    0.0000 H   0  0  0  0  0  0  0  0  0  0  0  0
    7.2475   -3.1641    0.0000 H   0  0  0  0  0  0  0  0  0  0  0  0
    7.7860   -0.4708    0.0000 H   0  0  0  0  0  0  0  0  0  0  0  0
    8.3793    0.0615    0.0000 H   0  0  0  0  0  0  0  0  0  0  0  0
    8.0556    1.7190    0.0000 H   0  0  0  0  0  0  0  0  0  0  0  0
    7.4623    1.1867    0.0000 H   0  0  0  0  0  0  0  0  0  0  0  0
    6.7479   -4.6642    0.0000 H   0  0  0  0  0  0  0  0  0  0  0  0
    5.7369   -6.0582    0.0000 H   0  0  0  0  0  0  0  0  0  0  0  0
    9.4687    0.8441    0.0000 H   0  0  0  0  0  0  0  0  0  0  0  0
    3.7320   -3.0442    0.0000 H   0  0  0  0  0  0  0  0  0  0  0  0
    3.7320   -6.2842    0.0000 H   0  0  0  0  0  0  0  0  0  0  0  0
    2.3291   -5.4742    0.0000 H   0  0  0  0  0  0  0  0  0  0  0  0
   11.0685    2.9514    0.0000 H   0  0  0  0  0  0  0  0  0  0  0  0
    8.4014    3.8231    0.0000 H   0  0  0  0  0  0  0  0  0  0  0  0
   11.5718    4.4912    0.0000 H   0  0  0  0  0  0  0  0  0  0  0  0
    8.9047    5.3629    0.0000 H   0  0  0  0  0  0  0  0  0  0  0  0
  1 23  1  0  0  0  0
  2  4  2  0  0  0  0
  2  5  2  0  0  0  0
  2  8  1  0  0  0  0
  2 25  1  0  0  0  0
  3 30  1  0  0  0  0
  6  9  1  0  0  0  0
  6 11  1  0  0  0  0
  6 12  1  0  0  0  0
  7 19  1  0  0  0  0
  7 20  1  0  0  0  0
  7 45  1  0  0  0  0
  8 17  1  0  0  0  0
  8 46  1  0  0  0  0
  9 10  1  0  0  0  0
  9 31  1  0  0  0  0
  9 32  1  0  0  0  0
 10 13  1  0  0  0  0
 10 33  1  0  0  0  0
 10 34  1  0  0  0  0
 11 14  1  0  0  0  0
 11 35  1  0  0  0  0
 11 36  1  0  0  0  0
 12 15  1  0  0  0  0
 12 37  1  0  0  0  0
 12 38  1  0  0  0  0
 13 14  2  0  0  0  0
 13 16  1  0  0  0  0
 14 39  1  0  0  0  0
 15 17  1  0  0  0  0
 15 40  1  0  0  0  0
 15 41  1  0  0  0  0
 16 18  1  0  0  0  0
 16 19  2  0  0  0  0
 17 42  1  0  0  0  0
 17 43  1  0  0  0  0
 18 20  2  0  0  0  0
 18 21  1  0  0  0  0
 19 44  1  0  0  0  0
 20 22  1  0  0  0  0
 21 23  2  0  0  0  0
 21 47  1  0  0  0  0
 22 24  2  0  0  0  0
 22 48  1  0  0  0  0
 23 24  1  0  0  0  0
 24 49  1  0  0  0  0
 25 26  2  0  0  0  0
 25 27  1  0  0  0  0
 26 28  1  0  0  0  0
 26 50  1  0  0  0  0
 27 29  2  0  0  0  0
 27 51  1  0  0  0  0
 28 30  2  0  0  0  0
 28 52  1  0  0  0  0
 29 30  1  0  0  0  0
 29 53  1  0  0  0  0
M  END
> <PUBCHEM_COMPOUND_CID>
56944952

> <PUBCHEM_COMPOUND_CANONICALIZED>
1

> <PUBCHEM_CACTVS_COMPLEXITY>
706

> <PUBCHEM_CACTVS_HBOND_ACCEPTOR>
5

> <PUBCHEM_CACTVS_HBOND_DONOR>
2

> <PUBCHEM_CACTVS_ROTATABLE_BOND>
7

> <PUBCHEM_CACTVS_SUBSKEYS>
AAADceB7MQBEAAAAAAAAAAAAAAAAAWAAAAAwYIAAAAAAAFgB9AAAHQYQQAAADArBXiw8wfPJkAKgAzRnRHDCgDAxByAI2bg4ZpgIIOLB05GEIAhgkADIyAcQgMAOgABAIAACAAAAAIBAAAQAAAAAAAAAAA==

> <PUBCHEM_IUPAC_OPENEYE_NAME>
N-[3-[4-(5-chloro-1H-indol-3-yl)-3,6-dihydro-2H-pyridin-1-yl]propyl]-4-fluoro-benzenesulfonamide

> <PUBCHEM_IUPAC_CAS_NAME>
N-[3-[4-(5-chloro-1H-indol-3-yl)-3,6-dihydro-2H-pyridin-1-yl]propyl]-4-fluorobenzenesulfonamide

> <PUBCHEM_IUPAC_NAME_MARKUP>
<I>N</I>-[3-[4-(5-chloro-1<I>H</I>-indol-3-yl)-3,6-dihydro-2<I>H</I>-pyridin-1-yl]propyl]-4-fluorobenzenesulfonamide

> <PUBCHEM_IUPAC_NAME>
N-[3-[4-(5-chloro-1H-indol-3-yl)-3,6-dihydro-2H-pyridin-1-yl]propyl]-4-fluorobenzenesulfonamide

> <PUBCHEM_IUPAC_SYSTEMATIC_NAME>
N-[3-[4-(5-chloranyl-1H-indol-3-yl)-3,6-dihydro-2H-pyridin-1-yl]propyl]-4-fluoranyl-benzenesulfonamide

> <PUBCHEM_IUPAC_TRADITIONAL_NAME>
N-[3-[4-(5-chloro-1H-indol-3-yl)-3,6-dihydro-2H-pyridin-1-yl]propyl]-4-fluoro-benzenesulfonamide

> <PUBCHEM_IUPAC_INCHI>
InChI=1S/C22H23ClFN3O2S/c23-17-2-7-22-20(14-17)21(15-25-22)16-8-12-27(13-9-16)11-1-10-26-30(28,29)19-5-3-18(24)4-6-19/h2-8,14-15,25-26H,1,9-13H2

> <PUBCHEM_IUPAC_INCHIKEY>
BSCIANYCCSTXPP-UHFFFAOYSA-N

> <PUBCHEM_XLOGP3_AA>
4

> <PUBCHEM_EXACT_MASS>
447.1183540

> <PUBCHEM_MOLECULAR_FORMULA>
C22H23ClFN3O2S

> <PUBCHEM_MOLECULAR_WEIGHT>
448.0

> <PUBCHEM_OPENEYE_CAN_SMILES>
C1CN(CC=C1C2=CNC3=C2C=C(C=C3)Cl)CCCNS(=O)(=O)C4=CC=C(C=C4)F

> <PUBCHEM_OPENEYE_ISO_SMILES>
C1CN(CC=C1C2=CNC3=C2C=C(C=C3)Cl)CCCNS(=O)(=O)C4=CC=C(C=C4)F

> <PUBCHEM_CACTVS_TPSA>
73.6

> <PUBCHEM_MONOISOTOPIC_WEIGHT>
447.1183540

> <PUBCHEM_TOTAL_CHARGE>
0

> <PUBCHEM_HEAVY_ATOM_COUNT>
30

> <PUBCHEM_ATOM_DEF_STEREO_COUNT>
0

> <PUBCHEM_ATOM_UDEF_STEREO_COUNT>
0

> <PUBCHEM_BOND_DEF_STEREO_COUNT>
0

> <PUBCHEM_BOND_UDEF_STEREO_COUNT>
0

> <PUBCHEM_ISOTOPIC_ATOM_COUNT>
0

> <PUBCHEM_COMPONENT_COUNT>
1

> <PUBCHEM_CACTVS_TAUTO_COUNT>
-1

> <PUBCHEM_COORDINATE_TYPE>
1
5
255

> <PUBCHEM_BONDANNOTATIONS>
16  18  8
16  19  8
18  20  8
18  21  8
20  22  8
21  23  8
22  24  8
23  24  8
25  26  8
25  27  8
26  28  8
27  29  8
28  30  8
29  30  8
7  19  8
7  20  8

$$$$
