164623879
  -OEChem-09292322432D

 72 75  0     1  0  0  0  0  0999 V2000
   14.6953   -1.1363    0.0000 Cl  0  0  0  0  0  0  0  0  0  0  0  0
   10.4226   -0.2738    0.0000 O   0  0  0  0  0  0  0  0  0  0  0  0
   13.3571    0.3500    0.0000 O   0  0  0  0  0  0  0  0  0  0  0  0
   10.7827   -1.9680    0.0000 O   0  0  0  0  0  0  0  0  0  0  0  0
    6.7619   -0.0757    0.0000 O   0  0  0  0  0  0  0  0  0  0  0  0
   10.7619    3.3884    0.0000 N   0  0  3  0  0  0  0  0  0  0  0  0
   11.7098    0.8852    0.0000 N   0  0  0  0  0  0  0  0  0  0  0  0
    6.7619    1.6564    0.0000 N   0  0  0  0  0  0  0  0  0  0  0  0
    4.6783   -0.0144    0.0000 N   0  0  0  0  0  0  0  0  0  0  0  0
   11.3497    2.5794    0.0000 C   0  0  1  0  0  0  0  0  0  0  0  0
   12.3007    2.8884    0.0000 C   0  0  0  0  0  0  0  0  0  0  0  0
   11.3497    4.1974    0.0000 C   0  0  0  0  0  0  0  0  0  0  0  0
   12.3007    3.8884    0.0000 C   0  0  0  0  0  0  0  0  0  0  0  0
    9.7619    3.3884    0.0000 C   0  0  0  0  0  0  0  0  0  0  0  0
   11.0406    1.6283    0.0000 C   0  0  0  0  0  0  0  0  0  0  0  0
    9.2619    2.5224    0.0000 C   0  0  0  0  0  0  0  0  0  0  0  0
    8.2619    2.5224    0.0000 C   0  0  0  0  0  0  0  0  0  0  0  0
    7.7619    1.6564    0.0000 C   0  0  0  0  0  0  0  0  0  0  0  0
   11.4008   -0.0659    0.0000 C   0  0  0  0  0  0  0  0  0  0  0  0
   12.0699   -0.8090    0.0000 C   0  0  0  0  0  0  0  0  0  0  0  0
   11.7609   -1.7601    0.0000 C   0  0  0  0  0  0  0  0  0  0  0  0
   13.0480   -0.6011    0.0000 C   0  0  0  0  0  0  0  0  0  0  0  0
    6.2619    0.7903    0.0000 C   0  0  0  0  0  0  0  0  0  0  0  0
   12.4300   -2.5032    0.0000 C   0  0  0  0  0  0  0  0  0  0  0  0
    5.2619    0.7903    0.0000 C   0  0  0  0  0  0  0  0  0  0  0  0
   13.7172   -1.3442    0.0000 C   0  0  0  0  0  0  0  0  0  0  0  0
   13.4082   -2.2953    0.0000 C   0  0  0  0  0  0  0  0  0  0  0  0
   12.1210   -3.4543    0.0000 C   0  0  0  0  0  0  0  0  0  0  0  0
    4.6783    1.5951    0.0000 C   0  0  0  0  0  0  0  0  0  0  0  0
    3.7320    0.2903    0.0000 C   0  0  0  0  0  0  0  0  0  0  0  0
    3.7320    1.2903    0.0000 C   0  0  0  0  0  0  0  0  0  0  0  0
   12.7901   -4.1974    0.0000 C   0  0  0  0  0  0  0  0  0  0  0  0
    2.8660   -0.2097    0.0000 C   0  0  0  0  0  0  0  0  0  0  0  0
    2.8660    1.7903    0.0000 C   0  0  0  0  0  0  0  0  0  0  0  0
   14.3352    0.5579    0.0000 C   0  0  0  0  0  0  0  0  0  0  0  0
    2.0000    0.2903    0.0000 C   0  0  0  0  0  0  0  0  0  0  0  0
    2.0000    1.2903    0.0000 C   0  0  0  0  0  0  0  0  0  0  0  0
   10.7373    2.4824    0.0000 H   0  0  0  0  0  0  0  0  0  0  0  0
   12.4296    2.2820    0.0000 H   0  0  0  0  0  0  0  0  0  0  0  0
   12.9173    2.9532    0.0000 H   0  0  0  0  0  0  0  0  0  0  0  0
   11.6018    4.7638    0.0000 H   0  0  0  0  0  0  0  0  0  0  0  0
   10.8127    4.5074    0.0000 H   0  0  0  0  0  0  0  0  0  0  0  0
   12.9173    3.8236    0.0000 H   0  0  0  0  0  0  0  0  0  0  0  0
   12.4296    4.4948    0.0000 H   0  0  0  0  0  0  0  0  0  0  0  0
    9.8695    3.9990    0.0000 H   0  0  0  0  0  0  0  0  0  0  0  0
    9.1793    3.6005    0.0000 H   0  0  0  0  0  0  0  0  0  0  0  0
   10.4932    1.9194    0.0000 H   0  0  0  0  0  0  0  0  0  0  0  0
   10.6589    1.1398    0.0000 H   0  0  0  0  0  0  0  0  0  0  0  0
    9.1542    1.9118    0.0000 H   0  0  0  0  0  0  0  0  0  0  0  0
    9.8445    2.3103    0.0000 H   0  0  0  0  0  0  0  0  0  0  0  0
    8.3695    3.1330    0.0000 H   0  0  0  0  0  0  0  0  0  0  0  0
    7.6793    2.7344    0.0000 H   0  0  0  0  0  0  0  0  0  0  0  0
   12.3162    1.0141    0.0000 H   0  0  0  0  0  0  0  0  0  0  0  0
    7.6542    1.0458    0.0000 H   0  0  0  0  0  0  0  0  0  0  0  0
    8.3445    1.4443    0.0000 H   0  0  0  0  0  0  0  0  0  0  0  0
    6.4519    2.1933    0.0000 H   0  0  0  0  0  0  0  0  0  0  0  0
   13.8230   -2.7561    0.0000 H   0  0  0  0  0  0  0  0  0  0  0  0
   11.5736   -3.1632    0.0000 H   0  0  0  0  0  0  0  0  0  0  0  0
   11.7393   -3.9428    0.0000 H   0  0  0  0  0  0  0  0  0  0  0  0
    4.8709   -0.6037    0.0000 H   0  0  0  0  0  0  0  0  0  0  0  0
    4.8709    2.1844    0.0000 H   0  0  0  0  0  0  0  0  0  0  0  0
   10.5911   -2.5576    0.0000 H   0  0  0  0  0  0  0  0  0  0  0  0
   12.3294   -4.6123    0.0000 H   0  0  0  0  0  0  0  0  0  0  0  0
   13.2050   -4.6582    0.0000 H   0  0  0  0  0  0  0  0  0  0  0  0
   13.2509   -3.7826    0.0000 H   0  0  0  0  0  0  0  0  0  0  0  0
    2.8660   -0.8297    0.0000 H   0  0  0  0  0  0  0  0  0  0  0  0
    2.8660    2.4103    0.0000 H   0  0  0  0  0  0  0  0  0  0  0  0
   14.4641   -0.0486    0.0000 H   0  0  0  0  0  0  0  0  0  0  0  0
   14.9417    0.6868    0.0000 H   0  0  0  0  0  0  0  0  0  0  0  0
   14.2063    1.1643    0.0000 H   0  0  0  0  0  0  0  0  0  0  0  0
    1.4631   -0.0197    0.0000 H   0  0  0  0  0  0  0  0  0  0  0  0
    1.4631    1.6003    0.0000 H   0  0  0  0  0  0  0  0  0  0  0  0
  1 26  1  0  0  0  0
  2 19  2  0  0  0  0
  3 22  1  0  0  0  0
  3 35  1  0  0  0  0
  4 21  1  0  0  0  0
  4 62  1  0  0  0  0
  5 23  2  0  0  0  0
  6 10  1  0  0  0  0
  6 12  1  0  0  0  0
  6 14  1  0  0  0  0
  7 15  1  0  0  0  0
  7 19  1  0  0  0  0
  7 53  1  0  0  0  0
  8 18  1  0  0  0  0
  8 23  1  0  0  0  0
  8 56  1  0  0  0  0
  9 25  1  0  0  0  0
  9 30  1  0  0  0  0
  9 60  1  0  0  0  0
 10 11  1  0  0  0  0
 10 15  1  1  0  0  0
 10 38  1  0  0  0  0
 11 13  1  0  0  0  0
 11 39  1  0  0  0  0
 11 40  1  0  0  0  0
 12 13  1  0  0  0  0
 12 41  1  0  0  0  0
 12 42  1  0  0  0  0
 13 43  1  0  0  0  0
 13 44  1  0  0  0  0
 14 16  1  0  0  0  0
 14 45  1  0  0  0  0
 14 46  1  0  0  0  0
 15 47  1  0  0  0  0
 15 48  1  0  0  0  0
 16 17  1  0  0  0  0
 16 49  1  0  0  0  0
 16 50  1  0  0  0  0
 17 18  1  0  0  0  0
 17 51  1  0  0  0  0
 17 52  1  0  0  0  0
 18 54  1  0  0  0  0
 18 55  1  0  0  0  0
 19 20  1  0  0  0  0
 20 21  2  0  0  0  0
 20 22  1  0  0  0  0
 21 24  1  0  0  0  0
 22 26  2  0  0  0  0
 23 25  1  0  0  0  0
 24 27  2  0  0  0  0
 24 28  1  0  0  0  0
 25 29  2  0  0  0  0
 26 27  1  0  0  0  0
 27 57  1  0  0  0  0
 28 32  1  0  0  0  0
 28 58  1  0  0  0  0
 28 59  1  0  0  0  0
 29 31  1  0  0  0  0
 29 61  1  0  0  0  0
 30 31  1  0  0  0  0
 30 33  2  0  0  0  0
 31 34  2  0  0  0  0
 32 63  1  0  0  0  0
 32 64  1  0  0  0  0
 32 65  1  0  0  0  0
 33 36  1  0  0  0  0
 33 66  1  0  0  0  0
 34 37  1  0  0  0  0
 34 67  1  0  0  0  0
 35 68  1  0  0  0  0
 35 69  1  0  0  0  0
 35 70  1  0  0  0  0
 36 37  2  0  0  0  0
 36 71  1  0  0  0  0
 37 72  1  0  0  0  0
M  END
> <PUBCHEM_COMPOUND_CID>
164623879

> <PUBCHEM_COMPOUND_CANONICALIZED>
1

> <PUBCHEM_CACTVS_COMPLEXITY>
758

> <PUBCHEM_CACTVS_HBOND_ACCEPTOR>
5

> <PUBCHEM_CACTVS_HBOND_DONOR>
4

> <PUBCHEM_CACTVS_ROTATABLE_BOND>
11

> <PUBCHEM_CACTVS_SUBSKEYS>
AAADcfB7uAAEAAAAAAAAAAAAAAAAAWLAAAAwYAAAAAAAAFgB9AAAHgIQCAAADC7BniYyxvPJlgCoAyVyVACCiCAnJ2AImaG8b9gMZ/fHt7uUcWhn9hXI+YeY6eyeICACKAAKCABAQARQABQQAAAAAAAAAA==

> <PUBCHEM_IUPAC_OPENEYE_NAME>
N-[4-[(2S)-2-[[(5-chloro-3-ethyl-2-hydroxy-6-methoxy-benzoyl)amino]methyl]pyrrolidin-1-yl]butyl]-1H-indole-2-carboxamide

> <PUBCHEM_IUPAC_CAS_NAME>
N-[4-[(2S)-2-[[[(5-chloro-3-ethyl-2-hydroxy-6-methoxyphenyl)-oxomethyl]amino]methyl]-1-pyrrolidinyl]butyl]-1H-indole-2-carboxamide

> <PUBCHEM_IUPAC_NAME_MARKUP>
<I>N</I>-[4-[(2<I>S</I>)-2-[[(5-chloro-3-ethyl-2-hydroxy-6-methoxybenzoyl)amino]methyl]pyrrolidin-1-yl]butyl]-1<I>H</I>-indole-2-carboxamide

> <PUBCHEM_IUPAC_NAME>
N-[4-[(2S)-2-[[(5-chloro-3-ethyl-2-hydroxy-6-methoxybenzoyl)amino]methyl]pyrrolidin-1-yl]butyl]-1H-indole-2-carboxamide

> <PUBCHEM_IUPAC_SYSTEMATIC_NAME>
N-[4-[(2S)-2-[[(3-chloranyl-5-ethyl-2-methoxy-6-oxidanyl-phenyl)carbonylamino]methyl]pyrrolidin-1-yl]butyl]-1H-indole-2-carboxamide

> <PUBCHEM_IUPAC_TRADITIONAL_NAME>
N-[4-[(2S)-2-[[(5-chloro-3-ethyl-2-hydroxy-6-methoxy-benzoyl)amino]methyl]pyrrolidino]butyl]-1H-indole-2-carboxamide

> <PUBCHEM_IUPAC_INCHI>
InChI=1S/C28H35ClN4O4/c1-3-18-15-21(29)26(37-2)24(25(18)34)28(36)31-17-20-10-8-14-33(20)13-7-6-12-30-27(35)23-16-19-9-4-5-11-22(19)32-23/h4-5,9,11,15-16,20,32,34H,3,6-8,10,12-14,17H2,1-2H3,(H,30,35)(H,31,36)/t20-/m0/s1

> <PUBCHEM_IUPAC_INCHIKEY>
SMQKBIDCSTXPMN-FQEVSTJZSA-N

> <PUBCHEM_XLOGP3_AA>
5.5

> <PUBCHEM_EXACT_MASS>
526.2346833

> <PUBCHEM_MOLECULAR_FORMULA>
C28H35ClN4O4

> <PUBCHEM_MOLECULAR_WEIGHT>
527.1

> <PUBCHEM_OPENEYE_CAN_SMILES>
CCC1=CC(=C(C(=C1O)C(=O)NCC2CCCN2CCCCNC(=O)C3=CC4=CC=CC=C4N3)OC)Cl

> <PUBCHEM_OPENEYE_ISO_SMILES>
CCC1=CC(=C(C(=C1O)C(=O)NC[C@@H]2CCCN2CCCCNC(=O)C3=CC4=CC=CC=C4N3)OC)Cl

> <PUBCHEM_CACTVS_TPSA>
107

> <PUBCHEM_MONOISOTOPIC_WEIGHT>
526.2346833

> <PUBCHEM_TOTAL_CHARGE>
0

> <PUBCHEM_HEAVY_ATOM_COUNT>
37

> <PUBCHEM_ATOM_DEF_STEREO_COUNT>
1

> <PUBCHEM_ATOM_UDEF_STEREO_COUNT>
0

> <PUBCHEM_BOND_DEF_STEREO_COUNT>
0

> <PUBCHEM_BOND_UDEF_STEREO_COUNT>
0

> <PUBCHEM_ISOTOPIC_ATOM_COUNT>
0

> <PUBCHEM_COMPONENT_COUNT>
1

> <PUBCHEM_CACTVS_TAUTO_COUNT>
-1

> <PUBCHEM_COORDINATE_TYPE>
1
5
255

> <PUBCHEM_BONDANNOTATIONS>
10  15  5
20  21  8
20  22  8
21  24  8
22  26  8
24  27  8
25  29  8
26  27  8
29  31  8
30  31  8
30  33  8
31  34  8
33  36  8
34  37  8
36  37  8
9  25  8
9  30  8

$$$$
