168270405
  -OEChem-09292322442D

 62 64  0     1  0  0  0  0  0999 V2000
    6.1995    1.0000    0.0000 O   0  0  0  0  0  0  0  0  0  0  0  0
    3.6014    1.5000    0.0000 O   0  0  0  0  0  0  0  0  0  0  0  0
    5.3335    2.5000    0.0000 O   0  0  0  0  0  0  0  0  0  0  0  0
    4.4674    0.0000    0.0000 O   0  0  0  0  0  0  0  0  0  0  0  0
    4.9338    8.1326    0.0000 N   0  0  0  0  0  0  0  0  0  0  0  0
    3.2018   11.1326    0.0000 N   0  0  3  0  0  0  0  0  0  0  0  0
    6.6659    7.1326    0.0000 N   0  0  0  0  0  0  0  0  0  0  0  0
    4.0678    8.6326    0.0000 C   0  0  0  0  0  0  0  0  0  0  0  0
    5.7998    8.6326    0.0000 C   0  0  0  0  0  0  0  0  0  0  0  0
    4.9338    7.1326    0.0000 C   0  0  0  0  0  0  0  0  0  0  0  0
    4.0678    9.6326    0.0000 C   0  0  0  0  0  0  0  0  0  0  0  0
    6.6659    8.1326    0.0000 C   0  0  0  0  0  0  0  0  0  0  0  0
    5.7998    6.6326    0.0000 C   0  0  0  0  0  0  0  0  0  0  0  0
    3.2018   10.1326    0.0000 C   0  0  0  0  0  0  0  0  0  0  0  0
    4.0678   11.6326    0.0000 C   0  0  0  0  0  0  0  0  0  0  0  0
    4.0678   12.6326    0.0000 C   0  0  0  0  0  0  0  0  0  0  0  0
    2.3358   11.6326    0.0000 C   0  0  0  0  0  0  0  0  0  0  0  0
    3.2018   13.1326    0.0000 C   0  0  0  0  0  0  0  0  0  0  0  0
    2.3358   12.6326    0.0000 C   0  0  0  0  0  0  0  0  0  0  0  0
    7.5319    6.6326    0.0000 C   0  0  0  0  0  0  0  0  0  0  0  0
    1.4418   11.0980    0.0000 C   0  0  0  0  0  0  0  0  0  0  0  0
    1.4418   13.1673    0.0000 C   0  0  0  0  0  0  0  0  0  0  0  0
    8.3979    7.1326    0.0000 C   0  0  0  0  0  0  0  0  0  0  0  0
    7.5319    5.6326    0.0000 C   0  0  0  0  0  0  0  0  0  0  0  0
    0.5357   11.6118    0.0000 C   0  0  0  0  0  0  0  0  0  0  0  0
    0.5357   12.6534    0.0000 C   0  0  0  0  0  0  0  0  0  0  0  0
    9.2640    6.6326    0.0000 C   0  0  0  0  0  0  0  0  0  0  0  0
    8.3979    5.1326    0.0000 C   0  0  0  0  0  0  0  0  0  0  0  0
    9.2640    5.6326    0.0000 C   0  0  0  0  0  0  0  0  0  0  0  0
    5.3335    1.5000    0.0000 C   0  0  0  0  0  0  0  0  0  0  0  0
    4.4674    1.0000    0.0000 C   0  0  0  0  0  0  0  0  0  0  0  0
    3.4572    8.7403    0.0000 H   0  0  0  0  0  0  0  0  0  0  0  0
    3.8557    8.0500    0.0000 H   0  0  0  0  0  0  0  0  0  0  0  0
    6.1984    9.1076    0.0000 H   0  0  0  0  0  0  0  0  0  0  0  0
    5.4013    9.1076    0.0000 H   0  0  0  0  0  0  0  0  0  0  0  0
    4.3232    7.2403    0.0000 H   0  0  0  0  0  0  0  0  0  0  0  0
    4.7218    6.5500    0.0000 H   0  0  0  0  0  0  0  0  0  0  0  0
    4.6784    9.5250    0.0000 H   0  0  0  0  0  0  0  0  0  0  0  0
    4.2798   10.2152    0.0000 H   0  0  0  0  0  0  0  0  0  0  0  0
    7.2764    8.0250    0.0000 H   0  0  0  0  0  0  0  0  0  0  0  0
    6.8779    8.7152    0.0000 H   0  0  0  0  0  0  0  0  0  0  0  0
    5.4013    6.1577    0.0000 H   0  0  0  0  0  0  0  0  0  0  0  0
    6.1984    6.1577    0.0000 H   0  0  0  0  0  0  0  0  0  0  0  0
    2.5912   10.2403    0.0000 H   0  0  0  0  0  0  0  0  0  0  0  0
    2.9897    9.5500    0.0000 H   0  0  0  0  0  0  0  0  0  0  0  0
    4.2798   11.0500    0.0000 H   0  0  0  0  0  0  0  0  0  0  0  0
    4.6784   11.7403    0.0000 H   0  0  0  0  0  0  0  0  0  0  0  0
    4.6784   12.5250    0.0000 H   0  0  0  0  0  0  0  0  0  0  0  0
    4.2798   13.2152    0.0000 H   0  0  0  0  0  0  0  0  0  0  0  0
    3.6003   13.6076    0.0000 H   0  0  0  0  0  0  0  0  0  0  0  0
    2.8032   13.6076    0.0000 H   0  0  0  0  0  0  0  0  0  0  0  0
    1.4490   10.4780    0.0000 H   0  0  0  0  0  0  0  0  0  0  0  0
    1.4490   13.7872    0.0000 H   0  0  0  0  0  0  0  0  0  0  0  0
    8.3979    7.7526    0.0000 H   0  0  0  0  0  0  0  0  0  0  0  0
    6.9950    5.3226    0.0000 H   0  0  0  0  0  0  0  0  0  0  0  0
    0.0000   11.2997    0.0000 H   0  0  0  0  0  0  0  0  0  0  0  0
    0.0000   12.9655    0.0000 H   0  0  0  0  0  0  0  0  0  0  0  0
    9.8009    6.9426    0.0000 H   0  0  0  0  0  0  0  0  0  0  0  0
    8.3979    4.5126    0.0000 H   0  0  0  0  0  0  0  0  0  0  0  0
    9.8009    5.3226    0.0000 H   0  0  0  0  0  0  0  0  0  0  0  0
    6.7364    1.3100    0.0000 H   0  0  0  0  0  0  0  0  0  0  0  0
    3.0645    1.1900    0.0000 H   0  0  0  0  0  0  0  0  0  0  0  0
  1 30  1  0  0  0  0
  1 61  1  0  0  0  0
  2 31  1  0  0  0  0
  2 62  1  0  0  0  0
  3 30  2  0  0  0  0
  4 31  2  0  0  0  0
  5  8  1  0  0  0  0
  5  9  1  0  0  0  0
  5 10  1  0  0  0  0
  6 14  1  0  0  0  0
  6 15  1  0  0  0  0
  6 17  1  0  0  0  0
  7 12  1  0  0  0  0
  7 13  1  0  0  0  0
  7 20  1  0  0  0  0
  8 11  1  0  0  0  0
  8 32  1  0  0  0  0
  8 33  1  0  0  0  0
  9 12  1  0  0  0  0
  9 34  1  0  0  0  0
  9 35  1  0  0  0  0
 10 13  1  0  0  0  0
 10 36  1  0  0  0  0
 10 37  1  0  0  0  0
 11 14  1  0  0  0  0
 11 38  1  0  0  0  0
 11 39  1  0  0  0  0
 12 40  1  0  0  0  0
 12 41  1  0  0  0  0
 13 42  1  0  0  0  0
 13 43  1  0  0  0  0
 14 44  1  0  0  0  0
 14 45  1  0  0  0  0
 15 16  1  0  0  0  0
 15 46  1  0  0  0  0
 15 47  1  0  0  0  0
 16 18  1  0  0  0  0
 16 48  1  0  0  0  0
 16 49  1  0  0  0  0
 17 19  1  0  0  0  0
 17 21  2  0  0  0  0
 18 19  1  0  0  0  0
 18 50  1  0  0  0  0
 18 51  1  0  0  0  0
 19 22  2  0  0  0  0
 20 23  2  0  0  0  0
 20 24  1  0  0  0  0
 21 25  1  0  0  0  0
 21 52  1  0  0  0  0
 22 26  1  0  0  0  0
 22 53  1  0  0  0  0
 23 27  1  0  0  0  0
 23 54  1  0  0  0  0
 24 28  2  0  0  0  0
 24 55  1  0  0  0  0
 25 26  2  0  0  0  0
 25 56  1  0  0  0  0
 26 57  1  0  0  0  0
 27 29  2  0  0  0  0
 27 58  1  0  0  0  0
 28 29  1  0  0  0  0
 28 59  1  0  0  0  0
 29 60  1  0  0  0  0
 30 31  1  0  0  0  0
M  END
> <PUBCHEM_COMPOUND_CID>
168270405

> <PUBCHEM_COMPOUND_CANONICALIZED>
1

> <PUBCHEM_CACTVS_COMPLEXITY>
456

> <PUBCHEM_CACTVS_HBOND_ACCEPTOR>
7

> <PUBCHEM_CACTVS_HBOND_DONOR>
2

> <PUBCHEM_CACTVS_ROTATABLE_BOND>
6

> <PUBCHEM_CACTVS_SUBSKEYS>
AAADceB7OAAAAAAAAAAAAAAAAAAAAAAAAAA8eIEAAAAAAACxQAAAHgAACAAADAjBmAQwyIMAAgCIAiTSSAKCAAAhAgAIiABIZIgJYCLA0ZGUIAhggADJyAcQgIAOAAAAAAACAAAAAAAAAAQAAAAAAAAAAA==

> <PUBCHEM_IUPAC_OPENEYE_NAME>
oxalic acid;1-[3-(4-phenylpiperazin-1-yl)propyl]-3,4-dihydro-2H-quinoline

> <PUBCHEM_IUPAC_CAS_NAME>
oxalic acid;1-[3-(4-phenyl-1-piperazinyl)propyl]-3,4-dihydro-2H-quinoline

> <PUBCHEM_IUPAC_NAME_MARKUP>
oxalic acid;1-[3-(4-phenylpiperazin-1-yl)propyl]-3,4-dihydro-2<I>H</I>-quinoline

> <PUBCHEM_IUPAC_NAME>
oxalic acid;1-[3-(4-phenylpiperazin-1-yl)propyl]-3,4-dihydro-2H-quinoline

> <PUBCHEM_IUPAC_SYSTEMATIC_NAME>
ethanedioic acid;1-[3-(4-phenylpiperazin-1-yl)propyl]-3,4-dihydro-2H-quinoline

> <PUBCHEM_IUPAC_TRADITIONAL_NAME>
oxalic acid;1-[3-(4-phenylpiperazino)propyl]-3,4-dihydro-2H-quinoline

> <PUBCHEM_IUPAC_INCHI>
InChI=1S/C22H29N3.C2H2O4/c1-2-10-21(11-3-1)24-18-16-23(17-19-24)13-7-15-25-14-6-9-20-8-4-5-12-22(20)25;3-1(4)2(5)6/h1-5,8,10-12H,6-7,9,13-19H2;(H,3,4)(H,5,6)

> <PUBCHEM_IUPAC_INCHIKEY>
AMXXNVVMDOOFQP-UHFFFAOYSA-N

> <PUBCHEM_EXACT_MASS>
425.23145648

> <PUBCHEM_MOLECULAR_FORMULA>
C24H31N3O4

> <PUBCHEM_MOLECULAR_WEIGHT>
425.5

> <PUBCHEM_OPENEYE_CAN_SMILES>
C1CC2=CC=CC=C2N(C1)CCCN3CCN(CC3)C4=CC=CC=C4.C(=O)(C(=O)O)O

> <PUBCHEM_OPENEYE_ISO_SMILES>
C1CC2=CC=CC=C2N(C1)CCCN3CCN(CC3)C4=CC=CC=C4.C(=O)(C(=O)O)O

> <PUBCHEM_CACTVS_TPSA>
84.3

> <PUBCHEM_MONOISOTOPIC_WEIGHT>
425.23145648

> <PUBCHEM_TOTAL_CHARGE>
0

> <PUBCHEM_HEAVY_ATOM_COUNT>
31

> <PUBCHEM_ATOM_DEF_STEREO_COUNT>
0

> <PUBCHEM_ATOM_UDEF_STEREO_COUNT>
0

> <PUBCHEM_BOND_DEF_STEREO_COUNT>
0

> <PUBCHEM_BOND_UDEF_STEREO_COUNT>
0

> <PUBCHEM_ISOTOPIC_ATOM_COUNT>
0

> <PUBCHEM_COMPONENT_COUNT>
2

> <PUBCHEM_CACTVS_TAUTO_COUNT>
-1

> <PUBCHEM_COORDINATE_TYPE>
1
5
255

> <PUBCHEM_BONDANNOTATIONS>
17  19  8
17  21  8
19  22  8
20  23  8
20  24  8
21  25  8
22  26  8
23  27  8
24  28  8
25  26  8
27  29  8
28  29  8

$$$$
