45264072
  -OEChem-09292322152D

 69 72  0     0  0  0  0  0  0999 V2000
   10.1538    6.9474    0.0000 Cl  0  0  0  0  0  0  0  0  0  0  0  0
    7.7182   14.3949    0.0000 F   0  0  0  0  0  0  0  0  0  0  0  0
    4.0580   10.2078    0.0000 O   0  0  0  0  0  0  0  0  0  0  0  0
    3.1350    3.6200    0.0000 N   0  0  0  0  0  0  0  0  0  0  0  0
    3.1350    5.6200    0.0000 N   0  0  0  0  0  0  0  0  0  0  0  0
    4.3671   11.1588    0.0000 N   0  0  0  0  0  0  0  0  0  0  0  0
    2.2690    4.1200    0.0000 C   0  0  0  0  0  0  0  0  0  0  0  0
    4.0010    4.1200    0.0000 C   0  0  0  0  0  0  0  0  0  0  0  0
    2.2690    5.1200    0.0000 C   0  0  0  0  0  0  0  0  0  0  0  0
    4.0010    5.1200    0.0000 C   0  0  0  0  0  0  0  0  0  0  0  0
    3.1350    2.6200    0.0000 C   0  0  0  0  0  0  0  0  0  0  0  0
    3.1350    6.6200    0.0000 C   0  0  0  0  0  0  0  0  0  0  0  0
    4.0010    7.1200    0.0000 C   0  0  0  0  0  0  0  0  0  0  0  0
    2.2690    2.1200    0.0000 C   0  0  0  0  0  0  0  0  0  0  0  0
    4.0010    2.1200    0.0000 C   0  0  0  0  0  0  0  0  0  0  0  0
    4.0010    8.1200    0.0000 C   0  0  0  0  0  0  0  0  0  0  0  0
    4.8671    8.6200    0.0000 C   0  0  0  0  0  0  0  0  0  0  0  0
    1.4030    2.6200    0.0000 C   0  0  0  0  0  0  0  0  0  0  0  0
    4.8671    2.6200    0.0000 C   0  0  0  0  0  0  0  0  0  0  0  0
    2.2690    1.1200    0.0000 C   0  0  0  0  0  0  0  0  0  0  0  0
    4.0010    1.1200    0.0000 C   0  0  0  0  0  0  0  0  0  0  0  0
    4.8671    9.6200    0.0000 C   0  0  0  0  0  0  0  0  0  0  0  0
    0.5369    2.1200    0.0000 C   0  0  0  0  0  0  0  0  0  0  0  0
    5.7331    2.1200    0.0000 C   0  0  0  0  0  0  0  0  0  0  0  0
    1.4030    0.6200    0.0000 C   0  0  0  0  0  0  0  0  0  0  0  0
    4.8671    0.6200    0.0000 C   0  0  0  0  0  0  0  0  0  0  0  0
    0.5369    1.1200    0.0000 C   0  0  0  0  0  0  0  0  0  0  0  0
    5.7331    1.1200    0.0000 C   0  0  0  0  0  0  0  0  0  0  0  0
    5.6761   10.2078    0.0000 C   0  0  0  0  0  0  0  0  0  0  0  0
    5.3671   11.1588    0.0000 C   0  0  0  0  0  0  0  0  0  0  0  0
    5.9549   11.9679    0.0000 C   0  0  0  0  0  0  0  0  0  0  0  0
    6.9494   11.8633    0.0000 C   0  0  0  0  0  0  0  0  0  0  0  0
    5.5481   12.8814    0.0000 C   0  0  0  0  0  0  0  0  0  0  0  0
    7.5372   12.6723    0.0000 C   0  0  0  0  0  0  0  0  0  0  0  0
    6.1359   13.6904    0.0000 C   0  0  0  0  0  0  0  0  0  0  0  0
    7.1304   13.5859    0.0000 C   0  0  0  0  0  0  0  0  0  0  0  0
    1.6584    4.2277    0.0000 H   0  0  0  0  0  0  0  0  0  0  0  0
    2.0569    3.5374    0.0000 H   0  0  0  0  0  0  0  0  0  0  0  0
    4.2131    3.5374    0.0000 H   0  0  0  0  0  0  0  0  0  0  0  0
    4.6116    4.2277    0.0000 H   0  0  0  0  0  0  0  0  0  0  0  0
    2.0569    5.7026    0.0000 H   0  0  0  0  0  0  0  0  0  0  0  0
    1.6584    5.0123    0.0000 H   0  0  0  0  0  0  0  0  0  0  0  0
    4.6116    5.0123    0.0000 H   0  0  0  0  0  0  0  0  0  0  0  0
    4.2131    5.7026    0.0000 H   0  0  0  0  0  0  0  0  0  0  0  0
    3.1350    2.0000    0.0000 H   0  0  0  0  0  0  0  0  0  0  0  0
    2.9230    7.2026    0.0000 H   0  0  0  0  0  0  0  0  0  0  0  0
    2.5244    6.5123    0.0000 H   0  0  0  0  0  0  0  0  0  0  0  0
    4.2131    6.5374    0.0000 H   0  0  0  0  0  0  0  0  0  0  0  0
    4.6116    7.2277    0.0000 H   0  0  0  0  0  0  0  0  0  0  0  0
    3.7890    8.7026    0.0000 H   0  0  0  0  0  0  0  0  0  0  0  0
    3.3905    8.0123    0.0000 H   0  0  0  0  0  0  0  0  0  0  0  0
    5.0791    8.0374    0.0000 H   0  0  0  0  0  0  0  0  0  0  0  0
    5.4776    8.7277    0.0000 H   0  0  0  0  0  0  0  0  0  0  0  0
    1.4030    3.2400    0.0000 H   0  0  0  0  0  0  0  0  0  0  0  0
    4.8671    3.2400    0.0000 H   0  0  0  0  0  0  0  0  0  0  0  0
    2.8059    0.8100    0.0000 H   0  0  0  0  0  0  0  0  0  0  0  0
    3.4641    0.8100    0.0000 H   0  0  0  0  0  0  0  0  0  0  0  0
    0.0000    2.4300    0.0000 H   0  0  0  0  0  0  0  0  0  0  0  0
    6.2700    2.4300    0.0000 H   0  0  0  0  0  0  0  0  0  0  0  0
    1.4030    0.0000    0.0000 H   0  0  0  0  0  0  0  0  0  0  0  0
    4.8671    0.0000    0.0000 H   0  0  0  0  0  0  0  0  0  0  0  0
    0.0000    0.8100    0.0000 H   0  0  0  0  0  0  0  0  0  0  0  0
    6.2700    0.8100    0.0000 H   0  0  0  0  0  0  0  0  0  0  0  0
    6.2657   10.0162    0.0000 H   0  0  0  0  0  0  0  0  0  0  0  0
    7.2016   11.2969    0.0000 H   0  0  0  0  0  0  0  0  0  0  0  0
    4.9315   12.9462    0.0000 H   0  0  0  0  0  0  0  0  0  0  0  0
    8.1538   12.6075    0.0000 H   0  0  0  0  0  0  0  0  0  0  0  0
    5.8837   14.2568    0.0000 H   0  0  0  0  0  0  0  0  0  0  0  0
   11.1538    6.9474    0.0000 H   0  0  0  0  0  0  0  0  0  0  0  0
  1 69  1  0  0  0  0
  2 36  1  0  0  0  0
  3  6  1  0  0  0  0
  3 22  1  0  0  0  0
  4  7  1  0  0  0  0
  4  8  1  0  0  0  0
  4 11  1  0  0  0  0
  5  9  1  0  0  0  0
  5 10  1  0  0  0  0
  5 12  1  0  0  0  0
  6 30  2  0  0  0  0
  7  9  1  0  0  0  0
  7 37  1  0  0  0  0
  7 38  1  0  0  0  0
  8 10  1  0  0  0  0
  8 39  1  0  0  0  0
  8 40  1  0  0  0  0
  9 41  1  0  0  0  0
  9 42  1  0  0  0  0
 10 43  1  0  0  0  0
 10 44  1  0  0  0  0
 11 14  1  0  0  0  0
 11 15  1  0  0  0  0
 11 45  1  0  0  0  0
 12 13  1  0  0  0  0
 12 46  1  0  0  0  0
 12 47  1  0  0  0  0
 13 16  1  0  0  0  0
 13 48  1  0  0  0  0
 13 49  1  0  0  0  0
 14 18  2  0  0  0  0
 14 20  1  0  0  0  0
 15 19  2  0  0  0  0
 15 21  1  0  0  0  0
 16 17  1  0  0  0  0
 16 50  1  0  0  0  0
 16 51  1  0  0  0  0
 17 22  1  0  0  0  0
 17 52  1  0  0  0  0
 17 53  1  0  0  0  0
 18 23  1  0  0  0  0
 18 54  1  0  0  0  0
 19 24  1  0  0  0  0
 19 55  1  0  0  0  0
 20 25  2  0  0  0  0
 20 56  1  0  0  0  0
 21 26  2  0  0  0  0
 21 57  1  0  0  0  0
 22 29  2  0  0  0  0
 23 27  2  0  0  0  0
 23 58  1  0  0  0  0
 24 28  2  0  0  0  0
 24 59  1  0  0  0  0
 25 27  1  0  0  0  0
 25 60  1  0  0  0  0
 26 28  1  0  0  0  0
 26 61  1  0  0  0  0
 27 62  1  0  0  0  0
 28 63  1  0  0  0  0
 29 30  1  0  0  0  0
 29 64  1  0  0  0  0
 30 31  1  0  0  0  0
 31 32  2  0  0  0  0
 31 33  1  0  0  0  0
 32 34  1  0  0  0  0
 32 65  1  0  0  0  0
 33 35  2  0  0  0  0
 33 66  1  0  0  0  0
 34 36  2  0  0  0  0
 34 67  1  0  0  0  0
 35 36  1  0  0  0  0
 35 68  1  0  0  0  0
M  END
> <PUBCHEM_COMPOUND_CID>
45264072

> <PUBCHEM_COMPOUND_CANONICALIZED>
1

> <PUBCHEM_CACTVS_COMPLEXITY>
574

> <PUBCHEM_CACTVS_HBOND_ACCEPTOR>
5

> <PUBCHEM_CACTVS_HBOND_DONOR>
1

> <PUBCHEM_CACTVS_ROTATABLE_BOND>
9

> <PUBCHEM_CACTVS_SUBSKEYS>
AAADcfB7IQAEAAAAAAAAAAAAAAAAAWAAAAA8YMEAAAAAAAAB1AAAHwAEAAAADCzBngwwhJMQAACpA6RyQgCCAAAkIgAomCE+bNoIZrqAkZOUMYhmgBiIyUeY2eKOAAAAAAAAAAAAAAAAAAAAAAAAAAAAAA==

> <PUBCHEM_IUPAC_OPENEYE_NAME>
5-[4-(4-benzhydrylpiperazin-1-yl)butyl]-3-(4-fluorophenyl)isoxazole;hydrochloride

> <PUBCHEM_IUPAC_CAS_NAME>
5-[4-[4-(diphenylmethyl)-1-piperazinyl]butyl]-3-(4-fluorophenyl)isoxazole;hydrochloride

> <PUBCHEM_IUPAC_NAME_MARKUP>
5-[4-(4-benzhydrylpiperazin-1-yl)butyl]-3-(4-fluorophenyl)-1,2-oxazole;hydrochloride

> <PUBCHEM_IUPAC_NAME>
5-[4-(4-benzhydrylpiperazin-1-yl)butyl]-3-(4-fluorophenyl)-1,2-oxazole;hydrochloride

> <PUBCHEM_IUPAC_SYSTEMATIC_NAME>
5-[4-[4-(diphenylmethyl)piperazin-1-yl]butyl]-3-(4-fluorophenyl)-1,2-oxazole;hydrochloride

> <PUBCHEM_IUPAC_TRADITIONAL_NAME>
5-[4-(4-benzhydrylpiperazino)butyl]-3-(4-fluorophenyl)isoxazole;hydrochloride

> <PUBCHEM_IUPAC_INCHI>
InChI=1S/C30H32FN3O.ClH/c31-27-16-14-24(15-17-27)29-23-28(35-32-29)13-7-8-18-33-19-21-34(22-20-33)30(25-9-3-1-4-10-25)26-11-5-2-6-12-26;/h1-6,9-12,14-17,23,30H,7-8,13,18-22H2;1H

> <PUBCHEM_IUPAC_INCHIKEY>
SGSGJMXCDBEXCJ-UHFFFAOYSA-N

> <PUBCHEM_EXACT_MASS>
505.2296185

> <PUBCHEM_MOLECULAR_FORMULA>
C30H33ClFN3O

> <PUBCHEM_MOLECULAR_WEIGHT>
506.1

> <PUBCHEM_OPENEYE_CAN_SMILES>
C1CN(CCN1CCCCC2=CC(=NO2)C3=CC=C(C=C3)F)C(C4=CC=CC=C4)C5=CC=CC=C5.Cl

> <PUBCHEM_OPENEYE_ISO_SMILES>
C1CN(CCN1CCCCC2=CC(=NO2)C3=CC=C(C=C3)F)C(C4=CC=CC=C4)C5=CC=CC=C5.Cl

> <PUBCHEM_CACTVS_TPSA>
32.5

> <PUBCHEM_MONOISOTOPIC_WEIGHT>
505.2296185

> <PUBCHEM_TOTAL_CHARGE>
0

> <PUBCHEM_HEAVY_ATOM_COUNT>
36

> <PUBCHEM_ATOM_DEF_STEREO_COUNT>
0

> <PUBCHEM_ATOM_UDEF_STEREO_COUNT>
0

> <PUBCHEM_BOND_DEF_STEREO_COUNT>
0

> <PUBCHEM_BOND_UDEF_STEREO_COUNT>
0

> <PUBCHEM_ISOTOPIC_ATOM_COUNT>
0

> <PUBCHEM_COMPONENT_COUNT>
2

> <PUBCHEM_CACTVS_TAUTO_COUNT>
-1

> <PUBCHEM_COORDINATE_TYPE>
1
5
255

> <PUBCHEM_BONDANNOTATIONS>
14  18  8
14  20  8
15  19  8
15  21  8
18  23  8
19  24  8
20  25  8
21  26  8
22  29  8
23  27  8
24  28  8
25  27  8
26  28  8
29  30  8
3  22  8
3  6  8
31  32  8
31  33  8
32  34  8
33  35  8
34  36  8
35  36  8
6  30  8

$$$$
