127051041
  -OEChem-09292322052D

 59 61  0     0  0  0  0  0  0999 V2000
    5.4641   -4.7500    0.0000 Cl  0  0  0  0  0  0  0  0  0  0  0  0
    5.4641   -6.7500    0.0000 Cl  0  0  0  0  0  0  0  0  0  0  0  0
    5.4641    2.2500    0.0000 O   0  0  0  0  0  0  0  0  0  0  0  0
    2.8660    5.7500    0.0000 O   0  0  0  0  0  0  0  0  0  0  0  0
    7.1962   -1.7500    0.0000 N   0  0  0  0  0  0  0  0  0  0  0  0
    7.1962   -3.7500    0.0000 N   0  0  0  0  0  0  0  0  0  0  0  0
    4.5981    5.7500    0.0000 N   0  0  0  0  0  0  0  0  0  0  0  0
    8.0622   -2.2500    0.0000 C   0  0  0  0  0  0  0  0  0  0  0  0
    6.3301   -2.2500    0.0000 C   0  0  0  0  0  0  0  0  0  0  0  0
    8.0622   -3.2500    0.0000 C   0  0  0  0  0  0  0  0  0  0  0  0
    6.3301   -3.2500    0.0000 C   0  0  0  0  0  0  0  0  0  0  0  0
    7.1962   -0.7500    0.0000 C   0  0  0  0  0  0  0  0  0  0  0  0
    6.3301   -0.2500    0.0000 C   0  0  0  0  0  0  0  0  0  0  0  0
    7.1962   -4.7500    0.0000 C   0  0  0  0  0  0  0  0  0  0  0  0
    6.3301    0.7500    0.0000 C   0  0  0  0  0  0  0  0  0  0  0  0
    5.4641    1.2500    0.0000 C   0  0  0  0  0  0  0  0  0  0  0  0
    6.3301   -5.2500    0.0000 C   0  0  0  0  0  0  0  0  0  0  0  0
    8.0622   -5.2500    0.0000 C   0  0  0  0  0  0  0  0  0  0  0  0
    6.3301   -6.2500    0.0000 C   0  0  0  0  0  0  0  0  0  0  0  0
    8.0622   -6.2500    0.0000 C   0  0  0  0  0  0  0  0  0  0  0  0
    7.1962   -6.7500    0.0000 C   0  0  0  0  0  0  0  0  0  0  0  0
    4.5981    2.7500    0.0000 C   0  0  0  0  0  0  0  0  0  0  0  0
    4.5981    3.7500    0.0000 C   0  0  0  0  0  0  0  0  0  0  0  0
    3.7320    2.2500    0.0000 C   0  0  0  0  0  0  0  0  0  0  0  0
    3.7320    4.2500    0.0000 C   0  0  0  0  0  0  0  0  0  0  0  0
    2.8660    3.7500    0.0000 C   0  0  0  0  0  0  0  0  0  0  0  0
    2.8660    2.7500    0.0000 C   0  0  0  0  0  0  0  0  0  0  0  0
    2.0000    4.2500    0.0000 C   0  0  0  0  0  0  0  0  0  0  0  0
    3.7320    5.2500    0.0000 C   0  0  0  0  0  0  0  0  0  0  0  0
    4.5981    6.7500    0.0000 C   0  0  0  0  0  0  0  0  0  0  0  0
    8.6728   -2.3577    0.0000 H   0  0  0  0  0  0  0  0  0  0  0  0
    8.2742   -1.6674    0.0000 H   0  0  0  0  0  0  0  0  0  0  0  0
    6.1181   -1.6674    0.0000 H   0  0  0  0  0  0  0  0  0  0  0  0
    5.7196   -2.3577    0.0000 H   0  0  0  0  0  0  0  0  0  0  0  0
    8.2742   -3.8326    0.0000 H   0  0  0  0  0  0  0  0  0  0  0  0
    8.6728   -3.1423    0.0000 H   0  0  0  0  0  0  0  0  0  0  0  0
    5.7196   -3.1423    0.0000 H   0  0  0  0  0  0  0  0  0  0  0  0
    6.1181   -3.8326    0.0000 H   0  0  0  0  0  0  0  0  0  0  0  0
    7.8067   -0.8577    0.0000 H   0  0  0  0  0  0  0  0  0  0  0  0
    7.4082   -0.1674    0.0000 H   0  0  0  0  0  0  0  0  0  0  0  0
    5.7196   -0.1423    0.0000 H   0  0  0  0  0  0  0  0  0  0  0  0
    6.1181   -0.8326    0.0000 H   0  0  0  0  0  0  0  0  0  0  0  0
    6.9407    0.6423    0.0000 H   0  0  0  0  0  0  0  0  0  0  0  0
    6.5422    1.3326    0.0000 H   0  0  0  0  0  0  0  0  0  0  0  0
    4.8535    1.3577    0.0000 H   0  0  0  0  0  0  0  0  0  0  0  0
    5.2520    0.6674    0.0000 H   0  0  0  0  0  0  0  0  0  0  0  0
    8.5991   -4.9400    0.0000 H   0  0  0  0  0  0  0  0  0  0  0  0
    8.5991   -6.5600    0.0000 H   0  0  0  0  0  0  0  0  0  0  0  0
    7.1962   -7.3700    0.0000 H   0  0  0  0  0  0  0  0  0  0  0  0
    5.1350    4.0600    0.0000 H   0  0  0  0  0  0  0  0  0  0  0  0
    3.7320    1.6300    0.0000 H   0  0  0  0  0  0  0  0  0  0  0  0
    2.3291    2.4400    0.0000 H   0  0  0  0  0  0  0  0  0  0  0  0
    2.3100    4.7869    0.0000 H   0  0  0  0  0  0  0  0  0  0  0  0
    1.4631    4.5600    0.0000 H   0  0  0  0  0  0  0  0  0  0  0  0
    1.6900    3.7131    0.0000 H   0  0  0  0  0  0  0  0  0  0  0  0
    5.1350    5.4400    0.0000 H   0  0  0  0  0  0  0  0  0  0  0  0
    5.2181    6.7500    0.0000 H   0  0  0  0  0  0  0  0  0  0  0  0
    4.5981    7.3700    0.0000 H   0  0  0  0  0  0  0  0  0  0  0  0
    3.9781    6.7500    0.0000 H   0  0  0  0  0  0  0  0  0  0  0  0
  1 17  1  0  0  0  0
  2 19  1  0  0  0  0
  3 16  1  0  0  0  0
  3 22  1  0  0  0  0
  4 29  2  0  0  0  0
  5  8  1  0  0  0  0
  5  9  1  0  0  0  0
  5 12  1  0  0  0  0
  6 10  1  0  0  0  0
  6 11  1  0  0  0  0
  6 14  1  0  0  0  0
  7 29  1  0  0  0  0
  7 30  1  0  0  0  0
  7 56  1  0  0  0  0
  8 10  1  0  0  0  0
  8 31  1  0  0  0  0
  8 32  1  0  0  0  0
  9 11  1  0  0  0  0
  9 33  1  0  0  0  0
  9 34  1  0  0  0  0
 10 35  1  0  0  0  0
 10 36  1  0  0  0  0
 11 37  1  0  0  0  0
 11 38  1  0  0  0  0
 12 13  1  0  0  0  0
 12 39  1  0  0  0  0
 12 40  1  0  0  0  0
 13 15  1  0  0  0  0
 13 41  1  0  0  0  0
 13 42  1  0  0  0  0
 14 17  2  0  0  0  0
 14 18  1  0  0  0  0
 15 16  1  0  0  0  0
 15 43  1  0  0  0  0
 15 44  1  0  0  0  0
 16 45  1  0  0  0  0
 16 46  1  0  0  0  0
 17 19  1  0  0  0  0
 18 20  2  0  0  0  0
 18 47  1  0  0  0  0
 19 21  2  0  0  0  0
 20 21  1  0  0  0  0
 20 48  1  0  0  0  0
 21 49  1  0  0  0  0
 22 23  2  0  0  0  0
 22 24  1  0  0  0  0
 23 25  1  0  0  0  0
 23 50  1  0  0  0  0
 24 27  2  0  0  0  0
 24 51  1  0  0  0  0
 25 26  2  0  0  0  0
 25 29  1  0  0  0  0
 26 27  1  0  0  0  0
 26 28  1  0  0  0  0
 27 52  1  0  0  0  0
 28 53  1  0  0  0  0
 28 54  1  0  0  0  0
 28 55  1  0  0  0  0
 30 57  1  0  0  0  0
 30 58  1  0  0  0  0
 30 59  1  0  0  0  0
M  END
> <PUBCHEM_COMPOUND_CID>
127051041

> <PUBCHEM_COMPOUND_CANONICALIZED>
1

> <PUBCHEM_CACTVS_COMPLEXITY>
531

> <PUBCHEM_CACTVS_HBOND_ACCEPTOR>
4

> <PUBCHEM_CACTVS_HBOND_DONOR>
1

> <PUBCHEM_CACTVS_ROTATABLE_BOND>
8

> <PUBCHEM_CACTVS_SUBSKEYS>
AAADceB7MAAGAAAAAAAAAAAAAAAAAAAAAAA8YIAAAAAAAAABQAAAHgIQAAAADA7hmCYyxoPABACIAiVSUACCCAAlJwAIisEObsgMZjLFt5vWOSjkwhHI6Ye6yJCOoAABAAIQABRAAAIABCAAKAAAAAAAAA==

> <PUBCHEM_IUPAC_OPENEYE_NAME>
5-[4-[4-(2,3-dichlorophenyl)piperazin-1-yl]butoxy]-N,2-dimethyl-benzamide

> <PUBCHEM_IUPAC_CAS_NAME>
5-[4-[4-(2,3-dichlorophenyl)-1-piperazinyl]butoxy]-N,2-dimethylbenzamide

> <PUBCHEM_IUPAC_NAME_MARKUP>
5-[4-[4-(2,3-dichlorophenyl)piperazin-1-yl]butoxy]-<I>N</I>,2-dimethylbenzamide

> <PUBCHEM_IUPAC_NAME>
5-[4-[4-(2,3-dichlorophenyl)piperazin-1-yl]butoxy]-N,2-dimethylbenzamide

> <PUBCHEM_IUPAC_SYSTEMATIC_NAME>
5-[4-[4-[2,3-bis(chloranyl)phenyl]piperazin-1-yl]butoxy]-N,2-dimethyl-benzamide

> <PUBCHEM_IUPAC_TRADITIONAL_NAME>
5-[4-[4-(2,3-dichlorophenyl)piperazino]butoxy]-N,2-dimethyl-benzamide

> <PUBCHEM_IUPAC_INCHI>
InChI=1S/C23H29Cl2N3O2/c1-17-8-9-18(16-19(17)23(29)26-2)30-15-4-3-10-27-11-13-28(14-12-27)21-7-5-6-20(24)22(21)25/h5-9,16H,3-4,10-15H2,1-2H3,(H,26,29)

> <PUBCHEM_IUPAC_INCHIKEY>
VMRWCUCWOOVEQE-UHFFFAOYSA-N

> <PUBCHEM_XLOGP3_AA>
5.1

> <PUBCHEM_EXACT_MASS>
449.1636826

> <PUBCHEM_MOLECULAR_FORMULA>
C23H29Cl2N3O2

> <PUBCHEM_MOLECULAR_WEIGHT>
450.4

> <PUBCHEM_OPENEYE_CAN_SMILES>
CC1=C(C=C(C=C1)OCCCCN2CCN(CC2)C3=C(C(=CC=C3)Cl)Cl)C(=O)NC

> <PUBCHEM_OPENEYE_ISO_SMILES>
CC1=C(C=C(C=C1)OCCCCN2CCN(CC2)C3=C(C(=CC=C3)Cl)Cl)C(=O)NC

> <PUBCHEM_CACTVS_TPSA>
44.8

> <PUBCHEM_MONOISOTOPIC_WEIGHT>
449.1636826

> <PUBCHEM_TOTAL_CHARGE>
0

> <PUBCHEM_HEAVY_ATOM_COUNT>
30

> <PUBCHEM_ATOM_DEF_STEREO_COUNT>
0

> <PUBCHEM_ATOM_UDEF_STEREO_COUNT>
0

> <PUBCHEM_BOND_DEF_STEREO_COUNT>
0

> <PUBCHEM_BOND_UDEF_STEREO_COUNT>
0

> <PUBCHEM_ISOTOPIC_ATOM_COUNT>
0

> <PUBCHEM_COMPONENT_COUNT>
1

> <PUBCHEM_CACTVS_TAUTO_COUNT>
-1

> <PUBCHEM_COORDINATE_TYPE>
1
5
255

> <PUBCHEM_BONDANNOTATIONS>
14  17  8
14  18  8
17  19  8
18  20  8
19  21  8
20  21  8
22  23  8
22  24  8
23  25  8
24  27  8
25  26  8
26  27  8

$$$$
