9888211
  -OEChem-09292322192D

 55 59  0     1  0  0  0  0  0999 V2000
    2.0000   -3.3910    0.0000 F   0  0  0  0  0  0  0  0  0  0  0  0
   11.1185    2.2434    0.0000 O   0  0  0  0  0  0  0  0  0  0  0  0
    7.7817    3.3340    0.0000 O   0  0  0  0  0  0  0  0  0  0  0  0
    6.4763   -0.7347    0.0000 N   0  0  3  0  0  0  0  0  0  0  0  0
    9.3653    2.5293    0.0000 N   0  0  0  0  0  0  0  0  0  0  0  0
    5.5443   -5.1958    0.0000 N   0  0  0  0  0  0  0  0  0  0  0  0
    5.4978   -0.9410    0.0000 C   0  0  0  0  0  0  0  0  0  0  0  0
    6.7870    0.2158    0.0000 C   0  0  0  0  0  0  0  0  0  0  0  0
    5.1871   -1.8915    0.0000 C   0  0  0  0  0  0  0  0  0  0  0  0
    7.1441   -1.4790    0.0000 C   0  0  0  0  0  0  0  0  0  0  0  0
    7.7654    0.4220    0.0000 C   0  0  0  0  0  0  0  0  0  0  0  0
    5.8550   -2.6358    0.0000 C   0  0  0  0  0  0  0  0  0  0  0  0
    8.0761    1.3725    0.0000 C   0  0  0  0  0  0  0  0  0  0  0  0
    6.8335   -2.4296    0.0000 C   0  0  0  0  0  0  0  0  0  0  0  0
    5.5443   -3.5863    0.0000 C   0  0  0  0  0  0  0  0  0  0  0  0
    9.0546    1.5788    0.0000 C   0  0  0  0  0  0  0  0  0  0  0  0
    4.5981   -3.8910    0.0000 C   0  0  0  0  0  0  0  0  0  0  0  0
    6.1279   -4.3910    0.0000 C   0  0  0  0  0  0  0  0  0  0  0  0
    4.5981   -4.8910    0.0000 C   0  0  0  0  0  0  0  0  0  0  0  0
   10.3115    2.8340    0.0000 C   0  0  0  0  0  0  0  0  0  0  0  0
    8.7817    3.3340    0.0000 C   0  0  0  0  0  0  0  0  0  0  0  0
   10.3158    3.8281    0.0000 C   0  0  0  0  0  0  0  0  0  0  0  0
    9.3653    4.1387    0.0000 C   0  0  0  0  0  0  0  0  0  0  0  0
    3.7320   -3.3910    0.0000 C   0  0  0  0  0  0  0  0  0  0  0  0
    3.7320   -5.3910    0.0000 C   0  0  0  0  0  0  0  0  0  0  0  0
    2.8660   -3.8910    0.0000 C   0  0  0  0  0  0  0  0  0  0  0  0
   11.0601    4.4959    0.0000 C   0  0  0  0  0  0  0  0  0  0  0  0
    9.1591    5.1172    0.0000 C   0  0  0  0  0  0  0  0  0  0  0  0
    2.8660   -4.8910    0.0000 C   0  0  0  0  0  0  0  0  0  0  0  0
   10.8539    5.4744    0.0000 C   0  0  0  0  0  0  0  0  0  0  0  0
    9.9034    5.7851    0.0000 C   0  0  0  0  0  0  0  0  0  0  0  0
    5.4772   -0.3213    0.0000 H   0  0  0  0  0  0  0  0  0  0  0  0
    4.8840   -0.8536    0.0000 H   0  0  0  0  0  0  0  0  0  0  0  0
    6.7664    0.8354    0.0000 H   0  0  0  0  0  0  0  0  0  0  0  0
    6.1731    0.3031    0.0000 H   0  0  0  0  0  0  0  0  0  0  0  0
    4.6402   -1.5994    0.0000 H   0  0  0  0  0  0  0  0  0  0  0  0
    4.8046   -2.3794    0.0000 H   0  0  0  0  0  0  0  0  0  0  0  0
    7.6910   -1.7710    0.0000 H   0  0  0  0  0  0  0  0  0  0  0  0
    7.5267   -0.9911    0.0000 H   0  0  0  0  0  0  0  0  0  0  0  0
    7.7860   -0.1977    0.0000 H   0  0  0  0  0  0  0  0  0  0  0  0
    8.3793    0.3347    0.0000 H   0  0  0  0  0  0  0  0  0  0  0  0
    8.0556    1.9922    0.0000 H   0  0  0  0  0  0  0  0  0  0  0  0
    7.4623    1.4599    0.0000 H   0  0  0  0  0  0  0  0  0  0  0  0
    7.2475   -2.8910    0.0000 H   0  0  0  0  0  0  0  0  0  0  0  0
    9.0752    0.9591    0.0000 H   0  0  0  0  0  0  0  0  0  0  0  0
    9.6684    1.4914    0.0000 H   0  0  0  0  0  0  0  0  0  0  0  0
    6.7479   -4.3910    0.0000 H   0  0  0  0  0  0  0  0  0  0  0  0
    5.7369   -5.7851    0.0000 H   0  0  0  0  0  0  0  0  0  0  0  0
    3.7320   -2.7710    0.0000 H   0  0  0  0  0  0  0  0  0  0  0  0
    3.7320   -6.0110    0.0000 H   0  0  0  0  0  0  0  0  0  0  0  0
   11.6494    4.3033    0.0000 H   0  0  0  0  0  0  0  0  0  0  0  0
    8.5697    5.3098    0.0000 H   0  0  0  0  0  0  0  0  0  0  0  0
    2.3291   -5.2010    0.0000 H   0  0  0  0  0  0  0  0  0  0  0  0
   11.3154    5.8885    0.0000 H   0  0  0  0  0  0  0  0  0  0  0  0
    9.7755    6.3918    0.0000 H   0  0  0  0  0  0  0  0  0  0  0  0
  1 26  1  0  0  0  0
  2 20  2  0  0  0  0
  3 21  2  0  0  0  0
  4  7  1  0  0  0  0
  4  8  1  0  0  0  0
  4 10  1  0  0  0  0
  5 16  1  0  0  0  0
  5 20  1  0  0  0  0
  5 21  1  0  0  0  0
  6 18  1  0  0  0  0
  6 19  1  0  0  0  0
  6 48  1  0  0  0  0
  7  9  1  0  0  0  0
  7 32  1  0  0  0  0
  7 33  1  0  0  0  0
  8 11  1  0  0  0  0
  8 34  1  0  0  0  0
  8 35  1  0  0  0  0
  9 12  1  0  0  0  0
  9 36  1  0  0  0  0
  9 37  1  0  0  0  0
 10 14  1  0  0  0  0
 10 38  1  0  0  0  0
 10 39  1  0  0  0  0
 11 13  1  0  0  0  0
 11 40  1  0  0  0  0
 11 41  1  0  0  0  0
 12 14  2  0  0  0  0
 12 15  1  0  0  0  0
 13 16  1  0  0  0  0
 13 42  1  0  0  0  0
 13 43  1  0  0  0  0
 14 44  1  0  0  0  0
 15 17  1  0  0  0  0
 15 18  2  0  0  0  0
 16 45  1  0  0  0  0
 16 46  1  0  0  0  0
 17 19  2  0  0  0  0
 17 24  1  0  0  0  0
 18 47  1  0  0  0  0
 19 25  1  0  0  0  0
 20 22  1  0  0  0  0
 21 23  1  0  0  0  0
 22 23  1  0  0  0  0
 22 27  2  0  0  0  0
 23 28  2  0  0  0  0
 24 26  2  0  0  0  0
 24 49  1  0  0  0  0
 25 29  2  0  0  0  0
 25 50  1  0  0  0  0
 26 29  1  0  0  0  0
 27 30  1  0  0  0  0
 27 51  1  0  0  0  0
 28 31  1  0  0  0  0
 28 52  1  0  0  0  0
 29 53  1  0  0  0  0
 30 31  2  0  0  0  0
 30 54  1  0  0  0  0
 31 55  1  0  0  0  0
M  END
> <PUBCHEM_COMPOUND_CID>
9888211

> <PUBCHEM_COMPOUND_CANONICALIZED>
1

> <PUBCHEM_CACTVS_COMPLEXITY>
702

> <PUBCHEM_CACTVS_HBOND_ACCEPTOR>
4

> <PUBCHEM_CACTVS_HBOND_DONOR>
1

> <PUBCHEM_CACTVS_ROTATABLE_BOND>
6

> <PUBCHEM_CACTVS_SUBSKEYS>
AAADceB7MQAAAAAAAAAAAAAAAAAAAWLAAAAwYIAAAAAAAFgB9AAAHwAQAAAADAjBngw8wPPJkACoAzV3VACCgCA1AiAI2aE4ZNgIIPLAlZGEIQhgliDIyYcdiMCOgAAAAAASAAAAAAAAACQAAAAAAAAAAA==

> <PUBCHEM_IUPAC_OPENEYE_NAME>
2-[4-[4-(5-fluoro-1H-indol-3-yl)-3,6-dihydro-2H-pyridin-1-yl]butyl]isoindoline-1,3-dione

> <PUBCHEM_IUPAC_CAS_NAME>
2-[4-[4-(5-fluoro-1H-indol-3-yl)-3,6-dihydro-2H-pyridin-1-yl]butyl]isoindole-1,3-dione

> <PUBCHEM_IUPAC_NAME_MARKUP>
2-[4-[4-(5-fluoro-1<I>H</I>-indol-3-yl)-3,6-dihydro-2<I>H</I>-pyridin-1-yl]butyl]isoindole-1,3-dione

> <PUBCHEM_IUPAC_NAME>
2-[4-[4-(5-fluoro-1H-indol-3-yl)-3,6-dihydro-2H-pyridin-1-yl]butyl]isoindole-1,3-dione

> <PUBCHEM_IUPAC_SYSTEMATIC_NAME>
2-[4-[4-(5-fluoranyl-1H-indol-3-yl)-3,6-dihydro-2H-pyridin-1-yl]butyl]isoindole-1,3-dione

> <PUBCHEM_IUPAC_TRADITIONAL_NAME>
2-[4-[4-(5-fluoro-1H-indol-3-yl)-3,6-dihydro-2H-pyridin-1-yl]butyl]isoindoline-1,3-quinone

> <PUBCHEM_IUPAC_INCHI>
InChI=1S/C25H24FN3O2/c26-18-7-8-23-21(15-18)22(16-27-23)17-9-13-28(14-10-17)11-3-4-12-29-24(30)19-5-1-2-6-20(19)25(29)31/h1-2,5-9,15-16,27H,3-4,10-14H2

> <PUBCHEM_IUPAC_INCHIKEY>
NECJNLXOJRDELU-UHFFFAOYSA-N

> <PUBCHEM_XLOGP3_AA>
3.7

> <PUBCHEM_EXACT_MASS>
417.18525518

> <PUBCHEM_MOLECULAR_FORMULA>
C25H24FN3O2

> <PUBCHEM_MOLECULAR_WEIGHT>
417.5

> <PUBCHEM_OPENEYE_CAN_SMILES>
C1CN(CC=C1C2=CNC3=C2C=C(C=C3)F)CCCCN4C(=O)C5=CC=CC=C5C4=O

> <PUBCHEM_OPENEYE_ISO_SMILES>
C1CN(CC=C1C2=CNC3=C2C=C(C=C3)F)CCCCN4C(=O)C5=CC=CC=C5C4=O

> <PUBCHEM_CACTVS_TPSA>
56.4

> <PUBCHEM_MONOISOTOPIC_WEIGHT>
417.18525518

> <PUBCHEM_TOTAL_CHARGE>
0

> <PUBCHEM_HEAVY_ATOM_COUNT>
31

> <PUBCHEM_ATOM_DEF_STEREO_COUNT>
0

> <PUBCHEM_ATOM_UDEF_STEREO_COUNT>
0

> <PUBCHEM_BOND_DEF_STEREO_COUNT>
0

> <PUBCHEM_BOND_UDEF_STEREO_COUNT>
0

> <PUBCHEM_ISOTOPIC_ATOM_COUNT>
0

> <PUBCHEM_COMPONENT_COUNT>
1

> <PUBCHEM_CACTVS_TAUTO_COUNT>
-1

> <PUBCHEM_COORDINATE_TYPE>
1
5
255

> <PUBCHEM_BONDANNOTATIONS>
15  17  8
15  18  8
17  19  8
17  24  8
19  25  8
22  23  8
22  27  8
23  28  8
24  26  8
25  29  8
26  29  8
27  30  8
28  31  8
30  31  8
6  18  8
6  19  8

$$$$
