25068797
  -OEChem-09292322302D

 58 62  0     0  0  0  0  0  0999 V2000
    8.8652    4.2644    0.0000 F   0  0  0  0  0  0  0  0  0  0  0  0
    3.6030   -1.7114    0.0000 O   0  0  0  0  0  0  0  0  0  0  0  0
    5.3351    1.2886    0.0000 N   0  0  0  0  0  0  0  0  0  0  0  0
    5.3351    3.2886    0.0000 N   0  0  0  0  0  0  0  0  0  0  0  0
    2.4051   -5.7863    0.0000 N   0  0  0  0  0  0  0  0  0  0  0  0
    6.2011    1.7886    0.0000 C   0  0  0  0  0  0  0  0  0  0  0  0
    4.4691    1.7886    0.0000 C   0  0  0  0  0  0  0  0  0  0  0  0
    6.2011    2.7886    0.0000 C   0  0  0  0  0  0  0  0  0  0  0  0
    4.4691    2.7886    0.0000 C   0  0  0  0  0  0  0  0  0  0  0  0
    5.3351    0.2886    0.0000 C   0  0  0  0  0  0  0  0  0  0  0  0
    5.3351    4.2886    0.0000 C   0  0  0  0  0  0  0  0  0  0  0  0
    4.4691   -0.2114    0.0000 C   0  0  0  0  0  0  0  0  0  0  0  0
    6.2011    4.7886    0.0000 C   0  0  0  0  0  0  0  0  0  0  0  0
    4.4691   -1.2114    0.0000 C   0  0  0  0  0  0  0  0  0  0  0  0
    4.4691    4.7886    0.0000 C   0  0  0  0  0  0  0  0  0  0  0  0
    6.2011    5.7886    0.0000 C   0  0  0  0  0  0  0  0  0  0  0  0
    2.7370   -4.2114    0.0000 C   0  0  0  0  0  0  0  0  0  0  0  0
    3.6030   -4.7114    0.0000 C   0  0  0  0  0  0  0  0  0  0  0  0
    2.0000   -4.8785    0.0000 C   0  0  0  0  0  0  0  0  0  0  0  0
    3.3938   -5.6832    0.0000 C   0  0  0  0  0  0  0  0  0  0  0  0
    7.0951    4.2539    0.0000 C   0  0  0  0  0  0  0  0  0  0  0  0
    4.4691    5.7886    0.0000 C   0  0  0  0  0  0  0  0  0  0  0  0
    3.6030   -2.7114    0.0000 C   0  0  0  0  0  0  0  0  0  0  0  0
    5.3351    6.2886    0.0000 C   0  0  0  0  0  0  0  0  0  0  0  0
    2.7370   -3.2114    0.0000 C   0  0  0  0  0  0  0  0  0  0  0  0
    4.4691   -4.2114    0.0000 C   0  0  0  0  0  0  0  0  0  0  0  0
    7.0951    6.3232    0.0000 C   0  0  0  0  0  0  0  0  0  0  0  0
    4.4691   -3.2114    0.0000 C   0  0  0  0  0  0  0  0  0  0  0  0
    8.0011    4.7678    0.0000 C   0  0  0  0  0  0  0  0  0  0  0  0
    8.0011    5.8094    0.0000 C   0  0  0  0  0  0  0  0  0  0  0  0
    6.4132    1.2060    0.0000 H   0  0  0  0  0  0  0  0  0  0  0  0
    6.8117    1.8962    0.0000 H   0  0  0  0  0  0  0  0  0  0  0  0
    3.8585    1.8962    0.0000 H   0  0  0  0  0  0  0  0  0  0  0  0
    4.2570    1.2060    0.0000 H   0  0  0  0  0  0  0  0  0  0  0  0
    6.8117    2.6809    0.0000 H   0  0  0  0  0  0  0  0  0  0  0  0
    6.4132    3.3712    0.0000 H   0  0  0  0  0  0  0  0  0  0  0  0
    4.2570    3.3712    0.0000 H   0  0  0  0  0  0  0  0  0  0  0  0
    3.8585    2.6809    0.0000 H   0  0  0  0  0  0  0  0  0  0  0  0
    5.5471   -0.2940    0.0000 H   0  0  0  0  0  0  0  0  0  0  0  0
    5.9457    0.3962    0.0000 H   0  0  0  0  0  0  0  0  0  0  0  0
    4.2570    0.3712    0.0000 H   0  0  0  0  0  0  0  0  0  0  0  0
    3.8585   -0.3191    0.0000 H   0  0  0  0  0  0  0  0  0  0  0  0
    4.6811   -1.7940    0.0000 H   0  0  0  0  0  0  0  0  0  0  0  0
    5.0796   -1.1038    0.0000 H   0  0  0  0  0  0  0  0  0  0  0  0
    3.9321    4.4786    0.0000 H   0  0  0  0  0  0  0  0  0  0  0  0
    1.6346   -4.3777    0.0000 H   0  0  0  0  0  0  0  0  0  0  0  0
    1.4635   -5.1893    0.0000 H   0  0  0  0  0  0  0  0  0  0  0  0
    3.3929   -6.3032    0.0000 H   0  0  0  0  0  0  0  0  0  0  0  0
    4.0103   -5.7493    0.0000 H   0  0  0  0  0  0  0  0  0  0  0  0
    7.0879    3.6340    0.0000 H   0  0  0  0  0  0  0  0  0  0  0  0
    3.9321    6.0986    0.0000 H   0  0  0  0  0  0  0  0  0  0  0  0
    5.3351    6.9086    0.0000 H   0  0  0  0  0  0  0  0  0  0  0  0
    2.2001   -2.9014    0.0000 H   0  0  0  0  0  0  0  0  0  0  0  0
    2.0951   -6.3232    0.0000 H   0  0  0  0  0  0  0  0  0  0  0  0
    5.0060   -4.5214    0.0000 H   0  0  0  0  0  0  0  0  0  0  0  0
    7.0879    6.9432    0.0000 H   0  0  0  0  0  0  0  0  0  0  0  0
    5.0060   -2.9014    0.0000 H   0  0  0  0  0  0  0  0  0  0  0  0
    8.5369    6.1215    0.0000 H   0  0  0  0  0  0  0  0  0  0  0  0
  1 29  1  0  0  0  0
  2 14  1  0  0  0  0
  2 23  1  0  0  0  0
  3  6  1  0  0  0  0
  3  7  1  0  0  0  0
  3 10  1  0  0  0  0
  4  8  1  0  0  0  0
  4  9  1  0  0  0  0
  4 11  1  0  0  0  0
  5 19  1  0  0  0  0
  5 20  1  0  0  0  0
  5 54  1  0  0  0  0
  6  8  1  0  0  0  0
  6 31  1  0  0  0  0
  6 32  1  0  0  0  0
  7  9  1  0  0  0  0
  7 33  1  0  0  0  0
  7 34  1  0  0  0  0
  8 35  1  0  0  0  0
  8 36  1  0  0  0  0
  9 37  1  0  0  0  0
  9 38  1  0  0  0  0
 10 12  1  0  0  0  0
 10 39  1  0  0  0  0
 10 40  1  0  0  0  0
 11 13  1  0  0  0  0
 11 15  2  0  0  0  0
 12 14  1  0  0  0  0
 12 41  1  0  0  0  0
 12 42  1  0  0  0  0
 13 16  2  0  0  0  0
 13 21  1  0  0  0  0
 14 43  1  0  0  0  0
 14 44  1  0  0  0  0
 15 22  1  0  0  0  0
 15 45  1  0  0  0  0
 16 24  1  0  0  0  0
 16 27  1  0  0  0  0
 17 18  2  0  0  0  0
 17 19  1  0  0  0  0
 17 25  1  0  0  0  0
 18 20  1  0  0  0  0
 18 26  1  0  0  0  0
 19 46  1  0  0  0  0
 19 47  1  0  0  0  0
 20 48  1  0  0  0  0
 20 49  1  0  0  0  0
 21 29  2  0  0  0  0
 21 50  1  0  0  0  0
 22 24  2  0  0  0  0
 22 51  1  0  0  0  0
 23 25  2  0  0  0  0
 23 28  1  0  0  0  0
 24 52  1  0  0  0  0
 25 53  1  0  0  0  0
 26 28  2  0  0  0  0
 26 55  1  0  0  0  0
 27 30  2  0  0  0  0
 27 56  1  0  0  0  0
 28 57  1  0  0  0  0
 29 30  1  0  0  0  0
 30 58  1  0  0  0  0
M  END
> <PUBCHEM_COMPOUND_CID>
25068797

> <PUBCHEM_COMPOUND_CANONICALIZED>
1

> <PUBCHEM_CACTVS_COMPLEXITY>
541

> <PUBCHEM_CACTVS_HBOND_ACCEPTOR>
5

> <PUBCHEM_CACTVS_HBOND_DONOR>
1

> <PUBCHEM_CACTVS_ROTATABLE_BOND>
6

> <PUBCHEM_CACTVS_SUBSKEYS>
AAADceB7IQAAAAAAAAAAAAAAAAAAAWAAAAA8YMEAAAAAAFjBVAAAHwAQAAAADAzhmA4wxsPABACAAiRCQACCCAAhIgAIiIAObIgMZiLEsZuWOCjmwBHI6Aew0JIOoAABQAASAABAAAKAACQAAAAAAAAAAA==

> <PUBCHEM_IUPAC_OPENEYE_NAME>
5-[3-[4-(7-fluoro-1-naphthyl)piperazin-1-yl]propoxy]isoindoline

> <PUBCHEM_IUPAC_CAS_NAME>
5-[3-[4-(7-fluoro-1-naphthalenyl)-1-piperazinyl]propoxy]-2,3-dihydro-1H-isoindole

> <PUBCHEM_IUPAC_NAME_MARKUP>
5-[3-[4-(7-fluoronaphthalen-1-yl)piperazin-1-yl]propoxy]-2,3-dihydro-1<I>H</I>-isoindole

> <PUBCHEM_IUPAC_NAME>
5-[3-[4-(7-fluoronaphthalen-1-yl)piperazin-1-yl]propoxy]-2,3-dihydro-1H-isoindole

> <PUBCHEM_IUPAC_SYSTEMATIC_NAME>
5-[3-[4-(7-fluoranylnaphthalen-1-yl)piperazin-1-yl]propoxy]-2,3-dihydro-1H-isoindole

> <PUBCHEM_IUPAC_TRADITIONAL_NAME>
5-[3-[4-(7-fluoro-1-naphthyl)piperazino]propoxy]isoindoline

> <PUBCHEM_IUPAC_INCHI>
InChI=1S/C25H28FN3O/c26-22-7-5-19-3-1-4-25(24(19)16-22)29-12-10-28(11-13-29)9-2-14-30-23-8-6-20-17-27-18-21(20)15-23/h1,3-8,15-16,27H,2,9-14,17-18H2

> <PUBCHEM_IUPAC_INCHIKEY>
JVMBIOQCKALKPB-UHFFFAOYSA-N

> <PUBCHEM_XLOGP3_AA>
4.2

> <PUBCHEM_EXACT_MASS>
405.22164069

> <PUBCHEM_MOLECULAR_FORMULA>
C25H28FN3O

> <PUBCHEM_MOLECULAR_WEIGHT>
405.5

> <PUBCHEM_OPENEYE_CAN_SMILES>
C1CN(CCN1CCCOC2=CC3=C(CNC3)C=C2)C4=CC=CC5=C4C=C(C=C5)F

> <PUBCHEM_OPENEYE_ISO_SMILES>
C1CN(CCN1CCCOC2=CC3=C(CNC3)C=C2)C4=CC=CC5=C4C=C(C=C5)F

> <PUBCHEM_CACTVS_TPSA>
27.7

> <PUBCHEM_MONOISOTOPIC_WEIGHT>
405.22164069

> <PUBCHEM_TOTAL_CHARGE>
0

> <PUBCHEM_HEAVY_ATOM_COUNT>
30

> <PUBCHEM_ATOM_DEF_STEREO_COUNT>
0

> <PUBCHEM_ATOM_UDEF_STEREO_COUNT>
0

> <PUBCHEM_BOND_DEF_STEREO_COUNT>
0

> <PUBCHEM_BOND_UDEF_STEREO_COUNT>
0

> <PUBCHEM_ISOTOPIC_ATOM_COUNT>
0

> <PUBCHEM_COMPONENT_COUNT>
1

> <PUBCHEM_CACTVS_TAUTO_COUNT>
-1

> <PUBCHEM_COORDINATE_TYPE>
1
5
255

> <PUBCHEM_BONDANNOTATIONS>
11  13  8
11  15  8
13  16  8
13  21  8
15  22  8
16  24  8
16  27  8
17  18  8
17  25  8
18  26  8
21  29  8
22  24  8
23  25  8
23  28  8
26  28  8
27  30  8
29  30  8

$$$$
