25071692
  -OEChem-09292321592D

 53 56  0     0  0  0  0  0  0999 V2000
    4.5981   -2.1029    0.0000 Cl  0  0  0  0  0  0  0  0  0  0  0  0
    2.8660   -3.1029    0.0000 Cl  0  0  0  0  0  0  0  0  0  0  0  0
   10.6603    1.3971    0.0000 O   0  0  0  0  0  0  0  0  0  0  0  0
    6.3301    0.8971    0.0000 N   0  0  0  0  0  0  0  0  0  0  0  0
    4.5981   -0.1029    0.0000 N   0  0  0  0  0  0  0  0  0  0  0  0
   13.2583   -0.1029    0.0000 N   0  0  0  0  0  0  0  0  0  0  0  0
   14.2045   -0.4076    0.0000 N   0  0  0  0  0  0  0  0  0  0  0  0
   14.8259    3.1029    0.0000 N   0  0  0  0  0  0  0  0  0  0  0  0
    5.4641    1.3971    0.0000 C   0  0  0  0  0  0  0  0  0  0  0  0
    6.3301   -0.1029    0.0000 C   0  0  0  0  0  0  0  0  0  0  0  0
    4.5981    0.8971    0.0000 C   0  0  0  0  0  0  0  0  0  0  0  0
    5.4641   -0.6029    0.0000 C   0  0  0  0  0  0  0  0  0  0  0  0
    7.1962    1.3971    0.0000 C   0  0  0  0  0  0  0  0  0  0  0  0
    8.0622    0.8971    0.0000 C   0  0  0  0  0  0  0  0  0  0  0  0
    3.7320   -0.6029    0.0000 C   0  0  0  0  0  0  0  0  0  0  0  0
    8.9282    1.3971    0.0000 C   0  0  0  0  0  0  0  0  0  0  0  0
    9.7942    0.8971    0.0000 C   0  0  0  0  0  0  0  0  0  0  0  0
    3.7320   -1.6029    0.0000 C   0  0  0  0  0  0  0  0  0  0  0  0
    2.8660   -0.1029    0.0000 C   0  0  0  0  0  0  0  0  0  0  0  0
    2.8660   -2.1029    0.0000 C   0  0  0  0  0  0  0  0  0  0  0  0
    2.0000   -0.6029    0.0000 C   0  0  0  0  0  0  0  0  0  0  0  0
    2.0000   -1.6029    0.0000 C   0  0  0  0  0  0  0  0  0  0  0  0
   11.5263    0.8971    0.0000 C   0  0  0  0  0  0  0  0  0  0  0  0
   12.3923    1.3971    0.0000 C   0  0  0  0  0  0  0  0  0  0  0  0
   13.2583    0.8971    0.0000 C   0  0  0  0  0  0  0  0  0  0  0  0
   11.5263   -0.1029    0.0000 C   0  0  0  0  0  0  0  0  0  0  0  0
   12.3923   -0.6029    0.0000 C   0  0  0  0  0  0  0  0  0  0  0  0
   14.2045    1.2018    0.0000 C   0  0  0  0  0  0  0  0  0  0  0  0
   14.7882    0.3971    0.0000 C   0  0  0  0  0  0  0  0  0  0  0  0
   14.5152    2.1524    0.0000 C   0  0  0  0  0  0  0  0  0  0  0  0
    5.8626    1.8721    0.0000 H   0  0  0  0  0  0  0  0  0  0  0  0
    5.0656    1.8721    0.0000 H   0  0  0  0  0  0  0  0  0  0  0  0
    6.5422   -0.6855    0.0000 H   0  0  0  0  0  0  0  0  0  0  0  0
    6.9407    0.0048    0.0000 H   0  0  0  0  0  0  0  0  0  0  0  0
    4.3860    1.4797    0.0000 H   0  0  0  0  0  0  0  0  0  0  0  0
    3.9875    0.7895    0.0000 H   0  0  0  0  0  0  0  0  0  0  0  0
    5.0656   -1.0778    0.0000 H   0  0  0  0  0  0  0  0  0  0  0  0
    5.8626   -1.0778    0.0000 H   0  0  0  0  0  0  0  0  0  0  0  0
    7.5947    1.8721    0.0000 H   0  0  0  0  0  0  0  0  0  0  0  0
    6.7976    1.8721    0.0000 H   0  0  0  0  0  0  0  0  0  0  0  0
    7.6636    0.4222    0.0000 H   0  0  0  0  0  0  0  0  0  0  0  0
    8.4607    0.4222    0.0000 H   0  0  0  0  0  0  0  0  0  0  0  0
    9.3267    1.8721    0.0000 H   0  0  0  0  0  0  0  0  0  0  0  0
    8.5297    1.8721    0.0000 H   0  0  0  0  0  0  0  0  0  0  0  0
    9.3957    0.4222    0.0000 H   0  0  0  0  0  0  0  0  0  0  0  0
   10.1928    0.4222    0.0000 H   0  0  0  0  0  0  0  0  0  0  0  0
    2.8660    0.5171    0.0000 H   0  0  0  0  0  0  0  0  0  0  0  0
    1.4631   -0.2929    0.0000 H   0  0  0  0  0  0  0  0  0  0  0  0
    1.4631   -1.9129    0.0000 H   0  0  0  0  0  0  0  0  0  0  0  0
   12.3923    2.0171    0.0000 H   0  0  0  0  0  0  0  0  0  0  0  0
   10.9893   -0.4129    0.0000 H   0  0  0  0  0  0  0  0  0  0  0  0
   12.3923   -1.2229    0.0000 H   0  0  0  0  0  0  0  0  0  0  0  0
   15.4082    0.3971    0.0000 H   0  0  0  0  0  0  0  0  0  0  0  0
  1 18  1  0  0  0  0
  2 20  1  0  0  0  0
  3 17  1  0  0  0  0
  3 23  1  0  0  0  0
  4  9  1  0  0  0  0
  4 10  1  0  0  0  0
  4 13  1  0  0  0  0
  5 11  1  0  0  0  0
  5 12  1  0  0  0  0
  5 15  1  0  0  0  0
  6  7  1  0  0  0  0
  6 25  1  0  0  0  0
  6 27  1  0  0  0  0
  7 29  2  0  0  0  0
  8 30  3  0  0  0  0
  9 11  1  0  0  0  0
  9 31  1  0  0  0  0
  9 32  1  0  0  0  0
 10 12  1  0  0  0  0
 10 33  1  0  0  0  0
 10 34  1  0  0  0  0
 11 35  1  0  0  0  0
 11 36  1  0  0  0  0
 12 37  1  0  0  0  0
 12 38  1  0  0  0  0
 13 14  1  0  0  0  0
 13 39  1  0  0  0  0
 13 40  1  0  0  0  0
 14 16  1  0  0  0  0
 14 41  1  0  0  0  0
 14 42  1  0  0  0  0
 15 18  2  0  0  0  0
 15 19  1  0  0  0  0
 16 17  1  0  0  0  0
 16 43  1  0  0  0  0
 16 44  1  0  0  0  0
 17 45  1  0  0  0  0
 17 46  1  0  0  0  0
 18 20  1  0  0  0  0
 19 21  2  0  0  0  0
 19 47  1  0  0  0  0
 20 22  2  0  0  0  0
 21 22  1  0  0  0  0
 21 48  1  0  0  0  0
 22 49  1  0  0  0  0
 23 24  2  0  0  0  0
 23 26  1  0  0  0  0
 24 25  1  0  0  0  0
 24 50  1  0  0  0  0
 25 28  2  0  0  0  0
 26 27  2  0  0  0  0
 26 51  1  0  0  0  0
 27 52  1  0  0  0  0
 28 29  1  0  0  0  0
 28 30  1  0  0  0  0
 29 53  1  0  0  0  0
M  END
> <PUBCHEM_COMPOUND_CID>
25071692

> <PUBCHEM_COMPOUND_CANONICALIZED>
1

> <PUBCHEM_CACTVS_COMPLEXITY>
593

> <PUBCHEM_CACTVS_HBOND_ACCEPTOR>
5

> <PUBCHEM_CACTVS_HBOND_DONOR>
0

> <PUBCHEM_CACTVS_ROTATABLE_BOND>
7

> <PUBCHEM_CACTVS_SUBSKEYS>
AAADceB7oAAGAAAAAAAAAAAAAAAAAWAAAAA8WIAAAAAAAFgB8AAAHgIIAAAADA7hniY8xrMIFACyBzRnRACyjCAxpyAY2mA+bpgM5uLF89vWvCjmyBnI6A+wkEAMAAAAAAIAABQAAAAABAAAKAAAAAAAAA==

> <PUBCHEM_IUPAC_OPENEYE_NAME>
5-[4-[4-(2,3-dichlorophenyl)piperazin-1-yl]butoxy]pyrazolo[1,5-a]pyridine-3-carbonitrile

> <PUBCHEM_IUPAC_CAS_NAME>
5-[4-[4-(2,3-dichlorophenyl)-1-piperazinyl]butoxy]-3-pyrazolo[1,5-a]pyridinecarbonitrile

> <PUBCHEM_IUPAC_NAME_MARKUP>
5-[4-[4-(2,3-dichlorophenyl)piperazin-1-yl]butoxy]pyrazolo[1,5-a]pyridine-3-carbonitrile

> <PUBCHEM_IUPAC_NAME>
5-[4-[4-(2,3-dichlorophenyl)piperazin-1-yl]butoxy]pyrazolo[1,5-a]pyridine-3-carbonitrile

> <PUBCHEM_IUPAC_SYSTEMATIC_NAME>
5-[4-[4-[2,3-bis(chloranyl)phenyl]piperazin-1-yl]butoxy]pyrazolo[1,5-a]pyridine-3-carbonitrile

> <PUBCHEM_IUPAC_TRADITIONAL_NAME>
5-[4-[4-(2,3-dichlorophenyl)piperazino]butoxy]pyrazolo[1,5-a]pyridine-3-carbonitrile

> <PUBCHEM_IUPAC_INCHI>
InChI=1S/C22H23Cl2N5O/c23-19-4-3-5-20(22(19)24)28-11-9-27(10-12-28)7-1-2-13-30-18-6-8-29-21(14-18)17(15-25)16-26-29/h3-6,8,14,16H,1-2,7,9-13H2

> <PUBCHEM_IUPAC_INCHIKEY>
JERZBICCWPTZQV-UHFFFAOYSA-N

> <PUBCHEM_XLOGP3_AA>
4.4

> <PUBCHEM_EXACT_MASS>
443.1279658

> <PUBCHEM_MOLECULAR_FORMULA>
C22H23Cl2N5O

> <PUBCHEM_MOLECULAR_WEIGHT>
444.4

> <PUBCHEM_OPENEYE_CAN_SMILES>
C1CN(CCN1CCCCOC2=CC3=C(C=NN3C=C2)C#N)C4=C(C(=CC=C4)Cl)Cl

> <PUBCHEM_OPENEYE_ISO_SMILES>
C1CN(CCN1CCCCOC2=CC3=C(C=NN3C=C2)C#N)C4=C(C(=CC=C4)Cl)Cl

> <PUBCHEM_CACTVS_TPSA>
56.8

> <PUBCHEM_MONOISOTOPIC_WEIGHT>
443.1279658

> <PUBCHEM_TOTAL_CHARGE>
0

> <PUBCHEM_HEAVY_ATOM_COUNT>
30

> <PUBCHEM_ATOM_DEF_STEREO_COUNT>
0

> <PUBCHEM_ATOM_UDEF_STEREO_COUNT>
0

> <PUBCHEM_BOND_DEF_STEREO_COUNT>
0

> <PUBCHEM_BOND_UDEF_STEREO_COUNT>
0

> <PUBCHEM_ISOTOPIC_ATOM_COUNT>
0

> <PUBCHEM_COMPONENT_COUNT>
1

> <PUBCHEM_CACTVS_TAUTO_COUNT>
-1

> <PUBCHEM_COORDINATE_TYPE>
1
5
255

> <PUBCHEM_BONDANNOTATIONS>
15  18  8
15  19  8
18  20  8
19  21  8
20  22  8
21  22  8
23  24  8
23  26  8
24  25  8
25  28  8
26  27  8
28  29  8
6  25  8
6  27  8
6  7  8
7  29  8

$$$$
