49799686
  -OEChem-09292322302D

 53 55  0     0  0  0  0  0  0999 V2000
    9.4386    6.6653    0.0000 I   0  0  0  0  0  0  0  0  0  0  0  0
    7.4119    3.6832    0.0000 O   0  0  0  0  0  0  0  0  0  0  0  0
    6.0440    9.9133    0.0000 O   0  0  0  0  0  0  0  0  0  0  0  0
    3.4459   10.4133    0.0000 O   0  0  0  0  0  0  0  0  0  0  0  0
    5.1779   11.4133    0.0000 O   0  0  0  0  0  0  0  0  0  0  0  0
    4.3119    8.9133    0.0000 O   0  0  0  0  0  0  0  0  0  0  0  0
    4.5044    3.5815    0.0000 N   0  0  0  0  0  0  0  0  0  0  0  0
    3.2152    0.8153    0.0000 N   0  0  0  0  0  0  0  0  0  0  0  0
    6.4614    3.9939    0.0000 C   0  0  0  0  0  0  0  0  0  0  0  0
    6.1507    3.0434    0.0000 C   0  0  0  0  0  0  0  0  0  0  0  0
    5.7935    4.7382    0.0000 C   0  0  0  0  0  0  0  0  0  0  0  0
    5.1722    2.8372    0.0000 C   0  0  0  0  0  0  0  0  0  0  0  0
    4.8150    4.5320    0.0000 C   0  0  0  0  0  0  0  0  0  0  0  0
    7.2057    4.6617    0.0000 C   0  0  0  0  0  0  0  0  0  0  0  0
    3.5259    3.3752    0.0000 C   0  0  0  0  0  0  0  0  0  0  0  0
    3.2152    2.4247    0.0000 C   0  0  0  0  0  0  0  0  0  0  0  0
    8.1562    4.3511    0.0000 C   0  0  0  0  0  0  0  0  0  0  0  0
    6.9995    5.6403    0.0000 C   0  0  0  0  0  0  0  0  0  0  0  0
    2.2690    2.1200    0.0000 C   0  0  0  0  0  0  0  0  0  0  0  0
    3.7988    1.6200    0.0000 C   0  0  0  0  0  0  0  0  0  0  0  0
    2.2690    1.1200    0.0000 C   0  0  0  0  0  0  0  0  0  0  0  0
    8.9005    5.0189    0.0000 C   0  0  0  0  0  0  0  0  0  0  0  0
    7.7438    6.3081    0.0000 C   0  0  0  0  0  0  0  0  0  0  0  0
    1.4030    2.6200    0.0000 C   0  0  0  0  0  0  0  0  0  0  0  0
    8.6943    5.9974    0.0000 C   0  0  0  0  0  0  0  0  0  0  0  0
    1.4030    0.6200    0.0000 C   0  0  0  0  0  0  0  0  0  0  0  0
    0.5369    2.1200    0.0000 C   0  0  0  0  0  0  0  0  0  0  0  0
    0.5369    1.1200    0.0000 C   0  0  0  0  0  0  0  0  0  0  0  0
    5.1779   10.4133    0.0000 C   0  0  0  0  0  0  0  0  0  0  0  0
    4.3119    9.9133    0.0000 C   0  0  0  0  0  0  0  0  0  0  0  0
    6.1713    2.4237    0.0000 H   0  0  0  0  0  0  0  0  0  0  0  0
    6.7645    2.9560    0.0000 H   0  0  0  0  0  0  0  0  0  0  0  0
    6.3199    5.0658    0.0000 H   0  0  0  0  0  0  0  0  0  0  0  0
    5.5623    5.3135    0.0000 H   0  0  0  0  0  0  0  0  0  0  0  0
    4.6459    2.5095    0.0000 H   0  0  0  0  0  0  0  0  0  0  0  0
    5.4035    2.2619    0.0000 H   0  0  0  0  0  0  0  0  0  0  0  0
    4.7945    5.1516    0.0000 H   0  0  0  0  0  0  0  0  0  0  0  0
    4.2012    4.6193    0.0000 H   0  0  0  0  0  0  0  0  0  0  0  0
    3.5053    3.9949    0.0000 H   0  0  0  0  0  0  0  0  0  0  0  0
    2.9120    3.4626    0.0000 H   0  0  0  0  0  0  0  0  0  0  0  0
    7.5398    3.0766    0.0000 H   0  0  0  0  0  0  0  0  0  0  0  0
    8.2841    3.7444    0.0000 H   0  0  0  0  0  0  0  0  0  0  0  0
    6.4102    5.8329    0.0000 H   0  0  0  0  0  0  0  0  0  0  0  0
    4.4188    1.6200    0.0000 H   0  0  0  0  0  0  0  0  0  0  0  0
    9.4898    4.8263    0.0000 H   0  0  0  0  0  0  0  0  0  0  0  0
    7.6159    6.9148    0.0000 H   0  0  0  0  0  0  0  0  0  0  0  0
    3.4078    0.2259    0.0000 H   0  0  0  0  0  0  0  0  0  0  0  0
    1.4030    3.2400    0.0000 H   0  0  0  0  0  0  0  0  0  0  0  0
    1.4030    0.0000    0.0000 H   0  0  0  0  0  0  0  0  0  0  0  0
    0.0000    2.4300    0.0000 H   0  0  0  0  0  0  0  0  0  0  0  0
    0.0000    0.8100    0.0000 H   0  0  0  0  0  0  0  0  0  0  0  0
    6.5809   10.2233    0.0000 H   0  0  0  0  0  0  0  0  0  0  0  0
    2.9089   10.1033    0.0000 H   0  0  0  0  0  0  0  0  0  0  0  0
  1 25  1  0  0  0  0
  2  9  1  0  0  0  0
  2 41  1  0  0  0  0
  3 29  1  0  0  0  0
  3 52  1  0  0  0  0
  4 30  1  0  0  0  0
  4 53  1  0  0  0  0
  5 29  2  0  0  0  0
  6 30  2  0  0  0  0
  7 12  1  0  0  0  0
  7 13  1  0  0  0  0
  7 15  1  0  0  0  0
  8 20  1  0  0  0  0
  8 21  1  0  0  0  0
  8 47  1  0  0  0  0
  9 10  1  0  0  0  0
  9 11  1  0  0  0  0
  9 14  1  0  0  0  0
 10 12  1  0  0  0  0
 10 31  1  0  0  0  0
 10 32  1  0  0  0  0
 11 13  1  0  0  0  0
 11 33  1  0  0  0  0
 11 34  1  0  0  0  0
 12 35  1  0  0  0  0
 12 36  1  0  0  0  0
 13 37  1  0  0  0  0
 13 38  1  0  0  0  0
 14 17  2  0  0  0  0
 14 18  1  0  0  0  0
 15 16  1  0  0  0  0
 15 39  1  0  0  0  0
 15 40  1  0  0  0  0
 16 19  1  0  0  0  0
 16 20  2  0  0  0  0
 17 22  1  0  0  0  0
 17 42  1  0  0  0  0
 18 23  2  0  0  0  0
 18 43  1  0  0  0  0
 19 21  1  0  0  0  0
 19 24  2  0  0  0  0
 20 44  1  0  0  0  0
 21 26  2  0  0  0  0
 22 25  2  0  0  0  0
 22 45  1  0  0  0  0
 23 25  1  0  0  0  0
 23 46  1  0  0  0  0
 24 27  1  0  0  0  0
 24 48  1  0  0  0  0
 26 28  1  0  0  0  0
 26 49  1  0  0  0  0
 27 28  2  0  0  0  0
 27 50  1  0  0  0  0
 28 51  1  0  0  0  0
 29 30  1  0  0  0  0
M  END
> <PUBCHEM_COMPOUND_CID>
49799686

> <PUBCHEM_COMPOUND_CANONICALIZED>
1

> <PUBCHEM_CACTVS_COMPLEXITY>
487

> <PUBCHEM_CACTVS_HBOND_ACCEPTOR>
6

> <PUBCHEM_CACTVS_HBOND_DONOR>
4

> <PUBCHEM_CACTVS_ROTATABLE_BOND>
4

> <PUBCHEM_CACTVS_SUBSKEYS>
AAADceB7OAAAAgAAAAAAAAAAAAAAAWAAAAA8YIAAAAAAAFgB9AAAHgAwCAAADEzDngQ8yPPJkgCoAzT3TAKCgCAxAiAI2aB4bJgJJuLA0ZGEcAhm0AHJ2AeQwOAOgAAAAAACAAAAAAAAAAQAAAAAAAAAAA==

> <PUBCHEM_IUPAC_OPENEYE_NAME>
1-(1H-indol-3-ylmethyl)-4-(4-iodophenyl)piperidin-4-ol;oxalic acid

> <PUBCHEM_IUPAC_CAS_NAME>
1-(1H-indol-3-ylmethyl)-4-(4-iodophenyl)-4-piperidinol;oxalic acid

> <PUBCHEM_IUPAC_NAME_MARKUP>
1-(1<I>H</I>-indol-3-ylmethyl)-4-(4-iodophenyl)piperidin-4-ol;oxalic acid

> <PUBCHEM_IUPAC_NAME>
1-(1H-indol-3-ylmethyl)-4-(4-iodophenyl)piperidin-4-ol;oxalic acid

> <PUBCHEM_IUPAC_SYSTEMATIC_NAME>
ethanedioic acid;1-(1H-indol-3-ylmethyl)-4-(4-iodophenyl)piperidin-4-ol

> <PUBCHEM_IUPAC_TRADITIONAL_NAME>
1-(1H-indol-3-ylmethyl)-4-(4-iodophenyl)piperidin-4-ol;oxalic acid

> <PUBCHEM_IUPAC_INCHI>
InChI=1S/C20H21IN2O.C2H2O4/c21-17-7-5-16(6-8-17)20(24)9-11-23(12-10-20)14-15-13-22-19-4-2-1-3-18(15)19;3-1(4)2(5)6/h1-8,13,22,24H,9-12,14H2;(H,3,4)(H,5,6)

> <PUBCHEM_IUPAC_INCHIKEY>
WRPOZQFPVOIPSJ-UHFFFAOYSA-N

> <PUBCHEM_EXACT_MASS>
522.06517

> <PUBCHEM_MOLECULAR_FORMULA>
C22H23IN2O5

> <PUBCHEM_MOLECULAR_WEIGHT>
522.3

> <PUBCHEM_OPENEYE_CAN_SMILES>
C1CN(CCC1(C2=CC=C(C=C2)I)O)CC3=CNC4=CC=CC=C43.C(=O)(C(=O)O)O

> <PUBCHEM_OPENEYE_ISO_SMILES>
C1CN(CCC1(C2=CC=C(C=C2)I)O)CC3=CNC4=CC=CC=C43.C(=O)(C(=O)O)O

> <PUBCHEM_CACTVS_TPSA>
114

> <PUBCHEM_MONOISOTOPIC_WEIGHT>
522.06517

> <PUBCHEM_TOTAL_CHARGE>
0

> <PUBCHEM_HEAVY_ATOM_COUNT>
30

> <PUBCHEM_ATOM_DEF_STEREO_COUNT>
0

> <PUBCHEM_ATOM_UDEF_STEREO_COUNT>
0

> <PUBCHEM_BOND_DEF_STEREO_COUNT>
0

> <PUBCHEM_BOND_UDEF_STEREO_COUNT>
0

> <PUBCHEM_ISOTOPIC_ATOM_COUNT>
0

> <PUBCHEM_COMPONENT_COUNT>
2

> <PUBCHEM_CACTVS_TAUTO_COUNT>
-1

> <PUBCHEM_COORDINATE_TYPE>
1
5
255

> <PUBCHEM_BONDANNOTATIONS>
14  17  8
14  18  8
16  19  8
16  20  8
17  22  8
18  23  8
19  21  8
19  24  8
21  26  8
22  25  8
23  25  8
24  27  8
26  28  8
27  28  8
8  20  8
8  21  8

$$$$
