11857791
  -OEChem-09292322242D

 71 75  0     0  0  0  0  0  0999 V2000
   11.6603   -1.6900    0.0000 S   0  0  0  0  0  0  0  0  0  0  0  0
    3.0000   -2.6900    0.0000 F   0  0  0  0  0  0  0  0  0  0  0  0
    2.0000   -1.6900    0.0000 F   0  0  0  0  0  0  0  0  0  0  0  0
    4.0000   -1.6900    0.0000 F   0  0  0  0  0  0  0  0  0  0  0  0
    3.8660   -0.1900    0.0000 O   0  0  0  0  0  0  0  0  0  0  0  0
   11.1603   -0.8240    0.0000 O   0  0  0  0  0  0  0  0  0  0  0  0
   12.1603   -2.5560    0.0000 O   0  0  0  0  0  0  0  0  0  0  0  0
   15.1523   -1.7247    0.0000 O   0  0  0  0  0  0  0  0  0  0  0  0
   15.1523    0.3447    0.0000 O   0  0  0  0  0  0  0  0  0  0  0  0
    7.3301   -0.1900    0.0000 N   0  0  0  0  0  0  0  0  0  0  0  0
   10.7942   -2.1900    0.0000 N   0  0  0  0  0  0  0  0  0  0  0  0
    8.1962   -0.6900    0.0000 C   0  0  0  0  0  0  0  0  0  0  0  0
    9.0622   -0.1900    0.0000 C   0  0  0  0  0  0  0  0  0  0  0  0
    8.1962   -1.6900    0.0000 C   0  0  0  0  0  0  0  0  0  0  0  0
    9.9282   -1.6900    0.0000 C   0  0  0  0  0  0  0  0  0  0  0  0
    9.9282   -0.6900    0.0000 C   0  0  0  0  0  0  0  0  0  0  0  0
    9.0622   -2.1900    0.0000 C   0  0  0  0  0  0  0  0  0  0  0  0
    7.3301    0.8100    0.0000 C   0  0  0  0  0  0  0  0  0  0  0  0
    6.4641   -0.6900    0.0000 C   0  0  0  0  0  0  0  0  0  0  0  0
    5.5981    0.8100    0.0000 C   0  0  0  0  0  0  0  0  0  0  0  0
    6.4641    1.3100    0.0000 C   0  0  0  0  0  0  0  0  0  0  0  0
    5.5981   -0.1900    0.0000 C   0  0  0  0  0  0  0  0  0  0  0  0
    4.7320    1.3100    0.0000 C   0  0  0  0  0  0  0  0  0  0  0  0
    3.8660    0.8100    0.0000 C   0  0  0  0  0  0  0  0  0  0  0  0
    4.7320    2.3100    0.0000 C   0  0  0  0  0  0  0  0  0  0  0  0
   12.5263   -1.1900    0.0000 C   0  0  0  0  0  0  0  0  0  0  0  0
    3.0000    1.3100    0.0000 C   0  0  0  0  0  0  0  0  0  0  0  0
    3.8660    2.8100    0.0000 C   0  0  0  0  0  0  0  0  0  0  0  0
    3.0000    2.3100    0.0000 C   0  0  0  0  0  0  0  0  0  0  0  0
   13.3923   -1.6900    0.0000 C   0  0  0  0  0  0  0  0  0  0  0  0
   12.5263   -0.1900    0.0000 C   0  0  0  0  0  0  0  0  0  0  0  0
    3.0000   -0.6900    0.0000 C   0  0  0  0  0  0  0  0  0  0  0  0
   14.2583   -1.1900    0.0000 C   0  0  0  0  0  0  0  0  0  0  0  0
   13.3923    0.3100    0.0000 C   0  0  0  0  0  0  0  0  0  0  0  0
   14.2583   -0.1900    0.0000 C   0  0  0  0  0  0  0  0  0  0  0  0
    3.0000   -1.6900    0.0000 C   0  0  0  0  0  0  0  0  0  0  0  0
   16.0583   -1.2108    0.0000 C   0  0  0  0  0  0  0  0  0  0  0  0
   16.0583   -0.1692    0.0000 C   0  0  0  0  0  0  0  0  0  0  0  0
    7.6592   -1.0000    0.0000 H   0  0  0  0  0  0  0  0  0  0  0  0
    9.4607    0.2849    0.0000 H   0  0  0  0  0  0  0  0  0  0  0  0
    8.6636    0.2849    0.0000 H   0  0  0  0  0  0  0  0  0  0  0  0
    7.5856   -1.5823    0.0000 H   0  0  0  0  0  0  0  0  0  0  0  0
    7.9841   -2.2726    0.0000 H   0  0  0  0  0  0  0  0  0  0  0  0
   10.4651   -1.3800    0.0000 H   0  0  0  0  0  0  0  0  0  0  0  0
   10.5388   -0.7977    0.0000 H   0  0  0  0  0  0  0  0  0  0  0  0
   10.1403   -0.1074    0.0000 H   0  0  0  0  0  0  0  0  0  0  0  0
    8.6636   -2.6650    0.0000 H   0  0  0  0  0  0  0  0  0  0  0  0
    9.4607   -2.6650    0.0000 H   0  0  0  0  0  0  0  0  0  0  0  0
    7.9407    0.7023    0.0000 H   0  0  0  0  0  0  0  0  0  0  0  0
    7.5422    1.3926    0.0000 H   0  0  0  0  0  0  0  0  0  0  0  0
    6.0656   -1.1650    0.0000 H   0  0  0  0  0  0  0  0  0  0  0  0
    6.8626   -1.1650    0.0000 H   0  0  0  0  0  0  0  0  0  0  0  0
    5.5981    1.4300    0.0000 H   0  0  0  0  0  0  0  0  0  0  0  0
    6.8626    1.7850    0.0000 H   0  0  0  0  0  0  0  0  0  0  0  0
    6.0656    1.7850    0.0000 H   0  0  0  0  0  0  0  0  0  0  0  0
    4.9875   -0.0823    0.0000 H   0  0  0  0  0  0  0  0  0  0  0  0
    5.3860   -0.7726    0.0000 H   0  0  0  0  0  0  0  0  0  0  0  0
   10.7942   -2.8100    0.0000 H   0  0  0  0  0  0  0  0  0  0  0  0
    5.2690    2.6200    0.0000 H   0  0  0  0  0  0  0  0  0  0  0  0
    2.4631    1.0000    0.0000 H   0  0  0  0  0  0  0  0  0  0  0  0
    3.8660    3.4300    0.0000 H   0  0  0  0  0  0  0  0  0  0  0  0
    2.4631    2.6200    0.0000 H   0  0  0  0  0  0  0  0  0  0  0  0
   13.3923   -2.3100    0.0000 H   0  0  0  0  0  0  0  0  0  0  0  0
   11.9893    0.1200    0.0000 H   0  0  0  0  0  0  0  0  0  0  0  0
    2.7880   -0.1074    0.0000 H   0  0  0  0  0  0  0  0  0  0  0  0
    2.3894   -0.7977    0.0000 H   0  0  0  0  0  0  0  0  0  0  0  0
   13.3923    0.9300    0.0000 H   0  0  0  0  0  0  0  0  0  0  0  0
   16.2674   -1.7945    0.0000 H   0  0  0  0  0  0  0  0  0  0  0  0
   16.6692   -1.1047    0.0000 H   0  0  0  0  0  0  0  0  0  0  0  0
   16.6692   -0.2753    0.0000 H   0  0  0  0  0  0  0  0  0  0  0  0
   16.2674    0.4145    0.0000 H   0  0  0  0  0  0  0  0  0  0  0  0
  1  6  2  0  0  0  0
  1  7  2  0  0  0  0
  1 11  1  0  0  0  0
  1 26  1  0  0  0  0
  2 36  1  0  0  0  0
  3 36  1  0  0  0  0
  4 36  1  0  0  0  0
  5 24  1  0  0  0  0
  5 32  1  0  0  0  0
  8 33  1  0  0  0  0
  8 37  1  0  0  0  0
  9 35  1  0  0  0  0
  9 38  1  0  0  0  0
 10 12  1  0  0  0  0
 10 18  1  0  0  0  0
 10 19  1  0  0  0  0
 11 15  1  0  0  0  0
 11 58  1  0  0  0  0
 12 13  1  0  0  0  0
 12 14  1  0  0  0  0
 12 39  1  0  0  0  0
 13 16  1  0  0  0  0
 13 40  1  0  0  0  0
 13 41  1  0  0  0  0
 14 17  1  0  0  0  0
 14 42  1  0  0  0  0
 14 43  1  0  0  0  0
 15 16  1  0  0  0  0
 15 17  1  0  0  0  0
 15 44  1  0  0  0  0
 16 45  1  0  0  0  0
 16 46  1  0  0  0  0
 17 47  1  0  0  0  0
 17 48  1  0  0  0  0
 18 21  1  0  0  0  0
 18 49  1  0  0  0  0
 18 50  1  0  0  0  0
 19 22  1  0  0  0  0
 19 51  1  0  0  0  0
 19 52  1  0  0  0  0
 20 21  1  0  0  0  0
 20 22  1  0  0  0  0
 20 23  1  0  0  0  0
 20 53  1  0  0  0  0
 21 54  1  0  0  0  0
 21 55  1  0  0  0  0
 22 56  1  0  0  0  0
 22 57  1  0  0  0  0
 23 24  1  0  0  0  0
 23 25  2  0  0  0  0
 24 27  2  0  0  0  0
 25 28  1  0  0  0  0
 25 59  1  0  0  0  0
 26 30  2  0  0  0  0
 26 31  1  0  0  0  0
 27 29  1  0  0  0  0
 27 60  1  0  0  0  0
 28 29  2  0  0  0  0
 28 61  1  0  0  0  0
 29 62  1  0  0  0  0
 30 33  1  0  0  0  0
 30 63  1  0  0  0  0
 31 34  2  0  0  0  0
 31 64  1  0  0  0  0
 32 36  1  0  0  0  0
 32 65  1  0  0  0  0
 32 66  1  0  0  0  0
 33 35  2  0  0  0  0
 34 35  1  0  0  0  0
 34 67  1  0  0  0  0
 37 38  1  0  0  0  0
 37 68  1  0  0  0  0
 37 69  1  0  0  0  0
 38 70  1  0  0  0  0
 38 71  1  0  0  0  0
M  END
> <PUBCHEM_COMPOUND_CID>
11857791

> <PUBCHEM_COMPOUND_CANONICALIZED>
1

> <PUBCHEM_CACTVS_COMPLEXITY>
854

> <PUBCHEM_CACTVS_HBOND_ACCEPTOR>
10

> <PUBCHEM_CACTVS_HBOND_DONOR>
1

> <PUBCHEM_CACTVS_ROTATABLE_BOND>
7

> <PUBCHEM_CACTVS_SUBSKEYS>
AAADcfB7OYBAAAAAAAAAAAAAAAAAAAAAAAA8aMECAAAAAACRQAAAHwQQQAAADSzh2BYwB4NABAKAAiBCAHBCCBAgIAAIiJgOiIgNJiKEsRqGOCKk0BGKqAeQ0OIOgIAABAAIQAABAQAIABCAAAAAAAAAAA==

> <PUBCHEM_IUPAC_OPENEYE_NAME>
N-[4-[4-[2-(2,2,2-trifluoroethoxy)phenyl]-1-piperidyl]cyclohexyl]-2,3-dihydro-1,4-benzodioxine-6-sulfonamide

> <PUBCHEM_IUPAC_CAS_NAME>
N-[4-[4-[2-(2,2,2-trifluoroethoxy)phenyl]-1-piperidinyl]cyclohexyl]-2,3-dihydro-1,4-benzodioxin-6-sulfonamide

> <PUBCHEM_IUPAC_NAME_MARKUP>
<I>N</I>-[4-[4-[2-(2,2,2-trifluoroethoxy)phenyl]piperidin-1-yl]cyclohexyl]-2,3-dihydro-1,4-benzodioxine-6-sulfonamide

> <PUBCHEM_IUPAC_NAME>
N-[4-[4-[2-(2,2,2-trifluoroethoxy)phenyl]piperidin-1-yl]cyclohexyl]-2,3-dihydro-1,4-benzodioxine-6-sulfonamide

> <PUBCHEM_IUPAC_SYSTEMATIC_NAME>
N-[4-[4-[2-[2,2,2-tris(fluoranyl)ethoxy]phenyl]piperidin-1-yl]cyclohexyl]-2,3-dihydro-1,4-benzodioxine-6-sulfonamide

> <PUBCHEM_IUPAC_TRADITIONAL_NAME>
N-[4-[4-[2-(2,2,2-trifluoroethoxy)phenyl]piperidino]cyclohexyl]-2,3-dihydro-1,4-benzodioxin-6-sulfonamide

> <PUBCHEM_IUPAC_INCHI>
InChI=1S/C27H33F3N2O5S/c28-27(29,30)18-37-24-4-2-1-3-23(24)19-11-13-32(14-12-19)21-7-5-20(6-8-21)31-38(33,34)22-9-10-25-26(17-22)36-16-15-35-25/h1-4,9-10,17,19-21,31H,5-8,11-16,18H2

> <PUBCHEM_IUPAC_INCHIKEY>
PPAIEDLGYFCKEB-UHFFFAOYSA-N

> <PUBCHEM_XLOGP3_AA>
5.3

> <PUBCHEM_EXACT_MASS>
554.20622782

> <PUBCHEM_MOLECULAR_FORMULA>
C27H33F3N2O5S

> <PUBCHEM_MOLECULAR_WEIGHT>
554.6

> <PUBCHEM_OPENEYE_CAN_SMILES>
C1CC(CCC1NS(=O)(=O)C2=CC3=C(C=C2)OCCO3)N4CCC(CC4)C5=CC=CC=C5OCC(F)(F)F

> <PUBCHEM_OPENEYE_ISO_SMILES>
C1CC(CCC1NS(=O)(=O)C2=CC3=C(C=C2)OCCO3)N4CCC(CC4)C5=CC=CC=C5OCC(F)(F)F

> <PUBCHEM_CACTVS_TPSA>
85.5

> <PUBCHEM_MONOISOTOPIC_WEIGHT>
554.20622782

> <PUBCHEM_TOTAL_CHARGE>
0

> <PUBCHEM_HEAVY_ATOM_COUNT>
38

> <PUBCHEM_ATOM_DEF_STEREO_COUNT>
0

> <PUBCHEM_ATOM_UDEF_STEREO_COUNT>
0

> <PUBCHEM_BOND_DEF_STEREO_COUNT>
0

> <PUBCHEM_BOND_UDEF_STEREO_COUNT>
0

> <PUBCHEM_ISOTOPIC_ATOM_COUNT>
0

> <PUBCHEM_COMPONENT_COUNT>
1

> <PUBCHEM_CACTVS_TAUTO_COUNT>
-1

> <PUBCHEM_COORDINATE_TYPE>
1
5
255

> <PUBCHEM_BONDANNOTATIONS>
23  24  8
23  25  8
24  27  8
25  28  8
26  30  8
26  31  8
27  29  8
28  29  8
30  33  8
31  34  8
33  35  8
34  35  8

$$$$
