57395340
  -OEChem-09292322322D

 73 75  0     0  0  0  0  0  0999 V2000
    2.8660   -7.0000    0.0000 O   0  0  0  0  0  0  0  0  0  0  0  0
    8.0622    0.0000    0.0000 O   0  0  0  0  0  0  0  0  0  0  0  0
    8.0622    5.0000    0.0000 O   0  0  0  0  0  0  0  0  0  0  0  0
    8.9282    7.5000    0.0000 O   0  0  0  0  0  0  0  0  0  0  0  0
    4.5981   -4.0000    0.0000 N   0  0  0  0  0  0  0  0  0  0  0  0
    4.5981   -6.0000    0.0000 N   0  0  0  0  0  0  0  0  0  0  0  0
    6.3301    0.0000    0.0000 N   0  0  0  0  0  0  0  0  0  0  0  0
    5.4641   -4.5000    0.0000 C   0  0  0  0  0  0  0  0  0  0  0  0
    3.7320   -4.5000    0.0000 C   0  0  0  0  0  0  0  0  0  0  0  0
    5.4641   -5.5000    0.0000 C   0  0  0  0  0  0  0  0  0  0  0  0
    3.7320   -5.5000    0.0000 C   0  0  0  0  0  0  0  0  0  0  0  0
    4.5981   -3.0000    0.0000 C   0  0  0  0  0  0  0  0  0  0  0  0
    5.4641   -2.5000    0.0000 C   0  0  0  0  0  0  0  0  0  0  0  0
    4.5981   -7.0000    0.0000 C   0  0  0  0  0  0  0  0  0  0  0  0
    5.4641   -1.5000    0.0000 C   0  0  0  0  0  0  0  0  0  0  0  0
    6.3301   -1.0000    0.0000 C   0  0  0  0  0  0  0  0  0  0  0  0
    3.7320   -7.5000    0.0000 C   0  0  0  0  0  0  0  0  0  0  0  0
    5.4641   -7.5000    0.0000 C   0  0  0  0  0  0  0  0  0  0  0  0
    3.7320   -8.5000    0.0000 C   0  0  0  0  0  0  0  0  0  0  0  0
    5.4641   -8.5000    0.0000 C   0  0  0  0  0  0  0  0  0  0  0  0
    4.5981   -9.0000    0.0000 C   0  0  0  0  0  0  0  0  0  0  0  0
    7.1962    0.5000    0.0000 C   0  0  0  0  0  0  0  0  0  0  0  0
    2.0000   -7.5000    0.0000 C   0  0  0  0  0  0  0  0  0  0  0  0
    7.1962    1.5000    0.0000 C   0  0  0  0  0  0  0  0  0  0  0  0
    6.3301    2.0000    0.0000 C   0  0  0  0  0  0  0  0  0  0  0  0
    8.0622    2.0000    0.0000 C   0  0  0  0  0  0  0  0  0  0  0  0
    7.1962    3.5000    0.0000 C   0  0  0  0  0  0  0  0  0  0  0  0
    6.3301    3.0000    0.0000 C   0  0  0  0  0  0  0  0  0  0  0  0
    8.0622    3.0000    0.0000 C   0  0  0  0  0  0  0  0  0  0  0  0
    7.1962    4.5000    0.0000 C   0  0  0  0  0  0  0  0  0  0  0  0
    8.0622    6.0000    0.0000 C   0  0  0  0  0  0  0  0  0  0  0  0
    8.9282    6.5000    0.0000 C   0  0  0  0  0  0  0  0  0  0  0  0
    9.7942    8.0000    0.0000 C   0  0  0  0  0  0  0  0  0  0  0  0
    9.7942    9.0000    0.0000 C   0  0  0  0  0  0  0  0  0  0  0  0
    6.0747   -4.6077    0.0000 H   0  0  0  0  0  0  0  0  0  0  0  0
    5.6762   -3.9174    0.0000 H   0  0  0  0  0  0  0  0  0  0  0  0
    3.5200   -3.9174    0.0000 H   0  0  0  0  0  0  0  0  0  0  0  0
    3.1215   -4.6077    0.0000 H   0  0  0  0  0  0  0  0  0  0  0  0
    5.6762   -6.0826    0.0000 H   0  0  0  0  0  0  0  0  0  0  0  0
    6.0747   -5.3923    0.0000 H   0  0  0  0  0  0  0  0  0  0  0  0
    3.1215   -5.3923    0.0000 H   0  0  0  0  0  0  0  0  0  0  0  0
    3.5200   -6.0826    0.0000 H   0  0  0  0  0  0  0  0  0  0  0  0
    4.3860   -2.4174    0.0000 H   0  0  0  0  0  0  0  0  0  0  0  0
    3.9875   -3.1077    0.0000 H   0  0  0  0  0  0  0  0  0  0  0  0
    5.6762   -3.0826    0.0000 H   0  0  0  0  0  0  0  0  0  0  0  0
    6.0747   -2.3923    0.0000 H   0  0  0  0  0  0  0  0  0  0  0  0
    5.2520   -0.9174    0.0000 H   0  0  0  0  0  0  0  0  0  0  0  0
    4.8535   -1.6077    0.0000 H   0  0  0  0  0  0  0  0  0  0  0  0
    6.5422   -1.5826    0.0000 H   0  0  0  0  0  0  0  0  0  0  0  0
    6.9407   -0.8923    0.0000 H   0  0  0  0  0  0  0  0  0  0  0  0
    6.0010   -7.1900    0.0000 H   0  0  0  0  0  0  0  0  0  0  0  0
    3.1951   -8.8100    0.0000 H   0  0  0  0  0  0  0  0  0  0  0  0
    6.0010   -8.8100    0.0000 H   0  0  0  0  0  0  0  0  0  0  0  0
    5.7932    0.3100    0.0000 H   0  0  0  0  0  0  0  0  0  0  0  0
    4.5981   -9.6200    0.0000 H   0  0  0  0  0  0  0  0  0  0  0  0
    1.6900   -6.9631    0.0000 H   0  0  0  0  0  0  0  0  0  0  0  0
    1.4631   -7.8100    0.0000 H   0  0  0  0  0  0  0  0  0  0  0  0
    2.3100   -8.0369    0.0000 H   0  0  0  0  0  0  0  0  0  0  0  0
    5.7932    1.6900    0.0000 H   0  0  0  0  0  0  0  0  0  0  0  0
    8.5991    1.6900    0.0000 H   0  0  0  0  0  0  0  0  0  0  0  0
    5.7932    3.3100    0.0000 H   0  0  0  0  0  0  0  0  0  0  0  0
    8.5991    3.3100    0.0000 H   0  0  0  0  0  0  0  0  0  0  0  0
    6.9841    5.0826    0.0000 H   0  0  0  0  0  0  0  0  0  0  0  0
    6.5856    4.3923    0.0000 H   0  0  0  0  0  0  0  0  0  0  0  0
    7.8501    6.5826    0.0000 H   0  0  0  0  0  0  0  0  0  0  0  0
    7.4516    5.8923    0.0000 H   0  0  0  0  0  0  0  0  0  0  0  0
    9.1403    5.9174    0.0000 H   0  0  0  0  0  0  0  0  0  0  0  0
    9.5388    6.6077    0.0000 H   0  0  0  0  0  0  0  0  0  0  0  0
   10.0063    7.4174    0.0000 H   0  0  0  0  0  0  0  0  0  0  0  0
   10.4048    8.1077    0.0000 H   0  0  0  0  0  0  0  0  0  0  0  0
   10.4142    9.0000    0.0000 H   0  0  0  0  0  0  0  0  0  0  0  0
    9.7942    9.6200    0.0000 H   0  0  0  0  0  0  0  0  0  0  0  0
    9.1742    9.0000    0.0000 H   0  0  0  0  0  0  0  0  0  0  0  0
  1 17  1  0  0  0  0
  1 23  1  0  0  0  0
  2 22  2  0  0  0  0
  3 30  1  0  0  0  0
  3 31  1  0  0  0  0
  4 32  1  0  0  0  0
  4 33  1  0  0  0  0
  5  8  1  0  0  0  0
  5  9  1  0  0  0  0
  5 12  1  0  0  0  0
  6 10  1  0  0  0  0
  6 11  1  0  0  0  0
  6 14  1  0  0  0  0
  7 16  1  0  0  0  0
  7 22  1  0  0  0  0
  7 54  1  0  0  0  0
  8 10  1  0  0  0  0
  8 35  1  0  0  0  0
  8 36  1  0  0  0  0
  9 11  1  0  0  0  0
  9 37  1  0  0  0  0
  9 38  1  0  0  0  0
 10 39  1  0  0  0  0
 10 40  1  0  0  0  0
 11 41  1  0  0  0  0
 11 42  1  0  0  0  0
 12 13  1  0  0  0  0
 12 43  1  0  0  0  0
 12 44  1  0  0  0  0
 13 15  1  0  0  0  0
 13 45  1  0  0  0  0
 13 46  1  0  0  0  0
 14 17  1  0  0  0  0
 14 18  2  0  0  0  0
 15 16  1  0  0  0  0
 15 47  1  0  0  0  0
 15 48  1  0  0  0  0
 16 49  1  0  0  0  0
 16 50  1  0  0  0  0
 17 19  2  0  0  0  0
 18 20  1  0  0  0  0
 18 51  1  0  0  0  0
 19 21  1  0  0  0  0
 19 52  1  0  0  0  0
 20 21  2  0  0  0  0
 20 53  1  0  0  0  0
 21 55  1  0  0  0  0
 22 24  1  0  0  0  0
 23 56  1  0  0  0  0
 23 57  1  0  0  0  0
 23 58  1  0  0  0  0
 24 25  2  0  0  0  0
 24 26  1  0  0  0  0
 25 28  1  0  0  0  0
 25 59  1  0  0  0  0
 26 29  2  0  0  0  0
 26 60  1  0  0  0  0
 27 28  2  0  0  0  0
 27 29  1  0  0  0  0
 27 30  1  0  0  0  0
 28 61  1  0  0  0  0
 29 62  1  0  0  0  0
 30 63  1  0  0  0  0
 30 64  1  0  0  0  0
 31 32  1  0  0  0  0
 31 65  1  0  0  0  0
 31 66  1  0  0  0  0
 32 67  1  0  0  0  0
 32 68  1  0  0  0  0
 33 34  1  0  0  0  0
 33 69  1  0  0  0  0
 33 70  1  0  0  0  0
 34 71  1  0  0  0  0
 34 72  1  0  0  0  0
 34 73  1  0  0  0  0
M  END
> <PUBCHEM_COMPOUND_CID>
57395340

> <PUBCHEM_COMPOUND_CANONICALIZED>
1

> <PUBCHEM_CACTVS_COMPLEXITY>
548

> <PUBCHEM_CACTVS_HBOND_ACCEPTOR>
6

> <PUBCHEM_CACTVS_HBOND_DONOR>
1

> <PUBCHEM_CACTVS_ROTATABLE_BOND>
14

> <PUBCHEM_CACTVS_SUBSKEYS>
AAADcfB7OAAAAAAAAAAAAAAAAAAAAAAAAAA8YIAAAAAAAAABQAAAHgAQAAAADAzhmAYyxoPABACIAiVSUACCCAAlIgAIiIEPbMgPZjLEtZuXMShk1hHa6YeYyDCOQAAAAAAAEACAAAAAAAAgAAAAAAAAAA==

> <PUBCHEM_IUPAC_OPENEYE_NAME>
4-(2-ethoxyethoxymethyl)-N-[4-[4-(2-methoxyphenyl)piperazin-1-yl]butyl]benzamide

> <PUBCHEM_IUPAC_CAS_NAME>
4-(2-ethoxyethoxymethyl)-N-[4-[4-(2-methoxyphenyl)-1-piperazinyl]butyl]benzamide

> <PUBCHEM_IUPAC_NAME_MARKUP>
4-(2-ethoxyethoxymethyl)-<I>N</I>-[4-[4-(2-methoxyphenyl)piperazin-1-yl]butyl]benzamide

> <PUBCHEM_IUPAC_NAME>
4-(2-ethoxyethoxymethyl)-N-[4-[4-(2-methoxyphenyl)piperazin-1-yl]butyl]benzamide

> <PUBCHEM_IUPAC_SYSTEMATIC_NAME>
4-(2-ethoxyethoxymethyl)-N-[4-[4-(2-methoxyphenyl)piperazin-1-yl]butyl]benzamide

> <PUBCHEM_IUPAC_TRADITIONAL_NAME>
4-(2-ethoxyethoxymethyl)-N-[4-[4-(2-methoxyphenyl)piperazino]butyl]benzamide

> <PUBCHEM_IUPAC_INCHI>
InChI=1S/C27H39N3O4/c1-3-33-20-21-34-22-23-10-12-24(13-11-23)27(31)28-14-6-7-15-29-16-18-30(19-17-29)25-8-4-5-9-26(25)32-2/h4-5,8-13H,3,6-7,14-22H2,1-2H3,(H,28,31)

> <PUBCHEM_IUPAC_INCHIKEY>
CTWFQXKVAMVTEI-UHFFFAOYSA-N

> <PUBCHEM_XLOGP3_AA>
3.4

> <PUBCHEM_EXACT_MASS>
469.29405673

> <PUBCHEM_MOLECULAR_FORMULA>
C27H39N3O4

> <PUBCHEM_MOLECULAR_WEIGHT>
469.6

> <PUBCHEM_OPENEYE_CAN_SMILES>
CCOCCOCC1=CC=C(C=C1)C(=O)NCCCCN2CCN(CC2)C3=CC=CC=C3OC

> <PUBCHEM_OPENEYE_ISO_SMILES>
CCOCCOCC1=CC=C(C=C1)C(=O)NCCCCN2CCN(CC2)C3=CC=CC=C3OC

> <PUBCHEM_CACTVS_TPSA>
63.3

> <PUBCHEM_MONOISOTOPIC_WEIGHT>
469.29405673

> <PUBCHEM_TOTAL_CHARGE>
0

> <PUBCHEM_HEAVY_ATOM_COUNT>
34

> <PUBCHEM_ATOM_DEF_STEREO_COUNT>
0

> <PUBCHEM_ATOM_UDEF_STEREO_COUNT>
0

> <PUBCHEM_BOND_DEF_STEREO_COUNT>
0

> <PUBCHEM_BOND_UDEF_STEREO_COUNT>
0

> <PUBCHEM_ISOTOPIC_ATOM_COUNT>
0

> <PUBCHEM_COMPONENT_COUNT>
1

> <PUBCHEM_CACTVS_TAUTO_COUNT>
-1

> <PUBCHEM_COORDINATE_TYPE>
1
5
255

> <PUBCHEM_BONDANNOTATIONS>
14  17  8
14  18  8
17  19  8
18  20  8
19  21  8
20  21  8
24  25  8
24  26  8
25  28  8
26  29  8
27  28  8
27  29  8

$$$$
