44304621
  -OEChem-09292322142D

 58 61  0     1  0  0  0  0  0999 V2000
    8.8089   -6.4938    0.0000 Br  0  0  0  0  0  0  0  0  0  0  0  0
    7.8858   -2.9060    0.0000 O   0  0  0  0  0  0  0  0  0  0  0  0
    5.3448   -4.4938    0.0000 O   0  0  0  0  0  0  0  0  0  0  0  0
    4.3179    3.2503    0.0000 N   0  0  3  0  0  0  0  0  0  0  0  0
    6.3958   -0.2323    0.0000 N   0  0  0  0  0  0  0  0  0  0  0  0
    6.2678   -2.9060    0.0000 N   0  0  0  0  0  0  0  0  0  0  0  0
    5.6270    2.2992    0.0000 C   0  0  2  0  0  0  0  0  0  0  0  0
    5.9360    3.2503    0.0000 C   0  0  0  0  0  0  0  0  0  0  0  0
    4.6270    2.2992    0.0000 C   0  0  0  0  0  0  0  0  0  0  0  0
    5.1270    3.8381    0.0000 C   0  0  0  0  0  0  0  0  0  0  0  0
    6.2147    1.4902    0.0000 C   0  0  0  0  0  0  0  0  0  0  0  0
    3.3669    3.5593    0.0000 C   0  0  0  0  0  0  0  0  0  0  0  0
    5.8080    0.5767    0.0000 C   0  0  0  0  0  0  0  0  0  0  0  0
    3.1590    4.5374    0.0000 C   0  0  0  0  0  0  0  0  0  0  0  0
    5.9890   -1.1459    0.0000 C   0  0  0  0  0  0  0  0  0  0  0  0
    2.2079    4.8465    0.0000 C   0  0  0  0  0  0  0  0  0  0  0  0
    3.9021    5.2066    0.0000 C   0  0  0  0  0  0  0  0  0  0  0  0
    6.5768   -1.9549    0.0000 C   0  0  0  0  0  0  0  0  0  0  0  0
    2.0000    5.8246    0.0000 C   0  0  0  0  0  0  0  0  0  0  0  0
    3.6942    6.1847    0.0000 C   0  0  0  0  0  0  0  0  0  0  0  0
    2.7431    6.4938    0.0000 C   0  0  0  0  0  0  0  0  0  0  0  0
    7.5768   -1.9549    0.0000 C   0  0  0  0  0  0  0  0  0  0  0  0
    7.0768   -3.4938    0.0000 C   0  0  0  0  0  0  0  0  0  0  0  0
    7.0768   -4.4938    0.0000 C   0  0  0  0  0  0  0  0  0  0  0  0
    6.2108   -4.9938    0.0000 C   0  0  0  0  0  0  0  0  0  0  0  0
    7.9429   -4.9938    0.0000 C   0  0  0  0  0  0  0  0  0  0  0  0
    6.2108   -5.9938    0.0000 C   0  0  0  0  0  0  0  0  0  0  0  0
    7.9429   -5.9938    0.0000 C   0  0  0  0  0  0  0  0  0  0  0  0
    7.0768   -6.4938    0.0000 C   0  0  0  0  0  0  0  0  0  0  0  0
    4.4788   -4.9938    0.0000 C   0  0  0  0  0  0  0  0  0  0  0  0
    6.2393    2.3962    0.0000 H   0  0  0  0  0  0  0  0  0  0  0  0
    6.5024    2.9981    0.0000 H   0  0  0  0  0  0  0  0  0  0  0  0
    6.2460    3.7872    0.0000 H   0  0  0  0  0  0  0  0  0  0  0  0
    4.0205    2.1703    0.0000 H   0  0  0  0  0  0  0  0  0  0  0  0
    4.6918    1.6826    0.0000 H   0  0  0  0  0  0  0  0  0  0  0  0
    5.5418    4.2988    0.0000 H   0  0  0  0  0  0  0  0  0  0  0  0
    4.7121    4.2988    0.0000 H   0  0  0  0  0  0  0  0  0  0  0  0
    6.7287    1.1435    0.0000 H   0  0  0  0  0  0  0  0  0  0  0  0
    6.6454    1.9362    0.0000 H   0  0  0  0  0  0  0  0  0  0  0  0
    2.7473    3.5377    0.0000 H   0  0  0  0  0  0  0  0  0  0  0  0
    3.2806    2.9453    0.0000 H   0  0  0  0  0  0  0  0  0  0  0  0
    5.2940    0.9234    0.0000 H   0  0  0  0  0  0  0  0  0  0  0  0
    5.3773    0.1307    0.0000 H   0  0  0  0  0  0  0  0  0  0  0  0
    7.0124   -0.1675    0.0000 H   0  0  0  0  0  0  0  0  0  0  0  0
    5.4751   -0.7992    0.0000 H   0  0  0  0  0  0  0  0  0  0  0  0
    5.5584   -1.5919    0.0000 H   0  0  0  0  0  0  0  0  0  0  0  0
    1.7472    4.4316    0.0000 H   0  0  0  0  0  0  0  0  0  0  0  0
    4.4918    5.0150    0.0000 H   0  0  0  0  0  0  0  0  0  0  0  0
    1.4103    6.0162    0.0000 H   0  0  0  0  0  0  0  0  0  0  0  0
    4.1550    6.5996    0.0000 H   0  0  0  0  0  0  0  0  0  0  0  0
    2.6142    7.1002    0.0000 H   0  0  0  0  0  0  0  0  0  0  0  0
    7.9413   -1.4533    0.0000 H   0  0  0  0  0  0  0  0  0  0  0  0
    8.4798   -4.6838    0.0000 H   0  0  0  0  0  0  0  0  0  0  0  0
    5.6739   -6.3038    0.0000 H   0  0  0  0  0  0  0  0  0  0  0  0
    7.0768   -7.1138    0.0000 H   0  0  0  0  0  0  0  0  0  0  0  0
    4.1688   -4.4568    0.0000 H   0  0  0  0  0  0  0  0  0  0  0  0
    3.9418   -5.3038    0.0000 H   0  0  0  0  0  0  0  0  0  0  0  0
    4.7888   -5.5307    0.0000 H   0  0  0  0  0  0  0  0  0  0  0  0
  1 28  1  0  0  0  0
  2 22  1  0  0  0  0
  2 23  1  0  0  0  0
  3 25  1  0  0  0  0
  3 30  1  0  0  0  0
  4  9  1  0  0  0  0
  4 10  1  0  0  0  0
  4 12  1  0  0  0  0
  5 13  1  0  0  0  0
  5 15  1  0  0  0  0
  5 44  1  0  0  0  0
  6 18  1  0  0  0  0
  6 23  2  0  0  0  0
  7  8  1  0  0  0  0
  7  9  1  0  0  0  0
  7 11  1  1  0  0  0
  7 31  1  0  0  0  0
  8 10  1  0  0  0  0
  8 32  1  0  0  0  0
  8 33  1  0  0  0  0
  9 34  1  0  0  0  0
  9 35  1  0  0  0  0
 10 36  1  0  0  0  0
 10 37  1  0  0  0  0
 11 13  1  0  0  0  0
 11 38  1  0  0  0  0
 11 39  1  0  0  0  0
 12 14  1  0  0  0  0
 12 40  1  0  0  0  0
 12 41  1  0  0  0  0
 13 42  1  0  0  0  0
 13 43  1  0  0  0  0
 14 16  2  0  0  0  0
 14 17  1  0  0  0  0
 15 18  1  0  0  0  0
 15 45  1  0  0  0  0
 15 46  1  0  0  0  0
 16 19  1  0  0  0  0
 16 47  1  0  0  0  0
 17 20  2  0  0  0  0
 17 48  1  0  0  0  0
 18 22  2  0  0  0  0
 19 21  2  0  0  0  0
 19 49  1  0  0  0  0
 20 21  1  0  0  0  0
 20 50  1  0  0  0  0
 21 51  1  0  0  0  0
 22 52  1  0  0  0  0
 23 24  1  0  0  0  0
 24 25  2  0  0  0  0
 24 26  1  0  0  0  0
 25 27  1  0  0  0  0
 26 28  2  0  0  0  0
 26 53  1  0  0  0  0
 27 29  2  0  0  0  0
 27 54  1  0  0  0  0
 28 29  1  0  0  0  0
 29 55  1  0  0  0  0
 30 56  1  0  0  0  0
 30 57  1  0  0  0  0
 30 58  1  0  0  0  0
M  END
> <PUBCHEM_COMPOUND_CID>
44304621

> <PUBCHEM_COMPOUND_CANONICALIZED>
1

> <PUBCHEM_CACTVS_COMPLEXITY>
505

> <PUBCHEM_CACTVS_HBOND_ACCEPTOR>
5

> <PUBCHEM_CACTVS_HBOND_DONOR>
1

> <PUBCHEM_CACTVS_ROTATABLE_BOND>
9

> <PUBCHEM_CACTVS_SUBSKEYS>
AAADceB7MAAAEAAAAAAAAAAAAAAAAWLAAAAwYAAAAAAAAAAB0AAAHgBQAAABrQzhngYyhpPIFECoAy1y1ASCiCAvYiQIiKG/LPgOZ76EtTufOWjn9BGYq5eYyCCOABAAEAAIAAAAIAAgABAAAAAAAAAAAA==

> <PUBCHEM_IUPAC_OPENEYE_NAME>
2-[(3R)-1-benzylpyrrolidin-3-yl]-N-[[2-(5-bromo-2-methoxy-phenyl)oxazol-4-yl]methyl]ethanamine

> <PUBCHEM_IUPAC_CAS_NAME>
N-[[2-(5-bromo-2-methoxyphenyl)-4-oxazolyl]methyl]-2-[(3R)-1-(phenylmethyl)-3-pyrrolidinyl]ethanamine

> <PUBCHEM_IUPAC_NAME_MARKUP>
2-[(3<I>R</I>)-1-benzylpyrrolidin-3-yl]-<I>N</I>-[[2-(5-bromo-2-methoxyphenyl)-1,3-oxazol-4-yl]methyl]ethanamine

> <PUBCHEM_IUPAC_NAME>
2-[(3R)-1-benzylpyrrolidin-3-yl]-N-[[2-(5-bromo-2-methoxyphenyl)-1,3-oxazol-4-yl]methyl]ethanamine

> <PUBCHEM_IUPAC_SYSTEMATIC_NAME>
N-[[2-(5-bromanyl-2-methoxy-phenyl)-1,3-oxazol-4-yl]methyl]-2-[(3R)-1-(phenylmethyl)pyrrolidin-3-yl]ethanamine

> <PUBCHEM_IUPAC_TRADITIONAL_NAME>
2-[(3R)-1-benzylpyrrolidin-3-yl]ethyl-[[2-(5-bromo-2-methoxy-phenyl)oxazol-4-yl]methyl]amine

> <PUBCHEM_IUPAC_INCHI>
InChI=1S/C24H28BrN3O2/c1-29-23-8-7-20(25)13-22(23)24-27-21(17-30-24)14-26-11-9-19-10-12-28(16-19)15-18-5-3-2-4-6-18/h2-8,13,17,19,26H,9-12,14-16H2,1H3/t19-/m1/s1

> <PUBCHEM_IUPAC_INCHIKEY>
PUTIADDALKYHRM-LJQANCHMSA-N

> <PUBCHEM_XLOGP3_AA>
4.3

> <PUBCHEM_EXACT_MASS>
469.13649

> <PUBCHEM_MOLECULAR_FORMULA>
C24H28BrN3O2

> <PUBCHEM_MOLECULAR_WEIGHT>
470.4

> <PUBCHEM_OPENEYE_CAN_SMILES>
COC1=C(C=C(C=C1)Br)C2=NC(=CO2)CNCCC3CCN(C3)CC4=CC=CC=C4

> <PUBCHEM_OPENEYE_ISO_SMILES>
COC1=C(C=C(C=C1)Br)C2=NC(=CO2)CNCC[C@@H]3CCN(C3)CC4=CC=CC=C4

> <PUBCHEM_CACTVS_TPSA>
50.5

> <PUBCHEM_MONOISOTOPIC_WEIGHT>
469.13649

> <PUBCHEM_TOTAL_CHARGE>
0

> <PUBCHEM_HEAVY_ATOM_COUNT>
30

> <PUBCHEM_ATOM_DEF_STEREO_COUNT>
1

> <PUBCHEM_ATOM_UDEF_STEREO_COUNT>
0

> <PUBCHEM_BOND_DEF_STEREO_COUNT>
0

> <PUBCHEM_BOND_UDEF_STEREO_COUNT>
0

> <PUBCHEM_ISOTOPIC_ATOM_COUNT>
0

> <PUBCHEM_COMPONENT_COUNT>
1

> <PUBCHEM_CACTVS_TAUTO_COUNT>
-1

> <PUBCHEM_COORDINATE_TYPE>
1
5
255

> <PUBCHEM_BONDANNOTATIONS>
14  16  8
14  17  8
16  19  8
17  20  8
18  22  8
19  21  8
2  22  8
2  23  8
20  21  8
24  25  8
24  26  8
25  27  8
26  28  8
27  29  8
28  29  8
6  18  8
6  23  8
7  11  5

$$$$
