11562200
  -OEChem-09292322492D

 60 64  0     1  0  0  0  0  0999 V2000
    9.0723    2.3567    0.0000 S   0  0  0  0  0  0  0  0  0  0  0  0
    2.3660   -5.7948    0.0000 F   0  0  0  0  0  0  0  0  0  0  0  0
    2.0000   -4.4288    0.0000 F   0  0  0  0  0  0  0  0  0  0  0  0
    4.3548   -3.9597    0.0000 O   0  0  0  0  0  0  0  0  0  0  0  0
   11.8961    5.6902    0.0000 O   0  0  0  0  0  0  0  0  0  0  0  0
    6.0723    0.6246    0.0000 N   0  0  3  0  0  0  0  0  0  0  0  0
    2.9609   -3.1549    0.0000 N   0  0  0  0  0  0  0  0  0  0  0  0
   10.5668    3.3272    0.0000 N   0  0  0  0  0  0  0  0  0  0  0  0
    9.1655    4.1362    0.0000 N   0  0  0  0  0  0  0  0  0  0  0  0
    9.9087    4.8054    0.0000 N   0  0  0  0  0  0  0  0  0  0  0  0
   13.2974    4.8812    0.0000 N   0  0  0  0  0  0  0  0  0  0  0  0
    6.6258   -0.1850    0.0000 C   0  0  0  0  0  0  0  0  0  0  0  0
    5.0943    0.6992    0.0000 C   0  0  0  0  0  0  0  0  0  0  0  0
    6.3405   -1.1234    0.0000 C   0  0  0  0  0  0  0  0  0  0  0  0
    4.4243   -0.0171    0.0000 C   0  0  0  0  0  0  0  0  0  0  0  0
    5.4300   -1.4878    0.0000 C   0  0  0  0  0  0  0  0  0  0  0  0
    4.5640   -0.9879    0.0000 C   0  0  0  0  0  0  0  0  0  0  0  0
    6.5723    1.4906    0.0000 C   0  0  0  0  0  0  0  0  0  0  0  0
    7.5723    1.4906    0.0000 C   0  0  0  0  0  0  0  0  0  0  0  0
    5.4300   -2.4878    0.0000 C   0  0  0  0  0  0  0  0  0  0  0  0
    3.6979   -1.4878    0.0000 C   0  0  0  0  0  0  0  0  0  0  0  0
    4.5640   -2.9878    0.0000 C   0  0  0  0  0  0  0  0  0  0  0  0
    3.6979   -2.4878    0.0000 C   0  0  0  0  0  0  0  0  0  0  0  0
    8.0723    2.3567    0.0000 C   0  0  0  0  0  0  0  0  0  0  0  0
    3.3660   -4.0627    0.0000 C   0  0  0  0  0  0  0  0  0  0  0  0
    2.8660   -4.9288    0.0000 C   0  0  0  0  0  0  0  0  0  0  0  0
    9.5723    3.2227    0.0000 C   0  0  0  0  0  0  0  0  0  0  0  0
    3.7320   -5.4288    0.0000 C   0  0  0  0  0  0  0  0  0  0  0  0
   10.7747    4.3054    0.0000 C   0  0  0  0  0  0  0  0  0  0  0  0
   11.2359    2.5841    0.0000 C   0  0  0  0  0  0  0  0  0  0  0  0
   11.6882    4.7121    0.0000 C   0  0  0  0  0  0  0  0  0  0  0  0
   12.5543    4.2121    0.0000 C   0  0  0  0  0  0  0  0  0  0  0  0
   12.6588    3.2176    0.0000 C   0  0  0  0  0  0  0  0  0  0  0  0
   12.8907    5.7948    0.0000 C   0  0  0  0  0  0  0  0  0  0  0  0
    7.1638   -0.4933    0.0000 H   0  0  0  0  0  0  0  0  0  0  0  0
    7.0465    0.2704    0.0000 H   0  0  0  0  0  0  0  0  0  0  0  0
    5.2784    1.2913    0.0000 H   0  0  0  0  0  0  0  0  0  0  0  0
    4.5584    1.0109    0.0000 H   0  0  0  0  0  0  0  0  0  0  0  0
    6.4365   -1.7359    0.0000 H   0  0  0  0  0  0  0  0  0  0  0  0
    6.9590   -1.1667    0.0000 H   0  0  0  0  0  0  0  0  0  0  0  0
    4.0776    0.4969    0.0000 H   0  0  0  0  0  0  0  0  0  0  0  0
    3.8458   -0.2402    0.0000 H   0  0  0  0  0  0  0  0  0  0  0  0
    6.6799    2.1012    0.0000 H   0  0  0  0  0  0  0  0  0  0  0  0
    5.9896    1.7027    0.0000 H   0  0  0  0  0  0  0  0  0  0  0  0
    7.4646    0.8801    0.0000 H   0  0  0  0  0  0  0  0  0  0  0  0
    8.1549    1.2786    0.0000 H   0  0  0  0  0  0  0  0  0  0  0  0
    5.9669   -2.7978    0.0000 H   0  0  0  0  0  0  0  0  0  0  0  0
    3.1610   -1.1778    0.0000 H   0  0  0  0  0  0  0  0  0  0  0  0
    8.1799    2.9672    0.0000 H   0  0  0  0  0  0  0  0  0  0  0  0
    7.4896    2.5687    0.0000 H   0  0  0  0  0  0  0  0  0  0  0  0
    3.4220   -5.9657    0.0000 H   0  0  0  0  0  0  0  0  0  0  0  0
    4.2690   -5.7387    0.0000 H   0  0  0  0  0  0  0  0  0  0  0  0
    4.0420   -4.8918    0.0000 H   0  0  0  0  0  0  0  0  0  0  0  0
   10.7752    2.1692    0.0000 H   0  0  0  0  0  0  0  0  0  0  0  0
   11.6508    2.1233    0.0000 H   0  0  0  0  0  0  0  0  0  0  0  0
   11.6967    2.9989    0.0000 H   0  0  0  0  0  0  0  0  0  0  0  0
   12.0422    3.1528    0.0000 H   0  0  0  0  0  0  0  0  0  0  0  0
   12.7236    2.6010    0.0000 H   0  0  0  0  0  0  0  0  0  0  0  0
   13.2754    3.2824    0.0000 H   0  0  0  0  0  0  0  0  0  0  0  0
   13.2007    6.3317    0.0000 H   0  0  0  0  0  0  0  0  0  0  0  0
  1 24  1  0  0  0  0
  1 27  1  0  0  0  0
  2 26  1  0  0  0  0
  3 26  1  0  0  0  0
  4 22  1  0  0  0  0
  4 25  1  0  0  0  0
  5 31  1  0  0  0  0
  5 34  1  0  0  0  0
  6 12  1  0  0  0  0
  6 13  1  0  0  0  0
  6 18  1  0  0  0  0
  7 23  1  0  0  0  0
  7 25  2  0  0  0  0
  8 27  1  0  0  0  0
  8 29  1  0  0  0  0
  8 30  1  0  0  0  0
  9 10  1  0  0  0  0
  9 27  2  0  0  0  0
 10 29  2  0  0  0  0
 11 32  1  0  0  0  0
 11 34  2  0  0  0  0
 12 14  1  0  0  0  0
 12 35  1  0  0  0  0
 12 36  1  0  0  0  0
 13 15  1  0  0  0  0
 13 37  1  0  0  0  0
 13 38  1  0  0  0  0
 14 16  1  0  0  0  0
 14 39  1  0  0  0  0
 14 40  1  0  0  0  0
 15 17  1  0  0  0  0
 15 41  1  0  0  0  0
 15 42  1  0  0  0  0
 16 17  1  0  0  0  0
 16 20  2  0  0  0  0
 17 21  2  0  0  0  0
 18 19  1  0  0  0  0
 18 43  1  0  0  0  0
 18 44  1  0  0  0  0
 19 24  1  0  0  0  0
 19 45  1  0  0  0  0
 19 46  1  0  0  0  0
 20 22  1  0  0  0  0
 20 47  1  0  0  0  0
 21 23  1  0  0  0  0
 21 48  1  0  0  0  0
 22 23  2  0  0  0  0
 24 49  1  0  0  0  0
 24 50  1  0  0  0  0
 25 26  1  0  0  0  0
 26 28  1  0  0  0  0
 28 51  1  0  0  0  0
 28 52  1  0  0  0  0
 28 53  1  0  0  0  0
 29 31  1  0  0  0  0
 30 54  1  0  0  0  0
 30 55  1  0  0  0  0
 30 56  1  0  0  0  0
 31 32  2  0  0  0  0
 32 33  1  0  0  0  0
 33 57  1  0  0  0  0
 33 58  1  0  0  0  0
 33 59  1  0  0  0  0
 34 60  1  0  0  0  0
M  END
> <PUBCHEM_COMPOUND_CID>
11562200

> <PUBCHEM_COMPOUND_CANONICALIZED>
1

> <PUBCHEM_CACTVS_COMPLEXITY>
696

> <PUBCHEM_CACTVS_HBOND_ACCEPTOR>
10

> <PUBCHEM_CACTVS_HBOND_DONOR>
0

> <PUBCHEM_CACTVS_ROTATABLE_BOND>
7

> <PUBCHEM_CACTVS_SUBSKEYS>
AAADceB7sYBAAAAAAAAAAAAAAAAAAWLFgAAwAAAABYAAAFgB/gAAHwQIAAAADAzF3xa31rcMFEiqA6dz9ASS2Ct/YrAV2CG/bNiOLrLk/buPOSjkzBPY6YeY2bKOqAABQAAQEABQAAKAACAgAAAAAAAAAA==

> <PUBCHEM_IUPAC_OPENEYE_NAME>
2-(1,1-difluoroethyl)-7-[3-[[4-methyl-5-(4-methyloxazol-5-yl)-1,2,4-triazol-3-yl]sulfanyl]propyl]-5,6,8,9-tetrahydrooxazolo[4,5-h][3]benzazepine

> <PUBCHEM_IUPAC_CAS_NAME>
2-(1,1-difluoroethyl)-7-[3-[[4-methyl-5-(4-methyl-5-oxazolyl)-1,2,4-triazol-3-yl]thio]propyl]-5,6,8,9-tetrahydrooxazolo[4,5-h][3]benzazepine

> <PUBCHEM_IUPAC_NAME_MARKUP>
2-(1,1-difluoroethyl)-7-[3-[[4-methyl-5-(4-methyl-1,3-oxazol-5-yl)-1,2,4-triazol-3-yl]sulfanyl]propyl]-5,6,8,9-tetrahydro-[1,3]oxazolo[4,5-h][3]benzazepine

> <PUBCHEM_IUPAC_NAME>
2-(1,1-difluoroethyl)-7-[3-[[4-methyl-5-(4-methyl-1,3-oxazol-5-yl)-1,2,4-triazol-3-yl]sulfanyl]propyl]-5,6,8,9-tetrahydro-[1,3]oxazolo[4,5-h][3]benzazepine

> <PUBCHEM_IUPAC_SYSTEMATIC_NAME>
2-[1,1-bis(fluoranyl)ethyl]-7-[3-[[4-methyl-5-(4-methyl-1,3-oxazol-5-yl)-1,2,4-triazol-3-yl]sulfanyl]propyl]-5,6,8,9-tetrahydro-[1,3]oxazolo[4,5-h][3]benzazepine

> <PUBCHEM_IUPAC_TRADITIONAL_NAME>
2-(1,1-difluoroethyl)-7-[3-[[4-methyl-5-(4-methyloxazol-5-yl)-1,2,4-triazol-3-yl]thio]propyl]-5,6,8,9-tetrahydrooxazolo[4,5-h][3]benzazepine

> <PUBCHEM_IUPAC_INCHI>
InChI=1S/C23H26F2N6O2S/c1-14-19(32-13-26-14)20-28-29-22(30(20)3)34-10-4-7-31-8-5-15-11-17-18(12-16(15)6-9-31)33-21(27-17)23(2,24)25/h11-13H,4-10H2,1-3H3

> <PUBCHEM_IUPAC_INCHIKEY>
KGDPFNITOFAOLP-UHFFFAOYSA-N

> <PUBCHEM_XLOGP3_AA>
3.9

> <PUBCHEM_EXACT_MASS>
488.18060159

> <PUBCHEM_MOLECULAR_FORMULA>
C23H26F2N6O2S

> <PUBCHEM_MOLECULAR_WEIGHT>
488.6

> <PUBCHEM_OPENEYE_CAN_SMILES>
CC1=C(OC=N1)C2=NN=C(N2C)SCCCN3CCC4=CC5=C(C=C4CC3)OC(=N5)C(C)(F)F

> <PUBCHEM_OPENEYE_ISO_SMILES>
CC1=C(OC=N1)C2=NN=C(N2C)SCCCN3CCC4=CC5=C(C=C4CC3)OC(=N5)C(C)(F)F

> <PUBCHEM_CACTVS_TPSA>
111

> <PUBCHEM_MONOISOTOPIC_WEIGHT>
488.18060159

> <PUBCHEM_TOTAL_CHARGE>
0

> <PUBCHEM_HEAVY_ATOM_COUNT>
34

> <PUBCHEM_ATOM_DEF_STEREO_COUNT>
0

> <PUBCHEM_ATOM_UDEF_STEREO_COUNT>
0

> <PUBCHEM_BOND_DEF_STEREO_COUNT>
0

> <PUBCHEM_BOND_UDEF_STEREO_COUNT>
0

> <PUBCHEM_ISOTOPIC_ATOM_COUNT>
0

> <PUBCHEM_COMPONENT_COUNT>
1

> <PUBCHEM_CACTVS_TAUTO_COUNT>
-1

> <PUBCHEM_COORDINATE_TYPE>
1
5
255

> <PUBCHEM_BONDANNOTATIONS>
10  29  8
11  32  8
11  34  8
16  17  8
16  20  8
17  21  8
20  22  8
21  23  8
22  23  8
31  32  8
4  22  8
4  25  8
5  31  8
5  34  8
7  23  8
7  25  8
8  27  8
8  29  8
9  10  8
9  27  8

$$$$
