11696910
  -OEChem-09292322272D

 41 44  0     0  0  0  0  0  0999 V2000
   11.6279    1.7990    0.0000 Cl  0  0  0  0  0  0  0  0  0  0  0  0
   10.6279    3.5311    0.0000 Cl  0  0  0  0  0  0  0  0  0  0  0  0
    2.0000   -3.5311    0.0000 Cl  0  0  0  0  0  0  0  0  0  0  0  0
    7.6279   -1.6651    0.0000 N   0  0  0  0  0  0  0  0  0  0  0  0
    8.6279    0.0670    0.0000 N   0  0  0  0  0  0  0  0  0  0  0  0
    5.5443   -1.7264    0.0000 N   0  0  0  0  0  0  0  0  0  0  0  0
    4.5981   -3.0311    0.0000 N   0  0  0  0  0  0  0  0  0  0  0  0
    3.7320   -3.5311    0.0000 N   0  0  0  0  0  0  0  0  0  0  0  0
    7.1279   -0.7990    0.0000 C   0  0  0  0  0  0  0  0  0  0  0  0
    8.6279   -1.6651    0.0000 C   0  0  0  0  0  0  0  0  0  0  0  0
    7.6279    0.0670    0.0000 C   0  0  0  0  0  0  0  0  0  0  0  0
    9.1279   -0.7990    0.0000 C   0  0  0  0  0  0  0  0  0  0  0  0
    7.1279   -2.5311    0.0000 C   0  0  0  0  0  0  0  0  0  0  0  0
    9.1279    0.9330    0.0000 C   0  0  0  0  0  0  0  0  0  0  0  0
    6.1279   -2.5311    0.0000 C   0  0  0  0  0  0  0  0  0  0  0  0
   10.1279    0.9330    0.0000 C   0  0  0  0  0  0  0  0  0  0  0  0
    8.6279    1.7990    0.0000 C   0  0  0  0  0  0  0  0  0  0  0  0
    5.5443   -3.3358    0.0000 C   0  0  0  0  0  0  0  0  0  0  0  0
    4.5981   -2.0311    0.0000 C   0  0  0  0  0  0  0  0  0  0  0  0
   10.6279    1.7990    0.0000 C   0  0  0  0  0  0  0  0  0  0  0  0
    9.1279    2.6651    0.0000 C   0  0  0  0  0  0  0  0  0  0  0  0
   10.1279    2.6651    0.0000 C   0  0  0  0  0  0  0  0  0  0  0  0
    3.7320   -1.5311    0.0000 C   0  0  0  0  0  0  0  0  0  0  0  0
    2.8660   -2.0311    0.0000 C   0  0  0  0  0  0  0  0  0  0  0  0
    2.8660   -3.0311    0.0000 C   0  0  0  0  0  0  0  0  0  0  0  0
    6.6530   -0.4005    0.0000 H   0  0  0  0  0  0  0  0  0  0  0  0
    6.6530   -1.1976    0.0000 H   0  0  0  0  0  0  0  0  0  0  0  0
    8.5202   -2.2756    0.0000 H   0  0  0  0  0  0  0  0  0  0  0  0
    9.2105   -1.8771    0.0000 H   0  0  0  0  0  0  0  0  0  0  0  0
    7.7356    0.6776    0.0000 H   0  0  0  0  0  0  0  0  0  0  0  0
    7.0453    0.2790    0.0000 H   0  0  0  0  0  0  0  0  0  0  0  0
    9.6028   -1.1976    0.0000 H   0  0  0  0  0  0  0  0  0  0  0  0
    9.6028   -0.4005    0.0000 H   0  0  0  0  0  0  0  0  0  0  0  0
    7.0202   -3.1417    0.0000 H   0  0  0  0  0  0  0  0  0  0  0  0
    7.7105   -2.7431    0.0000 H   0  0  0  0  0  0  0  0  0  0  0  0
    5.7369   -3.9251    0.0000 H   0  0  0  0  0  0  0  0  0  0  0  0
   10.4379    0.3961    0.0000 H   0  0  0  0  0  0  0  0  0  0  0  0
    8.0079    1.7990    0.0000 H   0  0  0  0  0  0  0  0  0  0  0  0
    8.8179    3.2020    0.0000 H   0  0  0  0  0  0  0  0  0  0  0  0
    3.7320   -0.9111    0.0000 H   0  0  0  0  0  0  0  0  0  0  0  0
    2.3291   -1.7211    0.0000 H   0  0  0  0  0  0  0  0  0  0  0  0
  1 20  1  0  0  0  0
  2 22  1  0  0  0  0
  3 25  1  0  0  0  0
  4  9  1  0  0  0  0
  4 10  1  0  0  0  0
  4 13  1  0  0  0  0
  5 11  1  0  0  0  0
  5 12  1  0  0  0  0
  5 14  1  0  0  0  0
  6 15  1  0  0  0  0
  6 19  2  0  0  0  0
  7  8  1  0  0  0  0
  7 18  1  0  0  0  0
  7 19  1  0  0  0  0
  8 25  2  0  0  0  0
  9 11  1  0  0  0  0
  9 26  1  0  0  0  0
  9 27  1  0  0  0  0
 10 12  1  0  0  0  0
 10 28  1  0  0  0  0
 10 29  1  0  0  0  0
 11 30  1  0  0  0  0
 11 31  1  0  0  0  0
 12 32  1  0  0  0  0
 12 33  1  0  0  0  0
 13 15  1  0  0  0  0
 13 34  1  0  0  0  0
 13 35  1  0  0  0  0
 14 16  2  0  0  0  0
 14 17  1  0  0  0  0
 15 18  2  0  0  0  0
 16 20  1  0  0  0  0
 16 37  1  0  0  0  0
 17 21  2  0  0  0  0
 17 38  1  0  0  0  0
 18 36  1  0  0  0  0
 19 23  1  0  0  0  0
 20 22  2  0  0  0  0
 21 22  1  0  0  0  0
 21 39  1  0  0  0  0
 23 24  2  0  0  0  0
 23 40  1  0  0  0  0
 24 25  1  0  0  0  0
 24 41  1  0  0  0  0
M  END
> <PUBCHEM_COMPOUND_CID>
11696910

> <PUBCHEM_COMPOUND_CANONICALIZED>
1

> <PUBCHEM_CACTVS_COMPLEXITY>
448

> <PUBCHEM_CACTVS_HBOND_ACCEPTOR>
4

> <PUBCHEM_CACTVS_HBOND_DONOR>
0

> <PUBCHEM_CACTVS_ROTATABLE_BOND>
3

> <PUBCHEM_CACTVS_SUBSKEYS>
AAADceB7gAAGAAAAAAAAAAAAAAAAAWAAAAA8WIAAAAAAAFgB8AAAHAIIAAAACArBFyQ98J8IEACiATZnZACShC8xl6Ad2mA4dpiIaOLB25GUoAhoiALIyCcQAAAAAABAAAIAAAQAAIAABAAACAAAAAAAAA==

> <PUBCHEM_IUPAC_OPENEYE_NAME>
6-chloro-2-[[4-(3,4-dichlorophenyl)piperazin-1-yl]methyl]imidazo[1,2-b]pyridazine

> <PUBCHEM_IUPAC_CAS_NAME>
6-chloro-2-[[4-(3,4-dichlorophenyl)-1-piperazinyl]methyl]imidazo[1,2-b]pyridazine

> <PUBCHEM_IUPAC_NAME_MARKUP>
6-chloro-2-[[4-(3,4-dichlorophenyl)piperazin-1-yl]methyl]imidazo[1,2-b]pyridazine

> <PUBCHEM_IUPAC_NAME>
6-chloro-2-[[4-(3,4-dichlorophenyl)piperazin-1-yl]methyl]imidazo[1,2-b]pyridazine

> <PUBCHEM_IUPAC_SYSTEMATIC_NAME>
6-chloranyl-2-[[4-(3,4-dichlorophenyl)piperazin-1-yl]methyl]imidazo[1,2-b]pyridazine

> <PUBCHEM_IUPAC_TRADITIONAL_NAME>
6-chloro-2-[[4-(3,4-dichlorophenyl)piperazino]methyl]imidazo[1,2-b]pyridazine

> <PUBCHEM_IUPAC_INCHI>
InChI=1S/C17H16Cl3N5/c18-14-2-1-13(9-15(14)19)24-7-5-23(6-8-24)10-12-11-25-17(21-12)4-3-16(20)22-25/h1-4,9,11H,5-8,10H2

> <PUBCHEM_IUPAC_INCHIKEY>
YJBGSZUYOGPUMC-UHFFFAOYSA-N

> <PUBCHEM_XLOGP3_AA>
4

> <PUBCHEM_EXACT_MASS>
395.047129

> <PUBCHEM_MOLECULAR_FORMULA>
C17H16Cl3N5

> <PUBCHEM_MOLECULAR_WEIGHT>
396.7

> <PUBCHEM_OPENEYE_CAN_SMILES>
C1CN(CCN1CC2=CN3C(=N2)C=CC(=N3)Cl)C4=CC(=C(C=C4)Cl)Cl

> <PUBCHEM_OPENEYE_ISO_SMILES>
C1CN(CCN1CC2=CN3C(=N2)C=CC(=N3)Cl)C4=CC(=C(C=C4)Cl)Cl

> <PUBCHEM_CACTVS_TPSA>
36.7

> <PUBCHEM_MONOISOTOPIC_WEIGHT>
395.047129

> <PUBCHEM_TOTAL_CHARGE>
0

> <PUBCHEM_HEAVY_ATOM_COUNT>
25

> <PUBCHEM_ATOM_DEF_STEREO_COUNT>
0

> <PUBCHEM_ATOM_UDEF_STEREO_COUNT>
0

> <PUBCHEM_BOND_DEF_STEREO_COUNT>
0

> <PUBCHEM_BOND_UDEF_STEREO_COUNT>
0

> <PUBCHEM_ISOTOPIC_ATOM_COUNT>
0

> <PUBCHEM_COMPONENT_COUNT>
1

> <PUBCHEM_CACTVS_TAUTO_COUNT>
-1

> <PUBCHEM_COORDINATE_TYPE>
1
5
255

> <PUBCHEM_BONDANNOTATIONS>
14  16  8
14  17  8
15  18  8
16  20  8
17  21  8
19  23  8
20  22  8
21  22  8
23  24  8
24  25  8
6  15  8
6  19  8
7  18  8
7  19  8
7  8  8
8  25  8

$$$$
