60165418
  -OEChem-09292322322D

 48 51  0     0  0  0  0  0  0999 V2000
    4.6783    1.6038    0.0000 S   0  0  0  0  0  0  0  0  0  0  0  0
    9.2619   -0.9330    0.0000 N   0  0  0  0  0  0  0  0  0  0  0  0
   11.2619   -0.9330    0.0000 N   0  0  0  0  0  0  0  0  0  0  0  0
   12.7619   -1.7990    0.0000 N   0  0  0  0  0  0  0  0  0  0  0  0
   12.7619   -0.0670    0.0000 N   0  0  0  0  0  0  0  0  0  0  0  0
    4.6783   -0.0057    0.0000 N   0  0  0  0  0  0  0  0  0  0  0  0
    9.7619   -1.7990    0.0000 C   0  0  0  0  0  0  0  0  0  0  0  0
    9.7619   -0.0670    0.0000 C   0  0  0  0  0  0  0  0  0  0  0  0
    8.2619   -0.9330    0.0000 C   0  0  0  0  0  0  0  0  0  0  0  0
   10.7619   -1.7990    0.0000 C   0  0  0  0  0  0  0  0  0  0  0  0
   10.7619   -0.0670    0.0000 C   0  0  0  0  0  0  0  0  0  0  0  0
    7.7619   -0.0670    0.0000 C   0  0  0  0  0  0  0  0  0  0  0  0
    6.7619   -0.0670    0.0000 C   0  0  0  0  0  0  0  0  0  0  0  0
    6.2619    0.7990    0.0000 C   0  0  0  0  0  0  0  0  0  0  0  0
   12.2619   -0.9330    0.0000 C   0  0  0  0  0  0  0  0  0  0  0  0
    5.2619    0.7990    0.0000 C   0  0  0  0  0  0  0  0  0  0  0  0
    3.7320    1.2990    0.0000 C   0  0  0  0  0  0  0  0  0  0  0  0
    3.7320    0.2990    0.0000 C   0  0  0  0  0  0  0  0  0  0  0  0
   13.7619   -0.0670    0.0000 C   0  0  0  0  0  0  0  0  0  0  0  0
   13.7619   -1.7990    0.0000 C   0  0  0  0  0  0  0  0  0  0  0  0
   14.2619   -0.9330    0.0000 C   0  0  0  0  0  0  0  0  0  0  0  0
    2.8660    1.7990    0.0000 C   0  0  0  0  0  0  0  0  0  0  0  0
    2.8660   -0.2010    0.0000 C   0  0  0  0  0  0  0  0  0  0  0  0
    2.0000    1.2990    0.0000 C   0  0  0  0  0  0  0  0  0  0  0  0
    2.0000    0.2990    0.0000 C   0  0  0  0  0  0  0  0  0  0  0  0
    9.1793   -2.0111    0.0000 H   0  0  0  0  0  0  0  0  0  0  0  0
    9.8695   -2.4096    0.0000 H   0  0  0  0  0  0  0  0  0  0  0  0
    9.8695    0.5436    0.0000 H   0  0  0  0  0  0  0  0  0  0  0  0
    9.1793    0.1451    0.0000 H   0  0  0  0  0  0  0  0  0  0  0  0
    7.6793   -1.1451    0.0000 H   0  0  0  0  0  0  0  0  0  0  0  0
    8.3695   -1.5436    0.0000 H   0  0  0  0  0  0  0  0  0  0  0  0
   10.6542   -2.4096    0.0000 H   0  0  0  0  0  0  0  0  0  0  0  0
   11.3445   -2.0111    0.0000 H   0  0  0  0  0  0  0  0  0  0  0  0
   11.3445    0.1451    0.0000 H   0  0  0  0  0  0  0  0  0  0  0  0
   10.6542    0.5436    0.0000 H   0  0  0  0  0  0  0  0  0  0  0  0
    8.3445    0.1451    0.0000 H   0  0  0  0  0  0  0  0  0  0  0  0
    7.6542    0.5436    0.0000 H   0  0  0  0  0  0  0  0  0  0  0  0
    6.1793   -0.2790    0.0000 H   0  0  0  0  0  0  0  0  0  0  0  0
    6.8695   -0.6776    0.0000 H   0  0  0  0  0  0  0  0  0  0  0  0
    6.8445    1.0111    0.0000 H   0  0  0  0  0  0  0  0  0  0  0  0
    6.1542    1.4096    0.0000 H   0  0  0  0  0  0  0  0  0  0  0  0
   14.0719    0.4699    0.0000 H   0  0  0  0  0  0  0  0  0  0  0  0
   14.0719   -2.3360    0.0000 H   0  0  0  0  0  0  0  0  0  0  0  0
   14.8819   -0.9330    0.0000 H   0  0  0  0  0  0  0  0  0  0  0  0
    2.8660    2.4190    0.0000 H   0  0  0  0  0  0  0  0  0  0  0  0
    2.8660   -0.8210    0.0000 H   0  0  0  0  0  0  0  0  0  0  0  0
    1.4631    1.6090    0.0000 H   0  0  0  0  0  0  0  0  0  0  0  0
    1.4631   -0.0110    0.0000 H   0  0  0  0  0  0  0  0  0  0  0  0
  1 16  1  0  0  0  0
  1 17  1  0  0  0  0
  2  7  1  0  0  0  0
  2  8  1  0  0  0  0
  2  9  1  0  0  0  0
  3 10  1  0  0  0  0
  3 11  1  0  0  0  0
  3 15  1  0  0  0  0
  4 15  2  0  0  0  0
  4 20  1  0  0  0  0
  5 15  1  0  0  0  0
  5 19  2  0  0  0  0
  6 16  2  0  0  0  0
  6 18  1  0  0  0  0
  7 10  1  0  0  0  0
  7 26  1  0  0  0  0
  7 27  1  0  0  0  0
  8 11  1  0  0  0  0
  8 28  1  0  0  0  0
  8 29  1  0  0  0  0
  9 12  1  0  0  0  0
  9 30  1  0  0  0  0
  9 31  1  0  0  0  0
 10 32  1  0  0  0  0
 10 33  1  0  0  0  0
 11 34  1  0  0  0  0
 11 35  1  0  0  0  0
 12 13  1  0  0  0  0
 12 36  1  0  0  0  0
 12 37  1  0  0  0  0
 13 14  1  0  0  0  0
 13 38  1  0  0  0  0
 13 39  1  0  0  0  0
 14 16  1  0  0  0  0
 14 40  1  0  0  0  0
 14 41  1  0  0  0  0
 17 18  1  0  0  0  0
 17 22  2  0  0  0  0
 18 23  2  0  0  0  0
 19 21  1  0  0  0  0
 19 42  1  0  0  0  0
 20 21  2  0  0  0  0
 20 43  1  0  0  0  0
 21 44  1  0  0  0  0
 22 24  1  0  0  0  0
 22 45  1  0  0  0  0
 23 25  1  0  0  0  0
 23 46  1  0  0  0  0
 24 25  2  0  0  0  0
 24 47  1  0  0  0  0
 25 48  1  0  0  0  0
M  END
> <PUBCHEM_COMPOUND_CID>
60165418

> <PUBCHEM_COMPOUND_CANONICALIZED>
1

> <PUBCHEM_CACTVS_COMPLEXITY>
395

> <PUBCHEM_CACTVS_HBOND_ACCEPTOR>
6

> <PUBCHEM_CACTVS_HBOND_DONOR>
0

> <PUBCHEM_CACTVS_ROTATABLE_BOND>
6

> <PUBCHEM_CACTVS_SUBSKEYS>
AAADceB7gABAAAAAAAAAAAAAAAAAAWAAAAA8WIAAAAAAAFgB/AAAHAQAAAAACAjBVgQ90bcIEAikATRnZACD8KlxCrhJ2Dw4ZJiIaKLg2dGUJAhogALoyCcQAAAAAAAAAAAAAQAAAAAAAAACAAAAAAAAAA==

> <PUBCHEM_IUPAC_OPENEYE_NAME>
2-[4-(4-pyrimidin-2-ylpiperazin-1-yl)butyl]-1,3-benzothiazole

> <PUBCHEM_IUPAC_CAS_NAME>
2-[4-[4-(2-pyrimidinyl)-1-piperazinyl]butyl]-1,3-benzothiazole

> <PUBCHEM_IUPAC_NAME_MARKUP>
2-[4-(4-pyrimidin-2-ylpiperazin-1-yl)butyl]-1,3-benzothiazole

> <PUBCHEM_IUPAC_NAME>
2-[4-(4-pyrimidin-2-ylpiperazin-1-yl)butyl]-1,3-benzothiazole

> <PUBCHEM_IUPAC_SYSTEMATIC_NAME>
2-[4-(4-pyrimidin-2-ylpiperazin-1-yl)butyl]-1,3-benzothiazole

> <PUBCHEM_IUPAC_TRADITIONAL_NAME>
2-[4-[4-(2-pyrimidyl)piperazino]butyl]-1,3-benzothiazole

> <PUBCHEM_IUPAC_INCHI>
InChI=1S/C19H23N5S/c1-2-7-17-16(6-1)22-18(25-17)8-3-4-11-23-12-14-24(15-13-23)19-20-9-5-10-21-19/h1-2,5-7,9-10H,3-4,8,11-15H2

> <PUBCHEM_IUPAC_INCHIKEY>
LOWWSZHAZVDMAY-UHFFFAOYSA-N

> <PUBCHEM_XLOGP3_AA>
3.6

> <PUBCHEM_EXACT_MASS>
353.16741693

> <PUBCHEM_MOLECULAR_FORMULA>
C19H23N5S

> <PUBCHEM_MOLECULAR_WEIGHT>
353.5

> <PUBCHEM_OPENEYE_CAN_SMILES>
C1CN(CCN1CCCCC2=NC3=CC=CC=C3S2)C4=NC=CC=N4

> <PUBCHEM_OPENEYE_ISO_SMILES>
C1CN(CCN1CCCCC2=NC3=CC=CC=C3S2)C4=NC=CC=N4

> <PUBCHEM_CACTVS_TPSA>
73.4

> <PUBCHEM_MONOISOTOPIC_WEIGHT>
353.16741693

> <PUBCHEM_TOTAL_CHARGE>
0

> <PUBCHEM_HEAVY_ATOM_COUNT>
25

> <PUBCHEM_ATOM_DEF_STEREO_COUNT>
0

> <PUBCHEM_ATOM_UDEF_STEREO_COUNT>
0

> <PUBCHEM_BOND_DEF_STEREO_COUNT>
0

> <PUBCHEM_BOND_UDEF_STEREO_COUNT>
0

> <PUBCHEM_ISOTOPIC_ATOM_COUNT>
0

> <PUBCHEM_COMPONENT_COUNT>
1

> <PUBCHEM_CACTVS_TAUTO_COUNT>
-1

> <PUBCHEM_COORDINATE_TYPE>
1
5
255

> <PUBCHEM_BONDANNOTATIONS>
1  16  8
1  17  8
17  18  8
17  22  8
18  23  8
19  21  8
20  21  8
22  24  8
23  25  8
24  25  8
4  15  8
4  20  8
5  15  8
5  19  8
6  16  8
6  18  8

$$$$
