238317
  -OEChem-09292322482D

 29 30  0     0  0  0  0  0  0999 V2000
    3.5827   -0.3988    0.0000 N   0  0  0  0  0  0  0  0  0  0  0  0
    7.0468   -0.3988    0.0000 N   0  0  0  0  0  0  0  0  0  0  0  0
    3.4782   -1.3933    0.0000 C   0  0  0  0  0  0  0  0  0  0  0  0
    2.6691    0.0080    0.0000 C   0  0  0  0  0  0  0  0  0  0  0  0
    2.5000   -1.6012    0.0000 C   0  0  0  0  0  0  0  0  0  0  0  0
    2.0000   -0.7352    0.0000 C   0  0  0  0  0  0  0  0  0  0  0  0
    4.4487    0.1012    0.0000 C   0  0  0  0  0  0  0  0  0  0  0  0
    5.3147   -0.3988    0.0000 C   0  0  0  0  0  0  0  0  0  0  0  0
    6.1808    0.1012    0.0000 C   0  0  0  0  0  0  0  0  0  0  0  0
    6.1808    1.1012    0.0000 C   0  0  0  0  0  0  0  0  0  0  0  0
    7.0468    1.6012    0.0000 C   0  0  0  0  0  0  0  0  0  0  0  0
    7.9128    0.1012    0.0000 C   0  0  0  0  0  0  0  0  0  0  0  0
    7.9128    1.1012    0.0000 C   0  0  0  0  0  0  0  0  0  0  0  0
    3.5430   -2.0099    0.0000 H   0  0  0  0  0  0  0  0  0  0  0  0
    4.0982   -1.3933    0.0000 H   0  0  0  0  0  0  0  0  0  0  0  0
    2.9791    0.5449    0.0000 H   0  0  0  0  0  0  0  0  0  0  0  0
    2.1675    0.3724    0.0000 H   0  0  0  0  0  0  0  0  0  0  0  0
    1.9336   -1.8534    0.0000 H   0  0  0  0  0  0  0  0  0  0  0  0
    2.6916   -2.1909    0.0000 H   0  0  0  0  0  0  0  0  0  0  0  0
    1.5851   -0.2744    0.0000 H   0  0  0  0  0  0  0  0  0  0  0  0
    1.4984   -1.0996    0.0000 H   0  0  0  0  0  0  0  0  0  0  0  0
    4.8472    0.5762    0.0000 H   0  0  0  0  0  0  0  0  0  0  0  0
    4.0502    0.5762    0.0000 H   0  0  0  0  0  0  0  0  0  0  0  0
    4.9162   -0.8737    0.0000 H   0  0  0  0  0  0  0  0  0  0  0  0
    5.7133   -0.8737    0.0000 H   0  0  0  0  0  0  0  0  0  0  0  0
    5.6438    1.4112    0.0000 H   0  0  0  0  0  0  0  0  0  0  0  0
    7.0468    2.2212    0.0000 H   0  0  0  0  0  0  0  0  0  0  0  0
    8.4497   -0.2088    0.0000 H   0  0  0  0  0  0  0  0  0  0  0  0
    8.4497    1.4112    0.0000 H   0  0  0  0  0  0  0  0  0  0  0  0
  1  3  1  0  0  0  0
  1  4  1  0  0  0  0
  1  7  1  0  0  0  0
  2  9  1  0  0  0  0
  2 12  2  0  0  0  0
  3  5  1  0  0  0  0
  3 14  1  0  0  0  0
  3 15  1  0  0  0  0
  4  6  1  0  0  0  0
  4 16  1  0  0  0  0
  4 17  1  0  0  0  0
  5  6  1  0  0  0  0
  5 18  1  0  0  0  0
  5 19  1  0  0  0  0
  6 20  1  0  0  0  0
  6 21  1  0  0  0  0
  7  8  1  0  0  0  0
  7 22  1  0  0  0  0
  7 23  1  0  0  0  0
  8  9  1  0  0  0  0
  8 24  1  0  0  0  0
  8 25  1  0  0  0  0
  9 10  2  0  0  0  0
 10 11  1  0  0  0  0
 10 26  1  0  0  0  0
 11 13  2  0  0  0  0
 11 27  1  0  0  0  0
 12 13  1  0  0  0  0
 12 28  1  0  0  0  0
 13 29  1  0  0  0  0
M  END
> <PUBCHEM_COMPOUND_CID>
238317

> <PUBCHEM_COMPOUND_CANONICALIZED>
1

> <PUBCHEM_CACTVS_COMPLEXITY>
141

> <PUBCHEM_CACTVS_HBOND_ACCEPTOR>
2

> <PUBCHEM_CACTVS_HBOND_DONOR>
0

> <PUBCHEM_CACTVS_ROTATABLE_BOND>
3

> <PUBCHEM_CACTVS_SUBSKEYS>
AAADceBzAAAAAAAAAAAAAAAAAAAAAWAAAAAsAAAAAAAAAAABgAAAHAAAAAAACAjBFgQ8gJMIEACgATRnRACCgCAxAiAI2CA4ZJgIIOLA0ZGEIAhggADIyAcQgAAAAAAAAAAAAAAAAAAAAAAAAAAAAAAAAA==

> <PUBCHEM_IUPAC_OPENEYE_NAME>
2-(2-pyrrolidin-1-ylethyl)pyridine

> <PUBCHEM_IUPAC_CAS_NAME>
2-[2-(1-pyrrolidinyl)ethyl]pyridine

> <PUBCHEM_IUPAC_NAME_MARKUP>
2-(2-pyrrolidin-1-ylethyl)pyridine

> <PUBCHEM_IUPAC_NAME>
2-(2-pyrrolidin-1-ylethyl)pyridine

> <PUBCHEM_IUPAC_SYSTEMATIC_NAME>
2-(2-pyrrolidin-1-ylethyl)pyridine

> <PUBCHEM_IUPAC_TRADITIONAL_NAME>
2-(2-pyrrolidinoethyl)pyridine

> <PUBCHEM_IUPAC_INCHI>
InChI=1S/C11H16N2/c1-2-7-12-11(5-1)6-10-13-8-3-4-9-13/h1-2,5,7H,3-4,6,8-10H2

> <PUBCHEM_IUPAC_INCHIKEY>
OXEFHEYEQUISKC-UHFFFAOYSA-N

> <PUBCHEM_XLOGP3>
1.3

> <PUBCHEM_EXACT_MASS>
176.131348519

> <PUBCHEM_MOLECULAR_FORMULA>
C11H16N2

> <PUBCHEM_MOLECULAR_WEIGHT>
176.26

> <PUBCHEM_OPENEYE_CAN_SMILES>
C1CCN(C1)CCC2=CC=CC=N2

> <PUBCHEM_OPENEYE_ISO_SMILES>
C1CCN(C1)CCC2=CC=CC=N2

> <PUBCHEM_CACTVS_TPSA>
16.1

> <PUBCHEM_MONOISOTOPIC_WEIGHT>
176.131348519

> <PUBCHEM_TOTAL_CHARGE>
0

> <PUBCHEM_HEAVY_ATOM_COUNT>
13

> <PUBCHEM_ATOM_DEF_STEREO_COUNT>
0

> <PUBCHEM_ATOM_UDEF_STEREO_COUNT>
0

> <PUBCHEM_BOND_DEF_STEREO_COUNT>
0

> <PUBCHEM_BOND_UDEF_STEREO_COUNT>
0

> <PUBCHEM_ISOTOPIC_ATOM_COUNT>
0

> <PUBCHEM_COMPONENT_COUNT>
1

> <PUBCHEM_CACTVS_TAUTO_COUNT>
-1

> <PUBCHEM_COORDINATE_TYPE>
1
5
255

> <PUBCHEM_BONDANNOTATIONS>
10  11  8
11  13  8
12  13  8
2  12  8
2  9  8
9  10  8

$$$$
