166630416
  -OEChem-09292322442D

 59 63  0     1  0  0  0  0  0999 V2000
    2.0000    4.8928    0.0000 Cl  0  0  0  0  0  0  0  0  0  0  0  0
    7.1279    3.8928    0.0000 S   0  0  0  0  0  0  0  0  0  0  0  0
    5.5443    3.0880    0.0000 S   0  0  0  0  0  0  0  0  0  0  0  0
   11.0012   -5.6480    0.0000 F   0  0  0  0  0  0  0  0  0  0  0  0
    7.1279    2.8928    0.0000 O   0  0  0  0  0  0  0  0  0  0  0  0
    7.1279    4.8928    0.0000 O   0  0  0  0  0  0  0  0  0  0  0  0
   11.9048   -2.2153    0.0000 O   0  0  0  0  0  0  0  0  0  0  0  0
    8.9643    1.4440    0.0000 N   0  0  3  0  0  0  0  0  0  0  0  0
    8.1279    3.8928    0.0000 N   0  0  0  0  0  0  0  0  0  0  0  0
   11.3184   -1.4126    0.0000 N   0  0  0  0  0  0  0  0  0  0  0  0
    9.8303    1.9440    0.0000 C   0  0  2  0  0  0  0  0  0  0  0  0
    8.6279    3.0267    0.0000 C   0  0  1  0  0  0  0  0  0  0  0  0
    9.6224    2.9222    0.0000 C   0  0  0  0  0  0  0  0  0  0  0  0
    8.2212    2.1132    0.0000 C   0  0  0  0  0  0  0  0  0  0  0  0
    8.8598    0.4495    0.0000 C   0  0  0  0  0  0  0  0  0  0  0  0
   10.7439    1.5373    0.0000 C   0  0  0  0  0  0  0  0  0  0  0  0
    9.6688   -0.1383    0.0000 C   0  0  0  0  0  0  0  0  0  0  0  0
    9.5643   -1.1328    0.0000 C   0  0  0  0  0  0  0  0  0  0  0  0
    6.1279    3.8928    0.0000 C   0  0  0  0  0  0  0  0  0  0  0  0
   10.3733   -1.7206    0.0000 C   0  0  0  0  0  0  0  0  0  0  0  0
    5.5443    4.6975    0.0000 C   0  0  0  0  0  0  0  0  0  0  0  0
    4.5981    4.3928    0.0000 C   0  0  0  0  0  0  0  0  0  0  0  0
    4.5981    3.3928    0.0000 C   0  0  0  0  0  0  0  0  0  0  0  0
   10.3724   -2.7146    0.0000 C   0  0  0  0  0  0  0  0  0  0  0  0
    5.8550    5.6480    0.0000 C   0  0  0  0  0  0  0  0  0  0  0  0
   11.3240   -3.0220    0.0000 C   0  0  0  0  0  0  0  0  0  0  0  0
    3.7320    4.8928    0.0000 C   0  0  0  0  0  0  0  0  0  0  0  0
    3.7320    2.8928    0.0000 C   0  0  0  0  0  0  0  0  0  0  0  0
    9.6304   -3.3851    0.0000 C   0  0  0  0  0  0  0  0  0  0  0  0
    2.8660    4.3928    0.0000 C   0  0  0  0  0  0  0  0  0  0  0  0
    2.8660    3.3928    0.0000 C   0  0  0  0  0  0  0  0  0  0  0  0
   11.5336   -3.9998    0.0000 C   0  0  0  0  0  0  0  0  0  0  0  0
    9.8400   -4.3628    0.0000 C   0  0  0  0  0  0  0  0  0  0  0  0
   10.7916   -4.6702    0.0000 C   0  0  0  0  0  0  0  0  0  0  0  0
    9.8628    1.3249    0.0000 H   0  0  0  0  0  0  0  0  0  0  0  0
    8.0087    2.9943    0.0000 H   0  0  0  0  0  0  0  0  0  0  0  0
   10.2390    2.9870    0.0000 H   0  0  0  0  0  0  0  0  0  0  0  0
    9.6224    3.5422    0.0000 H   0  0  0  0  0  0  0  0  0  0  0  0
    7.6842    2.4232    0.0000 H   0  0  0  0  0  0  0  0  0  0  0  0
    7.8567    1.6116    0.0000 H   0  0  0  0  0  0  0  0  0  0  0  0
    8.2638    0.6204    0.0000 H   0  0  0  0  0  0  0  0  0  0  0  0
    8.5880   -0.1077    0.0000 H   0  0  0  0  0  0  0  0  0  0  0  0
   10.4917    0.9709    0.0000 H   0  0  0  0  0  0  0  0  0  0  0  0
   11.3103    1.2851    0.0000 H   0  0  0  0  0  0  0  0  0  0  0  0
   10.9961    2.1037    0.0000 H   0  0  0  0  0  0  0  0  0  0  0  0
    8.4379    4.4297    0.0000 H   0  0  0  0  0  0  0  0  0  0  0  0
   10.2648   -0.3092    0.0000 H   0  0  0  0  0  0  0  0  0  0  0  0
    9.9406    0.4190    0.0000 H   0  0  0  0  0  0  0  0  0  0  0  0
    8.9683   -0.9619    0.0000 H   0  0  0  0  0  0  0  0  0  0  0  0
    9.2925   -1.6900    0.0000 H   0  0  0  0  0  0  0  0  0  0  0  0
    6.4443    5.4554    0.0000 H   0  0  0  0  0  0  0  0  0  0  0  0
    6.0476    6.2373    0.0000 H   0  0  0  0  0  0  0  0  0  0  0  0
    5.2656    5.8406    0.0000 H   0  0  0  0  0  0  0  0  0  0  0  0
    3.7320    5.5127    0.0000 H   0  0  0  0  0  0  0  0  0  0  0  0
    3.7320    2.2728    0.0000 H   0  0  0  0  0  0  0  0  0  0  0  0
    9.0405   -3.1945    0.0000 H   0  0  0  0  0  0  0  0  0  0  0  0
    2.3291    3.0828    0.0000 H   0  0  0  0  0  0  0  0  0  0  0  0
   12.1236   -4.1904    0.0000 H   0  0  0  0  0  0  0  0  0  0  0  0
    9.3800   -4.7785    0.0000 H   0  0  0  0  0  0  0  0  0  0  0  0
  1 30  1  0  0  0  0
  2  5  2  0  0  0  0
  2  6  2  0  0  0  0
  2  9  1  0  0  0  0
  2 19  1  0  0  0  0
  3 19  1  0  0  0  0
  3 23  1  0  0  0  0
  4 34  1  0  0  0  0
  7 10  1  0  0  0  0
  7 26  1  0  0  0  0
  8 11  1  0  0  0  0
  8 14  1  0  0  0  0
  8 15  1  0  0  0  0
 12  9  1  1  0  0  0
  9 46  1  0  0  0  0
 10 20  2  0  0  0  0
 11 13  1  0  0  0  0
 11 16  1  6  0  0  0
 11 35  1  0  0  0  0
 12 13  1  0  0  0  0
 12 14  1  0  0  0  0
 12 36  1  0  0  0  0
 13 37  1  0  0  0  0
 13 38  1  0  0  0  0
 14 39  1  0  0  0  0
 14 40  1  0  0  0  0
 15 17  1  0  0  0  0
 15 41  1  0  0  0  0
 15 42  1  0  0  0  0
 16 43  1  0  0  0  0
 16 44  1  0  0  0  0
 16 45  1  0  0  0  0
 17 18  1  0  0  0  0
 17 47  1  0  0  0  0
 17 48  1  0  0  0  0
 18 20  1  0  0  0  0
 18 49  1  0  0  0  0
 18 50  1  0  0  0  0
 19 21  2  0  0  0  0
 20 24  1  0  0  0  0
 21 22  1  0  0  0  0
 21 25  1  0  0  0  0
 22 23  2  0  0  0  0
 22 27  1  0  0  0  0
 23 28  1  0  0  0  0
 24 26  2  0  0  0  0
 24 29  1  0  0  0  0
 25 51  1  0  0  0  0
 25 52  1  0  0  0  0
 25 53  1  0  0  0  0
 26 32  1  0  0  0  0
 27 30  2  0  0  0  0
 27 54  1  0  0  0  0
 28 31  2  0  0  0  0
 28 55  1  0  0  0  0
 29 33  2  0  0  0  0
 29 56  1  0  0  0  0
 30 31  1  0  0  0  0
 31 57  1  0  0  0  0
 32 34  2  0  0  0  0
 32 58  1  0  0  0  0
 33 34  1  0  0  0  0
 33 59  1  0  0  0  0
M  END
> <PUBCHEM_COMPOUND_CID>
166630416

> <PUBCHEM_COMPOUND_CANONICALIZED>
1

> <PUBCHEM_CACTVS_COMPLEXITY>
818

> <PUBCHEM_CACTVS_HBOND_ACCEPTOR>
8

> <PUBCHEM_CACTVS_HBOND_DONOR>
1

> <PUBCHEM_CACTVS_ROTATABLE_BOND>
7

> <PUBCHEM_CACTVS_SUBSKEYS>
AAADceB7MQBkAAAAAAAAAAAAAAAAAWLEgAAwYAAAAAAAAFgB/gAAHwYUQAAADC7B3iwyh9NQAAqtA6RyQnDDAZAkLRBomLk+TtoIZrqh15OUMYBm0BmoyceYyOCOgAIAIAAMAAAABABAABgAAAAAAAAAAA==

> <PUBCHEM_IUPAC_OPENEYE_NAME>
5-chloro-N-[(3S,5S)-1-[3-(6-fluoro-1,2-benzoxazol-3-yl)propyl]-5-methyl-pyrrolidin-3-yl]-3-methyl-benzothiophene-2-sulfonamide

> <PUBCHEM_IUPAC_CAS_NAME>
5-chloro-N-[(3S,5S)-1-[3-(6-fluoro-1,2-benzoxazol-3-yl)propyl]-5-methyl-3-pyrrolidinyl]-3-methyl-1-benzothiophene-2-sulfonamide

> <PUBCHEM_IUPAC_NAME_MARKUP>
5-chloro-<I>N</I>-[(3<I>S</I>,5<I>S</I>)-1-[3-(6-fluoro-1,2-benzoxazol-3-yl)propyl]-5-methylpyrrolidin-3-yl]-3-methyl-1-benzothiophene-2-sulfonamide

> <PUBCHEM_IUPAC_NAME>
5-chloro-N-[(3S,5S)-1-[3-(6-fluoro-1,2-benzoxazol-3-yl)propyl]-5-methylpyrrolidin-3-yl]-3-methyl-1-benzothiophene-2-sulfonamide

> <PUBCHEM_IUPAC_SYSTEMATIC_NAME>
5-chloranyl-N-[(3S,5S)-1-[3-(6-fluoranyl-1,2-benzoxazol-3-yl)propyl]-5-methyl-pyrrolidin-3-yl]-3-methyl-1-benzothiophene-2-sulfonamide

> <PUBCHEM_IUPAC_TRADITIONAL_NAME>
5-chloro-N-[(3S,5S)-1-[3-(6-fluoroindoxazen-3-yl)propyl]-5-methyl-pyrrolidin-3-yl]-3-methyl-benzothiophene-2-sulfonamide

> <PUBCHEM_IUPAC_INCHI>
InChI=1S/C24H25ClFN3O3S2/c1-14-10-18(28-34(30,31)24-15(2)20-11-16(25)5-8-23(20)33-24)13-29(14)9-3-4-21-19-7-6-17(26)12-22(19)32-27-21/h5-8,11-12,14,18,28H,3-4,9-10,13H2,1-2H3/t14-,18-/m0/s1

> <PUBCHEM_IUPAC_INCHIKEY>
LAJYORAVGPKORL-KSSFIOAISA-N

> <PUBCHEM_XLOGP3_AA>
6.1

> <PUBCHEM_EXACT_MASS>
521.1009899

> <PUBCHEM_MOLECULAR_FORMULA>
C24H25ClFN3O3S2

> <PUBCHEM_MOLECULAR_WEIGHT>
522.1

> <PUBCHEM_OPENEYE_CAN_SMILES>
CC1CC(CN1CCCC2=NOC3=C2C=CC(=C3)F)NS(=O)(=O)C4=C(C5=C(S4)C=CC(=C5)Cl)C

> <PUBCHEM_OPENEYE_ISO_SMILES>
C[C@H]1C[C@@H](CN1CCCC2=NOC3=C2C=CC(=C3)F)NS(=O)(=O)C4=C(C5=C(S4)C=CC(=C5)Cl)C

> <PUBCHEM_CACTVS_TPSA>
112

> <PUBCHEM_MONOISOTOPIC_WEIGHT>
521.1009899

> <PUBCHEM_TOTAL_CHARGE>
0

> <PUBCHEM_HEAVY_ATOM_COUNT>
34

> <PUBCHEM_ATOM_DEF_STEREO_COUNT>
2

> <PUBCHEM_ATOM_UDEF_STEREO_COUNT>
0

> <PUBCHEM_BOND_DEF_STEREO_COUNT>
0

> <PUBCHEM_BOND_UDEF_STEREO_COUNT>
0

> <PUBCHEM_ISOTOPIC_ATOM_COUNT>
0

> <PUBCHEM_COMPONENT_COUNT>
1

> <PUBCHEM_CACTVS_TAUTO_COUNT>
-1

> <PUBCHEM_COORDINATE_TYPE>
1
5
255

> <PUBCHEM_BONDANNOTATIONS>
10  20  8
11  16  6
19  21  8
20  24  8
21  22  8
22  23  8
22  27  8
23  28  8
24  26  8
24  29  8
26  32  8
27  30  8
28  31  8
29  33  8
3  19  8
3  23  8
30  31  8
32  34  8
33  34  8
7  10  8
7  26  8
12  9  5

$$$$
