137651866
  -OEChem-09292322392D

 66 70  0     1  0  0  0  0  0999 V2000
    5.5322   -2.9536    0.0000 S   0  0  0  0  0  0  0  0  0  0  0  0
    4.9836    5.3963    0.0000 O   0  0  0  0  0  0  0  0  0  0  0  0
    5.1701    0.4915    0.0000 N   0  0  3  0  0  0  0  0  0  0  0  0
    4.1701    3.5692    0.0000 N   0  0  3  0  0  0  0  0  0  0  0  0
    7.1200   -3.7626    0.0000 N   0  0  0  0  0  0  0  0  0  0  0  0
    5.8110   -4.7137    0.0000 N   0  0  0  0  0  0  0  0  0  0  0  0
    6.6200   -5.3014    0.0000 N   0  0  0  0  0  0  0  0  0  0  0  0
    4.6701    2.0304    0.0000 C   0  0  3  0  0  0  0  0  0  0  0  0
    3.8611    1.4426    0.0000 C   0  0  0  0  0  0  0  0  0  0  0  0
    5.4791    1.4426    0.0000 C   0  0  0  0  0  0  0  0  0  0  0  0
    5.4791    2.6182    0.0000 C   0  0  0  0  0  0  0  0  0  0  0  0
    3.8611    2.6182    0.0000 C   0  0  0  0  0  0  0  0  0  0  0  0
    4.1701    0.4915    0.0000 C   0  0  0  0  0  0  0  0  0  0  0  0
    5.1701    3.5692    0.0000 C   0  0  0  0  0  0  0  0  0  0  0  0
    5.7579   -0.3175    0.0000 C   0  0  0  0  0  0  0  0  0  0  0  0
    3.5823    4.3782    0.0000 C   0  0  0  0  0  0  0  0  0  0  0  0
    5.3511   -1.2310    0.0000 C   0  0  0  0  0  0  0  0  0  0  0  0
    3.9890    5.2918    0.0000 C   0  0  0  0  0  0  0  0  0  0  0  0
    2.5878    4.2737    0.0000 C   0  0  0  0  0  0  0  0  0  0  0  0
    5.9389   -2.0400    0.0000 C   0  0  0  0  0  0  0  0  0  0  0  0
    3.4013    6.1008    0.0000 C   0  0  0  0  0  0  0  0  0  0  0  0
    2.0000    5.0827    0.0000 C   0  0  0  0  0  0  0  0  0  0  0  0
    2.4067    5.9963    0.0000 C   0  0  0  0  0  0  0  0  0  0  0  0
    5.3903    6.3098    0.0000 C   0  0  0  0  0  0  0  0  0  0  0  0
    6.1200   -3.7626    0.0000 C   0  0  0  0  0  0  0  0  0  0  0  0
    7.4290   -4.7137    0.0000 C   0  0  0  0  0  0  0  0  0  0  0  0
    7.7078   -2.9536    0.0000 C   0  0  0  0  0  0  0  0  0  0  0  0
    8.3800   -5.0227    0.0000 C   0  0  0  0  0  0  0  0  0  0  0  0
    9.1232   -4.3536    0.0000 C   0  0  0  0  0  0  0  0  0  0  0  0
    8.5880   -6.0008    0.0000 C   0  0  0  0  0  0  0  0  0  0  0  0
   10.0742   -4.6626    0.0000 C   0  0  0  0  0  0  0  0  0  0  0  0
    9.5390   -6.3098    0.0000 C   0  0  0  0  0  0  0  0  0  0  0  0
   10.2822   -5.6407    0.0000 C   0  0  0  0  0  0  0  0  0  0  0  0
    3.5511    1.9795    0.0000 H   0  0  0  0  0  0  0  0  0  0  0  0
    3.2947    1.1904    0.0000 H   0  0  0  0  0  0  0  0  0  0  0  0
    6.0455    1.1904    0.0000 H   0  0  0  0  0  0  0  0  0  0  0  0
    5.7891    1.9795    0.0000 H   0  0  0  0  0  0  0  0  0  0  0  0
    5.7891    2.0812    0.0000 H   0  0  0  0  0  0  0  0  0  0  0  0
    6.0455    2.8703    0.0000 H   0  0  0  0  0  0  0  0  0  0  0  0
    3.2947    2.8703    0.0000 H   0  0  0  0  0  0  0  0  0  0  0  0
    3.5511    2.0812    0.0000 H   0  0  0  0  0  0  0  0  0  0  0  0
    3.5636    0.3626    0.0000 H   0  0  0  0  0  0  0  0  0  0  0  0
    4.2349   -0.1251    0.0000 H   0  0  0  0  0  0  0  0  0  0  0  0
    5.7765    3.6981    0.0000 H   0  0  0  0  0  0  0  0  0  0  0  0
    5.1053    4.1858    0.0000 H   0  0  0  0  0  0  0  0  0  0  0  0
    6.2719   -0.6642    0.0000 H   0  0  0  0  0  0  0  0  0  0  0  0
    6.1886    0.1285    0.0000 H   0  0  0  0  0  0  0  0  0  0  0  0
    4.8371   -0.8843    0.0000 H   0  0  0  0  0  0  0  0  0  0  0  0
    4.9204   -1.6770    0.0000 H   0  0  0  0  0  0  0  0  0  0  0  0
    2.3356    3.7073    0.0000 H   0  0  0  0  0  0  0  0  0  0  0  0
    6.4529   -2.3868    0.0000 H   0  0  0  0  0  0  0  0  0  0  0  0
    6.3696   -1.5941    0.0000 H   0  0  0  0  0  0  0  0  0  0  0  0
    3.6534    6.6672    0.0000 H   0  0  0  0  0  0  0  0  0  0  0  0
    1.3834    5.0179    0.0000 H   0  0  0  0  0  0  0  0  0  0  0  0
    2.0423    6.4979    0.0000 H   0  0  0  0  0  0  0  0  0  0  0  0
    5.9567    6.0577    0.0000 H   0  0  0  0  0  0  0  0  0  0  0  0
    5.6425    6.8762    0.0000 H   0  0  0  0  0  0  0  0  0  0  0  0
    4.8239    6.5620    0.0000 H   0  0  0  0  0  0  0  0  0  0  0  0
    8.2094   -3.3180    0.0000 H   0  0  0  0  0  0  0  0  0  0  0  0
    8.0722   -2.4520    0.0000 H   0  0  0  0  0  0  0  0  0  0  0  0
    7.2062   -2.5892    0.0000 H   0  0  0  0  0  0  0  0  0  0  0  0
    8.9943   -3.7471    0.0000 H   0  0  0  0  0  0  0  0  0  0  0  0
    8.1272   -6.4157    0.0000 H   0  0  0  0  0  0  0  0  0  0  0  0
   10.5350   -4.2477    0.0000 H   0  0  0  0  0  0  0  0  0  0  0  0
    9.6679   -6.9163    0.0000 H   0  0  0  0  0  0  0  0  0  0  0  0
   10.8718   -5.8323    0.0000 H   0  0  0  0  0  0  0  0  0  0  0  0
  1 20  1  0  0  0  0
  1 25  1  0  0  0  0
  2 18  1  0  0  0  0
  2 24  1  0  0  0  0
  3 10  1  0  0  0  0
  3 13  1  0  0  0  0
  3 15  1  0  0  0  0
  4 12  1  0  0  0  0
  4 14  1  0  0  0  0
  4 16  1  0  0  0  0
  5 25  1  0  0  0  0
  5 26  1  0  0  0  0
  5 27  1  0  0  0  0
  6  7  1  0  0  0  0
  6 25  2  0  0  0  0
  7 26  2  0  0  0  0
  8  9  1  0  0  0  0
  8 10  1  0  0  0  0
  8 11  1  0  0  0  0
  8 12  1  0  0  0  0
  9 13  1  0  0  0  0
  9 34  1  0  0  0  0
  9 35  1  0  0  0  0
 10 36  1  0  0  0  0
 10 37  1  0  0  0  0
 11 14  1  0  0  0  0
 11 38  1  0  0  0  0
 11 39  1  0  0  0  0
 12 40  1  0  0  0  0
 12 41  1  0  0  0  0
 13 42  1  0  0  0  0
 13 43  1  0  0  0  0
 14 44  1  0  0  0  0
 14 45  1  0  0  0  0
 15 17  1  0  0  0  0
 15 46  1  0  0  0  0
 15 47  1  0  0  0  0
 16 18  1  0  0  0  0
 16 19  2  0  0  0  0
 17 20  1  0  0  0  0
 17 48  1  0  0  0  0
 17 49  1  0  0  0  0
 18 21  2  0  0  0  0
 19 22  1  0  0  0  0
 19 50  1  0  0  0  0
 20 51  1  0  0  0  0
 20 52  1  0  0  0  0
 21 23  1  0  0  0  0
 21 53  1  0  0  0  0
 22 23  2  0  0  0  0
 22 54  1  0  0  0  0
 23 55  1  0  0  0  0
 24 56  1  0  0  0  0
 24 57  1  0  0  0  0
 24 58  1  0  0  0  0
 26 28  1  0  0  0  0
 27 59  1  0  0  0  0
 27 60  1  0  0  0  0
 27 61  1  0  0  0  0
 28 29  2  0  0  0  0
 28 30  1  0  0  0  0
 29 31  1  0  0  0  0
 29 62  1  0  0  0  0
 30 32  2  0  0  0  0
 30 63  1  0  0  0  0
 31 33  2  0  0  0  0
 31 64  1  0  0  0  0
 32 33  1  0  0  0  0
 32 65  1  0  0  0  0
 33 66  1  0  0  0  0
M  END
> <PUBCHEM_COMPOUND_CID>
137651866

> <PUBCHEM_COMPOUND_CANONICALIZED>
1

> <PUBCHEM_CACTVS_COMPLEXITY>
620

> <PUBCHEM_CACTVS_HBOND_ACCEPTOR>
6

> <PUBCHEM_CACTVS_HBOND_DONOR>
0

> <PUBCHEM_CACTVS_ROTATABLE_BOND>
8

> <PUBCHEM_CACTVS_SUBSKEYS>
AAADcfB7oABAAAAAAAAAAAAAAAAAAWLFgAAwYAAAAAAAAAAB0AAAHgQIAAAADgzF2waz1ocMFAiiAiZiZACS2AthIrAdyCAvbJiOLqLk+ZuFMChkyBPY6AeQwAAPAAAAAAAAEAAAAAAAAAAgAAAAAAAAAA==

> <PUBCHEM_IUPAC_OPENEYE_NAME>
2-(2-methoxyphenyl)-7-[3-[(4-methyl-5-phenyl-1,2,4-triazol-3-yl)sulfanyl]propyl]-2,7-diazaspiro[4.4]nonane

> <PUBCHEM_IUPAC_CAS_NAME>
2-(2-methoxyphenyl)-7-[3-[(4-methyl-5-phenyl-1,2,4-triazol-3-yl)thio]propyl]-2,7-diazaspiro[4.4]nonane

> <PUBCHEM_IUPAC_NAME_MARKUP>
2-(2-methoxyphenyl)-7-[3-[(4-methyl-5-phenyl-1,2,4-triazol-3-yl)sulfanyl]propyl]-2,7-diazaspiro[4.4]nonane

> <PUBCHEM_IUPAC_NAME>
2-(2-methoxyphenyl)-7-[3-[(4-methyl-5-phenyl-1,2,4-triazol-3-yl)sulfanyl]propyl]-2,7-diazaspiro[4.4]nonane

> <PUBCHEM_IUPAC_SYSTEMATIC_NAME>
2-(2-methoxyphenyl)-7-[3-[(4-methyl-5-phenyl-1,2,4-triazol-3-yl)sulfanyl]propyl]-2,7-diazaspiro[4.4]nonane

> <PUBCHEM_IUPAC_TRADITIONAL_NAME>
2-(2-methoxyphenyl)-7-[3-[(4-methyl-5-phenyl-1,2,4-triazol-3-yl)thio]propyl]-2,7-diazaspiro[4.4]nonane

> <PUBCHEM_IUPAC_INCHI>
InChI=1S/C26H33N5OS/c1-29-24(21-9-4-3-5-10-21)27-28-25(29)33-18-8-15-30-16-13-26(19-30)14-17-31(20-26)22-11-6-7-12-23(22)32-2/h3-7,9-12H,8,13-20H2,1-2H3

> <PUBCHEM_IUPAC_INCHIKEY>
ICBYLQHTUDFHNY-UHFFFAOYSA-N

> <PUBCHEM_XLOGP3_AA>
4.5

> <PUBCHEM_EXACT_MASS>
463.24058187

> <PUBCHEM_MOLECULAR_FORMULA>
C26H33N5OS

> <PUBCHEM_MOLECULAR_WEIGHT>
463.6

> <PUBCHEM_OPENEYE_CAN_SMILES>
CN1C(=NN=C1SCCCN2CCC3(C2)CCN(C3)C4=CC=CC=C4OC)C5=CC=CC=C5

> <PUBCHEM_OPENEYE_ISO_SMILES>
CN1C(=NN=C1SCCCN2CCC3(C2)CCN(C3)C4=CC=CC=C4OC)C5=CC=CC=C5

> <PUBCHEM_CACTVS_TPSA>
71.7

> <PUBCHEM_MONOISOTOPIC_WEIGHT>
463.24058187

> <PUBCHEM_TOTAL_CHARGE>
0

> <PUBCHEM_HEAVY_ATOM_COUNT>
33

> <PUBCHEM_ATOM_DEF_STEREO_COUNT>
0

> <PUBCHEM_ATOM_UDEF_STEREO_COUNT>
1

> <PUBCHEM_BOND_DEF_STEREO_COUNT>
0

> <PUBCHEM_BOND_UDEF_STEREO_COUNT>
0

> <PUBCHEM_ISOTOPIC_ATOM_COUNT>
0

> <PUBCHEM_COMPONENT_COUNT>
1

> <PUBCHEM_CACTVS_TAUTO_COUNT>
-1

> <PUBCHEM_COORDINATE_TYPE>
1
5
255

> <PUBCHEM_BONDANNOTATIONS>
16  18  8
16  19  8
18  21  8
19  22  8
21  23  8
22  23  8
28  29  8
28  30  8
29  31  8
30  32  8
31  33  8
32  33  8
5  25  8
5  26  8
6  25  8
6  7  8
7  26  8
8  9  3

$$$$
