142573412
  -OEChem-09292322412D

 76 80  0     0  0  0  0  0  0999 V2000
    5.4836   -2.4648    0.0000 S   0  0  0  0  0  0  0  0  0  0  0  0
    8.9477    5.5352    0.0000 O   0  0  0  0  0  0  0  0  0  0  0  0
    2.9945   -4.7946    0.0000 O   0  0  0  0  0  0  0  0  0  0  0  0
    7.2156    0.5352    0.0000 N   0  0  0  0  0  0  0  0  0  0  0  0
    7.2156    4.5352    0.0000 N   0  0  0  0  0  0  0  0  0  0  0  0
    4.6746   -4.0526    0.0000 N   0  0  0  0  0  0  0  0  0  0  0  0
    6.2926   -4.0526    0.0000 N   0  0  0  0  0  0  0  0  0  0  0  0
    5.9836   -5.0036    0.0000 N   0  0  0  0  0  0  0  0  0  0  0  0
    7.2156    2.5352    0.0000 C   0  0  0  0  0  0  0  0  0  0  0  0
    6.3496    2.0352    0.0000 C   0  0  0  0  0  0  0  0  0  0  0  0
    8.0816    2.0352    0.0000 C   0  0  0  0  0  0  0  0  0  0  0  0
    6.3496    3.0352    0.0000 C   0  0  0  0  0  0  0  0  0  0  0  0
    8.0816    3.0352    0.0000 C   0  0  0  0  0  0  0  0  0  0  0  0
    6.3496    1.0352    0.0000 C   0  0  0  0  0  0  0  0  0  0  0  0
    8.0816    1.0352    0.0000 C   0  0  0  0  0  0  0  0  0  0  0  0
    6.3496    4.0352    0.0000 C   0  0  0  0  0  0  0  0  0  0  0  0
    8.0816    4.0352    0.0000 C   0  0  0  0  0  0  0  0  0  0  0  0
    7.2156   -0.4648    0.0000 C   0  0  0  0  0  0  0  0  0  0  0  0
    7.2156    5.5352    0.0000 C   0  0  0  0  0  0  0  0  0  0  0  0
    6.3496   -0.9648    0.0000 C   0  0  0  0  0  0  0  0  0  0  0  0
    8.0816    6.0352    0.0000 C   0  0  0  0  0  0  0  0  0  0  0  0
    6.3496    6.0352    0.0000 C   0  0  0  0  0  0  0  0  0  0  0  0
    6.3496   -1.9648    0.0000 C   0  0  0  0  0  0  0  0  0  0  0  0
    8.0816    7.0352    0.0000 C   0  0  0  0  0  0  0  0  0  0  0  0
    6.3496    7.0352    0.0000 C   0  0  0  0  0  0  0  0  0  0  0  0
    7.2156    7.5352    0.0000 C   0  0  0  0  0  0  0  0  0  0  0  0
    9.8137    6.0352    0.0000 C   0  0  0  0  0  0  0  0  0  0  0  0
    5.4836   -3.4648    0.0000 C   0  0  0  0  0  0  0  0  0  0  0  0
    4.9836   -5.0036    0.0000 C   0  0  0  0  0  0  0  0  0  0  0  0
    3.7235   -3.7436    0.0000 C   0  0  0  0  0  0  0  0  0  0  0  0
    4.3958   -5.8126    0.0000 C   0  0  0  0  0  0  0  0  0  0  0  0
    3.4013   -5.7081    0.0000 C   0  0  0  0  0  0  0  0  0  0  0  0
    4.8025   -6.7262    0.0000 C   0  0  0  0  0  0  0  0  0  0  0  0
    2.8135   -6.5171    0.0000 C   0  0  0  0  0  0  0  0  0  0  0  0
    4.2147   -7.5352    0.0000 C   0  0  0  0  0  0  0  0  0  0  0  0
    3.2202   -7.4307    0.0000 C   0  0  0  0  0  0  0  0  0  0  0  0
    2.0000   -4.6900    0.0000 C   0  0  0  0  0  0  0  0  0  0  0  0
    6.1375    2.6178    0.0000 H   0  0  0  0  0  0  0  0  0  0  0  0
    5.7390    1.9276    0.0000 H   0  0  0  0  0  0  0  0  0  0  0  0
    8.6922    1.9276    0.0000 H   0  0  0  0  0  0  0  0  0  0  0  0
    8.2937    2.6178    0.0000 H   0  0  0  0  0  0  0  0  0  0  0  0
    5.7390    3.1429    0.0000 H   0  0  0  0  0  0  0  0  0  0  0  0
    6.1375    2.4526    0.0000 H   0  0  0  0  0  0  0  0  0  0  0  0
    8.2937    2.4526    0.0000 H   0  0  0  0  0  0  0  0  0  0  0  0
    8.6922    3.1429    0.0000 H   0  0  0  0  0  0  0  0  0  0  0  0
    5.7390    1.1429    0.0000 H   0  0  0  0  0  0  0  0  0  0  0  0
    6.1375    0.4526    0.0000 H   0  0  0  0  0  0  0  0  0  0  0  0
    8.2937    0.4526    0.0000 H   0  0  0  0  0  0  0  0  0  0  0  0
    8.6922    1.1429    0.0000 H   0  0  0  0  0  0  0  0  0  0  0  0
    6.1375    4.6178    0.0000 H   0  0  0  0  0  0  0  0  0  0  0  0
    5.7390    3.9276    0.0000 H   0  0  0  0  0  0  0  0  0  0  0  0
    8.6922    3.9276    0.0000 H   0  0  0  0  0  0  0  0  0  0  0  0
    8.2937    4.6178    0.0000 H   0  0  0  0  0  0  0  0  0  0  0  0
    7.4277   -1.0474    0.0000 H   0  0  0  0  0  0  0  0  0  0  0  0
    7.8262   -0.3571    0.0000 H   0  0  0  0  0  0  0  0  0  0  0  0
    6.1375   -0.3822    0.0000 H   0  0  0  0  0  0  0  0  0  0  0  0
    5.7390   -1.0724    0.0000 H   0  0  0  0  0  0  0  0  0  0  0  0
    5.8127    5.7252    0.0000 H   0  0  0  0  0  0  0  0  0  0  0  0
    6.5616   -2.5474    0.0000 H   0  0  0  0  0  0  0  0  0  0  0  0
    6.9602   -1.8571    0.0000 H   0  0  0  0  0  0  0  0  0  0  0  0
    8.6186    7.3452    0.0000 H   0  0  0  0  0  0  0  0  0  0  0  0
    5.8127    7.3452    0.0000 H   0  0  0  0  0  0  0  0  0  0  0  0
    7.2156    8.1552    0.0000 H   0  0  0  0  0  0  0  0  0  0  0  0
   10.1237    5.4983    0.0000 H   0  0  0  0  0  0  0  0  0  0  0  0
   10.3506    6.3452    0.0000 H   0  0  0  0  0  0  0  0  0  0  0  0
    9.5037    6.5722    0.0000 H   0  0  0  0  0  0  0  0  0  0  0  0
    3.9151   -3.1539    0.0000 H   0  0  0  0  0  0  0  0  0  0  0  0
    3.1338   -3.5520    0.0000 H   0  0  0  0  0  0  0  0  0  0  0  0
    3.5319   -4.3332    0.0000 H   0  0  0  0  0  0  0  0  0  0  0  0
    5.4191   -6.7910    0.0000 H   0  0  0  0  0  0  0  0  0  0  0  0
    2.1969   -6.4523    0.0000 H   0  0  0  0  0  0  0  0  0  0  0  0
    4.4669   -8.1016    0.0000 H   0  0  0  0  0  0  0  0  0  0  0  0
    2.8558   -7.9323    0.0000 H   0  0  0  0  0  0  0  0  0  0  0  0
    2.0648   -4.0734    0.0000 H   0  0  0  0  0  0  0  0  0  0  0  0
    1.3834   -4.6252    0.0000 H   0  0  0  0  0  0  0  0  0  0  0  0
    1.9352   -5.3066    0.0000 H   0  0  0  0  0  0  0  0  0  0  0  0
  1 23  1  0  0  0  0
  1 28  1  0  0  0  0
  2 21  1  0  0  0  0
  2 27  1  0  0  0  0
  3 32  1  0  0  0  0
  3 37  1  0  0  0  0
  4 14  1  0  0  0  0
  4 15  1  0  0  0  0
  4 18  1  0  0  0  0
  5 16  1  0  0  0  0
  5 17  1  0  0  0  0
  5 19  1  0  0  0  0
  6 28  1  0  0  0  0
  6 29  1  0  0  0  0
  6 30  1  0  0  0  0
  7  8  1  0  0  0  0
  7 28  2  0  0  0  0
  8 29  2  0  0  0  0
  9 10  1  0  0  0  0
  9 11  1  0  0  0  0
  9 12  1  0  0  0  0
  9 13  1  0  0  0  0
 10 14  1  0  0  0  0
 10 38  1  0  0  0  0
 10 39  1  0  0  0  0
 11 15  1  0  0  0  0
 11 40  1  0  0  0  0
 11 41  1  0  0  0  0
 12 16  1  0  0  0  0
 12 42  1  0  0  0  0
 12 43  1  0  0  0  0
 13 17  1  0  0  0  0
 13 44  1  0  0  0  0
 13 45  1  0  0  0  0
 14 46  1  0  0  0  0
 14 47  1  0  0  0  0
 15 48  1  0  0  0  0
 15 49  1  0  0  0  0
 16 50  1  0  0  0  0
 16 51  1  0  0  0  0
 17 52  1  0  0  0  0
 17 53  1  0  0  0  0
 18 20  1  0  0  0  0
 18 54  1  0  0  0  0
 18 55  1  0  0  0  0
 19 21  1  0  0  0  0
 19 22  2  0  0  0  0
 20 23  1  0  0  0  0
 20 56  1  0  0  0  0
 20 57  1  0  0  0  0
 21 24  2  0  0  0  0
 22 25  1  0  0  0  0
 22 58  1  0  0  0  0
 23 59  1  0  0  0  0
 23 60  1  0  0  0  0
 24 26  1  0  0  0  0
 24 61  1  0  0  0  0
 25 26  2  0  0  0  0
 25 62  1  0  0  0  0
 26 63  1  0  0  0  0
 27 64  1  0  0  0  0
 27 65  1  0  0  0  0
 27 66  1  0  0  0  0
 29 31  1  0  0  0  0
 30 67  1  0  0  0  0
 30 68  1  0  0  0  0
 30 69  1  0  0  0  0
 31 32  1  0  0  0  0
 31 33  2  0  0  0  0
 32 34  2  0  0  0  0
 33 35  1  0  0  0  0
 33 70  1  0  0  0  0
 34 36  1  0  0  0  0
 34 71  1  0  0  0  0
 35 36  2  0  0  0  0
 35 72  1  0  0  0  0
 36 73  1  0  0  0  0
 37 74  1  0  0  0  0
 37 75  1  0  0  0  0
 37 76  1  0  0  0  0
M  END
> <PUBCHEM_COMPOUND_CID>
142573412

> <PUBCHEM_COMPOUND_CANONICALIZED>
1

> <PUBCHEM_CACTVS_COMPLEXITY>
683

> <PUBCHEM_CACTVS_HBOND_ACCEPTOR>
7

> <PUBCHEM_CACTVS_HBOND_DONOR>
0

> <PUBCHEM_CACTVS_ROTATABLE_BOND>
9

> <PUBCHEM_CACTVS_SUBSKEYS>
AAADcfB7sABAAAAAAAAAAAAAAAAAAWAAAAA8eIEAAAAAAAAB0AAAHgQIAAAADgzF2waz1ocMFAiiAiZiZACS2AthIrAdyCAvbJiOLqLkuZuFMChmyBPY6AeQwCAPAAAAAAAIEAAAAAAAABAgAAAAAAAAAA==

> <PUBCHEM_IUPAC_OPENEYE_NAME>
3-(2-methoxyphenyl)-9-[3-[[5-(2-methoxyphenyl)-4-methyl-1,2,4-triazol-3-yl]sulfanyl]propyl]-3,9-diazaspiro[5.5]undecane

> <PUBCHEM_IUPAC_CAS_NAME>
3-(2-methoxyphenyl)-9-[3-[[5-(2-methoxyphenyl)-4-methyl-1,2,4-triazol-3-yl]thio]propyl]-3,9-diazaspiro[5.5]undecane

> <PUBCHEM_IUPAC_NAME_MARKUP>
3-(2-methoxyphenyl)-9-[3-[[5-(2-methoxyphenyl)-4-methyl-1,2,4-triazol-3-yl]sulfanyl]propyl]-3,9-diazaspiro[5.5]undecane

> <PUBCHEM_IUPAC_NAME>
3-(2-methoxyphenyl)-9-[3-[[5-(2-methoxyphenyl)-4-methyl-1,2,4-triazol-3-yl]sulfanyl]propyl]-3,9-diazaspiro[5.5]undecane

> <PUBCHEM_IUPAC_SYSTEMATIC_NAME>
3-(2-methoxyphenyl)-9-[3-[[5-(2-methoxyphenyl)-4-methyl-1,2,4-triazol-3-yl]sulfanyl]propyl]-3,9-diazaspiro[5.5]undecane

> <PUBCHEM_IUPAC_TRADITIONAL_NAME>
3-(2-methoxyphenyl)-9-[3-[[5-(2-methoxyphenyl)-4-methyl-1,2,4-triazol-3-yl]thio]propyl]-3,9-diazaspiro[5.5]undecane

> <PUBCHEM_IUPAC_INCHI>
InChI=1S/C29H39N5O2S/c1-32-27(23-9-4-6-11-25(23)35-2)30-31-28(32)37-22-8-17-33-18-13-29(14-19-33)15-20-34(21-16-29)24-10-5-7-12-26(24)36-3/h4-7,9-12H,8,13-22H2,1-3H3

> <PUBCHEM_IUPAC_INCHIKEY>
CVFSBPUUIKGUIL-UHFFFAOYSA-N

> <PUBCHEM_XLOGP3_AA>
5.2

> <PUBCHEM_EXACT_MASS>
521.28244668

> <PUBCHEM_MOLECULAR_FORMULA>
C29H39N5O2S

> <PUBCHEM_MOLECULAR_WEIGHT>
521.7

> <PUBCHEM_OPENEYE_CAN_SMILES>
CN1C(=NN=C1SCCCN2CCC3(CC2)CCN(CC3)C4=CC=CC=C4OC)C5=CC=CC=C5OC

> <PUBCHEM_OPENEYE_ISO_SMILES>
CN1C(=NN=C1SCCCN2CCC3(CC2)CCN(CC3)C4=CC=CC=C4OC)C5=CC=CC=C5OC

> <PUBCHEM_CACTVS_TPSA>
81

> <PUBCHEM_MONOISOTOPIC_WEIGHT>
521.28244668

> <PUBCHEM_TOTAL_CHARGE>
0

> <PUBCHEM_HEAVY_ATOM_COUNT>
37

> <PUBCHEM_ATOM_DEF_STEREO_COUNT>
0

> <PUBCHEM_ATOM_UDEF_STEREO_COUNT>
0

> <PUBCHEM_BOND_DEF_STEREO_COUNT>
0

> <PUBCHEM_BOND_UDEF_STEREO_COUNT>
0

> <PUBCHEM_ISOTOPIC_ATOM_COUNT>
0

> <PUBCHEM_COMPONENT_COUNT>
1

> <PUBCHEM_CACTVS_TAUTO_COUNT>
-1

> <PUBCHEM_COORDINATE_TYPE>
1
5
255

> <PUBCHEM_BONDANNOTATIONS>
19  21  8
19  22  8
21  24  8
22  25  8
24  26  8
25  26  8
31  32  8
31  33  8
32  34  8
33  35  8
34  36  8
35  36  8
6  28  8
6  29  8
7  28  8
7  8  8
8  29  8

$$$$
