71502631
  -OEChem-09292322352D

 63 67  0     0  0  0  0  0  0999 V2000
    6.7210   -4.4518    0.0000 S   0  0  0  0  0  0  0  0  0  0  0  0
    2.8660    4.3034    0.0000 O   0  0  0  0  0  0  0  0  0  0  0  0
    7.6715   -4.1412    0.0000 O   0  0  0  0  0  0  0  0  0  0  0  0
    5.7705   -4.7625    0.0000 O   0  0  0  0  0  0  0  0  0  0  0  0
    4.5981    1.3034    0.0000 N   0  0  0  0  0  0  0  0  0  0  0  0
    4.5981   -0.6966    0.0000 N   0  0  0  0  0  0  0  0  0  0  0  0
    6.4103   -3.5013    0.0000 N   0  0  0  0  0  0  0  0  0  0  0  0
    5.4641    0.8034    0.0000 C   0  0  0  0  0  0  0  0  0  0  0  0
    3.7320    0.8034    0.0000 C   0  0  0  0  0  0  0  0  0  0  0  0
    5.4641   -0.1966    0.0000 C   0  0  0  0  0  0  0  0  0  0  0  0
    3.7320   -0.1966    0.0000 C   0  0  0  0  0  0  0  0  0  0  0  0
    4.5981    2.3034    0.0000 C   0  0  0  0  0  0  0  0  0  0  0  0
    4.5981   -1.6966    0.0000 C   0  0  0  0  0  0  0  0  0  0  0  0
    5.4641   -2.1966    0.0000 C   0  0  0  0  0  0  0  0  0  0  0  0
    3.7320    2.8034    0.0000 C   0  0  0  0  0  0  0  0  0  0  0  0
    5.4641   -3.1966    0.0000 C   0  0  0  0  0  0  0  0  0  0  0  0
    3.7320   -2.1966    0.0000 C   0  0  0  0  0  0  0  0  0  0  0  0
    6.4103   -1.8919    0.0000 C   0  0  0  0  0  0  0  0  0  0  0  0
    4.5981   -3.6966    0.0000 C   0  0  0  0  0  0  0  0  0  0  0  0
    6.9939   -2.6966    0.0000 C   0  0  0  0  0  0  0  0  0  0  0  0
    3.7320    3.8034    0.0000 C   0  0  0  0  0  0  0  0  0  0  0  0
    3.7320   -3.1966    0.0000 C   0  0  0  0  0  0  0  0  0  0  0  0
    7.0316   -5.4024    0.0000 C   0  0  0  0  0  0  0  0  0  0  0  0
    8.0102   -5.6086    0.0000 C   0  0  0  0  0  0  0  0  0  0  0  0
    6.3638   -6.1467    0.0000 C   0  0  0  0  0  0  0  0  0  0  0  0
    2.8660    5.3034    0.0000 C   0  0  0  0  0  0  0  0  0  0  0  0
    8.3208   -6.5591    0.0000 C   0  0  0  0  0  0  0  0  0  0  0  0
    6.6745   -7.0972    0.0000 C   0  0  0  0  0  0  0  0  0  0  0  0
    7.6530   -7.3034    0.0000 C   0  0  0  0  0  0  0  0  0  0  0  0
    2.0000    5.8034    0.0000 C   0  0  0  0  0  0  0  0  0  0  0  0
    3.7320    5.8034    0.0000 C   0  0  0  0  0  0  0  0  0  0  0  0
    2.0000    6.8034    0.0000 C   0  0  0  0  0  0  0  0  0  0  0  0
    3.7320    6.8034    0.0000 C   0  0  0  0  0  0  0  0  0  0  0  0
    2.8660    7.3034    0.0000 C   0  0  0  0  0  0  0  0  0  0  0  0
    6.0747    0.6957    0.0000 H   0  0  0  0  0  0  0  0  0  0  0  0
    5.6762    1.3860    0.0000 H   0  0  0  0  0  0  0  0  0  0  0  0
    3.5200    1.3860    0.0000 H   0  0  0  0  0  0  0  0  0  0  0  0
    3.1215    0.6957    0.0000 H   0  0  0  0  0  0  0  0  0  0  0  0
    5.6762   -0.7792    0.0000 H   0  0  0  0  0  0  0  0  0  0  0  0
    6.0747   -0.0889    0.0000 H   0  0  0  0  0  0  0  0  0  0  0  0
    3.1215   -0.0889    0.0000 H   0  0  0  0  0  0  0  0  0  0  0  0
    3.5200   -0.7792    0.0000 H   0  0  0  0  0  0  0  0  0  0  0  0
    5.2087    2.1957    0.0000 H   0  0  0  0  0  0  0  0  0  0  0  0
    4.8101    2.8860    0.0000 H   0  0  0  0  0  0  0  0  0  0  0  0
    3.1215    2.9111    0.0000 H   0  0  0  0  0  0  0  0  0  0  0  0
    3.5200    2.2208    0.0000 H   0  0  0  0  0  0  0  0  0  0  0  0
    3.1951   -1.8866    0.0000 H   0  0  0  0  0  0  0  0  0  0  0  0
    6.6029   -1.3025    0.0000 H   0  0  0  0  0  0  0  0  0  0  0  0
    4.5981   -4.3166    0.0000 H   0  0  0  0  0  0  0  0  0  0  0  0
    7.6139   -2.6966    0.0000 H   0  0  0  0  0  0  0  0  0  0  0  0
    4.3426    3.6958    0.0000 H   0  0  0  0  0  0  0  0  0  0  0  0
    3.9441    4.3860    0.0000 H   0  0  0  0  0  0  0  0  0  0  0  0
    3.1951   -3.5066    0.0000 H   0  0  0  0  0  0  0  0  0  0  0  0
    8.4242   -5.1471    0.0000 H   0  0  0  0  0  0  0  0  0  0  0  0
    5.7571   -6.0188    0.0000 H   0  0  0  0  0  0  0  0  0  0  0  0
    8.9275   -6.6870    0.0000 H   0  0  0  0  0  0  0  0  0  0  0  0
    6.2604   -7.5586    0.0000 H   0  0  0  0  0  0  0  0  0  0  0  0
    7.8456   -7.8927    0.0000 H   0  0  0  0  0  0  0  0  0  0  0  0
    1.4631    5.4934    0.0000 H   0  0  0  0  0  0  0  0  0  0  0  0
    4.2690    5.4934    0.0000 H   0  0  0  0  0  0  0  0  0  0  0  0
    1.4631    7.1134    0.0000 H   0  0  0  0  0  0  0  0  0  0  0  0
    4.2690    7.1134    0.0000 H   0  0  0  0  0  0  0  0  0  0  0  0
    2.8660    7.9234    0.0000 H   0  0  0  0  0  0  0  0  0  0  0  0
  1  3  2  0  0  0  0
  1  4  2  0  0  0  0
  1  7  1  0  0  0  0
  1 23  1  0  0  0  0
  2 21  1  0  0  0  0
  2 26  1  0  0  0  0
  5  8  1  0  0  0  0
  5  9  1  0  0  0  0
  5 12  1  0  0  0  0
  6 10  1  0  0  0  0
  6 11  1  0  0  0  0
  6 13  1  0  0  0  0
  7 16  1  0  0  0  0
  7 20  1  0  0  0  0
  8 10  1  0  0  0  0
  8 35  1  0  0  0  0
  8 36  1  0  0  0  0
  9 11  1  0  0  0  0
  9 37  1  0  0  0  0
  9 38  1  0  0  0  0
 10 39  1  0  0  0  0
 10 40  1  0  0  0  0
 11 41  1  0  0  0  0
 11 42  1  0  0  0  0
 12 15  1  0  0  0  0
 12 43  1  0  0  0  0
 12 44  1  0  0  0  0
 13 14  1  0  0  0  0
 13 17  2  0  0  0  0
 14 16  2  0  0  0  0
 14 18  1  0  0  0  0
 15 21  1  0  0  0  0
 15 45  1  0  0  0  0
 15 46  1  0  0  0  0
 16 19  1  0  0  0  0
 17 22  1  0  0  0  0
 17 47  1  0  0  0  0
 18 20  2  0  0  0  0
 18 48  1  0  0  0  0
 19 22  2  0  0  0  0
 19 49  1  0  0  0  0
 20 50  1  0  0  0  0
 21 51  1  0  0  0  0
 21 52  1  0  0  0  0
 22 53  1  0  0  0  0
 23 24  2  0  0  0  0
 23 25  1  0  0  0  0
 24 27  1  0  0  0  0
 24 54  1  0  0  0  0
 25 28  2  0  0  0  0
 25 55  1  0  0  0  0
 26 30  2  0  0  0  0
 26 31  1  0  0  0  0
 27 29  2  0  0  0  0
 27 56  1  0  0  0  0
 28 29  1  0  0  0  0
 28 57  1  0  0  0  0
 29 58  1  0  0  0  0
 30 32  1  0  0  0  0
 30 59  1  0  0  0  0
 31 33  2  0  0  0  0
 31 60  1  0  0  0  0
 32 34  2  0  0  0  0
 32 61  1  0  0  0  0
 33 34  1  0  0  0  0
 33 62  1  0  0  0  0
 34 63  1  0  0  0  0
M  END
> <PUBCHEM_COMPOUND_CID>
71502631

> <PUBCHEM_COMPOUND_CANONICALIZED>
1

> <PUBCHEM_CACTVS_COMPLEXITY>
722

> <PUBCHEM_CACTVS_HBOND_ACCEPTOR>
5

> <PUBCHEM_CACTVS_HBOND_DONOR>
0

> <PUBCHEM_CACTVS_ROTATABLE_BOND>
8

> <PUBCHEM_CACTVS_SUBSKEYS>
AAADceB7MABAAAAAAAAAAAAAAAAAAWAAAAA8YMEAAAAAAFgB9AAAHgQAQAAADAzh3gY8x/MIFAKgAzRnRHDCiDAxIiAI2Dg+bJgMZuLE8duWPCjmwBHI6AeQwIAOAAAAAAQCAAAAAAAACAQAAAAAAAAAAA==

> <PUBCHEM_IUPAC_OPENEYE_NAME>
1-(benzenesulfonyl)-4-[4-(3-phenoxypropyl)piperazin-1-yl]indole

> <PUBCHEM_IUPAC_CAS_NAME>
1-(benzenesulfonyl)-4-[4-(3-phenoxypropyl)-1-piperazinyl]indole

> <PUBCHEM_IUPAC_NAME_MARKUP>
1-(benzenesulfonyl)-4-[4-(3-phenoxypropyl)piperazin-1-yl]indole

> <PUBCHEM_IUPAC_NAME>
1-(benzenesulfonyl)-4-[4-(3-phenoxypropyl)piperazin-1-yl]indole

> <PUBCHEM_IUPAC_SYSTEMATIC_NAME>
4-[4-(3-phenoxypropyl)piperazin-1-yl]-1-(phenylsulfonyl)indole

> <PUBCHEM_IUPAC_TRADITIONAL_NAME>
1-besyl-4-[4-(3-phenoxypropyl)piperazino]indole

> <PUBCHEM_IUPAC_INCHI>
InChI=1S/C27H29N3O3S/c31-34(32,24-11-5-2-6-12-24)30-17-15-25-26(13-7-14-27(25)30)29-20-18-28(19-21-29)16-8-22-33-23-9-3-1-4-10-23/h1-7,9-15,17H,8,16,18-22H2

> <PUBCHEM_IUPAC_INCHIKEY>
VESLKGGUOOCKRO-UHFFFAOYSA-N

> <PUBCHEM_XLOGP3_AA>
5.2

> <PUBCHEM_EXACT_MASS>
475.19296297

> <PUBCHEM_MOLECULAR_FORMULA>
C27H29N3O3S

> <PUBCHEM_MOLECULAR_WEIGHT>
475.6

> <PUBCHEM_OPENEYE_CAN_SMILES>
C1CN(CCN1CCCOC2=CC=CC=C2)C3=CC=CC4=C3C=CN4S(=O)(=O)C5=CC=CC=C5

> <PUBCHEM_OPENEYE_ISO_SMILES>
C1CN(CCN1CCCOC2=CC=CC=C2)C3=CC=CC4=C3C=CN4S(=O)(=O)C5=CC=CC=C5

> <PUBCHEM_CACTVS_TPSA>
63.2

> <PUBCHEM_MONOISOTOPIC_WEIGHT>
475.19296297

> <PUBCHEM_TOTAL_CHARGE>
0

> <PUBCHEM_HEAVY_ATOM_COUNT>
34

> <PUBCHEM_ATOM_DEF_STEREO_COUNT>
0

> <PUBCHEM_ATOM_UDEF_STEREO_COUNT>
0

> <PUBCHEM_BOND_DEF_STEREO_COUNT>
0

> <PUBCHEM_BOND_UDEF_STEREO_COUNT>
0

> <PUBCHEM_ISOTOPIC_ATOM_COUNT>
0

> <PUBCHEM_COMPONENT_COUNT>
1

> <PUBCHEM_CACTVS_TAUTO_COUNT>
-1

> <PUBCHEM_COORDINATE_TYPE>
1
5
255

> <PUBCHEM_BONDANNOTATIONS>
13  14  8
13  17  8
14  16  8
14  18  8
16  19  8
17  22  8
18  20  8
19  22  8
23  24  8
23  25  8
24  27  8
25  28  8
26  30  8
26  31  8
27  29  8
28  29  8
30  32  8
31  33  8
32  34  8
33  34  8
7  16  8
7  20  8

$$$$
