10551197
  -OEChem-09292322252D

 63 67  0     0  0  0  0  0  0999 V2000
    9.2619    1.6651    0.0000 O   0  0  0  0  0  0  0  0  0  0  0  0
   15.2619   -1.7990    0.0000 O   0  0  0  0  0  0  0  0  0  0  0  0
   12.2619   -0.0670    0.0000 N   0  0  0  0  0  0  0  0  0  0  0  0
   14.2619   -0.0670    0.0000 N   0  0  0  0  0  0  0  0  0  0  0  0
    3.7320    2.1651    0.0000 N   0  0  0  0  0  0  0  0  0  0  0  0
    4.6783    0.8603    0.0000 N   0  0  0  0  0  0  0  0  0  0  0  0
   12.7619   -0.9330    0.0000 C   0  0  0  0  0  0  0  0  0  0  0  0
   12.7619    0.7990    0.0000 C   0  0  0  0  0  0  0  0  0  0  0  0
   13.7619   -0.9330    0.0000 C   0  0  0  0  0  0  0  0  0  0  0  0
   13.7619    0.7990    0.0000 C   0  0  0  0  0  0  0  0  0  0  0  0
   11.2619   -0.0670    0.0000 C   0  0  0  0  0  0  0  0  0  0  0  0
   10.7619    0.7990    0.0000 C   0  0  0  0  0  0  0  0  0  0  0  0
   15.2619   -0.0670    0.0000 C   0  0  0  0  0  0  0  0  0  0  0  0
    9.7619    0.7990    0.0000 C   0  0  0  0  0  0  0  0  0  0  0  0
   15.7619   -0.9330    0.0000 C   0  0  0  0  0  0  0  0  0  0  0  0
   15.7619    0.7990    0.0000 C   0  0  0  0  0  0  0  0  0  0  0  0
   16.7619   -0.9330    0.0000 C   0  0  0  0  0  0  0  0  0  0  0  0
   16.7619    0.7990    0.0000 C   0  0  0  0  0  0  0  0  0  0  0  0
   17.2619   -0.0670    0.0000 C   0  0  0  0  0  0  0  0  0  0  0  0
    8.2619    1.6651    0.0000 C   0  0  0  0  0  0  0  0  0  0  0  0
    7.7619    0.7990    0.0000 C   0  0  0  0  0  0  0  0  0  0  0  0
    7.7619    2.5311    0.0000 C   0  0  0  0  0  0  0  0  0  0  0  0
   15.7619   -2.6651    0.0000 C   0  0  0  0  0  0  0  0  0  0  0  0
    6.2619    1.6651    0.0000 C   0  0  0  0  0  0  0  0  0  0  0  0
    6.7619    0.7990    0.0000 C   0  0  0  0  0  0  0  0  0  0  0  0
    6.7619    2.5311    0.0000 C   0  0  0  0  0  0  0  0  0  0  0  0
    5.2619    1.6651    0.0000 C   0  0  0  0  0  0  0  0  0  0  0  0
    4.6783    2.4698    0.0000 C   0  0  0  0  0  0  0  0  0  0  0  0
    3.7320    1.1651    0.0000 C   0  0  0  0  0  0  0  0  0  0  0  0
    2.8660    2.6651    0.0000 C   0  0  0  0  0  0  0  0  0  0  0  0
    2.8660    0.6651    0.0000 C   0  0  0  0  0  0  0  0  0  0  0  0
    2.0000    2.1651    0.0000 C   0  0  0  0  0  0  0  0  0  0  0  0
    2.0000    1.1651    0.0000 C   0  0  0  0  0  0  0  0  0  0  0  0
   12.1793   -1.1451    0.0000 H   0  0  0  0  0  0  0  0  0  0  0  0
   12.8695   -1.5436    0.0000 H   0  0  0  0  0  0  0  0  0  0  0  0
   12.8695    1.4096    0.0000 H   0  0  0  0  0  0  0  0  0  0  0  0
   12.1793    1.0111    0.0000 H   0  0  0  0  0  0  0  0  0  0  0  0
   13.6542   -1.5436    0.0000 H   0  0  0  0  0  0  0  0  0  0  0  0
   14.3445   -1.1451    0.0000 H   0  0  0  0  0  0  0  0  0  0  0  0
   14.3445    1.0111    0.0000 H   0  0  0  0  0  0  0  0  0  0  0  0
   13.6542    1.4096    0.0000 H   0  0  0  0  0  0  0  0  0  0  0  0
   10.6793   -0.2790    0.0000 H   0  0  0  0  0  0  0  0  0  0  0  0
   11.3695   -0.6776    0.0000 H   0  0  0  0  0  0  0  0  0  0  0  0
   11.3445    1.0111    0.0000 H   0  0  0  0  0  0  0  0  0  0  0  0
   10.6542    1.4096    0.0000 H   0  0  0  0  0  0  0  0  0  0  0  0
    9.1793    0.5870    0.0000 H   0  0  0  0  0  0  0  0  0  0  0  0
    9.8695    0.1885    0.0000 H   0  0  0  0  0  0  0  0  0  0  0  0
   15.4519    1.3360    0.0000 H   0  0  0  0  0  0  0  0  0  0  0  0
   17.0719   -1.4700    0.0000 H   0  0  0  0  0  0  0  0  0  0  0  0
   17.0719    1.3360    0.0000 H   0  0  0  0  0  0  0  0  0  0  0  0
   17.8819   -0.0670    0.0000 H   0  0  0  0  0  0  0  0  0  0  0  0
    8.0719    0.2621    0.0000 H   0  0  0  0  0  0  0  0  0  0  0  0
    8.0719    3.0680    0.0000 H   0  0  0  0  0  0  0  0  0  0  0  0
   15.2249   -2.9751    0.0000 H   0  0  0  0  0  0  0  0  0  0  0  0
   16.0719   -3.2020    0.0000 H   0  0  0  0  0  0  0  0  0  0  0  0
   16.2988   -2.3551    0.0000 H   0  0  0  0  0  0  0  0  0  0  0  0
    6.4519    0.2621    0.0000 H   0  0  0  0  0  0  0  0  0  0  0  0
    6.4519    3.0680    0.0000 H   0  0  0  0  0  0  0  0  0  0  0  0
    4.8709    3.0591    0.0000 H   0  0  0  0  0  0  0  0  0  0  0  0
    2.8660    3.2851    0.0000 H   0  0  0  0  0  0  0  0  0  0  0  0
    2.8660    0.0451    0.0000 H   0  0  0  0  0  0  0  0  0  0  0  0
    1.4631    2.4751    0.0000 H   0  0  0  0  0  0  0  0  0  0  0  0
    1.4631    0.8551    0.0000 H   0  0  0  0  0  0  0  0  0  0  0  0
  1 14  1  0  0  0  0
  1 20  1  0  0  0  0
  2 15  1  0  0  0  0
  2 23  1  0  0  0  0
  3  7  1  0  0  0  0
  3  8  1  0  0  0  0
  3 11  1  0  0  0  0
  4  9  1  0  0  0  0
  4 10  1  0  0  0  0
  4 13  1  0  0  0  0
  5 28  1  0  0  0  0
  5 29  1  0  0  0  0
  5 30  1  0  0  0  0
  6 27  1  0  0  0  0
  6 29  2  0  0  0  0
  7  9  1  0  0  0  0
  7 34  1  0  0  0  0
  7 35  1  0  0  0  0
  8 10  1  0  0  0  0
  8 36  1  0  0  0  0
  8 37  1  0  0  0  0
  9 38  1  0  0  0  0
  9 39  1  0  0  0  0
 10 40  1  0  0  0  0
 10 41  1  0  0  0  0
 11 12  1  0  0  0  0
 11 42  1  0  0  0  0
 11 43  1  0  0  0  0
 12 14  1  0  0  0  0
 12 44  1  0  0  0  0
 12 45  1  0  0  0  0
 13 15  1  0  0  0  0
 13 16  2  0  0  0  0
 14 46  1  0  0  0  0
 14 47  1  0  0  0  0
 15 17  2  0  0  0  0
 16 18  1  0  0  0  0
 16 48  1  0  0  0  0
 17 19  1  0  0  0  0
 17 49  1  0  0  0  0
 18 19  2  0  0  0  0
 18 50  1  0  0  0  0
 19 51  1  0  0  0  0
 20 21  2  0  0  0  0
 20 22  1  0  0  0  0
 21 25  1  0  0  0  0
 21 52  1  0  0  0  0
 22 26  2  0  0  0  0
 22 53  1  0  0  0  0
 23 54  1  0  0  0  0
 23 55  1  0  0  0  0
 23 56  1  0  0  0  0
 24 25  2  0  0  0  0
 24 26  1  0  0  0  0
 24 27  1  0  0  0  0
 25 57  1  0  0  0  0
 26 58  1  0  0  0  0
 27 28  2  0  0  0  0
 28 59  1  0  0  0  0
 29 31  1  0  0  0  0
 30 32  2  0  0  0  0
 30 60  1  0  0  0  0
 31 33  2  0  0  0  0
 31 61  1  0  0  0  0
 32 33  1  0  0  0  0
 32 62  1  0  0  0  0
 33 63  1  0  0  0  0
M  END
> <PUBCHEM_COMPOUND_CID>
10551197

> <PUBCHEM_COMPOUND_CANONICALIZED>
1

> <PUBCHEM_CACTVS_COMPLEXITY>
577

> <PUBCHEM_CACTVS_HBOND_ACCEPTOR>
5

> <PUBCHEM_CACTVS_HBOND_DONOR>
0

> <PUBCHEM_CACTVS_ROTATABLE_BOND>
8

> <PUBCHEM_CACTVS_SUBSKEYS>
AAADceB7sAAAAAAAAAAAAAAAAAAAAWAAAAA8eIEAAAAAAFgB9AAAHgAAAAAADAzhnwY/9p8MHACgAzZnZACCiC0xMqAJ2CA/fJiObuLEuZuXOCjuwBPY6CeQ0IMOIAAAAAAAEABAAAAAAAAgAAAAAAAAAA==

> <PUBCHEM_IUPAC_OPENEYE_NAME>
2-[4-[3-[4-(2-methoxyphenyl)piperazin-1-yl]propoxy]phenyl]imidazo[1,2-a]pyridine

> <PUBCHEM_IUPAC_CAS_NAME>
2-[4-[3-[4-(2-methoxyphenyl)-1-piperazinyl]propoxy]phenyl]imidazo[1,2-a]pyridine

> <PUBCHEM_IUPAC_NAME_MARKUP>
2-[4-[3-[4-(2-methoxyphenyl)piperazin-1-yl]propoxy]phenyl]imidazo[1,2-a]pyridine

> <PUBCHEM_IUPAC_NAME>
2-[4-[3-[4-(2-methoxyphenyl)piperazin-1-yl]propoxy]phenyl]imidazo[1,2-a]pyridine

> <PUBCHEM_IUPAC_SYSTEMATIC_NAME>
2-[4-[3-[4-(2-methoxyphenyl)piperazin-1-yl]propoxy]phenyl]imidazo[1,2-a]pyridine

> <PUBCHEM_IUPAC_TRADITIONAL_NAME>
2-[4-[3-[4-(2-methoxyphenyl)piperazino]propoxy]phenyl]imidazo[1,2-a]pyridine

> <PUBCHEM_IUPAC_INCHI>
InChI=1S/C27H30N4O2/c1-32-26-8-3-2-7-25(26)30-18-16-29(17-19-30)14-6-20-33-23-12-10-22(11-13-23)24-21-31-15-5-4-9-27(31)28-24/h2-5,7-13,15,21H,6,14,16-20H2,1H3

> <PUBCHEM_IUPAC_INCHIKEY>
LNFJZMYMJHIQPZ-UHFFFAOYSA-N

> <PUBCHEM_XLOGP3_AA>
5.4

> <PUBCHEM_EXACT_MASS>
442.23687621

> <PUBCHEM_MOLECULAR_FORMULA>
C27H30N4O2

> <PUBCHEM_MOLECULAR_WEIGHT>
442.6

> <PUBCHEM_OPENEYE_CAN_SMILES>
COC1=CC=CC=C1N2CCN(CC2)CCCOC3=CC=C(C=C3)C4=CN5C=CC=CC5=N4

> <PUBCHEM_OPENEYE_ISO_SMILES>
COC1=CC=CC=C1N2CCN(CC2)CCCOC3=CC=C(C=C3)C4=CN5C=CC=CC5=N4

> <PUBCHEM_CACTVS_TPSA>
42.2

> <PUBCHEM_MONOISOTOPIC_WEIGHT>
442.23687621

> <PUBCHEM_TOTAL_CHARGE>
0

> <PUBCHEM_HEAVY_ATOM_COUNT>
33

> <PUBCHEM_ATOM_DEF_STEREO_COUNT>
0

> <PUBCHEM_ATOM_UDEF_STEREO_COUNT>
0

> <PUBCHEM_BOND_DEF_STEREO_COUNT>
0

> <PUBCHEM_BOND_UDEF_STEREO_COUNT>
0

> <PUBCHEM_ISOTOPIC_ATOM_COUNT>
0

> <PUBCHEM_COMPONENT_COUNT>
1

> <PUBCHEM_CACTVS_TAUTO_COUNT>
-1

> <PUBCHEM_COORDINATE_TYPE>
1
5
255

> <PUBCHEM_BONDANNOTATIONS>
13  15  8
13  16  8
15  17  8
16  18  8
17  19  8
18  19  8
20  21  8
20  22  8
21  25  8
22  26  8
24  25  8
24  26  8
27  28  8
29  31  8
30  32  8
31  33  8
32  33  8
5  28  8
5  29  8
5  30  8
6  27  8
6  29  8

$$$$
