90467021
  -OEChem-09292322002D

 67 70  0     0  0  0  0  0  0999 V2000
    8.9282   -7.1550    0.0000 Cl  0  0  0  0  0  0  0  0  0  0  0  0
   10.6603   -8.1550    0.0000 Cl  0  0  0  0  0  0  0  0  0  0  0  0
    2.0000    3.8450    0.0000 F   0  0  0  0  0  0  0  0  0  0  0  0
    3.7320    0.8450    0.0000 O   0  0  0  0  0  0  0  0  0  0  0  0
    5.4641    0.8450    0.0000 O   0  0  0  0  0  0  0  0  0  0  0  0
    6.3301    6.3450    0.0000 O   0  0  0  0  0  0  0  0  0  0  0  0
    7.1962   -4.1550    0.0000 N   0  0  0  0  0  0  0  0  0  0  0  0
    8.9282   -5.1550    0.0000 N   0  0  0  0  0  0  0  0  0  0  0  0
    4.5981   -0.6550    0.0000 N   0  0  0  0  0  0  0  0  0  0  0  0
    5.4641    7.8450    0.0000 N   0  0  0  0  0  0  0  0  0  0  0  0
    8.0622   -3.6550    0.0000 C   0  0  0  0  0  0  0  0  0  0  0  0
    7.1962   -5.1550    0.0000 C   0  0  0  0  0  0  0  0  0  0  0  0
    8.9282   -4.1550    0.0000 C   0  0  0  0  0  0  0  0  0  0  0  0
    8.0622   -5.6550    0.0000 C   0  0  0  0  0  0  0  0  0  0  0  0
    6.3301   -3.6550    0.0000 C   0  0  0  0  0  0  0  0  0  0  0  0
    6.3301   -2.6550    0.0000 C   0  0  0  0  0  0  0  0  0  0  0  0
    9.7942   -5.6550    0.0000 C   0  0  0  0  0  0  0  0  0  0  0  0
    5.4641   -2.1550    0.0000 C   0  0  0  0  0  0  0  0  0  0  0  0
    5.4641   -1.1550    0.0000 C   0  0  0  0  0  0  0  0  0  0  0  0
    9.7942   -6.6550    0.0000 C   0  0  0  0  0  0  0  0  0  0  0  0
   10.6603   -5.1550    0.0000 C   0  0  0  0  0  0  0  0  0  0  0  0
   10.6603   -7.1550    0.0000 C   0  0  0  0  0  0  0  0  0  0  0  0
   11.5263   -5.6550    0.0000 C   0  0  0  0  0  0  0  0  0  0  0  0
   11.5263   -6.6550    0.0000 C   0  0  0  0  0  0  0  0  0  0  0  0
    4.5981    0.3450    0.0000 C   0  0  0  0  0  0  0  0  0  0  0  0
    3.7320    1.8450    0.0000 C   0  0  0  0  0  0  0  0  0  0  0  0
    3.7320    3.8450    0.0000 C   0  0  0  0  0  0  0  0  0  0  0  0
    2.8660    2.3450    0.0000 C   0  0  0  0  0  0  0  0  0  0  0  0
    4.5981    2.3450    0.0000 C   0  0  0  0  0  0  0  0  0  0  0  0
    3.7320    4.8450    0.0000 C   0  0  0  0  0  0  0  0  0  0  0  0
    2.8660    3.3450    0.0000 C   0  0  0  0  0  0  0  0  0  0  0  0
    4.5981    3.3450    0.0000 C   0  0  0  0  0  0  0  0  0  0  0  0
    4.5981    5.3450    0.0000 C   0  0  0  0  0  0  0  0  0  0  0  0
    2.8660    5.3450    0.0000 C   0  0  0  0  0  0  0  0  0  0  0  0
    4.5981    6.3450    0.0000 C   0  0  0  0  0  0  0  0  0  0  0  0
    2.8660    6.3450    0.0000 C   0  0  0  0  0  0  0  0  0  0  0  0
    3.7320    6.8450    0.0000 C   0  0  0  0  0  0  0  0  0  0  0  0
    5.4641    6.8450    0.0000 C   0  0  0  0  0  0  0  0  0  0  0  0
    8.4607   -3.1800    0.0000 H   0  0  0  0  0  0  0  0  0  0  0  0
    7.6636   -3.1800    0.0000 H   0  0  0  0  0  0  0  0  0  0  0  0
    6.5856   -5.0473    0.0000 H   0  0  0  0  0  0  0  0  0  0  0  0
    6.9841   -5.7376    0.0000 H   0  0  0  0  0  0  0  0  0  0  0  0
    9.5388   -4.2627    0.0000 H   0  0  0  0  0  0  0  0  0  0  0  0
    9.1403   -3.5724    0.0000 H   0  0  0  0  0  0  0  0  0  0  0  0
    7.6636   -6.1300    0.0000 H   0  0  0  0  0  0  0  0  0  0  0  0
    8.4607   -6.1300    0.0000 H   0  0  0  0  0  0  0  0  0  0  0  0
    5.7196   -3.5473    0.0000 H   0  0  0  0  0  0  0  0  0  0  0  0
    6.1181   -4.2376    0.0000 H   0  0  0  0  0  0  0  0  0  0  0  0
    6.9407   -2.7627    0.0000 H   0  0  0  0  0  0  0  0  0  0  0  0
    6.5422   -2.0724    0.0000 H   0  0  0  0  0  0  0  0  0  0  0  0
    4.8535   -2.0473    0.0000 H   0  0  0  0  0  0  0  0  0  0  0  0
    5.2520   -2.7376    0.0000 H   0  0  0  0  0  0  0  0  0  0  0  0
    6.0747   -1.2627    0.0000 H   0  0  0  0  0  0  0  0  0  0  0  0
    5.6762   -0.5724    0.0000 H   0  0  0  0  0  0  0  0  0  0  0  0
   10.6603   -4.5350    0.0000 H   0  0  0  0  0  0  0  0  0  0  0  0
   12.0632   -5.3450    0.0000 H   0  0  0  0  0  0  0  0  0  0  0  0
    4.0611   -0.9650    0.0000 H   0  0  0  0  0  0  0  0  0  0  0  0
   12.0632   -6.9650    0.0000 H   0  0  0  0  0  0  0  0  0  0  0  0
    2.3291    2.0350    0.0000 H   0  0  0  0  0  0  0  0  0  0  0  0
    5.1350    2.0350    0.0000 H   0  0  0  0  0  0  0  0  0  0  0  0
    5.1350    3.6550    0.0000 H   0  0  0  0  0  0  0  0  0  0  0  0
    5.1350    5.0350    0.0000 H   0  0  0  0  0  0  0  0  0  0  0  0
    2.3291    5.0350    0.0000 H   0  0  0  0  0  0  0  0  0  0  0  0
    2.3291    6.6550    0.0000 H   0  0  0  0  0  0  0  0  0  0  0  0
    3.7320    7.4650    0.0000 H   0  0  0  0  0  0  0  0  0  0  0  0
    6.0010    8.1550    0.0000 H   0  0  0  0  0  0  0  0  0  0  0  0
    4.9272    8.1550    0.0000 H   0  0  0  0  0  0  0  0  0  0  0  0
  1 20  1  0  0  0  0
  2 22  1  0  0  0  0
  3 31  1  0  0  0  0
  4 25  1  0  0  0  0
  4 26  1  0  0  0  0
  5 25  2  0  0  0  0
  6 38  2  0  0  0  0
  7 11  1  0  0  0  0
  7 12  1  0  0  0  0
  7 15  1  0  0  0  0
  8 13  1  0  0  0  0
  8 14  1  0  0  0  0
  8 17  1  0  0  0  0
  9 19  1  0  0  0  0
  9 25  1  0  0  0  0
  9 57  1  0  0  0  0
 10 38  1  0  0  0  0
 10 66  1  0  0  0  0
 10 67  1  0  0  0  0
 11 13  1  0  0  0  0
 11 39  1  0  0  0  0
 11 40  1  0  0  0  0
 12 14  1  0  0  0  0
 12 41  1  0  0  0  0
 12 42  1  0  0  0  0
 13 43  1  0  0  0  0
 13 44  1  0  0  0  0
 14 45  1  0  0  0  0
 14 46  1  0  0  0  0
 15 16  1  0  0  0  0
 15 47  1  0  0  0  0
 15 48  1  0  0  0  0
 16 18  1  0  0  0  0
 16 49  1  0  0  0  0
 16 50  1  0  0  0  0
 17 20  2  0  0  0  0
 17 21  1  0  0  0  0
 18 19  1  0  0  0  0
 18 51  1  0  0  0  0
 18 52  1  0  0  0  0
 19 53  1  0  0  0  0
 19 54  1  0  0  0  0
 20 22  1  0  0  0  0
 21 23  2  0  0  0  0
 21 55  1  0  0  0  0
 22 24  2  0  0  0  0
 23 24  1  0  0  0  0
 23 56  1  0  0  0  0
 24 58  1  0  0  0  0
 26 28  2  0  0  0  0
 26 29  1  0  0  0  0
 27 30  1  0  0  0  0
 27 31  2  0  0  0  0
 27 32  1  0  0  0  0
 28 31  1  0  0  0  0
 28 59  1  0  0  0  0
 29 32  2  0  0  0  0
 29 60  1  0  0  0  0
 30 33  2  0  0  0  0
 30 34  1  0  0  0  0
 32 61  1  0  0  0  0
 33 35  1  0  0  0  0
 33 62  1  0  0  0  0
 34 36  2  0  0  0  0
 34 63  1  0  0  0  0
 35 37  2  0  0  0  0
 35 38  1  0  0  0  0
 36 37  1  0  0  0  0
 36 64  1  0  0  0  0
 37 65  1  0  0  0  0
M  END
> <PUBCHEM_COMPOUND_CID>
90467021

> <PUBCHEM_COMPOUND_CANONICALIZED>
1

> <PUBCHEM_CACTVS_COMPLEXITY>
772

> <PUBCHEM_CACTVS_HBOND_ACCEPTOR>
6

> <PUBCHEM_CACTVS_HBOND_DONOR>
2

> <PUBCHEM_CACTVS_ROTATABLE_BOND>
10

> <PUBCHEM_CACTVS_SUBSKEYS>
AAADceB7sQAGAAAAAAAAAAAAAAAAAAAAAAA8YMEAAAAAAAABUAAAHwIQAAAADA7BmCwwzoPABACIAiVSWACCCAAlJwAIisEObskMZjLFt5vcMyhk1hHI6YeYyPCOoAACAAIAABRAAAQABAAAKAAAAAAAAA==

> <PUBCHEM_IUPAC_OPENEYE_NAME>
[4-(3-carbamoylphenyl)-3-fluoro-phenyl] N-[4-[4-(2,3-dichlorophenyl)piperazin-1-yl]butyl]carbamate

> <PUBCHEM_IUPAC_CAS_NAME>
N-[4-[4-(2,3-dichlorophenyl)-1-piperazinyl]butyl]carbamic acid [4-(3-carbamoylphenyl)-3-fluorophenyl] ester

> <PUBCHEM_IUPAC_NAME_MARKUP>
[4-(3-carbamoylphenyl)-3-fluorophenyl] <I>N</I>-[4-[4-(2,3-dichlorophenyl)piperazin-1-yl]butyl]carbamate

> <PUBCHEM_IUPAC_NAME>
[4-(3-carbamoylphenyl)-3-fluorophenyl] N-[4-[4-(2,3-dichlorophenyl)piperazin-1-yl]butyl]carbamate

> <PUBCHEM_IUPAC_SYSTEMATIC_NAME>
[4-(3-aminocarbonylphenyl)-3-fluoranyl-phenyl] N-[4-[4-[2,3-bis(chloranyl)phenyl]piperazin-1-yl]butyl]carbamate

> <PUBCHEM_IUPAC_TRADITIONAL_NAME>
N-[4-[4-(2,3-dichlorophenyl)piperazino]butyl]carbamic acid [4-(3-carbamoylphenyl)-3-fluoro-phenyl] ester

> <PUBCHEM_IUPAC_INCHI>
InChI=1S/C28H29Cl2FN4O3/c29-23-7-4-8-25(26(23)30)35-15-13-34(14-16-35)12-2-1-11-33-28(37)38-21-9-10-22(24(31)18-21)19-5-3-6-20(17-19)27(32)36/h3-10,17-18H,1-2,11-16H2,(H2,32,36)(H,33,37)

> <PUBCHEM_IUPAC_INCHIKEY>
ZVKININMNUXUKG-UHFFFAOYSA-N

> <PUBCHEM_XLOGP3_AA>
5.7

> <PUBCHEM_EXACT_MASS>
558.1600743

> <PUBCHEM_MOLECULAR_FORMULA>
C28H29Cl2FN4O3

> <PUBCHEM_MOLECULAR_WEIGHT>
559.5

> <PUBCHEM_OPENEYE_CAN_SMILES>
C1CN(CCN1CCCCNC(=O)OC2=CC(=C(C=C2)C3=CC(=CC=C3)C(=O)N)F)C4=C(C(=CC=C4)Cl)Cl

> <PUBCHEM_OPENEYE_ISO_SMILES>
C1CN(CCN1CCCCNC(=O)OC2=CC(=C(C=C2)C3=CC(=CC=C3)C(=O)N)F)C4=C(C(=CC=C4)Cl)Cl

> <PUBCHEM_CACTVS_TPSA>
87.9

> <PUBCHEM_MONOISOTOPIC_WEIGHT>
558.1600743

> <PUBCHEM_TOTAL_CHARGE>
0

> <PUBCHEM_HEAVY_ATOM_COUNT>
38

> <PUBCHEM_ATOM_DEF_STEREO_COUNT>
0

> <PUBCHEM_ATOM_UDEF_STEREO_COUNT>
0

> <PUBCHEM_BOND_DEF_STEREO_COUNT>
0

> <PUBCHEM_BOND_UDEF_STEREO_COUNT>
0

> <PUBCHEM_ISOTOPIC_ATOM_COUNT>
0

> <PUBCHEM_COMPONENT_COUNT>
1

> <PUBCHEM_CACTVS_TAUTO_COUNT>
-1

> <PUBCHEM_COORDINATE_TYPE>
1
5
255

> <PUBCHEM_BONDANNOTATIONS>
17  20  8
17  21  8
20  22  8
21  23  8
22  24  8
23  24  8
26  28  8
26  29  8
27  31  8
27  32  8
28  31  8
29  32  8
30  33  8
30  34  8
33  35  8
34  36  8
35  37  8
36  37  8

$$$$
