72737723
  -OEChem-09292322082D

 44 46  0     1  0  0  0  0  0999 V2000
    9.7942   -4.0000    0.0000 Cl  0  0  0  0  0  0  0  0  0  0  0  0
    6.3301    1.0000    0.0000 O   0  0  0  0  0  0  0  0  0  0  0  0
    6.3301   -1.0000    0.0000 N   0  0  3  0  0  0  0  0  0  0  0  0
    5.4641    0.5000    0.0000 C   0  0  1  0  0  0  0  0  0  0  0  0
    5.4641   -0.5000    0.0000 C   0  0  0  0  0  0  0  0  0  0  0  0
    4.5981    1.0000    0.0000 C   0  0  0  0  0  0  0  0  0  0  0  0
    7.1962   -0.5000    0.0000 C   0  0  0  0  0  0  0  0  0  0  0  0
    7.1962    0.5000    0.0000 C   0  0  0  0  0  0  0  0  0  0  0  0
    6.3301   -2.0000    0.0000 C   0  0  0  0  0  0  0  0  0  0  0  0
    4.5981    2.0000    0.0000 C   0  0  0  0  0  0  0  0  0  0  0  0
    7.1962   -2.5000    0.0000 C   0  0  0  0  0  0  0  0  0  0  0  0
    3.7320    2.5000    0.0000 C   0  0  0  0  0  0  0  0  0  0  0  0
    8.0622   -2.0000    0.0000 C   0  0  0  0  0  0  0  0  0  0  0  0
    7.1962   -3.5000    0.0000 C   0  0  0  0  0  0  0  0  0  0  0  0
    3.7320    3.5000    0.0000 C   0  0  0  0  0  0  0  0  0  0  0  0
    2.8660    2.0000    0.0000 C   0  0  0  0  0  0  0  0  0  0  0  0
    8.9282   -2.5000    0.0000 C   0  0  0  0  0  0  0  0  0  0  0  0
    8.0622   -4.0000    0.0000 C   0  0  0  0  0  0  0  0  0  0  0  0
    2.8660    4.0000    0.0000 C   0  0  0  0  0  0  0  0  0  0  0  0
    2.0000    2.5000    0.0000 C   0  0  0  0  0  0  0  0  0  0  0  0
    8.9282   -3.5000    0.0000 C   0  0  0  0  0  0  0  0  0  0  0  0
    2.0000    3.5000    0.0000 C   0  0  0  0  0  0  0  0  0  0  0  0
    5.4641    1.1200    0.0000 H   0  0  0  0  0  0  0  0  0  0  0  0
    4.8535   -0.3923    0.0000 H   0  0  0  0  0  0  0  0  0  0  0  0
    5.2520   -1.0826    0.0000 H   0  0  0  0  0  0  0  0  0  0  0  0
    3.9875    1.1077    0.0000 H   0  0  0  0  0  0  0  0  0  0  0  0
    4.3860    0.4174    0.0000 H   0  0  0  0  0  0  0  0  0  0  0  0
    7.4082   -1.0826    0.0000 H   0  0  0  0  0  0  0  0  0  0  0  0
    7.8067   -0.3923    0.0000 H   0  0  0  0  0  0  0  0  0  0  0  0
    7.8067    0.3923    0.0000 H   0  0  0  0  0  0  0  0  0  0  0  0
    7.4082    1.0826    0.0000 H   0  0  0  0  0  0  0  0  0  0  0  0
    5.7196   -1.8923    0.0000 H   0  0  0  0  0  0  0  0  0  0  0  0
    6.1181   -2.5826    0.0000 H   0  0  0  0  0  0  0  0  0  0  0  0
    5.2087    1.8923    0.0000 H   0  0  0  0  0  0  0  0  0  0  0  0
    4.8101    2.5826    0.0000 H   0  0  0  0  0  0  0  0  0  0  0  0
    8.0622   -1.3800    0.0000 H   0  0  0  0  0  0  0  0  0  0  0  0
    6.6592   -3.8100    0.0000 H   0  0  0  0  0  0  0  0  0  0  0  0
    4.2690    3.8100    0.0000 H   0  0  0  0  0  0  0  0  0  0  0  0
    2.8660    1.3800    0.0000 H   0  0  0  0  0  0  0  0  0  0  0  0
    9.4651   -2.1900    0.0000 H   0  0  0  0  0  0  0  0  0  0  0  0
    8.0622   -4.6200    0.0000 H   0  0  0  0  0  0  0  0  0  0  0  0
    2.8660    4.6200    0.0000 H   0  0  0  0  0  0  0  0  0  0  0  0
    1.4631    2.1900    0.0000 H   0  0  0  0  0  0  0  0  0  0  0  0
    1.4631    3.8100    0.0000 H   0  0  0  0  0  0  0  0  0  0  0  0
  1 21  1  0  0  0  0
  2  4  1  0  0  0  0
  2  8  1  0  0  0  0
  3  5  1  0  0  0  0
  3  7  1  0  0  0  0
  3  9  1  0  0  0  0
  4  5  1  0  0  0  0
  4  6  1  1  0  0  0
  4 23  1  0  0  0  0
  5 24  1  0  0  0  0
  5 25  1  0  0  0  0
  6 10  1  0  0  0  0
  6 26  1  0  0  0  0
  6 27  1  0  0  0  0
  7  8  1  0  0  0  0
  7 28  1  0  0  0  0
  7 29  1  0  0  0  0
  8 30  1  0  0  0  0
  8 31  1  0  0  0  0
  9 11  1  0  0  0  0
  9 32  1  0  0  0  0
  9 33  1  0  0  0  0
 10 12  1  0  0  0  0
 10 34  1  0  0  0  0
 10 35  1  0  0  0  0
 11 13  2  0  0  0  0
 11 14  1  0  0  0  0
 12 15  2  0  0  0  0
 12 16  1  0  0  0  0
 13 17  1  0  0  0  0
 13 36  1  0  0  0  0
 14 18  2  0  0  0  0
 14 37  1  0  0  0  0
 15 19  1  0  0  0  0
 15 38  1  0  0  0  0
 16 20  2  0  0  0  0
 16 39  1  0  0  0  0
 17 21  2  0  0  0  0
 17 40  1  0  0  0  0
 18 21  1  0  0  0  0
 18 41  1  0  0  0  0
 19 22  2  0  0  0  0
 19 42  1  0  0  0  0
 20 22  1  0  0  0  0
 20 43  1  0  0  0  0
 22 44  1  0  0  0  0
M  END
> <PUBCHEM_COMPOUND_CID>
72737723

> <PUBCHEM_COMPOUND_CANONICALIZED>
1

> <PUBCHEM_CACTVS_COMPLEXITY>
311

> <PUBCHEM_CACTVS_HBOND_ACCEPTOR>
2

> <PUBCHEM_CACTVS_HBOND_DONOR>
0

> <PUBCHEM_CACTVS_ROTATABLE_BOND>
5

> <PUBCHEM_CACTVS_SUBSKEYS>
AAADceB6IAAEAAAAAAAAAAAAAAAAAAAAAAA8YIAAAAAAAAABQAAAHgIAAAAADBbhmCYwAIMABACAAiBCAACCAAAgBQAIiAAIBogKICKBkxGHIAhkgACYiAeQwKAOBAAAAAAAAAAIAAAAAAAAAAAAAAAAAA==

> <PUBCHEM_IUPAC_OPENEYE_NAME>
(2R)-4-[(4-chlorophenyl)methyl]-2-(2-phenylethyl)morpholine

> <PUBCHEM_IUPAC_CAS_NAME>
(2R)-4-[(4-chlorophenyl)methyl]-2-(2-phenylethyl)morpholine

> <PUBCHEM_IUPAC_NAME_MARKUP>
(2<I>R</I>)-4-[(4-chlorophenyl)methyl]-2-(2-phenylethyl)morpholine

> <PUBCHEM_IUPAC_NAME>
(2R)-4-[(4-chlorophenyl)methyl]-2-(2-phenylethyl)morpholine

> <PUBCHEM_IUPAC_SYSTEMATIC_NAME>
(2R)-4-[(4-chlorophenyl)methyl]-2-(2-phenylethyl)morpholine

> <PUBCHEM_IUPAC_TRADITIONAL_NAME>
(2R)-4-(4-chlorobenzyl)-2-phenethyl-morpholine

> <PUBCHEM_IUPAC_INCHI>
InChI=1S/C19H22ClNO/c20-18-9-6-17(7-10-18)14-21-12-13-22-19(15-21)11-8-16-4-2-1-3-5-16/h1-7,9-10,19H,8,11-15H2/t19-/m1/s1

> <PUBCHEM_IUPAC_INCHIKEY>
CVKXGRRJHJHUFY-LJQANCHMSA-N

> <PUBCHEM_XLOGP3_AA>
4.4

> <PUBCHEM_EXACT_MASS>
315.1389920

> <PUBCHEM_MOLECULAR_FORMULA>
C19H22ClNO

> <PUBCHEM_MOLECULAR_WEIGHT>
315.8

> <PUBCHEM_OPENEYE_CAN_SMILES>
C1COC(CN1CC2=CC=C(C=C2)Cl)CCC3=CC=CC=C3

> <PUBCHEM_OPENEYE_ISO_SMILES>
C1CO[C@@H](CN1CC2=CC=C(C=C2)Cl)CCC3=CC=CC=C3

> <PUBCHEM_CACTVS_TPSA>
12.5

> <PUBCHEM_MONOISOTOPIC_WEIGHT>
315.1389920

> <PUBCHEM_TOTAL_CHARGE>
0

> <PUBCHEM_HEAVY_ATOM_COUNT>
22

> <PUBCHEM_ATOM_DEF_STEREO_COUNT>
1

> <PUBCHEM_ATOM_UDEF_STEREO_COUNT>
0

> <PUBCHEM_BOND_DEF_STEREO_COUNT>
0

> <PUBCHEM_BOND_UDEF_STEREO_COUNT>
0

> <PUBCHEM_ISOTOPIC_ATOM_COUNT>
0

> <PUBCHEM_COMPONENT_COUNT>
1

> <PUBCHEM_CACTVS_TAUTO_COUNT>
-1

> <PUBCHEM_COORDINATE_TYPE>
1
5
255

> <PUBCHEM_BONDANNOTATIONS>
11  13  8
11  14  8
12  15  8
12  16  8
13  17  8
14  18  8
15  19  8
16  20  8
17  21  8
18  21  8
19  22  8
20  22  8
4  6  5

$$$$
