168294543
  -OEChem-09292322442D

 57 59  0     0  0  0  0  0  0999 V2000
    4.3473    1.5000    0.0000 O   0  0  0  0  0  0  0  0  0  0  0  0
    6.9454    1.0000    0.0000 O   0  0  0  0  0  0  0  0  0  0  0  0
    5.2134    0.0000    0.0000 O   0  0  0  0  0  0  0  0  0  0  0  0
    6.0794    2.5000    0.0000 O   0  0  0  0  0  0  0  0  0  0  0  0
    5.7935    6.8632    0.0000 N   0  0  0  0  0  0  0  0  0  0  0  0
    7.7506    6.4508    0.0000 N   0  0  0  0  0  0  0  0  0  0  0  0
    3.2152    9.1767    0.0000 N   0  0  0  0  0  0  0  0  0  0  0  0
    6.1042    5.9127    0.0000 C   0  0  0  0  0  0  0  0  0  0  0  0
    6.4614    7.6075    0.0000 C   0  0  0  0  0  0  0  0  0  0  0  0
    7.0827    5.7065    0.0000 C   0  0  0  0  0  0  0  0  0  0  0  0
    7.4399    7.4013    0.0000 C   0  0  0  0  0  0  0  0  0  0  0  0
    4.8150    7.0695    0.0000 C   0  0  0  0  0  0  0  0  0  0  0  0
    4.5044    8.0200    0.0000 C   0  0  0  0  0  0  0  0  0  0  0  0
    3.5259    8.2262    0.0000 C   0  0  0  0  0  0  0  0  0  0  0  0
    8.7291    6.2446    0.0000 C   0  0  0  0  0  0  0  0  0  0  0  0
    2.2690    9.4814    0.0000 C   0  0  0  0  0  0  0  0  0  0  0  0
    9.0397    5.2941    0.0000 C   0  0  0  0  0  0  0  0  0  0  0  0
    9.3969    6.9889    0.0000 C   0  0  0  0  0  0  0  0  0  0  0  0
    3.7988    9.9814    0.0000 C   0  0  0  0  0  0  0  0  0  0  0  0
    2.2690   10.4814    0.0000 C   0  0  0  0  0  0  0  0  0  0  0  0
    3.2152   10.7862    0.0000 C   0  0  0  0  0  0  0  0  0  0  0  0
    1.4030    8.9814    0.0000 C   0  0  0  0  0  0  0  0  0  0  0  0
   10.0182    5.0878    0.0000 C   0  0  0  0  0  0  0  0  0  0  0  0
   10.3754    6.7827    0.0000 C   0  0  0  0  0  0  0  0  0  0  0  0
    1.4030   10.9814    0.0000 C   0  0  0  0  0  0  0  0  0  0  0  0
   10.6861    5.8321    0.0000 C   0  0  0  0  0  0  0  0  0  0  0  0
    0.5369    9.4814    0.0000 C   0  0  0  0  0  0  0  0  0  0  0  0
    0.5369   10.4814    0.0000 C   0  0  0  0  0  0  0  0  0  0  0  0
    5.2134    1.0000    0.0000 C   0  0  0  0  0  0  0  0  0  0  0  0
    6.0794    1.5000    0.0000 C   0  0  0  0  0  0  0  0  0  0  0  0
    5.4904    5.8254    0.0000 H   0  0  0  0  0  0  0  0  0  0  0  0
    6.0836    5.2931    0.0000 H   0  0  0  0  0  0  0  0  0  0  0  0
    6.6926    8.1828    0.0000 H   0  0  0  0  0  0  0  0  0  0  0  0
    5.9350    7.9352    0.0000 H   0  0  0  0  0  0  0  0  0  0  0  0
    6.8514    5.1312    0.0000 H   0  0  0  0  0  0  0  0  0  0  0  0
    7.6091    5.3789    0.0000 H   0  0  0  0  0  0  0  0  0  0  0  0
    8.0537    7.4887    0.0000 H   0  0  0  0  0  0  0  0  0  0  0  0
    7.4605    8.0210    0.0000 H   0  0  0  0  0  0  0  0  0  0  0  0
    4.2012    6.9821    0.0000 H   0  0  0  0  0  0  0  0  0  0  0  0
    4.7945    6.4498    0.0000 H   0  0  0  0  0  0  0  0  0  0  0  0
    5.1182    8.1073    0.0000 H   0  0  0  0  0  0  0  0  0  0  0  0
    4.5249    8.6396    0.0000 H   0  0  0  0  0  0  0  0  0  0  0  0
    2.9120    8.1388    0.0000 H   0  0  0  0  0  0  0  0  0  0  0  0
    3.5053    7.6065    0.0000 H   0  0  0  0  0  0  0  0  0  0  0  0
    4.4188    9.9814    0.0000 H   0  0  0  0  0  0  0  0  0  0  0  0
    8.6257    4.8326    0.0000 H   0  0  0  0  0  0  0  0  0  0  0  0
    9.2043    7.5782    0.0000 H   0  0  0  0  0  0  0  0  0  0  0  0
    3.4078   11.3755    0.0000 H   0  0  0  0  0  0  0  0  0  0  0  0
    1.4030    8.3614    0.0000 H   0  0  0  0  0  0  0  0  0  0  0  0
   10.2108    4.4985    0.0000 H   0  0  0  0  0  0  0  0  0  0  0  0
   10.7895    7.2441    0.0000 H   0  0  0  0  0  0  0  0  0  0  0  0
    1.4030   11.6014    0.0000 H   0  0  0  0  0  0  0  0  0  0  0  0
   11.2927    5.7043    0.0000 H   0  0  0  0  0  0  0  0  0  0  0  0
    0.0000    9.1714    0.0000 H   0  0  0  0  0  0  0  0  0  0  0  0
    0.0000   10.7914    0.0000 H   0  0  0  0  0  0  0  0  0  0  0  0
    3.8104    1.1900    0.0000 H   0  0  0  0  0  0  0  0  0  0  0  0
    7.4824    1.3100    0.0000 H   0  0  0  0  0  0  0  0  0  0  0  0
  1 29  1  0  0  0  0
  1 56  1  0  0  0  0
  2 30  1  0  0  0  0
  2 57  1  0  0  0  0
  3 29  2  0  0  0  0
  4 30  2  0  0  0  0
  5  8  1  0  0  0  0
  5  9  1  0  0  0  0
  5 12  1  0  0  0  0
  6 10  1  0  0  0  0
  6 11  1  0  0  0  0
  6 15  1  0  0  0  0
  7 14  1  0  0  0  0
  7 16  1  0  0  0  0
  7 19  1  0  0  0  0
  8 10  1  0  0  0  0
  8 31  1  0  0  0  0
  8 32  1  0  0  0  0
  9 11  1  0  0  0  0
  9 33  1  0  0  0  0
  9 34  1  0  0  0  0
 10 35  1  0  0  0  0
 10 36  1  0  0  0  0
 11 37  1  0  0  0  0
 11 38  1  0  0  0  0
 12 13  1  0  0  0  0
 12 39  1  0  0  0  0
 12 40  1  0  0  0  0
 13 14  1  0  0  0  0
 13 41  1  0  0  0  0
 13 42  1  0  0  0  0
 14 43  1  0  0  0  0
 14 44  1  0  0  0  0
 15 17  2  0  0  0  0
 15 18  1  0  0  0  0
 16 20  1  0  0  0  0
 16 22  2  0  0  0  0
 17 23  1  0  0  0  0
 17 46  1  0  0  0  0
 18 24  2  0  0  0  0
 18 47  1  0  0  0  0
 19 21  2  0  0  0  0
 19 45  1  0  0  0  0
 20 21  1  0  0  0  0
 20 25  2  0  0  0  0
 21 48  1  0  0  0  0
 22 27  1  0  0  0  0
 22 49  1  0  0  0  0
 23 26  2  0  0  0  0
 23 50  1  0  0  0  0
 24 26  1  0  0  0  0
 24 51  1  0  0  0  0
 25 28  1  0  0  0  0
 25 52  1  0  0  0  0
 26 53  1  0  0  0  0
 27 28  2  0  0  0  0
 27 54  1  0  0  0  0
 28 55  1  0  0  0  0
 29 30  1  0  0  0  0
M  END
> <PUBCHEM_COMPOUND_CID>
168294543

> <PUBCHEM_COMPOUND_CANONICALIZED>
1

> <PUBCHEM_CACTVS_COMPLEXITY>
443

> <PUBCHEM_CACTVS_HBOND_ACCEPTOR>
6

> <PUBCHEM_CACTVS_HBOND_DONOR>
2

> <PUBCHEM_CACTVS_ROTATABLE_BOND>
6

> <PUBCHEM_CACTVS_SUBSKEYS>
AAADceB7OAAAAAAAAAAAAAAAAAAAAWAAAAA8YIAAAAAAAFgB9AAAHgAACAAADAjBngQ8yPMMEgCoAzT3TAKCgCAxAiAI2CB4ZJgJYOLA0ZGUIAhggADJyAcQgIAOAAAAAAACAAAAAAAAAAQAAAAAAAAAAA==

> <PUBCHEM_IUPAC_OPENEYE_NAME>
oxalic acid;1-[3-(4-phenylpiperazin-1-yl)propyl]indole

> <PUBCHEM_IUPAC_CAS_NAME>
oxalic acid;1-[3-(4-phenyl-1-piperazinyl)propyl]indole

> <PUBCHEM_IUPAC_NAME_MARKUP>
oxalic acid;1-[3-(4-phenylpiperazin-1-yl)propyl]indole

> <PUBCHEM_IUPAC_NAME>
oxalic acid;1-[3-(4-phenylpiperazin-1-yl)propyl]indole

> <PUBCHEM_IUPAC_SYSTEMATIC_NAME>
ethanedioic acid;1-[3-(4-phenylpiperazin-1-yl)propyl]indole

> <PUBCHEM_IUPAC_TRADITIONAL_NAME>
oxalic acid;1-[3-(4-phenylpiperazino)propyl]indole

> <PUBCHEM_IUPAC_INCHI>
InChI=1S/C21H25N3.C2H2O4/c1-2-8-20(9-3-1)23-17-15-22(16-18-23)12-6-13-24-14-11-19-7-4-5-10-21(19)24;3-1(4)2(5)6/h1-5,7-11,14H,6,12-13,15-18H2;(H,3,4)(H,5,6)

> <PUBCHEM_IUPAC_INCHIKEY>
WLWPYQLTNYBQBG-UHFFFAOYSA-N

> <PUBCHEM_EXACT_MASS>
409.20015635

> <PUBCHEM_MOLECULAR_FORMULA>
C23H27N3O4

> <PUBCHEM_MOLECULAR_WEIGHT>
409.5

> <PUBCHEM_OPENEYE_CAN_SMILES>
C1CN(CCN1CCCN2C=CC3=CC=CC=C32)C4=CC=CC=C4.C(=O)(C(=O)O)O

> <PUBCHEM_OPENEYE_ISO_SMILES>
C1CN(CCN1CCCN2C=CC3=CC=CC=C32)C4=CC=CC=C4.C(=O)(C(=O)O)O

> <PUBCHEM_CACTVS_TPSA>
86

> <PUBCHEM_MONOISOTOPIC_WEIGHT>
409.20015635

> <PUBCHEM_TOTAL_CHARGE>
0

> <PUBCHEM_HEAVY_ATOM_COUNT>
30

> <PUBCHEM_ATOM_DEF_STEREO_COUNT>
0

> <PUBCHEM_ATOM_UDEF_STEREO_COUNT>
0

> <PUBCHEM_BOND_DEF_STEREO_COUNT>
0

> <PUBCHEM_BOND_UDEF_STEREO_COUNT>
0

> <PUBCHEM_ISOTOPIC_ATOM_COUNT>
0

> <PUBCHEM_COMPONENT_COUNT>
2

> <PUBCHEM_CACTVS_TAUTO_COUNT>
-1

> <PUBCHEM_COORDINATE_TYPE>
1
5
255

> <PUBCHEM_BONDANNOTATIONS>
15  17  8
15  18  8
16  20  8
16  22  8
17  23  8
18  24  8
19  21  8
20  21  8
20  25  8
22  27  8
23  26  8
24  26  8
25  28  8
27  28  8
7  16  8
7  19  8

$$$$
