73671218
  -OEChem-09292322052D

 67 70  0     0  0  0  0  0  0999 V2000
    2.0000   -3.0981    0.0000 Cl  0  0  0  0  0  0  0  0  0  0  0  0
   17.1279    3.0981    0.0000 F   0  0  0  0  0  0  0  0  0  0  0  0
   15.7619    2.7320    0.0000 F   0  0  0  0  0  0  0  0  0  0  0  0
   17.4939    1.7320    0.0000 F   0  0  0  0  0  0  0  0  0  0  0  0
    7.6279   -2.9641    0.0000 O   0  0  0  0  0  0  0  0  0  0  0  0
   11.6279    0.5000    0.0000 N   0  0  0  0  0  0  0  0  0  0  0  0
   13.6279    0.5000    0.0000 N   0  0  0  0  0  0  0  0  0  0  0  0
   15.1279   -0.3660    0.0000 N   0  0  0  0  0  0  0  0  0  0  0  0
   16.6279    0.5000    0.0000 N   0  0  0  0  0  0  0  0  0  0  0  0
    7.6279   -1.2320    0.0000 N   0  0  0  0  0  0  0  0  0  0  0  0
    4.5981   -2.5981    0.0000 N   0  0  0  0  0  0  0  0  0  0  0  0
    5.5443   -1.2933    0.0000 N   0  0  0  0  0  0  0  0  0  0  0  0
    3.7320   -3.0981    0.0000 N   0  0  0  0  0  0  0  0  0  0  0  0
   12.1279   -0.3660    0.0000 C   0  0  0  0  0  0  0  0  0  0  0  0
   12.1279    1.3660    0.0000 C   0  0  0  0  0  0  0  0  0  0  0  0
   13.1279   -0.3660    0.0000 C   0  0  0  0  0  0  0  0  0  0  0  0
   13.1279    1.3660    0.0000 C   0  0  0  0  0  0  0  0  0  0  0  0
   10.6279    0.5000    0.0000 C   0  0  0  0  0  0  0  0  0  0  0  0
   10.1279   -0.3660    0.0000 C   0  0  0  0  0  0  0  0  0  0  0  0
   14.6279    0.5000    0.0000 C   0  0  0  0  0  0  0  0  0  0  0  0
    9.1279   -0.3660    0.0000 C   0  0  0  0  0  0  0  0  0  0  0  0
   16.6279   -1.2320    0.0000 C   0  0  0  0  0  0  0  0  0  0  0  0
   16.1279   -0.3660    0.0000 C   0  0  0  0  0  0  0  0  0  0  0  0
   15.1279    1.3660    0.0000 C   0  0  0  0  0  0  0  0  0  0  0  0
    8.6279   -1.2320    0.0000 C   0  0  0  0  0  0  0  0  0  0  0  0
   16.1279    1.3660    0.0000 C   0  0  0  0  0  0  0  0  0  0  0  0
   17.1279   -2.0981    0.0000 C   0  0  0  0  0  0  0  0  0  0  0  0
   17.4939   -0.7321    0.0000 C   0  0  0  0  0  0  0  0  0  0  0  0
   15.7619   -1.7320    0.0000 C   0  0  0  0  0  0  0  0  0  0  0  0
   16.6279    2.2320    0.0000 C   0  0  0  0  0  0  0  0  0  0  0  0
    7.1279   -2.0981    0.0000 C   0  0  0  0  0  0  0  0  0  0  0  0
    6.1279   -2.0981    0.0000 C   0  0  0  0  0  0  0  0  0  0  0  0
    5.5443   -2.9028    0.0000 C   0  0  0  0  0  0  0  0  0  0  0  0
    4.5981   -1.5981    0.0000 C   0  0  0  0  0  0  0  0  0  0  0  0
    3.7320   -1.0981    0.0000 C   0  0  0  0  0  0  0  0  0  0  0  0
    2.8660   -1.5981    0.0000 C   0  0  0  0  0  0  0  0  0  0  0  0
    2.8660   -2.5981    0.0000 C   0  0  0  0  0  0  0  0  0  0  0  0
   11.5453   -0.5781    0.0000 H   0  0  0  0  0  0  0  0  0  0  0  0
   12.2356   -0.9766    0.0000 H   0  0  0  0  0  0  0  0  0  0  0  0
   12.2356    1.9766    0.0000 H   0  0  0  0  0  0  0  0  0  0  0  0
   11.5453    1.5781    0.0000 H   0  0  0  0  0  0  0  0  0  0  0  0
   13.0202   -0.9766    0.0000 H   0  0  0  0  0  0  0  0  0  0  0  0
   13.7105   -0.5781    0.0000 H   0  0  0  0  0  0  0  0  0  0  0  0
   13.7105    1.5781    0.0000 H   0  0  0  0  0  0  0  0  0  0  0  0
   13.0202    1.9766    0.0000 H   0  0  0  0  0  0  0  0  0  0  0  0
   10.7356    1.1106    0.0000 H   0  0  0  0  0  0  0  0  0  0  0  0
   10.0453    0.7121    0.0000 H   0  0  0  0  0  0  0  0  0  0  0  0
   10.0202   -0.9766    0.0000 H   0  0  0  0  0  0  0  0  0  0  0  0
   10.7105   -0.5781    0.0000 H   0  0  0  0  0  0  0  0  0  0  0  0
    9.2356    0.2446    0.0000 H   0  0  0  0  0  0  0  0  0  0  0  0
    8.5453   -0.1540    0.0000 H   0  0  0  0  0  0  0  0  0  0  0  0
   14.8179    1.9030    0.0000 H   0  0  0  0  0  0  0  0  0  0  0  0
    8.5202   -1.8426    0.0000 H   0  0  0  0  0  0  0  0  0  0  0  0
    9.2105   -1.4441    0.0000 H   0  0  0  0  0  0  0  0  0  0  0  0
   16.5910   -2.4081    0.0000 H   0  0  0  0  0  0  0  0  0  0  0  0
   17.4379   -2.6350    0.0000 H   0  0  0  0  0  0  0  0  0  0  0  0
   17.6648   -1.7881    0.0000 H   0  0  0  0  0  0  0  0  0  0  0  0
   17.8039   -1.2690    0.0000 H   0  0  0  0  0  0  0  0  0  0  0  0
   18.0309   -0.4221    0.0000 H   0  0  0  0  0  0  0  0  0  0  0  0
   17.1839   -0.1951    0.0000 H   0  0  0  0  0  0  0  0  0  0  0  0
   15.4519   -1.1951    0.0000 H   0  0  0  0  0  0  0  0  0  0  0  0
   15.2249   -2.0420    0.0000 H   0  0  0  0  0  0  0  0  0  0  0  0
   16.0719   -2.2690    0.0000 H   0  0  0  0  0  0  0  0  0  0  0  0
    7.3179   -0.6951    0.0000 H   0  0  0  0  0  0  0  0  0  0  0  0
    5.7369   -3.4921    0.0000 H   0  0  0  0  0  0  0  0  0  0  0  0
    3.7320   -0.4781    0.0000 H   0  0  0  0  0  0  0  0  0  0  0  0
    2.3291   -1.2881    0.0000 H   0  0  0  0  0  0  0  0  0  0  0  0
  1 37  1  0  0  0  0
  2 30  1  0  0  0  0
  3 30  1  0  0  0  0
  4 30  1  0  0  0  0
  5 31  2  0  0  0  0
  6 14  1  0  0  0  0
  6 15  1  0  0  0  0
  6 18  1  0  0  0  0
  7 16  1  0  0  0  0
  7 17  1  0  0  0  0
  7 20  1  0  0  0  0
  8 20  2  0  0  0  0
  8 23  1  0  0  0  0
  9 23  2  0  0  0  0
  9 26  1  0  0  0  0
 10 25  1  0  0  0  0
 10 31  1  0  0  0  0
 10 64  1  0  0  0  0
 11 13  1  0  0  0  0
 11 33  1  0  0  0  0
 11 34  1  0  0  0  0
 12 32  1  0  0  0  0
 12 34  2  0  0  0  0
 13 37  2  0  0  0  0
 14 16  1  0  0  0  0
 14 38  1  0  0  0  0
 14 39  1  0  0  0  0
 15 17  1  0  0  0  0
 15 40  1  0  0  0  0
 15 41  1  0  0  0  0
 16 42  1  0  0  0  0
 16 43  1  0  0  0  0
 17 44  1  0  0  0  0
 17 45  1  0  0  0  0
 18 19  1  0  0  0  0
 18 46  1  0  0  0  0
 18 47  1  0  0  0  0
 19 21  1  0  0  0  0
 19 48  1  0  0  0  0
 19 49  1  0  0  0  0
 20 24  1  0  0  0  0
 21 25  1  0  0  0  0
 21 50  1  0  0  0  0
 21 51  1  0  0  0  0
 22 23  1  0  0  0  0
 22 27  1  0  0  0  0
 22 28  1  0  0  0  0
 22 29  1  0  0  0  0
 24 26  2  0  0  0  0
 24 52  1  0  0  0  0
 25 53  1  0  0  0  0
 25 54  1  0  0  0  0
 26 30  1  0  0  0  0
 27 55  1  0  0  0  0
 27 56  1  0  0  0  0
 27 57  1  0  0  0  0
 28 58  1  0  0  0  0
 28 59  1  0  0  0  0
 28 60  1  0  0  0  0
 29 61  1  0  0  0  0
 29 62  1  0  0  0  0
 29 63  1  0  0  0  0
 31 32  1  0  0  0  0
 32 33  2  0  0  0  0
 33 65  1  0  0  0  0
 34 35  1  0  0  0  0
 35 36  2  0  0  0  0
 35 66  1  0  0  0  0
 36 37  1  0  0  0  0
 36 67  1  0  0  0  0
M  END
> <PUBCHEM_COMPOUND_CID>
73671218

> <PUBCHEM_COMPOUND_CANONICALIZED>
1

> <PUBCHEM_CACTVS_COMPLEXITY>
761

> <PUBCHEM_CACTVS_HBOND_ACCEPTOR>
10

> <PUBCHEM_CACTVS_HBOND_DONOR>
1

> <PUBCHEM_CACTVS_ROTATABLE_BOND>
8

> <PUBCHEM_CACTVS_SUBSKEYS>
AAADceB74YAEAAAAAAAAAAAAAAAAAWAAAAAsWLAAAAAAAFgB+AAAHwIYAAAADgrBlzQ/sJ/IEACqATd3dACShC83l6Ad2KG4dtiIaMhByuEUhIhIHgLAQOAAAAAAAAAAAAAAAAAAAAAAAAAAAAAAAAAAAA==

> <PUBCHEM_IUPAC_OPENEYE_NAME>
N-[4-[4-[2-tert-butyl-6-(trifluoromethyl)pyrimidin-4-yl]piperazin-1-yl]butyl]-6-chloro-imidazo[1,2-b]pyridazine-2-carboxamide

> <PUBCHEM_IUPAC_CAS_NAME>
N-[4-[4-[2-tert-butyl-6-(trifluoromethyl)-4-pyrimidinyl]-1-piperazinyl]butyl]-6-chloro-2-imidazo[1,2-b]pyridazinecarboxamide

> <PUBCHEM_IUPAC_NAME_MARKUP>
<I>N</I>-[4-[4-[2-<I>tert</I>-butyl-6-(trifluoromethyl)pyrimidin-4-yl]piperazin-1-yl]butyl]-6-chloroimidazo[1,2-b]pyridazine-2-carboxamide

> <PUBCHEM_IUPAC_NAME>
N-[4-[4-[2-tert-butyl-6-(trifluoromethyl)pyrimidin-4-yl]piperazin-1-yl]butyl]-6-chloroimidazo[1,2-b]pyridazine-2-carboxamide

> <PUBCHEM_IUPAC_SYSTEMATIC_NAME>
N-[4-[4-[2-tert-butyl-6-(trifluoromethyl)pyrimidin-4-yl]piperazin-1-yl]butyl]-6-chloranyl-imidazo[1,2-b]pyridazine-2-carboxamide

> <PUBCHEM_IUPAC_TRADITIONAL_NAME>
N-[4-[4-[2-tert-butyl-6-(trifluoromethyl)pyrimidin-4-yl]piperazino]butyl]-6-chloro-imidazo[1,2-b]pyridazine-2-carboxamide

> <PUBCHEM_IUPAC_INCHI>
InChI=1S/C24H30ClF3N8O/c1-23(2,3)22-31-17(24(26,27)28)14-20(32-22)35-12-10-34(11-13-35)9-5-4-8-29-21(37)16-15-36-19(30-16)7-6-18(25)33-36/h6-7,14-15H,4-5,8-13H2,1-3H3,(H,29,37)

> <PUBCHEM_IUPAC_INCHIKEY>
VCZAICHKRVTUHW-UHFFFAOYSA-N

> <PUBCHEM_XLOGP3_AA>
4.5

> <PUBCHEM_EXACT_MASS>
538.2183198

> <PUBCHEM_MOLECULAR_FORMULA>
C24H30ClF3N8O

> <PUBCHEM_MOLECULAR_WEIGHT>
539.0

> <PUBCHEM_OPENEYE_CAN_SMILES>
CC(C)(C)C1=NC(=CC(=N1)N2CCN(CC2)CCCCNC(=O)C3=CN4C(=N3)C=CC(=N4)Cl)C(F)(F)F

> <PUBCHEM_OPENEYE_ISO_SMILES>
CC(C)(C)C1=NC(=CC(=N1)N2CCN(CC2)CCCCNC(=O)C3=CN4C(=N3)C=CC(=N4)Cl)C(F)(F)F

> <PUBCHEM_CACTVS_TPSA>
91.6

> <PUBCHEM_MONOISOTOPIC_WEIGHT>
538.2183198

> <PUBCHEM_TOTAL_CHARGE>
0

> <PUBCHEM_HEAVY_ATOM_COUNT>
37

> <PUBCHEM_ATOM_DEF_STEREO_COUNT>
0

> <PUBCHEM_ATOM_UDEF_STEREO_COUNT>
0

> <PUBCHEM_BOND_DEF_STEREO_COUNT>
0

> <PUBCHEM_BOND_UDEF_STEREO_COUNT>
0

> <PUBCHEM_ISOTOPIC_ATOM_COUNT>
0

> <PUBCHEM_COMPONENT_COUNT>
1

> <PUBCHEM_CACTVS_TAUTO_COUNT>
-1

> <PUBCHEM_COORDINATE_TYPE>
1
5
255

> <PUBCHEM_BONDANNOTATIONS>
11  13  8
11  33  8
11  34  8
12  32  8
12  34  8
13  37  8
20  24  8
24  26  8
32  33  8
34  35  8
35  36  8
36  37  8
8  20  8
8  23  8
9  23  8
9  26  8

$$$$
