168287240
  -OEChem-09292322442D

 52 55  0     0  0  0  0  0  0999 V2000
   13.0811    2.9779    0.0000 Cl  0  0  0  0  0  0  0  0  0  0  0  0
   13.7024    4.8789    0.0000 Cl  0  0  0  0  0  0  0  0  0  0  0  0
   11.1241    2.5655    0.0000 O   0  0  0  0  0  0  0  0  0  0  0  0
    4.6783   -4.8277    0.0000 N   0  0  0  0  0  0  0  0  0  0  0  0
    6.2781   -1.1110    0.0000 N   0  0  0  0  0  0  0  0  0  0  0  0
    8.8564    1.2025    0.0000 N   0  0  0  0  0  0  0  0  0  0  0  0
    7.5673    0.0458    0.0000 N   0  0  0  0  0  0  0  0  0  0  0  0
    7.9244   -1.6491    0.0000 N   0  0  0  0  0  0  0  0  0  0  0  0
    9.2136   -0.4923    0.0000 N   0  0  0  0  0  0  0  0  0  0  0  0
    9.5708   -2.1871    0.0000 N   0  0  0  0  0  0  0  0  0  0  0  0
    4.6783   -3.2182    0.0000 C   0  0  0  0  0  0  0  0  0  0  0  0
    4.9889   -2.2677    0.0000 C   0  0  0  0  0  0  0  0  0  0  0  0
    3.7320   -3.5230    0.0000 C   0  0  0  0  0  0  0  0  0  0  0  0
    3.7320   -4.5230    0.0000 C   0  0  0  0  0  0  0  0  0  0  0  0
    5.9674   -2.0615    0.0000 C   0  0  0  0  0  0  0  0  0  0  0  0
    5.2619   -4.0230    0.0000 C   0  0  0  0  0  0  0  0  0  0  0  0
    2.8660   -3.0230    0.0000 C   0  0  0  0  0  0  0  0  0  0  0  0
    2.8660   -5.0230    0.0000 C   0  0  0  0  0  0  0  0  0  0  0  0
    2.0000   -3.5230    0.0000 C   0  0  0  0  0  0  0  0  0  0  0  0
    2.0000   -4.5230    0.0000 C   0  0  0  0  0  0  0  0  0  0  0  0
    7.2566   -0.9048    0.0000 C   0  0  0  0  0  0  0  0  0  0  0  0
    9.8349    1.4087    0.0000 C   0  0  0  0  0  0  0  0  0  0  0  0
    8.5458    0.2520    0.0000 C   0  0  0  0  0  0  0  0  0  0  0  0
   10.1456    2.3592    0.0000 C   0  0  0  0  0  0  0  0  0  0  0  0
    8.9030   -1.4428    0.0000 C   0  0  0  0  0  0  0  0  0  0  0  0
   11.4348    3.5160    0.0000 C   0  0  0  0  0  0  0  0  0  0  0  0
   12.4133    3.7222    0.0000 C   0  0  0  0  0  0  0  0  0  0  0  0
   10.7669    4.2603    0.0000 C   0  0  0  0  0  0  0  0  0  0  0  0
   12.7239    4.6727    0.0000 C   0  0  0  0  0  0  0  0  0  0  0  0
   11.0776    5.2108    0.0000 C   0  0  0  0  0  0  0  0  0  0  0  0
   12.0561    5.4170    0.0000 C   0  0  0  0  0  0  0  0  0  0  0  0
    4.9684   -1.6481    0.0000 H   0  0  0  0  0  0  0  0  0  0  0  0
    4.3751   -2.1804    0.0000 H   0  0  0  0  0  0  0  0  0  0  0  0
    5.9880   -2.6812    0.0000 H   0  0  0  0  0  0  0  0  0  0  0  0
    6.5812   -2.1488    0.0000 H   0  0  0  0  0  0  0  0  0  0  0  0
    5.8819   -4.0230    0.0000 H   0  0  0  0  0  0  0  0  0  0  0  0
    4.8709   -5.4170    0.0000 H   0  0  0  0  0  0  0  0  0  0  0  0
    2.8660   -2.4030    0.0000 H   0  0  0  0  0  0  0  0  0  0  0  0
    2.8660   -5.6430    0.0000 H   0  0  0  0  0  0  0  0  0  0  0  0
    5.8640   -0.6495    0.0000 H   0  0  0  0  0  0  0  0  0  0  0  0
    1.4631   -3.2130    0.0000 H   0  0  0  0  0  0  0  0  0  0  0  0
    1.4631   -4.8330    0.0000 H   0  0  0  0  0  0  0  0  0  0  0  0
    9.8555    0.7891    0.0000 H   0  0  0  0  0  0  0  0  0  0  0  0
   10.4488    1.3214    0.0000 H   0  0  0  0  0  0  0  0  0  0  0  0
   10.1250    2.9789    0.0000 H   0  0  0  0  0  0  0  0  0  0  0  0
    9.5318    2.4466    0.0000 H   0  0  0  0  0  0  0  0  0  0  0  0
    8.4424    1.6640    0.0000 H   0  0  0  0  0  0  0  0  0  0  0  0
   10.1603    4.1324    0.0000 H   0  0  0  0  0  0  0  0  0  0  0  0
   10.6635    5.6723    0.0000 H   0  0  0  0  0  0  0  0  0  0  0  0
   10.1775   -2.0593    0.0000 H   0  0  0  0  0  0  0  0  0  0  0  0
    9.3782   -2.7765    0.0000 H   0  0  0  0  0  0  0  0  0  0  0  0
   12.2487    6.0063    0.0000 H   0  0  0  0  0  0  0  0  0  0  0  0
  1 27  1  0  0  0  0
  2 29  1  0  0  0  0
  3 24  1  0  0  0  0
  3 26  1  0  0  0  0
  4 14  1  0  0  0  0
  4 16  1  0  0  0  0
  4 37  1  0  0  0  0
  5 15  1  0  0  0  0
  5 21  1  0  0  0  0
  5 40  1  0  0  0  0
  6 22  1  0  0  0  0
  6 23  1  0  0  0  0
  6 47  1  0  0  0  0
  7 21  2  0  0  0  0
  7 23  1  0  0  0  0
  8 21  1  0  0  0  0
  8 25  2  0  0  0  0
  9 23  2  0  0  0  0
  9 25  1  0  0  0  0
 10 25  1  0  0  0  0
 10 50  1  0  0  0  0
 10 51  1  0  0  0  0
 11 12  1  0  0  0  0
 11 13  1  0  0  0  0
 11 16  2  0  0  0  0
 12 15  1  0  0  0  0
 12 32  1  0  0  0  0
 12 33  1  0  0  0  0
 13 14  1  0  0  0  0
 13 17  2  0  0  0  0
 14 18  2  0  0  0  0
 15 34  1  0  0  0  0
 15 35  1  0  0  0  0
 16 36  1  0  0  0  0
 17 19  1  0  0  0  0
 17 38  1  0  0  0  0
 18 20  1  0  0  0  0
 18 39  1  0  0  0  0
 19 20  2  0  0  0  0
 19 41  1  0  0  0  0
 20 42  1  0  0  0  0
 22 24  1  0  0  0  0
 22 43  1  0  0  0  0
 22 44  1  0  0  0  0
 24 45  1  0  0  0  0
 24 46  1  0  0  0  0
 26 27  2  0  0  0  0
 26 28  1  0  0  0  0
 27 29  1  0  0  0  0
 28 30  2  0  0  0  0
 28 48  1  0  0  0  0
 29 31  2  0  0  0  0
 30 31  1  0  0  0  0
 30 49  1  0  0  0  0
 31 52  1  0  0  0  0
M  END
> <PUBCHEM_COMPOUND_CID>
168287240

> <PUBCHEM_COMPOUND_CANONICALIZED>
1

> <PUBCHEM_CACTVS_COMPLEXITY>
548

> <PUBCHEM_CACTVS_HBOND_ACCEPTOR>
7

> <PUBCHEM_CACTVS_HBOND_DONOR>
4

> <PUBCHEM_CACTVS_ROTATABLE_BOND>
9

> <PUBCHEM_CACTVS_SUBSKEYS>
AAADceB7oAAGAAAAAAAAAAAAAAAAAWAAAAA8YIAAAAAAAFgB/AAAHgIQAAAADA7hniY91vbJlACgAzRnZACCiCkxJ+AJ2+A+b5iOLuPFu5uHOCjs0BPY6AeQwMAOgAAAAQACCAQAAAACAAQQCAAAAAAAAA==

> <PUBCHEM_IUPAC_OPENEYE_NAME>
N2-[2-(2,3-dichlorophenoxy)ethyl]-N4-[2-(1H-indol-3-yl)ethyl]-1,3,5-triazine-2,4,6-triamine

> <PUBCHEM_IUPAC_CAS_NAME>
N2-[2-(2,3-dichlorophenoxy)ethyl]-N4-[2-(1H-indol-3-yl)ethyl]-1,3,5-triazine-2,4,6-triamine

> <PUBCHEM_IUPAC_NAME_MARKUP>
2-<I>N</I>-[2-(2,3-dichlorophenoxy)ethyl]-4-<I>N</I>-[2-(1<I>H</I>-indol-3-yl)ethyl]-1,3,5-triazine-2,4,6-triamine

> <PUBCHEM_IUPAC_NAME>
2-N-[2-(2,3-dichlorophenoxy)ethyl]-4-N-[2-(1H-indol-3-yl)ethyl]-1,3,5-triazine-2,4,6-triamine

> <PUBCHEM_IUPAC_SYSTEMATIC_NAME>
N2-[2-[2,3-bis(chloranyl)phenoxy]ethyl]-N4-[2-(1H-indol-3-yl)ethyl]-1,3,5-triazine-2,4,6-triamine

> <PUBCHEM_IUPAC_TRADITIONAL_NAME>
[4-amino-6-[2-(2,3-dichlorophenoxy)ethylamino]-s-triazin-2-yl]-[2-(1H-indol-3-yl)ethyl]amine

> <PUBCHEM_IUPAC_INCHI>
InChI=1S/C21H21Cl2N7O/c22-15-5-3-7-17(18(15)23)31-11-10-26-21-29-19(24)28-20(30-21)25-9-8-13-12-27-16-6-2-1-4-14(13)16/h1-7,12,27H,8-11H2,(H4,24,25,26,28,29,30)

> <PUBCHEM_IUPAC_INCHIKEY>
XEZKYOPQXMSHAV-UHFFFAOYSA-N

> <PUBCHEM_XLOGP3_AA>
5.3

> <PUBCHEM_EXACT_MASS>
457.1184637

> <PUBCHEM_MOLECULAR_FORMULA>
C21H21Cl2N7O

> <PUBCHEM_MOLECULAR_WEIGHT>
458.3

> <PUBCHEM_OPENEYE_CAN_SMILES>
C1=CC=C2C(=C1)C(=CN2)CCNC3=NC(=NC(=N3)N)NCCOC4=C(C(=CC=C4)Cl)Cl

> <PUBCHEM_OPENEYE_ISO_SMILES>
C1=CC=C2C(=C1)C(=CN2)CCNC3=NC(=NC(=N3)N)NCCOC4=C(C(=CC=C4)Cl)Cl

> <PUBCHEM_CACTVS_TPSA>
114

> <PUBCHEM_MONOISOTOPIC_WEIGHT>
457.1184637

> <PUBCHEM_TOTAL_CHARGE>
0

> <PUBCHEM_HEAVY_ATOM_COUNT>
31

> <PUBCHEM_ATOM_DEF_STEREO_COUNT>
0

> <PUBCHEM_ATOM_UDEF_STEREO_COUNT>
0

> <PUBCHEM_BOND_DEF_STEREO_COUNT>
0

> <PUBCHEM_BOND_UDEF_STEREO_COUNT>
0

> <PUBCHEM_ISOTOPIC_ATOM_COUNT>
0

> <PUBCHEM_COMPONENT_COUNT>
1

> <PUBCHEM_CACTVS_TAUTO_COUNT>
-1

> <PUBCHEM_COORDINATE_TYPE>
1
5
255

> <PUBCHEM_BONDANNOTATIONS>
11  13  8
11  16  8
13  14  8
13  17  8
14  18  8
17  19  8
18  20  8
19  20  8
26  27  8
26  28  8
27  29  8
28  30  8
29  31  8
30  31  8
4  14  8
4  16  8
7  21  8
7  23  8
8  21  8
8  25  8
9  23  8
9  25  8

$$$$
