135515431
  -OEChem-09292322202D

 43 46  0     0  0  0  0  0  0999 V2000
    4.6222   -2.6035    0.0000 S   0  0  0  0  0  0  0  0  0  0  0  0
    2.6045   -3.1269    0.0000 O   0  0  0  0  0  0  0  0  0  0  0  0
    5.4440    0.5619    0.0000 N   0  0  0  0  0  0  0  0  0  0  0  0
    4.5762    2.3638    0.0000 N   0  0  0  0  0  0  0  0  0  0  0  0
    6.8779   -0.3391    0.0000 N   0  0  0  0  0  0  0  0  0  0  0  0
    6.3778   -2.5297    0.0000 N   0  0  0  0  0  0  0  0  0  0  0  0
    6.0073    1.3881    0.0000 C   0  0  0  0  0  0  0  0  0  0  0  0
    4.4468    0.6366    0.0000 C   0  0  0  0  0  0  0  0  0  0  0  0
    5.5734    2.2891    0.0000 C   0  0  0  0  0  0  0  0  0  0  0  0
    4.0129    1.5376    0.0000 C   0  0  0  0  0  0  0  0  0  0  0  0
    5.8779   -0.3391    0.0000 C   0  0  0  0  0  0  0  0  0  0  0  0
    5.2544   -1.1209    0.0000 C   0  0  0  0  0  0  0  0  0  0  0  0
    4.1424    3.2648    0.0000 C   0  0  0  0  0  0  0  0  0  0  0  0
    5.4769   -2.0958    0.0000 C   0  0  0  0  0  0  0  0  0  0  0  0
    4.2641   -1.0344    0.0000 C   0  0  0  0  0  0  0  0  0  0  0  0
    7.5014   -1.1209    0.0000 C   0  0  0  0  0  0  0  0  0  0  0  0
    7.2788   -2.0958    0.0000 C   0  0  0  0  0  0  0  0  0  0  0  0
    3.8742   -1.9488    0.0000 C   0  0  0  0  0  0  0  0  0  0  0  0
    8.4918   -0.7986    0.0000 C   0  0  0  0  0  0  0  0  0  0  0  0
    2.8992   -2.1713    0.0000 C   0  0  0  0  0  0  0  0  0  0  0  0
    8.0314   -2.8160    0.0000 C   0  0  0  0  0  0  0  0  0  0  0  0
    9.2608   -1.5012    0.0000 C   0  0  0  0  0  0  0  0  0  0  0  0
    9.0291   -2.5167    0.0000 C   0  0  0  0  0  0  0  0  0  0  0  0
    6.4512    0.9552    0.0000 H   0  0  0  0  0  0  0  0  0  0  0  0
    6.5107    1.7500    0.0000 H   0  0  0  0  0  0  0  0  0  0  0  0
    3.8500    0.4687    0.0000 H   0  0  0  0  0  0  0  0  0  0  0  0
    4.5085    0.0197    0.0000 H   0  0  0  0  0  0  0  0  0  0  0  0
    6.1703    2.4570    0.0000 H   0  0  0  0  0  0  0  0  0  0  0  0
    5.5117    2.9060    0.0000 H   0  0  0  0  0  0  0  0  0  0  0  0
    3.5691    1.9705    0.0000 H   0  0  0  0  0  0  0  0  0  0  0  0
    3.5095    1.1757    0.0000 H   0  0  0  0  0  0  0  0  0  0  0  0
    4.7010    3.5338    0.0000 H   0  0  0  0  0  0  0  0  0  0  0  0
    3.8734    3.8234    0.0000 H   0  0  0  0  0  0  0  0  0  0  0  0
    3.5838    2.9958    0.0000 H   0  0  0  0  0  0  0  0  0  0  0  0
    3.9452   -0.5027    0.0000 H   0  0  0  0  0  0  0  0  0  0  0  0
    6.3778   -3.1497    0.0000 H   0  0  0  0  0  0  0  0  0  0  0  0
    8.6228   -0.1926    0.0000 H   0  0  0  0  0  0  0  0  0  0  0  0
    2.8683   -1.5521    0.0000 H   0  0  0  0  0  0  0  0  0  0  0  0
    2.2840   -2.0942    0.0000 H   0  0  0  0  0  0  0  0  0  0  0  0
    7.8864   -3.4188    0.0000 H   0  0  0  0  0  0  0  0  0  0  0  0
    9.8526   -1.3162    0.0000 H   0  0  0  0  0  0  0  0  0  0  0  0
    9.4819   -2.9402    0.0000 H   0  0  0  0  0  0  0  0  0  0  0  0
    2.0000   -3.2648    0.0000 H   0  0  0  0  0  0  0  0  0  0  0  0
  1 14  1  0  0  0  0
  1 18  1  0  0  0  0
  2 20  1  0  0  0  0
  2 43  1  0  0  0  0
  3  7  1  0  0  0  0
  3  8  1  0  0  0  0
  3 11  1  0  0  0  0
  4  9  1  0  0  0  0
  4 10  1  0  0  0  0
  4 13  1  0  0  0  0
  5 11  2  0  0  0  0
  5 16  1  0  0  0  0
  6 14  1  0  0  0  0
  6 17  1  0  0  0  0
  6 36  1  0  0  0  0
  7  9  1  0  0  0  0
  7 24  1  0  0  0  0
  7 25  1  0  0  0  0
  8 10  1  0  0  0  0
  8 26  1  0  0  0  0
  8 27  1  0  0  0  0
  9 28  1  0  0  0  0
  9 29  1  0  0  0  0
 10 30  1  0  0  0  0
 10 31  1  0  0  0  0
 11 12  1  0  0  0  0
 12 14  2  0  0  0  0
 12 15  1  0  0  0  0
 13 32  1  0  0  0  0
 13 33  1  0  0  0  0
 13 34  1  0  0  0  0
 15 18  2  0  0  0  0
 15 35  1  0  0  0  0
 16 17  1  0  0  0  0
 16 19  2  0  0  0  0
 17 21  2  0  0  0  0
 18 20  1  0  0  0  0
 19 22  1  0  0  0  0
 19 37  1  0  0  0  0
 20 38  1  0  0  0  0
 20 39  1  0  0  0  0
 21 23  1  0  0  0  0
 21 40  1  0  0  0  0
 22 23  2  0  0  0  0
 22 41  1  0  0  0  0
 23 42  1  0  0  0  0
M  END
> <PUBCHEM_COMPOUND_CID>
135515431

> <PUBCHEM_COMPOUND_CANONICALIZED>
1

> <PUBCHEM_CACTVS_COMPLEXITY>
452

> <PUBCHEM_CACTVS_HBOND_ACCEPTOR>
5

> <PUBCHEM_CACTVS_HBOND_DONOR>
2

> <PUBCHEM_CACTVS_ROTATABLE_BOND>
2

> <PUBCHEM_CACTVS_SUBSKEYS>
AAADceB7oABAAAAAAAAAAAAAAAAAASAAAAA8QAAABAAAAACBwAAAHgQQCAAADAjh2AYzwYPAAgikAiZiZACDAIFhChlJiBgofJgIduLg2ZGUcAhk0AHo2AeQEAIMAAAAAAAAACAAAAAAAAAAQAAAAAAAAA==

> <PUBCHEM_IUPAC_OPENEYE_NAME>
[4-(4-methylpiperazin-1-yl)-10H-thieno[2,3-b][1,5]benzodiazepin-2-yl]methanol

> <PUBCHEM_IUPAC_CAS_NAME>
[4-(4-methyl-1-piperazinyl)-10H-thieno[2,3-b][1,5]benzodiazepin-2-yl]methanol

> <PUBCHEM_IUPAC_NAME_MARKUP>
[4-(4-methylpiperazin-1-yl)-10<I>H</I>-thieno[2,3-b][1,5]benzodiazepin-2-yl]methanol

> <PUBCHEM_IUPAC_NAME>
[4-(4-methylpiperazin-1-yl)-10H-thieno[2,3-b][1,5]benzodiazepin-2-yl]methanol

> <PUBCHEM_IUPAC_SYSTEMATIC_NAME>
[4-(4-methylpiperazin-1-yl)-10H-thieno[2,3-b][1,5]benzodiazepin-2-yl]methanol

> <PUBCHEM_IUPAC_TRADITIONAL_NAME>
[4-(4-methylpiperazino)-10H-thieno[2,3-b][1,5]benzodiazepin-2-yl]methanol

> <PUBCHEM_IUPAC_INCHI>
InChI=1S/C17H20N4OS/c1-20-6-8-21(9-7-20)16-13-10-12(11-22)23-17(13)19-15-5-3-2-4-14(15)18-16/h2-5,10,19,22H,6-9,11H2,1H3

> <PUBCHEM_IUPAC_INCHIKEY>
FPDIERBPQFAFSI-UHFFFAOYSA-N

> <PUBCHEM_XLOGP3_AA>
1.6

> <PUBCHEM_EXACT_MASS>
328.13578245

> <PUBCHEM_MOLECULAR_FORMULA>
C17H20N4OS

> <PUBCHEM_MOLECULAR_WEIGHT>
328.4

> <PUBCHEM_OPENEYE_CAN_SMILES>
CN1CCN(CC1)C2=NC3=CC=CC=C3NC4=C2C=C(S4)CO

> <PUBCHEM_OPENEYE_ISO_SMILES>
CN1CCN(CC1)C2=NC3=CC=CC=C3NC4=C2C=C(S4)CO

> <PUBCHEM_CACTVS_TPSA>
79.3

> <PUBCHEM_MONOISOTOPIC_WEIGHT>
328.13578245

> <PUBCHEM_TOTAL_CHARGE>
0

> <PUBCHEM_HEAVY_ATOM_COUNT>
23

> <PUBCHEM_ATOM_DEF_STEREO_COUNT>
0

> <PUBCHEM_ATOM_UDEF_STEREO_COUNT>
0

> <PUBCHEM_BOND_DEF_STEREO_COUNT>
0

> <PUBCHEM_BOND_UDEF_STEREO_COUNT>
0

> <PUBCHEM_ISOTOPIC_ATOM_COUNT>
0

> <PUBCHEM_COMPONENT_COUNT>
1

> <PUBCHEM_CACTVS_TAUTO_COUNT>
-1

> <PUBCHEM_COORDINATE_TYPE>
1
5
255

> <PUBCHEM_BONDANNOTATIONS>
1  14  8
1  18  8
12  14  8
12  15  8
15  18  8
16  17  8
16  19  8
17  21  8
19  22  8
21  23  8
22  23  8

$$$$
