23202799
  -OEChem-09292322212D

 71 75  0     1  0  0  0  0  0999 V2000
   10.1467   -2.9033    0.0000 S   0  0  0  0  0  0  0  0  0  0  0  0
   13.1303   -3.2169    0.0000 O   0  0  0  0  0  0  0  0  0  0  0  0
   10.0422   -3.8978    0.0000 O   0  0  0  0  0  0  0  0  0  0  0  0
   10.2513   -1.9088    0.0000 O   0  0  0  0  0  0  0  0  0  0  0  0
    6.1686   -2.4852    0.0000 O   0  0  0  0  0  0  0  0  0  0  0  0
    5.3955    1.8353    0.0000 N   0  0  3  0  0  0  0  0  0  0  0  0
    6.3661   -0.6593    0.0000 N   0  0  0  0  0  0  0  0  0  0  0  0
   11.1412   -3.0078    0.0000 N   0  0  0  0  0  0  0  0  0  0  0  0
    4.4945    2.2691    0.0000 C   0  0  3  0  0  0  0  0  0  0  0  0
    4.2720    3.2441    0.0000 C   0  0  0  0  0  0  0  0  0  0  0  0
    6.2965    2.2691    0.0000 C   0  0  0  0  0  0  0  0  0  0  0  0
    4.8955    4.0259    0.0000 C   0  0  0  0  0  0  0  0  0  0  0  0
    6.5190    3.2441    0.0000 C   0  0  0  0  0  0  0  0  0  0  0  0
    5.8955    4.0259    0.0000 C   0  0  0  0  0  0  0  0  0  0  0  0
    5.3955    0.8353    0.0000 C   0  0  0  0  0  0  0  0  0  0  0  0
    3.7127    1.6457    0.0000 C   0  0  0  0  0  0  0  0  0  0  0  0
    6.2615    0.3353    0.0000 C   0  0  0  0  0  0  0  0  0  0  0  0
    3.8618    0.6568    0.0000 C   0  0  0  0  0  0  0  0  0  0  0  0
    2.7818    2.0110    0.0000 C   0  0  0  0  0  0  0  0  0  0  0  0
    7.1751    0.7420    0.0000 C   0  0  0  0  0  0  0  0  0  0  0  0
    7.3442   -0.8672    0.0000 C   0  0  0  0  0  0  0  0  0  0  0  0
    7.8442   -0.0011    0.0000 C   0  0  0  0  0  0  0  0  0  0  0  0
    7.7509   -1.7807    0.0000 C   0  0  0  0  0  0  0  0  0  0  0  0
    3.0799    0.0333    0.0000 C   0  0  0  0  0  0  0  0  0  0  0  0
    2.0000    1.3875    0.0000 C   0  0  0  0  0  0  0  0  0  0  0  0
   11.7290   -2.1988    0.0000 C   0  0  0  0  0  0  0  0  0  0  0  0
   11.5480   -3.9214    0.0000 C   0  0  0  0  0  0  0  0  0  0  0  0
    9.1522   -2.7988    0.0000 C   0  0  0  0  0  0  0  0  0  0  0  0
    8.7455   -1.8852    0.0000 C   0  0  0  0  0  0  0  0  0  0  0  0
    2.1490    0.3987    0.0000 C   0  0  0  0  0  0  0  0  0  0  0  0
   12.7236   -2.3034    0.0000 C   0  0  0  0  0  0  0  0  0  0  0  0
   12.5425   -4.0259    0.0000 C   0  0  0  0  0  0  0  0  0  0  0  0
    7.1632   -2.5897    0.0000 C   0  0  0  0  0  0  0  0  0  0  0  0
    8.5644   -3.6078    0.0000 C   0  0  0  0  0  0  0  0  0  0  0  0
    7.5699   -3.5033    0.0000 C   0  0  0  0  0  0  0  0  0  0  0  0
    5.5808   -3.2942    0.0000 C   0  0  0  0  0  0  0  0  0  0  0  0
    4.5640    1.6530    0.0000 H   0  0  0  0  0  0  0  0  0  0  0  0
    3.8854    3.7288    0.0000 H   0  0  0  0  0  0  0  0  0  0  0  0
    3.7134    2.9751    0.0000 H   0  0  0  0  0  0  0  0  0  0  0  0
    6.4344    1.6647    0.0000 H   0  0  0  0  0  0  0  0  0  0  0  0
    6.9165    2.2691    0.0000 H   0  0  0  0  0  0  0  0  0  0  0  0
    5.0335    4.6304    0.0000 H   0  0  0  0  0  0  0  0  0  0  0  0
    4.3369    4.2949    0.0000 H   0  0  0  0  0  0  0  0  0  0  0  0
    7.0776    2.9751    0.0000 H   0  0  0  0  0  0  0  0  0  0  0  0
    6.9056    3.7288    0.0000 H   0  0  0  0  0  0  0  0  0  0  0  0
    6.4541    4.2949    0.0000 H   0  0  0  0  0  0  0  0  0  0  0  0
    5.7575    4.6304    0.0000 H   0  0  0  0  0  0  0  0  0  0  0  0
    4.7849    0.9429    0.0000 H   0  0  0  0  0  0  0  0  0  0  0  0
    5.1834    0.2527    0.0000 H   0  0  0  0  0  0  0  0  0  0  0  0
    4.4389    0.4303    0.0000 H   0  0  0  0  0  0  0  0  0  0  0  0
    2.6894    2.6241    0.0000 H   0  0  0  0  0  0  0  0  0  0  0  0
    5.9053   -1.0741    0.0000 H   0  0  0  0  0  0  0  0  0  0  0  0
    7.3040    1.3485    0.0000 H   0  0  0  0  0  0  0  0  0  0  0  0
    8.4608    0.0637    0.0000 H   0  0  0  0  0  0  0  0  0  0  0  0
   11.8999   -1.6028    0.0000 H   0  0  0  0  0  0  0  0  0  0  0  0
   11.1718   -1.9270    0.0000 H   0  0  0  0  0  0  0  0  0  0  0  0
   10.9464   -4.0714    0.0000 H   0  0  0  0  0  0  0  0  0  0  0  0
   11.5912   -4.5399    0.0000 H   0  0  0  0  0  0  0  0  0  0  0  0
    3.1723   -0.5797    0.0000 H   0  0  0  0  0  0  0  0  0  0  0  0
    1.4229    1.6140    0.0000 H   0  0  0  0  0  0  0  0  0  0  0  0
    9.1099   -1.3836    0.0000 H   0  0  0  0  0  0  0  0  0  0  0  0
   13.3251   -2.1534    0.0000 H   0  0  0  0  0  0  0  0  0  0  0  0
   12.6803   -1.6849    0.0000 H   0  0  0  0  0  0  0  0  0  0  0  0
   12.3716   -4.6219    0.0000 H   0  0  0  0  0  0  0  0  0  0  0  0
   13.0998   -4.2977    0.0000 H   0  0  0  0  0  0  0  0  0  0  0  0
    1.6643    0.0121    0.0000 H   0  0  0  0  0  0  0  0  0  0  0  0
    8.8166   -4.1742    0.0000 H   0  0  0  0  0  0  0  0  0  0  0  0
    7.2055   -4.0049    0.0000 H   0  0  0  0  0  0  0  0  0  0  0  0
    5.0793   -2.9298    0.0000 H   0  0  0  0  0  0  0  0  0  0  0  0
    5.2164   -3.7958    0.0000 H   0  0  0  0  0  0  0  0  0  0  0  0
    6.0824   -3.6586    0.0000 H   0  0  0  0  0  0  0  0  0  0  0  0
  1  3  2  0  0  0  0
  1  4  2  0  0  0  0
  1  8  1  0  0  0  0
  1 28  1  0  0  0  0
  2 31  1  0  0  0  0
  2 32  1  0  0  0  0
  5 33  1  0  0  0  0
  5 36  1  0  0  0  0
  6  9  1  0  0  0  0
  6 11  1  0  0  0  0
  6 15  1  0  0  0  0
  7 17  1  0  0  0  0
  7 21  1  0  0  0  0
  7 52  1  0  0  0  0
  8 26  1  0  0  0  0
  8 27  1  0  0  0  0
  9 10  1  0  0  0  0
  9 16  1  0  0  0  0
  9 37  1  0  0  0  0
 10 12  1  0  0  0  0
 10 38  1  0  0  0  0
 10 39  1  0  0  0  0
 11 13  1  0  0  0  0
 11 40  1  0  0  0  0
 11 41  1  0  0  0  0
 12 14  1  0  0  0  0
 12 42  1  0  0  0  0
 12 43  1  0  0  0  0
 13 14  1  0  0  0  0
 13 44  1  0  0  0  0
 13 45  1  0  0  0  0
 14 46  1  0  0  0  0
 14 47  1  0  0  0  0
 15 17  1  0  0  0  0
 15 48  1  0  0  0  0
 15 49  1  0  0  0  0
 16 18  2  0  0  0  0
 16 19  1  0  0  0  0
 17 20  2  0  0  0  0
 18 24  1  0  0  0  0
 18 50  1  0  0  0  0
 19 25  2  0  0  0  0
 19 51  1  0  0  0  0
 20 22  1  0  0  0  0
 20 53  1  0  0  0  0
 21 22  2  0  0  0  0
 21 23  1  0  0  0  0
 22 54  1  0  0  0  0
 23 29  1  0  0  0  0
 23 33  2  0  0  0  0
 24 30  2  0  0  0  0
 24 59  1  0  0  0  0
 25 30  1  0  0  0  0
 25 60  1  0  0  0  0
 26 31  1  0  0  0  0
 26 55  1  0  0  0  0
 26 56  1  0  0  0  0
 27 32  1  0  0  0  0
 27 57  1  0  0  0  0
 27 58  1  0  0  0  0
 28 29  2  0  0  0  0
 28 34  1  0  0  0  0
 29 61  1  0  0  0  0
 30 66  1  0  0  0  0
 31 62  1  0  0  0  0
 31 63  1  0  0  0  0
 32 64  1  0  0  0  0
 32 65  1  0  0  0  0
 33 35  1  0  0  0  0
 34 35  2  0  0  0  0
 34 67  1  0  0  0  0
 35 68  1  0  0  0  0
 36 69  1  0  0  0  0
 36 70  1  0  0  0  0
 36 71  1  0  0  0  0
M  END
> <PUBCHEM_COMPOUND_CID>
23202799

> <PUBCHEM_COMPOUND_CANONICALIZED>
1

> <PUBCHEM_CACTVS_COMPLEXITY>
778

> <PUBCHEM_CACTVS_HBOND_ACCEPTOR>
6

> <PUBCHEM_CACTVS_HBOND_DONOR>
1

> <PUBCHEM_CACTVS_ROTATABLE_BOND>
7

> <PUBCHEM_CACTVS_SUBSKEYS>
AAADcfB7OABAAAAAAAAAAAAAAAAAAWAAAAA8YIAABYAAAAAB0AAAHgQQQAAADCzh3gYyh5PJlAKgAyRiRHDCiDAhIiAImTg+bJgOZuLEsZuXMChm0BHY6AeQwOAOAIAAgAAIAAABAAEAABAAAAAAAAAAAA==

> <PUBCHEM_IUPAC_OPENEYE_NAME>
4-[4-methoxy-3-[5-[(2-phenylazepan-1-yl)methyl]-1H-pyrrol-2-yl]phenyl]sulfonylmorpholine

> <PUBCHEM_IUPAC_CAS_NAME>
4-[4-methoxy-3-[5-[(2-phenyl-1-azepanyl)methyl]-1H-pyrrol-2-yl]phenyl]sulfonylmorpholine

> <PUBCHEM_IUPAC_NAME_MARKUP>
4-[4-methoxy-3-[5-[(2-phenylazepan-1-yl)methyl]-1<I>H</I>-pyrrol-2-yl]phenyl]sulfonylmorpholine

> <PUBCHEM_IUPAC_NAME>
4-[4-methoxy-3-[5-[(2-phenylazepan-1-yl)methyl]-1H-pyrrol-2-yl]phenyl]sulfonylmorpholine

> <PUBCHEM_IUPAC_SYSTEMATIC_NAME>
4-[4-methoxy-3-[5-[(2-phenylazepan-1-yl)methyl]-1H-pyrrol-2-yl]phenyl]sulfonylmorpholine

> <PUBCHEM_IUPAC_TRADITIONAL_NAME>
4-[4-methoxy-3-[5-[(2-phenylazepan-1-yl)methyl]-1H-pyrrol-2-yl]phenyl]sulfonylmorpholine

> <PUBCHEM_IUPAC_INCHI>
InChI=1S/C28H35N3O4S/c1-34-28-14-12-24(36(32,33)31-16-18-35-19-17-31)20-25(28)26-13-11-23(29-26)21-30-15-7-3-6-10-27(30)22-8-4-2-5-9-22/h2,4-5,8-9,11-14,20,27,29H,3,6-7,10,15-19,21H2,1H3

> <PUBCHEM_IUPAC_INCHIKEY>
KYKGECIXEATTSM-UHFFFAOYSA-N

> <PUBCHEM_XLOGP3_AA>
3.7

> <PUBCHEM_EXACT_MASS>
509.23482778

> <PUBCHEM_MOLECULAR_FORMULA>
C28H35N3O4S

> <PUBCHEM_MOLECULAR_WEIGHT>
509.7

> <PUBCHEM_OPENEYE_CAN_SMILES>
COC1=C(C=C(C=C1)S(=O)(=O)N2CCOCC2)C3=CC=C(N3)CN4CCCCCC4C5=CC=CC=C5

> <PUBCHEM_OPENEYE_ISO_SMILES>
COC1=C(C=C(C=C1)S(=O)(=O)N2CCOCC2)C3=CC=C(N3)CN4CCCCCC4C5=CC=CC=C5

> <PUBCHEM_CACTVS_TPSA>
83.2

> <PUBCHEM_MONOISOTOPIC_WEIGHT>
509.23482778

> <PUBCHEM_TOTAL_CHARGE>
0

> <PUBCHEM_HEAVY_ATOM_COUNT>
36

> <PUBCHEM_ATOM_DEF_STEREO_COUNT>
0

> <PUBCHEM_ATOM_UDEF_STEREO_COUNT>
1

> <PUBCHEM_BOND_DEF_STEREO_COUNT>
0

> <PUBCHEM_BOND_UDEF_STEREO_COUNT>
0

> <PUBCHEM_ISOTOPIC_ATOM_COUNT>
0

> <PUBCHEM_COMPONENT_COUNT>
1

> <PUBCHEM_CACTVS_TAUTO_COUNT>
-1

> <PUBCHEM_COORDINATE_TYPE>
1
5
255

> <PUBCHEM_BONDANNOTATIONS>
16  18  8
16  19  8
17  20  8
18  24  8
19  25  8
20  22  8
21  22  8
23  29  8
23  33  8
24  30  8
25  30  8
28  29  8
28  34  8
33  35  8
34  35  8
7  17  8
7  21  8
9  16  3

$$$$
