127042841
  -OEChem-09292322362D

 71 74  0     1  0  0  0  0  0999 V2000
    6.4641    3.0000    0.0000 S   0  0  0  0  0  0  0  0  0  0  0  0
    9.9282    5.0000    0.0000 F   0  0  0  0  0  0  0  0  0  0  0  0
    5.9641    3.8660    0.0000 O   0  0  0  0  0  0  0  0  0  0  0  0
    6.9641    2.1340    0.0000 O   0  0  0  0  0  0  0  0  0  0  0  0
    4.7320   -3.0000    0.0000 O   0  0  0  0  0  0  0  0  0  0  0  0
    5.5981    2.5000    0.0000 N   0  0  3  0  0  0  0  0  0  0  0  0
    5.5981   -0.5000    0.0000 N   0  0  0  0  0  0  0  0  0  0  0  0
    3.8660    2.5000    0.0000 C   0  0  0  0  0  0  0  0  0  0  0  0
    2.8660    2.5000    0.0000 C   0  0  0  0  0  0  0  0  0  0  0  0
    3.3660    1.6340    0.0000 C   0  0  0  0  0  0  0  0  0  0  0  0
    4.7320    3.0000    0.0000 C   0  0  0  0  0  0  0  0  0  0  0  0
    5.5981    1.5000    0.0000 C   0  0  0  0  0  0  0  0  0  0  0  0
    4.7320    1.0000    0.0000 C   0  0  0  0  0  0  0  0  0  0  0  0
    6.4641    1.0000    0.0000 C   0  0  0  0  0  0  0  0  0  0  0  0
    4.7320   -0.0000    0.0000 C   0  0  0  0  0  0  0  0  0  0  0  0
    6.4641   -0.0000    0.0000 C   0  0  0  0  0  0  0  0  0  0  0  0
    5.5981   -1.5000    0.0000 C   0  0  0  0  0  0  0  0  0  0  0  0
    7.3301    3.5000    0.0000 C   0  0  0  0  0  0  0  0  0  0  0  0
    4.7320   -2.0000    0.0000 C   0  0  0  0  0  0  0  0  0  0  0  0
    8.1962    3.0000    0.0000 C   0  0  0  0  0  0  0  0  0  0  0  0
    7.3301    4.5000    0.0000 C   0  0  0  0  0  0  0  0  0  0  0  0
    9.0622    3.5000    0.0000 C   0  0  0  0  0  0  0  0  0  0  0  0
    8.1962    5.0000    0.0000 C   0  0  0  0  0  0  0  0  0  0  0  0
    3.8660   -3.5000    0.0000 C   0  0  0  0  0  0  0  0  0  0  0  0
    3.0000   -2.0000    0.0000 C   0  0  0  0  0  0  0  0  0  0  0  0
    9.0622    4.5000    0.0000 C   0  0  0  0  0  0  0  0  0  0  0  0
    3.0000   -3.0000    0.0000 C   0  0  0  0  0  0  0  0  0  0  0  0
    2.0000   -2.0000    0.0000 C   0  0  0  0  0  0  0  0  0  0  0  0
    3.0000   -1.0000    0.0000 C   0  0  0  0  0  0  0  0  0  0  0  0
    4.0000   -2.0000    0.0000 C   0  0  0  0  0  0  0  0  0  0  0  0
    3.8660   -4.5000    0.0000 C   0  0  0  0  0  0  0  0  0  0  0  0
    2.1340   -3.5000    0.0000 C   0  0  0  0  0  0  0  0  0  0  0  0
    3.0000   -5.0000    0.0000 C   0  0  0  0  0  0  0  0  0  0  0  0
    2.1340   -4.5000    0.0000 C   0  0  0  0  0  0  0  0  0  0  0  0
    3.7056    3.0989    0.0000 H   0  0  0  0  0  0  0  0  0  0  0  0
    2.7584    3.1106    0.0000 H   0  0  0  0  0  0  0  0  0  0  0  0
    2.2834    2.2880    0.0000 H   0  0  0  0  0  0  0  0  0  0  0  0
    2.8911    1.2354    0.0000 H   0  0  0  0  0  0  0  0  0  0  0  0
    3.8410    1.2354    0.0000 H   0  0  0  0  0  0  0  0  0  0  0  0
    5.1306    3.4750    0.0000 H   0  0  0  0  0  0  0  0  0  0  0  0
    4.3335    3.4750    0.0000 H   0  0  0  0  0  0  0  0  0  0  0  0
    6.1350    1.8100    0.0000 H   0  0  0  0  0  0  0  0  0  0  0  0
    4.5200    1.5826    0.0000 H   0  0  0  0  0  0  0  0  0  0  0  0
    4.1215    0.8923    0.0000 H   0  0  0  0  0  0  0  0  0  0  0  0
    7.0747    0.8923    0.0000 H   0  0  0  0  0  0  0  0  0  0  0  0
    6.6762    1.5826    0.0000 H   0  0  0  0  0  0  0  0  0  0  0  0
    4.1215    0.1077    0.0000 H   0  0  0  0  0  0  0  0  0  0  0  0
    4.5200   -0.5826    0.0000 H   0  0  0  0  0  0  0  0  0  0  0  0
    6.6762   -0.5826    0.0000 H   0  0  0  0  0  0  0  0  0  0  0  0
    7.0747    0.1077    0.0000 H   0  0  0  0  0  0  0  0  0  0  0  0
    5.8101   -2.0826    0.0000 H   0  0  0  0  0  0  0  0  0  0  0  0
    6.2087   -1.3923    0.0000 H   0  0  0  0  0  0  0  0  0  0  0  0
    4.5200   -1.4174    0.0000 H   0  0  0  0  0  0  0  0  0  0  0  0
    4.1215   -2.1077    0.0000 H   0  0  0  0  0  0  0  0  0  0  0  0
    8.1962    2.3800    0.0000 H   0  0  0  0  0  0  0  0  0  0  0  0
    6.7932    4.8100    0.0000 H   0  0  0  0  0  0  0  0  0  0  0  0
    9.5991    3.1900    0.0000 H   0  0  0  0  0  0  0  0  0  0  0  0
    8.1962    5.6200    0.0000 H   0  0  0  0  0  0  0  0  0  0  0  0
    2.0000   -1.3800    0.0000 H   0  0  0  0  0  0  0  0  0  0  0  0
    1.3800   -2.0000    0.0000 H   0  0  0  0  0  0  0  0  0  0  0  0
    2.0000   -2.6200    0.0000 H   0  0  0  0  0  0  0  0  0  0  0  0
    3.6200   -1.0000    0.0000 H   0  0  0  0  0  0  0  0  0  0  0  0
    3.0000   -0.3800    0.0000 H   0  0  0  0  0  0  0  0  0  0  0  0
    2.3800   -1.0000    0.0000 H   0  0  0  0  0  0  0  0  0  0  0  0
    4.0000   -2.6200    0.0000 H   0  0  0  0  0  0  0  0  0  0  0  0
    4.6200   -2.0000    0.0000 H   0  0  0  0  0  0  0  0  0  0  0  0
    4.0000   -1.3800    0.0000 H   0  0  0  0  0  0  0  0  0  0  0  0
    4.4030   -4.8100    0.0000 H   0  0  0  0  0  0  0  0  0  0  0  0
    1.5970   -3.1900    0.0000 H   0  0  0  0  0  0  0  0  0  0  0  0
    3.0000   -5.6200    0.0000 H   0  0  0  0  0  0  0  0  0  0  0  0
    1.5970   -4.8100    0.0000 H   0  0  0  0  0  0  0  0  0  0  0  0
  1  3  2  0  0  0  0
  1  4  2  0  0  0  0
  1  6  1  0  0  0  0
  1 18  1  0  0  0  0
  2 26  1  0  0  0  0
  5 19  1  0  0  0  0
  5 24  1  0  0  0  0
  6 11  1  0  0  0  0
  6 12  1  0  0  0  0
  7 15  1  0  0  0  0
  7 16  1  0  0  0  0
  7 17  1  0  0  0  0
  8  9  1  0  0  0  0
  8 10  1  0  0  0  0
  8 11  1  0  0  0  0
  8 35  1  0  0  0  0
  9 10  1  0  0  0  0
  9 36  1  0  0  0  0
  9 37  1  0  0  0  0
 10 38  1  0  0  0  0
 10 39  1  0  0  0  0
 11 40  1  0  0  0  0
 11 41  1  0  0  0  0
 12 13  1  0  0  0  0
 12 14  1  0  0  0  0
 12 42  1  0  0  0  0
 13 15  1  0  0  0  0
 13 43  1  0  0  0  0
 13 44  1  0  0  0  0
 14 16  1  0  0  0  0
 14 45  1  0  0  0  0
 14 46  1  0  0  0  0
 15 47  1  0  0  0  0
 15 48  1  0  0  0  0
 16 49  1  0  0  0  0
 16 50  1  0  0  0  0
 17 19  1  0  0  0  0
 17 51  1  0  0  0  0
 17 52  1  0  0  0  0
 18 20  2  0  0  0  0
 18 21  1  0  0  0  0
 19 53  1  0  0  0  0
 19 54  1  0  0  0  0
 20 22  1  0  0  0  0
 20 55  1  0  0  0  0
 21 23  2  0  0  0  0
 21 56  1  0  0  0  0
 22 26  2  0  0  0  0
 22 57  1  0  0  0  0
 23 26  1  0  0  0  0
 23 58  1  0  0  0  0
 24 27  1  0  0  0  0
 24 31  2  0  0  0  0
 25 27  1  0  0  0  0
 25 28  1  0  0  0  0
 25 29  1  0  0  0  0
 25 30  1  0  0  0  0
 27 32  2  0  0  0  0
 28 59  1  0  0  0  0
 28 60  1  0  0  0  0
 28 61  1  0  0  0  0
 29 62  1  0  0  0  0
 29 63  1  0  0  0  0
 29 64  1  0  0  0  0
 30 65  1  0  0  0  0
 30 66  1  0  0  0  0
 30 67  1  0  0  0  0
 31 33  1  0  0  0  0
 31 68  1  0  0  0  0
 32 34  1  0  0  0  0
 32 69  1  0  0  0  0
 33 34  2  0  0  0  0
 33 70  1  0  0  0  0
 34 71  1  0  0  0  0
M  END
> <PUBCHEM_COMPOUND_CID>
127042841

> <PUBCHEM_COMPOUND_CANONICALIZED>
1

> <PUBCHEM_CACTVS_COMPLEXITY>
730

> <PUBCHEM_CACTVS_HBOND_ACCEPTOR>
6

> <PUBCHEM_CACTVS_HBOND_DONOR>
0

> <PUBCHEM_CACTVS_ROTATABLE_BOND>
10

> <PUBCHEM_CACTVS_SUBSKEYS>
AAADcfB7MQBAAAAAAAAAAAAAGAAAAAAAAAA8YIAAAAAAAAABQAAAHwQAQAAADyzh2A4yB4MABAKAAiBCAHBCCBAgIAAIiBgOCIgOJiKE8RqHOCCkwBGYqAeQwOAPgAAAAAAIAAAAAAAAABAAAAAAAAAAAA==

> <PUBCHEM_IUPAC_OPENEYE_NAME>
N-[1-[2-(2-tert-butylphenoxy)ethyl]-4-piperidyl]-N-(cyclopropylmethyl)-4-fluoro-benzenesulfonamide

> <PUBCHEM_IUPAC_CAS_NAME>
N-[1-[2-(2-tert-butylphenoxy)ethyl]-4-piperidinyl]-N-(cyclopropylmethyl)-4-fluorobenzenesulfonamide

> <PUBCHEM_IUPAC_NAME_MARKUP>
<I>N</I>-[1-[2-(2-<I>tert</I>-butylphenoxy)ethyl]piperidin-4-yl]-<I>N</I>-(cyclopropylmethyl)-4-fluorobenzenesulfonamide

> <PUBCHEM_IUPAC_NAME>
N-[1-[2-(2-tert-butylphenoxy)ethyl]piperidin-4-yl]-N-(cyclopropylmethyl)-4-fluorobenzenesulfonamide

> <PUBCHEM_IUPAC_SYSTEMATIC_NAME>
N-[1-[2-(2-tert-butylphenoxy)ethyl]piperidin-4-yl]-N-(cyclopropylmethyl)-4-fluoranyl-benzenesulfonamide

> <PUBCHEM_IUPAC_TRADITIONAL_NAME>
N-[1-[2-(2-tert-butylphenoxy)ethyl]-4-piperidyl]-N-(cyclopropylmethyl)-4-fluoro-benzenesulfonamide

> <PUBCHEM_IUPAC_INCHI>
InChI=1S/C27H37FN2O3S/c1-27(2,3)25-6-4-5-7-26(25)33-19-18-29-16-14-23(15-17-29)30(20-21-8-9-21)34(31,32)24-12-10-22(28)11-13-24/h4-7,10-13,21,23H,8-9,14-20H2,1-3H3

> <PUBCHEM_IUPAC_INCHIKEY>
KIDWAXFQMIFGTA-UHFFFAOYSA-N

> <PUBCHEM_XLOGP3_AA>
5.8

> <PUBCHEM_EXACT_MASS>
488.25089238

> <PUBCHEM_MOLECULAR_FORMULA>
C27H37FN2O3S

> <PUBCHEM_MOLECULAR_WEIGHT>
488.7

> <PUBCHEM_OPENEYE_CAN_SMILES>
CC(C)(C)C1=CC=CC=C1OCCN2CCC(CC2)N(CC3CC3)S(=O)(=O)C4=CC=C(C=C4)F

> <PUBCHEM_OPENEYE_ISO_SMILES>
CC(C)(C)C1=CC=CC=C1OCCN2CCC(CC2)N(CC3CC3)S(=O)(=O)C4=CC=C(C=C4)F

> <PUBCHEM_CACTVS_TPSA>
58.2

> <PUBCHEM_MONOISOTOPIC_WEIGHT>
488.25089238

> <PUBCHEM_TOTAL_CHARGE>
0

> <PUBCHEM_HEAVY_ATOM_COUNT>
34

> <PUBCHEM_ATOM_DEF_STEREO_COUNT>
0

> <PUBCHEM_ATOM_UDEF_STEREO_COUNT>
0

> <PUBCHEM_BOND_DEF_STEREO_COUNT>
0

> <PUBCHEM_BOND_UDEF_STEREO_COUNT>
0

> <PUBCHEM_ISOTOPIC_ATOM_COUNT>
0

> <PUBCHEM_COMPONENT_COUNT>
1

> <PUBCHEM_CACTVS_TAUTO_COUNT>
-1

> <PUBCHEM_COORDINATE_TYPE>
1
5
255

> <PUBCHEM_BONDANNOTATIONS>
18  20  8
18  21  8
20  22  8
21  23  8
22  26  8
23  26  8
24  27  8
24  31  8
27  32  8
31  33  8
32  34  8
33  34  8

$$$$
