12301195
  -OEChem-09292322482D

 39 42  0     1  0  0  0  0  0999 V2000
    2.8680    2.6052    0.0000 O   0  0  0  0  0  0  0  0  0  0  0  0
    7.2641    1.0810    0.0000 N   0  0  3  0  0  0  0  0  0  0  0  0
    6.3981    0.5810    0.0000 C   0  0  3  0  0  0  0  0  0  0  0  0
    7.2641    2.0810    0.0000 C   0  0  0  0  0  0  0  0  0  0  0  0
    8.1741    0.5742    0.0000 C   0  0  0  0  0  0  0  0  0  0  0  0
    5.5320    1.0810    0.0000 C   0  0  0  0  0  0  0  0  0  0  0  0
    6.3820   -0.4605    0.0000 C   0  0  0  0  0  0  0  0  0  0  0  0
    6.3981    2.5810    0.0000 C   0  0  0  0  0  0  0  0  0  0  0  0
    8.1821   -0.4674    0.0000 C   0  0  0  0  0  0  0  0  0  0  0  0
    5.5320    2.0810    0.0000 C   0  0  0  0  0  0  0  0  0  0  0  0
    7.2800   -0.9882    0.0000 C   0  0  0  0  0  0  0  0  0  0  0  0
    4.6381    0.5464    0.0000 C   0  0  0  0  0  0  0  0  0  0  0  0
    5.4301   -0.9811    0.0000 C   0  0  0  0  0  0  0  0  0  0  0  0
    4.6381    2.6157    0.0000 C   0  0  0  0  0  0  0  0  0  0  0  0
    7.2884   -2.0732    0.0000 C   0  0  0  0  0  0  0  0  0  0  0  0
    3.7320    1.0602    0.0000 C   0  0  0  0  0  0  0  0  0  0  0  0
    3.7320    2.1019    0.0000 C   0  0  0  0  0  0  0  0  0  0  0  0
    5.4134   -2.0660    0.0000 C   0  0  0  0  0  0  0  0  0  0  0  0
    6.3488   -2.6157    0.0000 C   0  0  0  0  0  0  0  0  0  0  0  0
    2.0000    2.1085    0.0000 C   0  0  0  0  0  0  0  0  0  0  0  0
    5.8588    0.2752    0.0000 H   0  0  0  0  0  0  0  0  0  0  0  0
    7.8747    1.9734    0.0000 H   0  0  0  0  0  0  0  0  0  0  0  0
    7.4762    2.6636    0.0000 H   0  0  0  0  0  0  0  0  0  0  0  0
    8.7858    0.4728    0.0000 H   0  0  0  0  0  0  0  0  0  0  0  0
    8.3786    1.1595    0.0000 H   0  0  0  0  0  0  0  0  0  0  0  0
    6.7966    3.0560    0.0000 H   0  0  0  0  0  0  0  0  0  0  0  0
    5.9995    3.0560    0.0000 H   0  0  0  0  0  0  0  0  0  0  0  0
    8.3957   -1.0495    0.0000 H   0  0  0  0  0  0  0  0  0  0  0  0
    8.7922   -0.3566    0.0000 H   0  0  0  0  0  0  0  0  0  0  0  0
    4.6453   -0.0736    0.0000 H   0  0  0  0  0  0  0  0  0  0  0  0
    4.8992   -0.6608    0.0000 H   0  0  0  0  0  0  0  0  0  0  0  0
    4.6453    3.2356    0.0000 H   0  0  0  0  0  0  0  0  0  0  0  0
    7.8265   -2.3811    0.0000 H   0  0  0  0  0  0  0  0  0  0  0  0
    3.1963    0.7481    0.0000 H   0  0  0  0  0  0  0  0  0  0  0  0
    4.8729   -2.3697    0.0000 H   0  0  0  0  0  0  0  0  0  0  0  0
    6.3464   -3.2357    0.0000 H   0  0  0  0  0  0  0  0  0  0  0  0
    1.6921    2.6466    0.0000 H   0  0  0  0  0  0  0  0  0  0  0  0
    1.4619    1.8006    0.0000 H   0  0  0  0  0  0  0  0  0  0  0  0
    2.3079    1.5704    0.0000 H   0  0  0  0  0  0  0  0  0  0  0  0
  1 17  1  0  0  0  0
  1 20  1  0  0  0  0
  2  3  1  0  0  0  0
  2  4  1  0  0  0  0
  2  5  1  0  0  0  0
  3  6  1  0  0  0  0
  3  7  1  0  0  0  0
  3 21  1  0  0  0  0
  4  8  1  0  0  0  0
  4 22  1  0  0  0  0
  4 23  1  0  0  0  0
  5  9  1  0  0  0  0
  5 24  1  0  0  0  0
  5 25  1  0  0  0  0
  6 10  2  0  0  0  0
  6 12  1  0  0  0  0
  7 11  1  0  0  0  0
  7 13  2  0  0  0  0
  8 10  1  0  0  0  0
  8 26  1  0  0  0  0
  8 27  1  0  0  0  0
  9 11  1  0  0  0  0
  9 28  1  0  0  0  0
  9 29  1  0  0  0  0
 10 14  1  0  0  0  0
 11 15  2  0  0  0  0
 12 16  2  0  0  0  0
 12 30  1  0  0  0  0
 13 18  1  0  0  0  0
 13 31  1  0  0  0  0
 14 17  2  0  0  0  0
 14 32  1  0  0  0  0
 15 19  1  0  0  0  0
 15 33  1  0  0  0  0
 16 17  1  0  0  0  0
 16 34  1  0  0  0  0
 18 19  2  0  0  0  0
 18 35  1  0  0  0  0
 19 36  1  0  0  0  0
 20 37  1  0  0  0  0
 20 38  1  0  0  0  0
 20 39  1  0  0  0  0
M  END
> <PUBCHEM_COMPOUND_CID>
12301195

> <PUBCHEM_COMPOUND_CANONICALIZED>
1

> <PUBCHEM_CACTVS_COMPLEXITY>
344

> <PUBCHEM_CACTVS_HBOND_ACCEPTOR>
2

> <PUBCHEM_CACTVS_HBOND_DONOR>
0

> <PUBCHEM_CACTVS_ROTATABLE_BOND>
1

> <PUBCHEM_CACTVS_SUBSKEYS>
AAADceB6IAAAAAAAAAAAAAAAAAAAAAAAAAA8eIEAAAAAAACxQAAAHgAAAAAADCzBmAYyBoMABACAAiBCAACCCAAgIAAIiAAODIgMJiKEsRuEMChkwBGIqAeQ0PMOoAABAAAQAABAAAIAACAAAAAAAAAAAA==

> <PUBCHEM_IUPAC_OPENEYE_NAME>
3-methoxy-6,8,9,13b-tetrahydro-5H-isoquinolino[1,2-a]isoquinoline

> <PUBCHEM_IUPAC_CAS_NAME>
3-methoxy-6,8,9,13b-tetrahydro-5H-isoquinolino[1,2-a]isoquinoline

> <PUBCHEM_IUPAC_NAME_MARKUP>
3-methoxy-6,8,9,13<I>b</I>-tetrahydro-5<I>H</I>-isoquinolino[1,2-a]isoquinoline

> <PUBCHEM_IUPAC_NAME>
3-methoxy-6,8,9,13b-tetrahydro-5H-isoquinolino[1,2-a]isoquinoline

> <PUBCHEM_IUPAC_SYSTEMATIC_NAME>
3-methoxy-6,8,9,13b-tetrahydro-5H-isoquinolino[1,2-a]isoquinoline

> <PUBCHEM_IUPAC_TRADITIONAL_NAME>
3-methoxy-6,8,9,13b-tetrahydro-5H-isoquinolin[1,2-a]isoquinoline

> <PUBCHEM_IUPAC_INCHI>
InChI=1S/C18H19NO/c1-20-15-6-7-17-14(12-15)9-11-19-10-8-13-4-2-3-5-16(13)18(17)19/h2-7,12,18H,8-11H2,1H3

> <PUBCHEM_IUPAC_INCHIKEY>
WJXQBRZOHAKKTH-UHFFFAOYSA-N

> <PUBCHEM_XLOGP3_AA>
3.5

> <PUBCHEM_EXACT_MASS>
265.146664230

> <PUBCHEM_MOLECULAR_FORMULA>
C18H19NO

> <PUBCHEM_MOLECULAR_WEIGHT>
265.3

> <PUBCHEM_OPENEYE_CAN_SMILES>
COC1=CC2=C(C=C1)C3C4=CC=CC=C4CCN3CC2

> <PUBCHEM_OPENEYE_ISO_SMILES>
COC1=CC2=C(C=C1)C3C4=CC=CC=C4CCN3CC2

> <PUBCHEM_CACTVS_TPSA>
12.5

> <PUBCHEM_MONOISOTOPIC_WEIGHT>
265.146664230

> <PUBCHEM_TOTAL_CHARGE>
0

> <PUBCHEM_HEAVY_ATOM_COUNT>
20

> <PUBCHEM_ATOM_DEF_STEREO_COUNT>
0

> <PUBCHEM_ATOM_UDEF_STEREO_COUNT>
1

> <PUBCHEM_BOND_DEF_STEREO_COUNT>
0

> <PUBCHEM_BOND_UDEF_STEREO_COUNT>
0

> <PUBCHEM_ISOTOPIC_ATOM_COUNT>
0

> <PUBCHEM_COMPONENT_COUNT>
1

> <PUBCHEM_CACTVS_TAUTO_COUNT>
-1

> <PUBCHEM_COORDINATE_TYPE>
1
5
255

> <PUBCHEM_BONDANNOTATIONS>
10  14  8
11  15  8
12  16  8
13  18  8
14  17  8
15  19  8
16  17  8
18  19  8
3  7  3
6  10  8
6  12  8
7  11  8
7  13  8

$$$$
