118736370
  -OEChem-09292322352D

 64 68  0     0  0  0  0  0  0999 V2000
   16.6491   -4.1906    0.0000 Cl  0  0  0  0  0  0  0  0  0  0  0  0
    3.3823    0.3206    0.0000 O   0  0  0  0  0  0  0  0  0  0  0  0
    2.6330    3.7802    0.0000 O   0  0  0  0  0  0  0  0  0  0  0  0
   12.1972   -0.1681    0.0000 N   0  0  0  0  0  0  0  0  0  0  0  0
   13.6811   -1.5090    0.0000 N   0  0  0  0  0  0  0  0  0  0  0  0
    7.1164    0.9210    0.0000 N   0  0  0  0  0  0  0  0  0  0  0  0
    5.5047    0.9196    0.0000 N   0  0  0  0  0  0  0  0  0  0  0  0
    6.0047    2.4585    0.0000 N   0  0  0  0  0  0  0  0  0  0  0  0
    4.3197    3.2432    0.0000 N   0  0  0  0  0  0  0  0  0  0  0  0
    2.9773    2.0438    0.0000 N   0  0  0  0  0  0  0  0  0  0  0  0
   11.9875   -1.1459    0.0000 C   0  0  0  0  0  0  0  0  0  0  0  0
   13.1487    0.1392    0.0000 C   0  0  0  0  0  0  0  0  0  0  0  0
   11.4552    0.5023    0.0000 C   0  0  0  0  0  0  0  0  0  0  0  0
   12.7295   -1.8163    0.0000 C   0  0  0  0  0  0  0  0  0  0  0  0
   13.8907   -0.5312    0.0000 C   0  0  0  0  0  0  0  0  0  0  0  0
   10.5036    0.1949    0.0000 C   0  0  0  0  0  0  0  0  0  0  0  0
    9.7616    0.8653    0.0000 C   0  0  0  0  0  0  0  0  0  0  0  0
    8.8100    0.5580    0.0000 C   0  0  0  0  0  0  0  0  0  0  0  0
    8.0680    1.2284    0.0000 C   0  0  0  0  0  0  0  0  0  0  0  0
   14.4231   -2.1794    0.0000 C   0  0  0  0  0  0  0  0  0  0  0  0
    6.3137    1.5074    0.0000 C   0  0  0  0  0  0  0  0  0  0  0  0
    4.6957    1.5074    0.0000 C   0  0  0  0  0  0  0  0  0  0  0  0
    6.8084   -0.0241    0.0000 C   0  0  0  0  0  0  0  0  0  0  0  0
    5.0047    2.4585    0.0000 C   0  0  0  0  0  0  0  0  0  0  0  0
    5.8143   -0.0250    0.0000 C   0  0  0  0  0  0  0  0  0  0  0  0
   14.2135   -3.1572    0.0000 C   0  0  0  0  0  0  0  0  0  0  0  0
   15.3747   -1.8720    0.0000 C   0  0  0  0  0  0  0  0  0  0  0  0
    3.6803    1.2752    0.0000 C   0  0  0  0  0  0  0  0  0  0  0  0
    3.2992    3.0345    0.0000 C   0  0  0  0  0  0  0  0  0  0  0  0
   14.9555   -3.8276    0.0000 C   0  0  0  0  0  0  0  0  0  0  0  0
   16.1167   -2.5424    0.0000 C   0  0  0  0  0  0  0  0  0  0  0  0
    4.6397    4.1906    0.0000 C   0  0  0  0  0  0  0  0  0  0  0  0
   15.9071   -3.5202    0.0000 C   0  0  0  0  0  0  0  0  0  0  0  0
    2.0000    1.8322    0.0000 C   0  0  0  0  0  0  0  0  0  0  0  0
   11.4131   -0.9127    0.0000 H   0  0  0  0  0  0  0  0  0  0  0  0
   11.6581   -1.6711    0.0000 H   0  0  0  0  0  0  0  0  0  0  0  0
   13.6380    0.5201    0.0000 H   0  0  0  0  0  0  0  0  0  0  0  0
   12.8586    0.6872    0.0000 H   0  0  0  0  0  0  0  0  0  0  0  0
   11.9444    0.8832    0.0000 H   0  0  0  0  0  0  0  0  0  0  0  0
   11.1650    1.0502    0.0000 H   0  0  0  0  0  0  0  0  0  0  0  0
   12.2403   -2.1972    0.0000 H   0  0  0  0  0  0  0  0  0  0  0  0
   13.0197   -2.3643    0.0000 H   0  0  0  0  0  0  0  0  0  0  0  0
   14.4652   -0.7644    0.0000 H   0  0  0  0  0  0  0  0  0  0  0  0
   14.2202   -0.0059    0.0000 H   0  0  0  0  0  0  0  0  0  0  0  0
   10.0143   -0.1859    0.0000 H   0  0  0  0  0  0  0  0  0  0  0  0
   10.7937   -0.3530    0.0000 H   0  0  0  0  0  0  0  0  0  0  0  0
   10.2508    1.2462    0.0000 H   0  0  0  0  0  0  0  0  0  0  0  0
    9.4715    1.4133    0.0000 H   0  0  0  0  0  0  0  0  0  0  0  0
    8.3208    0.1771    0.0000 H   0  0  0  0  0  0  0  0  0  0  0  0
    9.1001    0.0100    0.0000 H   0  0  0  0  0  0  0  0  0  0  0  0
    8.5572    1.6092    0.0000 H   0  0  0  0  0  0  0  0  0  0  0  0
    7.7779    1.7763    0.0000 H   0  0  0  0  0  0  0  0  0  0  0  0
    7.1728   -0.5257    0.0000 H   0  0  0  0  0  0  0  0  0  0  0  0
    5.4508   -0.5272    0.0000 H   0  0  0  0  0  0  0  0  0  0  0  0
   13.6235   -3.3477    0.0000 H   0  0  0  0  0  0  0  0  0  0  0  0
   15.5047   -1.2658    0.0000 H   0  0  0  0  0  0  0  0  0  0  0  0
   14.8255   -4.4338    0.0000 H   0  0  0  0  0  0  0  0  0  0  0  0
   16.7067   -2.3518    0.0000 H   0  0  0  0  0  0  0  0  0  0  0  0
    5.2271    3.9922    0.0000 H   0  0  0  0  0  0  0  0  0  0  0  0
    4.8381    4.7780    0.0000 H   0  0  0  0  0  0  0  0  0  0  0  0
    4.0523    4.3890    0.0000 H   0  0  0  0  0  0  0  0  0  0  0  0
    1.8688    2.4381    0.0000 H   0  0  0  0  0  0  0  0  0  0  0  0
    1.3940    1.7009    0.0000 H   0  0  0  0  0  0  0  0  0  0  0  0
    2.1312    1.2262    0.0000 H   0  0  0  0  0  0  0  0  0  0  0  0
  1 33  1  0  0  0  0
  2 28  2  0  0  0  0
  3 29  2  0  0  0  0
  4 11  1  0  0  0  0
  4 12  1  0  0  0  0
  4 13  1  0  0  0  0
  5 14  1  0  0  0  0
  5 15  1  0  0  0  0
  5 20  1  0  0  0  0
  6 19  1  0  0  0  0
  6 21  1  0  0  0  0
  6 23  1  0  0  0  0
  7 21  1  0  0  0  0
  7 22  1  0  0  0  0
  7 25  1  0  0  0  0
  8 21  2  0  0  0  0
  8 24  1  0  0  0  0
  9 24  1  0  0  0  0
  9 29  1  0  0  0  0
  9 32  1  0  0  0  0
 10 28  1  0  0  0  0
 10 29  1  0  0  0  0
 10 34  1  0  0  0  0
 11 14  1  0  0  0  0
 11 35  1  0  0  0  0
 11 36  1  0  0  0  0
 12 15  1  0  0  0  0
 12 37  1  0  0  0  0
 12 38  1  0  0  0  0
 13 16  1  0  0  0  0
 13 39  1  0  0  0  0
 13 40  1  0  0  0  0
 14 41  1  0  0  0  0
 14 42  1  0  0  0  0
 15 43  1  0  0  0  0
 15 44  1  0  0  0  0
 16 17  1  0  0  0  0
 16 45  1  0  0  0  0
 16 46  1  0  0  0  0
 17 18  1  0  0  0  0
 17 47  1  0  0  0  0
 17 48  1  0  0  0  0
 18 19  1  0  0  0  0
 18 49  1  0  0  0  0
 18 50  1  0  0  0  0
 19 51  1  0  0  0  0
 19 52  1  0  0  0  0
 20 26  2  0  0  0  0
 20 27  1  0  0  0  0
 22 24  2  0  0  0  0
 22 28  1  0  0  0  0
 23 25  2  0  0  0  0
 23 53  1  0  0  0  0
 25 54  1  0  0  0  0
 26 30  1  0  0  0  0
 26 55  1  0  0  0  0
 27 31  2  0  0  0  0
 27 56  1  0  0  0  0
 30 33  2  0  0  0  0
 30 57  1  0  0  0  0
 31 33  1  0  0  0  0
 31 58  1  0  0  0  0
 32 59  1  0  0  0  0
 32 60  1  0  0  0  0
 32 61  1  0  0  0  0
 34 62  1  0  0  0  0
 34 63  1  0  0  0  0
 34 64  1  0  0  0  0
M  END
> <PUBCHEM_COMPOUND_CID>
118736370

> <PUBCHEM_COMPOUND_CANONICALIZED>
1

> <PUBCHEM_CACTVS_COMPLEXITY>
741

> <PUBCHEM_CACTVS_HBOND_ACCEPTOR>
5

> <PUBCHEM_CACTVS_HBOND_DONOR>
0

> <PUBCHEM_CACTVS_ROTATABLE_BOND>
7

> <PUBCHEM_CACTVS_SUBSKEYS>
AAADceB7sAAEAAAAAAAAAAAAAAAAAWLAAAA8WIAAAAAWAFgB8AAAHgIAAAAACArBliQ/8JcMGACoATd3dACCgC03F6AJ2AG4dsiIaGrB27GUIIhohyLIyGcQAAAAAABAAAAAAAAAAIAAAAAAAAAAAAAAAA==

> <PUBCHEM_IUPAC_OPENEYE_NAME>
6-[5-[4-(4-chlorophenyl)piperazin-1-yl]pentyl]-2,4-dimethyl-purino[7,8-a]imidazole-1,3-dione

> <PUBCHEM_IUPAC_CAS_NAME>
6-[5-[4-(4-chlorophenyl)-1-piperazinyl]pentyl]-2,4-dimethylpurino[7,8-a]imidazole-1,3-dione

> <PUBCHEM_IUPAC_NAME_MARKUP>
6-[5-[4-(4-chlorophenyl)piperazin-1-yl]pentyl]-2,4-dimethylpurino[7,8-a]imidazole-1,3-dione

> <PUBCHEM_IUPAC_NAME>
6-[5-[4-(4-chlorophenyl)piperazin-1-yl]pentyl]-2,4-dimethylpurino[7,8-a]imidazole-1,3-dione

> <PUBCHEM_IUPAC_SYSTEMATIC_NAME>
6-[5-[4-(4-chlorophenyl)piperazin-1-yl]pentyl]-2,4-dimethyl-purino[7,8-a]imidazole-1,3-dione

> <PUBCHEM_IUPAC_TRADITIONAL_NAME>
6-[5-[4-(4-chlorophenyl)piperazino]pentyl]-2,4-dimethyl-purin[7,8-a]imidazole-1,3-quinone

> <PUBCHEM_IUPAC_INCHI>
InChI=1S/C24H30ClN7O2/c1-27-21-20(22(33)28(2)24(27)34)32-17-16-31(23(32)26-21)11-5-3-4-10-29-12-14-30(15-13-29)19-8-6-18(25)7-9-19/h6-9,16-17H,3-5,10-15H2,1-2H3

> <PUBCHEM_IUPAC_INCHIKEY>
IMNXUQRZOVUMFZ-UHFFFAOYSA-N

> <PUBCHEM_XLOGP3_AA>
3.7

> <PUBCHEM_EXACT_MASS>
483.2149509

> <PUBCHEM_MOLECULAR_FORMULA>
C24H30ClN7O2

> <PUBCHEM_MOLECULAR_WEIGHT>
484.0

> <PUBCHEM_OPENEYE_CAN_SMILES>
CN1C2=C(C(=O)N(C1=O)C)N3C=CN(C3=N2)CCCCCN4CCN(CC4)C5=CC=C(C=C5)Cl

> <PUBCHEM_OPENEYE_ISO_SMILES>
CN1C2=C(C(=O)N(C1=O)C)N3C=CN(C3=N2)CCCCCN4CCN(CC4)C5=CC=C(C=C5)Cl

> <PUBCHEM_CACTVS_TPSA>
69.3

> <PUBCHEM_MONOISOTOPIC_WEIGHT>
483.2149509

> <PUBCHEM_TOTAL_CHARGE>
0

> <PUBCHEM_HEAVY_ATOM_COUNT>
34

> <PUBCHEM_ATOM_DEF_STEREO_COUNT>
0

> <PUBCHEM_ATOM_UDEF_STEREO_COUNT>
0

> <PUBCHEM_BOND_DEF_STEREO_COUNT>
0

> <PUBCHEM_BOND_UDEF_STEREO_COUNT>
0

> <PUBCHEM_ISOTOPIC_ATOM_COUNT>
0

> <PUBCHEM_COMPONENT_COUNT>
1

> <PUBCHEM_CACTVS_TAUTO_COUNT>
-1

> <PUBCHEM_COORDINATE_TYPE>
1
5
255

> <PUBCHEM_BONDANNOTATIONS>
10  28  8
10  29  8
20  26  8
20  27  8
22  24  8
22  28  8
23  25  8
26  30  8
27  31  8
30  33  8
31  33  8
6  21  8
6  23  8
7  21  8
7  22  8
7  25  8
8  21  8
8  24  8
9  24  8
9  29  8

$$$$
