24758836
  -OEChem-09292322302D

 63 67  0     1  0  0  0  0  0999 V2000
    5.5281   -1.8209    0.0000 S   0  0  0  0  0  0  0  0  0  0  0  0
    2.9176    6.1976    0.0000 O   0  0  0  0  0  0  0  0  0  0  0  0
    7.4249   -5.7566    0.0000 O   0  0  0  0  0  0  0  0  0  0  0  0
    5.1660    1.6242    0.0000 N   0  0  3  0  0  0  0  0  0  0  0  0
    5.8069   -3.5810    0.0000 N   0  0  0  0  0  0  0  0  0  0  0  0
    7.1159   -2.6299    0.0000 N   0  0  0  0  0  0  0  0  0  0  0  0
    7.4249   -3.5810    0.0000 N   0  0  0  0  0  0  0  0  0  0  0  0
    6.1159   -6.7076    0.0000 N   0  0  0  0  0  0  0  0  0  0  0  0
    4.6660    3.1630    0.0000 C   0  0  3  0  0  0  0  0  0  0  0  0
    3.8570    2.5753    0.0000 C   0  0  0  0  0  0  0  0  0  0  0  0
    5.4751    2.5753    0.0000 C   0  0  0  0  0  0  0  0  0  0  0  0
    5.5321    3.6630    0.0000 C   0  0  0  0  0  0  0  0  0  0  0  0
    4.1660    1.6242    0.0000 C   0  0  0  0  0  0  0  0  0  0  0  0
    3.8000    3.6630    0.0000 C   0  0  0  0  0  0  0  0  0  0  0  0
    5.5321    4.6630    0.0000 C   0  0  0  0  0  0  0  0  0  0  0  0
    3.8000    4.6630    0.0000 C   0  0  0  0  0  0  0  0  0  0  0  0
    4.6660    5.1630    0.0000 C   0  0  0  0  0  0  0  0  0  0  0  0
    5.7538    0.8152    0.0000 C   0  0  0  0  0  0  0  0  0  0  0  0
    2.9061    3.1284    0.0000 C   0  0  0  0  0  0  0  0  0  0  0  0
    2.9061    5.1977    0.0000 C   0  0  0  0  0  0  0  0  0  0  0  0
    5.3471   -0.0984    0.0000 C   0  0  0  0  0  0  0  0  0  0  0  0
    2.0000    3.6422    0.0000 C   0  0  0  0  0  0  0  0  0  0  0  0
    2.0000    4.6839    0.0000 C   0  0  0  0  0  0  0  0  0  0  0  0
    5.9349   -0.9074    0.0000 C   0  0  0  0  0  0  0  0  0  0  0  0
    2.0574    6.7076    0.0000 C   0  0  0  0  0  0  0  0  0  0  0  0
    6.1159   -2.6299    0.0000 C   0  0  0  0  0  0  0  0  0  0  0  0
    6.6159   -4.1688    0.0000 C   0  0  0  0  0  0  0  0  0  0  0  0
    4.8558   -3.8900    0.0000 C   0  0  0  0  0  0  0  0  0  0  0  0
    6.6159   -5.1688    0.0000 C   0  0  0  0  0  0  0  0  0  0  0  0
    5.8069   -5.7566    0.0000 C   0  0  0  0  0  0  0  0  0  0  0  0
    4.8558   -5.4476    0.0000 C   0  0  0  0  0  0  0  0  0  0  0  0
    7.1159   -6.7076    0.0000 C   0  0  0  0  0  0  0  0  0  0  0  0
    3.5470    3.1122    0.0000 H   0  0  0  0  0  0  0  0  0  0  0  0
    3.2906    2.3231    0.0000 H   0  0  0  0  0  0  0  0  0  0  0  0
    6.0414    2.3231    0.0000 H   0  0  0  0  0  0  0  0  0  0  0  0
    5.7850    3.1122    0.0000 H   0  0  0  0  0  0  0  0  0  0  0  0
    5.7441    3.0804    0.0000 H   0  0  0  0  0  0  0  0  0  0  0  0
    6.1426    3.7707    0.0000 H   0  0  0  0  0  0  0  0  0  0  0  0
    3.5596    1.4953    0.0000 H   0  0  0  0  0  0  0  0  0  0  0  0
    4.2308    1.0076    0.0000 H   0  0  0  0  0  0  0  0  0  0  0  0
    6.1426    4.5554    0.0000 H   0  0  0  0  0  0  0  0  0  0  0  0
    5.7441    5.2457    0.0000 H   0  0  0  0  0  0  0  0  0  0  0  0
    5.0646    5.6380    0.0000 H   0  0  0  0  0  0  0  0  0  0  0  0
    4.2675    5.6380    0.0000 H   0  0  0  0  0  0  0  0  0  0  0  0
    6.2678    0.4685    0.0000 H   0  0  0  0  0  0  0  0  0  0  0  0
    6.1845    1.2612    0.0000 H   0  0  0  0  0  0  0  0  0  0  0  0
    2.9132    2.5084    0.0000 H   0  0  0  0  0  0  0  0  0  0  0  0
    4.8331    0.2483    0.0000 H   0  0  0  0  0  0  0  0  0  0  0  0
    4.9164   -0.5443    0.0000 H   0  0  0  0  0  0  0  0  0  0  0  0
    1.4643    3.3302    0.0000 H   0  0  0  0  0  0  0  0  0  0  0  0
    1.4643    4.9959    0.0000 H   0  0  0  0  0  0  0  0  0  0  0  0
    6.4489   -1.2541    0.0000 H   0  0  0  0  0  0  0  0  0  0  0  0
    6.3656   -0.4614    0.0000 H   0  0  0  0  0  0  0  0  0  0  0  0
    2.3736    7.2409    0.0000 H   0  0  0  0  0  0  0  0  0  0  0  0
    1.5241    7.0238    0.0000 H   0  0  0  0  0  0  0  0  0  0  0  0
    1.7413    6.1743    0.0000 H   0  0  0  0  0  0  0  0  0  0  0  0
    4.6642   -3.3004    0.0000 H   0  0  0  0  0  0  0  0  0  0  0  0
    4.2662   -4.0816    0.0000 H   0  0  0  0  0  0  0  0  0  0  0  0
    5.0474   -4.4797    0.0000 H   0  0  0  0  0  0  0  0  0  0  0  0
    5.0474   -4.8579    0.0000 H   0  0  0  0  0  0  0  0  0  0  0  0
    4.2662   -5.2560    0.0000 H   0  0  0  0  0  0  0  0  0  0  0  0
    4.6642   -6.0372    0.0000 H   0  0  0  0  0  0  0  0  0  0  0  0
    7.4803   -7.2092    0.0000 H   0  0  0  0  0  0  0  0  0  0  0  0
  1 24  1  0  0  0  0
  1 26  1  0  0  0  0
  2 20  1  0  0  0  0
  2 25  1  0  0  0  0
  3 29  1  0  0  0  0
  3 32  1  0  0  0  0
  4 11  1  0  0  0  0
  4 13  1  0  0  0  0
  4 18  1  0  0  0  0
  5 26  1  0  0  0  0
  5 27  1  0  0  0  0
  5 28  1  0  0  0  0
  6  7  1  0  0  0  0
  6 26  2  0  0  0  0
  7 27  2  0  0  0  0
  8 30  1  0  0  0  0
  8 32  2  0  0  0  0
  9 10  1  0  0  0  0
  9 11  1  0  0  0  0
  9 12  1  0  0  0  0
  9 14  1  0  0  0  0
 10 13  1  0  0  0  0
 10 33  1  0  0  0  0
 10 34  1  0  0  0  0
 11 35  1  0  0  0  0
 11 36  1  0  0  0  0
 12 15  1  0  0  0  0
 12 37  1  0  0  0  0
 12 38  1  0  0  0  0
 13 39  1  0  0  0  0
 13 40  1  0  0  0  0
 14 16  2  0  0  0  0
 14 19  1  0  0  0  0
 15 17  1  0  0  0  0
 15 41  1  0  0  0  0
 15 42  1  0  0  0  0
 16 17  1  0  0  0  0
 16 20  1  0  0  0  0
 17 43  1  0  0  0  0
 17 44  1  0  0  0  0
 18 21  1  0  0  0  0
 18 45  1  0  0  0  0
 18 46  1  0  0  0  0
 19 22  2  0  0  0  0
 19 47  1  0  0  0  0
 20 23  2  0  0  0  0
 21 24  1  0  0  0  0
 21 48  1  0  0  0  0
 21 49  1  0  0  0  0
 22 23  1  0  0  0  0
 22 50  1  0  0  0  0
 23 51  1  0  0  0  0
 24 52  1  0  0  0  0
 24 53  1  0  0  0  0
 25 54  1  0  0  0  0
 25 55  1  0  0  0  0
 25 56  1  0  0  0  0
 27 29  1  0  0  0  0
 28 57  1  0  0  0  0
 28 58  1  0  0  0  0
 28 59  1  0  0  0  0
 29 30  2  0  0  0  0
 30 31  1  0  0  0  0
 31 60  1  0  0  0  0
 31 61  1  0  0  0  0
 31 62  1  0  0  0  0
 32 63  1  0  0  0  0
M  END
> <PUBCHEM_COMPOUND_CID>
24758836

> <PUBCHEM_COMPOUND_CANONICALIZED>
1

> <PUBCHEM_CACTVS_COMPLEXITY>
629

> <PUBCHEM_CACTVS_HBOND_ACCEPTOR>
7

> <PUBCHEM_CACTVS_HBOND_DONOR>
0

> <PUBCHEM_CACTVS_ROTATABLE_BOND>
7

> <PUBCHEM_CACTVS_SUBSKEYS>
AAADceB7sABAAAAAAAAAAAAAAAAAAWLFgAAwYAAAAAAAAADB8AAAHgQIAAAADgzF3wa3lpcMFEiqA6Zz9ASS2Ct7YLAd2CG/TJiOLiLk+TuNMChkzBPYqAeQ0PIPgAABAAAYAAAAAAYAADAAAAAAAAAAAA==

> <PUBCHEM_IUPAC_OPENEYE_NAME>
5-[5-[3-(5'-methoxyspiro[pyrrolidine-3,1'-tetralin]-1-yl)propylsulfanyl]-4-methyl-1,2,4-triazol-3-yl]-4-methyl-oxazole

> <PUBCHEM_IUPAC_CAS_NAME>
5-[5-[3-(8-methoxy-1'-spiro[2,3-dihydro-1H-naphthalene-4,3'-pyrrolidine]yl)propylthio]-4-methyl-1,2,4-triazol-3-yl]-4-methyloxazole

> <PUBCHEM_IUPAC_NAME_MARKUP>
5-[5-[3-(8-methoxyspiro[2,3-dihydro-1<I>H</I>-naphthalene-4,3&apos;-pyrrolidine]-1&apos;-yl)propylsulfanyl]-4-methyl-1,2,4-triazol-3-yl]-4-methyl-1,3-oxazole

> <PUBCHEM_IUPAC_NAME>
5-[5-[3-(8-methoxyspiro[2,3-dihydro-1H-naphthalene-4,3'-pyrrolidine]-1'-yl)propylsulfanyl]-4-methyl-1,2,4-triazol-3-yl]-4-methyl-1,3-oxazole

> <PUBCHEM_IUPAC_SYSTEMATIC_NAME>
5-[5-[3-(8-methoxyspiro[2,3-dihydro-1H-naphthalene-4,3'-pyrrolidine]-1'-yl)propylsulfanyl]-4-methyl-1,2,4-triazol-3-yl]-4-methyl-1,3-oxazole

> <PUBCHEM_IUPAC_TRADITIONAL_NAME>
5-[5-[3-(5'-methoxyspiro[pyrrolidine-3,1'-tetralin]-1-yl)propylthio]-4-methyl-1,2,4-triazol-3-yl]-4-methyl-oxazole

> <PUBCHEM_IUPAC_INCHI>
InChI=1S/C24H31N5O2S/c1-17-21(31-16-25-17)22-26-27-23(28(22)2)32-14-6-12-29-13-11-24(15-29)10-5-7-18-19(24)8-4-9-20(18)30-3/h4,8-9,16H,5-7,10-15H2,1-3H3

> <PUBCHEM_IUPAC_INCHIKEY>
AFYFGCAEDGKSJG-UHFFFAOYSA-N

> <PUBCHEM_XLOGP3_AA>
4

> <PUBCHEM_EXACT_MASS>
453.21984642

> <PUBCHEM_MOLECULAR_FORMULA>
C24H31N5O2S

> <PUBCHEM_MOLECULAR_WEIGHT>
453.6

> <PUBCHEM_OPENEYE_CAN_SMILES>
CC1=C(OC=N1)C2=NN=C(N2C)SCCCN3CCC4(C3)CCCC5=C4C=CC=C5OC

> <PUBCHEM_OPENEYE_ISO_SMILES>
CC1=C(OC=N1)C2=NN=C(N2C)SCCCN3CCC4(C3)CCCC5=C4C=CC=C5OC

> <PUBCHEM_CACTVS_TPSA>
94.5

> <PUBCHEM_MONOISOTOPIC_WEIGHT>
453.21984642

> <PUBCHEM_TOTAL_CHARGE>
0

> <PUBCHEM_HEAVY_ATOM_COUNT>
32

> <PUBCHEM_ATOM_DEF_STEREO_COUNT>
0

> <PUBCHEM_ATOM_UDEF_STEREO_COUNT>
1

> <PUBCHEM_BOND_DEF_STEREO_COUNT>
0

> <PUBCHEM_BOND_UDEF_STEREO_COUNT>
0

> <PUBCHEM_ISOTOPIC_ATOM_COUNT>
0

> <PUBCHEM_COMPONENT_COUNT>
1

> <PUBCHEM_CACTVS_TAUTO_COUNT>
-1

> <PUBCHEM_COORDINATE_TYPE>
1
5
255

> <PUBCHEM_BONDANNOTATIONS>
14  16  8
14  19  8
16  20  8
19  22  8
20  23  8
22  23  8
29  30  8
3  29  8
3  32  8
5  26  8
5  27  8
6  26  8
6  7  8
7  27  8
8  30  8
8  32  8
9  12  3

$$$$
