5009938
  -OEChem-09292322482D

 45 48  0     0  0  0  0  0  0999 V2000
    4.6783    0.8603    0.0000 O   0  0  0  0  0  0  0  0  0  0  0  0
    6.7619    0.7990    0.0000 N   0  0  0  0  0  0  0  0  0  0  0  0
    7.7619   -0.9330    0.0000 N   0  0  0  0  0  0  0  0  0  0  0  0
    6.2619   -0.0670    0.0000 C   0  0  0  0  0  0  0  0  0  0  0  0
    7.7619    0.7990    0.0000 C   0  0  0  0  0  0  0  0  0  0  0  0
    6.7619   -0.9330    0.0000 C   0  0  0  0  0  0  0  0  0  0  0  0
    8.2619   -0.0670    0.0000 C   0  0  0  0  0  0  0  0  0  0  0  0
    6.2619    1.6651    0.0000 C   0  0  0  0  0  0  0  0  0  0  0  0
    8.2619   -1.7990    0.0000 C   0  0  0  0  0  0  0  0  0  0  0  0
    5.2619    1.6651    0.0000 C   0  0  0  0  0  0  0  0  0  0  0  0
    9.2619   -1.7990    0.0000 C   0  0  0  0  0  0  0  0  0  0  0  0
    4.6783    2.4698    0.0000 C   0  0  0  0  0  0  0  0  0  0  0  0
    3.7320    2.1651    0.0000 C   0  0  0  0  0  0  0  0  0  0  0  0
    3.7320    1.1651    0.0000 C   0  0  0  0  0  0  0  0  0  0  0  0
    9.7619   -0.9330    0.0000 C   0  0  0  0  0  0  0  0  0  0  0  0
    9.7619   -2.6651    0.0000 C   0  0  0  0  0  0  0  0  0  0  0  0
    2.8660    2.6651    0.0000 C   0  0  0  0  0  0  0  0  0  0  0  0
    2.8660    0.6651    0.0000 C   0  0  0  0  0  0  0  0  0  0  0  0
   10.7619   -0.9330    0.0000 C   0  0  0  0  0  0  0  0  0  0  0  0
   10.7619   -2.6651    0.0000 C   0  0  0  0  0  0  0  0  0  0  0  0
   11.2619   -1.7990    0.0000 C   0  0  0  0  0  0  0  0  0  0  0  0
    2.0000    2.1651    0.0000 C   0  0  0  0  0  0  0  0  0  0  0  0
    2.0000    1.1651    0.0000 C   0  0  0  0  0  0  0  0  0  0  0  0
    5.7869    0.3315    0.0000 H   0  0  0  0  0  0  0  0  0  0  0  0
    5.7869   -0.4655    0.0000 H   0  0  0  0  0  0  0  0  0  0  0  0
    8.3445    1.0111    0.0000 H   0  0  0  0  0  0  0  0  0  0  0  0
    7.6542    1.4096    0.0000 H   0  0  0  0  0  0  0  0  0  0  0  0
    6.1793   -1.1451    0.0000 H   0  0  0  0  0  0  0  0  0  0  0  0
    6.8695   -1.5436    0.0000 H   0  0  0  0  0  0  0  0  0  0  0  0
    8.7368   -0.4655    0.0000 H   0  0  0  0  0  0  0  0  0  0  0  0
    8.7368    0.3315    0.0000 H   0  0  0  0  0  0  0  0  0  0  0  0
    6.8445    1.8771    0.0000 H   0  0  0  0  0  0  0  0  0  0  0  0
    6.1542    2.2756    0.0000 H   0  0  0  0  0  0  0  0  0  0  0  0
    7.6793   -2.0111    0.0000 H   0  0  0  0  0  0  0  0  0  0  0  0
    8.3695   -2.4096    0.0000 H   0  0  0  0  0  0  0  0  0  0  0  0
    4.8709    3.0591    0.0000 H   0  0  0  0  0  0  0  0  0  0  0  0
    9.4519   -0.3961    0.0000 H   0  0  0  0  0  0  0  0  0  0  0  0
    9.4519   -3.2020    0.0000 H   0  0  0  0  0  0  0  0  0  0  0  0
    2.8660    3.2851    0.0000 H   0  0  0  0  0  0  0  0  0  0  0  0
    2.8660    0.0451    0.0000 H   0  0  0  0  0  0  0  0  0  0  0  0
   11.0719   -0.3961    0.0000 H   0  0  0  0  0  0  0  0  0  0  0  0
   11.0719   -3.2020    0.0000 H   0  0  0  0  0  0  0  0  0  0  0  0
   11.8819   -1.7990    0.0000 H   0  0  0  0  0  0  0  0  0  0  0  0
    1.4631    2.4751    0.0000 H   0  0  0  0  0  0  0  0  0  0  0  0
    1.4631    0.8551    0.0000 H   0  0  0  0  0  0  0  0  0  0  0  0
  1 10  1  0  0  0  0
  1 14  1  0  0  0  0
  2  4  1  0  0  0  0
  2  5  1  0  0  0  0
  2  8  1  0  0  0  0
  3  6  1  0  0  0  0
  3  7  1  0  0  0  0
  3  9  1  0  0  0  0
  4  6  1  0  0  0  0
  4 24  1  0  0  0  0
  4 25  1  0  0  0  0
  5  7  1  0  0  0  0
  5 26  1  0  0  0  0
  5 27  1  0  0  0  0
  6 28  1  0  0  0  0
  6 29  1  0  0  0  0
  7 30  1  0  0  0  0
  7 31  1  0  0  0  0
  8 10  1  0  0  0  0
  8 32  1  0  0  0  0
  8 33  1  0  0  0  0
  9 11  1  0  0  0  0
  9 34  1  0  0  0  0
  9 35  1  0  0  0  0
 10 12  2  0  0  0  0
 11 15  2  0  0  0  0
 11 16  1  0  0  0  0
 12 13  1  0  0  0  0
 12 36  1  0  0  0  0
 13 14  1  0  0  0  0
 13 17  2  0  0  0  0
 14 18  2  0  0  0  0
 15 19  1  0  0  0  0
 15 37  1  0  0  0  0
 16 20  2  0  0  0  0
 16 38  1  0  0  0  0
 17 22  1  0  0  0  0
 17 39  1  0  0  0  0
 18 23  1  0  0  0  0
 18 40  1  0  0  0  0
 19 21  2  0  0  0  0
 19 41  1  0  0  0  0
 20 21  1  0  0  0  0
 20 42  1  0  0  0  0
 21 43  1  0  0  0  0
 22 23  2  0  0  0  0
 22 44  1  0  0  0  0
 23 45  1  0  0  0  0
M  END
> <PUBCHEM_COMPOUND_CID>
5009938

> <PUBCHEM_COMPOUND_CANONICALIZED>
1

> <PUBCHEM_CACTVS_COMPLEXITY>
361

> <PUBCHEM_CACTVS_HBOND_ACCEPTOR>
3

> <PUBCHEM_CACTVS_HBOND_DONOR>
0

> <PUBCHEM_CACTVS_ROTATABLE_BOND>
4

> <PUBCHEM_CACTVS_SUBSKEYS>
AAADceB7IAAAAAAAAAAAAAAAAAAAASAAAAA8YIAAAAAAAEgB9AAAHgAAAAAADATBmAQwBsMABECIAqBSAACCCAAkIAAIiAGODMgOZjKEtTuXOSjkwBGYqYeY2aKOAAAAAAAIAAAAAAAAABAAAAAAAAAAAA==

> <PUBCHEM_IUPAC_OPENEYE_NAME>
1-(benzofuran-2-ylmethyl)-4-benzyl-piperazine

> <PUBCHEM_IUPAC_CAS_NAME>
1-(2-benzofuranylmethyl)-4-(phenylmethyl)piperazine

> <PUBCHEM_IUPAC_NAME_MARKUP>
1-(1-benzofuran-2-ylmethyl)-4-benzylpiperazine

> <PUBCHEM_IUPAC_NAME>
1-(1-benzofuran-2-ylmethyl)-4-benzylpiperazine

> <PUBCHEM_IUPAC_SYSTEMATIC_NAME>
1-(1-benzofuran-2-ylmethyl)-4-(phenylmethyl)piperazine

> <PUBCHEM_IUPAC_TRADITIONAL_NAME>
1-(benzofuran-2-ylmethyl)-4-benzyl-piperazine

> <PUBCHEM_IUPAC_INCHI>
InChI=1S/C20H22N2O/c1-2-6-17(7-3-1)15-21-10-12-22(13-11-21)16-19-14-18-8-4-5-9-20(18)23-19/h1-9,14H,10-13,15-16H2

> <PUBCHEM_IUPAC_INCHIKEY>
PBMOMMUCOYVEFZ-UHFFFAOYSA-N

> <PUBCHEM_XLOGP3_AA>
3.5

> <PUBCHEM_EXACT_MASS>
306.173213330

> <PUBCHEM_MOLECULAR_FORMULA>
C20H22N2O

> <PUBCHEM_MOLECULAR_WEIGHT>
306.4

> <PUBCHEM_OPENEYE_CAN_SMILES>
C1CN(CCN1CC2=CC=CC=C2)CC3=CC4=CC=CC=C4O3

> <PUBCHEM_OPENEYE_ISO_SMILES>
C1CN(CCN1CC2=CC=CC=C2)CC3=CC4=CC=CC=C4O3

> <PUBCHEM_CACTVS_TPSA>
19.6

> <PUBCHEM_MONOISOTOPIC_WEIGHT>
306.173213330

> <PUBCHEM_TOTAL_CHARGE>
0

> <PUBCHEM_HEAVY_ATOM_COUNT>
23

> <PUBCHEM_ATOM_DEF_STEREO_COUNT>
0

> <PUBCHEM_ATOM_UDEF_STEREO_COUNT>
0

> <PUBCHEM_BOND_DEF_STEREO_COUNT>
0

> <PUBCHEM_BOND_UDEF_STEREO_COUNT>
0

> <PUBCHEM_ISOTOPIC_ATOM_COUNT>
0

> <PUBCHEM_COMPONENT_COUNT>
1

> <PUBCHEM_CACTVS_TAUTO_COUNT>
-1

> <PUBCHEM_COORDINATE_TYPE>
1
5
255

> <PUBCHEM_BONDANNOTATIONS>
1  10  8
1  14  8
10  12  8
11  15  8
11  16  8
12  13  8
13  14  8
13  17  8
14  18  8
15  19  8
16  20  8
17  22  8
18  23  8
19  21  8
20  21  8
22  23  8

$$$$
