164611342
  -OEChem-09292322012D

 46 47  0     0  0  0  0  0  0999 V2000
    4.0281    3.5114    0.0000 S   0  0  0  0  0  0  0  0  0  0  0  0
    5.8076   -0.5818    0.0000 O   0  0  0  0  0  0  0  0  0  0  0  0
    6.6737    0.9182    0.0000 N   0  0  0  0  0  0  0  0  0  0  0  0
    3.8590    5.1206    0.0000 N   0  0  0  0  0  0  0  0  0  0  0  0
    6.6737   -2.0818    0.0000 N   0  0  0  0  0  0  0  0  0  0  0  0
    7.5397   -0.5818    0.0000 N   0  0  0  0  0  0  0  0  0  0  0  0
    2.3644    4.1500    0.0000 N   0  0  0  0  0  0  0  0  0  0  0  0
    8.4057    0.9182    0.0000 N   0  0  0  0  0  0  0  0  0  0  0  0
    5.8076    3.4182    0.0000 C   0  0  0  0  0  0  0  0  0  0  0  0
    5.8076    2.4182    0.0000 C   0  0  0  0  0  0  0  0  0  0  0  0
    4.9416    3.9182    0.0000 C   0  0  0  0  0  0  0  0  0  0  0  0
    6.6737    1.9182    0.0000 C   0  0  0  0  0  0  0  0  0  0  0  0
    4.8371    4.9127    0.0000 C   0  0  0  0  0  0  0  0  0  0  0  0
    5.5802    5.5818    0.0000 C   0  0  0  0  0  0  0  0  0  0  0  0
    3.3590    4.2546    0.0000 C   0  0  0  0  0  0  0  0  0  0  0  0
    5.8076   -2.5818    0.0000 C   0  0  0  0  0  0  0  0  0  0  0  0
    5.8076   -3.5818    0.0000 C   0  0  0  0  0  0  0  0  0  0  0  0
    7.5397    0.4182    0.0000 C   0  0  0  0  0  0  0  0  0  0  0  0
    6.6737   -4.0818    0.0000 C   0  0  0  0  0  0  0  0  0  0  0  0
    4.9416   -4.0818    0.0000 C   0  0  0  0  0  0  0  0  0  0  0  0
    6.6737   -1.0818    0.0000 C   0  0  0  0  0  0  0  0  0  0  0  0
    6.6737   -5.0818    0.0000 C   0  0  0  0  0  0  0  0  0  0  0  0
    4.9416   -5.0818    0.0000 C   0  0  0  0  0  0  0  0  0  0  0  0
    5.8076   -5.5818    0.0000 C   0  0  0  0  0  0  0  0  0  0  0  0
    6.4182    3.3105    0.0000 H   0  0  0  0  0  0  0  0  0  0  0  0
    6.0197    4.0008    0.0000 H   0  0  0  0  0  0  0  0  0  0  0  0
    5.1971    2.5258    0.0000 H   0  0  0  0  0  0  0  0  0  0  0  0
    5.5956    1.8356    0.0000 H   0  0  0  0  0  0  0  0  0  0  0  0
    7.2843    1.8105    0.0000 H   0  0  0  0  0  0  0  0  0  0  0  0
    6.8857    2.5008    0.0000 H   0  0  0  0  0  0  0  0  0  0  0  0
    5.9951    5.1211    0.0000 H   0  0  0  0  0  0  0  0  0  0  0  0
    6.0410    5.9967    0.0000 H   0  0  0  0  0  0  0  0  0  0  0  0
    5.1654    6.0426    0.0000 H   0  0  0  0  0  0  0  0  0  0  0  0
    5.5956   -1.9992    0.0000 H   0  0  0  0  0  0  0  0  0  0  0  0
    5.1971   -2.6895    0.0000 H   0  0  0  0  0  0  0  0  0  0  0  0
    7.2106   -2.3918    0.0000 H   0  0  0  0  0  0  0  0  0  0  0  0
    8.0766   -0.8918    0.0000 H   0  0  0  0  0  0  0  0  0  0  0  0
    7.2106   -3.7718    0.0000 H   0  0  0  0  0  0  0  0  0  0  0  0
    4.4047   -3.7718    0.0000 H   0  0  0  0  0  0  0  0  0  0  0  0
    2.0000    4.6516    0.0000 H   0  0  0  0  0  0  0  0  0  0  0  0
    2.1122    3.5837    0.0000 H   0  0  0  0  0  0  0  0  0  0  0  0
    7.2106   -5.3918    0.0000 H   0  0  0  0  0  0  0  0  0  0  0  0
    4.4047   -5.3918    0.0000 H   0  0  0  0  0  0  0  0  0  0  0  0
    5.8076   -6.2018    0.0000 H   0  0  0  0  0  0  0  0  0  0  0  0
    8.4057    1.5382    0.0000 H   0  0  0  0  0  0  0  0  0  0  0  0
    8.9427    0.6082    0.0000 H   0  0  0  0  0  0  0  0  0  0  0  0
  1 11  1  0  0  0  0
  1 15  1  0  0  0  0
  2 21  2  0  0  0  0
  3 12  1  0  0  0  0
  3 18  2  0  0  0  0
  4 13  1  0  0  0  0
  4 15  2  0  0  0  0
  5 16  1  0  0  0  0
  5 21  1  0  0  0  0
  5 36  1  0  0  0  0
  6 18  1  0  0  0  0
  6 21  1  0  0  0  0
  6 37  1  0  0  0  0
  7 15  1  0  0  0  0
  7 40  1  0  0  0  0
  7 41  1  0  0  0  0
  8 18  1  0  0  0  0
  8 45  1  0  0  0  0
  8 46  1  0  0  0  0
  9 10  1  0  0  0  0
  9 11  1  0  0  0  0
  9 25  1  0  0  0  0
  9 26  1  0  0  0  0
 10 12  1  0  0  0  0
 10 27  1  0  0  0  0
 10 28  1  0  0  0  0
 11 13  2  0  0  0  0
 12 29  1  0  0  0  0
 12 30  1  0  0  0  0
 13 14  1  0  0  0  0
 14 31  1  0  0  0  0
 14 32  1  0  0  0  0
 14 33  1  0  0  0  0
 16 17  1  0  0  0  0
 16 34  1  0  0  0  0
 16 35  1  0  0  0  0
 17 19  2  0  0  0  0
 17 20  1  0  0  0  0
 19 22  1  0  0  0  0
 19 38  1  0  0  0  0
 20 23  2  0  0  0  0
 20 39  1  0  0  0  0
 22 24  2  0  0  0  0
 22 42  1  0  0  0  0
 23 24  1  0  0  0  0
 23 43  1  0  0  0  0
 24 44  1  0  0  0  0
M  END
> <PUBCHEM_COMPOUND_CID>
164611342

> <PUBCHEM_COMPOUND_CANONICALIZED>
1

> <PUBCHEM_CACTVS_COMPLEXITY>
427

> <PUBCHEM_CACTVS_HBOND_ACCEPTOR>
5

> <PUBCHEM_CACTVS_HBOND_DONOR>
4

> <PUBCHEM_CACTVS_ROTATABLE_BOND>
7

> <PUBCHEM_CACTVS_SUBSKEYS>
AAADceB7oABAAAAAAAAAAAAAAAAAAWAAAAAwAAAAAAAAAAABwAAAHgQQAAAADAjBXgQzkZLIEAisAyRidACC8KlhCDkJmJQ4RIiIICLgkRGEIAhohwJIyCcQgAAOAAAAAAAAAAAAAAAAAAAAAAAAAAAAAA==

> <PUBCHEM_IUPAC_OPENEYE_NAME>
1-[N'-[3-(2-amino-4-methyl-thiazol-5-yl)propyl]carbamimidoyl]-3-benzyl-urea

> <PUBCHEM_IUPAC_CAS_NAME>
1-[amino-[3-(2-amino-4-methyl-5-thiazolyl)propylimino]methyl]-3-(phenylmethyl)urea

> <PUBCHEM_IUPAC_NAME_MARKUP>
1-[<I>N</I>&apos;-[3-(2-amino-4-methyl-1,3-thiazol-5-yl)propyl]carbamimidoyl]-3-benzylurea

> <PUBCHEM_IUPAC_NAME>
1-[N'-[3-(2-amino-4-methyl-1,3-thiazol-5-yl)propyl]carbamimidoyl]-3-benzylurea

> <PUBCHEM_IUPAC_SYSTEMATIC_NAME>
1-[N'-[3-(2-azanyl-4-methyl-1,3-thiazol-5-yl)propyl]carbamimidoyl]-3-(phenylmethyl)urea

> <PUBCHEM_IUPAC_TRADITIONAL_NAME>
1-[N'-[3-(2-amino-4-methyl-thiazol-5-yl)propyl]amidino]-3-benzyl-urea

> <PUBCHEM_IUPAC_INCHI>
InChI=1S/C16H22N6OS/c1-11-13(24-15(18)21-11)8-5-9-19-14(17)22-16(23)20-10-12-6-3-2-4-7-12/h2-4,6-7H,5,8-10H2,1H3,(H2,18,21)(H4,17,19,20,22,23)

> <PUBCHEM_IUPAC_INCHIKEY>
VFGWQQNKIVMZLG-UHFFFAOYSA-N

> <PUBCHEM_XLOGP3_AA>
2.2

> <PUBCHEM_EXACT_MASS>
346.15758052

> <PUBCHEM_MOLECULAR_FORMULA>
C16H22N6OS

> <PUBCHEM_MOLECULAR_WEIGHT>
346.5

> <PUBCHEM_OPENEYE_CAN_SMILES>
CC1=C(SC(=N1)N)CCCN=C(N)NC(=O)NCC2=CC=CC=C2

> <PUBCHEM_OPENEYE_ISO_SMILES>
CC1=C(SC(=N1)N)CCCN=C(N)NC(=O)NCC2=CC=CC=C2

> <PUBCHEM_CACTVS_TPSA>
147

> <PUBCHEM_MONOISOTOPIC_WEIGHT>
346.15758052

> <PUBCHEM_TOTAL_CHARGE>
0

> <PUBCHEM_HEAVY_ATOM_COUNT>
24

> <PUBCHEM_ATOM_DEF_STEREO_COUNT>
0

> <PUBCHEM_ATOM_UDEF_STEREO_COUNT>
0

> <PUBCHEM_BOND_DEF_STEREO_COUNT>
0

> <PUBCHEM_BOND_UDEF_STEREO_COUNT>
0

> <PUBCHEM_ISOTOPIC_ATOM_COUNT>
0

> <PUBCHEM_COMPONENT_COUNT>
1

> <PUBCHEM_CACTVS_TAUTO_COUNT>
-1

> <PUBCHEM_COORDINATE_TYPE>
1
5
255

> <PUBCHEM_BONDANNOTATIONS>
1  11  8
1  15  8
11  13  8
17  19  8
17  20  8
19  22  8
20  23  8
22  24  8
23  24  8
4  13  8
4  15  8

$$$$
