18397434
  -OEChem-09292322232D

 59 62  0     1  0  0  0  0  0999 V2000
   11.5820    1.2742    0.0000 O   0  0  0  0  0  0  0  0  0  0  0  0
    8.0718    1.2568    0.0000 O   0  0  0  0  0  0  0  0  0  0  0  0
    2.8641   -1.7231    0.0000 O   0  0  0  0  0  0  0  0  0  0  0  0
   13.3741    0.2395    0.0000 N   0  0  3  0  0  0  0  0  0  0  0  0
    7.2000   -0.2398    0.0000 N   0  0  0  0  0  0  0  0  0  0  0  0
   12.4641   -0.2673    0.0000 C   0  0  1  0  0  0  0  0  0  0  0  0
   11.5980    0.2327    0.0000 C   0  0  1  0  0  0  0  0  0  0  0  0
   12.4641   -1.2673    0.0000 C   0  0  0  0  0  0  0  0  0  0  0  0
   10.7320   -0.2673    0.0000 C   0  0  0  0  0  0  0  0  0  0  0  0
   11.5980   -1.7673    0.0000 C   0  0  0  0  0  0  0  0  0  0  0  0
   13.3821    1.2812    0.0000 C   0  0  0  0  0  0  0  0  0  0  0  0
   10.7320   -1.2673    0.0000 C   0  0  0  0  0  0  0  0  0  0  0  0
   12.4800    1.8020    0.0000 C   0  0  0  0  0  0  0  0  0  0  0  0
   14.2343   -0.2704    0.0000 C   0  0  0  0  0  0  0  0  0  0  0  0
    9.8381    0.2674    0.0000 C   0  0  0  0  0  0  0  0  0  0  0  0
   15.1060    0.2195    0.0000 C   0  0  0  0  0  0  0  0  0  0  0  0
    9.8381   -1.8020    0.0000 C   0  0  0  0  0  0  0  0  0  0  0  0
    8.9320   -0.2465    0.0000 C   0  0  0  0  0  0  0  0  0  0  0  0
    8.9320   -1.2881    0.0000 C   0  0  0  0  0  0  0  0  0  0  0  0
   15.9662   -0.2905    0.0000 C   0  0  0  0  0  0  0  0  0  0  0  0
    8.0679    0.2568    0.0000 C   0  0  0  0  0  0  0  0  0  0  0  0
    6.3359    0.2635    0.0000 C   0  0  0  0  0  0  0  0  0  0  0  0
    5.4679   -0.2331    0.0000 C   0  0  0  0  0  0  0  0  0  0  0  0
    5.4641   -1.2331    0.0000 C   0  0  0  0  0  0  0  0  0  0  0  0
    4.6038    0.2702    0.0000 C   0  0  0  0  0  0  0  0  0  0  0  0
    4.5961   -1.7298    0.0000 C   0  0  0  0  0  0  0  0  0  0  0  0
    3.7359   -0.2265    0.0000 C   0  0  0  0  0  0  0  0  0  0  0  0
    3.7320   -1.2264    0.0000 C   0  0  0  0  0  0  0  0  0  0  0  0
    2.0000   -1.2198    0.0000 C   0  0  0  0  0  0  0  0  0  0  0  0
   13.1969   -0.6980    0.0000 H   0  0  0  0  0  0  0  0  0  0  0  0
   12.3309    0.6634    0.0000 H   0  0  0  0  0  0  0  0  0  0  0  0
   12.6761   -1.8499    0.0000 H   0  0  0  0  0  0  0  0  0  0  0  0
   13.0746   -1.1596    0.0000 H   0  0  0  0  0  0  0  0  0  0  0  0
   11.1995   -2.2422    0.0000 H   0  0  0  0  0  0  0  0  0  0  0  0
   11.9966   -2.2422    0.0000 H   0  0  0  0  0  0  0  0  0  0  0  0
   13.9921    1.1704    0.0000 H   0  0  0  0  0  0  0  0  0  0  0  0
   13.5956    1.8632    0.0000 H   0  0  0  0  0  0  0  0  0  0  0  0
   12.8773    2.2779    0.0000 H   0  0  0  0  0  0  0  0  0  0  0  0
   12.0791    2.2748    0.0000 H   0  0  0  0  0  0  0  0  0  0  0  0
   13.8303   -0.7407    0.0000 H   0  0  0  0  0  0  0  0  0  0  0  0
   14.6273   -0.7500    0.0000 H   0  0  0  0  0  0  0  0  0  0  0  0
    9.8452    0.8873    0.0000 H   0  0  0  0  0  0  0  0  0  0  0  0
   15.5100    0.6898    0.0000 H   0  0  0  0  0  0  0  0  0  0  0  0
   14.7130    0.6990    0.0000 H   0  0  0  0  0  0  0  0  0  0  0  0
    9.8452   -2.4219    0.0000 H   0  0  0  0  0  0  0  0  0  0  0  0
    8.3963   -1.6002    0.0000 H   0  0  0  0  0  0  0  0  0  0  0  0
   15.6500   -0.8238    0.0000 H   0  0  0  0  0  0  0  0  0  0  0  0
   16.4995   -0.6067    0.0000 H   0  0  0  0  0  0  0  0  0  0  0  0
   16.2824    0.2429    0.0000 H   0  0  0  0  0  0  0  0  0  0  0  0
    7.1976   -0.8598    0.0000 H   0  0  0  0  0  0  0  0  0  0  0  0
    6.7362    0.7369    0.0000 H   0  0  0  0  0  0  0  0  0  0  0  0
    5.9392    0.7400    0.0000 H   0  0  0  0  0  0  0  0  0  0  0  0
    5.9998   -1.5452    0.0000 H   0  0  0  0  0  0  0  0  0  0  0  0
    4.6062    0.8902    0.0000 H   0  0  0  0  0  0  0  0  0  0  0  0
    4.5937   -2.3498    0.0000 H   0  0  0  0  0  0  0  0  0  0  0  0
    3.2002    0.0856    0.0000 H   0  0  0  0  0  0  0  0  0  0  0  0
    2.3121   -0.6840    0.0000 H   0  0  0  0  0  0  0  0  0  0  0  0
    1.4643   -0.9077    0.0000 H   0  0  0  0  0  0  0  0  0  0  0  0
    1.6879   -1.7555    0.0000 H   0  0  0  0  0  0  0  0  0  0  0  0
  1  7  1  0  0  0  0
  1 13  1  0  0  0  0
  2 21  2  0  0  0  0
  3 28  1  0  0  0  0
  3 29  1  0  0  0  0
  4  6  1  0  0  0  0
  4 11  1  0  0  0  0
  4 14  1  0  0  0  0
  5 21  1  0  0  0  0
  5 22  1  0  0  0  0
  5 50  1  0  0  0  0
  6  7  1  0  0  0  0
  6  8  1  0  0  0  0
  6 30  1  1  0  0  0
  7  9  1  0  0  0  0
  7 31  1  6  0  0  0
  8 10  1  0  0  0  0
  8 32  1  0  0  0  0
  8 33  1  0  0  0  0
  9 12  2  0  0  0  0
  9 15  1  0  0  0  0
 10 12  1  0  0  0  0
 10 34  1  0  0  0  0
 10 35  1  0  0  0  0
 11 13  1  0  0  0  0
 11 36  1  0  0  0  0
 11 37  1  0  0  0  0
 12 17  1  0  0  0  0
 13 38  1  0  0  0  0
 13 39  1  0  0  0  0
 14 16  1  0  0  0  0
 14 40  1  0  0  0  0
 14 41  1  0  0  0  0
 15 18  2  0  0  0  0
 15 42  1  0  0  0  0
 16 20  1  0  0  0  0
 16 43  1  0  0  0  0
 16 44  1  0  0  0  0
 17 19  2  0  0  0  0
 17 45  1  0  0  0  0
 18 19  1  0  0  0  0
 18 21  1  0  0  0  0
 19 46  1  0  0  0  0
 20 47  1  0  0  0  0
 20 48  1  0  0  0  0
 20 49  1  0  0  0  0
 22 23  1  0  0  0  0
 22 51  1  0  0  0  0
 22 52  1  0  0  0  0
 23 24  2  0  0  0  0
 23 25  1  0  0  0  0
 24 26  1  0  0  0  0
 24 53  1  0  0  0  0
 25 27  2  0  0  0  0
 25 54  1  0  0  0  0
 26 28  2  0  0  0  0
 26 55  1  0  0  0  0
 27 28  1  0  0  0  0
 27 56  1  0  0  0  0
 29 57  1  0  0  0  0
 29 58  1  0  0  0  0
 29 59  1  0  0  0  0
M  END
> <PUBCHEM_COMPOUND_CID>
18397434

> <PUBCHEM_COMPOUND_CANONICALIZED>
1

> <PUBCHEM_CACTVS_COMPLEXITY>
534

> <PUBCHEM_CACTVS_HBOND_ACCEPTOR>
4

> <PUBCHEM_CACTVS_HBOND_DONOR>
1

> <PUBCHEM_CACTVS_ROTATABLE_BOND>
6

> <PUBCHEM_CACTVS_SUBSKEYS>
AAADceB7MAAAAAAAAAAAAAAAAAAAAAAAAAA8YMEAAAAAAADxQAAAHgAQAAAADDzhmAYyBoPABACIAiFSEACCCAAkIAAIiIEODMgOJjKEtRuHMShkxhGYqYeY3PLO4AACAAAQAADQAAaAADAgAAAAAAAAAA==

> <PUBCHEM_IUPAC_OPENEYE_NAME>
(4aR,10bR)-N-[(4-methoxyphenyl)methyl]-4-propyl-2,3,4a,5,6,10b-hexahydrobenzo[h][1,4]benzoxazine-9-carboxamide

> <PUBCHEM_IUPAC_CAS_NAME>
(4aR,10bR)-N-[(4-methoxyphenyl)methyl]-4-propyl-2,3,4a,5,6,10b-hexahydrobenzo[h][1,4]benzoxazine-9-carboxamide

> <PUBCHEM_IUPAC_NAME_MARKUP>
(4<I>a</I><I>R</I>,10<I>b</I><I>R</I>)-<I>N</I>-[(4-methoxyphenyl)methyl]-4-propyl-2,3,4<I>a</I>,5,6,10<I>b</I>-hexahydrobenzo[h][1,4]benzoxazine-9-carboxamide

> <PUBCHEM_IUPAC_NAME>
(4aR,10bR)-N-[(4-methoxyphenyl)methyl]-4-propyl-2,3,4a,5,6,10b-hexahydrobenzo[h][1,4]benzoxazine-9-carboxamide

> <PUBCHEM_IUPAC_SYSTEMATIC_NAME>
(4aR,10bR)-N-[(4-methoxyphenyl)methyl]-4-propyl-2,3,4a,5,6,10b-hexahydrobenzo[h][1,4]benzoxazine-9-carboxamide

> <PUBCHEM_IUPAC_TRADITIONAL_NAME>
(4aR,10bR)-N-p-anisyl-4-propyl-2,3,4a,5,6,10b-hexahydrobenzo[h][1,4]benzoxazine-9-carboxamide

> <PUBCHEM_IUPAC_INCHI>
InChI=1S/C24H30N2O3/c1-3-12-26-13-14-29-23-21-15-19(7-6-18(21)8-11-22(23)26)24(27)25-16-17-4-9-20(28-2)10-5-17/h4-7,9-10,15,22-23H,3,8,11-14,16H2,1-2H3,(H,25,27)/t22-,23-/m1/s1

> <PUBCHEM_IUPAC_INCHIKEY>
NTVSBHFQAIUFRR-DHIUTWEWSA-N

> <PUBCHEM_XLOGP3>
3.5

> <PUBCHEM_EXACT_MASS>
394.22564282

> <PUBCHEM_MOLECULAR_FORMULA>
C24H30N2O3

> <PUBCHEM_MOLECULAR_WEIGHT>
394.5

> <PUBCHEM_OPENEYE_CAN_SMILES>
CCCN1CCOC2C1CCC3=C2C=C(C=C3)C(=O)NCC4=CC=C(C=C4)OC

> <PUBCHEM_OPENEYE_ISO_SMILES>
CCCN1CCO[C@H]2[C@H]1CCC3=C2C=C(C=C3)C(=O)NCC4=CC=C(C=C4)OC

> <PUBCHEM_CACTVS_TPSA>
50.8

> <PUBCHEM_MONOISOTOPIC_WEIGHT>
394.22564282

> <PUBCHEM_TOTAL_CHARGE>
0

> <PUBCHEM_HEAVY_ATOM_COUNT>
29

> <PUBCHEM_ATOM_DEF_STEREO_COUNT>
2

> <PUBCHEM_ATOM_UDEF_STEREO_COUNT>
0

> <PUBCHEM_BOND_DEF_STEREO_COUNT>
0

> <PUBCHEM_BOND_UDEF_STEREO_COUNT>
0

> <PUBCHEM_ISOTOPIC_ATOM_COUNT>
0

> <PUBCHEM_COMPONENT_COUNT>
1

> <PUBCHEM_CACTVS_TAUTO_COUNT>
-1

> <PUBCHEM_COORDINATE_TYPE>
1
5
255

> <PUBCHEM_BONDANNOTATIONS>
12  17  8
15  18  8
17  19  8
18  19  8
23  24  8
23  25  8
24  26  8
25  27  8
26  28  8
27  28  8
6  30  5
7  31  6
9  12  8
9  15  8

$$$$
