122180570
  -OEChem-09292322362D

 62 66  0     0  0  0  0  0  0999 V2000
    4.1701   -0.4232    0.0000 O   0  0  0  0  0  0  0  0  0  0  0  0
    6.9726    1.6130    0.0000 N   0  0  0  0  0  0  0  0  0  0  0  0
    4.9836    1.4039    0.0000 N   0  0  0  0  0  0  0  0  0  0  0  0
   12.7144   -0.0279    0.0000 N   0  0  0  0  0  0  0  0  0  0  0  0
   11.6317    1.1745    0.0000 N   0  0  0  0  0  0  0  0  0  0  0  0
   12.6099    0.9666    0.0000 N   0  0  0  0  0  0  0  0  0  0  0  0
   16.2587   -1.8326    0.0000 N   0  0  0  0  0  0  0  0  0  0  0  0
    6.3848    2.4220    0.0000 C   0  0  0  0  0  0  0  0  0  0  0  0
    6.5659    0.6994    0.0000 C   0  0  0  0  0  0  0  0  0  0  0  0
    5.3903    2.3174    0.0000 C   0  0  0  0  0  0  0  0  0  0  0  0
    5.5714    0.5949    0.0000 C   0  0  0  0  0  0  0  0  0  0  0  0
    7.9671    1.7175    0.0000 C   0  0  0  0  0  0  0  0  0  0  0  0
    8.5549    0.9085    0.0000 C   0  0  0  0  0  0  0  0  0  0  0  0
    9.5494    1.0130    0.0000 C   0  0  0  0  0  0  0  0  0  0  0  0
    3.9890    1.2994    0.0000 C   0  0  0  0  0  0  0  0  0  0  0  0
   10.1372    0.2040    0.0000 C   0  0  0  0  0  0  0  0  0  0  0  0
    3.5823    0.3858    0.0000 C   0  0  0  0  0  0  0  0  0  0  0  0
    3.4013    2.1084    0.0000 C   0  0  0  0  0  0  0  0  0  0  0  0
   11.1317    0.3085    0.0000 C   0  0  0  0  0  0  0  0  0  0  0  0
    2.5878    0.2813    0.0000 C   0  0  0  0  0  0  0  0  0  0  0  0
    2.4067    2.0038    0.0000 C   0  0  0  0  0  0  0  0  0  0  0  0
   11.8009   -0.4346    0.0000 C   0  0  0  0  0  0  0  0  0  0  0  0
    2.0000    1.0903    0.0000 C   0  0  0  0  0  0  0  0  0  0  0  0
   13.5804   -0.5279    0.0000 C   0  0  0  0  0  0  0  0  0  0  0  0
   15.3125   -0.5279    0.0000 C   0  0  0  0  0  0  0  0  0  0  0  0
   14.4465   -0.0279    0.0000 C   0  0  0  0  0  0  0  0  0  0  0  0
   15.3125   -1.5279    0.0000 C   0  0  0  0  0  0  0  0  0  0  0  0
    3.7634   -1.3368    0.0000 C   0  0  0  0  0  0  0  0  0  0  0  0
   13.5804   -1.5279    0.0000 C   0  0  0  0  0  0  0  0  0  0  0  0
   14.4465   -2.0279    0.0000 C   0  0  0  0  0  0  0  0  0  0  0  0
   16.2587   -0.2232    0.0000 C   0  0  0  0  0  0  0  0  0  0  0  0
   16.8423   -1.0279    0.0000 C   0  0  0  0  0  0  0  0  0  0  0  0
    6.9421    2.6938    0.0000 H   0  0  0  0  0  0  0  0  0  0  0  0
    6.2139    3.0180    0.0000 H   0  0  0  0  0  0  0  0  0  0  0  0
    6.5226    0.0809    0.0000 H   0  0  0  0  0  0  0  0  0  0  0  0
    7.1675    0.5494    0.0000 H   0  0  0  0  0  0  0  0  0  0  0  0
    5.4336    2.9359    0.0000 H   0  0  0  0  0  0  0  0  0  0  0  0
    4.7887    2.4674    0.0000 H   0  0  0  0  0  0  0  0  0  0  0  0
    5.0141    0.3231    0.0000 H   0  0  0  0  0  0  0  0  0  0  0  0
    5.7422   -0.0011    0.0000 H   0  0  0  0  0  0  0  0  0  0  0  0
    8.5244    1.9893    0.0000 H   0  0  0  0  0  0  0  0  0  0  0  0
    7.7962    2.3135    0.0000 H   0  0  0  0  0  0  0  0  0  0  0  0
    7.9977    0.6367    0.0000 H   0  0  0  0  0  0  0  0  0  0  0  0
    8.7258    0.3125    0.0000 H   0  0  0  0  0  0  0  0  0  0  0  0
   10.1067    1.2848    0.0000 H   0  0  0  0  0  0  0  0  0  0  0  0
    9.3785    1.6090    0.0000 H   0  0  0  0  0  0  0  0  0  0  0  0
    9.5800   -0.0678    0.0000 H   0  0  0  0  0  0  0  0  0  0  0  0
   10.3081   -0.3920    0.0000 H   0  0  0  0  0  0  0  0  0  0  0  0
    3.6534    2.6748    0.0000 H   0  0  0  0  0  0  0  0  0  0  0  0
    2.3356   -0.2851    0.0000 H   0  0  0  0  0  0  0  0  0  0  0  0
    2.0423    2.5054    0.0000 H   0  0  0  0  0  0  0  0  0  0  0  0
   11.6720   -1.0411    0.0000 H   0  0  0  0  0  0  0  0  0  0  0  0
    1.3834    1.0255    0.0000 H   0  0  0  0  0  0  0  0  0  0  0  0
   14.4465    0.5921    0.0000 H   0  0  0  0  0  0  0  0  0  0  0  0
   13.0435   -1.8379    0.0000 H   0  0  0  0  0  0  0  0  0  0  0  0
    3.1970   -1.0846    0.0000 H   0  0  0  0  0  0  0  0  0  0  0  0
    3.5112   -1.9031    0.0000 H   0  0  0  0  0  0  0  0  0  0  0  0
    4.3298   -1.5889    0.0000 H   0  0  0  0  0  0  0  0  0  0  0  0
   14.4465   -2.6479    0.0000 H   0  0  0  0  0  0  0  0  0  0  0  0
   16.4513    0.3661    0.0000 H   0  0  0  0  0  0  0  0  0  0  0  0
   16.4513   -2.4220    0.0000 H   0  0  0  0  0  0  0  0  0  0  0  0
   17.4623   -1.0279    0.0000 H   0  0  0  0  0  0  0  0  0  0  0  0
  1 17  1  0  0  0  0
  1 28  1  0  0  0  0
  2  8  1  0  0  0  0
  2  9  1  0  0  0  0
  2 12  1  0  0  0  0
  3 10  1  0  0  0  0
  3 11  1  0  0  0  0
  3 15  1  0  0  0  0
  4  6  1  0  0  0  0
  4 22  1  0  0  0  0
  4 24  1  0  0  0  0
  5  6  2  0  0  0  0
  5 19  1  0  0  0  0
  7 27  1  0  0  0  0
  7 32  1  0  0  0  0
  7 61  1  0  0  0  0
  8 10  1  0  0  0  0
  8 33  1  0  0  0  0
  8 34  1  0  0  0  0
  9 11  1  0  0  0  0
  9 35  1  0  0  0  0
  9 36  1  0  0  0  0
 10 37  1  0  0  0  0
 10 38  1  0  0  0  0
 11 39  1  0  0  0  0
 11 40  1  0  0  0  0
 12 13  1  0  0  0  0
 12 41  1  0  0  0  0
 12 42  1  0  0  0  0
 13 14  1  0  0  0  0
 13 43  1  0  0  0  0
 13 44  1  0  0  0  0
 14 16  1  0  0  0  0
 14 45  1  0  0  0  0
 14 46  1  0  0  0  0
 15 17  1  0  0  0  0
 15 18  2  0  0  0  0
 16 19  1  0  0  0  0
 16 47  1  0  0  0  0
 16 48  1  0  0  0  0
 17 20  2  0  0  0  0
 18 21  1  0  0  0  0
 18 49  1  0  0  0  0
 19 22  2  0  0  0  0
 20 23  1  0  0  0  0
 20 50  1  0  0  0  0
 21 23  2  0  0  0  0
 21 51  1  0  0  0  0
 22 52  1  0  0  0  0
 23 53  1  0  0  0  0
 24 26  2  0  0  0  0
 24 29  1  0  0  0  0
 25 26  1  0  0  0  0
 25 27  2  0  0  0  0
 25 31  1  0  0  0  0
 26 54  1  0  0  0  0
 27 30  1  0  0  0  0
 28 56  1  0  0  0  0
 28 57  1  0  0  0  0
 28 58  1  0  0  0  0
 29 30  2  0  0  0  0
 29 55  1  0  0  0  0
 30 59  1  0  0  0  0
 31 32  2  0  0  0  0
 31 60  1  0  0  0  0
 32 62  1  0  0  0  0
M  END
> <PUBCHEM_COMPOUND_CID>
122180570

> <PUBCHEM_COMPOUND_CANONICALIZED>
1

> <PUBCHEM_CACTVS_COMPLEXITY>
571

> <PUBCHEM_CACTVS_HBOND_ACCEPTOR>
5

> <PUBCHEM_CACTVS_HBOND_DONOR>
1

> <PUBCHEM_CACTVS_ROTATABLE_BOND>
8

> <PUBCHEM_CACTVS_SUBSKEYS>
AAADceB7oAAAAAAAAAAAAAAAAAAAAWLAAAA8YIAAAAAAAFgB/AAAHgAYAAAADAzBngY+xvPJlACiAzRnRACCjCQxsiAY2aA/fJgOZuLEsZuVMChk0BHY6AeQwIAOAACAQAACEAAAAQCAAAQgAAAAAAAAAA==

> <PUBCHEM_IUPAC_OPENEYE_NAME>
5-[4-[4-[4-(2-methoxyphenyl)piperazin-1-yl]butyl]triazol-1-yl]-1H-indole

> <PUBCHEM_IUPAC_CAS_NAME>
5-[4-[4-[4-(2-methoxyphenyl)-1-piperazinyl]butyl]-1-triazolyl]-1H-indole

> <PUBCHEM_IUPAC_NAME_MARKUP>
5-[4-[4-[4-(2-methoxyphenyl)piperazin-1-yl]butyl]triazol-1-yl]-1<I>H</I>-indole

> <PUBCHEM_IUPAC_NAME>
5-[4-[4-[4-(2-methoxyphenyl)piperazin-1-yl]butyl]triazol-1-yl]-1H-indole

> <PUBCHEM_IUPAC_SYSTEMATIC_NAME>
5-[4-[4-[4-(2-methoxyphenyl)piperazin-1-yl]butyl]-1,2,3-triazol-1-yl]-1H-indole

> <PUBCHEM_IUPAC_TRADITIONAL_NAME>
5-[4-[4-[4-(2-methoxyphenyl)piperazino]butyl]triazol-1-yl]-1H-indole

> <PUBCHEM_IUPAC_INCHI>
InChI=1S/C25H30N6O/c1-32-25-8-3-2-7-24(25)30-16-14-29(15-17-30)13-5-4-6-21-19-31(28-27-21)22-9-10-23-20(18-22)11-12-26-23/h2-3,7-12,18-19,26H,4-6,13-17H2,1H3

> <PUBCHEM_IUPAC_INCHIKEY>
YNWOBTVVUPPFAD-UHFFFAOYSA-N

> <PUBCHEM_XLOGP3_AA>
4.1

> <PUBCHEM_EXACT_MASS>
430.24810960

> <PUBCHEM_MOLECULAR_FORMULA>
C25H30N6O

> <PUBCHEM_MOLECULAR_WEIGHT>
430.5

> <PUBCHEM_OPENEYE_CAN_SMILES>
COC1=CC=CC=C1N2CCN(CC2)CCCCC3=CN(N=N3)C4=CC5=C(C=C4)NC=C5

> <PUBCHEM_OPENEYE_ISO_SMILES>
COC1=CC=CC=C1N2CCN(CC2)CCCCC3=CN(N=N3)C4=CC5=C(C=C4)NC=C5

> <PUBCHEM_CACTVS_TPSA>
62.2

> <PUBCHEM_MONOISOTOPIC_WEIGHT>
430.24810960

> <PUBCHEM_TOTAL_CHARGE>
0

> <PUBCHEM_HEAVY_ATOM_COUNT>
32

> <PUBCHEM_ATOM_DEF_STEREO_COUNT>
0

> <PUBCHEM_ATOM_UDEF_STEREO_COUNT>
0

> <PUBCHEM_BOND_DEF_STEREO_COUNT>
0

> <PUBCHEM_BOND_UDEF_STEREO_COUNT>
0

> <PUBCHEM_ISOTOPIC_ATOM_COUNT>
0

> <PUBCHEM_COMPONENT_COUNT>
1

> <PUBCHEM_CACTVS_TAUTO_COUNT>
-1

> <PUBCHEM_COORDINATE_TYPE>
1
5
255

> <PUBCHEM_BONDANNOTATIONS>
15  17  8
15  18  8
17  20  8
18  21  8
19  22  8
20  23  8
21  23  8
24  26  8
24  29  8
25  26  8
25  27  8
25  31  8
27  30  8
29  30  8
31  32  8
4  22  8
4  6  8
5  19  8
5  6  8
7  27  8
7  32  8

$$$$
