127029651
  -OEChem-09292322372D

 64 67  0     1  0  0  0  0  0999 V2000
    2.9511   -6.6971    0.0000 F   0  0  0  0  0  0  0  0  0  0  0  0
    4.6759    0.2102    0.0000 O   0  0  0  0  0  0  0  0  0  0  0  0
    4.5388   -3.5062    0.0000 O   0  0  0  0  0  0  0  0  0  0  0  0
    3.4511   -0.1583    0.0000 O   0  0  0  0  0  0  0  0  0  0  0  0
    6.5780    0.8282    0.0000 N   0  0  0  0  0  0  0  0  0  0  0  0
    6.9938    2.7846    0.0000 N   0  0  0  0  0  0  0  0  0  0  0  0
    4.2601   -1.7461    0.0000 N   0  0  0  0  0  0  0  0  0  0  0  0
    2.6420   -1.7461    0.0000 N   0  0  0  0  0  0  0  0  0  0  0  0
    6.3701   -0.1499    0.0000 C   0  0  0  0  0  0  0  0  0  0  0  0
    7.5291    1.1373    0.0000 C   0  0  0  0  0  0  0  0  0  0  0  0
    5.8349    1.4974    0.0000 C   0  0  0  0  0  0  0  0  0  0  0  0
    5.4190   -0.4589    0.0000 C   0  0  3  0  0  0  0  0  0  0  0  0
    7.7370    2.1154    0.0000 C   0  0  0  0  0  0  0  0  0  0  0  0
    6.0428    2.4755    0.0000 C   0  0  0  0  0  0  0  0  0  0  0  0
    2.9511   -2.6971    0.0000 C   0  0  3  0  0  0  0  0  0  0  0  0
    5.2111   -1.4371    0.0000 C   0  0  0  0  0  0  0  0  0  0  0  0
    3.9511   -2.6971    0.0000 C   0  0  0  0  0  0  0  0  0  0  0  0
    7.2018    3.7627    0.0000 C   0  0  0  0  0  0  0  0  0  0  0  0
    3.4511   -1.1583    0.0000 C   0  0  0  0  0  0  0  0  0  0  0  0
    2.9511   -3.6971    0.0000 C   0  0  0  0  0  0  0  0  0  0  0  0
    2.0000   -3.0062    0.0000 C   0  0  0  0  0  0  0  0  0  0  0  0
    8.1528    4.0717    0.0000 C   0  0  0  0  0  0  0  0  0  0  0  0
    6.4586    4.4318    0.0000 C   0  0  0  0  0  0  0  0  0  0  0  0
    3.8171   -4.1971    0.0000 C   0  0  0  0  0  0  0  0  0  0  0  0
    2.0850   -4.1971    0.0000 C   0  0  0  0  0  0  0  0  0  0  0  0
    8.3607    5.0499    0.0000 C   0  0  0  0  0  0  0  0  0  0  0  0
    7.6176    5.7190    0.0000 C   0  0  0  0  0  0  0  0  0  0  0  0
    6.6665    5.4100    0.0000 C   0  0  0  0  0  0  0  0  0  0  0  0
    3.8171   -5.1971    0.0000 C   0  0  0  0  0  0  0  0  0  0  0  0
    2.0850   -5.1971    0.0000 C   0  0  0  0  0  0  0  0  0  0  0  0
    9.3118    5.3589    0.0000 C   0  0  0  0  0  0  0  0  0  0  0  0
    2.9511   -5.6971    0.0000 C   0  0  0  0  0  0  0  0  0  0  0  0
    7.8255    6.6971    0.0000 C   0  0  0  0  0  0  0  0  0  0  0  0
    6.4564   -0.7639    0.0000 H   0  0  0  0  0  0  0  0  0  0  0  0
    6.9897   -0.1715    0.0000 H   0  0  0  0  0  0  0  0  0  0  0  0
    7.6154    0.5233    0.0000 H   0  0  0  0  0  0  0  0  0  0  0  0
    8.1487    1.1156    0.0000 H   0  0  0  0  0  0  0  0  0  0  0  0
    5.2600    1.7296    0.0000 H   0  0  0  0  0  0  0  0  0  0  0  0
    5.5063    0.9716    0.0000 H   0  0  0  0  0  0  0  0  0  0  0  0
    4.8294   -0.6505    0.0000 H   0  0  0  0  0  0  0  0  0  0  0  0
    8.3118    1.8832    0.0000 H   0  0  0  0  0  0  0  0  0  0  0  0
    8.0655    2.6412    0.0000 H   0  0  0  0  0  0  0  0  0  0  0  0
    5.9565    3.0895    0.0000 H   0  0  0  0  0  0  0  0  0  0  0  0
    5.4232    2.4972    0.0000 H   0  0  0  0  0  0  0  0  0  0  0  0
    5.2974   -2.0510    0.0000 H   0  0  0  0  0  0  0  0  0  0  0  0
    5.8308   -1.4587    0.0000 H   0  0  0  0  0  0  0  0  0  0  0  0
    2.0524   -1.5545    0.0000 H   0  0  0  0  0  0  0  0  0  0  0  0
    1.8084   -2.4165    0.0000 H   0  0  0  0  0  0  0  0  0  0  0  0
    1.4103   -3.1977    0.0000 H   0  0  0  0  0  0  0  0  0  0  0  0
    2.1916   -3.5958    0.0000 H   0  0  0  0  0  0  0  0  0  0  0  0
    4.8048    0.8167    0.0000 H   0  0  0  0  0  0  0  0  0  0  0  0
    8.6136    3.6568    0.0000 H   0  0  0  0  0  0  0  0  0  0  0  0
    5.8690    4.2402    0.0000 H   0  0  0  0  0  0  0  0  0  0  0  0
    4.3540   -3.8871    0.0000 H   0  0  0  0  0  0  0  0  0  0  0  0
    1.5481   -3.8871    0.0000 H   0  0  0  0  0  0  0  0  0  0  0  0
    6.2058    5.8248    0.0000 H   0  0  0  0  0  0  0  0  0  0  0  0
    4.3540   -5.5071    0.0000 H   0  0  0  0  0  0  0  0  0  0  0  0
    1.5481   -5.5071    0.0000 H   0  0  0  0  0  0  0  0  0  0  0  0
    9.5034    4.7692    0.0000 H   0  0  0  0  0  0  0  0  0  0  0  0
    9.9014    5.5505    0.0000 H   0  0  0  0  0  0  0  0  0  0  0  0
    9.1202    5.9485    0.0000 H   0  0  0  0  0  0  0  0  0  0  0  0
    8.4319    6.5682    0.0000 H   0  0  0  0  0  0  0  0  0  0  0  0
    7.9544    7.3036    0.0000 H   0  0  0  0  0  0  0  0  0  0  0  0
    7.2190    6.8260    0.0000 H   0  0  0  0  0  0  0  0  0  0  0  0
  1 32  1  0  0  0  0
  2 12  1  0  0  0  0
  2 51  1  0  0  0  0
  3 17  2  0  0  0  0
  4 19  2  0  0  0  0
  5  9  1  0  0  0  0
  5 10  1  0  0  0  0
  5 11  1  0  0  0  0
  6 13  1  0  0  0  0
  6 14  1  0  0  0  0
  6 18  1  0  0  0  0
  7 16  1  0  0  0  0
  7 17  1  0  0  0  0
  7 19  1  0  0  0  0
  8 15  1  0  0  0  0
  8 19  1  0  0  0  0
  8 47  1  0  0  0  0
  9 12  1  0  0  0  0
  9 34  1  0  0  0  0
  9 35  1  0  0  0  0
 10 13  1  0  0  0  0
 10 36  1  0  0  0  0
 10 37  1  0  0  0  0
 11 14  1  0  0  0  0
 11 38  1  0  0  0  0
 11 39  1  0  0  0  0
 12 16  1  0  0  0  0
 12 40  1  0  0  0  0
 13 41  1  0  0  0  0
 13 42  1  0  0  0  0
 14 43  1  0  0  0  0
 14 44  1  0  0  0  0
 15 17  1  0  0  0  0
 15 20  1  0  0  0  0
 15 21  1  0  0  0  0
 16 45  1  0  0  0  0
 16 46  1  0  0  0  0
 18 22  2  0  0  0  0
 18 23  1  0  0  0  0
 20 24  2  0  0  0  0
 20 25  1  0  0  0  0
 21 48  1  0  0  0  0
 21 49  1  0  0  0  0
 21 50  1  0  0  0  0
 22 26  1  0  0  0  0
 22 52  1  0  0  0  0
 23 28  2  0  0  0  0
 23 53  1  0  0  0  0
 24 29  1  0  0  0  0
 24 54  1  0  0  0  0
 25 30  2  0  0  0  0
 25 55  1  0  0  0  0
 26 27  2  0  0  0  0
 26 31  1  0  0  0  0
 27 28  1  0  0  0  0
 27 33  1  0  0  0  0
 28 56  1  0  0  0  0
 29 32  2  0  0  0  0
 29 57  1  0  0  0  0
 30 32  1  0  0  0  0
 30 58  1  0  0  0  0
 31 59  1  0  0  0  0
 31 60  1  0  0  0  0
 31 61  1  0  0  0  0
 33 62  1  0  0  0  0
 33 63  1  0  0  0  0
 33 64  1  0  0  0  0
M  END
> <PUBCHEM_COMPOUND_CID>
127029651

> <PUBCHEM_COMPOUND_CANONICALIZED>
1

> <PUBCHEM_CACTVS_COMPLEXITY>
708

> <PUBCHEM_CACTVS_HBOND_ACCEPTOR>
6

> <PUBCHEM_CACTVS_HBOND_DONOR>
2

> <PUBCHEM_CACTVS_ROTATABLE_BOND>
6

> <PUBCHEM_CACTVS_SUBSKEYS>
AAADceB7sQAAAAAAAAAAAAAAAAAAAWAAAAA8YIAAAAAAAAABQAAAHwAQCAAADJzhmA4zwIPAAgCIAiVSUACCAAAhAgAIiAGIZIiKcDLA1bGUIAholyLYyAcYiMCOiAAAQAAQAAAQAACAACAAAAAAAAAAAA==

> <PUBCHEM_IUPAC_OPENEYE_NAME>
3-[3-[4-(3,4-dimethylphenyl)piperazin-1-yl]-2-hydroxy-propyl]-5-(4-fluorophenyl)-5-methyl-imidazolidine-2,4-dione

> <PUBCHEM_IUPAC_CAS_NAME>
3-[3-[4-(3,4-dimethylphenyl)-1-piperazinyl]-2-hydroxypropyl]-5-(4-fluorophenyl)-5-methylimidazolidine-2,4-dione

> <PUBCHEM_IUPAC_NAME_MARKUP>
3-[3-[4-(3,4-dimethylphenyl)piperazin-1-yl]-2-hydroxypropyl]-5-(4-fluorophenyl)-5-methylimidazolidine-2,4-dione

> <PUBCHEM_IUPAC_NAME>
3-[3-[4-(3,4-dimethylphenyl)piperazin-1-yl]-2-hydroxypropyl]-5-(4-fluorophenyl)-5-methylimidazolidine-2,4-dione

> <PUBCHEM_IUPAC_SYSTEMATIC_NAME>
3-[3-[4-(3,4-dimethylphenyl)piperazin-1-yl]-2-oxidanyl-propyl]-5-(4-fluorophenyl)-5-methyl-imidazolidine-2,4-dione

> <PUBCHEM_IUPAC_TRADITIONAL_NAME>
3-[3-[4-(3,4-dimethylphenyl)piperazino]-2-hydroxy-propyl]-5-(4-fluorophenyl)-5-methyl-hydantoin

> <PUBCHEM_IUPAC_INCHI>
InChI=1S/C25H31FN4O3/c1-17-4-9-21(14-18(17)2)29-12-10-28(11-13-29)15-22(31)16-30-23(32)25(3,27-24(30)33)19-5-7-20(26)8-6-19/h4-9,14,22,31H,10-13,15-16H2,1-3H3,(H,27,33)

> <PUBCHEM_IUPAC_INCHIKEY>
GHTVGKYMFLKBOX-UHFFFAOYSA-N

> <PUBCHEM_XLOGP3_AA>
2.9

> <PUBCHEM_EXACT_MASS>
454.23801903

> <PUBCHEM_MOLECULAR_FORMULA>
C25H31FN4O3

> <PUBCHEM_MOLECULAR_WEIGHT>
454.5

> <PUBCHEM_OPENEYE_CAN_SMILES>
CC1=C(C=C(C=C1)N2CCN(CC2)CC(CN3C(=O)C(NC3=O)(C)C4=CC=C(C=C4)F)O)C

> <PUBCHEM_OPENEYE_ISO_SMILES>
CC1=C(C=C(C=C1)N2CCN(CC2)CC(CN3C(=O)C(NC3=O)(C)C4=CC=C(C=C4)F)O)C

> <PUBCHEM_CACTVS_TPSA>
76.1

> <PUBCHEM_MONOISOTOPIC_WEIGHT>
454.23801903

> <PUBCHEM_TOTAL_CHARGE>
0

> <PUBCHEM_HEAVY_ATOM_COUNT>
33

> <PUBCHEM_ATOM_DEF_STEREO_COUNT>
0

> <PUBCHEM_ATOM_UDEF_STEREO_COUNT>
2

> <PUBCHEM_BOND_DEF_STEREO_COUNT>
0

> <PUBCHEM_BOND_UDEF_STEREO_COUNT>
0

> <PUBCHEM_ISOTOPIC_ATOM_COUNT>
0

> <PUBCHEM_COMPONENT_COUNT>
1

> <PUBCHEM_CACTVS_TAUTO_COUNT>
-1

> <PUBCHEM_COORDINATE_TYPE>
1
5
255

> <PUBCHEM_BONDANNOTATIONS>
15  21  3
18  22  8
18  23  8
12  2  3
20  24  8
20  25  8
22  26  8
23  28  8
24  29  8
25  30  8
26  27  8
27  28  8
29  32  8
30  32  8

$$$$
