24878953
  -OEChem-09292322242D

 48 49  0     1  0  0  0  0  0999 V2000
   11.0109    0.4510    0.0000 F   0  0  0  0  0  0  0  0  0  0  0  0
   11.3769    1.8170    0.0000 F   0  0  0  0  0  0  0  0  0  0  0  0
   10.0109    2.1830    0.0000 F   0  0  0  0  0  0  0  0  0  0  0  0
    9.6448    0.8170    0.0000 O   0  0  0  0  0  0  0  0  0  0  0  0
    3.5827   -0.6830    0.0000 N   0  0  0  0  0  0  0  0  0  0  0  0
    6.1808   -0.1830    0.0000 N   0  0  3  0  0  0  0  0  0  0  0  0
    2.6691   -0.2763    0.0000 C   0  0  0  0  0  0  0  0  0  0  0  0
    3.4782   -1.6775    0.0000 C   0  0  0  0  0  0  0  0  0  0  0  0
    2.0000   -1.0194    0.0000 C   0  0  0  0  0  0  0  0  0  0  0  0
    2.5000   -1.8854    0.0000 C   0  0  0  0  0  0  0  0  0  0  0  0
    4.4487   -0.1830    0.0000 C   0  0  0  0  0  0  0  0  0  0  0  0
    5.3147   -0.6830    0.0000 C   0  0  0  0  0  0  0  0  0  0  0  0
    7.0468   -0.6830    0.0000 C   0  0  0  0  0  0  0  0  0  0  0  0
    6.1808    0.8170    0.0000 C   0  0  0  0  0  0  0  0  0  0  0  0
    7.9128   -0.1830    0.0000 C   0  0  0  0  0  0  0  0  0  0  0  0
    8.7788   -0.6830    0.0000 C   0  0  0  0  0  0  0  0  0  0  0  0
    5.3147    1.3170    0.0000 C   0  0  0  0  0  0  0  0  0  0  0  0
    9.6448   -0.1830    0.0000 C   0  0  0  0  0  0  0  0  0  0  0  0
    8.7788   -1.6830    0.0000 C   0  0  0  0  0  0  0  0  0  0  0  0
   10.5109   -0.6830    0.0000 C   0  0  0  0  0  0  0  0  0  0  0  0
    9.6448   -2.1830    0.0000 C   0  0  0  0  0  0  0  0  0  0  0  0
   10.5109   -1.6830    0.0000 C   0  0  0  0  0  0  0  0  0  0  0  0
   10.5109    1.3170    0.0000 C   0  0  0  0  0  0  0  0  0  0  0  0
    2.9791    0.2607    0.0000 H   0  0  0  0  0  0  0  0  0  0  0  0
    2.1675    0.0882    0.0000 H   0  0  0  0  0  0  0  0  0  0  0  0
    3.5430   -2.2941    0.0000 H   0  0  0  0  0  0  0  0  0  0  0  0
    4.0982   -1.6775    0.0000 H   0  0  0  0  0  0  0  0  0  0  0  0
    1.5851   -0.5587    0.0000 H   0  0  0  0  0  0  0  0  0  0  0  0
    1.4984   -1.3838    0.0000 H   0  0  0  0  0  0  0  0  0  0  0  0
    1.9336   -2.1376    0.0000 H   0  0  0  0  0  0  0  0  0  0  0  0
    2.6916   -2.4751    0.0000 H   0  0  0  0  0  0  0  0  0  0  0  0
    4.8472    0.2919    0.0000 H   0  0  0  0  0  0  0  0  0  0  0  0
    4.0502    0.2919    0.0000 H   0  0  0  0  0  0  0  0  0  0  0  0
    4.9162   -1.1580    0.0000 H   0  0  0  0  0  0  0  0  0  0  0  0
    5.7133   -1.1580    0.0000 H   0  0  0  0  0  0  0  0  0  0  0  0
    6.6482   -1.1580    0.0000 H   0  0  0  0  0  0  0  0  0  0  0  0
    7.4453   -1.1580    0.0000 H   0  0  0  0  0  0  0  0  0  0  0  0
    6.7913    0.7093    0.0000 H   0  0  0  0  0  0  0  0  0  0  0  0
    6.3928    1.3996    0.0000 H   0  0  0  0  0  0  0  0  0  0  0  0
    8.3113    0.2919    0.0000 H   0  0  0  0  0  0  0  0  0  0  0  0
    7.5143    0.2919    0.0000 H   0  0  0  0  0  0  0  0  0  0  0  0
    5.6247    1.8539    0.0000 H   0  0  0  0  0  0  0  0  0  0  0  0
    4.7778    1.6270    0.0000 H   0  0  0  0  0  0  0  0  0  0  0  0
    5.0047    0.7801    0.0000 H   0  0  0  0  0  0  0  0  0  0  0  0
    8.2419   -1.9930    0.0000 H   0  0  0  0  0  0  0  0  0  0  0  0
   11.0478   -0.3730    0.0000 H   0  0  0  0  0  0  0  0  0  0  0  0
    9.6448   -2.8030    0.0000 H   0  0  0  0  0  0  0  0  0  0  0  0
   11.0478   -1.9930    0.0000 H   0  0  0  0  0  0  0  0  0  0  0  0
  1 23  1  0  0  0  0
  2 23  1  0  0  0  0
  3 23  1  0  0  0  0
  4 18  1  0  0  0  0
  4 23  1  0  0  0  0
  5  7  1  0  0  0  0
  5  8  1  0  0  0  0
  5 11  1  0  0  0  0
  6 12  1  0  0  0  0
  6 13  1  0  0  0  0
  6 14  1  0  0  0  0
  7  9  1  0  0  0  0
  7 24  1  0  0  0  0
  7 25  1  0  0  0  0
  8 10  1  0  0  0  0
  8 26  1  0  0  0  0
  8 27  1  0  0  0  0
  9 10  1  0  0  0  0
  9 28  1  0  0  0  0
  9 29  1  0  0  0  0
 10 30  1  0  0  0  0
 10 31  1  0  0  0  0
 11 12  1  0  0  0  0
 11 32  1  0  0  0  0
 11 33  1  0  0  0  0
 12 34  1  0  0  0  0
 12 35  1  0  0  0  0
 13 15  1  0  0  0  0
 13 36  1  0  0  0  0
 13 37  1  0  0  0  0
 14 17  1  0  0  0  0
 14 38  1  0  0  0  0
 14 39  1  0  0  0  0
 15 16  1  0  0  0  0
 15 40  1  0  0  0  0
 15 41  1  0  0  0  0
 16 18  1  0  0  0  0
 16 19  2  0  0  0  0
 17 42  1  0  0  0  0
 17 43  1  0  0  0  0
 17 44  1  0  0  0  0
 18 20  2  0  0  0  0
 19 21  1  0  0  0  0
 19 45  1  0  0  0  0
 20 22  1  0  0  0  0
 20 46  1  0  0  0  0
 21 22  2  0  0  0  0
 21 47  1  0  0  0  0
 22 48  1  0  0  0  0
M  END
> <PUBCHEM_COMPOUND_CID>
24878953

> <PUBCHEM_COMPOUND_CANONICALIZED>
1

> <PUBCHEM_CACTVS_COMPLEXITY>
332

> <PUBCHEM_CACTVS_HBOND_ACCEPTOR>
6

> <PUBCHEM_CACTVS_HBOND_DONOR>
0

> <PUBCHEM_CACTVS_ROTATABLE_BOND>
8

> <PUBCHEM_CACTVS_SUBSKEYS>
AAADceB7IYAAAAAAAAAAAAAAAAAAAWAAAAAwAAAAAAAAAAABAAAAHwAAAAAADATBmBQyBoMABACAAiBCAAACCAAgIAAIiAAOCIgMZiKEsRuUMCAkwBGIqAewwKAOAAAAAAAIAAAAAAAAABAAAAAAAAAAAA==

> <PUBCHEM_IUPAC_OPENEYE_NAME>
N-ethyl-N-(2-pyrrolidin-1-ylethyl)-2-[2-(trifluoromethoxy)phenyl]ethanamine

> <PUBCHEM_IUPAC_CAS_NAME>
N-ethyl-N-[2-(1-pyrrolidinyl)ethyl]-2-[2-(trifluoromethoxy)phenyl]ethanamine

> <PUBCHEM_IUPAC_NAME_MARKUP>
<I>N</I>-ethyl-<I>N</I>-(2-pyrrolidin-1-ylethyl)-2-[2-(trifluoromethoxy)phenyl]ethanamine

> <PUBCHEM_IUPAC_NAME>
N-ethyl-N-(2-pyrrolidin-1-ylethyl)-2-[2-(trifluoromethoxy)phenyl]ethanamine

> <PUBCHEM_IUPAC_SYSTEMATIC_NAME>
N-ethyl-N-(2-pyrrolidin-1-ylethyl)-2-[2-(trifluoromethyloxy)phenyl]ethanamine

> <PUBCHEM_IUPAC_TRADITIONAL_NAME>
ethyl-(2-pyrrolidinoethyl)-[2-[2-(trifluoromethoxy)phenyl]ethyl]amine

> <PUBCHEM_IUPAC_INCHI>
InChI=1S/C17H25F3N2O/c1-2-21(13-14-22-10-5-6-11-22)12-9-15-7-3-4-8-16(15)23-17(18,19)20/h3-4,7-8H,2,5-6,9-14H2,1H3

> <PUBCHEM_IUPAC_INCHIKEY>
CBSIZHJYORKATA-UHFFFAOYSA-N

> <PUBCHEM_XLOGP3_AA>
4.3

> <PUBCHEM_EXACT_MASS>
330.19189791

> <PUBCHEM_MOLECULAR_FORMULA>
C17H25F3N2O

> <PUBCHEM_MOLECULAR_WEIGHT>
330.4

> <PUBCHEM_OPENEYE_CAN_SMILES>
CCN(CCC1=CC=CC=C1OC(F)(F)F)CCN2CCCC2

> <PUBCHEM_OPENEYE_ISO_SMILES>
CCN(CCC1=CC=CC=C1OC(F)(F)F)CCN2CCCC2

> <PUBCHEM_CACTVS_TPSA>
15.7

> <PUBCHEM_MONOISOTOPIC_WEIGHT>
330.19189791

> <PUBCHEM_TOTAL_CHARGE>
0

> <PUBCHEM_HEAVY_ATOM_COUNT>
23

> <PUBCHEM_ATOM_DEF_STEREO_COUNT>
0

> <PUBCHEM_ATOM_UDEF_STEREO_COUNT>
0

> <PUBCHEM_BOND_DEF_STEREO_COUNT>
0

> <PUBCHEM_BOND_UDEF_STEREO_COUNT>
0

> <PUBCHEM_ISOTOPIC_ATOM_COUNT>
0

> <PUBCHEM_COMPONENT_COUNT>
1

> <PUBCHEM_CACTVS_TAUTO_COUNT>
-1

> <PUBCHEM_COORDINATE_TYPE>
1
5
255

> <PUBCHEM_BONDANNOTATIONS>
16  18  8
16  19  8
18  20  8
19  21  8
20  22  8
21  22  8

$$$$
