137650705
  -OEChem-09292322392D

 65 69  0     0  0  0  0  0  0999 V2000
    4.5981    6.7673    0.0000 Cl  0  0  0  0  0  0  0  0  0  0  0  0
    3.7320   -3.7327    0.0000 S   0  0  0  0  0  0  0  0  0  0  0  0
    2.7320   -3.7327    0.0000 O   0  0  0  0  0  0  0  0  0  0  0  0
    4.7320   -3.7327    0.0000 O   0  0  0  0  0  0  0  0  0  0  0  0
    3.7320   -2.7327    0.0000 N   0  0  0  0  0  0  0  0  0  0  0  0
    2.8660    1.7673    0.0000 N   0  0  0  0  0  0  0  0  0  0  0  0
    2.8660    3.7673    0.0000 N   0  0  0  0  0  0  0  0  0  0  0  0
    5.4920   -6.7673    0.0000 N   0  0  0  0  0  0  0  0  0  0  0  0
    3.7320   -0.7327    0.0000 C   0  0  0  0  0  0  0  0  0  0  0  0
    2.8660   -1.2327    0.0000 C   0  0  0  0  0  0  0  0  0  0  0  0
    4.5981   -1.2327    0.0000 C   0  0  0  0  0  0  0  0  0  0  0  0
    3.7320    0.2673    0.0000 C   0  0  0  0  0  0  0  0  0  0  0  0
    2.8660   -2.2327    0.0000 C   0  0  0  0  0  0  0  0  0  0  0  0
    4.5981   -2.2327    0.0000 C   0  0  0  0  0  0  0  0  0  0  0  0
    2.8660    0.7673    0.0000 C   0  0  0  0  0  0  0  0  0  0  0  0
    2.0000    2.2673    0.0000 C   0  0  0  0  0  0  0  0  0  0  0  0
    3.7320    2.2673    0.0000 C   0  0  0  0  0  0  0  0  0  0  0  0
    2.0000    3.2673    0.0000 C   0  0  0  0  0  0  0  0  0  0  0  0
    3.7320    3.2673    0.0000 C   0  0  0  0  0  0  0  0  0  0  0  0
    3.7320   -4.7327    0.0000 C   0  0  0  0  0  0  0  0  0  0  0  0
    2.8660    4.7673    0.0000 C   0  0  0  0  0  0  0  0  0  0  0  0
    4.5981   -5.2327    0.0000 C   0  0  0  0  0  0  0  0  0  0  0  0
    2.8660   -5.2327    0.0000 C   0  0  0  0  0  0  0  0  0  0  0  0
    3.7320    5.2673    0.0000 C   0  0  0  0  0  0  0  0  0  0  0  0
    2.0000    5.2673    0.0000 C   0  0  0  0  0  0  0  0  0  0  0  0
    4.5981   -6.2327    0.0000 C   0  0  0  0  0  0  0  0  0  0  0  0
    2.8660   -6.2327    0.0000 C   0  0  0  0  0  0  0  0  0  0  0  0
    5.4920   -4.6980    0.0000 C   0  0  0  0  0  0  0  0  0  0  0  0
    3.7320   -6.7327    0.0000 C   0  0  0  0  0  0  0  0  0  0  0  0
    3.7320    6.2673    0.0000 C   0  0  0  0  0  0  0  0  0  0  0  0
    2.0000    6.2673    0.0000 C   0  0  0  0  0  0  0  0  0  0  0  0
    2.8660    6.7673    0.0000 C   0  0  0  0  0  0  0  0  0  0  0  0
    6.3981   -5.2118    0.0000 C   0  0  0  0  0  0  0  0  0  0  0  0
    6.3981   -6.2535    0.0000 C   0  0  0  0  0  0  0  0  0  0  0  0
    4.2690   -0.4227    0.0000 H   0  0  0  0  0  0  0  0  0  0  0  0
    2.6540   -0.6501    0.0000 H   0  0  0  0  0  0  0  0  0  0  0  0
    2.2554   -1.3403    0.0000 H   0  0  0  0  0  0  0  0  0  0  0  0
    5.2087   -1.3403    0.0000 H   0  0  0  0  0  0  0  0  0  0  0  0
    4.8101   -0.6501    0.0000 H   0  0  0  0  0  0  0  0  0  0  0  0
    4.3426    0.1597    0.0000 H   0  0  0  0  0  0  0  0  0  0  0  0
    3.9441    0.8499    0.0000 H   0  0  0  0  0  0  0  0  0  0  0  0
    2.2554   -2.1250    0.0000 H   0  0  0  0  0  0  0  0  0  0  0  0
    2.6540   -2.8153    0.0000 H   0  0  0  0  0  0  0  0  0  0  0  0
    4.8101   -2.8153    0.0000 H   0  0  0  0  0  0  0  0  0  0  0  0
    5.2087   -2.1250    0.0000 H   0  0  0  0  0  0  0  0  0  0  0  0
    2.2554    0.8750    0.0000 H   0  0  0  0  0  0  0  0  0  0  0  0
    2.6540    0.1847    0.0000 H   0  0  0  0  0  0  0  0  0  0  0  0
    1.3894    2.3750    0.0000 H   0  0  0  0  0  0  0  0  0  0  0  0
    1.7880    1.6847    0.0000 H   0  0  0  0  0  0  0  0  0  0  0  0
    3.9441    1.6847    0.0000 H   0  0  0  0  0  0  0  0  0  0  0  0
    4.3426    2.3750    0.0000 H   0  0  0  0  0  0  0  0  0  0  0  0
    1.7880    3.8499    0.0000 H   0  0  0  0  0  0  0  0  0  0  0  0
    1.3894    3.1597    0.0000 H   0  0  0  0  0  0  0  0  0  0  0  0
    4.3426    3.1597    0.0000 H   0  0  0  0  0  0  0  0  0  0  0  0
    3.9441    3.8499    0.0000 H   0  0  0  0  0  0  0  0  0  0  0  0
    2.3291   -4.9227    0.0000 H   0  0  0  0  0  0  0  0  0  0  0  0
    4.2690    4.9573    0.0000 H   0  0  0  0  0  0  0  0  0  0  0  0
    1.4631    4.9573    0.0000 H   0  0  0  0  0  0  0  0  0  0  0  0
    2.3291   -6.5427    0.0000 H   0  0  0  0  0  0  0  0  0  0  0  0
    5.4848   -4.0780    0.0000 H   0  0  0  0  0  0  0  0  0  0  0  0
    3.7320   -7.3527    0.0000 H   0  0  0  0  0  0  0  0  0  0  0  0
    1.4631    6.5773    0.0000 H   0  0  0  0  0  0  0  0  0  0  0  0
    2.8660    7.3873    0.0000 H   0  0  0  0  0  0  0  0  0  0  0  0
    6.9338   -4.8998    0.0000 H   0  0  0  0  0  0  0  0  0  0  0  0
    6.9338   -6.5656    0.0000 H   0  0  0  0  0  0  0  0  0  0  0  0
  1 30  1  0  0  0  0
  2  3  2  0  0  0  0
  2  4  2  0  0  0  0
  2  5  1  0  0  0  0
  2 20  1  0  0  0  0
  5 13  1  0  0  0  0
  5 14  1  0  0  0  0
  6 15  1  0  0  0  0
  6 16  1  0  0  0  0
  6 17  1  0  0  0  0
  7 18  1  0  0  0  0
  7 19  1  0  0  0  0
  7 21  1  0  0  0  0
  8 26  1  0  0  0  0
  8 34  2  0  0  0  0
  9 10  1  0  0  0  0
  9 11  1  0  0  0  0
  9 12  1  0  0  0  0
  9 35  1  0  0  0  0
 10 13  1  0  0  0  0
 10 36  1  0  0  0  0
 10 37  1  0  0  0  0
 11 14  1  0  0  0  0
 11 38  1  0  0  0  0
 11 39  1  0  0  0  0
 12 15  1  0  0  0  0
 12 40  1  0  0  0  0
 12 41  1  0  0  0  0
 13 42  1  0  0  0  0
 13 43  1  0  0  0  0
 14 44  1  0  0  0  0
 14 45  1  0  0  0  0
 15 46  1  0  0  0  0
 15 47  1  0  0  0  0
 16 18  1  0  0  0  0
 16 48  1  0  0  0  0
 16 49  1  0  0  0  0
 17 19  1  0  0  0  0
 17 50  1  0  0  0  0
 17 51  1  0  0  0  0
 18 52  1  0  0  0  0
 18 53  1  0  0  0  0
 19 54  1  0  0  0  0
 19 55  1  0  0  0  0
 20 22  1  0  0  0  0
 20 23  2  0  0  0  0
 21 24  2  0  0  0  0
 21 25  1  0  0  0  0
 22 26  2  0  0  0  0
 22 28  1  0  0  0  0
 23 27  1  0  0  0  0
 23 56  1  0  0  0  0
 24 30  1  0  0  0  0
 24 57  1  0  0  0  0
 25 31  2  0  0  0  0
 25 58  1  0  0  0  0
 26 29  1  0  0  0  0
 27 29  2  0  0  0  0
 27 59  1  0  0  0  0
 28 33  2  0  0  0  0
 28 60  1  0  0  0  0
 29 61  1  0  0  0  0
 30 32  2  0  0  0  0
 31 32  1  0  0  0  0
 31 62  1  0  0  0  0
 32 63  1  0  0  0  0
 33 34  1  0  0  0  0
 33 64  1  0  0  0  0
 34 65  1  0  0  0  0
M  END
> <PUBCHEM_COMPOUND_CID>
137650705

> <PUBCHEM_COMPOUND_CANONICALIZED>
1

> <PUBCHEM_CACTVS_COMPLEXITY>
746

> <PUBCHEM_CACTVS_HBOND_ACCEPTOR>
6

> <PUBCHEM_CACTVS_HBOND_DONOR>
0

> <PUBCHEM_CACTVS_ROTATABLE_BOND>
6

> <PUBCHEM_CACTVS_SUBSKEYS>
AAADceB7sABEAAAAAAAAAAAAAAAAAAAAAAA8eLECAAAAAACx9AAAHAYAQAAADQrBXiQ8wfMIEAKgAzRnRHDCgDAxByAI2Dg4ZpgIYOLBk5GUIAxggADIyAcQgIAOAAAAACIGAAAAAAAARAwAAAAAAAAAAA==

> <PUBCHEM_IUPAC_OPENEYE_NAME>
5-[[4-[2-[4-(3-chlorophenyl)piperazin-1-yl]ethyl]-1-piperidyl]sulfonyl]quinoline

> <PUBCHEM_IUPAC_CAS_NAME>
5-[[4-[2-[4-(3-chlorophenyl)-1-piperazinyl]ethyl]-1-piperidinyl]sulfonyl]quinoline

> <PUBCHEM_IUPAC_NAME_MARKUP>
5-[4-[2-[4-(3-chlorophenyl)piperazin-1-yl]ethyl]piperidin-1-yl]sulfonylquinoline

> <PUBCHEM_IUPAC_NAME>
5-[4-[2-[4-(3-chlorophenyl)piperazin-1-yl]ethyl]piperidin-1-yl]sulfonylquinoline

> <PUBCHEM_IUPAC_SYSTEMATIC_NAME>
5-[4-[2-[4-(3-chlorophenyl)piperazin-1-yl]ethyl]piperidin-1-yl]sulfonylquinoline

> <PUBCHEM_IUPAC_TRADITIONAL_NAME>
5-[4-[2-[4-(3-chlorophenyl)piperazino]ethyl]piperidino]sulfonylquinoline

> <PUBCHEM_IUPAC_INCHI>
InChI=1S/C26H31ClN4O2S/c27-22-4-1-5-23(20-22)30-18-16-29(17-19-30)13-9-21-10-14-31(15-11-21)34(32,33)26-8-2-7-25-24(26)6-3-12-28-25/h1-8,12,20-21H,9-11,13-19H2

> <PUBCHEM_IUPAC_INCHIKEY>
LVRYFOYDXSSYJJ-UHFFFAOYSA-N

> <PUBCHEM_XLOGP3_AA>
4.7

> <PUBCHEM_EXACT_MASS>
498.1856251

> <PUBCHEM_MOLECULAR_FORMULA>
C26H31ClN4O2S

> <PUBCHEM_MOLECULAR_WEIGHT>
499.1

> <PUBCHEM_OPENEYE_CAN_SMILES>
C1CN(CCC1CCN2CCN(CC2)C3=CC(=CC=C3)Cl)S(=O)(=O)C4=CC=CC5=C4C=CC=N5

> <PUBCHEM_OPENEYE_ISO_SMILES>
C1CN(CCC1CCN2CCN(CC2)C3=CC(=CC=C3)Cl)S(=O)(=O)C4=CC=CC5=C4C=CC=N5

> <PUBCHEM_CACTVS_TPSA>
65.1

> <PUBCHEM_MONOISOTOPIC_WEIGHT>
498.1856251

> <PUBCHEM_TOTAL_CHARGE>
0

> <PUBCHEM_HEAVY_ATOM_COUNT>
34

> <PUBCHEM_ATOM_DEF_STEREO_COUNT>
0

> <PUBCHEM_ATOM_UDEF_STEREO_COUNT>
0

> <PUBCHEM_BOND_DEF_STEREO_COUNT>
0

> <PUBCHEM_BOND_UDEF_STEREO_COUNT>
0

> <PUBCHEM_ISOTOPIC_ATOM_COUNT>
0

> <PUBCHEM_COMPONENT_COUNT>
1

> <PUBCHEM_CACTVS_TAUTO_COUNT>
-1

> <PUBCHEM_COORDINATE_TYPE>
1
5
255

> <PUBCHEM_BONDANNOTATIONS>
20  22  8
20  23  8
21  24  8
21  25  8
22  26  8
22  28  8
23  27  8
24  30  8
25  31  8
26  29  8
27  29  8
28  33  8
30  32  8
31  32  8
33  34  8
8  26  8
8  34  8

$$$$
