168290814
  -OEChem-09292322022D

 63 61  0     0  0  0  0  0  0999 V2000
   13.1292    3.5693    0.0000 S   0  0  0  0  0  0  0  0  0  0  0  0
    6.1075    6.3294    0.0000 F   0  0  0  0  0  0  0  0  0  0  0  0
    6.4735    7.6954    0.0000 F   0  0  0  0  0  0  0  0  0  0  0  0
    7.4735    5.9633    0.0000 F   0  0  0  0  0  0  0  0  0  0  0  0
    7.4735   10.3294    0.0000 F   0  0  0  0  0  0  0  0  0  0  0  0
    6.1075   10.6954    0.0000 F   0  0  0  0  0  0  0  0  0  0  0  0
    6.4735   12.0614    0.0000 F   0  0  0  0  0  0  0  0  0  0  0  0
    6.0786    3.1884    0.0000 O   0  0  0  0  0  0  0  0  0  0  0  0
    8.7056    6.8294    0.0000 O   0  0  0  0  0  0  0  0  0  0  0  0
    8.7056   11.1954    0.0000 O   0  0  0  0  0  0  0  0  0  0  0  0
    7.8395    8.3294    0.0000 O   0  0  0  0  0  0  0  0  0  0  0  0
    7.8396   12.6954    0.0000 O   0  0  0  0  0  0  0  0  0  0  0  0
    5.5434    1.5411    0.0000 N   0  0  0  0  0  0  0  0  0  0  0  0
    7.2376    1.9012    0.0000 N   0  0  0  0  0  0  0  0  0  0  0  0
    8.9318    2.2613    0.0000 N   0  0  0  0  0  0  0  0  0  0  0  0
    7.7728    3.5485    0.0000 N   0  0  0  0  0  0  0  0  0  0  0  0
   12.6292    2.0305    0.0000 N   0  0  0  0  0  0  0  0  0  0  0  0
   13.6292    2.0305    0.0000 N   0  0  0  0  0  0  0  0  0  0  0  0
   14.8892    3.2906    0.0000 N   0  0  0  0  0  0  0  0  0  0  0  0
    2.8981    1.4900    0.0000 C   0  0  0  0  0  0  0  0  0  0  0  0
    2.1550    0.8209    0.0000 C   0  0  0  0  0  0  0  0  0  0  0  0
    3.8492    1.1810    0.0000 C   0  0  0  0  0  0  0  0  0  0  0  0
    1.2039    1.1299    0.0000 C   0  0  0  0  0  0  0  0  0  0  0  0
    4.5923    1.8501    0.0000 C   0  0  0  0  0  0  0  0  0  0  0  0
    0.4608    0.4608    0.0000 C   0  0  0  0  0  0  0  0  0  0  0  0
   10.6260    2.6214    0.0000 C   0  0  0  0  0  0  0  0  0  0  0  0
    6.2865    2.2102    0.0000 C   0  0  0  0  0  0  0  0  0  0  0  0
   11.3691    3.2906    0.0000 C   0  0  0  0  0  0  0  0  0  0  0  0
    9.6749    2.9304    0.0000 C   0  0  0  0  0  0  0  0  0  0  0  0
    7.9807    2.5703    0.0000 C   0  0  0  0  0  0  0  0  0  0  0  0
   12.3202    2.9815    0.0000 C   0  0  0  0  0  0  0  0  0  0  0  0
   13.9382    2.9815    0.0000 C   0  0  0  0  0  0  0  0  0  0  0  0
    6.9735    6.8294    0.0000 C   0  0  0  0  0  0  0  0  0  0  0  0
    6.9735   11.1954    0.0000 C   0  0  0  0  0  0  0  0  0  0  0  0
    7.8395    7.3294    0.0000 C   0  0  0  0  0  0  0  0  0  0  0  0
    7.8396   11.6954    0.0000 C   0  0  0  0  0  0  0  0  0  0  0  0
    3.1892    2.0374    0.0000 H   0  0  0  0  0  0  0  0  0  0  0  0
    2.4095    1.8717    0.0000 H   0  0  0  0  0  0  0  0  0  0  0  0
    1.8639    0.2734    0.0000 H   0  0  0  0  0  0  0  0  0  0  0  0
    2.6435    0.4392    0.0000 H   0  0  0  0  0  0  0  0  0  0  0  0
    3.5581    0.6335    0.0000 H   0  0  0  0  0  0  0  0  0  0  0  0
    4.3377    0.7993    0.0000 H   0  0  0  0  0  0  0  0  0  0  0  0
    1.4950    1.6773    0.0000 H   0  0  0  0  0  0  0  0  0  0  0  0
    0.7153    1.5116    0.0000 H   0  0  0  0  0  0  0  0  0  0  0  0
    4.8834    2.3975    0.0000 H   0  0  0  0  0  0  0  0  0  0  0  0
    4.1037    2.2318    0.0000 H   0  0  0  0  0  0  0  0  0  0  0  0
    0.0459    0.9215    0.0000 H   0  0  0  0  0  0  0  0  0  0  0  0
    0.0000    0.0459    0.0000 H   0  0  0  0  0  0  0  0  0  0  0  0
    0.8756    0.0000    0.0000 H   0  0  0  0  0  0  0  0  0  0  0  0
    5.6723    0.9346    0.0000 H   0  0  0  0  0  0  0  0  0  0  0  0
   10.3349    2.0740    0.0000 H   0  0  0  0  0  0  0  0  0  0  0  0
   11.1145    2.2397    0.0000 H   0  0  0  0  0  0  0  0  0  0  0  0
   11.6602    3.8380    0.0000 H   0  0  0  0  0  0  0  0  0  0  0  0
   10.8805    3.6723    0.0000 H   0  0  0  0  0  0  0  0  0  0  0  0
    9.9660    3.4779    0.0000 H   0  0  0  0  0  0  0  0  0  0  0  0
    9.1863    3.3122    0.0000 H   0  0  0  0  0  0  0  0  0  0  0  0
    7.3665    1.2948    0.0000 H   0  0  0  0  0  0  0  0  0  0  0  0
    7.1831    3.7401    0.0000 H   0  0  0  0  0  0  0  0  0  0  0  0
    8.2335    3.9633    0.0000 H   0  0  0  0  0  0  0  0  0  0  0  0
   15.3500    2.8757    0.0000 H   0  0  0  0  0  0  0  0  0  0  0  0
   15.0182    3.8970    0.0000 H   0  0  0  0  0  0  0  0  0  0  0  0
    9.2425    7.1394    0.0000 H   0  0  0  0  0  0  0  0  0  0  0  0
    9.2425   11.5054    0.0000 H   0  0  0  0  0  0  0  0  0  0  0  0
  1 31  1  0  0  0  0
  1 32  1  0  0  0  0
  2 33  1  0  0  0  0
  3 33  1  0  0  0  0
  4 33  1  0  0  0  0
  5 34  1  0  0  0  0
  6 34  1  0  0  0  0
  7 34  1  0  0  0  0
  8 27  2  0  0  0  0
  9 35  1  0  0  0  0
  9 62  1  0  0  0  0
 10 36  1  0  0  0  0
 10 63  1  0  0  0  0
 11 35  2  0  0  0  0
 12 36  2  0  0  0  0
 13 24  1  0  0  0  0
 13 27  1  0  0  0  0
 13 50  1  0  0  0  0
 14 27  1  0  0  0  0
 14 30  1  0  0  0  0
 14 57  1  0  0  0  0
 15 29  1  0  0  0  0
 15 30  2  0  0  0  0
 16 30  1  0  0  0  0
 16 58  1  0  0  0  0
 16 59  1  0  0  0  0
 17 18  1  0  0  0  0
 17 31  2  0  0  0  0
 18 32  2  0  0  0  0
 19 32  1  0  0  0  0
 19 60  1  0  0  0  0
 19 61  1  0  0  0  0
 20 21  1  0  0  0  0
 20 22  1  0  0  0  0
 20 37  1  0  0  0  0
 20 38  1  0  0  0  0
 21 23  1  0  0  0  0
 21 39  1  0  0  0  0
 21 40  1  0  0  0  0
 22 24  1  0  0  0  0
 22 41  1  0  0  0  0
 22 42  1  0  0  0  0
 23 25  1  0  0  0  0
 23 43  1  0  0  0  0
 23 44  1  0  0  0  0
 24 45  1  0  0  0  0
 24 46  1  0  0  0  0
 25 47  1  0  0  0  0
 25 48  1  0  0  0  0
 25 49  1  0  0  0  0
 26 28  1  0  0  0  0
 26 29  1  0  0  0  0
 26 51  1  0  0  0  0
 26 52  1  0  0  0  0
 28 31  1  0  0  0  0
 28 53  1  0  0  0  0
 28 54  1  0  0  0  0
 29 55  1  0  0  0  0
 29 56  1  0  0  0  0
 33 35  1  0  0  0  0
 34 36  1  0  0  0  0
M  END
> <PUBCHEM_COMPOUND_CID>
168290814

> <PUBCHEM_COMPOUND_CANONICALIZED>
1

> <PUBCHEM_CACTVS_COMPLEXITY>
437

> <PUBCHEM_CACTVS_HBOND_ACCEPTOR>
16

> <PUBCHEM_CACTVS_HBOND_DONOR>
6

> <PUBCHEM_CACTVS_ROTATABLE_BOND>
10

> <PUBCHEM_CACTVS_SUBSKEYS>
AAADceB7ucBAAAAAAAAAAAAAAAAAAWAAAAAAAAAAAAAAAAABgAAAHwQYCAAACADBwhQDGALAAgguAACwPAAQAINAABEVAIA4AACAAAIggAAEAAAYHwIAAAEQAAAAAAAAAAAAAAAAAAAAAAAAAAAAAAAAAA==

> <PUBCHEM_IUPAC_OPENEYE_NAME>
1-[N'-[3-(5-amino-1,3,4-thiadiazol-2-yl)propyl]carbamimidoyl]-3-hexyl-urea;2,2,2-trifluoroacetic acid

> <PUBCHEM_IUPAC_CAS_NAME>
1-[amino-[3-(5-amino-1,3,4-thiadiazol-2-yl)propylimino]methyl]-3-hexylurea;2,2,2-trifluoroacetic acid

> <PUBCHEM_IUPAC_NAME_MARKUP>
1-[<I>N</I>&apos;-[3-(5-amino-1,3,4-thiadiazol-2-yl)propyl]carbamimidoyl]-3-hexylurea;2,2,2-trifluoroacetic acid

> <PUBCHEM_IUPAC_NAME>
1-[N'-[3-(5-amino-1,3,4-thiadiazol-2-yl)propyl]carbamimidoyl]-3-hexylurea;2,2,2-trifluoroacetic acid

> <PUBCHEM_IUPAC_SYSTEMATIC_NAME>
1-[N'-[3-(5-azanyl-1,3,4-thiadiazol-2-yl)propyl]carbamimidoyl]-3-hexyl-urea;2,2,2-tris(fluoranyl)ethanoic acid

> <PUBCHEM_IUPAC_TRADITIONAL_NAME>
1-[N'-[3-(5-amino-1,3,4-thiadiazol-2-yl)propyl]amidino]-3-hexyl-urea;2,2,2-trifluoroacetic acid

> <PUBCHEM_IUPAC_INCHI>
InChI=1S/C13H25N7OS.2C2HF3O2/c1-2-3-4-5-8-17-13(21)18-11(14)16-9-6-7-10-19-20-12(15)22-10;2*3-2(4,5)1(6)7/h2-9H2,1H3,(H2,15,20)(H4,14,16,17,18,21);2*(H,6,7)

> <PUBCHEM_IUPAC_INCHIKEY>
XATIGWXDOZQAKL-UHFFFAOYSA-N

> <PUBCHEM_EXACT_MASS>
555.16985713

> <PUBCHEM_MOLECULAR_FORMULA>
C17H27F6N7O5S

> <PUBCHEM_MOLECULAR_WEIGHT>
555.5

> <PUBCHEM_OPENEYE_CAN_SMILES>
CCCCCCNC(=O)NC(=NCCCC1=NN=C(S1)N)N.C(=O)(C(F)(F)F)O.C(=O)(C(F)(F)F)O

> <PUBCHEM_OPENEYE_ISO_SMILES>
CCCCCCNC(=O)NC(=NCCCC1=NN=C(S1)N)N.C(=O)(C(F)(F)F)O.C(=O)(C(F)(F)F)O

> <PUBCHEM_CACTVS_TPSA>
234

> <PUBCHEM_MONOISOTOPIC_WEIGHT>
555.16985713

> <PUBCHEM_TOTAL_CHARGE>
0

> <PUBCHEM_HEAVY_ATOM_COUNT>
36

> <PUBCHEM_ATOM_DEF_STEREO_COUNT>
0

> <PUBCHEM_ATOM_UDEF_STEREO_COUNT>
0

> <PUBCHEM_BOND_DEF_STEREO_COUNT>
0

> <PUBCHEM_BOND_UDEF_STEREO_COUNT>
0

> <PUBCHEM_ISOTOPIC_ATOM_COUNT>
0

> <PUBCHEM_COMPONENT_COUNT>
3

> <PUBCHEM_CACTVS_TAUTO_COUNT>
-1

> <PUBCHEM_COORDINATE_TYPE>
1
5
255

> <PUBCHEM_BONDANNOTATIONS>
1  31  8
1  32  8
17  18  8
17  31  8
18  32  8

$$$$
