22017550
  -OEChem-09292322502D

 49 52  0     0  0  0  0  0  0999 V2000
    5.4641   -4.8529    0.0000 F   0  0  0  0  0  0  0  0  0  0  0  0
    2.0000   -4.8529    0.0000 F   0  0  0  0  0  0  0  0  0  0  0  0
    9.7942   -0.3529    0.0000 O   0  0  0  0  0  0  0  0  0  0  0  0
    6.3301   -1.3529    0.0000 N   0  0  0  0  0  0  0  0  0  0  0  0
    8.0622   -0.3529    0.0000 N   0  0  0  0  0  0  0  0  0  0  0  0
   10.7404    1.3424    0.0000 N   0  0  0  0  0  0  0  0  0  0  0  0
   11.3618    4.8529    0.0000 N   0  0  0  0  0  0  0  0  0  0  0  0
    7.1962   -1.8529    0.0000 C   0  0  0  0  0  0  0  0  0  0  0  0
    6.3301   -0.3529    0.0000 C   0  0  0  0  0  0  0  0  0  0  0  0
    8.0622   -1.3529    0.0000 C   0  0  0  0  0  0  0  0  0  0  0  0
    7.1962    0.1471    0.0000 C   0  0  0  0  0  0  0  0  0  0  0  0
    5.4641   -1.8529    0.0000 C   0  0  0  0  0  0  0  0  0  0  0  0
    5.4641   -2.8529    0.0000 C   0  0  0  0  0  0  0  0  0  0  0  0
    8.9282    0.1471    0.0000 C   0  0  0  0  0  0  0  0  0  0  0  0
    8.9282    1.1471    0.0000 C   0  0  0  0  0  0  0  0  0  0  0  0
    4.5981   -3.3529    0.0000 C   0  0  0  0  0  0  0  0  0  0  0  0
    9.7942    1.6471    0.0000 C   0  0  0  0  0  0  0  0  0  0  0  0
    9.7942    2.6471    0.0000 C   0  0  0  0  0  0  0  0  0  0  0  0
    8.0622    1.6471    0.0000 C   0  0  0  0  0  0  0  0  0  0  0  0
    4.5981   -4.3529    0.0000 C   0  0  0  0  0  0  0  0  0  0  0  0
    3.7320   -2.8529    0.0000 C   0  0  0  0  0  0  0  0  0  0  0  0
    8.9282    3.1471    0.0000 C   0  0  0  0  0  0  0  0  0  0  0  0
   10.7404    2.9518    0.0000 C   0  0  0  0  0  0  0  0  0  0  0  0
    8.0622    2.6471    0.0000 C   0  0  0  0  0  0  0  0  0  0  0  0
   11.3241    2.1471    0.0000 C   0  0  0  0  0  0  0  0  0  0  0  0
    3.7320   -4.8529    0.0000 C   0  0  0  0  0  0  0  0  0  0  0  0
    2.8660   -3.3529    0.0000 C   0  0  0  0  0  0  0  0  0  0  0  0
    2.8660   -4.3529    0.0000 C   0  0  0  0  0  0  0  0  0  0  0  0
   11.0511    3.9024    0.0000 C   0  0  0  0  0  0  0  0  0  0  0  0
    6.7976   -2.3278    0.0000 H   0  0  0  0  0  0  0  0  0  0  0  0
    7.5947   -2.3278    0.0000 H   0  0  0  0  0  0  0  0  0  0  0  0
    6.1181    0.2297    0.0000 H   0  0  0  0  0  0  0  0  0  0  0  0
    5.7196   -0.4605    0.0000 H   0  0  0  0  0  0  0  0  0  0  0  0
    8.2742   -1.9355    0.0000 H   0  0  0  0  0  0  0  0  0  0  0  0
    8.6728   -1.2452    0.0000 H   0  0  0  0  0  0  0  0  0  0  0  0
    7.5947    0.6221    0.0000 H   0  0  0  0  0  0  0  0  0  0  0  0
    6.7976    0.6221    0.0000 H   0  0  0  0  0  0  0  0  0  0  0  0
    5.2520   -1.2703    0.0000 H   0  0  0  0  0  0  0  0  0  0  0  0
    4.8535   -1.9606    0.0000 H   0  0  0  0  0  0  0  0  0  0  0  0
    5.6762   -3.4355    0.0000 H   0  0  0  0  0  0  0  0  0  0  0  0
    6.0747   -2.7452    0.0000 H   0  0  0  0  0  0  0  0  0  0  0  0
    7.5252    1.3371    0.0000 H   0  0  0  0  0  0  0  0  0  0  0  0
   10.9331    0.7531    0.0000 H   0  0  0  0  0  0  0  0  0  0  0  0
    3.7320   -2.2329    0.0000 H   0  0  0  0  0  0  0  0  0  0  0  0
    8.9282    3.7671    0.0000 H   0  0  0  0  0  0  0  0  0  0  0  0
    7.5252    2.9571    0.0000 H   0  0  0  0  0  0  0  0  0  0  0  0
   11.9441    2.1471    0.0000 H   0  0  0  0  0  0  0  0  0  0  0  0
    3.7320   -5.4729    0.0000 H   0  0  0  0  0  0  0  0  0  0  0  0
    2.3291   -3.0429    0.0000 H   0  0  0  0  0  0  0  0  0  0  0  0
  1 20  1  0  0  0  0
  2 28  1  0  0  0  0
  3 14  2  0  0  0  0
  4  8  1  0  0  0  0
  4  9  1  0  0  0  0
  4 12  1  0  0  0  0
  5 10  1  0  0  0  0
  5 11  1  0  0  0  0
  5 14  1  0  0  0  0
  6 17  1  0  0  0  0
  6 25  1  0  0  0  0
  6 43  1  0  0  0  0
  7 29  3  0  0  0  0
  8 10  1  0  0  0  0
  8 30  1  0  0  0  0
  8 31  1  0  0  0  0
  9 11  1  0  0  0  0
  9 32  1  0  0  0  0
  9 33  1  0  0  0  0
 10 34  1  0  0  0  0
 10 35  1  0  0  0  0
 11 36  1  0  0  0  0
 11 37  1  0  0  0  0
 12 13  1  0  0  0  0
 12 38  1  0  0  0  0
 12 39  1  0  0  0  0
 13 16  1  0  0  0  0
 13 40  1  0  0  0  0
 13 41  1  0  0  0  0
 14 15  1  0  0  0  0
 15 17  1  0  0  0  0
 15 19  2  0  0  0  0
 16 20  2  0  0  0  0
 16 21  1  0  0  0  0
 17 18  2  0  0  0  0
 18 22  1  0  0  0  0
 18 23  1  0  0  0  0
 19 24  1  0  0  0  0
 19 42  1  0  0  0  0
 20 26  1  0  0  0  0
 21 27  2  0  0  0  0
 21 44  1  0  0  0  0
 22 24  2  0  0  0  0
 22 45  1  0  0  0  0
 23 25  2  0  0  0  0
 23 29  1  0  0  0  0
 24 46  1  0  0  0  0
 25 47  1  0  0  0  0
 26 28  2  0  0  0  0
 26 48  1  0  0  0  0
 27 28  1  0  0  0  0
 27 49  1  0  0  0  0
M  END
> <PUBCHEM_COMPOUND_CID>
22017550

> <PUBCHEM_COMPOUND_CANONICALIZED>
1

> <PUBCHEM_CACTVS_COMPLEXITY>
630

> <PUBCHEM_CACTVS_HBOND_ACCEPTOR>
5

> <PUBCHEM_CACTVS_HBOND_DONOR>
1

> <PUBCHEM_CACTVS_ROTATABLE_BOND>
4

> <PUBCHEM_CACTVS_SUBSKEYS>
AAADceB7oYAAAAAAAAAAAAAAAAAAAWAAAAA8YIAAAAAAAFgB9AAAHwAQAAAADAjBngw8wPPJkAC4BzV3VACigCA1ACAI2aEoRNgI4PrA1ZGUIYhghgDIyc8YiMCOgAACAAACAAAAAAQAAAQAAAAAAAAAAA==

> <PUBCHEM_IUPAC_OPENEYE_NAME>
7-[4-[2-(2,4-difluorophenyl)ethyl]piperazine-1-carbonyl]-1H-indole-3-carbonitrile

> <PUBCHEM_IUPAC_CAS_NAME>
7-[[4-[2-(2,4-difluorophenyl)ethyl]-1-piperazinyl]-oxomethyl]-1H-indole-3-carbonitrile

> <PUBCHEM_IUPAC_NAME_MARKUP>
7-[4-[2-(2,4-difluorophenyl)ethyl]piperazine-1-carbonyl]-1<I>H</I>-indole-3-carbonitrile

> <PUBCHEM_IUPAC_NAME>
7-[4-[2-(2,4-difluorophenyl)ethyl]piperazine-1-carbonyl]-1H-indole-3-carbonitrile

> <PUBCHEM_IUPAC_SYSTEMATIC_NAME>
7-[4-[2-[2,4-bis(fluoranyl)phenyl]ethyl]piperazin-1-yl]carbonyl-1H-indole-3-carbonitrile

> <PUBCHEM_IUPAC_TRADITIONAL_NAME>
7-[4-[2-(2,4-difluorophenyl)ethyl]piperazine-1-carbonyl]-1H-indole-3-carbonitrile

> <PUBCHEM_IUPAC_INCHI>
InChI=1S/C22H20F2N4O/c23-17-5-4-15(20(24)12-17)6-7-27-8-10-28(11-9-27)22(29)19-3-1-2-18-16(13-25)14-26-21(18)19/h1-5,12,14,26H,6-11H2

> <PUBCHEM_IUPAC_INCHIKEY>
ZRXBCXGGXCXHCB-UHFFFAOYSA-N

> <PUBCHEM_XLOGP3_AA>
3.2

> <PUBCHEM_EXACT_MASS>
394.16051760

> <PUBCHEM_MOLECULAR_FORMULA>
C22H20F2N4O

> <PUBCHEM_MOLECULAR_WEIGHT>
394.4

> <PUBCHEM_OPENEYE_CAN_SMILES>
C1CN(CCN1CCC2=C(C=C(C=C2)F)F)C(=O)C3=CC=CC4=C3NC=C4C#N

> <PUBCHEM_OPENEYE_ISO_SMILES>
C1CN(CCN1CCC2=C(C=C(C=C2)F)F)C(=O)C3=CC=CC4=C3NC=C4C#N

> <PUBCHEM_CACTVS_TPSA>
63.1

> <PUBCHEM_MONOISOTOPIC_WEIGHT>
394.16051760

> <PUBCHEM_TOTAL_CHARGE>
0

> <PUBCHEM_HEAVY_ATOM_COUNT>
29

> <PUBCHEM_ATOM_DEF_STEREO_COUNT>
0

> <PUBCHEM_ATOM_UDEF_STEREO_COUNT>
0

> <PUBCHEM_BOND_DEF_STEREO_COUNT>
0

> <PUBCHEM_BOND_UDEF_STEREO_COUNT>
0

> <PUBCHEM_ISOTOPIC_ATOM_COUNT>
0

> <PUBCHEM_COMPONENT_COUNT>
1

> <PUBCHEM_CACTVS_TAUTO_COUNT>
-1

> <PUBCHEM_COORDINATE_TYPE>
1
5
255

> <PUBCHEM_BONDANNOTATIONS>
15  17  8
15  19  8
16  20  8
16  21  8
17  18  8
18  22  8
18  23  8
19  24  8
20  26  8
21  27  8
22  24  8
23  25  8
26  28  8
27  28  8
6  17  8
6  25  8

$$$$
