122178762
  -OEChem-09292322082D

 61 65  0     1  0  0  0  0  0999 V2000
    2.0000    0.7405    0.0000 Cl  0  0  0  0  0  0  0  0  0  0  0  0
   12.4583    0.7646    0.0000 O   0  0  0  0  0  0  0  0  0  0  0  0
    6.3961    1.2646    0.0000 N   0  0  3  0  0  0  0  0  0  0  0  0
   11.5923   -0.7354    0.0000 N   0  0  0  0  0  0  0  0  0  0  0  0
   14.2321   -0.3302    0.0000 N   0  0  0  0  0  0  0  0  0  0  0  0
    8.9942    0.7646    0.0000 C   0  0  0  0  0  0  0  0  0  0  0  0
    9.8602    1.2646    0.0000 C   0  0  0  0  0  0  0  0  0  0  0  0
    8.9942   -0.2354    0.0000 C   0  0  0  0  0  0  0  0  0  0  0  0
   10.7263   -0.2354    0.0000 C   0  0  0  0  0  0  0  0  0  0  0  0
   10.7263    0.7646    0.0000 C   0  0  0  0  0  0  0  0  0  0  0  0
    9.8602   -0.7354    0.0000 C   0  0  0  0  0  0  0  0  0  0  0  0
    8.1282    1.2646    0.0000 C   0  0  0  0  0  0  0  0  0  0  0  0
    7.2622    0.7646    0.0000 C   0  0  0  0  0  0  0  0  0  0  0  0
    6.3961    2.2646    0.0000 C   0  0  0  0  0  0  0  0  0  0  0  0
    5.5301    0.7646    0.0000 C   0  0  0  0  0  0  0  0  0  0  0  0
    5.5301    2.7646    0.0000 C   0  0  0  0  0  0  0  0  0  0  0  0
    4.6641    1.2646    0.0000 C   0  0  0  0  0  0  0  0  0  0  0  0
    4.6641    2.2646    0.0000 C   0  0  0  0  0  0  0  0  0  0  0  0
   12.4583   -0.2354    0.0000 C   0  0  0  0  0  0  0  0  0  0  0  0
    3.7702    0.7300    0.0000 C   0  0  0  0  0  0  0  0  0  0  0  0
    3.7702    2.7993    0.0000 C   0  0  0  0  0  0  0  0  0  0  0  0
   13.3244   -0.7354    0.0000 C   0  0  0  0  0  0  0  0  0  0  0  0
    2.8641    1.2438    0.0000 C   0  0  0  0  0  0  0  0  0  0  0  0
    2.8641    2.2855    0.0000 C   0  0  0  0  0  0  0  0  0  0  0  0
   13.4274   -1.7241    0.0000 C   0  0  0  0  0  0  0  0  0  0  0  0
   14.8992   -1.0673    0.0000 C   0  0  0  0  0  0  0  0  0  0  0  0
   14.3992   -1.9333    0.0000 C   0  0  0  0  0  0  0  0  0  0  0  0
   15.8992   -1.0673    0.0000 C   0  0  0  0  0  0  0  0  0  0  0  0
   14.8992   -2.7993    0.0000 C   0  0  0  0  0  0  0  0  0  0  0  0
   16.3992   -1.9333    0.0000 C   0  0  0  0  0  0  0  0  0  0  0  0
   15.8992   -2.7993    0.0000 C   0  0  0  0  0  0  0  0  0  0  0  0
    8.4573    0.4546    0.0000 H   0  0  0  0  0  0  0  0  0  0  0  0
   10.2588    1.7396    0.0000 H   0  0  0  0  0  0  0  0  0  0  0  0
    9.4617    1.7396    0.0000 H   0  0  0  0  0  0  0  0  0  0  0  0
    8.3836   -0.1277    0.0000 H   0  0  0  0  0  0  0  0  0  0  0  0
    8.7822   -0.8180    0.0000 H   0  0  0  0  0  0  0  0  0  0  0  0
   10.7263   -0.8554    0.0000 H   0  0  0  0  0  0  0  0  0  0  0  0
   11.3369    0.6570    0.0000 H   0  0  0  0  0  0  0  0  0  0  0  0
   10.9383    1.3472    0.0000 H   0  0  0  0  0  0  0  0  0  0  0  0
    9.4617   -1.2103    0.0000 H   0  0  0  0  0  0  0  0  0  0  0  0
   10.2588   -1.2103    0.0000 H   0  0  0  0  0  0  0  0  0  0  0  0
    8.5267    1.7396    0.0000 H   0  0  0  0  0  0  0  0  0  0  0  0
    7.7297    1.7396    0.0000 H   0  0  0  0  0  0  0  0  0  0  0  0
    6.8636    0.2897    0.0000 H   0  0  0  0  0  0  0  0  0  0  0  0
    7.6607    0.2897    0.0000 H   0  0  0  0  0  0  0  0  0  0  0  0
   11.5923   -1.3554    0.0000 H   0  0  0  0  0  0  0  0  0  0  0  0
    7.0067    2.1570    0.0000 H   0  0  0  0  0  0  0  0  0  0  0  0
    6.6082    2.8472    0.0000 H   0  0  0  0  0  0  0  0  0  0  0  0
    5.1316    0.2897    0.0000 H   0  0  0  0  0  0  0  0  0  0  0  0
    5.9286    0.2897    0.0000 H   0  0  0  0  0  0  0  0  0  0  0  0
    5.9286    3.2396    0.0000 H   0  0  0  0  0  0  0  0  0  0  0  0
    5.1316    3.2396    0.0000 H   0  0  0  0  0  0  0  0  0  0  0  0
    3.7773    0.1100    0.0000 H   0  0  0  0  0  0  0  0  0  0  0  0
    3.7773    3.4193    0.0000 H   0  0  0  0  0  0  0  0  0  0  0  0
    2.3284    2.5975    0.0000 H   0  0  0  0  0  0  0  0  0  0  0  0
   14.3600    0.2764    0.0000 H   0  0  0  0  0  0  0  0  0  0  0  0
   12.9659   -2.1381    0.0000 H   0  0  0  0  0  0  0  0  0  0  0  0
   16.2092   -0.5303    0.0000 H   0  0  0  0  0  0  0  0  0  0  0  0
   14.5892   -3.3362    0.0000 H   0  0  0  0  0  0  0  0  0  0  0  0
   17.0192   -1.9333    0.0000 H   0  0  0  0  0  0  0  0  0  0  0  0
   16.2092   -3.3362    0.0000 H   0  0  0  0  0  0  0  0  0  0  0  0
  1 23  1  0  0  0  0
  2 19  2  0  0  0  0
  3 13  1  0  0  0  0
  3 14  1  0  0  0  0
  3 15  1  0  0  0  0
  4  9  1  0  0  0  0
  4 19  1  0  0  0  0
  4 46  1  0  0  0  0
  5 22  1  0  0  0  0
  5 26  1  0  0  0  0
  5 56  1  0  0  0  0
  6  7  1  0  0  0  0
  6  8  1  0  0  0  0
  6 12  1  0  0  0  0
  6 32  1  0  0  0  0
  7 10  1  0  0  0  0
  7 33  1  0  0  0  0
  7 34  1  0  0  0  0
  8 11  1  0  0  0  0
  8 35  1  0  0  0  0
  8 36  1  0  0  0  0
  9 10  1  0  0  0  0
  9 11  1  0  0  0  0
  9 37  1  0  0  0  0
 10 38  1  0  0  0  0
 10 39  1  0  0  0  0
 11 40  1  0  0  0  0
 11 41  1  0  0  0  0
 12 13  1  0  0  0  0
 12 42  1  0  0  0  0
 12 43  1  0  0  0  0
 13 44  1  0  0  0  0
 13 45  1  0  0  0  0
 14 16  1  0  0  0  0
 14 47  1  0  0  0  0
 14 48  1  0  0  0  0
 15 17  1  0  0  0  0
 15 49  1  0  0  0  0
 15 50  1  0  0  0  0
 16 18  1  0  0  0  0
 16 51  1  0  0  0  0
 16 52  1  0  0  0  0
 17 18  2  0  0  0  0
 17 20  1  0  0  0  0
 18 21  1  0  0  0  0
 19 22  1  0  0  0  0
 20 23  2  0  0  0  0
 20 53  1  0  0  0  0
 21 24  2  0  0  0  0
 21 54  1  0  0  0  0
 22 25  2  0  0  0  0
 23 24  1  0  0  0  0
 24 55  1  0  0  0  0
 25 27  1  0  0  0  0
 25 57  1  0  0  0  0
 26 27  1  0  0  0  0
 26 28  2  0  0  0  0
 27 29  2  0  0  0  0
 28 30  1  0  0  0  0
 28 58  1  0  0  0  0
 29 31  1  0  0  0  0
 29 59  1  0  0  0  0
 30 31  2  0  0  0  0
 30 60  1  0  0  0  0
 31 61  1  0  0  0  0
M  END
> <PUBCHEM_COMPOUND_CID>
122178762

> <PUBCHEM_COMPOUND_CANONICALIZED>
1

> <PUBCHEM_CACTVS_COMPLEXITY>
608

> <PUBCHEM_CACTVS_HBOND_ACCEPTOR>
2

> <PUBCHEM_CACTVS_HBOND_DONOR>
2

> <PUBCHEM_CACTVS_ROTATABLE_BOND>
5

> <PUBCHEM_CACTVS_SUBSKEYS>
AAADceB7IAAEAAAAAAAAAAAAAAAAAWAAAAA8YMEAAAAAAFix9AAAHgIQAAAADSrBniQwwPPJkACoAyVyVACCgCAnByAImaG4ZtgIYPLBl7GUIQhglgDIyYcYiYCehAAAIAASAAAYAABAACQAAAAAAAAAAA==

> <PUBCHEM_IUPAC_OPENEYE_NAME>
N-[4-[2-(7-chloro-3,4-dihydro-1H-isoquinolin-2-yl)ethyl]cyclohexyl]-1H-indole-2-carboxamide

> <PUBCHEM_IUPAC_CAS_NAME>
N-[4-[2-(7-chloro-3,4-dihydro-1H-isoquinolin-2-yl)ethyl]cyclohexyl]-1H-indole-2-carboxamide

> <PUBCHEM_IUPAC_NAME_MARKUP>
<I>N</I>-[4-[2-(7-chloro-3,4-dihydro-1<I>H</I>-isoquinolin-2-yl)ethyl]cyclohexyl]-1<I>H</I>-indole-2-carboxamide

> <PUBCHEM_IUPAC_NAME>
N-[4-[2-(7-chloro-3,4-dihydro-1H-isoquinolin-2-yl)ethyl]cyclohexyl]-1H-indole-2-carboxamide

> <PUBCHEM_IUPAC_SYSTEMATIC_NAME>
N-[4-[2-(7-chloranyl-3,4-dihydro-1H-isoquinolin-2-yl)ethyl]cyclohexyl]-1H-indole-2-carboxamide

> <PUBCHEM_IUPAC_TRADITIONAL_NAME>
N-[4-[2-(7-chloro-3,4-dihydro-1H-isoquinolin-2-yl)ethyl]cyclohexyl]-1H-indole-2-carboxamide

> <PUBCHEM_IUPAC_INCHI>
InChI=1S/C26H30ClN3O/c27-22-8-7-19-12-14-30(17-21(19)15-22)13-11-18-5-9-23(10-6-18)28-26(31)25-16-20-3-1-2-4-24(20)29-25/h1-4,7-8,15-16,18,23,29H,5-6,9-14,17H2,(H,28,31)

> <PUBCHEM_IUPAC_INCHIKEY>
GNYUYJSGVUZATI-UHFFFAOYSA-N

> <PUBCHEM_XLOGP3_AA>
5.7

> <PUBCHEM_EXACT_MASS>
435.2077403

> <PUBCHEM_MOLECULAR_FORMULA>
C26H30ClN3O

> <PUBCHEM_MOLECULAR_WEIGHT>
436.0

> <PUBCHEM_OPENEYE_CAN_SMILES>
C1CC(CCC1CCN2CCC3=C(C2)C=C(C=C3)Cl)NC(=O)C4=CC5=CC=CC=C5N4

> <PUBCHEM_OPENEYE_ISO_SMILES>
C1CC(CCC1CCN2CCC3=C(C2)C=C(C=C3)Cl)NC(=O)C4=CC5=CC=CC=C5N4

> <PUBCHEM_CACTVS_TPSA>
48.1

> <PUBCHEM_MONOISOTOPIC_WEIGHT>
435.2077403

> <PUBCHEM_TOTAL_CHARGE>
0

> <PUBCHEM_HEAVY_ATOM_COUNT>
31

> <PUBCHEM_ATOM_DEF_STEREO_COUNT>
0

> <PUBCHEM_ATOM_UDEF_STEREO_COUNT>
0

> <PUBCHEM_BOND_DEF_STEREO_COUNT>
0

> <PUBCHEM_BOND_UDEF_STEREO_COUNT>
0

> <PUBCHEM_ISOTOPIC_ATOM_COUNT>
0

> <PUBCHEM_COMPONENT_COUNT>
1

> <PUBCHEM_CACTVS_TAUTO_COUNT>
-1

> <PUBCHEM_COORDINATE_TYPE>
1
5
255

> <PUBCHEM_BONDANNOTATIONS>
17  18  8
17  20  8
18  21  8
20  23  8
21  24  8
22  25  8
23  24  8
25  27  8
26  27  8
26  28  8
27  29  8
28  30  8
29  31  8
30  31  8
5  22  8
5  26  8

$$$$
