45262882
  -OEChem-09292322142D

 37 38  0     1  0  0  0  0  0999 V2000
    5.4747    0.6579    0.0000 Br  0  0  0  0  0  0  0  0  0  0  0  0
    2.5064    8.3546    0.0000 Br  0  0  0  0  0  0  0  0  0  0  0  0
    5.4747    2.7062    0.0000 O   0  0  0  0  0  0  0  0  0  0  0  0
    0.6200    1.6821    0.0000 N   0  0  0  0  0  0  0  0  0  0  0  0
    2.0288    2.8056    0.0000 C   0  0  3  0  0  0  0  0  0  0  0  0
    2.8106    2.1821    0.0000 C   0  0  0  0  0  0  0  0  0  0  0  0
    1.0539    2.5831    0.0000 C   0  0  0  0  0  0  0  0  0  0  0  0
    2.8106    1.1821    0.0000 C   0  0  0  0  0  0  0  0  0  0  0  0
    2.0288    0.5586    0.0000 C   0  0  0  0  0  0  0  0  0  0  0  0
    1.0539    0.7811    0.0000 C   0  0  0  0  0  0  0  0  0  0  0  0
    2.2513    3.7805    0.0000 C   0  0  0  0  0  0  0  0  0  0  0  0
    3.7046    2.7168    0.0000 C   0  0  0  0  0  0  0  0  0  0  0  0
    3.7046    0.6474    0.0000 C   0  0  0  0  0  0  0  0  0  0  0  0
    4.6106    2.2029    0.0000 C   0  0  0  0  0  0  0  0  0  0  0  0
    3.2069    4.0753    0.0000 C   0  0  0  0  0  0  0  0  0  0  0  0
    1.5183    4.4607    0.0000 C   0  0  0  0  0  0  0  0  0  0  0  0
    4.6106    1.1613    0.0000 C   0  0  0  0  0  0  0  0  0  0  0  0
    3.4294    5.0502    0.0000 C   0  0  0  0  0  0  0  0  0  0  0  0
    1.7408    5.4356    0.0000 C   0  0  0  0  0  0  0  0  0  0  0  0
    2.6964    5.7304    0.0000 C   0  0  0  0  0  0  0  0  0  0  0  0
    1.5904    3.2440    0.0000 H   0  0  0  0  0  0  0  0  0  0  0  0
    1.0539    3.2031    0.0000 H   0  0  0  0  0  0  0  0  0  0  0  0
    0.4494    2.7210    0.0000 H   0  0  0  0  0  0  0  0  0  0  0  0
    1.7598    0.0000    0.0000 H   0  0  0  0  0  0  0  0  0  0  0  0
    2.5136    0.1720    0.0000 H   0  0  0  0  0  0  0  0  0  0  0  0
    0.4494    0.6432    0.0000 H   0  0  0  0  0  0  0  0  0  0  0  0
    1.0539    0.1611    0.0000 H   0  0  0  0  0  0  0  0  0  0  0  0
    0.0000    1.6821    0.0000 H   0  0  0  0  0  0  0  0  0  0  0  0
    3.6974    3.3367    0.0000 H   0  0  0  0  0  0  0  0  0  0  0  0
    3.6974    0.0275    0.0000 H   0  0  0  0  0  0  0  0  0  0  0  0
    3.6614    3.6536    0.0000 H   0  0  0  0  0  0  0  0  0  0  0  0
    0.9258    4.2779    0.0000 H   0  0  0  0  0  0  0  0  0  0  0  0
    4.0219    5.2329    0.0000 H   0  0  0  0  0  0  0  0  0  0  0  0
    1.2863    5.8573    0.0000 H   0  0  0  0  0  0  0  0  0  0  0  0
    2.8343    6.3348    0.0000 H   0  0  0  0  0  0  0  0  0  0  0  0
    6.0129    2.3983    0.0000 H   0  0  0  0  0  0  0  0  0  0  0  0
    3.5064    8.3546    0.0000 H   0  0  0  0  0  0  0  0  0  0  0  0
  1 17  1  0  0  0  0
  2 37  1  0  0  0  0
  3 14  1  0  0  0  0
  3 36  1  0  0  0  0
  4  7  1  0  0  0  0
  4 10  1  0  0  0  0
  4 28  1  0  0  0  0
  5  6  1  0  0  0  0
  5  7  1  0  0  0  0
  5 11  1  0  0  0  0
  5 21  1  0  0  0  0
  6  8  1  0  0  0  0
  6 12  2  0  0  0  0
  7 22  1  0  0  0  0
  7 23  1  0  0  0  0
  8  9  1  0  0  0  0
  8 13  2  0  0  0  0
  9 10  1  0  0  0  0
  9 24  1  0  0  0  0
  9 25  1  0  0  0  0
 10 26  1  0  0  0  0
 10 27  1  0  0  0  0
 11 15  2  0  0  0  0
 11 16  1  0  0  0  0
 12 14  1  0  0  0  0
 12 29  1  0  0  0  0
 13 17  1  0  0  0  0
 13 30  1  0  0  0  0
 14 17  2  0  0  0  0
 15 18  1  0  0  0  0
 15 31  1  0  0  0  0
 16 19  2  0  0  0  0
 16 32  1  0  0  0  0
 18 20  2  0  0  0  0
 18 33  1  0  0  0  0
 19 20  1  0  0  0  0
 19 34  1  0  0  0  0
 20 35  1  0  0  0  0
M  END
> <PUBCHEM_COMPOUND_CID>
45262882

> <PUBCHEM_COMPOUND_CANONICALIZED>
1

> <PUBCHEM_CACTVS_COMPLEXITY>
293

> <PUBCHEM_CACTVS_HBOND_ACCEPTOR>
2

> <PUBCHEM_CACTVS_HBOND_DONOR>
3

> <PUBCHEM_CACTVS_ROTATABLE_BOND>
1

> <PUBCHEM_CACTVS_SUBSKEYS>
AAADceB6IAAAGAAAAAAAAAAAAAAAAAAAAAAwYAAABYAAAAABQAAAHgBQCAABrQTBmAQwBoLAAgCAAiBCAAACAAAgIAQIiIAOCKgIJiKCkROEcAAk0BGImheQ0PIOogABEAAQBABEAAIgACAIAAAAAAAAAA==

> <PUBCHEM_IUPAC_OPENEYE_NAME>
8-bromo-5-phenyl-2,3,4,5-tetrahydro-1H-3-benzazepin-7-ol;hydrobromide

> <PUBCHEM_IUPAC_CAS_NAME>
8-bromo-5-phenyl-2,3,4,5-tetrahydro-1H-3-benzazepin-7-ol;hydrobromide

> <PUBCHEM_IUPAC_NAME_MARKUP>
8-bromo-5-phenyl-2,3,4,5-tetrahydro-1<I>H</I>-3-benzazepin-7-ol;hydrobromide

> <PUBCHEM_IUPAC_NAME>
8-bromo-5-phenyl-2,3,4,5-tetrahydro-1H-3-benzazepin-7-ol;hydrobromide

> <PUBCHEM_IUPAC_SYSTEMATIC_NAME>
8-bromanyl-5-phenyl-2,3,4,5-tetrahydro-1H-3-benzazepin-7-ol;hydrobromide

> <PUBCHEM_IUPAC_TRADITIONAL_NAME>
8-bromo-5-phenyl-2,3,4,5-tetrahydro-1H-3-benzazepin-7-ol;hydrobromide

> <PUBCHEM_IUPAC_INCHI>
InChI=1S/C16H16BrNO.BrH/c17-15-8-12-6-7-18-10-14(13(12)9-16(15)19)11-4-2-1-3-5-11;/h1-5,8-9,14,18-19H,6-7,10H2;1H

> <PUBCHEM_IUPAC_INCHIKEY>
IONYJCBNCWTVMO-UHFFFAOYSA-N

> <PUBCHEM_EXACT_MASS>
398.96564

> <PUBCHEM_MOLECULAR_FORMULA>
C16H17Br2NO

> <PUBCHEM_MOLECULAR_WEIGHT>
399.12

> <PUBCHEM_OPENEYE_CAN_SMILES>
C1CNCC(C2=CC(=C(C=C21)Br)O)C3=CC=CC=C3.Br

> <PUBCHEM_OPENEYE_ISO_SMILES>
C1CNCC(C2=CC(=C(C=C21)Br)O)C3=CC=CC=C3.Br

> <PUBCHEM_CACTVS_TPSA>
32.3

> <PUBCHEM_MONOISOTOPIC_WEIGHT>
396.96769

> <PUBCHEM_TOTAL_CHARGE>
0

> <PUBCHEM_HEAVY_ATOM_COUNT>
20

> <PUBCHEM_ATOM_DEF_STEREO_COUNT>
0

> <PUBCHEM_ATOM_UDEF_STEREO_COUNT>
1

> <PUBCHEM_BOND_DEF_STEREO_COUNT>
0

> <PUBCHEM_BOND_UDEF_STEREO_COUNT>
0

> <PUBCHEM_ISOTOPIC_ATOM_COUNT>
0

> <PUBCHEM_COMPONENT_COUNT>
2

> <PUBCHEM_CACTVS_TAUTO_COUNT>
-1

> <PUBCHEM_COORDINATE_TYPE>
1
5
255

> <PUBCHEM_BONDANNOTATIONS>
11  15  8
11  16  8
12  14  8
13  17  8
14  17  8
15  18  8
16  19  8
18  20  8
19  20  8
5  11  3
6  12  8
6  8  8
8  13  8

$$$$
