45261953
  -OEChem-09292322032D

 71 73  0     0  0  0  0  0  0999 V2000
    5.7580    2.4986    0.0000 Cl  0  0  0  0  0  0  0  0  0  0  0  0
    5.7580    0.0000    0.0000 Cl  0  0  0  0  0  0  0  0  0  0  0  0
   10.8377   15.1561    0.0000 F   0  0  0  0  0  0  0  0  0  0  0  0
   12.2665    8.3768    0.0000 F   0  0  0  0  0  0  0  0  0  0  0  0
    2.2690    9.6171    0.0000 O   0  0  0  0  0  0  0  0  0  0  0  0
    0.5369    6.6171    0.0000 O   0  0  0  0  0  0  0  0  0  0  0  0
    8.6166   11.1478    0.0000 N   0  0  0  0  0  0  0  0  0  0  0  0
    6.6596   10.7353    0.0000 N   0  0  0  0  0  0  0  0  0  0  0  0
    4.0812    8.4218    0.0000 N   0  0  0  0  0  0  0  0  0  0  0  0
    2.2690    6.6171    0.0000 N   0  0  0  0  0  0  0  0  0  0  0  0
    4.0812    6.8124    0.0000 N   0  0  0  0  0  0  0  0  0  0  0  0
    1.4030    8.1171    0.0000 N   0  0  0  0  0  0  0  0  0  0  0  0
    7.9487   11.8921    0.0000 C   0  0  0  0  0  0  0  0  0  0  0  0
    8.3059   10.1972    0.0000 C   0  0  0  0  0  0  0  0  0  0  0  0
    6.9702   11.6858    0.0000 C   0  0  0  0  0  0  0  0  0  0  0  0
    7.3274    9.9910    0.0000 C   0  0  0  0  0  0  0  0  0  0  0  0
    9.5951   11.3540    0.0000 C   0  0  0  0  0  0  0  0  0  0  0  0
    5.6811   10.5291    0.0000 C   0  0  0  0  0  0  0  0  0  0  0  0
    5.3704    9.5786    0.0000 C   0  0  0  0  0  0  0  0  0  0  0  0
    9.9058   12.3045    0.0000 C   0  0  0  0  0  0  0  0  0  0  0  0
   10.2629   10.6097    0.0000 C   0  0  0  0  0  0  0  0  0  0  0  0
    4.3919    9.3724    0.0000 C   0  0  0  0  0  0  0  0  0  0  0  0
   10.8843   12.5107    0.0000 C   0  0  0  0  0  0  0  0  0  0  0  0
    9.9523    9.6592    0.0000 C   0  0  0  0  0  0  0  0  0  0  0  0
    9.2379   13.0488    0.0000 C   0  0  0  0  0  0  0  0  0  0  0  0
   11.2414   10.8159    0.0000 C   0  0  0  0  0  0  0  0  0  0  0  0
    3.1350    8.1171    0.0000 C   0  0  0  0  0  0  0  0  0  0  0  0
    3.1350    7.1171    0.0000 C   0  0  0  0  0  0  0  0  0  0  0  0
    4.6648    7.6171    0.0000 C   0  0  0  0  0  0  0  0  0  0  0  0
   11.1949   13.4612    0.0000 C   0  0  0  0  0  0  0  0  0  0  0  0
   10.6201    8.9148    0.0000 C   0  0  0  0  0  0  0  0  0  0  0  0
    9.5486   13.9993    0.0000 C   0  0  0  0  0  0  0  0  0  0  0  0
   11.9093   10.0716    0.0000 C   0  0  0  0  0  0  0  0  0  0  0  0
    2.2690    8.6171    0.0000 C   0  0  0  0  0  0  0  0  0  0  0  0
   10.5271   14.2055    0.0000 C   0  0  0  0  0  0  0  0  0  0  0  0
   11.5986    9.1211    0.0000 C   0  0  0  0  0  0  0  0  0  0  0  0
    1.4030    7.1171    0.0000 C   0  0  0  0  0  0  0  0  0  0  0  0
    2.2690    5.6171    0.0000 C   0  0  0  0  0  0  0  0  0  0  0  0
    0.5369    8.6171    0.0000 C   0  0  0  0  0  0  0  0  0  0  0  0
    8.4751   12.2197    0.0000 H   0  0  0  0  0  0  0  0  0  0  0  0
    7.7175   12.4673    0.0000 H   0  0  0  0  0  0  0  0  0  0  0  0
    8.3265    9.5776    0.0000 H   0  0  0  0  0  0  0  0  0  0  0  0
    8.9197   10.1099    0.0000 H   0  0  0  0  0  0  0  0  0  0  0  0
    6.9497   12.3055    0.0000 H   0  0  0  0  0  0  0  0  0  0  0  0
    6.3564   11.7732    0.0000 H   0  0  0  0  0  0  0  0  0  0  0  0
    6.8010    9.6634    0.0000 H   0  0  0  0  0  0  0  0  0  0  0  0
    7.5587    9.4158    0.0000 H   0  0  0  0  0  0  0  0  0  0  0  0
    9.1810   11.8154    0.0000 H   0  0  0  0  0  0  0  0  0  0  0  0
    5.6605   11.1488    0.0000 H   0  0  0  0  0  0  0  0  0  0  0  0
    5.0672   10.6165    0.0000 H   0  0  0  0  0  0  0  0  0  0  0  0
    5.3910    8.9589    0.0000 H   0  0  0  0  0  0  0  0  0  0  0  0
    5.9842    9.4912    0.0000 H   0  0  0  0  0  0  0  0  0  0  0  0
    4.3713    9.9920    0.0000 H   0  0  0  0  0  0  0  0  0  0  0  0
    3.7781    9.4597    0.0000 H   0  0  0  0  0  0  0  0  0  0  0  0
   11.2983   12.0492    0.0000 H   0  0  0  0  0  0  0  0  0  0  0  0
    9.3456    9.5313    0.0000 H   0  0  0  0  0  0  0  0  0  0  0  0
    8.6312   12.9209    0.0000 H   0  0  0  0  0  0  0  0  0  0  0  0
   11.4340   11.4052    0.0000 H   0  0  0  0  0  0  0  0  0  0  0  0
    5.2848    7.6171    0.0000 H   0  0  0  0  0  0  0  0  0  0  0  0
   11.8016   13.5891    0.0000 H   0  0  0  0  0  0  0  0  0  0  0  0
   10.4275    8.3255    0.0000 H   0  0  0  0  0  0  0  0  0  0  0  0
    9.1345   14.4608    0.0000 H   0  0  0  0  0  0  0  0  0  0  0  0
   12.5160   10.1994    0.0000 H   0  0  0  0  0  0  0  0  0  0  0  0
    1.6490    5.6171    0.0000 H   0  0  0  0  0  0  0  0  0  0  0  0
    2.2690    4.9971    0.0000 H   0  0  0  0  0  0  0  0  0  0  0  0
    2.8890    5.6171    0.0000 H   0  0  0  0  0  0  0  0  0  0  0  0
    0.8469    9.1540    0.0000 H   0  0  0  0  0  0  0  0  0  0  0  0
    0.0000    8.9271    0.0000 H   0  0  0  0  0  0  0  0  0  0  0  0
    0.2269    8.0802    0.0000 H   0  0  0  0  0  0  0  0  0  0  0  0
    6.7580    2.4986    0.0000 H   0  0  0  0  0  0  0  0  0  0  0  0
    6.7580    0.0000    0.0000 H   0  0  0  0  0  0  0  0  0  0  0  0
  1 70  1  0  0  0  0
  2 71  1  0  0  0  0
  3 35  1  0  0  0  0
  4 36  1  0  0  0  0
  5 34  2  0  0  0  0
  6 37  2  0  0  0  0
  7 13  1  0  0  0  0
  7 14  1  0  0  0  0
  7 17  1  0  0  0  0
  8 15  1  0  0  0  0
  8 16  1  0  0  0  0
  8 18  1  0  0  0  0
  9 22  1  0  0  0  0
  9 27  1  0  0  0  0
  9 29  1  0  0  0  0
 10 28  1  0  0  0  0
 10 37  1  0  0  0  0
 10 38  1  0  0  0  0
 11 28  1  0  0  0  0
 11 29  2  0  0  0  0
 12 34  1  0  0  0  0
 12 37  1  0  0  0  0
 12 39  1  0  0  0  0
 13 15  1  0  0  0  0
 13 40  1  0  0  0  0
 13 41  1  0  0  0  0
 14 16  1  0  0  0  0
 14 42  1  0  0  0  0
 14 43  1  0  0  0  0
 15 44  1  0  0  0  0
 15 45  1  0  0  0  0
 16 46  1  0  0  0  0
 16 47  1  0  0  0  0
 17 20  1  0  0  0  0
 17 21  1  0  0  0  0
 17 48  1  0  0  0  0
 18 19  1  0  0  0  0
 18 49  1  0  0  0  0
 18 50  1  0  0  0  0
 19 22  1  0  0  0  0
 19 51  1  0  0  0  0
 19 52  1  0  0  0  0
 20 23  2  0  0  0  0
 20 25  1  0  0  0  0
 21 24  2  0  0  0  0
 21 26  1  0  0  0  0
 22 53  1  0  0  0  0
 22 54  1  0  0  0  0
 23 30  1  0  0  0  0
 23 55  1  0  0  0  0
 24 31  1  0  0  0  0
 24 56  1  0  0  0  0
 25 32  2  0  0  0  0
 25 57  1  0  0  0  0
 26 33  2  0  0  0  0
 26 58  1  0  0  0  0
 27 28  2  0  0  0  0
 27 34  1  0  0  0  0
 29 59  1  0  0  0  0
 30 35  2  0  0  0  0
 30 60  1  0  0  0  0
 31 36  2  0  0  0  0
 31 61  1  0  0  0  0
 32 35  1  0  0  0  0
 32 62  1  0  0  0  0
 33 36  1  0  0  0  0
 33 63  1  0  0  0  0
 38 64  1  0  0  0  0
 38 65  1  0  0  0  0
 38 66  1  0  0  0  0
 39 67  1  0  0  0  0
 39 68  1  0  0  0  0
 39 69  1  0  0  0  0
M  END
> <PUBCHEM_COMPOUND_CID>
45261953

> <PUBCHEM_COMPOUND_CANONICALIZED>
1

> <PUBCHEM_CACTVS_COMPLEXITY>
774

> <PUBCHEM_CACTVS_HBOND_ACCEPTOR>
7

> <PUBCHEM_CACTVS_HBOND_DONOR>
2

> <PUBCHEM_CACTVS_ROTATABLE_BOND>
7

> <PUBCHEM_CACTVS_SUBSKEYS>
AAADcfB7sYAGAAAAAAAAAAAAAAAAAWAAAAA8eIEAAAAAAFgB0AAAHwAAAAAADCjBngw3sJcMEACoAydzdACCgC03EKAJ2AGoVMiIaCrA2TGUIIhohyLIiGcQgMAOAAAAAAAAAAAAAAAAAAAAAAAAAAAAAA==

> <PUBCHEM_IUPAC_OPENEYE_NAME>
7-[3-[4-[bis(4-fluorophenyl)methyl]piperazin-1-yl]propyl]-1,3-dimethyl-purine-2,6-dione;dihydrochloride

> <PUBCHEM_IUPAC_CAS_NAME>
7-[3-[4-[bis(4-fluorophenyl)methyl]-1-piperazinyl]propyl]-1,3-dimethylpurine-2,6-dione;dihydrochloride

> <PUBCHEM_IUPAC_NAME_MARKUP>
7-[3-[4-[bis(4-fluorophenyl)methyl]piperazin-1-yl]propyl]-1,3-dimethylpurine-2,6-dione;dihydrochloride

> <PUBCHEM_IUPAC_NAME>
7-[3-[4-[bis(4-fluorophenyl)methyl]piperazin-1-yl]propyl]-1,3-dimethylpurine-2,6-dione;dihydrochloride

> <PUBCHEM_IUPAC_SYSTEMATIC_NAME>
7-[3-[4-[bis(4-fluorophenyl)methyl]piperazin-1-yl]propyl]-1,3-dimethyl-purine-2,6-dione;dihydrochloride

> <PUBCHEM_IUPAC_TRADITIONAL_NAME>
7-[3-[4-[bis(4-fluorophenyl)methyl]piperazino]propyl]-1,3-dimethyl-xanthine;dihydrochloride

> <PUBCHEM_IUPAC_INCHI>
InChI=1S/C27H30F2N6O2.2ClH/c1-31-25-24(26(36)32(2)27(31)37)35(18-30-25)13-3-12-33-14-16-34(17-15-33)23(19-4-8-21(28)9-5-19)20-6-10-22(29)11-7-20;;/h4-11,18,23H,3,12-17H2,1-2H3;2*1H

> <PUBCHEM_IUPAC_INCHIKEY>
PNOSOZWRHNNHGW-UHFFFAOYSA-N

> <PUBCHEM_EXACT_MASS>
580.1931860

> <PUBCHEM_MOLECULAR_FORMULA>
C27H32Cl2F2N6O2

> <PUBCHEM_MOLECULAR_WEIGHT>
581.5

> <PUBCHEM_OPENEYE_CAN_SMILES>
CN1C2=C(C(=O)N(C1=O)C)N(C=N2)CCCN3CCN(CC3)C(C4=CC=C(C=C4)F)C5=CC=C(C=C5)F.Cl.Cl

> <PUBCHEM_OPENEYE_ISO_SMILES>
CN1C2=C(C(=O)N(C1=O)C)N(C=N2)CCCN3CCN(CC3)C(C4=CC=C(C=C4)F)C5=CC=C(C=C5)F.Cl.Cl

> <PUBCHEM_CACTVS_TPSA>
64.9

> <PUBCHEM_MONOISOTOPIC_WEIGHT>
580.1931860

> <PUBCHEM_TOTAL_CHARGE>
0

> <PUBCHEM_HEAVY_ATOM_COUNT>
39

> <PUBCHEM_ATOM_DEF_STEREO_COUNT>
0

> <PUBCHEM_ATOM_UDEF_STEREO_COUNT>
0

> <PUBCHEM_BOND_DEF_STEREO_COUNT>
0

> <PUBCHEM_BOND_UDEF_STEREO_COUNT>
0

> <PUBCHEM_ISOTOPIC_ATOM_COUNT>
0

> <PUBCHEM_COMPONENT_COUNT>
3

> <PUBCHEM_CACTVS_TAUTO_COUNT>
-1

> <PUBCHEM_COORDINATE_TYPE>
1
5
255

> <PUBCHEM_BONDANNOTATIONS>
10  28  8
10  37  8
11  28  8
11  29  8
12  34  8
12  37  8
20  23  8
20  25  8
21  24  8
21  26  8
23  30  8
24  31  8
25  32  8
26  33  8
27  28  8
27  34  8
30  35  8
31  36  8
32  35  8
33  36  8
9  27  8
9  29  8

$$$$
