46180394
  -OEChem-09292322482D

 47 50  0     1  0  0  0  0  0999 V2000
    2.9176    1.2040    0.0000 O   0  0  0  0  0  0  0  0  0  0  0  0
    6.3903   -1.8275    0.0000 N   0  0  3  0  0  0  0  0  0  0  0  0
    5.5321   -1.3306    0.0000 C   0  0  1  0  0  0  0  0  0  0  0  0
    5.5321   -0.3306    0.0000 C   0  0  0  0  0  0  0  0  0  0  0  0
    4.6660   -1.8306    0.0000 C   0  0  0  0  0  0  0  0  0  0  0  0
    7.2558   -1.3433    0.0000 C   0  0  0  0  0  0  0  0  0  0  0  0
    6.4421    0.1763    0.0000 C   0  0  0  0  0  0  0  0  0  0  0  0
    7.2814   -0.3519    0.0000 C   0  0  0  0  0  0  0  0  0  0  0  0
    4.6660    0.1694    0.0000 C   0  0  0  0  0  0  0  0  0  0  0  0
    3.8000   -1.3306    0.0000 C   0  0  0  0  0  0  0  0  0  0  0  0
    6.3829   -2.8275    0.0000 C   0  0  0  0  0  0  0  0  0  0  0  0
    3.8000   -0.3306    0.0000 C   0  0  0  0  0  0  0  0  0  0  0  0
    6.4501    1.2179    0.0000 C   0  0  0  0  0  0  0  0  0  0  0  0
    4.6500    1.2109    0.0000 C   0  0  0  0  0  0  0  0  0  0  0  0
    7.2452   -3.3339    0.0000 C   0  0  0  0  0  0  0  0  0  0  0  0
    2.9061    0.2041    0.0000 C   0  0  0  0  0  0  0  0  0  0  0  0
    2.9061   -1.8652    0.0000 C   0  0  0  0  0  0  0  0  0  0  0  0
    5.5480    1.7387    0.0000 C   0  0  0  0  0  0  0  0  0  0  0  0
    2.0000   -0.3097    0.0000 C   0  0  0  0  0  0  0  0  0  0  0  0
    2.0000   -1.3514    0.0000 C   0  0  0  0  0  0  0  0  0  0  0  0
    7.2378   -4.3338    0.0000 C   0  0  0  0  0  0  0  0  0  0  0  0
    2.0574    1.7140    0.0000 C   0  0  0  0  0  0  0  0  0  0  0  0
    2.0690    2.7139    0.0000 C   0  0  0  0  0  0  0  0  0  0  0  0
    2.0806    3.7139    0.0000 C   0  0  0  0  0  0  0  0  0  0  0  0
    5.5315   -2.1806    0.0000 H   0  0  0  0  0  0  0  0  0  0  0  0
    4.2675   -2.3055    0.0000 H   0  0  0  0  0  0  0  0  0  0  0  0
    5.0646   -2.3055    0.0000 H   0  0  0  0  0  0  0  0  0  0  0  0
    7.4575   -1.9296    0.0000 H   0  0  0  0  0  0  0  0  0  0  0  0
    7.8685   -1.2490    0.0000 H   0  0  0  0  0  0  0  0  0  0  0  0
    7.8885   -0.4778    0.0000 H   0  0  0  0  0  0  0  0  0  0  0  0
    7.5131    0.2231    0.0000 H   0  0  0  0  0  0  0  0  0  0  0  0
    5.7731   -2.7153    0.0000 H   0  0  0  0  0  0  0  0  0  0  0  0
    6.1665   -3.4085    0.0000 H   0  0  0  0  0  0  0  0  0  0  0  0
    6.9882    1.5258    0.0000 H   0  0  0  0  0  0  0  0  0  0  0  0
    4.1095    1.5147    0.0000 H   0  0  0  0  0  0  0  0  0  0  0  0
    7.8550   -3.4460    0.0000 H   0  0  0  0  0  0  0  0  0  0  0  0
    7.4615   -2.7528    0.0000 H   0  0  0  0  0  0  0  0  0  0  0  0
    2.9132   -2.4852    0.0000 H   0  0  0  0  0  0  0  0  0  0  0  0
    5.5456    2.3587    0.0000 H   0  0  0  0  0  0  0  0  0  0  0  0
    1.4643    0.0023    0.0000 H   0  0  0  0  0  0  0  0  0  0  0  0
    1.4643   -1.6634    0.0000 H   0  0  0  0  0  0  0  0  0  0  0  0
    6.6178   -4.3292    0.0000 H   0  0  0  0  0  0  0  0  0  0  0  0
    7.2332   -4.9538    0.0000 H   0  0  0  0  0  0  0  0  0  0  0  0
    7.8578   -4.3384    0.0000 H   0  0  0  0  0  0  0  0  0  0  0  0
    1.4482    1.8287    0.0000 H   0  0  0  0  0  0  0  0  0  0  0  0
    1.8387    1.1339    0.0000 H   0  0  0  0  0  0  0  0  0  0  0  0
    2.0877    4.3338    0.0000 H   0  0  0  0  0  0  0  0  0  0  0  0
  1 16  1  0  0  0  0
  1 22  1  0  0  0  0
  2  3  1  0  0  0  0
  2  6  1  0  0  0  0
  2 11  1  0  0  0  0
  3  4  1  0  0  0  0
  3  5  1  0  0  0  0
  3 25  1  1  0  0  0
  4  7  2  0  0  0  0
  4  9  1  0  0  0  0
  5 10  1  0  0  0  0
  5 26  1  0  0  0  0
  5 27  1  0  0  0  0
  6  8  1  0  0  0  0
  6 28  1  0  0  0  0
  6 29  1  0  0  0  0
  7  8  1  0  0  0  0
  7 13  1  0  0  0  0
  8 30  1  0  0  0  0
  8 31  1  0  0  0  0
  9 12  1  0  0  0  0
  9 14  2  0  0  0  0
 10 12  2  0  0  0  0
 10 17  1  0  0  0  0
 11 15  1  0  0  0  0
 11 32  1  0  0  0  0
 11 33  1  0  0  0  0
 12 16  1  0  0  0  0
 13 18  2  0  0  0  0
 13 34  1  0  0  0  0
 14 18  1  0  0  0  0
 14 35  1  0  0  0  0
 15 21  1  0  0  0  0
 15 36  1  0  0  0  0
 15 37  1  0  0  0  0
 16 19  2  0  0  0  0
 17 20  2  0  0  0  0
 17 38  1  0  0  0  0
 18 39  1  0  0  0  0
 19 20  1  0  0  0  0
 19 40  1  0  0  0  0
 20 41  1  0  0  0  0
 21 42  1  0  0  0  0
 21 43  1  0  0  0  0
 21 44  1  0  0  0  0
 22 23  1  0  0  0  0
 22 45  1  0  0  0  0
 22 46  1  0  0  0  0
 23 24  3  0  0  0  0
 24 47  1  0  0  0  0
M  END
> <PUBCHEM_COMPOUND_CID>
46180394

> <PUBCHEM_COMPOUND_CANONICALIZED>
1

> <PUBCHEM_CACTVS_COMPLEXITY>
480

> <PUBCHEM_CACTVS_HBOND_ACCEPTOR>
2

> <PUBCHEM_CACTVS_HBOND_DONOR>
0

> <PUBCHEM_CACTVS_ROTATABLE_BOND>
4

> <PUBCHEM_CACTVS_SUBSKEYS>
AAADceB6IAAAAAAAAAAAAAAAAAAAAAAAAAA8YMEAAAAAAADxQAAAHgAAAAAADCzhmAYyBoMABADAGiBCAACCCAAgIAAIiAAODIgMJiKEsRuGOCjkwBGIqAeQ0PMOgAADAAAYAACQAAaAADQAAAAAAAAAAA==

> <PUBCHEM_IUPAC_OPENEYE_NAME>
(6aR)-6-propyl-11-prop-2-ynoxy-5,6,6a,7-tetrahydro-4H-dibenzo[de,g]quinoline

> <PUBCHEM_IUPAC_CAS_NAME>
(6aR)-6-propyl-11-prop-2-ynoxy-5,6,6a,7-tetrahydro-4H-dibenzo[de,g]quinoline

> <PUBCHEM_IUPAC_NAME_MARKUP>
(6<I>a</I><I>R</I>)-6-propyl-11-prop-2-ynoxy-5,6,6<I>a</I>,7-tetrahydro-4<I>H</I>-dibenzo[de,g]quinoline

> <PUBCHEM_IUPAC_NAME>
(6aR)-6-propyl-11-prop-2-ynoxy-5,6,6a,7-tetrahydro-4H-dibenzo[de,g]quinoline

> <PUBCHEM_IUPAC_SYSTEMATIC_NAME>
(6aR)-6-propyl-11-prop-2-ynoxy-5,6,6a,7-tetrahydro-4H-dibenzo[de,g]quinoline

> <PUBCHEM_IUPAC_TRADITIONAL_NAME>
(6aR)-11-propargyloxy-6-propyl-5,6,6a,7-tetrahydro-4H-dibenzo[de,g]quinoline

> <PUBCHEM_IUPAC_INCHI>
InChI=1S/C22H23NO/c1-3-12-23-13-11-16-7-5-9-18-21(16)19(23)15-17-8-6-10-20(22(17)18)24-14-4-2/h2,5-10,19H,3,11-15H2,1H3/t19-/m1/s1

> <PUBCHEM_IUPAC_INCHIKEY>
GYGFWUNSKKZJNC-LJQANCHMSA-N

> <PUBCHEM_XLOGP3_AA>
4.5

> <PUBCHEM_EXACT_MASS>
317.177964357

> <PUBCHEM_MOLECULAR_FORMULA>
C22H23NO

> <PUBCHEM_MOLECULAR_WEIGHT>
317.4

> <PUBCHEM_OPENEYE_CAN_SMILES>
CCCN1CCC2=C3C1CC4=C(C3=CC=C2)C(=CC=C4)OCC#C

> <PUBCHEM_OPENEYE_ISO_SMILES>
CCCN1CCC2=C3[C@H]1CC4=C(C3=CC=C2)C(=CC=C4)OCC#C

> <PUBCHEM_CACTVS_TPSA>
12.5

> <PUBCHEM_MONOISOTOPIC_WEIGHT>
317.177964357

> <PUBCHEM_TOTAL_CHARGE>
0

> <PUBCHEM_HEAVY_ATOM_COUNT>
24

> <PUBCHEM_ATOM_DEF_STEREO_COUNT>
1

> <PUBCHEM_ATOM_UDEF_STEREO_COUNT>
0

> <PUBCHEM_BOND_DEF_STEREO_COUNT>
0

> <PUBCHEM_BOND_UDEF_STEREO_COUNT>
0

> <PUBCHEM_ISOTOPIC_ATOM_COUNT>
0

> <PUBCHEM_COMPONENT_COUNT>
1

> <PUBCHEM_CACTVS_TAUTO_COUNT>
-1

> <PUBCHEM_COORDINATE_TYPE>
1
5
255

> <PUBCHEM_BONDANNOTATIONS>
10  12  8
10  17  8
12  16  8
13  18  8
14  18  8
16  19  8
17  20  8
19  20  8
3  25  5
4  7  8
4  9  8
7  13  8
9  14  8

$$$$
