73671219
  -OEChem-09292322052D

 60 64  0     0  0  0  0  0  0999 V2000
    8.1301    2.1364    0.0000 O   0  0  0  0  0  0  0  0  0  0  0  0
    4.6660   -1.8636    0.0000 N   0  0  0  0  0  0  0  0  0  0  0  0
    4.6660   -3.8636    0.0000 N   0  0  0  0  0  0  0  0  0  0  0  0
    6.3981    2.1364    0.0000 N   0  0  0  0  0  0  0  0  0  0  0  0
    4.6660   -6.8636    0.0000 N   0  0  0  0  0  0  0  0  0  0  0  0
    6.7641    5.1662    0.0000 N   0  0  0  0  0  0  0  0  0  0  0  0
    8.0688    4.2200    0.0000 N   0  0  0  0  0  0  0  0  0  0  0  0
    3.8000   -2.3636    0.0000 C   0  0  0  0  0  0  0  0  0  0  0  0
    5.5321   -2.3636    0.0000 C   0  0  0  0  0  0  0  0  0  0  0  0
    3.8000   -3.3636    0.0000 C   0  0  0  0  0  0  0  0  0  0  0  0
    5.5321   -3.3636    0.0000 C   0  0  0  0  0  0  0  0  0  0  0  0
    4.6660   -0.8636    0.0000 C   0  0  0  0  0  0  0  0  0  0  0  0
    5.5321   -0.3636    0.0000 C   0  0  0  0  0  0  0  0  0  0  0  0
    4.6660   -4.8636    0.0000 C   0  0  0  0  0  0  0  0  0  0  0  0
    5.5321    0.6364    0.0000 C   0  0  0  0  0  0  0  0  0  0  0  0
    3.8000   -5.3636    0.0000 C   0  0  0  0  0  0  0  0  0  0  0  0
    6.3981    1.1364    0.0000 C   0  0  0  0  0  0  0  0  0  0  0  0
    5.5321   -5.3636    0.0000 C   0  0  0  0  0  0  0  0  0  0  0  0
    3.8000   -6.3636    0.0000 C   0  0  0  0  0  0  0  0  0  0  0  0
    2.9061   -4.8290    0.0000 C   0  0  0  0  0  0  0  0  0  0  0  0
    5.5321   -6.3636    0.0000 C   0  0  0  0  0  0  0  0  0  0  0  0
    2.9061   -6.8983    0.0000 C   0  0  0  0  0  0  0  0  0  0  0  0
    2.0000   -5.3428    0.0000 C   0  0  0  0  0  0  0  0  0  0  0  0
    2.0000   -6.3844    0.0000 C   0  0  0  0  0  0  0  0  0  0  0  0
    7.2641    2.6364    0.0000 C   0  0  0  0  0  0  0  0  0  0  0  0
    7.2641    3.6364    0.0000 C   0  0  0  0  0  0  0  0  0  0  0  0
    6.4594    4.2200    0.0000 C   0  0  0  0  0  0  0  0  0  0  0  0
    7.7641    5.1662    0.0000 C   0  0  0  0  0  0  0  0  0  0  0  0
    6.2641    6.0322    0.0000 C   0  0  0  0  0  0  0  0  0  0  0  0
    8.2641    6.0322    0.0000 C   0  0  0  0  0  0  0  0  0  0  0  0
    6.7641    6.8983    0.0000 C   0  0  0  0  0  0  0  0  0  0  0  0
    7.7641    6.8983    0.0000 C   0  0  0  0  0  0  0  0  0  0  0  0
    3.5880   -1.7810    0.0000 H   0  0  0  0  0  0  0  0  0  0  0  0
    3.1894   -2.4713    0.0000 H   0  0  0  0  0  0  0  0  0  0  0  0
    6.1426   -2.4713    0.0000 H   0  0  0  0  0  0  0  0  0  0  0  0
    5.7441   -1.7810    0.0000 H   0  0  0  0  0  0  0  0  0  0  0  0
    3.1894   -3.2560    0.0000 H   0  0  0  0  0  0  0  0  0  0  0  0
    3.5880   -3.9462    0.0000 H   0  0  0  0  0  0  0  0  0  0  0  0
    5.7441   -3.9462    0.0000 H   0  0  0  0  0  0  0  0  0  0  0  0
    6.1426   -3.2560    0.0000 H   0  0  0  0  0  0  0  0  0  0  0  0
    4.4540   -0.2810    0.0000 H   0  0  0  0  0  0  0  0  0  0  0  0
    4.0555   -0.9713    0.0000 H   0  0  0  0  0  0  0  0  0  0  0  0
    5.7441   -0.9462    0.0000 H   0  0  0  0  0  0  0  0  0  0  0  0
    6.1426   -0.2559    0.0000 H   0  0  0  0  0  0  0  0  0  0  0  0
    5.3200    1.2190    0.0000 H   0  0  0  0  0  0  0  0  0  0  0  0
    4.9215    0.5287    0.0000 H   0  0  0  0  0  0  0  0  0  0  0  0
    6.6101    0.5538    0.0000 H   0  0  0  0  0  0  0  0  0  0  0  0
    7.0087    1.2441    0.0000 H   0  0  0  0  0  0  0  0  0  0  0  0
    6.0690   -5.0536    0.0000 H   0  0  0  0  0  0  0  0  0  0  0  0
    2.9132   -4.2090    0.0000 H   0  0  0  0  0  0  0  0  0  0  0  0
    6.0690   -6.6736    0.0000 H   0  0  0  0  0  0  0  0  0  0  0  0
    5.8612    2.4464    0.0000 H   0  0  0  0  0  0  0  0  0  0  0  0
    2.9132   -7.5182    0.0000 H   0  0  0  0  0  0  0  0  0  0  0  0
    1.4643   -5.0307    0.0000 H   0  0  0  0  0  0  0  0  0  0  0  0
    1.4643   -6.6965    0.0000 H   0  0  0  0  0  0  0  0  0  0  0  0
    5.8701    4.0274    0.0000 H   0  0  0  0  0  0  0  0  0  0  0  0
    5.6441    6.0322    0.0000 H   0  0  0  0  0  0  0  0  0  0  0  0
    8.8841    6.0322    0.0000 H   0  0  0  0  0  0  0  0  0  0  0  0
    6.4541    7.4352    0.0000 H   0  0  0  0  0  0  0  0  0  0  0  0
    8.0741    7.4352    0.0000 H   0  0  0  0  0  0  0  0  0  0  0  0
  1 25  2  0  0  0  0
  2  8  1  0  0  0  0
  2  9  1  0  0  0  0
  2 12  1  0  0  0  0
  3 10  1  0  0  0  0
  3 11  1  0  0  0  0
  3 14  1  0  0  0  0
  4 17  1  0  0  0  0
  4 25  1  0  0  0  0
  4 52  1  0  0  0  0
  5 19  1  0  0  0  0
  5 21  2  0  0  0  0
  6 27  1  0  0  0  0
  6 28  1  0  0  0  0
  6 29  1  0  0  0  0
  7 26  1  0  0  0  0
  7 28  2  0  0  0  0
  8 10  1  0  0  0  0
  8 33  1  0  0  0  0
  8 34  1  0  0  0  0
  9 11  1  0  0  0  0
  9 35  1  0  0  0  0
  9 36  1  0  0  0  0
 10 37  1  0  0  0  0
 10 38  1  0  0  0  0
 11 39  1  0  0  0  0
 11 40  1  0  0  0  0
 12 13  1  0  0  0  0
 12 41  1  0  0  0  0
 12 42  1  0  0  0  0
 13 15  1  0  0  0  0
 13 43  1  0  0  0  0
 13 44  1  0  0  0  0
 14 16  1  0  0  0  0
 14 18  2  0  0  0  0
 15 17  1  0  0  0  0
 15 45  1  0  0  0  0
 15 46  1  0  0  0  0
 16 19  1  0  0  0  0
 16 20  2  0  0  0  0
 17 47  1  0  0  0  0
 17 48  1  0  0  0  0
 18 21  1  0  0  0  0
 18 49  1  0  0  0  0
 19 22  2  0  0  0  0
 20 23  1  0  0  0  0
 20 50  1  0  0  0  0
 21 51  1  0  0  0  0
 22 24  1  0  0  0  0
 22 53  1  0  0  0  0
 23 24  2  0  0  0  0
 23 54  1  0  0  0  0
 24 55  1  0  0  0  0
 25 26  1  0  0  0  0
 26 27  2  0  0  0  0
 27 56  1  0  0  0  0
 28 30  1  0  0  0  0
 29 31  2  0  0  0  0
 29 57  1  0  0  0  0
 30 32  2  0  0  0  0
 30 58  1  0  0  0  0
 31 32  1  0  0  0  0
 31 59  1  0  0  0  0
 32 60  1  0  0  0  0
M  END
> <PUBCHEM_COMPOUND_CID>
73671219

> <PUBCHEM_COMPOUND_CANONICALIZED>
1

> <PUBCHEM_CACTVS_COMPLEXITY>
609

> <PUBCHEM_CACTVS_HBOND_ACCEPTOR>
5

> <PUBCHEM_CACTVS_HBOND_DONOR>
1

> <PUBCHEM_CACTVS_ROTATABLE_BOND>
7

> <PUBCHEM_CACTVS_SUBSKEYS>
AAADceB7oAAAAAAAAAAAAAAAAAAAAWAAAAA8WLEAAAAAAFix/gAAHgAQAAAADAjBnwQ98P/MGACoAzd3dACCgC03EqAJ2KG4dNiIaOrA2fGUJIholgLIyOcQgIAOAAAAAAACAAAAAAAAAAQAAAAAAAAAAA==

> <PUBCHEM_IUPAC_OPENEYE_NAME>
N-[4-[4-(4-quinolyl)piperazin-1-yl]butyl]imidazo[1,2-a]pyridine-2-carboxamide

> <PUBCHEM_IUPAC_CAS_NAME>
N-[4-[4-(4-quinolinyl)-1-piperazinyl]butyl]-2-imidazo[1,2-a]pyridinecarboxamide

> <PUBCHEM_IUPAC_NAME_MARKUP>
<I>N</I>-[4-(4-quinolin-4-ylpiperazin-1-yl)butyl]imidazo[1,2-a]pyridine-2-carboxamide

> <PUBCHEM_IUPAC_NAME>
N-[4-(4-quinolin-4-ylpiperazin-1-yl)butyl]imidazo[1,2-a]pyridine-2-carboxamide

> <PUBCHEM_IUPAC_SYSTEMATIC_NAME>
N-[4-(4-quinolin-4-ylpiperazin-1-yl)butyl]imidazo[1,2-a]pyridine-2-carboxamide

> <PUBCHEM_IUPAC_TRADITIONAL_NAME>
N-[4-[4-(4-quinolyl)piperazino]butyl]imidazo[1,2-a]pyridine-2-carboxamide

> <PUBCHEM_IUPAC_INCHI>
InChI=1S/C25H28N6O/c32-25(22-19-31-14-5-3-9-24(31)28-22)27-11-4-6-13-29-15-17-30(18-16-29)23-10-12-26-21-8-2-1-7-20(21)23/h1-3,5,7-10,12,14,19H,4,6,11,13,15-18H2,(H,27,32)

> <PUBCHEM_IUPAC_INCHIKEY>
OWKWAFZWCZQWNM-UHFFFAOYSA-N

> <PUBCHEM_XLOGP3_AA>
4

> <PUBCHEM_EXACT_MASS>
428.23245954

> <PUBCHEM_MOLECULAR_FORMULA>
C25H28N6O

> <PUBCHEM_MOLECULAR_WEIGHT>
428.5

> <PUBCHEM_OPENEYE_CAN_SMILES>
C1CN(CCN1CCCCNC(=O)C2=CN3C=CC=CC3=N2)C4=CC=NC5=CC=CC=C54

> <PUBCHEM_OPENEYE_ISO_SMILES>
C1CN(CCN1CCCCNC(=O)C2=CN3C=CC=CC3=N2)C4=CC=NC5=CC=CC=C54

> <PUBCHEM_CACTVS_TPSA>
65.8

> <PUBCHEM_MONOISOTOPIC_WEIGHT>
428.23245954

> <PUBCHEM_TOTAL_CHARGE>
0

> <PUBCHEM_HEAVY_ATOM_COUNT>
32

> <PUBCHEM_ATOM_DEF_STEREO_COUNT>
0

> <PUBCHEM_ATOM_UDEF_STEREO_COUNT>
0

> <PUBCHEM_BOND_DEF_STEREO_COUNT>
0

> <PUBCHEM_BOND_UDEF_STEREO_COUNT>
0

> <PUBCHEM_ISOTOPIC_ATOM_COUNT>
0

> <PUBCHEM_COMPONENT_COUNT>
1

> <PUBCHEM_CACTVS_TAUTO_COUNT>
-1

> <PUBCHEM_COORDINATE_TYPE>
1
5
255

> <PUBCHEM_BONDANNOTATIONS>
14  16  8
14  18  8
16  19  8
16  20  8
18  21  8
19  22  8
20  23  8
22  24  8
23  24  8
26  27  8
28  30  8
29  31  8
30  32  8
31  32  8
5  19  8
5  21  8
6  27  8
6  28  8
6  29  8
7  26  8
7  28  8

$$$$
