137645830
  -OEChem-09292322392D

 59 63  0     0  0  0  0  0  0999 V2000
    8.8271    3.3478    0.0000 O   0  0  0  0  0  0  0  0  0  0  0  0
    8.8271    5.4171    0.0000 O   0  0  0  0  0  0  0  0  0  0  0  0
    5.3351   -3.6176    0.0000 O   0  0  0  0  0  0  0  0  0  0  0  0
    7.0671    6.3824    0.0000 O   0  0  0  0  0  0  0  0  0  0  0  0
    7.0671    0.3824    0.0000 N   0  0  0  0  0  0  0  0  0  0  0  0
    7.0671    2.3824    0.0000 N   0  0  0  0  0  0  0  0  0  0  0  0
    2.7370   -5.1176    0.0000 N   0  0  0  0  0  0  0  0  0  0  0  0
    2.0000   -5.7846    0.0000 N   0  0  0  0  0  0  0  0  0  0  0  0
    7.9332    0.8824    0.0000 C   0  0  0  0  0  0  0  0  0  0  0  0
    6.2011    0.8824    0.0000 C   0  0  0  0  0  0  0  0  0  0  0  0
    7.9332    1.8824    0.0000 C   0  0  0  0  0  0  0  0  0  0  0  0
    6.2011    1.8824    0.0000 C   0  0  0  0  0  0  0  0  0  0  0  0
    7.0671   -0.6176    0.0000 C   0  0  0  0  0  0  0  0  0  0  0  0
    6.2011   -1.1176    0.0000 C   0  0  0  0  0  0  0  0  0  0  0  0
    7.0671    3.3824    0.0000 C   0  0  0  0  0  0  0  0  0  0  0  0
    6.2011   -2.1176    0.0000 C   0  0  0  0  0  0  0  0  0  0  0  0
    7.9332    3.8824    0.0000 C   0  0  0  0  0  0  0  0  0  0  0  0
    6.2011    3.8824    0.0000 C   0  0  0  0  0  0  0  0  0  0  0  0
    7.9332    4.8824    0.0000 C   0  0  0  0  0  0  0  0  0  0  0  0
    5.3351   -2.6176    0.0000 C   0  0  0  0  0  0  0  0  0  0  0  0
    6.2011    4.8824    0.0000 C   0  0  0  0  0  0  0  0  0  0  0  0
    7.0671    5.3824    0.0000 C   0  0  0  0  0  0  0  0  0  0  0  0
    9.7332    3.8616    0.0000 C   0  0  0  0  0  0  0  0  0  0  0  0
    9.7332    4.9032    0.0000 C   0  0  0  0  0  0  0  0  0  0  0  0
    4.4691   -4.1176    0.0000 C   0  0  0  0  0  0  0  0  0  0  0  0
    4.4691   -5.1176    0.0000 C   0  0  0  0  0  0  0  0  0  0  0  0
    3.6030   -3.6176    0.0000 C   0  0  0  0  0  0  0  0  0  0  0  0
    3.6030   -5.6176    0.0000 C   0  0  0  0  0  0  0  0  0  0  0  0
    2.7370   -4.1176    0.0000 C   0  0  0  0  0  0  0  0  0  0  0  0
    3.3938   -6.5894    0.0000 C   0  0  0  0  0  0  0  0  0  0  0  0
    2.4051   -6.6924    0.0000 C   0  0  0  0  0  0  0  0  0  0  0  0
    8.1452    0.2998    0.0000 H   0  0  0  0  0  0  0  0  0  0  0  0
    8.5438    0.9901    0.0000 H   0  0  0  0  0  0  0  0  0  0  0  0
    5.5905    0.9901    0.0000 H   0  0  0  0  0  0  0  0  0  0  0  0
    5.9891    0.2998    0.0000 H   0  0  0  0  0  0  0  0  0  0  0  0
    8.5438    1.7748    0.0000 H   0  0  0  0  0  0  0  0  0  0  0  0
    8.1452    2.4650    0.0000 H   0  0  0  0  0  0  0  0  0  0  0  0
    5.9891    2.4650    0.0000 H   0  0  0  0  0  0  0  0  0  0  0  0
    5.5905    1.7748    0.0000 H   0  0  0  0  0  0  0  0  0  0  0  0
    7.2792   -1.2002    0.0000 H   0  0  0  0  0  0  0  0  0  0  0  0
    7.6777   -0.5099    0.0000 H   0  0  0  0  0  0  0  0  0  0  0  0
    5.9891   -0.5350    0.0000 H   0  0  0  0  0  0  0  0  0  0  0  0
    5.5905   -1.2252    0.0000 H   0  0  0  0  0  0  0  0  0  0  0  0
    6.4132   -2.7002    0.0000 H   0  0  0  0  0  0  0  0  0  0  0  0
    6.8117   -2.0099    0.0000 H   0  0  0  0  0  0  0  0  0  0  0  0
    5.6642    3.5724    0.0000 H   0  0  0  0  0  0  0  0  0  0  0  0
    5.1230   -2.0350    0.0000 H   0  0  0  0  0  0  0  0  0  0  0  0
    4.7245   -2.7252    0.0000 H   0  0  0  0  0  0  0  0  0  0  0  0
    5.6642    5.1924    0.0000 H   0  0  0  0  0  0  0  0  0  0  0  0
    9.9422    3.2779    0.0000 H   0  0  0  0  0  0  0  0  0  0  0  0
   10.3440    3.9677    0.0000 H   0  0  0  0  0  0  0  0  0  0  0  0
   10.3440    4.7972    0.0000 H   0  0  0  0  0  0  0  0  0  0  0  0
    9.9422    5.4869    0.0000 H   0  0  0  0  0  0  0  0  0  0  0  0
    6.5302    6.6924    0.0000 H   0  0  0  0  0  0  0  0  0  0  0  0
    5.0060   -5.4276    0.0000 H   0  0  0  0  0  0  0  0  0  0  0  0
    3.6030   -2.9976    0.0000 H   0  0  0  0  0  0  0  0  0  0  0  0
    2.2001   -3.8076    0.0000 H   0  0  0  0  0  0  0  0  0  0  0  0
    3.8079   -7.0508    0.0000 H   0  0  0  0  0  0  0  0  0  0  0  0
    2.0951   -7.2294    0.0000 H   0  0  0  0  0  0  0  0  0  0  0  0
  1 17  1  0  0  0  0
  1 23  1  0  0  0  0
  2 19  1  0  0  0  0
  2 24  1  0  0  0  0
  3 20  1  0  0  0  0
  3 25  1  0  0  0  0
  4 22  1  0  0  0  0
  4 54  1  0  0  0  0
  5  9  1  0  0  0  0
  5 10  1  0  0  0  0
  5 13  1  0  0  0  0
  6 11  1  0  0  0  0
  6 12  1  0  0  0  0
  6 15  1  0  0  0  0
  7  8  1  0  0  0  0
  7 28  1  0  0  0  0
  7 29  1  0  0  0  0
  8 31  2  0  0  0  0
  9 11  1  0  0  0  0
  9 32  1  0  0  0  0
  9 33  1  0  0  0  0
 10 12  1  0  0  0  0
 10 34  1  0  0  0  0
 10 35  1  0  0  0  0
 11 36  1  0  0  0  0
 11 37  1  0  0  0  0
 12 38  1  0  0  0  0
 12 39  1  0  0  0  0
 13 14  1  0  0  0  0
 13 40  1  0  0  0  0
 13 41  1  0  0  0  0
 14 16  1  0  0  0  0
 14 42  1  0  0  0  0
 14 43  1  0  0  0  0
 15 17  2  0  0  0  0
 15 18  1  0  0  0  0
 16 20  1  0  0  0  0
 16 44  1  0  0  0  0
 16 45  1  0  0  0  0
 17 19  1  0  0  0  0
 18 21  2  0  0  0  0
 18 46  1  0  0  0  0
 19 22  2  0  0  0  0
 20 47  1  0  0  0  0
 20 48  1  0  0  0  0
 21 22  1  0  0  0  0
 21 49  1  0  0  0  0
 23 24  1  0  0  0  0
 23 50  1  0  0  0  0
 23 51  1  0  0  0  0
 24 52  1  0  0  0  0
 24 53  1  0  0  0  0
 25 26  2  0  0  0  0
 25 27  1  0  0  0  0
 26 28  1  0  0  0  0
 26 55  1  0  0  0  0
 27 29  2  0  0  0  0
 27 56  1  0  0  0  0
 28 30  2  0  0  0  0
 29 57  1  0  0  0  0
 30 31  1  0  0  0  0
 30 58  1  0  0  0  0
 31 59  1  0  0  0  0
M  END
> <PUBCHEM_COMPOUND_CID>
137645830

> <PUBCHEM_COMPOUND_CANONICALIZED>
1

> <PUBCHEM_CACTVS_COMPLEXITY>
562

> <PUBCHEM_CACTVS_HBOND_ACCEPTOR>
7

> <PUBCHEM_CACTVS_HBOND_DONOR>
1

> <PUBCHEM_CACTVS_ROTATABLE_BOND>
7

> <PUBCHEM_CACTVS_SUBSKEYS>
AAADceB7uAAAAAAAAAAAAAAAAAAAAWAAAAA8WJEAAAAAAFiR8AAAHgAICAAACAzhlgY8xrMIFgCiATRnRACSjCAxoiAY2CA/7JgPZ+LG8duX/CvnyB3b+Aew8A8AAEAACgAAUAAAgAAUAACgAAAAAAAAAA==

> <PUBCHEM_IUPAC_OPENEYE_NAME>
8-[4-(4-pyrazolo[1,5-a]pyridin-5-yloxybutyl)piperazin-1-yl]-2,3-dihydro-1,4-benzodioxin-5-ol

> <PUBCHEM_IUPAC_CAS_NAME>
8-[4-[4-(5-pyrazolo[1,5-a]pyridinyloxy)butyl]-1-piperazinyl]-2,3-dihydro-1,4-benzodioxin-5-ol

> <PUBCHEM_IUPAC_NAME_MARKUP>
8-[4-(4-pyrazolo[1,5-a]pyridin-5-yloxybutyl)piperazin-1-yl]-2,3-dihydro-1,4-benzodioxin-5-ol

> <PUBCHEM_IUPAC_NAME>
8-[4-(4-pyrazolo[1,5-a]pyridin-5-yloxybutyl)piperazin-1-yl]-2,3-dihydro-1,4-benzodioxin-5-ol

> <PUBCHEM_IUPAC_SYSTEMATIC_NAME>
8-[4-(4-pyrazolo[1,5-a]pyridin-5-yloxybutyl)piperazin-1-yl]-2,3-dihydro-1,4-benzodioxin-5-ol

> <PUBCHEM_IUPAC_TRADITIONAL_NAME>
8-[4-(4-pyrazolo[1,5-a]pyridin-5-yloxybutyl)piperazino]-2,3-dihydro-1,4-benzodioxin-5-ol

> <PUBCHEM_IUPAC_INCHI>
InChI=1S/C23H28N4O4/c28-21-4-3-20(22-23(21)31-16-15-30-22)26-12-10-25(11-13-26)8-1-2-14-29-19-6-9-27-18(17-19)5-7-24-27/h3-7,9,17,28H,1-2,8,10-16H2

> <PUBCHEM_IUPAC_INCHIKEY>
ASSMUHYHXZFLKM-UHFFFAOYSA-N

> <PUBCHEM_XLOGP3_AA>
2.7

> <PUBCHEM_EXACT_MASS>
424.21105539

> <PUBCHEM_MOLECULAR_FORMULA>
C23H28N4O4

> <PUBCHEM_MOLECULAR_WEIGHT>
424.5

> <PUBCHEM_OPENEYE_CAN_SMILES>
C1CN(CCN1CCCCOC2=CC3=CC=NN3C=C2)C4=C5C(=C(C=C4)O)OCCO5

> <PUBCHEM_OPENEYE_ISO_SMILES>
C1CN(CCN1CCCCOC2=CC3=CC=NN3C=C2)C4=C5C(=C(C=C4)O)OCCO5

> <PUBCHEM_CACTVS_TPSA>
71.7

> <PUBCHEM_MONOISOTOPIC_WEIGHT>
424.21105539

> <PUBCHEM_TOTAL_CHARGE>
0

> <PUBCHEM_HEAVY_ATOM_COUNT>
31

> <PUBCHEM_ATOM_DEF_STEREO_COUNT>
0

> <PUBCHEM_ATOM_UDEF_STEREO_COUNT>
0

> <PUBCHEM_BOND_DEF_STEREO_COUNT>
0

> <PUBCHEM_BOND_UDEF_STEREO_COUNT>
0

> <PUBCHEM_ISOTOPIC_ATOM_COUNT>
0

> <PUBCHEM_COMPONENT_COUNT>
1

> <PUBCHEM_CACTVS_TAUTO_COUNT>
-1

> <PUBCHEM_COORDINATE_TYPE>
1
5
255

> <PUBCHEM_BONDANNOTATIONS>
15  17  8
15  18  8
17  19  8
18  21  8
19  22  8
21  22  8
25  26  8
25  27  8
26  28  8
27  29  8
28  30  8
30  31  8
7  28  8
7  29  8
7  8  8
8  31  8

$$$$
