90656846
  -OEChem-09292322352D

243249  0     1  0  0  0  0  0999 V2000
   21.7818   13.3211    0.0000 S   0  0  0  0  0  0  0  0  0  0  0  0
    8.1892   -9.0741    0.0000 O   0  0  0  0  0  0  0  0  0  0  0  0
    8.9128  -11.9287    0.0000 O   0  0  0  0  0  0  0  0  0  0  0  0
   27.4881   11.4670    0.0000 O   0  0  0  0  0  0  0  0  0  0  0  0
    7.4460   -8.4050    0.0000 O   0  0  0  0  0  0  0  0  0  0  0  0
    6.3147   -9.4287    0.0000 O   0  0  0  0  0  0  0  0  0  0  0  0
   28.0234   13.1143    0.0000 O   0  0  0  0  0  0  0  0  0  0  0  0
   27.6075   15.0706    0.0000 O   0  0  0  0  0  0  0  0  0  0  0  0
    5.4245   -5.4194    0.0000 O   0  0  0  0  0  0  0  0  0  0  0  0
   11.1308   -3.5653    0.0000 O   0  0  0  0  0  0  0  0  0  0  0  0
    2.7166  -10.4287    0.0000 O   0  0  0  0  0  0  0  0  0  0  0  0
    3.5827  -11.9287    0.0000 O   0  0  0  0  0  0  0  0  0  0  0  0
    6.9993   -2.1760    0.0000 O   0  0  0  0  0  0  0  0  0  0  0  0
   20.0217   12.0423    0.0000 O   0  0  0  0  0  0  0  0  0  0  0  0
   18.9339   15.3902    0.0000 O   0  0  0  0  0  0  0  0  0  0  0  0
    7.2072   -1.1978    0.0000 O   0  0  0  0  0  0  0  0  0  0  0  0
    7.8309    1.7366    0.0000 O   0  0  0  0  0  0  0  0  0  0  0  0
   16.4789    9.0995    0.0000 O   0  0  0  0  0  0  0  0  0  0  0  0
   13.4179    7.1943    0.0000 O   0  0  0  0  0  0  0  0  0  0  0  0
    9.9410    3.3328    0.0000 O   0  0  0  0  0  0  0  0  0  0  0  0
   11.3078    5.5981    0.0000 O   0  0  0  0  0  0  0  0  0  0  0  0
   24.2805    9.6675    0.0000 N   0  0  3  0  0  0  0  0  0  0  0  0
    9.8834   -9.4342    0.0000 N   0  0  0  0  0  0  0  0  0  0  0  0
   25.7939   11.1069    0.0000 N   0  0  0  0  0  0  0  0  0  0  0  0
    8.0468  -10.4287    0.0000 N   0  0  0  0  0  0  0  0  0  0  0  0
    8.6050   -7.1178    0.0000 N   0  0  0  0  0  0  0  0  0  0  0  0
    7.1187   -5.7795    0.0000 N   0  0  0  0  0  0  0  0  0  0  0  0
    5.3147  -10.9287    0.0000 N   0  0  0  0  0  0  0  0  0  0  0  0
    5.4487  -13.9287    0.0000 N   0  0  0  0  0  0  0  0  0  0  0  0
    5.8403   -3.4631    0.0000 N   0  0  0  0  0  0  0  0  0  0  0  0
    3.4782   -7.9342    0.0000 N   0  0  0  0  0  0  0  0  0  0  0  0
   19.2127   13.6301    0.0000 N   0  0  0  0  0  0  0  0  0  0  0  0
    2.0000   -8.5923    0.0000 N   0  0  0  0  0  0  0  0  0  0  0  0
    4.5827  -15.4287    0.0000 N   0  0  0  0  0  0  0  0  0  0  0  0
    6.3147  -15.4287    0.0000 N   0  0  0  0  0  0  0  0  0  0  0  0
    5.5130   -0.8377    0.0000 N   0  0  0  0  0  0  0  0  0  0  0  0
    2.6327   -1.6636    0.0000 N   0  0  0  0  0  0  0  0  0  0  0  0
    2.8019   -0.0545    0.0000 N   0  0  0  0  0  0  0  0  0  0  0  0
   14.7847    9.4596    0.0000 N   0  0  0  0  0  0  0  0  0  0  0  0
   25.2587    9.4596    0.0000 C   0  0  1  0  0  0  0  0  0  0  0  0
   25.3632    8.4651    0.0000 C   0  0  0  0  0  0  0  0  0  0  0  0
   24.4497    8.0584    0.0000 C   0  0  0  0  0  0  0  0  0  0  0  0
   23.7805    8.8015    0.0000 C   0  0  0  0  0  0  0  0  0  0  0  0
   26.0018   10.1287    0.0000 C   0  0  0  0  0  0  0  0  0  0  0  0
    9.7788  -10.4287    0.0000 C   0  0  1  0  0  0  0  0  0  0  0  0
   23.8738   10.5811    0.0000 C   0  0  0  0  0  0  0  0  0  0  0  0
   10.6924  -10.8355    0.0000 C   0  0  0  0  0  0  0  0  0  0  0  0
   11.3615  -10.0923    0.0000 C   0  0  0  0  0  0  0  0  0  0  0  0
   10.8615   -9.2263    0.0000 C   0  0  0  0  0  0  0  0  0  0  0  0
    9.1402   -8.7651    0.0000 C   0  0  0  0  0  0  0  0  0  0  0  0
    8.9128  -10.9287    0.0000 C   0  0  0  0  0  0  0  0  0  0  0  0
    9.3481   -7.7869    0.0000 C   0  0  2  0  0  0  0  0  0  0  0  0
   22.8793   10.6856    0.0000 C   0  0  0  0  0  0  0  0  0  0  0  0
   10.2992   -7.4779    0.0000 C   0  0  0  0  0  0  0  0  0  0  0  0
    7.1808  -10.9287    0.0000 C   0  0  1  0  0  0  0  0  0  0  0  0
   26.5371   11.7760    0.0000 C   0  0  0  0  0  0  0  0  0  0  0  0
    6.9108   -6.7577    0.0000 C   0  0  2  0  0  0  0  0  0  0  0  0
    7.1808  -11.9287    0.0000 C   0  0  0  0  0  0  0  0  0  0  0  0
    7.6539   -7.4268    0.0000 C   0  0  0  0  0  0  0  0  0  0  0  0
   22.2915    9.8766    0.0000 C   0  0  0  0  0  0  0  0  0  0  0  0
    5.9597   -7.0667    0.0000 C   0  0  2  0  0  0  0  0  0  0  0  0
   10.5071   -6.4998    0.0000 C   0  0  0  0  0  0  0  0  0  0  0  0
   26.3292   12.7542    0.0000 C   0  0  0  0  0  0  0  0  0  0  0  0
    6.3147  -10.4287    0.0000 C   0  0  0  0  0  0  0  0  0  0  0  0
    6.3147  -12.4287    0.0000 C   0  0  0  0  0  0  0  0  0  0  0  0
    5.2166   -6.3976    0.0000 C   0  0  0  0  0  0  0  0  0  0  0  0
    5.7518   -8.0448    0.0000 C   0  0  0  0  0  0  0  0  0  0  0  0
   25.3781   13.0632    0.0000 C   0  0  0  0  0  0  0  0  0  0  0  0
   27.0723   13.4233    0.0000 C   0  0  0  0  0  0  0  0  0  0  0  0
    9.7640   -5.8306    0.0000 C   0  0  0  0  0  0  0  0  0  0  0  0
   11.4581   -6.1908    0.0000 C   0  0  0  0  0  0  0  0  0  0  0  0
    6.3147  -13.4287    0.0000 C   0  0  0  0  0  0  0  0  0  0  0  0
   25.1702   14.0413    0.0000 C   0  0  0  0  0  0  0  0  0  0  0  0
    4.4487  -10.4287    0.0000 C   0  0  1  0  0  0  0  0  0  0  0  0
    4.2655   -6.7066    0.0000 C   0  0  0  0  0  0  0  0  0  0  0  0
   26.8644   14.4015    0.0000 C   0  0  0  0  0  0  0  0  0  0  0  0
    6.3755   -5.1104    0.0000 C   0  0  0  0  0  0  0  0  0  0  0  0
   25.9133   14.7105    0.0000 C   0  0  0  0  0  0  0  0  0  0  0  0
   24.2191   14.3504    0.0000 C   0  0  0  0  0  0  0  0  0  0  0  0
    9.9719   -4.8525    0.0000 C   0  0  0  0  0  0  0  0  0  0  0  0
   11.6661   -5.2126    0.0000 C   0  0  0  0  0  0  0  0  0  0  0  0
    6.5835   -4.1323    0.0000 C   0  0  2  0  0  0  0  0  0  0  0  0
    4.4487   -9.4287    0.0000 C   0  0  0  0  0  0  0  0  0  0  0  0
   10.9229   -4.5435    0.0000 C   0  0  0  0  0  0  0  0  0  0  0  0
   23.4760   13.6812    0.0000 C   0  0  0  0  0  0  0  0  0  0  0  0
    3.5827  -10.9287    0.0000 C   0  0  0  0  0  0  0  0  0  0  0  0
   22.5249   13.9902    0.0000 C   0  0  0  0  0  0  0  0  0  0  0  0
    7.5345   -3.8232    0.0000 C   0  0  0  0  0  0  0  0  0  0  0  0
    3.5827   -8.9287    0.0000 C   0  0  0  0  0  0  0  0  0  0  0  0
   28.7665   13.7834    0.0000 C   0  0  0  0  0  0  0  0  0  0  0  0
   20.8307   13.6301    0.0000 C   0  0  3  0  0  0  0  0  0  0  0  0
    5.4487  -14.9287    0.0000 C   0  0  0  0  0  0  0  0  0  0  0  0
    6.0482   -2.4850    0.0000 C   0  0  0  0  0  0  0  0  0  0  0  0
   20.5217   14.5812    0.0000 C   0  0  0  0  0  0  0  0  0  0  0  0
   27.3996   16.0487    0.0000 C   0  0  0  0  0  0  0  0  0  0  0  0
    5.3051   -1.8158    0.0000 C   0  0  2  0  0  0  0  0  0  0  0  0
   20.0217   13.0423    0.0000 C   0  0  0  0  0  0  0  0  0  0  0  0
    2.6691   -9.3355    0.0000 C   0  0  0  0  0  0  0  0  0  0  0  0
   19.5217   14.5812    0.0000 C   0  0  0  0  0  0  0  0  0  0  0  0
   18.2616   13.3211    0.0000 C   0  0  0  0  0  0  0  0  0  0  0  0
   18.0537   12.3430    0.0000 C   0  0  0  0  0  0  0  0  0  0  0  0
    4.3540   -2.1249    0.0000 C   0  0  0  0  0  0  0  0  0  0  0  0
    2.5000   -7.7263    0.0000 C   0  0  0  0  0  0  0  0  0  0  0  0
   17.1027   12.0339    0.0000 C   0  0  0  0  0  0  0  0  0  0  0  0
   16.8948   11.0558    0.0000 C   0  0  0  0  0  0  0  0  0  0  0  0
    3.6109   -1.4557    0.0000 C   0  0  0  0  0  0  0  0  0  0  0  0
    6.4640   -0.5287    0.0000 C   0  0  0  0  0  0  0  0  0  0  0  0
   15.9437   10.7468    0.0000 C   0  0  0  0  0  0  0  0  0  0  0  0
    3.7154   -0.4612    0.0000 C   0  0  0  0  0  0  0  0  0  0  0  0
    6.6720    0.4495    0.0000 C   0  0  0  0  0  0  0  0  0  0  0  0
   15.7358    9.7686    0.0000 C   0  0  0  0  0  0  0  0  0  0  0  0
    2.1327   -0.7976    0.0000 C   0  0  0  0  0  0  0  0  0  0  0  0
    7.6230    0.7585    0.0000 C   0  0  0  0  0  0  0  0  0  0  0  0
   14.5768    8.4815    0.0000 C   0  0  0  0  0  0  0  0  0  0  0  0
   13.6258    8.1724    0.0000 C   0  0  0  0  0  0  0  0  0  0  0  0
    8.7820    2.0456    0.0000 C   0  0  0  0  0  0  0  0  0  0  0  0
    8.9899    3.0238    0.0000 C   0  0  0  0  0  0  0  0  0  0  0  0
   12.4668    6.8853    0.0000 C   0  0  0  0  0  0  0  0  0  0  0  0
   12.2589    5.9071    0.0000 C   0  0  0  0  0  0  0  0  0  0  0  0
   10.1489    4.3110    0.0000 C   0  0  0  0  0  0  0  0  0  0  0  0
   11.0999    4.6200    0.0000 C   0  0  0  0  0  0  0  0  0  0  0  0
   25.0982   10.0585    0.0000 H   0  0  0  0  0  0  0  0  0  0  0  0
   25.5548    7.8754    0.0000 H   0  0  0  0  0  0  0  0  0  0  0  0
   25.9697    8.5940    0.0000 H   0  0  0  0  0  0  0  0  0  0  0  0
   23.9481    7.6939    0.0000 H   0  0  0  0  0  0  0  0  0  0  0  0
   24.7597    7.5214    0.0000 H   0  0  0  0  0  0  0  0  0  0  0  0
   23.2790    9.1659    0.0000 H   0  0  0  0  0  0  0  0  0  0  0  0
   23.3657    8.3408    0.0000 H   0  0  0  0  0  0  0  0  0  0  0  0
   26.3304    9.6030    0.0000 H   0  0  0  0  0  0  0  0  0  0  0  0
   26.5767   10.3610    0.0000 H   0  0  0  0  0  0  0  0  0  0  0  0
    9.2588  -10.0911    0.0000 H   0  0  0  0  0  0  0  0  0  0  0  0
   24.4754   10.7311    0.0000 H   0  0  0  0  0  0  0  0  0  0  0  0
   23.8306   11.1996    0.0000 H   0  0  0  0  0  0  0  0  0  0  0  0
   10.3824  -11.3724    0.0000 H   0  0  0  0  0  0  0  0  0  0  0  0
   11.1940  -11.1999    0.0000 H   0  0  0  0  0  0  0  0  0  0  0  0
   11.7764  -10.5531    0.0000 H   0  0  0  0  0  0  0  0  0  0  0  0
   11.8631   -9.7279    0.0000 H   0  0  0  0  0  0  0  0  0  0  0  0
   11.4279   -8.9741    0.0000 H   0  0  0  0  0  0  0  0  0  0  0  0
   10.6699   -8.6366    0.0000 H   0  0  0  0  0  0  0  0  0  0  0  0
   25.2043   11.2985    0.0000 H   0  0  0  0  0  0  0  0  0  0  0  0
    9.4770   -7.1805    0.0000 H   0  0  0  0  0  0  0  0  0  0  0  0
   22.6271   11.2520    0.0000 H   0  0  0  0  0  0  0  0  0  0  0  0
    8.0468   -9.8087    0.0000 H   0  0  0  0  0  0  0  0  0  0  0  0
   10.3855   -8.0919    0.0000 H   0  0  0  0  0  0  0  0  0  0  0  0
   10.9188   -7.4996    0.0000 H   0  0  0  0  0  0  0  0  0  0  0  0
    7.7177  -11.2387    0.0000 H   0  0  0  0  0  0  0  0  0  0  0  0
    8.7339   -6.5114    0.0000 H   0  0  0  0  0  0  0  0  0  0  0  0
    6.4500   -6.3428    0.0000 H   0  0  0  0  0  0  0  0  0  0  0  0
    7.3928  -12.5113    0.0000 H   0  0  0  0  0  0  0  0  0  0  0  0
    7.7913  -11.8211    0.0000 H   0  0  0  0  0  0  0  0  0  0  0  0
    5.3701   -7.2583    0.0000 H   0  0  0  0  0  0  0  0  0  0  0  0
   21.6749    9.9414    0.0000 H   0  0  0  0  0  0  0  0  0  0  0  0
   22.5437    9.3102    0.0000 H   0  0  0  0  0  0  0  0  0  0  0  0
    6.1027  -11.8461    0.0000 H   0  0  0  0  0  0  0  0  0  0  0  0
    5.7042  -12.5364    0.0000 H   0  0  0  0  0  0  0  0  0  0  0  0
    5.7051   -6.0159    0.0000 H   0  0  0  0  0  0  0  0  0  0  0  0
    4.9255   -5.8501    0.0000 H   0  0  0  0  0  0  0  0  0  0  0  0
    7.7083   -5.5880    0.0000 H   0  0  0  0  0  0  0  0  0  0  0  0
    5.1454   -7.9159    0.0000 H   0  0  0  0  0  0  0  0  0  0  0  0
    5.6229   -8.6513    0.0000 H   0  0  0  0  0  0  0  0  0  0  0  0
    6.3583   -8.1738    0.0000 H   0  0  0  0  0  0  0  0  0  0  0  0
   24.9174   12.6483    0.0000 H   0  0  0  0  0  0  0  0  0  0  0  0
    9.1743   -6.0222    0.0000 H   0  0  0  0  0  0  0  0  0  0  0  0
   11.9189   -6.6056    0.0000 H   0  0  0  0  0  0  0  0  0  0  0  0
    5.8517  -11.2387    0.0000 H   0  0  0  0  0  0  0  0  0  0  0  0
    6.5268  -14.0113    0.0000 H   0  0  0  0  0  0  0  0  0  0  0  0
    6.9253  -13.3211    0.0000 H   0  0  0  0  0  0  0  0  0  0  0  0
    4.4487  -11.0487    0.0000 H   0  0  0  0  0  0  0  0  0  0  0  0
    4.0739   -6.1169    0.0000 H   0  0  0  0  0  0  0  0  0  0  0  0
    3.6759   -6.8982    0.0000 H   0  0  0  0  0  0  0  0  0  0  0  0
    4.4571   -7.2962    0.0000 H   0  0  0  0  0  0  0  0  0  0  0  0
   25.7844   15.3169    0.0000 H   0  0  0  0  0  0  0  0  0  0  0  0
   24.5102   14.8978    0.0000 H   0  0  0  0  0  0  0  0  0  0  0  0
   23.7306   14.7321    0.0000 H   0  0  0  0  0  0  0  0  0  0  0  0
    9.5111   -4.4376    0.0000 H   0  0  0  0  0  0  0  0  0  0  0  0
   12.2557   -5.0210    0.0000 H   0  0  0  0  0  0  0  0  0  0  0  0
    5.9938   -4.3238    0.0000 H   0  0  0  0  0  0  0  0  0  0  0  0
    5.0593   -9.5364    0.0000 H   0  0  0  0  0  0  0  0  0  0  0  0
    4.6608   -8.8461    0.0000 H   0  0  0  0  0  0  0  0  0  0  0  0
   23.1849   13.1338    0.0000 H   0  0  0  0  0  0  0  0  0  0  0  0
   23.9646   13.2995    0.0000 H   0  0  0  0  0  0  0  0  0  0  0  0
   22.8160   14.5377    0.0000 H   0  0  0  0  0  0  0  0  0  0  0  0
   22.0364   14.3719    0.0000 H   0  0  0  0  0  0  0  0  0  0  0  0
    7.7261   -4.4129    0.0000 H   0  0  0  0  0  0  0  0  0  0  0  0
    8.1242   -3.6316    0.0000 H   0  0  0  0  0  0  0  0  0  0  0  0
    7.3429   -3.2336    0.0000 H   0  0  0  0  0  0  0  0  0  0  0  0
    5.2507   -3.6547    0.0000 H   0  0  0  0  0  0  0  0  0  0  0  0
   29.1814   13.3227    0.0000 H   0  0  0  0  0  0  0  0  0  0  0  0
   29.2273   14.1983    0.0000 H   0  0  0  0  0  0  0  0  0  0  0  0
   28.3516   14.2442    0.0000 H   0  0  0  0  0  0  0  0  0  0  0  0
   21.2691   14.0685    0.0000 H   0  0  0  0  0  0  0  0  0  0  0  0
   11.7205   -3.3737    0.0000 H   0  0  0  0  0  0  0  0  0  0  0  0
   21.1282   14.7101    0.0000 H   0  0  0  0  0  0  0  0  0  0  0  0
   20.4569   15.1978    0.0000 H   0  0  0  0  0  0  0  0  0  0  0  0
   28.0061   16.1776    0.0000 H   0  0  0  0  0  0  0  0  0  0  0  0
   27.2707   16.6552    0.0000 H   0  0  0  0  0  0  0  0  0  0  0  0
   26.7932   15.9198    0.0000 H   0  0  0  0  0  0  0  0  0  0  0  0
    3.9389   -7.5193    0.0000 H   0  0  0  0  0  0  0  0  0  0  0  0
    4.8443   -1.4010    0.0000 H   0  0  0  0  0  0  0  0  0  0  0  0
    2.5402   -9.9419    0.0000 H   0  0  0  0  0  0  0  0  0  0  0  0
    2.1797  -10.7387    0.0000 H   0  0  0  0  0  0  0  0  0  0  0  0
   18.1754   13.9351    0.0000 H   0  0  0  0  0  0  0  0  0  0  0  0
   17.6420   13.3427    0.0000 H   0  0  0  0  0  0  0  0  0  0  0  0
   18.1400   11.7290    0.0000 H   0  0  0  0  0  0  0  0  0  0  0  0
   18.6734   12.3213    0.0000 H   0  0  0  0  0  0  0  0  0  0  0  0
    3.8654   -2.5066    0.0000 H   0  0  0  0  0  0  0  0  0  0  0  0
    4.6451   -2.6723    0.0000 H   0  0  0  0  0  0  0  0  0  0  0  0
    2.2478   -7.1599    0.0000 H   0  0  0  0  0  0  0  0  0  0  0  0
   17.0164   12.6479    0.0000 H   0  0  0  0  0  0  0  0  0  0  0  0
   16.4830   12.0556    0.0000 H   0  0  0  0  0  0  0  0  0  0  0  0
    4.5827  -16.0487    0.0000 H   0  0  0  0  0  0  0  0  0  0  0  0
    4.0457  -15.1187    0.0000 H   0  0  0  0  0  0  0  0  0  0  0  0
    6.3147  -16.0487    0.0000 H   0  0  0  0  0  0  0  0  0  0  0  0
    6.8517  -15.1187    0.0000 H   0  0  0  0  0  0  0  0  0  0  0  0
    5.0522   -0.4228    0.0000 H   0  0  0  0  0  0  0  0  0  0  0  0
   16.9810   10.4418    0.0000 H   0  0  0  0  0  0  0  0  0  0  0  0
   17.5144   11.0342    0.0000 H   0  0  0  0  0  0  0  0  0  0  0  0
   15.8574   11.3607    0.0000 H   0  0  0  0  0  0  0  0  0  0  0  0
   15.3241   10.7684    0.0000 H   0  0  0  0  0  0  0  0  0  0  0  0
    2.3806   -2.2300    0.0000 H   0  0  0  0  0  0  0  0  0  0  0  0
    4.2523   -0.1512    0.0000 H   0  0  0  0  0  0  0  0  0  0  0  0
    6.5857    1.0634    0.0000 H   0  0  0  0  0  0  0  0  0  0  0  0
    6.0523    0.4711    0.0000 H   0  0  0  0  0  0  0  0  0  0  0  0
    1.5161   -0.7328    0.0000 H   0  0  0  0  0  0  0  0  0  0  0  0
    7.7093    0.1445    0.0000 H   0  0  0  0  0  0  0  0  0  0  0  0
    8.2426    0.7368    0.0000 H   0  0  0  0  0  0  0  0  0  0  0  0
   14.3240    9.8745    0.0000 H   0  0  0  0  0  0  0  0  0  0  0  0
   14.6631    7.8675    0.0000 H   0  0  0  0  0  0  0  0  0  0  0  0
   15.1964    8.4598    0.0000 H   0  0  0  0  0  0  0  0  0  0  0  0
   13.5395    8.7864    0.0000 H   0  0  0  0  0  0  0  0  0  0  0  0
   13.0061    8.1941    0.0000 H   0  0  0  0  0  0  0  0  0  0  0  0
    8.8683    1.4317    0.0000 H   0  0  0  0  0  0  0  0  0  0  0  0
    9.4016    2.0240    0.0000 H   0  0  0  0  0  0  0  0  0  0  0  0
    8.9036    3.6378    0.0000 H   0  0  0  0  0  0  0  0  0  0  0  0
    8.3703    3.0454    0.0000 H   0  0  0  0  0  0  0  0  0  0  0  0
   12.3805    7.4992    0.0000 H   0  0  0  0  0  0  0  0  0  0  0  0
   11.8472    6.9069    0.0000 H   0  0  0  0  0  0  0  0  0  0  0  0
   12.3452    5.2932    0.0000 H   0  0  0  0  0  0  0  0  0  0  0  0
   12.8785    5.8855    0.0000 H   0  0  0  0  0  0  0  0  0  0  0  0
   10.0626    4.9249    0.0000 H   0  0  0  0  0  0  0  0  0  0  0  0
    9.5292    4.3326    0.0000 H   0  0  0  0  0  0  0  0  0  0  0  0
   11.1862    4.0060    0.0000 H   0  0  0  0  0  0  0  0  0  0  0  0
   11.7195    4.5983    0.0000 H   0  0  0  0  0  0  0  0  0  0  0  0
  1 87  1  0  0  0  0
  1 91  1  0  0  0  0
  2 50  2  0  0  0  0
  3 51  2  0  0  0  0
  4 56  2  0  0  0  0
  5 59  2  0  0  0  0
  6 64  2  0  0  0  0
  7 69  1  0  0  0  0
  7 90  1  0  0  0  0
  8 76  1  0  0  0  0
  8 95  1  0  0  0  0
  9 77  2  0  0  0  0
 10 84  1  0  0  0  0
 10192  1  0  0  0  0
 11 86  1  0  0  0  0
 11201  1  0  0  0  0
 12 86  2  0  0  0  0
 13 93  2  0  0  0  0
 14 97  2  0  0  0  0
 15 99  2  0  0  0  0
 16107  2  0  0  0  0
 17113  1  0  0  0  0
 17116  1  0  0  0  0
 18111  2  0  0  0  0
 19115  1  0  0  0  0
 19118  1  0  0  0  0
 20117  1  0  0  0  0
 20120  1  0  0  0  0
 21119  1  0  0  0  0
 21121  1  0  0  0  0
 22 40  1  0  0  0  0
 22 43  1  0  0  0  0
 22 46  1  0  0  0  0
 23 45  1  0  0  0  0
 23 49  1  0  0  0  0
 23 50  1  0  0  0  0
 24 44  1  0  0  0  0
 24 56  1  0  0  0  0
 24140  1  0  0  0  0
 25 51  1  0  0  0  0
 55 25  1  1  0  0  0
 25143  1  0  0  0  0
 52 26  1  1  0  0  0
 26 59  1  0  0  0  0
 26147  1  0  0  0  0
 57 27  1  6  0  0  0
 27 77  1  0  0  0  0
 27158  1  0  0  0  0
 28 64  1  0  0  0  0
 74 28  1  6  0  0  0
 28165  1  0  0  0  0
 29 72  1  0  0  0  0
 29 92  2  0  0  0  0
 82 30  1  1  0  0  0
 30 93  1  0  0  0  0
 30187  1  0  0  0  0
 31 89  1  0  0  0  0
 31103  1  0  0  0  0
 31198  1  0  0  0  0
 32 97  1  0  0  0  0
 32 99  1  0  0  0  0
 32100  1  0  0  0  0
 33 98  1  0  0  0  0
 33103  2  0  0  0  0
 34 92  1  0  0  0  0
 34211  1  0  0  0  0
 34212  1  0  0  0  0
 35 92  1  0  0  0  0
 35213  1  0  0  0  0
 35214  1  0  0  0  0
 96 36  1  6  0  0  0
 36107  1  0  0  0  0
 36215  1  0  0  0  0
 37106  1  0  0  0  0
 37112  1  0  0  0  0
 37220  1  0  0  0  0
 38109  1  0  0  0  0
 38112  2  0  0  0  0
 39111  1  0  0  0  0
 39114  1  0  0  0  0
 39227  1  0  0  0  0
 40 41  1  0  0  0  0
 40 44  1  6  0  0  0
 40122  1  0  0  0  0
 41 42  1  0  0  0  0
 41123  1  0  0  0  0
 41124  1  0  0  0  0
 42 43  1  0  0  0  0
 42125  1  0  0  0  0
 42126  1  0  0  0  0
 43127  1  0  0  0  0
 43128  1  0  0  0  0
 44129  1  0  0  0  0
 44130  1  0  0  0  0
 45 47  1  0  0  0  0
 45 51  1  1  0  0  0
 45131  1  0  0  0  0
 46 53  1  0  0  0  0
 46132  1  0  0  0  0
 46133  1  0  0  0  0
 47 48  1  0  0  0  0
 47134  1  0  0  0  0
 47135  1  0  0  0  0
 48 49  1  0  0  0  0
 48136  1  0  0  0  0
 48137  1  0  0  0  0
 49138  1  0  0  0  0
 49139  1  0  0  0  0
 50 52  1  0  0  0  0
 52 54  1  0  0  0  0
 52141  1  0  0  0  0
 53 60  2  0  0  0  0
 53142  1  0  0  0  0
 54 62  1  0  0  0  0
 54144  1  0  0  0  0
 54145  1  0  0  0  0
 55 58  1  0  0  0  0
 55 64  1  0  0  0  0
 55146  1  0  0  0  0
 56 63  1  0  0  0  0
 57 59  1  0  0  0  0
 57 61  1  0  0  0  0
 57148  1  0  0  0  0
 58 65  1  0  0  0  0
 58149  1  0  0  0  0
 58150  1  0  0  0  0
 60152  1  0  0  0  0
 60153  1  0  0  0  0
 61 66  1  0  0  0  0
 61 67  1  1  0  0  0
 61151  1  0  0  0  0
 62 70  2  0  0  0  0
 62 71  1  0  0  0  0
 63 68  1  0  0  0  0
 63 69  2  0  0  0  0
 65 72  1  0  0  0  0
 65154  1  0  0  0  0
 65155  1  0  0  0  0
 66 75  1  0  0  0  0
 66156  1  0  0  0  0
 66157  1  0  0  0  0
 67159  1  0  0  0  0
 67160  1  0  0  0  0
 67161  1  0  0  0  0
 68 73  2  0  0  0  0
 68162  1  0  0  0  0
 69 76  1  0  0  0  0
 70 80  1  0  0  0  0
 70163  1  0  0  0  0
 71 81  2  0  0  0  0
 71164  1  0  0  0  0
 72166  1  0  0  0  0
 72167  1  0  0  0  0
 73 78  1  0  0  0  0
 73 79  1  0  0  0  0
 74 83  1  0  0  0  0
 74 86  1  0  0  0  0
 74168  1  0  0  0  0
 75169  1  0  0  0  0
 75170  1  0  0  0  0
 75171  1  0  0  0  0
 76 78  2  0  0  0  0
 77 82  1  0  0  0  0
 78172  1  0  0  0  0
 79 85  1  0  0  0  0
 79173  1  0  0  0  0
 79174  1  0  0  0  0
 80 84  2  0  0  0  0
 80175  1  0  0  0  0
 81 84  1  0  0  0  0
 81176  1  0  0  0  0
 82 88  1  0  0  0  0
 82177  1  0  0  0  0
 83 89  1  0  0  0  0
 83178  1  0  0  0  0
 83179  1  0  0  0  0
 85 87  1  0  0  0  0
 85180  1  0  0  0  0
 85181  1  0  0  0  0
 87182  1  0  0  0  0
 87183  1  0  0  0  0
 88184  1  0  0  0  0
 88185  1  0  0  0  0
 88186  1  0  0  0  0
 89 98  2  0  0  0  0
 90188  1  0  0  0  0
 90189  1  0  0  0  0
 90190  1  0  0  0  0
 91 94  1  0  0  0  0
 91 97  1  0  0  0  0
 91191  1  0  0  0  0
 93 96  1  0  0  0  0
 94 99  1  0  0  0  0
 94193  1  0  0  0  0
 94194  1  0  0  0  0
 95195  1  0  0  0  0
 95196  1  0  0  0  0
 95197  1  0  0  0  0
 96102  1  0  0  0  0
 96199  1  0  0  0  0
 98200  1  0  0  0  0
100101  1  0  0  0  0
100202  1  0  0  0  0
100203  1  0  0  0  0
101104  1  0  0  0  0
101204  1  0  0  0  0
101205  1  0  0  0  0
102106  1  0  0  0  0
102206  1  0  0  0  0
102207  1  0  0  0  0
103208  1  0  0  0  0
104105  1  0  0  0  0
104209  1  0  0  0  0
104210  1  0  0  0  0
105108  1  0  0  0  0
105216  1  0  0  0  0
105217  1  0  0  0  0
106109  2  0  0  0  0
107110  1  0  0  0  0
108111  1  0  0  0  0
108218  1  0  0  0  0
108219  1  0  0  0  0
109221  1  0  0  0  0
110113  1  0  0  0  0
110222  1  0  0  0  0
110223  1  0  0  0  0
112224  1  0  0  0  0
113225  1  0  0  0  0
113226  1  0  0  0  0
114115  1  0  0  0  0
114228  1  0  0  0  0
114229  1  0  0  0  0
115230  1  0  0  0  0
115231  1  0  0  0  0
116117  1  0  0  0  0
116232  1  0  0  0  0
116233  1  0  0  0  0
117234  1  0  0  0  0
117235  1  0  0  0  0
118119  1  0  0  0  0
118236  1  0  0  0  0
118237  1  0  0  0  0
119238  1  0  0  0  0
119239  1  0  0  0  0
120121  1  0  0  0  0
120240  1  0  0  0  0
120241  1  0  0  0  0
121242  1  0  0  0  0
121243  1  0  0  0  0
M  END
> <PUBCHEM_COMPOUND_CID>
90656846

> <PUBCHEM_COMPOUND_CANONICALIZED>
1

> <PUBCHEM_CACTVS_COMPLEXITY>
3310

> <PUBCHEM_CACTVS_HBOND_ACCEPTOR>
25

> <PUBCHEM_CACTVS_HBOND_DONOR>
14

> <PUBCHEM_CACTVS_ROTATABLE_BOND>
58

> <PUBCHEM_CACTVS_SUBSKEYS>
AAADcfB//gBAAAAAAAAAAAAAAAAAAWLFixYwYAAAAAAAAAAB9AAAHgQQCAAADSzl3ga/npfJlgioAzX3fACCiC21MrAJ2YG+/MiPbjbm/TuXcWpu9jP6+ae/2fKOIAADAAAIQABAAAYAABCAAAAAAAAAAA==

> <PUBCHEM_IUPAC_OPENEYE_NAME>
(2S)-2-[[(2S)-2-[[(2S)-1-[(2S)-2-[[(2S,3S)-2-[[(2S)-2-[[(2S)-2-[3-[2-[2-[2-[2-[6-[3-[3-[3-[[(2S)-1-allylpyrrolidin-2-yl]methylcarbamoyl]-4,5-dimethoxy-phenyl]propylsulfanyl]-2,5-dioxo-pyrrolidin-1-yl]hexanoylamino]ethoxy]ethoxy]ethoxy]ethoxy]propanoylamino]-3-(1H-imidazol-5-yl)propanoyl]amino]propanoyl]amino]-3-methyl-pentanoyl]amino]-3-(4-hydroxyphenyl)propanoyl]pyrrolidine-2-carbonyl]amino]-5-guanidino-pentanoyl]amino]-3-(1H-imidazol-5-yl)propanoic acid

> <PUBCHEM_IUPAC_CAS_NAME>
(2S)-2-[[(2S)-5-(diaminomethylideneamino)-2-[[[(2S)-1-[(2S)-2-[[(2S,3S)-2-[[(2S)-2-[[(2S)-2-[[3-[2-[2-[2-[2-[[6-[3-[3-[3,4-dimethoxy-5-[oxo-[[(2S)-1-prop-2-enyl-2-pyrrolidinyl]methylamino]methyl]phenyl]propylthio]-2,5-dioxo-1-pyrrolidinyl]-1-oxohexyl]amino]ethoxy]ethoxy]ethoxy]ethoxy]-1-oxopropyl]amino]-3-(1H-imidazol-5-yl)-1-oxopropyl]amino]-1-oxopropyl]amino]-3-methyl-1-oxopentyl]amino]-3-(4-hydroxyphenyl)-1-oxopropyl]-2-pyrrolidinyl]-oxomethyl]amino]-1-oxopentyl]amino]-3-(1H-imidazol-5-yl)propanoic acid

> <PUBCHEM_IUPAC_NAME_MARKUP>
(2<I>S</I>)-2-[[(2<I>S</I>)-5-(diaminomethylideneamino)-2-[[(2<I>S</I>)-1-[(2<I>S</I>)-2-[[(2<I>S</I>,3<I>S</I>)-2-[[(2<I>S</I>)-2-[[(2<I>S</I>)-2-[3-[2-[2-[2-[2-[6-[3-[3-[3,4-dimethoxy-5-[[(2<I>S</I>)-1-prop-2-enylpyrrolidin-2-yl]methylcarbamoyl]phenyl]propylsulfanyl]-2,5-dioxopyrrolidin-1-yl]hexanoylamino]ethoxy]ethoxy]ethoxy]ethoxy]propanoylamino]-3-(1<I>H</I>-imidazol-5-yl)propanoyl]amino]propanoyl]amino]-3-methylpentanoyl]amino]-3-(4-hydroxyphenyl)propanoyl]pyrrolidine-2-carbonyl]amino]pentanoyl]amino]-3-(1<I>H</I>-imidazol-5-yl)propanoic acid

> <PUBCHEM_IUPAC_NAME>
(2S)-2-[[(2S)-5-(diaminomethylideneamino)-2-[[(2S)-1-[(2S)-2-[[(2S,3S)-2-[[(2S)-2-[[(2S)-2-[3-[2-[2-[2-[2-[6-[3-[3-[3,4-dimethoxy-5-[[(2S)-1-prop-2-enylpyrrolidin-2-yl]methylcarbamoyl]phenyl]propylsulfanyl]-2,5-dioxopyrrolidin-1-yl]hexanoylamino]ethoxy]ethoxy]ethoxy]ethoxy]propanoylamino]-3-(1H-imidazol-5-yl)propanoyl]amino]propanoyl]amino]-3-methylpentanoyl]amino]-3-(4-hydroxyphenyl)propanoyl]pyrrolidine-2-carbonyl]amino]pentanoyl]amino]-3-(1H-imidazol-5-yl)propanoic acid

> <PUBCHEM_IUPAC_SYSTEMATIC_NAME>
(2S)-2-[[(2S)-5-[bis(azanyl)methylideneamino]-2-[[(2S)-1-[(2S)-2-[[(2S,3S)-2-[[(2S)-2-[[(2S)-2-[3-[2-[2-[2-[2-[6-[3-[3-[3,4-dimethoxy-5-[[(2S)-1-prop-2-enylpyrrolidin-2-yl]methylcarbamoyl]phenyl]propylsulfanyl]-2,5-bis(oxidanylidene)pyrrolidin-1-yl]hexanoylamino]ethoxy]ethoxy]ethoxy]ethoxy]propanoylamino]-3-(1H-imidazol-5-yl)propanoyl]amino]propanoyl]amino]-3-methyl-pentanoyl]amino]-3-(4-hydroxyphenyl)propanoyl]pyrrolidin-2-yl]carbonylamino]pentanoyl]amino]-3-(1H-imidazol-5-yl)propanoic acid

> <PUBCHEM_IUPAC_TRADITIONAL_NAME>
(2S)-2-[[(2S)-2-[[(2S)-1-[(2S)-2-[[(2S,3S)-2-[[(2S)-2-[[(2S)-2-[3-[2-[2-[2-[2-[6-[3-[3-[3-[[(2S)-1-allylpyrrolidin-2-yl]methylcarbamoyl]-4,5-dimethoxy-phenyl]propylthio]-2,5-diketo-pyrrolidino]hexanoylamino]ethoxy]ethoxy]ethoxy]ethoxy]propanoylamino]-3-(1H-imidazol-5-yl)propanoyl]amino]propanoyl]amino]-3-methyl-pentanoyl]amino]-3-(4-hydroxyphenyl)propanoyl]prolyl]amino]-5-guanidino-pentanoyl]amino]-3-(1H-imidazol-5-yl)propionic acid

> <PUBCHEM_IUPAC_INCHI>
InChI=1S/C82H122N18O20S/c1-7-28-98-29-13-17-58(98)49-89-74(106)60-41-55(43-66(115-5)72(60)116-6)16-15-40-121-67-46-70(104)100(80(67)112)30-11-9-10-20-68(102)87-27-33-118-35-37-120-39-38-119-36-34-117-32-25-69(103)93-62(44-56-47-85-50-90-56)76(108)92-53(4)73(105)97-71(52(3)8-2)78(110)95-63(42-54-21-23-59(101)24-22-54)79(111)99-31-14-19-65(99)77(109)94-61(18-12-26-88-82(83)84)75(107)96-64(81(113)114)45-57-48-86-51-91-57/h7,21-24,41,43,47-48,50-53,58,61-65,67,71,101H,1,8-20,25-40,42,44-46,49H2,2-6H3,(H,85,90)(H,86,91)(H,87,102)(H,89,106)(H,92,108)(H,93,103)(H,94,109)(H,95,110)(H,96,107)(H,97,105)(H,113,114)(H4,83,84,88)/t52-,53-,58-,61-,62-,63-,64-,65-,67?,71-/m0/s1

> <PUBCHEM_IUPAC_INCHIKEY>
LPWQYVIMWOVNJE-BAXQJZDKSA-N

> <PUBCHEM_XLOGP3_AA>
-0.9

> <PUBCHEM_EXACT_MASS>
1710.88034953

> <PUBCHEM_MOLECULAR_FORMULA>
C82H122N18O20S

> <PUBCHEM_MOLECULAR_WEIGHT>
1712.0

> <PUBCHEM_OPENEYE_CAN_SMILES>
CCC(C)C(C(=O)NC(CC1=CC=C(C=C1)O)C(=O)N2CCCC2C(=O)NC(CCCN=C(N)N)C(=O)NC(CC3=CN=CN3)C(=O)O)NC(=O)C(C)NC(=O)C(CC4=CN=CN4)NC(=O)CCOCCOCCOCCOCCNC(=O)CCCCCN5C(=O)CC(C5=O)SCCCC6=CC(=C(C(=C6)OC)OC)C(=O)NCC7CCCN7CC=C

> <PUBCHEM_OPENEYE_ISO_SMILES>
CC[C@H](C)[C@@H](C(=O)N[C@@H](CC1=CC=C(C=C1)O)C(=O)N2CCC[C@H]2C(=O)N[C@@H](CCCN=C(N)N)C(=O)N[C@@H](CC3=CN=CN3)C(=O)O)NC(=O)[C@H](C)NC(=O)[C@H](CC4=CN=CN4)NC(=O)CCOCCOCCOCCOCCNC(=O)CCCCCN5C(=O)CC(C5=O)SCCCC6=CC(=C(C(=C6)OC)OC)C(=O)NC[C@@H]7CCCN7CC=C

> <PUBCHEM_CACTVS_TPSA>
554

> <PUBCHEM_MONOISOTOPIC_WEIGHT>
1710.88034953

> <PUBCHEM_TOTAL_CHARGE>
0

> <PUBCHEM_HEAVY_ATOM_COUNT>
121

> <PUBCHEM_ATOM_DEF_STEREO_COUNT>
9

> <PUBCHEM_ATOM_UDEF_STEREO_COUNT>
1

> <PUBCHEM_BOND_DEF_STEREO_COUNT>
0

> <PUBCHEM_BOND_UDEF_STEREO_COUNT>
0

> <PUBCHEM_ISOTOPIC_ATOM_COUNT>
0

> <PUBCHEM_COMPONENT_COUNT>
1

> <PUBCHEM_CACTVS_TAUTO_COUNT>
-1

> <PUBCHEM_COORDINATE_TYPE>
1
5
255

> <PUBCHEM_BONDANNOTATIONS>
91  1  3
106  109  8
55  25  5
52  26  5
57  27  6
74  28  6
82  30  5
31  103  8
31  89  8
33  103  8
33  98  8
96  36  6
37  106  8
37  112  8
38  109  8
38  112  8
40  44  6
45  51  5
61  67  5
62  70  8
62  71  8
63  68  8
63  69  8
68  73  8
69  76  8
70  80  8
71  81  8
73  78  8
76  78  8
80  84  8
81  84  8
89  98  8

$$$$
