46231994
  -OEChem-09292322292D

 53 57  0     1  0  0  0  0  0999 V2000
    2.1374    3.6447    0.0000 Cl  0  0  0  0  0  0  0  0  0  0  0  0
    2.5932    1.6478    0.0000 O   0  0  0  0  0  0  0  0  0  0  0  0
    7.0983    3.7265    0.0000 N   0  0  3  0  0  0  0  0  0  0  0  0
    8.1084   -4.5084    0.0000 N   0  0  0  0  0  0  0  0  0  0  0  0
    6.8758    2.7516    0.0000 C   0  0  2  0  0  0  0  0  0  0  0  0
    5.9748    2.3177    0.0000 C   0  0  2  0  0  0  0  0  0  0  0  0
    7.7453    2.1782    0.0000 C   0  0  0  0  0  0  0  0  0  0  0  0
    5.8810    1.2803    0.0000 C   0  0  0  0  0  0  0  0  0  0  0  0
    7.6755    1.1389    0.0000 C   0  0  0  0  0  0  0  0  0  0  0  0
    5.0738    2.7516    0.0000 C   0  0  0  0  0  0  0  0  0  0  0  0
    6.7370    0.6869    0.0000 C   0  0  0  0  0  0  0  0  0  0  0  0
    6.4748    4.5084    0.0000 C   0  0  0  0  0  0  0  0  0  0  0  0
    4.8513    3.7265    0.0000 C   0  0  0  0  0  0  0  0  0  0  0  0
    5.4748    4.5084    0.0000 C   0  0  0  0  0  0  0  0  0  0  0  0
    6.6643   -0.3956    0.0000 C   0  0  0  0  0  0  0  0  0  0  0  0
    8.0732    3.9490    0.0000 C   0  0  0  0  0  0  0  0  0  0  0  0
    4.8928    0.8323    0.0000 C   0  0  0  0  0  0  0  0  0  0  0  0
    4.3213    2.0314    0.0000 C   0  0  0  0  0  0  0  0  0  0  0  0
    3.8608    4.0488    0.0000 C   0  0  0  0  0  0  0  0  0  0  0  0
    5.6868   -0.8664    0.0000 C   0  0  0  0  0  0  0  0  0  0  0  0
    4.7950   -0.2483    0.0000 C   0  0  0  0  0  0  0  0  0  0  0  0
    3.3236    2.3308    0.0000 C   0  0  0  0  0  0  0  0  0  0  0  0
    7.4927   -0.9558    0.0000 C   0  0  0  0  0  0  0  0  0  0  0  0
    3.0918    3.3463    0.0000 C   0  0  0  0  0  0  0  0  0  0  0  0
    7.4218   -1.9532    0.0000 C   0  0  0  0  0  0  0  0  0  0  0  0
    8.3920   -0.5184    0.0000 C   0  0  0  0  0  0  0  0  0  0  0  0
    8.2502   -2.5134    0.0000 C   0  0  0  0  0  0  0  0  0  0  0  0
    9.2204   -1.0785    0.0000 C   0  0  0  0  0  0  0  0  0  0  0  0
    9.1495   -2.0760    0.0000 C   0  0  0  0  0  0  0  0  0  0  0  0
    8.1793   -3.5109    0.0000 C   0  0  0  0  0  0  0  0  0  0  0  0
    7.6646    3.0682    0.0000 H   0  0  0  0  0  0  0  0  0  0  0  0
    5.2354    1.8984    0.0000 H   0  0  0  0  0  0  0  0  0  0  0  0
    8.3477    2.0314    0.0000 H   0  0  0  0  0  0  0  0  0  0  0  0
    7.9931    2.7465    0.0000 H   0  0  0  0  0  0  0  0  0  0  0  0
    7.8450    0.5425    0.0000 H   0  0  0  0  0  0  0  0  0  0  0  0
    8.2921    1.2038    0.0000 H   0  0  0  0  0  0  0  0  0  0  0  0
    7.0334    4.7774    0.0000 H   0  0  0  0  0  0  0  0  0  0  0  0
    6.3368    5.1128    0.0000 H   0  0  0  0  0  0  0  0  0  0  0  0
    5.6128    5.1128    0.0000 H   0  0  0  0  0  0  0  0  0  0  0  0
    4.9162    4.7774    0.0000 H   0  0  0  0  0  0  0  0  0  0  0  0
    8.2112    3.3446    0.0000 H   0  0  0  0  0  0  0  0  0  0  0  0
    8.6777    4.0870    0.0000 H   0  0  0  0  0  0  0  0  0  0  0  0
    7.9352    4.5535    0.0000 H   0  0  0  0  0  0  0  0  0  0  0  0
    4.3873    1.1914    0.0000 H   0  0  0  0  0  0  0  0  0  0  0  0
    4.4662    1.4286    0.0000 H   0  0  0  0  0  0  0  0  0  0  0  0
    3.7298    4.6549    0.0000 H   0  0  0  0  0  0  0  0  0  0  0  0
    5.6380   -1.4845    0.0000 H   0  0  0  0  0  0  0  0  0  0  0  0
    4.2334   -0.5108    0.0000 H   0  0  0  0  0  0  0  0  0  0  0  0
    6.8643   -2.2244    0.0000 H   0  0  0  0  0  0  0  0  0  0  0  0
    8.4359    0.1000    0.0000 H   0  0  0  0  0  0  0  0  0  0  0  0
    2.0000    1.8282    0.0000 H   0  0  0  0  0  0  0  0  0  0  0  0
    9.7780   -0.8074    0.0000 H   0  0  0  0  0  0  0  0  0  0  0  0
    9.6631   -2.4233    0.0000 H   0  0  0  0  0  0  0  0  0  0  0  0
  1 24  1  0  0  0  0
  2 22  1  0  0  0  0
  2 51  1  0  0  0  0
  3  5  1  0  0  0  0
  3 12  1  0  0  0  0
  3 16  1  0  0  0  0
  4 30  3  0  0  0  0
  5  6  1  0  0  0  0
  5  7  1  0  0  0  0
  5 31  1  6  0  0  0
  6  8  1  0  0  0  0
  6 10  1  0  0  0  0
  6 32  1  1  0  0  0
  7  9  1  0  0  0  0
  7 33  1  0  0  0  0
  7 34  1  0  0  0  0
  8 11  1  0  0  0  0
  8 17  2  0  0  0  0
  9 11  1  0  0  0  0
  9 35  1  0  0  0  0
  9 36  1  0  0  0  0
 10 13  1  0  0  0  0
 10 18  2  0  0  0  0
 11 15  2  0  0  0  0
 12 14  1  0  0  0  0
 12 37  1  0  0  0  0
 12 38  1  0  0  0  0
 13 14  1  0  0  0  0
 13 19  2  0  0  0  0
 14 39  1  0  0  0  0
 14 40  1  0  0  0  0
 15 20  1  0  0  0  0
 15 23  1  0  0  0  0
 16 41  1  0  0  0  0
 16 42  1  0  0  0  0
 16 43  1  0  0  0  0
 17 21  1  0  0  0  0
 17 44  1  0  0  0  0
 18 22  1  0  0  0  0
 18 45  1  0  0  0  0
 19 24  1  0  0  0  0
 19 46  1  0  0  0  0
 20 21  2  0  0  0  0
 20 47  1  0  0  0  0
 21 48  1  0  0  0  0
 22 24  2  0  0  0  0
 23 25  1  0  0  0  0
 23 26  2  0  0  0  0
 25 27  2  0  0  0  0
 25 49  1  0  0  0  0
 26 28  1  0  0  0  0
 26 50  1  0  0  0  0
 27 29  1  0  0  0  0
 27 30  1  0  0  0  0
 28 29  2  0  0  0  0
 28 52  1  0  0  0  0
 29 53  1  0  0  0  0
M  END
> <PUBCHEM_COMPOUND_CID>
46231994

> <PUBCHEM_COMPOUND_CANONICALIZED>
1

> <PUBCHEM_CACTVS_COMPLEXITY>
661

> <PUBCHEM_CACTVS_HBOND_ACCEPTOR>
3

> <PUBCHEM_CACTVS_HBOND_DONOR>
1

> <PUBCHEM_CACTVS_ROTATABLE_BOND>
1

> <PUBCHEM_CACTVS_SUBSKEYS>
AAADceB7IAAEAAAAAAAAAAAAAAAAAAAAAAAwYMGABYAAAADBUAAAHgIACAAADS7BmCQyBoMAAgCQBiBCAAAiAAAgJUAIiAAOC4gIpiKDkxOEcAAkwBGImA+Q0PMOpAADIAAQCABYAAbAACQQAAAAAAAAAA==

> <PUBCHEM_IUPAC_OPENEYE_NAME>
3-[(6aS,13bS)-11-chloro-12-hydroxy-7-methyl-5,6,6a,8,9,13b-hexahydronaphtho[1,2-a][3]benzazepin-4-yl]benzonitrile

> <PUBCHEM_IUPAC_CAS_NAME>
3-[(6aS,13bS)-11-chloro-12-hydroxy-7-methyl-5,6,6a,8,9,13b-hexahydronaphtho[1,2-a][3]benzazepin-4-yl]benzonitrile

> <PUBCHEM_IUPAC_NAME_MARKUP>
3-[(6<I>a</I><I>S</I>,13<I>b</I><I>S</I>)-11-chloro-12-hydroxy-7-methyl-5,6,6<I>a</I>,8,9,13<I>b</I>-hexahydronaphtho[1,2-a][3]benzazepin-4-yl]benzonitrile

> <PUBCHEM_IUPAC_NAME>
3-[(6aS,13bS)-11-chloro-12-hydroxy-7-methyl-5,6,6a,8,9,13b-hexahydronaphtho[1,2-a][3]benzazepin-4-yl]benzonitrile

> <PUBCHEM_IUPAC_SYSTEMATIC_NAME>
3-[(6aS,13bS)-11-chloranyl-7-methyl-12-oxidanyl-5,6,6a,8,9,13b-hexahydronaphtho[1,2-a][3]benzazepin-4-yl]benzenecarbonitrile

> <PUBCHEM_IUPAC_TRADITIONAL_NAME>
3-[(6aS,13bS)-11-chloro-12-hydroxy-7-methyl-5,6,6a,8,9,13b-hexahydronaphtho[1,2-a][3]benzazepin-4-yl]benzonitrile

> <PUBCHEM_IUPAC_INCHI>
InChI=1S/C26H23ClN2O/c1-29-11-10-18-13-23(27)25(30)14-22(18)26-21-7-3-6-19(20(21)8-9-24(26)29)17-5-2-4-16(12-17)15-28/h2-7,12-14,24,26,30H,8-11H2,1H3/t24-,26+/m0/s1

> <PUBCHEM_IUPAC_INCHIKEY>
ALORGORVZSRMKI-AZGAKELHSA-N

> <PUBCHEM_XLOGP3_AA>
5.8

> <PUBCHEM_EXACT_MASS>
414.1498911

> <PUBCHEM_MOLECULAR_FORMULA>
C26H23ClN2O

> <PUBCHEM_MOLECULAR_WEIGHT>
414.9

> <PUBCHEM_OPENEYE_CAN_SMILES>
CN1CCC2=CC(=C(C=C2C3C1CCC4=C(C=CC=C34)C5=CC=CC(=C5)C#N)O)Cl

> <PUBCHEM_OPENEYE_ISO_SMILES>
CN1CCC2=CC(=C(C=C2[C@@H]3[C@@H]1CCC4=C(C=CC=C34)C5=CC=CC(=C5)C#N)O)Cl

> <PUBCHEM_CACTVS_TPSA>
47.3

> <PUBCHEM_MONOISOTOPIC_WEIGHT>
414.1498911

> <PUBCHEM_TOTAL_CHARGE>
0

> <PUBCHEM_HEAVY_ATOM_COUNT>
30

> <PUBCHEM_ATOM_DEF_STEREO_COUNT>
2

> <PUBCHEM_ATOM_UDEF_STEREO_COUNT>
0

> <PUBCHEM_BOND_DEF_STEREO_COUNT>
0

> <PUBCHEM_BOND_UDEF_STEREO_COUNT>
0

> <PUBCHEM_ISOTOPIC_ATOM_COUNT>
0

> <PUBCHEM_COMPONENT_COUNT>
1

> <PUBCHEM_CACTVS_TAUTO_COUNT>
-1

> <PUBCHEM_COORDINATE_TYPE>
1
5
255

> <PUBCHEM_BONDANNOTATIONS>
10  13  8
10  18  8
11  15  8
13  19  8
15  20  8
17  21  8
18  22  8
19  24  8
20  21  8
22  24  8
23  25  8
23  26  8
25  27  8
26  28  8
27  29  8
28  29  8
5  31  6
6  32  5
8  11  8
8  17  8

$$$$
