44454166
  -OEChem-09292322492D

 75 80  0     1  0  0  0  0  0999 V2000
    6.2062    1.3069    0.0000 S   0  0  0  0  0  0  0  0  0  0  0  0
    4.4887   -6.7415    0.0000 O   0  0  0  0  0  0  0  0  0  0  0  0
    6.2062   -2.1572    0.0000 N   0  0  3  0  0  0  0  0  0  0  0  0
    3.0949   -5.9368    0.0000 N   0  0  0  0  0  0  0  0  0  0  0  0
    7.7008    2.2774    0.0000 N   0  0  0  0  0  0  0  0  0  0  0  0
    6.2995    3.0865    0.0000 N   0  0  0  0  0  0  0  0  0  0  0  0
    7.0426    3.7556    0.0000 N   0  0  0  0  0  0  0  0  0  0  0  0
    9.9651    6.0977    0.0000 N   0  0  0  0  0  0  0  0  0  0  0  0
    6.7062   -1.2912    0.0000 C   0  0  3  0  0  0  0  0  0  0  0  0
    6.7598   -2.9668    0.0000 C   0  0  0  0  0  0  0  0  0  0  0  0
    5.2283   -2.0826    0.0000 C   0  0  0  0  0  0  0  0  0  0  0  0
    6.4745   -3.9052    0.0000 C   0  0  0  0  0  0  0  0  0  0  0  0
    4.5583   -2.7989    0.0000 C   0  0  0  0  0  0  0  0  0  0  0  0
    5.5640   -4.2697    0.0000 C   0  0  0  0  0  0  0  0  0  0  0  0
    4.6979   -3.7697    0.0000 C   0  0  0  0  0  0  0  0  0  0  0  0
    6.2062   -0.4252    0.0000 C   0  0  0  0  0  0  0  0  0  0  0  0
    5.5640   -5.2697    0.0000 C   0  0  0  0  0  0  0  0  0  0  0  0
    7.7062   -1.2912    0.0000 C   0  0  0  0  0  0  0  0  0  0  0  0
    3.8319   -4.2697    0.0000 C   0  0  0  0  0  0  0  0  0  0  0  0
    4.6979   -5.7697    0.0000 C   0  0  0  0  0  0  0  0  0  0  0  0
    3.8319   -5.2697    0.0000 C   0  0  0  0  0  0  0  0  0  0  0  0
    6.7062    0.4409    0.0000 C   0  0  0  0  0  0  0  0  0  0  0  0
    6.4300   -5.7697    0.0000 C   0  0  0  0  0  0  0  0  0  0  0  0
    3.5000   -6.8445    0.0000 C   0  0  0  0  0  0  0  0  0  0  0  0
    3.0000   -7.7106    0.0000 C   0  0  0  0  0  0  0  0  0  0  0  0
    6.7062    2.1729    0.0000 C   0  0  0  0  0  0  0  0  0  0  0  0
    2.0000   -7.7106    0.0000 C   0  0  0  0  0  0  0  0  0  0  0  0
    7.9087    3.2556    0.0000 C   0  0  0  0  0  0  0  0  0  0  0  0
    8.8222    3.6623    0.0000 C   0  0  0  0  0  0  0  0  0  0  0  0
    8.3699    1.5343    0.0000 C   0  0  0  0  0  0  0  0  0  0  0  0
    8.9267    4.6569    0.0000 C   0  0  0  0  0  0  0  0  0  0  0  0
    9.6312    3.0746    0.0000 C   0  0  0  0  0  0  0  0  0  0  0  0
    9.8403    5.0636    0.0000 C   0  0  0  0  0  0  0  0  0  0  0  0
    8.0747    5.2560    0.0000 C   0  0  0  0  0  0  0  0  0  0  0  0
   10.5448    3.4813    0.0000 C   0  0  0  0  0  0  0  0  0  0  0  0
   10.6493    4.4758    0.0000 C   0  0  0  0  0  0  0  0  0  0  0  0
    8.1756    6.2928    0.0000 C   0  0  0  0  0  0  0  0  0  0  0  0
    9.1272    6.7164    0.0000 C   0  0  0  0  0  0  0  0  0  0  0  0
    9.2355    7.7106    0.0000 C   0  0  0  0  0  0  0  0  0  0  0  0
    7.0162   -1.8281    0.0000 H   0  0  0  0  0  0  0  0  0  0  0  0
    7.2977   -3.2751    0.0000 H   0  0  0  0  0  0  0  0  0  0  0  0
    7.1805   -2.5114    0.0000 H   0  0  0  0  0  0  0  0  0  0  0  0
    5.4124   -1.4906    0.0000 H   0  0  0  0  0  0  0  0  0  0  0  0
    4.6923   -1.7709    0.0000 H   0  0  0  0  0  0  0  0  0  0  0  0
    6.5705   -4.5177    0.0000 H   0  0  0  0  0  0  0  0  0  0  0  0
    7.0930   -3.9485    0.0000 H   0  0  0  0  0  0  0  0  0  0  0  0
    4.2116   -2.2849    0.0000 H   0  0  0  0  0  0  0  0  0  0  0  0
    3.9798   -3.0220    0.0000 H   0  0  0  0  0  0  0  0  0  0  0  0
    5.7313   -0.0266    0.0000 H   0  0  0  0  0  0  0  0  0  0  0  0
    5.7313   -0.8237    0.0000 H   0  0  0  0  0  0  0  0  0  0  0  0
    7.7062   -1.9112    0.0000 H   0  0  0  0  0  0  0  0  0  0  0  0
    8.3262   -1.2912    0.0000 H   0  0  0  0  0  0  0  0  0  0  0  0
    7.7062   -0.6712    0.0000 H   0  0  0  0  0  0  0  0  0  0  0  0
    3.2950   -3.9597    0.0000 H   0  0  0  0  0  0  0  0  0  0  0  0
    7.1812    0.0423    0.0000 H   0  0  0  0  0  0  0  0  0  0  0  0
    7.1812    0.8394    0.0000 H   0  0  0  0  0  0  0  0  0  0  0  0
    6.1200   -6.3066    0.0000 H   0  0  0  0  0  0  0  0  0  0  0  0
    6.9669   -6.0797    0.0000 H   0  0  0  0  0  0  0  0  0  0  0  0
    6.7400   -5.2327    0.0000 H   0  0  0  0  0  0  0  0  0  0  0  0
    2.8923   -8.3211    0.0000 H   0  0  0  0  0  0  0  0  0  0  0  0
    3.5826   -7.9226    0.0000 H   0  0  0  0  0  0  0  0  0  0  0  0
    2.0000   -7.0906    0.0000 H   0  0  0  0  0  0  0  0  0  0  0  0
    1.3800   -7.7106    0.0000 H   0  0  0  0  0  0  0  0  0  0  0  0
    2.0000   -8.3306    0.0000 H   0  0  0  0  0  0  0  0  0  0  0  0
    7.9091    1.1194    0.0000 H   0  0  0  0  0  0  0  0  0  0  0  0
    8.7848    1.0736    0.0000 H   0  0  0  0  0  0  0  0  0  0  0  0
    8.8306    1.9492    0.0000 H   0  0  0  0  0  0  0  0  0  0  0  0
    9.5664    2.4580    0.0000 H   0  0  0  0  0  0  0  0  0  0  0  0
    7.5113    4.9973    0.0000 H   0  0  0  0  0  0  0  0  0  0  0  0
   11.0464    3.1169    0.0000 H   0  0  0  0  0  0  0  0  0  0  0  0
   11.2157    4.7280    0.0000 H   0  0  0  0  0  0  0  0  0  0  0  0
    7.6726    6.6553    0.0000 H   0  0  0  0  0  0  0  0  0  0  0  0
    9.8519    7.6434    0.0000 H   0  0  0  0  0  0  0  0  0  0  0  0
    9.3027    8.3269    0.0000 H   0  0  0  0  0  0  0  0  0  0  0  0
    8.6192    7.7778    0.0000 H   0  0  0  0  0  0  0  0  0  0  0  0
  1 22  1  0  0  0  0
  1 26  1  0  0  0  0
  2 20  1  0  0  0  0
  2 24  1  0  0  0  0
  3  9  1  0  0  0  0
  3 10  1  0  0  0  0
  3 11  1  0  0  0  0
  4 21  1  0  0  0  0
  4 24  2  0  0  0  0
  5 26  1  0  0  0  0
  5 28  1  0  0  0  0
  5 30  1  0  0  0  0
  6  7  1  0  0  0  0
  6 26  2  0  0  0  0
  7 28  2  0  0  0  0
  8 33  1  0  0  0  0
  8 38  2  0  0  0  0
  9 16  1  0  0  0  0
  9 18  1  0  0  0  0
  9 40  1  0  0  0  0
 10 12  1  0  0  0  0
 10 41  1  0  0  0  0
 10 42  1  0  0  0  0
 11 13  1  0  0  0  0
 11 43  1  0  0  0  0
 11 44  1  0  0  0  0
 12 14  1  0  0  0  0
 12 45  1  0  0  0  0
 12 46  1  0  0  0  0
 13 15  1  0  0  0  0
 13 47  1  0  0  0  0
 13 48  1  0  0  0  0
 14 15  1  0  0  0  0
 14 17  2  0  0  0  0
 15 19  2  0  0  0  0
 16 22  1  0  0  0  0
 16 49  1  0  0  0  0
 16 50  1  0  0  0  0
 17 20  1  0  0  0  0
 17 23  1  0  0  0  0
 18 51  1  0  0  0  0
 18 52  1  0  0  0  0
 18 53  1  0  0  0  0
 19 21  1  0  0  0  0
 19 54  1  0  0  0  0
 20 21  2  0  0  0  0
 22 55  1  0  0  0  0
 22 56  1  0  0  0  0
 23 57  1  0  0  0  0
 23 58  1  0  0  0  0
 23 59  1  0  0  0  0
 24 25  1  0  0  0  0
 25 27  1  0  0  0  0
 25 60  1  0  0  0  0
 25 61  1  0  0  0  0
 27 62  1  0  0  0  0
 27 63  1  0  0  0  0
 27 64  1  0  0  0  0
 28 29  1  0  0  0  0
 29 31  2  0  0  0  0
 29 32  1  0  0  0  0
 30 65  1  0  0  0  0
 30 66  1  0  0  0  0
 30 67  1  0  0  0  0
 31 33  1  0  0  0  0
 31 34  1  0  0  0  0
 32 35  2  0  0  0  0
 32 68  1  0  0  0  0
 33 36  2  0  0  0  0
 34 37  2  0  0  0  0
 34 69  1  0  0  0  0
 35 36  1  0  0  0  0
 35 70  1  0  0  0  0
 36 71  1  0  0  0  0
 37 38  1  0  0  0  0
 37 72  1  0  0  0  0
 38 39  1  0  0  0  0
 39 73  1  0  0  0  0
 39 74  1  0  0  0  0
 39 75  1  0  0  0  0
M  END
> <PUBCHEM_COMPOUND_CID>
44454166

> <PUBCHEM_COMPOUND_CANONICALIZED>
1

> <PUBCHEM_CACTVS_COMPLEXITY>
805

> <PUBCHEM_CACTVS_HBOND_ACCEPTOR>
7

> <PUBCHEM_CACTVS_HBOND_DONOR>
0

> <PUBCHEM_CACTVS_ROTATABLE_BOND>
7

> <PUBCHEM_CACTVS_SUBSKEYS>
AAADcfB7oABAAAAAAAAAAAAAAAAAAWLAAAA8YIAABYAAAFix/gAAHgQIAAAADCzF3wSz1vcMFEiqA6dydASS2CtvYrAd2CG9bNiOLvLkvbuPOSjkzBPY6YeY2fKOqAADQAAaEABQAAaAADQgAAAAAAAAAA==

> <PUBCHEM_IUPAC_OPENEYE_NAME>
2-ethyl-10-methyl-7-[1-methyl-3-[[4-methyl-5-(2-methyl-5-quinolyl)-1,2,4-triazol-3-yl]sulfanyl]propyl]-5,6,8,9-tetrahydrooxazolo[4,5-h][3]benzazepine

> <PUBCHEM_IUPAC_CAS_NAME>
2-ethyl-10-methyl-7-[4-[[4-methyl-5-(2-methyl-5-quinolinyl)-1,2,4-triazol-3-yl]thio]butan-2-yl]-5,6,8,9-tetrahydrooxazolo[4,5-h][3]benzazepine

> <PUBCHEM_IUPAC_NAME_MARKUP>
2-ethyl-10-methyl-7-[4-[[4-methyl-5-(2-methylquinolin-5-yl)-1,2,4-triazol-3-yl]sulfanyl]butan-2-yl]-5,6,8,9-tetrahydro-[1,3]oxazolo[4,5-h][3]benzazepine

> <PUBCHEM_IUPAC_NAME>
2-ethyl-10-methyl-7-[4-[[4-methyl-5-(2-methylquinolin-5-yl)-1,2,4-triazol-3-yl]sulfanyl]butan-2-yl]-5,6,8,9-tetrahydro-[1,3]oxazolo[4,5-h][3]benzazepine

> <PUBCHEM_IUPAC_SYSTEMATIC_NAME>
2-ethyl-10-methyl-7-[4-[[4-methyl-5-(2-methylquinolin-5-yl)-1,2,4-triazol-3-yl]sulfanyl]butan-2-yl]-5,6,8,9-tetrahydro-[1,3]oxazolo[4,5-h][3]benzazepine

> <PUBCHEM_IUPAC_TRADITIONAL_NAME>
2-ethyl-10-methyl-7-[1-methyl-3-[[4-methyl-5-(2-methyl-5-quinolyl)-1,2,4-triazol-3-yl]thio]propyl]-5,6,8,9-tetrahydrooxazolo[4,5-h][3]benzazepine

> <PUBCHEM_IUPAC_INCHI>
InChI=1S/C31H36N6OS/c1-6-28-33-27-18-22-12-15-37(16-13-23(22)21(4)29(27)38-28)20(3)14-17-39-31-35-34-30(36(31)5)25-8-7-9-26-24(25)11-10-19(2)32-26/h7-11,18,20H,6,12-17H2,1-5H3

> <PUBCHEM_IUPAC_INCHIKEY>
VNUWHBRXYDCOFA-UHFFFAOYSA-N

> <PUBCHEM_XLOGP3_AA>
6.5

> <PUBCHEM_EXACT_MASS>
540.26713097

> <PUBCHEM_MOLECULAR_FORMULA>
C31H36N6OS

> <PUBCHEM_MOLECULAR_WEIGHT>
540.7

> <PUBCHEM_OPENEYE_CAN_SMILES>
CCC1=NC2=C(O1)C(=C3CCN(CCC3=C2)C(C)CCSC4=NN=C(N4C)C5=C6C=CC(=NC6=CC=C5)C)C

> <PUBCHEM_OPENEYE_ISO_SMILES>
CCC1=NC2=C(O1)C(=C3CCN(CCC3=C2)C(C)CCSC4=NN=C(N4C)C5=C6C=CC(=NC6=CC=C5)C)C

> <PUBCHEM_CACTVS_TPSA>
98.2

> <PUBCHEM_MONOISOTOPIC_WEIGHT>
540.26713097

> <PUBCHEM_TOTAL_CHARGE>
0

> <PUBCHEM_HEAVY_ATOM_COUNT>
39

> <PUBCHEM_ATOM_DEF_STEREO_COUNT>
0

> <PUBCHEM_ATOM_UDEF_STEREO_COUNT>
1

> <PUBCHEM_BOND_DEF_STEREO_COUNT>
0

> <PUBCHEM_BOND_UDEF_STEREO_COUNT>
0

> <PUBCHEM_ISOTOPIC_ATOM_COUNT>
0

> <PUBCHEM_COMPONENT_COUNT>
1

> <PUBCHEM_CACTVS_TAUTO_COUNT>
-1

> <PUBCHEM_COORDINATE_TYPE>
1
5
255

> <PUBCHEM_BONDANNOTATIONS>
14  15  8
14  17  8
15  19  8
17  20  8
19  21  8
2  20  8
2  24  8
20  21  8
29  31  8
29  32  8
31  33  8
31  34  8
32  35  8
33  36  8
34  37  8
35  36  8
37  38  8
4  21  8
4  24  8
5  26  8
5  28  8
6  26  8
6  7  8
7  28  8
8  33  8
8  38  8
9  18  3

$$$$
