44454401
  -OEChem-09292322492D

 78 83  0     1  0  0  0  0  0999 V2000
    6.0723    1.7399    0.0000 S   0  0  0  0  0  0  0  0  0  0  0  0
    4.3548   -6.3085    0.0000 O   0  0  0  0  0  0  0  0  0  0  0  0
    6.0723   -1.7242    0.0000 N   0  0  3  0  0  0  0  0  0  0  0  0
    2.9609   -5.5037    0.0000 N   0  0  0  0  0  0  0  0  0  0  0  0
    7.5668    2.7105    0.0000 N   0  0  0  0  0  0  0  0  0  0  0  0
    6.1655    3.5195    0.0000 N   0  0  0  0  0  0  0  0  0  0  0  0
    6.9087    4.1886    0.0000 N   0  0  0  0  0  0  0  0  0  0  0  0
    9.8311    6.5307    0.0000 N   0  0  0  0  0  0  0  0  0  0  0  0
    5.4300   -3.8366    0.0000 C   0  0  0  0  0  0  0  0  0  0  0  0
    6.3405   -3.4722    0.0000 C   0  0  0  0  0  0  0  0  0  0  0  0
    6.6258   -2.5338    0.0000 C   0  0  0  0  0  0  0  0  0  0  0  0
    5.0943   -1.6496    0.0000 C   0  0  0  0  0  0  0  0  0  0  0  0
    4.5640   -3.3366    0.0000 C   0  0  0  0  0  0  0  0  0  0  0  0
    4.4243   -2.3658    0.0000 C   0  0  0  0  0  0  0  0  0  0  0  0
    5.4300   -4.8366    0.0000 C   0  0  0  0  0  0  0  0  0  0  0  0
    6.5723   -0.8582    0.0000 C   0  0  0  0  0  0  0  0  0  0  0  0
    4.5640   -5.3366    0.0000 C   0  0  0  0  0  0  0  0  0  0  0  0
    3.6979   -3.8366    0.0000 C   0  0  0  0  0  0  0  0  0  0  0  0
    3.6979   -4.8366    0.0000 C   0  0  0  0  0  0  0  0  0  0  0  0
    2.8660   -7.2776    0.0000 C   0  0  0  0  0  0  0  0  0  0  0  0
    6.0723    0.0079    0.0000 C   0  0  0  0  0  0  0  0  0  0  0  0
    3.3660   -6.4115    0.0000 C   0  0  0  0  0  0  0  0  0  0  0  0
    6.2960   -5.3366    0.0000 C   0  0  0  0  0  0  0  0  0  0  0  0
    6.5723    0.8739    0.0000 C   0  0  0  0  0  0  0  0  0  0  0  0
    2.3660   -8.1436    0.0000 C   0  0  0  0  0  0  0  0  0  0  0  0
    2.0000   -6.7776    0.0000 C   0  0  0  0  0  0  0  0  0  0  0  0
    3.7320   -7.7776    0.0000 C   0  0  0  0  0  0  0  0  0  0  0  0
    6.5723    2.6059    0.0000 C   0  0  0  0  0  0  0  0  0  0  0  0
    7.7747    3.6886    0.0000 C   0  0  0  0  0  0  0  0  0  0  0  0
    8.6882    4.0954    0.0000 C   0  0  0  0  0  0  0  0  0  0  0  0
    8.2359    1.9673    0.0000 C   0  0  0  0  0  0  0  0  0  0  0  0
    8.7928    5.0899    0.0000 C   0  0  0  0  0  0  0  0  0  0  0  0
    9.7063    5.4966    0.0000 C   0  0  0  0  0  0  0  0  0  0  0  0
    9.4972    3.5076    0.0000 C   0  0  0  0  0  0  0  0  0  0  0  0
    7.9407    5.6891    0.0000 C   0  0  0  0  0  0  0  0  0  0  0  0
   10.5153    4.9088    0.0000 C   0  0  0  0  0  0  0  0  0  0  0  0
   10.4108    3.9143    0.0000 C   0  0  0  0  0  0  0  0  0  0  0  0
    8.0416    6.7258    0.0000 C   0  0  0  0  0  0  0  0  0  0  0  0
    8.9932    7.1495    0.0000 C   0  0  0  0  0  0  0  0  0  0  0  0
    9.1016    8.1436    0.0000 C   0  0  0  0  0  0  0  0  0  0  0  0
    6.4365   -4.0847    0.0000 H   0  0  0  0  0  0  0  0  0  0  0  0
    6.9590   -3.5155    0.0000 H   0  0  0  0  0  0  0  0  0  0  0  0
    7.1638   -2.8421    0.0000 H   0  0  0  0  0  0  0  0  0  0  0  0
    7.0465   -2.0784    0.0000 H   0  0  0  0  0  0  0  0  0  0  0  0
    5.2784   -1.0575    0.0000 H   0  0  0  0  0  0  0  0  0  0  0  0
    4.5584   -1.3379    0.0000 H   0  0  0  0  0  0  0  0  0  0  0  0
    4.0776   -1.8519    0.0000 H   0  0  0  0  0  0  0  0  0  0  0  0
    3.8458   -2.5890    0.0000 H   0  0  0  0  0  0  0  0  0  0  0  0
    7.0472   -1.2567    0.0000 H   0  0  0  0  0  0  0  0  0  0  0  0
    7.0472   -0.4596    0.0000 H   0  0  0  0  0  0  0  0  0  0  0  0
    3.1610   -3.5266    0.0000 H   0  0  0  0  0  0  0  0  0  0  0  0
    5.5973    0.4064    0.0000 H   0  0  0  0  0  0  0  0  0  0  0  0
    5.5973   -0.3907    0.0000 H   0  0  0  0  0  0  0  0  0  0  0  0
    5.9860   -5.8736    0.0000 H   0  0  0  0  0  0  0  0  0  0  0  0
    6.8329   -5.6466    0.0000 H   0  0  0  0  0  0  0  0  0  0  0  0
    6.6060   -4.7997    0.0000 H   0  0  0  0  0  0  0  0  0  0  0  0
    7.0472    0.4754    0.0000 H   0  0  0  0  0  0  0  0  0  0  0  0
    7.0472    1.2724    0.0000 H   0  0  0  0  0  0  0  0  0  0  0  0
    1.8291   -7.8336    0.0000 H   0  0  0  0  0  0  0  0  0  0  0  0
    2.0560   -8.6805    0.0000 H   0  0  0  0  0  0  0  0  0  0  0  0
    2.9030   -8.4536    0.0000 H   0  0  0  0  0  0  0  0  0  0  0  0
    2.3100   -6.2406    0.0000 H   0  0  0  0  0  0  0  0  0  0  0  0
    1.4631   -6.4676    0.0000 H   0  0  0  0  0  0  0  0  0  0  0  0
    1.6900   -7.3145    0.0000 H   0  0  0  0  0  0  0  0  0  0  0  0
    3.4220   -8.3145    0.0000 H   0  0  0  0  0  0  0  0  0  0  0  0
    4.2690   -8.0876    0.0000 H   0  0  0  0  0  0  0  0  0  0  0  0
    4.0420   -7.2406    0.0000 H   0  0  0  0  0  0  0  0  0  0  0  0
    7.7752    1.5525    0.0000 H   0  0  0  0  0  0  0  0  0  0  0  0
    8.6508    1.5066    0.0000 H   0  0  0  0  0  0  0  0  0  0  0  0
    8.6967    2.3822    0.0000 H   0  0  0  0  0  0  0  0  0  0  0  0
    9.4324    2.8910    0.0000 H   0  0  0  0  0  0  0  0  0  0  0  0
    7.3773    5.4304    0.0000 H   0  0  0  0  0  0  0  0  0  0  0  0
   11.0817    5.1610    0.0000 H   0  0  0  0  0  0  0  0  0  0  0  0
   10.9124    3.5499    0.0000 H   0  0  0  0  0  0  0  0  0  0  0  0
    7.5386    7.0883    0.0000 H   0  0  0  0  0  0  0  0  0  0  0  0
    9.7179    8.0764    0.0000 H   0  0  0  0  0  0  0  0  0  0  0  0
    9.1687    8.7599    0.0000 H   0  0  0  0  0  0  0  0  0  0  0  0
    8.4852    8.2108    0.0000 H   0  0  0  0  0  0  0  0  0  0  0  0
  1 24  1  0  0  0  0
  1 28  1  0  0  0  0
  2 17  1  0  0  0  0
  2 22  1  0  0  0  0
  3 11  1  0  0  0  0
  3 12  1  0  0  0  0
  3 16  1  0  0  0  0
  4 19  1  0  0  0  0
  4 22  2  0  0  0  0
  5 28  1  0  0  0  0
  5 29  1  0  0  0  0
  5 31  1  0  0  0  0
  6  7  1  0  0  0  0
  6 28  2  0  0  0  0
  7 29  2  0  0  0  0
  8 33  1  0  0  0  0
  8 39  2  0  0  0  0
  9 10  1  0  0  0  0
  9 13  1  0  0  0  0
  9 15  2  0  0  0  0
 10 11  1  0  0  0  0
 10 41  1  0  0  0  0
 10 42  1  0  0  0  0
 11 43  1  0  0  0  0
 11 44  1  0  0  0  0
 12 14  1  0  0  0  0
 12 45  1  0  0  0  0
 12 46  1  0  0  0  0
 13 14  1  0  0  0  0
 13 18  2  0  0  0  0
 14 47  1  0  0  0  0
 14 48  1  0  0  0  0
 15 17  1  0  0  0  0
 15 23  1  0  0  0  0
 16 21  1  0  0  0  0
 16 49  1  0  0  0  0
 16 50  1  0  0  0  0
 17 19  2  0  0  0  0
 18 19  1  0  0  0  0
 18 51  1  0  0  0  0
 20 22  1  0  0  0  0
 20 25  1  0  0  0  0
 20 26  1  0  0  0  0
 20 27  1  0  0  0  0
 21 24  1  0  0  0  0
 21 52  1  0  0  0  0
 21 53  1  0  0  0  0
 23 54  1  0  0  0  0
 23 55  1  0  0  0  0
 23 56  1  0  0  0  0
 24 57  1  0  0  0  0
 24 58  1  0  0  0  0
 25 59  1  0  0  0  0
 25 60  1  0  0  0  0
 25 61  1  0  0  0  0
 26 62  1  0  0  0  0
 26 63  1  0  0  0  0
 26 64  1  0  0  0  0
 27 65  1  0  0  0  0
 27 66  1  0  0  0  0
 27 67  1  0  0  0  0
 29 30  1  0  0  0  0
 30 32  2  0  0  0  0
 30 34  1  0  0  0  0
 31 68  1  0  0  0  0
 31 69  1  0  0  0  0
 31 70  1  0  0  0  0
 32 33  1  0  0  0  0
 32 35  1  0  0  0  0
 33 36  2  0  0  0  0
 34 37  2  0  0  0  0
 34 71  1  0  0  0  0
 35 38  2  0  0  0  0
 35 72  1  0  0  0  0
 36 37  1  0  0  0  0
 36 73  1  0  0  0  0
 37 74  1  0  0  0  0
 38 39  1  0  0  0  0
 38 75  1  0  0  0  0
 39 40  1  0  0  0  0
 40 76  1  0  0  0  0
 40 77  1  0  0  0  0
 40 78  1  0  0  0  0
M  END
> <PUBCHEM_COMPOUND_CID>
44454401

> <PUBCHEM_COMPOUND_CANONICALIZED>
1

> <PUBCHEM_CACTVS_COMPLEXITY>
841

> <PUBCHEM_CACTVS_HBOND_ACCEPTOR>
7

> <PUBCHEM_CACTVS_HBOND_DONOR>
0

> <PUBCHEM_CACTVS_ROTATABLE_BOND>
7

> <PUBCHEM_CACTVS_SUBSKEYS>
AAADcfB/oABAAAAAAAAAAAAAAAAAAWLAAAA8YIAABYAAAFix/gAAHgQIAAAADgzF3wSz1vcMFEiqA6dydASS2CtvYrAd2CG9bNiOLvLkvbuPOSjkzBPY6YeY2fKOqAADQAAaEABQAAaAADQgAAAAAAAAAA==

> <PUBCHEM_IUPAC_OPENEYE_NAME>
2-tert-butyl-10-methyl-7-[3-[[4-methyl-5-(2-methyl-5-quinolyl)-1,2,4-triazol-3-yl]sulfanyl]propyl]-5,6,8,9-tetrahydrooxazolo[4,5-h][3]benzazepine

> <PUBCHEM_IUPAC_CAS_NAME>
2-tert-butyl-10-methyl-7-[3-[[4-methyl-5-(2-methyl-5-quinolinyl)-1,2,4-triazol-3-yl]thio]propyl]-5,6,8,9-tetrahydrooxazolo[4,5-h][3]benzazepine

> <PUBCHEM_IUPAC_NAME_MARKUP>
2-<I>tert</I>-butyl-10-methyl-7-[3-[[4-methyl-5-(2-methylquinolin-5-yl)-1,2,4-triazol-3-yl]sulfanyl]propyl]-5,6,8,9-tetrahydro-[1,3]oxazolo[4,5-h][3]benzazepine

> <PUBCHEM_IUPAC_NAME>
2-tert-butyl-10-methyl-7-[3-[[4-methyl-5-(2-methylquinolin-5-yl)-1,2,4-triazol-3-yl]sulfanyl]propyl]-5,6,8,9-tetrahydro-[1,3]oxazolo[4,5-h][3]benzazepine

> <PUBCHEM_IUPAC_SYSTEMATIC_NAME>
2-tert-butyl-10-methyl-7-[3-[[4-methyl-5-(2-methylquinolin-5-yl)-1,2,4-triazol-3-yl]sulfanyl]propyl]-5,6,8,9-tetrahydro-[1,3]oxazolo[4,5-h][3]benzazepine

> <PUBCHEM_IUPAC_TRADITIONAL_NAME>
2-tert-butyl-10-methyl-7-[3-[[4-methyl-5-(2-methyl-5-quinolyl)-1,2,4-triazol-3-yl]thio]propyl]-5,6,8,9-tetrahydrooxazolo[4,5-h][3]benzazepine

> <PUBCHEM_IUPAC_INCHI>
InChI=1S/C32H38N6OS/c1-20-11-12-24-25(9-7-10-26(24)33-20)29-35-36-31(37(29)6)40-18-8-15-38-16-13-22-19-27-28(21(2)23(22)14-17-38)39-30(34-27)32(3,4)5/h7,9-12,19H,8,13-18H2,1-6H3

> <PUBCHEM_IUPAC_INCHIKEY>
MJLHCRFMFPSGBF-UHFFFAOYSA-N

> <PUBCHEM_XLOGP3_AA>
6.9

> <PUBCHEM_EXACT_MASS>
554.28278103

> <PUBCHEM_MOLECULAR_FORMULA>
C32H38N6OS

> <PUBCHEM_MOLECULAR_WEIGHT>
554.8

> <PUBCHEM_OPENEYE_CAN_SMILES>
CC1=NC2=CC=CC(=C2C=C1)C3=NN=C(N3C)SCCCN4CCC5=CC6=C(C(=C5CC4)C)OC(=N6)C(C)(C)C

> <PUBCHEM_OPENEYE_ISO_SMILES>
CC1=NC2=CC=CC(=C2C=C1)C3=NN=C(N3C)SCCCN4CCC5=CC6=C(C(=C5CC4)C)OC(=N6)C(C)(C)C

> <PUBCHEM_CACTVS_TPSA>
98.2

> <PUBCHEM_MONOISOTOPIC_WEIGHT>
554.28278103

> <PUBCHEM_TOTAL_CHARGE>
0

> <PUBCHEM_HEAVY_ATOM_COUNT>
40

> <PUBCHEM_ATOM_DEF_STEREO_COUNT>
0

> <PUBCHEM_ATOM_UDEF_STEREO_COUNT>
0

> <PUBCHEM_BOND_DEF_STEREO_COUNT>
0

> <PUBCHEM_BOND_UDEF_STEREO_COUNT>
0

> <PUBCHEM_ISOTOPIC_ATOM_COUNT>
0

> <PUBCHEM_COMPONENT_COUNT>
1

> <PUBCHEM_CACTVS_TAUTO_COUNT>
-1

> <PUBCHEM_COORDINATE_TYPE>
1
5
255

> <PUBCHEM_BONDANNOTATIONS>
13  18  8
15  17  8
17  19  8
18  19  8
2  17  8
2  22  8
30  32  8
30  34  8
32  33  8
32  35  8
33  36  8
34  37  8
35  38  8
36  37  8
38  39  8
4  19  8
4  22  8
5  28  8
5  29  8
6  28  8
6  7  8
7  29  8
8  33  8
8  39  8
9  13  8
9  15  8

$$$$
