44415824
  -OEChem-09292322282D

 59 63  0     0  0  0  0  0  0999 V2000
    8.7204    0.2666    0.0000 Cl  0  0  0  0  0  0  0  0  0  0  0  0
    4.0169   -3.5604    0.0000 Cl  0  0  0  0  0  0  0  0  0  0  0  0
    6.6150   -2.0604    0.0000 O   0  0  0  0  0  0  0  0  0  0  0  0
    3.9491    2.0312    0.0000 N   0  0  0  0  0  0  0  0  0  0  0  0
    3.0814    3.8332    0.0000 N   0  0  0  0  0  0  0  0  0  0  0  0
    5.3830    1.1303    0.0000 N   0  0  0  0  0  0  0  0  0  0  0  0
    4.8830   -1.0604    0.0000 N   0  0  0  0  0  0  0  0  0  0  0  0
    4.8830   -2.0604    0.0000 N   0  0  0  0  0  0  0  0  0  0  0  0
    4.5125    2.8575    0.0000 C   0  0  0  0  0  0  0  0  0  0  0  0
    2.9519    2.1060    0.0000 C   0  0  0  0  0  0  0  0  0  0  0  0
    4.0786    3.7584    0.0000 C   0  0  0  0  0  0  0  0  0  0  0  0
    2.5180    3.0069    0.0000 C   0  0  0  0  0  0  0  0  0  0  0  0
    4.3830    1.1303    0.0000 C   0  0  0  0  0  0  0  0  0  0  0  0
    2.6475    4.7342    0.0000 C   0  0  0  0  0  0  0  0  0  0  0  0
    3.7595    0.3484    0.0000 C   0  0  0  0  0  0  0  0  0  0  0  0
    3.9820   -0.6265    0.0000 C   0  0  0  0  0  0  0  0  0  0  0  0
    3.2108    5.5604    0.0000 C   0  0  0  0  0  0  0  0  0  0  0  0
    6.0065    0.3484    0.0000 C   0  0  0  0  0  0  0  0  0  0  0  0
    5.7840   -0.6265    0.0000 C   0  0  0  0  0  0  0  0  0  0  0  0
    2.7690    0.6708    0.0000 C   0  0  0  0  0  0  0  0  0  0  0  0
    3.2295   -1.3467    0.0000 C   0  0  0  0  0  0  0  0  0  0  0  0
    2.0000   -0.0318    0.0000 C   0  0  0  0  0  0  0  0  0  0  0  0
    6.9970    0.6708    0.0000 C   0  0  0  0  0  0  0  0  0  0  0  0
    2.2318   -1.0473    0.0000 C   0  0  0  0  0  0  0  0  0  0  0  0
    6.5365   -1.3467    0.0000 C   0  0  0  0  0  0  0  0  0  0  0  0
    7.7660   -0.0318    0.0000 C   0  0  0  0  0  0  0  0  0  0  0  0
    7.5342   -1.0474    0.0000 C   0  0  0  0  0  0  0  0  0  0  0  0
    5.7490   -2.5604    0.0000 C   0  0  0  0  0  0  0  0  0  0  0  0
    5.7490   -3.5604    0.0000 C   0  0  0  0  0  0  0  0  0  0  0  0
    4.8830   -4.0604    0.0000 C   0  0  0  0  0  0  0  0  0  0  0  0
    6.6150   -4.0604    0.0000 C   0  0  0  0  0  0  0  0  0  0  0  0
    4.8830   -5.0604    0.0000 C   0  0  0  0  0  0  0  0  0  0  0  0
    6.6150   -5.0604    0.0000 C   0  0  0  0  0  0  0  0  0  0  0  0
    5.7490   -5.5604    0.0000 C   0  0  0  0  0  0  0  0  0  0  0  0
    4.9563    2.4246    0.0000 H   0  0  0  0  0  0  0  0  0  0  0  0
    5.0159    3.2194    0.0000 H   0  0  0  0  0  0  0  0  0  0  0  0
    2.3551    1.9381    0.0000 H   0  0  0  0  0  0  0  0  0  0  0  0
    3.0137    1.4891    0.0000 H   0  0  0  0  0  0  0  0  0  0  0  0
    4.6754    3.9264    0.0000 H   0  0  0  0  0  0  0  0  0  0  0  0
    4.0168    4.3754    0.0000 H   0  0  0  0  0  0  0  0  0  0  0  0
    2.0742    3.4399    0.0000 H   0  0  0  0  0  0  0  0  0  0  0  0
    2.0146    2.6450    0.0000 H   0  0  0  0  0  0  0  0  0  0  0  0
    2.2037    5.1671    0.0000 H   0  0  0  0  0  0  0  0  0  0  0  0
    2.1441    4.3722    0.0000 H   0  0  0  0  0  0  0  0  0  0  0  0
    3.7231    5.2111    0.0000 H   0  0  0  0  0  0  0  0  0  0  0  0
    3.5601    6.0726    0.0000 H   0  0  0  0  0  0  0  0  0  0  0  0
    2.6986    5.9096    0.0000 H   0  0  0  0  0  0  0  0  0  0  0  0
    2.6380    1.2768    0.0000 H   0  0  0  0  0  0  0  0  0  0  0  0
    3.3744   -1.9495    0.0000 H   0  0  0  0  0  0  0  0  0  0  0  0
    1.4083    0.1532    0.0000 H   0  0  0  0  0  0  0  0  0  0  0  0
    7.1280    1.2768    0.0000 H   0  0  0  0  0  0  0  0  0  0  0  0
    6.3916   -1.9495    0.0000 H   0  0  0  0  0  0  0  0  0  0  0  0
    1.7789   -1.4708    0.0000 H   0  0  0  0  0  0  0  0  0  0  0  0
    4.3460   -2.3704    0.0000 H   0  0  0  0  0  0  0  0  0  0  0  0
    7.9871   -1.4708    0.0000 H   0  0  0  0  0  0  0  0  0  0  0  0
    7.1520   -3.7504    0.0000 H   0  0  0  0  0  0  0  0  0  0  0  0
    4.3460   -5.3704    0.0000 H   0  0  0  0  0  0  0  0  0  0  0  0
    7.1520   -5.3704    0.0000 H   0  0  0  0  0  0  0  0  0  0  0  0
    5.7490   -6.1804    0.0000 H   0  0  0  0  0  0  0  0  0  0  0  0
  1 26  1  0  0  0  0
  2 30  1  0  0  0  0
  3 28  2  0  0  0  0
  4  9  1  0  0  0  0
  4 10  1  0  0  0  0
  4 13  1  0  0  0  0
  5 11  1  0  0  0  0
  5 12  1  0  0  0  0
  5 14  1  0  0  0  0
  6 13  2  0  0  0  0
  6 18  1  0  0  0  0
  7  8  1  0  0  0  0
  7 16  1  0  0  0  0
  7 19  1  0  0  0  0
  8 28  1  0  0  0  0
  8 54  1  0  0  0  0
  9 11  1  0  0  0  0
  9 35  1  0  0  0  0
  9 36  1  0  0  0  0
 10 12  1  0  0  0  0
 10 37  1  0  0  0  0
 10 38  1  0  0  0  0
 11 39  1  0  0  0  0
 11 40  1  0  0  0  0
 12 41  1  0  0  0  0
 12 42  1  0  0  0  0
 13 15  1  0  0  0  0
 14 17  1  0  0  0  0
 14 43  1  0  0  0  0
 14 44  1  0  0  0  0
 15 16  1  0  0  0  0
 15 20  2  0  0  0  0
 16 21  2  0  0  0  0
 17 45  1  0  0  0  0
 17 46  1  0  0  0  0
 17 47  1  0  0  0  0
 18 19  2  0  0  0  0
 18 23  1  0  0  0  0
 19 25  1  0  0  0  0
 20 22  1  0  0  0  0
 20 48  1  0  0  0  0
 21 24  1  0  0  0  0
 21 49  1  0  0  0  0
 22 24  2  0  0  0  0
 22 50  1  0  0  0  0
 23 26  2  0  0  0  0
 23 51  1  0  0  0  0
 24 53  1  0  0  0  0
 25 27  2  0  0  0  0
 25 52  1  0  0  0  0
 26 27  1  0  0  0  0
 27 55  1  0  0  0  0
 28 29  1  0  0  0  0
 29 30  1  0  0  0  0
 29 31  2  0  0  0  0
 30 32  2  0  0  0  0
 31 33  1  0  0  0  0
 31 56  1  0  0  0  0
 32 34  1  0  0  0  0
 32 57  1  0  0  0  0
 33 34  2  0  0  0  0
 33 58  1  0  0  0  0
 34 59  1  0  0  0  0
M  END
> <PUBCHEM_COMPOUND_CID>
44415824

> <PUBCHEM_COMPOUND_CANONICALIZED>
1

> <PUBCHEM_CACTVS_COMPLEXITY>
743

> <PUBCHEM_CACTVS_HBOND_ACCEPTOR>
4

> <PUBCHEM_CACTVS_HBOND_DONOR>
1

> <PUBCHEM_CACTVS_ROTATABLE_BOND>
4

> <PUBCHEM_CACTVS_SUBSKEYS>
AAADceB7oAAGAAAAAAAAAAAAAAAAAAAAAAA8YMEABAAAAAABUAAAHgIYAAAADArBmCQzwINiAACoAidydACCBAElBwAbqAEodtgIYPLB35GUIQhggADIzYcYiACOAABAAAIDACAAAIAABAYAQAAAAAAAAA==

> <PUBCHEM_IUPAC_OPENEYE_NAME>
2-chloro-N-[3-chloro-6-(4-ethylpiperazin-1-yl)benzo[b][1,4]benzodiazepin-11-yl]benzamide

> <PUBCHEM_IUPAC_CAS_NAME>
2-chloro-N-[3-chloro-6-(4-ethyl-1-piperazinyl)-11-benzo[b][1,4]benzodiazepinyl]benzamide

> <PUBCHEM_IUPAC_NAME_MARKUP>
2-chloro-<I>N</I>-[3-chloro-6-(4-ethylpiperazin-1-yl)benzo[b][1,4]benzodiazepin-11-yl]benzamide

> <PUBCHEM_IUPAC_NAME>
2-chloro-N-[3-chloro-6-(4-ethylpiperazin-1-yl)benzo[b][1,4]benzodiazepin-11-yl]benzamide

> <PUBCHEM_IUPAC_SYSTEMATIC_NAME>
2-chloranyl-N-[3-chloranyl-6-(4-ethylpiperazin-1-yl)benzo[b][1,4]benzodiazepin-11-yl]benzamide

> <PUBCHEM_IUPAC_TRADITIONAL_NAME>
2-chloro-N-[3-chloro-6-(4-ethylpiperazino)benzo[b][1,4]benzodiazepin-11-yl]benzamide

> <PUBCHEM_IUPAC_INCHI>
InChI=1S/C26H25Cl2N5O/c1-2-31-13-15-32(16-14-31)25-20-8-4-6-10-23(20)33(24-12-11-18(27)17-22(24)29-25)30-26(34)19-7-3-5-9-21(19)28/h3-12,17H,2,13-16H2,1H3,(H,30,34)

> <PUBCHEM_IUPAC_INCHIKEY>
WXQFNASFTKDHTC-UHFFFAOYSA-N

> <PUBCHEM_XLOGP3_AA>
5.4

> <PUBCHEM_EXACT_MASS>
493.1436158

> <PUBCHEM_MOLECULAR_FORMULA>
C26H25Cl2N5O

> <PUBCHEM_MOLECULAR_WEIGHT>
494.4

> <PUBCHEM_OPENEYE_CAN_SMILES>
CCN1CCN(CC1)C2=NC3=C(C=CC(=C3)Cl)N(C4=CC=CC=C42)NC(=O)C5=CC=CC=C5Cl

> <PUBCHEM_OPENEYE_ISO_SMILES>
CCN1CCN(CC1)C2=NC3=C(C=CC(=C3)Cl)N(C4=CC=CC=C42)NC(=O)C5=CC=CC=C5Cl

> <PUBCHEM_CACTVS_TPSA>
51.2

> <PUBCHEM_MONOISOTOPIC_WEIGHT>
493.1436158

> <PUBCHEM_TOTAL_CHARGE>
0

> <PUBCHEM_HEAVY_ATOM_COUNT>
34

> <PUBCHEM_ATOM_DEF_STEREO_COUNT>
0

> <PUBCHEM_ATOM_UDEF_STEREO_COUNT>
0

> <PUBCHEM_BOND_DEF_STEREO_COUNT>
0

> <PUBCHEM_BOND_UDEF_STEREO_COUNT>
0

> <PUBCHEM_ISOTOPIC_ATOM_COUNT>
0

> <PUBCHEM_COMPONENT_COUNT>
1

> <PUBCHEM_CACTVS_TAUTO_COUNT>
-1

> <PUBCHEM_COORDINATE_TYPE>
1
5
255

> <PUBCHEM_BONDANNOTATIONS>
15  16  8
15  20  8
16  21  8
18  19  8
18  23  8
19  25  8
20  22  8
21  24  8
22  24  8
23  26  8
25  27  8
26  27  8
29  30  8
29  31  8
30  32  8
31  33  8
32  34  8
33  34  8

$$$$
