44320347
  -OEChem-09292322222D

 58 62  0     0  0  0  0  0  0999 V2000
    3.7320    1.5427    0.0000 N   0  0  0  0  0  0  0  0  0  0  0  0
    3.7320    3.5427    0.0000 N   0  0  0  0  0  0  0  0  0  0  0  0
    5.4920    4.5080    0.0000 N   0  0  0  0  0  0  0  0  0  0  0  0
    3.7320   -4.4573    0.0000 N   0  0  0  0  0  0  0  0  0  0  0  0
    4.5981   -5.9573    0.0000 N   0  0  0  0  0  0  0  0  0  0  0  0
    4.5981    2.0427    0.0000 C   0  0  0  0  0  0  0  0  0  0  0  0
    2.8660    2.0427    0.0000 C   0  0  0  0  0  0  0  0  0  0  0  0
    4.5981    3.0427    0.0000 C   0  0  0  0  0  0  0  0  0  0  0  0
    2.8660    3.0427    0.0000 C   0  0  0  0  0  0  0  0  0  0  0  0
    3.7320    0.5427    0.0000 C   0  0  0  0  0  0  0  0  0  0  0  0
    3.7320    4.5427    0.0000 C   0  0  0  0  0  0  0  0  0  0  0  0
    2.8660    0.0427    0.0000 C   0  0  0  0  0  0  0  0  0  0  0  0
    4.5981    5.0427    0.0000 C   0  0  0  0  0  0  0  0  0  0  0  0
    2.8660   -0.9573    0.0000 C   0  0  0  0  0  0  0  0  0  0  0  0
    2.8660    5.0427    0.0000 C   0  0  0  0  0  0  0  0  0  0  0  0
    4.5981    6.0427    0.0000 C   0  0  0  0  0  0  0  0  0  0  0  0
    2.8660    6.0427    0.0000 C   0  0  0  0  0  0  0  0  0  0  0  0
    2.0000   -1.4573    0.0000 C   0  0  0  0  0  0  0  0  0  0  0  0
    3.7320   -1.4573    0.0000 C   0  0  0  0  0  0  0  0  0  0  0  0
    3.7320    6.5427    0.0000 C   0  0  0  0  0  0  0  0  0  0  0  0
    5.4920    6.5773    0.0000 C   0  0  0  0  0  0  0  0  0  0  0  0
    2.0000   -2.4573    0.0000 C   0  0  0  0  0  0  0  0  0  0  0  0
    3.7320   -2.4573    0.0000 C   0  0  0  0  0  0  0  0  0  0  0  0
    2.8660   -2.9573    0.0000 C   0  0  0  0  0  0  0  0  0  0  0  0
    6.3981    5.0218    0.0000 C   0  0  0  0  0  0  0  0  0  0  0  0
    6.3981    6.0635    0.0000 C   0  0  0  0  0  0  0  0  0  0  0  0
    2.8660   -3.9573    0.0000 C   0  0  0  0  0  0  0  0  0  0  0  0
    2.0000   -4.4573    0.0000 C   0  0  0  0  0  0  0  0  0  0  0  0
    2.0000   -5.4573    0.0000 C   0  0  0  0  0  0  0  0  0  0  0  0
    3.7320   -5.4573    0.0000 C   0  0  0  0  0  0  0  0  0  0  0  0
    2.8660   -5.9573    0.0000 C   0  0  0  0  0  0  0  0  0  0  0  0
    4.8101    1.4601    0.0000 H   0  0  0  0  0  0  0  0  0  0  0  0
    5.2087    2.1503    0.0000 H   0  0  0  0  0  0  0  0  0  0  0  0
    2.2554    2.1503    0.0000 H   0  0  0  0  0  0  0  0  0  0  0  0
    2.6540    1.4601    0.0000 H   0  0  0  0  0  0  0  0  0  0  0  0
    5.2087    2.9350    0.0000 H   0  0  0  0  0  0  0  0  0  0  0  0
    4.8101    3.6253    0.0000 H   0  0  0  0  0  0  0  0  0  0  0  0
    2.6540    3.6253    0.0000 H   0  0  0  0  0  0  0  0  0  0  0  0
    2.2554    2.9350    0.0000 H   0  0  0  0  0  0  0  0  0  0  0  0
    3.9441   -0.0399    0.0000 H   0  0  0  0  0  0  0  0  0  0  0  0
    4.3426    0.6503    0.0000 H   0  0  0  0  0  0  0  0  0  0  0  0
    2.6540    0.6253    0.0000 H   0  0  0  0  0  0  0  0  0  0  0  0
    2.2554   -0.0650    0.0000 H   0  0  0  0  0  0  0  0  0  0  0  0
    2.3291    4.7327    0.0000 H   0  0  0  0  0  0  0  0  0  0  0  0
    2.3291    6.3527    0.0000 H   0  0  0  0  0  0  0  0  0  0  0  0
    1.4631   -1.1473    0.0000 H   0  0  0  0  0  0  0  0  0  0  0  0
    4.2690   -1.1473    0.0000 H   0  0  0  0  0  0  0  0  0  0  0  0
    3.7320    7.1627    0.0000 H   0  0  0  0  0  0  0  0  0  0  0  0
    5.4848    7.1973    0.0000 H   0  0  0  0  0  0  0  0  0  0  0  0
    1.4631   -2.7673    0.0000 H   0  0  0  0  0  0  0  0  0  0  0  0
    4.2690   -2.7673    0.0000 H   0  0  0  0  0  0  0  0  0  0  0  0
    6.9338    4.7098    0.0000 H   0  0  0  0  0  0  0  0  0  0  0  0
    6.9338    6.3755    0.0000 H   0  0  0  0  0  0  0  0  0  0  0  0
    1.4631   -4.1473    0.0000 H   0  0  0  0  0  0  0  0  0  0  0  0
    1.4631   -5.7673    0.0000 H   0  0  0  0  0  0  0  0  0  0  0  0
    2.8660   -6.5773    0.0000 H   0  0  0  0  0  0  0  0  0  0  0  0
    4.5981   -6.5773    0.0000 H   0  0  0  0  0  0  0  0  0  0  0  0
    5.1350   -5.6473    0.0000 H   0  0  0  0  0  0  0  0  0  0  0  0
  1  6  1  0  0  0  0
  1  7  1  0  0  0  0
  1 10  1  0  0  0  0
  2  8  1  0  0  0  0
  2  9  1  0  0  0  0
  2 11  1  0  0  0  0
  3 13  1  0  0  0  0
  3 25  2  0  0  0  0
  4 27  2  0  0  0  0
  4 30  1  0  0  0  0
  5 30  1  0  0  0  0
  5 57  1  0  0  0  0
  5 58  1  0  0  0  0
  6  8  1  0  0  0  0
  6 32  1  0  0  0  0
  6 33  1  0  0  0  0
  7  9  1  0  0  0  0
  7 34  1  0  0  0  0
  7 35  1  0  0  0  0
  8 36  1  0  0  0  0
  8 37  1  0  0  0  0
  9 38  1  0  0  0  0
  9 39  1  0  0  0  0
 10 12  1  0  0  0  0
 10 40  1  0  0  0  0
 10 41  1  0  0  0  0
 11 13  1  0  0  0  0
 11 15  2  0  0  0  0
 12 14  1  0  0  0  0
 12 42  1  0  0  0  0
 12 43  1  0  0  0  0
 13 16  2  0  0  0  0
 14 18  2  0  0  0  0
 14 19  1  0  0  0  0
 15 17  1  0  0  0  0
 15 44  1  0  0  0  0
 16 20  1  0  0  0  0
 16 21  1  0  0  0  0
 17 20  2  0  0  0  0
 17 45  1  0  0  0  0
 18 22  1  0  0  0  0
 18 46  1  0  0  0  0
 19 23  2  0  0  0  0
 19 47  1  0  0  0  0
 20 48  1  0  0  0  0
 21 26  2  0  0  0  0
 21 49  1  0  0  0  0
 22 24  2  0  0  0  0
 22 50  1  0  0  0  0
 23 24  1  0  0  0  0
 23 51  1  0  0  0  0
 24 27  1  0  0  0  0
 25 26  1  0  0  0  0
 25 52  1  0  0  0  0
 26 53  1  0  0  0  0
 27 28  1  0  0  0  0
 28 29  2  0  0  0  0
 28 54  1  0  0  0  0
 29 31  1  0  0  0  0
 29 55  1  0  0  0  0
 30 31  2  0  0  0  0
 31 56  1  0  0  0  0
M  END
> <PUBCHEM_COMPOUND_CID>
44320347

> <PUBCHEM_COMPOUND_CANONICALIZED>
1

> <PUBCHEM_CACTVS_COMPLEXITY>
540

> <PUBCHEM_CACTVS_HBOND_ACCEPTOR>
5

> <PUBCHEM_CACTVS_HBOND_DONOR>
1

> <PUBCHEM_CACTVS_ROTATABLE_BOND>
5

> <PUBCHEM_CACTVS_SUBSKEYS>
AAADceB7gAAAAAAAAAAAAAAAAAAAAAAAAAA8eLECAAAAAACx/AAAHAAQAAAADAjBHgQ98PNIEACgAzZnZACCgCkxEiAI2CA4dJiIYOLAkZGUIAhgkALIyCcQgMAOQAAAQAACACCAAACAAAQAQAAAAAAAAA==

> <PUBCHEM_IUPAC_OPENEYE_NAME>
6-[4-[2-[4-(8-quinolyl)piperazin-1-yl]ethyl]phenyl]pyridin-2-amine

> <PUBCHEM_IUPAC_CAS_NAME>
6-[4-[2-[4-(8-quinolinyl)-1-piperazinyl]ethyl]phenyl]-2-pyridinamine

> <PUBCHEM_IUPAC_NAME_MARKUP>
6-[4-[2-(4-quinolin-8-ylpiperazin-1-yl)ethyl]phenyl]pyridin-2-amine

> <PUBCHEM_IUPAC_NAME>
6-[4-[2-(4-quinolin-8-ylpiperazin-1-yl)ethyl]phenyl]pyridin-2-amine

> <PUBCHEM_IUPAC_SYSTEMATIC_NAME>
6-[4-[2-(4-quinolin-8-ylpiperazin-1-yl)ethyl]phenyl]pyridin-2-amine

> <PUBCHEM_IUPAC_TRADITIONAL_NAME>
[6-[4-[2-[4-(8-quinolyl)piperazino]ethyl]phenyl]-2-pyridyl]amine

> <PUBCHEM_IUPAC_INCHI>
InChI=1S/C26H27N5/c27-25-8-2-6-23(29-25)21-11-9-20(10-12-21)13-15-30-16-18-31(19-17-30)24-7-1-4-22-5-3-14-28-26(22)24/h1-12,14H,13,15-19H2,(H2,27,29)

> <PUBCHEM_IUPAC_INCHIKEY>
BTEINZDTJWUOFJ-UHFFFAOYSA-N

> <PUBCHEM_XLOGP3_AA>
4.3

> <PUBCHEM_EXACT_MASS>
409.22664588

> <PUBCHEM_MOLECULAR_FORMULA>
C26H27N5

> <PUBCHEM_MOLECULAR_WEIGHT>
409.5

> <PUBCHEM_OPENEYE_CAN_SMILES>
C1CN(CCN1CCC2=CC=C(C=C2)C3=NC(=CC=C3)N)C4=CC=CC5=C4N=CC=C5

> <PUBCHEM_OPENEYE_ISO_SMILES>
C1CN(CCN1CCC2=CC=C(C=C2)C3=NC(=CC=C3)N)C4=CC=CC5=C4N=CC=C5

> <PUBCHEM_CACTVS_TPSA>
58.3

> <PUBCHEM_MONOISOTOPIC_WEIGHT>
409.22664588

> <PUBCHEM_TOTAL_CHARGE>
0

> <PUBCHEM_HEAVY_ATOM_COUNT>
31

> <PUBCHEM_ATOM_DEF_STEREO_COUNT>
0

> <PUBCHEM_ATOM_UDEF_STEREO_COUNT>
0

> <PUBCHEM_BOND_DEF_STEREO_COUNT>
0

> <PUBCHEM_BOND_UDEF_STEREO_COUNT>
0

> <PUBCHEM_ISOTOPIC_ATOM_COUNT>
0

> <PUBCHEM_COMPONENT_COUNT>
1

> <PUBCHEM_CACTVS_TAUTO_COUNT>
-1

> <PUBCHEM_COORDINATE_TYPE>
1
5
255

> <PUBCHEM_BONDANNOTATIONS>
11  13  8
11  15  8
13  16  8
14  18  8
14  19  8
15  17  8
16  20  8
16  21  8
17  20  8
18  22  8
19  23  8
21  26  8
22  24  8
23  24  8
25  26  8
27  28  8
28  29  8
29  31  8
3  13  8
3  25  8
30  31  8
4  27  8
4  30  8

$$$$
