11452916
  -OEChem-09292322292D

 53 56  0     1  0  0  0  0  0999 V2000
    2.1374    3.3871    0.0000 Cl  0  0  0  0  0  0  0  0  0  0  0  0
    6.4322   -2.6874    0.0000 S   0  0  0  0  0  0  0  0  0  0  0  0
    2.5932    1.3902    0.0000 O   0  0  0  0  0  0  0  0  0  0  0  0
    5.8657   -3.5114    0.0000 O   0  0  0  0  0  0  0  0  0  0  0  0
    6.9987   -1.8633    0.0000 O   0  0  0  0  0  0  0  0  0  0  0  0
    7.0983    3.4690    0.0000 N   0  0  3  0  0  0  0  0  0  0  0  0
    5.6082   -2.1209    0.0000 N   0  0  0  0  0  0  0  0  0  0  0  0
    6.8758    2.4940    0.0000 C   0  0  2  0  0  0  0  0  0  0  0  0
    5.9748    2.0601    0.0000 C   0  0  2  0  0  0  0  0  0  0  0  0
    7.7453    1.9206    0.0000 C   0  0  0  0  0  0  0  0  0  0  0  0
    5.8810    1.0227    0.0000 C   0  0  0  0  0  0  0  0  0  0  0  0
    7.6755    0.8813    0.0000 C   0  0  0  0  0  0  0  0  0  0  0  0
    5.0738    2.4940    0.0000 C   0  0  0  0  0  0  0  0  0  0  0  0
    6.7370    0.4294    0.0000 C   0  0  0  0  0  0  0  0  0  0  0  0
    6.4748    4.2508    0.0000 C   0  0  0  0  0  0  0  0  0  0  0  0
    4.8513    3.4690    0.0000 C   0  0  0  0  0  0  0  0  0  0  0  0
    5.4748    4.2508    0.0000 C   0  0  0  0  0  0  0  0  0  0  0  0
    8.0732    3.6915    0.0000 C   0  0  0  0  0  0  0  0  0  0  0  0
    4.8928    0.5747    0.0000 C   0  0  0  0  0  0  0  0  0  0  0  0
    6.6643   -0.6532    0.0000 C   0  0  0  0  0  0  0  0  0  0  0  0
    4.3213    1.7738    0.0000 C   0  0  0  0  0  0  0  0  0  0  0  0
    3.8608    3.7913    0.0000 C   0  0  0  0  0  0  0  0  0  0  0  0
    5.6868   -1.1240    0.0000 C   0  0  0  0  0  0  0  0  0  0  0  0
    4.7950   -0.5059    0.0000 C   0  0  0  0  0  0  0  0  0  0  0  0
    3.3236    2.0732    0.0000 C   0  0  0  0  0  0  0  0  0  0  0  0
    3.0918    3.0887    0.0000 C   0  0  0  0  0  0  0  0  0  0  0  0
    7.2563   -3.2539    0.0000 C   0  0  0  0  0  0  0  0  0  0  0  0
    7.1777   -4.2508    0.0000 C   0  0  0  0  0  0  0  0  0  0  0  0
    7.6646    2.8106    0.0000 H   0  0  0  0  0  0  0  0  0  0  0  0
    5.2354    1.6408    0.0000 H   0  0  0  0  0  0  0  0  0  0  0  0
    8.3477    1.7738    0.0000 H   0  0  0  0  0  0  0  0  0  0  0  0
    7.9931    2.4890    0.0000 H   0  0  0  0  0  0  0  0  0  0  0  0
    7.8450    0.2849    0.0000 H   0  0  0  0  0  0  0  0  0  0  0  0
    8.2921    0.9462    0.0000 H   0  0  0  0  0  0  0  0  0  0  0  0
    7.0334    4.5198    0.0000 H   0  0  0  0  0  0  0  0  0  0  0  0
    6.3368    4.8552    0.0000 H   0  0  0  0  0  0  0  0  0  0  0  0
    5.6128    4.8552    0.0000 H   0  0  0  0  0  0  0  0  0  0  0  0
    4.9162    4.5198    0.0000 H   0  0  0  0  0  0  0  0  0  0  0  0
    8.2112    3.0870    0.0000 H   0  0  0  0  0  0  0  0  0  0  0  0
    8.6777    3.8294    0.0000 H   0  0  0  0  0  0  0  0  0  0  0  0
    7.9352    4.2959    0.0000 H   0  0  0  0  0  0  0  0  0  0  0  0
    4.3873    0.9338    0.0000 H   0  0  0  0  0  0  0  0  0  0  0  0
    7.1779   -1.0005    0.0000 H   0  0  0  0  0  0  0  0  0  0  0  0
    4.4662    1.1710    0.0000 H   0  0  0  0  0  0  0  0  0  0  0  0
    3.7298    4.3973    0.0000 H   0  0  0  0  0  0  0  0  0  0  0  0
    4.2334   -0.7684    0.0000 H   0  0  0  0  0  0  0  0  0  0  0  0
    5.0485   -2.3877    0.0000 H   0  0  0  0  0  0  0  0  0  0  0  0
    2.0000    1.5707    0.0000 H   0  0  0  0  0  0  0  0  0  0  0  0
    7.8565   -3.4092    0.0000 H   0  0  0  0  0  0  0  0  0  0  0  0
    7.5135   -2.6897    0.0000 H   0  0  0  0  0  0  0  0  0  0  0  0
    6.5596   -4.2021    0.0000 H   0  0  0  0  0  0  0  0  0  0  0  0
    7.1290   -4.8689    0.0000 H   0  0  0  0  0  0  0  0  0  0  0  0
    7.7958   -4.2995    0.0000 H   0  0  0  0  0  0  0  0  0  0  0  0
  1 26  1  0  0  0  0
  2  4  2  0  0  0  0
  2  5  2  0  0  0  0
  2  7  1  0  0  0  0
  2 27  1  0  0  0  0
  3 25  1  0  0  0  0
  3 48  1  0  0  0  0
  6  8  1  0  0  0  0
  6 15  1  0  0  0  0
  6 18  1  0  0  0  0
  7 23  1  0  0  0  0
  7 47  1  0  0  0  0
  8  9  1  0  0  0  0
  8 10  1  0  0  0  0
  8 29  1  6  0  0  0
  9 11  1  0  0  0  0
  9 13  1  0  0  0  0
  9 30  1  1  0  0  0
 10 12  1  0  0  0  0
 10 31  1  0  0  0  0
 10 32  1  0  0  0  0
 11 14  2  0  0  0  0
 11 19  1  0  0  0  0
 12 14  1  0  0  0  0
 12 33  1  0  0  0  0
 12 34  1  0  0  0  0
 13 16  1  0  0  0  0
 13 21  2  0  0  0  0
 14 20  1  0  0  0  0
 15 17  1  0  0  0  0
 15 35  1  0  0  0  0
 15 36  1  0  0  0  0
 16 17  1  0  0  0  0
 16 22  2  0  0  0  0
 17 37  1  0  0  0  0
 17 38  1  0  0  0  0
 18 39  1  0  0  0  0
 18 40  1  0  0  0  0
 18 41  1  0  0  0  0
 19 24  2  0  0  0  0
 19 42  1  0  0  0  0
 20 23  2  0  0  0  0
 20 43  1  0  0  0  0
 21 25  1  0  0  0  0
 21 44  1  0  0  0  0
 22 26  1  0  0  0  0
 22 45  1  0  0  0  0
 23 24  1  0  0  0  0
 24 46  1  0  0  0  0
 25 26  2  0  0  0  0
 27 28  1  0  0  0  0
 27 49  1  0  0  0  0
 27 50  1  0  0  0  0
 28 51  1  0  0  0  0
 28 52  1  0  0  0  0
 28 53  1  0  0  0  0
M  END
> <PUBCHEM_COMPOUND_CID>
11452916

> <PUBCHEM_COMPOUND_CANONICALIZED>
1

> <PUBCHEM_CACTVS_COMPLEXITY>
655

> <PUBCHEM_CACTVS_HBOND_ACCEPTOR>
5

> <PUBCHEM_CACTVS_HBOND_DONOR>
2

> <PUBCHEM_CACTVS_ROTATABLE_BOND>
3

> <PUBCHEM_CACTVS_SUBSKEYS>
AAADceB7MABEAAAAAAAAAAAAAAAAAAAAAAAwYMAABYAAAADBQAAAHgYQSAAADS7F2CSyxoNAAgKAAiRCQHDCAAAgJ0AIiAAOb4gIJiKDk5OEcABk0BGI2AeQ0PMOrAABYAAQCABYAAbAACQQAAAAAAAAAA==

> <PUBCHEM_IUPAC_OPENEYE_NAME>
N-[(6aS,13bR)-11-chloro-12-hydroxy-7-methyl-5,6,6a,8,9,13b-hexahydronaphtho[1,2-a][3]benzazepin-3-yl]ethanesulfonamide

> <PUBCHEM_IUPAC_CAS_NAME>
N-[(6aS,13bR)-11-chloro-12-hydroxy-7-methyl-5,6,6a,8,9,13b-hexahydronaphtho[1,2-a][3]benzazepin-3-yl]ethanesulfonamide

> <PUBCHEM_IUPAC_NAME_MARKUP>
<I>N</I>-[(6<I>a</I><I>S</I>,13<I>b</I><I>R</I>)-11-chloro-12-hydroxy-7-methyl-5,6,6<I>a</I>,8,9,13<I>b</I>-hexahydronaphtho[1,2-a][3]benzazepin-3-yl]ethanesulfonamide

> <PUBCHEM_IUPAC_NAME>
N-[(6aS,13bR)-11-chloro-12-hydroxy-7-methyl-5,6,6a,8,9,13b-hexahydronaphtho[1,2-a][3]benzazepin-3-yl]ethanesulfonamide

> <PUBCHEM_IUPAC_SYSTEMATIC_NAME>
N-[(6aS,13bR)-11-chloranyl-7-methyl-12-oxidanyl-5,6,6a,8,9,13b-hexahydronaphtho[1,2-a][3]benzazepin-3-yl]ethanesulfonamide

> <PUBCHEM_IUPAC_TRADITIONAL_NAME>
N-[(6aS,13bR)-11-chloro-12-hydroxy-7-methyl-5,6,6a,8,9,13b-hexahydronaphtho[1,2-a][3]benzazepin-3-yl]ethanesulfonamide

> <PUBCHEM_IUPAC_INCHI>
InChI=1S/C21H25ClN2O3S/c1-3-28(26,27)23-15-5-6-16-13(10-15)4-7-19-21(16)17-12-20(25)18(22)11-14(17)8-9-24(19)2/h5-6,10-12,19,21,23,25H,3-4,7-9H2,1-2H3/t19-,21+/m0/s1

> <PUBCHEM_IUPAC_INCHIKEY>
FQUQVJCZFGUICL-PZJWPPBQSA-N

> <PUBCHEM_XLOGP3_AA>
3.8

> <PUBCHEM_EXACT_MASS>
420.1274415

> <PUBCHEM_MOLECULAR_FORMULA>
C21H25ClN2O3S

> <PUBCHEM_MOLECULAR_WEIGHT>
421.0

> <PUBCHEM_OPENEYE_CAN_SMILES>
CCS(=O)(=O)NC1=CC2=C(C=C1)C3C(CC2)N(CCC4=CC(=C(C=C34)O)Cl)C

> <PUBCHEM_OPENEYE_ISO_SMILES>
CCS(=O)(=O)NC1=CC2=C(C=C1)[C@H]3[C@H](CC2)N(CCC4=CC(=C(C=C34)O)Cl)C

> <PUBCHEM_CACTVS_TPSA>
78

> <PUBCHEM_MONOISOTOPIC_WEIGHT>
420.1274415

> <PUBCHEM_TOTAL_CHARGE>
0

> <PUBCHEM_HEAVY_ATOM_COUNT>
28

> <PUBCHEM_ATOM_DEF_STEREO_COUNT>
2

> <PUBCHEM_ATOM_UDEF_STEREO_COUNT>
0

> <PUBCHEM_BOND_DEF_STEREO_COUNT>
0

> <PUBCHEM_BOND_UDEF_STEREO_COUNT>
0

> <PUBCHEM_ISOTOPIC_ATOM_COUNT>
0

> <PUBCHEM_COMPONENT_COUNT>
1

> <PUBCHEM_CACTVS_TAUTO_COUNT>
-1

> <PUBCHEM_COORDINATE_TYPE>
1
5
255

> <PUBCHEM_BONDANNOTATIONS>
11  14  8
11  19  8
13  16  8
13  21  8
14  20  8
16  22  8
19  24  8
20  23  8
21  25  8
22  26  8
23  24  8
25  26  8
8  29  6
9  30  5

$$$$
