44622882
  -OEChem-09292322312D

 47 49  0     0  0  0  0  0  0999 V2000
    6.5252    4.2852    0.0000 F   0  0  0  0  0  0  0  0  0  0  0  0
    7.5252    5.2852    0.0000 F   0  0  0  0  0  0  0  0  0  0  0  0
    8.5252    4.2852    0.0000 F   0  0  0  0  0  0  0  0  0  0  0  0
    4.8991   -1.4936    0.0000 O   0  0  0  0  0  0  0  0  0  0  0  0
    7.5252    1.2852    0.0000 N   0  0  0  0  0  0  0  0  0  0  0  0
    6.6591   -1.2148    0.0000 N   0  0  0  0  0  0  0  0  0  0  0  0
    6.1591   -2.7536    0.0000 N   0  0  0  0  0  0  0  0  0  0  0  0
    2.0000   -4.0581    0.0000 N   0  0  0  0  0  0  0  0  0  0  0  0
    7.5252    3.2852    0.0000 C   0  0  0  0  0  0  0  0  0  0  0  0
    6.6591    2.7852    0.0000 C   0  0  0  0  0  0  0  0  0  0  0  0
    8.3912    2.7852    0.0000 C   0  0  0  0  0  0  0  0  0  0  0  0
    6.6591    1.7852    0.0000 C   0  0  0  0  0  0  0  0  0  0  0  0
    8.3912    1.7852    0.0000 C   0  0  0  0  0  0  0  0  0  0  0  0
    7.5252    0.2852    0.0000 C   0  0  0  0  0  0  0  0  0  0  0  0
    6.6591   -0.2148    0.0000 C   0  0  0  0  0  0  0  0  0  0  0  0
    7.5252    4.2852    0.0000 C   0  0  0  0  0  0  0  0  0  0  0  0
    7.4682   -1.8026    0.0000 C   0  0  0  0  0  0  0  0  0  0  0  0
    7.1591   -2.7536    0.0000 C   0  0  0  0  0  0  0  0  0  0  0  0
    5.8501   -1.8026    0.0000 C   0  0  0  0  0  0  0  0  0  0  0  0
    5.5714   -3.5626    0.0000 C   0  0  0  0  0  0  0  0  0  0  0  0
    4.5768   -3.4581    0.0000 C   0  0  0  0  0  0  0  0  0  0  0  0
    5.9781   -4.4762    0.0000 C   0  0  0  0  0  0  0  0  0  0  0  0
    3.9890   -4.2671    0.0000 C   0  0  0  0  0  0  0  0  0  0  0  0
    5.3903   -5.2852    0.0000 C   0  0  0  0  0  0  0  0  0  0  0  0
    4.3958   -5.1807    0.0000 C   0  0  0  0  0  0  0  0  0  0  0  0
    2.9945   -4.1626    0.0000 C  -1  0  0  0  0  0  0  0  0  0  0  0
    8.0621    3.5952    0.0000 H   0  0  0  0  0  0  0  0  0  0  0  0
    6.4471    3.3678    0.0000 H   0  0  0  0  0  0  0  0  0  0  0  0
    6.0486    2.6776    0.0000 H   0  0  0  0  0  0  0  0  0  0  0  0
    9.0018    2.6776    0.0000 H   0  0  0  0  0  0  0  0  0  0  0  0
    8.6032    3.3678    0.0000 H   0  0  0  0  0  0  0  0  0  0  0  0
    6.0486    1.8929    0.0000 H   0  0  0  0  0  0  0  0  0  0  0  0
    6.4471    1.2026    0.0000 H   0  0  0  0  0  0  0  0  0  0  0  0
    8.6032    1.2026    0.0000 H   0  0  0  0  0  0  0  0  0  0  0  0
    9.0018    1.8929    0.0000 H   0  0  0  0  0  0  0  0  0  0  0  0
    7.7372   -0.2974    0.0000 H   0  0  0  0  0  0  0  0  0  0  0  0
    8.1357    0.3929    0.0000 H   0  0  0  0  0  0  0  0  0  0  0  0
    6.4471    0.3678    0.0000 H   0  0  0  0  0  0  0  0  0  0  0  0
    6.0486   -0.3225    0.0000 H   0  0  0  0  0  0  0  0  0  0  0  0
    8.0346   -2.0548    0.0000 H   0  0  0  0  0  0  0  0  0  0  0  0
    7.7782   -1.2656    0.0000 H   0  0  0  0  0  0  0  0  0  0  0  0
    7.0943   -3.3702    0.0000 H   0  0  0  0  0  0  0  0  0  0  0  0
    7.7656   -2.8825    0.0000 H   0  0  0  0  0  0  0  0  0  0  0  0
    4.3246   -2.8917    0.0000 H   0  0  0  0  0  0  0  0  0  0  0  0
    6.5947   -4.5410    0.0000 H   0  0  0  0  0  0  0  0  0  0  0  0
    5.6425   -5.8516    0.0000 H   0  0  0  0  0  0  0  0  0  0  0  0
    4.0314   -5.6823    0.0000 H   0  0  0  0  0  0  0  0  0  0  0  0
  1 16  1  0  0  0  0
  2 16  1  0  0  0  0
  3 16  1  0  0  0  0
  4 19  2  0  0  0  0
  5 12  1  0  0  0  0
  5 13  1  0  0  0  0
  5 14  1  0  0  0  0
  6 15  1  0  0  0  0
  6 17  1  0  0  0  0
  6 19  1  0  0  0  0
  7 18  1  0  0  0  0
  7 19  1  0  0  0  0
  7 20  1  0  0  0  0
  8 26  3  0  0  0  0
  9 10  1  0  0  0  0
  9 11  1  0  0  0  0
  9 16  1  0  0  0  0
  9 27  1  0  0  0  0
 10 12  1  0  0  0  0
 10 28  1  0  0  0  0
 10 29  1  0  0  0  0
 11 13  1  0  0  0  0
 11 30  1  0  0  0  0
 11 31  1  0  0  0  0
 12 32  1  0  0  0  0
 12 33  1  0  0  0  0
 13 34  1  0  0  0  0
 13 35  1  0  0  0  0
 14 15  1  0  0  0  0
 14 36  1  0  0  0  0
 14 37  1  0  0  0  0
 15 38  1  0  0  0  0
 15 39  1  0  0  0  0
 17 18  1  0  0  0  0
 17 40  1  0  0  0  0
 17 41  1  0  0  0  0
 18 42  1  0  0  0  0
 18 43  1  0  0  0  0
 20 21  1  0  0  0  0
 20 22  2  0  0  0  0
 21 23  2  0  0  0  0
 21 44  1  0  0  0  0
 22 24  1  0  0  0  0
 22 45  1  0  0  0  0
 23 25  1  0  0  0  0
 23 26  1  0  0  0  0
 24 25  2  0  0  0  0
 24 46  1  0  0  0  0
 25 47  1  0  0  0  0
M  ISO  1  26  11
M  END
> <PUBCHEM_COMPOUND_CID>
44622882

> <PUBCHEM_COMPOUND_CANONICALIZED>
1

> <PUBCHEM_CACTVS_COMPLEXITY>
550

> <PUBCHEM_CACTVS_HBOND_ACCEPTOR>
6

> <PUBCHEM_CACTVS_HBOND_DONOR>
0

> <PUBCHEM_CACTVS_ROTATABLE_BOND>
4

> <PUBCHEM_CACTVS_SUBSKEYS>
AAADceB7oYAAAAAAAAAAAAAAAAAAAWAAAAA8QAAAAAAAAAABAAAAHwAAAAAADQjBGBQxwIMAAACYBiRCUACiAAAhAgAIiAAIZIiI4CLAkZGUIAhohgLIyC8QgAAOAAAAQAAAAAAAAACAAAAAAAAAAAAAAA==

> <PUBCHEM_IUPAC_OPENEYE_NAME>
3-[2-oxo-3-[2-[4-(trifluoromethyl)-1-piperidyl]ethyl]imidazolidin-1-yl]benzonitrile

> <PUBCHEM_IUPAC_CAS_NAME>
3-[2-oxo-3-[2-[4-(trifluoromethyl)-1-piperidinyl]ethyl]-1-imidazolidinyl]benzonitrile

> <PUBCHEM_IUPAC_NAME_MARKUP>
3-[2-oxo-3-[2-[4-(trifluoromethyl)piperidin-1-yl]ethyl]imidazolidin-1-yl]benzonitrile

> <PUBCHEM_IUPAC_NAME>
3-[2-oxo-3-[2-[4-(trifluoromethyl)piperidin-1-yl]ethyl]imidazolidin-1-yl]benzonitrile

> <PUBCHEM_IUPAC_SYSTEMATIC_NAME>
3-[2-oxidanylidene-3-[2-[4-(trifluoromethyl)piperidin-1-yl]ethyl]imidazolidin-1-yl]benzenecarbonitrile

> <PUBCHEM_IUPAC_TRADITIONAL_NAME>
3-[2-keto-3-[2-[4-(trifluoromethyl)piperidino]ethyl]imidazolidin-1-yl]benzonitrile

> <PUBCHEM_IUPAC_INCHI>
InChI=1S/C18H21F3N4O/c19-18(20,21)15-4-6-23(7-5-15)8-9-24-10-11-25(17(24)26)16-3-1-2-14(12-16)13-22/h1-3,12,15H,4-11H2/i13-1

> <PUBCHEM_IUPAC_INCHIKEY>
ZULQKQGLUORZDC-HSGWXFLFSA-N

> <PUBCHEM_XLOGP3_AA>
2.7

> <PUBCHEM_EXACT_MASS>
365.1781784

> <PUBCHEM_MOLECULAR_FORMULA>
C18H21F3N4O

> <PUBCHEM_MOLECULAR_WEIGHT>
365.4

> <PUBCHEM_OPENEYE_CAN_SMILES>
C1CN(CCC1C(F)(F)F)CCN2CCN(C2=O)C3=CC=CC(=C3)C#N

> <PUBCHEM_OPENEYE_ISO_SMILES>
C1CN(CCC1C(F)(F)F)CCN2CCN(C2=O)C3=CC=CC(=C3)[11C]#N

> <PUBCHEM_CACTVS_TPSA>
50.6

> <PUBCHEM_MONOISOTOPIC_WEIGHT>
365.1781784

> <PUBCHEM_TOTAL_CHARGE>
0

> <PUBCHEM_HEAVY_ATOM_COUNT>
26

> <PUBCHEM_ATOM_DEF_STEREO_COUNT>
0

> <PUBCHEM_ATOM_UDEF_STEREO_COUNT>
0

> <PUBCHEM_BOND_DEF_STEREO_COUNT>
0

> <PUBCHEM_BOND_UDEF_STEREO_COUNT>
0

> <PUBCHEM_ISOTOPIC_ATOM_COUNT>
1

> <PUBCHEM_COMPONENT_COUNT>
1

> <PUBCHEM_CACTVS_TAUTO_COUNT>
-1

> <PUBCHEM_COORDINATE_TYPE>
1
5
255

> <PUBCHEM_BONDANNOTATIONS>
20  21  8
20  22  8
21  23  8
22  24  8
23  25  8
24  25  8

$$$$
