10084583
  -OEChem-09292322152D

 45 47  0     1  0  0  0  0  0999 V2000
    7.3991   -0.1076    0.0000 N   0  0  0  0  0  0  0  0  0  0  0  0
    3.7183    2.1652    0.0000 N   0  0  0  0  0  0  0  0  0  0  0  0
    4.5274    2.7530    0.0000 N   0  0  0  0  0  0  0  0  0  0  0  0
    6.7328    0.6381    0.0000 C   0  0  1  0  0  0  0  0  0  0  0  0
    7.0547    1.6288    0.0000 C   0  0  0  0  0  0  0  0  0  0  0  0
    5.7123    0.4294    0.0000 C   0  0  0  0  0  0  0  0  0  0  0  0
    6.3518    2.3975    0.0000 C   0  0  0  0  0  0  0  0  0  0  0  0
    5.0274    1.2142    0.0000 C   0  0  0  0  0  0  0  0  0  0  0  0
    5.3364    2.1652    0.0000 C   0  0  0  0  0  0  0  0  0  0  0  0
    8.3780    0.0966    0.0000 C   0  0  0  0  0  0  0  0  0  0  0  0
    7.0864   -1.0574    0.0000 C   0  0  0  0  0  0  0  0  0  0  0  0
    4.0274    1.2142    0.0000 C   0  0  0  0  0  0  0  0  0  0  0  0
    9.0443   -0.6492    0.0000 C   0  0  0  0  0  0  0  0  0  0  0  0
    7.7527   -1.8032    0.0000 C   0  0  0  0  0  0  0  0  0  0  0  0
    3.3424    0.4294    0.0000 C   0  0  0  0  0  0  0  0  0  0  0  0
    2.7029    2.3975    0.0000 C   0  0  0  0  0  0  0  0  0  0  0  0
   10.0232   -0.4450    0.0000 C   0  0  0  0  0  0  0  0  0  0  0  0
    7.4400   -2.7530    0.0000 C   0  0  0  0  0  0  0  0  0  0  0  0
    2.3219    0.6381    0.0000 C   0  0  0  0  0  0  0  0  0  0  0  0
    2.0000    1.6288    0.0000 C   0  0  0  0  0  0  0  0  0  0  0  0
    6.5378    0.0496    0.0000 H   0  0  0  0  0  0  0  0  0  0  0  0
    7.6029    1.3391    0.0000 H   0  0  0  0  0  0  0  0  0  0  0  0
    7.4339    2.1193    0.0000 H   0  0  0  0  0  0  0  0  0  0  0  0
    5.1824    0.1077    0.0000 H   0  0  0  0  0  0  0  0  0  0  0  0
    5.9387   -0.1478    0.0000 H   0  0  0  0  0  0  0  0  0  0  0  0
    6.8742    2.7314    0.0000 H   0  0  0  0  0  0  0  0  0  0  0  0
    6.1122    2.9693    0.0000 H   0  0  0  0  0  0  0  0  0  0  0  0
    8.9051    0.4231    0.0000 H   0  0  0  0  0  0  0  0  0  0  0  0
    8.1480    0.6723    0.0000 H   0  0  0  0  0  0  0  0  0  0  0  0
    6.5401   -0.7643    0.0000 H   0  0  0  0  0  0  0  0  0  0  0  0
    6.7028   -1.5445    0.0000 H   0  0  0  0  0  0  0  0  0  0  0  0
    8.5172   -0.9757    0.0000 H   0  0  0  0  0  0  0  0  0  0  0  0
    9.2743   -1.2249    0.0000 H   0  0  0  0  0  0  0  0  0  0  0  0
    8.2990   -2.0963    0.0000 H   0  0  0  0  0  0  0  0  0  0  0  0
    8.1363   -1.3161    0.0000 H   0  0  0  0  0  0  0  0  0  0  0  0
    3.5408   -0.1580    0.0000 H   0  0  0  0  0  0  0  0  0  0  0  0
    2.5182    2.9893    0.0000 H   0  0  0  0  0  0  0  0  0  0  0  0
   10.1498   -1.0520    0.0000 H   0  0  0  0  0  0  0  0  0  0  0  0
   10.6302   -0.3184    0.0000 H   0  0  0  0  0  0  0  0  0  0  0  0
    9.8967    0.1619    0.0000 H   0  0  0  0  0  0  0  0  0  0  0  0
    6.8511   -2.5591    0.0000 H   0  0  0  0  0  0  0  0  0  0  0  0
    7.2461   -3.3419    0.0000 H   0  0  0  0  0  0  0  0  0  0  0  0
    8.0289   -2.9469    0.0000 H   0  0  0  0  0  0  0  0  0  0  0  0
    1.9088    0.1758    0.0000 H   0  0  0  0  0  0  0  0  0  0  0  0
    1.3940    1.7600    0.0000 H   0  0  0  0  0  0  0  0  0  0  0  0
  4  1  1  6  0  0  0
  1 10  1  0  0  0  0
  1 11  1  0  0  0  0
  2  3  1  0  0  0  0
  2 12  1  0  0  0  0
  2 16  1  0  0  0  0
  3  9  2  0  0  0  0
  4  5  1  0  0  0  0
  4  6  1  0  0  0  0
  4 21  1  0  0  0  0
  5  7  1  0  0  0  0
  5 22  1  0  0  0  0
  5 23  1  0  0  0  0
  6  8  1  0  0  0  0
  6 24  1  0  0  0  0
  6 25  1  0  0  0  0
  7  9  1  0  0  0  0
  7 26  1  0  0  0  0
  7 27  1  0  0  0  0
  8  9  1  0  0  0  0
  8 12  2  0  0  0  0
 10 13  1  0  0  0  0
 10 28  1  0  0  0  0
 10 29  1  0  0  0  0
 11 14  1  0  0  0  0
 11 30  1  0  0  0  0
 11 31  1  0  0  0  0
 12 15  1  0  0  0  0
 13 17  1  0  0  0  0
 13 32  1  0  0  0  0
 13 33  1  0  0  0  0
 14 18  1  0  0  0  0
 14 34  1  0  0  0  0
 14 35  1  0  0  0  0
 15 19  2  0  0  0  0
 15 36  1  0  0  0  0
 16 20  2  0  0  0  0
 16 37  1  0  0  0  0
 17 38  1  0  0  0  0
 17 39  1  0  0  0  0
 17 40  1  0  0  0  0
 18 41  1  0  0  0  0
 18 42  1  0  0  0  0
 18 43  1  0  0  0  0
 19 20  1  0  0  0  0
 19 44  1  0  0  0  0
 20 45  1  0  0  0  0
M  END
> <PUBCHEM_COMPOUND_CID>
10084583

> <PUBCHEM_COMPOUND_CANONICALIZED>
1

> <PUBCHEM_CACTVS_COMPLEXITY>
301

> <PUBCHEM_CACTVS_HBOND_ACCEPTOR>
2

> <PUBCHEM_CACTVS_HBOND_DONOR>
0

> <PUBCHEM_CACTVS_ROTATABLE_BOND>
5

> <PUBCHEM_CACTVS_SUBSKEYS>
AAADceB7AAAAAAAAAAAAAAAAAAAAAWAAAAA8QAAAAAAAAFgB4AAAHAAIAAAADCjBHgQ+wLMIEACiAzRnRACShCAxgiAY2CA4ZJgIIOLA0dGEpAhgiADIyAcQgMAOAAAAAAAAAAAAAQCAAAQAAAAAAAAAAA==

> <PUBCHEM_IUPAC_OPENEYE_NAME>
(2S)-N,N-dipropyl-1,2,3,4-tetrahydropyrido[1,2-b]indazol-2-amine

> <PUBCHEM_IUPAC_CAS_NAME>
(2S)-N,N-dipropyl-1,2,3,4-tetrahydropyrido[1,2-b]indazol-2-amine

> <PUBCHEM_IUPAC_NAME_MARKUP>
(2<I>S</I>)-<I>N</I>,<I>N</I>-dipropyl-1,2,3,4-tetrahydropyrido[1,2-b]indazol-2-amine

> <PUBCHEM_IUPAC_NAME>
(2S)-N,N-dipropyl-1,2,3,4-tetrahydropyrido[1,2-b]indazol-2-amine

> <PUBCHEM_IUPAC_SYSTEMATIC_NAME>
(2S)-N,N-dipropyl-1,2,3,4-tetrahydropyrido[1,2-b]indazol-2-amine

> <PUBCHEM_IUPAC_TRADITIONAL_NAME>
dipropyl-[(2S)-1,2,3,4-tetrahydropyrid[1,2-b]indazol-2-yl]amine

> <PUBCHEM_IUPAC_INCHI>
InChI=1S/C17H25N3/c1-3-10-19(11-4-2)14-8-9-16-15(13-14)17-7-5-6-12-20(17)18-16/h5-7,12,14H,3-4,8-11,13H2,1-2H3/t14-/m0/s1

> <PUBCHEM_IUPAC_INCHIKEY>
PWWITWFCENNJEP-AWEZNQCLSA-N

> <PUBCHEM_XLOGP3_AA>
3.6

> <PUBCHEM_EXACT_MASS>
271.204847810

> <PUBCHEM_MOLECULAR_FORMULA>
C17H25N3

> <PUBCHEM_MOLECULAR_WEIGHT>
271.4

> <PUBCHEM_OPENEYE_CAN_SMILES>
CCCN(CCC)C1CCC2=NN3C=CC=CC3=C2C1

> <PUBCHEM_OPENEYE_ISO_SMILES>
CCCN(CCC)[C@H]1CCC2=NN3C=CC=CC3=C2C1

> <PUBCHEM_CACTVS_TPSA>
20.5

> <PUBCHEM_MONOISOTOPIC_WEIGHT>
271.204847810

> <PUBCHEM_TOTAL_CHARGE>
0

> <PUBCHEM_HEAVY_ATOM_COUNT>
20

> <PUBCHEM_ATOM_DEF_STEREO_COUNT>
1

> <PUBCHEM_ATOM_UDEF_STEREO_COUNT>
0

> <PUBCHEM_BOND_DEF_STEREO_COUNT>
0

> <PUBCHEM_BOND_UDEF_STEREO_COUNT>
0

> <PUBCHEM_ISOTOPIC_ATOM_COUNT>
0

> <PUBCHEM_COMPONENT_COUNT>
1

> <PUBCHEM_CACTVS_TAUTO_COUNT>
-1

> <PUBCHEM_COORDINATE_TYPE>
1
5
255

> <PUBCHEM_BONDANNOTATIONS>
4  1  6
12  15  8
15  19  8
16  20  8
19  20  8
2  12  8
2  16  8
2  3  8
3  9  8
8  12  8
8  9  8

$$$$
