44404465
  -OEChem-09292322262D

 79 84  0     1  0  0  0  0  0999 V2000
    3.7665    2.3506    0.0000 S   0  0  0  0  0  0  0  0  0  0  0  0
   10.0847   -0.7500    0.0000 O   0  0  0  0  0  0  0  0  0  0  0  0
   13.5488   -1.7500    0.0000 O   0  0  0  0  0  0  0  0  0  0  0  0
   10.0847   -1.7500    0.0000 O   0  0  0  0  0  0  0  0  0  0  0  0
    7.4704   -0.3046    0.0000 N   0  0  0  0  0  0  0  0  0  0  0  0
   10.9507    0.7500    0.0000 N   0  0  0  0  0  0  0  0  0  0  0  0
    5.7269    0.6753    0.0000 N   0  0  0  0  0  0  0  0  0  0  0  0
    4.7407    2.1527    0.0000 N   0  0  0  0  0  0  0  0  0  0  0  0
   10.9507    2.7500    0.0000 C   0  0  3  0  0  0  0  0  0  0  0  0
   10.0847    1.2500    0.0000 C   0  0  0  0  0  0  0  0  0  0  0  0
   11.8168    2.2500    0.0000 C   0  0  0  0  0  0  0  0  0  0  0  0
   10.0847    2.2500    0.0000 C   0  0  0  0  0  0  0  0  0  0  0  0
   11.8168    1.2500    0.0000 C   0  0  0  0  0  0  0  0  0  0  0  0
    8.3422   -0.7946    0.0000 C   0  0  0  0  0  0  0  0  0  0  0  0
    9.1908    0.7153    0.0000 C   0  0  0  0  0  0  0  0  0  0  0  0
    9.2023   -0.2846    0.0000 C   0  0  0  0  0  0  0  0  0  0  0  0
    7.4588    0.6953    0.0000 C   0  0  0  0  0  0  0  0  0  0  0  0
    6.6102   -0.8146    0.0000 C   0  0  0  0  0  0  0  0  0  0  0  0
    6.5871    1.1853    0.0000 C   0  0  0  0  0  0  0  0  0  0  0  0
    5.7385   -0.3247    0.0000 C   0  0  0  0  0  0  0  0  0  0  0  0
   10.9507    3.7500    0.0000 C   0  0  0  0  0  0  0  0  0  0  0  0
    9.1908    2.7847    0.0000 C   0  0  0  0  0  0  0  0  0  0  0  0
    8.2847    1.2292    0.0000 C   0  0  0  0  0  0  0  0  0  0  0  0
   10.9507   -0.2500    0.0000 C   0  0  0  0  0  0  0  0  0  0  0  0
    8.2847    2.2708    0.0000 C   0  0  0  0  0  0  0  0  0  0  0  0
    4.8552    1.1652    0.0000 C   0  0  0  0  0  0  0  0  0  0  0  0
   11.8168   -0.7500    0.0000 C   0  0  0  0  0  0  0  0  0  0  0  0
    3.9521    0.7497    0.0000 C   0  0  0  0  0  0  0  0  0  0  0  0
   11.8168   -1.7500    0.0000 C   0  0  0  0  0  0  0  0  0  0  0  0
    3.2757    1.4862    0.0000 C   0  0  0  0  0  0  0  0  0  0  0  0
    3.6525   -0.2044    0.0000 C   0  0  0  0  0  0  0  0  0  0  0  0
   12.6828   -2.2500    0.0000 C   0  0  0  0  0  0  0  0  0  0  0  0
   10.9507   -2.2500    0.0000 C   0  0  0  0  0  0  0  0  0  0  0  0
    2.2997    1.2687    0.0000 C   0  0  0  0  0  0  0  0  0  0  0  0
    2.6764   -0.4219    0.0000 C   0  0  0  0  0  0  0  0  0  0  0  0
    2.0000    0.3146    0.0000 C   0  0  0  0  0  0  0  0  0  0  0  0
   12.6828   -3.2500    0.0000 C   0  0  0  0  0  0  0  0  0  0  0  0
   10.9507   -3.2500    0.0000 C   0  0  0  0  0  0  0  0  0  0  0  0
   11.8168   -3.7500    0.0000 C   0  0  0  0  0  0  0  0  0  0  0  0
   14.4148   -2.2500    0.0000 C   0  0  0  0  0  0  0  0  0  0  0  0
    9.2187   -2.2500    0.0000 C   0  0  0  0  0  0  0  0  0  0  0  0
   11.4877    3.0600    0.0000 H   0  0  0  0  0  0  0  0  0  0  0  0
   12.4273    2.1423    0.0000 H   0  0  0  0  0  0  0  0  0  0  0  0
   12.0288    2.8326    0.0000 H   0  0  0  0  0  0  0  0  0  0  0  0
   12.0288    0.6674    0.0000 H   0  0  0  0  0  0  0  0  0  0  0  0
   12.4273    1.3577    0.0000 H   0  0  0  0  0  0  0  0  0  0  0  0
    7.9491   -1.2741    0.0000 H   0  0  0  0  0  0  0  0  0  0  0  0
    8.7461   -1.2649    0.0000 H   0  0  0  0  0  0  0  0  0  0  0  0
    9.4211   -0.8647    0.0000 H   0  0  0  0  0  0  0  0  0  0  0  0
    9.8116   -0.1699    0.0000 H   0  0  0  0  0  0  0  0  0  0  0  0
    8.0706    0.5947    0.0000 H   0  0  0  0  0  0  0  0  0  0  0  0
    7.6641    1.2803    0.0000 H   0  0  0  0  0  0  0  0  0  0  0  0
    6.2172   -1.2941    0.0000 H   0  0  0  0  0  0  0  0  0  0  0  0
    7.0142   -1.2849    0.0000 H   0  0  0  0  0  0  0  0  0  0  0  0
    6.9801    1.6648    0.0000 H   0  0  0  0  0  0  0  0  0  0  0  0
    6.1831    1.6556    0.0000 H   0  0  0  0  0  0  0  0  0  0  0  0
    5.1267   -0.2241    0.0000 H   0  0  0  0  0  0  0  0  0  0  0  0
    5.5332   -0.9097    0.0000 H   0  0  0  0  0  0  0  0  0  0  0  0
   11.5707    3.7500    0.0000 H   0  0  0  0  0  0  0  0  0  0  0  0
   10.9507    4.3700    0.0000 H   0  0  0  0  0  0  0  0  0  0  0  0
   10.3307    3.7500    0.0000 H   0  0  0  0  0  0  0  0  0  0  0  0
    9.1979    3.4046    0.0000 H   0  0  0  0  0  0  0  0  0  0  0  0
    7.7490    0.9171    0.0000 H   0  0  0  0  0  0  0  0  0  0  0  0
    7.7490    2.5829    0.0000 H   0  0  0  0  0  0  0  0  0  0  0  0
   12.4273   -0.8577    0.0000 H   0  0  0  0  0  0  0  0  0  0  0  0
   12.0288   -0.1674    0.0000 H   0  0  0  0  0  0  0  0  0  0  0  0
    4.0718   -0.6610    0.0000 H   0  0  0  0  0  0  0  0  0  0  0  0
    1.8803    1.7253    0.0000 H   0  0  0  0  0  0  0  0  0  0  0  0
    2.4906   -1.0134    0.0000 H   0  0  0  0  0  0  0  0  0  0  0  0
    1.3948    0.1797    0.0000 H   0  0  0  0  0  0  0  0  0  0  0  0
   13.2197   -3.5600    0.0000 H   0  0  0  0  0  0  0  0  0  0  0  0
   10.4138   -3.5600    0.0000 H   0  0  0  0  0  0  0  0  0  0  0  0
   11.8168   -4.3700    0.0000 H   0  0  0  0  0  0  0  0  0  0  0  0
   14.1048   -2.7869    0.0000 H   0  0  0  0  0  0  0  0  0  0  0  0
   14.9518   -2.5600    0.0000 H   0  0  0  0  0  0  0  0  0  0  0  0
   14.7248   -1.7131    0.0000 H   0  0  0  0  0  0  0  0  0  0  0  0
    8.9087   -1.7131    0.0000 H   0  0  0  0  0  0  0  0  0  0  0  0
    8.6817   -2.5600    0.0000 H   0  0  0  0  0  0  0  0  0  0  0  0
    9.5287   -2.7869    0.0000 H   0  0  0  0  0  0  0  0  0  0  0  0
  1  8  1  0  0  0  0
  1 30  1  0  0  0  0
  2 24  2  0  0  0  0
  3 32  1  0  0  0  0
  3 40  1  0  0  0  0
  4 33  1  0  0  0  0
  4 41  1  0  0  0  0
  5 14  1  0  0  0  0
  5 17  1  0  0  0  0
  5 18  1  0  0  0  0
  6 10  1  0  0  0  0
  6 13  1  0  0  0  0
  6 24  1  0  0  0  0
  7 19  1  0  0  0  0
  7 20  1  0  0  0  0
  7 26  1  0  0  0  0
  8 26  2  0  0  0  0
  9 11  1  0  0  0  0
  9 12  1  0  0  0  0
  9 21  1  0  0  0  0
  9 42  1  0  0  0  0
 10 12  1  0  0  0  0
 10 15  2  0  0  0  0
 11 13  1  0  0  0  0
 11 43  1  0  0  0  0
 11 44  1  0  0  0  0
 12 22  2  0  0  0  0
 13 45  1  0  0  0  0
 13 46  1  0  0  0  0
 14 16  1  0  0  0  0
 14 47  1  0  0  0  0
 14 48  1  0  0  0  0
 15 16  1  0  0  0  0
 15 23  1  0  0  0  0
 16 49  1  0  0  0  0
 16 50  1  0  0  0  0
 17 19  1  0  0  0  0
 17 51  1  0  0  0  0
 17 52  1  0  0  0  0
 18 20  1  0  0  0  0
 18 53  1  0  0  0  0
 18 54  1  0  0  0  0
 19 55  1  0  0  0  0
 19 56  1  0  0  0  0
 20 57  1  0  0  0  0
 20 58  1  0  0  0  0
 21 59  1  0  0  0  0
 21 60  1  0  0  0  0
 21 61  1  0  0  0  0
 22 25  1  0  0  0  0
 22 62  1  0  0  0  0
 23 25  2  0  0  0  0
 23 63  1  0  0  0  0
 24 27  1  0  0  0  0
 25 64  1  0  0  0  0
 26 28  1  0  0  0  0
 27 29  1  0  0  0  0
 27 65  1  0  0  0  0
 27 66  1  0  0  0  0
 28 30  1  0  0  0  0
 28 31  2  0  0  0  0
 29 32  2  0  0  0  0
 29 33  1  0  0  0  0
 30 34  2  0  0  0  0
 31 35  1  0  0  0  0
 31 67  1  0  0  0  0
 32 37  1  0  0  0  0
 33 38  2  0  0  0  0
 34 36  1  0  0  0  0
 34 68  1  0  0  0  0
 35 36  2  0  0  0  0
 35 69  1  0  0  0  0
 36 70  1  0  0  0  0
 37 39  2  0  0  0  0
 37 71  1  0  0  0  0
 38 39  1  0  0  0  0
 38 72  1  0  0  0  0
 39 73  1  0  0  0  0
 40 74  1  0  0  0  0
 40 75  1  0  0  0  0
 40 76  1  0  0  0  0
 41 77  1  0  0  0  0
 41 78  1  0  0  0  0
 41 79  1  0  0  0  0
M  END
> <PUBCHEM_COMPOUND_CID>
44404465

> <PUBCHEM_COMPOUND_CANONICALIZED>
1

> <PUBCHEM_CACTVS_COMPLEXITY>
844

> <PUBCHEM_CACTVS_HBOND_ACCEPTOR>
7

> <PUBCHEM_CACTVS_HBOND_DONOR>
0

> <PUBCHEM_CACTVS_ROTATABLE_BOND>
8

> <PUBCHEM_CACTVS_SUBSKEYS>
AAADcfB/sABAAAAAAAAAAAAAAAAAAWAAAAA8eMECAAAAAFix9AAAHgQAQAAADQzB2gYz99MABACsAidycACDCBAhIABJmDkuTJiMZ7LEvZuUMCxlxhfI6Ae66OyOgAACCAAOAAAAAAQQABwAAAAAAAAAAA==

> <PUBCHEM_IUPAC_OPENEYE_NAME>
1-[8-[2-[4-(1,2-benzothiazol-3-yl)piperazin-1-yl]ethyl]-4-methyl-3,4-dihydro-2H-quinolin-1-yl]-2-(2,6-dimethoxyphenyl)ethanone

> <PUBCHEM_IUPAC_CAS_NAME>
1-[8-[2-[4-(1,2-benzothiazol-3-yl)-1-piperazinyl]ethyl]-4-methyl-3,4-dihydro-2H-quinolin-1-yl]-2-(2,6-dimethoxyphenyl)ethanone

> <PUBCHEM_IUPAC_NAME_MARKUP>
1-[8-[2-[4-(1,2-benzothiazol-3-yl)piperazin-1-yl]ethyl]-4-methyl-3,4-dihydro-2<I>H</I>-quinolin-1-yl]-2-(2,6-dimethoxyphenyl)ethanone

> <PUBCHEM_IUPAC_NAME>
1-[8-[2-[4-(1,2-benzothiazol-3-yl)piperazin-1-yl]ethyl]-4-methyl-3,4-dihydro-2H-quinolin-1-yl]-2-(2,6-dimethoxyphenyl)ethanone

> <PUBCHEM_IUPAC_SYSTEMATIC_NAME>
1-[8-[2-[4-(1,2-benzothiazol-3-yl)piperazin-1-yl]ethyl]-4-methyl-3,4-dihydro-2H-quinolin-1-yl]-2-(2,6-dimethoxyphenyl)ethanone

> <PUBCHEM_IUPAC_TRADITIONAL_NAME>
1-[8-[2-[4-(1,2-benzothiazol-3-yl)piperazino]ethyl]-4-methyl-3,4-dihydro-2H-quinolin-1-yl]-2-(2,6-dimethoxyphenyl)ethanone

> <PUBCHEM_IUPAC_INCHI>
InChI=1S/C33H38N4O3S/c1-23-14-17-37(31(38)22-27-28(39-2)11-7-12-29(27)40-3)32-24(8-6-10-25(23)32)15-16-35-18-20-36(21-19-35)33-26-9-4-5-13-30(26)41-34-33/h4-13,23H,14-22H2,1-3H3

> <PUBCHEM_IUPAC_INCHIKEY>
HWPIJKYZIWLKPB-UHFFFAOYSA-N

> <PUBCHEM_XLOGP3_AA>
6.2

> <PUBCHEM_EXACT_MASS>
570.26646226

> <PUBCHEM_MOLECULAR_FORMULA>
C33H38N4O3S

> <PUBCHEM_MOLECULAR_WEIGHT>
570.7

> <PUBCHEM_OPENEYE_CAN_SMILES>
CC1CCN(C2=C(C=CC=C12)CCN3CCN(CC3)C4=NSC5=CC=CC=C54)C(=O)CC6=C(C=CC=C6OC)OC

> <PUBCHEM_OPENEYE_ISO_SMILES>
CC1CCN(C2=C(C=CC=C12)CCN3CCN(CC3)C4=NSC5=CC=CC=C54)C(=O)CC6=C(C=CC=C6OC)OC

> <PUBCHEM_CACTVS_TPSA>
86.4

> <PUBCHEM_MONOISOTOPIC_WEIGHT>
570.26646226

> <PUBCHEM_TOTAL_CHARGE>
0

> <PUBCHEM_HEAVY_ATOM_COUNT>
41

> <PUBCHEM_ATOM_DEF_STEREO_COUNT>
0

> <PUBCHEM_ATOM_UDEF_STEREO_COUNT>
1

> <PUBCHEM_BOND_DEF_STEREO_COUNT>
0

> <PUBCHEM_BOND_UDEF_STEREO_COUNT>
0

> <PUBCHEM_ISOTOPIC_ATOM_COUNT>
0

> <PUBCHEM_COMPONENT_COUNT>
1

> <PUBCHEM_CACTVS_TAUTO_COUNT>
-1

> <PUBCHEM_COORDINATE_TYPE>
1
5
255

> <PUBCHEM_BONDANNOTATIONS>
1  30  8
1  8  8
10  12  8
10  15  8
12  22  8
15  23  8
22  25  8
23  25  8
26  28  8
28  30  8
28  31  8
29  32  8
29  33  8
30  34  8
31  35  8
32  37  8
33  38  8
34  36  8
35  36  8
37  39  8
38  39  8
8  26  8
9  21  3

$$$$
