10586728
  -OEChem-09292322132D

 42 43  0     1  0  0  0  0  0999 V2000
    7.2125   -2.7673    0.0000 F   0  0  0  0  0  0  0  0  0  0  0  0
    3.7320    0.2673    0.0000 N   0  0  3  0  0  0  0  0  0  0  0  0
    4.5981   -0.2327    0.0000 C   0  0  2  0  0  0  0  0  0  0  0  0
    4.5981   -1.2327    0.0000 C   0  0  0  0  0  0  0  0  0  0  0  0
    5.4641    0.2673    0.0000 C   0  0  0  0  0  0  0  0  0  0  0  0
    5.4641   -1.7327    0.0000 C   0  0  0  0  0  0  0  0  0  0  0  0
    2.8660   -0.2327    0.0000 C   0  0  0  0  0  0  0  0  0  0  0  0
    6.3301   -0.2327    0.0000 C   0  0  0  0  0  0  0  0  0  0  0  0
    6.3301   -1.2327    0.0000 C   0  0  0  0  0  0  0  0  0  0  0  0
    3.7320    1.2673    0.0000 C   0  0  0  0  0  0  0  0  0  0  0  0
    2.8660    1.7673    0.0000 C   0  0  0  0  0  0  0  0  0  0  0  0
    2.0000    0.2673    0.0000 C   0  0  0  0  0  0  0  0  0  0  0  0
    2.8660   -1.2327    0.0000 C   0  0  0  0  0  0  0  0  0  0  0  0
    7.2241    0.3020    0.0000 C   0  0  0  0  0  0  0  0  0  0  0  0
    7.2241   -1.7674    0.0000 C   0  0  0  0  0  0  0  0  0  0  0  0
    8.1301   -0.2119    0.0000 C   0  0  0  0  0  0  0  0  0  0  0  0
    8.1301   -1.2535    0.0000 C   0  0  0  0  0  0  0  0  0  0  0  0
    2.8660    2.7673    0.0000 C   0  0  0  0  0  0  0  0  0  0  0  0
    4.5981    0.3873    0.0000 H   0  0  0  0  0  0  0  0  0  0  0  0
    3.9875   -1.1250    0.0000 H   0  0  0  0  0  0  0  0  0  0  0  0
    4.3860   -1.8153    0.0000 H   0  0  0  0  0  0  0  0  0  0  0  0
    5.8626    0.7422    0.0000 H   0  0  0  0  0  0  0  0  0  0  0  0
    5.0656    0.7422    0.0000 H   0  0  0  0  0  0  0  0  0  0  0  0
    5.0656   -2.2076    0.0000 H   0  0  0  0  0  0  0  0  0  0  0  0
    5.8626   -2.2076    0.0000 H   0  0  0  0  0  0  0  0  0  0  0  0
    2.8660    0.3873    0.0000 H   0  0  0  0  0  0  0  0  0  0  0  0
    4.3426    1.1596    0.0000 H   0  0  0  0  0  0  0  0  0  0  0  0
    3.9441    1.8499    0.0000 H   0  0  0  0  0  0  0  0  0  0  0  0
    2.2554    1.8750    0.0000 H   0  0  0  0  0  0  0  0  0  0  0  0
    2.6540    1.1847    0.0000 H   0  0  0  0  0  0  0  0  0  0  0  0
    2.3100    0.8042    0.0000 H   0  0  0  0  0  0  0  0  0  0  0  0
    1.4631    0.5773    0.0000 H   0  0  0  0  0  0  0  0  0  0  0  0
    1.6900   -0.2696    0.0000 H   0  0  0  0  0  0  0  0  0  0  0  0
    2.2460   -1.2327    0.0000 H   0  0  0  0  0  0  0  0  0  0  0  0
    2.8660   -1.8527    0.0000 H   0  0  0  0  0  0  0  0  0  0  0  0
    3.4860   -1.2327    0.0000 H   0  0  0  0  0  0  0  0  0  0  0  0
    7.2169    0.9219    0.0000 H   0  0  0  0  0  0  0  0  0  0  0  0
    8.6659    0.1002    0.0000 H   0  0  0  0  0  0  0  0  0  0  0  0
    8.6659   -1.5656    0.0000 H   0  0  0  0  0  0  0  0  0  0  0  0
    3.4860    2.7673    0.0000 H   0  0  0  0  0  0  0  0  0  0  0  0
    2.8660    3.3873    0.0000 H   0  0  0  0  0  0  0  0  0  0  0  0
    2.2460    2.7673    0.0000 H   0  0  0  0  0  0  0  0  0  0  0  0
  1 15  1  0  0  0  0
  3  2  1  1  0  0  0
  2  7  1  0  0  0  0
  2 10  1  0  0  0  0
  3  4  1  0  0  0  0
  3  5  1  0  0  0  0
  3 19  1  0  0  0  0
  4  6  1  0  0  0  0
  4 20  1  0  0  0  0
  4 21  1  0  0  0  0
  5  8  1  0  0  0  0
  5 22  1  0  0  0  0
  5 23  1  0  0  0  0
  6  9  1  0  0  0  0
  6 24  1  0  0  0  0
  6 25  1  0  0  0  0
  7 12  1  0  0  0  0
  7 13  1  0  0  0  0
  7 26  1  0  0  0  0
  8  9  2  0  0  0  0
  8 14  1  0  0  0  0
  9 15  1  0  0  0  0
 10 11  1  0  0  0  0
 10 27  1  0  0  0  0
 10 28  1  0  0  0  0
 11 18  1  0  0  0  0
 11 29  1  0  0  0  0
 11 30  1  0  0  0  0
 12 31  1  0  0  0  0
 12 32  1  0  0  0  0
 12 33  1  0  0  0  0
 13 34  1  0  0  0  0
 13 35  1  0  0  0  0
 13 36  1  0  0  0  0
 14 16  2  0  0  0  0
 14 37  1  0  0  0  0
 15 17  2  0  0  0  0
 16 17  1  0  0  0  0
 16 38  1  0  0  0  0
 17 39  1  0  0  0  0
 18 40  1  0  0  0  0
 18 41  1  0  0  0  0
 18 42  1  0  0  0  0
M  END
> <PUBCHEM_COMPOUND_CID>
10586728

> <PUBCHEM_COMPOUND_CANONICALIZED>
1

> <PUBCHEM_CACTVS_COMPLEXITY>
254

> <PUBCHEM_CACTVS_HBOND_ACCEPTOR>
2

> <PUBCHEM_CACTVS_HBOND_DONOR>
0

> <PUBCHEM_CACTVS_ROTATABLE_BOND>
4

> <PUBCHEM_CACTVS_SUBSKEYS>
AAADceB6AQAAAAAAAAAAAAAAAAAAAAAAAAAwYAAAAAAAAADBAAAAHQAAAAAADCjBGAwyAIMAAACAAiBCAAACAAAgAAAIiAAIAIgIICKAkRGEIAAggACIiAcQgIAOgAAAAAAQAAAQAACAACAAAAAAAAAAAA==

> <PUBCHEM_IUPAC_OPENEYE_NAME>
(2R)-5-fluoro-N-isopropyl-N-propyl-tetralin-2-amine

> <PUBCHEM_IUPAC_CAS_NAME>
(2R)-5-fluoro-N-propan-2-yl-N-propyl-1,2,3,4-tetrahydronaphthalen-2-amine

> <PUBCHEM_IUPAC_NAME_MARKUP>
(2<I>R</I>)-5-fluoro-<I>N</I>-propan-2-yl-<I>N</I>-propyl-1,2,3,4-tetrahydronaphthalen-2-amine

> <PUBCHEM_IUPAC_NAME>
(2R)-5-fluoro-N-propan-2-yl-N-propyl-1,2,3,4-tetrahydronaphthalen-2-amine

> <PUBCHEM_IUPAC_SYSTEMATIC_NAME>
(2R)-5-fluoranyl-N-propan-2-yl-N-propyl-1,2,3,4-tetrahydronaphthalen-2-amine

> <PUBCHEM_IUPAC_TRADITIONAL_NAME>
[(2R)-5-fluorotetralin-2-yl]-isopropyl-propyl-amine

> <PUBCHEM_IUPAC_INCHI>
InChI=1S/C16H24FN/c1-4-10-18(12(2)3)14-8-9-15-13(11-14)6-5-7-16(15)17/h5-7,12,14H,4,8-11H2,1-3H3/t14-/m1/s1

> <PUBCHEM_IUPAC_INCHIKEY>
LHEQMLMJFATZEM-CQSZACIVSA-N

> <PUBCHEM_XLOGP3_AA>
4.5

> <PUBCHEM_EXACT_MASS>
249.189277932

> <PUBCHEM_MOLECULAR_FORMULA>
C16H24FN

> <PUBCHEM_MOLECULAR_WEIGHT>
249.37

> <PUBCHEM_OPENEYE_CAN_SMILES>
CCCN(C1CCC2=C(C1)C=CC=C2F)C(C)C

> <PUBCHEM_OPENEYE_ISO_SMILES>
CCCN([C@@H]1CCC2=C(C1)C=CC=C2F)C(C)C

> <PUBCHEM_CACTVS_TPSA>
3.2

> <PUBCHEM_MONOISOTOPIC_WEIGHT>
249.189277932

> <PUBCHEM_TOTAL_CHARGE>
0

> <PUBCHEM_HEAVY_ATOM_COUNT>
18

> <PUBCHEM_ATOM_DEF_STEREO_COUNT>
1

> <PUBCHEM_ATOM_UDEF_STEREO_COUNT>
0

> <PUBCHEM_BOND_DEF_STEREO_COUNT>
0

> <PUBCHEM_BOND_UDEF_STEREO_COUNT>
0

> <PUBCHEM_ISOTOPIC_ATOM_COUNT>
0

> <PUBCHEM_COMPONENT_COUNT>
1

> <PUBCHEM_CACTVS_TAUTO_COUNT>
-1

> <PUBCHEM_COORDINATE_TYPE>
1
5
255

> <PUBCHEM_BONDANNOTATIONS>
14  16  8
15  17  8
16  17  8
3  2  5
8  14  8
8  9  8
9  15  8

$$$$
