23202795
  -OEChem-09292322202D

 61 64  0     1  0  0  0  0  0999 V2000
    7.9844   -3.2942    0.0000 S   0  0  0  0  0  0  0  0  0  0  0  0
    4.5204   -1.2942    0.0000 O   0  0  0  0  0  0  0  0  0  0  0  0
    7.4844   -4.1603    0.0000 O   0  0  0  0  0  0  0  0  0  0  0  0
    8.4844   -2.4282    0.0000 O   0  0  0  0  0  0  0  0  0  0  0  0
    5.5714    2.9672    0.0000 N   0  0  3  0  0  0  0  0  0  0  0  0
    5.4434    0.2935    0.0000 N   0  0  0  0  0  0  0  0  0  0  0  0
    4.9836    3.7762    0.0000 C   0  0  3  0  0  0  0  0  0  0  0  0
    5.3903    4.6897    0.0000 C   0  0  0  0  0  0  0  0  0  0  0  0
    6.5659    3.0717    0.0000 C   0  0  0  0  0  0  0  0  0  0  0  0
    6.3848    4.7942    0.0000 C   0  0  0  0  0  0  0  0  0  0  0  0
    6.9726    3.9852    0.0000 C   0  0  0  0  0  0  0  0  0  0  0  0
    5.1646    2.0536    0.0000 C   0  0  0  0  0  0  0  0  0  0  0  0
    3.9890    3.6716    0.0000 C   0  0  0  0  0  0  0  0  0  0  0  0
    5.7524    1.2446    0.0000 C   0  0  0  0  0  0  0  0  0  0  0  0
    3.4013    4.4807    0.0000 C   0  0  0  0  0  0  0  0  0  0  0  0
    3.5823    2.7581    0.0000 C   0  0  0  0  0  0  0  0  0  0  0  0
    6.7524    1.2446    0.0000 C   0  0  0  0  0  0  0  0  0  0  0  0
    6.2524   -0.2942    0.0000 C   0  0  0  0  0  0  0  0  0  0  0  0
    7.0614    0.2935    0.0000 C   0  0  0  0  0  0  0  0  0  0  0  0
    2.4067    4.3761    0.0000 C   0  0  0  0  0  0  0  0  0  0  0  0
    2.5878    2.6536    0.0000 C   0  0  0  0  0  0  0  0  0  0  0  0
    6.2524   -1.2942    0.0000 C   0  0  0  0  0  0  0  0  0  0  0  0
    2.0000    3.4626    0.0000 C   0  0  0  0  0  0  0  0  0  0  0  0
    7.1184   -1.7942    0.0000 C   0  0  0  0  0  0  0  0  0  0  0  0
    5.3864   -1.7942    0.0000 C   0  0  0  0  0  0  0  0  0  0  0  0
    7.1184   -2.7942    0.0000 C   0  0  0  0  0  0  0  0  0  0  0  0
    5.3864   -2.7942    0.0000 C   0  0  0  0  0  0  0  0  0  0  0  0
    6.2524   -3.2942    0.0000 C   0  0  0  0  0  0  0  0  0  0  0  0
    8.8505   -3.7942    0.0000 C   0  0  0  0  0  0  0  0  0  0  0  0
    8.8505   -4.7942    0.0000 C   0  0  0  0  0  0  0  0  0  0  0  0
    3.6543   -1.7942    0.0000 C   0  0  0  0  0  0  0  0  0  0  0  0
    4.7314    3.2098    0.0000 H   0  0  0  0  0  0  0  0  0  0  0  0
    5.4336    5.3082    0.0000 H   0  0  0  0  0  0  0  0  0  0  0  0
    4.7887    4.8397    0.0000 H   0  0  0  0  0  0  0  0  0  0  0  0
    6.5226    2.4532    0.0000 H   0  0  0  0  0  0  0  0  0  0  0  0
    7.1675    2.9217    0.0000 H   0  0  0  0  0  0  0  0  0  0  0  0
    6.9421    5.0660    0.0000 H   0  0  0  0  0  0  0  0  0  0  0  0
    6.2139    5.3902    0.0000 H   0  0  0  0  0  0  0  0  0  0  0  0
    7.4866    3.6385    0.0000 H   0  0  0  0  0  0  0  0  0  0  0  0
    7.4033    4.4312    0.0000 H   0  0  0  0  0  0  0  0  0  0  0  0
    4.6506    2.4003    0.0000 H   0  0  0  0  0  0  0  0  0  0  0  0
    4.7339    1.6076    0.0000 H   0  0  0  0  0  0  0  0  0  0  0  0
    3.6534    5.0471    0.0000 H   0  0  0  0  0  0  0  0  0  0  0  0
    3.9467    2.2565    0.0000 H   0  0  0  0  0  0  0  0  0  0  0  0
    4.8537    0.1019    0.0000 H   0  0  0  0  0  0  0  0  0  0  0  0
    7.1168    1.7462    0.0000 H   0  0  0  0  0  0  0  0  0  0  0  0
    7.6511    0.1019    0.0000 H   0  0  0  0  0  0  0  0  0  0  0  0
    2.0423    4.8777    0.0000 H   0  0  0  0  0  0  0  0  0  0  0  0
    2.3356    2.0872    0.0000 H   0  0  0  0  0  0  0  0  0  0  0  0
    1.3834    3.3978    0.0000 H   0  0  0  0  0  0  0  0  0  0  0  0
    7.6554   -1.4842    0.0000 H   0  0  0  0  0  0  0  0  0  0  0  0
    4.8494   -3.1042    0.0000 H   0  0  0  0  0  0  0  0  0  0  0  0
    6.2524   -3.9142    0.0000 H   0  0  0  0  0  0  0  0  0  0  0  0
    9.4611   -3.9019    0.0000 H   0  0  0  0  0  0  0  0  0  0  0  0
    9.0625   -3.2116    0.0000 H   0  0  0  0  0  0  0  0  0  0  0  0
    8.2305   -4.7942    0.0000 H   0  0  0  0  0  0  0  0  0  0  0  0
    8.8505   -5.4142    0.0000 H   0  0  0  0  0  0  0  0  0  0  0  0
    9.4705   -4.7942    0.0000 H   0  0  0  0  0  0  0  0  0  0  0  0
    3.3443   -1.2573    0.0000 H   0  0  0  0  0  0  0  0  0  0  0  0
    3.1174   -2.1042    0.0000 H   0  0  0  0  0  0  0  0  0  0  0  0
    3.9643   -2.3312    0.0000 H   0  0  0  0  0  0  0  0  0  0  0  0
  1  3  2  0  0  0  0
  1  4  2  0  0  0  0
  1 26  1  0  0  0  0
  1 29  1  0  0  0  0
  2 25  1  0  0  0  0
  2 31  1  0  0  0  0
  5  7  1  0  0  0  0
  5  9  1  0  0  0  0
  5 12  1  0  0  0  0
  6 14  1  0  0  0  0
  6 18  1  0  0  0  0
  6 45  1  0  0  0  0
  7  8  1  0  0  0  0
  7 13  1  0  0  0  0
  7 32  1  0  0  0  0
  8 10  1  0  0  0  0
  8 33  1  0  0  0  0
  8 34  1  0  0  0  0
  9 11  1  0  0  0  0
  9 35  1  0  0  0  0
  9 36  1  0  0  0  0
 10 11  1  0  0  0  0
 10 37  1  0  0  0  0
 10 38  1  0  0  0  0
 11 39  1  0  0  0  0
 11 40  1  0  0  0  0
 12 14  1  0  0  0  0
 12 41  1  0  0  0  0
 12 42  1  0  0  0  0
 13 15  2  0  0  0  0
 13 16  1  0  0  0  0
 14 17  2  0  0  0  0
 15 20  1  0  0  0  0
 15 43  1  0  0  0  0
 16 21  2  0  0  0  0
 16 44  1  0  0  0  0
 17 19  1  0  0  0  0
 17 46  1  0  0  0  0
 18 19  2  0  0  0  0
 18 22  1  0  0  0  0
 19 47  1  0  0  0  0
 20 23  2  0  0  0  0
 20 48  1  0  0  0  0
 21 23  1  0  0  0  0
 21 49  1  0  0  0  0
 22 24  1  0  0  0  0
 22 25  2  0  0  0  0
 23 50  1  0  0  0  0
 24 26  2  0  0  0  0
 24 51  1  0  0  0  0
 25 27  1  0  0  0  0
 26 28  1  0  0  0  0
 27 28  2  0  0  0  0
 27 52  1  0  0  0  0
 28 53  1  0  0  0  0
 29 30  1  0  0  0  0
 29 54  1  0  0  0  0
 29 55  1  0  0  0  0
 30 56  1  0  0  0  0
 30 57  1  0  0  0  0
 30 58  1  0  0  0  0
 31 59  1  0  0  0  0
 31 60  1  0  0  0  0
 31 61  1  0  0  0  0
M  END
> <PUBCHEM_COMPOUND_CID>
23202795

> <PUBCHEM_COMPOUND_CANONICALIZED>
1

> <PUBCHEM_CACTVS_COMPLEXITY>
658

> <PUBCHEM_CACTVS_HBOND_ACCEPTOR>
4

> <PUBCHEM_CACTVS_HBOND_DONOR>
1

> <PUBCHEM_CACTVS_ROTATABLE_BOND>
7

> <PUBCHEM_CACTVS_SUBSKEYS>
AAADceB7MABAAAAAAAAAAAAAAAAAAWAAAAA8YIAAAAAAAAAB0AAAHgQQAAAADCzF3gayh5PJlAqgAyRiRHDCiCAhKjAImTg+bJgMZuLksZuUMChm0BHo6AeQwOAOAIAAgAAIAAABAAEAABAAAAAAAAAAAA==

> <PUBCHEM_IUPAC_OPENEYE_NAME>
1-[[5-(5-ethylsulfonyl-2-methoxy-phenyl)-1H-pyrrol-2-yl]methyl]-2-phenyl-piperidine

> <PUBCHEM_IUPAC_CAS_NAME>
1-[[5-(5-ethylsulfonyl-2-methoxyphenyl)-1H-pyrrol-2-yl]methyl]-2-phenylpiperidine

> <PUBCHEM_IUPAC_NAME_MARKUP>
1-[[5-(5-ethylsulfonyl-2-methoxyphenyl)-1<I>H</I>-pyrrol-2-yl]methyl]-2-phenylpiperidine

> <PUBCHEM_IUPAC_NAME>
1-[[5-(5-ethylsulfonyl-2-methoxyphenyl)-1H-pyrrol-2-yl]methyl]-2-phenylpiperidine

> <PUBCHEM_IUPAC_SYSTEMATIC_NAME>
1-[[5-(5-ethylsulfonyl-2-methoxy-phenyl)-1H-pyrrol-2-yl]methyl]-2-phenyl-piperidine

> <PUBCHEM_IUPAC_TRADITIONAL_NAME>
1-[[5-(5-esyl-2-methoxy-phenyl)-1H-pyrrol-2-yl]methyl]-2-phenyl-piperidine

> <PUBCHEM_IUPAC_INCHI>
InChI=1S/C25H30N2O3S/c1-3-31(28,29)21-13-15-25(30-2)22(17-21)23-14-12-20(26-23)18-27-16-8-7-11-24(27)19-9-5-4-6-10-19/h4-6,9-10,12-15,17,24,26H,3,7-8,11,16,18H2,1-2H3

> <PUBCHEM_IUPAC_INCHIKEY>
SKMONACLVOEHQQ-UHFFFAOYSA-N

> <PUBCHEM_XLOGP3_AA>
4.2

> <PUBCHEM_EXACT_MASS>
438.19771400

> <PUBCHEM_MOLECULAR_FORMULA>
C25H30N2O3S

> <PUBCHEM_MOLECULAR_WEIGHT>
438.6

> <PUBCHEM_OPENEYE_CAN_SMILES>
CCS(=O)(=O)C1=CC(=C(C=C1)OC)C2=CC=C(N2)CN3CCCCC3C4=CC=CC=C4

> <PUBCHEM_OPENEYE_ISO_SMILES>
CCS(=O)(=O)C1=CC(=C(C=C1)OC)C2=CC=C(N2)CN3CCCCC3C4=CC=CC=C4

> <PUBCHEM_CACTVS_TPSA>
70.8

> <PUBCHEM_MONOISOTOPIC_WEIGHT>
438.19771400

> <PUBCHEM_TOTAL_CHARGE>
0

> <PUBCHEM_HEAVY_ATOM_COUNT>
31

> <PUBCHEM_ATOM_DEF_STEREO_COUNT>
0

> <PUBCHEM_ATOM_UDEF_STEREO_COUNT>
1

> <PUBCHEM_BOND_DEF_STEREO_COUNT>
0

> <PUBCHEM_BOND_UDEF_STEREO_COUNT>
0

> <PUBCHEM_ISOTOPIC_ATOM_COUNT>
0

> <PUBCHEM_COMPONENT_COUNT>
1

> <PUBCHEM_CACTVS_TAUTO_COUNT>
-1

> <PUBCHEM_COORDINATE_TYPE>
1
5
255

> <PUBCHEM_BONDANNOTATIONS>
13  15  8
13  16  8
14  17  8
15  20  8
16  21  8
17  19  8
18  19  8
20  23  8
21  23  8
22  24  8
22  25  8
24  26  8
25  27  8
26  28  8
27  28  8
6  14  8
6  18  8
7  13  3

$$$$
