162659730
  -OEChem-09292322422D

 69 73  0     1  0  0  0  0  0999 V2000
   15.6166    1.2856    0.0000 Cl  0  0  0  0  0  0  0  0  0  0  0  0
    4.9889    1.1507    0.0000 O   0  0  0  0  0  0  0  0  0  0  0  0
    4.9889   -2.3598    0.0000 O   0  0  0  0  0  0  0  0  0  0  0  0
    5.2619   -0.6046    0.0000 N   0  0  0  0  0  0  0  0  0  0  0  0
   10.7619    0.2614    0.0000 N   0  0  3  0  0  0  0  0  0  0  0  0
    6.2619   -0.6046    0.0000 C   0  0  0  0  0  0  0  0  0  0  0  0
    3.7320   -0.1046    0.0000 C   0  0  1  0  0  0  0  0  0  0  0  0
    3.7320   -1.1046    0.0000 C   0  0  2  0  0  0  0  0  0  0  0  0
    8.2619   -0.6046    0.0000 C   0  0  0  0  0  0  0  0  0  0  0  0
    6.7619   -1.4706    0.0000 C   0  0  0  0  0  0  0  0  0  0  0  0
    6.7619    0.2614    0.0000 C   0  0  0  0  0  0  0  0  0  0  0  0
    7.7619   -1.4706    0.0000 C   0  0  0  0  0  0  0  0  0  0  0  0
    7.7619    0.2614    0.0000 C   0  0  0  0  0  0  0  0  0  0  0  0
    2.8660    0.3954    0.0000 C   0  0  0  0  0  0  0  0  0  0  0  0
    2.8660   -1.6046    0.0000 C   0  0  0  0  0  0  0  0  0  0  0  0
    4.6783    0.2001    0.0000 C   0  0  0  0  0  0  0  0  0  0  0  0
    4.6783   -1.4093    0.0000 C   0  0  0  0  0  0  0  0  0  0  0  0
    2.0000   -0.1046    0.0000 C   0  0  0  0  0  0  0  0  0  0  0  0
    2.0000   -1.1046    0.0000 C   0  0  0  0  0  0  0  0  0  0  0  0
    9.2619   -0.6046    0.0000 C   0  0  0  0  0  0  0  0  0  0  0  0
    9.7619    0.2614    0.0000 C   0  0  0  0  0  0  0  0  0  0  0  0
   11.1958    1.1624    0.0000 C   0  0  0  0  0  0  0  0  0  0  0  0
   11.1958   -0.6395    0.0000 C   0  0  0  0  0  0  0  0  0  0  0  0
   12.1707    1.3849    0.0000 C   0  0  1  0  0  0  0  0  0  0  0  0
   12.1707   -0.8621    0.0000 C   0  0  0  0  0  0  0  0  0  0  0  0
   12.9525    0.7614    0.0000 C   0  0  0  0  0  0  0  0  0  0  0  0
   12.9525   -0.2386    0.0000 C   0  0  0  0  0  0  0  0  0  0  0  0
   12.3932    2.3598    0.0000 C   0  0  0  0  0  0  0  0  0  0  0  0
   13.8465    1.2961    0.0000 C   0  0  0  0  0  0  0  0  0  0  0  0
   13.8465   -0.7732    0.0000 C   0  0  0  0  0  0  0  0  0  0  0  0
   14.7525    0.7822    0.0000 C   0  0  0  0  0  0  0  0  0  0  0  0
   14.7525   -0.2594    0.0000 C   0  0  0  0  0  0  0  0  0  0  0  0
    5.9519   -1.1415    0.0000 H   0  0  0  0  0  0  0  0  0  0  0  0
    3.8220    0.7406    0.0000 H   0  0  0  0  0  0  0  0  0  0  0  0
    3.8220   -1.9498    0.0000 H   0  0  0  0  0  0  0  0  0  0  0  0
    8.5719   -1.1415    0.0000 H   0  0  0  0  0  0  0  0  0  0  0  0
    6.1793   -1.6827    0.0000 H   0  0  0  0  0  0  0  0  0  0  0  0
    6.8695   -2.0812    0.0000 H   0  0  0  0  0  0  0  0  0  0  0  0
    6.8695    0.8720    0.0000 H   0  0  0  0  0  0  0  0  0  0  0  0
    6.1793    0.4735    0.0000 H   0  0  0  0  0  0  0  0  0  0  0  0
    7.6542   -2.0812    0.0000 H   0  0  0  0  0  0  0  0  0  0  0  0
    8.3445   -1.6827    0.0000 H   0  0  0  0  0  0  0  0  0  0  0  0
    8.3445    0.4735    0.0000 H   0  0  0  0  0  0  0  0  0  0  0  0
    7.6542    0.8720    0.0000 H   0  0  0  0  0  0  0  0  0  0  0  0
    3.2646    0.8704    0.0000 H   0  0  0  0  0  0  0  0  0  0  0  0
    2.4675    0.8704    0.0000 H   0  0  0  0  0  0  0  0  0  0  0  0
    2.4675   -2.0795    0.0000 H   0  0  0  0  0  0  0  0  0  0  0  0
    3.2646   -2.0795    0.0000 H   0  0  0  0  0  0  0  0  0  0  0  0
    1.7880    0.4780    0.0000 H   0  0  0  0  0  0  0  0  0  0  0  0
    1.3894   -0.2123    0.0000 H   0  0  0  0  0  0  0  0  0  0  0  0
    1.3894   -0.9969    0.0000 H   0  0  0  0  0  0  0  0  0  0  0  0
    1.7880   -1.6872    0.0000 H   0  0  0  0  0  0  0  0  0  0  0  0
    9.1542   -1.2152    0.0000 H   0  0  0  0  0  0  0  0  0  0  0  0
    9.8445   -0.8166    0.0000 H   0  0  0  0  0  0  0  0  0  0  0  0
    9.8695    0.8720    0.0000 H   0  0  0  0  0  0  0  0  0  0  0  0
    9.1793    0.4735    0.0000 H   0  0  0  0  0  0  0  0  0  0  0  0
   11.1958    1.7824    0.0000 H   0  0  0  0  0  0  0  0  0  0  0  0
   10.5913    1.3004    0.0000 H   0  0  0  0  0  0  0  0  0  0  0  0
   10.5913   -0.7775    0.0000 H   0  0  0  0  0  0  0  0  0  0  0  0
   11.1958   -1.2595    0.0000 H   0  0  0  0  0  0  0  0  0  0  0  0
   12.7559    1.5897    0.0000 H   0  0  0  0  0  0  0  0  0  0  0  0
   11.9017   -1.4207    0.0000 H   0  0  0  0  0  0  0  0  0  0  0  0
   12.6554   -1.2486    0.0000 H   0  0  0  0  0  0  0  0  0  0  0  0
   12.9977    2.2219    0.0000 H   0  0  0  0  0  0  0  0  0  0  0  0
   12.5312    2.9643    0.0000 H   0  0  0  0  0  0  0  0  0  0  0  0
   11.7888    2.4978    0.0000 H   0  0  0  0  0  0  0  0  0  0  0  0
   13.8393    1.9160    0.0000 H   0  0  0  0  0  0  0  0  0  0  0  0
   13.8393   -1.3932    0.0000 H   0  0  0  0  0  0  0  0  0  0  0  0
   15.2883   -0.5715    0.0000 H   0  0  0  0  0  0  0  0  0  0  0  0
  1 31  1  0  0  0  0
  2 16  2  0  0  0  0
  3 17  2  0  0  0  0
  4  6  1  0  0  0  0
  4 16  1  0  0  0  0
  4 17  1  0  0  0  0
  5 21  1  0  0  0  0
  5 22  1  0  0  0  0
  5 23  1  0  0  0  0
  6 10  1  0  0  0  0
  6 11  1  0  0  0  0
  6 33  1  0  0  0  0
  7  8  1  0  0  0  0
  7 14  1  0  0  0  0
  7 16  1  0  0  0  0
  7 34  1  6  0  0  0
  8 15  1  0  0  0  0
  8 17  1  0  0  0  0
  8 35  1  6  0  0  0
  9 12  1  0  0  0  0
  9 13  1  0  0  0  0
  9 20  1  0  0  0  0
  9 36  1  0  0  0  0
 10 12  1  0  0  0  0
 10 37  1  0  0  0  0
 10 38  1  0  0  0  0
 11 13  1  0  0  0  0
 11 39  1  0  0  0  0
 11 40  1  0  0  0  0
 12 41  1  0  0  0  0
 12 42  1  0  0  0  0
 13 43  1  0  0  0  0
 13 44  1  0  0  0  0
 14 18  1  0  0  0  0
 14 45  1  0  0  0  0
 14 46  1  0  0  0  0
 15 19  1  0  0  0  0
 15 47  1  0  0  0  0
 15 48  1  0  0  0  0
 18 19  1  0  0  0  0
 18 49  1  0  0  0  0
 18 50  1  0  0  0  0
 19 51  1  0  0  0  0
 19 52  1  0  0  0  0
 20 21  1  0  0  0  0
 20 53  1  0  0  0  0
 20 54  1  0  0  0  0
 21 55  1  0  0  0  0
 21 56  1  0  0  0  0
 22 24  1  0  0  0  0
 22 57  1  0  0  0  0
 22 58  1  0  0  0  0
 23 25  1  0  0  0  0
 23 59  1  0  0  0  0
 23 60  1  0  0  0  0
 24 26  1  0  0  0  0
 24 28  1  6  0  0  0
 24 61  1  0  0  0  0
 25 27  1  0  0  0  0
 25 62  1  0  0  0  0
 25 63  1  0  0  0  0
 26 27  2  0  0  0  0
 26 29  1  0  0  0  0
 27 30  1  0  0  0  0
 28 64  1  0  0  0  0
 28 65  1  0  0  0  0
 28 66  1  0  0  0  0
 29 31  2  0  0  0  0
 29 67  1  0  0  0  0
 30 32  2  0  0  0  0
 30 68  1  0  0  0  0
 31 32  1  0  0  0  0
 32 69  1  0  0  0  0
M  END
> <PUBCHEM_COMPOUND_CID>
162659730

> <PUBCHEM_COMPOUND_CANONICALIZED>
1

> <PUBCHEM_CACTVS_COMPLEXITY>
667

> <PUBCHEM_CACTVS_HBOND_ACCEPTOR>
3

> <PUBCHEM_CACTVS_HBOND_DONOR>
0

> <PUBCHEM_CACTVS_ROTATABLE_BOND>
4

> <PUBCHEM_CACTVS_SUBSKEYS>
AAADcfB7MAAEAAAAAAAAAAAAAAAAAWAAAAAwYMAABYAAAFgBAAAAHgIAAAAADSrBmCQyAIMAAACIAiFSEAACAAAgBQAIiAEIAogIIDKBkxGEIAAghiCIiAcdiMCOhAAAIAAQAAAYAABAACAAAAAAAAAAAA==

> <PUBCHEM_IUPAC_OPENEYE_NAME>
(3aR,7aS)-2-[4-[2-[(5R)-7-chloro-5-methyl-1,2,4,5-tetrahydro-3-benzazepin-3-yl]ethyl]cyclohexyl]-3a,4,5,6,7,7a-hexahydroisoindole-1,3-dione

> <PUBCHEM_IUPAC_CAS_NAME>
(3aR,7aS)-2-[4-[2-[(5R)-7-chloro-5-methyl-1,2,4,5-tetrahydro-3-benzazepin-3-yl]ethyl]cyclohexyl]-3a,4,5,6,7,7a-hexahydroisoindole-1,3-dione

> <PUBCHEM_IUPAC_NAME_MARKUP>
(3<I>a</I><I>R</I>,7<I>a</I><I>S</I>)-2-[4-[2-[(5<I>R</I>)-7-chloro-5-methyl-1,2,4,5-tetrahydro-3-benzazepin-3-yl]ethyl]cyclohexyl]-3<I>a</I>,4,5,6,7,7<I>a</I>-hexahydroisoindole-1,3-dione

> <PUBCHEM_IUPAC_NAME>
(3aR,7aS)-2-[4-[2-[(5R)-7-chloro-5-methyl-1,2,4,5-tetrahydro-3-benzazepin-3-yl]ethyl]cyclohexyl]-3a,4,5,6,7,7a-hexahydroisoindole-1,3-dione

> <PUBCHEM_IUPAC_SYSTEMATIC_NAME>
(3aR,7aS)-2-[4-[2-[(5R)-7-chloranyl-5-methyl-1,2,4,5-tetrahydro-3-benzazepin-3-yl]ethyl]cyclohexyl]-3a,4,5,6,7,7a-hexahydroisoindole-1,3-dione

> <PUBCHEM_IUPAC_TRADITIONAL_NAME>
(3aR,7aS)-2-[4-[2-[(5R)-7-chloro-5-methyl-1,2,4,5-tetrahydro-3-benzazepin-3-yl]ethyl]cyclohexyl]-3a,4,5,6,7,7a-hexahydroisoindole-1,3-quinone

> <PUBCHEM_IUPAC_INCHI>
InChI=1S/C27H37ClN2O2/c1-18-17-29(15-13-20-8-9-21(28)16-25(18)20)14-12-19-6-10-22(11-7-19)30-26(31)23-4-2-3-5-24(23)27(30)32/h8-9,16,18-19,22-24H,2-7,10-15,17H2,1H3/t18-,19?,22?,23-,24+/m0/s1

> <PUBCHEM_IUPAC_INCHIKEY>
DGWVDYZYSAQNNO-YFGCXVPKSA-N

> <PUBCHEM_XLOGP3_AA>
5.7

> <PUBCHEM_EXACT_MASS>
456.2543561

> <PUBCHEM_MOLECULAR_FORMULA>
C27H37ClN2O2

> <PUBCHEM_MOLECULAR_WEIGHT>
457.0

> <PUBCHEM_OPENEYE_CAN_SMILES>
CC1CN(CCC2=C1C=C(C=C2)Cl)CCC3CCC(CC3)N4C(=O)C5CCCCC5C4=O

> <PUBCHEM_OPENEYE_ISO_SMILES>
C[C@H]1CN(CCC2=C1C=C(C=C2)Cl)CCC3CCC(CC3)N4C(=O)[C@@H]5CCCC[C@@H]5C4=O

> <PUBCHEM_CACTVS_TPSA>
40.6

> <PUBCHEM_MONOISOTOPIC_WEIGHT>
456.2543561

> <PUBCHEM_TOTAL_CHARGE>
0

> <PUBCHEM_HEAVY_ATOM_COUNT>
32

> <PUBCHEM_ATOM_DEF_STEREO_COUNT>
3

> <PUBCHEM_ATOM_UDEF_STEREO_COUNT>
0

> <PUBCHEM_BOND_DEF_STEREO_COUNT>
0

> <PUBCHEM_BOND_UDEF_STEREO_COUNT>
0

> <PUBCHEM_ISOTOPIC_ATOM_COUNT>
0

> <PUBCHEM_COMPONENT_COUNT>
1

> <PUBCHEM_CACTVS_TAUTO_COUNT>
-1

> <PUBCHEM_COORDINATE_TYPE>
1
5
255

> <PUBCHEM_BONDANNOTATIONS>
24  28  6
26  27  8
26  29  8
27  30  8
29  31  8
30  32  8
31  32  8
7  34  6
8  35  6

$$$$
