44578976
  -OEChem-09292322032D

 61 65  0     0  0  0  0  0  0999 V2000
    6.2619   -4.4579    0.0000 O   0  0  0  0  0  0  0  0  0  0  0  0
    7.7849    5.8520    0.0000 O   0  5  0  0  0  0  0  0  0  0  0  0
    6.4957    4.6953    0.0000 O   0  0  0  0  0  0  0  0  0  0  0  0
    5.6103   -0.8016    0.0000 N   0  0  0  0  0  0  0  0  0  0  0  0
    6.5422    2.0499    0.0000 N   0  0  0  0  0  0  0  0  0  0  0  0
    4.6783   -3.6532    0.0000 N   0  0  0  0  0  0  0  0  0  0  0  0
    4.6783   -5.2627    0.0000 N   0  0  0  0  0  0  0  0  0  0  0  0
    7.4742    4.9015    0.0000 N   0  3  0  0  0  0  0  0  0  0  0  0
    5.9209    0.1489    0.0000 C   0  0  0  0  0  0  0  0  0  0  0  0
    4.9889   -2.7027    0.0000 C   0  0  0  0  0  0  0  0  0  0  0  0
    4.6318   -1.0079    0.0000 C   0  0  0  0  0  0  0  0  0  0  0  0
    6.2781   -1.5460    0.0000 C   0  0  0  0  0  0  0  0  0  0  0  0
    5.2531    0.8932    0.0000 C   0  0  0  0  0  0  0  0  0  0  0  0
    6.8994    0.3551    0.0000 C   0  0  0  0  0  0  0  0  0  0  0  0
    4.3211   -1.9584    0.0000 C   0  0  0  0  0  0  0  0  0  0  0  0
    5.9674   -2.4965    0.0000 C   0  0  0  0  0  0  0  0  0  0  0  0
    5.5637    1.8437    0.0000 C   0  0  0  0  0  0  0  0  0  0  0  0
    7.2101    1.3056    0.0000 C   0  0  0  0  0  0  0  0  0  0  0  0
    6.8529    3.0004    0.0000 C   0  0  0  0  0  0  0  0  0  0  0  0
    3.7320   -3.9579    0.0000 C   0  0  0  0  0  0  0  0  0  0  0  0
    5.2619   -4.4579    0.0000 C   0  0  0  0  0  0  0  0  0  0  0  0
    3.7320   -4.9579    0.0000 C   0  0  0  0  0  0  0  0  0  0  0  0
    7.8314    3.2066    0.0000 C   0  0  0  0  0  0  0  0  0  0  0  0
    2.8660   -3.4579    0.0000 C   0  0  0  0  0  0  0  0  0  0  0  0
    2.8660   -5.4579    0.0000 C   0  0  0  0  0  0  0  0  0  0  0  0
    8.1421    4.1572    0.0000 C   0  0  0  0  0  0  0  0  0  0  0  0
    8.4993    2.4623    0.0000 C   0  0  0  0  0  0  0  0  0  0  0  0
    2.0000   -3.9579    0.0000 C   0  0  0  0  0  0  0  0  0  0  0  0
    2.0000   -4.9579    0.0000 C   0  0  0  0  0  0  0  0  0  0  0  0
    9.1206    4.3634    0.0000 C   0  0  0  0  0  0  0  0  0  0  0  0
    9.4778    2.6686    0.0000 C   0  0  0  0  0  0  0  0  0  0  0  0
    9.7884    3.6191    0.0000 C   0  0  0  0  0  0  0  0  0  0  0  0
    6.3350   -0.3126    0.0000 H   0  0  0  0  0  0  0  0  0  0  0  0
    5.4030   -3.1641    0.0000 H   0  0  0  0  0  0  0  0  0  0  0  0
    4.6112   -0.3882    0.0000 H   0  0  0  0  0  0  0  0  0  0  0  0
    4.0179   -0.9205    0.0000 H   0  0  0  0  0  0  0  0  0  0  0  0
    6.8250   -1.8380    0.0000 H   0  0  0  0  0  0  0  0  0  0  0  0
    6.6607   -1.0580    0.0000 H   0  0  0  0  0  0  0  0  0  0  0  0
    4.7062    1.1852    0.0000 H   0  0  0  0  0  0  0  0  0  0  0  0
    4.8705    0.4053    0.0000 H   0  0  0  0  0  0  0  0  0  0  0  0
    6.9200   -0.2646    0.0000 H   0  0  0  0  0  0  0  0  0  0  0  0
    7.5132    0.2677    0.0000 H   0  0  0  0  0  0  0  0  0  0  0  0
    3.7742   -1.6664    0.0000 H   0  0  0  0  0  0  0  0  0  0  0  0
    3.9385   -2.4463    0.0000 H   0  0  0  0  0  0  0  0  0  0  0  0
    5.9880   -3.1161    0.0000 H   0  0  0  0  0  0  0  0  0  0  0  0
    6.5812   -2.5838    0.0000 H   0  0  0  0  0  0  0  0  0  0  0  0
    5.5432    2.4634    0.0000 H   0  0  0  0  0  0  0  0  0  0  0  0
    4.9499    1.9310    0.0000 H   0  0  0  0  0  0  0  0  0  0  0  0
    7.7570    1.0136    0.0000 H   0  0  0  0  0  0  0  0  0  0  0  0
    7.5926    1.7935    0.0000 H   0  0  0  0  0  0  0  0  0  0  0  0
    6.8323    3.6201    0.0000 H   0  0  0  0  0  0  0  0  0  0  0  0
    6.2391    3.0878    0.0000 H   0  0  0  0  0  0  0  0  0  0  0  0
    4.8709   -5.8520    0.0000 H   0  0  0  0  0  0  0  0  0  0  0  0
    2.8660   -2.8379    0.0000 H   0  0  0  0  0  0  0  0  0  0  0  0
    2.8660   -6.0779    0.0000 H   0  0  0  0  0  0  0  0  0  0  0  0
    8.3066    1.8730    0.0000 H   0  0  0  0  0  0  0  0  0  0  0  0
    1.4631   -3.6479    0.0000 H   0  0  0  0  0  0  0  0  0  0  0  0
    1.4631   -5.2679    0.0000 H   0  0  0  0  0  0  0  0  0  0  0  0
    9.3132    4.9527    0.0000 H   0  0  0  0  0  0  0  0  0  0  0  0
    9.8918    2.2071    0.0000 H   0  0  0  0  0  0  0  0  0  0  0  0
   10.3951    3.7470    0.0000 H   0  0  0  0  0  0  0  0  0  0  0  0
  1 21  2  0  0  0  0
  2  8  1  0  0  0  0
  3  8  2  0  0  0  0
  4  9  1  0  0  0  0
  4 11  1  0  0  0  0
  4 12  1  0  0  0  0
  5 17  1  0  0  0  0
  5 18  1  0  0  0  0
  5 19  1  0  0  0  0
  6 10  1  0  0  0  0
  6 20  1  0  0  0  0
  6 21  1  0  0  0  0
  7 21  1  0  0  0  0
  7 22  1  0  0  0  0
  7 53  1  0  0  0  0
  8 26  1  0  0  0  0
  9 13  1  0  0  0  0
  9 14  1  0  0  0  0
  9 33  1  0  0  0  0
 10 15  1  0  0  0  0
 10 16  1  0  0  0  0
 10 34  1  0  0  0  0
 11 15  1  0  0  0  0
 11 35  1  0  0  0  0
 11 36  1  0  0  0  0
 12 16  1  0  0  0  0
 12 37  1  0  0  0  0
 12 38  1  0  0  0  0
 13 17  1  0  0  0  0
 13 39  1  0  0  0  0
 13 40  1  0  0  0  0
 14 18  1  0  0  0  0
 14 41  1  0  0  0  0
 14 42  1  0  0  0  0
 15 43  1  0  0  0  0
 15 44  1  0  0  0  0
 16 45  1  0  0  0  0
 16 46  1  0  0  0  0
 17 47  1  0  0  0  0
 17 48  1  0  0  0  0
 18 49  1  0  0  0  0
 18 50  1  0  0  0  0
 19 23  1  0  0  0  0
 19 51  1  0  0  0  0
 19 52  1  0  0  0  0
 20 22  1  0  0  0  0
 20 24  2  0  0  0  0
 22 25  2  0  0  0  0
 23 26  1  0  0  0  0
 23 27  2  0  0  0  0
 24 28  1  0  0  0  0
 24 54  1  0  0  0  0
 25 29  1  0  0  0  0
 25 55  1  0  0  0  0
 26 30  2  0  0  0  0
 27 31  1  0  0  0  0
 27 56  1  0  0  0  0
 28 29  2  0  0  0  0
 28 57  1  0  0  0  0
 29 58  1  0  0  0  0
 30 32  1  0  0  0  0
 30 59  1  0  0  0  0
 31 32  2  0  0  0  0
 31 60  1  0  0  0  0
 32 61  1  0  0  0  0
M  CHG  2   2  -1   8   1
M  END
> <PUBCHEM_COMPOUND_CID>
44578976

> <PUBCHEM_COMPOUND_CANONICALIZED>
1

> <PUBCHEM_CACTVS_COMPLEXITY>
669

> <PUBCHEM_CACTVS_HBOND_ACCEPTOR>
5

> <PUBCHEM_CACTVS_HBOND_DONOR>
1

> <PUBCHEM_CACTVS_ROTATABLE_BOND>
4

> <PUBCHEM_CACTVS_SUBSKEYS>
AAADceB7sAAAAAAAAAAAAAAAAAAAAWAAAAA8eIEAAAAAAFgBQAAAHgAUAAAADCjBGAQxwIPQQACJAiRCUwCCAAAhAgAoiAAIdIqIYCLA0ZGUIAholgLIyCcQgAAOAAAAAAACACAAAAAAAAQAQAAAAAAAAA==

> <PUBCHEM_IUPAC_OPENEYE_NAME>
3-[1-[1-[(2-nitrophenyl)methyl]-4-piperidyl]-4-piperidyl]-1H-benzimidazol-2-one

> <PUBCHEM_IUPAC_CAS_NAME>
3-[1-[1-[(2-nitrophenyl)methyl]-4-piperidinyl]-4-piperidinyl]-1H-benzimidazol-2-one

> <PUBCHEM_IUPAC_NAME_MARKUP>
3-[1-[1-[(2-nitrophenyl)methyl]piperidin-4-yl]piperidin-4-yl]-1<I>H</I>-benzimidazol-2-one

> <PUBCHEM_IUPAC_NAME>
3-[1-[1-[(2-nitrophenyl)methyl]piperidin-4-yl]piperidin-4-yl]-1H-benzimidazol-2-one

> <PUBCHEM_IUPAC_SYSTEMATIC_NAME>
3-[1-[1-[(2-nitrophenyl)methyl]piperidin-4-yl]piperidin-4-yl]-1H-benzimidazol-2-one

> <PUBCHEM_IUPAC_TRADITIONAL_NAME>
3-[1-[1-(2-nitrobenzyl)-4-piperidyl]-4-piperidyl]-1H-benzimidazol-2-one

> <PUBCHEM_IUPAC_INCHI>
InChI=1S/C24H29N5O3/c30-24-25-21-6-2-4-8-23(21)28(24)20-11-15-27(16-12-20)19-9-13-26(14-10-19)17-18-5-1-3-7-22(18)29(31)32/h1-8,19-20H,9-17H2,(H,25,30)

> <PUBCHEM_IUPAC_INCHIKEY>
RCRAYIPXTHUIJR-UHFFFAOYSA-N

> <PUBCHEM_XLOGP3_AA>
3.3

> <PUBCHEM_EXACT_MASS>
435.22703980

> <PUBCHEM_MOLECULAR_FORMULA>
C24H29N5O3

> <PUBCHEM_MOLECULAR_WEIGHT>
435.5

> <PUBCHEM_OPENEYE_CAN_SMILES>
C1CN(CCC1N2CCC(CC2)N3C4=CC=CC=C4NC3=O)CC5=CC=CC=C5[N+](=O)[O-]

> <PUBCHEM_OPENEYE_ISO_SMILES>
C1CN(CCC1N2CCC(CC2)N3C4=CC=CC=C4NC3=O)CC5=CC=CC=C5[N+](=O)[O-]

> <PUBCHEM_CACTVS_TPSA>
84.6

> <PUBCHEM_MONOISOTOPIC_WEIGHT>
435.22703980

> <PUBCHEM_TOTAL_CHARGE>
0

> <PUBCHEM_HEAVY_ATOM_COUNT>
32

> <PUBCHEM_ATOM_DEF_STEREO_COUNT>
0

> <PUBCHEM_ATOM_UDEF_STEREO_COUNT>
0

> <PUBCHEM_BOND_DEF_STEREO_COUNT>
0

> <PUBCHEM_BOND_UDEF_STEREO_COUNT>
0

> <PUBCHEM_ISOTOPIC_ATOM_COUNT>
0

> <PUBCHEM_COMPONENT_COUNT>
1

> <PUBCHEM_CACTVS_TAUTO_COUNT>
-1

> <PUBCHEM_COORDINATE_TYPE>
1
5
255

> <PUBCHEM_BONDANNOTATIONS>
20  22  8
20  24  8
22  25  8
23  26  8
23  27  8
24  28  8
25  29  8
26  30  8
27  31  8
28  29  8
30  32  8
31  32  8
6  20  8
6  21  8
7  21  8
7  22  8

$$$$
