45379368
  -OEChem-09292322482D

 41 44  0     1  0  0  0  0  0999 V2000
    6.3066    0.8825    0.0000 N   0  0  3  0  0  0  0  0  0  0  0  0
    3.5704   -2.2661    0.0000 N   0  0  0  0  0  0  0  0  0  0  0  0
    4.5745   -1.1175    0.0000 C   0  0  0  0  0  0  0  0  0  0  0  0
    3.7085   -0.6175    0.0000 C   0  0  0  0  0  0  0  0  0  0  0  0
    5.4405   -0.6175    0.0000 C   0  0  0  0  0  0  0  0  0  0  0  0
    5.4405    0.3825    0.0000 C   0  0  0  0  0  0  0  0  0  0  0  0
    3.7085    0.3825    0.0000 C   0  0  0  0  0  0  0  0  0  0  0  0
    6.3066    1.8825    0.0000 C   0  0  0  0  0  0  0  0  0  0  0  0
    5.4405    2.3825    0.0000 C   0  0  0  0  0  0  0  0  0  0  0  0
    4.5745    0.8825    0.0000 C   0  0  0  0  0  0  0  0  0  0  0  0
    4.5745    1.8825    0.0000 C   0  0  0  0  0  0  0  0  0  0  0  0
    4.5584   -2.1590    0.0000 C   0  0  0  0  0  0  0  0  0  0  0  0
    3.0905   -1.3958    0.0000 C   0  0  0  0  0  0  0  0  0  0  0  0
    6.3505   -1.1243    0.0000 C   0  0  0  0  0  0  0  0  0  0  0  0
    5.4565   -2.6867    0.0000 C   0  0  0  0  0  0  0  0  0  0  0  0
    7.1726    0.3825    0.0000 C   0  0  0  0  0  0  0  0  0  0  0  0
    3.3690   -0.0511    0.0000 C   0  0  0  0  0  0  0  0  0  0  0  0
    3.3690    2.8162    0.0000 C   0  0  0  0  0  0  0  0  0  0  0  0
    6.3586   -2.1659    0.0000 C   0  0  0  0  0  0  0  0  0  0  0  0
    2.0000    0.6202    0.0000 C   0  0  0  0  0  0  0  0  0  0  0  0
    2.0000    2.1449    0.0000 C   0  0  0  0  0  0  0  0  0  0  0  0
    5.2285    0.9651    0.0000 H   0  0  0  0  0  0  0  0  0  0  0  0
    4.8299    0.2749    0.0000 H   0  0  0  0  0  0  0  0  0  0  0  0
    3.4964    0.9651    0.0000 H   0  0  0  0  0  0  0  0  0  0  0  0
    3.0979    0.2749    0.0000 H   0  0  0  0  0  0  0  0  0  0  0  0
    6.9171    1.7749    0.0000 H   0  0  0  0  0  0  0  0  0  0  0  0
    6.5186    2.4652    0.0000 H   0  0  0  0  0  0  0  0  0  0  0  0
    5.8390    2.8575    0.0000 H   0  0  0  0  0  0  0  0  0  0  0  0
    5.0420    2.8575    0.0000 H   0  0  0  0  0  0  0  0  0  0  0  0
    2.4727   -1.3441    0.0000 H   0  0  0  0  0  0  0  0  0  0  0  0
    3.2844   -2.8162    0.0000 H   0  0  0  0  0  0  0  0  0  0  0  0
    6.8838   -0.8081    0.0000 H   0  0  0  0  0  0  0  0  0  0  0  0
    5.4541   -3.3067    0.0000 H   0  0  0  0  0  0  0  0  0  0  0  0
    6.8626   -0.1544    0.0000 H   0  0  0  0  0  0  0  0  0  0  0  0
    7.7095    0.0725    0.0000 H   0  0  0  0  0  0  0  0  0  0  0  0
    7.4826    0.9195    0.0000 H   0  0  0  0  0  0  0  0  0  0  0  0
    3.4319   -0.6679    0.0000 H   0  0  0  0  0  0  0  0  0  0  0  0
    3.4319    3.4330    0.0000 H   0  0  0  0  0  0  0  0  0  0  0  0
    6.8967   -2.4738    0.0000 H   0  0  0  0  0  0  0  0  0  0  0  0
    1.4739    0.2922    0.0000 H   0  0  0  0  0  0  0  0  0  0  0  0
    1.4739    2.4729    0.0000 H   0  0  0  0  0  0  0  0  0  0  0  0
  1  6  1  0  0  0  0
  1  8  1  0  0  0  0
  1 16  1  0  0  0  0
  2 12  1  0  0  0  0
  2 13  1  0  0  0  0
  2 31  1  0  0  0  0
  3  4  1  0  0  0  0
  3  5  2  0  0  0  0
  3 12  1  0  0  0  0
  4  7  1  0  0  0  0
  4 13  2  0  0  0  0
  5  6  1  0  0  0  0
  5 14  1  0  0  0  0
  6 22  1  0  0  0  0
  6 23  1  0  0  0  0
  7 10  1  0  0  0  0
  7 24  1  0  0  0  0
  7 25  1  0  0  0  0
  8  9  1  0  0  0  0
  8 26  1  0  0  0  0
  8 27  1  0  0  0  0
  9 11  1  0  0  0  0
  9 28  1  0  0  0  0
  9 29  1  0  0  0  0
 10 11  1  0  0  0  0
 10 17  2  0  0  0  0
 11 18  2  0  0  0  0
 12 15  2  0  0  0  0
 13 30  1  0  0  0  0
 14 19  2  0  0  0  0
 14 32  1  0  0  0  0
 15 19  1  0  0  0  0
 15 33  1  0  0  0  0
 16 34  1  0  0  0  0
 16 35  1  0  0  0  0
 16 36  1  0  0  0  0
 17 20  1  0  0  0  0
 17 37  1  0  0  0  0
 18 21  1  0  0  0  0
 18 38  1  0  0  0  0
 19 39  1  0  0  0  0
 20 21  2  0  0  0  0
 20 40  1  0  0  0  0
 21 41  1  0  0  0  0
M  END
> <PUBCHEM_COMPOUND_CID>
45379368

> <PUBCHEM_COMPOUND_CANONICALIZED>
1

> <PUBCHEM_CACTVS_COMPLEXITY>
356

> <PUBCHEM_CACTVS_HBOND_ACCEPTOR>
1

> <PUBCHEM_CACTVS_HBOND_DONOR>
1

> <PUBCHEM_CACTVS_ROTATABLE_BOND>
0

> <PUBCHEM_CACTVS_SUBSKEYS>
AAADceB7AAAAAAAAAAAAAAAAAAAAAWAAAAAwYAAAAAAAAFix9AAAHAAQAAAADAjBHgQ+wPPJkACgAzRnRACCgCAxAiAI2aA4ZJgIIOLAkZGEIAhgkADIyAcQgMAOgAAAQAASAAAAAACAACQAAAAAAAAAAA==

> <PUBCHEM_IUPAC_OPENEYE_NAME>
11-methyl-11,18-diazatetracyclo[11.6.1.03,8.017,20]icosa-1(19),3,5,7,13(20),14,16-heptaene

> <PUBCHEM_IUPAC_CAS_NAME>
11-methyl-11,18-diazatetracyclo[11.6.1.03,8.017,20]eicosa-1(19),3,5,7,13(20),14,16-heptaene

> <PUBCHEM_IUPAC_NAME_MARKUP>
11-methyl-11,18-diazatetracyclo[11.6.1.0<SUP>3,8</SUP>.0<SUP>17,20</SUP>]icosa-1(19),3,5,7,13(20),14,16-heptaene

> <PUBCHEM_IUPAC_NAME>
11-methyl-11,18-diazatetracyclo[11.6.1.03,8.017,20]icosa-1(19),3,5,7,13(20),14,16-heptaene

> <PUBCHEM_IUPAC_SYSTEMATIC_NAME>
11-methyl-11,18-diazatetracyclo[11.6.1.03,8.017,20]icosa-1(19),3,5,7,13(20),14,16-heptaene

> <PUBCHEM_IUPAC_TRADITIONAL_NAME>
11-methyl-11,18-diazatetracyclo[11.6.1.03,8.017,20]eicosa-1(19),3,5,7,13(20),14,16-heptaene

> <PUBCHEM_IUPAC_INCHI>
InChI=1S/C19H20N2/c1-21-10-9-14-5-2-3-6-15(14)11-17-12-20-18-8-4-7-16(13-21)19(17)18/h2-8,12,20H,9-11,13H2,1H3

> <PUBCHEM_IUPAC_INCHIKEY>
IIKPRPQRMUVZMA-UHFFFAOYSA-N

> <PUBCHEM_XLOGP3_AA>
3.8

> <PUBCHEM_EXACT_MASS>
276.162648646

> <PUBCHEM_MOLECULAR_FORMULA>
C19H20N2

> <PUBCHEM_MOLECULAR_WEIGHT>
276.4

> <PUBCHEM_OPENEYE_CAN_SMILES>
CN1CCC2=CC=CC=C2CC3=CNC4=CC=CC(=C34)C1

> <PUBCHEM_OPENEYE_ISO_SMILES>
CN1CCC2=CC=CC=C2CC3=CNC4=CC=CC(=C34)C1

> <PUBCHEM_CACTVS_TPSA>
19

> <PUBCHEM_MONOISOTOPIC_WEIGHT>
276.162648646

> <PUBCHEM_TOTAL_CHARGE>
0

> <PUBCHEM_HEAVY_ATOM_COUNT>
21

> <PUBCHEM_ATOM_DEF_STEREO_COUNT>
0

> <PUBCHEM_ATOM_UDEF_STEREO_COUNT>
0

> <PUBCHEM_BOND_DEF_STEREO_COUNT>
0

> <PUBCHEM_BOND_UDEF_STEREO_COUNT>
0

> <PUBCHEM_ISOTOPIC_ATOM_COUNT>
0

> <PUBCHEM_COMPONENT_COUNT>
1

> <PUBCHEM_CACTVS_TAUTO_COUNT>
-1

> <PUBCHEM_COORDINATE_TYPE>
1
5
255

> <PUBCHEM_BONDANNOTATIONS>
10  11  8
10  17  8
11  18  8
12  15  8
14  19  8
15  19  8
17  20  8
18  21  8
2  12  8
2  13  8
20  21  8
3  12  8
3  4  8
3  5  8
4  13  8
5  14  8

$$$$
