45486819
  -OEChem-09292322292D

 62 67  0     1  0  0  0  0  0999 V2000
   15.9006   -0.1224    0.0000 F   0  0  0  0  0  0  0  0  0  0  0  0
    3.7135   -0.5922    0.0000 O   0  0  0  0  0  0  0  0  0  0  0  0
    2.0000   -0.1240    0.0000 O   0  0  0  0  0  0  0  0  0  0  0  0
    7.2028    0.5562    0.0000 N   0  0  0  0  0  0  0  0  0  0  0  0
   13.0288    2.7382    0.0000 N   0  0  0  0  0  0  0  0  0  0  0  0
    5.8588   -0.9249    0.0000 N   0  0  0  0  0  0  0  0  0  0  0  0
    2.6320   -1.7841    0.0000 N   0  0  0  0  0  0  0  0  0  0  0  0
   10.5015    1.6140    0.0000 C   0  0  3  0  0  0  0  0  0  0  0  0
   10.8233    0.6234    0.0000 C   0  0  0  0  0  0  0  0  0  0  0  0
   11.2044    2.3827    0.0000 C   0  0  0  0  0  0  0  0  0  0  0  0
    9.5241    1.8257    0.0000 C   0  0  0  0  0  0  0  0  0  0  0  0
   11.8438    0.4147    0.0000 C   0  0  0  0  0  0  0  0  0  0  0  0
   12.2198    2.1505    0.0000 C   0  0  0  0  0  0  0  0  0  0  0  0
   12.5288    1.1994    0.0000 C   0  0  0  0  0  0  0  0  0  0  0  0
    8.8521    1.0851    0.0000 C   0  0  0  0  0  0  0  0  0  0  0  0
    7.8748    1.2968    0.0000 C   0  0  0  0  0  0  0  0  0  0  0  0
   13.5288    1.1994    0.0000 C   0  0  0  0  0  0  0  0  0  0  0  0
    6.2255    0.7679    0.0000 C   0  0  0  0  0  0  0  0  0  0  0  0
    7.5081   -0.3960    0.0000 C   0  0  0  0  0  0  0  0  0  0  0  0
    5.5535    0.0274    0.0000 C   0  0  0  0  0  0  0  0  0  0  0  0
    6.8362   -1.1366    0.0000 C   0  0  0  0  0  0  0  0  0  0  0  0
   13.8378    2.1505    0.0000 C   0  0  0  0  0  0  0  0  0  0  0  0
   14.2138    0.4147    0.0000 C   0  0  0  0  0  0  0  0  0  0  0  0
    5.1868   -1.6654    0.0000 C   0  0  0  0  0  0  0  0  0  0  0  0
   14.8532    2.3827    0.0000 C   0  0  0  0  0  0  0  0  0  0  0  0
   15.2343    0.6234    0.0000 C   0  0  0  0  0  0  0  0  0  0  0  0
   15.5562    1.6140    0.0000 C   0  0  0  0  0  0  0  0  0  0  0  0
    4.2095   -1.4538    0.0000 C   0  0  0  0  0  0  0  0  0  0  0  0
    5.4922   -2.6177    0.0000 C   0  0  0  0  0  0  0  0  0  0  0  0
    3.5375   -2.1943    0.0000 C   0  0  0  0  0  0  0  0  0  0  0  0
    4.8202   -3.3582    0.0000 C   0  0  0  0  0  0  0  0  0  0  0  0
    3.8428   -3.1466    0.0000 C   0  0  0  0  0  0  0  0  0  0  0  0
    2.7406   -0.7960    0.0000 C   0  0  0  0  0  0  0  0  0  0  0  0
   10.0857    1.1541    0.0000 H   0  0  0  0  0  0  0  0  0  0  0  0
   10.2096    0.5355    0.0000 H   0  0  0  0  0  0  0  0  0  0  0  0
   10.8049    0.0036    0.0000 H   0  0  0  0  0  0  0  0  0  0  0  0
   11.4440    2.9545    0.0000 H   0  0  0  0  0  0  0  0  0  0  0  0
   10.6820    2.7166    0.0000 H   0  0  0  0  0  0  0  0  0  0  0  0
    9.7586    2.3996    0.0000 H   0  0  0  0  0  0  0  0  0  0  0  0
    8.9996    2.1563    0.0000 H   0  0  0  0  0  0  0  0  0  0  0  0
   11.6175   -0.1626    0.0000 H   0  0  0  0  0  0  0  0  0  0  0  0
   12.3738    0.0929    0.0000 H   0  0  0  0  0  0  0  0  0  0  0  0
    8.6176    0.5112    0.0000 H   0  0  0  0  0  0  0  0  0  0  0  0
    9.3766    0.7546    0.0000 H   0  0  0  0  0  0  0  0  0  0  0  0
    8.1092    1.8708    0.0000 H   0  0  0  0  0  0  0  0  0  0  0  0
    7.3503    1.6274    0.0000 H   0  0  0  0  0  0  0  0  0  0  0  0
    6.4599    1.3419    0.0000 H   0  0  0  0  0  0  0  0  0  0  0  0
    5.7009    1.0985    0.0000 H   0  0  0  0  0  0  0  0  0  0  0  0
    7.8880   -0.8860    0.0000 H   0  0  0  0  0  0  0  0  0  0  0  0
    8.0567   -0.1070    0.0000 H   0  0  0  0  0  0  0  0  0  0  0  0
   13.0288    3.3582    0.0000 H   0  0  0  0  0  0  0  0  0  0  0  0
    5.1736    0.5174    0.0000 H   0  0  0  0  0  0  0  0  0  0  0  0
    5.0049   -0.2616    0.0000 H   0  0  0  0  0  0  0  0  0  0  0  0
    6.6017   -1.7105    0.0000 H   0  0  0  0  0  0  0  0  0  0  0  0
    7.3607   -1.4671    0.0000 H   0  0  0  0  0  0  0  0  0  0  0  0
   14.0154   -0.1727    0.0000 H   0  0  0  0  0  0  0  0  0  0  0  0
   15.0380    2.9745    0.0000 H   0  0  0  0  0  0  0  0  0  0  0  0
   16.1621    1.7452    0.0000 H   0  0  0  0  0  0  0  0  0  0  0  0
    6.0981   -2.7489    0.0000 H   0  0  0  0  0  0  0  0  0  0  0  0
    5.0095   -3.9486    0.0000 H   0  0  0  0  0  0  0  0  0  0  0  0
    3.4262   -3.6057    0.0000 H   0  0  0  0  0  0  0  0  0  0  0  0
    2.0933   -2.0911    0.0000 H   0  0  0  0  0  0  0  0  0  0  0  0
  1 26  1  0  0  0  0
  2 28  1  0  0  0  0
  2 33  1  0  0  0  0
  3 33  2  0  0  0  0
  4 16  1  0  0  0  0
  4 18  1  0  0  0  0
  4 19  1  0  0  0  0
  5 13  1  0  0  0  0
  5 22  1  0  0  0  0
  5 51  1  0  0  0  0
  6 20  1  0  0  0  0
  6 21  1  0  0  0  0
  6 24  1  0  0  0  0
  7 30  1  0  0  0  0
  7 33  1  0  0  0  0
  7 62  1  0  0  0  0
  8  9  1  0  0  0  0
  8 10  1  0  0  0  0
  8 11  1  0  0  0  0
  8 34  1  0  0  0  0
  9 12  1  0  0  0  0
  9 35  1  0  0  0  0
  9 36  1  0  0  0  0
 10 13  1  0  0  0  0
 10 37  1  0  0  0  0
 10 38  1  0  0  0  0
 11 15  1  0  0  0  0
 11 39  1  0  0  0  0
 11 40  1  0  0  0  0
 12 14  1  0  0  0  0
 12 41  1  0  0  0  0
 12 42  1  0  0  0  0
 13 14  2  0  0  0  0
 14 17  1  0  0  0  0
 15 16  1  0  0  0  0
 15 43  1  0  0  0  0
 15 44  1  0  0  0  0
 16 45  1  0  0  0  0
 16 46  1  0  0  0  0
 17 22  2  0  0  0  0
 17 23  1  0  0  0  0
 18 20  1  0  0  0  0
 18 47  1  0  0  0  0
 18 48  1  0  0  0  0
 19 21  1  0  0  0  0
 19 49  1  0  0  0  0
 19 50  1  0  0  0  0
 20 52  1  0  0  0  0
 20 53  1  0  0  0  0
 21 54  1  0  0  0  0
 21 55  1  0  0  0  0
 22 25  1  0  0  0  0
 23 26  2  0  0  0  0
 23 56  1  0  0  0  0
 24 28  1  0  0  0  0
 24 29  2  0  0  0  0
 25 27  2  0  0  0  0
 25 57  1  0  0  0  0
 26 27  1  0  0  0  0
 27 58  1  0  0  0  0
 28 30  2  0  0  0  0
 29 31  1  0  0  0  0
 29 59  1  0  0  0  0
 30 32  1  0  0  0  0
 31 32  2  0  0  0  0
 31 60  1  0  0  0  0
 32 61  1  0  0  0  0
M  END
> <PUBCHEM_COMPOUND_CID>
45486819

> <PUBCHEM_COMPOUND_CANONICALIZED>
1

> <PUBCHEM_CACTVS_COMPLEXITY>
702

> <PUBCHEM_CACTVS_HBOND_ACCEPTOR>
5

> <PUBCHEM_CACTVS_HBOND_DONOR>
2

> <PUBCHEM_CACTVS_ROTATABLE_BOND>
5

> <PUBCHEM_CACTVS_SUBSKEYS>
AAADceB7sQAAAAAAAAAAAAAAAAAAAWLAAAA8YMEAAAAAAFgB9AAAHwAQAAAADQzBngwwzvPJlACoAyRiXACCiCAhIiAImSA9bJkOZuLE8dudMihk1BHY6AeQwMAOgAAAAAQCEACAAACACAQgAAAAAAAAAA==

> <PUBCHEM_IUPAC_OPENEYE_NAME>
7-[4-[3-(6-fluoro-2,3,4,9-tetrahydro-1H-carbazol-2-yl)propyl]piperazin-1-yl]-3H-1,3-benzoxazol-2-one

> <PUBCHEM_IUPAC_CAS_NAME>
7-[4-[3-(6-fluoro-2,3,4,9-tetrahydro-1H-carbazol-2-yl)propyl]-1-piperazinyl]-3H-1,3-benzoxazol-2-one

> <PUBCHEM_IUPAC_NAME_MARKUP>
7-[4-[3-(6-fluoro-2,3,4,9-tetrahydro-1<I>H</I>-carbazol-2-yl)propyl]piperazin-1-yl]-3<I>H</I>-1,3-benzoxazol-2-one

> <PUBCHEM_IUPAC_NAME>
7-[4-[3-(6-fluoro-2,3,4,9-tetrahydro-1H-carbazol-2-yl)propyl]piperazin-1-yl]-3H-1,3-benzoxazol-2-one

> <PUBCHEM_IUPAC_SYSTEMATIC_NAME>
7-[4-[3-(6-fluoranyl-2,3,4,9-tetrahydro-1H-carbazol-2-yl)propyl]piperazin-1-yl]-3H-1,3-benzoxazol-2-one

> <PUBCHEM_IUPAC_TRADITIONAL_NAME>
7-[4-[3-(6-fluoro-2,3,4,9-tetrahydro-1H-carbazol-2-yl)propyl]piperazino]-3H-1,3-benzoxazol-2-one

> <PUBCHEM_IUPAC_INCHI>
InChI=1S/C26H29FN4O2/c27-18-7-9-21-20(16-18)19-8-6-17(15-23(19)28-21)3-2-10-30-11-13-31(14-12-30)24-5-1-4-22-25(24)33-26(32)29-22/h1,4-5,7,9,16-17,28H,2-3,6,8,10-15H2,(H,29,32)

> <PUBCHEM_IUPAC_INCHIKEY>
MEEJIZJKZLHYFR-UHFFFAOYSA-N

> <PUBCHEM_XLOGP3_AA>
4.8

> <PUBCHEM_EXACT_MASS>
448.22745434

> <PUBCHEM_MOLECULAR_FORMULA>
C26H29FN4O2

> <PUBCHEM_MOLECULAR_WEIGHT>
448.5

> <PUBCHEM_OPENEYE_CAN_SMILES>
C1CC2=C(CC1CCCN3CCN(CC3)C4=CC=CC5=C4OC(=O)N5)NC6=C2C=C(C=C6)F

> <PUBCHEM_OPENEYE_ISO_SMILES>
C1CC2=C(CC1CCCN3CCN(CC3)C4=CC=CC5=C4OC(=O)N5)NC6=C2C=C(C=C6)F

> <PUBCHEM_CACTVS_TPSA>
60.6

> <PUBCHEM_MONOISOTOPIC_WEIGHT>
448.22745434

> <PUBCHEM_TOTAL_CHARGE>
0

> <PUBCHEM_HEAVY_ATOM_COUNT>
33

> <PUBCHEM_ATOM_DEF_STEREO_COUNT>
0

> <PUBCHEM_ATOM_UDEF_STEREO_COUNT>
1

> <PUBCHEM_BOND_DEF_STEREO_COUNT>
0

> <PUBCHEM_BOND_UDEF_STEREO_COUNT>
0

> <PUBCHEM_ISOTOPIC_ATOM_COUNT>
0

> <PUBCHEM_COMPONENT_COUNT>
1

> <PUBCHEM_CACTVS_TAUTO_COUNT>
-1

> <PUBCHEM_COORDINATE_TYPE>
1
5
255

> <PUBCHEM_BONDANNOTATIONS>
13  14  8
14  17  8
17  22  8
17  23  8
2  28  8
2  33  8
22  25  8
23  26  8
24  28  8
24  29  8
25  27  8
26  27  8
28  30  8
29  31  8
30  32  8
31  32  8
5  13  8
5  22  8
7  30  8
7  33  8
8  11  3

$$$$
