138691338
  -OEChem-09292322462D

 33 35  0     0  0  0  0  0  0999 V2000
    2.8660   -0.0199    0.0000 O   0  0  0  0  0  0  0  0  0  0  0  0
    6.1346    1.5454    0.0000 N   0  0  0  0  0  0  0  0  0  0  0  0
    6.4103   -1.8247    0.0000 N   0  0  0  0  0  0  0  0  0  0  0  0
    7.6743    2.0427    0.0000 N   0  0  0  0  0  0  0  0  0  0  0  0
    6.4103   -0.2152    0.0000 C   0  0  0  0  0  0  0  0  0  0  0  0
    5.4641   -0.5199    0.0000 C   0  0  0  0  0  0  0  0  0  0  0  0
    6.7210    0.7353    0.0000 C   0  0  0  0  0  0  0  0  0  0  0  0
    5.4641   -1.5199    0.0000 C   0  0  0  0  0  0  0  0  0  0  0  0
    6.9939   -1.0199    0.0000 C   0  0  0  0  0  0  0  0  0  0  0  0
    5.1346    1.5471    0.0000 C   0  0  0  0  0  0  0  0  0  0  0  0
    4.5981   -0.0199    0.0000 C   0  0  0  0  0  0  0  0  0  0  0  0
    4.5981   -2.0199    0.0000 C   0  0  0  0  0  0  0  0  0  0  0  0
    7.6726    1.0427    0.0000 C   0  0  0  0  0  0  0  0  0  0  0  0
    6.7238    2.3534    0.0000 C   0  0  0  0  0  0  0  0  0  0  0  0
    3.7320   -0.5199    0.0000 C   0  0  0  0  0  0  0  0  0  0  0  0
    3.7320   -1.5199    0.0000 C   0  0  0  0  0  0  0  0  0  0  0  0
    4.6361    2.4140    0.0000 C   0  0  0  0  0  0  0  0  0  0  0  0
    2.0000   -0.5199    0.0000 C   0  0  0  0  0  0  0  0  0  0  0  0
    7.6139   -1.0199    0.0000 H   0  0  0  0  0  0  0  0  0  0  0  0
    6.6029   -2.4140    0.0000 H   0  0  0  0  0  0  0  0  0  0  0  0
    4.5516    1.3360    0.0000 H   0  0  0  0  0  0  0  0  0  0  0  0
    5.2412    0.9363    0.0000 H   0  0  0  0  0  0  0  0  0  0  0  0
    4.5981    0.6001    0.0000 H   0  0  0  0  0  0  0  0  0  0  0  0
    4.5981   -2.6399    0.0000 H   0  0  0  0  0  0  0  0  0  0  0  0
    8.1735    0.6774    0.0000 H   0  0  0  0  0  0  0  0  0  0  0  0
    6.5332    2.9433    0.0000 H   0  0  0  0  0  0  0  0  0  0  0  0
    3.1951   -1.8299    0.0000 H   0  0  0  0  0  0  0  0  0  0  0  0
    5.1736    2.7231    0.0000 H   0  0  0  0  0  0  0  0  0  0  0  0
    4.3270    2.9514    0.0000 H   0  0  0  0  0  0  0  0  0  0  0  0
    4.0986    2.1049    0.0000 H   0  0  0  0  0  0  0  0  0  0  0  0
    1.6900    0.0170    0.0000 H   0  0  0  0  0  0  0  0  0  0  0  0
    1.4631   -0.8299    0.0000 H   0  0  0  0  0  0  0  0  0  0  0  0
    2.3100   -1.0569    0.0000 H   0  0  0  0  0  0  0  0  0  0  0  0
  1 15  1  0  0  0  0
  1 18  1  0  0  0  0
  2  7  1  0  0  0  0
  2 10  1  0  0  0  0
  2 14  1  0  0  0  0
  3  8  1  0  0  0  0
  3  9  1  0  0  0  0
  3 20  1  0  0  0  0
  4 13  1  0  0  0  0
  4 14  2  0  0  0  0
  5  6  1  0  0  0  0
  5  7  1  0  0  0  0
  5  9  2  0  0  0  0
  6  8  2  0  0  0  0
  6 11  1  0  0  0  0
  7 13  2  0  0  0  0
  8 12  1  0  0  0  0
  9 19  1  0  0  0  0
 10 17  1  0  0  0  0
 10 21  1  0  0  0  0
 10 22  1  0  0  0  0
 11 15  2  0  0  0  0
 11 23  1  0  0  0  0
 12 16  2  0  0  0  0
 12 24  1  0  0  0  0
 13 25  1  0  0  0  0
 14 26  1  0  0  0  0
 15 16  1  0  0  0  0
 16 27  1  0  0  0  0
 17 28  1  0  0  0  0
 17 29  1  0  0  0  0
 17 30  1  0  0  0  0
 18 31  1  0  0  0  0
 18 32  1  0  0  0  0
 18 33  1  0  0  0  0
M  END
> <PUBCHEM_COMPOUND_CID>
138691338

> <PUBCHEM_COMPOUND_CANONICALIZED>
1

> <PUBCHEM_CACTVS_COMPLEXITY>
286

> <PUBCHEM_CACTVS_HBOND_ACCEPTOR>
2

> <PUBCHEM_CACTVS_HBOND_DONOR>
1

> <PUBCHEM_CACTVS_ROTATABLE_BOND>
3

> <PUBCHEM_CACTVS_SUBSKEYS>
AAADccBzIAAAAAAAAAAAAAAAAAAAAWLAAAAwAAAAAAAAAFgB/AAAHgAQAAAADAzBngY/1vfNlACgAzRnZACCiC0xMqAJ2aA+fJiMbuLE+ZuUMChs0BPI6Cew0PMOgEABAAACAAAAgAIAAAQAAAAAAAAAAA==

> <PUBCHEM_IUPAC_OPENEYE_NAME>
3-(3-ethylimidazol-4-yl)-5-methoxy-1H-indole

> <PUBCHEM_IUPAC_CAS_NAME>
3-(3-ethyl-4-imidazolyl)-5-methoxy-1H-indole

> <PUBCHEM_IUPAC_NAME_MARKUP>
3-(3-ethylimidazol-4-yl)-5-methoxy-1<I>H</I>-indole

> <PUBCHEM_IUPAC_NAME>
3-(3-ethylimidazol-4-yl)-5-methoxy-1H-indole

> <PUBCHEM_IUPAC_SYSTEMATIC_NAME>
3-(3-ethylimidazol-4-yl)-5-methoxy-1H-indole

> <PUBCHEM_IUPAC_TRADITIONAL_NAME>
3-(3-ethylimidazol-4-yl)-5-methoxy-1H-indole

> <PUBCHEM_IUPAC_INCHI>
InChI=1S/C14H15N3O/c1-3-17-9-15-8-14(17)12-7-16-13-5-4-10(18-2)6-11(12)13/h4-9,16H,3H2,1-2H3

> <PUBCHEM_IUPAC_INCHIKEY>
WPSIPVCJWLGMEF-UHFFFAOYSA-N

> <PUBCHEM_XLOGP3_AA>
2.1

> <PUBCHEM_EXACT_MASS>
241.121512110

> <PUBCHEM_MOLECULAR_FORMULA>
C14H15N3O

> <PUBCHEM_MOLECULAR_WEIGHT>
241.29

> <PUBCHEM_OPENEYE_CAN_SMILES>
CCN1C=NC=C1C2=CNC3=C2C=C(C=C3)OC

> <PUBCHEM_OPENEYE_ISO_SMILES>
CCN1C=NC=C1C2=CNC3=C2C=C(C=C3)OC

> <PUBCHEM_CACTVS_TPSA>
42.8

> <PUBCHEM_MONOISOTOPIC_WEIGHT>
241.121512110

> <PUBCHEM_TOTAL_CHARGE>
0

> <PUBCHEM_HEAVY_ATOM_COUNT>
18

> <PUBCHEM_ATOM_DEF_STEREO_COUNT>
0

> <PUBCHEM_ATOM_UDEF_STEREO_COUNT>
0

> <PUBCHEM_BOND_DEF_STEREO_COUNT>
0

> <PUBCHEM_BOND_UDEF_STEREO_COUNT>
0

> <PUBCHEM_ISOTOPIC_ATOM_COUNT>
0

> <PUBCHEM_COMPONENT_COUNT>
1

> <PUBCHEM_CACTVS_TAUTO_COUNT>
-1

> <PUBCHEM_COORDINATE_TYPE>
1
5
255

> <PUBCHEM_BONDANNOTATIONS>
11  15  8
12  16  8
15  16  8
2  14  8
2  7  8
3  8  8
3  9  8
4  13  8
4  14  8
5  6  8
5  9  8
6  11  8
6  8  8
7  13  8
8  12  8

$$$$
