126533424
  -OEChem-09292322372D

 60 64  0     1  0  0  0  0  0999 V2000
   10.0552    1.3621    0.0000 S   0  0  0  0  0  0  0  0  0  0  0  0
    4.5743   -1.1790    0.0000 N   0  0  3  0  0  0  0  0  0  0  0  0
    7.0552   -0.3700    0.0000 N   0  0  3  0  0  0  0  0  0  0  0  0
   11.6430    2.1711    0.0000 N   0  0  0  0  0  0  0  0  0  0  0  0
   11.6430    0.5531    0.0000 N   0  0  0  0  0  0  0  0  0  0  0  0
   12.5941    0.8621    0.0000 N   0  0  0  0  0  0  0  0  0  0  0  0
   13.2985    3.4444    0.0000 N   0  0  0  0  0  0  0  0  0  0  0  0
   15.1256    2.6309    0.0000 N   0  0  0  0  0  0  0  0  0  0  0  0
    5.5254    0.1300    0.0000 C   0  0  3  0  0  0  0  0  0  0  0  0
    5.5254   -0.8700    0.0000 C   0  0  3  0  0  0  0  0  0  0  0  0
    6.4716    0.4348    0.0000 C   0  0  0  0  0  0  0  0  0  0  0  0
    4.5743    0.4390    0.0000 C   0  0  0  0  0  0  0  0  0  0  0  0
    6.4716   -1.1747    0.0000 C   0  0  0  0  0  0  0  0  0  0  0  0
    3.9865   -0.3700    0.0000 C   0  0  0  0  0  0  0  0  0  0  0  0
    8.0552   -0.3700    0.0000 C   0  0  0  0  0  0  0  0  0  0  0  0
    4.2653   -2.1301    0.0000 C   0  0  0  0  0  0  0  0  0  0  0  0
    8.5552    0.4960    0.0000 C   0  0  0  0  0  0  0  0  0  0  0  0
    3.2872   -2.3380    0.0000 C   0  0  0  0  0  0  0  0  0  0  0  0
    4.9344   -2.8732    0.0000 C   0  0  0  0  0  0  0  0  0  0  0  0
    9.5552    0.4960    0.0000 C   0  0  0  0  0  0  0  0  0  0  0  0
    2.9782   -3.2890    0.0000 C   0  0  0  0  0  0  0  0  0  0  0  0
    4.6254   -3.8242    0.0000 C   0  0  0  0  0  0  0  0  0  0  0  0
    3.6473   -4.0322    0.0000 C   0  0  0  0  0  0  0  0  0  0  0  0
    2.0000   -3.4969    0.0000 C   0  0  0  0  0  0  0  0  0  0  0  0
   11.0552    1.3621    0.0000 C   0  0  0  0  0  0  0  0  0  0  0  0
   12.5941    1.8621    0.0000 C   0  0  0  0  0  0  0  0  0  0  0  0
   11.3340    3.1222    0.0000 C   0  0  0  0  0  0  0  0  0  0  0  0
   13.4031    2.4499    0.0000 C   0  0  0  0  0  0  0  0  0  0  0  0
   14.3166    2.0431    0.0000 C   0  0  0  0  0  0  0  0  0  0  0  0
   14.1076    4.0322    0.0000 C   0  0  0  0  0  0  0  0  0  0  0  0
   15.0211    3.6254    0.0000 C   0  0  0  0  0  0  0  0  0  0  0  0
    5.5262    0.7500    0.0000 H   0  0  0  0  0  0  0  0  0  0  0  0
    5.5262   -1.4900    0.0000 H   0  0  0  0  0  0  0  0  0  0  0  0
    7.0090    0.7440    0.0000 H   0  0  0  0  0  0  0  0  0  0  0  0
    6.2206    1.0017    0.0000 H   0  0  0  0  0  0  0  0  0  0  0  0
    4.8265    1.0054    0.0000 H   0  0  0  0  0  0  0  0  0  0  0  0
    4.0374    0.7490    0.0000 H   0  0  0  0  0  0  0  0  0  0  0  0
    6.2206   -1.7416    0.0000 H   0  0  0  0  0  0  0  0  0  0  0  0
    7.0090   -1.4839    0.0000 H   0  0  0  0  0  0  0  0  0  0  0  0
    3.5258    0.0449    0.0000 H   0  0  0  0  0  0  0  0  0  0  0  0
    3.5258   -0.7848    0.0000 H   0  0  0  0  0  0  0  0  0  0  0  0
    7.9476   -0.9806    0.0000 H   0  0  0  0  0  0  0  0  0  0  0  0
    8.6378   -0.5820    0.0000 H   0  0  0  0  0  0  0  0  0  0  0  0
    8.6629    1.1066    0.0000 H   0  0  0  0  0  0  0  0  0  0  0  0
    7.9726    0.7081    0.0000 H   0  0  0  0  0  0  0  0  0  0  0  0
    2.8723   -1.8772    0.0000 H   0  0  0  0  0  0  0  0  0  0  0  0
    5.5409   -2.7443    0.0000 H   0  0  0  0  0  0  0  0  0  0  0  0
    9.4476   -0.1145    0.0000 H   0  0  0  0  0  0  0  0  0  0  0  0
   10.1378    0.2840    0.0000 H   0  0  0  0  0  0  0  0  0  0  0  0
    5.0403   -4.2850    0.0000 H   0  0  0  0  0  0  0  0  0  0  0  0
    3.4557   -4.6218    0.0000 H   0  0  0  0  0  0  0  0  0  0  0  0
    1.8711   -2.8905    0.0000 H   0  0  0  0  0  0  0  0  0  0  0  0
    1.3936   -3.6258    0.0000 H   0  0  0  0  0  0  0  0  0  0  0  0
    2.1289   -4.1034    0.0000 H   0  0  0  0  0  0  0  0  0  0  0  0
   11.9236    3.3137    0.0000 H   0  0  0  0  0  0  0  0  0  0  0  0
   11.1424    3.7118    0.0000 H   0  0  0  0  0  0  0  0  0  0  0  0
   10.7443    2.9306    0.0000 H   0  0  0  0  0  0  0  0  0  0  0  0
   14.3814    1.4265    0.0000 H   0  0  0  0  0  0  0  0  0  0  0  0
   14.0428    4.6488    0.0000 H   0  0  0  0  0  0  0  0  0  0  0  0
   15.5227    3.9899    0.0000 H   0  0  0  0  0  0  0  0  0  0  0  0
  1 20  1  0  0  0  0
  1 25  1  0  0  0  0
  2 10  1  0  0  0  0
  2 14  1  0  0  0  0
  2 16  1  0  0  0  0
  3 11  1  0  0  0  0
  3 13  1  0  0  0  0
  3 15  1  0  0  0  0
  4 25  1  0  0  0  0
  4 26  1  0  0  0  0
  4 27  1  0  0  0  0
  5  6  1  0  0  0  0
  5 25  2  0  0  0  0
  6 26  2  0  0  0  0
  7 28  2  0  0  0  0
  7 30  1  0  0  0  0
  8 29  2  0  0  0  0
  8 31  1  0  0  0  0
  9 10  1  0  0  0  0
  9 11  1  0  0  0  0
  9 12  1  0  0  0  0
  9 32  1  0  0  0  0
 10 13  1  0  0  0  0
 10 33  1  0  0  0  0
 11 34  1  0  0  0  0
 11 35  1  0  0  0  0
 12 14  1  0  0  0  0
 12 36  1  0  0  0  0
 12 37  1  0  0  0  0
 13 38  1  0  0  0  0
 13 39  1  0  0  0  0
 14 40  1  0  0  0  0
 14 41  1  0  0  0  0
 15 17  1  0  0  0  0
 15 42  1  0  0  0  0
 15 43  1  0  0  0  0
 16 18  1  0  0  0  0
 16 19  2  0  0  0  0
 17 20  1  0  0  0  0
 17 44  1  0  0  0  0
 17 45  1  0  0  0  0
 18 21  2  0  0  0  0
 18 46  1  0  0  0  0
 19 22  1  0  0  0  0
 19 47  1  0  0  0  0
 20 48  1  0  0  0  0
 20 49  1  0  0  0  0
 21 23  1  0  0  0  0
 21 24  1  0  0  0  0
 22 23  2  0  0  0  0
 22 50  1  0  0  0  0
 23 51  1  0  0  0  0
 24 52  1  0  0  0  0
 24 53  1  0  0  0  0
 24 54  1  0  0  0  0
 26 28  1  0  0  0  0
 27 55  1  0  0  0  0
 27 56  1  0  0  0  0
 27 57  1  0  0  0  0
 28 29  1  0  0  0  0
 29 58  1  0  0  0  0
 30 31  2  0  0  0  0
 30 59  1  0  0  0  0
 31 60  1  0  0  0  0
M  END
> <PUBCHEM_COMPOUND_CID>
126533424

> <PUBCHEM_COMPOUND_CANONICALIZED>
1

> <PUBCHEM_CACTVS_COMPLEXITY>
580

> <PUBCHEM_CACTVS_HBOND_ACCEPTOR>
7

> <PUBCHEM_CACTVS_HBOND_DONOR>
0

> <PUBCHEM_CACTVS_ROTATABLE_BOND>
7

> <PUBCHEM_CACTVS_SUBSKEYS>
AAADceB7gABAAAAAAAAAAAAAAAAAAWLFgAA8QAAAAAAWAAAB8AAAHAQIAAAADSjFXwS/0JcMEAiiAzZnZACS0C9xErAd2CA4dJiIaOLg2ZGUIAhgiALIyAcQgAAOAAAAQAAAAAAAAACAAAAAAAAAAAAAAA==

> <PUBCHEM_IUPAC_OPENEYE_NAME>
5-[3-[(4-methyl-5-pyrazin-2-yl-1,2,4-triazol-3-yl)sulfanyl]propyl]-1-(m-tolyl)-2,3,3a,4,6,6a-hexahydropyrrolo[2,3-c]pyrrole

> <PUBCHEM_IUPAC_CAS_NAME>
1-(3-methylphenyl)-5-[3-[[4-methyl-5-(2-pyrazinyl)-1,2,4-triazol-3-yl]thio]propyl]-2,3,3a,4,6,6a-hexahydropyrrolo[2,3-c]pyrrole

> <PUBCHEM_IUPAC_NAME_MARKUP>
1-(3-methylphenyl)-5-[3-[(4-methyl-5-pyrazin-2-yl-1,2,4-triazol-3-yl)sulfanyl]propyl]-2,3,3<I>a</I>,4,6,6<I>a</I>-hexahydropyrrolo[2,3-c]pyrrole

> <PUBCHEM_IUPAC_NAME>
1-(3-methylphenyl)-5-[3-[(4-methyl-5-pyrazin-2-yl-1,2,4-triazol-3-yl)sulfanyl]propyl]-2,3,3a,4,6,6a-hexahydropyrrolo[2,3-c]pyrrole

> <PUBCHEM_IUPAC_SYSTEMATIC_NAME>
1-(3-methylphenyl)-5-[3-[(4-methyl-5-pyrazin-2-yl-1,2,4-triazol-3-yl)sulfanyl]propyl]-2,3,3a,4,6,6a-hexahydropyrrolo[2,3-c]pyrrole

> <PUBCHEM_IUPAC_TRADITIONAL_NAME>
5-[3-[(4-methyl-5-pyrazin-2-yl-1,2,4-triazol-3-yl)thio]propyl]-1-(m-tolyl)-2,3,3a,4,6,6a-hexahydropyrrolo[2,3-c]pyrrole

> <PUBCHEM_IUPAC_INCHI>
InChI=1S/C23H29N7S/c1-17-5-3-6-19(13-17)30-11-7-18-15-29(16-21(18)30)10-4-12-31-23-27-26-22(28(23)2)20-14-24-8-9-25-20/h3,5-6,8-9,13-14,18,21H,4,7,10-12,15-16H2,1-2H3

> <PUBCHEM_IUPAC_INCHIKEY>
XLJQOKQZCYRQNN-UHFFFAOYSA-N

> <PUBCHEM_XLOGP3_AA>
2.6

> <PUBCHEM_EXACT_MASS>
435.22051513

> <PUBCHEM_MOLECULAR_FORMULA>
C23H29N7S

> <PUBCHEM_MOLECULAR_WEIGHT>
435.6

> <PUBCHEM_OPENEYE_CAN_SMILES>
CC1=CC(=CC=C1)N2CCC3C2CN(C3)CCCSC4=NN=C(N4C)C5=NC=CN=C5

> <PUBCHEM_OPENEYE_ISO_SMILES>
CC1=CC(=CC=C1)N2CCC3C2CN(C3)CCCSC4=NN=C(N4C)C5=NC=CN=C5

> <PUBCHEM_CACTVS_TPSA>
88.3

> <PUBCHEM_MONOISOTOPIC_WEIGHT>
435.22051513

> <PUBCHEM_TOTAL_CHARGE>
0

> <PUBCHEM_HEAVY_ATOM_COUNT>
31

> <PUBCHEM_ATOM_DEF_STEREO_COUNT>
0

> <PUBCHEM_ATOM_UDEF_STEREO_COUNT>
2

> <PUBCHEM_BOND_DEF_STEREO_COUNT>
0

> <PUBCHEM_BOND_UDEF_STEREO_COUNT>
0

> <PUBCHEM_ISOTOPIC_ATOM_COUNT>
0

> <PUBCHEM_COMPONENT_COUNT>
1

> <PUBCHEM_CACTVS_TAUTO_COUNT>
-1

> <PUBCHEM_COORDINATE_TYPE>
1
5
255

> <PUBCHEM_BONDANNOTATIONS>
10  13  3
16  18  8
16  19  8
18  21  8
19  22  8
21  23  8
22  23  8
28  29  8
30  31  8
4  25  8
4  26  8
5  25  8
5  6  8
6  26  8
7  28  8
7  30  8
8  29  8
8  31  8
9  12  3

$$$$
