11811722
  -OEChem-09292322032D

 58 62  0     1  0  0  0  0  0999 V2000
   10.2788   -1.4261    0.0000 O   0  0  0  0  0  0  0  0  0  0  0  0
    4.0000   -1.3981    0.0000 O   0  0  0  0  0  0  0  0  0  0  0  0
   10.5878    1.1430    0.0000 N   0  0  3  0  0  0  0  0  0  0  0  0
    8.0000    0.3340    0.0000 N   0  0  0  0  0  0  0  0  0  0  0  0
   11.5388   -0.1660    0.0000 N   0  0  0  0  0  0  0  0  0  0  0  0
   10.0000    0.3340    0.0000 C   0  0  0  0  0  0  0  0  0  0  0  0
    9.5000    1.2000    0.0000 C   0  0  0  0  0  0  0  0  0  0  0  0
    9.5000   -0.5321    0.0000 C   0  0  0  0  0  0  0  0  0  0  0  0
    8.5000    1.2000    0.0000 C   0  0  0  0  0  0  0  0  0  0  0  0
    8.5000   -0.5321    0.0000 C   0  0  0  0  0  0  0  0  0  0  0  0
   10.5878   -0.4750    0.0000 C   0  0  0  0  0  0  0  0  0  0  0  0
   11.5388    0.8340    0.0000 C   0  0  0  0  0  0  0  0  0  0  0  0
    7.0000    0.3340    0.0000 C   0  0  0  0  0  0  0  0  0  0  0  0
   10.2788    2.0940    0.0000 C   0  0  0  0  0  0  0  0  0  0  0  0
    6.5000   -0.5321    0.0000 C   0  0  0  0  0  0  0  0  0  0  0  0
   10.9479    2.8372    0.0000 C   0  0  0  0  0  0  0  0  0  0  0  0
    9.3006    2.3020    0.0000 C   0  0  0  0  0  0  0  0  0  0  0  0
   10.6389    3.7882    0.0000 C   0  0  0  0  0  0  0  0  0  0  0  0
    8.9916    3.2530    0.0000 C   0  0  0  0  0  0  0  0  0  0  0  0
    5.5000   -0.5321    0.0000 C   0  0  0  0  0  0  0  0  0  0  0  0
    7.0000   -1.3981    0.0000 C   0  0  0  0  0  0  0  0  0  0  0  0
    9.6607    3.9962    0.0000 C   0  0  0  0  0  0  0  0  0  0  0  0
    5.0000   -1.3981    0.0000 C   0  0  0  0  0  0  0  0  0  0  0  0
    6.5000   -2.2641    0.0000 C   0  0  0  0  0  0  0  0  0  0  0  0
    5.5000   -2.2641    0.0000 C   0  0  0  0  0  0  0  0  0  0  0  0
    3.5000   -2.2641    0.0000 C   0  0  0  0  0  0  0  0  0  0  0  0
    2.5000   -2.2641    0.0000 C   0  0  0  0  0  0  0  0  0  0  0  0
    4.0000   -3.1301    0.0000 C   0  0  0  0  0  0  0  0  0  0  0  0
    2.0000   -3.1301    0.0000 C   0  0  0  0  0  0  0  0  0  0  0  0
    3.5000   -3.9962    0.0000 C   0  0  0  0  0  0  0  0  0  0  0  0
    2.5000   -3.9962    0.0000 C   0  0  0  0  0  0  0  0  0  0  0  0
   10.0826    1.4120    0.0000 H   0  0  0  0  0  0  0  0  0  0  0  0
    9.3923    1.8106    0.0000 H   0  0  0  0  0  0  0  0  0  0  0  0
    9.3923   -1.1426    0.0000 H   0  0  0  0  0  0  0  0  0  0  0  0
   10.0826   -0.7441    0.0000 H   0  0  0  0  0  0  0  0  0  0  0  0
    8.6077    1.8106    0.0000 H   0  0  0  0  0  0  0  0  0  0  0  0
    7.9174    1.4120    0.0000 H   0  0  0  0  0  0  0  0  0  0  0  0
    7.9174   -0.7441    0.0000 H   0  0  0  0  0  0  0  0  0  0  0  0
    8.6077   -1.1426    0.0000 H   0  0  0  0  0  0  0  0  0  0  0  0
   12.1554    0.7692    0.0000 H   0  0  0  0  0  0  0  0  0  0  0  0
   11.6677    1.4404    0.0000 H   0  0  0  0  0  0  0  0  0  0  0  0
   12.0404   -0.5305    0.0000 H   0  0  0  0  0  0  0  0  0  0  0  0
    7.1077    0.9446    0.0000 H   0  0  0  0  0  0  0  0  0  0  0  0
    6.4174    0.5460    0.0000 H   0  0  0  0  0  0  0  0  0  0  0  0
   11.5544    2.7083    0.0000 H   0  0  0  0  0  0  0  0  0  0  0  0
    8.8858    1.8412    0.0000 H   0  0  0  0  0  0  0  0  0  0  0  0
   11.0537    4.2490    0.0000 H   0  0  0  0  0  0  0  0  0  0  0  0
    8.3852    3.3819    0.0000 H   0  0  0  0  0  0  0  0  0  0  0  0
    5.1900    0.0049    0.0000 H   0  0  0  0  0  0  0  0  0  0  0  0
    7.6200   -1.3981    0.0000 H   0  0  0  0  0  0  0  0  0  0  0  0
    9.4691    4.5858    0.0000 H   0  0  0  0  0  0  0  0  0  0  0  0
    6.8100   -2.8010    0.0000 H   0  0  0  0  0  0  0  0  0  0  0  0
    5.1900   -2.8010    0.0000 H   0  0  0  0  0  0  0  0  0  0  0  0
    2.1900   -1.7272    0.0000 H   0  0  0  0  0  0  0  0  0  0  0  0
    4.6200   -3.1301    0.0000 H   0  0  0  0  0  0  0  0  0  0  0  0
    1.3800   -3.1301    0.0000 H   0  0  0  0  0  0  0  0  0  0  0  0
    3.8100   -4.5331    0.0000 H   0  0  0  0  0  0  0  0  0  0  0  0
    2.1900   -4.5331    0.0000 H   0  0  0  0  0  0  0  0  0  0  0  0
  1 11  2  0  0  0  0
  2 23  1  0  0  0  0
  2 26  1  0  0  0  0
  3  6  1  0  0  0  0
  3 12  1  0  0  0  0
  3 14  1  0  0  0  0
  4  9  1  0  0  0  0
  4 10  1  0  0  0  0
  4 13  1  0  0  0  0
  5 11  1  0  0  0  0
  5 12  1  0  0  0  0
  5 42  1  0  0  0  0
  6  7  1  0  0  0  0
  6  8  1  0  0  0  0
  6 11  1  0  0  0  0
  7  9  1  0  0  0  0
  7 32  1  0  0  0  0
  7 33  1  0  0  0  0
  8 10  1  0  0  0  0
  8 34  1  0  0  0  0
  8 35  1  0  0  0  0
  9 36  1  0  0  0  0
  9 37  1  0  0  0  0
 10 38  1  0  0  0  0
 10 39  1  0  0  0  0
 12 40  1  0  0  0  0
 12 41  1  0  0  0  0
 13 15  1  0  0  0  0
 13 43  1  0  0  0  0
 13 44  1  0  0  0  0
 14 16  2  0  0  0  0
 14 17  1  0  0  0  0
 15 20  2  0  0  0  0
 15 21  1  0  0  0  0
 16 18  1  0  0  0  0
 16 45  1  0  0  0  0
 17 19  2  0  0  0  0
 17 46  1  0  0  0  0
 18 22  2  0  0  0  0
 18 47  1  0  0  0  0
 19 22  1  0  0  0  0
 19 48  1  0  0  0  0
 20 23  1  0  0  0  0
 20 49  1  0  0  0  0
 21 24  2  0  0  0  0
 21 50  1  0  0  0  0
 22 51  1  0  0  0  0
 23 25  2  0  0  0  0
 24 25  1  0  0  0  0
 24 52  1  0  0  0  0
 25 53  1  0  0  0  0
 26 27  2  0  0  0  0
 26 28  1  0  0  0  0
 27 29  1  0  0  0  0
 27 54  1  0  0  0  0
 28 30  2  0  0  0  0
 28 55  1  0  0  0  0
 29 31  2  0  0  0  0
 29 56  1  0  0  0  0
 30 31  1  0  0  0  0
 30 57  1  0  0  0  0
 31 58  1  0  0  0  0
M  END
> <PUBCHEM_COMPOUND_CID>
11811722

> <PUBCHEM_COMPOUND_CANONICALIZED>
1

> <PUBCHEM_CACTVS_COMPLEXITY>
592

> <PUBCHEM_CACTVS_HBOND_ACCEPTOR>
4

> <PUBCHEM_CACTVS_HBOND_DONOR>
1

> <PUBCHEM_CACTVS_ROTATABLE_BOND>
5

> <PUBCHEM_CACTVS_SUBSKEYS>
AAADceB7MAAAAAAAAAAAAAAAAAAAAWAAAAA8YMEAAAAAAAABUAAAHgAQAAAADIzBmAQxxoPABACIAiVSUACCCAAhIgAIiIGObIiMZjLE8buWOCjswxPI6Ce0wBAOAAABAAAAAAAAAAIAAAAAAAAAAAAAAA==

> <PUBCHEM_IUPAC_OPENEYE_NAME>
8-[(3-phenoxyphenyl)methyl]-1-phenyl-1,3,8-triazaspiro[4.5]decan-4-one

> <PUBCHEM_IUPAC_CAS_NAME>
8-[(3-phenoxyphenyl)methyl]-1-phenyl-1,3,8-triazaspiro[4.5]decan-4-one

> <PUBCHEM_IUPAC_NAME_MARKUP>
8-[(3-phenoxyphenyl)methyl]-1-phenyl-1,3,8-triazaspiro[4.5]decan-4-one

> <PUBCHEM_IUPAC_NAME>
8-[(3-phenoxyphenyl)methyl]-1-phenyl-1,3,8-triazaspiro[4.5]decan-4-one

> <PUBCHEM_IUPAC_SYSTEMATIC_NAME>
8-[(3-phenoxyphenyl)methyl]-1-phenyl-1,3,8-triazaspiro[4.5]decan-4-one

> <PUBCHEM_IUPAC_TRADITIONAL_NAME>
8-(3-phenoxybenzyl)-1-phenyl-1,3,8-triazaspiro[4.5]decan-4-one

> <PUBCHEM_IUPAC_INCHI>
InChI=1S/C26H27N3O2/c30-25-26(29(20-27-25)22-9-3-1-4-10-22)14-16-28(17-15-26)19-21-8-7-13-24(18-21)31-23-11-5-2-6-12-23/h1-13,18H,14-17,19-20H2,(H,27,30)

> <PUBCHEM_IUPAC_INCHIKEY>
SKVXOYIMICHFPV-UHFFFAOYSA-N

> <PUBCHEM_XLOGP3>
4.3

> <PUBCHEM_EXACT_MASS>
413.21032711

> <PUBCHEM_MOLECULAR_FORMULA>
C26H27N3O2

> <PUBCHEM_MOLECULAR_WEIGHT>
413.5

> <PUBCHEM_OPENEYE_CAN_SMILES>
C1CN(CCC12C(=O)NCN2C3=CC=CC=C3)CC4=CC(=CC=C4)OC5=CC=CC=C5

> <PUBCHEM_OPENEYE_ISO_SMILES>
C1CN(CCC12C(=O)NCN2C3=CC=CC=C3)CC4=CC(=CC=C4)OC5=CC=CC=C5

> <PUBCHEM_CACTVS_TPSA>
44.8

> <PUBCHEM_MONOISOTOPIC_WEIGHT>
413.21032711

> <PUBCHEM_TOTAL_CHARGE>
0

> <PUBCHEM_HEAVY_ATOM_COUNT>
31

> <PUBCHEM_ATOM_DEF_STEREO_COUNT>
0

> <PUBCHEM_ATOM_UDEF_STEREO_COUNT>
0

> <PUBCHEM_BOND_DEF_STEREO_COUNT>
0

> <PUBCHEM_BOND_UDEF_STEREO_COUNT>
0

> <PUBCHEM_ISOTOPIC_ATOM_COUNT>
0

> <PUBCHEM_COMPONENT_COUNT>
1

> <PUBCHEM_CACTVS_TAUTO_COUNT>
-1

> <PUBCHEM_COORDINATE_TYPE>
1
5
255

> <PUBCHEM_BONDANNOTATIONS>
14  16  8
14  17  8
15  20  8
15  21  8
16  18  8
17  19  8
18  22  8
19  22  8
20  23  8
21  24  8
23  25  8
24  25  8
26  27  8
26  28  8
27  29  8
28  30  8
29  31  8
30  31  8

$$$$
