24893978
  -OEChem-09292322232D

 57 60  0     1  0  0  0  0  0999 V2000
    6.4204    3.1873    0.0000 Br  0  0  0  0  0  0  0  0  0  0  0  0
    2.0000   -4.5693    0.0000 Cl  0  0  0  0  0  0  0  0  0  0  0  0
    3.1756   -6.1873    0.0000 Cl  0  0  0  0  0  0  0  0  0  0  0  0
    8.1525    4.1873    0.0000 O   0  0  0  0  0  0  0  0  0  0  0  0
    4.2147   -1.7242    0.0000 O   0  0  0  0  0  0  0  0  0  0  0  0
    7.2864   -0.3127    0.0000 N   0  0  3  0  0  0  0  0  0  0  0  0
    5.7970   -2.4286    0.0000 N   0  0  0  0  0  0  0  0  0  0  0  0
   10.7506    5.6873    0.0000 N   0  0  0  0  0  0  0  0  0  0  0  0
    6.2038   -1.5151    0.0000 C   0  0  2  0  0  0  0  0  0  0  0  0
    7.1819   -1.3072    0.0000 C   0  0  0  0  0  0  0  0  0  0  0  0
    5.7038   -0.6491    0.0000 C   0  0  0  0  0  0  0  0  0  0  0  0
    6.3729    0.0941    0.0000 C   0  0  0  0  0  0  0  0  0  0  0  0
    8.1525    0.1873    0.0000 C   0  0  0  0  0  0  0  0  0  0  0  0
    9.0185    4.6873    0.0000 C   0  0  0  0  0  0  0  0  0  0  0  0
    8.1525    1.1873    0.0000 C   0  0  0  0  0  0  0  0  0  0  0  0
    9.8845    4.1873    0.0000 C   0  0  0  0  0  0  0  0  0  0  0  0
    9.0185    5.6873    0.0000 C   0  0  0  0  0  0  0  0  0  0  0  0
   10.7506    4.6873    0.0000 C   0  0  0  0  0  0  0  0  0  0  0  0
    9.8845    6.1873    0.0000 C   0  0  0  0  0  0  0  0  0  0  0  0
    4.8025   -2.5332    0.0000 C   0  0  0  0  0  0  0  0  0  0  0  0
    7.2864    1.6873    0.0000 C   0  0  0  0  0  0  0  0  0  0  0  0
    9.0185    1.6873    0.0000 C   0  0  0  0  0  0  0  0  0  0  0  0
    8.1525    3.1873    0.0000 C   0  0  0  0  0  0  0  0  0  0  0  0
    7.2864    2.6873    0.0000 C   0  0  0  0  0  0  0  0  0  0  0  0
    9.0185    2.6873    0.0000 C   0  0  0  0  0  0  0  0  0  0  0  0
    4.3958   -3.4467    0.0000 C   0  0  0  0  0  0  0  0  0  0  0  0
    3.4013   -3.5512    0.0000 C   0  0  0  0  0  0  0  0  0  0  0  0
    4.9836   -4.2557    0.0000 C   0  0  0  0  0  0  0  0  0  0  0  0
    2.9945   -4.4648    0.0000 C   0  0  0  0  0  0  0  0  0  0  0  0
    4.5768   -5.1693    0.0000 C   0  0  0  0  0  0  0  0  0  0  0  0
    3.5823   -5.2738    0.0000 C   0  0  0  0  0  0  0  0  0  0  0  0
    5.5846   -1.5475    0.0000 H   0  0  0  0  0  0  0  0  0  0  0  0
    7.2467   -1.9238    0.0000 H   0  0  0  0  0  0  0  0  0  0  0  0
    7.8019   -1.3072    0.0000 H   0  0  0  0  0  0  0  0  0  0  0  0
    5.2889   -0.1883    0.0000 H   0  0  0  0  0  0  0  0  0  0  0  0
    5.2022   -1.0135    0.0000 H   0  0  0  0  0  0  0  0  0  0  0  0
    6.6829    0.6310    0.0000 H   0  0  0  0  0  0  0  0  0  0  0  0
    5.8713    0.4585    0.0000 H   0  0  0  0  0  0  0  0  0  0  0  0
    8.3645   -0.3953    0.0000 H   0  0  0  0  0  0  0  0  0  0  0  0
    8.7631    0.2950    0.0000 H   0  0  0  0  0  0  0  0  0  0  0  0
    6.1615   -2.9302    0.0000 H   0  0  0  0  0  0  0  0  0  0  0  0
    8.4816    4.9973    0.0000 H   0  0  0  0  0  0  0  0  0  0  0  0
    9.4860    3.7124    0.0000 H   0  0  0  0  0  0  0  0  0  0  0  0
   10.2831    3.7124    0.0000 H   0  0  0  0  0  0  0  0  0  0  0  0
    8.8064    6.2700    0.0000 H   0  0  0  0  0  0  0  0  0  0  0  0
    8.4079    5.5797    0.0000 H   0  0  0  0  0  0  0  0  0  0  0  0
   10.9626    4.1047    0.0000 H   0  0  0  0  0  0  0  0  0  0  0  0
   11.3611    4.7950    0.0000 H   0  0  0  0  0  0  0  0  0  0  0  0
   10.2831    6.6623    0.0000 H   0  0  0  0  0  0  0  0  0  0  0  0
    9.4860    6.6623    0.0000 H   0  0  0  0  0  0  0  0  0  0  0  0
   11.2875    5.9973    0.0000 H   0  0  0  0  0  0  0  0  0  0  0  0
    6.7495    1.3773    0.0000 H   0  0  0  0  0  0  0  0  0  0  0  0
    9.5554    1.3773    0.0000 H   0  0  0  0  0  0  0  0  0  0  0  0
    9.5554    2.9973    0.0000 H   0  0  0  0  0  0  0  0  0  0  0  0
    3.0368   -3.0497    0.0000 H   0  0  0  0  0  0  0  0  0  0  0  0
    5.6002   -4.1909    0.0000 H   0  0  0  0  0  0  0  0  0  0  0  0
    4.9413   -5.6709    0.0000 H   0  0  0  0  0  0  0  0  0  0  0  0
  1 24  1  0  0  0  0
  2 29  1  0  0  0  0
  3 31  1  0  0  0  0
  4 14  1  0  0  0  0
  4 23  1  0  0  0  0
  5 20  2  0  0  0  0
  6 10  1  0  0  0  0
  6 12  1  0  0  0  0
  6 13  1  0  0  0  0
  9  7  1  1  0  0  0
  7 20  1  0  0  0  0
  7 41  1  0  0  0  0
  8 18  1  0  0  0  0
  8 19  1  0  0  0  0
  8 51  1  0  0  0  0
  9 10  1  0  0  0  0
  9 11  1  0  0  0  0
  9 32  1  0  0  0  0
 10 33  1  0  0  0  0
 10 34  1  0  0  0  0
 11 12  1  0  0  0  0
 11 35  1  0  0  0  0
 11 36  1  0  0  0  0
 12 37  1  0  0  0  0
 12 38  1  0  0  0  0
 13 15  1  0  0  0  0
 13 39  1  0  0  0  0
 13 40  1  0  0  0  0
 14 16  1  0  0  0  0
 14 17  1  0  0  0  0
 14 42  1  0  0  0  0
 15 21  2  0  0  0  0
 15 22  1  0  0  0  0
 16 18  1  0  0  0  0
 16 43  1  0  0  0  0
 16 44  1  0  0  0  0
 17 19  1  0  0  0  0
 17 45  1  0  0  0  0
 17 46  1  0  0  0  0
 18 47  1  0  0  0  0
 18 48  1  0  0  0  0
 19 49  1  0  0  0  0
 19 50  1  0  0  0  0
 20 26  1  0  0  0  0
 21 24  1  0  0  0  0
 21 52  1  0  0  0  0
 22 25  2  0  0  0  0
 22 53  1  0  0  0  0
 23 24  2  0  0  0  0
 23 25  1  0  0  0  0
 25 54  1  0  0  0  0
 26 27  2  0  0  0  0
 26 28  1  0  0  0  0
 27 29  1  0  0  0  0
 27 55  1  0  0  0  0
 28 30  2  0  0  0  0
 28 56  1  0  0  0  0
 29 31  2  0  0  0  0
 30 31  1  0  0  0  0
 30 57  1  0  0  0  0
M  END
> <PUBCHEM_COMPOUND_CID>
24893978

> <PUBCHEM_COMPOUND_CANONICALIZED>
1

> <PUBCHEM_CACTVS_COMPLEXITY>
595

> <PUBCHEM_CACTVS_HBOND_ACCEPTOR>
4

> <PUBCHEM_CACTVS_HBOND_DONOR>
2

> <PUBCHEM_CACTVS_ROTATABLE_BOND>
6

> <PUBCHEM_CACTVS_SUBSKEYS>
AAADceB7MAAGEAAAAAAAAAAAAAAAAWAAAAA8YIAAAAAAAAABQAAAHgJQAAABrD7hmCYwBoPABACIAiFSEACCCAAkJQQIisEODugMZjKF9xuWOSjm1hGIq5eY2AKOJAAAMAAABARIAABgAAAICAAAAAAAAA==

> <PUBCHEM_IUPAC_OPENEYE_NAME>
N-[(3S)-1-[[3-bromo-4-(4-piperidyloxy)phenyl]methyl]pyrrolidin-3-yl]-3,4-dichloro-benzamide

> <PUBCHEM_IUPAC_CAS_NAME>
N-[(3S)-1-[[3-bromo-4-(4-piperidinyloxy)phenyl]methyl]-3-pyrrolidinyl]-3,4-dichlorobenzamide

> <PUBCHEM_IUPAC_NAME_MARKUP>
<I>N</I>-[(3<I>S</I>)-1-[(3-bromo-4-piperidin-4-yloxyphenyl)methyl]pyrrolidin-3-yl]-3,4-dichlorobenzamide

> <PUBCHEM_IUPAC_NAME>
N-[(3S)-1-[(3-bromo-4-piperidin-4-yloxyphenyl)methyl]pyrrolidin-3-yl]-3,4-dichlorobenzamide

> <PUBCHEM_IUPAC_SYSTEMATIC_NAME>
N-[(3S)-1-[(3-bromanyl-4-piperidin-4-yloxy-phenyl)methyl]pyrrolidin-3-yl]-3,4-bis(chloranyl)benzamide

> <PUBCHEM_IUPAC_TRADITIONAL_NAME>
N-[(3S)-1-[3-bromo-4-(4-piperidyloxy)benzyl]pyrrolidin-3-yl]-3,4-dichloro-benzamide

> <PUBCHEM_IUPAC_INCHI>
InChI=1S/C23H26BrCl2N3O2/c24-19-11-15(1-4-22(19)31-18-5-8-27-9-6-18)13-29-10-7-17(14-29)28-23(30)16-2-3-20(25)21(26)12-16/h1-4,11-12,17-18,27H,5-10,13-14H2,(H,28,30)/t17-/m0/s1

> <PUBCHEM_IUPAC_INCHIKEY>
SXVZDDYARZWATR-KRWDZBQOSA-N

> <PUBCHEM_XLOGP3_AA>
5

> <PUBCHEM_EXACT_MASS>
525.05855

> <PUBCHEM_MOLECULAR_FORMULA>
C23H26BrCl2N3O2

> <PUBCHEM_MOLECULAR_WEIGHT>
527.3

> <PUBCHEM_OPENEYE_CAN_SMILES>
C1CNCCC1OC2=C(C=C(C=C2)CN3CCC(C3)NC(=O)C4=CC(=C(C=C4)Cl)Cl)Br

> <PUBCHEM_OPENEYE_ISO_SMILES>
C1CN(C[C@H]1NC(=O)C2=CC(=C(C=C2)Cl)Cl)CC3=CC(=C(C=C3)OC4CCNCC4)Br

> <PUBCHEM_CACTVS_TPSA>
53.6

> <PUBCHEM_MONOISOTOPIC_WEIGHT>
525.05855

> <PUBCHEM_TOTAL_CHARGE>
0

> <PUBCHEM_HEAVY_ATOM_COUNT>
31

> <PUBCHEM_ATOM_DEF_STEREO_COUNT>
1

> <PUBCHEM_ATOM_UDEF_STEREO_COUNT>
0

> <PUBCHEM_BOND_DEF_STEREO_COUNT>
0

> <PUBCHEM_BOND_UDEF_STEREO_COUNT>
0

> <PUBCHEM_ISOTOPIC_ATOM_COUNT>
0

> <PUBCHEM_COMPONENT_COUNT>
1

> <PUBCHEM_CACTVS_TAUTO_COUNT>
-1

> <PUBCHEM_COORDINATE_TYPE>
1
5
255

> <PUBCHEM_BONDANNOTATIONS>
15  21  8
15  22  8
21  24  8
22  25  8
23  24  8
23  25  8
26  27  8
26  28  8
27  29  8
28  30  8
29  31  8
30  31  8
9  7  5

$$$$
