118719797
  -OEChem-09292322362D

 62 66  0     0  0  0  0  0  0999 V2000
    4.2594   -7.5453    0.0000 S   0  0  0  0  0  0  0  0  0  0  0  0
    4.9836    6.4227    0.0000 O   0  0  0  0  0  0  0  0  0  0  0  0
    4.6215    2.9775    0.0000 N   0  0  0  0  0  0  0  0  0  0  0  0
    3.8080    4.8046    0.0000 N   0  0  0  0  0  0  0  0  0  0  0  0
    3.7594   -2.0064    0.0000 N   0  0  0  0  0  0  0  0  0  0  0  0
    3.2594   -0.4676    0.0000 N   0  0  0  0  0  0  0  0  0  0  0  0
    2.9503   -1.4186    0.0000 N   0  0  0  0  0  0  0  0  0  0  0  0
    3.6270    3.0821    0.0000 C   0  0  0  0  0  0  0  0  0  0  0  0
    5.2092    3.7866    0.0000 C   0  0  0  0  0  0  0  0  0  0  0  0
    3.2202    3.9956    0.0000 C   0  0  0  0  0  0  0  0  0  0  0  0
    4.8025    4.7001    0.0000 C   0  0  0  0  0  0  0  0  0  0  0  0
    5.0282    2.0640    0.0000 C   0  0  0  0  0  0  0  0  0  0  0  0
    4.4404    1.2550    0.0000 C   0  0  0  0  0  0  0  0  0  0  0  0
    3.4013    5.7182    0.0000 C   0  0  0  0  0  0  0  0  0  0  0  0
    4.8472    0.3414    0.0000 C   0  0  0  0  0  0  0  0  0  0  0  0
    3.9890    6.5272    0.0000 C   0  0  0  0  0  0  0  0  0  0  0  0
    2.4067    5.8227    0.0000 C   0  0  0  0  0  0  0  0  0  0  0  0
    4.2594   -0.4676    0.0000 C   0  0  0  0  0  0  0  0  0  0  0  0
    3.5823    7.4407    0.0000 C   0  0  0  0  0  0  0  0  0  0  0  0
    2.0000    6.7362    0.0000 C   0  0  0  0  0  0  0  0  0  0  0  0
    4.5684   -1.4186    0.0000 C   0  0  0  0  0  0  0  0  0  0  0  0
    2.5878    7.5453    0.0000 C   0  0  0  0  0  0  0  0  0  0  0  0
    3.7594   -3.0064    0.0000 C   0  0  0  0  0  0  0  0  0  0  0  0
    5.5714    7.2317    0.0000 C   0  0  0  0  0  0  0  0  0  0  0  0
    2.8934   -3.5064    0.0000 C   0  0  0  0  0  0  0  0  0  0  0  0
    4.6254   -3.5064    0.0000 C   0  0  0  0  0  0  0  0  0  0  0  0
    3.7594   -5.0064    0.0000 C   0  0  0  0  0  0  0  0  0  0  0  0
    2.8934   -4.5064    0.0000 C   0  0  0  0  0  0  0  0  0  0  0  0
    4.6254   -4.5064    0.0000 C   0  0  0  0  0  0  0  0  0  0  0  0
    3.7594   -6.0064    0.0000 C   0  0  0  0  0  0  0  0  0  0  0  0
    2.9503   -6.5942    0.0000 C   0  0  0  0  0  0  0  0  0  0  0  0
    4.5684   -6.5942    0.0000 C   0  0  0  0  0  0  0  0  0  0  0  0
    3.2594   -7.5453    0.0000 C   0  0  0  0  0  0  0  0  0  0  0  0
    3.0254    2.9321    0.0000 H   0  0  0  0  0  0  0  0  0  0  0  0
    3.6702    2.4636    0.0000 H   0  0  0  0  0  0  0  0  0  0  0  0
    5.6399    3.3406    0.0000 H   0  0  0  0  0  0  0  0  0  0  0  0
    5.7233    4.1333    0.0000 H   0  0  0  0  0  0  0  0  0  0  0  0
    2.7895    4.4416    0.0000 H   0  0  0  0  0  0  0  0  0  0  0  0
    2.7062    3.6489    0.0000 H   0  0  0  0  0  0  0  0  0  0  0  0
    5.4041    4.8501    0.0000 H   0  0  0  0  0  0  0  0  0  0  0  0
    4.7593    5.3186    0.0000 H   0  0  0  0  0  0  0  0  0  0  0  0
    5.4589    1.6180    0.0000 H   0  0  0  0  0  0  0  0  0  0  0  0
    5.5422    2.4107    0.0000 H   0  0  0  0  0  0  0  0  0  0  0  0
    4.0097    1.7010    0.0000 H   0  0  0  0  0  0  0  0  0  0  0  0
    3.9264    0.9083    0.0000 H   0  0  0  0  0  0  0  0  0  0  0  0
    5.2778   -0.1046    0.0000 H   0  0  0  0  0  0  0  0  0  0  0  0
    5.3612    0.6881    0.0000 H   0  0  0  0  0  0  0  0  0  0  0  0
    2.0423    5.3211    0.0000 H   0  0  0  0  0  0  0  0  0  0  0  0
    3.9467    7.9423    0.0000 H   0  0  0  0  0  0  0  0  0  0  0  0
    1.3834    6.8011    0.0000 H   0  0  0  0  0  0  0  0  0  0  0  0
    5.1580   -1.6102    0.0000 H   0  0  0  0  0  0  0  0  0  0  0  0
    2.3356    8.1117    0.0000 H   0  0  0  0  0  0  0  0  0  0  0  0
    6.0729    6.8673    0.0000 H   0  0  0  0  0  0  0  0  0  0  0  0
    5.9358    7.7333    0.0000 H   0  0  0  0  0  0  0  0  0  0  0  0
    5.0698    7.5961    0.0000 H   0  0  0  0  0  0  0  0  0  0  0  0
    2.3564   -3.1964    0.0000 H   0  0  0  0  0  0  0  0  0  0  0  0
    5.1623   -3.1964    0.0000 H   0  0  0  0  0  0  0  0  0  0  0  0
    2.3564   -4.8164    0.0000 H   0  0  0  0  0  0  0  0  0  0  0  0
    5.1623   -4.8164    0.0000 H   0  0  0  0  0  0  0  0  0  0  0  0
    2.3607   -6.4026    0.0000 H   0  0  0  0  0  0  0  0  0  0  0  0
    5.1580   -6.4026    0.0000 H   0  0  0  0  0  0  0  0  0  0  0  0
    2.8949   -8.0469    0.0000 H   0  0  0  0  0  0  0  0  0  0  0  0
  1 32  1  0  0  0  0
  1 33  1  0  0  0  0
  2 16  1  0  0  0  0
  2 24  1  0  0  0  0
  3  8  1  0  0  0  0
  3  9  1  0  0  0  0
  3 12  1  0  0  0  0
  4 10  1  0  0  0  0
  4 11  1  0  0  0  0
  4 14  1  0  0  0  0
  5  7  1  0  0  0  0
  5 21  1  0  0  0  0
  5 23  1  0  0  0  0
  6  7  2  0  0  0  0
  6 18  1  0  0  0  0
  8 10  1  0  0  0  0
  8 34  1  0  0  0  0
  8 35  1  0  0  0  0
  9 11  1  0  0  0  0
  9 36  1  0  0  0  0
  9 37  1  0  0  0  0
 10 38  1  0  0  0  0
 10 39  1  0  0  0  0
 11 40  1  0  0  0  0
 11 41  1  0  0  0  0
 12 13  1  0  0  0  0
 12 42  1  0  0  0  0
 12 43  1  0  0  0  0
 13 15  1  0  0  0  0
 13 44  1  0  0  0  0
 13 45  1  0  0  0  0
 14 16  1  0  0  0  0
 14 17  2  0  0  0  0
 15 18  1  0  0  0  0
 15 46  1  0  0  0  0
 15 47  1  0  0  0  0
 16 19  2  0  0  0  0
 17 20  1  0  0  0  0
 17 48  1  0  0  0  0
 18 21  2  0  0  0  0
 19 22  1  0  0  0  0
 19 49  1  0  0  0  0
 20 22  2  0  0  0  0
 20 50  1  0  0  0  0
 21 51  1  0  0  0  0
 22 52  1  0  0  0  0
 23 25  2  0  0  0  0
 23 26  1  0  0  0  0
 24 53  1  0  0  0  0
 24 54  1  0  0  0  0
 24 55  1  0  0  0  0
 25 28  1  0  0  0  0
 25 56  1  0  0  0  0
 26 29  2  0  0  0  0
 26 57  1  0  0  0  0
 27 28  2  0  0  0  0
 27 29  1  0  0  0  0
 27 30  1  0  0  0  0
 28 58  1  0  0  0  0
 29 59  1  0  0  0  0
 30 31  1  0  0  0  0
 30 32  2  0  0  0  0
 31 33  2  0  0  0  0
 31 60  1  0  0  0  0
 32 61  1  0  0  0  0
 33 62  1  0  0  0  0
M  END
> <PUBCHEM_COMPOUND_CID>
118719797

> <PUBCHEM_COMPOUND_CANONICALIZED>
1

> <PUBCHEM_CACTVS_COMPLEXITY>
581

> <PUBCHEM_CACTVS_HBOND_ACCEPTOR>
6

> <PUBCHEM_CACTVS_HBOND_DONOR>
0

> <PUBCHEM_CACTVS_ROTATABLE_BOND>
8

> <PUBCHEM_CACTVS_SUBSKEYS>
AAADceB7oABAAAAAAAAAAAAAAAAAAWJAAAA8YIAAAAAAAAAB9AAAHgQIAAAADAzF3ga+x5MIBAimAzRnRACDDKQxuhBYmBg/fIgOZmLksZuVMChkwBH46AeQwMAOiAAAAAAAEAAQAAAAAAAgAAAAAAAAAA==

> <PUBCHEM_IUPAC_OPENEYE_NAME>
1-(2-methoxyphenyl)-4-[3-[1-[4-(3-thienyl)phenyl]triazol-4-yl]propyl]piperazine

> <PUBCHEM_IUPAC_CAS_NAME>
1-(2-methoxyphenyl)-4-[3-[1-[4-(3-thiophenyl)phenyl]-4-triazolyl]propyl]piperazine

> <PUBCHEM_IUPAC_NAME_MARKUP>
1-(2-methoxyphenyl)-4-[3-[1-(4-thiophen-3-ylphenyl)triazol-4-yl]propyl]piperazine

> <PUBCHEM_IUPAC_NAME>
1-(2-methoxyphenyl)-4-[3-[1-(4-thiophen-3-ylphenyl)triazol-4-yl]propyl]piperazine

> <PUBCHEM_IUPAC_SYSTEMATIC_NAME>
1-(2-methoxyphenyl)-4-[3-[1-(4-thiophen-3-ylphenyl)-1,2,3-triazol-4-yl]propyl]piperazine

> <PUBCHEM_IUPAC_TRADITIONAL_NAME>
1-(2-methoxyphenyl)-4-[3-[1-[4-(3-thienyl)phenyl]triazol-4-yl]propyl]piperazine

> <PUBCHEM_IUPAC_INCHI>
InChI=1S/C26H29N5OS/c1-32-26-7-3-2-6-25(26)30-16-14-29(15-17-30)13-4-5-23-19-31(28-27-23)24-10-8-21(9-11-24)22-12-18-33-20-22/h2-3,6-12,18-20H,4-5,13-17H2,1H3

> <PUBCHEM_IUPAC_INCHIKEY>
FQRXUQIAZYDCID-UHFFFAOYSA-N

> <PUBCHEM_XLOGP3_AA>
4.9

> <PUBCHEM_EXACT_MASS>
459.20928174

> <PUBCHEM_MOLECULAR_FORMULA>
C26H29N5OS

> <PUBCHEM_MOLECULAR_WEIGHT>
459.6

> <PUBCHEM_OPENEYE_CAN_SMILES>
COC1=CC=CC=C1N2CCN(CC2)CCCC3=CN(N=N3)C4=CC=C(C=C4)C5=CSC=C5

> <PUBCHEM_OPENEYE_ISO_SMILES>
COC1=CC=CC=C1N2CCN(CC2)CCCC3=CN(N=N3)C4=CC=C(C=C4)C5=CSC=C5

> <PUBCHEM_CACTVS_TPSA>
74.7

> <PUBCHEM_MONOISOTOPIC_WEIGHT>
459.20928174

> <PUBCHEM_TOTAL_CHARGE>
0

> <PUBCHEM_HEAVY_ATOM_COUNT>
33

> <PUBCHEM_ATOM_DEF_STEREO_COUNT>
0

> <PUBCHEM_ATOM_UDEF_STEREO_COUNT>
0

> <PUBCHEM_BOND_DEF_STEREO_COUNT>
0

> <PUBCHEM_BOND_UDEF_STEREO_COUNT>
0

> <PUBCHEM_ISOTOPIC_ATOM_COUNT>
0

> <PUBCHEM_COMPONENT_COUNT>
1

> <PUBCHEM_CACTVS_TAUTO_COUNT>
-1

> <PUBCHEM_COORDINATE_TYPE>
1
5
255

> <PUBCHEM_BONDANNOTATIONS>
1  32  8
1  33  8
14  16  8
14  17  8
16  19  8
17  20  8
18  21  8
19  22  8
20  22  8
23  25  8
23  26  8
25  28  8
26  29  8
27  28  8
27  29  8
30  31  8
30  32  8
31  33  8
5  21  8
5  7  8
6  18  8
6  7  8

$$$$
