45262323
  -OEChem-09292322122D

 77 80  0     1  0  0  0  0  0999 V2000
    8.4488    0.0000    0.0000 Cl  0  0  0  0  0  0  0  0  0  0  0  0
   16.4915    6.1749    0.0000 S   0  0  0  0  0  0  0  0  0  0  0  0
    5.2688    3.0493    0.0000 O   0  0  0  0  0  0  0  0  0  0  0  0
   15.6236    6.6716    0.0000 O   0  0  0  0  0  0  0  0  0  0  0  0
   16.9882    7.0428    0.0000 O   0  0  0  0  0  0  0  0  0  0  0  0
   15.9949    5.3069    0.0000 O   0  0  0  0  0  0  0  0  0  0  0  0
   10.7688    5.6474    0.0000 N   0  0  3  0  0  0  0  0  0  0  0  0
    5.2688    4.7814    0.0000 N   0  0  0  0  0  0  0  0  0  0  0  0
    1.7688    5.6474    0.0000 N   0  0  0  0  0  0  0  0  0  0  0  0
    8.2688    4.7814    0.0000 C   0  0  0  0  0  0  0  0  0  0  0  0
    7.7688    3.9154    0.0000 C   0  0  0  0  0  0  0  0  0  0  0  0
    7.7688    5.6474    0.0000 C   0  0  0  0  0  0  0  0  0  0  0  0
    6.2688    4.7814    0.0000 C   0  0  0  0  0  0  0  0  0  0  0  0
    6.7688    3.9154    0.0000 C   0  0  0  0  0  0  0  0  0  0  0  0
    6.7688    5.6474    0.0000 C   0  0  0  0  0  0  0  0  0  0  0  0
    9.2688    4.7814    0.0000 C   0  0  0  0  0  0  0  0  0  0  0  0
    9.7688    5.6474    0.0000 C   0  0  0  0  0  0  0  0  0  0  0  0
   11.2027    6.5484    0.0000 C   0  0  0  0  0  0  0  0  0  0  0  0
   11.2027    4.7464    0.0000 C   0  0  0  0  0  0  0  0  0  0  0  0
   12.1776    6.7709    0.0000 C   0  0  0  0  0  0  0  0  0  0  0  0
   12.1776    4.5239    0.0000 C   0  0  0  0  0  0  0  0  0  0  0  0
   12.9595    6.1474    0.0000 C   0  0  0  0  0  0  0  0  0  0  0  0
   12.9595    5.1474    0.0000 C   0  0  0  0  0  0  0  0  0  0  0  0
    4.7688    3.9154    0.0000 C   0  0  0  0  0  0  0  0  0  0  0  0
   13.8534    6.6821    0.0000 C   0  0  0  0  0  0  0  0  0  0  0  0
   13.8534    4.6127    0.0000 C   0  0  0  0  0  0  0  0  0  0  0  0
    3.7688    3.9154    0.0000 C   0  0  0  0  0  0  0  0  0  0  0  0
   14.7595    6.1682    0.0000 C   0  0  0  0  0  0  0  0  0  0  0  0
   14.7595    5.1266    0.0000 C   0  0  0  0  0  0  0  0  0  0  0  0
    3.2688    4.7814    0.0000 C   0  0  0  0  0  0  0  0  0  0  0  0
    3.2688    3.0493    0.0000 C   0  0  0  0  0  0  0  0  0  0  0  0
    2.2688    4.7814    0.0000 C   0  0  0  0  0  0  0  0  0  0  0  0
    2.2688    3.0493    0.0000 C   0  0  0  0  0  0  0  0  0  0  0  0
    1.7688    3.9154    0.0000 C   0  0  0  0  0  0  0  0  0  0  0  0
   17.3595    5.6782    0.0000 C   0  0  0  0  0  0  0  0  0  0  0  0
    2.1756    6.5610    0.0000 C   0  0  0  0  0  0  0  0  0  0  0  0
    0.7743    5.7519    0.0000 C   0  0  0  0  0  0  0  0  0  0  0  0
    1.4324    7.2301    0.0000 C   0  0  0  0  0  0  0  0  0  0  0  0
    0.5664    6.7301    0.0000 C   0  0  0  0  0  0  0  0  0  0  0  0
    8.5788    4.2444    0.0000 H   0  0  0  0  0  0  0  0  0  0  0  0
    7.6612    3.3048    0.0000 H   0  0  0  0  0  0  0  0  0  0  0  0
    8.3514    3.7033    0.0000 H   0  0  0  0  0  0  0  0  0  0  0  0
    8.3514    5.8595    0.0000 H   0  0  0  0  0  0  0  0  0  0  0  0
    7.6612    6.2580    0.0000 H   0  0  0  0  0  0  0  0  0  0  0  0
    5.9588    4.2444    0.0000 H   0  0  0  0  0  0  0  0  0  0  0  0
    6.1862    3.7033    0.0000 H   0  0  0  0  0  0  0  0  0  0  0  0
    6.8765    3.3048    0.0000 H   0  0  0  0  0  0  0  0  0  0  0  0
    6.8765    6.2580    0.0000 H   0  0  0  0  0  0  0  0  0  0  0  0
    6.1862    5.8595    0.0000 H   0  0  0  0  0  0  0  0  0  0  0  0
    9.1612    4.1708    0.0000 H   0  0  0  0  0  0  0  0  0  0  0  0
    9.8514    4.5693    0.0000 H   0  0  0  0  0  0  0  0  0  0  0  0
    9.8765    6.2580    0.0000 H   0  0  0  0  0  0  0  0  0  0  0  0
    9.1862    5.8595    0.0000 H   0  0  0  0  0  0  0  0  0  0  0  0
    4.9588    5.3183    0.0000 H   0  0  0  0  0  0  0  0  0  0  0  0
   11.2027    7.1684    0.0000 H   0  0  0  0  0  0  0  0  0  0  0  0
   10.5983    6.6863    0.0000 H   0  0  0  0  0  0  0  0  0  0  0  0
   10.5983    4.6085    0.0000 H   0  0  0  0  0  0  0  0  0  0  0  0
   11.2027    4.1264    0.0000 H   0  0  0  0  0  0  0  0  0  0  0  0
   12.6624    7.1575    0.0000 H   0  0  0  0  0  0  0  0  0  0  0  0
   11.9086    7.3295    0.0000 H   0  0  0  0  0  0  0  0  0  0  0  0
   11.9086    3.9653    0.0000 H   0  0  0  0  0  0  0  0  0  0  0  0
   12.6624    4.1374    0.0000 H   0  0  0  0  0  0  0  0  0  0  0  0
   13.8462    7.3020    0.0000 H   0  0  0  0  0  0  0  0  0  0  0  0
   13.8462    3.9928    0.0000 H   0  0  0  0  0  0  0  0  0  0  0  0
   15.2952    4.8145    0.0000 H   0  0  0  0  0  0  0  0  0  0  0  0
    3.5788    5.3183    0.0000 H   0  0  0  0  0  0  0  0  0  0  0  0
    3.5788    2.5124    0.0000 H   0  0  0  0  0  0  0  0  0  0  0  0
    1.9588    2.5124    0.0000 H   0  0  0  0  0  0  0  0  0  0  0  0
    1.1488    3.9154    0.0000 H   0  0  0  0  0  0  0  0  0  0  0  0
   17.0515    5.1401    0.0000 H   0  0  0  0  0  0  0  0  0  0  0  0
   17.8976    5.3703    0.0000 H   0  0  0  0  0  0  0  0  0  0  0  0
   17.6674    6.2164    0.0000 H   0  0  0  0  0  0  0  0  0  0  0  0
    2.7820    6.6898    0.0000 H   0  0  0  0  0  0  0  0  0  0  0  0
    0.3594    5.2912    0.0000 H   0  0  0  0  0  0  0  0  0  0  0  0
    1.4972    7.8467    0.0000 H   0  0  0  0  0  0  0  0  0  0  0  0
    0.0000    6.9822    0.0000 H   0  0  0  0  0  0  0  0  0  0  0  0
    9.4488    0.0000    0.0000 H   0  0  0  0  0  0  0  0  0  0  0  0
  1 77  1  0  0  0  0
  2  4  1  0  0  0  0
  2  5  2  0  0  0  0
  2  6  2  0  0  0  0
  2 35  1  0  0  0  0
  3 24  2  0  0  0  0
  4 28  1  0  0  0  0
  7 17  1  0  0  0  0
  7 18  1  0  0  0  0
  7 19  1  0  0  0  0
  8 13  1  0  0  0  0
  8 24  1  0  0  0  0
  8 54  1  0  0  0  0
  9 32  1  0  0  0  0
  9 36  1  0  0  0  0
  9 37  1  0  0  0  0
 10 11  1  0  0  0  0
 10 12  1  0  0  0  0
 10 16  1  0  0  0  0
 10 40  1  0  0  0  0
 11 14  1  0  0  0  0
 11 41  1  0  0  0  0
 11 42  1  0  0  0  0
 12 15  1  0  0  0  0
 12 43  1  0  0  0  0
 12 44  1  0  0  0  0
 13 14  1  0  0  0  0
 13 15  1  0  0  0  0
 13 45  1  0  0  0  0
 14 46  1  0  0  0  0
 14 47  1  0  0  0  0
 15 48  1  0  0  0  0
 15 49  1  0  0  0  0
 16 17  1  0  0  0  0
 16 50  1  0  0  0  0
 16 51  1  0  0  0  0
 17 52  1  0  0  0  0
 17 53  1  0  0  0  0
 18 20  1  0  0  0  0
 18 55  1  0  0  0  0
 18 56  1  0  0  0  0
 19 21  1  0  0  0  0
 19 57  1  0  0  0  0
 19 58  1  0  0  0  0
 20 22  1  0  0  0  0
 20 59  1  0  0  0  0
 20 60  1  0  0  0  0
 21 23  1  0  0  0  0
 21 61  1  0  0  0  0
 21 62  1  0  0  0  0
 22 23  2  0  0  0  0
 22 25  1  0  0  0  0
 23 26  1  0  0  0  0
 24 27  1  0  0  0  0
 25 28  2  0  0  0  0
 25 63  1  0  0  0  0
 26 29  2  0  0  0  0
 26 64  1  0  0  0  0
 27 30  2  0  0  0  0
 27 31  1  0  0  0  0
 28 29  1  0  0  0  0
 29 65  1  0  0  0  0
 30 32  1  0  0  0  0
 30 66  1  0  0  0  0
 31 33  2  0  0  0  0
 31 67  1  0  0  0  0
 32 34  2  0  0  0  0
 33 34  1  0  0  0  0
 33 68  1  0  0  0  0
 34 69  1  0  0  0  0
 35 70  1  0  0  0  0
 35 71  1  0  0  0  0
 35 72  1  0  0  0  0
 36 38  2  0  0  0  0
 36 73  1  0  0  0  0
 37 39  2  0  0  0  0
 37 74  1  0  0  0  0
 38 39  1  0  0  0  0
 38 75  1  0  0  0  0
 39 76  1  0  0  0  0
M  END
> <PUBCHEM_COMPOUND_CID>
45262323

> <PUBCHEM_COMPOUND_CANONICALIZED>
1

> <PUBCHEM_CACTVS_COMPLEXITY>
863

> <PUBCHEM_CACTVS_HBOND_ACCEPTOR>
5

> <PUBCHEM_CACTVS_HBOND_DONOR>
2

> <PUBCHEM_CACTVS_ROTATABLE_BOND>
8

> <PUBCHEM_CACTVS_SUBSKEYS>
AAADcfB7OABEAAAAAAAAAAAAAAAAAWAAAAAwYMAABYAAAAAB0AAAHgQQAAAADSzBmgS+xpPMEAKoAjV3VHCCgCA1IiAI2KE+bNgIJvLAlZOEMQhk1hHIyYec2LKOoAABQAAQAABQAAKAACAAAAAAAAAAAA==

> <PUBCHEM_IUPAC_OPENEYE_NAME>
[3-[2-[4-[(3-pyrrol-1-ylbenzoyl)amino]cyclohexyl]ethyl]-1,2,4,5-tetrahydro-3-benzazepin-7-yl] methanesulfonate;hydrochloride

> <PUBCHEM_IUPAC_CAS_NAME>
methanesulfonic acid [3-[2-[4-[[oxo-[3-(1-pyrrolyl)phenyl]methyl]amino]cyclohexyl]ethyl]-1,2,4,5-tetrahydro-3-benzazepin-7-yl] ester;hydrochloride

> <PUBCHEM_IUPAC_NAME_MARKUP>
[3-[2-[4-[(3-pyrrol-1-ylbenzoyl)amino]cyclohexyl]ethyl]-1,2,4,5-tetrahydro-3-benzazepin-7-yl] methanesulfonate;hydrochloride

> <PUBCHEM_IUPAC_NAME>
[3-[2-[4-[(3-pyrrol-1-ylbenzoyl)amino]cyclohexyl]ethyl]-1,2,4,5-tetrahydro-3-benzazepin-7-yl] methanesulfonate;hydrochloride

> <PUBCHEM_IUPAC_SYSTEMATIC_NAME>
[3-[2-[4-[(3-pyrrol-1-ylphenyl)carbonylamino]cyclohexyl]ethyl]-1,2,4,5-tetrahydro-3-benzazepin-7-yl] methanesulfonate;hydrochloride

> <PUBCHEM_IUPAC_TRADITIONAL_NAME>
methanesulfonic acid [3-[2-[4-[(3-pyrrol-1-ylbenzoyl)amino]cyclohexyl]ethyl]-1,2,4,5-tetrahydro-3-benzazepin-7-yl] ester;hydrochloride

> <PUBCHEM_IUPAC_INCHI>
InChI=1S/C30H37N3O4S.ClH/c1-38(35,36)37-29-12-9-24-14-19-32(20-15-25(24)22-29)18-13-23-7-10-27(11-8-23)31-30(34)26-5-4-6-28(21-26)33-16-2-3-17-33;/h2-6,9,12,16-17,21-23,27H,7-8,10-11,13-15,18-20H2,1H3,(H,31,34);1H

> <PUBCHEM_IUPAC_INCHIKEY>
GHZSMFQVDZLPEQ-UHFFFAOYSA-N

> <PUBCHEM_EXACT_MASS>
571.2271556

> <PUBCHEM_MOLECULAR_FORMULA>
C30H38ClN3O4S

> <PUBCHEM_MOLECULAR_WEIGHT>
572.2

> <PUBCHEM_OPENEYE_CAN_SMILES>
CS(=O)(=O)OC1=CC2=C(CCN(CC2)CCC3CCC(CC3)NC(=O)C4=CC(=CC=C4)N5C=CC=C5)C=C1.Cl

> <PUBCHEM_OPENEYE_ISO_SMILES>
CS(=O)(=O)OC1=CC2=C(CCN(CC2)CCC3CCC(CC3)NC(=O)C4=CC(=CC=C4)N5C=CC=C5)C=C1.Cl

> <PUBCHEM_CACTVS_TPSA>
89

> <PUBCHEM_MONOISOTOPIC_WEIGHT>
571.2271556

> <PUBCHEM_TOTAL_CHARGE>
0

> <PUBCHEM_HEAVY_ATOM_COUNT>
39

> <PUBCHEM_ATOM_DEF_STEREO_COUNT>
0

> <PUBCHEM_ATOM_UDEF_STEREO_COUNT>
0

> <PUBCHEM_BOND_DEF_STEREO_COUNT>
0

> <PUBCHEM_BOND_UDEF_STEREO_COUNT>
0

> <PUBCHEM_ISOTOPIC_ATOM_COUNT>
0

> <PUBCHEM_COMPONENT_COUNT>
2

> <PUBCHEM_CACTVS_TAUTO_COUNT>
-1

> <PUBCHEM_COORDINATE_TYPE>
1
5
255

> <PUBCHEM_BONDANNOTATIONS>
22  23  8
22  25  8
23  26  8
25  28  8
26  29  8
27  30  8
27  31  8
28  29  8
30  32  8
31  33  8
32  34  8
33  34  8
36  38  8
37  39  8
38  39  8
9  36  8
9  37  8

$$$$
