155195495
  -OEChem-09292322402D

 56 57  0     1  0  0  0  0  0999 V2000
    8.9282    0.2500    0.0000 O   0  0  0  0  0  0  0  0  0  0  0  0
    8.9282   -1.7500    0.0000 N   0  0  3  0  0  0  0  0  0  0  0  0
    4.5981    1.7500    0.0000 N   0  0  0  0  0  0  0  0  0  0  0  0
    6.3301    1.7500    0.0000 N   0  0  0  0  0  0  0  0  0  0  0  0
    9.7942   -1.2500    0.0000 C   0  0  2  0  0  0  0  0  0  0  0  0
    8.0622   -1.2500    0.0000 C   0  0  0  0  0  0  0  0  0  0  0  0
    8.0622   -0.2500    0.0000 C   0  0  3  0  0  0  0  0  0  0  0  0
    9.7942   -0.2500    0.0000 C   0  0  0  0  0  0  0  0  0  0  0  0
    8.9282   -2.7500    0.0000 C   0  0  0  0  0  0  0  0  0  0  0  0
   10.6603   -1.7500    0.0000 C   0  0  0  0  0  0  0  0  0  0  0  0
    7.1962    0.2500    0.0000 C   0  0  0  0  0  0  0  0  0  0  0  0
    8.0622   -3.2500    0.0000 C   0  0  0  0  0  0  0  0  0  0  0  0
    6.3301   -0.2500    0.0000 C   0  0  0  0  0  0  0  0  0  0  0  0
    7.1962    1.2500    0.0000 C   0  0  0  0  0  0  0  0  0  0  0  0
    8.0622   -4.2500    0.0000 C   0  0  0  0  0  0  0  0  0  0  0  0
    5.4641    1.2500    0.0000 C   0  0  0  0  0  0  0  0  0  0  0  0
    5.4641    0.2500    0.0000 C   0  0  0  0  0  0  0  0  0  0  0  0
    4.5981    2.7500    0.0000 C   0  0  0  0  0  0  0  0  0  0  0  0
    3.7320    1.2500    0.0000 C   0  0  0  0  0  0  0  0  0  0  0  0
    3.7320    3.2500    0.0000 C   0  0  0  0  0  0  0  0  0  0  0  0
    2.8660    1.7500    0.0000 C   0  0  0  0  0  0  0  0  0  0  0  0
    3.7320    4.2500    0.0000 C   0  0  0  0  0  0  0  0  0  0  0  0
    2.0000    1.2500    0.0000 C   0  0  0  0  0  0  0  0  0  0  0  0
    9.7942   -1.8700    0.0000 H   0  0  0  0  0  0  0  0  0  0  0  0
    7.4516   -1.1423    0.0000 H   0  0  0  0  0  0  0  0  0  0  0  0
    7.8501   -1.8326    0.0000 H   0  0  0  0  0  0  0  0  0  0  0  0
    8.0622    0.3700    0.0000 H   0  0  0  0  0  0  0  0  0  0  0  0
   10.4048   -0.3577    0.0000 H   0  0  0  0  0  0  0  0  0  0  0  0
   10.0063    0.3326    0.0000 H   0  0  0  0  0  0  0  0  0  0  0  0
    9.1403   -3.3326    0.0000 H   0  0  0  0  0  0  0  0  0  0  0  0
    9.5388   -2.6423    0.0000 H   0  0  0  0  0  0  0  0  0  0  0  0
   10.3503   -2.2869    0.0000 H   0  0  0  0  0  0  0  0  0  0  0  0
   11.1972   -2.0600    0.0000 H   0  0  0  0  0  0  0  0  0  0  0  0
   10.9703   -1.2131    0.0000 H   0  0  0  0  0  0  0  0  0  0  0  0
    7.8501   -2.6674    0.0000 H   0  0  0  0  0  0  0  0  0  0  0  0
    7.4516   -3.3577    0.0000 H   0  0  0  0  0  0  0  0  0  0  0  0
    6.3301   -0.8700    0.0000 H   0  0  0  0  0  0  0  0  0  0  0  0
    7.7331    1.5600    0.0000 H   0  0  0  0  0  0  0  0  0  0  0  0
    7.4422   -4.2500    0.0000 H   0  0  0  0  0  0  0  0  0  0  0  0
    8.0622   -4.8700    0.0000 H   0  0  0  0  0  0  0  0  0  0  0  0
    8.6822   -4.2500    0.0000 H   0  0  0  0  0  0  0  0  0  0  0  0
    4.9272   -0.0600    0.0000 H   0  0  0  0  0  0  0  0  0  0  0  0
    5.2087    2.6423    0.0000 H   0  0  0  0  0  0  0  0  0  0  0  0
    4.8101    3.3326    0.0000 H   0  0  0  0  0  0  0  0  0  0  0  0
    3.3335    0.7751    0.0000 H   0  0  0  0  0  0  0  0  0  0  0  0
    4.1306    0.7751    0.0000 H   0  0  0  0  0  0  0  0  0  0  0  0
    3.1215    3.3577    0.0000 H   0  0  0  0  0  0  0  0  0  0  0  0
    3.5200    2.6674    0.0000 H   0  0  0  0  0  0  0  0  0  0  0  0
    3.2646    2.2250    0.0000 H   0  0  0  0  0  0  0  0  0  0  0  0
    2.4675    2.2250    0.0000 H   0  0  0  0  0  0  0  0  0  0  0  0
    4.3520    4.2500    0.0000 H   0  0  0  0  0  0  0  0  0  0  0  0
    3.7320    4.8700    0.0000 H   0  0  0  0  0  0  0  0  0  0  0  0
    3.1120    4.2500    0.0000 H   0  0  0  0  0  0  0  0  0  0  0  0
    1.6900    1.7869    0.0000 H   0  0  0  0  0  0  0  0  0  0  0  0
    1.4631    0.9400    0.0000 H   0  0  0  0  0  0  0  0  0  0  0  0
    2.3100    0.7131    0.0000 H   0  0  0  0  0  0  0  0  0  0  0  0
  1  7  1  0  0  0  0
  1  8  1  0  0  0  0
  2  5  1  0  0  0  0
  2  6  1  0  0  0  0
  2  9  1  0  0  0  0
  3 16  1  0  0  0  0
  3 18  1  0  0  0  0
  3 19  1  0  0  0  0
  4 14  1  0  0  0  0
  4 16  2  0  0  0  0
  5  8  1  0  0  0  0
  5 10  1  6  0  0  0
  5 24  1  0  0  0  0
  6  7  1  0  0  0  0
  6 25  1  0  0  0  0
  6 26  1  0  0  0  0
  7 11  1  0  0  0  0
  7 27  1  0  0  0  0
  8 28  1  0  0  0  0
  8 29  1  0  0  0  0
  9 12  1  0  0  0  0
  9 30  1  0  0  0  0
  9 31  1  0  0  0  0
 10 32  1  0  0  0  0
 10 33  1  0  0  0  0
 10 34  1  0  0  0  0
 11 13  1  0  0  0  0
 11 14  2  0  0  0  0
 12 15  1  0  0  0  0
 12 35  1  0  0  0  0
 12 36  1  0  0  0  0
 13 17  2  0  0  0  0
 13 37  1  0  0  0  0
 14 38  1  0  0  0  0
 15 39  1  0  0  0  0
 15 40  1  0  0  0  0
 15 41  1  0  0  0  0
 16 17  1  0  0  0  0
 17 42  1  0  0  0  0
 18 20  1  0  0  0  0
 18 43  1  0  0  0  0
 18 44  1  0  0  0  0
 19 21  1  0  0  0  0
 19 45  1  0  0  0  0
 19 46  1  0  0  0  0
 20 22  1  0  0  0  0
 20 47  1  0  0  0  0
 20 48  1  0  0  0  0
 21 23  1  0  0  0  0
 21 49  1  0  0  0  0
 21 50  1  0  0  0  0
 22 51  1  0  0  0  0
 22 52  1  0  0  0  0
 22 53  1  0  0  0  0
 23 54  1  0  0  0  0
 23 55  1  0  0  0  0
 23 56  1  0  0  0  0
M  END
> <PUBCHEM_COMPOUND_CID>
155195495

> <PUBCHEM_COMPOUND_CANONICALIZED>
1

> <PUBCHEM_CACTVS_COMPLEXITY>
320

> <PUBCHEM_CACTVS_HBOND_ACCEPTOR>
4

> <PUBCHEM_CACTVS_HBOND_DONOR>
0

> <PUBCHEM_CACTVS_ROTATABLE_BOND>
8

> <PUBCHEM_CACTVS_SUBSKEYS>
AAADcfB7IAAAAAAAAAAAAAAAAAAAAAAAAAAsWAAAAAAAAAABgAAAHgAAAAAADDzhmgY/sJMIFACgAjJnZACCgCkxAiAJ2CA4bJiKJuLAuZmHMAhuwAPY6CeQEAIOAAAAAAAAAAAAAAAAAAAAAAAAAAAAAA==

> <PUBCHEM_IUPAC_OPENEYE_NAME>
5-[(5S)-5-methyl-4-propyl-morpholin-2-yl]-N,N-dipropyl-pyridin-2-amine

> <PUBCHEM_IUPAC_CAS_NAME>
5-[(5S)-5-methyl-4-propyl-2-morpholinyl]-N,N-dipropyl-2-pyridinamine

> <PUBCHEM_IUPAC_NAME_MARKUP>
5-[(5<I>S</I>)-5-methyl-4-propylmorpholin-2-yl]-<I>N</I>,<I>N</I>-dipropylpyridin-2-amine

> <PUBCHEM_IUPAC_NAME>
5-[(5S)-5-methyl-4-propylmorpholin-2-yl]-N,N-dipropylpyridin-2-amine

> <PUBCHEM_IUPAC_SYSTEMATIC_NAME>
5-[(5S)-5-methyl-4-propyl-morpholin-2-yl]-N,N-dipropyl-pyridin-2-amine

> <PUBCHEM_IUPAC_TRADITIONAL_NAME>
[5-[(5S)-5-methyl-4-propyl-morpholin-2-yl]-2-pyridyl]-dipropyl-amine

> <PUBCHEM_IUPAC_INCHI>
InChI=1S/C19H33N3O/c1-5-10-21(11-6-2)19-9-8-17(13-20-19)18-14-22(12-7-3)16(4)15-23-18/h8-9,13,16,18H,5-7,10-12,14-15H2,1-4H3/t16-,18?/m0/s1

> <PUBCHEM_IUPAC_INCHIKEY>
GMNZPHIBCDMEFH-ATNAJCNCSA-N

> <PUBCHEM_XLOGP3_AA>
3.9

> <PUBCHEM_EXACT_MASS>
319.262362685

> <PUBCHEM_MOLECULAR_FORMULA>
C19H33N3O

> <PUBCHEM_MOLECULAR_WEIGHT>
319.5

> <PUBCHEM_OPENEYE_CAN_SMILES>
CCCN1CC(OCC1C)C2=CN=C(C=C2)N(CCC)CCC

> <PUBCHEM_OPENEYE_ISO_SMILES>
CCCN1CC(OC[C@@H]1C)C2=CN=C(C=C2)N(CCC)CCC

> <PUBCHEM_CACTVS_TPSA>
28.6

> <PUBCHEM_MONOISOTOPIC_WEIGHT>
319.262362685

> <PUBCHEM_TOTAL_CHARGE>
0

> <PUBCHEM_HEAVY_ATOM_COUNT>
23

> <PUBCHEM_ATOM_DEF_STEREO_COUNT>
1

> <PUBCHEM_ATOM_UDEF_STEREO_COUNT>
1

> <PUBCHEM_BOND_DEF_STEREO_COUNT>
0

> <PUBCHEM_BOND_UDEF_STEREO_COUNT>
0

> <PUBCHEM_ISOTOPIC_ATOM_COUNT>
0

> <PUBCHEM_COMPONENT_COUNT>
1

> <PUBCHEM_CACTVS_TAUTO_COUNT>
-1

> <PUBCHEM_COORDINATE_TYPE>
1
5
255

> <PUBCHEM_BONDANNOTATIONS>
11  13  8
11  14  8
13  17  8
16  17  8
4  14  8
4  16  8
5  10  6
7  11  3

$$$$
