142405827
  -OEChem-09292322422D

 48 51  0     1  0  0  0  0  0999 V2000
   11.1462   -1.2603    0.0000 Cl  0  0  0  0  0  0  0  0  0  0  0  0
    2.0000   -2.6149    0.0000 F   0  0  0  0  0  0  0  0  0  0  0  0
    2.0583   -1.2019    0.0000 F   0  0  0  0  0  0  0  0  0  0  0  0
    3.4130   -2.6732    0.0000 F   0  0  0  0  0  0  0  0  0  0  0  0
    3.4714   -1.2602    0.0000 O   0  0  0  0  0  0  0  0  0  0  0  0
    5.5072    2.3063    0.0000 N   0  0  3  0  0  0  0  0  0  0  0  0
    7.8088   -0.3966    0.0000 N   0  0  0  0  0  0  0  0  0  0  0  0
    7.3088   -2.5873    0.0000 N   0  0  0  0  0  0  0  0  0  0  0  0
    6.5044    2.2316    0.0000 C   0  0  2  0  0  0  0  0  0  0  0  0
    4.9438    1.4801    0.0000 C   0  0  0  0  0  0  0  0  0  0  0  0
    5.3777    0.5791    0.0000 C   0  0  0  0  0  0  0  0  0  0  0  0
    6.3749    0.5044    0.0000 C   0  0  0  0  0  0  0  0  0  0  0  0
    6.9382    1.3306    0.0000 C   0  0  0  0  0  0  0  0  0  0  0  0
    6.8088   -0.3966    0.0000 C   0  0  0  0  0  0  0  0  0  0  0  0
    7.0677    3.0578    0.0000 C   0  0  0  0  0  0  0  0  0  0  0  0
    5.0733    3.2073    0.0000 C   0  0  0  0  0  0  0  0  0  0  0  0
    6.1853   -1.1784    0.0000 C   0  0  0  0  0  0  0  0  0  0  0  0
    6.4078   -2.1534    0.0000 C   0  0  0  0  0  0  0  0  0  0  0  0
    8.4323   -1.1785    0.0000 C   0  0  0  0  0  0  0  0  0  0  0  0
    5.1948   -0.8561    0.0000 C   0  0  0  0  0  0  0  0  0  0  0  0
    8.2097   -2.1534    0.0000 C   0  0  0  0  0  0  0  0  0  0  0  0
    5.6552   -2.8736    0.0000 C   0  0  0  0  0  0  0  0  0  0  0  0
    4.4258   -1.5587    0.0000 C   0  0  0  0  0  0  0  0  0  0  0  0
    4.6575   -2.5742    0.0000 C   0  0  0  0  0  0  0  0  0  0  0  0
    9.4228   -0.8561    0.0000 C   0  0  0  0  0  0  0  0  0  0  0  0
    8.9623   -2.8736    0.0000 C   0  0  0  0  0  0  0  0  0  0  0  0
   10.1918   -1.5587    0.0000 C   0  0  0  0  0  0  0  0  0  0  0  0
    9.9600   -2.5742    0.0000 C   0  0  0  0  0  0  0  0  0  0  0  0
    2.7357   -1.9376    0.0000 C   0  0  0  0  0  0  0  0  0  0  0  0
    6.2354    2.7902    0.0000 H   0  0  0  0  0  0  0  0  0  0  0  0
    4.5000    1.9130    0.0000 H   0  0  0  0  0  0  0  0  0  0  0  0
    4.4404    1.1181    0.0000 H   0  0  0  0  0  0  0  0  0  0  0  0
    4.7809    0.4112    0.0000 H   0  0  0  0  0  0  0  0  0  0  0  0
    5.4394   -0.0378    0.0000 H   0  0  0  0  0  0  0  0  0  0  0  0
    7.5565    1.2842    0.0000 H   0  0  0  0  0  0  0  0  0  0  0  0
    7.5800    2.7085    0.0000 H   0  0  0  0  0  0  0  0  0  0  0  0
    7.4169    3.5701    0.0000 H   0  0  0  0  0  0  0  0  0  0  0  0
    6.5554    3.4070    0.0000 H   0  0  0  0  0  0  0  0  0  0  0  0
    5.6319    3.4763    0.0000 H   0  0  0  0  0  0  0  0  0  0  0  0
    4.8043    3.7659    0.0000 H   0  0  0  0  0  0  0  0  0  0  0  0
    4.5147    2.9383    0.0000 H   0  0  0  0  0  0  0  0  0  0  0  0
    5.0638   -0.2501    0.0000 H   0  0  0  0  0  0  0  0  0  0  0  0
    7.3088   -3.2073    0.0000 H   0  0  0  0  0  0  0  0  0  0  0  0
    5.8002   -3.4764    0.0000 H   0  0  0  0  0  0  0  0  0  0  0  0
    4.2047   -2.9976    0.0000 H   0  0  0  0  0  0  0  0  0  0  0  0
    9.5537   -0.2501    0.0000 H   0  0  0  0  0  0  0  0  0  0  0  0
    8.8173   -3.4764    0.0000 H   0  0  0  0  0  0  0  0  0  0  0  0
   10.4128   -2.9977    0.0000 H   0  0  0  0  0  0  0  0  0  0  0  0
  1 27  1  0  0  0  0
  2 29  1  0  0  0  0
  3 29  1  0  0  0  0
  4 29  1  0  0  0  0
  5 23  1  0  0  0  0
  5 29  1  0  0  0  0
  6  9  1  0  0  0  0
  6 10  1  0  0  0  0
  6 16  1  0  0  0  0
  7 14  2  0  0  0  0
  7 19  1  0  0  0  0
  8 18  1  0  0  0  0
  8 21  1  0  0  0  0
  8 43  1  0  0  0  0
  9 13  1  0  0  0  0
  9 15  1  1  0  0  0
  9 30  1  0  0  0  0
 10 11  1  0  0  0  0
 10 31  1  0  0  0  0
 10 32  1  0  0  0  0
 11 12  1  0  0  0  0
 11 33  1  0  0  0  0
 11 34  1  0  0  0  0
 12 13  2  0  0  0  0
 12 14  1  0  0  0  0
 13 35  1  0  0  0  0
 14 17  1  0  0  0  0
 15 36  1  0  0  0  0
 15 37  1  0  0  0  0
 15 38  1  0  0  0  0
 16 39  1  0  0  0  0
 16 40  1  0  0  0  0
 16 41  1  0  0  0  0
 17 18  2  0  0  0  0
 17 20  1  0  0  0  0
 18 22  1  0  0  0  0
 19 21  2  0  0  0  0
 19 25  1  0  0  0  0
 20 23  2  0  0  0  0
 20 42  1  0  0  0  0
 21 26  1  0  0  0  0
 22 24  2  0  0  0  0
 22 44  1  0  0  0  0
 23 24  1  0  0  0  0
 24 45  1  0  0  0  0
 25 27  2  0  0  0  0
 25 46  1  0  0  0  0
 26 28  2  0  0  0  0
 26 47  1  0  0  0  0
 27 28  1  0  0  0  0
 28 48  1  0  0  0  0
M  END
> <PUBCHEM_COMPOUND_CID>
142405827

> <PUBCHEM_COMPOUND_CANONICALIZED>
1

> <PUBCHEM_CACTVS_COMPLEXITY>
668

> <PUBCHEM_CACTVS_HBOND_ACCEPTOR>
7

> <PUBCHEM_CACTVS_HBOND_DONOR>
1

> <PUBCHEM_CACTVS_ROTATABLE_BOND>
2

> <PUBCHEM_CACTVS_SUBSKEYS>
AAADceB7IYAEAAAAAAAAAAAAAAAAAAAAAAAwYIAABAAAAAABQAAAHwIQAAAADC7BmDQyxoPABACgAyRiRACCCAAhJwAIiAAufpgMZuLFs5uUMChk0BHI6AewwLAOAEBBAAICACAAgIIABAQAQAAAAAAAAA==

> <PUBCHEM_IUPAC_OPENEYE_NAME>
3-chloro-6-[(6S)-1,6-dimethyl-3,6-dihydro-2H-pyridin-4-yl]-8-(trifluoromethoxy)-11H-benzo[b][1,4]benzodiazepine

> <PUBCHEM_IUPAC_CAS_NAME>
3-chloro-6-[(6S)-1,6-dimethyl-3,6-dihydro-2H-pyridin-4-yl]-8-(trifluoromethoxy)-11H-benzo[b][1,4]benzodiazepine

> <PUBCHEM_IUPAC_NAME_MARKUP>
3-chloro-6-[(6<I>S</I>)-1,6-dimethyl-3,6-dihydro-2<I>H</I>-pyridin-4-yl]-8-(trifluoromethoxy)-11<I>H</I>-benzo[b][1,4]benzodiazepine

> <PUBCHEM_IUPAC_NAME>
3-chloro-6-[(6S)-1,6-dimethyl-3,6-dihydro-2H-pyridin-4-yl]-8-(trifluoromethoxy)-11H-benzo[b][1,4]benzodiazepine

> <PUBCHEM_IUPAC_SYSTEMATIC_NAME>
3-chloranyl-6-[(6S)-1,6-dimethyl-3,6-dihydro-2H-pyridin-4-yl]-8-(trifluoromethyloxy)-11H-benzo[b][1,4]benzodiazepine

> <PUBCHEM_IUPAC_TRADITIONAL_NAME>
3-chloro-6-[(6S)-1,6-dimethyl-3,6-dihydro-2H-pyridin-4-yl]-8-(trifluoromethoxy)-11H-benzo[b][1,4]benzodiazepine

> <PUBCHEM_IUPAC_INCHI>
InChI=1S/C21H19ClF3N3O/c1-12-9-13(7-8-28(12)2)20-16-11-15(29-21(23,24)25)4-6-17(16)26-18-5-3-14(22)10-19(18)27-20/h3-6,9-12,26H,7-8H2,1-2H3/t12-/m0/s1

> <PUBCHEM_IUPAC_INCHIKEY>
CQQHORALNAXNNO-LBPRGKRZSA-N

> <PUBCHEM_XLOGP3_AA>
5.6

> <PUBCHEM_EXACT_MASS>
421.1168744

> <PUBCHEM_MOLECULAR_FORMULA>
C21H19ClF3N3O

> <PUBCHEM_MOLECULAR_WEIGHT>
421.8

> <PUBCHEM_OPENEYE_CAN_SMILES>
CC1C=C(CCN1C)C2=NC3=C(C=CC(=C3)Cl)NC4=C2C=C(C=C4)OC(F)(F)F

> <PUBCHEM_OPENEYE_ISO_SMILES>
C[C@H]1C=C(CCN1C)C2=NC3=C(C=CC(=C3)Cl)NC4=C2C=C(C=C4)OC(F)(F)F

> <PUBCHEM_CACTVS_TPSA>
36.9

> <PUBCHEM_MONOISOTOPIC_WEIGHT>
421.1168744

> <PUBCHEM_TOTAL_CHARGE>
0

> <PUBCHEM_HEAVY_ATOM_COUNT>
29

> <PUBCHEM_ATOM_DEF_STEREO_COUNT>
1

> <PUBCHEM_ATOM_UDEF_STEREO_COUNT>
0

> <PUBCHEM_BOND_DEF_STEREO_COUNT>
0

> <PUBCHEM_BOND_UDEF_STEREO_COUNT>
0

> <PUBCHEM_ISOTOPIC_ATOM_COUNT>
0

> <PUBCHEM_COMPONENT_COUNT>
1

> <PUBCHEM_CACTVS_TAUTO_COUNT>
-1

> <PUBCHEM_COORDINATE_TYPE>
1
5
255

> <PUBCHEM_BONDANNOTATIONS>
17  18  8
17  20  8
18  22  8
19  21  8
19  25  8
20  23  8
21  26  8
22  24  8
23  24  8
25  27  8
26  28  8
27  28  8
9  15  5

$$$$
