145949220
  -OEChem-09292322382D

 65 67  0     1  0  0  0  0  0999 V2000
   10.2287    6.7798    0.0000 Cl  0  0  0  0  0  0  0  0  0  0  0  0
    3.2656    7.9443    0.0000 O   0  0  0  0  0  0  0  0  0  0  0  0
    3.1285    4.2279    0.0000 O   0  0  0  0  0  0  0  0  0  0  0  0
    2.0407    7.5758    0.0000 O   0  0  0  0  0  0  0  0  0  0  0  0
    1.5407    1.0369    0.0000 O   0  0  0  0  0  0  0  0  0  0  0  0
    5.1677    8.5623    0.0000 N   0  0  0  0  0  0  0  0  0  0  0  0
    5.5835   10.5186    0.0000 N   0  0  0  0  0  0  0  0  0  0  0  0
    2.8497    5.9880    0.0000 N   0  0  0  0  0  0  0  0  0  0  0  0
    1.2317    5.9880    0.0000 N   0  0  0  0  0  0  0  0  0  0  0  0
    8.2288   10.4675    0.0000 N   0  0  0  0  0  0  0  0  0  0  0  0
    4.9598    7.5842    0.0000 C   0  0  0  0  0  0  0  0  0  0  0  0
    6.1187    8.8713    0.0000 C   0  0  0  0  0  0  0  0  0  0  0  0
    4.4245    9.2314    0.0000 C   0  0  0  0  0  0  0  0  0  0  0  0
    4.0087    7.2752    0.0000 C   0  0  3  0  0  0  0  0  0  0  0  0
    6.3266    9.8495    0.0000 C   0  0  0  0  0  0  0  0  0  0  0  0
    4.6324   10.2096    0.0000 C   0  0  0  0  0  0  0  0  0  0  0  0
    1.5407    5.0369    0.0000 C   0  0  3  0  0  0  0  0  0  0  0  0
    3.8008    6.2970    0.0000 C   0  0  0  0  0  0  0  0  0  0  0  0
    2.5407    5.0369    0.0000 C   0  0  0  0  0  0  0  0  0  0  0  0
    2.0407    6.5758    0.0000 C   0  0  0  0  0  0  0  0  0  0  0  0
    1.5407    4.0369    0.0000 C   0  0  0  0  0  0  0  0  0  0  0  0
    0.5897    4.7279    0.0000 C   0  0  0  0  0  0  0  0  0  0  0  0
    5.7914   11.4968    0.0000 C   0  0  0  0  0  0  0  0  0  0  0  0
    0.6747    3.5369    0.0000 C   0  0  0  0  0  0  0  0  0  0  0  0
    2.4067    3.5369    0.0000 C   0  0  0  0  0  0  0  0  0  0  0  0
    6.7425   11.8058    0.0000 C   0  0  0  0  0  0  0  0  0  0  0  0
    5.0482   12.1659    0.0000 C   0  0  0  0  0  0  0  0  0  0  0  0
    0.6747    2.5369    0.0000 C   0  0  0  0  0  0  0  0  0  0  0  0
    2.4067    2.5369    0.0000 C   0  0  0  0  0  0  0  0  0  0  0  0
    6.9504   12.7839    0.0000 C   0  0  0  0  0  0  0  0  0  0  0  0
    5.2562   13.1440    0.0000 C   0  0  0  0  0  0  0  0  0  0  0  0
    1.5407    2.0369    0.0000 C   0  0  0  0  0  0  0  0  0  0  0  0
    6.2072   13.4531    0.0000 C   0  0  0  0  0  0  0  0  0  0  0  0
    7.4856   11.1367    0.0000 C   0  0  0  0  0  0  0  0  0  0  0  0
    0.6747    0.5369    0.0000 C   0  0  0  0  0  0  0  0  0  0  0  0
    5.0460    6.9702    0.0000 H   0  0  0  0  0  0  0  0  0  0  0  0
    5.5794    7.5625    0.0000 H   0  0  0  0  0  0  0  0  0  0  0  0
    6.2050    8.2574    0.0000 H   0  0  0  0  0  0  0  0  0  0  0  0
    6.7383    8.8497    0.0000 H   0  0  0  0  0  0  0  0  0  0  0  0
    3.8497    9.4637    0.0000 H   0  0  0  0  0  0  0  0  0  0  0  0
    4.0960    8.7057    0.0000 H   0  0  0  0  0  0  0  0  0  0  0  0
    3.4190    7.0836    0.0000 H   0  0  0  0  0  0  0  0  0  0  0  0
    6.9015    9.6172    0.0000 H   0  0  0  0  0  0  0  0  0  0  0  0
    6.6552   10.3753    0.0000 H   0  0  0  0  0  0  0  0  0  0  0  0
    4.5461   10.8236    0.0000 H   0  0  0  0  0  0  0  0  0  0  0  0
    4.0128   10.2312    0.0000 H   0  0  0  0  0  0  0  0  0  0  0  0
    3.8871    5.6830    0.0000 H   0  0  0  0  0  0  0  0  0  0  0  0
    4.4204    6.2754    0.0000 H   0  0  0  0  0  0  0  0  0  0  0  0
    0.6420    6.1796    0.0000 H   0  0  0  0  0  0  0  0  0  0  0  0
    0.3981    5.3176    0.0000 H   0  0  0  0  0  0  0  0  0  0  0  0
    0.0000    4.5363    0.0000 H   0  0  0  0  0  0  0  0  0  0  0  0
    0.7812    4.1383    0.0000 H   0  0  0  0  0  0  0  0  0  0  0  0
    3.3945    8.5507    0.0000 H   0  0  0  0  0  0  0  0  0  0  0  0
    0.1378    3.8469    0.0000 H   0  0  0  0  0  0  0  0  0  0  0  0
    2.9437    3.8469    0.0000 H   0  0  0  0  0  0  0  0  0  0  0  0
    4.4586   11.9743    0.0000 H   0  0  0  0  0  0  0  0  0  0  0  0
    0.1378    2.2269    0.0000 H   0  0  0  0  0  0  0  0  0  0  0  0
    2.9437    2.2269    0.0000 H   0  0  0  0  0  0  0  0  0  0  0  0
    7.5400   12.9755    0.0000 H   0  0  0  0  0  0  0  0  0  0  0  0
    4.7954   13.5589    0.0000 H   0  0  0  0  0  0  0  0  0  0  0  0
    6.3361   14.0595    0.0000 H   0  0  0  0  0  0  0  0  0  0  0  0
    0.3647    1.0739    0.0000 H   0  0  0  0  0  0  0  0  0  0  0  0
    0.1378    0.2269    0.0000 H   0  0  0  0  0  0  0  0  0  0  0  0
    0.9847    0.0000    0.0000 H   0  0  0  0  0  0  0  0  0  0  0  0
   11.2287    6.7798    0.0000 H   0  0  0  0  0  0  0  0  0  0  0  0
  1 65  1  0  0  0  0
  2 14  1  0  0  0  0
  2 53  1  0  0  0  0
  3 19  2  0  0  0  0
  4 20  2  0  0  0  0
  5 32  1  0  0  0  0
  5 35  1  0  0  0  0
  6 11  1  0  0  0  0
  6 12  1  0  0  0  0
  6 13  1  0  0  0  0
  7 15  1  0  0  0  0
  7 16  1  0  0  0  0
  7 23  1  0  0  0  0
  8 18  1  0  0  0  0
  8 19  1  0  0  0  0
  8 20  1  0  0  0  0
  9 17  1  0  0  0  0
  9 20  1  0  0  0  0
  9 49  1  0  0  0  0
 10 34  3  0  0  0  0
 11 14  1  0  0  0  0
 11 36  1  0  0  0  0
 11 37  1  0  0  0  0
 12 15  1  0  0  0  0
 12 38  1  0  0  0  0
 12 39  1  0  0  0  0
 13 16  1  0  0  0  0
 13 40  1  0  0  0  0
 13 41  1  0  0  0  0
 14 18  1  0  0  0  0
 14 42  1  0  0  0  0
 15 43  1  0  0  0  0
 15 44  1  0  0  0  0
 16 45  1  0  0  0  0
 16 46  1  0  0  0  0
 17 19  1  0  0  0  0
 17 21  1  0  0  0  0
 17 22  1  0  0  0  0
 18 47  1  0  0  0  0
 18 48  1  0  0  0  0
 21 24  2  0  0  0  0
 21 25  1  0  0  0  0
 22 50  1  0  0  0  0
 22 51  1  0  0  0  0
 22 52  1  0  0  0  0
 23 26  1  0  0  0  0
 23 27  2  0  0  0  0
 24 28  1  0  0  0  0
 24 54  1  0  0  0  0
 25 29  2  0  0  0  0
 25 55  1  0  0  0  0
 26 30  2  0  0  0  0
 26 34  1  0  0  0  0
 27 31  1  0  0  0  0
 27 56  1  0  0  0  0
 28 32  2  0  0  0  0
 28 57  1  0  0  0  0
 29 32  1  0  0  0  0
 29 58  1  0  0  0  0
 30 33  1  0  0  0  0
 30 59  1  0  0  0  0
 31 33  2  0  0  0  0
 31 60  1  0  0  0  0
 33 61  1  0  0  0  0
 35 62  1  0  0  0  0
 35 63  1  0  0  0  0
 35 64  1  0  0  0  0
M  END
> <PUBCHEM_COMPOUND_CID>
145949220

> <PUBCHEM_COMPOUND_CANONICALIZED>
1

> <PUBCHEM_CACTVS_COMPLEXITY>
783

> <PUBCHEM_CACTVS_HBOND_ACCEPTOR>
7

> <PUBCHEM_CACTVS_HBOND_DONOR>
3

> <PUBCHEM_CACTVS_ROTATABLE_BOND>
7

> <PUBCHEM_CACTVS_SUBSKEYS>
AAADceB7uAAEAAAAAAAAAAAAAAAAAWAAAAA8YIAAAAAAAAABQAAAHgAQCAAADJzhmAYzxoPABgCYBiVSUACiCAAhIgAIiAGObIiO9jLE9buUMChs1zPY6A+Y2NOOoAAAAAACAABAAAAAAAQAAAAAAAAAAA==

> <PUBCHEM_IUPAC_OPENEYE_NAME>
2-[4-[2-hydroxy-3-[4-(4-methoxyphenyl)-4-methyl-2,5-dioxo-imidazolidin-1-yl]propyl]piperazin-1-yl]benzonitrile;hydrochloride

> <PUBCHEM_IUPAC_CAS_NAME>
2-[4-[2-hydroxy-3-[4-(4-methoxyphenyl)-4-methyl-2,5-dioxo-1-imidazolidinyl]propyl]-1-piperazinyl]benzonitrile;hydrochloride

> <PUBCHEM_IUPAC_NAME_MARKUP>
2-[4-[2-hydroxy-3-[4-(4-methoxyphenyl)-4-methyl-2,5-dioxoimidazolidin-1-yl]propyl]piperazin-1-yl]benzonitrile;hydrochloride

> <PUBCHEM_IUPAC_NAME>
2-[4-[2-hydroxy-3-[4-(4-methoxyphenyl)-4-methyl-2,5-dioxoimidazolidin-1-yl]propyl]piperazin-1-yl]benzonitrile;hydrochloride

> <PUBCHEM_IUPAC_SYSTEMATIC_NAME>
2-[4-[3-[4-(4-methoxyphenyl)-4-methyl-2,5-bis(oxidanylidene)imidazolidin-1-yl]-2-oxidanyl-propyl]piperazin-1-yl]benzenecarbonitrile;hydrochloride

> <PUBCHEM_IUPAC_TRADITIONAL_NAME>
2-[4-[3-[2,5-diketo-4-(4-methoxyphenyl)-4-methyl-imidazolidin-1-yl]-2-hydroxy-propyl]piperazino]benzonitrile;hydrochloride

> <PUBCHEM_IUPAC_INCHI>
InChI=1S/C25H29N5O4.ClH/c1-25(19-7-9-21(34-2)10-8-19)23(32)30(24(33)27-25)17-20(31)16-28-11-13-29(14-12-28)22-6-4-3-5-18(22)15-26;/h3-10,20,31H,11-14,16-17H2,1-2H3,(H,27,33);1H

> <PUBCHEM_IUPAC_INCHIKEY>
RKJCOBOHNHRAJW-UHFFFAOYSA-N

> <PUBCHEM_EXACT_MASS>
499.1986321

> <PUBCHEM_MOLECULAR_FORMULA>
C25H30ClN5O4

> <PUBCHEM_MOLECULAR_WEIGHT>
500.0

> <PUBCHEM_OPENEYE_CAN_SMILES>
CC1(C(=O)N(C(=O)N1)CC(CN2CCN(CC2)C3=CC=CC=C3C#N)O)C4=CC=C(C=C4)OC.Cl

> <PUBCHEM_OPENEYE_ISO_SMILES>
CC1(C(=O)N(C(=O)N1)CC(CN2CCN(CC2)C3=CC=CC=C3C#N)O)C4=CC=C(C=C4)OC.Cl

> <PUBCHEM_CACTVS_TPSA>
109

> <PUBCHEM_MONOISOTOPIC_WEIGHT>
499.1986321

> <PUBCHEM_TOTAL_CHARGE>
0

> <PUBCHEM_HEAVY_ATOM_COUNT>
35

> <PUBCHEM_ATOM_DEF_STEREO_COUNT>
0

> <PUBCHEM_ATOM_UDEF_STEREO_COUNT>
2

> <PUBCHEM_BOND_DEF_STEREO_COUNT>
0

> <PUBCHEM_BOND_UDEF_STEREO_COUNT>
0

> <PUBCHEM_ISOTOPIC_ATOM_COUNT>
0

> <PUBCHEM_COMPONENT_COUNT>
2

> <PUBCHEM_CACTVS_TAUTO_COUNT>
-1

> <PUBCHEM_COORDINATE_TYPE>
1
5
255

> <PUBCHEM_BONDANNOTATIONS>
17  22  3
14  2  3
21  24  8
21  25  8
23  26  8
23  27  8
24  28  8
25  29  8
26  30  8
27  31  8
28  32  8
29  32  8
30  33  8
31  33  8

$$$$
