145970938
  -OEChem-09292322472D

 40 41  0     1  0  0  0  0  0999 V2000
    2.0000   -4.0865    0.0000 O   0  0  0  0  0  0  0  0  0  0  0  0
    3.2320    0.4524    0.0000 N   0  0  3  0  0  0  0  0  0  0  0  0
    3.7320   -1.0865    0.0000 C   0  0  3  0  0  0  0  0  0  0  0  0
    2.9230   -0.4987    0.0000 C   0  0  0  0  0  0  0  0  0  0  0  0
    4.5411   -0.4987    0.0000 C   0  0  0  0  0  0  0  0  0  0  0  0
    4.2320    0.4524    0.0000 C   0  0  0  0  0  0  0  0  0  0  0  0
    2.6443    1.2614    0.0000 C   0  0  0  0  0  0  0  0  0  0  0  0
    3.7320   -2.0865    0.0000 C   0  0  0  0  0  0  0  0  0  0  0  0
    3.0510    2.1749    0.0000 C   0  0  0  0  0  0  0  0  0  0  0  0
    2.4632    2.9839    0.0000 C   0  0  0  0  0  0  0  0  0  0  0  0
    2.8660   -2.5865    0.0000 C   0  0  0  0  0  0  0  0  0  0  0  0
    4.5981   -2.5865    0.0000 C   0  0  0  0  0  0  0  0  0  0  0  0
    2.8699    3.8975    0.0000 C   0  0  0  0  0  0  0  0  0  0  0  0
    2.8660   -3.5865    0.0000 C   0  0  0  0  0  0  0  0  0  0  0  0
    4.5981   -3.5865    0.0000 C   0  0  0  0  0  0  0  0  0  0  0  0
    3.7320   -4.0865    0.0000 C   0  0  0  0  0  0  0  0  0  0  0  0
    2.2822    4.7065    0.0000 C   0  0  0  0  0  0  0  0  0  0  0  0
    4.2845   -1.3680    0.0000 H   0  0  0  0  0  0  0  0  0  0  0  0
    2.3566   -0.2465    0.0000 H   0  0  0  0  0  0  0  0  0  0  0  0
    2.6130   -1.0356    0.0000 H   0  0  0  0  0  0  0  0  0  0  0  0
    4.8511   -1.0356    0.0000 H   0  0  0  0  0  0  0  0  0  0  0  0
    5.1075   -0.2465    0.0000 H   0  0  0  0  0  0  0  0  0  0  0  0
    4.8385    0.5813    0.0000 H   0  0  0  0  0  0  0  0  0  0  0  0
    4.1672    1.0690    0.0000 H   0  0  0  0  0  0  0  0  0  0  0  0
    2.1303    1.6081    0.0000 H   0  0  0  0  0  0  0  0  0  0  0  0
    2.2136    0.8154    0.0000 H   0  0  0  0  0  0  0  0  0  0  0  0
    3.5650    1.8282    0.0000 H   0  0  0  0  0  0  0  0  0  0  0  0
    3.4817    2.6209    0.0000 H   0  0  0  0  0  0  0  0  0  0  0  0
    1.9492    3.3306    0.0000 H   0  0  0  0  0  0  0  0  0  0  0  0
    2.0325    2.5379    0.0000 H   0  0  0  0  0  0  0  0  0  0  0  0
    2.3291   -2.2765    0.0000 H   0  0  0  0  0  0  0  0  0  0  0  0
    5.1350   -2.2765    0.0000 H   0  0  0  0  0  0  0  0  0  0  0  0
    3.3840    3.5508    0.0000 H   0  0  0  0  0  0  0  0  0  0  0  0
    3.3006    4.3435    0.0000 H   0  0  0  0  0  0  0  0  0  0  0  0
    5.1350   -3.8965    0.0000 H   0  0  0  0  0  0  0  0  0  0  0  0
    3.7320   -4.7065    0.0000 H   0  0  0  0  0  0  0  0  0  0  0  0
    2.7838    5.0709    0.0000 H   0  0  0  0  0  0  0  0  0  0  0  0
    1.9177    5.2081    0.0000 H   0  0  0  0  0  0  0  0  0  0  0  0
    1.7806    4.3421    0.0000 H   0  0  0  0  0  0  0  0  0  0  0  0
    2.0000   -4.7065    0.0000 H   0  0  0  0  0  0  0  0  0  0  0  0
  1 14  1  0  0  0  0
  1 40  1  0  0  0  0
  2  4  1  0  0  0  0
  2  6  1  0  0  0  0
  2  7  1  0  0  0  0
  3  4  1  0  0  0  0
  3  5  1  0  0  0  0
  3  8  1  0  0  0  0
  3 18  1  0  0  0  0
  4 19  1  0  0  0  0
  4 20  1  0  0  0  0
  5  6  1  0  0  0  0
  5 21  1  0  0  0  0
  5 22  1  0  0  0  0
  6 23  1  0  0  0  0
  6 24  1  0  0  0  0
  7  9  1  0  0  0  0
  7 25  1  0  0  0  0
  7 26  1  0  0  0  0
  8 11  2  0  0  0  0
  8 12  1  0  0  0  0
  9 10  1  0  0  0  0
  9 27  1  0  0  0  0
  9 28  1  0  0  0  0
 10 13  1  0  0  0  0
 10 29  1  0  0  0  0
 10 30  1  0  0  0  0
 11 14  1  0  0  0  0
 11 31  1  0  0  0  0
 12 15  2  0  0  0  0
 12 32  1  0  0  0  0
 13 17  1  0  0  0  0
 13 33  1  0  0  0  0
 13 34  1  0  0  0  0
 14 16  2  0  0  0  0
 15 16  1  0  0  0  0
 15 35  1  0  0  0  0
 16 36  1  0  0  0  0
 17 37  1  0  0  0  0
 17 38  1  0  0  0  0
 17 39  1  0  0  0  0
M  END
> <PUBCHEM_COMPOUND_CID>
145970938

> <PUBCHEM_COMPOUND_CANONICALIZED>
1

> <PUBCHEM_CACTVS_COMPLEXITY>
219

> <PUBCHEM_CACTVS_HBOND_ACCEPTOR>
2

> <PUBCHEM_CACTVS_HBOND_DONOR>
1

> <PUBCHEM_CACTVS_ROTATABLE_BOND>
5

> <PUBCHEM_CACTVS_SUBSKEYS>
AAADceByIAAAAAAAAAAAAAAAAAAAAWAAAAAwAAAAAAAAAAABAAAAHgAACAAADQTBmAQyBoMAAgCAAiBCAAACAAAgIAAIiAAOCIgIJiKCkROEcAAkwBGImAeQ0PIOgAABAAAAAAAAAAIAAAAAAAAAAAAAAA==

> <PUBCHEM_IUPAC_OPENEYE_NAME>
3-(1-pentylpyrrolidin-3-yl)phenol

> <PUBCHEM_IUPAC_CAS_NAME>
3-(1-pentyl-3-pyrrolidinyl)phenol

> <PUBCHEM_IUPAC_NAME_MARKUP>
3-(1-pentylpyrrolidin-3-yl)phenol

> <PUBCHEM_IUPAC_NAME>
3-(1-pentylpyrrolidin-3-yl)phenol

> <PUBCHEM_IUPAC_SYSTEMATIC_NAME>
3-(1-pentylpyrrolidin-3-yl)phenol

> <PUBCHEM_IUPAC_TRADITIONAL_NAME>
3-(1-amylpyrrolidin-3-yl)phenol

> <PUBCHEM_IUPAC_INCHI>
InChI=1S/C15H23NO/c1-2-3-4-9-16-10-8-14(12-16)13-6-5-7-15(17)11-13/h5-7,11,14,17H,2-4,8-10,12H2,1H3

> <PUBCHEM_IUPAC_INCHIKEY>
UXQSBUSPGKCLJW-UHFFFAOYSA-N

> <PUBCHEM_XLOGP3_AA>
3.6

> <PUBCHEM_EXACT_MASS>
233.177964357

> <PUBCHEM_MOLECULAR_FORMULA>
C15H23NO

> <PUBCHEM_MOLECULAR_WEIGHT>
233.35

> <PUBCHEM_OPENEYE_CAN_SMILES>
CCCCCN1CCC(C1)C2=CC(=CC=C2)O

> <PUBCHEM_OPENEYE_ISO_SMILES>
CCCCCN1CCC(C1)C2=CC(=CC=C2)O

> <PUBCHEM_CACTVS_TPSA>
23.5

> <PUBCHEM_MONOISOTOPIC_WEIGHT>
233.177964357

> <PUBCHEM_TOTAL_CHARGE>
0

> <PUBCHEM_HEAVY_ATOM_COUNT>
17

> <PUBCHEM_ATOM_DEF_STEREO_COUNT>
0

> <PUBCHEM_ATOM_UDEF_STEREO_COUNT>
1

> <PUBCHEM_BOND_DEF_STEREO_COUNT>
0

> <PUBCHEM_BOND_UDEF_STEREO_COUNT>
0

> <PUBCHEM_ISOTOPIC_ATOM_COUNT>
0

> <PUBCHEM_COMPONENT_COUNT>
1

> <PUBCHEM_CACTVS_TAUTO_COUNT>
-1

> <PUBCHEM_COORDINATE_TYPE>
1
5
255

> <PUBCHEM_BONDANNOTATIONS>
11  14  8
12  15  8
14  16  8
15  16  8
3  8  3
8  11  8
8  12  8

$$$$
