10667966
  -OEChem-09292322522D

 67 67  0     0  0  0  0  0  0999 V2000
    8.0622    3.3170    0.0000 Si  0  0  0  0  0  0  0  0  0  0  0  0
    2.8660    3.3170    0.0000 Si  0  0  0  0  0  0  0  0  0  0  0  0
    5.4641   -2.1830    0.0000 N   0  0  0  0  0  0  0  0  0  0  0  0
    5.4641   -1.1830    0.0000 C   0  0  0  0  0  0  0  0  0  0  0  0
    6.3301   -0.6830    0.0000 C   0  0  0  0  0  0  0  0  0  0  0  0
    4.5981   -0.6830    0.0000 C   0  0  0  0  0  0  0  0  0  0  0  0
    6.3301    0.3170    0.0000 C   0  0  0  0  0  0  0  0  0  0  0  0
    4.5981    0.3170    0.0000 C   0  0  0  0  0  0  0  0  0  0  0  0
    5.4641    0.8170    0.0000 C   0  0  0  0  0  0  0  0  0  0  0  0
    4.5981   -2.6830    0.0000 C   0  0  0  0  0  0  0  0  0  0  0  0
    6.3301   -2.6830    0.0000 C   0  0  0  0  0  0  0  0  0  0  0  0
    4.5981   -3.6830    0.0000 C   0  0  0  0  0  0  0  0  0  0  0  0
    6.3301   -3.6830    0.0000 C   0  0  0  0  0  0  0  0  0  0  0  0
    5.4641    1.8170    0.0000 C   0  0  0  0  0  0  0  0  0  0  0  0
    3.7320   -4.1830    0.0000 C   0  0  0  0  0  0  0  0  0  0  0  0
    7.1962   -4.1830    0.0000 C   0  0  0  0  0  0  0  0  0  0  0  0
    6.3301    2.3170    0.0000 C   0  0  0  0  0  0  0  0  0  0  0  0
    4.5981    2.3170    0.0000 C   0  0  0  0  0  0  0  0  0  0  0  0
    7.1962    2.8170    0.0000 C   0  0  0  0  0  0  0  0  0  0  0  0
    3.7320    2.8170    0.0000 C   0  0  0  0  0  0  0  0  0  0  0  0
    8.9282    3.8170    0.0000 C   0  0  0  0  0  0  0  0  0  0  0  0
    7.5622    4.1830    0.0000 C   0  0  0  0  0  0  0  0  0  0  0  0
    8.5622    2.4510    0.0000 C   0  0  0  0  0  0  0  0  0  0  0  0
    2.0000    3.8170    0.0000 C   0  0  0  0  0  0  0  0  0  0  0  0
    3.3660    4.1830    0.0000 C   0  0  0  0  0  0  0  0  0  0  0  0
    2.3660    2.4510    0.0000 C   0  0  0  0  0  0  0  0  0  0  0  0
    6.0010   -1.4930    0.0000 H   0  0  0  0  0  0  0  0  0  0  0  0
    6.5422   -1.2656    0.0000 H   0  0  0  0  0  0  0  0  0  0  0  0
    6.9407   -0.5754    0.0000 H   0  0  0  0  0  0  0  0  0  0  0  0
    3.9875   -0.5754    0.0000 H   0  0  0  0  0  0  0  0  0  0  0  0
    4.3860   -1.2656    0.0000 H   0  0  0  0  0  0  0  0  0  0  0  0
    6.9407    0.2093    0.0000 H   0  0  0  0  0  0  0  0  0  0  0  0
    6.5422    0.8996    0.0000 H   0  0  0  0  0  0  0  0  0  0  0  0
    4.3860    0.8996    0.0000 H   0  0  0  0  0  0  0  0  0  0  0  0
    3.9875    0.2093    0.0000 H   0  0  0  0  0  0  0  0  0  0  0  0
    4.3860   -2.1004    0.0000 H   0  0  0  0  0  0  0  0  0  0  0  0
    3.9875   -2.7907    0.0000 H   0  0  0  0  0  0  0  0  0  0  0  0
    6.9407   -2.7907    0.0000 H   0  0  0  0  0  0  0  0  0  0  0  0
    6.5422   -2.1004    0.0000 H   0  0  0  0  0  0  0  0  0  0  0  0
    4.8101   -4.2656    0.0000 H   0  0  0  0  0  0  0  0  0  0  0  0
    5.2087   -3.5754    0.0000 H   0  0  0  0  0  0  0  0  0  0  0  0
    5.7196   -3.5754    0.0000 H   0  0  0  0  0  0  0  0  0  0  0  0
    6.1181   -4.2656    0.0000 H   0  0  0  0  0  0  0  0  0  0  0  0
    3.4220   -3.6461    0.0000 H   0  0  0  0  0  0  0  0  0  0  0  0
    3.1951   -4.4930    0.0000 H   0  0  0  0  0  0  0  0  0  0  0  0
    4.0420   -4.7200    0.0000 H   0  0  0  0  0  0  0  0  0  0  0  0
    6.8862   -4.7200    0.0000 H   0  0  0  0  0  0  0  0  0  0  0  0
    7.7331   -4.4930    0.0000 H   0  0  0  0  0  0  0  0  0  0  0  0
    7.5062   -3.6461    0.0000 H   0  0  0  0  0  0  0  0  0  0  0  0
    9.2382    3.2800    0.0000 H   0  0  0  0  0  0  0  0  0  0  0  0
    9.4651    4.1270    0.0000 H   0  0  0  0  0  0  0  0  0  0  0  0
    8.6182    4.3539    0.0000 H   0  0  0  0  0  0  0  0  0  0  0  0
    8.0991    4.4930    0.0000 H   0  0  0  0  0  0  0  0  0  0  0  0
    7.2522    4.7200    0.0000 H   0  0  0  0  0  0  0  0  0  0  0  0
    7.0252    3.8730    0.0000 H   0  0  0  0  0  0  0  0  0  0  0  0
    8.0252    2.1410    0.0000 H   0  0  0  0  0  0  0  0  0  0  0  0
    8.8722    1.9140    0.0000 H   0  0  0  0  0  0  0  0  0  0  0  0
    9.0991    2.7610    0.0000 H   0  0  0  0  0  0  0  0  0  0  0  0
    2.3100    4.3539    0.0000 H   0  0  0  0  0  0  0  0  0  0  0  0
    1.4631    4.1270    0.0000 H   0  0  0  0  0  0  0  0  0  0  0  0
    1.6900    3.2800    0.0000 H   0  0  0  0  0  0  0  0  0  0  0  0
    3.9030    3.8730    0.0000 H   0  0  0  0  0  0  0  0  0  0  0  0
    3.6760    4.7200    0.0000 H   0  0  0  0  0  0  0  0  0  0  0  0
    2.8291    4.4930    0.0000 H   0  0  0  0  0  0  0  0  0  0  0  0
    1.8291    2.7610    0.0000 H   0  0  0  0  0  0  0  0  0  0  0  0
    2.0560    1.9140    0.0000 H   0  0  0  0  0  0  0  0  0  0  0  0
    2.9030    2.1410    0.0000 H   0  0  0  0  0  0  0  0  0  0  0  0
  1 19  1  0  0  0  0
  1 21  1  0  0  0  0
  1 22  1  0  0  0  0
  1 23  1  0  0  0  0
  2 20  1  0  0  0  0
  2 24  1  0  0  0  0
  2 25  1  0  0  0  0
  2 26  1  0  0  0  0
  3  4  1  0  0  0  0
  3 10  1  0  0  0  0
  3 11  1  0  0  0  0
  4  5  1  0  0  0  0
  4  6  1  0  0  0  0
  4 27  1  0  0  0  0
  5  7  1  0  0  0  0
  5 28  1  0  0  0  0
  5 29  1  0  0  0  0
  6  8  1  0  0  0  0
  6 30  1  0  0  0  0
  6 31  1  0  0  0  0
  7  9  1  0  0  0  0
  7 32  1  0  0  0  0
  7 33  1  0  0  0  0
  8  9  1  0  0  0  0
  8 34  1  0  0  0  0
  8 35  1  0  0  0  0
  9 14  2  0  0  0  0
 10 12  1  0  0  0  0
 10 36  1  0  0  0  0
 10 37  1  0  0  0  0
 11 13  1  0  0  0  0
 11 38  1  0  0  0  0
 11 39  1  0  0  0  0
 12 15  1  0  0  0  0
 12 40  1  0  0  0  0
 12 41  1  0  0  0  0
 13 16  1  0  0  0  0
 13 42  1  0  0  0  0
 13 43  1  0  0  0  0
 14 17  1  0  0  0  0
 14 18  1  0  0  0  0
 15 44  1  0  0  0  0
 15 45  1  0  0  0  0
 15 46  1  0  0  0  0
 16 47  1  0  0  0  0
 16 48  1  0  0  0  0
 16 49  1  0  0  0  0
 17 19  3  0  0  0  0
 18 20  3  0  0  0  0
 21 50  1  0  0  0  0
 21 51  1  0  0  0  0
 21 52  1  0  0  0  0
 22 53  1  0  0  0  0
 22 54  1  0  0  0  0
 22 55  1  0  0  0  0
 23 56  1  0  0  0  0
 23 57  1  0  0  0  0
 23 58  1  0  0  0  0
 24 59  1  0  0  0  0
 24 60  1  0  0  0  0
 24 61  1  0  0  0  0
 25 62  1  0  0  0  0
 25 63  1  0  0  0  0
 25 64  1  0  0  0  0
 26 65  1  0  0  0  0
 26 66  1  0  0  0  0
 26 67  1  0  0  0  0
M  END
> <PUBCHEM_COMPOUND_CID>
10667966

> <PUBCHEM_COMPOUND_CANONICALIZED>
1

> <PUBCHEM_CACTVS_COMPLEXITY>
567

> <PUBCHEM_CACTVS_HBOND_ACCEPTOR>
1

> <PUBCHEM_CACTVS_HBOND_DONOR>
0

> <PUBCHEM_CACTVS_ROTATABLE_BOND>
9

> <PUBCHEM_CACTVS_SUBSKEYS>
AAADcfB6AAwAAAAAAAAAAAAAAAAAAAAAAAAwAAAAAAAAAAAAAAAAHBAAAAAADCjBIARCAAMAAAHAEgBAAAgAAAAgAAAACAAIAAgAAAIAgAAEAAAAgACIAAMQAAAAAAAAAAAAAAAAAAAAAAAAAAAAAAAAAA==

> <PUBCHEM_IUPAC_OPENEYE_NAME>
N,N-dipropyl-4-[3-trimethylsilyl-1-(2-trimethylsilylethynyl)prop-2-ynylidene]cyclohexanamine

> <PUBCHEM_IUPAC_CAS_NAME>
4-[1,5-bis(trimethylsilyl)penta-1,4-diyn-3-ylidene]-N,N-dipropyl-1-cyclohexanamine

> <PUBCHEM_IUPAC_NAME_MARKUP>
4-[1,5-bis(trimethylsilyl)penta-1,4-diyn-3-ylidene]-<I>N</I>,<I>N</I>-dipropylcyclohexan-1-amine

> <PUBCHEM_IUPAC_NAME>
4-[1,5-bis(trimethylsilyl)penta-1,4-diyn-3-ylidene]-N,N-dipropylcyclohexan-1-amine

> <PUBCHEM_IUPAC_SYSTEMATIC_NAME>
4-[1,5-bis(trimethylsilyl)penta-1,4-diyn-3-ylidene]-N,N-dipropyl-cyclohexan-1-amine

> <PUBCHEM_IUPAC_TRADITIONAL_NAME>
dipropyl-[4-[3-trimethylsilyl-1-(2-trimethylsilylethynyl)prop-2-ynylidene]cyclohexyl]amine

> <PUBCHEM_IUPAC_INCHI>
InChI=1S/C23H41NSi2/c1-9-17-24(18-10-2)23-13-11-21(12-14-23)22(15-19-25(3,4)5)16-20-26(6,7)8/h23H,9-14,17-18H2,1-8H3

> <PUBCHEM_IUPAC_INCHIKEY>
UKMLUIQURILEME-UHFFFAOYSA-N

> <PUBCHEM_EXACT_MASS>
387.27775338

> <PUBCHEM_MOLECULAR_FORMULA>
C23H41NSi2

> <PUBCHEM_MOLECULAR_WEIGHT>
387.7

> <PUBCHEM_OPENEYE_CAN_SMILES>
CCCN(CCC)C1CCC(=C(C#C[Si](C)(C)C)C#C[Si](C)(C)C)CC1

> <PUBCHEM_OPENEYE_ISO_SMILES>
CCCN(CCC)C1CCC(=C(C#C[Si](C)(C)C)C#C[Si](C)(C)C)CC1

> <PUBCHEM_CACTVS_TPSA>
3.2

> <PUBCHEM_MONOISOTOPIC_WEIGHT>
387.27775338

> <PUBCHEM_TOTAL_CHARGE>
0

> <PUBCHEM_HEAVY_ATOM_COUNT>
26

> <PUBCHEM_ATOM_DEF_STEREO_COUNT>
0

> <PUBCHEM_ATOM_UDEF_STEREO_COUNT>
0

> <PUBCHEM_BOND_DEF_STEREO_COUNT>
0

> <PUBCHEM_BOND_UDEF_STEREO_COUNT>
0

> <PUBCHEM_ISOTOPIC_ATOM_COUNT>
0

> <PUBCHEM_COMPONENT_COUNT>
1

> <PUBCHEM_CACTVS_TAUTO_COUNT>
-1

> <PUBCHEM_COORDINATE_TYPE>
1
5
255

$$$$
