22403044
  -OEChem-09292322202D

 48 50  0     0  0  0  0  0  0999 V2000
    6.3301   -3.1853    0.0000 S   0  0  0  0  0  0  0  0  0  0  0  0
    2.8660   -1.1853    0.0000 O   0  0  0  0  0  0  0  0  0  0  0  0
    5.8301   -4.0513    0.0000 O   0  0  0  0  0  0  0  0  0  0  0  0
    6.8301   -2.3193    0.0000 O   0  0  0  0  0  0  0  0  0  0  0  0
    3.9170    3.0761    0.0000 N   0  0  0  0  0  0  0  0  0  0  0  0
    3.7891    0.4025    0.0000 N   0  0  0  0  0  0  0  0  0  0  0  0
    4.8952    3.2840    0.0000 C   0  0  0  0  0  0  0  0  0  0  0  0
    3.4170    3.9421    0.0000 C   0  0  0  0  0  0  0  0  0  0  0  0
    4.9997    4.2786    0.0000 C   0  0  0  0  0  0  0  0  0  0  0  0
    4.0862    4.6853    0.0000 C   0  0  0  0  0  0  0  0  0  0  0  0
    3.5103    2.1626    0.0000 C   0  0  0  0  0  0  0  0  0  0  0  0
    4.0981    1.3536    0.0000 C   0  0  0  0  0  0  0  0  0  0  0  0
    4.5981   -0.1853    0.0000 C   0  0  0  0  0  0  0  0  0  0  0  0
    5.0981    1.3536    0.0000 C   0  0  0  0  0  0  0  0  0  0  0  0
    5.4071    0.4025    0.0000 C   0  0  0  0  0  0  0  0  0  0  0  0
    4.5981   -1.1853    0.0000 C   0  0  0  0  0  0  0  0  0  0  0  0
    5.4641   -2.6853    0.0000 C   0  0  0  0  0  0  0  0  0  0  0  0
    5.4641   -1.6853    0.0000 C   0  0  0  0  0  0  0  0  0  0  0  0
    3.7320   -1.6853    0.0000 C   0  0  0  0  0  0  0  0  0  0  0  0
    4.5981   -3.1853    0.0000 C   0  0  0  0  0  0  0  0  0  0  0  0
    7.1962   -3.6853    0.0000 C   0  0  0  0  0  0  0  0  0  0  0  0
    3.7320   -2.6853    0.0000 C   0  0  0  0  0  0  0  0  0  0  0  0
    7.1962   -4.6853    0.0000 C   0  0  0  0  0  0  0  0  0  0  0  0
    2.0000   -1.6853    0.0000 C   0  0  0  0  0  0  0  0  0  0  0  0
    4.9600    2.6674    0.0000 H   0  0  0  0  0  0  0  0  0  0  0  0
    5.5152    3.2840    0.0000 H   0  0  0  0  0  0  0  0  0  0  0  0
    3.0022    4.4029    0.0000 H   0  0  0  0  0  0  0  0  0  0  0  0
    2.9154    3.5777    0.0000 H   0  0  0  0  0  0  0  0  0  0  0  0
    5.6062    4.1496    0.0000 H   0  0  0  0  0  0  0  0  0  0  0  0
    5.1913    4.8682    0.0000 H   0  0  0  0  0  0  0  0  0  0  0  0
    4.3962    5.2222    0.0000 H   0  0  0  0  0  0  0  0  0  0  0  0
    3.5846    5.0497    0.0000 H   0  0  0  0  0  0  0  0  0  0  0  0
    2.9963    2.5093    0.0000 H   0  0  0  0  0  0  0  0  0  0  0  0
    3.0796    1.7166    0.0000 H   0  0  0  0  0  0  0  0  0  0  0  0
    3.1994    0.2109    0.0000 H   0  0  0  0  0  0  0  0  0  0  0  0
    5.4625    1.8551    0.0000 H   0  0  0  0  0  0  0  0  0  0  0  0
    5.9967    0.2109    0.0000 H   0  0  0  0  0  0  0  0  0  0  0  0
    6.0010   -1.3753    0.0000 H   0  0  0  0  0  0  0  0  0  0  0  0
    4.5981   -3.8053    0.0000 H   0  0  0  0  0  0  0  0  0  0  0  0
    7.8067   -3.7930    0.0000 H   0  0  0  0  0  0  0  0  0  0  0  0
    7.4082   -3.1027    0.0000 H   0  0  0  0  0  0  0  0  0  0  0  0
    3.1951   -2.9953    0.0000 H   0  0  0  0  0  0  0  0  0  0  0  0
    6.5762   -4.6853    0.0000 H   0  0  0  0  0  0  0  0  0  0  0  0
    7.1962   -5.3053    0.0000 H   0  0  0  0  0  0  0  0  0  0  0  0
    7.8162   -4.6853    0.0000 H   0  0  0  0  0  0  0  0  0  0  0  0
    1.6900   -1.1484    0.0000 H   0  0  0  0  0  0  0  0  0  0  0  0
    1.4631   -1.9953    0.0000 H   0  0  0  0  0  0  0  0  0  0  0  0
    2.3100   -2.2222    0.0000 H   0  0  0  0  0  0  0  0  0  0  0  0
  1  3  2  0  0  0  0
  1  4  2  0  0  0  0
  1 17  1  0  0  0  0
  1 21  1  0  0  0  0
  2 19  1  0  0  0  0
  2 24  1  0  0  0  0
  5  7  1  0  0  0  0
  5  8  1  0  0  0  0
  5 11  1  0  0  0  0
  6 12  1  0  0  0  0
  6 13  1  0  0  0  0
  6 35  1  0  0  0  0
  7  9  1  0  0  0  0
  7 25  1  0  0  0  0
  7 26  1  0  0  0  0
  8 10  1  0  0  0  0
  8 27  1  0  0  0  0
  8 28  1  0  0  0  0
  9 10  1  0  0  0  0
  9 29  1  0  0  0  0
  9 30  1  0  0  0  0
 10 31  1  0  0  0  0
 10 32  1  0  0  0  0
 11 12  1  0  0  0  0
 11 33  1  0  0  0  0
 11 34  1  0  0  0  0
 12 14  2  0  0  0  0
 13 15  2  0  0  0  0
 13 16  1  0  0  0  0
 14 15  1  0  0  0  0
 14 36  1  0  0  0  0
 15 37  1  0  0  0  0
 16 18  1  0  0  0  0
 16 19  2  0  0  0  0
 17 18  2  0  0  0  0
 17 20  1  0  0  0  0
 18 38  1  0  0  0  0
 19 22  1  0  0  0  0
 20 22  2  0  0  0  0
 20 39  1  0  0  0  0
 21 23  1  0  0  0  0
 21 40  1  0  0  0  0
 21 41  1  0  0  0  0
 22 42  1  0  0  0  0
 23 43  1  0  0  0  0
 23 44  1  0  0  0  0
 23 45  1  0  0  0  0
 24 46  1  0  0  0  0
 24 47  1  0  0  0  0
 24 48  1  0  0  0  0
M  END
> <PUBCHEM_COMPOUND_CID>
22403044

> <PUBCHEM_COMPOUND_CANONICALIZED>
1

> <PUBCHEM_CACTVS_COMPLEXITY>
499

> <PUBCHEM_CACTVS_HBOND_ACCEPTOR>
4

> <PUBCHEM_CACTVS_HBOND_DONOR>
1

> <PUBCHEM_CACTVS_ROTATABLE_BOND>
6

> <PUBCHEM_CACTVS_SUBSKEYS>
AAADceB7MABAAAAAAAAAAAAAAAAAAWLAAAAwAAAAAAAAAAABwAAAHgQQAAAADAzF3gayh5PJlAqgAyRiRHDCiCAhKjAImTg+bJgMZuLksZuUMChm0BHo6AeQwOAOAIAAgAAIAAABAAEAABAAAAAAAAAAAA==

> <PUBCHEM_IUPAC_OPENEYE_NAME>
2-(5-ethylsulfonyl-2-methoxy-phenyl)-5-(pyrrolidin-1-ylmethyl)-1H-pyrrole

> <PUBCHEM_IUPAC_CAS_NAME>
2-(5-ethylsulfonyl-2-methoxyphenyl)-5-(1-pyrrolidinylmethyl)-1H-pyrrole

> <PUBCHEM_IUPAC_NAME_MARKUP>
2-(5-ethylsulfonyl-2-methoxyphenyl)-5-(pyrrolidin-1-ylmethyl)-1<I>H</I>-pyrrole

> <PUBCHEM_IUPAC_NAME>
2-(5-ethylsulfonyl-2-methoxyphenyl)-5-(pyrrolidin-1-ylmethyl)-1H-pyrrole

> <PUBCHEM_IUPAC_SYSTEMATIC_NAME>
2-(5-ethylsulfonyl-2-methoxy-phenyl)-5-(pyrrolidin-1-ylmethyl)-1H-pyrrole

> <PUBCHEM_IUPAC_TRADITIONAL_NAME>
2-(5-esyl-2-methoxy-phenyl)-5-(pyrrolidinomethyl)-1H-pyrrole

> <PUBCHEM_IUPAC_INCHI>
InChI=1S/C18H24N2O3S/c1-3-24(21,22)15-7-9-18(23-2)16(12-15)17-8-6-14(19-17)13-20-10-4-5-11-20/h6-9,12,19H,3-5,10-11,13H2,1-2H3

> <PUBCHEM_IUPAC_INCHIKEY>
IZVVXKITHMHHRG-UHFFFAOYSA-N

> <PUBCHEM_XLOGP3_AA>
2.3

> <PUBCHEM_EXACT_MASS>
348.15076381

> <PUBCHEM_MOLECULAR_FORMULA>
C18H24N2O3S

> <PUBCHEM_MOLECULAR_WEIGHT>
348.5

> <PUBCHEM_OPENEYE_CAN_SMILES>
CCS(=O)(=O)C1=CC(=C(C=C1)OC)C2=CC=C(N2)CN3CCCC3

> <PUBCHEM_OPENEYE_ISO_SMILES>
CCS(=O)(=O)C1=CC(=C(C=C1)OC)C2=CC=C(N2)CN3CCCC3

> <PUBCHEM_CACTVS_TPSA>
70.8

> <PUBCHEM_MONOISOTOPIC_WEIGHT>
348.15076381

> <PUBCHEM_TOTAL_CHARGE>
0

> <PUBCHEM_HEAVY_ATOM_COUNT>
24

> <PUBCHEM_ATOM_DEF_STEREO_COUNT>
0

> <PUBCHEM_ATOM_UDEF_STEREO_COUNT>
0

> <PUBCHEM_BOND_DEF_STEREO_COUNT>
0

> <PUBCHEM_BOND_UDEF_STEREO_COUNT>
0

> <PUBCHEM_ISOTOPIC_ATOM_COUNT>
0

> <PUBCHEM_COMPONENT_COUNT>
1

> <PUBCHEM_CACTVS_TAUTO_COUNT>
-1

> <PUBCHEM_COORDINATE_TYPE>
1
5
255

> <PUBCHEM_BONDANNOTATIONS>
12  14  8
13  15  8
14  15  8
16  18  8
16  19  8
17  18  8
17  20  8
19  22  8
20  22  8
6  12  8
6  13  8

$$$$
