142573417
  -OEChem-09292322462D

 46 48  0     0  0  0  0  0  0999 V2000
    3.9538    0.0901    0.0000 S   0  0  0  0  0  0  0  0  0  0  0  0
    4.3159    3.5352    0.0000 N   0  0  0  0  0  0  0  0  0  0  0  0
    3.6750   -1.6700    0.0000 N   0  0  0  0  0  0  0  0  0  0  0  0
    2.3660   -0.7189    0.0000 N   0  0  0  0  0  0  0  0  0  0  0  0
    2.0570   -1.6700    0.0000 N   0  0  0  0  0  0  0  0  0  0  0  0
    5.3104    3.4307    0.0000 C   0  0  0  0  0  0  0  0  0  0  0  0
    3.9092    4.4488    0.0000 C   0  0  0  0  0  0  0  0  0  0  0  0
    5.8982    4.2397    0.0000 C   0  0  0  0  0  0  0  0  0  0  0  0
    4.4970    5.2578    0.0000 C   0  0  0  0  0  0  0  0  0  0  0  0
    5.4915    5.1532    0.0000 C   0  0  0  0  0  0  0  0  0  0  0  0
    3.7281    2.7262    0.0000 C   0  0  0  0  0  0  0  0  0  0  0  0
    4.1349    1.8126    0.0000 C   0  0  0  0  0  0  0  0  0  0  0  0
    3.5471    1.0036    0.0000 C   0  0  0  0  0  0  0  0  0  0  0  0
    3.3660   -0.7189    0.0000 C   0  0  0  0  0  0  0  0  0  0  0  0
    2.8660   -2.2578    0.0000 C   0  0  0  0  0  0  0  0  0  0  0  0
    2.8660   -3.2578    0.0000 C   0  0  0  0  0  0  0  0  0  0  0  0
    4.6261   -1.9790    0.0000 C   0  0  0  0  0  0  0  0  0  0  0  0
    2.0000   -3.7578    0.0000 C   0  0  0  0  0  0  0  0  0  0  0  0
    3.7320   -3.7578    0.0000 C   0  0  0  0  0  0  0  0  0  0  0  0
    2.0000   -4.7578    0.0000 C   0  0  0  0  0  0  0  0  0  0  0  0
    3.7320   -4.7578    0.0000 C   0  0  0  0  0  0  0  0  0  0  0  0
    2.8660   -5.2578    0.0000 C   0  0  0  0  0  0  0  0  0  0  0  0
    5.1395    2.8347    0.0000 H   0  0  0  0  0  0  0  0  0  0  0  0
    5.8677    3.1589    0.0000 H   0  0  0  0  0  0  0  0  0  0  0  0
    3.4785    4.8948    0.0000 H   0  0  0  0  0  0  0  0  0  0  0  0
    3.3952    4.1021    0.0000 H   0  0  0  0  0  0  0  0  0  0  0  0
    6.3289    3.7937    0.0000 H   0  0  0  0  0  0  0  0  0  0  0  0
    6.4122    4.5864    0.0000 H   0  0  0  0  0  0  0  0  0  0  0  0
    4.6678    5.8538    0.0000 H   0  0  0  0  0  0  0  0  0  0  0  0
    3.9397    5.5296    0.0000 H   0  0  0  0  0  0  0  0  0  0  0  0
    6.0931    5.3032    0.0000 H   0  0  0  0  0  0  0  0  0  0  0  0
    5.4482    5.7717    0.0000 H   0  0  0  0  0  0  0  0  0  0  0  0
    3.2974    3.1722    0.0000 H   0  0  0  0  0  0  0  0  0  0  0  0
    3.2141    2.3795    0.0000 H   0  0  0  0  0  0  0  0  0  0  0  0
    4.5656    1.3667    0.0000 H   0  0  0  0  0  0  0  0  0  0  0  0
    4.6489    2.1594    0.0000 H   0  0  0  0  0  0  0  0  0  0  0  0
    3.1164    1.4496    0.0000 H   0  0  0  0  0  0  0  0  0  0  0  0
    3.0331    0.6569    0.0000 H   0  0  0  0  0  0  0  0  0  0  0  0
    4.4345   -2.5687    0.0000 H   0  0  0  0  0  0  0  0  0  0  0  0
    5.2158   -2.1706    0.0000 H   0  0  0  0  0  0  0  0  0  0  0  0
    4.8177   -1.3894    0.0000 H   0  0  0  0  0  0  0  0  0  0  0  0
    1.4631   -3.4478    0.0000 H   0  0  0  0  0  0  0  0  0  0  0  0
    4.2690   -3.4478    0.0000 H   0  0  0  0  0  0  0  0  0  0  0  0
    1.4631   -5.0678    0.0000 H   0  0  0  0  0  0  0  0  0  0  0  0
    4.2690   -5.0678    0.0000 H   0  0  0  0  0  0  0  0  0  0  0  0
    2.8660   -5.8778    0.0000 H   0  0  0  0  0  0  0  0  0  0  0  0
  1 13  1  0  0  0  0
  1 14  1  0  0  0  0
  2  6  1  0  0  0  0
  2  7  1  0  0  0  0
  2 11  1  0  0  0  0
  3 14  1  0  0  0  0
  3 15  1  0  0  0  0
  3 17  1  0  0  0  0
  4  5  1  0  0  0  0
  4 14  2  0  0  0  0
  5 15  2  0  0  0  0
  6  8  1  0  0  0  0
  6 23  1  0  0  0  0
  6 24  1  0  0  0  0
  7  9  1  0  0  0  0
  7 25  1  0  0  0  0
  7 26  1  0  0  0  0
  8 10  1  0  0  0  0
  8 27  1  0  0  0  0
  8 28  1  0  0  0  0
  9 10  1  0  0  0  0
  9 29  1  0  0  0  0
  9 30  1  0  0  0  0
 10 31  1  0  0  0  0
 10 32  1  0  0  0  0
 11 12  1  0  0  0  0
 11 33  1  0  0  0  0
 11 34  1  0  0  0  0
 12 13  1  0  0  0  0
 12 35  1  0  0  0  0
 12 36  1  0  0  0  0
 13 37  1  0  0  0  0
 13 38  1  0  0  0  0
 15 16  1  0  0  0  0
 16 18  2  0  0  0  0
 16 19  1  0  0  0  0
 17 39  1  0  0  0  0
 17 40  1  0  0  0  0
 17 41  1  0  0  0  0
 18 20  1  0  0  0  0
 18 42  1  0  0  0  0
 19 21  2  0  0  0  0
 19 43  1  0  0  0  0
 20 22  2  0  0  0  0
 20 44  1  0  0  0  0
 21 22  1  0  0  0  0
 21 45  1  0  0  0  0
 22 46  1  0  0  0  0
M  END
> <PUBCHEM_COMPOUND_CID>
142573417

> <PUBCHEM_COMPOUND_CANONICALIZED>
1

> <PUBCHEM_CACTVS_COMPLEXITY>
316

> <PUBCHEM_CACTVS_HBOND_ACCEPTOR>
4

> <PUBCHEM_CACTVS_HBOND_DONOR>
0

> <PUBCHEM_CACTVS_ROTATABLE_BOND>
6

> <PUBCHEM_CACTVS_SUBSKEYS>
AAADceB7gABAAAAAAAAAAAAAAAAAAWAAAAA8QAAAAAAAAAABwAAAHAQIAAAADADFWwSzEIcMEAiiAiJiJACS0AtgALAdyCAoBJiIKKKgmRGEIAhgiAKIiAcQgAAOAAAAAAAAAAAAAAAAAAAAAAAAAAAAAA==

> <PUBCHEM_IUPAC_OPENEYE_NAME>
1-[3-[(4-methyl-5-phenyl-1,2,4-triazol-3-yl)sulfanyl]propyl]piperidine

> <PUBCHEM_IUPAC_CAS_NAME>
1-[3-[(4-methyl-5-phenyl-1,2,4-triazol-3-yl)thio]propyl]piperidine

> <PUBCHEM_IUPAC_NAME_MARKUP>
1-[3-[(4-methyl-5-phenyl-1,2,4-triazol-3-yl)sulfanyl]propyl]piperidine

> <PUBCHEM_IUPAC_NAME>
1-[3-[(4-methyl-5-phenyl-1,2,4-triazol-3-yl)sulfanyl]propyl]piperidine

> <PUBCHEM_IUPAC_SYSTEMATIC_NAME>
1-[3-[(4-methyl-5-phenyl-1,2,4-triazol-3-yl)sulfanyl]propyl]piperidine

> <PUBCHEM_IUPAC_TRADITIONAL_NAME>
1-[3-[(4-methyl-5-phenyl-1,2,4-triazol-3-yl)thio]propyl]piperidine

> <PUBCHEM_IUPAC_INCHI>
InChI=1S/C17H24N4S/c1-20-16(15-9-4-2-5-10-15)18-19-17(20)22-14-8-13-21-11-6-3-7-12-21/h2,4-5,9-10H,3,6-8,11-14H2,1H3

> <PUBCHEM_IUPAC_INCHIKEY>
WIXHPSPVTDJXJR-UHFFFAOYSA-N

> <PUBCHEM_XLOGP3_AA>
3.2

> <PUBCHEM_EXACT_MASS>
316.17216796

> <PUBCHEM_MOLECULAR_FORMULA>
C17H24N4S

> <PUBCHEM_MOLECULAR_WEIGHT>
316.5

> <PUBCHEM_OPENEYE_CAN_SMILES>
CN1C(=NN=C1SCCCN2CCCCC2)C3=CC=CC=C3

> <PUBCHEM_OPENEYE_ISO_SMILES>
CN1C(=NN=C1SCCCN2CCCCC2)C3=CC=CC=C3

> <PUBCHEM_CACTVS_TPSA>
59.2

> <PUBCHEM_MONOISOTOPIC_WEIGHT>
316.17216796

> <PUBCHEM_TOTAL_CHARGE>
0

> <PUBCHEM_HEAVY_ATOM_COUNT>
22

> <PUBCHEM_ATOM_DEF_STEREO_COUNT>
0

> <PUBCHEM_ATOM_UDEF_STEREO_COUNT>
0

> <PUBCHEM_BOND_DEF_STEREO_COUNT>
0

> <PUBCHEM_BOND_UDEF_STEREO_COUNT>
0

> <PUBCHEM_ISOTOPIC_ATOM_COUNT>
0

> <PUBCHEM_COMPONENT_COUNT>
1

> <PUBCHEM_CACTVS_TAUTO_COUNT>
-1

> <PUBCHEM_COORDINATE_TYPE>
1
5
255

> <PUBCHEM_BONDANNOTATIONS>
16  18  8
16  19  8
18  20  8
19  21  8
20  22  8
21  22  8
3  14  8
3  15  8
4  14  8
4  5  8
5  15  8

$$$$
