45272437
  -OEChem-09292322282D

 55 57  0     0  0  0  0  0  0999 V2000
    5.4921   -1.4267    0.0000 O   0  0  0  0  0  0  0  0  0  0  0  0
    2.0000   -4.7055    0.0000 O   0  0  0  0  0  0  0  0  0  0  0  0
    5.0009    2.3649    0.0000 N   0  0  0  0  0  0  0  0  0  0  0  0
    6.1765    3.9830    0.0000 N   0  0  0  0  0  0  0  0  0  0  0  0
    4.2320   -0.1667    0.0000 N   0  0  0  0  0  0  0  0  0  0  0  0
    3.7320   -1.7055    0.0000 N   0  0  0  0  0  0  0  0  0  0  0  0
    4.5942    3.2785    0.0000 C   0  0  0  0  0  0  0  0  0  0  0  0
    5.9954    2.2604    0.0000 C   0  0  0  0  0  0  0  0  0  0  0  0
    5.1819    4.0875    0.0000 C   0  0  0  0  0  0  0  0  0  0  0  0
    6.5832    3.0694    0.0000 C   0  0  0  0  0  0  0  0  0  0  0  0
    4.4131    1.5559    0.0000 C   0  0  0  0  0  0  0  0  0  0  0  0
    6.7642    4.7920    0.0000 C   0  0  0  0  0  0  0  0  0  0  0  0
    4.8198    0.6424    0.0000 C   0  0  0  0  0  0  0  0  0  0  0  0
    3.2320   -0.1667    0.0000 C   0  0  0  0  0  0  0  0  0  0  0  0
    2.9230   -1.1177    0.0000 C   0  0  0  0  0  0  0  0  0  0  0  0
    4.5411   -1.1177    0.0000 C   0  0  0  0  0  0  0  0  0  0  0  0
    6.3575    5.7055    0.0000 C   0  0  0  0  0  0  0  0  0  0  0  0
    7.7588    4.6874    0.0000 C   0  0  0  0  0  0  0  0  0  0  0  0
    3.7320   -2.7055    0.0000 C   0  0  0  0  0  0  0  0  0  0  0  0
    2.8660   -3.2055    0.0000 C   0  0  0  0  0  0  0  0  0  0  0  0
    4.5981   -3.2055    0.0000 C   0  0  0  0  0  0  0  0  0  0  0  0
    2.8660   -4.2055    0.0000 C   0  0  0  0  0  0  0  0  0  0  0  0
    4.5981   -4.2055    0.0000 C   0  0  0  0  0  0  0  0  0  0  0  0
    3.7320   -4.7055    0.0000 C   0  0  0  0  0  0  0  0  0  0  0  0
    2.0000   -5.7055    0.0000 C   0  0  0  0  0  0  0  0  0  0  0  0
    4.1635    3.7244    0.0000 H   0  0  0  0  0  0  0  0  0  0  0  0
    4.0801    2.9318    0.0000 H   0  0  0  0  0  0  0  0  0  0  0  0
    5.8245    1.6644    0.0000 H   0  0  0  0  0  0  0  0  0  0  0  0
    6.5527    1.9886    0.0000 H   0  0  0  0  0  0  0  0  0  0  0  0
    5.3528    4.6835    0.0000 H   0  0  0  0  0  0  0  0  0  0  0  0
    4.6247    4.3593    0.0000 H   0  0  0  0  0  0  0  0  0  0  0  0
    7.0139    2.6234    0.0000 H   0  0  0  0  0  0  0  0  0  0  0  0
    7.0972    3.4161    0.0000 H   0  0  0  0  0  0  0  0  0  0  0  0
    3.9824    2.0019    0.0000 H   0  0  0  0  0  0  0  0  0  0  0  0
    3.8991    1.2092    0.0000 H   0  0  0  0  0  0  0  0  0  0  0  0
    7.1287    5.2936    0.0000 H   0  0  0  0  0  0  0  0  0  0  0  0
    5.2505    0.1964    0.0000 H   0  0  0  0  0  0  0  0  0  0  0  0
    5.3338    0.9890    0.0000 H   0  0  0  0  0  0  0  0  0  0  0  0
    3.2969    0.4499    0.0000 H   0  0  0  0  0  0  0  0  0  0  0  0
    2.6256   -0.0378    0.0000 H   0  0  0  0  0  0  0  0  0  0  0  0
    2.3566   -0.8655    0.0000 H   0  0  0  0  0  0  0  0  0  0  0  0
    2.6130   -1.6547    0.0000 H   0  0  0  0  0  0  0  0  0  0  0  0
    6.9239    5.9577    0.0000 H   0  0  0  0  0  0  0  0  0  0  0  0
    6.1053    6.2719    0.0000 H   0  0  0  0  0  0  0  0  0  0  0  0
    5.7911    5.4533    0.0000 H   0  0  0  0  0  0  0  0  0  0  0  0
    7.6940    4.0708    0.0000 H   0  0  0  0  0  0  0  0  0  0  0  0
    8.3754    4.6226    0.0000 H   0  0  0  0  0  0  0  0  0  0  0  0
    7.8236    5.3040    0.0000 H   0  0  0  0  0  0  0  0  0  0  0  0
    2.3291   -2.8955    0.0000 H   0  0  0  0  0  0  0  0  0  0  0  0
    5.1350   -2.8955    0.0000 H   0  0  0  0  0  0  0  0  0  0  0  0
    5.1350   -4.5155    0.0000 H   0  0  0  0  0  0  0  0  0  0  0  0
    3.7320   -5.3255    0.0000 H   0  0  0  0  0  0  0  0  0  0  0  0
    1.3800   -5.7055    0.0000 H   0  0  0  0  0  0  0  0  0  0  0  0
    2.0000   -6.3255    0.0000 H   0  0  0  0  0  0  0  0  0  0  0  0
    2.6200   -5.7055    0.0000 H   0  0  0  0  0  0  0  0  0  0  0  0
  1 16  2  0  0  0  0
  2 22  1  0  0  0  0
  2 25  1  0  0  0  0
  3  7  1  0  0  0  0
  3  8  1  0  0  0  0
  3 11  1  0  0  0  0
  4  9  1  0  0  0  0
  4 10  1  0  0  0  0
  4 12  1  0  0  0  0
  5 13  1  0  0  0  0
  5 14  1  0  0  0  0
  5 16  1  0  0  0  0
  6 15  1  0  0  0  0
  6 16  1  0  0  0  0
  6 19  1  0  0  0  0
  7  9  1  0  0  0  0
  7 26  1  0  0  0  0
  7 27  1  0  0  0  0
  8 10  1  0  0  0  0
  8 28  1  0  0  0  0
  8 29  1  0  0  0  0
  9 30  1  0  0  0  0
  9 31  1  0  0  0  0
 10 32  1  0  0  0  0
 10 33  1  0  0  0  0
 11 13  1  0  0  0  0
 11 34  1  0  0  0  0
 11 35  1  0  0  0  0
 12 17  1  0  0  0  0
 12 18  1  0  0  0  0
 12 36  1  0  0  0  0
 13 37  1  0  0  0  0
 13 38  1  0  0  0  0
 14 15  1  0  0  0  0
 14 39  1  0  0  0  0
 14 40  1  0  0  0  0
 15 41  1  0  0  0  0
 15 42  1  0  0  0  0
 17 43  1  0  0  0  0
 17 44  1  0  0  0  0
 17 45  1  0  0  0  0
 18 46  1  0  0  0  0
 18 47  1  0  0  0  0
 18 48  1  0  0  0  0
 19 20  2  0  0  0  0
 19 21  1  0  0  0  0
 20 22  1  0  0  0  0
 20 49  1  0  0  0  0
 21 23  2  0  0  0  0
 21 50  1  0  0  0  0
 22 24  2  0  0  0  0
 23 24  1  0  0  0  0
 23 51  1  0  0  0  0
 24 52  1  0  0  0  0
 25 53  1  0  0  0  0
 25 54  1  0  0  0  0
 25 55  1  0  0  0  0
M  END
> <PUBCHEM_COMPOUND_CID>
45272437

> <PUBCHEM_COMPOUND_CANONICALIZED>
1

> <PUBCHEM_CACTVS_COMPLEXITY>
437

> <PUBCHEM_CACTVS_HBOND_ACCEPTOR>
4

> <PUBCHEM_CACTVS_HBOND_DONOR>
0

> <PUBCHEM_CACTVS_ROTATABLE_BOND>
6

> <PUBCHEM_CACTVS_SUBSKEYS>
AAADceB7sAAAAAAAAAAAAAAAAAAAAWAAAAA8QAAAAAAAAAABAAAAHgAAAAAACCzBkAYzxoMABACIACRCUACCCAAhIgAIiAAObIiMZiLEsZuUMChuxhvI6CeQUAMAAAAAAgAAAAAAAAAEAAAAAAAAAAAAAA==

> <PUBCHEM_IUPAC_OPENEYE_NAME>
1-[2-(4-isopropylpiperazin-1-yl)ethyl]-3-(3-methoxyphenyl)imidazolidin-2-one

> <PUBCHEM_IUPAC_CAS_NAME>
1-(3-methoxyphenyl)-3-[2-(4-propan-2-yl-1-piperazinyl)ethyl]-2-imidazolidinone

> <PUBCHEM_IUPAC_NAME_MARKUP>
1-(3-methoxyphenyl)-3-[2-(4-propan-2-ylpiperazin-1-yl)ethyl]imidazolidin-2-one

> <PUBCHEM_IUPAC_NAME>
1-(3-methoxyphenyl)-3-[2-(4-propan-2-ylpiperazin-1-yl)ethyl]imidazolidin-2-one

> <PUBCHEM_IUPAC_SYSTEMATIC_NAME>
1-(3-methoxyphenyl)-3-[2-(4-propan-2-ylpiperazin-1-yl)ethyl]imidazolidin-2-one

> <PUBCHEM_IUPAC_TRADITIONAL_NAME>
1-[2-(4-isopropylpiperazino)ethyl]-3-(3-methoxyphenyl)-2-imidazolidinone

> <PUBCHEM_IUPAC_INCHI>
InChI=1S/C19H30N4O2/c1-16(2)21-10-7-20(8-11-21)9-12-22-13-14-23(19(22)24)17-5-4-6-18(15-17)25-3/h4-6,15-16H,7-14H2,1-3H3

> <PUBCHEM_IUPAC_INCHIKEY>
RBSYHARPLIHIDB-UHFFFAOYSA-N

> <PUBCHEM_XLOGP3_AA>
1.7

> <PUBCHEM_EXACT_MASS>
346.23687621

> <PUBCHEM_MOLECULAR_FORMULA>
C19H30N4O2

> <PUBCHEM_MOLECULAR_WEIGHT>
346.5

> <PUBCHEM_OPENEYE_CAN_SMILES>
CC(C)N1CCN(CC1)CCN2CCN(C2=O)C3=CC(=CC=C3)OC

> <PUBCHEM_OPENEYE_ISO_SMILES>
CC(C)N1CCN(CC1)CCN2CCN(C2=O)C3=CC(=CC=C3)OC

> <PUBCHEM_CACTVS_TPSA>
39.3

> <PUBCHEM_MONOISOTOPIC_WEIGHT>
346.23687621

> <PUBCHEM_TOTAL_CHARGE>
0

> <PUBCHEM_HEAVY_ATOM_COUNT>
25

> <PUBCHEM_ATOM_DEF_STEREO_COUNT>
0

> <PUBCHEM_ATOM_UDEF_STEREO_COUNT>
0

> <PUBCHEM_BOND_DEF_STEREO_COUNT>
0

> <PUBCHEM_BOND_UDEF_STEREO_COUNT>
0

> <PUBCHEM_ISOTOPIC_ATOM_COUNT>
0

> <PUBCHEM_COMPONENT_COUNT>
1

> <PUBCHEM_CACTVS_TAUTO_COUNT>
-1

> <PUBCHEM_COORDINATE_TYPE>
1
5
255

> <PUBCHEM_BONDANNOTATIONS>
19  20  8
19  21  8
20  22  8
21  23  8
22  24  8
23  24  8

$$$$
