54585811
  -OEChem-09292322312D

 61 64  0     0  0  0  0  0  0999 V2000
   15.0545    0.2363    0.0000 O   0  0  0  0  0  0  0  0  0  0  0  0
    6.3942   -0.7637    0.0000 O   0  0  0  0  0  0  0  0  0  0  0  0
   11.5904    0.2363    0.0000 N   0  0  0  0  0  0  0  0  0  0  0  0
   13.3224   -0.7637    0.0000 N   0  0  0  0  0  0  0  0  0  0  0  0
    7.2602    0.7363    0.0000 N   0  0  0  0  0  0  0  0  0  0  0  0
    2.0000    2.7637    0.0000 N   0  0  0  0  0  0  0  0  0  0  0  0
   11.5904   -0.7637    0.0000 C   0  0  0  0  0  0  0  0  0  0  0  0
   12.4564    0.7363    0.0000 C   0  0  0  0  0  0  0  0  0  0  0  0
   10.7243    0.7363    0.0000 C   0  0  0  0  0  0  0  0  0  0  0  0
   12.4564   -1.2637    0.0000 C   0  0  0  0  0  0  0  0  0  0  0  0
   13.3224    0.2363    0.0000 C   0  0  0  0  0  0  0  0  0  0  0  0
    9.8583    0.2363    0.0000 C   0  0  0  0  0  0  0  0  0  0  0  0
    8.9923    0.7363    0.0000 C   0  0  0  0  0  0  0  0  0  0  0  0
    8.1263    0.2363    0.0000 C   0  0  0  0  0  0  0  0  0  0  0  0
   14.1884   -1.2637    0.0000 C   0  0  0  0  0  0  0  0  0  0  0  0
    7.2602    1.7363    0.0000 C   0  0  0  0  0  0  0  0  0  0  0  0
    6.3942    2.2363    0.0000 C   0  0  0  0  0  0  0  0  0  0  0  0
    6.3942    0.2363    0.0000 C   0  0  0  0  0  0  0  0  0  0  0  0
    5.5282    1.7363    0.0000 C   0  0  0  0  0  0  0  0  0  0  0  0
    5.5282    0.7363    0.0000 C   0  0  0  0  0  0  0  0  0  0  0  0
   15.0545   -0.7637    0.0000 C   0  0  0  0  0  0  0  0  0  0  0  0
   14.1884   -2.2637    0.0000 C   0  0  0  0  0  0  0  0  0  0  0  0
    4.6342    2.2709    0.0000 C   0  0  0  0  0  0  0  0  0  0  0  0
    4.6342    0.2016    0.0000 C   0  0  0  0  0  0  0  0  0  0  0  0
   15.9205   -1.2637    0.0000 C   0  0  0  0  0  0  0  0  0  0  0  0
   15.0545   -2.7637    0.0000 C   0  0  0  0  0  0  0  0  0  0  0  0
    3.7282    1.7571    0.0000 C   0  0  0  0  0  0  0  0  0  0  0  0
    3.7282    0.7154    0.0000 C   0  0  0  0  0  0  0  0  0  0  0  0
   15.9205   -2.2637    0.0000 C   0  0  0  0  0  0  0  0  0  0  0  0
   15.9205    0.7363    0.0000 C   0  0  0  0  0  0  0  0  0  0  0  0
    2.8641    2.2604    0.0000 C   0  0  0  0  0  0  0  0  0  0  0  0
   10.9798   -0.6561    0.0000 H   0  0  0  0  0  0  0  0  0  0  0  0
   11.3783   -1.3464    0.0000 H   0  0  0  0  0  0  0  0  0  0  0  0
   12.8549    1.2112    0.0000 H   0  0  0  0  0  0  0  0  0  0  0  0
   12.0579    1.2112    0.0000 H   0  0  0  0  0  0  0  0  0  0  0  0
   11.1229    1.2112    0.0000 H   0  0  0  0  0  0  0  0  0  0  0  0
   10.3258    1.2112    0.0000 H   0  0  0  0  0  0  0  0  0  0  0  0
   12.0579   -1.7387    0.0000 H   0  0  0  0  0  0  0  0  0  0  0  0
   12.8549   -1.7387    0.0000 H   0  0  0  0  0  0  0  0  0  0  0  0
   13.9330    0.1286    0.0000 H   0  0  0  0  0  0  0  0  0  0  0  0
   13.5345    0.8189    0.0000 H   0  0  0  0  0  0  0  0  0  0  0  0
    9.4598   -0.2387    0.0000 H   0  0  0  0  0  0  0  0  0  0  0  0
   10.2568   -0.2387    0.0000 H   0  0  0  0  0  0  0  0  0  0  0  0
    9.3908    1.2112    0.0000 H   0  0  0  0  0  0  0  0  0  0  0  0
    8.5938    1.2112    0.0000 H   0  0  0  0  0  0  0  0  0  0  0  0
    7.7277   -0.2387    0.0000 H   0  0  0  0  0  0  0  0  0  0  0  0
    8.5248   -0.2387    0.0000 H   0  0  0  0  0  0  0  0  0  0  0  0
    7.8708    1.6286    0.0000 H   0  0  0  0  0  0  0  0  0  0  0  0
    7.4723    2.3189    0.0000 H   0  0  0  0  0  0  0  0  0  0  0  0
    6.7928    2.7112    0.0000 H   0  0  0  0  0  0  0  0  0  0  0  0
    5.9957    2.7112    0.0000 H   0  0  0  0  0  0  0  0  0  0  0  0
   13.6515   -2.5737    0.0000 H   0  0  0  0  0  0  0  0  0  0  0  0
    4.6414    2.8909    0.0000 H   0  0  0  0  0  0  0  0  0  0  0  0
    4.6414   -0.4184    0.0000 H   0  0  0  0  0  0  0  0  0  0  0  0
   16.4574   -0.9537    0.0000 H   0  0  0  0  0  0  0  0  0  0  0  0
   15.0545   -3.3837    0.0000 H   0  0  0  0  0  0  0  0  0  0  0  0
    3.1924    0.4034    0.0000 H   0  0  0  0  0  0  0  0  0  0  0  0
   16.4574   -2.5737    0.0000 H   0  0  0  0  0  0  0  0  0  0  0  0
   16.2305    0.1993    0.0000 H   0  0  0  0  0  0  0  0  0  0  0  0
   16.4574    1.0463    0.0000 H   0  0  0  0  0  0  0  0  0  0  0  0
   15.6105    1.2732    0.0000 H   0  0  0  0  0  0  0  0  0  0  0  0
  1 21  1  0  0  0  0
  1 30  1  0  0  0  0
  2 18  2  0  0  0  0
  3  7  1  0  0  0  0
  3  8  1  0  0  0  0
  3  9  1  0  0  0  0
  4 10  1  0  0  0  0
  4 11  1  0  0  0  0
  4 15  1  0  0  0  0
  5 14  1  0  0  0  0
  5 16  1  0  0  0  0
  5 18  1  0  0  0  0
  6 31  3  0  0  0  0
  7 10  1  0  0  0  0
  7 32  1  0  0  0  0
  7 33  1  0  0  0  0
  8 11  1  0  0  0  0
  8 34  1  0  0  0  0
  8 35  1  0  0  0  0
  9 12  1  0  0  0  0
  9 36  1  0  0  0  0
  9 37  1  0  0  0  0
 10 38  1  0  0  0  0
 10 39  1  0  0  0  0
 11 40  1  0  0  0  0
 11 41  1  0  0  0  0
 12 13  1  0  0  0  0
 12 42  1  0  0  0  0
 12 43  1  0  0  0  0
 13 14  1  0  0  0  0
 13 44  1  0  0  0  0
 13 45  1  0  0  0  0
 14 46  1  0  0  0  0
 14 47  1  0  0  0  0
 15 21  1  0  0  0  0
 15 22  2  0  0  0  0
 16 17  1  0  0  0  0
 16 48  1  0  0  0  0
 16 49  1  0  0  0  0
 17 19  1  0  0  0  0
 17 50  1  0  0  0  0
 17 51  1  0  0  0  0
 18 20  1  0  0  0  0
 19 20  2  0  0  0  0
 19 23  1  0  0  0  0
 20 24  1  0  0  0  0
 21 25  2  0  0  0  0
 22 26  1  0  0  0  0
 22 52  1  0  0  0  0
 23 27  2  0  0  0  0
 23 53  1  0  0  0  0
 24 28  2  0  0  0  0
 24 54  1  0  0  0  0
 25 29  1  0  0  0  0
 25 55  1  0  0  0  0
 26 29  2  0  0  0  0
 26 56  1  0  0  0  0
 27 28  1  0  0  0  0
 27 31  1  0  0  0  0
 28 57  1  0  0  0  0
 29 58  1  0  0  0  0
 30 59  1  0  0  0  0
 30 60  1  0  0  0  0
 30 61  1  0  0  0  0
M  END
> <PUBCHEM_COMPOUND_CID>
54585811

> <PUBCHEM_COMPOUND_CANONICALIZED>
1

> <PUBCHEM_CACTVS_COMPLEXITY>
639

> <PUBCHEM_CACTVS_HBOND_ACCEPTOR>
5

> <PUBCHEM_CACTVS_HBOND_DONOR>
0

> <PUBCHEM_CACTVS_ROTATABLE_BOND>
7

> <PUBCHEM_CACTVS_SUBSKEYS>
AAADceB7sAAAAAAAAAAAAAAAAAAAAAAAAAA8eIEAAAAAAACxQAAAHgAAAAAADAzBmAYyxoMABACYBiVSUACiCAAlIgAIiAEPbMgO5jLEtZuVMShkxhHY6Y+YycCOwAACAAAQEACAAAQAACAgAAAAAAAAAA==

> <PUBCHEM_IUPAC_OPENEYE_NAME>
2-[4-[4-(2-methoxyphenyl)piperazin-1-yl]butyl]-1-oxo-3,4-dihydroisoquinoline-6-carbonitrile

> <PUBCHEM_IUPAC_CAS_NAME>
2-[4-[4-(2-methoxyphenyl)-1-piperazinyl]butyl]-1-oxo-3,4-dihydroisoquinoline-6-carbonitrile

> <PUBCHEM_IUPAC_NAME_MARKUP>
2-[4-[4-(2-methoxyphenyl)piperazin-1-yl]butyl]-1-oxo-3,4-dihydroisoquinoline-6-carbonitrile

> <PUBCHEM_IUPAC_NAME>
2-[4-[4-(2-methoxyphenyl)piperazin-1-yl]butyl]-1-oxo-3,4-dihydroisoquinoline-6-carbonitrile

> <PUBCHEM_IUPAC_SYSTEMATIC_NAME>
2-[4-[4-(2-methoxyphenyl)piperazin-1-yl]butyl]-1-oxidanylidene-3,4-dihydroisoquinoline-6-carbonitrile

> <PUBCHEM_IUPAC_TRADITIONAL_NAME>
1-keto-2-[4-[4-(2-methoxyphenyl)piperazino]butyl]-3,4-dihydroisoquinoline-6-carbonitrile

> <PUBCHEM_IUPAC_INCHI>
InChI=1S/C25H30N4O2/c1-31-24-7-3-2-6-23(24)28-16-14-27(15-17-28)11-4-5-12-29-13-10-21-18-20(19-26)8-9-22(21)25(29)30/h2-3,6-9,18H,4-5,10-17H2,1H3

> <PUBCHEM_IUPAC_INCHIKEY>
UAORLSRHSCKPEH-UHFFFAOYSA-N

> <PUBCHEM_XLOGP3_AA>
3.5

> <PUBCHEM_EXACT_MASS>
418.23687621

> <PUBCHEM_MOLECULAR_FORMULA>
C25H30N4O2

> <PUBCHEM_MOLECULAR_WEIGHT>
418.5

> <PUBCHEM_OPENEYE_CAN_SMILES>
COC1=CC=CC=C1N2CCN(CC2)CCCCN3CCC4=C(C3=O)C=CC(=C4)C#N

> <PUBCHEM_OPENEYE_ISO_SMILES>
COC1=CC=CC=C1N2CCN(CC2)CCCCN3CCC4=C(C3=O)C=CC(=C4)C#N

> <PUBCHEM_CACTVS_TPSA>
59.8

> <PUBCHEM_MONOISOTOPIC_WEIGHT>
418.23687621

> <PUBCHEM_TOTAL_CHARGE>
0

> <PUBCHEM_HEAVY_ATOM_COUNT>
31

> <PUBCHEM_ATOM_DEF_STEREO_COUNT>
0

> <PUBCHEM_ATOM_UDEF_STEREO_COUNT>
0

> <PUBCHEM_BOND_DEF_STEREO_COUNT>
0

> <PUBCHEM_BOND_UDEF_STEREO_COUNT>
0

> <PUBCHEM_ISOTOPIC_ATOM_COUNT>
0

> <PUBCHEM_COMPONENT_COUNT>
1

> <PUBCHEM_CACTVS_TAUTO_COUNT>
-1

> <PUBCHEM_COORDINATE_TYPE>
1
5
255

> <PUBCHEM_BONDANNOTATIONS>
15  21  8
15  22  8
19  20  8
19  23  8
20  24  8
21  25  8
22  26  8
23  27  8
24  28  8
25  29  8
26  29  8
27  28  8

$$$$
