127049850
  -OEChem-09292322052D

 56 58  0     0  0  0  0  0  0999 V2000
    4.5981    1.7500    0.0000 Cl  0  0  0  0  0  0  0  0  0  0  0  0
    2.8660    2.7500    0.0000 Cl  0  0  0  0  0  0  0  0  0  0  0  0
   12.3923   -2.7500    0.0000 Cl  0  0  0  0  0  0  0  0  0  0  0  0
   10.6603   -1.7500    0.0000 O   0  0  0  0  0  0  0  0  0  0  0  0
   11.5263    1.7500    0.0000 O   0  0  0  0  0  0  0  0  0  0  0  0
    6.3301   -1.2500    0.0000 N   0  0  0  0  0  0  0  0  0  0  0  0
    4.5981   -0.2500    0.0000 N   0  0  0  0  0  0  0  0  0  0  0  0
   13.2583    1.7500    0.0000 N   0  0  0  0  0  0  0  0  0  0  0  0
    5.4641   -1.7500    0.0000 C   0  0  0  0  0  0  0  0  0  0  0  0
    6.3301   -0.2500    0.0000 C   0  0  0  0  0  0  0  0  0  0  0  0
    4.5981   -1.2500    0.0000 C   0  0  0  0  0  0  0  0  0  0  0  0
    5.4641    0.2500    0.0000 C   0  0  0  0  0  0  0  0  0  0  0  0
    7.1962   -1.7500    0.0000 C   0  0  0  0  0  0  0  0  0  0  0  0
    8.0622   -1.2500    0.0000 C   0  0  0  0  0  0  0  0  0  0  0  0
    3.7320    0.2500    0.0000 C   0  0  0  0  0  0  0  0  0  0  0  0
    8.9282   -1.7500    0.0000 C   0  0  0  0  0  0  0  0  0  0  0  0
    9.7942   -1.2500    0.0000 C   0  0  0  0  0  0  0  0  0  0  0  0
    3.7320    1.2500    0.0000 C   0  0  0  0  0  0  0  0  0  0  0  0
    2.8660   -0.2500    0.0000 C   0  0  0  0  0  0  0  0  0  0  0  0
    2.8660    1.7500    0.0000 C   0  0  0  0  0  0  0  0  0  0  0  0
    2.0000    0.2500    0.0000 C   0  0  0  0  0  0  0  0  0  0  0  0
    2.0000    1.2500    0.0000 C   0  0  0  0  0  0  0  0  0  0  0  0
   11.5263   -1.2500    0.0000 C   0  0  0  0  0  0  0  0  0  0  0  0
   11.5263   -0.2500    0.0000 C   0  0  0  0  0  0  0  0  0  0  0  0
   12.3923   -1.7500    0.0000 C   0  0  0  0  0  0  0  0  0  0  0  0
   12.3923    0.2500    0.0000 C   0  0  0  0  0  0  0  0  0  0  0  0
   13.2583   -1.2500    0.0000 C   0  0  0  0  0  0  0  0  0  0  0  0
   13.2583   -0.2500    0.0000 C   0  0  0  0  0  0  0  0  0  0  0  0
   12.3923    1.2500    0.0000 C   0  0  0  0  0  0  0  0  0  0  0  0
   13.2583    2.7500    0.0000 C   0  0  0  0  0  0  0  0  0  0  0  0
    5.0656   -2.2250    0.0000 H   0  0  0  0  0  0  0  0  0  0  0  0
    5.8626   -2.2250    0.0000 H   0  0  0  0  0  0  0  0  0  0  0  0
    6.9407   -0.3577    0.0000 H   0  0  0  0  0  0  0  0  0  0  0  0
    6.5422    0.3326    0.0000 H   0  0  0  0  0  0  0  0  0  0  0  0
    3.9875   -1.1423    0.0000 H   0  0  0  0  0  0  0  0  0  0  0  0
    4.3860   -1.8326    0.0000 H   0  0  0  0  0  0  0  0  0  0  0  0
    5.8626    0.7249    0.0000 H   0  0  0  0  0  0  0  0  0  0  0  0
    5.0656    0.7249    0.0000 H   0  0  0  0  0  0  0  0  0  0  0  0
    6.7976   -2.2250    0.0000 H   0  0  0  0  0  0  0  0  0  0  0  0
    7.5947   -2.2250    0.0000 H   0  0  0  0  0  0  0  0  0  0  0  0
    8.4607   -0.7751    0.0000 H   0  0  0  0  0  0  0  0  0  0  0  0
    7.6636   -0.7751    0.0000 H   0  0  0  0  0  0  0  0  0  0  0  0
    8.5297   -2.2250    0.0000 H   0  0  0  0  0  0  0  0  0  0  0  0
    9.3267   -2.2250    0.0000 H   0  0  0  0  0  0  0  0  0  0  0  0
   10.1928   -0.7751    0.0000 H   0  0  0  0  0  0  0  0  0  0  0  0
    9.3957   -0.7751    0.0000 H   0  0  0  0  0  0  0  0  0  0  0  0
    2.8660   -0.8700    0.0000 H   0  0  0  0  0  0  0  0  0  0  0  0
    1.4631   -0.0600    0.0000 H   0  0  0  0  0  0  0  0  0  0  0  0
    1.4631    1.5600    0.0000 H   0  0  0  0  0  0  0  0  0  0  0  0
   10.9893    0.0600    0.0000 H   0  0  0  0  0  0  0  0  0  0  0  0
   13.7953   -1.5600    0.0000 H   0  0  0  0  0  0  0  0  0  0  0  0
   13.7953    0.0600    0.0000 H   0  0  0  0  0  0  0  0  0  0  0  0
   13.7953    1.4400    0.0000 H   0  0  0  0  0  0  0  0  0  0  0  0
   13.8783    2.7500    0.0000 H   0  0  0  0  0  0  0  0  0  0  0  0
   13.2583    3.3700    0.0000 H   0  0  0  0  0  0  0  0  0  0  0  0
   12.6383    2.7500    0.0000 H   0  0  0  0  0  0  0  0  0  0  0  0
  1 18  1  0  0  0  0
  2 20  1  0  0  0  0
  3 25  1  0  0  0  0
  4 17  1  0  0  0  0
  4 23  1  0  0  0  0
  5 29  2  0  0  0  0
  6  9  1  0  0  0  0
  6 10  1  0  0  0  0
  6 13  1  0  0  0  0
  7 11  1  0  0  0  0
  7 12  1  0  0  0  0
  7 15  1  0  0  0  0
  8 29  1  0  0  0  0
  8 30  1  0  0  0  0
  8 53  1  0  0  0  0
  9 11  1  0  0  0  0
  9 31  1  0  0  0  0
  9 32  1  0  0  0  0
 10 12  1  0  0  0  0
 10 33  1  0  0  0  0
 10 34  1  0  0  0  0
 11 35  1  0  0  0  0
 11 36  1  0  0  0  0
 12 37  1  0  0  0  0
 12 38  1  0  0  0  0
 13 14  1  0  0  0  0
 13 39  1  0  0  0  0
 13 40  1  0  0  0  0
 14 16  1  0  0  0  0
 14 41  1  0  0  0  0
 14 42  1  0  0  0  0
 15 18  2  0  0  0  0
 15 19  1  0  0  0  0
 16 17  1  0  0  0  0
 16 43  1  0  0  0  0
 16 44  1  0  0  0  0
 17 45  1  0  0  0  0
 17 46  1  0  0  0  0
 18 20  1  0  0  0  0
 19 21  2  0  0  0  0
 19 47  1  0  0  0  0
 20 22  2  0  0  0  0
 21 22  1  0  0  0  0
 21 48  1  0  0  0  0
 22 49  1  0  0  0  0
 23 24  1  0  0  0  0
 23 25  2  0  0  0  0
 24 26  2  0  0  0  0
 24 50  1  0  0  0  0
 25 27  1  0  0  0  0
 26 28  1  0  0  0  0
 26 29  1  0  0  0  0
 27 28  2  0  0  0  0
 27 51  1  0  0  0  0
 28 52  1  0  0  0  0
 30 54  1  0  0  0  0
 30 55  1  0  0  0  0
 30 56  1  0  0  0  0
M  END
> <PUBCHEM_COMPOUND_CID>
127049850

> <PUBCHEM_COMPOUND_CANONICALIZED>
1

> <PUBCHEM_CACTVS_COMPLEXITY>
534

> <PUBCHEM_CACTVS_HBOND_ACCEPTOR>
4

> <PUBCHEM_CACTVS_HBOND_DONOR>
1

> <PUBCHEM_CACTVS_ROTATABLE_BOND>
8

> <PUBCHEM_CACTVS_SUBSKEYS>
AAADceB7MAAGAAAAAAAAAAAAAAAAAAAAAAA8YIAAAAAAAAABQAAAHgIQAAAADA7hmCYyxoPABACIAiVSUACCCAAlJ0AIisEOb8gMZjPFt5vWOSjkwhHI6Ye6yBCOBAABAAIACBQIAAIABAAQKAAAAAAAAA==

> <PUBCHEM_IUPAC_OPENEYE_NAME>
4-chloro-3-[4-[4-(2,3-dichlorophenyl)piperazin-1-yl]butoxy]-N-methyl-benzamide

> <PUBCHEM_IUPAC_CAS_NAME>
4-chloro-3-[4-[4-(2,3-dichlorophenyl)-1-piperazinyl]butoxy]-N-methylbenzamide

> <PUBCHEM_IUPAC_NAME_MARKUP>
4-chloro-3-[4-[4-(2,3-dichlorophenyl)piperazin-1-yl]butoxy]-<I>N</I>-methylbenzamide

> <PUBCHEM_IUPAC_NAME>
4-chloro-3-[4-[4-(2,3-dichlorophenyl)piperazin-1-yl]butoxy]-N-methylbenzamide

> <PUBCHEM_IUPAC_SYSTEMATIC_NAME>
3-[4-[4-[2,3-bis(chloranyl)phenyl]piperazin-1-yl]butoxy]-4-chloranyl-N-methyl-benzamide

> <PUBCHEM_IUPAC_TRADITIONAL_NAME>
4-chloro-3-[4-[4-(2,3-dichlorophenyl)piperazino]butoxy]-N-methyl-benzamide

> <PUBCHEM_IUPAC_INCHI>
InChI=1S/C22H26Cl3N3O2/c1-26-22(29)16-7-8-17(23)20(15-16)30-14-3-2-9-27-10-12-28(13-11-27)19-6-4-5-18(24)21(19)25/h4-8,15H,2-3,9-14H2,1H3,(H,26,29)

> <PUBCHEM_IUPAC_INCHIKEY>
LNBMXMKUJUHZSR-UHFFFAOYSA-N

> <PUBCHEM_XLOGP3_AA>
5.4

> <PUBCHEM_EXACT_MASS>
469.109060

> <PUBCHEM_MOLECULAR_FORMULA>
C22H26Cl3N3O2

> <PUBCHEM_MOLECULAR_WEIGHT>
470.8

> <PUBCHEM_OPENEYE_CAN_SMILES>
CNC(=O)C1=CC(=C(C=C1)Cl)OCCCCN2CCN(CC2)C3=C(C(=CC=C3)Cl)Cl

> <PUBCHEM_OPENEYE_ISO_SMILES>
CNC(=O)C1=CC(=C(C=C1)Cl)OCCCCN2CCN(CC2)C3=C(C(=CC=C3)Cl)Cl

> <PUBCHEM_CACTVS_TPSA>
44.8

> <PUBCHEM_MONOISOTOPIC_WEIGHT>
469.109060

> <PUBCHEM_TOTAL_CHARGE>
0

> <PUBCHEM_HEAVY_ATOM_COUNT>
30

> <PUBCHEM_ATOM_DEF_STEREO_COUNT>
0

> <PUBCHEM_ATOM_UDEF_STEREO_COUNT>
0

> <PUBCHEM_BOND_DEF_STEREO_COUNT>
0

> <PUBCHEM_BOND_UDEF_STEREO_COUNT>
0

> <PUBCHEM_ISOTOPIC_ATOM_COUNT>
0

> <PUBCHEM_COMPONENT_COUNT>
1

> <PUBCHEM_CACTVS_TAUTO_COUNT>
-1

> <PUBCHEM_COORDINATE_TYPE>
1
5
255

> <PUBCHEM_BONDANNOTATIONS>
15  18  8
15  19  8
18  20  8
19  21  8
20  22  8
21  22  8
23  24  8
23  25  8
24  26  8
25  27  8
26  28  8
27  28  8

$$$$
