11533429
  -OEChem-09292322492D

 61 65  0     1  0  0  0  0  0999 V2000
    8.2062    1.3981    0.0000 S   0  0  0  0  0  0  0  0  0  0  0  0
   14.4764    5.3805    0.0000 F   0  0  0  0  0  0  0  0  0  0  0  0
   13.1561    5.8873    0.0000 F   0  0  0  0  0  0  0  0  0  0  0  0
   13.9696    4.0602    0.0000 F   0  0  0  0  0  0  0  0  0  0  0  0
    3.4887   -4.9182    0.0000 O   0  0  0  0  0  0  0  0  0  0  0  0
    5.2062   -0.3339    0.0000 N   0  0  3  0  0  0  0  0  0  0  0  0
    2.0949   -4.1135    0.0000 N   0  0  0  0  0  0  0  0  0  0  0  0
    9.7008    2.3687    0.0000 N   0  0  0  0  0  0  0  0  0  0  0  0
    8.2995    3.1777    0.0000 N   0  0  0  0  0  0  0  0  0  0  0  0
    9.0426    3.8468    0.0000 N   0  0  0  0  0  0  0  0  0  0  0  0
    5.7598   -1.1436    0.0000 C   0  0  0  0  0  0  0  0  0  0  0  0
    4.2283   -0.2593    0.0000 C   0  0  0  0  0  0  0  0  0  0  0  0
    5.4745   -2.0820    0.0000 C   0  0  0  0  0  0  0  0  0  0  0  0
    3.5583   -0.9756    0.0000 C   0  0  0  0  0  0  0  0  0  0  0  0
    4.5640   -2.4464    0.0000 C   0  0  0  0  0  0  0  0  0  0  0  0
    3.6979   -1.9464    0.0000 C   0  0  0  0  0  0  0  0  0  0  0  0
    5.7062    0.5321    0.0000 C   0  0  0  0  0  0  0  0  0  0  0  0
    6.7062    0.5321    0.0000 C   0  0  0  0  0  0  0  0  0  0  0  0
    4.5640   -3.4464    0.0000 C   0  0  0  0  0  0  0  0  0  0  0  0
    2.8319   -2.4464    0.0000 C   0  0  0  0  0  0  0  0  0  0  0  0
    3.6979   -3.9464    0.0000 C   0  0  0  0  0  0  0  0  0  0  0  0
    2.8319   -3.4464    0.0000 C   0  0  0  0  0  0  0  0  0  0  0  0
    7.2062    1.3981    0.0000 C   0  0  0  0  0  0  0  0  0  0  0  0
    2.5000   -5.0213    0.0000 C   0  0  0  0  0  0  0  0  0  0  0  0
    8.7062    2.2641    0.0000 C   0  0  0  0  0  0  0  0  0  0  0  0
    2.0000   -5.8873    0.0000 C   0  0  0  0  0  0  0  0  0  0  0  0
    9.9087    3.3468    0.0000 C   0  0  0  0  0  0  0  0  0  0  0  0
   10.8222    3.7536    0.0000 C   0  0  0  0  0  0  0  0  0  0  0  0
   10.3699    1.6255    0.0000 C   0  0  0  0  0  0  0  0  0  0  0  0
   11.6312    3.1658    0.0000 C   0  0  0  0  0  0  0  0  0  0  0  0
   10.9267    4.7481    0.0000 C   0  0  0  0  0  0  0  0  0  0  0  0
   12.6493    4.5670    0.0000 C   0  0  0  0  0  0  0  0  0  0  0  0
   12.5448    3.5725    0.0000 C   0  0  0  0  0  0  0  0  0  0  0  0
   11.8403    5.1548    0.0000 C   0  0  0  0  0  0  0  0  0  0  0  0
   13.5628    4.9738    0.0000 C   0  0  0  0  0  0  0  0  0  0  0  0
    6.2977   -1.4519    0.0000 H   0  0  0  0  0  0  0  0  0  0  0  0
    6.1805   -0.6881    0.0000 H   0  0  0  0  0  0  0  0  0  0  0  0
    4.4124    0.3327    0.0000 H   0  0  0  0  0  0  0  0  0  0  0  0
    3.6923    0.0524    0.0000 H   0  0  0  0  0  0  0  0  0  0  0  0
    5.5705   -2.6945    0.0000 H   0  0  0  0  0  0  0  0  0  0  0  0
    6.0930   -2.1252    0.0000 H   0  0  0  0  0  0  0  0  0  0  0  0
    3.2116   -0.4616    0.0000 H   0  0  0  0  0  0  0  0  0  0  0  0
    2.9798   -1.1988    0.0000 H   0  0  0  0  0  0  0  0  0  0  0  0
    5.8139    1.1427    0.0000 H   0  0  0  0  0  0  0  0  0  0  0  0
    5.1236    0.7441    0.0000 H   0  0  0  0  0  0  0  0  0  0  0  0
    6.5986   -0.0785    0.0000 H   0  0  0  0  0  0  0  0  0  0  0  0
    7.2888    0.3200    0.0000 H   0  0  0  0  0  0  0  0  0  0  0  0
    5.1009   -3.7564    0.0000 H   0  0  0  0  0  0  0  0  0  0  0  0
    2.2950   -2.1364    0.0000 H   0  0  0  0  0  0  0  0  0  0  0  0
    7.3139    2.0087    0.0000 H   0  0  0  0  0  0  0  0  0  0  0  0
    6.6236    1.6102    0.0000 H   0  0  0  0  0  0  0  0  0  0  0  0
    1.4631   -5.5773    0.0000 H   0  0  0  0  0  0  0  0  0  0  0  0
    1.6900   -6.4242    0.0000 H   0  0  0  0  0  0  0  0  0  0  0  0
    2.5369   -6.1973    0.0000 H   0  0  0  0  0  0  0  0  0  0  0  0
    9.9091    1.2107    0.0000 H   0  0  0  0  0  0  0  0  0  0  0  0
   10.7847    1.1648    0.0000 H   0  0  0  0  0  0  0  0  0  0  0  0
   10.8306    2.0404    0.0000 H   0  0  0  0  0  0  0  0  0  0  0  0
   11.5664    2.5492    0.0000 H   0  0  0  0  0  0  0  0  0  0  0  0
   10.4251    5.1125    0.0000 H   0  0  0  0  0  0  0  0  0  0  0  0
   13.0464    3.2081    0.0000 H   0  0  0  0  0  0  0  0  0  0  0  0
   11.9051    5.7714    0.0000 H   0  0  0  0  0  0  0  0  0  0  0  0
  1 23  1  0  0  0  0
  1 25  1  0  0  0  0
  2 35  1  0  0  0  0
  3 35  1  0  0  0  0
  4 35  1  0  0  0  0
  5 21  1  0  0  0  0
  5 24  1  0  0  0  0
  6 11  1  0  0  0  0
  6 12  1  0  0  0  0
  6 17  1  0  0  0  0
  7 22  1  0  0  0  0
  7 24  2  0  0  0  0
  8 25  1  0  0  0  0
  8 27  1  0  0  0  0
  8 29  1  0  0  0  0
  9 10  1  0  0  0  0
  9 25  2  0  0  0  0
 10 27  2  0  0  0  0
 11 13  1  0  0  0  0
 11 36  1  0  0  0  0
 11 37  1  0  0  0  0
 12 14  1  0  0  0  0
 12 38  1  0  0  0  0
 12 39  1  0  0  0  0
 13 15  1  0  0  0  0
 13 40  1  0  0  0  0
 13 41  1  0  0  0  0
 14 16  1  0  0  0  0
 14 42  1  0  0  0  0
 14 43  1  0  0  0  0
 15 16  1  0  0  0  0
 15 19  2  0  0  0  0
 16 20  2  0  0  0  0
 17 18  1  0  0  0  0
 17 44  1  0  0  0  0
 17 45  1  0  0  0  0
 18 23  1  0  0  0  0
 18 46  1  0  0  0  0
 18 47  1  0  0  0  0
 19 21  1  0  0  0  0
 19 48  1  0  0  0  0
 20 22  1  0  0  0  0
 20 49  1  0  0  0  0
 21 22  2  0  0  0  0
 23 50  1  0  0  0  0
 23 51  1  0  0  0  0
 24 26  1  0  0  0  0
 26 52  1  0  0  0  0
 26 53  1  0  0  0  0
 26 54  1  0  0  0  0
 27 28  1  0  0  0  0
 28 30  2  0  0  0  0
 28 31  1  0  0  0  0
 29 55  1  0  0  0  0
 29 56  1  0  0  0  0
 29 57  1  0  0  0  0
 30 33  1  0  0  0  0
 30 58  1  0  0  0  0
 31 34  2  0  0  0  0
 31 59  1  0  0  0  0
 32 33  2  0  0  0  0
 32 34  1  0  0  0  0
 32 35  1  0  0  0  0
 33 60  1  0  0  0  0
 34 61  1  0  0  0  0
M  END
> <PUBCHEM_COMPOUND_CID>
11533429

> <PUBCHEM_COMPOUND_CANONICALIZED>
1

> <PUBCHEM_CACTVS_COMPLEXITY>
695

> <PUBCHEM_CACTVS_HBOND_ACCEPTOR>
9

> <PUBCHEM_CACTVS_HBOND_DONOR>
0

> <PUBCHEM_CACTVS_ROTATABLE_BOND>
6

> <PUBCHEM_CACTVS_SUBSKEYS>
AAADceB7oYBAAAAAAAAAAAAAAAAAAWLAAAAwYAAABYAAAFgB/AAAHwQIAAAADAzF3xSz1rcMFEiqA6dydASS2CtvYrAd2CG/bNiOLrLkvbuPOSjkzBPY6YeY2bKO6AABQAAQEADQAAKAACAgAAAAAAAAAA==

> <PUBCHEM_IUPAC_OPENEYE_NAME>
2-methyl-7-[3-[[4-methyl-5-[4-(trifluoromethyl)phenyl]-1,2,4-triazol-3-yl]sulfanyl]propyl]-5,6,8,9-tetrahydrooxazolo[4,5-h][3]benzazepine

> <PUBCHEM_IUPAC_CAS_NAME>
2-methyl-7-[3-[[4-methyl-5-[4-(trifluoromethyl)phenyl]-1,2,4-triazol-3-yl]thio]propyl]-5,6,8,9-tetrahydrooxazolo[4,5-h][3]benzazepine

> <PUBCHEM_IUPAC_NAME_MARKUP>
2-methyl-7-[3-[[4-methyl-5-[4-(trifluoromethyl)phenyl]-1,2,4-triazol-3-yl]sulfanyl]propyl]-5,6,8,9-tetrahydro-[1,3]oxazolo[4,5-h][3]benzazepine

> <PUBCHEM_IUPAC_NAME>
2-methyl-7-[3-[[4-methyl-5-[4-(trifluoromethyl)phenyl]-1,2,4-triazol-3-yl]sulfanyl]propyl]-5,6,8,9-tetrahydro-[1,3]oxazolo[4,5-h][3]benzazepine

> <PUBCHEM_IUPAC_SYSTEMATIC_NAME>
2-methyl-7-[3-[[4-methyl-5-[4-(trifluoromethyl)phenyl]-1,2,4-triazol-3-yl]sulfanyl]propyl]-5,6,8,9-tetrahydro-[1,3]oxazolo[4,5-h][3]benzazepine

> <PUBCHEM_IUPAC_TRADITIONAL_NAME>
2-methyl-7-[3-[[4-methyl-5-[4-(trifluoromethyl)phenyl]-1,2,4-triazol-3-yl]thio]propyl]-5,6,8,9-tetrahydrooxazolo[4,5-h][3]benzazepine

> <PUBCHEM_IUPAC_INCHI>
InChI=1S/C25H26F3N5OS/c1-16-29-21-14-18-8-11-33(12-9-19(18)15-22(21)34-16)10-3-13-35-24-31-30-23(32(24)2)17-4-6-20(7-5-17)25(26,27)28/h4-7,14-15H,3,8-13H2,1-2H3

> <PUBCHEM_IUPAC_INCHIKEY>
XJLKTBWZJKVXJX-UHFFFAOYSA-N

> <PUBCHEM_XLOGP3_AA>
5.4

> <PUBCHEM_EXACT_MASS>
501.18101613

> <PUBCHEM_MOLECULAR_FORMULA>
C25H26F3N5OS

> <PUBCHEM_MOLECULAR_WEIGHT>
501.6

> <PUBCHEM_OPENEYE_CAN_SMILES>
CC1=NC2=C(O1)C=C3CCN(CCC3=C2)CCCSC4=NN=C(N4C)C5=CC=C(C=C5)C(F)(F)F

> <PUBCHEM_OPENEYE_ISO_SMILES>
CC1=NC2=C(O1)C=C3CCN(CCC3=C2)CCCSC4=NN=C(N4C)C5=CC=C(C=C5)C(F)(F)F

> <PUBCHEM_CACTVS_TPSA>
85.3

> <PUBCHEM_MONOISOTOPIC_WEIGHT>
501.18101613

> <PUBCHEM_TOTAL_CHARGE>
0

> <PUBCHEM_HEAVY_ATOM_COUNT>
35

> <PUBCHEM_ATOM_DEF_STEREO_COUNT>
0

> <PUBCHEM_ATOM_UDEF_STEREO_COUNT>
0

> <PUBCHEM_BOND_DEF_STEREO_COUNT>
0

> <PUBCHEM_BOND_UDEF_STEREO_COUNT>
0

> <PUBCHEM_ISOTOPIC_ATOM_COUNT>
0

> <PUBCHEM_COMPONENT_COUNT>
1

> <PUBCHEM_CACTVS_TAUTO_COUNT>
-1

> <PUBCHEM_COORDINATE_TYPE>
1
5
255

> <PUBCHEM_BONDANNOTATIONS>
10  27  8
15  16  8
15  19  8
16  20  8
19  21  8
20  22  8
21  22  8
28  30  8
28  31  8
30  33  8
31  34  8
32  33  8
32  34  8
5  21  8
5  24  8
7  22  8
7  24  8
8  25  8
8  27  8
9  10  8
9  25  8

$$$$
