145982353
  -OEChem-09292322062D

 63 67  0     1  0  0  0  0  0999 V2000
   14.9326   -2.3580    0.0000 S   0  0  0  0  0  0  0  0  0  0  0  0
    2.0000    2.1863    0.0000 O   0  0  0  0  0  0  0  0  0  0  0  0
    2.0000    0.1863    0.0000 O   0  0  0  0  0  0  0  0  0  0  0  0
    5.8550    2.9416    0.0000 O   0  0  0  0  0  0  0  0  0  0  0  0
    5.8550   -0.5689    0.0000 O   0  0  0  0  0  0  0  0  0  0  0  0
    6.1279    1.1863    0.0000 N   0  0  0  0  0  0  0  0  0  0  0  0
   10.1279   -0.5457    0.0000 N   0  0  0  0  0  0  0  0  0  0  0  0
   12.1279   -0.5457    0.0000 N   0  0  0  0  0  0  0  0  0  0  0  0
    4.5981    1.6863    0.0000 C   0  0  3  0  0  0  0  0  0  0  0  0
    4.5981    0.6863    0.0000 C   0  0  3  0  0  0  0  0  0  0  0  0
    3.7320    2.1863    0.0000 C   0  0  0  0  0  0  0  0  0  0  0  0
    3.7320    0.1863    0.0000 C   0  0  0  0  0  0  0  0  0  0  0  0
    2.8660    1.6863    0.0000 C   0  0  3  0  0  0  0  0  0  0  0  0
    2.8660    0.6863    0.0000 C   0  0  3  0  0  0  0  0  0  0  0  0
    5.5443    1.9911    0.0000 C   0  0  0  0  0  0  0  0  0  0  0  0
    5.5443    0.3816    0.0000 C   0  0  0  0  0  0  0  0  0  0  0  0
    7.1279    1.1863    0.0000 C   0  0  0  0  0  0  0  0  0  0  0  0
    7.6279    0.3203    0.0000 C   0  0  0  0  0  0  0  0  0  0  0  0
    8.6279    0.3203    0.0000 C   0  0  0  0  0  0  0  0  0  0  0  0
    9.1279   -0.5457    0.0000 C   0  0  0  0  0  0  0  0  0  0  0  0
   10.6279   -1.4118    0.0000 C   0  0  0  0  0  0  0  0  0  0  0  0
   10.6279    0.3203    0.0000 C   0  0  0  0  0  0  0  0  0  0  0  0
   11.6279   -1.4118    0.0000 C   0  0  0  0  0  0  0  0  0  0  0  0
   11.6279    0.3203    0.0000 C   0  0  0  0  0  0  0  0  0  0  0  0
   13.1279   -0.5457    0.0000 C   0  0  0  0  0  0  0  0  0  0  0  0
   13.6279   -1.4118    0.0000 C   0  0  0  0  0  0  0  0  0  0  0  0
   13.6279    0.3203    0.0000 C   0  0  0  0  0  0  0  0  0  0  0  0
   14.6279   -1.4118    0.0000 C   0  0  0  0  0  0  0  0  0  0  0  0
   13.3232   -2.3580    0.0000 C   0  0  0  0  0  0  0  0  0  0  0  0
   14.6279    0.3203    0.0000 C   0  0  0  0  0  0  0  0  0  0  0  0
   15.1279   -0.5457    0.0000 C   0  0  0  0  0  0  0  0  0  0  0  0
   14.1279   -2.9416    0.0000 C   0  0  0  0  0  0  0  0  0  0  0  0
    4.6637    2.3028    0.0000 H   0  0  0  0  0  0  0  0  0  0  0  0
    4.6637    0.0698    0.0000 H   0  0  0  0  0  0  0  0  0  0  0  0
    4.1306    2.6613    0.0000 H   0  0  0  0  0  0  0  0  0  0  0  0
    3.3335    2.6613    0.0000 H   0  0  0  0  0  0  0  0  0  0  0  0
    3.3335   -0.2886    0.0000 H   0  0  0  0  0  0  0  0  0  0  0  0
    4.1306   -0.2886    0.0000 H   0  0  0  0  0  0  0  0  0  0  0  0
    2.8660    2.3063    0.0000 H   0  0  0  0  0  0  0  0  0  0  0  0
    2.8660    0.0663    0.0000 H   0  0  0  0  0  0  0  0  0  0  0  0
    7.7105    1.3984    0.0000 H   0  0  0  0  0  0  0  0  0  0  0  0
    7.0202    1.7969    0.0000 H   0  0  0  0  0  0  0  0  0  0  0  0
    7.0453    0.1082    0.0000 H   0  0  0  0  0  0  0  0  0  0  0  0
    7.7356   -0.2903    0.0000 H   0  0  0  0  0  0  0  0  0  0  0  0
    9.2105    0.5324    0.0000 H   0  0  0  0  0  0  0  0  0  0  0  0
    8.5202    0.9309    0.0000 H   0  0  0  0  0  0  0  0  0  0  0  0
    2.0000    2.8063    0.0000 H   0  0  0  0  0  0  0  0  0  0  0  0
    2.0000   -0.4337    0.0000 H   0  0  0  0  0  0  0  0  0  0  0  0
    8.5453   -0.7578    0.0000 H   0  0  0  0  0  0  0  0  0  0  0  0
    9.2356   -1.1563    0.0000 H   0  0  0  0  0  0  0  0  0  0  0  0
   10.0453   -1.6238    0.0000 H   0  0  0  0  0  0  0  0  0  0  0  0
   10.7356   -2.0223    0.0000 H   0  0  0  0  0  0  0  0  0  0  0  0
   10.7356    0.9309    0.0000 H   0  0  0  0  0  0  0  0  0  0  0  0
   10.0453    0.5324    0.0000 H   0  0  0  0  0  0  0  0  0  0  0  0
   11.5202   -2.0223    0.0000 H   0  0  0  0  0  0  0  0  0  0  0  0
   12.2105   -1.6238    0.0000 H   0  0  0  0  0  0  0  0  0  0  0  0
   12.2105    0.5324    0.0000 H   0  0  0  0  0  0  0  0  0  0  0  0
   11.5202    0.9309    0.0000 H   0  0  0  0  0  0  0  0  0  0  0  0
   13.3179    0.8572    0.0000 H   0  0  0  0  0  0  0  0  0  0  0  0
   12.7338   -2.5506    0.0000 H   0  0  0  0  0  0  0  0  0  0  0  0
   14.9379    0.8572    0.0000 H   0  0  0  0  0  0  0  0  0  0  0  0
   15.7479   -0.5457    0.0000 H   0  0  0  0  0  0  0  0  0  0  0  0
   14.1279   -3.5616    0.0000 H   0  0  0  0  0  0  0  0  0  0  0  0
  1 28  1  0  0  0  0
  1 32  1  0  0  0  0
  2 13  1  0  0  0  0
  2 47  1  0  0  0  0
  3 14  1  0  0  0  0
  3 48  1  0  0  0  0
  4 15  2  0  0  0  0
  5 16  2  0  0  0  0
  6 15  1  0  0  0  0
  6 16  1  0  0  0  0
  6 17  1  0  0  0  0
  7 20  1  0  0  0  0
  7 21  1  0  0  0  0
  7 22  1  0  0  0  0
  8 23  1  0  0  0  0
  8 24  1  0  0  0  0
  8 25  1  0  0  0  0
  9 10  1  0  0  0  0
  9 11  1  0  0  0  0
  9 15  1  0  0  0  0
  9 33  1  0  0  0  0
 10 12  1  0  0  0  0
 10 16  1  0  0  0  0
 10 34  1  0  0  0  0
 11 13  1  0  0  0  0
 11 35  1  0  0  0  0
 11 36  1  0  0  0  0
 12 14  1  0  0  0  0
 12 37  1  0  0  0  0
 12 38  1  0  0  0  0
 13 14  1  0  0  0  0
 13 39  1  0  0  0  0
 14 40  1  0  0  0  0
 17 18  1  0  0  0  0
 17 41  1  0  0  0  0
 17 42  1  0  0  0  0
 18 19  1  0  0  0  0
 18 43  1  0  0  0  0
 18 44  1  0  0  0  0
 19 20  1  0  0  0  0
 19 45  1  0  0  0  0
 19 46  1  0  0  0  0
 20 49  1  0  0  0  0
 20 50  1  0  0  0  0
 21 23  1  0  0  0  0
 21 51  1  0  0  0  0
 21 52  1  0  0  0  0
 22 24  1  0  0  0  0
 22 53  1  0  0  0  0
 22 54  1  0  0  0  0
 23 55  1  0  0  0  0
 23 56  1  0  0  0  0
 24 57  1  0  0  0  0
 24 58  1  0  0  0  0
 25 26  2  0  0  0  0
 25 27  1  0  0  0  0
 26 28  1  0  0  0  0
 26 29  1  0  0  0  0
 27 30  2  0  0  0  0
 27 59  1  0  0  0  0
 28 31  2  0  0  0  0
 29 32  2  0  0  0  0
 29 60  1  0  0  0  0
 30 31  1  0  0  0  0
 30 61  1  0  0  0  0
 31 62  1  0  0  0  0
 32 63  1  0  0  0  0
M  END
> <PUBCHEM_COMPOUND_CID>
145982353

> <PUBCHEM_COMPOUND_CANONICALIZED>
1

> <PUBCHEM_CACTVS_COMPLEXITY>
673

> <PUBCHEM_CACTVS_HBOND_ACCEPTOR>
7

> <PUBCHEM_CACTVS_HBOND_DONOR>
2

> <PUBCHEM_CACTVS_ROTATABLE_BOND>
6

> <PUBCHEM_CACTVS_SUBSKEYS>
AAADceB7OABAAAAAAAAAAAAAAAAAAWJAAAA8YIAAAAAAAFgB8AAAHgQACAAADRzl2AawwcMAAgiMAiVSUACDAIAhChBIiBkIZIgJcDLgkZGUYAxkhiDpyAe/3JLOgAAAACAGAABAAAIAQCyAAAAAAAAAAA==

> <PUBCHEM_IUPAC_OPENEYE_NAME>
2-[4-[4-(benzothiophen-4-yl)piperazin-1-yl]butyl]-5,6-dihydroxy-3a,4,5,6,7,7a-hexahydroisoindole-1,3-dione

> <PUBCHEM_IUPAC_CAS_NAME>
2-[4-[4-(1-benzothiophen-4-yl)-1-piperazinyl]butyl]-5,6-dihydroxy-3a,4,5,6,7,7a-hexahydroisoindole-1,3-dione

> <PUBCHEM_IUPAC_NAME_MARKUP>
2-[4-[4-(1-benzothiophen-4-yl)piperazin-1-yl]butyl]-5,6-dihydroxy-3<I>a</I>,4,5,6,7,7<I>a</I>-hexahydroisoindole-1,3-dione

> <PUBCHEM_IUPAC_NAME>
2-[4-[4-(1-benzothiophen-4-yl)piperazin-1-yl]butyl]-5,6-dihydroxy-3a,4,5,6,7,7a-hexahydroisoindole-1,3-dione

> <PUBCHEM_IUPAC_SYSTEMATIC_NAME>
2-[4-[4-(1-benzothiophen-4-yl)piperazin-1-yl]butyl]-5,6-bis(oxidanyl)-3a,4,5,6,7,7a-hexahydroisoindole-1,3-dione

> <PUBCHEM_IUPAC_TRADITIONAL_NAME>
2-[4-[4-(benzothiophen-4-yl)piperazino]butyl]-5,6-dihydroxy-3a,4,5,6,7,7a-hexahydroisoindole-1,3-quinone

> <PUBCHEM_IUPAC_INCHI>
InChI=1S/C24H31N3O4S/c28-20-14-17-18(15-21(20)29)24(31)27(23(17)30)8-2-1-7-25-9-11-26(12-10-25)19-4-3-5-22-16(19)6-13-32-22/h3-6,13,17-18,20-21,28-29H,1-2,7-12,14-15H2

> <PUBCHEM_IUPAC_INCHIKEY>
ISZRKPYLQLBFHP-UHFFFAOYSA-N

> <PUBCHEM_XLOGP3_AA>
1.8

> <PUBCHEM_EXACT_MASS>
457.20352765

> <PUBCHEM_MOLECULAR_FORMULA>
C24H31N3O4S

> <PUBCHEM_MOLECULAR_WEIGHT>
457.6

> <PUBCHEM_OPENEYE_CAN_SMILES>
C1CN(CCN1CCCCN2C(=O)C3CC(C(CC3C2=O)O)O)C4=C5C=CSC5=CC=C4

> <PUBCHEM_OPENEYE_ISO_SMILES>
C1CN(CCN1CCCCN2C(=O)C3CC(C(CC3C2=O)O)O)C4=C5C=CSC5=CC=C4

> <PUBCHEM_CACTVS_TPSA>
113

> <PUBCHEM_MONOISOTOPIC_WEIGHT>
457.20352765

> <PUBCHEM_TOTAL_CHARGE>
0

> <PUBCHEM_HEAVY_ATOM_COUNT>
32

> <PUBCHEM_ATOM_DEF_STEREO_COUNT>
0

> <PUBCHEM_ATOM_UDEF_STEREO_COUNT>
4

> <PUBCHEM_BOND_DEF_STEREO_COUNT>
0

> <PUBCHEM_BOND_UDEF_STEREO_COUNT>
0

> <PUBCHEM_ISOTOPIC_ATOM_COUNT>
0

> <PUBCHEM_COMPONENT_COUNT>
1

> <PUBCHEM_CACTVS_TAUTO_COUNT>
-1

> <PUBCHEM_COORDINATE_TYPE>
1
5
255

> <PUBCHEM_BONDANNOTATIONS>
1  28  8
1  32  8
10  12  3
13  2  3
25  26  8
25  27  8
26  28  8
26  29  8
27  30  8
28  31  8
29  32  8
14  3  3
30  31  8
9  11  3

$$$$
