717323
  -OEChem-09292322092D

 38 41  0     0  0  0  0  0  0999 V2000
    4.5274    2.8600    0.0000 S   0  0  0  0  0  0  0  0  0  0  0  0
    9.6548   -1.3229    0.0000 F   0  0  0  0  0  0  0  0  0  0  0  0
    8.8709   -2.4999    0.0000 F   0  0  0  0  0  0  0  0  0  0  0  0
    8.4777   -0.5390    0.0000 F   0  0  0  0  0  0  0  0  0  0  0  0
    5.3923   -0.4110    0.0000 N   0  0  0  0  0  0  0  0  0  0  0  0
    6.3518    2.5045    0.0000 N   0  0  0  0  0  0  0  0  0  0  0  0
    6.7328    0.7452    0.0000 N   0  0  0  0  0  0  0  0  0  0  0  0
    3.3424    0.5365    0.0000 C   0  0  0  0  0  0  0  0  0  0  0  0
    4.0274    1.3212    0.0000 C   0  0  0  0  0  0  0  0  0  0  0  0
    2.3219    0.7452    0.0000 C   0  0  0  0  0  0  0  0  0  0  0  0
    2.0000    1.7358    0.0000 C   0  0  0  0  0  0  0  0  0  0  0  0
    2.7029    2.5045    0.0000 C   0  0  0  0  0  0  0  0  0  0  0  0
    3.7183    2.2723    0.0000 C   0  0  0  0  0  0  0  0  0  0  0  0
    5.0274    1.3212    0.0000 C   0  0  0  0  0  0  0  0  0  0  0  0
    5.3364    2.2723    0.0000 C   0  0  0  0  0  0  0  0  0  0  0  0
    5.7123    0.5365    0.0000 C   0  0  0  0  0  0  0  0  0  0  0  0
    6.0528   -1.1618    0.0000 C   0  0  0  0  0  0  0  0  0  0  0  0
    7.0547    1.7358    0.0000 C   0  0  0  0  0  0  0  0  0  0  0  0
    7.0333   -0.9652    0.0000 C   0  0  0  0  0  0  0  0  0  0  0  0
    5.7328   -2.1092    0.0000 C   0  0  0  0  0  0  0  0  0  0  0  0
    7.6938   -1.7160    0.0000 C   0  0  0  0  0  0  0  0  0  0  0  0
    6.3933   -2.8600    0.0000 C   0  0  0  0  0  0  0  0  0  0  0  0
    7.3738   -2.6634    0.0000 C   0  0  0  0  0  0  0  0  0  0  0  0
    8.6743   -1.5194    0.0000 C   0  0  0  0  0  0  0  0  0  0  0  0
    3.1160   -0.0407    0.0000 H   0  0  0  0  0  0  0  0  0  0  0  0
    3.8724    0.2147    0.0000 H   0  0  0  0  0  0  0  0  0  0  0  0
    1.7081    0.6573    0.0000 H   0  0  0  0  0  0  0  0  0  0  0  0
    2.3034    0.1254    0.0000 H   0  0  0  0  0  0  0  0  0  0  0  0
    1.6208    2.2263    0.0000 H   0  0  0  0  0  0  0  0  0  0  0  0
    1.4518    1.4462    0.0000 H   0  0  0  0  0  0  0  0  0  0  0  0
    2.9426    3.0763    0.0000 H   0  0  0  0  0  0  0  0  0  0  0  0
    2.1806    2.8384    0.0000 H   0  0  0  0  0  0  0  0  0  0  0  0
    4.7844   -0.5328    0.0000 H   0  0  0  0  0  0  0  0  0  0  0  0
    7.6607    1.8671    0.0000 H   0  0  0  0  0  0  0  0  0  0  0  0
    7.2317   -0.3778    0.0000 H   0  0  0  0  0  0  0  0  0  0  0  0
    5.1249   -2.2311    0.0000 H   0  0  0  0  0  0  0  0  0  0  0  0
    6.1949   -3.4474    0.0000 H   0  0  0  0  0  0  0  0  0  0  0  0
    7.7833   -3.1290    0.0000 H   0  0  0  0  0  0  0  0  0  0  0  0
  1 13  1  0  0  0  0
  1 15  1  0  0  0  0
  2 24  1  0  0  0  0
  3 24  1  0  0  0  0
  4 24  1  0  0  0  0
  5 16  1  0  0  0  0
  5 17  1  0  0  0  0
  5 33  1  0  0  0  0
  6 15  2  0  0  0  0
  6 18  1  0  0  0  0
  7 16  1  0  0  0  0
  7 18  2  0  0  0  0
  8  9  1  0  0  0  0
  8 10  1  0  0  0  0
  8 25  1  0  0  0  0
  8 26  1  0  0  0  0
  9 13  2  0  0  0  0
  9 14  1  0  0  0  0
 10 11  1  0  0  0  0
 10 27  1  0  0  0  0
 10 28  1  0  0  0  0
 11 12  1  0  0  0  0
 11 29  1  0  0  0  0
 11 30  1  0  0  0  0
 12 13  1  0  0  0  0
 12 31  1  0  0  0  0
 12 32  1  0  0  0  0
 14 15  1  0  0  0  0
 14 16  2  0  0  0  0
 17 19  1  0  0  0  0
 17 20  2  0  0  0  0
 18 34  1  0  0  0  0
 19 21  2  0  0  0  0
 19 35  1  0  0  0  0
 20 22  1  0  0  0  0
 20 36  1  0  0  0  0
 21 23  1  0  0  0  0
 21 24  1  0  0  0  0
 22 23  2  0  0  0  0
 22 37  1  0  0  0  0
 23 38  1  0  0  0  0
M  END
> <PUBCHEM_COMPOUND_CID>
717323

> <PUBCHEM_COMPOUND_CANONICALIZED>
1

> <PUBCHEM_CACTVS_COMPLEXITY>
447

> <PUBCHEM_CACTVS_HBOND_ACCEPTOR>
7

> <PUBCHEM_CACTVS_HBOND_DONOR>
1

> <PUBCHEM_CACTVS_ROTATABLE_BOND>
2

> <PUBCHEM_CACTVS_SUBSKEYS>
AAADccB7AYBAAAAAAAAAAAAAAAAAASAAAAA8YIAAAAAAAFgB/AAAHQQQAAAADAiBWhQ18dbIEAikAiZjZACD0KlxCrgJ2DAoZJiIKGLg2dGEJAxokALoyCcQgMAOgAAAQAAAAAAAAACAAAgAAAAAAAAAAA==

> <PUBCHEM_IUPAC_OPENEYE_NAME>
N-[3-(trifluoromethyl)phenyl]-5,6,7,8-tetrahydrobenzothiopheno[2,3-d]pyrimidin-4-amine

> <PUBCHEM_IUPAC_CAS_NAME>
N-[3-(trifluoromethyl)phenyl]-5,6,7,8-tetrahydro-[1]benzothiolo[2,3-d]pyrimidin-4-amine

> <PUBCHEM_IUPAC_NAME_MARKUP>
<I>N</I>-[3-(trifluoromethyl)phenyl]-5,6,7,8-tetrahydro-[1]benzothiolo[2,3-d]pyrimidin-4-amine

> <PUBCHEM_IUPAC_NAME>
N-[3-(trifluoromethyl)phenyl]-5,6,7,8-tetrahydro-[1]benzothiolo[2,3-d]pyrimidin-4-amine

> <PUBCHEM_IUPAC_SYSTEMATIC_NAME>
N-[3-(trifluoromethyl)phenyl]-5,6,7,8-tetrahydro-[1]benzothiolo[2,3-d]pyrimidin-4-amine

> <PUBCHEM_IUPAC_TRADITIONAL_NAME>
5,6,7,8-tetrahydrobenzothiopheno[2,3-d]pyrimidin-4-yl-[3-(trifluoromethyl)phenyl]amine

> <PUBCHEM_IUPAC_INCHI>
InChI=1S/C17H14F3N3S/c18-17(19,20)10-4-3-5-11(8-10)23-15-14-12-6-1-2-7-13(12)24-16(14)22-9-21-15/h3-5,8-9H,1-2,6-7H2,(H,21,22,23)

> <PUBCHEM_IUPAC_INCHIKEY>
PIYLEUHEVPNAEU-UHFFFAOYSA-N

> <PUBCHEM_XLOGP3_AA>
5.5

> <PUBCHEM_EXACT_MASS>
349.08605312

> <PUBCHEM_MOLECULAR_FORMULA>
C17H14F3N3S

> <PUBCHEM_MOLECULAR_WEIGHT>
349.4

> <PUBCHEM_OPENEYE_CAN_SMILES>
C1CCC2=C(C1)C3=C(N=CN=C3S2)NC4=CC=CC(=C4)C(F)(F)F

> <PUBCHEM_OPENEYE_ISO_SMILES>
C1CCC2=C(C1)C3=C(N=CN=C3S2)NC4=CC=CC(=C4)C(F)(F)F

> <PUBCHEM_CACTVS_TPSA>
66

> <PUBCHEM_MONOISOTOPIC_WEIGHT>
349.08605312

> <PUBCHEM_TOTAL_CHARGE>
0

> <PUBCHEM_HEAVY_ATOM_COUNT>
24

> <PUBCHEM_ATOM_DEF_STEREO_COUNT>
0

> <PUBCHEM_ATOM_UDEF_STEREO_COUNT>
0

> <PUBCHEM_BOND_DEF_STEREO_COUNT>
0

> <PUBCHEM_BOND_UDEF_STEREO_COUNT>
0

> <PUBCHEM_ISOTOPIC_ATOM_COUNT>
0

> <PUBCHEM_COMPONENT_COUNT>
1

> <PUBCHEM_CACTVS_TAUTO_COUNT>
-1

> <PUBCHEM_COORDINATE_TYPE>
1
5
255

> <PUBCHEM_BONDANNOTATIONS>
1  13  8
1  15  8
14  15  8
14  16  8
17  19  8
17  20  8
19  21  8
20  22  8
21  23  8
22  23  8
6  15  8
6  18  8
7  16  8
7  18  8
9  13  8
9  14  8

$$$$
