155515890
  -OEChem-09292322412D

 61 65  0     0  0  0  0  0  0999 V2000
    2.7696   -2.7524    0.0000 O   0  0  0  0  0  0  0  0  0  0  0  0
    5.3051    2.3842    0.0000 N   0  0  0  0  0  0  0  0  0  0  0  0
    6.4461    4.0268    0.0000 N   0  0  0  0  0  0  0  0  0  0  0  0
    4.3009   -3.6151    0.0000 N   0  0  0  0  0  0  0  0  0  0  0  0
    6.5906    5.7528    0.0000 N   0  0  0  0  0  0  0  0  0  0  0  0
    6.3016    2.3008    0.0000 C   0  0  0  0  0  0  0  0  0  0  0  0
    4.8791    3.2890    0.0000 C   0  0  0  0  0  0  0  0  0  0  0  0
    4.7345    1.5629    0.0000 C   0  0  0  0  0  0  0  0  0  0  0  0
    6.8721    3.1221    0.0000 C   0  0  0  0  0  0  0  0  0  0  0  0
    5.4496    4.1102    0.0000 C   0  0  0  0  0  0  0  0  0  0  0  0
    5.1605    0.6582    0.0000 C   0  0  0  0  0  0  0  0  0  0  0  0
    4.5900   -0.1631    0.0000 C   0  0  0  0  0  0  0  0  0  0  0  0
    5.0160   -1.0678    0.0000 C   0  0  0  0  0  0  0  0  0  0  0  0
    4.4455   -1.8891    0.0000 C   0  0  0  0  0  0  0  0  0  0  0  0
    4.8714   -2.7938    0.0000 C   0  0  0  0  0  0  0  0  0  0  0  0
    4.6660   -4.5394    0.0000 C   0  0  0  0  0  0  0  0  0  0  0  0
    7.0166    4.8481    0.0000 C   0  0  0  0  0  0  0  0  0  0  0  0
    3.8000   -5.0394    0.0000 C   0  0  0  0  0  0  0  0  0  0  0  0
    2.9061   -4.5047    0.0000 C   0  0  0  0  0  0  0  0  0  0  0  0
    3.3073   -3.5955    0.0000 C   0  0  0  0  0  0  0  0  0  0  0  0
    3.8000   -6.0394    0.0000 C   0  0  0  0  0  0  0  0  0  0  0  0
    5.5321   -5.0394    0.0000 C   0  0  0  0  0  0  0  0  0  0  0  0
    2.0000   -5.0186    0.0000 C   0  0  0  0  0  0  0  0  0  0  0  0
    8.0131    4.7646    0.0000 C   0  0  0  0  0  0  0  0  0  0  0  0
    4.6660   -6.5394    0.0000 C   0  0  0  0  0  0  0  0  0  0  0  0
    2.9061   -6.5741    0.0000 C   0  0  0  0  0  0  0  0  0  0  0  0
    5.5321   -6.0394    0.0000 C   0  0  0  0  0  0  0  0  0  0  0  0
    2.0000   -6.0602    0.0000 C   0  0  0  0  0  0  0  0  0  0  0  0
    8.5837    5.5859    0.0000 C   0  0  0  0  0  0  0  0  0  0  0  0
    7.1612    6.5741    0.0000 C   0  0  0  0  0  0  0  0  0  0  0  0
    8.1577    6.4906    0.0000 C   0  0  0  0  0  0  0  0  0  0  0  0
    6.1433    1.7013    0.0000 H   0  0  0  0  0  0  0  0  0  0  0  0
    6.8644    2.0408    0.0000 H   0  0  0  0  0  0  0  0  0  0  0  0
    4.4390    3.7257    0.0000 H   0  0  0  0  0  0  0  0  0  0  0  0
    4.3725    2.9314    0.0000 H   0  0  0  0  0  0  0  0  0  0  0  0
    4.2945    1.9997    0.0000 H   0  0  0  0  0  0  0  0  0  0  0  0
    4.2280    1.2054    0.0000 H   0  0  0  0  0  0  0  0  0  0  0  0
    7.3121    2.6853    0.0000 H   0  0  0  0  0  0  0  0  0  0  0  0
    7.3786    3.4796    0.0000 H   0  0  0  0  0  0  0  0  0  0  0  0
    5.6078    4.7097    0.0000 H   0  0  0  0  0  0  0  0  0  0  0  0
    4.8867    4.3702    0.0000 H   0  0  0  0  0  0  0  0  0  0  0  0
    5.6006    0.2214    0.0000 H   0  0  0  0  0  0  0  0  0  0  0  0
    5.6671    1.0157    0.0000 H   0  0  0  0  0  0  0  0  0  0  0  0
    4.1500    0.2737    0.0000 H   0  0  0  0  0  0  0  0  0  0  0  0
    4.0834   -0.5206    0.0000 H   0  0  0  0  0  0  0  0  0  0  0  0
    5.4560   -1.5046    0.0000 H   0  0  0  0  0  0  0  0  0  0  0  0
    5.5225   -0.7103    0.0000 H   0  0  0  0  0  0  0  0  0  0  0  0
    4.0054   -1.4523    0.0000 H   0  0  0  0  0  0  0  0  0  0  0  0
    3.9389   -2.2466    0.0000 H   0  0  0  0  0  0  0  0  0  0  0  0
    5.3115   -3.2306    0.0000 H   0  0  0  0  0  0  0  0  0  0  0  0
    5.3780   -2.4363    0.0000 H   0  0  0  0  0  0  0  0  0  0  0  0
    6.0690   -4.7294    0.0000 H   0  0  0  0  0  0  0  0  0  0  0  0
    1.4643   -4.7065    0.0000 H   0  0  0  0  0  0  0  0  0  0  0  0
    8.2773    4.2037    0.0000 H   0  0  0  0  0  0  0  0  0  0  0  0
    4.6660   -7.1594    0.0000 H   0  0  0  0  0  0  0  0  0  0  0  0
    2.9132   -7.1940    0.0000 H   0  0  0  0  0  0  0  0  0  0  0  0
    6.0690   -6.3494    0.0000 H   0  0  0  0  0  0  0  0  0  0  0  0
    1.4643   -6.3723    0.0000 H   0  0  0  0  0  0  0  0  0  0  0  0
    9.2015    5.5342    0.0000 H   0  0  0  0  0  0  0  0  0  0  0  0
    6.8971    7.1350    0.0000 H   0  0  0  0  0  0  0  0  0  0  0  0
    8.5114    6.9998    0.0000 H   0  0  0  0  0  0  0  0  0  0  0  0
  1 20  2  0  0  0  0
  2  6  1  0  0  0  0
  2  7  1  0  0  0  0
  2  8  1  0  0  0  0
  3  9  1  0  0  0  0
  3 10  1  0  0  0  0
  3 17  1  0  0  0  0
  4 15  1  0  0  0  0
  4 16  1  0  0  0  0
  4 20  1  0  0  0  0
  5 17  1  0  0  0  0
  5 30  2  0  0  0  0
  6  9  1  0  0  0  0
  6 32  1  0  0  0  0
  6 33  1  0  0  0  0
  7 10  1  0  0  0  0
  7 34  1  0  0  0  0
  7 35  1  0  0  0  0
  8 11  1  0  0  0  0
  8 36  1  0  0  0  0
  8 37  1  0  0  0  0
  9 38  1  0  0  0  0
  9 39  1  0  0  0  0
 10 40  1  0  0  0  0
 10 41  1  0  0  0  0
 11 12  1  0  0  0  0
 11 42  1  0  0  0  0
 11 43  1  0  0  0  0
 12 13  1  0  0  0  0
 12 44  1  0  0  0  0
 12 45  1  0  0  0  0
 13 14  1  0  0  0  0
 13 46  1  0  0  0  0
 13 47  1  0  0  0  0
 14 15  1  0  0  0  0
 14 48  1  0  0  0  0
 14 49  1  0  0  0  0
 15 50  1  0  0  0  0
 15 51  1  0  0  0  0
 16 18  1  0  0  0  0
 16 22  2  0  0  0  0
 17 24  2  0  0  0  0
 18 19  1  0  0  0  0
 18 21  2  0  0  0  0
 19 20  1  0  0  0  0
 19 23  2  0  0  0  0
 21 25  1  0  0  0  0
 21 26  1  0  0  0  0
 22 27  1  0  0  0  0
 22 52  1  0  0  0  0
 23 28  1  0  0  0  0
 23 53  1  0  0  0  0
 24 29  1  0  0  0  0
 24 54  1  0  0  0  0
 25 27  2  0  0  0  0
 25 55  1  0  0  0  0
 26 28  2  0  0  0  0
 26 56  1  0  0  0  0
 27 57  1  0  0  0  0
 28 58  1  0  0  0  0
 29 31  2  0  0  0  0
 29 59  1  0  0  0  0
 30 31  1  0  0  0  0
 30 60  1  0  0  0  0
 31 61  1  0  0  0  0
M  END
> <PUBCHEM_COMPOUND_CID>
155515890

> <PUBCHEM_COMPOUND_CANONICALIZED>
1

> <PUBCHEM_CACTVS_COMPLEXITY>
590

> <PUBCHEM_CACTVS_HBOND_ACCEPTOR>
4

> <PUBCHEM_CACTVS_HBOND_DONOR>
0

> <PUBCHEM_CACTVS_ROTATABLE_BOND>
8

> <PUBCHEM_CACTVS_SUBSKEYS>
AAADceB7oAAAAAAAAAAAAAAAAAAAAWAAAAA8eIEAAAAAAFjB1AAAHgAAAAAADAjBmgQ98NMIEACoAjd3dACCgCk1AiAJ2CE4ZNiIYPLAnZGUIQhohgLIyacciMCOgAACQAASAAAAAASAACQAAAAAAAAAAA==

> <PUBCHEM_IUPAC_OPENEYE_NAME>
1-[6-[4-(2-pyridyl)piperazin-1-yl]hexyl]benzo[cd]indol-2-one

> <PUBCHEM_IUPAC_CAS_NAME>
1-[6-[4-(2-pyridinyl)-1-piperazinyl]hexyl]-2-benzo[cd]indolone

> <PUBCHEM_IUPAC_NAME_MARKUP>
1-[6-(4-pyridin-2-ylpiperazin-1-yl)hexyl]benzo[cd]indol-2-one

> <PUBCHEM_IUPAC_NAME>
1-[6-(4-pyridin-2-ylpiperazin-1-yl)hexyl]benzo[cd]indol-2-one

> <PUBCHEM_IUPAC_SYSTEMATIC_NAME>
1-[6-(4-pyridin-2-ylpiperazin-1-yl)hexyl]benzo[cd]indol-2-one

> <PUBCHEM_IUPAC_TRADITIONAL_NAME>
1-[6-[4-(2-pyridyl)piperazino]hexyl]benzo[cd]indol-2-one

> <PUBCHEM_IUPAC_INCHI>
InChI=1S/C26H30N4O/c31-26-22-11-7-9-21-10-8-12-23(25(21)22)30(26)16-6-2-1-5-15-28-17-19-29(20-18-28)24-13-3-4-14-27-24/h3-4,7-14H,1-2,5-6,15-20H2

> <PUBCHEM_IUPAC_INCHIKEY>
CIQZMHMOCHBPHK-UHFFFAOYSA-N

> <PUBCHEM_XLOGP3_AA>
4.6

> <PUBCHEM_EXACT_MASS>
414.24196159

> <PUBCHEM_MOLECULAR_FORMULA>
C26H30N4O

> <PUBCHEM_MOLECULAR_WEIGHT>
414.5

> <PUBCHEM_OPENEYE_CAN_SMILES>
C1CN(CCN1CCCCCCN2C3=CC=CC4=C3C(=CC=C4)C2=O)C5=CC=CC=N5

> <PUBCHEM_OPENEYE_ISO_SMILES>
C1CN(CCN1CCCCCCN2C3=CC=CC4=C3C(=CC=C4)C2=O)C5=CC=CC=N5

> <PUBCHEM_CACTVS_TPSA>
39.7

> <PUBCHEM_MONOISOTOPIC_WEIGHT>
414.24196159

> <PUBCHEM_TOTAL_CHARGE>
0

> <PUBCHEM_HEAVY_ATOM_COUNT>
31

> <PUBCHEM_ATOM_DEF_STEREO_COUNT>
0

> <PUBCHEM_ATOM_UDEF_STEREO_COUNT>
0

> <PUBCHEM_BOND_DEF_STEREO_COUNT>
0

> <PUBCHEM_BOND_UDEF_STEREO_COUNT>
0

> <PUBCHEM_ISOTOPIC_ATOM_COUNT>
0

> <PUBCHEM_COMPONENT_COUNT>
1

> <PUBCHEM_CACTVS_TAUTO_COUNT>
-1

> <PUBCHEM_COORDINATE_TYPE>
1
5
255

> <PUBCHEM_BONDANNOTATIONS>
16  18  8
16  22  8
17  24  8
18  19  8
18  21  8
19  23  8
21  25  8
21  26  8
22  27  8
23  28  8
24  29  8
25  27  8
26  28  8
29  31  8
30  31  8
5  17  8
5  30  8

$$$$
