9799781
  -OEChem-09292322192D

 57 61  0     1  0  0  0  0  0999 V2000
    2.2666   -2.1030    0.0000 O   0  0  0  0  0  0  0  0  0  0  0  0
    3.4311   -0.6427    0.0000 N   0  0  0  0  0  0  0  0  0  0  0  0
    3.4640   -3.3005    0.0000 N   0  0  0  0  0  0  0  0  0  0  0  0
    2.5633    1.1592    0.0000 N   0  0  0  0  0  0  0  0  0  0  0  0
    3.8650   -1.5437    0.0000 C   0  0  3  0  0  0  0  0  0  0  0  0
    4.8650   -1.5437    0.0000 C   0  0  0  0  0  0  0  0  0  0  0  0
    2.4339   -0.5680    0.0000 C   0  0  0  0  0  0  0  0  0  0  0  0
    3.9944    0.1835    0.0000 C   0  0  0  0  0  0  0  0  0  0  0  0
    3.2415   -2.3255    0.0000 C   0  0  0  0  0  0  0  0  0  0  0  0
    4.3650   -3.7344    0.0000 C   0  0  0  0  0  0  0  0  0  0  0  0
    5.4885   -2.3255    0.0000 C   0  0  0  0  0  0  0  0  0  0  0  0
    2.0000    0.3330    0.0000 C   0  0  0  0  0  0  0  0  0  0  0  0
    3.5605    1.0845    0.0000 C   0  0  0  0  0  0  0  0  0  0  0  0
    5.2659   -3.3005    0.0000 C   0  0  0  0  0  0  0  0  0  0  0  0
    2.8170   -4.0484    0.0000 C   0  0  0  0  0  0  0  0  0  0  0  0
    4.2711   -4.7717    0.0000 C   0  0  0  0  0  0  0  0  0  0  0  0
    3.2927   -4.9155    0.0000 C   0  0  0  0  0  0  0  0  0  0  0  0
    2.1294    2.0602    0.0000 C   0  0  0  0  0  0  0  0  0  0  0  0
    6.1355   -3.8739    0.0000 C   0  0  0  0  0  0  0  0  0  0  0  0
    5.1272   -5.3651    0.0000 C   0  0  0  0  0  0  0  0  0  0  0  0
    6.0657   -4.9132    0.0000 C   0  0  0  0  0  0  0  0  0  0  0  0
    2.6928    2.8864    0.0000 C   0  0  0  0  0  0  0  0  0  0  0  0
    3.6900    2.8117    0.0000 C   0  0  0  0  0  0  0  0  0  0  0  0
    2.2589    3.7874    0.0000 C   0  0  0  0  0  0  0  0  0  0  0  0
    4.2533    3.6379    0.0000 C   0  0  0  0  0  0  0  0  0  0  0  0
    2.8222    4.6136    0.0000 C   0  0  0  0  0  0  0  0  0  0  0  0
    3.8194    4.5389    0.0000 C   0  0  0  0  0  0  0  0  0  0  0  0
    4.3827    5.3651    0.0000 C   0  0  0  0  0  0  0  0  0  0  0  0
    3.2489   -1.4743    0.0000 H   0  0  0  0  0  0  0  0  0  0  0  0
    5.4236   -1.2747    0.0000 H   0  0  0  0  0  0  0  0  0  0  0  0
    4.7270   -0.9392    0.0000 H   0  0  0  0  0  0  0  0  0  0  0  0
    1.8371   -0.7359    0.0000 H   0  0  0  0  0  0  0  0  0  0  0  0
    2.4956   -1.1849    0.0000 H   0  0  0  0  0  0  0  0  0  0  0  0
    4.4382   -0.2494    0.0000 H   0  0  0  0  0  0  0  0  0  0  0  0
    4.4978    0.5454    0.0000 H   0  0  0  0  0  0  0  0  0  0  0  0
    6.0471   -2.5945    0.0000 H   0  0  0  0  0  0  0  0  0  0  0  0
    5.8750   -1.8408    0.0000 H   0  0  0  0  0  0  0  0  0  0  0  0
    1.5562    0.7659    0.0000 H   0  0  0  0  0  0  0  0  0  0  0  0
    1.4966   -0.0290    0.0000 H   0  0  0  0  0  0  0  0  0  0  0  0
    4.1574    1.2524    0.0000 H   0  0  0  0  0  0  0  0  0  0  0  0
    3.4988    1.7014    0.0000 H   0  0  0  0  0  0  0  0  0  0  0  0
    2.3994   -3.5902    0.0000 H   0  0  0  0  0  0  0  0  0  0  0  0
    2.3125   -4.4089    0.0000 H   0  0  0  0  0  0  0  0  0  0  0  0
    2.7176   -5.1473    0.0000 H   0  0  0  0  0  0  0  0  0  0  0  0
    3.4547   -5.5139    0.0000 H   0  0  0  0  0  0  0  0  0  0  0  0
    1.6856    2.4931    0.0000 H   0  0  0  0  0  0  0  0  0  0  0  0
    1.6260    1.6982    0.0000 H   0  0  0  0  0  0  0  0  0  0  0  0
    6.6910   -3.5984    0.0000 H   0  0  0  0  0  0  0  0  0  0  0  0
    5.0785   -5.9832    0.0000 H   0  0  0  0  0  0  0  0  0  0  0  0
    6.5793   -5.2605    0.0000 H   0  0  0  0  0  0  0  0  0  0  0  0
    3.9590    2.2531    0.0000 H   0  0  0  0  0  0  0  0  0  0  0  0
    1.6406    3.8337    0.0000 H   0  0  0  0  0  0  0  0  0  0  0  0
    4.8716    3.5916    0.0000 H   0  0  0  0  0  0  0  0  0  0  0  0
    2.5532    5.1722    0.0000 H   0  0  0  0  0  0  0  0  0  0  0  0
    4.8950    5.0159    0.0000 H   0  0  0  0  0  0  0  0  0  0  0  0
    4.7320    5.8774    0.0000 H   0  0  0  0  0  0  0  0  0  0  0  0
    3.8704    5.7144    0.0000 H   0  0  0  0  0  0  0  0  0  0  0  0
  1  9  2  0  0  0  0
  2  5  1  0  0  0  0
  2  7  1  0  0  0  0
  2  8  1  0  0  0  0
  3  9  1  0  0  0  0
  3 10  1  0  0  0  0
  3 15  1  0  0  0  0
  4 12  1  0  0  0  0
  4 13  1  0  0  0  0
  4 18  1  0  0  0  0
  5  6  1  0  0  0  0
  5  9  1  0  0  0  0
  5 29  1  0  0  0  0
  6 11  1  0  0  0  0
  6 30  1  0  0  0  0
  6 31  1  0  0  0  0
  7 12  1  0  0  0  0
  7 32  1  0  0  0  0
  7 33  1  0  0  0  0
  8 13  1  0  0  0  0
  8 34  1  0  0  0  0
  8 35  1  0  0  0  0
 10 14  2  0  0  0  0
 10 16  1  0  0  0  0
 11 14  1  0  0  0  0
 11 36  1  0  0  0  0
 11 37  1  0  0  0  0
 12 38  1  0  0  0  0
 12 39  1  0  0  0  0
 13 40  1  0  0  0  0
 13 41  1  0  0  0  0
 14 19  1  0  0  0  0
 15 17  1  0  0  0  0
 15 42  1  0  0  0  0
 15 43  1  0  0  0  0
 16 17  1  0  0  0  0
 16 20  2  0  0  0  0
 17 44  1  0  0  0  0
 17 45  1  0  0  0  0
 18 22  1  0  0  0  0
 18 46  1  0  0  0  0
 18 47  1  0  0  0  0
 19 21  2  0  0  0  0
 19 48  1  0  0  0  0
 20 21  1  0  0  0  0
 20 49  1  0  0  0  0
 21 50  1  0  0  0  0
 22 23  2  0  0  0  0
 22 24  1  0  0  0  0
 23 25  1  0  0  0  0
 23 51  1  0  0  0  0
 24 26  2  0  0  0  0
 24 52  1  0  0  0  0
 25 27  2  0  0  0  0
 25 53  1  0  0  0  0
 26 27  1  0  0  0  0
 26 54  1  0  0  0  0
 27 28  1  0  0  0  0
 28 55  1  0  0  0  0
 28 56  1  0  0  0  0
 28 57  1  0  0  0  0
M  END
> <PUBCHEM_COMPOUND_CID>
9799781

> <PUBCHEM_COMPOUND_CANONICALIZED>
1

> <PUBCHEM_CACTVS_COMPLEXITY>
550

> <PUBCHEM_CACTVS_HBOND_ACCEPTOR>
3

> <PUBCHEM_CACTVS_HBOND_DONOR>
0

> <PUBCHEM_CACTVS_ROTATABLE_BOND>
3

> <PUBCHEM_CACTVS_SUBSKEYS>
AAADceB7IAAAAAAAAAAAAAAAAAAAAWAAAAA8YIAABYAAAFixQAAAHgAAAAAADCjBmAQywIMAAACIAiVSUACCAAAhAAAIiAGIRIgIYDLAkbGUIAhghgDIyAcYiMCOQAACAAACAACAAAQAAAQAAAAAAAAAAA==

> <PUBCHEM_IUPAC_OPENEYE_NAME>
11-[4-(p-tolylmethyl)piperazin-1-yl]-1-azatricyclo[6.4.1.04,13]trideca-4,6,8(13)-trien-12-one

> <PUBCHEM_IUPAC_CAS_NAME>
11-[4-[(4-methylphenyl)methyl]-1-piperazinyl]-1-azatricyclo[6.4.1.04,13]trideca-4,6,8(13)-trien-12-one

> <PUBCHEM_IUPAC_NAME_MARKUP>
11-[4-[(4-methylphenyl)methyl]piperazin-1-yl]-1-azatricyclo[6.4.1.0<SUP>4,13</SUP>]trideca-4,6,8(13)-trien-12-one

> <PUBCHEM_IUPAC_NAME>
11-[4-[(4-methylphenyl)methyl]piperazin-1-yl]-1-azatricyclo[6.4.1.04,13]trideca-4,6,8(13)-trien-12-one

> <PUBCHEM_IUPAC_SYSTEMATIC_NAME>
11-[4-[(4-methylphenyl)methyl]piperazin-1-yl]-1-azatricyclo[6.4.1.04,13]trideca-4,6,8(13)-trien-12-one

> <PUBCHEM_IUPAC_TRADITIONAL_NAME>
11-[4-(4-methylbenzyl)piperazino]-1-azatricyclo[6.4.1.04,13]trideca-4,6,8(13)-trien-12-one

> <PUBCHEM_IUPAC_INCHI>
InChI=1S/C24H29N3O/c1-18-5-7-19(8-6-18)17-25-13-15-26(16-14-25)22-10-9-20-3-2-4-21-11-12-27(23(20)21)24(22)28/h2-8,22H,9-17H2,1H3

> <PUBCHEM_IUPAC_INCHIKEY>
VKKGUQYWMBPDPR-UHFFFAOYSA-N

> <PUBCHEM_XLOGP3_AA>
3.5

> <PUBCHEM_EXACT_MASS>
375.231062557

> <PUBCHEM_MOLECULAR_FORMULA>
C24H29N3O

> <PUBCHEM_MOLECULAR_WEIGHT>
375.5

> <PUBCHEM_OPENEYE_CAN_SMILES>
CC1=CC=C(C=C1)CN2CCN(CC2)C3CCC4=C5C(=CC=C4)CCN5C3=O

> <PUBCHEM_OPENEYE_ISO_SMILES>
CC1=CC=C(C=C1)CN2CCN(CC2)C3CCC4=C5C(=CC=C4)CCN5C3=O

> <PUBCHEM_CACTVS_TPSA>
26.8

> <PUBCHEM_MONOISOTOPIC_WEIGHT>
375.231062557

> <PUBCHEM_TOTAL_CHARGE>
0

> <PUBCHEM_HEAVY_ATOM_COUNT>
28

> <PUBCHEM_ATOM_DEF_STEREO_COUNT>
0

> <PUBCHEM_ATOM_UDEF_STEREO_COUNT>
1

> <PUBCHEM_BOND_DEF_STEREO_COUNT>
0

> <PUBCHEM_BOND_UDEF_STEREO_COUNT>
0

> <PUBCHEM_ISOTOPIC_ATOM_COUNT>
0

> <PUBCHEM_COMPONENT_COUNT>
1

> <PUBCHEM_CACTVS_TAUTO_COUNT>
-1

> <PUBCHEM_COORDINATE_TYPE>
1
5
255

> <PUBCHEM_BONDANNOTATIONS>
10  14  8
10  16  8
14  19  8
16  20  8
19  21  8
5  2  3
20  21  8
22  23  8
22  24  8
23  25  8
24  26  8
25  27  8
26  27  8

$$$$
