44387780
  -OEChem-09292322522D

 46 48  0     0  0  0  0  0  0999 V2000
    7.0981    5.9151    0.0000 Cl  0  0  0  0  0  0  0  0  0  0  0  0
    5.0981    2.4510    0.0000 S   0  0  0  0  0  0  0  0  0  0  0  0
    3.7320    2.0849    0.0000 F   0  0  0  0  0  0  0  0  0  0  0  0
    2.0000   -2.9151    0.0000 F   0  0  0  0  0  0  0  0  0  0  0  0
    3.7320   -5.9151    0.0000 F   0  0  0  0  0  0  0  0  0  0  0  0
    5.9641    1.9510    0.0000 O   0  0  0  0  0  0  0  0  0  0  0  0
    4.2320    2.9510    0.0000 O   0  0  0  0  0  0  0  0  0  0  0  0
    4.5981   -0.4151    0.0000 N   0  0  0  0  0  0  0  0  0  0  0  0
    4.5981    1.5849    0.0000 C   0  0  0  0  0  0  0  0  0  0  0  0
    5.4641    1.0849    0.0000 C   0  0  0  0  0  0  0  0  0  0  0  0
    3.7320    1.0849    0.0000 C   0  0  0  0  0  0  0  0  0  0  0  0
    5.4641    0.0849    0.0000 C   0  0  0  0  0  0  0  0  0  0  0  0
    3.7320    0.0849    0.0000 C   0  0  0  0  0  0  0  0  0  0  0  0
    4.5981   -1.4151    0.0000 C   0  0  0  0  0  0  0  0  0  0  0  0
    5.5981    3.3170    0.0000 C   0  0  0  0  0  0  0  0  0  0  0  0
    3.7320   -1.9151    0.0000 C   0  0  0  0  0  0  0  0  0  0  0  0
    3.7320   -2.9151    0.0000 C   0  0  0  0  0  0  0  0  0  0  0  0
    5.0981    4.1830    0.0000 C   0  0  0  0  0  0  0  0  0  0  0  0
    6.5981    3.3170    0.0000 C   0  0  0  0  0  0  0  0  0  0  0  0
    5.5981    5.0490    0.0000 C   0  0  0  0  0  0  0  0  0  0  0  0
    7.0981    4.1830    0.0000 C   0  0  0  0  0  0  0  0  0  0  0  0
    2.8660   -3.4151    0.0000 C   0  0  0  0  0  0  0  0  0  0  0  0
    4.5981   -3.4151    0.0000 C   0  0  0  0  0  0  0  0  0  0  0  0
    6.5981    5.0490    0.0000 C   0  0  0  0  0  0  0  0  0  0  0  0
    2.8660   -4.4151    0.0000 C   0  0  0  0  0  0  0  0  0  0  0  0
    4.5981   -4.4151    0.0000 C   0  0  0  0  0  0  0  0  0  0  0  0
    3.7320   -4.9151    0.0000 C   0  0  0  0  0  0  0  0  0  0  0  0
    6.0747    0.9773    0.0000 H   0  0  0  0  0  0  0  0  0  0  0  0
    5.6762    1.6676    0.0000 H   0  0  0  0  0  0  0  0  0  0  0  0
    3.5200    1.6676    0.0000 H   0  0  0  0  0  0  0  0  0  0  0  0
    3.1215    0.9773    0.0000 H   0  0  0  0  0  0  0  0  0  0  0  0
    5.6762   -0.4977    0.0000 H   0  0  0  0  0  0  0  0  0  0  0  0
    6.0747    0.1926    0.0000 H   0  0  0  0  0  0  0  0  0  0  0  0
    3.1215    0.1926    0.0000 H   0  0  0  0  0  0  0  0  0  0  0  0
    3.5200   -0.4977    0.0000 H   0  0  0  0  0  0  0  0  0  0  0  0
    4.8101   -1.9977    0.0000 H   0  0  0  0  0  0  0  0  0  0  0  0
    5.2087   -1.3074    0.0000 H   0  0  0  0  0  0  0  0  0  0  0  0
    3.5200   -1.3324    0.0000 H   0  0  0  0  0  0  0  0  0  0  0  0
    3.1215   -2.0227    0.0000 H   0  0  0  0  0  0  0  0  0  0  0  0
    4.4781    4.1830    0.0000 H   0  0  0  0  0  0  0  0  0  0  0  0
    6.9081    2.7800    0.0000 H   0  0  0  0  0  0  0  0  0  0  0  0
    5.2881    5.5860    0.0000 H   0  0  0  0  0  0  0  0  0  0  0  0
    7.7181    4.1830    0.0000 H   0  0  0  0  0  0  0  0  0  0  0  0
    5.1350   -3.1051    0.0000 H   0  0  0  0  0  0  0  0  0  0  0  0
    2.3291   -4.7251    0.0000 H   0  0  0  0  0  0  0  0  0  0  0  0
    5.1350   -4.7251    0.0000 H   0  0  0  0  0  0  0  0  0  0  0  0
  1 24  1  0  0  0  0
  2  6  2  0  0  0  0
  2  7  2  0  0  0  0
  2  9  1  0  0  0  0
  2 15  1  0  0  0  0
  3  9  1  0  0  0  0
  4 22  1  0  0  0  0
  5 27  1  0  0  0  0
  8 12  1  0  0  0  0
  8 13  1  0  0  0  0
  8 14  1  0  0  0  0
  9 10  1  0  0  0  0
  9 11  1  0  0  0  0
 10 12  1  0  0  0  0
 10 28  1  0  0  0  0
 10 29  1  0  0  0  0
 11 13  1  0  0  0  0
 11 30  1  0  0  0  0
 11 31  1  0  0  0  0
 12 32  1  0  0  0  0
 12 33  1  0  0  0  0
 13 34  1  0  0  0  0
 13 35  1  0  0  0  0
 14 16  1  0  0  0  0
 14 36  1  0  0  0  0
 14 37  1  0  0  0  0
 15 18  2  0  0  0  0
 15 19  1  0  0  0  0
 16 17  1  0  0  0  0
 16 38  1  0  0  0  0
 16 39  1  0  0  0  0
 17 22  2  0  0  0  0
 17 23  1  0  0  0  0
 18 20  1  0  0  0  0
 18 40  1  0  0  0  0
 19 21  2  0  0  0  0
 19 41  1  0  0  0  0
 20 24  2  0  0  0  0
 20 42  1  0  0  0  0
 21 24  1  0  0  0  0
 21 43  1  0  0  0  0
 22 25  1  0  0  0  0
 23 26  2  0  0  0  0
 23 44  1  0  0  0  0
 25 27  2  0  0  0  0
 25 45  1  0  0  0  0
 26 27  1  0  0  0  0
 26 46  1  0  0  0  0
M  END
> <PUBCHEM_COMPOUND_CID>
44387780

> <PUBCHEM_COMPOUND_CANONICALIZED>
1

> <PUBCHEM_CACTVS_COMPLEXITY>
584

> <PUBCHEM_CACTVS_HBOND_ACCEPTOR>
6

> <PUBCHEM_CACTVS_HBOND_DONOR>
0

> <PUBCHEM_CACTVS_ROTATABLE_BOND>
5

> <PUBCHEM_CACTVS_SUBSKEYS>
AAADceB6MYBEAAAAAAAAAAAAAAAAAAAAAAA8YIAAAAAAAAABQAAAHQYAAAAADALBWCwwAYMAAAqAAiBCAHBCAAAgDRAIiBgIAogIICKhkxGEIAAggACoiAcQgIAOAAIAAAAAAAAABAAAAAAAAAAAAAAAAA==

> <PUBCHEM_IUPAC_OPENEYE_NAME>
4-(4-chlorophenyl)sulfonyl-1-[2-(2,4-difluorophenyl)ethyl]-4-fluoro-piperidine

> <PUBCHEM_IUPAC_CAS_NAME>
4-(4-chlorophenyl)sulfonyl-1-[2-(2,4-difluorophenyl)ethyl]-4-fluoropiperidine

> <PUBCHEM_IUPAC_NAME_MARKUP>
4-(4-chlorophenyl)sulfonyl-1-[2-(2,4-difluorophenyl)ethyl]-4-fluoropiperidine

> <PUBCHEM_IUPAC_NAME>
4-(4-chlorophenyl)sulfonyl-1-[2-(2,4-difluorophenyl)ethyl]-4-fluoropiperidine

> <PUBCHEM_IUPAC_SYSTEMATIC_NAME>
1-[2-[2,4-bis(fluoranyl)phenyl]ethyl]-4-(4-chlorophenyl)sulfonyl-4-fluoranyl-piperidine

> <PUBCHEM_IUPAC_TRADITIONAL_NAME>
4-(4-chlorophenyl)sulfonyl-1-[2-(2,4-difluorophenyl)ethyl]-4-fluoro-piperidine

> <PUBCHEM_IUPAC_INCHI>
InChI=1S/C19H19ClF3NO2S/c20-15-2-5-17(6-3-15)27(25,26)19(23)8-11-24(12-9-19)10-7-14-1-4-16(21)13-18(14)22/h1-6,13H,7-12H2

> <PUBCHEM_IUPAC_INCHIKEY>
WGCMIWIMQFOYOI-UHFFFAOYSA-N

> <PUBCHEM_XLOGP3_AA>
4.8

> <PUBCHEM_EXACT_MASS>
417.0777122

> <PUBCHEM_MOLECULAR_FORMULA>
C19H19ClF3NO2S

> <PUBCHEM_MOLECULAR_WEIGHT>
417.9

> <PUBCHEM_OPENEYE_CAN_SMILES>
C1CN(CCC1(F)S(=O)(=O)C2=CC=C(C=C2)Cl)CCC3=C(C=C(C=C3)F)F

> <PUBCHEM_OPENEYE_ISO_SMILES>
C1CN(CCC1(F)S(=O)(=O)C2=CC=C(C=C2)Cl)CCC3=C(C=C(C=C3)F)F

> <PUBCHEM_CACTVS_TPSA>
45.8

> <PUBCHEM_MONOISOTOPIC_WEIGHT>
417.0777122

> <PUBCHEM_TOTAL_CHARGE>
0

> <PUBCHEM_HEAVY_ATOM_COUNT>
27

> <PUBCHEM_ATOM_DEF_STEREO_COUNT>
0

> <PUBCHEM_ATOM_UDEF_STEREO_COUNT>
0

> <PUBCHEM_BOND_DEF_STEREO_COUNT>
0

> <PUBCHEM_BOND_UDEF_STEREO_COUNT>
0

> <PUBCHEM_ISOTOPIC_ATOM_COUNT>
0

> <PUBCHEM_COMPONENT_COUNT>
1

> <PUBCHEM_CACTVS_TAUTO_COUNT>
-1

> <PUBCHEM_COORDINATE_TYPE>
1
5
255

> <PUBCHEM_BONDANNOTATIONS>
15  18  8
15  19  8
17  22  8
17  23  8
18  20  8
19  21  8
20  24  8
21  24  8
22  25  8
23  26  8
25  27  8
26  27  8

$$$$
