71541277
  -OEChem-09292322052D

 37 40  0     1  0  0  0  0  0999 V2000
    4.1087   -2.3766    0.0000 S   0  0  0  0  0  0  0  0  0  0  0  0
    8.8651    2.5737    0.0000 S   0  0  0  0  0  0  0  0  0  0  0  0
    5.8262    2.2076    0.0000 N   0  0  3  0  0  0  0  0  0  0  0  0
    2.7149   -1.5719    0.0000 N   0  0  0  0  0  0  0  0  0  0  0  0
    7.9140    3.8827    0.0000 N   0  0  0  0  0  0  0  0  0  0  0  0
    2.6200   -3.3457    0.0000 N   0  0  0  0  0  0  0  0  0  0  0  0
    6.3798    1.3980    0.0000 C   0  0  0  0  0  0  0  0  0  0  0  0
    4.8483    2.2822    0.0000 C   0  0  0  0  0  0  0  0  0  0  0  0
    6.0945    0.4596    0.0000 C   0  0  0  0  0  0  0  0  0  0  0  0
    4.1783    1.5660    0.0000 C   0  0  0  0  0  0  0  0  0  0  0  0
    5.1840    0.0952    0.0000 C   0  0  0  0  0  0  0  0  0  0  0  0
    4.3179    0.5952    0.0000 C   0  0  0  0  0  0  0  0  0  0  0  0
    6.3262    3.0737    0.0000 C   0  0  0  0  0  0  0  0  0  0  0  0
    5.1840   -0.9048    0.0000 C   0  0  0  0  0  0  0  0  0  0  0  0
    3.4519    0.0952    0.0000 C   0  0  0  0  0  0  0  0  0  0  0  0
    4.3179   -1.4048    0.0000 C   0  0  0  0  0  0  0  0  0  0  0  0
    3.4519   -0.9048    0.0000 C   0  0  0  0  0  0  0  0  0  0  0  0
    7.3262    3.0737    0.0000 C   0  0  0  0  0  0  0  0  0  0  0  0
    3.1200   -2.4797    0.0000 C   0  0  0  0  0  0  0  0  0  0  0  0
    7.9140    2.2646    0.0000 C   0  0  0  0  0  0  0  0  0  0  0  0
    8.8651    3.5736    0.0000 C   0  0  0  0  0  0  0  0  0  0  0  0
    6.9177    1.0897    0.0000 H   0  0  0  0  0  0  0  0  0  0  0  0
    6.8005    1.8534    0.0000 H   0  0  0  0  0  0  0  0  0  0  0  0
    5.0324    2.8743    0.0000 H   0  0  0  0  0  0  0  0  0  0  0  0
    4.3123    2.5939    0.0000 H   0  0  0  0  0  0  0  0  0  0  0  0
    6.1905   -0.1529    0.0000 H   0  0  0  0  0  0  0  0  0  0  0  0
    6.7130    0.4163    0.0000 H   0  0  0  0  0  0  0  0  0  0  0  0
    3.8316    2.0800    0.0000 H   0  0  0  0  0  0  0  0  0  0  0  0
    3.5998    1.3428    0.0000 H   0  0  0  0  0  0  0  0  0  0  0  0
    6.4339    3.6842    0.0000 H   0  0  0  0  0  0  0  0  0  0  0  0
    5.7436    3.2857    0.0000 H   0  0  0  0  0  0  0  0  0  0  0  0
    5.7209   -1.2148    0.0000 H   0  0  0  0  0  0  0  0  0  0  0  0
    2.9150    0.4052    0.0000 H   0  0  0  0  0  0  0  0  0  0  0  0
    7.7224    1.6750    0.0000 H   0  0  0  0  0  0  0  0  0  0  0  0
    9.3667    3.9381    0.0000 H   0  0  0  0  0  0  0  0  0  0  0  0
    2.0000   -3.3457    0.0000 H   0  0  0  0  0  0  0  0  0  0  0  0
    2.9300   -3.8827    0.0000 H   0  0  0  0  0  0  0  0  0  0  0  0
  1 16  1  0  0  0  0
  1 19  1  0  0  0  0
  2 20  1  0  0  0  0
  2 21  1  0  0  0  0
  3  7  1  0  0  0  0
  3  8  1  0  0  0  0
  3 13  1  0  0  0  0
  4 17  1  0  0  0  0
  4 19  2  0  0  0  0
  5 18  1  0  0  0  0
  5 21  2  0  0  0  0
  6 19  1  0  0  0  0
  6 36  1  0  0  0  0
  6 37  1  0  0  0  0
  7  9  1  0  0  0  0
  7 22  1  0  0  0  0
  7 23  1  0  0  0  0
  8 10  1  0  0  0  0
  8 24  1  0  0  0  0
  8 25  1  0  0  0  0
  9 11  1  0  0  0  0
  9 26  1  0  0  0  0
  9 27  1  0  0  0  0
 10 12  1  0  0  0  0
 10 28  1  0  0  0  0
 10 29  1  0  0  0  0
 11 12  1  0  0  0  0
 11 14  2  0  0  0  0
 12 15  2  0  0  0  0
 13 18  1  0  0  0  0
 13 30  1  0  0  0  0
 13 31  1  0  0  0  0
 14 16  1  0  0  0  0
 14 32  1  0  0  0  0
 15 17  1  0  0  0  0
 15 33  1  0  0  0  0
 16 17  2  0  0  0  0
 18 20  2  0  0  0  0
 20 34  1  0  0  0  0
 21 35  1  0  0  0  0
M  END
> <PUBCHEM_COMPOUND_CID>
71541277

> <PUBCHEM_COMPOUND_CANONICALIZED>
1

> <PUBCHEM_CACTVS_COMPLEXITY>
370

> <PUBCHEM_CACTVS_HBOND_ACCEPTOR>
6

> <PUBCHEM_CACTVS_HBOND_DONOR>
1

> <PUBCHEM_CACTVS_ROTATABLE_BOND>
2

> <PUBCHEM_CACTVS_SUBSKEYS>
AAADceBzgABgAAAAAAAAAAAAAAAAAWLAAAAwAAAABYAAAFgB/AAAHAQQAAAADAjFXgS10bNIEAikAyRjZACD8KlxCjlA2Dw4ZJiIYKLgkZGUIAhggALIyCcQgIAOmAAAwAAQAQAwAAGAACACAAAAAAAAAA==

> <PUBCHEM_IUPAC_OPENEYE_NAME>
7-(thiazol-4-ylmethyl)-5,6,8,9-tetrahydrothiazolo[4,5-h][3]benzazepin-2-amine

> <PUBCHEM_IUPAC_CAS_NAME>
7-(4-thiazolylmethyl)-5,6,8,9-tetrahydrothiazolo[4,5-h][3]benzazepin-2-amine

> <PUBCHEM_IUPAC_NAME_MARKUP>
7-(1,3-thiazol-4-ylmethyl)-5,6,8,9-tetrahydro-[1,3]thiazolo[4,5-h][3]benzazepin-2-amine

> <PUBCHEM_IUPAC_NAME>
7-(1,3-thiazol-4-ylmethyl)-5,6,8,9-tetrahydro-[1,3]thiazolo[4,5-h][3]benzazepin-2-amine

> <PUBCHEM_IUPAC_SYSTEMATIC_NAME>
7-(1,3-thiazol-4-ylmethyl)-5,6,8,9-tetrahydro-[1,3]thiazolo[4,5-h][3]benzazepin-2-amine

> <PUBCHEM_IUPAC_TRADITIONAL_NAME>
[7-(thiazol-4-ylmethyl)-5,6,8,9-tetrahydrothiazolo[4,5-h][3]benzazepin-2-yl]amine

> <PUBCHEM_IUPAC_INCHI>
InChI=1S/C15H16N4S2/c16-15-18-13-5-10-1-3-19(7-12-8-20-9-17-12)4-2-11(10)6-14(13)21-15/h5-6,8-9H,1-4,7H2,(H2,16,18)

> <PUBCHEM_IUPAC_INCHIKEY>
KFUGNQAXLKYRFD-UHFFFAOYSA-N

> <PUBCHEM_XLOGP3_AA>
2.9

> <PUBCHEM_EXACT_MASS>
316.08163887

> <PUBCHEM_MOLECULAR_FORMULA>
C15H16N4S2

> <PUBCHEM_MOLECULAR_WEIGHT>
316.4

> <PUBCHEM_OPENEYE_CAN_SMILES>
C1CN(CCC2=CC3=C(C=C21)N=C(S3)N)CC4=CSC=N4

> <PUBCHEM_OPENEYE_ISO_SMILES>
C1CN(CCC2=CC3=C(C=C21)N=C(S3)N)CC4=CSC=N4

> <PUBCHEM_CACTVS_TPSA>
112

> <PUBCHEM_MONOISOTOPIC_WEIGHT>
316.08163887

> <PUBCHEM_TOTAL_CHARGE>
0

> <PUBCHEM_HEAVY_ATOM_COUNT>
21

> <PUBCHEM_ATOM_DEF_STEREO_COUNT>
0

> <PUBCHEM_ATOM_UDEF_STEREO_COUNT>
0

> <PUBCHEM_BOND_DEF_STEREO_COUNT>
0

> <PUBCHEM_BOND_UDEF_STEREO_COUNT>
0

> <PUBCHEM_ISOTOPIC_ATOM_COUNT>
0

> <PUBCHEM_COMPONENT_COUNT>
1

> <PUBCHEM_CACTVS_TAUTO_COUNT>
-1

> <PUBCHEM_COORDINATE_TYPE>
1
5
255

> <PUBCHEM_BONDANNOTATIONS>
1  16  8
1  19  8
11  12  8
11  14  8
12  15  8
14  16  8
15  17  8
16  17  8
18  20  8
2  20  8
2  21  8
4  17  8
4  19  8
5  18  8
5  21  8

$$$$
