44356251
  -OEChem-09292321592D

 47 48  0     1  0  0  0  0  0999 V2000
    4.0682    5.1700    0.0000 O   0  0  0  0  0  0  0  0  0  0  0  0
    0.5381    5.1459    0.0000 O   0  0  0  0  0  0  0  0  0  0  0  0
    6.6327    1.0000    0.0000 O   0  0  0  0  0  0  0  0  0  0  0  0
    4.0346    1.5000    0.0000 O   0  0  0  0  0  0  0  0  0  0  0  0
    5.7667    2.5000    0.0000 O   0  0  0  0  0  0  0  0  0  0  0  0
    4.9007    0.0000    0.0000 O   0  0  0  0  0  0  0  0  0  0  0  0
    6.6663    5.6700    0.0000 N   0  0  0  0  0  0  0  0  0  0  0  0
    4.9343    5.6700    0.0000 C   0  0  2  0  0  0  0  0  0  0  0  0
    4.9343    6.6700    0.0000 C   0  0  0  0  0  0  0  0  0  0  0  0
    4.0682    7.1700    0.0000 C   0  0  0  0  0  0  0  0  0  0  0  0
    5.8003    5.1700    0.0000 C   0  0  0  0  0  0  0  0  0  0  0  0
    3.2022    6.6700    0.0000 C   0  0  0  0  0  0  0  0  0  0  0  0
    3.2022    5.6700    0.0000 C   0  0  0  0  0  0  0  0  0  0  0  0
    2.3083    7.2047    0.0000 C   0  0  0  0  0  0  0  0  0  0  0  0
    2.3083    5.1354    0.0000 C   0  0  0  0  0  0  0  0  0  0  0  0
    7.5324    5.1700    0.0000 C   0  0  0  0  0  0  0  0  0  0  0  0
    1.4022    6.6908    0.0000 C   0  0  0  0  0  0  0  0  0  0  0  0
    1.4022    5.6492    0.0000 C   0  0  0  0  0  0  0  0  0  0  0  0
    8.3984    5.6700    0.0000 C   0  0  0  0  0  0  0  0  0  0  0  0
    8.3984    6.6700    0.0000 C   0  0  0  0  0  0  0  0  0  0  0  0
    9.2644    5.1700    0.0000 C   0  0  0  0  0  0  0  0  0  0  0  0
    9.2644    7.1700    0.0000 C   0  0  0  0  0  0  0  0  0  0  0  0
   10.1304    5.6700    0.0000 C   0  0  0  0  0  0  0  0  0  0  0  0
   10.1304    6.6700    0.0000 C   0  0  0  0  0  0  0  0  0  0  0  0
    5.7667    1.5000    0.0000 C   0  0  0  0  0  0  0  0  0  0  0  0
    4.9007    1.0000    0.0000 C   0  0  0  0  0  0  0  0  0  0  0  0
    4.9343    5.0500    0.0000 H   0  0  0  0  0  0  0  0  0  0  0  0
    5.5449    6.5624    0.0000 H   0  0  0  0  0  0  0  0  0  0  0  0
    5.1463    7.2526    0.0000 H   0  0  0  0  0  0  0  0  0  0  0  0
    4.4668    7.6450    0.0000 H   0  0  0  0  0  0  0  0  0  0  0  0
    3.6697    7.6450    0.0000 H   0  0  0  0  0  0  0  0  0  0  0  0
    5.4018    4.6951    0.0000 H   0  0  0  0  0  0  0  0  0  0  0  0
    6.1988    4.6951    0.0000 H   0  0  0  0  0  0  0  0  0  0  0  0
    6.6663    6.2900    0.0000 H   0  0  0  0  0  0  0  0  0  0  0  0
    2.3154    7.8247    0.0000 H   0  0  0  0  0  0  0  0  0  0  0  0
    2.3154    4.5154    0.0000 H   0  0  0  0  0  0  0  0  0  0  0  0
    7.1338    4.6951    0.0000 H   0  0  0  0  0  0  0  0  0  0  0  0
    7.9309    4.6951    0.0000 H   0  0  0  0  0  0  0  0  0  0  0  0
    0.8665    7.0029    0.0000 H   0  0  0  0  0  0  0  0  0  0  0  0
    7.8614    6.9800    0.0000 H   0  0  0  0  0  0  0  0  0  0  0  0
    9.2644    4.5500    0.0000 H   0  0  0  0  0  0  0  0  0  0  0  0
    0.0000    5.4538    0.0000 H   0  0  0  0  0  0  0  0  0  0  0  0
    9.2644    7.7900    0.0000 H   0  0  0  0  0  0  0  0  0  0  0  0
   10.6674    5.3600    0.0000 H   0  0  0  0  0  0  0  0  0  0  0  0
   10.6674    6.9800    0.0000 H   0  0  0  0  0  0  0  0  0  0  0  0
    7.1697    1.3100    0.0000 H   0  0  0  0  0  0  0  0  0  0  0  0
    3.4977    1.1900    0.0000 H   0  0  0  0  0  0  0  0  0  0  0  0
  1  8  1  0  0  0  0
  1 13  1  0  0  0  0
  2 18  1  0  0  0  0
  2 42  1  0  0  0  0
  3 25  1  0  0  0  0
  3 46  1  0  0  0  0
  4 26  1  0  0  0  0
  4 47  1  0  0  0  0
  5 25  2  0  0  0  0
  6 26  2  0  0  0  0
  7 11  1  0  0  0  0
  7 16  1  0  0  0  0
  7 34  1  0  0  0  0
  8  9  1  0  0  0  0
  8 11  1  6  0  0  0
  8 27  1  0  0  0  0
  9 10  1  0  0  0  0
  9 28  1  0  0  0  0
  9 29  1  0  0  0  0
 10 12  1  0  0  0  0
 10 30  1  0  0  0  0
 10 31  1  0  0  0  0
 11 32  1  0  0  0  0
 11 33  1  0  0  0  0
 12 13  2  0  0  0  0
 12 14  1  0  0  0  0
 13 15  1  0  0  0  0
 14 17  2  0  0  0  0
 14 35  1  0  0  0  0
 15 18  2  0  0  0  0
 15 36  1  0  0  0  0
 16 19  1  0  0  0  0
 16 37  1  0  0  0  0
 16 38  1  0  0  0  0
 17 18  1  0  0  0  0
 17 39  1  0  0  0  0
 19 20  2  0  0  0  0
 19 21  1  0  0  0  0
 20 22  1  0  0  0  0
 20 40  1  0  0  0  0
 21 23  2  0  0  0  0
 21 41  1  0  0  0  0
 22 24  2  0  0  0  0
 22 43  1  0  0  0  0
 23 24  1  0  0  0  0
 23 44  1  0  0  0  0
 24 45  1  0  0  0  0
 25 26  1  0  0  0  0
M  END
> <PUBCHEM_COMPOUND_CID>
44356251

> <PUBCHEM_COMPOUND_CANONICALIZED>
1

> <PUBCHEM_CACTVS_COMPLEXITY>
362

> <PUBCHEM_CACTVS_HBOND_ACCEPTOR>
7

> <PUBCHEM_CACTVS_HBOND_DONOR>
4

> <PUBCHEM_CACTVS_ROTATABLE_BOND>
5

> <PUBCHEM_CACTVS_SUBSKEYS>
AAADceB6OAAAAAAAAAAAAAAAAAAAAAAAAAA0YIAAAAAAAACRQAAAHgAQCAAADBThmAYwDoLABgCIAiDSCAKCCAAgIAAIiIBODIgPJyKGsRuHeCjl0BWZuAeQ4KwOIAAACAAIAABAAAAQABAAAAAAAAAAAA==

> <PUBCHEM_IUPAC_OPENEYE_NAME>
(2R)-2-[(benzylamino)methyl]chroman-7-ol;oxalic acid

> <PUBCHEM_IUPAC_CAS_NAME>
oxalic acid;(2R)-2-[[(phenylmethyl)amino]methyl]-3,4-dihydro-2H-1-benzopyran-7-ol

> <PUBCHEM_IUPAC_NAME_MARKUP>
(2<I>R</I>)-2-[(benzylamino)methyl]-3,4-dihydro-2<I>H</I>-chromen-7-ol;oxalic acid

> <PUBCHEM_IUPAC_NAME>
(2R)-2-[(benzylamino)methyl]-3,4-dihydro-2H-chromen-7-ol;oxalic acid

> <PUBCHEM_IUPAC_SYSTEMATIC_NAME>
ethanedioic acid;(2R)-2-[[(phenylmethyl)amino]methyl]-3,4-dihydro-2H-chromen-7-ol

> <PUBCHEM_IUPAC_TRADITIONAL_NAME>
(2R)-2-[(benzylamino)methyl]chroman-7-ol;oxalic acid

> <PUBCHEM_IUPAC_INCHI>
InChI=1S/C17H19NO2.C2H2O4/c19-15-8-6-14-7-9-16(20-17(14)10-15)12-18-11-13-4-2-1-3-5-13;3-1(4)2(5)6/h1-6,8,10,16,18-19H,7,9,11-12H2;(H,3,4)(H,5,6)/t16-;/m1./s1

> <PUBCHEM_IUPAC_INCHIKEY>
USCDQJSWUSGRCX-PKLMIRHRSA-N

> <PUBCHEM_EXACT_MASS>
359.13688739

> <PUBCHEM_MOLECULAR_FORMULA>
C19H21NO6

> <PUBCHEM_MOLECULAR_WEIGHT>
359.4

> <PUBCHEM_OPENEYE_CAN_SMILES>
C1CC2=C(C=C(C=C2)O)OC1CNCC3=CC=CC=C3.C(=O)(C(=O)O)O

> <PUBCHEM_OPENEYE_ISO_SMILES>
C1CC2=C(C=C(C=C2)O)O[C@H]1CNCC3=CC=CC=C3.C(=O)(C(=O)O)O

> <PUBCHEM_CACTVS_TPSA>
116

> <PUBCHEM_MONOISOTOPIC_WEIGHT>
359.13688739

> <PUBCHEM_TOTAL_CHARGE>
0

> <PUBCHEM_HEAVY_ATOM_COUNT>
26

> <PUBCHEM_ATOM_DEF_STEREO_COUNT>
1

> <PUBCHEM_ATOM_UDEF_STEREO_COUNT>
0

> <PUBCHEM_BOND_DEF_STEREO_COUNT>
0

> <PUBCHEM_BOND_UDEF_STEREO_COUNT>
0

> <PUBCHEM_ISOTOPIC_ATOM_COUNT>
0

> <PUBCHEM_COMPONENT_COUNT>
2

> <PUBCHEM_CACTVS_TAUTO_COUNT>
-1

> <PUBCHEM_COORDINATE_TYPE>
1
5
255

> <PUBCHEM_BONDANNOTATIONS>
12  13  8
12  14  8
13  15  8
14  17  8
15  18  8
17  18  8
19  20  8
19  21  8
20  22  8
21  23  8
22  24  8
23  24  8
8  11  6

$$$$
