44561317
  -OEChem-09292322232D

 44 46  0     1  0  0  0  0  0999 V2000
    2.0024   -2.7125    0.0000 O   0  0  0  0  0  0  0  0  0  0  0  0
    4.6544    1.8326    0.0000 N   0  0  3  0  0  0  0  0  0  0  0  0
    4.6544    0.8326    0.0000 C   0  0  0  0  0  0  0  0  0  0  0  0
    5.5204    2.3326    0.0000 C   0  0  0  0  0  0  0  0  0  0  0  0
    3.7884    0.3326    0.0000 C   0  0  0  0  0  0  0  0  0  0  0  0
    6.3864    1.8326    0.0000 C   0  0  0  0  0  0  0  0  0  0  0  0
    3.7884   -0.6674    0.0000 C   0  0  0  0  0  0  0  0  0  0  0  0
    6.3864    0.8326    0.0000 C   0  0  0  0  0  0  0  0  0  0  0  0
    5.5204   -0.6674    0.0000 C   0  0  0  0  0  0  0  0  0  0  0  0
    4.6544   -1.1675    0.0000 C   0  0  0  0  0  0  0  0  0  0  0  0
    5.5204    0.3326    0.0000 C   0  0  0  0  0  0  0  0  0  0  0  0
    3.7884    2.3326    0.0000 C   0  0  0  0  0  0  0  0  0  0  0  0
    2.8784   -1.1743    0.0000 C   0  0  0  0  0  0  0  0  0  0  0  0
    7.7978    0.2554    0.0000 C   0  0  0  0  0  0  0  0  0  0  0  0
    4.6704   -2.2090    0.0000 C   0  0  0  0  0  0  0  0  0  0  0  0
    5.3146   -1.1782    0.0000 C   0  0  0  0  0  0  0  0  0  0  0  0
    3.7884    3.3326    0.0000 C   0  0  0  0  0  0  0  0  0  0  0  0
    2.8703   -2.2159    0.0000 C   0  0  0  0  0  0  0  0  0  0  0  0
    3.7724   -2.7367    0.0000 C   0  0  0  0  0  0  0  0  0  0  0  0
    7.9009   -1.2658    0.0000 C   0  0  0  0  0  0  0  0  0  0  0  0
    6.5804   -2.0282    0.0000 C   0  0  0  0  0  0  0  0  0  0  0  0
    4.8665    0.2499    0.0000 H   0  0  0  0  0  0  0  0  0  0  0  0
    5.2650    0.9402    0.0000 H   0  0  0  0  0  0  0  0  0  0  0  0
    5.9190    2.8075    0.0000 H   0  0  0  0  0  0  0  0  0  0  0  0
    5.1219    2.8075    0.0000 H   0  0  0  0  0  0  0  0  0  0  0  0
    3.5763    0.9152    0.0000 H   0  0  0  0  0  0  0  0  0  0  0  0
    3.1778    0.2249    0.0000 H   0  0  0  0  0  0  0  0  0  0  0  0
    6.9970    1.7249    0.0000 H   0  0  0  0  0  0  0  0  0  0  0  0
    6.5985    2.4152    0.0000 H   0  0  0  0  0  0  0  0  0  0  0  0
    5.7325   -1.2501    0.0000 H   0  0  0  0  0  0  0  0  0  0  0  0
    6.1310   -0.5598    0.0000 H   0  0  0  0  0  0  0  0  0  0  0  0
    3.1778    2.4402    0.0000 H   0  0  0  0  0  0  0  0  0  0  0  0
    3.5763    1.7499    0.0000 H   0  0  0  0  0  0  0  0  0  0  0  0
    2.3450   -0.8581    0.0000 H   0  0  0  0  0  0  0  0  0  0  0  0
    8.3005    0.6183    0.0000 H   0  0  0  0  0  0  0  0  0  0  0  0
    5.2109   -2.5127    0.0000 H   0  0  0  0  0  0  0  0  0  0  0  0
    4.7490   -1.4322    0.0000 H   0  0  0  0  0  0  0  0  0  0  0  0
    4.4084    3.3326    0.0000 H   0  0  0  0  0  0  0  0  0  0  0  0
    3.7884    3.9526    0.0000 H   0  0  0  0  0  0  0  0  0  0  0  0
    3.1684    3.3326    0.0000 H   0  0  0  0  0  0  0  0  0  0  0  0
    3.7748   -3.3567    0.0000 H   0  0  0  0  0  0  0  0  0  0  0  0
    8.4480   -1.5575    0.0000 H   0  0  0  0  0  0  0  0  0  0  0  0
    6.5594   -2.6479    0.0000 H   0  0  0  0  0  0  0  0  0  0  0  0
    2.0000   -3.3326    0.0000 H   0  0  0  0  0  0  0  0  0  0  0  0
  1 18  1  0  0  0  0
  1 44  1  0  0  0  0
  2  3  1  0  0  0  0
  2  4  1  0  0  0  0
  2 12  1  0  0  0  0
  3  5  1  0  0  0  0
  3 22  1  0  0  0  0
  3 23  1  0  0  0  0
  4  6  1  0  0  0  0
  4 24  1  0  0  0  0
  4 25  1  0  0  0  0
  5  7  1  0  0  0  0
  5 26  1  0  0  0  0
  5 27  1  0  0  0  0
  6  8  1  0  0  0  0
  6 28  1  0  0  0  0
  6 29  1  0  0  0  0
  7 10  2  0  0  0  0
  7 13  1  0  0  0  0
  8 11  1  0  0  0  0
  8 14  2  0  0  0  0
  9 10  1  0  0  0  0
  9 11  1  0  0  0  0
  9 30  1  0  0  0  0
  9 31  1  0  0  0  0
 10 15  1  0  0  0  0
 11 16  2  0  0  0  0
 12 17  1  0  0  0  0
 12 32  1  0  0  0  0
 12 33  1  0  0  0  0
 13 18  2  0  0  0  0
 13 34  1  0  0  0  0
 14 20  1  0  0  0  0
 14 35  1  0  0  0  0
 15 19  2  0  0  0  0
 15 36  1  0  0  0  0
 16 21  1  0  0  0  0
 16 37  1  0  0  0  0
 17 38  1  0  0  0  0
 17 39  1  0  0  0  0
 17 40  1  0  0  0  0
 18 19  1  0  0  0  0
 19 41  1  0  0  0  0
 20 21  2  0  0  0  0
 20 42  1  0  0  0  0
 21 43  1  0  0  0  0
M  END
> <PUBCHEM_COMPOUND_CID>
44561317

> <PUBCHEM_COMPOUND_CANONICALIZED>
1

> <PUBCHEM_CACTVS_COMPLEXITY>
319

> <PUBCHEM_CACTVS_HBOND_ACCEPTOR>
2

> <PUBCHEM_CACTVS_HBOND_DONOR>
1

> <PUBCHEM_CACTVS_ROTATABLE_BOND>
1

> <PUBCHEM_CACTVS_SUBSKEYS>
AAADceB6IAAAAAAAAAAAAAAAAAAAAAAAAAAwYAAAAAAAAACxQAAAHgAACAAADATBmAQyBoMAAgCAAiBCAAACAAAgIAAIiAAOCIgIJiKCkROEcAAkwBGImAeQ0PIOoAABAAAQAABAAAIAACAAAAAAAAAAAA==

> <PUBCHEM_IUPAC_OPENEYE_NAME>
11-ethyl-11-azatricyclo[12.4.0.03,8]octadeca-1(18),3(8),4,6,14,16-hexaen-6-ol

> <PUBCHEM_IUPAC_CAS_NAME>
11-ethyl-11-azatricyclo[12.4.0.03,8]octadeca-1(18),3(8),4,6,14,16-hexaen-6-ol

> <PUBCHEM_IUPAC_NAME_MARKUP>
11-ethyl-11-azatricyclo[12.4.0.0<SUP>3,8</SUP>]octadeca-1(18),3(8),4,6,14,16-hexaen-6-ol

> <PUBCHEM_IUPAC_NAME>
11-ethyl-11-azatricyclo[12.4.0.03,8]octadeca-1(18),3(8),4,6,14,16-hexaen-6-ol

> <PUBCHEM_IUPAC_SYSTEMATIC_NAME>
11-ethyl-11-azatricyclo[12.4.0.03,8]octadeca-1(18),3(8),4,6,14,16-hexaen-6-ol

> <PUBCHEM_IUPAC_TRADITIONAL_NAME>
11-ethyl-11-azatricyclo[12.4.0.03,8]octadeca-1(18),3(8),4,6,14,16-hexaen-6-ol

> <PUBCHEM_IUPAC_INCHI>
InChI=1S/C19H23NO/c1-2-20-11-9-15-5-3-4-6-16(15)13-17-7-8-19(21)14-18(17)10-12-20/h3-8,14,21H,2,9-13H2,1H3

> <PUBCHEM_IUPAC_INCHIKEY>
JRBGFUMWOKMSLK-UHFFFAOYSA-N

> <PUBCHEM_XLOGP3_AA>
4.2

> <PUBCHEM_EXACT_MASS>
281.177964357

> <PUBCHEM_MOLECULAR_FORMULA>
C19H23NO

> <PUBCHEM_MOLECULAR_WEIGHT>
281.4

> <PUBCHEM_OPENEYE_CAN_SMILES>
CCN1CCC2=CC=CC=C2CC3=C(CC1)C=C(C=C3)O

> <PUBCHEM_OPENEYE_ISO_SMILES>
CCN1CCC2=CC=CC=C2CC3=C(CC1)C=C(C=C3)O

> <PUBCHEM_CACTVS_TPSA>
23.5

> <PUBCHEM_MONOISOTOPIC_WEIGHT>
281.177964357

> <PUBCHEM_TOTAL_CHARGE>
0

> <PUBCHEM_HEAVY_ATOM_COUNT>
21

> <PUBCHEM_ATOM_DEF_STEREO_COUNT>
0

> <PUBCHEM_ATOM_UDEF_STEREO_COUNT>
0

> <PUBCHEM_BOND_DEF_STEREO_COUNT>
0

> <PUBCHEM_BOND_UDEF_STEREO_COUNT>
0

> <PUBCHEM_ISOTOPIC_ATOM_COUNT>
0

> <PUBCHEM_COMPONENT_COUNT>
1

> <PUBCHEM_CACTVS_TAUTO_COUNT>
-1

> <PUBCHEM_COORDINATE_TYPE>
1
5
255

> <PUBCHEM_BONDANNOTATIONS>
10  15  8
11  16  8
13  18  8
14  20  8
15  19  8
16  21  8
18  19  8
20  21  8
7  10  8
7  13  8
8  11  8
8  14  8

$$$$
