118709171
  -OEChem-09292322352D

160165  0     0  0  0  0  0  0999 V2000
    2.5981    2.1651    0.0000 Cl  0  0  0  0  0  0  0  0  0  0  0  0
   25.0981   -2.1651    0.0000 Cl  0  0  0  0  0  0  0  0  0  0  0  0
    2.8660   14.6292    0.0000 F   0  0  0  0  0  0  0  0  0  0  0  0
   21.3660  -14.6292    0.0000 F   0  0  0  0  0  0  0  0  0  0  0  0
    5.0981    4.7631    0.0000 O   0  0  0  0  0  0  0  0  0  0  0  0
   22.5981   -4.7631    0.0000 O   0  0  0  0  0  0  0  0  0  0  0  0
    6.5981    5.6292    0.0000 O   0  0  0  0  0  0  0  0  0  0  0  0
   21.0981   -5.6292    0.0000 O   0  0  0  0  0  0  0  0  0  0  0  0
    2.0000   10.1292    0.0000 O   0  0  0  0  0  0  0  0  0  0  0  0
   20.5000  -10.1292    0.0000 O   0  0  0  0  0  0  0  0  0  0  0  0
    4.5981    7.6292    0.0000 N   0  0  0  0  0  0  0  0  0  0  0  0
   23.0981   -7.6292    0.0000 N   0  0  0  0  0  0  0  0  0  0  0  0
    4.5981    5.6292    0.0000 C   0  0  0  0  0  0  0  0  0  0  0  0
   23.0981   -5.6292    0.0000 C   0  0  0  0  0  0  0  0  0  0  0  0
    3.7320    6.1292    0.0000 C   0  0  0  0  0  0  0  0  0  0  0  0
    5.4641    6.1292    0.0000 C   0  0  0  0  0  0  0  0  0  0  0  0
   23.9641   -6.1292    0.0000 C   0  0  0  0  0  0  0  0  0  0  0  0
   22.2320   -6.1292    0.0000 C   0  0  0  0  0  0  0  0  0  0  0  0
    3.7320    7.1292    0.0000 C   0  0  0  0  0  0  0  0  0  0  0  0
    5.4641    7.1292    0.0000 C   0  0  0  0  0  0  0  0  0  0  0  0
   23.9641   -7.1292    0.0000 C   0  0  0  0  0  0  0  0  0  0  0  0
   22.2320   -7.1292    0.0000 C   0  0  0  0  0  0  0  0  0  0  0  0
    4.0981    4.7631    0.0000 C   0  0  0  0  0  0  0  0  0  0  0  0
   23.5981   -4.7631    0.0000 C   0  0  0  0  0  0  0  0  0  0  0  0
    4.5981    8.6292    0.0000 C   0  0  0  0  0  0  0  0  0  0  0  0
   23.0981   -8.6292    0.0000 C   0  0  0  0  0  0  0  0  0  0  0  0
    3.7320    9.1292    0.0000 C   0  0  0  0  0  0  0  0  0  0  0  0
   22.2320   -9.1292    0.0000 C   0  0  0  0  0  0  0  0  0  0  0  0
    4.5981    3.8971    0.0000 C   0  0  0  0  0  0  0  0  0  0  0  0
   23.0981   -3.8971    0.0000 C   0  0  0  0  0  0  0  0  0  0  0  0
    3.0981    4.7631    0.0000 C   0  0  0  0  0  0  0  0  0  0  0  0
   24.5981   -4.7631    0.0000 C   0  0  0  0  0  0  0  0  0  0  0  0
    6.0981    4.7631    0.0000 C   0  0  0  0  0  0  0  0  0  0  0  0
   21.5981   -4.7631    0.0000 C   0  0  0  0  0  0  0  0  0  0  0  0
    3.7320   10.1292    0.0000 C   0  0  0  0  0  0  0  0  0  0  0  0
   22.2320  -10.1292    0.0000 C   0  0  0  0  0  0  0  0  0  0  0  0
    6.5981    3.8971    0.0000 C   0  0  0  0  0  0  0  0  0  0  0  0
   21.0981   -3.8971    0.0000 C   0  0  0  0  0  0  0  0  0  0  0  0
    4.0981    3.0311    0.0000 C   0  0  0  0  0  0  0  0  0  0  0  0
   23.5981   -3.0311    0.0000 C   0  0  0  0  0  0  0  0  0  0  0  0
    2.5981    3.8971    0.0000 C   0  0  0  0  0  0  0  0  0  0  0  0
   25.0981   -3.8971    0.0000 C   0  0  0  0  0  0  0  0  0  0  0  0
    7.5981    3.8971    0.0000 C   0  0  0  0  0  0  0  0  0  0  0  0
   20.0981   -3.8971    0.0000 C   0  0  0  0  0  0  0  0  0  0  0  0
    3.0981    3.0311    0.0000 C   0  0  0  0  0  0  0  0  0  0  0  0
   24.5981   -3.0311    0.0000 C   0  0  0  0  0  0  0  0  0  0  0  0
    8.0981    3.0311    0.0000 C   0  0  0  0  0  0  0  0  0  0  0  0
   19.5981   -3.0311    0.0000 C   0  0  0  0  0  0  0  0  0  0  0  0
    2.8660   10.6292    0.0000 C   0  0  0  0  0  0  0  0  0  0  0  0
   21.3660  -10.6292    0.0000 C   0  0  0  0  0  0  0  0  0  0  0  0
    9.0981    3.0311    0.0000 C   0  0  0  0  0  0  0  0  0  0  0  0
   18.5981   -3.0311    0.0000 C   0  0  0  0  0  0  0  0  0  0  0  0
    9.5981    2.1651    0.0000 C   0  0  0  0  0  0  0  0  0  0  0  0
   18.0981   -2.1651    0.0000 C   0  0  0  0  0  0  0  0  0  0  0  0
   10.5981    2.1651    0.0000 C   0  0  0  0  0  0  0  0  0  0  0  0
   17.0981   -2.1651    0.0000 C   0  0  0  0  0  0  0  0  0  0  0  0
    2.8660   11.6292    0.0000 C   0  0  0  0  0  0  0  0  0  0  0  0
   21.3660  -11.6292    0.0000 C   0  0  0  0  0  0  0  0  0  0  0  0
   11.0981    1.2990    0.0000 C   0  0  0  0  0  0  0  0  0  0  0  0
   16.5981   -1.2990    0.0000 C   0  0  0  0  0  0  0  0  0  0  0  0
   12.0981    1.2990    0.0000 C   0  0  0  0  0  0  0  0  0  0  0  0
   15.5981   -1.2990    0.0000 C   0  0  0  0  0  0  0  0  0  0  0  0
   12.5981    0.4330    0.0000 C   0  0  0  0  0  0  0  0  0  0  0  0
   15.0981   -0.4330    0.0000 C   0  0  0  0  0  0  0  0  0  0  0  0
   13.5981    0.4330    0.0000 C   0  0  0  0  0  0  0  0  0  0  0  0
   14.0981   -0.4330    0.0000 C   0  0  0  0  0  0  0  0  0  0  0  0
    3.7320   12.1292    0.0000 C   0  0  0  0  0  0  0  0  0  0  0  0
   22.2320  -12.1292    0.0000 C   0  0  0  0  0  0  0  0  0  0  0  0
    2.0000   12.1292    0.0000 C   0  0  0  0  0  0  0  0  0  0  0  0
   20.5000  -12.1292    0.0000 C   0  0  0  0  0  0  0  0  0  0  0  0
    3.7320   13.1292    0.0000 C   0  0  0  0  0  0  0  0  0  0  0  0
   22.2320  -13.1292    0.0000 C   0  0  0  0  0  0  0  0  0  0  0  0
    2.0000   13.1292    0.0000 C   0  0  0  0  0  0  0  0  0  0  0  0
   20.5000  -13.1292    0.0000 C   0  0  0  0  0  0  0  0  0  0  0  0
    2.8660   13.6292    0.0000 C   0  0  0  0  0  0  0  0  0  0  0  0
   21.3660  -13.6292    0.0000 C   0  0  0  0  0  0  0  0  0  0  0  0
    3.1215    6.2368    0.0000 H   0  0  0  0  0  0  0  0  0  0  0  0
    3.5200    5.5466    0.0000 H   0  0  0  0  0  0  0  0  0  0  0  0
    5.6762    5.5466    0.0000 H   0  0  0  0  0  0  0  0  0  0  0  0
    6.0747    6.2368    0.0000 H   0  0  0  0  0  0  0  0  0  0  0  0
   24.5747   -6.2368    0.0000 H   0  0  0  0  0  0  0  0  0  0  0  0
   24.1762   -5.5466    0.0000 H   0  0  0  0  0  0  0  0  0  0  0  0
   22.0200   -5.5466    0.0000 H   0  0  0  0  0  0  0  0  0  0  0  0
   21.6215   -6.2368    0.0000 H   0  0  0  0  0  0  0  0  0  0  0  0
    3.5200    7.7118    0.0000 H   0  0  0  0  0  0  0  0  0  0  0  0
    3.1215    7.0215    0.0000 H   0  0  0  0  0  0  0  0  0  0  0  0
    6.0747    7.0215    0.0000 H   0  0  0  0  0  0  0  0  0  0  0  0
    5.6762    7.7118    0.0000 H   0  0  0  0  0  0  0  0  0  0  0  0
   24.1762   -7.7118    0.0000 H   0  0  0  0  0  0  0  0  0  0  0  0
   24.5747   -7.0215    0.0000 H   0  0  0  0  0  0  0  0  0  0  0  0
   21.6215   -7.0215    0.0000 H   0  0  0  0  0  0  0  0  0  0  0  0
   22.0200   -7.7118    0.0000 H   0  0  0  0  0  0  0  0  0  0  0  0
    5.2087    8.5215    0.0000 H   0  0  0  0  0  0  0  0  0  0  0  0
    4.8101    9.2118    0.0000 H   0  0  0  0  0  0  0  0  0  0  0  0
   23.3101   -9.2118    0.0000 H   0  0  0  0  0  0  0  0  0  0  0  0
   23.7087   -8.5215    0.0000 H   0  0  0  0  0  0  0  0  0  0  0  0
    3.1215    9.2368    0.0000 H   0  0  0  0  0  0  0  0  0  0  0  0
    3.5200    8.5466    0.0000 H   0  0  0  0  0  0  0  0  0  0  0  0
   22.0200   -8.5466    0.0000 H   0  0  0  0  0  0  0  0  0  0  0  0
   21.6215   -9.2368    0.0000 H   0  0  0  0  0  0  0  0  0  0  0  0
    5.2181    3.8971    0.0000 H   0  0  0  0  0  0  0  0  0  0  0  0
   22.4781   -3.8971    0.0000 H   0  0  0  0  0  0  0  0  0  0  0  0
    2.7881    5.3001    0.0000 H   0  0  0  0  0  0  0  0  0  0  0  0
   24.9081   -5.3001    0.0000 H   0  0  0  0  0  0  0  0  0  0  0  0
    4.3426   10.0215    0.0000 H   0  0  0  0  0  0  0  0  0  0  0  0
    3.9441   10.7118    0.0000 H   0  0  0  0  0  0  0  0  0  0  0  0
   22.4441  -10.7118    0.0000 H   0  0  0  0  0  0  0  0  0  0  0  0
   22.8426  -10.0215    0.0000 H   0  0  0  0  0  0  0  0  0  0  0  0
    6.0155    3.6851    0.0000 H   0  0  0  0  0  0  0  0  0  0  0  0
    6.7057    3.2865    0.0000 H   0  0  0  0  0  0  0  0  0  0  0  0
   21.6807   -3.6851    0.0000 H   0  0  0  0  0  0  0  0  0  0  0  0
   20.9904   -3.2865    0.0000 H   0  0  0  0  0  0  0  0  0  0  0  0
    4.4081    2.4942    0.0000 H   0  0  0  0  0  0  0  0  0  0  0  0
   23.2881   -2.4942    0.0000 H   0  0  0  0  0  0  0  0  0  0  0  0
    1.9781    3.8971    0.0000 H   0  0  0  0  0  0  0  0  0  0  0  0
   25.7181   -3.8971    0.0000 H   0  0  0  0  0  0  0  0  0  0  0  0
    8.1807    4.1092    0.0000 H   0  0  0  0  0  0  0  0  0  0  0  0
    7.4904    4.5077    0.0000 H   0  0  0  0  0  0  0  0  0  0  0  0
   19.5155   -4.1092    0.0000 H   0  0  0  0  0  0  0  0  0  0  0  0
   20.2057   -4.5077    0.0000 H   0  0  0  0  0  0  0  0  0  0  0  0
    7.5155    2.8190    0.0000 H   0  0  0  0  0  0  0  0  0  0  0  0
    8.2057    2.4205    0.0000 H   0  0  0  0  0  0  0  0  0  0  0  0
   20.1807   -2.8190    0.0000 H   0  0  0  0  0  0  0  0  0  0  0  0
   19.4904   -2.4205    0.0000 H   0  0  0  0  0  0  0  0  0  0  0  0
    9.6807    3.2431    0.0000 H   0  0  0  0  0  0  0  0  0  0  0  0
    8.9904    3.6417    0.0000 H   0  0  0  0  0  0  0  0  0  0  0  0
   18.0155   -3.2431    0.0000 H   0  0  0  0  0  0  0  0  0  0  0  0
   18.7057   -3.6417    0.0000 H   0  0  0  0  0  0  0  0  0  0  0  0
    9.0155    1.9530    0.0000 H   0  0  0  0  0  0  0  0  0  0  0  0
    9.7057    1.5545    0.0000 H   0  0  0  0  0  0  0  0  0  0  0  0
   18.6807   -1.9530    0.0000 H   0  0  0  0  0  0  0  0  0  0  0  0
   17.9904   -1.5545    0.0000 H   0  0  0  0  0  0  0  0  0  0  0  0
   11.1807    2.3771    0.0000 H   0  0  0  0  0  0  0  0  0  0  0  0
   10.4904    2.7756    0.0000 H   0  0  0  0  0  0  0  0  0  0  0  0
   16.5155   -2.3771    0.0000 H   0  0  0  0  0  0  0  0  0  0  0  0
   17.2057   -2.7756    0.0000 H   0  0  0  0  0  0  0  0  0  0  0  0
   10.5155    1.0870    0.0000 H   0  0  0  0  0  0  0  0  0  0  0  0
   11.2057    0.6885    0.0000 H   0  0  0  0  0  0  0  0  0  0  0  0
   17.1807   -1.0870    0.0000 H   0  0  0  0  0  0  0  0  0  0  0  0
   16.4904   -0.6885    0.0000 H   0  0  0  0  0  0  0  0  0  0  0  0
   12.6807    1.5111    0.0000 H   0  0  0  0  0  0  0  0  0  0  0  0
   11.9904    1.9096    0.0000 H   0  0  0  0  0  0  0  0  0  0  0  0
   15.0155   -1.5111    0.0000 H   0  0  0  0  0  0  0  0  0  0  0  0
   15.7057   -1.9096    0.0000 H   0  0  0  0  0  0  0  0  0  0  0  0
   12.0155    0.2210    0.0000 H   0  0  0  0  0  0  0  0  0  0  0  0
   12.7057   -0.1776    0.0000 H   0  0  0  0  0  0  0  0  0  0  0  0
   15.6807   -0.2210    0.0000 H   0  0  0  0  0  0  0  0  0  0  0  0
   14.9904    0.1776    0.0000 H   0  0  0  0  0  0  0  0  0  0  0  0
   14.1807    0.6451    0.0000 H   0  0  0  0  0  0  0  0  0  0  0  0
   13.4904    1.0436    0.0000 H   0  0  0  0  0  0  0  0  0  0  0  0
   13.5155   -0.6451    0.0000 H   0  0  0  0  0  0  0  0  0  0  0  0
   14.2057   -1.0436    0.0000 H   0  0  0  0  0  0  0  0  0  0  0  0
    4.2690   11.8192    0.0000 H   0  0  0  0  0  0  0  0  0  0  0  0
   22.7690  -11.8192    0.0000 H   0  0  0  0  0  0  0  0  0  0  0  0
    1.4631   11.8192    0.0000 H   0  0  0  0  0  0  0  0  0  0  0  0
   19.9631  -11.8192    0.0000 H   0  0  0  0  0  0  0  0  0  0  0  0
    4.2690   13.4392    0.0000 H   0  0  0  0  0  0  0  0  0  0  0  0
   22.7690  -13.4392    0.0000 H   0  0  0  0  0  0  0  0  0  0  0  0
    1.4631   13.4392    0.0000 H   0  0  0  0  0  0  0  0  0  0  0  0
   19.9631  -13.4392    0.0000 H   0  0  0  0  0  0  0  0  0  0  0  0
  1 45  1  0  0  0  0
  2 46  1  0  0  0  0
  3 75  1  0  0  0  0
  4 76  1  0  0  0  0
  5 13  1  0  0  0  0
  5 33  1  0  0  0  0
  6 14  1  0  0  0  0
  6 34  1  0  0  0  0
  7 33  2  0  0  0  0
  8 34  2  0  0  0  0
  9 49  2  0  0  0  0
 10 50  2  0  0  0  0
 11 19  1  0  0  0  0
 11 20  1  0  0  0  0
 11 25  1  0  0  0  0
 12 21  1  0  0  0  0
 12 22  1  0  0  0  0
 12 26  1  0  0  0  0
 13 15  1  0  0  0  0
 13 16  1  0  0  0  0
 13 23  1  0  0  0  0
 14 17  1  0  0  0  0
 14 18  1  0  0  0  0
 14 24  1  0  0  0  0
 15 19  1  0  0  0  0
 15 77  1  0  0  0  0
 15 78  1  0  0  0  0
 16 20  1  0  0  0  0
 16 79  1  0  0  0  0
 16 80  1  0  0  0  0
 17 21  1  0  0  0  0
 17 81  1  0  0  0  0
 17 82  1  0  0  0  0
 18 22  1  0  0  0  0
 18 83  1  0  0  0  0
 18 84  1  0  0  0  0
 19 85  1  0  0  0  0
 19 86  1  0  0  0  0
 20 87  1  0  0  0  0
 20 88  1  0  0  0  0
 21 89  1  0  0  0  0
 21 90  1  0  0  0  0
 22 91  1  0  0  0  0
 22 92  1  0  0  0  0
 23 29  2  0  0  0  0
 23 31  1  0  0  0  0
 24 30  2  0  0  0  0
 24 32  1  0  0  0  0
 25 27  1  0  0  0  0
 25 93  1  0  0  0  0
 25 94  1  0  0  0  0
 26 28  1  0  0  0  0
 26 95  1  0  0  0  0
 26 96  1  0  0  0  0
 27 35  1  0  0  0  0
 27 97  1  0  0  0  0
 27 98  1  0  0  0  0
 28 36  1  0  0  0  0
 28 99  1  0  0  0  0
 28100  1  0  0  0  0
 29 39  1  0  0  0  0
 29101  1  0  0  0  0
 30 40  1  0  0  0  0
 30102  1  0  0  0  0
 31 41  2  0  0  0  0
 31103  1  0  0  0  0
 32 42  2  0  0  0  0
 32104  1  0  0  0  0
 33 37  1  0  0  0  0
 34 38  1  0  0  0  0
 35 49  1  0  0  0  0
 35105  1  0  0  0  0
 35106  1  0  0  0  0
 36 50  1  0  0  0  0
 36107  1  0  0  0  0
 36108  1  0  0  0  0
 37 43  1  0  0  0  0
 37109  1  0  0  0  0
 37110  1  0  0  0  0
 38 44  1  0  0  0  0
 38111  1  0  0  0  0
 38112  1  0  0  0  0
 39 45  2  0  0  0  0
 39113  1  0  0  0  0
 40 46  2  0  0  0  0
 40114  1  0  0  0  0
 41 45  1  0  0  0  0
 41115  1  0  0  0  0
 42 46  1  0  0  0  0
 42116  1  0  0  0  0
 43 47  1  0  0  0  0
 43117  1  0  0  0  0
 43118  1  0  0  0  0
 44 48  1  0  0  0  0
 44119  1  0  0  0  0
 44120  1  0  0  0  0
 47 51  1  0  0  0  0
 47121  1  0  0  0  0
 47122  1  0  0  0  0
 48 52  1  0  0  0  0
 48123  1  0  0  0  0
 48124  1  0  0  0  0
 49 57  1  0  0  0  0
 50 58  1  0  0  0  0
 51 53  1  0  0  0  0
 51125  1  0  0  0  0
 51126  1  0  0  0  0
 52 54  1  0  0  0  0
 52127  1  0  0  0  0
 52128  1  0  0  0  0
 53 55  1  0  0  0  0
 53129  1  0  0  0  0
 53130  1  0  0  0  0
 54 56  1  0  0  0  0
 54131  1  0  0  0  0
 54132  1  0  0  0  0
 55 59  1  0  0  0  0
 55133  1  0  0  0  0
 55134  1  0  0  0  0
 56 60  1  0  0  0  0
 56135  1  0  0  0  0
 56136  1  0  0  0  0
 57 67  2  0  0  0  0
 57 69  1  0  0  0  0
 58 68  2  0  0  0  0
 58 70  1  0  0  0  0
 59 61  1  0  0  0  0
 59137  1  0  0  0  0
 59138  1  0  0  0  0
 60 62  1  0  0  0  0
 60139  1  0  0  0  0
 60140  1  0  0  0  0
 61 63  1  0  0  0  0
 61141  1  0  0  0  0
 61142  1  0  0  0  0
 62 64  1  0  0  0  0
 62143  1  0  0  0  0
 62144  1  0  0  0  0
 63 65  1  0  0  0  0
 63145  1  0  0  0  0
 63146  1  0  0  0  0
 64 66  1  0  0  0  0
 64147  1  0  0  0  0
 64148  1  0  0  0  0
 65 66  1  0  0  0  0
 65149  1  0  0  0  0
 65150  1  0  0  0  0
 66151  1  0  0  0  0
 66152  1  0  0  0  0
 67 71  1  0  0  0  0
 67153  1  0  0  0  0
 68 72  1  0  0  0  0
 68154  1  0  0  0  0
 69 73  2  0  0  0  0
 69155  1  0  0  0  0
 70 74  2  0  0  0  0
 70156  1  0  0  0  0
 71 75  2  0  0  0  0
 71157  1  0  0  0  0
 72 76  2  0  0  0  0
 72158  1  0  0  0  0
 73 75  1  0  0  0  0
 73159  1  0  0  0  0
 74 76  1  0  0  0  0
 74160  1  0  0  0  0
M  END
> <PUBCHEM_COMPOUND_CID>
118709171

> <PUBCHEM_COMPOUND_CANONICALIZED>
1

> <PUBCHEM_CACTVS_COMPLEXITY>
1510

> <PUBCHEM_CACTVS_HBOND_ACCEPTOR>
10

> <PUBCHEM_CACTVS_HBOND_DONOR>
0

> <PUBCHEM_CACTVS_ROTATABLE_BOND>
37

> <PUBCHEM_CACTVS_SUBSKEYS>
AAADcfB/OYAGAAAAAAAAAAAAAAAAAAAAAAA8eMGCAAAAAAABVAAAHwIAAAAADEbBmCwwCIMABACIAqDSCAACAAAkBQAIiAEICsgIJjKBtxiGMQAmwAGIqYecyOCOhAAAAAAAAAAIAAAAAAAAAAAAAAAAAA==

> <PUBCHEM_IUPAC_OPENEYE_NAME>
bis[4-(4-chlorophenyl)-1-[4-(4-fluorophenyl)-4-oxo-butyl]-4-piperidyl] docosanedioate

> <PUBCHEM_IUPAC_CAS_NAME>
docosanedioic acid bis[4-(4-chlorophenyl)-1-[4-(4-fluorophenyl)-4-oxobutyl]-4-piperidinyl] ester

> <PUBCHEM_IUPAC_NAME_MARKUP>
bis[4-(4-chlorophenyl)-1-[4-(4-fluorophenyl)-4-oxobutyl]piperidin-4-yl] docosanedioate

> <PUBCHEM_IUPAC_NAME>
bis[4-(4-chlorophenyl)-1-[4-(4-fluorophenyl)-4-oxobutyl]piperidin-4-yl] docosanedioate

> <PUBCHEM_IUPAC_SYSTEMATIC_NAME>
bis[4-(4-chlorophenyl)-1-[4-(4-fluorophenyl)-4-oxidanylidene-butyl]piperidin-4-yl] docosanedioate

> <PUBCHEM_IUPAC_TRADITIONAL_NAME>
docosanedioic acid bis[4-(4-chlorophenyl)-1-[4-(4-fluorophenyl)-4-keto-butyl]-4-piperidyl] ester

> <PUBCHEM_IUPAC_INCHI>
InChI=1S/C64H84Cl2F2N2O6/c65-55-33-29-53(30-34-55)63(41-47-69(48-42-63)45-19-21-59(71)51-25-37-57(67)38-26-51)75-61(73)23-17-15-13-11-9-7-5-3-1-2-4-6-8-10-12-14-16-18-24-62(74)76-64(54-31-35-56(66)36-32-54)43-49-70(50-44-64)46-20-22-60(72)52-27-39-58(68)40-28-52/h25-40H,1-24,41-50H2

> <PUBCHEM_IUPAC_INCHIKEY>
SGHVFQQOVSYPTO-UHFFFAOYSA-N

> <PUBCHEM_XLOGP3_AA>
17.8

> <PUBCHEM_EXACT_MASS>
1084.5674501

> <PUBCHEM_MOLECULAR_FORMULA>
C64H84Cl2F2N2O6

> <PUBCHEM_MOLECULAR_WEIGHT>
1086.3

> <PUBCHEM_OPENEYE_CAN_SMILES>
C1CN(CCC1(C2=CC=C(C=C2)Cl)OC(=O)CCCCCCCCCCCCCCCCCCCCC(=O)OC3(CCN(CC3)CCCC(=O)C4=CC=C(C=C4)F)C5=CC=C(C=C5)Cl)CCCC(=O)C6=CC=C(C=C6)F

> <PUBCHEM_OPENEYE_ISO_SMILES>
C1CN(CCC1(C2=CC=C(C=C2)Cl)OC(=O)CCCCCCCCCCCCCCCCCCCCC(=O)OC3(CCN(CC3)CCCC(=O)C4=CC=C(C=C4)F)C5=CC=C(C=C5)Cl)CCCC(=O)C6=CC=C(C=C6)F

> <PUBCHEM_CACTVS_TPSA>
93.2

> <PUBCHEM_MONOISOTOPIC_WEIGHT>
1084.5674501

> <PUBCHEM_TOTAL_CHARGE>
0

> <PUBCHEM_HEAVY_ATOM_COUNT>
76

> <PUBCHEM_ATOM_DEF_STEREO_COUNT>
0

> <PUBCHEM_ATOM_UDEF_STEREO_COUNT>
0

> <PUBCHEM_BOND_DEF_STEREO_COUNT>
0

> <PUBCHEM_BOND_UDEF_STEREO_COUNT>
0

> <PUBCHEM_ISOTOPIC_ATOM_COUNT>
0

> <PUBCHEM_COMPONENT_COUNT>
1

> <PUBCHEM_CACTVS_TAUTO_COUNT>
-1

> <PUBCHEM_COORDINATE_TYPE>
1
5
255

> <PUBCHEM_BONDANNOTATIONS>
23  29  8
23  31  8
24  30  8
24  32  8
29  39  8
30  40  8
31  41  8
32  42  8
39  45  8
40  46  8
41  45  8
42  46  8
57  67  8
57  69  8
58  68  8
58  70  8
67  71  8
68  72  8
69  73  8
70  74  8
71  75  8
72  76  8
73  75  8
74  76  8

$$$$
