126533969
  -OEChem-09292322372D

 63 67  0     1  0  0  0  0  0999 V2000
    9.0771    1.3621    0.0000 S   0  0  0  0  0  0  0  0  0  0  0  0
   14.0430    3.6254    0.0000 O   0  0  0  0  0  0  0  0  0  0  0  0
    3.5962   -1.1790    0.0000 N   0  0  3  0  0  0  0  0  0  0  0  0
    6.0771   -0.3700    0.0000 N   0  0  3  0  0  0  0  0  0  0  0  0
   10.6649    2.1711    0.0000 N   0  0  0  0  0  0  0  0  0  0  0  0
   11.6159    0.8621    0.0000 N   0  0  0  0  0  0  0  0  0  0  0  0
   10.6649    0.5531    0.0000 N   0  0  0  0  0  0  0  0  0  0  0  0
    4.5472    0.1300    0.0000 C   0  0  3  0  0  0  0  0  0  0  0  0
    4.5472   -0.8700    0.0000 C   0  0  3  0  0  0  0  0  0  0  0  0
    5.4935    0.4348    0.0000 C   0  0  0  0  0  0  0  0  0  0  0  0
    3.5962    0.4390    0.0000 C   0  0  0  0  0  0  0  0  0  0  0  0
    5.4935   -1.1747    0.0000 C   0  0  0  0  0  0  0  0  0  0  0  0
    3.0084   -0.3700    0.0000 C   0  0  0  0  0  0  0  0  0  0  0  0
    7.0771   -0.3700    0.0000 C   0  0  0  0  0  0  0  0  0  0  0  0
    3.2872   -2.1301    0.0000 C   0  0  0  0  0  0  0  0  0  0  0  0
    7.5771    0.4960    0.0000 C   0  0  0  0  0  0  0  0  0  0  0  0
    3.9563   -2.8732    0.0000 C   0  0  0  0  0  0  0  0  0  0  0  0
    2.3090   -2.3380    0.0000 C   0  0  0  0  0  0  0  0  0  0  0  0
    8.5771    0.4960    0.0000 C   0  0  0  0  0  0  0  0  0  0  0  0
    3.6473   -3.8242    0.0000 C   0  0  0  0  0  0  0  0  0  0  0  0
    2.0000   -3.2890    0.0000 C   0  0  0  0  0  0  0  0  0  0  0  0
   12.4249    2.4499    0.0000 C   0  0  0  0  0  0  0  0  0  0  0  0
    2.6691   -4.0322    0.0000 C   0  0  0  0  0  0  0  0  0  0  0  0
   13.3385    2.0431    0.0000 C   0  0  0  0  0  0  0  0  0  0  0  0
   12.3204    3.4444    0.0000 C   0  0  0  0  0  0  0  0  0  0  0  0
   11.6159    1.8621    0.0000 C   0  0  0  0  0  0  0  0  0  0  0  0
   10.0771    1.3621    0.0000 C   0  0  0  0  0  0  0  0  0  0  0  0
   14.1475    2.6309    0.0000 C   0  0  0  0  0  0  0  0  0  0  0  0
   13.1294    4.0322    0.0000 C   0  0  0  0  0  0  0  0  0  0  0  0
   10.3558    3.1222    0.0000 C   0  0  0  0  0  0  0  0  0  0  0  0
    4.5480    0.7500    0.0000 H   0  0  0  0  0  0  0  0  0  0  0  0
    4.5480   -1.4900    0.0000 H   0  0  0  0  0  0  0  0  0  0  0  0
    6.0308    0.7440    0.0000 H   0  0  0  0  0  0  0  0  0  0  0  0
    5.2424    1.0017    0.0000 H   0  0  0  0  0  0  0  0  0  0  0  0
    3.8484    1.0054    0.0000 H   0  0  0  0  0  0  0  0  0  0  0  0
    3.0592    0.7490    0.0000 H   0  0  0  0  0  0  0  0  0  0  0  0
    5.2424   -1.7416    0.0000 H   0  0  0  0  0  0  0  0  0  0  0  0
    6.0308   -1.4839    0.0000 H   0  0  0  0  0  0  0  0  0  0  0  0
    2.5476    0.0449    0.0000 H   0  0  0  0  0  0  0  0  0  0  0  0
    2.5476   -0.7848    0.0000 H   0  0  0  0  0  0  0  0  0  0  0  0
    6.9694   -0.9806    0.0000 H   0  0  0  0  0  0  0  0  0  0  0  0
    7.6597   -0.5820    0.0000 H   0  0  0  0  0  0  0  0  0  0  0  0
    7.6847    1.1066    0.0000 H   0  0  0  0  0  0  0  0  0  0  0  0
    6.9945    0.7081    0.0000 H   0  0  0  0  0  0  0  0  0  0  0  0
    4.5628   -2.7443    0.0000 H   0  0  0  0  0  0  0  0  0  0  0  0
    1.8942   -1.8772    0.0000 H   0  0  0  0  0  0  0  0  0  0  0  0
    8.4694   -0.1145    0.0000 H   0  0  0  0  0  0  0  0  0  0  0  0
    9.1597    0.2840    0.0000 H   0  0  0  0  0  0  0  0  0  0  0  0
    4.0621   -4.2850    0.0000 H   0  0  0  0  0  0  0  0  0  0  0  0
    1.3936   -3.4179    0.0000 H   0  0  0  0  0  0  0  0  0  0  0  0
   12.4897    1.8332    0.0000 H   0  0  0  0  0  0  0  0  0  0  0  0
    2.4775   -4.6218    0.0000 H   0  0  0  0  0  0  0  0  0  0  0  0
   12.9918    1.5291    0.0000 H   0  0  0  0  0  0  0  0  0  0  0  0
   13.7845    1.6124    0.0000 H   0  0  0  0  0  0  0  0  0  0  0  0
   12.0486    4.0016    0.0000 H   0  0  0  0  0  0  0  0  0  0  0  0
   11.7244    3.2735    0.0000 H   0  0  0  0  0  0  0  0  0  0  0  0
   14.4193    2.0737    0.0000 H   0  0  0  0  0  0  0  0  0  0  0  0
   14.7435    2.8018    0.0000 H   0  0  0  0  0  0  0  0  0  0  0  0
   13.4761    4.5462    0.0000 H   0  0  0  0  0  0  0  0  0  0  0  0
   12.6834    4.4629    0.0000 H   0  0  0  0  0  0  0  0  0  0  0  0
   10.9455    3.3137    0.0000 H   0  0  0  0  0  0  0  0  0  0  0  0
   10.1642    3.7118    0.0000 H   0  0  0  0  0  0  0  0  0  0  0  0
    9.7662    2.9306    0.0000 H   0  0  0  0  0  0  0  0  0  0  0  0
  1 19  1  0  0  0  0
  1 27  1  0  0  0  0
  2 28  1  0  0  0  0
  2 29  1  0  0  0  0
  3  9  1  0  0  0  0
  3 13  1  0  0  0  0
  3 15  1  0  0  0  0
  4 10  1  0  0  0  0
  4 12  1  0  0  0  0
  4 14  1  0  0  0  0
  5 26  1  0  0  0  0
  5 27  1  0  0  0  0
  5 30  1  0  0  0  0
  6  7  1  0  0  0  0
  6 26  2  0  0  0  0
  7 27  2  0  0  0  0
  8  9  1  0  0  0  0
  8 10  1  0  0  0  0
  8 11  1  0  0  0  0
  8 31  1  0  0  0  0
  9 12  1  0  0  0  0
  9 32  1  0  0  0  0
 10 33  1  0  0  0  0
 10 34  1  0  0  0  0
 11 13  1  0  0  0  0
 11 35  1  0  0  0  0
 11 36  1  0  0  0  0
 12 37  1  0  0  0  0
 12 38  1  0  0  0  0
 13 39  1  0  0  0  0
 13 40  1  0  0  0  0
 14 16  1  0  0  0  0
 14 41  1  0  0  0  0
 14 42  1  0  0  0  0
 15 17  2  0  0  0  0
 15 18  1  0  0  0  0
 16 19  1  0  0  0  0
 16 43  1  0  0  0  0
 16 44  1  0  0  0  0
 17 20  1  0  0  0  0
 17 45  1  0  0  0  0
 18 21  2  0  0  0  0
 18 46  1  0  0  0  0
 19 47  1  0  0  0  0
 19 48  1  0  0  0  0
 20 23  2  0  0  0  0
 20 49  1  0  0  0  0
 21 23  1  0  0  0  0
 21 50  1  0  0  0  0
 22 24  1  0  0  0  0
 22 25  1  0  0  0  0
 22 26  1  0  0  0  0
 22 51  1  0  0  0  0
 23 52  1  0  0  0  0
 24 28  1  0  0  0  0
 24 53  1  0  0  0  0
 24 54  1  0  0  0  0
 25 29  1  0  0  0  0
 25 55  1  0  0  0  0
 25 56  1  0  0  0  0
 28 57  1  0  0  0  0
 28 58  1  0  0  0  0
 29 59  1  0  0  0  0
 29 60  1  0  0  0  0
 30 61  1  0  0  0  0
 30 62  1  0  0  0  0
 30 63  1  0  0  0  0
M  END
> <PUBCHEM_COMPOUND_CID>
126533969

> <PUBCHEM_COMPOUND_CANONICALIZED>
1

> <PUBCHEM_CACTVS_COMPLEXITY>
542

> <PUBCHEM_CACTVS_HBOND_ACCEPTOR>
6

> <PUBCHEM_CACTVS_HBOND_DONOR>
0

> <PUBCHEM_CACTVS_ROTATABLE_BOND>
7

> <PUBCHEM_CACTVS_SUBSKEYS>
AAADcfB7oABAAAAAAAAAAAAAAAAAAWLFgAA0QAAAAAAWAAABwAAAHgQIAAAADSjl0waz0IcMFAiiACZiZACS0AthArAdyAA4ZIiIaCLg2ZGWIAhkiALIyAewAAAKAAAAAAAAAAAAAAAAAAAAAAAAAAAAAA==

> <PUBCHEM_IUPAC_OPENEYE_NAME>
5-[3-[(4-methyl-5-tetrahydropyran-4-yl-1,2,4-triazol-3-yl)sulfanyl]propyl]-1-phenyl-2,3,3a,4,6,6a-hexahydropyrrolo[2,3-c]pyrrole

> <PUBCHEM_IUPAC_CAS_NAME>
5-[3-[[4-methyl-5-(4-oxanyl)-1,2,4-triazol-3-yl]thio]propyl]-1-phenyl-2,3,3a,4,6,6a-hexahydropyrrolo[2,3-c]pyrrole

> <PUBCHEM_IUPAC_NAME_MARKUP>
5-[3-[[4-methyl-5-(oxan-4-yl)-1,2,4-triazol-3-yl]sulfanyl]propyl]-1-phenyl-2,3,3<I>a</I>,4,6,6<I>a</I>-hexahydropyrrolo[2,3-c]pyrrole

> <PUBCHEM_IUPAC_NAME>
5-[3-[[4-methyl-5-(oxan-4-yl)-1,2,4-triazol-3-yl]sulfanyl]propyl]-1-phenyl-2,3,3a,4,6,6a-hexahydropyrrolo[2,3-c]pyrrole

> <PUBCHEM_IUPAC_SYSTEMATIC_NAME>
5-[3-[[4-methyl-5-(oxan-4-yl)-1,2,4-triazol-3-yl]sulfanyl]propyl]-1-phenyl-2,3,3a,4,6,6a-hexahydropyrrolo[2,3-c]pyrrole

> <PUBCHEM_IUPAC_TRADITIONAL_NAME>
5-[3-[(4-methyl-5-tetrahydropyran-4-yl-1,2,4-triazol-3-yl)thio]propyl]-1-phenyl-2,3,3a,4,6,6a-hexahydropyrrolo[2,3-c]pyrrole

> <PUBCHEM_IUPAC_INCHI>
InChI=1S/C23H33N5OS/c1-26-22(18-9-13-29-14-10-18)24-25-23(26)30-15-5-11-27-16-19-8-12-28(21(19)17-27)20-6-3-2-4-7-20/h2-4,6-7,18-19,21H,5,8-17H2,1H3

> <PUBCHEM_IUPAC_INCHIKEY>
BGRFOPBDZYUOMJ-UHFFFAOYSA-N

> <PUBCHEM_XLOGP3_AA>
3.1

> <PUBCHEM_EXACT_MASS>
427.24058187

> <PUBCHEM_MOLECULAR_FORMULA>
C23H33N5OS

> <PUBCHEM_MOLECULAR_WEIGHT>
427.6

> <PUBCHEM_OPENEYE_CAN_SMILES>
CN1C(=NN=C1SCCCN2CC3CCN(C3C2)C4=CC=CC=C4)C5CCOCC5

> <PUBCHEM_OPENEYE_ISO_SMILES>
CN1C(=NN=C1SCCCN2CC3CCN(C3C2)C4=CC=CC=C4)C5CCOCC5

> <PUBCHEM_CACTVS_TPSA>
71.7

> <PUBCHEM_MONOISOTOPIC_WEIGHT>
427.24058187

> <PUBCHEM_TOTAL_CHARGE>
0

> <PUBCHEM_HEAVY_ATOM_COUNT>
30

> <PUBCHEM_ATOM_DEF_STEREO_COUNT>
0

> <PUBCHEM_ATOM_UDEF_STEREO_COUNT>
2

> <PUBCHEM_BOND_DEF_STEREO_COUNT>
0

> <PUBCHEM_BOND_UDEF_STEREO_COUNT>
0

> <PUBCHEM_ISOTOPIC_ATOM_COUNT>
0

> <PUBCHEM_COMPONENT_COUNT>
1

> <PUBCHEM_CACTVS_TAUTO_COUNT>
-1

> <PUBCHEM_COORDINATE_TYPE>
1
5
255

> <PUBCHEM_BONDANNOTATIONS>
15  17  8
15  18  8
17  20  8
18  21  8
20  23  8
21  23  8
5  26  8
5  27  8
6  26  8
6  7  8
7  27  8
8  11  3
9  12  3

$$$$
