146025769
  -OEChem-09292322012D

 57 60  0     1  0  0  0  0  0999 V2000
   11.5942    0.4827    0.0000 O   0  0  0  0  0  0  0  0  0  0  0  0
    5.5321    0.9827    0.0000 N   0  0  3  0  0  0  0  0  0  0  0  0
   10.7282   -1.0173    0.0000 N   0  0  0  0  0  0  0  0  0  0  0  0
    8.1301    0.4827    0.0000 C   0  0  0  0  0  0  0  0  0  0  0  0
    8.9962    0.9827    0.0000 C   0  0  0  0  0  0  0  0  0  0  0  0
    8.1301   -0.5173    0.0000 C   0  0  0  0  0  0  0  0  0  0  0  0
    9.8622   -0.5173    0.0000 C   0  0  0  0  0  0  0  0  0  0  0  0
    9.8622    0.4827    0.0000 C   0  0  0  0  0  0  0  0  0  0  0  0
    8.9962   -1.0173    0.0000 C   0  0  0  0  0  0  0  0  0  0  0  0
    7.2641    0.9827    0.0000 C   0  0  0  0  0  0  0  0  0  0  0  0
    6.3981    0.4827    0.0000 C   0  0  0  0  0  0  0  0  0  0  0  0
    5.5321    1.9827    0.0000 C   0  0  0  0  0  0  0  0  0  0  0  0
    4.6660    0.4827    0.0000 C   0  0  0  0  0  0  0  0  0  0  0  0
    4.6660    2.4827    0.0000 C   0  0  0  0  0  0  0  0  0  0  0  0
    3.8000    0.9827    0.0000 C   0  0  0  0  0  0  0  0  0  0  0  0
    3.8000    1.9827    0.0000 C   0  0  0  0  0  0  0  0  0  0  0  0
   11.5942   -0.5173    0.0000 C   0  0  0  0  0  0  0  0  0  0  0  0
    2.9061    0.4480    0.0000 C   0  0  0  0  0  0  0  0  0  0  0  0
    2.9061    2.5173    0.0000 C   0  0  0  0  0  0  0  0  0  0  0  0
   12.4603   -1.0173    0.0000 C   0  0  0  0  0  0  0  0  0  0  0  0
    2.0000    0.9619    0.0000 C   0  0  0  0  0  0  0  0  0  0  0  0
    2.0000    2.0035    0.0000 C   0  0  0  0  0  0  0  0  0  0  0  0
   12.4603   -2.0173    0.0000 C   0  0  0  0  0  0  0  0  0  0  0  0
   13.3263   -0.5173    0.0000 C   0  0  0  0  0  0  0  0  0  0  0  0
   13.3263   -2.5173    0.0000 C   0  0  0  0  0  0  0  0  0  0  0  0
   14.1923   -1.0173    0.0000 C   0  0  0  0  0  0  0  0  0  0  0  0
   14.1923   -2.0173    0.0000 C   0  0  0  0  0  0  0  0  0  0  0  0
    7.5932    0.1727    0.0000 H   0  0  0  0  0  0  0  0  0  0  0  0
    9.3947    1.4576    0.0000 H   0  0  0  0  0  0  0  0  0  0  0  0
    8.5976    1.4576    0.0000 H   0  0  0  0  0  0  0  0  0  0  0  0
    7.5196   -0.4097    0.0000 H   0  0  0  0  0  0  0  0  0  0  0  0
    7.9181   -1.0999    0.0000 H   0  0  0  0  0  0  0  0  0  0  0  0
    9.8622   -1.1373    0.0000 H   0  0  0  0  0  0  0  0  0  0  0  0
   10.4728    0.3750    0.0000 H   0  0  0  0  0  0  0  0  0  0  0  0
   10.0742    1.0653    0.0000 H   0  0  0  0  0  0  0  0  0  0  0  0
    8.5976   -1.4923    0.0000 H   0  0  0  0  0  0  0  0  0  0  0  0
    9.3947   -1.4923    0.0000 H   0  0  0  0  0  0  0  0  0  0  0  0
    7.6626    1.4576    0.0000 H   0  0  0  0  0  0  0  0  0  0  0  0
    6.8656    1.4576    0.0000 H   0  0  0  0  0  0  0  0  0  0  0  0
    5.9996    0.0077    0.0000 H   0  0  0  0  0  0  0  0  0  0  0  0
    6.7966    0.0077    0.0000 H   0  0  0  0  0  0  0  0  0  0  0  0
   10.7282   -1.6373    0.0000 H   0  0  0  0  0  0  0  0  0  0  0  0
    6.1426    1.8750    0.0000 H   0  0  0  0  0  0  0  0  0  0  0  0
    5.7441    2.5653    0.0000 H   0  0  0  0  0  0  0  0  0  0  0  0
    4.2675    0.0077    0.0000 H   0  0  0  0  0  0  0  0  0  0  0  0
    5.0646    0.0077    0.0000 H   0  0  0  0  0  0  0  0  0  0  0  0
    5.0646    2.9576    0.0000 H   0  0  0  0  0  0  0  0  0  0  0  0
    4.2675    2.9576    0.0000 H   0  0  0  0  0  0  0  0  0  0  0  0
    2.9132   -0.1720    0.0000 H   0  0  0  0  0  0  0  0  0  0  0  0
    2.9132    3.1373    0.0000 H   0  0  0  0  0  0  0  0  0  0  0  0
    1.4643    0.6498    0.0000 H   0  0  0  0  0  0  0  0  0  0  0  0
    1.4643    2.3156    0.0000 H   0  0  0  0  0  0  0  0  0  0  0  0
   11.9233   -2.3273    0.0000 H   0  0  0  0  0  0  0  0  0  0  0  0
   13.3263    0.1027    0.0000 H   0  0  0  0  0  0  0  0  0  0  0  0
   13.3263   -3.1373    0.0000 H   0  0  0  0  0  0  0  0  0  0  0  0
   14.7292   -0.7073    0.0000 H   0  0  0  0  0  0  0  0  0  0  0  0
   14.7292   -2.3273    0.0000 H   0  0  0  0  0  0  0  0  0  0  0  0
  1 17  2  0  0  0  0
  2 11  1  0  0  0  0
  2 12  1  0  0  0  0
  2 13  1  0  0  0  0
  3  7  1  0  0  0  0
  3 17  1  0  0  0  0
  3 42  1  0  0  0  0
  4  5  1  0  0  0  0
  4  6  1  0  0  0  0
  4 10  1  0  0  0  0
  4 28  1  0  0  0  0
  5  8  1  0  0  0  0
  5 29  1  0  0  0  0
  5 30  1  0  0  0  0
  6  9  1  0  0  0  0
  6 31  1  0  0  0  0
  6 32  1  0  0  0  0
  7  8  1  0  0  0  0
  7  9  1  0  0  0  0
  7 33  1  0  0  0  0
  8 34  1  0  0  0  0
  8 35  1  0  0  0  0
  9 36  1  0  0  0  0
  9 37  1  0  0  0  0
 10 11  1  0  0  0  0
 10 38  1  0  0  0  0
 10 39  1  0  0  0  0
 11 40  1  0  0  0  0
 11 41  1  0  0  0  0
 12 14  1  0  0  0  0
 12 43  1  0  0  0  0
 12 44  1  0  0  0  0
 13 15  1  0  0  0  0
 13 45  1  0  0  0  0
 13 46  1  0  0  0  0
 14 16  1  0  0  0  0
 14 47  1  0  0  0  0
 14 48  1  0  0  0  0
 15 16  1  0  0  0  0
 15 18  2  0  0  0  0
 16 19  2  0  0  0  0
 17 20  1  0  0  0  0
 18 21  1  0  0  0  0
 18 49  1  0  0  0  0
 19 22  1  0  0  0  0
 19 50  1  0  0  0  0
 20 23  2  0  0  0  0
 20 24  1  0  0  0  0
 21 22  2  0  0  0  0
 21 51  1  0  0  0  0
 22 52  1  0  0  0  0
 23 25  1  0  0  0  0
 23 53  1  0  0  0  0
 24 26  2  0  0  0  0
 24 54  1  0  0  0  0
 25 27  2  0  0  0  0
 25 55  1  0  0  0  0
 26 27  1  0  0  0  0
 26 56  1  0  0  0  0
 27 57  1  0  0  0  0
M  END
> <PUBCHEM_COMPOUND_CID>
146025769

> <PUBCHEM_COMPOUND_CANONICALIZED>
1

> <PUBCHEM_CACTVS_COMPLEXITY>
465

> <PUBCHEM_CACTVS_HBOND_ACCEPTOR>
2

> <PUBCHEM_CACTVS_HBOND_DONOR>
1

> <PUBCHEM_CACTVS_ROTATABLE_BOND>
5

> <PUBCHEM_CACTVS_SUBSKEYS>
AAADceB7IAAAAAAAAAAAAAAAAAAAAAAAAAA8YMEAAAAAAACxQAAAHgAQAAAADSjBmAQwAIPAAACIAiFSEACCAAAkAAAIiIEIBMgIIDKAlRGEIQhglgCIiYcYiICOgAAAAAAQAAAQAAAAACAAAAAAAAAAAA==

> <PUBCHEM_IUPAC_OPENEYE_NAME>
N-[4-[2-(3,4-dihydro-1H-isoquinolin-2-yl)ethyl]cyclohexyl]benzamide

> <PUBCHEM_IUPAC_CAS_NAME>
N-[4-[2-(3,4-dihydro-1H-isoquinolin-2-yl)ethyl]cyclohexyl]benzamide

> <PUBCHEM_IUPAC_NAME_MARKUP>
<I>N</I>-[4-[2-(3,4-dihydro-1<I>H</I>-isoquinolin-2-yl)ethyl]cyclohexyl]benzamide

> <PUBCHEM_IUPAC_NAME>
N-[4-[2-(3,4-dihydro-1H-isoquinolin-2-yl)ethyl]cyclohexyl]benzamide

> <PUBCHEM_IUPAC_SYSTEMATIC_NAME>
N-[4-[2-(3,4-dihydro-1H-isoquinolin-2-yl)ethyl]cyclohexyl]benzamide

> <PUBCHEM_IUPAC_TRADITIONAL_NAME>
N-[4-[2-(3,4-dihydro-1H-isoquinolin-2-yl)ethyl]cyclohexyl]benzamide

> <PUBCHEM_IUPAC_INCHI>
InChI=1S/C24H30N2O/c27-24(21-7-2-1-3-8-21)25-23-12-10-19(11-13-23)14-16-26-17-15-20-6-4-5-9-22(20)18-26/h1-9,19,23H,10-18H2,(H,25,27)

> <PUBCHEM_IUPAC_INCHIKEY>
VLIWRKCRUPBCQS-UHFFFAOYSA-N

> <PUBCHEM_XLOGP3_AA>
4.6

> <PUBCHEM_EXACT_MASS>
362.235813585

> <PUBCHEM_MOLECULAR_FORMULA>
C24H30N2O

> <PUBCHEM_MOLECULAR_WEIGHT>
362.5

> <PUBCHEM_OPENEYE_CAN_SMILES>
C1CC(CCC1CCN2CCC3=CC=CC=C3C2)NC(=O)C4=CC=CC=C4

> <PUBCHEM_OPENEYE_ISO_SMILES>
C1CC(CCC1CCN2CCC3=CC=CC=C3C2)NC(=O)C4=CC=CC=C4

> <PUBCHEM_CACTVS_TPSA>
32.3

> <PUBCHEM_MONOISOTOPIC_WEIGHT>
362.235813585

> <PUBCHEM_TOTAL_CHARGE>
0

> <PUBCHEM_HEAVY_ATOM_COUNT>
27

> <PUBCHEM_ATOM_DEF_STEREO_COUNT>
0

> <PUBCHEM_ATOM_UDEF_STEREO_COUNT>
0

> <PUBCHEM_BOND_DEF_STEREO_COUNT>
0

> <PUBCHEM_BOND_UDEF_STEREO_COUNT>
0

> <PUBCHEM_ISOTOPIC_ATOM_COUNT>
0

> <PUBCHEM_COMPONENT_COUNT>
1

> <PUBCHEM_CACTVS_TAUTO_COUNT>
-1

> <PUBCHEM_COORDINATE_TYPE>
1
5
255

> <PUBCHEM_BONDANNOTATIONS>
15  16  8
15  18  8
16  19  8
18  21  8
19  22  8
20  23  8
20  24  8
21  22  8
23  25  8
24  26  8
25  27  8
26  27  8

$$$$
