44277524
  -OEChem-09292322202D

 59 62  0     0  0  0  0  0  0999 V2000
   12.3923    3.0000    0.0000 Br  0  0  0  0  0  0  0  0  0  0  0  0
   10.6603   -1.0000    0.0000 O   0  0  0  0  0  0  0  0  0  0  0  0
   12.3923   -1.0000    0.0000 O   0  0  0  0  0  0  0  0  0  0  0  0
    7.1962    0.0000    0.0000 N   0  0  0  0  0  0  0  0  0  0  0  0
    5.4641   -1.0000    0.0000 N   0  0  0  0  0  0  0  0  0  0  0  0
    9.7942    0.5000    0.0000 N   0  0  0  0  0  0  0  0  0  0  0  0
    6.3301    0.5000    0.0000 C   0  0  0  0  0  0  0  0  0  0  0  0
    7.1962   -1.0000    0.0000 C   0  0  0  0  0  0  0  0  0  0  0  0
    5.4641    0.0000    0.0000 C   0  0  0  0  0  0  0  0  0  0  0  0
    6.3301   -1.5000    0.0000 C   0  0  0  0  0  0  0  0  0  0  0  0
    8.0622    0.5000    0.0000 C   0  0  0  0  0  0  0  0  0  0  0  0
    4.5981   -1.5000    0.0000 C   0  0  0  0  0  0  0  0  0  0  0  0
    8.9282   -0.0000    0.0000 C   0  0  0  0  0  0  0  0  0  0  0  0
    4.5981   -2.5000    0.0000 C   0  0  0  0  0  0  0  0  0  0  0  0
    3.7320   -1.0000    0.0000 C   0  0  0  0  0  0  0  0  0  0  0  0
    3.7320   -3.0000    0.0000 C   0  0  0  0  0  0  0  0  0  0  0  0
    2.8660   -1.5000    0.0000 C   0  0  0  0  0  0  0  0  0  0  0  0
    2.8660   -2.5000    0.0000 C   0  0  0  0  0  0  0  0  0  0  0  0
   10.6603   -0.0000    0.0000 C   0  0  0  0  0  0  0  0  0  0  0  0
   11.5263    0.5000    0.0000 C   0  0  0  0  0  0  0  0  0  0  0  0
   12.3923   -0.0000    0.0000 C   0  0  0  0  0  0  0  0  0  0  0  0
    2.0000   -3.0000    0.0000 C   0  0  0  0  0  0  0  0  0  0  0  0
   13.2583    0.5000    0.0000 C   0  0  0  0  0  0  0  0  0  0  0  0
   11.5263    1.5000    0.0000 C   0  0  0  0  0  0  0  0  0  0  0  0
   13.2583    1.5000    0.0000 C   0  0  0  0  0  0  0  0  0  0  0  0
   12.3923    2.0000    0.0000 C   0  0  0  0  0  0  0  0  0  0  0  0
   14.1523   -0.0347    0.0000 C   0  0  0  0  0  0  0  0  0  0  0  0
   14.1523    2.0347    0.0000 C   0  0  0  0  0  0  0  0  0  0  0  0
   15.0583    0.4792    0.0000 C   0  0  0  0  0  0  0  0  0  0  0  0
   15.0583    1.5208    0.0000 C   0  0  0  0  0  0  0  0  0  0  0  0
   13.2583   -1.5000    0.0000 C   0  0  0  0  0  0  0  0  0  0  0  0
    6.7287    0.9749    0.0000 H   0  0  0  0  0  0  0  0  0  0  0  0
    5.9316    0.9749    0.0000 H   0  0  0  0  0  0  0  0  0  0  0  0
    7.4082   -1.5826    0.0000 H   0  0  0  0  0  0  0  0  0  0  0  0
    7.8067   -0.8923    0.0000 H   0  0  0  0  0  0  0  0  0  0  0  0
    5.2520    0.5826    0.0000 H   0  0  0  0  0  0  0  0  0  0  0  0
    4.8535   -0.1077    0.0000 H   0  0  0  0  0  0  0  0  0  0  0  0
    5.9316   -1.9750    0.0000 H   0  0  0  0  0  0  0  0  0  0  0  0
    6.7287   -1.9750    0.0000 H   0  0  0  0  0  0  0  0  0  0  0  0
    8.4607    0.9749    0.0000 H   0  0  0  0  0  0  0  0  0  0  0  0
    7.6636    0.9749    0.0000 H   0  0  0  0  0  0  0  0  0  0  0  0
    8.5297   -0.4749    0.0000 H   0  0  0  0  0  0  0  0  0  0  0  0
    9.3267   -0.4749    0.0000 H   0  0  0  0  0  0  0  0  0  0  0  0
    5.1350   -2.8100    0.0000 H   0  0  0  0  0  0  0  0  0  0  0  0
    3.7320   -0.3800    0.0000 H   0  0  0  0  0  0  0  0  0  0  0  0
    9.7942    1.1200    0.0000 H   0  0  0  0  0  0  0  0  0  0  0  0
    3.7320   -3.6200    0.0000 H   0  0  0  0  0  0  0  0  0  0  0  0
    2.3291   -1.1900    0.0000 H   0  0  0  0  0  0  0  0  0  0  0  0
    1.6900   -2.4631    0.0000 H   0  0  0  0  0  0  0  0  0  0  0  0
    1.4631   -3.3100    0.0000 H   0  0  0  0  0  0  0  0  0  0  0  0
    2.3100   -3.5369    0.0000 H   0  0  0  0  0  0  0  0  0  0  0  0
   10.9893    1.8100    0.0000 H   0  0  0  0  0  0  0  0  0  0  0  0
   14.1451   -0.6546    0.0000 H   0  0  0  0  0  0  0  0  0  0  0  0
   14.1451    2.6546    0.0000 H   0  0  0  0  0  0  0  0  0  0  0  0
   15.5941    0.1671    0.0000 H   0  0  0  0  0  0  0  0  0  0  0  0
   15.5941    1.8329    0.0000 H   0  0  0  0  0  0  0  0  0  0  0  0
   12.9483   -2.0369    0.0000 H   0  0  0  0  0  0  0  0  0  0  0  0
   13.7953   -1.8100    0.0000 H   0  0  0  0  0  0  0  0  0  0  0  0
   13.5683   -0.9631    0.0000 H   0  0  0  0  0  0  0  0  0  0  0  0
  1 26  1  0  0  0  0
  2 19  2  0  0  0  0
  3 21  1  0  0  0  0
  3 31  1  0  0  0  0
  4  7  1  0  0  0  0
  4  8  1  0  0  0  0
  4 11  1  0  0  0  0
  5  9  1  0  0  0  0
  5 10  1  0  0  0  0
  5 12  1  0  0  0  0
  6 13  1  0  0  0  0
  6 19  1  0  0  0  0
  6 46  1  0  0  0  0
  7  9  1  0  0  0  0
  7 32  1  0  0  0  0
  7 33  1  0  0  0  0
  8 10  1  0  0  0  0
  8 34  1  0  0  0  0
  8 35  1  0  0  0  0
  9 36  1  0  0  0  0
  9 37  1  0  0  0  0
 10 38  1  0  0  0  0
 10 39  1  0  0  0  0
 11 13  1  0  0  0  0
 11 40  1  0  0  0  0
 11 41  1  0  0  0  0
 12 14  2  0  0  0  0
 12 15  1  0  0  0  0
 13 42  1  0  0  0  0
 13 43  1  0  0  0  0
 14 16  1  0  0  0  0
 14 44  1  0  0  0  0
 15 17  2  0  0  0  0
 15 45  1  0  0  0  0
 16 18  2  0  0  0  0
 16 47  1  0  0  0  0
 17 18  1  0  0  0  0
 17 48  1  0  0  0  0
 18 22  1  0  0  0  0
 19 20  1  0  0  0  0
 20 21  2  0  0  0  0
 20 24  1  0  0  0  0
 21 23  1  0  0  0  0
 22 49  1  0  0  0  0
 22 50  1  0  0  0  0
 22 51  1  0  0  0  0
 23 25  1  0  0  0  0
 23 27  2  0  0  0  0
 24 26  2  0  0  0  0
 24 52  1  0  0  0  0
 25 26  1  0  0  0  0
 25 28  2  0  0  0  0
 27 29  1  0  0  0  0
 27 53  1  0  0  0  0
 28 30  1  0  0  0  0
 28 54  1  0  0  0  0
 29 30  2  0  0  0  0
 29 55  1  0  0  0  0
 30 56  1  0  0  0  0
 31 57  1  0  0  0  0
 31 58  1  0  0  0  0
 31 59  1  0  0  0  0
M  END
> <PUBCHEM_COMPOUND_CID>
44277524

> <PUBCHEM_COMPOUND_CANONICALIZED>
1

> <PUBCHEM_CACTVS_COMPLEXITY>
575

> <PUBCHEM_CACTVS_HBOND_ACCEPTOR>
4

> <PUBCHEM_CACTVS_HBOND_DONOR>
1

> <PUBCHEM_CACTVS_ROTATABLE_BOND>
6

> <PUBCHEM_CACTVS_SUBSKEYS>
AAADceB7MAAAEAAAAAAAAAAAAAAAAAAAAAA8YMEAAAAAAADBVAAAHgBQAAABrAzBmAYyxsPABACIAiVSUACCCAAlIgQIiIEMbOgMZjbEtZuUMWhm9hHI65eYyPCOyBADEAAYgACQIAYgADEAAAAAAAAAAA==

> <PUBCHEM_IUPAC_OPENEYE_NAME>
4-bromo-1-methoxy-N-[2-[4-(p-tolyl)piperazin-1-yl]ethyl]naphthalene-2-carboxamide

> <PUBCHEM_IUPAC_CAS_NAME>
4-bromo-1-methoxy-N-[2-[4-(4-methylphenyl)-1-piperazinyl]ethyl]-2-naphthalenecarboxamide

> <PUBCHEM_IUPAC_NAME_MARKUP>
4-bromo-1-methoxy-<I>N</I>-[2-[4-(4-methylphenyl)piperazin-1-yl]ethyl]naphthalene-2-carboxamide

> <PUBCHEM_IUPAC_NAME>
4-bromo-1-methoxy-N-[2-[4-(4-methylphenyl)piperazin-1-yl]ethyl]naphthalene-2-carboxamide

> <PUBCHEM_IUPAC_SYSTEMATIC_NAME>
4-bromanyl-1-methoxy-N-[2-[4-(4-methylphenyl)piperazin-1-yl]ethyl]naphthalene-2-carboxamide

> <PUBCHEM_IUPAC_TRADITIONAL_NAME>
4-bromo-1-methoxy-N-[2-[4-(p-tolyl)piperazino]ethyl]-2-naphthamide

> <PUBCHEM_IUPAC_INCHI>
InChI=1S/C25H28BrN3O2/c1-18-7-9-19(10-8-18)29-15-13-28(14-16-29)12-11-27-25(30)22-17-23(26)20-5-3-4-6-21(20)24(22)31-2/h3-10,17H,11-16H2,1-2H3,(H,27,30)

> <PUBCHEM_IUPAC_INCHIKEY>
IBGMJKNDQYWIAZ-UHFFFAOYSA-N

> <PUBCHEM_XLOGP3_AA>
5.1

> <PUBCHEM_EXACT_MASS>
481.13649

> <PUBCHEM_MOLECULAR_FORMULA>
C25H28BrN3O2

> <PUBCHEM_MOLECULAR_WEIGHT>
482.4

> <PUBCHEM_OPENEYE_CAN_SMILES>
CC1=CC=C(C=C1)N2CCN(CC2)CCNC(=O)C3=C(C4=CC=CC=C4C(=C3)Br)OC

> <PUBCHEM_OPENEYE_ISO_SMILES>
CC1=CC=C(C=C1)N2CCN(CC2)CCNC(=O)C3=C(C4=CC=CC=C4C(=C3)Br)OC

> <PUBCHEM_CACTVS_TPSA>
44.8

> <PUBCHEM_MONOISOTOPIC_WEIGHT>
481.13649

> <PUBCHEM_TOTAL_CHARGE>
0

> <PUBCHEM_HEAVY_ATOM_COUNT>
31

> <PUBCHEM_ATOM_DEF_STEREO_COUNT>
0

> <PUBCHEM_ATOM_UDEF_STEREO_COUNT>
0

> <PUBCHEM_BOND_DEF_STEREO_COUNT>
0

> <PUBCHEM_BOND_UDEF_STEREO_COUNT>
0

> <PUBCHEM_ISOTOPIC_ATOM_COUNT>
0

> <PUBCHEM_COMPONENT_COUNT>
1

> <PUBCHEM_CACTVS_TAUTO_COUNT>
-1

> <PUBCHEM_COORDINATE_TYPE>
1
5
255

> <PUBCHEM_BONDANNOTATIONS>
12  14  8
12  15  8
14  16  8
15  17  8
16  18  8
17  18  8
20  21  8
20  24  8
21  23  8
23  25  8
23  27  8
24  26  8
25  26  8
25  28  8
27  29  8
28  30  8
29  30  8

$$$$
