44341180
  -OEChem-09292322032D

 63 64  0     0  0  0  0  0  0999 V2000
    4.8671    6.6200    0.0000 O   0  0  0  0  0  0  0  0  0  0  0  0
    8.8070    6.3700    0.0000 O   0  0  0  0  0  0  0  0  0  0  0  0
   13.1371    5.8700    0.0000 O   0  0  0  0  0  0  0  0  0  0  0  0
    9.6730    4.8700    0.0000 O   0  0  0  0  0  0  0  0  0  0  0  0
   12.2711    7.3700    0.0000 O   0  0  0  0  0  0  0  0  0  0  0  0
    3.1350    3.6200    0.0000 N   0  0  0  0  0  0  0  0  0  0  0  0
    3.1350    6.6200    0.0000 N   0  0  0  0  0  0  0  0  0  0  0  0
    3.1350    5.6200    0.0000 C   0  0  0  0  0  0  0  0  0  0  0  0
    4.0010    5.1200    0.0000 C   0  0  0  0  0  0  0  0  0  0  0  0
    2.2690    5.1200    0.0000 C   0  0  0  0  0  0  0  0  0  0  0  0
    4.0010    4.1200    0.0000 C   0  0  0  0  0  0  0  0  0  0  0  0
    2.2690    4.1200    0.0000 C   0  0  0  0  0  0  0  0  0  0  0  0
    3.1350    2.6200    0.0000 C   0  0  0  0  0  0  0  0  0  0  0  0
    2.2690    7.1200    0.0000 C   0  0  0  0  0  0  0  0  0  0  0  0
    2.2690    2.1200    0.0000 C   0  0  0  0  0  0  0  0  0  0  0  0
    4.0010    7.1200    0.0000 C   0  0  0  0  0  0  0  0  0  0  0  0
    1.4030    2.6200    0.0000 C   0  0  0  0  0  0  0  0  0  0  0  0
    2.2690    1.1200    0.0000 C   0  0  0  0  0  0  0  0  0  0  0  0
    4.0010    8.1200    0.0000 C   0  0  0  0  0  0  0  0  0  0  0  0
    0.5369    2.1200    0.0000 C   0  0  0  0  0  0  0  0  0  0  0  0
    1.4030    0.6200    0.0000 C   0  0  0  0  0  0  0  0  0  0  0  0
    0.5369    1.1200    0.0000 C   0  0  0  0  0  0  0  0  0  0  0  0
    4.8671    8.6200    0.0000 C   0  0  0  0  0  0  0  0  0  0  0  0
    4.8671    9.6200    0.0000 C   0  0  0  0  0  0  0  0  0  0  0  0
    5.7331   10.1200    0.0000 C   0  0  0  0  0  0  0  0  0  0  0  0
    4.0010   10.1200    0.0000 C   0  0  0  0  0  0  0  0  0  0  0  0
    5.7331   11.1200    0.0000 C   0  0  0  0  0  0  0  0  0  0  0  0
    4.0010   11.1200    0.0000 C   0  0  0  0  0  0  0  0  0  0  0  0
    4.8671   11.6200    0.0000 C   0  0  0  0  0  0  0  0  0  0  0  0
   10.5390    6.3700    0.0000 C   0  0  0  0  0  0  0  0  0  0  0  0
   11.4050    5.8700    0.0000 C   0  0  0  0  0  0  0  0  0  0  0  0
    9.6730    5.8700    0.0000 C   0  0  0  0  0  0  0  0  0  0  0  0
   12.2711    6.3700    0.0000 C   0  0  0  0  0  0  0  0  0  0  0  0
    3.6720    5.9300    0.0000 H   0  0  0  0  0  0  0  0  0  0  0  0
    4.6116    5.0123    0.0000 H   0  0  0  0  0  0  0  0  0  0  0  0
    4.2131    5.7026    0.0000 H   0  0  0  0  0  0  0  0  0  0  0  0
    2.0569    5.7026    0.0000 H   0  0  0  0  0  0  0  0  0  0  0  0
    1.6584    5.0123    0.0000 H   0  0  0  0  0  0  0  0  0  0  0  0
    4.2131    3.5374    0.0000 H   0  0  0  0  0  0  0  0  0  0  0  0
    4.6116    4.2277    0.0000 H   0  0  0  0  0  0  0  0  0  0  0  0
    1.6584    4.2277    0.0000 H   0  0  0  0  0  0  0  0  0  0  0  0
    2.0569    3.5374    0.0000 H   0  0  0  0  0  0  0  0  0  0  0  0
    3.3471    2.0374    0.0000 H   0  0  0  0  0  0  0  0  0  0  0  0
    3.7456    2.7277    0.0000 H   0  0  0  0  0  0  0  0  0  0  0  0
    2.5790    7.6569    0.0000 H   0  0  0  0  0  0  0  0  0  0  0  0
    1.7320    7.4300    0.0000 H   0  0  0  0  0  0  0  0  0  0  0  0
    1.9590    6.5831    0.0000 H   0  0  0  0  0  0  0  0  0  0  0  0
    1.4030    3.2400    0.0000 H   0  0  0  0  0  0  0  0  0  0  0  0
    2.8059    0.8100    0.0000 H   0  0  0  0  0  0  0  0  0  0  0  0
    3.4641    8.4300    0.0000 H   0  0  0  0  0  0  0  0  0  0  0  0
    0.0000    2.4300    0.0000 H   0  0  0  0  0  0  0  0  0  0  0  0
    1.4030    0.0000    0.0000 H   0  0  0  0  0  0  0  0  0  0  0  0
    0.0000    0.8100    0.0000 H   0  0  0  0  0  0  0  0  0  0  0  0
    5.4040    8.3100    0.0000 H   0  0  0  0  0  0  0  0  0  0  0  0
    6.2700    9.8100    0.0000 H   0  0  0  0  0  0  0  0  0  0  0  0
    3.4641    9.8100    0.0000 H   0  0  0  0  0  0  0  0  0  0  0  0
    6.2700   11.4300    0.0000 H   0  0  0  0  0  0  0  0  0  0  0  0
    3.4641   11.4300    0.0000 H   0  0  0  0  0  0  0  0  0  0  0  0
    4.8671   12.2400    0.0000 H   0  0  0  0  0  0  0  0  0  0  0  0
   10.5390    6.9900    0.0000 H   0  0  0  0  0  0  0  0  0  0  0  0
   11.4050    5.2500    0.0000 H   0  0  0  0  0  0  0  0  0  0  0  0
    8.2700    6.0600    0.0000 H   0  0  0  0  0  0  0  0  0  0  0  0
   13.6740    6.1800    0.0000 H   0  0  0  0  0  0  0  0  0  0  0  0
  1 16  2  0  0  0  0
  2 32  1  0  0  0  0
  2 62  1  0  0  0  0
  3 33  1  0  0  0  0
  3 63  1  0  0  0  0
  4 32  2  0  0  0  0
  5 33  2  0  0  0  0
  6 11  1  0  0  0  0
  6 12  1  0  0  0  0
  6 13  1  0  0  0  0
  7  8  1  0  0  0  0
  7 14  1  0  0  0  0
  7 16  1  0  0  0  0
  8  9  1  0  0  0  0
  8 10  1  0  0  0  0
  8 34  1  0  0  0  0
  9 11  1  0  0  0  0
  9 35  1  0  0  0  0
  9 36  1  0  0  0  0
 10 12  1  0  0  0  0
 10 37  1  0  0  0  0
 10 38  1  0  0  0  0
 11 39  1  0  0  0  0
 11 40  1  0  0  0  0
 12 41  1  0  0  0  0
 12 42  1  0  0  0  0
 13 15  1  0  0  0  0
 13 43  1  0  0  0  0
 13 44  1  0  0  0  0
 14 45  1  0  0  0  0
 14 46  1  0  0  0  0
 14 47  1  0  0  0  0
 15 17  2  0  0  0  0
 15 18  1  0  0  0  0
 16 19  1  0  0  0  0
 17 20  1  0  0  0  0
 17 48  1  0  0  0  0
 18 21  2  0  0  0  0
 18 49  1  0  0  0  0
 19 23  2  0  0  0  0
 19 50  1  0  0  0  0
 20 22  2  0  0  0  0
 20 51  1  0  0  0  0
 21 22  1  0  0  0  0
 21 52  1  0  0  0  0
 22 53  1  0  0  0  0
 23 24  1  0  0  0  0
 23 54  1  0  0  0  0
 24 25  2  0  0  0  0
 24 26  1  0  0  0  0
 25 27  1  0  0  0  0
 25 55  1  0  0  0  0
 26 28  2  0  0  0  0
 26 56  1  0  0  0  0
 27 29  2  0  0  0  0
 27 57  1  0  0  0  0
 28 29  1  0  0  0  0
 28 58  1  0  0  0  0
 29 59  1  0  0  0  0
 30 31  2  0  0  0  0
 30 32  1  0  0  0  0
 30 60  1  0  0  0  0
 31 33  1  0  0  0  0
 31 61  1  0  0  0  0
M  END
> <PUBCHEM_COMPOUND_CID>
44341180

> <PUBCHEM_COMPOUND_CANONICALIZED>
1

> <PUBCHEM_CACTVS_COMPLEXITY>
546

> <PUBCHEM_CACTVS_HBOND_ACCEPTOR>
6

> <PUBCHEM_CACTVS_HBOND_DONOR>
2

> <PUBCHEM_CACTVS_ROTATABLE_BOND>
7

> <PUBCHEM_CACTVS_SUBSKEYS>
AAADceB7OAAAAAAAAAAAAAAAAAAAAAAAAAA8YIAAAAAAAAABQAAAHgAACAAADCjBmAQyCIMAAgCIAiHSGACCAAAgAAAIiAAIBMgIJCKA0RGEMAhghgCImYcQgAAOAAAAAAAAAAAAAAAAAAAAAAAAAAAAAA==

> <PUBCHEM_IUPAC_OPENEYE_NAME>
(E)-N-(1-benzyl-4-piperidyl)-N-methyl-3-phenyl-prop-2-enamide;fumaric acid

> <PUBCHEM_IUPAC_CAS_NAME>
(E)-2-butenedioic acid;(E)-N-methyl-3-phenyl-N-[1-(phenylmethyl)-4-piperidinyl]-2-propenamide

> <PUBCHEM_IUPAC_NAME_MARKUP>
(<I>E</I>)-<I>N</I>-(1-benzylpiperidin-4-yl)-<I>N</I>-methyl-3-phenylprop-2-enamide;(<I>E</I>)-but-2-enedioic acid

> <PUBCHEM_IUPAC_NAME>
(E)-N-(1-benzylpiperidin-4-yl)-N-methyl-3-phenylprop-2-enamide;(E)-but-2-enedioic acid

> <PUBCHEM_IUPAC_SYSTEMATIC_NAME>
(E)-but-2-enedioic acid;(E)-N-methyl-3-phenyl-N-[1-(phenylmethyl)piperidin-4-yl]prop-2-enamide

> <PUBCHEM_IUPAC_TRADITIONAL_NAME>
(E)-N-(1-benzyl-4-piperidyl)-N-methyl-3-phenyl-acrylamide;fumaric acid

> <PUBCHEM_IUPAC_INCHI>
InChI=1S/C22H26N2O.C4H4O4/c1-23(22(25)13-12-19-8-4-2-5-9-19)21-14-16-24(17-15-21)18-20-10-6-3-7-11-20;5-3(6)1-2-4(7)8/h2-13,21H,14-18H2,1H3;1-2H,(H,5,6)(H,7,8)/b13-12+;2-1+

> <PUBCHEM_IUPAC_INCHIKEY>
YHEPMIWHGHQJJR-IQLHMRJMSA-N

> <PUBCHEM_EXACT_MASS>
450.21547206

> <PUBCHEM_MOLECULAR_FORMULA>
C26H30N2O5

> <PUBCHEM_MOLECULAR_WEIGHT>
450.5

> <PUBCHEM_OPENEYE_CAN_SMILES>
CN(C1CCN(CC1)CC2=CC=CC=C2)C(=O)C=CC3=CC=CC=C3.C(=CC(=O)O)C(=O)O

> <PUBCHEM_OPENEYE_ISO_SMILES>
CN(C1CCN(CC1)CC2=CC=CC=C2)C(=O)/C=C/C3=CC=CC=C3.C(=C/C(=O)O)\C(=O)O

> <PUBCHEM_CACTVS_TPSA>
98.2

> <PUBCHEM_MONOISOTOPIC_WEIGHT>
450.21547206

> <PUBCHEM_TOTAL_CHARGE>
0

> <PUBCHEM_HEAVY_ATOM_COUNT>
33

> <PUBCHEM_ATOM_DEF_STEREO_COUNT>
0

> <PUBCHEM_ATOM_UDEF_STEREO_COUNT>
0

> <PUBCHEM_BOND_DEF_STEREO_COUNT>
2

> <PUBCHEM_BOND_UDEF_STEREO_COUNT>
0

> <PUBCHEM_ISOTOPIC_ATOM_COUNT>
0

> <PUBCHEM_COMPONENT_COUNT>
2

> <PUBCHEM_CACTVS_TAUTO_COUNT>
-1

> <PUBCHEM_COORDINATE_TYPE>
1
5
255

> <PUBCHEM_BONDANNOTATIONS>
15  17  8
15  18  8
17  20  8
18  21  8
20  22  8
21  22  8
24  25  8
24  26  8
25  27  8
26  28  8
27  29  8
28  29  8

$$$$
