9894665
  -OEChem-09292322102D

 82 86  0     1  0  0  0  0  0999 V2000
    8.9282   -0.2500    0.0000 O   0  0  0  0  0  0  0  0  0  0  0  0
    3.7320    0.7500    0.0000 O   0  0  0  0  0  0  0  0  0  0  0  0
   11.5263    2.2500    0.0000 O   0  0  0  0  0  0  0  0  0  0  0  0
   15.3812    2.0053    0.0000 O   0  0  0  0  0  0  0  0  0  0  0  0
   15.3812   -1.5052    0.0000 O   0  0  0  0  0  0  0  0  0  0  0  0
    7.1962    0.7500    0.0000 N   0  0  0  0  0  0  0  0  0  0  0  0
    5.4641   -0.2500    0.0000 N   0  0  0  0  0  0  0  0  0  0  0  0
   10.6603    0.7500    0.0000 N   0  0  0  0  0  0  0  0  0  0  0  0
   15.6542    0.2500    0.0000 N   0  0  0  0  0  0  0  0  0  0  0  0
   19.6542    0.2500    0.0000 N   0  0  0  0  0  0  0  0  0  0  0  0
    6.3301    1.2500    0.0000 C   0  0  0  0  0  0  0  0  0  0  0  0
    7.1962   -0.2500    0.0000 C   0  0  0  0  0  0  0  0  0  0  0  0
    5.4641    0.7500    0.0000 C   0  0  0  0  0  0  0  0  0  0  0  0
    6.3301   -0.7500    0.0000 C   0  0  0  0  0  0  0  0  0  0  0  0
    8.0622    1.2500    0.0000 C   0  0  0  0  0  0  0  0  0  0  0  0
    8.9282    0.7500    0.0000 C   0  0  2  0  0  0  0  0  0  0  0  0
    4.5981   -0.7500    0.0000 C   0  0  0  0  0  0  0  0  0  0  0  0
    9.7942    1.2500    0.0000 C   0  0  0  0  0  0  0  0  0  0  0  0
    3.7320   -0.2500    0.0000 C   0  0  0  0  0  0  0  0  0  0  0  0
    4.5981   -1.7500    0.0000 C   0  0  0  0  0  0  0  0  0  0  0  0
    2.8660   -0.7500    0.0000 C   0  0  0  0  0  0  0  0  0  0  0  0
    3.7320   -2.2500    0.0000 C   0  0  0  0  0  0  0  0  0  0  0  0
    2.8660   -1.7500    0.0000 C   0  0  0  0  0  0  0  0  0  0  0  0
   11.5263    1.2500    0.0000 C   0  0  0  0  0  0  0  0  0  0  0  0
    2.8660    1.2500    0.0000 C   0  0  0  0  0  0  0  0  0  0  0  0
   12.3923    0.7500    0.0000 C   0  0  0  0  0  0  0  0  0  0  0  0
   14.1244    0.7500    0.0000 C   0  0  0  0  0  0  0  0  0  0  0  0
   14.1244   -0.2500    0.0000 C   0  0  0  0  0  0  0  0  0  0  0  0
   13.2583    1.2500    0.0000 C   0  0  0  0  0  0  0  0  0  0  0  0
   12.3923   -0.2500    0.0000 C   0  0  0  0  0  0  0  0  0  0  0  0
    2.8660    2.2500    0.0000 C   0  0  0  0  0  0  0  0  0  0  0  0
    2.0000    0.7500    0.0000 C   0  0  0  0  0  0  0  0  0  0  0  0
   15.0706    1.0547    0.0000 C   0  0  0  0  0  0  0  0  0  0  0  0
   13.2583   -0.7500    0.0000 C   0  0  0  0  0  0  0  0  0  0  0  0
   15.0706   -0.5547    0.0000 C   0  0  0  0  0  0  0  0  0  0  0  0
   16.6542    0.2500    0.0000 C   0  0  0  0  0  0  0  0  0  0  0  0
   17.1542    1.1160    0.0000 C   0  0  0  0  0  0  0  0  0  0  0  0
   17.1542   -0.6160    0.0000 C   0  0  0  0  0  0  0  0  0  0  0  0
   18.6542    0.2500    0.0000 C   0  0  0  0  0  0  0  0  0  0  0  0
   18.1542    1.1160    0.0000 C   0  0  0  0  0  0  0  0  0  0  0  0
   18.1542   -0.6160    0.0000 C   0  0  0  0  0  0  0  0  0  0  0  0
   20.1542   -0.6160    0.0000 C   0  0  0  0  0  0  0  0  0  0  0  0
   20.1542    1.1160    0.0000 C   0  0  0  0  0  0  0  0  0  0  0  0
    6.7287    1.7250    0.0000 H   0  0  0  0  0  0  0  0  0  0  0  0
    5.9316    1.7250    0.0000 H   0  0  0  0  0  0  0  0  0  0  0  0
    7.4082   -0.8326    0.0000 H   0  0  0  0  0  0  0  0  0  0  0  0
    7.8067   -0.1423    0.0000 H   0  0  0  0  0  0  0  0  0  0  0  0
    5.2520    1.3326    0.0000 H   0  0  0  0  0  0  0  0  0  0  0  0
    4.8535    0.6423    0.0000 H   0  0  0  0  0  0  0  0  0  0  0  0
    5.9316   -1.2250    0.0000 H   0  0  0  0  0  0  0  0  0  0  0  0
    6.7287   -1.2250    0.0000 H   0  0  0  0  0  0  0  0  0  0  0  0
    8.4607    1.7250    0.0000 H   0  0  0  0  0  0  0  0  0  0  0  0
    7.6636    1.7250    0.0000 H   0  0  0  0  0  0  0  0  0  0  0  0
    9.4651    0.4400    0.0000 H   0  0  0  0  0  0  0  0  0  0  0  0
   10.1928    1.7250    0.0000 H   0  0  0  0  0  0  0  0  0  0  0  0
    9.3957    1.7250    0.0000 H   0  0  0  0  0  0  0  0  0  0  0  0
    5.1350   -2.0600    0.0000 H   0  0  0  0  0  0  0  0  0  0  0  0
    9.4651   -0.5600    0.0000 H   0  0  0  0  0  0  0  0  0  0  0  0
   10.6603    0.1300    0.0000 H   0  0  0  0  0  0  0  0  0  0  0  0
    2.3291   -0.4400    0.0000 H   0  0  0  0  0  0  0  0  0  0  0  0
    3.7320   -2.8700    0.0000 H   0  0  0  0  0  0  0  0  0  0  0  0
    2.3291   -2.0600    0.0000 H   0  0  0  0  0  0  0  0  0  0  0  0
    2.8660    0.6300    0.0000 H   0  0  0  0  0  0  0  0  0  0  0  0
   13.2583    1.8700    0.0000 H   0  0  0  0  0  0  0  0  0  0  0  0
   11.8554   -0.5600    0.0000 H   0  0  0  0  0  0  0  0  0  0  0  0
    3.4860    2.2500    0.0000 H   0  0  0  0  0  0  0  0  0  0  0  0
    2.8660    2.8700    0.0000 H   0  0  0  0  0  0  0  0  0  0  0  0
    2.2460    2.2500    0.0000 H   0  0  0  0  0  0  0  0  0  0  0  0
    1.6900    1.2869    0.0000 H   0  0  0  0  0  0  0  0  0  0  0  0
    1.4631    0.4400    0.0000 H   0  0  0  0  0  0  0  0  0  0  0  0
    2.3100    0.2131    0.0000 H   0  0  0  0  0  0  0  0  0  0  0  0
   13.2583   -1.3700    0.0000 H   0  0  0  0  0  0  0  0  0  0  0  0
   16.8442    1.6530    0.0000 H   0  0  0  0  0  0  0  0  0  0  0  0
   16.8442   -1.1530    0.0000 H   0  0  0  0  0  0  0  0  0  0  0  0
   18.4642    1.6530    0.0000 H   0  0  0  0  0  0  0  0  0  0  0  0
   18.4642   -1.1530    0.0000 H   0  0  0  0  0  0  0  0  0  0  0  0
   19.6172   -0.9260    0.0000 H   0  0  0  0  0  0  0  0  0  0  0  0
   20.4642   -1.1530    0.0000 H   0  0  0  0  0  0  0  0  0  0  0  0
   20.6911   -0.3060    0.0000 H   0  0  0  0  0  0  0  0  0  0  0  0
   20.6911    0.8060    0.0000 H   0  0  0  0  0  0  0  0  0  0  0  0
   20.4642    1.6530    0.0000 H   0  0  0  0  0  0  0  0  0  0  0  0
   19.6172    1.4260    0.0000 H   0  0  0  0  0  0  0  0  0  0  0  0
 16  1  1  6  0  0  0
  1 58  1  0  0  0  0
  2 19  1  0  0  0  0
  2 25  1  0  0  0  0
  3 24  2  0  0  0  0
  4 33  2  0  0  0  0
  5 35  2  0  0  0  0
  6 11  1  0  0  0  0
  6 12  1  0  0  0  0
  6 15  1  0  0  0  0
  7 13  1  0  0  0  0
  7 14  1  0  0  0  0
  7 17  1  0  0  0  0
  8 18  1  0  0  0  0
  8 24  1  0  0  0  0
  8 59  1  0  0  0  0
  9 33  1  0  0  0  0
  9 35  1  0  0  0  0
  9 36  1  0  0  0  0
 10 39  1  0  0  0  0
 10 42  1  0  0  0  0
 10 43  1  0  0  0  0
 11 13  1  0  0  0  0
 11 44  1  0  0  0  0
 11 45  1  0  0  0  0
 12 14  1  0  0  0  0
 12 46  1  0  0  0  0
 12 47  1  0  0  0  0
 13 48  1  0  0  0  0
 13 49  1  0  0  0  0
 14 50  1  0  0  0  0
 14 51  1  0  0  0  0
 15 16  1  0  0  0  0
 15 52  1  0  0  0  0
 15 53  1  0  0  0  0
 16 18  1  0  0  0  0
 16 54  1  0  0  0  0
 17 19  1  0  0  0  0
 17 20  2  0  0  0  0
 18 55  1  0  0  0  0
 18 56  1  0  0  0  0
 19 21  2  0  0  0  0
 20 22  1  0  0  0  0
 20 57  1  0  0  0  0
 21 23  1  0  0  0  0
 21 60  1  0  0  0  0
 22 23  2  0  0  0  0
 22 61  1  0  0  0  0
 23 62  1  0  0  0  0
 24 26  1  0  0  0  0
 25 31  1  0  0  0  0
 25 32  1  0  0  0  0
 25 63  1  0  0  0  0
 26 29  2  0  0  0  0
 26 30  1  0  0  0  0
 27 28  2  0  0  0  0
 27 29  1  0  0  0  0
 27 33  1  0  0  0  0
 28 34  1  0  0  0  0
 28 35  1  0  0  0  0
 29 64  1  0  0  0  0
 30 34  2  0  0  0  0
 30 65  1  0  0  0  0
 31 66  1  0  0  0  0
 31 67  1  0  0  0  0
 31 68  1  0  0  0  0
 32 69  1  0  0  0  0
 32 70  1  0  0  0  0
 32 71  1  0  0  0  0
 34 72  1  0  0  0  0
 36 37  2  0  0  0  0
 36 38  1  0  0  0  0
 37 40  1  0  0  0  0
 37 73  1  0  0  0  0
 38 41  2  0  0  0  0
 38 74  1  0  0  0  0
 39 40  2  0  0  0  0
 39 41  1  0  0  0  0
 40 75  1  0  0  0  0
 41 76  1  0  0  0  0
 42 77  1  0  0  0  0
 42 78  1  0  0  0  0
 42 79  1  0  0  0  0
 43 80  1  0  0  0  0
 43 81  1  0  0  0  0
 43 82  1  0  0  0  0
M  END
> <PUBCHEM_COMPOUND_CID>
9894665

> <PUBCHEM_COMPOUND_CANONICALIZED>
1

> <PUBCHEM_CACTVS_COMPLEXITY>
961

> <PUBCHEM_CACTVS_HBOND_ACCEPTOR>
8

> <PUBCHEM_CACTVS_HBOND_DONOR>
2

> <PUBCHEM_CACTVS_ROTATABLE_BOND>
10

> <PUBCHEM_CACTVS_SUBSKEYS>
AAADcfB/uAAAAAAAAAAAAAAAAAAAAWAAAAA8YMEAAAAAAFgBUAAAHgAQCAAADBzhmAYyxoPABgCIAiVSUACCCAAlIgAIiIEPbMgOdjLE9ZuXOSjk1jHY6Yedy8COwACCAAAQEACAAQQAACAgAAAAAAAAAA==

> <PUBCHEM_IUPAC_OPENEYE_NAME>
2-[4-(dimethylamino)phenyl]-N-[(2S)-2-hydroxy-3-[4-(2-isopropoxyphenyl)piperazin-1-yl]propyl]-1,3-dioxo-isoindoline-5-carboxamide

> <PUBCHEM_IUPAC_CAS_NAME>
2-[4-(dimethylamino)phenyl]-N-[(2S)-2-hydroxy-3-[4-(2-propan-2-yloxyphenyl)-1-piperazinyl]propyl]-1,3-dioxo-5-isoindolecarboxamide

> <PUBCHEM_IUPAC_NAME_MARKUP>
2-[4-(dimethylamino)phenyl]-<I>N</I>-[(2<I>S</I>)-2-hydroxy-3-[4-(2-propan-2-yloxyphenyl)piperazin-1-yl]propyl]-1,3-dioxoisoindole-5-carboxamide

> <PUBCHEM_IUPAC_NAME>
2-[4-(dimethylamino)phenyl]-N-[(2S)-2-hydroxy-3-[4-(2-propan-2-yloxyphenyl)piperazin-1-yl]propyl]-1,3-dioxoisoindole-5-carboxamide

> <PUBCHEM_IUPAC_SYSTEMATIC_NAME>
2-[4-(dimethylamino)phenyl]-1,3-bis(oxidanylidene)-N-[(2S)-2-oxidanyl-3-[4-(2-propan-2-yloxyphenyl)piperazin-1-yl]propyl]isoindole-5-carboxamide

> <PUBCHEM_IUPAC_TRADITIONAL_NAME>
2-[4-(dimethylamino)phenyl]-N-[(2S)-2-hydroxy-3-[4-(2-isopropoxyphenyl)piperazino]propyl]-1,3-diketo-isoindoline-5-carboxamide

> <PUBCHEM_IUPAC_INCHI>
InChI=1S/C33H39N5O5/c1-22(2)43-30-8-6-5-7-29(30)37-17-15-36(16-18-37)21-26(39)20-34-31(40)23-9-14-27-28(19-23)33(42)38(32(27)41)25-12-10-24(11-13-25)35(3)4/h5-14,19,22,26,39H,15-18,20-21H2,1-4H3,(H,34,40)/t26-/m0/s1

> <PUBCHEM_IUPAC_INCHIKEY>
LQTJOPPTSIYEES-SANMLTNESA-N

> <PUBCHEM_XLOGP3_AA>
3.6

> <PUBCHEM_EXACT_MASS>
585.29511936

> <PUBCHEM_MOLECULAR_FORMULA>
C33H39N5O5

> <PUBCHEM_MOLECULAR_WEIGHT>
585.7

> <PUBCHEM_OPENEYE_CAN_SMILES>
CC(C)OC1=CC=CC=C1N2CCN(CC2)CC(CNC(=O)C3=CC4=C(C=C3)C(=O)N(C4=O)C5=CC=C(C=C5)N(C)C)O

> <PUBCHEM_OPENEYE_ISO_SMILES>
CC(C)OC1=CC=CC=C1N2CCN(CC2)C[C@H](CNC(=O)C3=CC4=C(C=C3)C(=O)N(C4=O)C5=CC=C(C=C5)N(C)C)O

> <PUBCHEM_CACTVS_TPSA>
106

> <PUBCHEM_MONOISOTOPIC_WEIGHT>
585.29511936

> <PUBCHEM_TOTAL_CHARGE>
0

> <PUBCHEM_HEAVY_ATOM_COUNT>
43

> <PUBCHEM_ATOM_DEF_STEREO_COUNT>
1

> <PUBCHEM_ATOM_UDEF_STEREO_COUNT>
0

> <PUBCHEM_BOND_DEF_STEREO_COUNT>
0

> <PUBCHEM_BOND_UDEF_STEREO_COUNT>
0

> <PUBCHEM_ISOTOPIC_ATOM_COUNT>
0

> <PUBCHEM_COMPONENT_COUNT>
1

> <PUBCHEM_CACTVS_TAUTO_COUNT>
-1

> <PUBCHEM_COORDINATE_TYPE>
1
5
255

> <PUBCHEM_BONDANNOTATIONS>
16  1  6
17  19  8
17  20  8
19  21  8
20  22  8
21  23  8
22  23  8
26  29  8
26  30  8
27  28  8
27  29  8
28  34  8
30  34  8
36  37  8
36  38  8
37  40  8
38  41  8
39  40  8
39  41  8

$$$$
