24768522
  -OEChem-09292322462D

 72 75  0     1  0  0  0  0  0999 V2000
    8.9282    2.4827    0.0000 O   0  0  0  0  0  0  0  0  0  0  0  0
    2.0000   -2.5173    0.0000 O   0  0  0  0  0  0  0  0  0  0  0  0
    7.1962   -2.5173    0.0000 N   0  0  0  0  0  0  0  0  0  0  0  0
    5.4641   -3.5173    0.0000 N   0  0  0  0  0  0  0  0  0  0  0  0
   10.6603    2.4827    0.0000 N   0  0  0  0  0  0  0  0  0  0  0  0
    3.7320   -2.5173    0.0000 N   0  0  0  0  0  0  0  0  0  0  0  0
    6.3301   -2.0173    0.0000 C   0  0  0  0  0  0  0  0  0  0  0  0
    7.1962   -3.5173    0.0000 C   0  0  0  0  0  0  0  0  0  0  0  0
   10.6603    3.4827    0.0000 C   0  0  3  0  0  0  0  0  0  0  0  0
    5.4641   -2.5173    0.0000 C   0  0  0  0  0  0  0  0  0  0  0  0
    6.3301   -4.0173    0.0000 C   0  0  0  0  0  0  0  0  0  0  0  0
    8.0622   -2.0173    0.0000 C   0  0  0  0  0  0  0  0  0  0  0  0
    9.7942    3.9827    0.0000 C   0  0  0  0  0  0  0  0  0  0  0  0
    8.0622   -1.0173    0.0000 C   0  0  0  0  0  0  0  0  0  0  0  0
    9.7942    4.9827    0.0000 C   0  0  0  0  0  0  0  0  0  0  0  0
   11.5263    3.9827    0.0000 C   0  0  0  0  0  0  0  0  0  0  0  0
   10.6603    5.4827    0.0000 C   0  0  0  0  0  0  0  0  0  0  0  0
    8.9282   -0.5173    0.0000 C   0  0  0  0  0  0  0  0  0  0  0  0
   11.5263    4.9827    0.0000 C   0  0  0  0  0  0  0  0  0  0  0  0
    8.9282    0.4827    0.0000 C   0  0  0  0  0  0  0  0  0  0  0  0
    4.5981   -4.0173    0.0000 C   0  0  0  0  0  0  0  0  0  0  0  0
    9.7942    0.9827    0.0000 C   0  0  0  0  0  0  0  0  0  0  0  0
    9.7942    1.9827    0.0000 C   0  0  0  0  0  0  0  0  0  0  0  0
   12.4202    3.4480    0.0000 C   0  0  0  0  0  0  0  0  0  0  0  0
   12.4202    5.5173    0.0000 C   0  0  0  0  0  0  0  0  0  0  0  0
    3.7320   -3.5173    0.0000 C   0  0  0  0  0  0  0  0  0  0  0  0
    4.5981   -5.0173    0.0000 C   0  0  0  0  0  0  0  0  0  0  0  0
   13.3263    3.9618    0.0000 C   0  0  0  0  0  0  0  0  0  0  0  0
   13.3263    5.0035    0.0000 C   0  0  0  0  0  0  0  0  0  0  0  0
    2.8660   -4.0173    0.0000 C   0  0  0  0  0  0  0  0  0  0  0  0
    3.7320   -5.5173    0.0000 C   0  0  0  0  0  0  0  0  0  0  0  0
    2.8660   -5.0173    0.0000 C   0  0  0  0  0  0  0  0  0  0  0  0
    2.8660   -2.0173    0.0000 C   0  0  0  0  0  0  0  0  0  0  0  0
    2.8660   -1.0173    0.0000 C   0  0  0  0  0  0  0  0  0  0  0  0
    6.7287   -1.5424    0.0000 H   0  0  0  0  0  0  0  0  0  0  0  0
    5.9316   -1.5424    0.0000 H   0  0  0  0  0  0  0  0  0  0  0  0
    7.4082   -4.0999    0.0000 H   0  0  0  0  0  0  0  0  0  0  0  0
    7.8067   -3.4097    0.0000 H   0  0  0  0  0  0  0  0  0  0  0  0
   11.1972    3.1727    0.0000 H   0  0  0  0  0  0  0  0  0  0  0  0
    5.2520   -1.9347    0.0000 H   0  0  0  0  0  0  0  0  0  0  0  0
    4.8535   -2.6250    0.0000 H   0  0  0  0  0  0  0  0  0  0  0  0
    5.9316   -4.4923    0.0000 H   0  0  0  0  0  0  0  0  0  0  0  0
    6.7287   -4.4923    0.0000 H   0  0  0  0  0  0  0  0  0  0  0  0
    8.2742   -2.5999    0.0000 H   0  0  0  0  0  0  0  0  0  0  0  0
    8.6728   -1.9097    0.0000 H   0  0  0  0  0  0  0  0  0  0  0  0
    9.1836    4.0903    0.0000 H   0  0  0  0  0  0  0  0  0  0  0  0
    9.5822    3.4001    0.0000 H   0  0  0  0  0  0  0  0  0  0  0  0
    7.8501   -0.4347    0.0000 H   0  0  0  0  0  0  0  0  0  0  0  0
    7.4516   -1.1250    0.0000 H   0  0  0  0  0  0  0  0  0  0  0  0
    9.5822    5.5653    0.0000 H   0  0  0  0  0  0  0  0  0  0  0  0
    9.1836    4.8750    0.0000 H   0  0  0  0  0  0  0  0  0  0  0  0
   11.0588    5.9576    0.0000 H   0  0  0  0  0  0  0  0  0  0  0  0
   10.2617    5.9576    0.0000 H   0  0  0  0  0  0  0  0  0  0  0  0
    9.1403   -1.0999    0.0000 H   0  0  0  0  0  0  0  0  0  0  0  0
    9.5388   -0.4097    0.0000 H   0  0  0  0  0  0  0  0  0  0  0  0
    8.7162    1.0653    0.0000 H   0  0  0  0  0  0  0  0  0  0  0  0
    8.3176    0.3750    0.0000 H   0  0  0  0  0  0  0  0  0  0  0  0
   11.1972    2.1727    0.0000 H   0  0  0  0  0  0  0  0  0  0  0  0
   10.0063    0.4001    0.0000 H   0  0  0  0  0  0  0  0  0  0  0  0
   10.4048    1.0903    0.0000 H   0  0  0  0  0  0  0  0  0  0  0  0
   12.4131    2.8280    0.0000 H   0  0  0  0  0  0  0  0  0  0  0  0
   12.4131    6.1373    0.0000 H   0  0  0  0  0  0  0  0  0  0  0  0
    5.1350   -5.3273    0.0000 H   0  0  0  0  0  0  0  0  0  0  0  0
   13.8620    3.6498    0.0000 H   0  0  0  0  0  0  0  0  0  0  0  0
   13.8620    5.3156    0.0000 H   0  0  0  0  0  0  0  0  0  0  0  0
    2.3291   -3.7073    0.0000 H   0  0  0  0  0  0  0  0  0  0  0  0
    3.7320   -6.1373    0.0000 H   0  0  0  0  0  0  0  0  0  0  0  0
    4.2690   -2.2073    0.0000 H   0  0  0  0  0  0  0  0  0  0  0  0
    2.3291   -5.3273    0.0000 H   0  0  0  0  0  0  0  0  0  0  0  0
    3.4860   -1.0173    0.0000 H   0  0  0  0  0  0  0  0  0  0  0  0
    2.8660   -0.3973    0.0000 H   0  0  0  0  0  0  0  0  0  0  0  0
    2.2460   -1.0173    0.0000 H   0  0  0  0  0  0  0  0  0  0  0  0
  1 23  2  0  0  0  0
  2 33  2  0  0  0  0
  3  7  1  0  0  0  0
  3  8  1  0  0  0  0
  3 12  1  0  0  0  0
  4 10  1  0  0  0  0
  4 11  1  0  0  0  0
  4 21  1  0  0  0  0
  5  9  1  0  0  0  0
  5 23  1  0  0  0  0
  5 58  1  0  0  0  0
  6 26  1  0  0  0  0
  6 33  1  0  0  0  0
  6 68  1  0  0  0  0
  7 10  1  0  0  0  0
  7 35  1  0  0  0  0
  7 36  1  0  0  0  0
  8 11  1  0  0  0  0
  8 37  1  0  0  0  0
  8 38  1  0  0  0  0
  9 13  1  0  0  0  0
  9 16  1  0  0  0  0
  9 39  1  0  0  0  0
 10 40  1  0  0  0  0
 10 41  1  0  0  0  0
 11 42  1  0  0  0  0
 11 43  1  0  0  0  0
 12 14  1  0  0  0  0
 12 44  1  0  0  0  0
 12 45  1  0  0  0  0
 13 15  1  0  0  0  0
 13 46  1  0  0  0  0
 13 47  1  0  0  0  0
 14 18  1  0  0  0  0
 14 48  1  0  0  0  0
 14 49  1  0  0  0  0
 15 17  1  0  0  0  0
 15 50  1  0  0  0  0
 15 51  1  0  0  0  0
 16 19  1  0  0  0  0
 16 24  2  0  0  0  0
 17 19  1  0  0  0  0
 17 52  1  0  0  0  0
 17 53  1  0  0  0  0
 18 20  1  0  0  0  0
 18 54  1  0  0  0  0
 18 55  1  0  0  0  0
 19 25  2  0  0  0  0
 20 22  1  0  0  0  0
 20 56  1  0  0  0  0
 20 57  1  0  0  0  0
 21 26  1  0  0  0  0
 21 27  2  0  0  0  0
 22 23  1  0  0  0  0
 22 59  1  0  0  0  0
 22 60  1  0  0  0  0
 24 28  1  0  0  0  0
 24 61  1  0  0  0  0
 25 29  1  0  0  0  0
 25 62  1  0  0  0  0
 26 30  2  0  0  0  0
 27 31  1  0  0  0  0
 27 63  1  0  0  0  0
 28 29  2  0  0  0  0
 28 64  1  0  0  0  0
 29 65  1  0  0  0  0
 30 32  1  0  0  0  0
 30 66  1  0  0  0  0
 31 32  2  0  0  0  0
 31 67  1  0  0  0  0
 32 69  1  0  0  0  0
 33 34  1  0  0  0  0
 34 70  1  0  0  0  0
 34 71  1  0  0  0  0
 34 72  1  0  0  0  0
M  END
> <PUBCHEM_COMPOUND_CID>
24768522

> <PUBCHEM_COMPOUND_CANONICALIZED>
1

> <PUBCHEM_CACTVS_COMPLEXITY>
648

> <PUBCHEM_CACTVS_HBOND_ACCEPTOR>
4

> <PUBCHEM_CACTVS_HBOND_DONOR>
2

> <PUBCHEM_CACTVS_ROTATABLE_BOND>
9

> <PUBCHEM_CACTVS_SUBSKEYS>
AAADcfB7sAAAAAAAAAAAAAAAAAAAAAAAAAA8YMEAAAAAAADBQAAAHgAQAAAADCjBmAQywIPAAACIAiVSUACCAAAhAgAIiIEIdIgIYDLAkZGUIAhglgDIyAcYiIAOgAAAAAAQACAAAACAACQAQAAAAAAAAA==

> <PUBCHEM_IUPAC_OPENEYE_NAME>
6-[4-(2-acetamidophenyl)piperazin-1-yl]-N-tetralin-1-yl-hexanamide

> <PUBCHEM_IUPAC_CAS_NAME>
6-[4-(2-acetamidophenyl)-1-piperazinyl]-N-(1,2,3,4-tetrahydronaphthalen-1-yl)hexanamide

> <PUBCHEM_IUPAC_NAME_MARKUP>
6-[4-(2-acetamidophenyl)piperazin-1-yl]-<I>N</I>-(1,2,3,4-tetrahydronaphthalen-1-yl)hexanamide

> <PUBCHEM_IUPAC_NAME>
6-[4-(2-acetamidophenyl)piperazin-1-yl]-N-(1,2,3,4-tetrahydronaphthalen-1-yl)hexanamide

> <PUBCHEM_IUPAC_SYSTEMATIC_NAME>
6-[4-(2-acetamidophenyl)piperazin-1-yl]-N-(1,2,3,4-tetrahydronaphthalen-1-yl)hexanamide

> <PUBCHEM_IUPAC_TRADITIONAL_NAME>
6-[4-(2-acetamidophenyl)piperazino]-N-tetralin-1-yl-hexanamide

> <PUBCHEM_IUPAC_INCHI>
InChI=1S/C28H38N4O2/c1-22(33)29-26-13-6-7-15-27(26)32-20-18-31(19-21-32)17-8-2-3-16-28(34)30-25-14-9-11-23-10-4-5-12-24(23)25/h4-7,10,12-13,15,25H,2-3,8-9,11,14,16-21H2,1H3,(H,29,33)(H,30,34)

> <PUBCHEM_IUPAC_INCHIKEY>
DFLMNRNLACOXKM-UHFFFAOYSA-N

> <PUBCHEM_XLOGP3_AA>
3.6

> <PUBCHEM_EXACT_MASS>
462.29947647

> <PUBCHEM_MOLECULAR_FORMULA>
C28H38N4O2

> <PUBCHEM_MOLECULAR_WEIGHT>
462.6

> <PUBCHEM_OPENEYE_CAN_SMILES>
CC(=O)NC1=CC=CC=C1N2CCN(CC2)CCCCCC(=O)NC3CCCC4=CC=CC=C34

> <PUBCHEM_OPENEYE_ISO_SMILES>
CC(=O)NC1=CC=CC=C1N2CCN(CC2)CCCCCC(=O)NC3CCCC4=CC=CC=C34

> <PUBCHEM_CACTVS_TPSA>
64.7

> <PUBCHEM_MONOISOTOPIC_WEIGHT>
462.29947647

> <PUBCHEM_TOTAL_CHARGE>
0

> <PUBCHEM_HEAVY_ATOM_COUNT>
34

> <PUBCHEM_ATOM_DEF_STEREO_COUNT>
0

> <PUBCHEM_ATOM_UDEF_STEREO_COUNT>
1

> <PUBCHEM_BOND_DEF_STEREO_COUNT>
0

> <PUBCHEM_BOND_UDEF_STEREO_COUNT>
0

> <PUBCHEM_ISOTOPIC_ATOM_COUNT>
0

> <PUBCHEM_COMPONENT_COUNT>
1

> <PUBCHEM_CACTVS_TAUTO_COUNT>
-1

> <PUBCHEM_COORDINATE_TYPE>
1
5
255

> <PUBCHEM_BONDANNOTATIONS>
16  19  8
16  24  8
19  25  8
21  26  8
21  27  8
24  28  8
25  29  8
26  30  8
27  31  8
28  29  8
30  32  8
31  32  8
9  5  3

$$$$
