72736378
  -OEChem-09292322342D

 61 63  0     1  0  0  0  0  0999 V2000
   11.5942    0.0427    0.0000 O   0  0  0  0  0  0  0  0  0  0  0  0
    5.5321    0.5427    0.0000 N   0  0  3  0  0  0  0  0  0  0  0  0
   10.7282   -1.4573    0.0000 N   0  0  0  0  0  0  0  0  0  0  0  0
   12.4603   -1.4573    0.0000 N   0  0  0  0  0  0  0  0  0  0  0  0
    8.1301    0.0427    0.0000 C   0  0  0  0  0  0  0  0  0  0  0  0
    8.9962    0.5427    0.0000 C   0  0  0  0  0  0  0  0  0  0  0  0
    8.1301   -0.9573    0.0000 C   0  0  0  0  0  0  0  0  0  0  0  0
    9.8622   -0.9573    0.0000 C   0  0  0  0  0  0  0  0  0  0  0  0
    9.8622    0.0427    0.0000 C   0  0  0  0  0  0  0  0  0  0  0  0
    8.9962   -1.4573    0.0000 C   0  0  0  0  0  0  0  0  0  0  0  0
    7.2641    0.5427    0.0000 C   0  0  0  0  0  0  0  0  0  0  0  0
    6.3981    0.0427    0.0000 C   0  0  0  0  0  0  0  0  0  0  0  0
    5.5321    1.5427    0.0000 C   0  0  0  0  0  0  0  0  0  0  0  0
    4.6660    0.0427    0.0000 C   0  0  0  0  0  0  0  0  0  0  0  0
    4.6660    2.0427    0.0000 C   0  0  0  0  0  0  0  0  0  0  0  0
    3.8000    0.5427    0.0000 C   0  0  0  0  0  0  0  0  0  0  0  0
    3.8000    1.5427    0.0000 C   0  0  0  0  0  0  0  0  0  0  0  0
   11.5942   -0.9573    0.0000 C   0  0  0  0  0  0  0  0  0  0  0  0
   13.3263   -0.9573    0.0000 C   0  0  0  0  0  0  0  0  0  0  0  0
    2.9061    0.0080    0.0000 C   0  0  0  0  0  0  0  0  0  0  0  0
    2.9061    2.0773    0.0000 C   0  0  0  0  0  0  0  0  0  0  0  0
    2.0000    0.5219    0.0000 C   0  0  0  0  0  0  0  0  0  0  0  0
    2.0000    1.5635    0.0000 C   0  0  0  0  0  0  0  0  0  0  0  0
   14.1923   -0.4573    0.0000 C   0  0  0  0  0  0  0  0  0  0  0  0
   13.8263   -1.8234    0.0000 C   0  0  0  0  0  0  0  0  0  0  0  0
   12.8263   -0.0913    0.0000 C   0  0  0  0  0  0  0  0  0  0  0  0
    7.5932   -0.2673    0.0000 H   0  0  0  0  0  0  0  0  0  0  0  0
    9.3947    1.0176    0.0000 H   0  0  0  0  0  0  0  0  0  0  0  0
    8.5976    1.0176    0.0000 H   0  0  0  0  0  0  0  0  0  0  0  0
    7.5196   -0.8497    0.0000 H   0  0  0  0  0  0  0  0  0  0  0  0
    7.9181   -1.5399    0.0000 H   0  0  0  0  0  0  0  0  0  0  0  0
    9.8622   -1.5773    0.0000 H   0  0  0  0  0  0  0  0  0  0  0  0
   10.4728   -0.0650    0.0000 H   0  0  0  0  0  0  0  0  0  0  0  0
   10.0742    0.6253    0.0000 H   0  0  0  0  0  0  0  0  0  0  0  0
    8.5976   -1.9323    0.0000 H   0  0  0  0  0  0  0  0  0  0  0  0
    9.3947   -1.9323    0.0000 H   0  0  0  0  0  0  0  0  0  0  0  0
    7.6626    1.0176    0.0000 H   0  0  0  0  0  0  0  0  0  0  0  0
    6.8656    1.0176    0.0000 H   0  0  0  0  0  0  0  0  0  0  0  0
    5.9996   -0.4323    0.0000 H   0  0  0  0  0  0  0  0  0  0  0  0
    6.7966   -0.4323    0.0000 H   0  0  0  0  0  0  0  0  0  0  0  0
   10.7282   -2.0773    0.0000 H   0  0  0  0  0  0  0  0  0  0  0  0
    6.1426    1.4350    0.0000 H   0  0  0  0  0  0  0  0  0  0  0  0
    5.7441    2.1253    0.0000 H   0  0  0  0  0  0  0  0  0  0  0  0
    4.2675   -0.4323    0.0000 H   0  0  0  0  0  0  0  0  0  0  0  0
    5.0646   -0.4323    0.0000 H   0  0  0  0  0  0  0  0  0  0  0  0
    5.0646    2.5176    0.0000 H   0  0  0  0  0  0  0  0  0  0  0  0
    4.2675    2.5176    0.0000 H   0  0  0  0  0  0  0  0  0  0  0  0
   12.4603   -2.0773    0.0000 H   0  0  0  0  0  0  0  0  0  0  0  0
    2.9132   -0.6120    0.0000 H   0  0  0  0  0  0  0  0  0  0  0  0
    2.9132    2.6973    0.0000 H   0  0  0  0  0  0  0  0  0  0  0  0
    1.4643    0.2098    0.0000 H   0  0  0  0  0  0  0  0  0  0  0  0
    1.4643    1.8756    0.0000 H   0  0  0  0  0  0  0  0  0  0  0  0
   14.5023   -0.9943    0.0000 H   0  0  0  0  0  0  0  0  0  0  0  0
   14.7292   -0.1473    0.0000 H   0  0  0  0  0  0  0  0  0  0  0  0
   13.8823    0.0796    0.0000 H   0  0  0  0  0  0  0  0  0  0  0  0
   13.2894   -2.1334    0.0000 H   0  0  0  0  0  0  0  0  0  0  0  0
   14.1363   -2.3603    0.0000 H   0  0  0  0  0  0  0  0  0  0  0  0
   14.3632   -1.5134    0.0000 H   0  0  0  0  0  0  0  0  0  0  0  0
   13.3632    0.2187    0.0000 H   0  0  0  0  0  0  0  0  0  0  0  0
   12.5163    0.4456    0.0000 H   0  0  0  0  0  0  0  0  0  0  0  0
   12.2894   -0.4013    0.0000 H   0  0  0  0  0  0  0  0  0  0  0  0
  1 18  2  0  0  0  0
  2 12  1  0  0  0  0
  2 13  1  0  0  0  0
  2 14  1  0  0  0  0
  3  8  1  0  0  0  0
  3 18  1  0  0  0  0
  3 41  1  0  0  0  0
  4 18  1  0  0  0  0
  4 19  1  0  0  0  0
  4 48  1  0  0  0  0
  5  6  1  0  0  0  0
  5  7  1  0  0  0  0
  5 11  1  0  0  0  0
  5 27  1  0  0  0  0
  6  9  1  0  0  0  0
  6 28  1  0  0  0  0
  6 29  1  0  0  0  0
  7 10  1  0  0  0  0
  7 30  1  0  0  0  0
  7 31  1  0  0  0  0
  8  9  1  0  0  0  0
  8 10  1  0  0  0  0
  8 32  1  0  0  0  0
  9 33  1  0  0  0  0
  9 34  1  0  0  0  0
 10 35  1  0  0  0  0
 10 36  1  0  0  0  0
 11 12  1  0  0  0  0
 11 37  1  0  0  0  0
 11 38  1  0  0  0  0
 12 39  1  0  0  0  0
 12 40  1  0  0  0  0
 13 15  1  0  0  0  0
 13 42  1  0  0  0  0
 13 43  1  0  0  0  0
 14 16  1  0  0  0  0
 14 44  1  0  0  0  0
 14 45  1  0  0  0  0
 15 17  1  0  0  0  0
 15 46  1  0  0  0  0
 15 47  1  0  0  0  0
 16 17  1  0  0  0  0
 16 20  2  0  0  0  0
 17 21  2  0  0  0  0
 19 24  1  0  0  0  0
 19 25  1  0  0  0  0
 19 26  1  0  0  0  0
 20 22  1  0  0  0  0
 20 49  1  0  0  0  0
 21 23  1  0  0  0  0
 21 50  1  0  0  0  0
 22 23  2  0  0  0  0
 22 51  1  0  0  0  0
 23 52  1  0  0  0  0
 24 53  1  0  0  0  0
 24 54  1  0  0  0  0
 24 55  1  0  0  0  0
 25 56  1  0  0  0  0
 25 57  1  0  0  0  0
 25 58  1  0  0  0  0
 26 59  1  0  0  0  0
 26 60  1  0  0  0  0
 26 61  1  0  0  0  0
M  END
> <PUBCHEM_COMPOUND_CID>
72736378

> <PUBCHEM_COMPOUND_CANONICALIZED>
1

> <PUBCHEM_CACTVS_COMPLEXITY>
451

> <PUBCHEM_CACTVS_HBOND_ACCEPTOR>
2

> <PUBCHEM_CACTVS_HBOND_DONOR>
2

> <PUBCHEM_CACTVS_ROTATABLE_BOND>
5

> <PUBCHEM_CACTVS_SUBSKEYS>
AAADcfB7IAAAAAAAAAAAAAAAAAAAAAAAAAA8YIAAAAAAAACxAAAAHgAQAAAADajBGAQzAIPAAACIAiBCEACCAAAgAAAIiIAIBIiIICKAkRGEIAholgKIiAcQgIAOgAAAAAAQAAAQAAAAACAAAAAAAAAAAA==

> <PUBCHEM_IUPAC_OPENEYE_NAME>
1-tert-butyl-3-[4-[2-(3,4-dihydro-1H-isoquinolin-2-yl)ethyl]cyclohexyl]urea

> <PUBCHEM_IUPAC_CAS_NAME>
1-tert-butyl-3-[4-[2-(3,4-dihydro-1H-isoquinolin-2-yl)ethyl]cyclohexyl]urea

> <PUBCHEM_IUPAC_NAME_MARKUP>
1-<I>tert</I>-butyl-3-[4-[2-(3,4-dihydro-1<I>H</I>-isoquinolin-2-yl)ethyl]cyclohexyl]urea

> <PUBCHEM_IUPAC_NAME>
1-tert-butyl-3-[4-[2-(3,4-dihydro-1H-isoquinolin-2-yl)ethyl]cyclohexyl]urea

> <PUBCHEM_IUPAC_SYSTEMATIC_NAME>
1-tert-butyl-3-[4-[2-(3,4-dihydro-1H-isoquinolin-2-yl)ethyl]cyclohexyl]urea

> <PUBCHEM_IUPAC_TRADITIONAL_NAME>
1-tert-butyl-3-[4-[2-(3,4-dihydro-1H-isoquinolin-2-yl)ethyl]cyclohexyl]urea

> <PUBCHEM_IUPAC_INCHI>
InChI=1S/C22H35N3O/c1-22(2,3)24-21(26)23-20-10-8-17(9-11-20)12-14-25-15-13-18-6-4-5-7-19(18)16-25/h4-7,17,20H,8-16H2,1-3H3,(H2,23,24,26)

> <PUBCHEM_IUPAC_INCHIKEY>
ZEQMTWIDCFWVDG-UHFFFAOYSA-N

> <PUBCHEM_XLOGP3_AA>
3.8

> <PUBCHEM_EXACT_MASS>
357.278012748

> <PUBCHEM_MOLECULAR_FORMULA>
C22H35N3O

> <PUBCHEM_MOLECULAR_WEIGHT>
357.5

> <PUBCHEM_OPENEYE_CAN_SMILES>
CC(C)(C)NC(=O)NC1CCC(CC1)CCN2CCC3=CC=CC=C3C2

> <PUBCHEM_OPENEYE_ISO_SMILES>
CC(C)(C)NC(=O)NC1CCC(CC1)CCN2CCC3=CC=CC=C3C2

> <PUBCHEM_CACTVS_TPSA>
44.4

> <PUBCHEM_MONOISOTOPIC_WEIGHT>
357.278012748

> <PUBCHEM_TOTAL_CHARGE>
0

> <PUBCHEM_HEAVY_ATOM_COUNT>
26

> <PUBCHEM_ATOM_DEF_STEREO_COUNT>
0

> <PUBCHEM_ATOM_UDEF_STEREO_COUNT>
0

> <PUBCHEM_BOND_DEF_STEREO_COUNT>
0

> <PUBCHEM_BOND_UDEF_STEREO_COUNT>
0

> <PUBCHEM_ISOTOPIC_ATOM_COUNT>
0

> <PUBCHEM_COMPONENT_COUNT>
1

> <PUBCHEM_CACTVS_TAUTO_COUNT>
-1

> <PUBCHEM_COORDINATE_TYPE>
1
5
255

> <PUBCHEM_BONDANNOTATIONS>
16  17  8
16  20  8
17  21  8
20  22  8
21  23  8
22  23  8

$$$$
