137651322
  -OEChem-09292322012D

 61 65  0     0  0  0  0  0  0999 V2000
    8.8271   -4.1437    0.0000 O   0  0  0  0  0  0  0  0  0  0  0  0
    5.3351    2.8217    0.0000 O   0  0  0  0  0  0  0  0  0  0  0  0
    7.0671   -7.1783    0.0000 O   0  0  0  0  0  0  0  0  0  0  0  0
   10.5973   -6.2025    0.0000 O   0  0  0  0  0  0  0  0  0  0  0  0
    3.7510    7.4883    0.0000 O   0  0  0  0  0  0  0  0  0  0  0  0
    7.0671   -1.1783    0.0000 N   0  0  0  0  0  0  0  0  0  0  0  0
    7.0671   -3.1783    0.0000 N   0  0  0  0  0  0  0  0  0  0  0  0
    8.8271   -6.2130    0.0000 N   0  0  0  0  0  0  0  0  0  0  0  0
    2.7370    4.3217    0.0000 N   0  0  0  0  0  0  0  0  0  0  0  0
    2.0000    4.9888    0.0000 N   0  0  0  0  0  0  0  0  0  0  0  0
    6.2011   -1.6783    0.0000 C   0  0  0  0  0  0  0  0  0  0  0  0
    7.9332   -1.6783    0.0000 C   0  0  0  0  0  0  0  0  0  0  0  0
    6.2011   -2.6783    0.0000 C   0  0  0  0  0  0  0  0  0  0  0  0
    7.9332   -2.6783    0.0000 C   0  0  0  0  0  0  0  0  0  0  0  0
    7.0671   -0.1783    0.0000 C   0  0  0  0  0  0  0  0  0  0  0  0
    6.2011    0.3217    0.0000 C   0  0  0  0  0  0  0  0  0  0  0  0
    7.0671   -4.1783    0.0000 C   0  0  0  0  0  0  0  0  0  0  0  0
    6.2011    1.3217    0.0000 C   0  0  0  0  0  0  0  0  0  0  0  0
    7.9332   -4.6783    0.0000 C   0  0  0  0  0  0  0  0  0  0  0  0
    6.2011   -4.6783    0.0000 C   0  0  0  0  0  0  0  0  0  0  0  0
    7.9332   -5.6783    0.0000 C   0  0  0  0  0  0  0  0  0  0  0  0
    5.3351    1.8217    0.0000 C   0  0  0  0  0  0  0  0  0  0  0  0
    6.2011   -5.6783    0.0000 C   0  0  0  0  0  0  0  0  0  0  0  0
    7.0671   -6.1783    0.0000 C   0  0  0  0  0  0  0  0  0  0  0  0
    9.7332   -4.6575    0.0000 C   0  0  0  0  0  0  0  0  0  0  0  0
    9.7332   -5.6991    0.0000 C   0  0  0  0  0  0  0  0  0  0  0  0
    4.4691    3.3217    0.0000 C   0  0  0  0  0  0  0  0  0  0  0  0
    4.4691    4.3217    0.0000 C   0  0  0  0  0  0  0  0  0  0  0  0
    3.6030    4.8217    0.0000 C   0  0  0  0  0  0  0  0  0  0  0  0
    3.6030    2.8217    0.0000 C   0  0  0  0  0  0  0  0  0  0  0  0
    2.7370    3.3217    0.0000 C   0  0  0  0  0  0  0  0  0  0  0  0
    3.3938    5.7935    0.0000 C   0  0  0  0  0  0  0  0  0  0  0  0
    2.4051    5.8966    0.0000 C   0  0  0  0  0  0  0  0  0  0  0  0
    4.0617    6.5378    0.0000 C   0  0  0  0  0  0  0  0  0  0  0  0
    5.9891   -1.0957    0.0000 H   0  0  0  0  0  0  0  0  0  0  0  0
    5.5905   -1.7860    0.0000 H   0  0  0  0  0  0  0  0  0  0  0  0
    8.5438   -1.7860    0.0000 H   0  0  0  0  0  0  0  0  0  0  0  0
    8.1452   -1.0957    0.0000 H   0  0  0  0  0  0  0  0  0  0  0  0
    5.5905   -2.5707    0.0000 H   0  0  0  0  0  0  0  0  0  0  0  0
    5.9891   -3.2609    0.0000 H   0  0  0  0  0  0  0  0  0  0  0  0
    8.1452   -3.2609    0.0000 H   0  0  0  0  0  0  0  0  0  0  0  0
    8.5438   -2.5707    0.0000 H   0  0  0  0  0  0  0  0  0  0  0  0
    7.6777   -0.2860    0.0000 H   0  0  0  0  0  0  0  0  0  0  0  0
    7.2792    0.4043    0.0000 H   0  0  0  0  0  0  0  0  0  0  0  0
    5.5905    0.4293    0.0000 H   0  0  0  0  0  0  0  0  0  0  0  0
    5.9891   -0.2609    0.0000 H   0  0  0  0  0  0  0  0  0  0  0  0
    6.8117    1.2140    0.0000 H   0  0  0  0  0  0  0  0  0  0  0  0
    6.4132    1.9043    0.0000 H   0  0  0  0  0  0  0  0  0  0  0  0
    5.6642   -4.3683    0.0000 H   0  0  0  0  0  0  0  0  0  0  0  0
    4.7245    1.9293    0.0000 H   0  0  0  0  0  0  0  0  0  0  0  0
    5.1230    1.2391    0.0000 H   0  0  0  0  0  0  0  0  0  0  0  0
    5.6642   -5.9883    0.0000 H   0  0  0  0  0  0  0  0  0  0  0  0
    8.8199   -6.8329    0.0000 H   0  0  0  0  0  0  0  0  0  0  0  0
   10.3440   -4.7636    0.0000 H   0  0  0  0  0  0  0  0  0  0  0  0
    9.9422   -4.0738    0.0000 H   0  0  0  0  0  0  0  0  0  0  0  0
    6.5302   -7.4883    0.0000 H   0  0  0  0  0  0  0  0  0  0  0  0
    5.0060    4.6317    0.0000 H   0  0  0  0  0  0  0  0  0  0  0  0
    3.6030    2.2017    0.0000 H   0  0  0  0  0  0  0  0  0  0  0  0
    2.2001    3.0117    0.0000 H   0  0  0  0  0  0  0  0  0  0  0  0
    2.0951    6.4335    0.0000 H   0  0  0  0  0  0  0  0  0  0  0  0
    4.6684    6.4099    0.0000 H   0  0  0  0  0  0  0  0  0  0  0  0
  1 19  1  0  0  0  0
  1 25  1  0  0  0  0
  2 22  1  0  0  0  0
  2 27  1  0  0  0  0
  3 24  1  0  0  0  0
  3 56  1  0  0  0  0
  4 26  2  0  0  0  0
  5 34  2  0  0  0  0
  6 11  1  0  0  0  0
  6 12  1  0  0  0  0
  6 15  1  0  0  0  0
  7 13  1  0  0  0  0
  7 14  1  0  0  0  0
  7 17  1  0  0  0  0
  8 21  1  0  0  0  0
  8 26  1  0  0  0  0
  8 53  1  0  0  0  0
  9 10  1  0  0  0  0
  9 29  1  0  0  0  0
  9 31  1  0  0  0  0
 10 33  2  0  0  0  0
 11 13  1  0  0  0  0
 11 35  1  0  0  0  0
 11 36  1  0  0  0  0
 12 14  1  0  0  0  0
 12 37  1  0  0  0  0
 12 38  1  0  0  0  0
 13 39  1  0  0  0  0
 13 40  1  0  0  0  0
 14 41  1  0  0  0  0
 14 42  1  0  0  0  0
 15 16  1  0  0  0  0
 15 43  1  0  0  0  0
 15 44  1  0  0  0  0
 16 18  1  0  0  0  0
 16 45  1  0  0  0  0
 16 46  1  0  0  0  0
 17 19  2  0  0  0  0
 17 20  1  0  0  0  0
 18 22  1  0  0  0  0
 18 47  1  0  0  0  0
 18 48  1  0  0  0  0
 19 21  1  0  0  0  0
 20 23  2  0  0  0  0
 20 49  1  0  0  0  0
 21 24  2  0  0  0  0
 22 50  1  0  0  0  0
 22 51  1  0  0  0  0
 23 24  1  0  0  0  0
 23 52  1  0  0  0  0
 25 26  1  0  0  0  0
 25 54  1  0  0  0  0
 25 55  1  0  0  0  0
 27 28  2  0  0  0  0
 27 30  1  0  0  0  0
 28 29  1  0  0  0  0
 28 57  1  0  0  0  0
 29 32  2  0  0  0  0
 30 31  2  0  0  0  0
 30 58  1  0  0  0  0
 31 59  1  0  0  0  0
 32 33  1  0  0  0  0
 32 34  1  0  0  0  0
 33 60  1  0  0  0  0
 34 61  1  0  0  0  0
M  END
> <PUBCHEM_COMPOUND_CID>
137651322

> <PUBCHEM_COMPOUND_CANONICALIZED>
1

> <PUBCHEM_CACTVS_COMPLEXITY>
705

> <PUBCHEM_CACTVS_HBOND_ACCEPTOR>
8

> <PUBCHEM_CACTVS_HBOND_DONOR>
2

> <PUBCHEM_CACTVS_ROTATABLE_BOND>
8

> <PUBCHEM_CACTVS_SUBSKEYS>
AAADceB7uAAAAAAAAAAAAAAAAAAAAWAAAAA8WLEAAAAAAFix8AAAHgAYCAAADAzhngY8xrPIFgCqAz131AKSjCA1oiAY2CF/bNgOZ/rW9d+X/ajn3B3Y+ce4/EzMAEAACAQAEAAAgAAQCAAgAAAAAAAAAA==

> <PUBCHEM_IUPAC_OPENEYE_NAME>
5-[4-[4-(5-hydroxy-3-oxo-4H-1,4-benzoxazin-8-yl)piperazin-1-yl]butoxy]pyrazolo[1,5-a]pyridine-3-carbaldehyde

> <PUBCHEM_IUPAC_CAS_NAME>
5-[4-[4-(5-hydroxy-3-oxo-4H-1,4-benzoxazin-8-yl)-1-piperazinyl]butoxy]-3-pyrazolo[1,5-a]pyridinecarboxaldehyde

> <PUBCHEM_IUPAC_NAME_MARKUP>
5-[4-[4-(5-hydroxy-3-oxo-4<I>H</I>-1,4-benzoxazin-8-yl)piperazin-1-yl]butoxy]pyrazolo[1,5-a]pyridine-3-carbaldehyde

> <PUBCHEM_IUPAC_NAME>
5-[4-[4-(5-hydroxy-3-oxo-4H-1,4-benzoxazin-8-yl)piperazin-1-yl]butoxy]pyrazolo[1,5-a]pyridine-3-carbaldehyde

> <PUBCHEM_IUPAC_SYSTEMATIC_NAME>
5-[4-[4-(5-oxidanyl-3-oxidanylidene-4H-1,4-benzoxazin-8-yl)piperazin-1-yl]butoxy]pyrazolo[1,5-a]pyridine-3-carbaldehyde

> <PUBCHEM_IUPAC_TRADITIONAL_NAME>
5-[4-[4-(5-hydroxy-3-keto-4H-1,4-benzoxazin-8-yl)piperazino]butoxy]pyrazolo[1,5-a]pyridine-3-carbaldehyde

> <PUBCHEM_IUPAC_INCHI>
InChI=1S/C24H27N5O5/c30-15-17-14-25-29-7-5-18(13-20(17)29)33-12-2-1-6-27-8-10-28(11-9-27)19-3-4-21(31)23-24(19)34-16-22(32)26-23/h3-5,7,13-15,31H,1-2,6,8-12,16H2,(H,26,32)

> <PUBCHEM_IUPAC_INCHIKEY>
QUUFDJZHDLIECK-UHFFFAOYSA-N

> <PUBCHEM_XLOGP3_AA>
1.4

> <PUBCHEM_EXACT_MASS>
465.20121898

> <PUBCHEM_MOLECULAR_FORMULA>
C24H27N5O5

> <PUBCHEM_MOLECULAR_WEIGHT>
465.5

> <PUBCHEM_OPENEYE_CAN_SMILES>
C1CN(CCN1CCCCOC2=CC3=C(C=NN3C=C2)C=O)C4=C5C(=C(C=C4)O)NC(=O)CO5

> <PUBCHEM_OPENEYE_ISO_SMILES>
C1CN(CCN1CCCCOC2=CC3=C(C=NN3C=C2)C=O)C4=C5C(=C(C=C4)O)NC(=O)CO5

> <PUBCHEM_CACTVS_TPSA>
109

> <PUBCHEM_MONOISOTOPIC_WEIGHT>
465.20121898

> <PUBCHEM_TOTAL_CHARGE>
0

> <PUBCHEM_HEAVY_ATOM_COUNT>
34

> <PUBCHEM_ATOM_DEF_STEREO_COUNT>
0

> <PUBCHEM_ATOM_UDEF_STEREO_COUNT>
0

> <PUBCHEM_BOND_DEF_STEREO_COUNT>
0

> <PUBCHEM_BOND_UDEF_STEREO_COUNT>
0

> <PUBCHEM_ISOTOPIC_ATOM_COUNT>
0

> <PUBCHEM_COMPONENT_COUNT>
1

> <PUBCHEM_CACTVS_TAUTO_COUNT>
-1

> <PUBCHEM_COORDINATE_TYPE>
1
5
255

> <PUBCHEM_BONDANNOTATIONS>
10  33  8
17  19  8
17  20  8
19  21  8
20  23  8
21  24  8
23  24  8
27  28  8
27  30  8
28  29  8
29  32  8
30  31  8
32  33  8
9  10  8
9  29  8
9  31  8

$$$$
