44307498
  -OEChem-09292322512D

 53 56  0     1  0  0  0  0  0999 V2000
    7.8104   -2.5509    0.0000 O   0  0  0  0  0  0  0  0  0  0  0  0
    7.0000   -0.8681    0.0000 N   0  0  0  0  0  0  0  0  0  0  0  0
    5.0000   -0.8681    0.0000 N   0  0  0  0  0  0  0  0  0  0  0  0
    9.4088   -1.9916    0.0000 N   0  0  0  0  0  0  0  0  0  0  0  0
    8.0000   -0.8681    0.0000 C   0  0  3  0  0  0  0  0  0  0  0  0
    6.5000   -0.0021    0.0000 C   0  0  0  0  0  0  0  0  0  0  0  0
    6.5000   -1.7341    0.0000 C   0  0  0  0  0  0  0  0  0  0  0  0
    5.5000   -0.0021    0.0000 C   0  0  0  0  0  0  0  0  0  0  0  0
    5.5000   -1.7341    0.0000 C   0  0  0  0  0  0  0  0  0  0  0  0
    8.4339    0.0329    0.0000 C   0  0  0  0  0  0  0  0  0  0  0  0
    9.4088    0.2554    0.0000 C   0  0  0  0  0  0  0  0  0  0  0  0
    8.4339   -1.7690    0.0000 C   0  0  0  0  0  0  0  0  0  0  0  0
    4.0000   -0.8681    0.0000 C   0  0  0  0  0  0  0  0  0  0  0  0
   10.1906   -0.3681    0.0000 C   0  0  0  0  0  0  0  0  0  0  0  0
   10.1906   -1.3681    0.0000 C   0  0  0  0  0  0  0  0  0  0  0  0
    3.5000   -0.0021    0.0000 C   0  0  0  0  0  0  0  0  0  0  0  0
   11.0846    0.1666    0.0000 C   0  0  0  0  0  0  0  0  0  0  0  0
   11.0846   -1.9027    0.0000 C   0  0  0  0  0  0  0  0  0  0  0  0
    4.0000    0.8640    0.0000 C   0  0  0  0  0  0  0  0  0  0  0  0
    2.5000   -0.0021    0.0000 C   0  0  0  0  0  0  0  0  0  0  0  0
   11.9907   -0.3473    0.0000 C   0  0  0  0  0  0  0  0  0  0  0  0
   11.9907   -1.3889    0.0000 C   0  0  0  0  0  0  0  0  0  0  0  0
    3.5000    1.7300    0.0000 C   0  0  0  0  0  0  0  0  0  0  0  0
    2.0000    0.8640    0.0000 C   0  0  0  0  0  0  0  0  0  0  0  0
    2.5000    1.7300    0.0000 C   0  0  0  0  0  0  0  0  0  0  0  0
    2.0000    2.5960    0.0000 C   0  0  0  0  0  0  0  0  0  0  0  0
    7.6701   -0.3431    0.0000 H   0  0  0  0  0  0  0  0  0  0  0  0
    7.0826    0.2100    0.0000 H   0  0  0  0  0  0  0  0  0  0  0  0
    6.3923    0.6085    0.0000 H   0  0  0  0  0  0  0  0  0  0  0  0
    6.3923   -2.3447    0.0000 H   0  0  0  0  0  0  0  0  0  0  0  0
    7.0826   -1.9462    0.0000 H   0  0  0  0  0  0  0  0  0  0  0  0
    5.6077    0.6085    0.0000 H   0  0  0  0  0  0  0  0  0  0  0  0
    4.9174    0.2100    0.0000 H   0  0  0  0  0  0  0  0  0  0  0  0
    4.9174   -1.9462    0.0000 H   0  0  0  0  0  0  0  0  0  0  0  0
    5.6077   -2.3447    0.0000 H   0  0  0  0  0  0  0  0  0  0  0  0
    8.4339    0.6529    0.0000 H   0  0  0  0  0  0  0  0  0  0  0  0
    7.8294    0.1709    0.0000 H   0  0  0  0  0  0  0  0  0  0  0  0
    9.8936    0.6420    0.0000 H   0  0  0  0  0  0  0  0  0  0  0  0
    9.1398    0.8140    0.0000 H   0  0  0  0  0  0  0  0  0  0  0  0
    3.4174   -1.0801    0.0000 H   0  0  0  0  0  0  0  0  0  0  0  0
    4.1077   -1.4787    0.0000 H   0  0  0  0  0  0  0  0  0  0  0  0
    9.5468   -2.5960    0.0000 H   0  0  0  0  0  0  0  0  0  0  0  0
   11.0774    0.7865    0.0000 H   0  0  0  0  0  0  0  0  0  0  0  0
   11.0774   -2.5227    0.0000 H   0  0  0  0  0  0  0  0  0  0  0  0
    4.6200    0.8640    0.0000 H   0  0  0  0  0  0  0  0  0  0  0  0
    2.1900   -0.5390    0.0000 H   0  0  0  0  0  0  0  0  0  0  0  0
   12.5264   -0.0352    0.0000 H   0  0  0  0  0  0  0  0  0  0  0  0
   12.5264   -1.7010    0.0000 H   0  0  0  0  0  0  0  0  0  0  0  0
    3.8100    2.2669    0.0000 H   0  0  0  0  0  0  0  0  0  0  0  0
    1.3800    0.8640    0.0000 H   0  0  0  0  0  0  0  0  0  0  0  0
    2.5369    2.9060    0.0000 H   0  0  0  0  0  0  0  0  0  0  0  0
    1.6900    3.1330    0.0000 H   0  0  0  0  0  0  0  0  0  0  0  0
    1.4631    2.2860    0.0000 H   0  0  0  0  0  0  0  0  0  0  0  0
  1 12  2  0  0  0  0
  2  5  1  0  0  0  0
  2  6  1  0  0  0  0
  2  7  1  0  0  0  0
  3  8  1  0  0  0  0
  3  9  1  0  0  0  0
  3 13  1  0  0  0  0
  4 12  1  0  0  0  0
  4 15  1  0  0  0  0
  4 42  1  0  0  0  0
  5 10  1  0  0  0  0
  5 12  1  0  0  0  0
  5 27  1  0  0  0  0
  6  8  1  0  0  0  0
  6 28  1  0  0  0  0
  6 29  1  0  0  0  0
  7  9  1  0  0  0  0
  7 30  1  0  0  0  0
  7 31  1  0  0  0  0
  8 32  1  0  0  0  0
  8 33  1  0  0  0  0
  9 34  1  0  0  0  0
  9 35  1  0  0  0  0
 10 11  1  0  0  0  0
 10 36  1  0  0  0  0
 10 37  1  0  0  0  0
 11 14  1  0  0  0  0
 11 38  1  0  0  0  0
 11 39  1  0  0  0  0
 13 16  1  0  0  0  0
 13 40  1  0  0  0  0
 13 41  1  0  0  0  0
 14 15  1  0  0  0  0
 14 17  2  0  0  0  0
 15 18  2  0  0  0  0
 16 19  2  0  0  0  0
 16 20  1  0  0  0  0
 17 21  1  0  0  0  0
 17 43  1  0  0  0  0
 18 22  1  0  0  0  0
 18 44  1  0  0  0  0
 19 23  1  0  0  0  0
 19 45  1  0  0  0  0
 20 24  2  0  0  0  0
 20 46  1  0  0  0  0
 21 22  2  0  0  0  0
 21 47  1  0  0  0  0
 22 48  1  0  0  0  0
 23 25  2  0  0  0  0
 23 49  1  0  0  0  0
 24 25  1  0  0  0  0
 24 50  1  0  0  0  0
 25 26  1  0  0  0  0
 26 51  1  0  0  0  0
 26 52  1  0  0  0  0
 26 53  1  0  0  0  0
M  END
> <PUBCHEM_COMPOUND_CID>
44307498

> <PUBCHEM_COMPOUND_CANONICALIZED>
1

> <PUBCHEM_CACTVS_COMPLEXITY>
466

> <PUBCHEM_CACTVS_HBOND_ACCEPTOR>
3

> <PUBCHEM_CACTVS_HBOND_DONOR>
1

> <PUBCHEM_CACTVS_ROTATABLE_BOND>
3

> <PUBCHEM_CACTVS_SUBSKEYS>
AAADceB7IAAAAAAAAAAAAAAAAAAAAAAAAAA8YIAABYAAAAABQAAAHgAQAAAADCjBmAQywIPAAACIAiVSUACCAAAhAgAIiAGIZIgIYDLAkbGUIAhglADIyAcYiICOQAAAAAACAACAAAAAAAQAAAAAAAAAAA==

> <PUBCHEM_IUPAC_OPENEYE_NAME>
3-[4-(p-tolylmethyl)piperazin-1-yl]-1,3,4,5-tetrahydro-1-benzazepin-2-one

> <PUBCHEM_IUPAC_CAS_NAME>
3-[4-[(4-methylphenyl)methyl]-1-piperazinyl]-1,3,4,5-tetrahydro-1-benzazepin-2-one

> <PUBCHEM_IUPAC_NAME_MARKUP>
3-[4-[(4-methylphenyl)methyl]piperazin-1-yl]-1,3,4,5-tetrahydro-1-benzazepin-2-one

> <PUBCHEM_IUPAC_NAME>
3-[4-[(4-methylphenyl)methyl]piperazin-1-yl]-1,3,4,5-tetrahydro-1-benzazepin-2-one

> <PUBCHEM_IUPAC_SYSTEMATIC_NAME>
3-[4-[(4-methylphenyl)methyl]piperazin-1-yl]-1,3,4,5-tetrahydro-1-benzazepin-2-one

> <PUBCHEM_IUPAC_TRADITIONAL_NAME>
3-[4-(4-methylbenzyl)piperazino]-1,3,4,5-tetrahydro-1-benzazepin-2-one

> <PUBCHEM_IUPAC_INCHI>
InChI=1S/C22H27N3O/c1-17-6-8-18(9-7-17)16-24-12-14-25(15-13-24)21-11-10-19-4-2-3-5-20(19)23-22(21)26/h2-9,21H,10-16H2,1H3,(H,23,26)

> <PUBCHEM_IUPAC_INCHIKEY>
GDOWWYCKCLQFKP-UHFFFAOYSA-N

> <PUBCHEM_XLOGP3_AA>
3.3

> <PUBCHEM_EXACT_MASS>
349.215412493

> <PUBCHEM_MOLECULAR_FORMULA>
C22H27N3O

> <PUBCHEM_MOLECULAR_WEIGHT>
349.5

> <PUBCHEM_OPENEYE_CAN_SMILES>
CC1=CC=C(C=C1)CN2CCN(CC2)C3CCC4=CC=CC=C4NC3=O

> <PUBCHEM_OPENEYE_ISO_SMILES>
CC1=CC=C(C=C1)CN2CCN(CC2)C3CCC4=CC=CC=C4NC3=O

> <PUBCHEM_CACTVS_TPSA>
35.6

> <PUBCHEM_MONOISOTOPIC_WEIGHT>
349.215412493

> <PUBCHEM_TOTAL_CHARGE>
0

> <PUBCHEM_HEAVY_ATOM_COUNT>
26

> <PUBCHEM_ATOM_DEF_STEREO_COUNT>
0

> <PUBCHEM_ATOM_UDEF_STEREO_COUNT>
1

> <PUBCHEM_BOND_DEF_STEREO_COUNT>
0

> <PUBCHEM_BOND_UDEF_STEREO_COUNT>
0

> <PUBCHEM_ISOTOPIC_ATOM_COUNT>
0

> <PUBCHEM_COMPONENT_COUNT>
1

> <PUBCHEM_CACTVS_TAUTO_COUNT>
-1

> <PUBCHEM_COORDINATE_TYPE>
1
5
255

> <PUBCHEM_BONDANNOTATIONS>
14  15  8
14  17  8
15  18  8
16  19  8
16  20  8
17  21  8
18  22  8
19  23  8
5  2  3
20  24  8
21  22  8
23  25  8
24  25  8

$$$$
