44336052
  -OEChem-09292322162D

 56 59  0     1  0  0  0  0  0999 V2000
    4.5387   -4.8704    0.0000 Cl  0  0  0  0  0  0  0  0  0  0  0  0
    4.3211    1.3708    0.0000 O   0  0  0  0  0  0  0  0  0  0  0  0
    6.2781    0.9584    0.0000 N   0  0  3  0  0  0  0  0  0  0  0  0
    6.8994   -0.9427    0.0000 N   0  0  3  0  0  0  0  0  0  0  0  0
    4.6783    3.0657    0.0000 N   0  0  0  0  0  0  0  0  0  0  0  0
    5.6103    0.2141    0.0000 C   0  0  2  0  0  0  0  0  0  0  0  0
    7.5673   -0.1984    0.0000 C   0  0  1  0  0  0  0  0  0  0  0  0
    7.2566    0.7522    0.0000 C   0  0  0  0  0  0  0  0  0  0  0  0
    5.9209   -0.7364    0.0000 C   0  0  0  0  0  0  0  0  0  0  0  0
    5.9674    1.9089    0.0000 C   0  0  0  0  0  0  0  0  0  0  0  0
    7.2101   -1.8932    0.0000 C   0  0  0  0  0  0  0  0  0  0  0  0
    4.6318    0.4203    0.0000 C   0  0  0  0  0  0  0  0  0  0  0  0
    8.5458   -0.4046    0.0000 C   0  0  0  0  0  0  0  0  0  0  0  0
    4.9889    2.1151    0.0000 C   0  0  0  0  0  0  0  0  0  0  0  0
    6.5422   -2.6375    0.0000 C   0  0  0  0  0  0  0  0  0  0  0  0
    5.2619    3.8704    0.0000 C   0  0  0  0  0  0  0  0  0  0  0  0
    3.7320    3.3704    0.0000 C   0  0  0  0  0  0  0  0  0  0  0  0
    4.6783    4.6751    0.0000 C   0  0  0  0  0  0  0  0  0  0  0  0
    3.7320    4.3704    0.0000 C   0  0  0  0  0  0  0  0  0  0  0  0
    6.8529   -3.5880    0.0000 C   0  0  0  0  0  0  0  0  0  0  0  0
    5.5637   -2.4313    0.0000 C   0  0  0  0  0  0  0  0  0  0  0  0
    2.8660    2.8704    0.0000 C   0  0  0  0  0  0  0  0  0  0  0  0
    2.8660    4.8704    0.0000 C   0  0  0  0  0  0  0  0  0  0  0  0
    2.0000    3.3704    0.0000 C   0  0  0  0  0  0  0  0  0  0  0  0
    2.0000    4.3704    0.0000 C   0  0  0  0  0  0  0  0  0  0  0  0
    6.1851   -4.3323    0.0000 C   0  0  0  0  0  0  0  0  0  0  0  0
    4.8959   -3.1756    0.0000 C   0  0  0  0  0  0  0  0  0  0  0  0
    5.2066   -4.1261    0.0000 C   0  0  0  0  0  0  0  0  0  0  0  0
    5.4176    0.8034    0.0000 H   0  0  0  0  0  0  0  0  0  0  0  0
    7.7599   -0.7877    0.0000 H   0  0  0  0  0  0  0  0  0  0  0  0
    7.8704    0.8395    0.0000 H   0  0  0  0  0  0  0  0  0  0  0  0
    7.2772    1.3718    0.0000 H   0  0  0  0  0  0  0  0  0  0  0  0
    5.3071   -0.8238    0.0000 H   0  0  0  0  0  0  0  0  0  0  0  0
    5.9004   -1.3561    0.0000 H   0  0  0  0  0  0  0  0  0  0  0  0
    6.5812    1.9963    0.0000 H   0  0  0  0  0  0  0  0  0  0  0  0
    5.9880    2.5286    0.0000 H   0  0  0  0  0  0  0  0  0  0  0  0
    7.5926   -2.3811    0.0000 H   0  0  0  0  0  0  0  0  0  0  0  0
    7.7570   -1.6012    0.0000 H   0  0  0  0  0  0  0  0  0  0  0  0
    4.7596    1.0270    0.0000 H   0  0  0  0  0  0  0  0  0  0  0  0
    4.0251    0.5482    0.0000 H   0  0  0  0  0  0  0  0  0  0  0  0
    4.5039   -0.1864    0.0000 H   0  0  0  0  0  0  0  0  0  0  0  0
    8.4179   -1.0112    0.0000 H   0  0  0  0  0  0  0  0  0  0  0  0
    9.1524   -0.5324    0.0000 H   0  0  0  0  0  0  0  0  0  0  0  0
    8.6736    0.2021    0.0000 H   0  0  0  0  0  0  0  0  0  0  0  0
    5.7227    3.4556    0.0000 H   0  0  0  0  0  0  0  0  0  0  0  0
    5.7227    4.2851    0.0000 H   0  0  0  0  0  0  0  0  0  0  0  0
    5.2156    4.9843    0.0000 H   0  0  0  0  0  0  0  0  0  0  0  0
    4.4272    5.2420    0.0000 H   0  0  0  0  0  0  0  0  0  0  0  0
    7.4596   -3.7158    0.0000 H   0  0  0  0  0  0  0  0  0  0  0  0
    5.3711   -1.8419    0.0000 H   0  0  0  0  0  0  0  0  0  0  0  0
    2.8660    2.2504    0.0000 H   0  0  0  0  0  0  0  0  0  0  0  0
    2.8660    5.4904    0.0000 H   0  0  0  0  0  0  0  0  0  0  0  0
    1.4631    3.0604    0.0000 H   0  0  0  0  0  0  0  0  0  0  0  0
    1.4631    4.6804    0.0000 H   0  0  0  0  0  0  0  0  0  0  0  0
    6.3777   -4.9216    0.0000 H   0  0  0  0  0  0  0  0  0  0  0  0
    4.2892   -3.0477    0.0000 H   0  0  0  0  0  0  0  0  0  0  0  0
  1 28  1  0  0  0  0
  2 14  2  0  0  0  0
  3  6  1  0  0  0  0
  3  8  1  0  0  0  0
  3 10  1  0  0  0  0
  4  7  1  0  0  0  0
  4  9  1  0  0  0  0
  4 11  1  0  0  0  0
  5 14  1  0  0  0  0
  5 16  1  0  0  0  0
  5 17  1  0  0  0  0
  6  9  1  0  0  0  0
  6 12  1  6  0  0  0
  6 29  1  0  0  0  0
  7  8  1  0  0  0  0
  7 13  1  1  0  0  0
  7 30  1  0  0  0  0
  8 31  1  0  0  0  0
  8 32  1  0  0  0  0
  9 33  1  0  0  0  0
  9 34  1  0  0  0  0
 10 14  1  0  0  0  0
 10 35  1  0  0  0  0
 10 36  1  0  0  0  0
 11 15  1  0  0  0  0
 11 37  1  0  0  0  0
 11 38  1  0  0  0  0
 12 39  1  0  0  0  0
 12 40  1  0  0  0  0
 12 41  1  0  0  0  0
 13 42  1  0  0  0  0
 13 43  1  0  0  0  0
 13 44  1  0  0  0  0
 15 20  2  0  0  0  0
 15 21  1  0  0  0  0
 16 18  1  0  0  0  0
 16 45  1  0  0  0  0
 16 46  1  0  0  0  0
 17 19  1  0  0  0  0
 17 22  2  0  0  0  0
 18 19  1  0  0  0  0
 18 47  1  0  0  0  0
 18 48  1  0  0  0  0
 19 23  2  0  0  0  0
 20 26  1  0  0  0  0
 20 49  1  0  0  0  0
 21 27  2  0  0  0  0
 21 50  1  0  0  0  0
 22 24  1  0  0  0  0
 22 51  1  0  0  0  0
 23 25  1  0  0  0  0
 23 52  1  0  0  0  0
 24 25  2  0  0  0  0
 24 53  1  0  0  0  0
 25 54  1  0  0  0  0
 26 28  2  0  0  0  0
 26 55  1  0  0  0  0
 27 28  1  0  0  0  0
 27 56  1  0  0  0  0
M  END
> <PUBCHEM_COMPOUND_CID>
44336052

> <PUBCHEM_COMPOUND_CANONICALIZED>
1

> <PUBCHEM_CACTVS_COMPLEXITY>
536

> <PUBCHEM_CACTVS_HBOND_ACCEPTOR>
3

> <PUBCHEM_CACTVS_HBOND_DONOR>
0

> <PUBCHEM_CACTVS_ROTATABLE_BOND>
4

> <PUBCHEM_CACTVS_SUBSKEYS>
AAADceB7IAAEAAAAAAAAAAAAAAAAAWAAAAA8YIAAAAAAAFgBQAAAHgIAAAAADCrBmCQywIMAAACIAiVSUACCAAAhBwAIiACIZogIYCLBk7GUIAhghgDIyAcQgIAOBAAAAAACAAAIAAAAAAQAAAAAAAAAAA==

> <PUBCHEM_IUPAC_OPENEYE_NAME>
2-[(2S,5R)-4-[(4-chlorophenyl)methyl]-2,5-dimethyl-piperazin-1-yl]-1-indolin-1-yl-ethanone

> <PUBCHEM_IUPAC_CAS_NAME>
2-[(2S,5R)-4-[(4-chlorophenyl)methyl]-2,5-dimethyl-1-piperazinyl]-1-(2,3-dihydroindol-1-yl)ethanone

> <PUBCHEM_IUPAC_NAME_MARKUP>
2-[(2<I>S</I>,5<I>R</I>)-4-[(4-chlorophenyl)methyl]-2,5-dimethylpiperazin-1-yl]-1-(2,3-dihydroindol-1-yl)ethanone

> <PUBCHEM_IUPAC_NAME>
2-[(2S,5R)-4-[(4-chlorophenyl)methyl]-2,5-dimethylpiperazin-1-yl]-1-(2,3-dihydroindol-1-yl)ethanone

> <PUBCHEM_IUPAC_SYSTEMATIC_NAME>
2-[(2S,5R)-4-[(4-chlorophenyl)methyl]-2,5-dimethyl-piperazin-1-yl]-1-(2,3-dihydroindol-1-yl)ethanone

> <PUBCHEM_IUPAC_TRADITIONAL_NAME>
2-[(2S,5R)-4-(4-chlorobenzyl)-2,5-dimethyl-piperazino]-1-indolin-1-yl-ethanone

> <PUBCHEM_IUPAC_INCHI>
InChI=1S/C23H28ClN3O/c1-17-14-26(16-23(28)27-12-11-20-5-3-4-6-22(20)27)18(2)13-25(17)15-19-7-9-21(24)10-8-19/h3-10,17-18H,11-16H2,1-2H3/t17-,18+/m1/s1

> <PUBCHEM_IUPAC_INCHIKEY>
QIYZNMOVNYQQHC-MSOLQXFVSA-N

> <PUBCHEM_XLOGP3_AA>
4.2

> <PUBCHEM_EXACT_MASS>
397.1920902

> <PUBCHEM_MOLECULAR_FORMULA>
C23H28ClN3O

> <PUBCHEM_MOLECULAR_WEIGHT>
397.9

> <PUBCHEM_OPENEYE_CAN_SMILES>
CC1CN(C(CN1CC(=O)N2CCC3=CC=CC=C32)C)CC4=CC=C(C=C4)Cl

> <PUBCHEM_OPENEYE_ISO_SMILES>
C[C@H]1CN([C@@H](CN1CC(=O)N2CCC3=CC=CC=C32)C)CC4=CC=C(C=C4)Cl

> <PUBCHEM_CACTVS_TPSA>
26.8

> <PUBCHEM_MONOISOTOPIC_WEIGHT>
397.1920902

> <PUBCHEM_TOTAL_CHARGE>
0

> <PUBCHEM_HEAVY_ATOM_COUNT>
28

> <PUBCHEM_ATOM_DEF_STEREO_COUNT>
2

> <PUBCHEM_ATOM_UDEF_STEREO_COUNT>
0

> <PUBCHEM_BOND_DEF_STEREO_COUNT>
0

> <PUBCHEM_BOND_UDEF_STEREO_COUNT>
0

> <PUBCHEM_ISOTOPIC_ATOM_COUNT>
0

> <PUBCHEM_COMPONENT_COUNT>
1

> <PUBCHEM_CACTVS_TAUTO_COUNT>
-1

> <PUBCHEM_COORDINATE_TYPE>
1
5
255

> <PUBCHEM_BONDANNOTATIONS>
15  20  8
15  21  8
17  19  8
17  22  8
19  23  8
20  26  8
21  27  8
22  24  8
23  25  8
24  25  8
26  28  8
27  28  8
6  12  6
7  13  5

$$$$
