57398562
  -OEChem-09292322042D

 65 68  0     1  0  0  0  0  0999 V2000
   12.4725   -3.7903    0.0000 S   0  0  0  0  0  0  0  0  0  0  0  0
   11.5263   -2.0950    0.0000 O   0  0  0  0  0  0  0  0  0  0  0  0
   10.6603   -6.5950    0.0000 O   0  0  0  0  0  0  0  0  0  0  0  0
   14.0561   -4.5950    0.0000 O   0  0  0  0  0  0  0  0  0  0  0  0
    9.7942   -1.0950    0.0000 N   0  0  0  0  0  0  0  0  0  0  0  0
    5.4641    3.4050    0.0000 N   0  0  0  0  0  0  0  0  0  0  0  0
   12.4725   -5.3997    0.0000 N   0  0  0  0  0  0  0  0  0  0  0  0
    4.5981    4.9050    0.0000 C   0  0  3  0  0  0  0  0  0  0  0  0
   10.6603   -2.5950    0.0000 C   0  0  1  0  0  0  0  0  0  0  0  0
    4.5981    3.9050    0.0000 C   0  0  0  0  0  0  0  0  0  0  0  0
    9.7942   -2.0950    0.0000 C   0  0  0  0  0  0  0  0  0  0  0  0
   10.6603   -3.5950    0.0000 C   0  0  0  0  0  0  0  0  0  0  0  0
    8.9282   -0.5950    0.0000 C   0  0  0  0  0  0  0  0  0  0  0  0
    8.9282    0.4050    0.0000 C   0  0  0  0  0  0  0  0  0  0  0  0
    5.4641    2.4050    0.0000 C   0  0  0  0  0  0  0  0  0  0  0  0
    3.7320    5.4050    0.0000 C   0  0  0  0  0  0  0  0  0  0  0  0
    8.0622    0.9050    0.0000 C   0  0  0  0  0  0  0  0  0  0  0  0
    6.3301    1.9050    0.0000 C   0  0  0  0  0  0  0  0  0  0  0  0
   11.5263   -4.0950    0.0000 C   0  0  0  0  0  0  0  0  0  0  0  0
    5.4641    5.4050    0.0000 C   0  0  0  0  0  0  0  0  0  0  0  0
   11.5263   -5.0950    0.0000 C   0  0  0  0  0  0  0  0  0  0  0  0
    9.7942   -4.0950    0.0000 C   0  0  0  0  0  0  0  0  0  0  0  0
    7.1962    0.4050    0.0000 C   0  0  0  0  0  0  0  0  0  0  0  0
    8.0622    1.9050    0.0000 C   0  0  0  0  0  0  0  0  0  0  0  0
    6.3301    0.9050    0.0000 C   0  0  0  0  0  0  0  0  0  0  0  0
    7.1962    2.4050    0.0000 C   0  0  0  0  0  0  0  0  0  0  0  0
   10.6603   -5.5950    0.0000 C   0  0  0  0  0  0  0  0  0  0  0  0
    2.8660    4.9050    0.0000 C   0  0  0  0  0  0  0  0  0  0  0  0
    3.7320    6.4050    0.0000 C   0  0  0  0  0  0  0  0  0  0  0  0
    9.7942   -5.0950    0.0000 C   0  0  0  0  0  0  0  0  0  0  0  0
   13.0561   -4.5950    0.0000 C   0  0  0  0  0  0  0  0  0  0  0  0
    2.0000    5.4050    0.0000 C   0  0  0  0  0  0  0  0  0  0  0  0
    2.8660    6.9050    0.0000 C   0  0  0  0  0  0  0  0  0  0  0  0
    2.0000    6.4050    0.0000 C   0  0  0  0  0  0  0  0  0  0  0  0
    4.5981    5.5250    0.0000 H   0  0  0  0  0  0  0  0  0  0  0  0
   11.1972   -2.9050    0.0000 H   0  0  0  0  0  0  0  0  0  0  0  0
    3.9875    4.0127    0.0000 H   0  0  0  0  0  0  0  0  0  0  0  0
    4.3860    3.3224    0.0000 H   0  0  0  0  0  0  0  0  0  0  0  0
    9.1836   -1.9873    0.0000 H   0  0  0  0  0  0  0  0  0  0  0  0
    9.5822   -2.6776    0.0000 H   0  0  0  0  0  0  0  0  0  0  0  0
    8.3176   -0.4873    0.0000 H   0  0  0  0  0  0  0  0  0  0  0  0
    8.7162   -1.1776    0.0000 H   0  0  0  0  0  0  0  0  0  0  0  0
    9.5388    0.2973    0.0000 H   0  0  0  0  0  0  0  0  0  0  0  0
    9.1403    0.9876    0.0000 H   0  0  0  0  0  0  0  0  0  0  0  0
   10.3312   -0.7850    0.0000 H   0  0  0  0  0  0  0  0  0  0  0  0
    4.8535    2.5127    0.0000 H   0  0  0  0  0  0  0  0  0  0  0  0
    5.2520    1.8224    0.0000 H   0  0  0  0  0  0  0  0  0  0  0  0
    6.0010    3.7150    0.0000 H   0  0  0  0  0  0  0  0  0  0  0  0
    5.7741    4.8681    0.0000 H   0  0  0  0  0  0  0  0  0  0  0  0
    6.0010    5.7150    0.0000 H   0  0  0  0  0  0  0  0  0  0  0  0
    5.1541    5.9419    0.0000 H   0  0  0  0  0  0  0  0  0  0  0  0
    9.2573   -3.7850    0.0000 H   0  0  0  0  0  0  0  0  0  0  0  0
    7.1962   -0.2150    0.0000 H   0  0  0  0  0  0  0  0  0  0  0  0
    8.5991    2.2150    0.0000 H   0  0  0  0  0  0  0  0  0  0  0  0
    5.7932    0.5950    0.0000 H   0  0  0  0  0  0  0  0  0  0  0  0
    7.1962    3.0250    0.0000 H   0  0  0  0  0  0  0  0  0  0  0  0
    2.8660    4.2850    0.0000 H   0  0  0  0  0  0  0  0  0  0  0  0
    4.2690    6.7150    0.0000 H   0  0  0  0  0  0  0  0  0  0  0  0
    9.2573   -5.4050    0.0000 H   0  0  0  0  0  0  0  0  0  0  0  0
   12.6651   -5.9891    0.0000 H   0  0  0  0  0  0  0  0  0  0  0  0
   11.5263   -1.4750    0.0000 H   0  0  0  0  0  0  0  0  0  0  0  0
    1.4631    5.0950    0.0000 H   0  0  0  0  0  0  0  0  0  0  0  0
    2.8660    7.5250    0.0000 H   0  0  0  0  0  0  0  0  0  0  0  0
    1.4631    6.7150    0.0000 H   0  0  0  0  0  0  0  0  0  0  0  0
   10.1233   -6.9050    0.0000 H   0  0  0  0  0  0  0  0  0  0  0  0
  1 19  1  0  0  0  0
  1 31  1  0  0  0  0
  9  2  1  6  0  0  0
  2 61  1  0  0  0  0
  3 27  1  0  0  0  0
  3 65  1  0  0  0  0
  4 31  2  0  0  0  0
  5 11  1  0  0  0  0
  5 13  1  0  0  0  0
  5 45  1  0  0  0  0
  6 10  1  0  0  0  0
  6 15  1  0  0  0  0
  6 48  1  0  0  0  0
  7 21  1  0  0  0  0
  7 31  1  0  0  0  0
  7 60  1  0  0  0  0
  8 10  1  0  0  0  0
  8 16  1  0  0  0  0
  8 20  1  0  0  0  0
  8 35  1  0  0  0  0
  9 11  1  0  0  0  0
  9 12  1  0  0  0  0
  9 36  1  0  0  0  0
 10 37  1  0  0  0  0
 10 38  1  0  0  0  0
 11 39  1  0  0  0  0
 11 40  1  0  0  0  0
 12 19  2  0  0  0  0
 12 22  1  0  0  0  0
 13 14  1  0  0  0  0
 13 41  1  0  0  0  0
 13 42  1  0  0  0  0
 14 17  1  0  0  0  0
 14 43  1  0  0  0  0
 14 44  1  0  0  0  0
 15 18  1  0  0  0  0
 15 46  1  0  0  0  0
 15 47  1  0  0  0  0
 16 28  2  0  0  0  0
 16 29  1  0  0  0  0
 17 23  2  0  0  0  0
 17 24  1  0  0  0  0
 18 25  2  0  0  0  0
 18 26  1  0  0  0  0
 19 21  1  0  0  0  0
 20 49  1  0  0  0  0
 20 50  1  0  0  0  0
 20 51  1  0  0  0  0
 21 27  2  0  0  0  0
 22 30  2  0  0  0  0
 22 52  1  0  0  0  0
 23 25  1  0  0  0  0
 23 53  1  0  0  0  0
 24 26  2  0  0  0  0
 24 54  1  0  0  0  0
 25 55  1  0  0  0  0
 26 56  1  0  0  0  0
 27 30  1  0  0  0  0
 28 32  1  0  0  0  0
 28 57  1  0  0  0  0
 29 33  2  0  0  0  0
 29 58  1  0  0  0  0
 30 59  1  0  0  0  0
 32 34  2  0  0  0  0
 32 62  1  0  0  0  0
 33 34  1  0  0  0  0
 33 63  1  0  0  0  0
 34 64  1  0  0  0  0
M  END
> <PUBCHEM_COMPOUND_CID>
57398562

> <PUBCHEM_COMPOUND_CANONICALIZED>
1

> <PUBCHEM_CACTVS_COMPLEXITY>
624

> <PUBCHEM_CACTVS_HBOND_ACCEPTOR>
6

> <PUBCHEM_CACTVS_HBOND_DONOR>
5

> <PUBCHEM_CACTVS_ROTATABLE_BOND>
11

> <PUBCHEM_CACTVS_SUBSKEYS>
AAADceB7MABAAAAAAAAAAAAAAAAAAWAAAAAwYMAAAAAAAFgBUAAAHgQQCAAADRzh2AYyx4LAAgiIAiRCUACCAABhKBAIiJQPTIgKNiLykZOEcAhk1BHY2Aew4OQO4AAARAAEEQDAAACIAAgiAAAAAAAAAA==

> <PUBCHEM_IUPAC_OPENEYE_NAME>
4-hydroxy-7-[(1R)-1-hydroxy-2-[2-[4-[(2-phenylpropylamino)methyl]phenyl]ethylamino]ethyl]-3H-1,3-benzothiazol-2-one

> <PUBCHEM_IUPAC_CAS_NAME>
4-hydroxy-7-[(1R)-1-hydroxy-2-[2-[4-[(2-phenylpropylamino)methyl]phenyl]ethylamino]ethyl]-3H-1,3-benzothiazol-2-one

> <PUBCHEM_IUPAC_NAME_MARKUP>
4-hydroxy-7-[(1<I>R</I>)-1-hydroxy-2-[2-[4-[(2-phenylpropylamino)methyl]phenyl]ethylamino]ethyl]-3<I>H</I>-1,3-benzothiazol-2-one

> <PUBCHEM_IUPAC_NAME>
4-hydroxy-7-[(1R)-1-hydroxy-2-[2-[4-[(2-phenylpropylamino)methyl]phenyl]ethylamino]ethyl]-3H-1,3-benzothiazol-2-one

> <PUBCHEM_IUPAC_SYSTEMATIC_NAME>
4-oxidanyl-7-[(1R)-1-oxidanyl-2-[2-[4-[(2-phenylpropylamino)methyl]phenyl]ethylamino]ethyl]-3H-1,3-benzothiazol-2-one

> <PUBCHEM_IUPAC_TRADITIONAL_NAME>
4-hydroxy-7-[(1R)-1-hydroxy-2-[2-[4-[(2-phenylpropylamino)methyl]phenyl]ethylamino]ethyl]-3H-1,3-benzothiazol-2-one

> <PUBCHEM_IUPAC_INCHI>
InChI=1S/C27H31N3O3S/c1-18(21-5-3-2-4-6-21)15-29-16-20-9-7-19(8-10-20)13-14-28-17-24(32)22-11-12-23(31)25-26(22)34-27(33)30-25/h2-12,18,24,28-29,31-32H,13-17H2,1H3,(H,30,33)/t18?,24-/m0/s1

> <PUBCHEM_IUPAC_INCHIKEY>
ZLXIUIBLWYKVOG-LUTIACGYSA-N

> <PUBCHEM_XLOGP3_AA>
3.7

> <PUBCHEM_EXACT_MASS>
477.20861303

> <PUBCHEM_MOLECULAR_FORMULA>
C27H31N3O3S

> <PUBCHEM_MOLECULAR_WEIGHT>
477.6

> <PUBCHEM_OPENEYE_CAN_SMILES>
CC(CNCC1=CC=C(C=C1)CCNCC(C2=C3C(=C(C=C2)O)NC(=O)S3)O)C4=CC=CC=C4

> <PUBCHEM_OPENEYE_ISO_SMILES>
CC(CNCC1=CC=C(C=C1)CCNC[C@@H](C2=C3C(=C(C=C2)O)NC(=O)S3)O)C4=CC=CC=C4

> <PUBCHEM_CACTVS_TPSA>
119

> <PUBCHEM_MONOISOTOPIC_WEIGHT>
477.20861303

> <PUBCHEM_TOTAL_CHARGE>
0

> <PUBCHEM_HEAVY_ATOM_COUNT>
34

> <PUBCHEM_ATOM_DEF_STEREO_COUNT>
1

> <PUBCHEM_ATOM_UDEF_STEREO_COUNT>
1

> <PUBCHEM_BOND_DEF_STEREO_COUNT>
0

> <PUBCHEM_BOND_UDEF_STEREO_COUNT>
0

> <PUBCHEM_ISOTOPIC_ATOM_COUNT>
0

> <PUBCHEM_COMPONENT_COUNT>
1

> <PUBCHEM_CACTVS_TAUTO_COUNT>
-1

> <PUBCHEM_COORDINATE_TYPE>
1
5
255

> <PUBCHEM_BONDANNOTATIONS>
1  19  8
1  31  8
12  19  8
12  22  8
16  28  8
16  29  8
17  23  8
17  24  8
18  25  8
18  26  8
19  21  8
9  2  6
21  27  8
22  30  8
23  25  8
24  26  8
27  30  8
28  32  8
29  33  8
32  34  8
33  34  8
7  21  8
7  31  8
8  20  3

$$$$
