44438237
  -OEChem-09292321592D

 63 66  0     0  0  0  0  0  0999 V2000
   10.9017    4.6601    0.0000 Cl  0  0  0  0  0  0  0  0  0  0  0  0
    8.8750    1.6781    0.0000 O   0  0  0  0  0  0  0  0  0  0  0  0
    5.9674    1.5763    0.0000 N   0  0  0  0  0  0  0  0  0  0  0  0
    4.6783   -1.1899    0.0000 N   0  0  0  0  0  0  0  0  0  0  0  0
    7.9244    1.9887    0.0000 C   0  0  0  0  0  0  0  0  0  0  0  0
    7.2566    2.7330    0.0000 C   0  0  0  0  0  0  0  0  0  0  0  0
    7.6138    1.0382    0.0000 C   0  0  0  0  0  0  0  0  0  0  0  0
    6.2781    2.5268    0.0000 C   0  0  0  0  0  0  0  0  0  0  0  0
    6.6353    0.8320    0.0000 C   0  0  0  0  0  0  0  0  0  0  0  0
    4.9889    1.3701    0.0000 C   0  0  0  0  0  0  0  0  0  0  0  0
    8.6688    2.6566    0.0000 C   0  0  0  0  0  0  0  0  0  0  0  0
    4.6783    0.4196    0.0000 C   0  0  0  0  0  0  0  0  0  0  0  0
    3.7320    0.1148    0.0000 C   0  0  0  0  0  0  0  0  0  0  0  0
    5.2619   -0.3852    0.0000 C   0  0  0  0  0  0  0  0  0  0  0  0
    3.7320   -0.8852    0.0000 C   0  0  0  0  0  0  0  0  0  0  0  0
    8.4625    3.6351    0.0000 C   0  0  0  0  0  0  0  0  0  0  0  0
    9.6193    2.3459    0.0000 C   0  0  0  0  0  0  0  0  0  0  0  0
    4.9889   -2.1404    0.0000 C   0  0  0  0  0  0  0  0  0  0  0  0
    5.9674   -2.3466    0.0000 C   0  0  0  0  0  0  0  0  0  0  0  0
    2.8660    0.6148    0.0000 C   0  0  0  0  0  0  0  0  0  0  0  0
    6.2781   -3.2972    0.0000 C   0  0  0  0  0  0  0  0  0  0  0  0
    2.8660   -1.3852    0.0000 C   0  0  0  0  0  0  0  0  0  0  0  0
    9.2068    4.3029    0.0000 C   0  0  0  0  0  0  0  0  0  0  0  0
   10.3636    3.0138    0.0000 C   0  0  0  0  0  0  0  0  0  0  0  0
    7.2566   -3.5034    0.0000 C   0  0  0  0  0  0  0  0  0  0  0  0
   10.1574    3.9923    0.0000 C   0  0  0  0  0  0  0  0  0  0  0  0
    2.0000    0.1148    0.0000 C   0  0  0  0  0  0  0  0  0  0  0  0
    2.0000   -0.8852    0.0000 C   0  0  0  0  0  0  0  0  0  0  0  0
    7.5673   -4.4539    0.0000 C   0  0  0  0  0  0  0  0  0  0  0  0
    8.5458   -4.6601    0.0000 C   0  0  0  0  0  0  0  0  0  0  0  0
    7.7830    3.0607    0.0000 H   0  0  0  0  0  0  0  0  0  0  0  0
    7.0254    3.3083    0.0000 H   0  0  0  0  0  0  0  0  0  0  0  0
    7.6344    0.4186    0.0000 H   0  0  0  0  0  0  0  0  0  0  0  0
    8.2276    0.9509    0.0000 H   0  0  0  0  0  0  0  0  0  0  0  0
    6.2575    3.1465    0.0000 H   0  0  0  0  0  0  0  0  0  0  0  0
    5.6643    2.6142    0.0000 H   0  0  0  0  0  0  0  0  0  0  0  0
    6.1089    0.5044    0.0000 H   0  0  0  0  0  0  0  0  0  0  0  0
    6.8665    0.2567    0.0000 H   0  0  0  0  0  0  0  0  0  0  0  0
    4.9684    1.9897    0.0000 H   0  0  0  0  0  0  0  0  0  0  0  0
    4.3751    1.4574    0.0000 H   0  0  0  0  0  0  0  0  0  0  0  0
    9.0028    1.0714    0.0000 H   0  0  0  0  0  0  0  0  0  0  0  0
    5.8819   -0.3852    0.0000 H   0  0  0  0  0  0  0  0  0  0  0  0
    7.8732    3.8277    0.0000 H   0  0  0  0  0  0  0  0  0  0  0  0
    9.7471    1.7392    0.0000 H   0  0  0  0  0  0  0  0  0  0  0  0
    4.3751   -2.2278    0.0000 H   0  0  0  0  0  0  0  0  0  0  0  0
    4.9684   -2.7601    0.0000 H   0  0  0  0  0  0  0  0  0  0  0  0
    6.5812   -2.2593    0.0000 H   0  0  0  0  0  0  0  0  0  0  0  0
    5.9880   -1.7270    0.0000 H   0  0  0  0  0  0  0  0  0  0  0  0
    2.8660    1.2348    0.0000 H   0  0  0  0  0  0  0  0  0  0  0  0
    5.6643   -3.3845    0.0000 H   0  0  0  0  0  0  0  0  0  0  0  0
    6.2575   -3.9168    0.0000 H   0  0  0  0  0  0  0  0  0  0  0  0
    2.8660   -2.0052    0.0000 H   0  0  0  0  0  0  0  0  0  0  0  0
    9.0790    4.9096    0.0000 H   0  0  0  0  0  0  0  0  0  0  0  0
   10.9529    2.8212    0.0000 H   0  0  0  0  0  0  0  0  0  0  0  0
    7.8704   -3.4160    0.0000 H   0  0  0  0  0  0  0  0  0  0  0  0
    7.2772   -2.8837    0.0000 H   0  0  0  0  0  0  0  0  0  0  0  0
    1.4631    0.4248    0.0000 H   0  0  0  0  0  0  0  0  0  0  0  0
    1.4631   -1.1952    0.0000 H   0  0  0  0  0  0  0  0  0  0  0  0
    6.9534   -4.5412    0.0000 H   0  0  0  0  0  0  0  0  0  0  0  0
    7.5467   -5.0736    0.0000 H   0  0  0  0  0  0  0  0  0  0  0  0
    8.4179   -5.2668    0.0000 H   0  0  0  0  0  0  0  0  0  0  0  0
    9.1524   -4.7880    0.0000 H   0  0  0  0  0  0  0  0  0  0  0  0
    8.6736   -4.0534    0.0000 H   0  0  0  0  0  0  0  0  0  0  0  0
  1 26  1  0  0  0  0
  2  5  1  0  0  0  0
  2 41  1  0  0  0  0
  3  8  1  0  0  0  0
  3  9  1  0  0  0  0
  3 10  1  0  0  0  0
  4 14  1  0  0  0  0
  4 15  1  0  0  0  0
  4 18  1  0  0  0  0
  5  6  1  0  0  0  0
  5  7  1  0  0  0  0
  5 11  1  0  0  0  0
  6  8  1  0  0  0  0
  6 31  1  0  0  0  0
  6 32  1  0  0  0  0
  7  9  1  0  0  0  0
  7 33  1  0  0  0  0
  7 34  1  0  0  0  0
  8 35  1  0  0  0  0
  8 36  1  0  0  0  0
  9 37  1  0  0  0  0
  9 38  1  0  0  0  0
 10 12  1  0  0  0  0
 10 39  1  0  0  0  0
 10 40  1  0  0  0  0
 11 16  2  0  0  0  0
 11 17  1  0  0  0  0
 12 13  1  0  0  0  0
 12 14  2  0  0  0  0
 13 15  1  0  0  0  0
 13 20  2  0  0  0  0
 14 42  1  0  0  0  0
 15 22  2  0  0  0  0
 16 23  1  0  0  0  0
 16 43  1  0  0  0  0
 17 24  2  0  0  0  0
 17 44  1  0  0  0  0
 18 19  1  0  0  0  0
 18 45  1  0  0  0  0
 18 46  1  0  0  0  0
 19 21  1  0  0  0  0
 19 47  1  0  0  0  0
 19 48  1  0  0  0  0
 20 27  1  0  0  0  0
 20 49  1  0  0  0  0
 21 25  1  0  0  0  0
 21 50  1  0  0  0  0
 21 51  1  0  0  0  0
 22 28  1  0  0  0  0
 22 52  1  0  0  0  0
 23 26  2  0  0  0  0
 23 53  1  0  0  0  0
 24 26  1  0  0  0  0
 24 54  1  0  0  0  0
 25 29  1  0  0  0  0
 25 55  1  0  0  0  0
 25 56  1  0  0  0  0
 27 28  2  0  0  0  0
 27 57  1  0  0  0  0
 28 58  1  0  0  0  0
 29 30  1  0  0  0  0
 29 59  1  0  0  0  0
 29 60  1  0  0  0  0
 30 61  1  0  0  0  0
 30 62  1  0  0  0  0
 30 63  1  0  0  0  0
M  END
> <PUBCHEM_COMPOUND_CID>
44438237

> <PUBCHEM_COMPOUND_CANONICALIZED>
1

> <PUBCHEM_CACTVS_COMPLEXITY>
513

> <PUBCHEM_CACTVS_HBOND_ACCEPTOR>
2

> <PUBCHEM_CACTVS_HBOND_DONOR>
1

> <PUBCHEM_CACTVS_ROTATABLE_BOND>
8

> <PUBCHEM_CACTVS_SUBSKEYS>
AAADcfB7IAAEAAAAAAAAAAAAAAAAAWAAAAA8YIAAAAAAAFgB9AAAHgIACAAADE7BniQ+wPMMEgCgAzRnRACCgCAxByAI2CA4bpgIJuLB05GEcAhmwAHI2AeQwOAOhAAAAAACAAAIAAAAAAQAAAAAAAAAAA==

> <PUBCHEM_IUPAC_OPENEYE_NAME>
4-(4-chlorophenyl)-1-[(1-hexylindol-3-yl)methyl]piperidin-4-ol

> <PUBCHEM_IUPAC_CAS_NAME>
4-(4-chlorophenyl)-1-[(1-hexyl-3-indolyl)methyl]-4-piperidinol

> <PUBCHEM_IUPAC_NAME_MARKUP>
4-(4-chlorophenyl)-1-[(1-hexylindol-3-yl)methyl]piperidin-4-ol

> <PUBCHEM_IUPAC_NAME>
4-(4-chlorophenyl)-1-[(1-hexylindol-3-yl)methyl]piperidin-4-ol

> <PUBCHEM_IUPAC_SYSTEMATIC_NAME>
4-(4-chlorophenyl)-1-[(1-hexylindol-3-yl)methyl]piperidin-4-ol

> <PUBCHEM_IUPAC_TRADITIONAL_NAME>
4-(4-chlorophenyl)-1-[(1-hexylindol-3-yl)methyl]piperidin-4-ol

> <PUBCHEM_IUPAC_INCHI>
InChI=1S/C26H33ClN2O/c1-2-3-4-7-16-29-20-21(24-8-5-6-9-25(24)29)19-28-17-14-26(30,15-18-28)22-10-12-23(27)13-11-22/h5-6,8-13,20,30H,2-4,7,14-19H2,1H3

> <PUBCHEM_IUPAC_INCHIKEY>
KHNRAYBLMYKIRA-UHFFFAOYSA-N

> <PUBCHEM_XLOGP3_AA>
5.9

> <PUBCHEM_EXACT_MASS>
424.2281414

> <PUBCHEM_MOLECULAR_FORMULA>
C26H33ClN2O

> <PUBCHEM_MOLECULAR_WEIGHT>
425.0

> <PUBCHEM_OPENEYE_CAN_SMILES>
CCCCCCN1C=C(C2=CC=CC=C21)CN3CCC(CC3)(C4=CC=C(C=C4)Cl)O

> <PUBCHEM_OPENEYE_ISO_SMILES>
CCCCCCN1C=C(C2=CC=CC=C21)CN3CCC(CC3)(C4=CC=C(C=C4)Cl)O

> <PUBCHEM_CACTVS_TPSA>
28.4

> <PUBCHEM_MONOISOTOPIC_WEIGHT>
424.2281414

> <PUBCHEM_TOTAL_CHARGE>
0

> <PUBCHEM_HEAVY_ATOM_COUNT>
30

> <PUBCHEM_ATOM_DEF_STEREO_COUNT>
0

> <PUBCHEM_ATOM_UDEF_STEREO_COUNT>
0

> <PUBCHEM_BOND_DEF_STEREO_COUNT>
0

> <PUBCHEM_BOND_UDEF_STEREO_COUNT>
0

> <PUBCHEM_ISOTOPIC_ATOM_COUNT>
0

> <PUBCHEM_COMPONENT_COUNT>
1

> <PUBCHEM_CACTVS_TAUTO_COUNT>
-1

> <PUBCHEM_COORDINATE_TYPE>
1
5
255

> <PUBCHEM_BONDANNOTATIONS>
11  16  8
11  17  8
12  13  8
12  14  8
13  15  8
13  20  8
15  22  8
16  23  8
17  24  8
20  27  8
22  28  8
23  26  8
24  26  8
27  28  8
4  14  8
4  15  8

$$$$
