118736373
  -OEChem-09292322352D

 71 76  0     0  0  0  0  0  0999 V2000
   16.0999    3.9178    0.0000 Cl  0  0  0  0  0  0  0  0  0  0  0  0
    3.3823   -1.4045    0.0000 O   0  0  0  0  0  0  0  0  0  0  0  0
    2.6330    2.0551    0.0000 O   0  0  0  0  0  0  0  0  0  0  0  0
   10.3904    2.0736    0.0000 N   0  0  0  0  0  0  0  0  0  0  0  0
   12.2936    2.6883    0.0000 N   0  0  0  0  0  0  0  0  0  0  0  0
    7.1164   -0.8041    0.0000 N   0  0  0  0  0  0  0  0  0  0  0  0
    5.5047   -0.8055    0.0000 N   0  0  0  0  0  0  0  0  0  0  0  0
    6.0047    0.7333    0.0000 N   0  0  0  0  0  0  0  0  0  0  0  0
    4.3197    1.5181    0.0000 N   0  0  0  0  0  0  0  0  0  0  0  0
    2.9773    0.3187    0.0000 N   0  0  0  0  0  0  0  0  0  0  0  0
    9.4388    1.7662    0.0000 C   0  0  0  0  0  0  0  0  0  0  0  0
   11.1324    1.4032    0.0000 C   0  0  0  0  0  0  0  0  0  0  0  0
   10.6000    3.0514    0.0000 C   0  0  0  0  0  0  0  0  0  0  0  0
   12.0840    1.7105    0.0000 C   0  0  0  0  0  0  0  0  0  0  0  0
   11.5516    3.3587    0.0000 C   0  0  0  0  0  0  0  0  0  0  0  0
    9.2292    0.7884    0.0000 C   0  0  0  0  0  0  0  0  0  0  0  0
    8.2776    0.4810    0.0000 C   0  0  0  0  0  0  0  0  0  0  0  0
    8.0680   -0.4967    0.0000 C   0  0  0  0  0  0  0  0  0  0  0  0
    6.3137   -0.2177    0.0000 C   0  0  0  0  0  0  0  0  0  0  0  0
    6.8084   -1.7493    0.0000 C   0  0  0  0  0  0  0  0  0  0  0  0
    4.6957   -0.2177    0.0000 C   0  0  0  0  0  0  0  0  0  0  0  0
   13.2452    2.9957    0.0000 C   0  0  0  0  0  0  0  0  0  0  0  0
    5.8143   -1.7501    0.0000 C   0  0  0  0  0  0  0  0  0  0  0  0
    5.0047    0.7333    0.0000 C   0  0  0  0  0  0  0  0  0  0  0  0
    7.3962   -2.5583    0.0000 C   0  0  0  0  0  0  0  0  0  0  0  0
    3.6803   -0.4500    0.0000 C   0  0  0  0  0  0  0  0  0  0  0  0
   13.4548    3.9735    0.0000 C   0  0  0  0  0  0  0  0  0  0  0  0
   13.9872    2.3253    0.0000 C   0  0  0  0  0  0  0  0  0  0  0  0
    3.2992    1.3094    0.0000 C   0  0  0  0  0  0  0  0  0  0  0  0
    6.9895   -3.4718    0.0000 C   0  0  0  0  0  0  0  0  0  0  0  0
    8.3907   -2.4538    0.0000 C   0  0  0  0  0  0  0  0  0  0  0  0
    4.6397    2.4655    0.0000 C   0  0  0  0  0  0  0  0  0  0  0  0
   14.4064    4.2808    0.0000 C   0  0  0  0  0  0  0  0  0  0  0  0
   14.9387    2.6326    0.0000 C   0  0  0  0  0  0  0  0  0  0  0  0
    2.0000    0.1070    0.0000 C   0  0  0  0  0  0  0  0  0  0  0  0
   15.1483    3.6104    0.0000 C   0  0  0  0  0  0  0  0  0  0  0  0
    7.5772   -4.2808    0.0000 C   0  0  0  0  0  0  0  0  0  0  0  0
    8.9785   -3.2628    0.0000 C   0  0  0  0  0  0  0  0  0  0  0  0
    8.5718   -4.1763    0.0000 C   0  0  0  0  0  0  0  0  0  0  0  0
    9.3536    2.3803    0.0000 H   0  0  0  0  0  0  0  0  0  0  0  0
    8.8192    1.7889    0.0000 H   0  0  0  0  0  0  0  0  0  0  0  0
   10.6432    1.0223    0.0000 H   0  0  0  0  0  0  0  0  0  0  0  0
   11.4225    0.8552    0.0000 H   0  0  0  0  0  0  0  0  0  0  0  0
   10.5148    3.6655    0.0000 H   0  0  0  0  0  0  0  0  0  0  0  0
    9.9804    3.0741    0.0000 H   0  0  0  0  0  0  0  0  0  0  0  0
    9.3144    0.1743    0.0000 H   0  0  0  0  0  0  0  0  0  0  0  0
    9.8488    0.7657    0.0000 H   0  0  0  0  0  0  0  0  0  0  0  0
   12.1692    1.0964    0.0000 H   0  0  0  0  0  0  0  0  0  0  0  0
   12.7036    1.6878    0.0000 H   0  0  0  0  0  0  0  0  0  0  0  0
   12.0408    3.7396    0.0000 H   0  0  0  0  0  0  0  0  0  0  0  0
   11.2615    3.9067    0.0000 H   0  0  0  0  0  0  0  0  0  0  0  0
    8.1924    1.0952    0.0000 H   0  0  0  0  0  0  0  0  0  0  0  0
    7.6580    0.5038    0.0000 H   0  0  0  0  0  0  0  0  0  0  0  0
    8.1532   -1.1108    0.0000 H   0  0  0  0  0  0  0  0  0  0  0  0
    8.6876   -0.5194    0.0000 H   0  0  0  0  0  0  0  0  0  0  0  0
    5.4508   -2.2524    0.0000 H   0  0  0  0  0  0  0  0  0  0  0  0
   12.9947    4.3891    0.0000 H   0  0  0  0  0  0  0  0  0  0  0  0
   13.8572    1.7190    0.0000 H   0  0  0  0  0  0  0  0  0  0  0  0
    6.3729   -3.5366    0.0000 H   0  0  0  0  0  0  0  0  0  0  0  0
    8.6429   -1.8874    0.0000 H   0  0  0  0  0  0  0  0  0  0  0  0
    5.2271    2.2671    0.0000 H   0  0  0  0  0  0  0  0  0  0  0  0
    4.8381    3.0529    0.0000 H   0  0  0  0  0  0  0  0  0  0  0  0
    4.0523    2.6639    0.0000 H   0  0  0  0  0  0  0  0  0  0  0  0
   14.5363    4.8871    0.0000 H   0  0  0  0  0  0  0  0  0  0  0  0
   15.3988    2.2170    0.0000 H   0  0  0  0  0  0  0  0  0  0  0  0
    1.8688    0.7130    0.0000 H   0  0  0  0  0  0  0  0  0  0  0  0
    1.3940   -0.0242    0.0000 H   0  0  0  0  0  0  0  0  0  0  0  0
    2.1312   -0.4989    0.0000 H   0  0  0  0  0  0  0  0  0  0  0  0
    7.3251   -4.8472    0.0000 H   0  0  0  0  0  0  0  0  0  0  0  0
    9.5951   -3.1980    0.0000 H   0  0  0  0  0  0  0  0  0  0  0  0
    8.9362   -4.6779    0.0000 H   0  0  0  0  0  0  0  0  0  0  0  0
  1 36  1  0  0  0  0
  2 26  2  0  0  0  0
  3 29  2  0  0  0  0
  4 11  1  0  0  0  0
  4 12  1  0  0  0  0
  4 13  1  0  0  0  0
  5 14  1  0  0  0  0
  5 15  1  0  0  0  0
  5 22  1  0  0  0  0
  6 18  1  0  0  0  0
  6 19  1  0  0  0  0
  6 20  1  0  0  0  0
  7 19  1  0  0  0  0
  7 21  1  0  0  0  0
  7 23  1  0  0  0  0
  8 19  2  0  0  0  0
  8 24  1  0  0  0  0
  9 24  1  0  0  0  0
  9 29  1  0  0  0  0
  9 32  1  0  0  0  0
 10 26  1  0  0  0  0
 10 29  1  0  0  0  0
 10 35  1  0  0  0  0
 11 16  1  0  0  0  0
 11 40  1  0  0  0  0
 11 41  1  0  0  0  0
 12 14  1  0  0  0  0
 12 42  1  0  0  0  0
 12 43  1  0  0  0  0
 13 15  1  0  0  0  0
 13 44  1  0  0  0  0
 13 45  1  0  0  0  0
 14 48  1  0  0  0  0
 14 49  1  0  0  0  0
 15 50  1  0  0  0  0
 15 51  1  0  0  0  0
 16 17  1  0  0  0  0
 16 46  1  0  0  0  0
 16 47  1  0  0  0  0
 17 18  1  0  0  0  0
 17 52  1  0  0  0  0
 17 53  1  0  0  0  0
 18 54  1  0  0  0  0
 18 55  1  0  0  0  0
 20 23  2  0  0  0  0
 20 25  1  0  0  0  0
 21 24  2  0  0  0  0
 21 26  1  0  0  0  0
 22 27  2  0  0  0  0
 22 28  1  0  0  0  0
 23 56  1  0  0  0  0
 25 30  2  0  0  0  0
 25 31  1  0  0  0  0
 27 33  1  0  0  0  0
 27 57  1  0  0  0  0
 28 34  2  0  0  0  0
 28 58  1  0  0  0  0
 30 37  1  0  0  0  0
 30 59  1  0  0  0  0
 31 38  2  0  0  0  0
 31 60  1  0  0  0  0
 32 61  1  0  0  0  0
 32 62  1  0  0  0  0
 32 63  1  0  0  0  0
 33 36  2  0  0  0  0
 33 64  1  0  0  0  0
 34 36  1  0  0  0  0
 34 65  1  0  0  0  0
 35 66  1  0  0  0  0
 35 67  1  0  0  0  0
 35 68  1  0  0  0  0
 37 39  2  0  0  0  0
 37 69  1  0  0  0  0
 38 39  1  0  0  0  0
 38 70  1  0  0  0  0
 39 71  1  0  0  0  0
M  END
> <PUBCHEM_COMPOUND_CID>
118736373

> <PUBCHEM_COMPOUND_CANONICALIZED>
1

> <PUBCHEM_CACTVS_COMPLEXITY>
872

> <PUBCHEM_CACTVS_HBOND_ACCEPTOR>
5

> <PUBCHEM_CACTVS_HBOND_DONOR>
0

> <PUBCHEM_CACTVS_ROTATABLE_BOND>
7

> <PUBCHEM_CACTVS_SUBSKEYS>
AAADcfB7sAAEAAAAAAAAAAAAAAAAAWLAAAA8eIEAAAAWAFgB9AAAHgIAAAAADArBniQ/8JcMGACoAzd3dACCgC03F6AJ2CG4dtiIaOrB27GUIIhohyLIyGcQgIAOAABAAAAAAAAAAIAAAAAAAAAAAAAAAA==

> <PUBCHEM_IUPAC_OPENEYE_NAME>
6-[4-[4-(4-chlorophenyl)piperazin-1-yl]butyl]-2,4-dimethyl-7-phenyl-purino[7,8-a]imidazole-1,3-dione

> <PUBCHEM_IUPAC_CAS_NAME>
6-[4-[4-(4-chlorophenyl)-1-piperazinyl]butyl]-2,4-dimethyl-7-phenylpurino[7,8-a]imidazole-1,3-dione

> <PUBCHEM_IUPAC_NAME_MARKUP>
6-[4-[4-(4-chlorophenyl)piperazin-1-yl]butyl]-2,4-dimethyl-7-phenylpurino[7,8-a]imidazole-1,3-dione

> <PUBCHEM_IUPAC_NAME>
6-[4-[4-(4-chlorophenyl)piperazin-1-yl]butyl]-2,4-dimethyl-7-phenylpurino[7,8-a]imidazole-1,3-dione

> <PUBCHEM_IUPAC_SYSTEMATIC_NAME>
6-[4-[4-(4-chlorophenyl)piperazin-1-yl]butyl]-2,4-dimethyl-7-phenyl-purino[7,8-a]imidazole-1,3-dione

> <PUBCHEM_IUPAC_TRADITIONAL_NAME>
6-[4-[4-(4-chlorophenyl)piperazino]butyl]-2,4-dimethyl-7-phenyl-purin[7,8-a]imidazole-1,3-quinone

> <PUBCHEM_IUPAC_INCHI>
InChI=1S/C29H32ClN7O2/c1-32-26-25(27(38)33(2)29(32)39)37-20-24(21-8-4-3-5-9-21)36(28(37)31-26)15-7-6-14-34-16-18-35(19-17-34)23-12-10-22(30)11-13-23/h3-5,8-13,20H,6-7,14-19H2,1-2H3

> <PUBCHEM_IUPAC_INCHIKEY>
SMRDWSOUDWTDBN-UHFFFAOYSA-N

> <PUBCHEM_XLOGP3_AA>
5

> <PUBCHEM_EXACT_MASS>
545.2306010

> <PUBCHEM_MOLECULAR_FORMULA>
C29H32ClN7O2

> <PUBCHEM_MOLECULAR_WEIGHT>
546.1

> <PUBCHEM_OPENEYE_CAN_SMILES>
CN1C2=C(C(=O)N(C1=O)C)N3C=C(N(C3=N2)CCCCN4CCN(CC4)C5=CC=C(C=C5)Cl)C6=CC=CC=C6

> <PUBCHEM_OPENEYE_ISO_SMILES>
CN1C2=C(C(=O)N(C1=O)C)N3C=C(N(C3=N2)CCCCN4CCN(CC4)C5=CC=C(C=C5)Cl)C6=CC=CC=C6

> <PUBCHEM_CACTVS_TPSA>
69.3

> <PUBCHEM_MONOISOTOPIC_WEIGHT>
545.2306010

> <PUBCHEM_TOTAL_CHARGE>
0

> <PUBCHEM_HEAVY_ATOM_COUNT>
39

> <PUBCHEM_ATOM_DEF_STEREO_COUNT>
0

> <PUBCHEM_ATOM_UDEF_STEREO_COUNT>
0

> <PUBCHEM_BOND_DEF_STEREO_COUNT>
0

> <PUBCHEM_BOND_UDEF_STEREO_COUNT>
0

> <PUBCHEM_ISOTOPIC_ATOM_COUNT>
0

> <PUBCHEM_COMPONENT_COUNT>
1

> <PUBCHEM_CACTVS_TAUTO_COUNT>
-1

> <PUBCHEM_COORDINATE_TYPE>
1
5
255

> <PUBCHEM_BONDANNOTATIONS>
10  26  8
10  29  8
20  23  8
21  24  8
21  26  8
22  27  8
22  28  8
25  30  8
25  31  8
27  33  8
28  34  8
30  37  8
31  38  8
33  36  8
34  36  8
37  39  8
38  39  8
6  19  8
6  20  8
7  19  8
7  21  8
7  23  8
8  19  8
8  24  8
9  24  8
9  29  8

$$$$
