44315548
  -OEChem-09292322152D

 49 52  0     0  0  0  0  0  0999 V2000
    2.8660    6.1970    0.0000 F   0  0  0  0  0  0  0  0  0  0  0  0
    6.4103   -3.9982    0.0000 O   0  0  0  0  0  0  0  0  0  0  0  0
    7.9939   -4.8030    0.0000 O   0  0  0  0  0  0  0  0  0  0  0  0
    2.0000    1.6970    0.0000 O   0  0  0  0  0  0  0  0  0  0  0  0
    4.5981   -0.8030    0.0000 N   0  0  0  0  0  0  0  0  0  0  0  0
    4.5981   -2.8030    0.0000 N   0  0  0  0  0  0  0  0  0  0  0  0
    3.7320    1.6970    0.0000 N   0  0  0  0  0  0  0  0  0  0  0  0
    6.4103   -5.6077    0.0000 N   0  0  0  0  0  0  0  0  0  0  0  0
    3.7320   -1.3030    0.0000 C   0  0  0  0  0  0  0  0  0  0  0  0
    5.4641   -1.3030    0.0000 C   0  0  0  0  0  0  0  0  0  0  0  0
    3.7320   -2.3030    0.0000 C   0  0  0  0  0  0  0  0  0  0  0  0
    5.4641   -2.3030    0.0000 C   0  0  0  0  0  0  0  0  0  0  0  0
    4.5981    0.1970    0.0000 C   0  0  0  0  0  0  0  0  0  0  0  0
    4.5981   -3.8030    0.0000 C   0  0  0  0  0  0  0  0  0  0  0  0
    3.7320    0.6970    0.0000 C   0  0  0  0  0  0  0  0  0  0  0  0
    5.4641   -4.3030    0.0000 C   0  0  0  0  0  0  0  0  0  0  0  0
    3.7320   -4.3030    0.0000 C   0  0  0  0  0  0  0  0  0  0  0  0
    5.4641   -5.3030    0.0000 C   0  0  0  0  0  0  0  0  0  0  0  0
    3.7320   -5.3030    0.0000 C   0  0  0  0  0  0  0  0  0  0  0  0
    4.5981   -5.8030    0.0000 C   0  0  0  0  0  0  0  0  0  0  0  0
    6.9939   -4.8030    0.0000 C   0  0  0  0  0  0  0  0  0  0  0  0
    2.8660    2.1970    0.0000 C   0  0  0  0  0  0  0  0  0  0  0  0
    2.8660    3.1970    0.0000 C   0  0  0  0  0  0  0  0  0  0  0  0
    2.0000    3.6970    0.0000 C   0  0  0  0  0  0  0  0  0  0  0  0
    3.7320    3.6970    0.0000 C   0  0  0  0  0  0  0  0  0  0  0  0
    2.0000    4.6970    0.0000 C   0  0  0  0  0  0  0  0  0  0  0  0
    3.7320    4.6970    0.0000 C   0  0  0  0  0  0  0  0  0  0  0  0
    2.8660    5.1970    0.0000 C   0  0  0  0  0  0  0  0  0  0  0  0
    3.5200   -0.7204    0.0000 H   0  0  0  0  0  0  0  0  0  0  0  0
    3.1215   -1.4106    0.0000 H   0  0  0  0  0  0  0  0  0  0  0  0
    6.0747   -1.4106    0.0000 H   0  0  0  0  0  0  0  0  0  0  0  0
    5.6762   -0.7204    0.0000 H   0  0  0  0  0  0  0  0  0  0  0  0
    3.1215   -2.1953    0.0000 H   0  0  0  0  0  0  0  0  0  0  0  0
    3.5200   -2.8856    0.0000 H   0  0  0  0  0  0  0  0  0  0  0  0
    5.6762   -2.8856    0.0000 H   0  0  0  0  0  0  0  0  0  0  0  0
    6.0747   -2.1953    0.0000 H   0  0  0  0  0  0  0  0  0  0  0  0
    5.2087    0.0894    0.0000 H   0  0  0  0  0  0  0  0  0  0  0  0
    4.8101    0.7796    0.0000 H   0  0  0  0  0  0  0  0  0  0  0  0
    3.1215    0.8047    0.0000 H   0  0  0  0  0  0  0  0  0  0  0  0
    3.5200    0.1144    0.0000 H   0  0  0  0  0  0  0  0  0  0  0  0
    3.1951   -3.9930    0.0000 H   0  0  0  0  0  0  0  0  0  0  0  0
    4.2690    2.0070    0.0000 H   0  0  0  0  0  0  0  0  0  0  0  0
    3.1951   -5.6130    0.0000 H   0  0  0  0  0  0  0  0  0  0  0  0
    4.5981   -6.4230    0.0000 H   0  0  0  0  0  0  0  0  0  0  0  0
    6.6029   -6.1970    0.0000 H   0  0  0  0  0  0  0  0  0  0  0  0
    1.4631    3.3870    0.0000 H   0  0  0  0  0  0  0  0  0  0  0  0
    4.2690    3.3870    0.0000 H   0  0  0  0  0  0  0  0  0  0  0  0
    1.4631    5.0070    0.0000 H   0  0  0  0  0  0  0  0  0  0  0  0
    4.2690    5.0070    0.0000 H   0  0  0  0  0  0  0  0  0  0  0  0
  1 28  1  0  0  0  0
  2 16  1  0  0  0  0
  2 21  1  0  0  0  0
  3 21  2  0  0  0  0
  4 22  2  0  0  0  0
  5  9  1  0  0  0  0
  5 10  1  0  0  0  0
  5 13  1  0  0  0  0
  6 11  1  0  0  0  0
  6 12  1  0  0  0  0
  6 14  1  0  0  0  0
  7 15  1  0  0  0  0
  7 22  1  0  0  0  0
  7 42  1  0  0  0  0
  8 18  1  0  0  0  0
  8 21  1  0  0  0  0
  8 45  1  0  0  0  0
  9 11  1  0  0  0  0
  9 29  1  0  0  0  0
  9 30  1  0  0  0  0
 10 12  1  0  0  0  0
 10 31  1  0  0  0  0
 10 32  1  0  0  0  0
 11 33  1  0  0  0  0
 11 34  1  0  0  0  0
 12 35  1  0  0  0  0
 12 36  1  0  0  0  0
 13 15  1  0  0  0  0
 13 37  1  0  0  0  0
 13 38  1  0  0  0  0
 14 16  1  0  0  0  0
 14 17  2  0  0  0  0
 15 39  1  0  0  0  0
 15 40  1  0  0  0  0
 16 18  2  0  0  0  0
 17 19  1  0  0  0  0
 17 41  1  0  0  0  0
 18 20  1  0  0  0  0
 19 20  2  0  0  0  0
 19 43  1  0  0  0  0
 20 44  1  0  0  0  0
 22 23  1  0  0  0  0
 23 24  2  0  0  0  0
 23 25  1  0  0  0  0
 24 26  1  0  0  0  0
 24 46  1  0  0  0  0
 25 27  2  0  0  0  0
 25 47  1  0  0  0  0
 26 28  2  0  0  0  0
 26 48  1  0  0  0  0
 27 28  1  0  0  0  0
 27 49  1  0  0  0  0
M  END
> <PUBCHEM_COMPOUND_CID>
44315548

> <PUBCHEM_COMPOUND_CANONICALIZED>
1

> <PUBCHEM_CACTVS_COMPLEXITY>
562

> <PUBCHEM_CACTVS_HBOND_ACCEPTOR>
6

> <PUBCHEM_CACTVS_HBOND_DONOR>
2

> <PUBCHEM_CACTVS_ROTATABLE_BOND>
5

> <PUBCHEM_CACTVS_SUBSKEYS>
AAADceB7sQAAAAAAAAAAAAAAAAAAAWAAAAA8YIAAAAAAAFgBQAAAHwAQAAAADAzBmAwwzoPABACIAiVSWACCCAAlIgAIiIENbMkOZjLE9dudMyhk1hHY6YeYyACOAAAAAAQAEAAAAAAACAAgAAAAAAAAAA==

> <PUBCHEM_IUPAC_OPENEYE_NAME>
4-fluoro-N-[2-[4-(2-oxo-3H-1,3-benzoxazol-7-yl)piperazin-1-yl]ethyl]benzamide

> <PUBCHEM_IUPAC_CAS_NAME>
4-fluoro-N-[2-[4-(2-oxo-3H-1,3-benzoxazol-7-yl)-1-piperazinyl]ethyl]benzamide

> <PUBCHEM_IUPAC_NAME_MARKUP>
4-fluoro-<I>N</I>-[2-[4-(2-oxo-3<I>H</I>-1,3-benzoxazol-7-yl)piperazin-1-yl]ethyl]benzamide

> <PUBCHEM_IUPAC_NAME>
4-fluoro-N-[2-[4-(2-oxo-3H-1,3-benzoxazol-7-yl)piperazin-1-yl]ethyl]benzamide

> <PUBCHEM_IUPAC_SYSTEMATIC_NAME>
4-fluoranyl-N-[2-[4-(2-oxidanylidene-3H-1,3-benzoxazol-7-yl)piperazin-1-yl]ethyl]benzamide

> <PUBCHEM_IUPAC_TRADITIONAL_NAME>
4-fluoro-N-[2-[4-(2-keto-3H-1,3-benzoxazol-7-yl)piperazino]ethyl]benzamide

> <PUBCHEM_IUPAC_INCHI>
InChI=1S/C20H21FN4O3/c21-15-6-4-14(5-7-15)19(26)22-8-9-24-10-12-25(13-11-24)17-3-1-2-16-18(17)28-20(27)23-16/h1-7H,8-13H2,(H,22,26)(H,23,27)

> <PUBCHEM_IUPAC_INCHIKEY>
XURLIKHUHWMOTE-UHFFFAOYSA-N

> <PUBCHEM_XLOGP3_AA>
2.1

> <PUBCHEM_EXACT_MASS>
384.15976871

> <PUBCHEM_MOLECULAR_FORMULA>
C20H21FN4O3

> <PUBCHEM_MOLECULAR_WEIGHT>
384.4

> <PUBCHEM_OPENEYE_CAN_SMILES>
C1CN(CCN1CCNC(=O)C2=CC=C(C=C2)F)C3=CC=CC4=C3OC(=O)N4

> <PUBCHEM_OPENEYE_ISO_SMILES>
C1CN(CCN1CCNC(=O)C2=CC=C(C=C2)F)C3=CC=CC4=C3OC(=O)N4

> <PUBCHEM_CACTVS_TPSA>
73.9

> <PUBCHEM_MONOISOTOPIC_WEIGHT>
384.15976871

> <PUBCHEM_TOTAL_CHARGE>
0

> <PUBCHEM_HEAVY_ATOM_COUNT>
28

> <PUBCHEM_ATOM_DEF_STEREO_COUNT>
0

> <PUBCHEM_ATOM_UDEF_STEREO_COUNT>
0

> <PUBCHEM_BOND_DEF_STEREO_COUNT>
0

> <PUBCHEM_BOND_UDEF_STEREO_COUNT>
0

> <PUBCHEM_ISOTOPIC_ATOM_COUNT>
0

> <PUBCHEM_COMPONENT_COUNT>
1

> <PUBCHEM_CACTVS_TAUTO_COUNT>
-1

> <PUBCHEM_COORDINATE_TYPE>
1
5
255

> <PUBCHEM_BONDANNOTATIONS>
14  16  8
14  17  8
16  18  8
17  19  8
18  20  8
19  20  8
2  16  8
2  21  8
23  24  8
23  25  8
24  26  8
25  27  8
26  28  8
27  28  8
8  18  8
8  21  8

$$$$
