10021193
  -OEChem-09292322092D

 51 54  0     1  0  0  0  0  0999 V2000
    2.0000    0.2058    0.0000 O   0  0  0  0  0  0  0  0  0  0  0  0
    4.2320    2.7446    0.0000 N   0  0  3  0  0  0  0  0  0  0  0  0
    3.7320    0.2058    0.0000 N   0  0  0  0  0  0  0  0  0  0  0  0
    3.7320    1.2058    0.0000 C   0  0  3  0  0  0  0  0  0  0  0  0
    2.9230    1.7935    0.0000 C   0  0  0  0  0  0  0  0  0  0  0  0
    4.5411    1.7935    0.0000 C   0  0  0  0  0  0  0  0  0  0  0  0
    3.2320    2.7446    0.0000 C   0  0  0  0  0  0  0  0  0  0  0  0
    4.8198    3.5536    0.0000 C   0  0  0  0  0  0  0  0  0  0  0  0
    4.4131    4.4672    0.0000 C   0  0  0  0  0  0  0  0  0  0  0  0
    2.8660   -0.2942    0.0000 C   0  0  0  0  0  0  0  0  0  0  0  0
    3.4186    4.5717    0.0000 C   0  0  0  0  0  0  0  0  0  0  0  0
    5.0009    5.2762    0.0000 C   0  0  0  0  0  0  0  0  0  0  0  0
    2.8660   -1.2942    0.0000 C   0  0  0  0  0  0  0  0  0  0  0  0
    3.0118    5.4852    0.0000 C   0  0  0  0  0  0  0  0  0  0  0  0
    4.5942    6.1897    0.0000 C   0  0  0  0  0  0  0  0  0  0  0  0
    2.0000   -1.7942    0.0000 C   0  0  0  0  0  0  0  0  0  0  0  0
    3.7320   -1.7942    0.0000 C   0  0  0  0  0  0  0  0  0  0  0  0
    3.5996    6.2942    0.0000 C   0  0  0  0  0  0  0  0  0  0  0  0
    2.8660   -3.2942    0.0000 C   0  0  0  0  0  0  0  0  0  0  0  0
    2.0000   -2.7942    0.0000 C   0  0  0  0  0  0  0  0  0  0  0  0
    3.7320   -2.7942    0.0000 C   0  0  0  0  0  0  0  0  0  0  0  0
    2.8660   -4.2942    0.0000 C   0  0  0  0  0  0  0  0  0  0  0  0
    3.7320   -4.7942    0.0000 C   0  0  0  0  0  0  0  0  0  0  0  0
    2.0000   -4.7942    0.0000 C   0  0  0  0  0  0  0  0  0  0  0  0
    3.7320   -5.7942    0.0000 C   0  0  0  0  0  0  0  0  0  0  0  0
    2.0000   -5.7942    0.0000 C   0  0  0  0  0  0  0  0  0  0  0  0
    2.8660   -6.2942    0.0000 C   0  0  0  0  0  0  0  0  0  0  0  0
    4.2845    0.9243    0.0000 H   0  0  0  0  0  0  0  0  0  0  0  0
    2.3566    2.0457    0.0000 H   0  0  0  0  0  0  0  0  0  0  0  0
    2.6130    1.2566    0.0000 H   0  0  0  0  0  0  0  0  0  0  0  0
    4.8511    1.2566    0.0000 H   0  0  0  0  0  0  0  0  0  0  0  0
    5.1075    2.0457    0.0000 H   0  0  0  0  0  0  0  0  0  0  0  0
    3.2969    3.3612    0.0000 H   0  0  0  0  0  0  0  0  0  0  0  0
    2.6256    2.8735    0.0000 H   0  0  0  0  0  0  0  0  0  0  0  0
    5.2505    3.1076    0.0000 H   0  0  0  0  0  0  0  0  0  0  0  0
    5.3338    3.9003    0.0000 H   0  0  0  0  0  0  0  0  0  0  0  0
    4.2690   -0.1042    0.0000 H   0  0  0  0  0  0  0  0  0  0  0  0
    3.0542    4.0701    0.0000 H   0  0  0  0  0  0  0  0  0  0  0  0
    5.6175    5.2114    0.0000 H   0  0  0  0  0  0  0  0  0  0  0  0
    2.3952    5.5500    0.0000 H   0  0  0  0  0  0  0  0  0  0  0  0
    4.9586    6.6913    0.0000 H   0  0  0  0  0  0  0  0  0  0  0  0
    1.4631   -1.4842    0.0000 H   0  0  0  0  0  0  0  0  0  0  0  0
    4.2690   -1.4842    0.0000 H   0  0  0  0  0  0  0  0  0  0  0  0
    3.3474    6.8606    0.0000 H   0  0  0  0  0  0  0  0  0  0  0  0
    1.4631   -3.1042    0.0000 H   0  0  0  0  0  0  0  0  0  0  0  0
    4.2690   -3.1042    0.0000 H   0  0  0  0  0  0  0  0  0  0  0  0
    4.2690   -4.4842    0.0000 H   0  0  0  0  0  0  0  0  0  0  0  0
    1.4631   -4.4842    0.0000 H   0  0  0  0  0  0  0  0  0  0  0  0
    4.2690   -6.1043    0.0000 H   0  0  0  0  0  0  0  0  0  0  0  0
    1.4631   -6.1043    0.0000 H   0  0  0  0  0  0  0  0  0  0  0  0
    2.8660   -6.9142    0.0000 H   0  0  0  0  0  0  0  0  0  0  0  0
  1 10  2  0  0  0  0
  2  6  1  0  0  0  0
  2  7  1  0  0  0  0
  2  8  1  0  0  0  0
  3  4  1  0  0  0  0
  3 10  1  0  0  0  0
  3 37  1  0  0  0  0
  4  5  1  0  0  0  0
  4  6  1  0  0  0  0
  4 28  1  0  0  0  0
  5  7  1  0  0  0  0
  5 29  1  0  0  0  0
  5 30  1  0  0  0  0
  6 31  1  0  0  0  0
  6 32  1  0  0  0  0
  7 33  1  0  0  0  0
  7 34  1  0  0  0  0
  8  9  1  0  0  0  0
  8 35  1  0  0  0  0
  8 36  1  0  0  0  0
  9 11  2  0  0  0  0
  9 12  1  0  0  0  0
 10 13  1  0  0  0  0
 11 14  1  0  0  0  0
 11 38  1  0  0  0  0
 12 15  2  0  0  0  0
 12 39  1  0  0  0  0
 13 16  2  0  0  0  0
 13 17  1  0  0  0  0
 14 18  2  0  0  0  0
 14 40  1  0  0  0  0
 15 18  1  0  0  0  0
 15 41  1  0  0  0  0
 16 20  1  0  0  0  0
 16 42  1  0  0  0  0
 17 21  2  0  0  0  0
 17 43  1  0  0  0  0
 18 44  1  0  0  0  0
 19 20  2  0  0  0  0
 19 21  1  0  0  0  0
 19 22  1  0  0  0  0
 20 45  1  0  0  0  0
 21 46  1  0  0  0  0
 22 23  2  0  0  0  0
 22 24  1  0  0  0  0
 23 25  1  0  0  0  0
 23 47  1  0  0  0  0
 24 26  2  0  0  0  0
 24 48  1  0  0  0  0
 25 27  2  0  0  0  0
 25 49  1  0  0  0  0
 26 27  1  0  0  0  0
 26 50  1  0  0  0  0
 27 51  1  0  0  0  0
M  END
> <PUBCHEM_COMPOUND_CID>
10021193

> <PUBCHEM_COMPOUND_CANONICALIZED>
1

> <PUBCHEM_CACTVS_COMPLEXITY>
459

> <PUBCHEM_CACTVS_HBOND_ACCEPTOR>
2

> <PUBCHEM_CACTVS_HBOND_DONOR>
1

> <PUBCHEM_CACTVS_ROTATABLE_BOND>
5

> <PUBCHEM_CACTVS_SUBSKEYS>
AAADceB7IAAAAAAAAAAAAAAAAAAAAWAAAAAwYMAAAAAAAAABUAAAHgAQAAAADCjBmAQwAIPAAACIAiFSEACCAAAkAAAIiIEIBMgIYDKA1RGUIQhglgCIiYcYiMCOwAAAAAAAAACAAAAAAAAAAAAAAAAAAA==

> <PUBCHEM_IUPAC_OPENEYE_NAME>
N-(1-benzylpyrrolidin-3-yl)-4-phenyl-benzamide

> <PUBCHEM_IUPAC_CAS_NAME>
4-phenyl-N-[1-(phenylmethyl)-3-pyrrolidinyl]benzamide

> <PUBCHEM_IUPAC_NAME_MARKUP>
<I>N</I>-(1-benzylpyrrolidin-3-yl)-4-phenylbenzamide

> <PUBCHEM_IUPAC_NAME>
N-(1-benzylpyrrolidin-3-yl)-4-phenylbenzamide

> <PUBCHEM_IUPAC_SYSTEMATIC_NAME>
4-phenyl-N-[1-(phenylmethyl)pyrrolidin-3-yl]benzamide

> <PUBCHEM_IUPAC_TRADITIONAL_NAME>
N-(1-benzylpyrrolidin-3-yl)-4-phenyl-benzamide

> <PUBCHEM_IUPAC_INCHI>
InChI=1S/C24H24N2O/c27-24(22-13-11-21(12-14-22)20-9-5-2-6-10-20)25-23-15-16-26(18-23)17-19-7-3-1-4-8-19/h1-14,23H,15-18H2,(H,25,27)

> <PUBCHEM_IUPAC_INCHIKEY>
LTDTVIVWGGLMSW-UHFFFAOYSA-N

> <PUBCHEM_XLOGP3_AA>
4.6

> <PUBCHEM_EXACT_MASS>
356.188863393

> <PUBCHEM_MOLECULAR_FORMULA>
C24H24N2O

> <PUBCHEM_MOLECULAR_WEIGHT>
356.5

> <PUBCHEM_OPENEYE_CAN_SMILES>
C1CN(CC1NC(=O)C2=CC=C(C=C2)C3=CC=CC=C3)CC4=CC=CC=C4

> <PUBCHEM_OPENEYE_ISO_SMILES>
C1CN(CC1NC(=O)C2=CC=C(C=C2)C3=CC=CC=C3)CC4=CC=CC=C4

> <PUBCHEM_CACTVS_TPSA>
32.3

> <PUBCHEM_MONOISOTOPIC_WEIGHT>
356.188863393

> <PUBCHEM_TOTAL_CHARGE>
0

> <PUBCHEM_HEAVY_ATOM_COUNT>
27

> <PUBCHEM_ATOM_DEF_STEREO_COUNT>
0

> <PUBCHEM_ATOM_UDEF_STEREO_COUNT>
1

> <PUBCHEM_BOND_DEF_STEREO_COUNT>
0

> <PUBCHEM_BOND_UDEF_STEREO_COUNT>
0

> <PUBCHEM_ISOTOPIC_ATOM_COUNT>
0

> <PUBCHEM_COMPONENT_COUNT>
1

> <PUBCHEM_CACTVS_TAUTO_COUNT>
-1

> <PUBCHEM_COORDINATE_TYPE>
1
5
255

> <PUBCHEM_BONDANNOTATIONS>
11  14  8
12  15  8
13  16  8
13  17  8
14  18  8
15  18  8
16  20  8
17  21  8
19  20  8
19  21  8
22  23  8
22  24  8
23  25  8
24  26  8
25  27  8
26  27  8
4  3  3
9  11  8
9  12  8

$$$$
