168288598
  -OEChem-09292322442D

 61 63  0     0  0  0  0  0  0999 V2000
    4.5981    4.9050    0.0000 O   0  0  0  0  0  0  0  0  0  0  0  0
    2.8660    1.9050    0.0000 N   0  0  0  0  0  0  0  0  0  0  0  0
    2.8660    3.9050    0.0000 N   0  0  0  0  0  0  0  0  0  0  0  0
    5.4641   -3.5950    0.0000 N   0  0  0  0  0  0  0  0  0  0  0  0
    6.3301   -5.0950    0.0000 N   0  0  0  0  0  0  0  0  0  0  0  0
    7.1962   -3.5950    0.0000 N   0  0  0  0  0  0  0  0  0  0  0  0
    8.0622   -5.0950    0.0000 N   0  0  0  0  0  0  0  0  0  0  0  0
    7.1962   -6.5950    0.0000 N   0  0  0  0  0  0  0  0  0  0  0  0
    8.9282   -3.5950    0.0000 N   0  0  0  0  0  0  0  0  0  0  0  0
    2.0000    2.4050    0.0000 C   0  0  0  0  0  0  0  0  0  0  0  0
    3.7320    2.4050    0.0000 C   0  0  0  0  0  0  0  0  0  0  0  0
    2.0000    3.4050    0.0000 C   0  0  0  0  0  0  0  0  0  0  0  0
    3.7320    3.4050    0.0000 C   0  0  0  0  0  0  0  0  0  0  0  0
    2.8660    0.9050    0.0000 C   0  0  0  0  0  0  0  0  0  0  0  0
    3.7320    0.4050    0.0000 C   0  0  0  0  0  0  0  0  0  0  0  0
    3.7320   -0.5950    0.0000 C   0  0  0  0  0  0  0  0  0  0  0  0
    2.8660    4.9050    0.0000 C   0  0  0  0  0  0  0  0  0  0  0  0
    4.5981   -1.0950    0.0000 C   0  0  0  0  0  0  0  0  0  0  0  0
    4.5981   -2.0950    0.0000 C   0  0  0  0  0  0  0  0  0  0  0  0
    3.7320    5.4050    0.0000 C   0  0  0  0  0  0  0  0  0  0  0  0
    2.0000    5.4050    0.0000 C   0  0  0  0  0  0  0  0  0  0  0  0
    5.4641   -2.5950    0.0000 C   0  0  0  0  0  0  0  0  0  0  0  0
    3.7320    6.4050    0.0000 C   0  0  0  0  0  0  0  0  0  0  0  0
    2.0000    6.4050    0.0000 C   0  0  0  0  0  0  0  0  0  0  0  0
    2.8660    6.9050    0.0000 C   0  0  0  0  0  0  0  0  0  0  0  0
    5.4641    5.4050    0.0000 C   0  0  0  0  0  0  0  0  0  0  0  0
    6.3301   -4.0950    0.0000 C   0  0  0  0  0  0  0  0  0  0  0  0
    7.1962   -5.5950    0.0000 C   0  0  0  0  0  0  0  0  0  0  0  0
    8.0622   -4.0950    0.0000 C   0  0  0  0  0  0  0  0  0  0  0  0
    1.3894    2.5127    0.0000 H   0  0  0  0  0  0  0  0  0  0  0  0
    1.7880    1.8224    0.0000 H   0  0  0  0  0  0  0  0  0  0  0  0
    3.9441    1.8224    0.0000 H   0  0  0  0  0  0  0  0  0  0  0  0
    4.3426    2.5127    0.0000 H   0  0  0  0  0  0  0  0  0  0  0  0
    1.7880    3.9876    0.0000 H   0  0  0  0  0  0  0  0  0  0  0  0
    1.3894    3.2973    0.0000 H   0  0  0  0  0  0  0  0  0  0  0  0
    4.3426    3.2973    0.0000 H   0  0  0  0  0  0  0  0  0  0  0  0
    3.9441    3.9876    0.0000 H   0  0  0  0  0  0  0  0  0  0  0  0
    2.2554    1.0127    0.0000 H   0  0  0  0  0  0  0  0  0  0  0  0
    2.6540    0.3224    0.0000 H   0  0  0  0  0  0  0  0  0  0  0  0
    4.3426    0.2973    0.0000 H   0  0  0  0  0  0  0  0  0  0  0  0
    3.9441    0.9876    0.0000 H   0  0  0  0  0  0  0  0  0  0  0  0
    3.1215   -0.4873    0.0000 H   0  0  0  0  0  0  0  0  0  0  0  0
    3.5200   -1.1776    0.0000 H   0  0  0  0  0  0  0  0  0  0  0  0
    5.2087   -1.2027    0.0000 H   0  0  0  0  0  0  0  0  0  0  0  0
    4.8101   -0.5124    0.0000 H   0  0  0  0  0  0  0  0  0  0  0  0
    3.9875   -1.9873    0.0000 H   0  0  0  0  0  0  0  0  0  0  0  0
    4.3860   -2.6776    0.0000 H   0  0  0  0  0  0  0  0  0  0  0  0
    1.4631    5.0950    0.0000 H   0  0  0  0  0  0  0  0  0  0  0  0
    6.0747   -2.7027    0.0000 H   0  0  0  0  0  0  0  0  0  0  0  0
    5.6762   -2.0124    0.0000 H   0  0  0  0  0  0  0  0  0  0  0  0
    4.2690    6.7150    0.0000 H   0  0  0  0  0  0  0  0  0  0  0  0
    1.4631    6.7150    0.0000 H   0  0  0  0  0  0  0  0  0  0  0  0
    2.8660    7.5250    0.0000 H   0  0  0  0  0  0  0  0  0  0  0  0
    4.9272   -3.9050    0.0000 H   0  0  0  0  0  0  0  0  0  0  0  0
    5.7741    4.8681    0.0000 H   0  0  0  0  0  0  0  0  0  0  0  0
    6.0010    5.7150    0.0000 H   0  0  0  0  0  0  0  0  0  0  0  0
    5.1541    5.9419    0.0000 H   0  0  0  0  0  0  0  0  0  0  0  0
    7.7331   -6.9050    0.0000 H   0  0  0  0  0  0  0  0  0  0  0  0
    6.6592   -6.9050    0.0000 H   0  0  0  0  0  0  0  0  0  0  0  0
    9.4651   -3.9050    0.0000 H   0  0  0  0  0  0  0  0  0  0  0  0
    8.9282   -2.9750    0.0000 H   0  0  0  0  0  0  0  0  0  0  0  0
  1 20  1  0  0  0  0
  1 26  1  0  0  0  0
  2 10  1  0  0  0  0
  2 11  1  0  0  0  0
  2 14  1  0  0  0  0
  3 12  1  0  0  0  0
  3 13  1  0  0  0  0
  3 17  1  0  0  0  0
  4 22  1  0  0  0  0
  4 27  1  0  0  0  0
  4 54  1  0  0  0  0
  5 27  2  0  0  0  0
  5 28  1  0  0  0  0
  6 27  1  0  0  0  0
  6 29  2  0  0  0  0
  7 28  2  0  0  0  0
  7 29  1  0  0  0  0
  8 28  1  0  0  0  0
  8 58  1  0  0  0  0
  8 59  1  0  0  0  0
  9 29  1  0  0  0  0
  9 60  1  0  0  0  0
  9 61  1  0  0  0  0
 10 12  1  0  0  0  0
 10 30  1  0  0  0  0
 10 31  1  0  0  0  0
 11 13  1  0  0  0  0
 11 32  1  0  0  0  0
 11 33  1  0  0  0  0
 12 34  1  0  0  0  0
 12 35  1  0  0  0  0
 13 36  1  0  0  0  0
 13 37  1  0  0  0  0
 14 15  1  0  0  0  0
 14 38  1  0  0  0  0
 14 39  1  0  0  0  0
 15 16  1  0  0  0  0
 15 40  1  0  0  0  0
 15 41  1  0  0  0  0
 16 18  1  0  0  0  0
 16 42  1  0  0  0  0
 16 43  1  0  0  0  0
 17 20  1  0  0  0  0
 17 21  2  0  0  0  0
 18 19  1  0  0  0  0
 18 44  1  0  0  0  0
 18 45  1  0  0  0  0
 19 22  1  0  0  0  0
 19 46  1  0  0  0  0
 19 47  1  0  0  0  0
 20 23  2  0  0  0  0
 21 24  1  0  0  0  0
 21 48  1  0  0  0  0
 22 49  1  0  0  0  0
 22 50  1  0  0  0  0
 23 25  1  0  0  0  0
 23 51  1  0  0  0  0
 24 25  2  0  0  0  0
 24 52  1  0  0  0  0
 25 53  1  0  0  0  0
 26 55  1  0  0  0  0
 26 56  1  0  0  0  0
 26 57  1  0  0  0  0
M  END
> <PUBCHEM_COMPOUND_CID>
168288598

> <PUBCHEM_COMPOUND_CANONICALIZED>
1

> <PUBCHEM_CACTVS_COMPLEXITY>
438

> <PUBCHEM_CACTVS_HBOND_ACCEPTOR>
9

> <PUBCHEM_CACTVS_HBOND_DONOR>
3

> <PUBCHEM_CACTVS_ROTATABLE_BOND>
10

> <PUBCHEM_CACTVS_SUBSKEYS>
AAADcfB74AAAAAAAAAAAAAAAAAAAAAAAAAA8WIAAAAAAAAABwAAAHgAQAAAACAzBkAYz1ofIFACgACRCZACCCAkhIoAJiIAPbIiObiLEuZuVMChs0BPY6AeQQAAAAAAAAAAAEAAAAAAAAAAgAAAAAAAAAA==

> <PUBCHEM_IUPAC_OPENEYE_NAME>
N2-[6-[4-(2-methoxyphenyl)piperazin-1-yl]hexyl]-1,3,5-triazine-2,4,6-triamine

> <PUBCHEM_IUPAC_CAS_NAME>
N2-[6-[4-(2-methoxyphenyl)-1-piperazinyl]hexyl]-1,3,5-triazine-2,4,6-triamine

> <PUBCHEM_IUPAC_NAME_MARKUP>
2-<I>N</I>-[6-[4-(2-methoxyphenyl)piperazin-1-yl]hexyl]-1,3,5-triazine-2,4,6-triamine

> <PUBCHEM_IUPAC_NAME>
2-N-[6-[4-(2-methoxyphenyl)piperazin-1-yl]hexyl]-1,3,5-triazine-2,4,6-triamine

> <PUBCHEM_IUPAC_SYSTEMATIC_NAME>
N2-[6-[4-(2-methoxyphenyl)piperazin-1-yl]hexyl]-1,3,5-triazine-2,4,6-triamine

> <PUBCHEM_IUPAC_TRADITIONAL_NAME>
(4,6-diamino-s-triazin-2-yl)-[6-[4-(2-methoxyphenyl)piperazino]hexyl]amine

> <PUBCHEM_IUPAC_INCHI>
InChI=1S/C20H32N8O/c1-29-17-9-5-4-8-16(17)28-14-12-27(13-15-28)11-7-3-2-6-10-23-20-25-18(21)24-19(22)26-20/h4-5,8-9H,2-3,6-7,10-15H2,1H3,(H5,21,22,23,24,25,26)

> <PUBCHEM_IUPAC_INCHIKEY>
LXKSIEBMEPDEFX-UHFFFAOYSA-N

> <PUBCHEM_XLOGP3_AA>
2.6

> <PUBCHEM_EXACT_MASS>
400.26990767

> <PUBCHEM_MOLECULAR_FORMULA>
C20H32N8O

> <PUBCHEM_MOLECULAR_WEIGHT>
400.5

> <PUBCHEM_OPENEYE_CAN_SMILES>
COC1=CC=CC=C1N2CCN(CC2)CCCCCCNC3=NC(=NC(=N3)N)N

> <PUBCHEM_OPENEYE_ISO_SMILES>
COC1=CC=CC=C1N2CCN(CC2)CCCCCCNC3=NC(=NC(=N3)N)N

> <PUBCHEM_CACTVS_TPSA>
118

> <PUBCHEM_MONOISOTOPIC_WEIGHT>
400.26990767

> <PUBCHEM_TOTAL_CHARGE>
0

> <PUBCHEM_HEAVY_ATOM_COUNT>
29

> <PUBCHEM_ATOM_DEF_STEREO_COUNT>
0

> <PUBCHEM_ATOM_UDEF_STEREO_COUNT>
0

> <PUBCHEM_BOND_DEF_STEREO_COUNT>
0

> <PUBCHEM_BOND_UDEF_STEREO_COUNT>
0

> <PUBCHEM_ISOTOPIC_ATOM_COUNT>
0

> <PUBCHEM_COMPONENT_COUNT>
1

> <PUBCHEM_CACTVS_TAUTO_COUNT>
-1

> <PUBCHEM_COORDINATE_TYPE>
1
5
255

> <PUBCHEM_BONDANNOTATIONS>
17  20  8
17  21  8
20  23  8
21  24  8
23  25  8
24  25  8
5  27  8
5  28  8
6  27  8
6  29  8
7  28  8
7  29  8

$$$$
