45260662
  -OEChem-09292322502D

 44 46  0     1  0  0  0  0  0999 V2000
    7.1721    4.8959    0.0000 Cl  0  0  0  0  0  0  0  0  0  0  0  0
    4.0957    6.2427    0.0000 O   0  0  0  0  0  0  0  0  0  0  0  0
    1.5266    5.9337    0.0000 O   0  0  0  0  0  0  0  0  0  0  0  0
    3.7867    4.1161    0.0000 N   0  0  3  0  0  0  0  0  0  0  0  0
    3.2867    5.6549    0.0000 C   0  0  3  0  0  0  0  0  0  0  0  0
    2.4777    5.0671    0.0000 C   0  0  0  0  0  0  0  0  0  0  0  0
    4.0957    5.0671    0.0000 C   0  0  0  0  0  0  0  0  0  0  0  0
    2.7867    4.1161    0.0000 C   0  0  0  0  0  0  0  0  0  0  0  0
    2.4777    6.2427    0.0000 C   0  0  0  0  0  0  0  0  0  0  0  0
    4.3745    3.3070    0.0000 C   0  0  0  0  0  0  0  0  0  0  0  0
    2.7867    7.1937    0.0000 C   0  0  0  0  0  0  0  0  0  0  0  0
    3.7867    7.1937    0.0000 C   0  0  0  0  0  0  0  0  0  0  0  0
    3.9677    2.3935    0.0000 C   0  0  0  0  0  0  0  0  0  0  0  0
    2.1989    8.0028    0.0000 C   0  0  0  0  0  0  0  0  0  0  0  0
    4.5555    1.5845    0.0000 C   0  0  0  0  0  0  0  0  0  0  0  0
    2.9732    2.2890    0.0000 C   0  0  0  0  0  0  0  0  0  0  0  0
    2.6056    8.9163    0.0000 C   0  0  0  0  0  0  0  0  0  0  0  0
    1.2044    7.8982    0.0000 C   0  0  0  0  0  0  0  0  0  0  0  0
    4.1488    0.6709    0.0000 C   0  0  0  0  0  0  0  0  0  0  0  0
    2.5665    1.3754    0.0000 C   0  0  0  0  0  0  0  0  0  0  0  0
    2.0179    9.7253    0.0000 C   0  0  0  0  0  0  0  0  0  0  0  0
    0.6166    8.7072    0.0000 C   0  0  0  0  0  0  0  0  0  0  0  0
    3.1543    0.5664    0.0000 C   0  0  0  0  0  0  0  0  0  0  0  0
    1.0233    9.6208    0.0000 C   0  0  0  0  0  0  0  0  0  0  0  0
    2.1677    5.6040    0.0000 H   0  0  0  0  0  0  0  0  0  0  0  0
    1.9113    4.8149    0.0000 H   0  0  0  0  0  0  0  0  0  0  0  0
    4.6621    4.8149    0.0000 H   0  0  0  0  0  0  0  0  0  0  0  0
    4.4057    5.6040    0.0000 H   0  0  0  0  0  0  0  0  0  0  0  0
    2.1802    3.9872    0.0000 H   0  0  0  0  0  0  0  0  0  0  0  0
    2.8515    3.4994    0.0000 H   0  0  0  0  0  0  0  0  0  0  0  0
    4.8885    2.9603    0.0000 H   0  0  0  0  0  0  0  0  0  0  0  0
    4.8052    3.7530    0.0000 H   0  0  0  0  0  0  0  0  0  0  0  0
    4.1511    7.6953    0.0000 H   0  0  0  0  0  0  0  0  0  0  0  0
    5.1721    1.6493    0.0000 H   0  0  0  0  0  0  0  0  0  0  0  0
    2.6088    2.7906    0.0000 H   0  0  0  0  0  0  0  0  0  0  0  0
    3.2222    8.9811    0.0000 H   0  0  0  0  0  0  0  0  0  0  0  0
    0.9522    7.3318    0.0000 H   0  0  0  0  0  0  0  0  0  0  0  0
    4.5132    0.1693    0.0000 H   0  0  0  0  0  0  0  0  0  0  0  0
    1.9499    1.3106    0.0000 H   0  0  0  0  0  0  0  0  0  0  0  0
    2.2700   10.2917    0.0000 H   0  0  0  0  0  0  0  0  0  0  0  0
    0.0000    8.6424    0.0000 H   0  0  0  0  0  0  0  0  0  0  0  0
    2.9021    0.0000    0.0000 H   0  0  0  0  0  0  0  0  0  0  0  0
    0.6589   10.1224    0.0000 H   0  0  0  0  0  0  0  0  0  0  0  0
    8.1721    4.8959    0.0000 H   0  0  0  0  0  0  0  0  0  0  0  0
  1 44  1  0  0  0  0
  2  5  1  0  0  0  0
  2 12  1  0  0  0  0
  3  9  2  0  0  0  0
  4  7  1  0  0  0  0
  4  8  1  0  0  0  0
  4 10  1  0  0  0  0
  5  6  1  0  0  0  0
  5  7  1  0  0  0  0
  5  9  1  0  0  0  0
  6  8  1  0  0  0  0
  6 25  1  0  0  0  0
  6 26  1  0  0  0  0
  7 27  1  0  0  0  0
  7 28  1  0  0  0  0
  8 29  1  0  0  0  0
  8 30  1  0  0  0  0
  9 11  1  0  0  0  0
 10 13  1  0  0  0  0
 10 31  1  0  0  0  0
 10 32  1  0  0  0  0
 11 12  2  0  0  0  0
 11 14  1  0  0  0  0
 12 33  1  0  0  0  0
 13 15  2  0  0  0  0
 13 16  1  0  0  0  0
 14 17  2  0  0  0  0
 14 18  1  0  0  0  0
 15 19  1  0  0  0  0
 15 34  1  0  0  0  0
 16 20  2  0  0  0  0
 16 35  1  0  0  0  0
 17 21  1  0  0  0  0
 17 36  1  0  0  0  0
 18 22  2  0  0  0  0
 18 37  1  0  0  0  0
 19 23  2  0  0  0  0
 19 38  1  0  0  0  0
 20 23  1  0  0  0  0
 20 39  1  0  0  0  0
 21 24  2  0  0  0  0
 21 40  1  0  0  0  0
 22 24  1  0  0  0  0
 22 41  1  0  0  0  0
 23 42  1  0  0  0  0
 24 43  1  0  0  0  0
M  END
> <PUBCHEM_COMPOUND_CID>
45260662

> <PUBCHEM_COMPOUND_CANONICALIZED>
1

> <PUBCHEM_CACTVS_COMPLEXITY>
474

> <PUBCHEM_CACTVS_HBOND_ACCEPTOR>
3

> <PUBCHEM_CACTVS_HBOND_DONOR>
1

> <PUBCHEM_CACTVS_ROTATABLE_BOND>
3

> <PUBCHEM_CACTVS_SUBSKEYS>
AAADceB6MAAEAAAAAAAAAAAAAAAAAWIAAAAwYAAAAAAAAAABQAAAHgAAAAAADEThmAYwAIMABACIAqBSAAKCCAAgIAAIiAFIBMgKIDqAlRWFIAhmwACYiIecyOCOAAAAAAAAAAAAAAAAAAAAAAAAAAAAAA==

> <PUBCHEM_IUPAC_OPENEYE_NAME>
7-benzyl-3-phenyl-1-oxa-7-azaspiro[4.4]non-2-en-4-one;hydrochloride

> <PUBCHEM_IUPAC_CAS_NAME>
3-phenyl-7-(phenylmethyl)-1-oxa-7-azaspiro[4.4]non-2-en-4-one;hydrochloride

> <PUBCHEM_IUPAC_NAME_MARKUP>
7-benzyl-3-phenyl-1-oxa-7-azaspiro[4.4]non-2-en-4-one;hydrochloride

> <PUBCHEM_IUPAC_NAME>
7-benzyl-3-phenyl-1-oxa-7-azaspiro[4.4]non-2-en-4-one;hydrochloride

> <PUBCHEM_IUPAC_SYSTEMATIC_NAME>
3-phenyl-7-(phenylmethyl)-1-oxa-7-azaspiro[4.4]non-2-en-4-one;hydrochloride

> <PUBCHEM_IUPAC_TRADITIONAL_NAME>
7-benzyl-3-phenyl-1-oxa-7-azaspiro[4.4]non-2-en-4-one;hydrochloride

> <PUBCHEM_IUPAC_INCHI>
InChI=1S/C20H19NO2.ClH/c22-19-18(17-9-5-2-6-10-17)14-23-20(19)11-12-21(15-20)13-16-7-3-1-4-8-16;/h1-10,14H,11-13,15H2;1H

> <PUBCHEM_IUPAC_INCHIKEY>
QCPBKROQAZSBFO-UHFFFAOYSA-N

> <PUBCHEM_EXACT_MASS>
341.1182566

> <PUBCHEM_MOLECULAR_FORMULA>
C20H20ClNO2

> <PUBCHEM_MOLECULAR_WEIGHT>
341.8

> <PUBCHEM_OPENEYE_CAN_SMILES>
C1CN(CC12C(=O)C(=CO2)C3=CC=CC=C3)CC4=CC=CC=C4.Cl

> <PUBCHEM_OPENEYE_ISO_SMILES>
C1CN(CC12C(=O)C(=CO2)C3=CC=CC=C3)CC4=CC=CC=C4.Cl

> <PUBCHEM_CACTVS_TPSA>
29.5

> <PUBCHEM_MONOISOTOPIC_WEIGHT>
341.1182566

> <PUBCHEM_TOTAL_CHARGE>
0

> <PUBCHEM_HEAVY_ATOM_COUNT>
24

> <PUBCHEM_ATOM_DEF_STEREO_COUNT>
0

> <PUBCHEM_ATOM_UDEF_STEREO_COUNT>
1

> <PUBCHEM_BOND_DEF_STEREO_COUNT>
0

> <PUBCHEM_BOND_UDEF_STEREO_COUNT>
0

> <PUBCHEM_ISOTOPIC_ATOM_COUNT>
0

> <PUBCHEM_COMPONENT_COUNT>
2

> <PUBCHEM_CACTVS_TAUTO_COUNT>
-1

> <PUBCHEM_COORDINATE_TYPE>
1
5
255

> <PUBCHEM_BONDANNOTATIONS>
13  15  8
13  16  8
14  17  8
14  18  8
15  19  8
16  20  8
17  21  8
18  22  8
19  23  8
20  23  8
21  24  8
22  24  8
5  6  3

$$$$
