162675372
  -OEChem-09292322422D

 54 57  0     0  0  0  0  0  0999 V2000
    4.1244   -0.4899    0.0000 O   0  0  0  0  0  0  0  0  0  0  0  0
    5.0550    2.0207    0.0000 N   0  0  0  0  0  0  0  0  0  0  0  0
    3.8374    3.6074    0.0000 N   0  0  0  0  0  0  0  0  0  0  0  0
    5.5071   -1.4138    0.0000 N   0  0  0  0  0  0  0  0  0  0  0  0
    5.4376    2.9446    0.0000 C   0  0  0  0  0  0  0  0  0  0  0  0
    4.0635    1.8902    0.0000 C   0  0  0  0  0  0  0  0  0  0  0  0
    4.8289    3.7380    0.0000 C   0  0  0  0  0  0  0  0  0  0  0  0
    3.4548    2.6835    0.0000 C   0  0  0  0  0  0  0  0  0  0  0  0
    5.6637    1.2274    0.0000 C   0  0  0  0  0  0  0  0  0  0  0  0
    5.2810    0.3035    0.0000 C   0  0  0  0  0  0  0  0  0  0  0  0
    5.8898   -0.4899    0.0000 C   0  0  0  0  0  0  0  0  0  0  0  0
    3.2287    4.4008    0.0000 C   0  0  0  0  0  0  0  0  0  0  0  0
    6.2142   -2.1209    0.0000 C   0  0  0  0  0  0  0  0  0  0  0  0
    4.5071   -1.4138    0.0000 C   0  0  0  0  0  0  0  0  0  0  0  0
    6.2142   -3.1209    0.0000 C   0  0  0  0  0  0  0  0  0  0  0  0
    3.8000   -2.1209    0.0000 C   0  0  0  0  0  0  0  0  0  0  0  0
    7.1082   -1.5862    0.0000 C   0  0  0  0  0  0  0  0  0  0  0  0
    3.8000   -3.1209    0.0000 C   0  0  0  0  0  0  0  0  0  0  0  0
    5.5071   -3.8280    0.0000 C   0  0  0  0  0  0  0  0  0  0  0  0
    7.1082   -3.6555    0.0000 C   0  0  0  0  0  0  0  0  0  0  0  0
    4.5071   -3.8280    0.0000 C   0  0  0  0  0  0  0  0  0  0  0  0
    2.9061   -1.5862    0.0000 C   0  0  0  0  0  0  0  0  0  0  0  0
    8.0142   -2.1000    0.0000 C   0  0  0  0  0  0  0  0  0  0  0  0
    8.0142   -3.1417    0.0000 C   0  0  0  0  0  0  0  0  0  0  0  0
    2.9061   -3.6555    0.0000 C   0  0  0  0  0  0  0  0  0  0  0  0
    2.0000   -2.1000    0.0000 C   0  0  0  0  0  0  0  0  0  0  0  0
    2.0000   -3.1417    0.0000 C   0  0  0  0  0  0  0  0  0  0  0  0
    5.9605    2.6115    0.0000 H   0  0  0  0  0  0  0  0  0  0  0  0
    5.8565    3.4017    0.0000 H   0  0  0  0  0  0  0  0  0  0  0  0
    3.5136    1.6039    0.0000 H   0  0  0  0  0  0  0  0  0  0  0  0
    4.2500    1.2989    0.0000 H   0  0  0  0  0  0  0  0  0  0  0  0
    5.3788    4.0242    0.0000 H   0  0  0  0  0  0  0  0  0  0  0  0
    4.6424    4.3292    0.0000 H   0  0  0  0  0  0  0  0  0  0  0  0
    2.9318    3.0167    0.0000 H   0  0  0  0  0  0  0  0  0  0  0  0
    3.0359    2.2264    0.0000 H   0  0  0  0  0  0  0  0  0  0  0  0
    6.1866    0.8942    0.0000 H   0  0  0  0  0  0  0  0  0  0  0  0
    6.0826    1.6845    0.0000 H   0  0  0  0  0  0  0  0  0  0  0  0
    4.7581    0.6366    0.0000 H   0  0  0  0  0  0  0  0  0  0  0  0
    4.8622   -0.1536    0.0000 H   0  0  0  0  0  0  0  0  0  0  0  0
    6.4127   -0.8230    0.0000 H   0  0  0  0  0  0  0  0  0  0  0  0
    6.3087   -0.0328    0.0000 H   0  0  0  0  0  0  0  0  0  0  0  0
    3.7206    4.7782    0.0000 H   0  0  0  0  0  0  0  0  0  0  0  0
    2.8512    4.8926    0.0000 H   0  0  0  0  0  0  0  0  0  0  0  0
    2.7368    4.0233    0.0000 H   0  0  0  0  0  0  0  0  0  0  0  0
    7.1010   -0.9662    0.0000 H   0  0  0  0  0  0  0  0  0  0  0  0
    5.7444   -4.4008    0.0000 H   0  0  0  0  0  0  0  0  0  0  0  0
    7.1010   -4.2755    0.0000 H   0  0  0  0  0  0  0  0  0  0  0  0
    4.2698   -4.4008    0.0000 H   0  0  0  0  0  0  0  0  0  0  0  0
    2.9132   -0.9662    0.0000 H   0  0  0  0  0  0  0  0  0  0  0  0
    8.5500   -1.7880    0.0000 H   0  0  0  0  0  0  0  0  0  0  0  0
    8.5500   -3.4537    0.0000 H   0  0  0  0  0  0  0  0  0  0  0  0
    2.9132   -4.2755    0.0000 H   0  0  0  0  0  0  0  0  0  0  0  0
    1.4643   -1.7880    0.0000 H   0  0  0  0  0  0  0  0  0  0  0  0
    1.4643   -3.4537    0.0000 H   0  0  0  0  0  0  0  0  0  0  0  0
  1 14  2  0  0  0  0
  2  5  1  0  0  0  0
  2  6  1  0  0  0  0
  2  9  1  0  0  0  0
  3  7  1  0  0  0  0
  3  8  1  0  0  0  0
  3 12  1  0  0  0  0
  4 11  1  0  0  0  0
  4 13  1  0  0  0  0
  4 14  1  0  0  0  0
  5  7  1  0  0  0  0
  5 28  1  0  0  0  0
  5 29  1  0  0  0  0
  6  8  1  0  0  0  0
  6 30  1  0  0  0  0
  6 31  1  0  0  0  0
  7 32  1  0  0  0  0
  7 33  1  0  0  0  0
  8 34  1  0  0  0  0
  8 35  1  0  0  0  0
  9 10  1  0  0  0  0
  9 36  1  0  0  0  0
  9 37  1  0  0  0  0
 10 11  1  0  0  0  0
 10 38  1  0  0  0  0
 10 39  1  0  0  0  0
 11 40  1  0  0  0  0
 11 41  1  0  0  0  0
 12 42  1  0  0  0  0
 12 43  1  0  0  0  0
 12 44  1  0  0  0  0
 13 15  1  0  0  0  0
 13 17  2  0  0  0  0
 14 16  1  0  0  0  0
 15 19  1  0  0  0  0
 15 20  2  0  0  0  0
 16 18  1  0  0  0  0
 16 22  2  0  0  0  0
 17 23  1  0  0  0  0
 17 45  1  0  0  0  0
 18 21  1  0  0  0  0
 18 25  2  0  0  0  0
 19 21  2  0  0  0  0
 19 46  1  0  0  0  0
 20 24  1  0  0  0  0
 20 47  1  0  0  0  0
 21 48  1  0  0  0  0
 22 26  1  0  0  0  0
 22 49  1  0  0  0  0
 23 24  2  0  0  0  0
 23 50  1  0  0  0  0
 24 51  1  0  0  0  0
 25 27  1  0  0  0  0
 25 52  1  0  0  0  0
 26 27  2  0  0  0  0
 26 53  1  0  0  0  0
 27 54  1  0  0  0  0
M  END
> <PUBCHEM_COMPOUND_CID>
162675372

> <PUBCHEM_COMPOUND_CANONICALIZED>
1

> <PUBCHEM_CACTVS_COMPLEXITY>
526

> <PUBCHEM_CACTVS_HBOND_ACCEPTOR>
3

> <PUBCHEM_CACTVS_HBOND_DONOR>
0

> <PUBCHEM_CACTVS_ROTATABLE_BOND>
4

> <PUBCHEM_CACTVS_SUBSKEYS>
AAADceB7IAAAAAAAAAAAAAAAAAAAAAAAAAA8YIAAAAAQAAABQAAAHgAAAAAADAjBmAQywIMAAACIAiVSUACCAAAlAgAIiAEIZMgIYDLA1ZGUIQhghgDIyYcYiICOgAAAAAASAAAAAAAAACQAAAAAAAAAAA==

> <PUBCHEM_IUPAC_OPENEYE_NAME>
(11Z)-5-[3-(4-methylpiperazin-1-yl)propyl]benzo[c][1]benzazocin-6-one

> <PUBCHEM_IUPAC_CAS_NAME>
(11Z)-5-[3-(4-methyl-1-piperazinyl)propyl]-6-benzo[c][1]benzazocinone

> <PUBCHEM_IUPAC_NAME_MARKUP>
(11<I>Z</I>)-5-[3-(4-methylpiperazin-1-yl)propyl]benzo[c][1]benzazocin-6-one

> <PUBCHEM_IUPAC_NAME>
(11Z)-5-[3-(4-methylpiperazin-1-yl)propyl]benzo[c][1]benzazocin-6-one

> <PUBCHEM_IUPAC_SYSTEMATIC_NAME>
(11Z)-5-[3-(4-methylpiperazin-1-yl)propyl]benzo[c][1]benzazocin-6-one

> <PUBCHEM_IUPAC_TRADITIONAL_NAME>
(11Z)-5-[3-(4-methylpiperazino)propyl]benzo[c][1]benzazocin-6-one

> <PUBCHEM_IUPAC_INCHI>
InChI=1S/C23H27N3O/c1-24-15-17-25(18-16-24)13-6-14-26-22-10-5-3-8-20(22)12-11-19-7-2-4-9-21(19)23(26)27/h2-5,7-12H,6,13-18H2,1H3/b12-11-

> <PUBCHEM_IUPAC_INCHIKEY>
GRZVXITWIIKNCX-QXMHVHEDSA-N

> <PUBCHEM_XLOGP3_AA>
3.6

> <PUBCHEM_EXACT_MASS>
361.215412493

> <PUBCHEM_MOLECULAR_FORMULA>
C23H27N3O

> <PUBCHEM_MOLECULAR_WEIGHT>
361.5

> <PUBCHEM_OPENEYE_CAN_SMILES>
CN1CCN(CC1)CCCN2C3=CC=CC=C3C=CC4=CC=CC=C4C2=O

> <PUBCHEM_OPENEYE_ISO_SMILES>
CN1CCN(CC1)CCCN2C3=CC=CC=C3/C=C\C4=CC=CC=C4C2=O

> <PUBCHEM_CACTVS_TPSA>
26.8

> <PUBCHEM_MONOISOTOPIC_WEIGHT>
361.215412493

> <PUBCHEM_TOTAL_CHARGE>
0

> <PUBCHEM_HEAVY_ATOM_COUNT>
27

> <PUBCHEM_ATOM_DEF_STEREO_COUNT>
0

> <PUBCHEM_ATOM_UDEF_STEREO_COUNT>
0

> <PUBCHEM_BOND_DEF_STEREO_COUNT>
1

> <PUBCHEM_BOND_UDEF_STEREO_COUNT>
0

> <PUBCHEM_ISOTOPIC_ATOM_COUNT>
0

> <PUBCHEM_COMPONENT_COUNT>
1

> <PUBCHEM_CACTVS_TAUTO_COUNT>
-1

> <PUBCHEM_COORDINATE_TYPE>
1
5
255

> <PUBCHEM_BONDANNOTATIONS>
13  15  8
13  17  8
15  20  8
16  18  8
16  22  8
17  23  8
18  25  8
20  24  8
22  26  8
23  24  8
25  27  8
26  27  8

$$$$
