145982756
  -OEChem-09292322002D

112117  0     1  0  0  0  0  0999 V2000
    2.0000   -5.3746    0.0000 S   0  0  0  0  0  0  0  0  0  0  0  0
   29.2841    1.4278    0.0000 O   0  0  0  0  0  0  0  0  0  0  0  0
   19.7415    3.9624    0.0000 O   0  0  0  0  0  0  0  0  0  0  0  0
    9.6382   -1.6056    0.0000 O   0  0  0  0  0  0  0  0  0  0  0  0
    7.6492   -1.3965    0.0000 O   0  0  0  0  0  0  0  0  0  0  0  0
   25.8037    4.4624    0.0000 N   0  0  3  0  0  0  0  0  0  0  0  0
   20.6075    2.4623    0.0000 N   0  0  0  0  0  0  0  0  0  0  0  0
   15.5607    2.1259    0.0000 N   0  0  0  0  0  0  0  0  0  0  0  0
   16.0607    1.2599    0.0000 N   0  0  0  0  0  0  0  0  0  0  0  0
    9.8193    0.1170    0.0000 N   0  0  0  0  0  0  0  0  0  0  0  0
   17.0389    1.4678    0.0000 N   0  0  0  0  0  0  0  0  0  0  0  0
    5.2534   -0.2739    0.0000 N   0  0  0  0  0  0  0  0  0  0  0  0
    3.6180   -5.3746    0.0000 N   0  0  0  0  0  0  0  0  0  0  0  0
   26.6697    3.9624    0.0000 C   0  0  3  0  0  0  0  0  0  0  0  0
   26.6697    2.9623    0.0000 C   0  0  0  0  0  0  0  0  0  0  0  0
   27.5357    4.4624    0.0000 C   0  0  0  0  0  0  0  0  0  0  0  0
   27.5357    2.4623    0.0000 C   0  0  0  0  0  0  0  0  0  0  0  0
   28.4017    3.9624    0.0000 C   0  0  0  0  0  0  0  0  0  0  0  0
   28.4017    2.9623    0.0000 C   0  0  0  0  0  0  0  0  0  0  0  0
   24.9376    3.9624    0.0000 C   0  0  0  0  0  0  0  0  0  0  0  0
   25.8037    5.4624    0.0000 C   0  0  0  0  0  0  0  0  0  0  0  0
   24.0716    4.4624    0.0000 C   0  0  0  0  0  0  0  0  0  0  0  0
   29.2957    4.4970    0.0000 C   0  0  0  0  0  0  0  0  0  0  0  0
   29.2957    2.4277    0.0000 C   0  0  0  0  0  0  0  0  0  0  0  0
   24.9376    5.9624    0.0000 C   0  0  0  0  0  0  0  0  0  0  0  0
   30.2018    3.9832    0.0000 C   0  0  0  0  0  0  0  0  0  0  0  0
   30.2018    2.9415    0.0000 C   0  0  0  0  0  0  0  0  0  0  0  0
   23.2056    3.9624    0.0000 C   0  0  0  0  0  0  0  0  0  0  0  0
   24.9376    6.9624    0.0000 C   0  0  0  0  0  0  0  0  0  0  0  0
   23.2056    2.9623    0.0000 C   0  0  0  0  0  0  0  0  0  0  0  0
   22.3396    4.4624    0.0000 C   0  0  0  0  0  0  0  0  0  0  0  0
   22.3396    2.4623    0.0000 C   0  0  0  0  0  0  0  0  0  0  0  0
   21.4735    3.9624    0.0000 C   0  0  0  0  0  0  0  0  0  0  0  0
   21.4735    2.9623    0.0000 C   0  0  0  0  0  0  0  0  0  0  0  0
   12.9839    1.5260    0.0000 C   0  0  0  0  0  0  0  0  0  0  0  0
   13.9784    1.4215    0.0000 C   0  0  0  0  0  0  0  0  0  0  0  0
   12.3961    0.7170    0.0000 C   0  0  0  0  0  0  0  0  0  0  0  0
   19.7415    2.9623    0.0000 C   0  0  0  0  0  0  0  0  0  0  0  0
   14.5662    2.2305    0.0000 C   0  0  0  0  0  0  0  0  0  0  0  0
   11.4016    0.8215    0.0000 C   0  0  0  0  0  0  0  0  0  0  0  0
   18.8755    2.4623    0.0000 C   0  0  0  0  0  0  0  0  0  0  0  0
   18.0094    2.9623    0.0000 C   0  0  0  0  0  0  0  0  0  0  0  0
   10.8138    0.0125    0.0000 C   0  0  0  0  0  0  0  0  0  0  0  0
   17.1434    2.4623    0.0000 C   0  0  0  0  0  0  0  0  0  0  0  0
   16.2299    2.8691    0.0000 C   0  0  0  0  0  0  0  0  0  0  0  0
    9.2315   -0.6920    0.0000 C   0  0  0  0  0  0  0  0  0  0  0  0
    8.2370   -0.5875    0.0000 C   0  0  0  0  0  0  0  0  0  0  0  0
    6.6547   -1.2920    0.0000 C   0  0  0  0  0  0  0  0  0  0  0  0
    6.0669   -2.1010    0.0000 C   0  0  0  0  0  0  0  0  0  0  0  0
    6.2479   -0.3784    0.0000 C   0  0  0  0  0  0  0  0  0  0  0  0
    5.0724   -1.9965    0.0000 C   0  0  0  0  0  0  0  0  0  0  0  0
    4.6656   -1.0829    0.0000 C   0  0  0  0  0  0  0  0  0  0  0  0
    4.4846   -2.8055    0.0000 C   0  0  0  0  0  0  0  0  0  0  0  0
    3.8968   -3.6145    0.0000 C   0  0  0  0  0  0  0  0  0  0  0  0
    3.3090   -4.4235    0.0000 C   0  0  0  0  0  0  0  0  0  0  0  0
    2.3090   -4.4235    0.0000 C   0  0  0  0  0  0  0  0  0  0  0  0
    2.8090   -5.9624    0.0000 C   0  0  0  0  0  0  0  0  0  0  0  0
    2.8090   -6.9624    0.0000 C   0  0  0  0  0  0  0  0  0  0  0  0
   26.6697    4.5824    0.0000 H   0  0  0  0  0  0  0  0  0  0  0  0
   26.0591    3.0700    0.0000 H   0  0  0  0  0  0  0  0  0  0  0  0
   26.4576    2.3797    0.0000 H   0  0  0  0  0  0  0  0  0  0  0  0
   27.9342    4.9373    0.0000 H   0  0  0  0  0  0  0  0  0  0  0  0
   27.1372    4.9373    0.0000 H   0  0  0  0  0  0  0  0  0  0  0  0
   27.1372    1.9874    0.0000 H   0  0  0  0  0  0  0  0  0  0  0  0
   27.9342    1.9874    0.0000 H   0  0  0  0  0  0  0  0  0  0  0  0
   24.5391    3.4874    0.0000 H   0  0  0  0  0  0  0  0  0  0  0  0
   25.3362    3.4874    0.0000 H   0  0  0  0  0  0  0  0  0  0  0  0
   26.4142    5.3547    0.0000 H   0  0  0  0  0  0  0  0  0  0  0  0
   26.0157    6.0450    0.0000 H   0  0  0  0  0  0  0  0  0  0  0  0
   24.4701    4.9373    0.0000 H   0  0  0  0  0  0  0  0  0  0  0  0
   23.6731    4.9373    0.0000 H   0  0  0  0  0  0  0  0  0  0  0  0
   29.2885    5.1170    0.0000 H   0  0  0  0  0  0  0  0  0  0  0  0
   24.3271    6.0700    0.0000 H   0  0  0  0  0  0  0  0  0  0  0  0
   24.7256    5.3797    0.0000 H   0  0  0  0  0  0  0  0  0  0  0  0
   30.7375    4.2952    0.0000 H   0  0  0  0  0  0  0  0  0  0  0  0
   30.7375    2.6295    0.0000 H   0  0  0  0  0  0  0  0  0  0  0  0
   25.5576    6.9624    0.0000 H   0  0  0  0  0  0  0  0  0  0  0  0
   24.9376    7.5824    0.0000 H   0  0  0  0  0  0  0  0  0  0  0  0
   24.3176    6.9624    0.0000 H   0  0  0  0  0  0  0  0  0  0  0  0
   29.8174    1.1116    0.0000 H   0  0  0  0  0  0  0  0  0  0  0  0
   23.7425    2.6524    0.0000 H   0  0  0  0  0  0  0  0  0  0  0  0
   22.3396    5.0824    0.0000 H   0  0  0  0  0  0  0  0  0  0  0  0
   22.3396    1.8424    0.0000 H   0  0  0  0  0  0  0  0  0  0  0  0
   20.9366    4.2724    0.0000 H   0  0  0  0  0  0  0  0  0  0  0  0
   20.6075    1.8424    0.0000 H   0  0  0  0  0  0  0  0  0  0  0  0
   13.1548    2.1220    0.0000 H   0  0  0  0  0  0  0  0  0  0  0  0
   12.4267    1.7978    0.0000 H   0  0  0  0  0  0  0  0  0  0  0  0
   13.8075    0.8255    0.0000 H   0  0  0  0  0  0  0  0  0  0  0  0
   14.5357    1.1497    0.0000 H   0  0  0  0  0  0  0  0  0  0  0  0
   12.2252    0.1210    0.0000 H   0  0  0  0  0  0  0  0  0  0  0  0
   12.9534    0.4452    0.0000 H   0  0  0  0  0  0  0  0  0  0  0  0
   14.7371    2.8264    0.0000 H   0  0  0  0  0  0  0  0  0  0  0  0
   14.0090    2.5023    0.0000 H   0  0  0  0  0  0  0  0  0  0  0  0
   11.5725    1.4175    0.0000 H   0  0  0  0  0  0  0  0  0  0  0  0
   10.8443    1.0933    0.0000 H   0  0  0  0  0  0  0  0  0  0  0  0
   18.4769    1.9874    0.0000 H   0  0  0  0  0  0  0  0  0  0  0  0
   19.2740    1.9874    0.0000 H   0  0  0  0  0  0  0  0  0  0  0  0
   18.4080    3.4373    0.0000 H   0  0  0  0  0  0  0  0  0  0  0  0
   17.6109    3.4373    0.0000 H   0  0  0  0  0  0  0  0  0  0  0  0
   10.6429   -0.5835    0.0000 H   0  0  0  0  0  0  0  0  0  0  0  0
   11.3711   -0.2593    0.0000 H   0  0  0  0  0  0  0  0  0  0  0  0
   16.1010    3.4755    0.0000 H   0  0  0  0  0  0  0  0  0  0  0  0
    9.5671    0.6834    0.0000 H   0  0  0  0  0  0  0  0  0  0  0  0
    8.4079    0.0085    0.0000 H   0  0  0  0  0  0  0  0  0  0  0  0
    7.6797   -0.3157    0.0000 H   0  0  0  0  0  0  0  0  0  0  0  0
    6.3191   -2.6674    0.0000 H   0  0  0  0  0  0  0  0  0  0  0  0
    6.6124    0.1232    0.0000 H   0  0  0  0  0  0  0  0  0  0  0  0
    4.0490   -1.0181    0.0000 H   0  0  0  0  0  0  0  0  0  0  0  0
    1.9446   -3.9219    0.0000 H   0  0  0  0  0  0  0  0  0  0  0  0
    2.1890   -6.9624    0.0000 H   0  0  0  0  0  0  0  0  0  0  0  0
    2.8090   -7.5824    0.0000 H   0  0  0  0  0  0  0  0  0  0  0  0
    3.4290   -6.9624    0.0000 H   0  0  0  0  0  0  0  0  0  0  0  0
  1 56  1  0  0  0  0
  1 57  1  0  0  0  0
  2 24  1  0  0  0  0
  2 80  1  0  0  0  0
  3 38  2  0  0  0  0
  4 46  2  0  0  0  0
  5 47  1  0  0  0  0
  5 48  1  0  0  0  0
  6 14  1  0  0  0  0
  6 20  1  0  0  0  0
  6 21  1  0  0  0  0
  7 34  1  0  0  0  0
  7 38  1  0  0  0  0
  7 85  1  0  0  0  0
  8  9  1  0  0  0  0
  8 39  1  0  0  0  0
  8 45  1  0  0  0  0
  9 11  2  0  0  0  0
 10 43  1  0  0  0  0
 10 46  1  0  0  0  0
 10103  1  0  0  0  0
 11 44  1  0  0  0  0
 12 50  1  0  0  0  0
 12 52  2  0  0  0  0
 13 55  1  0  0  0  0
 13 57  2  0  0  0  0
 14 15  1  0  0  0  0
 14 16  1  0  0  0  0
 14 59  1  0  0  0  0
 15 17  1  0  0  0  0
 15 60  1  0  0  0  0
 15 61  1  0  0  0  0
 16 18  1  0  0  0  0
 16 62  1  0  0  0  0
 16 63  1  0  0  0  0
 17 19  1  0  0  0  0
 17 64  1  0  0  0  0
 17 65  1  0  0  0  0
 18 19  2  0  0  0  0
 18 23  1  0  0  0  0
 19 24  1  0  0  0  0
 20 22  1  0  0  0  0
 20 66  1  0  0  0  0
 20 67  1  0  0  0  0
 21 25  1  0  0  0  0
 21 68  1  0  0  0  0
 21 69  1  0  0  0  0
 22 28  1  0  0  0  0
 22 70  1  0  0  0  0
 22 71  1  0  0  0  0
 23 26  2  0  0  0  0
 23 72  1  0  0  0  0
 24 27  2  0  0  0  0
 25 29  1  0  0  0  0
 25 73  1  0  0  0  0
 25 74  1  0  0  0  0
 26 27  1  0  0  0  0
 26 75  1  0  0  0  0
 27 76  1  0  0  0  0
 28 30  2  0  0  0  0
 28 31  1  0  0  0  0
 29 77  1  0  0  0  0
 29 78  1  0  0  0  0
 29 79  1  0  0  0  0
 30 32  1  0  0  0  0
 30 81  1  0  0  0  0
 31 33  2  0  0  0  0
 31 82  1  0  0  0  0
 32 34  2  0  0  0  0
 32 83  1  0  0  0  0
 33 34  1  0  0  0  0
 33 84  1  0  0  0  0
 35 36  1  0  0  0  0
 35 37  1  0  0  0  0
 35 86  1  0  0  0  0
 35 87  1  0  0  0  0
 36 39  1  0  0  0  0
 36 88  1  0  0  0  0
 36 89  1  0  0  0  0
 37 40  1  0  0  0  0
 37 90  1  0  0  0  0
 37 91  1  0  0  0  0
 38 41  1  0  0  0  0
 39 92  1  0  0  0  0
 39 93  1  0  0  0  0
 40 43  1  0  0  0  0
 40 94  1  0  0  0  0
 40 95  1  0  0  0  0
 41 42  1  0  0  0  0
 41 96  1  0  0  0  0
 41 97  1  0  0  0  0
 42 44  1  0  0  0  0
 42 98  1  0  0  0  0
 42 99  1  0  0  0  0
 43100  1  0  0  0  0
 43101  1  0  0  0  0
 44 45  2  0  0  0  0
 45102  1  0  0  0  0
 46 47  1  0  0  0  0
 47104  1  0  0  0  0
 47105  1  0  0  0  0
 48 49  1  0  0  0  0
 48 50  2  0  0  0  0
 49 51  2  0  0  0  0
 49106  1  0  0  0  0
 50107  1  0  0  0  0
 51 52  1  0  0  0  0
 51 53  1  0  0  0  0
 52108  1  0  0  0  0
 53 54  3  0  0  0  0
 54 55  1  0  0  0  0
 55 56  2  0  0  0  0
 56109  1  0  0  0  0
 57 58  1  0  0  0  0
 58110  1  0  0  0  0
 58111  1  0  0  0  0
 58112  1  0  0  0  0
M  END
> <PUBCHEM_COMPOUND_CID>
145982756

> <PUBCHEM_COMPOUND_CANONICALIZED>
1

> <PUBCHEM_CACTVS_COMPLEXITY>
1310

> <PUBCHEM_CACTVS_HBOND_ACCEPTOR>
10

> <PUBCHEM_CACTVS_HBOND_DONOR>
3

> <PUBCHEM_CACTVS_ROTATABLE_BOND>
22

> <PUBCHEM_CACTVS_SUBSKEYS>
AAADcfB/+ABAAAAAAAAAAAAAAAAAAWLAAAA8YMEAAAAAAADB/AAAHgQYCAAADCzl3ga+x5PIFgjuEzV3VA6C/KRx+jgY2LV/fJgOZvLmsZ+XeCjk1hH4+Ae80bMOiAABAAAYAAAQAAKAADAAAAAAAAAAAA==

> <PUBCHEM_IUPAC_OPENEYE_NAME>
N-[4-[2-[(5-hydroxytetralin-2-yl)-propyl-amino]ethyl]phenyl]-3-[1-[6-[[2-[[5-[2-(2-methylthiazol-4-yl)ethynyl]-3-pyridyl]oxy]acetyl]amino]hexyl]triazol-4-yl]propanamide

> <PUBCHEM_IUPAC_CAS_NAME>
N-[4-[2-[(5-hydroxy-1,2,3,4-tetrahydronaphthalen-2-yl)-propylamino]ethyl]phenyl]-3-[1-[6-[[2-[[5-[2-(2-methyl-4-thiazolyl)ethynyl]-3-pyridinyl]oxy]-1-oxoethyl]amino]hexyl]-4-triazolyl]propanamide

> <PUBCHEM_IUPAC_NAME_MARKUP>
<I>N</I>-[4-[2-[(5-hydroxy-1,2,3,4-tetrahydronaphthalen-2-yl)-propylamino]ethyl]phenyl]-3-[1-[6-[[2-[5-[2-(2-methyl-1,3-thiazol-4-yl)ethynyl]pyridin-3-yl]oxyacetyl]amino]hexyl]triazol-4-yl]propanamide

> <PUBCHEM_IUPAC_NAME>
N-[4-[2-[(5-hydroxy-1,2,3,4-tetrahydronaphthalen-2-yl)-propylamino]ethyl]phenyl]-3-[1-[6-[[2-[5-[2-(2-methyl-1,3-thiazol-4-yl)ethynyl]pyridin-3-yl]oxyacetyl]amino]hexyl]triazol-4-yl]propanamide

> <PUBCHEM_IUPAC_SYSTEMATIC_NAME>
3-[1-[6-[2-[5-[2-(2-methyl-1,3-thiazol-4-yl)ethynyl]pyridin-3-yl]oxyethanoylamino]hexyl]-1,2,3-triazol-4-yl]-N-[4-[2-[(5-oxidanyl-1,2,3,4-tetrahydronaphthalen-2-yl)-propyl-amino]ethyl]phenyl]propanamide

> <PUBCHEM_IUPAC_TRADITIONAL_NAME>
N-[4-[2-[(5-hydroxytetralin-2-yl)-propyl-amino]ethyl]phenyl]-3-[1-[6-[[2-[[5-[2-(2-methylthiazol-4-yl)ethynyl]-3-pyridyl]oxy]acetyl]amino]hexyl]triazol-4-yl]propionamide

> <PUBCHEM_IUPAC_INCHI>
InChI=1S/C45H54N8O4S/c1-3-23-52(40-18-19-42-36(27-40)9-8-10-43(42)54)25-21-34-11-14-37(15-12-34)49-44(55)20-17-38-30-53(51-50-38)24-7-5-4-6-22-47-45(56)31-57-41-26-35(28-46-29-41)13-16-39-32-58-33(2)48-39/h8-12,14-15,26,28-30,32,40,54H,3-7,17-25,27,31H2,1-2H3,(H,47,56)(H,49,55)

> <PUBCHEM_IUPAC_INCHIKEY>
FFSGPPYSYVXBKP-UHFFFAOYSA-N

> <PUBCHEM_XLOGP3_AA>
6.8

> <PUBCHEM_EXACT_MASS>
802.39887341

> <PUBCHEM_MOLECULAR_FORMULA>
C45H54N8O4S

> <PUBCHEM_MOLECULAR_WEIGHT>
803.0

> <PUBCHEM_OPENEYE_CAN_SMILES>
CCCN(CCC1=CC=C(C=C1)NC(=O)CCC2=CN(N=N2)CCCCCCNC(=O)COC3=CN=CC(=C3)C#CC4=CSC(=N4)C)C5CCC6=C(C5)C=CC=C6O

> <PUBCHEM_OPENEYE_ISO_SMILES>
CCCN(CCC1=CC=C(C=C1)NC(=O)CCC2=CN(N=N2)CCCCCCNC(=O)COC3=CN=CC(=C3)C#CC4=CSC(=N4)C)C5CCC6=C(C5)C=CC=C6O

> <PUBCHEM_CACTVS_TPSA>
176

> <PUBCHEM_MONOISOTOPIC_WEIGHT>
802.39887341

> <PUBCHEM_TOTAL_CHARGE>
0

> <PUBCHEM_HEAVY_ATOM_COUNT>
58

> <PUBCHEM_ATOM_DEF_STEREO_COUNT>
0

> <PUBCHEM_ATOM_UDEF_STEREO_COUNT>
1

> <PUBCHEM_BOND_DEF_STEREO_COUNT>
0

> <PUBCHEM_BOND_UDEF_STEREO_COUNT>
0

> <PUBCHEM_ISOTOPIC_ATOM_COUNT>
0

> <PUBCHEM_COMPONENT_COUNT>
1

> <PUBCHEM_CACTVS_TAUTO_COUNT>
-1

> <PUBCHEM_COORDINATE_TYPE>
1
5
255

> <PUBCHEM_BONDANNOTATIONS>
1  56  8
1  57  8
11  44  8
12  50  8
12  52  8
13  55  8
13  57  8
18  19  8
18  23  8
19  24  8
23  26  8
24  27  8
26  27  8
28  30  8
28  31  8
30  32  8
31  33  8
32  34  8
33  34  8
44  45  8
48  49  8
48  50  8
49  51  8
51  52  8
55  56  8
14  6  3
8  45  8
8  9  8
9  11  8

$$$$
