10476586
  -OEChem-09292322192D

 45 48  0     0  0  0  0  0  0999 V2000
    8.9030    1.8870    0.0000 Cl  0  0  0  0  0  0  0  0  0  0  0  0
    6.2619   -0.6931    0.0000 S   0  0  0  0  0  0  0  0  0  0  0  0
   11.2619   -2.4251    0.0000 O   0  0  0  0  0  0  0  0  0  0  0  0
   11.2619   -0.6931    0.0000 O   0  0  0  0  0  0  0  0  0  0  0  0
    4.6783    0.1117    0.0000 N   0  0  0  0  0  0  0  0  0  0  0  0
    4.6783   -1.4978    0.0000 N   0  0  0  0  0  0  0  0  0  0  0  0
    3.7320   -0.1931    0.0000 C   0  0  0  0  0  0  0  0  0  0  0  0
    4.9889    1.0622    0.0000 C   0  0  0  0  0  0  0  0  0  0  0  0
    5.2619   -0.6931    0.0000 C   0  0  0  0  0  0  0  0  0  0  0  0
    3.7320   -1.1931    0.0000 C   0  0  0  0  0  0  0  0  0  0  0  0
    5.9674    1.2684    0.0000 C   0  0  0  0  0  0  0  0  0  0  0  0
    2.8660    0.3069    0.0000 C   0  0  0  0  0  0  0  0  0  0  0  0
    2.8660   -1.6931    0.0000 C   0  0  0  0  0  0  0  0  0  0  0  0
    6.7619   -1.5591    0.0000 C   0  0  0  0  0  0  0  0  0  0  0  0
    2.0000   -0.1931    0.0000 C   0  0  0  0  0  0  0  0  0  0  0  0
    6.2781    2.2189    0.0000 C   0  0  0  0  0  0  0  0  0  0  0  0
    6.6353    0.5241    0.0000 C   0  0  0  0  0  0  0  0  0  0  0  0
    2.0000   -1.1931    0.0000 C   0  0  0  0  0  0  0  0  0  0  0  0
    7.7619   -1.5591    0.0000 C   0  0  0  0  0  0  0  0  0  0  0  0
    7.2566    2.4251    0.0000 C   0  0  0  0  0  0  0  0  0  0  0  0
    7.6138    0.7303    0.0000 C   0  0  0  0  0  0  0  0  0  0  0  0
    8.2619   -0.6931    0.0000 C   0  0  0  0  0  0  0  0  0  0  0  0
    8.2619   -2.4251    0.0000 C   0  0  0  0  0  0  0  0  0  0  0  0
    7.9244    1.6808    0.0000 C   0  0  0  0  0  0  0  0  0  0  0  0
    9.2619   -0.6931    0.0000 C   0  0  0  0  0  0  0  0  0  0  0  0
    9.2619   -2.4251    0.0000 C   0  0  0  0  0  0  0  0  0  0  0  0
    9.7619   -1.5591    0.0000 C   0  0  0  0  0  0  0  0  0  0  0  0
   10.7619   -1.5591    0.0000 C   0  0  0  0  0  0  0  0  0  0  0  0
    4.9684    1.6818    0.0000 H   0  0  0  0  0  0  0  0  0  0  0  0
    4.3751    1.1495    0.0000 H   0  0  0  0  0  0  0  0  0  0  0  0
    2.8660    0.9269    0.0000 H   0  0  0  0  0  0  0  0  0  0  0  0
    2.8660   -2.3131    0.0000 H   0  0  0  0  0  0  0  0  0  0  0  0
    6.1793   -1.7712    0.0000 H   0  0  0  0  0  0  0  0  0  0  0  0
    6.8695   -2.1697    0.0000 H   0  0  0  0  0  0  0  0  0  0  0  0
    1.4631    0.1169    0.0000 H   0  0  0  0  0  0  0  0  0  0  0  0
    5.8640    2.6804    0.0000 H   0  0  0  0  0  0  0  0  0  0  0  0
    6.4427   -0.0652    0.0000 H   0  0  0  0  0  0  0  0  0  0  0  0
    1.4631   -1.5031    0.0000 H   0  0  0  0  0  0  0  0  0  0  0  0
    7.4492    3.0144    0.0000 H   0  0  0  0  0  0  0  0  0  0  0  0
    8.0279    0.2688    0.0000 H   0  0  0  0  0  0  0  0  0  0  0  0
    7.9519   -0.1561    0.0000 H   0  0  0  0  0  0  0  0  0  0  0  0
    7.9519   -2.9621    0.0000 H   0  0  0  0  0  0  0  0  0  0  0  0
    9.5719   -0.1561    0.0000 H   0  0  0  0  0  0  0  0  0  0  0  0
    9.5719   -2.9621    0.0000 H   0  0  0  0  0  0  0  0  0  0  0  0
   11.8819   -2.4251    0.0000 H   0  0  0  0  0  0  0  0  0  0  0  0
  1 24  1  0  0  0  0
  2  9  1  0  0  0  0
  2 14  1  0  0  0  0
  3 28  1  0  0  0  0
  3 45  1  0  0  0  0
  4 28  2  0  0  0  0
  5  7  1  0  0  0  0
  5  8  1  0  0  0  0
  5  9  1  0  0  0  0
  6  9  2  0  0  0  0
  6 10  1  0  0  0  0
  7 10  1  0  0  0  0
  7 12  2  0  0  0  0
  8 11  1  0  0  0  0
  8 29  1  0  0  0  0
  8 30  1  0  0  0  0
 10 13  2  0  0  0  0
 11 16  2  0  0  0  0
 11 17  1  0  0  0  0
 12 15  1  0  0  0  0
 12 31  1  0  0  0  0
 13 18  1  0  0  0  0
 13 32  1  0  0  0  0
 14 19  1  0  0  0  0
 14 33  1  0  0  0  0
 14 34  1  0  0  0  0
 15 18  2  0  0  0  0
 15 35  1  0  0  0  0
 16 20  1  0  0  0  0
 16 36  1  0  0  0  0
 17 21  2  0  0  0  0
 17 37  1  0  0  0  0
 18 38  1  0  0  0  0
 19 22  2  0  0  0  0
 19 23  1  0  0  0  0
 20 24  2  0  0  0  0
 20 39  1  0  0  0  0
 21 24  1  0  0  0  0
 21 40  1  0  0  0  0
 22 25  1  0  0  0  0
 22 41  1  0  0  0  0
 23 26  2  0  0  0  0
 23 42  1  0  0  0  0
 25 27  2  0  0  0  0
 25 43  1  0  0  0  0
 26 27  1  0  0  0  0
 26 44  1  0  0  0  0
 27 28  1  0  0  0  0
M  END
> <PUBCHEM_COMPOUND_CID>
10476586

> <PUBCHEM_COMPOUND_CANONICALIZED>
1

> <PUBCHEM_CACTVS_COMPLEXITY>
521

> <PUBCHEM_CACTVS_HBOND_ACCEPTOR>
4

> <PUBCHEM_CACTVS_HBOND_DONOR>
1

> <PUBCHEM_CACTVS_ROTATABLE_BOND>
6

> <PUBCHEM_CACTVS_SUBSKEYS>
AAADceB7MABEAAAAAAAAAAAAAAAAAWAAAAAwYMAAAAAAAFgB9AAAHgYACAAADArF3iSx2LcMEgioAyTybACC0C1lF7AJ2CE4ftiIbrLhn5GUcQhswAPI2aeYyDCORAAAAAAAACCIAAAAAAAAQAAAAAAAAA==

> <PUBCHEM_IUPAC_OPENEYE_NAME>
4-[[1-[(4-chlorophenyl)methyl]benzimidazol-2-yl]sulfanylmethyl]benzoic acid

> <PUBCHEM_IUPAC_CAS_NAME>
4-[[[1-[(4-chlorophenyl)methyl]-2-benzimidazolyl]thio]methyl]benzoic acid

> <PUBCHEM_IUPAC_NAME_MARKUP>
4-[[1-[(4-chlorophenyl)methyl]benzimidazol-2-yl]sulfanylmethyl]benzoic acid

> <PUBCHEM_IUPAC_NAME>
4-[[1-[(4-chlorophenyl)methyl]benzimidazol-2-yl]sulfanylmethyl]benzoic acid

> <PUBCHEM_IUPAC_SYSTEMATIC_NAME>
4-[[1-[(4-chlorophenyl)methyl]benzimidazol-2-yl]sulfanylmethyl]benzoic acid

> <PUBCHEM_IUPAC_TRADITIONAL_NAME>
4-[[[1-(4-chlorobenzyl)benzimidazol-2-yl]thio]methyl]benzoic acid

> <PUBCHEM_IUPAC_INCHI>
InChI=1S/C22H17ClN2O2S/c23-18-11-7-15(8-12-18)13-25-20-4-2-1-3-19(20)24-22(25)28-14-16-5-9-17(10-6-16)21(26)27/h1-12H,13-14H2,(H,26,27)

> <PUBCHEM_IUPAC_INCHIKEY>
DPIMGXPIHCVDKS-UHFFFAOYSA-N

> <PUBCHEM_XLOGP3_AA>
5.5

> <PUBCHEM_EXACT_MASS>
408.0699267

> <PUBCHEM_MOLECULAR_FORMULA>
C22H17ClN2O2S

> <PUBCHEM_MOLECULAR_WEIGHT>
408.9

> <PUBCHEM_OPENEYE_CAN_SMILES>
C1=CC=C2C(=C1)N=C(N2CC3=CC=C(C=C3)Cl)SCC4=CC=C(C=C4)C(=O)O

> <PUBCHEM_OPENEYE_ISO_SMILES>
C1=CC=C2C(=C1)N=C(N2CC3=CC=C(C=C3)Cl)SCC4=CC=C(C=C4)C(=O)O

> <PUBCHEM_CACTVS_TPSA>
80.4

> <PUBCHEM_MONOISOTOPIC_WEIGHT>
408.0699267

> <PUBCHEM_TOTAL_CHARGE>
0

> <PUBCHEM_HEAVY_ATOM_COUNT>
28

> <PUBCHEM_ATOM_DEF_STEREO_COUNT>
0

> <PUBCHEM_ATOM_UDEF_STEREO_COUNT>
0

> <PUBCHEM_BOND_DEF_STEREO_COUNT>
0

> <PUBCHEM_BOND_UDEF_STEREO_COUNT>
0

> <PUBCHEM_ISOTOPIC_ATOM_COUNT>
0

> <PUBCHEM_COMPONENT_COUNT>
1

> <PUBCHEM_CACTVS_TAUTO_COUNT>
-1

> <PUBCHEM_COORDINATE_TYPE>
1
5
255

> <PUBCHEM_BONDANNOTATIONS>
10  13  8
11  16  8
11  17  8
12  15  8
13  18  8
15  18  8
16  20  8
17  21  8
19  22  8
19  23  8
20  24  8
21  24  8
22  25  8
23  26  8
25  27  8
26  27  8
5  7  8
5  9  8
6  10  8
6  9  8
7  10  8
7  12  8

$$$$
