10862670
  -OEChem-09292322362D

 61 64  0     0  0  0  0  0  0999 V2000
   13.3263   -2.0173    0.0000 O   0  0  0  0  0  0  0  0  0  0  0  0
    6.3981   -0.0173    0.0000 O   0  0  0  0  0  0  0  0  0  0  0  0
   11.5942    0.9827    0.0000 N   0  0  0  0  0  0  0  0  0  0  0  0
   13.3263   -0.0173    0.0000 N   0  0  0  0  0  0  0  0  0  0  0  0
    7.2641    1.4827    0.0000 N   0  0  0  0  0  0  0  0  0  0  0  0
    4.6660    0.9827    0.0000 N   0  0  0  0  0  0  0  0  0  0  0  0
   11.5942   -0.0173    0.0000 C   0  0  0  0  0  0  0  0  0  0  0  0
   12.4603    1.4827    0.0000 C   0  0  0  0  0  0  0  0  0  0  0  0
   12.4603   -0.5173    0.0000 C   0  0  0  0  0  0  0  0  0  0  0  0
   13.3263    0.9827    0.0000 C   0  0  0  0  0  0  0  0  0  0  0  0
   10.7282    1.4827    0.0000 C   0  0  0  0  0  0  0  0  0  0  0  0
    9.8622    0.9827    0.0000 C   0  0  0  0  0  0  0  0  0  0  0  0
   14.1923   -0.5173    0.0000 C   0  0  0  0  0  0  0  0  0  0  0  0
    8.9962    1.4827    0.0000 C   0  0  0  0  0  0  0  0  0  0  0  0
    8.1301    0.9827    0.0000 C   0  0  0  0  0  0  0  0  0  0  0  0
   14.1923   -1.5173    0.0000 C   0  0  0  0  0  0  0  0  0  0  0  0
   15.0583   -0.0173    0.0000 C   0  0  0  0  0  0  0  0  0  0  0  0
   15.0583   -2.0173    0.0000 C   0  0  0  0  0  0  0  0  0  0  0  0
   15.9244   -0.5173    0.0000 C   0  0  0  0  0  0  0  0  0  0  0  0
   15.9244   -1.5173    0.0000 C   0  0  0  0  0  0  0  0  0  0  0  0
    6.3981    0.9827    0.0000 C   0  0  0  0  0  0  0  0  0  0  0  0
   13.3263   -3.0173    0.0000 C   0  0  0  0  0  0  0  0  0  0  0  0
    5.5321    1.4827    0.0000 C   0  0  0  0  0  0  0  0  0  0  0  0
    5.5321    2.4827    0.0000 C   0  0  0  0  0  0  0  0  0  0  0  0
    3.8000    1.4827    0.0000 C   0  0  0  0  0  0  0  0  0  0  0  0
    3.8000    2.4827    0.0000 C   0  0  0  0  0  0  0  0  0  0  0  0
    4.6660    2.9827    0.0000 C   0  0  0  0  0  0  0  0  0  0  0  0
    2.9061    0.9480    0.0000 C   0  0  0  0  0  0  0  0  0  0  0  0
    2.9061    3.0173    0.0000 C   0  0  0  0  0  0  0  0  0  0  0  0
    2.0000    1.4619    0.0000 C   0  0  0  0  0  0  0  0  0  0  0  0
    2.0000    2.5035    0.0000 C   0  0  0  0  0  0  0  0  0  0  0  0
   10.9837    0.0903    0.0000 H   0  0  0  0  0  0  0  0  0  0  0  0
   11.3822   -0.5999    0.0000 H   0  0  0  0  0  0  0  0  0  0  0  0
   12.8588    1.9576    0.0000 H   0  0  0  0  0  0  0  0  0  0  0  0
   12.0617    1.9576    0.0000 H   0  0  0  0  0  0  0  0  0  0  0  0
   12.0617   -0.9923    0.0000 H   0  0  0  0  0  0  0  0  0  0  0  0
   12.8588   -0.9923    0.0000 H   0  0  0  0  0  0  0  0  0  0  0  0
   13.9369    0.8750    0.0000 H   0  0  0  0  0  0  0  0  0  0  0  0
   13.5383    1.5653    0.0000 H   0  0  0  0  0  0  0  0  0  0  0  0
   11.1267    1.9576    0.0000 H   0  0  0  0  0  0  0  0  0  0  0  0
   10.3297    1.9576    0.0000 H   0  0  0  0  0  0  0  0  0  0  0  0
    9.4637    0.5077    0.0000 H   0  0  0  0  0  0  0  0  0  0  0  0
   10.2607    0.5077    0.0000 H   0  0  0  0  0  0  0  0  0  0  0  0
    9.3947    1.9576    0.0000 H   0  0  0  0  0  0  0  0  0  0  0  0
    8.5976    1.9576    0.0000 H   0  0  0  0  0  0  0  0  0  0  0  0
    7.7316    0.5077    0.0000 H   0  0  0  0  0  0  0  0  0  0  0  0
    8.5287    0.5077    0.0000 H   0  0  0  0  0  0  0  0  0  0  0  0
   15.0583    0.6027    0.0000 H   0  0  0  0  0  0  0  0  0  0  0  0
   15.0583   -2.6373    0.0000 H   0  0  0  0  0  0  0  0  0  0  0  0
   16.4613   -0.2073    0.0000 H   0  0  0  0  0  0  0  0  0  0  0  0
    7.2641    2.1027    0.0000 H   0  0  0  0  0  0  0  0  0  0  0  0
   16.4613   -1.8273    0.0000 H   0  0  0  0  0  0  0  0  0  0  0  0
   12.7063   -3.0173    0.0000 H   0  0  0  0  0  0  0  0  0  0  0  0
   13.3263   -3.6373    0.0000 H   0  0  0  0  0  0  0  0  0  0  0  0
   13.9463   -3.0173    0.0000 H   0  0  0  0  0  0  0  0  0  0  0  0
    6.0690    2.7927    0.0000 H   0  0  0  0  0  0  0  0  0  0  0  0
    4.6660    3.6027    0.0000 H   0  0  0  0  0  0  0  0  0  0  0  0
    2.9132    0.3280    0.0000 H   0  0  0  0  0  0  0  0  0  0  0  0
    2.9132    3.6373    0.0000 H   0  0  0  0  0  0  0  0  0  0  0  0
    1.4643    1.1498    0.0000 H   0  0  0  0  0  0  0  0  0  0  0  0
    1.4643    2.8156    0.0000 H   0  0  0  0  0  0  0  0  0  0  0  0
  1 16  1  0  0  0  0
  1 22  1  0  0  0  0
  2 21  2  0  0  0  0
  3  7  1  0  0  0  0
  3  8  1  0  0  0  0
  3 11  1  0  0  0  0
  4  9  1  0  0  0  0
  4 10  1  0  0  0  0
  4 13  1  0  0  0  0
  5 15  1  0  0  0  0
  5 21  1  0  0  0  0
  5 51  1  0  0  0  0
  6 23  2  0  0  0  0
  6 25  1  0  0  0  0
  7  9  1  0  0  0  0
  7 32  1  0  0  0  0
  7 33  1  0  0  0  0
  8 10  1  0  0  0  0
  8 34  1  0  0  0  0
  8 35  1  0  0  0  0
  9 36  1  0  0  0  0
  9 37  1  0  0  0  0
 10 38  1  0  0  0  0
 10 39  1  0  0  0  0
 11 12  1  0  0  0  0
 11 40  1  0  0  0  0
 11 41  1  0  0  0  0
 12 14  1  0  0  0  0
 12 42  1  0  0  0  0
 12 43  1  0  0  0  0
 13 16  1  0  0  0  0
 13 17  2  0  0  0  0
 14 15  1  0  0  0  0
 14 44  1  0  0  0  0
 14 45  1  0  0  0  0
 15 46  1  0  0  0  0
 15 47  1  0  0  0  0
 16 18  2  0  0  0  0
 17 19  1  0  0  0  0
 17 48  1  0  0  0  0
 18 20  1  0  0  0  0
 18 49  1  0  0  0  0
 19 20  2  0  0  0  0
 19 50  1  0  0  0  0
 20 52  1  0  0  0  0
 21 23  1  0  0  0  0
 22 53  1  0  0  0  0
 22 54  1  0  0  0  0
 22 55  1  0  0  0  0
 23 24  1  0  0  0  0
 24 27  2  0  0  0  0
 24 56  1  0  0  0  0
 25 26  1  0  0  0  0
 25 28  2  0  0  0  0
 26 27  1  0  0  0  0
 26 29  2  0  0  0  0
 27 57  1  0  0  0  0
 28 30  1  0  0  0  0
 28 58  1  0  0  0  0
 29 31  1  0  0  0  0
 29 59  1  0  0  0  0
 30 31  2  0  0  0  0
 30 60  1  0  0  0  0
 31 61  1  0  0  0  0
M  END
> <PUBCHEM_COMPOUND_CID>
10862670

> <PUBCHEM_COMPOUND_CANONICALIZED>
1

> <PUBCHEM_CACTVS_COMPLEXITY>
552

> <PUBCHEM_CACTVS_HBOND_ACCEPTOR>
5

> <PUBCHEM_CACTVS_HBOND_DONOR>
1

> <PUBCHEM_CACTVS_ROTATABLE_BOND>
8

> <PUBCHEM_CACTVS_SUBSKEYS>
AAADceB7sAAAAAAAAAAAAAAAAAAAAAAAAAA8eIEAAAAAAACx9AAAHgAQAAAADAzBngYyxvPIFACoAyVyVACCiCAnIiAImKG/bNgOZvLEtbuVMShk1hHY6YeYyICOAAAAAAACEAAAAAAAAAQgAAAAAAAAAA==

> <PUBCHEM_IUPAC_OPENEYE_NAME>
N-[4-[4-(2-methoxyphenyl)piperazin-1-yl]butyl]quinoline-2-carboxamide

> <PUBCHEM_IUPAC_CAS_NAME>
N-[4-[4-(2-methoxyphenyl)-1-piperazinyl]butyl]-2-quinolinecarboxamide

> <PUBCHEM_IUPAC_NAME_MARKUP>
<I>N</I>-[4-[4-(2-methoxyphenyl)piperazin-1-yl]butyl]quinoline-2-carboxamide

> <PUBCHEM_IUPAC_NAME>
N-[4-[4-(2-methoxyphenyl)piperazin-1-yl]butyl]quinoline-2-carboxamide

> <PUBCHEM_IUPAC_SYSTEMATIC_NAME>
N-[4-[4-(2-methoxyphenyl)piperazin-1-yl]butyl]quinoline-2-carboxamide

> <PUBCHEM_IUPAC_TRADITIONAL_NAME>
N-[4-[4-(2-methoxyphenyl)piperazino]butyl]quinaldamide

> <PUBCHEM_IUPAC_INCHI>
InChI=1S/C25H30N4O2/c1-31-24-11-5-4-10-23(24)29-18-16-28(17-19-29)15-7-6-14-26-25(30)22-13-12-20-8-2-3-9-21(20)27-22/h2-5,8-13H,6-7,14-19H2,1H3,(H,26,30)

> <PUBCHEM_IUPAC_INCHIKEY>
CDDVHWKFFCJTOZ-UHFFFAOYSA-N

> <PUBCHEM_XLOGP3_AA>
4.1

> <PUBCHEM_EXACT_MASS>
418.23687621

> <PUBCHEM_MOLECULAR_FORMULA>
C25H30N4O2

> <PUBCHEM_MOLECULAR_WEIGHT>
418.5

> <PUBCHEM_OPENEYE_CAN_SMILES>
COC1=CC=CC=C1N2CCN(CC2)CCCCNC(=O)C3=NC4=CC=CC=C4C=C3

> <PUBCHEM_OPENEYE_ISO_SMILES>
COC1=CC=CC=C1N2CCN(CC2)CCCCNC(=O)C3=NC4=CC=CC=C4C=C3

> <PUBCHEM_CACTVS_TPSA>
57.7

> <PUBCHEM_MONOISOTOPIC_WEIGHT>
418.23687621

> <PUBCHEM_TOTAL_CHARGE>
0

> <PUBCHEM_HEAVY_ATOM_COUNT>
31

> <PUBCHEM_ATOM_DEF_STEREO_COUNT>
0

> <PUBCHEM_ATOM_UDEF_STEREO_COUNT>
0

> <PUBCHEM_BOND_DEF_STEREO_COUNT>
0

> <PUBCHEM_BOND_UDEF_STEREO_COUNT>
0

> <PUBCHEM_ISOTOPIC_ATOM_COUNT>
0

> <PUBCHEM_COMPONENT_COUNT>
1

> <PUBCHEM_CACTVS_TAUTO_COUNT>
-1

> <PUBCHEM_COORDINATE_TYPE>
1
5
255

> <PUBCHEM_BONDANNOTATIONS>
13  16  8
13  17  8
16  18  8
17  19  8
18  20  8
19  20  8
23  24  8
24  27  8
25  26  8
25  28  8
26  27  8
26  29  8
28  30  8
29  31  8
30  31  8
6  23  8
6  25  8

$$$$
