44276552
  -OEChem-09292322222D

 40 43  0     1  0  0  0  0  0999 V2000
    3.6737   -2.3946    0.0000 O   0  0  0  0  0  0  0  0  0  0  0  0
    5.4770   -3.4544    0.0000 O   0  0  0  0  0  0  0  0  0  0  0  0
    2.0000    2.7665    0.0000 O   0  0  0  0  0  0  0  0  0  0  0  0
    6.3961    2.2423    0.0000 N   0  0  0  0  0  0  0  0  0  0  0  0
    3.7702    2.7770    0.0000 N   0  0  0  0  0  0  0  0  0  0  0  0
    6.3961    1.2423    0.0000 C   0  0  1  0  0  0  0  0  0  0  0  0
    5.5301    0.7423    0.0000 C   0  0  1  0  0  0  0  0  0  0  0  0
    7.3062    0.7355    0.0000 C   0  0  0  0  0  0  0  0  0  0  0  0
    5.5141   -0.2992    0.0000 C   0  0  0  0  0  0  0  0  0  0  0  0
    7.3142   -0.3061    0.0000 C   0  0  0  0  0  0  0  0  0  0  0  0
    4.6641    1.2423    0.0000 C   0  0  0  0  0  0  0  0  0  0  0  0
    6.4121   -0.8269    0.0000 C   0  0  0  0  0  0  0  0  0  0  0  0
    5.5301    2.7423    0.0000 C   0  0  0  0  0  0  0  0  0  0  0  0
    4.6641    2.2423    0.0000 C   0  0  0  0  0  0  0  0  0  0  0  0
    4.5621   -0.8198    0.0000 C   0  0  0  0  0  0  0  0  0  0  0  0
    3.7702    0.7077    0.0000 C   0  0  0  0  0  0  0  0  0  0  0  0
    6.4205   -1.9119    0.0000 C   0  0  0  0  0  0  0  0  0  0  0  0
    4.5454   -1.9047    0.0000 C   0  0  0  0  0  0  0  0  0  0  0  0
    5.4808   -2.4544    0.0000 C   0  0  0  0  0  0  0  0  0  0  0  0
    2.8641    1.2215    0.0000 C   0  0  0  0  0  0  0  0  0  0  0  0
    2.8641    2.2631    0.0000 C   0  0  0  0  0  0  0  0  0  0  0  0
    2.0038    3.7665    0.0000 C   0  0  0  0  0  0  0  0  0  0  0  0
    7.1290    1.6730    0.0000 H   0  0  0  0  0  0  0  0  0  0  0  0
    4.7908    0.3230    0.0000 H   0  0  0  0  0  0  0  0  0  0  0  0
    7.9178    0.6341    0.0000 H   0  0  0  0  0  0  0  0  0  0  0  0
    7.5107    1.3208    0.0000 H   0  0  0  0  0  0  0  0  0  0  0  0
    7.5277   -0.8882    0.0000 H   0  0  0  0  0  0  0  0  0  0  0  0
    7.9242   -0.1953    0.0000 H   0  0  0  0  0  0  0  0  0  0  0  0
    6.9331    2.5523    0.0000 H   0  0  0  0  0  0  0  0  0  0  0  0
    5.9286    3.2173    0.0000 H   0  0  0  0  0  0  0  0  0  0  0  0
    5.1316    3.2173    0.0000 H   0  0  0  0  0  0  0  0  0  0  0  0
    4.0313   -0.4995    0.0000 H   0  0  0  0  0  0  0  0  0  0  0  0
    3.7773    0.0877    0.0000 H   0  0  0  0  0  0  0  0  0  0  0  0
    6.9586   -2.2198    0.0000 H   0  0  0  0  0  0  0  0  0  0  0  0
    2.3284    0.9094    0.0000 H   0  0  0  0  0  0  0  0  0  0  0  0
    3.6665   -3.0146    0.0000 H   0  0  0  0  0  0  0  0  0  0  0  0
    6.0127   -3.7665    0.0000 H   0  0  0  0  0  0  0  0  0  0  0  0
    2.6238    3.7641    0.0000 H   0  0  0  0  0  0  0  0  0  0  0  0
    2.0062    4.3865    0.0000 H   0  0  0  0  0  0  0  0  0  0  0  0
    1.3839    3.7688    0.0000 H   0  0  0  0  0  0  0  0  0  0  0  0
  1 18  1  0  0  0  0
  1 36  1  0  0  0  0
  2 19  1  0  0  0  0
  2 37  1  0  0  0  0
  3 21  1  0  0  0  0
  3 22  1  0  0  0  0
  4  6  1  0  0  0  0
  4 13  1  0  0  0  0
  4 29  1  0  0  0  0
  5 14  1  0  0  0  0
  5 21  2  0  0  0  0
  6  7  1  0  0  0  0
  6  8  1  0  0  0  0
  6 23  1  1  0  0  0
  7  9  1  0  0  0  0
  7 11  1  0  0  0  0
  7 24  1  6  0  0  0
  8 10  1  0  0  0  0
  8 25  1  0  0  0  0
  8 26  1  0  0  0  0
  9 12  1  0  0  0  0
  9 15  2  0  0  0  0
 10 12  1  0  0  0  0
 10 27  1  0  0  0  0
 10 28  1  0  0  0  0
 11 14  2  0  0  0  0
 11 16  1  0  0  0  0
 12 17  2  0  0  0  0
 13 14  1  0  0  0  0
 13 30  1  0  0  0  0
 13 31  1  0  0  0  0
 15 18  1  0  0  0  0
 15 32  1  0  0  0  0
 16 20  2  0  0  0  0
 16 33  1  0  0  0  0
 17 19  1  0  0  0  0
 17 34  1  0  0  0  0
 18 19  2  0  0  0  0
 20 21  1  0  0  0  0
 20 35  1  0  0  0  0
 22 38  1  0  0  0  0
 22 39  1  0  0  0  0
 22 40  1  0  0  0  0
M  END
> <PUBCHEM_COMPOUND_CID>
44276552

> <PUBCHEM_COMPOUND_CANONICALIZED>
1

> <PUBCHEM_CACTVS_COMPLEXITY>
407

> <PUBCHEM_CACTVS_HBOND_ACCEPTOR>
5

> <PUBCHEM_CACTVS_HBOND_DONOR>
3

> <PUBCHEM_CACTVS_ROTATABLE_BOND>
1

> <PUBCHEM_CACTVS_SUBSKEYS>
AAADceB7MAAAAAAAAAAAAAAAAAAAAAAAAAA8eIEAAAAAAADxwAAAHgAQCAAADSzBngYyhpLIFgCgAyRiRACCiCAhIiAImKA+7JgNZuLGsZuUcClk0BHJ+AeQ0PMOoAABAAAQQABQAAaAACSAAAAAAAAAAA==

> <PUBCHEM_IUPAC_OPENEYE_NAME>
(6aR,12bS)-3-methoxy-5,6,6a,7,8,12b-hexahydronaphtho[1,2-f][1,7]naphthyridine-10,11-diol

> <PUBCHEM_IUPAC_CAS_NAME>
(6aR,12bS)-3-methoxy-5,6,6a,7,8,12b-hexahydronaphtho[1,2-f][1,7]naphthyridine-10,11-diol

> <PUBCHEM_IUPAC_NAME_MARKUP>
(6<I>a</I><I>R</I>,12<I>b</I><I>S</I>)-3-methoxy-5,6,6<I>a</I>,7,8,12<I>b</I>-hexahydronaphtho[1,2-f][1,7]naphthyridine-10,11-diol

> <PUBCHEM_IUPAC_NAME>
(6aR,12bS)-3-methoxy-5,6,6a,7,8,12b-hexahydronaphtho[1,2-f][1,7]naphthyridine-10,11-diol

> <PUBCHEM_IUPAC_SYSTEMATIC_NAME>
(6aR,12bS)-3-methoxy-5,6,6a,7,8,12b-hexahydronaphtho[1,2-f][1,7]naphthyridine-10,11-diol

> <PUBCHEM_IUPAC_TRADITIONAL_NAME>
(6aR,12bS)-3-methoxy-5,6,6a,7,8,12b-hexahydronaphtho[1,2-f][1,7]naphthyridine-10,11-diol

> <PUBCHEM_IUPAC_INCHI>
InChI=1S/C17H18N2O3/c1-22-16-5-3-10-13(19-16)8-18-12-4-2-9-6-14(20)15(21)7-11(9)17(10)12/h3,5-7,12,17-18,20-21H,2,4,8H2,1H3/t12-,17-/m1/s1

> <PUBCHEM_IUPAC_INCHIKEY>
IBBZFQYJQGDOGF-SJKOYZFVSA-N

> <PUBCHEM_XLOGP3_AA>
1.8

> <PUBCHEM_EXACT_MASS>
298.13174244

> <PUBCHEM_MOLECULAR_FORMULA>
C17H18N2O3

> <PUBCHEM_MOLECULAR_WEIGHT>
298.34

> <PUBCHEM_OPENEYE_CAN_SMILES>
COC1=NC2=C(C=C1)C3C(CCC4=CC(=C(C=C34)O)O)NC2

> <PUBCHEM_OPENEYE_ISO_SMILES>
COC1=NC2=C(C=C1)[C@H]3[C@@H](CCC4=CC(=C(C=C34)O)O)NC2

> <PUBCHEM_CACTVS_TPSA>
74.6

> <PUBCHEM_MONOISOTOPIC_WEIGHT>
298.13174244

> <PUBCHEM_TOTAL_CHARGE>
0

> <PUBCHEM_HEAVY_ATOM_COUNT>
22

> <PUBCHEM_ATOM_DEF_STEREO_COUNT>
2

> <PUBCHEM_ATOM_UDEF_STEREO_COUNT>
0

> <PUBCHEM_BOND_DEF_STEREO_COUNT>
0

> <PUBCHEM_BOND_UDEF_STEREO_COUNT>
0

> <PUBCHEM_ISOTOPIC_ATOM_COUNT>
0

> <PUBCHEM_COMPONENT_COUNT>
1

> <PUBCHEM_CACTVS_TAUTO_COUNT>
-1

> <PUBCHEM_COORDINATE_TYPE>
1
5
255

> <PUBCHEM_BONDANNOTATIONS>
11  14  8
11  16  8
12  17  8
15  18  8
16  20  8
17  19  8
18  19  8
20  21  8
5  14  8
5  21  8
6  23  5
7  24  6
9  12  8
9  15  8

$$$$
