44372338
  -OEChem-09292322182D

 54 57  0     0  0  0  0  0  0999 V2000
   11.9724    2.8304    0.0000 Cl  0  0  0  0  0  0  0  0  0  0  0  0
    3.0000   -2.3684    0.0000 Si  0  0  0  0  0  0  0  0  0  0  0  0
    6.1014    1.5930    0.0000 N   0  0  0  0  0  0  0  0  0  0  0  0
    8.0584    2.0055    0.0000 N   0  0  0  0  0  0  0  0  0  0  0  0
    3.8660   -0.8684    0.0000 N   0  0  0  0  0  0  0  0  0  0  0  0
    4.8122   -1.1732    0.0000 N   0  0  0  0  0  0  0  0  0  0  0  0
    6.4121    2.5436    0.0000 C   0  0  0  0  0  0  0  0  0  0  0  0
    6.7693    0.8487    0.0000 C   0  0  0  0  0  0  0  0  0  0  0  0
    7.3906    2.7498    0.0000 C   0  0  0  0  0  0  0  0  0  0  0  0
    7.7478    1.0550    0.0000 C   0  0  0  0  0  0  0  0  0  0  0  0
    5.1229    1.3868    0.0000 C   0  0  0  0  0  0  0  0  0  0  0  0
    4.8122    0.4363    0.0000 C   0  0  0  0  0  0  0  0  0  0  0  0
    3.0000   -1.3684    0.0000 C   0  0  0  0  0  0  0  0  0  0  0  0
    3.8660    0.1316    0.0000 C   0  0  0  0  0  0  0  0  0  0  0  0
    9.0369    2.2117    0.0000 C   0  0  0  0  0  0  0  0  0  0  0  0
    3.0000   -3.3684    0.0000 C   0  0  0  0  0  0  0  0  0  0  0  0
    2.0000   -2.3684    0.0000 C   0  0  0  0  0  0  0  0  0  0  0  0
    4.0000   -2.3684    0.0000 C   0  0  0  0  0  0  0  0  0  0  0  0
    5.3958   -0.3684    0.0000 C   0  0  0  0  0  0  0  0  0  0  0  0
    2.1340   -0.8684    0.0000 C   0  0  0  0  0  0  0  0  0  0  0  0
    3.0000    0.6316    0.0000 C   0  0  0  0  0  0  0  0  0  0  0  0
    2.1340    0.1316    0.0000 C   0  0  0  0  0  0  0  0  0  0  0  0
    9.7048    1.4674    0.0000 C   0  0  0  0  0  0  0  0  0  0  0  0
    9.3476    3.1622    0.0000 C   0  0  0  0  0  0  0  0  0  0  0  0
   10.6833    1.6736    0.0000 C   0  0  0  0  0  0  0  0  0  0  0  0
   10.3261    3.3684    0.0000 C   0  0  0  0  0  0  0  0  0  0  0  0
   10.9939    2.6241    0.0000 C   0  0  0  0  0  0  0  0  0  0  0  0
    6.3915    3.1632    0.0000 H   0  0  0  0  0  0  0  0  0  0  0  0
    5.7983    2.6309    0.0000 H   0  0  0  0  0  0  0  0  0  0  0  0
    6.2429    0.5211    0.0000 H   0  0  0  0  0  0  0  0  0  0  0  0
    7.0005    0.2735    0.0000 H   0  0  0  0  0  0  0  0  0  0  0  0
    7.9169    3.0774    0.0000 H   0  0  0  0  0  0  0  0  0  0  0  0
    7.1593    3.3250    0.0000 H   0  0  0  0  0  0  0  0  0  0  0  0
    7.7683    0.4353    0.0000 H   0  0  0  0  0  0  0  0  0  0  0  0
    8.3616    0.9676    0.0000 H   0  0  0  0  0  0  0  0  0  0  0  0
    5.1023    2.0065    0.0000 H   0  0  0  0  0  0  0  0  0  0  0  0
    4.5091    1.4742    0.0000 H   0  0  0  0  0  0  0  0  0  0  0  0
    2.3800   -3.3684    0.0000 H   0  0  0  0  0  0  0  0  0  0  0  0
    3.0000   -3.9884    0.0000 H   0  0  0  0  0  0  0  0  0  0  0  0
    3.6200   -3.3684    0.0000 H   0  0  0  0  0  0  0  0  0  0  0  0
    2.0000   -1.7484    0.0000 H   0  0  0  0  0  0  0  0  0  0  0  0
    1.3800   -2.3684    0.0000 H   0  0  0  0  0  0  0  0  0  0  0  0
    2.0000   -2.9884    0.0000 H   0  0  0  0  0  0  0  0  0  0  0  0
    4.0000   -2.9884    0.0000 H   0  0  0  0  0  0  0  0  0  0  0  0
    4.6200   -2.3684    0.0000 H   0  0  0  0  0  0  0  0  0  0  0  0
    4.0000   -1.7484    0.0000 H   0  0  0  0  0  0  0  0  0  0  0  0
    6.0158   -0.3684    0.0000 H   0  0  0  0  0  0  0  0  0  0  0  0
    1.5970   -1.1784    0.0000 H   0  0  0  0  0  0  0  0  0  0  0  0
    3.0000    1.2516    0.0000 H   0  0  0  0  0  0  0  0  0  0  0  0
    1.5970    0.4416    0.0000 H   0  0  0  0  0  0  0  0  0  0  0  0
    9.5122    0.8781    0.0000 H   0  0  0  0  0  0  0  0  0  0  0  0
    8.9335    3.6237    0.0000 H   0  0  0  0  0  0  0  0  0  0  0  0
   11.0973    1.2121    0.0000 H   0  0  0  0  0  0  0  0  0  0  0  0
   10.5187    3.9578    0.0000 H   0  0  0  0  0  0  0  0  0  0  0  0
  1 27  1  0  0  0  0
  2 13  1  0  0  0  0
  2 16  1  0  0  0  0
  2 17  1  0  0  0  0
  2 18  1  0  0  0  0
  3  7  1  0  0  0  0
  3  8  1  0  0  0  0
  3 11  1  0  0  0  0
  4  9  1  0  0  0  0
  4 10  1  0  0  0  0
  4 15  1  0  0  0  0
  5  6  1  0  0  0  0
  5 13  1  0  0  0  0
  5 14  1  0  0  0  0
  6 19  2  0  0  0  0
  7  9  1  0  0  0  0
  7 28  1  0  0  0  0
  7 29  1  0  0  0  0
  8 10  1  0  0  0  0
  8 30  1  0  0  0  0
  8 31  1  0  0  0  0
  9 32  1  0  0  0  0
  9 33  1  0  0  0  0
 10 34  1  0  0  0  0
 10 35  1  0  0  0  0
 11 12  1  0  0  0  0
 11 36  1  0  0  0  0
 11 37  1  0  0  0  0
 12 14  2  0  0  0  0
 12 19  1  0  0  0  0
 13 20  2  0  0  0  0
 14 21  1  0  0  0  0
 15 23  2  0  0  0  0
 15 24  1  0  0  0  0
 16 38  1  0  0  0  0
 16 39  1  0  0  0  0
 16 40  1  0  0  0  0
 17 41  1  0  0  0  0
 17 42  1  0  0  0  0
 17 43  1  0  0  0  0
 18 44  1  0  0  0  0
 18 45  1  0  0  0  0
 18 46  1  0  0  0  0
 19 47  1  0  0  0  0
 20 22  1  0  0  0  0
 20 48  1  0  0  0  0
 21 22  2  0  0  0  0
 21 49  1  0  0  0  0
 22 50  1  0  0  0  0
 23 25  1  0  0  0  0
 23 51  1  0  0  0  0
 24 26  2  0  0  0  0
 24 52  1  0  0  0  0
 25 27  2  0  0  0  0
 25 53  1  0  0  0  0
 26 27  1  0  0  0  0
 26 54  1  0  0  0  0
M  END
> <PUBCHEM_COMPOUND_CID>
44372338

> <PUBCHEM_COMPOUND_CANONICALIZED>
1

> <PUBCHEM_CACTVS_COMPLEXITY>
483

> <PUBCHEM_CACTVS_HBOND_ACCEPTOR>
3

> <PUBCHEM_CACTVS_HBOND_DONOR>
0

> <PUBCHEM_CACTVS_ROTATABLE_BOND>
4

> <PUBCHEM_CACTVS_SUBSKEYS>
AAADceB7gAgEAAAAAAAAAAAAAAAAAWAAAAA8WIAAAAAAAFgB8AAAHBIIAAAADArBPiR+wLMIEAGiAzRnRACShCAhhyAYmCA4ZpgIYOLB09GUpAhgiADIyAcQgEAMAABAAAAAAAAAAIAAAAAAAAAAAAAAAA==

> <PUBCHEM_IUPAC_OPENEYE_NAME>
[3-[[4-(4-chlorophenyl)piperazin-1-yl]methyl]pyrazolo[1,5-a]pyridin-7-yl]-trimethyl-silane

> <PUBCHEM_IUPAC_CAS_NAME>
[3-[[4-(4-chlorophenyl)-1-piperazinyl]methyl]-7-pyrazolo[1,5-a]pyridinyl]-trimethylsilane

> <PUBCHEM_IUPAC_NAME_MARKUP>
[3-[[4-(4-chlorophenyl)piperazin-1-yl]methyl]pyrazolo[1,5-a]pyridin-7-yl]-trimethylsilane

> <PUBCHEM_IUPAC_NAME>
[3-[[4-(4-chlorophenyl)piperazin-1-yl]methyl]pyrazolo[1,5-a]pyridin-7-yl]-trimethylsilane

> <PUBCHEM_IUPAC_SYSTEMATIC_NAME>
[3-[[4-(4-chlorophenyl)piperazin-1-yl]methyl]pyrazolo[1,5-a]pyridin-7-yl]-trimethyl-silane

> <PUBCHEM_IUPAC_TRADITIONAL_NAME>
[3-[[4-(4-chlorophenyl)piperazino]methyl]pyrazolo[1,5-a]pyridin-7-yl]-trimethyl-silane

> <PUBCHEM_IUPAC_INCHI>
InChI=1S/C21H27ClN4Si/c1-27(2,3)21-6-4-5-20-17(15-23-26(20)21)16-24-11-13-25(14-12-24)19-9-7-18(22)8-10-19/h4-10,15H,11-14,16H2,1-3H3

> <PUBCHEM_IUPAC_INCHIKEY>
VLCYCTQMMKCUDI-UHFFFAOYSA-N

> <PUBCHEM_EXACT_MASS>
398.1693511

> <PUBCHEM_MOLECULAR_FORMULA>
C21H27ClN4Si

> <PUBCHEM_MOLECULAR_WEIGHT>
399.0

> <PUBCHEM_OPENEYE_CAN_SMILES>
C[Si](C)(C)C1=CC=CC2=C(C=NN21)CN3CCN(CC3)C4=CC=C(C=C4)Cl

> <PUBCHEM_OPENEYE_ISO_SMILES>
C[Si](C)(C)C1=CC=CC2=C(C=NN21)CN3CCN(CC3)C4=CC=C(C=C4)Cl

> <PUBCHEM_CACTVS_TPSA>
23.8

> <PUBCHEM_MONOISOTOPIC_WEIGHT>
398.1693511

> <PUBCHEM_TOTAL_CHARGE>
0

> <PUBCHEM_HEAVY_ATOM_COUNT>
27

> <PUBCHEM_ATOM_DEF_STEREO_COUNT>
0

> <PUBCHEM_ATOM_UDEF_STEREO_COUNT>
0

> <PUBCHEM_BOND_DEF_STEREO_COUNT>
0

> <PUBCHEM_BOND_UDEF_STEREO_COUNT>
0

> <PUBCHEM_ISOTOPIC_ATOM_COUNT>
0

> <PUBCHEM_COMPONENT_COUNT>
1

> <PUBCHEM_CACTVS_TAUTO_COUNT>
-1

> <PUBCHEM_COORDINATE_TYPE>
1
5
255

> <PUBCHEM_BONDANNOTATIONS>
12  14  8
12  19  8
13  20  8
14  21  8
15  23  8
15  24  8
20  22  8
21  22  8
23  25  8
24  26  8
25  27  8
26  27  8
5  13  8
5  14  8
5  6  8
6  19  8

$$$$
