9884781
  -OEChem-09292322392D

 52 56  0     0  0  0  0  0  0999 V2000
   12.0310   -0.3020    0.0000 O   0  0  0  0  0  0  0  0  0  0  0  0
   12.0310    1.7673    0.0000 O   0  0  0  0  0  0  0  0  0  0  0  0
    6.8069   -1.2673    0.0000 N   0  0  0  0  0  0  0  0  0  0  0  0
    8.5390   -0.2673    0.0000 N   0  0  0  0  0  0  0  0  0  0  0  0
    5.0749   -1.2673    0.0000 C   0  0  0  0  0  0  0  0  0  0  0  0
    5.9409   -1.7673    0.0000 C   0  0  0  0  0  0  0  0  0  0  0  0
    4.9718   -0.2786    0.0000 C   0  0  0  0  0  0  0  0  0  0  0  0
    4.1671   -1.6724    0.0000 C   0  0  0  0  0  0  0  0  0  0  0  0
    6.8069   -0.2673    0.0000 C   0  0  0  0  0  0  0  0  0  0  0  0
    7.6730   -1.7673    0.0000 C   0  0  0  0  0  0  0  0  0  0  0  0
    4.0000   -0.0694    0.0000 C   0  0  0  0  0  0  0  0  0  0  0  0
    3.5000   -0.9354    0.0000 C   0  0  0  0  0  0  0  0  0  0  0  0
    7.6730    0.2327    0.0000 C   0  0  0  0  0  0  0  0  0  0  0  0
    8.5390   -1.2673    0.0000 C   0  0  0  0  0  0  0  0  0  0  0  0
    3.5000    0.7966    0.0000 C   0  0  0  0  0  0  0  0  0  0  0  0
    2.5000   -0.9354    0.0000 C   0  0  0  0  0  0  0  0  0  0  0  0
    9.4050    0.2327    0.0000 C   0  0  0  0  0  0  0  0  0  0  0  0
    2.5000    0.7966    0.0000 C   0  0  0  0  0  0  0  0  0  0  0  0
    2.0000   -0.0694    0.0000 C   0  0  0  0  0  0  0  0  0  0  0  0
   10.2710   -0.2673    0.0000 C   0  0  0  0  0  0  0  0  0  0  0  0
    9.4050    1.2327    0.0000 C   0  0  0  0  0  0  0  0  0  0  0  0
   11.1370    0.2327    0.0000 C   0  0  0  0  0  0  0  0  0  0  0  0
   10.2710    1.7327    0.0000 C   0  0  0  0  0  0  0  0  0  0  0  0
   11.1370    1.2327    0.0000 C   0  0  0  0  0  0  0  0  0  0  0  0
   12.9371    0.2119    0.0000 C   0  0  0  0  0  0  0  0  0  0  0  0
   12.9371    1.2535    0.0000 C   0  0  0  0  0  0  0  0  0  0  0  0
    5.0427   -1.8865    0.0000 H   0  0  0  0  0  0  0  0  0  0  0  0
    5.5424   -2.2423    0.0000 H   0  0  0  0  0  0  0  0  0  0  0  0
    6.3394   -2.2423    0.0000 H   0  0  0  0  0  0  0  0  0  0  0  0
    5.5918   -0.2795    0.0000 H   0  0  0  0  0  0  0  0  0  0  0  0
    5.0379    0.3379    0.0000 H   0  0  0  0  0  0  0  0  0  0  0  0
    3.6662   -2.0379    0.0000 H   0  0  0  0  0  0  0  0  0  0  0  0
    4.4779   -2.2089    0.0000 H   0  0  0  0  0  0  0  0  0  0  0  0
    6.5949    0.3153    0.0000 H   0  0  0  0  0  0  0  0  0  0  0  0
    6.1963   -0.3750    0.0000 H   0  0  0  0  0  0  0  0  0  0  0  0
    7.2744   -2.2423    0.0000 H   0  0  0  0  0  0  0  0  0  0  0  0
    8.0715   -2.2423    0.0000 H   0  0  0  0  0  0  0  0  0  0  0  0
    8.0715    0.7076    0.0000 H   0  0  0  0  0  0  0  0  0  0  0  0
    7.2744    0.7076    0.0000 H   0  0  0  0  0  0  0  0  0  0  0  0
    8.7510   -1.8499    0.0000 H   0  0  0  0  0  0  0  0  0  0  0  0
    9.1496   -1.1597    0.0000 H   0  0  0  0  0  0  0  0  0  0  0  0
    3.8100    1.3336    0.0000 H   0  0  0  0  0  0  0  0  0  0  0  0
    2.1900   -1.4724    0.0000 H   0  0  0  0  0  0  0  0  0  0  0  0
    2.1900    1.3336    0.0000 H   0  0  0  0  0  0  0  0  0  0  0  0
    1.3800   -0.0694    0.0000 H   0  0  0  0  0  0  0  0  0  0  0  0
   10.2710   -0.8873    0.0000 H   0  0  0  0  0  0  0  0  0  0  0  0
    8.8681    1.5427    0.0000 H   0  0  0  0  0  0  0  0  0  0  0  0
   10.2710    2.3527    0.0000 H   0  0  0  0  0  0  0  0  0  0  0  0
   13.1461   -0.3718    0.0000 H   0  0  0  0  0  0  0  0  0  0  0  0
   13.5479    0.3179    0.0000 H   0  0  0  0  0  0  0  0  0  0  0  0
   13.5479    1.1474    0.0000 H   0  0  0  0  0  0  0  0  0  0  0  0
   13.1461    1.8372    0.0000 H   0  0  0  0  0  0  0  0  0  0  0  0
  1 22  1  0  0  0  0
  1 25  1  0  0  0  0
  2 24  1  0  0  0  0
  2 26  1  0  0  0  0
  3  6  1  0  0  0  0
  3  9  1  0  0  0  0
  3 10  1  0  0  0  0
  4 13  1  0  0  0  0
  4 14  1  0  0  0  0
  4 17  1  0  0  0  0
  5  6  1  0  0  0  0
  5  7  1  0  0  0  0
  5  8  1  0  0  0  0
  5 27  1  0  0  0  0
  6 28  1  0  0  0  0
  6 29  1  0  0  0  0
  7 11  1  0  0  0  0
  7 30  1  0  0  0  0
  7 31  1  0  0  0  0
  8 12  1  0  0  0  0
  8 32  1  0  0  0  0
  8 33  1  0  0  0  0
  9 13  1  0  0  0  0
  9 34  1  0  0  0  0
  9 35  1  0  0  0  0
 10 14  1  0  0  0  0
 10 36  1  0  0  0  0
 10 37  1  0  0  0  0
 11 12  1  0  0  0  0
 11 15  2  0  0  0  0
 12 16  2  0  0  0  0
 13 38  1  0  0  0  0
 13 39  1  0  0  0  0
 14 40  1  0  0  0  0
 14 41  1  0  0  0  0
 15 18  1  0  0  0  0
 15 42  1  0  0  0  0
 16 19  1  0  0  0  0
 16 43  1  0  0  0  0
 17 20  2  0  0  0  0
 17 21  1  0  0  0  0
 18 19  2  0  0  0  0
 18 44  1  0  0  0  0
 19 45  1  0  0  0  0
 20 22  1  0  0  0  0
 20 46  1  0  0  0  0
 21 23  2  0  0  0  0
 21 47  1  0  0  0  0
 22 24  2  0  0  0  0
 23 24  1  0  0  0  0
 23 48  1  0  0  0  0
 25 26  1  0  0  0  0
 25 49  1  0  0  0  0
 25 50  1  0  0  0  0
 26 51  1  0  0  0  0
 26 52  1  0  0  0  0
M  END
> <PUBCHEM_COMPOUND_CID>
9884781

> <PUBCHEM_COMPOUND_CANONICALIZED>
1

> <PUBCHEM_CACTVS_COMPLEXITY>
451

> <PUBCHEM_CACTVS_HBOND_ACCEPTOR>
4

> <PUBCHEM_CACTVS_HBOND_DONOR>
0

> <PUBCHEM_CACTVS_ROTATABLE_BOND>
3

> <PUBCHEM_CACTVS_SUBSKEYS>
AAADceB7MAAAAAAAAAAAAAAAAAAAAYAAAAA8aIEAAAAAAGCRQAAAHgAAAAAADQzhmAYwxoMABACAAiRCQACCCAAhIgAIiAAO7IgNZiLEsZuWOCrmwBnK6Aew0MMOgEAAAgAQQAAAgAAEACCAAQAACAAAAA==

> <PUBCHEM_IUPAC_OPENEYE_NAME>
1-(2,3-dihydro-1,4-benzodioxin-6-yl)-4-(indan-2-ylmethyl)piperazine

> <PUBCHEM_IUPAC_CAS_NAME>
1-(2,3-dihydro-1,4-benzodioxin-6-yl)-4-(2,3-dihydro-1H-inden-2-ylmethyl)piperazine

> <PUBCHEM_IUPAC_NAME_MARKUP>
1-(2,3-dihydro-1,4-benzodioxin-6-yl)-4-(2,3-dihydro-1<I>H</I>-inden-2-ylmethyl)piperazine

> <PUBCHEM_IUPAC_NAME>
1-(2,3-dihydro-1,4-benzodioxin-6-yl)-4-(2,3-dihydro-1H-inden-2-ylmethyl)piperazine

> <PUBCHEM_IUPAC_SYSTEMATIC_NAME>
1-(2,3-dihydro-1,4-benzodioxin-6-yl)-4-(2,3-dihydro-1H-inden-2-ylmethyl)piperazine

> <PUBCHEM_IUPAC_TRADITIONAL_NAME>
1-(2,3-dihydro-1,4-benzodioxin-6-yl)-4-(indan-2-ylmethyl)piperazine

> <PUBCHEM_IUPAC_INCHI>
InChI=1S/C22H26N2O2/c1-2-4-19-14-17(13-18(19)3-1)16-23-7-9-24(10-8-23)20-5-6-21-22(15-20)26-12-11-25-21/h1-6,15,17H,7-14,16H2

> <PUBCHEM_IUPAC_INCHIKEY>
CYPJMEGEBKHODC-UHFFFAOYSA-N

> <PUBCHEM_XLOGP3_AA>
3.8

> <PUBCHEM_EXACT_MASS>
350.199428076

> <PUBCHEM_MOLECULAR_FORMULA>
C22H26N2O2

> <PUBCHEM_MOLECULAR_WEIGHT>
350.5

> <PUBCHEM_OPENEYE_CAN_SMILES>
C1CN(CCN1CC2CC3=CC=CC=C3C2)C4=CC5=C(C=C4)OCCO5

> <PUBCHEM_OPENEYE_ISO_SMILES>
C1CN(CCN1CC2CC3=CC=CC=C3C2)C4=CC5=C(C=C4)OCCO5

> <PUBCHEM_CACTVS_TPSA>
24.9

> <PUBCHEM_MONOISOTOPIC_WEIGHT>
350.199428076

> <PUBCHEM_TOTAL_CHARGE>
0

> <PUBCHEM_HEAVY_ATOM_COUNT>
26

> <PUBCHEM_ATOM_DEF_STEREO_COUNT>
0

> <PUBCHEM_ATOM_UDEF_STEREO_COUNT>
0

> <PUBCHEM_BOND_DEF_STEREO_COUNT>
0

> <PUBCHEM_BOND_UDEF_STEREO_COUNT>
0

> <PUBCHEM_ISOTOPIC_ATOM_COUNT>
0

> <PUBCHEM_COMPONENT_COUNT>
1

> <PUBCHEM_CACTVS_TAUTO_COUNT>
-1

> <PUBCHEM_COORDINATE_TYPE>
1
5
255

> <PUBCHEM_BONDANNOTATIONS>
11  12  8
11  15  8
12  16  8
15  18  8
16  19  8
17  20  8
17  21  8
18  19  8
20  22  8
21  23  8
22  24  8
23  24  8

$$$$
