10885524
  -OEChem-09292322112D

 63 67  0     0  0  0  0  0  0999 V2000
    8.8575    4.4118    0.0000 Cl  0  0  0  0  0  0  0  0  0  0  0  0
    8.8575    6.4118    0.0000 Cl  0  0  0  0  0  0  0  0  0  0  0  0
    3.6613   -2.5882    0.0000 O   0  0  0  0  0  0  0  0  0  0  0  0
    7.1254    1.4118    0.0000 N   0  0  0  0  0  0  0  0  0  0  0  0
    7.1254    3.4118    0.0000 N   0  0  0  0  0  0  0  0  0  0  0  0
    5.3934   -2.5882    0.0000 N   0  0  0  0  0  0  0  0  0  0  0  0
    6.2594    1.9118    0.0000 C   0  0  0  0  0  0  0  0  0  0  0  0
    7.9915    1.9118    0.0000 C   0  0  0  0  0  0  0  0  0  0  0  0
    6.2594    2.9118    0.0000 C   0  0  0  0  0  0  0  0  0  0  0  0
    7.9915    2.9118    0.0000 C   0  0  0  0  0  0  0  0  0  0  0  0
    7.1254    0.4118    0.0000 C   0  0  0  0  0  0  0  0  0  0  0  0
    6.2594   -0.0882    0.0000 C   0  0  0  0  0  0  0  0  0  0  0  0
    4.5274   -4.0882    0.0000 C   0  0  0  0  0  0  0  0  0  0  0  0
    6.2594   -1.0882    0.0000 C   0  0  0  0  0  0  0  0  0  0  0  0
    5.3364   -4.6760    0.0000 C   0  0  0  0  0  0  0  0  0  0  0  0
    3.7183   -4.6760    0.0000 C   0  0  0  0  0  0  0  0  0  0  0  0
    7.1254    4.4118    0.0000 C   0  0  0  0  0  0  0  0  0  0  0  0
    5.3934   -1.5882    0.0000 C   0  0  0  0  0  0  0  0  0  0  0  0
    5.0274   -5.6270    0.0000 C   0  0  0  0  0  0  0  0  0  0  0  0
    4.0274   -5.6270    0.0000 C   0  0  0  0  0  0  0  0  0  0  0  0
    4.5274   -3.0882    0.0000 C   0  0  0  0  0  0  0  0  0  0  0  0
    6.3518   -4.4438    0.0000 C   0  0  0  0  0  0  0  0  0  0  0  0
    2.7029   -4.4438    0.0000 C   0  0  0  0  0  0  0  0  0  0  0  0
    5.7123   -6.4118    0.0000 C   0  0  0  0  0  0  0  0  0  0  0  0
    3.3424   -6.4118    0.0000 C   0  0  0  0  0  0  0  0  0  0  0  0
    7.9915    4.9118    0.0000 C   0  0  0  0  0  0  0  0  0  0  0  0
    6.2594    4.9118    0.0000 C   0  0  0  0  0  0  0  0  0  0  0  0
    7.0547   -5.2124    0.0000 C   0  0  0  0  0  0  0  0  0  0  0  0
    2.0000   -5.2124    0.0000 C   0  0  0  0  0  0  0  0  0  0  0  0
    6.7328   -6.2031    0.0000 C   0  0  0  0  0  0  0  0  0  0  0  0
    2.3219   -6.2031    0.0000 C   0  0  0  0  0  0  0  0  0  0  0  0
    7.9915    5.9118    0.0000 C   0  0  0  0  0  0  0  0  0  0  0  0
    6.2594    5.9118    0.0000 C   0  0  0  0  0  0  0  0  0  0  0  0
    7.1254    6.4118    0.0000 C   0  0  0  0  0  0  0  0  0  0  0  0
    5.6488    2.0194    0.0000 H   0  0  0  0  0  0  0  0  0  0  0  0
    6.0474    1.3292    0.0000 H   0  0  0  0  0  0  0  0  0  0  0  0
    8.2035    1.3292    0.0000 H   0  0  0  0  0  0  0  0  0  0  0  0
    8.6020    2.0194    0.0000 H   0  0  0  0  0  0  0  0  0  0  0  0
    6.0474    3.4944    0.0000 H   0  0  0  0  0  0  0  0  0  0  0  0
    5.6488    2.8041    0.0000 H   0  0  0  0  0  0  0  0  0  0  0  0
    8.6020    2.8041    0.0000 H   0  0  0  0  0  0  0  0  0  0  0  0
    8.2035    3.4944    0.0000 H   0  0  0  0  0  0  0  0  0  0  0  0
    7.3375   -0.1708    0.0000 H   0  0  0  0  0  0  0  0  0  0  0  0
    7.7360    0.5195    0.0000 H   0  0  0  0  0  0  0  0  0  0  0  0
    6.0474    0.4944    0.0000 H   0  0  0  0  0  0  0  0  0  0  0  0
    5.6488   -0.1959    0.0000 H   0  0  0  0  0  0  0  0  0  0  0  0
    5.0798   -3.8067    0.0000 H   0  0  0  0  0  0  0  0  0  0  0  0
    6.4715   -1.6708    0.0000 H   0  0  0  0  0  0  0  0  0  0  0  0
    6.8700   -0.9805    0.0000 H   0  0  0  0  0  0  0  0  0  0  0  0
    5.1813   -1.0056    0.0000 H   0  0  0  0  0  0  0  0  0  0  0  0
    4.7828   -1.6959    0.0000 H   0  0  0  0  0  0  0  0  0  0  0  0
    5.9303   -2.8982    0.0000 H   0  0  0  0  0  0  0  0  0  0  0  0
    6.5365   -3.8519    0.0000 H   0  0  0  0  0  0  0  0  0  0  0  0
    2.5182   -3.8519    0.0000 H   0  0  0  0  0  0  0  0  0  0  0  0
    5.5139   -6.9992    0.0000 H   0  0  0  0  0  0  0  0  0  0  0  0
    3.5408   -6.9992    0.0000 H   0  0  0  0  0  0  0  0  0  0  0  0
    5.7225    4.6018    0.0000 H   0  0  0  0  0  0  0  0  0  0  0  0
    7.6607   -5.0812    0.0000 H   0  0  0  0  0  0  0  0  0  0  0  0
    1.3940   -5.0812    0.0000 H   0  0  0  0  0  0  0  0  0  0  0  0
    7.1459   -6.6654    0.0000 H   0  0  0  0  0  0  0  0  0  0  0  0
    1.9088   -6.6654    0.0000 H   0  0  0  0  0  0  0  0  0  0  0  0
    5.7225    6.2218    0.0000 H   0  0  0  0  0  0  0  0  0  0  0  0
    7.1254    7.0318    0.0000 H   0  0  0  0  0  0  0  0  0  0  0  0
  1 26  1  0  0  0  0
  2 32  1  0  0  0  0
  3 21  2  0  0  0  0
  4  7  1  0  0  0  0
  4  8  1  0  0  0  0
  4 11  1  0  0  0  0
  5  9  1  0  0  0  0
  5 10  1  0  0  0  0
  5 17  1  0  0  0  0
  6 18  1  0  0  0  0
  6 21  1  0  0  0  0
  6 52  1  0  0  0  0
  7  9  1  0  0  0  0
  7 35  1  0  0  0  0
  7 36  1  0  0  0  0
  8 10  1  0  0  0  0
  8 37  1  0  0  0  0
  8 38  1  0  0  0  0
  9 39  1  0  0  0  0
  9 40  1  0  0  0  0
 10 41  1  0  0  0  0
 10 42  1  0  0  0  0
 11 12  1  0  0  0  0
 11 43  1  0  0  0  0
 11 44  1  0  0  0  0
 12 14  1  0  0  0  0
 12 45  1  0  0  0  0
 12 46  1  0  0  0  0
 13 15  1  0  0  0  0
 13 16  1  0  0  0  0
 13 21  1  0  0  0  0
 13 47  1  0  0  0  0
 14 18  1  0  0  0  0
 14 48  1  0  0  0  0
 14 49  1  0  0  0  0
 15 19  1  0  0  0  0
 15 22  2  0  0  0  0
 16 20  1  0  0  0  0
 16 23  2  0  0  0  0
 17 26  2  0  0  0  0
 17 27  1  0  0  0  0
 18 50  1  0  0  0  0
 18 51  1  0  0  0  0
 19 20  1  0  0  0  0
 19 24  2  0  0  0  0
 20 25  2  0  0  0  0
 22 28  1  0  0  0  0
 22 53  1  0  0  0  0
 23 29  1  0  0  0  0
 23 54  1  0  0  0  0
 24 30  1  0  0  0  0
 24 55  1  0  0  0  0
 25 31  1  0  0  0  0
 25 56  1  0  0  0  0
 26 32  1  0  0  0  0
 27 33  2  0  0  0  0
 27 57  1  0  0  0  0
 28 30  2  0  0  0  0
 28 58  1  0  0  0  0
 29 31  2  0  0  0  0
 29 59  1  0  0  0  0
 30 60  1  0  0  0  0
 31 61  1  0  0  0  0
 32 34  2  0  0  0  0
 33 34  1  0  0  0  0
 33 62  1  0  0  0  0
 34 63  1  0  0  0  0
M  END
> <PUBCHEM_COMPOUND_CID>
10885524

> <PUBCHEM_COMPOUND_CANONICALIZED>
1

> <PUBCHEM_CACTVS_COMPLEXITY>
648

> <PUBCHEM_CACTVS_HBOND_ACCEPTOR>
3

> <PUBCHEM_CACTVS_HBOND_DONOR>
1

> <PUBCHEM_CACTVS_ROTATABLE_BOND>
7

> <PUBCHEM_CACTVS_SUBSKEYS>
AAADceB7IAAGAAAAAAAAAAAAAAAAAYAAAAA8YMEAAAAAAGABUAAAHgIQAAAADQrBmCQwwIPAAACIAiVSUACCAAAhBwAIisEIZogIYDLBl5HUIAhglgDIyAcYiMCOgAAAAAIQABQAAAAABCAAKQAACAAAAA==

> <PUBCHEM_IUPAC_OPENEYE_NAME>
N-[4-[4-(2,3-dichlorophenyl)piperazin-1-yl]butyl]-9H-fluorene-9-carboxamide

> <PUBCHEM_IUPAC_CAS_NAME>
N-[4-[4-(2,3-dichlorophenyl)-1-piperazinyl]butyl]-9H-fluorene-9-carboxamide

> <PUBCHEM_IUPAC_NAME_MARKUP>
<I>N</I>-[4-[4-(2,3-dichlorophenyl)piperazin-1-yl]butyl]-9<I>H</I>-fluorene-9-carboxamide

> <PUBCHEM_IUPAC_NAME>
N-[4-[4-(2,3-dichlorophenyl)piperazin-1-yl]butyl]-9H-fluorene-9-carboxamide

> <PUBCHEM_IUPAC_SYSTEMATIC_NAME>
N-[4-[4-[2,3-bis(chloranyl)phenyl]piperazin-1-yl]butyl]-9H-fluorene-9-carboxamide

> <PUBCHEM_IUPAC_TRADITIONAL_NAME>
N-[4-[4-(2,3-dichlorophenyl)piperazino]butyl]-9H-fluorene-9-carboxamide

> <PUBCHEM_IUPAC_INCHI>
InChI=1S/C28H29Cl2N3O/c29-24-12-7-13-25(27(24)30)33-18-16-32(17-19-33)15-6-5-14-31-28(34)26-22-10-3-1-8-20(22)21-9-2-4-11-23(21)26/h1-4,7-13,26H,5-6,14-19H2,(H,31,34)

> <PUBCHEM_IUPAC_INCHIKEY>
QCKWKKZGPZWWFN-UHFFFAOYSA-N

> <PUBCHEM_XLOGP3_AA>
6.1

> <PUBCHEM_EXACT_MASS>
493.1687679

> <PUBCHEM_MOLECULAR_FORMULA>
C28H29Cl2N3O

> <PUBCHEM_MOLECULAR_WEIGHT>
494.5

> <PUBCHEM_OPENEYE_CAN_SMILES>
C1CN(CCN1CCCCNC(=O)C2C3=CC=CC=C3C4=CC=CC=C24)C5=C(C(=CC=C5)Cl)Cl

> <PUBCHEM_OPENEYE_ISO_SMILES>
C1CN(CCN1CCCCNC(=O)C2C3=CC=CC=C3C4=CC=CC=C24)C5=C(C(=CC=C5)Cl)Cl

> <PUBCHEM_CACTVS_TPSA>
35.6

> <PUBCHEM_MONOISOTOPIC_WEIGHT>
493.1687679

> <PUBCHEM_TOTAL_CHARGE>
0

> <PUBCHEM_HEAVY_ATOM_COUNT>
34

> <PUBCHEM_ATOM_DEF_STEREO_COUNT>
0

> <PUBCHEM_ATOM_UDEF_STEREO_COUNT>
0

> <PUBCHEM_BOND_DEF_STEREO_COUNT>
0

> <PUBCHEM_BOND_UDEF_STEREO_COUNT>
0

> <PUBCHEM_ISOTOPIC_ATOM_COUNT>
0

> <PUBCHEM_COMPONENT_COUNT>
1

> <PUBCHEM_CACTVS_TAUTO_COUNT>
-1

> <PUBCHEM_COORDINATE_TYPE>
1
5
255

> <PUBCHEM_BONDANNOTATIONS>
15  19  8
15  22  8
16  20  8
16  23  8
17  26  8
17  27  8
19  24  8
20  25  8
22  28  8
23  29  8
24  30  8
25  31  8
26  32  8
27  33  8
28  30  8
29  31  8
32  34  8
33  34  8

$$$$
