164618690
  -OEChem-09292322432D

 49 50  0     0  0  0  0  0  0999 V2000
    7.5622    5.3317    0.0000 S   0  0  0  0  0  0  0  0  0  0  0  0
    6.3301   -2.2071    0.0000 O   0  0  0  0  0  0  0  0  0  0  0  0
    4.5981   -2.2071    0.0000 N   0  0  0  0  0  0  0  0  0  0  0  0
    5.4641   -0.7071    0.0000 N   0  0  0  0  0  0  0  0  0  0  0  0
    6.3301    0.7929    0.0000 N   0  0  0  0  0  0  0  0  0  0  0  0
    8.8712    4.3807    0.0000 N   0  0  0  0  0  0  0  0  0  0  0  0
    7.1962   -0.7071    0.0000 N   0  0  0  0  0  0  0  0  0  0  0  0
    9.1500    6.1407    0.0000 N   0  0  0  0  0  0  0  0  0  0  0  0
    3.7320   -4.7071    0.0000 C   0  0  0  0  0  0  0  0  0  0  0  0
    2.8660   -5.2071    0.0000 C   0  0  0  0  0  0  0  0  0  0  0  0
    3.7320   -3.7071    0.0000 C   0  0  0  0  0  0  0  0  0  0  0  0
    2.8660   -6.2071    0.0000 C   0  0  0  0  0  0  0  0  0  0  0  0
    4.5981   -3.2071    0.0000 C   0  0  0  0  0  0  0  0  0  0  0  0
    2.0000   -6.7071    0.0000 C   0  0  0  0  0  0  0  0  0  0  0  0
    5.4641   -1.7071    0.0000 C   0  0  0  0  0  0  0  0  0  0  0  0
    8.0622    2.7929    0.0000 C   0  0  0  0  0  0  0  0  0  0  0  0
    7.1962    1.2929    0.0000 C   0  0  0  0  0  0  0  0  0  0  0  0
    7.1962    2.2929    0.0000 C   0  0  0  0  0  0  0  0  0  0  0  0
    6.3301   -0.2071    0.0000 C   0  0  0  0  0  0  0  0  0  0  0  0
    8.0622    3.7929    0.0000 C   0  0  0  0  0  0  0  0  0  0  0  0
    8.9282    2.2929    0.0000 C   0  0  0  0  0  0  0  0  0  0  0  0
    8.0622    0.7929    0.0000 C   0  0  0  0  0  0  0  0  0  0  0  0
    8.9282    1.2929    0.0000 C   0  0  0  0  0  0  0  0  0  0  0  0
    7.2532    4.3807    0.0000 C   0  0  0  0  0  0  0  0  0  0  0  0
    8.5622    5.3317    0.0000 C   0  0  0  0  0  0  0  0  0  0  0  0
    3.9441   -5.2897    0.0000 H   0  0  0  0  0  0  0  0  0  0  0  0
    4.3426   -4.5995    0.0000 H   0  0  0  0  0  0  0  0  0  0  0  0
    2.6540   -4.6245    0.0000 H   0  0  0  0  0  0  0  0  0  0  0  0
    2.2554   -5.3148    0.0000 H   0  0  0  0  0  0  0  0  0  0  0  0
    3.5200   -3.1245    0.0000 H   0  0  0  0  0  0  0  0  0  0  0  0
    3.1215   -3.8148    0.0000 H   0  0  0  0  0  0  0  0  0  0  0  0
    3.0781   -6.7897    0.0000 H   0  0  0  0  0  0  0  0  0  0  0  0
    3.4766   -6.0995    0.0000 H   0  0  0  0  0  0  0  0  0  0  0  0
    4.8101   -3.7897    0.0000 H   0  0  0  0  0  0  0  0  0  0  0  0
    5.2087   -3.0995    0.0000 H   0  0  0  0  0  0  0  0  0  0  0  0
    1.6900   -6.1702    0.0000 H   0  0  0  0  0  0  0  0  0  0  0  0
    1.4631   -7.0171    0.0000 H   0  0  0  0  0  0  0  0  0  0  0  0
    2.3100   -7.2441    0.0000 H   0  0  0  0  0  0  0  0  0  0  0  0
    4.0611   -1.8971    0.0000 H   0  0  0  0  0  0  0  0  0  0  0  0
    4.9272   -0.3971    0.0000 H   0  0  0  0  0  0  0  0  0  0  0  0
    6.6592    2.6029    0.0000 H   0  0  0  0  0  0  0  0  0  0  0  0
    9.4651    2.6029    0.0000 H   0  0  0  0  0  0  0  0  0  0  0  0
    8.0622    0.1729    0.0000 H   0  0  0  0  0  0  0  0  0  0  0  0
    9.4651    0.9829    0.0000 H   0  0  0  0  0  0  0  0  0  0  0  0
    6.6635    4.1891    0.0000 H   0  0  0  0  0  0  0  0  0  0  0  0
    7.1962   -1.3271    0.0000 H   0  0  0  0  0  0  0  0  0  0  0  0
    7.7331   -0.3971    0.0000 H   0  0  0  0  0  0  0  0  0  0  0  0
    8.8978    6.7071    0.0000 H   0  0  0  0  0  0  0  0  0  0  0  0
    9.7666    6.0759    0.0000 H   0  0  0  0  0  0  0  0  0  0  0  0
  1 24  1  0  0  0  0
  1 25  1  0  0  0  0
  2 15  2  0  0  0  0
  3 13  1  0  0  0  0
  3 15  1  0  0  0  0
  3 39  1  0  0  0  0
  4 15  1  0  0  0  0
  4 19  1  0  0  0  0
  4 40  1  0  0  0  0
  5 17  1  0  0  0  0
  5 19  2  0  0  0  0
  6 20  1  0  0  0  0
  6 25  2  0  0  0  0
  7 19  1  0  0  0  0
  7 46  1  0  0  0  0
  7 47  1  0  0  0  0
  8 25  1  0  0  0  0
  8 48  1  0  0  0  0
  8 49  1  0  0  0  0
  9 10  1  0  0  0  0
  9 11  1  0  0  0  0
  9 26  1  0  0  0  0
  9 27  1  0  0  0  0
 10 12  1  0  0  0  0
 10 28  1  0  0  0  0
 10 29  1  0  0  0  0
 11 13  1  0  0  0  0
 11 30  1  0  0  0  0
 11 31  1  0  0  0  0
 12 14  1  0  0  0  0
 12 32  1  0  0  0  0
 12 33  1  0  0  0  0
 13 34  1  0  0  0  0
 13 35  1  0  0  0  0
 14 36  1  0  0  0  0
 14 37  1  0  0  0  0
 14 38  1  0  0  0  0
 16 18  2  0  0  0  0
 16 20  1  0  0  0  0
 16 21  1  0  0  0  0
 17 18  1  0  0  0  0
 17 22  2  0  0  0  0
 18 41  1  0  0  0  0
 20 24  2  0  0  0  0
 21 23  2  0  0  0  0
 21 42  1  0  0  0  0
 22 23  1  0  0  0  0
 22 43  1  0  0  0  0
 23 44  1  0  0  0  0
 24 45  1  0  0  0  0
M  END
> <PUBCHEM_COMPOUND_CID>
164618690

> <PUBCHEM_COMPOUND_CANONICALIZED>
1

> <PUBCHEM_CACTVS_COMPLEXITY>
447

> <PUBCHEM_CACTVS_HBOND_ACCEPTOR>
5

> <PUBCHEM_CACTVS_HBOND_DONOR>
4

> <PUBCHEM_CACTVS_ROTATABLE_BOND>
8

> <PUBCHEM_CACTVS_SUBSKEYS>
AAADceB7oABAAAAAAAAAAAAAAAAAAWAAAAAwAAAAAAAAAAABwAAAHgQQAAAADAjFXgSz0ZLIEAisAyRidACC8KlhCjkJiLQ4ZJiIIKKgkZGEIAholwIIyCcQgIAOAAAAQAAAAAAAAACAAAAAAAAAAAAAAA==

> <PUBCHEM_IUPAC_OPENEYE_NAME>
1-[N'-[3-(2-aminothiazol-4-yl)phenyl]carbamimidoyl]-3-hexyl-urea

> <PUBCHEM_IUPAC_CAS_NAME>
1-[amino-[3-(2-amino-4-thiazolyl)phenyl]iminomethyl]-3-hexylurea

> <PUBCHEM_IUPAC_NAME_MARKUP>
1-[<I>N</I>&apos;-[3-(2-amino-1,3-thiazol-4-yl)phenyl]carbamimidoyl]-3-hexylurea

> <PUBCHEM_IUPAC_NAME>
1-[N'-[3-(2-amino-1,3-thiazol-4-yl)phenyl]carbamimidoyl]-3-hexylurea

> <PUBCHEM_IUPAC_SYSTEMATIC_NAME>
1-[N'-[3-(2-azanyl-1,3-thiazol-4-yl)phenyl]carbamimidoyl]-3-hexyl-urea

> <PUBCHEM_IUPAC_TRADITIONAL_NAME>
1-[N'-[3-(2-aminothiazol-4-yl)phenyl]amidino]-3-hexyl-urea

> <PUBCHEM_IUPAC_INCHI>
InChI=1S/C17H24N6OS/c1-2-3-4-5-9-20-17(24)23-15(18)21-13-8-6-7-12(10-13)14-11-25-16(19)22-14/h6-8,10-11H,2-5,9H2,1H3,(H2,19,22)(H4,18,20,21,23,24)

> <PUBCHEM_IUPAC_INCHIKEY>
LMIAIPKXPWLPGV-UHFFFAOYSA-N

> <PUBCHEM_XLOGP3_AA>
3.6

> <PUBCHEM_EXACT_MASS>
360.17323058

> <PUBCHEM_MOLECULAR_FORMULA>
C17H24N6OS

> <PUBCHEM_MOLECULAR_WEIGHT>
360.5

> <PUBCHEM_OPENEYE_CAN_SMILES>
CCCCCCNC(=O)NC(=NC1=CC=CC(=C1)C2=CSC(=N2)N)N

> <PUBCHEM_OPENEYE_ISO_SMILES>
CCCCCCNC(=O)NC(=NC1=CC=CC(=C1)C2=CSC(=N2)N)N

> <PUBCHEM_CACTVS_TPSA>
147

> <PUBCHEM_MONOISOTOPIC_WEIGHT>
360.17323058

> <PUBCHEM_TOTAL_CHARGE>
0

> <PUBCHEM_HEAVY_ATOM_COUNT>
25

> <PUBCHEM_ATOM_DEF_STEREO_COUNT>
0

> <PUBCHEM_ATOM_UDEF_STEREO_COUNT>
0

> <PUBCHEM_BOND_DEF_STEREO_COUNT>
0

> <PUBCHEM_BOND_UDEF_STEREO_COUNT>
0

> <PUBCHEM_ISOTOPIC_ATOM_COUNT>
0

> <PUBCHEM_COMPONENT_COUNT>
1

> <PUBCHEM_CACTVS_TAUTO_COUNT>
-1

> <PUBCHEM_COORDINATE_TYPE>
1
5
255

> <PUBCHEM_BONDANNOTATIONS>
1  24  8
1  25  8
16  18  8
16  21  8
17  18  8
17  22  8
20  24  8
21  23  8
22  23  8
6  20  8
6  25  8

$$$$
