164615396
  -OEChem-09292322432D

 51 52  0     1  0  0  0  0  0999 V2000
    6.0010   -2.6012    0.0000 Cl  0  0  0  0  0  0  0  0  0  0  0  0
    3.4030    0.8988    0.0000 O   0  0  0  0  0  0  0  0  0  0  0  0
    6.0010   -0.6012    0.0000 O   0  0  0  0  0  0  0  0  0  0  0  0
    2.5369   -0.6012    0.0000 O   0  0  0  0  0  0  0  0  0  0  0  0
    7.5837    2.7352    0.0000 N   0  0  3  0  0  0  0  0  0  0  0  0
    5.1350    0.8988    0.0000 N   0  0  0  0  0  0  0  0  0  0  0  0
    6.0010    2.3988    0.0000 C   0  0  3  0  0  0  0  0  0  0  0  0
    6.1056    3.3933    0.0000 C   0  0  0  0  0  0  0  0  0  0  0  0
    6.9146    1.9920    0.0000 C   0  0  0  0  0  0  0  0  0  0  0  0
    7.0837    3.6012    0.0000 C   0  0  0  0  0  0  0  0  0  0  0  0
    5.1350    1.8988    0.0000 C   0  0  0  0  0  0  0  0  0  0  0  0
    8.5782    2.6307    0.0000 C   0  0  0  0  0  0  0  0  0  0  0  0
    9.1660    3.4397    0.0000 C   0  0  0  0  0  0  0  0  0  0  0  0
   10.1605    3.3352    0.0000 C   0  0  0  0  0  0  0  0  0  0  0  0
    4.2690    0.3988    0.0000 C   0  0  0  0  0  0  0  0  0  0  0  0
    4.2690   -0.6012    0.0000 C   0  0  0  0  0  0  0  0  0  0  0  0
    3.4030   -1.1012    0.0000 C   0  0  0  0  0  0  0  0  0  0  0  0
    5.1350   -1.1012    0.0000 C   0  0  0  0  0  0  0  0  0  0  0  0
    3.4030   -2.1012    0.0000 C   0  0  0  0  0  0  0  0  0  0  0  0
    5.1350   -2.1012    0.0000 C   0  0  0  0  0  0  0  0  0  0  0  0
    2.5369   -2.6012    0.0000 C   0  0  0  0  0  0  0  0  0  0  0  0
    4.2690   -2.6012    0.0000 C   0  0  0  0  0  0  0  0  0  0  0  0
    2.5369   -3.6012    0.0000 C   0  0  0  0  0  0  0  0  0  0  0  0
    6.8671   -1.1012    0.0000 C   0  0  0  0  0  0  0  0  0  0  0  0
    5.4811    2.7365    0.0000 H   0  0  0  0  0  0  0  0  0  0  0  0
    6.6046    1.4551    0.0000 H   0  0  0  0  0  0  0  0  0  0  0  0
    7.4162    1.6276    0.0000 H   0  0  0  0  0  0  0  0  0  0  0  0
    6.0408    4.0099    0.0000 H   0  0  0  0  0  0  0  0  0  0  0  0
    5.4856    3.3933    0.0000 H   0  0  0  0  0  0  0  0  0  0  0  0
    7.6501    3.8534    0.0000 H   0  0  0  0  0  0  0  0  0  0  0  0
    6.8921    4.1909    0.0000 H   0  0  0  0  0  0  0  0  0  0  0  0
    4.9230    2.4814    0.0000 H   0  0  0  0  0  0  0  0  0  0  0  0
    4.5244    1.7911    0.0000 H   0  0  0  0  0  0  0  0  0  0  0  0
    8.4073    2.0347    0.0000 H   0  0  0  0  0  0  0  0  0  0  0  0
    9.1355    2.3589    0.0000 H   0  0  0  0  0  0  0  0  0  0  0  0
    9.3369    4.0357    0.0000 H   0  0  0  0  0  0  0  0  0  0  0  0
    8.6088    3.7115    0.0000 H   0  0  0  0  0  0  0  0  0  0  0  0
    5.6720    0.5888    0.0000 H   0  0  0  0  0  0  0  0  0  0  0  0
   10.0957    2.7186    0.0000 H   0  0  0  0  0  0  0  0  0  0  0  0
   10.7771    3.2703    0.0000 H   0  0  0  0  0  0  0  0  0  0  0  0
   10.2254    3.9518    0.0000 H   0  0  0  0  0  0  0  0  0  0  0  0
    2.3249   -2.0186    0.0000 H   0  0  0  0  0  0  0  0  0  0  0  0
    1.9264   -2.7089    0.0000 H   0  0  0  0  0  0  0  0  0  0  0  0
    4.2690   -3.2212    0.0000 H   0  0  0  0  0  0  0  0  0  0  0  0
    1.9169   -3.6012    0.0000 H   0  0  0  0  0  0  0  0  0  0  0  0
    2.5369   -4.2212    0.0000 H   0  0  0  0  0  0  0  0  0  0  0  0
    3.1569   -3.6012    0.0000 H   0  0  0  0  0  0  0  0  0  0  0  0
    2.0000   -0.9112    0.0000 H   0  0  0  0  0  0  0  0  0  0  0  0
    6.5571   -1.6382    0.0000 H   0  0  0  0  0  0  0  0  0  0  0  0
    7.4040   -1.4112    0.0000 H   0  0  0  0  0  0  0  0  0  0  0  0
    7.1771   -0.5643    0.0000 H   0  0  0  0  0  0  0  0  0  0  0  0
  1 20  1  0  0  0  0
  2 15  2  0  0  0  0
  3 18  1  0  0  0  0
  3 24  1  0  0  0  0
  4 17  1  0  0  0  0
  4 48  1  0  0  0  0
  5  9  1  0  0  0  0
  5 10  1  0  0  0  0
  5 12  1  0  0  0  0
  6 11  1  0  0  0  0
  6 15  1  0  0  0  0
  6 38  1  0  0  0  0
  7  8  1  0  0  0  0
  7  9  1  0  0  0  0
  7 11  1  0  0  0  0
  7 25  1  0  0  0  0
  8 10  1  0  0  0  0
  8 28  1  0  0  0  0
  8 29  1  0  0  0  0
  9 26  1  0  0  0  0
  9 27  1  0  0  0  0
 10 30  1  0  0  0  0
 10 31  1  0  0  0  0
 11 32  1  0  0  0  0
 11 33  1  0  0  0  0
 12 13  1  0  0  0  0
 12 34  1  0  0  0  0
 12 35  1  0  0  0  0
 13 14  1  0  0  0  0
 13 36  1  0  0  0  0
 13 37  1  0  0  0  0
 14 39  1  0  0  0  0
 14 40  1  0  0  0  0
 14 41  1  0  0  0  0
 15 16  1  0  0  0  0
 16 17  2  0  0  0  0
 16 18  1  0  0  0  0
 17 19  1  0  0  0  0
 18 20  2  0  0  0  0
 19 21  1  0  0  0  0
 19 22  2  0  0  0  0
 20 22  1  0  0  0  0
 21 23  1  0  0  0  0
 21 42  1  0  0  0  0
 21 43  1  0  0  0  0
 22 44  1  0  0  0  0
 23 45  1  0  0  0  0
 23 46  1  0  0  0  0
 23 47  1  0  0  0  0
 24 49  1  0  0  0  0
 24 50  1  0  0  0  0
 24 51  1  0  0  0  0
M  END
> <PUBCHEM_COMPOUND_CID>
164615396

> <PUBCHEM_COMPOUND_CANONICALIZED>
1

> <PUBCHEM_CACTVS_COMPLEXITY>
410

> <PUBCHEM_CACTVS_HBOND_ACCEPTOR>
4

> <PUBCHEM_CACTVS_HBOND_DONOR>
2

> <PUBCHEM_CACTVS_ROTATABLE_BOND>
7

> <PUBCHEM_CACTVS_SUBSKEYS>
AAADceB7MAAEAAAAAAAAAAAAAAAAAWAAAAAwAAAAAAAAAAABAAAAHgIQCAAADQbBmCYyBoPABgCIAiFSEACCCAAkJUAAiIEMD8gMJzeH9xuEcWhn9hWIuQeY6OyOICACKAAICABAQARQABAQAAAAAAAAAA==

> <PUBCHEM_IUPAC_OPENEYE_NAME>
5-chloro-3-ethyl-2-hydroxy-6-methoxy-N-[(1-propylpyrrolidin-3-yl)methyl]benzamide

> <PUBCHEM_IUPAC_CAS_NAME>
5-chloro-3-ethyl-2-hydroxy-6-methoxy-N-[(1-propyl-3-pyrrolidinyl)methyl]benzamide

> <PUBCHEM_IUPAC_NAME_MARKUP>
5-chloro-3-ethyl-2-hydroxy-6-methoxy-<I>N</I>-[(1-propylpyrrolidin-3-yl)methyl]benzamide

> <PUBCHEM_IUPAC_NAME>
5-chloro-3-ethyl-2-hydroxy-6-methoxy-N-[(1-propylpyrrolidin-3-yl)methyl]benzamide

> <PUBCHEM_IUPAC_SYSTEMATIC_NAME>
3-chloranyl-5-ethyl-2-methoxy-6-oxidanyl-N-[(1-propylpyrrolidin-3-yl)methyl]benzamide

> <PUBCHEM_IUPAC_TRADITIONAL_NAME>
5-chloro-3-ethyl-2-hydroxy-6-methoxy-N-[(1-propylpyrrolidin-3-yl)methyl]benzamide

> <PUBCHEM_IUPAC_INCHI>
InChI=1S/C18H27ClN2O3/c1-4-7-21-8-6-12(11-21)10-20-18(23)15-16(22)13(5-2)9-14(19)17(15)24-3/h9,12,22H,4-8,10-11H2,1-3H3,(H,20,23)

> <PUBCHEM_IUPAC_INCHIKEY>
JNMQWDIMZMNVJB-UHFFFAOYSA-N

> <PUBCHEM_XLOGP3_AA>
4.1

> <PUBCHEM_EXACT_MASS>
354.1710204

> <PUBCHEM_MOLECULAR_FORMULA>
C18H27ClN2O3

> <PUBCHEM_MOLECULAR_WEIGHT>
354.9

> <PUBCHEM_OPENEYE_CAN_SMILES>
CCCN1CCC(C1)CNC(=O)C2=C(C(=CC(=C2OC)Cl)CC)O

> <PUBCHEM_OPENEYE_ISO_SMILES>
CCCN1CCC(C1)CNC(=O)C2=C(C(=CC(=C2OC)Cl)CC)O

> <PUBCHEM_CACTVS_TPSA>
61.8

> <PUBCHEM_MONOISOTOPIC_WEIGHT>
354.1710204

> <PUBCHEM_TOTAL_CHARGE>
0

> <PUBCHEM_HEAVY_ATOM_COUNT>
24

> <PUBCHEM_ATOM_DEF_STEREO_COUNT>
0

> <PUBCHEM_ATOM_UDEF_STEREO_COUNT>
1

> <PUBCHEM_BOND_DEF_STEREO_COUNT>
0

> <PUBCHEM_BOND_UDEF_STEREO_COUNT>
0

> <PUBCHEM_ISOTOPIC_ATOM_COUNT>
0

> <PUBCHEM_COMPONENT_COUNT>
1

> <PUBCHEM_CACTVS_TAUTO_COUNT>
-1

> <PUBCHEM_COORDINATE_TYPE>
1
5
255

> <PUBCHEM_BONDANNOTATIONS>
16  17  8
16  18  8
17  19  8
18  20  8
19  22  8
20  22  8
7  11  3

$$$$
