22403029
  -OEChem-09292322202D

 54 56  0     1  0  0  0  0  0999 V2000
    7.2156   -2.7852    0.0000 S   0  0  0  0  0  0  0  0  0  0  0  0
    3.7515   -0.7852    0.0000 O   0  0  0  0  0  0  0  0  0  0  0  0
    6.7156   -3.6512    0.0000 O   0  0  0  0  0  0  0  0  0  0  0  0
    7.7156   -1.9192    0.0000 O   0  0  0  0  0  0  0  0  0  0  0  0
    3.4013    2.4581    0.0000 N   0  0  3  0  0  0  0  0  0  0  0  0
    4.6746    0.8026    0.0000 N   0  0  0  0  0  0  0  0  0  0  0  0
    4.3958    2.5626    0.0000 C   0  0  3  0  0  0  0  0  0  0  0  0
    4.8025    3.4762    0.0000 C   0  0  0  0  0  0  0  0  0  0  0  0
    4.2147    4.2852    0.0000 C   0  0  0  0  0  0  0  0  0  0  0  0
    2.8135    3.2671    0.0000 C   0  0  0  0  0  0  0  0  0  0  0  0
    3.2202    4.1807    0.0000 C   0  0  0  0  0  0  0  0  0  0  0  0
    4.9836    1.7536    0.0000 C   0  0  0  0  0  0  0  0  0  0  0  0
    2.9945    1.5446    0.0000 C   0  0  0  0  0  0  0  0  0  0  0  0
    5.9836    1.7536    0.0000 C   0  0  0  0  0  0  0  0  0  0  0  0
    5.4836    0.2148    0.0000 C   0  0  0  0  0  0  0  0  0  0  0  0
    2.0000    1.4400    0.0000 C   0  0  0  0  0  0  0  0  0  0  0  0
    6.2926    0.8026    0.0000 C   0  0  0  0  0  0  0  0  0  0  0  0
    5.4836   -0.7852    0.0000 C   0  0  0  0  0  0  0  0  0  0  0  0
    6.3496   -1.2852    0.0000 C   0  0  0  0  0  0  0  0  0  0  0  0
    4.6175   -1.2852    0.0000 C   0  0  0  0  0  0  0  0  0  0  0  0
    6.3496   -2.2852    0.0000 C   0  0  0  0  0  0  0  0  0  0  0  0
    4.6175   -2.2852    0.0000 C   0  0  0  0  0  0  0  0  0  0  0  0
    5.4836   -2.7852    0.0000 C   0  0  0  0  0  0  0  0  0  0  0  0
    8.0816   -3.2852    0.0000 C   0  0  0  0  0  0  0  0  0  0  0  0
    8.0816   -4.2852    0.0000 C   0  0  0  0  0  0  0  0  0  0  0  0
    2.8855   -1.2852    0.0000 C   0  0  0  0  0  0  0  0  0  0  0  0
    5.0124    2.6275    0.0000 H   0  0  0  0  0  0  0  0  0  0  0  0
    5.3165    3.1295    0.0000 H   0  0  0  0  0  0  0  0  0  0  0  0
    5.2332    3.9222    0.0000 H   0  0  0  0  0  0  0  0  0  0  0  0
    4.7720    4.5570    0.0000 H   0  0  0  0  0  0  0  0  0  0  0  0
    4.0438    4.8812    0.0000 H   0  0  0  0  0  0  0  0  0  0  0  0
    2.2995    3.6138    0.0000 H   0  0  0  0  0  0  0  0  0  0  0  0
    2.3828    2.8212    0.0000 H   0  0  0  0  0  0  0  0  0  0  0  0
    3.2635    4.7992    0.0000 H   0  0  0  0  0  0  0  0  0  0  0  0
    2.6186    4.3307    0.0000 H   0  0  0  0  0  0  0  0  0  0  0  0
    2.9513    0.9261    0.0000 H   0  0  0  0  0  0  0  0  0  0  0  0
    3.5961    1.3946    0.0000 H   0  0  0  0  0  0  0  0  0  0  0  0
    4.0849    0.6110    0.0000 H   0  0  0  0  0  0  0  0  0  0  0  0
    6.3480    2.2552    0.0000 H   0  0  0  0  0  0  0  0  0  0  0  0
    1.9352    2.0566    0.0000 H   0  0  0  0  0  0  0  0  0  0  0  0
    1.3834    1.3752    0.0000 H   0  0  0  0  0  0  0  0  0  0  0  0
    2.0648    0.8234    0.0000 H   0  0  0  0  0  0  0  0  0  0  0  0
    6.8822    0.6110    0.0000 H   0  0  0  0  0  0  0  0  0  0  0  0
    6.8865   -0.9752    0.0000 H   0  0  0  0  0  0  0  0  0  0  0  0
    4.0806   -2.5952    0.0000 H   0  0  0  0  0  0  0  0  0  0  0  0
    5.4836   -3.4052    0.0000 H   0  0  0  0  0  0  0  0  0  0  0  0
    8.6922   -3.3929    0.0000 H   0  0  0  0  0  0  0  0  0  0  0  0
    8.2937   -2.7026    0.0000 H   0  0  0  0  0  0  0  0  0  0  0  0
    7.4616   -4.2852    0.0000 H   0  0  0  0  0  0  0  0  0  0  0  0
    8.0816   -4.9052    0.0000 H   0  0  0  0  0  0  0  0  0  0  0  0
    8.7016   -4.2852    0.0000 H   0  0  0  0  0  0  0  0  0  0  0  0
    2.5755   -0.7483    0.0000 H   0  0  0  0  0  0  0  0  0  0  0  0
    2.3486   -1.5952    0.0000 H   0  0  0  0  0  0  0  0  0  0  0  0
    3.1955   -1.8222    0.0000 H   0  0  0  0  0  0  0  0  0  0  0  0
  1  3  2  0  0  0  0
  1  4  2  0  0  0  0
  1 21  1  0  0  0  0
  1 24  1  0  0  0  0
  2 20  1  0  0  0  0
  2 26  1  0  0  0  0
  5  7  1  0  0  0  0
  5 10  1  0  0  0  0
  5 13  1  0  0  0  0
  6 12  1  0  0  0  0
  6 15  1  0  0  0  0
  6 38  1  0  0  0  0
  7  8  1  0  0  0  0
  7 12  1  0  0  0  0
  7 27  1  0  0  0  0
  8  9  1  0  0  0  0
  8 28  1  0  0  0  0
  8 29  1  0  0  0  0
  9 11  1  0  0  0  0
  9 30  1  0  0  0  0
  9 31  1  0  0  0  0
 10 11  1  0  0  0  0
 10 32  1  0  0  0  0
 10 33  1  0  0  0  0
 11 34  1  0  0  0  0
 11 35  1  0  0  0  0
 12 14  2  0  0  0  0
 13 16  1  0  0  0  0
 13 36  1  0  0  0  0
 13 37  1  0  0  0  0
 14 17  1  0  0  0  0
 14 39  1  0  0  0  0
 15 17  2  0  0  0  0
 15 18  1  0  0  0  0
 16 40  1  0  0  0  0
 16 41  1  0  0  0  0
 16 42  1  0  0  0  0
 17 43  1  0  0  0  0
 18 19  1  0  0  0  0
 18 20  2  0  0  0  0
 19 21  2  0  0  0  0
 19 44  1  0  0  0  0
 20 22  1  0  0  0  0
 21 23  1  0  0  0  0
 22 23  2  0  0  0  0
 22 45  1  0  0  0  0
 23 46  1  0  0  0  0
 24 25  1  0  0  0  0
 24 47  1  0  0  0  0
 24 48  1  0  0  0  0
 25 49  1  0  0  0  0
 25 50  1  0  0  0  0
 25 51  1  0  0  0  0
 26 52  1  0  0  0  0
 26 53  1  0  0  0  0
 26 54  1  0  0  0  0
M  END
> <PUBCHEM_COMPOUND_CID>
22403029

> <PUBCHEM_COMPOUND_CANONICALIZED>
1

> <PUBCHEM_CACTVS_COMPLEXITY>
548

> <PUBCHEM_CACTVS_HBOND_ACCEPTOR>
4

> <PUBCHEM_CACTVS_HBOND_DONOR>
1

> <PUBCHEM_CACTVS_ROTATABLE_BOND>
6

> <PUBCHEM_CACTVS_SUBSKEYS>
AAADceB7MABAAAAAAAAAAAAAAAAAAWAAAAA8QAAAAAAAAAABwAAAHgQQAAAADCzF3gayh5PJlAqgAyRiRHDCiCAhKjAImTg+bJgMZuLksZuUMChm0BHo6AeQwOAOAIAAgAAIAAABAAEAABAAAAAAAAAAAA==

> <PUBCHEM_IUPAC_OPENEYE_NAME>
1-ethyl-2-[5-(5-ethylsulfonyl-2-methoxy-phenyl)-1H-pyrrol-2-yl]piperidine

> <PUBCHEM_IUPAC_CAS_NAME>
1-ethyl-2-[5-(5-ethylsulfonyl-2-methoxyphenyl)-1H-pyrrol-2-yl]piperidine

> <PUBCHEM_IUPAC_NAME_MARKUP>
1-ethyl-2-[5-(5-ethylsulfonyl-2-methoxyphenyl)-1<I>H</I>-pyrrol-2-yl]piperidine

> <PUBCHEM_IUPAC_NAME>
1-ethyl-2-[5-(5-ethylsulfonyl-2-methoxyphenyl)-1H-pyrrol-2-yl]piperidine

> <PUBCHEM_IUPAC_SYSTEMATIC_NAME>
1-ethyl-2-[5-(5-ethylsulfonyl-2-methoxy-phenyl)-1H-pyrrol-2-yl]piperidine

> <PUBCHEM_IUPAC_TRADITIONAL_NAME>
2-[5-(5-esyl-2-methoxy-phenyl)-1H-pyrrol-2-yl]-1-ethyl-piperidine

> <PUBCHEM_IUPAC_INCHI>
InChI=1S/C20H28N2O3S/c1-4-22-13-7-6-8-19(22)18-11-10-17(21-18)16-14-15(26(23,24)5-2)9-12-20(16)25-3/h9-12,14,19,21H,4-8,13H2,1-3H3

> <PUBCHEM_IUPAC_INCHIKEY>
RWJCXWVQRSSDLR-UHFFFAOYSA-N

> <PUBCHEM_XLOGP3_AA>
3.1

> <PUBCHEM_EXACT_MASS>
376.18206393

> <PUBCHEM_MOLECULAR_FORMULA>
C20H28N2O3S

> <PUBCHEM_MOLECULAR_WEIGHT>
376.5

> <PUBCHEM_OPENEYE_CAN_SMILES>
CCN1CCCCC1C2=CC=C(N2)C3=C(C=CC(=C3)S(=O)(=O)CC)OC

> <PUBCHEM_OPENEYE_ISO_SMILES>
CCN1CCCCC1C2=CC=C(N2)C3=C(C=CC(=C3)S(=O)(=O)CC)OC

> <PUBCHEM_CACTVS_TPSA>
70.8

> <PUBCHEM_MONOISOTOPIC_WEIGHT>
376.18206393

> <PUBCHEM_TOTAL_CHARGE>
0

> <PUBCHEM_HEAVY_ATOM_COUNT>
26

> <PUBCHEM_ATOM_DEF_STEREO_COUNT>
0

> <PUBCHEM_ATOM_UDEF_STEREO_COUNT>
1

> <PUBCHEM_BOND_DEF_STEREO_COUNT>
0

> <PUBCHEM_BOND_UDEF_STEREO_COUNT>
0

> <PUBCHEM_ISOTOPIC_ATOM_COUNT>
0

> <PUBCHEM_COMPONENT_COUNT>
1

> <PUBCHEM_CACTVS_TAUTO_COUNT>
-1

> <PUBCHEM_COORDINATE_TYPE>
1
5
255

> <PUBCHEM_BONDANNOTATIONS>
12  14  8
14  17  8
15  17  8
18  19  8
18  20  8
19  21  8
20  22  8
21  23  8
22  23  8
6  12  8
6  15  8
7  12  3

$$$$
