71152026
  -OEChem-09292322352D

 74 79  0     0  0  0  0  0  0999 V2000
    2.0000   -2.4791    0.0000 F   0  0  0  0  0  0  0  0  0  0  0  0
   15.0415   -0.9908    0.0000 O   0  0  0  0  0  0  0  0  0  0  0  0
   20.3037   -0.9666    0.0000 O   0  0  0  0  0  0  0  0  0  0  0  0
   10.7095   -0.5075    0.0000 N   0  0  0  0  0  0  0  0  0  0  0  0
    8.9736    0.4858    0.0000 N   0  0  0  0  0  0  0  0  0  0  0  0
    5.6392    0.3059    0.0000 N   0  0  0  0  0  0  0  0  0  0  0  0
   18.5716   -0.9666    0.0000 N   0  0  0  0  0  0  0  0  0  0  0  0
   10.7056    0.4925    0.0000 C   0  0  0  0  0  0  0  0  0  0  0  0
    9.8454   -1.0108    0.0000 C   0  0  0  0  0  0  0  0  0  0  0  0
    9.8377    0.9892    0.0000 C   0  0  0  0  0  0  0  0  0  0  0  0
    8.9774   -0.5142    0.0000 C   0  0  0  0  0  0  0  0  0  0  0  0
   11.5774   -1.0041    0.0000 C   0  0  0  0  0  0  0  0  0  0  0  0
    8.1056    0.9825    0.0000 C   0  0  0  0  0  0  0  0  0  0  0  0
   12.4415   -0.5008    0.0000 C   0  0  0  0  0  0  0  0  0  0  0  0
    7.2416    0.4792    0.0000 C   0  0  0  0  0  0  0  0  0  0  0  0
   13.3095   -0.9975    0.0000 C   0  0  0  0  0  0  0  0  0  0  0  0
    6.3736    0.9758    0.0000 C   0  0  0  0  0  0  0  0  0  0  0  0
    8.1018    1.9825    0.0000 C   0  0  0  0  0  0  0  0  0  0  0  0
    7.0361   -0.4935    0.0000 C   0  0  0  0  0  0  0  0  0  0  0  0
    6.3698    1.9758    0.0000 C   0  0  0  0  0  0  0  0  0  0  0  0
    6.0478   -0.6003    0.0000 C   0  0  0  0  0  0  0  0  0  0  0  0
   14.1736   -0.4941    0.0000 C   0  0  0  0  0  0  0  0  0  0  0  0
    7.2338    2.4791    0.0000 C   0  0  0  0  0  0  0  0  0  0  0  0
    4.6599    0.5083    0.0000 C   0  0  0  0  0  0  0  0  0  0  0  0
    3.9949   -0.2385    0.0000 C   0  0  0  0  0  0  0  0  0  0  0  0
   15.9056   -0.4875    0.0000 C   0  0  0  0  0  0  0  0  0  0  0  0
   17.7056    0.5334    0.0000 C   0  0  0  0  0  0  0  0  0  0  0  0
   17.7056   -0.4666    0.0000 C   0  0  0  0  0  0  0  0  0  0  0  0
   18.5716    1.0334    0.0000 C   0  0  0  0  0  0  0  0  0  0  0  0
   16.8117   -1.0013    0.0000 C   0  0  0  0  0  0  0  0  0  0  0  0
   19.4377    0.5334    0.0000 C   0  0  0  0  0  0  0  0  0  0  0  0
   15.9056    0.5542    0.0000 C   0  0  0  0  0  0  0  0  0  0  0  0
   16.8117    1.0680    0.0000 C   0  0  0  0  0  0  0  0  0  0  0  0
    4.3092   -1.1878    0.0000 C   0  0  0  0  0  0  0  0  0  0  0  0
    3.0156   -0.0361    0.0000 C   0  0  0  0  0  0  0  0  0  0  0  0
   19.4377   -0.4666    0.0000 C   0  0  0  0  0  0  0  0  0  0  0  0
    3.6443   -1.9347    0.0000 C   0  0  0  0  0  0  0  0  0  0  0  0
    2.3506   -0.7830    0.0000 C   0  0  0  0  0  0  0  0  0  0  0  0
    2.6650   -1.7323    0.0000 C   0  0  0  0  0  0  0  0  0  0  0  0
   11.3166    0.3872    0.0000 H   0  0  0  0  0  0  0  0  0  0  0  0
   10.9154    1.0759    0.0000 H   0  0  0  0  0  0  0  0  0  0  0  0
    9.4487   -1.4873    0.0000 H   0  0  0  0  0  0  0  0  0  0  0  0
   10.2458   -1.4842    0.0000 H   0  0  0  0  0  0  0  0  0  0  0  0
   10.2344    1.4656    0.0000 H   0  0  0  0  0  0  0  0  0  0  0  0
    9.4373    1.4626    0.0000 H   0  0  0  0  0  0  0  0  0  0  0  0
    8.3665   -0.4089    0.0000 H   0  0  0  0  0  0  0  0  0  0  0  0
    8.7676   -1.0976    0.0000 H   0  0  0  0  0  0  0  0  0  0  0  0
   11.1807   -1.4806    0.0000 H   0  0  0  0  0  0  0  0  0  0  0  0
   11.9778   -1.4776    0.0000 H   0  0  0  0  0  0  0  0  0  0  0  0
   12.8382   -0.0243    0.0000 H   0  0  0  0  0  0  0  0  0  0  0  0
   12.0412   -0.0274    0.0000 H   0  0  0  0  0  0  0  0  0  0  0  0
   12.9128   -1.4740    0.0000 H   0  0  0  0  0  0  0  0  0  0  0  0
   13.7098   -1.4709    0.0000 H   0  0  0  0  0  0  0  0  0  0  0  0
    8.6375    2.2946    0.0000 H   0  0  0  0  0  0  0  0  0  0  0  0
    7.4519   -0.9533    0.0000 H   0  0  0  0  0  0  0  0  0  0  0  0
    5.8316    2.2837    0.0000 H   0  0  0  0  0  0  0  0  0  0  0  0
    5.7398   -1.1384    0.0000 H   0  0  0  0  0  0  0  0  0  0  0  0
   14.5703   -0.0177    0.0000 H   0  0  0  0  0  0  0  0  0  0  0  0
   13.7732   -0.0207    0.0000 H   0  0  0  0  0  0  0  0  0  0  0  0
    7.2315    3.0991    0.0000 H   0  0  0  0  0  0  0  0  0  0  0  0
    4.8889    1.0845    0.0000 H   0  0  0  0  0  0  0  0  0  0  0  0
    4.1323    0.8339    0.0000 H   0  0  0  0  0  0  0  0  0  0  0  0
   18.9702    1.5083    0.0000 H   0  0  0  0  0  0  0  0  0  0  0  0
   18.1731    1.5083    0.0000 H   0  0  0  0  0  0  0  0  0  0  0  0
   16.8188   -1.6213    0.0000 H   0  0  0  0  0  0  0  0  0  0  0  0
   20.0482    0.4257    0.0000 H   0  0  0  0  0  0  0  0  0  0  0  0
   19.6497    1.1160    0.0000 H   0  0  0  0  0  0  0  0  0  0  0  0
   15.3699    0.8662    0.0000 H   0  0  0  0  0  0  0  0  0  0  0  0
   16.8188    1.6880    0.0000 H   0  0  0  0  0  0  0  0  0  0  0  0
    4.9164   -1.3134    0.0000 H   0  0  0  0  0  0  0  0  0  0  0  0
    2.8207    0.5525    0.0000 H   0  0  0  0  0  0  0  0  0  0  0  0
   18.5716   -1.5866    0.0000 H   0  0  0  0  0  0  0  0  0  0  0  0
    3.8391   -2.5233    0.0000 H   0  0  0  0  0  0  0  0  0  0  0  0
    1.7435   -0.6574    0.0000 H   0  0  0  0  0  0  0  0  0  0  0  0
  1 39  1  0  0  0  0
  2 22  1  0  0  0  0
  2 26  1  0  0  0  0
  3 36  2  0  0  0  0
  4  8  1  0  0  0  0
  4  9  1  0  0  0  0
  4 12  1  0  0  0  0
  5 10  1  0  0  0  0
  5 11  1  0  0  0  0
  5 13  1  0  0  0  0
  6 17  1  0  0  0  0
  6 21  1  0  0  0  0
  6 24  1  0  0  0  0
  7 28  1  0  0  0  0
  7 36  1  0  0  0  0
  7 72  1  0  0  0  0
  8 10  1  0  0  0  0
  8 40  1  0  0  0  0
  8 41  1  0  0  0  0
  9 11  1  0  0  0  0
  9 42  1  0  0  0  0
  9 43  1  0  0  0  0
 10 44  1  0  0  0  0
 10 45  1  0  0  0  0
 11 46  1  0  0  0  0
 11 47  1  0  0  0  0
 12 14  1  0  0  0  0
 12 48  1  0  0  0  0
 12 49  1  0  0  0  0
 13 15  1  0  0  0  0
 13 18  2  0  0  0  0
 14 16  1  0  0  0  0
 14 50  1  0  0  0  0
 14 51  1  0  0  0  0
 15 17  2  0  0  0  0
 15 19  1  0  0  0  0
 16 22  1  0  0  0  0
 16 52  1  0  0  0  0
 16 53  1  0  0  0  0
 17 20  1  0  0  0  0
 18 23  1  0  0  0  0
 18 54  1  0  0  0  0
 19 21  2  0  0  0  0
 19 55  1  0  0  0  0
 20 23  2  0  0  0  0
 20 56  1  0  0  0  0
 21 57  1  0  0  0  0
 22 58  1  0  0  0  0
 22 59  1  0  0  0  0
 23 60  1  0  0  0  0
 24 25  1  0  0  0  0
 24 61  1  0  0  0  0
 24 62  1  0  0  0  0
 25 34  2  0  0  0  0
 25 35  1  0  0  0  0
 26 30  2  0  0  0  0
 26 32  1  0  0  0  0
 27 28  2  0  0  0  0
 27 29  1  0  0  0  0
 27 33  1  0  0  0  0
 28 30  1  0  0  0  0
 29 31  1  0  0  0  0
 29 63  1  0  0  0  0
 29 64  1  0  0  0  0
 30 65  1  0  0  0  0
 31 36  1  0  0  0  0
 31 66  1  0  0  0  0
 31 67  1  0  0  0  0
 32 33  2  0  0  0  0
 32 68  1  0  0  0  0
 33 69  1  0  0  0  0
 34 37  1  0  0  0  0
 34 70  1  0  0  0  0
 35 38  2  0  0  0  0
 35 71  1  0  0  0  0
 37 39  2  0  0  0  0
 37 73  1  0  0  0  0
 38 39  1  0  0  0  0
 38 74  1  0  0  0  0
M  END
> <PUBCHEM_COMPOUND_CID>
71152026

> <PUBCHEM_COMPOUND_CANONICALIZED>
1

> <PUBCHEM_CACTVS_COMPLEXITY>
784

> <PUBCHEM_CACTVS_HBOND_ACCEPTOR>
5

> <PUBCHEM_CACTVS_HBOND_DONOR>
1

> <PUBCHEM_CACTVS_ROTATABLE_BOND>
9

> <PUBCHEM_CACTVS_SUBSKEYS>
AAADcfB/sQAAAAAAAAAAAAAAAAAAAWAAAAA8eMECAAAAAFix9AAAHwAQAAAADAzhng48xvPMFACoAzV3VACCiCAxIiAI2CE+bJgMZvLE8duWPCjm1BnI6Ae42aOeIAAAAgQCAABAAAAECAQAAAAAAAAAAA==

> <PUBCHEM_IUPAC_OPENEYE_NAME>
7-[4-[4-[1-[(4-fluorophenyl)methyl]indol-4-yl]piperazin-1-yl]butoxy]-3,4-dihydro-1H-quinolin-2-one

> <PUBCHEM_IUPAC_CAS_NAME>
7-[4-[4-[1-[(4-fluorophenyl)methyl]-4-indolyl]-1-piperazinyl]butoxy]-3,4-dihydro-1H-quinolin-2-one

> <PUBCHEM_IUPAC_NAME_MARKUP>
7-[4-[4-[1-[(4-fluorophenyl)methyl]indol-4-yl]piperazin-1-yl]butoxy]-3,4-dihydro-1<I>H</I>-quinolin-2-one

> <PUBCHEM_IUPAC_NAME>
7-[4-[4-[1-[(4-fluorophenyl)methyl]indol-4-yl]piperazin-1-yl]butoxy]-3,4-dihydro-1H-quinolin-2-one

> <PUBCHEM_IUPAC_SYSTEMATIC_NAME>
7-[4-[4-[1-[(4-fluorophenyl)methyl]indol-4-yl]piperazin-1-yl]butoxy]-3,4-dihydro-1H-quinolin-2-one

> <PUBCHEM_IUPAC_TRADITIONAL_NAME>
7-[4-[4-[1-(4-fluorobenzyl)indol-4-yl]piperazino]butoxy]-3,4-dihydrocarbostyril

> <PUBCHEM_IUPAC_INCHI>
InChI=1S/C32H35FN4O2/c33-26-10-6-24(7-11-26)23-37-16-14-28-30(4-3-5-31(28)37)36-19-17-35(18-20-36)15-1-2-21-39-27-12-8-25-9-13-32(38)34-29(25)22-27/h3-8,10-12,14,16,22H,1-2,9,13,15,17-21,23H2,(H,34,38)

> <PUBCHEM_IUPAC_INCHIKEY>
CCMLDGCVAGTXJF-UHFFFAOYSA-N

> <PUBCHEM_XLOGP3_AA>
5.2

> <PUBCHEM_EXACT_MASS>
526.27440453

> <PUBCHEM_MOLECULAR_FORMULA>
C32H35FN4O2

> <PUBCHEM_MOLECULAR_WEIGHT>
526.6

> <PUBCHEM_OPENEYE_CAN_SMILES>
C1CC(=O)NC2=C1C=CC(=C2)OCCCCN3CCN(CC3)C4=CC=CC5=C4C=CN5CC6=CC=C(C=C6)F

> <PUBCHEM_OPENEYE_ISO_SMILES>
C1CC(=O)NC2=C1C=CC(=C2)OCCCCN3CCN(CC3)C4=CC=CC5=C4C=CN5CC6=CC=C(C=C6)F

> <PUBCHEM_CACTVS_TPSA>
49.7

> <PUBCHEM_MONOISOTOPIC_WEIGHT>
526.27440453

> <PUBCHEM_TOTAL_CHARGE>
0

> <PUBCHEM_HEAVY_ATOM_COUNT>
39

> <PUBCHEM_ATOM_DEF_STEREO_COUNT>
0

> <PUBCHEM_ATOM_UDEF_STEREO_COUNT>
0

> <PUBCHEM_BOND_DEF_STEREO_COUNT>
0

> <PUBCHEM_BOND_UDEF_STEREO_COUNT>
0

> <PUBCHEM_ISOTOPIC_ATOM_COUNT>
0

> <PUBCHEM_COMPONENT_COUNT>
1

> <PUBCHEM_CACTVS_TAUTO_COUNT>
-1

> <PUBCHEM_COORDINATE_TYPE>
1
5
255

> <PUBCHEM_BONDANNOTATIONS>
13  15  8
13  18  8
15  17  8
15  19  8
17  20  8
18  23  8
19  21  8
20  23  8
25  34  8
25  35  8
26  30  8
26  32  8
27  28  8
27  33  8
28  30  8
32  33  8
34  37  8
35  38  8
37  39  8
38  39  8
6  17  8
6  21  8

$$$$
