15665516
  -OEChem-09292322142D

 69 73  0     1  0  0  0  0  0999 V2000
   10.3798   -1.5528    0.0000 O   0  0  0  0  0  0  0  0  0  0  0  0
   12.1719   -2.5874    0.0000 O   0  0  0  0  0  0  0  0  0  0  0  0
    6.5000   -4.4603    0.0000 O   0  0  0  0  0  0  0  0  0  0  0  0
   12.1381    0.4783    0.0000 N   0  0  0  0  0  0  0  0  0  0  0  0
    8.5836   -4.3990    0.0000 N   0  0  0  0  0  0  0  0  0  0  0  0
    6.5000   -2.7282    0.0000 N   0  0  0  0  0  0  0  0  0  0  0  0
   11.2778   -1.0250    0.0000 C   0  0  3  0  0  0  0  0  0  0  0  0
   11.2740   -0.0250    0.0000 C   0  0  0  0  0  0  0  0  0  0  0  0
   12.1799   -1.5458    0.0000 C   0  0  0  0  0  0  0  0  0  0  0  0
   10.3959   -2.5943    0.0000 C   0  0  0  0  0  0  0  0  0  0  0  0
    9.5298   -3.0943    0.0000 C   0  0  0  0  0  0  0  0  0  0  0  0
   11.2619   -3.0943    0.0000 C   0  0  0  0  0  0  0  0  0  0  0  0
    9.5298   -4.0943    0.0000 C   0  0  0  0  0  0  0  0  0  0  0  0
   12.1342    1.4783    0.0000 C   0  0  0  0  0  0  0  0  0  0  0  0
    8.5836   -2.7895    0.0000 C   0  0  0  0  0  0  0  0  0  0  0  0
   12.9983    1.9817    0.0000 C   0  0  0  0  0  0  0  0  0  0  0  0
    8.0000   -3.5943    0.0000 C   0  0  0  0  0  0  0  0  0  0  0  0
   11.2619   -4.0943    0.0000 C   0  0  0  0  0  0  0  0  0  0  0  0
   10.3959   -4.5943    0.0000 C   0  0  0  0  0  0  0  0  0  0  0  0
   12.9945    2.9816    0.0000 C   0  0  0  0  0  0  0  0  0  0  0  0
    7.0000   -3.5943    0.0000 C   0  0  0  0  0  0  0  0  0  0  0  0
    5.5000   -2.7282    0.0000 C   0  0  0  0  0  0  0  0  0  0  0  0
    5.0000   -1.8622    0.0000 C   0  0  0  0  0  0  0  0  0  0  0  0
   13.8585    3.4850    0.0000 C   0  0  0  0  0  0  0  0  0  0  0  0
    4.0000   -1.8622    0.0000 C   0  0  0  0  0  0  0  0  0  0  0  0
    3.5000   -0.9962    0.0000 C   0  0  0  0  0  0  0  0  0  0  0  0
   14.7265    2.9883    0.0000 C   0  0  0  0  0  0  0  0  0  0  0  0
   13.8547    4.4850    0.0000 C   0  0  0  0  0  0  0  0  0  0  0  0
   15.5906    3.4917    0.0000 C   0  0  0  0  0  0  0  0  0  0  0  0
   14.7188    4.9883    0.0000 C   0  0  0  0  0  0  0  0  0  0  0  0
    4.0000   -0.1302    0.0000 C   0  0  0  0  0  0  0  0  0  0  0  0
    2.5000   -0.9962    0.0000 C   0  0  0  0  0  0  0  0  0  0  0  0
   15.5867    4.4916    0.0000 C   0  0  0  0  0  0  0  0  0  0  0  0
    3.5000    0.7359    0.0000 C   0  0  0  0  0  0  0  0  0  0  0  0
    2.0000   -0.1302    0.0000 C   0  0  0  0  0  0  0  0  0  0  0  0
    2.5000    0.7359    0.0000 C   0  0  0  0  0  0  0  0  0  0  0  0
   10.7391   -0.7181    0.0000 H   0  0  0  0  0  0  0  0  0  0  0  0
   11.0597    0.5568    0.0000 H   0  0  0  0  0  0  0  0  0  0  0  0
   10.6638   -0.1350    0.0000 H   0  0  0  0  0  0  0  0  0  0  0  0
   12.7899   -1.6566    0.0000 H   0  0  0  0  0  0  0  0  0  0  0  0
   12.3935   -0.9637    0.0000 H   0  0  0  0  0  0  0  0  0  0  0  0
   12.6762    0.1704    0.0000 H   0  0  0  0  0  0  0  0  0  0  0  0
   11.9199    2.0601    0.0000 H   0  0  0  0  0  0  0  0  0  0  0  0
   11.5241    1.3683    0.0000 H   0  0  0  0  0  0  0  0  0  0  0  0
    8.3910   -2.2002    0.0000 H   0  0  0  0  0  0  0  0  0  0  0  0
   13.2126    1.3999    0.0000 H   0  0  0  0  0  0  0  0  0  0  0  0
   13.6085    2.0917    0.0000 H   0  0  0  0  0  0  0  0  0  0  0  0
   11.7988   -4.4043    0.0000 H   0  0  0  0  0  0  0  0  0  0  0  0
    8.3910   -4.9883    0.0000 H   0  0  0  0  0  0  0  0  0  0  0  0
   10.3959   -5.2143    0.0000 H   0  0  0  0  0  0  0  0  0  0  0  0
   12.7802    3.5634    0.0000 H   0  0  0  0  0  0  0  0  0  0  0  0
   12.3843    2.8716    0.0000 H   0  0  0  0  0  0  0  0  0  0  0  0
    4.9174   -2.9403    0.0000 H   0  0  0  0  0  0  0  0  0  0  0  0
    5.6077   -3.3388    0.0000 H   0  0  0  0  0  0  0  0  0  0  0  0
    5.5826   -1.6502    0.0000 H   0  0  0  0  0  0  0  0  0  0  0  0
    4.8923   -1.2516    0.0000 H   0  0  0  0  0  0  0  0  0  0  0  0
    6.8100   -2.1913    0.0000 H   0  0  0  0  0  0  0  0  0  0  0  0
    3.4174   -2.0743    0.0000 H   0  0  0  0  0  0  0  0  0  0  0  0
    4.1077   -2.4728    0.0000 H   0  0  0  0  0  0  0  0  0  0  0  0
   14.7289    2.3683    0.0000 H   0  0  0  0  0  0  0  0  0  0  0  0
   13.3166    4.7929    0.0000 H   0  0  0  0  0  0  0  0  0  0  0  0
   16.1287    3.1837    0.0000 H   0  0  0  0  0  0  0  0  0  0  0  0
   14.7164    5.6083    0.0000 H   0  0  0  0  0  0  0  0  0  0  0  0
    4.6200   -0.1302    0.0000 H   0  0  0  0  0  0  0  0  0  0  0  0
    2.1900   -1.5331    0.0000 H   0  0  0  0  0  0  0  0  0  0  0  0
   16.1225    4.8037    0.0000 H   0  0  0  0  0  0  0  0  0  0  0  0
    3.8100    1.2728    0.0000 H   0  0  0  0  0  0  0  0  0  0  0  0
    1.3800   -0.1302    0.0000 H   0  0  0  0  0  0  0  0  0  0  0  0
    2.1900    1.2728    0.0000 H   0  0  0  0  0  0  0  0  0  0  0  0
  1  7  1  0  0  0  0
  1 10  1  0  0  0  0
  2  9  1  0  0  0  0
  2 12  1  0  0  0  0
  3 21  2  0  0  0  0
  4  8  1  0  0  0  0
  4 14  1  0  0  0  0
  4 42  1  0  0  0  0
  5 13  1  0  0  0  0
  5 17  1  0  0  0  0
  5 49  1  0  0  0  0
  6 21  1  0  0  0  0
  6 22  1  0  0  0  0
  6 57  1  0  0  0  0
  7  8  1  0  0  0  0
  7  9  1  0  0  0  0
  7 37  1  0  0  0  0
  8 38  1  0  0  0  0
  8 39  1  0  0  0  0
  9 40  1  0  0  0  0
  9 41  1  0  0  0  0
 10 11  1  0  0  0  0
 10 12  2  0  0  0  0
 11 13  2  0  0  0  0
 11 15  1  0  0  0  0
 12 18  1  0  0  0  0
 13 19  1  0  0  0  0
 14 16  1  0  0  0  0
 14 43  1  0  0  0  0
 14 44  1  0  0  0  0
 15 17  2  0  0  0  0
 15 45  1  0  0  0  0
 16 20  1  0  0  0  0
 16 46  1  0  0  0  0
 16 47  1  0  0  0  0
 17 21  1  0  0  0  0
 18 19  2  0  0  0  0
 18 48  1  0  0  0  0
 19 50  1  0  0  0  0
 20 24  1  0  0  0  0
 20 51  1  0  0  0  0
 20 52  1  0  0  0  0
 22 23  1  0  0  0  0
 22 53  1  0  0  0  0
 22 54  1  0  0  0  0
 23 25  1  0  0  0  0
 23 55  1  0  0  0  0
 23 56  1  0  0  0  0
 24 27  2  0  0  0  0
 24 28  1  0  0  0  0
 25 26  1  0  0  0  0
 25 58  1  0  0  0  0
 25 59  1  0  0  0  0
 26 31  2  0  0  0  0
 26 32  1  0  0  0  0
 27 29  1  0  0  0  0
 27 60  1  0  0  0  0
 28 30  2  0  0  0  0
 28 61  1  0  0  0  0
 29 33  2  0  0  0  0
 29 62  1  0  0  0  0
 30 33  1  0  0  0  0
 30 63  1  0  0  0  0
 31 34  1  0  0  0  0
 31 64  1  0  0  0  0
 32 35  2  0  0  0  0
 32 65  1  0  0  0  0
 33 66  1  0  0  0  0
 34 36  2  0  0  0  0
 34 67  1  0  0  0  0
 35 36  1  0  0  0  0
 35 68  1  0  0  0  0
 36 69  1  0  0  0  0
M  END
> <PUBCHEM_COMPOUND_CID>
15665516

> <PUBCHEM_COMPOUND_CANONICALIZED>
1

> <PUBCHEM_CACTVS_COMPLEXITY>
664

> <PUBCHEM_CACTVS_HBOND_ACCEPTOR>
4

> <PUBCHEM_CACTVS_HBOND_DONOR>
3

> <PUBCHEM_CACTVS_ROTATABLE_BOND>
11

> <PUBCHEM_CACTVS_SUBSKEYS>
AAADcfB7MAAAAAAAAAAAAAAAAAAAAWAAAAA0YMEAAAAAAFiR9AAAHgAQAAAADBzhngYwxvLJlACoAyVyVACCiCAnIiAImaG+7NgPZvLEtbuXOSrm1hna6Ye43bPeAEABAgAKQAAAgAIEABSAAAAAAAAAAA==

> <PUBCHEM_IUPAC_OPENEYE_NAME>
N-(3-phenylpropyl)-2-[(3-phenylpropylamino)methyl]-3,7-dihydro-2H-[1,4]dioxino[2,3-e]indole-8-carboxamide

> <PUBCHEM_IUPAC_CAS_NAME>
N-(3-phenylpropyl)-2-[(3-phenylpropylamino)methyl]-3,7-dihydro-2H-[1,4]dioxino[2,3-e]indole-8-carboxamide

> <PUBCHEM_IUPAC_NAME_MARKUP>
<I>N</I>-(3-phenylpropyl)-2-[(3-phenylpropylamino)methyl]-3,7-dihydro-2<I>H</I>-[1,4]dioxino[2,3-e]indole-8-carboxamide

> <PUBCHEM_IUPAC_NAME>
N-(3-phenylpropyl)-2-[(3-phenylpropylamino)methyl]-3,7-dihydro-2H-[1,4]dioxino[2,3-e]indole-8-carboxamide

> <PUBCHEM_IUPAC_SYSTEMATIC_NAME>
N-(3-phenylpropyl)-2-[(3-phenylpropylamino)methyl]-3,7-dihydro-2H-[1,4]dioxino[2,3-e]indole-8-carboxamide

> <PUBCHEM_IUPAC_TRADITIONAL_NAME>
N-(3-phenylpropyl)-2-[(3-phenylpropylamino)methyl]-3,7-dihydro-2H-[1,4]dioxin[2,3-e]indole-8-carboxamide

> <PUBCHEM_IUPAC_INCHI>
InChI=1S/C30H33N3O3/c34-30(32-18-8-14-23-11-5-2-6-12-23)27-19-25-26(33-27)15-16-28-29(25)36-24(21-35-28)20-31-17-7-13-22-9-3-1-4-10-22/h1-6,9-12,15-16,19,24,31,33H,7-8,13-14,17-18,20-21H2,(H,32,34)

> <PUBCHEM_IUPAC_INCHIKEY>
XAJNHJMBQCJVMY-UHFFFAOYSA-N

> <PUBCHEM_XLOGP3_AA>
5.6

> <PUBCHEM_EXACT_MASS>
483.25219192

> <PUBCHEM_MOLECULAR_FORMULA>
C30H33N3O3

> <PUBCHEM_MOLECULAR_WEIGHT>
483.6

> <PUBCHEM_OPENEYE_CAN_SMILES>
C1C(OC2=C(O1)C=CC3=C2C=C(N3)C(=O)NCCCC4=CC=CC=C4)CNCCCC5=CC=CC=C5

> <PUBCHEM_OPENEYE_ISO_SMILES>
C1C(OC2=C(O1)C=CC3=C2C=C(N3)C(=O)NCCCC4=CC=CC=C4)CNCCCC5=CC=CC=C5

> <PUBCHEM_CACTVS_TPSA>
75.4

> <PUBCHEM_MONOISOTOPIC_WEIGHT>
483.25219192

> <PUBCHEM_TOTAL_CHARGE>
0

> <PUBCHEM_HEAVY_ATOM_COUNT>
36

> <PUBCHEM_ATOM_DEF_STEREO_COUNT>
0

> <PUBCHEM_ATOM_UDEF_STEREO_COUNT>
1

> <PUBCHEM_BOND_DEF_STEREO_COUNT>
0

> <PUBCHEM_BOND_UDEF_STEREO_COUNT>
0

> <PUBCHEM_ISOTOPIC_ATOM_COUNT>
0

> <PUBCHEM_COMPONENT_COUNT>
1

> <PUBCHEM_CACTVS_TAUTO_COUNT>
-1

> <PUBCHEM_COORDINATE_TYPE>
1
5
255

> <PUBCHEM_BONDANNOTATIONS>
10  11  8
10  12  8
11  13  8
11  15  8
12  18  8
13  19  8
15  17  8
18  19  8
24  27  8
24  28  8
26  31  8
26  32  8
27  29  8
28  30  8
29  33  8
30  33  8
31  34  8
32  35  8
34  36  8
35  36  8
5  13  8
5  17  8
7  8  3

$$$$
