11953409
  -OEChem-09292322042D

 73 76  0     1  0  0  0  0  0999 V2000
    4.4727   -1.2445    0.0000 S   0  0  0  0  0  0  0  0  0  0  0  0
   15.8355    3.2500    0.0000 F   0  0  0  0  0  0  0  0  0  0  0  0
    8.0413   -3.2500    0.0000 O   0  0  0  0  0  0  0  0  0  0  0  0
    6.3092   -1.2500    0.0000 O   0  0  0  0  0  0  0  0  0  0  0  0
    3.6756   -3.1750    0.0000 O   0  0  0  0  0  0  0  0  0  0  0  0
    9.7734    1.7500    0.0000 N   0  0  3  0  0  0  0  0  0  0  0  0
    8.9073   -1.7500    0.0000 N   0  0  0  0  0  0  0  0  0  0  0  0
    7.1753    0.2500    0.0000 N   0  0  0  0  0  0  0  0  0  0  0  0
    5.4432    0.2500    0.0000 N   0  0  0  0  0  0  0  0  0  0  0  0
    3.6636    0.1567    0.0000 N   0  0  0  0  0  0  0  0  0  0  0  0
    8.9073    0.2500    0.0000 C   0  0  1  0  0  0  0  0  0  0  0  0
    8.9073    1.2500    0.0000 C   0  0  0  0  0  0  0  0  0  0  0  0
    8.0413   -0.2500    0.0000 C   0  0  1  0  0  0  0  0  0  0  0  0
    9.7734   -0.2500    0.0000 C   0  0  0  0  0  0  0  0  0  0  0  0
   11.5054    1.7500    0.0000 C   0  0  1  0  0  0  0  0  0  0  0  0
   10.6394    1.2500    0.0000 C   0  0  0  0  0  0  0  0  0  0  0  0
    9.7734    2.7500    0.0000 C   0  0  0  0  0  0  0  0  0  0  0  0
    8.0413   -1.2500    0.0000 C   0  0  0  0  0  0  0  0  0  0  0  0
   11.5054    2.7500    0.0000 C   0  0  0  0  0  0  0  0  0  0  0  0
   10.6394    3.2500    0.0000 C   0  0  0  0  0  0  0  0  0  0  0  0
    9.7734   -1.2500    0.0000 C   0  0  0  0  0  0  0  0  0  0  0  0
   12.3714    1.2500    0.0000 C   0  0  0  0  0  0  0  0  0  0  0  0
    8.9073   -2.7500    0.0000 C   0  0  0  0  0  0  0  0  0  0  0  0
   13.2375    1.7500    0.0000 C   0  0  0  0  0  0  0  0  0  0  0  0
    6.3092   -0.2500    0.0000 C   0  0  0  0  0  0  0  0  0  0  0  0
    9.7734   -3.2500    0.0000 C   0  0  0  0  0  0  0  0  0  0  0  0
   13.2375    2.7500    0.0000 C   0  0  0  0  0  0  0  0  0  0  0  0
   14.1035    1.2500    0.0000 C   0  0  0  0  0  0  0  0  0  0  0  0
   14.1035    3.2500    0.0000 C   0  0  0  0  0  0  0  0  0  0  0  0
   14.9695    1.7500    0.0000 C   0  0  0  0  0  0  0  0  0  0  0  0
   14.9695    2.7500    0.0000 C   0  0  0  0  0  0  0  0  0  0  0  0
    4.5772   -0.2500    0.0000 C   0  0  0  0  0  0  0  0  0  0  0  0
    2.9945   -0.5864    0.0000 C   0  0  0  0  0  0  0  0  0  0  0  0
    3.4945   -1.4524    0.0000 C   0  0  0  0  0  0  0  0  0  0  0  0
    2.0000   -0.4819    0.0000 C   0  0  0  0  0  0  0  0  0  0  0  0
    3.0878   -2.3660    0.0000 C   0  0  0  0  0  0  0  0  0  0  0  0
    2.0933   -2.4705    0.0000 C   0  0  0  0  0  0  0  0  0  0  0  0
    8.3704    0.5600    0.0000 H   0  0  0  0  0  0  0  0  0  0  0  0
    8.6953    1.8326    0.0000 H   0  0  0  0  0  0  0  0  0  0  0  0
    8.2967    1.1423    0.0000 H   0  0  0  0  0  0  0  0  0  0  0  0
    7.5044   -0.5600    0.0000 H   0  0  0  0  0  0  0  0  0  0  0  0
   10.3839   -0.3577    0.0000 H   0  0  0  0  0  0  0  0  0  0  0  0
    9.9854    0.3326    0.0000 H   0  0  0  0  0  0  0  0  0  0  0  0
   12.0423    2.0600    0.0000 H   0  0  0  0  0  0  0  0  0  0  0  0
   10.2408    0.7751    0.0000 H   0  0  0  0  0  0  0  0  0  0  0  0
   11.0379    0.7751    0.0000 H   0  0  0  0  0  0  0  0  0  0  0  0
    9.5613    3.3326    0.0000 H   0  0  0  0  0  0  0  0  0  0  0  0
    9.1628    2.6423    0.0000 H   0  0  0  0  0  0  0  0  0  0  0  0
    7.4307   -1.1423    0.0000 H   0  0  0  0  0  0  0  0  0  0  0  0
    7.8292   -1.8326    0.0000 H   0  0  0  0  0  0  0  0  0  0  0  0
   12.1160    2.6423    0.0000 H   0  0  0  0  0  0  0  0  0  0  0  0
   11.7175    3.3326    0.0000 H   0  0  0  0  0  0  0  0  0  0  0  0
   11.0379    3.7250    0.0000 H   0  0  0  0  0  0  0  0  0  0  0  0
   10.2408    3.7250    0.0000 H   0  0  0  0  0  0  0  0  0  0  0  0
    9.9854   -1.8326    0.0000 H   0  0  0  0  0  0  0  0  0  0  0  0
   10.3839   -1.1423    0.0000 H   0  0  0  0  0  0  0  0  0  0  0  0
   11.9729    0.7751    0.0000 H   0  0  0  0  0  0  0  0  0  0  0  0
   12.7700    0.7751    0.0000 H   0  0  0  0  0  0  0  0  0  0  0  0
    7.1753    0.8700    0.0000 H   0  0  0  0  0  0  0  0  0  0  0  0
    9.4634   -3.7869    0.0000 H   0  0  0  0  0  0  0  0  0  0  0  0
   10.3103   -3.5600    0.0000 H   0  0  0  0  0  0  0  0  0  0  0  0
   10.0834   -2.7131    0.0000 H   0  0  0  0  0  0  0  0  0  0  0  0
   12.7005    3.0600    0.0000 H   0  0  0  0  0  0  0  0  0  0  0  0
   14.1035    0.6300    0.0000 H   0  0  0  0  0  0  0  0  0  0  0  0
    5.4432    0.8700    0.0000 H   0  0  0  0  0  0  0  0  0  0  0  0
   14.1035    3.8700    0.0000 H   0  0  0  0  0  0  0  0  0  0  0  0
   15.5064    1.4400    0.0000 H   0  0  0  0  0  0  0  0  0  0  0  0
    2.0648    0.1347    0.0000 H   0  0  0  0  0  0  0  0  0  0  0  0
    1.3834   -0.4171    0.0000 H   0  0  0  0  0  0  0  0  0  0  0  0
    1.9352   -1.0985    0.0000 H   0  0  0  0  0  0  0  0  0  0  0  0
    2.0285   -1.8539    0.0000 H   0  0  0  0  0  0  0  0  0  0  0  0
    1.4767   -2.5353    0.0000 H   0  0  0  0  0  0  0  0  0  0  0  0
    2.1581   -3.0871    0.0000 H   0  0  0  0  0  0  0  0  0  0  0  0
  1 32  1  0  0  0  0
  1 34  1  0  0  0  0
  2 31  1  0  0  0  0
  3 23  2  0  0  0  0
  4 25  2  0  0  0  0
  5 36  2  0  0  0  0
  6 12  1  0  0  0  0
  6 16  1  0  0  0  0
  6 17  1  0  0  0  0
  7 18  1  0  0  0  0
  7 21  1  0  0  0  0
  7 23  1  0  0  0  0
 13  8  1  1  0  0  0
  8 25  1  0  0  0  0
  8 59  1  0  0  0  0
  9 25  1  0  0  0  0
  9 32  1  0  0  0  0
  9 65  1  0  0  0  0
 10 32  2  0  0  0  0
 10 33  1  0  0  0  0
 11 12  1  6  0  0  0
 11 13  1  0  0  0  0
 11 14  1  0  0  0  0
 11 38  1  0  0  0  0
 12 39  1  0  0  0  0
 12 40  1  0  0  0  0
 13 18  1  0  0  0  0
 13 41  1  0  0  0  0
 14 21  1  0  0  0  0
 14 42  1  0  0  0  0
 14 43  1  0  0  0  0
 15 16  1  0  0  0  0
 15 19  1  0  0  0  0
 15 22  1  1  0  0  0
 15 44  1  0  0  0  0
 16 45  1  0  0  0  0
 16 46  1  0  0  0  0
 17 20  1  0  0  0  0
 17 47  1  0  0  0  0
 17 48  1  0  0  0  0
 18 49  1  0  0  0  0
 18 50  1  0  0  0  0
 19 20  1  0  0  0  0
 19 51  1  0  0  0  0
 19 52  1  0  0  0  0
 20 53  1  0  0  0  0
 20 54  1  0  0  0  0
 21 55  1  0  0  0  0
 21 56  1  0  0  0  0
 22 24  1  0  0  0  0
 22 57  1  0  0  0  0
 22 58  1  0  0  0  0
 23 26  1  0  0  0  0
 24 27  2  0  0  0  0
 24 28  1  0  0  0  0
 26 60  1  0  0  0  0
 26 61  1  0  0  0  0
 26 62  1  0  0  0  0
 27 29  1  0  0  0  0
 27 63  1  0  0  0  0
 28 30  2  0  0  0  0
 28 64  1  0  0  0  0
 29 31  2  0  0  0  0
 29 66  1  0  0  0  0
 30 31  1  0  0  0  0
 30 67  1  0  0  0  0
 33 34  2  0  0  0  0
 33 35  1  0  0  0  0
 34 36  1  0  0  0  0
 35 68  1  0  0  0  0
 35 69  1  0  0  0  0
 35 70  1  0  0  0  0
 36 37  1  0  0  0  0
 37 71  1  0  0  0  0
 37 72  1  0  0  0  0
 37 73  1  0  0  0  0
M  END
> <PUBCHEM_COMPOUND_CID>
11953409

> <PUBCHEM_COMPOUND_CANONICALIZED>
1

> <PUBCHEM_CACTVS_COMPLEXITY>
811

> <PUBCHEM_CACTVS_HBOND_ACCEPTOR>
7

> <PUBCHEM_CACTVS_HBOND_DONOR>
2

> <PUBCHEM_CACTVS_ROTATABLE_BOND>
7

> <PUBCHEM_CACTVS_SUBSKEYS>
AAADcfB7sQBAAAAAAAAAAAAAAAAAAWAAAAA8WIAAAAAAAAABwAAAHwQQAAAADSzB3gwzkZPIEAisA6VydAAC8KllCDkJmJU4QMiIYDrg0RCUIYAolwLIyWcQgMAOAAAAAAAAAAAAAAAAAAAAAAAAAAAAAA==

> <PUBCHEM_IUPAC_OPENEYE_NAME>
1-[(3S,4S)-1-acetyl-4-[[(3S)-3-[(4-fluorophenyl)methyl]-1-piperidyl]methyl]-3-piperidyl]-3-(5-acetyl-4-methyl-thiazol-2-yl)urea

> <PUBCHEM_IUPAC_CAS_NAME>
1-[(3S,4S)-1-acetyl-4-[[(3S)-3-[(4-fluorophenyl)methyl]-1-piperidinyl]methyl]-3-piperidinyl]-3-(5-acetyl-4-methyl-2-thiazolyl)urea

> <PUBCHEM_IUPAC_NAME_MARKUP>
1-[(3<I>S</I>,4<I>S</I>)-1-acetyl-4-[[(3<I>S</I>)-3-[(4-fluorophenyl)methyl]piperidin-1-yl]methyl]piperidin-3-yl]-3-(5-acetyl-4-methyl-1,3-thiazol-2-yl)urea

> <PUBCHEM_IUPAC_NAME>
1-[(3S,4S)-1-acetyl-4-[[(3S)-3-[(4-fluorophenyl)methyl]piperidin-1-yl]methyl]piperidin-3-yl]-3-(5-acetyl-4-methyl-1,3-thiazol-2-yl)urea

> <PUBCHEM_IUPAC_SYSTEMATIC_NAME>
1-[(3S,4S)-1-ethanoyl-4-[[(3S)-3-[(4-fluorophenyl)methyl]piperidin-1-yl]methyl]piperidin-3-yl]-3-(5-ethanoyl-4-methyl-1,3-thiazol-2-yl)urea

> <PUBCHEM_IUPAC_TRADITIONAL_NAME>
1-[(3S,4S)-1-acetyl-4-[[(3S)-3-(4-fluorobenzyl)piperidino]methyl]-3-piperidyl]-3-(5-acetyl-4-methyl-thiazol-2-yl)urea

> <PUBCHEM_IUPAC_INCHI>
InChI=1S/C27H36FN5O3S/c1-17-25(18(2)34)37-27(29-17)31-26(36)30-24-16-33(19(3)35)12-10-22(24)15-32-11-4-5-21(14-32)13-20-6-8-23(28)9-7-20/h6-9,21-22,24H,4-5,10-16H2,1-3H3,(H2,29,30,31,36)/t21-,22-,24+/m0/s1

> <PUBCHEM_IUPAC_INCHIKEY>
ZFRLEPMXXGKKBN-WPFOTENUSA-N

> <PUBCHEM_XLOGP3_AA>
3.5

> <PUBCHEM_EXACT_MASS>
529.25228936

> <PUBCHEM_MOLECULAR_FORMULA>
C27H36FN5O3S

> <PUBCHEM_MOLECULAR_WEIGHT>
529.7

> <PUBCHEM_OPENEYE_CAN_SMILES>
CC1=C(SC(=N1)NC(=O)NC2CN(CCC2CN3CCCC(C3)CC4=CC=C(C=C4)F)C(=O)C)C(=O)C

> <PUBCHEM_OPENEYE_ISO_SMILES>
CC1=C(SC(=N1)NC(=O)N[C@@H]2CN(CC[C@H]2CN3CCC[C@H](C3)CC4=CC=C(C=C4)F)C(=O)C)C(=O)C

> <PUBCHEM_CACTVS_TPSA>
123

> <PUBCHEM_MONOISOTOPIC_WEIGHT>
529.25228936

> <PUBCHEM_TOTAL_CHARGE>
0

> <PUBCHEM_HEAVY_ATOM_COUNT>
37

> <PUBCHEM_ATOM_DEF_STEREO_COUNT>
3

> <PUBCHEM_ATOM_UDEF_STEREO_COUNT>
0

> <PUBCHEM_BOND_DEF_STEREO_COUNT>
0

> <PUBCHEM_BOND_UDEF_STEREO_COUNT>
0

> <PUBCHEM_ISOTOPIC_ATOM_COUNT>
0

> <PUBCHEM_COMPONENT_COUNT>
1

> <PUBCHEM_CACTVS_TAUTO_COUNT>
-1

> <PUBCHEM_COORDINATE_TYPE>
1
5
255

> <PUBCHEM_BONDANNOTATIONS>
1  32  8
1  34  8
10  32  8
10  33  8
11  12  6
15  22  5
24  27  8
24  28  8
27  29  8
28  30  8
29  31  8
30  31  8
33  34  8
13  8  5

$$$$
