3033200
  -OEChem-09292322012D

 53 56  0     1  0  0  0  0  0999 V2000
    5.5138    2.0140    0.0000 O   0  0  0  0  0  0  0  0  0  0  0  0
    3.7320    1.0035    0.0000 O   0  0  0  0  0  0  0  0  0  0  0  0
    3.7818    2.0340    0.0000 O   0  0  0  0  0  0  0  0  0  0  0  0
    2.8602   -0.4931    0.0000 O   0  0  0  0  0  0  0  0  0  0  0  0
    8.9864   -1.0176    0.0000 N   0  0  3  0  0  0  0  0  0  0  0  0
    8.1282   -0.5206    0.0000 C   0  0  1  0  0  0  0  0  0  0  0  0
    8.1282    0.4794    0.0000 C   0  0  0  0  0  0  0  0  0  0  0  0
    7.2622   -1.0206    0.0000 C   0  0  0  0  0  0  0  0  0  0  0  0
    9.8519   -0.5334    0.0000 C   0  0  0  0  0  0  0  0  0  0  0  0
    9.0382    0.9862    0.0000 C   0  0  0  0  0  0  0  0  0  0  0  0
    9.8775    0.4580    0.0000 C   0  0  0  0  0  0  0  0  0  0  0  0
    7.2622    0.9794    0.0000 C   0  0  0  0  0  0  0  0  0  0  0  0
    6.3961   -0.5206    0.0000 C   0  0  0  0  0  0  0  0  0  0  0  0
    8.9790   -2.0175    0.0000 C   0  0  0  0  0  0  0  0  0  0  0  0
    6.3961    0.4794    0.0000 C   0  0  0  0  0  0  0  0  0  0  0  0
    9.0462    2.0278    0.0000 C   0  0  0  0  0  0  0  0  0  0  0  0
    7.2461    2.0209    0.0000 C   0  0  0  0  0  0  0  0  0  0  0  0
    9.8413   -2.5239    0.0000 C   0  0  0  0  0  0  0  0  0  0  0  0
    5.5022    1.0140    0.0000 C   0  0  0  0  0  0  0  0  0  0  0  0
    5.5022   -1.0553    0.0000 C   0  0  0  0  0  0  0  0  0  0  0  0
    8.1441    2.5486    0.0000 C   0  0  0  0  0  0  0  0  0  0  0  0
    4.5961    0.5002    0.0000 C   0  0  0  0  0  0  0  0  0  0  0  0
    4.5961   -0.5414    0.0000 C   0  0  0  0  0  0  0  0  0  0  0  0
    9.8339   -3.5239    0.0000 C   0  0  0  0  0  0  0  0  0  0  0  0
    4.6536    2.5240    0.0000 C   0  0  0  0  0  0  0  0  0  0  0  0
    2.8641    0.5069    0.0000 C   0  0  0  0  0  0  0  0  0  0  0  0
    4.6651    3.5239    0.0000 C   0  0  0  0  0  0  0  0  0  0  0  0
    2.0000    1.0102    0.0000 C   0  0  0  0  0  0  0  0  0  0  0  0
    8.1277   -1.3706    0.0000 H   0  0  0  0  0  0  0  0  0  0  0  0
    6.8636   -1.4956    0.0000 H   0  0  0  0  0  0  0  0  0  0  0  0
    7.6607   -1.4956    0.0000 H   0  0  0  0  0  0  0  0  0  0  0  0
   10.0536   -1.1196    0.0000 H   0  0  0  0  0  0  0  0  0  0  0  0
   10.4647   -0.4390    0.0000 H   0  0  0  0  0  0  0  0  0  0  0  0
   10.4846    0.3321    0.0000 H   0  0  0  0  0  0  0  0  0  0  0  0
   10.1093    1.0330    0.0000 H   0  0  0  0  0  0  0  0  0  0  0  0
    8.3692   -1.9053    0.0000 H   0  0  0  0  0  0  0  0  0  0  0  0
    8.7626   -2.5986    0.0000 H   0  0  0  0  0  0  0  0  0  0  0  0
    9.5844    2.3358    0.0000 H   0  0  0  0  0  0  0  0  0  0  0  0
    6.7056    2.3247    0.0000 H   0  0  0  0  0  0  0  0  0  0  0  0
   10.4511   -2.6361    0.0000 H   0  0  0  0  0  0  0  0  0  0  0  0
   10.0577   -1.9429    0.0000 H   0  0  0  0  0  0  0  0  0  0  0  0
    5.5094   -1.6752    0.0000 H   0  0  0  0  0  0  0  0  0  0  0  0
    8.1418    3.1686    0.0000 H   0  0  0  0  0  0  0  0  0  0  0  0
    4.0604   -0.8535    0.0000 H   0  0  0  0  0  0  0  0  0  0  0  0
    9.2139   -3.5193    0.0000 H   0  0  0  0  0  0  0  0  0  0  0  0
    9.8293   -4.1439    0.0000 H   0  0  0  0  0  0  0  0  0  0  0  0
   10.4539   -3.5285    0.0000 H   0  0  0  0  0  0  0  0  0  0  0  0
    5.2851    3.5167    0.0000 H   0  0  0  0  0  0  0  0  0  0  0  0
    4.6723    4.1438    0.0000 H   0  0  0  0  0  0  0  0  0  0  0  0
    4.0452    3.5311    0.0000 H   0  0  0  0  0  0  0  0  0  0  0  0
    2.3121    1.5459    0.0000 H   0  0  0  0  0  0  0  0  0  0  0  0
    1.4643    1.3223    0.0000 H   0  0  0  0  0  0  0  0  0  0  0  0
    1.6879    0.4745    0.0000 H   0  0  0  0  0  0  0  0  0  0  0  0
  1 19  1  0  0  0  0
  1 25  1  0  0  0  0
  2 22  1  0  0  0  0
  2 26  1  0  0  0  0
  3 25  2  0  0  0  0
  4 26  2  0  0  0  0
  5  6  1  0  0  0  0
  5  9  1  0  0  0  0
  5 14  1  0  0  0  0
  6  7  1  0  0  0  0
  6  8  1  0  0  0  0
  6 29  1  1  0  0  0
  7 10  2  0  0  0  0
  7 12  1  0  0  0  0
  8 13  1  0  0  0  0
  8 30  1  0  0  0  0
  8 31  1  0  0  0  0
  9 11  1  0  0  0  0
  9 32  1  0  0  0  0
  9 33  1  0  0  0  0
 10 11  1  0  0  0  0
 10 16  1  0  0  0  0
 11 34  1  0  0  0  0
 11 35  1  0  0  0  0
 12 15  1  0  0  0  0
 12 17  2  0  0  0  0
 13 15  2  0  0  0  0
 13 20  1  0  0  0  0
 14 18  1  0  0  0  0
 14 36  1  0  0  0  0
 14 37  1  0  0  0  0
 15 19  1  0  0  0  0
 16 21  2  0  0  0  0
 16 38  1  0  0  0  0
 17 21  1  0  0  0  0
 17 39  1  0  0  0  0
 18 24  1  0  0  0  0
 18 40  1  0  0  0  0
 18 41  1  0  0  0  0
 19 22  2  0  0  0  0
 20 23  2  0  0  0  0
 20 42  1  0  0  0  0
 21 43  1  0  0  0  0
 22 23  1  0  0  0  0
 23 44  1  0  0  0  0
 24 45  1  0  0  0  0
 24 46  1  0  0  0  0
 24 47  1  0  0  0  0
 25 27  1  0  0  0  0
 26 28  1  0  0  0  0
 27 48  1  0  0  0  0
 27 49  1  0  0  0  0
 27 50  1  0  0  0  0
 28 51  1  0  0  0  0
 28 52  1  0  0  0  0
 28 53  1  0  0  0  0
M  END
> <PUBCHEM_COMPOUND_CID>
3033200

> <PUBCHEM_COMPOUND_CANONICALIZED>
1

> <PUBCHEM_CACTVS_COMPLEXITY>
593

> <PUBCHEM_CACTVS_HBOND_ACCEPTOR>
5

> <PUBCHEM_CACTVS_HBOND_DONOR>
0

> <PUBCHEM_CACTVS_ROTATABLE_BOND>
6

> <PUBCHEM_CACTVS_SUBSKEYS>
AAADceB6OAAAAAAAAAAAAAAAAAAAAAAAAAA8YMEAAAAAAADxQAAAHgAAAAAADCzBmAQyDoMABACIAiDSCACCCAAgIAAIiAAOjIgNJiKEsRuGOirkwBGKqAeQ0PMOoAADAAAYQADQAAaAADSAAAAAAAAAAA==

> <PUBCHEM_IUPAC_OPENEYE_NAME>
[(6aR)-11-acetoxy-6-propyl-5,6,6a,7-tetrahydro-4H-dibenzo[de,g]quinolin-10-yl] acetate

> <PUBCHEM_IUPAC_CAS_NAME>
acetic acid [(6aR)-11-acetyloxy-6-propyl-5,6,6a,7-tetrahydro-4H-dibenzo[de,g]quinolin-10-yl] ester

> <PUBCHEM_IUPAC_NAME_MARKUP>
[(6<I>a</I><I>R</I>)-11-acetyloxy-6-propyl-5,6,6<I>a</I>,7-tetrahydro-4<I>H</I>-dibenzo[de,g]quinolin-10-yl] acetate

> <PUBCHEM_IUPAC_NAME>
[(6aR)-11-acetyloxy-6-propyl-5,6,6a,7-tetrahydro-4H-dibenzo[de,g]quinolin-10-yl] acetate

> <PUBCHEM_IUPAC_SYSTEMATIC_NAME>
[(6aR)-11-acetyloxy-6-propyl-5,6,6a,7-tetrahydro-4H-dibenzo[de,g]quinolin-10-yl] ethanoate

> <PUBCHEM_IUPAC_TRADITIONAL_NAME>
acetic acid [(6aR)-11-acetoxy-6-propyl-5,6,6a,7-tetrahydro-4H-dibenzo[de,g]quinolin-10-yl] ester

> <PUBCHEM_IUPAC_INCHI>
InChI=1S/C23H25NO4/c1-4-11-24-12-10-16-6-5-7-18-21(16)19(24)13-17-8-9-20(27-14(2)25)23(22(17)18)28-15(3)26/h5-9,19H,4,10-13H2,1-3H3/t19-/m1/s1

> <PUBCHEM_IUPAC_INCHIKEY>
XIUGOOSNVROHDP-LJQANCHMSA-N

> <PUBCHEM_XLOGP3_AA>
3.9

> <PUBCHEM_EXACT_MASS>
379.17835828

> <PUBCHEM_MOLECULAR_FORMULA>
C23H25NO4

> <PUBCHEM_MOLECULAR_WEIGHT>
379.4

> <PUBCHEM_OPENEYE_CAN_SMILES>
CCCN1CCC2=C3C1CC4=C(C3=CC=C2)C(=C(C=C4)OC(=O)C)OC(=O)C

> <PUBCHEM_OPENEYE_ISO_SMILES>
CCCN1CCC2=C3[C@H]1CC4=C(C3=CC=C2)C(=C(C=C4)OC(=O)C)OC(=O)C

> <PUBCHEM_CACTVS_TPSA>
55.8

> <PUBCHEM_MONOISOTOPIC_WEIGHT>
379.17835828

> <PUBCHEM_TOTAL_CHARGE>
0

> <PUBCHEM_HEAVY_ATOM_COUNT>
28

> <PUBCHEM_ATOM_DEF_STEREO_COUNT>
1

> <PUBCHEM_ATOM_UDEF_STEREO_COUNT>
0

> <PUBCHEM_BOND_DEF_STEREO_COUNT>
0

> <PUBCHEM_BOND_UDEF_STEREO_COUNT>
0

> <PUBCHEM_ISOTOPIC_ATOM_COUNT>
0

> <PUBCHEM_COMPONENT_COUNT>
1

> <PUBCHEM_CACTVS_TAUTO_COUNT>
1

> <PUBCHEM_COORDINATE_TYPE>
1
5
255

> <PUBCHEM_BONDANNOTATIONS>
10  16  8
12  17  8
13  15  8
13  20  8
15  19  8
16  21  8
17  21  8
19  22  8
20  23  8
22  23  8
6  29  5
7  10  8
7  12  8

$$$$
