155517266
  -OEChem-09292322462D

 70 72  0     1  0  0  0  0  0999 V2000
    8.0961    0.0000    0.0000 Cl  0  0  0  0  0  0  0  0  0  0  0  0
    0.0000    8.1337    0.0000 F   0  0  0  0  0  0  0  0  0  0  0  0
    0.3660    6.7677    0.0000 F   0  0  0  0  0  0  0  0  0  0  0  0
    1.3660    8.4997    0.0000 F   0  0  0  0  0  0  0  0  0  0  0  0
   12.2583    4.6337    0.0000 O   0  0  0  0  0  0  0  0  0  0  0  0
    7.0622    5.6337    0.0000 N   0  0  3  0  0  0  0  0  0  0  0  0
   11.3923    6.1337    0.0000 N   0  0  0  0  0  0  0  0  0  0  0  0
    5.3301    5.6337    0.0000 C   0  0  3  0  0  0  0  0  0  0  0  0
    4.3301    5.6337    0.0000 C   0  0  3  0  0  0  0  0  0  0  0  0
    4.8301    4.7677    0.0000 C   0  0  0  0  0  0  0  0  0  0  0  0
    6.1962    6.1337    0.0000 C   0  0  0  0  0  0  0  0  0  0  0  0
    3.4641    6.1337    0.0000 C   0  0  0  0  0  0  0  0  0  0  0  0
    7.9282    6.1337    0.0000 C   0  0  0  0  0  0  0  0  0  0  0  0
    2.5981    5.6337    0.0000 C   0  0  0  0  0  0  0  0  0  0  0  0
    3.4641    7.1337    0.0000 C   0  0  0  0  0  0  0  0  0  0  0  0
    7.0622    4.6337    0.0000 C   0  0  0  0  0  0  0  0  0  0  0  0
    8.7942    5.6337    0.0000 C   0  0  0  0  0  0  0  0  0  0  0  0
    7.9282    4.1337    0.0000 C   0  0  0  0  0  0  0  0  0  0  0  0
    1.7320    6.1337    0.0000 C   0  0  0  0  0  0  0  0  0  0  0  0
    2.5981    7.6337    0.0000 C   0  0  0  0  0  0  0  0  0  0  0  0
    1.7320    7.1337    0.0000 C   0  0  0  0  0  0  0  0  0  0  0  0
    9.6602    6.1337    0.0000 C   0  0  0  0  0  0  0  0  0  0  0  0
    7.9282    3.1337    0.0000 C   0  0  0  0  0  0  0  0  0  0  0  0
    0.8660    7.6337    0.0000 C   0  0  0  0  0  0  0  0  0  0  0  0
   10.5263    5.6337    0.0000 C   0  0  0  0  0  0  0  0  0  0  0  0
   12.2583    5.6337    0.0000 C   0  0  0  0  0  0  0  0  0  0  0  0
   13.1244    6.1337    0.0000 C   0  0  0  0  0  0  0  0  0  0  0  0
   13.9904    5.6337    0.0000 C   0  0  0  0  0  0  0  0  0  0  0  0
   13.1244    7.1337    0.0000 C   0  0  0  0  0  0  0  0  0  0  0  0
   14.8564    6.1337    0.0000 C   0  0  0  0  0  0  0  0  0  0  0  0
   14.8564    7.1337    0.0000 C   0  0  0  0  0  0  0  0  0  0  0  0
   13.9904    7.6337    0.0000 C   0  0  0  0  0  0  0  0  0  0  0  0
   15.7503    5.5990    0.0000 C   0  0  0  0  0  0  0  0  0  0  0  0
   15.7503    7.6684    0.0000 C   0  0  0  0  0  0  0  0  0  0  0  0
   16.6564    6.1129    0.0000 C   0  0  0  0  0  0  0  0  0  0  0  0
   16.6564    7.1545    0.0000 C   0  0  0  0  0  0  0  0  0  0  0  0
    5.1697    6.2326    0.0000 H   0  0  0  0  0  0  0  0  0  0  0  0
    3.8917    5.1953    0.0000 H   0  0  0  0  0  0  0  0  0  0  0  0
    4.3552    4.3691    0.0000 H   0  0  0  0  0  0  0  0  0  0  0  0
    5.3051    4.3691    0.0000 H   0  0  0  0  0  0  0  0  0  0  0  0
    6.5947    6.6086    0.0000 H   0  0  0  0  0  0  0  0  0  0  0  0
    5.7976    6.6086    0.0000 H   0  0  0  0  0  0  0  0  0  0  0  0
    8.3267    6.6086    0.0000 H   0  0  0  0  0  0  0  0  0  0  0  0
    7.5297    6.6086    0.0000 H   0  0  0  0  0  0  0  0  0  0  0  0
    2.5981    5.0137    0.0000 H   0  0  0  0  0  0  0  0  0  0  0  0
    4.0010    7.4437    0.0000 H   0  0  0  0  0  0  0  0  0  0  0  0
    6.4516    4.7414    0.0000 H   0  0  0  0  0  0  0  0  0  0  0  0
    6.8501    4.0511    0.0000 H   0  0  0  0  0  0  0  0  0  0  0  0
    8.3957    5.1588    0.0000 H   0  0  0  0  0  0  0  0  0  0  0  0
    9.1928    5.1588    0.0000 H   0  0  0  0  0  0  0  0  0  0  0  0
    8.5388    4.0260    0.0000 H   0  0  0  0  0  0  0  0  0  0  0  0
    8.1403    4.7163    0.0000 H   0  0  0  0  0  0  0  0  0  0  0  0
    1.1951    5.8237    0.0000 H   0  0  0  0  0  0  0  0  0  0  0  0
    2.5981    8.2537    0.0000 H   0  0  0  0  0  0  0  0  0  0  0  0
   10.0588    6.6086    0.0000 H   0  0  0  0  0  0  0  0  0  0  0  0
    9.2617    6.6086    0.0000 H   0  0  0  0  0  0  0  0  0  0  0  0
    7.3082    3.1337    0.0000 H   0  0  0  0  0  0  0  0  0  0  0  0
    7.9282    2.5137    0.0000 H   0  0  0  0  0  0  0  0  0  0  0  0
    8.5482    3.1337    0.0000 H   0  0  0  0  0  0  0  0  0  0  0  0
   10.1278    5.1588    0.0000 H   0  0  0  0  0  0  0  0  0  0  0  0
   10.9248    5.1588    0.0000 H   0  0  0  0  0  0  0  0  0  0  0  0
   11.3923    6.7537    0.0000 H   0  0  0  0  0  0  0  0  0  0  0  0
   13.9904    5.0137    0.0000 H   0  0  0  0  0  0  0  0  0  0  0  0
   12.5874    7.4437    0.0000 H   0  0  0  0  0  0  0  0  0  0  0  0
   13.9904    8.2537    0.0000 H   0  0  0  0  0  0  0  0  0  0  0  0
   15.7432    4.9791    0.0000 H   0  0  0  0  0  0  0  0  0  0  0  0
   15.7432    8.2883    0.0000 H   0  0  0  0  0  0  0  0  0  0  0  0
   17.1922    5.8008    0.0000 H   0  0  0  0  0  0  0  0  0  0  0  0
   17.1922    7.4666    0.0000 H   0  0  0  0  0  0  0  0  0  0  0  0
    9.0961    0.0000    0.0000 H   0  0  0  0  0  0  0  0  0  0  0  0
  1 70  1  0  0  0  0
  2 24  1  0  0  0  0
  3 24  1  0  0  0  0
  4 24  1  0  0  0  0
  5 26  2  0  0  0  0
  6 11  1  0  0  0  0
  6 13  1  0  0  0  0
  6 16  1  0  0  0  0
  7 25  1  0  0  0  0
  7 26  1  0  0  0  0
  7 62  1  0  0  0  0
  8  9  1  0  0  0  0
  8 10  1  0  0  0  0
  8 11  1  0  0  0  0
  8 37  1  0  0  0  0
  9 10  1  0  0  0  0
  9 12  1  0  0  0  0
  9 38  1  0  0  0  0
 10 39  1  0  0  0  0
 10 40  1  0  0  0  0
 11 41  1  0  0  0  0
 11 42  1  0  0  0  0
 12 14  2  0  0  0  0
 12 15  1  0  0  0  0
 13 17  1  0  0  0  0
 13 43  1  0  0  0  0
 13 44  1  0  0  0  0
 14 19  1  0  0  0  0
 14 45  1  0  0  0  0
 15 20  2  0  0  0  0
 15 46  1  0  0  0  0
 16 18  1  0  0  0  0
 16 47  1  0  0  0  0
 16 48  1  0  0  0  0
 17 22  1  0  0  0  0
 17 49  1  0  0  0  0
 17 50  1  0  0  0  0
 18 23  1  0  0  0  0
 18 51  1  0  0  0  0
 18 52  1  0  0  0  0
 19 21  2  0  0  0  0
 19 53  1  0  0  0  0
 20 21  1  0  0  0  0
 20 54  1  0  0  0  0
 21 24  1  0  0  0  0
 22 25  1  0  0  0  0
 22 55  1  0  0  0  0
 22 56  1  0  0  0  0
 23 57  1  0  0  0  0
 23 58  1  0  0  0  0
 23 59  1  0  0  0  0
 25 60  1  0  0  0  0
 25 61  1  0  0  0  0
 26 27  1  0  0  0  0
 27 28  2  0  0  0  0
 27 29  1  0  0  0  0
 28 30  1  0  0  0  0
 28 63  1  0  0  0  0
 29 32  2  0  0  0  0
 29 64  1  0  0  0  0
 30 31  1  0  0  0  0
 30 33  2  0  0  0  0
 31 32  1  0  0  0  0
 31 34  2  0  0  0  0
 32 65  1  0  0  0  0
 33 35  1  0  0  0  0
 33 66  1  0  0  0  0
 34 36  1  0  0  0  0
 34 67  1  0  0  0  0
 35 36  2  0  0  0  0
 35 68  1  0  0  0  0
 36 69  1  0  0  0  0
M  END
> <PUBCHEM_COMPOUND_CID>
155517266

> <PUBCHEM_COMPOUND_CANONICALIZED>
1

> <PUBCHEM_CACTVS_COMPLEXITY>
661

> <PUBCHEM_CACTVS_HBOND_ACCEPTOR>
5

> <PUBCHEM_CACTVS_HBOND_DONOR>
2

> <PUBCHEM_CACTVS_ROTATABLE_BOND>
11

> <PUBCHEM_CACTVS_SUBSKEYS>
AAADcfB7IYAEAAAAAAAAAAAAGAAAAAAAAAAwYMAAAAAAAADBVAAAHwAQAAAADQDBmBQyAMPAAACIAiFSEACCAAAkAAAIiIEIBMgIIDKAlRGEIQhglgCIiYcYiMCOwAACAAAQAACAAAQAACAAAAAAAAAAAA==

> <PUBCHEM_IUPAC_OPENEYE_NAME>
N-[4-[propyl-[[2-[4-(trifluoromethyl)phenyl]cyclopropyl]methyl]amino]butyl]naphthalene-2-carboxamide;hydrochloride

> <PUBCHEM_IUPAC_CAS_NAME>
N-[4-[propyl-[[2-[4-(trifluoromethyl)phenyl]cyclopropyl]methyl]amino]butyl]-2-naphthalenecarboxamide;hydrochloride

> <PUBCHEM_IUPAC_NAME_MARKUP>
<I>N</I>-[4-[propyl-[[2-[4-(trifluoromethyl)phenyl]cyclopropyl]methyl]amino]butyl]naphthalene-2-carboxamide;hydrochloride

> <PUBCHEM_IUPAC_NAME>
N-[4-[propyl-[[2-[4-(trifluoromethyl)phenyl]cyclopropyl]methyl]amino]butyl]naphthalene-2-carboxamide;hydrochloride

> <PUBCHEM_IUPAC_SYSTEMATIC_NAME>
N-[4-[propyl-[[2-[4-(trifluoromethyl)phenyl]cyclopropyl]methyl]amino]butyl]naphthalene-2-carboxamide;hydrochloride

> <PUBCHEM_IUPAC_TRADITIONAL_NAME>
N-[4-[propyl-[[2-[4-(trifluoromethyl)phenyl]cyclopropyl]methyl]amino]butyl]-2-naphthamide;hydrochloride

> <PUBCHEM_IUPAC_INCHI>
InChI=1S/C29H33F3N2O.ClH/c1-2-16-34(20-25-19-27(25)22-11-13-26(14-12-22)29(30,31)32)17-6-5-15-33-28(35)24-10-9-21-7-3-4-8-23(21)18-24;/h3-4,7-14,18,25,27H,2,5-6,15-17,19-20H2,1H3,(H,33,35);1H

> <PUBCHEM_IUPAC_INCHIKEY>
BAYXXWOZZGZJHZ-UHFFFAOYSA-N

> <PUBCHEM_EXACT_MASS>
518.2311759

> <PUBCHEM_MOLECULAR_FORMULA>
C29H34ClF3N2O

> <PUBCHEM_MOLECULAR_WEIGHT>
519.0

> <PUBCHEM_OPENEYE_CAN_SMILES>
CCCN(CCCCNC(=O)C1=CC2=CC=CC=C2C=C1)CC3CC3C4=CC=C(C=C4)C(F)(F)F.Cl

> <PUBCHEM_OPENEYE_ISO_SMILES>
CCCN(CCCCNC(=O)C1=CC2=CC=CC=C2C=C1)CC3CC3C4=CC=C(C=C4)C(F)(F)F.Cl

> <PUBCHEM_CACTVS_TPSA>
32.3

> <PUBCHEM_MONOISOTOPIC_WEIGHT>
518.2311759

> <PUBCHEM_TOTAL_CHARGE>
0

> <PUBCHEM_HEAVY_ATOM_COUNT>
36

> <PUBCHEM_ATOM_DEF_STEREO_COUNT>
0

> <PUBCHEM_ATOM_UDEF_STEREO_COUNT>
2

> <PUBCHEM_BOND_DEF_STEREO_COUNT>
0

> <PUBCHEM_BOND_UDEF_STEREO_COUNT>
0

> <PUBCHEM_ISOTOPIC_ATOM_COUNT>
0

> <PUBCHEM_COMPONENT_COUNT>
2

> <PUBCHEM_CACTVS_TAUTO_COUNT>
-1

> <PUBCHEM_COORDINATE_TYPE>
1
5
255

> <PUBCHEM_BONDANNOTATIONS>
12  14  8
12  15  8
14  19  8
15  20  8
19  21  8
20  21  8
27  28  8
27  29  8
28  30  8
29  32  8
30  31  8
30  33  8
31  32  8
31  34  8
33  35  8
34  36  8
35  36  8
8  11  3
9  12  3

$$$$
