155552054
  -OEChem-09292322412D

 66 70  0     0  0  0  0  0  0999 V2000
    2.7696   -3.6154    0.0000 O   0  0  0  0  0  0  0  0  0  0  0  0
    6.7352    6.6158    0.0000 O   0  0  0  0  0  0  0  0  0  0  0  0
    5.3051    1.5212    0.0000 N   0  0  0  0  0  0  0  0  0  0  0  0
    6.4461    3.1638    0.0000 N   0  0  0  0  0  0  0  0  0  0  0  0
    4.3009   -4.4781    0.0000 N   0  0  0  0  0  0  0  0  0  0  0  0
    6.3016    1.4378    0.0000 C   0  0  0  0  0  0  0  0  0  0  0  0
    4.8791    2.4259    0.0000 C   0  0  0  0  0  0  0  0  0  0  0  0
    4.7345    0.6999    0.0000 C   0  0  0  0  0  0  0  0  0  0  0  0
    6.8721    2.2590    0.0000 C   0  0  0  0  0  0  0  0  0  0  0  0
    5.4496    3.2472    0.0000 C   0  0  0  0  0  0  0  0  0  0  0  0
    5.1605   -0.2048    0.0000 C   0  0  0  0  0  0  0  0  0  0  0  0
    4.5900   -1.0261    0.0000 C   0  0  0  0  0  0  0  0  0  0  0  0
    5.0160   -1.9308    0.0000 C   0  0  0  0  0  0  0  0  0  0  0  0
    4.4455   -2.7521    0.0000 C   0  0  0  0  0  0  0  0  0  0  0  0
    4.8714   -3.6568    0.0000 C   0  0  0  0  0  0  0  0  0  0  0  0
    7.0166    3.9850    0.0000 C   0  0  0  0  0  0  0  0  0  0  0  0
    4.6660   -5.4024    0.0000 C   0  0  0  0  0  0  0  0  0  0  0  0
    3.8000   -5.9024    0.0000 C   0  0  0  0  0  0  0  0  0  0  0  0
    2.9061   -5.3678    0.0000 C   0  0  0  0  0  0  0  0  0  0  0  0
    3.3073   -4.4585    0.0000 C   0  0  0  0  0  0  0  0  0  0  0  0
    3.8000   -6.9024    0.0000 C   0  0  0  0  0  0  0  0  0  0  0  0
    6.5906    4.8898    0.0000 C   0  0  0  0  0  0  0  0  0  0  0  0
    8.0131    3.9016    0.0000 C   0  0  0  0  0  0  0  0  0  0  0  0
    5.5321   -5.9024    0.0000 C   0  0  0  0  0  0  0  0  0  0  0  0
    2.0000   -5.8816    0.0000 C   0  0  0  0  0  0  0  0  0  0  0  0
    4.6660   -7.4024    0.0000 C   0  0  0  0  0  0  0  0  0  0  0  0
    2.9061   -7.4371    0.0000 C   0  0  0  0  0  0  0  0  0  0  0  0
    5.5321   -6.9024    0.0000 C   0  0  0  0  0  0  0  0  0  0  0  0
    7.1612    5.7111    0.0000 C   0  0  0  0  0  0  0  0  0  0  0  0
    8.5837    4.7229    0.0000 C   0  0  0  0  0  0  0  0  0  0  0  0
    2.0000   -6.9232    0.0000 C   0  0  0  0  0  0  0  0  0  0  0  0
    8.1577    5.6276    0.0000 C   0  0  0  0  0  0  0  0  0  0  0  0
    7.3057    7.4371    0.0000 C   0  0  0  0  0  0  0  0  0  0  0  0
    6.1433    0.8383    0.0000 H   0  0  0  0  0  0  0  0  0  0  0  0
    6.8644    1.1778    0.0000 H   0  0  0  0  0  0  0  0  0  0  0  0
    4.4390    2.8627    0.0000 H   0  0  0  0  0  0  0  0  0  0  0  0
    4.3725    2.0684    0.0000 H   0  0  0  0  0  0  0  0  0  0  0  0
    4.2945    1.1367    0.0000 H   0  0  0  0  0  0  0  0  0  0  0  0
    4.2280    0.3424    0.0000 H   0  0  0  0  0  0  0  0  0  0  0  0
    7.3121    1.8223    0.0000 H   0  0  0  0  0  0  0  0  0  0  0  0
    7.3786    2.6166    0.0000 H   0  0  0  0  0  0  0  0  0  0  0  0
    5.6078    3.8467    0.0000 H   0  0  0  0  0  0  0  0  0  0  0  0
    4.8867    3.5072    0.0000 H   0  0  0  0  0  0  0  0  0  0  0  0
    5.6006   -0.6416    0.0000 H   0  0  0  0  0  0  0  0  0  0  0  0
    5.6671    0.1527    0.0000 H   0  0  0  0  0  0  0  0  0  0  0  0
    4.1500   -0.5893    0.0000 H   0  0  0  0  0  0  0  0  0  0  0  0
    4.0834   -1.3836    0.0000 H   0  0  0  0  0  0  0  0  0  0  0  0
    5.4560   -2.3676    0.0000 H   0  0  0  0  0  0  0  0  0  0  0  0
    5.5225   -1.5733    0.0000 H   0  0  0  0  0  0  0  0  0  0  0  0
    4.0054   -2.3153    0.0000 H   0  0  0  0  0  0  0  0  0  0  0  0
    3.9389   -3.1096    0.0000 H   0  0  0  0  0  0  0  0  0  0  0  0
    5.3115   -4.0936    0.0000 H   0  0  0  0  0  0  0  0  0  0  0  0
    5.3780   -3.2993    0.0000 H   0  0  0  0  0  0  0  0  0  0  0  0
    5.9728    4.9415    0.0000 H   0  0  0  0  0  0  0  0  0  0  0  0
    8.2773    3.3407    0.0000 H   0  0  0  0  0  0  0  0  0  0  0  0
    6.0690   -5.5924    0.0000 H   0  0  0  0  0  0  0  0  0  0  0  0
    1.4643   -5.5695    0.0000 H   0  0  0  0  0  0  0  0  0  0  0  0
    4.6660   -8.0224    0.0000 H   0  0  0  0  0  0  0  0  0  0  0  0
    2.9132   -8.0570    0.0000 H   0  0  0  0  0  0  0  0  0  0  0  0
    6.0690   -7.2124    0.0000 H   0  0  0  0  0  0  0  0  0  0  0  0
    1.4643   -7.2353    0.0000 H   0  0  0  0  0  0  0  0  0  0  0  0
    9.2015    4.6712    0.0000 H   0  0  0  0  0  0  0  0  0  0  0  0
    8.5114    6.1368    0.0000 H   0  0  0  0  0  0  0  0  0  0  0  0
    7.8149    7.0834    0.0000 H   0  0  0  0  0  0  0  0  0  0  0  0
    7.6594    7.9463    0.0000 H   0  0  0  0  0  0  0  0  0  0  0  0
    6.7965    7.7908    0.0000 H   0  0  0  0  0  0  0  0  0  0  0  0
  1 20  2  0  0  0  0
  2 29  1  0  0  0  0
  2 33  1  0  0  0  0
  3  6  1  0  0  0  0
  3  7  1  0  0  0  0
  3  8  1  0  0  0  0
  4  9  1  0  0  0  0
  4 10  1  0  0  0  0
  4 16  1  0  0  0  0
  5 15  1  0  0  0  0
  5 17  1  0  0  0  0
  5 20  1  0  0  0  0
  6  9  1  0  0  0  0
  6 34  1  0  0  0  0
  6 35  1  0  0  0  0
  7 10  1  0  0  0  0
  7 36  1  0  0  0  0
  7 37  1  0  0  0  0
  8 11  1  0  0  0  0
  8 38  1  0  0  0  0
  8 39  1  0  0  0  0
  9 40  1  0  0  0  0
  9 41  1  0  0  0  0
 10 42  1  0  0  0  0
 10 43  1  0  0  0  0
 11 12  1  0  0  0  0
 11 44  1  0  0  0  0
 11 45  1  0  0  0  0
 12 13  1  0  0  0  0
 12 46  1  0  0  0  0
 12 47  1  0  0  0  0
 13 14  1  0  0  0  0
 13 48  1  0  0  0  0
 13 49  1  0  0  0  0
 14 15  1  0  0  0  0
 14 50  1  0  0  0  0
 14 51  1  0  0  0  0
 15 52  1  0  0  0  0
 15 53  1  0  0  0  0
 16 22  2  0  0  0  0
 16 23  1  0  0  0  0
 17 18  1  0  0  0  0
 17 24  2  0  0  0  0
 18 19  1  0  0  0  0
 18 21  2  0  0  0  0
 19 20  1  0  0  0  0
 19 25  2  0  0  0  0
 21 26  1  0  0  0  0
 21 27  1  0  0  0  0
 22 29  1  0  0  0  0
 22 54  1  0  0  0  0
 23 30  2  0  0  0  0
 23 55  1  0  0  0  0
 24 28  1  0  0  0  0
 24 56  1  0  0  0  0
 25 31  1  0  0  0  0
 25 57  1  0  0  0  0
 26 28  2  0  0  0  0
 26 58  1  0  0  0  0
 27 31  2  0  0  0  0
 27 59  1  0  0  0  0
 28 60  1  0  0  0  0
 29 32  2  0  0  0  0
 30 32  1  0  0  0  0
 30 62  1  0  0  0  0
 31 61  1  0  0  0  0
 32 63  1  0  0  0  0
 33 64  1  0  0  0  0
 33 65  1  0  0  0  0
 33 66  1  0  0  0  0
M  END
> <PUBCHEM_COMPOUND_CID>
155552054

> <PUBCHEM_COMPOUND_CANONICALIZED>
1

> <PUBCHEM_CACTVS_COMPLEXITY>
635

> <PUBCHEM_CACTVS_HBOND_ACCEPTOR>
4

> <PUBCHEM_CACTVS_HBOND_DONOR>
0

> <PUBCHEM_CACTVS_ROTATABLE_BOND>
9

> <PUBCHEM_CACTVS_SUBSKEYS>
AAADcfB7MAAAAAAAAAAAAAAAAAAAAWAAAAA8YMEAAAAAAFjBVAAAHgAAAAAADAzBmAYyxsMABACIAiVSUACCCAAlIgAIiAEObMgMZjLEtZuUMShmxhnI6Yec2MOOgAACQgASAAAAAASEACQAAAAAAAAAAA==

> <PUBCHEM_IUPAC_OPENEYE_NAME>
1-[6-[4-(3-methoxyphenyl)piperazin-1-yl]hexyl]benzo[cd]indol-2-one

> <PUBCHEM_IUPAC_CAS_NAME>
1-[6-[4-(3-methoxyphenyl)-1-piperazinyl]hexyl]-2-benzo[cd]indolone

> <PUBCHEM_IUPAC_NAME_MARKUP>
1-[6-[4-(3-methoxyphenyl)piperazin-1-yl]hexyl]benzo[cd]indol-2-one

> <PUBCHEM_IUPAC_NAME>
1-[6-[4-(3-methoxyphenyl)piperazin-1-yl]hexyl]benzo[cd]indol-2-one

> <PUBCHEM_IUPAC_SYSTEMATIC_NAME>
1-[6-[4-(3-methoxyphenyl)piperazin-1-yl]hexyl]benzo[cd]indol-2-one

> <PUBCHEM_IUPAC_TRADITIONAL_NAME>
1-[6-[4-(3-methoxyphenyl)piperazino]hexyl]benzo[cd]indol-2-one

> <PUBCHEM_IUPAC_INCHI>
InChI=1S/C28H33N3O2/c1-33-24-12-8-11-23(21-24)30-19-17-29(18-20-30)15-4-2-3-5-16-31-26-14-7-10-22-9-6-13-25(27(22)26)28(31)32/h6-14,21H,2-5,15-20H2,1H3

> <PUBCHEM_IUPAC_INCHIKEY>
CEBLKRFUASWWLQ-UHFFFAOYSA-N

> <PUBCHEM_XLOGP3_AA>
5.3

> <PUBCHEM_EXACT_MASS>
443.25727730

> <PUBCHEM_MOLECULAR_FORMULA>
C28H33N3O2

> <PUBCHEM_MOLECULAR_WEIGHT>
443.6

> <PUBCHEM_OPENEYE_CAN_SMILES>
COC1=CC=CC(=C1)N2CCN(CC2)CCCCCCN3C4=CC=CC5=C4C(=CC=C5)C3=O

> <PUBCHEM_OPENEYE_ISO_SMILES>
COC1=CC=CC(=C1)N2CCN(CC2)CCCCCCN3C4=CC=CC5=C4C(=CC=C5)C3=O

> <PUBCHEM_CACTVS_TPSA>
36

> <PUBCHEM_MONOISOTOPIC_WEIGHT>
443.25727730

> <PUBCHEM_TOTAL_CHARGE>
0

> <PUBCHEM_HEAVY_ATOM_COUNT>
33

> <PUBCHEM_ATOM_DEF_STEREO_COUNT>
0

> <PUBCHEM_ATOM_UDEF_STEREO_COUNT>
0

> <PUBCHEM_BOND_DEF_STEREO_COUNT>
0

> <PUBCHEM_BOND_UDEF_STEREO_COUNT>
0

> <PUBCHEM_ISOTOPIC_ATOM_COUNT>
0

> <PUBCHEM_COMPONENT_COUNT>
1

> <PUBCHEM_CACTVS_TAUTO_COUNT>
-1

> <PUBCHEM_COORDINATE_TYPE>
1
5
255

> <PUBCHEM_BONDANNOTATIONS>
16  22  8
16  23  8
17  18  8
17  24  8
18  19  8
18  21  8
19  25  8
21  26  8
21  27  8
22  29  8
23  30  8
24  28  8
25  31  8
26  28  8
27  31  8
29  32  8
30  32  8

$$$$
