23631636
  -OEChem-09292322252D

 63 67  0     1  0  0  0  0  0999 V2000
    8.5839   -0.7195    0.0000 S   0  0  0  0  0  0  0  0  0  0  0  0
   18.0200    2.3792    0.0000 O   0  0  0  0  0  0  0  0  0  0  0  0
   11.5839    1.0126    0.0000 N   0  0  3  0  0  0  0  0  0  0  0  0
   17.3538    1.6335    0.0000 N   0  0  0  0  0  0  0  0  0  0  0  0
    6.9961   -1.5285    0.0000 N   0  0  0  0  0  0  0  0  0  0  0  0
    6.9961    0.0895    0.0000 N   0  0  0  0  0  0  0  0  0  0  0  0
    6.0451   -0.2195    0.0000 N   0  0  0  0  0  0  0  0  0  0  0  0
    2.0000   -4.1584    0.0000 N   0  0  0  0  0  0  0  0  0  0  0  0
   12.0178    1.9135    0.0000 C   0  0  0  0  0  0  0  0  0  0  0  0
   12.0178    0.1116    0.0000 C   0  0  0  0  0  0  0  0  0  0  0  0
   12.9927    2.1360    0.0000 C   0  0  0  0  0  0  0  0  0  0  0  0
   12.9927   -0.1109    0.0000 C   0  0  0  0  0  0  0  0  0  0  0  0
   13.7746    1.5126    0.0000 C   0  0  0  0  0  0  0  0  0  0  0  0
   13.7746    0.5126    0.0000 C   0  0  0  0  0  0  0  0  0  0  0  0
   10.5839    1.0126    0.0000 C   0  0  0  0  0  0  0  0  0  0  0  0
   10.0839    0.1465    0.0000 C   0  0  0  0  0  0  0  0  0  0  0  0
   14.6685    2.0472    0.0000 C   0  0  0  0  0  0  0  0  0  0  0  0
   14.6685   -0.0221    0.0000 C   0  0  0  0  0  0  0  0  0  0  0  0
   15.5746    1.5334    0.0000 C   0  0  0  0  0  0  0  0  0  0  0  0
    9.0839    0.1465    0.0000 C   0  0  0  0  0  0  0  0  0  0  0  0
   15.5746    0.4917    0.0000 C   0  0  0  0  0  0  0  0  0  0  0  0
   16.4387    2.0367    0.0000 C   0  0  0  0  0  0  0  0  0  0  0  0
   16.5394    3.0316    0.0000 C   0  0  0  0  0  0  0  0  0  0  0  0
    7.5839   -0.7195    0.0000 C   0  0  0  0  0  0  0  0  0  0  0  0
   17.5167    3.2433    0.0000 C   0  0  0  0  0  0  0  0  0  0  0  0
    6.0451   -1.2195    0.0000 C   0  0  0  0  0  0  0  0  0  0  0  0
    7.3052   -2.4796    0.0000 C   0  0  0  0  0  0  0  0  0  0  0  0
    5.2361   -1.8073    0.0000 C   0  0  0  0  0  0  0  0  0  0  0  0
   17.9199    4.1584    0.0000 C   0  0  0  0  0  0  0  0  0  0  0  0
    5.3406   -2.8018    0.0000 C   0  0  0  0  0  0  0  0  0  0  0  0
    4.3225   -1.4005    0.0000 C   0  0  0  0  0  0  0  0  0  0  0  0
    4.5316   -3.3896    0.0000 C   0  0  0  0  0  0  0  0  0  0  0  0
    3.5135   -1.9883    0.0000 C   0  0  0  0  0  0  0  0  0  0  0  0
    3.6180   -2.9828    0.0000 C   0  0  0  0  0  0  0  0  0  0  0  0
    2.8090   -3.5706    0.0000 C   0  0  0  0  0  0  0  0  0  0  0  0
   12.0178    2.5335    0.0000 H   0  0  0  0  0  0  0  0  0  0  0  0
   11.4134    2.0515    0.0000 H   0  0  0  0  0  0  0  0  0  0  0  0
   11.4134   -0.0264    0.0000 H   0  0  0  0  0  0  0  0  0  0  0  0
   12.0178   -0.5084    0.0000 H   0  0  0  0  0  0  0  0  0  0  0  0
   13.4775    2.5226    0.0000 H   0  0  0  0  0  0  0  0  0  0  0  0
   12.7237    2.6947    0.0000 H   0  0  0  0  0  0  0  0  0  0  0  0
   12.7237   -0.6695    0.0000 H   0  0  0  0  0  0  0  0  0  0  0  0
   13.4775   -0.4975    0.0000 H   0  0  0  0  0  0  0  0  0  0  0  0
   10.6916    1.6231    0.0000 H   0  0  0  0  0  0  0  0  0  0  0  0
   10.0013    1.2246    0.0000 H   0  0  0  0  0  0  0  0  0  0  0  0
    9.9763   -0.4640    0.0000 H   0  0  0  0  0  0  0  0  0  0  0  0
   10.6665   -0.0655    0.0000 H   0  0  0  0  0  0  0  0  0  0  0  0
   14.6613    2.6672    0.0000 H   0  0  0  0  0  0  0  0  0  0  0  0
   14.6613   -0.6421    0.0000 H   0  0  0  0  0  0  0  0  0  0  0  0
    9.1916    0.7571    0.0000 H   0  0  0  0  0  0  0  0  0  0  0  0
    8.5013    0.3586    0.0000 H   0  0  0  0  0  0  0  0  0  0  0  0
   16.1103    0.1797    0.0000 H   0  0  0  0  0  0  0  0  0  0  0  0
   16.0770    3.4447    0.0000 H   0  0  0  0  0  0  0  0  0  0  0  0
    6.7155   -2.6712    0.0000 H   0  0  0  0  0  0  0  0  0  0  0  0
    7.4968   -3.0692    0.0000 H   0  0  0  0  0  0  0  0  0  0  0  0
    7.8948   -2.2880    0.0000 H   0  0  0  0  0  0  0  0  0  0  0  0
   18.4873    3.9084    0.0000 H   0  0  0  0  0  0  0  0  0  0  0  0
   18.1699    4.7258    0.0000 H   0  0  0  0  0  0  0  0  0  0  0  0
   17.3526    4.4084    0.0000 H   0  0  0  0  0  0  0  0  0  0  0  0
    5.9070   -3.0540    0.0000 H   0  0  0  0  0  0  0  0  0  0  0  0
    4.2577   -0.7839    0.0000 H   0  0  0  0  0  0  0  0  0  0  0  0
    4.5964   -4.0062    0.0000 H   0  0  0  0  0  0  0  0  0  0  0  0
    2.9471   -1.7362    0.0000 H   0  0  0  0  0  0  0  0  0  0  0  0
  1 20  1  0  0  0  0
  1 24  1  0  0  0  0
  2  4  1  0  0  0  0
  2 25  1  0  0  0  0
  3  9  1  0  0  0  0
  3 10  1  0  0  0  0
  3 15  1  0  0  0  0
  4 22  2  0  0  0  0
  5 24  1  0  0  0  0
  5 26  1  0  0  0  0
  5 27  1  0  0  0  0
  6  7  1  0  0  0  0
  6 24  2  0  0  0  0
  7 26  2  0  0  0  0
  8 35  3  0  0  0  0
  9 11  1  0  0  0  0
  9 36  1  0  0  0  0
  9 37  1  0  0  0  0
 10 12  1  0  0  0  0
 10 38  1  0  0  0  0
 10 39  1  0  0  0  0
 11 13  1  0  0  0  0
 11 40  1  0  0  0  0
 11 41  1  0  0  0  0
 12 14  1  0  0  0  0
 12 42  1  0  0  0  0
 12 43  1  0  0  0  0
 13 14  2  0  0  0  0
 13 17  1  0  0  0  0
 14 18  1  0  0  0  0
 15 16  1  0  0  0  0
 15 44  1  0  0  0  0
 15 45  1  0  0  0  0
 16 20  1  0  0  0  0
 16 46  1  0  0  0  0
 16 47  1  0  0  0  0
 17 19  2  0  0  0  0
 17 48  1  0  0  0  0
 18 21  2  0  0  0  0
 18 49  1  0  0  0  0
 19 21  1  0  0  0  0
 19 22  1  0  0  0  0
 20 50  1  0  0  0  0
 20 51  1  0  0  0  0
 21 52  1  0  0  0  0
 22 23  1  0  0  0  0
 23 25  2  0  0  0  0
 23 53  1  0  0  0  0
 25 29  1  0  0  0  0
 26 28  1  0  0  0  0
 27 54  1  0  0  0  0
 27 55  1  0  0  0  0
 27 56  1  0  0  0  0
 28 30  2  0  0  0  0
 28 31  1  0  0  0  0
 29 57  1  0  0  0  0
 29 58  1  0  0  0  0
 29 59  1  0  0  0  0
 30 32  1  0  0  0  0
 30 60  1  0  0  0  0
 31 33  2  0  0  0  0
 31 61  1  0  0  0  0
 32 34  2  0  0  0  0
 32 62  1  0  0  0  0
 33 34  1  0  0  0  0
 33 63  1  0  0  0  0
 34 35  1  0  0  0  0
M  END
> <PUBCHEM_COMPOUND_CID>
23631636

> <PUBCHEM_COMPOUND_CANONICALIZED>
1

> <PUBCHEM_CACTVS_COMPLEXITY>
724

> <PUBCHEM_CACTVS_HBOND_ACCEPTOR>
7

> <PUBCHEM_CACTVS_HBOND_DONOR>
0

> <PUBCHEM_CACTVS_ROTATABLE_BOND>
7

> <PUBCHEM_CACTVS_SUBSKEYS>
AAADceB7oABAAAAAAAAAAAAAAAAAAWLAAAAwYAAABYAAAAAB9AAAHgQMAAAADAzF3wSzlJccEAi7B6ZyZgCy0AtkIrA92CE+bNqIrrqgmZOEMYhmiBqIyU+YyOCOwAACAAAQAACAAAQAACAAAAAAAAAAAA==

> <PUBCHEM_IUPAC_OPENEYE_NAME>
4-[4-methyl-5-[3-[7-(5-methylisoxazol-3-yl)-1,2,4,5-tetrahydro-3-benzazepin-3-yl]propylsulfanyl]-1,2,4-triazol-3-yl]benzonitrile

> <PUBCHEM_IUPAC_CAS_NAME>
4-[4-methyl-5-[3-[7-(5-methyl-3-isoxazolyl)-1,2,4,5-tetrahydro-3-benzazepin-3-yl]propylthio]-1,2,4-triazol-3-yl]benzonitrile

> <PUBCHEM_IUPAC_NAME_MARKUP>
4-[4-methyl-5-[3-[7-(5-methyl-1,2-oxazol-3-yl)-1,2,4,5-tetrahydro-3-benzazepin-3-yl]propylsulfanyl]-1,2,4-triazol-3-yl]benzonitrile

> <PUBCHEM_IUPAC_NAME>
4-[4-methyl-5-[3-[7-(5-methyl-1,2-oxazol-3-yl)-1,2,4,5-tetrahydro-3-benzazepin-3-yl]propylsulfanyl]-1,2,4-triazol-3-yl]benzonitrile

> <PUBCHEM_IUPAC_SYSTEMATIC_NAME>
4-[4-methyl-5-[3-[7-(5-methyl-1,2-oxazol-3-yl)-1,2,4,5-tetrahydro-3-benzazepin-3-yl]propylsulfanyl]-1,2,4-triazol-3-yl]benzenecarbonitrile

> <PUBCHEM_IUPAC_TRADITIONAL_NAME>
4-[4-methyl-5-[3-[7-(5-methylisoxazol-3-yl)-1,2,4,5-tetrahydro-3-benzazepin-3-yl]propylthio]-1,2,4-triazol-3-yl]benzonitrile

> <PUBCHEM_IUPAC_INCHI>
InChI=1S/C27H28N6OS/c1-19-16-25(31-34-19)24-9-8-21-10-13-33(14-11-23(21)17-24)12-3-15-35-27-30-29-26(32(27)2)22-6-4-20(18-28)5-7-22/h4-9,16-17H,3,10-15H2,1-2H3

> <PUBCHEM_IUPAC_INCHIKEY>
FEQJNVMOFHFOGP-UHFFFAOYSA-N

> <PUBCHEM_XLOGP3_AA>
4.5

> <PUBCHEM_EXACT_MASS>
484.20453071

> <PUBCHEM_MOLECULAR_FORMULA>
C27H28N6OS

> <PUBCHEM_MOLECULAR_WEIGHT>
484.6

> <PUBCHEM_OPENEYE_CAN_SMILES>
CC1=CC(=NO1)C2=CC3=C(CCN(CC3)CCCSC4=NN=C(N4C)C5=CC=C(C=C5)C#N)C=C2

> <PUBCHEM_OPENEYE_ISO_SMILES>
CC1=CC(=NO1)C2=CC3=C(CCN(CC3)CCCSC4=NN=C(N4C)C5=CC=C(C=C5)C#N)C=C2

> <PUBCHEM_CACTVS_TPSA>
109

> <PUBCHEM_MONOISOTOPIC_WEIGHT>
484.20453071

> <PUBCHEM_TOTAL_CHARGE>
0

> <PUBCHEM_HEAVY_ATOM_COUNT>
35

> <PUBCHEM_ATOM_DEF_STEREO_COUNT>
0

> <PUBCHEM_ATOM_UDEF_STEREO_COUNT>
0

> <PUBCHEM_BOND_DEF_STEREO_COUNT>
0

> <PUBCHEM_BOND_UDEF_STEREO_COUNT>
0

> <PUBCHEM_ISOTOPIC_ATOM_COUNT>
0

> <PUBCHEM_COMPONENT_COUNT>
1

> <PUBCHEM_CACTVS_TAUTO_COUNT>
-1

> <PUBCHEM_COORDINATE_TYPE>
1
5
255

> <PUBCHEM_BONDANNOTATIONS>
13  14  8
13  17  8
14  18  8
17  19  8
18  21  8
19  21  8
2  25  8
2  4  8
22  23  8
23  25  8
28  30  8
28  31  8
30  32  8
31  33  8
32  34  8
33  34  8
4  22  8
5  24  8
5  26  8
6  24  8
6  7  8
7  26  8

$$$$
