21462980
  -OEChem-09292322222D

 37 40  0     1  0  0  0  0  0999 V2000
    5.5321   -0.1017    0.0000 N   0  0  3  0  0  0  0  0  0  0  0  0
    8.3390    1.0963    0.0000 N   0  0  0  0  0  0  0  0  0  0  0  0
    9.8183    0.0313    0.0000 N   0  0  0  0  0  0  0  0  0  0  0  0
    5.5321    0.8983    0.0000 C   0  0  0  0  0  0  0  0  0  0  0  0
    4.6660   -0.6017    0.0000 C   0  0  0  0  0  0  0  0  0  0  0  0
    4.6660    1.3983    0.0000 C   0  0  0  0  0  0  0  0  0  0  0  0
    6.3981   -0.6017    0.0000 C   0  0  0  0  0  0  0  0  0  0  0  0
    3.8000   -0.1017    0.0000 C   0  0  0  0  0  0  0  0  0  0  0  0
    3.8000    0.8983    0.0000 C   0  0  0  0  0  0  0  0  0  0  0  0
    7.2641   -0.1017    0.0000 C   0  0  0  0  0  0  0  0  0  0  0  0
    8.1719   -0.5068    0.0000 C   0  0  0  0  0  0  0  0  0  0  0  0
    2.9061   -0.6363    0.0000 C   0  0  0  0  0  0  0  0  0  0  0  0
    2.9061    1.4330    0.0000 C   0  0  0  0  0  0  0  0  0  0  0  0
    7.3672    0.8871    0.0000 C   0  0  0  0  0  0  0  0  0  0  0  0
    8.8397    0.2375    0.0000 C   0  0  0  0  0  0  0  0  0  0  0  0
    2.0000   -0.1225    0.0000 C   0  0  0  0  0  0  0  0  0  0  0  0
    2.0000    0.9191    0.0000 C   0  0  0  0  0  0  0  0  0  0  0  0
    8.4826   -1.4573    0.0000 C   0  0  0  0  0  0  0  0  0  0  0  0
    9.4611   -1.6635    0.0000 C   0  0  0  0  0  0  0  0  0  0  0  0
   10.1289   -0.9192    0.0000 C   0  0  0  0  0  0  0  0  0  0  0  0
    6.1426    0.7907    0.0000 H   0  0  0  0  0  0  0  0  0  0  0  0
    5.7441    1.4809    0.0000 H   0  0  0  0  0  0  0  0  0  0  0  0
    4.2675   -1.0766    0.0000 H   0  0  0  0  0  0  0  0  0  0  0  0
    5.0646   -1.0766    0.0000 H   0  0  0  0  0  0  0  0  0  0  0  0
    5.0646    1.8733    0.0000 H   0  0  0  0  0  0  0  0  0  0  0  0
    4.2675    1.8733    0.0000 H   0  0  0  0  0  0  0  0  0  0  0  0
    5.9996   -1.0766    0.0000 H   0  0  0  0  0  0  0  0  0  0  0  0
    6.7966   -1.0766    0.0000 H   0  0  0  0  0  0  0  0  0  0  0  0
    2.9132   -1.2563    0.0000 H   0  0  0  0  0  0  0  0  0  0  0  0
    2.9132    2.0530    0.0000 H   0  0  0  0  0  0  0  0  0  0  0  0
    6.9057    1.3011    0.0000 H   0  0  0  0  0  0  0  0  0  0  0  0
    8.5892    1.6635    0.0000 H   0  0  0  0  0  0  0  0  0  0  0  0
    1.4643   -0.4346    0.0000 H   0  0  0  0  0  0  0  0  0  0  0  0
    1.4643    1.2312    0.0000 H   0  0  0  0  0  0  0  0  0  0  0  0
    8.0685   -1.9188    0.0000 H   0  0  0  0  0  0  0  0  0  0  0  0
    9.6537   -2.2528    0.0000 H   0  0  0  0  0  0  0  0  0  0  0  0
   10.7356   -1.0471    0.0000 H   0  0  0  0  0  0  0  0  0  0  0  0
  1  4  1  0  0  0  0
  1  5  1  0  0  0  0
  1  7  1  0  0  0  0
  2 14  1  0  0  0  0
  2 15  1  0  0  0  0
  2 32  1  0  0  0  0
  3 15  1  0  0  0  0
  3 20  2  0  0  0  0
  4  6  1  0  0  0  0
  4 21  1  0  0  0  0
  4 22  1  0  0  0  0
  5  8  1  0  0  0  0
  5 23  1  0  0  0  0
  5 24  1  0  0  0  0
  6  9  1  0  0  0  0
  6 25  1  0  0  0  0
  6 26  1  0  0  0  0
  7 10  1  0  0  0  0
  7 27  1  0  0  0  0
  7 28  1  0  0  0  0
  8  9  1  0  0  0  0
  8 12  2  0  0  0  0
  9 13  2  0  0  0  0
 10 11  1  0  0  0  0
 10 14  2  0  0  0  0
 11 15  2  0  0  0  0
 11 18  1  0  0  0  0
 12 16  1  0  0  0  0
 12 29  1  0  0  0  0
 13 17  1  0  0  0  0
 13 30  1  0  0  0  0
 14 31  1  0  0  0  0
 16 17  2  0  0  0  0
 16 33  1  0  0  0  0
 17 34  1  0  0  0  0
 18 19  2  0  0  0  0
 18 35  1  0  0  0  0
 19 20  1  0  0  0  0
 19 36  1  0  0  0  0
 20 37  1  0  0  0  0
M  END
> <PUBCHEM_COMPOUND_CID>
21462980

> <PUBCHEM_COMPOUND_CANONICALIZED>
1

> <PUBCHEM_CACTVS_COMPLEXITY>
332

> <PUBCHEM_CACTVS_HBOND_ACCEPTOR>
2

> <PUBCHEM_CACTVS_HBOND_DONOR>
1

> <PUBCHEM_CACTVS_ROTATABLE_BOND>
2

> <PUBCHEM_CACTVS_SUBSKEYS>
AAADceB7AAAAAAAAAAAAAAAAAAAAAWAAAAA8WIAAAAAAAFix/AAAHAAQAAAADADBGwQ9sN/JkACgAjJnZACCgCmxAqAJ2aA4ZJiIKOLA2ZGEIAhogALIyCcQgIAOgAAAAAAQAAAAAAAAACAAAAAAAAAAAA==

> <PUBCHEM_IUPAC_OPENEYE_NAME>
2-(1H-pyrrolo[2,3-b]pyridin-3-ylmethyl)-3,4-dihydro-1H-isoquinoline

> <PUBCHEM_IUPAC_CAS_NAME>
2-(1H-pyrrolo[2,3-b]pyridin-3-ylmethyl)-3,4-dihydro-1H-isoquinoline

> <PUBCHEM_IUPAC_NAME_MARKUP>
2-(1<I>H</I>-pyrrolo[2,3-b]pyridin-3-ylmethyl)-3,4-dihydro-1<I>H</I>-isoquinoline

> <PUBCHEM_IUPAC_NAME>
2-(1H-pyrrolo[2,3-b]pyridin-3-ylmethyl)-3,4-dihydro-1H-isoquinoline

> <PUBCHEM_IUPAC_SYSTEMATIC_NAME>
2-(1H-pyrrolo[2,3-b]pyridin-3-ylmethyl)-3,4-dihydro-1H-isoquinoline

> <PUBCHEM_IUPAC_TRADITIONAL_NAME>
2-(1H-pyrrolo[2,3-b]pyridin-3-ylmethyl)-3,4-dihydro-1H-isoquinoline

> <PUBCHEM_IUPAC_INCHI>
InChI=1S/C17H17N3/c1-2-5-14-11-20(9-7-13(14)4-1)12-15-10-19-17-16(15)6-3-8-18-17/h1-6,8,10H,7,9,11-12H2,(H,18,19)

> <PUBCHEM_IUPAC_INCHIKEY>
BGJDVOKZOHLJPT-UHFFFAOYSA-N

> <PUBCHEM_XLOGP3_AA>
2.7

> <PUBCHEM_EXACT_MASS>
263.142247555

> <PUBCHEM_MOLECULAR_FORMULA>
C17H17N3

> <PUBCHEM_MOLECULAR_WEIGHT>
263.34

> <PUBCHEM_OPENEYE_CAN_SMILES>
C1CN(CC2=CC=CC=C21)CC3=CNC4=C3C=CC=N4

> <PUBCHEM_OPENEYE_ISO_SMILES>
C1CN(CC2=CC=CC=C21)CC3=CNC4=C3C=CC=N4

> <PUBCHEM_CACTVS_TPSA>
31.9

> <PUBCHEM_MONOISOTOPIC_WEIGHT>
263.142247555

> <PUBCHEM_TOTAL_CHARGE>
0

> <PUBCHEM_HEAVY_ATOM_COUNT>
20

> <PUBCHEM_ATOM_DEF_STEREO_COUNT>
0

> <PUBCHEM_ATOM_UDEF_STEREO_COUNT>
0

> <PUBCHEM_BOND_DEF_STEREO_COUNT>
0

> <PUBCHEM_BOND_UDEF_STEREO_COUNT>
0

> <PUBCHEM_ISOTOPIC_ATOM_COUNT>
0

> <PUBCHEM_COMPONENT_COUNT>
1

> <PUBCHEM_CACTVS_TAUTO_COUNT>
-1

> <PUBCHEM_COORDINATE_TYPE>
1
5
255

> <PUBCHEM_BONDANNOTATIONS>
10  11  8
10  14  8
11  15  8
11  18  8
12  16  8
13  17  8
16  17  8
18  19  8
19  20  8
2  14  8
2  15  8
3  15  8
3  20  8
8  12  8
8  9  8
9  13  8

$$$$
