155528355
  -OEChem-09292322462D

 50 53  0     0  0  0  0  0  0999 V2000
    6.7210   -2.4611    0.0000 S   0  0  0  0  0  0  0  0  0  0  0  0
    7.6715   -2.1504    0.0000 O   0  0  0  0  0  0  0  0  0  0  0  0
    5.7705   -2.7717    0.0000 O   0  0  0  0  0  0  0  0  0  0  0  0
    2.8660    0.2942    0.0000 O   0  0  0  0  0  0  0  0  0  0  0  0
    8.0646    4.1514    0.0000 O   0  0  0  0  0  0  0  0  0  0  0  0
    6.4103   -1.5106    0.0000 N   0  0  0  0  0  0  0  0  0  0  0  0
    7.6743    2.3568    0.0000 N   0  0  0  0  0  0  0  0  0  0  0  0
    6.1346    1.8595    0.0000 N   0  0  0  0  0  0  0  0  0  0  0  0
    6.4164    3.6191    0.0000 N   0  0  0  0  0  0  0  0  0  0  0  0
    5.4641   -1.2058    0.0000 C   0  0  0  0  0  0  0  0  0  0  0  0
    5.4641   -0.2058    0.0000 C   0  0  0  0  0  0  0  0  0  0  0  0
    6.4103    0.0989    0.0000 C   0  0  0  0  0  0  0  0  0  0  0  0
    6.9939   -0.7058    0.0000 C   0  0  0  0  0  0  0  0  0  0  0  0
    6.7210    1.0494    0.0000 C   0  0  0  0  0  0  0  0  0  0  0  0
    4.5981    0.2942    0.0000 C   0  0  0  0  0  0  0  0  0  0  0  0
    4.5981   -1.7058    0.0000 C   0  0  0  0  0  0  0  0  0  0  0  0
    7.6726    1.3568    0.0000 C   0  0  0  0  0  0  0  0  0  0  0  0
    7.0316   -3.4116    0.0000 C   0  0  0  0  0  0  0  0  0  0  0  0
    3.7320   -0.2058    0.0000 C   0  0  0  0  0  0  0  0  0  0  0  0
    3.7320   -1.2058    0.0000 C   0  0  0  0  0  0  0  0  0  0  0  0
    6.7238    2.6675    0.0000 C   0  0  0  0  0  0  0  0  0  0  0  0
    8.4806    0.7676    0.0000 C   0  0  0  0  0  0  0  0  0  0  0  0
    6.3638   -4.1559    0.0000 C   0  0  0  0  0  0  0  0  0  0  0  0
    8.0102   -3.6178    0.0000 C   0  0  0  0  0  0  0  0  0  0  0  0
    6.6745   -5.1064    0.0000 C   0  0  0  0  0  0  0  0  0  0  0  0
    8.3208   -4.5683    0.0000 C   0  0  0  0  0  0  0  0  0  0  0  0
    7.6530   -5.3126    0.0000 C   0  0  0  0  0  0  0  0  0  0  0  0
    2.0000   -0.2058    0.0000 C   0  0  0  0  0  0  0  0  0  0  0  0
    7.0868    4.3610    0.0000 C   0  0  0  0  0  0  0  0  0  0  0  0
    6.7795    5.3126    0.0000 C   0  0  0  0  0  0  0  0  0  0  0  0
    7.6139   -0.7058    0.0000 H   0  0  0  0  0  0  0  0  0  0  0  0
    4.5981    0.9142    0.0000 H   0  0  0  0  0  0  0  0  0  0  0  0
    4.5981   -2.3258    0.0000 H   0  0  0  0  0  0  0  0  0  0  0  0
    3.1951   -1.5158    0.0000 H   0  0  0  0  0  0  0  0  0  0  0  0
    8.1765    2.7204    0.0000 H   0  0  0  0  0  0  0  0  0  0  0  0
    8.1153    0.2667    0.0000 H   0  0  0  0  0  0  0  0  0  0  0  0
    8.9815    0.4023    0.0000 H   0  0  0  0  0  0  0  0  0  0  0  0
    8.8459    1.2686    0.0000 H   0  0  0  0  0  0  0  0  0  0  0  0
    5.7571   -4.0280    0.0000 H   0  0  0  0  0  0  0  0  0  0  0  0
    8.4242   -3.1563    0.0000 H   0  0  0  0  0  0  0  0  0  0  0  0
    5.8102    3.7490    0.0000 H   0  0  0  0  0  0  0  0  0  0  0  0
    6.2604   -5.5679    0.0000 H   0  0  0  0  0  0  0  0  0  0  0  0
    8.9275   -4.6962    0.0000 H   0  0  0  0  0  0  0  0  0  0  0  0
    7.8456   -5.9020    0.0000 H   0  0  0  0  0  0  0  0  0  0  0  0
    1.6900    0.3311    0.0000 H   0  0  0  0  0  0  0  0  0  0  0  0
    1.4631   -0.5158    0.0000 H   0  0  0  0  0  0  0  0  0  0  0  0
    2.3100   -0.7428    0.0000 H   0  0  0  0  0  0  0  0  0  0  0  0
    7.3694    5.5032    0.0000 H   0  0  0  0  0  0  0  0  0  0  0  0
    6.5889    5.9026    0.0000 H   0  0  0  0  0  0  0  0  0  0  0  0
    6.1895    5.1221    0.0000 H   0  0  0  0  0  0  0  0  0  0  0  0
  1  2  2  0  0  0  0
  1  3  2  0  0  0  0
  1  6  1  0  0  0  0
  1 18  1  0  0  0  0
  4 19  1  0  0  0  0
  4 28  1  0  0  0  0
  5 29  2  0  0  0  0
  6 10  1  0  0  0  0
  6 13  1  0  0  0  0
  7 17  1  0  0  0  0
  7 21  1  0  0  0  0
  7 35  1  0  0  0  0
  8 14  1  0  0  0  0
  8 21  2  0  0  0  0
  9 21  1  0  0  0  0
  9 29  1  0  0  0  0
  9 41  1  0  0  0  0
 10 11  2  0  0  0  0
 10 16  1  0  0  0  0
 11 12  1  0  0  0  0
 11 15  1  0  0  0  0
 12 13  2  0  0  0  0
 12 14  1  0  0  0  0
 13 31  1  0  0  0  0
 14 17  2  0  0  0  0
 15 19  2  0  0  0  0
 15 32  1  0  0  0  0
 16 20  2  0  0  0  0
 16 33  1  0  0  0  0
 17 22  1  0  0  0  0
 18 23  2  0  0  0  0
 18 24  1  0  0  0  0
 19 20  1  0  0  0  0
 20 34  1  0  0  0  0
 22 36  1  0  0  0  0
 22 37  1  0  0  0  0
 22 38  1  0  0  0  0
 23 25  1  0  0  0  0
 23 39  1  0  0  0  0
 24 26  2  0  0  0  0
 24 40  1  0  0  0  0
 25 27  2  0  0  0  0
 25 42  1  0  0  0  0
 26 27  1  0  0  0  0
 26 43  1  0  0  0  0
 27 44  1  0  0  0  0
 28 45  1  0  0  0  0
 28 46  1  0  0  0  0
 28 47  1  0  0  0  0
 29 30  1  0  0  0  0
 30 48  1  0  0  0  0
 30 49  1  0  0  0  0
 30 50  1  0  0  0  0
M  END
> <PUBCHEM_COMPOUND_CID>
155528355

> <PUBCHEM_COMPOUND_CANONICALIZED>
1

> <PUBCHEM_CACTVS_COMPLEXITY>
721

> <PUBCHEM_CACTVS_HBOND_ACCEPTOR>
5

> <PUBCHEM_CACTVS_HBOND_DONOR>
2

> <PUBCHEM_CACTVS_ROTATABLE_BOND>
5

> <PUBCHEM_CACTVS_SUBSKEYS>
AAADceB7uABAAAAAAAAAAAAAAAAAAWLAAAAwYAAAAAAAAFgB/AAAHgQQQAAADAzB3gY/1/bJlAKoAzV3dHDCiD2xMqAJ2Tg+fJiMbuLE+ZuUMChs0RPI6Cew0PMOgEABAAACAAAAgAIAAAQAAAAAAAAAAA==

> <PUBCHEM_IUPAC_OPENEYE_NAME>
N-[4-[1-(benzenesulfonyl)-5-methoxy-indol-3-yl]-5-methyl-1H-imidazol-2-yl]acetamide

> <PUBCHEM_IUPAC_CAS_NAME>
N-[4-[1-(benzenesulfonyl)-5-methoxy-3-indolyl]-5-methyl-1H-imidazol-2-yl]acetamide

> <PUBCHEM_IUPAC_NAME_MARKUP>
<I>N</I>-[4-[1-(benzenesulfonyl)-5-methoxyindol-3-yl]-5-methyl-1<I>H</I>-imidazol-2-yl]acetamide

> <PUBCHEM_IUPAC_NAME>
N-[4-[1-(benzenesulfonyl)-5-methoxyindol-3-yl]-5-methyl-1H-imidazol-2-yl]acetamide

> <PUBCHEM_IUPAC_SYSTEMATIC_NAME>
N-[4-[5-methoxy-1-(phenylsulfonyl)indol-3-yl]-5-methyl-1H-imidazol-2-yl]ethanamide

> <PUBCHEM_IUPAC_TRADITIONAL_NAME>
N-[4-(1-besyl-5-methoxy-indol-3-yl)-5-methyl-1H-imidazol-2-yl]acetamide

> <PUBCHEM_IUPAC_INCHI>
InChI=1S/C21H20N4O4S/c1-13-20(24-21(22-13)23-14(2)26)18-12-25(19-10-9-15(29-3)11-17(18)19)30(27,28)16-7-5-4-6-8-16/h4-12H,1-3H3,(H2,22,23,24,26)

> <PUBCHEM_IUPAC_INCHIKEY>
XYNYMXQRUAZXOH-UHFFFAOYSA-N

> <PUBCHEM_XLOGP3_AA>
2.9

> <PUBCHEM_EXACT_MASS>
424.12052631

> <PUBCHEM_MOLECULAR_FORMULA>
C21H20N4O4S

> <PUBCHEM_MOLECULAR_WEIGHT>
424.5

> <PUBCHEM_OPENEYE_CAN_SMILES>
CC1=C(N=C(N1)NC(=O)C)C2=CN(C3=C2C=C(C=C3)OC)S(=O)(=O)C4=CC=CC=C4

> <PUBCHEM_OPENEYE_ISO_SMILES>
CC1=C(N=C(N1)NC(=O)C)C2=CN(C3=C2C=C(C=C3)OC)S(=O)(=O)C4=CC=CC=C4

> <PUBCHEM_CACTVS_TPSA>
115

> <PUBCHEM_MONOISOTOPIC_WEIGHT>
424.12052631

> <PUBCHEM_TOTAL_CHARGE>
0

> <PUBCHEM_HEAVY_ATOM_COUNT>
30

> <PUBCHEM_ATOM_DEF_STEREO_COUNT>
0

> <PUBCHEM_ATOM_UDEF_STEREO_COUNT>
0

> <PUBCHEM_BOND_DEF_STEREO_COUNT>
0

> <PUBCHEM_BOND_UDEF_STEREO_COUNT>
0

> <PUBCHEM_ISOTOPIC_ATOM_COUNT>
0

> <PUBCHEM_COMPONENT_COUNT>
1

> <PUBCHEM_CACTVS_TAUTO_COUNT>
-1

> <PUBCHEM_COORDINATE_TYPE>
1
5
255

> <PUBCHEM_BONDANNOTATIONS>
10  11  8
10  16  8
11  12  8
11  15  8
12  13  8
14  17  8
15  19  8
16  20  8
18  23  8
18  24  8
19  20  8
23  25  8
24  26  8
25  27  8
26  27  8
6  10  8
6  13  8
7  17  8
7  21  8
8  14  8
8  21  8

$$$$
