44415646
  -OEChem-09292322482D

 69 75  0     0  0  0  0  0  0999 V2000
    9.9254   -1.2920    0.0000 Cl  0  0  0  0  0  0  0  0  0  0  0  0
    5.2219   -5.1190    0.0000 Cl  0  0  0  0  0  0  0  0  0  0  0  0
    2.6622    7.1190    0.0000 F   0  0  0  0  0  0  0  0  0  0  0  0
    2.0000    6.1477    0.0000 F   0  0  0  0  0  0  0  0  0  0  0  0
    3.0284    5.1840    0.0000 O   0  0  0  0  0  0  0  0  0  0  0  0
    3.9351    6.5138    0.0000 O   0  0  0  0  0  0  0  0  0  0  0  0
    7.8200   -3.6190    0.0000 O   0  0  0  0  0  0  0  0  0  0  0  0
    4.2863    2.2746    0.0000 N   0  0  0  0  0  0  0  0  0  0  0  0
    5.1541    0.4726    0.0000 N   0  0  0  0  0  0  0  0  0  0  0  0
    6.5880   -0.4284    0.0000 N   0  0  0  0  0  0  0  0  0  0  0  0
    6.0879   -2.6190    0.0000 N   0  0  0  0  0  0  0  0  0  0  0  0
    6.0879   -3.6190    0.0000 N   0  0  0  0  0  0  0  0  0  0  0  0
    3.7230    1.4483    0.0000 C   0  0  0  0  0  0  0  0  0  0  0  0
    5.2835    2.1998    0.0000 C   0  0  0  0  0  0  0  0  0  0  0  0
    4.1569    0.5473    0.0000 C   0  0  0  0  0  0  0  0  0  0  0  0
    5.7174    1.2988    0.0000 C   0  0  0  0  0  0  0  0  0  0  0  0
    3.8524    3.1755    0.0000 C   0  0  0  0  0  0  0  0  0  0  0  0
    5.5880   -0.4284    0.0000 C   0  0  0  0  0  0  0  0  0  0  0  0
    4.4158    4.0018    0.0000 C   0  0  0  0  0  0  0  0  0  0  0  0
    4.9644   -1.2102    0.0000 C   0  0  0  0  0  0  0  0  0  0  0  0
    5.1870   -2.1851    0.0000 C   0  0  0  0  0  0  0  0  0  0  0  0
    3.9819    4.9027    0.0000 C   0  0  0  0  0  0  0  0  0  0  0  0
    5.4130    3.9270    0.0000 C   0  0  0  0  0  0  0  0  0  0  0  0
    7.2114   -1.2102    0.0000 C   0  0  0  0  0  0  0  0  0  0  0  0
    6.9889   -2.1851    0.0000 C   0  0  0  0  0  0  0  0  0  0  0  0
    3.9740   -0.8879    0.0000 C   0  0  0  0  0  0  0  0  0  0  0  0
    4.5452    5.7290    0.0000 C   0  0  0  0  0  0  0  0  0  0  0  0
    4.4344   -2.9053    0.0000 C   0  0  0  0  0  0  0  0  0  0  0  0
    5.9763    4.7533    0.0000 C   0  0  0  0  0  0  0  0  0  0  0  0
    5.5424    5.6542    0.0000 C   0  0  0  0  0  0  0  0  0  0  0  0
    3.2049   -1.5904    0.0000 C   0  0  0  0  0  0  0  0  0  0  0  0
    3.4367   -2.6060    0.0000 C   0  0  0  0  0  0  0  0  0  0  0  0
    8.2019   -0.8879    0.0000 C   0  0  0  0  0  0  0  0  0  0  0  0
    7.7414   -2.9053    0.0000 C   0  0  0  0  0  0  0  0  0  0  0  0
    2.9996    6.1776    0.0000 C   0  0  0  0  0  0  0  0  0  0  0  0
    8.9709   -1.5905    0.0000 C   0  0  0  0  0  0  0  0  0  0  0  0
    8.7392   -2.6060    0.0000 C   0  0  0  0  0  0  0  0  0  0  0  0
    6.9539   -4.1190    0.0000 C   0  0  0  0  0  0  0  0  0  0  0  0
    6.9539   -5.1190    0.0000 C   0  0  0  0  0  0  0  0  0  0  0  0
    6.0879   -5.6190    0.0000 C   0  0  0  0  0  0  0  0  0  0  0  0
    7.8200   -5.6190    0.0000 C   0  0  0  0  0  0  0  0  0  0  0  0
    6.0879   -6.6190    0.0000 C   0  0  0  0  0  0  0  0  0  0  0  0
    7.8200   -6.6190    0.0000 C   0  0  0  0  0  0  0  0  0  0  0  0
    6.9539   -7.1190    0.0000 C   0  0  0  0  0  0  0  0  0  0  0  0
    3.2792    1.8812    0.0000 H   0  0  0  0  0  0  0  0  0  0  0  0
    3.2196    1.0864    0.0000 H   0  0  0  0  0  0  0  0  0  0  0  0
    5.8804    2.3677    0.0000 H   0  0  0  0  0  0  0  0  0  0  0  0
    5.2218    2.8167    0.0000 H   0  0  0  0  0  0  0  0  0  0  0  0
    3.5600    0.3794    0.0000 H   0  0  0  0  0  0  0  0  0  0  0  0
    4.2186   -0.0696    0.0000 H   0  0  0  0  0  0  0  0  0  0  0  0
    6.1612    0.8659    0.0000 H   0  0  0  0  0  0  0  0  0  0  0  0
    6.2208    1.6608    0.0000 H   0  0  0  0  0  0  0  0  0  0  0  0
    3.4086    3.6084    0.0000 H   0  0  0  0  0  0  0  0  0  0  0  0
    3.3490    2.8136    0.0000 H   0  0  0  0  0  0  0  0  0  0  0  0
    5.6820    3.3684    0.0000 H   0  0  0  0  0  0  0  0  0  0  0  0
    3.8430   -0.2818    0.0000 H   0  0  0  0  0  0  0  0  0  0  0  0
    4.5793   -3.5081    0.0000 H   0  0  0  0  0  0  0  0  0  0  0  0
    6.5946    4.7069    0.0000 H   0  0  0  0  0  0  0  0  0  0  0  0
    5.8917    6.1665    0.0000 H   0  0  0  0  0  0  0  0  0  0  0  0
    2.6132   -1.4054    0.0000 H   0  0  0  0  0  0  0  0  0  0  0  0
    2.9838   -3.0294    0.0000 H   0  0  0  0  0  0  0  0  0  0  0  0
    8.3329   -0.2819    0.0000 H   0  0  0  0  0  0  0  0  0  0  0  0
    7.5965   -3.5081    0.0000 H   0  0  0  0  0  0  0  0  0  0  0  0
    5.5510   -3.9290    0.0000 H   0  0  0  0  0  0  0  0  0  0  0  0
    9.1920   -3.0295    0.0000 H   0  0  0  0  0  0  0  0  0  0  0  0
    8.3569   -5.3090    0.0000 H   0  0  0  0  0  0  0  0  0  0  0  0
    5.5510   -6.9290    0.0000 H   0  0  0  0  0  0  0  0  0  0  0  0
    8.3569   -6.9290    0.0000 H   0  0  0  0  0  0  0  0  0  0  0  0
    6.9539   -7.7390    0.0000 H   0  0  0  0  0  0  0  0  0  0  0  0
  1 36  1  0  0  0  0
  2 40  1  0  0  0  0
  3 35  1  0  0  0  0
  4 35  1  0  0  0  0
  5 22  1  0  0  0  0
  5 35  1  0  0  0  0
  6 27  1  0  0  0  0
  6 35  1  0  0  0  0
  7 38  2  0  0  0  0
  8 13  1  0  0  0  0
  8 14  1  0  0  0  0
  8 17  1  0  0  0  0
  9 15  1  0  0  0  0
  9 16  1  0  0  0  0
  9 18  1  0  0  0  0
 10 18  2  0  0  0  0
 10 24  1  0  0  0  0
 11 12  1  0  0  0  0
 11 21  1  0  0  0  0
 11 25  1  0  0  0  0
 12 38  1  0  0  0  0
 12 64  1  0  0  0  0
 13 15  1  0  0  0  0
 13 45  1  0  0  0  0
 13 46  1  0  0  0  0
 14 16  1  0  0  0  0
 14 47  1  0  0  0  0
 14 48  1  0  0  0  0
 15 49  1  0  0  0  0
 15 50  1  0  0  0  0
 16 51  1  0  0  0  0
 16 52  1  0  0  0  0
 17 19  1  0  0  0  0
 17 53  1  0  0  0  0
 17 54  1  0  0  0  0
 18 20  1  0  0  0  0
 19 22  2  0  0  0  0
 19 23  1  0  0  0  0
 20 21  1  0  0  0  0
 20 26  2  0  0  0  0
 21 28  2  0  0  0  0
 22 27  1  0  0  0  0
 23 29  2  0  0  0  0
 23 55  1  0  0  0  0
 24 25  2  0  0  0  0
 24 33  1  0  0  0  0
 25 34  1  0  0  0  0
 26 31  1  0  0  0  0
 26 56  1  0  0  0  0
 27 30  2  0  0  0  0
 28 32  1  0  0  0  0
 28 57  1  0  0  0  0
 29 30  1  0  0  0  0
 29 58  1  0  0  0  0
 30 59  1  0  0  0  0
 31 32  2  0  0  0  0
 31 60  1  0  0  0  0
 32 61  1  0  0  0  0
 33 36  2  0  0  0  0
 33 62  1  0  0  0  0
 34 37  2  0  0  0  0
 34 63  1  0  0  0  0
 36 37  1  0  0  0  0
 37 65  1  0  0  0  0
 38 39  1  0  0  0  0
 39 40  1  0  0  0  0
 39 41  2  0  0  0  0
 40 42  2  0  0  0  0
 41 43  1  0  0  0  0
 41 66  1  0  0  0  0
 42 44  1  0  0  0  0
 42 67  1  0  0  0  0
 43 44  2  0  0  0  0
 43 68  1  0  0  0  0
 44 69  1  0  0  0  0
M  END
> <PUBCHEM_COMPOUND_CID>
44415646

> <PUBCHEM_COMPOUND_CANONICALIZED>
1

> <PUBCHEM_CACTVS_COMPLEXITY>
1060

> <PUBCHEM_CACTVS_HBOND_ACCEPTOR>
8

> <PUBCHEM_CACTVS_HBOND_DONOR>
1

> <PUBCHEM_CACTVS_ROTATABLE_BOND>
5

> <PUBCHEM_CACTVS_SUBSKEYS>
AAADceB/sYAGAAAAAAAAAAAAAAAAASAAAAA8YMGCBAAAAEgBVAAAHwIYAAAADA7BmDQxzoNiBACoAidydACCDAElJwAbqAEu/tgdZvLF/5u0MSpmwBHO7Ye4yDCOAABBAAILQCAAAIIABBaAQAAAAAAAAA==

> <PUBCHEM_IUPAC_OPENEYE_NAME>
2-chloro-N-[3-chloro-6-[4-[(2,2-difluoro-1,3-benzodioxol-4-yl)methyl]piperazin-1-yl]benzo[b][1,4]benzodiazepin-11-yl]benzamide

> <PUBCHEM_IUPAC_CAS_NAME>
2-chloro-N-[3-chloro-6-[4-[(2,2-difluoro-1,3-benzodioxol-4-yl)methyl]-1-piperazinyl]-11-benzo[b][1,4]benzodiazepinyl]benzamide

> <PUBCHEM_IUPAC_NAME_MARKUP>
2-chloro-<I>N</I>-[3-chloro-6-[4-[(2,2-difluoro-1,3-benzodioxol-4-yl)methyl]piperazin-1-yl]benzo[b][1,4]benzodiazepin-11-yl]benzamide

> <PUBCHEM_IUPAC_NAME>
2-chloro-N-[3-chloro-6-[4-[(2,2-difluoro-1,3-benzodioxol-4-yl)methyl]piperazin-1-yl]benzo[b][1,4]benzodiazepin-11-yl]benzamide

> <PUBCHEM_IUPAC_SYSTEMATIC_NAME>
N-[6-[4-[[2,2-bis(fluoranyl)-1,3-benzodioxol-4-yl]methyl]piperazin-1-yl]-3-chloranyl-benzo[b][1,4]benzodiazepin-11-yl]-2-chloranyl-benzamide

> <PUBCHEM_IUPAC_TRADITIONAL_NAME>
2-chloro-N-[3-chloro-6-[4-[(2,2-difluoro-1,3-benzodioxol-4-yl)methyl]piperazino]benzo[b][1,4]benzodiazepin-11-yl]benzamide

> <PUBCHEM_IUPAC_INCHI>
InChI=1S/C32H25Cl2F2N5O3/c33-21-12-13-27-25(18-21)37-30(23-8-2-4-10-26(23)41(27)38-31(42)22-7-1-3-9-24(22)34)40-16-14-39(15-17-40)19-20-6-5-11-28-29(20)44-32(35,36)43-28/h1-13,18H,14-17,19H2,(H,38,42)

> <PUBCHEM_IUPAC_INCHIKEY>
MCISFZLVURUIGO-UHFFFAOYSA-N

> <PUBCHEM_XLOGP3_AA>
7.1

> <PUBCHEM_EXACT_MASS>
635.1302514

> <PUBCHEM_MOLECULAR_FORMULA>
C32H25Cl2F2N5O3

> <PUBCHEM_MOLECULAR_WEIGHT>
636.5

> <PUBCHEM_OPENEYE_CAN_SMILES>
C1CN(CCN1CC2=C3C(=CC=C2)OC(O3)(F)F)C4=NC5=C(C=CC(=C5)Cl)N(C6=CC=CC=C64)NC(=O)C7=CC=CC=C7Cl

> <PUBCHEM_OPENEYE_ISO_SMILES>
C1CN(CCN1CC2=C3C(=CC=C2)OC(O3)(F)F)C4=NC5=C(C=CC(=C5)Cl)N(C6=CC=CC=C64)NC(=O)C7=CC=CC=C7Cl

> <PUBCHEM_CACTVS_TPSA>
69.6

> <PUBCHEM_MONOISOTOPIC_WEIGHT>
635.1302514

> <PUBCHEM_TOTAL_CHARGE>
0

> <PUBCHEM_HEAVY_ATOM_COUNT>
44

> <PUBCHEM_ATOM_DEF_STEREO_COUNT>
0

> <PUBCHEM_ATOM_UDEF_STEREO_COUNT>
0

> <PUBCHEM_BOND_DEF_STEREO_COUNT>
0

> <PUBCHEM_BOND_UDEF_STEREO_COUNT>
0

> <PUBCHEM_ISOTOPIC_ATOM_COUNT>
0

> <PUBCHEM_COMPONENT_COUNT>
1

> <PUBCHEM_CACTVS_TAUTO_COUNT>
-1

> <PUBCHEM_COORDINATE_TYPE>
1
5
255

> <PUBCHEM_BONDANNOTATIONS>
19  22  8
19  23  8
20  21  8
20  26  8
21  28  8
22  27  8
23  29  8
24  25  8
24  33  8
25  34  8
26  31  8
27  30  8
28  32  8
29  30  8
31  32  8
33  36  8
34  37  8
36  37  8
39  40  8
39  41  8
40  42  8
41  43  8
42  44  8
43  44  8

$$$$
