168282819
  -OEChem-09292322442D

 56 59  0     0  0  0  0  0  0999 V2000
   11.1241    2.5655    0.0000 O   0  0  0  0  0  0  0  0  0  0  0  0
   13.0811    2.9779    0.0000 O   0  0  0  0  0  0  0  0  0  0  0  0
    4.6783   -4.8277    0.0000 N   0  0  0  0  0  0  0  0  0  0  0  0
    6.2781   -1.1110    0.0000 N   0  0  0  0  0  0  0  0  0  0  0  0
    8.8564    1.2025    0.0000 N   0  0  0  0  0  0  0  0  0  0  0  0
    7.5673    0.0458    0.0000 N   0  0  0  0  0  0  0  0  0  0  0  0
    7.9244   -1.6491    0.0000 N   0  0  0  0  0  0  0  0  0  0  0  0
    9.2136   -0.4923    0.0000 N   0  0  0  0  0  0  0  0  0  0  0  0
    9.5708   -2.1871    0.0000 N   0  0  0  0  0  0  0  0  0  0  0  0
    4.6783   -3.2182    0.0000 C   0  0  0  0  0  0  0  0  0  0  0  0
    4.9889   -2.2677    0.0000 C   0  0  0  0  0  0  0  0  0  0  0  0
    3.7320   -3.5230    0.0000 C   0  0  0  0  0  0  0  0  0  0  0  0
    3.7320   -4.5230    0.0000 C   0  0  0  0  0  0  0  0  0  0  0  0
    5.9674   -2.0615    0.0000 C   0  0  0  0  0  0  0  0  0  0  0  0
    5.2619   -4.0230    0.0000 C   0  0  0  0  0  0  0  0  0  0  0  0
    2.8660   -3.0230    0.0000 C   0  0  0  0  0  0  0  0  0  0  0  0
    2.8660   -5.0230    0.0000 C   0  0  0  0  0  0  0  0  0  0  0  0
    2.0000   -3.5230    0.0000 C   0  0  0  0  0  0  0  0  0  0  0  0
    2.0000   -4.5230    0.0000 C   0  0  0  0  0  0  0  0  0  0  0  0
    7.2566   -0.9048    0.0000 C   0  0  0  0  0  0  0  0  0  0  0  0
    9.8349    1.4087    0.0000 C   0  0  0  0  0  0  0  0  0  0  0  0
   10.1456    2.3592    0.0000 C   0  0  0  0  0  0  0  0  0  0  0  0
    8.5458    0.2520    0.0000 C   0  0  0  0  0  0  0  0  0  0  0  0
   11.4348    3.5160    0.0000 C   0  0  0  0  0  0  0  0  0  0  0  0
    8.9030   -1.4428    0.0000 C   0  0  0  0  0  0  0  0  0  0  0  0
   12.4133    3.7222    0.0000 C   0  0  0  0  0  0  0  0  0  0  0  0
   10.7669    4.2603    0.0000 C   0  0  0  0  0  0  0  0  0  0  0  0
   12.7239    4.6727    0.0000 C   0  0  0  0  0  0  0  0  0  0  0  0
   11.0776    5.2108    0.0000 C   0  0  0  0  0  0  0  0  0  0  0  0
   12.0561    5.4170    0.0000 C   0  0  0  0  0  0  0  0  0  0  0  0
   14.0596    3.1841    0.0000 C   0  0  0  0  0  0  0  0  0  0  0  0
    4.9684   -1.6481    0.0000 H   0  0  0  0  0  0  0  0  0  0  0  0
    4.3751   -2.1804    0.0000 H   0  0  0  0  0  0  0  0  0  0  0  0
    5.9880   -2.6812    0.0000 H   0  0  0  0  0  0  0  0  0  0  0  0
    6.5812   -2.1488    0.0000 H   0  0  0  0  0  0  0  0  0  0  0  0
    5.8819   -4.0230    0.0000 H   0  0  0  0  0  0  0  0  0  0  0  0
    4.8709   -5.4170    0.0000 H   0  0  0  0  0  0  0  0  0  0  0  0
    2.8660   -2.4030    0.0000 H   0  0  0  0  0  0  0  0  0  0  0  0
    2.8660   -5.6430    0.0000 H   0  0  0  0  0  0  0  0  0  0  0  0
    5.8640   -0.6495    0.0000 H   0  0  0  0  0  0  0  0  0  0  0  0
    1.4631   -3.2130    0.0000 H   0  0  0  0  0  0  0  0  0  0  0  0
    1.4631   -4.8330    0.0000 H   0  0  0  0  0  0  0  0  0  0  0  0
    9.8555    0.7891    0.0000 H   0  0  0  0  0  0  0  0  0  0  0  0
   10.4488    1.3214    0.0000 H   0  0  0  0  0  0  0  0  0  0  0  0
   10.1250    2.9789    0.0000 H   0  0  0  0  0  0  0  0  0  0  0  0
    9.5318    2.4466    0.0000 H   0  0  0  0  0  0  0  0  0  0  0  0
    8.4424    1.6640    0.0000 H   0  0  0  0  0  0  0  0  0  0  0  0
   10.1603    4.1324    0.0000 H   0  0  0  0  0  0  0  0  0  0  0  0
   13.3306    4.8006    0.0000 H   0  0  0  0  0  0  0  0  0  0  0  0
   10.6635    5.6723    0.0000 H   0  0  0  0  0  0  0  0  0  0  0  0
   12.2487    6.0063    0.0000 H   0  0  0  0  0  0  0  0  0  0  0  0
   10.1775   -2.0593    0.0000 H   0  0  0  0  0  0  0  0  0  0  0  0
    9.3782   -2.7765    0.0000 H   0  0  0  0  0  0  0  0  0  0  0  0
   14.1875    2.5774    0.0000 H   0  0  0  0  0  0  0  0  0  0  0  0
   14.6663    3.3120    0.0000 H   0  0  0  0  0  0  0  0  0  0  0  0
   13.9318    3.7908    0.0000 H   0  0  0  0  0  0  0  0  0  0  0  0
  1 22  1  0  0  0  0
  1 24  1  0  0  0  0
  2 26  1  0  0  0  0
  2 31  1  0  0  0  0
  3 13  1  0  0  0  0
  3 15  1  0  0  0  0
  3 37  1  0  0  0  0
  4 14  1  0  0  0  0
  4 20  1  0  0  0  0
  4 40  1  0  0  0  0
  5 21  1  0  0  0  0
  5 23  1  0  0  0  0
  5 47  1  0  0  0  0
  6 20  2  0  0  0  0
  6 23  1  0  0  0  0
  7 20  1  0  0  0  0
  7 25  2  0  0  0  0
  8 23  2  0  0  0  0
  8 25  1  0  0  0  0
  9 25  1  0  0  0  0
  9 52  1  0  0  0  0
  9 53  1  0  0  0  0
 10 11  1  0  0  0  0
 10 12  1  0  0  0  0
 10 15  2  0  0  0  0
 11 14  1  0  0  0  0
 11 32  1  0  0  0  0
 11 33  1  0  0  0  0
 12 13  1  0  0  0  0
 12 16  2  0  0  0  0
 13 17  2  0  0  0  0
 14 34  1  0  0  0  0
 14 35  1  0  0  0  0
 15 36  1  0  0  0  0
 16 18  1  0  0  0  0
 16 38  1  0  0  0  0
 17 19  1  0  0  0  0
 17 39  1  0  0  0  0
 18 19  2  0  0  0  0
 18 41  1  0  0  0  0
 19 42  1  0  0  0  0
 21 22  1  0  0  0  0
 21 43  1  0  0  0  0
 21 44  1  0  0  0  0
 22 45  1  0  0  0  0
 22 46  1  0  0  0  0
 24 26  1  0  0  0  0
 24 27  2  0  0  0  0
 26 28  2  0  0  0  0
 27 29  1  0  0  0  0
 27 48  1  0  0  0  0
 28 30  1  0  0  0  0
 28 49  1  0  0  0  0
 29 30  2  0  0  0  0
 29 50  1  0  0  0  0
 30 51  1  0  0  0  0
 31 54  1  0  0  0  0
 31 55  1  0  0  0  0
 31 56  1  0  0  0  0
M  END
> <PUBCHEM_COMPOUND_CID>
168282819

> <PUBCHEM_COMPOUND_CANONICALIZED>
1

> <PUBCHEM_CACTVS_COMPLEXITY>
528

> <PUBCHEM_CACTVS_HBOND_ACCEPTOR>
8

> <PUBCHEM_CACTVS_HBOND_DONOR>
4

> <PUBCHEM_CACTVS_ROTATABLE_BOND>
10

> <PUBCHEM_CACTVS_SUBSKEYS>
AAADceB7sAAAAAAAAAAAAAAAAAAAAWAAAAA8YIAAAAAAAFgB/AAAHgAQAAAADAzhngY/1vbJlACgAzRnZACCiCkxIqAJ2aA+7JiPLuLEuZuHOCrs0BPa6AeQwMAOgAAAAAACQAAAAAAAAASAAAAAAAAAAA==

> <PUBCHEM_IUPAC_OPENEYE_NAME>
N4-[2-(1H-indol-3-yl)ethyl]-N2-[2-(2-methoxyphenoxy)ethyl]-1,3,5-triazine-2,4,6-triamine

> <PUBCHEM_IUPAC_CAS_NAME>
N4-[2-(1H-indol-3-yl)ethyl]-N2-[2-(2-methoxyphenoxy)ethyl]-1,3,5-triazine-2,4,6-triamine

> <PUBCHEM_IUPAC_NAME_MARKUP>
4-<I>N</I>-[2-(1<I>H</I>-indol-3-yl)ethyl]-2-<I>N</I>-[2-(2-methoxyphenoxy)ethyl]-1,3,5-triazine-2,4,6-triamine

> <PUBCHEM_IUPAC_NAME>
4-N-[2-(1H-indol-3-yl)ethyl]-2-N-[2-(2-methoxyphenoxy)ethyl]-1,3,5-triazine-2,4,6-triamine

> <PUBCHEM_IUPAC_SYSTEMATIC_NAME>
N4-[2-(1H-indol-3-yl)ethyl]-N2-[2-(2-methoxyphenoxy)ethyl]-1,3,5-triazine-2,4,6-triamine

> <PUBCHEM_IUPAC_TRADITIONAL_NAME>
[4-amino-6-[2-(1H-indol-3-yl)ethylamino]-s-triazin-2-yl]-[2-(2-methoxyphenoxy)ethyl]amine

> <PUBCHEM_IUPAC_INCHI>
InChI=1S/C22H25N7O2/c1-30-18-8-4-5-9-19(18)31-13-12-25-22-28-20(23)27-21(29-22)24-11-10-15-14-26-17-7-3-2-6-16(15)17/h2-9,14,26H,10-13H2,1H3,(H4,23,24,25,27,28,29)

> <PUBCHEM_IUPAC_INCHIKEY>
XNPKKTJJUINFAT-UHFFFAOYSA-N

> <PUBCHEM_XLOGP3_AA>
4

> <PUBCHEM_EXACT_MASS>
419.20697307

> <PUBCHEM_MOLECULAR_FORMULA>
C22H25N7O2

> <PUBCHEM_MOLECULAR_WEIGHT>
419.5

> <PUBCHEM_OPENEYE_CAN_SMILES>
COC1=CC=CC=C1OCCNC2=NC(=NC(=N2)NCCC3=CNC4=CC=CC=C43)N

> <PUBCHEM_OPENEYE_ISO_SMILES>
COC1=CC=CC=C1OCCNC2=NC(=NC(=N2)NCCC3=CNC4=CC=CC=C43)N

> <PUBCHEM_CACTVS_TPSA>
123

> <PUBCHEM_MONOISOTOPIC_WEIGHT>
419.20697307

> <PUBCHEM_TOTAL_CHARGE>
0

> <PUBCHEM_HEAVY_ATOM_COUNT>
31

> <PUBCHEM_ATOM_DEF_STEREO_COUNT>
0

> <PUBCHEM_ATOM_UDEF_STEREO_COUNT>
0

> <PUBCHEM_BOND_DEF_STEREO_COUNT>
0

> <PUBCHEM_BOND_UDEF_STEREO_COUNT>
0

> <PUBCHEM_ISOTOPIC_ATOM_COUNT>
0

> <PUBCHEM_COMPONENT_COUNT>
1

> <PUBCHEM_CACTVS_TAUTO_COUNT>
-1

> <PUBCHEM_COORDINATE_TYPE>
1
5
255

> <PUBCHEM_BONDANNOTATIONS>
10  12  8
10  15  8
12  13  8
12  16  8
13  17  8
16  18  8
17  19  8
18  19  8
24  26  8
24  27  8
26  28  8
27  29  8
28  30  8
29  30  8
3  13  8
3  15  8
6  20  8
6  23  8
7  20  8
7  25  8
8  23  8
8  25  8

$$$$
