10405678
  -OEChem-09292322122D

 43 44  0     1  0  0  0  0  0999 V2000
    3.7320   -3.3170    0.0000 S   0  0  0  0  0  0  0  0  0  0  0  0
    2.0000   -4.3170    0.0000 F   0  0  0  0  0  0  0  0  0  0  0  0
    3.3660   -4.6830    0.0000 F   0  0  0  0  0  0  0  0  0  0  0  0
    2.3660   -2.9510    0.0000 F   0  0  0  0  0  0  0  0  0  0  0  0
    4.5981   -2.8170    0.0000 O   0  0  0  0  0  0  0  0  0  0  0  0
    4.2320   -4.1830    0.0000 O   0  0  0  0  0  0  0  0  0  0  0  0
    3.2320   -2.4510    0.0000 O   0  0  0  0  0  0  0  0  0  0  0  0
    3.7320    2.6830    0.0000 N   0  0  3  0  0  0  0  0  0  0  0  0
    4.5981    1.1830    0.0000 C   0  0  1  0  0  0  0  0  0  0  0  0
    3.7320    1.6830    0.0000 C   0  0  0  0  0  0  0  0  0  0  0  0
    5.4641    1.6830    0.0000 C   0  0  0  0  0  0  0  0  0  0  0  0
    5.4641    2.6830    0.0000 C   0  0  0  0  0  0  0  0  0  0  0  0
    4.5981    3.1830    0.0000 C   0  0  0  0  0  0  0  0  0  0  0  0
    2.8660    3.1830    0.0000 C   0  0  0  0  0  0  0  0  0  0  0  0
    4.5981    0.1830    0.0000 C   0  0  0  0  0  0  0  0  0  0  0  0
    2.8660    4.1830    0.0000 C   0  0  0  0  0  0  0  0  0  0  0  0
    5.4641   -0.3170    0.0000 C   0  0  0  0  0  0  0  0  0  0  0  0
    3.7320   -0.3170    0.0000 C   0  0  0  0  0  0  0  0  0  0  0  0
    2.0000    4.6830    0.0000 C   0  0  0  0  0  0  0  0  0  0  0  0
    5.4641   -1.3170    0.0000 C   0  0  0  0  0  0  0  0  0  0  0  0
    3.7320   -1.3170    0.0000 C   0  0  0  0  0  0  0  0  0  0  0  0
    4.5981   -1.8170    0.0000 C   0  0  0  0  0  0  0  0  0  0  0  0
    2.8660   -3.8170    0.0000 C   0  0  0  0  0  0  0  0  0  0  0  0
    5.1350    0.8730    0.0000 H   0  0  0  0  0  0  0  0  0  0  0  0
    3.1215    1.7907    0.0000 H   0  0  0  0  0  0  0  0  0  0  0  0
    3.5200    1.1004    0.0000 H   0  0  0  0  0  0  0  0  0  0  0  0
    5.6762    1.1004    0.0000 H   0  0  0  0  0  0  0  0  0  0  0  0
    6.0747    1.7907    0.0000 H   0  0  0  0  0  0  0  0  0  0  0  0
    6.0747    2.5753    0.0000 H   0  0  0  0  0  0  0  0  0  0  0  0
    5.6762    3.2656    0.0000 H   0  0  0  0  0  0  0  0  0  0  0  0
    4.9966    3.6580    0.0000 H   0  0  0  0  0  0  0  0  0  0  0  0
    4.1996    3.6580    0.0000 H   0  0  0  0  0  0  0  0  0  0  0  0
    2.2554    3.2907    0.0000 H   0  0  0  0  0  0  0  0  0  0  0  0
    2.6540    2.6004    0.0000 H   0  0  0  0  0  0  0  0  0  0  0  0
    3.4766    4.0754    0.0000 H   0  0  0  0  0  0  0  0  0  0  0  0
    3.0781    4.7656    0.0000 H   0  0  0  0  0  0  0  0  0  0  0  0
    6.0010   -0.0070    0.0000 H   0  0  0  0  0  0  0  0  0  0  0  0
    3.1951   -0.0070    0.0000 H   0  0  0  0  0  0  0  0  0  0  0  0
    2.3100    5.2200    0.0000 H   0  0  0  0  0  0  0  0  0  0  0  0
    1.4631    4.9930    0.0000 H   0  0  0  0  0  0  0  0  0  0  0  0
    1.6900    4.1461    0.0000 H   0  0  0  0  0  0  0  0  0  0  0  0
    6.0010   -1.6270    0.0000 H   0  0  0  0  0  0  0  0  0  0  0  0
    3.1951   -1.6270    0.0000 H   0  0  0  0  0  0  0  0  0  0  0  0
  1  5  1  0  0  0  0
  1  6  2  0  0  0  0
  1  7  2  0  0  0  0
  1 23  1  0  0  0  0
  2 23  1  0  0  0  0
  3 23  1  0  0  0  0
  4 23  1  0  0  0  0
  5 22  1  0  0  0  0
  8 10  1  0  0  0  0
  8 13  1  0  0  0  0
  8 14  1  0  0  0  0
  9 10  1  0  0  0  0
  9 11  1  0  0  0  0
  9 15  1  1  0  0  0
  9 24  1  0  0  0  0
 10 25  1  0  0  0  0
 10 26  1  0  0  0  0
 11 12  1  0  0  0  0
 11 27  1  0  0  0  0
 11 28  1  0  0  0  0
 12 13  1  0  0  0  0
 12 29  1  0  0  0  0
 12 30  1  0  0  0  0
 13 31  1  0  0  0  0
 13 32  1  0  0  0  0
 14 16  1  0  0  0  0
 14 33  1  0  0  0  0
 14 34  1  0  0  0  0
 15 17  2  0  0  0  0
 15 18  1  0  0  0  0
 16 19  1  0  0  0  0
 16 35  1  0  0  0  0
 16 36  1  0  0  0  0
 17 20  1  0  0  0  0
 17 37  1  0  0  0  0
 18 21  2  0  0  0  0
 18 38  1  0  0  0  0
 19 39  1  0  0  0  0
 19 40  1  0  0  0  0
 19 41  1  0  0  0  0
 20 22  2  0  0  0  0
 20 42  1  0  0  0  0
 21 22  1  0  0  0  0
 21 43  1  0  0  0  0
M  END
> <PUBCHEM_COMPOUND_CID>
10405678

> <PUBCHEM_COMPOUND_CANONICALIZED>
1

> <PUBCHEM_CACTVS_COMPLEXITY>
467

> <PUBCHEM_CACTVS_HBOND_ACCEPTOR>
7

> <PUBCHEM_CACTVS_HBOND_DONOR>
0

> <PUBCHEM_CACTVS_ROTATABLE_BOND>
5

> <PUBCHEM_CACTVS_SUBSKEYS>
AAADceByMYBAAAAAAAAAAAAAAAAAAAAAAAA8QAAAAAAAAAABAAAAHwQAAAAADQTBmBQyBoMAAAKAAiBCAHACAAAgIAAIiAAOCIgIJiKAkROEMAAkwBGIiAeQwPAOoAAAAAAAAABAAAAAAAAAAAAAAAAAAA==

> <PUBCHEM_IUPAC_OPENEYE_NAME>
[4-[(3S)-1-propyl-3-piperidyl]phenyl] trifluoromethanesulfonate

> <PUBCHEM_IUPAC_CAS_NAME>
trifluoromethanesulfonic acid [4-[(3S)-1-propyl-3-piperidinyl]phenyl] ester

> <PUBCHEM_IUPAC_NAME_MARKUP>
[4-[(3<I>S</I>)-1-propylpiperidin-3-yl]phenyl] trifluoromethanesulfonate

> <PUBCHEM_IUPAC_NAME>
[4-[(3S)-1-propylpiperidin-3-yl]phenyl] trifluoromethanesulfonate

> <PUBCHEM_IUPAC_SYSTEMATIC_NAME>
[4-[(3S)-1-propylpiperidin-3-yl]phenyl] tris(fluoranyl)methanesulfonate

> <PUBCHEM_IUPAC_TRADITIONAL_NAME>
trifluoromethanesulfonic acid [4-[(3S)-1-propyl-3-piperidyl]phenyl] ester

> <PUBCHEM_IUPAC_INCHI>
InChI=1S/C15H20F3NO3S/c1-2-9-19-10-3-4-13(11-19)12-5-7-14(8-6-12)22-23(20,21)15(16,17)18/h5-8,13H,2-4,9-11H2,1H3/t13-/m1/s1

> <PUBCHEM_IUPAC_INCHIKEY>
QBBNRIPQRWMMNR-CYBMUJFWSA-N

> <PUBCHEM_XLOGP3_AA>
4.1

> <PUBCHEM_EXACT_MASS>
351.11159916

> <PUBCHEM_MOLECULAR_FORMULA>
C15H20F3NO3S

> <PUBCHEM_MOLECULAR_WEIGHT>
351.4

> <PUBCHEM_OPENEYE_CAN_SMILES>
CCCN1CCCC(C1)C2=CC=C(C=C2)OS(=O)(=O)C(F)(F)F

> <PUBCHEM_OPENEYE_ISO_SMILES>
CCCN1CCC[C@H](C1)C2=CC=C(C=C2)OS(=O)(=O)C(F)(F)F

> <PUBCHEM_CACTVS_TPSA>
55

> <PUBCHEM_MONOISOTOPIC_WEIGHT>
351.11159916

> <PUBCHEM_TOTAL_CHARGE>
0

> <PUBCHEM_HEAVY_ATOM_COUNT>
23

> <PUBCHEM_ATOM_DEF_STEREO_COUNT>
1

> <PUBCHEM_ATOM_UDEF_STEREO_COUNT>
0

> <PUBCHEM_BOND_DEF_STEREO_COUNT>
0

> <PUBCHEM_BOND_UDEF_STEREO_COUNT>
0

> <PUBCHEM_ISOTOPIC_ATOM_COUNT>
0

> <PUBCHEM_COMPONENT_COUNT>
1

> <PUBCHEM_CACTVS_TAUTO_COUNT>
-1

> <PUBCHEM_COORDINATE_TYPE>
1
5
255

> <PUBCHEM_BONDANNOTATIONS>
15  17  8
15  18  8
17  20  8
18  21  8
20  22  8
21  22  8
9  15  5

$$$$
