51355426
  -OEChem-09292322312D

 73 74  0     0  0  0  0  0  0999 V2000
   11.7341    1.6200    0.0000 Br  0  0  0  0  0  0  0  0  0  0  0  0
    5.6720    3.1200    0.0000 F   0  0  0  0  0  0  0  0  0  0  0  0
   10.8681   12.1200    0.0000 O   0  0  0  0  0  0  0  0  0  0  0  0
    8.2700    3.6200    0.0000 O   0  0  0  0  0  0  0  0  0  0  0  0
    9.1360    5.1200    0.0000 O   0  0  0  0  0  0  0  0  0  0  0  0
    8.2700    1.6200    0.0000 O   0  0  0  0  0  0  0  0  0  0  0  0
    3.1350    7.1200    0.0000 O   0  0  0  0  0  0  0  0  0  0  0  0
    0.5369    7.6200    0.0000 O   0  0  0  0  0  0  0  0  0  0  0  0
    2.2690    8.6200    0.0000 O   0  0  0  0  0  0  0  0  0  0  0  0
    1.4030    6.1200    0.0000 O   0  0  0  0  0  0  0  0  0  0  0  0
   12.6002    9.1200    0.0000 N   0  0  0  0  0  0  0  0  0  0  0  0
   12.6002   11.1200    0.0000 N   0  0  0  0  0  0  0  0  0  0  0  0
   10.8681    5.1200    0.0000 N   0  0  0  0  0  0  0  0  0  0  0  0
   13.4662    9.6200    0.0000 C   0  0  0  0  0  0  0  0  0  0  0  0
   11.7341    9.6200    0.0000 C   0  0  0  0  0  0  0  0  0  0  0  0
   13.4662   10.6200    0.0000 C   0  0  0  0  0  0  0  0  0  0  0  0
   11.7341   10.6200    0.0000 C   0  0  0  0  0  0  0  0  0  0  0  0
   12.6002    8.1200    0.0000 C   0  0  0  0  0  0  0  0  0  0  0  0
   12.6002   12.1200    0.0000 C   0  0  0  0  0  0  0  0  0  0  0  0
   11.7341    7.6200    0.0000 C   0  0  0  0  0  0  0  0  0  0  0  0
   11.7341   12.6200    0.0000 C   0  0  0  0  0  0  0  0  0  0  0  0
   13.4662   12.6200    0.0000 C   0  0  0  0  0  0  0  0  0  0  0  0
   11.7341   13.6200    0.0000 C   0  0  0  0  0  0  0  0  0  0  0  0
   13.4662   13.6200    0.0000 C   0  0  0  0  0  0  0  0  0  0  0  0
   11.7341    6.6200    0.0000 C   0  0  0  0  0  0  0  0  0  0  0  0
   12.6002   14.1200    0.0000 C   0  0  0  0  0  0  0  0  0  0  0  0
   10.8681    6.1200    0.0000 C   0  0  0  0  0  0  0  0  0  0  0  0
   10.0021   12.6200    0.0000 C   0  0  0  0  0  0  0  0  0  0  0  0
   10.0021    4.6200    0.0000 C   0  0  0  0  0  0  0  0  0  0  0  0
   10.0021    3.6200    0.0000 C   0  0  0  0  0  0  0  0  0  0  0  0
    9.1360    3.1200    0.0000 C   0  0  0  0  0  0  0  0  0  0  0  0
   10.8681    3.1200    0.0000 C   0  0  0  0  0  0  0  0  0  0  0  0
    9.1360    2.1200    0.0000 C   0  0  0  0  0  0  0  0  0  0  0  0
   10.8681    2.1200    0.0000 C   0  0  0  0  0  0  0  0  0  0  0  0
   10.0021    1.6200    0.0000 C   0  0  0  0  0  0  0  0  0  0  0  0
    7.4040    3.1200    0.0000 C   0  0  0  0  0  0  0  0  0  0  0  0
    6.5380    3.6200    0.0000 C   0  0  0  0  0  0  0  0  0  0  0  0
    8.2700    0.6200    0.0000 C   0  0  0  0  0  0  0  0  0  0  0  0
    2.2690    7.6200    0.0000 C   0  0  0  0  0  0  0  0  0  0  0  0
    1.4030    7.1200    0.0000 C   0  0  0  0  0  0  0  0  0  0  0  0
   13.6782    9.0374    0.0000 H   0  0  0  0  0  0  0  0  0  0  0  0
   14.0768    9.7277    0.0000 H   0  0  0  0  0  0  0  0  0  0  0  0
   11.1235    9.7277    0.0000 H   0  0  0  0  0  0  0  0  0  0  0  0
   11.5221    9.0374    0.0000 H   0  0  0  0  0  0  0  0  0  0  0  0
   14.0768   10.5123    0.0000 H   0  0  0  0  0  0  0  0  0  0  0  0
   13.6782   11.2026    0.0000 H   0  0  0  0  0  0  0  0  0  0  0  0
   11.5221   11.2026    0.0000 H   0  0  0  0  0  0  0  0  0  0  0  0
   11.1235   10.5123    0.0000 H   0  0  0  0  0  0  0  0  0  0  0  0
   12.8122    7.5374    0.0000 H   0  0  0  0  0  0  0  0  0  0  0  0
   13.2107    8.2277    0.0000 H   0  0  0  0  0  0  0  0  0  0  0  0
   11.1972    7.9300    0.0000 H   0  0  0  0  0  0  0  0  0  0  0  0
   14.0031   12.3100    0.0000 H   0  0  0  0  0  0  0  0  0  0  0  0
   11.1972   13.9300    0.0000 H   0  0  0  0  0  0  0  0  0  0  0  0
   14.0031   13.9300    0.0000 H   0  0  0  0  0  0  0  0  0  0  0  0
   12.2711    6.3100    0.0000 H   0  0  0  0  0  0  0  0  0  0  0  0
   12.6002   14.7400    0.0000 H   0  0  0  0  0  0  0  0  0  0  0  0
   10.6560    6.7026    0.0000 H   0  0  0  0  0  0  0  0  0  0  0  0
   10.2575    6.0123    0.0000 H   0  0  0  0  0  0  0  0  0  0  0  0
   10.3121   13.1569    0.0000 H   0  0  0  0  0  0  0  0  0  0  0  0
    9.4651   12.9300    0.0000 H   0  0  0  0  0  0  0  0  0  0  0  0
    9.6921   12.0831    0.0000 H   0  0  0  0  0  0  0  0  0  0  0  0
   11.4050    4.8100    0.0000 H   0  0  0  0  0  0  0  0  0  0  0  0
   11.4050    3.4300    0.0000 H   0  0  0  0  0  0  0  0  0  0  0  0
   10.0021    1.0000    0.0000 H   0  0  0  0  0  0  0  0  0  0  0  0
    7.0055    2.6450    0.0000 H   0  0  0  0  0  0  0  0  0  0  0  0
    7.8025    2.6450    0.0000 H   0  0  0  0  0  0  0  0  0  0  0  0
    6.9365    4.0950    0.0000 H   0  0  0  0  0  0  0  0  0  0  0  0
    6.1394    4.0950    0.0000 H   0  0  0  0  0  0  0  0  0  0  0  0
    7.6500    0.6200    0.0000 H   0  0  0  0  0  0  0  0  0  0  0  0
    8.2700    0.0000    0.0000 H   0  0  0  0  0  0  0  0  0  0  0  0
    8.8900    0.6200    0.0000 H   0  0  0  0  0  0  0  0  0  0  0  0
    3.6720    7.4300    0.0000 H   0  0  0  0  0  0  0  0  0  0  0  0
    0.0000    7.3100    0.0000 H   0  0  0  0  0  0  0  0  0  0  0  0
  1 34  1  0  0  0  0
  2 37  1  0  0  0  0
  3 21  1  0  0  0  0
  3 28  1  0  0  0  0
  4 31  1  0  0  0  0
  4 36  1  0  0  0  0
  5 29  2  0  0  0  0
  6 33  1  0  0  0  0
  6 38  1  0  0  0  0
  7 39  1  0  0  0  0
  7 72  1  0  0  0  0
  8 40  1  0  0  0  0
  8 73  1  0  0  0  0
  9 39  2  0  0  0  0
 10 40  2  0  0  0  0
 11 14  1  0  0  0  0
 11 15  1  0  0  0  0
 11 18  1  0  0  0  0
 12 16  1  0  0  0  0
 12 17  1  0  0  0  0
 12 19  1  0  0  0  0
 13 27  1  0  0  0  0
 13 29  1  0  0  0  0
 13 62  1  0  0  0  0
 14 16  1  0  0  0  0
 14 41  1  0  0  0  0
 14 42  1  0  0  0  0
 15 17  1  0  0  0  0
 15 43  1  0  0  0  0
 15 44  1  0  0  0  0
 16 45  1  0  0  0  0
 16 46  1  0  0  0  0
 17 47  1  0  0  0  0
 17 48  1  0  0  0  0
 18 20  1  0  0  0  0
 18 49  1  0  0  0  0
 18 50  1  0  0  0  0
 19 21  1  0  0  0  0
 19 22  2  0  0  0  0
 20 25  2  0  0  0  0
 20 51  1  0  0  0  0
 21 23  2  0  0  0  0
 22 24  1  0  0  0  0
 22 52  1  0  0  0  0
 23 26  1  0  0  0  0
 23 53  1  0  0  0  0
 24 26  2  0  0  0  0
 24 54  1  0  0  0  0
 25 27  1  0  0  0  0
 25 55  1  0  0  0  0
 26 56  1  0  0  0  0
 27 57  1  0  0  0  0
 27 58  1  0  0  0  0
 28 59  1  0  0  0  0
 28 60  1  0  0  0  0
 28 61  1  0  0  0  0
 29 30  1  0  0  0  0
 30 31  2  0  0  0  0
 30 32  1  0  0  0  0
 31 33  1  0  0  0  0
 32 34  2  0  0  0  0
 32 63  1  0  0  0  0
 33 35  2  0  0  0  0
 34 35  1  0  0  0  0
 35 64  1  0  0  0  0
 36 37  1  0  0  0  0
 36 65  1  0  0  0  0
 36 66  1  0  0  0  0
 37 67  1  0  0  0  0
 37 68  1  0  0  0  0
 38 69  1  0  0  0  0
 38 70  1  0  0  0  0
 38 71  1  0  0  0  0
 39 40  1  0  0  0  0
M  END
> <PUBCHEM_COMPOUND_CID>
51355426

> <PUBCHEM_COMPOUND_CANONICALIZED>
1

> <PUBCHEM_CACTVS_COMPLEXITY>
707

> <PUBCHEM_CACTVS_HBOND_ACCEPTOR>
11

> <PUBCHEM_CACTVS_HBOND_DONOR>
3

> <PUBCHEM_CACTVS_ROTATABLE_BOND>
12

> <PUBCHEM_CACTVS_SUBSKEYS>
AAADcfB7PQAAEAAAAAAAAAAAAAAAAAAAAAA8YIAAAAAAAAABQAAAHwBQCAABrAzhmAYyzoPABgCIAiXSWAKCCAAlIgQIiIFP7OgPZjbEtZuXOWrm9hHb65e6yDCOABABEIAIUAAAIAIhABCgAAAAAAAAAA==

> <PUBCHEM_IUPAC_OPENEYE_NAME>
5-bromo-2-(2-fluoroethoxy)-3-methoxy-N-[(E)-4-[4-(2-methoxyphenyl)piperazin-1-yl]but-2-enyl]benzamide;oxalic acid

> <PUBCHEM_IUPAC_CAS_NAME>
5-bromo-2-(2-fluoroethoxy)-3-methoxy-N-[(E)-4-[4-(2-methoxyphenyl)-1-piperazinyl]but-2-enyl]benzamide;oxalic acid

> <PUBCHEM_IUPAC_NAME_MARKUP>
5-bromo-2-(2-fluoroethoxy)-3-methoxy-<I>N</I>-[(<I>E</I>)-4-[4-(2-methoxyphenyl)piperazin-1-yl]but-2-enyl]benzamide;oxalic acid

> <PUBCHEM_IUPAC_NAME>
5-bromo-2-(2-fluoroethoxy)-3-methoxy-N-[(E)-4-[4-(2-methoxyphenyl)piperazin-1-yl]but-2-enyl]benzamide;oxalic acid

> <PUBCHEM_IUPAC_SYSTEMATIC_NAME>
5-bromanyl-2-(2-fluoranylethoxy)-3-methoxy-N-[(E)-4-[4-(2-methoxyphenyl)piperazin-1-yl]but-2-enyl]benzamide;ethanedioic acid

> <PUBCHEM_IUPAC_TRADITIONAL_NAME>
5-bromo-2-(2-fluoroethoxy)-3-methoxy-N-[(E)-4-[4-(2-methoxyphenyl)piperazino]but-2-enyl]benzamide;oxalic acid

> <PUBCHEM_IUPAC_INCHI>
InChI=1S/C25H31BrFN3O4.C2H2O4/c1-32-22-8-4-3-7-21(22)30-14-12-29(13-15-30)11-6-5-10-28-25(31)20-17-19(26)18-23(33-2)24(20)34-16-9-27;3-1(4)2(5)6/h3-8,17-18H,9-16H2,1-2H3,(H,28,31);(H,3,4)(H,5,6)/b6-5+;

> <PUBCHEM_IUPAC_INCHIKEY>
ZYGPAGBLMMIPQG-IPZCTEOASA-N

> <PUBCHEM_EXACT_MASS>
625.14351

> <PUBCHEM_MOLECULAR_FORMULA>
C27H33BrFN3O8

> <PUBCHEM_MOLECULAR_WEIGHT>
626.5

> <PUBCHEM_OPENEYE_CAN_SMILES>
COC1=CC=CC=C1N2CCN(CC2)CC=CCNC(=O)C3=C(C(=CC(=C3)Br)OC)OCCF.C(=O)(C(=O)O)O

> <PUBCHEM_OPENEYE_ISO_SMILES>
COC1=CC=CC=C1N2CCN(CC2)C/C=C/CNC(=O)C3=C(C(=CC(=C3)Br)OC)OCCF.C(=O)(C(=O)O)O

> <PUBCHEM_CACTVS_TPSA>
138

> <PUBCHEM_MONOISOTOPIC_WEIGHT>
625.14351

> <PUBCHEM_TOTAL_CHARGE>
0

> <PUBCHEM_HEAVY_ATOM_COUNT>
40

> <PUBCHEM_ATOM_DEF_STEREO_COUNT>
0

> <PUBCHEM_ATOM_UDEF_STEREO_COUNT>
0

> <PUBCHEM_BOND_DEF_STEREO_COUNT>
1

> <PUBCHEM_BOND_UDEF_STEREO_COUNT>
0

> <PUBCHEM_ISOTOPIC_ATOM_COUNT>
0

> <PUBCHEM_COMPONENT_COUNT>
2

> <PUBCHEM_CACTVS_TAUTO_COUNT>
-1

> <PUBCHEM_COORDINATE_TYPE>
1
5
255

> <PUBCHEM_BONDANNOTATIONS>
19  21  8
19  22  8
21  23  8
22  24  8
23  26  8
24  26  8
30  31  8
30  32  8
31  33  8
32  34  8
33  35  8
34  35  8

$$$$
