10221294
  -OEChem-09292322032D

 50 51  0     1  0  0  0  0  0999 V2000
    8.9387   -2.5223    0.0000 O   0  0  0  0  0  0  0  0  0  0  0  0
    4.5981    1.0223    0.0000 N   0  0  0  0  0  0  0  0  0  0  0  0
    8.0785   -2.0123    0.0000 N   0  0  0  0  0  0  0  0  0  0  0  0
    5.4641    0.5223    0.0000 C   0  0  3  0  0  0  0  0  0  0  0  0
    6.3301    1.0223    0.0000 C   0  0  0  0  0  0  0  0  0  0  0  0
    5.4641   -0.4777    0.0000 C   0  0  0  0  0  0  0  0  0  0  0  0
    7.1962    0.5223    0.0000 C   0  0  0  0  0  0  0  0  0  0  0  0
    6.3301   -0.9777    0.0000 C   0  0  0  0  0  0  0  0  0  0  0  0
    7.1962   -0.4777    0.0000 C   0  0  0  0  0  0  0  0  0  0  0  0
    8.0901    1.0569    0.0000 C   0  0  0  0  0  0  0  0  0  0  0  0
    8.9962    0.5431    0.0000 C   0  0  0  0  0  0  0  0  0  0  0  0
    8.0901   -1.0124    0.0000 C   0  0  0  0  0  0  0  0  0  0  0  0
    8.9962   -0.4986    0.0000 C   0  0  0  0  0  0  0  0  0  0  0  0
    3.7320    0.5223    0.0000 C   0  0  0  0  0  0  0  0  0  0  0  0
    4.5981    2.0222    0.0000 C   0  0  0  0  0  0  0  0  0  0  0  0
    2.8660    1.0223    0.0000 C   0  0  0  0  0  0  0  0  0  0  0  0
    3.7320    2.5222    0.0000 C   0  0  0  0  0  0  0  0  0  0  0  0
    2.0000    0.5223    0.0000 C   0  0  0  0  0  0  0  0  0  0  0  0
    3.7320    3.5222    0.0000 C   0  0  0  0  0  0  0  0  0  0  0  0
    8.9271   -3.5222    0.0000 C   0  0  0  0  0  0  0  0  0  0  0  0
    5.4641    1.1422    0.0000 H   0  0  0  0  0  0  0  0  0  0  0  0
    6.7287    1.4972    0.0000 H   0  0  0  0  0  0  0  0  0  0  0  0
    5.9316    1.4972    0.0000 H   0  0  0  0  0  0  0  0  0  0  0  0
    4.8535   -0.3701    0.0000 H   0  0  0  0  0  0  0  0  0  0  0  0
    5.2520   -1.0604    0.0000 H   0  0  0  0  0  0  0  0  0  0  0  0
    5.9316   -1.4527    0.0000 H   0  0  0  0  0  0  0  0  0  0  0  0
    6.7287   -1.4527    0.0000 H   0  0  0  0  0  0  0  0  0  0  0  0
    8.4837    1.5359    0.0000 H   0  0  0  0  0  0  0  0  0  0  0  0
    7.6855    1.5267    0.0000 H   0  0  0  0  0  0  0  0  0  0  0  0
    9.6070    0.4370    0.0000 H   0  0  0  0  0  0  0  0  0  0  0  0
    9.2052    1.1268    0.0000 H   0  0  0  0  0  0  0  0  0  0  0  0
    9.2052   -1.0822    0.0000 H   0  0  0  0  0  0  0  0  0  0  0  0
    9.6070   -0.3925    0.0000 H   0  0  0  0  0  0  0  0  0  0  0  0
    3.3335    0.0473    0.0000 H   0  0  0  0  0  0  0  0  0  0  0  0
    4.1306    0.0473    0.0000 H   0  0  0  0  0  0  0  0  0  0  0  0
    5.2087    1.9146    0.0000 H   0  0  0  0  0  0  0  0  0  0  0  0
    4.8101    2.6049    0.0000 H   0  0  0  0  0  0  0  0  0  0  0  0
    3.2646    1.4972    0.0000 H   0  0  0  0  0  0  0  0  0  0  0  0
    2.4675    1.4972    0.0000 H   0  0  0  0  0  0  0  0  0  0  0  0
    3.1215    2.6299    0.0000 H   0  0  0  0  0  0  0  0  0  0  0  0
    3.5200    1.9396    0.0000 H   0  0  0  0  0  0  0  0  0  0  0  0
    1.6900    1.0592    0.0000 H   0  0  0  0  0  0  0  0  0  0  0  0
    1.4631    0.2123    0.0000 H   0  0  0  0  0  0  0  0  0  0  0  0
    2.3100   -0.0147    0.0000 H   0  0  0  0  0  0  0  0  0  0  0  0
    4.3520    3.5222    0.0000 H   0  0  0  0  0  0  0  0  0  0  0  0
    3.7320    4.1422    0.0000 H   0  0  0  0  0  0  0  0  0  0  0  0
    3.1120    3.5222    0.0000 H   0  0  0  0  0  0  0  0  0  0  0  0
    8.3072   -3.5151    0.0000 H   0  0  0  0  0  0  0  0  0  0  0  0
    8.9200   -4.1422    0.0000 H   0  0  0  0  0  0  0  0  0  0  0  0
    9.5471   -3.5294    0.0000 H   0  0  0  0  0  0  0  0  0  0  0  0
  1  3  1  0  0  0  0
  1 20  1  0  0  0  0
  2  4  1  0  0  0  0
  2 14  1  0  0  0  0
  2 15  1  0  0  0  0
  3 12  2  0  0  0  0
  4  5  1  0  0  0  0
  4  6  1  0  0  0  0
  4 21  1  0  0  0  0
  5  7  1  0  0  0  0
  5 22  1  0  0  0  0
  5 23  1  0  0  0  0
  6  8  1  0  0  0  0
  6 24  1  0  0  0  0
  6 25  1  0  0  0  0
  7  9  2  0  0  0  0
  7 10  1  0  0  0  0
  8  9  1  0  0  0  0
  8 26  1  0  0  0  0
  8 27  1  0  0  0  0
  9 12  1  0  0  0  0
 10 11  1  0  0  0  0
 10 28  1  0  0  0  0
 10 29  1  0  0  0  0
 11 13  1  0  0  0  0
 11 30  1  0  0  0  0
 11 31  1  0  0  0  0
 12 13  1  0  0  0  0
 13 32  1  0  0  0  0
 13 33  1  0  0  0  0
 14 16  1  0  0  0  0
 14 34  1  0  0  0  0
 14 35  1  0  0  0  0
 15 17  1  0  0  0  0
 15 36  1  0  0  0  0
 15 37  1  0  0  0  0
 16 18  1  0  0  0  0
 16 38  1  0  0  0  0
 16 39  1  0  0  0  0
 17 19  1  0  0  0  0
 17 40  1  0  0  0  0
 17 41  1  0  0  0  0
 18 42  1  0  0  0  0
 18 43  1  0  0  0  0
 18 44  1  0  0  0  0
 19 45  1  0  0  0  0
 19 46  1  0  0  0  0
 19 47  1  0  0  0  0
 20 48  1  0  0  0  0
 20 49  1  0  0  0  0
 20 50  1  0  0  0  0
M  END
> <PUBCHEM_COMPOUND_CID>
10221294

> <PUBCHEM_COMPOUND_CANONICALIZED>
1

> <PUBCHEM_CACTVS_COMPLEXITY>
367

> <PUBCHEM_CACTVS_HBOND_ACCEPTOR>
3

> <PUBCHEM_CACTVS_HBOND_DONOR>
0

> <PUBCHEM_CACTVS_ROTATABLE_BOND>
6

> <PUBCHEM_CACTVS_SUBSKEYS>
AAADceB7IAAAAAAAAAAAAAAAAAAAAAAAAAAgQAAAAAAAAADAAAAAHgAEAAAADCjBAAYCAAMQAACgAwBgAAAAAAAgAAAACAA4ABgAAAIAgAAEAAAAgACIAAMQgIAAAAAAAAAAAAAAAAAAAAAAAAAAAAAAAA==

> <PUBCHEM_IUPAC_OPENEYE_NAME>
(5E)-5-methoxyimino-N,N-dipropyl-2,3,4,6,7,8-hexahydro-1H-naphthalen-2-amine

> <PUBCHEM_IUPAC_CAS_NAME>
(5E)-5-methoxyimino-N,N-dipropyl-2,3,4,6,7,8-hexahydro-1H-naphthalen-2-amine

> <PUBCHEM_IUPAC_NAME_MARKUP>
(5<I>E</I>)-5-methoxyimino-<I>N</I>,<I>N</I>-dipropyl-2,3,4,6,7,8-hexahydro-1<I>H</I>-naphthalen-2-amine

> <PUBCHEM_IUPAC_NAME>
(5E)-5-methoxyimino-N,N-dipropyl-2,3,4,6,7,8-hexahydro-1H-naphthalen-2-amine

> <PUBCHEM_IUPAC_SYSTEMATIC_NAME>
(5E)-5-methoxyimino-N,N-dipropyl-2,3,4,6,7,8-hexahydro-1H-naphthalen-2-amine

> <PUBCHEM_IUPAC_TRADITIONAL_NAME>
[(5E)-5-methyloximino-2,3,4,6,7,8-hexahydro-1H-naphthalen-2-yl]-dipropyl-amine

> <PUBCHEM_IUPAC_INCHI>
InChI=1S/C17H30N2O/c1-4-11-19(12-5-2)15-9-10-16-14(13-15)7-6-8-17(16)18-20-3/h15H,4-13H2,1-3H3/b18-17+

> <PUBCHEM_IUPAC_INCHIKEY>
PQHRVMZXOMRVOE-ISLYRVAYSA-N

> <PUBCHEM_XLOGP3_AA>
3.6

> <PUBCHEM_EXACT_MASS>
278.235813585

> <PUBCHEM_MOLECULAR_FORMULA>
C17H30N2O

> <PUBCHEM_MOLECULAR_WEIGHT>
278.4

> <PUBCHEM_OPENEYE_CAN_SMILES>
CCCN(CCC)C1CCC2=C(C1)CCCC2=NOC

> <PUBCHEM_OPENEYE_ISO_SMILES>
CCCN(CCC)C1CCC\2=C(C1)CCC/C2=N\OC

> <PUBCHEM_CACTVS_TPSA>
24.8

> <PUBCHEM_MONOISOTOPIC_WEIGHT>
278.235813585

> <PUBCHEM_TOTAL_CHARGE>
0

> <PUBCHEM_HEAVY_ATOM_COUNT>
20

> <PUBCHEM_ATOM_DEF_STEREO_COUNT>
0

> <PUBCHEM_ATOM_UDEF_STEREO_COUNT>
1

> <PUBCHEM_BOND_DEF_STEREO_COUNT>
1

> <PUBCHEM_BOND_UDEF_STEREO_COUNT>
0

> <PUBCHEM_ISOTOPIC_ATOM_COUNT>
0

> <PUBCHEM_COMPONENT_COUNT>
1

> <PUBCHEM_CACTVS_TAUTO_COUNT>
-1

> <PUBCHEM_COORDINATE_TYPE>
1
5
255

> <PUBCHEM_BONDANNOTATIONS>
4  2  3

$$$$
