71658204
  -OEChem-09292322332D

 56 58  0     1  0  0  0  0  0999 V2000
    5.1823    6.9303    0.0000 Br  0  0  0  0  0  0  0  0  0  0  0  0
    4.6698    5.2236    0.0000 S   0  0  0  0  0  0  0  0  0  0  0  0
    2.8660   -4.9303    0.0000 O   0  0  0  0  0  0  0  0  0  0  0  0
    3.7126    3.3673    0.0000 O   0  0  0  0  0  0  0  0  0  0  0  0
    5.0981   -1.7396    0.0000 N   0  0  3  0  0  0  0  0  0  0  0  0
    4.5981   -3.9303    0.0000 N   0  0  3  0  0  0  0  0  0  0  0  0
    5.2731    2.6157    0.0000 N   0  0  0  0  0  0  0  0  0  0  0  0
    4.0981   -1.7396    0.0000 C   0  0  0  0  0  0  0  0  0  0  0  0
    5.7216   -2.5215    0.0000 C   0  0  0  0  0  0  0  0  0  0  0  0
    3.4746   -2.5215    0.0000 C   0  0  0  0  0  0  0  0  0  0  0  0
    5.4990   -3.4964    0.0000 C   0  0  0  0  0  0  0  0  0  0  0  0
    3.6971   -3.4964    0.0000 C   0  0  0  0  0  0  0  0  0  0  0  0
    5.5320   -0.8387    0.0000 C   0  0  0  0  0  0  0  0  0  0  0  0
    4.9686   -0.0124    0.0000 C   0  0  0  0  0  0  0  0  0  0  0  0
    4.5981   -4.9303    0.0000 C   0  0  0  0  0  0  0  0  0  0  0  0
    5.4025    0.8885    0.0000 C   0  0  0  0  0  0  0  0  0  0  0  0
    4.8392    1.7148    0.0000 C   0  0  0  0  0  0  0  0  0  0  0  0
    3.7320   -5.4303    0.0000 C   0  0  0  0  0  0  0  0  0  0  0  0
    5.4641   -5.4303    0.0000 C   0  0  0  0  0  0  0  0  0  0  0  0
    3.7320   -6.4303    0.0000 C   0  0  0  0  0  0  0  0  0  0  0  0
    5.4641   -6.4303    0.0000 C   0  0  0  0  0  0  0  0  0  0  0  0
    4.5981   -6.9303    0.0000 C   0  0  0  0  0  0  0  0  0  0  0  0
    4.7098    3.4420    0.0000 C   0  0  0  0  0  0  0  0  0  0  0  0
    2.0000   -5.4303    0.0000 C   0  0  0  0  0  0  0  0  0  0  0  0
    5.1436    4.3430    0.0000 C   0  0  0  0  0  0  0  0  0  0  0  0
    6.1276    4.5215    0.0000 C   0  0  0  0  0  0  0  0  0  0  0  0
    6.2618    5.5125    0.0000 C   0  0  0  0  0  0  0  0  0  0  0  0
    5.3608    5.9464    0.0000 C   0  0  0  0  0  0  0  0  0  0  0  0
    4.2360   -1.1352    0.0000 H   0  0  0  0  0  0  0  0  0  0  0  0
    3.5395   -1.4706    0.0000 H   0  0  0  0  0  0  0  0  0  0  0  0
    6.2802   -2.7905    0.0000 H   0  0  0  0  0  0  0  0  0  0  0  0
    6.1081   -2.0367    0.0000 H   0  0  0  0  0  0  0  0  0  0  0  0
    3.0880   -2.0367    0.0000 H   0  0  0  0  0  0  0  0  0  0  0  0
    2.9160   -2.7905    0.0000 H   0  0  0  0  0  0  0  0  0  0  0  0
    5.6370   -4.1008    0.0000 H   0  0  0  0  0  0  0  0  0  0  0  0
    6.1190   -3.4964    0.0000 H   0  0  0  0  0  0  0  0  0  0  0  0
    3.0771   -3.4964    0.0000 H   0  0  0  0  0  0  0  0  0  0  0  0
    3.5591   -4.1008    0.0000 H   0  0  0  0  0  0  0  0  0  0  0  0
    6.0354   -1.2006    0.0000 H   0  0  0  0  0  0  0  0  0  0  0  0
    5.9758   -0.4058    0.0000 H   0  0  0  0  0  0  0  0  0  0  0  0
    4.4652    0.3495    0.0000 H   0  0  0  0  0  0  0  0  0  0  0  0
    4.5248   -0.4453    0.0000 H   0  0  0  0  0  0  0  0  0  0  0  0
    5.9059    0.5266    0.0000 H   0  0  0  0  0  0  0  0  0  0  0  0
    5.8464    1.3214    0.0000 H   0  0  0  0  0  0  0  0  0  0  0  0
    4.3358    2.0767    0.0000 H   0  0  0  0  0  0  0  0  0  0  0  0
    4.3954    1.2819    0.0000 H   0  0  0  0  0  0  0  0  0  0  0  0
    6.0010   -5.1203    0.0000 H   0  0  0  0  0  0  0  0  0  0  0  0
    3.1951   -6.7403    0.0000 H   0  0  0  0  0  0  0  0  0  0  0  0
    6.0010   -6.7403    0.0000 H   0  0  0  0  0  0  0  0  0  0  0  0
    5.8914    2.6621    0.0000 H   0  0  0  0  0  0  0  0  0  0  0  0
    4.5981   -7.5503    0.0000 H   0  0  0  0  0  0  0  0  0  0  0  0
    1.6900   -4.8933    0.0000 H   0  0  0  0  0  0  0  0  0  0  0  0
    1.4631   -5.7403    0.0000 H   0  0  0  0  0  0  0  0  0  0  0  0
    2.3100   -5.9672    0.0000 H   0  0  0  0  0  0  0  0  0  0  0  0
    6.5757    4.0931    0.0000 H   0  0  0  0  0  0  0  0  0  0  0  0
    6.8078    5.8063    0.0000 H   0  0  0  0  0  0  0  0  0  0  0  0
  1 28  1  0  0  0  0
  2 25  1  0  0  0  0
  2 28  1  0  0  0  0
  3 18  1  0  0  0  0
  3 24  1  0  0  0  0
  4 23  2  0  0  0  0
  5  8  1  0  0  0  0
  5  9  1  0  0  0  0
  5 13  1  0  0  0  0
  6 11  1  0  0  0  0
  6 12  1  0  0  0  0
  6 15  1  0  0  0  0
  7 17  1  0  0  0  0
  7 23  1  0  0  0  0
  7 50  1  0  0  0  0
  8 10  1  0  0  0  0
  8 29  1  0  0  0  0
  8 30  1  0  0  0  0
  9 11  1  0  0  0  0
  9 31  1  0  0  0  0
  9 32  1  0  0  0  0
 10 12  1  0  0  0  0
 10 33  1  0  0  0  0
 10 34  1  0  0  0  0
 11 35  1  0  0  0  0
 11 36  1  0  0  0  0
 12 37  1  0  0  0  0
 12 38  1  0  0  0  0
 13 14  1  0  0  0  0
 13 39  1  0  0  0  0
 13 40  1  0  0  0  0
 14 16  1  0  0  0  0
 14 41  1  0  0  0  0
 14 42  1  0  0  0  0
 15 18  1  0  0  0  0
 15 19  2  0  0  0  0
 16 17  1  0  0  0  0
 16 43  1  0  0  0  0
 16 44  1  0  0  0  0
 17 45  1  0  0  0  0
 17 46  1  0  0  0  0
 18 20  2  0  0  0  0
 19 21  1  0  0  0  0
 19 47  1  0  0  0  0
 20 22  1  0  0  0  0
 20 48  1  0  0  0  0
 21 22  2  0  0  0  0
 21 49  1  0  0  0  0
 22 51  1  0  0  0  0
 23 25  1  0  0  0  0
 24 52  1  0  0  0  0
 24 53  1  0  0  0  0
 24 54  1  0  0  0  0
 25 26  2  0  0  0  0
 26 27  1  0  0  0  0
 26 55  1  0  0  0  0
 27 28  2  0  0  0  0
 27 56  1  0  0  0  0
M  END
> <PUBCHEM_COMPOUND_CID>
71658204

> <PUBCHEM_COMPOUND_CANONICALIZED>
1

> <PUBCHEM_CACTVS_COMPLEXITY>
485

> <PUBCHEM_CACTVS_HBOND_ACCEPTOR>
5

> <PUBCHEM_CACTVS_HBOND_DONOR>
1

> <PUBCHEM_CACTVS_ROTATABLE_BOND>
8

> <PUBCHEM_CACTVS_SUBSKEYS>
AAADceB7MABAEAAAAAAAAAAAAAAAASAAAAAwAAAABYAAAAABwAAAHgRQAAABKAzB0AYyx4PABAiMACVSUACDCIAlKhRIiJkPbOgOZjLk9ZuVMShk1hH465eYQAAAAAAAAAAAEAAAAAAAAAAgAAAAAAAAAA==

> <PUBCHEM_IUPAC_OPENEYE_NAME>
5-bromo-N-[4-[4-(2-methoxyphenyl)-1,4-diazepan-1-yl]butyl]thiophene-2-carboxamide

> <PUBCHEM_IUPAC_CAS_NAME>
5-bromo-N-[4-[4-(2-methoxyphenyl)-1,4-diazepan-1-yl]butyl]-2-thiophenecarboxamide

> <PUBCHEM_IUPAC_NAME_MARKUP>
5-bromo-<I>N</I>-[4-[4-(2-methoxyphenyl)-1,4-diazepan-1-yl]butyl]thiophene-2-carboxamide

> <PUBCHEM_IUPAC_NAME>
5-bromo-N-[4-[4-(2-methoxyphenyl)-1,4-diazepan-1-yl]butyl]thiophene-2-carboxamide

> <PUBCHEM_IUPAC_SYSTEMATIC_NAME>
5-bromanyl-N-[4-[4-(2-methoxyphenyl)-1,4-diazepan-1-yl]butyl]thiophene-2-carboxamide

> <PUBCHEM_IUPAC_TRADITIONAL_NAME>
5-bromo-N-[4-[4-(2-methoxyphenyl)-1,4-diazepan-1-yl]butyl]thiophene-2-carboxamide

> <PUBCHEM_IUPAC_INCHI>
InChI=1S/C21H28BrN3O2S/c1-27-18-8-3-2-7-17(18)25-14-6-13-24(15-16-25)12-5-4-11-23-21(26)19-9-10-20(22)28-19/h2-3,7-10H,4-6,11-16H2,1H3,(H,23,26)

> <PUBCHEM_IUPAC_INCHIKEY>
GWGVZWMERZAHNI-UHFFFAOYSA-N

> <PUBCHEM_XLOGP3_AA>
4.9

> <PUBCHEM_EXACT_MASS>
465.10856

> <PUBCHEM_MOLECULAR_FORMULA>
C21H28BrN3O2S

> <PUBCHEM_MOLECULAR_WEIGHT>
466.4

> <PUBCHEM_OPENEYE_CAN_SMILES>
COC1=CC=CC=C1N2CCCN(CC2)CCCCNC(=O)C3=CC=C(S3)Br

> <PUBCHEM_OPENEYE_ISO_SMILES>
COC1=CC=CC=C1N2CCCN(CC2)CCCCNC(=O)C3=CC=C(S3)Br

> <PUBCHEM_CACTVS_TPSA>
73

> <PUBCHEM_MONOISOTOPIC_WEIGHT>
465.10856

> <PUBCHEM_TOTAL_CHARGE>
0

> <PUBCHEM_HEAVY_ATOM_COUNT>
28

> <PUBCHEM_ATOM_DEF_STEREO_COUNT>
0

> <PUBCHEM_ATOM_UDEF_STEREO_COUNT>
0

> <PUBCHEM_BOND_DEF_STEREO_COUNT>
0

> <PUBCHEM_BOND_UDEF_STEREO_COUNT>
0

> <PUBCHEM_ISOTOPIC_ATOM_COUNT>
0

> <PUBCHEM_COMPONENT_COUNT>
1

> <PUBCHEM_CACTVS_TAUTO_COUNT>
-1

> <PUBCHEM_COORDINATE_TYPE>
1
5
255

> <PUBCHEM_BONDANNOTATIONS>
15  18  8
15  19  8
18  20  8
19  21  8
2  25  8
2  28  8
20  22  8
21  22  8
25  26  8
26  27  8
27  28  8

$$$$
