127028797
  -OEChem-09292322372D

 58 61  0     1  0  0  0  0  0999 V2000
    2.0000   -3.6012    0.0000 Cl  0  0  0  0  0  0  0  0  0  0  0  0
    2.0000   -5.6012    0.0000 Cl  0  0  0  0  0  0  0  0  0  0  0  0
   10.0109    5.6012    0.0000 F   0  0  0  0  0  0  0  0  0  0  0  0
    5.4641    0.3988    0.0000 O   0  0  0  0  0  0  0  0  0  0  0  0
    4.8255    4.0624    0.0000 O   0  0  0  0  0  0  0  0  0  0  0  0
    6.5856    1.0139    0.0000 O   0  0  0  0  0  0  0  0  0  0  0  0
    3.7320   -0.6012    0.0000 N   0  0  0  0  0  0  0  0  0  0  0  0
    3.7320   -2.6012    0.0000 N   0  0  0  0  0  0  0  0  0  0  0  0
    5.4641    2.3988    0.0000 N   0  0  0  0  0  0  0  0  0  0  0  0
    7.0468    2.7352    0.0000 N   0  0  0  0  0  0  0  0  0  0  0  0
    3.7320    0.3988    0.0000 C   0  0  0  0  0  0  0  0  0  0  0  0
    4.5981   -1.1012    0.0000 C   0  0  0  0  0  0  0  0  0  0  0  0
    2.8660   -1.1012    0.0000 C   0  0  0  0  0  0  0  0  0  0  0  0
    4.5981    0.8988    0.0000 C   0  0  3  0  0  0  0  0  0  0  0  0
    4.5981   -2.1012    0.0000 C   0  0  0  0  0  0  0  0  0  0  0  0
    2.8660   -2.1012    0.0000 C   0  0  0  0  0  0  0  0  0  0  0  0
    6.5468    3.6012    0.0000 C   0  0  3  0  0  0  0  0  0  0  0  0
    4.5981    1.8988    0.0000 C   0  0  0  0  0  0  0  0  0  0  0  0
    5.5686    3.3933    0.0000 C   0  0  0  0  0  0  0  0  0  0  0  0
    6.3776    1.9920    0.0000 C   0  0  0  0  0  0  0  0  0  0  0  0
    7.4128    4.1012    0.0000 C   0  0  0  0  0  0  0  0  0  0  0  0
    6.3389    4.5794    0.0000 C   0  0  0  0  0  0  0  0  0  0  0  0
    3.7320   -3.6012    0.0000 C   0  0  0  0  0  0  0  0  0  0  0  0
    7.4128    5.1012    0.0000 C   0  0  0  0  0  0  0  0  0  0  0  0
    8.2788    3.6012    0.0000 C   0  0  0  0  0  0  0  0  0  0  0  0
    2.8660   -4.1012    0.0000 C   0  0  0  0  0  0  0  0  0  0  0  0
    4.5981   -4.1012    0.0000 C   0  0  0  0  0  0  0  0  0  0  0  0
    8.2788    5.6012    0.0000 C   0  0  0  0  0  0  0  0  0  0  0  0
    9.1448    4.1012    0.0000 C   0  0  0  0  0  0  0  0  0  0  0  0
    2.8660   -5.1012    0.0000 C   0  0  0  0  0  0  0  0  0  0  0  0
    4.5981   -5.1012    0.0000 C   0  0  0  0  0  0  0  0  0  0  0  0
    9.1448    5.1012    0.0000 C   0  0  0  0  0  0  0  0  0  0  0  0
    3.7320   -5.6012    0.0000 C   0  0  0  0  0  0  0  0  0  0  0  0
    3.5200    0.9814    0.0000 H   0  0  0  0  0  0  0  0  0  0  0  0
    3.1215    0.2911    0.0000 H   0  0  0  0  0  0  0  0  0  0  0  0
    5.2087   -1.2089    0.0000 H   0  0  0  0  0  0  0  0  0  0  0  0
    4.8101   -0.5186    0.0000 H   0  0  0  0  0  0  0  0  0  0  0  0
    2.6540   -0.5186    0.0000 H   0  0  0  0  0  0  0  0  0  0  0  0
    2.2554   -1.2089    0.0000 H   0  0  0  0  0  0  0  0  0  0  0  0
    4.5981    0.2788    0.0000 H   0  0  0  0  0  0  0  0  0  0  0  0
    4.8101   -2.6838    0.0000 H   0  0  0  0  0  0  0  0  0  0  0  0
    5.2087   -1.9936    0.0000 H   0  0  0  0  0  0  0  0  0  0  0  0
    2.2554   -1.9936    0.0000 H   0  0  0  0  0  0  0  0  0  0  0  0
    2.6540   -2.6838    0.0000 H   0  0  0  0  0  0  0  0  0  0  0  0
    4.3860    2.4814    0.0000 H   0  0  0  0  0  0  0  0  0  0  0  0
    3.9875    1.7911    0.0000 H   0  0  0  0  0  0  0  0  0  0  0  0
    7.6634    2.6704    0.0000 H   0  0  0  0  0  0  0  0  0  0  0  0
    6.9453    4.7083    0.0000 H   0  0  0  0  0  0  0  0  0  0  0  0
    6.2100    5.1858    0.0000 H   0  0  0  0  0  0  0  0  0  0  0  0
    5.7324    4.4505    0.0000 H   0  0  0  0  0  0  0  0  0  0  0  0
    6.0010    0.7088    0.0000 H   0  0  0  0  0  0  0  0  0  0  0  0
    6.8759    5.4112    0.0000 H   0  0  0  0  0  0  0  0  0  0  0  0
    8.2788    2.9812    0.0000 H   0  0  0  0  0  0  0  0  0  0  0  0
    5.1350   -3.7912    0.0000 H   0  0  0  0  0  0  0  0  0  0  0  0
    8.2788    6.2212    0.0000 H   0  0  0  0  0  0  0  0  0  0  0  0
    9.6818    3.7912    0.0000 H   0  0  0  0  0  0  0  0  0  0  0  0
    5.1350   -5.4112    0.0000 H   0  0  0  0  0  0  0  0  0  0  0  0
    3.7320   -6.2212    0.0000 H   0  0  0  0  0  0  0  0  0  0  0  0
  1 26  1  0  0  0  0
  2 30  1  0  0  0  0
  3 32  1  0  0  0  0
  4 14  1  0  0  0  0
  4 51  1  0  0  0  0
  5 19  2  0  0  0  0
  6 20  2  0  0  0  0
  7 11  1  0  0  0  0
  7 12  1  0  0  0  0
  7 13  1  0  0  0  0
  8 15  1  0  0  0  0
  8 16  1  0  0  0  0
  8 23  1  0  0  0  0
  9 18  1  0  0  0  0
  9 19  1  0  0  0  0
  9 20  1  0  0  0  0
 10 17  1  0  0  0  0
 10 20  1  0  0  0  0
 10 47  1  0  0  0  0
 11 14  1  0  0  0  0
 11 34  1  0  0  0  0
 11 35  1  0  0  0  0
 12 15  1  0  0  0  0
 12 36  1  0  0  0  0
 12 37  1  0  0  0  0
 13 16  1  0  0  0  0
 13 38  1  0  0  0  0
 13 39  1  0  0  0  0
 14 18  1  0  0  0  0
 14 40  1  0  0  0  0
 15 41  1  0  0  0  0
 15 42  1  0  0  0  0
 16 43  1  0  0  0  0
 16 44  1  0  0  0  0
 17 19  1  0  0  0  0
 17 21  1  0  0  0  0
 17 22  1  0  0  0  0
 18 45  1  0  0  0  0
 18 46  1  0  0  0  0
 21 24  2  0  0  0  0
 21 25  1  0  0  0  0
 22 48  1  0  0  0  0
 22 49  1  0  0  0  0
 22 50  1  0  0  0  0
 23 26  2  0  0  0  0
 23 27  1  0  0  0  0
 24 28  1  0  0  0  0
 24 52  1  0  0  0  0
 25 29  2  0  0  0  0
 25 53  1  0  0  0  0
 26 30  1  0  0  0  0
 27 31  2  0  0  0  0
 27 54  1  0  0  0  0
 28 32  2  0  0  0  0
 28 55  1  0  0  0  0
 29 32  1  0  0  0  0
 29 56  1  0  0  0  0
 30 33  2  0  0  0  0
 31 33  1  0  0  0  0
 31 57  1  0  0  0  0
 33 58  1  0  0  0  0
M  END
> <PUBCHEM_COMPOUND_CID>
127028797

> <PUBCHEM_COMPOUND_CANONICALIZED>
1

> <PUBCHEM_CACTVS_COMPLEXITY>
718

> <PUBCHEM_CACTVS_HBOND_ACCEPTOR>
6

> <PUBCHEM_CACTVS_HBOND_DONOR>
2

> <PUBCHEM_CACTVS_ROTATABLE_BOND>
6

> <PUBCHEM_CACTVS_SUBSKEYS>
AAADceB7sQAGAAAAAAAAAAAAAAAAAWAAAAA8YIAAAAAAAAABQAAAHwIQCAAADJ7hmC4zwIPAAgCIAiVSUACCAAAhBwAIikGIZoiKcDLB17HUIAholyLYyAcYiMCOgAAAAAIAABQAAAAABAAAKAAAAAAAAA==

> <PUBCHEM_IUPAC_OPENEYE_NAME>
3-[3-[4-(2,3-dichlorophenyl)piperazin-1-yl]-2-hydroxy-propyl]-5-(4-fluorophenyl)-5-methyl-imidazolidine-2,4-dione

> <PUBCHEM_IUPAC_CAS_NAME>
3-[3-[4-(2,3-dichlorophenyl)-1-piperazinyl]-2-hydroxypropyl]-5-(4-fluorophenyl)-5-methylimidazolidine-2,4-dione

> <PUBCHEM_IUPAC_NAME_MARKUP>
3-[3-[4-(2,3-dichlorophenyl)piperazin-1-yl]-2-hydroxypropyl]-5-(4-fluorophenyl)-5-methylimidazolidine-2,4-dione

> <PUBCHEM_IUPAC_NAME>
3-[3-[4-(2,3-dichlorophenyl)piperazin-1-yl]-2-hydroxypropyl]-5-(4-fluorophenyl)-5-methylimidazolidine-2,4-dione

> <PUBCHEM_IUPAC_SYSTEMATIC_NAME>
3-[3-[4-[2,3-bis(chloranyl)phenyl]piperazin-1-yl]-2-oxidanyl-propyl]-5-(4-fluorophenyl)-5-methyl-imidazolidine-2,4-dione

> <PUBCHEM_IUPAC_TRADITIONAL_NAME>
3-[3-[4-(2,3-dichlorophenyl)piperazino]-2-hydroxy-propyl]-5-(4-fluorophenyl)-5-methyl-hydantoin

> <PUBCHEM_IUPAC_INCHI>
InChI=1S/C23H25Cl2FN4O3/c1-23(15-5-7-16(26)8-6-15)21(32)30(22(33)27-23)14-17(31)13-28-9-11-29(12-10-28)19-4-2-3-18(24)20(19)25/h2-8,17,31H,9-14H2,1H3,(H,27,33)

> <PUBCHEM_IUPAC_INCHIKEY>
LIBJRLLLOUMXMX-UHFFFAOYSA-N

> <PUBCHEM_XLOGP3_AA>
3.4

> <PUBCHEM_EXACT_MASS>
494.1287742

> <PUBCHEM_MOLECULAR_FORMULA>
C23H25Cl2FN4O3

> <PUBCHEM_MOLECULAR_WEIGHT>
495.4

> <PUBCHEM_OPENEYE_CAN_SMILES>
CC1(C(=O)N(C(=O)N1)CC(CN2CCN(CC2)C3=C(C(=CC=C3)Cl)Cl)O)C4=CC=C(C=C4)F

> <PUBCHEM_OPENEYE_ISO_SMILES>
CC1(C(=O)N(C(=O)N1)CC(CN2CCN(CC2)C3=C(C(=CC=C3)Cl)Cl)O)C4=CC=C(C=C4)F

> <PUBCHEM_CACTVS_TPSA>
76.1

> <PUBCHEM_MONOISOTOPIC_WEIGHT>
494.1287742

> <PUBCHEM_TOTAL_CHARGE>
0

> <PUBCHEM_HEAVY_ATOM_COUNT>
33

> <PUBCHEM_ATOM_DEF_STEREO_COUNT>
0

> <PUBCHEM_ATOM_UDEF_STEREO_COUNT>
2

> <PUBCHEM_BOND_DEF_STEREO_COUNT>
0

> <PUBCHEM_BOND_UDEF_STEREO_COUNT>
0

> <PUBCHEM_ISOTOPIC_ATOM_COUNT>
0

> <PUBCHEM_COMPONENT_COUNT>
1

> <PUBCHEM_CACTVS_TAUTO_COUNT>
-1

> <PUBCHEM_COORDINATE_TYPE>
1
5
255

> <PUBCHEM_BONDANNOTATIONS>
17  22  3
21  24  8
21  25  8
23  26  8
23  27  8
24  28  8
25  29  8
26  30  8
27  31  8
28  32  8
29  32  8
30  33  8
31  33  8
14  4  3

$$$$
