25130159
  -OEChem-09292322232D

 48 52  0     1  0  0  0  0  0999 V2000
    8.4515    2.0798    0.0000 Cl  0  0  0  0  0  0  0  0  0  0  0  0
    8.7332    4.0599    0.0000 Cl  0  0  0  0  0  0  0  0  0  0  0  0
    5.8089    1.9508    0.0000 O   0  0  0  0  0  0  0  0  0  0  0  0
    4.6783   -4.1086    0.0000 O   0  0  0  0  0  0  0  0  0  0  0  0
    5.9674   -1.3424    0.0000 N   0  0  0  0  0  0  0  0  0  0  0  0
    7.7368   -0.3967    0.0000 C   0  0  2  0  0  0  0  0  0  0  0  0
    7.1907   -1.2344    0.0000 C   0  0  1  0  0  0  0  0  0  0  0  0
    6.5958    1.3338    0.0000 C   0  0  0  0  0  0  0  0  0  0  0  0
    7.5657    1.0902    0.0000 C   0  0  0  0  0  0  0  0  0  0  0  0
    6.0644    0.4867    0.0000 C   0  0  0  0  0  0  0  0  0  0  0  0
    9.0498   -1.0981    0.0000 C   0  0  0  0  0  0  0  0  0  0  0  0
    8.5037   -1.9359    0.0000 C   0  0  0  0  0  0  0  0  0  0  0  0
    4.9889   -1.5486    0.0000 C   0  0  0  0  0  0  0  0  0  0  0  0
    6.7367    2.3238    0.0000 C   0  0  0  0  0  0  0  0  0  0  0  0
    4.6783   -2.4992    0.0000 C   0  0  0  0  0  0  0  0  0  0  0  0
    7.6645    2.6968    0.0000 C   0  0  0  0  0  0  0  0  0  0  0  0
    5.9498    2.9409    0.0000 C   0  0  0  0  0  0  0  0  0  0  0  0
    3.7320   -2.8039    0.0000 C   0  0  0  0  0  0  0  0  0  0  0  0
    5.2619   -3.3039    0.0000 C   0  0  0  0  0  0  0  0  0  0  0  0
    7.8054    3.6869    0.0000 C   0  0  0  0  0  0  0  0  0  0  0  0
    6.0906    3.9309    0.0000 C   0  0  0  0  0  0  0  0  0  0  0  0
    3.7320   -3.8039    0.0000 C   0  0  0  0  0  0  0  0  0  0  0  0
    7.0185    4.3039    0.0000 C   0  0  0  0  0  0  0  0  0  0  0  0
    2.8660   -2.3039    0.0000 C   0  0  0  0  0  0  0  0  0  0  0  0
    2.8660   -4.3039    0.0000 C   0  0  0  0  0  0  0  0  0  0  0  0
    2.0000   -2.8039    0.0000 C   0  0  0  0  0  0  0  0  0  0  0  0
    2.0000   -3.8039    0.0000 C   0  0  0  0  0  0  0  0  0  0  0  0
    8.2010    0.3153    0.0000 H   0  0  0  0  0  0  0  0  0  0  0  0
    6.7266   -1.9465    0.0000 H   0  0  0  0  0  0  0  0  0  0  0  0
    8.1857    1.0867    0.0000 H   0  0  0  0  0  0  0  0  0  0  0  0
    7.6435    1.7053    0.0000 H   0  0  0  0  0  0  0  0  0  0  0  0
    5.5918    0.8880    0.0000 H   0  0  0  0  0  0  0  0  0  0  0  0
    5.5996    0.0764    0.0000 H   0  0  0  0  0  0  0  0  0  0  0  0
    9.5788   -1.4215    0.0000 H   0  0  0  0  0  0  0  0  0  0  0  0
    9.3577   -0.5600    0.0000 H   0  0  0  0  0  0  0  0  0  0  0  0
    8.1958   -2.4740    0.0000 H   0  0  0  0  0  0  0  0  0  0  0  0
    9.0327   -2.2592    0.0000 H   0  0  0  0  0  0  0  0  0  0  0  0
    4.9684   -0.9290    0.0000 H   0  0  0  0  0  0  0  0  0  0  0  0
    4.3751   -1.4613    0.0000 H   0  0  0  0  0  0  0  0  0  0  0  0
    5.2336    1.7196    0.0000 H   0  0  0  0  0  0  0  0  0  0  0  0
    5.3745    2.7096    0.0000 H   0  0  0  0  0  0  0  0  0  0  0  0
    5.8819   -3.3039    0.0000 H   0  0  0  0  0  0  0  0  0  0  0  0
    5.6027    4.3134    0.0000 H   0  0  0  0  0  0  0  0  0  0  0  0
    7.1058    4.9177    0.0000 H   0  0  0  0  0  0  0  0  0  0  0  0
    2.8660   -1.6839    0.0000 H   0  0  0  0  0  0  0  0  0  0  0  0
    2.8660   -4.9239    0.0000 H   0  0  0  0  0  0  0  0  0  0  0  0
    1.4631   -2.4939    0.0000 H   0  0  0  0  0  0  0  0  0  0  0  0
    1.4631   -4.1139    0.0000 H   0  0  0  0  0  0  0  0  0  0  0  0
  1 16  1  0  0  0  0
  2 20  1  0  0  0  0
  3  8  1  0  0  0  0
  3 40  1  0  0  0  0
  4 19  1  0  0  0  0
  4 22  1  0  0  0  0
  5  6  1  0  0  0  0
  5  7  1  0  0  0  0
  5 13  1  0  0  0  0
  6  9  1  0  0  0  0
  6 11  1  0  0  0  0
  6 28  1  1  0  0  0
  7 10  1  0  0  0  0
  7 12  1  0  0  0  0
  7 29  1  6  0  0  0
  8  9  1  0  0  0  0
  8 10  1  0  0  0  0
  8 14  1  0  0  0  0
  9 30  1  0  0  0  0
  9 31  1  0  0  0  0
 10 32  1  0  0  0  0
 10 33  1  0  0  0  0
 11 12  1  0  0  0  0
 11 34  1  0  0  0  0
 11 35  1  0  0  0  0
 12 36  1  0  0  0  0
 12 37  1  0  0  0  0
 13 15  1  0  0  0  0
 13 38  1  0  0  0  0
 13 39  1  0  0  0  0
 14 16  2  0  0  0  0
 14 17  1  0  0  0  0
 15 18  1  0  0  0  0
 15 19  2  0  0  0  0
 16 20  1  0  0  0  0
 17 21  2  0  0  0  0
 17 41  1  0  0  0  0
 18 22  1  0  0  0  0
 18 24  2  0  0  0  0
 19 42  1  0  0  0  0
 20 23  2  0  0  0  0
 21 23  1  0  0  0  0
 21 43  1  0  0  0  0
 22 25  2  0  0  0  0
 23 44  1  0  0  0  0
 24 26  1  0  0  0  0
 24 45  1  0  0  0  0
 25 27  1  0  0  0  0
 25 46  1  0  0  0  0
 26 27  2  0  0  0  0
 26 47  1  0  0  0  0
 27 48  1  0  0  0  0
M  END
> <PUBCHEM_COMPOUND_CID>
25130159

> <PUBCHEM_COMPOUND_CANONICALIZED>
1

> <PUBCHEM_CACTVS_COMPLEXITY>
532

> <PUBCHEM_CACTVS_HBOND_ACCEPTOR>
3

> <PUBCHEM_CACTVS_HBOND_DONOR>
1

> <PUBCHEM_CACTVS_ROTATABLE_BOND>
3

> <PUBCHEM_CACTVS_SUBSKEYS>
AAADceB6MAAGAAAAAAAAAAAAAAAAAWJAAAA8YIAABgAAAEgB9AAAHgIACAAADG7hmCYwBsMABkCIAqhSgACCCAAkJQAIikEODsgMJjqFtxuGeSjmwBGIuYe8yOCOgAAAIAAJAAQAAABAABIACAAAAAAAAA==

> <PUBCHEM_IUPAC_OPENEYE_NAME>
(1S,5R)-8-(benzofuran-3-ylmethyl)-3-(2,3-dichlorophenyl)-8-azabicyclo[3.2.1]octan-3-ol

> <PUBCHEM_IUPAC_CAS_NAME>
(1S,5R)-8-(3-benzofuranylmethyl)-3-(2,3-dichlorophenyl)-8-azabicyclo[3.2.1]octan-3-ol

> <PUBCHEM_IUPAC_NAME_MARKUP>
(1<I>S</I>,5<I>R</I>)-8-(1-benzofuran-3-ylmethyl)-3-(2,3-dichlorophenyl)-8-azabicyclo[3.2.1]octan-3-ol

> <PUBCHEM_IUPAC_NAME>
(1S,5R)-8-(1-benzofuran-3-ylmethyl)-3-(2,3-dichlorophenyl)-8-azabicyclo[3.2.1]octan-3-ol

> <PUBCHEM_IUPAC_SYSTEMATIC_NAME>
(1S,5R)-8-(1-benzofuran-3-ylmethyl)-3-[2,3-bis(chloranyl)phenyl]-8-azabicyclo[3.2.1]octan-3-ol

> <PUBCHEM_IUPAC_TRADITIONAL_NAME>
(1S,5R)-8-(benzofuran-3-ylmethyl)-3-(2,3-dichlorophenyl)-8-azabicyclo[3.2.1]octan-3-ol

> <PUBCHEM_IUPAC_INCHI>
InChI=1S/C22H21Cl2NO2/c23-19-6-3-5-18(21(19)24)22(26)10-15-8-9-16(11-22)25(15)12-14-13-27-20-7-2-1-4-17(14)20/h1-7,13,15-16,26H,8-12H2/t15-,16+,22?

> <PUBCHEM_IUPAC_INCHIKEY>
GMEKBIQFYDAEOK-XVQYUUQNSA-N

> <PUBCHEM_XLOGP3_AA>
5.2

> <PUBCHEM_EXACT_MASS>
401.0949343

> <PUBCHEM_MOLECULAR_FORMULA>
C22H21Cl2NO2

> <PUBCHEM_MOLECULAR_WEIGHT>
402.3

> <PUBCHEM_OPENEYE_CAN_SMILES>
C1CC2CC(CC1N2CC3=COC4=CC=CC=C43)(C5=C(C(=CC=C5)Cl)Cl)O

> <PUBCHEM_OPENEYE_ISO_SMILES>
C1C[C@H]2CC(C[C@@H]1N2CC3=COC4=CC=CC=C43)(C5=C(C(=CC=C5)Cl)Cl)O

> <PUBCHEM_CACTVS_TPSA>
36.6

> <PUBCHEM_MONOISOTOPIC_WEIGHT>
401.0949343

> <PUBCHEM_TOTAL_CHARGE>
0

> <PUBCHEM_HEAVY_ATOM_COUNT>
27

> <PUBCHEM_ATOM_DEF_STEREO_COUNT>
2

> <PUBCHEM_ATOM_UDEF_STEREO_COUNT>
0

> <PUBCHEM_BOND_DEF_STEREO_COUNT>
0

> <PUBCHEM_BOND_UDEF_STEREO_COUNT>
0

> <PUBCHEM_ISOTOPIC_ATOM_COUNT>
0

> <PUBCHEM_COMPONENT_COUNT>
1

> <PUBCHEM_CACTVS_TAUTO_COUNT>
-1

> <PUBCHEM_COORDINATE_TYPE>
1
5
255

> <PUBCHEM_BONDANNOTATIONS>
14  16  8
14  17  8
15  18  8
15  19  8
16  20  8
17  21  8
18  22  8
18  24  8
20  23  8
21  23  8
22  25  8
24  26  8
25  27  8
26  27  8
4  19  8
4  22  8
6  28  5
7  29  6

$$$$
