18414156
  -OEChem-09292322212D

 43 46  0     0  0  0  0  0  0999 V2000
    7.9939   -2.8030    0.0000 O   0  0  0  0  0  0  0  0  0  0  0  0
    4.5981   -0.8030    0.0000 N   0  0  0  0  0  0  0  0  0  0  0  0
    4.5981    1.1970    0.0000 N   0  0  0  0  0  0  0  0  0  0  0  0
    6.4103   -1.9982    0.0000 N   0  0  0  0  0  0  0  0  0  0  0  0
    6.4103   -3.6077    0.0000 N   0  0  0  0  0  0  0  0  0  0  0  0
    3.7320   -0.3030    0.0000 C   0  0  0  0  0  0  0  0  0  0  0  0
    5.4641   -0.3030    0.0000 C   0  0  0  0  0  0  0  0  0  0  0  0
    3.7320    0.6970    0.0000 C   0  0  0  0  0  0  0  0  0  0  0  0
    5.4641    0.6970    0.0000 C   0  0  0  0  0  0  0  0  0  0  0  0
    4.5981   -1.8030    0.0000 C   0  0  0  0  0  0  0  0  0  0  0  0
    4.5981    2.1970    0.0000 C   0  0  0  0  0  0  0  0  0  0  0  0
    5.4641   -2.3030    0.0000 C   0  0  0  0  0  0  0  0  0  0  0  0
    3.7320    2.6970    0.0000 C   0  0  0  0  0  0  0  0  0  0  0  0
    3.7320   -2.3030    0.0000 C   0  0  0  0  0  0  0  0  0  0  0  0
    5.4641   -3.3030    0.0000 C   0  0  0  0  0  0  0  0  0  0  0  0
    3.7320   -3.3030    0.0000 C   0  0  0  0  0  0  0  0  0  0  0  0
    4.5981   -3.8030    0.0000 C   0  0  0  0  0  0  0  0  0  0  0  0
    6.9939   -2.8030    0.0000 C   0  0  0  0  0  0  0  0  0  0  0  0
    2.8660    2.1970    0.0000 C   0  0  0  0  0  0  0  0  0  0  0  0
    3.7320    3.6970    0.0000 C   0  0  0  0  0  0  0  0  0  0  0  0
    2.0000    2.6970    0.0000 C   0  0  0  0  0  0  0  0  0  0  0  0
    2.8660    4.1970    0.0000 C   0  0  0  0  0  0  0  0  0  0  0  0
    2.0000    3.6970    0.0000 C   0  0  0  0  0  0  0  0  0  0  0  0
    3.1215   -0.1953    0.0000 H   0  0  0  0  0  0  0  0  0  0  0  0
    3.5200   -0.8856    0.0000 H   0  0  0  0  0  0  0  0  0  0  0  0
    5.6762   -0.8856    0.0000 H   0  0  0  0  0  0  0  0  0  0  0  0
    6.0747   -0.1953    0.0000 H   0  0  0  0  0  0  0  0  0  0  0  0
    3.5200    1.2796    0.0000 H   0  0  0  0  0  0  0  0  0  0  0  0
    3.1215    0.5894    0.0000 H   0  0  0  0  0  0  0  0  0  0  0  0
    6.0747    0.5894    0.0000 H   0  0  0  0  0  0  0  0  0  0  0  0
    5.6762    1.2796    0.0000 H   0  0  0  0  0  0  0  0  0  0  0  0
    5.2087    2.0894    0.0000 H   0  0  0  0  0  0  0  0  0  0  0  0
    4.8101    2.7796    0.0000 H   0  0  0  0  0  0  0  0  0  0  0  0
    3.1951   -1.9930    0.0000 H   0  0  0  0  0  0  0  0  0  0  0  0
    6.6029   -1.4089    0.0000 H   0  0  0  0  0  0  0  0  0  0  0  0
    3.1951   -3.6130    0.0000 H   0  0  0  0  0  0  0  0  0  0  0  0
    4.5981   -4.4230    0.0000 H   0  0  0  0  0  0  0  0  0  0  0  0
    6.6029   -4.1970    0.0000 H   0  0  0  0  0  0  0  0  0  0  0  0
    2.8660    1.5770    0.0000 H   0  0  0  0  0  0  0  0  0  0  0  0
    4.2690    4.0070    0.0000 H   0  0  0  0  0  0  0  0  0  0  0  0
    1.4631    2.3870    0.0000 H   0  0  0  0  0  0  0  0  0  0  0  0
    2.8660    4.8170    0.0000 H   0  0  0  0  0  0  0  0  0  0  0  0
    1.4631    4.0070    0.0000 H   0  0  0  0  0  0  0  0  0  0  0  0
  1 18  2  0  0  0  0
  2  6  1  0  0  0  0
  2  7  1  0  0  0  0
  2 10  1  0  0  0  0
  3  8  1  0  0  0  0
  3  9  1  0  0  0  0
  3 11  1  0  0  0  0
  4 12  1  0  0  0  0
  4 18  1  0  0  0  0
  4 35  1  0  0  0  0
  5 15  1  0  0  0  0
  5 18  1  0  0  0  0
  5 38  1  0  0  0  0
  6  8  1  0  0  0  0
  6 24  1  0  0  0  0
  6 25  1  0  0  0  0
  7  9  1  0  0  0  0
  7 26  1  0  0  0  0
  7 27  1  0  0  0  0
  8 28  1  0  0  0  0
  8 29  1  0  0  0  0
  9 30  1  0  0  0  0
  9 31  1  0  0  0  0
 10 12  1  0  0  0  0
 10 14  2  0  0  0  0
 11 13  1  0  0  0  0
 11 32  1  0  0  0  0
 11 33  1  0  0  0  0
 12 15  2  0  0  0  0
 13 19  2  0  0  0  0
 13 20  1  0  0  0  0
 14 16  1  0  0  0  0
 14 34  1  0  0  0  0
 15 17  1  0  0  0  0
 16 17  2  0  0  0  0
 16 36  1  0  0  0  0
 17 37  1  0  0  0  0
 19 21  1  0  0  0  0
 19 39  1  0  0  0  0
 20 22  2  0  0  0  0
 20 40  1  0  0  0  0
 21 23  2  0  0  0  0
 21 41  1  0  0  0  0
 22 23  1  0  0  0  0
 22 42  1  0  0  0  0
 23 43  1  0  0  0  0
M  END
> <PUBCHEM_COMPOUND_CID>
18414156

> <PUBCHEM_COMPOUND_CANONICALIZED>
1

> <PUBCHEM_CACTVS_COMPLEXITY>
415

> <PUBCHEM_CACTVS_HBOND_ACCEPTOR>
3

> <PUBCHEM_CACTVS_HBOND_DONOR>
2

> <PUBCHEM_CACTVS_ROTATABLE_BOND>
3

> <PUBCHEM_CACTVS_SUBSKEYS>
AAADceB7oAAAAAAAAAAAAAAAAAAAAWAAAAA8YIAAAAAAAFgBQAAAHgAQAAAADAjBGAQxwIPAAACIAiRCUACCAAAhAgAIiAAIdIiIYCLA0dGUIAholALIyCcQgAAOAAAAAAQAACAAAAAACAAAQAAAAAAAAA==

> <PUBCHEM_IUPAC_OPENEYE_NAME>
4-(4-benzylpiperazin-1-yl)-1,3-dihydrobenzimidazol-2-one

> <PUBCHEM_IUPAC_CAS_NAME>
4-[4-(phenylmethyl)-1-piperazinyl]-1,3-dihydrobenzimidazol-2-one

> <PUBCHEM_IUPAC_NAME_MARKUP>
4-(4-benzylpiperazin-1-yl)-1,3-dihydrobenzimidazol-2-one

> <PUBCHEM_IUPAC_NAME>
4-(4-benzylpiperazin-1-yl)-1,3-dihydrobenzimidazol-2-one

> <PUBCHEM_IUPAC_SYSTEMATIC_NAME>
4-[4-(phenylmethyl)piperazin-1-yl]-1,3-dihydrobenzimidazol-2-one

> <PUBCHEM_IUPAC_TRADITIONAL_NAME>
4-(4-benzylpiperazino)-1,3-dihydrobenzimidazol-2-one

> <PUBCHEM_IUPAC_INCHI>
InChI=1S/C18H20N4O/c23-18-19-15-7-4-8-16(17(15)20-18)22-11-9-21(10-12-22)13-14-5-2-1-3-6-14/h1-8H,9-13H2,(H2,19,20,23)

> <PUBCHEM_IUPAC_INCHIKEY>
MKJHGVZTPBBKML-UHFFFAOYSA-N

> <PUBCHEM_XLOGP3_AA>
2

> <PUBCHEM_EXACT_MASS>
308.16371127

> <PUBCHEM_MOLECULAR_FORMULA>
C18H20N4O

> <PUBCHEM_MOLECULAR_WEIGHT>
308.4

> <PUBCHEM_OPENEYE_CAN_SMILES>
C1CN(CCN1CC2=CC=CC=C2)C3=CC=CC4=C3NC(=O)N4

> <PUBCHEM_OPENEYE_ISO_SMILES>
C1CN(CCN1CC2=CC=CC=C2)C3=CC=CC4=C3NC(=O)N4

> <PUBCHEM_CACTVS_TPSA>
47.6

> <PUBCHEM_MONOISOTOPIC_WEIGHT>
308.16371127

> <PUBCHEM_TOTAL_CHARGE>
0

> <PUBCHEM_HEAVY_ATOM_COUNT>
23

> <PUBCHEM_ATOM_DEF_STEREO_COUNT>
0

> <PUBCHEM_ATOM_UDEF_STEREO_COUNT>
0

> <PUBCHEM_BOND_DEF_STEREO_COUNT>
0

> <PUBCHEM_BOND_UDEF_STEREO_COUNT>
0

> <PUBCHEM_ISOTOPIC_ATOM_COUNT>
0

> <PUBCHEM_COMPONENT_COUNT>
1

> <PUBCHEM_CACTVS_TAUTO_COUNT>
-1

> <PUBCHEM_COORDINATE_TYPE>
1
5
255

> <PUBCHEM_BONDANNOTATIONS>
10  12  8
10  14  8
12  15  8
13  19  8
13  20  8
14  16  8
15  17  8
16  17  8
19  21  8
20  22  8
21  23  8
22  23  8
4  12  8
4  18  8
5  15  8
5  18  8

$$$$
