44454248
  -OEChem-09292322492D

 66 71  0     1  0  0  0  0  0999 V2000
    6.4300   -5.0475    0.0000 Br  0  0  0  0  0  0  0  0  0  0  0  0
    6.7062    1.1631    0.0000 S   0  0  0  0  0  0  0  0  0  0  0  0
    4.4887   -6.0193    0.0000 O   0  0  0  0  0  0  0  0  0  0  0  0
    6.2062   -1.4350    0.0000 N   0  0  3  0  0  0  0  0  0  0  0  0
    3.0949   -5.2146    0.0000 N   0  0  0  0  0  0  0  0  0  0  0  0
    6.6130    2.9426    0.0000 N   0  0  0  0  0  0  0  0  0  0  0  0
    5.2117    2.1336    0.0000 N   0  0  0  0  0  0  0  0  0  0  0  0
    5.0038    3.1118    0.0000 N   0  0  0  0  0  0  0  0  0  0  0  0
    4.4367    6.8138    0.0000 N   0  0  0  0  0  0  0  0  0  0  0  0
    6.7598   -2.2446    0.0000 C   0  0  0  0  0  0  0  0  0  0  0  0
    5.2283   -1.3604    0.0000 C   0  0  0  0  0  0  0  0  0  0  0  0
    6.4745   -3.1830    0.0000 C   0  0  0  0  0  0  0  0  0  0  0  0
    4.5583   -2.0767    0.0000 C   0  0  0  0  0  0  0  0  0  0  0  0
    5.5640   -3.5475    0.0000 C   0  0  0  0  0  0  0  0  0  0  0  0
    4.6979   -3.0475    0.0000 C   0  0  0  0  0  0  0  0  0  0  0  0
    6.7062   -0.5690    0.0000 C   0  0  0  0  0  0  0  0  0  0  0  0
    5.5640   -4.5475    0.0000 C   0  0  0  0  0  0  0  0  0  0  0  0
    3.8319   -3.5475    0.0000 C   0  0  0  0  0  0  0  0  0  0  0  0
    4.6979   -5.0475    0.0000 C   0  0  0  0  0  0  0  0  0  0  0  0
    3.8319   -4.5475    0.0000 C   0  0  0  0  0  0  0  0  0  0  0  0
    6.2062    0.2970    0.0000 C   0  0  0  0  0  0  0  0  0  0  0  0
    3.5000   -6.1223    0.0000 C   0  0  0  0  0  0  0  0  0  0  0  0
    3.0000   -6.9884    0.0000 C   0  0  0  0  0  0  0  0  0  0  0  0
    6.2062    2.0291    0.0000 C   0  0  0  0  0  0  0  0  0  0  0  0
    5.8698    3.6118    0.0000 C   0  0  0  0  0  0  0  0  0  0  0  0
    5.9744    4.6063    0.0000 C   0  0  0  0  0  0  0  0  0  0  0  0
    2.0000   -6.9884    0.0000 C   0  0  0  0  0  0  0  0  0  0  0  0
    5.1653    5.1941    0.0000 C   0  0  0  0  0  0  0  0  0  0  0  0
    7.5911    3.1506    0.0000 C   0  0  0  0  0  0  0  0  0  0  0  0
    5.2699    6.1886    0.0000 C   0  0  0  0  0  0  0  0  0  0  0  0
    6.8879    5.0130    0.0000 C   0  0  0  0  0  0  0  0  0  0  0  0
    4.2204    4.7558    0.0000 C   0  0  0  0  0  0  0  0  0  0  0  0
    6.1834    6.5953    0.0000 C   0  0  0  0  0  0  0  0  0  0  0  0
    6.9924    6.0076    0.0000 C   0  0  0  0  0  0  0  0  0  0  0  0
    3.3730    5.3615    0.0000 C   0  0  0  0  0  0  0  0  0  0  0  0
    3.4819    6.3975    0.0000 C   0  0  0  0  0  0  0  0  0  0  0  0
    2.6752    6.9884    0.0000 C   0  0  0  0  0  0  0  0  0  0  0  0
    7.2977   -2.5529    0.0000 H   0  0  0  0  0  0  0  0  0  0  0  0
    7.1805   -1.7892    0.0000 H   0  0  0  0  0  0  0  0  0  0  0  0
    5.4124   -0.7683    0.0000 H   0  0  0  0  0  0  0  0  0  0  0  0
    4.6923   -1.0487    0.0000 H   0  0  0  0  0  0  0  0  0  0  0  0
    6.5705   -3.7955    0.0000 H   0  0  0  0  0  0  0  0  0  0  0  0
    7.0930   -3.2263    0.0000 H   0  0  0  0  0  0  0  0  0  0  0  0
    4.2116   -1.5627    0.0000 H   0  0  0  0  0  0  0  0  0  0  0  0
    3.9798   -2.2998    0.0000 H   0  0  0  0  0  0  0  0  0  0  0  0
    7.1812   -0.9675    0.0000 H   0  0  0  0  0  0  0  0  0  0  0  0
    7.1812   -0.1704    0.0000 H   0  0  0  0  0  0  0  0  0  0  0  0
    3.2950   -3.2375    0.0000 H   0  0  0  0  0  0  0  0  0  0  0  0
    5.7313    0.6956    0.0000 H   0  0  0  0  0  0  0  0  0  0  0  0
    5.7313   -0.1015    0.0000 H   0  0  0  0  0  0  0  0  0  0  0  0
    2.8923   -7.5989    0.0000 H   0  0  0  0  0  0  0  0  0  0  0  0
    3.5826   -7.2004    0.0000 H   0  0  0  0  0  0  0  0  0  0  0  0
    2.0000   -6.3684    0.0000 H   0  0  0  0  0  0  0  0  0  0  0  0
    1.3800   -6.9884    0.0000 H   0  0  0  0  0  0  0  0  0  0  0  0
    2.0000   -7.6084    0.0000 H   0  0  0  0  0  0  0  0  0  0  0  0
    7.7200    2.5441    0.0000 H   0  0  0  0  0  0  0  0  0  0  0  0
    8.1976    3.2795    0.0000 H   0  0  0  0  0  0  0  0  0  0  0  0
    7.4622    3.7570    0.0000 H   0  0  0  0  0  0  0  0  0  0  0  0
    7.3895    4.6486    0.0000 H   0  0  0  0  0  0  0  0  0  0  0  0
    4.1627    4.1385    0.0000 H   0  0  0  0  0  0  0  0  0  0  0  0
    6.2482    7.2120    0.0000 H   0  0  0  0  0  0  0  0  0  0  0  0
    7.5588    6.2597    0.0000 H   0  0  0  0  0  0  0  0  0  0  0  0
    2.8076    5.1072    0.0000 H   0  0  0  0  0  0  0  0  0  0  0  0
    3.0415    7.4885    0.0000 H   0  0  0  0  0  0  0  0  0  0  0  0
    2.1750    7.3547    0.0000 H   0  0  0  0  0  0  0  0  0  0  0  0
    2.3088    6.4882    0.0000 H   0  0  0  0  0  0  0  0  0  0  0  0
  1 17  1  0  0  0  0
  2 21  1  0  0  0  0
  2 24  1  0  0  0  0
  3 19  1  0  0  0  0
  3 22  1  0  0  0  0
  4 10  1  0  0  0  0
  4 11  1  0  0  0  0
  4 16  1  0  0  0  0
  5 20  1  0  0  0  0
  5 22  2  0  0  0  0
  6 24  1  0  0  0  0
  6 25  1  0  0  0  0
  6 29  1  0  0  0  0
  7  8  1  0  0  0  0
  7 24  2  0  0  0  0
  8 25  2  0  0  0  0
  9 30  1  0  0  0  0
  9 36  2  0  0  0  0
 10 12  1  0  0  0  0
 10 38  1  0  0  0  0
 10 39  1  0  0  0  0
 11 13  1  0  0  0  0
 11 40  1  0  0  0  0
 11 41  1  0  0  0  0
 12 14  1  0  0  0  0
 12 42  1  0  0  0  0
 12 43  1  0  0  0  0
 13 15  1  0  0  0  0
 13 44  1  0  0  0  0
 13 45  1  0  0  0  0
 14 15  1  0  0  0  0
 14 17  2  0  0  0  0
 15 18  2  0  0  0  0
 16 21  1  0  0  0  0
 16 46  1  0  0  0  0
 16 47  1  0  0  0  0
 17 19  1  0  0  0  0
 18 20  1  0  0  0  0
 18 48  1  0  0  0  0
 19 20  2  0  0  0  0
 21 49  1  0  0  0  0
 21 50  1  0  0  0  0
 22 23  1  0  0  0  0
 23 27  1  0  0  0  0
 23 51  1  0  0  0  0
 23 52  1  0  0  0  0
 25 26  1  0  0  0  0
 26 28  2  0  0  0  0
 26 31  1  0  0  0  0
 27 53  1  0  0  0  0
 27 54  1  0  0  0  0
 27 55  1  0  0  0  0
 28 30  1  0  0  0  0
 28 32  1  0  0  0  0
 29 56  1  0  0  0  0
 29 57  1  0  0  0  0
 29 58  1  0  0  0  0
 30 33  2  0  0  0  0
 31 34  2  0  0  0  0
 31 59  1  0  0  0  0
 32 35  2  0  0  0  0
 32 60  1  0  0  0  0
 33 34  1  0  0  0  0
 33 61  1  0  0  0  0
 34 62  1  0  0  0  0
 35 36  1  0  0  0  0
 35 63  1  0  0  0  0
 36 37  1  0  0  0  0
 37 64  1  0  0  0  0
 37 65  1  0  0  0  0
 37 66  1  0  0  0  0
M  END
> <PUBCHEM_COMPOUND_CID>
44454248

> <PUBCHEM_COMPOUND_CANONICALIZED>
1

> <PUBCHEM_CACTVS_COMPLEXITY>
766

> <PUBCHEM_CACTVS_HBOND_ACCEPTOR>
7

> <PUBCHEM_CACTVS_HBOND_DONOR>
0

> <PUBCHEM_CACTVS_ROTATABLE_BOND>
6

> <PUBCHEM_CACTVS_SUBSKEYS>
AAADceB7oABAEAAAAAAAAAAAAAAAAWLAAAA8YIAABYAAAFix/gAAHgRIAAABrAzF3wSz1vcMFEiqA6dydASS2CtvYrQd2CG9bPiuLvLEvbuPOSjkzBPY65eY2fKOqAABUAESlABQAAKgAiUoAAAAAAAAAA==

> <PUBCHEM_IUPAC_OPENEYE_NAME>
10-bromo-2-ethyl-7-[2-[[4-methyl-5-(2-methyl-5-quinolyl)-1,2,4-triazol-3-yl]sulfanyl]ethyl]-5,6,8,9-tetrahydrooxazolo[4,5-h][3]benzazepine

> <PUBCHEM_IUPAC_CAS_NAME>
10-bromo-2-ethyl-7-[2-[[4-methyl-5-(2-methyl-5-quinolinyl)-1,2,4-triazol-3-yl]thio]ethyl]-5,6,8,9-tetrahydrooxazolo[4,5-h][3]benzazepine

> <PUBCHEM_IUPAC_NAME_MARKUP>
10-bromo-2-ethyl-7-[2-[[4-methyl-5-(2-methylquinolin-5-yl)-1,2,4-triazol-3-yl]sulfanyl]ethyl]-5,6,8,9-tetrahydro-[1,3]oxazolo[4,5-h][3]benzazepine

> <PUBCHEM_IUPAC_NAME>
10-bromo-2-ethyl-7-[2-[[4-methyl-5-(2-methylquinolin-5-yl)-1,2,4-triazol-3-yl]sulfanyl]ethyl]-5,6,8,9-tetrahydro-[1,3]oxazolo[4,5-h][3]benzazepine

> <PUBCHEM_IUPAC_SYSTEMATIC_NAME>
10-bromanyl-2-ethyl-7-[2-[[4-methyl-5-(2-methylquinolin-5-yl)-1,2,4-triazol-3-yl]sulfanyl]ethyl]-5,6,8,9-tetrahydro-[1,3]oxazolo[4,5-h][3]benzazepine

> <PUBCHEM_IUPAC_TRADITIONAL_NAME>
10-bromo-2-ethyl-7-[2-[[4-methyl-5-(2-methyl-5-quinolyl)-1,2,4-triazol-3-yl]thio]ethyl]-5,6,8,9-tetrahydrooxazolo[4,5-h][3]benzazepine

> <PUBCHEM_IUPAC_INCHI>
InChI=1S/C28H29BrN6OS/c1-4-24-31-23-16-18-10-12-35(13-11-19(18)25(29)26(23)36-24)14-15-37-28-33-32-27(34(28)3)21-6-5-7-22-20(21)9-8-17(2)30-22/h5-9,16H,4,10-15H2,1-3H3

> <PUBCHEM_IUPAC_INCHIKEY>
YGOJZWAMJUGUJD-UHFFFAOYSA-N

> <PUBCHEM_XLOGP3_AA>
6

> <PUBCHEM_EXACT_MASS>
576.13069

> <PUBCHEM_MOLECULAR_FORMULA>
C28H29BrN6OS

> <PUBCHEM_MOLECULAR_WEIGHT>
577.5

> <PUBCHEM_OPENEYE_CAN_SMILES>
CCC1=NC2=C(O1)C(=C3CCN(CCC3=C2)CCSC4=NN=C(N4C)C5=C6C=CC(=NC6=CC=C5)C)Br

> <PUBCHEM_OPENEYE_ISO_SMILES>
CCC1=NC2=C(O1)C(=C3CCN(CCC3=C2)CCSC4=NN=C(N4C)C5=C6C=CC(=NC6=CC=C5)C)Br

> <PUBCHEM_CACTVS_TPSA>
98.2

> <PUBCHEM_MONOISOTOPIC_WEIGHT>
576.13069

> <PUBCHEM_TOTAL_CHARGE>
0

> <PUBCHEM_HEAVY_ATOM_COUNT>
37

> <PUBCHEM_ATOM_DEF_STEREO_COUNT>
0

> <PUBCHEM_ATOM_UDEF_STEREO_COUNT>
0

> <PUBCHEM_BOND_DEF_STEREO_COUNT>
0

> <PUBCHEM_BOND_UDEF_STEREO_COUNT>
0

> <PUBCHEM_ISOTOPIC_ATOM_COUNT>
0

> <PUBCHEM_COMPONENT_COUNT>
1

> <PUBCHEM_CACTVS_TAUTO_COUNT>
-1

> <PUBCHEM_COORDINATE_TYPE>
1
5
255

> <PUBCHEM_BONDANNOTATIONS>
14  15  8
14  17  8
15  18  8
17  19  8
18  20  8
19  20  8
26  28  8
26  31  8
28  30  8
28  32  8
3  19  8
3  22  8
30  33  8
31  34  8
32  35  8
33  34  8
35  36  8
5  20  8
5  22  8
6  24  8
6  25  8
7  24  8
7  8  8
8  25  8
9  30  8
9  36  8

$$$$
