44436735
  -OEChem-09292322252D

 65 68  0     1  0  0  0  0  0999 V2000
    4.6698    5.7155    0.0000 S   0  0  0  0  0  0  0  0  0  0  0  0
    3.7126    3.8592    0.0000 O   0  0  0  0  0  0  0  0  0  0  0  0
    4.5981   -3.4383    0.0000 N   0  0  3  0  0  0  0  0  0  0  0  0
    5.0981   -1.2477    0.0000 N   0  0  3  0  0  0  0  0  0  0  0  0
    5.2731    3.1077    0.0000 N   0  0  0  0  0  0  0  0  0  0  0  0
    5.4990   -3.0044    0.0000 C   0  0  0  0  0  0  0  0  0  0  0  0
    3.6971   -3.0044    0.0000 C   0  0  0  0  0  0  0  0  0  0  0  0
    5.7216   -2.0295    0.0000 C   0  0  0  0  0  0  0  0  0  0  0  0
    4.0981   -1.2477    0.0000 C   0  0  0  0  0  0  0  0  0  0  0  0
    3.4746   -2.0295    0.0000 C   0  0  0  0  0  0  0  0  0  0  0  0
    4.5981   -4.4383    0.0000 C   0  0  0  0  0  0  0  0  0  0  0  0
    5.5320   -0.3467    0.0000 C   0  0  0  0  0  0  0  0  0  0  0  0
    4.9686    0.4795    0.0000 C   0  0  0  0  0  0  0  0  0  0  0  0
    3.7320   -4.9383    0.0000 C   0  0  0  0  0  0  0  0  0  0  0  0
    5.4641   -4.9383    0.0000 C   0  0  0  0  0  0  0  0  0  0  0  0
    5.4025    1.3805    0.0000 C   0  0  0  0  0  0  0  0  0  0  0  0
    3.7320   -5.9383    0.0000 C   0  0  0  0  0  0  0  0  0  0  0  0
    5.4641   -5.9383    0.0000 C   0  0  0  0  0  0  0  0  0  0  0  0
    2.8660   -4.4383    0.0000 C   0  0  0  0  0  0  0  0  0  0  0  0
    6.3301   -4.4383    0.0000 C   0  0  0  0  0  0  0  0  0  0  0  0
    4.8392    2.2068    0.0000 C   0  0  0  0  0  0  0  0  0  0  0  0
    2.8660   -6.4383    0.0000 C   0  0  0  0  0  0  0  0  0  0  0  0
    6.3301   -6.4383    0.0000 C   0  0  0  0  0  0  0  0  0  0  0  0
    2.0000   -4.9383    0.0000 C   0  0  0  0  0  0  0  0  0  0  0  0
    7.1962   -4.9383    0.0000 C   0  0  0  0  0  0  0  0  0  0  0  0
    2.0000   -5.9383    0.0000 C   0  0  0  0  0  0  0  0  0  0  0  0
    7.1962   -5.9383    0.0000 C   0  0  0  0  0  0  0  0  0  0  0  0
    4.7098    3.9340    0.0000 C   0  0  0  0  0  0  0  0  0  0  0  0
    5.1436    4.8349    0.0000 C   0  0  0  0  0  0  0  0  0  0  0  0
    6.1276    5.0135    0.0000 C   0  0  0  0  0  0  0  0  0  0  0  0
    6.2618    6.0044    0.0000 C   0  0  0  0  0  0  0  0  0  0  0  0
    5.3608    6.4383    0.0000 C   0  0  0  0  0  0  0  0  0  0  0  0
    5.6370   -3.6089    0.0000 H   0  0  0  0  0  0  0  0  0  0  0  0
    6.1190   -3.0044    0.0000 H   0  0  0  0  0  0  0  0  0  0  0  0
    3.0771   -3.0044    0.0000 H   0  0  0  0  0  0  0  0  0  0  0  0
    3.5591   -3.6089    0.0000 H   0  0  0  0  0  0  0  0  0  0  0  0
    6.2802   -2.2985    0.0000 H   0  0  0  0  0  0  0  0  0  0  0  0
    6.1081   -1.5448    0.0000 H   0  0  0  0  0  0  0  0  0  0  0  0
    4.2360   -0.6432    0.0000 H   0  0  0  0  0  0  0  0  0  0  0  0
    3.5395   -0.9787    0.0000 H   0  0  0  0  0  0  0  0  0  0  0  0
    3.0880   -1.5448    0.0000 H   0  0  0  0  0  0  0  0  0  0  0  0
    2.9160   -2.2985    0.0000 H   0  0  0  0  0  0  0  0  0  0  0  0
    4.5981   -5.0583    0.0000 H   0  0  0  0  0  0  0  0  0  0  0  0
    6.0354   -0.7086    0.0000 H   0  0  0  0  0  0  0  0  0  0  0  0
    5.9758    0.0862    0.0000 H   0  0  0  0  0  0  0  0  0  0  0  0
    4.4652    0.8415    0.0000 H   0  0  0  0  0  0  0  0  0  0  0  0
    4.5248    0.0466    0.0000 H   0  0  0  0  0  0  0  0  0  0  0  0
    5.9059    1.0186    0.0000 H   0  0  0  0  0  0  0  0  0  0  0  0
    5.8464    1.8134    0.0000 H   0  0  0  0  0  0  0  0  0  0  0  0
    4.2690   -6.2483    0.0000 H   0  0  0  0  0  0  0  0  0  0  0  0
    4.9272   -6.2483    0.0000 H   0  0  0  0  0  0  0  0  0  0  0  0
    2.8660   -3.8183    0.0000 H   0  0  0  0  0  0  0  0  0  0  0  0
    6.3301   -3.8183    0.0000 H   0  0  0  0  0  0  0  0  0  0  0  0
    4.3358    2.5687    0.0000 H   0  0  0  0  0  0  0  0  0  0  0  0
    4.3954    1.7738    0.0000 H   0  0  0  0  0  0  0  0  0  0  0  0
    2.8660   -7.0583    0.0000 H   0  0  0  0  0  0  0  0  0  0  0  0
    6.3301   -7.0583    0.0000 H   0  0  0  0  0  0  0  0  0  0  0  0
    1.4631   -4.6283    0.0000 H   0  0  0  0  0  0  0  0  0  0  0  0
    7.7331   -4.6283    0.0000 H   0  0  0  0  0  0  0  0  0  0  0  0
    5.8914    3.1540    0.0000 H   0  0  0  0  0  0  0  0  0  0  0  0
    1.4631   -6.2483    0.0000 H   0  0  0  0  0  0  0  0  0  0  0  0
    7.7331   -6.2483    0.0000 H   0  0  0  0  0  0  0  0  0  0  0  0
    6.5757    4.5850    0.0000 H   0  0  0  0  0  0  0  0  0  0  0  0
    6.8078    6.2982    0.0000 H   0  0  0  0  0  0  0  0  0  0  0  0
    5.2501    7.0484    0.0000 H   0  0  0  0  0  0  0  0  0  0  0  0
  1 29  1  0  0  0  0
  1 32  1  0  0  0  0
  2 28  2  0  0  0  0
  3  6  1  0  0  0  0
  3  7  1  0  0  0  0
  3 11  1  0  0  0  0
  4  8  1  0  0  0  0
  4  9  1  0  0  0  0
  4 12  1  0  0  0  0
  5 21  1  0  0  0  0
  5 28  1  0  0  0  0
  5 60  1  0  0  0  0
  6  8  1  0  0  0  0
  6 33  1  0  0  0  0
  6 34  1  0  0  0  0
  7 10  1  0  0  0  0
  7 35  1  0  0  0  0
  7 36  1  0  0  0  0
  8 37  1  0  0  0  0
  8 38  1  0  0  0  0
  9 10  1  0  0  0  0
  9 39  1  0  0  0  0
  9 40  1  0  0  0  0
 10 41  1  0  0  0  0
 10 42  1  0  0  0  0
 11 14  1  0  0  0  0
 11 15  1  0  0  0  0
 11 43  1  0  0  0  0
 12 13  1  0  0  0  0
 12 44  1  0  0  0  0
 12 45  1  0  0  0  0
 13 16  1  0  0  0  0
 13 46  1  0  0  0  0
 13 47  1  0  0  0  0
 14 17  2  0  0  0  0
 14 19  1  0  0  0  0
 15 18  2  0  0  0  0
 15 20  1  0  0  0  0
 16 21  1  0  0  0  0
 16 48  1  0  0  0  0
 16 49  1  0  0  0  0
 17 22  1  0  0  0  0
 17 50  1  0  0  0  0
 18 23  1  0  0  0  0
 18 51  1  0  0  0  0
 19 24  2  0  0  0  0
 19 52  1  0  0  0  0
 20 25  2  0  0  0  0
 20 53  1  0  0  0  0
 21 54  1  0  0  0  0
 21 55  1  0  0  0  0
 22 26  2  0  0  0  0
 22 56  1  0  0  0  0
 23 27  2  0  0  0  0
 23 57  1  0  0  0  0
 24 26  1  0  0  0  0
 24 58  1  0  0  0  0
 25 27  1  0  0  0  0
 25 59  1  0  0  0  0
 26 61  1  0  0  0  0
 27 62  1  0  0  0  0
 28 29  1  0  0  0  0
 29 30  2  0  0  0  0
 30 31  1  0  0  0  0
 30 63  1  0  0  0  0
 31 32  2  0  0  0  0
 31 64  1  0  0  0  0
 32 65  1  0  0  0  0
M  END
> <PUBCHEM_COMPOUND_CID>
44436735

> <PUBCHEM_COMPOUND_CANONICALIZED>
1

> <PUBCHEM_CACTVS_COMPLEXITY>
529

> <PUBCHEM_CACTVS_HBOND_ACCEPTOR>
4

> <PUBCHEM_CACTVS_HBOND_DONOR>
1

> <PUBCHEM_CACTVS_ROTATABLE_BOND>
9

> <PUBCHEM_CACTVS_SUBSKEYS>
AAADcfB7IABAAAAAAAAAAAAAAAAAASAAAAAwYAAABYAAAAAB0AAAHgQQAAAADCjF2ASwAYPAAAiMAiFSEACDAIAkCBBIiJkIBMgIYDKg1RGUIQhglgCoiYcYgMAOAAAAAAAAAAAAAAAAAAAAAAAAAAAAAA==

> <PUBCHEM_IUPAC_OPENEYE_NAME>
N-[4-(4-benzhydryl-1,4-diazepan-1-yl)butyl]thiophene-2-carboxamide

> <PUBCHEM_IUPAC_CAS_NAME>
N-[4-[4-(diphenylmethyl)-1,4-diazepan-1-yl]butyl]-2-thiophenecarboxamide

> <PUBCHEM_IUPAC_NAME_MARKUP>
<I>N</I>-[4-(4-benzhydryl-1,4-diazepan-1-yl)butyl]thiophene-2-carboxamide

> <PUBCHEM_IUPAC_NAME>
N-[4-(4-benzhydryl-1,4-diazepan-1-yl)butyl]thiophene-2-carboxamide

> <PUBCHEM_IUPAC_SYSTEMATIC_NAME>
N-[4-[4-(diphenylmethyl)-1,4-diazepan-1-yl]butyl]thiophene-2-carboxamide

> <PUBCHEM_IUPAC_TRADITIONAL_NAME>
N-[4-(4-benzhydryl-1,4-diazepan-1-yl)butyl]thiophene-2-carboxamide

> <PUBCHEM_IUPAC_INCHI>
InChI=1S/C27H33N3OS/c31-27(25-15-9-22-32-25)28-16-7-8-17-29-18-10-19-30(21-20-29)26(23-11-3-1-4-12-23)24-13-5-2-6-14-24/h1-6,9,11-15,22,26H,7-8,10,16-21H2,(H,28,31)

> <PUBCHEM_IUPAC_INCHIKEY>
FQXALFLSCOKUML-UHFFFAOYSA-N

> <PUBCHEM_XLOGP3_AA>
5.3

> <PUBCHEM_EXACT_MASS>
447.23443386

> <PUBCHEM_MOLECULAR_FORMULA>
C27H33N3OS

> <PUBCHEM_MOLECULAR_WEIGHT>
447.6

> <PUBCHEM_OPENEYE_CAN_SMILES>
C1CN(CCN(C1)C(C2=CC=CC=C2)C3=CC=CC=C3)CCCCNC(=O)C4=CC=CS4

> <PUBCHEM_OPENEYE_ISO_SMILES>
C1CN(CCN(C1)C(C2=CC=CC=C2)C3=CC=CC=C3)CCCCNC(=O)C4=CC=CS4

> <PUBCHEM_CACTVS_TPSA>
63.8

> <PUBCHEM_MONOISOTOPIC_WEIGHT>
447.23443386

> <PUBCHEM_TOTAL_CHARGE>
0

> <PUBCHEM_HEAVY_ATOM_COUNT>
32

> <PUBCHEM_ATOM_DEF_STEREO_COUNT>
0

> <PUBCHEM_ATOM_UDEF_STEREO_COUNT>
0

> <PUBCHEM_BOND_DEF_STEREO_COUNT>
0

> <PUBCHEM_BOND_UDEF_STEREO_COUNT>
0

> <PUBCHEM_ISOTOPIC_ATOM_COUNT>
0

> <PUBCHEM_COMPONENT_COUNT>
1

> <PUBCHEM_CACTVS_TAUTO_COUNT>
-1

> <PUBCHEM_COORDINATE_TYPE>
1
5
255

> <PUBCHEM_BONDANNOTATIONS>
1  29  8
1  32  8
14  17  8
14  19  8
15  18  8
15  20  8
17  22  8
18  23  8
19  24  8
20  25  8
22  26  8
23  27  8
24  26  8
25  27  8
29  30  8
30  31  8
31  32  8

$$$$
