155557665
  -OEChem-09292322092D

 51 55  0     0  0  0  0  0  0999 V2000
    8.1243    0.6343    0.0000 S   0  0  0  0  0  0  0  0  0  0  0  0
    2.6566   -4.8057    0.0000 F   0  0  0  0  0  0  0  0  0  0  0  0
    2.0000   -3.5531    0.0000 F   0  0  0  0  0  0  0  0  0  0  0  0
    3.9091   -4.1491    0.0000 F   0  0  0  0  0  0  0  0  0  0  0  0
    5.6906    4.8057    0.0000 O   0  0  0  0  0  0  0  0  0  0  0  0
    5.0653    2.9059    0.0000 N   0  0  0  0  0  0  0  0  0  0  0  0
    6.4394    1.4191    0.0000 N   0  0  0  0  0  0  0  0  0  0  0  0
    5.0970    0.2197    0.0000 N   0  0  0  0  0  0  0  0  0  0  0  0
    5.5019   -1.5035    0.0000 N   0  0  0  0  0  0  0  0  0  0  0  0
    7.6243   -0.9045    0.0000 C   0  0  0  0  0  0  0  0  0  0  0  0
    7.9340   -1.8491    0.0000 C   0  0  0  0  0  0  0  0  0  0  0  0
    8.9281   -1.8483    0.0000 C   0  0  0  0  0  0  0  0  0  0  0  0
    9.2361   -0.9031    0.0000 C   0  0  0  0  0  0  0  0  0  0  0  0
    8.4334   -0.3167    0.0000 C   0  0  0  0  0  0  0  0  0  0  0  0
    6.8153   -0.3167    0.0000 C   0  0  0  0  0  0  0  0  0  0  0  0
    7.1243    0.6343    0.0000 C   0  0  0  0  0  0  0  0  0  0  0  0
    4.7526    1.9561    0.0000 C   0  0  0  0  0  0  0  0  0  0  0  0
    5.7999   -0.5490    0.0000 C   0  0  0  0  0  0  0  0  0  0  0  0
    6.0442    3.1101    0.0000 C   0  0  0  0  0  0  0  0  0  0  0  0
    4.3990    3.6517    0.0000 C   0  0  0  0  0  0  0  0  0  0  0  0
    5.4189    1.2104    0.0000 C   0  0  0  0  0  0  0  0  0  0  0  0
    6.3569    4.0599    0.0000 C   0  0  0  0  0  0  0  0  0  0  0  0
    4.7117    4.6015    0.0000 C   0  0  0  0  0  0  0  0  0  0  0  0
    4.5262   -1.7228    0.0000 C   0  0  0  0  0  0  0  0  0  0  0  0
    4.2282   -2.6773    0.0000 C   0  0  0  0  0  0  0  0  0  0  0  0
    3.8486   -0.9874    0.0000 C   0  0  0  0  0  0  0  0  0  0  0  0
    3.2526   -2.8965    0.0000 C   0  0  0  0  0  0  0  0  0  0  0  0
    2.8729   -1.2066    0.0000 C   0  0  0  0  0  0  0  0  0  0  0  0
    2.5749   -2.1612    0.0000 C   0  0  0  0  0  0  0  0  0  0  0  0
    2.9546   -3.8511    0.0000 C   0  0  0  0  0  0  0  0  0  0  0  0
    7.3278   -1.9793    0.0000 H   0  0  0  0  0  0  0  0  0  0  0  0
    7.9997   -2.4656    0.0000 H   0  0  0  0  0  0  0  0  0  0  0  0
    8.8634   -2.4649    0.0000 H   0  0  0  0  0  0  0  0  0  0  0  0
    9.5345   -1.9774    0.0000 H   0  0  0  0  0  0  0  0  0  0  0  0
    9.8021   -1.1561    0.0000 H   0  0  0  0  0  0  0  0  0  0  0  0
    9.5472   -0.3668    0.0000 H   0  0  0  0  0  0  0  0  0  0  0  0
    4.2063    2.2493    0.0000 H   0  0  0  0  0  0  0  0  0  0  0  0
    4.3690    1.4690    0.0000 H   0  0  0  0  0  0  0  0  0  0  0  0
    6.0635    2.4904    0.0000 H   0  0  0  0  0  0  0  0  0  0  0  0
    6.6579    3.0214    0.0000 H   0  0  0  0  0  0  0  0  0  0  0  0
    3.8527    3.9448    0.0000 H   0  0  0  0  0  0  0  0  0  0  0  0
    4.0154    3.1646    0.0000 H   0  0  0  0  0  0  0  0  0  0  0  0
    6.9032    3.7668    0.0000 H   0  0  0  0  0  0  0  0  0  0  0  0
    6.7405    4.5470    0.0000 H   0  0  0  0  0  0  0  0  0  0  0  0
    4.6925    5.2212    0.0000 H   0  0  0  0  0  0  0  0  0  0  0  0
    4.0981    4.6902    0.0000 H   0  0  0  0  0  0  0  0  0  0  0  0
    5.9221   -1.9595    0.0000 H   0  0  0  0  0  0  0  0  0  0  0  0
    4.6484   -3.1332    0.0000 H   0  0  0  0  0  0  0  0  0  0  0  0
    4.0333   -0.3956    0.0000 H   0  0  0  0  0  0  0  0  0  0  0  0
    2.4527   -0.7507    0.0000 H   0  0  0  0  0  0  0  0  0  0  0  0
    1.9700   -2.2971    0.0000 H   0  0  0  0  0  0  0  0  0  0  0  0
  1 14  1  0  0  0  0
  1 16  1  0  0  0  0
  2 30  1  0  0  0  0
  3 30  1  0  0  0  0
  4 30  1  0  0  0  0
  5 22  1  0  0  0  0
  5 23  1  0  0  0  0
  6 17  1  0  0  0  0
  6 19  1  0  0  0  0
  6 20  1  0  0  0  0
  7 16  2  0  0  0  0
  7 21  1  0  0  0  0
  8 18  1  0  0  0  0
  8 21  2  0  0  0  0
  9 18  1  0  0  0  0
  9 24  1  0  0  0  0
  9 47  1  0  0  0  0
 10 11  1  0  0  0  0
 10 14  2  0  0  0  0
 10 15  1  0  0  0  0
 11 12  1  0  0  0  0
 11 31  1  0  0  0  0
 11 32  1  0  0  0  0
 12 13  1  0  0  0  0
 12 33  1  0  0  0  0
 12 34  1  0  0  0  0
 13 14  1  0  0  0  0
 13 35  1  0  0  0  0
 13 36  1  0  0  0  0
 15 16  1  0  0  0  0
 15 18  2  0  0  0  0
 17 21  1  0  0  0  0
 17 37  1  0  0  0  0
 17 38  1  0  0  0  0
 19 22  1  0  0  0  0
 19 39  1  0  0  0  0
 19 40  1  0  0  0  0
 20 23  1  0  0  0  0
 20 41  1  0  0  0  0
 20 42  1  0  0  0  0
 22 43  1  0  0  0  0
 22 44  1  0  0  0  0
 23 45  1  0  0  0  0
 23 46  1  0  0  0  0
 24 25  1  0  0  0  0
 24 26  2  0  0  0  0
 25 27  2  0  0  0  0
 25 48  1  0  0  0  0
 26 28  1  0  0  0  0
 26 49  1  0  0  0  0
 27 29  1  0  0  0  0
 27 30  1  0  0  0  0
 28 29  2  0  0  0  0
 28 50  1  0  0  0  0
 29 51  1  0  0  0  0
M  END
> <PUBCHEM_COMPOUND_CID>
155557665

> <PUBCHEM_COMPOUND_CANONICALIZED>
1

> <PUBCHEM_CACTVS_COMPLEXITY>
591

> <PUBCHEM_CACTVS_HBOND_ACCEPTOR>
9

> <PUBCHEM_CACTVS_HBOND_DONOR>
1

> <PUBCHEM_CACTVS_ROTATABLE_BOND>
4

> <PUBCHEM_CACTVS_SUBSKEYS>
AAADceB7oYBAAAAAAAAAAAAAAAAAAaIAAAA8WIAAAAASAFgB/AAAHwQQAAAADAjh2xYx8dfIFAikAiZiZACD0KlhCrgJmDA4ZJiKaGLg2dGXJAxokAL4yCcQgEAOgAAAQAAAAAAAAACAAAAAAAAAAgAAAA==

> <PUBCHEM_IUPAC_OPENEYE_NAME>
10-(morpholinomethyl)-N-[3-(trifluoromethyl)phenyl]-7-thia-9,11-diazatricyclo[6.4.0.02,6]dodeca-1(12),2(6),8,10-tetraen-12-amine

> <PUBCHEM_IUPAC_CAS_NAME>
10-(4-morpholinylmethyl)-N-[3-(trifluoromethyl)phenyl]-7-thia-9,11-diazatricyclo[6.4.0.02,6]dodeca-1(12),2(6),8,10-tetraen-12-amine

> <PUBCHEM_IUPAC_NAME_MARKUP>
10-(morpholin-4-ylmethyl)-<I>N</I>-[3-(trifluoromethyl)phenyl]-7-thia-9,11-diazatricyclo[6.4.0.0<SUP>2,6</SUP>]dodeca-1(12),2(6),8,10-tetraen-12-amine

> <PUBCHEM_IUPAC_NAME>
10-(morpholin-4-ylmethyl)-N-[3-(trifluoromethyl)phenyl]-7-thia-9,11-diazatricyclo[6.4.0.02,6]dodeca-1(12),2(6),8,10-tetraen-12-amine

> <PUBCHEM_IUPAC_SYSTEMATIC_NAME>
10-(morpholin-4-ylmethyl)-N-[3-(trifluoromethyl)phenyl]-7-thia-9,11-diazatricyclo[6.4.0.02,6]dodeca-1(12),2(6),8,10-tetraen-12-amine

> <PUBCHEM_IUPAC_TRADITIONAL_NAME>
[10-(morpholinomethyl)-7-thia-9,11-diazatricyclo[6.4.0.02,6]dodeca-1(12),2(6),8,10-tetraen-12-yl]-[3-(trifluoromethyl)phenyl]amine

> <PUBCHEM_IUPAC_INCHI>
InChI=1S/C21H21F3N4OS/c22-21(23,24)13-3-1-4-14(11-13)25-19-18-15-5-2-6-16(15)30-20(18)27-17(26-19)12-28-7-9-29-10-8-28/h1,3-4,11H,2,5-10,12H2,(H,25,26,27)

> <PUBCHEM_IUPAC_INCHIKEY>
IJOXFUQBPSXUIQ-UHFFFAOYSA-N

> <PUBCHEM_XLOGP3_AA>
4.5

> <PUBCHEM_EXACT_MASS>
434.13881697

> <PUBCHEM_MOLECULAR_FORMULA>
C21H21F3N4OS

> <PUBCHEM_MOLECULAR_WEIGHT>
434.5

> <PUBCHEM_OPENEYE_CAN_SMILES>
C1CC2=C(C1)SC3=NC(=NC(=C23)NC4=CC=CC(=C4)C(F)(F)F)CN5CCOCC5

> <PUBCHEM_OPENEYE_ISO_SMILES>
C1CC2=C(C1)SC3=NC(=NC(=C23)NC4=CC=CC(=C4)C(F)(F)F)CN5CCOCC5

> <PUBCHEM_CACTVS_TPSA>
78.5

> <PUBCHEM_MONOISOTOPIC_WEIGHT>
434.13881697

> <PUBCHEM_TOTAL_CHARGE>
0

> <PUBCHEM_HEAVY_ATOM_COUNT>
30

> <PUBCHEM_ATOM_DEF_STEREO_COUNT>
0

> <PUBCHEM_ATOM_UDEF_STEREO_COUNT>
0

> <PUBCHEM_BOND_DEF_STEREO_COUNT>
0

> <PUBCHEM_BOND_UDEF_STEREO_COUNT>
0

> <PUBCHEM_ISOTOPIC_ATOM_COUNT>
0

> <PUBCHEM_COMPONENT_COUNT>
1

> <PUBCHEM_CACTVS_TAUTO_COUNT>
-1

> <PUBCHEM_COORDINATE_TYPE>
1
5
255

> <PUBCHEM_BONDANNOTATIONS>
1  14  8
1  16  8
10  14  8
10  15  8
15  16  8
15  18  8
24  25  8
24  26  8
25  27  8
26  28  8
27  29  8
28  29  8
7  16  8
7  21  8
8  18  8
8  21  8

$$$$
