50898777
  -OEChem-09292322482D

 67 70  0     0  0  0  0  0  0999 V2000
    6.3518   -4.1938    0.0000 O   0  0  0  0  0  0  0  0  0  0  0  0
    3.6613   -2.3382    0.0000 O   0  0  0  0  0  0  0  0  0  0  0  0
   11.4556    5.1618    0.0000 O   0  0  0  0  0  0  0  0  0  0  0  0
    9.7235    5.1618    0.0000 O   0  0  0  0  0  0  0  0  0  0  0  0
    7.9915    0.1618    0.0000 N   0  0  0  0  0  0  0  0  0  0  0  0
    5.3934   -2.3382    0.0000 N   0  0  0  0  0  0  0  0  0  0  0  0
    5.0274   -5.3770    0.0000 N   0  0  0  0  0  0  0  0  0  0  0  0
    6.2594   -0.8382    0.0000 C   0  0  0  0  0  0  0  0  0  0  0  0
    7.1254   -1.3382    0.0000 C   0  0  0  0  0  0  0  0  0  0  0  0
    6.2594    0.1618    0.0000 C   0  0  0  0  0  0  0  0  0  0  0  0
    7.9915   -0.8382    0.0000 C   0  0  0  0  0  0  0  0  0  0  0  0
    7.1254    0.6618    0.0000 C   0  0  0  0  0  0  0  0  0  0  0  0
    5.3934   -1.3382    0.0000 C   0  0  0  0  0  0  0  0  0  0  0  0
    8.8575    0.6618    0.0000 C   0  0  0  0  0  0  0  0  0  0  0  0
    8.8575    1.6618    0.0000 C   0  0  0  0  0  0  0  0  0  0  0  0
    9.7235    2.1618    0.0000 C   0  0  0  0  0  0  0  0  0  0  0  0
    4.5274   -3.8382    0.0000 C   0  0  0  0  0  0  0  0  0  0  0  0
    4.5274   -2.8382    0.0000 C   0  0  0  0  0  0  0  0  0  0  0  0
    5.3364   -4.4260    0.0000 C   0  0  0  0  0  0  0  0  0  0  0  0
    3.7183   -4.4260    0.0000 C   0  0  0  0  0  0  0  0  0  0  0  0
    4.0274   -5.3770    0.0000 C   0  0  0  0  0  0  0  0  0  0  0  0
    5.7123   -6.1618    0.0000 C   0  0  0  0  0  0  0  0  0  0  0  0
    9.7235    3.1618    0.0000 C   0  0  0  0  0  0  0  0  0  0  0  0
    6.7328   -5.9531    0.0000 C   0  0  0  0  0  0  0  0  0  0  0  0
    7.0547   -4.9624    0.0000 C   0  0  0  0  0  0  0  0  0  0  0  0
   10.5895    3.6618    0.0000 C   0  0  0  0  0  0  0  0  0  0  0  0
    2.7029   -4.1938    0.0000 C   0  0  0  0  0  0  0  0  0  0  0  0
    3.3424   -6.1618    0.0000 C   0  0  0  0  0  0  0  0  0  0  0  0
    2.0000   -4.9624    0.0000 C   0  0  0  0  0  0  0  0  0  0  0  0
    2.3219   -5.9531    0.0000 C   0  0  0  0  0  0  0  0  0  0  0  0
   10.5895    4.6618    0.0000 C   0  0  0  0  0  0  0  0  0  0  0  0
   11.4556    6.1618    0.0000 C   0  0  0  0  0  0  0  0  0  0  0  0
    6.2594   -1.4582    0.0000 H   0  0  0  0  0  0  0  0  0  0  0  0
    6.7269   -1.8132    0.0000 H   0  0  0  0  0  0  0  0  0  0  0  0
    7.5240   -1.8132    0.0000 H   0  0  0  0  0  0  0  0  0  0  0  0
    6.0474    0.7444    0.0000 H   0  0  0  0  0  0  0  0  0  0  0  0
    5.6488    0.0541    0.0000 H   0  0  0  0  0  0  0  0  0  0  0  0
    8.2035   -1.4208    0.0000 H   0  0  0  0  0  0  0  0  0  0  0  0
    8.6020   -0.7305    0.0000 H   0  0  0  0  0  0  0  0  0  0  0  0
    7.5240    1.1367    0.0000 H   0  0  0  0  0  0  0  0  0  0  0  0
    6.7269    1.1367    0.0000 H   0  0  0  0  0  0  0  0  0  0  0  0
    5.1813   -0.7556    0.0000 H   0  0  0  0  0  0  0  0  0  0  0  0
    4.7828   -1.4459    0.0000 H   0  0  0  0  0  0  0  0  0  0  0  0
    9.0695    0.0792    0.0000 H   0  0  0  0  0  0  0  0  0  0  0  0
    9.4681    0.7695    0.0000 H   0  0  0  0  0  0  0  0  0  0  0  0
    8.6454    2.2444    0.0000 H   0  0  0  0  0  0  0  0  0  0  0  0
    8.2469    1.5541    0.0000 H   0  0  0  0  0  0  0  0  0  0  0  0
    5.9303   -2.6482    0.0000 H   0  0  0  0  0  0  0  0  0  0  0  0
    9.9356    1.5792    0.0000 H   0  0  0  0  0  0  0  0  0  0  0  0
   10.3341    2.2694    0.0000 H   0  0  0  0  0  0  0  0  0  0  0  0
    5.1824   -6.4836    0.0000 H   0  0  0  0  0  0  0  0  0  0  0  0
    5.9387   -6.7390    0.0000 H   0  0  0  0  0  0  0  0  0  0  0  0
    9.5115    3.7444    0.0000 H   0  0  0  0  0  0  0  0  0  0  0  0
    9.1129    3.0541    0.0000 H   0  0  0  0  0  0  0  0  0  0  0  0
    6.7513   -6.5728    0.0000 H   0  0  0  0  0  0  0  0  0  0  0  0
    7.3466   -6.0409    0.0000 H   0  0  0  0  0  0  0  0  0  0  0  0
    7.6029   -5.2521    0.0000 H   0  0  0  0  0  0  0  0  0  0  0  0
    7.4339   -4.4719    0.0000 H   0  0  0  0  0  0  0  0  0  0  0  0
   10.8016    3.0792    0.0000 H   0  0  0  0  0  0  0  0  0  0  0  0
   11.2001    3.7694    0.0000 H   0  0  0  0  0  0  0  0  0  0  0  0
    2.5182   -3.6019    0.0000 H   0  0  0  0  0  0  0  0  0  0  0  0
    3.5408   -6.7492    0.0000 H   0  0  0  0  0  0  0  0  0  0  0  0
    1.3940   -4.8312    0.0000 H   0  0  0  0  0  0  0  0  0  0  0  0
    1.9088   -6.4154    0.0000 H   0  0  0  0  0  0  0  0  0  0  0  0
   12.0756    6.1618    0.0000 H   0  0  0  0  0  0  0  0  0  0  0  0
   11.4556    6.7818    0.0000 H   0  0  0  0  0  0  0  0  0  0  0  0
   10.8356    6.1618    0.0000 H   0  0  0  0  0  0  0  0  0  0  0  0
  1 19  1  0  0  0  0
  1 25  1  0  0  0  0
  2 18  2  0  0  0  0
  3 31  1  0  0  0  0
  3 32  1  0  0  0  0
  4 31  2  0  0  0  0
  5 11  1  0  0  0  0
  5 12  1  0  0  0  0
  5 14  1  0  0  0  0
  6 13  1  0  0  0  0
  6 18  1  0  0  0  0
  6 48  1  0  0  0  0
  7 19  1  0  0  0  0
  7 21  1  0  0  0  0
  7 22  1  0  0  0  0
  8  9  1  0  0  0  0
  8 10  1  0  0  0  0
  8 13  1  0  0  0  0
  8 33  1  0  0  0  0
  9 11  1  0  0  0  0
  9 34  1  0  0  0  0
  9 35  1  0  0  0  0
 10 12  1  0  0  0  0
 10 36  1  0  0  0  0
 10 37  1  0  0  0  0
 11 38  1  0  0  0  0
 11 39  1  0  0  0  0
 12 40  1  0  0  0  0
 12 41  1  0  0  0  0
 13 42  1  0  0  0  0
 13 43  1  0  0  0  0
 14 15  1  0  0  0  0
 14 44  1  0  0  0  0
 14 45  1  0  0  0  0
 15 16  1  0  0  0  0
 15 46  1  0  0  0  0
 15 47  1  0  0  0  0
 16 23  1  0  0  0  0
 16 49  1  0  0  0  0
 16 50  1  0  0  0  0
 17 18  1  0  0  0  0
 17 19  2  0  0  0  0
 17 20  1  0  0  0  0
 20 21  1  0  0  0  0
 20 27  2  0  0  0  0
 21 28  2  0  0  0  0
 22 24  1  0  0  0  0
 22 51  1  0  0  0  0
 22 52  1  0  0  0  0
 23 26  1  0  0  0  0
 23 53  1  0  0  0  0
 23 54  1  0  0  0  0
 24 25  1  0  0  0  0
 24 55  1  0  0  0  0
 24 56  1  0  0  0  0
 25 57  1  0  0  0  0
 25 58  1  0  0  0  0
 26 31  1  0  0  0  0
 26 59  1  0  0  0  0
 26 60  1  0  0  0  0
 27 29  1  0  0  0  0
 27 61  1  0  0  0  0
 28 30  1  0  0  0  0
 28 62  1  0  0  0  0
 29 30  2  0  0  0  0
 29 63  1  0  0  0  0
 30 64  1  0  0  0  0
 32 65  1  0  0  0  0
 32 66  1  0  0  0  0
 32 67  1  0  0  0  0
M  END
> <PUBCHEM_COMPOUND_CID>
50898777

> <PUBCHEM_COMPOUND_CANONICALIZED>
1

> <PUBCHEM_CACTVS_COMPLEXITY>
622

> <PUBCHEM_CACTVS_HBOND_ACCEPTOR>
5

> <PUBCHEM_CACTVS_HBOND_DONOR>
1

> <PUBCHEM_CACTVS_ROTATABLE_BOND>
10

> <PUBCHEM_CACTVS_SUBSKEYS>
AAADcfB7OAAAAAAAAAAAAAAAAAAAAWAAAAA8WIAAAAAAAFgB8AAAHgAQAAAADQjhngYyzPPMFACoAyXyXACCiCAlIiAI2KE8bNgMJv7E9ZuOOejm9hHI6Ue8yOCOgAAAAAACAAAAAAAAAAQAAAAAAAAAAA==

> <PUBCHEM_IUPAC_OPENEYE_NAME>
methyl 6-[4-[(3,4-dihydro-2H-[1,3]oxazino[3,2-a]indole-10-carbonylamino)methyl]-1-piperidyl]hexanoate

> <PUBCHEM_IUPAC_CAS_NAME>
6-[4-[[[3,4-dihydro-2H-[1,3]oxazino[3,2-a]indol-10-yl(oxo)methyl]amino]methyl]-1-piperidinyl]hexanoic acid methyl ester

> <PUBCHEM_IUPAC_NAME_MARKUP>
methyl 6-[4-[(3,4-dihydro-2<I>H</I>-[1,3]oxazino[3,2-a]indole-10-carbonylamino)methyl]piperidin-1-yl]hexanoate

> <PUBCHEM_IUPAC_NAME>
methyl 6-[4-[(3,4-dihydro-2H-[1,3]oxazino[3,2-a]indole-10-carbonylamino)methyl]piperidin-1-yl]hexanoate

> <PUBCHEM_IUPAC_SYSTEMATIC_NAME>
methyl 6-[4-[(3,4-dihydro-2H-[1,3]oxazino[3,2-a]indol-10-ylcarbonylamino)methyl]piperidin-1-yl]hexanoate

> <PUBCHEM_IUPAC_TRADITIONAL_NAME>
6-[4-[(3,4-dihydro-2H-[1,3]oxazin[3,2-a]indole-10-carbonylamino)methyl]piperidino]hexanoic acid methyl ester

> <PUBCHEM_IUPAC_INCHI>
InChI=1S/C25H35N3O4/c1-31-22(29)10-3-2-6-13-27-15-11-19(12-16-27)18-26-24(30)23-20-8-4-5-9-21(20)28-14-7-17-32-25(23)28/h4-5,8-9,19H,2-3,6-7,10-18H2,1H3,(H,26,30)

> <PUBCHEM_IUPAC_INCHIKEY>
RNXYMZNGMNWKMC-UHFFFAOYSA-N

> <PUBCHEM_XLOGP3_AA>
3.3

> <PUBCHEM_EXACT_MASS>
441.26275661

> <PUBCHEM_MOLECULAR_FORMULA>
C25H35N3O4

> <PUBCHEM_MOLECULAR_WEIGHT>
441.6

> <PUBCHEM_OPENEYE_CAN_SMILES>
COC(=O)CCCCCN1CCC(CC1)CNC(=O)C2=C3N(CCCO3)C4=CC=CC=C42

> <PUBCHEM_OPENEYE_ISO_SMILES>
COC(=O)CCCCCN1CCC(CC1)CNC(=O)C2=C3N(CCCO3)C4=CC=CC=C42

> <PUBCHEM_CACTVS_TPSA>
72.8

> <PUBCHEM_MONOISOTOPIC_WEIGHT>
441.26275661

> <PUBCHEM_TOTAL_CHARGE>
0

> <PUBCHEM_HEAVY_ATOM_COUNT>
32

> <PUBCHEM_ATOM_DEF_STEREO_COUNT>
0

> <PUBCHEM_ATOM_UDEF_STEREO_COUNT>
0

> <PUBCHEM_BOND_DEF_STEREO_COUNT>
0

> <PUBCHEM_BOND_UDEF_STEREO_COUNT>
0

> <PUBCHEM_ISOTOPIC_ATOM_COUNT>
0

> <PUBCHEM_COMPONENT_COUNT>
1

> <PUBCHEM_CACTVS_TAUTO_COUNT>
-1

> <PUBCHEM_COORDINATE_TYPE>
1
5
255

> <PUBCHEM_BONDANNOTATIONS>
17  19  8
17  20  8
20  21  8
20  27  8
21  28  8
27  29  8
28  30  8
29  30  8
7  19  8
7  21  8

$$$$
