11995339
  -OEChem-09292322282D

 84 87  0     1  0  0  0  0  0999 V2000
    7.9607    4.2312    0.0000 O   0  0  0  0  0  0  0  0  0  0  0  0
    8.2425    5.9908    0.0000 O   0  0  0  0  0  0  0  0  0  0  0  0
    2.5369   -4.9908    0.0000 O   0  0  0  0  0  0  0  0  0  0  0  0
    6.0010   -4.9908    0.0000 O   0  0  0  0  0  0  0  0  0  0  0  0
    6.0010    1.0092    0.0000 C   0  0  2  0  0  0  0  0  0  0  0  0
    6.9473    1.3139    0.0000 C   0  0  2  0  0  0  0  0  0  0  0  0
    6.0010    0.0092    0.0000 C   0  0  1  0  0  0  0  0  0  0  0  0
    7.5309    0.5092    0.0000 C   0  0  0  0  0  0  0  0  0  0  0  0
    6.9473   -0.2955    0.0000 C   0  0  0  0  0  0  0  0  0  0  0  0
    5.1350    1.5092    0.0000 C   0  0  0  0  0  0  0  0  0  0  0  0
    7.2579    2.2644    0.0000 C   0  0  1  0  0  0  0  0  0  0  0  0
    5.1350   -0.4908    0.0000 C   0  0  0  0  0  0  0  0  0  0  0  0
    6.0010    2.0092    0.0000 C   0  0  0  0  0  0  0  0  0  0  0  0
    4.2690    1.0092    0.0000 C   0  0  0  0  0  0  0  0  0  0  0  0
    4.2690    0.0092    0.0000 C   0  0  0  0  0  0  0  0  0  0  0  0
    8.2364    2.4707    0.0000 C   0  0  0  0  0  0  0  0  0  0  0  0
    6.5901    3.0088    0.0000 C   0  0  0  0  0  0  0  0  0  0  0  0
    8.5471    3.4212    0.0000 C   0  0  1  0  0  0  0  0  0  0  0  0
    5.1350   -1.4908    0.0000 C   0  0  0  0  0  0  0  0  0  0  0  0
    9.4987    3.7286    0.0000 C   0  0  2  0  0  0  0  0  0  0  0  0
    4.2690   -1.9908    0.0000 C   0  0  0  0  0  0  0  0  0  0  0  0
   10.3067    3.1394    0.0000 C   0  0  0  0  0  0  0  0  0  0  0  0
    9.5004    4.7286    0.0000 C   0  0  0  0  0  0  0  0  0  0  0  0
    8.5499    5.0392    0.0000 C   0  0  0  0  0  0  0  0  0  0  0  0
    4.2690   -2.9908    0.0000 C   0  0  0  0  0  0  0  0  0  0  0  0
   11.2209    3.5445    0.0000 C   0  0  0  0  0  0  0  0  0  0  0  0
    3.4030   -3.4908    0.0000 C   0  0  0  0  0  0  0  0  0  0  0  0
   10.3104    5.3149    0.0000 C   0  0  0  0  0  0  0  0  0  0  0  0
    5.1350   -3.4908    0.0000 C   0  0  0  0  0  0  0  0  0  0  0  0
    3.4030   -4.4908    0.0000 C   0  0  2  0  0  0  0  0  0  0  0  0
    4.2690   -4.9908    0.0000 C   0  0  1  0  0  0  0  0  0  0  0  0
    5.1350   -4.4908    0.0000 C   0  0  2  0  0  0  0  0  0  0  0  0
   12.0289    2.9553    0.0000 C   0  0  0  0  0  0  0  0  0  0  0  0
    4.2690   -5.9908    0.0000 C   0  0  0  0  0  0  0  0  0  0  0  0
    6.0010   -2.9908    0.0000 C   0  0  0  0  0  0  0  0  0  0  0  0
   12.9432    3.3605    0.0000 C   0  0  0  0  0  0  0  0  0  0  0  0
    7.7870    1.4458    0.0000 H   0  0  0  0  0  0  0  0  0  0  0  0
    6.0910   -0.8360    0.0000 H   0  0  0  0  0  0  0  0  0  0  0  0
    7.9917    0.0945    0.0000 H   0  0  0  0  0  0  0  0  0  0  0  0
    7.9917    0.9239    0.0000 H   0  0  0  0  0  0  0  0  0  0  0  0
    6.6962   -0.8624    0.0000 H   0  0  0  0  0  0  0  0  0  0  0  0
    7.4846   -0.6048    0.0000 H   0  0  0  0  0  0  0  0  0  0  0  0
    5.5335    1.9841    0.0000 H   0  0  0  0  0  0  0  0  0  0  0  0
    4.7365    1.9841    0.0000 H   0  0  0  0  0  0  0  0  0  0  0  0
    6.6512    2.1366    0.0000 H   0  0  0  0  0  0  0  0  0  0  0  0
    6.6210    2.0092    0.0000 H   0  0  0  0  0  0  0  0  0  0  0  0
    6.0010    2.6292    0.0000 H   0  0  0  0  0  0  0  0  0  0  0  0
    5.3810    2.0092    0.0000 H   0  0  0  0  0  0  0  0  0  0  0  0
    4.0569    1.5918    0.0000 H   0  0  0  0  0  0  0  0  0  0  0  0
    3.6584    0.9015    0.0000 H   0  0  0  0  0  0  0  0  0  0  0  0
    3.6584    0.1169    0.0000 H   0  0  0  0  0  0  0  0  0  0  0  0
    4.0569   -0.5734    0.0000 H   0  0  0  0  0  0  0  0  0  0  0  0
    8.2570    1.8510    0.0000 H   0  0  0  0  0  0  0  0  0  0  0  0
    8.8502    2.3833    0.0000 H   0  0  0  0  0  0  0  0  0  0  0  0
    7.0515    3.4228    0.0000 H   0  0  0  0  0  0  0  0  0  0  0  0
    6.1760    3.4702    0.0000 H   0  0  0  0  0  0  0  0  0  0  0  0
    6.1286    2.5947    0.0000 H   0  0  0  0  0  0  0  0  0  0  0  0
    7.9346    3.3253    0.0000 H   0  0  0  0  0  0  0  0  0  0  0  0
    5.6720   -1.8008    0.0000 H   0  0  0  0  0  0  0  0  0  0  0  0
    9.4006    3.1164    0.0000 H   0  0  0  0  0  0  0  0  0  0  0  0
    3.7320   -1.6808    0.0000 H   0  0  0  0  0  0  0  0  0  0  0  0
    9.8599    2.7095    0.0000 H   0  0  0  0  0  0  0  0  0  0  0  0
   10.6525    2.6248    0.0000 H   0  0  0  0  0  0  0  0  0  0  0  0
   11.6677    3.9744    0.0000 H   0  0  0  0  0  0  0  0  0  0  0  0
   10.8751    4.0591    0.0000 H   0  0  0  0  0  0  0  0  0  0  0  0
    3.1909   -2.9082    0.0000 H   0  0  0  0  0  0  0  0  0  0  0  0
    2.7924   -3.5985    0.0000 H   0  0  0  0  0  0  0  0  0  0  0  0
   10.8764    5.0618    0.0000 H   0  0  0  0  0  0  0  0  0  0  0  0
   10.2467    5.9316    0.0000 H   0  0  0  0  0  0  0  0  0  0  0  0
    3.4030   -5.1108    0.0000 H   0  0  0  0  0  0  0  0  0  0  0  0
    4.8059   -5.3008    0.0000 H   0  0  0  0  0  0  0  0  0  0  0  0
    5.6720   -4.1808    0.0000 H   0  0  0  0  0  0  0  0  0  0  0  0
   11.5822    2.5254    0.0000 H   0  0  0  0  0  0  0  0  0  0  0  0
   12.3747    2.4407    0.0000 H   0  0  0  0  0  0  0  0  0  0  0  0
    3.6490   -5.9908    0.0000 H   0  0  0  0  0  0  0  0  0  0  0  0
    4.2690   -6.6108    0.0000 H   0  0  0  0  0  0  0  0  0  0  0  0
    4.8890   -5.9908    0.0000 H   0  0  0  0  0  0  0  0  0  0  0  0
    6.5380   -3.3008    0.0000 H   0  0  0  0  0  0  0  0  0  0  0  0
    6.0010   -2.3708    0.0000 H   0  0  0  0  0  0  0  0  0  0  0  0
   13.1944    2.7937    0.0000 H   0  0  0  0  0  0  0  0  0  0  0  0
   13.5100    3.6117    0.0000 H   0  0  0  0  0  0  0  0  0  0  0  0
   12.6920    3.9273    0.0000 H   0  0  0  0  0  0  0  0  0  0  0  0
    2.0000   -4.6808    0.0000 H   0  0  0  0  0  0  0  0  0  0  0  0
    6.0010   -5.6108    0.0000 H   0  0  0  0  0  0  0  0  0  0  0  0
  1 18  1  0  0  0  0
  1 24  1  0  0  0  0
  2 24  2  0  0  0  0
 30  3  1  6  0  0  0
  3 83  1  0  0  0  0
 32  4  1  1  0  0  0
  4 84  1  0  0  0  0
  5  6  1  0  0  0  0
  5  7  1  0  0  0  0
  5 10  1  0  0  0  0
  5 13  1  1  0  0  0
  6  8  1  0  0  0  0
  6 11  1  0  0  0  0
  6 37  1  6  0  0  0
  7  9  1  0  0  0  0
  7 12  1  0  0  0  0
  7 38  1  6  0  0  0
  8  9  1  0  0  0  0
  8 39  1  0  0  0  0
  8 40  1  0  0  0  0
  9 41  1  0  0  0  0
  9 42  1  0  0  0  0
 10 14  1  0  0  0  0
 10 43  1  0  0  0  0
 10 44  1  0  0  0  0
 11 16  1  0  0  0  0
 11 17  1  6  0  0  0
 11 45  1  0  0  0  0
 12 15  1  0  0  0  0
 12 19  2  0  0  0  0
 13 46  1  0  0  0  0
 13 47  1  0  0  0  0
 13 48  1  0  0  0  0
 14 15  1  0  0  0  0
 14 49  1  0  0  0  0
 14 50  1  0  0  0  0
 15 51  1  0  0  0  0
 15 52  1  0  0  0  0
 18 16  1  6  0  0  0
 16 53  1  0  0  0  0
 16 54  1  0  0  0  0
 17 55  1  0  0  0  0
 17 56  1  0  0  0  0
 17 57  1  0  0  0  0
 18 20  1  0  0  0  0
 18 58  1  0  0  0  0
 19 21  1  0  0  0  0
 19 59  1  0  0  0  0
 20 22  1  1  0  0  0
 20 23  1  0  0  0  0
 20 60  1  0  0  0  0
 21 25  2  0  0  0  0
 21 61  1  0  0  0  0
 22 26  1  0  0  0  0
 22 62  1  0  0  0  0
 22 63  1  0  0  0  0
 23 24  1  0  0  0  0
 23 28  2  0  0  0  0
 25 27  1  0  0  0  0
 25 29  1  0  0  0  0
 26 33  1  0  0  0  0
 26 64  1  0  0  0  0
 26 65  1  0  0  0  0
 27 30  1  0  0  0  0
 27 66  1  0  0  0  0
 27 67  1  0  0  0  0
 28 68  1  0  0  0  0
 28 69  1  0  0  0  0
 29 32  1  0  0  0  0
 29 35  2  0  0  0  0
 30 31  1  0  0  0  0
 30 70  1  0  0  0  0
 31 32  1  0  0  0  0
 31 34  1  1  0  0  0
 31 71  1  0  0  0  0
 32 72  1  0  0  0  0
 33 36  1  0  0  0  0
 33 73  1  0  0  0  0
 33 74  1  0  0  0  0
 34 75  1  0  0  0  0
 34 76  1  0  0  0  0
 34 77  1  0  0  0  0
 35 78  1  0  0  0  0
 35 79  1  0  0  0  0
 36 80  1  0  0  0  0
 36 81  1  0  0  0  0
 36 82  1  0  0  0  0
M  END
> <PUBCHEM_COMPOUND_CID>
11995339

> <PUBCHEM_COMPOUND_CANONICALIZED>
1

> <PUBCHEM_CACTVS_COMPLEXITY>
928

> <PUBCHEM_CACTVS_HBOND_ACCEPTOR>
4

> <PUBCHEM_CACTVS_HBOND_DONOR>
2

> <PUBCHEM_CACTVS_ROTATABLE_BOND>
7

> <PUBCHEM_CACTVS_SUBSKEYS>
AAADcfB8OAAAAAAAAAAAAAAAAAAAAaIAAAAwYAAAAAAAAGAAAAAAGgAACAAADxSggAICCAAABgCIAiDSCAAAAAAgAAAACAEAAEgIFBIAIQACQAAFwAAIsIOK6PSPgAAAAAAAAAAAAAAQADAAAQAACAAAAA==

> <PUBCHEM_IUPAC_OPENEYE_NAME>
(4R,5S)-5-[(2R)-2-[(1R,3aS,4E,7aR)-4-[(2Z)-2-[(3S,4S,5R)-3,5-dihydroxy-4-methyl-2-methylene-cyclohexylidene]ethylidene]-7a-methyl-2,3,3a,5,6,7-hexahydro-1H-inden-1-yl]propyl]-4-butyl-3-methylene-tetrahydrofuran-2-one

> <PUBCHEM_IUPAC_CAS_NAME>
(4R,5S)-5-[(2R)-2-[(1R,3aS,4E,7aR)-4-[(2Z)-2-[(3S,4S,5R)-3,5-dihydroxy-4-methyl-2-methylenecyclohexylidene]ethylidene]-7a-methyl-2,3,3a,5,6,7-hexahydro-1H-inden-1-yl]propyl]-4-butyl-3-methylene-2-oxolanone

> <PUBCHEM_IUPAC_NAME_MARKUP>
(4<I>R</I>,5<I>S</I>)-5-[(2<I>R</I>)-2-[(1<I>R</I>,3<I>a</I><I>S</I>,4<I>E</I>,7<I>a</I><I>R</I>)-4-[(2<I>Z</I>)-2-[(3<I>S</I>,4<I>S</I>,5<I>R</I>)-3,5-dihydroxy-4-methyl-2-methylidenecyclohexylidene]ethylidene]-7<I>a</I>-methyl-2,3,3<I>a</I>,5,6,7-hexahydro-1<I>H</I>-inden-1-yl]propyl]-4-butyl-3-methylideneoxolan-2-one

> <PUBCHEM_IUPAC_NAME>
(4R,5S)-5-[(2R)-2-[(1R,3aS,4E,7aR)-4-[(2Z)-2-[(3S,4S,5R)-3,5-dihydroxy-4-methyl-2-methylidenecyclohexylidene]ethylidene]-7a-methyl-2,3,3a,5,6,7-hexahydro-1H-inden-1-yl]propyl]-4-butyl-3-methylideneoxolan-2-one

> <PUBCHEM_IUPAC_SYSTEMATIC_NAME>
(4R,5S)-5-[(2R)-2-[(1R,3aS,4E,7aR)-7a-methyl-4-[(2Z)-2-[(3S,4S,5R)-4-methyl-2-methylidene-3,5-bis(oxidanyl)cyclohexylidene]ethylidene]-2,3,3a,5,6,7-hexahydro-1H-inden-1-yl]propyl]-4-butyl-3-methylidene-oxolan-2-one

> <PUBCHEM_IUPAC_TRADITIONAL_NAME>
(4R,5S)-5-[(2R)-2-[(1R,3aS,4E,7aR)-4-[(2Z)-2-[(3S,4S,5R)-3,5-dihydroxy-4-methyl-2-methylene-cyclohexylidene]ethylidene]-7a-methyl-2,3,3a,5,6,7-hexahydro-1H-inden-1-yl]propyl]-4-butyl-3-methylene-tetrahydrofuran-2-one

> <PUBCHEM_IUPAC_INCHI>
InChI=1S/C32H48O4/c1-7-8-11-25-21(4)31(35)36-29(25)17-19(2)26-14-15-27-23(10-9-16-32(26,27)6)12-13-24-18-28(33)22(5)30(34)20(24)3/h12-13,19,22,25-30,33-34H,3-4,7-11,14-18H2,1-2,5-6H3/b23-12+,24-13-/t19-,22+,25-,26-,27+,28-,29+,30-,32-/m1/s1

> <PUBCHEM_IUPAC_INCHIKEY>
MOILCHAIWOKCMX-PTIQDJESSA-N

> <PUBCHEM_XLOGP3_AA>
7

> <PUBCHEM_EXACT_MASS>
496.35526001

> <PUBCHEM_MOLECULAR_FORMULA>
C32H48O4

> <PUBCHEM_MOLECULAR_WEIGHT>
496.7

> <PUBCHEM_OPENEYE_CAN_SMILES>
CCCCC1C(OC(=O)C1=C)CC(C)C2CCC3C2(CCCC3=CC=C4CC(C(C(C4=C)O)C)O)C

> <PUBCHEM_OPENEYE_ISO_SMILES>
CCCC[C@H]1[C@@H](OC(=O)C1=C)C[C@@H](C)[C@H]2CC[C@@H]\3[C@@]2(CCC/C3=C\C=C/4\C[C@H]([C@@H]([C@@H](C4=C)O)C)O)C

> <PUBCHEM_CACTVS_TPSA>
66.8

> <PUBCHEM_MONOISOTOPIC_WEIGHT>
496.35526001

> <PUBCHEM_TOTAL_CHARGE>
0

> <PUBCHEM_HEAVY_ATOM_COUNT>
36

> <PUBCHEM_ATOM_DEF_STEREO_COUNT>
9

> <PUBCHEM_ATOM_UDEF_STEREO_COUNT>
0

> <PUBCHEM_BOND_DEF_STEREO_COUNT>
2

> <PUBCHEM_BOND_UDEF_STEREO_COUNT>
0

> <PUBCHEM_ISOTOPIC_ATOM_COUNT>
0

> <PUBCHEM_COMPONENT_COUNT>
1

> <PUBCHEM_CACTVS_TAUTO_COUNT>
-1

> <PUBCHEM_COORDINATE_TYPE>
1
5
255

> <PUBCHEM_BONDANNOTATIONS>
11  17  6
18  16  6
20  22  5
30  3  6
31  34  5
32  4  5
5  13  5
6  37  6
7  38  6

$$$$
