155527358
  -OEChem-09292322462D

 72 76  0     0  0  0  0  0  0999 V2000
    4.6701   -2.9648    0.0000 S   0  0  0  0  0  0  0  0  0  0  0  0
    6.4021    8.0352    0.0000 F   0  0  0  0  0  0  0  0  0  0  0  0
    8.1342    5.0352    0.0000 O   0  0  0  0  0  0  0  0  0  0  0  0
    6.4021    0.0352    0.0000 N   0  0  0  0  0  0  0  0  0  0  0  0
    6.4021    4.0352    0.0000 N   0  0  0  0  0  0  0  0  0  0  0  0
    3.8611   -4.5526    0.0000 N   0  0  0  0  0  0  0  0  0  0  0  0
    5.4791   -4.5526    0.0000 N   0  0  0  0  0  0  0  0  0  0  0  0
    5.1701   -5.5036    0.0000 N   0  0  0  0  0  0  0  0  0  0  0  0
    6.4021    2.0352    0.0000 C   0  0  0  0  0  0  0  0  0  0  0  0
    5.5361    1.5352    0.0000 C   0  0  0  0  0  0  0  0  0  0  0  0
    7.2682    1.5352    0.0000 C   0  0  0  0  0  0  0  0  0  0  0  0
    5.5361    2.5352    0.0000 C   0  0  0  0  0  0  0  0  0  0  0  0
    7.2682    2.5352    0.0000 C   0  0  0  0  0  0  0  0  0  0  0  0
    5.5361    0.5352    0.0000 C   0  0  0  0  0  0  0  0  0  0  0  0
    7.2682    0.5352    0.0000 C   0  0  0  0  0  0  0  0  0  0  0  0
    5.5361    3.5352    0.0000 C   0  0  0  0  0  0  0  0  0  0  0  0
    7.2682    3.5352    0.0000 C   0  0  0  0  0  0  0  0  0  0  0  0
    6.4021   -0.9648    0.0000 C   0  0  0  0  0  0  0  0  0  0  0  0
    6.4021    5.0352    0.0000 C   0  0  0  0  0  0  0  0  0  0  0  0
    5.5361   -1.4648    0.0000 C   0  0  0  0  0  0  0  0  0  0  0  0
    7.2682    5.5352    0.0000 C   0  0  0  0  0  0  0  0  0  0  0  0
    5.5361    5.5352    0.0000 C   0  0  0  0  0  0  0  0  0  0  0  0
    5.5361   -2.4648    0.0000 C   0  0  0  0  0  0  0  0  0  0  0  0
    7.2682    6.5352    0.0000 C   0  0  0  0  0  0  0  0  0  0  0  0
    5.5361    6.5352    0.0000 C   0  0  0  0  0  0  0  0  0  0  0  0
    6.4021    7.0352    0.0000 C   0  0  0  0  0  0  0  0  0  0  0  0
    9.0002    5.5352    0.0000 C   0  0  0  0  0  0  0  0  0  0  0  0
    4.6701   -3.9648    0.0000 C   0  0  0  0  0  0  0  0  0  0  0  0
    4.1701   -5.5036    0.0000 C   0  0  0  0  0  0  0  0  0  0  0  0
    2.9100   -4.2436    0.0000 C   0  0  0  0  0  0  0  0  0  0  0  0
    3.5823   -6.3126    0.0000 C   0  0  0  0  0  0  0  0  0  0  0  0
    3.9890   -7.2262    0.0000 C   0  0  0  0  0  0  0  0  0  0  0  0
    2.5878   -6.2081    0.0000 C   0  0  0  0  0  0  0  0  0  0  0  0
    3.4013   -8.0352    0.0000 C   0  0  0  0  0  0  0  0  0  0  0  0
    2.0000   -7.0171    0.0000 C   0  0  0  0  0  0  0  0  0  0  0  0
    2.4067   -7.9307    0.0000 C   0  0  0  0  0  0  0  0  0  0  0  0
    5.3241    2.1178    0.0000 H   0  0  0  0  0  0  0  0  0  0  0  0
    4.9255    1.4276    0.0000 H   0  0  0  0  0  0  0  0  0  0  0  0
    7.8788    1.4276    0.0000 H   0  0  0  0  0  0  0  0  0  0  0  0
    7.4802    2.1178    0.0000 H   0  0  0  0  0  0  0  0  0  0  0  0
    4.9255    2.6429    0.0000 H   0  0  0  0  0  0  0  0  0  0  0  0
    5.3241    1.9526    0.0000 H   0  0  0  0  0  0  0  0  0  0  0  0
    7.4802    1.9526    0.0000 H   0  0  0  0  0  0  0  0  0  0  0  0
    7.8788    2.6429    0.0000 H   0  0  0  0  0  0  0  0  0  0  0  0
    4.9255    0.6429    0.0000 H   0  0  0  0  0  0  0  0  0  0  0  0
    5.3241   -0.0474    0.0000 H   0  0  0  0  0  0  0  0  0  0  0  0
    7.4802   -0.0474    0.0000 H   0  0  0  0  0  0  0  0  0  0  0  0
    7.8788    0.6429    0.0000 H   0  0  0  0  0  0  0  0  0  0  0  0
    5.3241    4.1178    0.0000 H   0  0  0  0  0  0  0  0  0  0  0  0
    4.9255    3.4276    0.0000 H   0  0  0  0  0  0  0  0  0  0  0  0
    7.8788    3.4276    0.0000 H   0  0  0  0  0  0  0  0  0  0  0  0
    7.4802    4.1178    0.0000 H   0  0  0  0  0  0  0  0  0  0  0  0
    6.6142   -1.5474    0.0000 H   0  0  0  0  0  0  0  0  0  0  0  0
    7.0127   -0.8571    0.0000 H   0  0  0  0  0  0  0  0  0  0  0  0
    5.3241   -0.8822    0.0000 H   0  0  0  0  0  0  0  0  0  0  0  0
    4.9255   -1.5724    0.0000 H   0  0  0  0  0  0  0  0  0  0  0  0
    4.9992    5.2252    0.0000 H   0  0  0  0  0  0  0  0  0  0  0  0
    5.7482   -3.0474    0.0000 H   0  0  0  0  0  0  0  0  0  0  0  0
    6.1467   -2.3571    0.0000 H   0  0  0  0  0  0  0  0  0  0  0  0
    7.8051    6.8452    0.0000 H   0  0  0  0  0  0  0  0  0  0  0  0
    4.9992    6.8452    0.0000 H   0  0  0  0  0  0  0  0  0  0  0  0
    9.3102    4.9983    0.0000 H   0  0  0  0  0  0  0  0  0  0  0  0
    9.5372    5.8452    0.0000 H   0  0  0  0  0  0  0  0  0  0  0  0
    8.6902    6.0722    0.0000 H   0  0  0  0  0  0  0  0  0  0  0  0
    3.1016   -3.6539    0.0000 H   0  0  0  0  0  0  0  0  0  0  0  0
    2.3204   -4.0520    0.0000 H   0  0  0  0  0  0  0  0  0  0  0  0
    2.7184   -4.8332    0.0000 H   0  0  0  0  0  0  0  0  0  0  0  0
    4.6056   -7.2910    0.0000 H   0  0  0  0  0  0  0  0  0  0  0  0
    2.3356   -5.6417    0.0000 H   0  0  0  0  0  0  0  0  0  0  0  0
    3.6534   -8.6016    0.0000 H   0  0  0  0  0  0  0  0  0  0  0  0
    1.3834   -6.9523    0.0000 H   0  0  0  0  0  0  0  0  0  0  0  0
    2.0423   -8.4323    0.0000 H   0  0  0  0  0  0  0  0  0  0  0  0
  1 23  1  0  0  0  0
  1 28  1  0  0  0  0
  2 26  1  0  0  0  0
  3 21  1  0  0  0  0
  3 27  1  0  0  0  0
  4 14  1  0  0  0  0
  4 15  1  0  0  0  0
  4 18  1  0  0  0  0
  5 16  1  0  0  0  0
  5 17  1  0  0  0  0
  5 19  1  0  0  0  0
  6 28  1  0  0  0  0
  6 29  1  0  0  0  0
  6 30  1  0  0  0  0
  7  8  1  0  0  0  0
  7 28  2  0  0  0  0
  8 29  2  0  0  0  0
  9 10  1  0  0  0  0
  9 11  1  0  0  0  0
  9 12  1  0  0  0  0
  9 13  1  0  0  0  0
 10 14  1  0  0  0  0
 10 37  1  0  0  0  0
 10 38  1  0  0  0  0
 11 15  1  0  0  0  0
 11 39  1  0  0  0  0
 11 40  1  0  0  0  0
 12 16  1  0  0  0  0
 12 41  1  0  0  0  0
 12 42  1  0  0  0  0
 13 17  1  0  0  0  0
 13 43  1  0  0  0  0
 13 44  1  0  0  0  0
 14 45  1  0  0  0  0
 14 46  1  0  0  0  0
 15 47  1  0  0  0  0
 15 48  1  0  0  0  0
 16 49  1  0  0  0  0
 16 50  1  0  0  0  0
 17 51  1  0  0  0  0
 17 52  1  0  0  0  0
 18 20  1  0  0  0  0
 18 53  1  0  0  0  0
 18 54  1  0  0  0  0
 19 21  2  0  0  0  0
 19 22  1  0  0  0  0
 20 23  1  0  0  0  0
 20 55  1  0  0  0  0
 20 56  1  0  0  0  0
 21 24  1  0  0  0  0
 22 25  2  0  0  0  0
 22 57  1  0  0  0  0
 23 58  1  0  0  0  0
 23 59  1  0  0  0  0
 24 26  2  0  0  0  0
 24 60  1  0  0  0  0
 25 26  1  0  0  0  0
 25 61  1  0  0  0  0
 27 62  1  0  0  0  0
 27 63  1  0  0  0  0
 27 64  1  0  0  0  0
 29 31  1  0  0  0  0
 30 65  1  0  0  0  0
 30 66  1  0  0  0  0
 30 67  1  0  0  0  0
 31 32  2  0  0  0  0
 31 33  1  0  0  0  0
 32 34  1  0  0  0  0
 32 68  1  0  0  0  0
 33 35  2  0  0  0  0
 33 69  1  0  0  0  0
 34 36  2  0  0  0  0
 34 70  1  0  0  0  0
 35 36  1  0  0  0  0
 35 71  1  0  0  0  0
 36 72  1  0  0  0  0
M  END
> <PUBCHEM_COMPOUND_CID>
155527358

> <PUBCHEM_COMPOUND_CANONICALIZED>
1

> <PUBCHEM_CACTVS_COMPLEXITY>
664

> <PUBCHEM_CACTVS_HBOND_ACCEPTOR>
7

> <PUBCHEM_CACTVS_HBOND_DONOR>
0

> <PUBCHEM_CACTVS_ROTATABLE_BOND>
8

> <PUBCHEM_CACTVS_SUBSKEYS>
AAADcfB7oQBAAAAAAAAAAAAAAAAAAWAAAAA8eIEAAAAAAAAB0AAAHwQIAAAADgzF2w6z1ocMFAiiAiZiZACS2AthIrAdyCAvbJiOLqLkuZuFMChkyBPY6AeQwAAPAAAAAAAAEAAAAAAAAAAgAAAAAAAAAA==

> <PUBCHEM_IUPAC_OPENEYE_NAME>
3-(4-fluoro-2-methoxy-phenyl)-9-[3-[(4-methyl-5-phenyl-1,2,4-triazol-3-yl)sulfanyl]propyl]-3,9-diazaspiro[5.5]undecane

> <PUBCHEM_IUPAC_CAS_NAME>
3-(4-fluoro-2-methoxyphenyl)-9-[3-[(4-methyl-5-phenyl-1,2,4-triazol-3-yl)thio]propyl]-3,9-diazaspiro[5.5]undecane

> <PUBCHEM_IUPAC_NAME_MARKUP>
3-(4-fluoro-2-methoxyphenyl)-9-[3-[(4-methyl-5-phenyl-1,2,4-triazol-3-yl)sulfanyl]propyl]-3,9-diazaspiro[5.5]undecane

> <PUBCHEM_IUPAC_NAME>
3-(4-fluoro-2-methoxyphenyl)-9-[3-[(4-methyl-5-phenyl-1,2,4-triazol-3-yl)sulfanyl]propyl]-3,9-diazaspiro[5.5]undecane

> <PUBCHEM_IUPAC_SYSTEMATIC_NAME>
3-(4-fluoranyl-2-methoxy-phenyl)-9-[3-[(4-methyl-5-phenyl-1,2,4-triazol-3-yl)sulfanyl]propyl]-3,9-diazaspiro[5.5]undecane

> <PUBCHEM_IUPAC_TRADITIONAL_NAME>
3-(4-fluoro-2-methoxy-phenyl)-9-[3-[(4-methyl-5-phenyl-1,2,4-triazol-3-yl)thio]propyl]-3,9-diazaspiro[5.5]undecane

> <PUBCHEM_IUPAC_INCHI>
InChI=1S/C28H36FN5OS/c1-32-26(22-7-4-3-5-8-22)30-31-27(32)36-20-6-15-33-16-11-28(12-17-33)13-18-34(19-14-28)24-10-9-23(29)21-25(24)35-2/h3-5,7-10,21H,6,11-20H2,1-2H3

> <PUBCHEM_IUPAC_INCHIKEY>
RKEMMJXERRAATP-UHFFFAOYSA-N

> <PUBCHEM_XLOGP3_AA>
5.3

> <PUBCHEM_EXACT_MASS>
509.26246012

> <PUBCHEM_MOLECULAR_FORMULA>
C28H36FN5OS

> <PUBCHEM_MOLECULAR_WEIGHT>
509.7

> <PUBCHEM_OPENEYE_CAN_SMILES>
CN1C(=NN=C1SCCCN2CCC3(CC2)CCN(CC3)C4=C(C=C(C=C4)F)OC)C5=CC=CC=C5

> <PUBCHEM_OPENEYE_ISO_SMILES>
CN1C(=NN=C1SCCCN2CCC3(CC2)CCN(CC3)C4=C(C=C(C=C4)F)OC)C5=CC=CC=C5

> <PUBCHEM_CACTVS_TPSA>
71.7

> <PUBCHEM_MONOISOTOPIC_WEIGHT>
509.26246012

> <PUBCHEM_TOTAL_CHARGE>
0

> <PUBCHEM_HEAVY_ATOM_COUNT>
36

> <PUBCHEM_ATOM_DEF_STEREO_COUNT>
0

> <PUBCHEM_ATOM_UDEF_STEREO_COUNT>
0

> <PUBCHEM_BOND_DEF_STEREO_COUNT>
0

> <PUBCHEM_BOND_UDEF_STEREO_COUNT>
0

> <PUBCHEM_ISOTOPIC_ATOM_COUNT>
0

> <PUBCHEM_COMPONENT_COUNT>
1

> <PUBCHEM_CACTVS_TAUTO_COUNT>
-1

> <PUBCHEM_COORDINATE_TYPE>
1
5
255

> <PUBCHEM_BONDANNOTATIONS>
19  21  8
19  22  8
21  24  8
22  25  8
24  26  8
25  26  8
31  32  8
31  33  8
32  34  8
33  35  8
34  36  8
35  36  8
6  28  8
6  29  8
7  28  8
7  8  8
8  29  8

$$$$
