44374431
  -OEChem-09292322202D

 42 43  0     1  0  0  0  0  0999 V2000
    8.9387   -1.7723    0.0000 O   0  0  0  0  0  0  0  0  0  0  0  0
    7.2068   -1.7523    0.0000 O   0  0  0  0  0  0  0  0  0  0  0  0
    4.5981    1.7722    0.0000 N   0  0  0  0  0  0  0  0  0  0  0  0
    5.4641    1.2723    0.0000 C   0  0  1  0  0  0  0  0  0  0  0  0
    6.3301    1.7722    0.0000 C   0  0  2  0  0  0  0  0  0  0  0  0
    5.4641    0.2723    0.0000 C   0  0  0  0  0  0  0  0  0  0  0  0
    7.1962    1.2723    0.0000 C   0  0  0  0  0  0  0  0  0  0  0  0
    6.3301   -0.2277    0.0000 C   0  0  0  0  0  0  0  0  0  0  0  0
    7.1962    0.2723    0.0000 C   0  0  0  0  0  0  0  0  0  0  0  0
    6.3301    2.7722    0.0000 C   0  0  0  0  0  0  0  0  0  0  0  0
    8.0901   -0.2624    0.0000 C   0  0  0  0  0  0  0  0  0  0  0  0
    8.0901    1.8069    0.0000 C   0  0  0  0  0  0  0  0  0  0  0  0
    3.7320    1.2723    0.0000 C   0  0  0  0  0  0  0  0  0  0  0  0
    8.9962    0.2514    0.0000 C   0  0  0  0  0  0  0  0  0  0  0  0
    8.9962    1.2931    0.0000 C   0  0  0  0  0  0  0  0  0  0  0  0
    2.8660    1.7722    0.0000 C   0  0  0  0  0  0  0  0  0  0  0  0
    8.0785   -1.2623    0.0000 C   0  0  0  0  0  0  0  0  0  0  0  0
    2.0000    1.2723    0.0000 C   0  0  0  0  0  0  0  0  0  0  0  0
    8.9271   -2.7722    0.0000 C   0  0  0  0  0  0  0  0  0  0  0  0
    5.4641    1.8922    0.0000 H   0  0  0  0  0  0  0  0  0  0  0  0
    6.8671    2.0822    0.0000 H   0  0  0  0  0  0  0  0  0  0  0  0
    4.8535    0.3799    0.0000 H   0  0  0  0  0  0  0  0  0  0  0  0
    5.2520   -0.3104    0.0000 H   0  0  0  0  0  0  0  0  0  0  0  0
    5.9316   -0.7027    0.0000 H   0  0  0  0  0  0  0  0  0  0  0  0
    6.7287   -0.7027    0.0000 H   0  0  0  0  0  0  0  0  0  0  0  0
    4.5981    2.3923    0.0000 H   0  0  0  0  0  0  0  0  0  0  0  0
    6.9501    2.7722    0.0000 H   0  0  0  0  0  0  0  0  0  0  0  0
    6.3301    3.3922    0.0000 H   0  0  0  0  0  0  0  0  0  0  0  0
    5.7101    2.7722    0.0000 H   0  0  0  0  0  0  0  0  0  0  0  0
    8.0829    2.4269    0.0000 H   0  0  0  0  0  0  0  0  0  0  0  0
    3.3335    0.7973    0.0000 H   0  0  0  0  0  0  0  0  0  0  0  0
    4.1306    0.7973    0.0000 H   0  0  0  0  0  0  0  0  0  0  0  0
    9.5319   -0.0606    0.0000 H   0  0  0  0  0  0  0  0  0  0  0  0
    9.5319    1.6051    0.0000 H   0  0  0  0  0  0  0  0  0  0  0  0
    3.2646    2.2472    0.0000 H   0  0  0  0  0  0  0  0  0  0  0  0
    2.4675    2.2472    0.0000 H   0  0  0  0  0  0  0  0  0  0  0  0
    1.6900    1.8092    0.0000 H   0  0  0  0  0  0  0  0  0  0  0  0
    1.4631    0.9623    0.0000 H   0  0  0  0  0  0  0  0  0  0  0  0
    2.3100    0.7353    0.0000 H   0  0  0  0  0  0  0  0  0  0  0  0
    8.3072   -2.7651    0.0000 H   0  0  0  0  0  0  0  0  0  0  0  0
    8.9200   -3.3922    0.0000 H   0  0  0  0  0  0  0  0  0  0  0  0
    9.5471   -2.7794    0.0000 H   0  0  0  0  0  0  0  0  0  0  0  0
  1 17  1  0  0  0  0
  1 19  1  0  0  0  0
  2 17  2  0  0  0  0
  4  3  1  1  0  0  0
  3 13  1  0  0  0  0
  3 26  1  0  0  0  0
  4  5  1  0  0  0  0
  4  6  1  0  0  0  0
  4 20  1  0  0  0  0
  5  7  1  0  0  0  0
  5 10  1  1  0  0  0
  5 21  1  0  0  0  0
  6  8  1  0  0  0  0
  6 22  1  0  0  0  0
  6 23  1  0  0  0  0
  7  9  2  0  0  0  0
  7 12  1  0  0  0  0
  8  9  1  0  0  0  0
  8 24  1  0  0  0  0
  8 25  1  0  0  0  0
  9 11  1  0  0  0  0
 10 27  1  0  0  0  0
 10 28  1  0  0  0  0
 10 29  1  0  0  0  0
 11 14  2  0  0  0  0
 11 17  1  0  0  0  0
 12 15  2  0  0  0  0
 12 30  1  0  0  0  0
 13 16  1  0  0  0  0
 13 31  1  0  0  0  0
 13 32  1  0  0  0  0
 14 15  1  0  0  0  0
 14 33  1  0  0  0  0
 15 34  1  0  0  0  0
 16 18  1  0  0  0  0
 16 35  1  0  0  0  0
 16 36  1  0  0  0  0
 18 37  1  0  0  0  0
 18 38  1  0  0  0  0
 18 39  1  0  0  0  0
 19 40  1  0  0  0  0
 19 41  1  0  0  0  0
 19 42  1  0  0  0  0
M  END
> <PUBCHEM_COMPOUND_CID>
44374431

> <PUBCHEM_COMPOUND_CANONICALIZED>
1

> <PUBCHEM_CACTVS_COMPLEXITY>
305

> <PUBCHEM_CACTVS_HBOND_ACCEPTOR>
3

> <PUBCHEM_CACTVS_HBOND_DONOR>
1

> <PUBCHEM_CACTVS_ROTATABLE_BOND>
5

> <PUBCHEM_CACTVS_SUBSKEYS>
AAADceB6MAAAAAAAAAAAAAAAAAAAAAAAAAAwYAAAAAAAAADBAAAAHgAQAAAADSjBmAYyCILABACIAiDSCAACAAAkAAAIiIEICMgIJjKAtRmEMQAk0AGIqYeYyPCOgAACAAAQAAAQAASAACQAAAAAAAAAAA==

> <PUBCHEM_IUPAC_OPENEYE_NAME>
methyl (1S,2R)-1-methyl-2-(propylamino)tetralin-5-carboxylate

> <PUBCHEM_IUPAC_CAS_NAME>
(5S,6R)-5-methyl-6-(propylamino)-5,6,7,8-tetrahydronaphthalene-1-carboxylic acid methyl ester

> <PUBCHEM_IUPAC_NAME_MARKUP>
methyl (5<I>S</I>,6<I>R</I>)-5-methyl-6-(propylamino)-5,6,7,8-tetrahydronaphthalene-1-carboxylate

> <PUBCHEM_IUPAC_NAME>
methyl (5S,6R)-5-methyl-6-(propylamino)-5,6,7,8-tetrahydronaphthalene-1-carboxylate

> <PUBCHEM_IUPAC_SYSTEMATIC_NAME>
methyl (5S,6R)-5-methyl-6-(propylamino)-5,6,7,8-tetrahydronaphthalene-1-carboxylate

> <PUBCHEM_IUPAC_TRADITIONAL_NAME>
(1S,2R)-1-methyl-2-(propylamino)tetralin-5-carboxylic acid methyl ester

> <PUBCHEM_IUPAC_INCHI>
InChI=1S/C16H23NO2/c1-4-10-17-15-9-8-13-12(11(15)2)6-5-7-14(13)16(18)19-3/h5-7,11,15,17H,4,8-10H2,1-3H3/t11-,15+/m0/s1

> <PUBCHEM_IUPAC_INCHIKEY>
IKYFNUXRYHSJTJ-XHDPSFHLSA-N

> <PUBCHEM_XLOGP3_AA>
3.3

> <PUBCHEM_EXACT_MASS>
261.172878976

> <PUBCHEM_MOLECULAR_FORMULA>
C16H23NO2

> <PUBCHEM_MOLECULAR_WEIGHT>
261.36

> <PUBCHEM_OPENEYE_CAN_SMILES>
CCCNC1CCC2=C(C1C)C=CC=C2C(=O)OC

> <PUBCHEM_OPENEYE_ISO_SMILES>
CCCN[C@@H]1CCC2=C([C@@H]1C)C=CC=C2C(=O)OC

> <PUBCHEM_CACTVS_TPSA>
38.3

> <PUBCHEM_MONOISOTOPIC_WEIGHT>
261.172878976

> <PUBCHEM_TOTAL_CHARGE>
0

> <PUBCHEM_HEAVY_ATOM_COUNT>
19

> <PUBCHEM_ATOM_DEF_STEREO_COUNT>
2

> <PUBCHEM_ATOM_UDEF_STEREO_COUNT>
0

> <PUBCHEM_BOND_DEF_STEREO_COUNT>
0

> <PUBCHEM_BOND_UDEF_STEREO_COUNT>
0

> <PUBCHEM_ISOTOPIC_ATOM_COUNT>
0

> <PUBCHEM_COMPONENT_COUNT>
1

> <PUBCHEM_CACTVS_TAUTO_COUNT>
-1

> <PUBCHEM_COORDINATE_TYPE>
1
5
255

> <PUBCHEM_BONDANNOTATIONS>
11  14  8
12  15  8
14  15  8
4  3  5
5  10  5
7  12  8
7  9  8
9  11  8

$$$$
