164916935
  -OEChem-09292322442D

 72 75  0     0  0  0  0  0  0999 V2000
   10.1962   -5.5000    0.0000 Cl  0  0  0  0  0  0  0  0  0  0  0  0
   10.1962   -7.5000    0.0000 Cl  0  0  0  0  0  0  0  0  0  0  0  0
    9.3301   -1.0000    0.0000 O   0  0  0  0  0  0  0  0  0  0  0  0
    8.4641   -2.5000    0.0000 N   0  0  0  0  0  0  0  0  0  0  0  0
    8.4641   -4.5000    0.0000 N   0  0  0  0  0  0  0  0  0  0  0  0
    5.8660    2.0000    0.0000 N   0  0  0  0  0  0  0  0  0  0  0  0
    7.0000    4.5000    0.0000 N   0  0  0  0  0  0  0  0  0  0  0  0
    9.3301   -3.0000    0.0000 C   0  0  0  0  0  0  0  0  0  0  0  0
    7.5981   -3.0000    0.0000 C   0  0  0  0  0  0  0  0  0  0  0  0
    9.3301   -4.0000    0.0000 C   0  0  0  0  0  0  0  0  0  0  0  0
    7.5981   -4.0000    0.0000 C   0  0  0  0  0  0  0  0  0  0  0  0
    5.0000    4.5000    0.0000 C   0  0  0  0  0  0  0  0  0  0  0  0
    8.4641   -1.5000    0.0000 C   0  0  0  0  0  0  0  0  0  0  0  0
    7.5981   -1.0000    0.0000 C   0  0  0  0  0  0  0  0  0  0  0  0
    7.5981    0.0000    0.0000 C   0  0  0  0  0  0  0  0  0  0  0  0
    5.0000    3.5000    0.0000 C   0  0  0  0  0  0  0  0  0  0  0  0
    6.7320    0.5000    0.0000 C   0  0  0  0  0  0  0  0  0  0  0  0
    8.4641   -5.5000    0.0000 C   0  0  0  0  0  0  0  0  0  0  0  0
    5.8660    3.0000    0.0000 C   0  0  0  0  0  0  0  0  0  0  0  0
    6.7320    1.5000    0.0000 C   0  0  0  0  0  0  0  0  0  0  0  0
    5.0000    5.5000    0.0000 C   0  0  0  0  0  0  0  0  0  0  0  0
    4.0000    4.5000    0.0000 C   0  0  0  0  0  0  0  0  0  0  0  0
    9.3301   -6.0000    0.0000 C   0  0  0  0  0  0  0  0  0  0  0  0
    7.5981   -6.0000    0.0000 C   0  0  0  0  0  0  0  0  0  0  0  0
    6.0000    4.5000    0.0000 C   0  0  0  0  0  0  0  0  0  0  0  0
    4.1340    6.0000    0.0000 C   0  0  0  0  0  0  0  0  0  0  0  0
    3.5000    3.6340    0.0000 C   0  0  0  0  0  0  0  0  0  0  0  0
    5.8660    6.0000    0.0000 C   0  0  0  0  0  0  0  0  0  0  0  0
    3.5000    5.3660    0.0000 C   0  0  0  0  0  0  0  0  0  0  0  0
    9.3301   -7.0000    0.0000 C   0  0  0  0  0  0  0  0  0  0  0  0
    7.5981   -7.0000    0.0000 C   0  0  0  0  0  0  0  0  0  0  0  0
    8.4641   -7.5000    0.0000 C   0  0  0  0  0  0  0  0  0  0  0  0
    4.1340    7.0000    0.0000 C   0  0  0  0  0  0  0  0  0  0  0  0
    2.5000    3.6340    0.0000 C   0  0  0  0  0  0  0  0  0  0  0  0
    5.8660    7.0000    0.0000 C   0  0  0  0  0  0  0  0  0  0  0  0
    2.5000    5.3660    0.0000 C   0  0  0  0  0  0  0  0  0  0  0  0
    5.0000    7.5000    0.0000 C   0  0  0  0  0  0  0  0  0  0  0  0
    2.0000    4.5000    0.0000 C   0  0  0  0  0  0  0  0  0  0  0  0
    9.9407   -3.1077    0.0000 H   0  0  0  0  0  0  0  0  0  0  0  0
    9.5422   -2.4174    0.0000 H   0  0  0  0  0  0  0  0  0  0  0  0
    7.3860   -2.4174    0.0000 H   0  0  0  0  0  0  0  0  0  0  0  0
    6.9875   -3.1077    0.0000 H   0  0  0  0  0  0  0  0  0  0  0  0
    9.5422   -4.5826    0.0000 H   0  0  0  0  0  0  0  0  0  0  0  0
    9.9407   -3.8923    0.0000 H   0  0  0  0  0  0  0  0  0  0  0  0
    6.9875   -3.8923    0.0000 H   0  0  0  0  0  0  0  0  0  0  0  0
    7.3860   -4.5826    0.0000 H   0  0  0  0  0  0  0  0  0  0  0  0
    6.9875   -0.8923    0.0000 H   0  0  0  0  0  0  0  0  0  0  0  0
    7.3860   -1.5826    0.0000 H   0  0  0  0  0  0  0  0  0  0  0  0
    8.2087   -0.1077    0.0000 H   0  0  0  0  0  0  0  0  0  0  0  0
    7.8101    0.5826    0.0000 H   0  0  0  0  0  0  0  0  0  0  0  0
    4.3894    3.6077    0.0000 H   0  0  0  0  0  0  0  0  0  0  0  0
    4.7880    2.9174    0.0000 H   0  0  0  0  0  0  0  0  0  0  0  0
    6.1215    0.6077    0.0000 H   0  0  0  0  0  0  0  0  0  0  0  0
    6.5200   -0.0826    0.0000 H   0  0  0  0  0  0  0  0  0  0  0  0
    6.4766    2.8923    0.0000 H   0  0  0  0  0  0  0  0  0  0  0  0
    6.0781    3.5826    0.0000 H   0  0  0  0  0  0  0  0  0  0  0  0
    7.3426    1.3923    0.0000 H   0  0  0  0  0  0  0  0  0  0  0  0
    6.9441    2.0826    0.0000 H   0  0  0  0  0  0  0  0  0  0  0  0
    5.3291    1.6900    0.0000 H   0  0  0  0  0  0  0  0  0  0  0  0
    7.0611   -5.6900    0.0000 H   0  0  0  0  0  0  0  0  0  0  0  0
    3.5970    5.6900    0.0000 H   0  0  0  0  0  0  0  0  0  0  0  0
    3.8100    3.0970    0.0000 H   0  0  0  0  0  0  0  0  0  0  0  0
    6.4030    5.6900    0.0000 H   0  0  0  0  0  0  0  0  0  0  0  0
    3.8100    5.9030    0.0000 H   0  0  0  0  0  0  0  0  0  0  0  0
    7.0611   -7.3100    0.0000 H   0  0  0  0  0  0  0  0  0  0  0  0
    8.4641   -8.1200    0.0000 H   0  0  0  0  0  0  0  0  0  0  0  0
    3.5970    7.3100    0.0000 H   0  0  0  0  0  0  0  0  0  0  0  0
    2.1900    3.0970    0.0000 H   0  0  0  0  0  0  0  0  0  0  0  0
    6.4030    7.3100    0.0000 H   0  0  0  0  0  0  0  0  0  0  0  0
    2.1900    5.9030    0.0000 H   0  0  0  0  0  0  0  0  0  0  0  0
    5.0000    8.1200    0.0000 H   0  0  0  0  0  0  0  0  0  0  0  0
    1.3800    4.5000    0.0000 H   0  0  0  0  0  0  0  0  0  0  0  0
  1 23  1  0  0  0  0
  2 30  1  0  0  0  0
  3 13  2  0  0  0  0
  4  8  1  0  0  0  0
  4  9  1  0  0  0  0
  4 13  1  0  0  0  0
  5 10  1  0  0  0  0
  5 11  1  0  0  0  0
  5 18  1  0  0  0  0
  6 19  1  0  0  0  0
  6 20  1  0  0  0  0
  6 59  1  0  0  0  0
  7 25  3  0  0  0  0
  8 10  1  0  0  0  0
  8 39  1  0  0  0  0
  8 40  1  0  0  0  0
  9 11  1  0  0  0  0
  9 41  1  0  0  0  0
  9 42  1  0  0  0  0
 10 43  1  0  0  0  0
 10 44  1  0  0  0  0
 11 45  1  0  0  0  0
 11 46  1  0  0  0  0
 12 16  1  0  0  0  0
 12 21  1  0  0  0  0
 12 22  1  0  0  0  0
 12 25  1  0  0  0  0
 13 14  1  0  0  0  0
 14 15  1  0  0  0  0
 14 47  1  0  0  0  0
 14 48  1  0  0  0  0
 15 17  1  0  0  0  0
 15 49  1  0  0  0  0
 15 50  1  0  0  0  0
 16 19  1  0  0  0  0
 16 51  1  0  0  0  0
 16 52  1  0  0  0  0
 17 20  1  0  0  0  0
 17 53  1  0  0  0  0
 17 54  1  0  0  0  0
 18 23  2  0  0  0  0
 18 24  1  0  0  0  0
 19 55  1  0  0  0  0
 19 56  1  0  0  0  0
 20 57  1  0  0  0  0
 20 58  1  0  0  0  0
 21 26  2  0  0  0  0
 21 28  1  0  0  0  0
 22 27  2  0  0  0  0
 22 29  1  0  0  0  0
 23 30  1  0  0  0  0
 24 31  2  0  0  0  0
 24 60  1  0  0  0  0
 26 33  1  0  0  0  0
 26 61  1  0  0  0  0
 27 34  1  0  0  0  0
 27 62  1  0  0  0  0
 28 35  2  0  0  0  0
 28 63  1  0  0  0  0
 29 36  2  0  0  0  0
 29 64  1  0  0  0  0
 30 32  2  0  0  0  0
 31 32  1  0  0  0  0
 31 65  1  0  0  0  0
 32 66  1  0  0  0  0
 33 37  2  0  0  0  0
 33 67  1  0  0  0  0
 34 38  2  0  0  0  0
 34 68  1  0  0  0  0
 35 37  1  0  0  0  0
 35 69  1  0  0  0  0
 36 38  1  0  0  0  0
 36 70  1  0  0  0  0
 37 71  1  0  0  0  0
 38 72  1  0  0  0  0
M  END
> <PUBCHEM_COMPOUND_CID>
164916935

> <PUBCHEM_COMPOUND_CANONICALIZED>
1

> <PUBCHEM_CACTVS_COMPLEXITY>
747

> <PUBCHEM_CACTVS_HBOND_ACCEPTOR>
4

> <PUBCHEM_CACTVS_HBOND_DONOR>
1

> <PUBCHEM_CACTVS_ROTATABLE_BOND>
11

> <PUBCHEM_CACTVS_SUBSKEYS>
AAADcfB7oAAGAAAAAAAAAAAAAAAAAAAAAAA8YMEAAAAAAAABUAAAHgIQAAAADgrBmCQwwIPAAACYBiVSUACCAAAhBwAIisEIZogI4DLBk5HUIAhglgDIyA8YgcAPgAAAAAIAABQAAAAABAAAKAAAAAAAAA==

> <PUBCHEM_IUPAC_OPENEYE_NAME>
4-[[5-[4-(2,3-dichlorophenyl)piperazin-1-yl]-5-oxo-pentyl]amino]-2,2-diphenyl-butanenitrile

> <PUBCHEM_IUPAC_CAS_NAME>
4-[[5-[4-(2,3-dichlorophenyl)-1-piperazinyl]-5-oxopentyl]amino]-2,2-diphenylbutanenitrile

> <PUBCHEM_IUPAC_NAME_MARKUP>
4-[[5-[4-(2,3-dichlorophenyl)piperazin-1-yl]-5-oxopentyl]amino]-2,2-diphenylbutanenitrile

> <PUBCHEM_IUPAC_NAME>
4-[[5-[4-(2,3-dichlorophenyl)piperazin-1-yl]-5-oxopentyl]amino]-2,2-diphenylbutanenitrile

> <PUBCHEM_IUPAC_SYSTEMATIC_NAME>
4-[[5-[4-[2,3-bis(chloranyl)phenyl]piperazin-1-yl]-5-oxidanylidene-pentyl]amino]-2,2-diphenyl-butanenitrile

> <PUBCHEM_IUPAC_TRADITIONAL_NAME>
4-[[5-[4-(2,3-dichlorophenyl)piperazino]-5-keto-pentyl]amino]-2,2-diphenyl-butyronitrile

> <PUBCHEM_IUPAC_INCHI>
InChI=1S/C31H34Cl2N4O/c32-27-14-9-15-28(30(27)33)36-20-22-37(23-21-36)29(38)16-7-8-18-35-19-17-31(24-34,25-10-3-1-4-11-25)26-12-5-2-6-13-26/h1-6,9-15,35H,7-8,16-23H2

> <PUBCHEM_IUPAC_INCHIKEY>
OMRTUEHYBPGJDW-UHFFFAOYSA-N

> <PUBCHEM_XLOGP3_AA>
6

> <PUBCHEM_EXACT_MASS>
548.2109671

> <PUBCHEM_MOLECULAR_FORMULA>
C31H34Cl2N4O

> <PUBCHEM_MOLECULAR_WEIGHT>
549.5

> <PUBCHEM_OPENEYE_CAN_SMILES>
C1CN(CCN1C2=C(C(=CC=C2)Cl)Cl)C(=O)CCCCNCCC(C#N)(C3=CC=CC=C3)C4=CC=CC=C4

> <PUBCHEM_OPENEYE_ISO_SMILES>
C1CN(CCN1C2=C(C(=CC=C2)Cl)Cl)C(=O)CCCCNCCC(C#N)(C3=CC=CC=C3)C4=CC=CC=C4

> <PUBCHEM_CACTVS_TPSA>
59.4

> <PUBCHEM_MONOISOTOPIC_WEIGHT>
548.2109671

> <PUBCHEM_TOTAL_CHARGE>
0

> <PUBCHEM_HEAVY_ATOM_COUNT>
38

> <PUBCHEM_ATOM_DEF_STEREO_COUNT>
0

> <PUBCHEM_ATOM_UDEF_STEREO_COUNT>
0

> <PUBCHEM_BOND_DEF_STEREO_COUNT>
0

> <PUBCHEM_BOND_UDEF_STEREO_COUNT>
0

> <PUBCHEM_ISOTOPIC_ATOM_COUNT>
0

> <PUBCHEM_COMPONENT_COUNT>
1

> <PUBCHEM_CACTVS_TAUTO_COUNT>
-1

> <PUBCHEM_COORDINATE_TYPE>
1
5
255

> <PUBCHEM_BONDANNOTATIONS>
18  23  8
18  24  8
21  26  8
21  28  8
22  27  8
22  29  8
23  30  8
24  31  8
26  33  8
27  34  8
28  35  8
29  36  8
30  32  8
31  32  8
33  37  8
34  38  8
35  37  8
36  38  8

$$$$
