52944701
  -OEChem-09292322042D

 44 45  0     1  0  0  0  0  0999 V2000
    2.8660   -3.5109    0.0000 Br  0  0  0  0  0  0  0  0  0  0  0  0
    3.7320   -0.0109    0.0000 O   0  0  0  0  0  0  0  0  0  0  0  0
    6.3301   -1.5109    0.0000 O   0  0  0  0  0  0  0  0  0  0  0  0
    6.3301   -3.5109    0.0000 O   0  0  0  0  0  0  0  0  0  0  0  0
    2.0000   -2.0109    0.0000 O   0  5  0  0  0  0  0  0  0  0  0  0
    2.8660   -0.5109    0.0000 O   0  0  0  0  0  0  0  0  0  0  0  0
    6.4347    2.4836    0.0000 N   0  0  3  0  0  0  0  0  0  0  0  0
    5.4641   -0.0109    0.0000 N   0  0  0  0  0  0  0  0  0  0  0  0
    2.8660   -1.5109    0.0000 N   0  3  0  0  0  0  0  0  0  0  0  0
    6.3301    1.4891    0.0000 C   0  0  1  0  0  0  0  0  0  0  0  0
    7.2437    1.0824    0.0000 C   0  0  0  0  0  0  0  0  0  0  0  0
    7.9128    1.8255    0.0000 C   0  0  0  0  0  0  0  0  0  0  0  0
    7.4128    2.6915    0.0000 C   0  0  0  0  0  0  0  0  0  0  0  0
    5.4641    0.9891    0.0000 C   0  0  0  0  0  0  0  0  0  0  0  0
    5.6915    3.1528    0.0000 C   0  0  0  0  0  0  0  0  0  0  0  0
    5.8994    4.1309    0.0000 C   0  0  0  0  0  0  0  0  0  0  0  0
    4.5981   -0.5109    0.0000 C   0  0  0  0  0  0  0  0  0  0  0  0
    4.5981   -1.5109    0.0000 C   0  0  0  0  0  0  0  0  0  0  0  0
    3.7320   -2.0109    0.0000 C   0  0  0  0  0  0  0  0  0  0  0  0
    5.4641   -2.0109    0.0000 C   0  0  0  0  0  0  0  0  0  0  0  0
    5.4641   -3.0109    0.0000 C   0  0  0  0  0  0  0  0  0  0  0  0
    3.7320   -3.0109    0.0000 C   0  0  0  0  0  0  0  0  0  0  0  0
    4.5981   -3.5109    0.0000 C   0  0  0  0  0  0  0  0  0  0  0  0
    7.1962   -2.0109    0.0000 C   0  0  0  0  0  0  0  0  0  0  0  0
    5.8102    1.8268    0.0000 H   0  0  0  0  0  0  0  0  0  0  0  0
    6.9337    0.5454    0.0000 H   0  0  0  0  0  0  0  0  0  0  0  0
    7.7453    0.7179    0.0000 H   0  0  0  0  0  0  0  0  0  0  0  0
    8.3277    1.3648    0.0000 H   0  0  0  0  0  0  0  0  0  0  0  0
    8.4144    2.1899    0.0000 H   0  0  0  0  0  0  0  0  0  0  0  0
    7.9792    2.9437    0.0000 H   0  0  0  0  0  0  0  0  0  0  0  0
    7.2212    3.2812    0.0000 H   0  0  0  0  0  0  0  0  0  0  0  0
    5.2520    1.5717    0.0000 H   0  0  0  0  0  0  0  0  0  0  0  0
    4.8535    0.8814    0.0000 H   0  0  0  0  0  0  0  0  0  0  0  0
    5.1167    3.3850    0.0000 H   0  0  0  0  0  0  0  0  0  0  0  0
    5.3630    2.6270    0.0000 H   0  0  0  0  0  0  0  0  0  0  0  0
    6.0010   -0.3209    0.0000 H   0  0  0  0  0  0  0  0  0  0  0  0
    6.5059    4.0020    0.0000 H   0  0  0  0  0  0  0  0  0  0  0  0
    6.0283    4.7374    0.0000 H   0  0  0  0  0  0  0  0  0  0  0  0
    5.2930    4.2598    0.0000 H   0  0  0  0  0  0  0  0  0  0  0  0
    4.5981   -4.1309    0.0000 H   0  0  0  0  0  0  0  0  0  0  0  0
    6.8862   -2.5478    0.0000 H   0  0  0  0  0  0  0  0  0  0  0  0
    7.7331   -2.3209    0.0000 H   0  0  0  0  0  0  0  0  0  0  0  0
    7.5062   -1.4740    0.0000 H   0  0  0  0  0  0  0  0  0  0  0  0
    6.3301   -4.1309    0.0000 H   0  0  0  0  0  0  0  0  0  0  0  0
  1 22  1  0  0  0  0
  2 17  2  0  0  0  0
  3 20  1  0  0  0  0
  3 24  1  0  0  0  0
  4 21  1  0  0  0  0
  4 44  1  0  0  0  0
  5  9  1  0  0  0  0
  6  9  2  0  0  0  0
  7 10  1  0  0  0  0
  7 13  1  0  0  0  0
  7 15  1  0  0  0  0
  8 14  1  0  0  0  0
  8 17  1  0  0  0  0
  8 36  1  0  0  0  0
  9 19  1  0  0  0  0
 10 11  1  0  0  0  0
 10 14  1  1  0  0  0
 10 25  1  0  0  0  0
 11 12  1  0  0  0  0
 11 26  1  0  0  0  0
 11 27  1  0  0  0  0
 12 13  1  0  0  0  0
 12 28  1  0  0  0  0
 12 29  1  0  0  0  0
 13 30  1  0  0  0  0
 13 31  1  0  0  0  0
 14 32  1  0  0  0  0
 14 33  1  0  0  0  0
 15 16  1  0  0  0  0
 15 34  1  0  0  0  0
 15 35  1  0  0  0  0
 16 37  1  0  0  0  0
 16 38  1  0  0  0  0
 16 39  1  0  0  0  0
 17 18  1  0  0  0  0
 18 19  1  0  0  0  0
 18 20  2  0  0  0  0
 19 22  2  0  0  0  0
 20 21  1  0  0  0  0
 21 23  2  0  0  0  0
 22 23  1  0  0  0  0
 23 40  1  0  0  0  0
 24 41  1  0  0  0  0
 24 42  1  0  0  0  0
 24 43  1  0  0  0  0
M  CHG  2   5  -1   9   1
M  END
> <PUBCHEM_COMPOUND_CID>
52944701

> <PUBCHEM_COMPOUND_CANONICALIZED>
1

> <PUBCHEM_CACTVS_COMPLEXITY>
461

> <PUBCHEM_CACTVS_HBOND_ACCEPTOR>
6

> <PUBCHEM_CACTVS_HBOND_DONOR>
2

> <PUBCHEM_CACTVS_ROTATABLE_BOND>
5

> <PUBCHEM_CACTVS_SUBSKEYS>
AAADceBzOAAAEAAAAAAAAAAAAAAAAWAAAAAwAAAAAAAAAAABAAAAHgBUCAABrCzBmAYyxoPQRgCJAiVSUwCCCAAkIAQgiIEOzOoNZj6G9JuUcetm9hmL+1e62DGOAFABEoAKQAgAoAIlABSAEAAAAAAAAA==

> <PUBCHEM_IUPAC_OPENEYE_NAME>
5-bromo-N-[[(2S)-1-ethylpyrrolidin-2-yl]methyl]-3-hydroxy-2-methoxy-6-nitro-benzamide

> <PUBCHEM_IUPAC_CAS_NAME>
5-bromo-N-[[(2S)-1-ethyl-2-pyrrolidinyl]methyl]-3-hydroxy-2-methoxy-6-nitrobenzamide

> <PUBCHEM_IUPAC_NAME_MARKUP>
5-bromo-<I>N</I>-[[(2<I>S</I>)-1-ethylpyrrolidin-2-yl]methyl]-3-hydroxy-2-methoxy-6-nitrobenzamide

> <PUBCHEM_IUPAC_NAME>
5-bromo-N-[[(2S)-1-ethylpyrrolidin-2-yl]methyl]-3-hydroxy-2-methoxy-6-nitrobenzamide

> <PUBCHEM_IUPAC_SYSTEMATIC_NAME>
5-bromanyl-N-[[(2S)-1-ethylpyrrolidin-2-yl]methyl]-2-methoxy-6-nitro-3-oxidanyl-benzamide

> <PUBCHEM_IUPAC_TRADITIONAL_NAME>
5-bromo-N-[[(2S)-1-ethylpyrrolidin-2-yl]methyl]-3-hydroxy-2-methoxy-6-nitro-benzamide

> <PUBCHEM_IUPAC_INCHI>
InChI=1S/C15H20BrN3O5/c1-3-18-6-4-5-9(18)8-17-15(21)12-13(19(22)23)10(16)7-11(20)14(12)24-2/h7,9,20H,3-6,8H2,1-2H3,(H,17,21)/t9-/m0/s1

> <PUBCHEM_IUPAC_INCHIKEY>
LNTBHLCQBDWRLD-VIFPVBQESA-N

> <PUBCHEM_XLOGP3>
1.6

> <PUBCHEM_EXACT_MASS>
401.05863

> <PUBCHEM_MOLECULAR_FORMULA>
C15H20BrN3O5

> <PUBCHEM_MOLECULAR_WEIGHT>
402.24

> <PUBCHEM_OPENEYE_CAN_SMILES>
CCN1CCCC1CNC(=O)C2=C(C(=CC(=C2[N+](=O)[O-])Br)O)OC

> <PUBCHEM_OPENEYE_ISO_SMILES>
CCN1CCC[C@H]1CNC(=O)C2=C(C(=CC(=C2[N+](=O)[O-])Br)O)OC

> <PUBCHEM_CACTVS_TPSA>
108

> <PUBCHEM_MONOISOTOPIC_WEIGHT>
401.05863

> <PUBCHEM_TOTAL_CHARGE>
0

> <PUBCHEM_HEAVY_ATOM_COUNT>
24

> <PUBCHEM_ATOM_DEF_STEREO_COUNT>
1

> <PUBCHEM_ATOM_UDEF_STEREO_COUNT>
0

> <PUBCHEM_BOND_DEF_STEREO_COUNT>
0

> <PUBCHEM_BOND_UDEF_STEREO_COUNT>
0

> <PUBCHEM_ISOTOPIC_ATOM_COUNT>
0

> <PUBCHEM_COMPONENT_COUNT>
1

> <PUBCHEM_CACTVS_TAUTO_COUNT>
-1

> <PUBCHEM_COORDINATE_TYPE>
1
5
255

> <PUBCHEM_BONDANNOTATIONS>
10  14  5
18  19  8
18  20  8
19  22  8
20  21  8
21  23  8
22  23  8

$$$$
