155565531
  -OEChem-09292322412D

226233  0     1  0  0  0  0  0999 V2000
    7.6537   -2.6422    0.0000 Cl  0  0  0  0  0  0  0  0  0  0  0  0
    2.0000    0.2600    0.0000 Cl  0  0  0  0  0  0  0  0  0  0  0  0
    4.8511   -4.6783    0.0000 Cl  0  0  0  0  0  0  0  0  0  0  0  0
   63.0027   -0.8563    0.0000 O   0  0  0  0  0  0  0  0  0  0  0  0
   53.4601    1.6783    0.0000 O   0  0  0  0  0  0  0  0  0  0  0  0
   50.8620   -0.8217    0.0000 O   0  0  0  0  0  0  0  0  0  0  0  0
   16.2210   -0.8217    0.0000 O   0  0  0  0  0  0  0  0  0  0  0  0
   44.7999    1.6783    0.0000 O   0  0  0  0  0  0  0  0  0  0  0  0
    8.4268    1.6783    0.0000 O   0  0  0  0  0  0  0  0  0  0  0  0
   33.5415    0.1783    0.0000 O   0  0  0  0  0  0  0  0  0  0  0  0
   27.4793   -2.3217    0.0000 O   0  0  0  0  0  0  0  0  0  0  0  0
   22.2832    1.6783    0.0000 O   0  0  0  0  0  0  0  0  0  0  0  0
   39.6037   -2.3217    0.0000 O   0  0  0  0  0  0  0  0  0  0  0  0
   59.5223    2.1783    0.0000 N   0  0  3  0  0  0  0  0  0  0  0  0
   54.3261    0.1783    0.0000 N   0  0  0  0  0  0  0  0  0  0  0  0
   49.9960    0.6783    0.0000 N   0  0  0  0  0  0  0  0  0  0  0  0
   15.3550    0.6783    0.0000 N   0  0  0  0  0  0  0  0  0  0  0  0
    9.2928    0.1783    0.0000 N   0  0  0  0  0  0  0  0  0  0  0  0
   43.9338    0.1783    0.0000 N   0  0  0  0  0  0  0  0  0  0  0  0
   32.6755   -1.3217    0.0000 N   0  0  0  0  0  0  0  0  0  0  0  0
   21.4172    0.1783    0.0000 N   0  0  0  0  0  0  0  0  0  0  0  0
    6.4781   -1.0241    0.0000 N   0  0  0  0  0  0  0  0  0  0  0  0
    7.4562   -0.8162    0.0000 N   0  0  0  0  0  0  0  0  0  0  0  0
   38.7377   -0.8217    0.0000 N   0  0  0  0  0  0  0  0  0  0  0  0
   26.6133   -0.8217    0.0000 N   0  0  0  0  0  0  0  0  0  0  0  0
   60.3883    1.6783    0.0000 C   0  0  3  0  0  0  0  0  0  0  0  0
   60.3883    0.6783    0.0000 C   0  0  0  0  0  0  0  0  0  0  0  0
   61.2543    2.1783    0.0000 C   0  0  0  0  0  0  0  0  0  0  0  0
   61.2543    0.1783    0.0000 C   0  0  0  0  0  0  0  0  0  0  0  0
   62.1204    1.6783    0.0000 C   0  0  0  0  0  0  0  0  0  0  0  0
   62.1204    0.6783    0.0000 C   0  0  0  0  0  0  0  0  0  0  0  0
   58.6563    1.6783    0.0000 C   0  0  0  0  0  0  0  0  0  0  0  0
   59.5223    3.1783    0.0000 C   0  0  0  0  0  0  0  0  0  0  0  0
   57.7902    2.1783    0.0000 C   0  0  0  0  0  0  0  0  0  0  0  0
   63.0143    2.2130    0.0000 C   0  0  0  0  0  0  0  0  0  0  0  0
   63.0143    0.1436    0.0000 C   0  0  0  0  0  0  0  0  0  0  0  0
   58.6563    3.6783    0.0000 C   0  0  0  0  0  0  0  0  0  0  0  0
   63.9204    1.6991    0.0000 C   0  0  0  0  0  0  0  0  0  0  0  0
   63.9204    0.6575    0.0000 C   0  0  0  0  0  0  0  0  0  0  0  0
   56.9242    1.6783    0.0000 C   0  0  0  0  0  0  0  0  0  0  0  0
   58.6563    4.6783    0.0000 C   0  0  0  0  0  0  0  0  0  0  0  0
   56.0582    2.1783    0.0000 C   0  0  0  0  0  0  0  0  0  0  0  0
   56.9242    0.6783    0.0000 C   0  0  0  0  0  0  0  0  0  0  0  0
   55.1922    1.6783    0.0000 C   0  0  0  0  0  0  0  0  0  0  0  0
   56.0582    0.1783    0.0000 C   0  0  0  0  0  0  0  0  0  0  0  0
   55.1922    0.6783    0.0000 C   0  0  0  0  0  0  0  0  0  0  0  0
   53.4601    0.6783    0.0000 C   0  0  0  0  0  0  0  0  0  0  0  0
   52.5941    0.1783    0.0000 C   0  0  0  0  0  0  0  0  0  0  0  0
   51.7281    0.6783    0.0000 C   0  0  0  0  0  0  0  0  0  0  0  0
   50.8620    0.1783    0.0000 C   0  0  0  0  0  0  0  0  0  0  0  0
   49.1300    0.1783    0.0000 C   0  0  0  0  0  0  0  0  0  0  0  0
   48.2640    0.6783    0.0000 C   0  0  0  0  0  0  0  0  0  0  0  0
   47.3979    0.1783    0.0000 C   0  0  0  0  0  0  0  0  0  0  0  0
   46.5319    0.6783    0.0000 C   0  0  0  0  0  0  0  0  0  0  0  0
   12.7569    0.1783    0.0000 C   0  0  0  0  0  0  0  0  0  0  0  0
   11.8909    0.6783    0.0000 C   0  0  0  0  0  0  0  0  0  0  0  0
   13.6229    0.6783    0.0000 C   0  0  0  0  0  0  0  0  0  0  0  0
   45.6659    0.1783    0.0000 C   0  0  0  0  0  0  0  0  0  0  0  0
   11.0249    0.1783    0.0000 C   0  0  0  0  0  0  0  0  0  0  0  0
   14.4890    0.1783    0.0000 C   0  0  0  0  0  0  0  0  0  0  0  0
   10.1588    0.6783    0.0000 C   0  0  0  0  0  0  0  0  0  0  0  0
   17.9531    0.1783    0.0000 C   0  0  0  0  0  0  0  0  0  0  0  0
   18.8191    0.6783    0.0000 C   0  0  0  0  0  0  0  0  0  0  0  0
   17.0870    0.6783    0.0000 C   0  0  0  0  0  0  0  0  0  0  0  0
   19.6851    0.1783    0.0000 C   0  0  0  0  0  0  0  0  0  0  0  0
   44.7999    0.6783    0.0000 C   0  0  0  0  0  0  0  0  0  0  0  0
   16.2210    0.1783    0.0000 C   0  0  0  0  0  0  0  0  0  0  0  0
   30.0774   -0.8217    0.0000 C   0  0  0  0  0  0  0  0  0  0  0  0
   30.9434   -1.3217    0.0000 C   0  0  0  0  0  0  0  0  0  0  0  0
   36.1396   -1.3217    0.0000 C   0  0  0  0  0  0  0  0  0  0  0  0
   35.2736   -0.8217    0.0000 C   0  0  0  0  0  0  0  0  0  0  0  0
   29.2114   -1.3217    0.0000 C   0  0  0  0  0  0  0  0  0  0  0  0
   20.5511    0.6783    0.0000 C   0  0  0  0  0  0  0  0  0  0  0  0
   31.8095   -0.8217    0.0000 C   0  0  0  0  0  0  0  0  0  0  0  0
   37.0056   -0.8217    0.0000 C   0  0  0  0  0  0  0  0  0  0  0  0
   34.4076   -1.3217    0.0000 C   0  0  0  0  0  0  0  0  0  0  0  0
   28.3454   -0.8217    0.0000 C   0  0  0  0  0  0  0  0  0  0  0  0
    8.4268    0.6783    0.0000 C   0  0  0  0  0  0  0  0  0  0  0  0
   37.8717   -1.3217    0.0000 C   0  0  0  0  0  0  0  0  0  0  0  0
    7.5608    0.1783    0.0000 C   0  0  0  0  0  0  0  0  0  0  0  0
   33.5415   -0.8217    0.0000 C   0  0  0  0  0  0  0  0  0  0  0  0
    6.6472    0.5850    0.0000 C   0  0  0  0  0  0  0  0  0  0  0  0
    5.9781   -0.1581    0.0000 C   0  0  0  0  0  0  0  0  0  0  0  0
   43.0678    0.6783    0.0000 C   0  0  0  0  0  0  0  0  0  0  0  0
   27.4793   -1.3217    0.0000 C   0  0  0  0  0  0  0  0  0  0  0  0
    4.9836   -0.0536    0.0000 C   0  0  0  0  0  0  0  0  0  0  0  0
   42.2018    0.1783    0.0000 C   0  0  0  0  0  0  0  0  0  0  0  0
    6.4393    1.5632    0.0000 C   0  0  0  0  0  0  0  0  0  0  0  0
   22.2832    0.6783    0.0000 C   0  0  0  0  0  0  0  0  0  0  0  0
    6.0714   -1.9377    0.0000 C   0  0  0  0  0  0  0  0  0  0  0  0
   25.7473   -1.3217    0.0000 C   0  0  0  0  0  0  0  0  0  0  0  0
   23.1492    0.1783    0.0000 C   0  0  0  0  0  0  0  0  0  0  0  0
   24.8813   -0.8217    0.0000 C   0  0  0  0  0  0  0  0  0  0  0  0
   39.6037   -1.3217    0.0000 C   0  0  0  0  0  0  0  0  0  0  0  0
   40.4697   -0.8217    0.0000 C   0  0  0  0  0  0  0  0  0  0  0  0
   41.3358    0.6783    0.0000 C   0  0  0  0  0  0  0  0  0  0  0  0
   42.2018   -0.8217    0.0000 C   0  0  0  0  0  0  0  0  0  0  0  0
   24.0152    0.6783    0.0000 C   0  0  0  0  0  0  0  0  0  0  0  0
   23.1492   -0.8217    0.0000 C   0  0  0  0  0  0  0  0  0  0  0  0
    4.3958   -0.8626    0.0000 C   0  0  0  0  0  0  0  0  0  0  0  0
    4.5768    0.8600    0.0000 C   0  0  0  0  0  0  0  0  0  0  0  0
   40.4697    0.1783    0.0000 C   0  0  0  0  0  0  0  0  0  0  0  0
   41.3358   -1.3217    0.0000 C   0  0  0  0  0  0  0  0  0  0  0  0
   24.8813    0.1783    0.0000 C   0  0  0  0  0  0  0  0  0  0  0  0
   24.0152   -1.3217    0.0000 C   0  0  0  0  0  0  0  0  0  0  0  0
    6.6591   -2.7467    0.0000 C   0  0  0  0  0  0  0  0  0  0  0  0
    5.0768   -2.0422    0.0000 C   0  0  0  0  0  0  0  0  0  0  0  0
    3.4013   -0.7581    0.0000 C   0  0  0  0  0  0  0  0  0  0  0  0
    3.5823    0.9645    0.0000 C   0  0  0  0  0  0  0  0  0  0  0  0
    6.2524   -3.6602    0.0000 C   0  0  0  0  0  0  0  0  0  0  0  0
    4.6701   -2.9558    0.0000 C   0  0  0  0  0  0  0  0  0  0  0  0
    2.9945    0.1555    0.0000 C   0  0  0  0  0  0  0  0  0  0  0  0
    5.2579   -3.7648    0.0000 C   0  0  0  0  0  0  0  0  0  0  0  0
   59.8514    1.3683    0.0000 H   0  0  0  0  0  0  0  0  0  0  0  0
   59.7777    0.7860    0.0000 H   0  0  0  0  0  0  0  0  0  0  0  0
   60.1763    0.0957    0.0000 H   0  0  0  0  0  0  0  0  0  0  0  0
   61.6529    2.6533    0.0000 H   0  0  0  0  0  0  0  0  0  0  0  0
   60.8558    2.6532    0.0000 H   0  0  0  0  0  0  0  0  0  0  0  0
   60.8558   -0.2966    0.0000 H   0  0  0  0  0  0  0  0  0  0  0  0
   61.6529   -0.2966    0.0000 H   0  0  0  0  0  0  0  0  0  0  0  0
   58.2577    1.2034    0.0000 H   0  0  0  0  0  0  0  0  0  0  0  0
   59.0548    1.2034    0.0000 H   0  0  0  0  0  0  0  0  0  0  0  0
   60.1329    3.0706    0.0000 H   0  0  0  0  0  0  0  0  0  0  0  0
   59.7343    3.7609    0.0000 H   0  0  0  0  0  0  0  0  0  0  0  0
   58.1888    2.6533    0.0000 H   0  0  0  0  0  0  0  0  0  0  0  0
   57.3917    2.6533    0.0000 H   0  0  0  0  0  0  0  0  0  0  0  0
   63.0071    2.8329    0.0000 H   0  0  0  0  0  0  0  0  0  0  0  0
   58.0457    3.7860    0.0000 H   0  0  0  0  0  0  0  0  0  0  0  0
   58.4442    3.0957    0.0000 H   0  0  0  0  0  0  0  0  0  0  0  0
   64.4561    2.0112    0.0000 H   0  0  0  0  0  0  0  0  0  0  0  0
   64.4561    0.3454    0.0000 H   0  0  0  0  0  0  0  0  0  0  0  0
   59.2763    4.6783    0.0000 H   0  0  0  0  0  0  0  0  0  0  0  0
   58.6563    5.2983    0.0000 H   0  0  0  0  0  0  0  0  0  0  0  0
   58.0363    4.6783    0.0000 H   0  0  0  0  0  0  0  0  0  0  0  0
   63.5361   -1.1725    0.0000 H   0  0  0  0  0  0  0  0  0  0  0  0
   56.0582    2.7983    0.0000 H   0  0  0  0  0  0  0  0  0  0  0  0
   57.4611    0.3683    0.0000 H   0  0  0  0  0  0  0  0  0  0  0  0
   54.6552    1.9883    0.0000 H   0  0  0  0  0  0  0  0  0  0  0  0
   56.0582   -0.4417    0.0000 H   0  0  0  0  0  0  0  0  0  0  0  0
   54.3261   -0.4417    0.0000 H   0  0  0  0  0  0  0  0  0  0  0  0
   52.1956   -0.2966    0.0000 H   0  0  0  0  0  0  0  0  0  0  0  0
   52.9926   -0.2966    0.0000 H   0  0  0  0  0  0  0  0  0  0  0  0
   52.1266    1.1533    0.0000 H   0  0  0  0  0  0  0  0  0  0  0  0
   51.3295    1.1533    0.0000 H   0  0  0  0  0  0  0  0  0  0  0  0
   49.9960    1.2983    0.0000 H   0  0  0  0  0  0  0  0  0  0  0  0
   48.7315   -0.2966    0.0000 H   0  0  0  0  0  0  0  0  0  0  0  0
   49.5285   -0.2966    0.0000 H   0  0  0  0  0  0  0  0  0  0  0  0
   48.6625    1.1533    0.0000 H   0  0  0  0  0  0  0  0  0  0  0  0
   47.8654    1.1533    0.0000 H   0  0  0  0  0  0  0  0  0  0  0  0
   46.9994   -0.2966    0.0000 H   0  0  0  0  0  0  0  0  0  0  0  0
   47.7965   -0.2966    0.0000 H   0  0  0  0  0  0  0  0  0  0  0  0
   46.9304    1.1533    0.0000 H   0  0  0  0  0  0  0  0  0  0  0  0
   46.1334    1.1533    0.0000 H   0  0  0  0  0  0  0  0  0  0  0  0
   12.3584   -0.2966    0.0000 H   0  0  0  0  0  0  0  0  0  0  0  0
   13.1554   -0.2966    0.0000 H   0  0  0  0  0  0  0  0  0  0  0  0
   12.2894    1.1533    0.0000 H   0  0  0  0  0  0  0  0  0  0  0  0
   11.4924    1.1533    0.0000 H   0  0  0  0  0  0  0  0  0  0  0  0
   14.0215    1.1533    0.0000 H   0  0  0  0  0  0  0  0  0  0  0  0
   13.2244    1.1533    0.0000 H   0  0  0  0  0  0  0  0  0  0  0  0
   10.6263   -0.2966    0.0000 H   0  0  0  0  0  0  0  0  0  0  0  0
   11.4234   -0.2966    0.0000 H   0  0  0  0  0  0  0  0  0  0  0  0
   45.2674   -0.2966    0.0000 H   0  0  0  0  0  0  0  0  0  0  0  0
   46.0644   -0.2966    0.0000 H   0  0  0  0  0  0  0  0  0  0  0  0
   14.0904   -0.2966    0.0000 H   0  0  0  0  0  0  0  0  0  0  0  0
   14.8875   -0.2966    0.0000 H   0  0  0  0  0  0  0  0  0  0  0  0
   10.5574    1.1533    0.0000 H   0  0  0  0  0  0  0  0  0  0  0  0
    9.7603    1.1533    0.0000 H   0  0  0  0  0  0  0  0  0  0  0  0
   17.5545   -0.2966    0.0000 H   0  0  0  0  0  0  0  0  0  0  0  0
   18.3516   -0.2966    0.0000 H   0  0  0  0  0  0  0  0  0  0  0  0
   19.2176    1.1533    0.0000 H   0  0  0  0  0  0  0  0  0  0  0  0
   18.4206    1.1533    0.0000 H   0  0  0  0  0  0  0  0  0  0  0  0
   17.4856    1.1533    0.0000 H   0  0  0  0  0  0  0  0  0  0  0  0
   16.6885    1.1533    0.0000 H   0  0  0  0  0  0  0  0  0  0  0  0
   15.3550    1.2983    0.0000 H   0  0  0  0  0  0  0  0  0  0  0  0
   19.2866   -0.2966    0.0000 H   0  0  0  0  0  0  0  0  0  0  0  0
   20.0836   -0.2966    0.0000 H   0  0  0  0  0  0  0  0  0  0  0  0
   30.4760   -0.3467    0.0000 H   0  0  0  0  0  0  0  0  0  0  0  0
   29.6789   -0.3467    0.0000 H   0  0  0  0  0  0  0  0  0  0  0  0
   30.5449   -1.7966    0.0000 H   0  0  0  0  0  0  0  0  0  0  0  0
   31.3420   -1.7966    0.0000 H   0  0  0  0  0  0  0  0  0  0  0  0
   35.7411   -1.7966    0.0000 H   0  0  0  0  0  0  0  0  0  0  0  0
   36.5381   -1.7966    0.0000 H   0  0  0  0  0  0  0  0  0  0  0  0
   35.6721   -0.3467    0.0000 H   0  0  0  0  0  0  0  0  0  0  0  0
   34.8750   -0.3467    0.0000 H   0  0  0  0  0  0  0  0  0  0  0  0
    9.2928   -0.4417    0.0000 H   0  0  0  0  0  0  0  0  0  0  0  0
   28.8129   -1.7966    0.0000 H   0  0  0  0  0  0  0  0  0  0  0  0
   29.6099   -1.7966    0.0000 H   0  0  0  0  0  0  0  0  0  0  0  0
   20.9497    1.1533    0.0000 H   0  0  0  0  0  0  0  0  0  0  0  0
   20.1526    1.1533    0.0000 H   0  0  0  0  0  0  0  0  0  0  0  0
   32.2080   -0.3467    0.0000 H   0  0  0  0  0  0  0  0  0  0  0  0
   31.4109   -0.3467    0.0000 H   0  0  0  0  0  0  0  0  0  0  0  0
   37.4042   -0.3467    0.0000 H   0  0  0  0  0  0  0  0  0  0  0  0
   36.6071   -0.3467    0.0000 H   0  0  0  0  0  0  0  0  0  0  0  0
   34.0090   -1.7966    0.0000 H   0  0  0  0  0  0  0  0  0  0  0  0
   34.8061   -1.7966    0.0000 H   0  0  0  0  0  0  0  0  0  0  0  0
   28.7439   -0.3467    0.0000 H   0  0  0  0  0  0  0  0  0  0  0  0
   27.9468   -0.3467    0.0000 H   0  0  0  0  0  0  0  0  0  0  0  0
   37.4731   -1.7966    0.0000 H   0  0  0  0  0  0  0  0  0  0  0  0
   38.2702   -1.7966    0.0000 H   0  0  0  0  0  0  0  0  0  0  0  0
   32.6755   -1.9417    0.0000 H   0  0  0  0  0  0  0  0  0  0  0  0
   43.9338   -0.4417    0.0000 H   0  0  0  0  0  0  0  0  0  0  0  0
   21.4172   -0.4417    0.0000 H   0  0  0  0  0  0  0  0  0  0  0  0
   43.4663    1.1533    0.0000 H   0  0  0  0  0  0  0  0  0  0  0  0
   42.6693    1.1533    0.0000 H   0  0  0  0  0  0  0  0  0  0  0  0
   38.7377   -0.2017    0.0000 H   0  0  0  0  0  0  0  0  0  0  0  0
    7.0458    1.6921    0.0000 H   0  0  0  0  0  0  0  0  0  0  0  0
    6.3104    2.1696    0.0000 H   0  0  0  0  0  0  0  0  0  0  0  0
    5.8328    1.4343    0.0000 H   0  0  0  0  0  0  0  0  0  0  0  0
   25.3488   -1.7966    0.0000 H   0  0  0  0  0  0  0  0  0  0  0  0
   26.1458   -1.7966    0.0000 H   0  0  0  0  0  0  0  0  0  0  0  0
   26.6133   -0.2017    0.0000 H   0  0  0  0  0  0  0  0  0  0  0  0
   41.3358    1.2983    0.0000 H   0  0  0  0  0  0  0  0  0  0  0  0
   42.7387   -1.1317    0.0000 H   0  0  0  0  0  0  0  0  0  0  0  0
   24.0152    1.2983    0.0000 H   0  0  0  0  0  0  0  0  0  0  0  0
   22.6123   -1.1317    0.0000 H   0  0  0  0  0  0  0  0  0  0  0  0
    4.6480   -1.4290    0.0000 H   0  0  0  0  0  0  0  0  0  0  0  0
    4.9413    1.3616    0.0000 H   0  0  0  0  0  0  0  0  0  0  0  0
   25.4182    0.4883    0.0000 H   0  0  0  0  0  0  0  0  0  0  0  0
   24.0152   -1.9417    0.0000 H   0  0  0  0  0  0  0  0  0  0  0  0
   39.9328    0.4883    0.0000 H   0  0  0  0  0  0  0  0  0  0  0  0
   41.3358   -1.9417    0.0000 H   0  0  0  0  0  0  0  0  0  0  0  0
    4.7124   -1.5406    0.0000 H   0  0  0  0  0  0  0  0  0  0  0  0
    3.0368   -1.2596    0.0000 H   0  0  0  0  0  0  0  0  0  0  0  0
    3.3301    1.5309    0.0000 H   0  0  0  0  0  0  0  0  0  0  0  0
    6.6168   -4.1618    0.0000 H   0  0  0  0  0  0  0  0  0  0  0  0
    4.0535   -3.0206    0.0000 H   0  0  0  0  0  0  0  0  0  0  0  0
  1106  1  0  0  0  0
  2112  1  0  0  0  0
  3113  1  0  0  0  0
  4 36  1  0  0  0  0
  4135  1  0  0  0  0
  5 47  2  0  0  0  0
  6 50  2  0  0  0  0
  7 67  2  0  0  0  0
  8 66  2  0  0  0  0
  9 78  2  0  0  0  0
 10 81  2  0  0  0  0
 11 85  2  0  0  0  0
 12 89  2  0  0  0  0
 13 94  2  0  0  0  0
 14 26  1  0  0  0  0
 14 32  1  0  0  0  0
 14 33  1  0  0  0  0
 15 46  1  0  0  0  0
 15 47  1  0  0  0  0
 15140  1  0  0  0  0
 16 50  1  0  0  0  0
 16 51  1  0  0  0  0
 16145  1  0  0  0  0
 17 60  1  0  0  0  0
 17 67  1  0  0  0  0
 17174  1  0  0  0  0
 18 61  1  0  0  0  0
 18 78  1  0  0  0  0
 18185  1  0  0  0  0
 19 66  1  0  0  0  0
 19 84  1  0  0  0  0
 19201  1  0  0  0  0
 20 74  1  0  0  0  0
 20 81  1  0  0  0  0
 20200  1  0  0  0  0
 21 73  1  0  0  0  0
 21 89  1  0  0  0  0
 21202  1  0  0  0  0
 22 23  1  0  0  0  0
 22 83  1  0  0  0  0
 22 90  1  0  0  0  0
 23 80  2  0  0  0  0
 24 79  1  0  0  0  0
 24 94  1  0  0  0  0
 24205  1  0  0  0  0
 25 85  1  0  0  0  0
 25 91  1  0  0  0  0
 25211  1  0  0  0  0
 26 27  1  0  0  0  0
 26 28  1  0  0  0  0
 26114  1  0  0  0  0
 27 29  1  0  0  0  0
 27115  1  0  0  0  0
 27116  1  0  0  0  0
 28 30  1  0  0  0  0
 28117  1  0  0  0  0
 28118  1  0  0  0  0
 29 31  1  0  0  0  0
 29119  1  0  0  0  0
 29120  1  0  0  0  0
 30 31  2  0  0  0  0
 30 35  1  0  0  0  0
 31 36  1  0  0  0  0
 32 34  1  0  0  0  0
 32121  1  0  0  0  0
 32122  1  0  0  0  0
 33 37  1  0  0  0  0
 33123  1  0  0  0  0
 33124  1  0  0  0  0
 34 40  1  0  0  0  0
 34125  1  0  0  0  0
 34126  1  0  0  0  0
 35 38  2  0  0  0  0
 35127  1  0  0  0  0
 36 39  2  0  0  0  0
 37 41  1  0  0  0  0
 37128  1  0  0  0  0
 37129  1  0  0  0  0
 38 39  1  0  0  0  0
 38130  1  0  0  0  0
 39131  1  0  0  0  0
 40 42  2  0  0  0  0
 40 43  1  0  0  0  0
 41132  1  0  0  0  0
 41133  1  0  0  0  0
 41134  1  0  0  0  0
 42 44  1  0  0  0  0
 42136  1  0  0  0  0
 43 45  2  0  0  0  0
 43137  1  0  0  0  0
 44 46  2  0  0  0  0
 44138  1  0  0  0  0
 45 46  1  0  0  0  0
 45139  1  0  0  0  0
 47 48  1  0  0  0  0
 48 49  1  0  0  0  0
 48141  1  0  0  0  0
 48142  1  0  0  0  0
 49 50  1  0  0  0  0
 49143  1  0  0  0  0
 49144  1  0  0  0  0
 51 52  1  0  0  0  0
 51146  1  0  0  0  0
 51147  1  0  0  0  0
 52 53  1  0  0  0  0
 52148  1  0  0  0  0
 52149  1  0  0  0  0
 53 54  1  0  0  0  0
 53150  1  0  0  0  0
 53151  1  0  0  0  0
 54 58  1  0  0  0  0
 54152  1  0  0  0  0
 54153  1  0  0  0  0
 55 56  1  0  0  0  0
 55 57  1  0  0  0  0
 55154  1  0  0  0  0
 55155  1  0  0  0  0
 56 59  1  0  0  0  0
 56156  1  0  0  0  0
 56157  1  0  0  0  0
 57 60  1  0  0  0  0
 57158  1  0  0  0  0
 57159  1  0  0  0  0
 58 66  1  0  0  0  0
 58162  1  0  0  0  0
 58163  1  0  0  0  0
 59 61  1  0  0  0  0
 59160  1  0  0  0  0
 59161  1  0  0  0  0
 60164  1  0  0  0  0
 60165  1  0  0  0  0
 61166  1  0  0  0  0
 61167  1  0  0  0  0
 62 63  1  0  0  0  0
 62 64  1  0  0  0  0
 62168  1  0  0  0  0
 62169  1  0  0  0  0
 63 65  1  0  0  0  0
 63170  1  0  0  0  0
 63171  1  0  0  0  0
 64 67  1  0  0  0  0
 64172  1  0  0  0  0
 64173  1  0  0  0  0
 65 73  1  0  0  0  0
 65175  1  0  0  0  0
 65176  1  0  0  0  0
 68 69  1  0  0  0  0
 68 72  1  0  0  0  0
 68177  1  0  0  0  0
 68178  1  0  0  0  0
 69 74  1  0  0  0  0
 69179  1  0  0  0  0
 69180  1  0  0  0  0
 70 71  1  0  0  0  0
 70 75  1  0  0  0  0
 70181  1  0  0  0  0
 70182  1  0  0  0  0
 71 76  1  0  0  0  0
 71183  1  0  0  0  0
 71184  1  0  0  0  0
 72 77  1  0  0  0  0
 72186  1  0  0  0  0
 72187  1  0  0  0  0
 73188  1  0  0  0  0
 73189  1  0  0  0  0
 74190  1  0  0  0  0
 74191  1  0  0  0  0
 75 79  1  0  0  0  0
 75192  1  0  0  0  0
 75193  1  0  0  0  0
 76 81  1  0  0  0  0
 76194  1  0  0  0  0
 76195  1  0  0  0  0
 77 85  1  0  0  0  0
 77196  1  0  0  0  0
 77197  1  0  0  0  0
 78 80  1  0  0  0  0
 79198  1  0  0  0  0
 79199  1  0  0  0  0
 80 82  1  0  0  0  0
 82 83  2  0  0  0  0
 82 88  1  0  0  0  0
 83 86  1  0  0  0  0
 84 87  1  0  0  0  0
 84203  1  0  0  0  0
 84204  1  0  0  0  0
 86100  2  0  0  0  0
 86101  1  0  0  0  0
 87 96  2  0  0  0  0
 87 97  1  0  0  0  0
 88206  1  0  0  0  0
 88207  1  0  0  0  0
 88208  1  0  0  0  0
 89 92  1  0  0  0  0
 90106  2  0  0  0  0
 90107  1  0  0  0  0
 91 93  1  0  0  0  0
 91209  1  0  0  0  0
 91210  1  0  0  0  0
 92 98  2  0  0  0  0
 92 99  1  0  0  0  0
 93104  2  0  0  0  0
 93105  1  0  0  0  0
 94 95  1  0  0  0  0
 95102  2  0  0  0  0
 95103  1  0  0  0  0
 96102  1  0  0  0  0
 96212  1  0  0  0  0
 97103  2  0  0  0  0
 97213  1  0  0  0  0
 98104  1  0  0  0  0
 98214  1  0  0  0  0
 99105  2  0  0  0  0
 99215  1  0  0  0  0
100108  1  0  0  0  0
100216  1  0  0  0  0
101109  2  0  0  0  0
101217  1  0  0  0  0
102220  1  0  0  0  0
103221  1  0  0  0  0
104218  1  0  0  0  0
105219  1  0  0  0  0
106110  1  0  0  0  0
107111  2  0  0  0  0
107222  1  0  0  0  0
108112  2  0  0  0  0
108223  1  0  0  0  0
109112  1  0  0  0  0
109224  1  0  0  0  0
110113  2  0  0  0  0
110225  1  0  0  0  0
111113  1  0  0  0  0
111226  1  0  0  0  0
M  END
> <PUBCHEM_COMPOUND_CID>
155565531

> <PUBCHEM_COMPOUND_CANONICALIZED>
1

> <PUBCHEM_CACTVS_COMPLEXITY>
2800

> <PUBCHEM_CACTVS_HBOND_ACCEPTOR>
12

> <PUBCHEM_CACTVS_HBOND_DONOR>
10

> <PUBCHEM_CACTVS_ROTATABLE_BOND>
50

> <PUBCHEM_CACTVS_SUBSKEYS>
AAADcfB//AAGAAAAAAAAAAAAAAAAAWAAAAAwYMGDAAAAAADB1AAAHgIYCAAADC7BniQyxpPIAgCqAyVyVACSBCAnJwAYmKGubtgIZvLD19PU9Qhk3hHI2Yed2POOzABBAACYABCYAIKAATAAIAAAAAAAAA==

> <PUBCHEM_IUPAC_OPENEYE_NAME>
N-[6-[[4-[[6-[[6-[[4-[[6-[6-[[5-(4-chlorophenyl)-1-(2,4-dichlorophenyl)-4-methyl-pyrazole-3-carbonyl]amino]hexylamino]-6-oxo-hexyl]carbamoyl]phenyl]methylamino]-6-oxo-hexyl]amino]-6-oxo-hexyl]carbamoyl]phenyl]methylamino]-6-oxo-hexyl]-N'-[4-[2-[(5-hydroxytetralin-2-yl)-propyl-amino]ethyl]phenyl]butanediamide

> <PUBCHEM_IUPAC_CAS_NAME>
N-[6-[[4-[[[6-[[6-[[4-[[[6-[6-[[[5-(4-chlorophenyl)-1-(2,4-dichlorophenyl)-4-methyl-3-pyrazolyl]-oxomethyl]amino]hexylamino]-6-oxohexyl]amino]-oxomethyl]phenyl]methylamino]-6-oxohexyl]amino]-6-oxohexyl]amino]-oxomethyl]phenyl]methylamino]-6-oxohexyl]-N'-[4-[2-[(5-hydroxy-1,2,3,4-tetrahydronaphthalen-2-yl)-propylamino]ethyl]phenyl]butanediamide

> <PUBCHEM_IUPAC_NAME_MARKUP>
<I>N</I>-[6-[[4-[[6-[[6-[[4-[[6-[6-[[5-(4-chlorophenyl)-1-(2,4-dichlorophenyl)-4-methylpyrazole-3-carbonyl]amino]hexylamino]-6-oxohexyl]carbamoyl]phenyl]methylamino]-6-oxohexyl]amino]-6-oxohexyl]carbamoyl]phenyl]methylamino]-6-oxohexyl]-<I>N</I>&apos;-[4-[2-[(5-hydroxy-1,2,3,4-tetrahydronaphthalen-2-yl)-propylamino]ethyl]phenyl]butanediamide

> <PUBCHEM_IUPAC_NAME>
N-[6-[[4-[[6-[[6-[[4-[[6-[6-[[5-(4-chlorophenyl)-1-(2,4-dichlorophenyl)-4-methylpyrazole-3-carbonyl]amino]hexylamino]-6-oxohexyl]carbamoyl]phenyl]methylamino]-6-oxohexyl]amino]-6-oxohexyl]carbamoyl]phenyl]methylamino]-6-oxohexyl]-N'-[4-[2-[(5-hydroxy-1,2,3,4-tetrahydronaphthalen-2-yl)-propylamino]ethyl]phenyl]butanediamide

> <PUBCHEM_IUPAC_SYSTEMATIC_NAME>
N-[6-[[4-[[6-[[6-[[4-[[6-[6-[[5-(4-chlorophenyl)-1-(2,4-dichlorophenyl)-4-methyl-pyrazol-3-yl]carbonylamino]hexylamino]-6-oxidanylidene-hexyl]carbamoyl]phenyl]methylamino]-6-oxidanylidene-hexyl]amino]-6-oxidanylidene-hexyl]carbamoyl]phenyl]methylamino]-6-oxidanylidene-hexyl]-N'-[4-[2-[(5-oxidanyl-1,2,3,4-tetrahydronaphthalen-2-yl)-propyl-amino]ethyl]phenyl]butanediamide

> <PUBCHEM_IUPAC_TRADITIONAL_NAME>
N-[6-[[4-[[6-[[6-[[4-[[6-[6-[[5-(4-chlorophenyl)-1-(2,4-dichlorophenyl)-4-methyl-pyrazole-3-carbonyl]amino]hexylamino]-6-keto-hexyl]carbamoyl]benzyl]amino]-6-keto-hexyl]amino]-6-keto-hexyl]carbamoyl]benzyl]amino]-6-keto-hexyl]-N'-[4-[2-[(5-hydroxytetralin-2-yl)-propyl-amino]ethyl]phenyl]succinamide

> <PUBCHEM_IUPAC_INCHI>
InChI=1S/C88H113Cl3N12O10/c1-3-56-102(73-44-45-74-69(58-73)21-20-22-77(74)104)57-49-63-31-42-72(43-32-63)100-83(110)48-47-82(109)94-52-17-7-13-26-81(108)99-61-65-29-35-68(36-30-65)87(112)96-54-19-9-11-24-79(106)93-51-16-6-12-25-80(107)98-60-64-27-33-67(34-28-64)86(111)95-53-18-8-10-23-78(105)92-50-14-4-5-15-55-97-88(113)84-62(2)85(66-37-39-70(89)40-38-66)103(101-84)76-46-41-71(90)59-75(76)91/h20-22,27-43,46,59,73,104H,3-19,23-26,44-45,47-58,60-61H2,1-2H3,(H,92,105)(H,93,106)(H,94,109)(H,95,111)(H,96,112)(H,97,113)(H,98,107)(H,99,108)(H,100,110)

> <PUBCHEM_IUPAC_INCHIKEY>
MNEKFHUJJOMPGH-UHFFFAOYSA-N

> <PUBCHEM_XLOGP3_AA>
13

> <PUBCHEM_EXACT_MASS>
1602.776821

> <PUBCHEM_MOLECULAR_FORMULA>
C88H113Cl3N12O10

> <PUBCHEM_MOLECULAR_WEIGHT>
1605.3

> <PUBCHEM_OPENEYE_CAN_SMILES>
CCCN(CCC1=CC=C(C=C1)NC(=O)CCC(=O)NCCCCCC(=O)NCC2=CC=C(C=C2)C(=O)NCCCCCC(=O)NCCCCCC(=O)NCC3=CC=C(C=C3)C(=O)NCCCCCC(=O)NCCCCCCNC(=O)C4=NN(C(=C4C)C5=CC=C(C=C5)Cl)C6=C(C=C(C=C6)Cl)Cl)C7CCC8=C(C7)C=CC=C8O

> <PUBCHEM_OPENEYE_ISO_SMILES>
CCCN(CCC1=CC=C(C=C1)NC(=O)CCC(=O)NCCCCCC(=O)NCC2=CC=C(C=C2)C(=O)NCCCCCC(=O)NCCCCCC(=O)NCC3=CC=C(C=C3)C(=O)NCCCCCC(=O)NCCCCCCNC(=O)C4=NN(C(=C4C)C5=CC=C(C=C5)Cl)C6=C(C=C(C=C6)Cl)Cl)C7CCC8=C(C7)C=CC=C8O

> <PUBCHEM_CACTVS_TPSA>
303

> <PUBCHEM_MONOISOTOPIC_WEIGHT>
1602.776821

> <PUBCHEM_TOTAL_CHARGE>
0

> <PUBCHEM_HEAVY_ATOM_COUNT>
113

> <PUBCHEM_ATOM_DEF_STEREO_COUNT>
0

> <PUBCHEM_ATOM_UDEF_STEREO_COUNT>
1

> <PUBCHEM_BOND_DEF_STEREO_COUNT>
0

> <PUBCHEM_BOND_UDEF_STEREO_COUNT>
0

> <PUBCHEM_ISOTOPIC_ATOM_COUNT>
0

> <PUBCHEM_COMPONENT_COUNT>
1

> <PUBCHEM_CACTVS_TAUTO_COUNT>
-1

> <PUBCHEM_COORDINATE_TYPE>
1
5
255

> <PUBCHEM_BONDANNOTATIONS>
100  108  8
101  109  8
106  110  8
107  111  8
108  112  8
109  112  8
110  113  8
111  113  8
26  14  3
22  23  8
22  83  8
23  80  8
30  31  8
30  35  8
31  36  8
35  38  8
36  39  8
38  39  8
40  42  8
40  43  8
42  44  8
43  45  8
44  46  8
45  46  8
80  82  8
82  83  8
86  100  8
86  101  8
87  96  8
87  97  8
90  106  8
90  107  8
92  98  8
92  99  8
93  104  8
93  105  8
95  102  8
95  103  8
96  102  8
97  103  8
98  104  8
99  105  8

$$$$
