138671122
  -OEChem-09292322452D

 66 69  0     1  0  0  0  0  0999 V2000
   13.8535   -0.8305    0.0000 S   0  0  0  0  0  0  0  0  0  0  0  0
   17.9454   -2.4808    0.0000 F   0  0  0  0  0  0  0  0  0  0  0  0
   16.9504   -3.4858    0.0000 F   0  0  0  0  0  0  0  0  0  0  0  0
   16.9404   -1.4858    0.0000 F   0  0  0  0  0  0  0  0  0  0  0  0
    5.2078    0.9198    0.0000 O   0  0  0  0  0  0  0  0  0  0  0  0
    2.0000    1.9865    0.0000 O   0  0  0  0  0  0  0  0  0  0  0  0
   10.7207   -1.6508    0.0000 N   0  0  3  0  0  0  0  0  0  0  0  0
    5.2164   -0.8122    0.0000 N   0  0  0  0  0  0  0  0  0  0  0  0
   13.8615   -2.4399    0.0000 N   0  0  0  0  0  0  0  0  0  0  0  0
    3.6100    1.8254    0.0000 N   0  0  0  0  0  0  0  0  0  0  0  0
    2.2128    1.0094    0.0000 N   0  0  0  0  0  0  0  0  0  0  0  0
    8.2164   -0.7973    0.0000 C   0  0  0  0  0  0  0  0  0  0  0  0
    7.7121    0.0662    0.0000 C   0  0  0  0  0  0  0  0  0  0  0  0
    7.7207   -1.6658    0.0000 C   0  0  0  0  0  0  0  0  0  0  0  0
    6.2164   -0.8073    0.0000 C   0  0  0  0  0  0  0  0  0  0  0  0
    6.7121    0.0612    0.0000 C   0  0  0  0  0  0  0  0  0  0  0  0
    6.7207   -1.6708    0.0000 C   0  0  0  0  0  0  0  0  0  0  0  0
    9.2164   -0.7923    0.0000 C   0  0  0  0  0  0  0  0  0  0  0  0
    9.7207   -1.6558    0.0000 C   0  0  0  0  0  0  0  0  0  0  0  0
   11.1501   -0.7477    0.0000 C   0  0  0  0  0  0  0  0  0  0  0  0
   11.1591   -2.5496    0.0000 C   0  0  0  0  0  0  0  0  0  0  0  0
   12.1239   -0.5203    0.0000 C   0  0  0  0  0  0  0  0  0  0  0  0
   12.1351   -2.7673    0.0000 C   0  0  0  0  0  0  0  0  0  0  0  0
    4.7121    0.0513    0.0000 C   0  0  0  0  0  0  0  0  0  0  0  0
   12.9088   -1.1399    0.0000 C   0  0  0  0  0  0  0  0  0  0  0  0
   12.9138   -2.1399    0.0000 C   0  0  0  0  0  0  0  0  0  0  0  0
    3.7121    0.0463    0.0000 C   0  0  0  0  0  0  0  0  0  0  0  0
   14.4411   -1.6323    0.0000 C   0  0  0  0  0  0  0  0  0  0  0  0
   15.4411   -1.6273    0.0000 C   0  0  0  0  0  0  0  0  0  0  0  0
    3.2078    0.9098    0.0000 C   0  0  0  0  0  0  0  0  0  0  0  0
   15.9454   -2.4908    0.0000 C   0  0  0  0  0  0  0  0  0  0  0  0
   16.9454   -2.4858    0.0000 C   0  0  0  0  0  0  0  0  0  0  0  0
    2.8635    2.4908    0.0000 C   0  0  0  0  0  0  0  0  0  0  0  0
    2.9631    3.4858    0.0000 C   0  0  0  0  0  0  0  0  0  0  0  0
    8.5237   -0.2588    0.0000 H   0  0  0  0  0  0  0  0  0  0  0  0
    8.2936    0.2812    0.0000 H   0  0  0  0  0  0  0  0  0  0  0  0
    7.6014    0.6763    0.0000 H   0  0  0  0  0  0  0  0  0  0  0  0
    7.6161   -2.2769    0.0000 H   0  0  0  0  0  0  0  0  0  0  0  0
    8.3044   -1.8749    0.0000 H   0  0  0  0  0  0  0  0  0  0  0  0
    5.9091   -1.3457    0.0000 H   0  0  0  0  0  0  0  0  0  0  0  0
    6.8167    0.6724    0.0000 H   0  0  0  0  0  0  0  0  0  0  0  0
    6.1284    0.2704    0.0000 H   0  0  0  0  0  0  0  0  0  0  0  0
    6.1392   -1.8857    0.0000 H   0  0  0  0  0  0  0  0  0  0  0  0
    6.8314   -2.2808    0.0000 H   0  0  0  0  0  0  0  0  0  0  0  0
    9.7979   -0.5773    0.0000 H   0  0  0  0  0  0  0  0  0  0  0  0
    9.1057   -0.1823    0.0000 H   0  0  0  0  0  0  0  0  0  0  0  0
    9.1392   -1.8708    0.0000 H   0  0  0  0  0  0  0  0  0  0  0  0
    9.8314   -2.2659    0.0000 H   0  0  0  0  0  0  0  0  0  0  0  0
    4.9091   -1.3507    0.0000 H   0  0  0  0  0  0  0  0  0  0  0  0
   11.1470   -0.1277    0.0000 H   0  0  0  0  0  0  0  0  0  0  0  0
   10.5449   -0.6128    0.0000 H   0  0  0  0  0  0  0  0  0  0  0  0
   10.5553   -2.6906    0.0000 H   0  0  0  0  0  0  0  0  0  0  0  0
   11.1621   -3.1696    0.0000 H   0  0  0  0  0  0  0  0  0  0  0  0
   12.6067   -0.1314    0.0000 H   0  0  0  0  0  0  0  0  0  0  0  0
   11.8521    0.0369    0.0000 H   0  0  0  0  0  0  0  0  0  0  0  0
   11.8689   -3.3272    0.0000 H   0  0  0  0  0  0  0  0  0  0  0  0
   12.6217   -3.1514    0.0000 H   0  0  0  0  0  0  0  0  0  0  0  0
    3.1306   -0.1687    0.0000 H   0  0  0  0  0  0  0  0  0  0  0  0
    3.8228   -0.5637    0.0000 H   0  0  0  0  0  0  0  0  0  0  0  0
   16.0226   -1.4123    0.0000 H   0  0  0  0  0  0  0  0  0  0  0  0
   15.3304   -1.0173    0.0000 H   0  0  0  0  0  0  0  0  0  0  0  0
   15.3639   -2.7058    0.0000 H   0  0  0  0  0  0  0  0  0  0  0  0
   16.0561   -3.1008    0.0000 H   0  0  0  0  0  0  0  0  0  0  0  0
    3.5800    3.4241    0.0000 H   0  0  0  0  0  0  0  0  0  0  0  0
    3.0248    4.1027    0.0000 H   0  0  0  0  0  0  0  0  0  0  0  0
    2.3462    3.5476    0.0000 H   0  0  0  0  0  0  0  0  0  0  0  0
  1 25  1  0  0  0  0
  1 28  1  0  0  0  0
  2 32  1  0  0  0  0
  3 32  1  0  0  0  0
  4 32  1  0  0  0  0
  5 24  2  0  0  0  0
  6 11  1  0  0  0  0
  6 33  1  0  0  0  0
  7 19  1  0  0  0  0
  7 20  1  0  0  0  0
  7 21  1  0  0  0  0
  8 15  1  0  0  0  0
  8 24  1  0  0  0  0
  8 49  1  0  0  0  0
  9 26  1  0  0  0  0
  9 28  2  0  0  0  0
 10 30  1  0  0  0  0
 10 33  2  0  0  0  0
 11 30  2  0  0  0  0
 12 13  1  0  0  0  0
 12 14  1  0  0  0  0
 12 18  1  0  0  0  0
 12 35  1  0  0  0  0
 13 16  1  0  0  0  0
 13 36  1  0  0  0  0
 13 37  1  0  0  0  0
 14 17  1  0  0  0  0
 14 38  1  0  0  0  0
 14 39  1  0  0  0  0
 15 16  1  0  0  0  0
 15 17  1  0  0  0  0
 15 40  1  0  0  0  0
 16 41  1  0  0  0  0
 16 42  1  0  0  0  0
 17 43  1  0  0  0  0
 17 44  1  0  0  0  0
 18 19  1  0  0  0  0
 18 45  1  0  0  0  0
 18 46  1  0  0  0  0
 19 47  1  0  0  0  0
 19 48  1  0  0  0  0
 20 22  1  0  0  0  0
 20 50  1  0  0  0  0
 20 51  1  0  0  0  0
 21 23  1  0  0  0  0
 21 52  1  0  0  0  0
 21 53  1  0  0  0  0
 22 25  1  0  0  0  0
 22 54  1  0  0  0  0
 22 55  1  0  0  0  0
 23 26  1  0  0  0  0
 23 56  1  0  0  0  0
 23 57  1  0  0  0  0
 24 27  1  0  0  0  0
 25 26  2  0  0  0  0
 27 30  1  0  0  0  0
 27 58  1  0  0  0  0
 27 59  1  0  0  0  0
 28 29  1  0  0  0  0
 29 31  1  0  0  0  0
 29 60  1  0  0  0  0
 29 61  1  0  0  0  0
 31 32  1  0  0  0  0
 31 62  1  0  0  0  0
 31 63  1  0  0  0  0
 33 34  1  0  0  0  0
 34 64  1  0  0  0  0
 34 65  1  0  0  0  0
 34 66  1  0  0  0  0
M  END
> <PUBCHEM_COMPOUND_CID>
138671122

> <PUBCHEM_COMPOUND_CANONICALIZED>
1

> <PUBCHEM_CACTVS_COMPLEXITY>
665

> <PUBCHEM_CACTVS_HBOND_ACCEPTOR>
10

> <PUBCHEM_CACTVS_HBOND_DONOR>
1

> <PUBCHEM_CACTVS_ROTATABLE_BOND>
8

> <PUBCHEM_CACTVS_SUBSKEYS>
AAADcfB7sYBAAAAAAAAAAAAAAAAAAWLAAAAwAAAABYAAAACx4AAAHwQUAAAADSjB1xQDkRfYEAitAQdwdgAA8KlhCLghGJU4QAiAKApgyAEEAAAgFwLoSAMQgIAOAAAAAAAAAAAQAAAAAAAAAAAAAAAAAA==

> <PUBCHEM_IUPAC_OPENEYE_NAME>
2-(5-methyl-1,2,4-oxadiazol-3-yl)-N-[4-[2-[2-(3,3,3-trifluoropropyl)-4,5,7,8-tetrahydrothiazolo[4,5-d]azepin-6-yl]ethyl]cyclohexyl]acetamide

> <PUBCHEM_IUPAC_CAS_NAME>
2-(5-methyl-1,2,4-oxadiazol-3-yl)-N-[4-[2-[2-(3,3,3-trifluoropropyl)-4,5,7,8-tetrahydrothiazolo[4,5-d]azepin-6-yl]ethyl]cyclohexyl]acetamide

> <PUBCHEM_IUPAC_NAME_MARKUP>
2-(5-methyl-1,2,4-oxadiazol-3-yl)-<I>N</I>-[4-[2-[2-(3,3,3-trifluoropropyl)-4,5,7,8-tetrahydro-[1,3]thiazolo[4,5-d]azepin-6-yl]ethyl]cyclohexyl]acetamide

> <PUBCHEM_IUPAC_NAME>
2-(5-methyl-1,2,4-oxadiazol-3-yl)-N-[4-[2-[2-(3,3,3-trifluoropropyl)-4,5,7,8-tetrahydro-[1,3]thiazolo[4,5-d]azepin-6-yl]ethyl]cyclohexyl]acetamide

> <PUBCHEM_IUPAC_SYSTEMATIC_NAME>
2-(5-methyl-1,2,4-oxadiazol-3-yl)-N-[4-[2-[2-[3,3,3-tris(fluoranyl)propyl]-4,5,7,8-tetrahydro-[1,3]thiazolo[4,5-d]azepin-6-yl]ethyl]cyclohexyl]ethanamide

> <PUBCHEM_IUPAC_TRADITIONAL_NAME>
2-(5-methyl-1,2,4-oxadiazol-3-yl)-N-[4-[2-[2-(3,3,3-trifluoropropyl)-4,5,7,8-tetrahydrothiazol[4,5-d]azepin-6-yl]ethyl]cyclohexyl]acetamide

> <PUBCHEM_IUPAC_INCHI>
InChI=1S/C23H32F3N5O2S/c1-15-27-20(30-33-15)14-21(32)28-17-4-2-16(3-5-17)7-11-31-12-8-18-19(9-13-31)34-22(29-18)6-10-23(24,25)26/h16-17H,2-14H2,1H3,(H,28,32)

> <PUBCHEM_IUPAC_INCHIKEY>
HVGOTNRLMTVSFL-UHFFFAOYSA-N

> <PUBCHEM_XLOGP3_AA>
4.6

> <PUBCHEM_EXACT_MASS>
499.22288094

> <PUBCHEM_MOLECULAR_FORMULA>
C23H32F3N5O2S

> <PUBCHEM_MOLECULAR_WEIGHT>
499.6

> <PUBCHEM_OPENEYE_CAN_SMILES>
CC1=NC(=NO1)CC(=O)NC2CCC(CC2)CCN3CCC4=C(CC3)SC(=N4)CCC(F)(F)F

> <PUBCHEM_OPENEYE_ISO_SMILES>
CC1=NC(=NO1)CC(=O)NC2CCC(CC2)CCN3CCC4=C(CC3)SC(=N4)CCC(F)(F)F

> <PUBCHEM_CACTVS_TPSA>
112

> <PUBCHEM_MONOISOTOPIC_WEIGHT>
499.22288094

> <PUBCHEM_TOTAL_CHARGE>
0

> <PUBCHEM_HEAVY_ATOM_COUNT>
34

> <PUBCHEM_ATOM_DEF_STEREO_COUNT>
0

> <PUBCHEM_ATOM_UDEF_STEREO_COUNT>
0

> <PUBCHEM_BOND_DEF_STEREO_COUNT>
0

> <PUBCHEM_BOND_UDEF_STEREO_COUNT>
0

> <PUBCHEM_ISOTOPIC_ATOM_COUNT>
0

> <PUBCHEM_COMPONENT_COUNT>
1

> <PUBCHEM_CACTVS_TAUTO_COUNT>
-1

> <PUBCHEM_COORDINATE_TYPE>
1
5
255

> <PUBCHEM_BONDANNOTATIONS>
1  25  8
1  28  8
10  30  8
10  33  8
11  30  8
25  26  8
6  11  8
6  33  8
9  26  8
9  28  8

$$$$
