25071385
  -OEChem-09292322002D

 58 61  0     0  0  0  0  0  0999 V2000
   10.6603    1.1416    0.0000 O   0  0  0  0  0  0  0  0  0  0  0  0
    2.8660    0.6416    0.0000 O   0  0  0  0  0  0  0  0  0  0  0  0
   15.4937    2.1031    0.0000 O   0  0  0  0  0  0  0  0  0  0  0  0
    6.3301    0.6416    0.0000 N   0  0  0  0  0  0  0  0  0  0  0  0
    4.5981   -0.3584    0.0000 N   0  0  0  0  0  0  0  0  0  0  0  0
   13.2583   -0.3584    0.0000 N   0  0  0  0  0  0  0  0  0  0  0  0
   14.2045   -0.6631    0.0000 N   0  0  0  0  0  0  0  0  0  0  0  0
    5.4641    1.1416    0.0000 C   0  0  0  0  0  0  0  0  0  0  0  0
    6.3301   -0.3584    0.0000 C   0  0  0  0  0  0  0  0  0  0  0  0
    4.5981    0.6416    0.0000 C   0  0  0  0  0  0  0  0  0  0  0  0
    5.4641   -0.8584    0.0000 C   0  0  0  0  0  0  0  0  0  0  0  0
    7.1962    1.1416    0.0000 C   0  0  0  0  0  0  0  0  0  0  0  0
    8.0622    0.6416    0.0000 C   0  0  0  0  0  0  0  0  0  0  0  0
    3.7320   -0.8584    0.0000 C   0  0  0  0  0  0  0  0  0  0  0  0
    8.9282    1.1416    0.0000 C   0  0  0  0  0  0  0  0  0  0  0  0
    9.7942    0.6416    0.0000 C   0  0  0  0  0  0  0  0  0  0  0  0
    2.8660   -0.3584    0.0000 C   0  0  0  0  0  0  0  0  0  0  0  0
    3.7320   -1.8584    0.0000 C   0  0  0  0  0  0  0  0  0  0  0  0
    2.0000   -0.8584    0.0000 C   0  0  0  0  0  0  0  0  0  0  0  0
    2.8660   -2.3584    0.0000 C   0  0  0  0  0  0  0  0  0  0  0  0
    2.0000   -1.8584    0.0000 C   0  0  0  0  0  0  0  0  0  0  0  0
   11.5263    0.6416    0.0000 C   0  0  0  0  0  0  0  0  0  0  0  0
   12.3923    1.1416    0.0000 C   0  0  0  0  0  0  0  0  0  0  0  0
   13.2583    0.6416    0.0000 C   0  0  0  0  0  0  0  0  0  0  0  0
   11.5263   -0.3584    0.0000 C   0  0  0  0  0  0  0  0  0  0  0  0
    2.0000    1.1416    0.0000 C   0  0  0  0  0  0  0  0  0  0  0  0
   12.3923   -0.8584    0.0000 C   0  0  0  0  0  0  0  0  0  0  0  0
   14.2045    0.9464    0.0000 C   0  0  0  0  0  0  0  0  0  0  0  0
   14.7882    0.1416    0.0000 C   0  0  0  0  0  0  0  0  0  0  0  0
   14.5152    1.8969    0.0000 C   0  0  0  0  0  0  0  0  0  0  0  0
    5.8626    1.6166    0.0000 H   0  0  0  0  0  0  0  0  0  0  0  0
    5.0656    1.6166    0.0000 H   0  0  0  0  0  0  0  0  0  0  0  0
    6.5422   -0.9410    0.0000 H   0  0  0  0  0  0  0  0  0  0  0  0
    6.9407   -0.2507    0.0000 H   0  0  0  0  0  0  0  0  0  0  0  0
    4.3860    1.2242    0.0000 H   0  0  0  0  0  0  0  0  0  0  0  0
    3.9875    0.5340    0.0000 H   0  0  0  0  0  0  0  0  0  0  0  0
    5.0656   -1.3333    0.0000 H   0  0  0  0  0  0  0  0  0  0  0  0
    5.8626   -1.3333    0.0000 H   0  0  0  0  0  0  0  0  0  0  0  0
    7.5947    1.6166    0.0000 H   0  0  0  0  0  0  0  0  0  0  0  0
    6.7976    1.6166    0.0000 H   0  0  0  0  0  0  0  0  0  0  0  0
    7.6636    0.1667    0.0000 H   0  0  0  0  0  0  0  0  0  0  0  0
    8.4607    0.1667    0.0000 H   0  0  0  0  0  0  0  0  0  0  0  0
    9.3267    1.6166    0.0000 H   0  0  0  0  0  0  0  0  0  0  0  0
    8.5297    1.6166    0.0000 H   0  0  0  0  0  0  0  0  0  0  0  0
    9.3957    0.1667    0.0000 H   0  0  0  0  0  0  0  0  0  0  0  0
   10.1928    0.1667    0.0000 H   0  0  0  0  0  0  0  0  0  0  0  0
    4.2690   -2.1684    0.0000 H   0  0  0  0  0  0  0  0  0  0  0  0
    1.4631   -0.5484    0.0000 H   0  0  0  0  0  0  0  0  0  0  0  0
    2.8660   -2.9784    0.0000 H   0  0  0  0  0  0  0  0  0  0  0  0
    1.4631   -2.1684    0.0000 H   0  0  0  0  0  0  0  0  0  0  0  0
   12.3923    1.7616    0.0000 H   0  0  0  0  0  0  0  0  0  0  0  0
   10.9893   -0.6684    0.0000 H   0  0  0  0  0  0  0  0  0  0  0  0
    2.3100    1.6786    0.0000 H   0  0  0  0  0  0  0  0  0  0  0  0
    1.4631    1.4516    0.0000 H   0  0  0  0  0  0  0  0  0  0  0  0
    1.6900    0.6047    0.0000 H   0  0  0  0  0  0  0  0  0  0  0  0
   12.3923   -1.4784    0.0000 H   0  0  0  0  0  0  0  0  0  0  0  0
   15.4082    0.1416    0.0000 H   0  0  0  0  0  0  0  0  0  0  0  0
   14.1011    2.3584    0.0000 H   0  0  0  0  0  0  0  0  0  0  0  0
  1 16  1  0  0  0  0
  1 22  1  0  0  0  0
  2 17  1  0  0  0  0
  2 26  1  0  0  0  0
  3 30  2  0  0  0  0
  4  8  1  0  0  0  0
  4  9  1  0  0  0  0
  4 12  1  0  0  0  0
  5 10  1  0  0  0  0
  5 11  1  0  0  0  0
  5 14  1  0  0  0  0
  6  7  1  0  0  0  0
  6 24  1  0  0  0  0
  6 27  1  0  0  0  0
  7 29  2  0  0  0  0
  8 10  1  0  0  0  0
  8 31  1  0  0  0  0
  8 32  1  0  0  0  0
  9 11  1  0  0  0  0
  9 33  1  0  0  0  0
  9 34  1  0  0  0  0
 10 35  1  0  0  0  0
 10 36  1  0  0  0  0
 11 37  1  0  0  0  0
 11 38  1  0  0  0  0
 12 13  1  0  0  0  0
 12 39  1  0  0  0  0
 12 40  1  0  0  0  0
 13 15  1  0  0  0  0
 13 41  1  0  0  0  0
 13 42  1  0  0  0  0
 14 17  1  0  0  0  0
 14 18  2  0  0  0  0
 15 16  1  0  0  0  0
 15 43  1  0  0  0  0
 15 44  1  0  0  0  0
 16 45  1  0  0  0  0
 16 46  1  0  0  0  0
 17 19  2  0  0  0  0
 18 20  1  0  0  0  0
 18 47  1  0  0  0  0
 19 21  1  0  0  0  0
 19 48  1  0  0  0  0
 20 21  2  0  0  0  0
 20 49  1  0  0  0  0
 21 50  1  0  0  0  0
 22 23  2  0  0  0  0
 22 25  1  0  0  0  0
 23 24  1  0  0  0  0
 23 51  1  0  0  0  0
 24 28  2  0  0  0  0
 25 27  2  0  0  0  0
 25 52  1  0  0  0  0
 26 53  1  0  0  0  0
 26 54  1  0  0  0  0
 26 55  1  0  0  0  0
 27 56  1  0  0  0  0
 28 29  1  0  0  0  0
 28 30  1  0  0  0  0
 29 57  1  0  0  0  0
 30 58  1  0  0  0  0
M  END
> <PUBCHEM_COMPOUND_CID>
25071385

> <PUBCHEM_COMPOUND_CANONICALIZED>
1

> <PUBCHEM_CACTVS_COMPLEXITY>
529

> <PUBCHEM_CACTVS_HBOND_ACCEPTOR>
6

> <PUBCHEM_CACTVS_HBOND_DONOR>
0

> <PUBCHEM_CACTVS_ROTATABLE_BOND>
9

> <PUBCHEM_CACTVS_SUBSKEYS>
AAADceB7sAAAAAAAAAAAAAAAAAAAAWAAAAA8WIAAAAAAAFgB8AAAHgAIAAAADAzhngY+xrMIFACqAzx3xACSjCA1oiAY2CE/bNgOZvrE9duXvajmyBnY6ce43EDMAAAAAAAAEAAAAAAAAAAgAAAAAAAAAA==

> <PUBCHEM_IUPAC_OPENEYE_NAME>
5-[4-[4-(2-methoxyphenyl)piperazin-1-yl]butoxy]pyrazolo[1,5-a]pyridine-3-carbaldehyde

> <PUBCHEM_IUPAC_CAS_NAME>
5-[4-[4-(2-methoxyphenyl)-1-piperazinyl]butoxy]-3-pyrazolo[1,5-a]pyridinecarboxaldehyde

> <PUBCHEM_IUPAC_NAME_MARKUP>
5-[4-[4-(2-methoxyphenyl)piperazin-1-yl]butoxy]pyrazolo[1,5-a]pyridine-3-carbaldehyde

> <PUBCHEM_IUPAC_NAME>
5-[4-[4-(2-methoxyphenyl)piperazin-1-yl]butoxy]pyrazolo[1,5-a]pyridine-3-carbaldehyde

> <PUBCHEM_IUPAC_SYSTEMATIC_NAME>
5-[4-[4-(2-methoxyphenyl)piperazin-1-yl]butoxy]pyrazolo[1,5-a]pyridine-3-carbaldehyde

> <PUBCHEM_IUPAC_TRADITIONAL_NAME>
5-[4-[4-(2-methoxyphenyl)piperazino]butoxy]pyrazolo[1,5-a]pyridine-3-carbaldehyde

> <PUBCHEM_IUPAC_INCHI>
InChI=1S/C23H28N4O3/c1-29-23-7-3-2-6-21(23)26-13-11-25(12-14-26)9-4-5-15-30-20-8-10-27-22(16-20)19(18-28)17-24-27/h2-3,6-8,10,16-18H,4-5,9,11-15H2,1H3

> <PUBCHEM_IUPAC_INCHIKEY>
NXGXODYDGLKSAM-UHFFFAOYSA-N

> <PUBCHEM_XLOGP3_AA>
2.8

> <PUBCHEM_EXACT_MASS>
408.21614077

> <PUBCHEM_MOLECULAR_FORMULA>
C23H28N4O3

> <PUBCHEM_MOLECULAR_WEIGHT>
408.5

> <PUBCHEM_OPENEYE_CAN_SMILES>
COC1=CC=CC=C1N2CCN(CC2)CCCCOC3=CC4=C(C=NN4C=C3)C=O

> <PUBCHEM_OPENEYE_ISO_SMILES>
COC1=CC=CC=C1N2CCN(CC2)CCCCOC3=CC4=C(C=NN4C=C3)C=O

> <PUBCHEM_CACTVS_TPSA>
59.3

> <PUBCHEM_MONOISOTOPIC_WEIGHT>
408.21614077

> <PUBCHEM_TOTAL_CHARGE>
0

> <PUBCHEM_HEAVY_ATOM_COUNT>
30

> <PUBCHEM_ATOM_DEF_STEREO_COUNT>
0

> <PUBCHEM_ATOM_UDEF_STEREO_COUNT>
0

> <PUBCHEM_BOND_DEF_STEREO_COUNT>
0

> <PUBCHEM_BOND_UDEF_STEREO_COUNT>
0

> <PUBCHEM_ISOTOPIC_ATOM_COUNT>
0

> <PUBCHEM_COMPONENT_COUNT>
1

> <PUBCHEM_CACTVS_TAUTO_COUNT>
-1

> <PUBCHEM_COORDINATE_TYPE>
1
5
255

> <PUBCHEM_BONDANNOTATIONS>
14  17  8
14  18  8
17  19  8
18  20  8
19  21  8
20  21  8
22  23  8
22  25  8
23  24  8
24  28  8
25  27  8
28  29  8
6  24  8
6  27  8
6  7  8
7  29  8

$$$$
