42609932
  -OEChem-09292322232D

 66 69  0     0  0  0  0  0  0999 V2000
    2.0000   -6.0194    0.0000 F   0  0  0  0  0  0  0  0  0  0  0  0
    4.5981   -5.5194    0.0000 O   0  0  0  0  0  0  0  0  0  0  0  0
    9.7942    1.4806    0.0000 O   0  0  0  0  0  0  0  0  0  0  0  0
    6.3301   -2.5194    0.0000 N   0  0  0  0  0  0  0  0  0  0  0  0
    6.3301   -4.5194    0.0000 N   0  0  0  0  0  0  0  0  0  0  0  0
    8.0622    1.4806    0.0000 N   0  0  0  0  0  0  0  0  0  0  0  0
    8.9282    5.9806    0.0000 N   0  0  0  0  0  0  0  0  0  0  0  0
    8.4282    7.5194    0.0000 N   0  0  0  0  0  0  0  0  0  0  0  0
    7.1962   -3.0194    0.0000 C   0  0  0  0  0  0  0  0  0  0  0  0
    5.4641   -3.0194    0.0000 C   0  0  0  0  0  0  0  0  0  0  0  0
    7.1962   -4.0194    0.0000 C   0  0  0  0  0  0  0  0  0  0  0  0
    5.4641   -4.0194    0.0000 C   0  0  0  0  0  0  0  0  0  0  0  0
    6.3301   -1.5194    0.0000 C   0  0  0  0  0  0  0  0  0  0  0  0
    7.1962   -1.0194    0.0000 C   0  0  0  0  0  0  0  0  0  0  0  0
    6.3301   -5.5194    0.0000 C   0  0  0  0  0  0  0  0  0  0  0  0
    7.1962   -0.0194    0.0000 C   0  0  0  0  0  0  0  0  0  0  0  0
    8.0622    0.4806    0.0000 C   0  0  0  0  0  0  0  0  0  0  0  0
    5.4641   -6.0194    0.0000 C   0  0  0  0  0  0  0  0  0  0  0  0
    7.1962   -6.0194    0.0000 C   0  0  0  0  0  0  0  0  0  0  0  0
    5.4641   -7.0194    0.0000 C   0  0  0  0  0  0  0  0  0  0  0  0
    7.1962   -7.0194    0.0000 C   0  0  0  0  0  0  0  0  0  0  0  0
    6.3301   -7.5194    0.0000 C   0  0  0  0  0  0  0  0  0  0  0  0
    8.9282    1.9806    0.0000 C   0  0  0  0  0  0  0  0  0  0  0  0
    3.7320   -6.0194    0.0000 C   0  0  0  0  0  0  0  0  0  0  0  0
    8.9282    2.9806    0.0000 C   0  0  0  0  0  0  0  0  0  0  0  0
    2.8660   -5.5194    0.0000 C   0  0  0  0  0  0  0  0  0  0  0  0
    9.7942    3.4806    0.0000 C   0  0  0  0  0  0  0  0  0  0  0  0
    8.0622    3.4806    0.0000 C   0  0  0  0  0  0  0  0  0  0  0  0
    8.9282    4.9806    0.0000 C   0  0  0  0  0  0  0  0  0  0  0  0
    9.7942    4.4806    0.0000 C   0  0  0  0  0  0  0  0  0  0  0  0
    8.0622    4.4806    0.0000 C   0  0  0  0  0  0  0  0  0  0  0  0
    9.7372    6.5684    0.0000 C   0  0  0  0  0  0  0  0  0  0  0  0
    8.1192    6.5684    0.0000 C   0  0  0  0  0  0  0  0  0  0  0  0
    9.4282    7.5194    0.0000 C   0  0  0  0  0  0  0  0  0  0  0  0
    7.8067   -3.1271    0.0000 H   0  0  0  0  0  0  0  0  0  0  0  0
    7.4082   -2.4368    0.0000 H   0  0  0  0  0  0  0  0  0  0  0  0
    5.2520   -2.4368    0.0000 H   0  0  0  0  0  0  0  0  0  0  0  0
    4.8535   -3.1271    0.0000 H   0  0  0  0  0  0  0  0  0  0  0  0
    7.4082   -4.6020    0.0000 H   0  0  0  0  0  0  0  0  0  0  0  0
    7.8067   -3.9118    0.0000 H   0  0  0  0  0  0  0  0  0  0  0  0
    4.8535   -3.9118    0.0000 H   0  0  0  0  0  0  0  0  0  0  0  0
    5.2520   -4.6020    0.0000 H   0  0  0  0  0  0  0  0  0  0  0  0
    6.1181   -0.9368    0.0000 H   0  0  0  0  0  0  0  0  0  0  0  0
    5.7196   -1.6271    0.0000 H   0  0  0  0  0  0  0  0  0  0  0  0
    7.4082   -1.6020    0.0000 H   0  0  0  0  0  0  0  0  0  0  0  0
    7.8067   -0.9118    0.0000 H   0  0  0  0  0  0  0  0  0  0  0  0
    6.9841    0.5632    0.0000 H   0  0  0  0  0  0  0  0  0  0  0  0
    6.5856   -0.1271    0.0000 H   0  0  0  0  0  0  0  0  0  0  0  0
    8.2742   -0.1020    0.0000 H   0  0  0  0  0  0  0  0  0  0  0  0
    8.6728    0.5882    0.0000 H   0  0  0  0  0  0  0  0  0  0  0  0
    7.7331   -5.7094    0.0000 H   0  0  0  0  0  0  0  0  0  0  0  0
    4.9272   -7.3294    0.0000 H   0  0  0  0  0  0  0  0  0  0  0  0
    7.7331   -7.3294    0.0000 H   0  0  0  0  0  0  0  0  0  0  0  0
    7.5252    1.7906    0.0000 H   0  0  0  0  0  0  0  0  0  0  0  0
    6.3301   -8.1394    0.0000 H   0  0  0  0  0  0  0  0  0  0  0  0
    3.3335   -6.4944    0.0000 H   0  0  0  0  0  0  0  0  0  0  0  0
    4.1306   -6.4944    0.0000 H   0  0  0  0  0  0  0  0  0  0  0  0
    3.2646   -5.0445    0.0000 H   0  0  0  0  0  0  0  0  0  0  0  0
    2.4675   -5.0445    0.0000 H   0  0  0  0  0  0  0  0  0  0  0  0
   10.3312    3.1706    0.0000 H   0  0  0  0  0  0  0  0  0  0  0  0
    7.5252    3.1706    0.0000 H   0  0  0  0  0  0  0  0  0  0  0  0
   10.3312    4.7906    0.0000 H   0  0  0  0  0  0  0  0  0  0  0  0
    7.5252    4.7906    0.0000 H   0  0  0  0  0  0  0  0  0  0  0  0
   10.3269    6.3768    0.0000 H   0  0  0  0  0  0  0  0  0  0  0  0
    7.5295    6.3768    0.0000 H   0  0  0  0  0  0  0  0  0  0  0  0
    9.7926    8.0210    0.0000 H   0  0  0  0  0  0  0  0  0  0  0  0
  1 26  1  0  0  0  0
  2 18  1  0  0  0  0
  2 24  1  0  0  0  0
  3 23  2  0  0  0  0
  4  9  1  0  0  0  0
  4 10  1  0  0  0  0
  4 13  1  0  0  0  0
  5 11  1  0  0  0  0
  5 12  1  0  0  0  0
  5 15  1  0  0  0  0
  6 17  1  0  0  0  0
  6 23  1  0  0  0  0
  6 54  1  0  0  0  0
  7 29  1  0  0  0  0
  7 32  1  0  0  0  0
  7 33  1  0  0  0  0
  8 33  2  0  0  0  0
  8 34  1  0  0  0  0
  9 11  1  0  0  0  0
  9 35  1  0  0  0  0
  9 36  1  0  0  0  0
 10 12  1  0  0  0  0
 10 37  1  0  0  0  0
 10 38  1  0  0  0  0
 11 39  1  0  0  0  0
 11 40  1  0  0  0  0
 12 41  1  0  0  0  0
 12 42  1  0  0  0  0
 13 14  1  0  0  0  0
 13 43  1  0  0  0  0
 13 44  1  0  0  0  0
 14 16  1  0  0  0  0
 14 45  1  0  0  0  0
 14 46  1  0  0  0  0
 15 18  1  0  0  0  0
 15 19  2  0  0  0  0
 16 17  1  0  0  0  0
 16 47  1  0  0  0  0
 16 48  1  0  0  0  0
 17 49  1  0  0  0  0
 17 50  1  0  0  0  0
 18 20  2  0  0  0  0
 19 21  1  0  0  0  0
 19 51  1  0  0  0  0
 20 22  1  0  0  0  0
 20 52  1  0  0  0  0
 21 22  2  0  0  0  0
 21 53  1  0  0  0  0
 22 55  1  0  0  0  0
 23 25  1  0  0  0  0
 24 26  1  0  0  0  0
 24 56  1  0  0  0  0
 24 57  1  0  0  0  0
 25 27  2  0  0  0  0
 25 28  1  0  0  0  0
 26 58  1  0  0  0  0
 26 59  1  0  0  0  0
 27 30  1  0  0  0  0
 27 60  1  0  0  0  0
 28 31  2  0  0  0  0
 28 61  1  0  0  0  0
 29 30  2  0  0  0  0
 29 31  1  0  0  0  0
 30 62  1  0  0  0  0
 31 63  1  0  0  0  0
 32 34  2  0  0  0  0
 32 64  1  0  0  0  0
 33 65  1  0  0  0  0
 34 66  1  0  0  0  0
M  END
> <PUBCHEM_COMPOUND_CID>
42609932

> <PUBCHEM_COMPOUND_CANONICALIZED>
1

> <PUBCHEM_CACTVS_COMPLEXITY>
596

> <PUBCHEM_CACTVS_HBOND_ACCEPTOR>
6

> <PUBCHEM_CACTVS_HBOND_DONOR>
1

> <PUBCHEM_CACTVS_ROTATABLE_BOND>
11

> <PUBCHEM_CACTVS_SUBSKEYS>
AAADcfB7sQAAAAAAAAAAAAAAAAAAAWAAAAA8YIAAAAAAAAAB0AAAHwAQAAAADAzhmgY91pfMFACoAjV3dACCiC01MqAJyIEffMiObnLEvZuXOSjs1hPY6aeYyQCeCAAAAAAAEAAQAAAAAAAgAAAAAAAAAA==

> <PUBCHEM_IUPAC_OPENEYE_NAME>
N-[4-[4-[2-(2-fluoroethoxy)phenyl]piperazin-1-yl]butyl]-4-imidazol-1-yl-benzamide

> <PUBCHEM_IUPAC_CAS_NAME>
N-[4-[4-[2-(2-fluoroethoxy)phenyl]-1-piperazinyl]butyl]-4-(1-imidazolyl)benzamide

> <PUBCHEM_IUPAC_NAME_MARKUP>
<I>N</I>-[4-[4-[2-(2-fluoroethoxy)phenyl]piperazin-1-yl]butyl]-4-imidazol-1-ylbenzamide

> <PUBCHEM_IUPAC_NAME>
N-[4-[4-[2-(2-fluoroethoxy)phenyl]piperazin-1-yl]butyl]-4-imidazol-1-ylbenzamide

> <PUBCHEM_IUPAC_SYSTEMATIC_NAME>
N-[4-[4-[2-(2-fluoranylethoxy)phenyl]piperazin-1-yl]butyl]-4-imidazol-1-yl-benzamide

> <PUBCHEM_IUPAC_TRADITIONAL_NAME>
N-[4-[4-[2-(2-fluoroethoxy)phenyl]piperazino]butyl]-4-imidazol-1-yl-benzamide

> <PUBCHEM_IUPAC_INCHI>
InChI=1S/C26H32FN5O2/c27-11-20-34-25-6-2-1-5-24(25)31-18-16-30(17-19-31)14-4-3-12-29-26(33)22-7-9-23(10-8-22)32-15-13-28-21-32/h1-2,5-10,13,15,21H,3-4,11-12,14,16-20H2,(H,29,33)

> <PUBCHEM_IUPAC_INCHIKEY>
UILMTLNPQHNZIS-UHFFFAOYSA-N

> <PUBCHEM_XLOGP3_AA>
3.6

> <PUBCHEM_EXACT_MASS>
465.25400344

> <PUBCHEM_MOLECULAR_FORMULA>
C26H32FN5O2

> <PUBCHEM_MOLECULAR_WEIGHT>
465.6

> <PUBCHEM_OPENEYE_CAN_SMILES>
C1CN(CCN1CCCCNC(=O)C2=CC=C(C=C2)N3C=CN=C3)C4=CC=CC=C4OCCF

> <PUBCHEM_OPENEYE_ISO_SMILES>
C1CN(CCN1CCCCNC(=O)C2=CC=C(C=C2)N3C=CN=C3)C4=CC=CC=C4OCCF

> <PUBCHEM_CACTVS_TPSA>
62.6

> <PUBCHEM_MONOISOTOPIC_WEIGHT>
465.25400344

> <PUBCHEM_TOTAL_CHARGE>
0

> <PUBCHEM_HEAVY_ATOM_COUNT>
34

> <PUBCHEM_ATOM_DEF_STEREO_COUNT>
0

> <PUBCHEM_ATOM_UDEF_STEREO_COUNT>
0

> <PUBCHEM_BOND_DEF_STEREO_COUNT>
0

> <PUBCHEM_BOND_UDEF_STEREO_COUNT>
0

> <PUBCHEM_ISOTOPIC_ATOM_COUNT>
0

> <PUBCHEM_COMPONENT_COUNT>
1

> <PUBCHEM_CACTVS_TAUTO_COUNT>
-1

> <PUBCHEM_COORDINATE_TYPE>
1
5
255

> <PUBCHEM_BONDANNOTATIONS>
15  18  8
15  19  8
18  20  8
19  21  8
20  22  8
21  22  8
25  27  8
25  28  8
27  30  8
28  31  8
29  30  8
29  31  8
32  34  8
7  32  8
7  33  8
8  33  8
8  34  8

$$$$
