11568232
  -OEChem-09292322232D

 63 66  0     0  0  0  0  0  0999 V2000
    2.8660   -5.5194    0.0000 O   0  0  0  0  0  0  0  0  0  0  0  0
    8.0622    1.4806    0.0000 O   0  0  0  0  0  0  0  0  0  0  0  0
    4.5981   -2.5194    0.0000 N   0  0  0  0  0  0  0  0  0  0  0  0
    4.5981   -4.5194    0.0000 N   0  0  0  0  0  0  0  0  0  0  0  0
    6.3301    1.4806    0.0000 N   0  0  0  0  0  0  0  0  0  0  0  0
    7.1962    5.9806    0.0000 N   0  0  0  0  0  0  0  0  0  0  0  0
    6.6962    7.5194    0.0000 N   0  0  0  0  0  0  0  0  0  0  0  0
    3.7320   -3.0194    0.0000 C   0  0  0  0  0  0  0  0  0  0  0  0
    5.4641   -3.0194    0.0000 C   0  0  0  0  0  0  0  0  0  0  0  0
    3.7320   -4.0194    0.0000 C   0  0  0  0  0  0  0  0  0  0  0  0
    5.4641   -4.0194    0.0000 C   0  0  0  0  0  0  0  0  0  0  0  0
    4.5981   -1.5194    0.0000 C   0  0  0  0  0  0  0  0  0  0  0  0
    5.4641   -1.0194    0.0000 C   0  0  0  0  0  0  0  0  0  0  0  0
    4.5981   -5.5194    0.0000 C   0  0  0  0  0  0  0  0  0  0  0  0
    5.4641   -0.0194    0.0000 C   0  0  0  0  0  0  0  0  0  0  0  0
    6.3301    0.4806    0.0000 C   0  0  0  0  0  0  0  0  0  0  0  0
    3.7320   -6.0194    0.0000 C   0  0  0  0  0  0  0  0  0  0  0  0
    5.4641   -6.0194    0.0000 C   0  0  0  0  0  0  0  0  0  0  0  0
    3.7320   -7.0194    0.0000 C   0  0  0  0  0  0  0  0  0  0  0  0
    5.4641   -7.0194    0.0000 C   0  0  0  0  0  0  0  0  0  0  0  0
    4.5981   -7.5194    0.0000 C   0  0  0  0  0  0  0  0  0  0  0  0
    7.1962    1.9806    0.0000 C   0  0  0  0  0  0  0  0  0  0  0  0
    7.1962    2.9806    0.0000 C   0  0  0  0  0  0  0  0  0  0  0  0
    2.0000   -6.0194    0.0000 C   0  0  0  0  0  0  0  0  0  0  0  0
    6.3301    3.4806    0.0000 C   0  0  0  0  0  0  0  0  0  0  0  0
    8.0622    3.4806    0.0000 C   0  0  0  0  0  0  0  0  0  0  0  0
    7.1962    4.9806    0.0000 C   0  0  0  0  0  0  0  0  0  0  0  0
    6.3301    4.4806    0.0000 C   0  0  0  0  0  0  0  0  0  0  0  0
    8.0622    4.4806    0.0000 C   0  0  0  0  0  0  0  0  0  0  0  0
    8.0052    6.5684    0.0000 C   0  0  0  0  0  0  0  0  0  0  0  0
    6.3871    6.5684    0.0000 C   0  0  0  0  0  0  0  0  0  0  0  0
    7.6962    7.5194    0.0000 C   0  0  0  0  0  0  0  0  0  0  0  0
    3.5200   -2.4368    0.0000 H   0  0  0  0  0  0  0  0  0  0  0  0
    3.1215   -3.1271    0.0000 H   0  0  0  0  0  0  0  0  0  0  0  0
    6.0747   -3.1271    0.0000 H   0  0  0  0  0  0  0  0  0  0  0  0
    5.6762   -2.4368    0.0000 H   0  0  0  0  0  0  0  0  0  0  0  0
    3.1215   -3.9118    0.0000 H   0  0  0  0  0  0  0  0  0  0  0  0
    3.5200   -4.6020    0.0000 H   0  0  0  0  0  0  0  0  0  0  0  0
    5.6762   -4.6020    0.0000 H   0  0  0  0  0  0  0  0  0  0  0  0
    6.0747   -3.9118    0.0000 H   0  0  0  0  0  0  0  0  0  0  0  0
    4.3860   -0.9368    0.0000 H   0  0  0  0  0  0  0  0  0  0  0  0
    3.9875   -1.6271    0.0000 H   0  0  0  0  0  0  0  0  0  0  0  0
    5.6762   -1.6020    0.0000 H   0  0  0  0  0  0  0  0  0  0  0  0
    6.0747   -0.9118    0.0000 H   0  0  0  0  0  0  0  0  0  0  0  0
    5.2520    0.5632    0.0000 H   0  0  0  0  0  0  0  0  0  0  0  0
    4.8535   -0.1271    0.0000 H   0  0  0  0  0  0  0  0  0  0  0  0
    6.5422   -0.1020    0.0000 H   0  0  0  0  0  0  0  0  0  0  0  0
    6.9407    0.5882    0.0000 H   0  0  0  0  0  0  0  0  0  0  0  0
    6.0010   -5.7094    0.0000 H   0  0  0  0  0  0  0  0  0  0  0  0
    3.1951   -7.3294    0.0000 H   0  0  0  0  0  0  0  0  0  0  0  0
    5.7932    1.7906    0.0000 H   0  0  0  0  0  0  0  0  0  0  0  0
    6.0010   -7.3294    0.0000 H   0  0  0  0  0  0  0  0  0  0  0  0
    4.5981   -8.1394    0.0000 H   0  0  0  0  0  0  0  0  0  0  0  0
    1.6900   -5.4825    0.0000 H   0  0  0  0  0  0  0  0  0  0  0  0
    1.4631   -6.3294    0.0000 H   0  0  0  0  0  0  0  0  0  0  0  0
    2.3100   -6.5564    0.0000 H   0  0  0  0  0  0  0  0  0  0  0  0
    5.7932    3.1706    0.0000 H   0  0  0  0  0  0  0  0  0  0  0  0
    8.5991    3.1706    0.0000 H   0  0  0  0  0  0  0  0  0  0  0  0
    5.7932    4.7906    0.0000 H   0  0  0  0  0  0  0  0  0  0  0  0
    8.5991    4.7906    0.0000 H   0  0  0  0  0  0  0  0  0  0  0  0
    8.5948    6.3768    0.0000 H   0  0  0  0  0  0  0  0  0  0  0  0
    5.7975    6.3768    0.0000 H   0  0  0  0  0  0  0  0  0  0  0  0
    8.0606    8.0210    0.0000 H   0  0  0  0  0  0  0  0  0  0  0  0
  1 17  1  0  0  0  0
  1 24  1  0  0  0  0
  2 22  2  0  0  0  0
  3  8  1  0  0  0  0
  3  9  1  0  0  0  0
  3 12  1  0  0  0  0
  4 10  1  0  0  0  0
  4 11  1  0  0  0  0
  4 14  1  0  0  0  0
  5 16  1  0  0  0  0
  5 22  1  0  0  0  0
  5 51  1  0  0  0  0
  6 27  1  0  0  0  0
  6 30  1  0  0  0  0
  6 31  1  0  0  0  0
  7 31  2  0  0  0  0
  7 32  1  0  0  0  0
  8 10  1  0  0  0  0
  8 33  1  0  0  0  0
  8 34  1  0  0  0  0
  9 11  1  0  0  0  0
  9 35  1  0  0  0  0
  9 36  1  0  0  0  0
 10 37  1  0  0  0  0
 10 38  1  0  0  0  0
 11 39  1  0  0  0  0
 11 40  1  0  0  0  0
 12 13  1  0  0  0  0
 12 41  1  0  0  0  0
 12 42  1  0  0  0  0
 13 15  1  0  0  0  0
 13 43  1  0  0  0  0
 13 44  1  0  0  0  0
 14 17  1  0  0  0  0
 14 18  2  0  0  0  0
 15 16  1  0  0  0  0
 15 45  1  0  0  0  0
 15 46  1  0  0  0  0
 16 47  1  0  0  0  0
 16 48  1  0  0  0  0
 17 19  2  0  0  0  0
 18 20  1  0  0  0  0
 18 49  1  0  0  0  0
 19 21  1  0  0  0  0
 19 50  1  0  0  0  0
 20 21  2  0  0  0  0
 20 52  1  0  0  0  0
 21 53  1  0  0  0  0
 22 23  1  0  0  0  0
 23 25  2  0  0  0  0
 23 26  1  0  0  0  0
 24 54  1  0  0  0  0
 24 55  1  0  0  0  0
 24 56  1  0  0  0  0
 25 28  1  0  0  0  0
 25 57  1  0  0  0  0
 26 29  2  0  0  0  0
 26 58  1  0  0  0  0
 27 28  2  0  0  0  0
 27 29  1  0  0  0  0
 28 59  1  0  0  0  0
 29 60  1  0  0  0  0
 30 32  2  0  0  0  0
 30 61  1  0  0  0  0
 31 62  1  0  0  0  0
 32 63  1  0  0  0  0
M  END
> <PUBCHEM_COMPOUND_CID>
11568232

> <PUBCHEM_COMPOUND_CANONICALIZED>
1

> <PUBCHEM_CACTVS_COMPLEXITY>
561

> <PUBCHEM_CACTVS_HBOND_ACCEPTOR>
5

> <PUBCHEM_CACTVS_HBOND_DONOR>
1

> <PUBCHEM_CACTVS_ROTATABLE_BOND>
9

> <PUBCHEM_CACTVS_SUBSKEYS>
AAADceB7sAAAAAAAAAAAAAAAAAAAAWAAAAA8YIAAAAAAAAAB0AAAHgAQAAAADAzBmgY/1pfMFACoAjV3dACCiC01MqAJyIEffMiObnLEvZuVMShs1hPY6aeYyQCeCAAAAAAAEAAQAAAAAAAgAAAAAAAAAA==

> <PUBCHEM_IUPAC_OPENEYE_NAME>
4-imidazol-1-yl-N-[4-[4-(2-methoxyphenyl)piperazin-1-yl]butyl]benzamide

> <PUBCHEM_IUPAC_CAS_NAME>
4-(1-imidazolyl)-N-[4-[4-(2-methoxyphenyl)-1-piperazinyl]butyl]benzamide

> <PUBCHEM_IUPAC_NAME_MARKUP>
4-imidazol-1-yl-<I>N</I>-[4-[4-(2-methoxyphenyl)piperazin-1-yl]butyl]benzamide

> <PUBCHEM_IUPAC_NAME>
4-imidazol-1-yl-N-[4-[4-(2-methoxyphenyl)piperazin-1-yl]butyl]benzamide

> <PUBCHEM_IUPAC_SYSTEMATIC_NAME>
4-imidazol-1-yl-N-[4-[4-(2-methoxyphenyl)piperazin-1-yl]butyl]benzamide

> <PUBCHEM_IUPAC_TRADITIONAL_NAME>
4-imidazol-1-yl-N-[4-[4-(2-methoxyphenyl)piperazino]butyl]benzamide

> <PUBCHEM_IUPAC_INCHI>
InChI=1S/C25H31N5O2/c1-32-24-7-3-2-6-23(24)29-18-16-28(17-19-29)14-5-4-12-27-25(31)21-8-10-22(11-9-21)30-15-13-26-20-30/h2-3,6-11,13,15,20H,4-5,12,14,16-19H2,1H3,(H,27,31)

> <PUBCHEM_IUPAC_INCHIKEY>
NTASTGHPPLINPW-UHFFFAOYSA-N

> <PUBCHEM_XLOGP3_AA>
3.3

> <PUBCHEM_EXACT_MASS>
433.24777525

> <PUBCHEM_MOLECULAR_FORMULA>
C25H31N5O2

> <PUBCHEM_MOLECULAR_WEIGHT>
433.5

> <PUBCHEM_OPENEYE_CAN_SMILES>
COC1=CC=CC=C1N2CCN(CC2)CCCCNC(=O)C3=CC=C(C=C3)N4C=CN=C4

> <PUBCHEM_OPENEYE_ISO_SMILES>
COC1=CC=CC=C1N2CCN(CC2)CCCCNC(=O)C3=CC=C(C=C3)N4C=CN=C4

> <PUBCHEM_CACTVS_TPSA>
62.6

> <PUBCHEM_MONOISOTOPIC_WEIGHT>
433.24777525

> <PUBCHEM_TOTAL_CHARGE>
0

> <PUBCHEM_HEAVY_ATOM_COUNT>
32

> <PUBCHEM_ATOM_DEF_STEREO_COUNT>
0

> <PUBCHEM_ATOM_UDEF_STEREO_COUNT>
0

> <PUBCHEM_BOND_DEF_STEREO_COUNT>
0

> <PUBCHEM_BOND_UDEF_STEREO_COUNT>
0

> <PUBCHEM_ISOTOPIC_ATOM_COUNT>
0

> <PUBCHEM_COMPONENT_COUNT>
1

> <PUBCHEM_CACTVS_TAUTO_COUNT>
-1

> <PUBCHEM_COORDINATE_TYPE>
1
5
255

> <PUBCHEM_BONDANNOTATIONS>
14  17  8
14  18  8
17  19  8
18  20  8
19  21  8
20  21  8
23  25  8
23  26  8
25  28  8
26  29  8
27  28  8
27  29  8
30  32  8
6  30  8
6  31  8
7  31  8
7  32  8

$$$$
