145984446
  -OEChem-09292322392D

126131  0     0  0  0  0  0  0999 V2000
    2.9705   16.1344    0.0000 S   0  0  0  0  0  0  0  0  0  0  0  0
    8.0740  -15.3424    0.0000 O   0  0  0  0  0  0  0  0  0  0  0  0
    3.7439   -8.8424    0.0000 O   0  0  0  0  0  0  0  0  0  0  0  0
    5.4760   -7.8424    0.0000 O   0  0  0  0  0  0  0  0  0  0  0  0
    7.6108   -2.2719    0.0000 O   0  0  0  0  0  0  0  0  0  0  0  0
    7.3851    0.3642    0.0000 O   0  0  0  0  0  0  0  0  0  0  0  0
    8.1540    2.8958    0.0000 O   0  0  0  0  0  0  0  0  0  0  0  0
    7.9283    5.5319    0.0000 O   0  0  0  0  0  0  0  0  0  0  0  0
    8.6971    8.0634    0.0000 O   0  0  0  0  0  0  0  0  0  0  0  0
    9.2403   13.2311    0.0000 O   0  0  0  0  0  0  0  0  0  0  0  0
   10.0537   11.4040    0.0000 O   0  0  0  0  0  0  0  0  0  0  0  0
    6.3420  -12.3424    0.0000 N   0  0  0  0  0  0  0  0  0  0  0  0
    8.0740  -13.3424    0.0000 N   0  0  0  0  0  0  0  0  0  0  0  0
    6.8420   -4.8035    0.0000 N   0  0  0  0  0  0  0  0  0  0  0  0
    5.5330   -5.7546    0.0000 N   0  0  0  0  0  0  0  0  0  0  0  0
    5.8420   -4.8035    0.0000 N   0  0  0  0  0  0  0  0  0  0  0  0
    8.4714   10.6995    0.0000 N   0  0  0  0  0  0  0  0  0  0  0  0
    9.0146   15.8672    0.0000 N   0  0  0  0  0  0  0  0  0  0  0  0
    3.7796   14.7332    0.0000 N   0  0  0  0  0  0  0  0  0  0  0  0
    6.3420  -13.3424    0.0000 C   0  0  0  0  0  0  0  0  0  0  0  0
    7.2080  -11.8424    0.0000 C   0  0  0  0  0  0  0  0  0  0  0  0
    7.2080  -13.8424    0.0000 C   0  0  0  0  0  0  0  0  0  0  0  0
    8.0740  -12.3424    0.0000 C   0  0  0  0  0  0  0  0  0  0  0  0
    5.4760  -11.8424    0.0000 C   0  0  0  0  0  0  0  0  0  0  0  0
    8.9401  -13.8424    0.0000 C   0  0  0  0  0  0  0  0  0  0  0  0
    5.4760  -10.8424    0.0000 C   0  0  0  0  0  0  0  0  0  0  0  0
    8.9401  -14.8424    0.0000 C   0  0  0  0  0  0  0  0  0  0  0  0
    9.8061  -13.3424    0.0000 C   0  0  0  0  0  0  0  0  0  0  0  0
    4.6099  -10.3424    0.0000 C   0  0  0  0  0  0  0  0  0  0  0  0
    6.3420  -10.3424    0.0000 C   0  0  0  0  0  0  0  0  0  0  0  0
    9.8061  -15.3424    0.0000 C   0  0  0  0  0  0  0  0  0  0  0  0
   10.6721  -13.8424    0.0000 C   0  0  0  0  0  0  0  0  0  0  0  0
    4.6099   -9.3424    0.0000 C   0  0  0  0  0  0  0  0  0  0  0  0
   10.6721  -14.8424    0.0000 C   0  0  0  0  0  0  0  0  0  0  0  0
    6.3420   -9.3424    0.0000 C   0  0  0  0  0  0  0  0  0  0  0  0
    5.4760   -8.8424    0.0000 C   0  0  0  0  0  0  0  0  0  0  0  0
    8.0740  -16.3424    0.0000 C   0  0  0  0  0  0  0  0  0  0  0  0
    6.3420   -7.3424    0.0000 C   0  0  0  0  0  0  0  0  0  0  0  0
    2.8779   -9.3424    0.0000 C   0  0  0  0  0  0  0  0  0  0  0  0
    6.3420   -6.3424    0.0000 C   0  0  0  0  0  0  0  0  0  0  0  0
    7.1510   -5.7546    0.0000 C   0  0  0  0  0  0  0  0  0  0  0  0
    7.4298   -3.9945    0.0000 C   0  0  0  0  0  0  0  0  0  0  0  0
    7.0230   -3.0810    0.0000 C   0  0  0  0  0  0  0  0  0  0  0  0
    7.2041   -1.3584    0.0000 C   0  0  0  0  0  0  0  0  0  0  0  0
    7.7919   -0.5494    0.0000 C   0  0  0  0  0  0  0  0  0  0  0  0
    7.9729    1.1732    0.0000 C   0  0  0  0  0  0  0  0  0  0  0  0
    7.5662    2.0867    0.0000 C   0  0  0  0  0  0  0  0  0  0  0  0
    7.7472    3.8093    0.0000 C   0  0  0  0  0  0  0  0  0  0  0  0
    8.3350    4.6183    0.0000 C   0  0  0  0  0  0  0  0  0  0  0  0
    8.5161    6.3409    0.0000 C   0  0  0  0  0  0  0  0  0  0  0  0
    8.1093    7.2544    0.0000 C   0  0  0  0  0  0  0  0  0  0  0  0
    8.2904    8.9770    0.0000 C   0  0  0  0  0  0  0  0  0  0  0  0
    8.8782    9.7860    0.0000 C   0  0  0  0  0  0  0  0  0  0  0  0
    9.0592   11.5086    0.0000 C   0  0  0  0  0  0  0  0  0  0  0  0
    8.6525   12.4221    0.0000 C   0  0  0  0  0  0  0  0  0  0  0  0
    8.8335   14.1447    0.0000 C   0  0  0  0  0  0  0  0  0  0  0  0
    7.8390   14.2492    0.0000 C   0  0  0  0  0  0  0  0  0  0  0  0
    9.4213   14.9537    0.0000 C   0  0  0  0  0  0  0  0  0  0  0  0
    7.4323   15.1627    0.0000 C   0  0  0  0  0  0  0  0  0  0  0  0
    8.0200   15.9718    0.0000 C   0  0  0  0  0  0  0  0  0  0  0  0
    6.4378   15.2673    0.0000 C   0  0  0  0  0  0  0  0  0  0  0  0
    5.4432   15.3718    0.0000 C   0  0  0  0  0  0  0  0  0  0  0  0
    4.4487   15.4763    0.0000 C   0  0  0  0  0  0  0  0  0  0  0  0
    3.9487   16.3424    0.0000 C   0  0  0  0  0  0  0  0  0  0  0  0
    2.8660   15.1399    0.0000 C   0  0  0  0  0  0  0  0  0  0  0  0
    2.0000   14.6399    0.0000 C   0  0  0  0  0  0  0  0  0  0  0  0
    5.7314  -13.2347    0.0000 H   0  0  0  0  0  0  0  0  0  0  0  0
    6.1299  -13.9250    0.0000 H   0  0  0  0  0  0  0  0  0  0  0  0
    7.6065  -11.3674    0.0000 H   0  0  0  0  0  0  0  0  0  0  0  0
    6.8095  -11.3674    0.0000 H   0  0  0  0  0  0  0  0  0  0  0  0
    6.8095  -14.3173    0.0000 H   0  0  0  0  0  0  0  0  0  0  0  0
    7.6065  -14.3173    0.0000 H   0  0  0  0  0  0  0  0  0  0  0  0
    8.6846  -12.4500    0.0000 H   0  0  0  0  0  0  0  0  0  0  0  0
    8.2861  -11.7597    0.0000 H   0  0  0  0  0  0  0  0  0  0  0  0
    4.8654  -11.7347    0.0000 H   0  0  0  0  0  0  0  0  0  0  0  0
    5.2639  -12.4250    0.0000 H   0  0  0  0  0  0  0  0  0  0  0  0
    9.8061  -12.7224    0.0000 H   0  0  0  0  0  0  0  0  0  0  0  0
    4.0730  -10.6524    0.0000 H   0  0  0  0  0  0  0  0  0  0  0  0
    6.8789  -10.6524    0.0000 H   0  0  0  0  0  0  0  0  0  0  0  0
    9.8061  -15.9624    0.0000 H   0  0  0  0  0  0  0  0  0  0  0  0
   11.2091  -13.5324    0.0000 H   0  0  0  0  0  0  0  0  0  0  0  0
   11.2091  -15.1524    0.0000 H   0  0  0  0  0  0  0  0  0  0  0  0
    6.8789   -9.0324    0.0000 H   0  0  0  0  0  0  0  0  0  0  0  0
    7.4540  -16.3424    0.0000 H   0  0  0  0  0  0  0  0  0  0  0  0
    8.0740  -16.9624    0.0000 H   0  0  0  0  0  0  0  0  0  0  0  0
    8.6940  -16.3424    0.0000 H   0  0  0  0  0  0  0  0  0  0  0  0
    6.5540   -7.9250    0.0000 H   0  0  0  0  0  0  0  0  0  0  0  0
    6.9526   -7.2347    0.0000 H   0  0  0  0  0  0  0  0  0  0  0  0
    2.5679   -8.8054    0.0000 H   0  0  0  0  0  0  0  0  0  0  0  0
    2.3410   -9.6524    0.0000 H   0  0  0  0  0  0  0  0  0  0  0  0
    3.1879   -9.8793    0.0000 H   0  0  0  0  0  0  0  0  0  0  0  0
    7.7407   -5.9462    0.0000 H   0  0  0  0  0  0  0  0  0  0  0  0
    7.8605   -4.4405    0.0000 H   0  0  0  0  0  0  0  0  0  0  0  0
    7.9438   -3.6478    0.0000 H   0  0  0  0  0  0  0  0  0  0  0  0
    6.5924   -2.6350    0.0000 H   0  0  0  0  0  0  0  0  0  0  0  0
    6.5090   -3.4276    0.0000 H   0  0  0  0  0  0  0  0  0  0  0  0
    6.7734   -0.9124    0.0000 H   0  0  0  0  0  0  0  0  0  0  0  0
    6.6901   -1.7051    0.0000 H   0  0  0  0  0  0  0  0  0  0  0  0
    8.2226   -0.9954    0.0000 H   0  0  0  0  0  0  0  0  0  0  0  0
    8.3059   -0.2027    0.0000 H   0  0  0  0  0  0  0  0  0  0  0  0
    8.4036    0.7272    0.0000 H   0  0  0  0  0  0  0  0  0  0  0  0
    8.4869    1.5199    0.0000 H   0  0  0  0  0  0  0  0  0  0  0  0
    7.1355    2.5327    0.0000 H   0  0  0  0  0  0  0  0  0  0  0  0
    7.0522    1.7400    0.0000 H   0  0  0  0  0  0  0  0  0  0  0  0
    7.3166    4.2553    0.0000 H   0  0  0  0  0  0  0  0  0  0  0  0
    7.2332    3.4626    0.0000 H   0  0  0  0  0  0  0  0  0  0  0  0
    8.7657    4.1723    0.0000 H   0  0  0  0  0  0  0  0  0  0  0  0
    8.8490    4.9650    0.0000 H   0  0  0  0  0  0  0  0  0  0  0  0
    8.9468    5.8949    0.0000 H   0  0  0  0  0  0  0  0  0  0  0  0
    9.0301    6.6876    0.0000 H   0  0  0  0  0  0  0  0  0  0  0  0
    7.6786    7.7004    0.0000 H   0  0  0  0  0  0  0  0  0  0  0  0
    7.5953    6.9077    0.0000 H   0  0  0  0  0  0  0  0  0  0  0  0
    7.8597    9.4230    0.0000 H   0  0  0  0  0  0  0  0  0  0  0  0
    7.7764    8.6303    0.0000 H   0  0  0  0  0  0  0  0  0  0  0  0
    9.3088    9.3400    0.0000 H   0  0  0  0  0  0  0  0  0  0  0  0
    9.3922   10.1327    0.0000 H   0  0  0  0  0  0  0  0  0  0  0  0
    7.8548   10.7644    0.0000 H   0  0  0  0  0  0  0  0  0  0  0  0
    8.2218   12.8681    0.0000 H   0  0  0  0  0  0  0  0  0  0  0  0
    8.1385   12.0754    0.0000 H   0  0  0  0  0  0  0  0  0  0  0  0
    7.4746   13.7476    0.0000 H   0  0  0  0  0  0  0  0  0  0  0  0
   10.0379   14.8889    0.0000 H   0  0  0  0  0  0  0  0  0  0  0  0
    7.7679   16.5382    0.0000 H   0  0  0  0  0  0  0  0  0  0  0  0
    4.2009   16.9088    0.0000 H   0  0  0  0  0  0  0  0  0  0  0  0
    1.6900   15.1769    0.0000 H   0  0  0  0  0  0  0  0  0  0  0  0
    1.4631   14.3299    0.0000 H   0  0  0  0  0  0  0  0  0  0  0  0
    2.3100   14.1030    0.0000 H   0  0  0  0  0  0  0  0  0  0  0  0
  1 64  1  0  0  0  0
  1 65  1  0  0  0  0
  2 27  1  0  0  0  0
  2 37  1  0  0  0  0
  3 33  1  0  0  0  0
  3 39  1  0  0  0  0
  4 36  1  0  0  0  0
  4 38  1  0  0  0  0
  5 43  1  0  0  0  0
  5 44  1  0  0  0  0
  6 45  1  0  0  0  0
  6 46  1  0  0  0  0
  7 47  1  0  0  0  0
  7 48  1  0  0  0  0
  8 49  1  0  0  0  0
  8 50  1  0  0  0  0
  9 51  1  0  0  0  0
  9 52  1  0  0  0  0
 10 55  1  0  0  0  0
 10 56  1  0  0  0  0
 11 54  2  0  0  0  0
 12 20  1  0  0  0  0
 12 21  1  0  0  0  0
 12 24  1  0  0  0  0
 13 22  1  0  0  0  0
 13 23  1  0  0  0  0
 13 25  1  0  0  0  0
 14 16  1  0  0  0  0
 14 41  1  0  0  0  0
 14 42  1  0  0  0  0
 15 16  2  0  0  0  0
 15 40  1  0  0  0  0
 17 53  1  0  0  0  0
 17 54  1  0  0  0  0
 17117  1  0  0  0  0
 18 58  1  0  0  0  0
 18 60  2  0  0  0  0
 19 63  1  0  0  0  0
 19 65  2  0  0  0  0
 20 22  1  0  0  0  0
 20 67  1  0  0  0  0
 20 68  1  0  0  0  0
 21 23  1  0  0  0  0
 21 69  1  0  0  0  0
 21 70  1  0  0  0  0
 22 71  1  0  0  0  0
 22 72  1  0  0  0  0
 23 73  1  0  0  0  0
 23 74  1  0  0  0  0
 24 26  1  0  0  0  0
 24 75  1  0  0  0  0
 24 76  1  0  0  0  0
 25 27  1  0  0  0  0
 25 28  2  0  0  0  0
 26 29  2  0  0  0  0
 26 30  1  0  0  0  0
 27 31  2  0  0  0  0
 28 32  1  0  0  0  0
 28 77  1  0  0  0  0
 29 33  1  0  0  0  0
 29 78  1  0  0  0  0
 30 35  2  0  0  0  0
 30 79  1  0  0  0  0
 31 34  1  0  0  0  0
 31 80  1  0  0  0  0
 32 34  2  0  0  0  0
 32 81  1  0  0  0  0
 33 36  2  0  0  0  0
 34 82  1  0  0  0  0
 35 36  1  0  0  0  0
 35 83  1  0  0  0  0
 37 84  1  0  0  0  0
 37 85  1  0  0  0  0
 37 86  1  0  0  0  0
 38 40  1  0  0  0  0
 38 87  1  0  0  0  0
 38 88  1  0  0  0  0
 39 89  1  0  0  0  0
 39 90  1  0  0  0  0
 39 91  1  0  0  0  0
 40 41  2  0  0  0  0
 41 92  1  0  0  0  0
 42 43  1  0  0  0  0
 42 93  1  0  0  0  0
 42 94  1  0  0  0  0
 43 95  1  0  0  0  0
 43 96  1  0  0  0  0
 44 45  1  0  0  0  0
 44 97  1  0  0  0  0
 44 98  1  0  0  0  0
 45 99  1  0  0  0  0
 45100  1  0  0  0  0
 46 47  1  0  0  0  0
 46101  1  0  0  0  0
 46102  1  0  0  0  0
 47103  1  0  0  0  0
 47104  1  0  0  0  0
 48 49  1  0  0  0  0
 48105  1  0  0  0  0
 48106  1  0  0  0  0
 49107  1  0  0  0  0
 49108  1  0  0  0  0
 50 51  1  0  0  0  0
 50109  1  0  0  0  0
 50110  1  0  0  0  0
 51111  1  0  0  0  0
 51112  1  0  0  0  0
 52 53  1  0  0  0  0
 52113  1  0  0  0  0
 52114  1  0  0  0  0
 53115  1  0  0  0  0
 53116  1  0  0  0  0
 54 55  1  0  0  0  0
 55118  1  0  0  0  0
 55119  1  0  0  0  0
 56 57  1  0  0  0  0
 56 58  2  0  0  0  0
 57 59  2  0  0  0  0
 57120  1  0  0  0  0
 58121  1  0  0  0  0
 59 60  1  0  0  0  0
 59 61  1  0  0  0  0
 60122  1  0  0  0  0
 61 62  3  0  0  0  0
 62 63  1  0  0  0  0
 63 64  2  0  0  0  0
 64123  1  0  0  0  0
 65 66  1  0  0  0  0
 66124  1  0  0  0  0
 66125  1  0  0  0  0
 66126  1  0  0  0  0
M  END
> <PUBCHEM_COMPOUND_CID>
145984446

> <PUBCHEM_COMPOUND_CANONICALIZED>
1

> <PUBCHEM_CACTVS_COMPLEXITY>
1400

> <PUBCHEM_CACTVS_HBOND_ACCEPTOR>
17

> <PUBCHEM_CACTVS_HBOND_DONOR>
1

> <PUBCHEM_CACTVS_ROTATABLE_BOND>
31

> <PUBCHEM_CACTVS_SUBSKEYS>
AAADcfB//ABAAAAAAAAAAAAAAAAAAWLAAAA8eIEAAAAAAAAB/AAAHgQYAAAADAzl3ga+x5PIFAjuEzV3VA6C/KRx+jgY2LR//JgPZuLksZ+XOCrm1hH66Aew0BIOIAABAAAAUABAAAIAAACgAAAAAAAAAA==

> <PUBCHEM_IUPAC_OPENEYE_NAME>
N-[2-[2-[2-[2-[2-[2-[4-[[2-methoxy-4-[[4-(2-methoxyphenyl)piperazin-1-yl]methyl]phenoxy]methyl]triazol-1-yl]ethoxy]ethoxy]ethoxy]ethoxy]ethoxy]ethyl]-2-[[5-[2-(2-methylthiazol-4-yl)ethynyl]-3-pyridyl]oxy]acetamide

> <PUBCHEM_IUPAC_CAS_NAME>
N-[2-[2-[2-[2-[2-[2-[4-[[2-methoxy-4-[[4-(2-methoxyphenyl)-1-piperazinyl]methyl]phenoxy]methyl]-1-triazolyl]ethoxy]ethoxy]ethoxy]ethoxy]ethoxy]ethyl]-2-[[5-[2-(2-methyl-4-thiazolyl)ethynyl]-3-pyridinyl]oxy]acetamide

> <PUBCHEM_IUPAC_NAME_MARKUP>
<I>N</I>-[2-[2-[2-[2-[2-[2-[4-[[2-methoxy-4-[[4-(2-methoxyphenyl)piperazin-1-yl]methyl]phenoxy]methyl]triazol-1-yl]ethoxy]ethoxy]ethoxy]ethoxy]ethoxy]ethyl]-2-[5-[2-(2-methyl-1,3-thiazol-4-yl)ethynyl]pyridin-3-yl]oxyacetamide

> <PUBCHEM_IUPAC_NAME>
N-[2-[2-[2-[2-[2-[2-[4-[[2-methoxy-4-[[4-(2-methoxyphenyl)piperazin-1-yl]methyl]phenoxy]methyl]triazol-1-yl]ethoxy]ethoxy]ethoxy]ethoxy]ethoxy]ethyl]-2-[5-[2-(2-methyl-1,3-thiazol-4-yl)ethynyl]pyridin-3-yl]oxyacetamide

> <PUBCHEM_IUPAC_SYSTEMATIC_NAME>
N-[2-[2-[2-[2-[2-[2-[4-[[2-methoxy-4-[[4-(2-methoxyphenyl)piperazin-1-yl]methyl]phenoxy]methyl]-1,2,3-triazol-1-yl]ethoxy]ethoxy]ethoxy]ethoxy]ethoxy]ethyl]-2-[5-[2-(2-methyl-1,3-thiazol-4-yl)ethynyl]pyridin-3-yl]oxy-ethanamide

> <PUBCHEM_IUPAC_TRADITIONAL_NAME>
N-[2-[2-[2-[2-[2-[2-[4-[[2-methoxy-4-[[4-(2-methoxyphenyl)piperazino]methyl]phenoxy]methyl]triazol-1-yl]ethoxy]ethoxy]ethoxy]ethoxy]ethoxy]ethyl]-2-[[5-[2-(2-methylthiazol-4-yl)ethynyl]-3-pyridyl]oxy]acetamide

> <PUBCHEM_IUPAC_INCHI>
InChI=1S/C47H60N8O10S/c1-37-50-40(36-66-37)10-8-38-28-42(31-48-30-38)64-35-47(56)49-12-18-59-20-22-61-24-26-63-27-25-62-23-21-60-19-17-55-33-41(51-52-55)34-65-45-11-9-39(29-46(45)58-3)32-53-13-15-54(16-14-53)43-6-4-5-7-44(43)57-2/h4-7,9,11,28-31,33,36H,12-27,32,34-35H2,1-3H3,(H,49,56)

> <PUBCHEM_IUPAC_INCHIKEY>
UCSADJSYXSUUQV-UHFFFAOYSA-N

> <PUBCHEM_XLOGP3_AA>
3.2

> <PUBCHEM_EXACT_MASS>
928.41531131

> <PUBCHEM_MOLECULAR_FORMULA>
C47H60N8O10S

> <PUBCHEM_MOLECULAR_WEIGHT>
929.1

> <PUBCHEM_OPENEYE_CAN_SMILES>
CC1=NC(=CS1)C#CC2=CC(=CN=C2)OCC(=O)NCCOCCOCCOCCOCCOCCN3C=C(N=N3)COC4=C(C=C(C=C4)CN5CCN(CC5)C6=CC=CC=C6OC)OC

> <PUBCHEM_OPENEYE_ISO_SMILES>
CC1=NC(=CS1)C#CC2=CC(=CN=C2)OCC(=O)NCCOCCOCCOCCOCCOCCN3C=C(N=N3)COC4=C(C=C(C=C4)CN5CCN(CC5)C6=CC=CC=C6OC)OC

> <PUBCHEM_CACTVS_TPSA>
203

> <PUBCHEM_MONOISOTOPIC_WEIGHT>
928.41531131

> <PUBCHEM_TOTAL_CHARGE>
0

> <PUBCHEM_HEAVY_ATOM_COUNT>
66

> <PUBCHEM_ATOM_DEF_STEREO_COUNT>
0

> <PUBCHEM_ATOM_UDEF_STEREO_COUNT>
0

> <PUBCHEM_BOND_DEF_STEREO_COUNT>
0

> <PUBCHEM_BOND_UDEF_STEREO_COUNT>
0

> <PUBCHEM_ISOTOPIC_ATOM_COUNT>
0

> <PUBCHEM_COMPONENT_COUNT>
1

> <PUBCHEM_CACTVS_TAUTO_COUNT>
-1

> <PUBCHEM_COORDINATE_TYPE>
1
5
255

> <PUBCHEM_BONDANNOTATIONS>
1  64  8
1  65  8
14  16  8
14  41  8
15  16  8
15  40  8
18  58  8
18  60  8
19  63  8
19  65  8
25  27  8
25  28  8
26  29  8
26  30  8
27  31  8
28  32  8
29  33  8
30  35  8
31  34  8
32  34  8
33  36  8
35  36  8
40  41  8
56  57  8
56  58  8
57  59  8
59  60  8
63  64  8

$$$$
