135409468
  -OEChem-09292322432D

 39 42  0     0  0  0  0  0  0999 V2000
    8.7204   -1.0891    0.0000 Cl  0  0  0  0  0  0  0  0  0  0  0  0
    3.9491    0.6755    0.0000 N   0  0  0  0  0  0  0  0  0  0  0  0
    3.0814    2.4775    0.0000 N   0  0  0  0  0  0  0  0  0  0  0  0
    5.3830   -0.2254    0.0000 N   0  0  0  0  0  0  0  0  0  0  0  0
    4.8830   -2.4161    0.0000 N   0  0  0  0  0  0  0  0  0  0  0  0
    4.5125    1.5018    0.0000 C   0  0  0  0  0  0  0  0  0  0  0  0
    2.9519    0.7503    0.0000 C   0  0  0  0  0  0  0  0  0  0  0  0
    4.0786    2.4027    0.0000 C   0  0  0  0  0  0  0  0  0  0  0  0
    2.5180    1.6512    0.0000 C   0  0  0  0  0  0  0  0  0  0  0  0
    4.3830   -0.2254    0.0000 C   0  0  0  0  0  0  0  0  0  0  0  0
    3.7595   -1.0073    0.0000 C   0  0  0  0  0  0  0  0  0  0  0  0
    3.9820   -1.9822    0.0000 C   0  0  0  0  0  0  0  0  0  0  0  0
    6.0065   -1.0073    0.0000 C   0  0  0  0  0  0  0  0  0  0  0  0
    5.7840   -1.9822    0.0000 C   0  0  0  0  0  0  0  0  0  0  0  0
    2.7690   -0.6849    0.0000 C   0  0  0  0  0  0  0  0  0  0  0  0
    3.2295   -2.7024    0.0000 C   0  0  0  0  0  0  0  0  0  0  0  0
    2.0000   -1.3875    0.0000 C   0  0  0  0  0  0  0  0  0  0  0  0
    6.9970   -0.6850    0.0000 C   0  0  0  0  0  0  0  0  0  0  0  0
    6.5365   -2.7024    0.0000 C   0  0  0  0  0  0  0  0  0  0  0  0
    2.2318   -2.4030    0.0000 C   0  0  0  0  0  0  0  0  0  0  0  0
    7.7660   -1.3875    0.0000 C   0  0  0  0  0  0  0  0  0  0  0  0
    7.5342   -2.4030    0.0000 C   0  0  0  0  0  0  0  0  0  0  0  0
    4.9563    1.0689    0.0000 H   0  0  0  0  0  0  0  0  0  0  0  0
    5.0159    1.8637    0.0000 H   0  0  0  0  0  0  0  0  0  0  0  0
    2.3551    0.5824    0.0000 H   0  0  0  0  0  0  0  0  0  0  0  0
    3.0137    0.1334    0.0000 H   0  0  0  0  0  0  0  0  0  0  0  0
    4.6754    2.5707    0.0000 H   0  0  0  0  0  0  0  0  0  0  0  0
    4.0168    3.0197    0.0000 H   0  0  0  0  0  0  0  0  0  0  0  0
    2.0742    2.0842    0.0000 H   0  0  0  0  0  0  0  0  0  0  0  0
    2.0146    1.2893    0.0000 H   0  0  0  0  0  0  0  0  0  0  0  0
    2.8124    3.0361    0.0000 H   0  0  0  0  0  0  0  0  0  0  0  0
    4.8830   -3.0361    0.0000 H   0  0  0  0  0  0  0  0  0  0  0  0
    2.6380   -0.0789    0.0000 H   0  0  0  0  0  0  0  0  0  0  0  0
    3.3744   -3.3052    0.0000 H   0  0  0  0  0  0  0  0  0  0  0  0
    1.4083   -1.2025    0.0000 H   0  0  0  0  0  0  0  0  0  0  0  0
    7.1280   -0.0789    0.0000 H   0  0  0  0  0  0  0  0  0  0  0  0
    6.3916   -3.3052    0.0000 H   0  0  0  0  0  0  0  0  0  0  0  0
    1.7789   -2.8265    0.0000 H   0  0  0  0  0  0  0  0  0  0  0  0
    7.9871   -2.8265    0.0000 H   0  0  0  0  0  0  0  0  0  0  0  0
  1 21  1  0  0  0  0
  2  6  1  0  0  0  0
  2  7  1  0  0  0  0
  2 10  1  0  0  0  0
  3  8  1  0  0  0  0
  3  9  1  0  0  0  0
  3 31  1  0  0  0  0
  4 10  2  0  0  0  0
  4 13  1  0  0  0  0
  5 12  1  0  0  0  0
  5 14  1  0  0  0  0
  5 32  1  0  0  0  0
  6  8  1  0  0  0  0
  6 23  1  0  0  0  0
  6 24  1  0  0  0  0
  7  9  1  0  0  0  0
  7 25  1  0  0  0  0
  7 26  1  0  0  0  0
  8 27  1  0  0  0  0
  8 28  1  0  0  0  0
  9 29  1  0  0  0  0
  9 30  1  0  0  0  0
 10 11  1  0  0  0  0
 11 12  1  0  0  0  0
 11 15  2  0  0  0  0
 12 16  2  0  0  0  0
 13 14  2  0  0  0  0
 13 18  1  0  0  0  0
 14 19  1  0  0  0  0
 15 17  1  0  0  0  0
 15 33  1  0  0  0  0
 16 20  1  0  0  0  0
 16 34  1  0  0  0  0
 17 20  2  0  0  0  0
 17 35  1  0  0  0  0
 18 21  2  0  0  0  0
 18 36  1  0  0  0  0
 19 22  2  0  0  0  0
 19 37  1  0  0  0  0
 20 38  1  0  0  0  0
 21 22  1  0  0  0  0
 22 39  1  0  0  0  0
M  END
> <PUBCHEM_COMPOUND_CID>
135409468

> <PUBCHEM_COMPOUND_CANONICALIZED>
1

> <PUBCHEM_CACTVS_COMPLEXITY>
421

> <PUBCHEM_CACTVS_HBOND_ACCEPTOR>
3

> <PUBCHEM_CACTVS_HBOND_DONOR>
2

> <PUBCHEM_CACTVS_ROTATABLE_BOND>
1

> <PUBCHEM_CACTVS_SUBSKEYS>
AAADceB7gAAEAAAAAAAAAAAAAAAAAAAAAAA8YIAABAAAAAABQAAAHAIQAAAADArBGCQxwIPAAACgAiZiZACCAAEhBwAJiIAodpgIYOLB25GUIAhgkADIyAcQgAAOAABAAAICACAAAIAABAQAQAAAAAAAAA==

> <PUBCHEM_IUPAC_OPENEYE_NAME>
3-chloro-6-piperazin-1-yl-11H-benzo[b][1,4]benzodiazepine

> <PUBCHEM_IUPAC_CAS_NAME>
3-chloro-6-(1-piperazinyl)-11H-benzo[b][1,4]benzodiazepine

> <PUBCHEM_IUPAC_NAME_MARKUP>
3-chloro-6-piperazin-1-yl-11<I>H</I>-benzo[b][1,4]benzodiazepine

> <PUBCHEM_IUPAC_NAME>
3-chloro-6-piperazin-1-yl-11H-benzo[b][1,4]benzodiazepine

> <PUBCHEM_IUPAC_SYSTEMATIC_NAME>
3-chloranyl-6-piperazin-1-yl-11H-benzo[b][1,4]benzodiazepine

> <PUBCHEM_IUPAC_TRADITIONAL_NAME>
3-chloro-6-piperazino-11H-benzo[b][1,4]benzodiazepine

> <PUBCHEM_IUPAC_INCHI>
InChI=1S/C17H17ClN4/c18-12-5-6-15-16(11-12)21-17(22-9-7-19-8-10-22)13-3-1-2-4-14(13)20-15/h1-6,11,19-20H,7-10H2

> <PUBCHEM_IUPAC_INCHIKEY>
JNNOSTQEZICQQP-UHFFFAOYSA-N

> <PUBCHEM_XLOGP3_AA>
2.6

> <PUBCHEM_EXACT_MASS>
312.1141743

> <PUBCHEM_MOLECULAR_FORMULA>
C17H17ClN4

> <PUBCHEM_MOLECULAR_WEIGHT>
312.8

> <PUBCHEM_OPENEYE_CAN_SMILES>
C1CN(CCN1)C2=NC3=C(C=CC(=C3)Cl)NC4=CC=CC=C42

> <PUBCHEM_OPENEYE_ISO_SMILES>
C1CN(CCN1)C2=NC3=C(C=CC(=C3)Cl)NC4=CC=CC=C42

> <PUBCHEM_CACTVS_TPSA>
39.7

> <PUBCHEM_MONOISOTOPIC_WEIGHT>
312.1141743

> <PUBCHEM_TOTAL_CHARGE>
0

> <PUBCHEM_HEAVY_ATOM_COUNT>
22

> <PUBCHEM_ATOM_DEF_STEREO_COUNT>
0

> <PUBCHEM_ATOM_UDEF_STEREO_COUNT>
0

> <PUBCHEM_BOND_DEF_STEREO_COUNT>
0

> <PUBCHEM_BOND_UDEF_STEREO_COUNT>
0

> <PUBCHEM_ISOTOPIC_ATOM_COUNT>
0

> <PUBCHEM_COMPONENT_COUNT>
1

> <PUBCHEM_CACTVS_TAUTO_COUNT>
5

> <PUBCHEM_COORDINATE_TYPE>
1
5
255

> <PUBCHEM_BONDANNOTATIONS>
11  12  8
11  15  8
12  16  8
13  14  8
13  18  8
14  19  8
15  17  8
16  20  8
17  20  8
18  21  8
19  22  8
21  22  8

$$$$
