10228202
  -OEChem-09292322182D

 70 73  0     1  0  0  0  0  0999 V2000
    4.5981    2.5000    0.0000 Cl  0  0  0  0  0  0  0  0  0  0  0  0
    2.8660    3.5000    0.0000 Cl  0  0  0  0  0  0  0  0  0  0  0  0
   15.9224   -1.0241    0.0000 O   0  0  0  0  0  0  0  0  0  0  0  0
   10.6603   -1.0000    0.0000 N   0  0  3  0  0  0  0  0  0  0  0  0
    6.3301   -0.5000    0.0000 N   0  0  0  0  0  0  0  0  0  0  0  0
    4.5981    0.5000    0.0000 N   0  0  0  0  0  0  0  0  0  0  0  0
   11.5263   -0.5000    0.0000 C   0  0  3  0  0  0  0  0  0  0  0  0
   11.5263    0.5000    0.0000 C   0  0  0  0  0  0  0  0  0  0  0  0
   12.3923   -1.0000    0.0000 C   0  0  0  0  0  0  0  0  0  0  0  0
    9.7942   -0.5000    0.0000 C   0  0  0  0  0  0  0  0  0  0  0  0
   12.3923    1.0000    0.0000 C   0  0  0  0  0  0  0  0  0  0  0  0
   13.2583   -0.5000    0.0000 C   0  0  0  0  0  0  0  0  0  0  0  0
    8.9282   -1.0000    0.0000 C   0  0  0  0  0  0  0  0  0  0  0  0
   13.2583    0.5000    0.0000 C   0  0  0  0  0  0  0  0  0  0  0  0
   10.6603   -2.0000    0.0000 C   0  0  0  0  0  0  0  0  0  0  0  0
    8.0622   -0.5000    0.0000 C   0  0  0  0  0  0  0  0  0  0  0  0
    7.1962   -1.0000    0.0000 C   0  0  0  0  0  0  0  0  0  0  0  0
    6.3301    0.5000    0.0000 C   0  0  0  0  0  0  0  0  0  0  0  0
    5.4641   -1.0000    0.0000 C   0  0  0  0  0  0  0  0  0  0  0  0
    5.4641    1.0000    0.0000 C   0  0  0  0  0  0  0  0  0  0  0  0
    4.5981   -0.5000    0.0000 C   0  0  0  0  0  0  0  0  0  0  0  0
    9.7942   -2.5000    0.0000 C   0  0  0  0  0  0  0  0  0  0  0  0
   14.1523   -1.0347    0.0000 C   0  0  0  0  0  0  0  0  0  0  0  0
   14.1523    1.0347    0.0000 C   0  0  0  0  0  0  0  0  0  0  0  0
   15.0583   -0.5208    0.0000 C   0  0  0  0  0  0  0  0  0  0  0  0
   15.0583    0.5208    0.0000 C   0  0  0  0  0  0  0  0  0  0  0  0
    3.7320    1.0000    0.0000 C   0  0  0  0  0  0  0  0  0  0  0  0
    9.7942   -3.5000    0.0000 C   0  0  0  0  0  0  0  0  0  0  0  0
    3.7320    2.0000    0.0000 C   0  0  0  0  0  0  0  0  0  0  0  0
    2.8660    0.5000    0.0000 C   0  0  0  0  0  0  0  0  0  0  0  0
    2.8660    2.5000    0.0000 C   0  0  0  0  0  0  0  0  0  0  0  0
    2.0000    1.0000    0.0000 C   0  0  0  0  0  0  0  0  0  0  0  0
    2.0000    2.0000    0.0000 C   0  0  0  0  0  0  0  0  0  0  0  0
   10.9893   -0.1900    0.0000 H   0  0  0  0  0  0  0  0  0  0  0  0
   11.3142    1.0826    0.0000 H   0  0  0  0  0  0  0  0  0  0  0  0
   10.9157    0.3923    0.0000 H   0  0  0  0  0  0  0  0  0  0  0  0
   11.9938   -1.4750    0.0000 H   0  0  0  0  0  0  0  0  0  0  0  0
   12.7908   -1.4750    0.0000 H   0  0  0  0  0  0  0  0  0  0  0  0
   10.1928   -0.0251    0.0000 H   0  0  0  0  0  0  0  0  0  0  0  0
    9.3957   -0.0251    0.0000 H   0  0  0  0  0  0  0  0  0  0  0  0
   12.7908    1.4750    0.0000 H   0  0  0  0  0  0  0  0  0  0  0  0
   11.9938    1.4750    0.0000 H   0  0  0  0  0  0  0  0  0  0  0  0
    8.5297   -1.4750    0.0000 H   0  0  0  0  0  0  0  0  0  0  0  0
    9.3267   -1.4750    0.0000 H   0  0  0  0  0  0  0  0  0  0  0  0
   10.8723   -2.5826    0.0000 H   0  0  0  0  0  0  0  0  0  0  0  0
   11.2708   -1.8923    0.0000 H   0  0  0  0  0  0  0  0  0  0  0  0
    8.4607   -0.0251    0.0000 H   0  0  0  0  0  0  0  0  0  0  0  0
    7.6636   -0.0251    0.0000 H   0  0  0  0  0  0  0  0  0  0  0  0
    6.7976   -1.4750    0.0000 H   0  0  0  0  0  0  0  0  0  0  0  0
    7.5947   -1.4750    0.0000 H   0  0  0  0  0  0  0  0  0  0  0  0
    6.9407    0.3923    0.0000 H   0  0  0  0  0  0  0  0  0  0  0  0
    6.5422    1.0826    0.0000 H   0  0  0  0  0  0  0  0  0  0  0  0
    5.0656   -1.4750    0.0000 H   0  0  0  0  0  0  0  0  0  0  0  0
    5.8626   -1.4750    0.0000 H   0  0  0  0  0  0  0  0  0  0  0  0
    5.8626    1.4750    0.0000 H   0  0  0  0  0  0  0  0  0  0  0  0
    5.0656    1.4750    0.0000 H   0  0  0  0  0  0  0  0  0  0  0  0
    3.9875   -0.3923    0.0000 H   0  0  0  0  0  0  0  0  0  0  0  0
    4.3860   -1.0826    0.0000 H   0  0  0  0  0  0  0  0  0  0  0  0
    9.5822   -1.9174    0.0000 H   0  0  0  0  0  0  0  0  0  0  0  0
    9.1836   -2.6077    0.0000 H   0  0  0  0  0  0  0  0  0  0  0  0
   14.1451   -1.6546    0.0000 H   0  0  0  0  0  0  0  0  0  0  0  0
   14.1451    1.6546    0.0000 H   0  0  0  0  0  0  0  0  0  0  0  0
   15.5941    0.8329    0.0000 H   0  0  0  0  0  0  0  0  0  0  0  0
    9.1742   -3.5000    0.0000 H   0  0  0  0  0  0  0  0  0  0  0  0
    9.7942   -4.1200    0.0000 H   0  0  0  0  0  0  0  0  0  0  0  0
   10.4142   -3.5000    0.0000 H   0  0  0  0  0  0  0  0  0  0  0  0
    2.8660   -0.1200    0.0000 H   0  0  0  0  0  0  0  0  0  0  0  0
   16.4606   -0.7162    0.0000 H   0  0  0  0  0  0  0  0  0  0  0  0
    1.4631    0.6900    0.0000 H   0  0  0  0  0  0  0  0  0  0  0  0
    1.4631    2.3100    0.0000 H   0  0  0  0  0  0  0  0  0  0  0  0
  1 29  1  0  0  0  0
  2 31  1  0  0  0  0
  3 25  1  0  0  0  0
  3 68  1  0  0  0  0
  4  7  1  0  0  0  0
  4 10  1  0  0  0  0
  4 15  1  0  0  0  0
  5 17  1  0  0  0  0
  5 18  1  0  0  0  0
  5 19  1  0  0  0  0
  6 20  1  0  0  0  0
  6 21  1  0  0  0  0
  6 27  1  0  0  0  0
  7  8  1  0  0  0  0
  7  9  1  0  0  0  0
  7 34  1  0  0  0  0
  8 11  1  0  0  0  0
  8 35  1  0  0  0  0
  8 36  1  0  0  0  0
  9 12  1  0  0  0  0
  9 37  1  0  0  0  0
  9 38  1  0  0  0  0
 10 13  1  0  0  0  0
 10 39  1  0  0  0  0
 10 40  1  0  0  0  0
 11 14  1  0  0  0  0
 11 41  1  0  0  0  0
 11 42  1  0  0  0  0
 12 14  2  0  0  0  0
 12 23  1  0  0  0  0
 13 16  1  0  0  0  0
 13 43  1  0  0  0  0
 13 44  1  0  0  0  0
 14 24  1  0  0  0  0
 15 22  1  0  0  0  0
 15 45  1  0  0  0  0
 15 46  1  0  0  0  0
 16 17  1  0  0  0  0
 16 47  1  0  0  0  0
 16 48  1  0  0  0  0
 17 49  1  0  0  0  0
 17 50  1  0  0  0  0
 18 20  1  0  0  0  0
 18 51  1  0  0  0  0
 18 52  1  0  0  0  0
 19 21  1  0  0  0  0
 19 53  1  0  0  0  0
 19 54  1  0  0  0  0
 20 55  1  0  0  0  0
 20 56  1  0  0  0  0
 21 57  1  0  0  0  0
 21 58  1  0  0  0  0
 22 28  1  0  0  0  0
 22 59  1  0  0  0  0
 22 60  1  0  0  0  0
 23 25  2  0  0  0  0
 23 61  1  0  0  0  0
 24 26  2  0  0  0  0
 24 62  1  0  0  0  0
 25 26  1  0  0  0  0
 26 63  1  0  0  0  0
 27 29  2  0  0  0  0
 27 30  1  0  0  0  0
 28 64  1  0  0  0  0
 28 65  1  0  0  0  0
 28 66  1  0  0  0  0
 29 31  1  0  0  0  0
 30 32  2  0  0  0  0
 30 67  1  0  0  0  0
 31 33  2  0  0  0  0
 32 33  1  0  0  0  0
 32 69  1  0  0  0  0
 33 70  1  0  0  0  0
M  END
> <PUBCHEM_COMPOUND_CID>
10228202

> <PUBCHEM_COMPOUND_CANONICALIZED>
1

> <PUBCHEM_CACTVS_COMPLEXITY>
574

> <PUBCHEM_CACTVS_HBOND_ACCEPTOR>
4

> <PUBCHEM_CACTVS_HBOND_DONOR>
1

> <PUBCHEM_CACTVS_ROTATABLE_BOND>
9

> <PUBCHEM_CACTVS_SUBSKEYS>
AAADcfB7IAAGAAAAAAAAAAAAAAAAAAAAAAA8YMEAAAAAAADBQAAAHgIACAAADC7BmCQyxoMAAgCAAiRCQACCAAAhJwAIikAObogIZiLDk5PUcAhkwBHI2AeQ0LMOoAABAAIQABRQAAKABCAAKAAAAAAAAA==

> <PUBCHEM_IUPAC_OPENEYE_NAME>
3-[4-[4-(2,3-dichlorophenyl)piperazin-1-yl]butyl-propyl-amino]tetralin-6-ol

> <PUBCHEM_IUPAC_CAS_NAME>
7-[4-[4-(2,3-dichlorophenyl)-1-piperazinyl]butyl-propylamino]-5,6,7,8-tetrahydronaphthalen-2-ol

> <PUBCHEM_IUPAC_NAME_MARKUP>
7-[4-[4-(2,3-dichlorophenyl)piperazin-1-yl]butyl-propylamino]-5,6,7,8-tetrahydronaphthalen-2-ol

> <PUBCHEM_IUPAC_NAME>
7-[4-[4-(2,3-dichlorophenyl)piperazin-1-yl]butyl-propylamino]-5,6,7,8-tetrahydronaphthalen-2-ol

> <PUBCHEM_IUPAC_SYSTEMATIC_NAME>
7-[4-[4-[2,3-bis(chloranyl)phenyl]piperazin-1-yl]butyl-propyl-amino]-5,6,7,8-tetrahydronaphthalen-2-ol

> <PUBCHEM_IUPAC_TRADITIONAL_NAME>
3-[4-[4-(2,3-dichlorophenyl)piperazino]butyl-propyl-amino]tetralin-6-ol

> <PUBCHEM_IUPAC_INCHI>
InChI=1S/C27H37Cl2N3O/c1-2-12-31(23-10-8-21-9-11-24(33)20-22(21)19-23)14-4-3-13-30-15-17-32(18-16-30)26-7-5-6-25(28)27(26)29/h5-7,9,11,20,23,33H,2-4,8,10,12-19H2,1H3

> <PUBCHEM_IUPAC_INCHIKEY>
HUTRNXILWVFUDE-UHFFFAOYSA-N

> <PUBCHEM_XLOGP3_AA>
6.8

> <PUBCHEM_EXACT_MASS>
489.2313682

> <PUBCHEM_MOLECULAR_FORMULA>
C27H37Cl2N3O

> <PUBCHEM_MOLECULAR_WEIGHT>
490.5

> <PUBCHEM_OPENEYE_CAN_SMILES>
CCCN(CCCCN1CCN(CC1)C2=C(C(=CC=C2)Cl)Cl)C3CCC4=C(C3)C=C(C=C4)O

> <PUBCHEM_OPENEYE_ISO_SMILES>
CCCN(CCCCN1CCN(CC1)C2=C(C(=CC=C2)Cl)Cl)C3CCC4=C(C3)C=C(C=C4)O

> <PUBCHEM_CACTVS_TPSA>
30

> <PUBCHEM_MONOISOTOPIC_WEIGHT>
489.2313682

> <PUBCHEM_TOTAL_CHARGE>
0

> <PUBCHEM_HEAVY_ATOM_COUNT>
33

> <PUBCHEM_ATOM_DEF_STEREO_COUNT>
0

> <PUBCHEM_ATOM_UDEF_STEREO_COUNT>
1

> <PUBCHEM_BOND_DEF_STEREO_COUNT>
0

> <PUBCHEM_BOND_UDEF_STEREO_COUNT>
0

> <PUBCHEM_ISOTOPIC_ATOM_COUNT>
0

> <PUBCHEM_COMPONENT_COUNT>
1

> <PUBCHEM_CACTVS_TAUTO_COUNT>
-1

> <PUBCHEM_COORDINATE_TYPE>
1
5
255

> <PUBCHEM_BONDANNOTATIONS>
12  14  8
12  23  8
14  24  8
23  25  8
24  26  8
25  26  8
27  29  8
27  30  8
29  31  8
30  32  8
31  33  8
32  33  8
7  4  3

$$$$
