60165543
  -OEChem-09292322322D

 47 50  0     0  0  0  0  0  0999 V2000
    4.6783    1.6038    0.0000 S   0  0  0  0  0  0  0  0  0  0  0  0
    6.7619    1.6651    0.0000 O   0  0  0  0  0  0  0  0  0  0  0  0
    9.2619   -0.9330    0.0000 N   0  0  0  0  0  0  0  0  0  0  0  0
   11.2619   -0.9330    0.0000 N   0  0  0  0  0  0  0  0  0  0  0  0
   12.7619   -1.7990    0.0000 N   0  0  0  0  0  0  0  0  0  0  0  0
   12.7619   -0.0670    0.0000 N   0  0  0  0  0  0  0  0  0  0  0  0
    4.6783   -0.0057    0.0000 N   0  0  0  0  0  0  0  0  0  0  0  0
    9.7619   -1.7990    0.0000 C   0  0  0  0  0  0  0  0  0  0  0  0
    9.7619   -0.0670    0.0000 C   0  0  0  0  0  0  0  0  0  0  0  0
   10.7619   -1.7990    0.0000 C   0  0  0  0  0  0  0  0  0  0  0  0
   10.7619   -0.0670    0.0000 C   0  0  0  0  0  0  0  0  0  0  0  0
    8.2619   -0.9330    0.0000 C   0  0  0  0  0  0  0  0  0  0  0  0
    7.7619   -0.0670    0.0000 C   0  0  0  0  0  0  0  0  0  0  0  0
    6.7619   -0.0670    0.0000 C   0  0  0  0  0  0  0  0  0  0  0  0
   12.2619   -0.9330    0.0000 C   0  0  0  0  0  0  0  0  0  0  0  0
    6.2619    0.7990    0.0000 C   0  0  0  0  0  0  0  0  0  0  0  0
    5.2619    0.7990    0.0000 C   0  0  0  0  0  0  0  0  0  0  0  0
   13.7619   -1.7990    0.0000 C   0  0  0  0  0  0  0  0  0  0  0  0
   13.7619   -0.0670    0.0000 C   0  0  0  0  0  0  0  0  0  0  0  0
   14.2619   -0.9330    0.0000 C   0  0  0  0  0  0  0  0  0  0  0  0
    3.7320    1.2990    0.0000 C   0  0  0  0  0  0  0  0  0  0  0  0
    3.7320    0.2990    0.0000 C   0  0  0  0  0  0  0  0  0  0  0  0
    2.8660    1.7990    0.0000 C   0  0  0  0  0  0  0  0  0  0  0  0
    2.8660   -0.2010    0.0000 C   0  0  0  0  0  0  0  0  0  0  0  0
    2.0000    1.2990    0.0000 C   0  0  0  0  0  0  0  0  0  0  0  0
    2.0000    0.2990    0.0000 C   0  0  0  0  0  0  0  0  0  0  0  0
    9.1793   -2.0111    0.0000 H   0  0  0  0  0  0  0  0  0  0  0  0
    9.8695   -2.4096    0.0000 H   0  0  0  0  0  0  0  0  0  0  0  0
    9.8695    0.5436    0.0000 H   0  0  0  0  0  0  0  0  0  0  0  0
    9.1793    0.1451    0.0000 H   0  0  0  0  0  0  0  0  0  0  0  0
   10.6542   -2.4096    0.0000 H   0  0  0  0  0  0  0  0  0  0  0  0
   11.3445   -2.0111    0.0000 H   0  0  0  0  0  0  0  0  0  0  0  0
   11.3445    0.1451    0.0000 H   0  0  0  0  0  0  0  0  0  0  0  0
   10.6542    0.5436    0.0000 H   0  0  0  0  0  0  0  0  0  0  0  0
    7.6793   -1.1451    0.0000 H   0  0  0  0  0  0  0  0  0  0  0  0
    8.3695   -1.5436    0.0000 H   0  0  0  0  0  0  0  0  0  0  0  0
    8.3445    0.1451    0.0000 H   0  0  0  0  0  0  0  0  0  0  0  0
    7.6542    0.5436    0.0000 H   0  0  0  0  0  0  0  0  0  0  0  0
    6.1793   -0.2790    0.0000 H   0  0  0  0  0  0  0  0  0  0  0  0
    6.8695   -0.6776    0.0000 H   0  0  0  0  0  0  0  0  0  0  0  0
   14.0719   -2.3360    0.0000 H   0  0  0  0  0  0  0  0  0  0  0  0
   14.0719    0.4699    0.0000 H   0  0  0  0  0  0  0  0  0  0  0  0
   14.8819   -0.9330    0.0000 H   0  0  0  0  0  0  0  0  0  0  0  0
    2.8660    2.4190    0.0000 H   0  0  0  0  0  0  0  0  0  0  0  0
    2.8660   -0.8210    0.0000 H   0  0  0  0  0  0  0  0  0  0  0  0
    1.4631    1.6090    0.0000 H   0  0  0  0  0  0  0  0  0  0  0  0
    1.4631   -0.0110    0.0000 H   0  0  0  0  0  0  0  0  0  0  0  0
  1 17  1  0  0  0  0
  1 21  1  0  0  0  0
  2 16  2  0  0  0  0
  3  8  1  0  0  0  0
  3  9  1  0  0  0  0
  3 12  1  0  0  0  0
  4 10  1  0  0  0  0
  4 11  1  0  0  0  0
  4 15  1  0  0  0  0
  5 15  1  0  0  0  0
  5 18  2  0  0  0  0
  6 15  2  0  0  0  0
  6 19  1  0  0  0  0
  7 17  2  0  0  0  0
  7 22  1  0  0  0  0
  8 10  1  0  0  0  0
  8 27  1  0  0  0  0
  8 28  1  0  0  0  0
  9 11  1  0  0  0  0
  9 29  1  0  0  0  0
  9 30  1  0  0  0  0
 10 31  1  0  0  0  0
 10 32  1  0  0  0  0
 11 33  1  0  0  0  0
 11 34  1  0  0  0  0
 12 13  1  0  0  0  0
 12 35  1  0  0  0  0
 12 36  1  0  0  0  0
 13 14  1  0  0  0  0
 13 37  1  0  0  0  0
 13 38  1  0  0  0  0
 14 16  1  0  0  0  0
 14 39  1  0  0  0  0
 14 40  1  0  0  0  0
 16 17  1  0  0  0  0
 18 20  1  0  0  0  0
 18 41  1  0  0  0  0
 19 20  2  0  0  0  0
 19 42  1  0  0  0  0
 20 43  1  0  0  0  0
 21 22  1  0  0  0  0
 21 23  2  0  0  0  0
 22 24  2  0  0  0  0
 23 25  1  0  0  0  0
 23 44  1  0  0  0  0
 24 26  1  0  0  0  0
 24 45  1  0  0  0  0
 25 26  2  0  0  0  0
 25 46  1  0  0  0  0
 26 47  1  0  0  0  0
M  END
> <PUBCHEM_COMPOUND_CID>
60165543

> <PUBCHEM_COMPOUND_CANONICALIZED>
1

> <PUBCHEM_CACTVS_COMPLEXITY>
465

> <PUBCHEM_CACTVS_HBOND_ACCEPTOR>
7

> <PUBCHEM_CACTVS_HBOND_DONOR>
0

> <PUBCHEM_CACTVS_ROTATABLE_BOND>
6

> <PUBCHEM_CACTVS_SUBSKEYS>
AAADceB7oABAAAAAAAAAAAAAAAAAAWAAAAA8WIAAAAAAAFgB/AAAHgQAAAAACAzB1gQ90bcIEAisAbR3ZACD8KlzCrhJ2D24ZJiIaLLg2fGUJAhogALoyCcUAAAAAAAAAAAAAQAAAAAAAAACAAAAAAAAAA==

> <PUBCHEM_IUPAC_OPENEYE_NAME>
1-(1,3-benzothiazol-2-yl)-4-(4-pyrimidin-2-ylpiperazin-1-yl)butan-1-one

> <PUBCHEM_IUPAC_CAS_NAME>
1-(1,3-benzothiazol-2-yl)-4-[4-(2-pyrimidinyl)-1-piperazinyl]-1-butanone

> <PUBCHEM_IUPAC_NAME_MARKUP>
1-(1,3-benzothiazol-2-yl)-4-(4-pyrimidin-2-ylpiperazin-1-yl)butan-1-one

> <PUBCHEM_IUPAC_NAME>
1-(1,3-benzothiazol-2-yl)-4-(4-pyrimidin-2-ylpiperazin-1-yl)butan-1-one

> <PUBCHEM_IUPAC_SYSTEMATIC_NAME>
1-(1,3-benzothiazol-2-yl)-4-(4-pyrimidin-2-ylpiperazin-1-yl)butan-1-one

> <PUBCHEM_IUPAC_TRADITIONAL_NAME>
1-(1,3-benzothiazol-2-yl)-4-[4-(2-pyrimidyl)piperazino]butan-1-one

> <PUBCHEM_IUPAC_INCHI>
InChI=1S/C19H21N5OS/c25-16(18-22-15-5-1-2-7-17(15)26-18)6-3-10-23-11-13-24(14-12-23)19-20-8-4-9-21-19/h1-2,4-5,7-9H,3,6,10-14H2

> <PUBCHEM_IUPAC_INCHIKEY>
ITMQGDDPFZOVDW-UHFFFAOYSA-N

> <PUBCHEM_XLOGP3_AA>
2.9

> <PUBCHEM_EXACT_MASS>
367.14668148

> <PUBCHEM_MOLECULAR_FORMULA>
C19H21N5OS

> <PUBCHEM_MOLECULAR_WEIGHT>
367.5

> <PUBCHEM_OPENEYE_CAN_SMILES>
C1CN(CCN1CCCC(=O)C2=NC3=CC=CC=C3S2)C4=NC=CC=N4

> <PUBCHEM_OPENEYE_ISO_SMILES>
C1CN(CCN1CCCC(=O)C2=NC3=CC=CC=C3S2)C4=NC=CC=N4

> <PUBCHEM_CACTVS_TPSA>
90.5

> <PUBCHEM_MONOISOTOPIC_WEIGHT>
367.14668148

> <PUBCHEM_TOTAL_CHARGE>
0

> <PUBCHEM_HEAVY_ATOM_COUNT>
26

> <PUBCHEM_ATOM_DEF_STEREO_COUNT>
0

> <PUBCHEM_ATOM_UDEF_STEREO_COUNT>
0

> <PUBCHEM_BOND_DEF_STEREO_COUNT>
0

> <PUBCHEM_BOND_UDEF_STEREO_COUNT>
0

> <PUBCHEM_ISOTOPIC_ATOM_COUNT>
0

> <PUBCHEM_COMPONENT_COUNT>
1

> <PUBCHEM_CACTVS_TAUTO_COUNT>
-1

> <PUBCHEM_COORDINATE_TYPE>
1
5
255

> <PUBCHEM_BONDANNOTATIONS>
1  17  8
1  21  8
18  20  8
19  20  8
21  22  8
21  23  8
22  24  8
23  25  8
24  26  8
25  26  8
5  15  8
5  18  8
6  15  8
6  19  8
7  17  8
7  22  8

$$$$
