44336552
  -OEChem-09292322222D

 44 46  0     0  0  0  0  0  0999 V2000
    4.5981   -1.4521    0.0000 N   0  0  0  0  0  0  0  0  0  0  0  0
    4.5981    1.5479    0.0000 N   0  0  0  0  0  0  0  0  0  0  0  0
    9.0034    1.8778    0.0000 N   0  0  0  0  0  0  0  0  0  0  0  0
    6.6855    4.4521    0.0000 N   0  0  0  0  0  0  0  0  0  0  0  0
    4.5981    0.5479    0.0000 C   0  0  0  0  0  0  0  0  0  0  0  0
    3.7320    0.0479    0.0000 C   0  0  0  0  0  0  0  0  0  0  0  0
    5.4641    0.0479    0.0000 C   0  0  0  0  0  0  0  0  0  0  0  0
    3.7320   -0.9521    0.0000 C   0  0  0  0  0  0  0  0  0  0  0  0
    5.4641   -0.9521    0.0000 C   0  0  0  0  0  0  0  0  0  0  0  0
    4.5981   -2.4521    0.0000 C   0  0  0  0  0  0  0  0  0  0  0  0
    5.4071    2.1357    0.0000 C   0  0  0  0  0  0  0  0  0  0  0  0
    3.7891    2.1357    0.0000 C   0  0  0  0  0  0  0  0  0  0  0  0
    3.7320   -2.9521    0.0000 C   0  0  0  0  0  0  0  0  0  0  0  0
    5.0981    3.0867    0.0000 C   0  0  0  0  0  0  0  0  0  0  0  0
    4.0981    3.0867    0.0000 C   0  0  0  0  0  0  0  0  0  0  0  0
    6.3582    1.8267    0.0000 C   0  0  0  0  0  0  0  0  0  0  0  0
    2.8660   -2.4521    0.0000 C   0  0  0  0  0  0  0  0  0  0  0  0
    3.7320   -3.9521    0.0000 C   0  0  0  0  0  0  0  0  0  0  0  0
    2.0000   -2.9521    0.0000 C   0  0  0  0  0  0  0  0  0  0  0  0
    2.8660   -4.4521    0.0000 C   0  0  0  0  0  0  0  0  0  0  0  0
    7.1013    2.4958    0.0000 C   0  0  0  0  0  0  0  0  0  0  0  0
    2.0000   -3.9521    0.0000 C   0  0  0  0  0  0  0  0  0  0  0  0
    8.0524    2.1868    0.0000 C   0  0  0  0  0  0  0  0  0  0  0  0
    6.8934    3.4740    0.0000 C   0  0  0  0  0  0  0  0  0  0  0  0
    5.1350    0.8579    0.0000 H   0  0  0  0  0  0  0  0  0  0  0  0
    3.5200    0.6305    0.0000 H   0  0  0  0  0  0  0  0  0  0  0  0
    3.1215   -0.0598    0.0000 H   0  0  0  0  0  0  0  0  0  0  0  0
    6.0747   -0.0598    0.0000 H   0  0  0  0  0  0  0  0  0  0  0  0
    5.6762    0.6305    0.0000 H   0  0  0  0  0  0  0  0  0  0  0  0
    3.1215   -0.8444    0.0000 H   0  0  0  0  0  0  0  0  0  0  0  0
    3.5200   -1.5347    0.0000 H   0  0  0  0  0  0  0  0  0  0  0  0
    5.6762   -1.5347    0.0000 H   0  0  0  0  0  0  0  0  0  0  0  0
    6.0747   -0.8444    0.0000 H   0  0  0  0  0  0  0  0  0  0  0  0
    4.8101   -3.0347    0.0000 H   0  0  0  0  0  0  0  0  0  0  0  0
    5.2087   -2.3444    0.0000 H   0  0  0  0  0  0  0  0  0  0  0  0
    3.1994    1.9441    0.0000 H   0  0  0  0  0  0  0  0  0  0  0  0
    5.4625    3.5883    0.0000 H   0  0  0  0  0  0  0  0  0  0  0  0
    3.7336    3.5883    0.0000 H   0  0  0  0  0  0  0  0  0  0  0  0
    6.4870    1.2202    0.0000 H   0  0  0  0  0  0  0  0  0  0  0  0
    2.8660   -1.8321    0.0000 H   0  0  0  0  0  0  0  0  0  0  0  0
    4.2690   -4.2621    0.0000 H   0  0  0  0  0  0  0  0  0  0  0  0
    1.4631   -2.6421    0.0000 H   0  0  0  0  0  0  0  0  0  0  0  0
    2.8660   -5.0721    0.0000 H   0  0  0  0  0  0  0  0  0  0  0  0
    1.4631   -4.2621    0.0000 H   0  0  0  0  0  0  0  0  0  0  0  0
  1  8  1  0  0  0  0
  1  9  1  0  0  0  0
  1 10  1  0  0  0  0
  2  5  1  0  0  0  0
  2 11  1  0  0  0  0
  2 12  1  0  0  0  0
  3 23  3  0  0  0  0
  4 24  3  0  0  0  0
  5  6  1  0  0  0  0
  5  7  1  0  0  0  0
  5 25  1  0  0  0  0
  6  8  1  0  0  0  0
  6 26  1  0  0  0  0
  6 27  1  0  0  0  0
  7  9  1  0  0  0  0
  7 28  1  0  0  0  0
  7 29  1  0  0  0  0
  8 30  1  0  0  0  0
  8 31  1  0  0  0  0
  9 32  1  0  0  0  0
  9 33  1  0  0  0  0
 10 13  1  0  0  0  0
 10 34  1  0  0  0  0
 10 35  1  0  0  0  0
 11 14  2  0  0  0  0
 11 16  1  0  0  0  0
 12 15  2  0  0  0  0
 12 36  1  0  0  0  0
 13 17  2  0  0  0  0
 13 18  1  0  0  0  0
 14 15  1  0  0  0  0
 14 37  1  0  0  0  0
 15 38  1  0  0  0  0
 16 21  2  0  0  0  0
 16 39  1  0  0  0  0
 17 19  1  0  0  0  0
 17 40  1  0  0  0  0
 18 20  2  0  0  0  0
 18 41  1  0  0  0  0
 19 22  2  0  0  0  0
 19 42  1  0  0  0  0
 20 22  1  0  0  0  0
 20 43  1  0  0  0  0
 21 23  1  0  0  0  0
 21 24  1  0  0  0  0
 22 44  1  0  0  0  0
M  END
> <PUBCHEM_COMPOUND_CID>
44336552

> <PUBCHEM_COMPOUND_CANONICALIZED>
1

> <PUBCHEM_CACTVS_COMPLEXITY>
517

> <PUBCHEM_CACTVS_HBOND_ACCEPTOR>
3

> <PUBCHEM_CACTVS_HBOND_DONOR>
0

> <PUBCHEM_CACTVS_ROTATABLE_BOND>
4

> <PUBCHEM_CACTVS_SUBSKEYS>
AAADceB7gAAAAAAAAAAAAAAAAAAAAWAAAAA8QAAAAAAAAAABwAAAHAAAAAAADCjBHgQ8gJMMEACwBzRnRACigCAxAiAI2CA4ZJgIoOLA0ZGEIAhggADIyAcQgAAOAAAAAAAAAAAAAAAAAAAAAAAAAAAAAA==

> <PUBCHEM_IUPAC_OPENEYE_NAME>
2-[[1-(1-benzyl-4-piperidyl)pyrrol-2-yl]methylene]propanedinitrile

> <PUBCHEM_IUPAC_CAS_NAME>
2-[[1-[1-(phenylmethyl)-4-piperidinyl]-2-pyrrolyl]methylidene]propanedinitrile

> <PUBCHEM_IUPAC_NAME_MARKUP>
2-[[1-(1-benzylpiperidin-4-yl)pyrrol-2-yl]methylidene]propanedinitrile

> <PUBCHEM_IUPAC_NAME>
2-[[1-(1-benzylpiperidin-4-yl)pyrrol-2-yl]methylidene]propanedinitrile

> <PUBCHEM_IUPAC_SYSTEMATIC_NAME>
2-[[1-[1-(phenylmethyl)piperidin-4-yl]pyrrol-2-yl]methylidene]propanedinitrile

> <PUBCHEM_IUPAC_TRADITIONAL_NAME>
2-[[1-(1-benzyl-4-piperidyl)pyrrol-2-yl]methylene]malononitrile

> <PUBCHEM_IUPAC_INCHI>
InChI=1S/C20H20N4/c21-14-18(15-22)13-20-7-4-10-24(20)19-8-11-23(12-9-19)16-17-5-2-1-3-6-17/h1-7,10,13,19H,8-9,11-12,16H2

> <PUBCHEM_IUPAC_INCHIKEY>
WHTUEKIFAXDIRP-UHFFFAOYSA-N

> <PUBCHEM_XLOGP3_AA>
2.8

> <PUBCHEM_EXACT_MASS>
316.16879665

> <PUBCHEM_MOLECULAR_FORMULA>
C20H20N4

> <PUBCHEM_MOLECULAR_WEIGHT>
316.4

> <PUBCHEM_OPENEYE_CAN_SMILES>
C1CN(CCC1N2C=CC=C2C=C(C#N)C#N)CC3=CC=CC=C3

> <PUBCHEM_OPENEYE_ISO_SMILES>
C1CN(CCC1N2C=CC=C2C=C(C#N)C#N)CC3=CC=CC=C3

> <PUBCHEM_CACTVS_TPSA>
55.8

> <PUBCHEM_MONOISOTOPIC_WEIGHT>
316.16879665

> <PUBCHEM_TOTAL_CHARGE>
0

> <PUBCHEM_HEAVY_ATOM_COUNT>
24

> <PUBCHEM_ATOM_DEF_STEREO_COUNT>
0

> <PUBCHEM_ATOM_UDEF_STEREO_COUNT>
0

> <PUBCHEM_BOND_DEF_STEREO_COUNT>
0

> <PUBCHEM_BOND_UDEF_STEREO_COUNT>
0

> <PUBCHEM_ISOTOPIC_ATOM_COUNT>
0

> <PUBCHEM_COMPONENT_COUNT>
1

> <PUBCHEM_CACTVS_TAUTO_COUNT>
-1

> <PUBCHEM_COORDINATE_TYPE>
1
5
255

> <PUBCHEM_BONDANNOTATIONS>
11  14  8
12  15  8
13  17  8
13  18  8
14  15  8
17  19  8
18  20  8
19  22  8
2  11  8
2  12  8
20  22  8

$$$$
