9849443
  -OEChem-09292322212D

 69 73  0     1  0  0  0  0  0999 V2000
   10.1467   -2.0420    0.0000 S   0  0  0  0  0  0  0  0  0  0  0  0
    6.1686   -1.6239    0.0000 O   0  0  0  0  0  0  0  0  0  0  0  0
   11.1412   -2.1466    0.0000 O   0  0  0  0  0  0  0  0  0  0  0  0
   10.0422   -3.0366    0.0000 O   0  0  0  0  0  0  0  0  0  0  0  0
   10.2513   -1.0475    0.0000 O   0  0  0  0  0  0  0  0  0  0  0  0
    5.3955    2.6965    0.0000 N   0  0  3  0  0  0  0  0  0  0  0  0
    6.3661    0.2020    0.0000 N   0  0  0  0  0  0  0  0  0  0  0  0
    4.4945    3.1304    0.0000 C   0  0  3  0  0  0  0  0  0  0  0  0
    4.2720    4.1054    0.0000 C   0  0  0  0  0  0  0  0  0  0  0  0
    6.2965    3.1304    0.0000 C   0  0  0  0  0  0  0  0  0  0  0  0
    4.8955    4.8872    0.0000 C   0  0  0  0  0  0  0  0  0  0  0  0
    6.5190    4.1054    0.0000 C   0  0  0  0  0  0  0  0  0  0  0  0
    5.8955    4.8872    0.0000 C   0  0  0  0  0  0  0  0  0  0  0  0
    5.3955    1.6966    0.0000 C   0  0  0  0  0  0  0  0  0  0  0  0
    3.7127    2.5069    0.0000 C   0  0  0  0  0  0  0  0  0  0  0  0
    6.2615    1.1966    0.0000 C   0  0  0  0  0  0  0  0  0  0  0  0
    3.8618    1.5181    0.0000 C   0  0  0  0  0  0  0  0  0  0  0  0
    2.7818    2.8723    0.0000 C   0  0  0  0  0  0  0  0  0  0  0  0
    7.1751    1.6033    0.0000 C   0  0  0  0  0  0  0  0  0  0  0  0
    7.3442   -0.0059    0.0000 C   0  0  0  0  0  0  0  0  0  0  0  0
    7.8442    0.8601    0.0000 C   0  0  0  0  0  0  0  0  0  0  0  0
    3.0799    0.8946    0.0000 C   0  0  0  0  0  0  0  0  0  0  0  0
    2.0000    2.2488    0.0000 C   0  0  0  0  0  0  0  0  0  0  0  0
    2.1490    1.2600    0.0000 C   0  0  0  0  0  0  0  0  0  0  0  0
    7.7509   -0.9194    0.0000 C   0  0  0  0  0  0  0  0  0  0  0  0
    8.7455   -1.0240    0.0000 C   0  0  0  0  0  0  0  0  0  0  0  0
    7.1632   -1.7284    0.0000 C   0  0  0  0  0  0  0  0  0  0  0  0
    9.1522   -1.9375    0.0000 C   0  0  0  0  0  0  0  0  0  0  0  0
    7.5699   -2.6420    0.0000 C   0  0  0  0  0  0  0  0  0  0  0  0
    8.5644   -2.7465    0.0000 C   0  0  0  0  0  0  0  0  0  0  0  0
    5.5808   -2.4329    0.0000 C   0  0  0  0  0  0  0  0  0  0  0  0
   11.5480   -3.0601    0.0000 C   0  0  0  0  0  0  0  0  0  0  0  0
   12.5425   -3.1646    0.0000 C   0  0  0  0  0  0  0  0  0  0  0  0
   10.9602   -3.8691    0.0000 C   0  0  0  0  0  0  0  0  0  0  0  0
   12.9492   -4.0782    0.0000 C   0  0  0  0  0  0  0  0  0  0  0  0
   11.3669   -4.7827    0.0000 C   0  0  0  0  0  0  0  0  0  0  0  0
   12.3615   -4.8872    0.0000 C   0  0  0  0  0  0  0  0  0  0  0  0
    4.5640    2.5143    0.0000 H   0  0  0  0  0  0  0  0  0  0  0  0
    3.8854    4.5901    0.0000 H   0  0  0  0  0  0  0  0  0  0  0  0
    3.7134    3.8364    0.0000 H   0  0  0  0  0  0  0  0  0  0  0  0
    6.4344    2.5260    0.0000 H   0  0  0  0  0  0  0  0  0  0  0  0
    6.9165    3.1304    0.0000 H   0  0  0  0  0  0  0  0  0  0  0  0
    5.0335    5.4916    0.0000 H   0  0  0  0  0  0  0  0  0  0  0  0
    4.3369    5.1562    0.0000 H   0  0  0  0  0  0  0  0  0  0  0  0
    7.0776    3.8364    0.0000 H   0  0  0  0  0  0  0  0  0  0  0  0
    6.9056    4.5901    0.0000 H   0  0  0  0  0  0  0  0  0  0  0  0
    6.4541    5.1562    0.0000 H   0  0  0  0  0  0  0  0  0  0  0  0
    5.7575    5.4916    0.0000 H   0  0  0  0  0  0  0  0  0  0  0  0
    4.7849    1.8042    0.0000 H   0  0  0  0  0  0  0  0  0  0  0  0
    5.1834    1.1139    0.0000 H   0  0  0  0  0  0  0  0  0  0  0  0
    4.4389    1.2916    0.0000 H   0  0  0  0  0  0  0  0  0  0  0  0
    2.6894    3.4854    0.0000 H   0  0  0  0  0  0  0  0  0  0  0  0
    5.9053   -0.2128    0.0000 H   0  0  0  0  0  0  0  0  0  0  0  0
    7.3040    2.2097    0.0000 H   0  0  0  0  0  0  0  0  0  0  0  0
    8.4608    0.9250    0.0000 H   0  0  0  0  0  0  0  0  0  0  0  0
    3.1723    0.2816    0.0000 H   0  0  0  0  0  0  0  0  0  0  0  0
    1.4229    2.4753    0.0000 H   0  0  0  0  0  0  0  0  0  0  0  0
    1.6643    0.8734    0.0000 H   0  0  0  0  0  0  0  0  0  0  0  0
    9.1099   -0.5224    0.0000 H   0  0  0  0  0  0  0  0  0  0  0  0
    7.2055   -3.1436    0.0000 H   0  0  0  0  0  0  0  0  0  0  0  0
    8.8166   -3.3129    0.0000 H   0  0  0  0  0  0  0  0  0  0  0  0
    5.0793   -2.0685    0.0000 H   0  0  0  0  0  0  0  0  0  0  0  0
    5.2164   -2.9345    0.0000 H   0  0  0  0  0  0  0  0  0  0  0  0
    6.0824   -2.7974    0.0000 H   0  0  0  0  0  0  0  0  0  0  0  0
   12.9069   -2.6630    0.0000 H   0  0  0  0  0  0  0  0  0  0  0  0
   10.3436   -3.8043    0.0000 H   0  0  0  0  0  0  0  0  0  0  0  0
   13.5658   -4.1430    0.0000 H   0  0  0  0  0  0  0  0  0  0  0  0
   11.0025   -5.2843    0.0000 H   0  0  0  0  0  0  0  0  0  0  0  0
   12.6136   -5.4536    0.0000 H   0  0  0  0  0  0  0  0  0  0  0  0
  1  3  1  0  0  0  0
  1  4  2  0  0  0  0
  1  5  2  0  0  0  0
  1 28  1  0  0  0  0
  2 27  1  0  0  0  0
  2 31  1  0  0  0  0
  3 32  1  0  0  0  0
  6  8  1  0  0  0  0
  6 10  1  0  0  0  0
  6 14  1  0  0  0  0
  7 16  1  0  0  0  0
  7 20  1  0  0  0  0
  7 53  1  0  0  0  0
  8  9  1  0  0  0  0
  8 15  1  0  0  0  0
  8 38  1  0  0  0  0
  9 11  1  0  0  0  0
  9 39  1  0  0  0  0
  9 40  1  0  0  0  0
 10 12  1  0  0  0  0
 10 41  1  0  0  0  0
 10 42  1  0  0  0  0
 11 13  1  0  0  0  0
 11 43  1  0  0  0  0
 11 44  1  0  0  0  0
 12 13  1  0  0  0  0
 12 45  1  0  0  0  0
 12 46  1  0  0  0  0
 13 47  1  0  0  0  0
 13 48  1  0  0  0  0
 14 16  1  0  0  0  0
 14 49  1  0  0  0  0
 14 50  1  0  0  0  0
 15 17  2  0  0  0  0
 15 18  1  0  0  0  0
 16 19  2  0  0  0  0
 17 22  1  0  0  0  0
 17 51  1  0  0  0  0
 18 23  2  0  0  0  0
 18 52  1  0  0  0  0
 19 21  1  0  0  0  0
 19 54  1  0  0  0  0
 20 21  2  0  0  0  0
 20 25  1  0  0  0  0
 21 55  1  0  0  0  0
 22 24  2  0  0  0  0
 22 56  1  0  0  0  0
 23 24  1  0  0  0  0
 23 57  1  0  0  0  0
 24 58  1  0  0  0  0
 25 26  1  0  0  0  0
 25 27  2  0  0  0  0
 26 28  2  0  0  0  0
 26 59  1  0  0  0  0
 27 29  1  0  0  0  0
 28 30  1  0  0  0  0
 29 30  2  0  0  0  0
 29 60  1  0  0  0  0
 30 61  1  0  0  0  0
 31 62  1  0  0  0  0
 31 63  1  0  0  0  0
 31 64  1  0  0  0  0
 32 33  2  0  0  0  0
 32 34  1  0  0  0  0
 33 35  1  0  0  0  0
 33 65  1  0  0  0  0
 34 36  2  0  0  0  0
 34 66  1  0  0  0  0
 35 37  2  0  0  0  0
 35 67  1  0  0  0  0
 36 37  1  0  0  0  0
 36 68  1  0  0  0  0
 37 69  1  0  0  0  0
M  END
> <PUBCHEM_COMPOUND_CID>
9849443

> <PUBCHEM_COMPOUND_CANONICALIZED>
1

> <PUBCHEM_CACTVS_COMPLEXITY>
790

> <PUBCHEM_CACTVS_HBOND_ACCEPTOR>
5

> <PUBCHEM_CACTVS_HBOND_DONOR>
1

> <PUBCHEM_CACTVS_ROTATABLE_BOND>
8

> <PUBCHEM_CACTVS_SUBSKEYS>
AAADcfB7OABAAAAAAAAAAAAAAAAAAWAAAAAwYMAABYAAAAAB1AAAHgQQAAAADCzB3gYyh5PJlAKgAyRiRHDCiGAhIiAImTg+bJgMZuLEsZuUMChm0BHI6AeQwOAOAIAAgAAIAAABAAEAABAAAAAAAAAAAA==

> <PUBCHEM_IUPAC_OPENEYE_NAME>
phenyl 4-methoxy-3-[5-[(2-phenylazepan-1-yl)methyl]-1H-pyrrol-2-yl]benzenesulfonate

> <PUBCHEM_IUPAC_CAS_NAME>
4-methoxy-3-[5-[(2-phenyl-1-azepanyl)methyl]-1H-pyrrol-2-yl]benzenesulfonic acid phenyl ester

> <PUBCHEM_IUPAC_NAME_MARKUP>
phenyl 4-methoxy-3-[5-[(2-phenylazepan-1-yl)methyl]-1<I>H</I>-pyrrol-2-yl]benzenesulfonate

> <PUBCHEM_IUPAC_NAME>
phenyl 4-methoxy-3-[5-[(2-phenylazepan-1-yl)methyl]-1H-pyrrol-2-yl]benzenesulfonate

> <PUBCHEM_IUPAC_SYSTEMATIC_NAME>
phenyl 4-methoxy-3-[5-[(2-phenylazepan-1-yl)methyl]-1H-pyrrol-2-yl]benzenesulfonate

> <PUBCHEM_IUPAC_TRADITIONAL_NAME>
4-methoxy-3-[5-[(2-phenylazepan-1-yl)methyl]-1H-pyrrol-2-yl]benzenesulfonic acid phenyl ester

> <PUBCHEM_IUPAC_INCHI>
InChI=1S/C30H32N2O4S/c1-35-30-19-17-26(37(33,34)36-25-13-7-3-8-14-25)21-27(30)28-18-16-24(31-28)22-32-20-10-4-9-15-29(32)23-11-5-2-6-12-23/h2-3,5-8,11-14,16-19,21,29,31H,4,9-10,15,20,22H2,1H3

> <PUBCHEM_IUPAC_INCHIKEY>
RTJYNDZSOVYLSA-UHFFFAOYSA-N

> <PUBCHEM_XLOGP3_AA>
6

> <PUBCHEM_EXACT_MASS>
516.20827868

> <PUBCHEM_MOLECULAR_FORMULA>
C30H32N2O4S

> <PUBCHEM_MOLECULAR_WEIGHT>
516.7

> <PUBCHEM_OPENEYE_CAN_SMILES>
COC1=C(C=C(C=C1)S(=O)(=O)OC2=CC=CC=C2)C3=CC=C(N3)CN4CCCCCC4C5=CC=CC=C5

> <PUBCHEM_OPENEYE_ISO_SMILES>
COC1=C(C=C(C=C1)S(=O)(=O)OC2=CC=CC=C2)C3=CC=C(N3)CN4CCCCCC4C5=CC=CC=C5

> <PUBCHEM_CACTVS_TPSA>
80

> <PUBCHEM_MONOISOTOPIC_WEIGHT>
516.20827868

> <PUBCHEM_TOTAL_CHARGE>
0

> <PUBCHEM_HEAVY_ATOM_COUNT>
37

> <PUBCHEM_ATOM_DEF_STEREO_COUNT>
0

> <PUBCHEM_ATOM_UDEF_STEREO_COUNT>
1

> <PUBCHEM_BOND_DEF_STEREO_COUNT>
0

> <PUBCHEM_BOND_UDEF_STEREO_COUNT>
0

> <PUBCHEM_ISOTOPIC_ATOM_COUNT>
0

> <PUBCHEM_COMPONENT_COUNT>
1

> <PUBCHEM_CACTVS_TAUTO_COUNT>
-1

> <PUBCHEM_COORDINATE_TYPE>
1
5
255

> <PUBCHEM_BONDANNOTATIONS>
15  17  8
15  18  8
16  19  8
17  22  8
18  23  8
19  21  8
20  21  8
22  24  8
23  24  8
25  26  8
25  27  8
26  28  8
27  29  8
28  30  8
29  30  8
32  33  8
32  34  8
33  35  8
34  36  8
35  37  8
36  37  8
7  16  8
7  20  8
8  15  3

$$$$
