153287574
  -OEChem-09292322462D

 42 44  0     1  0  0  0  0  0999 V2000
    4.6660   -0.2500    0.0000 N   0  0  0  0  0  0  0  0  0  0  0  0
    6.0321    2.1160    0.0000 N   0  0  0  0  0  0  0  0  0  0  0  0
    5.5321    1.2500    0.0000 C   0  0  1  0  0  0  0  0  0  0  0  0
    4.6660    1.7500    0.0000 C   0  0  2  0  0  0  0  0  0  0  0  0
    5.5321    0.2500    0.0000 C   0  0  0  0  0  0  0  0  0  0  0  0
    3.8000    1.2500    0.0000 C   0  0  0  0  0  0  0  0  0  0  0  0
    4.6660    2.7500    0.0000 C   0  0  0  0  0  0  0  0  0  0  0  0
    3.8000    0.2500    0.0000 C   0  0  0  0  0  0  0  0  0  0  0  0
    6.5321    1.2500    0.0000 C   0  0  0  0  0  0  0  0  0  0  0  0
    2.9061    1.7847    0.0000 C   0  0  0  0  0  0  0  0  0  0  0  0
    4.6660   -1.2500    0.0000 C   0  0  0  0  0  0  0  0  0  0  0  0
    3.8000    3.2500    0.0000 C   0  0  0  0  0  0  0  0  0  0  0  0
    2.9061   -0.2847    0.0000 C   0  0  0  0  0  0  0  0  0  0  0  0
    2.0000    1.2708    0.0000 C   0  0  0  0  0  0  0  0  0  0  0  0
    2.0000    0.2292    0.0000 C   0  0  0  0  0  0  0  0  0  0  0  0
    5.5321   -1.7500    0.0000 C   0  0  0  0  0  0  0  0  0  0  0  0
    3.8000   -1.7500    0.0000 C   0  0  0  0  0  0  0  0  0  0  0  0
    5.5321   -2.7500    0.0000 C   0  0  0  0  0  0  0  0  0  0  0  0
    3.8000   -2.7500    0.0000 C   0  0  0  0  0  0  0  0  0  0  0  0
    4.6660   -3.2500    0.0000 C   0  0  0  0  0  0  0  0  0  0  0  0
    5.2030    2.0600    0.0000 H   0  0  0  0  0  0  0  0  0  0  0  0
    5.7441   -0.3326    0.0000 H   0  0  0  0  0  0  0  0  0  0  0  0
    6.1426    0.3577    0.0000 H   0  0  0  0  0  0  0  0  0  0  0  0
    5.2766    2.6423    0.0000 H   0  0  0  0  0  0  0  0  0  0  0  0
    4.8781    3.3326    0.0000 H   0  0  0  0  0  0  0  0  0  0  0  0
    6.5321    0.6300    0.0000 H   0  0  0  0  0  0  0  0  0  0  0  0
    7.1521    1.2500    0.0000 H   0  0  0  0  0  0  0  0  0  0  0  0
    6.5321    1.8700    0.0000 H   0  0  0  0  0  0  0  0  0  0  0  0
    6.6521    2.1160    0.0000 H   0  0  0  0  0  0  0  0  0  0  0  0
    5.7221    2.6530    0.0000 H   0  0  0  0  0  0  0  0  0  0  0  0
    2.9132    2.4046    0.0000 H   0  0  0  0  0  0  0  0  0  0  0  0
    4.1100    3.7869    0.0000 H   0  0  0  0  0  0  0  0  0  0  0  0
    3.2631    3.5600    0.0000 H   0  0  0  0  0  0  0  0  0  0  0  0
    3.4900    2.7131    0.0000 H   0  0  0  0  0  0  0  0  0  0  0  0
    2.9132   -0.9046    0.0000 H   0  0  0  0  0  0  0  0  0  0  0  0
    1.4643    1.5829    0.0000 H   0  0  0  0  0  0  0  0  0  0  0  0
    1.4643   -0.0829    0.0000 H   0  0  0  0  0  0  0  0  0  0  0  0
    6.0690   -1.4400    0.0000 H   0  0  0  0  0  0  0  0  0  0  0  0
    3.2631   -1.4400    0.0000 H   0  0  0  0  0  0  0  0  0  0  0  0
    6.0690   -3.0600    0.0000 H   0  0  0  0  0  0  0  0  0  0  0  0
    3.2631   -3.0600    0.0000 H   0  0  0  0  0  0  0  0  0  0  0  0
    4.6660   -3.8700    0.0000 H   0  0  0  0  0  0  0  0  0  0  0  0
  1  5  1  0  0  0  0
  1  8  1  0  0  0  0
  1 11  1  0  0  0  0
  3  2  1  6  0  0  0
  2 29  1  0  0  0  0
  2 30  1  0  0  0  0
  3  4  1  0  0  0  0
  3  5  1  0  0  0  0
  3  9  1  0  0  0  0
  4  6  1  0  0  0  0
  4  7  1  6  0  0  0
  4 21  1  0  0  0  0
  5 22  1  0  0  0  0
  5 23  1  0  0  0  0
  6  8  1  0  0  0  0
  6 10  2  0  0  0  0
  7 12  1  0  0  0  0
  7 24  1  0  0  0  0
  7 25  1  0  0  0  0
  8 13  2  0  0  0  0
  9 26  1  0  0  0  0
  9 27  1  0  0  0  0
  9 28  1  0  0  0  0
 10 14  1  0  0  0  0
 10 31  1  0  0  0  0
 11 16  2  0  0  0  0
 11 17  1  0  0  0  0
 12 32  1  0  0  0  0
 12 33  1  0  0  0  0
 12 34  1  0  0  0  0
 13 15  1  0  0  0  0
 13 35  1  0  0  0  0
 14 15  2  0  0  0  0
 14 36  1  0  0  0  0
 15 37  1  0  0  0  0
 16 18  1  0  0  0  0
 16 38  1  0  0  0  0
 17 19  2  0  0  0  0
 17 39  1  0  0  0  0
 18 20  2  0  0  0  0
 18 40  1  0  0  0  0
 19 20  1  0  0  0  0
 19 41  1  0  0  0  0
 20 42  1  0  0  0  0
M  END
> <PUBCHEM_COMPOUND_CID>
153287574

> <PUBCHEM_COMPOUND_CANONICALIZED>
1

> <PUBCHEM_CACTVS_COMPLEXITY>
323

> <PUBCHEM_CACTVS_HBOND_ACCEPTOR>
2

> <PUBCHEM_CACTVS_HBOND_DONOR>
1

> <PUBCHEM_CACTVS_ROTATABLE_BOND>
2

> <PUBCHEM_CACTVS_SUBSKEYS>
AAADceB7AAAAAAAAAAAAAAAAAAAAAAAAAAA8YIAAAAAAAACxQAAAHAAQAAAADYjBGAQywINAAACAAiRCQACCAAAhAgAIiAAIZIgIYGLAkZGUIAhgkADIyAcQgMAOgAAAAAACAAAAAAAAAAQAAAAAAAAAAA==

> <PUBCHEM_IUPAC_OPENEYE_NAME>
(3S,4S)-4-ethyl-3-methyl-1-phenyl-2,4-dihydroquinolin-3-amine

> <PUBCHEM_IUPAC_CAS_NAME>
(3S,4S)-4-ethyl-3-methyl-1-phenyl-2,4-dihydroquinolin-3-amine

> <PUBCHEM_IUPAC_NAME_MARKUP>
(3<I>S</I>,4<I>S</I>)-4-ethyl-3-methyl-1-phenyl-2,4-dihydroquinolin-3-amine

> <PUBCHEM_IUPAC_NAME>
(3S,4S)-4-ethyl-3-methyl-1-phenyl-2,4-dihydroquinolin-3-amine

> <PUBCHEM_IUPAC_SYSTEMATIC_NAME>
(3S,4S)-4-ethyl-3-methyl-1-phenyl-2,4-dihydroquinolin-3-amine

> <PUBCHEM_IUPAC_TRADITIONAL_NAME>
[(3S,4S)-4-ethyl-3-methyl-1-phenyl-2,4-dihydroquinolin-3-yl]amine

> <PUBCHEM_IUPAC_INCHI>
InChI=1S/C18H22N2/c1-3-16-15-11-7-8-12-17(15)20(13-18(16,2)19)14-9-5-4-6-10-14/h4-12,16H,3,13,19H2,1-2H3/t16-,18+/m0/s1

> <PUBCHEM_IUPAC_INCHIKEY>
WJDLKMWEXVEBMK-FUHWJXTLSA-N

> <PUBCHEM_XLOGP3_AA>
3.6

> <PUBCHEM_EXACT_MASS>
266.178298710

> <PUBCHEM_MOLECULAR_FORMULA>
C18H22N2

> <PUBCHEM_MOLECULAR_WEIGHT>
266.4

> <PUBCHEM_OPENEYE_CAN_SMILES>
CCC1C2=CC=CC=C2N(CC1(C)N)C3=CC=CC=C3

> <PUBCHEM_OPENEYE_ISO_SMILES>
CC[C@H]1C2=CC=CC=C2N(C[C@@]1(C)N)C3=CC=CC=C3

> <PUBCHEM_CACTVS_TPSA>
29.3

> <PUBCHEM_MONOISOTOPIC_WEIGHT>
266.178298710

> <PUBCHEM_TOTAL_CHARGE>
0

> <PUBCHEM_HEAVY_ATOM_COUNT>
20

> <PUBCHEM_ATOM_DEF_STEREO_COUNT>
2

> <PUBCHEM_ATOM_UDEF_STEREO_COUNT>
0

> <PUBCHEM_BOND_DEF_STEREO_COUNT>
0

> <PUBCHEM_BOND_UDEF_STEREO_COUNT>
0

> <PUBCHEM_ISOTOPIC_ATOM_COUNT>
0

> <PUBCHEM_COMPONENT_COUNT>
1

> <PUBCHEM_CACTVS_TAUTO_COUNT>
-1

> <PUBCHEM_COORDINATE_TYPE>
1
5
255

> <PUBCHEM_BONDANNOTATIONS>
10  14  8
11  16  8
11  17  8
13  15  8
14  15  8
16  18  8
17  19  8
18  20  8
19  20  8
3  2  6
4  7  6
6  10  8
6  8  8
8  13  8

$$$$
