44374411
  -OEChem-09292322152D

 58 61  0     1  0  0  0  0  0999 V2000
    2.0000    2.2320    0.0000 Br  0  0  0  0  0  0  0  0  0  0  0  0
   17.6279   -1.3660    0.0000 F   0  0  0  0  0  0  0  0  0  0  0  0
   11.6279   -1.3660    0.0000 O   0  0  0  0  0  0  0  0  0  0  0  0
    6.1279    1.2320    0.0000 N   0  0  3  0  0  0  0  0  0  0  0  0
   11.6279    0.3660    0.0000 N   0  0  0  0  0  0  0  0  0  0  0  0
    8.6279    0.3660    0.0000 C   0  0  0  0  0  0  0  0  0  0  0  0
    9.1279   -0.5000    0.0000 C   0  0  0  0  0  0  0  0  0  0  0  0
    9.1279    1.2320    0.0000 C   0  0  0  0  0  0  0  0  0  0  0  0
   10.6279    0.3660    0.0000 C   0  0  0  0  0  0  0  0  0  0  0  0
   10.1279   -0.5000    0.0000 C   0  0  0  0  0  0  0  0  0  0  0  0
   10.1279    1.2320    0.0000 C   0  0  0  0  0  0  0  0  0  0  0  0
    7.6279    0.3660    0.0000 C   0  0  0  0  0  0  0  0  0  0  0  0
    7.1279    1.2320    0.0000 C   0  0  0  0  0  0  0  0  0  0  0  0
    5.5443    2.0368    0.0000 C   0  0  0  0  0  0  0  0  0  0  0  0
    5.5443    0.4273    0.0000 C   0  0  0  0  0  0  0  0  0  0  0  0
    4.5981    1.7320    0.0000 C   0  0  0  0  0  0  0  0  0  0  0  0
    4.5981    0.7321    0.0000 C   0  0  0  0  0  0  0  0  0  0  0  0
   12.1279   -0.5000    0.0000 C   0  0  0  0  0  0  0  0  0  0  0  0
    3.7320    2.2320    0.0000 C   0  0  0  0  0  0  0  0  0  0  0  0
    3.7320    0.2321    0.0000 C   0  0  0  0  0  0  0  0  0  0  0  0
    2.8660    1.7320    0.0000 C   0  0  0  0  0  0  0  0  0  0  0  0
    2.8660    0.7321    0.0000 C   0  0  0  0  0  0  0  0  0  0  0  0
   13.1279   -0.5000    0.0000 C   0  0  0  0  0  0  0  0  0  0  0  0
   13.6279   -1.3660    0.0000 C   0  0  0  0  0  0  0  0  0  0  0  0
   14.6279   -1.3660    0.0000 C   0  0  0  0  0  0  0  0  0  0  0  0
   15.1279   -2.2320    0.0000 C   0  0  0  0  0  0  0  0  0  0  0  0
   15.1279   -0.5000    0.0000 C   0  0  0  0  0  0  0  0  0  0  0  0
   16.1279   -2.2320    0.0000 C   0  0  0  0  0  0  0  0  0  0  0  0
   16.1279   -0.5000    0.0000 C   0  0  0  0  0  0  0  0  0  0  0  0
   16.6279   -1.3660    0.0000 C   0  0  0  0  0  0  0  0  0  0  0  0
    8.3179    0.9030    0.0000 H   0  0  0  0  0  0  0  0  0  0  0  0
    8.5453   -0.7121    0.0000 H   0  0  0  0  0  0  0  0  0  0  0  0
    9.2356   -1.1106    0.0000 H   0  0  0  0  0  0  0  0  0  0  0  0
    9.2356    1.8426    0.0000 H   0  0  0  0  0  0  0  0  0  0  0  0
    8.5453    1.4441    0.0000 H   0  0  0  0  0  0  0  0  0  0  0  0
   10.9379    0.9030    0.0000 H   0  0  0  0  0  0  0  0  0  0  0  0
   10.0202   -1.1106    0.0000 H   0  0  0  0  0  0  0  0  0  0  0  0
   10.7105   -0.7121    0.0000 H   0  0  0  0  0  0  0  0  0  0  0  0
   10.7105    1.4441    0.0000 H   0  0  0  0  0  0  0  0  0  0  0  0
   10.0202    1.8426    0.0000 H   0  0  0  0  0  0  0  0  0  0  0  0
    7.0453    0.1540    0.0000 H   0  0  0  0  0  0  0  0  0  0  0  0
    7.7356   -0.2446    0.0000 H   0  0  0  0  0  0  0  0  0  0  0  0
    7.7105    1.4441    0.0000 H   0  0  0  0  0  0  0  0  0  0  0  0
    7.0202    1.8426    0.0000 H   0  0  0  0  0  0  0  0  0  0  0  0
   11.9379    0.9030    0.0000 H   0  0  0  0  0  0  0  0  0  0  0  0
    6.0817    2.3460    0.0000 H   0  0  0  0  0  0  0  0  0  0  0  0
    5.2933    2.6037    0.0000 H   0  0  0  0  0  0  0  0  0  0  0  0
    5.2933   -0.1396    0.0000 H   0  0  0  0  0  0  0  0  0  0  0  0
    6.0817    0.1181    0.0000 H   0  0  0  0  0  0  0  0  0  0  0  0
    3.7320    2.8521    0.0000 H   0  0  0  0  0  0  0  0  0  0  0  0
    3.7320   -0.3879    0.0000 H   0  0  0  0  0  0  0  0  0  0  0  0
    2.3291    0.4221    0.0000 H   0  0  0  0  0  0  0  0  0  0  0  0
   13.4379    0.0369    0.0000 H   0  0  0  0  0  0  0  0  0  0  0  0
   13.3179   -1.9030    0.0000 H   0  0  0  0  0  0  0  0  0  0  0  0
   14.8179   -2.7690    0.0000 H   0  0  0  0  0  0  0  0  0  0  0  0
   14.8179    0.0369    0.0000 H   0  0  0  0  0  0  0  0  0  0  0  0
   16.4379   -2.7690    0.0000 H   0  0  0  0  0  0  0  0  0  0  0  0
   16.4379    0.0369    0.0000 H   0  0  0  0  0  0  0  0  0  0  0  0
  1 21  1  0  0  0  0
  2 30  1  0  0  0  0
  3 18  2  0  0  0  0
  4 13  1  0  0  0  0
  4 14  1  0  0  0  0
  4 15  1  0  0  0  0
  5  9  1  0  0  0  0
  5 18  1  0  0  0  0
  5 45  1  0  0  0  0
  6  7  1  0  0  0  0
  6  8  1  0  0  0  0
  6 12  1  0  0  0  0
  6 31  1  0  0  0  0
  7 10  1  0  0  0  0
  7 32  1  0  0  0  0
  7 33  1  0  0  0  0
  8 11  1  0  0  0  0
  8 34  1  0  0  0  0
  8 35  1  0  0  0  0
  9 10  1  0  0  0  0
  9 11  1  0  0  0  0
  9 36  1  0  0  0  0
 10 37  1  0  0  0  0
 10 38  1  0  0  0  0
 11 39  1  0  0  0  0
 11 40  1  0  0  0  0
 12 13  1  0  0  0  0
 12 41  1  0  0  0  0
 12 42  1  0  0  0  0
 13 43  1  0  0  0  0
 13 44  1  0  0  0  0
 14 16  1  0  0  0  0
 14 46  1  0  0  0  0
 14 47  1  0  0  0  0
 15 17  1  0  0  0  0
 15 48  1  0  0  0  0
 15 49  1  0  0  0  0
 16 17  2  0  0  0  0
 16 19  1  0  0  0  0
 17 20  1  0  0  0  0
 18 23  1  0  0  0  0
 19 21  2  0  0  0  0
 19 50  1  0  0  0  0
 20 22  2  0  0  0  0
 20 51  1  0  0  0  0
 21 22  1  0  0  0  0
 22 52  1  0  0  0  0
 23 24  2  0  0  0  0
 23 53  1  0  0  0  0
 24 25  1  0  0  0  0
 24 54  1  0  0  0  0
 25 26  2  0  0  0  0
 25 27  1  0  0  0  0
 26 28  1  0  0  0  0
 26 55  1  0  0  0  0
 27 29  2  0  0  0  0
 27 56  1  0  0  0  0
 28 30  2  0  0  0  0
 28 57  1  0  0  0  0
 29 30  1  0  0  0  0
 29 58  1  0  0  0  0
M  END
> <PUBCHEM_COMPOUND_CID>
44374411

> <PUBCHEM_COMPOUND_CANONICALIZED>
1

> <PUBCHEM_CACTVS_COMPLEXITY>
584

> <PUBCHEM_CACTVS_HBOND_ACCEPTOR>
3

> <PUBCHEM_CACTVS_HBOND_DONOR>
1

> <PUBCHEM_CACTVS_ROTATABLE_BOND>
6

> <PUBCHEM_CACTVS_SUBSKEYS>
AAADceB7IQAAEAAAAAAAAAAAAAAAAWAAAAAwYMAAAAAAAFgBQAAAHwBQAAABrSjBmAwwAIPAAACIAiFSEACCAAAgAAQIiIAIBOgIICKAkRGEIAhglgCIi5cQgIAOggAAEAAQAAAUAAAgACAAAAAAAAAAAA==

> <PUBCHEM_IUPAC_OPENEYE_NAME>
(E)-N-[4-[2-(5-bromoisoindolin-2-yl)ethyl]cyclohexyl]-3-(4-fluorophenyl)prop-2-enamide

> <PUBCHEM_IUPAC_CAS_NAME>
(E)-N-[4-[2-(5-bromo-1,3-dihydroisoindol-2-yl)ethyl]cyclohexyl]-3-(4-fluorophenyl)-2-propenamide

> <PUBCHEM_IUPAC_NAME_MARKUP>
(<I>E</I>)-<I>N</I>-[4-[2-(5-bromo-1,3-dihydroisoindol-2-yl)ethyl]cyclohexyl]-3-(4-fluorophenyl)prop-2-enamide

> <PUBCHEM_IUPAC_NAME>
(E)-N-[4-[2-(5-bromo-1,3-dihydroisoindol-2-yl)ethyl]cyclohexyl]-3-(4-fluorophenyl)prop-2-enamide

> <PUBCHEM_IUPAC_SYSTEMATIC_NAME>
(E)-N-[4-[2-(5-bromanyl-1,3-dihydroisoindol-2-yl)ethyl]cyclohexyl]-3-(4-fluorophenyl)prop-2-enamide

> <PUBCHEM_IUPAC_TRADITIONAL_NAME>
(E)-N-[4-[2-(5-bromoisoindolin-2-yl)ethyl]cyclohexyl]-3-(4-fluorophenyl)acrylamide

> <PUBCHEM_IUPAC_INCHI>
InChI=1S/C25H28BrFN2O/c26-22-7-6-20-16-29(17-21(20)15-22)14-13-19-3-10-24(11-4-19)28-25(30)12-5-18-1-8-23(27)9-2-18/h1-2,5-9,12,15,19,24H,3-4,10-11,13-14,16-17H2,(H,28,30)/b12-5+

> <PUBCHEM_IUPAC_INCHIKEY>
KZHRZLVMRCWAML-LFYBBSHMSA-N

> <PUBCHEM_XLOGP3_AA>
5.4

> <PUBCHEM_EXACT_MASS>
470.13690

> <PUBCHEM_MOLECULAR_FORMULA>
C25H28BrFN2O

> <PUBCHEM_MOLECULAR_WEIGHT>
471.4

> <PUBCHEM_OPENEYE_CAN_SMILES>
C1CC(CCC1CCN2CC3=C(C2)C=C(C=C3)Br)NC(=O)C=CC4=CC=C(C=C4)F

> <PUBCHEM_OPENEYE_ISO_SMILES>
C1CC(CCC1CCN2CC3=C(C2)C=C(C=C3)Br)NC(=O)/C=C/C4=CC=C(C=C4)F

> <PUBCHEM_CACTVS_TPSA>
32.3

> <PUBCHEM_MONOISOTOPIC_WEIGHT>
470.13690

> <PUBCHEM_TOTAL_CHARGE>
0

> <PUBCHEM_HEAVY_ATOM_COUNT>
30

> <PUBCHEM_ATOM_DEF_STEREO_COUNT>
0

> <PUBCHEM_ATOM_UDEF_STEREO_COUNT>
0

> <PUBCHEM_BOND_DEF_STEREO_COUNT>
1

> <PUBCHEM_BOND_UDEF_STEREO_COUNT>
0

> <PUBCHEM_ISOTOPIC_ATOM_COUNT>
0

> <PUBCHEM_COMPONENT_COUNT>
1

> <PUBCHEM_CACTVS_TAUTO_COUNT>
-1

> <PUBCHEM_COORDINATE_TYPE>
1
5
255

> <PUBCHEM_BONDANNOTATIONS>
16  17  8
16  19  8
17  20  8
19  21  8
20  22  8
21  22  8
25  26  8
25  27  8
26  28  8
27  29  8
28  30  8
29  30  8

$$$$
