164623281
  -OEChem-09292322432D

 56 59  0     0  0  0  0  0  0999 V2000
   12.7619    4.7753    0.0000 Cl  0  0  0  0  0  0  0  0  0  0  0  0
    4.6783   -3.8237    0.0000 S   0  0  0  0  0  0  0  0  0  0  0  0
    5.4883   -4.4101    0.0000 O   0  0  0  0  0  0  0  0  0  0  0  0
    4.3709   -4.7753    0.0000 O   0  0  0  0  0  0  0  0  0  0  0  0
    4.9889   -1.2637    0.0000 O   0  0  0  0  0  0  0  0  0  0  0  0
    9.7619   -0.4209    0.0000 N   0  0  0  0  0  0  0  0  0  0  0  0
   10.7619    1.3112    0.0000 N   0  0  0  0  0  0  0  0  0  0  0  0
    5.2619   -3.0189    0.0000 N   0  0  0  0  0  0  0  0  0  0  0  0
   10.7619   -0.4209    0.0000 C   0  0  0  0  0  0  0  0  0  0  0  0
    9.2619    0.4451    0.0000 C   0  0  0  0  0  0  0  0  0  0  0  0
    9.2619   -1.2869    0.0000 C   0  0  0  0  0  0  0  0  0  0  0  0
   11.2619    0.4451    0.0000 C   0  0  0  0  0  0  0  0  0  0  0  0
    9.7619    1.3112    0.0000 C   0  0  0  0  0  0  0  0  0  0  0  0
    8.2619   -1.2869    0.0000 C   0  0  0  0  0  0  0  0  0  0  0  0
    7.7619   -2.1529    0.0000 C   0  0  0  0  0  0  0  0  0  0  0  0
    6.7619   -2.1529    0.0000 C   0  0  0  0  0  0  0  0  0  0  0  0
    6.2619   -3.0189    0.0000 C   0  0  0  0  0  0  0  0  0  0  0  0
   11.2619    2.1772    0.0000 C   0  0  0  0  0  0  0  0  0  0  0  0
    3.7320   -3.5190    0.0000 C   0  0  0  0  0  0  0  0  0  0  0  0
    4.6783   -2.2142    0.0000 C   0  0  0  0  0  0  0  0  0  0  0  0
    3.7320   -2.5189    0.0000 C   0  0  0  0  0  0  0  0  0  0  0  0
   10.7619    3.0432    0.0000 C   0  0  0  0  0  0  0  0  0  0  0  0
   12.2619    2.1772    0.0000 C   0  0  0  0  0  0  0  0  0  0  0  0
    2.8660   -4.0190    0.0000 C   0  0  0  0  0  0  0  0  0  0  0  0
    2.8660   -2.0189    0.0000 C   0  0  0  0  0  0  0  0  0  0  0  0
    2.0000   -3.5190    0.0000 C   0  0  0  0  0  0  0  0  0  0  0  0
   11.2619    3.9092    0.0000 C   0  0  0  0  0  0  0  0  0  0  0  0
   12.7619    3.0432    0.0000 C   0  0  0  0  0  0  0  0  0  0  0  0
    2.0000   -2.5189    0.0000 C   0  0  0  0  0  0  0  0  0  0  0  0
   12.2619    3.9092    0.0000 C   0  0  0  0  0  0  0  0  0  0  0  0
   10.6542   -1.0315    0.0000 H   0  0  0  0  0  0  0  0  0  0  0  0
   11.3445   -0.6329    0.0000 H   0  0  0  0  0  0  0  0  0  0  0  0
    8.7869    0.8437    0.0000 H   0  0  0  0  0  0  0  0  0  0  0  0
    8.7869    0.0466    0.0000 H   0  0  0  0  0  0  0  0  0  0  0  0
    9.1542   -1.8975    0.0000 H   0  0  0  0  0  0  0  0  0  0  0  0
    9.8445   -1.4990    0.0000 H   0  0  0  0  0  0  0  0  0  0  0  0
   11.7368    0.0466    0.0000 H   0  0  0  0  0  0  0  0  0  0  0  0
   11.7368    0.8437    0.0000 H   0  0  0  0  0  0  0  0  0  0  0  0
    9.8695    1.9218    0.0000 H   0  0  0  0  0  0  0  0  0  0  0  0
    9.1793    1.5232    0.0000 H   0  0  0  0  0  0  0  0  0  0  0  0
    8.3695   -0.6763    0.0000 H   0  0  0  0  0  0  0  0  0  0  0  0
    7.6793   -1.0748    0.0000 H   0  0  0  0  0  0  0  0  0  0  0  0
    7.6542   -2.7635    0.0000 H   0  0  0  0  0  0  0  0  0  0  0  0
    8.3445   -2.3650    0.0000 H   0  0  0  0  0  0  0  0  0  0  0  0
    6.8695   -1.5424    0.0000 H   0  0  0  0  0  0  0  0  0  0  0  0
    6.1793   -1.9409    0.0000 H   0  0  0  0  0  0  0  0  0  0  0  0
    6.1542   -3.6295    0.0000 H   0  0  0  0  0  0  0  0  0  0  0  0
    6.8445   -3.2310    0.0000 H   0  0  0  0  0  0  0  0  0  0  0  0
   10.1419    3.0432    0.0000 H   0  0  0  0  0  0  0  0  0  0  0  0
   12.5719    1.6403    0.0000 H   0  0  0  0  0  0  0  0  0  0  0  0
    2.8660   -4.6390    0.0000 H   0  0  0  0  0  0  0  0  0  0  0  0
    2.8660   -1.3990    0.0000 H   0  0  0  0  0  0  0  0  0  0  0  0
    1.4631   -3.8290    0.0000 H   0  0  0  0  0  0  0  0  0  0  0  0
    1.4631   -2.2090    0.0000 H   0  0  0  0  0  0  0  0  0  0  0  0
   10.9519    4.4462    0.0000 H   0  0  0  0  0  0  0  0  0  0  0  0
   13.3819    3.0432    0.0000 H   0  0  0  0  0  0  0  0  0  0  0  0
  1 30  1  0  0  0  0
  2  3  2  0  0  0  0
  2  4  2  0  0  0  0
  2  8  1  0  0  0  0
  2 19  1  0  0  0  0
  5 20  2  0  0  0  0
  6  9  1  0  0  0  0
  6 10  1  0  0  0  0
  6 11  1  0  0  0  0
  7 12  1  0  0  0  0
  7 13  1  0  0  0  0
  7 18  1  0  0  0  0
  8 17  1  0  0  0  0
  8 20  1  0  0  0  0
  9 12  1  0  0  0  0
  9 31  1  0  0  0  0
  9 32  1  0  0  0  0
 10 13  1  0  0  0  0
 10 33  1  0  0  0  0
 10 34  1  0  0  0  0
 11 14  1  0  0  0  0
 11 35  1  0  0  0  0
 11 36  1  0  0  0  0
 12 37  1  0  0  0  0
 12 38  1  0  0  0  0
 13 39  1  0  0  0  0
 13 40  1  0  0  0  0
 14 15  1  0  0  0  0
 14 41  1  0  0  0  0
 14 42  1  0  0  0  0
 15 16  1  0  0  0  0
 15 43  1  0  0  0  0
 15 44  1  0  0  0  0
 16 17  1  0  0  0  0
 16 45  1  0  0  0  0
 16 46  1  0  0  0  0
 17 47  1  0  0  0  0
 17 48  1  0  0  0  0
 18 22  2  0  0  0  0
 18 23  1  0  0  0  0
 19 21  1  0  0  0  0
 19 24  2  0  0  0  0
 20 21  1  0  0  0  0
 21 25  2  0  0  0  0
 22 27  1  0  0  0  0
 22 49  1  0  0  0  0
 23 28  2  0  0  0  0
 23 50  1  0  0  0  0
 24 26  1  0  0  0  0
 24 51  1  0  0  0  0
 25 29  1  0  0  0  0
 25 52  1  0  0  0  0
 26 29  2  0  0  0  0
 26 53  1  0  0  0  0
 27 30  2  0  0  0  0
 27 55  1  0  0  0  0
 28 30  1  0  0  0  0
 28 56  1  0  0  0  0
 29 54  1  0  0  0  0
M  END
> <PUBCHEM_COMPOUND_CID>
164623281

> <PUBCHEM_COMPOUND_CANONICALIZED>
1

> <PUBCHEM_CACTVS_COMPLEXITY>
682

> <PUBCHEM_CACTVS_HBOND_ACCEPTOR>
5

> <PUBCHEM_CACTVS_HBOND_DONOR>
0

> <PUBCHEM_CACTVS_ROTATABLE_BOND>
7

> <PUBCHEM_CACTVS_SUBSKEYS>
AAADceB7MABEAAAAAAAAAAAAAAAAAWAAAAA8YIAAAAAAAFgBQAAAHgYAQAAADArB2CQwwYMAAAKIAiVSUHDCABAlBwAIiBkIZsgIYDLBl5GUIQhghgDIyYcYiACOAABAAAAEAAAAAIAAAAgAAAAAAAAAAA==

> <PUBCHEM_IUPAC_OPENEYE_NAME>
2-[5-[4-(4-chlorophenyl)piperazin-1-yl]pentyl]-1,1-dioxo-1,2-benzothiazol-3-one

> <PUBCHEM_IUPAC_CAS_NAME>
2-[5-[4-(4-chlorophenyl)-1-piperazinyl]pentyl]-1,1-dioxo-1,2-benzothiazol-3-one

> <PUBCHEM_IUPAC_NAME_MARKUP>
2-[5-[4-(4-chlorophenyl)piperazin-1-yl]pentyl]-1,1-dioxo-1,2-benzothiazol-3-one

> <PUBCHEM_IUPAC_NAME>
2-[5-[4-(4-chlorophenyl)piperazin-1-yl]pentyl]-1,1-dioxo-1,2-benzothiazol-3-one

> <PUBCHEM_IUPAC_SYSTEMATIC_NAME>
2-[5-[4-(4-chlorophenyl)piperazin-1-yl]pentyl]-1,1-bis(oxidanylidene)-1,2-benzothiazol-3-one

> <PUBCHEM_IUPAC_TRADITIONAL_NAME>
2-[5-[4-(4-chlorophenyl)piperazino]pentyl]-1,1-diketo-1,2-benzothiazol-3-one

> <PUBCHEM_IUPAC_INCHI>
InChI=1S/C22H26ClN3O3S/c23-18-8-10-19(11-9-18)25-16-14-24(15-17-25)12-4-1-5-13-26-22(27)20-6-2-3-7-21(20)30(26,28)29/h2-3,6-11H,1,4-5,12-17H2

> <PUBCHEM_IUPAC_INCHIKEY>
WYTLTUFDQVHRLU-UHFFFAOYSA-N

> <PUBCHEM_XLOGP3_AA>
3.9

> <PUBCHEM_EXACT_MASS>
447.1383406

> <PUBCHEM_MOLECULAR_FORMULA>
C22H26ClN3O3S

> <PUBCHEM_MOLECULAR_WEIGHT>
448.0

> <PUBCHEM_OPENEYE_CAN_SMILES>
C1CN(CCN1CCCCCN2C(=O)C3=CC=CC=C3S2(=O)=O)C4=CC=C(C=C4)Cl

> <PUBCHEM_OPENEYE_ISO_SMILES>
C1CN(CCN1CCCCCN2C(=O)C3=CC=CC=C3S2(=O)=O)C4=CC=C(C=C4)Cl

> <PUBCHEM_CACTVS_TPSA>
69.3

> <PUBCHEM_MONOISOTOPIC_WEIGHT>
447.1383406

> <PUBCHEM_TOTAL_CHARGE>
0

> <PUBCHEM_HEAVY_ATOM_COUNT>
30

> <PUBCHEM_ATOM_DEF_STEREO_COUNT>
0

> <PUBCHEM_ATOM_UDEF_STEREO_COUNT>
0

> <PUBCHEM_BOND_DEF_STEREO_COUNT>
0

> <PUBCHEM_BOND_UDEF_STEREO_COUNT>
0

> <PUBCHEM_ISOTOPIC_ATOM_COUNT>
0

> <PUBCHEM_COMPONENT_COUNT>
1

> <PUBCHEM_CACTVS_TAUTO_COUNT>
-1

> <PUBCHEM_COORDINATE_TYPE>
1
5
255

> <PUBCHEM_BONDANNOTATIONS>
18  22  8
18  23  8
19  21  8
19  24  8
21  25  8
22  27  8
23  28  8
24  26  8
25  29  8
26  29  8
27  30  8
28  30  8

$$$$
