122178770
  -OEChem-09292322082D

 55 58  0     1  0  0  0  0  0999 V2000
   13.3224   -1.7820    0.0000 O   0  0  0  0  0  0  0  0  0  0  0  0
    7.2602   -0.2820    0.0000 N   0  0  3  0  0  0  0  0  0  0  0  0
   12.4564   -0.2820    0.0000 N   0  0  0  0  0  0  0  0  0  0  0  0
   14.2915    0.7067    0.0000 N   0  0  0  0  0  0  0  0  0  0  0  0
    2.0000   -1.3095    0.0000 N   0  0  0  0  0  0  0  0  0  0  0  0
    7.2602    0.7180    0.0000 C   0  0  0  0  0  0  0  0  0  0  0  0
    8.1263   -0.7820    0.0000 C   0  0  0  0  0  0  0  0  0  0  0  0
    6.3942   -0.7820    0.0000 C   0  0  0  0  0  0  0  0  0  0  0  0
    6.3942    1.2180    0.0000 C   0  0  0  0  0  0  0  0  0  0  0  0
    5.5282   -0.2820    0.0000 C   0  0  0  0  0  0  0  0  0  0  0  0
    8.9923   -0.2820    0.0000 C   0  0  0  0  0  0  0  0  0  0  0  0
    5.5282    0.7180    0.0000 C   0  0  0  0  0  0  0  0  0  0  0  0
    9.8583   -0.7820    0.0000 C   0  0  0  0  0  0  0  0  0  0  0  0
   10.7243   -0.2820    0.0000 C   0  0  0  0  0  0  0  0  0  0  0  0
    4.6342   -0.8166    0.0000 C   0  0  0  0  0  0  0  0  0  0  0  0
    4.6342    1.2527    0.0000 C   0  0  0  0  0  0  0  0  0  0  0  0
   11.5904   -0.7820    0.0000 C   0  0  0  0  0  0  0  0  0  0  0  0
    3.7282   -0.3028    0.0000 C   0  0  0  0  0  0  0  0  0  0  0  0
    3.7282    0.7388    0.0000 C   0  0  0  0  0  0  0  0  0  0  0  0
   13.3224   -0.7820    0.0000 C   0  0  0  0  0  0  0  0  0  0  0  0
   14.1884   -0.2820    0.0000 C   0  0  0  0  0  0  0  0  0  0  0  0
   15.2633    0.9160    0.0000 C   0  0  0  0  0  0  0  0  0  0  0  0
   15.7633    0.0499    0.0000 C   0  0  0  0  0  0  0  0  0  0  0  0
    2.8641   -0.8061    0.0000 C   0  0  0  0  0  0  0  0  0  0  0  0
   15.0962   -0.6871    0.0000 C   0  0  0  0  0  0  0  0  0  0  0  0
   15.7633    1.7820    0.0000 C   0  0  0  0  0  0  0  0  0  0  0  0
   16.7633    0.0499    0.0000 C   0  0  0  0  0  0  0  0  0  0  0  0
   16.7633    1.7820    0.0000 C   0  0  0  0  0  0  0  0  0  0  0  0
   17.2633    0.9160    0.0000 C   0  0  0  0  0  0  0  0  0  0  0  0
    7.8708    0.6104    0.0000 H   0  0  0  0  0  0  0  0  0  0  0  0
    7.4723    1.3006    0.0000 H   0  0  0  0  0  0  0  0  0  0  0  0
    7.7277   -1.2569    0.0000 H   0  0  0  0  0  0  0  0  0  0  0  0
    8.5248   -1.2569    0.0000 H   0  0  0  0  0  0  0  0  0  0  0  0
    5.9957   -1.2569    0.0000 H   0  0  0  0  0  0  0  0  0  0  0  0
    6.7928   -1.2569    0.0000 H   0  0  0  0  0  0  0  0  0  0  0  0
    6.7928    1.6930    0.0000 H   0  0  0  0  0  0  0  0  0  0  0  0
    5.9957    1.6930    0.0000 H   0  0  0  0  0  0  0  0  0  0  0  0
    9.3908    0.1930    0.0000 H   0  0  0  0  0  0  0  0  0  0  0  0
    8.5938    0.1930    0.0000 H   0  0  0  0  0  0  0  0  0  0  0  0
    9.4598   -1.2569    0.0000 H   0  0  0  0  0  0  0  0  0  0  0  0
   10.2568   -1.2569    0.0000 H   0  0  0  0  0  0  0  0  0  0  0  0
   11.1229    0.1930    0.0000 H   0  0  0  0  0  0  0  0  0  0  0  0
   10.3258    0.1930    0.0000 H   0  0  0  0  0  0  0  0  0  0  0  0
    4.6414   -1.4366    0.0000 H   0  0  0  0  0  0  0  0  0  0  0  0
    4.6414    1.8726    0.0000 H   0  0  0  0  0  0  0  0  0  0  0  0
   11.1918   -1.2569    0.0000 H   0  0  0  0  0  0  0  0  0  0  0  0
   11.9889   -1.2569    0.0000 H   0  0  0  0  0  0  0  0  0  0  0  0
    3.1924    1.0509    0.0000 H   0  0  0  0  0  0  0  0  0  0  0  0
   12.4564    0.3380    0.0000 H   0  0  0  0  0  0  0  0  0  0  0  0
   13.8300    1.1208    0.0000 H   0  0  0  0  0  0  0  0  0  0  0  0
   15.2241   -1.2938    0.0000 H   0  0  0  0  0  0  0  0  0  0  0  0
   15.4533    2.3189    0.0000 H   0  0  0  0  0  0  0  0  0  0  0  0
   17.0733   -0.4870    0.0000 H   0  0  0  0  0  0  0  0  0  0  0  0
   17.0733    2.3189    0.0000 H   0  0  0  0  0  0  0  0  0  0  0  0
   17.8833    0.9160    0.0000 H   0  0  0  0  0  0  0  0  0  0  0  0
  1 20  2  0  0  0  0
  2  6  1  0  0  0  0
  2  7  1  0  0  0  0
  2  8  1  0  0  0  0
  3 17  1  0  0  0  0
  3 20  1  0  0  0  0
  3 49  1  0  0  0  0
  4 21  1  0  0  0  0
  4 22  1  0  0  0  0
  4 50  1  0  0  0  0
  5 24  3  0  0  0  0
  6  9  1  0  0  0  0
  6 30  1  0  0  0  0
  6 31  1  0  0  0  0
  7 11  1  0  0  0  0
  7 32  1  0  0  0  0
  7 33  1  0  0  0  0
  8 10  1  0  0  0  0
  8 34  1  0  0  0  0
  8 35  1  0  0  0  0
  9 12  1  0  0  0  0
  9 36  1  0  0  0  0
  9 37  1  0  0  0  0
 10 12  2  0  0  0  0
 10 15  1  0  0  0  0
 11 13  1  0  0  0  0
 11 38  1  0  0  0  0
 11 39  1  0  0  0  0
 12 16  1  0  0  0  0
 13 14  1  0  0  0  0
 13 40  1  0  0  0  0
 13 41  1  0  0  0  0
 14 17  1  0  0  0  0
 14 42  1  0  0  0  0
 14 43  1  0  0  0  0
 15 18  2  0  0  0  0
 15 44  1  0  0  0  0
 16 19  2  0  0  0  0
 16 45  1  0  0  0  0
 17 46  1  0  0  0  0
 17 47  1  0  0  0  0
 18 19  1  0  0  0  0
 18 24  1  0  0  0  0
 19 48  1  0  0  0  0
 20 21  1  0  0  0  0
 21 25  2  0  0  0  0
 22 23  1  0  0  0  0
 22 26  2  0  0  0  0
 23 25  1  0  0  0  0
 23 27  2  0  0  0  0
 25 51  1  0  0  0  0
 26 28  1  0  0  0  0
 26 52  1  0  0  0  0
 27 29  1  0  0  0  0
 27 53  1  0  0  0  0
 28 29  2  0  0  0  0
 28 54  1  0  0  0  0
 29 55  1  0  0  0  0
M  END
> <PUBCHEM_COMPOUND_CID>
122178770

> <PUBCHEM_COMPOUND_CANONICALIZED>
1

> <PUBCHEM_CACTVS_COMPLEXITY>
599

> <PUBCHEM_CACTVS_HBOND_ACCEPTOR>
3

> <PUBCHEM_CACTVS_HBOND_DONOR>
2

> <PUBCHEM_CACTVS_ROTATABLE_BOND>
7

> <PUBCHEM_CACTVS_SUBSKEYS>
AAADceB7oAAAAAAAAAAAAAAAAAAAAWAAAAA8YIAAAAAAAFix9AAAHgAQAAAADAjBngQwwPPJkAC4ByVyVACigCAnAiAImaG4ZNgI4PLAlbGUIQhglgDIyY8YicCewAACAAASAACAAAQAACQAAAAAAAAAAA==

> <PUBCHEM_IUPAC_OPENEYE_NAME>
N-[5-(7-cyano-3,4-dihydro-1H-isoquinolin-2-yl)pentyl]-1H-indole-2-carboxamide

> <PUBCHEM_IUPAC_CAS_NAME>
N-[5-(7-cyano-3,4-dihydro-1H-isoquinolin-2-yl)pentyl]-1H-indole-2-carboxamide

> <PUBCHEM_IUPAC_NAME_MARKUP>
<I>N</I>-[5-(7-cyano-3,4-dihydro-1<I>H</I>-isoquinolin-2-yl)pentyl]-1<I>H</I>-indole-2-carboxamide

> <PUBCHEM_IUPAC_NAME>
N-[5-(7-cyano-3,4-dihydro-1H-isoquinolin-2-yl)pentyl]-1H-indole-2-carboxamide

> <PUBCHEM_IUPAC_SYSTEMATIC_NAME>
N-[5-(7-cyano-3,4-dihydro-1H-isoquinolin-2-yl)pentyl]-1H-indole-2-carboxamide

> <PUBCHEM_IUPAC_TRADITIONAL_NAME>
N-[5-(7-cyano-3,4-dihydro-1H-isoquinolin-2-yl)pentyl]-1H-indole-2-carboxamide

> <PUBCHEM_IUPAC_INCHI>
InChI=1S/C24H26N4O/c25-16-18-8-9-19-10-13-28(17-21(19)14-18)12-5-1-4-11-26-24(29)23-15-20-6-2-3-7-22(20)27-23/h2-3,6-9,14-15,27H,1,4-5,10-13,17H2,(H,26,29)

> <PUBCHEM_IUPAC_INCHIKEY>
JOGOIAVARYTUAJ-UHFFFAOYSA-N

> <PUBCHEM_XLOGP3_AA>
4

> <PUBCHEM_EXACT_MASS>
386.21066147

> <PUBCHEM_MOLECULAR_FORMULA>
C24H26N4O

> <PUBCHEM_MOLECULAR_WEIGHT>
386.5

> <PUBCHEM_OPENEYE_CAN_SMILES>
C1CN(CC2=C1C=CC(=C2)C#N)CCCCCNC(=O)C3=CC4=CC=CC=C4N3

> <PUBCHEM_OPENEYE_ISO_SMILES>
C1CN(CC2=C1C=CC(=C2)C#N)CCCCCNC(=O)C3=CC4=CC=CC=C4N3

> <PUBCHEM_CACTVS_TPSA>
71.9

> <PUBCHEM_MONOISOTOPIC_WEIGHT>
386.21066147

> <PUBCHEM_TOTAL_CHARGE>
0

> <PUBCHEM_HEAVY_ATOM_COUNT>
29

> <PUBCHEM_ATOM_DEF_STEREO_COUNT>
0

> <PUBCHEM_ATOM_UDEF_STEREO_COUNT>
0

> <PUBCHEM_BOND_DEF_STEREO_COUNT>
0

> <PUBCHEM_BOND_UDEF_STEREO_COUNT>
0

> <PUBCHEM_ISOTOPIC_ATOM_COUNT>
0

> <PUBCHEM_COMPONENT_COUNT>
1

> <PUBCHEM_CACTVS_TAUTO_COUNT>
-1

> <PUBCHEM_COORDINATE_TYPE>
1
5
255

> <PUBCHEM_BONDANNOTATIONS>
10  12  8
10  15  8
12  16  8
15  18  8
16  19  8
18  19  8
21  25  8
22  23  8
22  26  8
23  25  8
23  27  8
26  28  8
27  29  8
28  29  8
4  21  8
4  22  8

$$$$
