44407424
  -OEChem-09292322272D

 76 79  0     0  0  0  0  0  0999 V2000
    6.4051   -4.5137    0.0000 F   0  0  0  0  0  0  0  0  0  0  0  0
    7.0659   -5.7640    0.0000 F   0  0  0  0  0  0  0  0  0  0  0  0
    5.8156   -6.4248    0.0000 F   0  0  0  0  0  0  0  0  0  0  0  0
    2.5092    2.7458    0.0000 O   0  0  0  0  0  0  0  0  0  0  0  0
    5.7718    6.4632    0.0000 O   0  0  0  0  0  0  0  0  0  0  0  0
    3.3091   -0.9800    0.0000 N   0  0  0  0  0  0  0  0  0  0  0  0
    3.7541   -2.9299    0.0000 N   0  0  0  0  0  0  0  0  0  0  0  0
    4.1076    3.3051    0.0000 N   0  0  0  0  0  0  0  0  0  0  0  0
    3.2436   -4.5850    0.0000 N   0  0  0  0  0  0  0  0  0  0  0  0
    4.4217   -5.8547    0.0000 N   0  0  0  0  0  0  0  0  0  0  0  0
    2.5760   -1.6602    0.0000 C   0  0  0  0  0  0  0  0  0  0  0  0
    4.2646   -1.2748    0.0000 C   0  0  0  0  0  0  0  0  0  0  0  0
    3.0866   -0.0051    0.0000 C   0  0  0  0  0  0  0  0  0  0  0  0
    2.7985   -2.6351    0.0000 C   0  0  0  0  0  0  0  0  0  0  0  0
    4.4872   -2.2497    0.0000 C   0  0  0  0  0  0  0  0  0  0  0  0
    3.8196    0.6751    0.0000 C   0  0  0  0  0  0  0  0  0  0  0  0
    3.5971    1.6500    0.0000 C   0  0  0  0  0  0  0  0  0  0  0  0
    4.3301    2.3302    0.0000 C   0  0  0  0  0  0  0  0  0  0  0  0
    3.9766   -3.9048    0.0000 C   0  0  0  0  0  0  0  0  0  0  0  0
    4.8894    3.9286    0.0000 C   0  0  0  0  0  0  0  0  0  0  0  0
    4.8894    4.9286    0.0000 C   0  0  0  0  0  0  0  0  0  0  0  0
    4.1076    5.5521    0.0000 C   0  0  0  0  0  0  0  0  0  0  0  0
    3.1327    5.3296    0.0000 C   0  0  0  0  0  0  0  0  0  0  0  0
    2.6988    4.4286    0.0000 C   0  0  0  0  0  0  0  0  0  0  0  0
    2.7330   -6.2401    0.0000 C   0  0  0  0  0  0  0  0  0  0  0  0
    3.1327    3.5276    0.0000 C   0  0  0  0  0  0  0  0  0  0  0  0
    3.4661   -5.5599    0.0000 C   0  0  0  0  0  0  0  0  0  0  0  0
    4.9322   -4.1996    0.0000 C   0  0  0  0  0  0  0  0  0  0  0  0
    5.7834    3.3939    0.0000 C   0  0  0  0  0  0  0  0  0  0  0  0
    5.7834    5.4632    0.0000 C   0  0  0  0  0  0  0  0  0  0  0  0
    5.1547   -5.1745    0.0000 C   0  0  0  0  0  0  0  0  0  0  0  0
    2.0000   -6.9203    0.0000 C   0  0  0  0  0  0  0  0  0  0  0  0
    3.4132   -6.9732    0.0000 C   0  0  0  0  0  0  0  0  0  0  0  0
    2.0529   -5.5070    0.0000 C   0  0  0  0  0  0  0  0  0  0  0  0
    6.6894    3.9078    0.0000 C   0  0  0  0  0  0  0  0  0  0  0  0
    6.6894    4.9494    0.0000 C   0  0  0  0  0  0  0  0  0  0  0  0
    6.1103   -5.4693    0.0000 C   0  0  0  0  0  0  0  0  0  0  0  0
    6.6320    6.9732    0.0000 C   0  0  0  0  0  0  0  0  0  0  0  0
    2.2396   -1.1394    0.0000 H   0  0  0  0  0  0  0  0  0  0  0  0
    2.0047   -1.9010    0.0000 H   0  0  0  0  0  0  0  0  0  0  0  0
    4.8839   -1.2439    0.0000 H   0  0  0  0  0  0  0  0  0  0  0  0
    4.3417   -0.6596    0.0000 H   0  0  0  0  0  0  0  0  0  0  0  0
    2.7502    0.5157    0.0000 H   0  0  0  0  0  0  0  0  0  0  0  0
    2.5152   -0.2459    0.0000 H   0  0  0  0  0  0  0  0  0  0  0  0
    2.1793   -2.6660    0.0000 H   0  0  0  0  0  0  0  0  0  0  0  0
    2.7214   -3.2503    0.0000 H   0  0  0  0  0  0  0  0  0  0  0  0
    4.8235   -2.7705    0.0000 H   0  0  0  0  0  0  0  0  0  0  0  0
    5.0585   -2.0089    0.0000 H   0  0  0  0  0  0  0  0  0  0  0  0
    4.1560    0.1542    0.0000 H   0  0  0  0  0  0  0  0  0  0  0  0
    4.3909    0.9159    0.0000 H   0  0  0  0  0  0  0  0  0  0  0  0
    3.2607    2.1708    0.0000 H   0  0  0  0  0  0  0  0  0  0  0  0
    3.0258    1.4092    0.0000 H   0  0  0  0  0  0  0  0  0  0  0  0
    4.6665    1.8093    0.0000 H   0  0  0  0  0  0  0  0  0  0  0  0
    4.9014    2.5710    0.0000 H   0  0  0  0  0  0  0  0  0  0  0  0
    4.5924    5.9386    0.0000 H   0  0  0  0  0  0  0  0  0  0  0  0
    3.8386    6.1107    0.0000 H   0  0  0  0  0  0  0  0  0  0  0  0
    3.1327    5.9496    0.0000 H   0  0  0  0  0  0  0  0  0  0  0  0
    2.5282    5.4675    0.0000 H   0  0  0  0  0  0  0  0  0  0  0  0
    2.2141    4.8151    0.0000 H   0  0  0  0  0  0  0  0  0  0  0  0
    2.2141    4.0420    0.0000 H   0  0  0  0  0  0  0  0  0  0  0  0
    5.3867   -3.7779    0.0000 H   0  0  0  0  0  0  0  0  0  0  0  0
    5.7762    2.7740    0.0000 H   0  0  0  0  0  0  0  0  0  0  0  0
    1.5783   -6.4658    0.0000 H   0  0  0  0  0  0  0  0  0  0  0  0
    1.5455   -7.3420    0.0000 H   0  0  0  0  0  0  0  0  0  0  0  0
    2.4217   -7.3748    0.0000 H   0  0  0  0  0  0  0  0  0  0  0  0
    2.9587   -7.3949    0.0000 H   0  0  0  0  0  0  0  0  0  0  0  0
    3.8349   -7.4276    0.0000 H   0  0  0  0  0  0  0  0  0  0  0  0
    3.8677   -6.5514    0.0000 H   0  0  0  0  0  0  0  0  0  0  0  0
    2.5074   -5.0853    0.0000 H   0  0  0  0  0  0  0  0  0  0  0  0
    1.6312   -5.0526    0.0000 H   0  0  0  0  0  0  0  0  0  0  0  0
    1.5984   -5.9288    0.0000 H   0  0  0  0  0  0  0  0  0  0  0  0
    7.2252    3.5957    0.0000 H   0  0  0  0  0  0  0  0  0  0  0  0
    7.2252    5.2615    0.0000 H   0  0  0  0  0  0  0  0  0  0  0  0
    6.9482    6.4398    0.0000 H   0  0  0  0  0  0  0  0  0  0  0  0
    7.1653    7.2893    0.0000 H   0  0  0  0  0  0  0  0  0  0  0  0
    6.3158    7.5065    0.0000 H   0  0  0  0  0  0  0  0  0  0  0  0
  1 37  1  0  0  0  0
  2 37  1  0  0  0  0
  3 37  1  0  0  0  0
  4 26  2  0  0  0  0
  5 30  1  0  0  0  0
  5 38  1  0  0  0  0
  6 11  1  0  0  0  0
  6 12  1  0  0  0  0
  6 13  1  0  0  0  0
  7 14  1  0  0  0  0
  7 15  1  0  0  0  0
  7 19  1  0  0  0  0
  8 18  1  0  0  0  0
  8 20  1  0  0  0  0
  8 26  1  0  0  0  0
  9 19  2  0  0  0  0
  9 27  1  0  0  0  0
 10 27  2  0  0  0  0
 10 31  1  0  0  0  0
 11 14  1  0  0  0  0
 11 39  1  0  0  0  0
 11 40  1  0  0  0  0
 12 15  1  0  0  0  0
 12 41  1  0  0  0  0
 12 42  1  0  0  0  0
 13 16  1  0  0  0  0
 13 43  1  0  0  0  0
 13 44  1  0  0  0  0
 14 45  1  0  0  0  0
 14 46  1  0  0  0  0
 15 47  1  0  0  0  0
 15 48  1  0  0  0  0
 16 17  1  0  0  0  0
 16 49  1  0  0  0  0
 16 50  1  0  0  0  0
 17 18  1  0  0  0  0
 17 51  1  0  0  0  0
 17 52  1  0  0  0  0
 18 53  1  0  0  0  0
 18 54  1  0  0  0  0
 19 28  1  0  0  0  0
 20 21  2  0  0  0  0
 20 29  1  0  0  0  0
 21 22  1  0  0  0  0
 21 30  1  0  0  0  0
 22 23  1  0  0  0  0
 22 55  1  0  0  0  0
 22 56  1  0  0  0  0
 23 24  1  0  0  0  0
 23 57  1  0  0  0  0
 23 58  1  0  0  0  0
 24 26  1  0  0  0  0
 24 59  1  0  0  0  0
 24 60  1  0  0  0  0
 25 27  1  0  0  0  0
 25 32  1  0  0  0  0
 25 33  1  0  0  0  0
 25 34  1  0  0  0  0
 28 31  2  0  0  0  0
 28 61  1  0  0  0  0
 29 35  2  0  0  0  0
 29 62  1  0  0  0  0
 30 36  2  0  0  0  0
 31 37  1  0  0  0  0
 32 63  1  0  0  0  0
 32 64  1  0  0  0  0
 32 65  1  0  0  0  0
 33 66  1  0  0  0  0
 33 67  1  0  0  0  0
 33 68  1  0  0  0  0
 34 69  1  0  0  0  0
 34 70  1  0  0  0  0
 34 71  1  0  0  0  0
 35 36  1  0  0  0  0
 35 72  1  0  0  0  0
 36 73  1  0  0  0  0
 38 74  1  0  0  0  0
 38 75  1  0  0  0  0
 38 76  1  0  0  0  0
M  END
> <PUBCHEM_COMPOUND_CID>
44407424

> <PUBCHEM_COMPOUND_CANONICALIZED>
1

> <PUBCHEM_CACTVS_COMPLEXITY>
769

> <PUBCHEM_CACTVS_HBOND_ACCEPTOR>
9

> <PUBCHEM_CACTVS_HBOND_DONOR>
0

> <PUBCHEM_CACTVS_ROTATABLE_BOND>
8

> <PUBCHEM_CACTVS_SUBSKEYS>
AAADcfB7sYAAAAAAAAAAAAAAAAAAAAAAAAA8WIAABYAAAAABwAAAHwAAAAAADgzBnxYz9pcIFACoAydydACCiCkhIqAJmCE+bJiMbjLE+duUNChuxhvI6CeY2KOOAAAAAgAKAAAAAAAEABQAAAAAAAAAAA==

> <PUBCHEM_IUPAC_OPENEYE_NAME>
1-[4-[4-[2-tert-butyl-6-(trifluoromethyl)pyrimidin-4-yl]piperazin-1-yl]butyl]-6-methoxy-4,5-dihydro-3H-1-benzazepin-2-one

> <PUBCHEM_IUPAC_CAS_NAME>
1-[4-[4-[2-tert-butyl-6-(trifluoromethyl)-4-pyrimidinyl]-1-piperazinyl]butyl]-6-methoxy-4,5-dihydro-3H-1-benzazepin-2-one

> <PUBCHEM_IUPAC_NAME_MARKUP>
1-[4-[4-[2-<I>tert</I>-butyl-6-(trifluoromethyl)pyrimidin-4-yl]piperazin-1-yl]butyl]-6-methoxy-4,5-dihydro-3<I>H</I>-1-benzazepin-2-one

> <PUBCHEM_IUPAC_NAME>
1-[4-[4-[2-tert-butyl-6-(trifluoromethyl)pyrimidin-4-yl]piperazin-1-yl]butyl]-6-methoxy-4,5-dihydro-3H-1-benzazepin-2-one

> <PUBCHEM_IUPAC_SYSTEMATIC_NAME>
1-[4-[4-[2-tert-butyl-6-(trifluoromethyl)pyrimidin-4-yl]piperazin-1-yl]butyl]-6-methoxy-4,5-dihydro-3H-1-benzazepin-2-one

> <PUBCHEM_IUPAC_TRADITIONAL_NAME>
1-[4-[4-[2-tert-butyl-6-(trifluoromethyl)pyrimidin-4-yl]piperazino]butyl]-6-methoxy-4,5-dihydro-3H-1-benzazepin-2-one

> <PUBCHEM_IUPAC_INCHI>
InChI=1S/C28H38F3N5O2/c1-27(2,3)26-32-23(28(29,30)31)19-24(33-26)35-17-15-34(16-18-35)13-5-6-14-36-21-10-8-11-22(38-4)20(21)9-7-12-25(36)37/h8,10-11,19H,5-7,9,12-18H2,1-4H3

> <PUBCHEM_IUPAC_INCHIKEY>
ZXIPYIPSODOSDY-UHFFFAOYSA-N

> <PUBCHEM_XLOGP3_AA>
5.2

> <PUBCHEM_EXACT_MASS>
533.29775996

> <PUBCHEM_MOLECULAR_FORMULA>
C28H38F3N5O2

> <PUBCHEM_MOLECULAR_WEIGHT>
533.6

> <PUBCHEM_OPENEYE_CAN_SMILES>
CC(C)(C)C1=NC(=CC(=N1)N2CCN(CC2)CCCCN3C(=O)CCCC4=C3C=CC=C4OC)C(F)(F)F

> <PUBCHEM_OPENEYE_ISO_SMILES>
CC(C)(C)C1=NC(=CC(=N1)N2CCN(CC2)CCCCN3C(=O)CCCC4=C3C=CC=C4OC)C(F)(F)F

> <PUBCHEM_CACTVS_TPSA>
61.8

> <PUBCHEM_MONOISOTOPIC_WEIGHT>
533.29775996

> <PUBCHEM_TOTAL_CHARGE>
0

> <PUBCHEM_HEAVY_ATOM_COUNT>
38

> <PUBCHEM_ATOM_DEF_STEREO_COUNT>
0

> <PUBCHEM_ATOM_UDEF_STEREO_COUNT>
0

> <PUBCHEM_BOND_DEF_STEREO_COUNT>
0

> <PUBCHEM_BOND_UDEF_STEREO_COUNT>
0

> <PUBCHEM_ISOTOPIC_ATOM_COUNT>
0

> <PUBCHEM_COMPONENT_COUNT>
1

> <PUBCHEM_CACTVS_TAUTO_COUNT>
-1

> <PUBCHEM_COORDINATE_TYPE>
1
5
255

> <PUBCHEM_BONDANNOTATIONS>
10  27  8
10  31  8
19  28  8
20  21  8
20  29  8
21  30  8
28  31  8
29  35  8
30  36  8
35  36  8
9  19  8
9  27  8

$$$$
