118709165
  -OEChem-09292322352D

124129  0     0  0  0  0  0  0999 V2000
   16.0981    0.4330    0.0000 Cl  0  0  0  0  0  0  0  0  0  0  0  0
    2.5981   -0.4330    0.0000 Cl  0  0  0  0  0  0  0  0  0  0  0  0
   12.3660  -12.0311    0.0000 F   0  0  0  0  0  0  0  0  0  0  0  0
    2.8660   12.0311    0.0000 F   0  0  0  0  0  0  0  0  0  0  0  0
   13.5981   -2.1651    0.0000 O   0  0  0  0  0  0  0  0  0  0  0  0
    5.0981    2.1651    0.0000 O   0  0  0  0  0  0  0  0  0  0  0  0
   12.0981   -3.0311    0.0000 O   0  0  0  0  0  0  0  0  0  0  0  0
    6.5981    3.0311    0.0000 O   0  0  0  0  0  0  0  0  0  0  0  0
   11.5000   -7.5311    0.0000 O   0  0  0  0  0  0  0  0  0  0  0  0
    2.0000    7.5311    0.0000 O   0  0  0  0  0  0  0  0  0  0  0  0
   14.0981   -5.0311    0.0000 N   0  0  0  0  0  0  0  0  0  0  0  0
    4.5981    5.0311    0.0000 N   0  0  0  0  0  0  0  0  0  0  0  0
   14.0981   -3.0311    0.0000 C   0  0  0  0  0  0  0  0  0  0  0  0
    4.5981    3.0311    0.0000 C   0  0  0  0  0  0  0  0  0  0  0  0
   14.9641   -3.5311    0.0000 C   0  0  0  0  0  0  0  0  0  0  0  0
   13.2321   -3.5311    0.0000 C   0  0  0  0  0  0  0  0  0  0  0  0
    3.7320    3.5311    0.0000 C   0  0  0  0  0  0  0  0  0  0  0  0
    5.4641    3.5311    0.0000 C   0  0  0  0  0  0  0  0  0  0  0  0
   14.9641   -4.5311    0.0000 C   0  0  0  0  0  0  0  0  0  0  0  0
   13.2321   -4.5311    0.0000 C   0  0  0  0  0  0  0  0  0  0  0  0
    3.7320    4.5311    0.0000 C   0  0  0  0  0  0  0  0  0  0  0  0
    5.4641    4.5311    0.0000 C   0  0  0  0  0  0  0  0  0  0  0  0
   14.5981   -2.1651    0.0000 C   0  0  0  0  0  0  0  0  0  0  0  0
    4.0981    2.1651    0.0000 C   0  0  0  0  0  0  0  0  0  0  0  0
   14.0981   -6.0311    0.0000 C   0  0  0  0  0  0  0  0  0  0  0  0
    4.5981    6.0311    0.0000 C   0  0  0  0  0  0  0  0  0  0  0  0
   13.2321   -6.5311    0.0000 C   0  0  0  0  0  0  0  0  0  0  0  0
    3.7320    6.5311    0.0000 C   0  0  0  0  0  0  0  0  0  0  0  0
   15.5981   -2.1651    0.0000 C   0  0  0  0  0  0  0  0  0  0  0  0
    4.5981    1.2990    0.0000 C   0  0  0  0  0  0  0  0  0  0  0  0
   14.0981   -1.2990    0.0000 C   0  0  0  0  0  0  0  0  0  0  0  0
    3.0981    2.1651    0.0000 C   0  0  0  0  0  0  0  0  0  0  0  0
   12.5981   -2.1651    0.0000 C   0  0  0  0  0  0  0  0  0  0  0  0
    6.0981    2.1651    0.0000 C   0  0  0  0  0  0  0  0  0  0  0  0
   13.2321   -7.5311    0.0000 C   0  0  0  0  0  0  0  0  0  0  0  0
    3.7320    7.5311    0.0000 C   0  0  0  0  0  0  0  0  0  0  0  0
   12.0981   -1.2990    0.0000 C   0  0  0  0  0  0  0  0  0  0  0  0
    6.5981    1.2990    0.0000 C   0  0  0  0  0  0  0  0  0  0  0  0
   16.0981   -1.2990    0.0000 C   0  0  0  0  0  0  0  0  0  0  0  0
    4.0981    0.4330    0.0000 C   0  0  0  0  0  0  0  0  0  0  0  0
   14.5981   -0.4330    0.0000 C   0  0  0  0  0  0  0  0  0  0  0  0
    2.5981    1.2990    0.0000 C   0  0  0  0  0  0  0  0  0  0  0  0
   11.0981   -1.2990    0.0000 C   0  0  0  0  0  0  0  0  0  0  0  0
    7.5981    1.2990    0.0000 C   0  0  0  0  0  0  0  0  0  0  0  0
   10.5981   -0.4330    0.0000 C   0  0  0  0  0  0  0  0  0  0  0  0
    8.0981    0.4330    0.0000 C   0  0  0  0  0  0  0  0  0  0  0  0
    9.5981   -0.4330    0.0000 C   0  0  0  0  0  0  0  0  0  0  0  0
    9.0981    0.4330    0.0000 C   0  0  0  0  0  0  0  0  0  0  0  0
   15.5981   -0.4330    0.0000 C   0  0  0  0  0  0  0  0  0  0  0  0
    3.0981    0.4330    0.0000 C   0  0  0  0  0  0  0  0  0  0  0  0
   12.3660   -8.0311    0.0000 C   0  0  0  0  0  0  0  0  0  0  0  0
    2.8660    8.0311    0.0000 C   0  0  0  0  0  0  0  0  0  0  0  0
   12.3660   -9.0311    0.0000 C   0  0  0  0  0  0  0  0  0  0  0  0
    2.8660    9.0311    0.0000 C   0  0  0  0  0  0  0  0  0  0  0  0
   13.2321   -9.5311    0.0000 C   0  0  0  0  0  0  0  0  0  0  0  0
    2.0000    9.5311    0.0000 C   0  0  0  0  0  0  0  0  0  0  0  0
   11.5000   -9.5311    0.0000 C   0  0  0  0  0  0  0  0  0  0  0  0
    3.7320    9.5311    0.0000 C   0  0  0  0  0  0  0  0  0  0  0  0
   13.2321  -10.5311    0.0000 C   0  0  0  0  0  0  0  0  0  0  0  0
    2.0000   10.5311    0.0000 C   0  0  0  0  0  0  0  0  0  0  0  0
   11.5000  -10.5311    0.0000 C   0  0  0  0  0  0  0  0  0  0  0  0
    3.7320   10.5311    0.0000 C   0  0  0  0  0  0  0  0  0  0  0  0
   12.3660  -11.0311    0.0000 C   0  0  0  0  0  0  0  0  0  0  0  0
    2.8660   11.0311    0.0000 C   0  0  0  0  0  0  0  0  0  0  0  0
   15.5747   -3.6388    0.0000 H   0  0  0  0  0  0  0  0  0  0  0  0
   15.1762   -2.9485    0.0000 H   0  0  0  0  0  0  0  0  0  0  0  0
   13.0200   -2.9485    0.0000 H   0  0  0  0  0  0  0  0  0  0  0  0
   12.6215   -3.6388    0.0000 H   0  0  0  0  0  0  0  0  0  0  0  0
    3.1215    3.6388    0.0000 H   0  0  0  0  0  0  0  0  0  0  0  0
    3.5200    2.9485    0.0000 H   0  0  0  0  0  0  0  0  0  0  0  0
    5.6762    2.9485    0.0000 H   0  0  0  0  0  0  0  0  0  0  0  0
    6.0747    3.6388    0.0000 H   0  0  0  0  0  0  0  0  0  0  0  0
   15.1762   -5.1137    0.0000 H   0  0  0  0  0  0  0  0  0  0  0  0
   15.5747   -4.4234    0.0000 H   0  0  0  0  0  0  0  0  0  0  0  0
   12.6215   -4.4234    0.0000 H   0  0  0  0  0  0  0  0  0  0  0  0
   13.0200   -5.1137    0.0000 H   0  0  0  0  0  0  0  0  0  0  0  0
    3.5200    5.1137    0.0000 H   0  0  0  0  0  0  0  0  0  0  0  0
    3.1215    4.4234    0.0000 H   0  0  0  0  0  0  0  0  0  0  0  0
    6.0747    4.4234    0.0000 H   0  0  0  0  0  0  0  0  0  0  0  0
    5.6762    5.1137    0.0000 H   0  0  0  0  0  0  0  0  0  0  0  0
   14.3101   -6.6137    0.0000 H   0  0  0  0  0  0  0  0  0  0  0  0
   14.7087   -5.9234    0.0000 H   0  0  0  0  0  0  0  0  0  0  0  0
    5.2087    5.9234    0.0000 H   0  0  0  0  0  0  0  0  0  0  0  0
    4.8101    6.6137    0.0000 H   0  0  0  0  0  0  0  0  0  0  0  0
   13.0200   -5.9485    0.0000 H   0  0  0  0  0  0  0  0  0  0  0  0
   12.6215   -6.6388    0.0000 H   0  0  0  0  0  0  0  0  0  0  0  0
    3.1215    6.6388    0.0000 H   0  0  0  0  0  0  0  0  0  0  0  0
    3.5200    5.9485    0.0000 H   0  0  0  0  0  0  0  0  0  0  0  0
   15.9081   -2.7020    0.0000 H   0  0  0  0  0  0  0  0  0  0  0  0
    5.2181    1.2990    0.0000 H   0  0  0  0  0  0  0  0  0  0  0  0
   13.4781   -1.2990    0.0000 H   0  0  0  0  0  0  0  0  0  0  0  0
    2.7881    2.7020    0.0000 H   0  0  0  0  0  0  0  0  0  0  0  0
   13.4441   -8.1137    0.0000 H   0  0  0  0  0  0  0  0  0  0  0  0
   13.8426   -7.4234    0.0000 H   0  0  0  0  0  0  0  0  0  0  0  0
    4.3426    7.4234    0.0000 H   0  0  0  0  0  0  0  0  0  0  0  0
    3.9441    8.1137    0.0000 H   0  0  0  0  0  0  0  0  0  0  0  0
   12.6807   -1.0870    0.0000 H   0  0  0  0  0  0  0  0  0  0  0  0
   11.9904   -0.6885    0.0000 H   0  0  0  0  0  0  0  0  0  0  0  0
    6.0155    1.0870    0.0000 H   0  0  0  0  0  0  0  0  0  0  0  0
    6.7057    0.6885    0.0000 H   0  0  0  0  0  0  0  0  0  0  0  0
   16.7181   -1.2990    0.0000 H   0  0  0  0  0  0  0  0  0  0  0  0
    4.4081   -0.1039    0.0000 H   0  0  0  0  0  0  0  0  0  0  0  0
   14.2881    0.1039    0.0000 H   0  0  0  0  0  0  0  0  0  0  0  0
    1.9781    1.2990    0.0000 H   0  0  0  0  0  0  0  0  0  0  0  0
   10.5155   -1.5111    0.0000 H   0  0  0  0  0  0  0  0  0  0  0  0
   11.2057   -1.9096    0.0000 H   0  0  0  0  0  0  0  0  0  0  0  0
    8.1807    1.5111    0.0000 H   0  0  0  0  0  0  0  0  0  0  0  0
    7.4904    1.9096    0.0000 H   0  0  0  0  0  0  0  0  0  0  0  0
   11.1807   -0.2210    0.0000 H   0  0  0  0  0  0  0  0  0  0  0  0
   10.4904    0.1776    0.0000 H   0  0  0  0  0  0  0  0  0  0  0  0
    7.5155    0.2210    0.0000 H   0  0  0  0  0  0  0  0  0  0  0  0
    8.2057   -0.1776    0.0000 H   0  0  0  0  0  0  0  0  0  0  0  0
    9.0155   -0.6451    0.0000 H   0  0  0  0  0  0  0  0  0  0  0  0
    9.7057   -1.0436    0.0000 H   0  0  0  0  0  0  0  0  0  0  0  0
    9.6807    0.6451    0.0000 H   0  0  0  0  0  0  0  0  0  0  0  0
    8.9904    1.0436    0.0000 H   0  0  0  0  0  0  0  0  0  0  0  0
   13.7690   -9.2211    0.0000 H   0  0  0  0  0  0  0  0  0  0  0  0
    1.4631    9.2211    0.0000 H   0  0  0  0  0  0  0  0  0  0  0  0
   10.9631   -9.2211    0.0000 H   0  0  0  0  0  0  0  0  0  0  0  0
    4.2690    9.2211    0.0000 H   0  0  0  0  0  0  0  0  0  0  0  0
   13.7690  -10.8411    0.0000 H   0  0  0  0  0  0  0  0  0  0  0  0
    1.4631   10.8411    0.0000 H   0  0  0  0  0  0  0  0  0  0  0  0
   10.9631  -10.8411    0.0000 H   0  0  0  0  0  0  0  0  0  0  0  0
    4.2690   10.8411    0.0000 H   0  0  0  0  0  0  0  0  0  0  0  0
  1 49  1  0  0  0  0
  2 50  1  0  0  0  0
  3 63  1  0  0  0  0
  4 64  1  0  0  0  0
  5 13  1  0  0  0  0
  5 33  1  0  0  0  0
  6 14  1  0  0  0  0
  6 34  1  0  0  0  0
  7 33  2  0  0  0  0
  8 34  2  0  0  0  0
  9 51  2  0  0  0  0
 10 52  2  0  0  0  0
 11 19  1  0  0  0  0
 11 20  1  0  0  0  0
 11 25  1  0  0  0  0
 12 21  1  0  0  0  0
 12 22  1  0  0  0  0
 12 26  1  0  0  0  0
 13 15  1  0  0  0  0
 13 16  1  0  0  0  0
 13 23  1  0  0  0  0
 14 17  1  0  0  0  0
 14 18  1  0  0  0  0
 14 24  1  0  0  0  0
 15 19  1  0  0  0  0
 15 65  1  0  0  0  0
 15 66  1  0  0  0  0
 16 20  1  0  0  0  0
 16 67  1  0  0  0  0
 16 68  1  0  0  0  0
 17 21  1  0  0  0  0
 17 69  1  0  0  0  0
 17 70  1  0  0  0  0
 18 22  1  0  0  0  0
 18 71  1  0  0  0  0
 18 72  1  0  0  0  0
 19 73  1  0  0  0  0
 19 74  1  0  0  0  0
 20 75  1  0  0  0  0
 20 76  1  0  0  0  0
 21 77  1  0  0  0  0
 21 78  1  0  0  0  0
 22 79  1  0  0  0  0
 22 80  1  0  0  0  0
 23 29  2  0  0  0  0
 23 31  1  0  0  0  0
 24 30  2  0  0  0  0
 24 32  1  0  0  0  0
 25 27  1  0  0  0  0
 25 81  1  0  0  0  0
 25 82  1  0  0  0  0
 26 28  1  0  0  0  0
 26 83  1  0  0  0  0
 26 84  1  0  0  0  0
 27 35  1  0  0  0  0
 27 85  1  0  0  0  0
 27 86  1  0  0  0  0
 28 36  1  0  0  0  0
 28 87  1  0  0  0  0
 28 88  1  0  0  0  0
 29 39  1  0  0  0  0
 29 89  1  0  0  0  0
 30 40  1  0  0  0  0
 30 90  1  0  0  0  0
 31 41  2  0  0  0  0
 31 91  1  0  0  0  0
 32 42  2  0  0  0  0
 32 92  1  0  0  0  0
 33 37  1  0  0  0  0
 34 38  1  0  0  0  0
 35 51  1  0  0  0  0
 35 93  1  0  0  0  0
 35 94  1  0  0  0  0
 36 52  1  0  0  0  0
 36 95  1  0  0  0  0
 36 96  1  0  0  0  0
 37 43  1  0  0  0  0
 37 97  1  0  0  0  0
 37 98  1  0  0  0  0
 38 44  1  0  0  0  0
 38 99  1  0  0  0  0
 38100  1  0  0  0  0
 39 49  2  0  0  0  0
 39101  1  0  0  0  0
 40 50  2  0  0  0  0
 40102  1  0  0  0  0
 41 49  1  0  0  0  0
 41103  1  0  0  0  0
 42 50  1  0  0  0  0
 42104  1  0  0  0  0
 43 45  1  0  0  0  0
 43105  1  0  0  0  0
 43106  1  0  0  0  0
 44 46  1  0  0  0  0
 44107  1  0  0  0  0
 44108  1  0  0  0  0
 45 47  1  0  0  0  0
 45109  1  0  0  0  0
 45110  1  0  0  0  0
 46 48  1  0  0  0  0
 46111  1  0  0  0  0
 46112  1  0  0  0  0
 47 48  1  0  0  0  0
 47113  1  0  0  0  0
 47114  1  0  0  0  0
 48115  1  0  0  0  0
 48116  1  0  0  0  0
 51 53  1  0  0  0  0
 52 54  1  0  0  0  0
 53 55  2  0  0  0  0
 53 57  1  0  0  0  0
 54 56  2  0  0  0  0
 54 58  1  0  0  0  0
 55 59  1  0  0  0  0
 55117  1  0  0  0  0
 56 60  1  0  0  0  0
 56118  1  0  0  0  0
 57 61  2  0  0  0  0
 57119  1  0  0  0  0
 58 62  2  0  0  0  0
 58120  1  0  0  0  0
 59 63  2  0  0  0  0
 59121  1  0  0  0  0
 60 64  2  0  0  0  0
 60122  1  0  0  0  0
 61 63  1  0  0  0  0
 61123  1  0  0  0  0
 62 64  1  0  0  0  0
 62124  1  0  0  0  0
M  END
> <PUBCHEM_COMPOUND_CID>
118709165

> <PUBCHEM_COMPOUND_CANONICALIZED>
1

> <PUBCHEM_CACTVS_COMPLEXITY>
1320

> <PUBCHEM_CACTVS_HBOND_ACCEPTOR>
10

> <PUBCHEM_CACTVS_HBOND_DONOR>
0

> <PUBCHEM_CACTVS_ROTATABLE_BOND>
25

> <PUBCHEM_CACTVS_SUBSKEYS>
AAADcfB/OYAGAAAAAAAAAAAAAAAAAAAAAAA8eMGCAAAAAAABVAAAHwIAAAAADEbBmCwwCIMABACIAqDSCAACAAAkBQAIiAEICsgIJjKBtxiGMQAmwAGIqYecyOCOhAAAAAAAAAAIAAAAAAAAAAAAAAAAAA==

> <PUBCHEM_IUPAC_OPENEYE_NAME>
bis[4-(4-chlorophenyl)-1-[4-(4-fluorophenyl)-4-oxo-butyl]-4-piperidyl] decanedioate

> <PUBCHEM_IUPAC_CAS_NAME>
decanedioic acid bis[4-(4-chlorophenyl)-1-[4-(4-fluorophenyl)-4-oxobutyl]-4-piperidinyl] ester

> <PUBCHEM_IUPAC_NAME_MARKUP>
bis[4-(4-chlorophenyl)-1-[4-(4-fluorophenyl)-4-oxobutyl]piperidin-4-yl] decanedioate

> <PUBCHEM_IUPAC_NAME>
bis[4-(4-chlorophenyl)-1-[4-(4-fluorophenyl)-4-oxobutyl]piperidin-4-yl] decanedioate

> <PUBCHEM_IUPAC_SYSTEMATIC_NAME>
bis[4-(4-chlorophenyl)-1-[4-(4-fluorophenyl)-4-oxidanylidene-butyl]piperidin-4-yl] decanedioate

> <PUBCHEM_IUPAC_TRADITIONAL_NAME>
sebacic acid bis[4-(4-chlorophenyl)-1-[4-(4-fluorophenyl)-4-keto-butyl]-4-piperidyl] ester

> <PUBCHEM_IUPAC_INCHI>
InChI=1S/C52H60Cl2F2N2O6/c53-43-21-17-41(18-22-43)51(29-35-57(36-30-51)33-7-9-47(59)39-13-25-45(55)26-14-39)63-49(61)11-5-3-1-2-4-6-12-50(62)64-52(42-19-23-44(54)24-20-42)31-37-58(38-32-52)34-8-10-48(60)40-15-27-46(56)28-16-40/h13-28H,1-12,29-38H2

> <PUBCHEM_IUPAC_INCHIKEY>
ZYNARRKYWSBPBI-UHFFFAOYSA-N

> <PUBCHEM_XLOGP3_AA>
11.3

> <PUBCHEM_EXACT_MASS>
916.3796494

> <PUBCHEM_MOLECULAR_FORMULA>
C52H60Cl2F2N2O6

> <PUBCHEM_MOLECULAR_WEIGHT>
917.9

> <PUBCHEM_OPENEYE_CAN_SMILES>
C1CN(CCC1(C2=CC=C(C=C2)Cl)OC(=O)CCCCCCCCC(=O)OC3(CCN(CC3)CCCC(=O)C4=CC=C(C=C4)F)C5=CC=C(C=C5)Cl)CCCC(=O)C6=CC=C(C=C6)F

> <PUBCHEM_OPENEYE_ISO_SMILES>
C1CN(CCC1(C2=CC=C(C=C2)Cl)OC(=O)CCCCCCCCC(=O)OC3(CCN(CC3)CCCC(=O)C4=CC=C(C=C4)F)C5=CC=C(C=C5)Cl)CCCC(=O)C6=CC=C(C=C6)F

> <PUBCHEM_CACTVS_TPSA>
93.2

> <PUBCHEM_MONOISOTOPIC_WEIGHT>
916.3796494

> <PUBCHEM_TOTAL_CHARGE>
0

> <PUBCHEM_HEAVY_ATOM_COUNT>
64

> <PUBCHEM_ATOM_DEF_STEREO_COUNT>
0

> <PUBCHEM_ATOM_UDEF_STEREO_COUNT>
0

> <PUBCHEM_BOND_DEF_STEREO_COUNT>
0

> <PUBCHEM_BOND_UDEF_STEREO_COUNT>
0

> <PUBCHEM_ISOTOPIC_ATOM_COUNT>
0

> <PUBCHEM_COMPONENT_COUNT>
1

> <PUBCHEM_CACTVS_TAUTO_COUNT>
-1

> <PUBCHEM_COORDINATE_TYPE>
1
5
255

> <PUBCHEM_BONDANNOTATIONS>
23  29  8
23  31  8
24  30  8
24  32  8
29  39  8
30  40  8
31  41  8
32  42  8
39  49  8
40  50  8
41  49  8
42  50  8
53  55  8
53  57  8
54  56  8
54  58  8
55  59  8
56  60  8
57  61  8
58  62  8
59  63  8
60  64  8
61  63  8
62  64  8

$$$$
