10432760
  -OEChem-09292322492D

 52 56  0     0  0  0  0  0  0999 V2000
    4.9556   -4.1676    0.0000 S   0  0  0  0  0  0  0  0  0  0  0  0
    8.7323    2.9007    0.0000 O   0  0  0  0  0  0  0  0  0  0  0  0
    4.4033    0.3562    0.0000 N   0  0  0  0  0  0  0  0  0  0  0  0
    4.4264   -1.6437    0.0000 N   0  0  0  0  0  0  0  0  0  0  0  0
    7.0003    2.9007    0.0000 N   0  0  0  0  0  0  0  0  0  0  0  0
    5.2494   -3.2179    0.0000 N   0  0  0  0  0  0  0  0  0  0  0  0
    3.5431   -0.1538    0.0000 C   0  0  0  0  0  0  0  0  0  0  0  0
    5.2750   -0.1338    0.0000 C   0  0  0  0  0  0  0  0  0  0  0  0
    3.5546   -1.1537    0.0000 C   0  0  0  0  0  0  0  0  0  0  0  0
    5.2866   -1.1337    0.0000 C   0  0  0  0  0  0  0  0  0  0  0  0
    4.3917    1.3561    0.0000 C   0  0  0  0  0  0  0  0  0  0  0  0
    5.2519    1.8661    0.0000 C   0  0  0  0  0  0  0  0  0  0  0  0
    5.2403    2.8660    0.0000 C   0  0  0  0  0  0  0  0  0  0  0  0
    4.4380   -2.6436    0.0000 C   0  0  0  0  0  0  0  0  0  0  0  0
    6.1343    3.4007    0.0000 C   0  0  0  0  0  0  0  0  0  0  0  0
    6.1343    4.4007    0.0000 C   0  0  0  0  0  0  0  0  0  0  0  0
    7.0003    4.9007    0.0000 C   0  0  0  0  0  0  0  0  0  0  0  0
    3.6400   -3.2365    0.0000 C   0  0  0  0  0  0  0  0  0  0  0  0
    4.3342    3.3799    0.0000 C   0  0  0  0  0  0  0  0  0  0  0  0
    7.8663    4.4007    0.0000 C   0  0  0  0  0  0  0  0  0  0  0  0
    5.2403    4.9353    0.0000 C   0  0  0  0  0  0  0  0  0  0  0  0
    7.8663    3.4007    0.0000 C   0  0  0  0  0  0  0  0  0  0  0  0
    4.3342    4.4215    0.0000 C   0  0  0  0  0  0  0  0  0  0  0  0
    3.9616   -4.1834    0.0000 C   0  0  0  0  0  0  0  0  0  0  0  0
    2.6592   -3.0416    0.0000 C   0  0  0  0  0  0  0  0  0  0  0  0
    3.3025   -4.9353    0.0000 C   0  0  0  0  0  0  0  0  0  0  0  0
    2.0000   -3.7936    0.0000 C   0  0  0  0  0  0  0  0  0  0  0  0
    2.3216   -4.7404    0.0000 C   0  0  0  0  0  0  0  0  0  0  0  0
    3.3243    0.4263    0.0000 H   0  0  0  0  0  0  0  0  0  0  0  0
    2.9338   -0.2685    0.0000 H   0  0  0  0  0  0  0  0  0  0  0  0
    5.8868   -0.2344    0.0000 H   0  0  0  0  0  0  0  0  0  0  0  0
    5.4803    0.4512    0.0000 H   0  0  0  0  0  0  0  0  0  0  0  0
    2.9428   -1.0532    0.0000 H   0  0  0  0  0  0  0  0  0  0  0  0
    3.3493   -1.7388    0.0000 H   0  0  0  0  0  0  0  0  0  0  0  0
    5.5054   -1.7138    0.0000 H   0  0  0  0  0  0  0  0  0  0  0  0
    5.8959   -1.0190    0.0000 H   0  0  0  0  0  0  0  0  0  0  0  0
    4.1729    1.9362    0.0000 H   0  0  0  0  0  0  0  0  0  0  0  0
    3.7824    1.2414    0.0000 H   0  0  0  0  0  0  0  0  0  0  0  0
    5.4707    1.2860    0.0000 H   0  0  0  0  0  0  0  0  0  0  0  0
    5.8612    1.9808    0.0000 H   0  0  0  0  0  0  0  0  0  0  0  0
    7.3988    5.3756    0.0000 H   0  0  0  0  0  0  0  0  0  0  0  0
    6.6018    5.3756    0.0000 H   0  0  0  0  0  0  0  0  0  0  0  0
    3.7985    3.0678    0.0000 H   0  0  0  0  0  0  0  0  0  0  0  0
    8.4769    4.2930    0.0000 H   0  0  0  0  0  0  0  0  0  0  0  0
    8.0784    4.9833    0.0000 H   0  0  0  0  0  0  0  0  0  0  0  0
    7.0003    2.2807    0.0000 H   0  0  0  0  0  0  0  0  0  0  0  0
    5.2475    5.5553    0.0000 H   0  0  0  0  0  0  0  0  0  0  0  0
    3.7985    4.7336    0.0000 H   0  0  0  0  0  0  0  0  0  0  0  0
    2.4598   -2.4546    0.0000 H   0  0  0  0  0  0  0  0  0  0  0  0
    3.5019   -5.5224    0.0000 H   0  0  0  0  0  0  0  0  0  0  0  0
    1.3919   -3.6728    0.0000 H   0  0  0  0  0  0  0  0  0  0  0  0
    1.9129   -5.2067    0.0000 H   0  0  0  0  0  0  0  0  0  0  0  0
  1  6  1  0  0  0  0
  1 24  1  0  0  0  0
  2 22  2  0  0  0  0
  3  7  1  0  0  0  0
  3  8  1  0  0  0  0
  3 11  1  0  0  0  0
  4  9  1  0  0  0  0
  4 10  1  0  0  0  0
  4 14  1  0  0  0  0
  5 15  1  0  0  0  0
  5 22  1  0  0  0  0
  5 46  1  0  0  0  0
  6 14  2  0  0  0  0
  7  9  1  0  0  0  0
  7 29  1  0  0  0  0
  7 30  1  0  0  0  0
  8 10  1  0  0  0  0
  8 31  1  0  0  0  0
  8 32  1  0  0  0  0
  9 33  1  0  0  0  0
  9 34  1  0  0  0  0
 10 35  1  0  0  0  0
 10 36  1  0  0  0  0
 11 12  1  0  0  0  0
 11 37  1  0  0  0  0
 11 38  1  0  0  0  0
 12 13  1  0  0  0  0
 12 39  1  0  0  0  0
 12 40  1  0  0  0  0
 13 15  1  0  0  0  0
 13 19  2  0  0  0  0
 14 18  1  0  0  0  0
 15 16  2  0  0  0  0
 16 17  1  0  0  0  0
 16 21  1  0  0  0  0
 17 20  1  0  0  0  0
 17 41  1  0  0  0  0
 17 42  1  0  0  0  0
 18 24  1  0  0  0  0
 18 25  2  0  0  0  0
 19 23  1  0  0  0  0
 19 43  1  0  0  0  0
 20 22  1  0  0  0  0
 20 44  1  0  0  0  0
 20 45  1  0  0  0  0
 21 23  2  0  0  0  0
 21 47  1  0  0  0  0
 23 48  1  0  0  0  0
 24 26  2  0  0  0  0
 25 27  1  0  0  0  0
 25 49  1  0  0  0  0
 26 28  1  0  0  0  0
 26 50  1  0  0  0  0
 27 28  2  0  0  0  0
 27 51  1  0  0  0  0
 28 52  1  0  0  0  0
M  END
> <PUBCHEM_COMPOUND_CID>
10432760

> <PUBCHEM_COMPOUND_CANONICALIZED>
1

> <PUBCHEM_CACTVS_COMPLEXITY>
553

> <PUBCHEM_CACTVS_HBOND_ACCEPTOR>
5

> <PUBCHEM_CACTVS_HBOND_DONOR>
1

> <PUBCHEM_CACTVS_ROTATABLE_BOND>
4

> <PUBCHEM_CACTVS_SUBSKEYS>
AAADceB7oABAAAAAAAAAAAAAAAAAAWAAAAA8eIEAAAAAAFix9AAAHgQQQAAADAjB2gQx8dPAAACsAidycACDABAhAABJmDkoRJiIYLLAmZGUIAxglALIyAcYicCeAAACAAAGAAAAAAQAAAwAAAAAAAAAAA==

> <PUBCHEM_IUPAC_OPENEYE_NAME>
8-[2-[4-(1,2-benzothiazol-3-yl)piperazin-1-yl]ethyl]-3,4-dihydro-1H-quinolin-2-one

> <PUBCHEM_IUPAC_CAS_NAME>
8-[2-[4-(1,2-benzothiazol-3-yl)-1-piperazinyl]ethyl]-3,4-dihydro-1H-quinolin-2-one

> <PUBCHEM_IUPAC_NAME_MARKUP>
8-[2-[4-(1,2-benzothiazol-3-yl)piperazin-1-yl]ethyl]-3,4-dihydro-1<I>H</I>-quinolin-2-one

> <PUBCHEM_IUPAC_NAME>
8-[2-[4-(1,2-benzothiazol-3-yl)piperazin-1-yl]ethyl]-3,4-dihydro-1H-quinolin-2-one

> <PUBCHEM_IUPAC_SYSTEMATIC_NAME>
8-[2-[4-(1,2-benzothiazol-3-yl)piperazin-1-yl]ethyl]-3,4-dihydro-1H-quinolin-2-one

> <PUBCHEM_IUPAC_TRADITIONAL_NAME>
8-[2-[4-(1,2-benzothiazol-3-yl)piperazino]ethyl]-3,4-dihydrocarbostyril

> <PUBCHEM_IUPAC_INCHI>
InChI=1S/C22H24N4OS/c27-20-9-8-16-4-3-5-17(21(16)23-20)10-11-25-12-14-26(15-13-25)22-18-6-1-2-7-19(18)28-24-22/h1-7H,8-15H2,(H,23,27)

> <PUBCHEM_IUPAC_INCHIKEY>
KFURNDMKXUAAPV-UHFFFAOYSA-N

> <PUBCHEM_XLOGP3_AA>
3.7

> <PUBCHEM_EXACT_MASS>
392.16708258

> <PUBCHEM_MOLECULAR_FORMULA>
C22H24N4OS

> <PUBCHEM_MOLECULAR_WEIGHT>
392.5

> <PUBCHEM_OPENEYE_CAN_SMILES>
C1CC(=O)NC2=C1C=CC=C2CCN3CCN(CC3)C4=NSC5=CC=CC=C54

> <PUBCHEM_OPENEYE_ISO_SMILES>
C1CC(=O)NC2=C1C=CC=C2CCN3CCN(CC3)C4=NSC5=CC=CC=C54

> <PUBCHEM_CACTVS_TPSA>
76.7

> <PUBCHEM_MONOISOTOPIC_WEIGHT>
392.16708258

> <PUBCHEM_TOTAL_CHARGE>
0

> <PUBCHEM_HEAVY_ATOM_COUNT>
28

> <PUBCHEM_ATOM_DEF_STEREO_COUNT>
0

> <PUBCHEM_ATOM_UDEF_STEREO_COUNT>
0

> <PUBCHEM_BOND_DEF_STEREO_COUNT>
0

> <PUBCHEM_BOND_UDEF_STEREO_COUNT>
0

> <PUBCHEM_ISOTOPIC_ATOM_COUNT>
0

> <PUBCHEM_COMPONENT_COUNT>
1

> <PUBCHEM_CACTVS_TAUTO_COUNT>
-1

> <PUBCHEM_COORDINATE_TYPE>
1
5
255

> <PUBCHEM_BONDANNOTATIONS>
1  24  8
1  6  8
13  15  8
13  19  8
14  18  8
15  16  8
16  21  8
18  24  8
18  25  8
19  23  8
21  23  8
24  26  8
25  27  8
26  28  8
27  28  8
6  14  8

$$$$
