14950456
  -OEChem-09292322512D

 69 72  0     1  0  0  0  0  0999 V2000
    8.9867    4.7960    0.0000 O   0  0  0  0  0  0  0  0  0  0  0  0
   10.7303    1.8027    0.0000 O   0  0  0  0  0  0  0  0  0  0  0  0
    7.2740   -0.2106    0.0000 N   0  0  3  0  0  0  0  0  0  0  0  0
    9.8585    3.2993    0.0000 N   0  0  0  0  0  0  0  0  0  0  0  0
    4.5836   -4.5846    0.0000 N   0  0  0  0  0  0  0  0  0  0  0  0
    2.0000   -3.7799    0.0000 N   0  0  0  0  0  0  0  0  0  0  0  0
    7.2778   -1.2106    0.0000 C   0  0  1  0  0  0  0  0  0  0  0  0
    8.1799   -1.7315    0.0000 C   0  0  0  0  0  0  0  0  0  0  0  0
    6.3798   -1.7384    0.0000 C   0  0  0  0  0  0  0  0  0  0  0  0
    8.1719   -2.7731    0.0000 C   0  0  0  0  0  0  0  0  0  0  0  0
    6.3958   -2.7799    0.0000 C   0  0  0  0  0  0  0  0  0  0  0  0
    7.2619   -3.2799    0.0000 C   0  0  0  0  0  0  0  0  0  0  0  0
    8.1381    0.2927    0.0000 C   0  0  0  0  0  0  0  0  0  0  0  0
   11.5867    4.3060    0.0000 C   0  0  0  0  0  0  0  0  0  0  0  0
    6.4060    0.2860    0.0000 C   0  0  0  0  0  0  0  0  0  0  0  0
    8.1342    1.2927    0.0000 C   0  0  0  0  0  0  0  0  0  0  0  0
    5.5298   -3.2799    0.0000 C   0  0  0  0  0  0  0  0  0  0  0  0
   10.7188    4.8027    0.0000 C   0  0  0  0  0  0  0  0  0  0  0  0
   11.5906    3.3060    0.0000 C   0  0  0  0  0  0  0  0  0  0  0  0
    8.9983    1.7960    0.0000 C   0  0  0  0  0  0  0  0  0  0  0  0
    8.9944    2.7960    0.0000 C   0  0  0  0  0  0  0  0  0  0  0  0
    7.2619   -4.2799    0.0000 C   0  0  0  0  0  0  0  0  0  0  0  0
    5.5298   -4.2799    0.0000 C   0  0  0  0  0  0  0  0  0  0  0  0
    6.4022    1.2860    0.0000 C   0  0  0  0  0  0  0  0  0  0  0  0
    9.8547    4.2993    0.0000 C   0  0  0  0  0  0  0  0  0  0  0  0
   10.7265    2.8027    0.0000 C   0  0  0  0  0  0  0  0  0  0  0  0
   12.0834    5.1740    0.0000 C   0  0  0  0  0  0  0  0  0  0  0  0
   12.5867    4.3099    0.0000 C   0  0  0  0  0  0  0  0  0  0  0  0
    6.3958   -4.7799    0.0000 C   0  0  0  0  0  0  0  0  0  0  0  0
    4.5836   -2.9752    0.0000 C   0  0  0  0  0  0  0  0  0  0  0  0
    4.0000   -3.7799    0.0000 C   0  0  0  0  0  0  0  0  0  0  0  0
    5.5342    1.7827    0.0000 C   0  0  0  0  0  0  0  0  0  0  0  0
    3.0000   -3.7799    0.0000 C   0  0  0  0  0  0  0  0  0  0  0  0
    7.8142   -0.8996    0.0000 H   0  0  0  0  0  0  0  0  0  0  0  0
    8.7899   -1.8422    0.0000 H   0  0  0  0  0  0  0  0  0  0  0  0
    8.3935   -1.1494    0.0000 H   0  0  0  0  0  0  0  0  0  0  0  0
    6.1618   -1.1580    0.0000 H   0  0  0  0  0  0  0  0  0  0  0  0
    5.7706   -1.8539    0.0000 H   0  0  0  0  0  0  0  0  0  0  0  0
    8.3764   -3.3583    0.0000 H   0  0  0  0  0  0  0  0  0  0  0  0
    8.7835   -2.6717    0.0000 H   0  0  0  0  0  0  0  0  0  0  0  0
    8.3524   -0.2891    0.0000 H   0  0  0  0  0  0  0  0  0  0  0  0
    8.7482    0.4027    0.0000 H   0  0  0  0  0  0  0  0  0  0  0  0
    5.7950    0.3913    0.0000 H   0  0  0  0  0  0  0  0  0  0  0  0
    6.1962   -0.2974    0.0000 H   0  0  0  0  0  0  0  0  0  0  0  0
    7.9199    1.8745    0.0000 H   0  0  0  0  0  0  0  0  0  0  0  0
    7.5240    1.1827    0.0000 H   0  0  0  0  0  0  0  0  0  0  0  0
   11.1155    5.2791    0.0000 H   0  0  0  0  0  0  0  0  0  0  0  0
   10.3184    5.2761    0.0000 H   0  0  0  0  0  0  0  0  0  0  0  0
   11.8049    2.7242    0.0000 H   0  0  0  0  0  0  0  0  0  0  0  0
   12.2007    3.4160    0.0000 H   0  0  0  0  0  0  0  0  0  0  0  0
    9.2126    1.2142    0.0000 H   0  0  0  0  0  0  0  0  0  0  0  0
    9.6085    1.9060    0.0000 H   0  0  0  0  0  0  0  0  0  0  0  0
    8.7802    3.3778    0.0000 H   0  0  0  0  0  0  0  0  0  0  0  0
    8.3843    2.6860    0.0000 H   0  0  0  0  0  0  0  0  0  0  0  0
    7.7988   -4.5899    0.0000 H   0  0  0  0  0  0  0  0  0  0  0  0
    7.0132    1.1807    0.0000 H   0  0  0  0  0  0  0  0  0  0  0  0
    6.6120    1.8694    0.0000 H   0  0  0  0  0  0  0  0  0  0  0  0
   12.6215    4.8660    0.0000 H   0  0  0  0  0  0  0  0  0  0  0  0
   12.3913    5.7121    0.0000 H   0  0  0  0  0  0  0  0  0  0  0  0
   11.5453    5.4819    0.0000 H   0  0  0  0  0  0  0  0  0  0  0  0
   12.5891    3.6899    0.0000 H   0  0  0  0  0  0  0  0  0  0  0  0
   13.2067    4.3122    0.0000 H   0  0  0  0  0  0  0  0  0  0  0  0
   12.5843    4.9299    0.0000 H   0  0  0  0  0  0  0  0  0  0  0  0
    6.3958   -5.3999    0.0000 H   0  0  0  0  0  0  0  0  0  0  0  0
    4.3910   -2.3858    0.0000 H   0  0  0  0  0  0  0  0  0  0  0  0
    4.3910   -5.1740    0.0000 H   0  0  0  0  0  0  0  0  0  0  0  0
    5.8422    2.3208    0.0000 H   0  0  0  0  0  0  0  0  0  0  0  0
    4.9961    2.0906    0.0000 H   0  0  0  0  0  0  0  0  0  0  0  0
    5.2263    1.2445    0.0000 H   0  0  0  0  0  0  0  0  0  0  0  0
  1 25  2  0  0  0  0
  2 26  2  0  0  0  0
  7  3  1  1  0  0  0
  3 13  1  0  0  0  0
  3 15  1  0  0  0  0
  4 21  1  0  0  0  0
  4 25  1  0  0  0  0
  4 26  1  0  0  0  0
  5 23  1  0  0  0  0
  5 31  1  0  0  0  0
  5 66  1  0  0  0  0
  6 33  3  0  0  0  0
  7  8  1  0  0  0  0
  7  9  1  0  0  0  0
  7 34  1  0  0  0  0
  8 10  1  0  0  0  0
  8 35  1  0  0  0  0
  8 36  1  0  0  0  0
  9 11  1  0  0  0  0
  9 37  1  0  0  0  0
  9 38  1  0  0  0  0
 10 12  1  0  0  0  0
 10 39  1  0  0  0  0
 10 40  1  0  0  0  0
 11 12  2  0  0  0  0
 11 17  1  0  0  0  0
 12 22  1  0  0  0  0
 13 16  1  0  0  0  0
 13 41  1  0  0  0  0
 13 42  1  0  0  0  0
 14 18  1  0  0  0  0
 14 19  1  0  0  0  0
 14 27  1  0  0  0  0
 14 28  1  0  0  0  0
 15 24  1  0  0  0  0
 15 43  1  0  0  0  0
 15 44  1  0  0  0  0
 16 20  1  0  0  0  0
 16 45  1  0  0  0  0
 16 46  1  0  0  0  0
 17 23  2  0  0  0  0
 17 30  1  0  0  0  0
 18 25  1  0  0  0  0
 18 47  1  0  0  0  0
 18 48  1  0  0  0  0
 19 26  1  0  0  0  0
 19 49  1  0  0  0  0
 19 50  1  0  0  0  0
 20 21  1  0  0  0  0
 20 51  1  0  0  0  0
 20 52  1  0  0  0  0
 21 53  1  0  0  0  0
 21 54  1  0  0  0  0
 22 29  2  0  0  0  0
 22 55  1  0  0  0  0
 23 29  1  0  0  0  0
 24 32  1  0  0  0  0
 24 56  1  0  0  0  0
 24 57  1  0  0  0  0
 27 58  1  0  0  0  0
 27 59  1  0  0  0  0
 27 60  1  0  0  0  0
 28 61  1  0  0  0  0
 28 62  1  0  0  0  0
 28 63  1  0  0  0  0
 29 64  1  0  0  0  0
 30 31  2  0  0  0  0
 30 65  1  0  0  0  0
 31 33  1  0  0  0  0
 32 67  1  0  0  0  0
 32 68  1  0  0  0  0
 32 69  1  0  0  0  0
M  END
> <PUBCHEM_COMPOUND_CID>
14950456

> <PUBCHEM_COMPOUND_CANONICALIZED>
1

> <PUBCHEM_CACTVS_COMPLEXITY>
751

> <PUBCHEM_CACTVS_HBOND_ACCEPTOR>
4

> <PUBCHEM_CACTVS_HBOND_DONOR>
1

> <PUBCHEM_CACTVS_ROTATABLE_BOND>
8

> <PUBCHEM_CACTVS_SUBSKEYS>
AAADcfB7sAAAAAAAAAAAAAAAAAAAAWAAAAA8YIAAAAAAAFjB8AAAHgAQAAAADijBngQywPPJkAC4ByVyVACigCAhAiAImSE4ZJgIoPLAkZGEIAhgliDIyA8Yg8APiAACQAASAAAQAASAACQAAAAAAAAAAA==

> <PUBCHEM_IUPAC_OPENEYE_NAME>
(8S)-8-[4-(4,4-dimethyl-2,6-dioxo-1-piperidyl)butyl-propyl-amino]-6,7,8,9-tetrahydro-3H-benzo[e]indole-2-carbonitrile

> <PUBCHEM_IUPAC_CAS_NAME>
(8S)-8-[4-(4,4-dimethyl-2,6-dioxo-1-piperidinyl)butyl-propylamino]-6,7,8,9-tetrahydro-3H-benzo[e]indole-2-carbonitrile

> <PUBCHEM_IUPAC_NAME_MARKUP>
(8<I>S</I>)-8-[4-(4,4-dimethyl-2,6-dioxopiperidin-1-yl)butyl-propylamino]-6,7,8,9-tetrahydro-3<I>H</I>-benzo[e]indole-2-carbonitrile

> <PUBCHEM_IUPAC_NAME>
(8S)-8-[4-(4,4-dimethyl-2,6-dioxopiperidin-1-yl)butyl-propylamino]-6,7,8,9-tetrahydro-3H-benzo[e]indole-2-carbonitrile

> <PUBCHEM_IUPAC_SYSTEMATIC_NAME>
(8S)-8-[4-[4,4-dimethyl-2,6-bis(oxidanylidene)piperidin-1-yl]butyl-propyl-amino]-6,7,8,9-tetrahydro-3H-benzo[e]indole-2-carbonitrile

> <PUBCHEM_IUPAC_TRADITIONAL_NAME>
(8S)-8-[4-(2,6-diketo-4,4-dimethyl-piperidino)butyl-propyl-amino]-6,7,8,9-tetrahydro-3H-benz[e]indole-2-carbonitrile

> <PUBCHEM_IUPAC_INCHI>
InChI=1S/C27H36N4O2/c1-4-11-30(12-5-6-13-31-25(32)16-27(2,3)17-26(31)33)21-9-7-19-8-10-24-23(22(19)15-21)14-20(18-28)29-24/h8,10,14,21,29H,4-7,9,11-13,15-17H2,1-3H3/t21-/m0/s1

> <PUBCHEM_IUPAC_INCHIKEY>
KVMRAZYLDHPBOZ-NRFANRHFSA-N

> <PUBCHEM_XLOGP3_AA>
4.6

> <PUBCHEM_EXACT_MASS>
448.28382640

> <PUBCHEM_MOLECULAR_FORMULA>
C27H36N4O2

> <PUBCHEM_MOLECULAR_WEIGHT>
448.6

> <PUBCHEM_OPENEYE_CAN_SMILES>
CCCN(CCCCN1C(=O)CC(CC1=O)(C)C)C2CCC3=C(C2)C4=C(C=C3)NC(=C4)C#N

> <PUBCHEM_OPENEYE_ISO_SMILES>
CCCN(CCCCN1C(=O)CC(CC1=O)(C)C)[C@H]2CCC3=C(C2)C4=C(C=C3)NC(=C4)C#N

> <PUBCHEM_CACTVS_TPSA>
80.2

> <PUBCHEM_MONOISOTOPIC_WEIGHT>
448.28382640

> <PUBCHEM_TOTAL_CHARGE>
0

> <PUBCHEM_HEAVY_ATOM_COUNT>
33

> <PUBCHEM_ATOM_DEF_STEREO_COUNT>
1

> <PUBCHEM_ATOM_UDEF_STEREO_COUNT>
0

> <PUBCHEM_BOND_DEF_STEREO_COUNT>
0

> <PUBCHEM_BOND_UDEF_STEREO_COUNT>
0

> <PUBCHEM_ISOTOPIC_ATOM_COUNT>
0

> <PUBCHEM_COMPONENT_COUNT>
1

> <PUBCHEM_CACTVS_TAUTO_COUNT>
-1

> <PUBCHEM_COORDINATE_TYPE>
1
5
255

> <PUBCHEM_BONDANNOTATIONS>
11  12  8
11  17  8
12  22  8
17  23  8
17  30  8
22  29  8
23  29  8
7  3  5
30  31  8
5  23  8
5  31  8

$$$$
