44452142
  -OEChem-09292322032D

 70 74  0     0  0  0  0  0  0999 V2000
   14.3244    5.5000    0.0000 F   0  0  0  0  0  0  0  0  0  0  0  0
   13.3244    6.5000    0.0000 F   0  0  0  0  0  0  0  0  0  0  0  0
   12.3244    5.5000    0.0000 F   0  0  0  0  0  0  0  0  0  0  0  0
    2.0000   -2.9758    0.0000 F   0  0  0  0  0  0  0  0  0  0  0  0
    8.9942   -2.0000    0.0000 O   0  0  0  0  0  0  0  0  0  0  0  0
    5.5301   -6.0000    0.0000 O   0  0  0  0  0  0  0  0  0  0  0  0
    9.8602    1.5000    0.0000 N   0  0  0  0  0  0  0  0  0  0  0  0
   11.5923    2.5000    0.0000 N   0  0  0  0  0  0  0  0  0  0  0  0
    7.2622   -2.0000    0.0000 N   0  0  0  0  0  0  0  0  0  0  0  0
    6.3961   -4.5000    0.0000 N   0  0  0  0  0  0  0  0  0  0  0  0
    5.5301   -3.0000    0.0000 N   0  0  0  0  0  0  0  0  0  0  0  0
   10.7263    1.0000    0.0000 C   0  0  0  0  0  0  0  0  0  0  0  0
    9.8602    2.5000    0.0000 C   0  0  0  0  0  0  0  0  0  0  0  0
   11.5923    1.5000    0.0000 C   0  0  0  0  0  0  0  0  0  0  0  0
   10.7263    3.0000    0.0000 C   0  0  0  0  0  0  0  0  0  0  0  0
    8.9942    1.0000    0.0000 C   0  0  0  0  0  0  0  0  0  0  0  0
    8.9942   -0.0000    0.0000 C   0  0  0  0  0  0  0  0  0  0  0  0
   12.4583    3.0000    0.0000 C   0  0  0  0  0  0  0  0  0  0  0  0
    8.1282   -0.5000    0.0000 C   0  0  0  0  0  0  0  0  0  0  0  0
   12.4583    4.0000    0.0000 C   0  0  0  0  0  0  0  0  0  0  0  0
   13.3244    2.5000    0.0000 C   0  0  0  0  0  0  0  0  0  0  0  0
    8.1282   -1.5000    0.0000 C   0  0  0  0  0  0  0  0  0  0  0  0
   13.3244    4.5000    0.0000 C   0  0  0  0  0  0  0  0  0  0  0  0
   14.1904    3.0000    0.0000 C   0  0  0  0  0  0  0  0  0  0  0  0
   14.1904    4.0000    0.0000 C   0  0  0  0  0  0  0  0  0  0  0  0
    7.2622   -3.0000    0.0000 C   0  0  0  0  0  0  0  0  0  0  0  0
   13.3244    5.5000    0.0000 C   0  0  0  0  0  0  0  0  0  0  0  0
    6.3961   -3.5000    0.0000 C   0  0  0  0  0  0  0  0  0  0  0  0
    5.5301   -5.0000    0.0000 C   0  0  0  0  0  0  0  0  0  0  0  0
    4.6641   -4.5000    0.0000 C   0  0  0  0  0  0  0  0  0  0  0  0
    4.6641   -3.5000    0.0000 C   0  0  0  0  0  0  0  0  0  0  0  0
    7.2622   -5.0000    0.0000 C   0  0  0  0  0  0  0  0  0  0  0  0
    3.7702   -5.0347    0.0000 C   0  0  0  0  0  0  0  0  0  0  0  0
    3.7702   -2.9653    0.0000 C   0  0  0  0  0  0  0  0  0  0  0  0
    8.1282   -4.5000    0.0000 C   0  0  0  0  0  0  0  0  0  0  0  0
    7.2622   -6.0000    0.0000 C   0  0  0  0  0  0  0  0  0  0  0  0
    2.8641   -4.5208    0.0000 C   0  0  0  0  0  0  0  0  0  0  0  0
    2.8641   -3.4792    0.0000 C   0  0  0  0  0  0  0  0  0  0  0  0
    8.9942   -5.0000    0.0000 C   0  0  0  0  0  0  0  0  0  0  0  0
    8.1282   -6.5000    0.0000 C   0  0  0  0  0  0  0  0  0  0  0  0
    8.9942   -6.0000    0.0000 C   0  0  0  0  0  0  0  0  0  0  0  0
   10.3278    0.5251    0.0000 H   0  0  0  0  0  0  0  0  0  0  0  0
   11.1248    0.5251    0.0000 H   0  0  0  0  0  0  0  0  0  0  0  0
    9.6482    3.0826    0.0000 H   0  0  0  0  0  0  0  0  0  0  0  0
    9.2497    2.3923    0.0000 H   0  0  0  0  0  0  0  0  0  0  0  0
   11.8044    0.9174    0.0000 H   0  0  0  0  0  0  0  0  0  0  0  0
   12.2029    1.6077    0.0000 H   0  0  0  0  0  0  0  0  0  0  0  0
   11.1248    3.4750    0.0000 H   0  0  0  0  0  0  0  0  0  0  0  0
   10.3278    3.4750    0.0000 H   0  0  0  0  0  0  0  0  0  0  0  0
    8.7822    1.5826    0.0000 H   0  0  0  0  0  0  0  0  0  0  0  0
    8.3836    0.8923    0.0000 H   0  0  0  0  0  0  0  0  0  0  0  0
    9.2063   -0.5826    0.0000 H   0  0  0  0  0  0  0  0  0  0  0  0
    9.6048    0.1077    0.0000 H   0  0  0  0  0  0  0  0  0  0  0  0
    7.9162    0.0826    0.0000 H   0  0  0  0  0  0  0  0  0  0  0  0
    7.5176   -0.6077    0.0000 H   0  0  0  0  0  0  0  0  0  0  0  0
   11.9214    4.3100    0.0000 H   0  0  0  0  0  0  0  0  0  0  0  0
   13.3244    1.8800    0.0000 H   0  0  0  0  0  0  0  0  0  0  0  0
   14.7273    2.6900    0.0000 H   0  0  0  0  0  0  0  0  0  0  0  0
   14.7273    4.3100    0.0000 H   0  0  0  0  0  0  0  0  0  0  0  0
    6.7252   -1.6900    0.0000 H   0  0  0  0  0  0  0  0  0  0  0  0
    7.4742   -3.5826    0.0000 H   0  0  0  0  0  0  0  0  0  0  0  0
    7.8728   -2.8923    0.0000 H   0  0  0  0  0  0  0  0  0  0  0  0
    3.7773   -5.6546    0.0000 H   0  0  0  0  0  0  0  0  0  0  0  0
    3.7773   -2.3454    0.0000 H   0  0  0  0  0  0  0  0  0  0  0  0
    8.1282   -3.8800    0.0000 H   0  0  0  0  0  0  0  0  0  0  0  0
    6.7252   -6.3100    0.0000 H   0  0  0  0  0  0  0  0  0  0  0  0
    2.3284   -4.8329    0.0000 H   0  0  0  0  0  0  0  0  0  0  0  0
    9.5312   -4.6900    0.0000 H   0  0  0  0  0  0  0  0  0  0  0  0
    8.1282   -7.1200    0.0000 H   0  0  0  0  0  0  0  0  0  0  0  0
    9.5312   -6.3100    0.0000 H   0  0  0  0  0  0  0  0  0  0  0  0
  1 27  1  0  0  0  0
  2 27  1  0  0  0  0
  3 27  1  0  0  0  0
  4 38  1  0  0  0  0
  5 22  2  0  0  0  0
  6 29  2  0  0  0  0
  7 12  1  0  0  0  0
  7 13  1  0  0  0  0
  7 16  1  0  0  0  0
  8 14  1  0  0  0  0
  8 15  1  0  0  0  0
  8 18  1  0  0  0  0
  9 22  1  0  0  0  0
  9 26  1  0  0  0  0
  9 60  1  0  0  0  0
 10 28  1  0  0  0  0
 10 29  1  0  0  0  0
 10 32  1  0  0  0  0
 11 28  2  0  0  0  0
 11 31  1  0  0  0  0
 12 14  1  0  0  0  0
 12 42  1  0  0  0  0
 12 43  1  0  0  0  0
 13 15  1  0  0  0  0
 13 44  1  0  0  0  0
 13 45  1  0  0  0  0
 14 46  1  0  0  0  0
 14 47  1  0  0  0  0
 15 48  1  0  0  0  0
 15 49  1  0  0  0  0
 16 17  1  0  0  0  0
 16 50  1  0  0  0  0
 16 51  1  0  0  0  0
 17 19  1  0  0  0  0
 17 52  1  0  0  0  0
 17 53  1  0  0  0  0
 18 20  1  0  0  0  0
 18 21  2  0  0  0  0
 19 22  1  0  0  0  0
 19 54  1  0  0  0  0
 19 55  1  0  0  0  0
 20 23  2  0  0  0  0
 20 56  1  0  0  0  0
 21 24  1  0  0  0  0
 21 57  1  0  0  0  0
 23 25  1  0  0  0  0
 23 27  1  0  0  0  0
 24 25  2  0  0  0  0
 24 58  1  0  0  0  0
 25 59  1  0  0  0  0
 26 28  1  0  0  0  0
 26 61  1  0  0  0  0
 26 62  1  0  0  0  0
 29 30  1  0  0  0  0
 30 31  2  0  0  0  0
 30 33  1  0  0  0  0
 31 34  1  0  0  0  0
 32 35  2  0  0  0  0
 32 36  1  0  0  0  0
 33 37  2  0  0  0  0
 33 63  1  0  0  0  0
 34 38  2  0  0  0  0
 34 64  1  0  0  0  0
 35 39  1  0  0  0  0
 35 65  1  0  0  0  0
 36 40  2  0  0  0  0
 36 66  1  0  0  0  0
 37 38  1  0  0  0  0
 37 67  1  0  0  0  0
 39 41  2  0  0  0  0
 39 68  1  0  0  0  0
 40 41  1  0  0  0  0
 40 69  1  0  0  0  0
 41 70  1  0  0  0  0
M  END
> <PUBCHEM_COMPOUND_CID>
44452142

> <PUBCHEM_COMPOUND_CANONICALIZED>
1

> <PUBCHEM_CACTVS_COMPLEXITY>
932

> <PUBCHEM_CACTVS_HBOND_ACCEPTOR>
9

> <PUBCHEM_CACTVS_HBOND_DONOR>
1

> <PUBCHEM_CACTVS_ROTATABLE_BOND>
8

> <PUBCHEM_CACTVS_SUBSKEYS>
AAADceB7scAAAAAAAAAAAAAAAAAAAAAAAAA8YMECAAAAAACBUAAAHwAQAAAADAjBmBwxwIPAAACoAidydACCAAElAgAJiIEYZMgIYDrA3ZGUIYhglgDIyccciACOAAAAQAACAAAAAACAAAQAAAAAAAAAAA==

> <PUBCHEM_IUPAC_OPENEYE_NAME>
N-[(7-fluoro-4-oxo-3-phenyl-quinazolin-2-yl)methyl]-4-[4-[3-(trifluoromethyl)phenyl]piperazin-1-yl]butanamide

> <PUBCHEM_IUPAC_CAS_NAME>
N-[(7-fluoro-4-oxo-3-phenyl-2-quinazolinyl)methyl]-4-[4-[3-(trifluoromethyl)phenyl]-1-piperazinyl]butanamide

> <PUBCHEM_IUPAC_NAME_MARKUP>
<I>N</I>-[(7-fluoro-4-oxo-3-phenylquinazolin-2-yl)methyl]-4-[4-[3-(trifluoromethyl)phenyl]piperazin-1-yl]butanamide

> <PUBCHEM_IUPAC_NAME>
N-[(7-fluoro-4-oxo-3-phenylquinazolin-2-yl)methyl]-4-[4-[3-(trifluoromethyl)phenyl]piperazin-1-yl]butanamide

> <PUBCHEM_IUPAC_SYSTEMATIC_NAME>
N-[(7-fluoranyl-4-oxidanylidene-3-phenyl-quinazolin-2-yl)methyl]-4-[4-[3-(trifluoromethyl)phenyl]piperazin-1-yl]butanamide

> <PUBCHEM_IUPAC_TRADITIONAL_NAME>
N-[(7-fluoro-4-keto-3-phenyl-quinazolin-2-yl)methyl]-4-[4-[3-(trifluoromethyl)phenyl]piperazino]butyramide

> <PUBCHEM_IUPAC_INCHI>
InChI=1S/C30H29F4N5O2/c31-22-11-12-25-26(19-22)36-27(39(29(25)41)23-7-2-1-3-8-23)20-35-28(40)10-5-13-37-14-16-38(17-15-37)24-9-4-6-21(18-24)30(32,33)34/h1-4,6-9,11-12,18-19H,5,10,13-17,20H2,(H,35,40)

> <PUBCHEM_IUPAC_INCHIKEY>
YBKCQCAJYCNQFK-UHFFFAOYSA-N

> <PUBCHEM_XLOGP3_AA>
4.7

> <PUBCHEM_EXACT_MASS>
567.22573783

> <PUBCHEM_MOLECULAR_FORMULA>
C30H29F4N5O2

> <PUBCHEM_MOLECULAR_WEIGHT>
567.6

> <PUBCHEM_OPENEYE_CAN_SMILES>
C1CN(CCN1CCCC(=O)NCC2=NC3=C(C=CC(=C3)F)C(=O)N2C4=CC=CC=C4)C5=CC=CC(=C5)C(F)(F)F

> <PUBCHEM_OPENEYE_ISO_SMILES>
C1CN(CCN1CCCC(=O)NCC2=NC3=C(C=CC(=C3)F)C(=O)N2C4=CC=CC=C4)C5=CC=CC(=C5)C(F)(F)F

> <PUBCHEM_CACTVS_TPSA>
68.2

> <PUBCHEM_MONOISOTOPIC_WEIGHT>
567.22573783

> <PUBCHEM_TOTAL_CHARGE>
0

> <PUBCHEM_HEAVY_ATOM_COUNT>
41

> <PUBCHEM_ATOM_DEF_STEREO_COUNT>
0

> <PUBCHEM_ATOM_UDEF_STEREO_COUNT>
0

> <PUBCHEM_BOND_DEF_STEREO_COUNT>
0

> <PUBCHEM_BOND_UDEF_STEREO_COUNT>
0

> <PUBCHEM_ISOTOPIC_ATOM_COUNT>
0

> <PUBCHEM_COMPONENT_COUNT>
1

> <PUBCHEM_CACTVS_TAUTO_COUNT>
-1

> <PUBCHEM_COORDINATE_TYPE>
1
5
255

> <PUBCHEM_BONDANNOTATIONS>
10  28  8
10  29  8
11  28  8
11  31  8
18  20  8
18  21  8
20  23  8
21  24  8
23  25  8
24  25  8
29  30  8
30  31  8
30  33  8
31  34  8
32  35  8
32  36  8
33  37  8
34  38  8
35  39  8
36  40  8
37  38  8
39  41  8
40  41  8

$$$$
