49836496
  -OEChem-09292322072D

 37 39  0     1  0  0  0  0  0999 V2000
    2.0000   -0.6248    0.0000 F   0  0  0  0  0  0  0  0  0  0  0  0
    7.6183    2.0242    0.0000 N   0  0  0  0  0  0  0  0  0  0  0  0
    5.5443   -2.4296    0.0000 N   0  0  0  0  0  0  0  0  0  0  0  0
    5.8550    0.1304    0.0000 C   0  0  1  0  0  0  0  0  0  0  0  0
    6.8083    1.4378    0.0000 C   0  0  2  0  0  0  0  0  0  0  0  0
    6.8066    0.4378    0.0000 C   0  0  0  0  0  0  0  0  0  0  0  0
    5.2686    0.9405    0.0000 C   0  0  0  0  0  0  0  0  0  0  0  0
    5.8578    1.7485    0.0000 C   0  0  0  0  0  0  0  0  0  0  0  0
    5.5443   -0.8201    0.0000 C   0  0  0  0  0  0  0  0  0  0  0  0
    4.5981   -1.1248    0.0000 C   0  0  0  0  0  0  0  0  0  0  0  0
    6.1279   -1.6248    0.0000 C   0  0  0  0  0  0  0  0  0  0  0  0
    7.5155    3.0189    0.0000 C   0  0  0  0  0  0  0  0  0  0  0  0
    8.5312    1.6159    0.0000 C   0  0  0  0  0  0  0  0  0  0  0  0
    4.5981   -2.1248    0.0000 C   0  0  0  0  0  0  0  0  0  0  0  0
    3.7320   -0.6248    0.0000 C   0  0  0  0  0  0  0  0  0  0  0  0
    3.7320   -2.6248    0.0000 C   0  0  0  0  0  0  0  0  0  0  0  0
    2.8660   -1.1248    0.0000 C   0  0  0  0  0  0  0  0  0  0  0  0
    2.8660   -2.1248    0.0000 C   0  0  0  0  0  0  0  0  0  0  0  0
    6.4550   -0.4717    0.0000 H   0  0  0  0  0  0  0  0  0  0  0  0
    7.3602    1.1554    0.0000 H   0  0  0  0  0  0  0  0  0  0  0  0
    6.9344   -0.1689    0.0000 H   0  0  0  0  0  0  0  0  0  0  0  0
    7.4233    0.5015    0.0000 H   0  0  0  0  0  0  0  0  0  0  0  0
    4.8085    1.3561    0.0000 H   0  0  0  0  0  0  0  0  0  0  0  0
    4.8071    0.5264    0.0000 H   0  0  0  0  0  0  0  0  0  0  0  0
    6.1109    2.3144    0.0000 H   0  0  0  0  0  0  0  0  0  0  0  0
    5.3214    2.0594    0.0000 H   0  0  0  0  0  0  0  0  0  0  0  0
    6.7479   -1.6248    0.0000 H   0  0  0  0  0  0  0  0  0  0  0  0
    8.1322    3.0826    0.0000 H   0  0  0  0  0  0  0  0  0  0  0  0
    7.4518    3.6356    0.0000 H   0  0  0  0  0  0  0  0  0  0  0  0
    6.8988    2.9551    0.0000 H   0  0  0  0  0  0  0  0  0  0  0  0
    8.2780    1.0499    0.0000 H   0  0  0  0  0  0  0  0  0  0  0  0
    9.0971    1.3627    0.0000 H   0  0  0  0  0  0  0  0  0  0  0  0
    8.7843    2.1818    0.0000 H   0  0  0  0  0  0  0  0  0  0  0  0
    5.7369   -3.0189    0.0000 H   0  0  0  0  0  0  0  0  0  0  0  0
    3.7320   -0.0048    0.0000 H   0  0  0  0  0  0  0  0  0  0  0  0
    3.7320   -3.2448    0.0000 H   0  0  0  0  0  0  0  0  0  0  0  0
    2.3291   -2.4348    0.0000 H   0  0  0  0  0  0  0  0  0  0  0  0
  1 17  1  0  0  0  0
  5  2  1  6  0  0  0
  2 12  1  0  0  0  0
  2 13  1  0  0  0  0
  3 11  1  0  0  0  0
  3 14  1  0  0  0  0
  3 34  1  0  0  0  0
  4  6  1  0  0  0  0
  4  7  1  0  0  0  0
  4  9  1  0  0  0  0
  4 19  1  1  0  0  0
  5  6  1  0  0  0  0
  5  8  1  0  0  0  0
  5 20  1  0  0  0  0
  6 21  1  0  0  0  0
  6 22  1  0  0  0  0
  7  8  1  0  0  0  0
  7 23  1  0  0  0  0
  7 24  1  0  0  0  0
  8 25  1  0  0  0  0
  8 26  1  0  0  0  0
  9 10  1  0  0  0  0
  9 11  2  0  0  0  0
 10 14  2  0  0  0  0
 10 15  1  0  0  0  0
 11 27  1  0  0  0  0
 12 28  1  0  0  0  0
 12 29  1  0  0  0  0
 12 30  1  0  0  0  0
 13 31  1  0  0  0  0
 13 32  1  0  0  0  0
 13 33  1  0  0  0  0
 14 16  1  0  0  0  0
 15 17  2  0  0  0  0
 15 35  1  0  0  0  0
 16 18  2  0  0  0  0
 16 36  1  0  0  0  0
 17 18  1  0  0  0  0
 18 37  1  0  0  0  0
M  END
> <PUBCHEM_COMPOUND_CID>
49836496

> <PUBCHEM_COMPOUND_CANONICALIZED>
1

> <PUBCHEM_CACTVS_COMPLEXITY>
294

> <PUBCHEM_CACTVS_HBOND_ACCEPTOR>
2

> <PUBCHEM_CACTVS_HBOND_DONOR>
1

> <PUBCHEM_CACTVS_ROTATABLE_BOND>
2

> <PUBCHEM_CACTVS_SUBSKEYS>
AAADceBzAQAAAAAAAAAAAAAAAAAAAeIAAAAwAAAAAAAAAFgB8AAAHQAQAAAADSjBHgw+wPPJkACgAzRnRACCgCAxAiAI2aA4ZJgIIOLAkZGEIAhgkADIyAcQgMAOgAAAAAACAAAAAAAAAAQAACAAAAAAAA==

> <PUBCHEM_IUPAC_OPENEYE_NAME>
(1S,3R)-3-(5-fluoro-1H-indol-3-yl)-N,N-dimethyl-cyclopentanamine

> <PUBCHEM_IUPAC_CAS_NAME>
(1S,3R)-3-(5-fluoro-1H-indol-3-yl)-N,N-dimethyl-1-cyclopentanamine

> <PUBCHEM_IUPAC_NAME_MARKUP>
(1<I>S</I>,3<I>R</I>)-3-(5-fluoro-1<I>H</I>-indol-3-yl)-<I>N</I>,<I>N</I>-dimethylcyclopentan-1-amine

> <PUBCHEM_IUPAC_NAME>
(1S,3R)-3-(5-fluoro-1H-indol-3-yl)-N,N-dimethylcyclopentan-1-amine

> <PUBCHEM_IUPAC_SYSTEMATIC_NAME>
(1S,3R)-3-(5-fluoranyl-1H-indol-3-yl)-N,N-dimethyl-cyclopentan-1-amine

> <PUBCHEM_IUPAC_TRADITIONAL_NAME>
[(1S,3R)-3-(5-fluoro-1H-indol-3-yl)cyclopentyl]-dimethyl-amine

> <PUBCHEM_IUPAC_INCHI>
InChI=1S/C15H19FN2/c1-18(2)12-5-3-10(7-12)14-9-17-15-6-4-11(16)8-13(14)15/h4,6,8-10,12,17H,3,5,7H2,1-2H3/t10-,12+/m1/s1

> <PUBCHEM_IUPAC_INCHIKEY>
LRSVJJWABVMKRA-PWSUYJOCSA-N

> <PUBCHEM_XLOGP3_AA>
3.2

> <PUBCHEM_EXACT_MASS>
246.15322678

> <PUBCHEM_MOLECULAR_FORMULA>
C15H19FN2

> <PUBCHEM_MOLECULAR_WEIGHT>
246.32

> <PUBCHEM_OPENEYE_CAN_SMILES>
CN(C)C1CCC(C1)C2=CNC3=C2C=C(C=C3)F

> <PUBCHEM_OPENEYE_ISO_SMILES>
CN(C)[C@H]1CC[C@H](C1)C2=CNC3=C2C=C(C=C3)F

> <PUBCHEM_CACTVS_TPSA>
19

> <PUBCHEM_MONOISOTOPIC_WEIGHT>
246.15322678

> <PUBCHEM_TOTAL_CHARGE>
0

> <PUBCHEM_HEAVY_ATOM_COUNT>
18

> <PUBCHEM_ATOM_DEF_STEREO_COUNT>
2

> <PUBCHEM_ATOM_UDEF_STEREO_COUNT>
0

> <PUBCHEM_BOND_DEF_STEREO_COUNT>
0

> <PUBCHEM_BOND_UDEF_STEREO_COUNT>
0

> <PUBCHEM_ISOTOPIC_ATOM_COUNT>
0

> <PUBCHEM_COMPONENT_COUNT>
1

> <PUBCHEM_CACTVS_TAUTO_COUNT>
-1

> <PUBCHEM_COORDINATE_TYPE>
1
5
255

> <PUBCHEM_BONDANNOTATIONS>
10  14  8
10  15  8
14  16  8
15  17  8
16  18  8
17  18  8
5  2  6
3  11  8
3  14  8
4  19  5
9  10  8
9  11  8

$$$$
