10013665
  -OEChem-09292322512D

 38 39  0     1  0  0  0  0  0999 V2000
    3.7320    1.5600    0.0000 N   0  0  3  0  0  0  0  0  0  0  0  0
    2.8660   -2.9400    0.0000 N   0  0  0  0  0  0  0  0  0  0  0  0
    4.5981    0.0600    0.0000 C   0  0  1  0  0  0  0  0  0  0  0  0
    3.7320    0.5600    0.0000 C   0  0  0  0  0  0  0  0  0  0  0  0
    5.4641    0.5600    0.0000 C   0  0  0  0  0  0  0  0  0  0  0  0
    5.4641    1.5600    0.0000 C   0  0  0  0  0  0  0  0  0  0  0  0
    4.5981    2.0600    0.0000 C   0  0  0  0  0  0  0  0  0  0  0  0
    2.8660    2.0600    0.0000 C   0  0  0  0  0  0  0  0  0  0  0  0
    4.5981   -0.9400    0.0000 C   0  0  0  0  0  0  0  0  0  0  0  0
    2.8660    3.0600    0.0000 C   0  0  0  0  0  0  0  0  0  0  0  0
    3.7320   -1.4400    0.0000 C   0  0  0  0  0  0  0  0  0  0  0  0
    5.4641   -1.4400    0.0000 C   0  0  0  0  0  0  0  0  0  0  0  0
    2.0000    3.5600    0.0000 C   0  0  0  0  0  0  0  0  0  0  0  0
    3.7320   -2.4400    0.0000 C   0  0  0  0  0  0  0  0  0  0  0  0
    5.4641   -2.4400    0.0000 C   0  0  0  0  0  0  0  0  0  0  0  0
    4.5981   -2.9400    0.0000 C   0  0  0  0  0  0  0  0  0  0  0  0
    5.1350   -0.2500    0.0000 H   0  0  0  0  0  0  0  0  0  0  0  0
    3.1215    0.6677    0.0000 H   0  0  0  0  0  0  0  0  0  0  0  0
    3.5200   -0.0226    0.0000 H   0  0  0  0  0  0  0  0  0  0  0  0
    5.6762   -0.0226    0.0000 H   0  0  0  0  0  0  0  0  0  0  0  0
    6.0747    0.6677    0.0000 H   0  0  0  0  0  0  0  0  0  0  0  0
    6.0747    1.4523    0.0000 H   0  0  0  0  0  0  0  0  0  0  0  0
    5.6762    2.1426    0.0000 H   0  0  0  0  0  0  0  0  0  0  0  0
    4.9966    2.5349    0.0000 H   0  0  0  0  0  0  0  0  0  0  0  0
    4.1996    2.5349    0.0000 H   0  0  0  0  0  0  0  0  0  0  0  0
    2.2554    2.1677    0.0000 H   0  0  0  0  0  0  0  0  0  0  0  0
    2.6540    1.4774    0.0000 H   0  0  0  0  0  0  0  0  0  0  0  0
    3.4766    2.9523    0.0000 H   0  0  0  0  0  0  0  0  0  0  0  0
    3.0781    3.6426    0.0000 H   0  0  0  0  0  0  0  0  0  0  0  0
    3.1951   -1.1300    0.0000 H   0  0  0  0  0  0  0  0  0  0  0  0
    6.0010   -1.1300    0.0000 H   0  0  0  0  0  0  0  0  0  0  0  0
    2.3100    4.0969    0.0000 H   0  0  0  0  0  0  0  0  0  0  0  0
    1.4631    3.8700    0.0000 H   0  0  0  0  0  0  0  0  0  0  0  0
    1.6900    3.0231    0.0000 H   0  0  0  0  0  0  0  0  0  0  0  0
    6.0010   -2.7500    0.0000 H   0  0  0  0  0  0  0  0  0  0  0  0
    4.5981   -3.5600    0.0000 H   0  0  0  0  0  0  0  0  0  0  0  0
    2.8660   -3.5600    0.0000 H   0  0  0  0  0  0  0  0  0  0  0  0
    2.3291   -2.6300    0.0000 H   0  0  0  0  0  0  0  0  0  0  0  0
  1  4  1  0  0  0  0
  1  7  1  0  0  0  0
  1  8  1  0  0  0  0
  2 14  1  0  0  0  0
  2 37  1  0  0  0  0
  2 38  1  0  0  0  0
  3  4  1  0  0  0  0
  3  5  1  0  0  0  0
  3  9  1  1  0  0  0
  3 17  1  0  0  0  0
  4 18  1  0  0  0  0
  4 19  1  0  0  0  0
  5  6  1  0  0  0  0
  5 20  1  0  0  0  0
  5 21  1  0  0  0  0
  6  7  1  0  0  0  0
  6 22  1  0  0  0  0
  6 23  1  0  0  0  0
  7 24  1  0  0  0  0
  7 25  1  0  0  0  0
  8 10  1  0  0  0  0
  8 26  1  0  0  0  0
  8 27  1  0  0  0  0
  9 11  2  0  0  0  0
  9 12  1  0  0  0  0
 10 13  1  0  0  0  0
 10 28  1  0  0  0  0
 10 29  1  0  0  0  0
 11 14  1  0  0  0  0
 11 30  1  0  0  0  0
 12 15  2  0  0  0  0
 12 31  1  0  0  0  0
 13 32  1  0  0  0  0
 13 33  1  0  0  0  0
 13 34  1  0  0  0  0
 14 16  2  0  0  0  0
 15 16  1  0  0  0  0
 15 35  1  0  0  0  0
 16 36  1  0  0  0  0
M  END
> <PUBCHEM_COMPOUND_CID>
10013665

> <PUBCHEM_COMPOUND_CANONICALIZED>
1

> <PUBCHEM_CACTVS_COMPLEXITY>
205

> <PUBCHEM_CACTVS_HBOND_ACCEPTOR>
2

> <PUBCHEM_CACTVS_HBOND_DONOR>
1

> <PUBCHEM_CACTVS_ROTATABLE_BOND>
3

> <PUBCHEM_CACTVS_SUBSKEYS>
AAADceBzAAAAAAAAAAAAAAAAAAAAAAAAAAA8QAAAAAAAAAABAAAAHAAQAAAADQjBGAQywINAAACAAiRCQACCAAAgAgAIiAAIZIgIICKAkZGEIABgkACIyAcQgMAOgAAAQAAAAAAAAACAAAAAAAAAAAAAAA==

> <PUBCHEM_IUPAC_OPENEYE_NAME>
3-[(3S)-1-propyl-3-piperidyl]aniline

> <PUBCHEM_IUPAC_CAS_NAME>
3-[(3S)-1-propyl-3-piperidinyl]aniline

> <PUBCHEM_IUPAC_NAME_MARKUP>
3-[(3<I>S</I>)-1-propylpiperidin-3-yl]aniline

> <PUBCHEM_IUPAC_NAME>
3-[(3S)-1-propylpiperidin-3-yl]aniline

> <PUBCHEM_IUPAC_SYSTEMATIC_NAME>
3-[(3S)-1-propylpiperidin-3-yl]aniline

> <PUBCHEM_IUPAC_TRADITIONAL_NAME>
[3-[(3S)-1-propyl-3-piperidyl]phenyl]amine

> <PUBCHEM_IUPAC_INCHI>
InChI=1S/C14H22N2/c1-2-8-16-9-4-6-13(11-16)12-5-3-7-14(15)10-12/h3,5,7,10,13H,2,4,6,8-9,11,15H2,1H3/t13-/m1/s1

> <PUBCHEM_IUPAC_INCHIKEY>
JQISQMHONBYOCE-CYBMUJFWSA-N

> <PUBCHEM_XLOGP3_AA>
2.7

> <PUBCHEM_EXACT_MASS>
218.178298710

> <PUBCHEM_MOLECULAR_FORMULA>
C14H22N2

> <PUBCHEM_MOLECULAR_WEIGHT>
218.34

> <PUBCHEM_OPENEYE_CAN_SMILES>
CCCN1CCCC(C1)C2=CC(=CC=C2)N

> <PUBCHEM_OPENEYE_ISO_SMILES>
CCCN1CCC[C@H](C1)C2=CC(=CC=C2)N

> <PUBCHEM_CACTVS_TPSA>
29.3

> <PUBCHEM_MONOISOTOPIC_WEIGHT>
218.178298710

> <PUBCHEM_TOTAL_CHARGE>
0

> <PUBCHEM_HEAVY_ATOM_COUNT>
16

> <PUBCHEM_ATOM_DEF_STEREO_COUNT>
1

> <PUBCHEM_ATOM_UDEF_STEREO_COUNT>
0

> <PUBCHEM_BOND_DEF_STEREO_COUNT>
0

> <PUBCHEM_BOND_UDEF_STEREO_COUNT>
0

> <PUBCHEM_ISOTOPIC_ATOM_COUNT>
0

> <PUBCHEM_COMPONENT_COUNT>
1

> <PUBCHEM_CACTVS_TAUTO_COUNT>
-1

> <PUBCHEM_COORDINATE_TYPE>
1
5
255

> <PUBCHEM_BONDANNOTATIONS>
11  14  8
12  15  8
14  16  8
15  16  8
3  9  5
9  11  8
9  12  8

$$$$
