44330417
  -OEChem-09292322502D

 29 31  0     0  0  0  0  0  0999 V2000
    5.0190   -1.2415    0.0000 N   0  0  0  0  0  0  0  0  0  0  0  0
    5.9972   -1.4182    0.0000 N   0  0  0  0  0  0  0  0  0  0  0  0
    5.3830    1.9338    0.0000 C   0  0  0  0  0  0  0  0  0  0  0  0
    6.0065    1.1520    0.0000 C   0  0  0  0  0  0  0  0  0  0  0  0
    4.3830    1.9338    0.0000 C   0  0  0  0  0  0  0  0  0  0  0  0
    5.7840    0.1771    0.0000 C   0  0  0  0  0  0  0  0  0  0  0  0
    4.8830   -0.2568    0.0000 C   0  0  0  0  0  0  0  0  0  0  0  0
    3.7595    1.1520    0.0000 C   0  0  0  0  0  0  0  0  0  0  0  0
    3.9820    0.1771    0.0000 C   0  0  0  0  0  0  0  0  0  0  0  0
    6.4691   -0.5432    0.0000 C   0  0  0  0  0  0  0  0  0  0  0  0
    2.7690    1.4744    0.0000 C   0  0  0  0  0  0  0  0  0  0  0  0
    3.2295   -0.5431    0.0000 C   0  0  0  0  0  0  0  0  0  0  0  0
    4.2974   -1.9338    0.0000 C   0  0  0  0  0  0  0  0  0  0  0  0
    2.0000    0.7718    0.0000 C   0  0  0  0  0  0  0  0  0  0  0  0
    2.2318   -0.2437    0.0000 C   0  0  0  0  0  0  0  0  0  0  0  0
    5.9416    2.2029    0.0000 H   0  0  0  0  0  0  0  0  0  0  0  0
    5.2450    2.5383    0.0000 H   0  0  0  0  0  0  0  0  0  0  0  0
    6.5651    0.8830    0.0000 H   0  0  0  0  0  0  0  0  0  0  0  0
    6.3930    1.6368    0.0000 H   0  0  0  0  0  0  0  0  0  0  0  0
    4.5210    2.5383    0.0000 H   0  0  0  0  0  0  0  0  0  0  0  0
    3.8244    2.2029    0.0000 H   0  0  0  0  0  0  0  0  0  0  0  0
    7.0836   -0.4610    0.0000 H   0  0  0  0  0  0  0  0  0  0  0  0
    2.6380    2.0804    0.0000 H   0  0  0  0  0  0  0  0  0  0  0  0
    3.3744   -1.1459    0.0000 H   0  0  0  0  0  0  0  0  0  0  0  0
    3.8682   -1.4864    0.0000 H   0  0  0  0  0  0  0  0  0  0  0  0
    3.8500   -2.3631    0.0000 H   0  0  0  0  0  0  0  0  0  0  0  0
    4.7266   -2.3812    0.0000 H   0  0  0  0  0  0  0  0  0  0  0  0
    1.4082    0.9568    0.0000 H   0  0  0  0  0  0  0  0  0  0  0  0
    1.7789   -0.6672    0.0000 H   0  0  0  0  0  0  0  0  0  0  0  0
  1  2  1  0  0  0  0
  1  7  1  0  0  0  0
  1 13  1  0  0  0  0
  2 10  2  0  0  0  0
  3  4  1  0  0  0  0
  3  5  1  0  0  0  0
  3 16  1  0  0  0  0
  3 17  1  0  0  0  0
  4  6  1  0  0  0  0
  4 18  1  0  0  0  0
  4 19  1  0  0  0  0
  5  8  1  0  0  0  0
  5 20  1  0  0  0  0
  5 21  1  0  0  0  0
  6  7  2  0  0  0  0
  6 10  1  0  0  0  0
  7  9  1  0  0  0  0
  8  9  1  0  0  0  0
  8 11  2  0  0  0  0
  9 12  2  0  0  0  0
 10 22  1  0  0  0  0
 11 14  1  0  0  0  0
 11 23  1  0  0  0  0
 12 15  1  0  0  0  0
 12 24  1  0  0  0  0
 13 25  1  0  0  0  0
 13 26  1  0  0  0  0
 13 27  1  0  0  0  0
 14 15  2  0  0  0  0
 14 28  1  0  0  0  0
 15 29  1  0  0  0  0
M  END
> <PUBCHEM_COMPOUND_CID>
44330417

> <PUBCHEM_COMPOUND_CANONICALIZED>
1

> <PUBCHEM_CACTVS_COMPLEXITY>
229

> <PUBCHEM_CACTVS_HBOND_ACCEPTOR>
1

> <PUBCHEM_CACTVS_HBOND_DONOR>
0

> <PUBCHEM_CACTVS_ROTATABLE_BOND>
0

> <PUBCHEM_CACTVS_SUBSKEYS>
AAADccBzAAAAAAAAAAAAAAAAAAAAAWAAAAAwAAAABgAAAACxwAAAHAAIAAAADAjBHgQ+gJIIAACiAzRnRACSBAAhgAAY2CAoRJgIIKLA0dGEpAhgiABIyAcQgMAOgAAAAAAQAAAAAAAAACAAAAAAAAAAAA==

> <PUBCHEM_IUPAC_OPENEYE_NAME>
3-methyl-3,4-diazatricyclo[8.4.0.02,6]tetradeca-1(14),2(6),4,10,12-pentaene

> <PUBCHEM_IUPAC_CAS_NAME>
3-methyl-3,4-diazatricyclo[8.4.0.02,6]tetradeca-1(14),2(6),4,10,12-pentaene

> <PUBCHEM_IUPAC_NAME_MARKUP>
3-methyl-3,4-diazatricyclo[8.4.0.0<SUP>2,6</SUP>]tetradeca-1(14),2(6),4,10,12-pentaene

> <PUBCHEM_IUPAC_NAME>
3-methyl-3,4-diazatricyclo[8.4.0.02,6]tetradeca-1(14),2(6),4,10,12-pentaene

> <PUBCHEM_IUPAC_SYSTEMATIC_NAME>
3-methyl-3,4-diazatricyclo[8.4.0.02,6]tetradeca-1(14),2(6),4,10,12-pentaene

> <PUBCHEM_IUPAC_TRADITIONAL_NAME>
3-methyl-3,4-diazatricyclo[8.4.0.02,6]tetradeca-1(14),2(6),4,10,12-pentaene

> <PUBCHEM_IUPAC_INCHI>
InChI=1S/C13H14N2/c1-15-13-11(9-14-15)7-4-6-10-5-2-3-8-12(10)13/h2-3,5,8-9H,4,6-7H2,1H3

> <PUBCHEM_IUPAC_INCHIKEY>
NWLVBFBIXPQCES-UHFFFAOYSA-N

> <PUBCHEM_XLOGP3_AA>
2.7

> <PUBCHEM_EXACT_MASS>
198.115698455

> <PUBCHEM_MOLECULAR_FORMULA>
C13H14N2

> <PUBCHEM_MOLECULAR_WEIGHT>
198.26

> <PUBCHEM_OPENEYE_CAN_SMILES>
CN1C2=C(CCCC3=CC=CC=C32)C=N1

> <PUBCHEM_OPENEYE_ISO_SMILES>
CN1C2=C(CCCC3=CC=CC=C32)C=N1

> <PUBCHEM_CACTVS_TPSA>
17.8

> <PUBCHEM_MONOISOTOPIC_WEIGHT>
198.115698455

> <PUBCHEM_TOTAL_CHARGE>
0

> <PUBCHEM_HEAVY_ATOM_COUNT>
15

> <PUBCHEM_ATOM_DEF_STEREO_COUNT>
0

> <PUBCHEM_ATOM_UDEF_STEREO_COUNT>
0

> <PUBCHEM_BOND_DEF_STEREO_COUNT>
0

> <PUBCHEM_BOND_UDEF_STEREO_COUNT>
0

> <PUBCHEM_ISOTOPIC_ATOM_COUNT>
0

> <PUBCHEM_COMPONENT_COUNT>
1

> <PUBCHEM_CACTVS_TAUTO_COUNT>
-1

> <PUBCHEM_COORDINATE_TYPE>
1
5
255

> <PUBCHEM_BONDANNOTATIONS>
1  2  8
1  7  8
11  14  8
12  15  8
14  15  8
2  10  8
6  10  8
6  7  8
8  11  8
8  9  8
9  12  8

$$$$
