10470579
  -OEChem-09292322182D

 42 45  0     1  0  0  0  0  0999 V2000
    5.3798   -0.8011    0.0000 O   0  0  0  0  0  0  0  0  0  0  0  0
    2.0000   -2.8426    0.0000 O   0  0  0  0  0  0  0  0  0  0  0  0
    7.1381    1.2300    0.0000 N   0  0  0  0  0  0  0  0  0  0  0  0
    3.5836   -2.0379    0.0000 N   0  0  0  0  0  0  0  0  0  0  0  0
    3.5836   -3.6473    0.0000 N   0  0  0  0  0  0  0  0  0  0  0  0
    6.2778   -0.2733    0.0000 C   0  0  1  0  0  0  0  0  0  0  0  0
    7.1799   -0.7941    0.0000 C   0  0  0  0  0  0  0  0  0  0  0  0
    7.1719   -1.8358    0.0000 C   0  0  0  0  0  0  0  0  0  0  0  0
    6.2619   -2.3426    0.0000 C   0  0  0  0  0  0  0  0  0  0  0  0
    5.3958   -1.8426    0.0000 C   0  0  0  0  0  0  0  0  0  0  0  0
    6.2740    0.7267    0.0000 C   0  0  0  0  0  0  0  0  0  0  0  0
    4.5298   -2.3426    0.0000 C   0  0  0  0  0  0  0  0  0  0  0  0
    4.5298   -3.3426    0.0000 C   0  0  0  0  0  0  0  0  0  0  0  0
    6.2619   -3.3426    0.0000 C   0  0  0  0  0  0  0  0  0  0  0  0
    5.3958   -3.8426    0.0000 C   0  0  0  0  0  0  0  0  0  0  0  0
    7.1342    2.2300    0.0000 C   0  0  0  0  0  0  0  0  0  0  0  0
    3.0000   -2.8426    0.0000 C   0  0  0  0  0  0  0  0  0  0  0  0
    7.9983    2.7333    0.0000 C   0  0  0  0  0  0  0  0  0  0  0  0
    7.9944    3.7333    0.0000 C   0  0  0  0  0  0  0  0  0  0  0  0
    8.8663    2.2367    0.0000 C   0  0  0  0  0  0  0  0  0  0  0  0
    8.8585    4.2366    0.0000 C   0  0  0  0  0  0  0  0  0  0  0  0
    9.7303    2.7400    0.0000 C   0  0  0  0  0  0  0  0  0  0  0  0
    9.7265    3.7400    0.0000 C   0  0  0  0  0  0  0  0  0  0  0  0
    5.7391    0.0336    0.0000 H   0  0  0  0  0  0  0  0  0  0  0  0
    7.7899   -0.9049    0.0000 H   0  0  0  0  0  0  0  0  0  0  0  0
    7.3935   -0.2121    0.0000 H   0  0  0  0  0  0  0  0  0  0  0  0
    7.3764   -2.4210    0.0000 H   0  0  0  0  0  0  0  0  0  0  0  0
    7.7835   -1.7344    0.0000 H   0  0  0  0  0  0  0  0  0  0  0  0
    6.0597    1.3084    0.0000 H   0  0  0  0  0  0  0  0  0  0  0  0
    5.6638    0.6166    0.0000 H   0  0  0  0  0  0  0  0  0  0  0  0
    6.7988   -3.6526    0.0000 H   0  0  0  0  0  0  0  0  0  0  0  0
    7.6762    0.9221    0.0000 H   0  0  0  0  0  0  0  0  0  0  0  0
    5.3958   -4.4626    0.0000 H   0  0  0  0  0  0  0  0  0  0  0  0
    3.3910   -1.4485    0.0000 H   0  0  0  0  0  0  0  0  0  0  0  0
    6.9199    2.8118    0.0000 H   0  0  0  0  0  0  0  0  0  0  0  0
    6.5240    2.1200    0.0000 H   0  0  0  0  0  0  0  0  0  0  0  0
    3.3910   -4.2366    0.0000 H   0  0  0  0  0  0  0  0  0  0  0  0
    7.4563    4.0412    0.0000 H   0  0  0  0  0  0  0  0  0  0  0  0
    8.8686    1.6167    0.0000 H   0  0  0  0  0  0  0  0  0  0  0  0
    8.8562    4.8566    0.0000 H   0  0  0  0  0  0  0  0  0  0  0  0
   10.2685    2.4321    0.0000 H   0  0  0  0  0  0  0  0  0  0  0  0
   10.2622    4.0521    0.0000 H   0  0  0  0  0  0  0  0  0  0  0  0
  1  6  1  0  0  0  0
  1 10  1  0  0  0  0
  2 17  2  0  0  0  0
  3 11  1  0  0  0  0
  3 16  1  0  0  0  0
  3 32  1  0  0  0  0
  4 12  1  0  0  0  0
  4 17  1  0  0  0  0
  4 34  1  0  0  0  0
  5 13  1  0  0  0  0
  5 17  1  0  0  0  0
  5 37  1  0  0  0  0
  6  7  1  0  0  0  0
  6 11  1  6  0  0  0
  6 24  1  0  0  0  0
  7  8  1  0  0  0  0
  7 25  1  0  0  0  0
  7 26  1  0  0  0  0
  8  9  1  0  0  0  0
  8 27  1  0  0  0  0
  8 28  1  0  0  0  0
  9 10  2  0  0  0  0
  9 14  1  0  0  0  0
 10 12  1  0  0  0  0
 11 29  1  0  0  0  0
 11 30  1  0  0  0  0
 12 13  2  0  0  0  0
 13 15  1  0  0  0  0
 14 15  2  0  0  0  0
 14 31  1  0  0  0  0
 15 33  1  0  0  0  0
 16 18  1  0  0  0  0
 16 35  1  0  0  0  0
 16 36  1  0  0  0  0
 18 19  2  0  0  0  0
 18 20  1  0  0  0  0
 19 21  1  0  0  0  0
 19 38  1  0  0  0  0
 20 22  2  0  0  0  0
 20 39  1  0  0  0  0
 21 23  2  0  0  0  0
 21 40  1  0  0  0  0
 22 23  1  0  0  0  0
 22 41  1  0  0  0  0
 23 42  1  0  0  0  0
M  END
> <PUBCHEM_COMPOUND_CID>
10470579

> <PUBCHEM_COMPOUND_CANONICALIZED>
1

> <PUBCHEM_CACTVS_COMPLEXITY>
425

> <PUBCHEM_CACTVS_HBOND_ACCEPTOR>
3

> <PUBCHEM_CACTVS_HBOND_DONOR>
3

> <PUBCHEM_CACTVS_ROTATABLE_BOND>
4

> <PUBCHEM_CACTVS_SUBSKEYS>
AAADceB7MAAAAAAAAAAAAAAAAAAAAWAAAAA0YIAAAAAAAFiRQAAAHgAQAAAADBzhmAYxxoLABACIAiRCUACCCAAhIgAIiIANfIiOZiLEsZuXOCju1BvY6CeQ0KMOCAAAQgAIECAQAACEABAgQAAAAAAAAA==

> <PUBCHEM_IUPAC_OPENEYE_NAME>
(8S)-8-[(benzylamino)methyl]-3,6,7,8-tetrahydro-1H-pyrano[2,3-e]benzimidazol-2-one

> <PUBCHEM_IUPAC_CAS_NAME>
(8S)-8-[[(phenylmethyl)amino]methyl]-3,6,7,8-tetrahydro-1H-pyrano[2,3-e]benzimidazol-2-one

> <PUBCHEM_IUPAC_NAME_MARKUP>
(8<I>S</I>)-8-[(benzylamino)methyl]-3,6,7,8-tetrahydro-1<I>H</I>-pyrano[2,3-e]benzimidazol-2-one

> <PUBCHEM_IUPAC_NAME>
(8S)-8-[(benzylamino)methyl]-3,6,7,8-tetrahydro-1H-pyrano[2,3-e]benzimidazol-2-one

> <PUBCHEM_IUPAC_SYSTEMATIC_NAME>
(8S)-8-[[(phenylmethyl)amino]methyl]-3,6,7,8-tetrahydro-1H-pyrano[2,3-e]benzimidazol-2-one

> <PUBCHEM_IUPAC_TRADITIONAL_NAME>
(8S)-8-[(benzylamino)methyl]-3,6,7,8-tetrahydro-1H-pyrano[2,3-e]benzimidazol-2-one

> <PUBCHEM_IUPAC_INCHI>
InChI=1S/C18H19N3O2/c22-18-20-15-9-7-13-6-8-14(23-17(13)16(15)21-18)11-19-10-12-4-2-1-3-5-12/h1-5,7,9,14,19H,6,8,10-11H2,(H2,20,21,22)/t14-/m0/s1

> <PUBCHEM_IUPAC_INCHIKEY>
NJDDOYGAHXQMEQ-AWEZNQCLSA-N

> <PUBCHEM_XLOGP3_AA>
2.1

> <PUBCHEM_EXACT_MASS>
309.147726857

> <PUBCHEM_MOLECULAR_FORMULA>
C18H19N3O2

> <PUBCHEM_MOLECULAR_WEIGHT>
309.4

> <PUBCHEM_OPENEYE_CAN_SMILES>
C1CC2=C(C3=C(C=C2)NC(=O)N3)OC1CNCC4=CC=CC=C4

> <PUBCHEM_OPENEYE_ISO_SMILES>
C1CC2=C(C3=C(C=C2)NC(=O)N3)O[C@@H]1CNCC4=CC=CC=C4

> <PUBCHEM_CACTVS_TPSA>
62.4

> <PUBCHEM_MONOISOTOPIC_WEIGHT>
309.147726857

> <PUBCHEM_TOTAL_CHARGE>
0

> <PUBCHEM_HEAVY_ATOM_COUNT>
23

> <PUBCHEM_ATOM_DEF_STEREO_COUNT>
1

> <PUBCHEM_ATOM_UDEF_STEREO_COUNT>
0

> <PUBCHEM_BOND_DEF_STEREO_COUNT>
0

> <PUBCHEM_BOND_UDEF_STEREO_COUNT>
0

> <PUBCHEM_ISOTOPIC_ATOM_COUNT>
0

> <PUBCHEM_COMPONENT_COUNT>
1

> <PUBCHEM_CACTVS_TAUTO_COUNT>
-1

> <PUBCHEM_COORDINATE_TYPE>
1
5
255

> <PUBCHEM_BONDANNOTATIONS>
10  12  8
12  13  8
13  15  8
14  15  8
18  19  8
18  20  8
19  21  8
20  22  8
21  23  8
22  23  8
4  12  8
4  17  8
5  13  8
5  17  8
6  11  6
9  10  8
9  14  8

$$$$
