71541177
  -OEChem-09292322052D

 51 54  0     1  0  0  0  0  0999 V2000
    4.1087   -2.8382    0.0000 S   0  0  0  0  0  0  0  0  0  0  0  0
   10.8262    1.7461    0.0000 O   0  0  0  0  0  0  0  0  0  0  0  0
    5.8262    1.7461    0.0000 N   0  0  3  0  0  0  0  0  0  0  0  0
    2.7149   -2.0334    0.0000 N   0  0  0  0  0  0  0  0  0  0  0  0
    2.6200   -3.8072    0.0000 N   0  0  0  0  0  0  0  0  0  0  0  0
   10.8262    3.4782    0.0000 N   0  0  0  0  0  0  0  0  0  0  0  0
    6.3798    0.9365    0.0000 C   0  0  0  0  0  0  0  0  0  0  0  0
    4.8483    1.8207    0.0000 C   0  0  0  0  0  0  0  0  0  0  0  0
    6.0945   -0.0019    0.0000 C   0  0  0  0  0  0  0  0  0  0  0  0
    4.1783    1.1044    0.0000 C   0  0  0  0  0  0  0  0  0  0  0  0
    5.1840   -0.3664    0.0000 C   0  0  0  0  0  0  0  0  0  0  0  0
    4.3179    0.1336    0.0000 C   0  0  0  0  0  0  0  0  0  0  0  0
    6.3262    2.6121    0.0000 C   0  0  0  0  0  0  0  0  0  0  0  0
    5.1840   -1.3664    0.0000 C   0  0  0  0  0  0  0  0  0  0  0  0
    3.4519   -0.3664    0.0000 C   0  0  0  0  0  0  0  0  0  0  0  0
    7.3262    2.6121    0.0000 C   0  0  0  0  0  0  0  0  0  0  0  0
    4.3179   -1.8664    0.0000 C   0  0  0  0  0  0  0  0  0  0  0  0
    3.4519   -1.3664    0.0000 C   0  0  0  0  0  0  0  0  0  0  0  0
    7.8262    3.4782    0.0000 C   0  0  0  0  0  0  0  0  0  0  0  0
    7.8262    1.7461    0.0000 C   0  0  0  0  0  0  0  0  0  0  0  0
    3.1200   -2.9412    0.0000 C   0  0  0  0  0  0  0  0  0  0  0  0
    8.8262    3.4782    0.0000 C   0  0  0  0  0  0  0  0  0  0  0  0
    8.8262    1.7461    0.0000 C   0  0  0  0  0  0  0  0  0  0  0  0
    9.3262    2.6121    0.0000 C   0  0  0  0  0  0  0  0  0  0  0  0
   10.3262    2.6121    0.0000 C   0  0  0  0  0  0  0  0  0  0  0  0
   11.8262    3.4782    0.0000 C   0  0  0  0  0  0  0  0  0  0  0  0
   10.3262    4.3442    0.0000 C   0  0  0  0  0  0  0  0  0  0  0  0
    6.9177    0.6282    0.0000 H   0  0  0  0  0  0  0  0  0  0  0  0
    6.8005    1.3919    0.0000 H   0  0  0  0  0  0  0  0  0  0  0  0
    5.0324    2.4128    0.0000 H   0  0  0  0  0  0  0  0  0  0  0  0
    4.3123    2.1324    0.0000 H   0  0  0  0  0  0  0  0  0  0  0  0
    6.1905   -0.6144    0.0000 H   0  0  0  0  0  0  0  0  0  0  0  0
    6.7130   -0.0452    0.0000 H   0  0  0  0  0  0  0  0  0  0  0  0
    3.8316    1.6184    0.0000 H   0  0  0  0  0  0  0  0  0  0  0  0
    3.5998    0.8813    0.0000 H   0  0  0  0  0  0  0  0  0  0  0  0
    6.4339    3.2227    0.0000 H   0  0  0  0  0  0  0  0  0  0  0  0
    5.7436    2.8242    0.0000 H   0  0  0  0  0  0  0  0  0  0  0  0
    5.7209   -1.6764    0.0000 H   0  0  0  0  0  0  0  0  0  0  0  0
    2.9150   -0.0564    0.0000 H   0  0  0  0  0  0  0  0  0  0  0  0
    7.5162    4.0151    0.0000 H   0  0  0  0  0  0  0  0  0  0  0  0
    7.5162    1.2092    0.0000 H   0  0  0  0  0  0  0  0  0  0  0  0
    9.1362    4.0151    0.0000 H   0  0  0  0  0  0  0  0  0  0  0  0
    9.1362    1.2092    0.0000 H   0  0  0  0  0  0  0  0  0  0  0  0
    2.0000   -3.8072    0.0000 H   0  0  0  0  0  0  0  0  0  0  0  0
    2.9300   -4.3442    0.0000 H   0  0  0  0  0  0  0  0  0  0  0  0
   11.8262    2.8582    0.0000 H   0  0  0  0  0  0  0  0  0  0  0  0
   12.4462    3.4782    0.0000 H   0  0  0  0  0  0  0  0  0  0  0  0
   11.8262    4.0982    0.0000 H   0  0  0  0  0  0  0  0  0  0  0  0
   10.8632    4.6542    0.0000 H   0  0  0  0  0  0  0  0  0  0  0  0
   10.0162    4.8811    0.0000 H   0  0  0  0  0  0  0  0  0  0  0  0
    9.7893    4.0342    0.0000 H   0  0  0  0  0  0  0  0  0  0  0  0
  1 17  1  0  0  0  0
  1 21  1  0  0  0  0
  2 25  2  0  0  0  0
  3  7  1  0  0  0  0
  3  8  1  0  0  0  0
  3 13  1  0  0  0  0
  4 18  1  0  0  0  0
  4 21  2  0  0  0  0
  5 21  1  0  0  0  0
  5 44  1  0  0  0  0
  5 45  1  0  0  0  0
  6 25  1  0  0  0  0
  6 26  1  0  0  0  0
  6 27  1  0  0  0  0
  7  9  1  0  0  0  0
  7 28  1  0  0  0  0
  7 29  1  0  0  0  0
  8 10  1  0  0  0  0
  8 30  1  0  0  0  0
  8 31  1  0  0  0  0
  9 11  1  0  0  0  0
  9 32  1  0  0  0  0
  9 33  1  0  0  0  0
 10 12  1  0  0  0  0
 10 34  1  0  0  0  0
 10 35  1  0  0  0  0
 11 12  1  0  0  0  0
 11 14  2  0  0  0  0
 12 15  2  0  0  0  0
 13 16  1  0  0  0  0
 13 36  1  0  0  0  0
 13 37  1  0  0  0  0
 14 17  1  0  0  0  0
 14 38  1  0  0  0  0
 15 18  1  0  0  0  0
 15 39  1  0  0  0  0
 16 19  2  0  0  0  0
 16 20  1  0  0  0  0
 17 18  2  0  0  0  0
 19 22  1  0  0  0  0
 19 40  1  0  0  0  0
 20 23  2  0  0  0  0
 20 41  1  0  0  0  0
 22 24  2  0  0  0  0
 22 42  1  0  0  0  0
 23 24  1  0  0  0  0
 23 43  1  0  0  0  0
 24 25  1  0  0  0  0
 26 46  1  0  0  0  0
 26 47  1  0  0  0  0
 26 48  1  0  0  0  0
 27 49  1  0  0  0  0
 27 50  1  0  0  0  0
 27 51  1  0  0  0  0
M  END
> <PUBCHEM_COMPOUND_CID>
71541177

> <PUBCHEM_COMPOUND_CANONICALIZED>
1

> <PUBCHEM_CACTVS_COMPLEXITY>
522

> <PUBCHEM_CACTVS_HBOND_ACCEPTOR>
5

> <PUBCHEM_CACTVS_HBOND_DONOR>
1

> <PUBCHEM_CACTVS_ROTATABLE_BOND>
3

> <PUBCHEM_CACTVS_SUBSKEYS>
AAADceB7oABAAAAAAAAAAAAAAAAAAWAAAAAwYAAABYAAAFgB9AAAHgQQAAAADAjB3gQz0bNIEAisAyVydACD8KllCjlImD04ZNiIILLglZGEIQhgggLIyacYiICO2AAAwAAQAQCwAAGAACACAAAAAAAAAA==

> <PUBCHEM_IUPAC_OPENEYE_NAME>
4-[(2-amino-5,6,8,9-tetrahydrothiazolo[4,5-h][3]benzazepin-7-yl)methyl]-N,N-dimethyl-benzamide

> <PUBCHEM_IUPAC_CAS_NAME>
4-[(2-amino-5,6,8,9-tetrahydrothiazolo[4,5-h][3]benzazepin-7-yl)methyl]-N,N-dimethylbenzamide

> <PUBCHEM_IUPAC_NAME_MARKUP>
4-[(2-amino-5,6,8,9-tetrahydro-[1,3]thiazolo[4,5-h][3]benzazepin-7-yl)methyl]-<I>N</I>,<I>N</I>-dimethylbenzamide

> <PUBCHEM_IUPAC_NAME>
4-[(2-amino-5,6,8,9-tetrahydro-[1,3]thiazolo[4,5-h][3]benzazepin-7-yl)methyl]-N,N-dimethylbenzamide

> <PUBCHEM_IUPAC_SYSTEMATIC_NAME>
4-[(2-azanyl-5,6,8,9-tetrahydro-[1,3]thiazolo[4,5-h][3]benzazepin-7-yl)methyl]-N,N-dimethyl-benzamide

> <PUBCHEM_IUPAC_TRADITIONAL_NAME>
4-[(2-amino-5,6,8,9-tetrahydrothiazolo[4,5-h][3]benzazepin-7-yl)methyl]-N,N-dimethyl-benzamide

> <PUBCHEM_IUPAC_INCHI>
InChI=1S/C21H24N4OS/c1-24(2)20(26)15-5-3-14(4-6-15)13-25-9-7-16-11-18-19(27-21(22)23-18)12-17(16)8-10-25/h3-6,11-12H,7-10,13H2,1-2H3,(H2,22,23)

> <PUBCHEM_IUPAC_INCHIKEY>
DJFZOPTYMZKMLN-UHFFFAOYSA-N

> <PUBCHEM_XLOGP3_AA>
3.3

> <PUBCHEM_EXACT_MASS>
380.16708258

> <PUBCHEM_MOLECULAR_FORMULA>
C21H24N4OS

> <PUBCHEM_MOLECULAR_WEIGHT>
380.5

> <PUBCHEM_OPENEYE_CAN_SMILES>
CN(C)C(=O)C1=CC=C(C=C1)CN2CCC3=CC4=C(C=C3CC2)SC(=N4)N

> <PUBCHEM_OPENEYE_ISO_SMILES>
CN(C)C(=O)C1=CC=C(C=C1)CN2CCC3=CC4=C(C=C3CC2)SC(=N4)N

> <PUBCHEM_CACTVS_TPSA>
90.7

> <PUBCHEM_MONOISOTOPIC_WEIGHT>
380.16708258

> <PUBCHEM_TOTAL_CHARGE>
0

> <PUBCHEM_HEAVY_ATOM_COUNT>
27

> <PUBCHEM_ATOM_DEF_STEREO_COUNT>
0

> <PUBCHEM_ATOM_UDEF_STEREO_COUNT>
0

> <PUBCHEM_BOND_DEF_STEREO_COUNT>
0

> <PUBCHEM_BOND_UDEF_STEREO_COUNT>
0

> <PUBCHEM_ISOTOPIC_ATOM_COUNT>
0

> <PUBCHEM_COMPONENT_COUNT>
1

> <PUBCHEM_CACTVS_TAUTO_COUNT>
-1

> <PUBCHEM_COORDINATE_TYPE>
1
5
255

> <PUBCHEM_BONDANNOTATIONS>
1  17  8
1  21  8
11  12  8
11  14  8
12  15  8
14  17  8
15  18  8
16  19  8
16  20  8
17  18  8
19  22  8
20  23  8
22  24  8
23  24  8
4  18  8
4  21  8

$$$$
