145978965
  -OEChem-09292322062D

 64 69  0     1  0  0  0  0  0999 V2000
   15.9488    0.0689    0.0000 S   0  0  0  0  0  0  0  0  0  0  0  0
    1.5826   -0.9797    0.0000 O   0  0  0  0  0  0  0  0  0  0  0  0
    0.9578    1.3522    0.0000 O   0  0  0  0  0  0  0  0  0  0  0  0
    5.6060   -1.8063    0.0000 O   0  0  0  0  0  0  0  0  0  0  0  0
    6.8067    1.4925    0.0000 O   0  0  0  0  0  0  0  0  0  0  0  0
    6.4628   -0.2503    0.0000 N   0  0  0  0  0  0  0  0  0  0  0  0
   10.8140    0.0092    0.0000 N   0  0  0  0  0  0  0  0  0  0  0  0
   12.6934   -0.6748    0.0000 N   0  0  0  0  0  0  0  0  0  0  0  0
    3.4816    0.3951    0.0000 C   0  0  1  0  0  0  0  0  0  0  0  0
    3.2227    1.3611    0.0000 C   0  0  2  0  0  0  0  0  0  0  0  0
    4.8543   -0.1969    0.0000 C   0  0  1  0  0  0  0  0  0  0  0  0
    5.1963    0.7428    0.0000 C   0  0  2  0  0  0  0  0  0  0  0  0
    3.9593    2.3437    0.0000 C   0  0  0  0  0  0  0  0  0  0  0  0
    2.0826   -0.1137    0.0000 C   0  0  2  0  0  0  0  0  0  0  0  0
    1.8238    0.8522    0.0000 C   0  0  1  0  0  0  0  0  0  0  0  0
    5.6392   -0.8069    0.0000 C   0  0  0  0  0  0  0  0  0  0  0  0
    6.1896    0.7055    0.0000 C   0  0  0  0  0  0  0  0  0  0  0  0
    7.4025   -0.5923    0.0000 C   0  0  0  0  0  0  0  0  0  0  0  0
    8.1686    0.0505    0.0000 C   0  0  0  0  0  0  0  0  0  0  0  0
    9.1083   -0.2915    0.0000 C   0  0  0  0  0  0  0  0  0  0  0  0
    9.8743    0.3512    0.0000 C   0  0  0  0  0  0  0  0  0  0  0  0
   10.9876   -0.9756    0.0000 C   0  0  0  0  0  0  0  0  0  0  0  0
   11.5800    0.6520    0.0000 C   0  0  0  0  0  0  0  0  0  0  0  0
   11.9273   -1.3176    0.0000 C   0  0  0  0  0  0  0  0  0  0  0  0
   12.5197    0.3100    0.0000 C   0  0  0  0  0  0  0  0  0  0  0  0
   13.6331   -1.0168    0.0000 C   0  0  0  0  0  0  0  0  0  0  0  0
   14.3991   -0.3740    0.0000 C   0  0  0  0  0  0  0  0  0  0  0  0
   13.8067   -2.0016    0.0000 C   0  0  0  0  0  0  0  0  0  0  0  0
   15.3388   -0.7161    0.0000 C   0  0  0  0  0  0  0  0  0  0  0  0
   14.4364    0.6193    0.0000 C   0  0  0  0  0  0  0  0  0  0  0  0
   14.7464   -2.3437    0.0000 C   0  0  0  0  0  0  0  0  0  0  0  0
   15.5125   -1.7009    0.0000 C   0  0  0  0  0  0  0  0  0  0  0  0
   15.3922    0.8925    0.0000 C   0  0  0  0  0  0  0  0  0  0  0  0
    3.7016   -0.4259    0.0000 H   0  0  0  0  0  0  0  0  0  0  0  0
    3.0027    2.1821    0.0000 H   0  0  0  0  0  0  0  0  0  0  0  0
    4.5635   -0.9956    0.0000 H   0  0  0  0  0  0  0  0  0  0  0  0
    5.4870    1.5415    0.0000 H   0  0  0  0  0  0  0  0  0  0  0  0
    3.6415    2.8760    0.0000 H   0  0  0  0  0  0  0  0  0  0  0  0
    4.5725    2.4356    0.0000 H   0  0  0  0  0  0  0  0  0  0  0  0
    2.4811   -0.5887    0.0000 H   0  0  0  0  0  0  0  0  0  0  0  0
    1.3319    0.4748    0.0000 H   0  0  0  0  0  0  0  0  0  0  0  0
    0.9626   -0.9797    0.0000 H   0  0  0  0  0  0  0  0  0  0  0  0
    0.4208    1.0422    0.0000 H   0  0  0  0  0  0  0  0  0  0  0  0
    7.8775   -0.9908    0.0000 H   0  0  0  0  0  0  0  0  0  0  0  0
    7.0925   -1.1292    0.0000 H   0  0  0  0  0  0  0  0  0  0  0  0
    7.6936    0.4490    0.0000 H   0  0  0  0  0  0  0  0  0  0  0  0
    8.4786    0.5874    0.0000 H   0  0  0  0  0  0  0  0  0  0  0  0
    9.5832   -0.6901    0.0000 H   0  0  0  0  0  0  0  0  0  0  0  0
    8.7983   -0.8285    0.0000 H   0  0  0  0  0  0  0  0  0  0  0  0
    9.3994    0.7498    0.0000 H   0  0  0  0  0  0  0  0  0  0  0  0
   10.1843    0.8882    0.0000 H   0  0  0  0  0  0  0  0  0  0  0  0
   10.8800   -1.5862    0.0000 H   0  0  0  0  0  0  0  0  0  0  0  0
   10.3676   -0.9756    0.0000 H   0  0  0  0  0  0  0  0  0  0  0  0
   11.1051    1.0505    0.0000 H   0  0  0  0  0  0  0  0  0  0  0  0
   11.8900    1.1890    0.0000 H   0  0  0  0  0  0  0  0  0  0  0  0
   12.4023   -1.7161    0.0000 H   0  0  0  0  0  0  0  0  0  0  0  0
   11.6173   -1.8545    0.0000 H   0  0  0  0  0  0  0  0  0  0  0  0
   12.6274    0.9206    0.0000 H   0  0  0  0  0  0  0  0  0  0  0  0
   13.1397    0.3100    0.0000 H   0  0  0  0  0  0  0  0  0  0  0  0
   13.3318   -2.4002    0.0000 H   0  0  0  0  0  0  0  0  0  0  0  0
   13.9485    1.0019    0.0000 H   0  0  0  0  0  0  0  0  0  0  0  0
   14.8541   -2.9542    0.0000 H   0  0  0  0  0  0  0  0  0  0  0  0
   16.0951   -1.9129    0.0000 H   0  0  0  0  0  0  0  0  0  0  0  0
   15.6043    1.4751    0.0000 H   0  0  0  0  0  0  0  0  0  0  0  0
  1 29  1  0  0  0  0
  1 33  1  0  0  0  0
 14  2  1  1  0  0  0
  2 42  1  0  0  0  0
 15  3  1  1  0  0  0
  3 43  1  0  0  0  0
  4 16  2  0  0  0  0
  5 17  2  0  0  0  0
  6 16  1  0  0  0  0
  6 17  1  0  0  0  0
  6 18  1  0  0  0  0
  7 21  1  0  0  0  0
  7 22  1  0  0  0  0
  7 23  1  0  0  0  0
  8 24  1  0  0  0  0
  8 25  1  0  0  0  0
  8 26  1  0  0  0  0
  9 11  1  0  0  0  0
  9 13  1  0  0  0  0
  9 14  1  0  0  0  0
  9 34  1  1  0  0  0
 10 12  1  0  0  0  0
 10 13  1  0  0  0  0
 10 15  1  0  0  0  0
 10 35  1  6  0  0  0
 11 12  1  0  0  0  0
 11 16  1  0  0  0  0
 11 36  1  6  0  0  0
 12 17  1  0  0  0  0
 12 37  1  6  0  0  0
 13 38  1  0  0  0  0
 13 39  1  0  0  0  0
 14 15  1  0  0  0  0
 14 40  1  0  0  0  0
 15 41  1  0  0  0  0
 18 19  1  0  0  0  0
 18 44  1  0  0  0  0
 18 45  1  0  0  0  0
 19 20  1  0  0  0  0
 19 46  1  0  0  0  0
 19 47  1  0  0  0  0
 20 21  1  0  0  0  0
 20 48  1  0  0  0  0
 20 49  1  0  0  0  0
 21 50  1  0  0  0  0
 21 51  1  0  0  0  0
 22 24  1  0  0  0  0
 22 52  1  0  0  0  0
 22 53  1  0  0  0  0
 23 25  1  0  0  0  0
 23 54  1  0  0  0  0
 23 55  1  0  0  0  0
 24 56  1  0  0  0  0
 24 57  1  0  0  0  0
 25 58  1  0  0  0  0
 25 59  1  0  0  0  0
 26 27  2  0  0  0  0
 26 28  1  0  0  0  0
 27 29  1  0  0  0  0
 27 30  1  0  0  0  0
 28 31  2  0  0  0  0
 28 60  1  0  0  0  0
 29 32  2  0  0  0  0
 30 33  2  0  0  0  0
 30 61  1  0  0  0  0
 31 32  1  0  0  0  0
 31 62  1  0  0  0  0
 32 63  1  0  0  0  0
 33 64  1  0  0  0  0
M  END
> <PUBCHEM_COMPOUND_CID>
145978965

> <PUBCHEM_COMPOUND_CANONICALIZED>
1

> <PUBCHEM_CACTVS_COMPLEXITY>
743

> <PUBCHEM_CACTVS_HBOND_ACCEPTOR>
7

> <PUBCHEM_CACTVS_HBOND_DONOR>
2

> <PUBCHEM_CACTVS_ROTATABLE_BOND>
6

> <PUBCHEM_CACTVS_SUBSKEYS>
AAADceB7OABAAAAAAAAAAAAAAAAAAeNECAA8YIAAAAAWAEgB8AAAHgQACAAADRzl2AawwcMAAgiMAiVSUACDAIAhChBIiBkIZIgJcDLgkZGUYAxkhiDpyAe//PLOgAAAACAGAABAAAYAQDyAAYAADCAAAA==

> <PUBCHEM_IUPAC_OPENEYE_NAME>
(1R,2S,6R,7S,8S,9R)-4-[4-[4-(benzothiophen-4-yl)piperazin-1-yl]butyl]-8,9-dihydroxy-4-azatricyclo[5.2.1.02,6]decane-3,5-dione

> <PUBCHEM_IUPAC_CAS_NAME>
(1R,2S,6R,7S,8S,9R)-4-[4-[4-(1-benzothiophen-4-yl)-1-piperazinyl]butyl]-8,9-dihydroxy-4-azatricyclo[5.2.1.02,6]decane-3,5-dione

> <PUBCHEM_IUPAC_NAME_MARKUP>
(1<I>R</I>,2<I>S</I>,6<I>R</I>,7<I>S</I>,8<I>S</I>,9<I>R</I>)-4-[4-[4-(1-benzothiophen-4-yl)piperazin-1-yl]butyl]-8,9-dihydroxy-4-azatricyclo[5.2.1.0<SUP>2,6</SUP>]decane-3,5-dione

> <PUBCHEM_IUPAC_NAME>
(1R,2S,6R,7S,8S,9R)-4-[4-[4-(1-benzothiophen-4-yl)piperazin-1-yl]butyl]-8,9-dihydroxy-4-azatricyclo[5.2.1.02,6]decane-3,5-dione

> <PUBCHEM_IUPAC_SYSTEMATIC_NAME>
(1R,2S,6R,7S,8S,9R)-4-[4-[4-(1-benzothiophen-4-yl)piperazin-1-yl]butyl]-8,9-bis(oxidanyl)-4-azatricyclo[5.2.1.02,6]decane-3,5-dione

> <PUBCHEM_IUPAC_TRADITIONAL_NAME>
(1R,2S,6R,7S,8S,9R)-4-[4-[4-(benzothiophen-4-yl)piperazino]butyl]-8,9-dihydroxy-4-azatricyclo[5.2.1.02,6]decane-3,5-quinone

> <PUBCHEM_IUPAC_INCHI>
InChI=1S/C25H31N3O4S/c29-22-16-14-17(23(22)30)21-20(16)24(31)28(25(21)32)8-2-1-7-26-9-11-27(12-10-26)18-4-3-5-19-15(18)6-13-33-19/h3-6,13,16-17,20-23,29-30H,1-2,7-12,14H2/t16-,17+,20+,21-,22-,23+

> <PUBCHEM_IUPAC_INCHIKEY>
XVUATXAVUFXNQC-XCXMUSTGSA-N

> <PUBCHEM_XLOGP3_AA>
1.8

> <PUBCHEM_EXACT_MASS>
469.20352765

> <PUBCHEM_MOLECULAR_FORMULA>
C25H31N3O4S

> <PUBCHEM_MOLECULAR_WEIGHT>
469.6

> <PUBCHEM_OPENEYE_CAN_SMILES>
C1CN(CCN1CCCCN2C(=O)C3C4CC(C3C2=O)C(C4O)O)C5=C6C=CSC6=CC=C5

> <PUBCHEM_OPENEYE_ISO_SMILES>
C1CN(CCN1CCCCN2C(=O)[C@H]3[C@H]4C[C@@H]([C@H]3C2=O)[C@@H]([C@@H]4O)O)C5=C6C=CSC6=CC=C5

> <PUBCHEM_CACTVS_TPSA>
113

> <PUBCHEM_MONOISOTOPIC_WEIGHT>
469.20352765

> <PUBCHEM_TOTAL_CHARGE>
0

> <PUBCHEM_HEAVY_ATOM_COUNT>
33

> <PUBCHEM_ATOM_DEF_STEREO_COUNT>
6

> <PUBCHEM_ATOM_UDEF_STEREO_COUNT>
0

> <PUBCHEM_BOND_DEF_STEREO_COUNT>
0

> <PUBCHEM_BOND_UDEF_STEREO_COUNT>
0

> <PUBCHEM_ISOTOPIC_ATOM_COUNT>
0

> <PUBCHEM_COMPONENT_COUNT>
1

> <PUBCHEM_CACTVS_TAUTO_COUNT>
-1

> <PUBCHEM_COORDINATE_TYPE>
1
5
255

> <PUBCHEM_BONDANNOTATIONS>
1  29  8
1  33  8
10  35  6
11  36  6
12  37  6
14  2  5
26  27  8
26  28  8
27  29  8
27  30  8
28  31  8
29  32  8
15  3  5
30  33  8
31  32  8
9  34  5

$$$$
