25140466
  -OEChem-09292322232D

 49 51  0     1  0  0  0  0  0999 V2000
    3.8000    1.4588    0.0000 N   0  0  0  0  0  0  0  0  0  0  0  0
    4.6660   -0.0412    0.0000 C   0  0  3  0  0  0  0  0  0  0  0  0
    5.5321   -0.5412    0.0000 C   0  0  0  0  0  0  0  0  0  0  0  0
    5.5321   -1.5412    0.0000 C   0  0  0  0  0  0  0  0  0  0  0  0
    3.8000   -0.5412    0.0000 C   0  0  0  0  0  0  0  0  0  0  0  0
    4.6660   -2.0412    0.0000 C   0  0  0  0  0  0  0  0  0  0  0  0
    3.8000   -1.5412    0.0000 C   0  0  0  0  0  0  0  0  0  0  0  0
    4.6660    0.9588    0.0000 C   0  0  0  0  0  0  0  0  0  0  0  0
    7.3321   -1.5621    0.0000 C   0  0  0  0  0  0  0  0  0  0  0  0
    6.4260   -2.0759    0.0000 C   0  0  0  0  0  0  0  0  0  0  0  0
    6.4260   -0.0066    0.0000 C   0  0  0  0  0  0  0  0  0  0  0  0
    8.1962   -2.0654    0.0000 C   0  0  0  0  0  0  0  0  0  0  0  0
    9.0641   -1.5687    0.0000 C   0  0  0  0  0  0  0  0  0  0  0  0
    7.3321   -0.5204    0.0000 C   0  0  0  0  0  0  0  0  0  0  0  0
    2.9061   -0.0066    0.0000 C   0  0  0  0  0  0  0  0  0  0  0  0
    9.9282   -2.0721    0.0000 C   0  0  0  0  0  0  0  0  0  0  0  0
    2.9061   -2.0759    0.0000 C   0  0  0  0  0  0  0  0  0  0  0  0
   10.7961   -1.5754    0.0000 C   0  0  0  0  0  0  0  0  0  0  0  0
    2.0000   -0.5204    0.0000 C   0  0  0  0  0  0  0  0  0  0  0  0
    2.0000   -1.5621    0.0000 C   0  0  0  0  0  0  0  0  0  0  0  0
   11.6602   -2.0788    0.0000 C   0  0  0  0  0  0  0  0  0  0  0  0
   12.5282   -1.5821    0.0000 C   0  0  0  0  0  0  0  0  0  0  0  0
    5.2030    0.2688    0.0000 H   0  0  0  0  0  0  0  0  0  0  0  0
    4.2675   -2.5162    0.0000 H   0  0  0  0  0  0  0  0  0  0  0  0
    5.0646   -2.5162    0.0000 H   0  0  0  0  0  0  0  0  0  0  0  0
    5.2766    0.8511    0.0000 H   0  0  0  0  0  0  0  0  0  0  0  0
    4.8781    1.5414    0.0000 H   0  0  0  0  0  0  0  0  0  0  0  0
    6.4188   -2.6959    0.0000 H   0  0  0  0  0  0  0  0  0  0  0  0
    6.4188    0.6134    0.0000 H   0  0  0  0  0  0  0  0  0  0  0  0
    7.7958   -2.5388    0.0000 H   0  0  0  0  0  0  0  0  0  0  0  0
    8.5929   -2.5419    0.0000 H   0  0  0  0  0  0  0  0  0  0  0  0
    9.4645   -1.0953    0.0000 H   0  0  0  0  0  0  0  0  0  0  0  0
    8.6674   -1.0923    0.0000 H   0  0  0  0  0  0  0  0  0  0  0  0
    7.8678   -0.2084    0.0000 H   0  0  0  0  0  0  0  0  0  0  0  0
    2.9132    0.6134    0.0000 H   0  0  0  0  0  0  0  0  0  0  0  0
    9.5278   -2.5455    0.0000 H   0  0  0  0  0  0  0  0  0  0  0  0
   10.3249   -2.5486    0.0000 H   0  0  0  0  0  0  0  0  0  0  0  0
    2.9132   -2.6959    0.0000 H   0  0  0  0  0  0  0  0  0  0  0  0
   11.1965   -1.1020    0.0000 H   0  0  0  0  0  0  0  0  0  0  0  0
   10.3995   -1.0989    0.0000 H   0  0  0  0  0  0  0  0  0  0  0  0
    1.4643   -0.2084    0.0000 H   0  0  0  0  0  0  0  0  0  0  0  0
    1.4643   -1.8741    0.0000 H   0  0  0  0  0  0  0  0  0  0  0  0
    3.8000    2.0788    0.0000 H   0  0  0  0  0  0  0  0  0  0  0  0
    3.2631    1.1488    0.0000 H   0  0  0  0  0  0  0  0  0  0  0  0
   11.2599   -2.5522    0.0000 H   0  0  0  0  0  0  0  0  0  0  0  0
   12.0569   -2.5552    0.0000 H   0  0  0  0  0  0  0  0  0  0  0  0
   12.8361   -2.1202    0.0000 H   0  0  0  0  0  0  0  0  0  0  0  0
   13.0663   -1.2742    0.0000 H   0  0  0  0  0  0  0  0  0  0  0  0
   12.2203   -1.0440    0.0000 H   0  0  0  0  0  0  0  0  0  0  0  0
  1  8  1  0  0  0  0
  1 43  1  0  0  0  0
  1 44  1  0  0  0  0
  2  3  1  0  0  0  0
  2  5  1  0  0  0  0
  2  8  1  0  0  0  0
  2 23  1  0  0  0  0
  3  4  2  0  0  0  0
  3 11  1  0  0  0  0
  4  6  1  0  0  0  0
  4 10  1  0  0  0  0
  5  7  1  0  0  0  0
  5 15  2  0  0  0  0
  6  7  1  0  0  0  0
  6 24  1  0  0  0  0
  6 25  1  0  0  0  0
  7 17  2  0  0  0  0
  8 26  1  0  0  0  0
  8 27  1  0  0  0  0
  9 10  2  0  0  0  0
  9 12  1  0  0  0  0
  9 14  1  0  0  0  0
 10 28  1  0  0  0  0
 11 14  2  0  0  0  0
 11 29  1  0  0  0  0
 12 13  1  0  0  0  0
 12 30  1  0  0  0  0
 12 31  1  0  0  0  0
 13 16  1  0  0  0  0
 13 32  1  0  0  0  0
 13 33  1  0  0  0  0
 14 34  1  0  0  0  0
 15 19  1  0  0  0  0
 15 35  1  0  0  0  0
 16 18  1  0  0  0  0
 16 36  1  0  0  0  0
 16 37  1  0  0  0  0
 17 20  1  0  0  0  0
 17 38  1  0  0  0  0
 18 21  1  0  0  0  0
 18 39  1  0  0  0  0
 18 40  1  0  0  0  0
 19 20  2  0  0  0  0
 19 41  1  0  0  0  0
 20 42  1  0  0  0  0
 21 22  1  0  0  0  0
 21 45  1  0  0  0  0
 21 46  1  0  0  0  0
 22 47  1  0  0  0  0
 22 48  1  0  0  0  0
 22 49  1  0  0  0  0
M  END
> <PUBCHEM_COMPOUND_CID>
25140466

> <PUBCHEM_COMPOUND_CANONICALIZED>
1

> <PUBCHEM_CACTVS_COMPLEXITY>
326

> <PUBCHEM_CACTVS_HBOND_ACCEPTOR>
1

> <PUBCHEM_CACTVS_HBOND_DONOR>
1

> <PUBCHEM_CACTVS_ROTATABLE_BOND>
6

> <PUBCHEM_CACTVS_SUBSKEYS>
AAADceB6AAAAAAAAAAAAAAAAAAAAAAAAAAAwYMAAAAAAAADBQAAAHAAQAAAADQDBGAQyAIBAAACAAiBCAAACAAAgAAAIiIAAAIgIICKAkRGAIAAgkAAIiAcQgMAOwAACAAAQAACAAAQAACAAAAAAAAAAAA==

> <PUBCHEM_IUPAC_OPENEYE_NAME>
(3-hexyl-9,10-dihydroanthracen-9-yl)methanamine

> <PUBCHEM_IUPAC_CAS_NAME>
(3-hexyl-9,10-dihydroanthracen-9-yl)methanamine

> <PUBCHEM_IUPAC_NAME_MARKUP>
(3-hexyl-9,10-dihydroanthracen-9-yl)methanamine

> <PUBCHEM_IUPAC_NAME>
(3-hexyl-9,10-dihydroanthracen-9-yl)methanamine

> <PUBCHEM_IUPAC_SYSTEMATIC_NAME>
(3-hexyl-9,10-dihydroanthracen-9-yl)methanamine

> <PUBCHEM_IUPAC_TRADITIONAL_NAME>
(3-hexyl-9,10-dihydroanthracen-9-yl)methylamine

> <PUBCHEM_IUPAC_INCHI>
InChI=1S/C21H27N/c1-2-3-4-5-8-16-11-12-20-18(13-16)14-17-9-6-7-10-19(17)21(20)15-22/h6-7,9-13,21H,2-5,8,14-15,22H2,1H3

> <PUBCHEM_IUPAC_INCHIKEY>
WJPJNUGOFZCYAX-UHFFFAOYSA-N

> <PUBCHEM_XLOGP3_AA>
5.7

> <PUBCHEM_EXACT_MASS>
293.214349865

> <PUBCHEM_MOLECULAR_FORMULA>
C21H27N

> <PUBCHEM_MOLECULAR_WEIGHT>
293.4

> <PUBCHEM_OPENEYE_CAN_SMILES>
CCCCCCC1=CC2=C(C=C1)C(C3=CC=CC=C3C2)CN

> <PUBCHEM_OPENEYE_ISO_SMILES>
CCCCCCC1=CC2=C(C=C1)C(C3=CC=CC=C3C2)CN

> <PUBCHEM_CACTVS_TPSA>
26

> <PUBCHEM_MONOISOTOPIC_WEIGHT>
293.214349865

> <PUBCHEM_TOTAL_CHARGE>
0

> <PUBCHEM_HEAVY_ATOM_COUNT>
22

> <PUBCHEM_ATOM_DEF_STEREO_COUNT>
0

> <PUBCHEM_ATOM_UDEF_STEREO_COUNT>
1

> <PUBCHEM_BOND_DEF_STEREO_COUNT>
0

> <PUBCHEM_BOND_UDEF_STEREO_COUNT>
0

> <PUBCHEM_ISOTOPIC_ATOM_COUNT>
0

> <PUBCHEM_COMPONENT_COUNT>
1

> <PUBCHEM_CACTVS_TAUTO_COUNT>
-1

> <PUBCHEM_COORDINATE_TYPE>
1
5
255

> <PUBCHEM_BONDANNOTATIONS>
11  14  8
15  19  8
17  20  8
19  20  8
2  8  3
3  11  8
3  4  8
4  10  8
5  15  8
5  7  8
7  17  8
9  10  8
9  14  8

$$$$
