66801605
  -OEChem-09292322342D

 58 62  0     0  0  0  0  0  0999 V2000
    2.0000   -3.8855    0.0000 Cl  0  0  0  0  0  0  0  0  0  0  0  0
    7.1279   -2.8855    0.0000 S   0  0  0  0  0  0  0  0  0  0  0  0
   13.4598    3.8855    0.0000 S   0  0  0  0  0  0  0  0  0  0  0  0
    5.5443   -3.6902    0.0000 S   0  0  0  0  0  0  0  0  0  0  0  0
    7.1279   -1.8855    0.0000 O   0  0  0  0  0  0  0  0  0  0  0  0
    7.1279   -3.8855    0.0000 O   0  0  0  0  0  0  0  0  0  0  0  0
   11.6279   -0.2874    0.0000 N   0  0  0  0  0  0  0  0  0  0  0  0
   12.6279    1.4446    0.0000 N   0  0  0  0  0  0  0  0  0  0  0  0
    8.1279   -2.8855    0.0000 N   0  0  0  0  0  0  0  0  0  0  0  0
   12.7228    3.2184    0.0000 N   0  0  0  0  0  0  0  0  0  0  0  0
   11.1279    0.5786    0.0000 C   0  0  0  0  0  0  0  0  0  0  0  0
   12.6279   -0.2874    0.0000 C   0  0  0  0  0  0  0  0  0  0  0  0
   11.6279    1.4446    0.0000 C   0  0  0  0  0  0  0  0  0  0  0  0
   13.1279    0.5786    0.0000 C   0  0  0  0  0  0  0  0  0  0  0  0
   11.1279   -1.1535    0.0000 C   0  0  0  0  0  0  0  0  0  0  0  0
   10.1279   -1.1535    0.0000 C   0  0  0  0  0  0  0  0  0  0  0  0
    9.6279   -2.0195    0.0000 C   0  0  0  0  0  0  0  0  0  0  0  0
   13.1279    2.3106    0.0000 C   0  0  0  0  0  0  0  0  0  0  0  0
    8.6279   -2.0195    0.0000 C   0  0  0  0  0  0  0  0  0  0  0  0
   14.1166    2.4137    0.0000 C   0  0  0  0  0  0  0  0  0  0  0  0
   14.3228    3.3922    0.0000 C   0  0  0  0  0  0  0  0  0  0  0  0
   14.8609    1.7458    0.0000 C   0  0  0  0  0  0  0  0  0  0  0  0
   15.2734    3.7029    0.0000 C   0  0  0  0  0  0  0  0  0  0  0  0
    6.1279   -2.8855    0.0000 C   0  0  0  0  0  0  0  0  0  0  0  0
   15.8115    2.0565    0.0000 C   0  0  0  0  0  0  0  0  0  0  0  0
   16.0177    3.0350    0.0000 C   0  0  0  0  0  0  0  0  0  0  0  0
    5.5443   -2.0808    0.0000 C   0  0  0  0  0  0  0  0  0  0  0  0
    4.5981   -2.3855    0.0000 C   0  0  0  0  0  0  0  0  0  0  0  0
    4.5981   -3.3855    0.0000 C   0  0  0  0  0  0  0  0  0  0  0  0
    3.7320   -1.8855    0.0000 C   0  0  0  0  0  0  0  0  0  0  0  0
    3.7320   -3.8855    0.0000 C   0  0  0  0  0  0  0  0  0  0  0  0
    2.8660   -2.3855    0.0000 C   0  0  0  0  0  0  0  0  0  0  0  0
    2.8660   -3.3855    0.0000 C   0  0  0  0  0  0  0  0  0  0  0  0
   10.6530    0.9771    0.0000 H   0  0  0  0  0  0  0  0  0  0  0  0
   10.6530    0.1801    0.0000 H   0  0  0  0  0  0  0  0  0  0  0  0
   12.5202   -0.8980    0.0000 H   0  0  0  0  0  0  0  0  0  0  0  0
   13.2105   -0.4995    0.0000 H   0  0  0  0  0  0  0  0  0  0  0  0
   11.7356    2.0552    0.0000 H   0  0  0  0  0  0  0  0  0  0  0  0
   11.0453    1.6567    0.0000 H   0  0  0  0  0  0  0  0  0  0  0  0
   13.6029    0.1801    0.0000 H   0  0  0  0  0  0  0  0  0  0  0  0
   13.6029    0.9771    0.0000 H   0  0  0  0  0  0  0  0  0  0  0  0
   11.0202   -1.7640    0.0000 H   0  0  0  0  0  0  0  0  0  0  0  0
   11.7105   -1.3655    0.0000 H   0  0  0  0  0  0  0  0  0  0  0  0
   10.2356   -0.5429    0.0000 H   0  0  0  0  0  0  0  0  0  0  0  0
    9.5453   -0.9414    0.0000 H   0  0  0  0  0  0  0  0  0  0  0  0
    9.5202   -2.6301    0.0000 H   0  0  0  0  0  0  0  0  0  0  0  0
   10.2105   -2.2315    0.0000 H   0  0  0  0  0  0  0  0  0  0  0  0
    8.7356   -1.4089    0.0000 H   0  0  0  0  0  0  0  0  0  0  0  0
    8.0453   -1.8074    0.0000 H   0  0  0  0  0  0  0  0  0  0  0  0
    8.4379   -3.4224    0.0000 H   0  0  0  0  0  0  0  0  0  0  0  0
   14.7331    1.1392    0.0000 H   0  0  0  0  0  0  0  0  0  0  0  0
   15.4012    4.3095    0.0000 H   0  0  0  0  0  0  0  0  0  0  0  0
   16.2729    1.6424    0.0000 H   0  0  0  0  0  0  0  0  0  0  0  0
   16.6070    3.2276    0.0000 H   0  0  0  0  0  0  0  0  0  0  0  0
    5.7369   -1.4915    0.0000 H   0  0  0  0  0  0  0  0  0  0  0  0
    3.7320   -1.2655    0.0000 H   0  0  0  0  0  0  0  0  0  0  0  0
    3.7320   -4.5055    0.0000 H   0  0  0  0  0  0  0  0  0  0  0  0
    2.3291   -2.0755    0.0000 H   0  0  0  0  0  0  0  0  0  0  0  0
  1 33  1  0  0  0  0
  2  5  2  0  0  0  0
  2  6  2  0  0  0  0
  2  9  1  0  0  0  0
  2 24  1  0  0  0  0
  3 10  1  0  0  0  0
  3 21  1  0  0  0  0
  4 24  1  0  0  0  0
  4 29  1  0  0  0  0
  7 11  1  0  0  0  0
  7 12  1  0  0  0  0
  7 15  1  0  0  0  0
  8 13  1  0  0  0  0
  8 14  1  0  0  0  0
  8 18  1  0  0  0  0
  9 19  1  0  0  0  0
  9 50  1  0  0  0  0
 10 18  2  0  0  0  0
 11 13  1  0  0  0  0
 11 34  1  0  0  0  0
 11 35  1  0  0  0  0
 12 14  1  0  0  0  0
 12 36  1  0  0  0  0
 12 37  1  0  0  0  0
 13 38  1  0  0  0  0
 13 39  1  0  0  0  0
 14 40  1  0  0  0  0
 14 41  1  0  0  0  0
 15 16  1  0  0  0  0
 15 42  1  0  0  0  0
 15 43  1  0  0  0  0
 16 17  1  0  0  0  0
 16 44  1  0  0  0  0
 16 45  1  0  0  0  0
 17 19  1  0  0  0  0
 17 46  1  0  0  0  0
 17 47  1  0  0  0  0
 18 20  1  0  0  0  0
 19 48  1  0  0  0  0
 19 49  1  0  0  0  0
 20 21  1  0  0  0  0
 20 22  2  0  0  0  0
 21 23  2  0  0  0  0
 22 25  1  0  0  0  0
 22 51  1  0  0  0  0
 23 26  1  0  0  0  0
 23 52  1  0  0  0  0
 24 27  2  0  0  0  0
 25 26  2  0  0  0  0
 25 53  1  0  0  0  0
 26 54  1  0  0  0  0
 27 28  1  0  0  0  0
 27 55  1  0  0  0  0
 28 29  2  0  0  0  0
 28 30  1  0  0  0  0
 29 31  1  0  0  0  0
 30 32  2  0  0  0  0
 30 56  1  0  0  0  0
 31 33  2  0  0  0  0
 31 57  1  0  0  0  0
 32 33  1  0  0  0  0
 32 58  1  0  0  0  0
M  END
> <PUBCHEM_COMPOUND_CID>
66801605

> <PUBCHEM_COMPOUND_CANONICALIZED>
1

> <PUBCHEM_CACTVS_COMPLEXITY>
747

> <PUBCHEM_CACTVS_HBOND_ACCEPTOR>
8

> <PUBCHEM_CACTVS_HBOND_DONOR>
1

> <PUBCHEM_CACTVS_ROTATABLE_BOND>
8

> <PUBCHEM_CACTVS_SUBSKEYS>
AAADceB7sABkAAAAAAAAAAAAAAAAAWJAAAA8YIAAAAAAAFgB/gAAHAYQQAAADALBWiQxsdNAAAqkAiJiYHDDAZAhDRBJmLgoRpiIYKLhm5GUIAxgkALoyAcQgIAOBAAAABAEAAAIAAAAIAgAAAAAAAAAAA==

> <PUBCHEM_IUPAC_OPENEYE_NAME>
N-[4-[4-(1,2-benzothiazol-3-yl)piperazin-1-yl]butyl]-6-chloro-benzothiophene-2-sulfonamide

> <PUBCHEM_IUPAC_CAS_NAME>
N-[4-[4-(1,2-benzothiazol-3-yl)-1-piperazinyl]butyl]-6-chloro-1-benzothiophene-2-sulfonamide

> <PUBCHEM_IUPAC_NAME_MARKUP>
<I>N</I>-[4-[4-(1,2-benzothiazol-3-yl)piperazin-1-yl]butyl]-6-chloro-1-benzothiophene-2-sulfonamide

> <PUBCHEM_IUPAC_NAME>
N-[4-[4-(1,2-benzothiazol-3-yl)piperazin-1-yl]butyl]-6-chloro-1-benzothiophene-2-sulfonamide

> <PUBCHEM_IUPAC_SYSTEMATIC_NAME>
N-[4-[4-(1,2-benzothiazol-3-yl)piperazin-1-yl]butyl]-6-chloranyl-1-benzothiophene-2-sulfonamide

> <PUBCHEM_IUPAC_TRADITIONAL_NAME>
N-[4-[4-(1,2-benzothiazol-3-yl)piperazino]butyl]-6-chloro-benzothiophene-2-sulfonamide

> <PUBCHEM_IUPAC_INCHI>
InChI=1S/C23H25ClN4O2S3/c24-18-8-7-17-15-22(31-21(17)16-18)33(29,30)25-9-3-4-10-27-11-13-28(14-12-27)23-19-5-1-2-6-20(19)32-26-23/h1-2,5-8,15-16,25H,3-4,9-14H2

> <PUBCHEM_IUPAC_INCHIKEY>
JJLIADRRWNTBBL-UHFFFAOYSA-N

> <PUBCHEM_XLOGP3_AA>
5.9

> <PUBCHEM_EXACT_MASS>
520.0828173

> <PUBCHEM_MOLECULAR_FORMULA>
C23H25ClN4O2S3

> <PUBCHEM_MOLECULAR_WEIGHT>
521.1

> <PUBCHEM_OPENEYE_CAN_SMILES>
C1CN(CCN1CCCCNS(=O)(=O)C2=CC3=C(S2)C=C(C=C3)Cl)C4=NSC5=CC=CC=C54

> <PUBCHEM_OPENEYE_ISO_SMILES>
C1CN(CCN1CCCCNS(=O)(=O)C2=CC3=C(S2)C=C(C=C3)Cl)C4=NSC5=CC=CC=C54

> <PUBCHEM_CACTVS_TPSA>
130

> <PUBCHEM_MONOISOTOPIC_WEIGHT>
520.0828173

> <PUBCHEM_TOTAL_CHARGE>
0

> <PUBCHEM_HEAVY_ATOM_COUNT>
33

> <PUBCHEM_ATOM_DEF_STEREO_COUNT>
0

> <PUBCHEM_ATOM_UDEF_STEREO_COUNT>
0

> <PUBCHEM_BOND_DEF_STEREO_COUNT>
0

> <PUBCHEM_BOND_UDEF_STEREO_COUNT>
0

> <PUBCHEM_ISOTOPIC_ATOM_COUNT>
0

> <PUBCHEM_COMPONENT_COUNT>
1

> <PUBCHEM_CACTVS_TAUTO_COUNT>
-1

> <PUBCHEM_COORDINATE_TYPE>
1
5
255

> <PUBCHEM_BONDANNOTATIONS>
10  18  8
18  20  8
20  21  8
20  22  8
21  23  8
22  25  8
23  26  8
24  27  8
25  26  8
27  28  8
28  29  8
28  30  8
29  31  8
3  10  8
3  21  8
30  32  8
31  33  8
32  33  8
4  24  8
4  29  8

$$$$
