126534771
  -OEChem-09292322372D

 58 62  0     1  0  0  0  0  0999 V2000
    9.0771    1.3593    0.0000 S   0  0  0  0  0  0  0  0  0  0  0  0
   13.3760    2.1381    0.0000 O   0  0  0  0  0  0  0  0  0  0  0  0
    3.5962   -1.1817    0.0000 N   0  0  3  0  0  0  0  0  0  0  0  0
    6.0771   -0.3727    0.0000 N   0  0  3  0  0  0  0  0  0  0  0  0
   10.6649    2.1684    0.0000 N   0  0  0  0  0  0  0  0  0  0  0  0
   10.6649    0.5503    0.0000 N   0  0  0  0  0  0  0  0  0  0  0  0
   11.6159    0.8593    0.0000 N   0  0  0  0  0  0  0  0  0  0  0  0
   13.3760    3.7561    0.0000 N   0  0  0  0  0  0  0  0  0  0  0  0
    4.5472    0.1273    0.0000 C   0  0  3  0  0  0  0  0  0  0  0  0
    4.5472   -0.8727    0.0000 C   0  0  3  0  0  0  0  0  0  0  0  0
    5.4935    0.4320    0.0000 C   0  0  0  0  0  0  0  0  0  0  0  0
    3.5962    0.4363    0.0000 C   0  0  0  0  0  0  0  0  0  0  0  0
    5.4935   -1.1775    0.0000 C   0  0  0  0  0  0  0  0  0  0  0  0
    3.0084   -0.3727    0.0000 C   0  0  0  0  0  0  0  0  0  0  0  0
    7.0771   -0.3727    0.0000 C   0  0  0  0  0  0  0  0  0  0  0  0
    3.2872   -2.1328    0.0000 C   0  0  0  0  0  0  0  0  0  0  0  0
    7.5771    0.4933    0.0000 C   0  0  0  0  0  0  0  0  0  0  0  0
    3.9563   -2.8759    0.0000 C   0  0  0  0  0  0  0  0  0  0  0  0
    2.3090   -2.3407    0.0000 C   0  0  0  0  0  0  0  0  0  0  0  0
    8.5771    0.4933    0.0000 C   0  0  0  0  0  0  0  0  0  0  0  0
    3.6473   -3.8270    0.0000 C   0  0  0  0  0  0  0  0  0  0  0  0
    2.0000   -3.2918    0.0000 C   0  0  0  0  0  0  0  0  0  0  0  0
    2.6691   -4.0349    0.0000 C   0  0  0  0  0  0  0  0  0  0  0  0
   10.0771    1.3593    0.0000 C   0  0  0  0  0  0  0  0  0  0  0  0
   11.6159    1.8593    0.0000 C   0  0  0  0  0  0  0  0  0  0  0  0
   10.3558    3.1194    0.0000 C   0  0  0  0  0  0  0  0  0  0  0  0
   12.4249    2.4471    0.0000 C   0  0  0  0  0  0  0  0  0  0  0  0
   12.4249    3.4471    0.0000 C   0  0  0  0  0  0  0  0  0  0  0  0
   11.6159    4.0349    0.0000 C   0  0  0  0  0  0  0  0  0  0  0  0
   13.9638    2.9471    0.0000 C   0  0  0  0  0  0  0  0  0  0  0  0
    4.5480    0.7473    0.0000 H   0  0  0  0  0  0  0  0  0  0  0  0
    4.5480   -1.4927    0.0000 H   0  0  0  0  0  0  0  0  0  0  0  0
    6.0308    0.7412    0.0000 H   0  0  0  0  0  0  0  0  0  0  0  0
    5.2424    0.9989    0.0000 H   0  0  0  0  0  0  0  0  0  0  0  0
    3.8484    1.0027    0.0000 H   0  0  0  0  0  0  0  0  0  0  0  0
    3.0592    0.7463    0.0000 H   0  0  0  0  0  0  0  0  0  0  0  0
    5.2424   -1.7444    0.0000 H   0  0  0  0  0  0  0  0  0  0  0  0
    6.0308   -1.4867    0.0000 H   0  0  0  0  0  0  0  0  0  0  0  0
    2.5476    0.0421    0.0000 H   0  0  0  0  0  0  0  0  0  0  0  0
    2.5476   -0.7876    0.0000 H   0  0  0  0  0  0  0  0  0  0  0  0
    6.9694   -0.9833    0.0000 H   0  0  0  0  0  0  0  0  0  0  0  0
    7.6597   -0.5848    0.0000 H   0  0  0  0  0  0  0  0  0  0  0  0
    7.6847    1.1039    0.0000 H   0  0  0  0  0  0  0  0  0  0  0  0
    6.9945    0.7054    0.0000 H   0  0  0  0  0  0  0  0  0  0  0  0
    4.5628   -2.7470    0.0000 H   0  0  0  0  0  0  0  0  0  0  0  0
    1.8942   -1.8800    0.0000 H   0  0  0  0  0  0  0  0  0  0  0  0
    8.4694   -0.1173    0.0000 H   0  0  0  0  0  0  0  0  0  0  0  0
    9.1597    0.2813    0.0000 H   0  0  0  0  0  0  0  0  0  0  0  0
    4.0621   -4.2877    0.0000 H   0  0  0  0  0  0  0  0  0  0  0  0
    1.3936   -3.4207    0.0000 H   0  0  0  0  0  0  0  0  0  0  0  0
    2.4775   -4.6246    0.0000 H   0  0  0  0  0  0  0  0  0  0  0  0
   10.9455    3.3110    0.0000 H   0  0  0  0  0  0  0  0  0  0  0  0
   10.1642    3.7091    0.0000 H   0  0  0  0  0  0  0  0  0  0  0  0
    9.7662    2.9278    0.0000 H   0  0  0  0  0  0  0  0  0  0  0  0
   11.9803    4.5365    0.0000 H   0  0  0  0  0  0  0  0  0  0  0  0
   11.1143    4.3993    0.0000 H   0  0  0  0  0  0  0  0  0  0  0  0
   11.2515    3.5333    0.0000 H   0  0  0  0  0  0  0  0  0  0  0  0
   14.5838    2.9471    0.0000 H   0  0  0  0  0  0  0  0  0  0  0  0
  1 20  1  0  0  0  0
  1 24  1  0  0  0  0
  2 27  1  0  0  0  0
  2 30  1  0  0  0  0
  3 10  1  0  0  0  0
  3 14  1  0  0  0  0
  3 16  1  0  0  0  0
  4 11  1  0  0  0  0
  4 13  1  0  0  0  0
  4 15  1  0  0  0  0
  5 24  1  0  0  0  0
  5 25  1  0  0  0  0
  5 26  1  0  0  0  0
  6  7  1  0  0  0  0
  6 24  2  0  0  0  0
  7 25  2  0  0  0  0
  8 28  1  0  0  0  0
  8 30  2  0  0  0  0
  9 10  1  0  0  0  0
  9 11  1  0  0  0  0
  9 12  1  0  0  0  0
  9 31  1  0  0  0  0
 10 13  1  0  0  0  0
 10 32  1  0  0  0  0
 11 33  1  0  0  0  0
 11 34  1  0  0  0  0
 12 14  1  0  0  0  0
 12 35  1  0  0  0  0
 12 36  1  0  0  0  0
 13 37  1  0  0  0  0
 13 38  1  0  0  0  0
 14 39  1  0  0  0  0
 14 40  1  0  0  0  0
 15 17  1  0  0  0  0
 15 41  1  0  0  0  0
 15 42  1  0  0  0  0
 16 18  2  0  0  0  0
 16 19  1  0  0  0  0
 17 20  1  0  0  0  0
 17 43  1  0  0  0  0
 17 44  1  0  0  0  0
 18 21  1  0  0  0  0
 18 45  1  0  0  0  0
 19 22  2  0  0  0  0
 19 46  1  0  0  0  0
 20 47  1  0  0  0  0
 20 48  1  0  0  0  0
 21 23  2  0  0  0  0
 21 49  1  0  0  0  0
 22 23  1  0  0  0  0
 22 50  1  0  0  0  0
 23 51  1  0  0  0  0
 25 27  1  0  0  0  0
 26 52  1  0  0  0  0
 26 53  1  0  0  0  0
 26 54  1  0  0  0  0
 27 28  2  0  0  0  0
 28 29  1  0  0  0  0
 29 55  1  0  0  0  0
 29 56  1  0  0  0  0
 29 57  1  0  0  0  0
 30 58  1  0  0  0  0
M  END
> <PUBCHEM_COMPOUND_CID>
126534771

> <PUBCHEM_COMPOUND_CANONICALIZED>
1

> <PUBCHEM_CACTVS_COMPLEXITY>
564

> <PUBCHEM_CACTVS_HBOND_ACCEPTOR>
7

> <PUBCHEM_CACTVS_HBOND_DONOR>
0

> <PUBCHEM_CACTVS_ROTATABLE_BOND>
7

> <PUBCHEM_CACTVS_SUBSKEYS>
AAADceB7oABAAAAAAAAAAAAAAAAAAWLFiwAwAAAAAAAWAAAB8AAAHgQIAAAADSzF1wa31JcMFEiqAaZz9ASS2Ct7YrAd2CG9ZJiOaCLk2bGdIChgjALYyAcQAAAKAAAAAAAAAAAAAAAAAAAAAAAAAAAAAA==

> <PUBCHEM_IUPAC_OPENEYE_NAME>
4-methyl-5-[4-methyl-5-[3-(1-phenyl-2,3,3a,4,6,6a-hexahydropyrrolo[2,3-c]pyrrol-5-yl)propylsulfanyl]-1,2,4-triazol-3-yl]oxazole

> <PUBCHEM_IUPAC_CAS_NAME>
4-methyl-5-[4-methyl-5-[3-(1-phenyl-2,3,3a,4,6,6a-hexahydropyrrolo[2,3-c]pyrrol-5-yl)propylthio]-1,2,4-triazol-3-yl]oxazole

> <PUBCHEM_IUPAC_NAME_MARKUP>
4-methyl-5-[4-methyl-5-[3-(1-phenyl-2,3,3<I>a</I>,4,6,6<I>a</I>-hexahydropyrrolo[2,3-c]pyrrol-5-yl)propylsulfanyl]-1,2,4-triazol-3-yl]-1,3-oxazole

> <PUBCHEM_IUPAC_NAME>
4-methyl-5-[4-methyl-5-[3-(1-phenyl-2,3,3a,4,6,6a-hexahydropyrrolo[2,3-c]pyrrol-5-yl)propylsulfanyl]-1,2,4-triazol-3-yl]-1,3-oxazole

> <PUBCHEM_IUPAC_SYSTEMATIC_NAME>
4-methyl-5-[4-methyl-5-[3-(1-phenyl-2,3,3a,4,6,6a-hexahydropyrrolo[2,3-c]pyrrol-5-yl)propylsulfanyl]-1,2,4-triazol-3-yl]-1,3-oxazole

> <PUBCHEM_IUPAC_TRADITIONAL_NAME>
4-methyl-5-[4-methyl-5-[3-(1-phenyl-2,3,3a,4,6,6a-hexahydropyrrolo[2,3-c]pyrrol-5-yl)propylthio]-1,2,4-triazol-3-yl]oxazole

> <PUBCHEM_IUPAC_INCHI>
InChI=1S/C22H28N6OS/c1-16-20(29-15-23-16)21-24-25-22(26(21)2)30-12-6-10-27-13-17-9-11-28(19(17)14-27)18-7-4-3-5-8-18/h3-5,7-8,15,17,19H,6,9-14H2,1-2H3

> <PUBCHEM_IUPAC_INCHIKEY>
SBCYNHCFJBYRJY-UHFFFAOYSA-N

> <PUBCHEM_XLOGP3_AA>
3.2

> <PUBCHEM_EXACT_MASS>
424.20453071

> <PUBCHEM_MOLECULAR_FORMULA>
C22H28N6OS

> <PUBCHEM_MOLECULAR_WEIGHT>
424.6

> <PUBCHEM_OPENEYE_CAN_SMILES>
CC1=C(OC=N1)C2=NN=C(N2C)SCCCN3CC4CCN(C4C3)C5=CC=CC=C5

> <PUBCHEM_OPENEYE_ISO_SMILES>
CC1=C(OC=N1)C2=NN=C(N2C)SCCCN3CC4CCN(C4C3)C5=CC=CC=C5

> <PUBCHEM_CACTVS_TPSA>
88.5

> <PUBCHEM_MONOISOTOPIC_WEIGHT>
424.20453071

> <PUBCHEM_TOTAL_CHARGE>
0

> <PUBCHEM_HEAVY_ATOM_COUNT>
30

> <PUBCHEM_ATOM_DEF_STEREO_COUNT>
0

> <PUBCHEM_ATOM_UDEF_STEREO_COUNT>
2

> <PUBCHEM_BOND_DEF_STEREO_COUNT>
0

> <PUBCHEM_BOND_UDEF_STEREO_COUNT>
0

> <PUBCHEM_ISOTOPIC_ATOM_COUNT>
0

> <PUBCHEM_COMPONENT_COUNT>
1

> <PUBCHEM_CACTVS_TAUTO_COUNT>
-1

> <PUBCHEM_COORDINATE_TYPE>
1
5
255

> <PUBCHEM_BONDANNOTATIONS>
10  13  3
16  18  8
16  19  8
18  21  8
19  22  8
2  27  8
2  30  8
21  23  8
22  23  8
27  28  8
5  24  8
5  25  8
6  24  8
6  7  8
7  25  8
8  28  8
8  30  8
9  12  3

$$$$
