118709161
  -OEChem-09292322352D

112117  0     0  0  0  0  0  0999 V2000
   13.0981    1.2990    0.0000 Cl  0  0  0  0  0  0  0  0  0  0  0  0
    2.5981   -1.2990    0.0000 Cl  0  0  0  0  0  0  0  0  0  0  0  0
    9.3660  -11.1651    0.0000 F   0  0  0  0  0  0  0  0  0  0  0  0
    2.8660   11.1651    0.0000 F   0  0  0  0  0  0  0  0  0  0  0  0
   10.5981   -1.2990    0.0000 O   0  0  0  0  0  0  0  0  0  0  0  0
    5.0981    1.2990    0.0000 O   0  0  0  0  0  0  0  0  0  0  0  0
    9.0981   -2.1651    0.0000 O   0  0  0  0  0  0  0  0  0  0  0  0
    6.5981    2.1651    0.0000 O   0  0  0  0  0  0  0  0  0  0  0  0
    8.5000   -6.6651    0.0000 O   0  0  0  0  0  0  0  0  0  0  0  0
    2.0000    6.6651    0.0000 O   0  0  0  0  0  0  0  0  0  0  0  0
   11.0981   -4.1651    0.0000 N   0  0  0  0  0  0  0  0  0  0  0  0
    4.5981    4.1651    0.0000 N   0  0  0  0  0  0  0  0  0  0  0  0
   11.0981   -2.1651    0.0000 C   0  0  0  0  0  0  0  0  0  0  0  0
    4.5981    2.1651    0.0000 C   0  0  0  0  0  0  0  0  0  0  0  0
   11.9641   -2.6651    0.0000 C   0  0  0  0  0  0  0  0  0  0  0  0
   10.2321   -2.6651    0.0000 C   0  0  0  0  0  0  0  0  0  0  0  0
    5.4641    2.6651    0.0000 C   0  0  0  0  0  0  0  0  0  0  0  0
    3.7320    2.6651    0.0000 C   0  0  0  0  0  0  0  0  0  0  0  0
   11.9641   -3.6651    0.0000 C   0  0  0  0  0  0  0  0  0  0  0  0
   10.2321   -3.6651    0.0000 C   0  0  0  0  0  0  0  0  0  0  0  0
    5.4641    3.6651    0.0000 C   0  0  0  0  0  0  0  0  0  0  0  0
    3.7320    3.6651    0.0000 C   0  0  0  0  0  0  0  0  0  0  0  0
   11.5981   -1.2990    0.0000 C   0  0  0  0  0  0  0  0  0  0  0  0
    4.0981    1.2990    0.0000 C   0  0  0  0  0  0  0  0  0  0  0  0
   11.0981   -5.1651    0.0000 C   0  0  0  0  0  0  0  0  0  0  0  0
    4.5981    5.1651    0.0000 C   0  0  0  0  0  0  0  0  0  0  0  0
   10.2321   -5.6651    0.0000 C   0  0  0  0  0  0  0  0  0  0  0  0
    3.7320    5.6651    0.0000 C   0  0  0  0  0  0  0  0  0  0  0  0
   12.5981   -1.2990    0.0000 C   0  0  0  0  0  0  0  0  0  0  0  0
    3.0981    1.2990    0.0000 C   0  0  0  0  0  0  0  0  0  0  0  0
   11.0981   -0.4330    0.0000 C   0  0  0  0  0  0  0  0  0  0  0  0
    4.5981    0.4330    0.0000 C   0  0  0  0  0  0  0  0  0  0  0  0
    9.5981   -1.2990    0.0000 C   0  0  0  0  0  0  0  0  0  0  0  0
    6.0981    1.2990    0.0000 C   0  0  0  0  0  0  0  0  0  0  0  0
    9.0981   -0.4330    0.0000 C   0  0  0  0  0  0  0  0  0  0  0  0
    6.5981    0.4330    0.0000 C   0  0  0  0  0  0  0  0  0  0  0  0
   10.2321   -6.6651    0.0000 C   0  0  0  0  0  0  0  0  0  0  0  0
    3.7320    6.6651    0.0000 C   0  0  0  0  0  0  0  0  0  0  0  0
    8.0981   -0.4330    0.0000 C   0  0  0  0  0  0  0  0  0  0  0  0
    7.5981    0.4330    0.0000 C   0  0  0  0  0  0  0  0  0  0  0  0
   13.0981   -0.4330    0.0000 C   0  0  0  0  0  0  0  0  0  0  0  0
    2.5981    0.4330    0.0000 C   0  0  0  0  0  0  0  0  0  0  0  0
   11.5981    0.4330    0.0000 C   0  0  0  0  0  0  0  0  0  0  0  0
    4.0981   -0.4330    0.0000 C   0  0  0  0  0  0  0  0  0  0  0  0
   12.5981    0.4330    0.0000 C   0  0  0  0  0  0  0  0  0  0  0  0
    3.0981   -0.4330    0.0000 C   0  0  0  0  0  0  0  0  0  0  0  0
    9.3660   -7.1651    0.0000 C   0  0  0  0  0  0  0  0  0  0  0  0
    2.8660    7.1651    0.0000 C   0  0  0  0  0  0  0  0  0  0  0  0
    9.3660   -8.1651    0.0000 C   0  0  0  0  0  0  0  0  0  0  0  0
    2.8660    8.1651    0.0000 C   0  0  0  0  0  0  0  0  0  0  0  0
   10.2321   -8.6651    0.0000 C   0  0  0  0  0  0  0  0  0  0  0  0
    2.0000    8.6651    0.0000 C   0  0  0  0  0  0  0  0  0  0  0  0
    8.5000   -8.6651    0.0000 C   0  0  0  0  0  0  0  0  0  0  0  0
    3.7320    8.6651    0.0000 C   0  0  0  0  0  0  0  0  0  0  0  0
   10.2321   -9.6651    0.0000 C   0  0  0  0  0  0  0  0  0  0  0  0
    2.0000    9.6651    0.0000 C   0  0  0  0  0  0  0  0  0  0  0  0
    8.5000   -9.6651    0.0000 C   0  0  0  0  0  0  0  0  0  0  0  0
    3.7320    9.6651    0.0000 C   0  0  0  0  0  0  0  0  0  0  0  0
    9.3660  -10.1651    0.0000 C   0  0  0  0  0  0  0  0  0  0  0  0
    2.8660   10.1651    0.0000 C   0  0  0  0  0  0  0  0  0  0  0  0
   12.5747   -2.7727    0.0000 H   0  0  0  0  0  0  0  0  0  0  0  0
   12.1762   -2.0824    0.0000 H   0  0  0  0  0  0  0  0  0  0  0  0
   10.0200   -2.0824    0.0000 H   0  0  0  0  0  0  0  0  0  0  0  0
    9.6215   -2.7727    0.0000 H   0  0  0  0  0  0  0  0  0  0  0  0
    5.6762    2.0824    0.0000 H   0  0  0  0  0  0  0  0  0  0  0  0
    6.0747    2.7727    0.0000 H   0  0  0  0  0  0  0  0  0  0  0  0
    3.1215    2.7727    0.0000 H   0  0  0  0  0  0  0  0  0  0  0  0
    3.5200    2.0824    0.0000 H   0  0  0  0  0  0  0  0  0  0  0  0
   12.1762   -4.2477    0.0000 H   0  0  0  0  0  0  0  0  0  0  0  0
   12.5747   -3.5574    0.0000 H   0  0  0  0  0  0  0  0  0  0  0  0
    9.6215   -3.5574    0.0000 H   0  0  0  0  0  0  0  0  0  0  0  0
   10.0200   -4.2477    0.0000 H   0  0  0  0  0  0  0  0  0  0  0  0
    6.0747    3.5574    0.0000 H   0  0  0  0  0  0  0  0  0  0  0  0
    5.6762    4.2477    0.0000 H   0  0  0  0  0  0  0  0  0  0  0  0
    3.5200    4.2477    0.0000 H   0  0  0  0  0  0  0  0  0  0  0  0
    3.1215    3.5574    0.0000 H   0  0  0  0  0  0  0  0  0  0  0  0
   11.3101   -5.7477    0.0000 H   0  0  0  0  0  0  0  0  0  0  0  0
   11.7087   -5.0574    0.0000 H   0  0  0  0  0  0  0  0  0  0  0  0
    5.2087    5.0574    0.0000 H   0  0  0  0  0  0  0  0  0  0  0  0
    4.8101    5.7477    0.0000 H   0  0  0  0  0  0  0  0  0  0  0  0
   10.0200   -5.0824    0.0000 H   0  0  0  0  0  0  0  0  0  0  0  0
    9.6215   -5.7727    0.0000 H   0  0  0  0  0  0  0  0  0  0  0  0
    3.1215    5.7727    0.0000 H   0  0  0  0  0  0  0  0  0  0  0  0
    3.5200    5.0824    0.0000 H   0  0  0  0  0  0  0  0  0  0  0  0
   12.9081   -1.8360    0.0000 H   0  0  0  0  0  0  0  0  0  0  0  0
    2.7881    1.8360    0.0000 H   0  0  0  0  0  0  0  0  0  0  0  0
   10.4781   -0.4330    0.0000 H   0  0  0  0  0  0  0  0  0  0  0  0
    5.2181    0.4330    0.0000 H   0  0  0  0  0  0  0  0  0  0  0  0
    9.6807   -0.2210    0.0000 H   0  0  0  0  0  0  0  0  0  0  0  0
    8.9904    0.1776    0.0000 H   0  0  0  0  0  0  0  0  0  0  0  0
    6.0155    0.2210    0.0000 H   0  0  0  0  0  0  0  0  0  0  0  0
    6.7057   -0.1776    0.0000 H   0  0  0  0  0  0  0  0  0  0  0  0
   10.4441   -7.2477    0.0000 H   0  0  0  0  0  0  0  0  0  0  0  0
   10.8426   -6.5574    0.0000 H   0  0  0  0  0  0  0  0  0  0  0  0
    4.3426    6.5574    0.0000 H   0  0  0  0  0  0  0  0  0  0  0  0
    3.9441    7.2477    0.0000 H   0  0  0  0  0  0  0  0  0  0  0  0
    7.5155   -0.6451    0.0000 H   0  0  0  0  0  0  0  0  0  0  0  0
    8.2057   -1.0436    0.0000 H   0  0  0  0  0  0  0  0  0  0  0  0
    8.1807    0.6451    0.0000 H   0  0  0  0  0  0  0  0  0  0  0  0
    7.4904    1.0436    0.0000 H   0  0  0  0  0  0  0  0  0  0  0  0
   13.7181   -0.4330    0.0000 H   0  0  0  0  0  0  0  0  0  0  0  0
    1.9781    0.4330    0.0000 H   0  0  0  0  0  0  0  0  0  0  0  0
   11.2881    0.9699    0.0000 H   0  0  0  0  0  0  0  0  0  0  0  0
    4.4081   -0.9699    0.0000 H   0  0  0  0  0  0  0  0  0  0  0  0
   10.7690   -8.3551    0.0000 H   0  0  0  0  0  0  0  0  0  0  0  0
    1.4631    8.3551    0.0000 H   0  0  0  0  0  0  0  0  0  0  0  0
    7.9631   -8.3551    0.0000 H   0  0  0  0  0  0  0  0  0  0  0  0
    4.2690    8.3551    0.0000 H   0  0  0  0  0  0  0  0  0  0  0  0
   10.7690   -9.9751    0.0000 H   0  0  0  0  0  0  0  0  0  0  0  0
    1.4631    9.9751    0.0000 H   0  0  0  0  0  0  0  0  0  0  0  0
    7.9631   -9.9751    0.0000 H   0  0  0  0  0  0  0  0  0  0  0  0
    4.2690    9.9751    0.0000 H   0  0  0  0  0  0  0  0  0  0  0  0
  1 45  1  0  0  0  0
  2 46  1  0  0  0  0
  3 59  1  0  0  0  0
  4 60  1  0  0  0  0
  5 13  1  0  0  0  0
  5 33  1  0  0  0  0
  6 14  1  0  0  0  0
  6 34  1  0  0  0  0
  7 33  2  0  0  0  0
  8 34  2  0  0  0  0
  9 47  2  0  0  0  0
 10 48  2  0  0  0  0
 11 19  1  0  0  0  0
 11 20  1  0  0  0  0
 11 25  1  0  0  0  0
 12 21  1  0  0  0  0
 12 22  1  0  0  0  0
 12 26  1  0  0  0  0
 13 15  1  0  0  0  0
 13 16  1  0  0  0  0
 13 23  1  0  0  0  0
 14 17  1  0  0  0  0
 14 18  1  0  0  0  0
 14 24  1  0  0  0  0
 15 19  1  0  0  0  0
 15 61  1  0  0  0  0
 15 62  1  0  0  0  0
 16 20  1  0  0  0  0
 16 63  1  0  0  0  0
 16 64  1  0  0  0  0
 17 21  1  0  0  0  0
 17 65  1  0  0  0  0
 17 66  1  0  0  0  0
 18 22  1  0  0  0  0
 18 67  1  0  0  0  0
 18 68  1  0  0  0  0
 19 69  1  0  0  0  0
 19 70  1  0  0  0  0
 20 71  1  0  0  0  0
 20 72  1  0  0  0  0
 21 73  1  0  0  0  0
 21 74  1  0  0  0  0
 22 75  1  0  0  0  0
 22 76  1  0  0  0  0
 23 29  2  0  0  0  0
 23 31  1  0  0  0  0
 24 30  2  0  0  0  0
 24 32  1  0  0  0  0
 25 27  1  0  0  0  0
 25 77  1  0  0  0  0
 25 78  1  0  0  0  0
 26 28  1  0  0  0  0
 26 79  1  0  0  0  0
 26 80  1  0  0  0  0
 27 37  1  0  0  0  0
 27 81  1  0  0  0  0
 27 82  1  0  0  0  0
 28 38  1  0  0  0  0
 28 83  1  0  0  0  0
 28 84  1  0  0  0  0
 29 41  1  0  0  0  0
 29 85  1  0  0  0  0
 30 42  1  0  0  0  0
 30 86  1  0  0  0  0
 31 43  2  0  0  0  0
 31 87  1  0  0  0  0
 32 44  2  0  0  0  0
 32 88  1  0  0  0  0
 33 35  1  0  0  0  0
 34 36  1  0  0  0  0
 35 39  1  0  0  0  0
 35 89  1  0  0  0  0
 35 90  1  0  0  0  0
 36 40  1  0  0  0  0
 36 91  1  0  0  0  0
 36 92  1  0  0  0  0
 37 47  1  0  0  0  0
 37 93  1  0  0  0  0
 37 94  1  0  0  0  0
 38 48  1  0  0  0  0
 38 95  1  0  0  0  0
 38 96  1  0  0  0  0
 39 40  1  0  0  0  0
 39 97  1  0  0  0  0
 39 98  1  0  0  0  0
 40 99  1  0  0  0  0
 40100  1  0  0  0  0
 41 45  2  0  0  0  0
 41101  1  0  0  0  0
 42 46  2  0  0  0  0
 42102  1  0  0  0  0
 43 45  1  0  0  0  0
 43103  1  0  0  0  0
 44 46  1  0  0  0  0
 44104  1  0  0  0  0
 47 49  1  0  0  0  0
 48 50  1  0  0  0  0
 49 51  2  0  0  0  0
 49 53  1  0  0  0  0
 50 52  2  0  0  0  0
 50 54  1  0  0  0  0
 51 55  1  0  0  0  0
 51105  1  0  0  0  0
 52 56  1  0  0  0  0
 52106  1  0  0  0  0
 53 57  2  0  0  0  0
 53107  1  0  0  0  0
 54 58  2  0  0  0  0
 54108  1  0  0  0  0
 55 59  2  0  0  0  0
 55109  1  0  0  0  0
 56 60  2  0  0  0  0
 56110  1  0  0  0  0
 57 59  1  0  0  0  0
 57111  1  0  0  0  0
 58 60  1  0  0  0  0
 58112  1  0  0  0  0
M  END
> <PUBCHEM_COMPOUND_CID>
118709161

> <PUBCHEM_COMPOUND_CANONICALIZED>
1

> <PUBCHEM_CACTVS_COMPLEXITY>
1260

> <PUBCHEM_CACTVS_HBOND_ACCEPTOR>
10

> <PUBCHEM_CACTVS_HBOND_DONOR>
0

> <PUBCHEM_CACTVS_ROTATABLE_BOND>
21

> <PUBCHEM_CACTVS_SUBSKEYS>
AAADcfB/OYAGAAAAAAAAAAAAAAAAAAAAAAA8eMGCAAAAAAABVAAAHwIAAAAADEbBmCwwCIMABACIAqDSCAACAAAkBQAIiAEICsgIJjKBtxiGMQAmwAGIqYecyOCOhAAAAAAAAAAIAAAAAAAAAAAAAAAAAA==

> <PUBCHEM_IUPAC_OPENEYE_NAME>
bis[4-(4-chlorophenyl)-1-[4-(4-fluorophenyl)-4-oxo-butyl]-4-piperidyl] hexanedioate

> <PUBCHEM_IUPAC_CAS_NAME>
hexanedioic acid bis[4-(4-chlorophenyl)-1-[4-(4-fluorophenyl)-4-oxobutyl]-4-piperidinyl] ester

> <PUBCHEM_IUPAC_NAME_MARKUP>
bis[4-(4-chlorophenyl)-1-[4-(4-fluorophenyl)-4-oxobutyl]piperidin-4-yl] hexanedioate

> <PUBCHEM_IUPAC_NAME>
bis[4-(4-chlorophenyl)-1-[4-(4-fluorophenyl)-4-oxobutyl]piperidin-4-yl] hexanedioate

> <PUBCHEM_IUPAC_SYSTEMATIC_NAME>
bis[4-(4-chlorophenyl)-1-[4-(4-fluorophenyl)-4-oxidanylidene-butyl]piperidin-4-yl] hexanedioate

> <PUBCHEM_IUPAC_TRADITIONAL_NAME>
adipic acid bis[4-(4-chlorophenyl)-1-[4-(4-fluorophenyl)-4-keto-butyl]-4-piperidyl] ester

> <PUBCHEM_IUPAC_INCHI>
InChI=1S/C48H52Cl2F2N2O6/c49-39-17-13-37(14-18-39)47(25-31-53(32-26-47)29-3-5-43(55)35-9-21-41(51)22-10-35)59-45(57)7-1-2-8-46(58)60-48(38-15-19-40(50)20-16-38)27-33-54(34-28-48)30-4-6-44(56)36-11-23-42(52)24-12-36/h9-24H,1-8,25-34H2

> <PUBCHEM_IUPAC_INCHIKEY>
ODDQSYJSQXYQTO-UHFFFAOYSA-N

> <PUBCHEM_XLOGP3_AA>
9.1

> <PUBCHEM_EXACT_MASS>
860.3170491

> <PUBCHEM_MOLECULAR_FORMULA>
C48H52Cl2F2N2O6

> <PUBCHEM_MOLECULAR_WEIGHT>
861.8

> <PUBCHEM_OPENEYE_CAN_SMILES>
C1CN(CCC1(C2=CC=C(C=C2)Cl)OC(=O)CCCCC(=O)OC3(CCN(CC3)CCCC(=O)C4=CC=C(C=C4)F)C5=CC=C(C=C5)Cl)CCCC(=O)C6=CC=C(C=C6)F

> <PUBCHEM_OPENEYE_ISO_SMILES>
C1CN(CCC1(C2=CC=C(C=C2)Cl)OC(=O)CCCCC(=O)OC3(CCN(CC3)CCCC(=O)C4=CC=C(C=C4)F)C5=CC=C(C=C5)Cl)CCCC(=O)C6=CC=C(C=C6)F

> <PUBCHEM_CACTVS_TPSA>
93.2

> <PUBCHEM_MONOISOTOPIC_WEIGHT>
860.3170491

> <PUBCHEM_TOTAL_CHARGE>
0

> <PUBCHEM_HEAVY_ATOM_COUNT>
60

> <PUBCHEM_ATOM_DEF_STEREO_COUNT>
0

> <PUBCHEM_ATOM_UDEF_STEREO_COUNT>
0

> <PUBCHEM_BOND_DEF_STEREO_COUNT>
0

> <PUBCHEM_BOND_UDEF_STEREO_COUNT>
0

> <PUBCHEM_ISOTOPIC_ATOM_COUNT>
0

> <PUBCHEM_COMPONENT_COUNT>
1

> <PUBCHEM_CACTVS_TAUTO_COUNT>
-1

> <PUBCHEM_COORDINATE_TYPE>
1
5
255

> <PUBCHEM_BONDANNOTATIONS>
23  29  8
23  31  8
24  30  8
24  32  8
29  41  8
30  42  8
31  43  8
32  44  8
41  45  8
42  46  8
43  45  8
44  46  8
49  51  8
49  53  8
50  52  8
50  54  8
51  55  8
52  56  8
53  57  8
54  58  8
55  59  8
56  60  8
57  59  8
58  60  8

$$$$
