45261538
  -OEChem-09292322142D

 45 46  0     1  0  0  0  0  0999 V2000
    5.8830    0.0000    0.0000 Br  0  0  0  0  0  0  0  0  0  0  0  0
    3.6014    8.7040    0.0000 Br  0  0  0  0  0  0  0  0  0  0  0  0
    7.6647    3.0587    0.0000 O   0  0  0  0  0  0  0  0  0  0  0  0
    7.6647    1.0104    0.0000 O   0  0  0  0  0  0  0  0  0  0  0  0
    2.8100    2.0346    0.0000 N   0  0  3  0  0  0  0  0  0  0  0  0
    4.2188    3.1581    0.0000 C   0  0  3  0  0  0  0  0  0  0  0  0
    3.2439    2.9356    0.0000 C   0  0  0  0  0  0  0  0  0  0  0  0
    5.0006    2.5346    0.0000 C   0  0  0  0  0  0  0  0  0  0  0  0
    3.2439    1.1336    0.0000 C   0  0  0  0  0  0  0  0  0  0  0  0
    4.2188    0.9111    0.0000 C   0  0  0  0  0  0  0  0  0  0  0  0
    5.0006    1.5346    0.0000 C   0  0  0  0  0  0  0  0  0  0  0  0
    4.4413    4.1330    0.0000 C   0  0  0  0  0  0  0  0  0  0  0  0
    1.8100    2.0346    0.0000 C   0  0  0  0  0  0  0  0  0  0  0  0
    5.8946    3.0693    0.0000 C   0  0  0  0  0  0  0  0  0  0  0  0
    5.8946    0.9999    0.0000 C   0  0  0  0  0  0  0  0  0  0  0  0
    6.8006    2.5554    0.0000 C   0  0  0  0  0  0  0  0  0  0  0  0
    3.7083    4.8132    0.0000 C   0  0  0  0  0  0  0  0  0  0  0  0
    5.3969    4.4278    0.0000 C   0  0  0  0  0  0  0  0  0  0  0  0
    6.8006    1.5138    0.0000 C   0  0  0  0  0  0  0  0  0  0  0  0
    1.3100    1.1686    0.0000 C   0  0  0  0  0  0  0  0  0  0  0  0
    3.9308    5.7881    0.0000 C   0  0  0  0  0  0  0  0  0  0  0  0
    5.6194    5.4027    0.0000 C   0  0  0  0  0  0  0  0  0  0  0  0
    4.8864    6.0829    0.0000 C   0  0  0  0  0  0  0  0  0  0  0  0
    0.3100    1.1686    0.0000 C   0  0  0  0  0  0  0  0  0  0  0  0
    3.7804    3.5965    0.0000 H   0  0  0  0  0  0  0  0  0  0  0  0
    3.2439    3.5556    0.0000 H   0  0  0  0  0  0  0  0  0  0  0  0
    2.6394    3.0735    0.0000 H   0  0  0  0  0  0  0  0  0  0  0  0
    2.6394    0.9957    0.0000 H   0  0  0  0  0  0  0  0  0  0  0  0
    3.2439    0.5136    0.0000 H   0  0  0  0  0  0  0  0  0  0  0  0
    3.9498    0.3525    0.0000 H   0  0  0  0  0  0  0  0  0  0  0  0
    4.7036    0.5245    0.0000 H   0  0  0  0  0  0  0  0  0  0  0  0
    1.9177    2.6452    0.0000 H   0  0  0  0  0  0  0  0  0  0  0  0
    1.2274    2.2466    0.0000 H   0  0  0  0  0  0  0  0  0  0  0  0
    5.8874    3.6892    0.0000 H   0  0  0  0  0  0  0  0  0  0  0  0
    3.1158    4.6304    0.0000 H   0  0  0  0  0  0  0  0  0  0  0  0
    5.8514    4.0061    0.0000 H   0  0  0  0  0  0  0  0  0  0  0  0
    1.6200    0.6316    0.0000 H   0  0  0  0  0  0  0  0  0  0  0  0
    3.4763    6.2098    0.0000 H   0  0  0  0  0  0  0  0  0  0  0  0
    6.2119    5.5854    0.0000 H   0  0  0  0  0  0  0  0  0  0  0  0
    5.0243    6.6873    0.0000 H   0  0  0  0  0  0  0  0  0  0  0  0
    7.6624    3.6787    0.0000 H   0  0  0  0  0  0  0  0  0  0  0  0
    8.2029    1.3184    0.0000 H   0  0  0  0  0  0  0  0  0  0  0  0
    0.0000    1.7055    0.0000 H   0  0  0  0  0  0  0  0  0  0  0  0
    0.0000    0.6316    0.0000 H   0  0  0  0  0  0  0  0  0  0  0  0
    4.6014    8.7040    0.0000 H   0  0  0  0  0  0  0  0  0  0  0  0
  1 15  1  0  0  0  0
  2 45  1  0  0  0  0
  3 16  1  0  0  0  0
  3 41  1  0  0  0  0
  4 19  1  0  0  0  0
  4 42  1  0  0  0  0
  5  7  1  0  0  0  0
  5  9  1  0  0  0  0
  5 13  1  0  0  0  0
  6  7  1  0  0  0  0
  6  8  1  0  0  0  0
  6 12  1  0  0  0  0
  6 25  1  0  0  0  0
  7 26  1  0  0  0  0
  7 27  1  0  0  0  0
  8 11  1  0  0  0  0
  8 14  2  0  0  0  0
  9 10  1  0  0  0  0
  9 28  1  0  0  0  0
  9 29  1  0  0  0  0
 10 11  1  0  0  0  0
 10 30  1  0  0  0  0
 10 31  1  0  0  0  0
 11 15  2  0  0  0  0
 12 17  2  0  0  0  0
 12 18  1  0  0  0  0
 13 20  1  0  0  0  0
 13 32  1  0  0  0  0
 13 33  1  0  0  0  0
 14 16  1  0  0  0  0
 14 34  1  0  0  0  0
 15 19  1  0  0  0  0
 16 19  2  0  0  0  0
 17 21  1  0  0  0  0
 17 35  1  0  0  0  0
 18 22  2  0  0  0  0
 18 36  1  0  0  0  0
 20 24  2  0  0  0  0
 20 37  1  0  0  0  0
 21 23  2  0  0  0  0
 21 38  1  0  0  0  0
 22 23  1  0  0  0  0
 22 39  1  0  0  0  0
 23 40  1  0  0  0  0
 24 43  1  0  0  0  0
 24 44  1  0  0  0  0
M  END
> <PUBCHEM_COMPOUND_CID>
45261538

> <PUBCHEM_COMPOUND_CANONICALIZED>
1

> <PUBCHEM_CACTVS_COMPLEXITY>
399

> <PUBCHEM_CACTVS_HBOND_ACCEPTOR>
3

> <PUBCHEM_CACTVS_HBOND_DONOR>
3

> <PUBCHEM_CACTVS_ROTATABLE_BOND>
3

> <PUBCHEM_CACTVS_SUBSKEYS>
AAADceB6MAAAGAAAAAAAAAAAAAAAAAAAAAAwYAAABYAAAAABQAAAHgBACAABrQTBmAQwBoMAAgCAAiBCAACCAAAgIAQIiAAOiKgJJiKCkROEcAEkwBGJmheQ0PIOoAABEIAQxABAAAIhACGIAAAAAAAAAA==

> <PUBCHEM_IUPAC_OPENEYE_NAME>
3-allyl-9-bromo-5-phenyl-1,2,4,5-tetrahydro-3-benzazepine-7,8-diol;hydrobromide

> <PUBCHEM_IUPAC_CAS_NAME>
9-bromo-5-phenyl-3-prop-2-enyl-1,2,4,5-tetrahydro-3-benzazepine-7,8-diol;hydrobromide

> <PUBCHEM_IUPAC_NAME_MARKUP>
9-bromo-5-phenyl-3-prop-2-enyl-1,2,4,5-tetrahydro-3-benzazepine-7,8-diol;hydrobromide

> <PUBCHEM_IUPAC_NAME>
9-bromo-5-phenyl-3-prop-2-enyl-1,2,4,5-tetrahydro-3-benzazepine-7,8-diol;hydrobromide

> <PUBCHEM_IUPAC_SYSTEMATIC_NAME>
9-bromanyl-5-phenyl-3-prop-2-enyl-1,2,4,5-tetrahydro-3-benzazepine-7,8-diol;hydrobromide

> <PUBCHEM_IUPAC_TRADITIONAL_NAME>
3-allyl-9-bromo-5-phenyl-1,2,4,5-tetrahydro-3-benzazepine-7,8-diol;hydrobromide

> <PUBCHEM_IUPAC_INCHI>
InChI=1S/C19H20BrNO2.BrH/c1-2-9-21-10-8-14-15(11-17(22)19(23)18(14)20)16(12-21)13-6-4-3-5-7-13;/h2-7,11,16,22-23H,1,8-10,12H2;1H

> <PUBCHEM_IUPAC_INCHIKEY>
CTAUBYSSTAODOD-UHFFFAOYSA-N

> <PUBCHEM_EXACT_MASS>
454.99185

> <PUBCHEM_MOLECULAR_FORMULA>
C19H21Br2NO2

> <PUBCHEM_MOLECULAR_WEIGHT>
455.2

> <PUBCHEM_OPENEYE_CAN_SMILES>
C=CCN1CCC2=C(C(=C(C=C2C(C1)C3=CC=CC=C3)O)O)Br.Br

> <PUBCHEM_OPENEYE_ISO_SMILES>
C=CCN1CCC2=C(C(=C(C=C2C(C1)C3=CC=CC=C3)O)O)Br.Br

> <PUBCHEM_CACTVS_TPSA>
43.7

> <PUBCHEM_MONOISOTOPIC_WEIGHT>
452.99390

> <PUBCHEM_TOTAL_CHARGE>
0

> <PUBCHEM_HEAVY_ATOM_COUNT>
24

> <PUBCHEM_ATOM_DEF_STEREO_COUNT>
0

> <PUBCHEM_ATOM_UDEF_STEREO_COUNT>
1

> <PUBCHEM_BOND_DEF_STEREO_COUNT>
0

> <PUBCHEM_BOND_UDEF_STEREO_COUNT>
0

> <PUBCHEM_ISOTOPIC_ATOM_COUNT>
0

> <PUBCHEM_COMPONENT_COUNT>
2

> <PUBCHEM_CACTVS_TAUTO_COUNT>
-1

> <PUBCHEM_COORDINATE_TYPE>
1
5
255

> <PUBCHEM_BONDANNOTATIONS>
11  15  8
12  17  8
12  18  8
14  16  8
15  19  8
16  19  8
17  21  8
18  22  8
21  23  8
22  23  8
6  12  3
8  11  8
8  14  8

$$$$
