127041563
  -OEChem-09292322362D

 64 66  0     1  0  0  0  0  0999 V2000
    5.4641   -1.0000    0.0000 S   0  0  0  0  0  0  0  0  0  0  0  0
    2.0000    1.0000    0.0000 F   0  0  0  0  0  0  0  0  0  0  0  0
   11.5263    0.5000    0.0000 O   0  0  0  0  0  0  0  0  0  0  0  0
    4.9641   -1.8660    0.0000 O   0  0  0  0  0  0  0  0  0  0  0  0
    5.9641   -0.1340    0.0000 O   0  0  0  0  0  0  0  0  0  0  0  0
    8.9282    0.0000    0.0000 N   0  0  0  0  0  0  0  0  0  0  0  0
    6.3301   -1.5000    0.0000 N   0  0  3  0  0  0  0  0  0  0  0  0
    7.1962   -1.0000    0.0000 C   0  0  0  0  0  0  0  0  0  0  0  0
    8.0622   -1.5000    0.0000 C   0  0  0  0  0  0  0  0  0  0  0  0
    7.1962    0.0000    0.0000 C   0  0  0  0  0  0  0  0  0  0  0  0
    8.9282   -1.0000    0.0000 C   0  0  0  0  0  0  0  0  0  0  0  0
    8.0622    0.5000    0.0000 C   0  0  0  0  0  0  0  0  0  0  0  0
    9.7942    0.5000    0.0000 C   0  0  0  0  0  0  0  0  0  0  0  0
    6.3301   -2.5000    0.0000 C   0  0  0  0  0  0  0  0  0  0  0  0
   10.6603   -0.0000    0.0000 C   0  0  0  0  0  0  0  0  0  0  0  0
    4.5981   -0.5000    0.0000 C   0  0  0  0  0  0  0  0  0  0  0  0
   13.2583    1.5000    0.0000 C   0  0  0  0  0  0  0  0  0  0  0  0
   13.2583    0.5000    0.0000 C   0  0  0  0  0  0  0  0  0  0  0  0
   12.3923   -0.0000    0.0000 C   0  0  0  0  0  0  0  0  0  0  0  0
    3.7320   -1.0000    0.0000 C   0  0  0  0  0  0  0  0  0  0  0  0
    4.5981    0.5000    0.0000 C   0  0  0  0  0  0  0  0  0  0  0  0
   13.2583    2.5000    0.0000 C   0  0  0  0  0  0  0  0  0  0  0  0
   14.2583    1.5000    0.0000 C   0  0  0  0  0  0  0  0  0  0  0  0
   12.2583    1.5000    0.0000 C   0  0  0  0  0  0  0  0  0  0  0  0
   14.1244   -0.0000    0.0000 C   0  0  0  0  0  0  0  0  0  0  0  0
   12.3923   -1.0000    0.0000 C   0  0  0  0  0  0  0  0  0  0  0  0
    2.8660   -0.5000    0.0000 C   0  0  0  0  0  0  0  0  0  0  0  0
    3.7320    1.0000    0.0000 C   0  0  0  0  0  0  0  0  0  0  0  0
   14.1244   -1.0000    0.0000 C   0  0  0  0  0  0  0  0  0  0  0  0
   13.2583   -1.5000    0.0000 C   0  0  0  0  0  0  0  0  0  0  0  0
    2.8660    0.5000    0.0000 C   0  0  0  0  0  0  0  0  0  0  0  0
    6.6592   -0.6900    0.0000 H   0  0  0  0  0  0  0  0  0  0  0  0
    7.6636   -1.9750    0.0000 H   0  0  0  0  0  0  0  0  0  0  0  0
    8.4607   -1.9750    0.0000 H   0  0  0  0  0  0  0  0  0  0  0  0
    6.9841    0.5826    0.0000 H   0  0  0  0  0  0  0  0  0  0  0  0
    6.5856   -0.1077    0.0000 H   0  0  0  0  0  0  0  0  0  0  0  0
    9.1403   -1.5826    0.0000 H   0  0  0  0  0  0  0  0  0  0  0  0
    9.5388   -0.8923    0.0000 H   0  0  0  0  0  0  0  0  0  0  0  0
    8.4607    0.9749    0.0000 H   0  0  0  0  0  0  0  0  0  0  0  0
    7.6636    0.9749    0.0000 H   0  0  0  0  0  0  0  0  0  0  0  0
   10.1928    0.9749    0.0000 H   0  0  0  0  0  0  0  0  0  0  0  0
    9.3957    0.9749    0.0000 H   0  0  0  0  0  0  0  0  0  0  0  0
    5.7101   -2.5000    0.0000 H   0  0  0  0  0  0  0  0  0  0  0  0
    6.3301   -3.1200    0.0000 H   0  0  0  0  0  0  0  0  0  0  0  0
    6.9501   -2.5000    0.0000 H   0  0  0  0  0  0  0  0  0  0  0  0
   10.2617   -0.4749    0.0000 H   0  0  0  0  0  0  0  0  0  0  0  0
   11.0588   -0.4749    0.0000 H   0  0  0  0  0  0  0  0  0  0  0  0
    3.7320   -1.6200    0.0000 H   0  0  0  0  0  0  0  0  0  0  0  0
    5.1350    0.8100    0.0000 H   0  0  0  0  0  0  0  0  0  0  0  0
   13.8783    2.5000    0.0000 H   0  0  0  0  0  0  0  0  0  0  0  0
   13.2583    3.1200    0.0000 H   0  0  0  0  0  0  0  0  0  0  0  0
   12.6383    2.5000    0.0000 H   0  0  0  0  0  0  0  0  0  0  0  0
   14.2583    0.8800    0.0000 H   0  0  0  0  0  0  0  0  0  0  0  0
   14.8783    1.5000    0.0000 H   0  0  0  0  0  0  0  0  0  0  0  0
   14.2583    2.1200    0.0000 H   0  0  0  0  0  0  0  0  0  0  0  0
   12.2583    2.1200    0.0000 H   0  0  0  0  0  0  0  0  0  0  0  0
   11.6383    1.5000    0.0000 H   0  0  0  0  0  0  0  0  0  0  0  0
   12.2583    0.8800    0.0000 H   0  0  0  0  0  0  0  0  0  0  0  0
   14.6613    0.3100    0.0000 H   0  0  0  0  0  0  0  0  0  0  0  0
   11.8554   -1.3100    0.0000 H   0  0  0  0  0  0  0  0  0  0  0  0
    2.3291   -0.8100    0.0000 H   0  0  0  0  0  0  0  0  0  0  0  0
    3.7320    1.6200    0.0000 H   0  0  0  0  0  0  0  0  0  0  0  0
   14.6613   -1.3100    0.0000 H   0  0  0  0  0  0  0  0  0  0  0  0
   13.2583   -2.1200    0.0000 H   0  0  0  0  0  0  0  0  0  0  0  0
  1  4  2  0  0  0  0
  1  5  2  0  0  0  0
  1  7  1  0  0  0  0
  1 16  1  0  0  0  0
  2 31  1  0  0  0  0
  3 15  1  0  0  0  0
  3 19  1  0  0  0  0
  6 11  1  0  0  0  0
  6 12  1  0  0  0  0
  6 13  1  0  0  0  0
  7  8  1  0  0  0  0
  7 14  1  0  0  0  0
  8  9  1  0  0  0  0
  8 10  1  0  0  0  0
  8 32  1  0  0  0  0
  9 11  1  0  0  0  0
  9 33  1  0  0  0  0
  9 34  1  0  0  0  0
 10 12  1  0  0  0  0
 10 35  1  0  0  0  0
 10 36  1  0  0  0  0
 11 37  1  0  0  0  0
 11 38  1  0  0  0  0
 12 39  1  0  0  0  0
 12 40  1  0  0  0  0
 13 15  1  0  0  0  0
 13 41  1  0  0  0  0
 13 42  1  0  0  0  0
 14 43  1  0  0  0  0
 14 44  1  0  0  0  0
 14 45  1  0  0  0  0
 15 46  1  0  0  0  0
 15 47  1  0  0  0  0
 16 20  2  0  0  0  0
 16 21  1  0  0  0  0
 17 18  1  0  0  0  0
 17 22  1  0  0  0  0
 17 23  1  0  0  0  0
 17 24  1  0  0  0  0
 18 19  1  0  0  0  0
 18 25  2  0  0  0  0
 19 26  2  0  0  0  0
 20 27  1  0  0  0  0
 20 48  1  0  0  0  0
 21 28  2  0  0  0  0
 21 49  1  0  0  0  0
 22 50  1  0  0  0  0
 22 51  1  0  0  0  0
 22 52  1  0  0  0  0
 23 53  1  0  0  0  0
 23 54  1  0  0  0  0
 23 55  1  0  0  0  0
 24 56  1  0  0  0  0
 24 57  1  0  0  0  0
 24 58  1  0  0  0  0
 25 29  1  0  0  0  0
 25 59  1  0  0  0  0
 26 30  1  0  0  0  0
 26 60  1  0  0  0  0
 27 31  2  0  0  0  0
 27 61  1  0  0  0  0
 28 31  1  0  0  0  0
 28 62  1  0  0  0  0
 29 30  2  0  0  0  0
 29 63  1  0  0  0  0
 30 64  1  0  0  0  0
M  END
> <PUBCHEM_COMPOUND_CID>
127041563

> <PUBCHEM_COMPOUND_CANONICALIZED>
1

> <PUBCHEM_CACTVS_COMPLEXITY>
645

> <PUBCHEM_CACTVS_HBOND_ACCEPTOR>
6

> <PUBCHEM_CACTVS_HBOND_DONOR>
0

> <PUBCHEM_CACTVS_ROTATABLE_BOND>
8

> <PUBCHEM_CACTVS_SUBSKEYS>
AAADcfB7MQBAAAAAAAAAAAAAAAAAAAAAAAA8YIAAAAAAAAABQAAAHwQAQAAADizh2A4yB4MABAKAAiBCAHBCCBAgIAAIiBgOCIgOJiKE8RqHOCCkwBGYqAeQwOAPgAAAAAAIAAAAAAAAABAAAAAAAAAAAA==

> <PUBCHEM_IUPAC_OPENEYE_NAME>
N-[1-[2-(2-tert-butylphenoxy)ethyl]-4-piperidyl]-4-fluoro-N-methyl-benzenesulfonamide

> <PUBCHEM_IUPAC_CAS_NAME>
N-[1-[2-(2-tert-butylphenoxy)ethyl]-4-piperidinyl]-4-fluoro-N-methylbenzenesulfonamide

> <PUBCHEM_IUPAC_NAME_MARKUP>
<I>N</I>-[1-[2-(2-<I>tert</I>-butylphenoxy)ethyl]piperidin-4-yl]-4-fluoro-<I>N</I>-methylbenzenesulfonamide

> <PUBCHEM_IUPAC_NAME>
N-[1-[2-(2-tert-butylphenoxy)ethyl]piperidin-4-yl]-4-fluoro-N-methylbenzenesulfonamide

> <PUBCHEM_IUPAC_SYSTEMATIC_NAME>
N-[1-[2-(2-tert-butylphenoxy)ethyl]piperidin-4-yl]-4-fluoranyl-N-methyl-benzenesulfonamide

> <PUBCHEM_IUPAC_TRADITIONAL_NAME>
N-[1-[2-(2-tert-butylphenoxy)ethyl]-4-piperidyl]-4-fluoro-N-methyl-benzenesulfonamide

> <PUBCHEM_IUPAC_INCHI>
InChI=1S/C24H33FN2O3S/c1-24(2,3)22-7-5-6-8-23(22)30-18-17-27-15-13-20(14-16-27)26(4)31(28,29)21-11-9-19(25)10-12-21/h5-12,20H,13-18H2,1-4H3

> <PUBCHEM_IUPAC_INCHIKEY>
APKDIQSHDGVEMU-UHFFFAOYSA-N

> <PUBCHEM_XLOGP3_AA>
5.1

> <PUBCHEM_EXACT_MASS>
448.21959225

> <PUBCHEM_MOLECULAR_FORMULA>
C24H33FN2O3S

> <PUBCHEM_MOLECULAR_WEIGHT>
448.6

> <PUBCHEM_OPENEYE_CAN_SMILES>
CC(C)(C)C1=CC=CC=C1OCCN2CCC(CC2)N(C)S(=O)(=O)C3=CC=C(C=C3)F

> <PUBCHEM_OPENEYE_ISO_SMILES>
CC(C)(C)C1=CC=CC=C1OCCN2CCC(CC2)N(C)S(=O)(=O)C3=CC=C(C=C3)F

> <PUBCHEM_CACTVS_TPSA>
58.2

> <PUBCHEM_MONOISOTOPIC_WEIGHT>
448.21959225

> <PUBCHEM_TOTAL_CHARGE>
0

> <PUBCHEM_HEAVY_ATOM_COUNT>
31

> <PUBCHEM_ATOM_DEF_STEREO_COUNT>
0

> <PUBCHEM_ATOM_UDEF_STEREO_COUNT>
0

> <PUBCHEM_BOND_DEF_STEREO_COUNT>
0

> <PUBCHEM_BOND_UDEF_STEREO_COUNT>
0

> <PUBCHEM_ISOTOPIC_ATOM_COUNT>
0

> <PUBCHEM_COMPONENT_COUNT>
1

> <PUBCHEM_CACTVS_TAUTO_COUNT>
-1

> <PUBCHEM_COORDINATE_TYPE>
1
5
255

> <PUBCHEM_BONDANNOTATIONS>
16  20  8
16  21  8
18  19  8
18  25  8
19  26  8
20  27  8
21  28  8
25  29  8
26  30  8
27  31  8
28  31  8
29  30  8

$$$$
