164613322
  -OEChem-09292322432D

 57 60  0     1  0  0  0  0  0999 V2000
    7.1264    4.0321    0.0000 O   0  0  0  0  0  0  0  0  0  0  0  0
    9.7524    2.4975    0.0000 O   0  0  0  0  0  0  0  0  0  0  0  0
    3.7088   -2.0770    0.0000 O   0  0  0  0  0  0  0  0  0  0  0  0
    2.8602   -3.5869    0.0000 O   0  0  0  0  0  0  0  0  0  0  0  0
    7.1264    1.9628    0.0000 N   0  0  3  0  0  0  0  0  0  0  0  0
    5.4407   -2.0570    0.0000 N   0  0  0  0  0  0  0  0  0  0  0  0
    8.0204    2.4975    0.0000 C   0  0  1  0  0  0  0  0  0  0  0  0
    8.0204    3.4975    0.0000 C   0  0  1  0  0  0  0  0  0  0  0  0
    6.2204    2.4767    0.0000 C   0  0  0  0  0  0  0  0  0  0  0  0
    8.8864    1.9975    0.0000 C   0  0  0  0  0  0  0  0  0  0  0  0
    7.1380    0.9629    0.0000 C   0  0  0  0  0  0  0  0  0  0  0  0
    8.8864    3.9975    0.0000 C   0  0  0  0  0  0  0  0  0  0  0  0
    6.2204    3.5183    0.0000 C   0  0  0  0  0  0  0  0  0  0  0  0
    6.2778    0.4529    0.0000 C   0  0  0  0  0  0  0  0  0  0  0  0
    9.7524    3.4975    0.0000 C   0  0  0  0  0  0  0  0  0  0  0  0
    6.2894   -0.5470    0.0000 C   0  0  0  0  0  0  0  0  0  0  0  0
    8.8703    5.0390    0.0000 C   0  0  0  0  0  0  0  0  0  0  0  0
   10.6624    4.0043    0.0000 C   0  0  0  0  0  0  0  0  0  0  0  0
    5.4292   -1.0570    0.0000 C   0  0  0  0  0  0  0  0  0  0  0  0
    9.7684    5.5667    0.0000 C   0  0  0  0  0  0  0  0  0  0  0  0
   10.6704    5.0459    0.0000 C   0  0  0  0  0  0  0  0  0  0  0  0
    4.5806   -2.5669    0.0000 C   0  0  0  0  0  0  0  0  0  0  0  0
    4.5921   -3.5669    0.0000 C   0  0  0  0  0  0  0  0  0  0  0  0
    3.7319   -4.0768    0.0000 C   0  0  0  0  0  0  0  0  0  0  0  0
    5.4639   -4.0568    0.0000 C   0  0  0  0  0  0  0  0  0  0  0  0
    3.7435   -5.0768    0.0000 C   0  0  0  0  0  0  0  0  0  0  0  0
    5.4754   -5.0568    0.0000 C   0  0  0  0  0  0  0  0  0  0  0  0
    4.6152   -5.5667    0.0000 C   0  0  0  0  0  0  0  0  0  0  0  0
    2.0000   -4.0969    0.0000 C   0  0  0  0  0  0  0  0  0  0  0  0
    8.0269    1.6475    0.0000 H   0  0  0  0  0  0  0  0  0  0  0  0
    8.0269    4.3474    0.0000 H   0  0  0  0  0  0  0  0  0  0  0  0
    5.6095    2.5828    0.0000 H   0  0  0  0  0  0  0  0  0  0  0  0
    6.0113    1.8930    0.0000 H   0  0  0  0  0  0  0  0  0  0  0  0
    8.4879    1.5225    0.0000 H   0  0  0  0  0  0  0  0  0  0  0  0
    9.2849    1.5225    0.0000 H   0  0  0  0  0  0  0  0  0  0  0  0
    7.3568    0.3828    0.0000 H   0  0  0  0  0  0  0  0  0  0  0  0
    7.7473    1.0776    0.0000 H   0  0  0  0  0  0  0  0  0  0  0  0
    6.0113    4.1020    0.0000 H   0  0  0  0  0  0  0  0  0  0  0  0
    5.6095    3.4122    0.0000 H   0  0  0  0  0  0  0  0  0  0  0  0
    6.0590    1.0330    0.0000 H   0  0  0  0  0  0  0  0  0  0  0  0
    5.6685    0.3382    0.0000 H   0  0  0  0  0  0  0  0  0  0  0  0
    6.5081   -1.1272    0.0000 H   0  0  0  0  0  0  0  0  0  0  0  0
    6.8987   -0.4323    0.0000 H   0  0  0  0  0  0  0  0  0  0  0  0
    8.3298    5.3428    0.0000 H   0  0  0  0  0  0  0  0  0  0  0  0
   11.1957    3.6881    0.0000 H   0  0  0  0  0  0  0  0  0  0  0  0
    5.2104   -0.4769    0.0000 H   0  0  0  0  0  0  0  0  0  0  0  0
    4.8199   -1.1717    0.0000 H   0  0  0  0  0  0  0  0  0  0  0  0
    9.7660    6.1867    0.0000 H   0  0  0  0  0  0  0  0  0  0  0  0
   11.2086    5.3538    0.0000 H   0  0  0  0  0  0  0  0  0  0  0  0
    5.9812   -2.3607    0.0000 H   0  0  0  0  0  0  0  0  0  0  0  0
    5.9972   -3.7406    0.0000 H   0  0  0  0  0  0  0  0  0  0  0  0
    3.2102   -5.3930    0.0000 H   0  0  0  0  0  0  0  0  0  0  0  0
    6.0159   -5.3605    0.0000 H   0  0  0  0  0  0  0  0  0  0  0  0
    4.6224   -6.1867    0.0000 H   0  0  0  0  0  0  0  0  0  0  0  0
    1.6838   -3.5636    0.0000 H   0  0  0  0  0  0  0  0  0  0  0  0
    1.4667   -4.4131    0.0000 H   0  0  0  0  0  0  0  0  0  0  0  0
    2.3162   -4.6302    0.0000 H   0  0  0  0  0  0  0  0  0  0  0  0
  1  8  1  0  0  0  0
  1 13  1  0  0  0  0
  2 10  1  0  0  0  0
  2 15  1  0  0  0  0
  3 22  2  0  0  0  0
  4 24  1  0  0  0  0
  4 29  1  0  0  0  0
  5  7  1  0  0  0  0
  5  9  1  0  0  0  0
  5 11  1  0  0  0  0
  6 19  1  0  0  0  0
  6 22  1  0  0  0  0
  6 50  1  0  0  0  0
  7  8  1  0  0  0  0
  7 10  1  0  0  0  0
  7 30  1  6  0  0  0
  8 12  1  0  0  0  0
  8 31  1  1  0  0  0
  9 13  1  0  0  0  0
  9 32  1  0  0  0  0
  9 33  1  0  0  0  0
 10 34  1  0  0  0  0
 10 35  1  0  0  0  0
 11 14  1  0  0  0  0
 11 36  1  0  0  0  0
 11 37  1  0  0  0  0
 12 15  1  0  0  0  0
 12 17  2  0  0  0  0
 13 38  1  0  0  0  0
 13 39  1  0  0  0  0
 14 16  1  0  0  0  0
 14 40  1  0  0  0  0
 14 41  1  0  0  0  0
 15 18  2  0  0  0  0
 16 19  1  0  0  0  0
 16 42  1  0  0  0  0
 16 43  1  0  0  0  0
 17 20  1  0  0  0  0
 17 44  1  0  0  0  0
 18 21  1  0  0  0  0
 18 45  1  0  0  0  0
 19 46  1  0  0  0  0
 19 47  1  0  0  0  0
 20 21  2  0  0  0  0
 20 48  1  0  0  0  0
 21 49  1  0  0  0  0
 22 23  1  0  0  0  0
 23 24  1  0  0  0  0
 23 25  2  0  0  0  0
 24 26  2  0  0  0  0
 25 27  1  0  0  0  0
 25 51  1  0  0  0  0
 26 28  1  0  0  0  0
 26 52  1  0  0  0  0
 27 28  2  0  0  0  0
 27 53  1  0  0  0  0
 28 54  1  0  0  0  0
 29 55  1  0  0  0  0
 29 56  1  0  0  0  0
 29 57  1  0  0  0  0
M  END
> <PUBCHEM_COMPOUND_CID>
164613322

> <PUBCHEM_COMPOUND_CANONICALIZED>
1

> <PUBCHEM_CACTVS_COMPLEXITY>
531

> <PUBCHEM_CACTVS_HBOND_ACCEPTOR>
5

> <PUBCHEM_CACTVS_HBOND_DONOR>
1

> <PUBCHEM_CACTVS_ROTATABLE_BOND>
7

> <PUBCHEM_CACTVS_SUBSKEYS>
AAADceB7OAAAAAAAAAAAAAAAAAAAAAAAAAA8aIEAAAAAAACxQAAAHgAQAAAADDzhmAYyBoPABACIAiFSEACCCAAkIAAIiIEODMgOJzaEtRuHOWjn9hGYqYe4yKCOAAAAAAAIAAAAAAAAABAAAAAAAAAAAA==

> <PUBCHEM_IUPAC_OPENEYE_NAME>
N-[4-[(4aR,10bR)-3,4a,5,10b-tetrahydro-2H-chromeno[4,3-b][1,4]oxazin-4-yl]butyl]-2-methoxy-benzamide

> <PUBCHEM_IUPAC_CAS_NAME>
N-[4-[(4aR,10bR)-3,4a,5,10b-tetrahydro-2H-[1]benzopyrano[4,3-b][1,4]oxazin-4-yl]butyl]-2-methoxybenzamide

> <PUBCHEM_IUPAC_NAME_MARKUP>
<I>N</I>-[4-[(4<I>a</I><I>R</I>,10<I>b</I><I>R</I>)-3,4<I>a</I>,5,10<I>b</I>-tetrahydro-2<I>H</I>-chromeno[4,3-b][1,4]oxazin-4-yl]butyl]-2-methoxybenzamide

> <PUBCHEM_IUPAC_NAME>
N-[4-[(4aR,10bR)-3,4a,5,10b-tetrahydro-2H-chromeno[4,3-b][1,4]oxazin-4-yl]butyl]-2-methoxybenzamide

> <PUBCHEM_IUPAC_SYSTEMATIC_NAME>
N-[4-[(4aR,10bR)-3,4a,5,10b-tetrahydro-2H-chromeno[4,3-b][1,4]oxazin-4-yl]butyl]-2-methoxy-benzamide

> <PUBCHEM_IUPAC_TRADITIONAL_NAME>
N-[4-[(4aR,10bR)-3,4a,5,10b-tetrahydro-2H-chromeno[4,3-b][1,4]oxazin-4-yl]butyl]-2-methoxy-benzamide

> <PUBCHEM_IUPAC_INCHI>
InChI=1S/C23H28N2O4/c1-27-20-10-4-3-9-18(20)23(26)24-12-6-7-13-25-14-15-28-22-17-8-2-5-11-21(17)29-16-19(22)25/h2-5,8-11,19,22H,6-7,12-16H2,1H3,(H,24,26)/t19-,22-/m1/s1

> <PUBCHEM_IUPAC_INCHIKEY>
SOKNKUMZPAEZEA-DENIHFKCSA-N

> <PUBCHEM_XLOGP3>
3.1

> <PUBCHEM_EXACT_MASS>
396.20490738

> <PUBCHEM_MOLECULAR_FORMULA>
C23H28N2O4

> <PUBCHEM_MOLECULAR_WEIGHT>
396.5

> <PUBCHEM_OPENEYE_CAN_SMILES>
COC1=CC=CC=C1C(=O)NCCCCN2CCOC3C2COC4=CC=CC=C34

> <PUBCHEM_OPENEYE_ISO_SMILES>
COC1=CC=CC=C1C(=O)NCCCCN2CCO[C@H]3[C@H]2COC4=CC=CC=C34

> <PUBCHEM_CACTVS_TPSA>
60

> <PUBCHEM_MONOISOTOPIC_WEIGHT>
396.20490738

> <PUBCHEM_TOTAL_CHARGE>
0

> <PUBCHEM_HEAVY_ATOM_COUNT>
29

> <PUBCHEM_ATOM_DEF_STEREO_COUNT>
2

> <PUBCHEM_ATOM_UDEF_STEREO_COUNT>
0

> <PUBCHEM_BOND_DEF_STEREO_COUNT>
0

> <PUBCHEM_BOND_UDEF_STEREO_COUNT>
0

> <PUBCHEM_ISOTOPIC_ATOM_COUNT>
0

> <PUBCHEM_COMPONENT_COUNT>
1

> <PUBCHEM_CACTVS_TAUTO_COUNT>
-1

> <PUBCHEM_COORDINATE_TYPE>
1
5
255

> <PUBCHEM_BONDANNOTATIONS>
12  15  8
12  17  8
15  18  8
17  20  8
18  21  8
20  21  8
23  24  8
23  25  8
24  26  8
25  27  8
26  28  8
27  28  8
7  30  6
8  31  5

$$$$
