164623294
  -OEChem-09292322442D

 60 63  0     1  0  0  0  0  0999 V2000
    2.0000    3.5221    0.0000 O   0  0  0  0  0  0  0  0  0  0  0  0
    2.0000    1.5221    0.0000 O   0  0  0  0  0  0  0  0  0  0  0  0
    8.9826   -1.5087    0.0000 O   0  0  0  0  0  0  0  0  0  0  0  0
   11.5711   -4.0187    0.0000 O   0  0  0  0  0  0  0  0  0  0  0  0
    6.3981    2.0013    0.0000 N   0  0  3  0  0  0  0  0  0  0  0  0
    9.8544   -0.0121    0.0000 N   0  0  0  0  0  0  0  0  0  0  0  0
    6.3981    3.0429    0.0000 C   0  0  0  0  0  0  0  0  0  0  0  0
    5.4920    1.4874    0.0000 C   0  0  0  0  0  0  0  0  0  0  0  0
    5.4920    3.5567    0.0000 C   0  0  0  0  0  0  0  0  0  0  0  0
    4.5981    2.0221    0.0000 C   0  0  0  0  0  0  0  0  0  0  0  0
    4.5981    3.0221    0.0000 C   0  0  0  0  0  0  0  0  0  0  0  0
    7.2622    1.4979    0.0000 C   0  0  0  0  0  0  0  0  0  0  0  0
    8.1301    1.9946    0.0000 C   0  0  0  0  0  0  0  0  0  0  0  0
    3.7320    3.5221    0.0000 C   0  0  0  0  0  0  0  0  0  0  0  0
    3.7320    1.5221    0.0000 C   0  0  0  0  0  0  0  0  0  0  0  0
    8.9942    1.4912    0.0000 C   0  0  0  0  0  0  0  0  0  0  0  0
    2.8660    3.0221    0.0000 C   0  0  0  0  0  0  0  0  0  0  0  0
    2.8660    2.0221    0.0000 C   0  0  0  0  0  0  0  0  0  0  0  0
    8.1340    2.9946    0.0000 C   0  0  0  0  0  0  0  0  0  0  0  0
    8.9904    0.4912    0.0000 C   0  0  0  0  0  0  0  0  0  0  0  0
    9.8622    1.9879    0.0000 C   0  0  0  0  0  0  0  0  0  0  0  0
    9.0019    3.4912    0.0000 C   0  0  0  0  0  0  0  0  0  0  0  0
    9.8660    2.9879    0.0000 C   0  0  0  0  0  0  0  0  0  0  0  0
    2.0000    4.5221    0.0000 C   0  0  0  0  0  0  0  0  0  0  0  0
    9.8506   -1.0121    0.0000 C   0  0  0  0  0  0  0  0  0  0  0  0
   10.7147   -1.5154    0.0000 C   0  0  0  0  0  0  0  0  0  0  0  0
   10.7108   -2.5154    0.0000 C   0  0  0  0  0  0  0  0  0  0  0  0
   11.5826   -1.0188    0.0000 C   0  0  0  0  0  0  0  0  0  0  0  0
   11.5749   -3.0187    0.0000 C   0  0  0  0  0  0  0  0  0  0  0  0
   12.4467   -1.5221    0.0000 C   0  0  0  0  0  0  0  0  0  0  0  0
   12.4429   -2.5221    0.0000 C   0  0  0  0  0  0  0  0  0  0  0  0
   12.4352   -4.5221    0.0000 C   0  0  0  0  0  0  0  0  0  0  0  0
    7.0089    2.9368    0.0000 H   0  0  0  0  0  0  0  0  0  0  0  0
    6.6071    3.6266    0.0000 H   0  0  0  0  0  0  0  0  0  0  0  0
    5.0874    1.0176    0.0000 H   0  0  0  0  0  0  0  0  0  0  0  0
    5.8856    1.0084    0.0000 H   0  0  0  0  0  0  0  0  0  0  0  0
    5.8856    4.0358    0.0000 H   0  0  0  0  0  0  0  0  0  0  0  0
    5.0874    4.0265    0.0000 H   0  0  0  0  0  0  0  0  0  0  0  0
    6.8618    1.0245    0.0000 H   0  0  0  0  0  0  0  0  0  0  0  0
    7.6589    1.0214    0.0000 H   0  0  0  0  0  0  0  0  0  0  0  0
    3.7320    4.1421    0.0000 H   0  0  0  0  0  0  0  0  0  0  0  0
    3.7320    0.9021    0.0000 H   0  0  0  0  0  0  0  0  0  0  0  0
    7.5982    3.3066    0.0000 H   0  0  0  0  0  0  0  0  0  0  0  0
    8.3802    0.6013    0.0000 H   0  0  0  0  0  0  0  0  0  0  0  0
    8.7761   -0.0905    0.0000 H   0  0  0  0  0  0  0  0  0  0  0  0
   10.3979    1.6758    0.0000 H   0  0  0  0  0  0  0  0  0  0  0  0
    9.0043    4.1112    0.0000 H   0  0  0  0  0  0  0  0  0  0  0  0
   10.4041    3.2958    0.0000 H   0  0  0  0  0  0  0  0  0  0  0  0
   10.3926    0.2958    0.0000 H   0  0  0  0  0  0  0  0  0  0  0  0
    2.0000    0.9021    0.0000 H   0  0  0  0  0  0  0  0  0  0  0  0
    2.6200    4.5221    0.0000 H   0  0  0  0  0  0  0  0  0  0  0  0
    2.0000    5.1421    0.0000 H   0  0  0  0  0  0  0  0  0  0  0  0
    1.3800    4.5221    0.0000 H   0  0  0  0  0  0  0  0  0  0  0  0
   10.1727   -2.8233    0.0000 H   0  0  0  0  0  0  0  0  0  0  0  0
   11.5850   -0.3988    0.0000 H   0  0  0  0  0  0  0  0  0  0  0  0
   12.9849   -1.2142    0.0000 H   0  0  0  0  0  0  0  0  0  0  0  0
   12.9786   -2.8342    0.0000 H   0  0  0  0  0  0  0  0  0  0  0  0
   12.1231   -5.0578    0.0000 H   0  0  0  0  0  0  0  0  0  0  0  0
   12.9709   -4.8341    0.0000 H   0  0  0  0  0  0  0  0  0  0  0  0
   12.7472   -3.9863    0.0000 H   0  0  0  0  0  0  0  0  0  0  0  0
  1 17  1  0  0  0  0
  1 24  1  0  0  0  0
  2 18  1  0  0  0  0
  2 50  1  0  0  0  0
  3 25  2  0  0  0  0
  4 29  1  0  0  0  0
  4 32  1  0  0  0  0
  5  7  1  0  0  0  0
  5  8  1  0  0  0  0
  5 12  1  0  0  0  0
  6 20  1  0  0  0  0
  6 25  1  0  0  0  0
  6 49  1  0  0  0  0
  7  9  1  0  0  0  0
  7 33  1  0  0  0  0
  7 34  1  0  0  0  0
  8 10  1  0  0  0  0
  8 35  1  0  0  0  0
  8 36  1  0  0  0  0
  9 11  1  0  0  0  0
  9 37  1  0  0  0  0
  9 38  1  0  0  0  0
 10 11  1  0  0  0  0
 10 15  2  0  0  0  0
 11 14  2  0  0  0  0
 12 13  1  0  0  0  0
 12 39  1  0  0  0  0
 12 40  1  0  0  0  0
 13 16  1  0  0  0  0
 13 19  2  0  0  0  0
 14 17  1  0  0  0  0
 14 41  1  0  0  0  0
 15 18  1  0  0  0  0
 15 42  1  0  0  0  0
 16 20  1  0  0  0  0
 16 21  2  0  0  0  0
 17 18  2  0  0  0  0
 19 22  1  0  0  0  0
 19 43  1  0  0  0  0
 20 44  1  0  0  0  0
 20 45  1  0  0  0  0
 21 23  1  0  0  0  0
 21 46  1  0  0  0  0
 22 23  2  0  0  0  0
 22 47  1  0  0  0  0
 23 48  1  0  0  0  0
 24 51  1  0  0  0  0
 24 52  1  0  0  0  0
 24 53  1  0  0  0  0
 25 26  1  0  0  0  0
 26 27  2  0  0  0  0
 26 28  1  0  0  0  0
 27 29  1  0  0  0  0
 27 54  1  0  0  0  0
 28 30  2  0  0  0  0
 28 55  1  0  0  0  0
 29 31  2  0  0  0  0
 30 31  1  0  0  0  0
 30 56  1  0  0  0  0
 31 57  1  0  0  0  0
 32 58  1  0  0  0  0
 32 59  1  0  0  0  0
 32 60  1  0  0  0  0
M  END
> <PUBCHEM_COMPOUND_CID>
164623294

> <PUBCHEM_COMPOUND_CANONICALIZED>
1

> <PUBCHEM_CACTVS_COMPLEXITY>
602

> <PUBCHEM_CACTVS_HBOND_ACCEPTOR>
5

> <PUBCHEM_CACTVS_HBOND_DONOR>
2

> <PUBCHEM_CACTVS_ROTATABLE_BOND>
7

> <PUBCHEM_CACTVS_SUBSKEYS>
AAADceB7OAAAAAAAAAAAAAAAAAAAAAAAAAA8YMEAAAAAAACxUAAAHgAQCAAADATBmAYyBoPABgCIAiFSEACCCAAkIAAIiIEOjMgNJjKGtRuEcStkxhGLuYe62LKOoAABAAAQQABAAAIAACCAAAAAAAAAAA==

> <PUBCHEM_IUPAC_OPENEYE_NAME>
N-[[2-[(7-hydroxy-6-methoxy-3,4-dihydro-1H-isoquinolin-2-yl)methyl]phenyl]methyl]-3-methoxy-benzamide

> <PUBCHEM_IUPAC_CAS_NAME>
N-[[2-[(7-hydroxy-6-methoxy-3,4-dihydro-1H-isoquinolin-2-yl)methyl]phenyl]methyl]-3-methoxybenzamide

> <PUBCHEM_IUPAC_NAME_MARKUP>
<I>N</I>-[[2-[(7-hydroxy-6-methoxy-3,4-dihydro-1<I>H</I>-isoquinolin-2-yl)methyl]phenyl]methyl]-3-methoxybenzamide

> <PUBCHEM_IUPAC_NAME>
N-[[2-[(7-hydroxy-6-methoxy-3,4-dihydro-1H-isoquinolin-2-yl)methyl]phenyl]methyl]-3-methoxybenzamide

> <PUBCHEM_IUPAC_SYSTEMATIC_NAME>
3-methoxy-N-[[2-[(6-methoxy-7-oxidanyl-3,4-dihydro-1H-isoquinolin-2-yl)methyl]phenyl]methyl]benzamide

> <PUBCHEM_IUPAC_TRADITIONAL_NAME>
N-[2-[(7-hydroxy-6-methoxy-3,4-dihydro-1H-isoquinolin-2-yl)methyl]benzyl]-3-methoxy-benzamide

> <PUBCHEM_IUPAC_INCHI>
InChI=1S/C26H28N2O4/c1-31-23-9-5-8-19(12-23)26(30)27-15-20-6-3-4-7-21(20)16-28-11-10-18-14-25(32-2)24(29)13-22(18)17-28/h3-9,12-14,29H,10-11,15-17H2,1-2H3,(H,27,30)

> <PUBCHEM_IUPAC_INCHIKEY>
QHGCDJHEAXDUFX-UHFFFAOYSA-N

> <PUBCHEM_XLOGP3_AA>
3.6

> <PUBCHEM_EXACT_MASS>
432.20490738

> <PUBCHEM_MOLECULAR_FORMULA>
C26H28N2O4

> <PUBCHEM_MOLECULAR_WEIGHT>
432.5

> <PUBCHEM_OPENEYE_CAN_SMILES>
COC1=CC=CC(=C1)C(=O)NCC2=CC=CC=C2CN3CCC4=CC(=C(C=C4C3)O)OC

> <PUBCHEM_OPENEYE_ISO_SMILES>
COC1=CC=CC(=C1)C(=O)NCC2=CC=CC=C2CN3CCC4=CC(=C(C=C4C3)O)OC

> <PUBCHEM_CACTVS_TPSA>
71

> <PUBCHEM_MONOISOTOPIC_WEIGHT>
432.20490738

> <PUBCHEM_TOTAL_CHARGE>
0

> <PUBCHEM_HEAVY_ATOM_COUNT>
32

> <PUBCHEM_ATOM_DEF_STEREO_COUNT>
0

> <PUBCHEM_ATOM_UDEF_STEREO_COUNT>
0

> <PUBCHEM_BOND_DEF_STEREO_COUNT>
0

> <PUBCHEM_BOND_UDEF_STEREO_COUNT>
0

> <PUBCHEM_ISOTOPIC_ATOM_COUNT>
0

> <PUBCHEM_COMPONENT_COUNT>
1

> <PUBCHEM_CACTVS_TAUTO_COUNT>
-1

> <PUBCHEM_COORDINATE_TYPE>
1
5
255

> <PUBCHEM_BONDANNOTATIONS>
10  11  8
10  15  8
11  14  8
13  16  8
13  19  8
14  17  8
15  18  8
16  21  8
17  18  8
19  22  8
21  23  8
22  23  8
26  27  8
26  28  8
27  29  8
28  30  8
29  31  8
30  31  8

$$$$
