44454403
  -OEChem-09292322492D

 61 66  0     1  0  0  0  0  0999 V2000
    9.0723    2.4236    0.0000 S   0  0  0  0  0  0  0  0  0  0  0  0
    4.3548   -3.8927    0.0000 O   0  0  0  0  0  0  0  0  0  0  0  0
   11.8961    5.7572    0.0000 O   0  0  0  0  0  0  0  0  0  0  0  0
    6.0723    0.6916    0.0000 N   0  0  3  0  0  0  0  0  0  0  0  0
    2.9609   -3.0880    0.0000 N   0  0  0  0  0  0  0  0  0  0  0  0
   10.5668    3.3942    0.0000 N   0  0  0  0  0  0  0  0  0  0  0  0
    9.1655    4.2032    0.0000 N   0  0  0  0  0  0  0  0  0  0  0  0
    9.9087    4.8724    0.0000 N   0  0  0  0  0  0  0  0  0  0  0  0
   13.2974    4.9482    0.0000 N   0  0  0  0  0  0  0  0  0  0  0  0
    2.8660   -4.8618    0.0000 C   0  0  0  0  0  0  0  0  0  0  0  0
    2.8660   -5.8618    0.0000 C   0  0  0  0  0  0  0  0  0  0  0  0
    2.0000   -5.3618    0.0000 C   0  0  0  0  0  0  0  0  0  0  0  0
    3.3660   -3.9957    0.0000 C   0  0  0  0  0  0  0  0  0  0  0  0
    5.4300   -1.4209    0.0000 C   0  0  0  0  0  0  0  0  0  0  0  0
    4.5640   -0.9209    0.0000 C   0  0  0  0  0  0  0  0  0  0  0  0
    4.5640   -2.9209    0.0000 C   0  0  0  0  0  0  0  0  0  0  0  0
    3.6979   -2.4209    0.0000 C   0  0  0  0  0  0  0  0  0  0  0  0
    6.3405   -1.0564    0.0000 C   0  0  0  0  0  0  0  0  0  0  0  0
    4.4243    0.0499    0.0000 C   0  0  0  0  0  0  0  0  0  0  0  0
    6.6258   -0.1180    0.0000 C   0  0  0  0  0  0  0  0  0  0  0  0
    5.0943    0.7662    0.0000 C   0  0  0  0  0  0  0  0  0  0  0  0
    5.4300   -2.4209    0.0000 C   0  0  0  0  0  0  0  0  0  0  0  0
    3.6979   -1.4209    0.0000 C   0  0  0  0  0  0  0  0  0  0  0  0
    6.5723    1.5576    0.0000 C   0  0  0  0  0  0  0  0  0  0  0  0
    7.5723    1.5576    0.0000 C   0  0  0  0  0  0  0  0  0  0  0  0
    8.0723    2.4236    0.0000 C   0  0  0  0  0  0  0  0  0  0  0  0
    9.5723    3.2897    0.0000 C   0  0  0  0  0  0  0  0  0  0  0  0
   10.7747    4.3724    0.0000 C   0  0  0  0  0  0  0  0  0  0  0  0
   11.2359    2.6511    0.0000 C   0  0  0  0  0  0  0  0  0  0  0  0
   11.6882    4.7791    0.0000 C   0  0  0  0  0  0  0  0  0  0  0  0
   12.5543    4.2791    0.0000 C   0  0  0  0  0  0  0  0  0  0  0  0
   12.6588    3.2846    0.0000 C   0  0  0  0  0  0  0  0  0  0  0  0
   12.8907    5.8618    0.0000 C   0  0  0  0  0  0  0  0  0  0  0  0
    3.4649   -5.0222    0.0000 H   0  0  0  0  0  0  0  0  0  0  0  0
    2.6540   -6.4444    0.0000 H   0  0  0  0  0  0  0  0  0  0  0  0
    3.4766   -5.9694    0.0000 H   0  0  0  0  0  0  0  0  0  0  0  0
    1.6015   -4.8868    0.0000 H   0  0  0  0  0  0  0  0  0  0  0  0
    1.6015   -5.8367    0.0000 H   0  0  0  0  0  0  0  0  0  0  0  0
    6.4365   -1.6689    0.0000 H   0  0  0  0  0  0  0  0  0  0  0  0
    6.9590   -1.0997    0.0000 H   0  0  0  0  0  0  0  0  0  0  0  0
    4.0776    0.5639    0.0000 H   0  0  0  0  0  0  0  0  0  0  0  0
    3.8458   -0.1732    0.0000 H   0  0  0  0  0  0  0  0  0  0  0  0
    7.1638   -0.4263    0.0000 H   0  0  0  0  0  0  0  0  0  0  0  0
    7.0465    0.3374    0.0000 H   0  0  0  0  0  0  0  0  0  0  0  0
    5.2784    1.3582    0.0000 H   0  0  0  0  0  0  0  0  0  0  0  0
    4.5584    1.0779    0.0000 H   0  0  0  0  0  0  0  0  0  0  0  0
    5.9669   -2.7309    0.0000 H   0  0  0  0  0  0  0  0  0  0  0  0
    3.1610   -1.1109    0.0000 H   0  0  0  0  0  0  0  0  0  0  0  0
    6.6799    2.1682    0.0000 H   0  0  0  0  0  0  0  0  0  0  0  0
    5.9896    1.7697    0.0000 H   0  0  0  0  0  0  0  0  0  0  0  0
    7.4646    0.9470    0.0000 H   0  0  0  0  0  0  0  0  0  0  0  0
    8.1549    1.3456    0.0000 H   0  0  0  0  0  0  0  0  0  0  0  0
    8.1799    3.0342    0.0000 H   0  0  0  0  0  0  0  0  0  0  0  0
    7.4896    2.6357    0.0000 H   0  0  0  0  0  0  0  0  0  0  0  0
   10.7752    2.2362    0.0000 H   0  0  0  0  0  0  0  0  0  0  0  0
   11.6508    2.1903    0.0000 H   0  0  0  0  0  0  0  0  0  0  0  0
   11.6967    3.0659    0.0000 H   0  0  0  0  0  0  0  0  0  0  0  0
   12.0422    3.2198    0.0000 H   0  0  0  0  0  0  0  0  0  0  0  0
   12.7236    2.6680    0.0000 H   0  0  0  0  0  0  0  0  0  0  0  0
   13.2754    3.3494    0.0000 H   0  0  0  0  0  0  0  0  0  0  0  0
   13.2007    6.3987    0.0000 H   0  0  0  0  0  0  0  0  0  0  0  0
  1 26  1  0  0  0  0
  1 27  1  0  0  0  0
  2 13  1  0  0  0  0
  2 16  1  0  0  0  0
  3 30  1  0  0  0  0
  3 33  1  0  0  0  0
  4 20  1  0  0  0  0
  4 21  1  0  0  0  0
  4 24  1  0  0  0  0
  5 13  2  0  0  0  0
  5 17  1  0  0  0  0
  6 27  1  0  0  0  0
  6 28  1  0  0  0  0
  6 29  1  0  0  0  0
  7  8  1  0  0  0  0
  7 27  2  0  0  0  0
  8 28  2  0  0  0  0
  9 31  1  0  0  0  0
  9 33  2  0  0  0  0
 10 11  1  0  0  0  0
 10 12  1  0  0  0  0
 10 13  1  0  0  0  0
 10 34  1  0  0  0  0
 11 12  1  0  0  0  0
 11 35  1  0  0  0  0
 11 36  1  0  0  0  0
 12 37  1  0  0  0  0
 12 38  1  0  0  0  0
 14 15  1  0  0  0  0
 14 18  1  0  0  0  0
 14 22  2  0  0  0  0
 15 19  1  0  0  0  0
 15 23  2  0  0  0  0
 16 17  2  0  0  0  0
 16 22  1  0  0  0  0
 17 23  1  0  0  0  0
 18 20  1  0  0  0  0
 18 39  1  0  0  0  0
 18 40  1  0  0  0  0
 19 21  1  0  0  0  0
 19 41  1  0  0  0  0
 19 42  1  0  0  0  0
 20 43  1  0  0  0  0
 20 44  1  0  0  0  0
 21 45  1  0  0  0  0
 21 46  1  0  0  0  0
 22 47  1  0  0  0  0
 23 48  1  0  0  0  0
 24 25  1  0  0  0  0
 24 49  1  0  0  0  0
 24 50  1  0  0  0  0
 25 26  1  0  0  0  0
 25 51  1  0  0  0  0
 25 52  1  0  0  0  0
 26 53  1  0  0  0  0
 26 54  1  0  0  0  0
 28 30  1  0  0  0  0
 29 55  1  0  0  0  0
 29 56  1  0  0  0  0
 29 57  1  0  0  0  0
 30 31  2  0  0  0  0
 31 32  1  0  0  0  0
 32 58  1  0  0  0  0
 32 59  1  0  0  0  0
 32 60  1  0  0  0  0
 33 61  1  0  0  0  0
M  END
> <PUBCHEM_COMPOUND_CID>
44454403

> <PUBCHEM_COMPOUND_CANONICALIZED>
1

> <PUBCHEM_CACTVS_COMPLEXITY>
671

> <PUBCHEM_CACTVS_HBOND_ACCEPTOR>
8

> <PUBCHEM_CACTVS_HBOND_DONOR>
0

> <PUBCHEM_CACTVS_ROTATABLE_BOND>
7

> <PUBCHEM_CACTVS_SUBSKEYS>
AAADceB7sABAAAAAAAAAAAAAGAAAAWLFgAAwAAAABYAAAFgB/gAAHgQIAAAADQzF3wa31rcMFEiqA6dz9ASS2Ct/YrAV2CG/bNiOLrLk/buPOSjkzBPY6YeY2bKOqAABQAAQEABQAAKAACAgAAAAAAAAAA==

> <PUBCHEM_IUPAC_OPENEYE_NAME>
2-cyclopropyl-7-[3-[[4-methyl-5-(4-methyloxazol-5-yl)-1,2,4-triazol-3-yl]sulfanyl]propyl]-5,6,8,9-tetrahydrooxazolo[4,5-h][3]benzazepine

> <PUBCHEM_IUPAC_CAS_NAME>
2-cyclopropyl-7-[3-[[4-methyl-5-(4-methyl-5-oxazolyl)-1,2,4-triazol-3-yl]thio]propyl]-5,6,8,9-tetrahydrooxazolo[4,5-h][3]benzazepine

> <PUBCHEM_IUPAC_NAME_MARKUP>
2-cyclopropyl-7-[3-[[4-methyl-5-(4-methyl-1,3-oxazol-5-yl)-1,2,4-triazol-3-yl]sulfanyl]propyl]-5,6,8,9-tetrahydro-[1,3]oxazolo[4,5-h][3]benzazepine

> <PUBCHEM_IUPAC_NAME>
2-cyclopropyl-7-[3-[[4-methyl-5-(4-methyl-1,3-oxazol-5-yl)-1,2,4-triazol-3-yl]sulfanyl]propyl]-5,6,8,9-tetrahydro-[1,3]oxazolo[4,5-h][3]benzazepine

> <PUBCHEM_IUPAC_SYSTEMATIC_NAME>
2-cyclopropyl-7-[3-[[4-methyl-5-(4-methyl-1,3-oxazol-5-yl)-1,2,4-triazol-3-yl]sulfanyl]propyl]-5,6,8,9-tetrahydro-[1,3]oxazolo[4,5-h][3]benzazepine

> <PUBCHEM_IUPAC_TRADITIONAL_NAME>
2-cyclopropyl-7-[3-[[4-methyl-5-(4-methyloxazol-5-yl)-1,2,4-triazol-3-yl]thio]propyl]-5,6,8,9-tetrahydrooxazolo[4,5-h][3]benzazepine

> <PUBCHEM_IUPAC_INCHI>
InChI=1S/C24H28N6O2S/c1-15-21(31-14-25-15)22-27-28-24(29(22)2)33-11-3-8-30-9-6-17-12-19-20(13-18(17)7-10-30)32-23(26-19)16-4-5-16/h12-14,16H,3-11H2,1-2H3

> <PUBCHEM_IUPAC_INCHIKEY>
XHDPHPBWQCZQAX-UHFFFAOYSA-N

> <PUBCHEM_XLOGP3_AA>
3.6

> <PUBCHEM_EXACT_MASS>
464.19944533

> <PUBCHEM_MOLECULAR_FORMULA>
C24H28N6O2S

> <PUBCHEM_MOLECULAR_WEIGHT>
464.6

> <PUBCHEM_OPENEYE_CAN_SMILES>
CC1=C(OC=N1)C2=NN=C(N2C)SCCCN3CCC4=CC5=C(C=C4CC3)OC(=N5)C6CC6

> <PUBCHEM_OPENEYE_ISO_SMILES>
CC1=C(OC=N1)C2=NN=C(N2C)SCCCN3CCC4=CC5=C(C=C4CC3)OC(=N5)C6CC6

> <PUBCHEM_CACTVS_TPSA>
111

> <PUBCHEM_MONOISOTOPIC_WEIGHT>
464.19944533

> <PUBCHEM_TOTAL_CHARGE>
0

> <PUBCHEM_HEAVY_ATOM_COUNT>
33

> <PUBCHEM_ATOM_DEF_STEREO_COUNT>
0

> <PUBCHEM_ATOM_UDEF_STEREO_COUNT>
0

> <PUBCHEM_BOND_DEF_STEREO_COUNT>
0

> <PUBCHEM_BOND_UDEF_STEREO_COUNT>
0

> <PUBCHEM_ISOTOPIC_ATOM_COUNT>
0

> <PUBCHEM_COMPONENT_COUNT>
1

> <PUBCHEM_CACTVS_TAUTO_COUNT>
-1

> <PUBCHEM_COORDINATE_TYPE>
1
5
255

> <PUBCHEM_BONDANNOTATIONS>
14  15  8
14  22  8
15  23  8
16  17  8
16  22  8
17  23  8
2  13  8
2  16  8
3  30  8
3  33  8
30  31  8
5  13  8
5  17  8
6  27  8
6  28  8
7  27  8
7  8  8
8  28  8
9  31  8
9  33  8

$$$$
