25132871
  -OEChem-09292322232D

 55 60  0     1  0  0  0  0  0999 V2000
    8.8788    1.7421    0.0000 O   0  0  0  0  0  0  0  0  0  0  0  0
    6.3850   -0.4147    0.0000 N   0  0  0  0  0  0  0  0  0  0  0  0
    3.4128   -1.1070    0.0000 N   0  0  0  0  0  0  0  0  0  0  0  0
    8.2210   -1.2236    0.0000 C   0  0  2  0  0  0  0  0  0  0  0  0
    7.2248   -1.3107    0.0000 C   0  0  1  0  0  0  0  0  0  0  0  0
    8.8788    0.7421    0.0000 C   0  0  0  0  0  0  0  0  0  0  0  0
    9.2856   -0.1714    0.0000 C   0  0  0  0  0  0  0  0  0  0  0  0
    7.8843    0.6376    0.0000 C   0  0  0  0  0  0  0  0  0  0  0  0
    8.4792   -2.6896    0.0000 C   0  0  0  0  0  0  0  0  0  0  0  0
    7.4830   -2.7768    0.0000 C   0  0  0  0  0  0  0  0  0  0  0  0
    5.6190    0.2281    0.0000 C   0  0  0  0  0  0  0  0  0  0  0  0
    9.7448    1.2421    0.0000 C   0  0  0  0  0  0  0  0  0  0  0  0
    4.6793   -0.1139    0.0000 C   0  0  0  0  0  0  0  0  0  0  0  0
   10.6109    0.7421    0.0000 C   0  0  0  0  0  0  0  0  0  0  0  0
    9.7448    2.2421    0.0000 C   0  0  0  0  0  0  0  0  0  0  0  0
    3.8557    0.4427    0.0000 C   0  0  0  0  0  0  0  0  0  0  0  0
    4.4061   -1.0697    0.0000 C   0  0  0  0  0  0  0  0  0  0  0  0
   11.4769    1.2421    0.0000 C   0  0  0  0  0  0  0  0  0  0  0  0
   10.6109    2.7421    0.0000 C   0  0  0  0  0  0  0  0  0  0  0  0
    3.0687   -0.1743    0.0000 C   0  0  0  0  0  0  0  0  0  0  0  0
   11.4769    2.2421    0.0000 C   0  0  0  0  0  0  0  0  0  0  0  0
    3.7148    1.4327    0.0000 C   0  0  0  0  0  0  0  0  0  0  0  0
   12.3708    0.7075    0.0000 C   0  0  0  0  0  0  0  0  0  0  0  0
    2.1409    0.1987    0.0000 C   0  0  0  0  0  0  0  0  0  0  0  0
   12.3708    2.7768    0.0000 C   0  0  0  0  0  0  0  0  0  0  0  0
    2.7869    1.8057    0.0000 C   0  0  0  0  0  0  0  0  0  0  0  0
    2.0000    1.1887    0.0000 C   0  0  0  0  0  0  0  0  0  0  0  0
   13.2769    1.2213    0.0000 C   0  0  0  0  0  0  0  0  0  0  0  0
   13.2769    2.2629    0.0000 C   0  0  0  0  0  0  0  0  0  0  0  0
    9.0678   -1.1495    0.0000 H   0  0  0  0  0  0  0  0  0  0  0  0
    6.3781   -1.3848    0.0000 H   0  0  0  0  0  0  0  0  0  0  0  0
    9.6654   -0.6615    0.0000 H   0  0  0  0  0  0  0  0  0  0  0  0
    9.8176    0.1469    0.0000 H   0  0  0  0  0  0  0  0  0  0  0  0
    7.9085    1.2571    0.0000 H   0  0  0  0  0  0  0  0  0  0  0  0
    7.2746    0.7502    0.0000 H   0  0  0  0  0  0  0  0  0  0  0  0
    8.5511   -3.3054    0.0000 H   0  0  0  0  0  0  0  0  0  0  0  0
    9.0927   -2.5999    0.0000 H   0  0  0  0  0  0  0  0  0  0  0  0
    6.8695   -2.8665    0.0000 H   0  0  0  0  0  0  0  0  0  0  0  0
    7.5549   -3.3926    0.0000 H   0  0  0  0  0  0  0  0  0  0  0  0
    6.0940    0.6266    0.0000 H   0  0  0  0  0  0  0  0  0  0  0  0
    5.3090    0.7650    0.0000 H   0  0  0  0  0  0  0  0  0  0  0  0
    8.3419    2.0521    0.0000 H   0  0  0  0  0  0  0  0  0  0  0  0
   10.6109    0.1221    0.0000 H   0  0  0  0  0  0  0  0  0  0  0  0
    9.2079    2.5521    0.0000 H   0  0  0  0  0  0  0  0  0  0  0  0
    4.7887   -1.5576    0.0000 H   0  0  0  0  0  0  0  0  0  0  0  0
   10.6109    3.3621    0.0000 H   0  0  0  0  0  0  0  0  0  0  0  0
    3.0678   -1.6222    0.0000 H   0  0  0  0  0  0  0  0  0  0  0  0
    4.2027    1.8153    0.0000 H   0  0  0  0  0  0  0  0  0  0  0  0
   12.3637    0.0875    0.0000 H   0  0  0  0  0  0  0  0  0  0  0  0
    1.6530   -0.1839    0.0000 H   0  0  0  0  0  0  0  0  0  0  0  0
   12.3637    3.3967    0.0000 H   0  0  0  0  0  0  0  0  0  0  0  0
    2.6996    2.4195    0.0000 H   0  0  0  0  0  0  0  0  0  0  0  0
    1.4247    1.4199    0.0000 H   0  0  0  0  0  0  0  0  0  0  0  0
   13.8126    0.9092    0.0000 H   0  0  0  0  0  0  0  0  0  0  0  0
   13.8126    2.5750    0.0000 H   0  0  0  0  0  0  0  0  0  0  0  0
  1  6  1  0  0  0  0
  1 42  1  0  0  0  0
  2  4  1  0  0  0  0
  2  5  1  0  0  0  0
  2 11  1  0  0  0  0
  3 17  1  0  0  0  0
  3 20  1  0  0  0  0
  3 47  1  0  0  0  0
  4  7  1  0  0  0  0
  4  9  1  0  0  0  0
  4 30  1  1  0  0  0
  5  8  1  0  0  0  0
  5 10  1  0  0  0  0
  5 31  1  6  0  0  0
  6  7  1  0  0  0  0
  6  8  1  0  0  0  0
  6 12  1  0  0  0  0
  7 32  1  0  0  0  0
  7 33  1  0  0  0  0
  8 34  1  0  0  0  0
  8 35  1  0  0  0  0
  9 10  1  0  0  0  0
  9 36  1  0  0  0  0
  9 37  1  0  0  0  0
 10 38  1  0  0  0  0
 10 39  1  0  0  0  0
 11 13  1  0  0  0  0
 11 40  1  0  0  0  0
 11 41  1  0  0  0  0
 12 14  2  0  0  0  0
 12 15  1  0  0  0  0
 13 16  1  0  0  0  0
 13 17  2  0  0  0  0
 14 18  1  0  0  0  0
 14 43  1  0  0  0  0
 15 19  2  0  0  0  0
 15 44  1  0  0  0  0
 16 20  1  0  0  0  0
 16 22  2  0  0  0  0
 17 45  1  0  0  0  0
 18 21  1  0  0  0  0
 18 23  2  0  0  0  0
 19 21  1  0  0  0  0
 19 46  1  0  0  0  0
 20 24  2  0  0  0  0
 21 25  2  0  0  0  0
 22 26  1  0  0  0  0
 22 48  1  0  0  0  0
 23 28  1  0  0  0  0
 23 49  1  0  0  0  0
 24 27  1  0  0  0  0
 24 50  1  0  0  0  0
 25 29  1  0  0  0  0
 25 51  1  0  0  0  0
 26 27  2  0  0  0  0
 26 52  1  0  0  0  0
 27 53  1  0  0  0  0
 28 29  2  0  0  0  0
 28 54  1  0  0  0  0
 29 55  1  0  0  0  0
M  END
> <PUBCHEM_COMPOUND_CID>
25132871

> <PUBCHEM_COMPOUND_CANONICALIZED>
1

> <PUBCHEM_CACTVS_COMPLEXITY>
579

> <PUBCHEM_CACTVS_HBOND_ACCEPTOR>
2

> <PUBCHEM_CACTVS_HBOND_DONOR>
2

> <PUBCHEM_CACTVS_ROTATABLE_BOND>
3

> <PUBCHEM_CACTVS_SUBSKEYS>
AAADceB7IAAAAAAAAAAAAAAAAAAAAWLAAAA8YMEABgAAAFjB9AAAHgAQCAAADGzBngQ8wPPJkgCgAzRnRACCgCAxAiAI2aA4bJgIJuLA0ZGEcAhm0AHI2AeQwPAOwAACAAASAACAAAQAACQAAAAAAAAAAA==

> <PUBCHEM_IUPAC_OPENEYE_NAME>
(1S,5R)-8-(1H-indol-3-ylmethyl)-3-(2-naphthyl)-8-azabicyclo[3.2.1]octan-3-ol

> <PUBCHEM_IUPAC_CAS_NAME>
(1S,5R)-8-(1H-indol-3-ylmethyl)-3-(2-naphthalenyl)-8-azabicyclo[3.2.1]octan-3-ol

> <PUBCHEM_IUPAC_NAME_MARKUP>
(1<I>S</I>,5<I>R</I>)-8-(1<I>H</I>-indol-3-ylmethyl)-3-naphthalen-2-yl-8-azabicyclo[3.2.1]octan-3-ol

> <PUBCHEM_IUPAC_NAME>
(1S,5R)-8-(1H-indol-3-ylmethyl)-3-naphthalen-2-yl-8-azabicyclo[3.2.1]octan-3-ol

> <PUBCHEM_IUPAC_SYSTEMATIC_NAME>
(1S,5R)-8-(1H-indol-3-ylmethyl)-3-naphthalen-2-yl-8-azabicyclo[3.2.1]octan-3-ol

> <PUBCHEM_IUPAC_TRADITIONAL_NAME>
(1S,5R)-8-(1H-indol-3-ylmethyl)-3-(2-naphthyl)-8-azabicyclo[3.2.1]octan-3-ol

> <PUBCHEM_IUPAC_INCHI>
InChI=1S/C26H26N2O/c29-26(21-10-9-18-5-1-2-6-19(18)13-21)14-22-11-12-23(15-26)28(22)17-20-16-27-25-8-4-3-7-24(20)25/h1-10,13,16,22-23,27,29H,11-12,14-15,17H2/t22-,23+,26?

> <PUBCHEM_IUPAC_INCHIKEY>
YJKBKDOYRHHENB-XZQOPNAISA-N

> <PUBCHEM_XLOGP3_AA>
4.9

> <PUBCHEM_EXACT_MASS>
382.204513457

> <PUBCHEM_MOLECULAR_FORMULA>
C26H26N2O

> <PUBCHEM_MOLECULAR_WEIGHT>
382.5

> <PUBCHEM_OPENEYE_CAN_SMILES>
C1CC2CC(CC1N2CC3=CNC4=CC=CC=C43)(C5=CC6=CC=CC=C6C=C5)O

> <PUBCHEM_OPENEYE_ISO_SMILES>
C1C[C@H]2CC(C[C@@H]1N2CC3=CNC4=CC=CC=C43)(C5=CC6=CC=CC=C6C=C5)O

> <PUBCHEM_CACTVS_TPSA>
39.3

> <PUBCHEM_MONOISOTOPIC_WEIGHT>
382.204513457

> <PUBCHEM_TOTAL_CHARGE>
0

> <PUBCHEM_HEAVY_ATOM_COUNT>
29

> <PUBCHEM_ATOM_DEF_STEREO_COUNT>
2

> <PUBCHEM_ATOM_UDEF_STEREO_COUNT>
0

> <PUBCHEM_BOND_DEF_STEREO_COUNT>
0

> <PUBCHEM_BOND_UDEF_STEREO_COUNT>
0

> <PUBCHEM_ISOTOPIC_ATOM_COUNT>
0

> <PUBCHEM_COMPONENT_COUNT>
1

> <PUBCHEM_CACTVS_TAUTO_COUNT>
-1

> <PUBCHEM_COORDINATE_TYPE>
1
5
255

> <PUBCHEM_BONDANNOTATIONS>
12  14  8
12  15  8
13  16  8
13  17  8
14  18  8
15  19  8
16  20  8
16  22  8
18  21  8
18  23  8
19  21  8
20  24  8
21  25  8
22  26  8
23  28  8
24  27  8
25  29  8
26  27  8
28  29  8
3  17  8
3  20  8
4  30  5
5  31  6

$$$$
