44439410
  -OEChem-09292322492D

 41 43  0     1  0  0  0  0  0999 V2000
   11.0511    1.0052    0.0000 O   0  0  0  0  0  0  0  0  0  0  0  0
    7.1962    0.2500    0.0000 N   0  0  0  0  0  0  0  0  0  0  0  0
    5.4641    0.2500    0.0000 N   0  0  0  0  0  0  0  0  0  0  0  0
   10.7404    0.0547    0.0000 C   0  0  3  0  0  0  0  0  0  0  0  0
   11.3241   -0.7500    0.0000 C   0  0  0  0  0  0  0  0  0  0  0  0
   10.7404   -1.5547    0.0000 C   0  0  0  0  0  0  0  0  0  0  0  0
    9.7942   -0.2500    0.0000 C   0  0  0  0  0  0  0  0  0  0  0  0
    9.7942   -1.2500    0.0000 C   0  0  0  0  0  0  0  0  0  0  0  0
    8.9282    0.2500    0.0000 C   0  0  0  0  0  0  0  0  0  0  0  0
    8.9282   -1.7500    0.0000 C   0  0  0  0  0  0  0  0  0  0  0  0
    8.0622   -0.2500    0.0000 C   0  0  0  0  0  0  0  0  0  0  0  0
    8.0622   -1.2500    0.0000 C   0  0  0  0  0  0  0  0  0  0  0  0
    4.5981   -0.2500    0.0000 C   0  0  0  0  0  0  0  0  0  0  0  0
    6.3301   -0.2500    0.0000 C   0  0  0  0  0  0  0  0  0  0  0  0
    3.7320    0.2500    0.0000 C   0  0  0  0  0  0  0  0  0  0  0  0
    5.4641    1.2500    0.0000 C   0  0  0  0  0  0  0  0  0  0  0  0
    2.8660   -0.2500    0.0000 C   0  0  0  0  0  0  0  0  0  0  0  0
    3.7320    1.2500    0.0000 C   0  0  0  0  0  0  0  0  0  0  0  0
    2.0000    0.2500    0.0000 C   0  0  0  0  0  0  0  0  0  0  0  0
    2.8660    1.7500    0.0000 C   0  0  0  0  0  0  0  0  0  0  0  0
    2.0000    1.2500    0.0000 C   0  0  0  0  0  0  0  0  0  0  0  0
   10.3030    0.4941    0.0000 H   0  0  0  0  0  0  0  0  0  0  0  0
   11.7849   -1.1647    0.0000 H   0  0  0  0  0  0  0  0  0  0  0  0
   11.7849   -0.3353    0.0000 H   0  0  0  0  0  0  0  0  0  0  0  0
   10.4894   -2.1216    0.0000 H   0  0  0  0  0  0  0  0  0  0  0  0
   11.2778   -1.8640    0.0000 H   0  0  0  0  0  0  0  0  0  0  0  0
    8.9282    0.8700    0.0000 H   0  0  0  0  0  0  0  0  0  0  0  0
    8.9282   -2.3700    0.0000 H   0  0  0  0  0  0  0  0  0  0  0  0
    7.5252   -1.5600    0.0000 H   0  0  0  0  0  0  0  0  0  0  0  0
   11.6578    1.1331    0.0000 H   0  0  0  0  0  0  0  0  0  0  0  0
    4.1996   -0.7249    0.0000 H   0  0  0  0  0  0  0  0  0  0  0  0
    4.9966   -0.7249    0.0000 H   0  0  0  0  0  0  0  0  0  0  0  0
    6.3301   -0.8700    0.0000 H   0  0  0  0  0  0  0  0  0  0  0  0
    6.0841    1.2500    0.0000 H   0  0  0  0  0  0  0  0  0  0  0  0
    5.4641    1.8700    0.0000 H   0  0  0  0  0  0  0  0  0  0  0  0
    4.8441    1.2500    0.0000 H   0  0  0  0  0  0  0  0  0  0  0  0
    2.8660   -0.8700    0.0000 H   0  0  0  0  0  0  0  0  0  0  0  0
    4.2690    1.5600    0.0000 H   0  0  0  0  0  0  0  0  0  0  0  0
    1.4631   -0.0600    0.0000 H   0  0  0  0  0  0  0  0  0  0  0  0
    2.8660    2.3700    0.0000 H   0  0  0  0  0  0  0  0  0  0  0  0
    1.4631    1.5600    0.0000 H   0  0  0  0  0  0  0  0  0  0  0  0
  1  4  1  0  0  0  0
  1 30  1  0  0  0  0
  2 11  1  0  0  0  0
  2 14  2  0  0  0  0
  3 13  1  0  0  0  0
  3 14  1  0  0  0  0
  3 16  1  0  0  0  0
  4  5  1  0  0  0  0
  4  7  1  0  0  0  0
  4 22  1  0  0  0  0
  5  6  1  0  0  0  0
  5 23  1  0  0  0  0
  5 24  1  0  0  0  0
  6  8  1  0  0  0  0
  6 25  1  0  0  0  0
  6 26  1  0  0  0  0
  7  8  2  0  0  0  0
  7  9  1  0  0  0  0
  8 10  1  0  0  0  0
  9 11  2  0  0  0  0
  9 27  1  0  0  0  0
 10 12  2  0  0  0  0
 10 28  1  0  0  0  0
 11 12  1  0  0  0  0
 12 29  1  0  0  0  0
 13 15  1  0  0  0  0
 13 31  1  0  0  0  0
 13 32  1  0  0  0  0
 14 33  1  0  0  0  0
 15 17  2  0  0  0  0
 15 18  1  0  0  0  0
 16 34  1  0  0  0  0
 16 35  1  0  0  0  0
 16 36  1  0  0  0  0
 17 19  1  0  0  0  0
 17 37  1  0  0  0  0
 18 20  2  0  0  0  0
 18 38  1  0  0  0  0
 19 21  2  0  0  0  0
 19 39  1  0  0  0  0
 20 21  1  0  0  0  0
 20 40  1  0  0  0  0
 21 41  1  0  0  0  0
M  END
> <PUBCHEM_COMPOUND_CID>
44439410

> <PUBCHEM_COMPOUND_CANONICALIZED>
1

> <PUBCHEM_CACTVS_COMPLEXITY>
351

> <PUBCHEM_CACTVS_HBOND_ACCEPTOR>
2

> <PUBCHEM_CACTVS_HBOND_DONOR>
1

> <PUBCHEM_CACTVS_ROTATABLE_BOND>
4

> <PUBCHEM_CACTVS_SUBSKEYS>
AAADceB7IAAAAAAAAAAAAAAAAAAAAYAAAAAwYAAAAAAAAGABQAAAHgAACAAADBzhmAYzwIMAAgCgAiRDZACCAAEgAgAJiAAIbIgINiKAmZGEcAhkwAEI2AewwKAOiAAAQAAQAAAQAACAACAAAIAADAAAAA==

> <PUBCHEM_IUPAC_OPENEYE_NAME>
N-benzyl-N'-(3-hydroxyindan-5-yl)-N-methyl-formamidine

> <PUBCHEM_IUPAC_CAS_NAME>
N'-(3-hydroxy-2,3-dihydro-1H-inden-5-yl)-N-methyl-N-(phenylmethyl)methanimidamide

> <PUBCHEM_IUPAC_NAME_MARKUP>
<I>N</I>-benzyl-<I>N</I>&apos;-(3-hydroxy-2,3-dihydro-1<I>H</I>-inden-5-yl)-<I>N</I>-methylmethanimidamide

> <PUBCHEM_IUPAC_NAME>
N-benzyl-N'-(3-hydroxy-2,3-dihydro-1H-inden-5-yl)-N-methylmethanimidamide

> <PUBCHEM_IUPAC_SYSTEMATIC_NAME>
N-methyl-N'-(3-oxidanyl-2,3-dihydro-1H-inden-5-yl)-N-(phenylmethyl)methanimidamide

> <PUBCHEM_IUPAC_TRADITIONAL_NAME>
N-benzyl-N'-(3-hydroxyindan-5-yl)-N-methyl-formamidine

> <PUBCHEM_IUPAC_INCHI>
InChI=1S/C18H20N2O/c1-20(12-14-5-3-2-4-6-14)13-19-16-9-7-15-8-10-18(21)17(15)11-16/h2-7,9,11,13,18,21H,8,10,12H2,1H3

> <PUBCHEM_IUPAC_INCHIKEY>
PCAYXHCOLDZGEL-UHFFFAOYSA-N

> <PUBCHEM_XLOGP3_AA>
2.6

> <PUBCHEM_EXACT_MASS>
280.157563266

> <PUBCHEM_MOLECULAR_FORMULA>
C18H20N2O

> <PUBCHEM_MOLECULAR_WEIGHT>
280.4

> <PUBCHEM_OPENEYE_CAN_SMILES>
CN(CC1=CC=CC=C1)C=NC2=CC3=C(CCC3O)C=C2

> <PUBCHEM_OPENEYE_ISO_SMILES>
CN(CC1=CC=CC=C1)C=NC2=CC3=C(CCC3O)C=C2

> <PUBCHEM_CACTVS_TPSA>
35.8

> <PUBCHEM_MONOISOTOPIC_WEIGHT>
280.157563266

> <PUBCHEM_TOTAL_CHARGE>
0

> <PUBCHEM_HEAVY_ATOM_COUNT>
21

> <PUBCHEM_ATOM_DEF_STEREO_COUNT>
0

> <PUBCHEM_ATOM_UDEF_STEREO_COUNT>
1

> <PUBCHEM_BOND_DEF_STEREO_COUNT>
0

> <PUBCHEM_BOND_UDEF_STEREO_COUNT>
0

> <PUBCHEM_ISOTOPIC_ATOM_COUNT>
0

> <PUBCHEM_COMPONENT_COUNT>
1

> <PUBCHEM_CACTVS_TAUTO_COUNT>
-1

> <PUBCHEM_COORDINATE_TYPE>
1
5
255

> <PUBCHEM_BONDANNOTATIONS>
4  1  3
10  12  8
11  12  8
15  17  8
15  18  8
17  19  8
18  20  8
19  21  8
20  21  8
7  8  8
7  9  8
8  10  8
9  11  8

$$$$
