71456928
  -OEChem-09292321592D

 58 62  0     1  0  0  0  0  0999 V2000
    4.6038   -2.0380    0.0000 Cl  0  0  0  0  0  0  0  0  0  0  0  0
    2.8757   -3.0447    0.0000 Cl  0  0  0  0  0  0  0  0  0  0  0  0
    9.9204    1.4825    0.0000 O   0  0  0  0  0  0  0  0  0  0  0  0
   16.0506    1.0100    0.0000 O   0  0  0  0  0  0  0  0  0  0  0  0
    6.3243    0.9687    0.0000 N   0  0  0  0  0  0  0  0  0  0  0  0
    4.5961   -0.0380    0.0000 N   0  0  0  0  0  0  0  0  0  0  0  0
   14.3185    1.0100    0.0000 N   0  0  0  0  0  0  0  0  0  0  0  0
    8.0564    0.9753    0.0000 C   0  0  1  0  0  0  0  0  0  0  0  0
    9.0563    0.9792    0.0000 C   0  0  1  0  0  0  0  0  0  0  0  0
    8.5597    0.1112    0.0000 C   0  0  0  0  0  0  0  0  0  0  0  0
    7.1884    1.4720    0.0000 C   0  0  0  0  0  0  0  0  0  0  0  0
    5.4564    1.4653    0.0000 C   0  0  0  0  0  0  0  0  0  0  0  0
    6.3282   -0.0313    0.0000 C   0  0  0  0  0  0  0  0  0  0  0  0
    4.5923    0.9620    0.0000 C   0  0  0  0  0  0  0  0  0  0  0  0
    5.4641   -0.5347    0.0000 C   0  0  0  0  0  0  0  0  0  0  0  0
   10.7884    0.9859    0.0000 C   0  0  0  0  0  0  0  0  0  0  0  0
   11.6525    1.4892    0.0000 C   0  0  0  0  0  0  0  0  0  0  0  0
    3.7320   -0.5414    0.0000 C   0  0  0  0  0  0  0  0  0  0  0  0
   12.5585    0.9753    0.0000 C   0  0  0  0  0  0  0  0  0  0  0  0
   11.6525    2.5308    0.0000 C   0  0  0  0  0  0  0  0  0  0  0  0
    3.7359   -1.5413    0.0000 C   0  0  0  0  0  0  0  0  0  0  0  0
    2.8641   -0.0447    0.0000 C   0  0  0  0  0  0  0  0  0  0  0  0
   13.4525    1.5100    0.0000 C   0  0  0  0  0  0  0  0  0  0  0  0
   13.4525    2.5100    0.0000 C   0  0  0  0  0  0  0  0  0  0  0  0
   12.5585    3.0447    0.0000 C   0  0  0  0  0  0  0  0  0  0  0  0
   14.3185    3.0100    0.0000 C   0  0  0  0  0  0  0  0  0  0  0  0
    2.8718   -2.0447    0.0000 C   0  0  0  0  0  0  0  0  0  0  0  0
    2.0000   -0.5480    0.0000 C   0  0  0  0  0  0  0  0  0  0  0  0
   15.1845    2.5100    0.0000 C   0  0  0  0  0  0  0  0  0  0  0  0
   15.1845    1.5100    0.0000 C   0  0  0  0  0  0  0  0  0  0  0  0
    2.0038   -1.5480    0.0000 C   0  0  0  0  0  0  0  0  0  0  0  0
    7.6196    0.5352    0.0000 H   0  0  0  0  0  0  0  0  0  0  0  0
    9.4964    0.5425    0.0000 H   0  0  0  0  0  0  0  0  0  0  0  0
    8.0863   -0.2891    0.0000 H   0  0  0  0  0  0  0  0  0  0  0  0
    9.0362   -0.2855    0.0000 H   0  0  0  0  0  0  0  0  0  0  0  0
    7.5851    1.9485    0.0000 H   0  0  0  0  0  0  0  0  0  0  0  0
    6.7880    1.9454    0.0000 H   0  0  0  0  0  0  0  0  0  0  0  0
    5.8531    1.9418    0.0000 H   0  0  0  0  0  0  0  0  0  0  0  0
    5.0560    1.9387    0.0000 H   0  0  0  0  0  0  0  0  0  0  0  0
    6.5425   -0.6131    0.0000 H   0  0  0  0  0  0  0  0  0  0  0  0
    6.9383    0.0787    0.0000 H   0  0  0  0  0  0  0  0  0  0  0  0
    4.3780    1.5438    0.0000 H   0  0  0  0  0  0  0  0  0  0  0  0
    3.9821    0.8520    0.0000 H   0  0  0  0  0  0  0  0  0  0  0  0
    5.0674   -1.0112    0.0000 H   0  0  0  0  0  0  0  0  0  0  0  0
    5.8644   -1.0081    0.0000 H   0  0  0  0  0  0  0  0  0  0  0  0
   10.3917    0.5094    0.0000 H   0  0  0  0  0  0  0  0  0  0  0  0
   11.1887    0.5125    0.0000 H   0  0  0  0  0  0  0  0  0  0  0  0
   12.5657    0.3554    0.0000 H   0  0  0  0  0  0  0  0  0  0  0  0
   11.1167    2.8429    0.0000 H   0  0  0  0  0  0  0  0  0  0  0  0
    2.8617    0.5753    0.0000 H   0  0  0  0  0  0  0  0  0  0  0  0
   12.5657    3.6646    0.0000 H   0  0  0  0  0  0  0  0  0  0  0  0
   14.7170    3.4850    0.0000 H   0  0  0  0  0  0  0  0  0  0  0  0
   13.9200    3.4850    0.0000 H   0  0  0  0  0  0  0  0  0  0  0  0
   15.7951    2.4024    0.0000 H   0  0  0  0  0  0  0  0  0  0  0  0
   15.3966    3.0926    0.0000 H   0  0  0  0  0  0  0  0  0  0  0  0
   14.3185    0.3900    0.0000 H   0  0  0  0  0  0  0  0  0  0  0  0
    1.4619   -0.2401    0.0000 H   0  0  0  0  0  0  0  0  0  0  0  0
    1.4681   -1.8601    0.0000 H   0  0  0  0  0  0  0  0  0  0  0  0
  1 21  1  0  0  0  0
  2 27  1  0  0  0  0
  9  3  1  6  0  0  0
  3 16  1  0  0  0  0
  4 30  2  0  0  0  0
  5 11  1  0  0  0  0
  5 12  1  0  0  0  0
  5 13  1  0  0  0  0
  6 14  1  0  0  0  0
  6 15  1  0  0  0  0
  6 18  1  0  0  0  0
  7 23  1  0  0  0  0
  7 30  1  0  0  0  0
  7 56  1  0  0  0  0
  8  9  1  0  0  0  0
  8 10  1  0  0  0  0
  8 11  1  1  0  0  0
  8 32  1  0  0  0  0
  9 10  1  0  0  0  0
  9 33  1  0  0  0  0
 10 34  1  0  0  0  0
 10 35  1  0  0  0  0
 11 36  1  0  0  0  0
 11 37  1  0  0  0  0
 12 14  1  0  0  0  0
 12 38  1  0  0  0  0
 12 39  1  0  0  0  0
 13 15  1  0  0  0  0
 13 40  1  0  0  0  0
 13 41  1  0  0  0  0
 14 42  1  0  0  0  0
 14 43  1  0  0  0  0
 15 44  1  0  0  0  0
 15 45  1  0  0  0  0
 16 17  1  0  0  0  0
 16 46  1  0  0  0  0
 16 47  1  0  0  0  0
 17 19  2  0  0  0  0
 17 20  1  0  0  0  0
 18 21  2  0  0  0  0
 18 22  1  0  0  0  0
 19 23  1  0  0  0  0
 19 48  1  0  0  0  0
 20 25  2  0  0  0  0
 20 49  1  0  0  0  0
 21 27  1  0  0  0  0
 22 28  2  0  0  0  0
 22 50  1  0  0  0  0
 23 24  2  0  0  0  0
 24 25  1  0  0  0  0
 24 26  1  0  0  0  0
 25 51  1  0  0  0  0
 26 29  1  0  0  0  0
 26 52  1  0  0  0  0
 26 53  1  0  0  0  0
 27 31  2  0  0  0  0
 28 31  1  0  0  0  0
 28 57  1  0  0  0  0
 29 30  1  0  0  0  0
 29 54  1  0  0  0  0
 29 55  1  0  0  0  0
 31 58  1  0  0  0  0
M  END
> <PUBCHEM_COMPOUND_CID>
71456928

> <PUBCHEM_COMPOUND_CANONICALIZED>
1

> <PUBCHEM_CACTVS_COMPLEXITY>
630

> <PUBCHEM_CACTVS_HBOND_ACCEPTOR>
4

> <PUBCHEM_CACTVS_HBOND_DONOR>
1

> <PUBCHEM_CACTVS_ROTATABLE_BOND>
6

> <PUBCHEM_CACTVS_SUBSKEYS>
AAADceB7MAAGAAAAAAAAAAAAGAAAAAAAAAA8eIEAAAAAAACxQAAAHgIQAAAADR7hmCYwwIPABACIAiVSUACCAAAhBwAIikEIbogIZjLBs5nWMAhm1AHI6Ae4yfCeQAAAQAICABSAAACABAQAKAAAAAAAAA==

> <PUBCHEM_IUPAC_OPENEYE_NAME>
7-[[(1R,2S)-2-[[4-(2,3-dichlorophenyl)piperazin-1-yl]methyl]cyclopropoxy]methyl]-3,4-dihydro-1H-quinolin-2-one

> <PUBCHEM_IUPAC_CAS_NAME>
7-[[(1R,2S)-2-[[4-(2,3-dichlorophenyl)-1-piperazinyl]methyl]cyclopropyl]oxymethyl]-3,4-dihydro-1H-quinolin-2-one

> <PUBCHEM_IUPAC_NAME_MARKUP>
7-[[(1<I>R</I>,2<I>S</I>)-2-[[4-(2,3-dichlorophenyl)piperazin-1-yl]methyl]cyclopropyl]oxymethyl]-3,4-dihydro-1<I>H</I>-quinolin-2-one

> <PUBCHEM_IUPAC_NAME>
7-[[(1R,2S)-2-[[4-(2,3-dichlorophenyl)piperazin-1-yl]methyl]cyclopropyl]oxymethyl]-3,4-dihydro-1H-quinolin-2-one

> <PUBCHEM_IUPAC_SYSTEMATIC_NAME>
7-[[(1R,2S)-2-[[4-[2,3-bis(chloranyl)phenyl]piperazin-1-yl]methyl]cyclopropyl]oxymethyl]-3,4-dihydro-1H-quinolin-2-one

> <PUBCHEM_IUPAC_TRADITIONAL_NAME>
7-[[(1R,2S)-2-[[4-(2,3-dichlorophenyl)piperazino]methyl]cyclopropoxy]methyl]-3,4-dihydrocarbostyril

> <PUBCHEM_IUPAC_INCHI>
InChI=1S/C24H27Cl2N3O2/c25-19-2-1-3-21(24(19)26)29-10-8-28(9-11-29)14-18-13-22(18)31-15-16-4-5-17-6-7-23(30)27-20(17)12-16/h1-5,12,18,22H,6-11,13-15H2,(H,27,30)/t18-,22+/m0/s1

> <PUBCHEM_IUPAC_INCHIKEY>
JNYBPHZJIUVHES-PGRDOPGGSA-N

> <PUBCHEM_XLOGP3_AA>
4.1

> <PUBCHEM_EXACT_MASS>
459.1480325

> <PUBCHEM_MOLECULAR_FORMULA>
C24H27Cl2N3O2

> <PUBCHEM_MOLECULAR_WEIGHT>
460.4

> <PUBCHEM_OPENEYE_CAN_SMILES>
C1CC(=O)NC2=C1C=CC(=C2)COC3CC3CN4CCN(CC4)C5=C(C(=CC=C5)Cl)Cl

> <PUBCHEM_OPENEYE_ISO_SMILES>
C1CC(=O)NC2=C1C=CC(=C2)CO[C@@H]3C[C@H]3CN4CCN(CC4)C5=C(C(=CC=C5)Cl)Cl

> <PUBCHEM_CACTVS_TPSA>
44.8

> <PUBCHEM_MONOISOTOPIC_WEIGHT>
459.1480325

> <PUBCHEM_TOTAL_CHARGE>
0

> <PUBCHEM_HEAVY_ATOM_COUNT>
31

> <PUBCHEM_ATOM_DEF_STEREO_COUNT>
2

> <PUBCHEM_ATOM_UDEF_STEREO_COUNT>
0

> <PUBCHEM_BOND_DEF_STEREO_COUNT>
0

> <PUBCHEM_BOND_UDEF_STEREO_COUNT>
0

> <PUBCHEM_ISOTOPIC_ATOM_COUNT>
0

> <PUBCHEM_COMPONENT_COUNT>
1

> <PUBCHEM_CACTVS_TAUTO_COUNT>
-1

> <PUBCHEM_COORDINATE_TYPE>
1
5
255

> <PUBCHEM_BONDANNOTATIONS>
17  19  8
17  20  8
18  21  8
18  22  8
19  23  8
20  25  8
21  27  8
22  28  8
23  24  8
24  25  8
27  31  8
28  31  8
9  3  6
8  11  5

$$$$
