66800991
  -OEChem-09292322342D

 55 59  0     0  0  0  0  0  0999 V2000
    4.9889   -2.5825    0.0000 S   0  0  0  0  0  0  0  0  0  0  0  0
    8.8099    5.1425    0.0000 S   0  0  0  0  0  0  0  0  0  0  0  0
    5.9394   -2.8932    0.0000 O   0  0  0  0  0  0  0  0  0  0  0  0
    4.0384   -2.2719    0.0000 O   0  0  0  0  0  0  0  0  0  0  0  0
    7.8779    0.6815    0.0000 N   0  0  0  0  0  0  0  0  0  0  0  0
    8.4993    2.5825    0.0000 N   0  0  0  0  0  0  0  0  0  0  0  0
    5.2996   -1.6320    0.0000 N   0  0  0  0  0  0  0  0  0  0  0  0
    8.2263    4.3378    0.0000 N   0  0  0  0  0  0  0  0  0  0  0  0
    3.7320   -3.8378    0.0000 N   0  0  0  0  0  0  0  0  0  0  0  0
    4.6783   -5.1425    0.0000 N   0  0  0  0  0  0  0  0  0  0  0  0
    8.8564    0.8877    0.0000 C   0  0  0  0  0  0  0  0  0  0  0  0
    7.2101    1.4258    0.0000 C   0  0  0  0  0  0  0  0  0  0  0  0
    9.1671    1.8382    0.0000 C   0  0  0  0  0  0  0  0  0  0  0  0
    7.5208    2.3763    0.0000 C   0  0  0  0  0  0  0  0  0  0  0  0
    7.5673   -0.2690    0.0000 C   0  0  0  0  0  0  0  0  0  0  0  0
    6.5888   -0.4753    0.0000 C   0  0  0  0  0  0  0  0  0  0  0  0
    8.8099    3.5330    0.0000 C   0  0  0  0  0  0  0  0  0  0  0  0
    6.2781   -1.4258    0.0000 C   0  0  0  0  0  0  0  0  0  0  0  0
    9.7561    3.8378    0.0000 C   0  0  0  0  0  0  0  0  0  0  0  0
    9.7561    4.8378    0.0000 C   0  0  0  0  0  0  0  0  0  0  0  0
    4.6783   -3.5330    0.0000 C   0  0  0  0  0  0  0  0  0  0  0  0
   10.6222    3.3378    0.0000 C   0  0  0  0  0  0  0  0  0  0  0  0
   10.6222    5.3378    0.0000 C   0  0  0  0  0  0  0  0  0  0  0  0
   11.4882    3.8378    0.0000 C   0  0  0  0  0  0  0  0  0  0  0  0
    3.7320   -4.8378    0.0000 C   0  0  0  0  0  0  0  0  0  0  0  0
    5.2619   -4.3378    0.0000 C   0  0  0  0  0  0  0  0  0  0  0  0
   11.4882    4.8378    0.0000 C   0  0  0  0  0  0  0  0  0  0  0  0
    2.8660   -3.3378    0.0000 C   0  0  0  0  0  0  0  0  0  0  0  0
    2.8660   -5.3378    0.0000 C   0  0  0  0  0  0  0  0  0  0  0  0
    2.0000   -3.8378    0.0000 C   0  0  0  0  0  0  0  0  0  0  0  0
    2.0000   -4.8378    0.0000 C   0  0  0  0  0  0  0  0  0  0  0  0
    8.8770    0.2680    0.0000 H   0  0  0  0  0  0  0  0  0  0  0  0
    9.4702    0.8003    0.0000 H   0  0  0  0  0  0  0  0  0  0  0  0
    6.6632    1.7178    0.0000 H   0  0  0  0  0  0  0  0  0  0  0  0
    6.8275    0.9379    0.0000 H   0  0  0  0  0  0  0  0  0  0  0  0
    9.7140    1.5462    0.0000 H   0  0  0  0  0  0  0  0  0  0  0  0
    9.5496    2.3261    0.0000 H   0  0  0  0  0  0  0  0  0  0  0  0
    7.5002    2.9960    0.0000 H   0  0  0  0  0  0  0  0  0  0  0  0
    6.9069    2.4636    0.0000 H   0  0  0  0  0  0  0  0  0  0  0  0
    7.5878   -0.8887    0.0000 H   0  0  0  0  0  0  0  0  0  0  0  0
    8.1811   -0.3564    0.0000 H   0  0  0  0  0  0  0  0  0  0  0  0
    6.5682    0.1444    0.0000 H   0  0  0  0  0  0  0  0  0  0  0  0
    5.9750   -0.3879    0.0000 H   0  0  0  0  0  0  0  0  0  0  0  0
    6.2987   -2.0454    0.0000 H   0  0  0  0  0  0  0  0  0  0  0  0
    6.8919   -1.5131    0.0000 H   0  0  0  0  0  0  0  0  0  0  0  0
    4.8855   -1.1705    0.0000 H   0  0  0  0  0  0  0  0  0  0  0  0
   10.6222    2.7178    0.0000 H   0  0  0  0  0  0  0  0  0  0  0  0
   10.6222    5.9578    0.0000 H   0  0  0  0  0  0  0  0  0  0  0  0
   12.0251    3.5278    0.0000 H   0  0  0  0  0  0  0  0  0  0  0  0
    5.8819   -4.3378    0.0000 H   0  0  0  0  0  0  0  0  0  0  0  0
   12.0251    5.1478    0.0000 H   0  0  0  0  0  0  0  0  0  0  0  0
    2.8660   -2.7178    0.0000 H   0  0  0  0  0  0  0  0  0  0  0  0
    2.8660   -5.9578    0.0000 H   0  0  0  0  0  0  0  0  0  0  0  0
    1.4631   -3.5278    0.0000 H   0  0  0  0  0  0  0  0  0  0  0  0
    1.4631   -5.1478    0.0000 H   0  0  0  0  0  0  0  0  0  0  0  0
  1  3  2  0  0  0  0
  1  4  2  0  0  0  0
  1  7  1  0  0  0  0
  1 21  1  0  0  0  0
  2  8  1  0  0  0  0
  2 20  1  0  0  0  0
  5 11  1  0  0  0  0
  5 12  1  0  0  0  0
  5 15  1  0  0  0  0
  6 13  1  0  0  0  0
  6 14  1  0  0  0  0
  6 17  1  0  0  0  0
  7 18  1  0  0  0  0
  7 46  1  0  0  0  0
  8 17  2  0  0  0  0
  9 21  1  0  0  0  0
  9 25  1  0  0  0  0
  9 28  1  0  0  0  0
 10 25  2  0  0  0  0
 10 26  1  0  0  0  0
 11 13  1  0  0  0  0
 11 32  1  0  0  0  0
 11 33  1  0  0  0  0
 12 14  1  0  0  0  0
 12 34  1  0  0  0  0
 12 35  1  0  0  0  0
 13 36  1  0  0  0  0
 13 37  1  0  0  0  0
 14 38  1  0  0  0  0
 14 39  1  0  0  0  0
 15 16  1  0  0  0  0
 15 40  1  0  0  0  0
 15 41  1  0  0  0  0
 16 18  1  0  0  0  0
 16 42  1  0  0  0  0
 16 43  1  0  0  0  0
 17 19  1  0  0  0  0
 18 44  1  0  0  0  0
 18 45  1  0  0  0  0
 19 20  1  0  0  0  0
 19 22  2  0  0  0  0
 20 23  2  0  0  0  0
 21 26  2  0  0  0  0
 22 24  1  0  0  0  0
 22 47  1  0  0  0  0
 23 27  1  0  0  0  0
 23 48  1  0  0  0  0
 24 27  2  0  0  0  0
 24 49  1  0  0  0  0
 25 29  1  0  0  0  0
 26 50  1  0  0  0  0
 27 51  1  0  0  0  0
 28 30  2  0  0  0  0
 28 52  1  0  0  0  0
 29 31  2  0  0  0  0
 29 53  1  0  0  0  0
 30 31  1  0  0  0  0
 30 54  1  0  0  0  0
 31 55  1  0  0  0  0
M  END
> <PUBCHEM_COMPOUND_CID>
66800991

> <PUBCHEM_COMPOUND_CANONICALIZED>
1

> <PUBCHEM_CACTVS_COMPLEXITY>
697

> <PUBCHEM_CACTVS_HBOND_ACCEPTOR>
8

> <PUBCHEM_CACTVS_HBOND_DONOR>
1

> <PUBCHEM_CACTVS_ROTATABLE_BOND>
7

> <PUBCHEM_CACTVS_SUBSKEYS>
AAADceB7sABgAAAAAAAAAAAAAAAAAWLAAAA8WIAAAAAAAFgB/gAAHAQQQAAADADBWwQ9sd9MGAKkAjJnZHDL0D0xEqBJ2Lw4dJiIaOLA2ZGUIAxokALIyCcQgAAOAAAAAAAEAAAAAAAAAAgAAAAAAAAAAA==

> <PUBCHEM_IUPAC_OPENEYE_NAME>
N-[3-[4-(1,2-benzothiazol-3-yl)piperazin-1-yl]propyl]imidazo[1,2-a]pyridine-3-sulfonamide

> <PUBCHEM_IUPAC_CAS_NAME>
N-[3-[4-(1,2-benzothiazol-3-yl)-1-piperazinyl]propyl]-3-imidazo[1,2-a]pyridinesulfonamide

> <PUBCHEM_IUPAC_NAME_MARKUP>
<I>N</I>-[3-[4-(1,2-benzothiazol-3-yl)piperazin-1-yl]propyl]imidazo[1,2-a]pyridine-3-sulfonamide

> <PUBCHEM_IUPAC_NAME>
N-[3-[4-(1,2-benzothiazol-3-yl)piperazin-1-yl]propyl]imidazo[1,2-a]pyridine-3-sulfonamide

> <PUBCHEM_IUPAC_SYSTEMATIC_NAME>
N-[3-[4-(1,2-benzothiazol-3-yl)piperazin-1-yl]propyl]imidazo[1,2-a]pyridine-3-sulfonamide

> <PUBCHEM_IUPAC_TRADITIONAL_NAME>
N-[3-[4-(1,2-benzothiazol-3-yl)piperazino]propyl]imidazo[1,2-a]pyridine-3-sulfonamide

> <PUBCHEM_IUPAC_INCHI>
InChI=1S/C21H24N6O2S2/c28-31(29,20-16-22-19-8-3-4-11-27(19)20)23-9-5-10-25-12-14-26(15-13-25)21-17-6-1-2-7-18(17)30-24-21/h1-4,6-8,11,16,23H,5,9-10,12-15H2

> <PUBCHEM_IUPAC_INCHIKEY>
YXPPQEAUYCKYSO-UHFFFAOYSA-N

> <PUBCHEM_XLOGP3_AA>
3.8

> <PUBCHEM_EXACT_MASS>
456.14021638

> <PUBCHEM_MOLECULAR_FORMULA>
C21H24N6O2S2

> <PUBCHEM_MOLECULAR_WEIGHT>
456.6

> <PUBCHEM_OPENEYE_CAN_SMILES>
C1CN(CCN1CCCNS(=O)(=O)C2=CN=C3N2C=CC=C3)C4=NSC5=CC=CC=C54

> <PUBCHEM_OPENEYE_ISO_SMILES>
C1CN(CCN1CCCNS(=O)(=O)C2=CN=C3N2C=CC=C3)C4=NSC5=CC=CC=C54

> <PUBCHEM_CACTVS_TPSA>
120

> <PUBCHEM_MONOISOTOPIC_WEIGHT>
456.14021638

> <PUBCHEM_TOTAL_CHARGE>
0

> <PUBCHEM_HEAVY_ATOM_COUNT>
31

> <PUBCHEM_ATOM_DEF_STEREO_COUNT>
0

> <PUBCHEM_ATOM_UDEF_STEREO_COUNT>
0

> <PUBCHEM_BOND_DEF_STEREO_COUNT>
0

> <PUBCHEM_BOND_UDEF_STEREO_COUNT>
0

> <PUBCHEM_ISOTOPIC_ATOM_COUNT>
0

> <PUBCHEM_COMPONENT_COUNT>
1

> <PUBCHEM_CACTVS_TAUTO_COUNT>
-1

> <PUBCHEM_COORDINATE_TYPE>
1
5
255

> <PUBCHEM_BONDANNOTATIONS>
10  25  8
10  26  8
17  19  8
19  20  8
19  22  8
2  20  8
2  8  8
20  23  8
21  26  8
22  24  8
23  27  8
24  27  8
25  29  8
28  30  8
29  31  8
30  31  8
8  17  8
9  21  8
9  25  8
9  28  8

$$$$
