44283757
  -OEChem-09292322212D

 54 57  0     1  0  0  0  0  0999 V2000
    4.9889   -5.1852    0.0000 O   0  0  0  0  0  0  0  0  0  0  0  0
    6.2781   -0.5179    0.0000 N   0  0  0  0  0  0  0  0  0  0  0  0
    5.2619   -3.4299    0.0000 N   0  0  0  0  0  0  0  0  0  0  0  0
    6.8994    1.3831    0.0000 C   0  0  0  0  0  0  0  0  0  0  0  0
    7.5673    0.6388    0.0000 C   0  0  0  0  0  0  0  0  0  0  0  0
    5.9209    1.1769    0.0000 C   0  0  0  0  0  0  0  0  0  0  0  0
    7.2566   -0.3117    0.0000 C   0  0  0  0  0  0  0  0  0  0  0  0
    5.6103    0.2264    0.0000 C   0  0  0  0  0  0  0  0  0  0  0  0
    5.9674   -1.4685    0.0000 C   0  0  0  0  0  0  0  0  0  0  0  0
    4.9889   -1.6747    0.0000 C   0  0  0  0  0  0  0  0  0  0  0  0
    7.2101    2.3336    0.0000 C   0  0  0  0  0  0  0  0  0  0  0  0
    4.6783   -2.6252    0.0000 C   0  0  3  0  0  0  0  0  0  0  0  0
    3.7320   -2.9299    0.0000 C   0  0  0  0  0  0  0  0  0  0  0  0
    6.5422    3.0779    0.0000 C   0  0  0  0  0  0  0  0  0  0  0  0
    8.1886    2.5398    0.0000 C   0  0  0  0  0  0  0  0  0  0  0  0
    3.7320   -3.9299    0.0000 C   0  0  0  0  0  0  0  0  0  0  0  0
    4.6783   -4.2347    0.0000 C   0  0  0  0  0  0  0  0  0  0  0  0
    6.8529    4.0284    0.0000 C   0  0  0  0  0  0  0  0  0  0  0  0
    2.8660   -2.4299    0.0000 C   0  0  0  0  0  0  0  0  0  0  0  0
    8.4993    3.4904    0.0000 C   0  0  0  0  0  0  0  0  0  0  0  0
    7.8314    4.2347    0.0000 C   0  0  0  0  0  0  0  0  0  0  0  0
    2.8660   -4.4299    0.0000 C   0  0  0  0  0  0  0  0  0  0  0  0
    2.0000   -2.9299    0.0000 C   0  0  0  0  0  0  0  0  0  0  0  0
    6.1851    4.7728    0.0000 C   0  0  0  0  0  0  0  0  0  0  0  0
    2.0000   -3.9299    0.0000 C   0  0  0  0  0  0  0  0  0  0  0  0
    8.1421    5.1852    0.0000 C   0  0  0  0  0  0  0  0  0  0  0  0
    7.5061    1.5110    0.0000 H   0  0  0  0  0  0  0  0  0  0  0  0
    8.1142    0.3468    0.0000 H   0  0  0  0  0  0  0  0  0  0  0  0
    7.9498    1.1267    0.0000 H   0  0  0  0  0  0  0  0  0  0  0  0
    5.9004    1.7965    0.0000 H   0  0  0  0  0  0  0  0  0  0  0  0
    5.3071    1.2642    0.0000 H   0  0  0  0  0  0  0  0  0  0  0  0
    7.2772   -0.9314    0.0000 H   0  0  0  0  0  0  0  0  0  0  0  0
    7.8704   -0.3991    0.0000 H   0  0  0  0  0  0  0  0  0  0  0  0
    5.0633    0.5184    0.0000 H   0  0  0  0  0  0  0  0  0  0  0  0
    5.2277   -0.2615    0.0000 H   0  0  0  0  0  0  0  0  0  0  0  0
    5.9880   -2.0881    0.0000 H   0  0  0  0  0  0  0  0  0  0  0  0
    6.5812   -1.5558    0.0000 H   0  0  0  0  0  0  0  0  0  0  0  0
    4.9684   -1.0550    0.0000 H   0  0  0  0  0  0  0  0  0  0  0  0
    4.3751   -1.5873    0.0000 H   0  0  0  0  0  0  0  0  0  0  0  0
    5.2908   -2.5290    0.0000 H   0  0  0  0  0  0  0  0  0  0  0  0
    5.8819   -3.4299    0.0000 H   0  0  0  0  0  0  0  0  0  0  0  0
    5.9356    2.9501    0.0000 H   0  0  0  0  0  0  0  0  0  0  0  0
    8.6027    2.0784    0.0000 H   0  0  0  0  0  0  0  0  0  0  0  0
    2.8660   -1.8099    0.0000 H   0  0  0  0  0  0  0  0  0  0  0  0
    9.1059    3.6182    0.0000 H   0  0  0  0  0  0  0  0  0  0  0  0
    2.8660   -5.0499    0.0000 H   0  0  0  0  0  0  0  0  0  0  0  0
    1.4631   -2.6199    0.0000 H   0  0  0  0  0  0  0  0  0  0  0  0
    6.6465    5.1868    0.0000 H   0  0  0  0  0  0  0  0  0  0  0  0
    5.7710    5.2342    0.0000 H   0  0  0  0  0  0  0  0  0  0  0  0
    5.7236    4.3587    0.0000 H   0  0  0  0  0  0  0  0  0  0  0  0
    1.4631   -4.2399    0.0000 H   0  0  0  0  0  0  0  0  0  0  0  0
    8.7314    4.9926    0.0000 H   0  0  0  0  0  0  0  0  0  0  0  0
    8.3347    5.7745    0.0000 H   0  0  0  0  0  0  0  0  0  0  0  0
    7.5528    5.3778    0.0000 H   0  0  0  0  0  0  0  0  0  0  0  0
  1 17  2  0  0  0  0
  2  7  1  0  0  0  0
  2  8  1  0  0  0  0
  2  9  1  0  0  0  0
  3 12  1  0  0  0  0
  3 17  1  0  0  0  0
  3 41  1  0  0  0  0
  4  5  1  0  0  0  0
  4  6  1  0  0  0  0
  4 11  1  0  0  0  0
  4 27  1  0  0  0  0
  5  7  1  0  0  0  0
  5 28  1  0  0  0  0
  5 29  1  0  0  0  0
  6  8  1  0  0  0  0
  6 30  1  0  0  0  0
  6 31  1  0  0  0  0
  7 32  1  0  0  0  0
  7 33  1  0  0  0  0
  8 34  1  0  0  0  0
  8 35  1  0  0  0  0
  9 10  1  0  0  0  0
  9 36  1  0  0  0  0
  9 37  1  0  0  0  0
 10 12  1  0  0  0  0
 10 38  1  0  0  0  0
 10 39  1  0  0  0  0
 11 14  2  0  0  0  0
 11 15  1  0  0  0  0
 12 13  1  0  0  0  0
 12 40  1  0  0  0  0
 13 16  1  0  0  0  0
 13 19  2  0  0  0  0
 14 18  1  0  0  0  0
 14 42  1  0  0  0  0
 15 20  2  0  0  0  0
 15 43  1  0  0  0  0
 16 17  1  0  0  0  0
 16 22  2  0  0  0  0
 18 21  2  0  0  0  0
 18 24  1  0  0  0  0
 19 23  1  0  0  0  0
 19 44  1  0  0  0  0
 20 21  1  0  0  0  0
 20 45  1  0  0  0  0
 21 26  1  0  0  0  0
 22 25  1  0  0  0  0
 22 46  1  0  0  0  0
 23 25  2  0  0  0  0
 23 47  1  0  0  0  0
 24 48  1  0  0  0  0
 24 49  1  0  0  0  0
 24 50  1  0  0  0  0
 25 51  1  0  0  0  0
 26 52  1  0  0  0  0
 26 53  1  0  0  0  0
 26 54  1  0  0  0  0
M  END
> <PUBCHEM_COMPOUND_CID>
44283757

> <PUBCHEM_COMPOUND_CANONICALIZED>
1

> <PUBCHEM_CACTVS_COMPLEXITY>
485

> <PUBCHEM_CACTVS_HBOND_ACCEPTOR>
2

> <PUBCHEM_CACTVS_HBOND_DONOR>
1

> <PUBCHEM_CACTVS_ROTATABLE_BOND>
4

> <PUBCHEM_CACTVS_SUBSKEYS>
AAADceB7IAAAAAAAAAAAAAAAAAAAAWAAAAA8YIAAAAAAAFgBQAAAHgAQAAAADSjBmAQyAIPAAACIAiFSEACCAAAkAAAIiIEIBMgIIDKA1RGEIQhglgCIiYcciMCOwAACAAAQAACAAAQAACAAAAAAAAAAAA==

> <PUBCHEM_IUPAC_OPENEYE_NAME>
3-[2-[4-(3,4-dimethylphenyl)-1-piperidyl]ethyl]isoindolin-1-one

> <PUBCHEM_IUPAC_CAS_NAME>
3-[2-[4-(3,4-dimethylphenyl)-1-piperidinyl]ethyl]-2,3-dihydroisoindol-1-one

> <PUBCHEM_IUPAC_NAME_MARKUP>
3-[2-[4-(3,4-dimethylphenyl)piperidin-1-yl]ethyl]-2,3-dihydroisoindol-1-one

> <PUBCHEM_IUPAC_NAME>
3-[2-[4-(3,4-dimethylphenyl)piperidin-1-yl]ethyl]-2,3-dihydroisoindol-1-one

> <PUBCHEM_IUPAC_SYSTEMATIC_NAME>
3-[2-[4-(3,4-dimethylphenyl)piperidin-1-yl]ethyl]-2,3-dihydroisoindol-1-one

> <PUBCHEM_IUPAC_TRADITIONAL_NAME>
3-[2-[4-(3,4-dimethylphenyl)piperidino]ethyl]isoindolin-1-one

> <PUBCHEM_IUPAC_INCHI>
InChI=1S/C23H28N2O/c1-16-7-8-19(15-17(16)2)18-9-12-25(13-10-18)14-11-22-20-5-3-4-6-21(20)23(26)24-22/h3-8,15,18,22H,9-14H2,1-2H3,(H,24,26)

> <PUBCHEM_IUPAC_INCHIKEY>
OBHCEADEAPCRBN-UHFFFAOYSA-N

> <PUBCHEM_XLOGP3_AA>
4.2

> <PUBCHEM_EXACT_MASS>
348.220163521

> <PUBCHEM_MOLECULAR_FORMULA>
C23H28N2O

> <PUBCHEM_MOLECULAR_WEIGHT>
348.5

> <PUBCHEM_OPENEYE_CAN_SMILES>
CC1=C(C=C(C=C1)C2CCN(CC2)CCC3C4=CC=CC=C4C(=O)N3)C

> <PUBCHEM_OPENEYE_ISO_SMILES>
CC1=C(C=C(C=C1)C2CCN(CC2)CCC3C4=CC=CC=C4C(=O)N3)C

> <PUBCHEM_CACTVS_TPSA>
32.3

> <PUBCHEM_MONOISOTOPIC_WEIGHT>
348.220163521

> <PUBCHEM_TOTAL_CHARGE>
0

> <PUBCHEM_HEAVY_ATOM_COUNT>
26

> <PUBCHEM_ATOM_DEF_STEREO_COUNT>
0

> <PUBCHEM_ATOM_UDEF_STEREO_COUNT>
1

> <PUBCHEM_BOND_DEF_STEREO_COUNT>
0

> <PUBCHEM_BOND_UDEF_STEREO_COUNT>
0

> <PUBCHEM_ISOTOPIC_ATOM_COUNT>
0

> <PUBCHEM_COMPONENT_COUNT>
1

> <PUBCHEM_CACTVS_TAUTO_COUNT>
-1

> <PUBCHEM_COORDINATE_TYPE>
1
5
255

> <PUBCHEM_BONDANNOTATIONS>
12  10  3
11  14  8
11  15  8
13  16  8
13  19  8
14  18  8
15  20  8
16  22  8
18  21  8
19  23  8
20  21  8
22  25  8
23  25  8

$$$$
