156012880
  -OEChem-09292322422D

 47 50  0     1  0  0  0  0  0999 V2000
    5.5103    1.1224    0.0000 O   0  0  0  0  0  0  0  0  0  0  0  0
    7.2762    2.1602    0.0000 O   0  0  0  0  0  0  0  0  0  0  0  0
    2.0000   -0.8816    0.0000 O   0  5  0  0  0  0  0  0  0  0  0  0
    2.8718    0.6151    0.0000 O   0  0  0  0  0  0  0  0  0  0  0  0
    8.1223   -2.4060    0.0000 N   0  0  3  0  0  0  0  0  0  0  0  0
    2.8680   -0.3849    0.0000 N   0  3  0  0  0  0  0  0  0  0  0  0
    7.2641   -1.9091    0.0000 C   0  0  3  0  0  0  0  0  0  0  0  0
    7.2641   -0.9091    0.0000 C   0  0  0  0  0  0  0  0  0  0  0  0
    6.3981   -2.4091    0.0000 C   0  0  0  0  0  0  0  0  0  0  0  0
    8.1741   -0.4022    0.0000 C   0  0  0  0  0  0  0  0  0  0  0  0
    8.9878   -1.9218    0.0000 C   0  0  0  0  0  0  0  0  0  0  0  0
    6.3981   -0.4091    0.0000 C   0  0  0  0  0  0  0  0  0  0  0  0
    9.0134   -0.9305    0.0000 C   0  0  0  0  0  0  0  0  0  0  0  0
    5.5320   -1.9091    0.0000 C   0  0  0  0  0  0  0  0  0  0  0  0
    5.5320   -0.9091    0.0000 C   0  0  0  0  0  0  0  0  0  0  0  0
    6.3820    0.6324    0.0000 C   0  0  0  0  0  0  0  0  0  0  0  0
    8.1821    0.6394    0.0000 C   0  0  0  0  0  0  0  0  0  0  0  0
    8.1149   -3.4060    0.0000 C   0  0  0  0  0  0  0  0  0  0  0  0
    7.2800    1.1602    0.0000 C   0  0  0  0  0  0  0  0  0  0  0  0
    4.6381   -2.4437    0.0000 C   0  0  0  0  0  0  0  0  0  0  0  0
    4.6381   -0.3744    0.0000 C   0  0  0  0  0  0  0  0  0  0  0  0
    3.7320   -0.8883    0.0000 C   0  0  0  0  0  0  0  0  0  0  0  0
    3.7320   -1.9299    0.0000 C   0  0  0  0  0  0  0  0  0  0  0  0
    5.4987    2.1223    0.0000 C   0  0  0  0  0  0  0  0  0  0  0  0
    8.1403    2.6635    0.0000 C   0  0  0  0  0  0  0  0  0  0  0  0
    4.6270    2.6123    0.0000 C   0  0  0  0  0  0  0  0  0  0  0  0
    3.7552    3.1022    0.0000 C   0  0  0  0  0  0  0  0  0  0  0  0
    7.2637   -2.5291    0.0000 H   0  0  0  0  0  0  0  0  0  0  0  0
    5.9995   -2.8840    0.0000 H   0  0  0  0  0  0  0  0  0  0  0  0
    6.7966   -2.8840    0.0000 H   0  0  0  0  0  0  0  0  0  0  0  0
    9.1895   -2.5081    0.0000 H   0  0  0  0  0  0  0  0  0  0  0  0
    9.6006   -1.8275    0.0000 H   0  0  0  0  0  0  0  0  0  0  0  0
    9.6205   -1.0564    0.0000 H   0  0  0  0  0  0  0  0  0  0  0  0
    9.2452   -0.3554    0.0000 H   0  0  0  0  0  0  0  0  0  0  0  0
    8.7203    0.9473    0.0000 H   0  0  0  0  0  0  0  0  0  0  0  0
    7.4949   -3.4014    0.0000 H   0  0  0  0  0  0  0  0  0  0  0  0
    8.1103   -4.0260    0.0000 H   0  0  0  0  0  0  0  0  0  0  0  0
    8.7349   -3.4106    0.0000 H   0  0  0  0  0  0  0  0  0  0  0  0
    4.6453   -3.0637    0.0000 H   0  0  0  0  0  0  0  0  0  0  0  0
    4.6453    0.2455    0.0000 H   0  0  0  0  0  0  0  0  0  0  0  0
    3.1963   -2.2420    0.0000 H   0  0  0  0  0  0  0  0  0  0  0  0
    6.1105    2.0217    0.0000 H   0  0  0  0  0  0  0  0  0  0  0  0
    5.7040    2.7073    0.0000 H   0  0  0  0  0  0  0  0  0  0  0  0
    8.4523    2.1278    0.0000 H   0  0  0  0  0  0  0  0  0  0  0  0
    8.6760    2.9756    0.0000 H   0  0  0  0  0  0  0  0  0  0  0  0
    7.8282    3.1992    0.0000 H   0  0  0  0  0  0  0  0  0  0  0  0
    3.2147    3.4060    0.0000 H   0  0  0  0  0  0  0  0  0  0  0  0
  1 16  1  0  0  0  0
  1 24  1  0  0  0  0
  2 19  1  0  0  0  0
  2 25  1  0  0  0  0
  3  6  1  0  0  0  0
  4  6  2  0  0  0  0
  5  7  1  0  0  0  0
  5 11  1  0  0  0  0
  5 18  1  0  0  0  0
  6 22  1  0  0  0  0
  7  8  1  0  0  0  0
  7  9  1  0  0  0  0
  7 28  1  0  0  0  0
  8 10  1  0  0  0  0
  8 12  2  0  0  0  0
  9 14  1  0  0  0  0
  9 29  1  0  0  0  0
  9 30  1  0  0  0  0
 10 13  1  0  0  0  0
 10 17  2  0  0  0  0
 11 13  1  0  0  0  0
 11 31  1  0  0  0  0
 11 32  1  0  0  0  0
 12 15  1  0  0  0  0
 12 16  1  0  0  0  0
 13 33  1  0  0  0  0
 13 34  1  0  0  0  0
 14 15  2  0  0  0  0
 14 20  1  0  0  0  0
 15 21  1  0  0  0  0
 16 19  2  0  0  0  0
 17 19  1  0  0  0  0
 17 35  1  0  0  0  0
 18 36  1  0  0  0  0
 18 37  1  0  0  0  0
 18 38  1  0  0  0  0
 20 23  2  0  0  0  0
 20 39  1  0  0  0  0
 21 22  2  0  0  0  0
 21 40  1  0  0  0  0
 22 23  1  0  0  0  0
 23 41  1  0  0  0  0
 24 26  1  0  0  0  0
 24 42  1  0  0  0  0
 24 43  1  0  0  0  0
 25 44  1  0  0  0  0
 25 45  1  0  0  0  0
 25 46  1  0  0  0  0
 26 27  3  0  0  0  0
 27 47  1  0  0  0  0
M  CHG  2   3  -1   6   1
M  END
> <PUBCHEM_COMPOUND_CID>
156012880

> <PUBCHEM_COMPOUND_CANONICALIZED>
1

> <PUBCHEM_CACTVS_COMPLEXITY>
611

> <PUBCHEM_CACTVS_HBOND_ACCEPTOR>
5

> <PUBCHEM_CACTVS_HBOND_DONOR>
0

> <PUBCHEM_CACTVS_ROTATABLE_BOND>
3

> <PUBCHEM_CACTVS_SUBSKEYS>
AAADceB7OAAAAAAAAAAAAAAAAAAAAAAAAAA8YMEAAAAAAADxQAAAHgAEAAAADCzhmAYyxoMQRADBGiRCQwCCCAAgIgAoiAAO7IoNJiKEsZuGOCrkwBGK6Aew0PMOqAADQAAYQADQAAaAADSAAAAAAAAAAA==

> <PUBCHEM_IUPAC_OPENEYE_NAME>
2-methoxy-6-methyl-10-nitro-1-prop-2-ynoxy-5,6,6a,7-tetrahydro-4H-dibenzo[de,g]quinoline

> <PUBCHEM_IUPAC_CAS_NAME>
2-methoxy-6-methyl-10-nitro-1-prop-2-ynoxy-5,6,6a,7-tetrahydro-4H-dibenzo[de,g]quinoline

> <PUBCHEM_IUPAC_NAME_MARKUP>
2-methoxy-6-methyl-10-nitro-1-prop-2-ynoxy-5,6,6<I>a</I>,7-tetrahydro-4<I>H</I>-dibenzo[de,g]quinoline

> <PUBCHEM_IUPAC_NAME>
2-methoxy-6-methyl-10-nitro-1-prop-2-ynoxy-5,6,6a,7-tetrahydro-4H-dibenzo[de,g]quinoline

> <PUBCHEM_IUPAC_SYSTEMATIC_NAME>
2-methoxy-6-methyl-10-nitro-1-prop-2-ynoxy-5,6,6a,7-tetrahydro-4H-dibenzo[de,g]quinoline

> <PUBCHEM_IUPAC_TRADITIONAL_NAME>
2-methoxy-6-methyl-10-nitro-1-propargyloxy-5,6,6a,7-tetrahydro-4H-dibenzo[de,g]quinoline

> <PUBCHEM_IUPAC_INCHI>
InChI=1S/C21H20N2O4/c1-4-9-27-21-18(26-3)11-14-7-8-22(2)17-10-13-5-6-15(23(24)25)12-16(13)20(21)19(14)17/h1,5-6,11-12,17H,7-10H2,2-3H3

> <PUBCHEM_IUPAC_INCHIKEY>
LNLWQXMVVFJRDW-UHFFFAOYSA-N

> <PUBCHEM_XLOGP3_AA>
3.4

> <PUBCHEM_EXACT_MASS>
364.14230712

> <PUBCHEM_MOLECULAR_FORMULA>
C21H20N2O4

> <PUBCHEM_MOLECULAR_WEIGHT>
364.4

> <PUBCHEM_OPENEYE_CAN_SMILES>
CN1CCC2=CC(=C(C3=C2C1CC4=C3C=C(C=C4)[N+](=O)[O-])OCC#C)OC

> <PUBCHEM_OPENEYE_ISO_SMILES>
CN1CCC2=CC(=C(C3=C2C1CC4=C3C=C(C=C4)[N+](=O)[O-])OCC#C)OC

> <PUBCHEM_CACTVS_TPSA>
67.5

> <PUBCHEM_MONOISOTOPIC_WEIGHT>
364.14230712

> <PUBCHEM_TOTAL_CHARGE>
0

> <PUBCHEM_HEAVY_ATOM_COUNT>
27

> <PUBCHEM_ATOM_DEF_STEREO_COUNT>
0

> <PUBCHEM_ATOM_UDEF_STEREO_COUNT>
1

> <PUBCHEM_BOND_DEF_STEREO_COUNT>
0

> <PUBCHEM_BOND_UDEF_STEREO_COUNT>
0

> <PUBCHEM_ISOTOPIC_ATOM_COUNT>
0

> <PUBCHEM_COMPONENT_COUNT>
1

> <PUBCHEM_CACTVS_TAUTO_COUNT>
-1

> <PUBCHEM_COORDINATE_TYPE>
1
5
255

> <PUBCHEM_BONDANNOTATIONS>
10  17  8
12  16  8
14  15  8
14  20  8
15  21  8
16  19  8
17  19  8
20  23  8
21  22  8
22  23  8
7  9  3
8  10  8
8  12  8

$$$$
