155561062
  -OEChem-09292322082D

 56 60  0     0  0  0  0  0  0999 V2000
    4.5274    2.8354    0.0000 S   0  0  0  0  0  0  0  0  0  0  0  0
    5.7533   -4.7796    0.0000 F   0  0  0  0  0  0  0  0  0  0  0  0
    7.0208   -4.1521    0.0000 F   0  0  0  0  0  0  0  0  0  0  0  0
    5.1259   -3.5121    0.0000 F   0  0  0  0  0  0  0  0  0  0  0  0
    8.3374    2.8751    0.0000 N   0  0  0  0  0  0  0  0  0  0  0  0
    6.3518    2.4798    0.0000 N   0  0  0  0  0  0  0  0  0  0  0  0
    6.7328    0.7205    0.0000 N   0  0  0  0  0  0  0  0  0  0  0  0
    5.3923   -0.4356    0.0000 N   0  0  0  0  0  0  0  0  0  0  0  0
    9.3148    3.0868    0.0000 C   0  0  0  0  0  0  0  0  0  0  0  0
    7.6654    3.6156    0.0000 C   0  0  0  0  0  0  0  0  0  0  0  0
    9.6201    4.0390    0.0000 C   0  0  0  0  0  0  0  0  0  0  0  0
    7.9708    4.5679    0.0000 C   0  0  0  0  0  0  0  0  0  0  0  0
    8.9481    4.7796    0.0000 C   0  0  0  0  0  0  0  0  0  0  0  0
    4.0274    1.2965    0.0000 C   0  0  0  0  0  0  0  0  0  0  0  0
    3.3424    0.5118    0.0000 C   0  0  0  0  0  0  0  0  0  0  0  0
    2.3219    0.7205    0.0000 C   0  0  0  0  0  0  0  0  0  0  0  0
    2.0000    1.7112    0.0000 C   0  0  0  0  0  0  0  0  0  0  0  0
    3.7183    2.2476    0.0000 C   0  0  0  0  0  0  0  0  0  0  0  0
    2.7029    2.4798    0.0000 C   0  0  0  0  0  0  0  0  0  0  0  0
    8.0321    1.9228    0.0000 C   0  0  0  0  0  0  0  0  0  0  0  0
    5.0274    1.2965    0.0000 C   0  0  0  0  0  0  0  0  0  0  0  0
    5.3364    2.2476    0.0000 C   0  0  0  0  0  0  0  0  0  0  0  0
    7.0547    1.7112    0.0000 C   0  0  0  0  0  0  0  0  0  0  0  0
    5.7123    0.5118    0.0000 C   0  0  0  0  0  0  0  0  0  0  0  0
    6.0528   -1.1865    0.0000 C   0  0  0  0  0  0  0  0  0  0  0  0
    5.7328   -2.1339    0.0000 C   0  0  0  0  0  0  0  0  0  0  0  0
    7.0333   -0.9899    0.0000 C   0  0  0  0  0  0  0  0  0  0  0  0
    6.3933   -2.8847    0.0000 C   0  0  0  0  0  0  0  0  0  0  0  0
    7.6938   -1.7407    0.0000 C   0  0  0  0  0  0  0  0  0  0  0  0
    7.3738   -2.6881    0.0000 C   0  0  0  0  0  0  0  0  0  0  0  0
    6.0733   -3.8321    0.0000 C   0  0  0  0  0  0  0  0  0  0  0  0
    9.3388    2.4672    0.0000 H   0  0  0  0  0  0  0  0  0  0  0  0
    9.9290    3.0028    0.0000 H   0  0  0  0  0  0  0  0  0  0  0  0
    7.1169    3.9046    0.0000 H   0  0  0  0  0  0  0  0  0  0  0  0
    7.2856    3.1256    0.0000 H   0  0  0  0  0  0  0  0  0  0  0  0
   10.1686    3.7500    0.0000 H   0  0  0  0  0  0  0  0  0  0  0  0
    9.9999    4.5290    0.0000 H   0  0  0  0  0  0  0  0  0  0  0  0
    7.9467    5.1874    0.0000 H   0  0  0  0  0  0  0  0  0  0  0  0
    7.3565    4.6518    0.0000 H   0  0  0  0  0  0  0  0  0  0  0  0
    9.4726    5.1101    0.0000 H   0  0  0  0  0  0  0  0  0  0  0  0
    8.7136    5.3535    0.0000 H   0  0  0  0  0  0  0  0  0  0  0  0
    3.1160   -0.0654    0.0000 H   0  0  0  0  0  0  0  0  0  0  0  0
    3.8724    0.1900    0.0000 H   0  0  0  0  0  0  0  0  0  0  0  0
    1.7081    0.6326    0.0000 H   0  0  0  0  0  0  0  0  0  0  0  0
    2.3034    0.1008    0.0000 H   0  0  0  0  0  0  0  0  0  0  0  0
    1.6208    2.2017    0.0000 H   0  0  0  0  0  0  0  0  0  0  0  0
    1.4518    1.4215    0.0000 H   0  0  0  0  0  0  0  0  0  0  0  0
    2.9426    3.0517    0.0000 H   0  0  0  0  0  0  0  0  0  0  0  0
    2.1806    2.8138    0.0000 H   0  0  0  0  0  0  0  0  0  0  0  0
    8.0561    1.3033    0.0000 H   0  0  0  0  0  0  0  0  0  0  0  0
    8.6464    1.8389    0.0000 H   0  0  0  0  0  0  0  0  0  0  0  0
    4.7844   -0.5575    0.0000 H   0  0  0  0  0  0  0  0  0  0  0  0
    5.1249   -2.2558    0.0000 H   0  0  0  0  0  0  0  0  0  0  0  0
    7.2317   -0.4025    0.0000 H   0  0  0  0  0  0  0  0  0  0  0  0
    8.3017   -1.6188    0.0000 H   0  0  0  0  0  0  0  0  0  0  0  0
    7.7833   -3.1536    0.0000 H   0  0  0  0  0  0  0  0  0  0  0  0
  1 18  1  0  0  0  0
  1 22  1  0  0  0  0
  2 31  1  0  0  0  0
  3 31  1  0  0  0  0
  4 31  1  0  0  0  0
  5  9  1  0  0  0  0
  5 10  1  0  0  0  0
  5 20  1  0  0  0  0
  6 22  2  0  0  0  0
  6 23  1  0  0  0  0
  7 23  2  0  0  0  0
  7 24  1  0  0  0  0
  8 24  1  0  0  0  0
  8 25  1  0  0  0  0
  8 52  1  0  0  0  0
  9 11  1  0  0  0  0
  9 32  1  0  0  0  0
  9 33  1  0  0  0  0
 10 12  1  0  0  0  0
 10 34  1  0  0  0  0
 10 35  1  0  0  0  0
 11 13  1  0  0  0  0
 11 36  1  0  0  0  0
 11 37  1  0  0  0  0
 12 13  1  0  0  0  0
 12 38  1  0  0  0  0
 12 39  1  0  0  0  0
 13 40  1  0  0  0  0
 13 41  1  0  0  0  0
 14 15  1  0  0  0  0
 14 18  2  0  0  0  0
 14 21  1  0  0  0  0
 15 16  1  0  0  0  0
 15 42  1  0  0  0  0
 15 43  1  0  0  0  0
 16 17  1  0  0  0  0
 16 44  1  0  0  0  0
 16 45  1  0  0  0  0
 17 19  1  0  0  0  0
 17 46  1  0  0  0  0
 17 47  1  0  0  0  0
 18 19  1  0  0  0  0
 19 48  1  0  0  0  0
 19 49  1  0  0  0  0
 20 23  1  0  0  0  0
 20 50  1  0  0  0  0
 20 51  1  0  0  0  0
 21 22  1  0  0  0  0
 21 24  2  0  0  0  0
 25 26  1  0  0  0  0
 25 27  2  0  0  0  0
 26 28  2  0  0  0  0
 26 53  1  0  0  0  0
 27 29  1  0  0  0  0
 27 54  1  0  0  0  0
 28 30  1  0  0  0  0
 28 31  1  0  0  0  0
 29 30  2  0  0  0  0
 29 55  1  0  0  0  0
 30 56  1  0  0  0  0
M  END
> <PUBCHEM_COMPOUND_CID>
155561062

> <PUBCHEM_COMPOUND_CANONICALIZED>
1

> <PUBCHEM_CACTVS_COMPLEXITY>
600

> <PUBCHEM_CACTVS_HBOND_ACCEPTOR>
8

> <PUBCHEM_CACTVS_HBOND_DONOR>
1

> <PUBCHEM_CACTVS_ROTATABLE_BOND>
4

> <PUBCHEM_CACTVS_SUBSKEYS>
AAADceB7gYBAAAAAAAAAAAAAAAAAASAAAAA8eIEAAAAAAFgB/AAAHQQQAAAADAjBWxQx8dfIEAikAiZiZACD0KlhCrgJmDA4ZJiIaGLg2dGUJAxokALoyCcQgMAOgAAAQAAAAAAAAACAAAgAAAAAAAAAAA==

> <PUBCHEM_IUPAC_OPENEYE_NAME>
2-(1-piperidylmethyl)-N-[3-(trifluoromethyl)phenyl]-5,6,7,8-tetrahydrobenzothiopheno[2,3-d]pyrimidin-4-amine

> <PUBCHEM_IUPAC_CAS_NAME>
2-(1-piperidinylmethyl)-N-[3-(trifluoromethyl)phenyl]-5,6,7,8-tetrahydro-[1]benzothiolo[2,3-d]pyrimidin-4-amine

> <PUBCHEM_IUPAC_NAME_MARKUP>
2-(piperidin-1-ylmethyl)-<I>N</I>-[3-(trifluoromethyl)phenyl]-5,6,7,8-tetrahydro-[1]benzothiolo[2,3-d]pyrimidin-4-amine

> <PUBCHEM_IUPAC_NAME>
2-(piperidin-1-ylmethyl)-N-[3-(trifluoromethyl)phenyl]-5,6,7,8-tetrahydro-[1]benzothiolo[2,3-d]pyrimidin-4-amine

> <PUBCHEM_IUPAC_SYSTEMATIC_NAME>
2-(piperidin-1-ylmethyl)-N-[3-(trifluoromethyl)phenyl]-5,6,7,8-tetrahydro-[1]benzothiolo[2,3-d]pyrimidin-4-amine

> <PUBCHEM_IUPAC_TRADITIONAL_NAME>
[2-(piperidinomethyl)-5,6,7,8-tetrahydrobenzothiopheno[2,3-d]pyrimidin-4-yl]-[3-(trifluoromethyl)phenyl]amine

> <PUBCHEM_IUPAC_INCHI>
InChI=1S/C23H25F3N4S/c24-23(25,26)15-7-6-8-16(13-15)27-21-20-17-9-2-3-10-18(17)31-22(20)29-19(28-21)14-30-11-4-1-5-12-30/h6-8,13H,1-5,9-12,14H2,(H,27,28,29)

> <PUBCHEM_IUPAC_INCHIKEY>
PDZANNHUOIIIRT-UHFFFAOYSA-N

> <PUBCHEM_XLOGP3_AA>
6.3

> <PUBCHEM_EXACT_MASS>
446.17520247

> <PUBCHEM_MOLECULAR_FORMULA>
C23H25F3N4S

> <PUBCHEM_MOLECULAR_WEIGHT>
446.5

> <PUBCHEM_OPENEYE_CAN_SMILES>
C1CCN(CC1)CC2=NC(=C3C4=C(CCCC4)SC3=N2)NC5=CC=CC(=C5)C(F)(F)F

> <PUBCHEM_OPENEYE_ISO_SMILES>
C1CCN(CC1)CC2=NC(=C3C4=C(CCCC4)SC3=N2)NC5=CC=CC(=C5)C(F)(F)F

> <PUBCHEM_CACTVS_TPSA>
69.3

> <PUBCHEM_MONOISOTOPIC_WEIGHT>
446.17520247

> <PUBCHEM_TOTAL_CHARGE>
0

> <PUBCHEM_HEAVY_ATOM_COUNT>
31

> <PUBCHEM_ATOM_DEF_STEREO_COUNT>
0

> <PUBCHEM_ATOM_UDEF_STEREO_COUNT>
0

> <PUBCHEM_BOND_DEF_STEREO_COUNT>
0

> <PUBCHEM_BOND_UDEF_STEREO_COUNT>
0

> <PUBCHEM_ISOTOPIC_ATOM_COUNT>
0

> <PUBCHEM_COMPONENT_COUNT>
1

> <PUBCHEM_CACTVS_TAUTO_COUNT>
-1

> <PUBCHEM_COORDINATE_TYPE>
1
5
255

> <PUBCHEM_BONDANNOTATIONS>
1  18  8
1  22  8
14  18  8
14  21  8
21  22  8
21  24  8
25  26  8
25  27  8
26  28  8
27  29  8
28  30  8
29  30  8
6  22  8
6  23  8
7  23  8
7  24  8

$$$$
