137650900
  -OEChem-09292322472D

 69 73  0     0  0  0  0  0  0999 V2000
    4.6701   -2.7148    0.0000 S   0  0  0  0  0  0  0  0  0  0  0  0
    6.4021    0.2852    0.0000 N   0  0  0  0  0  0  0  0  0  0  0  0
    6.4021    4.2852    0.0000 N   0  0  0  0  0  0  0  0  0  0  0  0
    3.8611   -4.3026    0.0000 N   0  0  0  0  0  0  0  0  0  0  0  0
    5.4791   -4.3026    0.0000 N   0  0  0  0  0  0  0  0  0  0  0  0
    9.0002    7.7852    0.0000 N   0  0  0  0  0  0  0  0  0  0  0  0
    5.1701   -5.2536    0.0000 N   0  0  0  0  0  0  0  0  0  0  0  0
    6.4021    2.2852    0.0000 C   0  0  0  0  0  0  0  0  0  0  0  0
    5.5361    1.7852    0.0000 C   0  0  0  0  0  0  0  0  0  0  0  0
    7.2682    1.7852    0.0000 C   0  0  0  0  0  0  0  0  0  0  0  0
    7.2682    2.7852    0.0000 C   0  0  0  0  0  0  0  0  0  0  0  0
    5.5361    2.7852    0.0000 C   0  0  0  0  0  0  0  0  0  0  0  0
    5.5361    0.7852    0.0000 C   0  0  0  0  0  0  0  0  0  0  0  0
    7.2682    0.7852    0.0000 C   0  0  0  0  0  0  0  0  0  0  0  0
    7.2682    3.7852    0.0000 C   0  0  0  0  0  0  0  0  0  0  0  0
    5.5361    3.7852    0.0000 C   0  0  0  0  0  0  0  0  0  0  0  0
    6.4021   -0.7148    0.0000 C   0  0  0  0  0  0  0  0  0  0  0  0
    6.4021    5.2852    0.0000 C   0  0  0  0  0  0  0  0  0  0  0  0
    5.5361   -1.2148    0.0000 C   0  0  0  0  0  0  0  0  0  0  0  0
    7.2682    5.7852    0.0000 C   0  0  0  0  0  0  0  0  0  0  0  0
    5.5361    5.7852    0.0000 C   0  0  0  0  0  0  0  0  0  0  0  0
    5.5361   -2.2148    0.0000 C   0  0  0  0  0  0  0  0  0  0  0  0
    7.2682    6.7852    0.0000 C   0  0  0  0  0  0  0  0  0  0  0  0
    5.5361    6.7852    0.0000 C   0  0  0  0  0  0  0  0  0  0  0  0
    6.4021    7.2852    0.0000 C   0  0  0  0  0  0  0  0  0  0  0  0
    8.1342    7.2852    0.0000 C   0  0  0  0  0  0  0  0  0  0  0  0
    4.6701   -3.7148    0.0000 C   0  0  0  0  0  0  0  0  0  0  0  0
    4.1701   -5.2536    0.0000 C   0  0  0  0  0  0  0  0  0  0  0  0
    2.9100   -3.9936    0.0000 C   0  0  0  0  0  0  0  0  0  0  0  0
    3.5823   -6.0626    0.0000 C   0  0  0  0  0  0  0  0  0  0  0  0
    2.5878   -5.9581    0.0000 C   0  0  0  0  0  0  0  0  0  0  0  0
    3.9890   -6.9762    0.0000 C   0  0  0  0  0  0  0  0  0  0  0  0
    2.0000   -6.7671    0.0000 C   0  0  0  0  0  0  0  0  0  0  0  0
    3.4013   -7.7852    0.0000 C   0  0  0  0  0  0  0  0  0  0  0  0
    2.4067   -7.6807    0.0000 C   0  0  0  0  0  0  0  0  0  0  0  0
    5.3241    2.3678    0.0000 H   0  0  0  0  0  0  0  0  0  0  0  0
    4.9255    1.6776    0.0000 H   0  0  0  0  0  0  0  0  0  0  0  0
    7.8788    1.6776    0.0000 H   0  0  0  0  0  0  0  0  0  0  0  0
    7.4802    2.3678    0.0000 H   0  0  0  0  0  0  0  0  0  0  0  0
    7.4802    2.2026    0.0000 H   0  0  0  0  0  0  0  0  0  0  0  0
    7.8788    2.8929    0.0000 H   0  0  0  0  0  0  0  0  0  0  0  0
    4.9255    2.8929    0.0000 H   0  0  0  0  0  0  0  0  0  0  0  0
    5.3241    2.2026    0.0000 H   0  0  0  0  0  0  0  0  0  0  0  0
    4.9255    0.8929    0.0000 H   0  0  0  0  0  0  0  0  0  0  0  0
    5.3241    0.2026    0.0000 H   0  0  0  0  0  0  0  0  0  0  0  0
    7.4802    0.2026    0.0000 H   0  0  0  0  0  0  0  0  0  0  0  0
    7.8788    0.8929    0.0000 H   0  0  0  0  0  0  0  0  0  0  0  0
    7.8788    3.6776    0.0000 H   0  0  0  0  0  0  0  0  0  0  0  0
    7.4802    4.3678    0.0000 H   0  0  0  0  0  0  0  0  0  0  0  0
    5.3241    4.3678    0.0000 H   0  0  0  0  0  0  0  0  0  0  0  0
    4.9255    3.6776    0.0000 H   0  0  0  0  0  0  0  0  0  0  0  0
    6.6142   -1.2974    0.0000 H   0  0  0  0  0  0  0  0  0  0  0  0
    7.0127   -0.6071    0.0000 H   0  0  0  0  0  0  0  0  0  0  0  0
    5.3241   -0.6322    0.0000 H   0  0  0  0  0  0  0  0  0  0  0  0
    4.9255   -1.3224    0.0000 H   0  0  0  0  0  0  0  0  0  0  0  0
    7.8051    5.4752    0.0000 H   0  0  0  0  0  0  0  0  0  0  0  0
    4.9992    5.4752    0.0000 H   0  0  0  0  0  0  0  0  0  0  0  0
    5.7482   -2.7974    0.0000 H   0  0  0  0  0  0  0  0  0  0  0  0
    6.1467   -2.1071    0.0000 H   0  0  0  0  0  0  0  0  0  0  0  0
    4.9992    7.0952    0.0000 H   0  0  0  0  0  0  0  0  0  0  0  0
    6.4021    7.9052    0.0000 H   0  0  0  0  0  0  0  0  0  0  0  0
    3.1016   -3.4039    0.0000 H   0  0  0  0  0  0  0  0  0  0  0  0
    2.3204   -3.8020    0.0000 H   0  0  0  0  0  0  0  0  0  0  0  0
    2.7184   -4.5832    0.0000 H   0  0  0  0  0  0  0  0  0  0  0  0
    2.3356   -5.3917    0.0000 H   0  0  0  0  0  0  0  0  0  0  0  0
    4.6056   -7.0410    0.0000 H   0  0  0  0  0  0  0  0  0  0  0  0
    1.3834   -6.7023    0.0000 H   0  0  0  0  0  0  0  0  0  0  0  0
    3.6534   -8.3516    0.0000 H   0  0  0  0  0  0  0  0  0  0  0  0
    2.0423   -8.1823    0.0000 H   0  0  0  0  0  0  0  0  0  0  0  0
  1 22  1  0  0  0  0
  1 27  1  0  0  0  0
  2 13  1  0  0  0  0
  2 14  1  0  0  0  0
  2 17  1  0  0  0  0
  3 15  1  0  0  0  0
  3 16  1  0  0  0  0
  3 18  1  0  0  0  0
  4 27  1  0  0  0  0
  4 28  1  0  0  0  0
  4 29  1  0  0  0  0
  5  7  1  0  0  0  0
  5 27  2  0  0  0  0
  6 26  3  0  0  0  0
  7 28  2  0  0  0  0
  8  9  1  0  0  0  0
  8 10  1  0  0  0  0
  8 11  1  0  0  0  0
  8 12  1  0  0  0  0
  9 13  1  0  0  0  0
  9 36  1  0  0  0  0
  9 37  1  0  0  0  0
 10 14  1  0  0  0  0
 10 38  1  0  0  0  0
 10 39  1  0  0  0  0
 11 15  1  0  0  0  0
 11 40  1  0  0  0  0
 11 41  1  0  0  0  0
 12 16  1  0  0  0  0
 12 42  1  0  0  0  0
 12 43  1  0  0  0  0
 13 44  1  0  0  0  0
 13 45  1  0  0  0  0
 14 46  1  0  0  0  0
 14 47  1  0  0  0  0
 15 48  1  0  0  0  0
 15 49  1  0  0  0  0
 16 50  1  0  0  0  0
 16 51  1  0  0  0  0
 17 19  1  0  0  0  0
 17 52  1  0  0  0  0
 17 53  1  0  0  0  0
 18 20  1  0  0  0  0
 18 21  2  0  0  0  0
 19 22  1  0  0  0  0
 19 54  1  0  0  0  0
 19 55  1  0  0  0  0
 20 23  2  0  0  0  0
 20 56  1  0  0  0  0
 21 24  1  0  0  0  0
 21 57  1  0  0  0  0
 22 58  1  0  0  0  0
 22 59  1  0  0  0  0
 23 25  1  0  0  0  0
 23 26  1  0  0  0  0
 24 25  2  0  0  0  0
 24 60  1  0  0  0  0
 25 61  1  0  0  0  0
 28 30  1  0  0  0  0
 29 62  1  0  0  0  0
 29 63  1  0  0  0  0
 29 64  1  0  0  0  0
 30 31  2  0  0  0  0
 30 32  1  0  0  0  0
 31 33  1  0  0  0  0
 31 65  1  0  0  0  0
 32 34  2  0  0  0  0
 32 66  1  0  0  0  0
 33 35  2  0  0  0  0
 33 67  1  0  0  0  0
 34 35  1  0  0  0  0
 34 68  1  0  0  0  0
 35 69  1  0  0  0  0
M  END
> <PUBCHEM_COMPOUND_CID>
137650900

> <PUBCHEM_COMPOUND_CANONICALIZED>
1

> <PUBCHEM_CACTVS_COMPLEXITY>
700

> <PUBCHEM_CACTVS_HBOND_ACCEPTOR>
6

> <PUBCHEM_CACTVS_HBOND_DONOR>
0

> <PUBCHEM_CACTVS_ROTATABLE_BOND>
7

> <PUBCHEM_CACTVS_SUBSKEYS>
AAADcfB7gABAAAAAAAAAAAAAAAAAAWAAAAA8eIEAAAAAAAAB0AAAHAQIAAAADgjFWwSz0IcMEAiyBiZiZACy0AthArAdyCAoZJiIqKLgmZGEIAhgiALIyA8QgAAPAAAAQAAAAAAAAACAAAAAAAAAAAAAAA==

> <PUBCHEM_IUPAC_OPENEYE_NAME>
3-[9-[3-[(4-methyl-5-phenyl-1,2,4-triazol-3-yl)sulfanyl]propyl]-3,9-diazaspiro[5.5]undecan-3-yl]benzonitrile

> <PUBCHEM_IUPAC_CAS_NAME>
3-[9-[3-[(4-methyl-5-phenyl-1,2,4-triazol-3-yl)thio]propyl]-3,9-diazaspiro[5.5]undecan-3-yl]benzonitrile

> <PUBCHEM_IUPAC_NAME_MARKUP>
3-[9-[3-[(4-methyl-5-phenyl-1,2,4-triazol-3-yl)sulfanyl]propyl]-3,9-diazaspiro[5.5]undecan-3-yl]benzonitrile

> <PUBCHEM_IUPAC_NAME>
3-[9-[3-[(4-methyl-5-phenyl-1,2,4-triazol-3-yl)sulfanyl]propyl]-3,9-diazaspiro[5.5]undecan-3-yl]benzonitrile

> <PUBCHEM_IUPAC_SYSTEMATIC_NAME>
3-[9-[3-[(4-methyl-5-phenyl-1,2,4-triazol-3-yl)sulfanyl]propyl]-3,9-diazaspiro[5.5]undecan-3-yl]benzenecarbonitrile

> <PUBCHEM_IUPAC_TRADITIONAL_NAME>
3-[9-[3-[(4-methyl-5-phenyl-1,2,4-triazol-3-yl)thio]propyl]-3,9-diazaspiro[5.5]undecan-3-yl]benzonitrile

> <PUBCHEM_IUPAC_INCHI>
InChI=1S/C28H34N6S/c1-32-26(24-8-3-2-4-9-24)30-31-27(32)35-20-6-15-33-16-11-28(12-17-33)13-18-34(19-14-28)25-10-5-7-23(21-25)22-29/h2-5,7-10,21H,6,11-20H2,1H3

> <PUBCHEM_IUPAC_INCHIKEY>
VDNJPDREVJLHKX-UHFFFAOYSA-N

> <PUBCHEM_XLOGP3_AA>
5

> <PUBCHEM_EXACT_MASS>
486.25656628

> <PUBCHEM_MOLECULAR_FORMULA>
C28H34N6S

> <PUBCHEM_MOLECULAR_WEIGHT>
486.7

> <PUBCHEM_OPENEYE_CAN_SMILES>
CN1C(=NN=C1SCCCN2CCC3(CC2)CCN(CC3)C4=CC=CC(=C4)C#N)C5=CC=CC=C5

> <PUBCHEM_OPENEYE_ISO_SMILES>
CN1C(=NN=C1SCCCN2CCC3(CC2)CCN(CC3)C4=CC=CC(=C4)C#N)C5=CC=CC=C5

> <PUBCHEM_CACTVS_TPSA>
86.3

> <PUBCHEM_MONOISOTOPIC_WEIGHT>
486.25656628

> <PUBCHEM_TOTAL_CHARGE>
0

> <PUBCHEM_HEAVY_ATOM_COUNT>
35

> <PUBCHEM_ATOM_DEF_STEREO_COUNT>
0

> <PUBCHEM_ATOM_UDEF_STEREO_COUNT>
0

> <PUBCHEM_BOND_DEF_STEREO_COUNT>
0

> <PUBCHEM_BOND_UDEF_STEREO_COUNT>
0

> <PUBCHEM_ISOTOPIC_ATOM_COUNT>
0

> <PUBCHEM_COMPONENT_COUNT>
1

> <PUBCHEM_CACTVS_TAUTO_COUNT>
-1

> <PUBCHEM_COORDINATE_TYPE>
1
5
255

> <PUBCHEM_BONDANNOTATIONS>
18  20  8
18  21  8
20  23  8
21  24  8
23  25  8
24  25  8
30  31  8
30  32  8
31  33  8
32  34  8
33  35  8
34  35  8
4  27  8
4  28  8
5  27  8
5  7  8
7  28  8

$$$$
