44340415
  -OEChem-09292322192D

 63 67  0     1  0  0  0  0  0999 V2000
    8.2050   -2.8807    0.0000 O   0  0  0  0  0  0  0  0  0  0  0  0
    9.9371   -2.8807    0.0000 O   0  0  0  0  0  0  0  0  0  0  0  0
    5.3903   -3.0831    0.0000 N   0  0  3  0  0  0  0  0  0  0  0  0
    7.3390   -1.3807    0.0000 N   0  0  0  0  0  0  0  0  0  0  0  0
    6.4730   -1.8807    0.0000 C   0  0  2  0  0  0  0  0  0  0  0  0
    5.5594   -1.4740    0.0000 C   0  0  0  0  0  0  0  0  0  0  0  0
    6.3684   -2.8752    0.0000 C   0  0  0  0  0  0  0  0  0  0  0  0
    4.8903   -2.2171    0.0000 C   0  0  0  0  0  0  0  0  0  0  0  0
    4.9836   -3.9967    0.0000 C   0  0  0  0  0  0  0  0  0  0  0  0
    3.9890   -4.1012    0.0000 C   0  0  0  0  0  0  0  0  0  0  0  0
    8.2050   -1.8807    0.0000 C   0  0  0  0  0  0  0  0  0  0  0  0
    9.0710   -1.3807    0.0000 C   0  0  0  0  0  0  0  0  0  0  0  0
    3.4013   -3.2922    0.0000 C   0  0  0  0  0  0  0  0  0  0  0  0
    3.5823   -5.0148    0.0000 C   0  0  0  0  0  0  0  0  0  0  0  0
    9.9371   -1.8807    0.0000 C   0  0  0  0  0  0  0  0  0  0  0  0
    9.0710   -0.3807    0.0000 C   0  0  0  0  0  0  0  0  0  0  0  0
   10.8031   -1.3807    0.0000 C   0  0  0  0  0  0  0  0  0  0  0  0
    2.4067   -3.3967    0.0000 C   0  0  0  0  0  0  0  0  0  0  0  0
    2.5878   -5.1193    0.0000 C   0  0  0  0  0  0  0  0  0  0  0  0
   10.8031   -0.3807    0.0000 C   0  0  0  0  0  0  0  0  0  0  0  0
    9.9371    0.1193    0.0000 C   0  0  0  0  0  0  0  0  0  0  0  0
    2.0000   -4.3103    0.0000 C   0  0  0  0  0  0  0  0  0  0  0  0
   11.6970   -1.9154    0.0000 C   0  0  0  0  0  0  0  0  0  0  0  0
   11.6970    0.1540    0.0000 C   0  0  0  0  0  0  0  0  0  0  0  0
   12.6031   -1.4015    0.0000 C   0  0  0  0  0  0  0  0  0  0  0  0
   12.6031   -0.3599    0.0000 C   0  0  0  0  0  0  0  0  0  0  0  0
    9.9371    1.1193    0.0000 C   0  0  0  0  0  0  0  0  0  0  0  0
   10.8031   -3.3807    0.0000 C   0  0  0  0  0  0  0  0  0  0  0  0
    9.9371    2.1193    0.0000 C   0  0  0  0  0  0  0  0  0  0  0  0
    9.9371    3.1193    0.0000 C   0  0  0  0  0  0  0  0  0  0  0  0
    9.0710    3.6193    0.0000 C   0  0  0  0  0  0  0  0  0  0  0  0
   10.8031    3.6193    0.0000 C   0  0  0  0  0  0  0  0  0  0  0  0
    9.0710    4.6193    0.0000 C   0  0  0  0  0  0  0  0  0  0  0  0
   10.8031    4.6193    0.0000 C   0  0  0  0  0  0  0  0  0  0  0  0
    9.9371    5.1193    0.0000 C   0  0  0  0  0  0  0  0  0  0  0  0
    6.9930   -2.2184    0.0000 H   0  0  0  0  0  0  0  0  0  0  0  0
    5.8694   -0.9370    0.0000 H   0  0  0  0  0  0  0  0  0  0  0  0
    5.0578   -1.1096    0.0000 H   0  0  0  0  0  0  0  0  0  0  0  0
    6.4333   -3.4918    0.0000 H   0  0  0  0  0  0  0  0  0  0  0  0
    6.9884   -2.8752    0.0000 H   0  0  0  0  0  0  0  0  0  0  0  0
    4.4754   -1.7564    0.0000 H   0  0  0  0  0  0  0  0  0  0  0  0
    4.3887   -2.5815    0.0000 H   0  0  0  0  0  0  0  0  0  0  0  0
    4.9403   -4.6152    0.0000 H   0  0  0  0  0  0  0  0  0  0  0  0
    5.5851   -4.1467    0.0000 H   0  0  0  0  0  0  0  0  0  0  0  0
    7.3390   -0.7607    0.0000 H   0  0  0  0  0  0  0  0  0  0  0  0
    3.6534   -2.7258    0.0000 H   0  0  0  0  0  0  0  0  0  0  0  0
    3.9467   -5.5164    0.0000 H   0  0  0  0  0  0  0  0  0  0  0  0
    8.5341   -0.0707    0.0000 H   0  0  0  0  0  0  0  0  0  0  0  0
    2.0423   -2.8951    0.0000 H   0  0  0  0  0  0  0  0  0  0  0  0
    2.3356   -5.6857    0.0000 H   0  0  0  0  0  0  0  0  0  0  0  0
    1.3834   -4.3751    0.0000 H   0  0  0  0  0  0  0  0  0  0  0  0
   11.6899   -2.5353    0.0000 H   0  0  0  0  0  0  0  0  0  0  0  0
   11.6899    0.7739    0.0000 H   0  0  0  0  0  0  0  0  0  0  0  0
   13.1389   -1.7136    0.0000 H   0  0  0  0  0  0  0  0  0  0  0  0
   13.1389   -0.0478    0.0000 H   0  0  0  0  0  0  0  0  0  0  0  0
   10.4931   -3.9176    0.0000 H   0  0  0  0  0  0  0  0  0  0  0  0
   11.3400   -3.6907    0.0000 H   0  0  0  0  0  0  0  0  0  0  0  0
   11.1131   -2.8438    0.0000 H   0  0  0  0  0  0  0  0  0  0  0  0
    8.5341    3.3093    0.0000 H   0  0  0  0  0  0  0  0  0  0  0  0
   11.3400    3.3093    0.0000 H   0  0  0  0  0  0  0  0  0  0  0  0
    8.5341    4.9293    0.0000 H   0  0  0  0  0  0  0  0  0  0  0  0
   11.3400    4.9293    0.0000 H   0  0  0  0  0  0  0  0  0  0  0  0
    9.9371    5.7393    0.0000 H   0  0  0  0  0  0  0  0  0  0  0  0
  1 11  2  0  0  0  0
  2 15  1  0  0  0  0
  2 28  1  0  0  0  0
  3  7  1  0  0  0  0
  3  8  1  0  0  0  0
  3  9  1  0  0  0  0
  5  4  1  1  0  0  0
  4 11  1  0  0  0  0
  4 45  1  0  0  0  0
  5  6  1  0  0  0  0
  5  7  1  0  0  0  0
  5 36  1  0  0  0  0
  6  8  1  0  0  0  0
  6 37  1  0  0  0  0
  6 38  1  0  0  0  0
  7 39  1  0  0  0  0
  7 40  1  0  0  0  0
  8 41  1  0  0  0  0
  8 42  1  0  0  0  0
  9 10  1  0  0  0  0
  9 43  1  0  0  0  0
  9 44  1  0  0  0  0
 10 13  2  0  0  0  0
 10 14  1  0  0  0  0
 11 12  1  0  0  0  0
 12 15  2  0  0  0  0
 12 16  1  0  0  0  0
 13 18  1  0  0  0  0
 13 46  1  0  0  0  0
 14 19  2  0  0  0  0
 14 47  1  0  0  0  0
 15 17  1  0  0  0  0
 16 21  2  0  0  0  0
 16 48  1  0  0  0  0
 17 20  1  0  0  0  0
 17 23  2  0  0  0  0
 18 22  2  0  0  0  0
 18 49  1  0  0  0  0
 19 22  1  0  0  0  0
 19 50  1  0  0  0  0
 20 21  1  0  0  0  0
 20 24  2  0  0  0  0
 21 27  1  0  0  0  0
 22 51  1  0  0  0  0
 23 25  1  0  0  0  0
 23 52  1  0  0  0  0
 24 26  1  0  0  0  0
 24 53  1  0  0  0  0
 25 26  2  0  0  0  0
 25 54  1  0  0  0  0
 26 55  1  0  0  0  0
 27 29  3  0  0  0  0
 28 56  1  0  0  0  0
 28 57  1  0  0  0  0
 28 58  1  0  0  0  0
 29 30  1  0  0  0  0
 30 31  2  0  0  0  0
 30 32  1  0  0  0  0
 31 33  1  0  0  0  0
 31 59  1  0  0  0  0
 32 34  2  0  0  0  0
 32 60  1  0  0  0  0
 33 35  2  0  0  0  0
 33 61  1  0  0  0  0
 34 35  1  0  0  0  0
 34 62  1  0  0  0  0
 35 63  1  0  0  0  0
M  END
> <PUBCHEM_COMPOUND_CID>
44340415

> <PUBCHEM_COMPOUND_CANONICALIZED>
1

> <PUBCHEM_CACTVS_COMPLEXITY>
756

> <PUBCHEM_CACTVS_HBOND_ACCEPTOR>
3

> <PUBCHEM_CACTVS_HBOND_DONOR>
1

> <PUBCHEM_CACTVS_ROTATABLE_BOND>
7

> <PUBCHEM_CACTVS_SUBSKEYS>
AAADceB7MAAAAAAAAAAAAAAAAAAAAWAAAAAwYMGAAAAAAADBVAAAHgAQAAAADCzBmAYyBsPABADIEiFSEAiCCAAkIAAIiIEMDMgMZjaE9RuUMWhm9hGIqYeYyPCO4AADAAAYAADAAAYAADAAAAAAAAAAAA==

> <PUBCHEM_IUPAC_OPENEYE_NAME>
N-[(3R)-1-benzylpyrrolidin-3-yl]-1-methoxy-4-(2-phenylethynyl)naphthalene-2-carboxamide

> <PUBCHEM_IUPAC_CAS_NAME>
1-methoxy-4-(2-phenylethynyl)-N-[(3R)-1-(phenylmethyl)-3-pyrrolidinyl]-2-naphthalenecarboxamide

> <PUBCHEM_IUPAC_NAME_MARKUP>
<I>N</I>-[(3<I>R</I>)-1-benzylpyrrolidin-3-yl]-1-methoxy-4-(2-phenylethynyl)naphthalene-2-carboxamide

> <PUBCHEM_IUPAC_NAME>
N-[(3R)-1-benzylpyrrolidin-3-yl]-1-methoxy-4-(2-phenylethynyl)naphthalene-2-carboxamide

> <PUBCHEM_IUPAC_SYSTEMATIC_NAME>
1-methoxy-4-(2-phenylethynyl)-N-[(3R)-1-(phenylmethyl)pyrrolidin-3-yl]naphthalene-2-carboxamide

> <PUBCHEM_IUPAC_TRADITIONAL_NAME>
N-[(3R)-1-benzylpyrrolidin-3-yl]-1-methoxy-4-(2-phenylethynyl)-2-naphthamide

> <PUBCHEM_IUPAC_INCHI>
InChI=1S/C31H28N2O2/c1-35-30-28-15-9-8-14-27(28)25(17-16-23-10-4-2-5-11-23)20-29(30)31(34)32-26-18-19-33(22-26)21-24-12-6-3-7-13-24/h2-15,20,26H,18-19,21-22H2,1H3,(H,32,34)/t26-/m1/s1

> <PUBCHEM_IUPAC_INCHIKEY>
DAUORZLLBDGUDH-AREMUKBSSA-N

> <PUBCHEM_XLOGP3_AA>
6.2

> <PUBCHEM_EXACT_MASS>
460.215078140

> <PUBCHEM_MOLECULAR_FORMULA>
C31H28N2O2

> <PUBCHEM_MOLECULAR_WEIGHT>
460.6

> <PUBCHEM_OPENEYE_CAN_SMILES>
COC1=C(C=C(C2=CC=CC=C21)C#CC3=CC=CC=C3)C(=O)NC4CCN(C4)CC5=CC=CC=C5

> <PUBCHEM_OPENEYE_ISO_SMILES>
COC1=C(C=C(C2=CC=CC=C21)C#CC3=CC=CC=C3)C(=O)N[C@@H]4CCN(C4)CC5=CC=CC=C5

> <PUBCHEM_CACTVS_TPSA>
41.6

> <PUBCHEM_MONOISOTOPIC_WEIGHT>
460.215078140

> <PUBCHEM_TOTAL_CHARGE>
0

> <PUBCHEM_HEAVY_ATOM_COUNT>
35

> <PUBCHEM_ATOM_DEF_STEREO_COUNT>
1

> <PUBCHEM_ATOM_UDEF_STEREO_COUNT>
0

> <PUBCHEM_BOND_DEF_STEREO_COUNT>
0

> <PUBCHEM_BOND_UDEF_STEREO_COUNT>
0

> <PUBCHEM_ISOTOPIC_ATOM_COUNT>
0

> <PUBCHEM_COMPONENT_COUNT>
1

> <PUBCHEM_CACTVS_TAUTO_COUNT>
-1

> <PUBCHEM_COORDINATE_TYPE>
1
5
255

> <PUBCHEM_BONDANNOTATIONS>
10  13  8
10  14  8
12  15  8
12  16  8
13  18  8
14  19  8
15  17  8
16  21  8
17  20  8
17  23  8
18  22  8
19  22  8
20  21  8
20  24  8
23  25  8
24  26  8
25  26  8
30  31  8
30  32  8
31  33  8
32  34  8
33  35  8
34  35  8
5  4  5

$$$$
