137640189
  -OEChem-09292322002D

 64 68  0     0  0  0  0  0  0999 V2000
    9.0021   -4.0880    0.0000 O   0  0  0  0  0  0  0  0  0  0  0  0
    5.5101    2.8774    0.0000 O   0  0  0  0  0  0  0  0  0  0  0  0
    7.2422   -7.1226    0.0000 O   0  0  0  0  0  0  0  0  0  0  0  0
   10.7723   -6.1468    0.0000 O   0  0  0  0  0  0  0  0  0  0  0  0
    2.8757    7.4326    0.0000 O   0  0  0  0  0  0  0  0  0  0  0  0
    7.2422   -1.1226    0.0000 N   0  0  0  0  0  0  0  0  0  0  0  0
    7.2422   -3.1226    0.0000 N   0  0  0  0  0  0  0  0  0  0  0  0
    9.0021   -6.1573    0.0000 N   0  0  0  0  0  0  0  0  0  0  0  0
    3.7359    5.9293    0.0000 N   0  0  0  0  0  0  0  0  0  0  0  0
    6.3761   -1.6226    0.0000 C   0  0  0  0  0  0  0  0  0  0  0  0
    8.1082   -1.6226    0.0000 C   0  0  0  0  0  0  0  0  0  0  0  0
    6.3761   -2.6226    0.0000 C   0  0  0  0  0  0  0  0  0  0  0  0
    8.1082   -2.6226    0.0000 C   0  0  0  0  0  0  0  0  0  0  0  0
    7.2422   -0.1226    0.0000 C   0  0  0  0  0  0  0  0  0  0  0  0
    6.3761    0.3774    0.0000 C   0  0  0  0  0  0  0  0  0  0  0  0
    7.2422   -4.1226    0.0000 C   0  0  0  0  0  0  0  0  0  0  0  0
    6.3761    1.3774    0.0000 C   0  0  0  0  0  0  0  0  0  0  0  0
    8.1082   -4.6226    0.0000 C   0  0  0  0  0  0  0  0  0  0  0  0
    6.3761   -4.6226    0.0000 C   0  0  0  0  0  0  0  0  0  0  0  0
    5.5101    1.8774    0.0000 C   0  0  0  0  0  0  0  0  0  0  0  0
    8.1082   -5.6226    0.0000 C   0  0  0  0  0  0  0  0  0  0  0  0
    6.3761   -5.6226    0.0000 C   0  0  0  0  0  0  0  0  0  0  0  0
    7.2422   -6.1226    0.0000 C   0  0  0  0  0  0  0  0  0  0  0  0
    9.9082   -4.6018    0.0000 C   0  0  0  0  0  0  0  0  0  0  0  0
    2.8641    4.4327    0.0000 C   0  0  0  0  0  0  0  0  0  0  0  0
    9.9082   -5.6435    0.0000 C   0  0  0  0  0  0  0  0  0  0  0  0
    4.6441    3.3774    0.0000 C   0  0  0  0  0  0  0  0  0  0  0  0
    2.0000    4.9360    0.0000 C   0  0  0  0  0  0  0  0  0  0  0  0
    3.7320    4.9293    0.0000 C   0  0  0  0  0  0  0  0  0  0  0  0
    2.0038    5.9360    0.0000 C   0  0  0  0  0  0  0  0  0  0  0  0
    4.6401    4.4190    0.0000 C   0  0  0  0  0  0  0  0  0  0  0  0
    2.8440    3.3912    0.0000 C   0  0  0  0  0  0  0  0  0  0  0  0
    3.7400    2.8600    0.0000 C   0  0  0  0  0  0  0  0  0  0  0  0
    2.8718    6.4326    0.0000 C   0  0  0  0  0  0  0  0  0  0  0  0
    6.1641   -1.0400    0.0000 H   0  0  0  0  0  0  0  0  0  0  0  0
    5.7656   -1.7303    0.0000 H   0  0  0  0  0  0  0  0  0  0  0  0
    8.7188   -1.7303    0.0000 H   0  0  0  0  0  0  0  0  0  0  0  0
    8.3202   -1.0400    0.0000 H   0  0  0  0  0  0  0  0  0  0  0  0
    5.7656   -2.5150    0.0000 H   0  0  0  0  0  0  0  0  0  0  0  0
    6.1641   -3.2053    0.0000 H   0  0  0  0  0  0  0  0  0  0  0  0
    8.3202   -3.2053    0.0000 H   0  0  0  0  0  0  0  0  0  0  0  0
    8.7188   -2.5150    0.0000 H   0  0  0  0  0  0  0  0  0  0  0  0
    7.8528   -0.2303    0.0000 H   0  0  0  0  0  0  0  0  0  0  0  0
    7.4542    0.4600    0.0000 H   0  0  0  0  0  0  0  0  0  0  0  0
    5.7656    0.4850    0.0000 H   0  0  0  0  0  0  0  0  0  0  0  0
    6.1641   -0.2053    0.0000 H   0  0  0  0  0  0  0  0  0  0  0  0
    6.9867    1.2697    0.0000 H   0  0  0  0  0  0  0  0  0  0  0  0
    6.5882    1.9600    0.0000 H   0  0  0  0  0  0  0  0  0  0  0  0
    5.8392   -4.3126    0.0000 H   0  0  0  0  0  0  0  0  0  0  0  0
    4.8995    1.9850    0.0000 H   0  0  0  0  0  0  0  0  0  0  0  0
    5.2981    1.2947    0.0000 H   0  0  0  0  0  0  0  0  0  0  0  0
    5.8392   -5.9326    0.0000 H   0  0  0  0  0  0  0  0  0  0  0  0
    8.9950   -6.7773    0.0000 H   0  0  0  0  0  0  0  0  0  0  0  0
   10.5191   -4.7079    0.0000 H   0  0  0  0  0  0  0  0  0  0  0  0
   10.1173   -4.0181    0.0000 H   0  0  0  0  0  0  0  0  0  0  0  0
    1.3898    5.0460    0.0000 H   0  0  0  0  0  0  0  0  0  0  0  0
    1.7857    4.3542    0.0000 H   0  0  0  0  0  0  0  0  0  0  0  0
    1.7940    6.5194    0.0000 H   0  0  0  0  0  0  0  0  0  0  0  0
    1.3929    5.8307    0.0000 H   0  0  0  0  0  0  0  0  0  0  0  0
    5.1746    4.7331    0.0000 H   0  0  0  0  0  0  0  0  0  0  0  0
    2.3024    3.0896    0.0000 H   0  0  0  0  0  0  0  0  0  0  0  0
    3.7352    2.2400    0.0000 H   0  0  0  0  0  0  0  0  0  0  0  0
    4.2740    6.2373    0.0000 H   0  0  0  0  0  0  0  0  0  0  0  0
    6.7052   -7.4326    0.0000 H   0  0  0  0  0  0  0  0  0  0  0  0
  1 18  1  0  0  0  0
  1 24  1  0  0  0  0
  2 20  1  0  0  0  0
  2 27  1  0  0  0  0
  3 23  1  0  0  0  0
  3 64  1  0  0  0  0
  4 26  2  0  0  0  0
  5 34  2  0  0  0  0
  6 10  1  0  0  0  0
  6 11  1  0  0  0  0
  6 14  1  0  0  0  0
  7 12  1  0  0  0  0
  7 13  1  0  0  0  0
  7 16  1  0  0  0  0
  8 21  1  0  0  0  0
  8 26  1  0  0  0  0
  8 53  1  0  0  0  0
  9 29  1  0  0  0  0
  9 34  1  0  0  0  0
  9 63  1  0  0  0  0
 10 12  1  0  0  0  0
 10 35  1  0  0  0  0
 10 36  1  0  0  0  0
 11 13  1  0  0  0  0
 11 37  1  0  0  0  0
 11 38  1  0  0  0  0
 12 39  1  0  0  0  0
 12 40  1  0  0  0  0
 13 41  1  0  0  0  0
 13 42  1  0  0  0  0
 14 15  1  0  0  0  0
 14 43  1  0  0  0  0
 14 44  1  0  0  0  0
 15 17  1  0  0  0  0
 15 45  1  0  0  0  0
 15 46  1  0  0  0  0
 16 18  2  0  0  0  0
 16 19  1  0  0  0  0
 17 20  1  0  0  0  0
 17 47  1  0  0  0  0
 17 48  1  0  0  0  0
 18 21  1  0  0  0  0
 19 22  2  0  0  0  0
 19 49  1  0  0  0  0
 20 50  1  0  0  0  0
 20 51  1  0  0  0  0
 21 23  2  0  0  0  0
 22 23  1  0  0  0  0
 22 52  1  0  0  0  0
 24 26  1  0  0  0  0
 24 54  1  0  0  0  0
 24 55  1  0  0  0  0
 25 28  1  0  0  0  0
 25 29  2  0  0  0  0
 25 32  1  0  0  0  0
 27 31  2  0  0  0  0
 27 33  1  0  0  0  0
 28 30  1  0  0  0  0
 28 56  1  0  0  0  0
 28 57  1  0  0  0  0
 29 31  1  0  0  0  0
 30 34  1  0  0  0  0
 30 58  1  0  0  0  0
 30 59  1  0  0  0  0
 31 60  1  0  0  0  0
 32 33  2  0  0  0  0
 32 61  1  0  0  0  0
 33 62  1  0  0  0  0
M  END
> <PUBCHEM_COMPOUND_CID>
137640189

> <PUBCHEM_COMPOUND_CANONICALIZED>
1

> <PUBCHEM_CACTVS_COMPLEXITY>
715

> <PUBCHEM_CACTVS_HBOND_ACCEPTOR>
7

> <PUBCHEM_CACTVS_HBOND_DONOR>
3

> <PUBCHEM_CACTVS_ROTATABLE_BOND>
7

> <PUBCHEM_CACTVS_SUBSKEYS>
AAADceB7uAAAAAAAAAAAAAAAAAAAAAAAAAA8eLECAAAAAACxQAAAHgAQCAAADAzhmAYwxoPABgCIAiVSUAKCCAAhIgAIiAFPbIgOZzLW8d+XeCjn1B3Y+Ae4+a+eIEAACgQCEABAgAAUCAQgAAAAAAAAAA==

> <PUBCHEM_IUPAC_OPENEYE_NAME>
5-hydroxy-8-[4-[4-[(2-oxo-3,4-dihydro-1H-quinolin-7-yl)oxy]butyl]piperazin-1-yl]-4H-1,4-benzoxazin-3-one

> <PUBCHEM_IUPAC_CAS_NAME>
5-hydroxy-8-[4-[4-[(2-oxo-3,4-dihydro-1H-quinolin-7-yl)oxy]butyl]-1-piperazinyl]-4H-1,4-benzoxazin-3-one

> <PUBCHEM_IUPAC_NAME_MARKUP>
5-hydroxy-8-[4-[4-[(2-oxo-3,4-dihydro-1<I>H</I>-quinolin-7-yl)oxy]butyl]piperazin-1-yl]-4<I>H</I>-1,4-benzoxazin-3-one

> <PUBCHEM_IUPAC_NAME>
5-hydroxy-8-[4-[4-[(2-oxo-3,4-dihydro-1H-quinolin-7-yl)oxy]butyl]piperazin-1-yl]-4H-1,4-benzoxazin-3-one

> <PUBCHEM_IUPAC_SYSTEMATIC_NAME>
5-oxidanyl-8-[4-[4-[(2-oxidanylidene-3,4-dihydro-1H-quinolin-7-yl)oxy]butyl]piperazin-1-yl]-4H-1,4-benzoxazin-3-one

> <PUBCHEM_IUPAC_TRADITIONAL_NAME>
5-hydroxy-8-[4-[4-[(2-keto-3,4-dihydro-1H-quinolin-7-yl)oxy]butyl]piperazino]-4H-1,4-benzoxazin-3-one

> <PUBCHEM_IUPAC_INCHI>
InChI=1S/C25H30N4O5/c30-21-7-6-20(25-24(21)27-23(32)16-34-25)29-12-10-28(11-13-29)9-1-2-14-33-18-5-3-17-4-8-22(31)26-19(17)15-18/h3,5-7,15,30H,1-2,4,8-14,16H2,(H,26,31)(H,27,32)

> <PUBCHEM_IUPAC_INCHIKEY>
DEKJLYJRFGCPNK-UHFFFAOYSA-N

> <PUBCHEM_XLOGP3_AA>
2

> <PUBCHEM_EXACT_MASS>
466.22162007

> <PUBCHEM_MOLECULAR_FORMULA>
C25H30N4O5

> <PUBCHEM_MOLECULAR_WEIGHT>
466.5

> <PUBCHEM_OPENEYE_CAN_SMILES>
C1CC(=O)NC2=C1C=CC(=C2)OCCCCN3CCN(CC3)C4=C5C(=C(C=C4)O)NC(=O)CO5

> <PUBCHEM_OPENEYE_ISO_SMILES>
C1CC(=O)NC2=C1C=CC(=C2)OCCCCN3CCN(CC3)C4=C5C(=C(C=C4)O)NC(=O)CO5

> <PUBCHEM_CACTVS_TPSA>
103

> <PUBCHEM_MONOISOTOPIC_WEIGHT>
466.22162007

> <PUBCHEM_TOTAL_CHARGE>
0

> <PUBCHEM_HEAVY_ATOM_COUNT>
34

> <PUBCHEM_ATOM_DEF_STEREO_COUNT>
0

> <PUBCHEM_ATOM_UDEF_STEREO_COUNT>
0

> <PUBCHEM_BOND_DEF_STEREO_COUNT>
0

> <PUBCHEM_BOND_UDEF_STEREO_COUNT>
0

> <PUBCHEM_ISOTOPIC_ATOM_COUNT>
0

> <PUBCHEM_COMPONENT_COUNT>
1

> <PUBCHEM_CACTVS_TAUTO_COUNT>
-1

> <PUBCHEM_COORDINATE_TYPE>
1
5
255

> <PUBCHEM_BONDANNOTATIONS>
16  18  8
16  19  8
18  21  8
19  22  8
21  23  8
22  23  8
25  29  8
25  32  8
27  31  8
27  33  8
29  31  8
32  33  8

$$$$
