145992567
  -OEChem-09292322392D

 77 82  0     1  0  0  0  0  0999 V2000
    5.4921    0.4632    0.0000 O   0  0  0  0  0  0  0  0  0  0  0  0
    2.0000    1.7420    0.0000 O   0  0  0  0  0  0  0  0  0  0  0  0
    5.5202    1.7420    0.0000 O   0  0  0  0  0  0  0  0  0  0  0  0
    5.4921   -1.5368    0.0000 N   0  0  0  0  0  0  0  0  0  0  0  0
    7.2242   -2.5368    0.0000 N   0  0  0  0  0  0  0  0  0  0  0  0
    3.7601    1.4632    0.0000 N   0  0  0  0  0  0  0  0  0  0  0  0
    4.2601    3.0021    0.0000 N   0  0  0  0  0  0  0  0  0  0  0  0
    6.3582   -1.0368    0.0000 C   0  0  0  0  0  0  0  0  0  0  0  0
    5.4921   -2.5368    0.0000 C   0  0  0  0  0  0  0  0  0  0  0  0
    7.2242   -1.5368    0.0000 C   0  0  0  0  0  0  0  0  0  0  0  0
    6.3582   -3.0368    0.0000 C   0  0  0  0  0  0  0  0  0  0  0  0
    4.6261   -1.0368    0.0000 C   0  0  0  0  0  0  0  0  0  0  0  0
    8.0902   -3.0368    0.0000 C   0  0  0  0  0  0  0  0  0  0  0  0
    4.6261   -0.0368    0.0000 C   0  0  3  0  0  0  0  0  0  0  0  0
    3.2601    3.0021    0.0000 C   0  0  3  0  0  0  0  0  0  0  0  0
    3.7601    0.4632    0.0000 C   0  0  0  0  0  0  0  0  0  0  0  0
    2.9511    2.0510    0.0000 C   0  0  0  0  0  0  0  0  0  0  0  0
    8.0902   -4.0367    0.0000 C   0  0  0  0  0  0  0  0  0  0  0  0
    8.9562   -2.5368    0.0000 C   0  0  0  0  0  0  0  0  0  0  0  0
    3.2601    4.0021    0.0000 C   0  0  0  0  0  0  0  0  0  0  0  0
    4.5691    2.0510    0.0000 C   0  0  0  0  0  0  0  0  0  0  0  0
    2.3090    3.3111    0.0000 C   0  0  0  0  0  0  0  0  0  0  0  0
    4.1261    4.5021    0.0000 C   0  0  0  0  0  0  0  0  0  0  0  0
    2.3940    4.5021    0.0000 C   0  0  0  0  0  0  0  0  0  0  0  0
    7.2242   -4.5367    0.0000 C   0  0  0  0  0  0  0  0  0  0  0  0
    9.8222   -3.0368    0.0000 C   0  0  0  0  0  0  0  0  0  0  0  0
    8.9562   -4.5367    0.0000 C   0  0  0  0  0  0  0  0  0  0  0  0
    8.9562   -1.5368    0.0000 C   0  0  0  0  0  0  0  0  0  0  0  0
    4.1261    5.5021    0.0000 C   0  0  0  0  0  0  0  0  0  0  0  0
    2.3940    5.5021    0.0000 C   0  0  0  0  0  0  0  0  0  0  0  0
    5.0200    3.9674    0.0000 C   0  0  0  0  0  0  0  0  0  0  0  0
    3.2601    6.0021    0.0000 C   0  0  0  0  0  0  0  0  0  0  0  0
    7.2242   -5.5367    0.0000 C   0  0  0  0  0  0  0  0  0  0  0  0
   10.6883   -2.5368    0.0000 C   0  0  0  0  0  0  0  0  0  0  0  0
    8.9562   -5.5367    0.0000 C   0  0  0  0  0  0  0  0  0  0  0  0
    9.8222   -1.0368    0.0000 C   0  0  0  0  0  0  0  0  0  0  0  0
    5.0200    6.0367    0.0000 C   0  0  0  0  0  0  0  0  0  0  0  0
    8.0902   -6.0367    0.0000 C   0  0  0  0  0  0  0  0  0  0  0  0
   10.6883   -1.5368    0.0000 C   0  0  0  0  0  0  0  0  0  0  0  0
    5.9261    4.4813    0.0000 C   0  0  0  0  0  0  0  0  0  0  0  0
    5.9261    5.5229    0.0000 C   0  0  0  0  0  0  0  0  0  0  0  0
    6.7567   -0.5618    0.0000 H   0  0  0  0  0  0  0  0  0  0  0  0
    5.9596   -0.5618    0.0000 H   0  0  0  0  0  0  0  0  0  0  0  0
    4.8815   -2.4291    0.0000 H   0  0  0  0  0  0  0  0  0  0  0  0
    5.2801   -3.1194    0.0000 H   0  0  0  0  0  0  0  0  0  0  0  0
    7.8348   -1.6444    0.0000 H   0  0  0  0  0  0  0  0  0  0  0  0
    7.4362   -0.9541    0.0000 H   0  0  0  0  0  0  0  0  0  0  0  0
    5.9596   -3.5117    0.0000 H   0  0  0  0  0  0  0  0  0  0  0  0
    6.7567   -3.5117    0.0000 H   0  0  0  0  0  0  0  0  0  0  0  0
    4.0155   -0.9291    0.0000 H   0  0  0  0  0  0  0  0  0  0  0  0
    4.4140   -1.6194    0.0000 H   0  0  0  0  0  0  0  0  0  0  0  0
    8.0902   -2.4168    0.0000 H   0  0  0  0  0  0  0  0  0  0  0  0
    5.1630   -0.3468    0.0000 H   0  0  0  0  0  0  0  0  0  0  0  0
    3.1495    0.5709    0.0000 H   0  0  0  0  0  0  0  0  0  0  0  0
    3.5480   -0.1194    0.0000 H   0  0  0  0  0  0  0  0  0  0  0  0
    4.6245    3.5037    0.0000 H   0  0  0  0  0  0  0  0  0  0  0  0
    2.5006    3.9008    0.0000 H   0  0  0  0  0  0  0  0  0  0  0  0
    1.7194    3.5027    0.0000 H   0  0  0  0  0  0  0  0  0  0  0  0
    2.1174    2.7214    0.0000 H   0  0  0  0  0  0  0  0  0  0  0  0
    6.0291    0.1532    0.0000 H   0  0  0  0  0  0  0  0  0  0  0  0
    1.8571    4.1921    0.0000 H   0  0  0  0  0  0  0  0  0  0  0  0
    6.6872   -4.2268    0.0000 H   0  0  0  0  0  0  0  0  0  0  0  0
    9.8222   -3.6568    0.0000 H   0  0  0  0  0  0  0  0  0  0  0  0
    9.4932   -4.2268    0.0000 H   0  0  0  0  0  0  0  0  0  0  0  0
    8.4193   -1.2268    0.0000 H   0  0  0  0  0  0  0  0  0  0  0  0
    1.8571    5.8121    0.0000 H   0  0  0  0  0  0  0  0  0  0  0  0
    5.0129    3.3475    0.0000 H   0  0  0  0  0  0  0  0  0  0  0  0
    3.2601    6.6221    0.0000 H   0  0  0  0  0  0  0  0  0  0  0  0
    6.6872   -5.8468    0.0000 H   0  0  0  0  0  0  0  0  0  0  0  0
   11.2252   -2.8468    0.0000 H   0  0  0  0  0  0  0  0  0  0  0  0
    9.4932   -5.8468    0.0000 H   0  0  0  0  0  0  0  0  0  0  0  0
    9.8222   -0.4168    0.0000 H   0  0  0  0  0  0  0  0  0  0  0  0
    5.0129    6.6567    0.0000 H   0  0  0  0  0  0  0  0  0  0  0  0
    8.0902   -6.6568    0.0000 H   0  0  0  0  0  0  0  0  0  0  0  0
   11.2252   -1.2268    0.0000 H   0  0  0  0  0  0  0  0  0  0  0  0
    6.4618    4.1692    0.0000 H   0  0  0  0  0  0  0  0  0  0  0  0
    6.4618    5.8350    0.0000 H   0  0  0  0  0  0  0  0  0  0  0  0
  1 14  1  0  0  0  0
  1 60  1  0  0  0  0
  2 17  2  0  0  0  0
  3 21  2  0  0  0  0
  4  8  1  0  0  0  0
  4  9  1  0  0  0  0
  4 12  1  0  0  0  0
  5 10  1  0  0  0  0
  5 11  1  0  0  0  0
  5 13  1  0  0  0  0
  6 16  1  0  0  0  0
  6 17  1  0  0  0  0
  6 21  1  0  0  0  0
  7 15  1  0  0  0  0
  7 21  1  0  0  0  0
  7 56  1  0  0  0  0
  8 10  1  0  0  0  0
  8 42  1  0  0  0  0
  8 43  1  0  0  0  0
  9 11  1  0  0  0  0
  9 44  1  0  0  0  0
  9 45  1  0  0  0  0
 10 46  1  0  0  0  0
 10 47  1  0  0  0  0
 11 48  1  0  0  0  0
 11 49  1  0  0  0  0
 12 14  1  0  0  0  0
 12 50  1  0  0  0  0
 12 51  1  0  0  0  0
 13 18  1  0  0  0  0
 13 19  1  0  0  0  0
 13 52  1  0  0  0  0
 14 16  1  0  0  0  0
 14 53  1  0  0  0  0
 15 17  1  0  0  0  0
 15 20  1  0  0  0  0
 15 22  1  0  0  0  0
 16 54  1  0  0  0  0
 16 55  1  0  0  0  0
 18 25  2  0  0  0  0
 18 27  1  0  0  0  0
 19 26  2  0  0  0  0
 19 28  1  0  0  0  0
 20 23  1  0  0  0  0
 20 24  2  0  0  0  0
 22 57  1  0  0  0  0
 22 58  1  0  0  0  0
 22 59  1  0  0  0  0
 23 29  1  0  0  0  0
 23 31  2  0  0  0  0
 24 30  1  0  0  0  0
 24 61  1  0  0  0  0
 25 33  1  0  0  0  0
 25 62  1  0  0  0  0
 26 34  1  0  0  0  0
 26 63  1  0  0  0  0
 27 35  2  0  0  0  0
 27 64  1  0  0  0  0
 28 36  2  0  0  0  0
 28 65  1  0  0  0  0
 29 32  1  0  0  0  0
 29 37  2  0  0  0  0
 30 32  2  0  0  0  0
 30 66  1  0  0  0  0
 31 40  1  0  0  0  0
 31 67  1  0  0  0  0
 32 68  1  0  0  0  0
 33 38  2  0  0  0  0
 33 69  1  0  0  0  0
 34 39  2  0  0  0  0
 34 70  1  0  0  0  0
 35 38  1  0  0  0  0
 35 71  1  0  0  0  0
 36 39  1  0  0  0  0
 36 72  1  0  0  0  0
 37 41  1  0  0  0  0
 37 73  1  0  0  0  0
 38 74  1  0  0  0  0
 39 75  1  0  0  0  0
 40 41  2  0  0  0  0
 40 76  1  0  0  0  0
 41 77  1  0  0  0  0
M  END
> <PUBCHEM_COMPOUND_CID>
145992567

> <PUBCHEM_COMPOUND_CANONICALIZED>
1

> <PUBCHEM_CACTVS_COMPLEXITY>
876

> <PUBCHEM_CACTVS_HBOND_ACCEPTOR>
5

> <PUBCHEM_CACTVS_HBOND_DONOR>
2

> <PUBCHEM_CACTVS_ROTATABLE_BOND>
8

> <PUBCHEM_CACTVS_SUBSKEYS>
AAADcfB/sAAAAAAAAAAAAAAAAAAAAWAAAAA8YMGCAAAAAADBVAAAHgAQCAAADLzhmAYzAMPAAgCIAiFSEACCAAAgAAAIiAGIBIiKcDKA1TGUIAholyKYiAcYiMCOgAACAAAQAAAAAAQAACAAAAAAAAAAAA==

> <PUBCHEM_IUPAC_OPENEYE_NAME>
3-[3-(4-benzhydrylpiperazin-1-yl)-2-hydroxy-propyl]-5-methyl-5-(1-naphthyl)imidazolidine-2,4-dione

> <PUBCHEM_IUPAC_CAS_NAME>
3-[3-[4-(diphenylmethyl)-1-piperazinyl]-2-hydroxypropyl]-5-methyl-5-(1-naphthalenyl)imidazolidine-2,4-dione

> <PUBCHEM_IUPAC_NAME_MARKUP>
3-[3-(4-benzhydrylpiperazin-1-yl)-2-hydroxypropyl]-5-methyl-5-naphthalen-1-ylimidazolidine-2,4-dione

> <PUBCHEM_IUPAC_NAME>
3-[3-(4-benzhydrylpiperazin-1-yl)-2-hydroxypropyl]-5-methyl-5-naphthalen-1-ylimidazolidine-2,4-dione

> <PUBCHEM_IUPAC_SYSTEMATIC_NAME>
3-[3-[4-(diphenylmethyl)piperazin-1-yl]-2-oxidanyl-propyl]-5-methyl-5-naphthalen-1-yl-imidazolidine-2,4-dione

> <PUBCHEM_IUPAC_TRADITIONAL_NAME>
3-[3-(4-benzhydrylpiperazino)-2-hydroxy-propyl]-5-methyl-5-(1-naphthyl)hydantoin

> <PUBCHEM_IUPAC_INCHI>
InChI=1S/C34H36N4O3/c1-34(30-18-10-16-25-11-8-9-17-29(25)30)32(40)38(33(41)35-34)24-28(39)23-36-19-21-37(22-20-36)31(26-12-4-2-5-13-26)27-14-6-3-7-15-27/h2-18,28,31,39H,19-24H2,1H3,(H,35,41)

> <PUBCHEM_IUPAC_INCHIKEY>
NTSNTXLPUHHDIH-UHFFFAOYSA-N

> <PUBCHEM_XLOGP3_AA>
4.7

> <PUBCHEM_EXACT_MASS>
548.27874102

> <PUBCHEM_MOLECULAR_FORMULA>
C34H36N4O3

> <PUBCHEM_MOLECULAR_WEIGHT>
548.7

> <PUBCHEM_OPENEYE_CAN_SMILES>
CC1(C(=O)N(C(=O)N1)CC(CN2CCN(CC2)C(C3=CC=CC=C3)C4=CC=CC=C4)O)C5=CC=CC6=CC=CC=C65

> <PUBCHEM_OPENEYE_ISO_SMILES>
CC1(C(=O)N(C(=O)N1)CC(CN2CCN(CC2)C(C3=CC=CC=C3)C4=CC=CC=C4)O)C5=CC=CC6=CC=CC=C65

> <PUBCHEM_CACTVS_TPSA>
76.1

> <PUBCHEM_MONOISOTOPIC_WEIGHT>
548.27874102

> <PUBCHEM_TOTAL_CHARGE>
0

> <PUBCHEM_HEAVY_ATOM_COUNT>
41

> <PUBCHEM_ATOM_DEF_STEREO_COUNT>
0

> <PUBCHEM_ATOM_UDEF_STEREO_COUNT>
2

> <PUBCHEM_BOND_DEF_STEREO_COUNT>
0

> <PUBCHEM_BOND_UDEF_STEREO_COUNT>
0

> <PUBCHEM_ISOTOPIC_ATOM_COUNT>
0

> <PUBCHEM_COMPONENT_COUNT>
1

> <PUBCHEM_CACTVS_TAUTO_COUNT>
-1

> <PUBCHEM_COORDINATE_TYPE>
1
5
255

> <PUBCHEM_BONDANNOTATIONS>
14  1  3
15  22  3
18  25  8
18  27  8
19  26  8
19  28  8
20  23  8
20  24  8
23  29  8
23  31  8
24  30  8
25  33  8
26  34  8
27  35  8
28  36  8
29  32  8
29  37  8
30  32  8
31  40  8
33  38  8
34  39  8
35  38  8
36  39  8
37  41  8
40  41  8

$$$$
