44439399
  -OEChem-09292322492D

 61 64  0     1  0  0  0  0  0999 V2000
    3.6886    0.7834    0.0000 O   0  0  0  0  0  0  0  0  0  0  0  0
   13.0422    1.2366    0.0000 O   0  0  0  0  0  0  0  0  0  0  0  0
   13.0422   -0.7634    0.0000 O   0  0  0  0  0  0  0  0  0  0  0  0
    2.0000    1.1688    0.0000 O   0  0  0  0  0  0  0  0  0  0  0  0
    8.6441   -0.2842    0.0000 N   0  0  0  0  0  0  0  0  0  0  0  0
    6.9120   -0.2909    0.0000 N   0  0  0  0  0  0  0  0  0  0  0  0
    3.4661   -0.1915    0.0000 C   0  0  3  0  0  0  0  0  0  0  0  0
    2.4912   -0.4140    0.0000 C   0  0  0  0  0  0  0  0  0  0  0  0
    2.0573   -1.3150    0.0000 C   0  0  0  0  0  0  0  0  0  0  0  0
    2.4912   -2.2160    0.0000 C   0  0  0  0  0  0  0  0  0  0  0  0
    3.4661   -2.4385    0.0000 C   0  0  0  0  0  0  0  0  0  0  0  0
    4.2479   -0.8150    0.0000 C   0  0  0  0  0  0  0  0  0  0  0  0
    4.2479   -1.8150    0.0000 C   0  0  0  0  0  0  0  0  0  0  0  0
    8.6441    0.7574    0.0000 C   0  0  0  0  0  0  0  0  0  0  0  0
    9.5501    1.2713    0.0000 C   0  0  0  0  0  0  0  0  0  0  0  0
    9.5501   -0.7980    0.0000 C   0  0  0  0  0  0  0  0  0  0  0  0
    5.1419   -0.2804    0.0000 C   0  0  0  0  0  0  0  0  0  0  0  0
   10.4441    0.7366    0.0000 C   0  0  0  0  0  0  0  0  0  0  0  0
   10.4441   -0.2634    0.0000 C   0  0  0  0  0  0  0  0  0  0  0  0
    5.1419   -2.3497    0.0000 C   0  0  0  0  0  0  0  0  0  0  0  0
    6.0479   -0.7942    0.0000 C   0  0  0  0  0  0  0  0  0  0  0  0
    6.0479   -1.8358    0.0000 C   0  0  0  0  0  0  0  0  0  0  0  0
    7.7800   -0.7875    0.0000 C   0  0  0  0  0  0  0  0  0  0  0  0
   11.3101    1.2366    0.0000 C   0  0  0  0  0  0  0  0  0  0  0  0
   11.3101   -0.7634    0.0000 C   0  0  0  0  0  0  0  0  0  0  0  0
   12.1761    0.7366    0.0000 C   0  0  0  0  0  0  0  0  0  0  0  0
   12.1761   -0.2634    0.0000 C   0  0  0  0  0  0  0  0  0  0  0  0
    2.9556    1.4636    0.0000 C   0  0  0  0  0  0  0  0  0  0  0  0
    3.1781    2.4385    0.0000 C   0  0  0  0  0  0  0  0  0  0  0  0
   13.0422    2.2366    0.0000 C   0  0  0  0  0  0  0  0  0  0  0  0
   13.0422   -1.7634    0.0000 C   0  0  0  0  0  0  0  0  0  0  0  0
    4.0513    0.0132    0.0000 H   0  0  0  0  0  0  0  0  0  0  0  0
    2.4912    0.2060    0.0000 H   0  0  0  0  0  0  0  0  0  0  0  0
    1.8867   -0.2761    0.0000 H   0  0  0  0  0  0  0  0  0  0  0  0
    1.5726   -0.9285    0.0000 H   0  0  0  0  0  0  0  0  0  0  0  0
    1.5726   -1.7016    0.0000 H   0  0  0  0  0  0  0  0  0  0  0  0
    1.8867   -2.3540    0.0000 H   0  0  0  0  0  0  0  0  0  0  0  0
    2.4912   -2.8360    0.0000 H   0  0  0  0  0  0  0  0  0  0  0  0
    3.1971   -2.9971    0.0000 H   0  0  0  0  0  0  0  0  0  0  0  0
    3.9508   -2.8251    0.0000 H   0  0  0  0  0  0  0  0  0  0  0  0
    8.4350    1.3411    0.0000 H   0  0  0  0  0  0  0  0  0  0  0  0
    8.0332    0.6514    0.0000 H   0  0  0  0  0  0  0  0  0  0  0  0
    9.9547    1.7411    0.0000 H   0  0  0  0  0  0  0  0  0  0  0  0
    9.1565    1.7503    0.0000 H   0  0  0  0  0  0  0  0  0  0  0  0
    9.1565   -1.2770    0.0000 H   0  0  0  0  0  0  0  0  0  0  0  0
    9.9547   -1.2678    0.0000 H   0  0  0  0  0  0  0  0  0  0  0  0
    5.1347    0.3396    0.0000 H   0  0  0  0  0  0  0  0  0  0  0  0
    5.1347   -2.9696    0.0000 H   0  0  0  0  0  0  0  0  0  0  0  0
    6.5837   -2.1479    0.0000 H   0  0  0  0  0  0  0  0  0  0  0  0
    7.7824   -1.4075    0.0000 H   0  0  0  0  0  0  0  0  0  0  0  0
   11.3101    1.8566    0.0000 H   0  0  0  0  0  0  0  0  0  0  0  0
   11.3101   -1.3834    0.0000 H   0  0  0  0  0  0  0  0  0  0  0  0
    3.7826    2.3005    0.0000 H   0  0  0  0  0  0  0  0  0  0  0  0
    3.3161    3.0430    0.0000 H   0  0  0  0  0  0  0  0  0  0  0  0
    2.5736    2.5765    0.0000 H   0  0  0  0  0  0  0  0  0  0  0  0
   13.6622    2.2366    0.0000 H   0  0  0  0  0  0  0  0  0  0  0  0
   13.0422    2.8566    0.0000 H   0  0  0  0  0  0  0  0  0  0  0  0
   12.4222    2.2366    0.0000 H   0  0  0  0  0  0  0  0  0  0  0  0
   12.4222   -1.7634    0.0000 H   0  0  0  0  0  0  0  0  0  0  0  0
   13.0422   -2.3834    0.0000 H   0  0  0  0  0  0  0  0  0  0  0  0
   13.6622   -1.7634    0.0000 H   0  0  0  0  0  0  0  0  0  0  0  0
  1  7  1  0  0  0  0
  1 28  1  0  0  0  0
  2 26  1  0  0  0  0
  2 30  1  0  0  0  0
  3 27  1  0  0  0  0
  3 31  1  0  0  0  0
  4 28  2  0  0  0  0
  5 14  1  0  0  0  0
  5 16  1  0  0  0  0
  5 23  1  0  0  0  0
  6 21  1  0  0  0  0
  6 23  2  0  0  0  0
  7  8  1  0  0  0  0
  7 12  1  0  0  0  0
  7 32  1  0  0  0  0
  8  9  1  0  0  0  0
  8 33  1  0  0  0  0
  8 34  1  0  0  0  0
  9 10  1  0  0  0  0
  9 35  1  0  0  0  0
  9 36  1  0  0  0  0
 10 11  1  0  0  0  0
 10 37  1  0  0  0  0
 10 38  1  0  0  0  0
 11 13  1  0  0  0  0
 11 39  1  0  0  0  0
 11 40  1  0  0  0  0
 12 13  2  0  0  0  0
 12 17  1  0  0  0  0
 13 20  1  0  0  0  0
 14 15  1  0  0  0  0
 14 41  1  0  0  0  0
 14 42  1  0  0  0  0
 15 18  1  0  0  0  0
 15 43  1  0  0  0  0
 15 44  1  0  0  0  0
 16 19  1  0  0  0  0
 16 45  1  0  0  0  0
 16 46  1  0  0  0  0
 17 21  2  0  0  0  0
 17 47  1  0  0  0  0
 18 19  1  0  0  0  0
 18 24  2  0  0  0  0
 19 25  2  0  0  0  0
 20 22  2  0  0  0  0
 20 48  1  0  0  0  0
 21 22  1  0  0  0  0
 22 49  1  0  0  0  0
 23 50  1  0  0  0  0
 24 26  1  0  0  0  0
 24 51  1  0  0  0  0
 25 27  1  0  0  0  0
 25 52  1  0  0  0  0
 26 27  2  0  0  0  0
 28 29  1  0  0  0  0
 29 53  1  0  0  0  0
 29 54  1  0  0  0  0
 29 55  1  0  0  0  0
 30 56  1  0  0  0  0
 30 57  1  0  0  0  0
 30 58  1  0  0  0  0
 31 59  1  0  0  0  0
 31 60  1  0  0  0  0
 31 61  1  0  0  0  0
M  END
> <PUBCHEM_COMPOUND_CID>
44439399

> <PUBCHEM_COMPOUND_CANONICALIZED>
1

> <PUBCHEM_CACTVS_COMPLEXITY>
627

> <PUBCHEM_CACTVS_HBOND_ACCEPTOR>
5

> <PUBCHEM_CACTVS_HBOND_DONOR>
0

> <PUBCHEM_CACTVS_ROTATABLE_BOND>
6

> <PUBCHEM_CACTVS_SUBSKEYS>
AAADceB7OAAAAAAAAAAAAAAAAAAAAAAAAAA8YIAABgAAAACxQAAAHgAAAAAADBzhmAYzzoMABACoAiTTbACCCAEgIgAJiAAO7IgNJiKEuZuGMCpkwBGK6Aew0PIOqAABQAAQQABQAAKAACCAAAAAAAAAAA==

> <PUBCHEM_IUPAC_OPENEYE_NAME>
[3-[(6,7-dimethoxy-3,4-dihydro-1H-isoquinolin-2-yl)methyleneamino]-6,7,8,9-tetrahydro-5H-benzo[7]annulen-5-yl] acetate

> <PUBCHEM_IUPAC_CAS_NAME>
acetic acid [3-[(6,7-dimethoxy-3,4-dihydro-1H-isoquinolin-2-yl)methylideneamino]-6,7,8,9-tetrahydro-5H-benzo[7]annulen-5-yl] ester

> <PUBCHEM_IUPAC_NAME_MARKUP>
[3-[(6,7-dimethoxy-3,4-dihydro-1<I>H</I>-isoquinolin-2-yl)methylideneamino]-6,7,8,9-tetrahydro-5<I>H</I>-benzo[7]annulen-5-yl] acetate

> <PUBCHEM_IUPAC_NAME>
[3-[(6,7-dimethoxy-3,4-dihydro-1H-isoquinolin-2-yl)methylideneamino]-6,7,8,9-tetrahydro-5H-benzo[7]annulen-5-yl] acetate

> <PUBCHEM_IUPAC_SYSTEMATIC_NAME>
[3-[(6,7-dimethoxy-3,4-dihydro-1H-isoquinolin-2-yl)methylideneamino]-6,7,8,9-tetrahydro-5H-benzo[7]annulen-5-yl] ethanoate

> <PUBCHEM_IUPAC_TRADITIONAL_NAME>
acetic acid [3-[(6,7-dimethoxy-3,4-dihydro-1H-isoquinolin-2-yl)methyleneamino]-6,7,8,9-tetrahydro-5H-benzocyclohepten-5-yl] ester

> <PUBCHEM_IUPAC_INCHI>
InChI=1S/C25H30N2O4/c1-17(28)31-23-7-5-4-6-18-8-9-21(14-22(18)23)26-16-27-11-10-19-12-24(29-2)25(30-3)13-20(19)15-27/h8-9,12-14,16,23H,4-7,10-11,15H2,1-3H3

> <PUBCHEM_IUPAC_INCHIKEY>
NPYZSFJJFCSMMV-UHFFFAOYSA-N

> <PUBCHEM_XLOGP3_AA>
4.1

> <PUBCHEM_EXACT_MASS>
422.22055744

> <PUBCHEM_MOLECULAR_FORMULA>
C25H30N2O4

> <PUBCHEM_MOLECULAR_WEIGHT>
422.5

> <PUBCHEM_OPENEYE_CAN_SMILES>
CC(=O)OC1CCCCC2=C1C=C(C=C2)N=CN3CCC4=CC(=C(C=C4C3)OC)OC

> <PUBCHEM_OPENEYE_ISO_SMILES>
CC(=O)OC1CCCCC2=C1C=C(C=C2)N=CN3CCC4=CC(=C(C=C4C3)OC)OC

> <PUBCHEM_CACTVS_TPSA>
60.4

> <PUBCHEM_MONOISOTOPIC_WEIGHT>
422.22055744

> <PUBCHEM_TOTAL_CHARGE>
0

> <PUBCHEM_HEAVY_ATOM_COUNT>
31

> <PUBCHEM_ATOM_DEF_STEREO_COUNT>
0

> <PUBCHEM_ATOM_UDEF_STEREO_COUNT>
1

> <PUBCHEM_BOND_DEF_STEREO_COUNT>
0

> <PUBCHEM_BOND_UDEF_STEREO_COUNT>
0

> <PUBCHEM_ISOTOPIC_ATOM_COUNT>
0

> <PUBCHEM_COMPONENT_COUNT>
1

> <PUBCHEM_CACTVS_TAUTO_COUNT>
-1

> <PUBCHEM_COORDINATE_TYPE>
1
5
255

> <PUBCHEM_BONDANNOTATIONS>
7  1  3
12  13  8
12  17  8
13  20  8
17  21  8
18  19  8
18  24  8
19  25  8
20  22  8
21  22  8
24  26  8
25  27  8
26  27  8

$$$$
