66801624
  -OEChem-09292322392D

 59 63  0     1  0  0  0  0  0999 V2000
    2.3572   -2.0850    0.0000 Cl  0  0  0  0  0  0  0  0  0  0  0  0
   10.9270   -1.0726    0.0000 S   0  0  0  0  0  0  0  0  0  0  0  0
   10.4270   -0.2066    0.0000 O   0  0  0  0  0  0  0  0  0  0  0  0
   11.4270   -1.9386    0.0000 O   0  0  0  0  0  0  0  0  0  0  0  0
    7.4629   -1.0726    0.0000 N   0  0  3  0  0  0  0  0  0  0  0  0
    3.7899    1.6253    0.0000 N   0  0  0  0  0  0  0  0  0  0  0  0
   10.0610   -1.5726    0.0000 N   0  0  0  0  0  0  0  0  0  0  0  0
    7.4629   -0.0726    0.0000 C   0  0  0  0  0  0  0  0  0  0  0  0
    6.5968    0.4274    0.0000 C   0  0  0  0  0  0  0  0  0  0  0  0
    5.7308   -0.0726    0.0000 C   0  0  0  0  0  0  0  0  0  0  0  0
    6.5968   -1.5726    0.0000 C   0  0  0  0  0  0  0  0  0  0  0  0
    8.3289   -1.5726    0.0000 C   0  0  0  0  0  0  0  0  0  0  0  0
    4.8648    0.4274    0.0000 C   0  0  0  0  0  0  0  0  0  0  0  0
    5.7308   -1.0726    0.0000 C   0  0  0  0  0  0  0  0  0  0  0  0
    3.9570    0.0223    0.0000 C   0  0  0  0  0  0  0  0  0  0  0  0
    4.7617    1.4161    0.0000 C   0  0  0  0  0  0  0  0  0  0  0  0
    9.1949   -1.0726    0.0000 C   0  0  0  0  0  0  0  0  0  0  0  0
    3.2892    0.7666    0.0000 C   0  0  0  0  0  0  0  0  0  0  0  0
    3.6464   -0.9282    0.0000 C   0  0  0  0  0  0  0  0  0  0  0  0
    5.5060    2.0840    0.0000 C   0  0  0  0  0  0  0  0  0  0  0  0
    2.3107    0.5604    0.0000 C   0  0  0  0  0  0  0  0  0  0  0  0
    2.6678   -1.1344    0.0000 C   0  0  0  0  0  0  0  0  0  0  0  0
   11.7930   -0.5726    0.0000 C   0  0  0  0  0  0  0  0  0  0  0  0
    2.0000   -0.3901    0.0000 C   0  0  0  0  0  0  0  0  0  0  0  0
   12.6590   -1.0726    0.0000 C   0  0  0  0  0  0  0  0  0  0  0  0
   11.7930    0.4274    0.0000 C   0  0  0  0  0  0  0  0  0  0  0  0
   13.5251   -0.5726    0.0000 C   0  0  0  0  0  0  0  0  0  0  0  0
   13.5251    0.4274    0.0000 C   0  0  0  0  0  0  0  0  0  0  0  0
   12.6590    0.9274    0.0000 C   0  0  0  0  0  0  0  0  0  0  0  0
   14.4190   -1.1073    0.0000 C   0  0  0  0  0  0  0  0  0  0  0  0
   14.4190    0.9621    0.0000 C   0  0  0  0  0  0  0  0  0  0  0  0
   15.3251   -0.5934    0.0000 C   0  0  0  0  0  0  0  0  0  0  0  0
   15.3251    0.4482    0.0000 C   0  0  0  0  0  0  0  0  0  0  0  0
    8.0734   -0.1803    0.0000 H   0  0  0  0  0  0  0  0  0  0  0  0
    7.6749    0.5100    0.0000 H   0  0  0  0  0  0  0  0  0  0  0  0
    6.9954    0.9024    0.0000 H   0  0  0  0  0  0  0  0  0  0  0  0
    6.1983    0.9024    0.0000 H   0  0  0  0  0  0  0  0  0  0  0  0
    6.1983   -2.0475    0.0000 H   0  0  0  0  0  0  0  0  0  0  0  0
    6.9954   -2.0475    0.0000 H   0  0  0  0  0  0  0  0  0  0  0  0
    7.9304   -2.0475    0.0000 H   0  0  0  0  0  0  0  0  0  0  0  0
    8.7274   -2.0475    0.0000 H   0  0  0  0  0  0  0  0  0  0  0  0
    5.1939   -1.3826    0.0000 H   0  0  0  0  0  0  0  0  0  0  0  0
    9.5934   -0.5976    0.0000 H   0  0  0  0  0  0  0  0  0  0  0  0
    8.7964   -0.5976    0.0000 H   0  0  0  0  0  0  0  0  0  0  0  0
    3.5397    2.1926    0.0000 H   0  0  0  0  0  0  0  0  0  0  0  0
   10.0610   -2.1926    0.0000 H   0  0  0  0  0  0  0  0  0  0  0  0
    4.0604   -1.3897    0.0000 H   0  0  0  0  0  0  0  0  0  0  0  0
    5.9201    1.6225    0.0000 H   0  0  0  0  0  0  0  0  0  0  0  0
    5.9675    2.4980    0.0000 H   0  0  0  0  0  0  0  0  0  0  0  0
    5.0920    2.5454    0.0000 H   0  0  0  0  0  0  0  0  0  0  0  0
    1.8966    1.0218    0.0000 H   0  0  0  0  0  0  0  0  0  0  0  0
    1.3933   -0.5180    0.0000 H   0  0  0  0  0  0  0  0  0  0  0  0
   12.6590   -1.6926    0.0000 H   0  0  0  0  0  0  0  0  0  0  0  0
   11.2561    0.7374    0.0000 H   0  0  0  0  0  0  0  0  0  0  0  0
   12.6590    1.5474    0.0000 H   0  0  0  0  0  0  0  0  0  0  0  0
   14.4118   -1.7272    0.0000 H   0  0  0  0  0  0  0  0  0  0  0  0
   14.4118    1.5820    0.0000 H   0  0  0  0  0  0  0  0  0  0  0  0
   15.8608   -0.9055    0.0000 H   0  0  0  0  0  0  0  0  0  0  0  0
   15.8608    0.7603    0.0000 H   0  0  0  0  0  0  0  0  0  0  0  0
  1 22  1  0  0  0  0
  2  3  2  0  0  0  0
  2  4  2  0  0  0  0
  2  7  1  0  0  0  0
  2 23  1  0  0  0  0
  5  8  1  0  0  0  0
  5 11  1  0  0  0  0
  5 12  1  0  0  0  0
  6 16  1  0  0  0  0
  6 18  1  0  0  0  0
  6 45  1  0  0  0  0
  7 17  1  0  0  0  0
  7 46  1  0  0  0  0
  8  9  1  0  0  0  0
  8 34  1  0  0  0  0
  8 35  1  0  0  0  0
  9 10  1  0  0  0  0
  9 36  1  0  0  0  0
  9 37  1  0  0  0  0
 10 13  1  0  0  0  0
 10 14  2  0  0  0  0
 11 14  1  0  0  0  0
 11 38  1  0  0  0  0
 11 39  1  0  0  0  0
 12 17  1  0  0  0  0
 12 40  1  0  0  0  0
 12 41  1  0  0  0  0
 13 15  1  0  0  0  0
 13 16  2  0  0  0  0
 14 42  1  0  0  0  0
 15 18  2  0  0  0  0
 15 19  1  0  0  0  0
 16 20  1  0  0  0  0
 17 43  1  0  0  0  0
 17 44  1  0  0  0  0
 18 21  1  0  0  0  0
 19 22  2  0  0  0  0
 19 47  1  0  0  0  0
 20 48  1  0  0  0  0
 20 49  1  0  0  0  0
 20 50  1  0  0  0  0
 21 24  2  0  0  0  0
 21 51  1  0  0  0  0
 22 24  1  0  0  0  0
 23 25  2  0  0  0  0
 23 26  1  0  0  0  0
 24 52  1  0  0  0  0
 25 27  1  0  0  0  0
 25 53  1  0  0  0  0
 26 29  2  0  0  0  0
 26 54  1  0  0  0  0
 27 28  1  0  0  0  0
 27 30  2  0  0  0  0
 28 29  1  0  0  0  0
 28 31  2  0  0  0  0
 29 55  1  0  0  0  0
 30 32  1  0  0  0  0
 30 56  1  0  0  0  0
 31 33  1  0  0  0  0
 31 57  1  0  0  0  0
 32 33  2  0  0  0  0
 32 58  1  0  0  0  0
 33 59  1  0  0  0  0
M  END
> <PUBCHEM_COMPOUND_CID>
66801624

> <PUBCHEM_COMPOUND_CANONICALIZED>
1

> <PUBCHEM_CACTVS_COMPLEXITY>
813

> <PUBCHEM_CACTVS_HBOND_ACCEPTOR>
4

> <PUBCHEM_CACTVS_HBOND_DONOR>
2

> <PUBCHEM_CACTVS_ROTATABLE_BOND>
6

> <PUBCHEM_CACTVS_SUBSKEYS>
AAADceB7MABEAAAAAAAAAAAAAAAAAWAAAAAwYMEAAAAAAFjB9AAAHAYQQAAADArBXiQywfPJkAKgAyRiRHDCgDAhByAImbg4ZpgIYOLBk5GUIAhgkADIyAcQgMAOkABAoAASAAAgAIFAACQAAAAAAAAAAA==

> <PUBCHEM_IUPAC_OPENEYE_NAME>
N-[2-[4-(5-chloro-2-methyl-1H-indol-3-yl)-3,6-dihydro-2H-pyridin-1-yl]ethyl]naphthalene-2-sulfonamide

> <PUBCHEM_IUPAC_CAS_NAME>
N-[2-[4-(5-chloro-2-methyl-1H-indol-3-yl)-3,6-dihydro-2H-pyridin-1-yl]ethyl]-2-naphthalenesulfonamide

> <PUBCHEM_IUPAC_NAME_MARKUP>
<I>N</I>-[2-[4-(5-chloro-2-methyl-1<I>H</I>-indol-3-yl)-3,6-dihydro-2<I>H</I>-pyridin-1-yl]ethyl]naphthalene-2-sulfonamide

> <PUBCHEM_IUPAC_NAME>
N-[2-[4-(5-chloro-2-methyl-1H-indol-3-yl)-3,6-dihydro-2H-pyridin-1-yl]ethyl]naphthalene-2-sulfonamide

> <PUBCHEM_IUPAC_SYSTEMATIC_NAME>
N-[2-[4-(5-chloranyl-2-methyl-1H-indol-3-yl)-3,6-dihydro-2H-pyridin-1-yl]ethyl]naphthalene-2-sulfonamide

> <PUBCHEM_IUPAC_TRADITIONAL_NAME>
N-[2-[4-(5-chloro-2-methyl-1H-indol-3-yl)-3,6-dihydro-2H-pyridin-1-yl]ethyl]naphthalene-2-sulfonamide

> <PUBCHEM_IUPAC_INCHI>
InChI=1S/C26H26ClN3O2S/c1-18-26(24-17-22(27)7-9-25(24)29-18)20-10-13-30(14-11-20)15-12-28-33(31,32)23-8-6-19-4-2-3-5-21(19)16-23/h2-10,16-17,28-29H,11-15H2,1H3

> <PUBCHEM_IUPAC_INCHIKEY>
KKWWZCBHIFWDNY-UHFFFAOYSA-N

> <PUBCHEM_XLOGP3_AA>
5.2

> <PUBCHEM_EXACT_MASS>
479.1434259

> <PUBCHEM_MOLECULAR_FORMULA>
C26H26ClN3O2S

> <PUBCHEM_MOLECULAR_WEIGHT>
480.0

> <PUBCHEM_OPENEYE_CAN_SMILES>
CC1=C(C2=C(N1)C=CC(=C2)Cl)C3=CCN(CC3)CCNS(=O)(=O)C4=CC5=CC=CC=C5C=C4

> <PUBCHEM_OPENEYE_ISO_SMILES>
CC1=C(C2=C(N1)C=CC(=C2)Cl)C3=CCN(CC3)CCNS(=O)(=O)C4=CC5=CC=CC=C5C=C4

> <PUBCHEM_CACTVS_TPSA>
73.6

> <PUBCHEM_MONOISOTOPIC_WEIGHT>
479.1434259

> <PUBCHEM_TOTAL_CHARGE>
0

> <PUBCHEM_HEAVY_ATOM_COUNT>
33

> <PUBCHEM_ATOM_DEF_STEREO_COUNT>
0

> <PUBCHEM_ATOM_UDEF_STEREO_COUNT>
0

> <PUBCHEM_BOND_DEF_STEREO_COUNT>
0

> <PUBCHEM_BOND_UDEF_STEREO_COUNT>
0

> <PUBCHEM_ISOTOPIC_ATOM_COUNT>
0

> <PUBCHEM_COMPONENT_COUNT>
1

> <PUBCHEM_CACTVS_TAUTO_COUNT>
-1

> <PUBCHEM_COORDINATE_TYPE>
1
5
255

> <PUBCHEM_BONDANNOTATIONS>
13  15  8
13  16  8
15  18  8
15  19  8
18  21  8
19  22  8
21  24  8
22  24  8
23  25  8
23  26  8
25  27  8
26  29  8
27  28  8
27  30  8
28  29  8
28  31  8
30  32  8
31  33  8
32  33  8
6  16  8
6  18  8

$$$$
