44376241
  -OEChem-09292322212D

 52 55  0     1  0  0  0  0  0999 V2000
    6.3243   -0.5071    0.0000 O   0  0  0  0  0  0  0  0  0  0  0  0
    2.8680   -2.5204    0.0000 O   0  0  0  0  0  0  0  0  0  0  0  0
    9.8564   -0.4796    0.0000 N   0  0  3  0  0  0  0  0  0  0  0  0
   11.5884    0.5204    0.0000 N   0  0  3  0  0  0  0  0  0  0  0  0
   12.4544    2.0204    0.0000 N   0  0  0  0  0  0  0  0  0  0  0  0
   13.3205    0.5204    0.0000 N   0  0  0  0  0  0  0  0  0  0  0  0
    9.8564    0.5204    0.0000 C   0  0  1  0  0  0  0  0  0  0  0  0
    8.0564   -0.5004    0.0000 C   0  0  1  0  0  0  0  0  0  0  0  0
    8.9624    1.0551    0.0000 C   0  0  0  0  0  0  0  0  0  0  0  0
    8.9624   -1.0143    0.0000 C   0  0  0  0  0  0  0  0  0  0  0  0
    8.0564    0.5412    0.0000 C   0  0  0  0  0  0  0  0  0  0  0  0
   10.7224    1.0204    0.0000 C   0  0  0  0  0  0  0  0  0  0  0  0
   10.7224   -0.9796    0.0000 C   0  0  0  0  0  0  0  0  0  0  0  0
   11.5884   -0.4796    0.0000 C   0  0  0  0  0  0  0  0  0  0  0  0
    7.1923   -1.0037    0.0000 C   0  0  0  0  0  0  0  0  0  0  0  0
   12.4544    1.0204    0.0000 C   0  0  0  0  0  0  0  0  0  0  0  0
    5.4602   -1.0104    0.0000 C   0  0  0  0  0  0  0  0  0  0  0  0
   13.3205    2.5204    0.0000 C   0  0  0  0  0  0  0  0  0  0  0  0
   14.1865    1.0204    0.0000 C   0  0  0  0  0  0  0  0  0  0  0  0
    4.5923   -0.5138    0.0000 C   0  0  0  0  0  0  0  0  0  0  0  0
    5.4641   -2.0104    0.0000 C   0  0  0  0  0  0  0  0  0  0  0  0
   14.1865    2.0204    0.0000 C   0  0  0  0  0  0  0  0  0  0  0  0
    3.7282   -1.0171    0.0000 C   0  0  0  0  0  0  0  0  0  0  0  0
    4.6000   -2.5137    0.0000 C   0  0  0  0  0  0  0  0  0  0  0  0
    3.7320   -2.0171    0.0000 C   0  0  0  0  0  0  0  0  0  0  0  0
    2.0000   -2.0238    0.0000 C   0  0  0  0  0  0  0  0  0  0  0  0
    9.8629    1.3704    0.0000 H   0  0  0  0  0  0  0  0  0  0  0  0
    7.5188   -0.1914    0.0000 H   0  0  0  0  0  0  0  0  0  0  0  0
    9.3670    1.5249    0.0000 H   0  0  0  0  0  0  0  0  0  0  0  0
    8.5688    1.5341    0.0000 H   0  0  0  0  0  0  0  0  0  0  0  0
    8.5688   -1.4933    0.0000 H   0  0  0  0  0  0  0  0  0  0  0  0
    9.3670   -1.4840    0.0000 H   0  0  0  0  0  0  0  0  0  0  0  0
    7.8473    1.1249    0.0000 H   0  0  0  0  0  0  0  0  0  0  0  0
    7.4455    0.4351    0.0000 H   0  0  0  0  0  0  0  0  0  0  0  0
   11.1209    1.4954    0.0000 H   0  0  0  0  0  0  0  0  0  0  0  0
   10.3239    1.4954    0.0000 H   0  0  0  0  0  0  0  0  0  0  0  0
   10.3239   -1.4545    0.0000 H   0  0  0  0  0  0  0  0  0  0  0  0
   11.1209   -1.4545    0.0000 H   0  0  0  0  0  0  0  0  0  0  0  0
   11.8005   -1.0622    0.0000 H   0  0  0  0  0  0  0  0  0  0  0  0
   12.1990   -0.3719    0.0000 H   0  0  0  0  0  0  0  0  0  0  0  0
    6.7956   -1.4802    0.0000 H   0  0  0  0  0  0  0  0  0  0  0  0
    7.5926   -1.4771    0.0000 H   0  0  0  0  0  0  0  0  0  0  0  0
   13.3205    3.1404    0.0000 H   0  0  0  0  0  0  0  0  0  0  0  0
   14.7234    0.7104    0.0000 H   0  0  0  0  0  0  0  0  0  0  0  0
    4.5899    0.1062    0.0000 H   0  0  0  0  0  0  0  0  0  0  0  0
    6.0022   -2.3183    0.0000 H   0  0  0  0  0  0  0  0  0  0  0  0
   14.7234    2.3304    0.0000 H   0  0  0  0  0  0  0  0  0  0  0  0
    3.1901   -0.7092    0.0000 H   0  0  0  0  0  0  0  0  0  0  0  0
    4.6024   -3.1337    0.0000 H   0  0  0  0  0  0  0  0  0  0  0  0
    2.3079   -1.4856    0.0000 H   0  0  0  0  0  0  0  0  0  0  0  0
    1.4619   -1.7158    0.0000 H   0  0  0  0  0  0  0  0  0  0  0  0
    1.6921   -2.5619    0.0000 H   0  0  0  0  0  0  0  0  0  0  0  0
  1 15  1  0  0  0  0
  1 17  1  0  0  0  0
  2 25  1  0  0  0  0
  2 26  1  0  0  0  0
  3  7  1  0  0  0  0
  3 10  1  0  0  0  0
  3 13  1  0  0  0  0
  4 12  1  0  0  0  0
  4 14  1  0  0  0  0
  4 16  1  0  0  0  0
  5 16  2  0  0  0  0
  5 18  1  0  0  0  0
  6 16  1  0  0  0  0
  6 19  2  0  0  0  0
  7  9  1  0  0  0  0
  7 12  1  0  0  0  0
  7 27  1  6  0  0  0
  8 10  1  0  0  0  0
  8 11  1  0  0  0  0
  8 15  1  6  0  0  0
  8 28  1  0  0  0  0
  9 11  1  0  0  0  0
  9 29  1  0  0  0  0
  9 30  1  0  0  0  0
 10 31  1  0  0  0  0
 10 32  1  0  0  0  0
 11 33  1  0  0  0  0
 11 34  1  0  0  0  0
 12 35  1  0  0  0  0
 12 36  1  0  0  0  0
 13 14  1  0  0  0  0
 13 37  1  0  0  0  0
 13 38  1  0  0  0  0
 14 39  1  0  0  0  0
 14 40  1  0  0  0  0
 15 41  1  0  0  0  0
 15 42  1  0  0  0  0
 17 20  2  0  0  0  0
 17 21  1  0  0  0  0
 18 22  2  0  0  0  0
 18 43  1  0  0  0  0
 19 22  1  0  0  0  0
 19 44  1  0  0  0  0
 20 23  1  0  0  0  0
 20 45  1  0  0  0  0
 21 24  2  0  0  0  0
 21 46  1  0  0  0  0
 22 47  1  0  0  0  0
 23 25  2  0  0  0  0
 23 48  1  0  0  0  0
 24 25  1  0  0  0  0
 24 49  1  0  0  0  0
 26 50  1  0  0  0  0
 26 51  1  0  0  0  0
 26 52  1  0  0  0  0
M  END
> <PUBCHEM_COMPOUND_CID>
44376241

> <PUBCHEM_COMPOUND_CANONICALIZED>
1

> <PUBCHEM_CACTVS_COMPLEXITY>
424

> <PUBCHEM_CACTVS_HBOND_ACCEPTOR>
6

> <PUBCHEM_CACTVS_HBOND_DONOR>
0

> <PUBCHEM_CACTVS_ROTATABLE_BOND>
5

> <PUBCHEM_CACTVS_SUBSKEYS>
AAADceB7sAAAAAAAAAAAAAAAAAAAAAAAAAA8WLEAAAAAAACxwAAAHgAAAAAADSzhkgY/lpcIFACgADBnZACCiCkxIqAJ2CA+bJiMbqLE+VqWPCiuwBPIqCfQUAMMAQAAAAAAAAACAAAAAAAAAAAAAAAAAA==

> <PUBCHEM_IUPAC_OPENEYE_NAME>
(7R,9aS)-7-[(4-methoxyphenoxy)methyl]-2-pyrimidin-2-yl-1,3,4,6,7,8,9,9a-octahydropyrido[1,2-a]pyrazine

> <PUBCHEM_IUPAC_CAS_NAME>
(7R,9aS)-7-[(4-methoxyphenoxy)methyl]-2-(2-pyrimidinyl)-1,3,4,6,7,8,9,9a-octahydropyrido[1,2-a]pyrazine

> <PUBCHEM_IUPAC_NAME_MARKUP>
(7<I>R</I>,9<I>a</I><I>S</I>)-7-[(4-methoxyphenoxy)methyl]-2-pyrimidin-2-yl-1,3,4,6,7,8,9,9<I>a</I>-octahydropyrido[1,2-a]pyrazine

> <PUBCHEM_IUPAC_NAME>
(7R,9aS)-7-[(4-methoxyphenoxy)methyl]-2-pyrimidin-2-yl-1,3,4,6,7,8,9,9a-octahydropyrido[1,2-a]pyrazine

> <PUBCHEM_IUPAC_SYSTEMATIC_NAME>
(7R,9aS)-7-[(4-methoxyphenoxy)methyl]-2-pyrimidin-2-yl-1,3,4,6,7,8,9,9a-octahydropyrido[1,2-a]pyrazine

> <PUBCHEM_IUPAC_TRADITIONAL_NAME>
(7R,9aS)-7-[(4-methoxyphenoxy)methyl]-2-(2-pyrimidyl)-1,3,4,6,7,8,9,9a-octahydropyrido[1,2-a]pyrazine

> <PUBCHEM_IUPAC_INCHI>
InChI=1S/C20H26N4O2/c1-25-18-5-7-19(8-6-18)26-15-16-3-4-17-14-24(12-11-23(17)13-16)20-21-9-2-10-22-20/h2,5-10,16-17H,3-4,11-15H2,1H3/t16-,17+/m1/s1

> <PUBCHEM_IUPAC_INCHIKEY>
DJHHAPHHUCKKIN-SJORKVTESA-N

> <PUBCHEM_XLOGP3_AA>
2.9

> <PUBCHEM_EXACT_MASS>
354.20557608

> <PUBCHEM_MOLECULAR_FORMULA>
C20H26N4O2

> <PUBCHEM_MOLECULAR_WEIGHT>
354.4

> <PUBCHEM_OPENEYE_CAN_SMILES>
COC1=CC=C(C=C1)OCC2CCC3CN(CCN3C2)C4=NC=CC=N4

> <PUBCHEM_OPENEYE_ISO_SMILES>
COC1=CC=C(C=C1)OC[C@@H]2CC[C@H]3CN(CCN3C2)C4=NC=CC=N4

> <PUBCHEM_CACTVS_TPSA>
50.7

> <PUBCHEM_MONOISOTOPIC_WEIGHT>
354.20557608

> <PUBCHEM_TOTAL_CHARGE>
0

> <PUBCHEM_HEAVY_ATOM_COUNT>
26

> <PUBCHEM_ATOM_DEF_STEREO_COUNT>
2

> <PUBCHEM_ATOM_UDEF_STEREO_COUNT>
0

> <PUBCHEM_BOND_DEF_STEREO_COUNT>
0

> <PUBCHEM_BOND_UDEF_STEREO_COUNT>
0

> <PUBCHEM_ISOTOPIC_ATOM_COUNT>
0

> <PUBCHEM_COMPONENT_COUNT>
1

> <PUBCHEM_CACTVS_TAUTO_COUNT>
-1

> <PUBCHEM_COORDINATE_TYPE>
1
5
255

> <PUBCHEM_BONDANNOTATIONS>
17  20  8
17  21  8
18  22  8
19  22  8
20  23  8
21  24  8
23  25  8
24  25  8
5  16  8
5  18  8
6  16  8
6  19  8
7  27  6
8  15  6

$$$$
