71734126
  -OEChem-09292322332D

 58 60  0     1  0  0  0  0  0999 V2000
    6.7619    4.0986    0.0000 O   0  0  0  0  0  0  0  0  0  0  0  0
   10.7619    0.6345    0.0000 N   0  0  3  0  0  0  0  0  0  0  0  0
    6.7619    2.3665    0.0000 N   0  0  0  0  0  0  0  0  0  0  0  0
    3.7320    2.7326    0.0000 N   0  0  0  0  0  0  0  0  0  0  0  0
    4.6783    2.4278    0.0000 N   0  0  0  0  0  0  0  0  0  0  0  0
   11.2619   -0.2315    0.0000 C   0  0  1  0  0  0  0  0  0  0  0  0
   10.7619   -1.0976    0.0000 C   0  0  0  0  0  0  0  0  0  0  0  0
   12.2619   -0.2315    0.0000 C   0  0  0  0  0  0  0  0  0  0  0  0
    9.7619    0.6345    0.0000 C   0  0  0  0  0  0  0  0  0  0  0  0
   11.2619   -1.9636    0.0000 C   0  0  0  0  0  0  0  0  0  0  0  0
   11.2619    1.5005    0.0000 C   0  0  0  0  0  0  0  0  0  0  0  0
    9.2619    1.5005    0.0000 C   0  0  0  0  0  0  0  0  0  0  0  0
   12.7619   -1.0976    0.0000 C   0  0  0  0  0  0  0  0  0  0  0  0
   12.2619   -1.9636    0.0000 C   0  0  0  0  0  0  0  0  0  0  0  0
   12.2619    1.5005    0.0000 C   0  0  0  0  0  0  0  0  0  0  0  0
    8.2619    1.5005    0.0000 C   0  0  0  0  0  0  0  0  0  0  0  0
    7.7619    2.3665    0.0000 C   0  0  0  0  0  0  0  0  0  0  0  0
   12.7619    2.3665    0.0000 C   0  0  0  0  0  0  0  0  0  0  0  0
   12.7619   -2.8296    0.0000 C   0  0  0  0  0  0  0  0  0  0  0  0
    6.2619    3.2326    0.0000 C   0  0  0  0  0  0  0  0  0  0  0  0
   13.2619   -3.6956    0.0000 C   0  0  0  0  0  0  0  0  0  0  0  0
    5.2619    3.2326    0.0000 C   0  0  0  0  0  0  0  0  0  0  0  0
    4.6783    4.0373    0.0000 C   0  0  0  0  0  0  0  0  0  0  0  0
    3.7320    3.7326    0.0000 C   0  0  0  0  0  0  0  0  0  0  0  0
    2.8660    4.2326    0.0000 C   0  0  0  0  0  0  0  0  0  0  0  0
    2.8660    2.2326    0.0000 C   0  0  0  0  0  0  0  0  0  0  0  0
    2.0000    3.7326    0.0000 C   0  0  0  0  0  0  0  0  0  0  0  0
    2.0000    2.7326    0.0000 C   0  0  0  0  0  0  0  0  0  0  0  0
   10.6419   -0.2315    0.0000 H   0  0  0  0  0  0  0  0  0  0  0  0
   10.2869   -0.6990    0.0000 H   0  0  0  0  0  0  0  0  0  0  0  0
   10.2869   -1.4961    0.0000 H   0  0  0  0  0  0  0  0  0  0  0  0
   12.8445   -0.0195    0.0000 H   0  0  0  0  0  0  0  0  0  0  0  0
   12.1542    0.3790    0.0000 H   0  0  0  0  0  0  0  0  0  0  0  0
    9.1793    0.4224    0.0000 H   0  0  0  0  0  0  0  0  0  0  0  0
    9.8695    0.0239    0.0000 H   0  0  0  0  0  0  0  0  0  0  0  0
   10.6793   -2.1756    0.0000 H   0  0  0  0  0  0  0  0  0  0  0  0
   11.3695   -2.5742    0.0000 H   0  0  0  0  0  0  0  0  0  0  0  0
   11.3695    2.1111    0.0000 H   0  0  0  0  0  0  0  0  0  0  0  0
   10.6793    1.7126    0.0000 H   0  0  0  0  0  0  0  0  0  0  0  0
    9.8445    1.7126    0.0000 H   0  0  0  0  0  0  0  0  0  0  0  0
    9.1542    2.1111    0.0000 H   0  0  0  0  0  0  0  0  0  0  0  0
   13.3819   -1.0976    0.0000 H   0  0  0  0  0  0  0  0  0  0  0  0
   12.1542    0.8899    0.0000 H   0  0  0  0  0  0  0  0  0  0  0  0
   12.8445    1.2885    0.0000 H   0  0  0  0  0  0  0  0  0  0  0  0
    7.6793    1.2885    0.0000 H   0  0  0  0  0  0  0  0  0  0  0  0
    8.3695    0.8899    0.0000 H   0  0  0  0  0  0  0  0  0  0  0  0
    8.3445    2.5786    0.0000 H   0  0  0  0  0  0  0  0  0  0  0  0
    7.6542    2.9771    0.0000 H   0  0  0  0  0  0  0  0  0  0  0  0
   13.2988    2.0565    0.0000 H   0  0  0  0  0  0  0  0  0  0  0  0
   13.0719    2.9035    0.0000 H   0  0  0  0  0  0  0  0  0  0  0  0
   12.2249    2.6765    0.0000 H   0  0  0  0  0  0  0  0  0  0  0  0
    6.4519    1.8296    0.0000 H   0  0  0  0  0  0  0  0  0  0  0  0
   13.5719   -4.2326    0.0000 H   0  0  0  0  0  0  0  0  0  0  0  0
    4.8709    4.6266    0.0000 H   0  0  0  0  0  0  0  0  0  0  0  0
    2.8660    4.8526    0.0000 H   0  0  0  0  0  0  0  0  0  0  0  0
    2.8660    1.6126    0.0000 H   0  0  0  0  0  0  0  0  0  0  0  0
    1.4631    4.0426    0.0000 H   0  0  0  0  0  0  0  0  0  0  0  0
    1.4631    2.4226    0.0000 H   0  0  0  0  0  0  0  0  0  0  0  0
  1 20  2  0  0  0  0
  6  2  1  6  0  0  0
  2  9  1  0  0  0  0
  2 11  1  0  0  0  0
  3 17  1  0  0  0  0
  3 20  1  0  0  0  0
  3 52  1  0  0  0  0
  4  5  1  0  0  0  0
  4 24  1  0  0  0  0
  4 26  1  0  0  0  0
  5 22  2  0  0  0  0
  6  7  1  0  0  0  0
  6  8  1  0  0  0  0
  6 29  1  0  0  0  0
  7 10  1  0  0  0  0
  7 30  1  0  0  0  0
  7 31  1  0  0  0  0
  8 13  1  0  0  0  0
  8 32  1  0  0  0  0
  8 33  1  0  0  0  0
  9 12  1  0  0  0  0
  9 34  1  0  0  0  0
  9 35  1  0  0  0  0
 10 14  1  0  0  0  0
 10 36  1  0  0  0  0
 10 37  1  0  0  0  0
 11 15  1  0  0  0  0
 11 38  1  0  0  0  0
 11 39  1  0  0  0  0
 12 16  1  0  0  0  0
 12 40  1  0  0  0  0
 12 41  1  0  0  0  0
 13 14  2  0  0  0  0
 13 42  1  0  0  0  0
 14 19  1  0  0  0  0
 15 18  1  0  0  0  0
 15 43  1  0  0  0  0
 15 44  1  0  0  0  0
 16 17  1  0  0  0  0
 16 45  1  0  0  0  0
 16 46  1  0  0  0  0
 17 47  1  0  0  0  0
 17 48  1  0  0  0  0
 18 49  1  0  0  0  0
 18 50  1  0  0  0  0
 18 51  1  0  0  0  0
 19 21  3  0  0  0  0
 20 22  1  0  0  0  0
 21 53  1  0  0  0  0
 22 23  1  0  0  0  0
 23 24  2  0  0  0  0
 23 54  1  0  0  0  0
 24 25  1  0  0  0  0
 25 27  2  0  0  0  0
 25 55  1  0  0  0  0
 26 28  2  0  0  0  0
 26 56  1  0  0  0  0
 27 28  1  0  0  0  0
 27 57  1  0  0  0  0
 28 58  1  0  0  0  0
M  END
> <PUBCHEM_COMPOUND_CID>
71734126

> <PUBCHEM_COMPOUND_CANONICALIZED>
1

> <PUBCHEM_CACTVS_COMPLEXITY>
593

> <PUBCHEM_CACTVS_HBOND_ACCEPTOR>
3

> <PUBCHEM_CACTVS_HBOND_DONOR>
1

> <PUBCHEM_CACTVS_ROTATABLE_BOND>
10

> <PUBCHEM_CACTVS_SUBSKEYS>
AAADceB7oAAAAAAAAAAAAAAAAAAAAWAAAAAsQAAAAAAAAFgB4AAAHgAYAAAADCjBlgQ+wLPIEADqGzV3VAiShCA3giAY2KG4ZNgIYPLA1dGUpQhgngDIyYcciICAAAAAAAAAAAAAAAAAAAAAAAAAAAAAAA==

> <PUBCHEM_IUPAC_OPENEYE_NAME>
N-[4-[[(1S)-4-ethynylcyclohex-3-en-1-yl]-propyl-amino]butyl]pyrazolo[1,5-a]pyridine-2-carboxamide

> <PUBCHEM_IUPAC_CAS_NAME>
N-[4-[[(1S)-4-ethynyl-1-cyclohex-3-enyl]-propylamino]butyl]-2-pyrazolo[1,5-a]pyridinecarboxamide

> <PUBCHEM_IUPAC_NAME_MARKUP>
<I>N</I>-[4-[[(1<I>S</I>)-4-ethynylcyclohex-3-en-1-yl]-propylamino]butyl]pyrazolo[1,5-a]pyridine-2-carboxamide

> <PUBCHEM_IUPAC_NAME>
N-[4-[[(1S)-4-ethynylcyclohex-3-en-1-yl]-propylamino]butyl]pyrazolo[1,5-a]pyridine-2-carboxamide

> <PUBCHEM_IUPAC_SYSTEMATIC_NAME>
N-[4-[[(1S)-4-ethynylcyclohex-3-en-1-yl]-propyl-amino]butyl]pyrazolo[1,5-a]pyridine-2-carboxamide

> <PUBCHEM_IUPAC_TRADITIONAL_NAME>
N-[4-[[(1S)-4-ethynylcyclohex-3-en-1-yl]-propyl-amino]butyl]pyrazolo[1,5-a]pyridine-2-carboxamide

> <PUBCHEM_IUPAC_INCHI>
InChI=1S/C23H30N4O/c1-3-15-26(20-12-10-19(4-2)11-13-20)16-8-6-14-24-23(28)22-18-21-9-5-7-17-27(21)25-22/h2,5,7,9-10,17-18,20H,3,6,8,11-16H2,1H3,(H,24,28)/t20-/m1/s1

> <PUBCHEM_IUPAC_INCHIKEY>
KVEHVMQJUPMJNA-HXUWFJFHSA-N

> <PUBCHEM_XLOGP3_AA>
3.7

> <PUBCHEM_EXACT_MASS>
378.24196159

> <PUBCHEM_MOLECULAR_FORMULA>
C23H30N4O

> <PUBCHEM_MOLECULAR_WEIGHT>
378.5

> <PUBCHEM_OPENEYE_CAN_SMILES>
CCCN(CCCCNC(=O)C1=NN2C=CC=CC2=C1)C3CCC(=CC3)C#C

> <PUBCHEM_OPENEYE_ISO_SMILES>
CCCN(CCCCNC(=O)C1=NN2C=CC=CC2=C1)[C@H]3CCC(=CC3)C#C

> <PUBCHEM_CACTVS_TPSA>
49.6

> <PUBCHEM_MONOISOTOPIC_WEIGHT>
378.24196159

> <PUBCHEM_TOTAL_CHARGE>
0

> <PUBCHEM_HEAVY_ATOM_COUNT>
28

> <PUBCHEM_ATOM_DEF_STEREO_COUNT>
1

> <PUBCHEM_ATOM_UDEF_STEREO_COUNT>
0

> <PUBCHEM_BOND_DEF_STEREO_COUNT>
0

> <PUBCHEM_BOND_UDEF_STEREO_COUNT>
0

> <PUBCHEM_ISOTOPIC_ATOM_COUNT>
0

> <PUBCHEM_COMPONENT_COUNT>
1

> <PUBCHEM_CACTVS_TAUTO_COUNT>
-1

> <PUBCHEM_COORDINATE_TYPE>
1
5
255

> <PUBCHEM_BONDANNOTATIONS>
6  2  6
22  23  8
23  24  8
24  25  8
25  27  8
26  28  8
27  28  8
4  24  8
4  26  8
4  5  8
5  22  8

$$$$
