56593482
  -OEChem-09292321592D

 59 62  0     1  0  0  0  0  0999 V2000
   12.3864    1.3791    0.0000 Cl  0  0  0  0  0  0  0  0  0  0  0  0
   13.5194    3.0273    0.0000 Cl  0  0  0  0  0  0  0  0  0  0  0  0
    7.2622   -2.4314    0.0000 O   0  0  0  0  0  0  0  0  0  0  0  0
    2.0000   -2.4073    0.0000 O   0  0  0  0  0  0  0  0  0  0  0  0
   11.5942   -1.9481    0.0000 N   0  0  3  0  0  0  0  0  0  0  0  0
   13.2472   -0.4261    0.0000 N   0  0  3  0  0  0  0  0  0  0  0  0
    3.7320   -2.4073    0.0000 N   0  0  0  0  0  0  0  0  0  0  0  0
    5.4920   -2.4419    0.0000 N   0  0  0  0  0  0  0  0  0  0  0  0
   12.4183   -2.5146    0.0000 C   0  0  0  0  0  0  0  0  0  0  0  0
   11.5233   -0.9506    0.0000 C   0  0  0  0  0  0  0  0  0  0  0  0
   13.3750   -2.2235    0.0000 C   0  0  0  0  0  0  0  0  0  0  0  0
   12.2590   -0.2733    0.0000 C   0  0  0  0  0  0  0  0  0  0  0  0
   13.7439   -1.2941    0.0000 C   0  0  0  0  0  0  0  0  0  0  0  0
   10.7263   -2.4448    0.0000 C   0  0  0  0  0  0  0  0  0  0  0  0
    9.8622   -1.9414    0.0000 C   0  0  0  0  0  0  0  0  0  0  0  0
   13.8137    0.3979    0.0000 C   0  0  0  0  0  0  0  0  0  0  0  0
    8.9942   -2.4381    0.0000 C   0  0  0  0  0  0  0  0  0  0  0  0
    8.1301   -1.9348    0.0000 C   0  0  0  0  0  0  0  0  0  0  0  0
   13.3833    1.3006    0.0000 C   0  0  0  0  0  0  0  0  0  0  0  0
   14.8106    0.3194    0.0000 C   0  0  0  0  0  0  0  0  0  0  0  0
   13.9498    2.1246    0.0000 C   0  0  0  0  0  0  0  0  0  0  0  0
   15.3771    1.1434    0.0000 C   0  0  0  0  0  0  0  0  0  0  0  0
    3.7320   -0.4073    0.0000 C   0  0  0  0  0  0  0  0  0  0  0  0
    4.5981   -0.9073    0.0000 C   0  0  0  0  0  0  0  0  0  0  0  0
   14.9467    2.0460    0.0000 C   0  0  0  0  0  0  0  0  0  0  0  0
    6.3981   -1.9281    0.0000 C   0  0  0  0  0  0  0  0  0  0  0  0
    2.8660   -0.9073    0.0000 C   0  0  0  0  0  0  0  0  0  0  0  0
    4.5981   -1.9073    0.0000 C   0  0  0  0  0  0  0  0  0  0  0  0
    5.4920   -0.3726    0.0000 C   0  0  0  0  0  0  0  0  0  0  0  0
    6.3981   -0.8864    0.0000 C   0  0  0  0  0  0  0  0  0  0  0  0
    2.8660   -1.9073    0.0000 C   0  0  0  0  0  0  0  0  0  0  0  0
   11.9621   -2.9346    0.0000 H   0  0  0  0  0  0  0  0  0  0  0  0
   12.7262   -3.0527    0.0000 H   0  0  0  0  0  0  0  0  0  0  0  0
   11.2154   -0.4125    0.0000 H   0  0  0  0  0  0  0  0  0  0  0  0
   10.9302   -1.1311    0.0000 H   0  0  0  0  0  0  0  0  0  0  0  0
   13.4189   -2.8420    0.0000 H   0  0  0  0  0  0  0  0  0  0  0  0
   13.9877   -2.3183    0.0000 H   0  0  0  0  0  0  0  0  0  0  0  0
   12.4877    0.3030    0.0000 H   0  0  0  0  0  0  0  0  0  0  0  0
   11.7481    0.0780    0.0000 H   0  0  0  0  0  0  0  0  0  0  0  0
   14.2548   -1.6453    0.0000 H   0  0  0  0  0  0  0  0  0  0  0  0
   14.2000   -0.8741    0.0000 H   0  0  0  0  0  0  0  0  0  0  0  0
   10.3259   -2.9182    0.0000 H   0  0  0  0  0  0  0  0  0  0  0  0
   11.1229   -2.9212    0.0000 H   0  0  0  0  0  0  0  0  0  0  0  0
   10.2625   -1.4680    0.0000 H   0  0  0  0  0  0  0  0  0  0  0  0
    9.4655   -1.4650    0.0000 H   0  0  0  0  0  0  0  0  0  0  0  0
    8.5939   -2.9115    0.0000 H   0  0  0  0  0  0  0  0  0  0  0  0
    9.3909   -2.9146    0.0000 H   0  0  0  0  0  0  0  0  0  0  0  0
    8.5305   -1.4613    0.0000 H   0  0  0  0  0  0  0  0  0  0  0  0
    7.7334   -1.4583    0.0000 H   0  0  0  0  0  0  0  0  0  0  0  0
   15.0775   -0.2403    0.0000 H   0  0  0  0  0  0  0  0  0  0  0  0
   15.9952    1.0947    0.0000 H   0  0  0  0  0  0  0  0  0  0  0  0
    4.1306    0.0677    0.0000 H   0  0  0  0  0  0  0  0  0  0  0  0
    3.3335    0.0677    0.0000 H   0  0  0  0  0  0  0  0  0  0  0  0
   15.2980    2.5570    0.0000 H   0  0  0  0  0  0  0  0  0  0  0  0
    2.6540   -0.3247    0.0000 H   0  0  0  0  0  0  0  0  0  0  0  0
    2.2554   -1.0149    0.0000 H   0  0  0  0  0  0  0  0  0  0  0  0
    5.4848    0.2474    0.0000 H   0  0  0  0  0  0  0  0  0  0  0  0
    6.9338   -0.5744    0.0000 H   0  0  0  0  0  0  0  0  0  0  0  0
    3.7320   -3.0273    0.0000 H   0  0  0  0  0  0  0  0  0  0  0  0
  1 19  1  0  0  0  0
  2 21  1  0  0  0  0
  3 18  1  0  0  0  0
  3 26  1  0  0  0  0
  4 31  2  0  0  0  0
  5  9  1  0  0  0  0
  5 10  1  0  0  0  0
  5 14  1  0  0  0  0
  6 12  1  0  0  0  0
  6 13  1  0  0  0  0
  6 16  1  0  0  0  0
  7 28  1  0  0  0  0
  7 31  1  0  0  0  0
  7 59  1  0  0  0  0
  8 26  2  0  0  0  0
  8 28  1  0  0  0  0
  9 11  1  0  0  0  0
  9 32  1  0  0  0  0
  9 33  1  0  0  0  0
 10 12  1  0  0  0  0
 10 34  1  0  0  0  0
 10 35  1  0  0  0  0
 11 13  1  0  0  0  0
 11 36  1  0  0  0  0
 11 37  1  0  0  0  0
 12 38  1  0  0  0  0
 12 39  1  0  0  0  0
 13 40  1  0  0  0  0
 13 41  1  0  0  0  0
 14 15  1  0  0  0  0
 14 42  1  0  0  0  0
 14 43  1  0  0  0  0
 15 17  1  0  0  0  0
 15 44  1  0  0  0  0
 15 45  1  0  0  0  0
 16 19  2  0  0  0  0
 16 20  1  0  0  0  0
 17 18  1  0  0  0  0
 17 46  1  0  0  0  0
 17 47  1  0  0  0  0
 18 48  1  0  0  0  0
 18 49  1  0  0  0  0
 19 21  1  0  0  0  0
 20 22  2  0  0  0  0
 20 50  1  0  0  0  0
 21 25  2  0  0  0  0
 22 25  1  0  0  0  0
 22 51  1  0  0  0  0
 23 24  1  0  0  0  0
 23 27  1  0  0  0  0
 23 52  1  0  0  0  0
 23 53  1  0  0  0  0
 24 28  2  0  0  0  0
 24 29  1  0  0  0  0
 25 54  1  0  0  0  0
 26 30  1  0  0  0  0
 27 31  1  0  0  0  0
 27 55  1  0  0  0  0
 27 56  1  0  0  0  0
 29 30  2  0  0  0  0
 29 57  1  0  0  0  0
 30 58  1  0  0  0  0
M  END
> <PUBCHEM_COMPOUND_CID>
56593482

> <PUBCHEM_COMPOUND_CANONICALIZED>
1

> <PUBCHEM_CACTVS_COMPLEXITY>
584

> <PUBCHEM_CACTVS_HBOND_ACCEPTOR>
5

> <PUBCHEM_CACTVS_HBOND_DONOR>
1

> <PUBCHEM_CACTVS_ROTATABLE_BOND>
7

> <PUBCHEM_CACTVS_SUBSKEYS>
AAADceB7sAAGAAAAAAAAAAAAAAAAAAAAAAA8WIAABYAAAACxwAAAHgIQAAAADArhmiYx9JPIFACoAidydACCiCkhJyAJmmE+bpiMZvLF+5veOCjs1RPI6Ce42SKOAAAAAAIAABQAAAAABAAAKAAAAAAAAA==

> <PUBCHEM_IUPAC_OPENEYE_NAME>
7-[4-[4-(2,3-dichlorophenyl)-1,4-diazepan-1-yl]butoxy]-3,4-dihydro-1H-1,8-naphthyridin-2-one

> <PUBCHEM_IUPAC_CAS_NAME>
7-[4-[4-(2,3-dichlorophenyl)-1,4-diazepan-1-yl]butoxy]-3,4-dihydro-1H-1,8-naphthyridin-2-one

> <PUBCHEM_IUPAC_NAME_MARKUP>
7-[4-[4-(2,3-dichlorophenyl)-1,4-diazepan-1-yl]butoxy]-3,4-dihydro-1<I>H</I>-1,8-naphthyridin-2-one

> <PUBCHEM_IUPAC_NAME>
7-[4-[4-(2,3-dichlorophenyl)-1,4-diazepan-1-yl]butoxy]-3,4-dihydro-1H-1,8-naphthyridin-2-one

> <PUBCHEM_IUPAC_SYSTEMATIC_NAME>
7-[4-[4-[2,3-bis(chloranyl)phenyl]-1,4-diazepan-1-yl]butoxy]-3,4-dihydro-1H-1,8-naphthyridin-2-one

> <PUBCHEM_IUPAC_TRADITIONAL_NAME>
7-[4-[4-(2,3-dichlorophenyl)-1,4-diazepan-1-yl]butoxy]-3,4-dihydro-1H-1,8-naphthyridin-2-one

> <PUBCHEM_IUPAC_INCHI>
InChI=1S/C23H28Cl2N4O2/c24-18-5-3-6-19(22(18)25)29-13-4-12-28(14-15-29)11-1-2-16-31-21-10-8-17-7-9-20(30)26-23(17)27-21/h3,5-6,8,10H,1-2,4,7,9,11-16H2,(H,26,27,30)

> <PUBCHEM_IUPAC_INCHIKEY>
JQSRFMXTGAVHIR-UHFFFAOYSA-N

> <PUBCHEM_XLOGP3_AA>
4.6

> <PUBCHEM_EXACT_MASS>
462.1589315

> <PUBCHEM_MOLECULAR_FORMULA>
C23H28Cl2N4O2

> <PUBCHEM_MOLECULAR_WEIGHT>
463.4

> <PUBCHEM_OPENEYE_CAN_SMILES>
C1CN(CCN(C1)C2=C(C(=CC=C2)Cl)Cl)CCCCOC3=NC4=C(CCC(=O)N4)C=C3

> <PUBCHEM_OPENEYE_ISO_SMILES>
C1CN(CCN(C1)C2=C(C(=CC=C2)Cl)Cl)CCCCOC3=NC4=C(CCC(=O)N4)C=C3

> <PUBCHEM_CACTVS_TPSA>
57.7

> <PUBCHEM_MONOISOTOPIC_WEIGHT>
462.1589315

> <PUBCHEM_TOTAL_CHARGE>
0

> <PUBCHEM_HEAVY_ATOM_COUNT>
31

> <PUBCHEM_ATOM_DEF_STEREO_COUNT>
0

> <PUBCHEM_ATOM_UDEF_STEREO_COUNT>
0

> <PUBCHEM_BOND_DEF_STEREO_COUNT>
0

> <PUBCHEM_BOND_UDEF_STEREO_COUNT>
0

> <PUBCHEM_ISOTOPIC_ATOM_COUNT>
0

> <PUBCHEM_COMPONENT_COUNT>
1

> <PUBCHEM_CACTVS_TAUTO_COUNT>
-1

> <PUBCHEM_COORDINATE_TYPE>
1
5
255

> <PUBCHEM_BONDANNOTATIONS>
16  19  8
16  20  8
19  21  8
20  22  8
21  25  8
22  25  8
24  28  8
24  29  8
26  30  8
29  30  8
8  26  8
8  28  8

$$$$
