44347731
  -OEChem-09292322512D

 67 70  0     1  0  0  0  0  0999 V2000
    0.5901    7.1893    0.0000 O   0  0  0  0  0  0  0  0  0  0  0  0
   11.5328    4.5943    0.0000 O   0  0  0  0  0  0  0  0  0  0  0  0
   13.2648    5.5943    0.0000 O   0  0  0  0  0  0  0  0  0  0  0  0
    8.9347    6.0943    0.0000 O   0  0  0  0  0  0  0  0  0  0  0  0
   12.3988    7.0943    0.0000 O   0  0  0  0  0  0  0  0  0  0  0  0
    9.8007    4.5943    0.0000 O   0  0  0  0  0  0  0  0  0  0  0  0
    2.3222    5.1893    0.0000 N   0  0  0  0  0  0  0  0  0  0  0  0
    2.3222    7.1893    0.0000 C   0  0  0  0  0  0  0  0  0  0  0  0
    3.1882    6.6893    0.0000 C   0  0  0  0  0  0  0  0  0  0  0  0
    1.4562    6.6893    0.0000 C   0  0  0  0  0  0  0  0  0  0  0  0
    3.1882    7.6893    0.0000 C   0  0  0  0  0  0  0  0  0  0  0  0
    3.1882    5.6893    0.0000 C   0  0  0  0  0  0  0  0  0  0  0  0
    1.4562    5.6893    0.0000 C   0  0  0  0  0  0  0  0  0  0  0  0
    1.4562    7.6893    0.0000 C   0  0  0  0  0  0  0  0  0  0  0  0
    3.1882    8.6893    0.0000 C   0  0  0  0  0  0  0  0  0  0  0  0
    1.4562    8.6893    0.0000 C   0  0  0  0  0  0  0  0  0  0  0  0
    2.3222    9.1893    0.0000 C   0  0  0  0  0  0  0  0  0  0  0  0
    2.3222    4.1893    0.0000 C   0  0  0  0  0  0  0  0  0  0  0  0
    0.5462    9.1961    0.0000 C   0  0  0  0  0  0  0  0  0  0  0  0
    2.3382   10.2308    0.0000 C   0  0  0  0  0  0  0  0  0  0  0  0
    3.1882    3.6893    0.0000 C   0  0  0  0  0  0  0  0  0  0  0  0
    0.5381   10.2377    0.0000 C   0  0  0  0  0  0  0  0  0  0  0  0
    1.4402   10.7585    0.0000 C   0  0  0  0  0  0  0  0  0  0  0  0
    3.1882    2.6893    0.0000 C   0  0  0  0  0  0  0  0  0  0  0  0
    4.0542    4.1893    0.0000 C   0  0  0  0  0  0  0  0  0  0  0  0
    4.0542    2.1893    0.0000 C   0  0  0  0  0  0  0  0  0  0  0  0
    4.9203    3.6893    0.0000 C   0  0  0  0  0  0  0  0  0  0  0  0
    4.9203    2.6893    0.0000 C   0  0  0  0  0  0  0  0  0  0  0  0
    4.0382    1.1478    0.0000 C   0  0  0  0  0  0  0  0  0  0  0  0
    5.8303    2.1824    0.0000 C   0  0  0  0  0  0  0  0  0  0  0  0
    4.9362    0.6200    0.0000 C   0  0  0  0  0  0  0  0  0  0  0  0
    5.8383    1.1408    0.0000 C   0  0  0  0  0  0  0  0  0  0  0  0
   11.5328    5.5943    0.0000 C   0  0  3  0  0  0  0  0  0  0  0  0
   10.6668    6.0943    0.0000 C   0  0  0  0  0  0  0  0  0  0  0  0
   12.3988    6.0943    0.0000 C   0  0  0  0  0  0  0  0  0  0  0  0
    9.8007    5.5943    0.0000 C   0  0  0  0  0  0  0  0  0  0  0  0
    3.7988    6.5816    0.0000 H   0  0  0  0  0  0  0  0  0  0  0  0
    3.4003    7.2719    0.0000 H   0  0  0  0  0  0  0  0  0  0  0  0
    1.2441    7.2719    0.0000 H   0  0  0  0  0  0  0  0  0  0  0  0
    0.8456    6.5816    0.0000 H   0  0  0  0  0  0  0  0  0  0  0  0
    3.4003    7.1066    0.0000 H   0  0  0  0  0  0  0  0  0  0  0  0
    3.7988    7.7969    0.0000 H   0  0  0  0  0  0  0  0  0  0  0  0
    3.4003    5.1066    0.0000 H   0  0  0  0  0  0  0  0  0  0  0  0
    3.7988    5.7969    0.0000 H   0  0  0  0  0  0  0  0  0  0  0  0
    0.8456    5.7969    0.0000 H   0  0  0  0  0  0  0  0  0  0  0  0
    1.2441    5.1066    0.0000 H   0  0  0  0  0  0  0  0  0  0  0  0
    3.7988    8.5816    0.0000 H   0  0  0  0  0  0  0  0  0  0  0  0
    3.4003    9.2719    0.0000 H   0  0  0  0  0  0  0  0  0  0  0  0
    1.7116    4.2969    0.0000 H   0  0  0  0  0  0  0  0  0  0  0  0
    2.1101    3.6066    0.0000 H   0  0  0  0  0  0  0  0  0  0  0  0
    0.0128    8.8799    0.0000 H   0  0  0  0  0  0  0  0  0  0  0  0
    2.8787   10.5345    0.0000 H   0  0  0  0  0  0  0  0  0  0  0  0
    0.0000   10.5456    0.0000 H   0  0  0  0  0  0  0  0  0  0  0  0
    1.4426   11.3785    0.0000 H   0  0  0  0  0  0  0  0  0  0  0  0
    2.6513    2.3793    0.0000 H   0  0  0  0  0  0  0  0  0  0  0  0
    4.0542    4.8093    0.0000 H   0  0  0  0  0  0  0  0  0  0  0  0
    5.4572    3.9993    0.0000 H   0  0  0  0  0  0  0  0  0  0  0  0
    3.4977    0.8440    0.0000 H   0  0  0  0  0  0  0  0  0  0  0  0
    6.3636    2.4986    0.0000 H   0  0  0  0  0  0  0  0  0  0  0  0
    4.9338    0.0000    0.0000 H   0  0  0  0  0  0  0  0  0  0  0  0
    6.3764    0.8329    0.0000 H   0  0  0  0  0  0  0  0  0  0  0  0
   12.0697    5.2843    0.0000 H   0  0  0  0  0  0  0  0  0  0  0  0
   11.0653    6.5692    0.0000 H   0  0  0  0  0  0  0  0  0  0  0  0
   10.2682    6.5692    0.0000 H   0  0  0  0  0  0  0  0  0  0  0  0
   10.9958    4.2843    0.0000 H   0  0  0  0  0  0  0  0  0  0  0  0
   13.8018    5.9043    0.0000 H   0  0  0  0  0  0  0  0  0  0  0  0
    8.3978    5.7843    0.0000 H   0  0  0  0  0  0  0  0  0  0  0  0
  1 14  2  0  0  0  0
  2 33  1  0  0  0  0
  2 65  1  0  0  0  0
  3 35  1  0  0  0  0
  3 66  1  0  0  0  0
  4 36  1  0  0  0  0
  4 67  1  0  0  0  0
  5 35  2  0  0  0  0
  6 36  2  0  0  0  0
  7 12  1  0  0  0  0
  7 13  1  0  0  0  0
  7 18  1  0  0  0  0
  8  9  1  0  0  0  0
  8 10  1  0  0  0  0
  8 11  1  0  0  0  0
  8 14  1  0  0  0  0
  9 12  1  0  0  0  0
  9 37  1  0  0  0  0
  9 38  1  0  0  0  0
 10 13  1  0  0  0  0
 10 39  1  0  0  0  0
 10 40  1  0  0  0  0
 11 15  1  0  0  0  0
 11 41  1  0  0  0  0
 11 42  1  0  0  0  0
 12 43  1  0  0  0  0
 12 44  1  0  0  0  0
 13 45  1  0  0  0  0
 13 46  1  0  0  0  0
 14 16  1  0  0  0  0
 15 17  1  0  0  0  0
 15 47  1  0  0  0  0
 15 48  1  0  0  0  0
 16 17  1  0  0  0  0
 16 19  2  0  0  0  0
 17 20  2  0  0  0  0
 18 21  1  0  0  0  0
 18 49  1  0  0  0  0
 18 50  1  0  0  0  0
 19 22  1  0  0  0  0
 19 51  1  0  0  0  0
 20 23  1  0  0  0  0
 20 52  1  0  0  0  0
 21 24  2  0  0  0  0
 21 25  1  0  0  0  0
 22 23  2  0  0  0  0
 22 53  1  0  0  0  0
 23 54  1  0  0  0  0
 24 26  1  0  0  0  0
 24 55  1  0  0  0  0
 25 27  2  0  0  0  0
 25 56  1  0  0  0  0
 26 28  1  0  0  0  0
 26 29  2  0  0  0  0
 27 28  1  0  0  0  0
 27 57  1  0  0  0  0
 28 30  2  0  0  0  0
 29 31  1  0  0  0  0
 29 58  1  0  0  0  0
 30 32  1  0  0  0  0
 30 59  1  0  0  0  0
 31 32  2  0  0  0  0
 31 60  1  0  0  0  0
 32 61  1  0  0  0  0
 33 34  1  0  0  0  0
 33 35  1  0  0  0  0
 33 62  1  0  0  0  0
 34 36  1  0  0  0  0
 34 63  1  0  0  0  0
 34 64  1  0  0  0  0
M  END
> <PUBCHEM_COMPOUND_CID>
44347731

> <PUBCHEM_COMPOUND_CANONICALIZED>
1

> <PUBCHEM_CACTVS_COMPLEXITY>
663

> <PUBCHEM_CACTVS_HBOND_ACCEPTOR>
7

> <PUBCHEM_CACTVS_HBOND_DONOR>
3

> <PUBCHEM_CACTVS_ROTATABLE_BOND>
5

> <PUBCHEM_CACTVS_SUBSKEYS>
AAADceB6OAAAAAAAAAAAAAAAAAAAAAAAAAA8YMGCAAAAAADBVAAAHgAACAAADhThmAYwCMMAAgCIAqDSCAKCAAAkAAAIiAFIBMgJMDaAlRGEYQhloACJiYdfiMCPwAACAAAQAACAAAQAACAAAAAAAAAAAA==

> <PUBCHEM_IUPAC_OPENEYE_NAME>
2-hydroxybutanedioic acid;1-(2-naphthylmethyl)spiro[piperidine-4,2'-tetralin]-1'-one

> <PUBCHEM_IUPAC_CAS_NAME>
2-hydroxybutanedioic acid;1'-(2-naphthalenylmethyl)-1-spiro[3,4-dihydronaphthalene-2,4'-piperidine]one

> <PUBCHEM_IUPAC_NAME_MARKUP>
2-hydroxybutanedioic acid;1&apos;-(naphthalen-2-ylmethyl)spiro[3,4-dihydronaphthalene-2,4&apos;-piperidine]-1-one

> <PUBCHEM_IUPAC_NAME>
2-hydroxybutanedioic acid;1'-(naphthalen-2-ylmethyl)spiro[3,4-dihydronaphthalene-2,4'-piperidine]-1-one

> <PUBCHEM_IUPAC_SYSTEMATIC_NAME>
1'-(naphthalen-2-ylmethyl)spiro[3,4-dihydronaphthalene-2,4'-piperidine]-1-one;2-oxidanylbutanedioic acid

> <PUBCHEM_IUPAC_TRADITIONAL_NAME>
malic acid;1-(2-naphthylmethyl)spiro[piperidine-4,2'-tetralin]-1'-one

> <PUBCHEM_IUPAC_INCHI>
InChI=1S/C25H25NO.C4H6O5/c27-24-23-8-4-3-6-21(23)11-12-25(24)13-15-26(16-14-25)18-19-9-10-20-5-1-2-7-22(20)17-19;5-2(4(8)9)1-3(6)7/h1-10,17H,11-16,18H2;2,5H,1H2,(H,6,7)(H,8,9)

> <PUBCHEM_IUPAC_INCHIKEY>
QUQMOHUMJDEGJV-UHFFFAOYSA-N

> <PUBCHEM_EXACT_MASS>
489.21513771

> <PUBCHEM_MOLECULAR_FORMULA>
C29H31NO6

> <PUBCHEM_MOLECULAR_WEIGHT>
489.6

> <PUBCHEM_OPENEYE_CAN_SMILES>
C1CC2(CCN(CC2)CC3=CC4=CC=CC=C4C=C3)C(=O)C5=CC=CC=C51.C(C(C(=O)O)O)C(=O)O

> <PUBCHEM_OPENEYE_ISO_SMILES>
C1CC2(CCN(CC2)CC3=CC4=CC=CC=C4C=C3)C(=O)C5=CC=CC=C51.C(C(C(=O)O)O)C(=O)O

> <PUBCHEM_CACTVS_TPSA>
115

> <PUBCHEM_MONOISOTOPIC_WEIGHT>
489.21513771

> <PUBCHEM_TOTAL_CHARGE>
0

> <PUBCHEM_HEAVY_ATOM_COUNT>
36

> <PUBCHEM_ATOM_DEF_STEREO_COUNT>
0

> <PUBCHEM_ATOM_UDEF_STEREO_COUNT>
1

> <PUBCHEM_BOND_DEF_STEREO_COUNT>
0

> <PUBCHEM_BOND_UDEF_STEREO_COUNT>
0

> <PUBCHEM_ISOTOPIC_ATOM_COUNT>
0

> <PUBCHEM_COMPONENT_COUNT>
2

> <PUBCHEM_CACTVS_TAUTO_COUNT>
-1

> <PUBCHEM_COORDINATE_TYPE>
1
5
255

> <PUBCHEM_BONDANNOTATIONS>
16  17  8
16  19  8
17  20  8
19  22  8
33  2  3
20  23  8
21  24  8
21  25  8
22  23  8
24  26  8
25  27  8
26  28  8
26  29  8
27  28  8
28  30  8
29  31  8
30  32  8
31  32  8

$$$$
