155551113
  -OEChem-09292322412D

 64 67  0     0  0  0  0  0  0999 V2000
    9.7478    6.9132    0.0000 Cl  0  0  0  0  0  0  0  0  0  0  0  0
    6.9749   11.0539    0.0000 F   0  0  0  0  0  0  0  0  0  0  0  0
    1.3053    4.4416    0.0000 O   0  0  0  0  0  0  0  0  0  0  0  0
    3.8408    9.5782    0.0000 N   0  0  0  0  0  0  0  0  0  0  0  0
    4.9818   11.2208    0.0000 N   0  0  0  0  0  0  0  0  0  0  0  0
    2.8367    3.5789    0.0000 N   0  0  0  0  0  0  0  0  0  0  0  0
    4.8373    9.4948    0.0000 C   0  0  0  0  0  0  0  0  0  0  0  0
    3.4148   10.4830    0.0000 C   0  0  0  0  0  0  0  0  0  0  0  0
    3.2703    8.7570    0.0000 C   0  0  0  0  0  0  0  0  0  0  0  0
    5.4078   10.3161    0.0000 C   0  0  0  0  0  0  0  0  0  0  0  0
    3.9853   11.3043    0.0000 C   0  0  0  0  0  0  0  0  0  0  0  0
    3.6963    7.8522    0.0000 C   0  0  0  0  0  0  0  0  0  0  0  0
    3.1257    7.0310    0.0000 C   0  0  0  0  0  0  0  0  0  0  0  0
    3.5517    6.1262    0.0000 C   0  0  0  0  0  0  0  0  0  0  0  0
    2.9812    5.3050    0.0000 C   0  0  0  0  0  0  0  0  0  0  0  0
    3.4072    4.4002    0.0000 C   0  0  0  0  0  0  0  0  0  0  0  0
    5.5524   12.0421    0.0000 C   0  0  0  0  0  0  0  0  0  0  0  0
    3.2018    2.6546    0.0000 C   0  0  0  0  0  0  0  0  0  0  0  0
    2.3358    2.1546    0.0000 C   0  0  0  0  0  0  0  0  0  0  0  0
    1.4418    2.6893    0.0000 C   0  0  0  0  0  0  0  0  0  0  0  0
    1.8430    3.5985    0.0000 C   0  0  0  0  0  0  0  0  0  0  0  0
    2.3358    1.1546    0.0000 C   0  0  0  0  0  0  0  0  0  0  0  0
    6.5489   11.9586    0.0000 C   0  0  0  0  0  0  0  0  0  0  0  0
    5.1264   12.9468    0.0000 C   0  0  0  0  0  0  0  0  0  0  0  0
    4.0678    2.1546    0.0000 C   0  0  0  0  0  0  0  0  0  0  0  0
    0.5357    2.1754    0.0000 C   0  0  0  0  0  0  0  0  0  0  0  0
    3.2018    0.6546    0.0000 C   0  0  0  0  0  0  0  0  0  0  0  0
    1.4418    0.6200    0.0000 C   0  0  0  0  0  0  0  0  0  0  0  0
    4.0678    1.1546    0.0000 C   0  0  0  0  0  0  0  0  0  0  0  0
    0.5357    1.1338    0.0000 C   0  0  0  0  0  0  0  0  0  0  0  0
    7.1194   12.7799    0.0000 C   0  0  0  0  0  0  0  0  0  0  0  0
    5.6969   13.7681    0.0000 C   0  0  0  0  0  0  0  0  0  0  0  0
    6.6934   13.6846    0.0000 C   0  0  0  0  0  0  0  0  0  0  0  0
    4.6791    8.8953    0.0000 H   0  0  0  0  0  0  0  0  0  0  0  0
    5.4002    9.2349    0.0000 H   0  0  0  0  0  0  0  0  0  0  0  0
    2.9748   10.9197    0.0000 H   0  0  0  0  0  0  0  0  0  0  0  0
    2.9083   10.1255    0.0000 H   0  0  0  0  0  0  0  0  0  0  0  0
    2.8302    9.1937    0.0000 H   0  0  0  0  0  0  0  0  0  0  0  0
    2.7637    8.3995    0.0000 H   0  0  0  0  0  0  0  0  0  0  0  0
    5.8479    9.8793    0.0000 H   0  0  0  0  0  0  0  0  0  0  0  0
    5.9144   10.6736    0.0000 H   0  0  0  0  0  0  0  0  0  0  0  0
    4.1436   11.9037    0.0000 H   0  0  0  0  0  0  0  0  0  0  0  0
    3.4224   11.5642    0.0000 H   0  0  0  0  0  0  0  0  0  0  0  0
    4.1363    7.4155    0.0000 H   0  0  0  0  0  0  0  0  0  0  0  0
    4.2028    8.2097    0.0000 H   0  0  0  0  0  0  0  0  0  0  0  0
    2.6857    7.4677    0.0000 H   0  0  0  0  0  0  0  0  0  0  0  0
    2.6192    6.6734    0.0000 H   0  0  0  0  0  0  0  0  0  0  0  0
    3.9918    5.6895    0.0000 H   0  0  0  0  0  0  0  0  0  0  0  0
    4.0583    6.4837    0.0000 H   0  0  0  0  0  0  0  0  0  0  0  0
    2.5412    5.7417    0.0000 H   0  0  0  0  0  0  0  0  0  0  0  0
    2.4746    4.9474    0.0000 H   0  0  0  0  0  0  0  0  0  0  0  0
    3.8472    3.9634    0.0000 H   0  0  0  0  0  0  0  0  0  0  0  0
    3.9137    4.7577    0.0000 H   0  0  0  0  0  0  0  0  0  0  0  0
    4.5085   12.9986    0.0000 H   0  0  0  0  0  0  0  0  0  0  0  0
    4.6047    2.4646    0.0000 H   0  0  0  0  0  0  0  0  0  0  0  0
    0.0000    2.4875    0.0000 H   0  0  0  0  0  0  0  0  0  0  0  0
    3.2018    0.0346    0.0000 H   0  0  0  0  0  0  0  0  0  0  0  0
    1.4490    0.0000    0.0000 H   0  0  0  0  0  0  0  0  0  0  0  0
    4.6047    0.8446    0.0000 H   0  0  0  0  0  0  0  0  0  0  0  0
    0.0000    0.8217    0.0000 H   0  0  0  0  0  0  0  0  0  0  0  0
    7.7372   12.7282    0.0000 H   0  0  0  0  0  0  0  0  0  0  0  0
    5.4328   14.3290    0.0000 H   0  0  0  0  0  0  0  0  0  0  0  0
    7.0471   14.1938    0.0000 H   0  0  0  0  0  0  0  0  0  0  0  0
   10.7478    6.9132    0.0000 H   0  0  0  0  0  0  0  0  0  0  0  0
  1 64  1  0  0  0  0
  2 23  1  0  0  0  0
  3 21  2  0  0  0  0
  4  7  1  0  0  0  0
  4  8  1  0  0  0  0
  4  9  1  0  0  0  0
  5 10  1  0  0  0  0
  5 11  1  0  0  0  0
  5 17  1  0  0  0  0
  6 16  1  0  0  0  0
  6 18  1  0  0  0  0
  6 21  1  0  0  0  0
  7 10  1  0  0  0  0
  7 34  1  0  0  0  0
  7 35  1  0  0  0  0
  8 11  1  0  0  0  0
  8 36  1  0  0  0  0
  8 37  1  0  0  0  0
  9 12  1  0  0  0  0
  9 38  1  0  0  0  0
  9 39  1  0  0  0  0
 10 40  1  0  0  0  0
 10 41  1  0  0  0  0
 11 42  1  0  0  0  0
 11 43  1  0  0  0  0
 12 13  1  0  0  0  0
 12 44  1  0  0  0  0
 12 45  1  0  0  0  0
 13 14  1  0  0  0  0
 13 46  1  0  0  0  0
 13 47  1  0  0  0  0
 14 15  1  0  0  0  0
 14 48  1  0  0  0  0
 14 49  1  0  0  0  0
 15 16  1  0  0  0  0
 15 50  1  0  0  0  0
 15 51  1  0  0  0  0
 16 52  1  0  0  0  0
 16 53  1  0  0  0  0
 17 23  1  0  0  0  0
 17 24  2  0  0  0  0
 18 19  1  0  0  0  0
 18 25  2  0  0  0  0
 19 20  1  0  0  0  0
 19 22  2  0  0  0  0
 20 21  1  0  0  0  0
 20 26  2  0  0  0  0
 22 27  1  0  0  0  0
 22 28  1  0  0  0  0
 23 31  2  0  0  0  0
 24 32  1  0  0  0  0
 24 54  1  0  0  0  0
 25 29  1  0  0  0  0
 25 55  1  0  0  0  0
 26 30  1  0  0  0  0
 26 56  1  0  0  0  0
 27 29  2  0  0  0  0
 27 57  1  0  0  0  0
 28 30  2  0  0  0  0
 28 58  1  0  0  0  0
 29 59  1  0  0  0  0
 30 60  1  0  0  0  0
 31 33  1  0  0  0  0
 31 61  1  0  0  0  0
 32 33  2  0  0  0  0
 32 62  1  0  0  0  0
 33 63  1  0  0  0  0
M  END
> <PUBCHEM_COMPOUND_CID>
155551113

> <PUBCHEM_COMPOUND_CANONICALIZED>
1

> <PUBCHEM_CACTVS_COMPLEXITY>
622

> <PUBCHEM_CACTVS_HBOND_ACCEPTOR>
4

> <PUBCHEM_CACTVS_HBOND_DONOR>
1

> <PUBCHEM_CACTVS_ROTATABLE_BOND>
8

> <PUBCHEM_CACTVS_SUBSKEYS>
AAADceB7IQAEAAAAAAAAAAAAAAAAAWAAAAA8YMEAAAAAAFjBVAAAHwAAAAAADAjBmAwwwMMAAACIAiVSUACCAAAlAgAIiAEIZMgIYDLAlZGUIQhghgDIyYcciMCOgAACQAASAAAAAASAACQAAAAAAAAAAA==

> <PUBCHEM_IUPAC_OPENEYE_NAME>
1-[6-[4-(2-fluorophenyl)piperazin-1-yl]hexyl]benzo[cd]indol-2-one;hydrochloride

> <PUBCHEM_IUPAC_CAS_NAME>
1-[6-[4-(2-fluorophenyl)-1-piperazinyl]hexyl]-2-benzo[cd]indolone;hydrochloride

> <PUBCHEM_IUPAC_NAME_MARKUP>
1-[6-[4-(2-fluorophenyl)piperazin-1-yl]hexyl]benzo[cd]indol-2-one;hydrochloride

> <PUBCHEM_IUPAC_NAME>
1-[6-[4-(2-fluorophenyl)piperazin-1-yl]hexyl]benzo[cd]indol-2-one;hydrochloride

> <PUBCHEM_IUPAC_SYSTEMATIC_NAME>
1-[6-[4-(2-fluorophenyl)piperazin-1-yl]hexyl]benzo[cd]indol-2-one;hydrochloride

> <PUBCHEM_IUPAC_TRADITIONAL_NAME>
1-[6-[4-(2-fluorophenyl)piperazino]hexyl]benzo[cd]indol-2-one;hydrochloride

> <PUBCHEM_IUPAC_INCHI>
InChI=1S/C27H30FN3O.ClH/c28-23-12-3-4-13-24(23)30-19-17-29(18-20-30)15-5-1-2-6-16-31-25-14-8-10-21-9-7-11-22(26(21)25)27(31)32;/h3-4,7-14H,1-2,5-6,15-20H2;1H

> <PUBCHEM_IUPAC_INCHIKEY>
KUWVCFQZKSJXPD-UHFFFAOYSA-N

> <PUBCHEM_EXACT_MASS>
467.2139685

> <PUBCHEM_MOLECULAR_FORMULA>
C27H31ClFN3O

> <PUBCHEM_MOLECULAR_WEIGHT>
468.0

> <PUBCHEM_OPENEYE_CAN_SMILES>
C1CN(CCN1CCCCCCN2C3=CC=CC4=C3C(=CC=C4)C2=O)C5=CC=CC=C5F.Cl

> <PUBCHEM_OPENEYE_ISO_SMILES>
C1CN(CCN1CCCCCCN2C3=CC=CC4=C3C(=CC=C4)C2=O)C5=CC=CC=C5F.Cl

> <PUBCHEM_CACTVS_TPSA>
26.8

> <PUBCHEM_MONOISOTOPIC_WEIGHT>
467.2139685

> <PUBCHEM_TOTAL_CHARGE>
0

> <PUBCHEM_HEAVY_ATOM_COUNT>
33

> <PUBCHEM_ATOM_DEF_STEREO_COUNT>
0

> <PUBCHEM_ATOM_UDEF_STEREO_COUNT>
0

> <PUBCHEM_BOND_DEF_STEREO_COUNT>
0

> <PUBCHEM_BOND_UDEF_STEREO_COUNT>
0

> <PUBCHEM_ISOTOPIC_ATOM_COUNT>
0

> <PUBCHEM_COMPONENT_COUNT>
2

> <PUBCHEM_CACTVS_TAUTO_COUNT>
-1

> <PUBCHEM_COORDINATE_TYPE>
1
5
255

> <PUBCHEM_BONDANNOTATIONS>
17  23  8
17  24  8
18  19  8
18  25  8
19  20  8
19  22  8
20  26  8
22  27  8
22  28  8
23  31  8
24  32  8
25  29  8
26  30  8
27  29  8
28  30  8
31  33  8
32  33  8

$$$$
