117028759
  -OEChem-09292322462D

 43 45  0     0  0  0  0  0  0999 V2000
    2.8660    1.8100    0.0000 O   0  0  0  0  0  0  0  0  0  0  0  0
    4.5981    0.8100    0.0000 N   0  0  0  0  0  0  0  0  0  0  0  0
    4.5981   -3.1900    0.0000 N   0  0  0  0  0  0  0  0  0  0  0  0
    4.5981   -1.1900    0.0000 C   0  0  0  0  0  0  0  0  0  0  0  0
    5.4641   -0.6900    0.0000 C   0  0  0  0  0  0  0  0  0  0  0  0
    3.7320   -0.6900    0.0000 C   0  0  0  0  0  0  0  0  0  0  0  0
    3.7320   -1.6900    0.0000 C   0  0  0  0  0  0  0  0  0  0  0  0
    5.4641   -1.6900    0.0000 C   0  0  0  0  0  0  0  0  0  0  0  0
    5.4641    0.3100    0.0000 C   0  0  0  0  0  0  0  0  0  0  0  0
    3.7320    0.3100    0.0000 C   0  0  0  0  0  0  0  0  0  0  0  0
    3.7320   -2.6900    0.0000 C   0  0  0  0  0  0  0  0  0  0  0  0
    5.4641   -2.6900    0.0000 C   0  0  0  0  0  0  0  0  0  0  0  0
    4.5981    1.8100    0.0000 C   0  0  0  0  0  0  0  0  0  0  0  0
    3.7320    2.3100    0.0000 C   0  0  0  0  0  0  0  0  0  0  0  0
    5.4641    2.3100    0.0000 C   0  0  0  0  0  0  0  0  0  0  0  0
    3.7320    3.3100    0.0000 C   0  0  0  0  0  0  0  0  0  0  0  0
    5.4641    3.3100    0.0000 C   0  0  0  0  0  0  0  0  0  0  0  0
    4.5981    3.8100    0.0000 C   0  0  0  0  0  0  0  0  0  0  0  0
    2.0000    2.3100    0.0000 C   0  0  0  0  0  0  0  0  0  0  0  0
    5.6762   -1.2726    0.0000 H   0  0  0  0  0  0  0  0  0  0  0  0
    6.0747   -0.5823    0.0000 H   0  0  0  0  0  0  0  0  0  0  0  0
    3.1215   -0.5823    0.0000 H   0  0  0  0  0  0  0  0  0  0  0  0
    3.5200   -1.2726    0.0000 H   0  0  0  0  0  0  0  0  0  0  0  0
    3.5200   -1.1074    0.0000 H   0  0  0  0  0  0  0  0  0  0  0  0
    3.1215   -1.7977    0.0000 H   0  0  0  0  0  0  0  0  0  0  0  0
    6.0747   -1.7977    0.0000 H   0  0  0  0  0  0  0  0  0  0  0  0
    5.6762   -1.1074    0.0000 H   0  0  0  0  0  0  0  0  0  0  0  0
    6.0747    0.2023    0.0000 H   0  0  0  0  0  0  0  0  0  0  0  0
    5.6762    0.8926    0.0000 H   0  0  0  0  0  0  0  0  0  0  0  0
    3.5200    0.8926    0.0000 H   0  0  0  0  0  0  0  0  0  0  0  0
    3.1215    0.2023    0.0000 H   0  0  0  0  0  0  0  0  0  0  0  0
    3.1215   -2.5823    0.0000 H   0  0  0  0  0  0  0  0  0  0  0  0
    3.5200   -3.2726    0.0000 H   0  0  0  0  0  0  0  0  0  0  0  0
    5.6762   -3.2726    0.0000 H   0  0  0  0  0  0  0  0  0  0  0  0
    6.0747   -2.5823    0.0000 H   0  0  0  0  0  0  0  0  0  0  0  0
    4.5981   -3.8100    0.0000 H   0  0  0  0  0  0  0  0  0  0  0  0
    6.0010    2.0000    0.0000 H   0  0  0  0  0  0  0  0  0  0  0  0
    3.1951    3.6200    0.0000 H   0  0  0  0  0  0  0  0  0  0  0  0
    6.0010    3.6200    0.0000 H   0  0  0  0  0  0  0  0  0  0  0  0
    4.5981    4.4300    0.0000 H   0  0  0  0  0  0  0  0  0  0  0  0
    2.3100    2.8469    0.0000 H   0  0  0  0  0  0  0  0  0  0  0  0
    1.4631    2.6200    0.0000 H   0  0  0  0  0  0  0  0  0  0  0  0
    1.6900    1.7731    0.0000 H   0  0  0  0  0  0  0  0  0  0  0  0
  1 14  1  0  0  0  0
  1 19  1  0  0  0  0
  2  9  1  0  0  0  0
  2 10  1  0  0  0  0
  2 13  1  0  0  0  0
  3 11  1  0  0  0  0
  3 12  1  0  0  0  0
  3 36  1  0  0  0  0
  4  5  1  0  0  0  0
  4  6  1  0  0  0  0
  4  7  1  0  0  0  0
  4  8  1  0  0  0  0
  5  9  1  0  0  0  0
  5 20  1  0  0  0  0
  5 21  1  0  0  0  0
  6 10  1  0  0  0  0
  6 22  1  0  0  0  0
  6 23  1  0  0  0  0
  7 11  1  0  0  0  0
  7 24  1  0  0  0  0
  7 25  1  0  0  0  0
  8 12  1  0  0  0  0
  8 26  1  0  0  0  0
  8 27  1  0  0  0  0
  9 28  1  0  0  0  0
  9 29  1  0  0  0  0
 10 30  1  0  0  0  0
 10 31  1  0  0  0  0
 11 32  1  0  0  0  0
 11 33  1  0  0  0  0
 12 34  1  0  0  0  0
 12 35  1  0  0  0  0
 13 14  1  0  0  0  0
 13 15  2  0  0  0  0
 14 16  2  0  0  0  0
 15 17  1  0  0  0  0
 15 37  1  0  0  0  0
 16 18  1  0  0  0  0
 16 38  1  0  0  0  0
 17 18  2  0  0  0  0
 17 39  1  0  0  0  0
 18 40  1  0  0  0  0
 19 41  1  0  0  0  0
 19 42  1  0  0  0  0
 19 43  1  0  0  0  0
M  END
> <PUBCHEM_COMPOUND_CID>
117028759

> <PUBCHEM_COMPOUND_CANONICALIZED>
1

> <PUBCHEM_CACTVS_COMPLEXITY>
279

> <PUBCHEM_CACTVS_HBOND_ACCEPTOR>
3

> <PUBCHEM_CACTVS_HBOND_DONOR>
1

> <PUBCHEM_CACTVS_ROTATABLE_BOND>
2

> <PUBCHEM_CACTVS_SUBSKEYS>
AAADceB7IAAAAAAAAAAAAAAAAAAAAAAAAAA8WIAAAAAAAAABAAAAHgAQAAAADgzBkAYyxoPABACAACRCQACCCAAhIgAIiIAPbIgOJiLEsZuFMChk0BHY6AeQQAALAAAAAAAAEAAAAAAAAAAgAAAAAAAAAA==

> <PUBCHEM_IUPAC_OPENEYE_NAME>
3-(2-methoxyphenyl)-3,9-diazaspiro[5.5]undecane

> <PUBCHEM_IUPAC_CAS_NAME>
3-(2-methoxyphenyl)-3,9-diazaspiro[5.5]undecane

> <PUBCHEM_IUPAC_NAME_MARKUP>
3-(2-methoxyphenyl)-3,9-diazaspiro[5.5]undecane

> <PUBCHEM_IUPAC_NAME>
3-(2-methoxyphenyl)-3,9-diazaspiro[5.5]undecane

> <PUBCHEM_IUPAC_SYSTEMATIC_NAME>
3-(2-methoxyphenyl)-3,9-diazaspiro[5.5]undecane

> <PUBCHEM_IUPAC_TRADITIONAL_NAME>
3-(2-methoxyphenyl)-3,9-diazaspiro[5.5]undecane

> <PUBCHEM_IUPAC_INCHI>
InChI=1S/C16H24N2O/c1-19-15-5-3-2-4-14(15)18-12-8-16(9-13-18)6-10-17-11-7-16/h2-5,17H,6-13H2,1H3

> <PUBCHEM_IUPAC_INCHIKEY>
IYTHNIHFDXEHOY-UHFFFAOYSA-N

> <PUBCHEM_XLOGP3_AA>
2.7

> <PUBCHEM_EXACT_MASS>
260.188863393

> <PUBCHEM_MOLECULAR_FORMULA>
C16H24N2O

> <PUBCHEM_MOLECULAR_WEIGHT>
260.37

> <PUBCHEM_OPENEYE_CAN_SMILES>
COC1=CC=CC=C1N2CCC3(CCNCC3)CC2

> <PUBCHEM_OPENEYE_ISO_SMILES>
COC1=CC=CC=C1N2CCC3(CCNCC3)CC2

> <PUBCHEM_CACTVS_TPSA>
24.5

> <PUBCHEM_MONOISOTOPIC_WEIGHT>
260.188863393

> <PUBCHEM_TOTAL_CHARGE>
0

> <PUBCHEM_HEAVY_ATOM_COUNT>
19

> <PUBCHEM_ATOM_DEF_STEREO_COUNT>
0

> <PUBCHEM_ATOM_UDEF_STEREO_COUNT>
0

> <PUBCHEM_BOND_DEF_STEREO_COUNT>
0

> <PUBCHEM_BOND_UDEF_STEREO_COUNT>
0

> <PUBCHEM_ISOTOPIC_ATOM_COUNT>
0

> <PUBCHEM_COMPONENT_COUNT>
1

> <PUBCHEM_CACTVS_TAUTO_COUNT>
-1

> <PUBCHEM_COORDINATE_TYPE>
1
5
255

> <PUBCHEM_BONDANNOTATIONS>
13  14  8
13  15  8
14  16  8
15  17  8
16  18  8
17  18  8

$$$$
