10961112
  -OEChem-09292322122D

 63 66  0     0  0  0  0  0  0999 V2000
    4.5981    2.0000    0.0000 O   0  0  0  0  0  0  0  0  0  0  0  0
   11.5263    0.0000    0.0000 O   0  0  0  0  0  0  0  0  0  0  0  0
   16.8026   -1.1953    0.0000 O   0  0  0  0  0  0  0  0  0  0  0  0
   16.8026   -2.8047    0.0000 O   0  0  0  0  0  0  0  0  0  0  0  0
    6.3301   -1.0000    0.0000 N   0  0  0  0  0  0  0  0  0  0  0  0
    4.5981   -0.0000    0.0000 N   0  0  0  0  0  0  0  0  0  0  0  0
   10.6603   -1.5000    0.0000 N   0  0  0  0  0  0  0  0  0  0  0  0
    6.3301   -0.0000    0.0000 C   0  0  0  0  0  0  0  0  0  0  0  0
    5.4641   -1.5000    0.0000 C   0  0  0  0  0  0  0  0  0  0  0  0
    5.4641    0.5000    0.0000 C   0  0  0  0  0  0  0  0  0  0  0  0
    4.5981   -1.0000    0.0000 C   0  0  0  0  0  0  0  0  0  0  0  0
    7.1962   -1.5000    0.0000 C   0  0  0  0  0  0  0  0  0  0  0  0
    8.0622   -1.0000    0.0000 C   0  0  0  0  0  0  0  0  0  0  0  0
    3.7320    0.5000    0.0000 C   0  0  0  0  0  0  0  0  0  0  0  0
    8.9282   -1.5000    0.0000 C   0  0  0  0  0  0  0  0  0  0  0  0
    9.7942   -1.0000    0.0000 C   0  0  0  0  0  0  0  0  0  0  0  0
    3.7320    1.5000    0.0000 C   0  0  0  0  0  0  0  0  0  0  0  0
    2.8660   -0.0000    0.0000 C   0  0  0  0  0  0  0  0  0  0  0  0
    2.8660    2.0000    0.0000 C   0  0  0  0  0  0  0  0  0  0  0  0
    2.0000    0.5000    0.0000 C   0  0  0  0  0  0  0  0  0  0  0  0
    2.0000    1.5000    0.0000 C   0  0  0  0  0  0  0  0  0  0  0  0
   11.5263   -1.0000    0.0000 C   0  0  0  0  0  0  0  0  0  0  0  0
    4.5981    3.0000    0.0000 C   0  0  0  0  0  0  0  0  0  0  0  0
   12.3923   -1.5000    0.0000 C   0  0  0  0  0  0  0  0  0  0  0  0
   13.2583   -1.0000    0.0000 C   0  0  0  0  0  0  0  0  0  0  0  0
   14.1244   -1.5000    0.0000 C   0  0  0  0  0  0  0  0  0  0  0  0
   15.8564   -1.5000    0.0000 C   0  0  0  0  0  0  0  0  0  0  0  0
   14.9904   -1.0000    0.0000 C   0  0  0  0  0  0  0  0  0  0  0  0
   15.8564   -2.5000    0.0000 C   0  0  0  0  0  0  0  0  0  0  0  0
   14.1244   -2.5000    0.0000 C   0  0  0  0  0  0  0  0  0  0  0  0
   14.9904   -3.0000    0.0000 C   0  0  0  0  0  0  0  0  0  0  0  0
   17.3862   -2.0000    0.0000 C   0  0  0  0  0  0  0  0  0  0  0  0
    6.9407   -0.1077    0.0000 H   0  0  0  0  0  0  0  0  0  0  0  0
    6.5422    0.5826    0.0000 H   0  0  0  0  0  0  0  0  0  0  0  0
    5.0656   -1.9750    0.0000 H   0  0  0  0  0  0  0  0  0  0  0  0
    5.8626   -1.9750    0.0000 H   0  0  0  0  0  0  0  0  0  0  0  0
    5.8626    0.9749    0.0000 H   0  0  0  0  0  0  0  0  0  0  0  0
    5.0656    0.9749    0.0000 H   0  0  0  0  0  0  0  0  0  0  0  0
    3.9875   -0.8923    0.0000 H   0  0  0  0  0  0  0  0  0  0  0  0
    4.3860   -1.5826    0.0000 H   0  0  0  0  0  0  0  0  0  0  0  0
    6.7976   -1.9750    0.0000 H   0  0  0  0  0  0  0  0  0  0  0  0
    7.5947   -1.9750    0.0000 H   0  0  0  0  0  0  0  0  0  0  0  0
    8.4607   -0.5251    0.0000 H   0  0  0  0  0  0  0  0  0  0  0  0
    7.6636   -0.5251    0.0000 H   0  0  0  0  0  0  0  0  0  0  0  0
    8.5297   -1.9750    0.0000 H   0  0  0  0  0  0  0  0  0  0  0  0
    9.3267   -1.9750    0.0000 H   0  0  0  0  0  0  0  0  0  0  0  0
   10.1928   -0.5251    0.0000 H   0  0  0  0  0  0  0  0  0  0  0  0
    9.3957   -0.5251    0.0000 H   0  0  0  0  0  0  0  0  0  0  0  0
    2.8660   -0.6200    0.0000 H   0  0  0  0  0  0  0  0  0  0  0  0
    2.8660    2.6200    0.0000 H   0  0  0  0  0  0  0  0  0  0  0  0
    1.4631    0.1900    0.0000 H   0  0  0  0  0  0  0  0  0  0  0  0
   10.6603   -2.1200    0.0000 H   0  0  0  0  0  0  0  0  0  0  0  0
    1.4631    1.8100    0.0000 H   0  0  0  0  0  0  0  0  0  0  0  0
    5.2181    3.0000    0.0000 H   0  0  0  0  0  0  0  0  0  0  0  0
    4.5981    3.6200    0.0000 H   0  0  0  0  0  0  0  0  0  0  0  0
    3.9781    3.0000    0.0000 H   0  0  0  0  0  0  0  0  0  0  0  0
   12.3923   -2.1200    0.0000 H   0  0  0  0  0  0  0  0  0  0  0  0
   13.2583   -0.3800    0.0000 H   0  0  0  0  0  0  0  0  0  0  0  0
   14.9904   -0.3800    0.0000 H   0  0  0  0  0  0  0  0  0  0  0  0
   13.5874   -2.8100    0.0000 H   0  0  0  0  0  0  0  0  0  0  0  0
   14.9904   -3.6200    0.0000 H   0  0  0  0  0  0  0  0  0  0  0  0
   17.8471   -2.4147    0.0000 H   0  0  0  0  0  0  0  0  0  0  0  0
   17.8471   -1.5853    0.0000 H   0  0  0  0  0  0  0  0  0  0  0  0
  1 17  1  0  0  0  0
  1 23  1  0  0  0  0
  2 22  2  0  0  0  0
  3 27  1  0  0  0  0
  3 32  1  0  0  0  0
  4 29  1  0  0  0  0
  4 32  1  0  0  0  0
  5  8  1  0  0  0  0
  5  9  1  0  0  0  0
  5 12  1  0  0  0  0
  6 10  1  0  0  0  0
  6 11  1  0  0  0  0
  6 14  1  0  0  0  0
  7 16  1  0  0  0  0
  7 22  1  0  0  0  0
  7 52  1  0  0  0  0
  8 10  1  0  0  0  0
  8 33  1  0  0  0  0
  8 34  1  0  0  0  0
  9 11  1  0  0  0  0
  9 35  1  0  0  0  0
  9 36  1  0  0  0  0
 10 37  1  0  0  0  0
 10 38  1  0  0  0  0
 11 39  1  0  0  0  0
 11 40  1  0  0  0  0
 12 13  1  0  0  0  0
 12 41  1  0  0  0  0
 12 42  1  0  0  0  0
 13 15  1  0  0  0  0
 13 43  1  0  0  0  0
 13 44  1  0  0  0  0
 14 17  1  0  0  0  0
 14 18  2  0  0  0  0
 15 16  1  0  0  0  0
 15 45  1  0  0  0  0
 15 46  1  0  0  0  0
 16 47  1  0  0  0  0
 16 48  1  0  0  0  0
 17 19  2  0  0  0  0
 18 20  1  0  0  0  0
 18 49  1  0  0  0  0
 19 21  1  0  0  0  0
 19 50  1  0  0  0  0
 20 21  2  0  0  0  0
 20 51  1  0  0  0  0
 21 53  1  0  0  0  0
 22 24  1  0  0  0  0
 23 54  1  0  0  0  0
 23 55  1  0  0  0  0
 23 56  1  0  0  0  0
 24 25  2  0  0  0  0
 24 57  1  0  0  0  0
 25 26  1  0  0  0  0
 25 58  1  0  0  0  0
 26 28  2  0  0  0  0
 26 30  1  0  0  0  0
 27 28  1  0  0  0  0
 27 29  2  0  0  0  0
 28 59  1  0  0  0  0
 29 31  1  0  0  0  0
 30 31  2  0  0  0  0
 30 60  1  0  0  0  0
 31 61  1  0  0  0  0
 32 62  1  0  0  0  0
 32 63  1  0  0  0  0
M  END
> <PUBCHEM_COMPOUND_CID>
10961112

> <PUBCHEM_COMPOUND_CANONICALIZED>
1

> <PUBCHEM_CACTVS_COMPLEXITY>
608

> <PUBCHEM_CACTVS_HBOND_ACCEPTOR>
6

> <PUBCHEM_CACTVS_HBOND_DONOR>
1

> <PUBCHEM_CACTVS_ROTATABLE_BOND>
9

> <PUBCHEM_CACTVS_SUBSKEYS>
AAADceB7OAAAAAAAAAAAAAAAAAAAASAAAAA8YIAAAAAAAEgBQAAAHgAQAAAADAzBmAcyzoPABACIAiVSUACCCAAhIgAIiIAP7MgfZiLEsZu1MCpk1hHe6YeQwBAOIAABAAAAUABAAAIAAACgAAAAAAAAAA==

> <PUBCHEM_IUPAC_OPENEYE_NAME>
(E)-3-(1,3-benzodioxol-5-yl)-N-[4-[4-(2-methoxyphenyl)piperazin-1-yl]butyl]prop-2-enamide

> <PUBCHEM_IUPAC_CAS_NAME>
(E)-3-(1,3-benzodioxol-5-yl)-N-[4-[4-(2-methoxyphenyl)-1-piperazinyl]butyl]-2-propenamide

> <PUBCHEM_IUPAC_NAME_MARKUP>
(<I>E</I>)-3-(1,3-benzodioxol-5-yl)-<I>N</I>-[4-[4-(2-methoxyphenyl)piperazin-1-yl]butyl]prop-2-enamide

> <PUBCHEM_IUPAC_NAME>
(E)-3-(1,3-benzodioxol-5-yl)-N-[4-[4-(2-methoxyphenyl)piperazin-1-yl]butyl]prop-2-enamide

> <PUBCHEM_IUPAC_SYSTEMATIC_NAME>
(E)-3-(1,3-benzodioxol-5-yl)-N-[4-[4-(2-methoxyphenyl)piperazin-1-yl]butyl]prop-2-enamide

> <PUBCHEM_IUPAC_TRADITIONAL_NAME>
(E)-3-(1,3-benzodioxol-5-yl)-N-[4-[4-(2-methoxyphenyl)piperazino]butyl]acrylamide

> <PUBCHEM_IUPAC_INCHI>
InChI=1S/C25H31N3O4/c1-30-22-7-3-2-6-21(22)28-16-14-27(15-17-28)13-5-4-12-26-25(29)11-9-20-8-10-23-24(18-20)32-19-31-23/h2-3,6-11,18H,4-5,12-17,19H2,1H3,(H,26,29)/b11-9+

> <PUBCHEM_IUPAC_INCHIKEY>
YVJKQMXANLEZJO-PKNBQFBNSA-N

> <PUBCHEM_XLOGP3_AA>
3.8

> <PUBCHEM_EXACT_MASS>
437.23145648

> <PUBCHEM_MOLECULAR_FORMULA>
C25H31N3O4

> <PUBCHEM_MOLECULAR_WEIGHT>
437.5

> <PUBCHEM_OPENEYE_CAN_SMILES>
COC1=CC=CC=C1N2CCN(CC2)CCCCNC(=O)C=CC3=CC4=C(C=C3)OCO4

> <PUBCHEM_OPENEYE_ISO_SMILES>
COC1=CC=CC=C1N2CCN(CC2)CCCCNC(=O)/C=C/C3=CC4=C(C=C3)OCO4

> <PUBCHEM_CACTVS_TPSA>
63.3

> <PUBCHEM_MONOISOTOPIC_WEIGHT>
437.23145648

> <PUBCHEM_TOTAL_CHARGE>
0

> <PUBCHEM_HEAVY_ATOM_COUNT>
32

> <PUBCHEM_ATOM_DEF_STEREO_COUNT>
0

> <PUBCHEM_ATOM_UDEF_STEREO_COUNT>
0

> <PUBCHEM_BOND_DEF_STEREO_COUNT>
1

> <PUBCHEM_BOND_UDEF_STEREO_COUNT>
0

> <PUBCHEM_ISOTOPIC_ATOM_COUNT>
0

> <PUBCHEM_COMPONENT_COUNT>
1

> <PUBCHEM_CACTVS_TAUTO_COUNT>
-1

> <PUBCHEM_COORDINATE_TYPE>
1
5
255

> <PUBCHEM_BONDANNOTATIONS>
14  17  8
14  18  8
17  19  8
18  20  8
19  21  8
20  21  8
26  28  8
26  30  8
27  28  8
27  29  8
29  31  8
30  31  8

$$$$
