164613304
  -OEChem-09292322442D

 54 57  0     1  0  0  0  0  0999 V2000
    2.0000    1.9604    0.0000 O   0  0  0  0  0  0  0  0  0  0  0  0
    2.0000    3.9604    0.0000 O   0  0  0  0  0  0  0  0  0  0  0  0
    8.9826   -1.0704    0.0000 O   0  0  0  0  0  0  0  0  0  0  0  0
    6.3981    2.4396    0.0000 N   0  0  3  0  0  0  0  0  0  0  0  0
    9.8544    0.4262    0.0000 N   0  0  0  0  0  0  0  0  0  0  0  0
   11.5672   -4.5804    0.0000 N   0  0  0  0  0  0  0  0  0  0  0  0
    6.3981    3.4812    0.0000 C   0  0  0  0  0  0  0  0  0  0  0  0
    5.4920    1.9257    0.0000 C   0  0  0  0  0  0  0  0  0  0  0  0
    5.4920    3.9951    0.0000 C   0  0  0  0  0  0  0  0  0  0  0  0
    4.5981    2.4604    0.0000 C   0  0  0  0  0  0  0  0  0  0  0  0
    4.5981    3.4604    0.0000 C   0  0  0  0  0  0  0  0  0  0  0  0
    7.2622    1.9362    0.0000 C   0  0  0  0  0  0  0  0  0  0  0  0
    8.1301    2.4329    0.0000 C   0  0  0  0  0  0  0  0  0  0  0  0
    3.7320    1.9604    0.0000 C   0  0  0  0  0  0  0  0  0  0  0  0
    3.7320    3.9604    0.0000 C   0  0  0  0  0  0  0  0  0  0  0  0
    8.9942    1.9296    0.0000 C   0  0  0  0  0  0  0  0  0  0  0  0
    2.8660    2.4604    0.0000 C   0  0  0  0  0  0  0  0  0  0  0  0
    2.8660    3.4604    0.0000 C   0  0  0  0  0  0  0  0  0  0  0  0
    8.1340    3.4329    0.0000 C   0  0  0  0  0  0  0  0  0  0  0  0
    8.9904    0.9296    0.0000 C   0  0  0  0  0  0  0  0  0  0  0  0
    9.8622    2.4262    0.0000 C   0  0  0  0  0  0  0  0  0  0  0  0
    9.0019    3.9296    0.0000 C   0  0  0  0  0  0  0  0  0  0  0  0
    9.8660    3.4262    0.0000 C   0  0  0  0  0  0  0  0  0  0  0  0
    9.8506   -0.5738    0.0000 C   0  0  0  0  0  0  0  0  0  0  0  0
   10.7147   -1.0771    0.0000 C   0  0  0  0  0  0  0  0  0  0  0  0
   10.7108   -2.0771    0.0000 C   0  0  0  0  0  0  0  0  0  0  0  0
   11.5826   -0.5804    0.0000 C   0  0  0  0  0  0  0  0  0  0  0  0
   11.5749   -2.5804    0.0000 C   0  0  0  0  0  0  0  0  0  0  0  0
   12.4467   -1.0838    0.0000 C   0  0  0  0  0  0  0  0  0  0  0  0
   12.4429   -2.0838    0.0000 C   0  0  0  0  0  0  0  0  0  0  0  0
   11.5711   -3.5804    0.0000 C   0  0  0  0  0  0  0  0  0  0  0  0
    7.0089    3.3751    0.0000 H   0  0  0  0  0  0  0  0  0  0  0  0
    6.6071    4.0649    0.0000 H   0  0  0  0  0  0  0  0  0  0  0  0
    5.0874    1.4560    0.0000 H   0  0  0  0  0  0  0  0  0  0  0  0
    5.8856    1.4467    0.0000 H   0  0  0  0  0  0  0  0  0  0  0  0
    5.8856    4.4741    0.0000 H   0  0  0  0  0  0  0  0  0  0  0  0
    5.0874    4.4648    0.0000 H   0  0  0  0  0  0  0  0  0  0  0  0
    6.8618    1.4628    0.0000 H   0  0  0  0  0  0  0  0  0  0  0  0
    7.6589    1.4598    0.0000 H   0  0  0  0  0  0  0  0  0  0  0  0
    3.7320    1.3404    0.0000 H   0  0  0  0  0  0  0  0  0  0  0  0
    3.7320    4.5804    0.0000 H   0  0  0  0  0  0  0  0  0  0  0  0
    7.5982    3.7450    0.0000 H   0  0  0  0  0  0  0  0  0  0  0  0
    8.3802    1.0396    0.0000 H   0  0  0  0  0  0  0  0  0  0  0  0
    8.7761    0.3478    0.0000 H   0  0  0  0  0  0  0  0  0  0  0  0
   10.3979    2.1142    0.0000 H   0  0  0  0  0  0  0  0  0  0  0  0
    9.0043    4.5496    0.0000 H   0  0  0  0  0  0  0  0  0  0  0  0
   10.4041    3.7342    0.0000 H   0  0  0  0  0  0  0  0  0  0  0  0
   10.3926    0.7342    0.0000 H   0  0  0  0  0  0  0  0  0  0  0  0
    2.0000    1.3404    0.0000 H   0  0  0  0  0  0  0  0  0  0  0  0
    2.0000    4.5804    0.0000 H   0  0  0  0  0  0  0  0  0  0  0  0
   10.1727   -2.3850    0.0000 H   0  0  0  0  0  0  0  0  0  0  0  0
   11.5850    0.0396    0.0000 H   0  0  0  0  0  0  0  0  0  0  0  0
   12.9849   -0.7758    0.0000 H   0  0  0  0  0  0  0  0  0  0  0  0
   12.9786   -2.3958    0.0000 H   0  0  0  0  0  0  0  0  0  0  0  0
  1 17  1  0  0  0  0
  1 49  1  0  0  0  0
  2 18  1  0  0  0  0
  2 50  1  0  0  0  0
  3 24  2  0  0  0  0
  4  7  1  0  0  0  0
  4  8  1  0  0  0  0
  4 12  1  0  0  0  0
  5 20  1  0  0  0  0
  5 24  1  0  0  0  0
  5 48  1  0  0  0  0
  6 31  3  0  0  0  0
  7  9  1  0  0  0  0
  7 32  1  0  0  0  0
  7 33  1  0  0  0  0
  8 10  1  0  0  0  0
  8 34  1  0  0  0  0
  8 35  1  0  0  0  0
  9 11  1  0  0  0  0
  9 36  1  0  0  0  0
  9 37  1  0  0  0  0
 10 11  1  0  0  0  0
 10 14  2  0  0  0  0
 11 15  2  0  0  0  0
 12 13  1  0  0  0  0
 12 38  1  0  0  0  0
 12 39  1  0  0  0  0
 13 16  1  0  0  0  0
 13 19  2  0  0  0  0
 14 17  1  0  0  0  0
 14 40  1  0  0  0  0
 15 18  1  0  0  0  0
 15 41  1  0  0  0  0
 16 20  1  0  0  0  0
 16 21  2  0  0  0  0
 17 18  2  0  0  0  0
 19 22  1  0  0  0  0
 19 42  1  0  0  0  0
 20 43  1  0  0  0  0
 20 44  1  0  0  0  0
 21 23  1  0  0  0  0
 21 45  1  0  0  0  0
 22 23  2  0  0  0  0
 22 46  1  0  0  0  0
 23 47  1  0  0  0  0
 24 25  1  0  0  0  0
 25 26  1  0  0  0  0
 25 27  2  0  0  0  0
 26 28  2  0  0  0  0
 26 51  1  0  0  0  0
 27 29  1  0  0  0  0
 27 52  1  0  0  0  0
 28 30  1  0  0  0  0
 28 31  1  0  0  0  0
 29 30  2  0  0  0  0
 29 53  1  0  0  0  0
 30 54  1  0  0  0  0
M  END
> <PUBCHEM_COMPOUND_CID>
164613304

> <PUBCHEM_COMPOUND_CANONICALIZED>
1

> <PUBCHEM_CACTVS_COMPLEXITY>
662

> <PUBCHEM_CACTVS_HBOND_ACCEPTOR>
5

> <PUBCHEM_CACTVS_HBOND_DONOR>
3

> <PUBCHEM_CACTVS_ROTATABLE_BOND>
5

> <PUBCHEM_CACTVS_SUBSKEYS>
AAADceB7MAAAAAAAAAAAAAAAAAAAAAAAAAA8YMEAAAAAAACxUAAAHgAQCAAADATBmAQwBoPAAgCYBiFSEACiAAAkIAAIiIEOjMgJpjKClROEcQlkxhGJmY+42PKOoAADAAAQQABAAAYAACCAAAAAAAAAAA==

> <PUBCHEM_IUPAC_OPENEYE_NAME>
3-cyano-N-[[2-[(6,7-dihydroxy-3,4-dihydro-1H-isoquinolin-2-yl)methyl]phenyl]methyl]benzamide

> <PUBCHEM_IUPAC_CAS_NAME>
3-cyano-N-[[2-[(6,7-dihydroxy-3,4-dihydro-1H-isoquinolin-2-yl)methyl]phenyl]methyl]benzamide

> <PUBCHEM_IUPAC_NAME_MARKUP>
3-cyano-<I>N</I>-[[2-[(6,7-dihydroxy-3,4-dihydro-1<I>H</I>-isoquinolin-2-yl)methyl]phenyl]methyl]benzamide

> <PUBCHEM_IUPAC_NAME>
3-cyano-N-[[2-[(6,7-dihydroxy-3,4-dihydro-1H-isoquinolin-2-yl)methyl]phenyl]methyl]benzamide

> <PUBCHEM_IUPAC_SYSTEMATIC_NAME>
N-[[2-[[6,7-bis(oxidanyl)-3,4-dihydro-1H-isoquinolin-2-yl]methyl]phenyl]methyl]-3-cyano-benzamide

> <PUBCHEM_IUPAC_TRADITIONAL_NAME>
3-cyano-N-[2-[(6,7-dihydroxy-3,4-dihydro-1H-isoquinolin-2-yl)methyl]benzyl]benzamide

> <PUBCHEM_IUPAC_INCHI>
InChI=1S/C25H23N3O3/c26-13-17-4-3-7-19(10-17)25(31)27-14-20-5-1-2-6-21(20)15-28-9-8-18-11-23(29)24(30)12-22(18)16-28/h1-7,10-12,29-30H,8-9,14-16H2,(H,27,31)

> <PUBCHEM_IUPAC_INCHIKEY>
WRUNDYWPHKJEIH-UHFFFAOYSA-N

> <PUBCHEM_XLOGP3_AA>
3.1

> <PUBCHEM_EXACT_MASS>
413.17394160

> <PUBCHEM_MOLECULAR_FORMULA>
C25H23N3O3

> <PUBCHEM_MOLECULAR_WEIGHT>
413.5

> <PUBCHEM_OPENEYE_CAN_SMILES>
C1CN(CC2=CC(=C(C=C21)O)O)CC3=CC=CC=C3CNC(=O)C4=CC=CC(=C4)C#N

> <PUBCHEM_OPENEYE_ISO_SMILES>
C1CN(CC2=CC(=C(C=C21)O)O)CC3=CC=CC=C3CNC(=O)C4=CC=CC(=C4)C#N

> <PUBCHEM_CACTVS_TPSA>
96.6

> <PUBCHEM_MONOISOTOPIC_WEIGHT>
413.17394160

> <PUBCHEM_TOTAL_CHARGE>
0

> <PUBCHEM_HEAVY_ATOM_COUNT>
31

> <PUBCHEM_ATOM_DEF_STEREO_COUNT>
0

> <PUBCHEM_ATOM_UDEF_STEREO_COUNT>
0

> <PUBCHEM_BOND_DEF_STEREO_COUNT>
0

> <PUBCHEM_BOND_UDEF_STEREO_COUNT>
0

> <PUBCHEM_ISOTOPIC_ATOM_COUNT>
0

> <PUBCHEM_COMPONENT_COUNT>
1

> <PUBCHEM_CACTVS_TAUTO_COUNT>
-1

> <PUBCHEM_COORDINATE_TYPE>
1
5
255

> <PUBCHEM_BONDANNOTATIONS>
10  11  8
10  14  8
11  15  8
13  16  8
13  19  8
14  17  8
15  18  8
16  21  8
17  18  8
19  22  8
21  23  8
22  23  8
25  26  8
25  27  8
26  28  8
27  29  8
28  30  8
29  30  8

$$$$
