11315462
  -OEChem-09292322482D

 53 57  0     1  0  0  0  0  0999 V2000
    2.1374    3.5552    0.0000 Cl  0  0  0  0  0  0  0  0  0  0  0  0
    7.3349   -2.0889    0.0000 O   0  0  0  0  0  0  0  0  0  0  0  0
    2.5932    1.5583    0.0000 O   0  0  0  0  0  0  0  0  0  0  0  0
    7.0983    3.6370    0.0000 N   0  0  3  0  0  0  0  0  0  0  0  0
    5.6082   -1.9528    0.0000 N   0  0  0  0  0  0  0  0  0  0  0  0
    6.8758    2.6621    0.0000 C   0  0  2  0  0  0  0  0  0  0  0  0
    5.9748    2.2282    0.0000 C   0  0  2  0  0  0  0  0  0  0  0  0
    7.7453    2.0886    0.0000 C   0  0  0  0  0  0  0  0  0  0  0  0
    5.8810    1.1908    0.0000 C   0  0  0  0  0  0  0  0  0  0  0  0
    7.6755    1.0494    0.0000 C   0  0  0  0  0  0  0  0  0  0  0  0
    5.0738    2.6621    0.0000 C   0  0  0  0  0  0  0  0  0  0  0  0
    6.7370    0.5974    0.0000 C   0  0  0  0  0  0  0  0  0  0  0  0
    6.3537   -3.5162    0.0000 C   0  0  0  0  0  0  0  0  0  0  0  0
    6.4748    4.4188    0.0000 C   0  0  0  0  0  0  0  0  0  0  0  0
    5.7872   -4.3403    0.0000 C   0  0  0  0  0  0  0  0  0  0  0  0
    6.7841   -4.4188    0.0000 C   0  0  0  0  0  0  0  0  0  0  0  0
    4.8513    3.6370    0.0000 C   0  0  0  0  0  0  0  0  0  0  0  0
    5.4748    4.4188    0.0000 C   0  0  0  0  0  0  0  0  0  0  0  0
    4.8928    0.7428    0.0000 C   0  0  0  0  0  0  0  0  0  0  0  0
    6.6643   -0.4851    0.0000 C   0  0  0  0  0  0  0  0  0  0  0  0
    8.0732    3.8595    0.0000 C   0  0  0  0  0  0  0  0  0  0  0  0
    6.4322   -2.5193    0.0000 C   0  0  0  0  0  0  0  0  0  0  0  0
    4.3213    1.9419    0.0000 C   0  0  0  0  0  0  0  0  0  0  0  0
    5.6868   -0.9559    0.0000 C   0  0  0  0  0  0  0  0  0  0  0  0
    4.7950   -0.3378    0.0000 C   0  0  0  0  0  0  0  0  0  0  0  0
    3.8608    3.9594    0.0000 C   0  0  0  0  0  0  0  0  0  0  0  0
    3.3236    2.2412    0.0000 C   0  0  0  0  0  0  0  0  0  0  0  0
    3.0918    3.2568    0.0000 C   0  0  0  0  0  0  0  0  0  0  0  0
    7.6646    2.9787    0.0000 H   0  0  0  0  0  0  0  0  0  0  0  0
    5.2354    1.8089    0.0000 H   0  0  0  0  0  0  0  0  0  0  0  0
    8.3477    1.9418    0.0000 H   0  0  0  0  0  0  0  0  0  0  0  0
    7.9931    2.6570    0.0000 H   0  0  0  0  0  0  0  0  0  0  0  0
    7.8450    0.4530    0.0000 H   0  0  0  0  0  0  0  0  0  0  0  0
    8.2921    1.1143    0.0000 H   0  0  0  0  0  0  0  0  0  0  0  0
    6.9633   -3.4033    0.0000 H   0  0  0  0  0  0  0  0  0  0  0  0
    7.0334    4.6878    0.0000 H   0  0  0  0  0  0  0  0  0  0  0  0
    6.3368    5.0233    0.0000 H   0  0  0  0  0  0  0  0  0  0  0  0
    5.2230   -4.0831    0.0000 H   0  0  0  0  0  0  0  0  0  0  0  0
    5.6319   -4.9405    0.0000 H   0  0  0  0  0  0  0  0  0  0  0  0
    6.8434   -5.0360    0.0000 H   0  0  0  0  0  0  0  0  0  0  0  0
    7.3815   -4.2532    0.0000 H   0  0  0  0  0  0  0  0  0  0  0  0
    5.6128    5.0233    0.0000 H   0  0  0  0  0  0  0  0  0  0  0  0
    4.9162    4.6878    0.0000 H   0  0  0  0  0  0  0  0  0  0  0  0
    4.3873    1.1018    0.0000 H   0  0  0  0  0  0  0  0  0  0  0  0
    7.1779   -0.8324    0.0000 H   0  0  0  0  0  0  0  0  0  0  0  0
    8.2112    3.2551    0.0000 H   0  0  0  0  0  0  0  0  0  0  0  0
    8.6777    3.9975    0.0000 H   0  0  0  0  0  0  0  0  0  0  0  0
    7.9352    4.4640    0.0000 H   0  0  0  0  0  0  0  0  0  0  0  0
    4.4662    1.3391    0.0000 H   0  0  0  0  0  0  0  0  0  0  0  0
    4.2334   -0.6003    0.0000 H   0  0  0  0  0  0  0  0  0  0  0  0
    3.7298    4.5654    0.0000 H   0  0  0  0  0  0  0  0  0  0  0  0
    5.0485   -2.2197    0.0000 H   0  0  0  0  0  0  0  0  0  0  0  0
    2.0000    1.7387    0.0000 H   0  0  0  0  0  0  0  0  0  0  0  0
  1 28  1  0  0  0  0
  2 22  2  0  0  0  0
  3 27  1  0  0  0  0
  3 53  1  0  0  0  0
  4  6  1  0  0  0  0
  4 14  1  0  0  0  0
  4 21  1  0  0  0  0
  5 22  1  0  0  0  0
  5 24  1  0  0  0  0
  5 52  1  0  0  0  0
  6  7  1  0  0  0  0
  6  8  1  0  0  0  0
  6 29  1  6  0  0  0
  7  9  1  0  0  0  0
  7 11  1  0  0  0  0
  7 30  1  1  0  0  0
  8 10  1  0  0  0  0
  8 31  1  0  0  0  0
  8 32  1  0  0  0  0
  9 12  2  0  0  0  0
  9 19  1  0  0  0  0
 10 12  1  0  0  0  0
 10 33  1  0  0  0  0
 10 34  1  0  0  0  0
 11 17  1  0  0  0  0
 11 23  2  0  0  0  0
 12 20  1  0  0  0  0
 13 15  1  0  0  0  0
 13 16  1  0  0  0  0
 13 22  1  0  0  0  0
 13 35  1  0  0  0  0
 14 18  1  0  0  0  0
 14 36  1  0  0  0  0
 14 37  1  0  0  0  0
 15 16  1  0  0  0  0
 15 38  1  0  0  0  0
 15 39  1  0  0  0  0
 16 40  1  0  0  0  0
 16 41  1  0  0  0  0
 17 18  1  0  0  0  0
 17 26  2  0  0  0  0
 18 42  1  0  0  0  0
 18 43  1  0  0  0  0
 19 25  2  0  0  0  0
 19 44  1  0  0  0  0
 20 24  2  0  0  0  0
 20 45  1  0  0  0  0
 21 46  1  0  0  0  0
 21 47  1  0  0  0  0
 21 48  1  0  0  0  0
 23 27  1  0  0  0  0
 23 49  1  0  0  0  0
 24 25  1  0  0  0  0
 25 50  1  0  0  0  0
 26 28  1  0  0  0  0
 26 51  1  0  0  0  0
 27 28  2  0  0  0  0
M  END
> <PUBCHEM_COMPOUND_CID>
11315462

> <PUBCHEM_COMPOUND_CANONICALIZED>
1

> <PUBCHEM_CACTVS_COMPLEXITY>
597

> <PUBCHEM_CACTVS_HBOND_ACCEPTOR>
3

> <PUBCHEM_CACTVS_HBOND_DONOR>
2

> <PUBCHEM_CACTVS_ROTATABLE_BOND>
2

> <PUBCHEM_CACTVS_SUBSKEYS>
AAADceB7MAAEAAAAAAAAAAAAGAAAAAAAAAAwYMAABYAAAADBQAAAHgIQCAAADS7BmCQyxoPAAgCIAiVSUACCAAAhJ0AIiAEOb4gIJjLDk5OEcAhk1BHI2AeQ0PMOrAABYAAQCABYAAbAACQQAAAAAAAAAA==

> <PUBCHEM_IUPAC_OPENEYE_NAME>
N-[(6aS,13bR)-11-chloro-12-hydroxy-7-methyl-5,6,6a,8,9,13b-hexahydronaphtho[1,2-a][3]benzazepin-3-yl]cyclopropanecarboxamide

> <PUBCHEM_IUPAC_CAS_NAME>
N-[(6aS,13bR)-11-chloro-12-hydroxy-7-methyl-5,6,6a,8,9,13b-hexahydronaphtho[1,2-a][3]benzazepin-3-yl]cyclopropanecarboxamide

> <PUBCHEM_IUPAC_NAME_MARKUP>
<I>N</I>-[(6<I>a</I><I>S</I>,13<I>b</I><I>R</I>)-11-chloro-12-hydroxy-7-methyl-5,6,6<I>a</I>,8,9,13<I>b</I>-hexahydronaphtho[1,2-a][3]benzazepin-3-yl]cyclopropanecarboxamide

> <PUBCHEM_IUPAC_NAME>
N-[(6aS,13bR)-11-chloro-12-hydroxy-7-methyl-5,6,6a,8,9,13b-hexahydronaphtho[1,2-a][3]benzazepin-3-yl]cyclopropanecarboxamide

> <PUBCHEM_IUPAC_SYSTEMATIC_NAME>
N-[(6aS,13bR)-11-chloranyl-7-methyl-12-oxidanyl-5,6,6a,8,9,13b-hexahydronaphtho[1,2-a][3]benzazepin-3-yl]cyclopropanecarboxamide

> <PUBCHEM_IUPAC_TRADITIONAL_NAME>
N-[(6aS,13bR)-11-chloro-12-hydroxy-7-methyl-5,6,6a,8,9,13b-hexahydronaphtho[1,2-a][3]benzazepin-3-yl]cyclopropanecarboxamide

> <PUBCHEM_IUPAC_INCHI>
InChI=1S/C23H25ClN2O2/c1-26-9-8-15-11-19(24)21(27)12-18(15)22-17-6-5-16(25-23(28)13-2-3-13)10-14(17)4-7-20(22)26/h5-6,10-13,20,22,27H,2-4,7-9H2,1H3,(H,25,28)/t20-,22+/m0/s1

> <PUBCHEM_IUPAC_INCHIKEY>
AIYWSFMMSLVJNW-RBBKRZOGSA-N

> <PUBCHEM_XLOGP3_AA>
4.1

> <PUBCHEM_EXACT_MASS>
396.1604557

> <PUBCHEM_MOLECULAR_FORMULA>
C23H25ClN2O2

> <PUBCHEM_MOLECULAR_WEIGHT>
396.9

> <PUBCHEM_OPENEYE_CAN_SMILES>
CN1CCC2=CC(=C(C=C2C3C1CCC4=C3C=CC(=C4)NC(=O)C5CC5)O)Cl

> <PUBCHEM_OPENEYE_ISO_SMILES>
CN1CCC2=CC(=C(C=C2[C@@H]3[C@@H]1CCC4=C3C=CC(=C4)NC(=O)C5CC5)O)Cl

> <PUBCHEM_CACTVS_TPSA>
52.6

> <PUBCHEM_MONOISOTOPIC_WEIGHT>
396.1604557

> <PUBCHEM_TOTAL_CHARGE>
0

> <PUBCHEM_HEAVY_ATOM_COUNT>
28

> <PUBCHEM_ATOM_DEF_STEREO_COUNT>
2

> <PUBCHEM_ATOM_UDEF_STEREO_COUNT>
0

> <PUBCHEM_BOND_DEF_STEREO_COUNT>
0

> <PUBCHEM_BOND_UDEF_STEREO_COUNT>
0

> <PUBCHEM_ISOTOPIC_ATOM_COUNT>
0

> <PUBCHEM_COMPONENT_COUNT>
1

> <PUBCHEM_CACTVS_TAUTO_COUNT>
-1

> <PUBCHEM_COORDINATE_TYPE>
1
5
255

> <PUBCHEM_BONDANNOTATIONS>
11  17  8
11  23  8
12  20  8
17  26  8
19  25  8
20  24  8
23  27  8
24  25  8
26  28  8
27  28  8
6  29  6
7  30  5
9  12  8
9  19  8

$$$$
