3645619
  -OEChem-09292322022D

 47 49  0     0  0  0  0  0  0999 V2000
    4.5981    2.7500    0.0000 O   0  0  0  0  0  0  0  0  0  0  0  0
    4.5981   -0.2500    0.0000 N   0  0  0  0  0  0  0  0  0  0  0  0
    4.5981   -2.2500    0.0000 N   0  0  0  0  0  0  0  0  0  0  0  0
    5.4641    1.2500    0.0000 N   0  0  0  0  0  0  0  0  0  0  0  0
    2.0000   -2.7500    0.0000 N   0  0  0  0  0  0  0  0  0  0  0  0
    5.4641   -0.7500    0.0000 C   0  0  0  0  0  0  0  0  0  0  0  0
    3.7320   -0.7500    0.0000 C   0  0  0  0  0  0  0  0  0  0  0  0
    5.4641   -1.7500    0.0000 C   0  0  0  0  0  0  0  0  0  0  0  0
    3.7320   -1.7500    0.0000 C   0  0  0  0  0  0  0  0  0  0  0  0
    4.5981    0.7500    0.0000 C   0  0  0  0  0  0  0  0  0  0  0  0
    4.5981   -3.2500    0.0000 C   0  0  0  0  0  0  0  0  0  0  0  0
    3.7320   -3.7500    0.0000 C   0  0  0  0  0  0  0  0  0  0  0  0
    5.4641   -3.7500    0.0000 C   0  0  0  0  0  0  0  0  0  0  0  0
    5.4641    2.2500    0.0000 C   0  0  0  0  0  0  0  0  0  0  0  0
    3.7320   -4.7500    0.0000 C   0  0  0  0  0  0  0  0  0  0  0  0
    5.4641   -4.7500    0.0000 C   0  0  0  0  0  0  0  0  0  0  0  0
    4.5981   -5.2500    0.0000 C   0  0  0  0  0  0  0  0  0  0  0  0
    6.3301    2.7500    0.0000 C   0  0  0  0  0  0  0  0  0  0  0  0
    2.8660   -3.2500    0.0000 C   0  0  0  0  0  0  0  0  0  0  0  0
    6.3301    3.7500    0.0000 C   0  0  0  0  0  0  0  0  0  0  0  0
    7.1962    2.2500    0.0000 C   0  0  0  0  0  0  0  0  0  0  0  0
    7.1962    4.2500    0.0000 C   0  0  0  0  0  0  0  0  0  0  0  0
    8.0622    2.7500    0.0000 C   0  0  0  0  0  0  0  0  0  0  0  0
    8.0622    3.7500    0.0000 C   0  0  0  0  0  0  0  0  0  0  0  0
    7.1962    5.2500    0.0000 C   0  0  0  0  0  0  0  0  0  0  0  0
    6.0747   -0.8577    0.0000 H   0  0  0  0  0  0  0  0  0  0  0  0
    5.6762   -0.1674    0.0000 H   0  0  0  0  0  0  0  0  0  0  0  0
    3.5200   -0.1674    0.0000 H   0  0  0  0  0  0  0  0  0  0  0  0
    3.1215   -0.8577    0.0000 H   0  0  0  0  0  0  0  0  0  0  0  0
    5.6762   -2.3326    0.0000 H   0  0  0  0  0  0  0  0  0  0  0  0
    6.0747   -1.6423    0.0000 H   0  0  0  0  0  0  0  0  0  0  0  0
    3.1215   -1.6423    0.0000 H   0  0  0  0  0  0  0  0  0  0  0  0
    3.5200   -2.3326    0.0000 H   0  0  0  0  0  0  0  0  0  0  0  0
    4.3860    1.3326    0.0000 H   0  0  0  0  0  0  0  0  0  0  0  0
    3.9875    0.6423    0.0000 H   0  0  0  0  0  0  0  0  0  0  0  0
    6.0010    0.9400    0.0000 H   0  0  0  0  0  0  0  0  0  0  0  0
    6.0010   -3.4400    0.0000 H   0  0  0  0  0  0  0  0  0  0  0  0
    3.1951   -5.0600    0.0000 H   0  0  0  0  0  0  0  0  0  0  0  0
    6.0010   -5.0600    0.0000 H   0  0  0  0  0  0  0  0  0  0  0  0
    4.5981   -5.8700    0.0000 H   0  0  0  0  0  0  0  0  0  0  0  0
    5.7932    4.0600    0.0000 H   0  0  0  0  0  0  0  0  0  0  0  0
    7.1962    1.6300    0.0000 H   0  0  0  0  0  0  0  0  0  0  0  0
    8.5991    2.4400    0.0000 H   0  0  0  0  0  0  0  0  0  0  0  0
    8.5991    4.0600    0.0000 H   0  0  0  0  0  0  0  0  0  0  0  0
    7.8162    5.2500    0.0000 H   0  0  0  0  0  0  0  0  0  0  0  0
    7.1962    5.8700    0.0000 H   0  0  0  0  0  0  0  0  0  0  0  0
    6.5762    5.2500    0.0000 H   0  0  0  0  0  0  0  0  0  0  0  0
  1 14  2  0  0  0  0
  2  6  1  0  0  0  0
  2  7  1  0  0  0  0
  2 10  1  0  0  0  0
  3  8  1  0  0  0  0
  3  9  1  0  0  0  0
  3 11  1  0  0  0  0
  4 10  1  0  0  0  0
  4 14  1  0  0  0  0
  4 36  1  0  0  0  0
  5 19  3  0  0  0  0
  6  8  1  0  0  0  0
  6 26  1  0  0  0  0
  6 27  1  0  0  0  0
  7  9  1  0  0  0  0
  7 28  1  0  0  0  0
  7 29  1  0  0  0  0
  8 30  1  0  0  0  0
  8 31  1  0  0  0  0
  9 32  1  0  0  0  0
  9 33  1  0  0  0  0
 10 34  1  0  0  0  0
 10 35  1  0  0  0  0
 11 12  1  0  0  0  0
 11 13  2  0  0  0  0
 12 15  2  0  0  0  0
 12 19  1  0  0  0  0
 13 16  1  0  0  0  0
 13 37  1  0  0  0  0
 14 18  1  0  0  0  0
 15 17  1  0  0  0  0
 15 38  1  0  0  0  0
 16 17  2  0  0  0  0
 16 39  1  0  0  0  0
 17 40  1  0  0  0  0
 18 20  1  0  0  0  0
 18 21  2  0  0  0  0
 20 22  2  0  0  0  0
 20 41  1  0  0  0  0
 21 23  1  0  0  0  0
 21 42  1  0  0  0  0
 22 24  1  0  0  0  0
 22 25  1  0  0  0  0
 23 24  2  0  0  0  0
 23 43  1  0  0  0  0
 24 44  1  0  0  0  0
 25 45  1  0  0  0  0
 25 46  1  0  0  0  0
 25 47  1  0  0  0  0
M  END
> <PUBCHEM_COMPOUND_CID>
3645619

> <PUBCHEM_COMPOUND_CANONICALIZED>
1

> <PUBCHEM_CACTVS_COMPLEXITY>
491

> <PUBCHEM_CACTVS_HBOND_ACCEPTOR>
4

> <PUBCHEM_CACTVS_HBOND_DONOR>
1

> <PUBCHEM_CACTVS_ROTATABLE_BOND>
4

> <PUBCHEM_CACTVS_SUBSKEYS>
AAADceB7oAAAAAAAAAAAAAAAAAAAAAAAAAA8YIAAAAAAAAABQAAAHgAQAAAADAjBmAQzwIPAAACYBiVSUACiAAAlAgAIiIEIZMiI4DLAlZGUIQhogwLIyY8YiECOAAACAAACAAAAAAQAAAQAAAAAAAAAAA==

> <PUBCHEM_IUPAC_OPENEYE_NAME>
N-[[4-(2-cyanophenyl)piperazin-1-yl]methyl]-3-methyl-benzamide

> <PUBCHEM_IUPAC_CAS_NAME>
N-[[4-(2-cyanophenyl)-1-piperazinyl]methyl]-3-methylbenzamide

> <PUBCHEM_IUPAC_NAME_MARKUP>
<I>N</I>-[[4-(2-cyanophenyl)piperazin-1-yl]methyl]-3-methylbenzamide

> <PUBCHEM_IUPAC_NAME>
N-[[4-(2-cyanophenyl)piperazin-1-yl]methyl]-3-methylbenzamide

> <PUBCHEM_IUPAC_SYSTEMATIC_NAME>
N-[[4-(2-cyanophenyl)piperazin-1-yl]methyl]-3-methyl-benzamide

> <PUBCHEM_IUPAC_TRADITIONAL_NAME>
N-[[4-(2-cyanophenyl)piperazino]methyl]-3-methyl-benzamide

> <PUBCHEM_IUPAC_INCHI>
InChI=1S/C20H22N4O/c1-16-5-4-7-17(13-16)20(25)22-15-23-9-11-24(12-10-23)19-8-3-2-6-18(19)14-21/h2-8,13H,9-12,15H2,1H3,(H,22,25)

> <PUBCHEM_IUPAC_INCHIKEY>
DNULYRGWTFLJQL-UHFFFAOYSA-N

> <PUBCHEM_XLOGP3_AA>
3

> <PUBCHEM_EXACT_MASS>
334.17936134

> <PUBCHEM_MOLECULAR_FORMULA>
C20H22N4O

> <PUBCHEM_MOLECULAR_WEIGHT>
334.4

> <PUBCHEM_OPENEYE_CAN_SMILES>
CC1=CC(=CC=C1)C(=O)NCN2CCN(CC2)C3=CC=CC=C3C#N

> <PUBCHEM_OPENEYE_ISO_SMILES>
CC1=CC(=CC=C1)C(=O)NCN2CCN(CC2)C3=CC=CC=C3C#N

> <PUBCHEM_CACTVS_TPSA>
59.4

> <PUBCHEM_MONOISOTOPIC_WEIGHT>
334.17936134

> <PUBCHEM_TOTAL_CHARGE>
0

> <PUBCHEM_HEAVY_ATOM_COUNT>
25

> <PUBCHEM_ATOM_DEF_STEREO_COUNT>
0

> <PUBCHEM_ATOM_UDEF_STEREO_COUNT>
0

> <PUBCHEM_BOND_DEF_STEREO_COUNT>
0

> <PUBCHEM_BOND_UDEF_STEREO_COUNT>
0

> <PUBCHEM_ISOTOPIC_ATOM_COUNT>
0

> <PUBCHEM_COMPONENT_COUNT>
1

> <PUBCHEM_CACTVS_TAUTO_COUNT>
2

> <PUBCHEM_COORDINATE_TYPE>
1
5
255

> <PUBCHEM_BONDANNOTATIONS>
11  12  8
11  13  8
12  15  8
13  16  8
15  17  8
16  17  8
18  20  8
18  21  8
20  22  8
21  23  8
22  24  8
23  24  8

$$$$
