118719796
  -OEChem-09292322362D

 66 70  0     0  0  0  0  0  0999 V2000
    2.9945    4.6229    0.0000 O   0  0  0  0  0  0  0  0  0  0  0  0
    5.7970    2.5867    0.0000 N   0  0  0  0  0  0  0  0  0  0  0  0
    4.9836    4.4138    0.0000 N   0  0  0  0  0  0  0  0  0  0  0  0
    4.7539   -4.1198    0.0000 N   0  0  0  0  0  0  0  0  0  0  0  0
    4.2539   -2.5810    0.0000 N   0  0  0  0  0  0  0  0  0  0  0  0
    3.9449   -3.5320    0.0000 N   0  0  0  0  0  0  0  0  0  0  0  0
    7.4199   -6.6406    0.0000 N   0  0  0  0  0  0  0  0  0  0  0  0
    6.3848    3.3958    0.0000 C   0  0  0  0  0  0  0  0  0  0  0  0
    4.8025    2.6913    0.0000 C   0  0  0  0  0  0  0  0  0  0  0  0
    5.9781    4.3093    0.0000 C   0  0  0  0  0  0  0  0  0  0  0  0
    4.3958    3.6048    0.0000 C   0  0  0  0  0  0  0  0  0  0  0  0
    6.2038    1.6732    0.0000 C   0  0  0  0  0  0  0  0  0  0  0  0
    5.6160    0.8642    0.0000 C   0  0  0  0  0  0  0  0  0  0  0  0
    6.0227   -0.0494    0.0000 C   0  0  0  0  0  0  0  0  0  0  0  0
    4.5768    5.3274    0.0000 C   0  0  0  0  0  0  0  0  0  0  0  0
    5.4349   -0.8584    0.0000 C   0  0  0  0  0  0  0  0  0  0  0  0
    5.8417   -1.7719    0.0000 C   0  0  0  0  0  0  0  0  0  0  0  0
    3.5823    5.4319    0.0000 C   0  0  0  0  0  0  0  0  0  0  0  0
    5.1646    6.1364    0.0000 C   0  0  0  0  0  0  0  0  0  0  0  0
    5.2539   -2.5810    0.0000 C   0  0  0  0  0  0  0  0  0  0  0  0
    3.1756    6.3454    0.0000 C   0  0  0  0  0  0  0  0  0  0  0  0
    4.7579    7.0499    0.0000 C   0  0  0  0  0  0  0  0  0  0  0  0
    3.7634    7.1545    0.0000 C   0  0  0  0  0  0  0  0  0  0  0  0
    5.5629   -3.5320    0.0000 C   0  0  0  0  0  0  0  0  0  0  0  0
    4.7539   -5.1198    0.0000 C   0  0  0  0  0  0  0  0  0  0  0  0
    2.0000    4.7274    0.0000 C   0  0  0  0  0  0  0  0  0  0  0  0
    5.6199   -5.6198    0.0000 C   0  0  0  0  0  0  0  0  0  0  0  0
    3.8879   -5.6198    0.0000 C   0  0  0  0  0  0  0  0  0  0  0  0
    5.6199   -6.6198    0.0000 C   0  0  0  0  0  0  0  0  0  0  0  0
    3.8879   -6.6198    0.0000 C   0  0  0  0  0  0  0  0  0  0  0  0
    4.7539   -7.1198    0.0000 C   0  0  0  0  0  0  0  0  0  0  0  0
    6.5139   -5.0851    0.0000 C   0  0  0  0  0  0  0  0  0  0  0  0
    6.5139   -7.1545    0.0000 C   0  0  0  0  0  0  0  0  0  0  0  0
    7.4199   -5.5990    0.0000 C   0  0  0  0  0  0  0  0  0  0  0  0
    6.8155    2.9498    0.0000 H   0  0  0  0  0  0  0  0  0  0  0  0
    6.8988    3.7424    0.0000 H   0  0  0  0  0  0  0  0  0  0  0  0
    4.2009    2.5413    0.0000 H   0  0  0  0  0  0  0  0  0  0  0  0
    4.8458    2.0728    0.0000 H   0  0  0  0  0  0  0  0  0  0  0  0
    6.5797    4.4593    0.0000 H   0  0  0  0  0  0  0  0  0  0  0  0
    5.9348    4.9278    0.0000 H   0  0  0  0  0  0  0  0  0  0  0  0
    3.9651    4.0508    0.0000 H   0  0  0  0  0  0  0  0  0  0  0  0
    3.8818    3.2581    0.0000 H   0  0  0  0  0  0  0  0  0  0  0  0
    6.6345    1.2272    0.0000 H   0  0  0  0  0  0  0  0  0  0  0  0
    6.7178    2.0199    0.0000 H   0  0  0  0  0  0  0  0  0  0  0  0
    5.1853    1.3102    0.0000 H   0  0  0  0  0  0  0  0  0  0  0  0
    5.1020    0.5175    0.0000 H   0  0  0  0  0  0  0  0  0  0  0  0
    6.4534   -0.4954    0.0000 H   0  0  0  0  0  0  0  0  0  0  0  0
    6.5367    0.2973    0.0000 H   0  0  0  0  0  0  0  0  0  0  0  0
    5.0042   -0.4124    0.0000 H   0  0  0  0  0  0  0  0  0  0  0  0
    4.9209   -1.2051    0.0000 H   0  0  0  0  0  0  0  0  0  0  0  0
    6.2724   -2.2179    0.0000 H   0  0  0  0  0  0  0  0  0  0  0  0
    6.3557   -1.4252    0.0000 H   0  0  0  0  0  0  0  0  0  0  0  0
    5.7812    6.0716    0.0000 H   0  0  0  0  0  0  0  0  0  0  0  0
    2.5590    6.4102    0.0000 H   0  0  0  0  0  0  0  0  0  0  0  0
    5.1223    7.5515    0.0000 H   0  0  0  0  0  0  0  0  0  0  0  0
    3.5112    7.7209    0.0000 H   0  0  0  0  0  0  0  0  0  0  0  0
    6.1526   -3.7236    0.0000 H   0  0  0  0  0  0  0  0  0  0  0  0
    2.0648    5.3440    0.0000 H   0  0  0  0  0  0  0  0  0  0  0  0
    1.3834    4.7922    0.0000 H   0  0  0  0  0  0  0  0  0  0  0  0
    1.9352    4.1108    0.0000 H   0  0  0  0  0  0  0  0  0  0  0  0
    3.3509   -5.3098    0.0000 H   0  0  0  0  0  0  0  0  0  0  0  0
    3.3509   -6.9298    0.0000 H   0  0  0  0  0  0  0  0  0  0  0  0
    4.7539   -7.7398    0.0000 H   0  0  0  0  0  0  0  0  0  0  0  0
    6.5067   -4.4652    0.0000 H   0  0  0  0  0  0  0  0  0  0  0  0
    6.5067   -7.7744    0.0000 H   0  0  0  0  0  0  0  0  0  0  0  0
    7.9557   -5.2869    0.0000 H   0  0  0  0  0  0  0  0  0  0  0  0
  1 18  1  0  0  0  0
  1 26  1  0  0  0  0
  2  8  1  0  0  0  0
  2  9  1  0  0  0  0
  2 12  1  0  0  0  0
  3 10  1  0  0  0  0
  3 11  1  0  0  0  0
  3 15  1  0  0  0  0
  4  6  1  0  0  0  0
  4 24  1  0  0  0  0
  4 25  1  0  0  0  0
  5  6  2  0  0  0  0
  5 20  1  0  0  0  0
  7 33  2  0  0  0  0
  7 34  1  0  0  0  0
  8 10  1  0  0  0  0
  8 35  1  0  0  0  0
  8 36  1  0  0  0  0
  9 11  1  0  0  0  0
  9 37  1  0  0  0  0
  9 38  1  0  0  0  0
 10 39  1  0  0  0  0
 10 40  1  0  0  0  0
 11 41  1  0  0  0  0
 11 42  1  0  0  0  0
 12 13  1  0  0  0  0
 12 43  1  0  0  0  0
 12 44  1  0  0  0  0
 13 14  1  0  0  0  0
 13 45  1  0  0  0  0
 13 46  1  0  0  0  0
 14 16  1  0  0  0  0
 14 47  1  0  0  0  0
 14 48  1  0  0  0  0
 15 18  1  0  0  0  0
 15 19  2  0  0  0  0
 16 17  1  0  0  0  0
 16 49  1  0  0  0  0
 16 50  1  0  0  0  0
 17 20  1  0  0  0  0
 17 51  1  0  0  0  0
 17 52  1  0  0  0  0
 18 21  2  0  0  0  0
 19 22  1  0  0  0  0
 19 53  1  0  0  0  0
 20 24  2  0  0  0  0
 21 23  1  0  0  0  0
 21 54  1  0  0  0  0
 22 23  2  0  0  0  0
 22 55  1  0  0  0  0
 23 56  1  0  0  0  0
 24 57  1  0  0  0  0
 25 27  1  0  0  0  0
 25 28  2  0  0  0  0
 26 58  1  0  0  0  0
 26 59  1  0  0  0  0
 26 60  1  0  0  0  0
 27 29  2  0  0  0  0
 27 32  1  0  0  0  0
 28 30  1  0  0  0  0
 28 61  1  0  0  0  0
 29 31  1  0  0  0  0
 29 33  1  0  0  0  0
 30 31  2  0  0  0  0
 30 62  1  0  0  0  0
 31 63  1  0  0  0  0
 32 34  2  0  0  0  0
 32 64  1  0  0  0  0
 33 65  1  0  0  0  0
 34 66  1  0  0  0  0
M  END
> <PUBCHEM_COMPOUND_CID>
118719796

> <PUBCHEM_COMPOUND_CANONICALIZED>
1

> <PUBCHEM_CACTVS_COMPLEXITY>
600

> <PUBCHEM_CACTVS_HBOND_ACCEPTOR>
6

> <PUBCHEM_CACTVS_HBOND_DONOR>
0

> <PUBCHEM_CACTVS_ROTATABLE_BOND>
9

> <PUBCHEM_CACTVS_SUBSKEYS>
AAADcfB7oAAAAAAAAAAAAAAAAAAAAWAAAAA8eIEAAAAAAACx/AAAHgAIAAAADAzBngY+xtMIFACiAzRnRACCjCQxsiAY2CA/fJgOZuLEsZuVMChkwBHY6AeQwIAOgAAAQAASEAAAAACAACQgAAAAAAAAAA==

> <PUBCHEM_IUPAC_OPENEYE_NAME>
5-[4-[5-[4-(2-methoxyphenyl)piperazin-1-yl]pentyl]triazol-1-yl]isoquinoline

> <PUBCHEM_IUPAC_CAS_NAME>
5-[4-[5-[4-(2-methoxyphenyl)-1-piperazinyl]pentyl]-1-triazolyl]isoquinoline

> <PUBCHEM_IUPAC_NAME_MARKUP>
5-[4-[5-[4-(2-methoxyphenyl)piperazin-1-yl]pentyl]triazol-1-yl]isoquinoline

> <PUBCHEM_IUPAC_NAME>
5-[4-[5-[4-(2-methoxyphenyl)piperazin-1-yl]pentyl]triazol-1-yl]isoquinoline

> <PUBCHEM_IUPAC_SYSTEMATIC_NAME>
5-[4-[5-[4-(2-methoxyphenyl)piperazin-1-yl]pentyl]-1,2,3-triazol-1-yl]isoquinoline

> <PUBCHEM_IUPAC_TRADITIONAL_NAME>
5-[4-[5-[4-(2-methoxyphenyl)piperazino]pentyl]triazol-1-yl]isoquinoline

> <PUBCHEM_IUPAC_INCHI>
InChI=1S/C27H32N6O/c1-34-27-12-5-4-10-26(27)32-18-16-31(17-19-32)15-6-2-3-9-23-21-33(30-29-23)25-11-7-8-22-20-28-14-13-24(22)25/h4-5,7-8,10-14,20-21H,2-3,6,9,15-19H2,1H3

> <PUBCHEM_IUPAC_INCHIKEY>
FDCHXWBYCLDODW-UHFFFAOYSA-N

> <PUBCHEM_XLOGP3_AA>
4.5

> <PUBCHEM_EXACT_MASS>
456.26375967

> <PUBCHEM_MOLECULAR_FORMULA>
C27H32N6O

> <PUBCHEM_MOLECULAR_WEIGHT>
456.6

> <PUBCHEM_OPENEYE_CAN_SMILES>
COC1=CC=CC=C1N2CCN(CC2)CCCCCC3=CN(N=N3)C4=CC=CC5=C4C=CN=C5

> <PUBCHEM_OPENEYE_ISO_SMILES>
COC1=CC=CC=C1N2CCN(CC2)CCCCCC3=CN(N=N3)C4=CC=CC5=C4C=CN=C5

> <PUBCHEM_CACTVS_TPSA>
59.3

> <PUBCHEM_MONOISOTOPIC_WEIGHT>
456.26375967

> <PUBCHEM_TOTAL_CHARGE>
0

> <PUBCHEM_HEAVY_ATOM_COUNT>
34

> <PUBCHEM_ATOM_DEF_STEREO_COUNT>
0

> <PUBCHEM_ATOM_UDEF_STEREO_COUNT>
0

> <PUBCHEM_BOND_DEF_STEREO_COUNT>
0

> <PUBCHEM_BOND_UDEF_STEREO_COUNT>
0

> <PUBCHEM_ISOTOPIC_ATOM_COUNT>
0

> <PUBCHEM_COMPONENT_COUNT>
1

> <PUBCHEM_CACTVS_TAUTO_COUNT>
-1

> <PUBCHEM_COORDINATE_TYPE>
1
5
255

> <PUBCHEM_BONDANNOTATIONS>
15  18  8
15  19  8
18  21  8
19  22  8
20  24  8
21  23  8
22  23  8
25  27  8
25  28  8
27  29  8
27  32  8
28  30  8
29  31  8
29  33  8
30  31  8
32  34  8
4  24  8
4  6  8
5  20  8
5  6  8
7  33  8
7  34  8

$$$$
