57326983
  -OEChem-09292322072D

114121  0     0  0  0  0  0  0999 V2000
    6.2416   -6.3270    0.0000 Cl  0  0  0  0  0  0  0  0  0  0  0  0
    8.7204    6.3270    0.0000 Cl  0  0  0  0  0  0  0  0  0  0  0  0
    8.3470   -4.0000    0.0000 O   0  0  0  0  0  0  0  0  0  0  0  0
    6.6150    4.0000    0.0000 O   0  0  0  0  0  0  0  0  0  0  0  0
   11.0129   -8.0916    0.0000 N   0  0  0  0  0  0  0  0  0  0  0  0
    3.9491    8.0916    0.0000 N   0  0  0  0  0  0  0  0  0  0  0  0
   11.8807   -9.8936    0.0000 N   0  0  0  0  0  0  0  0  0  0  0  0
    3.0814    9.8936    0.0000 N   0  0  0  0  0  0  0  0  0  0  0  0
   10.0791   -5.0000    0.0000 N   0  0  0  0  0  0  0  0  0  0  0  0
    4.8830    5.0000    0.0000 N   0  0  0  0  0  0  0  0  0  0  0  0
    9.5790   -7.1907    0.0000 N   0  0  0  0  0  0  0  0  0  0  0  0
    5.3830    7.1907    0.0000 N   0  0  0  0  0  0  0  0  0  0  0  0
   10.0791   -4.0000    0.0000 N   0  0  0  0  0  0  0  0  0  0  0  0
    4.8830    4.0000    0.0000 N   0  0  0  0  0  0  0  0  0  0  0  0
   12.0101   -8.1664    0.0000 C   0  0  0  0  0  0  0  0  0  0  0  0
   10.4496   -8.9179    0.0000 C   0  0  0  0  0  0  0  0  0  0  0  0
    2.9519    8.1664    0.0000 C   0  0  0  0  0  0  0  0  0  0  0  0
    4.5125    8.9179    0.0000 C   0  0  0  0  0  0  0  0  0  0  0  0
   12.4440   -9.0674    0.0000 C   0  0  0  0  0  0  0  0  0  0  0  0
   10.8835   -9.8188    0.0000 C   0  0  0  0  0  0  0  0  0  0  0  0
    2.5180    9.0674    0.0000 C   0  0  0  0  0  0  0  0  0  0  0  0
    4.0786    9.8188    0.0000 C   0  0  0  0  0  0  0  0  0  0  0  0
   10.5791   -7.1907    0.0000 C   0  0  0  0  0  0  0  0  0  0  0  0
    4.3830    7.1907    0.0000 C   0  0  0  0  0  0  0  0  0  0  0  0
   11.2025   -6.4088    0.0000 C   0  0  0  0  0  0  0  0  0  0  0  0
    3.7595    6.4088    0.0000 C   0  0  0  0  0  0  0  0  0  0  0  0
   12.3146  -10.7946    0.0000 C   0  0  0  0  0  0  0  0  0  0  0  0
    2.6475   10.7946    0.0000 C   0  0  0  0  0  0  0  0  0  0  0  0
   10.9800   -5.4339    0.0000 C   0  0  0  0  0  0  0  0  0  0  0  0
    3.9820    5.4339    0.0000 C   0  0  0  0  0  0  0  0  0  0  0  0
    7.4810   -0.5000    0.0000 C   0  0  0  0  0  0  0  0  0  0  0  0
    7.4810    0.5000    0.0000 C   0  0  0  0  0  0  0  0  0  0  0  0
    8.3470   -1.0000    0.0000 C   0  0  0  0  0  0  0  0  0  0  0  0
    6.6150    1.0000    0.0000 C   0  0  0  0  0  0  0  0  0  0  0  0
    9.1781   -5.4339    0.0000 C   0  0  0  0  0  0  0  0  0  0  0  0
    5.7840    5.4339    0.0000 C   0  0  0  0  0  0  0  0  0  0  0  0
    8.3470   -2.0000    0.0000 C   0  0  0  0  0  0  0  0  0  0  0  0
    6.6150    2.0000    0.0000 C   0  0  0  0  0  0  0  0  0  0  0  0
    8.9556   -6.4088    0.0000 C   0  0  0  0  0  0  0  0  0  0  0  0
    6.0065    6.4088    0.0000 C   0  0  0  0  0  0  0  0  0  0  0  0
   12.1930   -6.7312    0.0000 C   0  0  0  0  0  0  0  0  0  0  0  0
    2.7690    6.7312    0.0000 C   0  0  0  0  0  0  0  0  0  0  0  0
    9.2131   -2.5000    0.0000 C   0  0  0  0  0  0  0  0  0  0  0  0
    5.7490    2.5000    0.0000 C   0  0  0  0  0  0  0  0  0  0  0  0
   11.7326   -4.7137    0.0000 C   0  0  0  0  0  0  0  0  0  0  0  0
    3.2295    4.7137    0.0000 C   0  0  0  0  0  0  0  0  0  0  0  0
    9.2131   -3.5000    0.0000 C   0  0  0  0  0  0  0  0  0  0  0  0
    5.7490    3.5000    0.0000 C   0  0  0  0  0  0  0  0  0  0  0  0
   12.9621   -6.0286    0.0000 C   0  0  0  0  0  0  0  0  0  0  0  0
    2.0000    6.0286    0.0000 C   0  0  0  0  0  0  0  0  0  0  0  0
    8.4256   -4.7137    0.0000 C   0  0  0  0  0  0  0  0  0  0  0  0
    6.5365    4.7137    0.0000 C   0  0  0  0  0  0  0  0  0  0  0  0
   12.7303   -5.0131    0.0000 C   0  0  0  0  0  0  0  0  0  0  0  0
    2.2318    5.0131    0.0000 C   0  0  0  0  0  0  0  0  0  0  0  0
    7.9651   -6.7312    0.0000 C   0  0  0  0  0  0  0  0  0  0  0  0
    6.9970    6.7312    0.0000 C   0  0  0  0  0  0  0  0  0  0  0  0
    7.4278   -5.0130    0.0000 C   0  0  0  0  0  0  0  0  0  0  0  0
    7.5342    5.0130    0.0000 C   0  0  0  0  0  0  0  0  0  0  0  0
    7.1961   -6.0286    0.0000 C   0  0  0  0  0  0  0  0  0  0  0  0
    7.7660    6.0286    0.0000 C   0  0  0  0  0  0  0  0  0  0  0  0
   12.6070   -7.9985    0.0000 H   0  0  0  0  0  0  0  0  0  0  0  0
   11.9484   -7.5495    0.0000 H   0  0  0  0  0  0  0  0  0  0  0  0
   10.0058   -8.4850    0.0000 H   0  0  0  0  0  0  0  0  0  0  0  0
    9.9462   -9.2798    0.0000 H   0  0  0  0  0  0  0  0  0  0  0  0
    2.3551    7.9985    0.0000 H   0  0  0  0  0  0  0  0  0  0  0  0
    3.0137    7.5495    0.0000 H   0  0  0  0  0  0  0  0  0  0  0  0
    4.9563    8.4850    0.0000 H   0  0  0  0  0  0  0  0  0  0  0  0
    5.0159    9.2798    0.0000 H   0  0  0  0  0  0  0  0  0  0  0  0
   12.8878   -9.5003    0.0000 H   0  0  0  0  0  0  0  0  0  0  0  0
   12.9474   -8.7054    0.0000 H   0  0  0  0  0  0  0  0  0  0  0  0
   10.2867   -9.9868    0.0000 H   0  0  0  0  0  0  0  0  0  0  0  0
   10.9452  -10.4358    0.0000 H   0  0  0  0  0  0  0  0  0  0  0  0
    2.0742    9.5003    0.0000 H   0  0  0  0  0  0  0  0  0  0  0  0
    2.0146    8.7054    0.0000 H   0  0  0  0  0  0  0  0  0  0  0  0
    4.6754    9.9868    0.0000 H   0  0  0  0  0  0  0  0  0  0  0  0
    4.0168   10.4358    0.0000 H   0  0  0  0  0  0  0  0  0  0  0  0
   11.7560  -11.0636    0.0000 H   0  0  0  0  0  0  0  0  0  0  0  0
   12.5836  -11.3532    0.0000 H   0  0  0  0  0  0  0  0  0  0  0  0
   12.8732  -10.5256    0.0000 H   0  0  0  0  0  0  0  0  0  0  0  0
    3.2061   11.0636    0.0000 H   0  0  0  0  0  0  0  0  0  0  0  0
    2.3785   11.3532    0.0000 H   0  0  0  0  0  0  0  0  0  0  0  0
    2.0889   10.5256    0.0000 H   0  0  0  0  0  0  0  0  0  0  0  0
    6.8704   -0.3923    0.0000 H   0  0  0  0  0  0  0  0  0  0  0  0
    7.2690   -1.0826    0.0000 H   0  0  0  0  0  0  0  0  0  0  0  0
    8.0916    0.3923    0.0000 H   0  0  0  0  0  0  0  0  0  0  0  0
    7.6931    1.0826    0.0000 H   0  0  0  0  0  0  0  0  0  0  0  0
    8.9576   -1.1077    0.0000 H   0  0  0  0  0  0  0  0  0  0  0  0
    8.5591   -0.4174    0.0000 H   0  0  0  0  0  0  0  0  0  0  0  0
    6.0044    1.1077    0.0000 H   0  0  0  0  0  0  0  0  0  0  0  0
    6.4030    0.4174    0.0000 H   0  0  0  0  0  0  0  0  0  0  0  0
    7.7365   -1.8923    0.0000 H   0  0  0  0  0  0  0  0  0  0  0  0
    8.1350   -2.5826    0.0000 H   0  0  0  0  0  0  0  0  0  0  0  0
    7.2256    1.8923    0.0000 H   0  0  0  0  0  0  0  0  0  0  0  0
    6.8271    2.5826    0.0000 H   0  0  0  0  0  0  0  0  0  0  0  0
   12.3240   -7.3372    0.0000 H   0  0  0  0  0  0  0  0  0  0  0  0
    2.6380    7.3372    0.0000 H   0  0  0  0  0  0  0  0  0  0  0  0
    9.8236   -2.6077    0.0000 H   0  0  0  0  0  0  0  0  0  0  0  0
    9.4251   -1.9174    0.0000 H   0  0  0  0  0  0  0  0  0  0  0  0
    5.1384    2.6077    0.0000 H   0  0  0  0  0  0  0  0  0  0  0  0
    5.5369    1.9174    0.0000 H   0  0  0  0  0  0  0  0  0  0  0  0
   11.5877   -4.1109    0.0000 H   0  0  0  0  0  0  0  0  0  0  0  0
    3.3744    4.1109    0.0000 H   0  0  0  0  0  0  0  0  0  0  0  0
   10.6160   -3.6900    0.0000 H   0  0  0  0  0  0  0  0  0  0  0  0
    4.3460    3.6900    0.0000 H   0  0  0  0  0  0  0  0  0  0  0  0
   13.5538   -6.2136    0.0000 H   0  0  0  0  0  0  0  0  0  0  0  0
    1.4083    6.2136    0.0000 H   0  0  0  0  0  0  0  0  0  0  0  0
    8.5705   -4.1109    0.0000 H   0  0  0  0  0  0  0  0  0  0  0  0
    6.3916    4.1109    0.0000 H   0  0  0  0  0  0  0  0  0  0  0  0
   13.1832   -4.5896    0.0000 H   0  0  0  0  0  0  0  0  0  0  0  0
    1.7789    4.5896    0.0000 H   0  0  0  0  0  0  0  0  0  0  0  0
    7.8341   -7.3372    0.0000 H   0  0  0  0  0  0  0  0  0  0  0  0
    7.1280    7.3372    0.0000 H   0  0  0  0  0  0  0  0  0  0  0  0
    6.9750   -4.5896    0.0000 H   0  0  0  0  0  0  0  0  0  0  0  0
    7.9871    4.5896    0.0000 H   0  0  0  0  0  0  0  0  0  0  0  0
  1 59  1  0  0  0  0
  2 60  1  0  0  0  0
  3 47  2  0  0  0  0
  4 48  2  0  0  0  0
  5 15  1  0  0  0  0
  5 16  1  0  0  0  0
  5 23  1  0  0  0  0
  6 17  1  0  0  0  0
  6 18  1  0  0  0  0
  6 24  1  0  0  0  0
  7 19  1  0  0  0  0
  7 20  1  0  0  0  0
  7 27  1  0  0  0  0
  8 21  1  0  0  0  0
  8 22  1  0  0  0  0
  8 28  1  0  0  0  0
  9 13  1  0  0  0  0
  9 29  1  0  0  0  0
  9 35  1  0  0  0  0
 10 14  1  0  0  0  0
 10 30  1  0  0  0  0
 10 36  1  0  0  0  0
 11 23  2  0  0  0  0
 11 39  1  0  0  0  0
 12 24  2  0  0  0  0
 12 40  1  0  0  0  0
 13 47  1  0  0  0  0
 13103  1  0  0  0  0
 14 48  1  0  0  0  0
 14104  1  0  0  0  0
 15 19  1  0  0  0  0
 15 61  1  0  0  0  0
 15 62  1  0  0  0  0
 16 20  1  0  0  0  0
 16 63  1  0  0  0  0
 16 64  1  0  0  0  0
 17 21  1  0  0  0  0
 17 65  1  0  0  0  0
 17 66  1  0  0  0  0
 18 22  1  0  0  0  0
 18 67  1  0  0  0  0
 18 68  1  0  0  0  0
 19 69  1  0  0  0  0
 19 70  1  0  0  0  0
 20 71  1  0  0  0  0
 20 72  1  0  0  0  0
 21 73  1  0  0  0  0
 21 74  1  0  0  0  0
 22 75  1  0  0  0  0
 22 76  1  0  0  0  0
 23 25  1  0  0  0  0
 24 26  1  0  0  0  0
 25 29  1  0  0  0  0
 25 41  2  0  0  0  0
 26 30  1  0  0  0  0
 26 42  2  0  0  0  0
 27 77  1  0  0  0  0
 27 78  1  0  0  0  0
 27 79  1  0  0  0  0
 28 80  1  0  0  0  0
 28 81  1  0  0  0  0
 28 82  1  0  0  0  0
 29 45  2  0  0  0  0
 30 46  2  0  0  0  0
 31 32  1  0  0  0  0
 31 33  1  0  0  0  0
 31 83  1  0  0  0  0
 31 84  1  0  0  0  0
 32 34  1  0  0  0  0
 32 85  1  0  0  0  0
 32 86  1  0  0  0  0
 33 37  1  0  0  0  0
 33 87  1  0  0  0  0
 33 88  1  0  0  0  0
 34 38  1  0  0  0  0
 34 89  1  0  0  0  0
 34 90  1  0  0  0  0
 35 39  2  0  0  0  0
 35 51  1  0  0  0  0
 36 40  2  0  0  0  0
 36 52  1  0  0  0  0
 37 43  1  0  0  0  0
 37 91  1  0  0  0  0
 37 92  1  0  0  0  0
 38 44  1  0  0  0  0
 38 93  1  0  0  0  0
 38 94  1  0  0  0  0
 39 55  1  0  0  0  0
 40 56  1  0  0  0  0
 41 49  1  0  0  0  0
 41 95  1  0  0  0  0
 42 50  1  0  0  0  0
 42 96  1  0  0  0  0
 43 47  1  0  0  0  0
 43 97  1  0  0  0  0
 43 98  1  0  0  0  0
 44 48  1  0  0  0  0
 44 99  1  0  0  0  0
 44100  1  0  0  0  0
 45 53  1  0  0  0  0
 45101  1  0  0  0  0
 46 54  1  0  0  0  0
 46102  1  0  0  0  0
 49 53  2  0  0  0  0
 49105  1  0  0  0  0
 50 54  2  0  0  0  0
 50106  1  0  0  0  0
 51 57  2  0  0  0  0
 51107  1  0  0  0  0
 52 58  2  0  0  0  0
 52108  1  0  0  0  0
 53109  1  0  0  0  0
 54110  1  0  0  0  0
 55 59  2  0  0  0  0
 55111  1  0  0  0  0
 56 60  2  0  0  0  0
 56112  1  0  0  0  0
 57 59  1  0  0  0  0
 57113  1  0  0  0  0
 58 60  1  0  0  0  0
 58114  1  0  0  0  0
M  END
> <PUBCHEM_COMPOUND_CID>
57326983

> <PUBCHEM_COMPOUND_CANONICALIZED>
1

> <PUBCHEM_CACTVS_COMPLEXITY>
1380

> <PUBCHEM_CACTVS_HBOND_ACCEPTOR>
8

> <PUBCHEM_CACTVS_HBOND_DONOR>
2

> <PUBCHEM_CACTVS_ROTATABLE_BOND>
13

> <PUBCHEM_CACTVS_SUBSKEYS>
AAADcfB/8AAGAAAAAAAAAAAAAAAAAAAAAAA8eMGCBAgAAAABVAAAHgIYAAAADArBmCQzwINiAACoAidydACCBAEhBwAbqAEodpgIYPLB25GUIAhgkADIyAcYiICOAABAAAICACAAAIAABAQAQAAAAAAAAA==

> <PUBCHEM_IUPAC_OPENEYE_NAME>
N,N'-bis[3-chloro-6-(4-methylpiperazin-1-yl)benzo[b][1,4]benzodiazepin-11-yl]decanediamide

> <PUBCHEM_IUPAC_CAS_NAME>
N,N'-bis[3-chloro-6-(4-methyl-1-piperazinyl)-11-benzo[b][1,4]benzodiazepinyl]decanediamide

> <PUBCHEM_IUPAC_NAME_MARKUP>
<I>N</I>,<I>N</I>&apos;-bis[3-chloro-6-(4-methylpiperazin-1-yl)benzo[b][1,4]benzodiazepin-11-yl]decanediamide

> <PUBCHEM_IUPAC_NAME>
N,N'-bis[3-chloro-6-(4-methylpiperazin-1-yl)benzo[b][1,4]benzodiazepin-11-yl]decanediamide

> <PUBCHEM_IUPAC_SYSTEMATIC_NAME>
N,N'-bis[3-chloranyl-6-(4-methylpiperazin-1-yl)benzo[b][1,4]benzodiazepin-11-yl]decanediamide

> <PUBCHEM_IUPAC_TRADITIONAL_NAME>
N,N'-bis[3-chloro-6-(4-methylpiperazino)benzo[b][1,4]benzodiazepin-11-yl]sebacamide

> <PUBCHEM_IUPAC_INCHI>
InChI=1S/C46H54Cl2N10O2/c1-53-23-27-55(28-24-53)45-35-13-9-11-15-39(35)57(41-21-19-33(47)31-37(41)49-45)51-43(59)17-7-5-3-4-6-8-18-44(60)52-58-40-16-12-10-14-36(40)46(56-29-25-54(2)26-30-56)50-38-32-34(48)20-22-42(38)58/h9-16,19-22,31-32H,3-8,17-18,23-30H2,1-2H3,(H,51,59)(H,52,60)

> <PUBCHEM_IUPAC_INCHIKEY>
IMQGRUDOQLCCRQ-UHFFFAOYSA-N

> <PUBCHEM_XLOGP3_AA>
8

> <PUBCHEM_EXACT_MASS>
848.3808264

> <PUBCHEM_MOLECULAR_FORMULA>
C46H54Cl2N10O2

> <PUBCHEM_MOLECULAR_WEIGHT>
849.9

> <PUBCHEM_OPENEYE_CAN_SMILES>
CN1CCN(CC1)C2=NC3=C(C=CC(=C3)Cl)N(C4=CC=CC=C42)NC(=O)CCCCCCCCC(=O)NN5C6=C(C=C(C=C6)Cl)N=C(C7=CC=CC=C75)N8CCN(CC8)C

> <PUBCHEM_OPENEYE_ISO_SMILES>
CN1CCN(CC1)C2=NC3=C(C=CC(=C3)Cl)N(C4=CC=CC=C42)NC(=O)CCCCCCCCC(=O)NN5C6=C(C=C(C=C6)Cl)N=C(C7=CC=CC=C75)N8CCN(CC8)C

> <PUBCHEM_CACTVS_TPSA>
102

> <PUBCHEM_MONOISOTOPIC_WEIGHT>
848.3808264

> <PUBCHEM_TOTAL_CHARGE>
0

> <PUBCHEM_HEAVY_ATOM_COUNT>
60

> <PUBCHEM_ATOM_DEF_STEREO_COUNT>
0

> <PUBCHEM_ATOM_UDEF_STEREO_COUNT>
0

> <PUBCHEM_BOND_DEF_STEREO_COUNT>
0

> <PUBCHEM_BOND_UDEF_STEREO_COUNT>
0

> <PUBCHEM_ISOTOPIC_ATOM_COUNT>
0

> <PUBCHEM_COMPONENT_COUNT>
1

> <PUBCHEM_CACTVS_TAUTO_COUNT>
-1

> <PUBCHEM_COORDINATE_TYPE>
1
5
255

> <PUBCHEM_BONDANNOTATIONS>
25  29  8
25  41  8
26  30  8
26  42  8
29  45  8
30  46  8
35  39  8
35  51  8
36  40  8
36  52  8
39  55  8
40  56  8
41  49  8
42  50  8
45  53  8
46  54  8
49  53  8
50  54  8
51  57  8
52  58  8
55  59  8
56  60  8
57  59  8
58  60  8

$$$$
