118711273
  -OEChem-09292322472D

 39 42  0     1  0  0  0  0  0999 V2000
    2.0000   -1.8689    0.0000 O   0  0  0  0  0  0  0  0  0  0  0  0
    5.1114    1.9106    0.0000 N   0  0  3  0  0  0  0  0  0  0  0  0
    3.3938   -2.6736    0.0000 N   0  0  0  0  0  0  0  0  0  0  0  0
    5.3796    0.1626    0.0000 C   0  0  3  0  0  0  0  0  0  0  0  0
    5.6649    1.1010    0.0000 C   0  0  0  0  0  0  0  0  0  0  0  0
    4.4691   -0.2018    0.0000 C   0  0  0  0  0  0  0  0  0  0  0  0
    3.6030    0.2982    0.0000 C   0  0  0  0  0  0  0  0  0  0  0  0
    3.4634    1.2690    0.0000 C   0  0  0  0  0  0  0  0  0  0  0  0
    4.1334    1.9853    0.0000 C   0  0  0  0  0  0  0  0  0  0  0  0
    6.1163   -0.5136    0.0000 C   0  0  0  0  0  0  0  0  0  0  0  0
    4.4691   -1.2018    0.0000 C   0  0  0  0  0  0  0  0  0  0  0  0
    2.7370   -0.2018    0.0000 C   0  0  0  0  0  0  0  0  0  0  0  0
    5.6114    2.7767    0.0000 C   0  0  0  0  0  0  0  0  0  0  0  0
    3.6030   -1.7018    0.0000 C   0  0  0  0  0  0  0  0  0  0  0  0
    2.7370   -1.2018    0.0000 C   0  0  0  0  0  0  0  0  0  0  0  0
    7.0703   -0.2137    0.0000 C   0  0  0  0  0  0  0  0  0  0  0  0
    5.8991   -1.4897    0.0000 C   0  0  0  0  0  0  0  0  0  0  0  0
    7.8070   -0.8899    0.0000 C   0  0  0  0  0  0  0  0  0  0  0  0
    6.6358   -2.1659    0.0000 C   0  0  0  0  0  0  0  0  0  0  0  0
    7.5897   -1.8660    0.0000 C   0  0  0  0  0  0  0  0  0  0  0  0
    2.4051   -2.7767    0.0000 C   0  0  0  0  0  0  0  0  0  0  0  0
    5.9777    0.3259    0.0000 H   0  0  0  0  0  0  0  0  0  0  0  0
    6.2028    0.7927    0.0000 H   0  0  0  0  0  0  0  0  0  0  0  0
    6.0856    1.5565    0.0000 H   0  0  0  0  0  0  0  0  0  0  0  0
    3.1167    1.7830    0.0000 H   0  0  0  0  0  0  0  0  0  0  0  0
    2.8849    1.0458    0.0000 H   0  0  0  0  0  0  0  0  0  0  0  0
    4.3175    2.5773    0.0000 H   0  0  0  0  0  0  0  0  0  0  0  0
    3.5974    2.2970    0.0000 H   0  0  0  0  0  0  0  0  0  0  0  0
    5.0060   -1.5118    0.0000 H   0  0  0  0  0  0  0  0  0  0  0  0
    2.2001    0.1082    0.0000 H   0  0  0  0  0  0  0  0  0  0  0  0
    6.1483    2.4667    0.0000 H   0  0  0  0  0  0  0  0  0  0  0  0
    5.9214    3.3136    0.0000 H   0  0  0  0  0  0  0  0  0  0  0  0
    5.0744    3.0867    0.0000 H   0  0  0  0  0  0  0  0  0  0  0  0
    7.2050    0.3915    0.0000 H   0  0  0  0  0  0  0  0  0  0  0  0
    5.3076   -1.6756    0.0000 H   0  0  0  0  0  0  0  0  0  0  0  0
    8.3985   -0.7040    0.0000 H   0  0  0  0  0  0  0  0  0  0  0  0
    6.5011   -2.7711    0.0000 H   0  0  0  0  0  0  0  0  0  0  0  0
    8.0465   -2.2853    0.0000 H   0  0  0  0  0  0  0  0  0  0  0  0
    2.0951   -3.3136    0.0000 H   0  0  0  0  0  0  0  0  0  0  0  0
  1 15  1  0  0  0  0
  1 21  1  0  0  0  0
  2  5  1  0  0  0  0
  2  9  1  0  0  0  0
  2 13  1  0  0  0  0
  3 14  1  0  0  0  0
  3 21  2  0  0  0  0
  4  5  1  0  0  0  0
  4  6  1  0  0  0  0
  4 10  1  0  0  0  0
  4 22  1  0  0  0  0
  5 23  1  0  0  0  0
  5 24  1  0  0  0  0
  6  7  1  0  0  0  0
  6 11  2  0  0  0  0
  7  8  1  0  0  0  0
  7 12  2  0  0  0  0
  8  9  1  0  0  0  0
  8 25  1  0  0  0  0
  8 26  1  0  0  0  0
  9 27  1  0  0  0  0
  9 28  1  0  0  0  0
 10 16  2  0  0  0  0
 10 17  1  0  0  0  0
 11 14  1  0  0  0  0
 11 29  1  0  0  0  0
 12 15  1  0  0  0  0
 12 30  1  0  0  0  0
 13 31  1  0  0  0  0
 13 32  1  0  0  0  0
 13 33  1  0  0  0  0
 14 15  2  0  0  0  0
 16 18  1  0  0  0  0
 16 34  1  0  0  0  0
 17 19  2  0  0  0  0
 17 35  1  0  0  0  0
 18 20  2  0  0  0  0
 18 36  1  0  0  0  0
 19 20  1  0  0  0  0
 19 37  1  0  0  0  0
 20 38  1  0  0  0  0
 21 39  1  0  0  0  0
M  END
> <PUBCHEM_COMPOUND_CID>
118711273

> <PUBCHEM_COMPOUND_CANONICALIZED>
1

> <PUBCHEM_CACTVS_COMPLEXITY>
355

> <PUBCHEM_CACTVS_HBOND_ACCEPTOR>
3

> <PUBCHEM_CACTVS_HBOND_DONOR>
0

> <PUBCHEM_CACTVS_ROTATABLE_BOND>
1

> <PUBCHEM_CACTVS_SUBSKEYS>
AAADceB7IAAAAAAAAAAAAAAAAAAAAWAAAAAwYAAABYAAAFgB9AAAHgAAAAAADQzBngY2xrMIFECoA6Rz1ASCiCA/YiAI2CG/bNgOJrLEtbuNMShkxBHY6YeY2fKOqAABQAAQEABQAAKAACAgAAAAAAAAAA==

> <PUBCHEM_IUPAC_OPENEYE_NAME>
7-methyl-5-phenyl-5,6,8,9-tetrahydrooxazolo[5,4-h][3]benzazepine

> <PUBCHEM_IUPAC_CAS_NAME>
7-methyl-5-phenyl-5,6,8,9-tetrahydrooxazolo[5,4-h][3]benzazepine

> <PUBCHEM_IUPAC_NAME_MARKUP>
7-methyl-5-phenyl-5,6,8,9-tetrahydro-[1,3]oxazolo[5,4-h][3]benzazepine

> <PUBCHEM_IUPAC_NAME>
7-methyl-5-phenyl-5,6,8,9-tetrahydro-[1,3]oxazolo[5,4-h][3]benzazepine

> <PUBCHEM_IUPAC_SYSTEMATIC_NAME>
7-methyl-5-phenyl-5,6,8,9-tetrahydro-[1,3]oxazolo[5,4-h][3]benzazepine

> <PUBCHEM_IUPAC_TRADITIONAL_NAME>
7-methyl-5-phenyl-5,6,8,9-tetrahydrooxazolo[5,4-h][3]benzazepine

> <PUBCHEM_IUPAC_INCHI>
InChI=1S/C18H18N2O/c1-20-8-7-14-9-18-17(19-12-21-18)10-15(14)16(11-20)13-5-3-2-4-6-13/h2-6,9-10,12,16H,7-8,11H2,1H3

> <PUBCHEM_IUPAC_INCHIKEY>
OBHRXPIOBQKIDU-UHFFFAOYSA-N

> <PUBCHEM_XLOGP3_AA>
3.5

> <PUBCHEM_EXACT_MASS>
278.141913202

> <PUBCHEM_MOLECULAR_FORMULA>
C18H18N2O

> <PUBCHEM_MOLECULAR_WEIGHT>
278.3

> <PUBCHEM_OPENEYE_CAN_SMILES>
CN1CCC2=CC3=C(C=C2C(C1)C4=CC=CC=C4)N=CO3

> <PUBCHEM_OPENEYE_ISO_SMILES>
CN1CCC2=CC3=C(C=C2C(C1)C4=CC=CC=C4)N=CO3

> <PUBCHEM_CACTVS_TPSA>
29.3

> <PUBCHEM_MONOISOTOPIC_WEIGHT>
278.141913202

> <PUBCHEM_TOTAL_CHARGE>
0

> <PUBCHEM_HEAVY_ATOM_COUNT>
21

> <PUBCHEM_ATOM_DEF_STEREO_COUNT>
0

> <PUBCHEM_ATOM_UDEF_STEREO_COUNT>
1

> <PUBCHEM_BOND_DEF_STEREO_COUNT>
0

> <PUBCHEM_BOND_UDEF_STEREO_COUNT>
0

> <PUBCHEM_ISOTOPIC_ATOM_COUNT>
0

> <PUBCHEM_COMPONENT_COUNT>
1

> <PUBCHEM_CACTVS_TAUTO_COUNT>
-1

> <PUBCHEM_COORDINATE_TYPE>
1
5
255

> <PUBCHEM_BONDANNOTATIONS>
1  15  8
1  21  8
10  16  8
10  17  8
11  14  8
12  15  8
14  15  8
16  18  8
17  19  8
18  20  8
19  20  8
3  14  8
3  21  8
4  10  3
6  11  8
6  7  8
7  12  8

$$$$
