52919
  -OEChem-09292322352D

 78 80  0     0  0  0  0  0  0999 V2000
   12.0000    5.3660    0.0000 Cl  0  0  0  0  0  0  0  0  0  0  0  0
    8.2680   -7.0981    0.0000 F   0  0  0  0  0  0  0  0  0  0  0  0
    9.5000    2.7680    0.0000 O   0  0  0  0  0  0  0  0  0  0  0  0
    8.0000    1.9019    0.0000 O   0  0  0  0  0  0  0  0  0  0  0  0
    7.4019   -2.5981    0.0000 O   0  0  0  0  0  0  0  0  0  0  0  0
   10.0000   -0.0981    0.0000 N   0  0  0  0  0  0  0  0  0  0  0  0
   10.0000    1.9019    0.0000 C   0  0  0  0  0  0  0  0  0  0  0  0
   10.8660    1.4019    0.0000 C   0  0  0  0  0  0  0  0  0  0  0  0
    9.1340    1.4019    0.0000 C   0  0  0  0  0  0  0  0  0  0  0  0
   10.8660    0.4019    0.0000 C   0  0  0  0  0  0  0  0  0  0  0  0
    9.1340    0.4019    0.0000 C   0  0  0  0  0  0  0  0  0  0  0  0
   10.5000    2.7680    0.0000 C   0  0  0  0  0  0  0  0  0  0  0  0
   10.0000   -1.0981    0.0000 C   0  0  0  0  0  0  0  0  0  0  0  0
    9.1340   -1.5981    0.0000 C   0  0  0  0  0  0  0  0  0  0  0  0
   11.5000    2.7680    0.0000 C   0  0  0  0  0  0  0  0  0  0  0  0
   10.0000    3.6340    0.0000 C   0  0  0  0  0  0  0  0  0  0  0  0
    8.5000    2.7680    0.0000 C   0  0  0  0  0  0  0  0  0  0  0  0
    9.1340   -2.5981    0.0000 C   0  0  0  0  0  0  0  0  0  0  0  0
    8.0000    3.6340    0.0000 C   0  0  0  0  0  0  0  0  0  0  0  0
    7.0000    3.6340    0.0000 C   0  0  0  0  0  0  0  0  0  0  0  0
   12.0000    3.6340    0.0000 C   0  0  0  0  0  0  0  0  0  0  0  0
   10.5000    4.5000    0.0000 C   0  0  0  0  0  0  0  0  0  0  0  0
    6.5000    4.5000    0.0000 C   0  0  0  0  0  0  0  0  0  0  0  0
   11.5000    4.5000    0.0000 C   0  0  0  0  0  0  0  0  0  0  0  0
    5.5000    4.5000    0.0000 C   0  0  0  0  0  0  0  0  0  0  0  0
    8.2680   -3.0981    0.0000 C   0  0  0  0  0  0  0  0  0  0  0  0
    5.0000    5.3660    0.0000 C   0  0  0  0  0  0  0  0  0  0  0  0
    4.0000    5.3660    0.0000 C   0  0  0  0  0  0  0  0  0  0  0  0
    3.5000    6.2320    0.0000 C   0  0  0  0  0  0  0  0  0  0  0  0
    8.2680   -4.0981    0.0000 C   0  0  0  0  0  0  0  0  0  0  0  0
    2.5000    6.2320    0.0000 C   0  0  0  0  0  0  0  0  0  0  0  0
    9.1340   -4.5981    0.0000 C   0  0  0  0  0  0  0  0  0  0  0  0
    7.4019   -4.5981    0.0000 C   0  0  0  0  0  0  0  0  0  0  0  0
    2.0000    7.0981    0.0000 C   0  0  0  0  0  0  0  0  0  0  0  0
    9.1340   -5.5981    0.0000 C   0  0  0  0  0  0  0  0  0  0  0  0
    7.4019   -5.5981    0.0000 C   0  0  0  0  0  0  0  0  0  0  0  0
    8.2680   -6.0981    0.0000 C   0  0  0  0  0  0  0  0  0  0  0  0
   11.4766    1.2943    0.0000 H   0  0  0  0  0  0  0  0  0  0  0  0
   11.0781    1.9845    0.0000 H   0  0  0  0  0  0  0  0  0  0  0  0
    8.9219    1.9845    0.0000 H   0  0  0  0  0  0  0  0  0  0  0  0
    8.5234    1.2943    0.0000 H   0  0  0  0  0  0  0  0  0  0  0  0
   11.0781   -0.1807    0.0000 H   0  0  0  0  0  0  0  0  0  0  0  0
   11.4766    0.5096    0.0000 H   0  0  0  0  0  0  0  0  0  0  0  0
    8.5234    0.5096    0.0000 H   0  0  0  0  0  0  0  0  0  0  0  0
    8.9219   -0.1807    0.0000 H   0  0  0  0  0  0  0  0  0  0  0  0
   10.2121   -1.6807    0.0000 H   0  0  0  0  0  0  0  0  0  0  0  0
   10.6106   -0.9904    0.0000 H   0  0  0  0  0  0  0  0  0  0  0  0
    8.9219   -1.0155    0.0000 H   0  0  0  0  0  0  0  0  0  0  0  0
    8.5234   -1.7057    0.0000 H   0  0  0  0  0  0  0  0  0  0  0  0
   11.8100    2.2310    0.0000 H   0  0  0  0  0  0  0  0  0  0  0  0
    9.3800    3.6340    0.0000 H   0  0  0  0  0  0  0  0  0  0  0  0
    9.3460   -3.1807    0.0000 H   0  0  0  0  0  0  0  0  0  0  0  0
    9.7446   -2.4904    0.0000 H   0  0  0  0  0  0  0  0  0  0  0  0
    8.5826    3.8460    0.0000 H   0  0  0  0  0  0  0  0  0  0  0  0
    7.8923    4.2446    0.0000 H   0  0  0  0  0  0  0  0  0  0  0  0
    6.4174    3.4219    0.0000 H   0  0  0  0  0  0  0  0  0  0  0  0
    7.1077    3.0234    0.0000 H   0  0  0  0  0  0  0  0  0  0  0  0
   12.6200    3.6340    0.0000 H   0  0  0  0  0  0  0  0  0  0  0  0
   10.1900    5.0369    0.0000 H   0  0  0  0  0  0  0  0  0  0  0  0
    7.0826    4.7120    0.0000 H   0  0  0  0  0  0  0  0  0  0  0  0
    6.3923    5.1106    0.0000 H   0  0  0  0  0  0  0  0  0  0  0  0
    4.9174    4.2880    0.0000 H   0  0  0  0  0  0  0  0  0  0  0  0
    5.6077    3.8894    0.0000 H   0  0  0  0  0  0  0  0  0  0  0  0
    5.5826    5.5781    0.0000 H   0  0  0  0  0  0  0  0  0  0  0  0
    4.8923    5.9766    0.0000 H   0  0  0  0  0  0  0  0  0  0  0  0
    3.4174    5.1540    0.0000 H   0  0  0  0  0  0  0  0  0  0  0  0
    4.1077    4.7554    0.0000 H   0  0  0  0  0  0  0  0  0  0  0  0
    4.0826    6.4441    0.0000 H   0  0  0  0  0  0  0  0  0  0  0  0
    3.3923    6.8426    0.0000 H   0  0  0  0  0  0  0  0  0  0  0  0
    1.9174    6.0200    0.0000 H   0  0  0  0  0  0  0  0  0  0  0  0
    2.6077    5.6215    0.0000 H   0  0  0  0  0  0  0  0  0  0  0  0
    9.6709   -4.2881    0.0000 H   0  0  0  0  0  0  0  0  0  0  0  0
    6.8650   -4.2881    0.0000 H   0  0  0  0  0  0  0  0  0  0  0  0
    2.5369    7.4081    0.0000 H   0  0  0  0  0  0  0  0  0  0  0  0
    1.6900    7.6350    0.0000 H   0  0  0  0  0  0  0  0  0  0  0  0
    1.4631    6.7881    0.0000 H   0  0  0  0  0  0  0  0  0  0  0  0
    9.6709   -5.9081    0.0000 H   0  0  0  0  0  0  0  0  0  0  0  0
    6.8650   -5.9081    0.0000 H   0  0  0  0  0  0  0  0  0  0  0  0
  1 24  1  0  0  0  0
  2 37  1  0  0  0  0
  3  7  1  0  0  0  0
  3 17  1  0  0  0  0
  4 17  2  0  0  0  0
  5 26  2  0  0  0  0
  6 10  1  0  0  0  0
  6 11  1  0  0  0  0
  6 13  1  0  0  0  0
  7  8  1  0  0  0  0
  7  9  1  0  0  0  0
  7 12  1  0  0  0  0
  8 10  1  0  0  0  0
  8 38  1  0  0  0  0
  8 39  1  0  0  0  0
  9 11  1  0  0  0  0
  9 40  1  0  0  0  0
  9 41  1  0  0  0  0
 10 42  1  0  0  0  0
 10 43  1  0  0  0  0
 11 44  1  0  0  0  0
 11 45  1  0  0  0  0
 12 15  2  0  0  0  0
 12 16  1  0  0  0  0
 13 14  1  0  0  0  0
 13 46  1  0  0  0  0
 13 47  1  0  0  0  0
 14 18  1  0  0  0  0
 14 48  1  0  0  0  0
 14 49  1  0  0  0  0
 15 21  1  0  0  0  0
 15 50  1  0  0  0  0
 16 22  2  0  0  0  0
 16 51  1  0  0  0  0
 17 19  1  0  0  0  0
 18 26  1  0  0  0  0
 18 52  1  0  0  0  0
 18 53  1  0  0  0  0
 19 20  1  0  0  0  0
 19 54  1  0  0  0  0
 19 55  1  0  0  0  0
 20 23  1  0  0  0  0
 20 56  1  0  0  0  0
 20 57  1  0  0  0  0
 21 24  2  0  0  0  0
 21 58  1  0  0  0  0
 22 24  1  0  0  0  0
 22 59  1  0  0  0  0
 23 25  1  0  0  0  0
 23 60  1  0  0  0  0
 23 61  1  0  0  0  0
 25 27  1  0  0  0  0
 25 62  1  0  0  0  0
 25 63  1  0  0  0  0
 26 30  1  0  0  0  0
 27 28  1  0  0  0  0
 27 64  1  0  0  0  0
 27 65  1  0  0  0  0
 28 29  1  0  0  0  0
 28 66  1  0  0  0  0
 28 67  1  0  0  0  0
 29 31  1  0  0  0  0
 29 68  1  0  0  0  0
 29 69  1  0  0  0  0
 30 32  2  0  0  0  0
 30 33  1  0  0  0  0
 31 34  1  0  0  0  0
 31 70  1  0  0  0  0
 31 71  1  0  0  0  0
 32 35  1  0  0  0  0
 32 72  1  0  0  0  0
 33 36  2  0  0  0  0
 33 73  1  0  0  0  0
 34 74  1  0  0  0  0
 34 75  1  0  0  0  0
 34 76  1  0  0  0  0
 35 37  2  0  0  0  0
 35 77  1  0  0  0  0
 36 37  1  0  0  0  0
 36 78  1  0  0  0  0
M  END
> <PUBCHEM_COMPOUND_CID>
52919

> <PUBCHEM_COMPOUND_CANONICALIZED>
1

> <PUBCHEM_CACTVS_COMPLEXITY>
665

> <PUBCHEM_CACTVS_HBOND_ACCEPTOR>
5

> <PUBCHEM_CACTVS_HBOND_DONOR>
0

> <PUBCHEM_CACTVS_ROTATABLE_BOND>
16

> <PUBCHEM_CACTVS_SUBSKEYS>
AAADcfB6MQAEAAAAAAAAAAAAAAAAAAAAAAA8YIAAAAAAAAABQAAAHwIAAAAADEbBmCwyCIMABACIAqDSCAACAAAkBQAIiAEICsgIJjKBtxiGMQAmwAGIqYecyOCOhAAAAAAAAAAIAAAAAAAAAAAAAAAAAA==

> <PUBCHEM_IUPAC_OPENEYE_NAME>
[4-(4-chlorophenyl)-1-[4-(4-fluorophenyl)-4-oxo-butyl]-4-piperidyl] decanoate

> <PUBCHEM_IUPAC_CAS_NAME>
decanoic acid [4-(4-chlorophenyl)-1-[4-(4-fluorophenyl)-4-oxobutyl]-4-piperidinyl] ester

> <PUBCHEM_IUPAC_NAME_MARKUP>
[4-(4-chlorophenyl)-1-[4-(4-fluorophenyl)-4-oxobutyl]piperidin-4-yl] decanoate

> <PUBCHEM_IUPAC_NAME>
[4-(4-chlorophenyl)-1-[4-(4-fluorophenyl)-4-oxobutyl]piperidin-4-yl] decanoate

> <PUBCHEM_IUPAC_SYSTEMATIC_NAME>
[4-(4-chlorophenyl)-1-[4-(4-fluorophenyl)-4-oxidanylidene-butyl]piperidin-4-yl] decanoate

> <PUBCHEM_IUPAC_TRADITIONAL_NAME>
capric acid [4-(4-chlorophenyl)-1-[4-(4-fluorophenyl)-4-keto-butyl]-4-piperidyl] ester

> <PUBCHEM_IUPAC_INCHI>
InChI=1S/C31H41ClFNO3/c1-2-3-4-5-6-7-8-11-30(36)37-31(26-14-16-27(32)17-15-26)20-23-34(24-21-31)22-9-10-29(35)25-12-18-28(33)19-13-25/h12-19H,2-11,20-24H2,1H3

> <PUBCHEM_IUPAC_INCHIKEY>
GUTXTARXLVFHDK-UHFFFAOYSA-N

> <PUBCHEM_XLOGP3>
7.9

> <PUBCHEM_EXACT_MASS>
529.2759000

> <PUBCHEM_MOLECULAR_FORMULA>
C31H41ClFNO3

> <PUBCHEM_MOLECULAR_WEIGHT>
530.1

> <PUBCHEM_OPENEYE_CAN_SMILES>
CCCCCCCCCC(=O)OC1(CCN(CC1)CCCC(=O)C2=CC=C(C=C2)F)C3=CC=C(C=C3)Cl

> <PUBCHEM_OPENEYE_ISO_SMILES>
CCCCCCCCCC(=O)OC1(CCN(CC1)CCCC(=O)C2=CC=C(C=C2)F)C3=CC=C(C=C3)Cl

> <PUBCHEM_CACTVS_TPSA>
46.6

> <PUBCHEM_MONOISOTOPIC_WEIGHT>
529.2759000

> <PUBCHEM_TOTAL_CHARGE>
0

> <PUBCHEM_HEAVY_ATOM_COUNT>
37

> <PUBCHEM_ATOM_DEF_STEREO_COUNT>
0

> <PUBCHEM_ATOM_UDEF_STEREO_COUNT>
0

> <PUBCHEM_BOND_DEF_STEREO_COUNT>
0

> <PUBCHEM_BOND_UDEF_STEREO_COUNT>
0

> <PUBCHEM_ISOTOPIC_ATOM_COUNT>
0

> <PUBCHEM_COMPONENT_COUNT>
1

> <PUBCHEM_CACTVS_TAUTO_COUNT>
-1

> <PUBCHEM_COORDINATE_TYPE>
1
5
255

> <PUBCHEM_BONDANNOTATIONS>
12  15  8
12  16  8
15  21  8
16  22  8
21  24  8
22  24  8
30  32  8
30  33  8
32  35  8
33  36  8
35  37  8
36  37  8

$$$$
