44273882
  -OEChem-09292322202D

 57 58  0     0  0  0  0  0  0999 V2000
    6.5981    5.7500    0.0000 F   0  0  0  0  0  0  0  0  0  0  0  0
    5.5981    6.7500    0.0000 F   0  0  0  0  0  0  0  0  0  0  0  0
    4.5981    5.7500    0.0000 F   0  0  0  0  0  0  0  0  0  0  0  0
    2.1340   -4.2500    0.0000 O   0  0  0  0  0  0  0  0  0  0  0  0
    5.5981   -0.2500    0.0000 N   0  0  0  0  0  0  0  0  0  0  0  0
    5.5981    1.7500    0.0000 N   0  0  0  0  0  0  0  0  0  0  0  0
    3.8660   -4.2500    0.0000 N   0  0  0  0  0  0  0  0  0  0  0  0
    6.4641    0.2500    0.0000 C   0  0  0  0  0  0  0  0  0  0  0  0
    4.7320    0.2500    0.0000 C   0  0  0  0  0  0  0  0  0  0  0  0
    6.4641    1.2500    0.0000 C   0  0  0  0  0  0  0  0  0  0  0  0
    4.7320    1.2500    0.0000 C   0  0  0  0  0  0  0  0  0  0  0  0
    5.5981   -1.2500    0.0000 C   0  0  0  0  0  0  0  0  0  0  0  0
    4.7320   -1.7500    0.0000 C   0  0  0  0  0  0  0  0  0  0  0  0
    4.7320   -2.7500    0.0000 C   0  0  0  0  0  0  0  0  0  0  0  0
    5.5981    2.7500    0.0000 C   0  0  0  0  0  0  0  0  0  0  0  0
    3.8660   -3.2500    0.0000 C   0  0  0  0  0  0  0  0  0  0  0  0
    3.0000   -5.7500    0.0000 C   0  0  0  0  0  0  0  0  0  0  0  0
    6.4641    3.2500    0.0000 C   0  0  0  0  0  0  0  0  0  0  0  0
    4.7320    3.2500    0.0000 C   0  0  0  0  0  0  0  0  0  0  0  0
    3.0000   -4.7500    0.0000 C   0  0  0  0  0  0  0  0  0  0  0  0
    3.0000   -6.7500    0.0000 C   0  0  0  0  0  0  0  0  0  0  0  0
    2.0000   -5.7500    0.0000 C   0  0  0  0  0  0  0  0  0  0  0  0
    4.0000   -5.7500    0.0000 C   0  0  0  0  0  0  0  0  0  0  0  0
    6.4641    4.2500    0.0000 C   0  0  0  0  0  0  0  0  0  0  0  0
    4.7320    4.2500    0.0000 C   0  0  0  0  0  0  0  0  0  0  0  0
    5.5981    4.7500    0.0000 C   0  0  0  0  0  0  0  0  0  0  0  0
    5.5981    5.7500    0.0000 C   0  0  0  0  0  0  0  0  0  0  0  0
    6.6762   -0.3326    0.0000 H   0  0  0  0  0  0  0  0  0  0  0  0
    7.0747    0.3577    0.0000 H   0  0  0  0  0  0  0  0  0  0  0  0
    4.1215    0.3577    0.0000 H   0  0  0  0  0  0  0  0  0  0  0  0
    4.5200   -0.3326    0.0000 H   0  0  0  0  0  0  0  0  0  0  0  0
    7.0747    1.1423    0.0000 H   0  0  0  0  0  0  0  0  0  0  0  0
    6.6762    1.8326    0.0000 H   0  0  0  0  0  0  0  0  0  0  0  0
    4.5200    1.8326    0.0000 H   0  0  0  0  0  0  0  0  0  0  0  0
    4.1215    1.1423    0.0000 H   0  0  0  0  0  0  0  0  0  0  0  0
    5.8101   -1.8326    0.0000 H   0  0  0  0  0  0  0  0  0  0  0  0
    6.2087   -1.1423    0.0000 H   0  0  0  0  0  0  0  0  0  0  0  0
    4.5200   -1.1674    0.0000 H   0  0  0  0  0  0  0  0  0  0  0  0
    4.1215   -1.8577    0.0000 H   0  0  0  0  0  0  0  0  0  0  0  0
    4.9441   -3.3326    0.0000 H   0  0  0  0  0  0  0  0  0  0  0  0
    5.3426   -2.6423    0.0000 H   0  0  0  0  0  0  0  0  0  0  0  0
    3.6540   -2.6674    0.0000 H   0  0  0  0  0  0  0  0  0  0  0  0
    3.2554   -3.3577    0.0000 H   0  0  0  0  0  0  0  0  0  0  0  0
    4.4030   -4.5600    0.0000 H   0  0  0  0  0  0  0  0  0  0  0  0
    7.0010    2.9400    0.0000 H   0  0  0  0  0  0  0  0  0  0  0  0
    4.1951    2.9400    0.0000 H   0  0  0  0  0  0  0  0  0  0  0  0
    2.3800   -6.7500    0.0000 H   0  0  0  0  0  0  0  0  0  0  0  0
    3.0000   -7.3700    0.0000 H   0  0  0  0  0  0  0  0  0  0  0  0
    3.6200   -6.7500    0.0000 H   0  0  0  0  0  0  0  0  0  0  0  0
    2.0000   -5.1300    0.0000 H   0  0  0  0  0  0  0  0  0  0  0  0
    1.3800   -5.7500    0.0000 H   0  0  0  0  0  0  0  0  0  0  0  0
    2.0000   -6.3700    0.0000 H   0  0  0  0  0  0  0  0  0  0  0  0
    4.0000   -6.3700    0.0000 H   0  0  0  0  0  0  0  0  0  0  0  0
    4.6200   -5.7500    0.0000 H   0  0  0  0  0  0  0  0  0  0  0  0
    4.0000   -5.1300    0.0000 H   0  0  0  0  0  0  0  0  0  0  0  0
    7.0010    4.5600    0.0000 H   0  0  0  0  0  0  0  0  0  0  0  0
    4.1951    4.5600    0.0000 H   0  0  0  0  0  0  0  0  0  0  0  0
  1 27  1  0  0  0  0
  2 27  1  0  0  0  0
  3 27  1  0  0  0  0
  4 20  2  0  0  0  0
  5  8  1  0  0  0  0
  5  9  1  0  0  0  0
  5 12  1  0  0  0  0
  6 10  1  0  0  0  0
  6 11  1  0  0  0  0
  6 15  1  0  0  0  0
  7 16  1  0  0  0  0
  7 20  1  0  0  0  0
  7 44  1  0  0  0  0
  8 10  1  0  0  0  0
  8 28  1  0  0  0  0
  8 29  1  0  0  0  0
  9 11  1  0  0  0  0
  9 30  1  0  0  0  0
  9 31  1  0  0  0  0
 10 32  1  0  0  0  0
 10 33  1  0  0  0  0
 11 34  1  0  0  0  0
 11 35  1  0  0  0  0
 12 13  1  0  0  0  0
 12 36  1  0  0  0  0
 12 37  1  0  0  0  0
 13 14  1  0  0  0  0
 13 38  1  0  0  0  0
 13 39  1  0  0  0  0
 14 16  1  0  0  0  0
 14 40  1  0  0  0  0
 14 41  1  0  0  0  0
 15 18  2  0  0  0  0
 15 19  1  0  0  0  0
 16 42  1  0  0  0  0
 16 43  1  0  0  0  0
 17 20  1  0  0  0  0
 17 21  1  0  0  0  0
 17 22  1  0  0  0  0
 17 23  1  0  0  0  0
 18 24  1  0  0  0  0
 18 45  1  0  0  0  0
 19 25  2  0  0  0  0
 19 46  1  0  0  0  0
 21 47  1  0  0  0  0
 21 48  1  0  0  0  0
 21 49  1  0  0  0  0
 22 50  1  0  0  0  0
 22 51  1  0  0  0  0
 22 52  1  0  0  0  0
 23 53  1  0  0  0  0
 23 54  1  0  0  0  0
 23 55  1  0  0  0  0
 24 26  2  0  0  0  0
 24 56  1  0  0  0  0
 25 26  1  0  0  0  0
 25 57  1  0  0  0  0
 26 27  1  0  0  0  0
M  END
> <PUBCHEM_COMPOUND_CID>
44273882

> <PUBCHEM_COMPOUND_CANONICALIZED>
1

> <PUBCHEM_CACTVS_COMPLEXITY>
460

> <PUBCHEM_CACTVS_HBOND_ACCEPTOR>
6

> <PUBCHEM_CACTVS_HBOND_DONOR>
1

> <PUBCHEM_CACTVS_ROTATABLE_BOND>
7

> <PUBCHEM_CACTVS_SUBSKEYS>
AAADceB7IYAAAAAAAAAAAAAAAAAAAAAAAAA8QAAAAAAAAAABAAAAHwAQAAAADgjBmBQywIPAAACIAiVSUACCAAAhAgAIiIEIZIgIYCLAkZGUIAhglgDIyAcQgAAOCAAAAAAAAAAQAAAAAAAAAAAAAAAAAA==

> <PUBCHEM_IUPAC_OPENEYE_NAME>
2,2-dimethyl-N-[4-[4-[4-(trifluoromethyl)phenyl]piperazin-1-yl]butyl]propanamide

> <PUBCHEM_IUPAC_CAS_NAME>
2,2-dimethyl-N-[4-[4-[4-(trifluoromethyl)phenyl]-1-piperazinyl]butyl]propanamide

> <PUBCHEM_IUPAC_NAME_MARKUP>
2,2-dimethyl-<I>N</I>-[4-[4-[4-(trifluoromethyl)phenyl]piperazin-1-yl]butyl]propanamide

> <PUBCHEM_IUPAC_NAME>
2,2-dimethyl-N-[4-[4-[4-(trifluoromethyl)phenyl]piperazin-1-yl]butyl]propanamide

> <PUBCHEM_IUPAC_SYSTEMATIC_NAME>
2,2-dimethyl-N-[4-[4-[4-(trifluoromethyl)phenyl]piperazin-1-yl]butyl]propanamide

> <PUBCHEM_IUPAC_TRADITIONAL_NAME>
2,2-dimethyl-N-[4-[4-[4-(trifluoromethyl)phenyl]piperazino]butyl]propionamide

> <PUBCHEM_IUPAC_INCHI>
InChI=1S/C20H30F3N3O/c1-19(2,3)18(27)24-10-4-5-11-25-12-14-26(15-13-25)17-8-6-16(7-9-17)20(21,22)23/h6-9H,4-5,10-15H2,1-3H3,(H,24,27)

> <PUBCHEM_IUPAC_INCHIKEY>
RPFWNZCMXJFXJR-UHFFFAOYSA-N

> <PUBCHEM_XLOGP3_AA>
4.2

> <PUBCHEM_EXACT_MASS>
385.23409708

> <PUBCHEM_MOLECULAR_FORMULA>
C20H30F3N3O

> <PUBCHEM_MOLECULAR_WEIGHT>
385.5

> <PUBCHEM_OPENEYE_CAN_SMILES>
CC(C)(C)C(=O)NCCCCN1CCN(CC1)C2=CC=C(C=C2)C(F)(F)F

> <PUBCHEM_OPENEYE_ISO_SMILES>
CC(C)(C)C(=O)NCCCCN1CCN(CC1)C2=CC=C(C=C2)C(F)(F)F

> <PUBCHEM_CACTVS_TPSA>
35.6

> <PUBCHEM_MONOISOTOPIC_WEIGHT>
385.23409708

> <PUBCHEM_TOTAL_CHARGE>
0

> <PUBCHEM_HEAVY_ATOM_COUNT>
27

> <PUBCHEM_ATOM_DEF_STEREO_COUNT>
0

> <PUBCHEM_ATOM_UDEF_STEREO_COUNT>
0

> <PUBCHEM_BOND_DEF_STEREO_COUNT>
0

> <PUBCHEM_BOND_UDEF_STEREO_COUNT>
0

> <PUBCHEM_ISOTOPIC_ATOM_COUNT>
0

> <PUBCHEM_COMPONENT_COUNT>
1

> <PUBCHEM_CACTVS_TAUTO_COUNT>
-1

> <PUBCHEM_COORDINATE_TYPE>
1
5
255

> <PUBCHEM_BONDANNOTATIONS>
15  18  8
15  19  8
18  24  8
19  25  8
24  26  8
25  26  8

$$$$
