132153502
  -OEChem-09292322442D

 61 65  0     1  0  0  0  0  0999 V2000
    3.9538    1.2511    0.0000 S   0  0  0  0  0  0  0  0  0  0  0  0
    2.8660    6.5989    0.0000 O   0  0  0  0  0  0  0  0  0  0  0  0
    4.3159   -2.1941    0.0000 N   0  0  3  0  0  0  0  0  0  0  0  0
    3.6750    3.0111    0.0000 N   0  0  0  0  0  0  0  0  0  0  0  0
    2.3660    2.0601    0.0000 N   0  0  0  0  0  0  0  0  0  0  0  0
    2.0570    3.0111    0.0000 N   0  0  0  0  0  0  0  0  0  0  0  0
    4.8159   -3.7329    0.0000 C   0  0  2  0  0  0  0  0  0  0  0  0
    5.3159   -4.5989    0.0000 C   0  0  3  0  0  0  0  0  0  0  0  0
    4.3159   -4.5989    0.0000 C   0  0  0  0  0  0  0  0  0  0  0  0
    5.6249   -3.1451    0.0000 C   0  0  0  0  0  0  0  0  0  0  0  0
    4.0069   -3.1451    0.0000 C   0  0  0  0  0  0  0  0  0  0  0  0
    5.3159   -2.1941    0.0000 C   0  0  0  0  0  0  0  0  0  0  0  0
    6.1819   -5.0989    0.0000 C   0  0  0  0  0  0  0  0  0  0  0  0
    3.7281   -1.3850    0.0000 C   0  0  0  0  0  0  0  0  0  0  0  0
    7.0480   -4.5989    0.0000 C   0  0  0  0  0  0  0  0  0  0  0  0
    6.1819   -6.0989    0.0000 C   0  0  0  0  0  0  0  0  0  0  0  0
    4.1349   -0.4715    0.0000 C   0  0  0  0  0  0  0  0  0  0  0  0
    7.9140   -5.0989    0.0000 C   0  0  0  0  0  0  0  0  0  0  0  0
    7.0480   -6.5989    0.0000 C   0  0  0  0  0  0  0  0  0  0  0  0
    3.5471    0.3375    0.0000 C   0  0  0  0  0  0  0  0  0  0  0  0
    7.9140   -6.0989    0.0000 C   0  0  0  0  0  0  0  0  0  0  0  0
    2.8660    4.5989    0.0000 C   0  0  0  0  0  0  0  0  0  0  0  0
    3.3660    2.0601    0.0000 C   0  0  0  0  0  0  0  0  0  0  0  0
    3.7320    5.0989    0.0000 C   0  0  0  0  0  0  0  0  0  0  0  0
    2.0000    5.0989    0.0000 C   0  0  0  0  0  0  0  0  0  0  0  0
    2.8660    3.5989    0.0000 C   0  0  0  0  0  0  0  0  0  0  0  0
    3.7320    6.0989    0.0000 C   0  0  0  0  0  0  0  0  0  0  0  0
    2.0000    6.0989    0.0000 C   0  0  0  0  0  0  0  0  0  0  0  0
    4.6261    3.3202    0.0000 C   0  0  0  0  0  0  0  0  0  0  0  0
    5.1554   -5.1978    0.0000 H   0  0  0  0  0  0  0  0  0  0  0  0
    3.7333   -4.3869    0.0000 H   0  0  0  0  0  0  0  0  0  0  0  0
    4.2082   -5.2095    0.0000 H   0  0  0  0  0  0  0  0  0  0  0  0
    5.9349   -3.6820    0.0000 H   0  0  0  0  0  0  0  0  0  0  0  0
    6.1913   -2.8929    0.0000 H   0  0  0  0  0  0  0  0  0  0  0  0
    3.4405   -2.8929    0.0000 H   0  0  0  0  0  0  0  0  0  0  0  0
    3.6969   -3.6820    0.0000 H   0  0  0  0  0  0  0  0  0  0  0  0
    5.9224   -2.0652    0.0000 H   0  0  0  0  0  0  0  0  0  0  0  0
    5.2511   -1.5774    0.0000 H   0  0  0  0  0  0  0  0  0  0  0  0
    3.2141   -1.0383    0.0000 H   0  0  0  0  0  0  0  0  0  0  0  0
    3.2974   -1.8310    0.0000 H   0  0  0  0  0  0  0  0  0  0  0  0
    7.0480   -3.9789    0.0000 H   0  0  0  0  0  0  0  0  0  0  0  0
    5.6450   -6.4089    0.0000 H   0  0  0  0  0  0  0  0  0  0  0  0
    4.6489   -0.8182    0.0000 H   0  0  0  0  0  0  0  0  0  0  0  0
    4.5656   -0.0255    0.0000 H   0  0  0  0  0  0  0  0  0  0  0  0
    8.4509   -4.7889    0.0000 H   0  0  0  0  0  0  0  0  0  0  0  0
    7.0480   -7.2189    0.0000 H   0  0  0  0  0  0  0  0  0  0  0  0
    3.0331    0.6842    0.0000 H   0  0  0  0  0  0  0  0  0  0  0  0
    3.1164   -0.1085    0.0000 H   0  0  0  0  0  0  0  0  0  0  0  0
    8.4509   -6.4089    0.0000 H   0  0  0  0  0  0  0  0  0  0  0  0
    3.4030    4.2889    0.0000 H   0  0  0  0  0  0  0  0  0  0  0  0
    3.9441    4.5163    0.0000 H   0  0  0  0  0  0  0  0  0  0  0  0
    4.3426    5.2066    0.0000 H   0  0  0  0  0  0  0  0  0  0  0  0
    1.3894    5.2066    0.0000 H   0  0  0  0  0  0  0  0  0  0  0  0
    1.7880    4.5163    0.0000 H   0  0  0  0  0  0  0  0  0  0  0  0
    4.3426    5.9913    0.0000 H   0  0  0  0  0  0  0  0  0  0  0  0
    3.9441    6.6815    0.0000 H   0  0  0  0  0  0  0  0  0  0  0  0
    1.7880    6.6815    0.0000 H   0  0  0  0  0  0  0  0  0  0  0  0
    1.3894    5.9913    0.0000 H   0  0  0  0  0  0  0  0  0  0  0  0
    4.8177    2.7305    0.0000 H   0  0  0  0  0  0  0  0  0  0  0  0
    5.2158    3.5118    0.0000 H   0  0  0  0  0  0  0  0  0  0  0  0
    4.4345    3.9098    0.0000 H   0  0  0  0  0  0  0  0  0  0  0  0
  1 20  1  0  0  0  0
  1 23  1  0  0  0  0
  2 27  1  0  0  0  0
  2 28  1  0  0  0  0
  3 11  1  0  0  0  0
  3 12  1  0  0  0  0
  3 14  1  0  0  0  0
  4 23  1  0  0  0  0
  4 26  1  0  0  0  0
  4 29  1  0  0  0  0
  5  6  1  0  0  0  0
  5 23  2  0  0  0  0
  6 26  2  0  0  0  0
  7  8  1  0  0  0  0
  7  9  1  6  0  0  0
  7 10  1  0  0  0  0
  7 11  1  0  0  0  0
  8  9  1  0  0  0  0
  8 13  1  0  0  0  0
  8 30  1  0  0  0  0
  9 31  1  0  0  0  0
  9 32  1  0  0  0  0
 10 12  1  0  0  0  0
 10 33  1  0  0  0  0
 10 34  1  0  0  0  0
 11 35  1  0  0  0  0
 11 36  1  0  0  0  0
 12 37  1  0  0  0  0
 12 38  1  0  0  0  0
 13 15  2  0  0  0  0
 13 16  1  0  0  0  0
 14 17  1  0  0  0  0
 14 39  1  0  0  0  0
 14 40  1  0  0  0  0
 15 18  1  0  0  0  0
 15 41  1  0  0  0  0
 16 19  2  0  0  0  0
 16 42  1  0  0  0  0
 17 20  1  0  0  0  0
 17 43  1  0  0  0  0
 17 44  1  0  0  0  0
 18 21  2  0  0  0  0
 18 45  1  0  0  0  0
 19 21  1  0  0  0  0
 19 46  1  0  0  0  0
 20 47  1  0  0  0  0
 20 48  1  0  0  0  0
 21 49  1  0  0  0  0
 22 24  1  0  0  0  0
 22 25  1  0  0  0  0
 22 26  1  0  0  0  0
 22 50  1  0  0  0  0
 24 27  1  0  0  0  0
 24 51  1  0  0  0  0
 24 52  1  0  0  0  0
 25 28  1  0  0  0  0
 25 53  1  0  0  0  0
 25 54  1  0  0  0  0
 27 55  1  0  0  0  0
 27 56  1  0  0  0  0
 28 57  1  0  0  0  0
 28 58  1  0  0  0  0
 29 59  1  0  0  0  0
 29 60  1  0  0  0  0
 29 61  1  0  0  0  0
M  END
> <PUBCHEM_COMPOUND_CID>
132153502

> <PUBCHEM_COMPOUND_CANONICALIZED>
1

> <PUBCHEM_CACTVS_COMPLEXITY>
539

> <PUBCHEM_CACTVS_HBOND_ACCEPTOR>
5

> <PUBCHEM_CACTVS_HBOND_DONOR>
0

> <PUBCHEM_CACTVS_ROTATABLE_BOND>
7

> <PUBCHEM_CACTVS_SUBSKEYS>
AAADcfB7oABAAAAAAAAAAAAAGAAAAWLAAAA0QAAAAAAAAAABwAAAHgQIAAAADwDl2wazEIcMFAiiAiJiJAAS0AtgALAdyAA4AIiIKCKgmRCGIAAkiAKIiAewgMAPgAAAAAAAAAAAAAAAAAAAAAAAAAAAAA==

> <PUBCHEM_IUPAC_OPENEYE_NAME>
(3S)-5-[3-[(4-methyl-5-tetrahydropyran-4-yl-1,2,4-triazol-3-yl)sulfanyl]propyl]-2-phenyl-5-azaspiro[2.4]heptane

> <PUBCHEM_IUPAC_CAS_NAME>
(3S)-5-[3-[[4-methyl-5-(4-oxanyl)-1,2,4-triazol-3-yl]thio]propyl]-2-phenyl-5-azaspiro[2.4]heptane

> <PUBCHEM_IUPAC_NAME_MARKUP>
(3<I>S</I>)-5-[3-[[4-methyl-5-(oxan-4-yl)-1,2,4-triazol-3-yl]sulfanyl]propyl]-2-phenyl-5-azaspiro[2.4]heptane

> <PUBCHEM_IUPAC_NAME>
(3S)-5-[3-[[4-methyl-5-(oxan-4-yl)-1,2,4-triazol-3-yl]sulfanyl]propyl]-2-phenyl-5-azaspiro[2.4]heptane

> <PUBCHEM_IUPAC_SYSTEMATIC_NAME>
(3S)-5-[3-[[4-methyl-5-(oxan-4-yl)-1,2,4-triazol-3-yl]sulfanyl]propyl]-2-phenyl-5-azaspiro[2.4]heptane

> <PUBCHEM_IUPAC_TRADITIONAL_NAME>
(3S)-5-[3-[(4-methyl-5-tetrahydropyran-4-yl-1,2,4-triazol-3-yl)thio]propyl]-2-phenyl-5-azaspiro[2.4]heptane

> <PUBCHEM_IUPAC_INCHI>
InChI=1S/C23H32N4OS/c1-26-21(19-8-13-28-14-9-19)24-25-22(26)29-15-5-11-27-12-10-23(17-27)16-20(23)18-6-3-2-4-7-18/h2-4,6-7,19-20H,5,8-17H2,1H3/t20?,23-/m0/s1

> <PUBCHEM_IUPAC_INCHIKEY>
FFCDNTCSZVWUHJ-AKRCKQFNSA-N

> <PUBCHEM_XLOGP3_AA>
3.2

> <PUBCHEM_EXACT_MASS>
412.22968283

> <PUBCHEM_MOLECULAR_FORMULA>
C23H32N4OS

> <PUBCHEM_MOLECULAR_WEIGHT>
412.6

> <PUBCHEM_OPENEYE_CAN_SMILES>
CN1C(=NN=C1SCCCN2CCC3(C2)CC3C4=CC=CC=C4)C5CCOCC5

> <PUBCHEM_OPENEYE_ISO_SMILES>
CN1C(=NN=C1SCCCN2CC[C@@]3(C2)CC3C4=CC=CC=C4)C5CCOCC5

> <PUBCHEM_CACTVS_TPSA>
68.5

> <PUBCHEM_MONOISOTOPIC_WEIGHT>
412.22968283

> <PUBCHEM_TOTAL_CHARGE>
0

> <PUBCHEM_HEAVY_ATOM_COUNT>
29

> <PUBCHEM_ATOM_DEF_STEREO_COUNT>
1

> <PUBCHEM_ATOM_UDEF_STEREO_COUNT>
1

> <PUBCHEM_BOND_DEF_STEREO_COUNT>
0

> <PUBCHEM_BOND_UDEF_STEREO_COUNT>
0

> <PUBCHEM_ISOTOPIC_ATOM_COUNT>
0

> <PUBCHEM_COMPONENT_COUNT>
1

> <PUBCHEM_CACTVS_TAUTO_COUNT>
-1

> <PUBCHEM_COORDINATE_TYPE>
1
5
255

> <PUBCHEM_BONDANNOTATIONS>
13  15  8
13  16  8
15  18  8
16  19  8
18  21  8
19  21  8
4  23  8
4  26  8
5  23  8
5  6  8
6  26  8
7  9  6
8  13  3

$$$$
