24759792
  -OEChem-09292321592D

 43 46  0     1  0  0  0  0  0999 V2000
    5.5981   -1.0443    0.0000 O   0  0  0  0  0  0  0  0  0  0  0  0
    7.2116    2.4787    0.0000 O   0  0  0  0  0  0  0  0  0  0  0  0
    3.7398   -2.1364    0.0000 N   0  0  3  0  0  0  0  0  0  0  0  0
    5.8280    3.5927    0.0000 N   0  0  0  0  0  0  0  0  0  0  0  0
    3.7481   -1.0514    0.0000 C   0  0  1  0  0  0  0  0  0  0  0  0
    4.6461   -0.5236    0.0000 C   0  0  1  0  0  0  0  0  0  0  0  0
    2.8460   -0.5306    0.0000 C   0  0  0  0  0  0  0  0  0  0  0  0
    4.6301    0.5179    0.0000 C   0  0  0  0  0  0  0  0  0  0  0  0
    2.8541    0.5110    0.0000 C   0  0  0  0  0  0  0  0  0  0  0  0
    3.7641    1.0179    0.0000 C   0  0  0  0  0  0  0  0  0  0  0  0
    4.6794   -2.6789    0.0000 C   0  0  0  0  0  0  0  0  0  0  0  0
    5.6148   -2.1291    0.0000 C   0  0  0  0  0  0  0  0  0  0  0  0
    2.8718   -2.6330    0.0000 C   0  0  0  0  0  0  0  0  0  0  0  0
    5.4961    1.0179    0.0000 C   0  0  0  0  0  0  0  0  0  0  0  0
    3.7641    2.0179    0.0000 C   0  0  0  0  0  0  0  0  0  0  0  0
    4.6301    2.5179    0.0000 C   0  0  0  0  0  0  0  0  0  0  0  0
    5.4961    2.0179    0.0000 C   0  0  0  0  0  0  0  0  0  0  0  0
    2.8680   -3.6330    0.0000 C   0  0  0  0  0  0  0  0  0  0  0  0
    4.8393    3.4897    0.0000 C   0  0  0  0  0  0  0  0  0  0  0  0
    6.2331    2.6850    0.0000 C   0  0  0  0  0  0  0  0  0  0  0  0
    2.0000   -4.1297    0.0000 C   0  0  0  0  0  0  0  0  0  0  0  0
    3.0104   -1.4736    0.0000 H   0  0  0  0  0  0  0  0  0  0  0  0
    5.3739   -0.0845    0.0000 H   0  0  0  0  0  0  0  0  0  0  0  0
    2.2360   -0.4198    0.0000 H   0  0  0  0  0  0  0  0  0  0  0  0
    2.6325   -1.1126    0.0000 H   0  0  0  0  0  0  0  0  0  0  0  0
    2.6495    1.0963    0.0000 H   0  0  0  0  0  0  0  0  0  0  0  0
    2.2424    0.4096    0.0000 H   0  0  0  0  0  0  0  0  0  0  0  0
    4.2821   -3.1548    0.0000 H   0  0  0  0  0  0  0  0  0  0  0  0
    5.0803   -3.1518    0.0000 H   0  0  0  0  0  0  0  0  0  0  0  0
    5.8328   -2.7095    0.0000 H   0  0  0  0  0  0  0  0  0  0  0  0
    6.2240   -2.0136    0.0000 H   0  0  0  0  0  0  0  0  0  0  0  0
    2.6620   -2.0496    0.0000 H   0  0  0  0  0  0  0  0  0  0  0  0
    2.2608   -2.7383    0.0000 H   0  0  0  0  0  0  0  0  0  0  0  0
    6.0330    0.7079    0.0000 H   0  0  0  0  0  0  0  0  0  0  0  0
    3.2271    2.3279    0.0000 H   0  0  0  0  0  0  0  0  0  0  0  0
    3.0778   -4.2164    0.0000 H   0  0  0  0  0  0  0  0  0  0  0  0
    3.4789   -3.5277    0.0000 H   0  0  0  0  0  0  0  0  0  0  0  0
    4.8402    4.1097    0.0000 H   0  0  0  0  0  0  0  0  0  0  0  0
    4.2228    3.5557    0.0000 H   0  0  0  0  0  0  0  0  0  0  0  0
    6.1380    4.1297    0.0000 H   0  0  0  0  0  0  0  0  0  0  0  0
    1.6921   -3.5915    0.0000 H   0  0  0  0  0  0  0  0  0  0  0  0
    1.4619   -4.4376    0.0000 H   0  0  0  0  0  0  0  0  0  0  0  0
    2.3079   -4.6678    0.0000 H   0  0  0  0  0  0  0  0  0  0  0  0
  1  6  1  0  0  0  0
  1 12  1  0  0  0  0
  2 20  2  0  0  0  0
  3  5  1  0  0  0  0
  3 11  1  0  0  0  0
  3 13  1  0  0  0  0
  4 19  1  0  0  0  0
  4 20  1  0  0  0  0
  4 40  1  0  0  0  0
  5  6  1  0  0  0  0
  5  7  1  0  0  0  0
  5 22  1  1  0  0  0
  6  8  1  0  0  0  0
  6 23  1  6  0  0  0
  7  9  1  0  0  0  0
  7 24  1  0  0  0  0
  7 25  1  0  0  0  0
  8 10  1  0  0  0  0
  8 14  2  0  0  0  0
  9 10  1  0  0  0  0
  9 26  1  0  0  0  0
  9 27  1  0  0  0  0
 10 15  2  0  0  0  0
 11 12  1  0  0  0  0
 11 28  1  0  0  0  0
 11 29  1  0  0  0  0
 12 30  1  0  0  0  0
 12 31  1  0  0  0  0
 13 18  1  0  0  0  0
 13 32  1  0  0  0  0
 13 33  1  0  0  0  0
 14 17  1  0  0  0  0
 14 34  1  0  0  0  0
 15 16  1  0  0  0  0
 15 35  1  0  0  0  0
 16 17  2  0  0  0  0
 16 19  1  0  0  0  0
 17 20  1  0  0  0  0
 18 21  1  0  0  0  0
 18 36  1  0  0  0  0
 18 37  1  0  0  0  0
 19 38  1  0  0  0  0
 19 39  1  0  0  0  0
 21 41  1  0  0  0  0
 21 42  1  0  0  0  0
 21 43  1  0  0  0  0
M  END
> <PUBCHEM_COMPOUND_CID>
24759792

> <PUBCHEM_COMPOUND_CANONICALIZED>
1

> <PUBCHEM_CACTVS_COMPLEXITY>
414

> <PUBCHEM_CACTVS_HBOND_ACCEPTOR>
3

> <PUBCHEM_CACTVS_HBOND_DONOR>
1

> <PUBCHEM_CACTVS_ROTATABLE_BOND>
2

> <PUBCHEM_CACTVS_SUBSKEYS>
AAADceB7MAAAAAAAAAAAAAAAAAAAAWAAAAA8YIAAAAAAAFjxAAAAHgAQAAAADDzhmAYyAIPABACIAiFSEACCAAAkAAAAiIEIDMgKJjKAtRmHMQhkxgGYqYec3PLOwAACAAAQAACQAAaAADAgAAAAAAAAAA==

> <PUBCHEM_IUPAC_OPENEYE_NAME>
(4aR,11bR)-4-propyl-2,3,4a,5,6,8,9,11b-octahydroisoindolo[5,6-h][1,4]benzoxazin-10-one

> <PUBCHEM_IUPAC_CAS_NAME>
(4aR,11bR)-4-propyl-2,3,4a,5,6,8,9,11b-octahydroisoindolo[5,6-h][1,4]benzoxazin-10-one

> <PUBCHEM_IUPAC_NAME_MARKUP>
(4<I>a</I><I>R</I>,11<I>b</I><I>R</I>)-4-propyl-2,3,4<I>a</I>,5,6,8,9,11<I>b</I>-octahydroisoindolo[5,6-h][1,4]benzoxazin-10-one

> <PUBCHEM_IUPAC_NAME>
(4aR,11bR)-4-propyl-2,3,4a,5,6,8,9,11b-octahydroisoindolo[5,6-h][1,4]benzoxazin-10-one

> <PUBCHEM_IUPAC_SYSTEMATIC_NAME>
(4aR,11bR)-4-propyl-2,3,4a,5,6,8,9,11b-octahydroisoindolo[5,6-h][1,4]benzoxazin-10-one

> <PUBCHEM_IUPAC_TRADITIONAL_NAME>
(4aR,11bR)-4-propyl-2,3,4a,5,6,8,9,11b-octahydroisoindolo[5,6-h][1,4]benzoxazin-10-one

> <PUBCHEM_IUPAC_INCHI>
InChI=1S/C17H22N2O2/c1-2-5-19-6-7-21-16-13-9-14-12(10-18-17(14)20)8-11(13)3-4-15(16)19/h8-9,15-16H,2-7,10H2,1H3,(H,18,20)/t15-,16-/m1/s1

> <PUBCHEM_IUPAC_INCHIKEY>
FTCVLHZRRJVLPD-HZPDHXFCSA-N

> <PUBCHEM_XLOGP3>
1.6

> <PUBCHEM_EXACT_MASS>
286.168127949

> <PUBCHEM_MOLECULAR_FORMULA>
C17H22N2O2

> <PUBCHEM_MOLECULAR_WEIGHT>
286.37

> <PUBCHEM_OPENEYE_CAN_SMILES>
CCCN1CCOC2C1CCC3=CC4=C(C=C23)C(=O)NC4

> <PUBCHEM_OPENEYE_ISO_SMILES>
CCCN1CCO[C@H]2[C@H]1CCC3=CC4=C(C=C23)C(=O)NC4

> <PUBCHEM_CACTVS_TPSA>
41.6

> <PUBCHEM_MONOISOTOPIC_WEIGHT>
286.168127949

> <PUBCHEM_TOTAL_CHARGE>
0

> <PUBCHEM_HEAVY_ATOM_COUNT>
21

> <PUBCHEM_ATOM_DEF_STEREO_COUNT>
2

> <PUBCHEM_ATOM_UDEF_STEREO_COUNT>
0

> <PUBCHEM_BOND_DEF_STEREO_COUNT>
0

> <PUBCHEM_BOND_UDEF_STEREO_COUNT>
0

> <PUBCHEM_ISOTOPIC_ATOM_COUNT>
0

> <PUBCHEM_COMPONENT_COUNT>
1

> <PUBCHEM_CACTVS_TAUTO_COUNT>
-1

> <PUBCHEM_COORDINATE_TYPE>
1
5
255

> <PUBCHEM_BONDANNOTATIONS>
10  15  8
14  17  8
15  16  8
16  17  8
5  22  5
6  23  6
8  10  8
8  14  8

$$$$
