153287572
  -OEChem-09292322462D

 34 35  0     1  0  0  0  0  0999 V2000
    5.5301   -1.7327    0.0000 O   0  0  0  0  0  0  0  0  0  0  0  0
    7.3962   -0.2327    0.0000 N   0  0  0  0  0  0  0  0  0  0  0  0
    6.3961   -0.2327    0.0000 C   0  0  1  0  0  0  0  0  0  0  0  0
    5.5301    0.2673    0.0000 C   0  0  2  0  0  0  0  0  0  0  0  0
    6.3961   -1.2327    0.0000 C   0  0  0  0  0  0  0  0  0  0  0  0
    4.6641   -0.2327    0.0000 C   0  0  0  0  0  0  0  0  0  0  0  0
    5.5301    1.2673    0.0000 C   0  0  0  0  0  0  0  0  0  0  0  0
    6.8962    0.6334    0.0000 C   0  0  0  0  0  0  0  0  0  0  0  0
    4.6641   -1.2327    0.0000 C   0  0  0  0  0  0  0  0  0  0  0  0
    3.7702    0.3020    0.0000 C   0  0  0  0  0  0  0  0  0  0  0  0
    4.6641    1.7673    0.0000 C   0  0  0  0  0  0  0  0  0  0  0  0
    3.7702   -1.7673    0.0000 C   0  0  0  0  0  0  0  0  0  0  0  0
    2.8641   -0.2119    0.0000 C   0  0  0  0  0  0  0  0  0  0  0  0
    2.8641   -1.2535    0.0000 C   0  0  0  0  0  0  0  0  0  0  0  0
    2.0000    0.2915    0.0000 C   0  0  0  0  0  0  0  0  0  0  0  0
    6.0671    0.5773    0.0000 H   0  0  0  0  0  0  0  0  0  0  0  0
    6.6082   -1.8153    0.0000 H   0  0  0  0  0  0  0  0  0  0  0  0
    7.0067   -1.1250    0.0000 H   0  0  0  0  0  0  0  0  0  0  0  0
    6.1407    1.1597    0.0000 H   0  0  0  0  0  0  0  0  0  0  0  0
    5.7422    1.8499    0.0000 H   0  0  0  0  0  0  0  0  0  0  0  0
    7.4331    0.3234    0.0000 H   0  0  0  0  0  0  0  0  0  0  0  0
    7.2062    1.1703    0.0000 H   0  0  0  0  0  0  0  0  0  0  0  0
    6.3592    0.9434    0.0000 H   0  0  0  0  0  0  0  0  0  0  0  0
    7.7062   -0.7696    0.0000 H   0  0  0  0  0  0  0  0  0  0  0  0
    7.7062    0.3043    0.0000 H   0  0  0  0  0  0  0  0  0  0  0  0
    3.7773    0.9220    0.0000 H   0  0  0  0  0  0  0  0  0  0  0  0
    4.9741    2.3043    0.0000 H   0  0  0  0  0  0  0  0  0  0  0  0
    4.1272    2.0773    0.0000 H   0  0  0  0  0  0  0  0  0  0  0  0
    4.3541    1.2304    0.0000 H   0  0  0  0  0  0  0  0  0  0  0  0
    3.7773   -2.3873    0.0000 H   0  0  0  0  0  0  0  0  0  0  0  0
    2.3284   -1.5656    0.0000 H   0  0  0  0  0  0  0  0  0  0  0  0
    2.3121    0.8272    0.0000 H   0  0  0  0  0  0  0  0  0  0  0  0
    1.4643    0.6035    0.0000 H   0  0  0  0  0  0  0  0  0  0  0  0
    1.6879   -0.2443    0.0000 H   0  0  0  0  0  0  0  0  0  0  0  0
  1  5  1  0  0  0  0
  1  9  1  0  0  0  0
  3  2  1  6  0  0  0
  2 24  1  0  0  0  0
  2 25  1  0  0  0  0
  3  4  1  0  0  0  0
  3  5  1  0  0  0  0
  3  8  1  0  0  0  0
  4  6  1  0  0  0  0
  4  7  1  6  0  0  0
  4 16  1  0  0  0  0
  5 17  1  0  0  0  0
  5 18  1  0  0  0  0
  6  9  2  0  0  0  0
  6 10  1  0  0  0  0
  7 11  1  0  0  0  0
  7 19  1  0  0  0  0
  7 20  1  0  0  0  0
  8 21  1  0  0  0  0
  8 22  1  0  0  0  0
  8 23  1  0  0  0  0
  9 12  1  0  0  0  0
 10 13  2  0  0  0  0
 10 26  1  0  0  0  0
 11 27  1  0  0  0  0
 11 28  1  0  0  0  0
 11 29  1  0  0  0  0
 12 14  2  0  0  0  0
 12 30  1  0  0  0  0
 13 14  1  0  0  0  0
 13 15  1  0  0  0  0
 14 31  1  0  0  0  0
 15 32  1  0  0  0  0
 15 33  1  0  0  0  0
 15 34  1  0  0  0  0
M  END
> <PUBCHEM_COMPOUND_CID>
153287572

> <PUBCHEM_COMPOUND_CANONICALIZED>
1

> <PUBCHEM_CACTVS_COMPLEXITY>
231

> <PUBCHEM_CACTVS_HBOND_ACCEPTOR>
2

> <PUBCHEM_CACTVS_HBOND_DONOR>
1

> <PUBCHEM_CACTVS_ROTATABLE_BOND>
1

> <PUBCHEM_CACTVS_SUBSKEYS>
AAADceByIAAAAAAAAAAAAAAAAAAAAAAAAAA0QAAAAAAAAACRAAAAHgAQAAAADYyhmAIyBoBABACAAiBCAAACCAAgIAAIiAAGCIgOJiKEsRuDOCCk0BEIqAewwOAOoAACAAAIAABAAAQAABAAAAAAAAAAAA==

> <PUBCHEM_IUPAC_OPENEYE_NAME>
(3S,4S)-4-ethyl-3,6-dimethyl-chroman-3-amine

> <PUBCHEM_IUPAC_CAS_NAME>
(3S,4S)-4-ethyl-3,6-dimethyl-3,4-dihydro-2H-1-benzopyran-3-amine

> <PUBCHEM_IUPAC_NAME_MARKUP>
(3<I>S</I>,4<I>S</I>)-4-ethyl-3,6-dimethyl-2,4-dihydrochromen-3-amine

> <PUBCHEM_IUPAC_NAME>
(3S,4S)-4-ethyl-3,6-dimethyl-2,4-dihydrochromen-3-amine

> <PUBCHEM_IUPAC_SYSTEMATIC_NAME>
(3S,4S)-4-ethyl-3,6-dimethyl-2,4-dihydrochromen-3-amine

> <PUBCHEM_IUPAC_TRADITIONAL_NAME>
[(3S,4S)-4-ethyl-3,6-dimethyl-chroman-3-yl]amine

> <PUBCHEM_IUPAC_INCHI>
InChI=1S/C13H19NO/c1-4-11-10-7-9(2)5-6-12(10)15-8-13(11,3)14/h5-7,11H,4,8,14H2,1-3H3/t11-,13+/m0/s1

> <PUBCHEM_IUPAC_INCHIKEY>
DUGAXFUVLZBESY-WCQYABFASA-N

> <PUBCHEM_XLOGP3_AA>
2.3

> <PUBCHEM_EXACT_MASS>
205.146664230

> <PUBCHEM_MOLECULAR_FORMULA>
C13H19NO

> <PUBCHEM_MOLECULAR_WEIGHT>
205.30

> <PUBCHEM_OPENEYE_CAN_SMILES>
CCC1C2=C(C=CC(=C2)C)OCC1(C)N

> <PUBCHEM_OPENEYE_ISO_SMILES>
CC[C@H]1C2=C(C=CC(=C2)C)OC[C@@]1(C)N

> <PUBCHEM_CACTVS_TPSA>
35.2

> <PUBCHEM_MONOISOTOPIC_WEIGHT>
205.146664230

> <PUBCHEM_TOTAL_CHARGE>
0

> <PUBCHEM_HEAVY_ATOM_COUNT>
15

> <PUBCHEM_ATOM_DEF_STEREO_COUNT>
2

> <PUBCHEM_ATOM_UDEF_STEREO_COUNT>
0

> <PUBCHEM_BOND_DEF_STEREO_COUNT>
0

> <PUBCHEM_BOND_UDEF_STEREO_COUNT>
0

> <PUBCHEM_ISOTOPIC_ATOM_COUNT>
0

> <PUBCHEM_COMPONENT_COUNT>
1

> <PUBCHEM_CACTVS_TAUTO_COUNT>
-1

> <PUBCHEM_COORDINATE_TYPE>
1
5
255

> <PUBCHEM_BONDANNOTATIONS>
10  13  8
12  14  8
13  14  8
3  2  6
4  7  6
6  10  8
6  9  8
9  12  8

$$$$
