11606378
  -OEChem-09292322242D

 69 74  0     1  0  0  0  0  0999 V2000
    9.0604    2.3650    0.0000 S   0  0  0  0  0  0  0  0  0  0  0  0
   17.2749   -3.1740    0.0000 F   0  0  0  0  0  0  0  0  0  0  0  0
   17.6410   -1.8080    0.0000 F   0  0  0  0  0  0  0  0  0  0  0  0
   15.2862   -1.3389    0.0000 O   0  0  0  0  0  0  0  0  0  0  0  0
   12.0604    0.6329    0.0000 N   0  0  3  0  0  0  0  0  0  0  0  0
   16.6800   -0.5342    0.0000 N   0  0  0  0  0  0  0  0  0  0  0  0
    7.4726    1.5560    0.0000 N   0  0  0  0  0  0  0  0  0  0  0  0
    7.4726    3.1740    0.0000 N   0  0  0  0  0  0  0  0  0  0  0  0
    6.5215    2.8650    0.0000 N   0  0  0  0  0  0  0  0  0  0  0  0
    3.0320    1.5051    0.0000 N   0  0  0  0  0  0  0  0  0  0  0  0
   12.4847   -0.2513    0.0000 C   0  0  0  0  0  0  0  0  0  0  0  0
   12.4847    1.5172    0.0000 C   0  0  0  0  0  0  0  0  0  0  0  0
   13.4401   -0.4734    0.0000 C   0  0  0  0  0  0  0  0  0  0  0  0
   13.4401    1.7393    0.0000 C   0  0  0  0  0  0  0  0  0  0  0  0
   14.2110    0.1329    0.0000 C   0  0  0  0  0  0  0  0  0  0  0  0
   14.2110    1.1329    0.0000 C   0  0  0  0  0  0  0  0  0  0  0  0
   11.0604    0.6329    0.0000 C   0  0  0  0  0  0  0  0  0  0  0  0
   15.0770   -0.3671    0.0000 C   0  0  0  0  0  0  0  0  0  0  0  0
   10.5604    1.4990    0.0000 C   0  0  0  0  0  0  0  0  0  0  0  0
   15.0770    1.6329    0.0000 C   0  0  0  0  0  0  0  0  0  0  0  0
   15.9430    0.1329    0.0000 C   0  0  0  0  0  0  0  0  0  0  0  0
   15.9430    1.1329    0.0000 C   0  0  0  0  0  0  0  0  0  0  0  0
    9.5604    1.4990    0.0000 C   0  0  0  0  0  0  0  0  0  0  0  0
   16.2749   -1.4419    0.0000 C   0  0  0  0  0  0  0  0  0  0  0  0
   16.7749   -2.3080    0.0000 C   0  0  0  0  0  0  0  0  0  0  0  0
    8.0604    2.3650    0.0000 C   0  0  0  0  0  0  0  0  0  0  0  0
   15.9089   -2.8080    0.0000 C   0  0  0  0  0  0  0  0  0  0  0  0
    6.5215    1.8650    0.0000 C   0  0  0  0  0  0  0  0  0  0  0  0
    5.7125    1.2772    0.0000 C   0  0  0  0  0  0  0  0  0  0  0  0
    4.7990    1.6839    0.0000 C   0  0  0  0  0  0  0  0  0  0  0  0
    7.7816    0.6049    0.0000 C   0  0  0  0  0  0  0  0  0  0  0  0
    3.9900    1.0961    0.0000 C   0  0  0  0  0  0  0  0  0  0  0  0
    5.8171    0.2827    0.0000 C   0  0  0  0  0  0  0  0  0  0  0  0
    4.7061    2.7214    0.0000 C   0  0  0  0  0  0  0  0  0  0  0  0
    4.0945    0.1016    0.0000 C   0  0  0  0  0  0  0  0  0  0  0  0
    5.0080   -0.3051    0.0000 C   0  0  0  0  0  0  0  0  0  0  0  0
    3.7578    3.1524    0.0000 C   0  0  0  0  0  0  0  0  0  0  0  0
    2.9151    2.5402    0.0000 C   0  0  0  0  0  0  0  0  0  0  0  0
    2.0000    2.9434    0.0000 C   0  0  0  0  0  0  0  0  0  0  0  0
   11.8800   -0.3879    0.0000 H   0  0  0  0  0  0  0  0  0  0  0  0
   12.4828   -0.8713    0.0000 H   0  0  0  0  0  0  0  0  0  0  0  0
   12.4828    2.1372    0.0000 H   0  0  0  0  0  0  0  0  0  0  0  0
   11.8800    1.6538    0.0000 H   0  0  0  0  0  0  0  0  0  0  0  0
   13.1683   -1.0307    0.0000 H   0  0  0  0  0  0  0  0  0  0  0  0
   13.9225   -0.8628    0.0000 H   0  0  0  0  0  0  0  0  0  0  0  0
   13.9225    2.1286    0.0000 H   0  0  0  0  0  0  0  0  0  0  0  0
   13.1683    2.2965    0.0000 H   0  0  0  0  0  0  0  0  0  0  0  0
   10.4778    0.4209    0.0000 H   0  0  0  0  0  0  0  0  0  0  0  0
   11.1680    0.0223    0.0000 H   0  0  0  0  0  0  0  0  0  0  0  0
   11.1430    1.7110    0.0000 H   0  0  0  0  0  0  0  0  0  0  0  0
   10.4527    2.1095    0.0000 H   0  0  0  0  0  0  0  0  0  0  0  0
   15.0770    2.2529    0.0000 H   0  0  0  0  0  0  0  0  0  0  0  0
   16.4800    1.4429    0.0000 H   0  0  0  0  0  0  0  0  0  0  0  0
    8.9778    1.2869    0.0000 H   0  0  0  0  0  0  0  0  0  0  0  0
    9.6680    0.8884    0.0000 H   0  0  0  0  0  0  0  0  0  0  0  0
   15.5989   -2.2710    0.0000 H   0  0  0  0  0  0  0  0  0  0  0  0
   15.3720   -3.1180    0.0000 H   0  0  0  0  0  0  0  0  0  0  0  0
   16.2189   -3.3449    0.0000 H   0  0  0  0  0  0  0  0  0  0  0  0
    7.1920    0.4133    0.0000 H   0  0  0  0  0  0  0  0  0  0  0  0
    7.9732    0.0152    0.0000 H   0  0  0  0  0  0  0  0  0  0  0  0
    8.3713    0.7965    0.0000 H   0  0  0  0  0  0  0  0  0  0  0  0
    6.3834    0.0305    0.0000 H   0  0  0  0  0  0  0  0  0  0  0  0
    5.2119    3.0800    0.0000 H   0  0  0  0  0  0  0  0  0  0  0  0
    3.5929   -0.2628    0.0000 H   0  0  0  0  0  0  0  0  0  0  0  0
    5.0728   -0.9217    0.0000 H   0  0  0  0  0  0  0  0  0  0  0  0
    3.6954    3.7692    0.0000 H   0  0  0  0  0  0  0  0  0  0  0  0
    2.2500    3.5107    0.0000 H   0  0  0  0  0  0  0  0  0  0  0  0
    1.4326    3.1934    0.0000 H   0  0  0  0  0  0  0  0  0  0  0  0
    1.7500    2.3760    0.0000 H   0  0  0  0  0  0  0  0  0  0  0  0
  1 23  1  0  0  0  0
  1 26  1  0  0  0  0
  2 25  1  0  0  0  0
  3 25  1  0  0  0  0
  4 18  1  0  0  0  0
  4 24  1  0  0  0  0
  5 11  1  0  0  0  0
  5 12  1  0  0  0  0
  5 17  1  0  0  0  0
  6 21  1  0  0  0  0
  6 24  2  0  0  0  0
  7 26  1  0  0  0  0
  7 28  1  0  0  0  0
  7 31  1  0  0  0  0
  8  9  1  0  0  0  0
  8 26  2  0  0  0  0
  9 28  2  0  0  0  0
 10 32  1  0  0  0  0
 10 38  2  0  0  0  0
 11 13  1  0  0  0  0
 11 40  1  0  0  0  0
 11 41  1  0  0  0  0
 12 14  1  0  0  0  0
 12 42  1  0  0  0  0
 12 43  1  0  0  0  0
 13 15  1  0  0  0  0
 13 44  1  0  0  0  0
 13 45  1  0  0  0  0
 14 16  1  0  0  0  0
 14 46  1  0  0  0  0
 14 47  1  0  0  0  0
 15 16  2  0  0  0  0
 15 18  1  0  0  0  0
 16 20  1  0  0  0  0
 17 19  1  0  0  0  0
 17 48  1  0  0  0  0
 17 49  1  0  0  0  0
 18 21  2  0  0  0  0
 19 23  1  0  0  0  0
 19 50  1  0  0  0  0
 19 51  1  0  0  0  0
 20 22  2  0  0  0  0
 20 52  1  0  0  0  0
 21 22  1  0  0  0  0
 22 53  1  0  0  0  0
 23 54  1  0  0  0  0
 23 55  1  0  0  0  0
 24 25  1  0  0  0  0
 25 27  1  0  0  0  0
 27 56  1  0  0  0  0
 27 57  1  0  0  0  0
 27 58  1  0  0  0  0
 28 29  1  0  0  0  0
 29 30  2  0  0  0  0
 29 33  1  0  0  0  0
 30 32  1  0  0  0  0
 30 34  1  0  0  0  0
 31 59  1  0  0  0  0
 31 60  1  0  0  0  0
 31 61  1  0  0  0  0
 32 35  2  0  0  0  0
 33 36  2  0  0  0  0
 33 62  1  0  0  0  0
 34 37  2  0  0  0  0
 34 63  1  0  0  0  0
 35 36  1  0  0  0  0
 35 64  1  0  0  0  0
 36 65  1  0  0  0  0
 37 38  1  0  0  0  0
 37 66  1  0  0  0  0
 38 39  1  0  0  0  0
 39 67  1  0  0  0  0
 39 68  1  0  0  0  0
 39 69  1  0  0  0  0
M  END
> <PUBCHEM_COMPOUND_CID>
11606378

> <PUBCHEM_COMPOUND_CANONICALIZED>
1

> <PUBCHEM_CACTVS_COMPLEXITY>
827

> <PUBCHEM_CACTVS_HBOND_ACCEPTOR>
9

> <PUBCHEM_CACTVS_HBOND_DONOR>
0

> <PUBCHEM_CACTVS_ROTATABLE_BOND>
7

> <PUBCHEM_CACTVS_SUBSKEYS>
AAADceB7oYBAAAAAAAAAAAAAAAAAAWLAAAA8YIAABYAAAFix/gAAHwQIAAAADAzF3xSz1vcMFEiqA6dydASS2CtvYrAd2CG9bNiOLvLkvbuPOSjkzBPY6Ye82fKOiAABQAAaEAAQAAKAADQgAAAAAAAAAA==

> <PUBCHEM_IUPAC_OPENEYE_NAME>
2-(1,1-difluoroethyl)-8-[3-[[4-methyl-5-(2-methyl-5-quinolyl)-1,2,4-triazol-3-yl]sulfanyl]propyl]-6,7,9,10-tetrahydrooxazolo[4,5-i][3]benzazepine

> <PUBCHEM_IUPAC_CAS_NAME>
2-(1,1-difluoroethyl)-8-[3-[[4-methyl-5-(2-methyl-5-quinolinyl)-1,2,4-triazol-3-yl]thio]propyl]-6,7,9,10-tetrahydrooxazolo[4,5-i][3]benzazepine

> <PUBCHEM_IUPAC_NAME_MARKUP>
2-(1,1-difluoroethyl)-8-[3-[[4-methyl-5-(2-methylquinolin-5-yl)-1,2,4-triazol-3-yl]sulfanyl]propyl]-6,7,9,10-tetrahydro-[1,3]oxazolo[4,5-i][3]benzazepine

> <PUBCHEM_IUPAC_NAME>
2-(1,1-difluoroethyl)-8-[3-[[4-methyl-5-(2-methylquinolin-5-yl)-1,2,4-triazol-3-yl]sulfanyl]propyl]-6,7,9,10-tetrahydro-[1,3]oxazolo[4,5-i][3]benzazepine

> <PUBCHEM_IUPAC_SYSTEMATIC_NAME>
2-[1,1-bis(fluoranyl)ethyl]-8-[3-[[4-methyl-5-(2-methylquinolin-5-yl)-1,2,4-triazol-3-yl]sulfanyl]propyl]-6,7,9,10-tetrahydro-[1,3]oxazolo[4,5-i][3]benzazepine

> <PUBCHEM_IUPAC_TRADITIONAL_NAME>
2-(1,1-difluoroethyl)-8-[3-[[4-methyl-5-(2-methyl-5-quinolyl)-1,2,4-triazol-3-yl]thio]propyl]-6,7,9,10-tetrahydrooxazolo[4,5-i][3]benzazepine

> <PUBCHEM_IUPAC_INCHI>
InChI=1S/C29H30F2N6OS/c1-18-8-10-21-22(6-4-7-23(21)32-18)26-34-35-28(36(26)3)39-17-5-14-37-15-12-19-9-11-24-25(20(19)13-16-37)38-27(33-24)29(2,30)31/h4,6-11H,5,12-17H2,1-3H3

> <PUBCHEM_IUPAC_INCHIKEY>
IWYNZVSUMFYFCF-UHFFFAOYSA-N

> <PUBCHEM_XLOGP3_AA>
5.7

> <PUBCHEM_EXACT_MASS>
548.21698710

> <PUBCHEM_MOLECULAR_FORMULA>
C29H30F2N6OS

> <PUBCHEM_MOLECULAR_WEIGHT>
548.7

> <PUBCHEM_OPENEYE_CAN_SMILES>
CC1=NC2=CC=CC(=C2C=C1)C3=NN=C(N3C)SCCCN4CCC5=C(CC4)C6=C(C=C5)N=C(O6)C(C)(F)F

> <PUBCHEM_OPENEYE_ISO_SMILES>
CC1=NC2=CC=CC(=C2C=C1)C3=NN=C(N3C)SCCCN4CCC5=C(CC4)C6=C(C=C5)N=C(O6)C(C)(F)F

> <PUBCHEM_CACTVS_TPSA>
98.2

> <PUBCHEM_MONOISOTOPIC_WEIGHT>
548.21698710

> <PUBCHEM_TOTAL_CHARGE>
0

> <PUBCHEM_HEAVY_ATOM_COUNT>
39

> <PUBCHEM_ATOM_DEF_STEREO_COUNT>
0

> <PUBCHEM_ATOM_UDEF_STEREO_COUNT>
0

> <PUBCHEM_BOND_DEF_STEREO_COUNT>
0

> <PUBCHEM_BOND_UDEF_STEREO_COUNT>
0

> <PUBCHEM_ISOTOPIC_ATOM_COUNT>
0

> <PUBCHEM_COMPONENT_COUNT>
1

> <PUBCHEM_CACTVS_TAUTO_COUNT>
-1

> <PUBCHEM_COORDINATE_TYPE>
1
5
255

> <PUBCHEM_BONDANNOTATIONS>
10  32  8
10  38  8
15  16  8
15  18  8
16  20  8
18  21  8
20  22  8
21  22  8
29  30  8
29  33  8
30  32  8
30  34  8
32  35  8
33  36  8
34  37  8
35  36  8
37  38  8
4  18  8
4  24  8
6  21  8
6  24  8
7  26  8
7  28  8
8  26  8
8  9  8
9  28  8

$$$$
