22876327
  -OEChem-09292322222D

 40 43  0     1  0  0  0  0  0999 V2000
    8.2619   -1.4856    0.0000 O   0  0  0  0  0  0  0  0  0  0  0  0
    5.0000   -0.9856    0.0000 N   0  0  3  0  0  0  0  0  0  0  0  0
    8.2701    3.5837    0.0000 N   0  0  0  0  0  0  0  0  0  0  0  0
    6.5298   -1.4856    0.0000 C   0  0  2  0  0  0  0  0  0  0  0  0
    6.5298   -0.4856    0.0000 C   0  0  2  0  0  0  0  0  0  0  0  0
    5.5836   -1.7903    0.0000 C   0  0  0  0  0  0  0  0  0  0  0  0
    5.5836   -0.1809    0.0000 C   0  0  0  0  0  0  0  0  0  0  0  0
    7.3958   -1.9856    0.0000 C   0  0  0  0  0  0  0  0  0  0  0  0
    7.3958    0.0144    0.0000 C   0  0  0  0  0  0  0  0  0  0  0  0
    4.0000   -0.9856    0.0000 C   0  0  0  0  0  0  0  0  0  0  0  0
    8.2619   -0.4856    0.0000 C   0  0  0  0  0  0  0  0  0  0  0  0
    7.3798    1.0559    0.0000 C   0  0  0  0  0  0  0  0  0  0  0  0
    3.5000   -1.8516    0.0000 C   0  0  0  0  0  0  0  0  0  0  0  0
    9.1719    0.0213    0.0000 C   0  0  0  0  0  0  0  0  0  0  0  0
    8.2778    1.5837    0.0000 C   0  0  0  0  0  0  0  0  0  0  0  0
    9.1799    1.0629    0.0000 C   0  0  0  0  0  0  0  0  0  0  0  0
    4.0000   -2.7176    0.0000 C   0  0  0  0  0  0  0  0  0  0  0  0
    2.5000   -1.8516    0.0000 C   0  0  0  0  0  0  0  0  0  0  0  0
    3.5000   -3.5837    0.0000 C   0  0  0  0  0  0  0  0  0  0  0  0
    2.0000   -2.7176    0.0000 C   0  0  0  0  0  0  0  0  0  0  0  0
    8.2740    2.5837    0.0000 C   0  0  0  0  0  0  0  0  0  0  0  0
    2.5000   -3.5837    0.0000 C   0  0  0  0  0  0  0  0  0  0  0  0
    6.4399   -2.3308    0.0000 H   0  0  0  0  0  0  0  0  0  0  0  0
    6.4399    0.3596    0.0000 H   0  0  0  0  0  0  0  0  0  0  0  0
    5.0462   -2.0995    0.0000 H   0  0  0  0  0  0  0  0  0  0  0  0
    5.8346   -2.3572    0.0000 H   0  0  0  0  0  0  0  0  0  0  0  0
    5.8346    0.3861    0.0000 H   0  0  0  0  0  0  0  0  0  0  0  0
    5.0462    0.1284    0.0000 H   0  0  0  0  0  0  0  0  0  0  0  0
    6.9973   -2.4605    0.0000 H   0  0  0  0  0  0  0  0  0  0  0  0
    7.7944   -2.4605    0.0000 H   0  0  0  0  0  0  0  0  0  0  0  0
    4.1077   -0.3750    0.0000 H   0  0  0  0  0  0  0  0  0  0  0  0
    3.4174   -0.7735    0.0000 H   0  0  0  0  0  0  0  0  0  0  0  0
    6.8393    1.3597    0.0000 H   0  0  0  0  0  0  0  0  0  0  0  0
    9.7052   -0.2949    0.0000 H   0  0  0  0  0  0  0  0  0  0  0  0
    9.7180    1.3708    0.0000 H   0  0  0  0  0  0  0  0  0  0  0  0
    4.6200   -2.7176    0.0000 H   0  0  0  0  0  0  0  0  0  0  0  0
    2.1900   -1.3147    0.0000 H   0  0  0  0  0  0  0  0  0  0  0  0
    3.8100   -4.1206    0.0000 H   0  0  0  0  0  0  0  0  0  0  0  0
    1.3800   -2.7176    0.0000 H   0  0  0  0  0  0  0  0  0  0  0  0
    2.1900   -4.1206    0.0000 H   0  0  0  0  0  0  0  0  0  0  0  0
  1  8  1  0  0  0  0
  1 11  1  0  0  0  0
  2  6  1  0  0  0  0
  2  7  1  0  0  0  0
  2 10  1  0  0  0  0
  3 21  3  0  0  0  0
  4  5  1  0  0  0  0
  4  6  1  0  0  0  0
  4  8  1  0  0  0  0
  4 23  1  6  0  0  0
  5  7  1  0  0  0  0
  5  9  1  0  0  0  0
  5 24  1  1  0  0  0
  6 25  1  0  0  0  0
  6 26  1  0  0  0  0
  7 27  1  0  0  0  0
  7 28  1  0  0  0  0
  8 29  1  0  0  0  0
  8 30  1  0  0  0  0
  9 11  2  0  0  0  0
  9 12  1  0  0  0  0
 10 13  1  0  0  0  0
 10 31  1  0  0  0  0
 10 32  1  0  0  0  0
 11 14  1  0  0  0  0
 12 15  2  0  0  0  0
 12 33  1  0  0  0  0
 13 17  2  0  0  0  0
 13 18  1  0  0  0  0
 14 16  2  0  0  0  0
 14 34  1  0  0  0  0
 15 16  1  0  0  0  0
 15 21  1  0  0  0  0
 16 35  1  0  0  0  0
 17 19  1  0  0  0  0
 17 36  1  0  0  0  0
 18 20  2  0  0  0  0
 18 37  1  0  0  0  0
 19 22  2  0  0  0  0
 19 38  1  0  0  0  0
 20 22  1  0  0  0  0
 20 39  1  0  0  0  0
 22 40  1  0  0  0  0
M  END
> <PUBCHEM_COMPOUND_CID>
22876327

> <PUBCHEM_COMPOUND_CANONICALIZED>
1

> <PUBCHEM_CACTVS_COMPLEXITY>
436

> <PUBCHEM_CACTVS_HBOND_ACCEPTOR>
3

> <PUBCHEM_CACTVS_HBOND_DONOR>
0

> <PUBCHEM_CACTVS_ROTATABLE_BOND>
2

> <PUBCHEM_CACTVS_SUBSKEYS>
AAADceB7IAAAAAAAAAAAAAAAAAAAAWAAAAA0YIAAAAAAAFiRQAAAHgAAAAAADQThmAYwBoMABACQBiBCAACiCAAgIAAIiAAODIgMpiKEsRuGOCjmwBGIqA+w0OIOoAACAAAIAABAAAQAABAAAAAAAAAAAA==

> <PUBCHEM_IUPAC_OPENEYE_NAME>
(3aR,9bS)-2-benzyl-3,3a,4,9b-tetrahydro-1H-chromeno[3,4-c]pyrrole-8-carbonitrile

> <PUBCHEM_IUPAC_CAS_NAME>
(3aR,9bS)-2-(phenylmethyl)-3,3a,4,9b-tetrahydro-1H-[1]benzopyrano[3,4-c]pyrrole-8-carbonitrile

> <PUBCHEM_IUPAC_NAME_MARKUP>
(3<I>a</I><I>R</I>,9<I>b</I><I>S</I>)-2-benzyl-3,3<I>a</I>,4,9<I>b</I>-tetrahydro-1<I>H</I>-chromeno[3,4-c]pyrrole-8-carbonitrile

> <PUBCHEM_IUPAC_NAME>
(3aR,9bS)-2-benzyl-3,3a,4,9b-tetrahydro-1H-chromeno[3,4-c]pyrrole-8-carbonitrile

> <PUBCHEM_IUPAC_SYSTEMATIC_NAME>
(3aR,9bS)-2-(phenylmethyl)-3,3a,4,9b-tetrahydro-1H-chromeno[3,4-c]pyrrole-8-carbonitrile

> <PUBCHEM_IUPAC_TRADITIONAL_NAME>
(3aR,9bS)-2-benzyl-3,3a,4,9b-tetrahydro-1H-chromeno[3,4-c]pyrrole-8-carbonitrile

> <PUBCHEM_IUPAC_INCHI>
InChI=1S/C19H18N2O/c20-9-15-6-7-19-17(8-15)18-12-21(11-16(18)13-22-19)10-14-4-2-1-3-5-14/h1-8,16,18H,10-13H2/t16-,18+/m1/s1

> <PUBCHEM_IUPAC_INCHIKEY>
JLHYDFVXCXCPKN-AEFFLSMTSA-N

> <PUBCHEM_XLOGP3_AA>
3

> <PUBCHEM_EXACT_MASS>
290.141913202

> <PUBCHEM_MOLECULAR_FORMULA>
C19H18N2O

> <PUBCHEM_MOLECULAR_WEIGHT>
290.4

> <PUBCHEM_OPENEYE_CAN_SMILES>
C1C2COC3=C(C2CN1CC4=CC=CC=C4)C=C(C=C3)C#N

> <PUBCHEM_OPENEYE_ISO_SMILES>
C1[C@@H]2COC3=C([C@H]2CN1CC4=CC=CC=C4)C=C(C=C3)C#N

> <PUBCHEM_CACTVS_TPSA>
36.3

> <PUBCHEM_MONOISOTOPIC_WEIGHT>
290.141913202

> <PUBCHEM_TOTAL_CHARGE>
0

> <PUBCHEM_HEAVY_ATOM_COUNT>
22

> <PUBCHEM_ATOM_DEF_STEREO_COUNT>
2

> <PUBCHEM_ATOM_UDEF_STEREO_COUNT>
0

> <PUBCHEM_BOND_DEF_STEREO_COUNT>
0

> <PUBCHEM_BOND_UDEF_STEREO_COUNT>
0

> <PUBCHEM_ISOTOPIC_ATOM_COUNT>
0

> <PUBCHEM_COMPONENT_COUNT>
1

> <PUBCHEM_CACTVS_TAUTO_COUNT>
-1

> <PUBCHEM_COORDINATE_TYPE>
1
5
255

> <PUBCHEM_BONDANNOTATIONS>
11  14  8
12  15  8
13  17  8
13  18  8
14  16  8
15  16  8
17  19  8
18  20  8
19  22  8
20  22  8
4  23  6
5  24  5
9  11  8
9  12  8

$$$$
