118709163
  -OEChem-09292322352D

118123  0     0  0  0  0  0  0999 V2000
   14.5981    0.8660    0.0000 Cl  0  0  0  0  0  0  0  0  0  0  0  0
    2.5981   -0.8660    0.0000 Cl  0  0  0  0  0  0  0  0  0  0  0  0
   10.8660  -11.5981    0.0000 F   0  0  0  0  0  0  0  0  0  0  0  0
    2.8660   11.5981    0.0000 F   0  0  0  0  0  0  0  0  0  0  0  0
   12.0981   -1.7320    0.0000 O   0  0  0  0  0  0  0  0  0  0  0  0
    5.0981    1.7320    0.0000 O   0  0  0  0  0  0  0  0  0  0  0  0
   10.5981   -2.5981    0.0000 O   0  0  0  0  0  0  0  0  0  0  0  0
    6.5981    2.5981    0.0000 O   0  0  0  0  0  0  0  0  0  0  0  0
   10.0000   -7.0981    0.0000 O   0  0  0  0  0  0  0  0  0  0  0  0
    2.0000    7.0981    0.0000 O   0  0  0  0  0  0  0  0  0  0  0  0
   12.5981   -4.5981    0.0000 N   0  0  0  0  0  0  0  0  0  0  0  0
    4.5981    4.5981    0.0000 N   0  0  0  0  0  0  0  0  0  0  0  0
   12.5981   -2.5981    0.0000 C   0  0  0  0  0  0  0  0  0  0  0  0
    4.5981    2.5981    0.0000 C   0  0  0  0  0  0  0  0  0  0  0  0
   11.7321   -3.0981    0.0000 C   0  0  0  0  0  0  0  0  0  0  0  0
   13.4641   -3.0981    0.0000 C   0  0  0  0  0  0  0  0  0  0  0  0
    3.7320    3.0981    0.0000 C   0  0  0  0  0  0  0  0  0  0  0  0
    5.4641    3.0981    0.0000 C   0  0  0  0  0  0  0  0  0  0  0  0
   11.7321   -4.0981    0.0000 C   0  0  0  0  0  0  0  0  0  0  0  0
   13.4641   -4.0981    0.0000 C   0  0  0  0  0  0  0  0  0  0  0  0
    3.7320    4.0981    0.0000 C   0  0  0  0  0  0  0  0  0  0  0  0
    5.4641    4.0981    0.0000 C   0  0  0  0  0  0  0  0  0  0  0  0
   13.0981   -1.7320    0.0000 C   0  0  0  0  0  0  0  0  0  0  0  0
    4.0981    1.7320    0.0000 C   0  0  0  0  0  0  0  0  0  0  0  0
   12.5981   -5.5981    0.0000 C   0  0  0  0  0  0  0  0  0  0  0  0
    4.5981    5.5981    0.0000 C   0  0  0  0  0  0  0  0  0  0  0  0
   11.7321   -6.0981    0.0000 C   0  0  0  0  0  0  0  0  0  0  0  0
    3.7320    6.0981    0.0000 C   0  0  0  0  0  0  0  0  0  0  0  0
   12.5981   -0.8660    0.0000 C   0  0  0  0  0  0  0  0  0  0  0  0
    4.5981    0.8660    0.0000 C   0  0  0  0  0  0  0  0  0  0  0  0
   14.0981   -1.7320    0.0000 C   0  0  0  0  0  0  0  0  0  0  0  0
    3.0981    1.7320    0.0000 C   0  0  0  0  0  0  0  0  0  0  0  0
   11.0981   -1.7320    0.0000 C   0  0  0  0  0  0  0  0  0  0  0  0
    6.0981    1.7320    0.0000 C   0  0  0  0  0  0  0  0  0  0  0  0
   11.7321   -7.0981    0.0000 C   0  0  0  0  0  0  0  0  0  0  0  0
    3.7320    7.0981    0.0000 C   0  0  0  0  0  0  0  0  0  0  0  0
   10.5981   -0.8660    0.0000 C   0  0  0  0  0  0  0  0  0  0  0  0
    6.5981    0.8660    0.0000 C   0  0  0  0  0  0  0  0  0  0  0  0
    9.5981   -0.8660    0.0000 C   0  0  0  0  0  0  0  0  0  0  0  0
    7.5981    0.8660    0.0000 C   0  0  0  0  0  0  0  0  0  0  0  0
    9.0981   -0.0000    0.0000 C   0  0  0  0  0  0  0  0  0  0  0  0
    8.0981   -0.0000    0.0000 C   0  0  0  0  0  0  0  0  0  0  0  0
   13.0981   -0.0000    0.0000 C   0  0  0  0  0  0  0  0  0  0  0  0
    4.0981   -0.0000    0.0000 C   0  0  0  0  0  0  0  0  0  0  0  0
   14.5981   -0.8660    0.0000 C   0  0  0  0  0  0  0  0  0  0  0  0
    2.5981    0.8660    0.0000 C   0  0  0  0  0  0  0  0  0  0  0  0
   14.0981   -0.0000    0.0000 C   0  0  0  0  0  0  0  0  0  0  0  0
    3.0981   -0.0000    0.0000 C   0  0  0  0  0  0  0  0  0  0  0  0
   10.8660   -7.5981    0.0000 C   0  0  0  0  0  0  0  0  0  0  0  0
    2.8660    7.5981    0.0000 C   0  0  0  0  0  0  0  0  0  0  0  0
   10.8660   -8.5981    0.0000 C   0  0  0  0  0  0  0  0  0  0  0  0
    2.8660    8.5981    0.0000 C   0  0  0  0  0  0  0  0  0  0  0  0
   10.0000   -9.0981    0.0000 C   0  0  0  0  0  0  0  0  0  0  0  0
    3.7320    9.0981    0.0000 C   0  0  0  0  0  0  0  0  0  0  0  0
   11.7321   -9.0981    0.0000 C   0  0  0  0  0  0  0  0  0  0  0  0
    2.0000    9.0981    0.0000 C   0  0  0  0  0  0  0  0  0  0  0  0
   10.0000  -10.0981    0.0000 C   0  0  0  0  0  0  0  0  0  0  0  0
    3.7320   10.0981    0.0000 C   0  0  0  0  0  0  0  0  0  0  0  0
   11.7321  -10.0981    0.0000 C   0  0  0  0  0  0  0  0  0  0  0  0
    2.0000   10.0981    0.0000 C   0  0  0  0  0  0  0  0  0  0  0  0
   10.8660  -10.5981    0.0000 C   0  0  0  0  0  0  0  0  0  0  0  0
    2.8660   10.5981    0.0000 C   0  0  0  0  0  0  0  0  0  0  0  0
   11.5200   -2.5155    0.0000 H   0  0  0  0  0  0  0  0  0  0  0  0
   11.1215   -3.2057    0.0000 H   0  0  0  0  0  0  0  0  0  0  0  0
   14.0747   -3.2057    0.0000 H   0  0  0  0  0  0  0  0  0  0  0  0
   13.6762   -2.5155    0.0000 H   0  0  0  0  0  0  0  0  0  0  0  0
    3.1215    3.2057    0.0000 H   0  0  0  0  0  0  0  0  0  0  0  0
    3.5200    2.5155    0.0000 H   0  0  0  0  0  0  0  0  0  0  0  0
    5.6762    2.5155    0.0000 H   0  0  0  0  0  0  0  0  0  0  0  0
    6.0747    3.2057    0.0000 H   0  0  0  0  0  0  0  0  0  0  0  0
   11.1215   -3.9904    0.0000 H   0  0  0  0  0  0  0  0  0  0  0  0
   11.5200   -4.6807    0.0000 H   0  0  0  0  0  0  0  0  0  0  0  0
   13.6762   -4.6807    0.0000 H   0  0  0  0  0  0  0  0  0  0  0  0
   14.0747   -3.9904    0.0000 H   0  0  0  0  0  0  0  0  0  0  0  0
    3.5200    4.6807    0.0000 H   0  0  0  0  0  0  0  0  0  0  0  0
    3.1215    3.9904    0.0000 H   0  0  0  0  0  0  0  0  0  0  0  0
    6.0747    3.9904    0.0000 H   0  0  0  0  0  0  0  0  0  0  0  0
    5.6762    4.6807    0.0000 H   0  0  0  0  0  0  0  0  0  0  0  0
   12.8101   -6.1807    0.0000 H   0  0  0  0  0  0  0  0  0  0  0  0
   13.2087   -5.4904    0.0000 H   0  0  0  0  0  0  0  0  0  0  0  0
    5.2087    5.4904    0.0000 H   0  0  0  0  0  0  0  0  0  0  0  0
    4.8101    6.1807    0.0000 H   0  0  0  0  0  0  0  0  0  0  0  0
   11.5200   -5.5155    0.0000 H   0  0  0  0  0  0  0  0  0  0  0  0
   11.1215   -6.2057    0.0000 H   0  0  0  0  0  0  0  0  0  0  0  0
    3.1215    6.2057    0.0000 H   0  0  0  0  0  0  0  0  0  0  0  0
    3.5200    5.5155    0.0000 H   0  0  0  0  0  0  0  0  0  0  0  0
   11.9781   -0.8660    0.0000 H   0  0  0  0  0  0  0  0  0  0  0  0
    5.2181    0.8660    0.0000 H   0  0  0  0  0  0  0  0  0  0  0  0
   14.4081   -2.2690    0.0000 H   0  0  0  0  0  0  0  0  0  0  0  0
    2.7881    2.2690    0.0000 H   0  0  0  0  0  0  0  0  0  0  0  0
   11.9441   -7.6807    0.0000 H   0  0  0  0  0  0  0  0  0  0  0  0
   12.3426   -6.9904    0.0000 H   0  0  0  0  0  0  0  0  0  0  0  0
    4.3426    6.9904    0.0000 H   0  0  0  0  0  0  0  0  0  0  0  0
    3.9441    7.6807    0.0000 H   0  0  0  0  0  0  0  0  0  0  0  0
   11.1807   -0.6540    0.0000 H   0  0  0  0  0  0  0  0  0  0  0  0
   10.4904   -0.2554    0.0000 H   0  0  0  0  0  0  0  0  0  0  0  0
    6.0155    0.6540    0.0000 H   0  0  0  0  0  0  0  0  0  0  0  0
    6.7057    0.2554    0.0000 H   0  0  0  0  0  0  0  0  0  0  0  0
    9.0155   -1.0781    0.0000 H   0  0  0  0  0  0  0  0  0  0  0  0
    9.7057   -1.4766    0.0000 H   0  0  0  0  0  0  0  0  0  0  0  0
    8.1807    1.0781    0.0000 H   0  0  0  0  0  0  0  0  0  0  0  0
    7.4904    1.4766    0.0000 H   0  0  0  0  0  0  0  0  0  0  0  0
    9.6807    0.2121    0.0000 H   0  0  0  0  0  0  0  0  0  0  0  0
    8.9904    0.6106    0.0000 H   0  0  0  0  0  0  0  0  0  0  0  0
    7.5155   -0.2121    0.0000 H   0  0  0  0  0  0  0  0  0  0  0  0
    8.2057   -0.6106    0.0000 H   0  0  0  0  0  0  0  0  0  0  0  0
   12.7881    0.5369    0.0000 H   0  0  0  0  0  0  0  0  0  0  0  0
    4.4081   -0.5369    0.0000 H   0  0  0  0  0  0  0  0  0  0  0  0
   15.2181   -0.8660    0.0000 H   0  0  0  0  0  0  0  0  0  0  0  0
    1.9781    0.8660    0.0000 H   0  0  0  0  0  0  0  0  0  0  0  0
    9.4631   -8.7881    0.0000 H   0  0  0  0  0  0  0  0  0  0  0  0
    4.2690    8.7881    0.0000 H   0  0  0  0  0  0  0  0  0  0  0  0
   12.2690   -8.7881    0.0000 H   0  0  0  0  0  0  0  0  0  0  0  0
    1.4631    8.7881    0.0000 H   0  0  0  0  0  0  0  0  0  0  0  0
    9.4631  -10.4081    0.0000 H   0  0  0  0  0  0  0  0  0  0  0  0
    4.2690   10.4081    0.0000 H   0  0  0  0  0  0  0  0  0  0  0  0
   12.2690  -10.4081    0.0000 H   0  0  0  0  0  0  0  0  0  0  0  0
    1.4631   10.4081    0.0000 H   0  0  0  0  0  0  0  0  0  0  0  0
  1 47  1  0  0  0  0
  2 48  1  0  0  0  0
  3 61  1  0  0  0  0
  4 62  1  0  0  0  0
  5 13  1  0  0  0  0
  5 33  1  0  0  0  0
  6 14  1  0  0  0  0
  6 34  1  0  0  0  0
  7 33  2  0  0  0  0
  8 34  2  0  0  0  0
  9 49  2  0  0  0  0
 10 50  2  0  0  0  0
 11 19  1  0  0  0  0
 11 20  1  0  0  0  0
 11 25  1  0  0  0  0
 12 21  1  0  0  0  0
 12 22  1  0  0  0  0
 12 26  1  0  0  0  0
 13 15  1  0  0  0  0
 13 16  1  0  0  0  0
 13 23  1  0  0  0  0
 14 17  1  0  0  0  0
 14 18  1  0  0  0  0
 14 24  1  0  0  0  0
 15 19  1  0  0  0  0
 15 63  1  0  0  0  0
 15 64  1  0  0  0  0
 16 20  1  0  0  0  0
 16 65  1  0  0  0  0
 16 66  1  0  0  0  0
 17 21  1  0  0  0  0
 17 67  1  0  0  0  0
 17 68  1  0  0  0  0
 18 22  1  0  0  0  0
 18 69  1  0  0  0  0
 18 70  1  0  0  0  0
 19 71  1  0  0  0  0
 19 72  1  0  0  0  0
 20 73  1  0  0  0  0
 20 74  1  0  0  0  0
 21 75  1  0  0  0  0
 21 76  1  0  0  0  0
 22 77  1  0  0  0  0
 22 78  1  0  0  0  0
 23 29  2  0  0  0  0
 23 31  1  0  0  0  0
 24 30  2  0  0  0  0
 24 32  1  0  0  0  0
 25 27  1  0  0  0  0
 25 79  1  0  0  0  0
 25 80  1  0  0  0  0
 26 28  1  0  0  0  0
 26 81  1  0  0  0  0
 26 82  1  0  0  0  0
 27 35  1  0  0  0  0
 27 83  1  0  0  0  0
 27 84  1  0  0  0  0
 28 36  1  0  0  0  0
 28 85  1  0  0  0  0
 28 86  1  0  0  0  0
 29 43  1  0  0  0  0
 29 87  1  0  0  0  0
 30 44  1  0  0  0  0
 30 88  1  0  0  0  0
 31 45  2  0  0  0  0
 31 89  1  0  0  0  0
 32 46  2  0  0  0  0
 32 90  1  0  0  0  0
 33 37  1  0  0  0  0
 34 38  1  0  0  0  0
 35 49  1  0  0  0  0
 35 91  1  0  0  0  0
 35 92  1  0  0  0  0
 36 50  1  0  0  0  0
 36 93  1  0  0  0  0
 36 94  1  0  0  0  0
 37 39  1  0  0  0  0
 37 95  1  0  0  0  0
 37 96  1  0  0  0  0
 38 40  1  0  0  0  0
 38 97  1  0  0  0  0
 38 98  1  0  0  0  0
 39 41  1  0  0  0  0
 39 99  1  0  0  0  0
 39100  1  0  0  0  0
 40 42  1  0  0  0  0
 40101  1  0  0  0  0
 40102  1  0  0  0  0
 41 42  1  0  0  0  0
 41103  1  0  0  0  0
 41104  1  0  0  0  0
 42105  1  0  0  0  0
 42106  1  0  0  0  0
 43 47  2  0  0  0  0
 43107  1  0  0  0  0
 44 48  2  0  0  0  0
 44108  1  0  0  0  0
 45 47  1  0  0  0  0
 45109  1  0  0  0  0
 46 48  1  0  0  0  0
 46110  1  0  0  0  0
 49 51  1  0  0  0  0
 50 52  1  0  0  0  0
 51 53  2  0  0  0  0
 51 55  1  0  0  0  0
 52 54  2  0  0  0  0
 52 56  1  0  0  0  0
 53 57  1  0  0  0  0
 53111  1  0  0  0  0
 54 58  1  0  0  0  0
 54112  1  0  0  0  0
 55 59  2  0  0  0  0
 55113  1  0  0  0  0
 56 60  2  0  0  0  0
 56114  1  0  0  0  0
 57 61  2  0  0  0  0
 57115  1  0  0  0  0
 58 62  2  0  0  0  0
 58116  1  0  0  0  0
 59 61  1  0  0  0  0
 59117  1  0  0  0  0
 60 62  1  0  0  0  0
 60118  1  0  0  0  0
M  END
> <PUBCHEM_COMPOUND_CID>
118709163

> <PUBCHEM_COMPOUND_CANONICALIZED>
1

> <PUBCHEM_CACTVS_COMPLEXITY>
1290

> <PUBCHEM_CACTVS_HBOND_ACCEPTOR>
10

> <PUBCHEM_CACTVS_HBOND_DONOR>
0

> <PUBCHEM_CACTVS_ROTATABLE_BOND>
23

> <PUBCHEM_CACTVS_SUBSKEYS>
AAADcfB/OYAGAAAAAAAAAAAAAAAAAAAAAAA8eMGCAAAAAAABVAAAHwIAAAAADEbBmCwwCIMABACIAqDSCAACAAAkBQAIiAEICsgIJjKBtxiGMQAmwAGIqYecyOCOhAAAAAAAAAAIAAAAAAAAAAAAAAAAAA==

> <PUBCHEM_IUPAC_OPENEYE_NAME>
bis[4-(4-chlorophenyl)-1-[4-(4-fluorophenyl)-4-oxo-butyl]-4-piperidyl] octanedioate

> <PUBCHEM_IUPAC_CAS_NAME>
octanedioic acid bis[4-(4-chlorophenyl)-1-[4-(4-fluorophenyl)-4-oxobutyl]-4-piperidinyl] ester

> <PUBCHEM_IUPAC_NAME_MARKUP>
bis[4-(4-chlorophenyl)-1-[4-(4-fluorophenyl)-4-oxobutyl]piperidin-4-yl] octanedioate

> <PUBCHEM_IUPAC_NAME>
bis[4-(4-chlorophenyl)-1-[4-(4-fluorophenyl)-4-oxobutyl]piperidin-4-yl] octanedioate

> <PUBCHEM_IUPAC_SYSTEMATIC_NAME>
bis[4-(4-chlorophenyl)-1-[4-(4-fluorophenyl)-4-oxidanylidene-butyl]piperidin-4-yl] octanedioate

> <PUBCHEM_IUPAC_TRADITIONAL_NAME>
suberic acid bis[4-(4-chlorophenyl)-1-[4-(4-fluorophenyl)-4-keto-butyl]-4-piperidyl] ester

> <PUBCHEM_IUPAC_INCHI>
InChI=1S/C50H56Cl2F2N2O6/c51-41-19-15-39(16-20-41)49(27-33-55(34-28-49)31-5-7-45(57)37-11-23-43(53)24-12-37)61-47(59)9-3-1-2-4-10-48(60)62-50(40-17-21-42(52)22-18-40)29-35-56(36-30-50)32-6-8-46(58)38-13-25-44(54)26-14-38/h11-26H,1-10,27-36H2

> <PUBCHEM_IUPAC_INCHIKEY>
DPDUJCCKQWFBBQ-UHFFFAOYSA-N

> <PUBCHEM_XLOGP3_AA>
10.2

> <PUBCHEM_EXACT_MASS>
888.3483492

> <PUBCHEM_MOLECULAR_FORMULA>
C50H56Cl2F2N2O6

> <PUBCHEM_MOLECULAR_WEIGHT>
889.9

> <PUBCHEM_OPENEYE_CAN_SMILES>
C1CN(CCC1(C2=CC=C(C=C2)Cl)OC(=O)CCCCCCC(=O)OC3(CCN(CC3)CCCC(=O)C4=CC=C(C=C4)F)C5=CC=C(C=C5)Cl)CCCC(=O)C6=CC=C(C=C6)F

> <PUBCHEM_OPENEYE_ISO_SMILES>
C1CN(CCC1(C2=CC=C(C=C2)Cl)OC(=O)CCCCCCC(=O)OC3(CCN(CC3)CCCC(=O)C4=CC=C(C=C4)F)C5=CC=C(C=C5)Cl)CCCC(=O)C6=CC=C(C=C6)F

> <PUBCHEM_CACTVS_TPSA>
93.2

> <PUBCHEM_MONOISOTOPIC_WEIGHT>
888.3483492

> <PUBCHEM_TOTAL_CHARGE>
0

> <PUBCHEM_HEAVY_ATOM_COUNT>
62

> <PUBCHEM_ATOM_DEF_STEREO_COUNT>
0

> <PUBCHEM_ATOM_UDEF_STEREO_COUNT>
0

> <PUBCHEM_BOND_DEF_STEREO_COUNT>
0

> <PUBCHEM_BOND_UDEF_STEREO_COUNT>
0

> <PUBCHEM_ISOTOPIC_ATOM_COUNT>
0

> <PUBCHEM_COMPONENT_COUNT>
1

> <PUBCHEM_CACTVS_TAUTO_COUNT>
-1

> <PUBCHEM_COORDINATE_TYPE>
1
5
255

> <PUBCHEM_BONDANNOTATIONS>
23  29  8
23  31  8
24  30  8
24  32  8
29  43  8
30  44  8
31  45  8
32  46  8
43  47  8
44  48  8
45  47  8
46  48  8
51  53  8
51  55  8
52  54  8
52  56  8
53  57  8
54  58  8
55  59  8
56  60  8
57  61  8
58  62  8
59  61  8
60  62  8

$$$$
