76325786
  -OEChem-09292321592D

104111  0     1  0  0  0  0  0999 V2000
   21.1874    1.2388    0.0000 O   0  0  0  0  0  0  0  0  0  0  0  0
    6.3637   -1.2388    0.0000 O   0  0  0  0  0  0  0  0  0  0  0  0
   19.4056    0.2283    0.0000 O   0  0  0  0  0  0  0  0  0  0  0  0
    8.1455   -0.2283    0.0000 O   0  0  0  0  0  0  0  0  0  0  0  0
   15.0698   -1.2550    0.0000 O   0  0  0  0  0  0  0  0  0  0  0  0
   12.4813    1.2550    0.0000 O   0  0  0  0  0  0  0  0  0  0  0  0
   24.6600   -1.7928    0.0000 N   0  0  3  0  0  0  0  0  0  0  0  0
    2.8911    1.7928    0.0000 N   0  0  3  0  0  0  0  0  0  0  0  0
   15.9416    0.2417    0.0000 N   0  0  0  0  0  0  0  0  0  0  0  0
   11.6095   -0.2417    0.0000 N   0  0  0  0  0  0  0  0  0  0  0  0
   23.8018   -1.2958    0.0000 C   0  0  1  0  0  0  0  0  0  0  0  0
    3.7493    1.2958    0.0000 C   0  0  1  0  0  0  0  0  0  0  0  0
   23.8018   -0.2958    0.0000 C   0  0  0  0  0  0  0  0  0  0  0  0
    3.7493    0.2958    0.0000 C   0  0  0  0  0  0  0  0  0  0  0  0
   22.9358   -1.7958    0.0000 C   0  0  0  0  0  0  0  0  0  0  0  0
    4.6153    1.7958    0.0000 C   0  0  0  0  0  0  0  0  0  0  0  0
   24.7118    0.2110    0.0000 C   0  0  0  0  0  0  0  0  0  0  0  0
    2.8393   -0.2110    0.0000 C   0  0  0  0  0  0  0  0  0  0  0  0
   25.5255   -1.3086    0.0000 C   0  0  0  0  0  0  0  0  0  0  0  0
    2.0256    1.3086    0.0000 C   0  0  0  0  0  0  0  0  0  0  0  0
   25.5511   -0.3172    0.0000 C   0  0  0  0  0  0  0  0  0  0  0  0
    2.0000    0.3172    0.0000 C   0  0  0  0  0  0  0  0  0  0  0  0
   22.9358    0.2042    0.0000 C   0  0  0  0  0  0  0  0  0  0  0  0
    4.6153   -0.2042    0.0000 C   0  0  0  0  0  0  0  0  0  0  0  0
   22.0697   -1.2958    0.0000 C   0  0  0  0  0  0  0  0  0  0  0  0
    5.4814    1.2958    0.0000 C   0  0  0  0  0  0  0  0  0  0  0  0
   22.0697   -0.2958    0.0000 C   0  0  0  0  0  0  0  0  0  0  0  0
    5.4814    0.2958    0.0000 C   0  0  0  0  0  0  0  0  0  0  0  0
   24.6526   -2.7928    0.0000 C   0  0  0  0  0  0  0  0  0  0  0  0
    2.8985    2.7928    0.0000 C   0  0  0  0  0  0  0  0  0  0  0  0
   24.7198    1.2526    0.0000 C   0  0  0  0  0  0  0  0  0  0  0  0
    2.8313   -1.2526    0.0000 C   0  0  0  0  0  0  0  0  0  0  0  0
   22.9197    1.2457    0.0000 C   0  0  0  0  0  0  0  0  0  0  0  0
    4.6314   -1.2457    0.0000 C   0  0  0  0  0  0  0  0  0  0  0  0
   21.1758    0.2388    0.0000 C   0  0  0  0  0  0  0  0  0  0  0  0
    6.3753   -0.2388    0.0000 C   0  0  0  0  0  0  0  0  0  0  0  0
   21.1758   -1.8305    0.0000 C   0  0  0  0  0  0  0  0  0  0  0  0
    6.3753    1.8305    0.0000 C   0  0  0  0  0  0  0  0  0  0  0  0
   23.8177    1.7734    0.0000 C   0  0  0  0  0  0  0  0  0  0  0  0
    3.7334   -1.7734    0.0000 C   0  0  0  0  0  0  0  0  0  0  0  0
   20.2697   -0.2750    0.0000 C   0  0  0  0  0  0  0  0  0  0  0  0
    7.2814    0.2750    0.0000 C   0  0  0  0  0  0  0  0  0  0  0  0
   20.2697   -1.3167    0.0000 C   0  0  0  0  0  0  0  0  0  0  0  0
    7.2814    1.3167    0.0000 C   0  0  0  0  0  0  0  0  0  0  0  0
   18.5377   -0.2684    0.0000 C   0  0  0  0  0  0  0  0  0  0  0  0
    9.0134    0.2684    0.0000 C   0  0  0  0  0  0  0  0  0  0  0  0
   17.6736    0.2350    0.0000 C   0  0  0  0  0  0  0  0  0  0  0  0
    9.8775   -0.2350    0.0000 C   0  0  0  0  0  0  0  0  0  0  0  0
   16.8057   -0.2617    0.0000 C   0  0  0  0  0  0  0  0  0  0  0  0
   10.7455    0.2617    0.0000 C   0  0  0  0  0  0  0  0  0  0  0  0
   15.0736   -0.2550    0.0000 C   0  0  0  0  0  0  0  0  0  0  0  0
   12.4775    0.2550    0.0000 C   0  0  0  0  0  0  0  0  0  0  0  0
   14.2095    0.2483    0.0000 C   0  0  0  0  0  0  0  0  0  0  0  0
   13.3416   -0.2483    0.0000 C   0  0  0  0  0  0  0  0  0  0  0  0
   23.8013   -2.1458    0.0000 H   0  0  0  0  0  0  0  0  0  0  0  0
    3.7498    2.1458    0.0000 H   0  0  0  0  0  0  0  0  0  0  0  0
   22.5372   -2.2708    0.0000 H   0  0  0  0  0  0  0  0  0  0  0  0
   23.3343   -2.2708    0.0000 H   0  0  0  0  0  0  0  0  0  0  0  0
    5.0139    2.2708    0.0000 H   0  0  0  0  0  0  0  0  0  0  0  0
    4.2168    2.2708    0.0000 H   0  0  0  0  0  0  0  0  0  0  0  0
   25.7272   -1.8949    0.0000 H   0  0  0  0  0  0  0  0  0  0  0  0
   26.1383   -1.2142    0.0000 H   0  0  0  0  0  0  0  0  0  0  0  0
    1.8239    1.8949    0.0000 H   0  0  0  0  0  0  0  0  0  0  0  0
    1.4128    1.2142    0.0000 H   0  0  0  0  0  0  0  0  0  0  0  0
   26.1582   -0.4431    0.0000 H   0  0  0  0  0  0  0  0  0  0  0  0
   25.7829    0.2578    0.0000 H   0  0  0  0  0  0  0  0  0  0  0  0
    1.3929    0.4431    0.0000 H   0  0  0  0  0  0  0  0  0  0  0  0
    1.7682   -0.2578    0.0000 H   0  0  0  0  0  0  0  0  0  0  0  0
   24.0326   -2.7882    0.0000 H   0  0  0  0  0  0  0  0  0  0  0  0
   24.6480   -3.4127    0.0000 H   0  0  0  0  0  0  0  0  0  0  0  0
   25.2726   -2.7973    0.0000 H   0  0  0  0  0  0  0  0  0  0  0  0
    3.5185    2.7882    0.0000 H   0  0  0  0  0  0  0  0  0  0  0  0
    2.9031    3.4127    0.0000 H   0  0  0  0  0  0  0  0  0  0  0  0
    2.2785    2.7973    0.0000 H   0  0  0  0  0  0  0  0  0  0  0  0
   25.2579    1.5605    0.0000 H   0  0  0  0  0  0  0  0  0  0  0  0
    2.2932   -1.5605    0.0000 H   0  0  0  0  0  0  0  0  0  0  0  0
   22.3792    1.5494    0.0000 H   0  0  0  0  0  0  0  0  0  0  0  0
    5.1719   -1.5494    0.0000 H   0  0  0  0  0  0  0  0  0  0  0  0
   21.1830   -2.4505    0.0000 H   0  0  0  0  0  0  0  0  0  0  0  0
    6.3681    2.4505    0.0000 H   0  0  0  0  0  0  0  0  0  0  0  0
   23.8154    2.3934    0.0000 H   0  0  0  0  0  0  0  0  0  0  0  0
    3.7358   -2.3934    0.0000 H   0  0  0  0  0  0  0  0  0  0  0  0
   19.7340   -1.6287    0.0000 H   0  0  0  0  0  0  0  0  0  0  0  0
    7.8171    1.6287    0.0000 H   0  0  0  0  0  0  0  0  0  0  0  0
   20.6540    1.5549    0.0000 H   0  0  0  0  0  0  0  0  0  0  0  0
    6.8971   -1.5549    0.0000 H   0  0  0  0  0  0  0  0  0  0  0  0
   18.1373   -0.7418    0.0000 H   0  0  0  0  0  0  0  0  0  0  0  0
   18.9344   -0.7448    0.0000 H   0  0  0  0  0  0  0  0  0  0  0  0
    9.4138    0.7418    0.0000 H   0  0  0  0  0  0  0  0  0  0  0  0
    8.6167    0.7448    0.0000 H   0  0  0  0  0  0  0  0  0  0  0  0
   18.0740    0.7084    0.0000 H   0  0  0  0  0  0  0  0  0  0  0  0
   17.2769    0.7115    0.0000 H   0  0  0  0  0  0  0  0  0  0  0  0
    9.4772   -0.7084    0.0000 H   0  0  0  0  0  0  0  0  0  0  0  0
   10.2742   -0.7115    0.0000 H   0  0  0  0  0  0  0  0  0  0  0  0
   16.4053   -0.7351    0.0000 H   0  0  0  0  0  0  0  0  0  0  0  0
   17.2024   -0.7382    0.0000 H   0  0  0  0  0  0  0  0  0  0  0  0
   11.1458    0.7351    0.0000 H   0  0  0  0  0  0  0  0  0  0  0  0
   10.3488    0.7382    0.0000 H   0  0  0  0  0  0  0  0  0  0  0  0
   15.9440    0.8616    0.0000 H   0  0  0  0  0  0  0  0  0  0  0  0
   11.6072   -0.8616    0.0000 H   0  0  0  0  0  0  0  0  0  0  0  0
   14.6099    0.7217    0.0000 H   0  0  0  0  0  0  0  0  0  0  0  0
   13.8128    0.7248    0.0000 H   0  0  0  0  0  0  0  0  0  0  0  0
   12.9412   -0.7217    0.0000 H   0  0  0  0  0  0  0  0  0  0  0  0
   13.7383   -0.7248    0.0000 H   0  0  0  0  0  0  0  0  0  0  0  0
  1 35  1  0  0  0  0
  1 85  1  0  0  0  0
  2 36  1  0  0  0  0
  2 86  1  0  0  0  0
  3 41  1  0  0  0  0
  3 45  1  0  0  0  0
  4 42  1  0  0  0  0
  4 46  1  0  0  0  0
  5 51  2  0  0  0  0
  6 52  2  0  0  0  0
  7 11  1  0  0  0  0
  7 19  1  0  0  0  0
  7 29  1  0  0  0  0
  8 12  1  0  0  0  0
  8 20  1  0  0  0  0
  8 30  1  0  0  0  0
  9 49  1  0  0  0  0
  9 51  1  0  0  0  0
  9 99  1  0  0  0  0
 10 50  1  0  0  0  0
 10 52  1  0  0  0  0
 10100  1  0  0  0  0
 11 13  1  0  0  0  0
 11 15  1  0  0  0  0
 11 55  1  1  0  0  0
 12 14  1  0  0  0  0
 12 16  1  0  0  0  0
 12 56  1  1  0  0  0
 13 17  2  0  0  0  0
 13 23  1  0  0  0  0
 14 18  2  0  0  0  0
 14 24  1  0  0  0  0
 15 25  1  0  0  0  0
 15 57  1  0  0  0  0
 15 58  1  0  0  0  0
 16 26  1  0  0  0  0
 16 59  1  0  0  0  0
 16 60  1  0  0  0  0
 17 21  1  0  0  0  0
 17 31  1  0  0  0  0
 18 22  1  0  0  0  0
 18 32  1  0  0  0  0
 19 21  1  0  0  0  0
 19 61  1  0  0  0  0
 19 62  1  0  0  0  0
 20 22  1  0  0  0  0
 20 63  1  0  0  0  0
 20 64  1  0  0  0  0
 21 65  1  0  0  0  0
 21 66  1  0  0  0  0
 22 67  1  0  0  0  0
 22 68  1  0  0  0  0
 23 27  1  0  0  0  0
 23 33  2  0  0  0  0
 24 28  1  0  0  0  0
 24 34  2  0  0  0  0
 25 27  2  0  0  0  0
 25 37  1  0  0  0  0
 26 28  2  0  0  0  0
 26 38  1  0  0  0  0
 27 35  1  0  0  0  0
 28 36  1  0  0  0  0
 29 69  1  0  0  0  0
 29 70  1  0  0  0  0
 29 71  1  0  0  0  0
 30 72  1  0  0  0  0
 30 73  1  0  0  0  0
 30 74  1  0  0  0  0
 31 39  2  0  0  0  0
 31 75  1  0  0  0  0
 32 40  2  0  0  0  0
 32 76  1  0  0  0  0
 33 39  1  0  0  0  0
 33 77  1  0  0  0  0
 34 40  1  0  0  0  0
 34 78  1  0  0  0  0
 35 41  2  0  0  0  0
 36 42  2  0  0  0  0
 37 43  2  0  0  0  0
 37 79  1  0  0  0  0
 38 44  2  0  0  0  0
 38 80  1  0  0  0  0
 39 81  1  0  0  0  0
 40 82  1  0  0  0  0
 41 43  1  0  0  0  0
 42 44  1  0  0  0  0
 43 83  1  0  0  0  0
 44 84  1  0  0  0  0
 45 47  1  0  0  0  0
 45 87  1  0  0  0  0
 45 88  1  0  0  0  0
 46 48  1  0  0  0  0
 46 89  1  0  0  0  0
 46 90  1  0  0  0  0
 47 49  1  0  0  0  0
 47 91  1  0  0  0  0
 47 92  1  0  0  0  0
 48 50  1  0  0  0  0
 48 93  1  0  0  0  0
 48 94  1  0  0  0  0
 49 95  1  0  0  0  0
 49 96  1  0  0  0  0
 50 97  1  0  0  0  0
 50 98  1  0  0  0  0
 51 53  1  0  0  0  0
 52 54  1  0  0  0  0
 53 54  1  0  0  0  0
 53101  1  0  0  0  0
 53102  1  0  0  0  0
 54103  1  0  0  0  0
 54104  1  0  0  0  0
M  END
> <PUBCHEM_COMPOUND_CID>
76325786

> <PUBCHEM_COMPOUND_CANONICALIZED>
1

> <PUBCHEM_CACTVS_COMPLEXITY>
1180

> <PUBCHEM_CACTVS_HBOND_ACCEPTOR>
8

> <PUBCHEM_CACTVS_HBOND_DONOR>
4

> <PUBCHEM_CACTVS_ROTATABLE_BOND>
13

> <PUBCHEM_CACTVS_SUBSKEYS>
AAADcfB/uAAAAAAAAAAAAAAAAAAAAAAAAAA8eMGDAAAAAADxVAAAHgAQCAAADCzhmAYyBoPABgCIAiFSEACCCAAgIAAIiIEOjIgNJjKGsRuGeCvm1hGLuAeV0PMOoAADAAAYQADQAAaAADSAAAAAAAAAAA==

> <PUBCHEM_IUPAC_OPENEYE_NAME>
N,N'-bis[3-[[(6aR)-11-hydroxy-6-methyl-5,6,6a,7-tetrahydro-4H-dibenzo[de,g]quinolin-10-yl]oxy]propyl]butanediamide

> <PUBCHEM_IUPAC_CAS_NAME>
N,N'-bis[3-[[(6aR)-11-hydroxy-6-methyl-5,6,6a,7-tetrahydro-4H-dibenzo[de,g]quinolin-10-yl]oxy]propyl]butanediamide

> <PUBCHEM_IUPAC_NAME_MARKUP>
<I>N</I>,<I>N</I>&apos;-bis[3-[[(6<I>a</I><I>R</I>)-11-hydroxy-6-methyl-5,6,6<I>a</I>,7-tetrahydro-4<I>H</I>-dibenzo[de,g]quinolin-10-yl]oxy]propyl]butanediamide

> <PUBCHEM_IUPAC_NAME>
N,N'-bis[3-[[(6aR)-11-hydroxy-6-methyl-5,6,6a,7-tetrahydro-4H-dibenzo[de,g]quinolin-10-yl]oxy]propyl]butanediamide

> <PUBCHEM_IUPAC_SYSTEMATIC_NAME>
N,N'-bis[3-[[(6aR)-6-methyl-11-oxidanyl-5,6,6a,7-tetrahydro-4H-dibenzo[de,g]quinolin-10-yl]oxy]propyl]butanediamide

> <PUBCHEM_IUPAC_TRADITIONAL_NAME>
N,N'-bis[3-[[(6aR)-11-hydroxy-6-methyl-5,6,6a,7-tetrahydro-4H-dibenzo[de,g]quinolin-10-yl]oxy]propyl]succinamide

> <PUBCHEM_IUPAC_INCHI>
InChI=1S/C44H50N4O6/c1-47-21-17-27-7-3-9-31-39(27)33(47)25-29-11-13-35(43(51)41(29)31)53-23-5-19-45-37(49)15-16-38(50)46-20-6-24-54-36-14-12-30-26-34-40-28(18-22-48(34)2)8-4-10-32(40)42(30)44(36)52/h3-4,7-14,33-34,51-52H,5-6,15-26H2,1-2H3,(H,45,49)(H,46,50)/t33-,34-/m1/s1

> <PUBCHEM_IUPAC_INCHIKEY>
STGBYQRLSYKRRZ-KKLWWLSJSA-N

> <PUBCHEM_XLOGP3_AA>
5.2

> <PUBCHEM_EXACT_MASS>
730.37303533

> <PUBCHEM_MOLECULAR_FORMULA>
C44H50N4O6

> <PUBCHEM_MOLECULAR_WEIGHT>
730.9

> <PUBCHEM_OPENEYE_CAN_SMILES>
CN1CCC2=C3C1CC4=C(C3=CC=C2)C(=C(C=C4)OCCCNC(=O)CCC(=O)NCCCOC5=C(C6=C(CC7C8=C(CCN7C)C=CC=C86)C=C5)O)O

> <PUBCHEM_OPENEYE_ISO_SMILES>
CN1CCC2=C3[C@H]1CC4=C(C3=CC=C2)C(=C(C=C4)OCCCNC(=O)CCC(=O)NCCCOC5=C(C6=C(C[C@@H]7C8=C(CCN7C)C=CC=C86)C=C5)O)O

> <PUBCHEM_CACTVS_TPSA>
124

> <PUBCHEM_MONOISOTOPIC_WEIGHT>
730.37303533

> <PUBCHEM_TOTAL_CHARGE>
0

> <PUBCHEM_HEAVY_ATOM_COUNT>
54

> <PUBCHEM_ATOM_DEF_STEREO_COUNT>
2

> <PUBCHEM_ATOM_UDEF_STEREO_COUNT>
0

> <PUBCHEM_BOND_DEF_STEREO_COUNT>
0

> <PUBCHEM_BOND_UDEF_STEREO_COUNT>
0

> <PUBCHEM_ISOTOPIC_ATOM_COUNT>
0

> <PUBCHEM_COMPONENT_COUNT>
1

> <PUBCHEM_CACTVS_TAUTO_COUNT>
-1

> <PUBCHEM_COORDINATE_TYPE>
1
5
255

> <PUBCHEM_BONDANNOTATIONS>
11  55  5
12  56  5
13  17  8
13  23  8
14  18  8
14  24  8
17  31  8
18  32  8
23  33  8
24  34  8
25  27  8
25  37  8
26  28  8
26  38  8
27  35  8
28  36  8
31  39  8
32  40  8
33  39  8
34  40  8
35  41  8
36  42  8
37  43  8
38  44  8
41  43  8
42  44  8

$$$$
