11662306
  -OEChem-09292322312D

 54 57  0     0  0  0  0  0  0999 V2000
   15.0583   -0.9671    0.0000 Cl  0  0  0  0  0  0  0  0  0  0  0  0
   16.7942    0.0262    0.0000 Cl  0  0  0  0  0  0  0  0  0  0  0  0
    7.2622   -1.4370    0.0000 O   0  0  0  0  0  0  0  0  0  0  0  0
    2.0000   -1.4129    0.0000 O   0  0  0  0  0  0  0  0  0  0  0  0
   11.5942   -0.9537    0.0000 N   0  0  0  0  0  0  0  0  0  0  0  0
   13.3301    0.0396    0.0000 N   0  0  0  0  0  0  0  0  0  0  0  0
    5.4920   -1.4475    0.0000 N   0  0  0  0  0  0  0  0  0  0  0  0
    3.7320   -1.4129    0.0000 N   0  0  0  0  0  0  0  0  0  0  0  0
   11.5981    0.0463    0.0000 C   0  0  0  0  0  0  0  0  0  0  0  0
   12.4583   -1.4571    0.0000 C   0  0  0  0  0  0  0  0  0  0  0  0
   12.4660    0.5429    0.0000 C   0  0  0  0  0  0  0  0  0  0  0  0
   13.3262   -0.9604    0.0000 C   0  0  0  0  0  0  0  0  0  0  0  0
   10.7263   -1.4504    0.0000 C   0  0  0  0  0  0  0  0  0  0  0  0
    9.8622   -0.9471    0.0000 C   0  0  0  0  0  0  0  0  0  0  0  0
   14.1980    0.5362    0.0000 C   0  0  0  0  0  0  0  0  0  0  0  0
    8.9942   -1.4437    0.0000 C   0  0  0  0  0  0  0  0  0  0  0  0
    8.1301   -0.9404    0.0000 C   0  0  0  0  0  0  0  0  0  0  0  0
   15.0621    0.0329    0.0000 C   0  0  0  0  0  0  0  0  0  0  0  0
   14.2019    1.5362    0.0000 C   0  0  0  0  0  0  0  0  0  0  0  0
   15.9301    0.5296    0.0000 C   0  0  0  0  0  0  0  0  0  0  0  0
   15.0698    2.0329    0.0000 C   0  0  0  0  0  0  0  0  0  0  0  0
   15.9339    1.5296    0.0000 C   0  0  0  0  0  0  0  0  0  0  0  0
    6.3981   -0.9337    0.0000 C   0  0  0  0  0  0  0  0  0  0  0  0
    6.3981    0.1079    0.0000 C   0  0  0  0  0  0  0  0  0  0  0  0
    4.5981   -0.9129    0.0000 C   0  0  0  0  0  0  0  0  0  0  0  0
    4.5981    0.0871    0.0000 C   0  0  0  0  0  0  0  0  0  0  0  0
    5.4920    0.6218    0.0000 C   0  0  0  0  0  0  0  0  0  0  0  0
    3.7320    0.5871    0.0000 C   0  0  0  0  0  0  0  0  0  0  0  0
    2.8660   -0.9129    0.0000 C   0  0  0  0  0  0  0  0  0  0  0  0
    2.8660    0.0871    0.0000 C   0  0  0  0  0  0  0  0  0  0  0  0
   11.3882    0.6297    0.0000 H   0  0  0  0  0  0  0  0  0  0  0  0
   10.9871   -0.0590    0.0000 H   0  0  0  0  0  0  0  0  0  0  0  0
   12.0579   -1.9305    0.0000 H   0  0  0  0  0  0  0  0  0  0  0  0
   12.8550   -1.9336    0.0000 H   0  0  0  0  0  0  0  0  0  0  0  0
   12.8664    1.0163    0.0000 H   0  0  0  0  0  0  0  0  0  0  0  0
   12.0693    1.0194    0.0000 H   0  0  0  0  0  0  0  0  0  0  0  0
   13.5360   -1.5438    0.0000 H   0  0  0  0  0  0  0  0  0  0  0  0
   13.9372   -0.8551    0.0000 H   0  0  0  0  0  0  0  0  0  0  0  0
   10.3259   -1.9238    0.0000 H   0  0  0  0  0  0  0  0  0  0  0  0
   11.1229   -1.9269    0.0000 H   0  0  0  0  0  0  0  0  0  0  0  0
   10.2625   -0.4736    0.0000 H   0  0  0  0  0  0  0  0  0  0  0  0
    9.4655   -0.4706    0.0000 H   0  0  0  0  0  0  0  0  0  0  0  0
    8.5939   -1.9171    0.0000 H   0  0  0  0  0  0  0  0  0  0  0  0
    9.3909   -1.9202    0.0000 H   0  0  0  0  0  0  0  0  0  0  0  0
    8.5305   -0.4670    0.0000 H   0  0  0  0  0  0  0  0  0  0  0  0
    7.7334   -0.4639    0.0000 H   0  0  0  0  0  0  0  0  0  0  0  0
   13.6662    1.8483    0.0000 H   0  0  0  0  0  0  0  0  0  0  0  0
   15.0722    2.6529    0.0000 H   0  0  0  0  0  0  0  0  0  0  0  0
   16.4721    1.8375    0.0000 H   0  0  0  0  0  0  0  0  0  0  0  0
    6.9338    0.4200    0.0000 H   0  0  0  0  0  0  0  0  0  0  0  0
    5.4848    1.2417    0.0000 H   0  0  0  0  0  0  0  0  0  0  0  0
    3.7320   -2.0329    0.0000 H   0  0  0  0  0  0  0  0  0  0  0  0
    3.7320    1.2071    0.0000 H   0  0  0  0  0  0  0  0  0  0  0  0
    2.3291    0.3971    0.0000 H   0  0  0  0  0  0  0  0  0  0  0  0
  1 18  1  0  0  0  0
  2 20  1  0  0  0  0
  3 17  1  0  0  0  0
  3 23  1  0  0  0  0
  4 29  2  0  0  0  0
  5  9  1  0  0  0  0
  5 10  1  0  0  0  0
  5 13  1  0  0  0  0
  6 11  1  0  0  0  0
  6 12  1  0  0  0  0
  6 15  1  0  0  0  0
  7 23  2  0  0  0  0
  7 25  1  0  0  0  0
  8 25  1  0  0  0  0
  8 29  1  0  0  0  0
  8 52  1  0  0  0  0
  9 11  1  0  0  0  0
  9 31  1  0  0  0  0
  9 32  1  0  0  0  0
 10 12  1  0  0  0  0
 10 33  1  0  0  0  0
 10 34  1  0  0  0  0
 11 35  1  0  0  0  0
 11 36  1  0  0  0  0
 12 37  1  0  0  0  0
 12 38  1  0  0  0  0
 13 14  1  0  0  0  0
 13 39  1  0  0  0  0
 13 40  1  0  0  0  0
 14 16  1  0  0  0  0
 14 41  1  0  0  0  0
 14 42  1  0  0  0  0
 15 18  2  0  0  0  0
 15 19  1  0  0  0  0
 16 17  1  0  0  0  0
 16 43  1  0  0  0  0
 16 44  1  0  0  0  0
 17 45  1  0  0  0  0
 17 46  1  0  0  0  0
 18 20  1  0  0  0  0
 19 21  2  0  0  0  0
 19 47  1  0  0  0  0
 20 22  2  0  0  0  0
 21 22  1  0  0  0  0
 21 48  1  0  0  0  0
 22 49  1  0  0  0  0
 23 24  1  0  0  0  0
 24 27  2  0  0  0  0
 24 50  1  0  0  0  0
 25 26  2  0  0  0  0
 26 27  1  0  0  0  0
 26 28  1  0  0  0  0
 27 51  1  0  0  0  0
 28 30  2  0  0  0  0
 28 53  1  0  0  0  0
 29 30  1  0  0  0  0
 30 54  1  0  0  0  0
M  END
> <PUBCHEM_COMPOUND_CID>
11662306

> <PUBCHEM_COMPOUND_CANONICALIZED>
1

> <PUBCHEM_CACTVS_COMPLEXITY>
600

> <PUBCHEM_CACTVS_HBOND_ACCEPTOR>
5

> <PUBCHEM_CACTVS_HBOND_DONOR>
1

> <PUBCHEM_CACTVS_ROTATABLE_BOND>
7

> <PUBCHEM_CACTVS_SUBSKEYS>
AAADceB7sAAGAAAAAAAAAAAAAAAAAAAAAAA8WIEAAAAAAACBwAAAHgIQAAAADArhmiYx9JPIFACoAidydACCiCkhJyAJmmA+btiMZuLFu5veOCjs1RPI6aewEAIMAAAAAAIAABQAAAAABAAAKAAAAAAAAA==

> <PUBCHEM_IUPAC_OPENEYE_NAME>
7-[4-[4-(2,3-dichlorophenyl)piperazin-1-yl]butoxy]-1H-1,8-naphthyridin-2-one

> <PUBCHEM_IUPAC_CAS_NAME>
7-[4-[4-(2,3-dichlorophenyl)-1-piperazinyl]butoxy]-1H-1,8-naphthyridin-2-one

> <PUBCHEM_IUPAC_NAME_MARKUP>
7-[4-[4-(2,3-dichlorophenyl)piperazin-1-yl]butoxy]-1<I>H</I>-1,8-naphthyridin-2-one

> <PUBCHEM_IUPAC_NAME>
7-[4-[4-(2,3-dichlorophenyl)piperazin-1-yl]butoxy]-1H-1,8-naphthyridin-2-one

> <PUBCHEM_IUPAC_SYSTEMATIC_NAME>
7-[4-[4-[2,3-bis(chloranyl)phenyl]piperazin-1-yl]butoxy]-1H-1,8-naphthyridin-2-one

> <PUBCHEM_IUPAC_TRADITIONAL_NAME>
7-[4-[4-(2,3-dichlorophenyl)piperazino]butoxy]-1H-1,8-naphthyridin-2-one

> <PUBCHEM_IUPAC_INCHI>
InChI=1S/C22H24Cl2N4O2/c23-17-4-3-5-18(21(17)24)28-13-11-27(12-14-28)10-1-2-15-30-20-9-7-16-6-8-19(29)25-22(16)26-20/h3-9H,1-2,10-15H2,(H,25,26,29)

> <PUBCHEM_IUPAC_INCHIKEY>
XBWNTYFNUFPCHL-UHFFFAOYSA-N

> <PUBCHEM_XLOGP3_AA>
4.5

> <PUBCHEM_EXACT_MASS>
446.1276314

> <PUBCHEM_MOLECULAR_FORMULA>
C22H24Cl2N4O2

> <PUBCHEM_MOLECULAR_WEIGHT>
447.4

> <PUBCHEM_OPENEYE_CAN_SMILES>
C1CN(CCN1CCCCOC2=NC3=C(C=CC(=O)N3)C=C2)C4=C(C(=CC=C4)Cl)Cl

> <PUBCHEM_OPENEYE_ISO_SMILES>
C1CN(CCN1CCCCOC2=NC3=C(C=CC(=O)N3)C=C2)C4=C(C(=CC=C4)Cl)Cl

> <PUBCHEM_CACTVS_TPSA>
57.7

> <PUBCHEM_MONOISOTOPIC_WEIGHT>
446.1276314

> <PUBCHEM_TOTAL_CHARGE>
0

> <PUBCHEM_HEAVY_ATOM_COUNT>
30

> <PUBCHEM_ATOM_DEF_STEREO_COUNT>
0

> <PUBCHEM_ATOM_UDEF_STEREO_COUNT>
0

> <PUBCHEM_BOND_DEF_STEREO_COUNT>
0

> <PUBCHEM_BOND_UDEF_STEREO_COUNT>
0

> <PUBCHEM_ISOTOPIC_ATOM_COUNT>
0

> <PUBCHEM_COMPONENT_COUNT>
1

> <PUBCHEM_CACTVS_TAUTO_COUNT>
-1

> <PUBCHEM_COORDINATE_TYPE>
1
5
255

> <PUBCHEM_BONDANNOTATIONS>
15  18  8
15  19  8
18  20  8
19  21  8
20  22  8
21  22  8
23  24  8
24  27  8
25  26  8
26  27  8
26  28  8
28  30  8
29  30  8
7  23  8
7  25  8
8  25  8
8  29  8

$$$$
