155555224
  -OEChem-09292322422D

 51 54  0     1  0  0  0  0  0999 V2000
    9.3191    0.0482    0.0000 S   0  0  0  0  0  0  0  0  0  0  0  0
   10.2696    0.3588    0.0000 O   0  0  0  0  0  0  0  0  0  0  0  0
    8.3685   -0.2625    0.0000 O   0  0  0  0  0  0  0  0  0  0  0  0
    5.4641    0.8034    0.0000 N   0  0  0  0  0  0  0  0  0  0  0  0
    3.7320   -0.1966    0.0000 N   0  0  0  0  0  0  0  0  0  0  0  0
    9.0084    0.9987    0.0000 N   0  0  3  0  0  0  0  0  0  0  0  0
    4.5981    1.3034    0.0000 C   0  0  0  0  0  0  0  0  0  0  0  0
    5.4641   -0.1966    0.0000 C   0  0  0  0  0  0  0  0  0  0  0  0
    8.0622    1.3034    0.0000 C   0  0  0  0  0  0  0  0  0  0  0  0
    3.7320    0.8034    0.0000 C   0  0  0  0  0  0  0  0  0  0  0  0
    4.5981   -0.6966    0.0000 C   0  0  0  0  0  0  0  0  0  0  0  0
    8.0622    2.3034    0.0000 C   0  0  0  0  0  0  0  0  0  0  0  0
    6.3301    1.3034    0.0000 C   0  0  0  0  0  0  0  0  0  0  0  0
    9.5920    1.8034    0.0000 C   0  0  0  0  0  0  0  0  0  0  0  0
    9.0084    2.6081    0.0000 C   0  0  0  0  0  0  0  0  0  0  0  0
    7.1962    0.8034    0.0000 C   0  0  0  0  0  0  0  0  0  0  0  0
    7.1962    2.8034    0.0000 C   0  0  0  0  0  0  0  0  0  0  0  0
    2.8660   -0.6966    0.0000 C   0  0  0  0  0  0  0  0  0  0  0  0
    6.3301    2.3034    0.0000 C   0  0  0  0  0  0  0  0  0  0  0  0
    9.6297   -0.9024    0.0000 C   0  0  0  0  0  0  0  0  0  0  0  0
    2.0000   -0.1966    0.0000 C   0  0  0  0  0  0  0  0  0  0  0  0
   10.6082   -1.1086    0.0000 C   0  0  0  0  0  0  0  0  0  0  0  0
    8.9619   -1.6467    0.0000 C   0  0  0  0  0  0  0  0  0  0  0  0
   10.9189   -2.0591    0.0000 C   0  0  0  0  0  0  0  0  0  0  0  0
    9.2725   -2.5972    0.0000 C   0  0  0  0  0  0  0  0  0  0  0  0
   10.2510   -2.8034    0.0000 C   0  0  0  0  0  0  0  0  0  0  0  0
    4.9966    1.7784    0.0000 H   0  0  0  0  0  0  0  0  0  0  0  0
    4.1996    1.7784    0.0000 H   0  0  0  0  0  0  0  0  0  0  0  0
    5.6762   -0.7792    0.0000 H   0  0  0  0  0  0  0  0  0  0  0  0
    6.0747   -0.0889    0.0000 H   0  0  0  0  0  0  0  0  0  0  0  0
    3.5200    1.3860    0.0000 H   0  0  0  0  0  0  0  0  0  0  0  0
    3.1215    0.6957    0.0000 H   0  0  0  0  0  0  0  0  0  0  0  0
    4.1996   -1.1715    0.0000 H   0  0  0  0  0  0  0  0  0  0  0  0
    4.9966   -1.1715    0.0000 H   0  0  0  0  0  0  0  0  0  0  0  0
   10.0529    1.3887    0.0000 H   0  0  0  0  0  0  0  0  0  0  0  0
   10.0529    2.2181    0.0000 H   0  0  0  0  0  0  0  0  0  0  0  0
    9.5458    2.9174    0.0000 H   0  0  0  0  0  0  0  0  0  0  0  0
    8.7574    3.1750    0.0000 H   0  0  0  0  0  0  0  0  0  0  0  0
    7.1962    0.1834    0.0000 H   0  0  0  0  0  0  0  0  0  0  0  0
    7.1962    3.4234    0.0000 H   0  0  0  0  0  0  0  0  0  0  0  0
    2.4675   -1.1715    0.0000 H   0  0  0  0  0  0  0  0  0  0  0  0
    3.2646   -1.1715    0.0000 H   0  0  0  0  0  0  0  0  0  0  0  0
    5.7932    2.6134    0.0000 H   0  0  0  0  0  0  0  0  0  0  0  0
    2.3100    0.3403    0.0000 H   0  0  0  0  0  0  0  0  0  0  0  0
    1.4631    0.1134    0.0000 H   0  0  0  0  0  0  0  0  0  0  0  0
    1.6900   -0.7335    0.0000 H   0  0  0  0  0  0  0  0  0  0  0  0
   11.0223   -0.6471    0.0000 H   0  0  0  0  0  0  0  0  0  0  0  0
    8.3552   -1.5188    0.0000 H   0  0  0  0  0  0  0  0  0  0  0  0
   11.5256   -2.1870    0.0000 H   0  0  0  0  0  0  0  0  0  0  0  0
    8.8585   -3.0587    0.0000 H   0  0  0  0  0  0  0  0  0  0  0  0
   10.4437   -3.3927    0.0000 H   0  0  0  0  0  0  0  0  0  0  0  0
  1  2  2  0  0  0  0
  1  3  2  0  0  0  0
  1  6  1  0  0  0  0
  1 20  1  0  0  0  0
  4  7  1  0  0  0  0
  4  8  1  0  0  0  0
  4 13  1  0  0  0  0
  5 10  1  0  0  0  0
  5 11  1  0  0  0  0
  5 18  1  0  0  0  0
  6  9  1  0  0  0  0
  6 14  1  0  0  0  0
  7 10  1  0  0  0  0
  7 27  1  0  0  0  0
  7 28  1  0  0  0  0
  8 11  1  0  0  0  0
  8 29  1  0  0  0  0
  8 30  1  0  0  0  0
  9 12  2  0  0  0  0
  9 16  1  0  0  0  0
 10 31  1  0  0  0  0
 10 32  1  0  0  0  0
 11 33  1  0  0  0  0
 11 34  1  0  0  0  0
 12 15  1  0  0  0  0
 12 17  1  0  0  0  0
 13 16  2  0  0  0  0
 13 19  1  0  0  0  0
 14 15  1  0  0  0  0
 14 35  1  0  0  0  0
 14 36  1  0  0  0  0
 15 37  1  0  0  0  0
 15 38  1  0  0  0  0
 16 39  1  0  0  0  0
 17 19  2  0  0  0  0
 17 40  1  0  0  0  0
 18 21  1  0  0  0  0
 18 41  1  0  0  0  0
 18 42  1  0  0  0  0
 19 43  1  0  0  0  0
 20 22  2  0  0  0  0
 20 23  1  0  0  0  0
 21 44  1  0  0  0  0
 21 45  1  0  0  0  0
 21 46  1  0  0  0  0
 22 24  1  0  0  0  0
 22 47  1  0  0  0  0
 23 25  2  0  0  0  0
 23 48  1  0  0  0  0
 24 26  2  0  0  0  0
 24 49  1  0  0  0  0
 25 26  1  0  0  0  0
 25 50  1  0  0  0  0
 26 51  1  0  0  0  0
M  END
> <PUBCHEM_COMPOUND_CID>
155555224

> <PUBCHEM_COMPOUND_CANONICALIZED>
1

> <PUBCHEM_CACTVS_COMPLEXITY>
562

> <PUBCHEM_CACTVS_HBOND_ACCEPTOR>
5

> <PUBCHEM_CACTVS_HBOND_DONOR>
0

> <PUBCHEM_CACTVS_ROTATABLE_BOND>
4

> <PUBCHEM_CACTVS_SUBSKEYS>
AAADceB7MABAAAAAAAAAAAAAAAAAAWAAAAA8YIAAAAAAAFgBQAAAHAQAQAAADAjBWAQywYMAAAKAAiRCQHDCABAhAgAIiBgIZIgIYCLA0dGUIAhggADIyAcQgIAOCAAAAAQCAAAQAAAACAQAAAAAAAAAAA==

> <PUBCHEM_IUPAC_OPENEYE_NAME>
1-(benzenesulfonyl)-6-(4-ethylpiperazin-1-yl)indoline

> <PUBCHEM_IUPAC_CAS_NAME>
1-(benzenesulfonyl)-6-(4-ethyl-1-piperazinyl)-2,3-dihydroindole

> <PUBCHEM_IUPAC_NAME_MARKUP>
1-(benzenesulfonyl)-6-(4-ethylpiperazin-1-yl)-2,3-dihydroindole

> <PUBCHEM_IUPAC_NAME>
1-(benzenesulfonyl)-6-(4-ethylpiperazin-1-yl)-2,3-dihydroindole

> <PUBCHEM_IUPAC_SYSTEMATIC_NAME>
6-(4-ethylpiperazin-1-yl)-1-(phenylsulfonyl)-2,3-dihydroindole

> <PUBCHEM_IUPAC_TRADITIONAL_NAME>
1-besyl-6-(4-ethylpiperazino)indoline

> <PUBCHEM_IUPAC_INCHI>
InChI=1S/C20H25N3O2S/c1-2-21-12-14-22(15-13-21)18-9-8-17-10-11-23(20(17)16-18)26(24,25)19-6-4-3-5-7-19/h3-9,16H,2,10-15H2,1H3

> <PUBCHEM_IUPAC_INCHIKEY>
BADALEVDXACSLP-UHFFFAOYSA-N

> <PUBCHEM_XLOGP3_AA>
3

> <PUBCHEM_EXACT_MASS>
371.16674822

> <PUBCHEM_MOLECULAR_FORMULA>
C20H25N3O2S

> <PUBCHEM_MOLECULAR_WEIGHT>
371.5

> <PUBCHEM_OPENEYE_CAN_SMILES>
CCN1CCN(CC1)C2=CC3=C(CCN3S(=O)(=O)C4=CC=CC=C4)C=C2

> <PUBCHEM_OPENEYE_ISO_SMILES>
CCN1CCN(CC1)C2=CC3=C(CCN3S(=O)(=O)C4=CC=CC=C4)C=C2

> <PUBCHEM_CACTVS_TPSA>
52.2

> <PUBCHEM_MONOISOTOPIC_WEIGHT>
371.16674822

> <PUBCHEM_TOTAL_CHARGE>
0

> <PUBCHEM_HEAVY_ATOM_COUNT>
26

> <PUBCHEM_ATOM_DEF_STEREO_COUNT>
0

> <PUBCHEM_ATOM_UDEF_STEREO_COUNT>
0

> <PUBCHEM_BOND_DEF_STEREO_COUNT>
0

> <PUBCHEM_BOND_UDEF_STEREO_COUNT>
0

> <PUBCHEM_ISOTOPIC_ATOM_COUNT>
0

> <PUBCHEM_COMPONENT_COUNT>
1

> <PUBCHEM_CACTVS_TAUTO_COUNT>
-1

> <PUBCHEM_COORDINATE_TYPE>
1
5
255

> <PUBCHEM_BONDANNOTATIONS>
12  17  8
13  16  8
13  19  8
17  19  8
20  22  8
20  23  8
22  24  8
23  25  8
24  26  8
25  26  8
9  12  8
9  16  8

$$$$
