45483261
  -OEChem-09292322292D

 49 53  0     1  0  0  0  0  0999 V2000
    2.0000    0.6054    0.0000 F   0  0  0  0  0  0  0  0  0  0  0  0
    4.7684   -1.6163    0.0000 O   0  0  0  0  0  0  0  0  0  0  0  0
   11.0395   -1.4184    0.0000 O   0  0  0  0  0  0  0  0  0  0  0  0
    8.4414    1.0816    0.0000 N   0  0  0  0  0  0  0  0  0  0  0  0
    5.7402   -1.4071    0.0000 N   0  0  0  0  0  0  0  0  0  0  0  0
   12.7994    1.6163    0.0000 N   0  0  0  0  0  0  0  0  0  0  0  0
   13.7055    0.0608    0.0000 N   0  0  0  0  0  0  0  0  0  0  0  0
    6.7093    0.0816    0.0000 C   0  0  0  0  0  0  0  0  0  0  0  0
    6.7093    1.0816    0.0000 C   0  0  0  0  0  0  0  0  0  0  0  0
    7.5754   -0.4184    0.0000 C   0  0  0  0  0  0  0  0  0  0  0  0
   10.1734    1.0816    0.0000 C   0  0  3  0  0  0  0  0  0  0  0  0
    9.3074    1.5816    0.0000 C   0  0  0  0  0  0  0  0  0  0  0  0
    7.5754    1.5816    0.0000 C   0  0  0  0  0  0  0  0  0  0  0  0
    8.4414    0.0816    0.0000 C   0  0  0  0  0  0  0  0  0  0  0  0
   11.0395    1.5816    0.0000 C   0  0  0  0  0  0  0  0  0  0  0  0
   10.1734    0.0816    0.0000 C   0  0  0  0  0  0  0  0  0  0  0  0
    5.8433   -0.4184    0.0000 C   0  0  0  0  0  0  0  0  0  0  0  0
   11.9055    1.0816    0.0000 C   0  0  0  0  0  0  0  0  0  0  0  0
   11.0395   -0.4184    0.0000 C   0  0  0  0  0  0  0  0  0  0  0  0
   11.9055    0.0816    0.0000 C   0  0  0  0  0  0  0  0  0  0  0  0
    4.9355   -0.0133    0.0000 C   0  0  0  0  0  0  0  0  0  0  0  0
    4.2677   -0.7576    0.0000 C   0  0  0  0  0  0  0  0  0  0  0  0
    4.6249    0.9373    0.0000 C   0  0  0  0  0  0  0  0  0  0  0  0
   12.7994   -0.4530    0.0000 C   0  0  0  0  0  0  0  0  0  0  0  0
    3.2892   -0.5513    0.0000 C   0  0  0  0  0  0  0  0  0  0  0  0
   13.7055    1.1024    0.0000 C   0  0  0  0  0  0  0  0  0  0  0  0
    3.6464    1.1435    0.0000 C   0  0  0  0  0  0  0  0  0  0  0  0
    2.9785    0.3992    0.0000 C   0  0  0  0  0  0  0  0  0  0  0  0
    6.7093   -0.5384    0.0000 H   0  0  0  0  0  0  0  0  0  0  0  0
    6.4973    1.6642    0.0000 H   0  0  0  0  0  0  0  0  0  0  0  0
    6.0988    0.9740    0.0000 H   0  0  0  0  0  0  0  0  0  0  0  0
    7.1768   -0.8933    0.0000 H   0  0  0  0  0  0  0  0  0  0  0  0
    7.9739   -0.8933    0.0000 H   0  0  0  0  0  0  0  0  0  0  0  0
   10.1734    1.7016    0.0000 H   0  0  0  0  0  0  0  0  0  0  0  0
    9.7059    2.0566    0.0000 H   0  0  0  0  0  0  0  0  0  0  0  0
    8.9089    2.0566    0.0000 H   0  0  0  0  0  0  0  0  0  0  0  0
    7.9739    2.0566    0.0000 H   0  0  0  0  0  0  0  0  0  0  0  0
    7.1768    2.0566    0.0000 H   0  0  0  0  0  0  0  0  0  0  0  0
    8.6534   -0.5010    0.0000 H   0  0  0  0  0  0  0  0  0  0  0  0
    9.0520    0.1893    0.0000 H   0  0  0  0  0  0  0  0  0  0  0  0
   11.4380    2.0566    0.0000 H   0  0  0  0  0  0  0  0  0  0  0  0
   10.6409    2.0566    0.0000 H   0  0  0  0  0  0  0  0  0  0  0  0
    9.5628    0.1893    0.0000 H   0  0  0  0  0  0  0  0  0  0  0  0
    9.9614   -0.5010    0.0000 H   0  0  0  0  0  0  0  0  0  0  0  0
    5.0389    1.3987    0.0000 H   0  0  0  0  0  0  0  0  0  0  0  0
   12.7923   -1.0730    0.0000 H   0  0  0  0  0  0  0  0  0  0  0  0
    2.8751   -1.0128    0.0000 H   0  0  0  0  0  0  0  0  0  0  0  0
   14.2412    1.4145    0.0000 H   0  0  0  0  0  0  0  0  0  0  0  0
    3.4537    1.7328    0.0000 H   0  0  0  0  0  0  0  0  0  0  0  0
  1 28  1  0  0  0  0
  2  5  1  0  0  0  0
  2 22  1  0  0  0  0
  3 19  2  0  0  0  0
  4 12  1  0  0  0  0
  4 13  1  0  0  0  0
  4 14  1  0  0  0  0
  5 17  2  0  0  0  0
  6 18  2  0  0  0  0
  6 26  1  0  0  0  0
  7 24  1  0  0  0  0
  7 26  2  0  0  0  0
  8  9  1  0  0  0  0
  8 10  1  0  0  0  0
  8 17  1  0  0  0  0
  8 29  1  0  0  0  0
  9 13  1  0  0  0  0
  9 30  1  0  0  0  0
  9 31  1  0  0  0  0
 10 14  1  0  0  0  0
 10 32  1  0  0  0  0
 10 33  1  0  0  0  0
 11 12  1  0  0  0  0
 11 15  1  0  0  0  0
 11 16  1  0  0  0  0
 11 34  1  0  0  0  0
 12 35  1  0  0  0  0
 12 36  1  0  0  0  0
 13 37  1  0  0  0  0
 13 38  1  0  0  0  0
 14 39  1  0  0  0  0
 14 40  1  0  0  0  0
 15 18  1  0  0  0  0
 15 41  1  0  0  0  0
 15 42  1  0  0  0  0
 16 19  1  0  0  0  0
 16 43  1  0  0  0  0
 16 44  1  0  0  0  0
 17 21  1  0  0  0  0
 18 20  1  0  0  0  0
 19 20  1  0  0  0  0
 20 24  2  0  0  0  0
 21 22  2  0  0  0  0
 21 23  1  0  0  0  0
 22 25  1  0  0  0  0
 23 27  2  0  0  0  0
 23 45  1  0  0  0  0
 24 46  1  0  0  0  0
 25 28  2  0  0  0  0
 25 47  1  0  0  0  0
 26 48  1  0  0  0  0
 27 28  1  0  0  0  0
 27 49  1  0  0  0  0
M  END
> <PUBCHEM_COMPOUND_CID>
45483261

> <PUBCHEM_COMPOUND_CANONICALIZED>
1

> <PUBCHEM_CACTVS_COMPLEXITY>
571

> <PUBCHEM_CACTVS_HBOND_ACCEPTOR>
7

> <PUBCHEM_CACTVS_HBOND_DONOR>
0

> <PUBCHEM_CACTVS_ROTATABLE_BOND>
3

> <PUBCHEM_CACTVS_SUBSKEYS>
AAADceB7sQAAAAAAAAAAAAAAAAAAAWAAAAA8eIEAAAAAAFix/AAAHwAEAAAADQzBngw9ltcYEACpA7R3ZgCCgCk1IKAp2CE+TNqILrrA3dOENYhuwBvIyeecyeCeAAAAAAAIAACAAACAABQAAAAAAAAAAA==

> <PUBCHEM_IUPAC_OPENEYE_NAME>
7-[[4-(6-fluoro-1,2-benzoxazol-3-yl)-1-piperidyl]methyl]-7,8-dihydro-6H-quinazolin-5-one

> <PUBCHEM_IUPAC_CAS_NAME>
7-[[4-(6-fluoro-1,2-benzoxazol-3-yl)-1-piperidinyl]methyl]-7,8-dihydro-6H-quinazolin-5-one

> <PUBCHEM_IUPAC_NAME_MARKUP>
7-[[4-(6-fluoro-1,2-benzoxazol-3-yl)piperidin-1-yl]methyl]-7,8-dihydro-6<I>H</I>-quinazolin-5-one

> <PUBCHEM_IUPAC_NAME>
7-[[4-(6-fluoro-1,2-benzoxazol-3-yl)piperidin-1-yl]methyl]-7,8-dihydro-6H-quinazolin-5-one

> <PUBCHEM_IUPAC_SYSTEMATIC_NAME>
7-[[4-(6-fluoranyl-1,2-benzoxazol-3-yl)piperidin-1-yl]methyl]-7,8-dihydro-6H-quinazolin-5-one

> <PUBCHEM_IUPAC_TRADITIONAL_NAME>
7-[[4-(6-fluoroindoxazen-3-yl)piperidino]methyl]-7,8-dihydro-6H-quinazolin-5-one

> <PUBCHEM_IUPAC_INCHI>
InChI=1S/C21H21FN4O2/c22-15-1-2-16-20(9-15)28-25-21(16)14-3-5-26(6-4-14)11-13-7-18-17(19(27)8-13)10-23-12-24-18/h1-2,9-10,12-14H,3-8,11H2

> <PUBCHEM_IUPAC_INCHIKEY>
ZOGCPCPBHXLAHX-UHFFFAOYSA-N

> <PUBCHEM_XLOGP3_AA>
2.4

> <PUBCHEM_EXACT_MASS>
380.16485409

> <PUBCHEM_MOLECULAR_FORMULA>
C21H21FN4O2

> <PUBCHEM_MOLECULAR_WEIGHT>
380.4

> <PUBCHEM_OPENEYE_CAN_SMILES>
C1CN(CCC1C2=NOC3=C2C=CC(=C3)F)CC4CC5=NC=NC=C5C(=O)C4

> <PUBCHEM_OPENEYE_ISO_SMILES>
C1CN(CCC1C2=NOC3=C2C=CC(=C3)F)CC4CC5=NC=NC=C5C(=O)C4

> <PUBCHEM_CACTVS_TPSA>
72.1

> <PUBCHEM_MONOISOTOPIC_WEIGHT>
380.16485409

> <PUBCHEM_TOTAL_CHARGE>
0

> <PUBCHEM_HEAVY_ATOM_COUNT>
28

> <PUBCHEM_ATOM_DEF_STEREO_COUNT>
0

> <PUBCHEM_ATOM_UDEF_STEREO_COUNT>
1

> <PUBCHEM_BOND_DEF_STEREO_COUNT>
0

> <PUBCHEM_BOND_UDEF_STEREO_COUNT>
0

> <PUBCHEM_ISOTOPIC_ATOM_COUNT>
0

> <PUBCHEM_COMPONENT_COUNT>
1

> <PUBCHEM_CACTVS_TAUTO_COUNT>
-1

> <PUBCHEM_COORDINATE_TYPE>
1
5
255

> <PUBCHEM_BONDANNOTATIONS>
11  12  3
17  21  8
18  20  8
2  22  8
2  5  8
20  24  8
21  22  8
21  23  8
22  25  8
23  27  8
25  28  8
27  28  8
5  17  8
6  18  8
6  26  8
7  24  8
7  26  8

$$$$
