44123782
  -OEChem-09292322232D

 43 47  0     1  0  0  0  0  0999 V2000
   12.6030    0.0833    0.0000 Cl  0  0  0  0  0  0  0  0  0  0  0  0
    5.9674    0.4096    0.0000 N   0  0  3  0  0  0  0  0  0  0  0  0
    8.9237    1.6526    0.0000 N   0  0  3  0  0  0  0  0  0  0  0  0
    4.6783   -2.3566    0.0000 N   0  0  0  0  0  0  0  0  0  0  0  0
    2.8660   -2.5518    0.0000 N   0  0  0  0  0  0  0  0  0  0  0  0
    6.6689    1.7226    0.0000 C   0  0  3  0  0  0  0  0  0  0  0  0
    7.5066    1.1765    0.0000 C   0  0  3  0  0  0  0  0  0  0  0  0
    6.5609    2.9459    0.0000 C   0  0  0  0  0  0  0  0  0  0  0  0
    6.8052   -0.1365    0.0000 C   0  0  0  0  0  0  0  0  0  0  0  0
    8.5507    2.5805    0.0000 C   0  0  0  0  0  0  0  0  0  0  0  0
    4.9889    0.2034    0.0000 C   0  0  0  0  0  0  0  0  0  0  0  0
    9.8435    1.2603    0.0000 C   0  0  0  0  0  0  0  0  0  0  0  0
    4.6783   -0.7471    0.0000 C   0  0  0  0  0  0  0  0  0  0  0  0
    9.9636    0.2675    0.0000 C   0  0  0  0  0  0  0  0  0  0  0  0
   10.6432    1.8607    0.0000 C   0  0  0  0  0  0  0  0  0  0  0  0
    3.7320   -1.0518    0.0000 C   0  0  0  0  0  0  0  0  0  0  0  0
    5.2619   -1.5518    0.0000 C   0  0  0  0  0  0  0  0  0  0  0  0
    3.7320   -2.0518    0.0000 C   0  0  0  0  0  0  0  0  0  0  0  0
   10.8835   -0.1248    0.0000 C   0  0  0  0  0  0  0  0  0  0  0  0
   11.5630    1.4684    0.0000 C   0  0  0  0  0  0  0  0  0  0  0  0
    2.8660   -0.5519    0.0000 C   0  0  0  0  0  0  0  0  0  0  0  0
   11.6832    0.4757    0.0000 C   0  0  0  0  0  0  0  0  0  0  0  0
    2.0000   -1.0518    0.0000 C   0  0  0  0  0  0  0  0  0  0  0  0
    2.0000   -2.0518    0.0000 C   0  0  0  0  0  0  0  0  0  0  0  0
    7.0933    1.2706    0.0000 H   0  0  0  0  0  0  0  0  0  0  0  0
    7.9070    0.7032    0.0000 H   0  0  0  0  0  0  0  0  0  0  0  0
    6.9558    3.4238    0.0000 H   0  0  0  0  0  0  0  0  0  0  0  0
    5.9688    3.1299    0.0000 H   0  0  0  0  0  0  0  0  0  0  0  0
    6.4818   -0.6655    0.0000 H   0  0  0  0  0  0  0  0  0  0  0  0
    7.3433   -0.4444    0.0000 H   0  0  0  0  0  0  0  0  0  0  0  0
    9.1224    2.8204    0.0000 H   0  0  0  0  0  0  0  0  0  0  0  0
    8.3021    3.1484    0.0000 H   0  0  0  0  0  0  0  0  0  0  0  0
    4.9684    0.8231    0.0000 H   0  0  0  0  0  0  0  0  0  0  0  0
    4.3751    0.2907    0.0000 H   0  0  0  0  0  0  0  0  0  0  0  0
    9.4678   -0.1047    0.0000 H   0  0  0  0  0  0  0  0  0  0  0  0
   10.5687    2.4762    0.0000 H   0  0  0  0  0  0  0  0  0  0  0  0
    5.8819   -1.5518    0.0000 H   0  0  0  0  0  0  0  0  0  0  0  0
   10.9580   -0.7403    0.0000 H   0  0  0  0  0  0  0  0  0  0  0  0
   12.0588    1.8407    0.0000 H   0  0  0  0  0  0  0  0  0  0  0  0
    4.8709   -2.9459    0.0000 H   0  0  0  0  0  0  0  0  0  0  0  0
    2.8660    0.0681    0.0000 H   0  0  0  0  0  0  0  0  0  0  0  0
    1.4631   -0.7419    0.0000 H   0  0  0  0  0  0  0  0  0  0  0  0
    1.4631   -2.3618    0.0000 H   0  0  0  0  0  0  0  0  0  0  0  0
  1 22  1  0  0  0  0
  2  6  1  0  0  0  0
  2  9  1  0  0  0  0
  2 11  1  0  0  0  0
  3  7  1  0  0  0  0
  3 10  1  0  0  0  0
  3 12  1  0  0  0  0
  4 17  1  0  0  0  0
  4 18  1  0  0  0  0
  4 40  1  0  0  0  0
  5 18  1  0  0  0  0
  5 24  2  0  0  0  0
  6  8  1  0  0  0  0
  6 10  1  0  0  0  0
  6 25  1  0  0  0  0
  7  8  1  0  0  0  0
  7  9  1  0  0  0  0
  7 26  1  0  0  0  0
  8 27  1  0  0  0  0
  8 28  1  0  0  0  0
  9 29  1  0  0  0  0
  9 30  1  0  0  0  0
 10 31  1  0  0  0  0
 10 32  1  0  0  0  0
 11 13  1  0  0  0  0
 11 33  1  0  0  0  0
 11 34  1  0  0  0  0
 12 14  2  0  0  0  0
 12 15  1  0  0  0  0
 13 16  1  0  0  0  0
 13 17  2  0  0  0  0
 14 19  1  0  0  0  0
 14 35  1  0  0  0  0
 15 20  2  0  0  0  0
 15 36  1  0  0  0  0
 16 18  2  0  0  0  0
 16 21  1  0  0  0  0
 17 37  1  0  0  0  0
 19 22  2  0  0  0  0
 19 38  1  0  0  0  0
 20 22  1  0  0  0  0
 20 39  1  0  0  0  0
 21 23  2  0  0  0  0
 21 41  1  0  0  0  0
 23 24  1  0  0  0  0
 23 42  1  0  0  0  0
 24 43  1  0  0  0  0
M  END
> <PUBCHEM_COMPOUND_CID>
44123782

> <PUBCHEM_COMPOUND_CANONICALIZED>
1

> <PUBCHEM_CACTVS_COMPLEXITY>
453

> <PUBCHEM_CACTVS_HBOND_ACCEPTOR>
3

> <PUBCHEM_CACTVS_HBOND_DONOR>
1

> <PUBCHEM_CACTVS_ROTATABLE_BOND>
3

> <PUBCHEM_CACTVS_SUBSKEYS>
AAADceB7gAAEAAAAAAAAAAAAAAAAAWLFgAA8WIAAAAAAAFgB/AAAHAIQAAAADCrBGyQ98N/JkACgAjZnZACCgCmxB6AJ2aA4ZpiIaOLB25GUIAhogALIyCcQAAAOgABAAAAAAAAAAIAAAAAAAAAAAAAAAA==

> <PUBCHEM_IUPAC_OPENEYE_NAME>
3-[[5-(4-chlorophenyl)-2,5-diazabicyclo[2.2.1]heptan-2-yl]methyl]-1H-pyrrolo[2,3-b]pyridine

> <PUBCHEM_IUPAC_CAS_NAME>
3-[[5-(4-chlorophenyl)-2,5-diazabicyclo[2.2.1]heptan-2-yl]methyl]-1H-pyrrolo[2,3-b]pyridine

> <PUBCHEM_IUPAC_NAME_MARKUP>
3-[[5-(4-chlorophenyl)-2,5-diazabicyclo[2.2.1]heptan-2-yl]methyl]-1<I>H</I>-pyrrolo[2,3-b]pyridine

> <PUBCHEM_IUPAC_NAME>
3-[[5-(4-chlorophenyl)-2,5-diazabicyclo[2.2.1]heptan-2-yl]methyl]-1H-pyrrolo[2,3-b]pyridine

> <PUBCHEM_IUPAC_SYSTEMATIC_NAME>
3-[[5-(4-chlorophenyl)-2,5-diazabicyclo[2.2.1]heptan-2-yl]methyl]-1H-pyrrolo[2,3-b]pyridine

> <PUBCHEM_IUPAC_TRADITIONAL_NAME>
3-[[5-(4-chlorophenyl)-2,5-diazabicyclo[2.2.1]heptan-2-yl]methyl]-1H-pyrrolo[2,3-b]pyridine

> <PUBCHEM_IUPAC_INCHI>
InChI=1S/C19H19ClN4/c20-14-3-5-15(6-4-14)24-12-16-8-17(24)11-23(16)10-13-9-22-19-18(13)2-1-7-21-19/h1-7,9,16-17H,8,10-12H2,(H,21,22)

> <PUBCHEM_IUPAC_INCHIKEY>
YOODWDNGWLMMGG-UHFFFAOYSA-N

> <PUBCHEM_XLOGP3_AA>
3.6

> <PUBCHEM_EXACT_MASS>
338.1298243

> <PUBCHEM_MOLECULAR_FORMULA>
C19H19ClN4

> <PUBCHEM_MOLECULAR_WEIGHT>
338.8

> <PUBCHEM_OPENEYE_CAN_SMILES>
C1C2CN(C1CN2C3=CC=C(C=C3)Cl)CC4=CNC5=C4C=CC=N5

> <PUBCHEM_OPENEYE_ISO_SMILES>
C1C2CN(C1CN2C3=CC=C(C=C3)Cl)CC4=CNC5=C4C=CC=N5

> <PUBCHEM_CACTVS_TPSA>
35.2

> <PUBCHEM_MONOISOTOPIC_WEIGHT>
338.1298243

> <PUBCHEM_TOTAL_CHARGE>
0

> <PUBCHEM_HEAVY_ATOM_COUNT>
24

> <PUBCHEM_ATOM_DEF_STEREO_COUNT>
0

> <PUBCHEM_ATOM_UDEF_STEREO_COUNT>
2

> <PUBCHEM_BOND_DEF_STEREO_COUNT>
0

> <PUBCHEM_BOND_UDEF_STEREO_COUNT>
0

> <PUBCHEM_ISOTOPIC_ATOM_COUNT>
0

> <PUBCHEM_COMPONENT_COUNT>
1

> <PUBCHEM_CACTVS_TAUTO_COUNT>
-1

> <PUBCHEM_COORDINATE_TYPE>
1
5
255

> <PUBCHEM_BONDANNOTATIONS>
12  14  8
12  15  8
13  16  8
13  17  8
14  19  8
15  20  8
16  18  8
16  21  8
19  22  8
20  22  8
21  23  8
23  24  8
4  17  8
4  18  8
5  18  8
5  24  8
6  8  3
7  8  3

$$$$
