137650746
  -OEChem-09292322082D

 57 61  0     1  0  0  0  0  0999 V2000
   13.6279    1.8130    0.0000 Cl  0  0  0  0  0  0  0  0  0  0  0  0
   14.6279    3.5451    0.0000 Cl  0  0  0  0  0  0  0  0  0  0  0  0
    6.7619   -3.8831    0.0000 O   0  0  0  0  0  0  0  0  0  0  0  0
   10.6279    0.0810    0.0000 N   0  0  0  0  0  0  0  0  0  0  0  0
    6.7619   -2.1510    0.0000 N   0  0  0  0  0  0  0  0  0  0  0  0
   11.6279    1.8130    0.0000 N   0  0  0  0  0  0  0  0  0  0  0  0
    4.6783   -3.8218    0.0000 N   0  0  0  0  0  0  0  0  0  0  0  0
    9.1279   -0.7850    0.0000 C   0  0  1  0  0  0  0  0  0  0  0  0
    8.2619   -1.2850    0.0000 C   0  0  1  0  0  0  0  0  0  0  0  0
    8.2619   -0.2850    0.0000 C   0  0  0  0  0  0  0  0  0  0  0  0
   10.1279   -0.7850    0.0000 C   0  0  0  0  0  0  0  0  0  0  0  0
    7.7619   -2.1510    0.0000 C   0  0  0  0  0  0  0  0  0  0  0  0
   11.6279    0.0810    0.0000 C   0  0  0  0  0  0  0  0  0  0  0  0
   10.1279    0.9470    0.0000 C   0  0  0  0  0  0  0  0  0  0  0  0
   12.1279    0.9470    0.0000 C   0  0  0  0  0  0  0  0  0  0  0  0
   10.6279    1.8130    0.0000 C   0  0  0  0  0  0  0  0  0  0  0  0
    6.2619   -3.0171    0.0000 C   0  0  0  0  0  0  0  0  0  0  0  0
   12.1279    2.6791    0.0000 C   0  0  0  0  0  0  0  0  0  0  0  0
    5.2619   -3.0171    0.0000 C   0  0  0  0  0  0  0  0  0  0  0  0
   13.1279    2.6791    0.0000 C   0  0  0  0  0  0  0  0  0  0  0  0
   11.6279    3.5451    0.0000 C   0  0  0  0  0  0  0  0  0  0  0  0
    4.6783   -2.2123    0.0000 C   0  0  0  0  0  0  0  0  0  0  0  0
    3.7320   -3.5171    0.0000 C   0  0  0  0  0  0  0  0  0  0  0  0
    3.7320   -2.5171    0.0000 C   0  0  0  0  0  0  0  0  0  0  0  0
   13.6279    3.5451    0.0000 C   0  0  0  0  0  0  0  0  0  0  0  0
   12.1279    4.4111    0.0000 C   0  0  0  0  0  0  0  0  0  0  0  0
   13.1279    4.4111    0.0000 C   0  0  0  0  0  0  0  0  0  0  0  0
    2.8660   -4.0171    0.0000 C   0  0  0  0  0  0  0  0  0  0  0  0
    2.8660   -2.0171    0.0000 C   0  0  0  0  0  0  0  0  0  0  0  0
    2.0000   -3.5171    0.0000 C   0  0  0  0  0  0  0  0  0  0  0  0
    2.0000   -2.5171    0.0000 C   0  0  0  0  0  0  0  0  0  0  0  0
    9.2884   -1.3839    0.0000 H   0  0  0  0  0  0  0  0  0  0  0  0
    8.7003   -1.7234    0.0000 H   0  0  0  0  0  0  0  0  0  0  0  0
    8.4739    0.2976    0.0000 H   0  0  0  0  0  0  0  0  0  0  0  0
    7.6513   -0.1774    0.0000 H   0  0  0  0  0  0  0  0  0  0  0  0
   10.0202   -1.3956    0.0000 H   0  0  0  0  0  0  0  0  0  0  0  0
   10.7105   -0.9971    0.0000 H   0  0  0  0  0  0  0  0  0  0  0  0
    7.6542   -2.7616    0.0000 H   0  0  0  0  0  0  0  0  0  0  0  0
    8.3445   -2.3631    0.0000 H   0  0  0  0  0  0  0  0  0  0  0  0
   11.5202   -0.5296    0.0000 H   0  0  0  0  0  0  0  0  0  0  0  0
   12.2105   -0.1310    0.0000 H   0  0  0  0  0  0  0  0  0  0  0  0
    9.6530    1.3456    0.0000 H   0  0  0  0  0  0  0  0  0  0  0  0
    9.6530    0.5485    0.0000 H   0  0  0  0  0  0  0  0  0  0  0  0
    6.4519   -1.6141    0.0000 H   0  0  0  0  0  0  0  0  0  0  0  0
   12.6029    0.5485    0.0000 H   0  0  0  0  0  0  0  0  0  0  0  0
   12.6029    1.3456    0.0000 H   0  0  0  0  0  0  0  0  0  0  0  0
   10.7356    2.4236    0.0000 H   0  0  0  0  0  0  0  0  0  0  0  0
   10.0453    2.0251    0.0000 H   0  0  0  0  0  0  0  0  0  0  0  0
   11.0079    3.5451    0.0000 H   0  0  0  0  0  0  0  0  0  0  0  0
    4.8709   -4.4111    0.0000 H   0  0  0  0  0  0  0  0  0  0  0  0
    4.8709   -1.6230    0.0000 H   0  0  0  0  0  0  0  0  0  0  0  0
   11.8179    4.9481    0.0000 H   0  0  0  0  0  0  0  0  0  0  0  0
   13.4379    4.9481    0.0000 H   0  0  0  0  0  0  0  0  0  0  0  0
    2.8660   -4.6371    0.0000 H   0  0  0  0  0  0  0  0  0  0  0  0
    2.8660   -1.3971    0.0000 H   0  0  0  0  0  0  0  0  0  0  0  0
    1.4631   -3.8271    0.0000 H   0  0  0  0  0  0  0  0  0  0  0  0
    1.4631   -2.2071    0.0000 H   0  0  0  0  0  0  0  0  0  0  0  0
  1 20  1  0  0  0  0
  2 25  1  0  0  0  0
  3 17  2  0  0  0  0
  4 11  1  0  0  0  0
  4 13  1  0  0  0  0
  4 14  1  0  0  0  0
  5 12  1  0  0  0  0
  5 17  1  0  0  0  0
  5 44  1  0  0  0  0
  6 15  1  0  0  0  0
  6 16  1  0  0  0  0
  6 18  1  0  0  0  0
  7 19  1  0  0  0  0
  7 23  1  0  0  0  0
  7 50  1  0  0  0  0
  8  9  1  0  0  0  0
  8 10  1  0  0  0  0
  8 11  1  1  0  0  0
  8 32  1  0  0  0  0
  9 10  1  0  0  0  0
  9 12  1  6  0  0  0
  9 33  1  0  0  0  0
 10 34  1  0  0  0  0
 10 35  1  0  0  0  0
 11 36  1  0  0  0  0
 11 37  1  0  0  0  0
 12 38  1  0  0  0  0
 12 39  1  0  0  0  0
 13 15  1  0  0  0  0
 13 40  1  0  0  0  0
 13 41  1  0  0  0  0
 14 16  1  0  0  0  0
 14 42  1  0  0  0  0
 14 43  1  0  0  0  0
 15 45  1  0  0  0  0
 15 46  1  0  0  0  0
 16 47  1  0  0  0  0
 16 48  1  0  0  0  0
 17 19  1  0  0  0  0
 18 20  2  0  0  0  0
 18 21  1  0  0  0  0
 19 22  2  0  0  0  0
 20 25  1  0  0  0  0
 21 26  2  0  0  0  0
 21 49  1  0  0  0  0
 22 24  1  0  0  0  0
 22 51  1  0  0  0  0
 23 24  1  0  0  0  0
 23 28  2  0  0  0  0
 24 29  2  0  0  0  0
 25 27  2  0  0  0  0
 26 27  1  0  0  0  0
 26 52  1  0  0  0  0
 27 53  1  0  0  0  0
 28 30  1  0  0  0  0
 28 54  1  0  0  0  0
 29 31  1  0  0  0  0
 29 55  1  0  0  0  0
 30 31  2  0  0  0  0
 30 56  1  0  0  0  0
 31 57  1  0  0  0  0
M  END
> <PUBCHEM_COMPOUND_CID>
137650746

> <PUBCHEM_COMPOUND_CANONICALIZED>
1

> <PUBCHEM_CACTVS_COMPLEXITY>
629

> <PUBCHEM_CACTVS_HBOND_ACCEPTOR>
3

> <PUBCHEM_CACTVS_HBOND_DONOR>
2

> <PUBCHEM_CACTVS_ROTATABLE_BOND>
6

> <PUBCHEM_CACTVS_SUBSKEYS>
AAADceB7oAAGAAAAAAAAAAAAGAAAAWAAAAA8YIAAAAAAAFgB9AAAHgIQAAAADQrBniQwwPPJkACoAyVyVACCgCAnByAIm+G4ZtgIYPLBl7HUIQhglgDIyYcYiYCeAAAAAAICABQAAAAABAQAKAAAAAAAAA==

> <PUBCHEM_IUPAC_OPENEYE_NAME>
N-[[(1R,2R)-2-[[4-(2,3-dichlorophenyl)piperazin-1-yl]methyl]cyclopropyl]methyl]-1H-indole-2-carboxamide

> <PUBCHEM_IUPAC_CAS_NAME>
N-[[(1R,2R)-2-[[4-(2,3-dichlorophenyl)-1-piperazinyl]methyl]cyclopropyl]methyl]-1H-indole-2-carboxamide

> <PUBCHEM_IUPAC_NAME_MARKUP>
<I>N</I>-[[(1<I>R</I>,2<I>R</I>)-2-[[4-(2,3-dichlorophenyl)piperazin-1-yl]methyl]cyclopropyl]methyl]-1<I>H</I>-indole-2-carboxamide

> <PUBCHEM_IUPAC_NAME>
N-[[(1R,2R)-2-[[4-(2,3-dichlorophenyl)piperazin-1-yl]methyl]cyclopropyl]methyl]-1H-indole-2-carboxamide

> <PUBCHEM_IUPAC_SYSTEMATIC_NAME>
N-[[(1R,2R)-2-[[4-[2,3-bis(chloranyl)phenyl]piperazin-1-yl]methyl]cyclopropyl]methyl]-1H-indole-2-carboxamide

> <PUBCHEM_IUPAC_TRADITIONAL_NAME>
N-[[(1R,2R)-2-[[4-(2,3-dichlorophenyl)piperazino]methyl]cyclopropyl]methyl]-1H-indole-2-carboxamide

> <PUBCHEM_IUPAC_INCHI>
InChI=1S/C24H26Cl2N4O/c25-19-5-3-7-22(23(19)26)30-10-8-29(9-11-30)15-18-12-17(18)14-27-24(31)21-13-16-4-1-2-6-20(16)28-21/h1-7,13,17-18,28H,8-12,14-15H2,(H,27,31)/t17-,18-/m0/s1

> <PUBCHEM_IUPAC_INCHIKEY>
XPILIRKQJUBSIN-ROUUACIJSA-N

> <PUBCHEM_XLOGP3_AA>
5.2

> <PUBCHEM_EXACT_MASS>
456.1483669

> <PUBCHEM_MOLECULAR_FORMULA>
C24H26Cl2N4O

> <PUBCHEM_MOLECULAR_WEIGHT>
457.4

> <PUBCHEM_OPENEYE_CAN_SMILES>
C1CN(CCN1CC2CC2CNC(=O)C3=CC4=CC=CC=C4N3)C5=C(C(=CC=C5)Cl)Cl

> <PUBCHEM_OPENEYE_ISO_SMILES>
C1CN(CCN1C[C@@H]2C[C@H]2CNC(=O)C3=CC4=CC=CC=C4N3)C5=C(C(=CC=C5)Cl)Cl

> <PUBCHEM_CACTVS_TPSA>
51.4

> <PUBCHEM_MONOISOTOPIC_WEIGHT>
456.1483669

> <PUBCHEM_TOTAL_CHARGE>
0

> <PUBCHEM_HEAVY_ATOM_COUNT>
31

> <PUBCHEM_ATOM_DEF_STEREO_COUNT>
2

> <PUBCHEM_ATOM_UDEF_STEREO_COUNT>
0

> <PUBCHEM_BOND_DEF_STEREO_COUNT>
0

> <PUBCHEM_BOND_UDEF_STEREO_COUNT>
0

> <PUBCHEM_ISOTOPIC_ATOM_COUNT>
0

> <PUBCHEM_COMPONENT_COUNT>
1

> <PUBCHEM_CACTVS_TAUTO_COUNT>
-1

> <PUBCHEM_COORDINATE_TYPE>
1
5
255

> <PUBCHEM_BONDANNOTATIONS>
18  20  8
18  21  8
19  22  8
20  25  8
21  26  8
22  24  8
23  24  8
23  28  8
24  29  8
25  27  8
26  27  8
28  30  8
29  31  8
30  31  8
7  19  8
7  23  8
8  11  5
9  12  6

$$$$
