44377939
  -OEChem-09292322192D

 60 64  0     1  0  0  0  0  0999 V2000
    6.7346   -5.9408    0.0000 S   0  0  0  0  0  0  0  0  0  0  0  0
    3.4833    5.9408    0.0000 F   0  0  0  0  0  0  0  0  0  0  0  0
    6.4966    2.4883    0.0000 O   0  0  0  0  0  0  0  0  0  0  0  0
    2.0000    1.6050    0.0000 O   0  0  0  0  0  0  0  0  0  0  0  0
    6.8398   -3.7307    0.0000 N   0  0  3  0  0  0  0  0  0  0  0  0
    5.5100   -0.9796    0.0000 N   0  0  3  0  0  0  0  0  0  0  0  0
    3.4966    2.4768    0.0000 N   0  0  0  0  0  0  0  0  0  0  0  0
    6.5308   -2.7796    0.0000 C   0  0  2  0  0  0  0  0  0  0  0  0
    5.5308   -2.7796    0.0000 C   0  0  1  0  0  0  0  0  0  0  0  0
    7.0655   -1.8857    0.0000 C   0  0  0  0  0  0  0  0  0  0  0  0
    4.9961   -1.8857    0.0000 C   0  0  0  0  0  0  0  0  0  0  0  0
    5.2218   -3.7307    0.0000 C   0  0  0  0  0  0  0  0  0  0  0  0
    6.0308   -4.3184    0.0000 C   0  0  0  0  0  0  0  0  0  0  0  0
    6.5516   -0.9796    0.0000 C   0  0  0  0  0  0  0  0  0  0  0  0
    7.7835   -3.9980    0.0000 C   0  0  0  0  0  0  0  0  0  0  0  0
    5.0066   -0.1155    0.0000 C   0  0  0  0  0  0  0  0  0  0  0  0
    5.9934   -5.2985    0.0000 C   0  0  0  0  0  0  0  0  0  0  0  0
    4.3467   -4.1816    0.0000 C   0  0  0  0  0  0  0  0  0  0  0  0
    8.1653   -4.9014    0.0000 C   0  0  0  0  0  0  0  0  0  0  0  0
    7.6994   -5.7644    0.0000 C   0  0  0  0  0  0  0  0  0  0  0  0
    5.5033    0.7524    0.0000 C   0  0  0  0  0  0  0  0  0  0  0  0
    5.1022   -5.7169    0.0000 C   0  0  0  0  0  0  0  0  0  0  0  0
    4.2875   -5.1643    0.0000 C   0  0  0  0  0  0  0  0  0  0  0  0
    5.0000    1.6165    0.0000 C   0  0  0  0  0  0  0  0  0  0  0  0
    5.4966    2.4845    0.0000 C   0  0  0  0  0  0  0  0  0  0  0  0
    4.9933    3.3486    0.0000 C   0  0  0  0  0  0  0  0  0  0  0  0
    3.9933    3.3447    0.0000 C   0  0  0  0  0  0  0  0  0  0  0  0
    5.4900    4.2165    0.0000 C   0  0  0  0  0  0  0  0  0  0  0  0
    3.4900    4.2088    0.0000 C   0  0  0  0  0  0  0  0  0  0  0  0
    4.9866    5.0806    0.0000 C   0  0  0  0  0  0  0  0  0  0  0  0
    3.9866    5.0768    0.0000 C   0  0  0  0  0  0  0  0  0  0  0  0
    2.4967    2.4729    0.0000 C   0  0  0  0  0  0  0  0  0  0  0  0
    7.3754   -2.8750    0.0000 H   0  0  0  0  0  0  0  0  0  0  0  0
    4.6862   -2.8750    0.0000 H   0  0  0  0  0  0  0  0  0  0  0  0
    7.5352   -2.2903    0.0000 H   0  0  0  0  0  0  0  0  0  0  0  0
    7.5445   -1.4920    0.0000 H   0  0  0  0  0  0  0  0  0  0  0  0
    4.5171   -1.4920    0.0000 H   0  0  0  0  0  0  0  0  0  0  0  0
    4.5264   -2.2903    0.0000 H   0  0  0  0  0  0  0  0  0  0  0  0
    7.1353   -0.7705    0.0000 H   0  0  0  0  0  0  0  0  0  0  0  0
    6.4455   -0.3687    0.0000 H   0  0  0  0  0  0  0  0  0  0  0  0
    8.3941   -3.8902    0.0000 H   0  0  0  0  0  0  0  0  0  0  0  0
    7.8149   -3.3787    0.0000 H   0  0  0  0  0  0  0  0  0  0  0  0
    4.5302    0.2812    0.0000 H   0  0  0  0  0  0  0  0  0  0  0  0
    4.5332   -0.5159    0.0000 H   0  0  0  0  0  0  0  0  0  0  0  0
    3.8272   -3.8431    0.0000 H   0  0  0  0  0  0  0  0  0  0  0  0
    8.6313   -5.3103    0.0000 H   0  0  0  0  0  0  0  0  0  0  0  0
    8.6681   -4.5385    0.0000 H   0  0  0  0  0  0  0  0  0  0  0  0
    7.6719   -6.3838    0.0000 H   0  0  0  0  0  0  0  0  0  0  0  0
    8.2970   -5.9296    0.0000 H   0  0  0  0  0  0  0  0  0  0  0  0
    5.9798    0.3557    0.0000 H   0  0  0  0  0  0  0  0  0  0  0  0
    5.9767    1.1528    0.0000 H   0  0  0  0  0  0  0  0  0  0  0  0
    5.0536   -6.3350    0.0000 H   0  0  0  0  0  0  0  0  0  0  0  0
    3.7312   -5.4380    0.0000 H   0  0  0  0  0  0  0  0  0  0  0  0
    4.5235    2.0132    0.0000 H   0  0  0  0  0  0  0  0  0  0  0  0
    4.5266    1.2162    0.0000 H   0  0  0  0  0  0  0  0  0  0  0  0
    6.1100    4.2189    0.0000 H   0  0  0  0  0  0  0  0  0  0  0  0
    2.8700    4.2064    0.0000 H   0  0  0  0  0  0  0  0  0  0  0  0
    5.2946    5.6187    0.0000 H   0  0  0  0  0  0  0  0  0  0  0  0
    3.8087    1.9410    0.0000 H   0  0  0  0  0  0  0  0  0  0  0  0
    2.1846    3.0086    0.0000 H   0  0  0  0  0  0  0  0  0  0  0  0
  1 17  1  0  0  0  0
  1 20  1  0  0  0  0
  2 31  1  0  0  0  0
  3 25  2  0  0  0  0
  4 32  2  0  0  0  0
  5  8  1  0  0  0  0
  5 13  1  0  0  0  0
  5 15  1  0  0  0  0
  6 11  1  0  0  0  0
  6 14  1  0  0  0  0
  6 16  1  0  0  0  0
  7 27  1  0  0  0  0
  7 32  1  0  0  0  0
  7 59  1  0  0  0  0
  8  9  1  0  0  0  0
  8 10  1  0  0  0  0
  8 33  1  1  0  0  0
  9 11  1  0  0  0  0
  9 12  1  0  0  0  0
  9 34  1  1  0  0  0
 10 14  1  0  0  0  0
 10 35  1  0  0  0  0
 10 36  1  0  0  0  0
 11 37  1  0  0  0  0
 11 38  1  0  0  0  0
 12 13  2  0  0  0  0
 12 18  1  0  0  0  0
 13 17  1  0  0  0  0
 14 39  1  0  0  0  0
 14 40  1  0  0  0  0
 15 19  1  0  0  0  0
 15 41  1  0  0  0  0
 15 42  1  0  0  0  0
 16 21  1  0  0  0  0
 16 43  1  0  0  0  0
 16 44  1  0  0  0  0
 17 22  2  0  0  0  0
 18 23  2  0  0  0  0
 18 45  1  0  0  0  0
 19 20  1  0  0  0  0
 19 46  1  0  0  0  0
 19 47  1  0  0  0  0
 20 48  1  0  0  0  0
 20 49  1  0  0  0  0
 21 24  1  0  0  0  0
 21 50  1  0  0  0  0
 21 51  1  0  0  0  0
 22 23  1  0  0  0  0
 22 52  1  0  0  0  0
 23 53  1  0  0  0  0
 24 25  1  0  0  0  0
 24 54  1  0  0  0  0
 24 55  1  0  0  0  0
 25 26  1  0  0  0  0
 26 27  2  0  0  0  0
 26 28  1  0  0  0  0
 27 29  1  0  0  0  0
 28 30  2  0  0  0  0
 28 56  1  0  0  0  0
 29 31  2  0  0  0  0
 29 57  1  0  0  0  0
 30 31  1  0  0  0  0
 30 58  1  0  0  0  0
 32 60  1  0  0  0  0
M  END
> <PUBCHEM_COMPOUND_CID>
44377939

> <PUBCHEM_COMPOUND_CANONICALIZED>
1

> <PUBCHEM_CACTVS_COMPLEXITY>
682

> <PUBCHEM_CACTVS_HBOND_ACCEPTOR>
6

> <PUBCHEM_CACTVS_HBOND_DONOR>
1

> <PUBCHEM_CACTVS_ROTATABLE_BOND>
6

> <PUBCHEM_CACTVS_SUBSKEYS>
AAADceB7MQBAAAAAAAAAAAAAAAAAAWAAAAA8YIAABYAAAFixQAAAHwQQAAAADSzF2A6wwYPAAAiIAqRS0ACCAAAlChAIiJ0IZMgIIDrg1ZGEIYhglADoyccciMCOgAAAgAACAQAAAAEAAAQCAAAAAAAAAA==

> <PUBCHEM_IUPAC_OPENEYE_NAME>
N-[5-fluoro-2-[4-[(11S,16R)-6-thia-10,14-diazatetracyclo[8.6.1.05,17.011,16]heptadeca-1(17),2,4-trien-14-yl]butanoyl]phenyl]formamide

> <PUBCHEM_IUPAC_CAS_NAME>
N-[5-fluoro-2-[1-oxo-4-[(11S,16R)-6-thia-10,14-diazatetracyclo[8.6.1.05,17.011,16]heptadeca-1(17),2,4-trien-14-yl]butyl]phenyl]formamide

> <PUBCHEM_IUPAC_NAME_MARKUP>
<I>N</I>-[5-fluoro-2-[4-[(11<I>S</I>,16<I>R</I>)-6-thia-10,14-diazatetracyclo[8.6.1.0<SUP>5,17</SUP>.0<SUP>11,16</SUP>]heptadeca-1(17),2,4-trien-14-yl]butanoyl]phenyl]formamide

> <PUBCHEM_IUPAC_NAME>
N-[5-fluoro-2-[4-[(11S,16R)-6-thia-10,14-diazatetracyclo[8.6.1.05,17.011,16]heptadeca-1(17),2,4-trien-14-yl]butanoyl]phenyl]formamide

> <PUBCHEM_IUPAC_SYSTEMATIC_NAME>
N-[5-fluoranyl-2-[4-[(11S,16R)-6-thia-10,14-diazatetracyclo[8.6.1.05,17.011,16]heptadeca-1(17),2,4-trien-14-yl]butanoyl]phenyl]methanamide

> <PUBCHEM_IUPAC_TRADITIONAL_NAME>
N-[5-fluoro-2-[4-[(11S,16R)-6-thia-10,14-diazatetracyclo[8.6.1.05,17.011,16]heptadeca-1(17),2,4-trien-14-yl]butanoyl]phenyl]formamide

> <PUBCHEM_IUPAC_INCHI>
InChI=1S/C25H28FN3O2S/c26-17-7-8-19(21(14-17)27-16-30)23(31)5-2-10-28-12-9-22-20(15-28)18-4-1-6-24-25(18)29(22)11-3-13-32-24/h1,4,6-8,14,16,20,22H,2-3,5,9-13,15H2,(H,27,30)/t20-,22-/m0/s1

> <PUBCHEM_IUPAC_INCHIKEY>
JPHKDUYQNMPCRA-UNMCSNQZSA-N

> <PUBCHEM_XLOGP3_AA>
4.3

> <PUBCHEM_EXACT_MASS>
453.18862648

> <PUBCHEM_MOLECULAR_FORMULA>
C25H28FN3O2S

> <PUBCHEM_MOLECULAR_WEIGHT>
453.6

> <PUBCHEM_OPENEYE_CAN_SMILES>
C1CN2C3CCN(CC3C4=C2C(=CC=C4)SC1)CCCC(=O)C5=C(C=C(C=C5)F)NC=O

> <PUBCHEM_OPENEYE_ISO_SMILES>
C1CN2[C@H]3CCN(C[C@H]3C4=C2C(=CC=C4)SC1)CCCC(=O)C5=C(C=C(C=C5)F)NC=O

> <PUBCHEM_CACTVS_TPSA>
78

> <PUBCHEM_MONOISOTOPIC_WEIGHT>
453.18862648

> <PUBCHEM_TOTAL_CHARGE>
0

> <PUBCHEM_HEAVY_ATOM_COUNT>
32

> <PUBCHEM_ATOM_DEF_STEREO_COUNT>
2

> <PUBCHEM_ATOM_UDEF_STEREO_COUNT>
0

> <PUBCHEM_BOND_DEF_STEREO_COUNT>
0

> <PUBCHEM_BOND_UDEF_STEREO_COUNT>
0

> <PUBCHEM_ISOTOPIC_ATOM_COUNT>
0

> <PUBCHEM_COMPONENT_COUNT>
1

> <PUBCHEM_CACTVS_TAUTO_COUNT>
-1

> <PUBCHEM_COORDINATE_TYPE>
1
5
255

> <PUBCHEM_BONDANNOTATIONS>
12  13  8
12  18  8
13  17  8
17  22  8
18  23  8
22  23  8
26  27  8
26  28  8
27  29  8
28  30  8
29  31  8
30  31  8
8  33  5
9  34  5

$$$$
