11524412
  -OEChem-09292322272D

 55 59  0     0  0  0  0  0  0999 V2000
    2.0000   -4.9241    0.0000 Cl  0  0  0  0  0  0  0  0  0  0  0  0
    7.8628    3.3929    0.0000 O   0  0  0  0  0  0  0  0  0  0  0  0
    7.8628    5.4622    0.0000 O   0  0  0  0  0  0  0  0  0  0  0  0
    6.1028    0.4276    0.0000 N   0  0  0  0  0  0  0  0  0  0  0  0
    6.1028    2.4276    0.0000 N   0  0  0  0  0  0  0  0  0  0  0  0
    2.7959   -2.9044    0.0000 N   0  0  0  0  0  0  0  0  0  0  0  0
    6.9688    0.9276    0.0000 C   0  0  0  0  0  0  0  0  0  0  0  0
    5.2368    0.9276    0.0000 C   0  0  0  0  0  0  0  0  0  0  0  0
    6.9688    1.9276    0.0000 C   0  0  0  0  0  0  0  0  0  0  0  0
    5.2368    1.9276    0.0000 C   0  0  0  0  0  0  0  0  0  0  0  0
    6.1028   -0.5724    0.0000 C   0  0  0  0  0  0  0  0  0  0  0  0
    5.2368   -1.0724    0.0000 C   0  0  0  0  0  0  0  0  0  0  0  0
    6.1028    3.4276    0.0000 C   0  0  0  0  0  0  0  0  0  0  0  0
    5.2368   -2.0724    0.0000 C   0  0  0  0  0  0  0  0  0  0  0  0
    4.3707   -2.5724    0.0000 C   0  0  0  0  0  0  0  0  0  0  0  0
    6.9688    3.9276    0.0000 C   0  0  0  0  0  0  0  0  0  0  0  0
    5.2368    3.9276    0.0000 C   0  0  0  0  0  0  0  0  0  0  0  0
    4.2677   -3.5612    0.0000 C   0  0  0  0  0  0  0  0  0  0  0  0
    6.9688    4.9276    0.0000 C   0  0  0  0  0  0  0  0  0  0  0  0
    3.4629   -2.1673    0.0000 C   0  0  0  0  0  0  0  0  0  0  0  0
    3.2892   -3.7674    0.0000 C   0  0  0  0  0  0  0  0  0  0  0  0
    5.2368    4.9276    0.0000 C   0  0  0  0  0  0  0  0  0  0  0  0
    6.1028    5.4276    0.0000 C   0  0  0  0  0  0  0  0  0  0  0  0
    8.7688    3.9067    0.0000 C   0  0  0  0  0  0  0  0  0  0  0  0
    8.7688    4.9484    0.0000 C   0  0  0  0  0  0  0  0  0  0  0  0
    4.9355   -4.3055    0.0000 C   0  0  0  0  0  0  0  0  0  0  0  0
    2.9785   -4.7179    0.0000 C   0  0  0  0  0  0  0  0  0  0  0  0
    4.6249   -5.2560    0.0000 C   0  0  0  0  0  0  0  0  0  0  0  0
    3.6464   -5.4622    0.0000 C   0  0  0  0  0  0  0  0  0  0  0  0
    7.1809    0.3449    0.0000 H   0  0  0  0  0  0  0  0  0  0  0  0
    7.5794    1.0352    0.0000 H   0  0  0  0  0  0  0  0  0  0  0  0
    4.6262    1.0352    0.0000 H   0  0  0  0  0  0  0  0  0  0  0  0
    5.0247    0.3449    0.0000 H   0  0  0  0  0  0  0  0  0  0  0  0
    7.5794    1.8199    0.0000 H   0  0  0  0  0  0  0  0  0  0  0  0
    7.1809    2.5102    0.0000 H   0  0  0  0  0  0  0  0  0  0  0  0
    5.0247    2.5102    0.0000 H   0  0  0  0  0  0  0  0  0  0  0  0
    4.6262    1.8199    0.0000 H   0  0  0  0  0  0  0  0  0  0  0  0
    6.3148   -1.1551    0.0000 H   0  0  0  0  0  0  0  0  0  0  0  0
    6.7134   -0.4648    0.0000 H   0  0  0  0  0  0  0  0  0  0  0  0
    5.0247   -0.4898    0.0000 H   0  0  0  0  0  0  0  0  0  0  0  0
    4.6262   -1.1801    0.0000 H   0  0  0  0  0  0  0  0  0  0  0  0
    5.4488   -2.6551    0.0000 H   0  0  0  0  0  0  0  0  0  0  0  0
    5.8473   -1.9648    0.0000 H   0  0  0  0  0  0  0  0  0  0  0  0
    4.6998    3.6176    0.0000 H   0  0  0  0  0  0  0  0  0  0  0  0
    3.3351   -1.5607    0.0000 H   0  0  0  0  0  0  0  0  0  0  0  0
    4.6998    5.2376    0.0000 H   0  0  0  0  0  0  0  0  0  0  0  0
    2.1795   -2.8374    0.0000 H   0  0  0  0  0  0  0  0  0  0  0  0
    6.1028    6.0476    0.0000 H   0  0  0  0  0  0  0  0  0  0  0  0
    8.9779    3.3230    0.0000 H   0  0  0  0  0  0  0  0  0  0  0  0
    9.3797    4.0128    0.0000 H   0  0  0  0  0  0  0  0  0  0  0  0
    9.3797    4.8423    0.0000 H   0  0  0  0  0  0  0  0  0  0  0  0
    8.9779    5.5321    0.0000 H   0  0  0  0  0  0  0  0  0  0  0  0
    5.5422   -4.1776    0.0000 H   0  0  0  0  0  0  0  0  0  0  0  0
    5.0389   -5.7175    0.0000 H   0  0  0  0  0  0  0  0  0  0  0  0
    3.4537   -6.0515    0.0000 H   0  0  0  0  0  0  0  0  0  0  0  0
  1 27  1  0  0  0  0
  2 16  1  0  0  0  0
  2 24  1  0  0  0  0
  3 19  1  0  0  0  0
  3 25  1  0  0  0  0
  4  7  1  0  0  0  0
  4  8  1  0  0  0  0
  4 11  1  0  0  0  0
  5  9  1  0  0  0  0
  5 10  1  0  0  0  0
  5 13  1  0  0  0  0
  6 20  1  0  0  0  0
  6 21  1  0  0  0  0
  6 47  1  0  0  0  0
  7  9  1  0  0  0  0
  7 30  1  0  0  0  0
  7 31  1  0  0  0  0
  8 10  1  0  0  0  0
  8 32  1  0  0  0  0
  8 33  1  0  0  0  0
  9 34  1  0  0  0  0
  9 35  1  0  0  0  0
 10 36  1  0  0  0  0
 10 37  1  0  0  0  0
 11 12  1  0  0  0  0
 11 38  1  0  0  0  0
 11 39  1  0  0  0  0
 12 14  1  0  0  0  0
 12 40  1  0  0  0  0
 12 41  1  0  0  0  0
 13 16  2  0  0  0  0
 13 17  1  0  0  0  0
 14 15  1  0  0  0  0
 14 42  1  0  0  0  0
 14 43  1  0  0  0  0
 15 18  1  0  0  0  0
 15 20  2  0  0  0  0
 16 19  1  0  0  0  0
 17 22  2  0  0  0  0
 17 44  1  0  0  0  0
 18 21  2  0  0  0  0
 18 26  1  0  0  0  0
 19 23  2  0  0  0  0
 20 45  1  0  0  0  0
 21 27  1  0  0  0  0
 22 23  1  0  0  0  0
 22 46  1  0  0  0  0
 23 48  1  0  0  0  0
 24 25  1  0  0  0  0
 24 49  1  0  0  0  0
 24 50  1  0  0  0  0
 25 51  1  0  0  0  0
 25 52  1  0  0  0  0
 26 28  2  0  0  0  0
 26 53  1  0  0  0  0
 27 29  2  0  0  0  0
 28 29  1  0  0  0  0
 28 54  1  0  0  0  0
 29 55  1  0  0  0  0
M  END
> <PUBCHEM_COMPOUND_CID>
11524412

> <PUBCHEM_COMPOUND_CANONICALIZED>
1

> <PUBCHEM_CACTVS_COMPLEXITY>
530

> <PUBCHEM_CACTVS_HBOND_ACCEPTOR>
4

> <PUBCHEM_CACTVS_HBOND_DONOR>
1

> <PUBCHEM_CACTVS_ROTATABLE_BOND>
5

> <PUBCHEM_CACTVS_SUBSKEYS>
AAADceB7MAAEAAAAAAAAAAAAAAAAAWAAAAA8aIEAAAAAAFiR9AAAHgIQAAAADA7hniY8xvPJlACgAzRnRACCiCAxJyAI2aAv7pgPZuLFs5vXOCrmwBna6AeQ0MMOgAAAIgACUBAAAABEAASgIAAAAAAAAA==

> <PUBCHEM_IUPAC_OPENEYE_NAME>
7-chloro-3-[3-[4-(2,3-dihydro-1,4-benzodioxin-5-yl)piperazin-1-yl]propyl]-1H-indole

> <PUBCHEM_IUPAC_CAS_NAME>
7-chloro-3-[3-[4-(2,3-dihydro-1,4-benzodioxin-5-yl)-1-piperazinyl]propyl]-1H-indole

> <PUBCHEM_IUPAC_NAME_MARKUP>
7-chloro-3-[3-[4-(2,3-dihydro-1,4-benzodioxin-5-yl)piperazin-1-yl]propyl]-1<I>H</I>-indole

> <PUBCHEM_IUPAC_NAME>
7-chloro-3-[3-[4-(2,3-dihydro-1,4-benzodioxin-5-yl)piperazin-1-yl]propyl]-1H-indole

> <PUBCHEM_IUPAC_SYSTEMATIC_NAME>
7-chloranyl-3-[3-[4-(2,3-dihydro-1,4-benzodioxin-5-yl)piperazin-1-yl]propyl]-1H-indole

> <PUBCHEM_IUPAC_TRADITIONAL_NAME>
7-chloro-3-[3-[4-(2,3-dihydro-1,4-benzodioxin-5-yl)piperazino]propyl]-1H-indole

> <PUBCHEM_IUPAC_INCHI>
InChI=1S/C23H26ClN3O2/c24-19-6-1-5-18-17(16-25-22(18)19)4-3-9-26-10-12-27(13-11-26)20-7-2-8-21-23(20)29-15-14-28-21/h1-2,5-8,16,25H,3-4,9-15H2

> <PUBCHEM_IUPAC_INCHIKEY>
PGWINTIXBMKEKI-UHFFFAOYSA-N

> <PUBCHEM_XLOGP3_AA>
4.6

> <PUBCHEM_EXACT_MASS>
411.1713548

> <PUBCHEM_MOLECULAR_FORMULA>
C23H26ClN3O2

> <PUBCHEM_MOLECULAR_WEIGHT>
411.9

> <PUBCHEM_OPENEYE_CAN_SMILES>
C1CN(CCN1CCCC2=CNC3=C2C=CC=C3Cl)C4=C5C(=CC=C4)OCCO5

> <PUBCHEM_OPENEYE_ISO_SMILES>
C1CN(CCN1CCCC2=CNC3=C2C=CC=C3Cl)C4=C5C(=CC=C4)OCCO5

> <PUBCHEM_CACTVS_TPSA>
40.7

> <PUBCHEM_MONOISOTOPIC_WEIGHT>
411.1713548

> <PUBCHEM_TOTAL_CHARGE>
0

> <PUBCHEM_HEAVY_ATOM_COUNT>
29

> <PUBCHEM_ATOM_DEF_STEREO_COUNT>
0

> <PUBCHEM_ATOM_UDEF_STEREO_COUNT>
0

> <PUBCHEM_BOND_DEF_STEREO_COUNT>
0

> <PUBCHEM_BOND_UDEF_STEREO_COUNT>
0

> <PUBCHEM_ISOTOPIC_ATOM_COUNT>
0

> <PUBCHEM_COMPONENT_COUNT>
1

> <PUBCHEM_CACTVS_TAUTO_COUNT>
-1

> <PUBCHEM_COORDINATE_TYPE>
1
5
255

> <PUBCHEM_BONDANNOTATIONS>
13  16  8
13  17  8
15  18  8
15  20  8
16  19  8
17  22  8
18  21  8
18  26  8
19  23  8
21  27  8
22  23  8
26  28  8
27  29  8
28  29  8
6  20  8
6  21  8

$$$$
