71456235
  -OEChem-09292322112D

 57 59  0     0  0  0  0  0  0999 V2000
   12.2988    0.0000    0.0000 Cl  0  0  0  0  0  0  0  0  0  0  0  0
   14.2988    0.0000    0.0000 Cl  0  0  0  0  0  0  0  0  0  0  0  0
    6.9594    7.9487    0.0000 Cl  0  0  0  0  0  0  0  0  0  0  0  0
    3.2152    3.5254    0.0000 O   0  0  0  0  0  0  0  0  0  0  0  0
    5.2988    5.1962    0.0000 O   0  0  0  0  0  0  0  0  0  0  0  0
    9.2988    1.7320    0.0000 N   0  0  0  0  0  0  0  0  0  0  0  0
   11.2988    1.7320    0.0000 N   0  0  0  0  0  0  0  0  0  0  0  0
    5.2988    3.4641    0.0000 N   0  0  0  0  0  0  0  0  0  0  0  0
    9.7988    2.5981    0.0000 C   0  0  0  0  0  0  0  0  0  0  0  0
    9.7988    0.8660    0.0000 C   0  0  0  0  0  0  0  0  0  0  0  0
   10.7988    2.5981    0.0000 C   0  0  0  0  0  0  0  0  0  0  0  0
   10.7988    0.8660    0.0000 C   0  0  0  0  0  0  0  0  0  0  0  0
    8.2988    1.7320    0.0000 C   0  0  0  0  0  0  0  0  0  0  0  0
    7.7988    2.5981    0.0000 C   0  0  0  0  0  0  0  0  0  0  0  0
   12.2988    1.7320    0.0000 C   0  0  0  0  0  0  0  0  0  0  0  0
    6.7988    2.5981    0.0000 C   0  0  0  0  0  0  0  0  0  0  0  0
    6.2988    3.4641    0.0000 C   0  0  0  0  0  0  0  0  0  0  0  0
   12.7988    0.8660    0.0000 C   0  0  0  0  0  0  0  0  0  0  0  0
   12.7988    2.5981    0.0000 C   0  0  0  0  0  0  0  0  0  0  0  0
   13.7988    0.8660    0.0000 C   0  0  0  0  0  0  0  0  0  0  0  0
   13.7988    2.5981    0.0000 C   0  0  0  0  0  0  0  0  0  0  0  0
   14.2988    1.7320    0.0000 C   0  0  0  0  0  0  0  0  0  0  0  0
    4.7988    4.3301    0.0000 C   0  0  0  0  0  0  0  0  0  0  0  0
    3.7988    4.3301    0.0000 C   0  0  0  0  0  0  0  0  0  0  0  0
    3.2152    5.1349    0.0000 C   0  0  0  0  0  0  0  0  0  0  0  0
    2.2690    4.8301    0.0000 C   0  0  0  0  0  0  0  0  0  0  0  0
    2.2690    3.8301    0.0000 C   0  0  0  0  0  0  0  0  0  0  0  0
    1.4030    5.3301    0.0000 C   0  0  0  0  0  0  0  0  0  0  0  0
    1.4030    3.3301    0.0000 C   0  0  0  0  0  0  0  0  0  0  0  0
    0.5369    4.8301    0.0000 C   0  0  0  0  0  0  0  0  0  0  0  0
    0.5369    3.8301    0.0000 C   0  0  0  0  0  0  0  0  0  0  0  0
    9.9065    3.2087    0.0000 H   0  0  0  0  0  0  0  0  0  0  0  0
    9.2162    2.8101    0.0000 H   0  0  0  0  0  0  0  0  0  0  0  0
    9.2162    0.6540    0.0000 H   0  0  0  0  0  0  0  0  0  0  0  0
    9.9065    0.2554    0.0000 H   0  0  0  0  0  0  0  0  0  0  0  0
   11.3814    2.8101    0.0000 H   0  0  0  0  0  0  0  0  0  0  0  0
   10.6912    3.2087    0.0000 H   0  0  0  0  0  0  0  0  0  0  0  0
   10.6912    0.2554    0.0000 H   0  0  0  0  0  0  0  0  0  0  0  0
   11.3814    0.6540    0.0000 H   0  0  0  0  0  0  0  0  0  0  0  0
    7.7162    1.5200    0.0000 H   0  0  0  0  0  0  0  0  0  0  0  0
    8.4065    1.1215    0.0000 H   0  0  0  0  0  0  0  0  0  0  0  0
    8.3814    2.8101    0.0000 H   0  0  0  0  0  0  0  0  0  0  0  0
    7.6912    3.2087    0.0000 H   0  0  0  0  0  0  0  0  0  0  0  0
    6.2162    2.3860    0.0000 H   0  0  0  0  0  0  0  0  0  0  0  0
    6.9065    1.9875    0.0000 H   0  0  0  0  0  0  0  0  0  0  0  0
    6.8814    3.6762    0.0000 H   0  0  0  0  0  0  0  0  0  0  0  0
    6.1912    4.0747    0.0000 H   0  0  0  0  0  0  0  0  0  0  0  0
   12.4888    3.1350    0.0000 H   0  0  0  0  0  0  0  0  0  0  0  0
    4.9888    2.9272    0.0000 H   0  0  0  0  0  0  0  0  0  0  0  0
   14.1088    3.1350    0.0000 H   0  0  0  0  0  0  0  0  0  0  0  0
   14.9188    1.7320    0.0000 H   0  0  0  0  0  0  0  0  0  0  0  0
    3.4078    5.7242    0.0000 H   0  0  0  0  0  0  0  0  0  0  0  0
    1.4030    5.9501    0.0000 H   0  0  0  0  0  0  0  0  0  0  0  0
    1.4030    2.7101    0.0000 H   0  0  0  0  0  0  0  0  0  0  0  0
    0.0000    5.1401    0.0000 H   0  0  0  0  0  0  0  0  0  0  0  0
    0.0000    3.5201    0.0000 H   0  0  0  0  0  0  0  0  0  0  0  0
    7.9594    7.9487    0.0000 H   0  0  0  0  0  0  0  0  0  0  0  0
  1 18  1  0  0  0  0
  2 20  1  0  0  0  0
  3 57  1  0  0  0  0
  4 24  1  0  0  0  0
  4 27  1  0  0  0  0
  5 23  2  0  0  0  0
  6  9  1  0  0  0  0
  6 10  1  0  0  0  0
  6 13  1  0  0  0  0
  7 11  1  0  0  0  0
  7 12  1  0  0  0  0
  7 15  1  0  0  0  0
  8 17  1  0  0  0  0
  8 23  1  0  0  0  0
  8 49  1  0  0  0  0
  9 11  1  0  0  0  0
  9 32  1  0  0  0  0
  9 33  1  0  0  0  0
 10 12  1  0  0  0  0
 10 34  1  0  0  0  0
 10 35  1  0  0  0  0
 11 36  1  0  0  0  0
 11 37  1  0  0  0  0
 12 38  1  0  0  0  0
 12 39  1  0  0  0  0
 13 14  1  0  0  0  0
 13 40  1  0  0  0  0
 13 41  1  0  0  0  0
 14 16  1  0  0  0  0
 14 42  1  0  0  0  0
 14 43  1  0  0  0  0
 15 18  2  0  0  0  0
 15 19  1  0  0  0  0
 16 17  1  0  0  0  0
 16 44  1  0  0  0  0
 16 45  1  0  0  0  0
 17 46  1  0  0  0  0
 17 47  1  0  0  0  0
 18 20  1  0  0  0  0
 19 21  2  0  0  0  0
 19 48  1  0  0  0  0
 20 22  2  0  0  0  0
 21 22  1  0  0  0  0
 21 50  1  0  0  0  0
 22 51  1  0  0  0  0
 23 24  1  0  0  0  0
 24 25  2  0  0  0  0
 25 26  1  0  0  0  0
 25 52  1  0  0  0  0
 26 27  1  0  0  0  0
 26 28  2  0  0  0  0
 27 29  2  0  0  0  0
 28 30  1  0  0  0  0
 28 53  1  0  0  0  0
 29 31  1  0  0  0  0
 29 54  1  0  0  0  0
 30 31  2  0  0  0  0
 30 55  1  0  0  0  0
 31 56  1  0  0  0  0
M  END
> <PUBCHEM_COMPOUND_CID>
71456235

> <PUBCHEM_COMPOUND_CANONICALIZED>
1

> <PUBCHEM_CACTVS_COMPLEXITY>
559

> <PUBCHEM_CACTVS_HBOND_ACCEPTOR>
4

> <PUBCHEM_CACTVS_HBOND_DONOR>
2

> <PUBCHEM_CACTVS_ROTATABLE_BOND>
7

> <PUBCHEM_CACTVS_SUBSKEYS>
AAADceB7MAAGAAAAAAAAAAAAAAAAASAAAAA8YIAAAAAAAEgB9AAAHgIQAAAADA7BmCQwxsPABECIAqVSUAKCCAAlJwAIisHObsgOZjLFt7/XOSjk1hHY6YeY36LuAAAAAAIIABQAAAAABBAAKAAAAAAAAA==

> <PUBCHEM_IUPAC_OPENEYE_NAME>
N-[4-[4-(2,3-dichlorophenyl)piperazin-1-yl]butyl]benzofuran-2-carboxamide;hydrochloride

> <PUBCHEM_IUPAC_CAS_NAME>
N-[4-[4-(2,3-dichlorophenyl)-1-piperazinyl]butyl]-2-benzofurancarboxamide;hydrochloride

> <PUBCHEM_IUPAC_NAME_MARKUP>
<I>N</I>-[4-[4-(2,3-dichlorophenyl)piperazin-1-yl]butyl]-1-benzofuran-2-carboxamide;hydrochloride

> <PUBCHEM_IUPAC_NAME>
N-[4-[4-(2,3-dichlorophenyl)piperazin-1-yl]butyl]-1-benzofuran-2-carboxamide;hydrochloride

> <PUBCHEM_IUPAC_SYSTEMATIC_NAME>
N-[4-[4-[2,3-bis(chloranyl)phenyl]piperazin-1-yl]butyl]-1-benzofuran-2-carboxamide;hydrochloride

> <PUBCHEM_IUPAC_TRADITIONAL_NAME>
N-[4-[4-(2,3-dichlorophenyl)piperazino]butyl]coumarilamide;hydrochloride

> <PUBCHEM_IUPAC_INCHI>
InChI=1S/C23H25Cl2N3O2.ClH/c24-18-7-5-8-19(22(18)25)28-14-12-27(13-15-28)11-4-3-10-26-23(29)21-16-17-6-1-2-9-20(17)30-21;/h1-2,5-9,16H,3-4,10-15H2,(H,26,29);1H

> <PUBCHEM_IUPAC_INCHIKEY>
YSNFHQGKNPQAPU-UHFFFAOYSA-N

> <PUBCHEM_EXACT_MASS>
481.109060

> <PUBCHEM_MOLECULAR_FORMULA>
C23H26Cl3N3O2

> <PUBCHEM_MOLECULAR_WEIGHT>
482.8

> <PUBCHEM_OPENEYE_CAN_SMILES>
C1CN(CCN1CCCCNC(=O)C2=CC3=CC=CC=C3O2)C4=C(C(=CC=C4)Cl)Cl.Cl

> <PUBCHEM_OPENEYE_ISO_SMILES>
C1CN(CCN1CCCCNC(=O)C2=CC3=CC=CC=C3O2)C4=C(C(=CC=C4)Cl)Cl.Cl

> <PUBCHEM_CACTVS_TPSA>
48.7

> <PUBCHEM_MONOISOTOPIC_WEIGHT>
481.109060

> <PUBCHEM_TOTAL_CHARGE>
0

> <PUBCHEM_HEAVY_ATOM_COUNT>
31

> <PUBCHEM_ATOM_DEF_STEREO_COUNT>
0

> <PUBCHEM_ATOM_UDEF_STEREO_COUNT>
0

> <PUBCHEM_BOND_DEF_STEREO_COUNT>
0

> <PUBCHEM_BOND_UDEF_STEREO_COUNT>
0

> <PUBCHEM_ISOTOPIC_ATOM_COUNT>
0

> <PUBCHEM_COMPONENT_COUNT>
2

> <PUBCHEM_CACTVS_TAUTO_COUNT>
-1

> <PUBCHEM_COORDINATE_TYPE>
1
5
255

> <PUBCHEM_BONDANNOTATIONS>
15  18  8
15  19  8
18  20  8
19  21  8
20  22  8
21  22  8
24  25  8
25  26  8
26  27  8
26  28  8
27  29  8
28  30  8
29  31  8
30  31  8
4  24  8
4  27  8

$$$$
