10107367
  -OEChem-09292322142D

 35 37  0     1  0  0  0  0  0999 V2000
    2.5381    2.5068    0.0000 Cl  0  0  0  0  0  0  0  0  0  0  0  0
    2.5381    0.4585    0.0000 O   0  0  0  0  0  0  0  0  0  0  0  0
    6.9343    0.9827    0.0000 N   0  0  3  0  0  0  0  0  0  0  0  0
    6.0682    0.4827    0.0000 C   0  0  2  0  0  0  0  0  0  0  0  0
    5.2022    0.9827    0.0000 C   0  0  0  0  0  0  0  0  0  0  0  0
    6.9343    1.9827    0.0000 C   0  0  0  0  0  0  0  0  0  0  0  0
    6.0682    2.4827    0.0000 C   0  0  0  0  0  0  0  0  0  0  0  0
    5.2022    1.9827    0.0000 C   0  0  0  0  0  0  0  0  0  0  0  0
    6.0682   -0.5173    0.0000 C   0  0  0  0  0  0  0  0  0  0  0  0
    7.8003    0.4827    0.0000 C   0  0  0  0  0  0  0  0  0  0  0  0
    4.3083    0.4480    0.0000 C   0  0  0  0  0  0  0  0  0  0  0  0
    4.3083    2.5173    0.0000 C   0  0  0  0  0  0  0  0  0  0  0  0
    3.4022    0.9619    0.0000 C   0  0  0  0  0  0  0  0  0  0  0  0
    5.2022   -1.0173    0.0000 C   0  0  0  0  0  0  0  0  0  0  0  0
    6.9343   -1.0173    0.0000 C   0  0  0  0  0  0  0  0  0  0  0  0
    3.4022    2.0035    0.0000 C   0  0  0  0  0  0  0  0  0  0  0  0
    5.2022   -2.0173    0.0000 C   0  0  0  0  0  0  0  0  0  0  0  0
    6.9343   -2.0173    0.0000 C   0  0  0  0  0  0  0  0  0  0  0  0
    6.0682   -2.5173    0.0000 C   0  0  0  0  0  0  0  0  0  0  0  0
    6.6052    0.1727    0.0000 H   0  0  0  0  0  0  0  0  0  0  0  0
    7.5449    1.8750    0.0000 H   0  0  0  0  0  0  0  0  0  0  0  0
    7.1463    2.5653    0.0000 H   0  0  0  0  0  0  0  0  0  0  0  0
    6.4668    2.9576    0.0000 H   0  0  0  0  0  0  0  0  0  0  0  0
    5.6697    2.9576    0.0000 H   0  0  0  0  0  0  0  0  0  0  0  0
    7.4903   -0.0543    0.0000 H   0  0  0  0  0  0  0  0  0  0  0  0
    8.3372    0.1727    0.0000 H   0  0  0  0  0  0  0  0  0  0  0  0
    8.1103    1.0196    0.0000 H   0  0  0  0  0  0  0  0  0  0  0  0
    4.3154   -0.1720    0.0000 H   0  0  0  0  0  0  0  0  0  0  0  0
    4.3154    3.1373    0.0000 H   0  0  0  0  0  0  0  0  0  0  0  0
    4.6653   -0.7073    0.0000 H   0  0  0  0  0  0  0  0  0  0  0  0
    7.4712   -0.7073    0.0000 H   0  0  0  0  0  0  0  0  0  0  0  0
    4.6653   -2.3273    0.0000 H   0  0  0  0  0  0  0  0  0  0  0  0
    7.4712   -2.3273    0.0000 H   0  0  0  0  0  0  0  0  0  0  0  0
    6.0682   -3.1373    0.0000 H   0  0  0  0  0  0  0  0  0  0  0  0
    2.0000    0.7664    0.0000 H   0  0  0  0  0  0  0  0  0  0  0  0
  1 16  1  0  0  0  0
  2 13  1  0  0  0  0
  2 35  1  0  0  0  0
  3  4  1  0  0  0  0
  3  6  1  0  0  0  0
  3 10  1  0  0  0  0
  4  5  1  0  0  0  0
  4  9  1  1  0  0  0
  4 20  1  0  0  0  0
  5  8  1  0  0  0  0
  5 11  2  0  0  0  0
  6  7  1  0  0  0  0
  6 21  1  0  0  0  0
  6 22  1  0  0  0  0
  7  8  1  0  0  0  0
  7 23  1  0  0  0  0
  7 24  1  0  0  0  0
  8 12  2  0  0  0  0
  9 14  2  0  0  0  0
  9 15  1  0  0  0  0
 10 25  1  0  0  0  0
 10 26  1  0  0  0  0
 10 27  1  0  0  0  0
 11 13  1  0  0  0  0
 11 28  1  0  0  0  0
 12 16  1  0  0  0  0
 12 29  1  0  0  0  0
 13 16  2  0  0  0  0
 14 17  1  0  0  0  0
 14 30  1  0  0  0  0
 15 18  2  0  0  0  0
 15 31  1  0  0  0  0
 17 19  2  0  0  0  0
 17 32  1  0  0  0  0
 18 19  1  0  0  0  0
 18 33  1  0  0  0  0
 19 34  1  0  0  0  0
M  END
> <PUBCHEM_COMPOUND_CID>
10107367

> <PUBCHEM_COMPOUND_CANONICALIZED>
1

> <PUBCHEM_CACTVS_COMPLEXITY>
305

> <PUBCHEM_CACTVS_HBOND_ACCEPTOR>
2

> <PUBCHEM_CACTVS_HBOND_DONOR>
1

> <PUBCHEM_CACTVS_ROTATABLE_BOND>
1

> <PUBCHEM_CACTVS_SUBSKEYS>
AAADceB6IAAEAAAAAAAAAAAAAAAAAAAAAAA8YIAAAAAAAACxQAAAHgIACAAADC7BmCQyBoMAAgCAAiBCAACCAAAgJUAIiAAOD4gIJiKDkxOEcAhkwBGImAewwPAOpAABIAAQCABIAAJAACAQAAAAAAAAAA==

> <PUBCHEM_IUPAC_OPENEYE_NAME>
(1S)-6-chloro-2-methyl-1-phenyl-3,4-dihydro-1H-isoquinolin-7-ol

> <PUBCHEM_IUPAC_CAS_NAME>
(1S)-6-chloro-2-methyl-1-phenyl-3,4-dihydro-1H-isoquinolin-7-ol

> <PUBCHEM_IUPAC_NAME_MARKUP>
(1<I>S</I>)-6-chloro-2-methyl-1-phenyl-3,4-dihydro-1<I>H</I>-isoquinolin-7-ol

> <PUBCHEM_IUPAC_NAME>
(1S)-6-chloro-2-methyl-1-phenyl-3,4-dihydro-1H-isoquinolin-7-ol

> <PUBCHEM_IUPAC_SYSTEMATIC_NAME>
(1S)-6-chloranyl-2-methyl-1-phenyl-3,4-dihydro-1H-isoquinolin-7-ol

> <PUBCHEM_IUPAC_TRADITIONAL_NAME>
(1S)-6-chloro-2-methyl-1-phenyl-3,4-dihydro-1H-isoquinolin-7-ol

> <PUBCHEM_IUPAC_INCHI>
InChI=1S/C16H16ClNO/c1-18-8-7-12-9-14(17)15(19)10-13(12)16(18)11-5-3-2-4-6-11/h2-6,9-10,16,19H,7-8H2,1H3/t16-/m0/s1

> <PUBCHEM_IUPAC_INCHIKEY>
AVXGCGYACIYZAR-INIZCTEOSA-N

> <PUBCHEM_XLOGP3_AA>
3.8

> <PUBCHEM_EXACT_MASS>
273.0920418

> <PUBCHEM_MOLECULAR_FORMULA>
C16H16ClNO

> <PUBCHEM_MOLECULAR_WEIGHT>
273.75

> <PUBCHEM_OPENEYE_CAN_SMILES>
CN1CCC2=CC(=C(C=C2C1C3=CC=CC=C3)O)Cl

> <PUBCHEM_OPENEYE_ISO_SMILES>
CN1CCC2=CC(=C(C=C2[C@@H]1C3=CC=CC=C3)O)Cl

> <PUBCHEM_CACTVS_TPSA>
23.5

> <PUBCHEM_MONOISOTOPIC_WEIGHT>
273.0920418

> <PUBCHEM_TOTAL_CHARGE>
0

> <PUBCHEM_HEAVY_ATOM_COUNT>
19

> <PUBCHEM_ATOM_DEF_STEREO_COUNT>
1

> <PUBCHEM_ATOM_UDEF_STEREO_COUNT>
0

> <PUBCHEM_BOND_DEF_STEREO_COUNT>
0

> <PUBCHEM_BOND_UDEF_STEREO_COUNT>
0

> <PUBCHEM_ISOTOPIC_ATOM_COUNT>
0

> <PUBCHEM_COMPONENT_COUNT>
1

> <PUBCHEM_CACTVS_TAUTO_COUNT>
-1

> <PUBCHEM_COORDINATE_TYPE>
1
5
255

> <PUBCHEM_BONDANNOTATIONS>
11  13  8
12  16  8
13  16  8
14  17  8
15  18  8
17  19  8
18  19  8
4  9  5
5  11  8
5  8  8
8  12  8
9  14  8
9  15  8

$$$$
