45262345
  -OEChem-09292322122D

 77 80  0     1  0  0  0  0  0999 V2000
    7.8744    0.0000    0.0000 Cl  0  0  0  0  0  0  0  0  0  0  0  0
   15.3427    8.8502    0.0000 S   0  0  0  0  0  0  0  0  0  0  0  0
    4.1200    5.7246    0.0000 O   0  0  0  0  0  0  0  0  0  0  0  0
   14.4747    9.3468    0.0000 O   0  0  0  0  0  0  0  0  0  0  0  0
   15.8393    9.7181    0.0000 O   0  0  0  0  0  0  0  0  0  0  0  0
   14.8460    7.9822    0.0000 O   0  0  0  0  0  0  0  0  0  0  0  0
    9.6200    8.3227    0.0000 N   0  0  3  0  0  0  0  0  0  0  0  0
    4.1200    7.4567    0.0000 N   0  0  0  0  0  0  0  0  0  0  0  0
    0.5853    4.8307    0.0000 N   0  0  0  0  0  0  0  0  0  0  0  0
    7.1200    7.4567    0.0000 C   0  0  0  0  0  0  0  0  0  0  0  0
    6.6200    6.5906    0.0000 C   0  0  0  0  0  0  0  0  0  0  0  0
    6.6200    8.3227    0.0000 C   0  0  0  0  0  0  0  0  0  0  0  0
    5.1200    7.4567    0.0000 C   0  0  0  0  0  0  0  0  0  0  0  0
    5.6200    6.5906    0.0000 C   0  0  0  0  0  0  0  0  0  0  0  0
    5.6200    8.3227    0.0000 C   0  0  0  0  0  0  0  0  0  0  0  0
    8.1200    7.4567    0.0000 C   0  0  0  0  0  0  0  0  0  0  0  0
    8.6200    8.3227    0.0000 C   0  0  0  0  0  0  0  0  0  0  0  0
   10.0539    9.2237    0.0000 C   0  0  0  0  0  0  0  0  0  0  0  0
   10.0539    7.4217    0.0000 C   0  0  0  0  0  0  0  0  0  0  0  0
   11.0288    9.4462    0.0000 C   0  0  0  0  0  0  0  0  0  0  0  0
   11.0288    7.1992    0.0000 C   0  0  0  0  0  0  0  0  0  0  0  0
   11.8106    8.8227    0.0000 C   0  0  0  0  0  0  0  0  0  0  0  0
   11.8106    7.8227    0.0000 C   0  0  0  0  0  0  0  0  0  0  0  0
    3.6200    6.5906    0.0000 C   0  0  0  0  0  0  0  0  0  0  0  0
    2.6200    6.5906    0.0000 C   0  0  0  0  0  0  0  0  0  0  0  0
   12.7046    9.3574    0.0000 C   0  0  0  0  0  0  0  0  0  0  0  0
   12.7046    7.2880    0.0000 C   0  0  0  0  0  0  0  0  0  0  0  0
   13.6107    8.8435    0.0000 C   0  0  0  0  0  0  0  0  0  0  0  0
   13.6107    7.8019    0.0000 C   0  0  0  0  0  0  0  0  0  0  0  0
    2.1200    5.7246    0.0000 C   0  0  0  0  0  0  0  0  0  0  0  0
    2.1200    7.4567    0.0000 C   0  0  0  0  0  0  0  0  0  0  0  0
    1.1200    5.7246    0.0000 C   0  0  0  0  0  0  0  0  0  0  0  0
    1.1200    7.4567    0.0000 C   0  0  0  0  0  0  0  0  0  0  0  0
    2.6547    4.8307    0.0000 C   0  0  0  0  0  0  0  0  0  0  0  0
    0.6200    6.5906    0.0000 C   0  0  0  0  0  0  0  0  0  0  0  0
    2.1408    3.9246    0.0000 C   0  0  0  0  0  0  0  0  0  0  0  0
    1.0992    3.9246    0.0000 C   0  0  0  0  0  0  0  0  0  0  0  0
   16.2106    8.3535    0.0000 C   0  0  0  0  0  0  0  0  0  0  0  0
    0.5958    3.0605    0.0000 C   0  0  0  0  0  0  0  0  0  0  0  0
    7.4300    7.9936    0.0000 H   0  0  0  0  0  0  0  0  0  0  0  0
    6.5123    5.9801    0.0000 H   0  0  0  0  0  0  0  0  0  0  0  0
    7.2026    6.3786    0.0000 H   0  0  0  0  0  0  0  0  0  0  0  0
    7.2026    8.5348    0.0000 H   0  0  0  0  0  0  0  0  0  0  0  0
    6.5123    8.9333    0.0000 H   0  0  0  0  0  0  0  0  0  0  0  0
    4.8100    7.9936    0.0000 H   0  0  0  0  0  0  0  0  0  0  0  0
    5.0374    6.3786    0.0000 H   0  0  0  0  0  0  0  0  0  0  0  0
    5.7277    5.9801    0.0000 H   0  0  0  0  0  0  0  0  0  0  0  0
    5.7277    8.9333    0.0000 H   0  0  0  0  0  0  0  0  0  0  0  0
    5.0374    8.5348    0.0000 H   0  0  0  0  0  0  0  0  0  0  0  0
    8.0123    6.8461    0.0000 H   0  0  0  0  0  0  0  0  0  0  0  0
    8.7026    7.2446    0.0000 H   0  0  0  0  0  0  0  0  0  0  0  0
    8.7277    8.9333    0.0000 H   0  0  0  0  0  0  0  0  0  0  0  0
    8.0374    8.5348    0.0000 H   0  0  0  0  0  0  0  0  0  0  0  0
    3.8100    7.9936    0.0000 H   0  0  0  0  0  0  0  0  0  0  0  0
   10.0539    9.8437    0.0000 H   0  0  0  0  0  0  0  0  0  0  0  0
    9.4494    9.3616    0.0000 H   0  0  0  0  0  0  0  0  0  0  0  0
    9.4494    7.2838    0.0000 H   0  0  0  0  0  0  0  0  0  0  0  0
   10.0539    6.8017    0.0000 H   0  0  0  0  0  0  0  0  0  0  0  0
   11.5135    9.8328    0.0000 H   0  0  0  0  0  0  0  0  0  0  0  0
   10.7598   10.0048    0.0000 H   0  0  0  0  0  0  0  0  0  0  0  0
   10.7598    6.6406    0.0000 H   0  0  0  0  0  0  0  0  0  0  0  0
   11.5135    6.8126    0.0000 H   0  0  0  0  0  0  0  0  0  0  0  0
   12.6974    9.9773    0.0000 H   0  0  0  0  0  0  0  0  0  0  0  0
   12.6974    6.6681    0.0000 H   0  0  0  0  0  0  0  0  0  0  0  0
   14.1464    7.4898    0.0000 H   0  0  0  0  0  0  0  0  0  0  0  0
    2.4300    7.9936    0.0000 H   0  0  0  0  0  0  0  0  0  0  0  0
    0.8100    7.9936    0.0000 H   0  0  0  0  0  0  0  0  0  0  0  0
    3.2746    4.8378    0.0000 H   0  0  0  0  0  0  0  0  0  0  0  0
    0.0000    6.5906    0.0000 H   0  0  0  0  0  0  0  0  0  0  0  0
    2.4529    3.3889    0.0000 H   0  0  0  0  0  0  0  0  0  0  0  0
   15.9027    7.8154    0.0000 H   0  0  0  0  0  0  0  0  0  0  0  0
   16.7488    8.0456    0.0000 H   0  0  0  0  0  0  0  0  0  0  0  0
   16.5186    8.8916    0.0000 H   0  0  0  0  0  0  0  0  0  0  0  0
    0.0601    3.3726    0.0000 H   0  0  0  0  0  0  0  0  0  0  0  0
    0.2838    2.5248    0.0000 H   0  0  0  0  0  0  0  0  0  0  0  0
    1.1316    2.7484    0.0000 H   0  0  0  0  0  0  0  0  0  0  0  0
    8.8744    0.0000    0.0000 H   0  0  0  0  0  0  0  0  0  0  0  0
  1 77  1  0  0  0  0
  2  4  1  0  0  0  0
  2  5  2  0  0  0  0
  2  6  2  0  0  0  0
  2 38  1  0  0  0  0
  3 24  2  0  0  0  0
  4 28  1  0  0  0  0
  7 17  1  0  0  0  0
  7 18  1  0  0  0  0
  7 19  1  0  0  0  0
  8 13  1  0  0  0  0
  8 24  1  0  0  0  0
  8 54  1  0  0  0  0
  9 32  1  0  0  0  0
  9 37  2  0  0  0  0
 10 11  1  0  0  0  0
 10 12  1  0  0  0  0
 10 16  1  0  0  0  0
 10 40  1  0  0  0  0
 11 14  1  0  0  0  0
 11 41  1  0  0  0  0
 11 42  1  0  0  0  0
 12 15  1  0  0  0  0
 12 43  1  0  0  0  0
 12 44  1  0  0  0  0
 13 14  1  0  0  0  0
 13 15  1  0  0  0  0
 13 45  1  0  0  0  0
 14 46  1  0  0  0  0
 14 47  1  0  0  0  0
 15 48  1  0  0  0  0
 15 49  1  0  0  0  0
 16 17  1  0  0  0  0
 16 50  1  0  0  0  0
 16 51  1  0  0  0  0
 17 52  1  0  0  0  0
 17 53  1  0  0  0  0
 18 20  1  0  0  0  0
 18 55  1  0  0  0  0
 18 56  1  0  0  0  0
 19 21  1  0  0  0  0
 19 57  1  0  0  0  0
 19 58  1  0  0  0  0
 20 22  1  0  0  0  0
 20 59  1  0  0  0  0
 20 60  1  0  0  0  0
 21 23  1  0  0  0  0
 21 61  1  0  0  0  0
 21 62  1  0  0  0  0
 22 23  2  0  0  0  0
 22 26  1  0  0  0  0
 23 27  1  0  0  0  0
 24 25  1  0  0  0  0
 25 30  2  0  0  0  0
 25 31  1  0  0  0  0
 26 28  2  0  0  0  0
 26 63  1  0  0  0  0
 27 29  2  0  0  0  0
 27 64  1  0  0  0  0
 28 29  1  0  0  0  0
 29 65  1  0  0  0  0
 30 32  1  0  0  0  0
 30 34  1  0  0  0  0
 31 33  2  0  0  0  0
 31 66  1  0  0  0  0
 32 35  2  0  0  0  0
 33 35  1  0  0  0  0
 33 67  1  0  0  0  0
 34 36  2  0  0  0  0
 34 68  1  0  0  0  0
 35 69  1  0  0  0  0
 36 37  1  0  0  0  0
 36 70  1  0  0  0  0
 37 39  1  0  0  0  0
 38 71  1  0  0  0  0
 38 72  1  0  0  0  0
 38 73  1  0  0  0  0
 39 74  1  0  0  0  0
 39 75  1  0  0  0  0
 39 76  1  0  0  0  0
M  END
> <PUBCHEM_COMPOUND_CID>
45262345

> <PUBCHEM_COMPOUND_CANONICALIZED>
1

> <PUBCHEM_CACTVS_COMPLEXITY>
884

> <PUBCHEM_CACTVS_HBOND_ACCEPTOR>
6

> <PUBCHEM_CACTVS_HBOND_DONOR>
2

> <PUBCHEM_CACTVS_ROTATABLE_BOND>
7

> <PUBCHEM_CACTVS_SUBSKEYS>
AAADcfB7OABEAAAAAAAAAAAAAAAAAAAAAAA8YMEABYAAAACx9AAAHgQQAAAADSzBngSyxvPIEAKoAyVyVHCCgCAlIiAImKE+bNgIJvLAlZOEMQhk1hHIyYec2PKOoAABQAASAABQAAKAACQAAAAAAAAAAA==

> <PUBCHEM_IUPAC_OPENEYE_NAME>
[3-[2-[4-[(2-methylquinoline-5-carbonyl)amino]cyclohexyl]ethyl]-1,2,4,5-tetrahydro-3-benzazepin-7-yl] methanesulfonate;hydrochloride

> <PUBCHEM_IUPAC_CAS_NAME>
methanesulfonic acid [3-[2-[4-[[(2-methyl-5-quinolinyl)-oxomethyl]amino]cyclohexyl]ethyl]-1,2,4,5-tetrahydro-3-benzazepin-7-yl] ester;hydrochloride

> <PUBCHEM_IUPAC_NAME_MARKUP>
[3-[2-[4-[(2-methylquinoline-5-carbonyl)amino]cyclohexyl]ethyl]-1,2,4,5-tetrahydro-3-benzazepin-7-yl] methanesulfonate;hydrochloride

> <PUBCHEM_IUPAC_NAME>
[3-[2-[4-[(2-methylquinoline-5-carbonyl)amino]cyclohexyl]ethyl]-1,2,4,5-tetrahydro-3-benzazepin-7-yl] methanesulfonate;hydrochloride

> <PUBCHEM_IUPAC_SYSTEMATIC_NAME>
[3-[2-[4-[(2-methylquinolin-5-yl)carbonylamino]cyclohexyl]ethyl]-1,2,4,5-tetrahydro-3-benzazepin-7-yl] methanesulfonate;hydrochloride

> <PUBCHEM_IUPAC_TRADITIONAL_NAME>
methanesulfonic acid [3-[2-[4-[(2-methylquinoline-5-carbonyl)amino]cyclohexyl]ethyl]-1,2,4,5-tetrahydro-3-benzazepin-7-yl] ester;hydrochloride

> <PUBCHEM_IUPAC_INCHI>
InChI=1S/C30H37N3O4S.ClH/c1-21-6-13-27-28(4-3-5-29(27)31-21)30(34)32-25-10-7-22(8-11-25)14-17-33-18-15-23-9-12-26(37-38(2,35)36)20-24(23)16-19-33;/h3-6,9,12-13,20,22,25H,7-8,10-11,14-19H2,1-2H3,(H,32,34);1H

> <PUBCHEM_IUPAC_INCHIKEY>
HLDJUISFYQWCRS-UHFFFAOYSA-N

> <PUBCHEM_EXACT_MASS>
571.2271556

> <PUBCHEM_MOLECULAR_FORMULA>
C30H38ClN3O4S

> <PUBCHEM_MOLECULAR_WEIGHT>
572.2

> <PUBCHEM_OPENEYE_CAN_SMILES>
CC1=NC2=CC=CC(=C2C=C1)C(=O)NC3CCC(CC3)CCN4CCC5=C(CC4)C=C(C=C5)OS(=O)(=O)C.Cl

> <PUBCHEM_OPENEYE_ISO_SMILES>
CC1=NC2=CC=CC(=C2C=C1)C(=O)NC3CCC(CC3)CCN4CCC5=C(CC4)C=C(C=C5)OS(=O)(=O)C.Cl

> <PUBCHEM_CACTVS_TPSA>
97

> <PUBCHEM_MONOISOTOPIC_WEIGHT>
571.2271556

> <PUBCHEM_TOTAL_CHARGE>
0

> <PUBCHEM_HEAVY_ATOM_COUNT>
39

> <PUBCHEM_ATOM_DEF_STEREO_COUNT>
0

> <PUBCHEM_ATOM_UDEF_STEREO_COUNT>
0

> <PUBCHEM_BOND_DEF_STEREO_COUNT>
0

> <PUBCHEM_BOND_UDEF_STEREO_COUNT>
0

> <PUBCHEM_ISOTOPIC_ATOM_COUNT>
0

> <PUBCHEM_COMPONENT_COUNT>
2

> <PUBCHEM_CACTVS_TAUTO_COUNT>
-1

> <PUBCHEM_COORDINATE_TYPE>
1
5
255

> <PUBCHEM_BONDANNOTATIONS>
22  23  8
22  26  8
23  27  8
25  30  8
25  31  8
26  28  8
27  29  8
28  29  8
30  32  8
30  34  8
31  33  8
32  35  8
33  35  8
34  36  8
36  37  8
9  32  8
9  37  8

$$$$
