11613873
  -OEChem-09292322492D

 69 74  0     1  0  0  0  0  0999 V2000
   10.2062    0.9409    0.0000 S   0  0  0  0  0  0  0  0  0  0  0  0
    2.0000   -6.3445    0.0000 F   0  0  0  0  0  0  0  0  0  0  0  0
    3.0000   -7.3445    0.0000 F   0  0  0  0  0  0  0  0  0  0  0  0
    3.0000   -5.3445    0.0000 F   0  0  0  0  0  0  0  0  0  0  0  0
    5.4887   -5.3755    0.0000 O   0  0  0  0  0  0  0  0  0  0  0  0
    7.2062   -0.7912    0.0000 N   0  0  3  0  0  0  0  0  0  0  0  0
    4.0949   -4.5707    0.0000 N   0  0  0  0  0  0  0  0  0  0  0  0
   11.7008    1.9114    0.0000 N   0  0  0  0  0  0  0  0  0  0  0  0
   10.2995    2.7204    0.0000 N   0  0  0  0  0  0  0  0  0  0  0  0
   11.0426    3.3896    0.0000 N   0  0  0  0  0  0  0  0  0  0  0  0
   13.9651    5.7317    0.0000 N   0  0  0  0  0  0  0  0  0  0  0  0
    7.7598   -1.6008    0.0000 C   0  0  0  0  0  0  0  0  0  0  0  0
    6.2283   -0.7166    0.0000 C   0  0  0  0  0  0  0  0  0  0  0  0
    7.4745   -2.5392    0.0000 C   0  0  0  0  0  0  0  0  0  0  0  0
    5.5583   -1.4328    0.0000 C   0  0  0  0  0  0  0  0  0  0  0  0
    6.5640   -2.9036    0.0000 C   0  0  0  0  0  0  0  0  0  0  0  0
    5.6979   -2.4036    0.0000 C   0  0  0  0  0  0  0  0  0  0  0  0
    7.7062    0.0748    0.0000 C   0  0  0  0  0  0  0  0  0  0  0  0
    8.7062    0.0748    0.0000 C   0  0  0  0  0  0  0  0  0  0  0  0
    6.5640   -3.9036    0.0000 C   0  0  0  0  0  0  0  0  0  0  0  0
    4.8319   -2.9036    0.0000 C   0  0  0  0  0  0  0  0  0  0  0  0
    5.6979   -4.4036    0.0000 C   0  0  0  0  0  0  0  0  0  0  0  0
    4.8319   -3.9036    0.0000 C   0  0  0  0  0  0  0  0  0  0  0  0
    9.2062    0.9409    0.0000 C   0  0  0  0  0  0  0  0  0  0  0  0
    4.5000   -5.4785    0.0000 C   0  0  0  0  0  0  0  0  0  0  0  0
    4.0000   -6.3445    0.0000 C   0  0  0  0  0  0  0  0  0  0  0  0
   10.7062    1.8069    0.0000 C   0  0  0  0  0  0  0  0  0  0  0  0
   11.9087    2.8896    0.0000 C   0  0  0  0  0  0  0  0  0  0  0  0
    3.0000   -6.3445    0.0000 C   0  0  0  0  0  0  0  0  0  0  0  0
   12.8222    3.2963    0.0000 C   0  0  0  0  0  0  0  0  0  0  0  0
   12.9267    4.2908    0.0000 C   0  0  0  0  0  0  0  0  0  0  0  0
   12.3699    1.1683    0.0000 C   0  0  0  0  0  0  0  0  0  0  0  0
   13.8403    4.6976    0.0000 C   0  0  0  0  0  0  0  0  0  0  0  0
   13.6312    2.7085    0.0000 C   0  0  0  0  0  0  0  0  0  0  0  0
   12.0747    4.8900    0.0000 C   0  0  0  0  0  0  0  0  0  0  0  0
   14.6493    4.1098    0.0000 C   0  0  0  0  0  0  0  0  0  0  0  0
   14.5448    3.1153    0.0000 C   0  0  0  0  0  0  0  0  0  0  0  0
   12.1756    5.9268    0.0000 C   0  0  0  0  0  0  0  0  0  0  0  0
   13.1272    6.3504    0.0000 C   0  0  0  0  0  0  0  0  0  0  0  0
   13.2355    7.3445    0.0000 C   0  0  0  0  0  0  0  0  0  0  0  0
    8.2977   -1.9091    0.0000 H   0  0  0  0  0  0  0  0  0  0  0  0
    8.1805   -1.1454    0.0000 H   0  0  0  0  0  0  0  0  0  0  0  0
    6.4124   -0.1245    0.0000 H   0  0  0  0  0  0  0  0  0  0  0  0
    5.6923   -0.4049    0.0000 H   0  0  0  0  0  0  0  0  0  0  0  0
    7.5705   -3.1517    0.0000 H   0  0  0  0  0  0  0  0  0  0  0  0
    8.0930   -2.5825    0.0000 H   0  0  0  0  0  0  0  0  0  0  0  0
    5.2116   -0.9189    0.0000 H   0  0  0  0  0  0  0  0  0  0  0  0
    4.9798   -1.6560    0.0000 H   0  0  0  0  0  0  0  0  0  0  0  0
    7.8139    0.6854    0.0000 H   0  0  0  0  0  0  0  0  0  0  0  0
    7.1236    0.2869    0.0000 H   0  0  0  0  0  0  0  0  0  0  0  0
    8.5986   -0.5357    0.0000 H   0  0  0  0  0  0  0  0  0  0  0  0
    9.2888   -0.1372    0.0000 H   0  0  0  0  0  0  0  0  0  0  0  0
    7.1009   -4.2136    0.0000 H   0  0  0  0  0  0  0  0  0  0  0  0
    4.2950   -2.5936    0.0000 H   0  0  0  0  0  0  0  0  0  0  0  0
    9.3139    1.5514    0.0000 H   0  0  0  0  0  0  0  0  0  0  0  0
    8.6236    1.1529    0.0000 H   0  0  0  0  0  0  0  0  0  0  0  0
    3.8923   -6.9551    0.0000 H   0  0  0  0  0  0  0  0  0  0  0  0
    4.5826   -6.5566    0.0000 H   0  0  0  0  0  0  0  0  0  0  0  0
   11.9091    0.7534    0.0000 H   0  0  0  0  0  0  0  0  0  0  0  0
   12.7847    0.7075    0.0000 H   0  0  0  0  0  0  0  0  0  0  0  0
   12.8306    1.5831    0.0000 H   0  0  0  0  0  0  0  0  0  0  0  0
   13.5664    2.0919    0.0000 H   0  0  0  0  0  0  0  0  0  0  0  0
   11.5113    4.6313    0.0000 H   0  0  0  0  0  0  0  0  0  0  0  0
   15.2157    4.3620    0.0000 H   0  0  0  0  0  0  0  0  0  0  0  0
   15.0464    2.7508    0.0000 H   0  0  0  0  0  0  0  0  0  0  0  0
   11.6726    6.2892    0.0000 H   0  0  0  0  0  0  0  0  0  0  0  0
   13.8519    7.2774    0.0000 H   0  0  0  0  0  0  0  0  0  0  0  0
   13.3027    7.9609    0.0000 H   0  0  0  0  0  0  0  0  0  0  0  0
   12.6192    7.4117    0.0000 H   0  0  0  0  0  0  0  0  0  0  0  0
  1 24  1  0  0  0  0
  1 27  1  0  0  0  0
  2 29  1  0  0  0  0
  3 29  1  0  0  0  0
  4 29  1  0  0  0  0
  5 22  1  0  0  0  0
  5 25  1  0  0  0  0
  6 12  1  0  0  0  0
  6 13  1  0  0  0  0
  6 18  1  0  0  0  0
  7 23  1  0  0  0  0
  7 25  2  0  0  0  0
  8 27  1  0  0  0  0
  8 28  1  0  0  0  0
  8 32  1  0  0  0  0
  9 10  1  0  0  0  0
  9 27  2  0  0  0  0
 10 28  2  0  0  0  0
 11 33  1  0  0  0  0
 11 39  2  0  0  0  0
 12 14  1  0  0  0  0
 12 41  1  0  0  0  0
 12 42  1  0  0  0  0
 13 15  1  0  0  0  0
 13 43  1  0  0  0  0
 13 44  1  0  0  0  0
 14 16  1  0  0  0  0
 14 45  1  0  0  0  0
 14 46  1  0  0  0  0
 15 17  1  0  0  0  0
 15 47  1  0  0  0  0
 15 48  1  0  0  0  0
 16 17  1  0  0  0  0
 16 20  2  0  0  0  0
 17 21  2  0  0  0  0
 18 19  1  0  0  0  0
 18 49  1  0  0  0  0
 18 50  1  0  0  0  0
 19 24  1  0  0  0  0
 19 51  1  0  0  0  0
 19 52  1  0  0  0  0
 20 22  1  0  0  0  0
 20 53  1  0  0  0  0
 21 23  1  0  0  0  0
 21 54  1  0  0  0  0
 22 23  2  0  0  0  0
 24 55  1  0  0  0  0
 24 56  1  0  0  0  0
 25 26  1  0  0  0  0
 26 29  1  0  0  0  0
 26 57  1  0  0  0  0
 26 58  1  0  0  0  0
 28 30  1  0  0  0  0
 30 31  2  0  0  0  0
 30 34  1  0  0  0  0
 31 33  1  0  0  0  0
 31 35  1  0  0  0  0
 32 59  1  0  0  0  0
 32 60  1  0  0  0  0
 32 61  1  0  0  0  0
 33 36  2  0  0  0  0
 34 37  2  0  0  0  0
 34 62  1  0  0  0  0
 35 38  2  0  0  0  0
 35 63  1  0  0  0  0
 36 37  1  0  0  0  0
 36 64  1  0  0  0  0
 37 65  1  0  0  0  0
 38 39  1  0  0  0  0
 38 66  1  0  0  0  0
 39 40  1  0  0  0  0
 40 67  1  0  0  0  0
 40 68  1  0  0  0  0
 40 69  1  0  0  0  0
M  END
> <PUBCHEM_COMPOUND_CID>
11613873

> <PUBCHEM_COMPOUND_CANONICALIZED>
1

> <PUBCHEM_CACTVS_COMPLEXITY>
840

> <PUBCHEM_CACTVS_HBOND_ACCEPTOR>
10

> <PUBCHEM_CACTVS_HBOND_DONOR>
0

> <PUBCHEM_CACTVS_ROTATABLE_BOND>
7

> <PUBCHEM_CACTVS_SUBSKEYS>
AAADceB7oYBAAAAAAAAAAAAAAAAAAWLAAAA8YIAABYAAAFix/gAAHwQIAAAADAzF3xSz1vcMFEiqA6dydASS2CtvYrAd2CG/bNiOLvLkvbuPOSjkzBPY6YeY2fKOqAABQAASEABQAAKAACQgAAAAAAAAAA==

> <PUBCHEM_IUPAC_OPENEYE_NAME>
7-[3-[[4-methyl-5-(2-methyl-5-quinolyl)-1,2,4-triazol-3-yl]sulfanyl]propyl]-2-(2,2,2-trifluoroethyl)-5,6,8,9-tetrahydrooxazolo[4,5-h][3]benzazepine

> <PUBCHEM_IUPAC_CAS_NAME>
7-[3-[[4-methyl-5-(2-methyl-5-quinolinyl)-1,2,4-triazol-3-yl]thio]propyl]-2-(2,2,2-trifluoroethyl)-5,6,8,9-tetrahydrooxazolo[4,5-h][3]benzazepine

> <PUBCHEM_IUPAC_NAME_MARKUP>
7-[3-[[4-methyl-5-(2-methylquinolin-5-yl)-1,2,4-triazol-3-yl]sulfanyl]propyl]-2-(2,2,2-trifluoroethyl)-5,6,8,9-tetrahydro-[1,3]oxazolo[4,5-h][3]benzazepine

> <PUBCHEM_IUPAC_NAME>
7-[3-[[4-methyl-5-(2-methylquinolin-5-yl)-1,2,4-triazol-3-yl]sulfanyl]propyl]-2-(2,2,2-trifluoroethyl)-5,6,8,9-tetrahydro-[1,3]oxazolo[4,5-h][3]benzazepine

> <PUBCHEM_IUPAC_SYSTEMATIC_NAME>
7-[3-[[4-methyl-5-(2-methylquinolin-5-yl)-1,2,4-triazol-3-yl]sulfanyl]propyl]-2-[2,2,2-tris(fluoranyl)ethyl]-5,6,8,9-tetrahydro-[1,3]oxazolo[4,5-h][3]benzazepine

> <PUBCHEM_IUPAC_TRADITIONAL_NAME>
7-[3-[[4-methyl-5-(2-methyl-5-quinolyl)-1,2,4-triazol-3-yl]thio]propyl]-2-(2,2,2-trifluoroethyl)-5,6,8,9-tetrahydrooxazolo[4,5-h][3]benzazepine

> <PUBCHEM_IUPAC_INCHI>
InChI=1S/C29H29F3N6OS/c1-18-7-8-21-22(5-3-6-23(21)33-18)27-35-36-28(37(27)2)40-14-4-11-38-12-9-19-15-24-25(16-20(19)10-13-38)39-26(34-24)17-29(30,31)32/h3,5-8,15-16H,4,9-14,17H2,1-2H3

> <PUBCHEM_IUPAC_INCHIKEY>
LAGGNVKIMAMGMQ-UHFFFAOYSA-N

> <PUBCHEM_XLOGP3_AA>
6.2

> <PUBCHEM_EXACT_MASS>
566.20756523

> <PUBCHEM_MOLECULAR_FORMULA>
C29H29F3N6OS

> <PUBCHEM_MOLECULAR_WEIGHT>
566.6

> <PUBCHEM_OPENEYE_CAN_SMILES>
CC1=NC2=CC=CC(=C2C=C1)C3=NN=C(N3C)SCCCN4CCC5=CC6=C(C=C5CC4)OC(=N6)CC(F)(F)F

> <PUBCHEM_OPENEYE_ISO_SMILES>
CC1=NC2=CC=CC(=C2C=C1)C3=NN=C(N3C)SCCCN4CCC5=CC6=C(C=C5CC4)OC(=N6)CC(F)(F)F

> <PUBCHEM_CACTVS_TPSA>
98.2

> <PUBCHEM_MONOISOTOPIC_WEIGHT>
566.20756523

> <PUBCHEM_TOTAL_CHARGE>
0

> <PUBCHEM_HEAVY_ATOM_COUNT>
40

> <PUBCHEM_ATOM_DEF_STEREO_COUNT>
0

> <PUBCHEM_ATOM_UDEF_STEREO_COUNT>
0

> <PUBCHEM_BOND_DEF_STEREO_COUNT>
0

> <PUBCHEM_BOND_UDEF_STEREO_COUNT>
0

> <PUBCHEM_ISOTOPIC_ATOM_COUNT>
0

> <PUBCHEM_COMPONENT_COUNT>
1

> <PUBCHEM_CACTVS_TAUTO_COUNT>
-1

> <PUBCHEM_COORDINATE_TYPE>
1
5
255

> <PUBCHEM_BONDANNOTATIONS>
10  28  8
11  33  8
11  39  8
16  17  8
16  20  8
17  21  8
20  22  8
21  23  8
22  23  8
30  31  8
30  34  8
31  33  8
31  35  8
33  36  8
34  37  8
35  38  8
36  37  8
38  39  8
5  22  8
5  25  8
7  23  8
7  25  8
8  27  8
8  28  8
9  10  8
9  27  8

$$$$
