44382826
  -OEChem-09292322212D

 50 54  0     1  0  0  0  0  0999 V2000
    7.3340   -0.0275    0.0000 O   0  0  0  0  0  0  0  0  0  0  0  0
    7.9690    3.7017    0.0000 O   0  0  0  0  0  0  0  0  0  0  0  0
    5.4756   -1.1196    0.0000 N   0  0  3  0  0  0  0  0  0  0  0  0
    5.4840   -0.0346    0.0000 C   0  0  1  0  0  0  0  0  0  0  0  0
    6.3820    0.4931    0.0000 C   0  0  1  0  0  0  0  0  0  0  0  0
    4.5819    0.4862    0.0000 C   0  0  0  0  0  0  0  0  0  0  0  0
    6.3660    1.5347    0.0000 C   0  0  0  0  0  0  0  0  0  0  0  0
    4.5900    1.5278    0.0000 C   0  0  0  0  0  0  0  0  0  0  0  0
    5.5000    2.0347    0.0000 C   0  0  0  0  0  0  0  0  0  0  0  0
    6.4153   -1.6621    0.0000 C   0  0  0  0  0  0  0  0  0  0  0  0
    7.3507   -1.1123    0.0000 C   0  0  0  0  0  0  0  0  0  0  0  0
    4.6077   -1.6162    0.0000 C   0  0  0  0  0  0  0  0  0  0  0  0
    7.2320    2.0347    0.0000 C   0  0  0  0  0  0  0  0  0  0  0  0
    5.5000    3.0347    0.0000 C   0  0  0  0  0  0  0  0  0  0  0  0
    6.3660    3.5347    0.0000 C   0  0  0  0  0  0  0  0  0  0  0  0
    7.2320    3.0347    0.0000 C   0  0  0  0  0  0  0  0  0  0  0  0
    4.6038   -2.6162    0.0000 C   0  0  0  0  0  0  0  0  0  0  0  0
    6.5752    4.5065    0.0000 C   0  0  0  0  0  0  0  0  0  0  0  0
    7.5639    4.6095    0.0000 C   0  0  0  0  0  0  0  0  0  0  0  0
    3.7359   -3.1129    0.0000 C   0  0  0  0  0  0  0  0  0  0  0  0
    3.7320   -4.1129    0.0000 C   0  0  0  0  0  0  0  0  0  0  0  0
    2.8718   -2.6095    0.0000 C   0  0  0  0  0  0  0  0  0  0  0  0
    2.8641   -4.6095    0.0000 C   0  0  0  0  0  0  0  0  0  0  0  0
    2.0038   -3.1062    0.0000 C   0  0  0  0  0  0  0  0  0  0  0  0
    2.0000   -4.1062    0.0000 C   0  0  0  0  0  0  0  0  0  0  0  0
    4.7462   -0.4568    0.0000 H   0  0  0  0  0  0  0  0  0  0  0  0
    7.1098    0.9323    0.0000 H   0  0  0  0  0  0  0  0  0  0  0  0
    3.9719    0.5970    0.0000 H   0  0  0  0  0  0  0  0  0  0  0  0
    4.3684   -0.0959    0.0000 H   0  0  0  0  0  0  0  0  0  0  0  0
    4.3854    2.1131    0.0000 H   0  0  0  0  0  0  0  0  0  0  0  0
    3.9783    1.4264    0.0000 H   0  0  0  0  0  0  0  0  0  0  0  0
    6.0180   -2.1380    0.0000 H   0  0  0  0  0  0  0  0  0  0  0  0
    6.8162   -2.1350    0.0000 H   0  0  0  0  0  0  0  0  0  0  0  0
    7.5687   -1.6927    0.0000 H   0  0  0  0  0  0  0  0  0  0  0  0
    7.9598   -0.9968    0.0000 H   0  0  0  0  0  0  0  0  0  0  0  0
    4.3979   -1.0328    0.0000 H   0  0  0  0  0  0  0  0  0  0  0  0
    3.9967   -1.7215    0.0000 H   0  0  0  0  0  0  0  0  0  0  0  0
    7.7689    1.7247    0.0000 H   0  0  0  0  0  0  0  0  0  0  0  0
    4.9630    3.3447    0.0000 H   0  0  0  0  0  0  0  0  0  0  0  0
    4.8136   -3.1996    0.0000 H   0  0  0  0  0  0  0  0  0  0  0  0
    5.2148   -2.5109    0.0000 H   0  0  0  0  0  0  0  0  0  0  0  0
    6.5761    5.1265    0.0000 H   0  0  0  0  0  0  0  0  0  0  0  0
    5.9587    4.5725    0.0000 H   0  0  0  0  0  0  0  0  0  0  0  0
    8.1535    4.8013    0.0000 H   0  0  0  0  0  0  0  0  0  0  0  0
    7.4352    5.2160    0.0000 H   0  0  0  0  0  0  0  0  0  0  0  0
    4.2678   -4.4249    0.0000 H   0  0  0  0  0  0  0  0  0  0  0  0
    2.8742   -1.9896    0.0000 H   0  0  0  0  0  0  0  0  0  0  0  0
    2.8617   -5.2295    0.0000 H   0  0  0  0  0  0  0  0  0  0  0  0
    1.4681   -2.7941    0.0000 H   0  0  0  0  0  0  0  0  0  0  0  0
    1.4619   -4.4141    0.0000 H   0  0  0  0  0  0  0  0  0  0  0  0
  1  5  1  0  0  0  0
  1 11  1  0  0  0  0
  2 16  1  0  0  0  0
  2 19  1  0  0  0  0
  3  4  1  0  0  0  0
  3 10  1  0  0  0  0
  3 12  1  0  0  0  0
  4  5  1  0  0  0  0
  4  6  1  0  0  0  0
  4 26  1  1  0  0  0
  5  7  1  0  0  0  0
  5 27  1  6  0  0  0
  6  8  1  0  0  0  0
  6 28  1  0  0  0  0
  6 29  1  0  0  0  0
  7  9  1  0  0  0  0
  7 13  2  0  0  0  0
  8  9  1  0  0  0  0
  8 30  1  0  0  0  0
  8 31  1  0  0  0  0
  9 14  2  0  0  0  0
 10 11  1  0  0  0  0
 10 32  1  0  0  0  0
 10 33  1  0  0  0  0
 11 34  1  0  0  0  0
 11 35  1  0  0  0  0
 12 17  1  0  0  0  0
 12 36  1  0  0  0  0
 12 37  1  0  0  0  0
 13 16  1  0  0  0  0
 13 38  1  0  0  0  0
 14 15  1  0  0  0  0
 14 39  1  0  0  0  0
 15 16  2  0  0  0  0
 15 18  1  0  0  0  0
 17 20  1  0  0  0  0
 17 40  1  0  0  0  0
 17 41  1  0  0  0  0
 18 19  1  0  0  0  0
 18 42  1  0  0  0  0
 18 43  1  0  0  0  0
 19 44  1  0  0  0  0
 19 45  1  0  0  0  0
 20 21  2  0  0  0  0
 20 22  1  0  0  0  0
 21 23  1  0  0  0  0
 21 46  1  0  0  0  0
 22 24  2  0  0  0  0
 22 47  1  0  0  0  0
 23 25  2  0  0  0  0
 23 48  1  0  0  0  0
 24 25  1  0  0  0  0
 24 49  1  0  0  0  0
 25 50  1  0  0  0  0
M  END
> <PUBCHEM_COMPOUND_CID>
44382826

> <PUBCHEM_COMPOUND_CANONICALIZED>
1

> <PUBCHEM_CACTVS_COMPLEXITY>
449

> <PUBCHEM_CACTVS_HBOND_ACCEPTOR>
3

> <PUBCHEM_CACTVS_HBOND_DONOR>
0

> <PUBCHEM_CACTVS_ROTATABLE_BOND>
3

> <PUBCHEM_CACTVS_SUBSKEYS>
AAADceB6MAAAAAAAAAAAAAAAAAAAASAAAAA8YMEAAAAAAEjxQAAAHgAAAAAADDzhmAYwBoMABACAAiBCAAACCAAgIAAIiAAOCIgOJiKEsRuHOCCkwBGYqAfQ0PMO4AADAAAYAADQAAaAADAgAAAAAAAAAA==

> <PUBCHEM_IUPAC_OPENEYE_NAME>
(4aR,11bR)-4-(2-phenylethyl)-2,3,4a,5,6,8,9,11b-octahydrobenzofuro[5,6-h][1,4]benzoxazine

> <PUBCHEM_IUPAC_CAS_NAME>
(4aR,11bR)-4-(2-phenylethyl)-2,3,4a,5,6,8,9,11b-octahydrobenzofuro[5,6-h][1,4]benzoxazine

> <PUBCHEM_IUPAC_NAME_MARKUP>
(4<I>a</I><I>R</I>,11<I>b</I><I>R</I>)-4-(2-phenylethyl)-2,3,4<I>a</I>,5,6,8,9,11<I>b</I>-octahydro-[1]benzofuro[5,6-h][1,4]benzoxazine

> <PUBCHEM_IUPAC_NAME>
(4aR,11bR)-4-(2-phenylethyl)-2,3,4a,5,6,8,9,11b-octahydro-[1]benzofuro[5,6-h][1,4]benzoxazine

> <PUBCHEM_IUPAC_SYSTEMATIC_NAME>
(4aR,11bR)-4-(2-phenylethyl)-2,3,4a,5,6,8,9,11b-octahydro-[1]benzofuro[5,6-h][1,4]benzoxazine

> <PUBCHEM_IUPAC_TRADITIONAL_NAME>
(4aR,11bR)-4-phenethyl-2,3,4a,5,6,8,9,11b-octahydrobenzofuro[5,6-h][1,4]benzoxazine

> <PUBCHEM_IUPAC_INCHI>
InChI=1S/C22H25NO2/c1-2-4-16(5-3-1)8-10-23-11-13-25-22-19-15-21-18(9-12-24-21)14-17(19)6-7-20(22)23/h1-5,14-15,20,22H,6-13H2/t20-,22-/m1/s1

> <PUBCHEM_IUPAC_INCHIKEY>
QYLNNWXQZBCWRI-IFMALSPDSA-N

> <PUBCHEM_XLOGP3_AA>
3.8

> <PUBCHEM_EXACT_MASS>
335.188529040

> <PUBCHEM_MOLECULAR_FORMULA>
C22H25NO2

> <PUBCHEM_MOLECULAR_WEIGHT>
335.4

> <PUBCHEM_OPENEYE_CAN_SMILES>
C1CC2=CC3=C(C=C2C4C1N(CCO4)CCC5=CC=CC=C5)OCC3

> <PUBCHEM_OPENEYE_ISO_SMILES>
C1CC2=CC3=C(C=C2[C@@H]4[C@@H]1N(CCO4)CCC5=CC=CC=C5)OCC3

> <PUBCHEM_CACTVS_TPSA>
21.7

> <PUBCHEM_MONOISOTOPIC_WEIGHT>
335.188529040

> <PUBCHEM_TOTAL_CHARGE>
0

> <PUBCHEM_HEAVY_ATOM_COUNT>
25

> <PUBCHEM_ATOM_DEF_STEREO_COUNT>
2

> <PUBCHEM_ATOM_UDEF_STEREO_COUNT>
0

> <PUBCHEM_BOND_DEF_STEREO_COUNT>
0

> <PUBCHEM_BOND_UDEF_STEREO_COUNT>
0

> <PUBCHEM_ISOTOPIC_ATOM_COUNT>
0

> <PUBCHEM_COMPONENT_COUNT>
1

> <PUBCHEM_CACTVS_TAUTO_COUNT>
-1

> <PUBCHEM_COORDINATE_TYPE>
1
5
255

> <PUBCHEM_BONDANNOTATIONS>
13  16  8
14  15  8
15  16  8
20  21  8
20  22  8
21  23  8
22  24  8
23  25  8
24  25  8
4  26  5
5  27  6
7  13  8
7  9  8
9  14  8

$$$$
