57395043
  -OEChem-09292322072D

 63 65  0     1  0  0  0  0  0999 V2000
    4.2690   -2.0950    0.0000 O   0  0  0  0  0  0  0  0  0  0  0  0
    5.1350   -6.5950    0.0000 O   0  0  0  0  0  0  0  0  0  0  0  0
    2.5369   -5.0950    0.0000 O   0  0  0  0  0  0  0  0  0  0  0  0
    6.0010   -1.0950    0.0000 N   0  0  0  0  0  0  0  0  0  0  0  0
   10.3312    3.4050    0.0000 N   0  0  0  0  0  0  0  0  0  0  0  0
    5.1350   -2.5950    0.0000 C   0  0  1  0  0  0  0  0  0  0  0  0
    6.0010   -2.0950    0.0000 C   0  0  0  0  0  0  0  0  0  0  0  0
    6.8671   -0.5950    0.0000 C   0  0  0  0  0  0  0  0  0  0  0  0
    6.8671    0.4050    0.0000 C   0  0  0  0  0  0  0  0  0  0  0  0
    7.7331    0.9050    0.0000 C   0  0  0  0  0  0  0  0  0  0  0  0
    5.1350   -3.5950    0.0000 C   0  0  0  0  0  0  0  0  0  0  0  0
    9.4651    1.9050    0.0000 C   0  0  0  0  0  0  0  0  0  0  0  0
   10.3312    2.4050    0.0000 C   0  0  0  0  0  0  0  0  0  0  0  0
    8.5991    0.4050    0.0000 C   0  0  0  0  0  0  0  0  0  0  0  0
    7.7331    1.9050    0.0000 C   0  0  0  0  0  0  0  0  0  0  0  0
   11.1972    3.9050    0.0000 C   0  0  0  0  0  0  0  0  0  0  0  0
    4.2690   -4.0950    0.0000 C   0  0  0  0  0  0  0  0  0  0  0  0
    9.4651    0.9050    0.0000 C   0  0  0  0  0  0  0  0  0  0  0  0
    8.5991    2.4050    0.0000 C   0  0  0  0  0  0  0  0  0  0  0  0
   11.1972    4.9050    0.0000 C   0  0  0  0  0  0  0  0  0  0  0  0
    6.0010   -4.0950    0.0000 C   0  0  0  0  0  0  0  0  0  0  0  0
    4.2690   -5.0950    0.0000 C   0  0  0  0  0  0  0  0  0  0  0  0
    5.1350   -5.5950    0.0000 C   0  0  0  0  0  0  0  0  0  0  0  0
    6.0010   -5.0950    0.0000 C   0  0  0  0  0  0  0  0  0  0  0  0
   12.0632    5.4050    0.0000 C   0  0  0  0  0  0  0  0  0  0  0  0
    3.4030   -5.5950    0.0000 C   0  0  0  0  0  0  0  0  0  0  0  0
   12.9292    4.9050    0.0000 C   0  0  0  0  0  0  0  0  0  0  0  0
   12.0632    6.4050    0.0000 C   0  0  0  0  0  0  0  0  0  0  0  0
   13.7953    5.4050    0.0000 C   0  0  0  0  0  0  0  0  0  0  0  0
   12.9292    6.9050    0.0000 C   0  0  0  0  0  0  0  0  0  0  0  0
   13.7953    6.4050    0.0000 C   0  0  0  0  0  0  0  0  0  0  0  0
    5.1350   -1.9750    0.0000 H   0  0  0  0  0  0  0  0  0  0  0  0
    6.2131   -2.6776    0.0000 H   0  0  0  0  0  0  0  0  0  0  0  0
    6.6116   -1.9873    0.0000 H   0  0  0  0  0  0  0  0  0  0  0  0
    7.0791   -1.1776    0.0000 H   0  0  0  0  0  0  0  0  0  0  0  0
    7.4776   -0.4873    0.0000 H   0  0  0  0  0  0  0  0  0  0  0  0
    6.6550    0.9876    0.0000 H   0  0  0  0  0  0  0  0  0  0  0  0
    6.2565    0.2973    0.0000 H   0  0  0  0  0  0  0  0  0  0  0  0
    5.4641   -0.7850    0.0000 H   0  0  0  0  0  0  0  0  0  0  0  0
   10.5432    1.8224    0.0000 H   0  0  0  0  0  0  0  0  0  0  0  0
   10.9417    2.5127    0.0000 H   0  0  0  0  0  0  0  0  0  0  0  0
    8.5991   -0.2150    0.0000 H   0  0  0  0  0  0  0  0  0  0  0  0
    7.1962    2.2150    0.0000 H   0  0  0  0  0  0  0  0  0  0  0  0
   11.4092    3.3224    0.0000 H   0  0  0  0  0  0  0  0  0  0  0  0
   11.8078    4.0127    0.0000 H   0  0  0  0  0  0  0  0  0  0  0  0
    3.7320   -3.7850    0.0000 H   0  0  0  0  0  0  0  0  0  0  0  0
   10.0021    0.5950    0.0000 H   0  0  0  0  0  0  0  0  0  0  0  0
    8.5991    3.0250    0.0000 H   0  0  0  0  0  0  0  0  0  0  0  0
    9.7942    3.7150    0.0000 H   0  0  0  0  0  0  0  0  0  0  0  0
   10.9851    5.4876    0.0000 H   0  0  0  0  0  0  0  0  0  0  0  0
   10.5866    4.7973    0.0000 H   0  0  0  0  0  0  0  0  0  0  0  0
    6.5380   -3.7850    0.0000 H   0  0  0  0  0  0  0  0  0  0  0  0
    6.5380   -5.4050    0.0000 H   0  0  0  0  0  0  0  0  0  0  0  0
    4.2690   -1.4750    0.0000 H   0  0  0  0  0  0  0  0  0  0  0  0
    3.0044   -6.0700    0.0000 H   0  0  0  0  0  0  0  0  0  0  0  0
    3.8015   -6.0700    0.0000 H   0  0  0  0  0  0  0  0  0  0  0  0
   12.9292    4.2850    0.0000 H   0  0  0  0  0  0  0  0  0  0  0  0
   11.5263    6.7150    0.0000 H   0  0  0  0  0  0  0  0  0  0  0  0
   14.3322    5.0950    0.0000 H   0  0  0  0  0  0  0  0  0  0  0  0
   12.9292    7.5250    0.0000 H   0  0  0  0  0  0  0  0  0  0  0  0
    5.6720   -6.9050    0.0000 H   0  0  0  0  0  0  0  0  0  0  0  0
   14.3322    6.7150    0.0000 H   0  0  0  0  0  0  0  0  0  0  0  0
    2.0000   -5.4050    0.0000 H   0  0  0  0  0  0  0  0  0  0  0  0
  6  1  1  1  0  0  0
  1 54  1  0  0  0  0
  2 23  1  0  0  0  0
  2 61  1  0  0  0  0
  3 26  1  0  0  0  0
  3 63  1  0  0  0  0
  4  7  1  0  0  0  0
  4  8  1  0  0  0  0
  4 39  1  0  0  0  0
  5 13  1  0  0  0  0
  5 16  1  0  0  0  0
  5 49  1  0  0  0  0
  6  7  1  0  0  0  0
  6 11  1  0  0  0  0
  6 32  1  0  0  0  0
  7 33  1  0  0  0  0
  7 34  1  0  0  0  0
  8  9  1  0  0  0  0
  8 35  1  0  0  0  0
  8 36  1  0  0  0  0
  9 10  1  0  0  0  0
  9 37  1  0  0  0  0
  9 38  1  0  0  0  0
 10 14  2  0  0  0  0
 10 15  1  0  0  0  0
 11 17  2  0  0  0  0
 11 21  1  0  0  0  0
 12 13  1  0  0  0  0
 12 18  2  0  0  0  0
 12 19  1  0  0  0  0
 13 40  1  0  0  0  0
 13 41  1  0  0  0  0
 14 18  1  0  0  0  0
 14 42  1  0  0  0  0
 15 19  2  0  0  0  0
 15 43  1  0  0  0  0
 16 20  1  0  0  0  0
 16 44  1  0  0  0  0
 16 45  1  0  0  0  0
 17 22  1  0  0  0  0
 17 46  1  0  0  0  0
 18 47  1  0  0  0  0
 19 48  1  0  0  0  0
 20 25  1  0  0  0  0
 20 50  1  0  0  0  0
 20 51  1  0  0  0  0
 21 24  2  0  0  0  0
 21 52  1  0  0  0  0
 22 23  2  0  0  0  0
 22 26  1  0  0  0  0
 23 24  1  0  0  0  0
 24 53  1  0  0  0  0
 25 27  2  0  0  0  0
 25 28  1  0  0  0  0
 26 55  1  0  0  0  0
 26 56  1  0  0  0  0
 27 29  1  0  0  0  0
 27 57  1  0  0  0  0
 28 30  2  0  0  0  0
 28 58  1  0  0  0  0
 29 31  2  0  0  0  0
 29 59  1  0  0  0  0
 30 31  1  0  0  0  0
 30 60  1  0  0  0  0
 31 62  1  0  0  0  0
M  END
> <PUBCHEM_COMPOUND_CID>
57395043

> <PUBCHEM_COMPOUND_CANONICALIZED>
1

> <PUBCHEM_CACTVS_COMPLEXITY>
464

> <PUBCHEM_CACTVS_HBOND_ACCEPTOR>
5

> <PUBCHEM_CACTVS_HBOND_DONOR>
5

> <PUBCHEM_CACTVS_ROTATABLE_BOND>
12

> <PUBCHEM_CACTVS_SUBSKEYS>
AAADcfB7MAAAAAAAAAAAAAAAAAAAAAAAAAAwYMAAAAAAAAABUAAAHgAQCAAADBThmAYwBoLAAgCAAiBCAACCAAAgIAAIiIAODIgKNyKCkROEcAhl0BGYmAeQ4OQOYAACAAAIAADAAAQAABAAAAAAAAAAAA==

> <PUBCHEM_IUPAC_OPENEYE_NAME>
2-(hydroxymethyl)-4-[(1R)-1-hydroxy-2-[2-[4-[(2-phenylethylamino)methyl]phenyl]ethylamino]ethyl]phenol

> <PUBCHEM_IUPAC_CAS_NAME>
2-(hydroxymethyl)-4-[(1R)-1-hydroxy-2-[2-[4-[(2-phenylethylamino)methyl]phenyl]ethylamino]ethyl]phenol

> <PUBCHEM_IUPAC_NAME_MARKUP>
2-(hydroxymethyl)-4-[(1<I>R</I>)-1-hydroxy-2-[2-[4-[(2-phenylethylamino)methyl]phenyl]ethylamino]ethyl]phenol

> <PUBCHEM_IUPAC_NAME>
2-(hydroxymethyl)-4-[(1R)-1-hydroxy-2-[2-[4-[(2-phenylethylamino)methyl]phenyl]ethylamino]ethyl]phenol

> <PUBCHEM_IUPAC_SYSTEMATIC_NAME>
2-(hydroxymethyl)-4-[(1R)-1-oxidanyl-2-[2-[4-[(2-phenylethylamino)methyl]phenyl]ethylamino]ethyl]phenol

> <PUBCHEM_IUPAC_TRADITIONAL_NAME>
4-[(1R)-1-hydroxy-2-[2-[4-[(phenethylamino)methyl]phenyl]ethylamino]ethyl]-2-methylol-phenol

> <PUBCHEM_IUPAC_INCHI>
InChI=1S/C26H32N2O3/c29-19-24-16-23(10-11-25(24)30)26(31)18-28-15-13-21-6-8-22(9-7-21)17-27-14-12-20-4-2-1-3-5-20/h1-11,16,26-31H,12-15,17-19H2/t26-/m0/s1

> <PUBCHEM_IUPAC_INCHIKEY>
MAHVPNQMFKXCMV-SANMLTNESA-N

> <PUBCHEM_XLOGP3_AA>
3.2

> <PUBCHEM_EXACT_MASS>
420.24129289

> <PUBCHEM_MOLECULAR_FORMULA>
C26H32N2O3

> <PUBCHEM_MOLECULAR_WEIGHT>
420.5

> <PUBCHEM_OPENEYE_CAN_SMILES>
C1=CC=C(C=C1)CCNCC2=CC=C(C=C2)CCNCC(C3=CC(=C(C=C3)O)CO)O

> <PUBCHEM_OPENEYE_ISO_SMILES>
C1=CC=C(C=C1)CCNCC2=CC=C(C=C2)CCNC[C@@H](C3=CC(=C(C=C3)O)CO)O

> <PUBCHEM_CACTVS_TPSA>
84.8

> <PUBCHEM_MONOISOTOPIC_WEIGHT>
420.24129289

> <PUBCHEM_TOTAL_CHARGE>
0

> <PUBCHEM_HEAVY_ATOM_COUNT>
31

> <PUBCHEM_ATOM_DEF_STEREO_COUNT>
1

> <PUBCHEM_ATOM_UDEF_STEREO_COUNT>
0

> <PUBCHEM_BOND_DEF_STEREO_COUNT>
0

> <PUBCHEM_BOND_UDEF_STEREO_COUNT>
0

> <PUBCHEM_ISOTOPIC_ATOM_COUNT>
0

> <PUBCHEM_COMPONENT_COUNT>
1

> <PUBCHEM_CACTVS_TAUTO_COUNT>
-1

> <PUBCHEM_COORDINATE_TYPE>
1
5
255

> <PUBCHEM_BONDANNOTATIONS>
6  1  5
10  14  8
10  15  8
11  17  8
11  21  8
12  18  8
12  19  8
14  18  8
15  19  8
17  22  8
21  24  8
22  23  8
23  24  8
25  27  8
25  28  8
27  29  8
28  30  8
29  31  8
30  31  8

$$$$
