155531663
  -OEChem-09292322012D

 58 60  0     1  0  0  0  0  0999 V2000
   13.8755   -0.4453    0.0000 S   0  0  0  0  0  0  0  0  0  0  0  0
    6.0010    1.2500    0.0000 O   0  0  0  0  0  0  0  0  0  0  0  0
    2.5369   -0.7500    0.0000 O   0  0  0  0  0  0  0  0  0  0  0  0
   10.3312   -0.2500    0.0000 N   0  0  3  0  0  0  0  0  0  0  0  0
   13.8755   -2.0547    0.0000 N   0  0  0  0  0  0  0  0  0  0  0  0
   15.4591   -1.2500    0.0000 N   0  0  0  0  0  0  0  0  0  0  0  0
   11.1972   -0.7500    0.0000 C   0  0  1  0  0  0  0  0  0  0  0  0
   11.1972   -1.7500    0.0000 C   0  0  0  0  0  0  0  0  0  0  0  0
   12.0632   -0.2500    0.0000 C   0  0  0  0  0  0  0  0  0  0  0  0
   12.0632   -2.2500    0.0000 C   0  0  0  0  0  0  0  0  0  0  0  0
    9.4651   -0.7500    0.0000 C   0  0  0  0  0  0  0  0  0  0  0  0
   10.3312    0.7500    0.0000 C   0  0  0  0  0  0  0  0  0  0  0  0
   12.9292   -0.7500    0.0000 C   0  0  0  0  0  0  0  0  0  0  0  0
   12.9292   -1.7500    0.0000 C   0  0  0  0  0  0  0  0  0  0  0  0
    8.5991   -0.2500    0.0000 C   0  0  0  0  0  0  0  0  0  0  0  0
    7.7331   -0.7500    0.0000 C   0  0  0  0  0  0  0  0  0  0  0  0
    9.4651    1.2500    0.0000 C   0  0  0  0  0  0  0  0  0  0  0  0
    6.8671   -0.2500    0.0000 C   0  0  0  0  0  0  0  0  0  0  0  0
   14.4591   -1.2500    0.0000 C   0  0  0  0  0  0  0  0  0  0  0  0
    9.4651    2.2500    0.0000 C   0  0  0  0  0  0  0  0  0  0  0  0
    6.0010   -0.7500    0.0000 C   0  0  0  0  0  0  0  0  0  0  0  0
    5.1350   -0.2500    0.0000 C   0  0  0  0  0  0  0  0  0  0  0  0
    5.1350    0.7500    0.0000 C   0  0  0  0  0  0  0  0  0  0  0  0
    4.2690   -0.7500    0.0000 C   0  0  0  0  0  0  0  0  0  0  0  0
    3.4030   -0.2500    0.0000 C   0  0  0  0  0  0  0  0  0  0  0  0
    4.2690    1.2500    0.0000 C   0  0  0  0  0  0  0  0  0  0  0  0
    3.4030    0.7500    0.0000 C   0  0  0  0  0  0  0  0  0  0  0  0
   10.6603   -1.0600    0.0000 H   0  0  0  0  0  0  0  0  0  0  0  0
   10.5866   -1.6423    0.0000 H   0  0  0  0  0  0  0  0  0  0  0  0
   10.9851   -2.3326    0.0000 H   0  0  0  0  0  0  0  0  0  0  0  0
   12.4617    0.2249    0.0000 H   0  0  0  0  0  0  0  0  0  0  0  0
   11.6647    0.2249    0.0000 H   0  0  0  0  0  0  0  0  0  0  0  0
   11.6647   -2.7250    0.0000 H   0  0  0  0  0  0  0  0  0  0  0  0
   12.4617   -2.7250    0.0000 H   0  0  0  0  0  0  0  0  0  0  0  0
    9.0666   -1.2250    0.0000 H   0  0  0  0  0  0  0  0  0  0  0  0
    9.8637   -1.2250    0.0000 H   0  0  0  0  0  0  0  0  0  0  0  0
   10.9417    0.6423    0.0000 H   0  0  0  0  0  0  0  0  0  0  0  0
   10.5432    1.3326    0.0000 H   0  0  0  0  0  0  0  0  0  0  0  0
    8.9976    0.2249    0.0000 H   0  0  0  0  0  0  0  0  0  0  0  0
    8.2006    0.2249    0.0000 H   0  0  0  0  0  0  0  0  0  0  0  0
    7.3346   -1.2250    0.0000 H   0  0  0  0  0  0  0  0  0  0  0  0
    8.1316   -1.2250    0.0000 H   0  0  0  0  0  0  0  0  0  0  0  0
    8.8546    1.3577    0.0000 H   0  0  0  0  0  0  0  0  0  0  0  0
    9.2531    0.6674    0.0000 H   0  0  0  0  0  0  0  0  0  0  0  0
    7.2656    0.2249    0.0000 H   0  0  0  0  0  0  0  0  0  0  0  0
    6.4685    0.2249    0.0000 H   0  0  0  0  0  0  0  0  0  0  0  0
   10.0851    2.2500    0.0000 H   0  0  0  0  0  0  0  0  0  0  0  0
    9.4651    2.8700    0.0000 H   0  0  0  0  0  0  0  0  0  0  0  0
    8.8451    2.2500    0.0000 H   0  0  0  0  0  0  0  0  0  0  0  0
    5.6025   -1.2250    0.0000 H   0  0  0  0  0  0  0  0  0  0  0  0
    6.3996   -1.2250    0.0000 H   0  0  0  0  0  0  0  0  0  0  0  0
   15.7691   -1.7869    0.0000 H   0  0  0  0  0  0  0  0  0  0  0  0
   15.7691   -0.7131    0.0000 H   0  0  0  0  0  0  0  0  0  0  0  0
    4.2690   -1.3700    0.0000 H   0  0  0  0  0  0  0  0  0  0  0  0
    4.2690    1.8700    0.0000 H   0  0  0  0  0  0  0  0  0  0  0  0
    2.8660    1.0600    0.0000 H   0  0  0  0  0  0  0  0  0  0  0  0
    6.0010    1.8700    0.0000 H   0  0  0  0  0  0  0  0  0  0  0  0
    2.0000   -0.4400    0.0000 H   0  0  0  0  0  0  0  0  0  0  0  0
  1 13  1  0  0  0  0
  1 19  1  0  0  0  0
  2 23  1  0  0  0  0
  2 57  1  0  0  0  0
  3 25  1  0  0  0  0
  3 58  1  0  0  0  0
  7  4  1  6  0  0  0
  4 11  1  0  0  0  0
  4 12  1  0  0  0  0
  5 14  1  0  0  0  0
  5 19  2  0  0  0  0
  6 19  1  0  0  0  0
  6 52  1  0  0  0  0
  6 53  1  0  0  0  0
  7  8  1  0  0  0  0
  7  9  1  0  0  0  0
  7 28  1  0  0  0  0
  8 10  1  0  0  0  0
  8 29  1  0  0  0  0
  8 30  1  0  0  0  0
  9 13  1  0  0  0  0
  9 31  1  0  0  0  0
  9 32  1  0  0  0  0
 10 14  1  0  0  0  0
 10 33  1  0  0  0  0
 10 34  1  0  0  0  0
 11 15  1  0  0  0  0
 11 35  1  0  0  0  0
 11 36  1  0  0  0  0
 12 17  1  0  0  0  0
 12 37  1  0  0  0  0
 12 38  1  0  0  0  0
 13 14  2  0  0  0  0
 15 16  1  0  0  0  0
 15 39  1  0  0  0  0
 15 40  1  0  0  0  0
 16 18  1  0  0  0  0
 16 41  1  0  0  0  0
 16 42  1  0  0  0  0
 17 20  1  0  0  0  0
 17 43  1  0  0  0  0
 17 44  1  0  0  0  0
 18 21  1  0  0  0  0
 18 45  1  0  0  0  0
 18 46  1  0  0  0  0
 20 47  1  0  0  0  0
 20 48  1  0  0  0  0
 20 49  1  0  0  0  0
 21 22  1  0  0  0  0
 21 50  1  0  0  0  0
 21 51  1  0  0  0  0
 22 23  2  0  0  0  0
 22 24  1  0  0  0  0
 23 26  1  0  0  0  0
 24 25  2  0  0  0  0
 24 54  1  0  0  0  0
 25 27  1  0  0  0  0
 26 27  2  0  0  0  0
 26 55  1  0  0  0  0
 27 56  1  0  0  0  0
M  END
> <PUBCHEM_COMPOUND_CID>
155531663

> <PUBCHEM_COMPOUND_CANONICALIZED>
1

> <PUBCHEM_CACTVS_COMPLEXITY>
442

> <PUBCHEM_CACTVS_HBOND_ACCEPTOR>
6

> <PUBCHEM_CACTVS_HBOND_DONOR>
3

> <PUBCHEM_CACTVS_ROTATABLE_BOND>
9

> <PUBCHEM_CACTVS_SUBSKEYS>
AAADceB7MABAAAAAAAAAAAAAAAAAAWAAAAAwYAAAAAAAAFgBwAAAHgQQCAAADCzB3gQzl5NIEgikAyRiZAAC8KlhKDkImBQ+SIiIJiLikROEcAAkwBPI2CfQwPAOAQABAAAIAAACAQIAQBACAAAAAAAAAA==

> <PUBCHEM_IUPAC_OPENEYE_NAME>
2-[5-[[(6S)-2-amino-4,5,6,7-tetrahydro-1,3-benzothiazol-6-yl]-propyl-amino]pentyl]benzene-1,4-diol

> <PUBCHEM_IUPAC_CAS_NAME>
2-[5-[[(6S)-2-amino-4,5,6,7-tetrahydro-1,3-benzothiazol-6-yl]-propylamino]pentyl]benzene-1,4-diol

> <PUBCHEM_IUPAC_NAME_MARKUP>
2-[5-[[(6<I>S</I>)-2-amino-4,5,6,7-tetrahydro-1,3-benzothiazol-6-yl]-propylamino]pentyl]benzene-1,4-diol

> <PUBCHEM_IUPAC_NAME>
2-[5-[[(6S)-2-amino-4,5,6,7-tetrahydro-1,3-benzothiazol-6-yl]-propylamino]pentyl]benzene-1,4-diol

> <PUBCHEM_IUPAC_SYSTEMATIC_NAME>
2-[5-[[(6S)-2-azanyl-4,5,6,7-tetrahydro-1,3-benzothiazol-6-yl]-propyl-amino]pentyl]benzene-1,4-diol

> <PUBCHEM_IUPAC_TRADITIONAL_NAME>
2-[5-[[(6S)-2-amino-4,5,6,7-tetrahydro-1,3-benzothiazol-6-yl]-propyl-amino]pentyl]hydroquinone

> <PUBCHEM_IUPAC_INCHI>
InChI=1S/C21H31N3O2S/c1-2-11-24(16-7-9-18-20(14-16)27-21(22)23-18)12-5-3-4-6-15-13-17(25)8-10-19(15)26/h8,10,13,16,25-26H,2-7,9,11-12,14H2,1H3,(H2,22,23)/t16-/m0/s1

> <PUBCHEM_IUPAC_INCHIKEY>
KSDFLICEBJWAMA-INIZCTEOSA-N

> <PUBCHEM_XLOGP3_AA>
4.8

> <PUBCHEM_EXACT_MASS>
389.21369841

> <PUBCHEM_MOLECULAR_FORMULA>
C21H31N3O2S

> <PUBCHEM_MOLECULAR_WEIGHT>
389.6

> <PUBCHEM_OPENEYE_CAN_SMILES>
CCCN(CCCCCC1=C(C=CC(=C1)O)O)C2CCC3=C(C2)SC(=N3)N

> <PUBCHEM_OPENEYE_ISO_SMILES>
CCCN(CCCCCC1=C(C=CC(=C1)O)O)[C@H]2CCC3=C(C2)SC(=N3)N

> <PUBCHEM_CACTVS_TPSA>
111

> <PUBCHEM_MONOISOTOPIC_WEIGHT>
389.21369841

> <PUBCHEM_TOTAL_CHARGE>
0

> <PUBCHEM_HEAVY_ATOM_COUNT>
27

> <PUBCHEM_ATOM_DEF_STEREO_COUNT>
1

> <PUBCHEM_ATOM_UDEF_STEREO_COUNT>
0

> <PUBCHEM_BOND_DEF_STEREO_COUNT>
0

> <PUBCHEM_BOND_UDEF_STEREO_COUNT>
0

> <PUBCHEM_ISOTOPIC_ATOM_COUNT>
0

> <PUBCHEM_COMPONENT_COUNT>
1

> <PUBCHEM_CACTVS_TAUTO_COUNT>
-1

> <PUBCHEM_COORDINATE_TYPE>
1
5
255

> <PUBCHEM_BONDANNOTATIONS>
1  13  8
1  19  8
13  14  8
22  23  8
22  24  8
23  26  8
24  25  8
25  27  8
26  27  8
7  4  6
5  14  8
5  19  8

$$$$
