142573439
  -OEChem-09292322462D

 52 54  0     1  0  0  0  0  0999 V2000
    8.3298   -1.6133    0.0000 O   0  0  0  0  0  0  0  0  0  0  0  0
    8.5388    0.3758    0.0000 N   0  0  3  0  0  0  0  0  0  0  0  0
    5.0000    0.8758    0.0000 N   0  0  0  0  0  0  0  0  0  0  0  0
    7.0000    0.8758    0.0000 C   0  0  0  0  0  0  0  0  0  0  0  0
    7.5878    1.6848    0.0000 C   0  0  0  0  0  0  0  0  0  0  0  0
    7.5878    0.0667    0.0000 C   0  0  0  0  0  0  0  0  0  0  0  0
    6.5000    0.0097    0.0000 C   0  0  0  0  0  0  0  0  0  0  0  0
    6.5000    1.7418    0.0000 C   0  0  0  0  0  0  0  0  0  0  0  0
    8.5388    1.3758    0.0000 C   0  0  0  0  0  0  0  0  0  0  0  0
    5.5000    0.0097    0.0000 C   0  0  0  0  0  0  0  0  0  0  0  0
    5.5000    1.7418    0.0000 C   0  0  0  0  0  0  0  0  0  0  0  0
    4.0000    0.8758    0.0000 C   0  0  0  0  0  0  0  0  0  0  0  0
    9.3479   -0.2120    0.0000 C   0  0  0  0  0  0  0  0  0  0  0  0
    3.5000    1.7418    0.0000 C   0  0  0  0  0  0  0  0  0  0  0  0
    9.2433   -1.2066    0.0000 C   0  0  0  0  0  0  0  0  0  0  0  0
   10.2614    0.1947    0.0000 C   0  0  0  0  0  0  0  0  0  0  0  0
    2.5000    1.7418    0.0000 C   0  0  0  0  0  0  0  0  0  0  0  0
   10.0523   -1.7943    0.0000 C   0  0  0  0  0  0  0  0  0  0  0  0
   11.0704   -0.3931    0.0000 C   0  0  0  0  0  0  0  0  0  0  0  0
   10.9659   -1.3876    0.0000 C   0  0  0  0  0  0  0  0  0  0  0  0
    2.0000    2.6078    0.0000 C   0  0  0  0  0  0  0  0  0  0  0  0
    8.2253   -2.6078    0.0000 C   0  0  0  0  0  0  0  0  0  0  0  0
    7.8400    2.2512    0.0000 H   0  0  0  0  0  0  0  0  0  0  0  0
    7.0508    1.9948    0.0000 H   0  0  0  0  0  0  0  0  0  0  0  0
    7.0508   -0.2433    0.0000 H   0  0  0  0  0  0  0  0  0  0  0  0
    7.8400   -0.4997    0.0000 H   0  0  0  0  0  0  0  0  0  0  0  0
    6.3923   -0.6008    0.0000 H   0  0  0  0  0  0  0  0  0  0  0  0
    7.0826   -0.2023    0.0000 H   0  0  0  0  0  0  0  0  0  0  0  0
    7.0826    1.9538    0.0000 H   0  0  0  0  0  0  0  0  0  0  0  0
    6.3923    2.3524    0.0000 H   0  0  0  0  0  0  0  0  0  0  0  0
    9.1554    1.3110    0.0000 H   0  0  0  0  0  0  0  0  0  0  0  0
    8.6678    1.9822    0.0000 H   0  0  0  0  0  0  0  0  0  0  0  0
    4.9174   -0.2023    0.0000 H   0  0  0  0  0  0  0  0  0  0  0  0
    5.6077   -0.6008    0.0000 H   0  0  0  0  0  0  0  0  0  0  0  0
    5.6077    2.3524    0.0000 H   0  0  0  0  0  0  0  0  0  0  0  0
    4.9174    1.9538    0.0000 H   0  0  0  0  0  0  0  0  0  0  0  0
    3.4174    0.6637    0.0000 H   0  0  0  0  0  0  0  0  0  0  0  0
    4.1077    0.2652    0.0000 H   0  0  0  0  0  0  0  0  0  0  0  0
    4.0826    1.9538    0.0000 H   0  0  0  0  0  0  0  0  0  0  0  0
    3.3923    2.3524    0.0000 H   0  0  0  0  0  0  0  0  0  0  0  0
   10.3262    0.8113    0.0000 H   0  0  0  0  0  0  0  0  0  0  0  0
    1.9174    1.5297    0.0000 H   0  0  0  0  0  0  0  0  0  0  0  0
    2.6077    1.1312    0.0000 H   0  0  0  0  0  0  0  0  0  0  0  0
    9.9875   -2.4109    0.0000 H   0  0  0  0  0  0  0  0  0  0  0  0
   11.6368   -0.1409    0.0000 H   0  0  0  0  0  0  0  0  0  0  0  0
   11.4675   -1.7520    0.0000 H   0  0  0  0  0  0  0  0  0  0  0  0
    2.5369    2.9178    0.0000 H   0  0  0  0  0  0  0  0  0  0  0  0
    1.6900    3.1447    0.0000 H   0  0  0  0  0  0  0  0  0  0  0  0
    1.4631    2.2978    0.0000 H   0  0  0  0  0  0  0  0  0  0  0  0
    7.6086   -2.5430    0.0000 H   0  0  0  0  0  0  0  0  0  0  0  0
    8.1605   -3.2244    0.0000 H   0  0  0  0  0  0  0  0  0  0  0  0
    8.8419   -2.6726    0.0000 H   0  0  0  0  0  0  0  0  0  0  0  0
  1 15  1  0  0  0  0
  1 22  1  0  0  0  0
  2  6  1  0  0  0  0
  2  9  1  0  0  0  0
  2 13  1  0  0  0  0
  3 10  1  0  0  0  0
  3 11  1  0  0  0  0
  3 12  1  0  0  0  0
  4  5  1  0  0  0  0
  4  6  1  0  0  0  0
  4  7  1  0  0  0  0
  4  8  1  0  0  0  0
  5  9  1  0  0  0  0
  5 23  1  0  0  0  0
  5 24  1  0  0  0  0
  6 25  1  0  0  0  0
  6 26  1  0  0  0  0
  7 10  1  0  0  0  0
  7 27  1  0  0  0  0
  7 28  1  0  0  0  0
  8 11  1  0  0  0  0
  8 29  1  0  0  0  0
  8 30  1  0  0  0  0
  9 31  1  0  0  0  0
  9 32  1  0  0  0  0
 10 33  1  0  0  0  0
 10 34  1  0  0  0  0
 11 35  1  0  0  0  0
 11 36  1  0  0  0  0
 12 14  1  0  0  0  0
 12 37  1  0  0  0  0
 12 38  1  0  0  0  0
 13 15  1  0  0  0  0
 13 16  2  0  0  0  0
 14 17  1  0  0  0  0
 14 39  1  0  0  0  0
 14 40  1  0  0  0  0
 15 18  2  0  0  0  0
 16 19  1  0  0  0  0
 16 41  1  0  0  0  0
 17 21  1  0  0  0  0
 17 42  1  0  0  0  0
 17 43  1  0  0  0  0
 18 20  1  0  0  0  0
 18 44  1  0  0  0  0
 19 20  2  0  0  0  0
 19 45  1  0  0  0  0
 20 46  1  0  0  0  0
 21 47  1  0  0  0  0
 21 48  1  0  0  0  0
 21 49  1  0  0  0  0
 22 50  1  0  0  0  0
 22 51  1  0  0  0  0
 22 52  1  0  0  0  0
M  END
> <PUBCHEM_COMPOUND_CID>
142573439

> <PUBCHEM_COMPOUND_CANONICALIZED>
1

> <PUBCHEM_CACTVS_COMPLEXITY>
338

> <PUBCHEM_CACTVS_HBOND_ACCEPTOR>
3

> <PUBCHEM_CACTVS_HBOND_DONOR>
0

> <PUBCHEM_CACTVS_ROTATABLE_BOND>
5

> <PUBCHEM_CACTVS_SUBSKEYS>
AAADceB7IAAAAAAAAAAAAAAAAAAAAWAAAAA8QAAAAAAAAAABAAAAHgAAAAAADgzBkAYyxoMABACAACRCQACCCAAhIgAIiAAPbIgOJiLEsZuFMChkwBHY6AeQQAALAAAAAAAAEAAAAAAAAAAgAAAAAAAAAA==

> <PUBCHEM_IUPAC_OPENEYE_NAME>
8-butyl-2-(2-methoxyphenyl)-2,8-diazaspiro[4.5]decane

> <PUBCHEM_IUPAC_CAS_NAME>
8-butyl-2-(2-methoxyphenyl)-2,8-diazaspiro[4.5]decane

> <PUBCHEM_IUPAC_NAME_MARKUP>
8-butyl-2-(2-methoxyphenyl)-2,8-diazaspiro[4.5]decane

> <PUBCHEM_IUPAC_NAME>
8-butyl-2-(2-methoxyphenyl)-2,8-diazaspiro[4.5]decane

> <PUBCHEM_IUPAC_SYSTEMATIC_NAME>
8-butyl-2-(2-methoxyphenyl)-2,8-diazaspiro[4.5]decane

> <PUBCHEM_IUPAC_TRADITIONAL_NAME>
8-butyl-2-(2-methoxyphenyl)-2,8-diazaspiro[4.5]decane

> <PUBCHEM_IUPAC_INCHI>
InChI=1S/C19H30N2O/c1-3-4-12-20-13-9-19(10-14-20)11-15-21(16-19)17-7-5-6-8-18(17)22-2/h5-8H,3-4,9-16H2,1-2H3

> <PUBCHEM_IUPAC_INCHIKEY>
FXUMDUOHWITHIX-UHFFFAOYSA-N

> <PUBCHEM_XLOGP3_AA>
4

> <PUBCHEM_EXACT_MASS>
302.235813585

> <PUBCHEM_MOLECULAR_FORMULA>
C19H30N2O

> <PUBCHEM_MOLECULAR_WEIGHT>
302.5

> <PUBCHEM_OPENEYE_CAN_SMILES>
CCCCN1CCC2(CC1)CCN(C2)C3=CC=CC=C3OC

> <PUBCHEM_OPENEYE_ISO_SMILES>
CCCCN1CCC2(CC1)CCN(C2)C3=CC=CC=C3OC

> <PUBCHEM_CACTVS_TPSA>
15.7

> <PUBCHEM_MONOISOTOPIC_WEIGHT>
302.235813585

> <PUBCHEM_TOTAL_CHARGE>
0

> <PUBCHEM_HEAVY_ATOM_COUNT>
22

> <PUBCHEM_ATOM_DEF_STEREO_COUNT>
0

> <PUBCHEM_ATOM_UDEF_STEREO_COUNT>
0

> <PUBCHEM_BOND_DEF_STEREO_COUNT>
0

> <PUBCHEM_BOND_UDEF_STEREO_COUNT>
0

> <PUBCHEM_ISOTOPIC_ATOM_COUNT>
0

> <PUBCHEM_COMPONENT_COUNT>
1

> <PUBCHEM_CACTVS_TAUTO_COUNT>
-1

> <PUBCHEM_COORDINATE_TYPE>
1
5
255

> <PUBCHEM_BONDANNOTATIONS>
13  15  8
13  16  8
15  18  8
16  19  8
18  20  8
19  20  8

$$$$
