11518972
  -OEChem-09292322492D

 61 65  0     1  0  0  0  0  0999 V2000
    5.1114    2.1517    0.0000 S   0  0  0  0  0  0  0  0  0  0  0  0
   11.3815    6.1341    0.0000 F   0  0  0  0  0  0  0  0  0  0  0  0
   10.0612    6.6409    0.0000 F   0  0  0  0  0  0  0  0  0  0  0  0
   10.8747    4.8139    0.0000 F   0  0  0  0  0  0  0  0  0  0  0  0
    2.0000   -5.0919    0.0000 O   0  0  0  0  0  0  0  0  0  0  0  0
    5.1114   -1.3124    0.0000 N   0  0  3  0  0  0  0  0  0  0  0  0
    2.4051   -5.9997    0.0000 N   0  0  0  0  0  0  0  0  0  0  0  0
    6.6059    3.1223    0.0000 N   0  0  0  0  0  0  0  0  0  0  0  0
    5.2046    3.9313    0.0000 N   0  0  0  0  0  0  0  0  0  0  0  0
    5.9478    4.6005    0.0000 N   0  0  0  0  0  0  0  0  0  0  0  0
    5.6649   -2.1220    0.0000 C   0  0  0  0  0  0  0  0  0  0  0  0
    4.1334   -1.2377    0.0000 C   0  0  0  0  0  0  0  0  0  0  0  0
    5.3796   -3.0604    0.0000 C   0  0  0  0  0  0  0  0  0  0  0  0
    3.4634   -1.9540    0.0000 C   0  0  0  0  0  0  0  0  0  0  0  0
    4.4691   -3.4248    0.0000 C   0  0  0  0  0  0  0  0  0  0  0  0
    3.6030   -2.9248    0.0000 C   0  0  0  0  0  0  0  0  0  0  0  0
    5.6114   -0.4463    0.0000 C   0  0  0  0  0  0  0  0  0  0  0  0
    5.1114    0.4197    0.0000 C   0  0  0  0  0  0  0  0  0  0  0  0
    4.4691   -4.4248    0.0000 C   0  0  0  0  0  0  0  0  0  0  0  0
    2.7370   -3.4248    0.0000 C   0  0  0  0  0  0  0  0  0  0  0  0
    3.6030   -4.9248    0.0000 C   0  0  0  0  0  0  0  0  0  0  0  0
    2.7370   -4.4248    0.0000 C   0  0  0  0  0  0  0  0  0  0  0  0
    5.6114    1.2857    0.0000 C   0  0  0  0  0  0  0  0  0  0  0  0
    3.3938   -5.8966    0.0000 C   0  0  0  0  0  0  0  0  0  0  0  0
    4.0617   -6.6409    0.0000 C   0  0  0  0  0  0  0  0  0  0  0  0
    5.6114    3.0178    0.0000 C   0  0  0  0  0  0  0  0  0  0  0  0
    6.8138    4.1005    0.0000 C   0  0  0  0  0  0  0  0  0  0  0  0
    7.7273    4.5072    0.0000 C   0  0  0  0  0  0  0  0  0  0  0  0
    7.2750    2.3792    0.0000 C   0  0  0  0  0  0  0  0  0  0  0  0
    7.8318    5.5017    0.0000 C   0  0  0  0  0  0  0  0  0  0  0  0
    8.5363    3.9194    0.0000 C   0  0  0  0  0  0  0  0  0  0  0  0
    9.5544    5.3207    0.0000 C   0  0  0  0  0  0  0  0  0  0  0  0
    8.7454    5.9084    0.0000 C   0  0  0  0  0  0  0  0  0  0  0  0
    9.4499    4.3261    0.0000 C   0  0  0  0  0  0  0  0  0  0  0  0
   10.4680    5.7274    0.0000 C   0  0  0  0  0  0  0  0  0  0  0  0
    6.2028   -2.4303    0.0000 H   0  0  0  0  0  0  0  0  0  0  0  0
    6.0856   -1.6666    0.0000 H   0  0  0  0  0  0  0  0  0  0  0  0
    4.3175   -0.6457    0.0000 H   0  0  0  0  0  0  0  0  0  0  0  0
    3.5974   -0.9261    0.0000 H   0  0  0  0  0  0  0  0  0  0  0  0
    5.4756   -3.6729    0.0000 H   0  0  0  0  0  0  0  0  0  0  0  0
    5.9981   -3.1036    0.0000 H   0  0  0  0  0  0  0  0  0  0  0  0
    3.1167   -1.4400    0.0000 H   0  0  0  0  0  0  0  0  0  0  0  0
    2.8849   -2.1772    0.0000 H   0  0  0  0  0  0  0  0  0  0  0  0
    6.0863   -0.8449    0.0000 H   0  0  0  0  0  0  0  0  0  0  0  0
    6.0863   -0.0478    0.0000 H   0  0  0  0  0  0  0  0  0  0  0  0
    4.6364    0.8182    0.0000 H   0  0  0  0  0  0  0  0  0  0  0  0
    4.6364    0.0212    0.0000 H   0  0  0  0  0  0  0  0  0  0  0  0
    5.0060   -4.7348    0.0000 H   0  0  0  0  0  0  0  0  0  0  0  0
    2.2001   -3.1148    0.0000 H   0  0  0  0  0  0  0  0  0  0  0  0
    6.0863    0.8872    0.0000 H   0  0  0  0  0  0  0  0  0  0  0  0
    6.0863    1.6842    0.0000 H   0  0  0  0  0  0  0  0  0  0  0  0
    3.6002   -7.0550    0.0000 H   0  0  0  0  0  0  0  0  0  0  0  0
    4.4757   -7.1024    0.0000 H   0  0  0  0  0  0  0  0  0  0  0  0
    4.5232   -6.2269    0.0000 H   0  0  0  0  0  0  0  0  0  0  0  0
    6.8142    1.9643    0.0000 H   0  0  0  0  0  0  0  0  0  0  0  0
    7.6899    1.9184    0.0000 H   0  0  0  0  0  0  0  0  0  0  0  0
    7.7358    2.7940    0.0000 H   0  0  0  0  0  0  0  0  0  0  0  0
    7.3303    5.8661    0.0000 H   0  0  0  0  0  0  0  0  0  0  0  0
    8.4715    3.3028    0.0000 H   0  0  0  0  0  0  0  0  0  0  0  0
    8.8102    6.5250    0.0000 H   0  0  0  0  0  0  0  0  0  0  0  0
    9.9515    3.9617    0.0000 H   0  0  0  0  0  0  0  0  0  0  0  0
  1 23  1  0  0  0  0
  1 26  1  0  0  0  0
  2 35  1  0  0  0  0
  3 35  1  0  0  0  0
  4 35  1  0  0  0  0
  5  7  1  0  0  0  0
  5 22  1  0  0  0  0
  6 11  1  0  0  0  0
  6 12  1  0  0  0  0
  6 17  1  0  0  0  0
  7 24  2  0  0  0  0
  8 26  1  0  0  0  0
  8 27  1  0  0  0  0
  8 29  1  0  0  0  0
  9 10  1  0  0  0  0
  9 26  2  0  0  0  0
 10 27  2  0  0  0  0
 11 13  1  0  0  0  0
 11 36  1  0  0  0  0
 11 37  1  0  0  0  0
 12 14  1  0  0  0  0
 12 38  1  0  0  0  0
 12 39  1  0  0  0  0
 13 15  1  0  0  0  0
 13 40  1  0  0  0  0
 13 41  1  0  0  0  0
 14 16  1  0  0  0  0
 14 42  1  0  0  0  0
 14 43  1  0  0  0  0
 15 16  1  0  0  0  0
 15 19  2  0  0  0  0
 16 20  2  0  0  0  0
 17 18  1  0  0  0  0
 17 44  1  0  0  0  0
 17 45  1  0  0  0  0
 18 23  1  0  0  0  0
 18 46  1  0  0  0  0
 18 47  1  0  0  0  0
 19 21  1  0  0  0  0
 19 48  1  0  0  0  0
 20 22  1  0  0  0  0
 20 49  1  0  0  0  0
 21 22  2  0  0  0  0
 21 24  1  0  0  0  0
 23 50  1  0  0  0  0
 23 51  1  0  0  0  0
 24 25  1  0  0  0  0
 25 52  1  0  0  0  0
 25 53  1  0  0  0  0
 25 54  1  0  0  0  0
 27 28  1  0  0  0  0
 28 30  2  0  0  0  0
 28 31  1  0  0  0  0
 29 55  1  0  0  0  0
 29 56  1  0  0  0  0
 29 57  1  0  0  0  0
 30 33  1  0  0  0  0
 30 58  1  0  0  0  0
 31 34  2  0  0  0  0
 31 59  1  0  0  0  0
 32 33  2  0  0  0  0
 32 34  1  0  0  0  0
 32 35  1  0  0  0  0
 33 60  1  0  0  0  0
 34 61  1  0  0  0  0
M  END
> <PUBCHEM_COMPOUND_CID>
11518972

> <PUBCHEM_COMPOUND_CANONICALIZED>
1

> <PUBCHEM_CACTVS_COMPLEXITY>
695

> <PUBCHEM_CACTVS_HBOND_ACCEPTOR>
9

> <PUBCHEM_CACTVS_HBOND_DONOR>
0

> <PUBCHEM_CACTVS_ROTATABLE_BOND>
6

> <PUBCHEM_CACTVS_SUBSKEYS>
AAADceB7oYBAAAAAAAAAAAAAAAAAAWLAAAAwYAAABYAAAFgB/AAAHwQMAAAADAzF3xSzltccEAirA6ZyZgCS0AtkILA92CE+TNqILrqgnZOEMYhmyBuIyceY2fKO4AADAAAYAADAAAYAADAAAAAAAAAAAA==

> <PUBCHEM_IUPAC_OPENEYE_NAME>
3-methyl-7-[3-[[4-methyl-5-[4-(trifluoromethyl)phenyl]-1,2,4-triazol-3-yl]sulfanyl]propyl]-5,6,8,9-tetrahydroisoxazolo[5,4-h][3]benzazepine

> <PUBCHEM_IUPAC_CAS_NAME>
3-methyl-7-[3-[[4-methyl-5-[4-(trifluoromethyl)phenyl]-1,2,4-triazol-3-yl]thio]propyl]-5,6,8,9-tetrahydroisoxazolo[5,4-h][3]benzazepine

> <PUBCHEM_IUPAC_NAME_MARKUP>
3-methyl-7-[3-[[4-methyl-5-[4-(trifluoromethyl)phenyl]-1,2,4-triazol-3-yl]sulfanyl]propyl]-5,6,8,9-tetrahydro-[1,2]oxazolo[5,4-h][3]benzazepine

> <PUBCHEM_IUPAC_NAME>
3-methyl-7-[3-[[4-methyl-5-[4-(trifluoromethyl)phenyl]-1,2,4-triazol-3-yl]sulfanyl]propyl]-5,6,8,9-tetrahydro-[1,2]oxazolo[5,4-h][3]benzazepine

> <PUBCHEM_IUPAC_SYSTEMATIC_NAME>
3-methyl-7-[3-[[4-methyl-5-[4-(trifluoromethyl)phenyl]-1,2,4-triazol-3-yl]sulfanyl]propyl]-5,6,8,9-tetrahydro-[1,2]oxazolo[5,4-h][3]benzazepine

> <PUBCHEM_IUPAC_TRADITIONAL_NAME>
3-methyl-7-[3-[[4-methyl-5-[4-(trifluoromethyl)phenyl]-1,2,4-triazol-3-yl]thio]propyl]-5,6,8,9-tetrahydroisoxazolo[5,4-h][3]benzazepine

> <PUBCHEM_IUPAC_INCHI>
InChI=1S/C25H26F3N5OS/c1-16-21-14-18-8-11-33(12-9-19(18)15-22(21)34-31-16)10-3-13-35-24-30-29-23(32(24)2)17-4-6-20(7-5-17)25(26,27)28/h4-7,14-15H,3,8-13H2,1-2H3

> <PUBCHEM_IUPAC_INCHIKEY>
FLIIXHVRMXEDPQ-UHFFFAOYSA-N

> <PUBCHEM_XLOGP3_AA>
5.4

> <PUBCHEM_EXACT_MASS>
501.18101613

> <PUBCHEM_MOLECULAR_FORMULA>
C25H26F3N5OS

> <PUBCHEM_MOLECULAR_WEIGHT>
501.6

> <PUBCHEM_OPENEYE_CAN_SMILES>
CC1=NOC2=C1C=C3CCN(CCC3=C2)CCCSC4=NN=C(N4C)C5=CC=C(C=C5)C(F)(F)F

> <PUBCHEM_OPENEYE_ISO_SMILES>
CC1=NOC2=C1C=C3CCN(CCC3=C2)CCCSC4=NN=C(N4C)C5=CC=C(C=C5)C(F)(F)F

> <PUBCHEM_CACTVS_TPSA>
85.3

> <PUBCHEM_MONOISOTOPIC_WEIGHT>
501.18101613

> <PUBCHEM_TOTAL_CHARGE>
0

> <PUBCHEM_HEAVY_ATOM_COUNT>
35

> <PUBCHEM_ATOM_DEF_STEREO_COUNT>
0

> <PUBCHEM_ATOM_UDEF_STEREO_COUNT>
0

> <PUBCHEM_BOND_DEF_STEREO_COUNT>
0

> <PUBCHEM_BOND_UDEF_STEREO_COUNT>
0

> <PUBCHEM_ISOTOPIC_ATOM_COUNT>
0

> <PUBCHEM_COMPONENT_COUNT>
1

> <PUBCHEM_CACTVS_TAUTO_COUNT>
-1

> <PUBCHEM_COORDINATE_TYPE>
1
5
255

> <PUBCHEM_BONDANNOTATIONS>
10  27  8
15  16  8
15  19  8
16  20  8
19  21  8
20  22  8
21  22  8
21  24  8
28  30  8
28  31  8
30  33  8
31  34  8
32  33  8
32  34  8
5  22  8
5  7  8
7  24  8
8  26  8
8  27  8
9  10  8
9  26  8

$$$$
