90666903
  -OEChem-09292322352D

 61 66  0     1  0  0  0  0  0999 V2000
   12.8517   -0.0779    0.0000 S   0  0  0  0  0  0  0  0  0  0  0  0
    2.0000   -0.9064    0.0000 F   0  0  0  0  0  0  0  0  0  0  0  0
   11.0395    1.1174    0.0000 O   0  0  0  0  0  0  0  0  0  0  0  0
    8.4414   -1.3826    0.0000 N   0  0  0  0  0  0  0  0  0  0  0  0
   14.4353   -0.8826    0.0000 N   0  0  0  0  0  0  0  0  0  0  0  0
   12.8517   -1.6873    0.0000 N   0  0  0  0  0  0  0  0  0  0  0  0
    4.7684    1.3153    0.0000 N   0  0  0  0  0  0  0  0  0  0  0  0
    6.7093   -0.3826    0.0000 C   0  0  0  0  0  0  0  0  0  0  0  0
   10.1734   -1.3826    0.0000 C   0  0  3  0  0  0  0  0  0  0  0  0
    9.3074   -1.8826    0.0000 C   0  0  0  0  0  0  0  0  0  0  0  0
    7.5754    0.1174    0.0000 C   0  0  0  0  0  0  0  0  0  0  0  0
    6.7093   -1.3826    0.0000 C   0  0  0  0  0  0  0  0  0  0  0  0
    8.4414   -0.3826    0.0000 C   0  0  0  0  0  0  0  0  0  0  0  0
    7.5754   -1.8826    0.0000 C   0  0  0  0  0  0  0  0  0  0  0  0
   11.0395   -1.8826    0.0000 C   0  0  0  0  0  0  0  0  0  0  0  0
   10.1734   -0.3826    0.0000 C   0  0  0  0  0  0  0  0  0  0  0  0
    5.8433    0.1174    0.0000 C   0  0  0  0  0  0  0  0  0  0  0  0
   11.9055   -1.3826    0.0000 C   0  0  0  0  0  0  0  0  0  0  0  0
   11.0395    0.1174    0.0000 C   0  0  0  0  0  0  0  0  0  0  0  0
   11.9055   -0.3826    0.0000 C   0  0  0  0  0  0  0  0  0  0  0  0
    4.9355   -0.2877    0.0000 C   0  0  0  0  0  0  0  0  0  0  0  0
    5.7402    1.1061    0.0000 C   0  0  0  0  0  0  0  0  0  0  0  0
   13.4353   -0.8826    0.0000 C   0  0  0  0  0  0  0  0  0  0  0  0
   15.0231   -1.6916    0.0000 C   0  0  0  0  0  0  0  0  0  0  0  0
   15.0231   -0.0736    0.0000 C   0  0  0  0  0  0  0  0  0  0  0  0
   15.9742   -1.3826    0.0000 C   0  0  0  0  0  0  0  0  0  0  0  0
   15.9742   -0.3826    0.0000 C   0  0  0  0  0  0  0  0  0  0  0  0
    4.2677    0.4566    0.0000 C   0  0  0  0  0  0  0  0  0  0  0  0
    4.6249   -1.2382    0.0000 C   0  0  0  0  0  0  0  0  0  0  0  0
    3.2892    0.2504    0.0000 C   0  0  0  0  0  0  0  0  0  0  0  0
    3.6464   -1.4444    0.0000 C   0  0  0  0  0  0  0  0  0  0  0  0
    2.9785   -0.7001    0.0000 C   0  0  0  0  0  0  0  0  0  0  0  0
    6.7093    0.2374    0.0000 H   0  0  0  0  0  0  0  0  0  0  0  0
   10.1734   -2.0026    0.0000 H   0  0  0  0  0  0  0  0  0  0  0  0
    8.9089   -2.3575    0.0000 H   0  0  0  0  0  0  0  0  0  0  0  0
    9.7059   -2.3575    0.0000 H   0  0  0  0  0  0  0  0  0  0  0  0
    7.9739    0.5924    0.0000 H   0  0  0  0  0  0  0  0  0  0  0  0
    7.1768    0.5924    0.0000 H   0  0  0  0  0  0  0  0  0  0  0  0
    6.0988   -1.2749    0.0000 H   0  0  0  0  0  0  0  0  0  0  0  0
    6.4973   -1.9652    0.0000 H   0  0  0  0  0  0  0  0  0  0  0  0
    9.0520   -0.4903    0.0000 H   0  0  0  0  0  0  0  0  0  0  0  0
    8.6534    0.2000    0.0000 H   0  0  0  0  0  0  0  0  0  0  0  0
    7.1768   -2.3575    0.0000 H   0  0  0  0  0  0  0  0  0  0  0  0
    7.9739   -2.3575    0.0000 H   0  0  0  0  0  0  0  0  0  0  0  0
   10.6409   -2.3575    0.0000 H   0  0  0  0  0  0  0  0  0  0  0  0
   11.4380   -2.3575    0.0000 H   0  0  0  0  0  0  0  0  0  0  0  0
    9.9614    0.2000    0.0000 H   0  0  0  0  0  0  0  0  0  0  0  0
    9.5628   -0.4903    0.0000 H   0  0  0  0  0  0  0  0  0  0  0  0
    6.2017    1.5202    0.0000 H   0  0  0  0  0  0  0  0  0  0  0  0
   14.4862   -2.0016    0.0000 H   0  0  0  0  0  0  0  0  0  0  0  0
   15.2753   -2.2580    0.0000 H   0  0  0  0  0  0  0  0  0  0  0  0
   15.2753    0.4928    0.0000 H   0  0  0  0  0  0  0  0  0  0  0  0
   14.4862    0.2364    0.0000 H   0  0  0  0  0  0  0  0  0  0  0  0
   16.1031   -1.9890    0.0000 H   0  0  0  0  0  0  0  0  0  0  0  0
   16.5908   -1.3178    0.0000 H   0  0  0  0  0  0  0  0  0  0  0  0
   16.5908   -0.4474    0.0000 H   0  0  0  0  0  0  0  0  0  0  0  0
   16.1031    0.2239    0.0000 H   0  0  0  0  0  0  0  0  0  0  0  0
    4.5182    1.8826    0.0000 H   0  0  0  0  0  0  0  0  0  0  0  0
    5.0389   -1.6997    0.0000 H   0  0  0  0  0  0  0  0  0  0  0  0
    2.8751    0.7118    0.0000 H   0  0  0  0  0  0  0  0  0  0  0  0
    3.4537   -2.0338    0.0000 H   0  0  0  0  0  0  0  0  0  0  0  0
  1 20  1  0  0  0  0
  1 23  1  0  0  0  0
  2 32  1  0  0  0  0
  3 19  2  0  0  0  0
  4 10  1  0  0  0  0
  4 13  1  0  0  0  0
  4 14  1  0  0  0  0
  5 23  1  0  0  0  0
  5 24  1  0  0  0  0
  5 25  1  0  0  0  0
  6 18  1  0  0  0  0
  6 23  2  0  0  0  0
  7 22  1  0  0  0  0
  7 28  1  0  0  0  0
  7 58  1  0  0  0  0
  8 11  1  0  0  0  0
  8 12  1  0  0  0  0
  8 17  1  0  0  0  0
  8 33  1  0  0  0  0
  9 10  1  0  0  0  0
  9 15  1  0  0  0  0
  9 16  1  0  0  0  0
  9 34  1  0  0  0  0
 10 35  1  0  0  0  0
 10 36  1  0  0  0  0
 11 13  1  0  0  0  0
 11 37  1  0  0  0  0
 11 38  1  0  0  0  0
 12 14  1  0  0  0  0
 12 39  1  0  0  0  0
 12 40  1  0  0  0  0
 13 41  1  0  0  0  0
 13 42  1  0  0  0  0
 14 43  1  0  0  0  0
 14 44  1  0  0  0  0
 15 18  1  0  0  0  0
 15 45  1  0  0  0  0
 15 46  1  0  0  0  0
 16 19  1  0  0  0  0
 16 47  1  0  0  0  0
 16 48  1  0  0  0  0
 17 21  1  0  0  0  0
 17 22  2  0  0  0  0
 18 20  2  0  0  0  0
 19 20  1  0  0  0  0
 21 28  2  0  0  0  0
 21 29  1  0  0  0  0
 22 49  1  0  0  0  0
 24 26  1  0  0  0  0
 24 50  1  0  0  0  0
 24 51  1  0  0  0  0
 25 27  1  0  0  0  0
 25 52  1  0  0  0  0
 25 53  1  0  0  0  0
 26 27  1  0  0  0  0
 26 54  1  0  0  0  0
 26 55  1  0  0  0  0
 27 56  1  0  0  0  0
 27 57  1  0  0  0  0
 28 30  1  0  0  0  0
 29 31  2  0  0  0  0
 29 59  1  0  0  0  0
 30 32  2  0  0  0  0
 30 60  1  0  0  0  0
 31 32  1  0  0  0  0
 31 61  1  0  0  0  0
M  END
> <PUBCHEM_COMPOUND_CID>
90666903

> <PUBCHEM_COMPOUND_CANONICALIZED>
1

> <PUBCHEM_CACTVS_COMPLEXITY>
683

> <PUBCHEM_CACTVS_HBOND_ACCEPTOR>
6

> <PUBCHEM_CACTVS_HBOND_DONOR>
1

> <PUBCHEM_CACTVS_ROTATABLE_BOND>
4

> <PUBCHEM_CACTVS_SUBSKEYS>
AAADceB7oQBAAAAAAAAAAAAAAAAAAWLFgAA8YIAAAAAAAFgB/AAAHwQQAAAADQzB3gw90fPJkAisA7R3ZACC8Kl1CjgJ2bU4ZNiIIPrgmZGEIYhokALIyWccicAegAAAAAACAAAgAACAAAQCAAAAAAAAAA==

> <PUBCHEM_IUPAC_OPENEYE_NAME>
5-[[4-(6-fluoro-1H-indol-3-yl)-1-piperidyl]methyl]-2-pyrrolidin-1-yl-5,6-dihydro-4H-1,3-benzothiazol-7-one

> <PUBCHEM_IUPAC_CAS_NAME>
5-[[4-(6-fluoro-1H-indol-3-yl)-1-piperidinyl]methyl]-2-(1-pyrrolidinyl)-5,6-dihydro-4H-1,3-benzothiazol-7-one

> <PUBCHEM_IUPAC_NAME_MARKUP>
5-[[4-(6-fluoro-1<I>H</I>-indol-3-yl)piperidin-1-yl]methyl]-2-pyrrolidin-1-yl-5,6-dihydro-4<I>H</I>-1,3-benzothiazol-7-one

> <PUBCHEM_IUPAC_NAME>
5-[[4-(6-fluoro-1H-indol-3-yl)piperidin-1-yl]methyl]-2-pyrrolidin-1-yl-5,6-dihydro-4H-1,3-benzothiazol-7-one

> <PUBCHEM_IUPAC_SYSTEMATIC_NAME>
5-[[4-(6-fluoranyl-1H-indol-3-yl)piperidin-1-yl]methyl]-2-pyrrolidin-1-yl-5,6-dihydro-4H-1,3-benzothiazol-7-one

> <PUBCHEM_IUPAC_TRADITIONAL_NAME>
5-[[4-(6-fluoro-1H-indol-3-yl)piperidino]methyl]-2-pyrrolidino-5,6-dihydro-4H-1,3-benzothiazol-7-one

> <PUBCHEM_IUPAC_INCHI>
InChI=1S/C25H29FN4OS/c26-18-3-4-19-20(14-27-21(19)13-18)17-5-9-29(10-6-17)15-16-11-22-24(23(31)12-16)32-25(28-22)30-7-1-2-8-30/h3-4,13-14,16-17,27H,1-2,5-12,15H2

> <PUBCHEM_IUPAC_INCHIKEY>
GYWXJONOYHIRDG-UHFFFAOYSA-N

> <PUBCHEM_XLOGP3_AA>
4.8

> <PUBCHEM_EXACT_MASS>
452.20461090

> <PUBCHEM_MOLECULAR_FORMULA>
C25H29FN4OS

> <PUBCHEM_MOLECULAR_WEIGHT>
452.6

> <PUBCHEM_OPENEYE_CAN_SMILES>
C1CCN(C1)C2=NC3=C(S2)C(=O)CC(C3)CN4CCC(CC4)C5=CNC6=C5C=CC(=C6)F

> <PUBCHEM_OPENEYE_ISO_SMILES>
C1CCN(C1)C2=NC3=C(S2)C(=O)CC(C3)CN4CCC(CC4)C5=CNC6=C5C=CC(=C6)F

> <PUBCHEM_CACTVS_TPSA>
80.5

> <PUBCHEM_MONOISOTOPIC_WEIGHT>
452.20461090

> <PUBCHEM_TOTAL_CHARGE>
0

> <PUBCHEM_HEAVY_ATOM_COUNT>
32

> <PUBCHEM_ATOM_DEF_STEREO_COUNT>
0

> <PUBCHEM_ATOM_UDEF_STEREO_COUNT>
1

> <PUBCHEM_BOND_DEF_STEREO_COUNT>
0

> <PUBCHEM_BOND_UDEF_STEREO_COUNT>
0

> <PUBCHEM_ISOTOPIC_ATOM_COUNT>
0

> <PUBCHEM_COMPONENT_COUNT>
1

> <PUBCHEM_CACTVS_TAUTO_COUNT>
-1

> <PUBCHEM_COORDINATE_TYPE>
1
5
255

> <PUBCHEM_BONDANNOTATIONS>
1  20  8
1  23  8
17  21  8
17  22  8
18  20  8
21  28  8
21  29  8
28  30  8
29  31  8
30  32  8
31  32  8
6  18  8
6  23  8
7  22  8
7  28  8
9  10  3

$$$$
