44454150
  -OEChem-09292322242D

 66 71  0     1  0  0  0  0  0999 V2000
   15.0770    2.1999    0.0000 Cl  0  0  0  0  0  0  0  0  0  0  0  0
    9.0604    1.9320    0.0000 S   0  0  0  0  0  0  0  0  0  0  0  0
   16.6800   -0.9672    0.0000 O   0  0  0  0  0  0  0  0  0  0  0  0
   12.0604    0.1999    0.0000 N   0  0  3  0  0  0  0  0  0  0  0  0
   15.2862   -1.7719    0.0000 N   0  0  0  0  0  0  0  0  0  0  0  0
    7.4726    1.1229    0.0000 N   0  0  0  0  0  0  0  0  0  0  0  0
    7.4726    2.7410    0.0000 N   0  0  0  0  0  0  0  0  0  0  0  0
    6.5215    2.4320    0.0000 N   0  0  0  0  0  0  0  0  0  0  0  0
    3.0320    1.0721    0.0000 N   0  0  0  0  0  0  0  0  0  0  0  0
   12.4847   -0.6843    0.0000 C   0  0  0  0  0  0  0  0  0  0  0  0
   12.4847    1.0842    0.0000 C   0  0  0  0  0  0  0  0  0  0  0  0
   13.4401   -0.9064    0.0000 C   0  0  0  0  0  0  0  0  0  0  0  0
   13.4401    1.3063    0.0000 C   0  0  0  0  0  0  0  0  0  0  0  0
   14.2110   -0.3001    0.0000 C   0  0  0  0  0  0  0  0  0  0  0  0
   14.2110    0.6999    0.0000 C   0  0  0  0  0  0  0  0  0  0  0  0
   11.0604    0.1999    0.0000 C   0  0  0  0  0  0  0  0  0  0  0  0
   15.0770   -0.8001    0.0000 C   0  0  0  0  0  0  0  0  0  0  0  0
   10.5604    1.0659    0.0000 C   0  0  0  0  0  0  0  0  0  0  0  0
   15.0770    1.1999    0.0000 C   0  0  0  0  0  0  0  0  0  0  0  0
   15.9430   -0.3001    0.0000 C   0  0  0  0  0  0  0  0  0  0  0  0
   15.9430    0.6999    0.0000 C   0  0  0  0  0  0  0  0  0  0  0  0
    9.5604    1.0659    0.0000 C   0  0  0  0  0  0  0  0  0  0  0  0
   16.2749   -1.8750    0.0000 C   0  0  0  0  0  0  0  0  0  0  0  0
   16.7749   -2.7410    0.0000 C   0  0  0  0  0  0  0  0  0  0  0  0
    8.0604    1.9320    0.0000 C   0  0  0  0  0  0  0  0  0  0  0  0
    6.5215    1.4320    0.0000 C   0  0  0  0  0  0  0  0  0  0  0  0
    5.7125    0.8442    0.0000 C   0  0  0  0  0  0  0  0  0  0  0  0
    4.7990    1.2509    0.0000 C   0  0  0  0  0  0  0  0  0  0  0  0
    7.7816    0.1719    0.0000 C   0  0  0  0  0  0  0  0  0  0  0  0
    3.9900    0.6631    0.0000 C   0  0  0  0  0  0  0  0  0  0  0  0
    5.8171   -0.1503    0.0000 C   0  0  0  0  0  0  0  0  0  0  0  0
    4.7061    2.2884    0.0000 C   0  0  0  0  0  0  0  0  0  0  0  0
    4.0945   -0.3314    0.0000 C   0  0  0  0  0  0  0  0  0  0  0  0
    5.0080   -0.7381    0.0000 C   0  0  0  0  0  0  0  0  0  0  0  0
    3.7578    2.7194    0.0000 C   0  0  0  0  0  0  0  0  0  0  0  0
    2.9151    2.1071    0.0000 C   0  0  0  0  0  0  0  0  0  0  0  0
    2.0000    2.5104    0.0000 C   0  0  0  0  0  0  0  0  0  0  0  0
   11.8800   -0.8209    0.0000 H   0  0  0  0  0  0  0  0  0  0  0  0
   12.4828   -1.3043    0.0000 H   0  0  0  0  0  0  0  0  0  0  0  0
   12.4828    1.7042    0.0000 H   0  0  0  0  0  0  0  0  0  0  0  0
   11.8800    1.2208    0.0000 H   0  0  0  0  0  0  0  0  0  0  0  0
   13.1683   -1.4637    0.0000 H   0  0  0  0  0  0  0  0  0  0  0  0
   13.9225   -1.2958    0.0000 H   0  0  0  0  0  0  0  0  0  0  0  0
   13.9225    1.6956    0.0000 H   0  0  0  0  0  0  0  0  0  0  0  0
   13.1683    1.8635    0.0000 H   0  0  0  0  0  0  0  0  0  0  0  0
   10.4778   -0.0121    0.0000 H   0  0  0  0  0  0  0  0  0  0  0  0
   11.1680   -0.4107    0.0000 H   0  0  0  0  0  0  0  0  0  0  0  0
   11.1430    1.2780    0.0000 H   0  0  0  0  0  0  0  0  0  0  0  0
   10.4527    1.6765    0.0000 H   0  0  0  0  0  0  0  0  0  0  0  0
   16.4800    1.0099    0.0000 H   0  0  0  0  0  0  0  0  0  0  0  0
    8.9778    0.8539    0.0000 H   0  0  0  0  0  0  0  0  0  0  0  0
    9.6680    0.4554    0.0000 H   0  0  0  0  0  0  0  0  0  0  0  0
   16.2380   -3.0510    0.0000 H   0  0  0  0  0  0  0  0  0  0  0  0
   17.0849   -3.2779    0.0000 H   0  0  0  0  0  0  0  0  0  0  0  0
   17.3119   -2.4310    0.0000 H   0  0  0  0  0  0  0  0  0  0  0  0
    7.1920   -0.0197    0.0000 H   0  0  0  0  0  0  0  0  0  0  0  0
    7.9732   -0.4178    0.0000 H   0  0  0  0  0  0  0  0  0  0  0  0
    8.3713    0.3635    0.0000 H   0  0  0  0  0  0  0  0  0  0  0  0
    6.3834   -0.4025    0.0000 H   0  0  0  0  0  0  0  0  0  0  0  0
    5.2119    2.6470    0.0000 H   0  0  0  0  0  0  0  0  0  0  0  0
    3.5929   -0.6958    0.0000 H   0  0  0  0  0  0  0  0  0  0  0  0
    5.0728   -1.3547    0.0000 H   0  0  0  0  0  0  0  0  0  0  0  0
    3.6954    3.3362    0.0000 H   0  0  0  0  0  0  0  0  0  0  0  0
    2.2500    3.0777    0.0000 H   0  0  0  0  0  0  0  0  0  0  0  0
    1.4326    2.7603    0.0000 H   0  0  0  0  0  0  0  0  0  0  0  0
    1.7500    1.9430    0.0000 H   0  0  0  0  0  0  0  0  0  0  0  0
  1 19  1  0  0  0  0
  2 22  1  0  0  0  0
  2 25  1  0  0  0  0
  3 20  1  0  0  0  0
  3 23  1  0  0  0  0
  4 10  1  0  0  0  0
  4 11  1  0  0  0  0
  4 16  1  0  0  0  0
  5 17  1  0  0  0  0
  5 23  2  0  0  0  0
  6 25  1  0  0  0  0
  6 26  1  0  0  0  0
  6 29  1  0  0  0  0
  7  8  1  0  0  0  0
  7 25  2  0  0  0  0
  8 26  2  0  0  0  0
  9 30  1  0  0  0  0
  9 36  2  0  0  0  0
 10 12  1  0  0  0  0
 10 38  1  0  0  0  0
 10 39  1  0  0  0  0
 11 13  1  0  0  0  0
 11 40  1  0  0  0  0
 11 41  1  0  0  0  0
 12 14  1  0  0  0  0
 12 42  1  0  0  0  0
 12 43  1  0  0  0  0
 13 15  1  0  0  0  0
 13 44  1  0  0  0  0
 13 45  1  0  0  0  0
 14 15  1  0  0  0  0
 14 17  2  0  0  0  0
 15 19  2  0  0  0  0
 16 18  1  0  0  0  0
 16 46  1  0  0  0  0
 16 47  1  0  0  0  0
 17 20  1  0  0  0  0
 18 22  1  0  0  0  0
 18 48  1  0  0  0  0
 18 49  1  0  0  0  0
 19 21  1  0  0  0  0
 20 21  2  0  0  0  0
 21 50  1  0  0  0  0
 22 51  1  0  0  0  0
 22 52  1  0  0  0  0
 23 24  1  0  0  0  0
 24 53  1  0  0  0  0
 24 54  1  0  0  0  0
 24 55  1  0  0  0  0
 26 27  1  0  0  0  0
 27 28  2  0  0  0  0
 27 31  1  0  0  0  0
 28 30  1  0  0  0  0
 28 32  1  0  0  0  0
 29 56  1  0  0  0  0
 29 57  1  0  0  0  0
 29 58  1  0  0  0  0
 30 33  2  0  0  0  0
 31 34  2  0  0  0  0
 31 59  1  0  0  0  0
 32 35  2  0  0  0  0
 32 60  1  0  0  0  0
 33 34  1  0  0  0  0
 33 61  1  0  0  0  0
 34 62  1  0  0  0  0
 35 36  1  0  0  0  0
 35 63  1  0  0  0  0
 36 37  1  0  0  0  0
 37 64  1  0  0  0  0
 37 65  1  0  0  0  0
 37 66  1  0  0  0  0
M  END
> <PUBCHEM_COMPOUND_CID>
44454150

> <PUBCHEM_COMPOUND_CANONICALIZED>
1

> <PUBCHEM_CACTVS_COMPLEXITY>
766

> <PUBCHEM_CACTVS_HBOND_ACCEPTOR>
7

> <PUBCHEM_CACTVS_HBOND_DONOR>
0

> <PUBCHEM_CACTVS_ROTATABLE_BOND>
6

> <PUBCHEM_CACTVS_SUBSKEYS>
AAADceB7oABEAAAAAAAAAAAAAAAAAWLAAAA8YIAABYAAAFix/gAAHgYIAAAADA7F3ySz1vcMFEiqA6dydASS2CtvZ7Ad2CG/btiOLvLlv7uPOSjkzBPY7QeY2fKOoABBYQATEABAAILCACYgAAAAAAAAAA==

> <PUBCHEM_IUPAC_OPENEYE_NAME>
5-chloro-2-methyl-8-[3-[[4-methyl-5-(2-methyl-5-quinolyl)-1,2,4-triazol-3-yl]sulfanyl]propyl]-6,7,9,10-tetrahydrooxazolo[5,4-i][3]benzazepine

> <PUBCHEM_IUPAC_CAS_NAME>
5-chloro-2-methyl-8-[3-[[4-methyl-5-(2-methyl-5-quinolinyl)-1,2,4-triazol-3-yl]thio]propyl]-6,7,9,10-tetrahydrooxazolo[5,4-i][3]benzazepine

> <PUBCHEM_IUPAC_NAME_MARKUP>
5-chloro-2-methyl-8-[3-[[4-methyl-5-(2-methylquinolin-5-yl)-1,2,4-triazol-3-yl]sulfanyl]propyl]-6,7,9,10-tetrahydro-[1,3]oxazolo[5,4-i][3]benzazepine

> <PUBCHEM_IUPAC_NAME>
5-chloro-2-methyl-8-[3-[[4-methyl-5-(2-methylquinolin-5-yl)-1,2,4-triazol-3-yl]sulfanyl]propyl]-6,7,9,10-tetrahydro-[1,3]oxazolo[5,4-i][3]benzazepine

> <PUBCHEM_IUPAC_SYSTEMATIC_NAME>
5-chloranyl-2-methyl-8-[3-[[4-methyl-5-(2-methylquinolin-5-yl)-1,2,4-triazol-3-yl]sulfanyl]propyl]-6,7,9,10-tetrahydro-[1,3]oxazolo[5,4-i][3]benzazepine

> <PUBCHEM_IUPAC_TRADITIONAL_NAME>
5-chloro-2-methyl-8-[3-[[4-methyl-5-(2-methyl-5-quinolyl)-1,2,4-triazol-3-yl]thio]propyl]-6,7,9,10-tetrahydrooxazolo[5,4-i][3]benzazepine

> <PUBCHEM_IUPAC_INCHI>
InChI=1S/C28H29ClN6OS/c1-17-8-9-20-22(6-4-7-24(20)30-17)27-32-33-28(34(27)3)37-15-5-12-35-13-10-19-21(11-14-35)26-25(16-23(19)29)36-18(2)31-26/h4,6-9,16H,5,10-15H2,1-3H3

> <PUBCHEM_IUPAC_INCHIKEY>
HULQLOOBDVQQSC-UHFFFAOYSA-N

> <PUBCHEM_XLOGP3_AA>
5.9

> <PUBCHEM_EXACT_MASS>
532.1812084

> <PUBCHEM_MOLECULAR_FORMULA>
C28H29ClN6OS

> <PUBCHEM_MOLECULAR_WEIGHT>
533.1

> <PUBCHEM_OPENEYE_CAN_SMILES>
CC1=NC2=CC=CC(=C2C=C1)C3=NN=C(N3C)SCCCN4CCC5=C(C=C6C(=C5CC4)N=C(O6)C)Cl

> <PUBCHEM_OPENEYE_ISO_SMILES>
CC1=NC2=CC=CC(=C2C=C1)C3=NN=C(N3C)SCCCN4CCC5=C(C=C6C(=C5CC4)N=C(O6)C)Cl

> <PUBCHEM_CACTVS_TPSA>
98.2

> <PUBCHEM_MONOISOTOPIC_WEIGHT>
532.1812084

> <PUBCHEM_TOTAL_CHARGE>
0

> <PUBCHEM_HEAVY_ATOM_COUNT>
37

> <PUBCHEM_ATOM_DEF_STEREO_COUNT>
0

> <PUBCHEM_ATOM_UDEF_STEREO_COUNT>
0

> <PUBCHEM_BOND_DEF_STEREO_COUNT>
0

> <PUBCHEM_BOND_UDEF_STEREO_COUNT>
0

> <PUBCHEM_ISOTOPIC_ATOM_COUNT>
0

> <PUBCHEM_COMPONENT_COUNT>
1

> <PUBCHEM_CACTVS_TAUTO_COUNT>
-1

> <PUBCHEM_COORDINATE_TYPE>
1
5
255

> <PUBCHEM_BONDANNOTATIONS>
14  15  8
14  17  8
15  19  8
17  20  8
19  21  8
20  21  8
27  28  8
27  31  8
28  30  8
28  32  8
3  20  8
3  23  8
30  33  8
31  34  8
32  35  8
33  34  8
35  36  8
5  17  8
5  23  8
6  25  8
6  26  8
7  25  8
7  8  8
8  26  8
9  30  8
9  36  8

$$$$
