11200115
  -OEChem-09292322522D

 52 54  0     1  0  0  0  0  0999 V2000
    5.1060   -6.2694    0.0000 Cl  0  0  0  0  0  0  0  0  0  0  0  0
    7.3381    6.2694    0.0000 F   0  0  0  0  0  0  0  0  0  0  0  0
    2.4608   -2.2183    0.0000 O   0  0  0  0  0  0  0  0  0  0  0  0
    8.2041    1.7694    0.0000 O   0  0  0  0  0  0  0  0  0  0  0  0
    5.6060   -0.7306    0.0000 N   0  0  3  0  0  0  0  0  0  0  0  0
    5.1060   -2.2694    0.0000 C   0  0  3  0  0  0  0  0  0  0  0  0
    6.1060   -2.2694    0.0000 C   0  0  0  0  0  0  0  0  0  0  0  0
    4.7970   -1.3184    0.0000 C   0  0  0  0  0  0  0  0  0  0  0  0
    6.4150   -1.3184    0.0000 C   0  0  0  0  0  0  0  0  0  0  0  0
    4.1550   -2.5784    0.0000 C   0  0  0  0  0  0  0  0  0  0  0  0
    5.1060   -3.2694    0.0000 C   0  0  0  0  0  0  0  0  0  0  0  0
    5.6060    0.2694    0.0000 C   0  0  0  0  0  0  0  0  0  0  0  0
    3.4118   -1.9093    0.0000 C   0  0  0  0  0  0  0  0  0  0  0  0
    6.4720    0.7694    0.0000 C   0  0  0  0  0  0  0  0  0  0  0  0
    5.9720   -3.7694    0.0000 C   0  0  0  0  0  0  0  0  0  0  0  0
    4.2400   -3.7694    0.0000 C   0  0  0  0  0  0  0  0  0  0  0  0
    6.4720    1.7694    0.0000 C   0  0  0  0  0  0  0  0  0  0  0  0
    5.9720   -4.7694    0.0000 C   0  0  0  0  0  0  0  0  0  0  0  0
    4.2400   -4.7694    0.0000 C   0  0  0  0  0  0  0  0  0  0  0  0
    5.1060   -5.2694    0.0000 C   0  0  0  0  0  0  0  0  0  0  0  0
    7.3381    2.2694    0.0000 C   0  0  0  0  0  0  0  0  0  0  0  0
    7.3381    3.2694    0.0000 C   0  0  0  0  0  0  0  0  0  0  0  0
    6.4720    3.7694    0.0000 C   0  0  0  0  0  0  0  0  0  0  0  0
    8.2041    3.7694    0.0000 C   0  0  0  0  0  0  0  0  0  0  0  0
    6.4720    4.7694    0.0000 C   0  0  0  0  0  0  0  0  0  0  0  0
    8.2041    4.7694    0.0000 C   0  0  0  0  0  0  0  0  0  0  0  0
    7.3381    5.2694    0.0000 C   0  0  0  0  0  0  0  0  0  0  0  0
    6.0412   -2.8860    0.0000 H   0  0  0  0  0  0  0  0  0  0  0  0
    6.7125   -2.3983    0.0000 H   0  0  0  0  0  0  0  0  0  0  0  0
    4.4870   -0.7814    0.0000 H   0  0  0  0  0  0  0  0  0  0  0  0
    4.2306   -1.5705    0.0000 H   0  0  0  0  0  0  0  0  0  0  0  0
    6.9814   -1.5705    0.0000 H   0  0  0  0  0  0  0  0  0  0  0  0
    6.7250   -0.7814    0.0000 H   0  0  0  0  0  0  0  0  0  0  0  0
    3.6664   -2.9602    0.0000 H   0  0  0  0  0  0  0  0  0  0  0  0
    4.4460   -3.1259    0.0000 H   0  0  0  0  0  0  0  0  0  0  0  0
    5.3940    0.8520    0.0000 H   0  0  0  0  0  0  0  0  0  0  0  0
    4.9954    0.1618    0.0000 H   0  0  0  0  0  0  0  0  0  0  0  0
    3.9004   -1.5276    0.0000 H   0  0  0  0  0  0  0  0  0  0  0  0
    3.1207   -1.3619    0.0000 H   0  0  0  0  0  0  0  0  0  0  0  0
    6.6841    0.1868    0.0000 H   0  0  0  0  0  0  0  0  0  0  0  0
    7.0826    0.8771    0.0000 H   0  0  0  0  0  0  0  0  0  0  0  0
    6.5090   -3.4594    0.0000 H   0  0  0  0  0  0  0  0  0  0  0  0
    3.7030   -3.4594    0.0000 H   0  0  0  0  0  0  0  0  0  0  0  0
    6.2600    2.3520    0.0000 H   0  0  0  0  0  0  0  0  0  0  0  0
    5.8614    1.6618    0.0000 H   0  0  0  0  0  0  0  0  0  0  0  0
    6.5090   -5.0794    0.0000 H   0  0  0  0  0  0  0  0  0  0  0  0
    3.7030   -5.0794    0.0000 H   0  0  0  0  0  0  0  0  0  0  0  0
    2.0000   -1.8035    0.0000 H   0  0  0  0  0  0  0  0  0  0  0  0
    5.9351    3.4594    0.0000 H   0  0  0  0  0  0  0  0  0  0  0  0
    8.7410    3.4594    0.0000 H   0  0  0  0  0  0  0  0  0  0  0  0
    5.9351    5.0794    0.0000 H   0  0  0  0  0  0  0  0  0  0  0  0
    8.7410    5.0794    0.0000 H   0  0  0  0  0  0  0  0  0  0  0  0
  1 20  1  0  0  0  0
  2 27  1  0  0  0  0
  3 13  1  0  0  0  0
  3 48  1  0  0  0  0
  4 21  2  0  0  0  0
  5  8  1  0  0  0  0
  5  9  1  0  0  0  0
  5 12  1  0  0  0  0
  6  7  1  0  0  0  0
  6  8  1  0  0  0  0
  6 10  1  0  0  0  0
  6 11  1  0  0  0  0
  7  9  1  0  0  0  0
  7 28  1  0  0  0  0
  7 29  1  0  0  0  0
  8 30  1  0  0  0  0
  8 31  1  0  0  0  0
  9 32  1  0  0  0  0
  9 33  1  0  0  0  0
 10 13  1  0  0  0  0
 10 34  1  0  0  0  0
 10 35  1  0  0  0  0
 11 15  2  0  0  0  0
 11 16  1  0  0  0  0
 12 14  1  0  0  0  0
 12 36  1  0  0  0  0
 12 37  1  0  0  0  0
 13 38  1  0  0  0  0
 13 39  1  0  0  0  0
 14 17  1  0  0  0  0
 14 40  1  0  0  0  0
 14 41  1  0  0  0  0
 15 18  1  0  0  0  0
 15 42  1  0  0  0  0
 16 19  2  0  0  0  0
 16 43  1  0  0  0  0
 17 21  1  0  0  0  0
 17 44  1  0  0  0  0
 17 45  1  0  0  0  0
 18 20  2  0  0  0  0
 18 46  1  0  0  0  0
 19 20  1  0  0  0  0
 19 47  1  0  0  0  0
 21 22  1  0  0  0  0
 22 23  2  0  0  0  0
 22 24  1  0  0  0  0
 23 25  1  0  0  0  0
 23 49  1  0  0  0  0
 24 26  2  0  0  0  0
 24 50  1  0  0  0  0
 25 27  2  0  0  0  0
 25 51  1  0  0  0  0
 26 27  1  0  0  0  0
 26 52  1  0  0  0  0
M  END
> <PUBCHEM_COMPOUND_CID>
11200115

> <PUBCHEM_COMPOUND_CANONICALIZED>
1

> <PUBCHEM_CACTVS_COMPLEXITY>
475

> <PUBCHEM_CACTVS_HBOND_ACCEPTOR>
4

> <PUBCHEM_CACTVS_HBOND_DONOR>
1

> <PUBCHEM_CACTVS_ROTATABLE_BOND>
8

> <PUBCHEM_CACTVS_SUBSKEYS>
AAADceB6MQAEAAAAAAAAAAAAAAAAAWAAAAAwYAAAAAAAAAABQAAAHwIACAAADgbhmC4wAIMAAgCIAqBSAAACAAAkBQAIiAEIAsgIMDKBlxGEYQAkgACIiYe82OKPhAAAAAAAAAAIAAAAAAAAAAAAAAAAAA==

> <PUBCHEM_IUPAC_OPENEYE_NAME>
4-[3-(4-chlorophenyl)-3-(2-hydroxyethyl)pyrrolidin-1-yl]-1-(4-fluorophenyl)butan-1-one

> <PUBCHEM_IUPAC_CAS_NAME>
4-[3-(4-chlorophenyl)-3-(2-hydroxyethyl)-1-pyrrolidinyl]-1-(4-fluorophenyl)-1-butanone

> <PUBCHEM_IUPAC_NAME_MARKUP>
4-[3-(4-chlorophenyl)-3-(2-hydroxyethyl)pyrrolidin-1-yl]-1-(4-fluorophenyl)butan-1-one

> <PUBCHEM_IUPAC_NAME>
4-[3-(4-chlorophenyl)-3-(2-hydroxyethyl)pyrrolidin-1-yl]-1-(4-fluorophenyl)butan-1-one

> <PUBCHEM_IUPAC_SYSTEMATIC_NAME>
4-[3-(4-chlorophenyl)-3-(2-hydroxyethyl)pyrrolidin-1-yl]-1-(4-fluorophenyl)butan-1-one

> <PUBCHEM_IUPAC_TRADITIONAL_NAME>
4-[3-(4-chlorophenyl)-3-(2-hydroxyethyl)pyrrolidino]-1-(4-fluorophenyl)butan-1-one

> <PUBCHEM_IUPAC_INCHI>
InChI=1S/C22H25ClFNO2/c23-19-7-5-18(6-8-19)22(12-15-26)11-14-25(16-22)13-1-2-21(27)17-3-9-20(24)10-4-17/h3-10,26H,1-2,11-16H2

> <PUBCHEM_IUPAC_INCHIKEY>
YEHRQVUHEWQQQF-UHFFFAOYSA-N

> <PUBCHEM_XLOGP3_AA>
4.2

> <PUBCHEM_EXACT_MASS>
389.1557849

> <PUBCHEM_MOLECULAR_FORMULA>
C22H25ClFNO2

> <PUBCHEM_MOLECULAR_WEIGHT>
389.9

> <PUBCHEM_OPENEYE_CAN_SMILES>
C1CN(CC1(CCO)C2=CC=C(C=C2)Cl)CCCC(=O)C3=CC=C(C=C3)F

> <PUBCHEM_OPENEYE_ISO_SMILES>
C1CN(CC1(CCO)C2=CC=C(C=C2)Cl)CCCC(=O)C3=CC=C(C=C3)F

> <PUBCHEM_CACTVS_TPSA>
40.5

> <PUBCHEM_MONOISOTOPIC_WEIGHT>
389.1557849

> <PUBCHEM_TOTAL_CHARGE>
0

> <PUBCHEM_HEAVY_ATOM_COUNT>
27

> <PUBCHEM_ATOM_DEF_STEREO_COUNT>
0

> <PUBCHEM_ATOM_UDEF_STEREO_COUNT>
1

> <PUBCHEM_BOND_DEF_STEREO_COUNT>
0

> <PUBCHEM_BOND_UDEF_STEREO_COUNT>
0

> <PUBCHEM_ISOTOPIC_ATOM_COUNT>
0

> <PUBCHEM_COMPONENT_COUNT>
1

> <PUBCHEM_CACTVS_TAUTO_COUNT>
-1

> <PUBCHEM_COORDINATE_TYPE>
1
5
255

> <PUBCHEM_BONDANNOTATIONS>
11  15  8
11  16  8
15  18  8
16  19  8
18  20  8
19  20  8
22  23  8
22  24  8
23  25  8
24  26  8
25  27  8
26  27  8
6  10  3

$$$$
