10382430
  -OEChem-09292322512D

 40 41  0     1  0  0  0  0  0999 V2000
    3.0000   -2.5000    0.0000 S   0  0  0  0  0  0  0  0  0  0  0  0
    3.0000   -4.5000    0.0000 F   0  0  0  0  0  0  0  0  0  0  0  0
    2.0000   -3.5000    0.0000 F   0  0  0  0  0  0  0  0  0  0  0  0
    4.0000   -3.5000    0.0000 F   0  0  0  0  0  0  0  0  0  0  0  0
    3.0000   -1.5000    0.0000 O   0  0  0  0  0  0  0  0  0  0  0  0
    2.0000   -2.5000    0.0000 O   0  0  0  0  0  0  0  0  0  0  0  0
    4.0000   -2.5000    0.0000 O   0  0  0  0  0  0  0  0  0  0  0  0
    3.8660    3.0000    0.0000 N   0  0  3  0  0  0  0  0  0  0  0  0
    4.7320    1.5000    0.0000 C   0  0  2  0  0  0  0  0  0  0  0  0
    5.5981    2.0000    0.0000 C   0  0  0  0  0  0  0  0  0  0  0  0
    3.8660    2.0000    0.0000 C   0  0  0  0  0  0  0  0  0  0  0  0
    5.5981    3.0000    0.0000 C   0  0  0  0  0  0  0  0  0  0  0  0
    4.7320    3.5000    0.0000 C   0  0  0  0  0  0  0  0  0  0  0  0
    4.7320    0.5000    0.0000 C   0  0  0  0  0  0  0  0  0  0  0  0
    3.0000    3.5000    0.0000 C   0  0  0  0  0  0  0  0  0  0  0  0
    3.8660    0.0000    0.0000 C   0  0  0  0  0  0  0  0  0  0  0  0
    5.5981   -0.0000    0.0000 C   0  0  0  0  0  0  0  0  0  0  0  0
    3.0000    4.5000    0.0000 C   0  0  0  0  0  0  0  0  0  0  0  0
    3.8660   -1.0000    0.0000 C   0  0  0  0  0  0  0  0  0  0  0  0
    5.5981   -1.0000    0.0000 C   0  0  0  0  0  0  0  0  0  0  0  0
    4.7320   -1.5000    0.0000 C   0  0  0  0  0  0  0  0  0  0  0  0
    3.0000   -3.5000    0.0000 C   0  0  0  0  0  0  0  0  0  0  0  0
    5.2690    1.1900    0.0000 H   0  0  0  0  0  0  0  0  0  0  0  0
    5.8101    1.4174    0.0000 H   0  0  0  0  0  0  0  0  0  0  0  0
    6.2087    2.1077    0.0000 H   0  0  0  0  0  0  0  0  0  0  0  0
    3.2554    2.1077    0.0000 H   0  0  0  0  0  0  0  0  0  0  0  0
    3.6540    1.4174    0.0000 H   0  0  0  0  0  0  0  0  0  0  0  0
    6.2087    2.8923    0.0000 H   0  0  0  0  0  0  0  0  0  0  0  0
    5.8101    3.5826    0.0000 H   0  0  0  0  0  0  0  0  0  0  0  0
    5.1306    3.9750    0.0000 H   0  0  0  0  0  0  0  0  0  0  0  0
    4.3335    3.9750    0.0000 H   0  0  0  0  0  0  0  0  0  0  0  0
    2.3894    3.6077    0.0000 H   0  0  0  0  0  0  0  0  0  0  0  0
    2.7880    2.9174    0.0000 H   0  0  0  0  0  0  0  0  0  0  0  0
    3.3291    0.3100    0.0000 H   0  0  0  0  0  0  0  0  0  0  0  0
    6.1350    0.3100    0.0000 H   0  0  0  0  0  0  0  0  0  0  0  0
    3.6200    4.5000    0.0000 H   0  0  0  0  0  0  0  0  0  0  0  0
    3.0000    5.1200    0.0000 H   0  0  0  0  0  0  0  0  0  0  0  0
    2.3800    4.5000    0.0000 H   0  0  0  0  0  0  0  0  0  0  0  0
    6.1350   -1.3100    0.0000 H   0  0  0  0  0  0  0  0  0  0  0  0
    4.7320   -2.1200    0.0000 H   0  0  0  0  0  0  0  0  0  0  0  0
  1  5  1  0  0  0  0
  1  6  2  0  0  0  0
  1  7  2  0  0  0  0
  1 22  1  0  0  0  0
  2 22  1  0  0  0  0
  3 22  1  0  0  0  0
  4 22  1  0  0  0  0
  5 19  1  0  0  0  0
  8 11  1  0  0  0  0
  8 13  1  0  0  0  0
  8 15  1  0  0  0  0
  9 10  1  0  0  0  0
  9 11  1  0  0  0  0
  9 14  1  1  0  0  0
  9 23  1  0  0  0  0
 10 12  1  0  0  0  0
 10 24  1  0  0  0  0
 10 25  1  0  0  0  0
 11 26  1  0  0  0  0
 11 27  1  0  0  0  0
 12 13  1  0  0  0  0
 12 28  1  0  0  0  0
 12 29  1  0  0  0  0
 13 30  1  0  0  0  0
 13 31  1  0  0  0  0
 14 16  2  0  0  0  0
 14 17  1  0  0  0  0
 15 18  1  0  0  0  0
 15 32  1  0  0  0  0
 15 33  1  0  0  0  0
 16 19  1  0  0  0  0
 16 34  1  0  0  0  0
 17 20  2  0  0  0  0
 17 35  1  0  0  0  0
 18 36  1  0  0  0  0
 18 37  1  0  0  0  0
 18 38  1  0  0  0  0
 19 21  2  0  0  0  0
 20 21  1  0  0  0  0
 20 39  1  0  0  0  0
 21 40  1  0  0  0  0
M  END
> <PUBCHEM_COMPOUND_CID>
10382430

> <PUBCHEM_COMPOUND_CANONICALIZED>
1

> <PUBCHEM_CACTVS_COMPLEXITY>
461

> <PUBCHEM_CACTVS_HBOND_ACCEPTOR>
7

> <PUBCHEM_CACTVS_HBOND_DONOR>
0

> <PUBCHEM_CACTVS_ROTATABLE_BOND>
4

> <PUBCHEM_CACTVS_SUBSKEYS>
AAADceByMYBAAAAAAAAAAAAAAAAAAAAAAAA8QAAAAAAAAAABAAAAHwQAAAAADQTBmBQyBoMAAAKAAiBCAHACAAAgIAAIiAAOCIgIJiKAkROEMAAkwBGIiAeQ0PIOgAABAAAAAAAAAAIAAAAAAAAAAAAAAA==

> <PUBCHEM_IUPAC_OPENEYE_NAME>
[3-[(3S)-1-ethyl-3-piperidyl]phenyl] trifluoromethanesulfonate

> <PUBCHEM_IUPAC_CAS_NAME>
trifluoromethanesulfonic acid [3-[(3S)-1-ethyl-3-piperidinyl]phenyl] ester

> <PUBCHEM_IUPAC_NAME_MARKUP>
[3-[(3<I>S</I>)-1-ethylpiperidin-3-yl]phenyl] trifluoromethanesulfonate

> <PUBCHEM_IUPAC_NAME>
[3-[(3S)-1-ethylpiperidin-3-yl]phenyl] trifluoromethanesulfonate

> <PUBCHEM_IUPAC_SYSTEMATIC_NAME>
[3-[(3S)-1-ethylpiperidin-3-yl]phenyl] tris(fluoranyl)methanesulfonate

> <PUBCHEM_IUPAC_TRADITIONAL_NAME>
trifluoromethanesulfonic acid [3-[(3S)-1-ethyl-3-piperidyl]phenyl] ester

> <PUBCHEM_IUPAC_INCHI>
InChI=1S/C14H18F3NO3S/c1-2-18-8-4-6-12(10-18)11-5-3-7-13(9-11)21-22(19,20)14(15,16)17/h3,5,7,9,12H,2,4,6,8,10H2,1H3/t12-/m1/s1

> <PUBCHEM_IUPAC_INCHIKEY>
JMGZFNUKIOOZSN-GFCCVEGCSA-N

> <PUBCHEM_XLOGP3_AA>
3.6

> <PUBCHEM_EXACT_MASS>
337.09594910

> <PUBCHEM_MOLECULAR_FORMULA>
C14H18F3NO3S

> <PUBCHEM_MOLECULAR_WEIGHT>
337.36

> <PUBCHEM_OPENEYE_CAN_SMILES>
CCN1CCCC(C1)C2=CC(=CC=C2)OS(=O)(=O)C(F)(F)F

> <PUBCHEM_OPENEYE_ISO_SMILES>
CCN1CCC[C@H](C1)C2=CC(=CC=C2)OS(=O)(=O)C(F)(F)F

> <PUBCHEM_CACTVS_TPSA>
55

> <PUBCHEM_MONOISOTOPIC_WEIGHT>
337.09594910

> <PUBCHEM_TOTAL_CHARGE>
0

> <PUBCHEM_HEAVY_ATOM_COUNT>
22

> <PUBCHEM_ATOM_DEF_STEREO_COUNT>
1

> <PUBCHEM_ATOM_UDEF_STEREO_COUNT>
0

> <PUBCHEM_BOND_DEF_STEREO_COUNT>
0

> <PUBCHEM_BOND_UDEF_STEREO_COUNT>
0

> <PUBCHEM_ISOTOPIC_ATOM_COUNT>
0

> <PUBCHEM_COMPONENT_COUNT>
1

> <PUBCHEM_CACTVS_TAUTO_COUNT>
-1

> <PUBCHEM_COORDINATE_TYPE>
1
5
255

> <PUBCHEM_BONDANNOTATIONS>
14  16  8
14  17  8
16  19  8
17  20  8
19  21  8
20  21  8
9  14  5

$$$$
