44363218
  -OEChem-09292322212D

 60 63  0     1  0  0  0  0  0999 V2000
   10.1467   -2.9674    0.0000 S   0  0  0  0  0  0  0  0  0  0  0  0
    6.1686   -2.5492    0.0000 O   0  0  0  0  0  0  0  0  0  0  0  0
   10.0422   -3.9619    0.0000 O   0  0  0  0  0  0  0  0  0  0  0  0
   10.2513   -1.9728    0.0000 O   0  0  0  0  0  0  0  0  0  0  0  0
    5.3955    1.7712    0.0000 N   0  0  3  0  0  0  0  0  0  0  0  0
    6.3661   -0.7233    0.0000 N   0  0  0  0  0  0  0  0  0  0  0  0
   11.1412   -3.0719    0.0000 N   0  0  0  0  0  0  0  0  0  0  0  0
    4.4945    2.2051    0.0000 C   0  0  3  0  0  0  0  0  0  0  0  0
    4.2720    3.1800    0.0000 C   0  0  0  0  0  0  0  0  0  0  0  0
    6.2965    2.2051    0.0000 C   0  0  0  0  0  0  0  0  0  0  0  0
    4.8955    3.9619    0.0000 C   0  0  0  0  0  0  0  0  0  0  0  0
    6.5190    3.1800    0.0000 C   0  0  0  0  0  0  0  0  0  0  0  0
    5.8955    3.9619    0.0000 C   0  0  0  0  0  0  0  0  0  0  0  0
    5.3955    0.7712    0.0000 C   0  0  0  0  0  0  0  0  0  0  0  0
    3.7127    1.5816    0.0000 C   0  0  0  0  0  0  0  0  0  0  0  0
    6.2615    0.2712    0.0000 C   0  0  0  0  0  0  0  0  0  0  0  0
    3.8618    0.5928    0.0000 C   0  0  0  0  0  0  0  0  0  0  0  0
    2.7818    1.9470    0.0000 C   0  0  0  0  0  0  0  0  0  0  0  0
    7.1751    0.6780    0.0000 C   0  0  0  0  0  0  0  0  0  0  0  0
    7.3442   -0.9312    0.0000 C   0  0  0  0  0  0  0  0  0  0  0  0
    7.8442   -0.0652    0.0000 C   0  0  0  0  0  0  0  0  0  0  0  0
    3.0799   -0.0307    0.0000 C   0  0  0  0  0  0  0  0  0  0  0  0
    2.0000    1.3235    0.0000 C   0  0  0  0  0  0  0  0  0  0  0  0
    7.7509   -1.8448    0.0000 C   0  0  0  0  0  0  0  0  0  0  0  0
    2.1490    0.3346    0.0000 C   0  0  0  0  0  0  0  0  0  0  0  0
    8.7455   -1.9493    0.0000 C   0  0  0  0  0  0  0  0  0  0  0  0
    7.1632   -2.6538    0.0000 C   0  0  0  0  0  0  0  0  0  0  0  0
    9.1522   -2.8628    0.0000 C   0  0  0  0  0  0  0  0  0  0  0  0
    7.5699   -3.5673    0.0000 C   0  0  0  0  0  0  0  0  0  0  0  0
    8.5644   -3.6718    0.0000 C   0  0  0  0  0  0  0  0  0  0  0  0
    5.5808   -3.3582    0.0000 C   0  0  0  0  0  0  0  0  0  0  0  0
    4.5640    1.5890    0.0000 H   0  0  0  0  0  0  0  0  0  0  0  0
    3.8854    3.6648    0.0000 H   0  0  0  0  0  0  0  0  0  0  0  0
    3.7134    2.9110    0.0000 H   0  0  0  0  0  0  0  0  0  0  0  0
    6.4344    1.6007    0.0000 H   0  0  0  0  0  0  0  0  0  0  0  0
    6.9165    2.2051    0.0000 H   0  0  0  0  0  0  0  0  0  0  0  0
    5.0335    4.5663    0.0000 H   0  0  0  0  0  0  0  0  0  0  0  0
    4.3369    4.2309    0.0000 H   0  0  0  0  0  0  0  0  0  0  0  0
    7.0776    2.9110    0.0000 H   0  0  0  0  0  0  0  0  0  0  0  0
    6.9056    3.6648    0.0000 H   0  0  0  0  0  0  0  0  0  0  0  0
    6.4541    4.2309    0.0000 H   0  0  0  0  0  0  0  0  0  0  0  0
    5.7575    4.5663    0.0000 H   0  0  0  0  0  0  0  0  0  0  0  0
    4.7849    0.8789    0.0000 H   0  0  0  0  0  0  0  0  0  0  0  0
    5.1834    0.1886    0.0000 H   0  0  0  0  0  0  0  0  0  0  0  0
    4.4389    0.3663    0.0000 H   0  0  0  0  0  0  0  0  0  0  0  0
    2.6894    2.5600    0.0000 H   0  0  0  0  0  0  0  0  0  0  0  0
    5.9053   -1.1382    0.0000 H   0  0  0  0  0  0  0  0  0  0  0  0
    7.3040    1.2844    0.0000 H   0  0  0  0  0  0  0  0  0  0  0  0
    8.4608   -0.0004    0.0000 H   0  0  0  0  0  0  0  0  0  0  0  0
    3.1723   -0.6438    0.0000 H   0  0  0  0  0  0  0  0  0  0  0  0
    1.4229    1.5500    0.0000 H   0  0  0  0  0  0  0  0  0  0  0  0
    1.6643   -0.0519    0.0000 H   0  0  0  0  0  0  0  0  0  0  0  0
    9.1099   -1.4477    0.0000 H   0  0  0  0  0  0  0  0  0  0  0  0
    7.2055   -4.0689    0.0000 H   0  0  0  0  0  0  0  0  0  0  0  0
    8.8166   -4.2382    0.0000 H   0  0  0  0  0  0  0  0  0  0  0  0
    5.0793   -2.9938    0.0000 H   0  0  0  0  0  0  0  0  0  0  0  0
    5.2164   -3.8598    0.0000 H   0  0  0  0  0  0  0  0  0  0  0  0
    6.0824   -3.7227    0.0000 H   0  0  0  0  0  0  0  0  0  0  0  0
   11.3934   -3.6383    0.0000 H   0  0  0  0  0  0  0  0  0  0  0  0
   11.5057   -2.5703    0.0000 H   0  0  0  0  0  0  0  0  0  0  0  0
  1  3  2  0  0  0  0
  1  4  2  0  0  0  0
  1  7  1  0  0  0  0
  1 28  1  0  0  0  0
  2 27  1  0  0  0  0
  2 31  1  0  0  0  0
  5  8  1  0  0  0  0
  5 10  1  0  0  0  0
  5 14  1  0  0  0  0
  6 16  1  0  0  0  0
  6 20  1  0  0  0  0
  6 47  1  0  0  0  0
  7 59  1  0  0  0  0
  7 60  1  0  0  0  0
  8  9  1  0  0  0  0
  8 15  1  0  0  0  0
  8 32  1  0  0  0  0
  9 11  1  0  0  0  0
  9 33  1  0  0  0  0
  9 34  1  0  0  0  0
 10 12  1  0  0  0  0
 10 35  1  0  0  0  0
 10 36  1  0  0  0  0
 11 13  1  0  0  0  0
 11 37  1  0  0  0  0
 11 38  1  0  0  0  0
 12 13  1  0  0  0  0
 12 39  1  0  0  0  0
 12 40  1  0  0  0  0
 13 41  1  0  0  0  0
 13 42  1  0  0  0  0
 14 16  1  0  0  0  0
 14 43  1  0  0  0  0
 14 44  1  0  0  0  0
 15 17  2  0  0  0  0
 15 18  1  0  0  0  0
 16 19  2  0  0  0  0
 17 22  1  0  0  0  0
 17 45  1  0  0  0  0
 18 23  2  0  0  0  0
 18 46  1  0  0  0  0
 19 21  1  0  0  0  0
 19 48  1  0  0  0  0
 20 21  2  0  0  0  0
 20 24  1  0  0  0  0
 21 49  1  0  0  0  0
 22 25  2  0  0  0  0
 22 50  1  0  0  0  0
 23 25  1  0  0  0  0
 23 51  1  0  0  0  0
 24 26  1  0  0  0  0
 24 27  2  0  0  0  0
 25 52  1  0  0  0  0
 26 28  2  0  0  0  0
 26 53  1  0  0  0  0
 27 29  1  0  0  0  0
 28 30  1  0  0  0  0
 29 30  2  0  0  0  0
 29 54  1  0  0  0  0
 30 55  1  0  0  0  0
 31 56  1  0  0  0  0
 31 57  1  0  0  0  0
 31 58  1  0  0  0  0
M  END
> <PUBCHEM_COMPOUND_CID>
44363218

> <PUBCHEM_COMPOUND_CANONICALIZED>
1

> <PUBCHEM_CACTVS_COMPLEXITY>
662

> <PUBCHEM_CACTVS_HBOND_ACCEPTOR>
5

> <PUBCHEM_CACTVS_HBOND_DONOR>
2

> <PUBCHEM_CACTVS_ROTATABLE_BOND>
6

> <PUBCHEM_CACTVS_SUBSKEYS>
AAADceB7MABAAAAAAAAAAAAAAAAAAWAAAAAwYAAABYAAAAAB0AAAHgQQQAAADCzB3gYyh5PJlAKgAyRiRHDCiDAhIiAImTg+bJgMZuLEsZuUMChm0BHI6AeQwOAOAIAAgAAIAAABAAEAABAAAAAAAAAAAA==

> <PUBCHEM_IUPAC_OPENEYE_NAME>
4-methoxy-3-[5-[(2-phenylazepan-1-yl)methyl]-1H-pyrrol-2-yl]benzenesulfonamide

> <PUBCHEM_IUPAC_CAS_NAME>
4-methoxy-3-[5-[(2-phenyl-1-azepanyl)methyl]-1H-pyrrol-2-yl]benzenesulfonamide

> <PUBCHEM_IUPAC_NAME_MARKUP>
4-methoxy-3-[5-[(2-phenylazepan-1-yl)methyl]-1<I>H</I>-pyrrol-2-yl]benzenesulfonamide

> <PUBCHEM_IUPAC_NAME>
4-methoxy-3-[5-[(2-phenylazepan-1-yl)methyl]-1H-pyrrol-2-yl]benzenesulfonamide

> <PUBCHEM_IUPAC_SYSTEMATIC_NAME>
4-methoxy-3-[5-[(2-phenylazepan-1-yl)methyl]-1H-pyrrol-2-yl]benzenesulfonamide

> <PUBCHEM_IUPAC_TRADITIONAL_NAME>
4-methoxy-3-[5-[(2-phenylazepan-1-yl)methyl]-1H-pyrrol-2-yl]benzenesulfonamide

> <PUBCHEM_IUPAC_INCHI>
InChI=1S/C24H29N3O3S/c1-30-24-14-12-20(31(25,28)29)16-21(24)22-13-11-19(26-22)17-27-15-7-3-6-10-23(27)18-8-4-2-5-9-18/h2,4-5,8-9,11-14,16,23,26H,3,6-7,10,15,17H2,1H3,(H2,25,28,29)

> <PUBCHEM_IUPAC_INCHIKEY>
GGKGOXNQDZREPO-UHFFFAOYSA-N

> <PUBCHEM_XLOGP3_AA>
3.5

> <PUBCHEM_EXACT_MASS>
439.19296297

> <PUBCHEM_MOLECULAR_FORMULA>
C24H29N3O3S

> <PUBCHEM_MOLECULAR_WEIGHT>
439.6

> <PUBCHEM_OPENEYE_CAN_SMILES>
COC1=C(C=C(C=C1)S(=O)(=O)N)C2=CC=C(N2)CN3CCCCCC3C4=CC=CC=C4

> <PUBCHEM_OPENEYE_ISO_SMILES>
COC1=C(C=C(C=C1)S(=O)(=O)N)C2=CC=C(N2)CN3CCCCCC3C4=CC=CC=C4

> <PUBCHEM_CACTVS_TPSA>
96.8

> <PUBCHEM_MONOISOTOPIC_WEIGHT>
439.19296297

> <PUBCHEM_TOTAL_CHARGE>
0

> <PUBCHEM_HEAVY_ATOM_COUNT>
31

> <PUBCHEM_ATOM_DEF_STEREO_COUNT>
0

> <PUBCHEM_ATOM_UDEF_STEREO_COUNT>
1

> <PUBCHEM_BOND_DEF_STEREO_COUNT>
0

> <PUBCHEM_BOND_UDEF_STEREO_COUNT>
0

> <PUBCHEM_ISOTOPIC_ATOM_COUNT>
0

> <PUBCHEM_COMPONENT_COUNT>
1

> <PUBCHEM_CACTVS_TAUTO_COUNT>
-1

> <PUBCHEM_COORDINATE_TYPE>
1
5
255

> <PUBCHEM_BONDANNOTATIONS>
15  17  8
15  18  8
16  19  8
17  22  8
18  23  8
19  21  8
20  21  8
22  25  8
23  25  8
24  26  8
24  27  8
26  28  8
27  29  8
28  30  8
29  30  8
6  16  8
6  20  8
8  15  3

$$$$
