168270566
  -OEChem-09292322442D

 64 66  0     0  0  0  0  0  0999 V2000
    4.9338   12.1319    0.0000 O   0  0  0  0  0  0  0  0  0  0  0  0
    3.6014    1.5000    0.0000 O   0  0  0  0  0  0  0  0  0  0  0  0
    6.1995    1.0000    0.0000 O   0  0  0  0  0  0  0  0  0  0  0  0
    4.4674    0.0000    0.0000 O   0  0  0  0  0  0  0  0  0  0  0  0
    5.3335    2.5000    0.0000 O   0  0  0  0  0  0  0  0  0  0  0  0
    4.9338    9.1319    0.0000 N   0  0  0  0  0  0  0  0  0  0  0  0
    6.6659    8.1319    0.0000 N   0  0  0  0  0  0  0  0  0  0  0  0
    3.2018   12.1319    0.0000 N   0  0  0  0  0  0  0  0  0  0  0  0
    5.7998    9.6319    0.0000 C   0  0  0  0  0  0  0  0  0  0  0  0
    4.9338    8.1319    0.0000 C   0  0  0  0  0  0  0  0  0  0  0  0
    4.0678    9.6319    0.0000 C   0  0  0  0  0  0  0  0  0  0  0  0
    6.6659    9.1319    0.0000 C   0  0  0  0  0  0  0  0  0  0  0  0
    5.7998    7.6319    0.0000 C   0  0  0  0  0  0  0  0  0  0  0  0
    4.0678   10.6319    0.0000 C   0  0  0  0  0  0  0  0  0  0  0  0
    3.2018   11.1319    0.0000 C   0  0  0  0  0  0  0  0  0  0  0  0
    7.5319    7.6319    0.0000 C   0  0  0  0  0  0  0  0  0  0  0  0
    2.3358   12.6319    0.0000 C   0  0  0  0  0  0  0  0  0  0  0  0
    3.2018   14.1319    0.0000 C   0  0  0  0  0  0  0  0  0  0  0  0
    2.3358   13.6319    0.0000 C   0  0  0  0  0  0  0  0  0  0  0  0
    4.0678   13.6319    0.0000 C   0  0  0  0  0  0  0  0  0  0  0  0
    4.0678   12.6319    0.0000 C   0  0  0  0  0  0  0  0  0  0  0  0
    7.5319    6.6319    0.0000 C   0  0  0  0  0  0  0  0  0  0  0  0
    8.3979    8.1319    0.0000 C   0  0  0  0  0  0  0  0  0  0  0  0
    1.4418   12.0972    0.0000 C   0  0  0  0  0  0  0  0  0  0  0  0
    1.4418   14.1666    0.0000 C   0  0  0  0  0  0  0  0  0  0  0  0
    8.3979    6.1319    0.0000 C   0  0  0  0  0  0  0  0  0  0  0  0
    9.2640    7.6319    0.0000 C   0  0  0  0  0  0  0  0  0  0  0  0
    0.5357   12.6111    0.0000 C   0  0  0  0  0  0  0  0  0  0  0  0
    0.5357   13.6527    0.0000 C   0  0  0  0  0  0  0  0  0  0  0  0
    9.2640    6.6319    0.0000 C   0  0  0  0  0  0  0  0  0  0  0  0
    8.3979    5.1319    0.0000 C   0  0  0  0  0  0  0  0  0  0  0  0
    4.4674    1.0000    0.0000 C   0  0  0  0  0  0  0  0  0  0  0  0
    5.3335    1.5000    0.0000 C   0  0  0  0  0  0  0  0  0  0  0  0
    6.1984   10.1068    0.0000 H   0  0  0  0  0  0  0  0  0  0  0  0
    5.4013   10.1068    0.0000 H   0  0  0  0  0  0  0  0  0  0  0  0
    4.3232    8.2396    0.0000 H   0  0  0  0  0  0  0  0  0  0  0  0
    4.7218    7.5493    0.0000 H   0  0  0  0  0  0  0  0  0  0  0  0
    3.4572    9.7396    0.0000 H   0  0  0  0  0  0  0  0  0  0  0  0
    3.8557    9.0493    0.0000 H   0  0  0  0  0  0  0  0  0  0  0  0
    7.2764    9.0242    0.0000 H   0  0  0  0  0  0  0  0  0  0  0  0
    6.8779    9.7145    0.0000 H   0  0  0  0  0  0  0  0  0  0  0  0
    5.4013    7.1570    0.0000 H   0  0  0  0  0  0  0  0  0  0  0  0
    6.1984    7.1570    0.0000 H   0  0  0  0  0  0  0  0  0  0  0  0
    4.6784   10.5242    0.0000 H   0  0  0  0  0  0  0  0  0  0  0  0
    4.2798   11.2145    0.0000 H   0  0  0  0  0  0  0  0  0  0  0  0
    2.5912   11.2396    0.0000 H   0  0  0  0  0  0  0  0  0  0  0  0
    2.9897   10.5493    0.0000 H   0  0  0  0  0  0  0  0  0  0  0  0
    3.6003   14.6068    0.0000 H   0  0  0  0  0  0  0  0  0  0  0  0
    2.8032   14.6068    0.0000 H   0  0  0  0  0  0  0  0  0  0  0  0
    4.6784   13.5242    0.0000 H   0  0  0  0  0  0  0  0  0  0  0  0
    4.2798   14.2145    0.0000 H   0  0  0  0  0  0  0  0  0  0  0  0
    6.9950    6.3219    0.0000 H   0  0  0  0  0  0  0  0  0  0  0  0
    8.3979    8.7519    0.0000 H   0  0  0  0  0  0  0  0  0  0  0  0
    1.4490   11.4773    0.0000 H   0  0  0  0  0  0  0  0  0  0  0  0
    1.4490   14.7865    0.0000 H   0  0  0  0  0  0  0  0  0  0  0  0
    9.8009    7.9419    0.0000 H   0  0  0  0  0  0  0  0  0  0  0  0
    0.0000   12.2990    0.0000 H   0  0  0  0  0  0  0  0  0  0  0  0
    0.0000   13.9648    0.0000 H   0  0  0  0  0  0  0  0  0  0  0  0
    9.8009    6.3219    0.0000 H   0  0  0  0  0  0  0  0  0  0  0  0
    7.7779    5.1319    0.0000 H   0  0  0  0  0  0  0  0  0  0  0  0
    8.3979    4.5119    0.0000 H   0  0  0  0  0  0  0  0  0  0  0  0
    9.0179    5.1319    0.0000 H   0  0  0  0  0  0  0  0  0  0  0  0
    3.0645    1.1900    0.0000 H   0  0  0  0  0  0  0  0  0  0  0  0
    6.7364    1.3100    0.0000 H   0  0  0  0  0  0  0  0  0  0  0  0
  1 21  2  0  0  0  0
  2 32  1  0  0  0  0
  2 63  1  0  0  0  0
  3 33  1  0  0  0  0
  3 64  1  0  0  0  0
  4 32  2  0  0  0  0
  5 33  2  0  0  0  0
  6  9  1  0  0  0  0
  6 10  1  0  0  0  0
  6 11  1  0  0  0  0
  7 12  1  0  0  0  0
  7 13  1  0  0  0  0
  7 16  1  0  0  0  0
  8 15  1  0  0  0  0
  8 17  1  0  0  0  0
  8 21  1  0  0  0  0
  9 12  1  0  0  0  0
  9 34  1  0  0  0  0
  9 35  1  0  0  0  0
 10 13  1  0  0  0  0
 10 36  1  0  0  0  0
 10 37  1  0  0  0  0
 11 14  1  0  0  0  0
 11 38  1  0  0  0  0
 11 39  1  0  0  0  0
 12 40  1  0  0  0  0
 12 41  1  0  0  0  0
 13 42  1  0  0  0  0
 13 43  1  0  0  0  0
 14 15  1  0  0  0  0
 14 44  1  0  0  0  0
 14 45  1  0  0  0  0
 15 46  1  0  0  0  0
 15 47  1  0  0  0  0
 16 22  1  0  0  0  0
 16 23  2  0  0  0  0
 17 19  1  0  0  0  0
 17 24  2  0  0  0  0
 18 19  1  0  0  0  0
 18 20  1  0  0  0  0
 18 48  1  0  0  0  0
 18 49  1  0  0  0  0
 19 25  2  0  0  0  0
 20 21  1  0  0  0  0
 20 50  1  0  0  0  0
 20 51  1  0  0  0  0
 22 26  2  0  0  0  0
 22 52  1  0  0  0  0
 23 27  1  0  0  0  0
 23 53  1  0  0  0  0
 24 28  1  0  0  0  0
 24 54  1  0  0  0  0
 25 29  1  0  0  0  0
 25 55  1  0  0  0  0
 26 30  1  0  0  0  0
 26 31  1  0  0  0  0
 27 30  2  0  0  0  0
 27 56  1  0  0  0  0
 28 29  2  0  0  0  0
 28 57  1  0  0  0  0
 29 58  1  0  0  0  0
 30 59  1  0  0  0  0
 31 60  1  0  0  0  0
 31 61  1  0  0  0  0
 31 62  1  0  0  0  0
 32 33  1  0  0  0  0
M  END
> <PUBCHEM_COMPOUND_CID>
168270566

> <PUBCHEM_COMPOUND_CANONICALIZED>
1

> <PUBCHEM_CACTVS_COMPLEXITY>
560

> <PUBCHEM_CACTVS_HBOND_ACCEPTOR>
7

> <PUBCHEM_CACTVS_HBOND_DONOR>
2

> <PUBCHEM_CACTVS_ROTATABLE_BOND>
6

> <PUBCHEM_CACTVS_SUBSKEYS>
AAADceB7OAAAAAAAAAAAAAAAAAAAAAAAAAA8eIEAAAAAAACxQAAAHgAACAAADAjBmAQyyIMAAgCIAiXSWAKCAAAhAgAIiAFIZIgJYDLA0ZGUIAhghgDJyAcYiYCeAAAAQAACAAAAAACAAAQAAAAAAAAAAA==

> <PUBCHEM_IUPAC_OPENEYE_NAME>
1-[3-[4-(m-tolyl)piperazin-1-yl]propyl]-3,4-dihydroquinolin-2-one;oxalic acid

> <PUBCHEM_IUPAC_CAS_NAME>
1-[3-[4-(3-methylphenyl)-1-piperazinyl]propyl]-3,4-dihydroquinolin-2-one;oxalic acid

> <PUBCHEM_IUPAC_NAME_MARKUP>
1-[3-[4-(3-methylphenyl)piperazin-1-yl]propyl]-3,4-dihydroquinolin-2-one;oxalic acid

> <PUBCHEM_IUPAC_NAME>
1-[3-[4-(3-methylphenyl)piperazin-1-yl]propyl]-3,4-dihydroquinolin-2-one;oxalic acid

> <PUBCHEM_IUPAC_SYSTEMATIC_NAME>
ethanedioic acid;1-[3-[4-(3-methylphenyl)piperazin-1-yl]propyl]-3,4-dihydroquinolin-2-one

> <PUBCHEM_IUPAC_TRADITIONAL_NAME>
1-[3-[4-(m-tolyl)piperazino]propyl]-3,4-dihydrocarbostyril;oxalic acid

> <PUBCHEM_IUPAC_INCHI>
InChI=1S/C23H29N3O.C2H2O4/c1-19-6-4-8-21(18-19)25-16-14-24(15-17-25)12-5-13-26-22-9-3-2-7-20(22)10-11-23(26)27;3-1(4)2(5)6/h2-4,6-9,18H,5,10-17H2,1H3;(H,3,4)(H,5,6)

> <PUBCHEM_IUPAC_INCHIKEY>
IURIFAMWYUXKNB-UHFFFAOYSA-N

> <PUBCHEM_EXACT_MASS>
453.22637110

> <PUBCHEM_MOLECULAR_FORMULA>
C25H31N3O5

> <PUBCHEM_MOLECULAR_WEIGHT>
453.5

> <PUBCHEM_OPENEYE_CAN_SMILES>
CC1=CC(=CC=C1)N2CCN(CC2)CCCN3C(=O)CCC4=CC=CC=C43.C(=O)(C(=O)O)O

> <PUBCHEM_OPENEYE_ISO_SMILES>
CC1=CC(=CC=C1)N2CCN(CC2)CCCN3C(=O)CCC4=CC=CC=C43.C(=O)(C(=O)O)O

> <PUBCHEM_CACTVS_TPSA>
101

> <PUBCHEM_MONOISOTOPIC_WEIGHT>
453.22637110

> <PUBCHEM_TOTAL_CHARGE>
0

> <PUBCHEM_HEAVY_ATOM_COUNT>
33

> <PUBCHEM_ATOM_DEF_STEREO_COUNT>
0

> <PUBCHEM_ATOM_UDEF_STEREO_COUNT>
0

> <PUBCHEM_BOND_DEF_STEREO_COUNT>
0

> <PUBCHEM_BOND_UDEF_STEREO_COUNT>
0

> <PUBCHEM_ISOTOPIC_ATOM_COUNT>
0

> <PUBCHEM_COMPONENT_COUNT>
2

> <PUBCHEM_CACTVS_TAUTO_COUNT>
-1

> <PUBCHEM_COORDINATE_TYPE>
1
5
255

> <PUBCHEM_BONDANNOTATIONS>
16  22  8
16  23  8
17  19  8
17  24  8
19  25  8
22  26  8
23  27  8
24  28  8
25  29  8
26  30  8
27  30  8
28  29  8

$$$$
