127053042
  -OEChem-09292322372D

 44 45  0     1  0  0  0  0  0999 V2000
    4.9980    0.0000    0.0000 Cl  0  0  0  0  0  0  0  0  0  0  0  0
    7.5319    5.1417    0.0000 S   0  0  3  0  0  0  0  0  0  0  0  0
   10.9960    3.1417    0.0000 F   0  0  0  0  0  0  0  0  0  0  0  0
    7.5319    6.1417    0.0000 O   0  0  0  0  0  0  0  0  0  0  0  0
    4.0678    5.1417    0.0000 N   0  0  3  0  0  0  0  0  0  0  0  0
    4.0678    6.1417    0.0000 C   0  0  0  0  0  0  0  0  0  0  0  0
    3.2018    4.6417    0.0000 C   0  0  0  0  0  0  0  0  0  0  0  0
    3.2018    6.6417    0.0000 C   0  0  0  0  0  0  0  0  0  0  0  0
    4.9338    4.6417    0.0000 C   0  0  0  0  0  0  0  0  0  0  0  0
    2.3358    5.1417    0.0000 C   0  0  0  0  0  0  0  0  0  0  0  0
    2.3358    6.1417    0.0000 C   0  0  0  0  0  0  0  0  0  0  0  0
    5.7998    5.1417    0.0000 C   0  0  0  0  0  0  0  0  0  0  0  0
    6.6659    4.6417    0.0000 C   0  0  0  0  0  0  0  0  0  0  0  0
    1.4418    4.6070    0.0000 C   0  0  0  0  0  0  0  0  0  0  0  0
    1.4418    6.6763    0.0000 C   0  0  0  0  0  0  0  0  0  0  0  0
    0.5357    5.1209    0.0000 C   0  0  0  0  0  0  0  0  0  0  0  0
    0.5357    6.1625    0.0000 C   0  0  0  0  0  0  0  0  0  0  0  0
    8.3979    4.6417    0.0000 C   0  0  0  0  0  0  0  0  0  0  0  0
    9.2640    5.1417    0.0000 C   0  0  0  0  0  0  0  0  0  0  0  0
    8.3979    3.6417    0.0000 C   0  0  0  0  0  0  0  0  0  0  0  0
   10.1300    4.6417    0.0000 C   0  0  0  0  0  0  0  0  0  0  0  0
    9.2640    3.1417    0.0000 C   0  0  0  0  0  0  0  0  0  0  0  0
   10.1300    3.6417    0.0000 C   0  0  0  0  0  0  0  0  0  0  0  0
    4.6784    6.0340    0.0000 H   0  0  0  0  0  0  0  0  0  0  0  0
    4.2798    6.7243    0.0000 H   0  0  0  0  0  0  0  0  0  0  0  0
    2.8032    4.1667    0.0000 H   0  0  0  0  0  0  0  0  0  0  0  0
    3.6003    4.1667    0.0000 H   0  0  0  0  0  0  0  0  0  0  0  0
    3.6003    7.1166    0.0000 H   0  0  0  0  0  0  0  0  0  0  0  0
    2.8032    7.1166    0.0000 H   0  0  0  0  0  0  0  0  0  0  0  0
    4.5353    4.1667    0.0000 H   0  0  0  0  0  0  0  0  0  0  0  0
    5.3324    4.1667    0.0000 H   0  0  0  0  0  0  0  0  0  0  0  0
    6.1984    5.6166    0.0000 H   0  0  0  0  0  0  0  0  0  0  0  0
    5.4013    5.6166    0.0000 H   0  0  0  0  0  0  0  0  0  0  0  0
    6.2673    4.1667    0.0000 H   0  0  0  0  0  0  0  0  0  0  0  0
    7.0644    4.1667    0.0000 H   0  0  0  0  0  0  0  0  0  0  0  0
    1.4490    3.9871    0.0000 H   0  0  0  0  0  0  0  0  0  0  0  0
    1.4490    7.2963    0.0000 H   0  0  0  0  0  0  0  0  0  0  0  0
    0.0000    4.8088    0.0000 H   0  0  0  0  0  0  0  0  0  0  0  0
    0.0000    6.4746    0.0000 H   0  0  0  0  0  0  0  0  0  0  0  0
    9.2640    5.7617    0.0000 H   0  0  0  0  0  0  0  0  0  0  0  0
    7.8610    3.3317    0.0000 H   0  0  0  0  0  0  0  0  0  0  0  0
   10.6669    4.9517    0.0000 H   0  0  0  0  0  0  0  0  0  0  0  0
    9.2640    2.5217    0.0000 H   0  0  0  0  0  0  0  0  0  0  0  0
    5.9980    0.0000    0.0000 H   0  0  0  0  0  0  0  0  0  0  0  0
  1 44  1  0  0  0  0
  2  4  2  0  0  0  0
  2 13  1  0  0  0  0
  2 18  1  0  0  0  0
  3 23  1  0  0  0  0
  5  6  1  0  0  0  0
  5  7  1  0  0  0  0
  5  9  1  0  0  0  0
  6  8  1  0  0  0  0
  6 24  1  0  0  0  0
  6 25  1  0  0  0  0
  7 10  1  0  0  0  0
  7 26  1  0  0  0  0
  7 27  1  0  0  0  0
  8 11  1  0  0  0  0
  8 28  1  0  0  0  0
  8 29  1  0  0  0  0
  9 12  1  0  0  0  0
  9 30  1  0  0  0  0
  9 31  1  0  0  0  0
 10 11  1  0  0  0  0
 10 14  2  0  0  0  0
 11 15  2  0  0  0  0
 12 13  1  0  0  0  0
 12 32  1  0  0  0  0
 12 33  1  0  0  0  0
 13 34  1  0  0  0  0
 13 35  1  0  0  0  0
 14 16  1  0  0  0  0
 14 36  1  0  0  0  0
 15 17  1  0  0  0  0
 15 37  1  0  0  0  0
 16 17  2  0  0  0  0
 16 38  1  0  0  0  0
 17 39  1  0  0  0  0
 18 19  2  0  0  0  0
 18 20  1  0  0  0  0
 19 21  1  0  0  0  0
 19 40  1  0  0  0  0
 20 22  2  0  0  0  0
 20 41  1  0  0  0  0
 21 23  2  0  0  0  0
 21 42  1  0  0  0  0
 22 23  1  0  0  0  0
 22 43  1  0  0  0  0
M  END
> <PUBCHEM_COMPOUND_CID>
127053042

> <PUBCHEM_COMPOUND_CANONICALIZED>
1

> <PUBCHEM_CACTVS_COMPLEXITY>
370

> <PUBCHEM_CACTVS_HBOND_ACCEPTOR>
4

> <PUBCHEM_CACTVS_HBOND_DONOR>
1

> <PUBCHEM_CACTVS_ROTATABLE_BOND>
5

> <PUBCHEM_CACTVS_SUBSKEYS>
AAADceB6IQBEAAAAAAAAAAAAAAAAAAAAAAA8YIAAAAAAAACxQAAAHQQAAAAADADFWAywAYMAAAqAAiBCAEDCAAAgCBAIiBgIBIgIICKgkRGEIAhggACoiAcQgIAOgAAAAAAQAAAAAAAAACAAAAAAAAAAAA==

> <PUBCHEM_IUPAC_OPENEYE_NAME>
2-[3-(4-fluorophenyl)sulfinylpropyl]-3,4-dihydro-1H-isoquinoline;hydrochloride

> <PUBCHEM_IUPAC_CAS_NAME>
2-[3-(4-fluorophenyl)sulfinylpropyl]-3,4-dihydro-1H-isoquinoline;hydrochloride

> <PUBCHEM_IUPAC_NAME_MARKUP>
2-[3-(4-fluorophenyl)sulfinylpropyl]-3,4-dihydro-1<I>H</I>-isoquinoline;hydrochloride

> <PUBCHEM_IUPAC_NAME>
2-[3-(4-fluorophenyl)sulfinylpropyl]-3,4-dihydro-1H-isoquinoline;hydrochloride

> <PUBCHEM_IUPAC_SYSTEMATIC_NAME>
2-[3-(4-fluorophenyl)sulfinylpropyl]-3,4-dihydro-1H-isoquinoline;hydrochloride

> <PUBCHEM_IUPAC_TRADITIONAL_NAME>
2-[3-(4-fluorophenyl)sulfinylpropyl]-3,4-dihydro-1H-isoquinoline;hydrochloride

> <PUBCHEM_IUPAC_INCHI>
InChI=1S/C18H20FNOS.ClH/c19-17-6-8-18(9-7-17)22(21)13-3-11-20-12-10-15-4-1-2-5-16(15)14-20;/h1-2,4-9H,3,10-14H2;1H

> <PUBCHEM_IUPAC_INCHIKEY>
SRFCBJJAFYPLSS-UHFFFAOYSA-N

> <PUBCHEM_EXACT_MASS>
353.1016413

> <PUBCHEM_MOLECULAR_FORMULA>
C18H21ClFNOS

> <PUBCHEM_MOLECULAR_WEIGHT>
353.9

> <PUBCHEM_OPENEYE_CAN_SMILES>
C1CN(CC2=CC=CC=C21)CCCS(=O)C3=CC=C(C=C3)F.Cl

> <PUBCHEM_OPENEYE_ISO_SMILES>
C1CN(CC2=CC=CC=C21)CCCS(=O)C3=CC=C(C=C3)F.Cl

> <PUBCHEM_CACTVS_TPSA>
39.5

> <PUBCHEM_MONOISOTOPIC_WEIGHT>
353.1016413

> <PUBCHEM_TOTAL_CHARGE>
0

> <PUBCHEM_HEAVY_ATOM_COUNT>
23

> <PUBCHEM_ATOM_DEF_STEREO_COUNT>
0

> <PUBCHEM_ATOM_UDEF_STEREO_COUNT>
1

> <PUBCHEM_BOND_DEF_STEREO_COUNT>
0

> <PUBCHEM_BOND_UDEF_STEREO_COUNT>
0

> <PUBCHEM_ISOTOPIC_ATOM_COUNT>
0

> <PUBCHEM_COMPONENT_COUNT>
2

> <PUBCHEM_CACTVS_TAUTO_COUNT>
-1

> <PUBCHEM_COORDINATE_TYPE>
1
5
255

> <PUBCHEM_BONDANNOTATIONS>
10  11  8
10  14  8
11  15  8
14  16  8
15  17  8
16  17  8
18  19  8
18  20  8
19  21  8
2  13  3
20  22  8
21  23  8
22  23  8

$$$$
