11849776
  -OEChem-09292322022D

 49 51  0     0  0  0  0  0  0999 V2000
    2.8660    4.2500    0.0000 O   0  0  0  0  0  0  0  0  0  0  0  0
    2.8660    0.2500    0.0000 N   0  0  0  0  0  0  0  0  0  0  0  0
    2.8660   -1.7500    0.0000 N   0  0  0  0  0  0  0  0  0  0  0  0
    2.0000   -3.2500    0.0000 N   0  0  0  0  0  0  0  0  0  0  0  0
    2.8660    3.2500    0.0000 N   0  0  0  0  0  0  0  0  0  0  0  0
    8.0622    2.2500    0.0000 N   0  0  0  0  0  0  0  0  0  0  0  0
    3.7320   -0.2500    0.0000 C   0  0  0  0  0  0  0  0  0  0  0  0
    2.0000   -0.2500    0.0000 C   0  0  0  0  0  0  0  0  0  0  0  0
    3.7320   -1.2500    0.0000 C   0  0  0  0  0  0  0  0  0  0  0  0
    2.0000   -1.2500    0.0000 C   0  0  0  0  0  0  0  0  0  0  0  0
    2.8660    1.2500    0.0000 C   0  0  0  0  0  0  0  0  0  0  0  0
    3.7320    1.7500    0.0000 C   0  0  0  0  0  0  0  0  0  0  0  0
    2.8660   -2.7500    0.0000 C   0  0  0  0  0  0  0  0  0  0  0  0
    3.7320    2.7500    0.0000 C   0  0  0  0  0  0  0  0  0  0  0  0
    3.7320   -3.2500    0.0000 C   0  0  0  0  0  0  0  0  0  0  0  0
    4.5981    3.2500    0.0000 C   0  0  0  0  0  0  0  0  0  0  0  0
    3.7320   -4.2500    0.0000 C   0  0  0  0  0  0  0  0  0  0  0  0
    2.0000   -4.2500    0.0000 C   0  0  0  0  0  0  0  0  0  0  0  0
    5.4641    2.7500    0.0000 C   0  0  0  0  0  0  0  0  0  0  0  0
    2.8660   -4.7500    0.0000 C   0  0  0  0  0  0  0  0  0  0  0  0
    4.5981    4.2500    0.0000 C   0  0  0  0  0  0  0  0  0  0  0  0
    6.3301    3.2500    0.0000 C   0  0  0  0  0  0  0  0  0  0  0  0
    5.4641    4.7500    0.0000 C   0  0  0  0  0  0  0  0  0  0  0  0
    6.3301    4.2500    0.0000 C   0  0  0  0  0  0  0  0  0  0  0  0
    2.0000    4.7500    0.0000 C   0  0  0  0  0  0  0  0  0  0  0  0
    7.1962    2.7500    0.0000 C   0  0  0  0  0  0  0  0  0  0  0  0
    4.3426   -0.3577    0.0000 H   0  0  0  0  0  0  0  0  0  0  0  0
    3.9441    0.3326    0.0000 H   0  0  0  0  0  0  0  0  0  0  0  0
    1.7880    0.3326    0.0000 H   0  0  0  0  0  0  0  0  0  0  0  0
    1.3894   -0.3577    0.0000 H   0  0  0  0  0  0  0  0  0  0  0  0
    3.9441   -1.8326    0.0000 H   0  0  0  0  0  0  0  0  0  0  0  0
    4.3426   -1.1423    0.0000 H   0  0  0  0  0  0  0  0  0  0  0  0
    1.3894   -1.1423    0.0000 H   0  0  0  0  0  0  0  0  0  0  0  0
    1.7880   -1.8326    0.0000 H   0  0  0  0  0  0  0  0  0  0  0  0
    2.6540    1.8326    0.0000 H   0  0  0  0  0  0  0  0  0  0  0  0
    2.2554    1.1423    0.0000 H   0  0  0  0  0  0  0  0  0  0  0  0
    3.9441    1.1674    0.0000 H   0  0  0  0  0  0  0  0  0  0  0  0
    4.3426    1.8577    0.0000 H   0  0  0  0  0  0  0  0  0  0  0  0
    4.2690   -2.9400    0.0000 H   0  0  0  0  0  0  0  0  0  0  0  0
    4.2690   -4.5600    0.0000 H   0  0  0  0  0  0  0  0  0  0  0  0
    1.4631   -4.5600    0.0000 H   0  0  0  0  0  0  0  0  0  0  0  0
    5.4641    2.1300    0.0000 H   0  0  0  0  0  0  0  0  0  0  0  0
    4.0611    4.5600    0.0000 H   0  0  0  0  0  0  0  0  0  0  0  0
    2.8660   -5.3700    0.0000 H   0  0  0  0  0  0  0  0  0  0  0  0
    5.4641    5.3700    0.0000 H   0  0  0  0  0  0  0  0  0  0  0  0
    6.8671    4.5600    0.0000 H   0  0  0  0  0  0  0  0  0  0  0  0
    2.3100    5.2869    0.0000 H   0  0  0  0  0  0  0  0  0  0  0  0
    1.4631    5.0600    0.0000 H   0  0  0  0  0  0  0  0  0  0  0  0
    1.6900    4.2131    0.0000 H   0  0  0  0  0  0  0  0  0  0  0  0
  1  5  1  0  0  0  0
  1 25  1  0  0  0  0
  2  7  1  0  0  0  0
  2  8  1  0  0  0  0
  2 11  1  0  0  0  0
  3  9  1  0  0  0  0
  3 10  1  0  0  0  0
  3 13  1  0  0  0  0
  4 13  1  0  0  0  0
  4 18  2  0  0  0  0
  5 14  2  0  0  0  0
  6 26  3  0  0  0  0
  7  9  1  0  0  0  0
  7 27  1  0  0  0  0
  7 28  1  0  0  0  0
  8 10  1  0  0  0  0
  8 29  1  0  0  0  0
  8 30  1  0  0  0  0
  9 31  1  0  0  0  0
  9 32  1  0  0  0  0
 10 33  1  0  0  0  0
 10 34  1  0  0  0  0
 11 12  1  0  0  0  0
 11 35  1  0  0  0  0
 11 36  1  0  0  0  0
 12 14  1  0  0  0  0
 12 37  1  0  0  0  0
 12 38  1  0  0  0  0
 13 15  2  0  0  0  0
 14 16  1  0  0  0  0
 15 17  1  0  0  0  0
 15 39  1  0  0  0  0
 16 19  1  0  0  0  0
 16 21  2  0  0  0  0
 17 20  2  0  0  0  0
 17 40  1  0  0  0  0
 18 20  1  0  0  0  0
 18 41  1  0  0  0  0
 19 22  2  0  0  0  0
 19 42  1  0  0  0  0
 20 44  1  0  0  0  0
 21 23  1  0  0  0  0
 21 43  1  0  0  0  0
 22 24  1  0  0  0  0
 22 26  1  0  0  0  0
 23 24  2  0  0  0  0
 23 45  1  0  0  0  0
 24 46  1  0  0  0  0
 25 47  1  0  0  0  0
 25 48  1  0  0  0  0
 25 49  1  0  0  0  0
M  END
> <PUBCHEM_COMPOUND_CID>
11849776

> <PUBCHEM_COMPOUND_CANONICALIZED>
1

> <PUBCHEM_CACTVS_COMPLEXITY>
506

> <PUBCHEM_CACTVS_HBOND_ACCEPTOR>
6

> <PUBCHEM_CACTVS_HBOND_DONOR>
0

> <PUBCHEM_CACTVS_ROTATABLE_BOND>
6

> <PUBCHEM_CACTVS_SUBSKEYS>
AAADceB7oAAAAAAAAAAAAAAAAAAAAAAAAAA8WIAAAAAAAAABwAAAHgAEAAAADAjBGgY/sJMYEACwBzJnZACigCkxAiAJ2CA4ZJiI4OLAmZGUIAhogALIyC8QgMAOAAACAAAAAAAAAAQAAAAAAAAAAAAAAA==

> <PUBCHEM_IUPAC_OPENEYE_NAME>
3-[(Z)-N-methoxy-C-[2-[4-(2-pyridyl)piperazin-1-yl]ethyl]carbonimidoyl]benzonitrile

> <PUBCHEM_IUPAC_CAS_NAME>
3-[(1Z)-1-methoxyimino-3-[4-(2-pyridinyl)-1-piperazinyl]propyl]benzonitrile

> <PUBCHEM_IUPAC_NAME_MARKUP>
3-[(<I>Z</I>)-<I>N</I>-methoxy-<I>C</I>-[2-(4-pyridin-2-ylpiperazin-1-yl)ethyl]carbonimidoyl]benzonitrile

> <PUBCHEM_IUPAC_NAME>
3-[(Z)-N-methoxy-C-[2-(4-pyridin-2-ylpiperazin-1-yl)ethyl]carbonimidoyl]benzonitrile

> <PUBCHEM_IUPAC_SYSTEMATIC_NAME>
3-[(Z)-N-methoxy-C-[2-(4-pyridin-2-ylpiperazin-1-yl)ethyl]carbonimidoyl]benzenecarbonitrile

> <PUBCHEM_IUPAC_TRADITIONAL_NAME>
3-[(Z)-N-methoxy-C-[2-[4-(2-pyridyl)piperazino]ethyl]carbonimidoyl]benzonitrile

> <PUBCHEM_IUPAC_INCHI>
InChI=1S/C20H23N5O/c1-26-23-19(18-6-4-5-17(15-18)16-21)8-10-24-11-13-25(14-12-24)20-7-2-3-9-22-20/h2-7,9,15H,8,10-14H2,1H3/b23-19-

> <PUBCHEM_IUPAC_INCHIKEY>
LUUFOYDIFHDVPM-NMWGTECJSA-N

> <PUBCHEM_XLOGP3_AA>
2.7

> <PUBCHEM_EXACT_MASS>
349.19026037

> <PUBCHEM_MOLECULAR_FORMULA>
C20H23N5O

> <PUBCHEM_MOLECULAR_WEIGHT>
349.4

> <PUBCHEM_OPENEYE_CAN_SMILES>
CON=C(CCN1CCN(CC1)C2=CC=CC=N2)C3=CC=CC(=C3)C#N

> <PUBCHEM_OPENEYE_ISO_SMILES>
CO/N=C(/CCN1CCN(CC1)C2=CC=CC=N2)\C3=CC=CC(=C3)C#N

> <PUBCHEM_CACTVS_TPSA>
64.8

> <PUBCHEM_MONOISOTOPIC_WEIGHT>
349.19026037

> <PUBCHEM_TOTAL_CHARGE>
0

> <PUBCHEM_HEAVY_ATOM_COUNT>
26

> <PUBCHEM_ATOM_DEF_STEREO_COUNT>
0

> <PUBCHEM_ATOM_UDEF_STEREO_COUNT>
0

> <PUBCHEM_BOND_DEF_STEREO_COUNT>
1

> <PUBCHEM_BOND_UDEF_STEREO_COUNT>
0

> <PUBCHEM_ISOTOPIC_ATOM_COUNT>
0

> <PUBCHEM_COMPONENT_COUNT>
1

> <PUBCHEM_CACTVS_TAUTO_COUNT>
-1

> <PUBCHEM_COORDINATE_TYPE>
1
5
255

> <PUBCHEM_BONDANNOTATIONS>
13  15  8
15  17  8
16  19  8
16  21  8
17  20  8
18  20  8
19  22  8
21  23  8
22  24  8
23  24  8
4  13  8
4  18  8

$$$$
