11794899
  -OEChem-09292321592D

 60 63  0     0  0  0  0  0  0999 V2000
   10.6718   -1.4404    0.0000 O   0  0  0  0  0  0  0  0  0  0  0  0
   15.9339   -1.4162    0.0000 O   0  0  0  0  0  0  0  0  0  0  0  0
    6.3397   -0.9571    0.0000 N   0  0  0  0  0  0  0  0  0  0  0  0
    4.6038    0.0362    0.0000 N   0  0  0  0  0  0  0  0  0  0  0  0
   14.2019   -1.4162    0.0000 N   0  0  0  0  0  0  0  0  0  0  0  0
    6.3359    0.0429    0.0000 C   0  0  0  0  0  0  0  0  0  0  0  0
    5.4756   -1.4604    0.0000 C   0  0  0  0  0  0  0  0  0  0  0  0
    5.4679    0.5396    0.0000 C   0  0  0  0  0  0  0  0  0  0  0  0
    4.6077   -0.9637    0.0000 C   0  0  0  0  0  0  0  0  0  0  0  0
    7.2077   -1.4537    0.0000 C   0  0  0  0  0  0  0  0  0  0  0  0
    8.0718   -0.9504    0.0000 C   0  0  0  0  0  0  0  0  0  0  0  0
    3.7359    0.5329    0.0000 C   0  0  0  0  0  0  0  0  0  0  0  0
    8.9397   -1.4470    0.0000 C   0  0  0  0  0  0  0  0  0  0  0  0
    3.7320    1.5329    0.0000 C   0  0  0  0  0  0  0  0  0  0  0  0
    9.8038   -0.9437    0.0000 C   0  0  0  0  0  0  0  0  0  0  0  0
    2.8718    0.0296    0.0000 C   0  0  0  0  0  0  0  0  0  0  0  0
    2.8641    2.0296    0.0000 C   0  0  0  0  0  0  0  0  0  0  0  0
    4.5961    2.0362    0.0000 C   0  0  0  0  0  0  0  0  0  0  0  0
    2.0038    0.5262    0.0000 C   0  0  0  0  0  0  0  0  0  0  0  0
   13.3359    0.0838    0.0000 C   0  0  0  0  0  0  0  0  0  0  0  0
   14.2019    0.5838    0.0000 C   0  0  0  0  0  0  0  0  0  0  0  0
    2.0000    1.5262    0.0000 C   0  0  0  0  0  0  0  0  0  0  0  0
   13.3359   -0.9162    0.0000 C   0  0  0  0  0  0  0  0  0  0  0  0
   11.5358   -0.9370    0.0000 C   0  0  0  0  0  0  0  0  0  0  0  0
   15.0679    0.0838    0.0000 C   0  0  0  0  0  0  0  0  0  0  0  0
   12.4419   -1.4509    0.0000 C   0  0  0  0  0  0  0  0  0  0  0  0
   12.4419    0.6184    0.0000 C   0  0  0  0  0  0  0  0  0  0  0  0
   11.5358    0.1046    0.0000 C   0  0  0  0  0  0  0  0  0  0  0  0
   15.0679   -0.9162    0.0000 C   0  0  0  0  0  0  0  0  0  0  0  0
    6.9469   -0.0624    0.0000 H   0  0  0  0  0  0  0  0  0  0  0  0
    6.5457    0.6263    0.0000 H   0  0  0  0  0  0  0  0  0  0  0  0
    5.0789   -1.9369    0.0000 H   0  0  0  0  0  0  0  0  0  0  0  0
    5.8760   -1.9338    0.0000 H   0  0  0  0  0  0  0  0  0  0  0  0
    5.8646    1.0161    0.0000 H   0  0  0  0  0  0  0  0  0  0  0  0
    5.0676    1.0130    0.0000 H   0  0  0  0  0  0  0  0  0  0  0  0
    3.9967   -0.8584    0.0000 H   0  0  0  0  0  0  0  0  0  0  0  0
    4.3979   -1.5472    0.0000 H   0  0  0  0  0  0  0  0  0  0  0  0
    6.8110   -1.9302    0.0000 H   0  0  0  0  0  0  0  0  0  0  0  0
    7.6080   -1.9271    0.0000 H   0  0  0  0  0  0  0  0  0  0  0  0
    8.4685   -0.4739    0.0000 H   0  0  0  0  0  0  0  0  0  0  0  0
    7.6714   -0.4770    0.0000 H   0  0  0  0  0  0  0  0  0  0  0  0
    8.5430   -1.9235    0.0000 H   0  0  0  0  0  0  0  0  0  0  0  0
    9.3401   -1.9205    0.0000 H   0  0  0  0  0  0  0  0  0  0  0  0
   10.2005   -0.4672    0.0000 H   0  0  0  0  0  0  0  0  0  0  0  0
    9.4034   -0.4703    0.0000 H   0  0  0  0  0  0  0  0  0  0  0  0
    2.8742   -0.5904    0.0000 H   0  0  0  0  0  0  0  0  0  0  0  0
    2.8617    2.6496    0.0000 H   0  0  0  0  0  0  0  0  0  0  0  0
    4.9082    1.5005    0.0000 H   0  0  0  0  0  0  0  0  0  0  0  0
    5.1319    2.3483    0.0000 H   0  0  0  0  0  0  0  0  0  0  0  0
    4.2841    2.5720    0.0000 H   0  0  0  0  0  0  0  0  0  0  0  0
    1.4681    0.2142    0.0000 H   0  0  0  0  0  0  0  0  0  0  0  0
   14.6004    1.0587    0.0000 H   0  0  0  0  0  0  0  0  0  0  0  0
   13.8034    1.0587    0.0000 H   0  0  0  0  0  0  0  0  0  0  0  0
    1.4619    1.8342    0.0000 H   0  0  0  0  0  0  0  0  0  0  0  0
   15.6785   -0.0239    0.0000 H   0  0  0  0  0  0  0  0  0  0  0  0
   15.2800    0.6664    0.0000 H   0  0  0  0  0  0  0  0  0  0  0  0
   12.4491   -2.0708    0.0000 H   0  0  0  0  0  0  0  0  0  0  0  0
   12.4491    1.2384    0.0000 H   0  0  0  0  0  0  0  0  0  0  0  0
   11.0001    0.4167    0.0000 H   0  0  0  0  0  0  0  0  0  0  0  0
   14.2019   -2.0362    0.0000 H   0  0  0  0  0  0  0  0  0  0  0  0
  1 15  1  0  0  0  0
  1 24  1  0  0  0  0
  2 29  2  0  0  0  0
  3  6  1  0  0  0  0
  3  7  1  0  0  0  0
  3 10  1  0  0  0  0
  4  8  1  0  0  0  0
  4  9  1  0  0  0  0
  4 12  1  0  0  0  0
  5 23  1  0  0  0  0
  5 29  1  0  0  0  0
  5 60  1  0  0  0  0
  6  8  1  0  0  0  0
  6 30  1  0  0  0  0
  6 31  1  0  0  0  0
  7  9  1  0  0  0  0
  7 32  1  0  0  0  0
  7 33  1  0  0  0  0
  8 34  1  0  0  0  0
  8 35  1  0  0  0  0
  9 36  1  0  0  0  0
  9 37  1  0  0  0  0
 10 11  1  0  0  0  0
 10 38  1  0  0  0  0
 10 39  1  0  0  0  0
 11 13  1  0  0  0  0
 11 40  1  0  0  0  0
 11 41  1  0  0  0  0
 12 14  1  0  0  0  0
 12 16  2  0  0  0  0
 13 15  1  0  0  0  0
 13 42  1  0  0  0  0
 13 43  1  0  0  0  0
 14 17  2  0  0  0  0
 14 18  1  0  0  0  0
 15 44  1  0  0  0  0
 15 45  1  0  0  0  0
 16 19  1  0  0  0  0
 16 46  1  0  0  0  0
 17 22  1  0  0  0  0
 17 47  1  0  0  0  0
 18 48  1  0  0  0  0
 18 49  1  0  0  0  0
 18 50  1  0  0  0  0
 19 22  2  0  0  0  0
 19 51  1  0  0  0  0
 20 21  1  0  0  0  0
 20 23  2  0  0  0  0
 20 27  1  0  0  0  0
 21 25  1  0  0  0  0
 21 52  1  0  0  0  0
 21 53  1  0  0  0  0
 22 54  1  0  0  0  0
 23 26  1  0  0  0  0
 24 26  2  0  0  0  0
 24 28  1  0  0  0  0
 25 29  1  0  0  0  0
 25 55  1  0  0  0  0
 25 56  1  0  0  0  0
 26 57  1  0  0  0  0
 27 28  2  0  0  0  0
 27 58  1  0  0  0  0
 28 59  1  0  0  0  0
M  END
> <PUBCHEM_COMPOUND_CID>
11794899

> <PUBCHEM_COMPOUND_CANONICALIZED>
1

> <PUBCHEM_CACTVS_COMPLEXITY>
520

> <PUBCHEM_CACTVS_HBOND_ACCEPTOR>
4

> <PUBCHEM_CACTVS_HBOND_DONOR>
1

> <PUBCHEM_CACTVS_ROTATABLE_BOND>
7

> <PUBCHEM_CACTVS_SUBSKEYS>
AAADceB7MAAAAAAAAAAAAAAAAAAAAAAAAAA8eIEAAAAAAACxQAAAHgAQAAAADAzhmAYyxoPABACIAiVSUACCCAAhIgAIiAEObIgMZjLEsZuWOCjm1BnI6Ae42aOeIAAAAgACAABAAAAEAAQAAAAAAAAAAA==

> <PUBCHEM_IUPAC_OPENEYE_NAME>
7-[4-[4-(o-tolyl)piperazin-1-yl]butoxy]-3,4-dihydro-1H-quinolin-2-one

> <PUBCHEM_IUPAC_CAS_NAME>
7-[4-[4-(2-methylphenyl)-1-piperazinyl]butoxy]-3,4-dihydro-1H-quinolin-2-one

> <PUBCHEM_IUPAC_NAME_MARKUP>
7-[4-[4-(2-methylphenyl)piperazin-1-yl]butoxy]-3,4-dihydro-1<I>H</I>-quinolin-2-one

> <PUBCHEM_IUPAC_NAME>
7-[4-[4-(2-methylphenyl)piperazin-1-yl]butoxy]-3,4-dihydro-1H-quinolin-2-one

> <PUBCHEM_IUPAC_SYSTEMATIC_NAME>
7-[4-[4-(2-methylphenyl)piperazin-1-yl]butoxy]-3,4-dihydro-1H-quinolin-2-one

> <PUBCHEM_IUPAC_TRADITIONAL_NAME>
7-[4-[4-(o-tolyl)piperazino]butoxy]-3,4-dihydrocarbostyril

> <PUBCHEM_IUPAC_INCHI>
InChI=1S/C24H31N3O2/c1-19-6-2-3-7-23(19)27-15-13-26(14-16-27)12-4-5-17-29-21-10-8-20-9-11-24(28)25-22(20)18-21/h2-3,6-8,10,18H,4-5,9,11-17H2,1H3,(H,25,28)

> <PUBCHEM_IUPAC_INCHIKEY>
UYNUCJCNGKHTNG-UHFFFAOYSA-N

> <PUBCHEM_XLOGP3_AA>
3.7

> <PUBCHEM_EXACT_MASS>
393.24162724

> <PUBCHEM_MOLECULAR_FORMULA>
C24H31N3O2

> <PUBCHEM_MOLECULAR_WEIGHT>
393.5

> <PUBCHEM_OPENEYE_CAN_SMILES>
CC1=CC=CC=C1N2CCN(CC2)CCCCOC3=CC4=C(CCC(=O)N4)C=C3

> <PUBCHEM_OPENEYE_ISO_SMILES>
CC1=CC=CC=C1N2CCN(CC2)CCCCOC3=CC4=C(CCC(=O)N4)C=C3

> <PUBCHEM_CACTVS_TPSA>
44.8

> <PUBCHEM_MONOISOTOPIC_WEIGHT>
393.24162724

> <PUBCHEM_TOTAL_CHARGE>
0

> <PUBCHEM_HEAVY_ATOM_COUNT>
29

> <PUBCHEM_ATOM_DEF_STEREO_COUNT>
0

> <PUBCHEM_ATOM_UDEF_STEREO_COUNT>
0

> <PUBCHEM_BOND_DEF_STEREO_COUNT>
0

> <PUBCHEM_BOND_UDEF_STEREO_COUNT>
0

> <PUBCHEM_ISOTOPIC_ATOM_COUNT>
0

> <PUBCHEM_COMPONENT_COUNT>
1

> <PUBCHEM_CACTVS_TAUTO_COUNT>
-1

> <PUBCHEM_COORDINATE_TYPE>
1
5
255

> <PUBCHEM_BONDANNOTATIONS>
12  14  8
12  16  8
14  17  8
16  19  8
17  22  8
19  22  8
20  23  8
20  27  8
23  26  8
24  26  8
24  28  8
27  28  8

$$$$
