44374188
  -OEChem-09292322152D

 59 63  0     1  0  0  0  0  0999 V2000
    6.7619   -1.7850    0.0000 O   0  0  0  0  0  0  0  0  0  0  0  0
   12.2619    0.8131    0.0000 N   0  0  3  0  0  0  0  0  0  0  0  0
    6.7619   -0.0530    0.0000 N   0  0  0  0  0  0  0  0  0  0  0  0
    4.6783   -1.7237    0.0000 N   0  0  0  0  0  0  0  0  0  0  0  0
   17.2558    2.3130    0.0000 N   0  0  0  0  0  0  0  0  0  0  0  0
    9.7619   -0.0530    0.0000 C   0  0  0  0  0  0  0  0  0  0  0  0
    9.2619   -0.9190    0.0000 C   0  0  0  0  0  0  0  0  0  0  0  0
    9.2619    0.8131    0.0000 C   0  0  0  0  0  0  0  0  0  0  0  0
    7.7619   -0.0530    0.0000 C   0  0  0  0  0  0  0  0  0  0  0  0
    8.2619   -0.9190    0.0000 C   0  0  0  0  0  0  0  0  0  0  0  0
    8.2619    0.8131    0.0000 C   0  0  0  0  0  0  0  0  0  0  0  0
   10.7619   -0.0530    0.0000 C   0  0  0  0  0  0  0  0  0  0  0  0
   11.2619    0.8131    0.0000 C   0  0  0  0  0  0  0  0  0  0  0  0
   12.8455    1.6178    0.0000 C   0  0  0  0  0  0  0  0  0  0  0  0
   12.8455    0.0083    0.0000 C   0  0  0  0  0  0  0  0  0  0  0  0
   13.7917    1.3130    0.0000 C   0  0  0  0  0  0  0  0  0  0  0  0
   13.7917    0.3131    0.0000 C   0  0  0  0  0  0  0  0  0  0  0  0
    6.2619   -0.9190    0.0000 C   0  0  0  0  0  0  0  0  0  0  0  0
   14.6577    1.8130    0.0000 C   0  0  0  0  0  0  0  0  0  0  0  0
   14.6577   -0.1869    0.0000 C   0  0  0  0  0  0  0  0  0  0  0  0
    5.2619   -0.9190    0.0000 C   0  0  0  0  0  0  0  0  0  0  0  0
   15.5238    1.3130    0.0000 C   0  0  0  0  0  0  0  0  0  0  0  0
   15.5238    0.3131    0.0000 C   0  0  0  0  0  0  0  0  0  0  0  0
    4.6783   -0.1143    0.0000 C   0  0  0  0  0  0  0  0  0  0  0  0
    3.7320   -1.4190    0.0000 C   0  0  0  0  0  0  0  0  0  0  0  0
    3.7320   -0.4190    0.0000 C   0  0  0  0  0  0  0  0  0  0  0  0
   16.3898    1.8130    0.0000 C   0  0  0  0  0  0  0  0  0  0  0  0
    2.8660   -1.9190    0.0000 C   0  0  0  0  0  0  0  0  0  0  0  0
    2.8660    0.0810    0.0000 C   0  0  0  0  0  0  0  0  0  0  0  0
    2.0000   -1.4190    0.0000 C   0  0  0  0  0  0  0  0  0  0  0  0
    2.0000   -0.4190    0.0000 C   0  0  0  0  0  0  0  0  0  0  0  0
   10.0719   -0.5899    0.0000 H   0  0  0  0  0  0  0  0  0  0  0  0
    9.1542   -1.5296    0.0000 H   0  0  0  0  0  0  0  0  0  0  0  0
    9.8445   -1.1311    0.0000 H   0  0  0  0  0  0  0  0  0  0  0  0
    9.8445    1.0251    0.0000 H   0  0  0  0  0  0  0  0  0  0  0  0
    9.1542    1.4236    0.0000 H   0  0  0  0  0  0  0  0  0  0  0  0
    7.4519   -0.5899    0.0000 H   0  0  0  0  0  0  0  0  0  0  0  0
    7.6793   -1.1311    0.0000 H   0  0  0  0  0  0  0  0  0  0  0  0
    8.3695   -1.5296    0.0000 H   0  0  0  0  0  0  0  0  0  0  0  0
    8.3695    1.4236    0.0000 H   0  0  0  0  0  0  0  0  0  0  0  0
    7.6793    1.0251    0.0000 H   0  0  0  0  0  0  0  0  0  0  0  0
   10.6542   -0.6636    0.0000 H   0  0  0  0  0  0  0  0  0  0  0  0
   11.3445   -0.2650    0.0000 H   0  0  0  0  0  0  0  0  0  0  0  0
   11.3695    1.4236    0.0000 H   0  0  0  0  0  0  0  0  0  0  0  0
   10.6793    1.0251    0.0000 H   0  0  0  0  0  0  0  0  0  0  0  0
    6.4519    0.4840    0.0000 H   0  0  0  0  0  0  0  0  0  0  0  0
   13.0965    2.1847    0.0000 H   0  0  0  0  0  0  0  0  0  0  0  0
   12.3081    1.9270    0.0000 H   0  0  0  0  0  0  0  0  0  0  0  0
   12.3081   -0.3009    0.0000 H   0  0  0  0  0  0  0  0  0  0  0  0
   13.0965   -0.5586    0.0000 H   0  0  0  0  0  0  0  0  0  0  0  0
   14.6577    2.4330    0.0000 H   0  0  0  0  0  0  0  0  0  0  0  0
   14.6577   -0.8069    0.0000 H   0  0  0  0  0  0  0  0  0  0  0  0
   16.0607    0.0031    0.0000 H   0  0  0  0  0  0  0  0  0  0  0  0
    4.8709   -2.3130    0.0000 H   0  0  0  0  0  0  0  0  0  0  0  0
    4.8709    0.4751    0.0000 H   0  0  0  0  0  0  0  0  0  0  0  0
    2.8660   -2.5390    0.0000 H   0  0  0  0  0  0  0  0  0  0  0  0
    2.8660    0.7010    0.0000 H   0  0  0  0  0  0  0  0  0  0  0  0
    1.4631   -1.7290    0.0000 H   0  0  0  0  0  0  0  0  0  0  0  0
    1.4631   -0.1090    0.0000 H   0  0  0  0  0  0  0  0  0  0  0  0
  1 18  2  0  0  0  0
  2 13  1  0  0  0  0
  2 14  1  0  0  0  0
  2 15  1  0  0  0  0
  3  9  1  0  0  0  0
  3 18  1  0  0  0  0
  3 46  1  0  0  0  0
  4 21  1  0  0  0  0
  4 25  1  0  0  0  0
  4 54  1  0  0  0  0
  5 27  3  0  0  0  0
  6  7  1  0  0  0  0
  6  8  1  0  0  0  0
  6 12  1  0  0  0  0
  6 32  1  0  0  0  0
  7 10  1  0  0  0  0
  7 33  1  0  0  0  0
  7 34  1  0  0  0  0
  8 11  1  0  0  0  0
  8 35  1  0  0  0  0
  8 36  1  0  0  0  0
  9 10  1  0  0  0  0
  9 11  1  0  0  0  0
  9 37  1  0  0  0  0
 10 38  1  0  0  0  0
 10 39  1  0  0  0  0
 11 40  1  0  0  0  0
 11 41  1  0  0  0  0
 12 13  1  0  0  0  0
 12 42  1  0  0  0  0
 12 43  1  0  0  0  0
 13 44  1  0  0  0  0
 13 45  1  0  0  0  0
 14 16  1  0  0  0  0
 14 47  1  0  0  0  0
 14 48  1  0  0  0  0
 15 17  1  0  0  0  0
 15 49  1  0  0  0  0
 15 50  1  0  0  0  0
 16 17  2  0  0  0  0
 16 19  1  0  0  0  0
 17 20  1  0  0  0  0
 18 21  1  0  0  0  0
 19 22  2  0  0  0  0
 19 51  1  0  0  0  0
 20 23  2  0  0  0  0
 20 52  1  0  0  0  0
 21 24  2  0  0  0  0
 22 23  1  0  0  0  0
 22 27  1  0  0  0  0
 23 53  1  0  0  0  0
 24 26  1  0  0  0  0
 24 55  1  0  0  0  0
 25 26  1  0  0  0  0
 25 28  2  0  0  0  0
 26 29  2  0  0  0  0
 28 30  1  0  0  0  0
 28 56  1  0  0  0  0
 29 31  1  0  0  0  0
 29 57  1  0  0  0  0
 30 31  2  0  0  0  0
 30 58  1  0  0  0  0
 31 59  1  0  0  0  0
M  END
> <PUBCHEM_COMPOUND_CID>
44374188

> <PUBCHEM_COMPOUND_CANONICALIZED>
1

> <PUBCHEM_CACTVS_COMPLEXITY>
678

> <PUBCHEM_CACTVS_HBOND_ACCEPTOR>
3

> <PUBCHEM_CACTVS_HBOND_DONOR>
2

> <PUBCHEM_CACTVS_ROTATABLE_BOND>
5

> <PUBCHEM_CACTVS_SUBSKEYS>
AAADceB7oAAAAAAAAAAAAAAAAAAAAWLAAAAwYMAAAAAAAFgB9AAAHgAQAAAADSjBngQwwPPJkAC4ByVyVACigCAnAiAImaG4ZNgI4PLAlbGUIQhglgDIyY8YicCewAACAAASAACQAAQAACQAAAAAAAAAAA==

> <PUBCHEM_IUPAC_OPENEYE_NAME>
N-[4-[2-(5-cyanoisoindolin-2-yl)ethyl]cyclohexyl]-1H-indole-2-carboxamide

> <PUBCHEM_IUPAC_CAS_NAME>
N-[4-[2-(5-cyano-1,3-dihydroisoindol-2-yl)ethyl]cyclohexyl]-1H-indole-2-carboxamide

> <PUBCHEM_IUPAC_NAME_MARKUP>
<I>N</I>-[4-[2-(5-cyano-1,3-dihydroisoindol-2-yl)ethyl]cyclohexyl]-1<I>H</I>-indole-2-carboxamide

> <PUBCHEM_IUPAC_NAME>
N-[4-[2-(5-cyano-1,3-dihydroisoindol-2-yl)ethyl]cyclohexyl]-1H-indole-2-carboxamide

> <PUBCHEM_IUPAC_SYSTEMATIC_NAME>
N-[4-[2-(5-cyano-1,3-dihydroisoindol-2-yl)ethyl]cyclohexyl]-1H-indole-2-carboxamide

> <PUBCHEM_IUPAC_TRADITIONAL_NAME>
N-[4-[2-(5-cyanoisoindolin-2-yl)ethyl]cyclohexyl]-1H-indole-2-carboxamide

> <PUBCHEM_IUPAC_INCHI>
InChI=1S/C26H28N4O/c27-15-19-5-8-21-16-30(17-22(21)13-19)12-11-18-6-9-23(10-7-18)28-26(31)25-14-20-3-1-2-4-24(20)29-25/h1-5,8,13-14,18,23,29H,6-7,9-12,16-17H2,(H,28,31)

> <PUBCHEM_IUPAC_INCHIKEY>
QCUYPKBVNBHYOZ-UHFFFAOYSA-N

> <PUBCHEM_XLOGP3_AA>
4.4

> <PUBCHEM_EXACT_MASS>
412.22631153

> <PUBCHEM_MOLECULAR_FORMULA>
C26H28N4O

> <PUBCHEM_MOLECULAR_WEIGHT>
412.5

> <PUBCHEM_OPENEYE_CAN_SMILES>
C1CC(CCC1CCN2CC3=C(C2)C=C(C=C3)C#N)NC(=O)C4=CC5=CC=CC=C5N4

> <PUBCHEM_OPENEYE_ISO_SMILES>
C1CC(CCC1CCN2CC3=C(C2)C=C(C=C3)C#N)NC(=O)C4=CC5=CC=CC=C5N4

> <PUBCHEM_CACTVS_TPSA>
71.9

> <PUBCHEM_MONOISOTOPIC_WEIGHT>
412.22631153

> <PUBCHEM_TOTAL_CHARGE>
0

> <PUBCHEM_HEAVY_ATOM_COUNT>
31

> <PUBCHEM_ATOM_DEF_STEREO_COUNT>
0

> <PUBCHEM_ATOM_UDEF_STEREO_COUNT>
0

> <PUBCHEM_BOND_DEF_STEREO_COUNT>
0

> <PUBCHEM_BOND_UDEF_STEREO_COUNT>
0

> <PUBCHEM_ISOTOPIC_ATOM_COUNT>
0

> <PUBCHEM_COMPONENT_COUNT>
1

> <PUBCHEM_CACTVS_TAUTO_COUNT>
-1

> <PUBCHEM_COORDINATE_TYPE>
1
5
255

> <PUBCHEM_BONDANNOTATIONS>
16  17  8
16  19  8
17  20  8
19  22  8
20  23  8
21  24  8
22  23  8
24  26  8
25  26  8
25  28  8
26  29  8
28  30  8
29  31  8
30  31  8
4  21  8
4  25  8

$$$$
