24894071
  -OEChem-09292322072D

 39 42  0     0  0  0  0  0  0999 V2000
    7.8314    4.5293    0.0000 Cl  0  0  0  0  0  0  0  0  0  0  0  0
    4.3211   -0.6357    0.0000 O   0  0  0  0  0  0  0  0  0  0  0  0
    7.2101    2.6283    0.0000 O   0  0  0  0  0  0  0  0  0  0  0  0
    4.6783   -3.9400    0.0000 N   0  0  0  0  0  0  0  0  0  0  0  0
    5.9674   -1.1738    0.0000 N   0  0  0  0  0  0  0  0  0  0  0  0
    5.9209    1.4715    0.0000 N   0  0  0  0  0  0  0  0  0  0  0  0
    9.4778    3.9912    0.0000 N   0  0  0  0  0  0  0  0  0  0  0  0
    3.7320   -2.6353    0.0000 C   0  0  0  0  0  0  0  0  0  0  0  0
    3.7320   -3.6353    0.0000 C   0  0  0  0  0  0  0  0  0  0  0  0
    4.6783   -2.3305    0.0000 C   0  0  0  0  0  0  0  0  0  0  0  0
    5.2619   -3.1353    0.0000 C   0  0  0  0  0  0  0  0  0  0  0  0
    2.8660   -2.1353    0.0000 C   0  0  0  0  0  0  0  0  0  0  0  0
    2.8660   -4.1353    0.0000 C   0  0  0  0  0  0  0  0  0  0  0  0
    4.9889   -1.3800    0.0000 C   0  0  0  0  0  0  0  0  0  0  0  0
    2.0000   -2.6353    0.0000 C   0  0  0  0  0  0  0  0  0  0  0  0
    2.0000   -3.6353    0.0000 C   0  0  0  0  0  0  0  0  0  0  0  0
    6.2781   -0.2233    0.0000 C   0  0  0  0  0  0  0  0  0  0  0  0
    7.2566   -0.0171    0.0000 C   0  0  0  0  0  0  0  0  0  0  0  0
    5.6103    0.5210    0.0000 C   0  0  0  0  0  0  0  0  0  0  0  0
    7.5673    0.9335    0.0000 C   0  0  0  0  0  0  0  0  0  0  0  0
    6.8994    1.6778    0.0000 C   0  0  0  0  0  0  0  0  0  0  0  0
    8.1886    2.8345    0.0000 C   0  0  0  0  0  0  0  0  0  0  0  0
    8.8564    2.0902    0.0000 C   0  0  0  0  0  0  0  0  0  0  0  0
    8.4993    3.7850    0.0000 C   0  0  0  0  0  0  0  0  0  0  0  0
    9.8349    2.2964    0.0000 C   0  0  0  0  0  0  0  0  0  0  0  0
   10.1456    3.2469    0.0000 C   0  0  0  0  0  0  0  0  0  0  0  0
    5.8819   -3.1353    0.0000 H   0  0  0  0  0  0  0  0  0  0  0  0
    4.8709   -4.5293    0.0000 H   0  0  0  0  0  0  0  0  0  0  0  0
    2.8660   -1.5153    0.0000 H   0  0  0  0  0  0  0  0  0  0  0  0
    2.8660   -4.7553    0.0000 H   0  0  0  0  0  0  0  0  0  0  0  0
    1.4631   -2.3253    0.0000 H   0  0  0  0  0  0  0  0  0  0  0  0
    1.4631   -3.9453    0.0000 H   0  0  0  0  0  0  0  0  0  0  0  0
    6.3815   -1.6353    0.0000 H   0  0  0  0  0  0  0  0  0  0  0  0
    7.6707   -0.4785    0.0000 H   0  0  0  0  0  0  0  0  0  0  0  0
    5.0036    0.3932    0.0000 H   0  0  0  0  0  0  0  0  0  0  0  0
    8.1739    1.0613    0.0000 H   0  0  0  0  0  0  0  0  0  0  0  0
    8.6638    1.5009    0.0000 H   0  0  0  0  0  0  0  0  0  0  0  0
   10.2490    1.8350    0.0000 H   0  0  0  0  0  0  0  0  0  0  0  0
   10.7523    3.3748    0.0000 H   0  0  0  0  0  0  0  0  0  0  0  0
  1 24  1  0  0  0  0
  2 14  2  0  0  0  0
  3 21  1  0  0  0  0
  3 22  1  0  0  0  0
  4  9  1  0  0  0  0
  4 11  1  0  0  0  0
  4 28  1  0  0  0  0
  5 14  1  0  0  0  0
  5 17  1  0  0  0  0
  5 33  1  0  0  0  0
  6 19  1  0  0  0  0
  6 21  2  0  0  0  0
  7 24  1  0  0  0  0
  7 26  2  0  0  0  0
  8  9  1  0  0  0  0
  8 10  1  0  0  0  0
  8 12  2  0  0  0  0
  9 13  2  0  0  0  0
 10 11  2  0  0  0  0
 10 14  1  0  0  0  0
 11 27  1  0  0  0  0
 12 15  1  0  0  0  0
 12 29  1  0  0  0  0
 13 16  1  0  0  0  0
 13 30  1  0  0  0  0
 15 16  2  0  0  0  0
 15 31  1  0  0  0  0
 16 32  1  0  0  0  0
 17 18  1  0  0  0  0
 17 19  2  0  0  0  0
 18 20  2  0  0  0  0
 18 34  1  0  0  0  0
 19 35  1  0  0  0  0
 20 21  1  0  0  0  0
 20 36  1  0  0  0  0
 22 23  1  0  0  0  0
 22 24  2  0  0  0  0
 23 25  2  0  0  0  0
 23 37  1  0  0  0  0
 25 26  1  0  0  0  0
 25 38  1  0  0  0  0
 26 39  1  0  0  0  0
M  END
> <PUBCHEM_COMPOUND_CID>
24894071

> <PUBCHEM_COMPOUND_CANONICALIZED>
1

> <PUBCHEM_CACTVS_COMPLEXITY>
494

> <PUBCHEM_CACTVS_HBOND_ACCEPTOR>
4

> <PUBCHEM_CACTVS_HBOND_DONOR>
2

> <PUBCHEM_CACTVS_ROTATABLE_BOND>
4

> <PUBCHEM_CACTVS_SUBSKEYS>
AAADccB7sAAEAAAAAAAAAAAAAAAAAWAAAAA8WIAAAAAAAFgB/gAAHgIQAAAADA7BniQ8xvLJlACoAzV3VASCiCA1dmAI2aE/f9gOZvvF95ufOajk1BHY6ce8mMCOgAAAAAACAAAAAAAAAAQAAAAAAAAAAA==

> <PUBCHEM_IUPAC_OPENEYE_NAME>
N-[6-[(2-chloro-3-pyridyl)oxy]-3-pyridyl]-1H-indole-3-carboxamide

> <PUBCHEM_IUPAC_CAS_NAME>
N-[6-[(2-chloro-3-pyridinyl)oxy]-3-pyridinyl]-1H-indole-3-carboxamide

> <PUBCHEM_IUPAC_NAME_MARKUP>
<I>N</I>-[6-(2-chloropyridin-3-yl)oxypyridin-3-yl]-1<I>H</I>-indole-3-carboxamide

> <PUBCHEM_IUPAC_NAME>
N-[6-(2-chloropyridin-3-yl)oxypyridin-3-yl]-1H-indole-3-carboxamide

> <PUBCHEM_IUPAC_SYSTEMATIC_NAME>
N-[6-(2-chloranylpyridin-3-yl)oxypyridin-3-yl]-1H-indole-3-carboxamide

> <PUBCHEM_IUPAC_TRADITIONAL_NAME>
N-[6-[(2-chloro-3-pyridyl)oxy]-3-pyridyl]-1H-indole-3-carboxamide

> <PUBCHEM_IUPAC_INCHI>
InChI=1S/C19H13ClN4O2/c20-18-16(6-3-9-21-18)26-17-8-7-12(10-23-17)24-19(25)14-11-22-15-5-2-1-4-13(14)15/h1-11,22H,(H,24,25)

> <PUBCHEM_IUPAC_INCHIKEY>
SMRGPXRMTZVWME-UHFFFAOYSA-N

> <PUBCHEM_XLOGP3_AA>
3.6

> <PUBCHEM_EXACT_MASS>
364.0727034

> <PUBCHEM_MOLECULAR_FORMULA>
C19H13ClN4O2

> <PUBCHEM_MOLECULAR_WEIGHT>
364.8

> <PUBCHEM_OPENEYE_CAN_SMILES>
C1=CC=C2C(=C1)C(=CN2)C(=O)NC3=CN=C(C=C3)OC4=C(N=CC=C4)Cl

> <PUBCHEM_OPENEYE_ISO_SMILES>
C1=CC=C2C(=C1)C(=CN2)C(=O)NC3=CN=C(C=C3)OC4=C(N=CC=C4)Cl

> <PUBCHEM_CACTVS_TPSA>
79.9

> <PUBCHEM_MONOISOTOPIC_WEIGHT>
364.0727034

> <PUBCHEM_TOTAL_CHARGE>
0

> <PUBCHEM_HEAVY_ATOM_COUNT>
26

> <PUBCHEM_ATOM_DEF_STEREO_COUNT>
0

> <PUBCHEM_ATOM_UDEF_STEREO_COUNT>
0

> <PUBCHEM_BOND_DEF_STEREO_COUNT>
0

> <PUBCHEM_BOND_UDEF_STEREO_COUNT>
0

> <PUBCHEM_ISOTOPIC_ATOM_COUNT>
0

> <PUBCHEM_COMPONENT_COUNT>
1

> <PUBCHEM_CACTVS_TAUTO_COUNT>
-1

> <PUBCHEM_COORDINATE_TYPE>
1
5
255

> <PUBCHEM_BONDANNOTATIONS>
10  11  8
12  15  8
13  16  8
15  16  8
17  18  8
17  19  8
18  20  8
20  21  8
22  23  8
22  24  8
23  25  8
25  26  8
4  11  8
4  9  8
6  19  8
6  21  8
7  24  8
7  26  8
8  10  8
8  12  8
8  9  8
9  13  8

$$$$
