57402366
  -OEChem-09292322322D

151158  0     0  0  0  0  0  0999 V2000
    4.9355    4.1261    0.0000 O   0  0  0  0  0  0  0  0  0  0  0  0
   34.3688    3.0499    0.0000 O   0  0  0  0  0  0  0  0  0  0  0  0
    8.7565   -1.9895    0.0000 O   0  0  0  0  0  0  0  0  0  0  0  0
   27.2551   -1.9895    0.0000 O   0  0  0  0  0  0  0  0  0  0  0  0
   12.8096   -3.9890    0.0000 O   0  0  0  0  0  0  0  0  0  0  0  0
   23.2019   -3.9890    0.0000 O   0  0  0  0  0  0  0  0  0  0  0  0
   15.4077   -3.4890    0.0000 O   0  0  0  0  0  0  0  0  0  0  0  0
   20.6039   -3.4890    0.0000 O   0  0  0  0  0  0  0  0  0  0  0  0
   18.0058   -3.9890    0.0000 O   0  0  0  0  0  0  0  0  0  0  0  0
    4.2212    0.7364    0.0000 N   0  0  0  0  0  0  0  0  0  0  0  0
   31.7904    0.7364    0.0000 N   0  0  0  0  0  0  0  0  0  0  0  0
    3.5998    2.6375    0.0000 N   0  0  0  0  0  0  0  0  0  0  0  0
   32.4118    2.6375    0.0000 N   0  0  0  0  0  0  0  0  0  0  0  0
    7.1102   -2.5276    0.0000 N   0  0  0  0  0  0  0  0  0  0  0  0
   28.9014   -2.5276    0.0000 N   0  0  0  0  0  0  0  0  0  0  0  0
    9.3455   -4.9890    0.0000 N   0  0  0  0  0  0  0  0  0  0  0  0
   26.6660   -4.9890    0.0000 N   0  0  0  0  0  0  0  0  0  0  0  0
    8.3993   -5.2938    0.0000 N   0  0  0  0  0  0  0  0  0  0  0  0
   27.6123   -5.2938    0.0000 N   0  0  0  0  0  0  0  0  0  0  0  0
    4.8890    1.4807    0.0000 C   0  0  0  0  0  0  0  0  0  0  0  0
    3.2426    0.9427    0.0000 C   0  0  0  0  0  0  0  0  0  0  0  0
   32.7689    0.9427    0.0000 C   0  0  0  0  0  0  0  0  0  0  0  0
   31.1226    1.4807    0.0000 C   0  0  0  0  0  0  0  0  0  0  0  0
    4.5783    2.4313    0.0000 C   0  0  0  0  0  0  0  0  0  0  0  0
    2.9320    1.8932    0.0000 C   0  0  0  0  0  0  0  0  0  0  0  0
   33.0796    1.8932    0.0000 C   0  0  0  0  0  0  0  0  0  0  0  0
   31.4333    2.4313    0.0000 C   0  0  0  0  0  0  0  0  0  0  0  0
    4.5318   -0.2141    0.0000 C   0  0  0  0  0  0  0  0  0  0  0  0
   31.4798   -0.2141    0.0000 C   0  0  0  0  0  0  0  0  0  0  0  0
    5.5103   -0.4203    0.0000 C   0  0  0  0  0  0  0  0  0  0  0  0
   30.5013   -0.4203    0.0000 C   0  0  0  0  0  0  0  0  0  0  0  0
    3.2892    3.5880    0.0000 C   0  0  0  0  0  0  0  0  0  0  0  0
   32.7224    3.5880    0.0000 C   0  0  0  0  0  0  0  0  0  0  0  0
    5.8210   -1.3708    0.0000 C   0  0  0  0  0  0  0  0  0  0  0  0
   30.1906   -1.3708    0.0000 C   0  0  0  0  0  0  0  0  0  0  0  0
    6.7995   -1.5770    0.0000 C   0  0  0  0  0  0  0  0  0  0  0  0
   29.2121   -1.5770    0.0000 C   0  0  0  0  0  0  0  0  0  0  0  0
    3.9570    4.3323    0.0000 C   0  0  0  0  0  0  0  0  0  0  0  0
   33.7009    3.7942    0.0000 C   0  0  0  0  0  0  0  0  0  0  0  0
    2.3107    3.7942    0.0000 C   0  0  0  0  0  0  0  0  0  0  0  0
   32.0546    4.3323    0.0000 C   0  0  0  0  0  0  0  0  0  0  0  0
    3.6464    5.2828    0.0000 C   0  0  0  0  0  0  0  0  0  0  0  0
   34.0116    4.7447    0.0000 C   0  0  0  0  0  0  0  0  0  0  0  0
    2.0000    4.7447    0.0000 C   0  0  0  0  0  0  0  0  0  0  0  0
   32.3652    5.2828    0.0000 C   0  0  0  0  0  0  0  0  0  0  0  0
    2.6678    5.4890    0.0000 C   0  0  0  0  0  0  0  0  0  0  0  0
   33.3438    5.4890    0.0000 C   0  0  0  0  0  0  0  0  0  0  0  0
    8.0887   -2.7338    0.0000 C   0  0  0  0  0  0  0  0  0  0  0  0
   27.9229   -2.7338    0.0000 C   0  0  0  0  0  0  0  0  0  0  0  0
    5.6034    4.8704    0.0000 C   0  0  0  0  0  0  0  0  0  0  0  0
   35.3473    3.2561    0.0000 C   0  0  0  0  0  0  0  0  0  0  0  0
    8.3993   -3.6843    0.0000 C   0  0  0  0  0  0  0  0  0  0  0  0
   27.6123   -3.6843    0.0000 C   0  0  0  0  0  0  0  0  0  0  0  0
    9.3455   -3.9890    0.0000 C   0  0  0  0  0  0  0  0  0  0  0  0
   26.6660   -3.9890    0.0000 C   0  0  0  0  0  0  0  0  0  0  0  0
    7.8157   -4.4890    0.0000 C   0  0  0  0  0  0  0  0  0  0  0  0
   28.1959   -4.4890    0.0000 C   0  0  0  0  0  0  0  0  0  0  0  0
   10.2116   -3.4890    0.0000 C   0  0  0  0  0  0  0  0  0  0  0  0
   25.8000   -3.4890    0.0000 C   0  0  0  0  0  0  0  0  0  0  0  0
   11.0776   -3.9890    0.0000 C   0  0  0  0  0  0  0  0  0  0  0  0
   24.9340   -3.9890    0.0000 C   0  0  0  0  0  0  0  0  0  0  0  0
   10.2116   -5.4890    0.0000 C   0  0  0  0  0  0  0  0  0  0  0  0
   25.8000   -5.4890    0.0000 C   0  0  0  0  0  0  0  0  0  0  0  0
   11.0776   -4.9890    0.0000 C   0  0  0  0  0  0  0  0  0  0  0  0
   24.9340   -4.9890    0.0000 C   0  0  0  0  0  0  0  0  0  0  0  0
   11.9436   -3.4890    0.0000 C   0  0  0  0  0  0  0  0  0  0  0  0
   24.0680   -3.4890    0.0000 C   0  0  0  0  0  0  0  0  0  0  0  0
   13.6757   -3.4890    0.0000 C   0  0  0  0  0  0  0  0  0  0  0  0
   22.3359   -3.4890    0.0000 C   0  0  0  0  0  0  0  0  0  0  0  0
   14.5417   -3.9890    0.0000 C   0  0  0  0  0  0  0  0  0  0  0  0
   21.4699   -3.9890    0.0000 C   0  0  0  0  0  0  0  0  0  0  0  0
   16.2737   -3.9890    0.0000 C   0  0  0  0  0  0  0  0  0  0  0  0
   19.7378   -3.9890    0.0000 C   0  0  0  0  0  0  0  0  0  0  0  0
   17.1398   -3.4890    0.0000 C   0  0  0  0  0  0  0  0  0  0  0  0
   18.8718   -3.4890    0.0000 C   0  0  0  0  0  0  0  0  0  0  0  0
    5.2716    0.9928    0.0000 H   0  0  0  0  0  0  0  0  0  0  0  0
    5.4359    1.7728    0.0000 H   0  0  0  0  0  0  0  0  0  0  0  0
    2.6288    0.8553    0.0000 H   0  0  0  0  0  0  0  0  0  0  0  0
    3.2221    0.3230    0.0000 H   0  0  0  0  0  0  0  0  0  0  0  0
   32.7895    0.3230    0.0000 H   0  0  0  0  0  0  0  0  0  0  0  0
   33.3828    0.8553    0.0000 H   0  0  0  0  0  0  0  0  0  0  0  0
   30.5757    1.7728    0.0000 H   0  0  0  0  0  0  0  0  0  0  0  0
   30.7400    0.9928    0.0000 H   0  0  0  0  0  0  0  0  0  0  0  0
    5.1922    2.5186    0.0000 H   0  0  0  0  0  0  0  0  0  0  0  0
    4.5989    3.0509    0.0000 H   0  0  0  0  0  0  0  0  0  0  0  0
    2.5494    2.3811    0.0000 H   0  0  0  0  0  0  0  0  0  0  0  0
    2.3851    1.6012    0.0000 H   0  0  0  0  0  0  0  0  0  0  0  0
   33.6265    1.6012    0.0000 H   0  0  0  0  0  0  0  0  0  0  0  0
   33.4622    2.3811    0.0000 H   0  0  0  0  0  0  0  0  0  0  0  0
   31.4127    3.0509    0.0000 H   0  0  0  0  0  0  0  0  0  0  0  0
   30.8194    2.5186    0.0000 H   0  0  0  0  0  0  0  0  0  0  0  0
    3.9180   -0.3014    0.0000 H   0  0  0  0  0  0  0  0  0  0  0  0
    4.5113   -0.8337    0.0000 H   0  0  0  0  0  0  0  0  0  0  0  0
   31.5003   -0.8337    0.0000 H   0  0  0  0  0  0  0  0  0  0  0  0
   32.0936   -0.3014    0.0000 H   0  0  0  0  0  0  0  0  0  0  0  0
    6.1241   -0.3330    0.0000 H   0  0  0  0  0  0  0  0  0  0  0  0
    5.5309    0.1994    0.0000 H   0  0  0  0  0  0  0  0  0  0  0  0
   30.4807    0.1994    0.0000 H   0  0  0  0  0  0  0  0  0  0  0  0
   29.8875   -0.3330    0.0000 H   0  0  0  0  0  0  0  0  0  0  0  0
    5.2072   -1.4582    0.0000 H   0  0  0  0  0  0  0  0  0  0  0  0
    5.8004   -1.9905    0.0000 H   0  0  0  0  0  0  0  0  0  0  0  0
   30.2112   -1.9905    0.0000 H   0  0  0  0  0  0  0  0  0  0  0  0
   30.8044   -1.4582    0.0000 H   0  0  0  0  0  0  0  0  0  0  0  0
    7.4133   -1.4897    0.0000 H   0  0  0  0  0  0  0  0  0  0  0  0
    6.8201   -0.9574    0.0000 H   0  0  0  0  0  0  0  0  0  0  0  0
   29.1915   -0.9574    0.0000 H   0  0  0  0  0  0  0  0  0  0  0  0
   28.5983   -1.4897    0.0000 H   0  0  0  0  0  0  0  0  0  0  0  0
    1.8966    3.3328    0.0000 H   0  0  0  0  0  0  0  0  0  0  0  0
   31.4479    4.2044    0.0000 H   0  0  0  0  0  0  0  0  0  0  0  0
    4.0604    5.7443    0.0000 H   0  0  0  0  0  0  0  0  0  0  0  0
   34.6183    4.8726    0.0000 H   0  0  0  0  0  0  0  0  0  0  0  0
    1.3933    4.8726    0.0000 H   0  0  0  0  0  0  0  0  0  0  0  0
   31.9512    5.7443    0.0000 H   0  0  0  0  0  0  0  0  0  0  0  0
    6.6961   -2.9890    0.0000 H   0  0  0  0  0  0  0  0  0  0  0  0
   29.3155   -2.9890    0.0000 H   0  0  0  0  0  0  0  0  0  0  0  0
    2.4752    6.0784    0.0000 H   0  0  0  0  0  0  0  0  0  0  0  0
   33.5364    6.0784    0.0000 H   0  0  0  0  0  0  0  0  0  0  0  0
    6.0648    4.4563    0.0000 H   0  0  0  0  0  0  0  0  0  0  0  0
    6.0174    5.3318    0.0000 H   0  0  0  0  0  0  0  0  0  0  0  0
    5.1419    5.2844    0.0000 H   0  0  0  0  0  0  0  0  0  0  0  0
   35.4751    2.6495    0.0000 H   0  0  0  0  0  0  0  0  0  0  0  0
   35.9540    3.3840    0.0000 H   0  0  0  0  0  0  0  0  0  0  0  0
   35.2194    3.8628    0.0000 H   0  0  0  0  0  0  0  0  0  0  0  0
    7.1957   -4.4890    0.0000 H   0  0  0  0  0  0  0  0  0  0  0  0
   28.8159   -4.4890    0.0000 H   0  0  0  0  0  0  0  0  0  0  0  0
   10.2116   -2.8690    0.0000 H   0  0  0  0  0  0  0  0  0  0  0  0
   25.8000   -2.8690    0.0000 H   0  0  0  0  0  0  0  0  0  0  0  0
   10.2116   -6.1090    0.0000 H   0  0  0  0  0  0  0  0  0  0  0  0
   25.8000   -6.1090    0.0000 H   0  0  0  0  0  0  0  0  0  0  0  0
   11.6145   -5.2990    0.0000 H   0  0  0  0  0  0  0  0  0  0  0  0
   24.3971   -5.2990    0.0000 H   0  0  0  0  0  0  0  0  0  0  0  0
   12.3421   -3.0141    0.0000 H   0  0  0  0  0  0  0  0  0  0  0  0
   11.5451   -3.0141    0.0000 H   0  0  0  0  0  0  0  0  0  0  0  0
   24.4665   -3.0141    0.0000 H   0  0  0  0  0  0  0  0  0  0  0  0
   23.6694   -3.0141    0.0000 H   0  0  0  0  0  0  0  0  0  0  0  0
   14.0742   -3.0141    0.0000 H   0  0  0  0  0  0  0  0  0  0  0  0
   13.2771   -3.0141    0.0000 H   0  0  0  0  0  0  0  0  0  0  0  0
   22.7345   -3.0141    0.0000 H   0  0  0  0  0  0  0  0  0  0  0  0
   21.9374   -3.0141    0.0000 H   0  0  0  0  0  0  0  0  0  0  0  0
   14.1432   -4.4640    0.0000 H   0  0  0  0  0  0  0  0  0  0  0  0
   14.9402   -4.4640    0.0000 H   0  0  0  0  0  0  0  0  0  0  0  0
   21.0714   -4.4640    0.0000 H   0  0  0  0  0  0  0  0  0  0  0  0
   21.8684   -4.4640    0.0000 H   0  0  0  0  0  0  0  0  0  0  0  0
   15.8752   -4.4640    0.0000 H   0  0  0  0  0  0  0  0  0  0  0  0
   16.6723   -4.4640    0.0000 H   0  0  0  0  0  0  0  0  0  0  0  0
   19.3393   -4.4640    0.0000 H   0  0  0  0  0  0  0  0  0  0  0  0
   20.1364   -4.4640    0.0000 H   0  0  0  0  0  0  0  0  0  0  0  0
   17.5383   -3.0141    0.0000 H   0  0  0  0  0  0  0  0  0  0  0  0
   16.7412   -3.0141    0.0000 H   0  0  0  0  0  0  0  0  0  0  0  0
   19.2704   -3.0141    0.0000 H   0  0  0  0  0  0  0  0  0  0  0  0
   18.4733   -3.0141    0.0000 H   0  0  0  0  0  0  0  0  0  0  0  0
  1 38  1  0  0  0  0
  1 50  1  0  0  0  0
  2 39  1  0  0  0  0
  2 51  1  0  0  0  0
  3 48  2  0  0  0  0
  4 49  2  0  0  0  0
  5 66  1  0  0  0  0
  5 68  1  0  0  0  0
  6 67  1  0  0  0  0
  6 69  1  0  0  0  0
  7 70  1  0  0  0  0
  7 72  1  0  0  0  0
  8 71  1  0  0  0  0
  8 73  1  0  0  0  0
  9 74  1  0  0  0  0
  9 75  1  0  0  0  0
 10 20  1  0  0  0  0
 10 21  1  0  0  0  0
 10 28  1  0  0  0  0
 11 22  1  0  0  0  0
 11 23  1  0  0  0  0
 11 29  1  0  0  0  0
 12 24  1  0  0  0  0
 12 25  1  0  0  0  0
 12 32  1  0  0  0  0
 13 26  1  0  0  0  0
 13 27  1  0  0  0  0
 13 33  1  0  0  0  0
 14 36  1  0  0  0  0
 14 48  1  0  0  0  0
 14114  1  0  0  0  0
 15 37  1  0  0  0  0
 15 49  1  0  0  0  0
 15115  1  0  0  0  0
 16 18  1  0  0  0  0
 16 54  1  0  0  0  0
 16 62  1  0  0  0  0
 17 19  1  0  0  0  0
 17 55  1  0  0  0  0
 17 63  1  0  0  0  0
 18 56  2  0  0  0  0
 19 57  2  0  0  0  0
 20 24  1  0  0  0  0
 20 76  1  0  0  0  0
 20 77  1  0  0  0  0
 21 25  1  0  0  0  0
 21 78  1  0  0  0  0
 21 79  1  0  0  0  0
 22 26  1  0  0  0  0
 22 80  1  0  0  0  0
 22 81  1  0  0  0  0
 23 27  1  0  0  0  0
 23 82  1  0  0  0  0
 23 83  1  0  0  0  0
 24 84  1  0  0  0  0
 24 85  1  0  0  0  0
 25 86  1  0  0  0  0
 25 87  1  0  0  0  0
 26 88  1  0  0  0  0
 26 89  1  0  0  0  0
 27 90  1  0  0  0  0
 27 91  1  0  0  0  0
 28 30  1  0  0  0  0
 28 92  1  0  0  0  0
 28 93  1  0  0  0  0
 29 31  1  0  0  0  0
 29 94  1  0  0  0  0
 29 95  1  0  0  0  0
 30 34  1  0  0  0  0
 30 96  1  0  0  0  0
 30 97  1  0  0  0  0
 31 35  1  0  0  0  0
 31 98  1  0  0  0  0
 31 99  1  0  0  0  0
 32 38  1  0  0  0  0
 32 40  2  0  0  0  0
 33 39  1  0  0  0  0
 33 41  2  0  0  0  0
 34 36  1  0  0  0  0
 34100  1  0  0  0  0
 34101  1  0  0  0  0
 35 37  1  0  0  0  0
 35102  1  0  0  0  0
 35103  1  0  0  0  0
 36104  1  0  0  0  0
 36105  1  0  0  0  0
 37106  1  0  0  0  0
 37107  1  0  0  0  0
 38 42  2  0  0  0  0
 39 43  2  0  0  0  0
 40 44  1  0  0  0  0
 40108  1  0  0  0  0
 41 45  1  0  0  0  0
 41109  1  0  0  0  0
 42 46  1  0  0  0  0
 42110  1  0  0  0  0
 43 47  1  0  0  0  0
 43111  1  0  0  0  0
 44 46  2  0  0  0  0
 44112  1  0  0  0  0
 45 47  2  0  0  0  0
 45113  1  0  0  0  0
 46116  1  0  0  0  0
 47117  1  0  0  0  0
 48 52  1  0  0  0  0
 49 53  1  0  0  0  0
 50118  1  0  0  0  0
 50119  1  0  0  0  0
 50120  1  0  0  0  0
 51121  1  0  0  0  0
 51122  1  0  0  0  0
 51123  1  0  0  0  0
 52 54  2  0  0  0  0
 52 56  1  0  0  0  0
 53 55  2  0  0  0  0
 53 57  1  0  0  0  0
 54 58  1  0  0  0  0
 55 59  1  0  0  0  0
 56124  1  0  0  0  0
 57125  1  0  0  0  0
 58 60  2  0  0  0  0
 58126  1  0  0  0  0
 59 61  2  0  0  0  0
 59127  1  0  0  0  0
 60 64  1  0  0  0  0
 60 66  1  0  0  0  0
 61 65  1  0  0  0  0
 61 67  1  0  0  0  0
 62 64  2  0  0  0  0
 62128  1  0  0  0  0
 63 65  2  0  0  0  0
 63129  1  0  0  0  0
 64130  1  0  0  0  0
 65131  1  0  0  0  0
 66132  1  0  0  0  0
 66133  1  0  0  0  0
 67134  1  0  0  0  0
 67135  1  0  0  0  0
 68 70  1  0  0  0  0
 68136  1  0  0  0  0
 68137  1  0  0  0  0
 69 71  1  0  0  0  0
 69138  1  0  0  0  0
 69139  1  0  0  0  0
 70140  1  0  0  0  0
 70141  1  0  0  0  0
 71142  1  0  0  0  0
 71143  1  0  0  0  0
 72 74  1  0  0  0  0
 72144  1  0  0  0  0
 72145  1  0  0  0  0
 73 75  1  0  0  0  0
 73146  1  0  0  0  0
 73147  1  0  0  0  0
 74148  1  0  0  0  0
 74149  1  0  0  0  0
 75150  1  0  0  0  0
 75151  1  0  0  0  0
M  END
> <PUBCHEM_COMPOUND_CID>
57402366

> <PUBCHEM_COMPOUND_CANONICALIZED>
1

> <PUBCHEM_CACTVS_COMPLEXITY>
1490

> <PUBCHEM_CACTVS_HBOND_ACCEPTOR>
15

> <PUBCHEM_CACTVS_HBOND_DONOR>
2

> <PUBCHEM_CACTVS_ROTATABLE_BOND>
32

> <PUBCHEM_CACTVS_SUBSKEYS>
AAADcfB//AAAAAAAAAAAAAAAAAAAAWLAAAA8eLFiAAAAAFgB/gAAHgAYAAAADAzhngY+xrPIFACqAzV3VACSjCA1oiAY2KE/bNgPZvrE9duXtahk3hHa6ce4yFCOAAAAAAAAEAAAAAAAAAAgAAAAAAAAAA==

> <PUBCHEM_IUPAC_OPENEYE_NAME>
N-[4-[4-(2-methoxyphenyl)piperazin-1-yl]butyl]-5-[2-[2-[2-[2-[[3-[4-[4-(2-methoxyphenyl)piperazin-1-yl]butylcarbamoyl]pyrazolo[1,5-a]pyridin-5-yl]methoxy]ethoxy]ethoxy]ethoxy]ethoxymethyl]pyrazolo[1,5-a]pyridine-3-carboxamide

> <PUBCHEM_IUPAC_CAS_NAME>
N-[4-[4-(2-methoxyphenyl)-1-piperazinyl]butyl]-5-[2-[2-[2-[2-[[3-[[4-[4-(2-methoxyphenyl)-1-piperazinyl]butylamino]-oxomethyl]-5-pyrazolo[1,5-a]pyridinyl]methoxy]ethoxy]ethoxy]ethoxy]ethoxymethyl]-3-pyrazolo[1,5-a]pyridinecarboxamide

> <PUBCHEM_IUPAC_NAME_MARKUP>
<I>N</I>-[4-[4-(2-methoxyphenyl)piperazin-1-yl]butyl]-5-[2-[2-[2-[2-[[3-[4-[4-(2-methoxyphenyl)piperazin-1-yl]butylcarbamoyl]pyrazolo[1,5-a]pyridin-5-yl]methoxy]ethoxy]ethoxy]ethoxy]ethoxymethyl]pyrazolo[1,5-a]pyridine-3-carboxamide

> <PUBCHEM_IUPAC_NAME>
N-[4-[4-(2-methoxyphenyl)piperazin-1-yl]butyl]-5-[2-[2-[2-[2-[[3-[4-[4-(2-methoxyphenyl)piperazin-1-yl]butylcarbamoyl]pyrazolo[1,5-a]pyridin-5-yl]methoxy]ethoxy]ethoxy]ethoxy]ethoxymethyl]pyrazolo[1,5-a]pyridine-3-carboxamide

> <PUBCHEM_IUPAC_SYSTEMATIC_NAME>
N-[4-[4-(2-methoxyphenyl)piperazin-1-yl]butyl]-5-[2-[2-[2-[2-[[3-[4-[4-(2-methoxyphenyl)piperazin-1-yl]butylcarbamoyl]pyrazolo[1,5-a]pyridin-5-yl]methoxy]ethoxy]ethoxy]ethoxy]ethoxymethyl]pyrazolo[1,5-a]pyridine-3-carboxamide

> <PUBCHEM_IUPAC_TRADITIONAL_NAME>
N-[4-[4-(2-methoxyphenyl)piperazino]butyl]-5-[2-[2-[2-[2-[[3-[4-[4-(2-methoxyphenyl)piperazino]butylcarbamoyl]pyrazolo[1,5-a]pyridin-5-yl]methoxy]ethoxy]ethoxy]ethoxy]ethoxymethyl]pyrazolo[1,5-a]pyridine-3-carboxamide

> <PUBCHEM_IUPAC_INCHI>
InChI=1S/C56H76N10O9/c1-69-53-13-5-3-11-49(53)63-27-23-61(24-28-63)19-9-7-17-57-55(67)47-41-59-65-21-15-45(39-51(47)65)43-74-37-35-72-33-31-71-32-34-73-36-38-75-44-46-16-22-66-52(40-46)48(42-60-66)56(68)58-18-8-10-20-62-25-29-64(30-26-62)50-12-4-6-14-54(50)70-2/h3-6,11-16,21-22,39-42H,7-10,17-20,23-38,43-44H2,1-2H3,(H,57,67)(H,58,68)

> <PUBCHEM_IUPAC_INCHIKEY>
XPOABVKSLRGZDM-UHFFFAOYSA-N

> <PUBCHEM_XLOGP3_AA>
3.9

> <PUBCHEM_EXACT_MASS>
1032.57967404

> <PUBCHEM_MOLECULAR_FORMULA>
C56H76N10O9

> <PUBCHEM_MOLECULAR_WEIGHT>
1033.3

> <PUBCHEM_OPENEYE_CAN_SMILES>
COC1=CC=CC=C1N2CCN(CC2)CCCCNC(=O)C3=C4C=C(C=CN4N=C3)COCCOCCOCCOCCOCC5=CC6=C(C=NN6C=C5)C(=O)NCCCCN7CCN(CC7)C8=CC=CC=C8OC

> <PUBCHEM_OPENEYE_ISO_SMILES>
COC1=CC=CC=C1N2CCN(CC2)CCCCNC(=O)C3=C4C=C(C=CN4N=C3)COCCOCCOCCOCCOCC5=CC6=C(C=NN6C=C5)C(=O)NCCCCN7CCN(CC7)C8=CC=CC=C8OC

> <PUBCHEM_CACTVS_TPSA>
170

> <PUBCHEM_MONOISOTOPIC_WEIGHT>
1032.57967404

> <PUBCHEM_TOTAL_CHARGE>
0

> <PUBCHEM_HEAVY_ATOM_COUNT>
75

> <PUBCHEM_ATOM_DEF_STEREO_COUNT>
0

> <PUBCHEM_ATOM_UDEF_STEREO_COUNT>
0

> <PUBCHEM_BOND_DEF_STEREO_COUNT>
0

> <PUBCHEM_BOND_UDEF_STEREO_COUNT>
0

> <PUBCHEM_ISOTOPIC_ATOM_COUNT>
0

> <PUBCHEM_COMPONENT_COUNT>
1

> <PUBCHEM_CACTVS_TAUTO_COUNT>
-1

> <PUBCHEM_COORDINATE_TYPE>
1
5
255

> <PUBCHEM_BONDANNOTATIONS>
16  18  8
16  54  8
16  62  8
17  19  8
17  55  8
17  63  8
18  56  8
19  57  8
32  38  8
32  40  8
33  39  8
33  41  8
38  42  8
39  43  8
40  44  8
41  45  8
42  46  8
43  47  8
44  46  8
45  47  8
52  54  8
52  56  8
53  55  8
53  57  8
54  58  8
55  59  8
58  60  8
59  61  8
60  64  8
61  65  8
62  64  8
63  65  8

$$$$
