11754850
  -OEChem-09292322272D

 62 64  0     0  0  0  0  0  0999 V2000
    3.3660   -6.4330    0.0000 F   0  0  0  0  0  0  0  0  0  0  0  0
    2.0000   -6.0670    0.0000 F   0  0  0  0  0  0  0  0  0  0  0  0
    2.3660   -4.7010    0.0000 F   0  0  0  0  0  0  0  0  0  0  0  0
    8.0622    3.4330    0.0000 O   0  0  0  0  0  0  0  0  0  0  0  0
    6.3301    6.4330    0.0000 O   0  0  0  0  0  0  0  0  0  0  0  0
    4.5981   -0.5670    0.0000 N   0  0  0  0  0  0  0  0  0  0  0  0
    4.5981   -2.5670    0.0000 N   0  0  0  0  0  0  0  0  0  0  0  0
    5.4641   -4.0670    0.0000 N   0  0  0  0  0  0  0  0  0  0  0  0
    6.3301    3.4330    0.0000 N   0  0  0  0  0  0  0  0  0  0  0  0
    4.5981   -5.5670    0.0000 N   0  0  0  0  0  0  0  0  0  0  0  0
    7.1962    4.9330    0.0000 N   0  0  0  0  0  0  0  0  0  0  0  0
    3.7320    5.9330    0.0000 N   0  0  0  0  0  0  0  0  0  0  0  0
    5.4641   -1.0670    0.0000 C   0  0  0  0  0  0  0  0  0  0  0  0
    3.7320   -1.0670    0.0000 C   0  0  0  0  0  0  0  0  0  0  0  0
    5.4641   -2.0670    0.0000 C   0  0  0  0  0  0  0  0  0  0  0  0
    3.7320   -2.0670    0.0000 C   0  0  0  0  0  0  0  0  0  0  0  0
    4.5981    0.4330    0.0000 C   0  0  0  0  0  0  0  0  0  0  0  0
    5.4641    0.9330    0.0000 C   0  0  0  0  0  0  0  0  0  0  0  0
    4.5981   -3.5670    0.0000 C   0  0  0  0  0  0  0  0  0  0  0  0
    5.4641    1.9330    0.0000 C   0  0  0  0  0  0  0  0  0  0  0  0
    6.3301   -5.5670    0.0000 C   0  0  0  0  0  0  0  0  0  0  0  0
    6.3301    2.4330    0.0000 C   0  0  0  0  0  0  0  0  0  0  0  0
    5.4641   -5.0670    0.0000 C   0  0  0  0  0  0  0  0  0  0  0  0
    3.7320   -4.0670    0.0000 C   0  0  0  0  0  0  0  0  0  0  0  0
    3.7320   -5.0670    0.0000 C   0  0  0  0  0  0  0  0  0  0  0  0
    7.1962   -6.0670    0.0000 C   0  0  0  0  0  0  0  0  0  0  0  0
    5.8301   -6.4330    0.0000 C   0  0  0  0  0  0  0  0  0  0  0  0
    6.8301   -4.7010    0.0000 C   0  0  0  0  0  0  0  0  0  0  0  0
    2.8660   -5.5670    0.0000 C   0  0  0  0  0  0  0  0  0  0  0  0
    5.4641    3.9330    0.0000 C   0  0  0  0  0  0  0  0  0  0  0  0
    7.1962    3.9330    0.0000 C   0  0  0  0  0  0  0  0  0  0  0  0
    5.4641    4.9330    0.0000 C   0  0  0  0  0  0  0  0  0  0  0  0
    6.3301    5.4330    0.0000 C   0  0  0  0  0  0  0  0  0  0  0  0
    4.5981    5.4330    0.0000 C   0  0  0  0  0  0  0  0  0  0  0  0
    6.0747   -1.1746    0.0000 H   0  0  0  0  0  0  0  0  0  0  0  0
    5.6762   -0.4844    0.0000 H   0  0  0  0  0  0  0  0  0  0  0  0
    3.5200   -0.4844    0.0000 H   0  0  0  0  0  0  0  0  0  0  0  0
    3.1215   -1.1746    0.0000 H   0  0  0  0  0  0  0  0  0  0  0  0
    5.6762   -2.6496    0.0000 H   0  0  0  0  0  0  0  0  0  0  0  0
    6.0747   -1.9593    0.0000 H   0  0  0  0  0  0  0  0  0  0  0  0
    3.1215   -1.9593    0.0000 H   0  0  0  0  0  0  0  0  0  0  0  0
    3.5200   -2.6496    0.0000 H   0  0  0  0  0  0  0  0  0  0  0  0
    4.3860    1.0156    0.0000 H   0  0  0  0  0  0  0  0  0  0  0  0
    3.9875    0.3254    0.0000 H   0  0  0  0  0  0  0  0  0  0  0  0
    5.6762    0.3504    0.0000 H   0  0  0  0  0  0  0  0  0  0  0  0
    6.0747    1.0407    0.0000 H   0  0  0  0  0  0  0  0  0  0  0  0
    5.2520    2.5156    0.0000 H   0  0  0  0  0  0  0  0  0  0  0  0
    4.8535    1.8254    0.0000 H   0  0  0  0  0  0  0  0  0  0  0  0
    6.5422    1.8504    0.0000 H   0  0  0  0  0  0  0  0  0  0  0  0
    6.9407    2.5407    0.0000 H   0  0  0  0  0  0  0  0  0  0  0  0
    3.1951   -3.7570    0.0000 H   0  0  0  0  0  0  0  0  0  0  0  0
    6.8862   -6.6039    0.0000 H   0  0  0  0  0  0  0  0  0  0  0  0
    7.7331   -6.3770    0.0000 H   0  0  0  0  0  0  0  0  0  0  0  0
    7.5062   -5.5300    0.0000 H   0  0  0  0  0  0  0  0  0  0  0  0
    5.2932   -6.1230    0.0000 H   0  0  0  0  0  0  0  0  0  0  0  0
    5.5201   -6.9700    0.0000 H   0  0  0  0  0  0  0  0  0  0  0  0
    6.3671   -6.7430    0.0000 H   0  0  0  0  0  0  0  0  0  0  0  0
    7.3671   -5.0110    0.0000 H   0  0  0  0  0  0  0  0  0  0  0  0
    7.1401   -4.1640    0.0000 H   0  0  0  0  0  0  0  0  0  0  0  0
    6.2932   -4.3910    0.0000 H   0  0  0  0  0  0  0  0  0  0  0  0
    4.9272    3.6230    0.0000 H   0  0  0  0  0  0  0  0  0  0  0  0
    7.7331    5.2430    0.0000 H   0  0  0  0  0  0  0  0  0  0  0  0
  1 29  1  0  0  0  0
  2 29  1  0  0  0  0
  3 29  1  0  0  0  0
  4 31  2  0  0  0  0
  5 33  2  0  0  0  0
  6 13  1  0  0  0  0
  6 14  1  0  0  0  0
  6 17  1  0  0  0  0
  7 15  1  0  0  0  0
  7 16  1  0  0  0  0
  7 19  1  0  0  0  0
  8 19  2  0  0  0  0
  8 23  1  0  0  0  0
  9 22  1  0  0  0  0
  9 30  1  0  0  0  0
  9 31  1  0  0  0  0
 10 23  2  0  0  0  0
 10 25  1  0  0  0  0
 11 31  1  0  0  0  0
 11 33  1  0  0  0  0
 11 62  1  0  0  0  0
 12 34  3  0  0  0  0
 13 15  1  0  0  0  0
 13 35  1  0  0  0  0
 13 36  1  0  0  0  0
 14 16  1  0  0  0  0
 14 37  1  0  0  0  0
 14 38  1  0  0  0  0
 15 39  1  0  0  0  0
 15 40  1  0  0  0  0
 16 41  1  0  0  0  0
 16 42  1  0  0  0  0
 17 18  1  0  0  0  0
 17 43  1  0  0  0  0
 17 44  1  0  0  0  0
 18 20  1  0  0  0  0
 18 45  1  0  0  0  0
 18 46  1  0  0  0  0
 19 24  1  0  0  0  0
 20 22  1  0  0  0  0
 20 47  1  0  0  0  0
 20 48  1  0  0  0  0
 21 23  1  0  0  0  0
 21 26  1  0  0  0  0
 21 27  1  0  0  0  0
 21 28  1  0  0  0  0
 22 49  1  0  0  0  0
 22 50  1  0  0  0  0
 24 25  2  0  0  0  0
 24 51  1  0  0  0  0
 25 29  1  0  0  0  0
 26 52  1  0  0  0  0
 26 53  1  0  0  0  0
 26 54  1  0  0  0  0
 27 55  1  0  0  0  0
 27 56  1  0  0  0  0
 27 57  1  0  0  0  0
 28 58  1  0  0  0  0
 28 59  1  0  0  0  0
 28 60  1  0  0  0  0
 30 32  2  0  0  0  0
 30 61  1  0  0  0  0
 32 33  1  0  0  0  0
 32 34  1  0  0  0  0
M  END
> <PUBCHEM_COMPOUND_CID>
11754850

> <PUBCHEM_COMPOUND_CANONICALIZED>
1

> <PUBCHEM_CACTVS_COMPLEXITY>
838

> <PUBCHEM_CACTVS_HBOND_ACCEPTOR>
10

> <PUBCHEM_CACTVS_HBOND_DONOR>
1

> <PUBCHEM_CACTVS_ROTATABLE_BOND>
7

> <PUBCHEM_CACTVS_SUBSKEYS>
AAADceB7sYAAAAAAAAAAAAAAAAAAAAAAAAAsWIAAAAAAAAABgAAAHwAQAAAADgjBlxQzsJfIEAC4Byd2dACggCkhAqABGCE4ZFiA6ABAyMAUBAhIByLAQOAAAAAAAAAAAAAAAAAAAAAAAAAAAAAAAAAAAA==

> <PUBCHEM_IUPAC_OPENEYE_NAME>
1-[4-[4-[2-tert-butyl-6-(trifluoromethyl)pyrimidin-4-yl]piperazin-1-yl]butyl]-2,4-dioxo-pyrimidine-5-carbonitrile

> <PUBCHEM_IUPAC_CAS_NAME>
1-[4-[4-[2-tert-butyl-6-(trifluoromethyl)-4-pyrimidinyl]-1-piperazinyl]butyl]-2,4-dioxo-5-pyrimidinecarbonitrile

> <PUBCHEM_IUPAC_NAME_MARKUP>
1-[4-[4-[2-<I>tert</I>-butyl-6-(trifluoromethyl)pyrimidin-4-yl]piperazin-1-yl]butyl]-2,4-dioxopyrimidine-5-carbonitrile

> <PUBCHEM_IUPAC_NAME>
1-[4-[4-[2-tert-butyl-6-(trifluoromethyl)pyrimidin-4-yl]piperazin-1-yl]butyl]-2,4-dioxopyrimidine-5-carbonitrile

> <PUBCHEM_IUPAC_SYSTEMATIC_NAME>
1-[4-[4-[2-tert-butyl-6-(trifluoromethyl)pyrimidin-4-yl]piperazin-1-yl]butyl]-2,4-bis(oxidanylidene)pyrimidine-5-carbonitrile

> <PUBCHEM_IUPAC_TRADITIONAL_NAME>
1-[4-[4-[2-tert-butyl-6-(trifluoromethyl)pyrimidin-4-yl]piperazino]butyl]-2,4-diketo-pyrimidine-5-carbonitrile

> <PUBCHEM_IUPAC_INCHI>
InChI=1S/C22H28F3N7O2/c1-21(2,3)19-27-16(22(23,24)25)12-17(28-19)31-10-8-30(9-11-31)6-4-5-7-32-14-15(13-26)18(33)29-20(32)34/h12,14H,4-11H2,1-3H3,(H,29,33,34)

> <PUBCHEM_IUPAC_INCHIKEY>
UHBDOJLDXNFRPT-UHFFFAOYSA-N

> <PUBCHEM_XLOGP3_AA>
2.7

> <PUBCHEM_EXACT_MASS>
479.22565765

> <PUBCHEM_MOLECULAR_FORMULA>
C22H28F3N7O2

> <PUBCHEM_MOLECULAR_WEIGHT>
479.5

> <PUBCHEM_OPENEYE_CAN_SMILES>
CC(C)(C)C1=NC(=CC(=N1)N2CCN(CC2)CCCCN3C=C(C(=O)NC3=O)C#N)C(F)(F)F

> <PUBCHEM_OPENEYE_ISO_SMILES>
CC(C)(C)C1=NC(=CC(=N1)N2CCN(CC2)CCCCN3C=C(C(=O)NC3=O)C#N)C(F)(F)F

> <PUBCHEM_CACTVS_TPSA>
106

> <PUBCHEM_MONOISOTOPIC_WEIGHT>
479.22565765

> <PUBCHEM_TOTAL_CHARGE>
0

> <PUBCHEM_HEAVY_ATOM_COUNT>
34

> <PUBCHEM_ATOM_DEF_STEREO_COUNT>
0

> <PUBCHEM_ATOM_UDEF_STEREO_COUNT>
0

> <PUBCHEM_BOND_DEF_STEREO_COUNT>
0

> <PUBCHEM_BOND_UDEF_STEREO_COUNT>
0

> <PUBCHEM_ISOTOPIC_ATOM_COUNT>
0

> <PUBCHEM_COMPONENT_COUNT>
1

> <PUBCHEM_CACTVS_TAUTO_COUNT>
-1

> <PUBCHEM_COORDINATE_TYPE>
1
5
255

> <PUBCHEM_BONDANNOTATIONS>
10  23  8
10  25  8
11  31  8
11  33  8
19  24  8
24  25  8
30  32  8
32  33  8
8  19  8
8  23  8
9  30  8
9  31  8

$$$$
