127045873
  -OEChem-09292322372D

 51 54  0     0  0  0  0  0  0999 V2000
    8.4530   -3.4024    0.0000 S   0  0  0  0  0  0  0  0  0  0  0  0
    6.3301    4.3529    0.0000 F   0  0  0  0  0  0  0  0  0  0  0  0
    5.3301    3.3529    0.0000 F   0  0  0  0  0  0  0  0  0  0  0  0
    7.3301    3.3529    0.0000 F   0  0  0  0  0  0  0  0  0  0  0  0
    9.4035   -3.0917    0.0000 O   0  0  0  0  0  0  0  0  0  0  0  0
    7.5025   -3.7130    0.0000 O   0  0  0  0  0  0  0  0  0  0  0  0
    4.5981   -2.6471    0.0000 N   0  0  0  0  0  0  0  0  0  0  0  0
    2.8660   -3.6471    0.0000 N   0  0  0  0  0  0  0  0  0  0  0  0
    8.1424   -2.4518    0.0000 N   0  0  0  0  0  0  0  0  0  0  0  0
    6.3301   -2.6471    0.0000 N   0  0  0  0  0  0  0  0  0  0  0  0
    4.5981   -3.6471    0.0000 C   0  0  0  0  0  0  0  0  0  0  0  0
    3.7320   -2.1471    0.0000 C   0  0  0  0  0  0  0  0  0  0  0  0
    3.7320   -4.1471    0.0000 C   0  0  0  0  0  0  0  0  0  0  0  0
    2.8660   -2.6471    0.0000 C   0  0  0  0  0  0  0  0  0  0  0  0
    5.4641   -2.1471    0.0000 C   0  0  0  0  0  0  0  0  0  0  0  0
    7.1962   -2.1471    0.0000 C   0  0  0  0  0  0  0  0  0  0  0  0
    7.1962   -1.1471    0.0000 C   0  0  0  0  0  0  0  0  0  0  0  0
    6.3301   -0.6471    0.0000 C   0  0  0  0  0  0  0  0  0  0  0  0
    5.4641   -1.1471    0.0000 C   0  0  0  0  0  0  0  0  0  0  0  0
    2.0000   -4.1471    0.0000 C   0  0  0  0  0  0  0  0  0  0  0  0
    8.1424   -0.8424    0.0000 C   0  0  0  0  0  0  0  0  0  0  0  0
    6.3301    0.3529    0.0000 C   0  0  0  0  0  0  0  0  0  0  0  0
    8.7260   -1.6471    0.0000 C   0  0  0  0  0  0  0  0  0  0  0  0
    7.1962    0.8529    0.0000 C   0  0  0  0  0  0  0  0  0  0  0  0
    5.4641    0.8529    0.0000 C   0  0  0  0  0  0  0  0  0  0  0  0
    8.7637   -4.3529    0.0000 C   0  0  0  0  0  0  0  0  0  0  0  0
    7.1962    1.8529    0.0000 C   0  0  0  0  0  0  0  0  0  0  0  0
    5.4641    1.8529    0.0000 C   0  0  0  0  0  0  0  0  0  0  0  0
    6.3301    2.3529    0.0000 C   0  0  0  0  0  0  0  0  0  0  0  0
    6.3301    3.3529    0.0000 C   0  0  0  0  0  0  0  0  0  0  0  0
    4.8101   -4.2297    0.0000 H   0  0  0  0  0  0  0  0  0  0  0  0
    5.2087   -3.5394    0.0000 H   0  0  0  0  0  0  0  0  0  0  0  0
    4.1306   -1.6722    0.0000 H   0  0  0  0  0  0  0  0  0  0  0  0
    3.3335   -1.6722    0.0000 H   0  0  0  0  0  0  0  0  0  0  0  0
    3.3335   -4.6221    0.0000 H   0  0  0  0  0  0  0  0  0  0  0  0
    4.1306   -4.6221    0.0000 H   0  0  0  0  0  0  0  0  0  0  0  0
    2.6540   -2.0645    0.0000 H   0  0  0  0  0  0  0  0  0  0  0  0
    2.2554   -2.7548    0.0000 H   0  0  0  0  0  0  0  0  0  0  0  0
    4.9272   -0.8371    0.0000 H   0  0  0  0  0  0  0  0  0  0  0  0
    1.6900   -3.6102    0.0000 H   0  0  0  0  0  0  0  0  0  0  0  0
    1.4631   -4.4571    0.0000 H   0  0  0  0  0  0  0  0  0  0  0  0
    2.3100   -4.6840    0.0000 H   0  0  0  0  0  0  0  0  0  0  0  0
    8.3350   -0.2531    0.0000 H   0  0  0  0  0  0  0  0  0  0  0  0
    9.3460   -1.6471    0.0000 H   0  0  0  0  0  0  0  0  0  0  0  0
    7.7331    0.5429    0.0000 H   0  0  0  0  0  0  0  0  0  0  0  0
    4.9272    0.5429    0.0000 H   0  0  0  0  0  0  0  0  0  0  0  0
    8.1744   -4.5455    0.0000 H   0  0  0  0  0  0  0  0  0  0  0  0
    8.9563   -4.9422    0.0000 H   0  0  0  0  0  0  0  0  0  0  0  0
    9.3530   -4.1603    0.0000 H   0  0  0  0  0  0  0  0  0  0  0  0
    7.7331    2.1629    0.0000 H   0  0  0  0  0  0  0  0  0  0  0  0
    4.9272    2.1629    0.0000 H   0  0  0  0  0  0  0  0  0  0  0  0
  1  5  2  0  0  0  0
  1  6  2  0  0  0  0
  1  9  1  0  0  0  0
  1 26  1  0  0  0  0
  2 30  1  0  0  0  0
  3 30  1  0  0  0  0
  4 30  1  0  0  0  0
  7 11  1  0  0  0  0
  7 12  1  0  0  0  0
  7 15  1  0  0  0  0
  8 13  1  0  0  0  0
  8 14  1  0  0  0  0
  8 20  1  0  0  0  0
  9 16  1  0  0  0  0
  9 23  1  0  0  0  0
 10 15  2  0  0  0  0
 10 16  1  0  0  0  0
 11 13  1  0  0  0  0
 11 31  1  0  0  0  0
 11 32  1  0  0  0  0
 12 14  1  0  0  0  0
 12 33  1  0  0  0  0
 12 34  1  0  0  0  0
 13 35  1  0  0  0  0
 13 36  1  0  0  0  0
 14 37  1  0  0  0  0
 14 38  1  0  0  0  0
 15 19  1  0  0  0  0
 16 17  2  0  0  0  0
 17 18  1  0  0  0  0
 17 21  1  0  0  0  0
 18 19  2  0  0  0  0
 18 22  1  0  0  0  0
 19 39  1  0  0  0  0
 20 40  1  0  0  0  0
 20 41  1  0  0  0  0
 20 42  1  0  0  0  0
 21 23  2  0  0  0  0
 21 43  1  0  0  0  0
 22 24  2  0  0  0  0
 22 25  1  0  0  0  0
 23 44  1  0  0  0  0
 24 27  1  0  0  0  0
 24 45  1  0  0  0  0
 25 28  2  0  0  0  0
 25 46  1  0  0  0  0
 26 47  1  0  0  0  0
 26 48  1  0  0  0  0
 26 49  1  0  0  0  0
 27 29  2  0  0  0  0
 27 50  1  0  0  0  0
 28 29  1  0  0  0  0
 28 51  1  0  0  0  0
 29 30  1  0  0  0  0
M  END
> <PUBCHEM_COMPOUND_CID>
127045873

> <PUBCHEM_COMPOUND_CANONICALIZED>
1

> <PUBCHEM_CACTVS_COMPLEXITY>
698

> <PUBCHEM_CACTVS_HBOND_ACCEPTOR>
8

> <PUBCHEM_CACTVS_HBOND_DONOR>
0

> <PUBCHEM_CACTVS_ROTATABLE_BOND>
3

> <PUBCHEM_CACTVS_SUBSKEYS>
AAADceB7sYBAAAAAAAAAAAAAAAAAAWAAAAA8WIAAAAAAAFgB/AAAHQQAQAAADADBGxS/sN8IEAKgAjJnZHCCgCkxAqAJ2CA4ZJiIaOLAmZGUIAhogALIyCcQgMAOwAAAAAAAAACAAAAAAAAAAAAAAAAAAA==

> <PUBCHEM_IUPAC_OPENEYE_NAME>
6-(4-methylpiperazin-1-yl)-1-methylsulfonyl-4-[4-(trifluoromethyl)phenyl]pyrrolo[2,3-b]pyridine

> <PUBCHEM_IUPAC_CAS_NAME>
6-(4-methyl-1-piperazinyl)-1-methylsulfonyl-4-[4-(trifluoromethyl)phenyl]pyrrolo[2,3-b]pyridine

> <PUBCHEM_IUPAC_NAME_MARKUP>
6-(4-methylpiperazin-1-yl)-1-methylsulfonyl-4-[4-(trifluoromethyl)phenyl]pyrrolo[2,3-b]pyridine

> <PUBCHEM_IUPAC_NAME>
6-(4-methylpiperazin-1-yl)-1-methylsulfonyl-4-[4-(trifluoromethyl)phenyl]pyrrolo[2,3-b]pyridine

> <PUBCHEM_IUPAC_SYSTEMATIC_NAME>
6-(4-methylpiperazin-1-yl)-1-methylsulfonyl-4-[4-(trifluoromethyl)phenyl]pyrrolo[2,3-b]pyridine

> <PUBCHEM_IUPAC_TRADITIONAL_NAME>
1-mesyl-6-(4-methylpiperazino)-4-[4-(trifluoromethyl)phenyl]pyrrolo[2,3-b]pyridine

> <PUBCHEM_IUPAC_INCHI>
InChI=1S/C20H21F3N4O2S/c1-25-9-11-26(12-10-25)18-13-17(14-3-5-15(6-4-14)20(21,22)23)16-7-8-27(19(16)24-18)30(2,28)29/h3-8,13H,9-12H2,1-2H3

> <PUBCHEM_IUPAC_INCHIKEY>
ITGAXTFBUHEDGL-UHFFFAOYSA-N

> <PUBCHEM_XLOGP3_AA>
3.7

> <PUBCHEM_EXACT_MASS>
438.13373159

> <PUBCHEM_MOLECULAR_FORMULA>
C20H21F3N4O2S

> <PUBCHEM_MOLECULAR_WEIGHT>
438.5

> <PUBCHEM_OPENEYE_CAN_SMILES>
CN1CCN(CC1)C2=NC3=C(C=CN3S(=O)(=O)C)C(=C2)C4=CC=C(C=C4)C(F)(F)F

> <PUBCHEM_OPENEYE_ISO_SMILES>
CN1CCN(CC1)C2=NC3=C(C=CN3S(=O)(=O)C)C(=C2)C4=CC=C(C=C4)C(F)(F)F

> <PUBCHEM_CACTVS_TPSA>
66.8

> <PUBCHEM_MONOISOTOPIC_WEIGHT>
438.13373159

> <PUBCHEM_TOTAL_CHARGE>
0

> <PUBCHEM_HEAVY_ATOM_COUNT>
30

> <PUBCHEM_ATOM_DEF_STEREO_COUNT>
0

> <PUBCHEM_ATOM_UDEF_STEREO_COUNT>
0

> <PUBCHEM_BOND_DEF_STEREO_COUNT>
0

> <PUBCHEM_BOND_UDEF_STEREO_COUNT>
0

> <PUBCHEM_ISOTOPIC_ATOM_COUNT>
0

> <PUBCHEM_COMPONENT_COUNT>
1

> <PUBCHEM_CACTVS_TAUTO_COUNT>
-1

> <PUBCHEM_COORDINATE_TYPE>
1
5
255

> <PUBCHEM_BONDANNOTATIONS>
10  15  8
10  16  8
15  19  8
16  17  8
17  18  8
17  21  8
18  19  8
21  23  8
22  24  8
22  25  8
24  27  8
25  28  8
27  29  8
28  29  8
9  16  8
9  23  8

$$$$
