56944473
  -OEChem-09292322342D

 58 62  0     0  0  0  0  0  0999 V2000
   10.3438    2.6849    0.0000 S   0  0  0  0  0  0  0  0  0  0  0  0
   12.7145    5.0365    0.0000 S   0  0  0  0  0  0  0  0  0  0  0  0
    2.0000   -5.4416    0.0000 F   0  0  0  0  0  0  0  0  0  0  0  0
    5.5443   -5.2464    0.0000 O   0  0  0  0  0  0  0  0  0  0  0  0
   10.1376    3.6634    0.0000 O   0  0  0  0  0  0  0  0  0  0  0  0
   10.5500    1.7064    0.0000 O   0  0  0  0  0  0  0  0  0  0  0  0
    6.4763   -0.7854    0.0000 N   0  0  0  0  0  0  0  0  0  0  0  0
    6.1279   -4.4416    0.0000 N   0  0  0  0  0  0  0  0  0  0  0  0
    9.3653    2.4786    0.0000 N   0  0  0  0  0  0  0  0  0  0  0  0
   11.1396    4.7046    0.0000 N   0  0  0  0  0  0  0  0  0  0  0  0
    5.8550   -2.6864    0.0000 C   0  0  0  0  0  0  0  0  0  0  0  0
    5.1871   -1.9421    0.0000 C   0  0  0  0  0  0  0  0  0  0  0  0
    6.8335   -2.4802    0.0000 C   0  0  0  0  0  0  0  0  0  0  0  0
    5.4978   -0.9916    0.0000 C   0  0  0  0  0  0  0  0  0  0  0  0
    7.1441   -1.5297    0.0000 C   0  0  0  0  0  0  0  0  0  0  0  0
    6.7870    0.1652    0.0000 C   0  0  0  0  0  0  0  0  0  0  0  0
    5.5443   -3.6369    0.0000 C   0  0  0  0  0  0  0  0  0  0  0  0
    7.7654    0.3714    0.0000 C   0  0  0  0  0  0  0  0  0  0  0  0
    4.5981   -3.9416    0.0000 C   0  0  0  0  0  0  0  0  0  0  0  0
    8.0761    1.3219    0.0000 C   0  0  0  0  0  0  0  0  0  0  0  0
    9.0546    1.5281    0.0000 C   0  0  0  0  0  0  0  0  0  0  0  0
    4.5981   -4.9416    0.0000 C   0  0  0  0  0  0  0  0  0  0  0  0
    3.7320   -3.4416    0.0000 C   0  0  0  0  0  0  0  0  0  0  0  0
    3.7320   -5.4416    0.0000 C   0  0  0  0  0  0  0  0  0  0  0  0
    2.8660   -3.9416    0.0000 C   0  0  0  0  0  0  0  0  0  0  0  0
    2.8660   -4.9416    0.0000 C   0  0  0  0  0  0  0  0  0  0  0  0
   11.3223    2.8911    0.0000 C   0  0  0  0  0  0  0  0  0  0  0  0
   11.6330    3.8416    0.0000 C   0  0  0  0  0  0  0  0  0  0  0  0
   11.9901    2.1468    0.0000 C   0  0  0  0  0  0  0  0  0  0  0  0
   12.6115    4.0478    0.0000 C   0  0  0  0  0  0  0  0  0  0  0  0
   12.9686    2.3530    0.0000 C   0  0  0  0  0  0  0  0  0  0  0  0
   13.2793    3.3035    0.0000 C   0  0  0  0  0  0  0  0  0  0  0  0
   11.8067    5.4416    0.0000 C   0  0  0  0  0  0  0  0  0  0  0  0
    6.2690   -3.1479    0.0000 H   0  0  0  0  0  0  0  0  0  0  0  0
    4.6402   -1.6501    0.0000 H   0  0  0  0  0  0  0  0  0  0  0  0
    4.8046   -2.4300    0.0000 H   0  0  0  0  0  0  0  0  0  0  0  0
    6.8540   -3.0998    0.0000 H   0  0  0  0  0  0  0  0  0  0  0  0
    7.4473   -2.5675    0.0000 H   0  0  0  0  0  0  0  0  0  0  0  0
    5.4772   -0.3719    0.0000 H   0  0  0  0  0  0  0  0  0  0  0  0
    4.8840   -0.9042    0.0000 H   0  0  0  0  0  0  0  0  0  0  0  0
    7.6910   -1.8217    0.0000 H   0  0  0  0  0  0  0  0  0  0  0  0
    7.5267   -1.0418    0.0000 H   0  0  0  0  0  0  0  0  0  0  0  0
    6.7664    0.7848    0.0000 H   0  0  0  0  0  0  0  0  0  0  0  0
    6.1731    0.2525    0.0000 H   0  0  0  0  0  0  0  0  0  0  0  0
    7.7860   -0.2483    0.0000 H   0  0  0  0  0  0  0  0  0  0  0  0
    8.3793    0.2840    0.0000 H   0  0  0  0  0  0  0  0  0  0  0  0
    8.0556    1.9416    0.0000 H   0  0  0  0  0  0  0  0  0  0  0  0
    7.4623    1.4092    0.0000 H   0  0  0  0  0  0  0  0  0  0  0  0
    9.0752    0.9085    0.0000 H   0  0  0  0  0  0  0  0  0  0  0  0
    9.6684    1.4408    0.0000 H   0  0  0  0  0  0  0  0  0  0  0  0
    3.7320   -2.8216    0.0000 H   0  0  0  0  0  0  0  0  0  0  0  0
    8.9512    2.9401    0.0000 H   0  0  0  0  0  0  0  0  0  0  0  0
    3.7320   -6.0616    0.0000 H   0  0  0  0  0  0  0  0  0  0  0  0
    2.3291   -3.6316    0.0000 H   0  0  0  0  0  0  0  0  0  0  0  0
   11.7975    1.5574    0.0000 H   0  0  0  0  0  0  0  0  0  0  0  0
   13.3827    1.8915    0.0000 H   0  0  0  0  0  0  0  0  0  0  0  0
   13.8860    3.4314    0.0000 H   0  0  0  0  0  0  0  0  0  0  0  0
   11.6789    6.0483    0.0000 H   0  0  0  0  0  0  0  0  0  0  0  0
  1  5  2  0  0  0  0
  1  6  2  0  0  0  0
  1  9  1  0  0  0  0
  1 27  1  0  0  0  0
  2 30  1  0  0  0  0
  2 33  1  0  0  0  0
  3 26  1  0  0  0  0
  4  8  1  0  0  0  0
  4 22  1  0  0  0  0
  7 14  1  0  0  0  0
  7 15  1  0  0  0  0
  7 16  1  0  0  0  0
  8 17  2  0  0  0  0
  9 21  1  0  0  0  0
  9 52  1  0  0  0  0
 10 28  1  0  0  0  0
 10 33  2  0  0  0  0
 11 12  1  0  0  0  0
 11 13  1  0  0  0  0
 11 17  1  0  0  0  0
 11 34  1  0  0  0  0
 12 14  1  0  0  0  0
 12 35  1  0  0  0  0
 12 36  1  0  0  0  0
 13 15  1  0  0  0  0
 13 37  1  0  0  0  0
 13 38  1  0  0  0  0
 14 39  1  0  0  0  0
 14 40  1  0  0  0  0
 15 41  1  0  0  0  0
 15 42  1  0  0  0  0
 16 18  1  0  0  0  0
 16 43  1  0  0  0  0
 16 44  1  0  0  0  0
 17 19  1  0  0  0  0
 18 20  1  0  0  0  0
 18 45  1  0  0  0  0
 18 46  1  0  0  0  0
 19 22  2  0  0  0  0
 19 23  1  0  0  0  0
 20 21  1  0  0  0  0
 20 47  1  0  0  0  0
 20 48  1  0  0  0  0
 21 49  1  0  0  0  0
 21 50  1  0  0  0  0
 22 24  1  0  0  0  0
 23 25  2  0  0  0  0
 23 51  1  0  0  0  0
 24 26  2  0  0  0  0
 24 53  1  0  0  0  0
 25 26  1  0  0  0  0
 25 54  1  0  0  0  0
 27 28  1  0  0  0  0
 27 29  2  0  0  0  0
 28 30  2  0  0  0  0
 29 31  1  0  0  0  0
 29 55  1  0  0  0  0
 30 32  1  0  0  0  0
 31 32  2  0  0  0  0
 31 56  1  0  0  0  0
 32 57  1  0  0  0  0
 33 58  1  0  0  0  0
M  END
> <PUBCHEM_COMPOUND_CID>
56944473

> <PUBCHEM_COMPOUND_CANONICALIZED>
1

> <PUBCHEM_CACTVS_COMPLEXITY>
747

> <PUBCHEM_CACTVS_HBOND_ACCEPTOR>
9

> <PUBCHEM_CACTVS_HBOND_DONOR>
1

> <PUBCHEM_CACTVS_ROTATABLE_BOND>
8

> <PUBCHEM_CACTVS_SUBSKEYS>
AAADceB7sQBgAAAAAAAAAAAAAAAAAWLAAAA8YIAAAAAAAFgB/gAAHwQUQAAADQzB3gy0x/NYEAqtA6RzRnDD8LB1KDho2L0+TNoIJrrglZOEMYhm0BnIyceYyOCOAAAAAEAIAQAAAAAAgBACAAAAAAAAAA==

> <PUBCHEM_IUPAC_OPENEYE_NAME>
N-[4-[4-(6-fluoro-1,2-benzoxazol-3-yl)-1-piperidyl]butyl]-1,3-benzothiazole-4-sulfonamide

> <PUBCHEM_IUPAC_CAS_NAME>
N-[4-[4-(6-fluoro-1,2-benzoxazol-3-yl)-1-piperidinyl]butyl]-1,3-benzothiazole-4-sulfonamide

> <PUBCHEM_IUPAC_NAME_MARKUP>
<I>N</I>-[4-[4-(6-fluoro-1,2-benzoxazol-3-yl)piperidin-1-yl]butyl]-1,3-benzothiazole-4-sulfonamide

> <PUBCHEM_IUPAC_NAME>
N-[4-[4-(6-fluoro-1,2-benzoxazol-3-yl)piperidin-1-yl]butyl]-1,3-benzothiazole-4-sulfonamide

> <PUBCHEM_IUPAC_SYSTEMATIC_NAME>
N-[4-[4-(6-fluoranyl-1,2-benzoxazol-3-yl)piperidin-1-yl]butyl]-1,3-benzothiazole-4-sulfonamide

> <PUBCHEM_IUPAC_TRADITIONAL_NAME>
N-[4-[4-(6-fluoroindoxazen-3-yl)piperidino]butyl]-1,3-benzothiazole-4-sulfonamide

> <PUBCHEM_IUPAC_INCHI>
InChI=1S/C23H25FN4O3S2/c24-17-6-7-18-19(14-17)31-27-22(18)16-8-12-28(13-9-16)11-2-1-10-26-33(29,30)21-5-3-4-20-23(21)25-15-32-20/h3-7,14-16,26H,1-2,8-13H2

> <PUBCHEM_IUPAC_INCHIKEY>
ZLGZCZCALIKICJ-UHFFFAOYSA-N

> <PUBCHEM_XLOGP3_AA>
4.3

> <PUBCHEM_EXACT_MASS>
488.13521118

> <PUBCHEM_MOLECULAR_FORMULA>
C23H25FN4O3S2

> <PUBCHEM_MOLECULAR_WEIGHT>
488.6

> <PUBCHEM_OPENEYE_CAN_SMILES>
C1CN(CCC1C2=NOC3=C2C=CC(=C3)F)CCCCNS(=O)(=O)C4=CC=CC5=C4N=CS5

> <PUBCHEM_OPENEYE_ISO_SMILES>
C1CN(CCC1C2=NOC3=C2C=CC(=C3)F)CCCCNS(=O)(=O)C4=CC=CC5=C4N=CS5

> <PUBCHEM_CACTVS_TPSA>
125

> <PUBCHEM_MONOISOTOPIC_WEIGHT>
488.13521118

> <PUBCHEM_TOTAL_CHARGE>
0

> <PUBCHEM_HEAVY_ATOM_COUNT>
33

> <PUBCHEM_ATOM_DEF_STEREO_COUNT>
0

> <PUBCHEM_ATOM_UDEF_STEREO_COUNT>
0

> <PUBCHEM_BOND_DEF_STEREO_COUNT>
0

> <PUBCHEM_BOND_UDEF_STEREO_COUNT>
0

> <PUBCHEM_ISOTOPIC_ATOM_COUNT>
0

> <PUBCHEM_COMPONENT_COUNT>
1

> <PUBCHEM_CACTVS_TAUTO_COUNT>
-1

> <PUBCHEM_COORDINATE_TYPE>
1
5
255

> <PUBCHEM_BONDANNOTATIONS>
10  28  8
10  33  8
17  19  8
19  22  8
19  23  8
2  30  8
2  33  8
22  24  8
23  25  8
24  26  8
25  26  8
27  28  8
27  29  8
28  30  8
29  31  8
30  32  8
31  32  8
4  22  8
4  8  8
8  17  8

$$$$
