52947516
  -OEChem-09292322302D

 59 63  0     1  0  0  0  0  0999 V2000
    7.0259    1.1830    0.0000 S   0  0  0  0  0  0  0  0  0  0  0  0
    9.6240   -2.3170    0.0000 F   0  0  0  0  0  0  0  0  0  0  0  0
   10.9900   -2.6830    0.0000 F   0  0  0  0  0  0  0  0  0  0  0  0
    9.9900   -0.9510    0.0000 F   0  0  0  0  0  0  0  0  0  0  0  0
    3.0827    1.3172    0.0000 O   0  0  0  0  0  0  0  0  0  0  0  0
   10.4900    1.1830    0.0000 N   0  0  3  0  0  0  0  0  0  0  0  0
    5.2463    1.0898    0.0000 N   0  0  0  0  0  0  0  0  0  0  0  0
    6.0554   -0.3115    0.0000 N   0  0  0  0  0  0  0  0  0  0  0  0
    5.0772   -0.5194    0.0000 N   0  0  0  0  0  0  0  0  0  0  0  0
    2.0000    0.1147    0.0000 N   0  0  0  0  0  0  0  0  0  0  0  0
   12.2221    1.1830    0.0000 C   0  0  3  0  0  0  0  0  0  0  0  0
   12.2221    2.1830    0.0000 C   0  0  3  0  0  0  0  0  0  0  0  0
   13.0886    1.6830    0.0000 C   0  0  0  0  0  0  0  0  0  0  0  0
   11.3560    0.6830    0.0000 C   0  0  0  0  0  0  0  0  0  0  0  0
   11.3560    2.6830    0.0000 C   0  0  0  0  0  0  0  0  0  0  0  0
   12.2221    0.1830    0.0000 C   0  0  0  0  0  0  0  0  0  0  0  0
   10.4900    2.1830    0.0000 C   0  0  0  0  0  0  0  0  0  0  0  0
    9.6240    0.6830    0.0000 C   0  0  0  0  0  0  0  0  0  0  0  0
   11.3560   -0.3170    0.0000 C   0  0  0  0  0  0  0  0  0  0  0  0
   13.0881   -0.3170    0.0000 C   0  0  0  0  0  0  0  0  0  0  0  0
    8.7579    1.1830    0.0000 C   0  0  0  0  0  0  0  0  0  0  0  0
   11.3560   -1.3170    0.0000 C   0  0  0  0  0  0  0  0  0  0  0  0
   13.0881   -1.3170    0.0000 C   0  0  0  0  0  0  0  0  0  0  0  0
   12.2221   -1.8170    0.0000 C   0  0  0  0  0  0  0  0  0  0  0  0
    7.8919    0.6830    0.0000 C   0  0  0  0  0  0  0  0  0  0  0  0
   10.4900   -1.8170    0.0000 C   0  0  0  0  0  0  0  0  0  0  0  0
    6.1599    0.6830    0.0000 C   0  0  0  0  0  0  0  0  0  0  0  0
    4.5772    0.3466    0.0000 C   0  0  0  0  0  0  0  0  0  0  0  0
    5.0384    2.0679    0.0000 C   0  0  0  0  0  0  0  0  0  0  0  0
    3.5827    0.4511    0.0000 C   0  0  0  0  0  0  0  0  0  0  0  0
    2.9136   -0.2920    0.0000 C   0  0  0  0  0  0  0  0  0  0  0  0
    3.1215   -1.2702    0.0000 C   0  0  0  0  0  0  0  0  0  0  0  0
    2.1045    1.1092    0.0000 C   0  0  0  0  0  0  0  0  0  0  0  0
   12.5320    2.7200    0.0000 H   0  0  0  0  0  0  0  0  0  0  0  0
   13.4871    1.2080    0.0000 H   0  0  0  0  0  0  0  0  0  0  0  0
   13.4871    2.1580    0.0000 H   0  0  0  0  0  0  0  0  0  0  0  0
   10.9575    0.2081    0.0000 H   0  0  0  0  0  0  0  0  0  0  0  0
   11.7546    0.2081    0.0000 H   0  0  0  0  0  0  0  0  0  0  0  0
   11.7546    3.1580    0.0000 H   0  0  0  0  0  0  0  0  0  0  0  0
   10.9575    3.1580    0.0000 H   0  0  0  0  0  0  0  0  0  0  0  0
   10.2779    2.7656    0.0000 H   0  0  0  0  0  0  0  0  0  0  0  0
    9.8794    2.0753    0.0000 H   0  0  0  0  0  0  0  0  0  0  0  0
    9.2254    0.2081    0.0000 H   0  0  0  0  0  0  0  0  0  0  0  0
   10.0225    0.2081    0.0000 H   0  0  0  0  0  0  0  0  0  0  0  0
   10.8191   -0.0070    0.0000 H   0  0  0  0  0  0  0  0  0  0  0  0
   13.6250   -0.0070    0.0000 H   0  0  0  0  0  0  0  0  0  0  0  0
    9.1565    1.6580    0.0000 H   0  0  0  0  0  0  0  0  0  0  0  0
    8.3594    1.6580    0.0000 H   0  0  0  0  0  0  0  0  0  0  0  0
   13.6250   -1.6270    0.0000 H   0  0  0  0  0  0  0  0  0  0  0  0
   12.2221   -2.4370    0.0000 H   0  0  0  0  0  0  0  0  0  0  0  0
    7.4934    0.2081    0.0000 H   0  0  0  0  0  0  0  0  0  0  0  0
    8.2904    0.2081    0.0000 H   0  0  0  0  0  0  0  0  0  0  0  0
    5.6449    2.1968    0.0000 H   0  0  0  0  0  0  0  0  0  0  0  0
    4.9095    2.6744    0.0000 H   0  0  0  0  0  0  0  0  0  0  0  0
    4.4320    1.9390    0.0000 H   0  0  0  0  0  0  0  0  0  0  0  0
    2.5150   -1.3991    0.0000 H   0  0  0  0  0  0  0  0  0  0  0  0
    3.2504   -1.8766    0.0000 H   0  0  0  0  0  0  0  0  0  0  0  0
    3.7279   -1.1413    0.0000 H   0  0  0  0  0  0  0  0  0  0  0  0
    1.6438    1.5241    0.0000 H   0  0  0  0  0  0  0  0  0  0  0  0
  1 25  1  0  0  0  0
  1 27  1  0  0  0  0
  2 26  1  0  0  0  0
  3 26  1  0  0  0  0
  4 26  1  0  0  0  0
  5 30  1  0  0  0  0
  5 33  1  0  0  0  0
  6 14  1  0  0  0  0
  6 17  1  0  0  0  0
  6 18  1  0  0  0  0
  7 27  1  0  0  0  0
  7 28  1  0  0  0  0
  7 29  1  0  0  0  0
  8  9  1  0  0  0  0
  8 27  2  0  0  0  0
  9 28  2  0  0  0  0
 10 31  1  0  0  0  0
 10 33  2  0  0  0  0
 11 12  1  0  0  0  0
 11 13  1  0  0  0  0
 11 14  1  0  0  0  0
 11 16  1  0  0  0  0
 12 13  1  0  0  0  0
 12 15  1  0  0  0  0
 12 34  1  0  0  0  0
 13 35  1  0  0  0  0
 13 36  1  0  0  0  0
 14 37  1  0  0  0  0
 14 38  1  0  0  0  0
 15 17  1  0  0  0  0
 15 39  1  0  0  0  0
 15 40  1  0  0  0  0
 16 19  2  0  0  0  0
 16 20  1  0  0  0  0
 17 41  1  0  0  0  0
 17 42  1  0  0  0  0
 18 21  1  0  0  0  0
 18 43  1  0  0  0  0
 18 44  1  0  0  0  0
 19 22  1  0  0  0  0
 19 45  1  0  0  0  0
 20 23  2  0  0  0  0
 20 46  1  0  0  0  0
 21 25  1  0  0  0  0
 21 47  1  0  0  0  0
 21 48  1  0  0  0  0
 22 24  2  0  0  0  0
 22 26  1  0  0  0  0
 23 24  1  0  0  0  0
 23 49  1  0  0  0  0
 24 50  1  0  0  0  0
 25 51  1  0  0  0  0
 25 52  1  0  0  0  0
 28 30  1  0  0  0  0
 29 53  1  0  0  0  0
 29 54  1  0  0  0  0
 29 55  1  0  0  0  0
 30 31  2  0  0  0  0
 31 32  1  0  0  0  0
 32 56  1  0  0  0  0
 32 57  1  0  0  0  0
 32 58  1  0  0  0  0
 33 59  1  0  0  0  0
M  END
> <PUBCHEM_COMPOUND_CID>
52947516

> <PUBCHEM_COMPOUND_CANONICALIZED>
1

> <PUBCHEM_CACTVS_COMPLEXITY>
687

> <PUBCHEM_CACTVS_HBOND_ACCEPTOR>
9

> <PUBCHEM_CACTVS_HBOND_DONOR>
0

> <PUBCHEM_CACTVS_ROTATABLE_BOND>
7

> <PUBCHEM_CACTVS_SUBSKEYS>
AAADceB7oYBAAAAAAAAAAAAAGAAAAWLAAAA8QAAABYAAAAAB8AAAHwQIAAAADwzF3xa3lJcMFEiqA6Zz9ASS2Ct7YLAd2CG9RJiOKCLk2TGNIChgjALYiAcQgMAPgAACAAAAAAAAAAQAAAAAAAAAAAAAAA==

> <PUBCHEM_IUPAC_OPENEYE_NAME>
4-methyl-5-[4-methyl-5-[3-[1-[3-(trifluoromethyl)phenyl]-3-azabicyclo[4.1.0]heptan-3-yl]propylsulfanyl]-1,2,4-triazol-3-yl]oxazole

> <PUBCHEM_IUPAC_CAS_NAME>
4-methyl-5-[4-methyl-5-[3-[1-[3-(trifluoromethyl)phenyl]-3-azabicyclo[4.1.0]heptan-3-yl]propylthio]-1,2,4-triazol-3-yl]oxazole

> <PUBCHEM_IUPAC_NAME_MARKUP>
4-methyl-5-[4-methyl-5-[3-[1-[3-(trifluoromethyl)phenyl]-3-azabicyclo[4.1.0]heptan-3-yl]propylsulfanyl]-1,2,4-triazol-3-yl]-1,3-oxazole

> <PUBCHEM_IUPAC_NAME>
4-methyl-5-[4-methyl-5-[3-[1-[3-(trifluoromethyl)phenyl]-3-azabicyclo[4.1.0]heptan-3-yl]propylsulfanyl]-1,2,4-triazol-3-yl]-1,3-oxazole

> <PUBCHEM_IUPAC_SYSTEMATIC_NAME>
4-methyl-5-[4-methyl-5-[3-[1-[3-(trifluoromethyl)phenyl]-3-azabicyclo[4.1.0]heptan-3-yl]propylsulfanyl]-1,2,4-triazol-3-yl]-1,3-oxazole

> <PUBCHEM_IUPAC_TRADITIONAL_NAME>
4-methyl-5-[4-methyl-5-[3-[1-[3-(trifluoromethyl)phenyl]-3-azabicyclo[4.1.0]heptan-3-yl]propylthio]-1,2,4-triazol-3-yl]oxazole

> <PUBCHEM_IUPAC_INCHI>
InChI=1S/C23H26F3N5OS/c1-15-19(32-14-27-15)20-28-29-21(30(20)2)33-10-4-8-31-9-7-18-12-22(18,13-31)16-5-3-6-17(11-16)23(24,25)26/h3,5-6,11,14,18H,4,7-10,12-13H2,1-2H3

> <PUBCHEM_IUPAC_INCHIKEY>
XSNMDMSHDAOPPM-UHFFFAOYSA-N

> <PUBCHEM_XLOGP3_AA>
4.3

> <PUBCHEM_EXACT_MASS>
477.18101613

> <PUBCHEM_MOLECULAR_FORMULA>
C23H26F3N5OS

> <PUBCHEM_MOLECULAR_WEIGHT>
477.5

> <PUBCHEM_OPENEYE_CAN_SMILES>
CC1=C(OC=N1)C2=NN=C(N2C)SCCCN3CCC4CC4(C3)C5=CC(=CC=C5)C(F)(F)F

> <PUBCHEM_OPENEYE_ISO_SMILES>
CC1=C(OC=N1)C2=NN=C(N2C)SCCCN3CCC4CC4(C3)C5=CC(=CC=C5)C(F)(F)F

> <PUBCHEM_CACTVS_TPSA>
85.3

> <PUBCHEM_MONOISOTOPIC_WEIGHT>
477.18101613

> <PUBCHEM_TOTAL_CHARGE>
0

> <PUBCHEM_HEAVY_ATOM_COUNT>
33

> <PUBCHEM_ATOM_DEF_STEREO_COUNT>
0

> <PUBCHEM_ATOM_UDEF_STEREO_COUNT>
2

> <PUBCHEM_BOND_DEF_STEREO_COUNT>
0

> <PUBCHEM_BOND_UDEF_STEREO_COUNT>
0

> <PUBCHEM_ISOTOPIC_ATOM_COUNT>
0

> <PUBCHEM_COMPONENT_COUNT>
1

> <PUBCHEM_CACTVS_TAUTO_COUNT>
-1

> <PUBCHEM_COORDINATE_TYPE>
1
5
255

> <PUBCHEM_BONDANNOTATIONS>
10  31  8
10  33  8
11  16  3
12  15  3
16  19  8
16  20  8
19  22  8
20  23  8
22  24  8
23  24  8
30  31  8
5  30  8
5  33  8
7  27  8
7  28  8
8  27  8
8  9  8
9  28  8

$$$$
