2810280
  -OEChem-09292322422D

 72 76  0     0  0  0  0  0  0999 V2000
    2.0000   -2.1756    0.0000 F   0  0  0  0  0  0  0  0  0  0  0  0
   10.7010    2.2561    0.0000 O   0  0  0  0  0  0  0  0  0  0  0  0
   12.3473    1.7180    0.0000 N   0  0  0  0  0  0  0  0  0  0  0  0
   10.0796    0.3551    0.0000 N   0  0  0  0  0  0  0  0  0  0  0  0
    8.1226   -0.0573    0.0000 N   0  0  0  0  0  0  0  0  0  0  0  0
    5.5443   -3.9803    0.0000 N   0  0  0  0  0  0  0  0  0  0  0  0
   12.6580    2.6686    0.0000 C   0  0  0  0  0  0  0  0  0  0  0  0
   13.6365    2.8748    0.0000 C   0  0  0  0  0  0  0  0  0  0  0  0
   11.9901    3.4129    0.0000 C   0  0  0  0  0  0  0  0  0  0  0  0
   13.9471    3.8253    0.0000 C   0  0  0  0  0  0  0  0  0  0  0  0
   12.3008    4.3634    0.0000 C   0  0  0  0  0  0  0  0  0  0  0  0
   13.2793    4.5696    0.0000 C   0  0  0  0  0  0  0  0  0  0  0  0
    9.7690   -0.5954    0.0000 C   0  0  0  0  0  0  0  0  0  0  0  0
    9.4118    1.0994    0.0000 C   0  0  0  0  0  0  0  0  0  0  0  0
    8.7905   -0.8016    0.0000 C   0  0  0  0  0  0  0  0  0  0  0  0
    8.4333    0.8932    0.0000 C   0  0  0  0  0  0  0  0  0  0  0  0
   11.0582    0.5613    0.0000 C   0  0  0  0  0  0  0  0  0  0  0  0
   11.3688    1.5118    0.0000 C   0  0  0  0  0  0  0  0  0  0  0  0
    7.1441   -0.2636    0.0000 C   0  0  0  0  0  0  0  0  0  0  0  0
   13.0152    0.9737    0.0000 C   0  0  0  0  0  0  0  0  0  0  0  0
    6.8335   -1.2141    0.0000 C   0  0  0  0  0  0  0  0  0  0  0  0
    5.8550   -1.4203    0.0000 C   0  0  0  0  0  0  0  0  0  0  0  0
   12.7045    0.0232    0.0000 C   0  0  0  0  0  0  0  0  0  0  0  0
   13.9937    1.1800    0.0000 C   0  0  0  0  0  0  0  0  0  0  0  0
    5.5443   -2.3708    0.0000 C   0  0  0  0  0  0  0  0  0  0  0  0
    4.5981   -2.6756    0.0000 C   0  0  0  0  0  0  0  0  0  0  0  0
   13.3723   -0.7211    0.0000 C   0  0  0  0  0  0  0  0  0  0  0  0
   14.6615    0.4357    0.0000 C   0  0  0  0  0  0  0  0  0  0  0  0
    6.1279   -3.1756    0.0000 C   0  0  0  0  0  0  0  0  0  0  0  0
    4.5981   -3.6756    0.0000 C   0  0  0  0  0  0  0  0  0  0  0  0
   14.3508   -0.5149    0.0000 C   0  0  0  0  0  0  0  0  0  0  0  0
    3.7320   -2.1756    0.0000 C   0  0  0  0  0  0  0  0  0  0  0  0
    3.7320   -4.1756    0.0000 C   0  0  0  0  0  0  0  0  0  0  0  0
    2.8660   -2.6756    0.0000 C   0  0  0  0  0  0  0  0  0  0  0  0
    2.8660   -3.6756    0.0000 C   0  0  0  0  0  0  0  0  0  0  0  0
   12.0513    2.5407    0.0000 H   0  0  0  0  0  0  0  0  0  0  0  0
   13.6571    2.2551    0.0000 H   0  0  0  0  0  0  0  0  0  0  0  0
   14.2503    2.7874    0.0000 H   0  0  0  0  0  0  0  0  0  0  0  0
   11.4432    3.7049    0.0000 H   0  0  0  0  0  0  0  0  0  0  0  0
   11.6076    2.9250    0.0000 H   0  0  0  0  0  0  0  0  0  0  0  0
   14.4941    3.5333    0.0000 H   0  0  0  0  0  0  0  0  0  0  0  0
   14.3297    4.3132    0.0000 H   0  0  0  0  0  0  0  0  0  0  0  0
   12.2802    4.9831    0.0000 H   0  0  0  0  0  0  0  0  0  0  0  0
   11.6870    4.4507    0.0000 H   0  0  0  0  0  0  0  0  0  0  0  0
   13.8057    4.8972    0.0000 H   0  0  0  0  0  0  0  0  0  0  0  0
   13.0480    5.1449    0.0000 H   0  0  0  0  0  0  0  0  0  0  0  0
    9.7896   -1.2151    0.0000 H   0  0  0  0  0  0  0  0  0  0  0  0
   10.3828   -0.6828    0.0000 H   0  0  0  0  0  0  0  0  0  0  0  0
    9.9382    1.4270    0.0000 H   0  0  0  0  0  0  0  0  0  0  0  0
    9.1805    1.6746    0.0000 H   0  0  0  0  0  0  0  0  0  0  0  0
    8.2641   -1.1293    0.0000 H   0  0  0  0  0  0  0  0  0  0  0  0
    9.0217   -1.3769    0.0000 H   0  0  0  0  0  0  0  0  0  0  0  0
    8.4127    1.5128    0.0000 H   0  0  0  0  0  0  0  0  0  0  0  0
    7.8195    0.9805    0.0000 H   0  0  0  0  0  0  0  0  0  0  0  0
   11.0787   -0.0583    0.0000 H   0  0  0  0  0  0  0  0  0  0  0  0
   11.6720    0.4740    0.0000 H   0  0  0  0  0  0  0  0  0  0  0  0
    7.1236    0.3561    0.0000 H   0  0  0  0  0  0  0  0  0  0  0  0
    6.5303   -0.1762    0.0000 H   0  0  0  0  0  0  0  0  0  0  0  0
    6.8540   -1.8337    0.0000 H   0  0  0  0  0  0  0  0  0  0  0  0
    7.4473   -1.3014    0.0000 H   0  0  0  0  0  0  0  0  0  0  0  0
    5.8344   -0.8006    0.0000 H   0  0  0  0  0  0  0  0  0  0  0  0
    5.2411   -1.3330    0.0000 H   0  0  0  0  0  0  0  0  0  0  0  0
   12.0978   -0.1046    0.0000 H   0  0  0  0  0  0  0  0  0  0  0  0
   14.1863    1.7693    0.0000 H   0  0  0  0  0  0  0  0  0  0  0  0
   13.1797   -1.3104    0.0000 H   0  0  0  0  0  0  0  0  0  0  0  0
   15.2682    0.5635    0.0000 H   0  0  0  0  0  0  0  0  0  0  0  0
    6.7479   -3.1756    0.0000 H   0  0  0  0  0  0  0  0  0  0  0  0
   14.7649   -0.9763    0.0000 H   0  0  0  0  0  0  0  0  0  0  0  0
    5.7369   -4.5696    0.0000 H   0  0  0  0  0  0  0  0  0  0  0  0
    3.7320   -1.5556    0.0000 H   0  0  0  0  0  0  0  0  0  0  0  0
    3.7320   -4.7956    0.0000 H   0  0  0  0  0  0  0  0  0  0  0  0
    2.3291   -3.9856    0.0000 H   0  0  0  0  0  0  0  0  0  0  0  0
  1 34  1  0  0  0  0
  2 18  2  0  0  0  0
  3  7  1  0  0  0  0
  3 18  1  0  0  0  0
  3 20  1  0  0  0  0
  4 13  1  0  0  0  0
  4 14  1  0  0  0  0
  4 17  1  0  0  0  0
  5 15  1  0  0  0  0
  5 16  1  0  0  0  0
  5 19  1  0  0  0  0
  6 29  1  0  0  0  0
  6 30  1  0  0  0  0
  6 69  1  0  0  0  0
  7  8  1  0  0  0  0
  7  9  1  0  0  0  0
  7 36  1  0  0  0  0
  8 10  1  0  0  0  0
  8 37  1  0  0  0  0
  8 38  1  0  0  0  0
  9 11  1  0  0  0  0
  9 39  1  0  0  0  0
  9 40  1  0  0  0  0
 10 12  1  0  0  0  0
 10 41  1  0  0  0  0
 10 42  1  0  0  0  0
 11 12  1  0  0  0  0
 11 43  1  0  0  0  0
 11 44  1  0  0  0  0
 12 45  1  0  0  0  0
 12 46  1  0  0  0  0
 13 15  1  0  0  0  0
 13 47  1  0  0  0  0
 13 48  1  0  0  0  0
 14 16  1  0  0  0  0
 14 49  1  0  0  0  0
 14 50  1  0  0  0  0
 15 51  1  0  0  0  0
 15 52  1  0  0  0  0
 16 53  1  0  0  0  0
 16 54  1  0  0  0  0
 17 18  1  0  0  0  0
 17 55  1  0  0  0  0
 17 56  1  0  0  0  0
 19 21  1  0  0  0  0
 19 57  1  0  0  0  0
 19 58  1  0  0  0  0
 20 23  2  0  0  0  0
 20 24  1  0  0  0  0
 21 22  1  0  0  0  0
 21 59  1  0  0  0  0
 21 60  1  0  0  0  0
 22 25  1  0  0  0  0
 22 61  1  0  0  0  0
 22 62  1  0  0  0  0
 23 27  1  0  0  0  0
 23 63  1  0  0  0  0
 24 28  2  0  0  0  0
 24 64  1  0  0  0  0
 25 26  1  0  0  0  0
 25 29  2  0  0  0  0
 26 30  2  0  0  0  0
 26 32  1  0  0  0  0
 27 31  2  0  0  0  0
 27 65  1  0  0  0  0
 28 31  1  0  0  0  0
 28 66  1  0  0  0  0
 29 67  1  0  0  0  0
 30 33  1  0  0  0  0
 31 68  1  0  0  0  0
 32 34  2  0  0  0  0
 32 70  1  0  0  0  0
 33 35  2  0  0  0  0
 33 71  1  0  0  0  0
 34 35  1  0  0  0  0
 35 72  1  0  0  0  0
M  END
> <PUBCHEM_COMPOUND_CID>
2810280

> <PUBCHEM_COMPOUND_CANONICALIZED>
1

> <PUBCHEM_CACTVS_COMPLEXITY>
657

> <PUBCHEM_CACTVS_HBOND_ACCEPTOR>
4

> <PUBCHEM_CACTVS_HBOND_DONOR>
1

> <PUBCHEM_CACTVS_ROTATABLE_BOND>
8

> <PUBCHEM_CACTVS_SUBSKEYS>
AAADcfB7oQAAAAAAAAAAAAAAAAAAAWAAAAA8YMEAAAAAAFgB9AAAHwAQAAAADCjBngw8wPPJkACoAzV3VACCgCAxAiAI2aC4ZJgIYOLAkbGUIAhglgDIyAcQgMAOgAAAAAACAAAAAAAAAAQAAAAAAAAAAA==

> <PUBCHEM_IUPAC_OPENEYE_NAME>
N-cyclohexyl-2-[4-[3-(5-fluoro-1H-indol-3-yl)propyl]piperazin-1-yl]-N-phenyl-acetamide

> <PUBCHEM_IUPAC_CAS_NAME>
N-cyclohexyl-2-[4-[3-(5-fluoro-1H-indol-3-yl)propyl]-1-piperazinyl]-N-phenylacetamide

> <PUBCHEM_IUPAC_NAME_MARKUP>
<I>N</I>-cyclohexyl-2-[4-[3-(5-fluoro-1<I>H</I>-indol-3-yl)propyl]piperazin-1-yl]-<I>N</I>-phenylacetamide

> <PUBCHEM_IUPAC_NAME>
N-cyclohexyl-2-[4-[3-(5-fluoro-1H-indol-3-yl)propyl]piperazin-1-yl]-N-phenylacetamide

> <PUBCHEM_IUPAC_SYSTEMATIC_NAME>
N-cyclohexyl-2-[4-[3-(5-fluoranyl-1H-indol-3-yl)propyl]piperazin-1-yl]-N-phenyl-ethanamide

> <PUBCHEM_IUPAC_TRADITIONAL_NAME>
N-cyclohexyl-2-[4-[3-(5-fluoro-1H-indol-3-yl)propyl]piperazino]-N-phenyl-acetamide

> <PUBCHEM_IUPAC_INCHI>
InChI=1S/C29H37FN4O/c30-24-13-14-28-27(20-24)23(21-31-28)8-7-15-32-16-18-33(19-17-32)22-29(35)34(25-9-3-1-4-10-25)26-11-5-2-6-12-26/h1,3-4,9-10,13-14,20-21,26,31H,2,5-8,11-12,15-19,22H2

> <PUBCHEM_IUPAC_INCHIKEY>
QFHZTAFMZCTOBW-UHFFFAOYSA-N

> <PUBCHEM_XLOGP3_AA>
5.5

> <PUBCHEM_EXACT_MASS>
476.29513998

> <PUBCHEM_MOLECULAR_FORMULA>
C29H37FN4O

> <PUBCHEM_MOLECULAR_WEIGHT>
476.6

> <PUBCHEM_OPENEYE_CAN_SMILES>
C1CCC(CC1)N(C2=CC=CC=C2)C(=O)CN3CCN(CC3)CCCC4=CNC5=C4C=C(C=C5)F

> <PUBCHEM_OPENEYE_ISO_SMILES>
C1CCC(CC1)N(C2=CC=CC=C2)C(=O)CN3CCN(CC3)CCCC4=CNC5=C4C=C(C=C5)F

> <PUBCHEM_CACTVS_TPSA>
42.6

> <PUBCHEM_MONOISOTOPIC_WEIGHT>
476.29513998

> <PUBCHEM_TOTAL_CHARGE>
0

> <PUBCHEM_HEAVY_ATOM_COUNT>
35

> <PUBCHEM_ATOM_DEF_STEREO_COUNT>
0

> <PUBCHEM_ATOM_UDEF_STEREO_COUNT>
0

> <PUBCHEM_BOND_DEF_STEREO_COUNT>
0

> <PUBCHEM_BOND_UDEF_STEREO_COUNT>
0

> <PUBCHEM_ISOTOPIC_ATOM_COUNT>
0

> <PUBCHEM_COMPONENT_COUNT>
1

> <PUBCHEM_CACTVS_TAUTO_COUNT>
-1

> <PUBCHEM_COORDINATE_TYPE>
1
5
255

> <PUBCHEM_BONDANNOTATIONS>
20  23  8
20  24  8
23  27  8
24  28  8
25  26  8
25  29  8
26  30  8
26  32  8
27  31  8
28  31  8
30  33  8
32  34  8
33  35  8
34  35  8
6  29  8
6  30  8

$$$$
