155533850
  -OEChem-09292322412D

 73 78  0     1  0  0  0  0  0999 V2000
    4.6660    5.2500    0.0000 Cl  0  0  0  0  0  0  0  0  0  0  0  0
    4.6660   -1.7500    0.0000 O   0  0  0  0  0  0  0  0  0  0  0  0
    6.3981    1.2500    0.0000 O   0  0  0  0  0  0  0  0  0  0  0  0
    8.1301   -3.7500    0.0000 N   0  0  3  0  0  0  0  0  0  0  0  0
    3.8000   -0.2500    0.0000 N   0  0  0  0  0  0  0  0  0  0  0  0
    5.5321   -0.2500    0.0000 N   0  0  0  0  0  0  0  0  0  0  0  0
   11.8031   -2.0521    0.0000 N   0  0  0  0  0  0  0  0  0  0  0  0
    9.8622   -3.7500    0.0000 C   0  0  3  0  0  0  0  0  0  0  0  0
    8.9962   -3.2500    0.0000 C   0  0  0  0  0  0  0  0  0  0  0  0
    9.8622   -4.7500    0.0000 C   0  0  0  0  0  0  0  0  0  0  0  0
    8.9962   -5.2500    0.0000 C   0  0  0  0  0  0  0  0  0  0  0  0
    8.1301   -4.7500    0.0000 C   0  0  0  0  0  0  0  0  0  0  0  0
    7.2641   -3.2500    0.0000 C   0  0  0  0  0  0  0  0  0  0  0  0
   10.7282   -3.2500    0.0000 C   0  0  0  0  0  0  0  0  0  0  0  0
    7.2641   -2.2500    0.0000 C   0  0  0  0  0  0  0  0  0  0  0  0
    6.3981   -1.7500    0.0000 C   0  0  0  0  0  0  0  0  0  0  0  0
   11.6360   -3.6551    0.0000 C   0  0  0  0  0  0  0  0  0  0  0  0
   10.8313   -2.2613    0.0000 C   0  0  0  0  0  0  0  0  0  0  0  0
    6.3981   -0.7500    0.0000 C   0  0  0  0  0  0  0  0  0  0  0  0
    3.8000    0.7500    0.0000 C   0  0  0  0  0  0  0  0  0  0  0  0
    2.9061    1.2847    0.0000 C   0  0  0  0  0  0  0  0  0  0  0  0
    2.9061   -0.7847    0.0000 C   0  0  0  0  0  0  0  0  0  0  0  0
    2.0000    0.7708    0.0000 C   0  0  0  0  0  0  0  0  0  0  0  0
    2.0000   -0.2708    0.0000 C   0  0  0  0  0  0  0  0  0  0  0  0
   12.3038   -2.9108    0.0000 C   0  0  0  0  0  0  0  0  0  0  0  0
    4.6660    1.2500    0.0000 C   0  0  0  0  0  0  0  0  0  0  0  0
    4.6660   -0.7500    0.0000 C   0  0  0  0  0  0  0  0  0  0  0  0
    5.5321    0.7500    0.0000 C   0  0  0  0  0  0  0  0  0  0  0  0
   11.9467   -4.6056    0.0000 C   0  0  0  0  0  0  0  0  0  0  0  0
   13.2823   -3.1170    0.0000 C   0  0  0  0  0  0  0  0  0  0  0  0
    4.6660    2.2500    0.0000 C   0  0  0  0  0  0  0  0  0  0  0  0
   12.9252   -4.8118    0.0000 C   0  0  0  0  0  0  0  0  0  0  0  0
   13.5930   -4.0676    0.0000 C   0  0  0  0  0  0  0  0  0  0  0  0
    3.8000    2.7500    0.0000 C   0  0  0  0  0  0  0  0  0  0  0  0
    5.5321    2.7500    0.0000 C   0  0  0  0  0  0  0  0  0  0  0  0
    3.8000    3.7500    0.0000 C   0  0  0  0  0  0  0  0  0  0  0  0
    5.5321    3.7500    0.0000 C   0  0  0  0  0  0  0  0  0  0  0  0
    4.6660    4.2500    0.0000 C   0  0  0  0  0  0  0  0  0  0  0  0
    9.8622   -3.1300    0.0000 H   0  0  0  0  0  0  0  0  0  0  0  0
    9.3947   -2.7750    0.0000 H   0  0  0  0  0  0  0  0  0  0  0  0
    8.5976   -2.7750    0.0000 H   0  0  0  0  0  0  0  0  0  0  0  0
   10.0742   -5.3326    0.0000 H   0  0  0  0  0  0  0  0  0  0  0  0
   10.4728   -4.6423    0.0000 H   0  0  0  0  0  0  0  0  0  0  0  0
    8.5976   -5.7250    0.0000 H   0  0  0  0  0  0  0  0  0  0  0  0
    9.3947   -5.7250    0.0000 H   0  0  0  0  0  0  0  0  0  0  0  0
    7.5196   -4.6423    0.0000 H   0  0  0  0  0  0  0  0  0  0  0  0
    7.9181   -5.3326    0.0000 H   0  0  0  0  0  0  0  0  0  0  0  0
    6.6535   -3.1423    0.0000 H   0  0  0  0  0  0  0  0  0  0  0  0
    7.0521   -3.8326    0.0000 H   0  0  0  0  0  0  0  0  0  0  0  0
    7.8747   -2.3577    0.0000 H   0  0  0  0  0  0  0  0  0  0  0  0
    7.4762   -1.6674    0.0000 H   0  0  0  0  0  0  0  0  0  0  0  0
    5.7875   -1.6423    0.0000 H   0  0  0  0  0  0  0  0  0  0  0  0
    6.1860   -2.3326    0.0000 H   0  0  0  0  0  0  0  0  0  0  0  0
    7.0087   -0.8577    0.0000 H   0  0  0  0  0  0  0  0  0  0  0  0
    6.6101   -0.1674    0.0000 H   0  0  0  0  0  0  0  0  0  0  0  0
   10.3698   -1.8472    0.0000 H   0  0  0  0  0  0  0  0  0  0  0  0
    3.3107    1.7544    0.0000 H   0  0  0  0  0  0  0  0  0  0  0  0
    2.5124    1.7637    0.0000 H   0  0  0  0  0  0  0  0  0  0  0  0
    2.5124   -1.2637    0.0000 H   0  0  0  0  0  0  0  0  0  0  0  0
    3.3107   -1.2544    0.0000 H   0  0  0  0  0  0  0  0  0  0  0  0
    1.7909    1.3545    0.0000 H   0  0  0  0  0  0  0  0  0  0  0  0
    1.3891    0.6647    0.0000 H   0  0  0  0  0  0  0  0  0  0  0  0
    1.3891   -0.1647    0.0000 H   0  0  0  0  0  0  0  0  0  0  0  0
    1.7909   -0.8545    0.0000 H   0  0  0  0  0  0  0  0  0  0  0  0
   12.0533   -1.4848    0.0000 H   0  0  0  0  0  0  0  0  0  0  0  0
   11.5326   -5.0671    0.0000 H   0  0  0  0  0  0  0  0  0  0  0  0
   13.6964   -2.6556    0.0000 H   0  0  0  0  0  0  0  0  0  0  0  0
   13.1178   -5.4012    0.0000 H   0  0  0  0  0  0  0  0  0  0  0  0
   14.1997   -4.1954    0.0000 H   0  0  0  0  0  0  0  0  0  0  0  0
    3.2631    2.4400    0.0000 H   0  0  0  0  0  0  0  0  0  0  0  0
    6.0690    2.4400    0.0000 H   0  0  0  0  0  0  0  0  0  0  0  0
    3.2631    4.0600    0.0000 H   0  0  0  0  0  0  0  0  0  0  0  0
    6.0690    4.0600    0.0000 H   0  0  0  0  0  0  0  0  0  0  0  0
  1 38  1  0  0  0  0
  2 27  2  0  0  0  0
  3 28  2  0  0  0  0
  4  9  1  0  0  0  0
  4 12  1  0  0  0  0
  4 13  1  0  0  0  0
  5 20  1  0  0  0  0
  5 22  1  0  0  0  0
  5 27  1  0  0  0  0
  6 19  1  0  0  0  0
  6 27  1  0  0  0  0
  6 28  1  0  0  0  0
  7 18  1  0  0  0  0
  7 25  1  0  0  0  0
  7 65  1  0  0  0  0
  8  9  1  0  0  0  0
  8 10  1  0  0  0  0
  8 14  1  0  0  0  0
  8 39  1  0  0  0  0
  9 40  1  0  0  0  0
  9 41  1  0  0  0  0
 10 11  1  0  0  0  0
 10 42  1  0  0  0  0
 10 43  1  0  0  0  0
 11 12  1  0  0  0  0
 11 44  1  0  0  0  0
 11 45  1  0  0  0  0
 12 46  1  0  0  0  0
 12 47  1  0  0  0  0
 13 15  1  0  0  0  0
 13 48  1  0  0  0  0
 13 49  1  0  0  0  0
 14 17  1  0  0  0  0
 14 18  2  0  0  0  0
 15 16  1  0  0  0  0
 15 50  1  0  0  0  0
 15 51  1  0  0  0  0
 16 19  1  0  0  0  0
 16 52  1  0  0  0  0
 16 53  1  0  0  0  0
 17 25  1  0  0  0  0
 17 29  2  0  0  0  0
 18 56  1  0  0  0  0
 19 54  1  0  0  0  0
 19 55  1  0  0  0  0
 20 21  1  0  0  0  0
 20 26  2  0  0  0  0
 21 23  1  0  0  0  0
 21 57  1  0  0  0  0
 21 58  1  0  0  0  0
 22 24  1  0  0  0  0
 22 59  1  0  0  0  0
 22 60  1  0  0  0  0
 23 24  1  0  0  0  0
 23 61  1  0  0  0  0
 23 62  1  0  0  0  0
 24 63  1  0  0  0  0
 24 64  1  0  0  0  0
 25 30  2  0  0  0  0
 26 28  1  0  0  0  0
 26 31  1  0  0  0  0
 29 32  1  0  0  0  0
 29 66  1  0  0  0  0
 30 33  1  0  0  0  0
 30 67  1  0  0  0  0
 31 34  2  0  0  0  0
 31 35  1  0  0  0  0
 32 33  2  0  0  0  0
 32 68  1  0  0  0  0
 33 69  1  0  0  0  0
 34 36  1  0  0  0  0
 34 70  1  0  0  0  0
 35 37  2  0  0  0  0
 35 71  1  0  0  0  0
 36 38  2  0  0  0  0
 36 72  1  0  0  0  0
 37 38  1  0  0  0  0
 37 73  1  0  0  0  0
M  END
> <PUBCHEM_COMPOUND_CID>
155533850

> <PUBCHEM_COMPOUND_CANONICALIZED>
1

> <PUBCHEM_CACTVS_COMPLEXITY>
900

> <PUBCHEM_CACTVS_HBOND_ACCEPTOR>
3

> <PUBCHEM_CACTVS_HBOND_DONOR>
1

> <PUBCHEM_CACTVS_ROTATABLE_BOND>
7

> <PUBCHEM_CACTVS_SUBSKEYS>
AAADcfB7sAAEAAAAAAAAAAAAAAAAAWAAAAA8eIECAAAAAFiB9AAAHgIQAAAADQrBniQ9wPPJkACoAzV3VACCgCAxByAI2aE4ZtiIIPLBl5GEIAholyLIyUcYiMCOhAAAAAACAAAIAAAAAAQAAAAAAAAAAA==

> <PUBCHEM_IUPAC_OPENEYE_NAME>
4-(4-chlorophenyl)-2-[4-[3-(1H-indol-3-yl)-1-piperidyl]butyl]-5,6,7,8-tetrahydropyrido[1,2-c]pyrimidine-1,3-dione

> <PUBCHEM_IUPAC_CAS_NAME>
4-(4-chlorophenyl)-2-[4-[3-(1H-indol-3-yl)-1-piperidinyl]butyl]-5,6,7,8-tetrahydropyrido[1,2-c]pyrimidine-1,3-dione

> <PUBCHEM_IUPAC_NAME_MARKUP>
4-(4-chlorophenyl)-2-[4-[3-(1<I>H</I>-indol-3-yl)piperidin-1-yl]butyl]-5,6,7,8-tetrahydropyrido[1,2-c]pyrimidine-1,3-dione

> <PUBCHEM_IUPAC_NAME>
4-(4-chlorophenyl)-2-[4-[3-(1H-indol-3-yl)piperidin-1-yl]butyl]-5,6,7,8-tetrahydropyrido[1,2-c]pyrimidine-1,3-dione

> <PUBCHEM_IUPAC_SYSTEMATIC_NAME>
4-(4-chlorophenyl)-2-[4-[3-(1H-indol-3-yl)piperidin-1-yl]butyl]-5,6,7,8-tetrahydropyrido[1,2-c]pyrimidine-1,3-dione

> <PUBCHEM_IUPAC_TRADITIONAL_NAME>
4-(4-chlorophenyl)-2-[4-[3-(1H-indol-3-yl)piperidino]butyl]-5,6,7,8-tetrahydropyrido[1,2-c]pyrimidine-1,3-quinone

> <PUBCHEM_IUPAC_INCHI>
InChI=1S/C31H35ClN4O2/c32-24-14-12-22(13-15-24)29-28-11-3-4-18-35(28)31(38)36(30(29)37)19-6-5-16-34-17-7-8-23(21-34)26-20-33-27-10-2-1-9-25(26)27/h1-2,9-10,12-15,20,23,33H,3-8,11,16-19,21H2

> <PUBCHEM_IUPAC_INCHIKEY>
SRUJXUCEPJSKMZ-UHFFFAOYSA-N

> <PUBCHEM_XLOGP3_AA>
5.5

> <PUBCHEM_EXACT_MASS>
530.2448541

> <PUBCHEM_MOLECULAR_FORMULA>
C31H35ClN4O2

> <PUBCHEM_MOLECULAR_WEIGHT>
531.1

> <PUBCHEM_OPENEYE_CAN_SMILES>
C1CCN2C(=C(C(=O)N(C2=O)CCCCN3CCCC(C3)C4=CNC5=CC=CC=C54)C6=CC=C(C=C6)Cl)C1

> <PUBCHEM_OPENEYE_ISO_SMILES>
C1CCN2C(=C(C(=O)N(C2=O)CCCCN3CCCC(C3)C4=CNC5=CC=CC=C54)C6=CC=C(C=C6)Cl)C1

> <PUBCHEM_CACTVS_TPSA>
59.6

> <PUBCHEM_MONOISOTOPIC_WEIGHT>
530.2448541

> <PUBCHEM_TOTAL_CHARGE>
0

> <PUBCHEM_HEAVY_ATOM_COUNT>
38

> <PUBCHEM_ATOM_DEF_STEREO_COUNT>
0

> <PUBCHEM_ATOM_UDEF_STEREO_COUNT>
1

> <PUBCHEM_BOND_DEF_STEREO_COUNT>
0

> <PUBCHEM_BOND_UDEF_STEREO_COUNT>
0

> <PUBCHEM_ISOTOPIC_ATOM_COUNT>
0

> <PUBCHEM_COMPONENT_COUNT>
1

> <PUBCHEM_CACTVS_TAUTO_COUNT>
-1

> <PUBCHEM_COORDINATE_TYPE>
1
5
255

> <PUBCHEM_BONDANNOTATIONS>
14  17  8
14  18  8
17  25  8
17  29  8
20  26  8
25  30  8
26  28  8
29  32  8
30  33  8
31  34  8
31  35  8
32  33  8
34  36  8
35  37  8
36  38  8
37  38  8
5  20  8
5  27  8
6  27  8
6  28  8
7  18  8
7  25  8
8  14  3

$$$$
