44409891
  -OEChem-09292322272D

 72 73  0     0  0  0  0  0  0999 V2000
    3.3660   -6.9330    0.0000 F   0  0  0  0  0  0  0  0  0  0  0  0
    2.0000   -6.5670    0.0000 F   0  0  0  0  0  0  0  0  0  0  0  0
    2.3660   -5.2010    0.0000 F   0  0  0  0  0  0  0  0  0  0  0  0
    8.0622    2.9330    0.0000 O   0  0  0  0  0  0  0  0  0  0  0  0
    4.5981   -1.0670    0.0000 N   0  0  0  0  0  0  0  0  0  0  0  0
    4.5981   -3.0670    0.0000 N   0  0  0  0  0  0  0  0  0  0  0  0
    5.4641   -4.5670    0.0000 N   0  0  0  0  0  0  0  0  0  0  0  0
    6.3301    2.9330    0.0000 N   0  0  0  0  0  0  0  0  0  0  0  0
    4.5981   -6.0670    0.0000 N   0  0  0  0  0  0  0  0  0  0  0  0
    7.1962    4.4330    0.0000 N   0  0  0  0  0  0  0  0  0  0  0  0
    5.4641   -1.5670    0.0000 C   0  0  0  0  0  0  0  0  0  0  0  0
    3.7320   -1.5670    0.0000 C   0  0  0  0  0  0  0  0  0  0  0  0
    5.4641   -2.5670    0.0000 C   0  0  0  0  0  0  0  0  0  0  0  0
    3.7320   -2.5670    0.0000 C   0  0  0  0  0  0  0  0  0  0  0  0
    4.5981   -0.0670    0.0000 C   0  0  0  0  0  0  0  0  0  0  0  0
    5.4641    0.4330    0.0000 C   0  0  0  0  0  0  0  0  0  0  0  0
    4.5981   -4.0670    0.0000 C   0  0  0  0  0  0  0  0  0  0  0  0
    5.4641    1.4330    0.0000 C   0  0  0  0  0  0  0  0  0  0  0  0
    6.3301   -6.0670    0.0000 C   0  0  0  0  0  0  0  0  0  0  0  0
    6.3301    1.9330    0.0000 C   0  0  0  0  0  0  0  0  0  0  0  0
    8.0622    5.9330    0.0000 C   0  0  0  0  0  0  0  0  0  0  0  0
    5.4641   -5.5670    0.0000 C   0  0  0  0  0  0  0  0  0  0  0  0
    3.7320   -4.5670    0.0000 C   0  0  0  0  0  0  0  0  0  0  0  0
    8.0622    4.9330    0.0000 C   0  0  0  0  0  0  0  0  0  0  0  0
    3.7320   -5.5670    0.0000 C   0  0  0  0  0  0  0  0  0  0  0  0
    7.1962   -6.5670    0.0000 C   0  0  0  0  0  0  0  0  0  0  0  0
    5.8301   -6.9330    0.0000 C   0  0  0  0  0  0  0  0  0  0  0  0
    6.8301   -5.2010    0.0000 C   0  0  0  0  0  0  0  0  0  0  0  0
    8.0622    6.9330    0.0000 C   0  0  0  0  0  0  0  0  0  0  0  0
    9.0622    5.9330    0.0000 C   0  0  0  0  0  0  0  0  0  0  0  0
    7.0622    5.9330    0.0000 C   0  0  0  0  0  0  0  0  0  0  0  0
    7.1962    3.4330    0.0000 C   0  0  0  0  0  0  0  0  0  0  0  0
    2.8660   -6.0670    0.0000 C   0  0  0  0  0  0  0  0  0  0  0  0
    6.0747   -1.6746    0.0000 H   0  0  0  0  0  0  0  0  0  0  0  0
    5.6762   -0.9844    0.0000 H   0  0  0  0  0  0  0  0  0  0  0  0
    3.5200   -0.9844    0.0000 H   0  0  0  0  0  0  0  0  0  0  0  0
    3.1215   -1.6746    0.0000 H   0  0  0  0  0  0  0  0  0  0  0  0
    5.6762   -3.1496    0.0000 H   0  0  0  0  0  0  0  0  0  0  0  0
    6.0747   -2.4593    0.0000 H   0  0  0  0  0  0  0  0  0  0  0  0
    3.1215   -2.4593    0.0000 H   0  0  0  0  0  0  0  0  0  0  0  0
    3.5200   -3.1496    0.0000 H   0  0  0  0  0  0  0  0  0  0  0  0
    4.3860    0.5156    0.0000 H   0  0  0  0  0  0  0  0  0  0  0  0
    3.9875   -0.1746    0.0000 H   0  0  0  0  0  0  0  0  0  0  0  0
    5.6762   -0.1496    0.0000 H   0  0  0  0  0  0  0  0  0  0  0  0
    6.0747    0.5407    0.0000 H   0  0  0  0  0  0  0  0  0  0  0  0
    5.2520    2.0156    0.0000 H   0  0  0  0  0  0  0  0  0  0  0  0
    4.8535    1.3254    0.0000 H   0  0  0  0  0  0  0  0  0  0  0  0
    6.5422    1.3504    0.0000 H   0  0  0  0  0  0  0  0  0  0  0  0
    6.9407    2.0407    0.0000 H   0  0  0  0  0  0  0  0  0  0  0  0
    3.1951   -4.2570    0.0000 H   0  0  0  0  0  0  0  0  0  0  0  0
    8.2742    4.3504    0.0000 H   0  0  0  0  0  0  0  0  0  0  0  0
    8.6728    5.0407    0.0000 H   0  0  0  0  0  0  0  0  0  0  0  0
    6.8862   -7.1039    0.0000 H   0  0  0  0  0  0  0  0  0  0  0  0
    7.7331   -6.8770    0.0000 H   0  0  0  0  0  0  0  0  0  0  0  0
    7.5062   -6.0300    0.0000 H   0  0  0  0  0  0  0  0  0  0  0  0
    5.2932   -6.6230    0.0000 H   0  0  0  0  0  0  0  0  0  0  0  0
    5.5201   -7.4700    0.0000 H   0  0  0  0  0  0  0  0  0  0  0  0
    6.3671   -7.2430    0.0000 H   0  0  0  0  0  0  0  0  0  0  0  0
    7.3671   -5.5110    0.0000 H   0  0  0  0  0  0  0  0  0  0  0  0
    7.1401   -4.6640    0.0000 H   0  0  0  0  0  0  0  0  0  0  0  0
    6.2932   -4.8910    0.0000 H   0  0  0  0  0  0  0  0  0  0  0  0
    5.7932    3.2430    0.0000 H   0  0  0  0  0  0  0  0  0  0  0  0
    8.6822    6.9330    0.0000 H   0  0  0  0  0  0  0  0  0  0  0  0
    8.0622    7.5530    0.0000 H   0  0  0  0  0  0  0  0  0  0  0  0
    7.4422    6.9330    0.0000 H   0  0  0  0  0  0  0  0  0  0  0  0
    9.0622    5.3130    0.0000 H   0  0  0  0  0  0  0  0  0  0  0  0
    9.6822    5.9330    0.0000 H   0  0  0  0  0  0  0  0  0  0  0  0
    9.0622    6.5530    0.0000 H   0  0  0  0  0  0  0  0  0  0  0  0
    7.0622    6.5530    0.0000 H   0  0  0  0  0  0  0  0  0  0  0  0
    6.4422    5.9330    0.0000 H   0  0  0  0  0  0  0  0  0  0  0  0
    7.0622    5.3130    0.0000 H   0  0  0  0  0  0  0  0  0  0  0  0
    6.6592    4.7430    0.0000 H   0  0  0  0  0  0  0  0  0  0  0  0
  1 33  1  0  0  0  0
  2 33  1  0  0  0  0
  3 33  1  0  0  0  0
  4 32  2  0  0  0  0
  5 11  1  0  0  0  0
  5 12  1  0  0  0  0
  5 15  1  0  0  0  0
  6 13  1  0  0  0  0
  6 14  1  0  0  0  0
  6 17  1  0  0  0  0
  7 17  2  0  0  0  0
  7 22  1  0  0  0  0
  8 20  1  0  0  0  0
  8 32  1  0  0  0  0
  8 62  1  0  0  0  0
  9 22  2  0  0  0  0
  9 25  1  0  0  0  0
 10 24  1  0  0  0  0
 10 32  1  0  0  0  0
 10 72  1  0  0  0  0
 11 13  1  0  0  0  0
 11 34  1  0  0  0  0
 11 35  1  0  0  0  0
 12 14  1  0  0  0  0
 12 36  1  0  0  0  0
 12 37  1  0  0  0  0
 13 38  1  0  0  0  0
 13 39  1  0  0  0  0
 14 40  1  0  0  0  0
 14 41  1  0  0  0  0
 15 16  1  0  0  0  0
 15 42  1  0  0  0  0
 15 43  1  0  0  0  0
 16 18  1  0  0  0  0
 16 44  1  0  0  0  0
 16 45  1  0  0  0  0
 17 23  1  0  0  0  0
 18 20  1  0  0  0  0
 18 46  1  0  0  0  0
 18 47  1  0  0  0  0
 19 22  1  0  0  0  0
 19 26  1  0  0  0  0
 19 27  1  0  0  0  0
 19 28  1  0  0  0  0
 20 48  1  0  0  0  0
 20 49  1  0  0  0  0
 21 24  1  0  0  0  0
 21 29  1  0  0  0  0
 21 30  1  0  0  0  0
 21 31  1  0  0  0  0
 23 25  2  0  0  0  0
 23 50  1  0  0  0  0
 24 51  1  0  0  0  0
 24 52  1  0  0  0  0
 25 33  1  0  0  0  0
 26 53  1  0  0  0  0
 26 54  1  0  0  0  0
 26 55  1  0  0  0  0
 27 56  1  0  0  0  0
 27 57  1  0  0  0  0
 27 58  1  0  0  0  0
 28 59  1  0  0  0  0
 28 60  1  0  0  0  0
 28 61  1  0  0  0  0
 29 63  1  0  0  0  0
 29 64  1  0  0  0  0
 29 65  1  0  0  0  0
 30 66  1  0  0  0  0
 30 67  1  0  0  0  0
 30 68  1  0  0  0  0
 31 69  1  0  0  0  0
 31 70  1  0  0  0  0
 31 71  1  0  0  0  0
M  END
> <PUBCHEM_COMPOUND_CID>
44409891

> <PUBCHEM_COMPOUND_CANONICALIZED>
1

> <PUBCHEM_CACTVS_COMPLEXITY>
609

> <PUBCHEM_CACTVS_HBOND_ACCEPTOR>
8

> <PUBCHEM_CACTVS_HBOND_DONOR>
2

> <PUBCHEM_CACTVS_ROTATABLE_BOND>
9

> <PUBCHEM_CACTVS_SUBSKEYS>
AAADcfB7oYAAAAAAAAAAAAAAAAAAAAAAAAAsWAAAAAAAAAABgAAAHwAQAAAADgjBFxQzsJfIEACoASZidACAgCkhAqABGKA4ZBiAaABAyMAUBAhIFgLAQCAAAAAAAAAAAAAAAAAAAAAAAAAAAAAAAAAAAA==

> <PUBCHEM_IUPAC_OPENEYE_NAME>
1-[4-[4-[2-tert-butyl-6-(trifluoromethyl)pyrimidin-4-yl]piperazin-1-yl]butyl]-3-(2,2-dimethylpropyl)urea

> <PUBCHEM_IUPAC_CAS_NAME>
1-[4-[4-[2-tert-butyl-6-(trifluoromethyl)-4-pyrimidinyl]-1-piperazinyl]butyl]-3-(2,2-dimethylpropyl)urea

> <PUBCHEM_IUPAC_NAME_MARKUP>
1-[4-[4-[2-<I>tert</I>-butyl-6-(trifluoromethyl)pyrimidin-4-yl]piperazin-1-yl]butyl]-3-(2,2-dimethylpropyl)urea

> <PUBCHEM_IUPAC_NAME>
1-[4-[4-[2-tert-butyl-6-(trifluoromethyl)pyrimidin-4-yl]piperazin-1-yl]butyl]-3-(2,2-dimethylpropyl)urea

> <PUBCHEM_IUPAC_SYSTEMATIC_NAME>
1-[4-[4-[2-tert-butyl-6-(trifluoromethyl)pyrimidin-4-yl]piperazin-1-yl]butyl]-3-(2,2-dimethylpropyl)urea

> <PUBCHEM_IUPAC_TRADITIONAL_NAME>
1-[4-[4-[2-tert-butyl-6-(trifluoromethyl)pyrimidin-4-yl]piperazino]butyl]-3-neopentyl-urea

> <PUBCHEM_IUPAC_INCHI>
InChI=1S/C23H39F3N6O/c1-21(2,3)16-28-20(33)27-9-7-8-10-31-11-13-32(14-12-31)18-15-17(23(24,25)26)29-19(30-18)22(4,5)6/h15H,7-14,16H2,1-6H3,(H2,27,28,33)

> <PUBCHEM_IUPAC_INCHIKEY>
PCPMHRDGGJEPAZ-UHFFFAOYSA-N

> <PUBCHEM_XLOGP3_AA>
4.7

> <PUBCHEM_EXACT_MASS>
472.31374437

> <PUBCHEM_MOLECULAR_FORMULA>
C23H39F3N6O

> <PUBCHEM_MOLECULAR_WEIGHT>
472.6

> <PUBCHEM_OPENEYE_CAN_SMILES>
CC(C)(C)CNC(=O)NCCCCN1CCN(CC1)C2=NC(=NC(=C2)C(F)(F)F)C(C)(C)C

> <PUBCHEM_OPENEYE_ISO_SMILES>
CC(C)(C)CNC(=O)NCCCCN1CCN(CC1)C2=NC(=NC(=C2)C(F)(F)F)C(C)(C)C

> <PUBCHEM_CACTVS_TPSA>
73.4

> <PUBCHEM_MONOISOTOPIC_WEIGHT>
472.31374437

> <PUBCHEM_TOTAL_CHARGE>
0

> <PUBCHEM_HEAVY_ATOM_COUNT>
33

> <PUBCHEM_ATOM_DEF_STEREO_COUNT>
0

> <PUBCHEM_ATOM_UDEF_STEREO_COUNT>
0

> <PUBCHEM_BOND_DEF_STEREO_COUNT>
0

> <PUBCHEM_BOND_UDEF_STEREO_COUNT>
0

> <PUBCHEM_ISOTOPIC_ATOM_COUNT>
0

> <PUBCHEM_COMPONENT_COUNT>
1

> <PUBCHEM_CACTVS_TAUTO_COUNT>
-1

> <PUBCHEM_COORDINATE_TYPE>
1
5
255

> <PUBCHEM_BONDANNOTATIONS>
17  23  8
23  25  8
7  17  8
7  22  8
9  22  8
9  25  8

$$$$
