155535732
  -OEChem-09292322092D

 59 62  0     0  0  0  0  0  0999 V2000
    8.0981    4.0670    0.0000 Cl  0  0  0  0  0  0  0  0  0  0  0  0
    2.8660   -5.7990    0.0000 F   0  0  0  0  0  0  0  0  0  0  0  0
    4.0981    4.0670    0.0000 O   0  0  0  0  0  0  0  0  0  0  0  0
    2.0000   -1.2990    0.0000 O   0  0  0  0  0  0  0  0  0  0  0  0
    4.5981    1.2010    0.0000 N   0  0  0  0  0  0  0  0  0  0  0  0
    4.5981    3.2010    0.0000 C   0  0  0  0  0  0  0  0  0  0  0  0
    5.4641    2.7010    0.0000 C   0  0  0  0  0  0  0  0  0  0  0  0
    3.7320    2.7010    0.0000 C   0  0  0  0  0  0  0  0  0  0  0  0
    5.4641    1.7010    0.0000 C   0  0  0  0  0  0  0  0  0  0  0  0
    3.7320    1.7010    0.0000 C   0  0  0  0  0  0  0  0  0  0  0  0
    5.0981    4.0670    0.0000 C   0  0  0  0  0  0  0  0  0  0  0  0
    4.5981    0.2010    0.0000 C   0  0  0  0  0  0  0  0  0  0  0  0
    3.7320   -0.2990    0.0000 C   0  0  0  0  0  0  0  0  0  0  0  0
    6.0981    4.0670    0.0000 C   0  0  0  0  0  0  0  0  0  0  0  0
    4.5981    4.9330    0.0000 C   0  0  0  0  0  0  0  0  0  0  0  0
    3.7320   -1.2990    0.0000 C   0  0  0  0  0  0  0  0  0  0  0  0
    6.5981    4.9330    0.0000 C   0  0  0  0  0  0  0  0  0  0  0  0
    6.5981    3.2010    0.0000 C   0  0  0  0  0  0  0  0  0  0  0  0
    5.0981    5.7990    0.0000 C   0  0  0  0  0  0  0  0  0  0  0  0
    6.0981    5.7990    0.0000 C   0  0  0  0  0  0  0  0  0  0  0  0
    2.8660   -1.7990    0.0000 C   0  0  0  0  0  0  0  0  0  0  0  0
    7.5981    3.2010    0.0000 C   0  0  0  0  0  0  0  0  0  0  0  0
    6.0981    2.3349    0.0000 C   0  0  0  0  0  0  0  0  0  0  0  0
    2.8660   -2.7990    0.0000 C   0  0  0  0  0  0  0  0  0  0  0  0
    8.0981    2.3349    0.0000 C   0  0  0  0  0  0  0  0  0  0  0  0
    6.5981    1.4689    0.0000 C   0  0  0  0  0  0  0  0  0  0  0  0
    7.5981    1.4689    0.0000 C   0  0  0  0  0  0  0  0  0  0  0  0
    3.7320   -3.2990    0.0000 C   0  0  0  0  0  0  0  0  0  0  0  0
    2.0000   -3.2990    0.0000 C   0  0  0  0  0  0  0  0  0  0  0  0
    3.7320   -4.2990    0.0000 C   0  0  0  0  0  0  0  0  0  0  0  0
    2.0000   -4.2990    0.0000 C   0  0  0  0  0  0  0  0  0  0  0  0
    2.8660   -4.7990    0.0000 C   0  0  0  0  0  0  0  0  0  0  0  0
    6.0747    2.5933    0.0000 H   0  0  0  0  0  0  0  0  0  0  0  0
    5.6762    3.2836    0.0000 H   0  0  0  0  0  0  0  0  0  0  0  0
    3.5200    3.2836    0.0000 H   0  0  0  0  0  0  0  0  0  0  0  0
    3.1215    2.5933    0.0000 H   0  0  0  0  0  0  0  0  0  0  0  0
    5.6762    1.1184    0.0000 H   0  0  0  0  0  0  0  0  0  0  0  0
    6.0747    1.8086    0.0000 H   0  0  0  0  0  0  0  0  0  0  0  0
    3.1215    1.8086    0.0000 H   0  0  0  0  0  0  0  0  0  0  0  0
    3.5200    1.1184    0.0000 H   0  0  0  0  0  0  0  0  0  0  0  0
    4.8101   -0.3816    0.0000 H   0  0  0  0  0  0  0  0  0  0  0  0
    5.2087    0.3086    0.0000 H   0  0  0  0  0  0  0  0  0  0  0  0
    3.5200    0.2836    0.0000 H   0  0  0  0  0  0  0  0  0  0  0  0
    3.1215   -0.4067    0.0000 H   0  0  0  0  0  0  0  0  0  0  0  0
    3.4781    4.0670    0.0000 H   0  0  0  0  0  0  0  0  0  0  0  0
    3.9781    4.9330    0.0000 H   0  0  0  0  0  0  0  0  0  0  0  0
    3.9441   -1.8816    0.0000 H   0  0  0  0  0  0  0  0  0  0  0  0
    4.3426   -1.1914    0.0000 H   0  0  0  0  0  0  0  0  0  0  0  0
    7.2181    4.9330    0.0000 H   0  0  0  0  0  0  0  0  0  0  0  0
    4.7881    6.3360    0.0000 H   0  0  0  0  0  0  0  0  0  0  0  0
    6.4081    6.3360    0.0000 H   0  0  0  0  0  0  0  0  0  0  0  0
    5.4781    2.3349    0.0000 H   0  0  0  0  0  0  0  0  0  0  0  0
    8.7181    2.3349    0.0000 H   0  0  0  0  0  0  0  0  0  0  0  0
    6.2881    0.9320    0.0000 H   0  0  0  0  0  0  0  0  0  0  0  0
    7.9081    0.9320    0.0000 H   0  0  0  0  0  0  0  0  0  0  0  0
    4.2690   -2.9890    0.0000 H   0  0  0  0  0  0  0  0  0  0  0  0
    1.4631   -2.9890    0.0000 H   0  0  0  0  0  0  0  0  0  0  0  0
    4.2690   -4.6090    0.0000 H   0  0  0  0  0  0  0  0  0  0  0  0
    1.4631   -4.6090    0.0000 H   0  0  0  0  0  0  0  0  0  0  0  0
  1 22  1  0  0  0  0
  2 32  1  0  0  0  0
  3  6  1  0  0  0  0
  3 45  1  0  0  0  0
  4 21  2  0  0  0  0
  5  9  1  0  0  0  0
  5 10  1  0  0  0  0
  5 12  1  0  0  0  0
  6  7  1  0  0  0  0
  6  8  1  0  0  0  0
  6 11  1  0  0  0  0
  7  9  1  0  0  0  0
  7 33  1  0  0  0  0
  7 34  1  0  0  0  0
  8 10  1  0  0  0  0
  8 35  1  0  0  0  0
  8 36  1  0  0  0  0
  9 37  1  0  0  0  0
  9 38  1  0  0  0  0
 10 39  1  0  0  0  0
 10 40  1  0  0  0  0
 11 14  1  0  0  0  0
 11 15  2  0  0  0  0
 12 13  1  0  0  0  0
 12 41  1  0  0  0  0
 12 42  1  0  0  0  0
 13 16  1  0  0  0  0
 13 43  1  0  0  0  0
 13 44  1  0  0  0  0
 14 17  2  0  0  0  0
 14 18  1  0  0  0  0
 15 19  1  0  0  0  0
 15 46  1  0  0  0  0
 16 21  1  0  0  0  0
 16 47  1  0  0  0  0
 16 48  1  0  0  0  0
 17 20  1  0  0  0  0
 17 49  1  0  0  0  0
 18 22  1  0  0  0  0
 18 23  2  0  0  0  0
 19 20  2  0  0  0  0
 19 50  1  0  0  0  0
 20 51  1  0  0  0  0
 21 24  1  0  0  0  0
 22 25  2  0  0  0  0
 23 26  1  0  0  0  0
 23 52  1  0  0  0  0
 24 28  2  0  0  0  0
 24 29  1  0  0  0  0
 25 27  1  0  0  0  0
 25 53  1  0  0  0  0
 26 27  2  0  0  0  0
 26 54  1  0  0  0  0
 27 55  1  0  0  0  0
 28 30  1  0  0  0  0
 28 56  1  0  0  0  0
 29 31  2  0  0  0  0
 29 57  1  0  0  0  0
 30 32  2  0  0  0  0
 30 58  1  0  0  0  0
 31 32  1  0  0  0  0
 31 59  1  0  0  0  0
M  END
> <PUBCHEM_COMPOUND_CID>
155535732

> <PUBCHEM_COMPOUND_CANONICALIZED>
1

> <PUBCHEM_CACTVS_COMPLEXITY>
601

> <PUBCHEM_CACTVS_HBOND_ACCEPTOR>
4

> <PUBCHEM_CACTVS_HBOND_DONOR>
1

> <PUBCHEM_CACTVS_ROTATABLE_BOND>
7

> <PUBCHEM_CACTVS_SUBSKEYS>
AAADceB6MQAEAAAAAAAAAAAAAAAAAAAAAAA8YMEAAAAAAAABUAAAHwIACAAADEbBmCwwAIMAAgCIAqBSAAACAAAkBQAIiAEICsgIJjKBlxCEcQAmwAGImYecyOCOgAAAAAARAAAAAAAAACIAAAAAAAAAAA==

> <PUBCHEM_IUPAC_OPENEYE_NAME>
4-[4-[2-(2-chlorophenyl)phenyl]-4-hydroxy-1-piperidyl]-1-(4-fluorophenyl)butan-1-one

> <PUBCHEM_IUPAC_CAS_NAME>
4-[4-[2-(2-chlorophenyl)phenyl]-4-hydroxy-1-piperidinyl]-1-(4-fluorophenyl)-1-butanone

> <PUBCHEM_IUPAC_NAME_MARKUP>
4-[4-[2-(2-chlorophenyl)phenyl]-4-hydroxypiperidin-1-yl]-1-(4-fluorophenyl)butan-1-one

> <PUBCHEM_IUPAC_NAME>
4-[4-[2-(2-chlorophenyl)phenyl]-4-hydroxypiperidin-1-yl]-1-(4-fluorophenyl)butan-1-one

> <PUBCHEM_IUPAC_SYSTEMATIC_NAME>
4-[4-[2-(2-chlorophenyl)phenyl]-4-oxidanyl-piperidin-1-yl]-1-(4-fluorophenyl)butan-1-one

> <PUBCHEM_IUPAC_TRADITIONAL_NAME>
4-[4-[2-(2-chlorophenyl)phenyl]-4-hydroxy-piperidino]-1-(4-fluorophenyl)butan-1-one

> <PUBCHEM_IUPAC_INCHI>
InChI=1S/C27H27ClFNO2/c28-25-9-4-2-7-23(25)22-6-1-3-8-24(22)27(32)15-18-30(19-16-27)17-5-10-26(31)20-11-13-21(29)14-12-20/h1-4,6-9,11-14,32H,5,10,15-19H2

> <PUBCHEM_IUPAC_INCHIKEY>
OVCQEDRUDXVNFY-UHFFFAOYSA-N

> <PUBCHEM_XLOGP3_AA>
5.4

> <PUBCHEM_EXACT_MASS>
451.1714350

> <PUBCHEM_MOLECULAR_FORMULA>
C27H27ClFNO2

> <PUBCHEM_MOLECULAR_WEIGHT>
452.0

> <PUBCHEM_OPENEYE_CAN_SMILES>
C1CN(CCC1(C2=CC=CC=C2C3=CC=CC=C3Cl)O)CCCC(=O)C4=CC=C(C=C4)F

> <PUBCHEM_OPENEYE_ISO_SMILES>
C1CN(CCC1(C2=CC=CC=C2C3=CC=CC=C3Cl)O)CCCC(=O)C4=CC=C(C=C4)F

> <PUBCHEM_CACTVS_TPSA>
40.5

> <PUBCHEM_MONOISOTOPIC_WEIGHT>
451.1714350

> <PUBCHEM_TOTAL_CHARGE>
0

> <PUBCHEM_HEAVY_ATOM_COUNT>
32

> <PUBCHEM_ATOM_DEF_STEREO_COUNT>
0

> <PUBCHEM_ATOM_UDEF_STEREO_COUNT>
0

> <PUBCHEM_BOND_DEF_STEREO_COUNT>
0

> <PUBCHEM_BOND_UDEF_STEREO_COUNT>
0

> <PUBCHEM_ISOTOPIC_ATOM_COUNT>
0

> <PUBCHEM_COMPONENT_COUNT>
1

> <PUBCHEM_CACTVS_TAUTO_COUNT>
-1

> <PUBCHEM_COORDINATE_TYPE>
1
5
255

> <PUBCHEM_BONDANNOTATIONS>
11  14  8
11  15  8
14  17  8
15  19  8
17  20  8
18  22  8
18  23  8
19  20  8
22  25  8
23  26  8
24  28  8
24  29  8
25  27  8
26  27  8
28  30  8
29  31  8
30  32  8
31  32  8

$$$$
