21480687
  -OEChem-09292321582D

 58 62  0     1  0  0  0  0  0999 V2000
    2.0000   -0.4605    0.0000 Cl  0  0  0  0  0  0  0  0  0  0  0  0
    8.5253   -1.8108    0.0000 O   0  0  0  0  0  0  0  0  0  0  0  0
    6.1452   -0.1378    0.0000 N   0  0  0  0  0  0  0  0  0  0  0  0
    5.6969    1.5353    0.0000 C   0  0  3  0  0  0  0  0  0  0  0  0
    5.2191    3.4838    0.0000 C   0  0  0  0  0  0  0  0  0  0  0  0
    5.9557    2.5012    0.0000 C   0  0  3  0  0  0  0  0  0  0  0  0
    5.4380    0.5694    0.0000 C   0  0  0  0  0  0  0  0  0  0  0  0
    4.3242    0.9433    0.0000 C   0  0  0  0  0  0  0  0  0  0  0  0
    7.0958    1.0265    0.0000 C   0  0  0  0  0  0  0  0  0  0  0  0
    3.9822    1.8830    0.0000 C   0  0  0  0  0  0  0  0  0  0  0  0
    7.3546    1.9924    0.0000 C   0  0  0  0  0  0  0  0  0  0  0  0
    7.5594   -1.5520    0.0000 C   0  0  0  0  0  0  0  0  0  0  0  0
    7.1111    0.1211    0.0000 C   0  0  0  0  0  0  0  0  0  0  0  0
    5.8863   -1.1037    0.0000 C   0  0  0  0  0  0  0  0  0  0  0  0
    7.8182   -0.5860    0.0000 C   0  0  0  0  0  0  0  0  0  0  0  0
    6.5934   -1.8108    0.0000 C   0  0  0  0  0  0  0  0  0  0  0  0
    7.8182   -2.5179    0.0000 C   0  0  0  0  0  0  0  0  0  0  0  0
    3.6670    0.1351    0.0000 C   0  0  0  0  0  0  0  0  0  0  0  0
    7.8209    0.2786    0.0000 C   0  0  0  0  0  0  0  0  0  0  0  0
    2.9592    2.0796    0.0000 C   0  0  0  0  0  0  0  0  0  0  0  0
    8.3565    2.2775    0.0000 C   0  0  0  0  0  0  0  0  0  0  0  0
    8.0770   -3.4838    0.0000 C   0  0  0  0  0  0  0  0  0  0  0  0
    6.8523   -2.7767    0.0000 C   0  0  0  0  0  0  0  0  0  0  0  0
    8.7841   -2.7767    0.0000 C   0  0  0  0  0  0  0  0  0  0  0  0
    2.6398    0.3081    0.0000 C   0  0  0  0  0  0  0  0  0  0  0  0
    8.8291    0.5405    0.0000 C   0  0  0  0  0  0  0  0  0  0  0  0
    2.2836    1.2869    0.0000 C   0  0  0  0  0  0  0  0  0  0  0  0
    9.0987    1.5466    0.0000 C   0  0  0  0  0  0  0  0  0  0  0  0
    5.5369    4.0162    0.0000 H   0  0  0  0  0  0  0  0  0  0  0  0
    4.6059    3.5758    0.0000 H   0  0  0  0  0  0  0  0  0  0  0  0
    6.3250    2.9992    0.0000 H   0  0  0  0  0  0  0  0  0  0  0  0
    4.8761    0.8314    0.0000 H   0  0  0  0  0  0  0  0  0  0  0  0
    5.0824    0.0615    0.0000 H   0  0  0  0  0  0  0  0  0  0  0  0
    7.6190    0.4767    0.0000 H   0  0  0  0  0  0  0  0  0  0  0  0
    6.8491    0.6830    0.0000 H   0  0  0  0  0  0  0  0  0  0  0  0
    5.3244   -0.8417    0.0000 H   0  0  0  0  0  0  0  0  0  0  0  0
    5.5307   -1.6116    0.0000 H   0  0  0  0  0  0  0  0  0  0  0  0
    8.3801   -0.8481    0.0000 H   0  0  0  0  0  0  0  0  0  0  0  0
    8.1738   -0.0782    0.0000 H   0  0  0  0  0  0  0  0  0  0  0  0
    6.0856   -2.1664    0.0000 H   0  0  0  0  0  0  0  0  0  0  0  0
    6.8555   -2.3727    0.0000 H   0  0  0  0  0  0  0  0  0  0  0  0
    3.8858   -0.4450    0.0000 H   0  0  0  0  0  0  0  0  0  0  0  0
    7.6535   -0.3183    0.0000 H   0  0  0  0  0  0  0  0  0  0  0  0
    2.7540    2.6646    0.0000 H   0  0  0  0  0  0  0  0  0  0  0  0
    8.5100    2.8782    0.0000 H   0  0  0  0  0  0  0  0  0  0  0  0
    7.4781   -3.6443    0.0000 H   0  0  0  0  0  0  0  0  0  0  0  0
    8.2375   -4.0827    0.0000 H   0  0  0  0  0  0  0  0  0  0  0  0
    8.6759   -3.3234    0.0000 H   0  0  0  0  0  0  0  0  0  0  0  0
    6.6918   -2.1778    0.0000 H   0  0  0  0  0  0  0  0  0  0  0  0
    6.2534   -2.9372    0.0000 H   0  0  0  0  0  0  0  0  0  0  0  0
    7.0127   -3.3756    0.0000 H   0  0  0  0  0  0  0  0  0  0  0  0
    8.6236   -3.3756    0.0000 H   0  0  0  0  0  0  0  0  0  0  0  0
    9.3830   -2.9372    0.0000 H   0  0  0  0  0  0  0  0  0  0  0  0
    8.9446   -2.1778    0.0000 H   0  0  0  0  0  0  0  0  0  0  0  0
    8.9637   -1.3724    0.0000 H   0  0  0  0  0  0  0  0  0  0  0  0
    9.2658    0.1004    0.0000 H   0  0  0  0  0  0  0  0  0  0  0  0
    1.6734    1.3969    0.0000 H   0  0  0  0  0  0  0  0  0  0  0  0
    9.6969    1.7094    0.0000 H   0  0  0  0  0  0  0  0  0  0  0  0
  1 25  1  0  0  0  0
  2 12  1  0  0  0  0
  2 55  1  0  0  0  0
  3  7  1  0  0  0  0
  3 13  1  0  0  0  0
  3 14  1  0  0  0  0
  4  5  1  0  0  0  0
  4  7  1  0  0  0  0
  4  8  1  0  0  0  0
  4  9  1  0  0  0  0
  5  6  1  0  0  0  0
  5 29  1  0  0  0  0
  5 30  1  0  0  0  0
  6 10  1  0  0  0  0
  6 11  1  0  0  0  0
  6 31  1  0  0  0  0
  7 32  1  0  0  0  0
  7 33  1  0  0  0  0
  8 10  2  0  0  0  0
  8 18  1  0  0  0  0
  9 11  1  0  0  0  0
  9 19  2  0  0  0  0
 10 20  1  0  0  0  0
 11 21  2  0  0  0  0
 12 15  1  0  0  0  0
 12 16  1  0  0  0  0
 12 17  1  0  0  0  0
 13 15  1  0  0  0  0
 13 34  1  0  0  0  0
 13 35  1  0  0  0  0
 14 16  1  0  0  0  0
 14 36  1  0  0  0  0
 14 37  1  0  0  0  0
 15 38  1  0  0  0  0
 15 39  1  0  0  0  0
 16 40  1  0  0  0  0
 16 41  1  0  0  0  0
 17 22  1  0  0  0  0
 17 23  1  0  0  0  0
 17 24  1  0  0  0  0
 18 25  2  0  0  0  0
 18 42  1  0  0  0  0
 19 26  1  0  0  0  0
 19 43  1  0  0  0  0
 20 27  2  0  0  0  0
 20 44  1  0  0  0  0
 21 28  1  0  0  0  0
 21 45  1  0  0  0  0
 22 46  1  0  0  0  0
 22 47  1  0  0  0  0
 22 48  1  0  0  0  0
 23 49  1  0  0  0  0
 23 50  1  0  0  0  0
 23 51  1  0  0  0  0
 24 52  1  0  0  0  0
 24 53  1  0  0  0  0
 24 54  1  0  0  0  0
 25 27  1  0  0  0  0
 26 28  2  0  0  0  0
 26 56  1  0  0  0  0
 27 57  1  0  0  0  0
 28 58  1  0  0  0  0
M  END
> <PUBCHEM_COMPOUND_CID>
21480687

> <PUBCHEM_COMPOUND_CANONICALIZED>
1

> <PUBCHEM_CACTVS_COMPLEXITY>
592

> <PUBCHEM_CACTVS_HBOND_ACCEPTOR>
2

> <PUBCHEM_CACTVS_HBOND_DONOR>
1

> <PUBCHEM_CACTVS_ROTATABLE_BOND>
3

> <PUBCHEM_CACTVS_SUBSKEYS>
AAADceB6IAAEAAAAAAAAAAAAAAAAAYMAAAA8YMEAAAAAAGABQAAAHgIACAAAD0bBmCQyAIMAAgCAAiBCAAACAAAgBQAIiAAIAogIICKBkxGEYAAigACIiAcQgMAPhAAAIAAQAACIAARAACAAAQAACAAAAA==

> <PUBCHEM_IUPAC_OPENEYE_NAME>
4-tert-butyl-1-[(4-chloro-1-tetracyclo[6.6.1.02,7.09,14]pentadeca-2(7),3,5,9,11,13-hexaenyl)methyl]piperidin-4-ol

> <PUBCHEM_IUPAC_CAS_NAME>
4-tert-butyl-1-[(4-chloro-1-tetracyclo[6.6.1.02,7.09,14]pentadeca-2(7),3,5,9,11,13-hexaenyl)methyl]-4-piperidinol

> <PUBCHEM_IUPAC_NAME_MARKUP>
4-<I>tert</I>-butyl-1-[(4-chloro-1-tetracyclo[6.6.1.0<SUP>2,7</SUP>.0<SUP>9,14</SUP>]pentadeca-2(7),3,5,9,11,13-hexaenyl)methyl]piperidin-4-ol

> <PUBCHEM_IUPAC_NAME>
4-tert-butyl-1-[(4-chloro-1-tetracyclo[6.6.1.02,7.09,14]pentadeca-2(7),3,5,9,11,13-hexaenyl)methyl]piperidin-4-ol

> <PUBCHEM_IUPAC_SYSTEMATIC_NAME>
4-tert-butyl-1-[(4-chloranyl-1-tetracyclo[6.6.1.02,7.09,14]pentadeca-2(7),3,5,9,11,13-hexaenyl)methyl]piperidin-4-ol

> <PUBCHEM_IUPAC_TRADITIONAL_NAME>
4-tert-butyl-1-[(4-chloro-1-tetracyclo[6.6.1.02,7.09,14]pentadeca-2(7),3,5,9,11,13-hexaenyl)methyl]piperidin-4-ol

> <PUBCHEM_IUPAC_INCHI>
InChI=1S/C25H30ClNO/c1-23(2,3)25(28)10-12-27(13-11-25)16-24-15-20(18-6-4-5-7-21(18)24)19-9-8-17(26)14-22(19)24/h4-9,14,20,28H,10-13,15-16H2,1-3H3

> <PUBCHEM_IUPAC_INCHIKEY>
QQVJTWWHIOBBNM-UHFFFAOYSA-N

> <PUBCHEM_XLOGP3_AA>
5.6

> <PUBCHEM_EXACT_MASS>
395.2015923

> <PUBCHEM_MOLECULAR_FORMULA>
C25H30ClNO

> <PUBCHEM_MOLECULAR_WEIGHT>
396.0

> <PUBCHEM_OPENEYE_CAN_SMILES>
CC(C)(C)C1(CCN(CC1)CC23CC(C4=C2C=C(C=C4)Cl)C5=CC=CC=C35)O

> <PUBCHEM_OPENEYE_ISO_SMILES>
CC(C)(C)C1(CCN(CC1)CC23CC(C4=C2C=C(C=C4)Cl)C5=CC=CC=C35)O

> <PUBCHEM_CACTVS_TPSA>
23.5

> <PUBCHEM_MONOISOTOPIC_WEIGHT>
395.2015923

> <PUBCHEM_TOTAL_CHARGE>
0

> <PUBCHEM_HEAVY_ATOM_COUNT>
28

> <PUBCHEM_ATOM_DEF_STEREO_COUNT>
0

> <PUBCHEM_ATOM_UDEF_STEREO_COUNT>
2

> <PUBCHEM_BOND_DEF_STEREO_COUNT>
0

> <PUBCHEM_BOND_UDEF_STEREO_COUNT>
0

> <PUBCHEM_ISOTOPIC_ATOM_COUNT>
0

> <PUBCHEM_COMPONENT_COUNT>
1

> <PUBCHEM_CACTVS_TAUTO_COUNT>
-1

> <PUBCHEM_COORDINATE_TYPE>
1
5
255

> <PUBCHEM_BONDANNOTATIONS>
10  20  8
11  21  8
18  25  8
19  26  8
20  27  8
21  28  8
25  27  8
26  28  8
4  5  3
6  5  3
8  10  8
8  18  8
9  11  8
9  19  8

$$$$
