9795741
  -OEChem-09292322122D

 42 43  0     1  0  0  0  0  0999 V2000
    2.8660   -2.8170    0.0000 S   0  0  0  0  0  0  0  0  0  0  0  0
    3.3660   -3.6830    0.0000 O   0  0  0  0  0  0  0  0  0  0  0  0
    2.3660   -1.9510    0.0000 O   0  0  0  0  0  0  0  0  0  0  0  0
    3.7320    1.6830    0.0000 N   0  0  3  0  0  0  0  0  0  0  0  0
    4.5981    0.1830    0.0000 C   0  0  1  0  0  0  0  0  0  0  0  0
    3.7320    0.6830    0.0000 C   0  0  0  0  0  0  0  0  0  0  0  0
    5.4641    0.6830    0.0000 C   0  0  0  0  0  0  0  0  0  0  0  0
    5.4641    1.6830    0.0000 C   0  0  0  0  0  0  0  0  0  0  0  0
    4.5981    2.1830    0.0000 C   0  0  0  0  0  0  0  0  0  0  0  0
    4.5981   -0.8170    0.0000 C   0  0  0  0  0  0  0  0  0  0  0  0
    2.8660    2.1830    0.0000 C   0  0  0  0  0  0  0  0  0  0  0  0
    2.8660    3.1830    0.0000 C   0  0  0  0  0  0  0  0  0  0  0  0
    3.7320   -1.3170    0.0000 C   0  0  0  0  0  0  0  0  0  0  0  0
    5.4641   -1.3170    0.0000 C   0  0  0  0  0  0  0  0  0  0  0  0
    3.7320   -2.3170    0.0000 C   0  0  0  0  0  0  0  0  0  0  0  0
    5.4641   -2.3170    0.0000 C   0  0  0  0  0  0  0  0  0  0  0  0
    2.0000    3.6830    0.0000 C   0  0  0  0  0  0  0  0  0  0  0  0
    4.5981   -2.8170    0.0000 C   0  0  0  0  0  0  0  0  0  0  0  0
    2.0000   -3.3170    0.0000 C   0  0  0  0  0  0  0  0  0  0  0  0
    5.1350   -0.1270    0.0000 H   0  0  0  0  0  0  0  0  0  0  0  0
    3.1215    0.7907    0.0000 H   0  0  0  0  0  0  0  0  0  0  0  0
    3.5200    0.1004    0.0000 H   0  0  0  0  0  0  0  0  0  0  0  0
    5.6762    0.1004    0.0000 H   0  0  0  0  0  0  0  0  0  0  0  0
    6.0747    0.7907    0.0000 H   0  0  0  0  0  0  0  0  0  0  0  0
    6.0747    1.5754    0.0000 H   0  0  0  0  0  0  0  0  0  0  0  0
    5.6762    2.2656    0.0000 H   0  0  0  0  0  0  0  0  0  0  0  0
    4.9966    2.6580    0.0000 H   0  0  0  0  0  0  0  0  0  0  0  0
    4.1996    2.6580    0.0000 H   0  0  0  0  0  0  0  0  0  0  0  0
    2.2554    2.2907    0.0000 H   0  0  0  0  0  0  0  0  0  0  0  0
    2.6540    1.6004    0.0000 H   0  0  0  0  0  0  0  0  0  0  0  0
    3.4766    3.0753    0.0000 H   0  0  0  0  0  0  0  0  0  0  0  0
    3.0781    3.7656    0.0000 H   0  0  0  0  0  0  0  0  0  0  0  0
    3.1951   -1.0070    0.0000 H   0  0  0  0  0  0  0  0  0  0  0  0
    6.0010   -1.0070    0.0000 H   0  0  0  0  0  0  0  0  0  0  0  0
    6.0010   -2.6270    0.0000 H   0  0  0  0  0  0  0  0  0  0  0  0
    2.3100    4.2200    0.0000 H   0  0  0  0  0  0  0  0  0  0  0  0
    1.4631    3.9930    0.0000 H   0  0  0  0  0  0  0  0  0  0  0  0
    1.6900    3.1461    0.0000 H   0  0  0  0  0  0  0  0  0  0  0  0
    4.5981   -3.4370    0.0000 H   0  0  0  0  0  0  0  0  0  0  0  0
    1.6900   -2.7800    0.0000 H   0  0  0  0  0  0  0  0  0  0  0  0
    1.4631   -3.6270    0.0000 H   0  0  0  0  0  0  0  0  0  0  0  0
    2.3100   -3.8539    0.0000 H   0  0  0  0  0  0  0  0  0  0  0  0
  1  2  2  0  0  0  0
  1  3  2  0  0  0  0
  1 15  1  0  0  0  0
  1 19  1  0  0  0  0
  4  6  1  0  0  0  0
  4  9  1  0  0  0  0
  4 11  1  0  0  0  0
  5  6  1  0  0  0  0
  5  7  1  0  0  0  0
  5 10  1  1  0  0  0
  5 20  1  0  0  0  0
  6 21  1  0  0  0  0
  6 22  1  0  0  0  0
  7  8  1  0  0  0  0
  7 23  1  0  0  0  0
  7 24  1  0  0  0  0
  8  9  1  0  0  0  0
  8 25  1  0  0  0  0
  8 26  1  0  0  0  0
  9 27  1  0  0  0  0
  9 28  1  0  0  0  0
 10 13  2  0  0  0  0
 10 14  1  0  0  0  0
 11 12  1  0  0  0  0
 11 29  1  0  0  0  0
 11 30  1  0  0  0  0
 12 17  1  0  0  0  0
 12 31  1  0  0  0  0
 12 32  1  0  0  0  0
 13 15  1  0  0  0  0
 13 33  1  0  0  0  0
 14 16  2  0  0  0  0
 14 34  1  0  0  0  0
 15 18  2  0  0  0  0
 16 18  1  0  0  0  0
 16 35  1  0  0  0  0
 17 36  1  0  0  0  0
 17 37  1  0  0  0  0
 17 38  1  0  0  0  0
 18 39  1  0  0  0  0
 19 40  1  0  0  0  0
 19 41  1  0  0  0  0
 19 42  1  0  0  0  0
M  END
> <PUBCHEM_COMPOUND_CID>
9795741

> <PUBCHEM_COMPOUND_CANONICALIZED>
1

> <PUBCHEM_CACTVS_COMPLEXITY>
374

> <PUBCHEM_CACTVS_HBOND_ACCEPTOR>
3

> <PUBCHEM_CACTVS_HBOND_DONOR>
0

> <PUBCHEM_CACTVS_ROTATABLE_BOND>
4

> <PUBCHEM_CACTVS_SUBSKEYS>
AAADceByMABAAAAAAAAAAAAAAAAAAAAAAAA8QAAAAAAAAAABAAAAHAQAAAAADQDBWASyAYMAAAqAAiBCAHBCAAAgCBAIiBgIAIgIICKgkRGEIAAggACIiAcQgMAOgAAAgAAAAAAAAAEAAAAAAAAAAAAAAA==

> <PUBCHEM_IUPAC_OPENEYE_NAME>
(3S)-3-(3-methylsulfonylphenyl)-1-propyl-piperidine

> <PUBCHEM_IUPAC_CAS_NAME>
(3S)-3-(3-methylsulfonylphenyl)-1-propylpiperidine

> <PUBCHEM_IUPAC_NAME_MARKUP>
(3<I>S</I>)-3-(3-methylsulfonylphenyl)-1-propylpiperidine

> <PUBCHEM_IUPAC_NAME>
(3S)-3-(3-methylsulfonylphenyl)-1-propylpiperidine

> <PUBCHEM_IUPAC_SYSTEMATIC_NAME>
(3S)-3-(3-methylsulfonylphenyl)-1-propyl-piperidine

> <PUBCHEM_IUPAC_TRADITIONAL_NAME>
(3S)-3-(3-mesylphenyl)-1-propyl-piperidine

> <PUBCHEM_IUPAC_INCHI>
InChI=1S/C15H23NO2S/c1-3-9-16-10-5-7-14(12-16)13-6-4-8-15(11-13)19(2,17)18/h4,6,8,11,14H,3,5,7,9-10,12H2,1-2H3/t14-/m1/s1

> <PUBCHEM_IUPAC_INCHIKEY>
GZVBVBMMNFIXGE-CQSZACIVSA-N

> <PUBCHEM_XLOGP3_AA>
2.6

> <PUBCHEM_EXACT_MASS>
281.14495015

> <PUBCHEM_MOLECULAR_FORMULA>
C15H23NO2S

> <PUBCHEM_MOLECULAR_WEIGHT>
281.4

> <PUBCHEM_OPENEYE_CAN_SMILES>
CCCN1CCCC(C1)C2=CC(=CC=C2)S(=O)(=O)C

> <PUBCHEM_OPENEYE_ISO_SMILES>
CCCN1CCC[C@H](C1)C2=CC(=CC=C2)S(=O)(=O)C

> <PUBCHEM_CACTVS_TPSA>
45.8

> <PUBCHEM_MONOISOTOPIC_WEIGHT>
281.14495015

> <PUBCHEM_TOTAL_CHARGE>
0

> <PUBCHEM_HEAVY_ATOM_COUNT>
19

> <PUBCHEM_ATOM_DEF_STEREO_COUNT>
1

> <PUBCHEM_ATOM_UDEF_STEREO_COUNT>
0

> <PUBCHEM_BOND_DEF_STEREO_COUNT>
0

> <PUBCHEM_BOND_UDEF_STEREO_COUNT>
0

> <PUBCHEM_ISOTOPIC_ATOM_COUNT>
0

> <PUBCHEM_COMPONENT_COUNT>
1

> <PUBCHEM_CACTVS_TAUTO_COUNT>
1

> <PUBCHEM_COORDINATE_TYPE>
1
5
255

> <PUBCHEM_BONDANNOTATIONS>
10  13  8
10  14  8
13  15  8
14  16  8
15  18  8
16  18  8
5  10  5

$$$$
