11154178
  -OEChem-09292322292D

 58 61  0     1  0  0  0  0  0999 V2000
    7.8547   -4.4909    0.0000 Cl  0  0  0  0  0  0  0  0  0  0  0  0
    3.3878    0.9669    0.0000 O   0  0  0  0  0  0  0  0  0  0  0  0
    7.8547   -2.4426    0.0000 O   0  0  0  0  0  0  0  0  0  0  0  0
    4.5658    2.2366    0.0000 N   0  0  0  0  0  0  0  0  0  0  0  0
    3.0000   -3.4668    0.0000 N   0  0  3  0  0  0  0  0  0  0  0  0
    4.7884    3.2115    0.0000 C   0  0  0  0  0  0  0  0  0  0  0  0
    4.2563    4.0582    0.0000 C   0  0  0  0  0  0  0  0  0  0  0  0
    5.6351    3.7436    0.0000 C   0  0  0  0  0  0  0  0  0  0  0  0
    5.1031    4.5903    0.0000 C   0  0  0  0  0  0  0  0  0  0  0  0
    5.2989    1.5564    0.0000 C   0  0  0  0  0  0  0  0  0  0  0  0
    4.4088   -2.3433    0.0000 C   0  0  1  0  0  0  0  0  0  0  0  0
    3.4339   -2.5658    0.0000 C   0  0  0  0  0  0  0  0  0  0  0  0
    5.1906   -2.9668    0.0000 C   0  0  0  0  0  0  0  0  0  0  0  0
    5.0764    0.5815    0.0000 C   0  0  0  0  0  0  0  0  0  0  0  0
    3.6103    1.9418    0.0000 C   0  0  0  0  0  0  0  0  0  0  0  0
    4.6313   -1.3684    0.0000 C   0  0  0  0  0  0  0  0  0  0  0  0
    3.4339   -4.3678    0.0000 C   0  0  0  0  0  0  0  0  0  0  0  0
    5.1906   -3.9668    0.0000 C   0  0  0  0  0  0  0  0  0  0  0  0
    4.4088   -4.5903    0.0000 C   0  0  0  0  0  0  0  0  0  0  0  0
    4.1208    0.2867    0.0000 C   0  0  0  0  0  0  0  0  0  0  0  0
    5.8094   -0.0987    0.0000 C   0  0  0  0  0  0  0  0  0  0  0  0
    3.8983   -0.6882    0.0000 C   0  0  0  0  0  0  0  0  0  0  0  0
    5.5869   -1.0736    0.0000 C   0  0  0  0  0  0  0  0  0  0  0  0
    6.0846   -2.4321    0.0000 C   0  0  0  0  0  0  0  0  0  0  0  0
    2.8772    2.6220    0.0000 C   0  0  0  0  0  0  0  0  0  0  0  0
    2.0000   -3.4668    0.0000 C   0  0  0  0  0  0  0  0  0  0  0  0
    6.0846   -4.5014    0.0000 C   0  0  0  0  0  0  0  0  0  0  0  0
    6.9906   -2.9460    0.0000 C   0  0  0  0  0  0  0  0  0  0  0  0
    6.9906   -3.9876    0.0000 C   0  0  0  0  0  0  0  0  0  0  0  0
    4.1771    3.1077    0.0000 H   0  0  0  0  0  0  0  0  0  0  0  0
    3.9265    4.5832    0.0000 H   0  0  0  0  0  0  0  0  0  0  0  0
    3.7314    3.7284    0.0000 H   0  0  0  0  0  0  0  0  0  0  0  0
    5.9650    3.2186    0.0000 H   0  0  0  0  0  0  0  0  0  0  0  0
    6.1601    4.0734    0.0000 H   0  0  0  0  0  0  0  0  0  0  0  0
    5.6280    4.9201    0.0000 H   0  0  0  0  0  0  0  0  0  0  0  0
    4.7732    5.1152    0.0000 H   0  0  0  0  0  0  0  0  0  0  0  0
    5.8702    1.3156    0.0000 H   0  0  0  0  0  0  0  0  0  0  0  0
    5.6353    2.0772    0.0000 H   0  0  0  0  0  0  0  0  0  0  0  0
    3.9704   -1.9049    0.0000 H   0  0  0  0  0  0  0  0  0  0  0  0
    3.4339   -1.9458    0.0000 H   0  0  0  0  0  0  0  0  0  0  0  0
    2.8294   -2.4278    0.0000 H   0  0  0  0  0  0  0  0  0  0  0  0
    2.8294   -4.5057    0.0000 H   0  0  0  0  0  0  0  0  0  0  0  0
    3.4339   -4.9878    0.0000 H   0  0  0  0  0  0  0  0  0  0  0  0
    4.1398   -5.1489    0.0000 H   0  0  0  0  0  0  0  0  0  0  0  0
    4.8936   -4.9768    0.0000 H   0  0  0  0  0  0  0  0  0  0  0  0
    3.6663    0.7084    0.0000 H   0  0  0  0  0  0  0  0  0  0  0  0
    6.4019    0.0841    0.0000 H   0  0  0  0  0  0  0  0  0  0  0  0
    3.3058   -0.8709    0.0000 H   0  0  0  0  0  0  0  0  0  0  0  0
    6.0414   -1.4953    0.0000 H   0  0  0  0  0  0  0  0  0  0  0  0
    6.0774   -1.8122    0.0000 H   0  0  0  0  0  0  0  0  0  0  0  0
    3.2989    3.0765    0.0000 H   0  0  0  0  0  0  0  0  0  0  0  0
    2.4227    3.0437    0.0000 H   0  0  0  0  0  0  0  0  0  0  0  0
    2.4555    2.1675    0.0000 H   0  0  0  0  0  0  0  0  0  0  0  0
    2.0000   -2.8468    0.0000 H   0  0  0  0  0  0  0  0  0  0  0  0
    1.3800   -3.4668    0.0000 H   0  0  0  0  0  0  0  0  0  0  0  0
    2.0000   -4.0868    0.0000 H   0  0  0  0  0  0  0  0  0  0  0  0
    6.0774   -5.1214    0.0000 H   0  0  0  0  0  0  0  0  0  0  0  0
    8.3929   -2.7506    0.0000 H   0  0  0  0  0  0  0  0  0  0  0  0
  1 29  1  0  0  0  0
  2 15  2  0  0  0  0
  3 28  1  0  0  0  0
  3 58  1  0  0  0  0
  4  6  1  0  0  0  0
  4 10  1  0  0  0  0
  4 15  1  0  0  0  0
  5 12  1  0  0  0  0
  5 17  1  0  0  0  0
  5 26  1  0  0  0  0
  6  7  1  0  0  0  0
  6  8  1  0  0  0  0
  6 30  1  0  0  0  0
  7  9  1  0  0  0  0
  7 31  1  0  0  0  0
  7 32  1  0  0  0  0
  8  9  1  0  0  0  0
  8 33  1  0  0  0  0
  8 34  1  0  0  0  0
  9 35  1  0  0  0  0
  9 36  1  0  0  0  0
 10 14  1  0  0  0  0
 10 37  1  0  0  0  0
 10 38  1  0  0  0  0
 11 12  1  0  0  0  0
 11 13  1  0  0  0  0
 11 16  1  6  0  0  0
 11 39  1  0  0  0  0
 12 40  1  0  0  0  0
 12 41  1  0  0  0  0
 13 18  1  0  0  0  0
 13 24  2  0  0  0  0
 14 20  2  0  0  0  0
 14 21  1  0  0  0  0
 15 25  1  0  0  0  0
 16 22  2  0  0  0  0
 16 23  1  0  0  0  0
 17 19  1  0  0  0  0
 17 42  1  0  0  0  0
 17 43  1  0  0  0  0
 18 19  1  0  0  0  0
 18 27  2  0  0  0  0
 19 44  1  0  0  0  0
 19 45  1  0  0  0  0
 20 22  1  0  0  0  0
 20 46  1  0  0  0  0
 21 23  2  0  0  0  0
 21 47  1  0  0  0  0
 22 48  1  0  0  0  0
 23 49  1  0  0  0  0
 24 28  1  0  0  0  0
 24 50  1  0  0  0  0
 25 51  1  0  0  0  0
 25 52  1  0  0  0  0
 25 53  1  0  0  0  0
 26 54  1  0  0  0  0
 26 55  1  0  0  0  0
 26 56  1  0  0  0  0
 27 29  1  0  0  0  0
 27 57  1  0  0  0  0
 28 29  2  0  0  0  0
M  END
> <PUBCHEM_COMPOUND_CID>
11154178

> <PUBCHEM_COMPOUND_CANONICALIZED>
1

> <PUBCHEM_CACTVS_COMPLEXITY>
561

> <PUBCHEM_CACTVS_HBOND_ACCEPTOR>
3

> <PUBCHEM_CACTVS_HBOND_DONOR>
1

> <PUBCHEM_CACTVS_ROTATABLE_BOND>
4

> <PUBCHEM_CACTVS_SUBSKEYS>
AAADceB7MAAEAAAAAAAAAAAAAABgAAAAAAAwYAAABYAAAAABQAAAHgIACAAADS7BmCQyBoMAAgCIAiFSEACCAAAgJUAIiAAOD4gIJiKDkxOEcAhkxhGImAeQ0PIO5AABIAAQCADIAAJAACAQAAAAAAAAAA==

> <PUBCHEM_IUPAC_OPENEYE_NAME>
N-[[4-[(5R)-8-chloro-7-hydroxy-3-methyl-1,2,4,5-tetrahydro-3-benzazepin-5-yl]phenyl]methyl]-N-cyclobutyl-acetamide

> <PUBCHEM_IUPAC_CAS_NAME>
N-[[4-[(5R)-8-chloro-7-hydroxy-3-methyl-1,2,4,5-tetrahydro-3-benzazepin-5-yl]phenyl]methyl]-N-cyclobutylacetamide

> <PUBCHEM_IUPAC_NAME_MARKUP>
<I>N</I>-[[4-[(5<I>R</I>)-8-chloro-7-hydroxy-3-methyl-1,2,4,5-tetrahydro-3-benzazepin-5-yl]phenyl]methyl]-<I>N</I>-cyclobutylacetamide

> <PUBCHEM_IUPAC_NAME>
N-[[4-[(5R)-8-chloro-7-hydroxy-3-methyl-1,2,4,5-tetrahydro-3-benzazepin-5-yl]phenyl]methyl]-N-cyclobutylacetamide

> <PUBCHEM_IUPAC_SYSTEMATIC_NAME>
N-[[4-[(5R)-8-chloranyl-3-methyl-7-oxidanyl-1,2,4,5-tetrahydro-3-benzazepin-5-yl]phenyl]methyl]-N-cyclobutyl-ethanamide

> <PUBCHEM_IUPAC_TRADITIONAL_NAME>
N-[4-[(5R)-8-chloro-7-hydroxy-3-methyl-1,2,4,5-tetrahydro-3-benzazepin-5-yl]benzyl]-N-cyclobutyl-acetamide

> <PUBCHEM_IUPAC_INCHI>
InChI=1S/C24H29ClN2O2/c1-16(28)27(20-4-3-5-20)14-17-6-8-18(9-7-17)22-15-26(2)11-10-19-12-23(25)24(29)13-21(19)22/h6-9,12-13,20,22,29H,3-5,10-11,14-15H2,1-2H3/t22-/m1/s1

> <PUBCHEM_IUPAC_INCHIKEY>
DUJWQCUJEVGZHQ-JOCHJYFZSA-N

> <PUBCHEM_XLOGP3_AA>
4.2

> <PUBCHEM_EXACT_MASS>
412.1917559

> <PUBCHEM_MOLECULAR_FORMULA>
C24H29ClN2O2

> <PUBCHEM_MOLECULAR_WEIGHT>
412.9

> <PUBCHEM_OPENEYE_CAN_SMILES>
CC(=O)N(CC1=CC=C(C=C1)C2CN(CCC3=CC(=C(C=C23)O)Cl)C)C4CCC4

> <PUBCHEM_OPENEYE_ISO_SMILES>
CC(=O)N(CC1=CC=C(C=C1)[C@H]2CN(CCC3=CC(=C(C=C23)O)Cl)C)C4CCC4

> <PUBCHEM_CACTVS_TPSA>
43.8

> <PUBCHEM_MONOISOTOPIC_WEIGHT>
412.1917559

> <PUBCHEM_TOTAL_CHARGE>
0

> <PUBCHEM_HEAVY_ATOM_COUNT>
29

> <PUBCHEM_ATOM_DEF_STEREO_COUNT>
1

> <PUBCHEM_ATOM_UDEF_STEREO_COUNT>
0

> <PUBCHEM_BOND_DEF_STEREO_COUNT>
0

> <PUBCHEM_BOND_UDEF_STEREO_COUNT>
0

> <PUBCHEM_ISOTOPIC_ATOM_COUNT>
0

> <PUBCHEM_COMPONENT_COUNT>
1

> <PUBCHEM_CACTVS_TAUTO_COUNT>
-1

> <PUBCHEM_COORDINATE_TYPE>
1
5
255

> <PUBCHEM_BONDANNOTATIONS>
11  16  6
13  18  8
13  24  8
14  20  8
14  21  8
16  22  8
16  23  8
18  27  8
20  22  8
21  23  8
24  28  8
27  29  8
28  29  8

$$$$
