15512229
  -OEChem-09292322222D

 54 59  0     1  0  0  0  0  0999 V2000
    4.7260    2.8601    0.0000 O   0  0  0  0  0  0  0  0  0  0  0  0
    4.8714   -0.0156    0.0000 N   0  0  0  0  0  0  0  0  0  0  0  0
    7.0123    1.6481    0.0000 N   0  0  3  0  0  0  0  0  0  0  0  0
    6.4798    3.1760    0.0000 N   0  0  0  0  0  0  0  0  0  0  0  0
    6.0125    1.6269    0.0000 C   0  0  0  0  0  0  0  0  0  0  0  0
    6.4385    0.7222    0.0000 C   0  0  0  0  0  0  0  0  0  0  0  0
    5.0160    1.7104    0.0000 C   0  0  0  0  0  0  0  0  0  0  0  0
    5.8680   -0.0991    0.0000 C   0  0  0  0  0  0  0  0  0  0  0  0
    4.4455    0.8891    0.0000 C   0  0  0  0  0  0  0  0  0  0  0  0
    4.3009   -0.8369    0.0000 C   0  0  2  0  0  0  0  0  0  0  0  0
    5.6834    2.5712    0.0000 C   0  0  0  0  0  0  0  0  0  0  0  0
    3.3073   -0.8173    0.0000 C   0  0  0  0  0  0  0  0  0  0  0  0
    7.3011    2.6055    0.0000 C   0  0  0  0  0  0  0  0  0  0  0  0
    4.6660   -1.7612    0.0000 C   0  0  0  0  0  0  0  0  0  0  0  0
    3.8000   -2.2612    0.0000 C   0  0  0  0  0  0  0  0  0  0  0  0
    2.9061   -1.7266    0.0000 C   0  0  0  0  0  0  0  0  0  0  0  0
    7.6170    0.8517    0.0000 C   0  0  0  0  0  0  0  0  0  0  0  0
    3.8000   -3.2612    0.0000 C   0  0  0  0  0  0  0  0  0  0  0  0
    5.5321   -2.2612    0.0000 C   0  0  0  0  0  0  0  0  0  0  0  0
    2.0000   -2.2404    0.0000 C   0  0  0  0  0  0  0  0  0  0  0  0
    7.2298   -0.0702    0.0000 C   0  0  0  0  0  0  0  0  0  0  0  0
    8.6091    0.9773    0.0000 C   0  0  0  0  0  0  0  0  0  0  0  0
    4.6660   -3.7612    0.0000 C   0  0  0  0  0  0  0  0  0  0  0  0
    5.5321   -3.2612    0.0000 C   0  0  0  0  0  0  0  0  0  0  0  0
    2.9061   -3.7959    0.0000 C   0  0  0  0  0  0  0  0  0  0  0  0
    2.0000   -3.2820    0.0000 C   0  0  0  0  0  0  0  0  0  0  0  0
    7.8345   -0.8666    0.0000 C   0  0  0  0  0  0  0  0  0  0  0  0
    9.2139    0.1809    0.0000 C   0  0  0  0  0  0  0  0  0  0  0  0
    8.8266   -0.7411    0.0000 C   0  0  0  0  0  0  0  0  0  0  0  0
    6.8785    0.2854    0.0000 H   0  0  0  0  0  0  0  0  0  0  0  0
    6.9450    1.0797    0.0000 H   0  0  0  0  0  0  0  0  0  0  0  0
    5.1742    2.3098    0.0000 H   0  0  0  0  0  0  0  0  0  0  0  0
    4.4531    1.9703    0.0000 H   0  0  0  0  0  0  0  0  0  0  0  0
    5.7097   -0.6985    0.0000 H   0  0  0  0  0  0  0  0  0  0  0  0
    6.4308   -0.3590    0.0000 H   0  0  0  0  0  0  0  0  0  0  0  0
    4.0054    1.3259    0.0000 H   0  0  0  0  0  0  0  0  0  0  0  0
    3.9389    0.5316    0.0000 H   0  0  0  0  0  0  0  0  0  0  0  0
    4.0190   -0.2847    0.0000 H   0  0  0  0  0  0  0  0  0  0  0  0
    3.4010   -0.2044    0.0000 H   0  0  0  0  0  0  0  0  0  0  0  0
    2.7121   -0.6438    0.0000 H   0  0  0  0  0  0  0  0  0  0  0  0
    7.8727    2.3654    0.0000 H   0  0  0  0  0  0  0  0  0  0  0  0
    7.5996    3.1489    0.0000 H   0  0  0  0  0  0  0  0  0  0  0  0
    6.4667    3.7959    0.0000 H   0  0  0  0  0  0  0  0  0  0  0  0
    6.0690   -1.9512    0.0000 H   0  0  0  0  0  0  0  0  0  0  0  0
    1.4643   -1.9283    0.0000 H   0  0  0  0  0  0  0  0  0  0  0  0
    6.6146   -0.1481    0.0000 H   0  0  0  0  0  0  0  0  0  0  0  0
    8.8493    1.5489    0.0000 H   0  0  0  0  0  0  0  0  0  0  0  0
    4.6660   -4.3812    0.0000 H   0  0  0  0  0  0  0  0  0  0  0  0
    6.0690   -3.5712    0.0000 H   0  0  0  0  0  0  0  0  0  0  0  0
    2.9132   -4.4158    0.0000 H   0  0  0  0  0  0  0  0  0  0  0  0
    1.4643   -3.5941    0.0000 H   0  0  0  0  0  0  0  0  0  0  0  0
    7.5944   -1.4382    0.0000 H   0  0  0  0  0  0  0  0  0  0  0  0
    9.8290    0.2587    0.0000 H   0  0  0  0  0  0  0  0  0  0  0  0
    9.2016   -1.2348    0.0000 H   0  0  0  0  0  0  0  0  0  0  0  0
  1 11  2  0  0  0  0
  2  8  1  0  0  0  0
  2  9  1  0  0  0  0
 10  2  1  1  0  0  0
  3  5  1  0  0  0  0
  3 13  1  0  0  0  0
  3 17  1  0  0  0  0
  4 11  1  0  0  0  0
  4 13  1  0  0  0  0
  4 43  1  0  0  0  0
  5  6  1  0  0  0  0
  5  7  1  0  0  0  0
  5 11  1  0  0  0  0
  6  8  1  0  0  0  0
  6 30  1  0  0  0  0
  6 31  1  0  0  0  0
  7  9  1  0  0  0  0
  7 32  1  0  0  0  0
  7 33  1  0  0  0  0
  8 34  1  0  0  0  0
  8 35  1  0  0  0  0
  9 36  1  0  0  0  0
  9 37  1  0  0  0  0
 10 12  1  0  0  0  0
 10 14  1  0  0  0  0
 10 38  1  0  0  0  0
 12 16  1  0  0  0  0
 12 39  1  0  0  0  0
 12 40  1  0  0  0  0
 13 41  1  0  0  0  0
 13 42  1  0  0  0  0
 14 15  1  0  0  0  0
 14 19  2  0  0  0  0
 15 16  1  0  0  0  0
 15 18  2  0  0  0  0
 16 20  2  0  0  0  0
 17 21  2  0  0  0  0
 17 22  1  0  0  0  0
 18 23  1  0  0  0  0
 18 25  1  0  0  0  0
 19 24  1  0  0  0  0
 19 44  1  0  0  0  0
 20 26  1  0  0  0  0
 20 45  1  0  0  0  0
 21 27  1  0  0  0  0
 21 46  1  0  0  0  0
 22 28  2  0  0  0  0
 22 47  1  0  0  0  0
 23 24  2  0  0  0  0
 23 48  1  0  0  0  0
 24 49  1  0  0  0  0
 25 26  2  0  0  0  0
 25 50  1  0  0  0  0
 26 51  1  0  0  0  0
 27 29  2  0  0  0  0
 27 52  1  0  0  0  0
 28 29  1  0  0  0  0
 28 53  1  0  0  0  0
 29 54  1  0  0  0  0
M  END
> <PUBCHEM_COMPOUND_CID>
15512229

> <PUBCHEM_COMPOUND_CANONICALIZED>
1

> <PUBCHEM_CACTVS_COMPLEXITY>
622

> <PUBCHEM_CACTVS_HBOND_ACCEPTOR>
3

> <PUBCHEM_CACTVS_HBOND_DONOR>
1

> <PUBCHEM_CACTVS_ROTATABLE_BOND>
2

> <PUBCHEM_CACTVS_SUBSKEYS>
AAADceB7IAAAAAAAAAAAAAAAAAAAAeIAAAA8YMEAAAAAAGDBVAAAHgAQAAAADKjBmAQxwMPAAACIAiVSUACCAAAhAgAIiIGIZIiIYDLA0bGUIAhogwLIyCcUgMAOgAACAAAQAAAAAAQAACAAASAACQAAAA==

> <PUBCHEM_IUPAC_OPENEYE_NAME>
8-[(1R)-1,2-dihydroacenaphthylen-1-yl]-1-phenyl-1,3,8-triazaspiro[4.5]decan-4-one

> <PUBCHEM_IUPAC_CAS_NAME>
8-[(1R)-1,2-dihydroacenaphthylen-1-yl]-1-phenyl-1,3,8-triazaspiro[4.5]decan-4-one

> <PUBCHEM_IUPAC_NAME_MARKUP>
8-[(1<I>R</I>)-1,2-dihydroacenaphthylen-1-yl]-1-phenyl-1,3,8-triazaspiro[4.5]decan-4-one

> <PUBCHEM_IUPAC_NAME>
8-[(1R)-1,2-dihydroacenaphthylen-1-yl]-1-phenyl-1,3,8-triazaspiro[4.5]decan-4-one

> <PUBCHEM_IUPAC_SYSTEMATIC_NAME>
8-[(1R)-1,2-dihydroacenaphthylen-1-yl]-1-phenyl-1,3,8-triazaspiro[4.5]decan-4-one

> <PUBCHEM_IUPAC_TRADITIONAL_NAME>
8-[(1R)-acenaphthen-1-yl]-1-phenyl-1,3,8-triazaspiro[4.5]decan-4-one

> <PUBCHEM_IUPAC_INCHI>
InChI=1S/C25H25N3O/c29-24-25(28(17-26-24)20-9-2-1-3-10-20)12-14-27(15-13-25)22-16-19-8-4-6-18-7-5-11-21(22)23(18)19/h1-11,22H,12-17H2,(H,26,29)/t22-/m1/s1

> <PUBCHEM_IUPAC_INCHIKEY>
BBOAHBVXCYBKLC-JOCHJYFZSA-N

> <PUBCHEM_XLOGP3_AA>
4.5

> <PUBCHEM_EXACT_MASS>
383.199762429

> <PUBCHEM_MOLECULAR_FORMULA>
C25H25N3O

> <PUBCHEM_MOLECULAR_WEIGHT>
383.5

> <PUBCHEM_OPENEYE_CAN_SMILES>
C1CN(CCC12C(=O)NCN2C3=CC=CC=C3)C4CC5=CC=CC6=C5C4=CC=C6

> <PUBCHEM_OPENEYE_ISO_SMILES>
C1CN(CCC12C(=O)NCN2C3=CC=CC=C3)[C@@H]4CC5=CC=CC6=C5C4=CC=C6

> <PUBCHEM_CACTVS_TPSA>
35.6

> <PUBCHEM_MONOISOTOPIC_WEIGHT>
383.199762429

> <PUBCHEM_TOTAL_CHARGE>
0

> <PUBCHEM_HEAVY_ATOM_COUNT>
29

> <PUBCHEM_ATOM_DEF_STEREO_COUNT>
1

> <PUBCHEM_ATOM_UDEF_STEREO_COUNT>
0

> <PUBCHEM_BOND_DEF_STEREO_COUNT>
0

> <PUBCHEM_BOND_UDEF_STEREO_COUNT>
0

> <PUBCHEM_ISOTOPIC_ATOM_COUNT>
0

> <PUBCHEM_COMPONENT_COUNT>
1

> <PUBCHEM_CACTVS_TAUTO_COUNT>
-1

> <PUBCHEM_COORDINATE_TYPE>
1
5
255

> <PUBCHEM_BONDANNOTATIONS>
14  15  8
14  19  8
15  16  8
15  18  8
16  20  8
17  21  8
17  22  8
18  23  8
18  25  8
19  24  8
10  2  5
20  26  8
21  27  8
22  28  8
23  24  8
25  26  8
27  29  8
28  29  8

$$$$
