57383436
  -OEChem-09292321582D

 45 48  0     1  0  0  0  0  0999 V2000
    9.9533   -0.8547    0.0000 S   0  0  2  0  0  0  0  0  0  0  0  0
    9.9533   -1.8546    0.0000 O   0  0  0  0  0  0  0  0  0  0  0  0
   10.8872    2.2370    0.0000 O   0  0  0  0  0  0  0  0  0  0  0  0
    5.8971    1.4482    0.0000 O   0  0  0  0  0  0  0  0  0  0  0  0
    9.4533    1.3360    0.0000 N   0  0  0  0  0  0  0  0  0  0  0  0
    5.3802   -0.2050    0.0000 N   0  0  0  0  0  0  0  0  0  0  0  0
    2.0000   -0.9627    0.0000 N   0  0  0  0  0  0  0  0  0  0  0  0
    8.8298    0.5542    0.0000 C   0  0  0  0  0  0  0  0  0  0  0  0
    9.0523   -0.4208    0.0000 C   0  0  0  0  0  0  0  0  0  0  0  0
   10.8543   -0.4208    0.0000 C   0  0  0  0  0  0  0  0  0  0  0  0
   11.0768    0.5542    0.0000 C   0  0  0  0  0  0  0  0  0  0  0  0
    7.8393    0.8765    0.0000 C   0  0  0  0  0  0  0  0  0  0  0  0
   10.4533    1.3360    0.0000 C   0  0  0  0  0  0  0  0  0  0  0  0
    7.0703    0.1739    0.0000 C   0  0  0  0  0  0  0  0  0  0  0  0
    8.2998   -1.1409    0.0000 C   0  0  0  0  0  0  0  0  0  0  0  0
    7.3021   -0.8416    0.0000 C   0  0  0  0  0  0  0  0  0  0  0  0
    9.0194    2.2370    0.0000 C   0  0  0  0  0  0  0  0  0  0  0  0
   11.6068   -1.1410    0.0000 C   0  0  0  0  0  0  0  0  0  0  0  0
   12.0673    0.8765    0.0000 C   0  0  0  0  0  0  0  0  0  0  0  0
    6.1159    0.4724    0.0000 C   0  0  0  0  0  0  0  0  0  0  0  0
   12.6045   -0.8416    0.0000 C   0  0  0  0  0  0  0  0  0  0  0  0
   12.8363    0.1739    0.0000 C   0  0  0  0  0  0  0  0  0  0  0  0
    4.4258    0.0935    0.0000 C   0  0  0  0  0  0  0  0  0  0  0  0
    3.6901   -0.5839    0.0000 C   0  0  0  0  0  0  0  0  0  0  0  0
    3.9088   -1.5596    0.0000 C   0  0  0  0  0  0  0  0  0  0  0  0
    2.7357   -0.2854    0.0000 C   0  0  0  0  0  0  0  0  0  0  0  0
    3.1732   -2.2370    0.0000 C   0  0  0  0  0  0  0  0  0  0  0  0
    2.2188   -1.9385    0.0000 C   0  0  0  0  0  0  0  0  0  0  0  0
    7.7084    1.4825    0.0000 H   0  0  0  0  0  0  0  0  0  0  0  0
    8.4447   -1.7438    0.0000 H   0  0  0  0  0  0  0  0  0  0  0  0
    6.8492   -1.2650    0.0000 H   0  0  0  0  0  0  0  0  0  0  0  0
    9.5780    2.5060    0.0000 H   0  0  0  0  0  0  0  0  0  0  0  0
    8.7504    2.7956    0.0000 H   0  0  0  0  0  0  0  0  0  0  0  0
    8.4608    1.9680    0.0000 H   0  0  0  0  0  0  0  0  0  0  0  0
   11.4619   -1.7438    0.0000 H   0  0  0  0  0  0  0  0  0  0  0  0
   12.1983    1.4825    0.0000 H   0  0  0  0  0  0  0  0  0  0  0  0
   13.0574   -1.2651    0.0000 H   0  0  0  0  0  0  0  0  0  0  0  0
   13.4281    0.3589    0.0000 H   0  0  0  0  0  0  0  0  0  0  0  0
    5.5158   -0.8099    0.0000 H   0  0  0  0  0  0  0  0  0  0  0  0
    4.7108    0.6441    0.0000 H   0  0  0  0  0  0  0  0  0  0  0  0
    3.9330    0.4698    0.0000 H   0  0  0  0  0  0  0  0  0  0  0  0
    4.5006   -1.7447    0.0000 H   0  0  0  0  0  0  0  0  0  0  0  0
    2.6000    0.3196    0.0000 H   0  0  0  0  0  0  0  0  0  0  0  0
    3.3088   -2.8420    0.0000 H   0  0  0  0  0  0  0  0  0  0  0  0
    1.7626   -2.3585    0.0000 H   0  0  0  0  0  0  0  0  0  0  0  0
  1  2  2  0  0  0  0
  1  9  1  6  0  0  0
  1 10  1  0  0  0  0
  3 13  2  0  0  0  0
  4 20  2  0  0  0  0
  5  8  1  0  0  0  0
  5 13  1  0  0  0  0
  5 17  1  0  0  0  0
  6 20  1  0  0  0  0
  6 23  1  0  0  0  0
  6 39  1  0  0  0  0
  7 26  1  0  0  0  0
  7 28  2  0  0  0  0
  8  9  2  0  0  0  0
  8 12  1  0  0  0  0
  9 15  1  0  0  0  0
 10 11  1  0  0  0  0
 10 18  2  0  0  0  0
 11 13  1  0  0  0  0
 11 19  2  0  0  0  0
 12 14  2  0  0  0  0
 12 29  1  0  0  0  0
 14 16  1  0  0  0  0
 14 20  1  0  0  0  0
 15 16  2  0  0  0  0
 15 30  1  0  0  0  0
 16 31  1  0  0  0  0
 17 32  1  0  0  0  0
 17 33  1  0  0  0  0
 17 34  1  0  0  0  0
 18 21  1  0  0  0  0
 18 35  1  0  0  0  0
 19 22  1  0  0  0  0
 19 36  1  0  0  0  0
 21 22  2  0  0  0  0
 21 37  1  0  0  0  0
 22 38  1  0  0  0  0
 23 24  1  0  0  0  0
 23 40  1  0  0  0  0
 23 41  1  0  0  0  0
 24 25  1  0  0  0  0
 24 26  2  0  0  0  0
 25 27  2  0  0  0  0
 25 42  1  0  0  0  0
 26 43  1  0  0  0  0
 27 28  1  0  0  0  0
 27 44  1  0  0  0  0
 28 45  1  0  0  0  0
M  END
> <PUBCHEM_COMPOUND_CID>
57383436

> <PUBCHEM_COMPOUND_CANONICALIZED>
1

> <PUBCHEM_CACTVS_COMPLEXITY>
628

> <PUBCHEM_CACTVS_HBOND_ACCEPTOR>
5

> <PUBCHEM_CACTVS_HBOND_DONOR>
1

> <PUBCHEM_CACTVS_ROTATABLE_BOND>
3

> <PUBCHEM_CACTVS_SUBSKEYS>
AAADceB7MABAAAAAAAAAAAAAAAAAAAAAAAA8YIAABYAAAAAB0AAAHgQQAAAADAjB2gQ+wZPIEAqoAjV3VEDCgCA1CjAI2L04ZNgIIPLg1ZGEIQhghgDoyYcciACOEAAAQAAEAQAgAACAAAgCAAAAAAAAAA==

> <PUBCHEM_IUPAC_OPENEYE_NAME>
(11S)-5-methyl-6,11-dioxo-N-(3-pyridylmethyl)benzo[b][1,4]benzothiazepine-3-carboxamide

> <PUBCHEM_IUPAC_CAS_NAME>
(11S)-5-methyl-6,11-dioxo-N-(3-pyridinylmethyl)-3-benzo[b][1,4]benzothiazepinecarboxamide

> <PUBCHEM_IUPAC_NAME_MARKUP>
(11<I>S</I>)-5-methyl-6,11-dioxo-<I>N</I>-(pyridin-3-ylmethyl)benzo[b][1,4]benzothiazepine-3-carboxamide

> <PUBCHEM_IUPAC_NAME>
(11S)-5-methyl-6,11-dioxo-N-(pyridin-3-ylmethyl)benzo[b][1,4]benzothiazepine-3-carboxamide

> <PUBCHEM_IUPAC_SYSTEMATIC_NAME>
(11S)-5-methyl-6,11-bis(oxidanylidene)-N-(pyridin-3-ylmethyl)benzo[b][1,4]benzothiazepine-3-carboxamide

> <PUBCHEM_IUPAC_TRADITIONAL_NAME>
(11S)-6,11-diketo-5-methyl-N-(3-pyridylmethyl)benzo[b][1,4]benzothiazepine-3-carboxamide

> <PUBCHEM_IUPAC_INCHI>
InChI=1S/C21H17N3O3S/c1-24-17-11-15(20(25)23-13-14-5-4-10-22-12-14)8-9-19(17)28(27)18-7-3-2-6-16(18)21(24)26/h2-12H,13H2,1H3,(H,23,25)/t28-/m0/s1

> <PUBCHEM_IUPAC_INCHIKEY>
RANRSXNHVJZBGA-NDEPHWFRSA-N

> <PUBCHEM_XLOGP3_AA>
1.5

> <PUBCHEM_EXACT_MASS>
391.09906259

> <PUBCHEM_MOLECULAR_FORMULA>
C21H17N3O3S

> <PUBCHEM_MOLECULAR_WEIGHT>
391.4

> <PUBCHEM_OPENEYE_CAN_SMILES>
CN1C2=C(C=CC(=C2)C(=O)NCC3=CN=CC=C3)S(=O)C4=CC=CC=C4C1=O

> <PUBCHEM_OPENEYE_ISO_SMILES>
CN1C2=C(C=CC(=C2)C(=O)NCC3=CN=CC=C3)[S@@](=O)C4=CC=CC=C4C1=O

> <PUBCHEM_CACTVS_TPSA>
98.6

> <PUBCHEM_MONOISOTOPIC_WEIGHT>
391.09906259

> <PUBCHEM_TOTAL_CHARGE>
0

> <PUBCHEM_HEAVY_ATOM_COUNT>
28

> <PUBCHEM_ATOM_DEF_STEREO_COUNT>
1

> <PUBCHEM_ATOM_UDEF_STEREO_COUNT>
0

> <PUBCHEM_BOND_DEF_STEREO_COUNT>
0

> <PUBCHEM_BOND_UDEF_STEREO_COUNT>
0

> <PUBCHEM_ISOTOPIC_ATOM_COUNT>
0

> <PUBCHEM_COMPONENT_COUNT>
1

> <PUBCHEM_CACTVS_TAUTO_COUNT>
-1

> <PUBCHEM_COORDINATE_TYPE>
1
5
255

> <PUBCHEM_BONDANNOTATIONS>
1  9  6
10  11  8
10  18  8
11  19  8
12  14  8
14  16  8
15  16  8
18  21  8
19  22  8
21  22  8
24  25  8
24  26  8
25  27  8
27  28  8
7  26  8
7  28  8
8  12  8
8  9  8
9  15  8

$$$$
