86342193
  -OEChem-09292322382D

 62 66  0     0  0  0  0  0  0999 V2000
    4.6783   -5.9997    0.0000 S   0  0  0  0  0  0  0  0  0  0  0  0
    9.7884    2.8821    0.0000 O   0  0  0  0  0  0  0  0  0  0  0  0
    5.6103   -1.5386    0.0000 N   0  0  0  0  0  0  0  0  0  0  0  0
    8.1421    3.4202    0.0000 N   0  0  0  0  0  0  0  0  0  0  0  0
    4.9889   -3.4397    0.0000 N   0  0  0  0  0  0  0  0  0  0  0  0
    5.2619   -5.1949    0.0000 N   0  0  0  0  0  0  0  0  0  0  0  0
   10.3828    4.8843    0.0000 N   0  0  0  0  0  0  0  0  0  0  0  0
    7.2101    0.5686    0.0000 C   0  0  0  0  0  0  0  0  0  0  0  0
    6.5422    1.3129    0.0000 C   0  0  0  0  0  0  0  0  0  0  0  0
    8.1886    0.7748    0.0000 C   0  0  0  0  0  0  0  0  0  0  0  0
    7.8314    2.4696    0.0000 C   0  0  0  0  0  0  0  0  0  0  0  0
    6.8529    2.2634    0.0000 C   0  0  0  0  0  0  0  0  0  0  0  0
    8.4993    1.7254    0.0000 C   0  0  0  0  0  0  0  0  0  0  0  0
    6.8994   -0.3819    0.0000 C   0  0  0  0  0  0  0  0  0  0  0  0
    5.9209   -0.5881    0.0000 C   0  0  0  0  0  0  0  0  0  0  0  0
    4.6318   -1.7449    0.0000 C   0  0  0  0  0  0  0  0  0  0  0  0
    6.2781   -2.2830    0.0000 C   0  0  0  0  0  0  0  0  0  0  0  0
    4.3211   -2.6954    0.0000 C   0  0  0  0  0  0  0  0  0  0  0  0
    5.9674   -3.2335    0.0000 C   0  0  0  0  0  0  0  0  0  0  0  0
    9.1206    3.6264    0.0000 C   0  0  0  0  0  0  0  0  0  0  0  0
    4.6783   -4.3902    0.0000 C   0  0  0  0  0  0  0  0  0  0  0  0
    3.7320   -4.6949    0.0000 C   0  0  0  0  0  0  0  0  0  0  0  0
    9.4312    4.5769    0.0000 C   0  0  0  0  0  0  0  0  0  0  0  0
    3.7320   -5.6949    0.0000 C   0  0  0  0  0  0  0  0  0  0  0  0
    2.8660   -4.1949    0.0000 C   0  0  0  0  0  0  0  0  0  0  0  0
    8.8449    5.3869    0.0000 C   0  0  0  0  0  0  0  0  0  0  0  0
    2.8660   -6.1949    0.0000 C   0  0  0  0  0  0  0  0  0  0  0  0
    2.0000   -4.6949    0.0000 C   0  0  0  0  0  0  0  0  0  0  0  0
   10.3846    5.8843    0.0000 C   0  0  0  0  0  0  0  0  0  0  0  0
    9.4340    6.1949    0.0000 C   0  0  0  0  0  0  0  0  0  0  0  0
    2.0000   -5.6949    0.0000 C   0  0  0  0  0  0  0  0  0  0  0  0
    7.6242    0.1071    0.0000 H   0  0  0  0  0  0  0  0  0  0  0  0
    5.9953    1.6049    0.0000 H   0  0  0  0  0  0  0  0  0  0  0  0
    6.1597    0.8250    0.0000 H   0  0  0  0  0  0  0  0  0  0  0  0
    8.2092    0.1552    0.0000 H   0  0  0  0  0  0  0  0  0  0  0  0
    8.8024    0.6875    0.0000 H   0  0  0  0  0  0  0  0  0  0  0  0
    8.4381    2.5975    0.0000 H   0  0  0  0  0  0  0  0  0  0  0  0
    6.8323    2.8831    0.0000 H   0  0  0  0  0  0  0  0  0  0  0  0
    6.2391    2.3508    0.0000 H   0  0  0  0  0  0  0  0  0  0  0  0
    9.0462    1.4333    0.0000 H   0  0  0  0  0  0  0  0  0  0  0  0
    8.8818    2.2132    0.0000 H   0  0  0  0  0  0  0  0  0  0  0  0
    6.9200   -1.0016    0.0000 H   0  0  0  0  0  0  0  0  0  0  0  0
    7.5132   -0.4693    0.0000 H   0  0  0  0  0  0  0  0  0  0  0  0
    5.9004    0.0315    0.0000 H   0  0  0  0  0  0  0  0  0  0  0  0
    5.3071   -0.5008    0.0000 H   0  0  0  0  0  0  0  0  0  0  0  0
    4.6112   -1.1252    0.0000 H   0  0  0  0  0  0  0  0  0  0  0  0
    4.0179   -1.6575    0.0000 H   0  0  0  0  0  0  0  0  0  0  0  0
    6.8250   -2.5750    0.0000 H   0  0  0  0  0  0  0  0  0  0  0  0
    6.6607   -1.7950    0.0000 H   0  0  0  0  0  0  0  0  0  0  0  0
    7.7280    3.8816    0.0000 H   0  0  0  0  0  0  0  0  0  0  0  0
    3.7742   -2.4034    0.0000 H   0  0  0  0  0  0  0  0  0  0  0  0
    3.9385   -3.1833    0.0000 H   0  0  0  0  0  0  0  0  0  0  0  0
    5.9880   -3.8531    0.0000 H   0  0  0  0  0  0  0  0  0  0  0  0
    6.5812   -3.3208    0.0000 H   0  0  0  0  0  0  0  0  0  0  0  0
    2.8660   -3.5749    0.0000 H   0  0  0  0  0  0  0  0  0  0  0  0
   10.8838    4.5190    0.0000 H   0  0  0  0  0  0  0  0  0  0  0  0
    8.2249    5.3880    0.0000 H   0  0  0  0  0  0  0  0  0  0  0  0
    2.8660   -6.8149    0.0000 H   0  0  0  0  0  0  0  0  0  0  0  0
    1.4631   -4.3849    0.0000 H   0  0  0  0  0  0  0  0  0  0  0  0
   10.8868    6.2478    0.0000 H   0  0  0  0  0  0  0  0  0  0  0  0
    9.2435    6.7849    0.0000 H   0  0  0  0  0  0  0  0  0  0  0  0
    1.4631   -6.0049    0.0000 H   0  0  0  0  0  0  0  0  0  0  0  0
  1  6  1  0  0  0  0
  1 24  1  0  0  0  0
  2 20  2  0  0  0  0
  3 15  1  0  0  0  0
  3 16  1  0  0  0  0
  3 17  1  0  0  0  0
  4 11  1  0  0  0  0
  4 20  1  0  0  0  0
  4 50  1  0  0  0  0
  5 18  1  0  0  0  0
  5 19  1  0  0  0  0
  5 21  1  0  0  0  0
  6 21  2  0  0  0  0
  7 23  1  0  0  0  0
  7 29  1  0  0  0  0
  7 56  1  0  0  0  0
  8  9  1  0  0  0  0
  8 10  1  0  0  0  0
  8 14  1  0  0  0  0
  8 32  1  0  0  0  0
  9 12  1  0  0  0  0
  9 33  1  0  0  0  0
  9 34  1  0  0  0  0
 10 13  1  0  0  0  0
 10 35  1  0  0  0  0
 10 36  1  0  0  0  0
 11 12  1  0  0  0  0
 11 13  1  0  0  0  0
 11 37  1  0  0  0  0
 12 38  1  0  0  0  0
 12 39  1  0  0  0  0
 13 40  1  0  0  0  0
 13 41  1  0  0  0  0
 14 15  1  0  0  0  0
 14 42  1  0  0  0  0
 14 43  1  0  0  0  0
 15 44  1  0  0  0  0
 15 45  1  0  0  0  0
 16 18  1  0  0  0  0
 16 46  1  0  0  0  0
 16 47  1  0  0  0  0
 17 19  1  0  0  0  0
 17 48  1  0  0  0  0
 17 49  1  0  0  0  0
 18 51  1  0  0  0  0
 18 52  1  0  0  0  0
 19 53  1  0  0  0  0
 19 54  1  0  0  0  0
 20 23  1  0  0  0  0
 21 22  1  0  0  0  0
 22 24  1  0  0  0  0
 22 25  2  0  0  0  0
 23 26  2  0  0  0  0
 24 27  2  0  0  0  0
 25 28  1  0  0  0  0
 25 55  1  0  0  0  0
 26 30  1  0  0  0  0
 26 57  1  0  0  0  0
 27 31  1  0  0  0  0
 27 58  1  0  0  0  0
 28 31  2  0  0  0  0
 28 59  1  0  0  0  0
 29 30  2  0  0  0  0
 29 60  1  0  0  0  0
 30 61  1  0  0  0  0
 31 62  1  0  0  0  0
M  END
> <PUBCHEM_COMPOUND_CID>
86342193

> <PUBCHEM_COMPOUND_CANONICALIZED>
1

> <PUBCHEM_CACTVS_COMPLEXITY>
591

> <PUBCHEM_CACTVS_HBOND_ACCEPTOR>
5

> <PUBCHEM_CACTVS_HBOND_DONOR>
2

> <PUBCHEM_CACTVS_ROTATABLE_BOND>
6

> <PUBCHEM_CACTVS_SUBSKEYS>
AAADceB7oABAAAAAAAAAAAAAAAAAAWLAAAA8YIAAAAAAAFgB/AAAHgQQQAAADSjB3gQ9sdPJkACsAzd3dACDgDA3AiBJ2bm4ZNiIYPLAnbGUIQxglgLIyYcYgYAOAAAAAAAEAAAQAAAAAAgAAAAAAAAAAA==

> <PUBCHEM_IUPAC_OPENEYE_NAME>
N-[4-[2-[4-(1,2-benzothiazol-3-yl)piperazin-1-yl]ethyl]cyclohexyl]-1H-pyrrole-2-carboxamide

> <PUBCHEM_IUPAC_CAS_NAME>
N-[4-[2-[4-(1,2-benzothiazol-3-yl)-1-piperazinyl]ethyl]cyclohexyl]-1H-pyrrole-2-carboxamide

> <PUBCHEM_IUPAC_NAME_MARKUP>
<I>N</I>-[4-[2-[4-(1,2-benzothiazol-3-yl)piperazin-1-yl]ethyl]cyclohexyl]-1<I>H</I>-pyrrole-2-carboxamide

> <PUBCHEM_IUPAC_NAME>
N-[4-[2-[4-(1,2-benzothiazol-3-yl)piperazin-1-yl]ethyl]cyclohexyl]-1H-pyrrole-2-carboxamide

> <PUBCHEM_IUPAC_SYSTEMATIC_NAME>
N-[4-[2-[4-(1,2-benzothiazol-3-yl)piperazin-1-yl]ethyl]cyclohexyl]-1H-pyrrole-2-carboxamide

> <PUBCHEM_IUPAC_TRADITIONAL_NAME>
N-[4-[2-[4-(1,2-benzothiazol-3-yl)piperazino]ethyl]cyclohexyl]-1H-pyrrole-2-carboxamide

> <PUBCHEM_IUPAC_INCHI>
InChI=1S/C24H31N5OS/c30-24(21-5-3-12-25-21)26-19-9-7-18(8-10-19)11-13-28-14-16-29(17-15-28)23-20-4-1-2-6-22(20)31-27-23/h1-6,12,18-19,25H,7-11,13-17H2,(H,26,30)

> <PUBCHEM_IUPAC_INCHIKEY>
LCZMXKRXXCYHBB-UHFFFAOYSA-N

> <PUBCHEM_XLOGP3_AA>
4.6

> <PUBCHEM_EXACT_MASS>
437.22493180

> <PUBCHEM_MOLECULAR_FORMULA>
C24H31N5OS

> <PUBCHEM_MOLECULAR_WEIGHT>
437.6

> <PUBCHEM_OPENEYE_CAN_SMILES>
C1CC(CCC1CCN2CCN(CC2)C3=NSC4=CC=CC=C43)NC(=O)C5=CC=CN5

> <PUBCHEM_OPENEYE_ISO_SMILES>
C1CC(CCC1CCN2CCN(CC2)C3=NSC4=CC=CC=C43)NC(=O)C5=CC=CN5

> <PUBCHEM_CACTVS_TPSA>
92.5

> <PUBCHEM_MONOISOTOPIC_WEIGHT>
437.22493180

> <PUBCHEM_TOTAL_CHARGE>
0

> <PUBCHEM_HEAVY_ATOM_COUNT>
31

> <PUBCHEM_ATOM_DEF_STEREO_COUNT>
0

> <PUBCHEM_ATOM_UDEF_STEREO_COUNT>
0

> <PUBCHEM_BOND_DEF_STEREO_COUNT>
0

> <PUBCHEM_BOND_UDEF_STEREO_COUNT>
0

> <PUBCHEM_ISOTOPIC_ATOM_COUNT>
0

> <PUBCHEM_COMPONENT_COUNT>
1

> <PUBCHEM_CACTVS_TAUTO_COUNT>
-1

> <PUBCHEM_COORDINATE_TYPE>
1
5
255

> <PUBCHEM_BONDANNOTATIONS>
1  24  8
1  6  8
21  22  8
22  24  8
22  25  8
23  26  8
24  27  8
25  28  8
26  30  8
27  31  8
28  31  8
29  30  8
6  21  8
7  23  8
7  29  8

$$$$
