53248211
  -OEChem-09292322042D

 59 62  0     1  0  0  0  0  0999 V2000
   15.4939    0.3660    0.0000 Cl  0  0  0  0  0  0  0  0  0  0  0  0
   17.4939    0.3660    0.0000 Cl  0  0  0  0  0  0  0  0  0  0  0  0
   11.4939    0.3660    0.0000 F   0  0  0  0  0  0  0  0  0  0  0  0
    6.4103    0.4273    0.0000 O   0  0  0  0  0  0  0  0  0  0  0  0
    8.4939    2.0981    0.0000 O   0  0  0  0  0  0  0  0  0  0  0  0
    2.8660    2.2320    0.0000 O   0  0  0  0  0  0  0  0  0  0  0  0
   12.4939   -1.3660    0.0000 N   0  0  0  0  0  0  0  0  0  0  0  0
   14.4939   -1.3660    0.0000 N   0  0  0  0  0  0  0  0  0  0  0  0
    8.4939    0.3660    0.0000 N   0  0  0  0  0  0  0  0  0  0  0  0
   12.9939   -0.5000    0.0000 C   0  0  0  0  0  0  0  0  0  0  0  0
   12.9939   -2.2320    0.0000 C   0  0  0  0  0  0  0  0  0  0  0  0
   13.9939   -0.5000    0.0000 C   0  0  0  0  0  0  0  0  0  0  0  0
   13.9939   -2.2320    0.0000 C   0  0  0  0  0  0  0  0  0  0  0  0
   11.4939   -1.3660    0.0000 C   0  0  0  0  0  0  0  0  0  0  0  0
   10.9939   -0.5000    0.0000 C   0  0  3  0  0  0  0  0  0  0  0  0
    9.9939   -0.5000    0.0000 C   0  0  0  0  0  0  0  0  0  0  0  0
   15.4939   -1.3660    0.0000 C   0  0  0  0  0  0  0  0  0  0  0  0
    9.4939    0.3660    0.0000 C   0  0  0  0  0  0  0  0  0  0  0  0
   15.9939   -0.5000    0.0000 C   0  0  0  0  0  0  0  0  0  0  0  0
   15.9939   -2.2320    0.0000 C   0  0  0  0  0  0  0  0  0  0  0  0
   16.9939   -0.5000    0.0000 C   0  0  0  0  0  0  0  0  0  0  0  0
   16.9939   -2.2320    0.0000 C   0  0  0  0  0  0  0  0  0  0  0  0
   17.4939   -1.3660    0.0000 C   0  0  0  0  0  0  0  0  0  0  0  0
    7.9939    1.2320    0.0000 C   0  0  0  0  0  0  0  0  0  0  0  0
    6.9939    1.2320    0.0000 C   0  0  0  0  0  0  0  0  0  0  0  0
    5.4641    1.7320    0.0000 C   0  0  0  0  0  0  0  0  0  0  0  0
    6.4103    2.0368    0.0000 C   0  0  0  0  0  0  0  0  0  0  0  0
    5.4641    0.7321    0.0000 C   0  0  0  0  0  0  0  0  0  0  0  0
    4.5981    2.2320    0.0000 C   0  0  0  0  0  0  0  0  0  0  0  0
    4.5981    0.2321    0.0000 C   0  0  0  0  0  0  0  0  0  0  0  0
    3.7320    1.7320    0.0000 C   0  0  0  0  0  0  0  0  0  0  0  0
    3.7320    0.7321    0.0000 C   0  0  0  0  0  0  0  0  0  0  0  0
    2.0000    1.7320    0.0000 C   0  0  0  0  0  0  0  0  0  0  0  0
   13.1016    0.1106    0.0000 H   0  0  0  0  0  0  0  0  0  0  0  0
   12.4113   -0.2879    0.0000 H   0  0  0  0  0  0  0  0  0  0  0  0
   12.4113   -2.4441    0.0000 H   0  0  0  0  0  0  0  0  0  0  0  0
   13.1016   -2.8426    0.0000 H   0  0  0  0  0  0  0  0  0  0  0  0
   14.5765   -0.2879    0.0000 H   0  0  0  0  0  0  0  0  0  0  0  0
   13.8863    0.1106    0.0000 H   0  0  0  0  0  0  0  0  0  0  0  0
   13.8863   -2.8426    0.0000 H   0  0  0  0  0  0  0  0  0  0  0  0
   14.5765   -2.4441    0.0000 H   0  0  0  0  0  0  0  0  0  0  0  0
   10.9113   -1.5781    0.0000 H   0  0  0  0  0  0  0  0  0  0  0  0
   11.6016   -1.9766    0.0000 H   0  0  0  0  0  0  0  0  0  0  0  0
   11.6139   -0.5000    0.0000 H   0  0  0  0  0  0  0  0  0  0  0  0
    9.4113   -0.7121    0.0000 H   0  0  0  0  0  0  0  0  0  0  0  0
   10.1016   -1.1106    0.0000 H   0  0  0  0  0  0  0  0  0  0  0  0
   10.0765    0.5781    0.0000 H   0  0  0  0  0  0  0  0  0  0  0  0
    9.3863    0.9766    0.0000 H   0  0  0  0  0  0  0  0  0  0  0  0
   15.6839   -2.7690    0.0000 H   0  0  0  0  0  0  0  0  0  0  0  0
    8.1839   -0.1709    0.0000 H   0  0  0  0  0  0  0  0  0  0  0  0
   17.3039   -2.7690    0.0000 H   0  0  0  0  0  0  0  0  0  0  0  0
   18.1139   -1.3660    0.0000 H   0  0  0  0  0  0  0  0  0  0  0  0
    6.6029    2.6261    0.0000 H   0  0  0  0  0  0  0  0  0  0  0  0
    4.5981    2.8521    0.0000 H   0  0  0  0  0  0  0  0  0  0  0  0
    4.5981   -0.3879    0.0000 H   0  0  0  0  0  0  0  0  0  0  0  0
    3.1951    0.4221    0.0000 H   0  0  0  0  0  0  0  0  0  0  0  0
    1.6900    2.2690    0.0000 H   0  0  0  0  0  0  0  0  0  0  0  0
    1.4631    1.4220    0.0000 H   0  0  0  0  0  0  0  0  0  0  0  0
    2.3100    1.1951    0.0000 H   0  0  0  0  0  0  0  0  0  0  0  0
  1 19  1  0  0  0  0
  2 21  1  0  0  0  0
  3 15  1  0  0  0  0
  4 25  1  0  0  0  0
  4 28  1  0  0  0  0
  5 24  2  0  0  0  0
  6 31  1  0  0  0  0
  6 33  1  0  0  0  0
  7 10  1  0  0  0  0
  7 11  1  0  0  0  0
  7 14  1  0  0  0  0
  8 12  1  0  0  0  0
  8 13  1  0  0  0  0
  8 17  1  0  0  0  0
  9 18  1  0  0  0  0
  9 24  1  0  0  0  0
  9 50  1  0  0  0  0
 10 12  1  0  0  0  0
 10 34  1  0  0  0  0
 10 35  1  0  0  0  0
 11 13  1  0  0  0  0
 11 36  1  0  0  0  0
 11 37  1  0  0  0  0
 12 38  1  0  0  0  0
 12 39  1  0  0  0  0
 13 40  1  0  0  0  0
 13 41  1  0  0  0  0
 14 15  1  0  0  0  0
 14 42  1  0  0  0  0
 14 43  1  0  0  0  0
 15 16  1  0  0  0  0
 15 44  1  0  0  0  0
 16 18  1  0  0  0  0
 16 45  1  0  0  0  0
 16 46  1  0  0  0  0
 17 19  2  0  0  0  0
 17 20  1  0  0  0  0
 18 47  1  0  0  0  0
 18 48  1  0  0  0  0
 19 21  1  0  0  0  0
 20 22  2  0  0  0  0
 20 49  1  0  0  0  0
 21 23  2  0  0  0  0
 22 23  1  0  0  0  0
 22 51  1  0  0  0  0
 23 52  1  0  0  0  0
 24 25  1  0  0  0  0
 25 27  2  0  0  0  0
 26 27  1  0  0  0  0
 26 28  2  0  0  0  0
 26 29  1  0  0  0  0
 27 53  1  0  0  0  0
 28 30  1  0  0  0  0
 29 31  2  0  0  0  0
 29 54  1  0  0  0  0
 30 32  2  0  0  0  0
 30 55  1  0  0  0  0
 31 32  1  0  0  0  0
 32 56  1  0  0  0  0
 33 57  1  0  0  0  0
 33 58  1  0  0  0  0
 33 59  1  0  0  0  0
M  END
> <PUBCHEM_COMPOUND_CID>
53248211

> <PUBCHEM_COMPOUND_CANONICALIZED>
1

> <PUBCHEM_CACTVS_COMPLEXITY>
640

> <PUBCHEM_CACTVS_HBOND_ACCEPTOR>
6

> <PUBCHEM_CACTVS_HBOND_DONOR>
1

> <PUBCHEM_CACTVS_ROTATABLE_BOND>
8

> <PUBCHEM_CACTVS_SUBSKEYS>
AAADceB7MQAGAAAAAAAAAAAAAAAAASAAAAA8YIAAAAAAAEgB9AAAHwIQAAAADA7BmCYyxsPABECIAqVSUAKCCAAlJwAIisHObsgOZjLFt7/XOSjk1hHY6Yfa/77uAQABAAIIABQCAAIABBAAKAAAAAAAAA==

> <PUBCHEM_IUPAC_OPENEYE_NAME>
N-[4-[4-(2,3-dichlorophenyl)piperazin-1-yl]-3-fluoro-butyl]-5-methoxy-benzofuran-2-carboxamide

> <PUBCHEM_IUPAC_CAS_NAME>
N-[4-[4-(2,3-dichlorophenyl)-1-piperazinyl]-3-fluorobutyl]-5-methoxy-2-benzofurancarboxamide

> <PUBCHEM_IUPAC_NAME_MARKUP>
<I>N</I>-[4-[4-(2,3-dichlorophenyl)piperazin-1-yl]-3-fluorobutyl]-5-methoxy-1-benzofuran-2-carboxamide

> <PUBCHEM_IUPAC_NAME>
N-[4-[4-(2,3-dichlorophenyl)piperazin-1-yl]-3-fluorobutyl]-5-methoxy-1-benzofuran-2-carboxamide

> <PUBCHEM_IUPAC_SYSTEMATIC_NAME>
N-[4-[4-[2,3-bis(chloranyl)phenyl]piperazin-1-yl]-3-fluoranyl-butyl]-5-methoxy-1-benzofuran-2-carboxamide

> <PUBCHEM_IUPAC_TRADITIONAL_NAME>
N-[4-[4-(2,3-dichlorophenyl)piperazino]-3-fluoro-butyl]-5-methoxy-coumarilamide

> <PUBCHEM_IUPAC_INCHI>
InChI=1S/C24H26Cl2FN3O3/c1-32-18-5-6-21-16(13-18)14-22(33-21)24(31)28-8-7-17(27)15-29-9-11-30(12-10-29)20-4-2-3-19(25)23(20)26/h2-6,13-14,17H,7-12,15H2,1H3,(H,28,31)

> <PUBCHEM_IUPAC_INCHIKEY>
TXDNMFSXILPGFK-UHFFFAOYSA-N

> <PUBCHEM_XLOGP3_AA>
5.6

> <PUBCHEM_EXACT_MASS>
493.1335252

> <PUBCHEM_MOLECULAR_FORMULA>
C24H26Cl2FN3O3

> <PUBCHEM_MOLECULAR_WEIGHT>
494.4

> <PUBCHEM_OPENEYE_CAN_SMILES>
COC1=CC2=C(C=C1)OC(=C2)C(=O)NCCC(CN3CCN(CC3)C4=C(C(=CC=C4)Cl)Cl)F

> <PUBCHEM_OPENEYE_ISO_SMILES>
COC1=CC2=C(C=C1)OC(=C2)C(=O)NCCC(CN3CCN(CC3)C4=C(C(=CC=C4)Cl)Cl)F

> <PUBCHEM_CACTVS_TPSA>
58

> <PUBCHEM_MONOISOTOPIC_WEIGHT>
493.1335252

> <PUBCHEM_TOTAL_CHARGE>
0

> <PUBCHEM_HEAVY_ATOM_COUNT>
33

> <PUBCHEM_ATOM_DEF_STEREO_COUNT>
0

> <PUBCHEM_ATOM_UDEF_STEREO_COUNT>
1

> <PUBCHEM_BOND_DEF_STEREO_COUNT>
0

> <PUBCHEM_BOND_UDEF_STEREO_COUNT>
0

> <PUBCHEM_ISOTOPIC_ATOM_COUNT>
0

> <PUBCHEM_COMPONENT_COUNT>
1

> <PUBCHEM_CACTVS_TAUTO_COUNT>
-1

> <PUBCHEM_COORDINATE_TYPE>
1
5
255

> <PUBCHEM_BONDANNOTATIONS>
17  19  8
17  20  8
19  21  8
20  22  8
21  23  8
22  23  8
25  27  8
26  27  8
26  28  8
26  29  8
28  30  8
29  31  8
15  3  3
30  32  8
31  32  8
4  25  8
4  28  8

$$$$
