24900937
  -OEChem-09292322042D

 56 59  0     1  0  0  0  0  0999 V2000
   11.4571   -1.5403    0.0000 S   0  0  0  0  0  0  0  0  0  0  0  0
   10.5109    0.1550    0.0000 O   0  0  0  0  0  0  0  0  0  0  0  0
    9.6448   -4.3450    0.0000 O   0  0  0  0  0  0  0  0  0  0  0  0
   13.0407   -2.3450    0.0000 O   0  0  0  0  0  0  0  0  0  0  0  0
    3.5827    3.1550    0.0000 N   0  0  0  0  0  0  0  0  0  0  0  0
    8.7788    1.1550    0.0000 N   0  0  0  0  0  0  0  0  0  0  0  0
   11.4571   -3.1497    0.0000 N   0  0  0  0  0  0  0  0  0  0  0  0
    3.4782    4.1495    0.0000 C   0  0  0  0  0  0  0  0  0  0  0  0
    2.6691    2.7483    0.0000 C   0  0  0  0  0  0  0  0  0  0  0  0
    2.5000    4.3574    0.0000 C   0  0  0  0  0  0  0  0  0  0  0  0
    2.0000    3.4914    0.0000 C   0  0  0  0  0  0  0  0  0  0  0  0
    4.4487    2.6550    0.0000 C   0  0  0  0  0  0  0  0  0  0  0  0
    5.3147    3.1550    0.0000 C   0  0  0  0  0  0  0  0  0  0  0  0
    6.1808    2.6550    0.0000 C   0  0  0  0  0  0  0  0  0  0  0  0
    7.0468    3.1550    0.0000 C   0  0  0  0  0  0  0  0  0  0  0  0
    7.9128    2.6550    0.0000 C   0  0  0  0  0  0  0  0  0  0  0  0
    5.3147    4.1550    0.0000 C   0  0  0  0  0  0  0  0  0  0  0  0
    7.9128    1.6550    0.0000 C   0  0  0  0  0  0  0  0  0  0  0  0
    9.6448   -0.3450    0.0000 C   0  0  1  0  0  0  0  0  0  0  0  0
    8.7788    0.1550    0.0000 C   0  0  0  0  0  0  0  0  0  0  0  0
    7.0468    4.1550    0.0000 C   0  0  0  0  0  0  0  0  0  0  0  0
    9.6448   -1.3450    0.0000 C   0  0  0  0  0  0  0  0  0  0  0  0
    6.1808    4.6550    0.0000 C   0  0  0  0  0  0  0  0  0  0  0  0
   10.5109   -1.8450    0.0000 C   0  0  0  0  0  0  0  0  0  0  0  0
   10.5109   -2.8450    0.0000 C   0  0  0  0  0  0  0  0  0  0  0  0
    8.7788   -1.8450    0.0000 C   0  0  0  0  0  0  0  0  0  0  0  0
    9.6448   -3.3450    0.0000 C   0  0  0  0  0  0  0  0  0  0  0  0
    8.7788   -2.8450    0.0000 C   0  0  0  0  0  0  0  0  0  0  0  0
   12.0407   -2.3450    0.0000 C   0  0  0  0  0  0  0  0  0  0  0  0
    4.0982    4.1495    0.0000 H   0  0  0  0  0  0  0  0  0  0  0  0
    3.5430    4.7661    0.0000 H   0  0  0  0  0  0  0  0  0  0  0  0
    2.1675    2.3838    0.0000 H   0  0  0  0  0  0  0  0  0  0  0  0
    2.9791    2.2113    0.0000 H   0  0  0  0  0  0  0  0  0  0  0  0
    2.6916    4.9471    0.0000 H   0  0  0  0  0  0  0  0  0  0  0  0
    1.9336    4.6096    0.0000 H   0  0  0  0  0  0  0  0  0  0  0  0
    1.4984    3.8558    0.0000 H   0  0  0  0  0  0  0  0  0  0  0  0
    1.5851    3.0307    0.0000 H   0  0  0  0  0  0  0  0  0  0  0  0
    4.0502    2.1800    0.0000 H   0  0  0  0  0  0  0  0  0  0  0  0
    4.8472    2.1800    0.0000 H   0  0  0  0  0  0  0  0  0  0  0  0
    6.1808    2.0350    0.0000 H   0  0  0  0  0  0  0  0  0  0  0  0
    8.5234    2.5473    0.0000 H   0  0  0  0  0  0  0  0  0  0  0  0
    8.1249    3.2376    0.0000 H   0  0  0  0  0  0  0  0  0  0  0  0
    4.7778    4.4650    0.0000 H   0  0  0  0  0  0  0  0  0  0  0  0
    7.3022    1.7627    0.0000 H   0  0  0  0  0  0  0  0  0  0  0  0
    7.7008    1.0724    0.0000 H   0  0  0  0  0  0  0  0  0  0  0  0
    9.6448    0.2750    0.0000 H   0  0  0  0  0  0  0  0  0  0  0  0
    8.1682    0.2627    0.0000 H   0  0  0  0  0  0  0  0  0  0  0  0
    8.5668   -0.4276    0.0000 H   0  0  0  0  0  0  0  0  0  0  0  0
    9.3158    1.4650    0.0000 H   0  0  0  0  0  0  0  0  0  0  0  0
    7.5837    4.4650    0.0000 H   0  0  0  0  0  0  0  0  0  0  0  0
    6.1808    5.2750    0.0000 H   0  0  0  0  0  0  0  0  0  0  0  0
    8.2419   -1.5350    0.0000 H   0  0  0  0  0  0  0  0  0  0  0  0
    8.2419   -3.1550    0.0000 H   0  0  0  0  0  0  0  0  0  0  0  0
   11.6497   -3.7390    0.0000 H   0  0  0  0  0  0  0  0  0  0  0  0
   10.5109    0.7750    0.0000 H   0  0  0  0  0  0  0  0  0  0  0  0
    9.1079   -4.6550    0.0000 H   0  0  0  0  0  0  0  0  0  0  0  0
  1 24  1  0  0  0  0
  1 29  1  0  0  0  0
 19  2  1  6  0  0  0
  2 55  1  0  0  0  0
  3 27  1  0  0  0  0
  3 56  1  0  0  0  0
  4 29  2  0  0  0  0
  5  8  1  0  0  0  0
  5  9  1  0  0  0  0
  5 12  1  0  0  0  0
  6 18  1  0  0  0  0
  6 20  1  0  0  0  0
  6 49  1  0  0  0  0
  7 25  1  0  0  0  0
  7 29  1  0  0  0  0
  7 54  1  0  0  0  0
  8 10  1  0  0  0  0
  8 30  1  0  0  0  0
  8 31  1  0  0  0  0
  9 11  1  0  0  0  0
  9 32  1  0  0  0  0
  9 33  1  0  0  0  0
 10 11  1  0  0  0  0
 10 34  1  0  0  0  0
 10 35  1  0  0  0  0
 11 36  1  0  0  0  0
 11 37  1  0  0  0  0
 12 13  1  0  0  0  0
 12 38  1  0  0  0  0
 12 39  1  0  0  0  0
 13 14  1  0  0  0  0
 13 17  2  0  0  0  0
 14 15  2  0  0  0  0
 14 40  1  0  0  0  0
 15 16  1  0  0  0  0
 15 21  1  0  0  0  0
 16 18  1  0  0  0  0
 16 41  1  0  0  0  0
 16 42  1  0  0  0  0
 17 23  1  0  0  0  0
 17 43  1  0  0  0  0
 18 44  1  0  0  0  0
 18 45  1  0  0  0  0
 19 20  1  0  0  0  0
 19 22  1  0  0  0  0
 19 46  1  0  0  0  0
 20 47  1  0  0  0  0
 20 48  1  0  0  0  0
 21 23  2  0  0  0  0
 21 50  1  0  0  0  0
 22 24  2  0  0  0  0
 22 26  1  0  0  0  0
 23 51  1  0  0  0  0
 24 25  1  0  0  0  0
 25 27  2  0  0  0  0
 26 28  2  0  0  0  0
 26 52  1  0  0  0  0
 27 28  1  0  0  0  0
 28 53  1  0  0  0  0
M  END
> <PUBCHEM_COMPOUND_CID>
24900937

> <PUBCHEM_COMPOUND_CANONICALIZED>
1

> <PUBCHEM_CACTVS_COMPLEXITY>
545

> <PUBCHEM_CACTVS_HBOND_ACCEPTOR>
6

> <PUBCHEM_CACTVS_HBOND_DONOR>
4

> <PUBCHEM_CACTVS_ROTATABLE_BOND>
8

> <PUBCHEM_CACTVS_SUBSKEYS>
AAADceB7MABAAAAAAAAAAAAAAAAAAWLAAAAwYAAAAAAAAFgBQAAAHgQQCAAADBzh2AYwx4PAAgiIAiRCUACCAABhKBAIiJQPTIgKNiLykZOEcAhk1BHY2Aew4OQOIAACRAAEEQBAAASIAAgiAAAAAAAAAA==

> <PUBCHEM_IUPAC_OPENEYE_NAME>
4-hydroxy-7-[(1R)-1-hydroxy-2-[2-[3-(pyrrolidin-1-ylmethyl)phenyl]ethylamino]ethyl]-3H-1,3-benzothiazol-2-one

> <PUBCHEM_IUPAC_CAS_NAME>
4-hydroxy-7-[(1R)-1-hydroxy-2-[2-[3-(1-pyrrolidinylmethyl)phenyl]ethylamino]ethyl]-3H-1,3-benzothiazol-2-one

> <PUBCHEM_IUPAC_NAME_MARKUP>
4-hydroxy-7-[(1<I>R</I>)-1-hydroxy-2-[2-[3-(pyrrolidin-1-ylmethyl)phenyl]ethylamino]ethyl]-3<I>H</I>-1,3-benzothiazol-2-one

> <PUBCHEM_IUPAC_NAME>
4-hydroxy-7-[(1R)-1-hydroxy-2-[2-[3-(pyrrolidin-1-ylmethyl)phenyl]ethylamino]ethyl]-3H-1,3-benzothiazol-2-one

> <PUBCHEM_IUPAC_SYSTEMATIC_NAME>
4-oxidanyl-7-[(1R)-1-oxidanyl-2-[2-[3-(pyrrolidin-1-ylmethyl)phenyl]ethylamino]ethyl]-3H-1,3-benzothiazol-2-one

> <PUBCHEM_IUPAC_TRADITIONAL_NAME>
4-hydroxy-7-[(1R)-1-hydroxy-2-[2-[3-(pyrrolidinomethyl)phenyl]ethylamino]ethyl]-3H-1,3-benzothiazol-2-one

> <PUBCHEM_IUPAC_INCHI>
InChI=1S/C22H27N3O3S/c26-18-7-6-17(21-20(18)24-22(28)29-21)19(27)13-23-9-8-15-4-3-5-16(12-15)14-25-10-1-2-11-25/h3-7,12,19,23,26-27H,1-2,8-11,13-14H2,(H,24,28)/t19-/m0/s1

> <PUBCHEM_IUPAC_INCHIKEY>
QWWLVVDOGURJDF-IBGZPJMESA-N

> <PUBCHEM_XLOGP3_AA>
2.3

> <PUBCHEM_EXACT_MASS>
413.17731291

> <PUBCHEM_MOLECULAR_FORMULA>
C22H27N3O3S

> <PUBCHEM_MOLECULAR_WEIGHT>
413.5

> <PUBCHEM_OPENEYE_CAN_SMILES>
C1CCN(C1)CC2=CC=CC(=C2)CCNCC(C3=C4C(=C(C=C3)O)NC(=O)S4)O

> <PUBCHEM_OPENEYE_ISO_SMILES>
C1CCN(C1)CC2=CC=CC(=C2)CCNC[C@@H](C3=C4C(=C(C=C3)O)NC(=O)S4)O

> <PUBCHEM_CACTVS_TPSA>
110

> <PUBCHEM_MONOISOTOPIC_WEIGHT>
413.17731291

> <PUBCHEM_TOTAL_CHARGE>
0

> <PUBCHEM_HEAVY_ATOM_COUNT>
29

> <PUBCHEM_ATOM_DEF_STEREO_COUNT>
1

> <PUBCHEM_ATOM_UDEF_STEREO_COUNT>
0

> <PUBCHEM_BOND_DEF_STEREO_COUNT>
0

> <PUBCHEM_BOND_UDEF_STEREO_COUNT>
0

> <PUBCHEM_ISOTOPIC_ATOM_COUNT>
0

> <PUBCHEM_COMPONENT_COUNT>
1

> <PUBCHEM_CACTVS_TAUTO_COUNT>
-1

> <PUBCHEM_COORDINATE_TYPE>
1
5
255

> <PUBCHEM_BONDANNOTATIONS>
1  24  8
1  29  8
13  14  8
13  17  8
14  15  8
15  21  8
17  23  8
19  2  6
21  23  8
22  24  8
22  26  8
24  25  8
25  27  8
26  28  8
27  28  8
7  25  8
7  29  8

$$$$
