163466827
  -OEChem-09292322442D

 66 69  0     1  0  0  0  0  0999 V2000
    2.0000   -5.6065    0.0000 F   0  0  0  0  0  0  0  0  0  0  0  0
   10.0331    1.5695    0.0000 O   0  0  0  0  0  0  0  0  0  0  0  0
    9.7225    0.6190    0.0000 O   0  0  0  0  0  0  0  0  0  0  0  0
    5.5443   -5.4112    0.0000 O   0  0  0  0  0  0  0  0  0  0  0  0
   11.5982    4.3173    0.0000 O   0  0  0  0  0  0  0  0  0  0  0  0
    6.4763   -0.9502    0.0000 N   0  0  0  0  0  0  0  0  0  0  0  0
    9.9034    3.9602    0.0000 N   0  0  0  0  0  0  0  0  0  0  0  0
    8.0761    1.1571    0.0000 N   0  0  0  0  0  0  0  0  0  0  0  0
    6.1279   -4.6065    0.0000 N   0  0  0  0  0  0  0  0  0  0  0  0
    5.8550   -2.8512    0.0000 C   0  0  0  0  0  0  0  0  0  0  0  0
    9.3653    2.3138    0.0000 C   0  0  3  0  0  0  0  0  0  0  0  0
    5.1871   -2.1069    0.0000 C   0  0  0  0  0  0  0  0  0  0  0  0
    6.8335   -2.6450    0.0000 C   0  0  0  0  0  0  0  0  0  0  0  0
    5.4978   -1.1564    0.0000 C   0  0  0  0  0  0  0  0  0  0  0  0
    7.1441   -1.6945    0.0000 C   0  0  0  0  0  0  0  0  0  0  0  0
    8.4148    2.6245    0.0000 C   0  0  0  0  0  0  0  0  0  0  0  0
   10.1096    2.9816    0.0000 C   0  0  0  0  0  0  0  0  0  0  0  0
    6.7870    0.0003    0.0000 C   0  0  0  0  0  0  0  0  0  0  0  0
    8.2085    3.6030    0.0000 C   0  0  0  0  0  0  0  0  0  0  0  0
    7.7654    0.2065    0.0000 C   0  0  0  0  0  0  0  0  0  0  0  0
    8.9528    4.2708    0.0000 C   0  0  0  0  0  0  0  0  0  0  0  0
    9.0546    1.3633    0.0000 C   0  0  0  0  0  0  0  0  0  0  0  0
    5.5443   -3.8018    0.0000 C   0  0  0  0  0  0  0  0  0  0  0  0
    7.4083    1.9014    0.0000 C   0  0  0  0  0  0  0  0  0  0  0  0
    4.5981   -4.1065    0.0000 C   0  0  0  0  0  0  0  0  0  0  0  0
   10.6477    4.6280    0.0000 C   0  0  0  0  0  0  0  0  0  0  0  0
    4.5981   -5.1065    0.0000 C   0  0  0  0  0  0  0  0  0  0  0  0
    6.4298    1.6951    0.0000 C   0  0  0  0  0  0  0  0  0  0  0  0
    3.7320   -3.6065    0.0000 C   0  0  0  0  0  0  0  0  0  0  0  0
   10.4414    5.6065    0.0000 C   0  0  0  0  0  0  0  0  0  0  0  0
    3.7320   -5.6065    0.0000 C   0  0  0  0  0  0  0  0  0  0  0  0
    2.8660   -4.1065    0.0000 C   0  0  0  0  0  0  0  0  0  0  0  0
    2.8660   -5.1065    0.0000 C   0  0  0  0  0  0  0  0  0  0  0  0
    6.2690   -3.3127    0.0000 H   0  0  0  0  0  0  0  0  0  0  0  0
    4.6402   -1.8149    0.0000 H   0  0  0  0  0  0  0  0  0  0  0  0
    4.8046   -2.5948    0.0000 H   0  0  0  0  0  0  0  0  0  0  0  0
    6.8540   -3.2647    0.0000 H   0  0  0  0  0  0  0  0  0  0  0  0
    7.4473   -2.7324    0.0000 H   0  0  0  0  0  0  0  0  0  0  0  0
    5.4772   -0.5368    0.0000 H   0  0  0  0  0  0  0  0  0  0  0  0
    4.8840   -1.0691    0.0000 H   0  0  0  0  0  0  0  0  0  0  0  0
    7.6910   -1.9865    0.0000 H   0  0  0  0  0  0  0  0  0  0  0  0
    7.5267   -1.2066    0.0000 H   0  0  0  0  0  0  0  0  0  0  0  0
    7.7951    2.6039    0.0000 H   0  0  0  0  0  0  0  0  0  0  0  0
    8.3274    2.0106    0.0000 H   0  0  0  0  0  0  0  0  0  0  0  0
   10.4372    2.4553    0.0000 H   0  0  0  0  0  0  0  0  0  0  0  0
   10.6848    3.2129    0.0000 H   0  0  0  0  0  0  0  0  0  0  0  0
    6.7664    0.6200    0.0000 H   0  0  0  0  0  0  0  0  0  0  0  0
    6.1731    0.0877    0.0000 H   0  0  0  0  0  0  0  0  0  0  0  0
    7.8809    4.1293    0.0000 H   0  0  0  0  0  0  0  0  0  0  0  0
    7.6333    3.3717    0.0000 H   0  0  0  0  0  0  0  0  0  0  0  0
    7.7860   -0.4131    0.0000 H   0  0  0  0  0  0  0  0  0  0  0  0
    8.3793    0.1192    0.0000 H   0  0  0  0  0  0  0  0  0  0  0  0
    9.2449    4.8177    0.0000 H   0  0  0  0  0  0  0  0  0  0  0  0
    8.4649    4.6534    0.0000 H   0  0  0  0  0  0  0  0  0  0  0  0
    7.9346    2.2290    0.0000 H   0  0  0  0  0  0  0  0  0  0  0  0
    7.1770    2.4766    0.0000 H   0  0  0  0  0  0  0  0  0  0  0  0
   10.6398    1.6974    0.0000 H   0  0  0  0  0  0  0  0  0  0  0  0
    6.3019    2.3018    0.0000 H   0  0  0  0  0  0  0  0  0  0  0  0
    5.8231    1.5673    0.0000 H   0  0  0  0  0  0  0  0  0  0  0  0
    6.5576    1.0885    0.0000 H   0  0  0  0  0  0  0  0  0  0  0  0
    3.7320   -2.9865    0.0000 H   0  0  0  0  0  0  0  0  0  0  0  0
   11.0481    5.7344    0.0000 H   0  0  0  0  0  0  0  0  0  0  0  0
   10.3136    6.2132    0.0000 H   0  0  0  0  0  0  0  0  0  0  0  0
    9.8348    5.4786    0.0000 H   0  0  0  0  0  0  0  0  0  0  0  0
    3.7320   -6.2265    0.0000 H   0  0  0  0  0  0  0  0  0  0  0  0
    2.3291   -3.7965    0.0000 H   0  0  0  0  0  0  0  0  0  0  0  0
  1 33  1  0  0  0  0
  2 11  1  0  0  0  0
  2 57  1  0  0  0  0
  3 22  2  0  0  0  0
  4  9  1  0  0  0  0
  4 27  1  0  0  0  0
  5 26  2  0  0  0  0
  6 14  1  0  0  0  0
  6 15  1  0  0  0  0
  6 18  1  0  0  0  0
  7 17  1  0  0  0  0
  7 21  1  0  0  0  0
  7 26  1  0  0  0  0
  8 20  1  0  0  0  0
  8 22  1  0  0  0  0
  8 24  1  0  0  0  0
  9 23  2  0  0  0  0
 10 12  1  0  0  0  0
 10 13  1  0  0  0  0
 10 23  1  0  0  0  0
 10 34  1  0  0  0  0
 11 16  1  0  0  0  0
 11 17  1  0  0  0  0
 11 22  1  0  0  0  0
 12 14  1  0  0  0  0
 12 35  1  0  0  0  0
 12 36  1  0  0  0  0
 13 15  1  0  0  0  0
 13 37  1  0  0  0  0
 13 38  1  0  0  0  0
 14 39  1  0  0  0  0
 14 40  1  0  0  0  0
 15 41  1  0  0  0  0
 15 42  1  0  0  0  0
 16 19  1  0  0  0  0
 16 43  1  0  0  0  0
 16 44  1  0  0  0  0
 17 45  1  0  0  0  0
 17 46  1  0  0  0  0
 18 20  1  0  0  0  0
 18 47  1  0  0  0  0
 18 48  1  0  0  0  0
 19 21  1  0  0  0  0
 19 49  1  0  0  0  0
 19 50  1  0  0  0  0
 20 51  1  0  0  0  0
 20 52  1  0  0  0  0
 21 53  1  0  0  0  0
 21 54  1  0  0  0  0
 23 25  1  0  0  0  0
 24 28  1  0  0  0  0
 24 55  1  0  0  0  0
 24 56  1  0  0  0  0
 25 27  2  0  0  0  0
 25 29  1  0  0  0  0
 26 30  1  0  0  0  0
 27 31  1  0  0  0  0
 28 58  1  0  0  0  0
 28 59  1  0  0  0  0
 28 60  1  0  0  0  0
 29 32  2  0  0  0  0
 29 61  1  0  0  0  0
 30 62  1  0  0  0  0
 30 63  1  0  0  0  0
 30 64  1  0  0  0  0
 31 33  2  0  0  0  0
 31 65  1  0  0  0  0
 32 33  1  0  0  0  0
 32 66  1  0  0  0  0
M  END
> <PUBCHEM_COMPOUND_CID>
163466827

> <PUBCHEM_COMPOUND_CANONICALIZED>
1

> <PUBCHEM_CACTVS_COMPLEXITY>
704

> <PUBCHEM_CACTVS_HBOND_ACCEPTOR>
7

> <PUBCHEM_CACTVS_HBOND_DONOR>
1

> <PUBCHEM_CACTVS_ROTATABLE_BOND>
6

> <PUBCHEM_CACTVS_SUBSKEYS>
AAADcfB7uQAAAAAAAAAAAAAAAAAAAWAAAAA8WIAAAAAAAFgB8AAAHwAECAAADUzBngwyhtMQAgCpA6VyUgKCAAAkIAAomCF+TNoKZrqA1ZOUcYBmxhmYyce4yeCOAAAAAAAIAAAAAAAAABAAAAAAAAAAAA==

> <PUBCHEM_IUPAC_OPENEYE_NAME>
1-acetyl-N-ethyl-N-[2-[4-(6-fluoro-1,2-benzoxazol-3-yl)-1-piperidyl]ethyl]-3-hydroxy-piperidine-3-carboxamide

> <PUBCHEM_IUPAC_CAS_NAME>
1-acetyl-N-ethyl-N-[2-[4-(6-fluoro-1,2-benzoxazol-3-yl)-1-piperidinyl]ethyl]-3-hydroxy-3-piperidinecarboxamide

> <PUBCHEM_IUPAC_NAME_MARKUP>
1-acetyl-<I>N</I>-ethyl-<I>N</I>-[2-[4-(6-fluoro-1,2-benzoxazol-3-yl)piperidin-1-yl]ethyl]-3-hydroxypiperidine-3-carboxamide

> <PUBCHEM_IUPAC_NAME>
1-acetyl-N-ethyl-N-[2-[4-(6-fluoro-1,2-benzoxazol-3-yl)piperidin-1-yl]ethyl]-3-hydroxypiperidine-3-carboxamide

> <PUBCHEM_IUPAC_SYSTEMATIC_NAME>
1-ethanoyl-N-ethyl-N-[2-[4-(6-fluoranyl-1,2-benzoxazol-3-yl)piperidin-1-yl]ethyl]-3-oxidanyl-piperidine-3-carboxamide

> <PUBCHEM_IUPAC_TRADITIONAL_NAME>
1-acetyl-N-ethyl-N-[2-[4-(6-fluoroindoxazen-3-yl)piperidino]ethyl]-3-hydroxy-nipecotamide

> <PUBCHEM_IUPAC_INCHI>
InChI=1S/C24H33FN4O4/c1-3-28(23(31)24(32)9-4-10-29(16-24)17(2)30)14-13-27-11-7-18(8-12-27)22-20-6-5-19(25)15-21(20)33-26-22/h5-6,15,18,32H,3-4,7-14,16H2,1-2H3

> <PUBCHEM_IUPAC_INCHIKEY>
BTICABKVLJBOCS-UHFFFAOYSA-N

> <PUBCHEM_XLOGP3_AA>
1.5

> <PUBCHEM_EXACT_MASS>
460.24858371

> <PUBCHEM_MOLECULAR_FORMULA>
C24H33FN4O4

> <PUBCHEM_MOLECULAR_WEIGHT>
460.5

> <PUBCHEM_OPENEYE_CAN_SMILES>
CCN(CCN1CCC(CC1)C2=NOC3=C2C=CC(=C3)F)C(=O)C4(CCCN(C4)C(=O)C)O

> <PUBCHEM_OPENEYE_ISO_SMILES>
CCN(CCN1CCC(CC1)C2=NOC3=C2C=CC(=C3)F)C(=O)C4(CCCN(C4)C(=O)C)O

> <PUBCHEM_CACTVS_TPSA>
90.1

> <PUBCHEM_MONOISOTOPIC_WEIGHT>
460.24858371

> <PUBCHEM_TOTAL_CHARGE>
0

> <PUBCHEM_HEAVY_ATOM_COUNT>
33

> <PUBCHEM_ATOM_DEF_STEREO_COUNT>
0

> <PUBCHEM_ATOM_UDEF_STEREO_COUNT>
1

> <PUBCHEM_BOND_DEF_STEREO_COUNT>
0

> <PUBCHEM_BOND_UDEF_STEREO_COUNT>
0

> <PUBCHEM_ISOTOPIC_ATOM_COUNT>
0

> <PUBCHEM_COMPONENT_COUNT>
1

> <PUBCHEM_CACTVS_TAUTO_COUNT>
-1

> <PUBCHEM_COORDINATE_TYPE>
1
5
255

> <PUBCHEM_BONDANNOTATIONS>
11  2  3
23  25  8
25  27  8
25  29  8
27  31  8
29  32  8
31  33  8
32  33  8
4  27  8
4  9  8
9  23  8

$$$$
