19938408
  -OEChem-09292322202D

130135  0     0  0  0  0  0  0999 V2000
    8.4487    0.9296    0.0000 O   0  0  0  0  0  0  0  0  0  0  0  0
    9.2619   -2.1577    0.0000 O   0  0  0  0  0  0  0  0  0  0  0  0
   11.1935    2.1403    0.0000 N   0  0  0  0  0  0  0  0  0  0  0  0
   12.2619   -3.8898    0.0000 N   0  0  0  0  0  0  0  0  0  0  0  0
    4.2746    2.9872    0.0000 N   0  0  0  0  0  0  0  0  0  0  0  0
    4.6783   -1.3530    0.0000 N   0  0  0  0  0  0  0  0  0  0  0  0
    5.2251    4.2860    0.0000 N   0  0  0  0  0  0  0  0  0  0  0  0
    4.6783   -2.9624    0.0000 N   0  0  0  0  0  0  0  0  0  0  0  0
   12.1085    2.5439    0.0000 C   0  0  0  0  0  0  0  0  0  0  0  0
   10.3866    2.7309    0.0000 C   0  0  0  0  0  0  0  0  0  0  0  0
   12.7619   -4.7558    0.0000 C   0  0  0  0  0  0  0  0  0  0  0  0
   12.7619   -3.0237    0.0000 C   0  0  0  0  0  0  0  0  0  0  0  0
   11.0856    1.1462    0.0000 C   0  0  0  0  0  0  0  0  0  0  0  0
   11.2619   -3.8898    0.0000 C   0  0  0  0  0  0  0  0  0  0  0  0
   12.2165    3.5380    0.0000 C   0  0  0  0  0  0  0  0  0  0  0  0
   10.4945    3.7250    0.0000 C   0  0  0  0  0  0  0  0  0  0  0  0
   13.7619   -4.7558    0.0000 C   0  0  0  0  0  0  0  0  0  0  0  0
   13.7619   -3.0237    0.0000 C   0  0  0  0  0  0  0  0  0  0  0  0
   10.1706    0.7426    0.0000 C   0  0  0  0  0  0  0  0  0  0  0  0
   10.7619   -3.0237    0.0000 C   0  0  0  0  0  0  0  0  0  0  0  0
   13.1314    3.9416    0.0000 C   0  0  0  0  0  0  0  0  0  0  0  0
    9.6876    4.3156    0.0000 C   0  0  0  0  0  0  0  0  0  0  0  0
   14.2619   -5.6218    0.0000 C   0  0  0  0  0  0  0  0  0  0  0  0
   14.2619   -2.1577    0.0000 C   0  0  0  0  0  0  0  0  0  0  0  0
    9.3636    1.3332    0.0000 C   0  0  0  0  0  0  0  0  0  0  0  0
    9.7619   -3.0237    0.0000 C   0  0  0  0  0  0  0  0  0  0  0  0
   13.2394    4.9358    0.0000 C   0  0  0  0  0  0  0  0  0  0  0  0
    9.7955    5.3098    0.0000 C   0  0  0  0  0  0  0  0  0  0  0  0
   15.2619   -5.6218    0.0000 C   0  0  0  0  0  0  0  0  0  0  0  0
   15.2619   -2.1577    0.0000 C   0  0  0  0  0  0  0  0  0  0  0  0
    5.2208    3.2919    0.0000 C   0  0  0  0  0  0  0  0  0  0  0  0
    5.2619   -2.1577    0.0000 C   0  0  0  0  0  0  0  0  0  0  0  0
    7.6417    1.5202    0.0000 C   0  0  0  0  0  0  0  0  0  0  0  0
    8.2619   -2.1577    0.0000 C   0  0  0  0  0  0  0  0  0  0  0  0
    3.9639    2.0367    0.0000 C   0  0  0  0  0  0  0  0  0  0  0  0
    4.9889   -0.4025    0.0000 C   0  0  0  0  0  0  0  0  0  0  0  0
    3.6910    3.7919    0.0000 C   0  0  0  0  0  0  0  0  0  0  0  0
    3.7320   -1.6577    0.0000 C   0  0  0  0  0  0  0  0  0  0  0  0
    6.0278    2.7013    0.0000 C   0  0  0  0  0  0  0  0  0  0  0  0
    6.2619   -2.1577    0.0000 C   0  0  0  0  0  0  0  0  0  0  0  0
    4.2815    4.5989    0.0000 C   0  0  0  0  0  0  0  0  0  0  0  0
    3.7320   -2.6577    0.0000 C   0  0  0  0  0  0  0  0  0  0  0  0
    7.7497    2.5143    0.0000 C   0  0  0  0  0  0  0  0  0  0  0  0
    7.7619   -1.2917    0.0000 C   0  0  0  0  0  0  0  0  0  0  0  0
    6.7268    1.1166    0.0000 C   0  0  0  0  0  0  0  0  0  0  0  0
    7.7619   -3.0237    0.0000 C   0  0  0  0  0  0  0  0  0  0  0  0
    4.6318    1.2924    0.0000 C   0  0  0  0  0  0  0  0  0  0  0  0
    4.3211    0.3418    0.0000 C   0  0  0  0  0  0  0  0  0  0  0  0
    6.9427    3.1049    0.0000 C   0  0  0  0  0  0  0  0  0  0  0  0
    6.7619   -1.2917    0.0000 C   0  0  0  0  0  0  0  0  0  0  0  0
    5.9198    1.7072    0.0000 C   0  0  0  0  0  0  0  0  0  0  0  0
    6.7619   -3.0237    0.0000 C   0  0  0  0  0  0  0  0  0  0  0  0
    2.6968    3.8999    0.0000 C   0  0  0  0  0  0  0  0  0  0  0  0
    2.8660   -1.1577    0.0000 C   0  0  0  0  0  0  0  0  0  0  0  0
    3.8780    5.5138    0.0000 C   0  0  0  0  0  0  0  0  0  0  0  0
    2.8660   -3.1577    0.0000 C   0  0  0  0  0  0  0  0  0  0  0  0
    2.2932    4.8148    0.0000 C   0  0  0  0  0  0  0  0  0  0  0  0
    2.0000   -1.6577    0.0000 C   0  0  0  0  0  0  0  0  0  0  0  0
    2.8838    5.6218    0.0000 C   0  0  0  0  0  0  0  0  0  0  0  0
    2.0000   -2.6577    0.0000 C   0  0  0  0  0  0  0  0  0  0  0  0
   12.2564    1.9418    0.0000 H   0  0  0  0  0  0  0  0  0  0  0  0
   12.7271    2.5850    0.0000 H   0  0  0  0  0  0  0  0  0  0  0  0
    9.7912    2.9038    0.0000 H   0  0  0  0  0  0  0  0  0  0  0  0
   10.1129    2.1746    0.0000 H   0  0  0  0  0  0  0  0  0  0  0  0
   12.1793   -4.9678    0.0000 H   0  0  0  0  0  0  0  0  0  0  0  0
   12.8695   -5.3664    0.0000 H   0  0  0  0  0  0  0  0  0  0  0  0
   12.8695   -2.4132    0.0000 H   0  0  0  0  0  0  0  0  0  0  0  0
   12.1793   -2.8117    0.0000 H   0  0  0  0  0  0  0  0  0  0  0  0
   11.2335    0.5441    0.0000 H   0  0  0  0  0  0  0  0  0  0  0  0
   11.7042    1.1873    0.0000 H   0  0  0  0  0  0  0  0  0  0  0  0
   10.6793   -4.1018    0.0000 H   0  0  0  0  0  0  0  0  0  0  0  0
   11.3695   -4.5003    0.0000 H   0  0  0  0  0  0  0  0  0  0  0  0
   12.0686    4.1401    0.0000 H   0  0  0  0  0  0  0  0  0  0  0  0
   11.5978    3.4969    0.0000 H   0  0  0  0  0  0  0  0  0  0  0  0
   11.0899    3.5521    0.0000 H   0  0  0  0  0  0  0  0  0  0  0  0
   10.7683    4.2814    0.0000 H   0  0  0  0  0  0  0  0  0  0  0  0
   14.3445   -4.5437    0.0000 H   0  0  0  0  0  0  0  0  0  0  0  0
   13.6542   -4.1452    0.0000 H   0  0  0  0  0  0  0  0  0  0  0  0
   13.6542   -3.6343    0.0000 H   0  0  0  0  0  0  0  0  0  0  0  0
   14.3445   -3.2358    0.0000 H   0  0  0  0  0  0  0  0  0  0  0  0
    9.7232    0.3134    0.0000 H   0  0  0  0  0  0  0  0  0  0  0  0
   10.5155    0.2274    0.0000 H   0  0  0  0  0  0  0  0  0  0  0  0
   11.3445   -2.8117    0.0000 H   0  0  0  0  0  0  0  0  0  0  0  0
   10.6542   -2.4132    0.0000 H   0  0  0  0  0  0  0  0  0  0  0  0
   13.2793    3.3395    0.0000 H   0  0  0  0  0  0  0  0  0  0  0  0
   13.7500    3.9827    0.0000 H   0  0  0  0  0  0  0  0  0  0  0  0
    9.0922    4.4886    0.0000 H   0  0  0  0  0  0  0  0  0  0  0  0
    9.4138    3.7593    0.0000 H   0  0  0  0  0  0  0  0  0  0  0  0
   13.6793   -5.8339    0.0000 H   0  0  0  0  0  0  0  0  0  0  0  0
   14.3695   -6.2324    0.0000 H   0  0  0  0  0  0  0  0  0  0  0  0
   14.3695   -1.5471    0.0000 H   0  0  0  0  0  0  0  0  0  0  0  0
   13.6793   -1.9457    0.0000 H   0  0  0  0  0  0  0  0  0  0  0  0
    9.8111    1.7623    0.0000 H   0  0  0  0  0  0  0  0  0  0  0  0
    9.0187    1.8484    0.0000 H   0  0  0  0  0  0  0  0  0  0  0  0
    9.1793   -3.2358    0.0000 H   0  0  0  0  0  0  0  0  0  0  0  0
    9.8695   -3.6343    0.0000 H   0  0  0  0  0  0  0  0  0  0  0  0
   13.8558    4.8688    0.0000 H   0  0  0  0  0  0  0  0  0  0  0  0
   13.3063    5.5521    0.0000 H   0  0  0  0  0  0  0  0  0  0  0  0
   12.6230    5.0027    0.0000 H   0  0  0  0  0  0  0  0  0  0  0  0
   10.4119    5.2428    0.0000 H   0  0  0  0  0  0  0  0  0  0  0  0
    9.8625    5.9262    0.0000 H   0  0  0  0  0  0  0  0  0  0  0  0
    9.1792    5.3767    0.0000 H   0  0  0  0  0  0  0  0  0  0  0  0
   15.2619   -6.2418    0.0000 H   0  0  0  0  0  0  0  0  0  0  0  0
   15.8819   -5.6218    0.0000 H   0  0  0  0  0  0  0  0  0  0  0  0
   15.2619   -5.0018    0.0000 H   0  0  0  0  0  0  0  0  0  0  0  0
   15.2619   -2.7777    0.0000 H   0  0  0  0  0  0  0  0  0  0  0  0
   15.8819   -2.1577    0.0000 H   0  0  0  0  0  0  0  0  0  0  0  0
   15.2619   -1.5377    0.0000 H   0  0  0  0  0  0  0  0  0  0  0  0
    3.4170    2.3287    0.0000 H   0  0  0  0  0  0  0  0  0  0  0  0
    3.5814    1.5488    0.0000 H   0  0  0  0  0  0  0  0  0  0  0  0
    5.5359   -0.6945    0.0000 H   0  0  0  0  0  0  0  0  0  0  0  0
    5.3715    0.0854    0.0000 H   0  0  0  0  0  0  0  0  0  0  0  0
    5.2384    1.4202    0.0000 H   0  0  0  0  0  0  0  0  0  0  0  0
    3.7144    0.2140    0.0000 H   0  0  0  0  0  0  0  0  0  0  0  0
    8.3170    2.7645    0.0000 H   0  0  0  0  0  0  0  0  0  0  0  0
    8.0719   -0.7548    0.0000 H   0  0  0  0  0  0  0  0  0  0  0  0
    6.6598    0.5002    0.0000 H   0  0  0  0  0  0  0  0  0  0  0  0
    8.0719   -3.5607    0.0000 H   0  0  0  0  0  0  0  0  0  0  0  0
    7.0097    3.7213    0.0000 H   0  0  0  0  0  0  0  0  0  0  0  0
    6.4519   -0.7548    0.0000 H   0  0  0  0  0  0  0  0  0  0  0  0
    5.3525    1.4570    0.0000 H   0  0  0  0  0  0  0  0  0  0  0  0
    6.4519   -3.5607    0.0000 H   0  0  0  0  0  0  0  0  0  0  0  0
    2.3306    3.3996    0.0000 H   0  0  0  0  0  0  0  0  0  0  0  0
    2.8660   -0.5377    0.0000 H   0  0  0  0  0  0  0  0  0  0  0  0
    4.2441    6.0142    0.0000 H   0  0  0  0  0  0  0  0  0  0  0  0
    2.8660   -3.7777    0.0000 H   0  0  0  0  0  0  0  0  0  0  0  0
    1.6769    4.8818    0.0000 H   0  0  0  0  0  0  0  0  0  0  0  0
    1.4631   -1.3477    0.0000 H   0  0  0  0  0  0  0  0  0  0  0  0
    2.6336    6.1891    0.0000 H   0  0  0  0  0  0  0  0  0  0  0  0
    1.4631   -2.9677    0.0000 H   0  0  0  0  0  0  0  0  0  0  0  0
  1 25  1  0  0  0  0
  1 33  1  0  0  0  0
  2 26  1  0  0  0  0
  2 34  1  0  0  0  0
  3  9  1  0  0  0  0
  3 10  1  0  0  0  0
  3 13  1  0  0  0  0
  4 11  1  0  0  0  0
  4 12  1  0  0  0  0
  4 14  1  0  0  0  0
  5 31  1  0  0  0  0
  5 35  1  0  0  0  0
  5 37  1  0  0  0  0
  6 32  1  0  0  0  0
  6 36  1  0  0  0  0
  6 38  1  0  0  0  0
  7 31  2  0  0  0  0
  7 41  1  0  0  0  0
  8 32  2  0  0  0  0
  8 42  1  0  0  0  0
  9 15  1  0  0  0  0
  9 61  1  0  0  0  0
  9 62  1  0  0  0  0
 10 16  1  0  0  0  0
 10 63  1  0  0  0  0
 10 64  1  0  0  0  0
 11 17  1  0  0  0  0
 11 65  1  0  0  0  0
 11 66  1  0  0  0  0
 12 18  1  0  0  0  0
 12 67  1  0  0  0  0
 12 68  1  0  0  0  0
 13 19  1  0  0  0  0
 13 69  1  0  0  0  0
 13 70  1  0  0  0  0
 14 20  1  0  0  0  0
 14 71  1  0  0  0  0
 14 72  1  0  0  0  0
 15 21  1  0  0  0  0
 15 73  1  0  0  0  0
 15 74  1  0  0  0  0
 16 22  1  0  0  0  0
 16 75  1  0  0  0  0
 16 76  1  0  0  0  0
 17 23  1  0  0  0  0
 17 77  1  0  0  0  0
 17 78  1  0  0  0  0
 18 24  1  0  0  0  0
 18 79  1  0  0  0  0
 18 80  1  0  0  0  0
 19 25  1  0  0  0  0
 19 81  1  0  0  0  0
 19 82  1  0  0  0  0
 20 26  1  0  0  0  0
 20 83  1  0  0  0  0
 20 84  1  0  0  0  0
 21 27  1  0  0  0  0
 21 85  1  0  0  0  0
 21 86  1  0  0  0  0
 22 28  1  0  0  0  0
 22 87  1  0  0  0  0
 22 88  1  0  0  0  0
 23 29  1  0  0  0  0
 23 89  1  0  0  0  0
 23 90  1  0  0  0  0
 24 30  1  0  0  0  0
 24 91  1  0  0  0  0
 24 92  1  0  0  0  0
 25 93  1  0  0  0  0
 25 94  1  0  0  0  0
 26 95  1  0  0  0  0
 26 96  1  0  0  0  0
 27 97  1  0  0  0  0
 27 98  1  0  0  0  0
 27 99  1  0  0  0  0
 28100  1  0  0  0  0
 28101  1  0  0  0  0
 28102  1  0  0  0  0
 29103  1  0  0  0  0
 29104  1  0  0  0  0
 29105  1  0  0  0  0
 30106  1  0  0  0  0
 30107  1  0  0  0  0
 30108  1  0  0  0  0
 31 39  1  0  0  0  0
 32 40  1  0  0  0  0
 33 43  2  0  0  0  0
 33 45  1  0  0  0  0
 34 44  2  0  0  0  0
 34 46  1  0  0  0  0
 35 47  1  0  0  0  0
 35109  1  0  0  0  0
 35110  1  0  0  0  0
 36 48  1  0  0  0  0
 36111  1  0  0  0  0
 36112  1  0  0  0  0
 37 41  1  0  0  0  0
 37 53  2  0  0  0  0
 38 42  1  0  0  0  0
 38 54  2  0  0  0  0
 39 49  2  0  0  0  0
 39 51  1  0  0  0  0
 40 50  2  0  0  0  0
 40 52  1  0  0  0  0
 41 55  2  0  0  0  0
 42 56  2  0  0  0  0
 43 49  1  0  0  0  0
 43115  1  0  0  0  0
 44 50  1  0  0  0  0
 44116  1  0  0  0  0
 45 51  2  0  0  0  0
 45117  1  0  0  0  0
 46 52  2  0  0  0  0
 46118  1  0  0  0  0
 47 48  2  0  0  0  0
 47113  1  0  0  0  0
 48114  1  0  0  0  0
 49119  1  0  0  0  0
 50120  1  0  0  0  0
 51121  1  0  0  0  0
 52122  1  0  0  0  0
 53 57  1  0  0  0  0
 53123  1  0  0  0  0
 54 58  1  0  0  0  0
 54124  1  0  0  0  0
 55 59  1  0  0  0  0
 55125  1  0  0  0  0
 56 60  1  0  0  0  0
 56126  1  0  0  0  0
 57 59  2  0  0  0  0
 57127  1  0  0  0  0
 58 60  2  0  0  0  0
 58128  1  0  0  0  0
 59129  1  0  0  0  0
 60130  1  0  0  0  0
M  END
> <PUBCHEM_COMPOUND_CID>
19938408

> <PUBCHEM_COMPOUND_CANONICALIZED>
1

> <PUBCHEM_CACTVS_COMPLEXITY>
1040

> <PUBCHEM_CACTVS_HBOND_ACCEPTOR>
6

> <PUBCHEM_CACTVS_HBOND_DONOR>
0

> <PUBCHEM_CACTVS_ROTATABLE_BOND>
28

> <PUBCHEM_CACTVS_SUBSKEYS>
AAADcfB/sAAAAAAAAAAAAAAAAAAAAWLAAAAwYMGAAAAAAFgB/gAAHgAAAAAADAzhnwYz1rcMFACgAyZiZACCiC0hMqAJ2CA+fJiMbqLEuZuWOCjuwBPI6CeQ0AIOIAAAAAAAACBAAAAAAAAAQAAAAAAAAA==

> <PUBCHEM_IUPAC_OPENEYE_NAME>
N-butyl-N-[3-[4-[1-[(E)-4-[2-[4-[3-(dibutylamino)propoxy]phenyl]benzimidazol-1-yl]but-2-enyl]benzimidazol-2-yl]phenoxy]propyl]butan-1-amine

> <PUBCHEM_IUPAC_CAS_NAME>
N-butyl-N-[3-[4-[1-[(E)-4-[2-[4-[3-(dibutylamino)propoxy]phenyl]-1-benzimidazolyl]but-2-enyl]-2-benzimidazolyl]phenoxy]propyl]-1-butanamine

> <PUBCHEM_IUPAC_NAME_MARKUP>
<I>N</I>-butyl-<I>N</I>-[3-[4-[1-[(<I>E</I>)-4-[2-[4-[3-(dibutylamino)propoxy]phenyl]benzimidazol-1-yl]but-2-enyl]benzimidazol-2-yl]phenoxy]propyl]butan-1-amine

> <PUBCHEM_IUPAC_NAME>
N-butyl-N-[3-[4-[1-[(E)-4-[2-[4-[3-(dibutylamino)propoxy]phenyl]benzimidazol-1-yl]but-2-enyl]benzimidazol-2-yl]phenoxy]propyl]butan-1-amine

> <PUBCHEM_IUPAC_SYSTEMATIC_NAME>
N-butyl-N-[3-[4-[1-[(E)-4-[2-[4-[3-(dibutylamino)propoxy]phenyl]benzimidazol-1-yl]but-2-enyl]benzimidazol-2-yl]phenoxy]propyl]butan-1-amine

> <PUBCHEM_IUPAC_TRADITIONAL_NAME>
dibutyl-[3-[4-[1-[(E)-4-[2-[4-[3-(dibutylamino)propoxy]phenyl]benzimidazol-1-yl]but-2-enyl]benzimidazol-2-yl]phenoxy]propyl]amine

> <PUBCHEM_IUPAC_INCHI>
InChI=1S/C52H70N6O2/c1-5-9-33-55(34-10-6-2)37-19-41-59-45-29-25-43(26-30-45)51-53-47-21-13-15-23-49(47)57(51)39-17-18-40-58-50-24-16-14-22-48(50)54-52(58)44-27-31-46(32-28-44)60-42-20-38-56(35-11-7-3)36-12-8-4/h13-18,21-32H,5-12,19-20,33-42H2,1-4H3/b18-17+

> <PUBCHEM_IUPAC_INCHIKEY>
JIKDWCBMJVTCCZ-ISLYRVAYSA-N

> <PUBCHEM_XLOGP3_AA>
12.2

> <PUBCHEM_EXACT_MASS>
810.55602550

> <PUBCHEM_MOLECULAR_FORMULA>
C52H70N6O2

> <PUBCHEM_MOLECULAR_WEIGHT>
811.1

> <PUBCHEM_OPENEYE_CAN_SMILES>
CCCCN(CCCC)CCCOC1=CC=C(C=C1)C2=NC3=CC=CC=C3N2CC=CCN4C5=CC=CC=C5N=C4C6=CC=C(C=C6)OCCCN(CCCC)CCCC

> <PUBCHEM_OPENEYE_ISO_SMILES>
CCCCN(CCCC)CCCOC1=CC=C(C=C1)C2=NC3=CC=CC=C3N2C/C=C/CN4C5=CC=CC=C5N=C4C6=CC=C(C=C6)OCCCN(CCCC)CCCC

> <PUBCHEM_CACTVS_TPSA>
60.6

> <PUBCHEM_MONOISOTOPIC_WEIGHT>
810.55602550

> <PUBCHEM_TOTAL_CHARGE>
0

> <PUBCHEM_HEAVY_ATOM_COUNT>
60

> <PUBCHEM_ATOM_DEF_STEREO_COUNT>
0

> <PUBCHEM_ATOM_UDEF_STEREO_COUNT>
0

> <PUBCHEM_BOND_DEF_STEREO_COUNT>
1

> <PUBCHEM_BOND_UDEF_STEREO_COUNT>
0

> <PUBCHEM_ISOTOPIC_ATOM_COUNT>
0

> <PUBCHEM_COMPONENT_COUNT>
1

> <PUBCHEM_CACTVS_TAUTO_COUNT>
-1

> <PUBCHEM_COORDINATE_TYPE>
1
5
255

> <PUBCHEM_BONDANNOTATIONS>
33  43  8
33  45  8
34  44  8
34  46  8
37  41  8
37  53  8
38  42  8
38  54  8
39  49  8
39  51  8
40  50  8
40  52  8
41  55  8
42  56  8
43  49  8
44  50  8
45  51  8
46  52  8
5  31  8
5  37  8
53  57  8
54  58  8
55  59  8
56  60  8
57  59  8
58  60  8
6  32  8
6  38  8
7  31  8
7  41  8
8  32  8
8  42  8

$$$$
