70692138
  -OEChem-09292322482D

 37 39  0     0  0  0  0  0  0999 V2000
    5.7369    3.0023    0.0000 F   0  0  0  0  0  0  0  0  0  0  0  0
    3.2369   -1.3278    0.0000 N   0  0  0  0  0  0  0  0  0  0  0  0
    3.9735   -2.3104    0.0000 C   0  0  0  0  0  0  0  0  0  0  0  0
    3.7147   -3.2763    0.0000 C   0  0  0  0  0  0  0  0  0  0  0  0
    5.1137   -3.7852    0.0000 C   0  0  0  0  0  0  0  0  0  0  0  0
    5.3725   -2.8192    0.0000 C   0  0  0  0  0  0  0  0  0  0  0  0
    2.3420   -3.8684    0.0000 C   0  0  0  0  0  0  0  0  0  0  0  0
    2.0000   -2.9287    0.0000 C   0  0  0  0  0  0  0  0  0  0  0  0
    2.7369   -0.4618    0.0000 C   0  0  0  0  0  0  0  0  0  0  0  0
    3.2369    0.4043    0.0000 C   0  0  0  0  0  0  0  0  0  0  0  0
    2.7369    1.2703    0.0000 C   0  0  0  0  0  0  0  0  0  0  0  0
    3.2369    2.1363    0.0000 C   0  0  0  0  0  0  0  0  0  0  0  0
    4.2369    2.1363    0.0000 C   0  0  0  0  0  0  0  0  0  0  0  0
    2.7369    3.0023    0.0000 C   0  0  0  0  0  0  0  0  0  0  0  0
    4.7369    3.0023    0.0000 C   0  0  0  0  0  0  0  0  0  0  0  0
    3.2369    3.8684    0.0000 C   0  0  0  0  0  0  0  0  0  0  0  0
    4.2369    3.8684    0.0000 C   0  0  0  0  0  0  0  0  0  0  0  0
    3.9595   -2.9302    0.0000 H   0  0  0  0  0  0  0  0  0  0  0  0
    3.7328   -3.8961    0.0000 H   0  0  0  0  0  0  0  0  0  0  0  0
    5.7076   -3.9629    0.0000 H   0  0  0  0  0  0  0  0  0  0  0  0
    4.9187   -4.3737    0.0000 H   0  0  0  0  0  0  0  0  0  0  0  0
    2.5765   -4.4423    0.0000 H   0  0  0  0  0  0  0  0  0  0  0  0
    1.7636   -4.0916    0.0000 H   0  0  0  0  0  0  0  0  0  0  0  0
    5.9664   -2.9970    0.0000 H   0  0  0  0  0  0  0  0  0  0  0  0
    5.5674   -2.2307    0.0000 H   0  0  0  0  0  0  0  0  0  0  0  0
    1.8057   -2.3399    0.0000 H   0  0  0  0  0  0  0  0  0  0  0  0
    1.4142   -3.1319    0.0000 H   0  0  0  0  0  0  0  0  0  0  0  0
    2.2620   -0.0632    0.0000 H   0  0  0  0  0  0  0  0  0  0  0  0
    2.2620   -0.8603    0.0000 H   0  0  0  0  0  0  0  0  0  0  0  0
    3.7119    0.0057    0.0000 H   0  0  0  0  0  0  0  0  0  0  0  0
    3.7119    0.8028    0.0000 H   0  0  0  0  0  0  0  0  0  0  0  0
    2.2620    1.6688    0.0000 H   0  0  0  0  0  0  0  0  0  0  0  0
    2.2620    0.8718    0.0000 H   0  0  0  0  0  0  0  0  0  0  0  0
    4.5469    1.5994    0.0000 H   0  0  0  0  0  0  0  0  0  0  0  0
    2.1169    3.0023    0.0000 H   0  0  0  0  0  0  0  0  0  0  0  0
    2.9269    4.4053    0.0000 H   0  0  0  0  0  0  0  0  0  0  0  0
    4.5469    4.4053    0.0000 H   0  0  0  0  0  0  0  0  0  0  0  0
  1 15  1  0  0  0  0
  2  3  1  0  0  0  0
  2  4  1  0  0  0  0
  2  9  1  0  0  0  0
  3  6  1  0  0  0  0
  3  8  1  0  0  0  0
  3 18  1  0  0  0  0
  4  5  1  0  0  0  0
  4  7  1  0  0  0  0
  4 19  1  0  0  0  0
  5  6  1  0  0  0  0
  5 20  1  0  0  0  0
  5 21  1  0  0  0  0
  6 24  1  0  0  0  0
  6 25  1  0  0  0  0
  7  8  1  0  0  0  0
  7 22  1  0  0  0  0
  7 23  1  0  0  0  0
  8 26  1  0  0  0  0
  8 27  1  0  0  0  0
  9 10  1  0  0  0  0
  9 28  1  0  0  0  0
  9 29  1  0  0  0  0
 10 11  1  0  0  0  0
 10 30  1  0  0  0  0
 10 31  1  0  0  0  0
 11 12  1  0  0  0  0
 11 32  1  0  0  0  0
 11 33  1  0  0  0  0
 12 13  2  0  0  0  0
 12 14  1  0  0  0  0
 13 15  1  0  0  0  0
 13 34  1  0  0  0  0
 14 16  2  0  0  0  0
 14 35  1  0  0  0  0
 15 17  2  0  0  0  0
 16 17  1  0  0  0  0
 16 36  1  0  0  0  0
 17 37  1  0  0  0  0
M  END
> <PUBCHEM_COMPOUND_CID>
70692138

> <PUBCHEM_COMPOUND_CANONICALIZED>
1

> <PUBCHEM_CACTVS_COMPLEXITY>
235

> <PUBCHEM_CACTVS_HBOND_ACCEPTOR>
2

> <PUBCHEM_CACTVS_HBOND_DONOR>
0

> <PUBCHEM_CACTVS_ROTATABLE_BOND>
4

> <PUBCHEM_CACTVS_SUBSKEYS>
AAADceByAQAAAAAAAAAAAAAAAAAAAWLAAAAwYAAAAAAAAAABAAAAHQAAAAAADCjBGAwwAIMAAACAAiBCAAACAAAgAAAIiAAIAIgIICKAkRCEIAAggACIiAcQgIAOAAAAAAAAAAAAAAAAAAAAAAAAAAAAAA==

> <PUBCHEM_IUPAC_OPENEYE_NAME>
7-[3-(3-fluorophenyl)propyl]-7-azabicyclo[2.2.1]heptane

> <PUBCHEM_IUPAC_CAS_NAME>
7-[3-(3-fluorophenyl)propyl]-7-azabicyclo[2.2.1]heptane

> <PUBCHEM_IUPAC_NAME_MARKUP>
7-[3-(3-fluorophenyl)propyl]-7-azabicyclo[2.2.1]heptane

> <PUBCHEM_IUPAC_NAME>
7-[3-(3-fluorophenyl)propyl]-7-azabicyclo[2.2.1]heptane

> <PUBCHEM_IUPAC_SYSTEMATIC_NAME>
7-[3-(3-fluorophenyl)propyl]-7-azabicyclo[2.2.1]heptane

> <PUBCHEM_IUPAC_TRADITIONAL_NAME>
7-[3-(3-fluorophenyl)propyl]-7-azabicyclo[2.2.1]heptane

> <PUBCHEM_IUPAC_INCHI>
InChI=1S/C15H20FN/c16-13-5-1-3-12(11-13)4-2-10-17-14-6-7-15(17)9-8-14/h1,3,5,11,14-15H,2,4,6-10H2

> <PUBCHEM_IUPAC_INCHIKEY>
LCBQDWKMNGEPLD-UHFFFAOYSA-N

> <PUBCHEM_XLOGP3_AA>
3.8

> <PUBCHEM_EXACT_MASS>
233.157977804

> <PUBCHEM_MOLECULAR_FORMULA>
C15H20FN

> <PUBCHEM_MOLECULAR_WEIGHT>
233.32

> <PUBCHEM_OPENEYE_CAN_SMILES>
C1CC2CCC1N2CCCC3=CC(=CC=C3)F

> <PUBCHEM_OPENEYE_ISO_SMILES>
C1CC2CCC1N2CCCC3=CC(=CC=C3)F

> <PUBCHEM_CACTVS_TPSA>
3.2

> <PUBCHEM_MONOISOTOPIC_WEIGHT>
233.157977804

> <PUBCHEM_TOTAL_CHARGE>
0

> <PUBCHEM_HEAVY_ATOM_COUNT>
17

> <PUBCHEM_ATOM_DEF_STEREO_COUNT>
0

> <PUBCHEM_ATOM_UDEF_STEREO_COUNT>
0

> <PUBCHEM_BOND_DEF_STEREO_COUNT>
0

> <PUBCHEM_BOND_UDEF_STEREO_COUNT>
0

> <PUBCHEM_ISOTOPIC_ATOM_COUNT>
0

> <PUBCHEM_COMPONENT_COUNT>
1

> <PUBCHEM_CACTVS_TAUTO_COUNT>
-1

> <PUBCHEM_COORDINATE_TYPE>
1
5
255

> <PUBCHEM_BONDANNOTATIONS>
12  13  8
12  14  8
13  15  8
14  16  8
15  17  8
16  17  8

$$$$
