52944657
  -OEChem-09292322042D

 44 45  0     1  0  0  0  0  0999 V2000
    3.7320    0.1791    0.0000 O   0  0  0  0  0  0  0  0  0  0  0  0
    2.8660   -1.3209    0.0000 O   0  0  0  0  0  0  0  0  0  0  0  0
    2.8660   -3.3209    0.0000 O   0  0  0  0  0  0  0  0  0  0  0  0
    6.3301   -4.3209    0.0000 O   0  5  0  0  0  0  0  0  0  0  0  0
    7.1962   -2.8209    0.0000 O   0  0  0  0  0  0  0  0  0  0  0  0
    6.4347    2.6736    0.0000 N   0  0  3  0  0  0  0  0  0  0  0  0
    5.4641    0.1791    0.0000 N   0  0  0  0  0  0  0  0  0  0  0  0
    6.3301   -3.3209    0.0000 N   0  3  0  0  0  0  0  0  0  0  0  0
    6.3301    1.6791    0.0000 C   0  0  1  0  0  0  0  0  0  0  0  0
    7.2437    1.2724    0.0000 C   0  0  0  0  0  0  0  0  0  0  0  0
    7.9128    2.0155    0.0000 C   0  0  0  0  0  0  0  0  0  0  0  0
    7.4128    2.8815    0.0000 C   0  0  0  0  0  0  0  0  0  0  0  0
    5.4641    1.1791    0.0000 C   0  0  0  0  0  0  0  0  0  0  0  0
    5.6915    3.3428    0.0000 C   0  0  0  0  0  0  0  0  0  0  0  0
    5.8994    4.3209    0.0000 C   0  0  0  0  0  0  0  0  0  0  0  0
    4.5981   -0.3209    0.0000 C   0  0  0  0  0  0  0  0  0  0  0  0
    4.5981   -1.3209    0.0000 C   0  0  0  0  0  0  0  0  0  0  0  0
    3.7320   -1.8209    0.0000 C   0  0  0  0  0  0  0  0  0  0  0  0
    5.4641   -1.8209    0.0000 C   0  0  0  0  0  0  0  0  0  0  0  0
    5.4641   -2.8209    0.0000 C   0  0  0  0  0  0  0  0  0  0  0  0
    3.7320   -2.8209    0.0000 C   0  0  0  0  0  0  0  0  0  0  0  0
    4.5981   -3.3209    0.0000 C   0  0  0  0  0  0  0  0  0  0  0  0
    2.0000   -1.8209    0.0000 C   0  0  0  0  0  0  0  0  0  0  0  0
    5.8102    2.0168    0.0000 H   0  0  0  0  0  0  0  0  0  0  0  0
    6.9337    0.7354    0.0000 H   0  0  0  0  0  0  0  0  0  0  0  0
    7.7453    0.9079    0.0000 H   0  0  0  0  0  0  0  0  0  0  0  0
    8.3277    1.5548    0.0000 H   0  0  0  0  0  0  0  0  0  0  0  0
    8.4144    2.3799    0.0000 H   0  0  0  0  0  0  0  0  0  0  0  0
    7.9792    3.1337    0.0000 H   0  0  0  0  0  0  0  0  0  0  0  0
    7.2212    3.4712    0.0000 H   0  0  0  0  0  0  0  0  0  0  0  0
    5.2520    1.7617    0.0000 H   0  0  0  0  0  0  0  0  0  0  0  0
    4.8535    1.0714    0.0000 H   0  0  0  0  0  0  0  0  0  0  0  0
    5.1167    3.5750    0.0000 H   0  0  0  0  0  0  0  0  0  0  0  0
    5.3630    2.8170    0.0000 H   0  0  0  0  0  0  0  0  0  0  0  0
    6.0010   -0.1309    0.0000 H   0  0  0  0  0  0  0  0  0  0  0  0
    6.5059    4.1920    0.0000 H   0  0  0  0  0  0  0  0  0  0  0  0
    6.0283    4.9274    0.0000 H   0  0  0  0  0  0  0  0  0  0  0  0
    5.2930    4.4498    0.0000 H   0  0  0  0  0  0  0  0  0  0  0  0
    6.0010   -1.5109    0.0000 H   0  0  0  0  0  0  0  0  0  0  0  0
    4.5981   -3.9409    0.0000 H   0  0  0  0  0  0  0  0  0  0  0  0
    2.8660   -3.9409    0.0000 H   0  0  0  0  0  0  0  0  0  0  0  0
    1.6900   -1.2840    0.0000 H   0  0  0  0  0  0  0  0  0  0  0  0
    1.4631   -2.1309    0.0000 H   0  0  0  0  0  0  0  0  0  0  0  0
    2.3100   -2.3578    0.0000 H   0  0  0  0  0  0  0  0  0  0  0  0
  1 16  2  0  0  0  0
  2 18  1  0  0  0  0
  2 23  1  0  0  0  0
  3 21  1  0  0  0  0
  3 41  1  0  0  0  0
  4  8  1  0  0  0  0
  5  8  2  0  0  0  0
  6  9  1  0  0  0  0
  6 12  1  0  0  0  0
  6 14  1  0  0  0  0
  7 13  1  0  0  0  0
  7 16  1  0  0  0  0
  7 35  1  0  0  0  0
  8 20  1  0  0  0  0
  9 10  1  0  0  0  0
  9 13  1  1  0  0  0
  9 24  1  0  0  0  0
 10 11  1  0  0  0  0
 10 25  1  0  0  0  0
 10 26  1  0  0  0  0
 11 12  1  0  0  0  0
 11 27  1  0  0  0  0
 11 28  1  0  0  0  0
 12 29  1  0  0  0  0
 12 30  1  0  0  0  0
 13 31  1  0  0  0  0
 13 32  1  0  0  0  0
 14 15  1  0  0  0  0
 14 33  1  0  0  0  0
 14 34  1  0  0  0  0
 15 36  1  0  0  0  0
 15 37  1  0  0  0  0
 15 38  1  0  0  0  0
 16 17  1  0  0  0  0
 17 18  2  0  0  0  0
 17 19  1  0  0  0  0
 18 21  1  0  0  0  0
 19 20  2  0  0  0  0
 19 39  1  0  0  0  0
 20 22  1  0  0  0  0
 21 22  2  0  0  0  0
 22 40  1  0  0  0  0
 23 42  1  0  0  0  0
 23 43  1  0  0  0  0
 23 44  1  0  0  0  0
M  CHG  2   4  -1   8   1
M  END
> <PUBCHEM_COMPOUND_CID>
52944657

> <PUBCHEM_COMPOUND_CANONICALIZED>
1

> <PUBCHEM_CACTVS_COMPLEXITY>
428

> <PUBCHEM_CACTVS_HBOND_ACCEPTOR>
6

> <PUBCHEM_CACTVS_HBOND_DONOR>
2

> <PUBCHEM_CACTVS_ROTATABLE_BOND>
5

> <PUBCHEM_CACTVS_SUBSKEYS>
AAADceBzOAAAAAAAAAAAAAAAAAAAAWAAAAAwAAAAAAAAAAABAAAAHgAUCAAADCzBmAYyxoPQRgCJAiVSUwCCCAAkIgAgiIEO7MoNZjaGtZuUcWtm9hmL+Ye+2DGOAEABQgAIQAAAgAKEABCAAAAAAAAAAA==

> <PUBCHEM_IUPAC_OPENEYE_NAME>
N-[[(2S)-1-ethylpyrrolidin-2-yl]methyl]-3-hydroxy-2-methoxy-5-nitro-benzamide

> <PUBCHEM_IUPAC_CAS_NAME>
N-[[(2S)-1-ethyl-2-pyrrolidinyl]methyl]-3-hydroxy-2-methoxy-5-nitrobenzamide

> <PUBCHEM_IUPAC_NAME_MARKUP>
<I>N</I>-[[(2<I>S</I>)-1-ethylpyrrolidin-2-yl]methyl]-3-hydroxy-2-methoxy-5-nitrobenzamide

> <PUBCHEM_IUPAC_NAME>
N-[[(2S)-1-ethylpyrrolidin-2-yl]methyl]-3-hydroxy-2-methoxy-5-nitrobenzamide

> <PUBCHEM_IUPAC_SYSTEMATIC_NAME>
N-[[(2S)-1-ethylpyrrolidin-2-yl]methyl]-2-methoxy-5-nitro-3-oxidanyl-benzamide

> <PUBCHEM_IUPAC_TRADITIONAL_NAME>
N-[[(2S)-1-ethylpyrrolidin-2-yl]methyl]-3-hydroxy-2-methoxy-5-nitro-benzamide

> <PUBCHEM_IUPAC_INCHI>
InChI=1S/C15H21N3O5/c1-3-17-6-4-5-10(17)9-16-15(20)12-7-11(18(21)22)8-13(19)14(12)23-2/h7-8,10,19H,3-6,9H2,1-2H3,(H,16,20)/t10-/m0/s1

> <PUBCHEM_IUPAC_INCHIKEY>
YFBWUDLPVMDGDF-JTQLQIEISA-N

> <PUBCHEM_XLOGP3>
1.5

> <PUBCHEM_EXACT_MASS>
323.14812078

> <PUBCHEM_MOLECULAR_FORMULA>
C15H21N3O5

> <PUBCHEM_MOLECULAR_WEIGHT>
323.34

> <PUBCHEM_OPENEYE_CAN_SMILES>
CCN1CCCC1CNC(=O)C2=C(C(=CC(=C2)[N+](=O)[O-])O)OC

> <PUBCHEM_OPENEYE_ISO_SMILES>
CCN1CCC[C@H]1CNC(=O)C2=C(C(=CC(=C2)[N+](=O)[O-])O)OC

> <PUBCHEM_CACTVS_TPSA>
108

> <PUBCHEM_MONOISOTOPIC_WEIGHT>
323.14812078

> <PUBCHEM_TOTAL_CHARGE>
0

> <PUBCHEM_HEAVY_ATOM_COUNT>
23

> <PUBCHEM_ATOM_DEF_STEREO_COUNT>
1

> <PUBCHEM_ATOM_UDEF_STEREO_COUNT>
0

> <PUBCHEM_BOND_DEF_STEREO_COUNT>
0

> <PUBCHEM_BOND_UDEF_STEREO_COUNT>
0

> <PUBCHEM_ISOTOPIC_ATOM_COUNT>
0

> <PUBCHEM_COMPONENT_COUNT>
1

> <PUBCHEM_CACTVS_TAUTO_COUNT>
-1

> <PUBCHEM_COORDINATE_TYPE>
1
5
255

> <PUBCHEM_BONDANNOTATIONS>
17  18  8
17  19  8
18  21  8
19  20  8
20  22  8
21  22  8
9  13  5

$$$$
