44380774
  -OEChem-09292322222D

 56 58  0     1  0  0  0  0  0999 V2000
    6.3301   -3.3693    0.0000 Cl  0  0  0  0  0  0  0  0  0  0  0  0
    3.7320    0.1307    0.0000 O   0  0  0  0  0  0  0  0  0  0  0  0
    2.8660   -1.3693    0.0000 O   0  0  0  0  0  0  0  0  0  0  0  0
    7.4128    2.8331    0.0000 N   0  0  3  0  0  0  0  0  0  0  0  0
    5.4641    0.1307    0.0000 N   0  0  0  0  0  0  0  0  0  0  0  0
    4.5981   -4.3693    0.0000 N   0  0  0  0  0  0  0  0  0  0  0  0
    6.3301    1.6307    0.0000 C   0  0  1  0  0  0  0  0  0  0  0  0
    7.2437    1.2240    0.0000 C   0  0  1  0  0  0  0  0  0  0  0  0
    6.4347    2.6252    0.0000 C   0  0  0  0  0  0  0  0  0  0  0  0
    7.9128    1.9671    0.0000 C   0  0  0  0  0  0  0  0  0  0  0  0
    5.4641    1.1307    0.0000 C   0  0  0  0  0  0  0  0  0  0  0  0
    7.4516    0.2458    0.0000 C   0  0  0  0  0  0  0  0  0  0  0  0
    7.8195    3.7467    0.0000 C   0  0  0  0  0  0  0  0  0  0  0  0
    8.8141    3.8512    0.0000 C   0  0  0  0  0  0  0  0  0  0  0  0
    4.5981   -0.3693    0.0000 C   0  0  0  0  0  0  0  0  0  0  0  0
    9.2208    4.7648    0.0000 C   0  0  0  0  0  0  0  0  0  0  0  0
    9.4018    3.0422    0.0000 C   0  0  0  0  0  0  0  0  0  0  0  0
    4.5981   -1.3693    0.0000 C   0  0  0  0  0  0  0  0  0  0  0  0
   10.2153    4.8693    0.0000 C   0  0  0  0  0  0  0  0  0  0  0  0
   10.3964    3.1467    0.0000 C   0  0  0  0  0  0  0  0  0  0  0  0
   10.8031    4.0603    0.0000 C   0  0  0  0  0  0  0  0  0  0  0  0
    3.7320   -1.8693    0.0000 C   0  0  0  0  0  0  0  0  0  0  0  0
    5.4641   -1.8693    0.0000 C   0  0  0  0  0  0  0  0  0  0  0  0
    3.7320   -2.8693    0.0000 C   0  0  0  0  0  0  0  0  0  0  0  0
    5.4641   -2.8693    0.0000 C   0  0  0  0  0  0  0  0  0  0  0  0
    4.5981   -3.3693    0.0000 C   0  0  0  0  0  0  0  0  0  0  0  0
    2.0000   -1.8693    0.0000 C   0  0  0  0  0  0  0  0  0  0  0  0
    3.7320   -4.8693    0.0000 C   0  0  0  0  0  0  0  0  0  0  0  0
    5.8102    1.9684    0.0000 H   0  0  0  0  0  0  0  0  0  0  0  0
    6.7618    0.8338    0.0000 H   0  0  0  0  0  0  0  0  0  0  0  0
    6.3698    3.2418    0.0000 H   0  0  0  0  0  0  0  0  0  0  0  0
    5.8147    2.6252    0.0000 H   0  0  0  0  0  0  0  0  0  0  0  0
    8.3277    1.5064    0.0000 H   0  0  0  0  0  0  0  0  0  0  0  0
    8.4144    2.3315    0.0000 H   0  0  0  0  0  0  0  0  0  0  0  0
    5.2520    1.7133    0.0000 H   0  0  0  0  0  0  0  0  0  0  0  0
    4.8535    1.0230    0.0000 H   0  0  0  0  0  0  0  0  0  0  0  0
    6.8451    0.1169    0.0000 H   0  0  0  0  0  0  0  0  0  0  0  0
    7.5805   -0.3606    0.0000 H   0  0  0  0  0  0  0  0  0  0  0  0
    8.0580    0.3747    0.0000 H   0  0  0  0  0  0  0  0  0  0  0  0
    7.8628    4.3652    0.0000 H   0  0  0  0  0  0  0  0  0  0  0  0
    7.2180    3.8967    0.0000 H   0  0  0  0  0  0  0  0  0  0  0  0
    6.0010   -0.1793    0.0000 H   0  0  0  0  0  0  0  0  0  0  0  0
    8.8564    5.2664    0.0000 H   0  0  0  0  0  0  0  0  0  0  0  0
    9.1497    2.4758    0.0000 H   0  0  0  0  0  0  0  0  0  0  0  0
   10.4675    5.4357    0.0000 H   0  0  0  0  0  0  0  0  0  0  0  0
   10.7608    2.6451    0.0000 H   0  0  0  0  0  0  0  0  0  0  0  0
   11.4197    4.1251    0.0000 H   0  0  0  0  0  0  0  0  0  0  0  0
    6.0010   -1.5593    0.0000 H   0  0  0  0  0  0  0  0  0  0  0  0
    3.1951   -3.1793    0.0000 H   0  0  0  0  0  0  0  0  0  0  0  0
    5.1350   -4.6793    0.0000 H   0  0  0  0  0  0  0  0  0  0  0  0
    1.6900   -1.3324    0.0000 H   0  0  0  0  0  0  0  0  0  0  0  0
    1.4631   -2.1793    0.0000 H   0  0  0  0  0  0  0  0  0  0  0  0
    2.3100   -2.4062    0.0000 H   0  0  0  0  0  0  0  0  0  0  0  0
    3.4220   -4.3324    0.0000 H   0  0  0  0  0  0  0  0  0  0  0  0
    3.1951   -5.1793    0.0000 H   0  0  0  0  0  0  0  0  0  0  0  0
    4.0420   -5.4062    0.0000 H   0  0  0  0  0  0  0  0  0  0  0  0
  1 25  1  0  0  0  0
  2 15  2  0  0  0  0
  3 22  1  0  0  0  0
  3 27  1  0  0  0  0
  4  9  1  0  0  0  0
  4 10  1  0  0  0  0
  4 13  1  0  0  0  0
  5 11  1  0  0  0  0
  5 15  1  0  0  0  0
  5 42  1  0  0  0  0
  6 26  1  0  0  0  0
  6 28  1  0  0  0  0
  6 50  1  0  0  0  0
  7  8  1  0  0  0  0
  7  9  1  0  0  0  0
  7 11  1  6  0  0  0
  7 29  1  0  0  0  0
  8 10  1  0  0  0  0
  8 12  1  1  0  0  0
  8 30  1  0  0  0  0
  9 31  1  0  0  0  0
  9 32  1  0  0  0  0
 10 33  1  0  0  0  0
 10 34  1  0  0  0  0
 11 35  1  0  0  0  0
 11 36  1  0  0  0  0
 12 37  1  0  0  0  0
 12 38  1  0  0  0  0
 12 39  1  0  0  0  0
 13 14  1  0  0  0  0
 13 40  1  0  0  0  0
 13 41  1  0  0  0  0
 14 16  2  0  0  0  0
 14 17  1  0  0  0  0
 15 18  1  0  0  0  0
 16 19  1  0  0  0  0
 16 43  1  0  0  0  0
 17 20  2  0  0  0  0
 17 44  1  0  0  0  0
 18 22  1  0  0  0  0
 18 23  2  0  0  0  0
 19 21  2  0  0  0  0
 19 45  1  0  0  0  0
 20 21  1  0  0  0  0
 20 46  1  0  0  0  0
 21 47  1  0  0  0  0
 22 24  2  0  0  0  0
 23 25  1  0  0  0  0
 23 48  1  0  0  0  0
 24 26  1  0  0  0  0
 24 49  1  0  0  0  0
 25 26  2  0  0  0  0
 27 51  1  0  0  0  0
 27 52  1  0  0  0  0
 27 53  1  0  0  0  0
 28 54  1  0  0  0  0
 28 55  1  0  0  0  0
 28 56  1  0  0  0  0
M  END
> <PUBCHEM_COMPOUND_CID>
44380774

> <PUBCHEM_COMPOUND_CANONICALIZED>
1

> <PUBCHEM_CACTVS_COMPLEXITY>
500

> <PUBCHEM_CACTVS_HBOND_ACCEPTOR>
4

> <PUBCHEM_CACTVS_HBOND_DONOR>
2

> <PUBCHEM_CACTVS_ROTATABLE_BOND>
7

> <PUBCHEM_CACTVS_SUBSKEYS>
AAADceB7MAAEAAAAAAAAAAAAAAAAAWAAAAAwYAAAAAAAAAABQAAAHgIQAAAADQ7BmCYyxoPABACIAiVSUACCCAAlJwAIiIEObsgMJjbF95vEMWhm9hnI6YeY2SOeiCAAIgAIABAQQABEABAAIAAAAAAAAA==

> <PUBCHEM_IUPAC_OPENEYE_NAME>
N-[[(3R,4S)-1-benzyl-4-methyl-pyrrolidin-3-yl]methyl]-5-chloro-2-methoxy-4-(methylamino)benzamide

> <PUBCHEM_IUPAC_CAS_NAME>
5-chloro-2-methoxy-4-(methylamino)-N-[[(3R,4S)-4-methyl-1-(phenylmethyl)-3-pyrrolidinyl]methyl]benzamide

> <PUBCHEM_IUPAC_NAME_MARKUP>
<I>N</I>-[[(3<I>R</I>,4<I>S</I>)-1-benzyl-4-methylpyrrolidin-3-yl]methyl]-5-chloro-2-methoxy-4-(methylamino)benzamide

> <PUBCHEM_IUPAC_NAME>
N-[[(3R,4S)-1-benzyl-4-methylpyrrolidin-3-yl]methyl]-5-chloro-2-methoxy-4-(methylamino)benzamide

> <PUBCHEM_IUPAC_SYSTEMATIC_NAME>
5-chloranyl-2-methoxy-4-(methylamino)-N-[[(3R,4S)-4-methyl-1-(phenylmethyl)pyrrolidin-3-yl]methyl]benzamide

> <PUBCHEM_IUPAC_TRADITIONAL_NAME>
N-[[(3R,4S)-1-benzyl-4-methyl-pyrrolidin-3-yl]methyl]-5-chloro-2-methoxy-4-(methylamino)benzamide

> <PUBCHEM_IUPAC_INCHI>
InChI=1S/C22H28ClN3O2/c1-15-12-26(13-16-7-5-4-6-8-16)14-17(15)11-25-22(27)18-9-19(23)20(24-2)10-21(18)28-3/h4-10,15,17,24H,11-14H2,1-3H3,(H,25,27)/t15-,17-/m1/s1

> <PUBCHEM_IUPAC_INCHIKEY>
RVBDWZKWSXQLMF-NVXWUHKLSA-N

> <PUBCHEM_XLOGP3_AA>
4.1

> <PUBCHEM_EXACT_MASS>
401.1870048

> <PUBCHEM_MOLECULAR_FORMULA>
C22H28ClN3O2

> <PUBCHEM_MOLECULAR_WEIGHT>
401.9

> <PUBCHEM_OPENEYE_CAN_SMILES>
CC1CN(CC1CNC(=O)C2=CC(=C(C=C2OC)NC)Cl)CC3=CC=CC=C3

> <PUBCHEM_OPENEYE_ISO_SMILES>
C[C@@H]1CN(C[C@H]1CNC(=O)C2=CC(=C(C=C2OC)NC)Cl)CC3=CC=CC=C3

> <PUBCHEM_CACTVS_TPSA>
53.6

> <PUBCHEM_MONOISOTOPIC_WEIGHT>
401.1870048

> <PUBCHEM_TOTAL_CHARGE>
0

> <PUBCHEM_HEAVY_ATOM_COUNT>
28

> <PUBCHEM_ATOM_DEF_STEREO_COUNT>
2

> <PUBCHEM_ATOM_UDEF_STEREO_COUNT>
0

> <PUBCHEM_BOND_DEF_STEREO_COUNT>
0

> <PUBCHEM_BOND_UDEF_STEREO_COUNT>
0

> <PUBCHEM_ISOTOPIC_ATOM_COUNT>
0

> <PUBCHEM_COMPONENT_COUNT>
1

> <PUBCHEM_CACTVS_TAUTO_COUNT>
-1

> <PUBCHEM_COORDINATE_TYPE>
1
5
255

> <PUBCHEM_BONDANNOTATIONS>
14  16  8
14  17  8
16  19  8
17  20  8
18  22  8
18  23  8
19  21  8
20  21  8
22  24  8
23  25  8
24  26  8
25  26  8
7  11  6
8  12  5

$$$$
