44378128
  -OEChem-09292322192D

 56 60  0     1  0  0  0  0  0999 V2000
    5.2446   -5.5107    0.0000 S   0  0  0  0  0  0  0  0  0  0  0  0
    5.0066    2.9184    0.0000 O   0  0  0  0  0  0  0  0  0  0  0  0
    5.3498   -3.3006    0.0000 N   0  0  3  0  0  0  0  0  0  0  0  0
    4.0200   -0.5495    0.0000 N   0  0  3  0  0  0  0  0  0  0  0  0
    5.0408   -2.3495    0.0000 C   0  0  2  0  0  0  0  0  0  0  0  0
    4.0408   -2.3495    0.0000 C   0  0  1  0  0  0  0  0  0  0  0  0
    5.5755   -1.4555    0.0000 C   0  0  0  0  0  0  0  0  0  0  0  0
    3.5062   -1.4555    0.0000 C   0  0  0  0  0  0  0  0  0  0  0  0
    3.7318   -3.3006    0.0000 C   0  0  0  0  0  0  0  0  0  0  0  0
    4.5408   -3.8883    0.0000 C   0  0  0  0  0  0  0  0  0  0  0  0
    5.0616   -0.5495    0.0000 C   0  0  0  0  0  0  0  0  0  0  0  0
    6.2935   -3.5678    0.0000 C   0  0  0  0  0  0  0  0  0  0  0  0
    3.5167    0.3146    0.0000 C   0  0  0  0  0  0  0  0  0  0  0  0
    4.5034   -4.8684    0.0000 C   0  0  0  0  0  0  0  0  0  0  0  0
    2.8567   -3.7515    0.0000 C   0  0  0  0  0  0  0  0  0  0  0  0
    6.6754   -4.4712    0.0000 C   0  0  0  0  0  0  0  0  0  0  0  0
    6.2094   -5.3343    0.0000 C   0  0  0  0  0  0  0  0  0  0  0  0
    4.0133    1.1826    0.0000 C   0  0  0  0  0  0  0  0  0  0  0  0
    3.6123   -5.2867    0.0000 C   0  0  0  0  0  0  0  0  0  0  0  0
    2.7975   -4.7341    0.0000 C   0  0  0  0  0  0  0  0  0  0  0  0
    3.5100    2.0466    0.0000 C   0  0  0  0  0  0  0  0  0  0  0  0
    4.0067    2.9146    0.0000 C   0  0  0  0  0  0  0  0  0  0  0  0
    3.5033    3.7787    0.0000 C   0  0  0  0  0  0  0  0  0  0  0  0
    2.5033    3.7748    0.0000 C   0  0  0  0  0  0  0  0  0  0  0  0
    4.0000    4.6466    0.0000 C   0  0  0  0  0  0  0  0  0  0  0  0
    2.0000    4.6389    0.0000 C   0  0  0  0  0  0  0  0  0  0  0  0
    3.4966    5.5107    0.0000 C   0  0  0  0  0  0  0  0  0  0  0  0
    2.4967    5.5069    0.0000 C   0  0  0  0  0  0  0  0  0  0  0  0
    5.8855   -2.4449    0.0000 H   0  0  0  0  0  0  0  0  0  0  0  0
    3.1962   -2.4449    0.0000 H   0  0  0  0  0  0  0  0  0  0  0  0
    6.0453   -1.8601    0.0000 H   0  0  0  0  0  0  0  0  0  0  0  0
    6.0545   -1.0619    0.0000 H   0  0  0  0  0  0  0  0  0  0  0  0
    3.0271   -1.0619    0.0000 H   0  0  0  0  0  0  0  0  0  0  0  0
    3.0364   -1.8601    0.0000 H   0  0  0  0  0  0  0  0  0  0  0  0
    5.6453   -0.3404    0.0000 H   0  0  0  0  0  0  0  0  0  0  0  0
    4.9556    0.0614    0.0000 H   0  0  0  0  0  0  0  0  0  0  0  0
    6.9041   -3.4601    0.0000 H   0  0  0  0  0  0  0  0  0  0  0  0
    6.3249   -2.9486    0.0000 H   0  0  0  0  0  0  0  0  0  0  0  0
    3.0402    0.7113    0.0000 H   0  0  0  0  0  0  0  0  0  0  0  0
    3.0433   -0.0857    0.0000 H   0  0  0  0  0  0  0  0  0  0  0  0
    2.3373   -3.4129    0.0000 H   0  0  0  0  0  0  0  0  0  0  0  0
    7.1413   -4.8802    0.0000 H   0  0  0  0  0  0  0  0  0  0  0  0
    7.1781   -4.1084    0.0000 H   0  0  0  0  0  0  0  0  0  0  0  0
    6.1819   -5.9537    0.0000 H   0  0  0  0  0  0  0  0  0  0  0  0
    6.8070   -5.4995    0.0000 H   0  0  0  0  0  0  0  0  0  0  0  0
    4.4898    0.7859    0.0000 H   0  0  0  0  0  0  0  0  0  0  0  0
    4.4868    1.5829    0.0000 H   0  0  0  0  0  0  0  0  0  0  0  0
    3.5636   -5.9048    0.0000 H   0  0  0  0  0  0  0  0  0  0  0  0
    2.2413   -5.0079    0.0000 H   0  0  0  0  0  0  0  0  0  0  0  0
    3.0335    2.4433    0.0000 H   0  0  0  0  0  0  0  0  0  0  0  0
    3.0366    1.6463    0.0000 H   0  0  0  0  0  0  0  0  0  0  0  0
    2.1954    3.2367    0.0000 H   0  0  0  0  0  0  0  0  0  0  0  0
    4.6200    4.6490    0.0000 H   0  0  0  0  0  0  0  0  0  0  0  0
    1.3800    4.6365    0.0000 H   0  0  0  0  0  0  0  0  0  0  0  0
    3.8046    6.0488    0.0000 H   0  0  0  0  0  0  0  0  0  0  0  0
    2.1846    6.0426    0.0000 H   0  0  0  0  0  0  0  0  0  0  0  0
  1 14  1  0  0  0  0
  1 17  1  0  0  0  0
  2 22  2  0  0  0  0
  3  5  1  0  0  0  0
  3 10  1  0  0  0  0
  3 12  1  0  0  0  0
  4  8  1  0  0  0  0
  4 11  1  0  0  0  0
  4 13  1  0  0  0  0
  5  6  1  0  0  0  0
  5  7  1  0  0  0  0
  5 29  1  1  0  0  0
  6  8  1  0  0  0  0
  6  9  1  0  0  0  0
  6 30  1  1  0  0  0
  7 11  1  0  0  0  0
  7 31  1  0  0  0  0
  7 32  1  0  0  0  0
  8 33  1  0  0  0  0
  8 34  1  0  0  0  0
  9 10  2  0  0  0  0
  9 15  1  0  0  0  0
 10 14  1  0  0  0  0
 11 35  1  0  0  0  0
 11 36  1  0  0  0  0
 12 16  1  0  0  0  0
 12 37  1  0  0  0  0
 12 38  1  0  0  0  0
 13 18  1  0  0  0  0
 13 39  1  0  0  0  0
 13 40  1  0  0  0  0
 14 19  2  0  0  0  0
 15 20  2  0  0  0  0
 15 41  1  0  0  0  0
 16 17  1  0  0  0  0
 16 42  1  0  0  0  0
 16 43  1  0  0  0  0
 17 44  1  0  0  0  0
 17 45  1  0  0  0  0
 18 21  1  0  0  0  0
 18 46  1  0  0  0  0
 18 47  1  0  0  0  0
 19 20  1  0  0  0  0
 19 48  1  0  0  0  0
 20 49  1  0  0  0  0
 21 22  1  0  0  0  0
 21 50  1  0  0  0  0
 21 51  1  0  0  0  0
 22 23  1  0  0  0  0
 23 24  2  0  0  0  0
 23 25  1  0  0  0  0
 24 26  1  0  0  0  0
 24 52  1  0  0  0  0
 25 27  2  0  0  0  0
 25 53  1  0  0  0  0
 26 28  2  0  0  0  0
 26 54  1  0  0  0  0
 27 28  1  0  0  0  0
 27 55  1  0  0  0  0
 28 56  1  0  0  0  0
M  END
> <PUBCHEM_COMPOUND_CID>
44378128

> <PUBCHEM_COMPOUND_CANONICALIZED>
1

> <PUBCHEM_CACTVS_COMPLEXITY>
549

> <PUBCHEM_CACTVS_HBOND_ACCEPTOR>
4

> <PUBCHEM_CACTVS_HBOND_DONOR>
0

> <PUBCHEM_CACTVS_ROTATABLE_BOND>
5

> <PUBCHEM_CACTVS_SUBSKEYS>
AAADceB7IABAAAAAAAAAAAAAAAAAAWAAAAA8YIAABYAAAFixQAAAHgQAAAAADSzF2ASwwYMAAAiIAqRSQACCAAAlCBAIiB0IRMgIIDLg1ZGEIQhggADoyYcciMCOgAAAgAACAQAAAAEAAAQCAAAAAAAAAA==

> <PUBCHEM_IUPAC_OPENEYE_NAME>
1-phenyl-4-[(11S,16R)-6-thia-10,14-diazatetracyclo[8.6.1.05,17.011,16]heptadeca-1(17),2,4-trien-14-yl]butan-1-one

> <PUBCHEM_IUPAC_CAS_NAME>
1-phenyl-4-[(11S,16R)-6-thia-10,14-diazatetracyclo[8.6.1.05,17.011,16]heptadeca-1(17),2,4-trien-14-yl]-1-butanone

> <PUBCHEM_IUPAC_NAME_MARKUP>
1-phenyl-4-[(11<I>S</I>,16<I>R</I>)-6-thia-10,14-diazatetracyclo[8.6.1.0<SUP>5,17</SUP>.0<SUP>11,16</SUP>]heptadeca-1(17),2,4-trien-14-yl]butan-1-one

> <PUBCHEM_IUPAC_NAME>
1-phenyl-4-[(11S,16R)-6-thia-10,14-diazatetracyclo[8.6.1.05,17.011,16]heptadeca-1(17),2,4-trien-14-yl]butan-1-one

> <PUBCHEM_IUPAC_SYSTEMATIC_NAME>
1-phenyl-4-[(11S,16R)-6-thia-10,14-diazatetracyclo[8.6.1.05,17.011,16]heptadeca-1(17),2,4-trien-14-yl]butan-1-one

> <PUBCHEM_IUPAC_TRADITIONAL_NAME>
1-phenyl-4-[(11S,16R)-6-thia-10,14-diazatetracyclo[8.6.1.05,17.011,16]heptadeca-1(17),2,4-trien-14-yl]butan-1-one

> <PUBCHEM_IUPAC_INCHI>
InChI=1S/C24H28N2OS/c27-22(18-7-2-1-3-8-18)10-5-13-25-15-12-21-20(17-25)19-9-4-11-23-24(19)26(21)14-6-16-28-23/h1-4,7-9,11,20-21H,5-6,10,12-17H2/t20-,21-/m0/s1

> <PUBCHEM_IUPAC_INCHIKEY>
JJEUGQSNWGGUIG-SFTDATJTSA-N

> <PUBCHEM_XLOGP3_AA>
4.4

> <PUBCHEM_EXACT_MASS>
392.19223469

> <PUBCHEM_MOLECULAR_FORMULA>
C24H28N2OS

> <PUBCHEM_MOLECULAR_WEIGHT>
392.6

> <PUBCHEM_OPENEYE_CAN_SMILES>
C1CN2C3CCN(CC3C4=C2C(=CC=C4)SC1)CCCC(=O)C5=CC=CC=C5

> <PUBCHEM_OPENEYE_ISO_SMILES>
C1CN2[C@H]3CCN(C[C@H]3C4=C2C(=CC=C4)SC1)CCCC(=O)C5=CC=CC=C5

> <PUBCHEM_CACTVS_TPSA>
48.8

> <PUBCHEM_MONOISOTOPIC_WEIGHT>
392.19223469

> <PUBCHEM_TOTAL_CHARGE>
0

> <PUBCHEM_HEAVY_ATOM_COUNT>
28

> <PUBCHEM_ATOM_DEF_STEREO_COUNT>
2

> <PUBCHEM_ATOM_UDEF_STEREO_COUNT>
0

> <PUBCHEM_BOND_DEF_STEREO_COUNT>
0

> <PUBCHEM_BOND_UDEF_STEREO_COUNT>
0

> <PUBCHEM_ISOTOPIC_ATOM_COUNT>
0

> <PUBCHEM_COMPONENT_COUNT>
1

> <PUBCHEM_CACTVS_TAUTO_COUNT>
-1

> <PUBCHEM_COORDINATE_TYPE>
1
5
255

> <PUBCHEM_BONDANNOTATIONS>
10  14  8
14  19  8
15  20  8
19  20  8
23  24  8
23  25  8
24  26  8
25  27  8
26  28  8
27  28  8
5  29  5
6  30  5
9  10  8
9  15  8

$$$$
