49799690
  -OEChem-09292322302D

 57 59  0     0  0  0  0  0  0999 V2000
    9.1440    3.6832    0.0000 O   0  0  0  0  0  0  0  0  0  0  0  0
    1.4030    2.6200    0.0000 O   0  0  0  0  0  0  0  0  0  0  0  0
    6.9100    9.9133    0.0000 O   0  0  0  0  0  0  0  0  0  0  0  0
    4.3119   10.4133    0.0000 O   0  0  0  0  0  0  0  0  0  0  0  0
    6.0440   11.4133    0.0000 O   0  0  0  0  0  0  0  0  0  0  0  0
    5.1779    8.9133    0.0000 O   0  0  0  0  0  0  0  0  0  0  0  0
    6.2364    3.5815    0.0000 N   0  0  0  0  0  0  0  0  0  0  0  0
    4.9473    0.8153    0.0000 N   0  0  0  0  0  0  0  0  0  0  0  0
    8.1934    3.9939    0.0000 C   0  0  0  0  0  0  0  0  0  0  0  0
    7.5256    4.7382    0.0000 C   0  0  0  0  0  0  0  0  0  0  0  0
    7.8828    3.0434    0.0000 C   0  0  0  0  0  0  0  0  0  0  0  0
    6.5471    4.5320    0.0000 C   0  0  0  0  0  0  0  0  0  0  0  0
    6.9043    2.8372    0.0000 C   0  0  0  0  0  0  0  0  0  0  0  0
    8.9377    4.6617    0.0000 C   0  0  0  0  0  0  0  0  0  0  0  0
    5.2579    3.3752    0.0000 C   0  0  0  0  0  0  0  0  0  0  0  0
    4.9473    2.4247    0.0000 C   0  0  0  0  0  0  0  0  0  0  0  0
    9.8883    4.3511    0.0000 C   0  0  0  0  0  0  0  0  0  0  0  0
    8.7315    5.6403    0.0000 C   0  0  0  0  0  0  0  0  0  0  0  0
    4.0010    2.1200    0.0000 C   0  0  0  0  0  0  0  0  0  0  0  0
    5.5309    1.6200    0.0000 C   0  0  0  0  0  0  0  0  0  0  0  0
    4.0010    1.1200    0.0000 C   0  0  0  0  0  0  0  0  0  0  0  0
   10.6326    5.0189    0.0000 C   0  0  0  0  0  0  0  0  0  0  0  0
    9.4758    6.3081    0.0000 C   0  0  0  0  0  0  0  0  0  0  0  0
    3.1350    2.6200    0.0000 C   0  0  0  0  0  0  0  0  0  0  0  0
   10.4263    5.9974    0.0000 C   0  0  0  0  0  0  0  0  0  0  0  0
    3.1350    0.6200    0.0000 C   0  0  0  0  0  0  0  0  0  0  0  0
    2.2690    2.1200    0.0000 C   0  0  0  0  0  0  0  0  0  0  0  0
    2.2690    1.1200    0.0000 C   0  0  0  0  0  0  0  0  0  0  0  0
    0.5369    2.1200    0.0000 C   0  0  0  0  0  0  0  0  0  0  0  0
    6.0440   10.4133    0.0000 C   0  0  0  0  0  0  0  0  0  0  0  0
    5.1779    9.9133    0.0000 C   0  0  0  0  0  0  0  0  0  0  0  0
    8.0520    5.0658    0.0000 H   0  0  0  0  0  0  0  0  0  0  0  0
    7.2943    5.3135    0.0000 H   0  0  0  0  0  0  0  0  0  0  0  0
    7.9033    2.4237    0.0000 H   0  0  0  0  0  0  0  0  0  0  0  0
    8.4966    2.9560    0.0000 H   0  0  0  0  0  0  0  0  0  0  0  0
    6.5265    5.1516    0.0000 H   0  0  0  0  0  0  0  0  0  0  0  0
    5.9333    4.6193    0.0000 H   0  0  0  0  0  0  0  0  0  0  0  0
    6.3779    2.5095    0.0000 H   0  0  0  0  0  0  0  0  0  0  0  0
    7.1355    2.2619    0.0000 H   0  0  0  0  0  0  0  0  0  0  0  0
    5.2374    3.9949    0.0000 H   0  0  0  0  0  0  0  0  0  0  0  0
    4.6441    3.4626    0.0000 H   0  0  0  0  0  0  0  0  0  0  0  0
    9.2718    3.0766    0.0000 H   0  0  0  0  0  0  0  0  0  0  0  0
   10.0161    3.7444    0.0000 H   0  0  0  0  0  0  0  0  0  0  0  0
    8.1422    5.8329    0.0000 H   0  0  0  0  0  0  0  0  0  0  0  0
    6.1509    1.6200    0.0000 H   0  0  0  0  0  0  0  0  0  0  0  0
    5.1399    0.2259    0.0000 H   0  0  0  0  0  0  0  0  0  0  0  0
   11.2219    4.8263    0.0000 H   0  0  0  0  0  0  0  0  0  0  0  0
    9.3480    6.9148    0.0000 H   0  0  0  0  0  0  0  0  0  0  0  0
    3.1350    3.2400    0.0000 H   0  0  0  0  0  0  0  0  0  0  0  0
   10.8878    6.4115    0.0000 H   0  0  0  0  0  0  0  0  0  0  0  0
    3.1350    0.0000    0.0000 H   0  0  0  0  0  0  0  0  0  0  0  0
    1.7320    0.8100    0.0000 H   0  0  0  0  0  0  0  0  0  0  0  0
    0.2269    2.6569    0.0000 H   0  0  0  0  0  0  0  0  0  0  0  0
    0.0000    1.8100    0.0000 H   0  0  0  0  0  0  0  0  0  0  0  0
    0.8469    1.5831    0.0000 H   0  0  0  0  0  0  0  0  0  0  0  0
    7.4469   10.2233    0.0000 H   0  0  0  0  0  0  0  0  0  0  0  0
    3.7750   10.1033    0.0000 H   0  0  0  0  0  0  0  0  0  0  0  0
  1  9  1  0  0  0  0
  1 42  1  0  0  0  0
  2 27  1  0  0  0  0
  2 29  1  0  0  0  0
  3 30  1  0  0  0  0
  3 56  1  0  0  0  0
  4 31  1  0  0  0  0
  4 57  1  0  0  0  0
  5 30  2  0  0  0  0
  6 31  2  0  0  0  0
  7 12  1  0  0  0  0
  7 13  1  0  0  0  0
  7 15  1  0  0  0  0
  8 20  1  0  0  0  0
  8 21  1  0  0  0  0
  8 46  1  0  0  0  0
  9 10  1  0  0  0  0
  9 11  1  0  0  0  0
  9 14  1  0  0  0  0
 10 12  1  0  0  0  0
 10 32  1  0  0  0  0
 10 33  1  0  0  0  0
 11 13  1  0  0  0  0
 11 34  1  0  0  0  0
 11 35  1  0  0  0  0
 12 36  1  0  0  0  0
 12 37  1  0  0  0  0
 13 38  1  0  0  0  0
 13 39  1  0  0  0  0
 14 17  2  0  0  0  0
 14 18  1  0  0  0  0
 15 16  1  0  0  0  0
 15 40  1  0  0  0  0
 15 41  1  0  0  0  0
 16 19  1  0  0  0  0
 16 20  2  0  0  0  0
 17 22  1  0  0  0  0
 17 43  1  0  0  0  0
 18 23  2  0  0  0  0
 18 44  1  0  0  0  0
 19 21  2  0  0  0  0
 19 24  1  0  0  0  0
 20 45  1  0  0  0  0
 21 26  1  0  0  0  0
 22 25  2  0  0  0  0
 22 47  1  0  0  0  0
 23 25  1  0  0  0  0
 23 48  1  0  0  0  0
 24 27  2  0  0  0  0
 24 49  1  0  0  0  0
 25 50  1  0  0  0  0
 26 28  2  0  0  0  0
 26 51  1  0  0  0  0
 27 28  1  0  0  0  0
 28 52  1  0  0  0  0
 29 53  1  0  0  0  0
 29 54  1  0  0  0  0
 29 55  1  0  0  0  0
 30 31  1  0  0  0  0
M  END
> <PUBCHEM_COMPOUND_CID>
49799690

> <PUBCHEM_COMPOUND_CANONICALIZED>
1

> <PUBCHEM_CACTVS_COMPLEXITY>
501

> <PUBCHEM_CACTVS_HBOND_ACCEPTOR>
7

> <PUBCHEM_CACTVS_HBOND_DONOR>
4

> <PUBCHEM_CACTVS_ROTATABLE_BOND>
5

> <PUBCHEM_CACTVS_SUBSKEYS>
AAADceB7OAAAAAAAAAAAAAAAAAAAAWAAAAA8YIAAAAAAAFgB9AAAHgAQCAAADEzBngY+zvPJlgCoAzT3TAKCiCAxIiAI2aB+bJgNJuLE8ZuEcChm0BHJ+Aew0PIOgEABAAACAAAAgAIAAAQAAAAAAAAAAA==

> <PUBCHEM_IUPAC_OPENEYE_NAME>
1-[(5-methoxy-1H-indol-3-yl)methyl]-4-phenyl-piperidin-4-ol;oxalic acid

> <PUBCHEM_IUPAC_CAS_NAME>
1-[(5-methoxy-1H-indol-3-yl)methyl]-4-phenyl-4-piperidinol;oxalic acid

> <PUBCHEM_IUPAC_NAME_MARKUP>
1-[(5-methoxy-1<I>H</I>-indol-3-yl)methyl]-4-phenylpiperidin-4-ol;oxalic acid

> <PUBCHEM_IUPAC_NAME>
1-[(5-methoxy-1H-indol-3-yl)methyl]-4-phenylpiperidin-4-ol;oxalic acid

> <PUBCHEM_IUPAC_SYSTEMATIC_NAME>
ethanedioic acid;1-[(5-methoxy-1H-indol-3-yl)methyl]-4-phenyl-piperidin-4-ol

> <PUBCHEM_IUPAC_TRADITIONAL_NAME>
1-[(5-methoxy-1H-indol-3-yl)methyl]-4-phenyl-piperidin-4-ol;oxalic acid

> <PUBCHEM_IUPAC_INCHI>
InChI=1S/C21H24N2O2.C2H2O4/c1-25-18-7-8-20-19(13-18)16(14-22-20)15-23-11-9-21(24,10-12-23)17-5-3-2-4-6-17;3-1(4)2(5)6/h2-8,13-14,22,24H,9-12,15H2,1H3;(H,3,4)(H,5,6)

> <PUBCHEM_IUPAC_INCHIKEY>
DIKGPWVGRRHAKZ-UHFFFAOYSA-N

> <PUBCHEM_EXACT_MASS>
426.17908655

> <PUBCHEM_MOLECULAR_FORMULA>
C23H26N2O6

> <PUBCHEM_MOLECULAR_WEIGHT>
426.5

> <PUBCHEM_OPENEYE_CAN_SMILES>
COC1=CC2=C(C=C1)NC=C2CN3CCC(CC3)(C4=CC=CC=C4)O.C(=O)(C(=O)O)O

> <PUBCHEM_OPENEYE_ISO_SMILES>
COC1=CC2=C(C=C1)NC=C2CN3CCC(CC3)(C4=CC=CC=C4)O.C(=O)(C(=O)O)O

> <PUBCHEM_CACTVS_TPSA>
123

> <PUBCHEM_MONOISOTOPIC_WEIGHT>
426.17908655

> <PUBCHEM_TOTAL_CHARGE>
0

> <PUBCHEM_HEAVY_ATOM_COUNT>
31

> <PUBCHEM_ATOM_DEF_STEREO_COUNT>
0

> <PUBCHEM_ATOM_UDEF_STEREO_COUNT>
0

> <PUBCHEM_BOND_DEF_STEREO_COUNT>
0

> <PUBCHEM_BOND_UDEF_STEREO_COUNT>
0

> <PUBCHEM_ISOTOPIC_ATOM_COUNT>
0

> <PUBCHEM_COMPONENT_COUNT>
2

> <PUBCHEM_CACTVS_TAUTO_COUNT>
-1

> <PUBCHEM_COORDINATE_TYPE>
1
5
255

> <PUBCHEM_BONDANNOTATIONS>
14  17  8
14  18  8
16  19  8
16  20  8
17  22  8
18  23  8
19  21  8
19  24  8
21  26  8
22  25  8
23  25  8
24  27  8
26  28  8
27  28  8
8  20  8
8  21  8

$$$$
