145964846
  -OEChem-09292322002D

 53 53  0     0  0  0  0  0  0999 V2000
    6.2087   12.6200    0.0000 Cl  0  0  0  0  0  0  0  0  0  0  0  0
    0.0000    6.0600    0.0000 Cl  0  0  0  0  0  0  0  0  0  0  0  0
   10.4776    6.0600    0.0000 Cl  0  0  0  0  0  0  0  0  0  0  0  0
    6.2087    8.6200    0.0000 O   0  0  0  0  0  0  0  0  0  0  0  0
    4.4766    5.6200    0.0000 N   0  0  0  0  0  0  0  0  0  0  0  0
    4.4766    3.6200    0.0000 N   0  0  0  0  0  0  0  0  0  0  0  0
    5.3426    5.1200    0.0000 C   0  0  0  0  0  0  0  0  0  0  0  0
    3.6106    5.1200    0.0000 C   0  0  0  0  0  0  0  0  0  0  0  0
    5.3426    4.1200    0.0000 C   0  0  0  0  0  0  0  0  0  0  0  0
    3.6106    4.1200    0.0000 C   0  0  0  0  0  0  0  0  0  0  0  0
    4.4766    6.6200    0.0000 C   0  0  0  0  0  0  0  0  0  0  0  0
    5.3426    7.1200    0.0000 C   0  0  0  0  0  0  0  0  0  0  0  0
    4.4766    2.6200    0.0000 C   0  0  0  0  0  0  0  0  0  0  0  0
    5.3426    8.1200    0.0000 C   0  0  0  0  0  0  0  0  0  0  0  0
    5.3426    2.1200    0.0000 C   0  0  0  0  0  0  0  0  0  0  0  0
    3.6106    2.1200    0.0000 C   0  0  0  0  0  0  0  0  0  0  0  0
    5.3426    1.1200    0.0000 C   0  0  0  0  0  0  0  0  0  0  0  0
    3.6106    1.1200    0.0000 C   0  0  0  0  0  0  0  0  0  0  0  0
    4.4766    0.6200    0.0000 C   0  0  0  0  0  0  0  0  0  0  0  0
    6.2087    9.6200    0.0000 C   0  0  0  0  0  0  0  0  0  0  0  0
    7.0747   10.1200    0.0000 C   0  0  0  0  0  0  0  0  0  0  0  0
    5.3426   10.1200    0.0000 C   0  0  0  0  0  0  0  0  0  0  0  0
    7.0747   11.1200    0.0000 C   0  0  0  0  0  0  0  0  0  0  0  0
    5.3426   11.1200    0.0000 C   0  0  0  0  0  0  0  0  0  0  0  0
    6.2087   11.6200    0.0000 C   0  0  0  0  0  0  0  0  0  0  0  0
    7.9407   11.6200    0.0000 C   0  0  0  0  0  0  0  0  0  0  0  0
    5.9532    5.0123    0.0000 H   0  0  0  0  0  0  0  0  0  0  0  0
    5.5547    5.7026    0.0000 H   0  0  0  0  0  0  0  0  0  0  0  0
    3.3985    5.7026    0.0000 H   0  0  0  0  0  0  0  0  0  0  0  0
    3.0000    5.0123    0.0000 H   0  0  0  0  0  0  0  0  0  0  0  0
    5.5547    3.5374    0.0000 H   0  0  0  0  0  0  0  0  0  0  0  0
    5.9532    4.2277    0.0000 H   0  0  0  0  0  0  0  0  0  0  0  0
    3.0000    4.2277    0.0000 H   0  0  0  0  0  0  0  0  0  0  0  0
    3.3985    3.5374    0.0000 H   0  0  0  0  0  0  0  0  0  0  0  0
    4.2646    7.2026    0.0000 H   0  0  0  0  0  0  0  0  0  0  0  0
    3.8660    6.5123    0.0000 H   0  0  0  0  0  0  0  0  0  0  0  0
    5.5547    6.5374    0.0000 H   0  0  0  0  0  0  0  0  0  0  0  0
    5.9532    7.2277    0.0000 H   0  0  0  0  0  0  0  0  0  0  0  0
    5.1306    8.7026    0.0000 H   0  0  0  0  0  0  0  0  0  0  0  0
    4.7320    8.0123    0.0000 H   0  0  0  0  0  0  0  0  0  0  0  0
    5.8796    2.4300    0.0000 H   0  0  0  0  0  0  0  0  0  0  0  0
    3.0737    2.4300    0.0000 H   0  0  0  0  0  0  0  0  0  0  0  0
    5.8796    0.8100    0.0000 H   0  0  0  0  0  0  0  0  0  0  0  0
    3.0737    0.8100    0.0000 H   0  0  0  0  0  0  0  0  0  0  0  0
    4.4766    0.0000    0.0000 H   0  0  0  0  0  0  0  0  0  0  0  0
    7.6116    9.8100    0.0000 H   0  0  0  0  0  0  0  0  0  0  0  0
    4.8057    9.8100    0.0000 H   0  0  0  0  0  0  0  0  0  0  0  0
    4.8057   11.4300    0.0000 H   0  0  0  0  0  0  0  0  0  0  0  0
    8.2507   11.0831    0.0000 H   0  0  0  0  0  0  0  0  0  0  0  0
    8.4776   11.9300    0.0000 H   0  0  0  0  0  0  0  0  0  0  0  0
    7.6307   12.1569    0.0000 H   0  0  0  0  0  0  0  0  0  0  0  0
    1.0000    6.0600    0.0000 H   0  0  0  0  0  0  0  0  0  0  0  0
   11.4776    6.0600    0.0000 H   0  0  0  0  0  0  0  0  0  0  0  0
  1 25  1  0  0  0  0
  2 52  1  0  0  0  0
  3 53  1  0  0  0  0
  4 14  1  0  0  0  0
  4 20  1  0  0  0  0
  5  7  1  0  0  0  0
  5  8  1  0  0  0  0
  5 11  1  0  0  0  0
  6  9  1  0  0  0  0
  6 10  1  0  0  0  0
  6 13  1  0  0  0  0
  7  9  1  0  0  0  0
  7 27  1  0  0  0  0
  7 28  1  0  0  0  0
  8 10  1  0  0  0  0
  8 29  1  0  0  0  0
  8 30  1  0  0  0  0
  9 31  1  0  0  0  0
  9 32  1  0  0  0  0
 10 33  1  0  0  0  0
 10 34  1  0  0  0  0
 11 12  1  0  0  0  0
 11 35  1  0  0  0  0
 11 36  1  0  0  0  0
 12 14  1  0  0  0  0
 12 37  1  0  0  0  0
 12 38  1  0  0  0  0
 13 15  2  0  0  0  0
 13 16  1  0  0  0  0
 14 39  1  0  0  0  0
 14 40  1  0  0  0  0
 15 17  1  0  0  0  0
 15 41  1  0  0  0  0
 16 18  2  0  0  0  0
 16 42  1  0  0  0  0
 17 19  2  0  0  0  0
 17 43  1  0  0  0  0
 18 19  1  0  0  0  0
 18 44  1  0  0  0  0
 19 45  1  0  0  0  0
 20 21  2  0  0  0  0
 20 22  1  0  0  0  0
 21 23  1  0  0  0  0
 21 46  1  0  0  0  0
 22 24  2  0  0  0  0
 22 47  1  0  0  0  0
 23 25  2  0  0  0  0
 23 26  1  0  0  0  0
 24 25  1  0  0  0  0
 24 48  1  0  0  0  0
 26 49  1  0  0  0  0
 26 50  1  0  0  0  0
 26 51  1  0  0  0  0
M  END
> <PUBCHEM_COMPOUND_CID>
145964846

> <PUBCHEM_COMPOUND_CANONICALIZED>
1

> <PUBCHEM_CACTVS_COMPLEXITY>
354

> <PUBCHEM_CACTVS_HBOND_ACCEPTOR>
3

> <PUBCHEM_CACTVS_HBOND_DONOR>
2

> <PUBCHEM_CACTVS_ROTATABLE_BOND>
6

> <PUBCHEM_CACTVS_SUBSKEYS>
AAADceB7IAAGAAAAAAAAAAAAAAAAAAAAAAA8YIAAAAAAAAABQAAAHgIAAAAADA7hmCYyxoMABACAAiRCQACCCAAhJwAIiAAObogMZiLFs5uWOCjmwBHI6AeQwBAOACABAAABAAAAQAIAAAIAAAAAAAAAAA==

> <PUBCHEM_IUPAC_OPENEYE_NAME>
1-[3-(4-chloro-3-methyl-phenoxy)propyl]-4-phenyl-piperazine;dihydrochloride

> <PUBCHEM_IUPAC_CAS_NAME>
1-[3-(4-chloro-3-methylphenoxy)propyl]-4-phenylpiperazine;dihydrochloride

> <PUBCHEM_IUPAC_NAME_MARKUP>
1-[3-(4-chloro-3-methylphenoxy)propyl]-4-phenylpiperazine;dihydrochloride

> <PUBCHEM_IUPAC_NAME>
1-[3-(4-chloro-3-methylphenoxy)propyl]-4-phenylpiperazine;dihydrochloride

> <PUBCHEM_IUPAC_SYSTEMATIC_NAME>
1-[3-(4-chloranyl-3-methyl-phenoxy)propyl]-4-phenyl-piperazine;dihydrochloride

> <PUBCHEM_IUPAC_TRADITIONAL_NAME>
1-[3-(4-chloro-3-methyl-phenoxy)propyl]-4-phenyl-piperazine;dihydrochloride

> <PUBCHEM_IUPAC_INCHI>
InChI=1S/C20H25ClN2O.2ClH/c1-17-16-19(8-9-20(17)21)24-15-5-10-22-11-13-23(14-12-22)18-6-3-2-4-7-18;;/h2-4,6-9,16H,5,10-15H2,1H3;2*1H

> <PUBCHEM_IUPAC_INCHIKEY>
RTHQQMXOILOELC-UHFFFAOYSA-N

> <PUBCHEM_EXACT_MASS>
416.118897

> <PUBCHEM_MOLECULAR_FORMULA>
C20H27Cl3N2O

> <PUBCHEM_MOLECULAR_WEIGHT>
417.8

> <PUBCHEM_OPENEYE_CAN_SMILES>
CC1=C(C=CC(=C1)OCCCN2CCN(CC2)C3=CC=CC=C3)Cl.Cl.Cl

> <PUBCHEM_OPENEYE_ISO_SMILES>
CC1=C(C=CC(=C1)OCCCN2CCN(CC2)C3=CC=CC=C3)Cl.Cl.Cl

> <PUBCHEM_CACTVS_TPSA>
15.7

> <PUBCHEM_MONOISOTOPIC_WEIGHT>
416.118897

> <PUBCHEM_TOTAL_CHARGE>
0

> <PUBCHEM_HEAVY_ATOM_COUNT>
26

> <PUBCHEM_ATOM_DEF_STEREO_COUNT>
0

> <PUBCHEM_ATOM_UDEF_STEREO_COUNT>
0

> <PUBCHEM_BOND_DEF_STEREO_COUNT>
0

> <PUBCHEM_BOND_UDEF_STEREO_COUNT>
0

> <PUBCHEM_ISOTOPIC_ATOM_COUNT>
0

> <PUBCHEM_COMPONENT_COUNT>
3

> <PUBCHEM_CACTVS_TAUTO_COUNT>
-1

> <PUBCHEM_COORDINATE_TYPE>
1
5
255

> <PUBCHEM_BONDANNOTATIONS>
13  15  8
13  16  8
15  17  8
16  18  8
17  19  8
18  19  8
20  21  8
20  22  8
21  23  8
22  24  8
23  25  8
24  25  8

$$$$
