9992102
  -OEChem-09292322132D

 45 46  0     1  0  0  0  0  0999 V2000
    4.5981    0.2327    0.0000 N   0  0  0  0  0  0  0  0  0  0  0  0
    5.4641    0.7327    0.0000 C   0  0  1  0  0  0  0  0  0  0  0  0
    6.3301    0.2327    0.0000 C   0  0  2  0  0  0  0  0  0  0  0  0
    5.4641    1.7327    0.0000 C   0  0  0  0  0  0  0  0  0  0  0  0
    6.3301    2.2327    0.0000 C   0  0  0  0  0  0  0  0  0  0  0  0
    7.1962    0.7327    0.0000 C   0  0  0  0  0  0  0  0  0  0  0  0
    7.1962    1.7327    0.0000 C   0  0  0  0  0  0  0  0  0  0  0  0
    3.7320    0.7327    0.0000 C   0  0  0  0  0  0  0  0  0  0  0  0
    4.5981   -0.7673    0.0000 C   0  0  0  0  0  0  0  0  0  0  0  0
    6.3301   -0.7673    0.0000 C   0  0  0  0  0  0  0  0  0  0  0  0
    8.0901    0.1980    0.0000 C   0  0  0  0  0  0  0  0  0  0  0  0
    8.0901    2.2673    0.0000 C   0  0  0  0  0  0  0  0  0  0  0  0
    2.8660    0.2327    0.0000 C   0  0  0  0  0  0  0  0  0  0  0  0
    3.7320   -1.2673    0.0000 C   0  0  0  0  0  0  0  0  0  0  0  0
    8.9962    0.7119    0.0000 C   0  0  0  0  0  0  0  0  0  0  0  0
    8.9962    1.7535    0.0000 C   0  0  0  0  0  0  0  0  0  0  0  0
    2.0000    0.7327    0.0000 C   0  0  0  0  0  0  0  0  0  0  0  0
    3.7320   -2.2673    0.0000 C   0  0  0  0  0  0  0  0  0  0  0  0
    5.4641    0.1127    0.0000 H   0  0  0  0  0  0  0  0  0  0  0  0
    6.8671   -0.0773    0.0000 H   0  0  0  0  0  0  0  0  0  0  0  0
    5.2520    2.3153    0.0000 H   0  0  0  0  0  0  0  0  0  0  0  0
    4.8535    1.6250    0.0000 H   0  0  0  0  0  0  0  0  0  0  0  0
    6.7287    2.7076    0.0000 H   0  0  0  0  0  0  0  0  0  0  0  0
    5.9316    2.7076    0.0000 H   0  0  0  0  0  0  0  0  0  0  0  0
    4.1306    1.2076    0.0000 H   0  0  0  0  0  0  0  0  0  0  0  0
    3.3335    1.2076    0.0000 H   0  0  0  0  0  0  0  0  0  0  0  0
    4.8101   -1.3499    0.0000 H   0  0  0  0  0  0  0  0  0  0  0  0
    5.2087   -0.6597    0.0000 H   0  0  0  0  0  0  0  0  0  0  0  0
    5.7101   -0.7673    0.0000 H   0  0  0  0  0  0  0  0  0  0  0  0
    6.3301   -1.3873    0.0000 H   0  0  0  0  0  0  0  0  0  0  0  0
    6.9501   -0.7673    0.0000 H   0  0  0  0  0  0  0  0  0  0  0  0
    8.0829   -0.4220    0.0000 H   0  0  0  0  0  0  0  0  0  0  0  0
    2.4675   -0.2423    0.0000 H   0  0  0  0  0  0  0  0  0  0  0  0
    3.2646   -0.2423    0.0000 H   0  0  0  0  0  0  0  0  0  0  0  0
    3.5200   -0.6847    0.0000 H   0  0  0  0  0  0  0  0  0  0  0  0
    3.1215   -1.3750    0.0000 H   0  0  0  0  0  0  0  0  0  0  0  0
    8.0829    2.8873    0.0000 H   0  0  0  0  0  0  0  0  0  0  0  0
    9.5319    0.3998    0.0000 H   0  0  0  0  0  0  0  0  0  0  0  0
    9.5319    2.0656    0.0000 H   0  0  0  0  0  0  0  0  0  0  0  0
    2.3100    1.2696    0.0000 H   0  0  0  0  0  0  0  0  0  0  0  0
    1.4631    1.0427    0.0000 H   0  0  0  0  0  0  0  0  0  0  0  0
    1.6900    0.1957    0.0000 H   0  0  0  0  0  0  0  0  0  0  0  0
    3.1120   -2.2673    0.0000 H   0  0  0  0  0  0  0  0  0  0  0  0
    3.7320   -2.8873    0.0000 H   0  0  0  0  0  0  0  0  0  0  0  0
    4.3520   -2.2673    0.0000 H   0  0  0  0  0  0  0  0  0  0  0  0
  2  1  1  6  0  0  0
  1  8  1  0  0  0  0
  1  9  1  0  0  0  0
  2  3  1  0  0  0  0
  2  4  1  0  0  0  0
  2 19  1  0  0  0  0
  3  6  1  0  0  0  0
  3 10  1  6  0  0  0
  3 20  1  0  0  0  0
  4  5  1  0  0  0  0
  4 21  1  0  0  0  0
  4 22  1  0  0  0  0
  5  7  1  0  0  0  0
  5 23  1  0  0  0  0
  5 24  1  0  0  0  0
  6  7  1  0  0  0  0
  6 11  2  0  0  0  0
  7 12  2  0  0  0  0
  8 13  1  0  0  0  0
  8 25  1  0  0  0  0
  8 26  1  0  0  0  0
  9 14  1  0  0  0  0
  9 27  1  0  0  0  0
  9 28  1  0  0  0  0
 10 29  1  0  0  0  0
 10 30  1  0  0  0  0
 10 31  1  0  0  0  0
 11 15  1  0  0  0  0
 11 32  1  0  0  0  0
 12 16  1  0  0  0  0
 12 37  1  0  0  0  0
 13 17  1  0  0  0  0
 13 33  1  0  0  0  0
 13 34  1  0  0  0  0
 14 18  1  0  0  0  0
 14 35  1  0  0  0  0
 14 36  1  0  0  0  0
 15 16  2  0  0  0  0
 15 38  1  0  0  0  0
 16 39  1  0  0  0  0
 17 40  1  0  0  0  0
 17 41  1  0  0  0  0
 17 42  1  0  0  0  0
 18 43  1  0  0  0  0
 18 44  1  0  0  0  0
 18 45  1  0  0  0  0
M  END
> <PUBCHEM_COMPOUND_CID>
9992102

> <PUBCHEM_COMPOUND_CANONICALIZED>
1

> <PUBCHEM_CACTVS_COMPLEXITY>
232

> <PUBCHEM_CACTVS_HBOND_ACCEPTOR>
1

> <PUBCHEM_CACTVS_HBOND_DONOR>
0

> <PUBCHEM_CACTVS_ROTATABLE_BOND>
5

> <PUBCHEM_CACTVS_SUBSKEYS>
AAADceB6AAAAAAAAAAAAAAAAAAAAAAAAAAAwYAAAAAAAAADBAAAAHAAAAAAADSjBGAQyAIMAAACAAiBCAAACAAAgAAAIiAAIAIgIICKAkRGEIAAggACIiAcQgMAOgAAAAAAQAAAQAASAACQAAAAAAAAAAA==

> <PUBCHEM_IUPAC_OPENEYE_NAME>
(1S,2R)-1-methyl-N,N-dipropyl-tetralin-2-amine

> <PUBCHEM_IUPAC_CAS_NAME>
(1S,2R)-1-methyl-N,N-dipropyl-1,2,3,4-tetrahydronaphthalen-2-amine

> <PUBCHEM_IUPAC_NAME_MARKUP>
(1<I>S</I>,2<I>R</I>)-1-methyl-<I>N</I>,<I>N</I>-dipropyl-1,2,3,4-tetrahydronaphthalen-2-amine

> <PUBCHEM_IUPAC_NAME>
(1S,2R)-1-methyl-N,N-dipropyl-1,2,3,4-tetrahydronaphthalen-2-amine

> <PUBCHEM_IUPAC_SYSTEMATIC_NAME>
(1S,2R)-1-methyl-N,N-dipropyl-1,2,3,4-tetrahydronaphthalen-2-amine

> <PUBCHEM_IUPAC_TRADITIONAL_NAME>
[(1S,2R)-1-methyltetralin-2-yl]-dipropyl-amine

> <PUBCHEM_IUPAC_INCHI>
InChI=1S/C17H27N/c1-4-12-18(13-5-2)17-11-10-15-8-6-7-9-16(15)14(17)3/h6-9,14,17H,4-5,10-13H2,1-3H3/t14-,17+/m0/s1

> <PUBCHEM_IUPAC_INCHIKEY>
BSFUDLSQCLQWQE-WMLDXEAASA-N

> <PUBCHEM_XLOGP3_AA>
4.8

> <PUBCHEM_EXACT_MASS>
245.214349865

> <PUBCHEM_MOLECULAR_FORMULA>
C17H27N

> <PUBCHEM_MOLECULAR_WEIGHT>
245.4

> <PUBCHEM_OPENEYE_CAN_SMILES>
CCCN(CCC)C1CCC2=CC=CC=C2C1C

> <PUBCHEM_OPENEYE_ISO_SMILES>
CCCN(CCC)[C@@H]1CCC2=CC=CC=C2[C@@H]1C

> <PUBCHEM_CACTVS_TPSA>
3.2

> <PUBCHEM_MONOISOTOPIC_WEIGHT>
245.214349865

> <PUBCHEM_TOTAL_CHARGE>
0

> <PUBCHEM_HEAVY_ATOM_COUNT>
18

> <PUBCHEM_ATOM_DEF_STEREO_COUNT>
2

> <PUBCHEM_ATOM_UDEF_STEREO_COUNT>
0

> <PUBCHEM_BOND_DEF_STEREO_COUNT>
0

> <PUBCHEM_BOND_UDEF_STEREO_COUNT>
0

> <PUBCHEM_ISOTOPIC_ATOM_COUNT>
0

> <PUBCHEM_COMPONENT_COUNT>
1

> <PUBCHEM_CACTVS_TAUTO_COUNT>
-1

> <PUBCHEM_COORDINATE_TYPE>
1
5
255

> <PUBCHEM_BONDANNOTATIONS>
2  1  6
11  15  8
12  16  8
15  16  8
3  10  6
6  11  8
6  7  8
7  12  8

$$$$
