137639304
  -OEChem-09292322392D

 36 38  0     1  0  0  0  0  0999 V2000
    4.8835   -0.1850    0.0000 O   0  0  0  0  0  0  0  0  0  0  0  0
    3.1235   -3.2196    0.0000 O   0  0  0  0  0  0  0  0  0  0  0  0
    6.6536   -2.2438    0.0000 O   0  0  0  0  0  0  0  0  0  0  0  0
    3.1235    0.7804    0.0000 N   0  0  3  0  0  0  0  0  0  0  0  0
    3.6235    2.9710    0.0000 N   0  0  0  0  0  0  0  0  0  0  0  0
    4.8835   -2.2543    0.0000 N   0  0  0  0  0  0  0  0  0  0  0  0
    2.2225    1.2143    0.0000 C   0  0  0  0  0  0  0  0  0  0  0  0
    4.0245    1.2143    0.0000 C   0  0  0  0  0  0  0  0  0  0  0  0
    2.0000    2.1892    0.0000 C   0  0  0  0  0  0  0  0  0  0  0  0
    4.2470    2.1892    0.0000 C   0  0  0  0  0  0  0  0  0  0  0  0
    2.6235    2.9710    0.0000 C   0  0  0  0  0  0  0  0  0  0  0  0
    3.1235   -0.2196    0.0000 C   0  0  0  0  0  0  0  0  0  0  0  0
    3.9895   -0.7196    0.0000 C   0  0  0  0  0  0  0  0  0  0  0  0
    3.9895   -1.7196    0.0000 C   0  0  0  0  0  0  0  0  0  0  0  0
    2.2575   -0.7196    0.0000 C   0  0  0  0  0  0  0  0  0  0  0  0
    3.1235   -2.2196    0.0000 C   0  0  0  0  0  0  0  0  0  0  0  0
    2.2575   -1.7196    0.0000 C   0  0  0  0  0  0  0  0  0  0  0  0
    5.7895   -0.6988    0.0000 C   0  0  0  0  0  0  0  0  0  0  0  0
    5.7895   -1.7404    0.0000 C   0  0  0  0  0  0  0  0  0  0  0  0
    1.6025    1.2143    0.0000 H   0  0  0  0  0  0  0  0  0  0  0  0
    2.0846    0.6098    0.0000 H   0  0  0  0  0  0  0  0  0  0  0  0
    4.1624    0.6098    0.0000 H   0  0  0  0  0  0  0  0  0  0  0  0
    4.6445    1.2143    0.0000 H   0  0  0  0  0  0  0  0  0  0  0  0
    1.6134    2.6739    0.0000 H   0  0  0  0  0  0  0  0  0  0  0  0
    1.4414    1.9202    0.0000 H   0  0  0  0  0  0  0  0  0  0  0  0
    4.8056    1.9202    0.0000 H   0  0  0  0  0  0  0  0  0  0  0  0
    4.6335    2.6739    0.0000 H   0  0  0  0  0  0  0  0  0  0  0  0
    2.7614    3.5755    0.0000 H   0  0  0  0  0  0  0  0  0  0  0  0
    2.0649    3.2400    0.0000 H   0  0  0  0  0  0  0  0  0  0  0  0
    3.8925    3.5296    0.0000 H   0  0  0  0  0  0  0  0  0  0  0  0
    1.7205   -0.4096    0.0000 H   0  0  0  0  0  0  0  0  0  0  0  0
    1.7205   -2.0296    0.0000 H   0  0  0  0  0  0  0  0  0  0  0  0
    4.8763   -2.8742    0.0000 H   0  0  0  0  0  0  0  0  0  0  0  0
    6.4004   -0.8049    0.0000 H   0  0  0  0  0  0  0  0  0  0  0  0
    5.9986   -0.1151    0.0000 H   0  0  0  0  0  0  0  0  0  0  0  0
    2.5866   -3.5296    0.0000 H   0  0  0  0  0  0  0  0  0  0  0  0
  1 13  1  0  0  0  0
  1 18  1  0  0  0  0
  2 16  1  0  0  0  0
  2 36  1  0  0  0  0
  3 19  2  0  0  0  0
  4  7  1  0  0  0  0
  4  8  1  0  0  0  0
  4 12  1  0  0  0  0
  5 10  1  0  0  0  0
  5 11  1  0  0  0  0
  5 30  1  0  0  0  0
  6 14  1  0  0  0  0
  6 19  1  0  0  0  0
  6 33  1  0  0  0  0
  7  9  1  0  0  0  0
  7 20  1  0  0  0  0
  7 21  1  0  0  0  0
  8 10  1  0  0  0  0
  8 22  1  0  0  0  0
  8 23  1  0  0  0  0
  9 11  1  0  0  0  0
  9 24  1  0  0  0  0
  9 25  1  0  0  0  0
 10 26  1  0  0  0  0
 10 27  1  0  0  0  0
 11 28  1  0  0  0  0
 11 29  1  0  0  0  0
 12 13  2  0  0  0  0
 12 15  1  0  0  0  0
 13 14  1  0  0  0  0
 14 16  2  0  0  0  0
 15 17  2  0  0  0  0
 15 31  1  0  0  0  0
 16 17  1  0  0  0  0
 17 32  1  0  0  0  0
 18 19  1  0  0  0  0
 18 34  1  0  0  0  0
 18 35  1  0  0  0  0
M  END
> <PUBCHEM_COMPOUND_CID>
137639304

> <PUBCHEM_COMPOUND_CANONICALIZED>
1

> <PUBCHEM_CACTVS_COMPLEXITY>
339

> <PUBCHEM_CACTVS_HBOND_ACCEPTOR>
5

> <PUBCHEM_CACTVS_HBOND_DONOR>
3

> <PUBCHEM_CACTVS_ROTATABLE_BOND>
1

> <PUBCHEM_CACTVS_SUBSKEYS>
AAADceBzMAAAAAAAAAAAAAAAAAAAAAAAAAA8QAAABYAAAACxAAAAHgAQCAAACAzhkAYwxoPABgCIACVSUAKCCAAhIgAIiIBPbIgOZyLW8N+XeCjl1BXY+AewYAwAAEAACAQAEAAAgAAQCAAgAAAAAAAAAA==

> <PUBCHEM_IUPAC_OPENEYE_NAME>
8-(1,4-diazepan-1-yl)-5-hydroxy-4H-1,4-benzoxazin-3-one

> <PUBCHEM_IUPAC_CAS_NAME>
8-(1,4-diazepan-1-yl)-5-hydroxy-4H-1,4-benzoxazin-3-one

> <PUBCHEM_IUPAC_NAME_MARKUP>
8-(1,4-diazepan-1-yl)-5-hydroxy-4<I>H</I>-1,4-benzoxazin-3-one

> <PUBCHEM_IUPAC_NAME>
8-(1,4-diazepan-1-yl)-5-hydroxy-4H-1,4-benzoxazin-3-one

> <PUBCHEM_IUPAC_SYSTEMATIC_NAME>
8-(1,4-diazepan-1-yl)-5-oxidanyl-4H-1,4-benzoxazin-3-one

> <PUBCHEM_IUPAC_TRADITIONAL_NAME>
8-(1,4-diazepan-1-yl)-5-hydroxy-4H-1,4-benzoxazin-3-one

> <PUBCHEM_IUPAC_INCHI>
InChI=1S/C13H17N3O3/c17-10-3-2-9(16-6-1-4-14-5-7-16)13-12(10)15-11(18)8-19-13/h2-3,14,17H,1,4-8H2,(H,15,18)

> <PUBCHEM_IUPAC_INCHIKEY>
VKZILFVYTKXRFT-UHFFFAOYSA-N

> <PUBCHEM_XLOGP3_AA>
0.3

> <PUBCHEM_EXACT_MASS>
263.12699141

> <PUBCHEM_MOLECULAR_FORMULA>
C13H17N3O3

> <PUBCHEM_MOLECULAR_WEIGHT>
263.29

> <PUBCHEM_OPENEYE_CAN_SMILES>
C1CNCCN(C1)C2=C3C(=C(C=C2)O)NC(=O)CO3

> <PUBCHEM_OPENEYE_ISO_SMILES>
C1CNCCN(C1)C2=C3C(=C(C=C2)O)NC(=O)CO3

> <PUBCHEM_CACTVS_TPSA>
73.8

> <PUBCHEM_MONOISOTOPIC_WEIGHT>
263.12699141

> <PUBCHEM_TOTAL_CHARGE>
0

> <PUBCHEM_HEAVY_ATOM_COUNT>
19

> <PUBCHEM_ATOM_DEF_STEREO_COUNT>
0

> <PUBCHEM_ATOM_UDEF_STEREO_COUNT>
0

> <PUBCHEM_BOND_DEF_STEREO_COUNT>
0

> <PUBCHEM_BOND_UDEF_STEREO_COUNT>
0

> <PUBCHEM_ISOTOPIC_ATOM_COUNT>
0

> <PUBCHEM_COMPONENT_COUNT>
1

> <PUBCHEM_CACTVS_TAUTO_COUNT>
-1

> <PUBCHEM_COORDINATE_TYPE>
1
5
255

> <PUBCHEM_BONDANNOTATIONS>
12  13  8
12  15  8
13  14  8
14  16  8
15  17  8
16  17  8

$$$$
