49865668
  -OEChem-09292322302D

 59 62  0     0  0  0  0  0  0999 V2000
    8.9962   -4.2673    0.0000 O   0  0  0  0  0  0  0  0  0  0  0  0
    7.2641   -1.2673    0.0000 N   0  0  0  0  0  0  0  0  0  0  0  0
    8.9962   -2.2673    0.0000 N   0  0  0  0  0  0  0  0  0  0  0  0
    4.6660    2.2327    0.0000 N   0  0  0  0  0  0  0  0  0  0  0  0
    5.5321    3.7327    0.0000 N   0  0  0  0  0  0  0  0  0  0  0  0
    8.1301   -0.7673    0.0000 C   0  0  0  0  0  0  0  0  0  0  0  0
    7.2641   -2.2673    0.0000 C   0  0  0  0  0  0  0  0  0  0  0  0
    8.9962   -1.2673    0.0000 C   0  0  0  0  0  0  0  0  0  0  0  0
    8.1301   -2.7673    0.0000 C   0  0  0  0  0  0  0  0  0  0  0  0
    6.3981   -0.7673    0.0000 C   0  0  0  0  0  0  0  0  0  0  0  0
    6.3981    0.2327    0.0000 C   0  0  0  0  0  0  0  0  0  0  0  0
    9.8622   -2.7673    0.0000 C   0  0  0  0  0  0  0  0  0  0  0  0
    5.5321    0.7327    0.0000 C   0  0  0  0  0  0  0  0  0  0  0  0
    5.5321    1.7327    0.0000 C   0  0  0  0  0  0  0  0  0  0  0  0
    9.8622   -3.7673    0.0000 C   0  0  0  0  0  0  0  0  0  0  0  0
   10.7282   -2.2673    0.0000 C   0  0  0  0  0  0  0  0  0  0  0  0
   10.7282   -4.2673    0.0000 C   0  0  0  0  0  0  0  0  0  0  0  0
   11.5942   -2.7673    0.0000 C   0  0  0  0  0  0  0  0  0  0  0  0
   11.5942   -3.7673    0.0000 C   0  0  0  0  0  0  0  0  0  0  0  0
    4.6660    3.2327    0.0000 C   0  0  0  0  0  0  0  0  0  0  0  0
    3.8000    3.7327    0.0000 C   0  0  0  0  0  0  0  0  0  0  0  0
    3.8000    4.7327    0.0000 C   0  0  0  0  0  0  0  0  0  0  0  0
    8.9962   -5.2673    0.0000 C   0  0  0  0  0  0  0  0  0  0  0  0
    2.9061    3.1980    0.0000 C   0  0  0  0  0  0  0  0  0  0  0  0
    4.6660    5.2327    0.0000 C   0  0  0  0  0  0  0  0  0  0  0  0
    5.5321    4.7327    0.0000 C   0  0  0  0  0  0  0  0  0  0  0  0
    2.9061    5.2673    0.0000 C   0  0  0  0  0  0  0  0  0  0  0  0
    2.0000    3.7118    0.0000 C   0  0  0  0  0  0  0  0  0  0  0  0
    2.0000    4.7535    0.0000 C   0  0  0  0  0  0  0  0  0  0  0  0
    8.5287   -0.2924    0.0000 H   0  0  0  0  0  0  0  0  0  0  0  0
    7.7316   -0.2924    0.0000 H   0  0  0  0  0  0  0  0  0  0  0  0
    6.6535   -2.1597    0.0000 H   0  0  0  0  0  0  0  0  0  0  0  0
    7.0521   -2.8499    0.0000 H   0  0  0  0  0  0  0  0  0  0  0  0
    9.6067   -1.3750    0.0000 H   0  0  0  0  0  0  0  0  0  0  0  0
    9.2082   -0.6847    0.0000 H   0  0  0  0  0  0  0  0  0  0  0  0
    7.7316   -3.2423    0.0000 H   0  0  0  0  0  0  0  0  0  0  0  0
    8.5287   -3.2423    0.0000 H   0  0  0  0  0  0  0  0  0  0  0  0
    5.7875   -0.6597    0.0000 H   0  0  0  0  0  0  0  0  0  0  0  0
    6.1860   -1.3499    0.0000 H   0  0  0  0  0  0  0  0  0  0  0  0
    7.0087    0.1250    0.0000 H   0  0  0  0  0  0  0  0  0  0  0  0
    6.6101    0.8153    0.0000 H   0  0  0  0  0  0  0  0  0  0  0  0
    4.9215    0.8403    0.0000 H   0  0  0  0  0  0  0  0  0  0  0  0
    5.3200    0.1501    0.0000 H   0  0  0  0  0  0  0  0  0  0  0  0
    6.1426    1.6250    0.0000 H   0  0  0  0  0  0  0  0  0  0  0  0
    5.7441    2.3153    0.0000 H   0  0  0  0  0  0  0  0  0  0  0  0
   10.7282   -1.6473    0.0000 H   0  0  0  0  0  0  0  0  0  0  0  0
    4.1291    1.9227    0.0000 H   0  0  0  0  0  0  0  0  0  0  0  0
   10.7282   -4.8873    0.0000 H   0  0  0  0  0  0  0  0  0  0  0  0
   12.1312   -2.4573    0.0000 H   0  0  0  0  0  0  0  0  0  0  0  0
   12.1312   -4.0773    0.0000 H   0  0  0  0  0  0  0  0  0  0  0  0
    8.3762   -5.2673    0.0000 H   0  0  0  0  0  0  0  0  0  0  0  0
    8.9962   -5.8873    0.0000 H   0  0  0  0  0  0  0  0  0  0  0  0
    9.6162   -5.2673    0.0000 H   0  0  0  0  0  0  0  0  0  0  0  0
    2.9132    2.5780    0.0000 H   0  0  0  0  0  0  0  0  0  0  0  0
    4.6660    5.8527    0.0000 H   0  0  0  0  0  0  0  0  0  0  0  0
    6.0690    5.0427    0.0000 H   0  0  0  0  0  0  0  0  0  0  0  0
    2.9132    5.8873    0.0000 H   0  0  0  0  0  0  0  0  0  0  0  0
    1.4643    3.3998    0.0000 H   0  0  0  0  0  0  0  0  0  0  0  0
    1.4643    5.0656    0.0000 H   0  0  0  0  0  0  0  0  0  0  0  0
  1 15  1  0  0  0  0
  1 23  1  0  0  0  0
  2  6  1  0  0  0  0
  2  7  1  0  0  0  0
  2 10  1  0  0  0  0
  3  8  1  0  0  0  0
  3  9  1  0  0  0  0
  3 12  1  0  0  0  0
  4 14  1  0  0  0  0
  4 20  1  0  0  0  0
  4 47  1  0  0  0  0
  5 20  2  0  0  0  0
  5 26  1  0  0  0  0
  6  8  1  0  0  0  0
  6 30  1  0  0  0  0
  6 31  1  0  0  0  0
  7  9  1  0  0  0  0
  7 32  1  0  0  0  0
  7 33  1  0  0  0  0
  8 34  1  0  0  0  0
  8 35  1  0  0  0  0
  9 36  1  0  0  0  0
  9 37  1  0  0  0  0
 10 11  1  0  0  0  0
 10 38  1  0  0  0  0
 10 39  1  0  0  0  0
 11 13  1  0  0  0  0
 11 40  1  0  0  0  0
 11 41  1  0  0  0  0
 12 15  1  0  0  0  0
 12 16  2  0  0  0  0
 13 14  1  0  0  0  0
 13 42  1  0  0  0  0
 13 43  1  0  0  0  0
 14 44  1  0  0  0  0
 14 45  1  0  0  0  0
 15 17  2  0  0  0  0
 16 18  1  0  0  0  0
 16 46  1  0  0  0  0
 17 19  1  0  0  0  0
 17 48  1  0  0  0  0
 18 19  2  0  0  0  0
 18 49  1  0  0  0  0
 19 50  1  0  0  0  0
 20 21  1  0  0  0  0
 21 22  1  0  0  0  0
 21 24  2  0  0  0  0
 22 25  1  0  0  0  0
 22 27  2  0  0  0  0
 23 51  1  0  0  0  0
 23 52  1  0  0  0  0
 23 53  1  0  0  0  0
 24 28  1  0  0  0  0
 24 54  1  0  0  0  0
 25 26  2  0  0  0  0
 25 55  1  0  0  0  0
 26 56  1  0  0  0  0
 27 29  1  0  0  0  0
 27 57  1  0  0  0  0
 28 29  2  0  0  0  0
 28 58  1  0  0  0  0
 29 59  1  0  0  0  0
M  END
> <PUBCHEM_COMPOUND_CID>
49865668

> <PUBCHEM_COMPOUND_CANONICALIZED>
1

> <PUBCHEM_CACTVS_COMPLEXITY>
468

> <PUBCHEM_CACTVS_HBOND_ACCEPTOR>
5

> <PUBCHEM_CACTVS_HBOND_DONOR>
1

> <PUBCHEM_CACTVS_ROTATABLE_BOND>
8

> <PUBCHEM_CACTVS_SUBSKEYS>
AAADceB7oAAAAAAAAAAAAAAAAAAAAAAAAAA8eIEAAAAAAACx9AAAHgAQAAAADAzBmgY/9tPIFACgAjZnZACCiCkxIiAJ2KA/bJiOZuLEuZuVMChs0BPY6CeQwIAOgAAAAAAQEAAAAAAAACAgAAAAAAAAAA==

> <PUBCHEM_IUPAC_OPENEYE_NAME>
N-[4-[4-(2-methoxyphenyl)piperazin-1-yl]butyl]isoquinolin-1-amine

> <PUBCHEM_IUPAC_CAS_NAME>
N-[4-[4-(2-methoxyphenyl)-1-piperazinyl]butyl]-1-isoquinolinamine

> <PUBCHEM_IUPAC_NAME_MARKUP>
<I>N</I>-[4-[4-(2-methoxyphenyl)piperazin-1-yl]butyl]isoquinolin-1-amine

> <PUBCHEM_IUPAC_NAME>
N-[4-[4-(2-methoxyphenyl)piperazin-1-yl]butyl]isoquinolin-1-amine

> <PUBCHEM_IUPAC_SYSTEMATIC_NAME>
N-[4-[4-(2-methoxyphenyl)piperazin-1-yl]butyl]isoquinolin-1-amine

> <PUBCHEM_IUPAC_TRADITIONAL_NAME>
1-isoquinolyl-[4-[4-(2-methoxyphenyl)piperazino]butyl]amine

> <PUBCHEM_IUPAC_INCHI>
InChI=1S/C24H30N4O/c1-29-23-11-5-4-10-22(23)28-18-16-27(17-19-28)15-7-6-13-25-24-21-9-3-2-8-20(21)12-14-26-24/h2-5,8-12,14H,6-7,13,15-19H2,1H3,(H,25,26)

> <PUBCHEM_IUPAC_INCHIKEY>
GVOWTPVTYQMHDU-UHFFFAOYSA-N

> <PUBCHEM_XLOGP3_AA>
4.7

> <PUBCHEM_EXACT_MASS>
390.24196159

> <PUBCHEM_MOLECULAR_FORMULA>
C24H30N4O

> <PUBCHEM_MOLECULAR_WEIGHT>
390.5

> <PUBCHEM_OPENEYE_CAN_SMILES>
COC1=CC=CC=C1N2CCN(CC2)CCCCNC3=NC=CC4=CC=CC=C43

> <PUBCHEM_OPENEYE_ISO_SMILES>
COC1=CC=CC=C1N2CCN(CC2)CCCCNC3=NC=CC4=CC=CC=C43

> <PUBCHEM_CACTVS_TPSA>
40.6

> <PUBCHEM_MONOISOTOPIC_WEIGHT>
390.24196159

> <PUBCHEM_TOTAL_CHARGE>
0

> <PUBCHEM_HEAVY_ATOM_COUNT>
29

> <PUBCHEM_ATOM_DEF_STEREO_COUNT>
0

> <PUBCHEM_ATOM_UDEF_STEREO_COUNT>
0

> <PUBCHEM_BOND_DEF_STEREO_COUNT>
0

> <PUBCHEM_BOND_UDEF_STEREO_COUNT>
0

> <PUBCHEM_ISOTOPIC_ATOM_COUNT>
0

> <PUBCHEM_COMPONENT_COUNT>
1

> <PUBCHEM_CACTVS_TAUTO_COUNT>
-1

> <PUBCHEM_COORDINATE_TYPE>
1
5
255

> <PUBCHEM_BONDANNOTATIONS>
12  15  8
12  16  8
15  17  8
16  18  8
17  19  8
18  19  8
20  21  8
21  22  8
21  24  8
22  25  8
22  27  8
24  28  8
25  26  8
27  29  8
28  29  8
5  20  8
5  26  8

$$$$
