25212276
  -OEChem-09292322232D

 82 87  0     1  0  0  0  0  0999 V2000
    8.8795   -2.2179    0.0000 O   0  0  0  0  0  0  0  0  0  0  0  0
    6.3099    1.5764    0.0000 N   0  0  3  0  0  0  0  0  0  0  0  0
    9.7761   -5.5640    0.0000 N   0  0  0  0  0  0  0  0  0  0  0  0
    5.4133    4.9225    0.0000 C   0  0  0  0  0  0  0  0  0  0  0  0
    5.6721    5.8884    0.0000 C   0  0  0  0  0  0  0  0  0  0  0  0
    4.4355    6.7370    0.0000 C   0  0  0  0  0  0  0  0  0  0  0  0
    5.3015    7.2370    0.0000 C   0  0  0  0  0  0  0  0  0  0  0  0
    6.8122    4.4137    0.0000 C   0  0  0  0  0  0  0  0  0  0  0  0
    4.0406    4.3305    0.0000 C   0  0  0  0  0  0  0  0  0  0  0  0
    5.1545    3.9566    0.0000 C   0  0  0  0  0  0  0  0  0  0  0  0
    7.0711    5.3796    0.0000 C   0  0  0  0  0  0  0  0  0  0  0  0
    3.6986    5.2702    0.0000 C   0  0  0  0  0  0  0  0  0  0  0  0
    5.8616    3.2494    0.0000 C   0  0  0  0  0  0  0  0  0  0  0  0
    7.5373    3.6658    0.0000 C   0  0  0  0  0  0  0  0  0  0  0  0
    3.3834    3.5223    0.0000 C   0  0  0  0  0  0  0  0  0  0  0  0
    8.0729    5.6647    0.0000 C   0  0  0  0  0  0  0  0  0  0  0  0
    2.6757    5.4668    0.0000 C   0  0  0  0  0  0  0  0  0  0  0  0
    5.6028    2.2835    0.0000 C   0  0  0  0  0  0  0  0  0  0  0  0
    8.5455    3.9277    0.0000 C   0  0  0  0  0  0  0  0  0  0  0  0
    2.3563    3.6953    0.0000 C   0  0  0  0  0  0  0  0  0  0  0  0
    8.8151    4.9338    0.0000 C   0  0  0  0  0  0  0  0  0  0  0  0
    2.0000    4.6741    0.0000 C   0  0  0  0  0  0  0  0  0  0  0  0
    6.0511    0.6105    0.0000 C   0  0  0  0  0  0  0  0  0  0  0  0
    7.2758    1.8352    0.0000 C   0  0  0  0  0  0  0  0  0  0  0  0
    6.7582   -0.0966    0.0000 C   0  0  0  0  0  0  0  0  0  0  0  0
    9.5172   -6.5299    0.0000 C   0  0  0  0  0  0  0  0  0  0  0  0
   10.7420   -5.3052    0.0000 C   0  0  0  0  0  0  0  0  0  0  0  0
   10.2243   -7.2370    0.0000 C   0  0  0  0  0  0  0  0  0  0  0  0
   11.4491   -6.0123    0.0000 C   0  0  0  0  0  0  0  0  0  0  0  0
   11.1903   -6.9782    0.0000 C   0  0  0  0  0  0  0  0  0  0  0  0
    9.0689   -4.8569    0.0000 C   0  0  0  0  0  0  0  0  0  0  0  0
    9.3278   -3.8910    0.0000 C   0  0  0  0  0  0  0  0  0  0  0  0
    7.7241    0.1622    0.0000 C   0  0  0  0  0  0  0  0  0  0  0  0
    6.4993   -1.0626    0.0000 C   0  0  0  0  0  0  0  0  0  0  0  0
    8.6207   -3.1839    0.0000 C   0  0  0  0  0  0  0  0  0  0  0  0
    8.4312   -0.5449    0.0000 C   0  0  0  0  0  0  0  0  0  0  0  0
    7.2064   -1.7697    0.0000 C   0  0  0  0  0  0  0  0  0  0  0  0
    8.1724   -1.5108    0.0000 C   0  0  0  0  0  0  0  0  0  0  0  0
    6.1278    6.3088    0.0000 H   0  0  0  0  0  0  0  0  0  0  0  0
    4.1308    7.2770    0.0000 H   0  0  0  0  0  0  0  0  0  0  0  0
    3.8926    6.4376    0.0000 H   0  0  0  0  0  0  0  0  0  0  0  0
    5.8832    7.4516    0.0000 H   0  0  0  0  0  0  0  0  0  0  0  0
    5.0383    7.7984    0.0000 H   0  0  0  0  0  0  0  0  0  0  0  0
    4.5926    4.2186    0.0000 H   0  0  0  0  0  0  0  0  0  0  0  0
    4.7989    3.4487    0.0000 H   0  0  0  0  0  0  0  0  0  0  0  0
    6.4235    2.9874    0.0000 H   0  0  0  0  0  0  0  0  0  0  0  0
    6.2172    3.7573    0.0000 H   0  0  0  0  0  0  0  0  0  0  0  0
    7.3700    3.0689    0.0000 H   0  0  0  0  0  0  0  0  0  0  0  0
    3.6022    2.9422    0.0000 H   0  0  0  0  0  0  0  0  0  0  0  0
    8.2264    6.2654    0.0000 H   0  0  0  0  0  0  0  0  0  0  0  0
    2.4704    6.0518    0.0000 H   0  0  0  0  0  0  0  0  0  0  0  0
    5.0409    2.5455    0.0000 H   0  0  0  0  0  0  0  0  0  0  0  0
    5.2472    1.7756    0.0000 H   0  0  0  0  0  0  0  0  0  0  0  0
    8.9822    3.4876    0.0000 H   0  0  0  0  0  0  0  0  0  0  0  0
    1.9596    3.2188    0.0000 H   0  0  0  0  0  0  0  0  0  0  0  0
    9.4134    5.0966    0.0000 H   0  0  0  0  0  0  0  0  0  0  0  0
    1.3898    4.7841    0.0000 H   0  0  0  0  0  0  0  0  0  0  0  0
    5.4892    0.8725    0.0000 H   0  0  0  0  0  0  0  0  0  0  0  0
    5.6954    0.1026    0.0000 H   0  0  0  0  0  0  0  0  0  0  0  0
    7.4363    1.2364    0.0000 H   0  0  0  0  0  0  0  0  0  0  0  0
    7.8747    1.9957    0.0000 H   0  0  0  0  0  0  0  0  0  0  0  0
    7.1153    2.4341    0.0000 H   0  0  0  0  0  0  0  0  0  0  0  0
    8.9553   -6.2679    0.0000 H   0  0  0  0  0  0  0  0  0  0  0  0
    9.1616   -7.0378    0.0000 H   0  0  0  0  0  0  0  0  0  0  0  0
   11.2499   -4.9496    0.0000 H   0  0  0  0  0  0  0  0  0  0  0  0
   10.4800   -4.7433    0.0000 H   0  0  0  0  0  0  0  0  0  0  0  0
    9.7165   -7.5927    0.0000 H   0  0  0  0  0  0  0  0  0  0  0  0
   10.4864   -7.7990    0.0000 H   0  0  0  0  0  0  0  0  0  0  0  0
   12.0110   -6.2743    0.0000 H   0  0  0  0  0  0  0  0  0  0  0  0
   11.8047   -5.5044    0.0000 H   0  0  0  0  0  0  0  0  0  0  0  0
   11.2443   -7.5959    0.0000 H   0  0  0  0  0  0  0  0  0  0  0  0
   11.8079   -7.0323    0.0000 H   0  0  0  0  0  0  0  0  0  0  0  0
    8.5070   -4.5949    0.0000 H   0  0  0  0  0  0  0  0  0  0  0  0
    8.7133   -5.3648    0.0000 H   0  0  0  0  0  0  0  0  0  0  0  0
    9.8897   -4.1530    0.0000 H   0  0  0  0  0  0  0  0  0  0  0  0
    9.6834   -3.3831    0.0000 H   0  0  0  0  0  0  0  0  0  0  0  0
    7.8846    0.7611    0.0000 H   0  0  0  0  0  0  0  0  0  0  0  0
    5.9005   -1.2230    0.0000 H   0  0  0  0  0  0  0  0  0  0  0  0
    8.0588   -2.9218    0.0000 H   0  0  0  0  0  0  0  0  0  0  0  0
    8.2650   -3.6917    0.0000 H   0  0  0  0  0  0  0  0  0  0  0  0
    9.0301   -0.3844    0.0000 H   0  0  0  0  0  0  0  0  0  0  0  0
    7.0460   -2.3685    0.0000 H   0  0  0  0  0  0  0  0  0  0  0  0
  1 35  1  0  0  0  0
  1 38  1  0  0  0  0
  2 18  1  0  0  0  0
  2 23  1  0  0  0  0
  2 24  1  0  0  0  0
  3 26  1  0  0  0  0
  3 27  1  0  0  0  0
  3 31  1  0  0  0  0
  4  6  1  0  0  0  0
  4  8  1  0  0  0  0
  4  9  1  0  0  0  0
  4 10  1  0  0  0  0
  5  7  1  0  0  0  0
  5 11  1  0  0  0  0
  5 12  1  0  0  0  0
  5 39  1  0  0  0  0
  6  7  1  0  0  0  0
  6 40  1  0  0  0  0
  6 41  1  0  0  0  0
  7 42  1  0  0  0  0
  7 43  1  0  0  0  0
  8 11  1  0  0  0  0
  8 14  2  0  0  0  0
  9 12  1  0  0  0  0
  9 15  2  0  0  0  0
 10 13  1  0  0  0  0
 10 44  1  0  0  0  0
 10 45  1  0  0  0  0
 11 16  2  0  0  0  0
 12 17  2  0  0  0  0
 13 18  1  0  0  0  0
 13 46  1  0  0  0  0
 13 47  1  0  0  0  0
 14 19  1  0  0  0  0
 14 48  1  0  0  0  0
 15 20  1  0  0  0  0
 15 49  1  0  0  0  0
 16 21  1  0  0  0  0
 16 50  1  0  0  0  0
 17 22  1  0  0  0  0
 17 51  1  0  0  0  0
 18 52  1  0  0  0  0
 18 53  1  0  0  0  0
 19 21  2  0  0  0  0
 19 54  1  0  0  0  0
 20 22  2  0  0  0  0
 20 55  1  0  0  0  0
 21 56  1  0  0  0  0
 22 57  1  0  0  0  0
 23 25  1  0  0  0  0
 23 58  1  0  0  0  0
 23 59  1  0  0  0  0
 24 60  1  0  0  0  0
 24 61  1  0  0  0  0
 24 62  1  0  0  0  0
 25 33  2  0  0  0  0
 25 34  1  0  0  0  0
 26 28  1  0  0  0  0
 26 63  1  0  0  0  0
 26 64  1  0  0  0  0
 27 29  1  0  0  0  0
 27 65  1  0  0  0  0
 27 66  1  0  0  0  0
 28 30  1  0  0  0  0
 28 67  1  0  0  0  0
 28 68  1  0  0  0  0
 29 30  1  0  0  0  0
 29 69  1  0  0  0  0
 29 70  1  0  0  0  0
 30 71  1  0  0  0  0
 30 72  1  0  0  0  0
 31 32  1  0  0  0  0
 31 73  1  0  0  0  0
 31 74  1  0  0  0  0
 32 35  1  0  0  0  0
 32 75  1  0  0  0  0
 32 76  1  0  0  0  0
 33 36  1  0  0  0  0
 33 77  1  0  0  0  0
 34 37  2  0  0  0  0
 34 78  1  0  0  0  0
 35 79  1  0  0  0  0
 35 80  1  0  0  0  0
 36 38  2  0  0  0  0
 36 81  1  0  0  0  0
 37 38  1  0  0  0  0
 37 82  1  0  0  0  0
M  END
> <PUBCHEM_COMPOUND_CID>
25212276

> <PUBCHEM_COMPOUND_CANONICALIZED>
1

> <PUBCHEM_CACTVS_COMPLEXITY>
687

> <PUBCHEM_CACTVS_HBOND_ACCEPTOR>
3

> <PUBCHEM_CACTVS_HBOND_DONOR>
0

> <PUBCHEM_CACTVS_ROTATABLE_BOND>
11

> <PUBCHEM_CACTVS_SUBSKEYS>
AAADcfB/IAAAAAAAAAAAAAAAAAAAAAAAAAA8YMGDAAAAAADBUAAAHgAAAAAADwThmAYyBoMABACAAiBCAACCCAAgIAAIiAAODIgMJiKEsRuGOCjmwBGIqAeQ0MIPoAAAAAAQAADAAAQAACAAAAAAAAAAAA==

> <PUBCHEM_IUPAC_OPENEYE_NAME>
N-methyl-N-[[4-[3-(1-piperidyl)propoxy]phenyl]methyl]-3-(1-tetracyclo[6.6.2.02,7.09,14]hexadeca-2,4,6,9,11,13-hexaenyl)propan-1-amine

> <PUBCHEM_IUPAC_CAS_NAME>
N-methyl-N-[[4-[3-(1-piperidinyl)propoxy]phenyl]methyl]-3-(1-tetracyclo[6.6.2.02,7.09,14]hexadeca-2,4,6,9,11,13-hexaenyl)-1-propanamine

> <PUBCHEM_IUPAC_NAME_MARKUP>
<I>N</I>-methyl-<I>N</I>-[[4-(3-piperidin-1-ylpropoxy)phenyl]methyl]-3-(1-tetracyclo[6.6.2.0<SUP>2,7</SUP>.0<SUP>9,14</SUP>]hexadeca-2,4,6,9,11,13-hexaenyl)propan-1-amine

> <PUBCHEM_IUPAC_NAME>
N-methyl-N-[[4-(3-piperidin-1-ylpropoxy)phenyl]methyl]-3-(1-tetracyclo[6.6.2.02,7.09,14]hexadeca-2,4,6,9,11,13-hexaenyl)propan-1-amine

> <PUBCHEM_IUPAC_SYSTEMATIC_NAME>
N-methyl-N-[[4-(3-piperidin-1-ylpropoxy)phenyl]methyl]-3-(1-tetracyclo[6.6.2.02,7.09,14]hexadeca-2,4,6,9,11,13-hexaenyl)propan-1-amine

> <PUBCHEM_IUPAC_TRADITIONAL_NAME>
methyl-[4-(3-piperidinopropoxy)benzyl]-[3-(1-tetracyclo[6.6.2.02,7.09,14]hexadeca-2,4,6,9,11,13-hexaenyl)propyl]amine

> <PUBCHEM_IUPAC_INCHI>
InChI=1S/C35H44N2O/c1-36(27-28-15-17-29(18-16-28)38-26-10-25-37-23-7-2-8-24-37)22-9-20-35-21-19-30(31-11-3-5-13-33(31)35)32-12-4-6-14-34(32)35/h3-6,11-18,30H,2,7-10,19-27H2,1H3

> <PUBCHEM_IUPAC_INCHIKEY>
AQQFXOLTZFTABW-UHFFFAOYSA-N

> <PUBCHEM_XLOGP3_AA>
7.8

> <PUBCHEM_EXACT_MASS>
508.345364031

> <PUBCHEM_MOLECULAR_FORMULA>
C35H44N2O

> <PUBCHEM_MOLECULAR_WEIGHT>
508.7

> <PUBCHEM_OPENEYE_CAN_SMILES>
CN(CCCC12CCC(C3=CC=CC=C31)C4=CC=CC=C24)CC5=CC=C(C=C5)OCCCN6CCCCC6

> <PUBCHEM_OPENEYE_ISO_SMILES>
CN(CCCC12CCC(C3=CC=CC=C31)C4=CC=CC=C24)CC5=CC=C(C=C5)OCCCN6CCCCC6

> <PUBCHEM_CACTVS_TPSA>
15.7

> <PUBCHEM_MONOISOTOPIC_WEIGHT>
508.345364031

> <PUBCHEM_TOTAL_CHARGE>
0

> <PUBCHEM_HEAVY_ATOM_COUNT>
38

> <PUBCHEM_ATOM_DEF_STEREO_COUNT>
0

> <PUBCHEM_ATOM_UDEF_STEREO_COUNT>
0

> <PUBCHEM_BOND_DEF_STEREO_COUNT>
0

> <PUBCHEM_BOND_UDEF_STEREO_COUNT>
0

> <PUBCHEM_ISOTOPIC_ATOM_COUNT>
0

> <PUBCHEM_COMPONENT_COUNT>
1

> <PUBCHEM_CACTVS_TAUTO_COUNT>
-1

> <PUBCHEM_COORDINATE_TYPE>
1
5
255

> <PUBCHEM_BONDANNOTATIONS>
11  16  8
12  17  8
14  19  8
15  20  8
16  21  8
17  22  8
19  21  8
20  22  8
25  33  8
25  34  8
33  36  8
34  37  8
36  38  8
37  38  8
8  11  8
8  14  8
9  12  8
9  15  8

$$$$
