10359942
  -OEChem-09292322502D

 40 43  0     1  0  0  0  0  0999 V2000
   11.2619   -2.2320    0.0000 Cl  0  0  0  0  0  0  0  0  0  0  0  0
    4.6783    2.0368    0.0000 S   0  0  0  0  0  0  0  0  0  0  0  0
    8.2619    1.2320    0.0000 N   0  0  3  0  0  0  0  0  0  0  0  0
    4.6783    0.4273    0.0000 N   0  0  0  0  0  0  0  0  0  0  0  0
    7.7619    2.0981    0.0000 C   0  0  0  0  0  0  0  0  0  0  0  0
    6.7619    2.0981    0.0000 C   0  0  0  0  0  0  0  0  0  0  0  0
    7.7619    0.3660    0.0000 C   0  0  0  0  0  0  0  0  0  0  0  0
    6.2619    1.2320    0.0000 C   0  0  0  0  0  0  0  0  0  0  0  0
    9.2619    1.2320    0.0000 C   0  0  0  0  0  0  0  0  0  0  0  0
    6.7619    0.3660    0.0000 C   0  0  0  0  0  0  0  0  0  0  0  0
    5.2619    1.2320    0.0000 C   0  0  0  0  0  0  0  0  0  0  0  0
    9.7619    0.3660    0.0000 C   0  0  0  0  0  0  0  0  0  0  0  0
    9.2619   -0.5000    0.0000 C   0  0  0  0  0  0  0  0  0  0  0  0
   10.7619    0.3660    0.0000 C   0  0  0  0  0  0  0  0  0  0  0  0
    3.7320    1.7320    0.0000 C   0  0  0  0  0  0  0  0  0  0  0  0
    3.7320    0.7321    0.0000 C   0  0  0  0  0  0  0  0  0  0  0  0
    9.7619   -1.3660    0.0000 C   0  0  0  0  0  0  0  0  0  0  0  0
   11.2619   -0.5000    0.0000 C   0  0  0  0  0  0  0  0  0  0  0  0
    2.8660    2.2320    0.0000 C   0  0  0  0  0  0  0  0  0  0  0  0
    2.8660    0.2321    0.0000 C   0  0  0  0  0  0  0  0  0  0  0  0
   10.7619   -1.3660    0.0000 C   0  0  0  0  0  0  0  0  0  0  0  0
    2.0000    1.7320    0.0000 C   0  0  0  0  0  0  0  0  0  0  0  0
    2.0000    0.7321    0.0000 C   0  0  0  0  0  0  0  0  0  0  0  0
    8.3445    2.3101    0.0000 H   0  0  0  0  0  0  0  0  0  0  0  0
    7.6542    2.7087    0.0000 H   0  0  0  0  0  0  0  0  0  0  0  0
    6.8695    2.7087    0.0000 H   0  0  0  0  0  0  0  0  0  0  0  0
    6.1793    2.3101    0.0000 H   0  0  0  0  0  0  0  0  0  0  0  0
    7.6542   -0.2446    0.0000 H   0  0  0  0  0  0  0  0  0  0  0  0
    8.3445    0.1540    0.0000 H   0  0  0  0  0  0  0  0  0  0  0  0
    9.8445    1.4441    0.0000 H   0  0  0  0  0  0  0  0  0  0  0  0
    9.1542    1.8426    0.0000 H   0  0  0  0  0  0  0  0  0  0  0  0
    6.4519   -0.1709    0.0000 H   0  0  0  0  0  0  0  0  0  0  0  0
    8.6419   -0.5000    0.0000 H   0  0  0  0  0  0  0  0  0  0  0  0
   11.0719    0.9030    0.0000 H   0  0  0  0  0  0  0  0  0  0  0  0
    9.4519   -1.9030    0.0000 H   0  0  0  0  0  0  0  0  0  0  0  0
   11.8819   -0.5000    0.0000 H   0  0  0  0  0  0  0  0  0  0  0  0
    2.8660    2.8521    0.0000 H   0  0  0  0  0  0  0  0  0  0  0  0
    2.8660   -0.3879    0.0000 H   0  0  0  0  0  0  0  0  0  0  0  0
    1.4631    2.0420    0.0000 H   0  0  0  0  0  0  0  0  0  0  0  0
    1.4631    0.4221    0.0000 H   0  0  0  0  0  0  0  0  0  0  0  0
  1 21  1  0  0  0  0
  2 11  1  0  0  0  0
  2 15  1  0  0  0  0
  3  5  1  0  0  0  0
  3  7  1  0  0  0  0
  3  9  1  0  0  0  0
  4 11  2  0  0  0  0
  4 16  1  0  0  0  0
  5  6  1  0  0  0  0
  5 24  1  0  0  0  0
  5 25  1  0  0  0  0
  6  8  1  0  0  0  0
  6 26  1  0  0  0  0
  6 27  1  0  0  0  0
  7 10  1  0  0  0  0
  7 28  1  0  0  0  0
  7 29  1  0  0  0  0
  8 10  2  0  0  0  0
  8 11  1  0  0  0  0
  9 12  1  0  0  0  0
  9 30  1  0  0  0  0
  9 31  1  0  0  0  0
 10 32  1  0  0  0  0
 12 13  2  0  0  0  0
 12 14  1  0  0  0  0
 13 17  1  0  0  0  0
 13 33  1  0  0  0  0
 14 18  2  0  0  0  0
 14 34  1  0  0  0  0
 15 16  1  0  0  0  0
 15 19  2  0  0  0  0
 16 20  2  0  0  0  0
 17 21  2  0  0  0  0
 17 35  1  0  0  0  0
 18 21  1  0  0  0  0
 18 36  1  0  0  0  0
 19 22  1  0  0  0  0
 19 37  1  0  0  0  0
 20 23  1  0  0  0  0
 20 38  1  0  0  0  0
 22 23  2  0  0  0  0
 22 39  1  0  0  0  0
 23 40  1  0  0  0  0
M  END
> <PUBCHEM_COMPOUND_CID>
10359942

> <PUBCHEM_COMPOUND_CANONICALIZED>
1

> <PUBCHEM_CACTVS_COMPLEXITY>
433

> <PUBCHEM_CACTVS_HBOND_ACCEPTOR>
3

> <PUBCHEM_CACTVS_HBOND_DONOR>
0

> <PUBCHEM_CACTVS_ROTATABLE_BOND>
3

> <PUBCHEM_CACTVS_SUBSKEYS>
AAADceB7AABEAAAAAAAAAAAAAAAAAWAAAAAwYIAAAAAAAFgB9AAAHAYAAAAADArBXiQwwbMIEAikAyRiRACD8KBhDzhImDw4ZpgIIKLhk5GEIAhggADoyAcQgAAOBAAAAAAAAQAIAAAAAAACAAAAAAAAAA==

> <PUBCHEM_IUPAC_OPENEYE_NAME>
2-[1-[(4-chlorophenyl)methyl]-3,6-dihydro-2H-pyridin-4-yl]-1,3-benzothiazole

> <PUBCHEM_IUPAC_CAS_NAME>
2-[1-[(4-chlorophenyl)methyl]-3,6-dihydro-2H-pyridin-4-yl]-1,3-benzothiazole

> <PUBCHEM_IUPAC_NAME_MARKUP>
2-[1-[(4-chlorophenyl)methyl]-3,6-dihydro-2<I>H</I>-pyridin-4-yl]-1,3-benzothiazole

> <PUBCHEM_IUPAC_NAME>
2-[1-[(4-chlorophenyl)methyl]-3,6-dihydro-2H-pyridin-4-yl]-1,3-benzothiazole

> <PUBCHEM_IUPAC_SYSTEMATIC_NAME>
2-[1-[(4-chlorophenyl)methyl]-3,6-dihydro-2H-pyridin-4-yl]-1,3-benzothiazole

> <PUBCHEM_IUPAC_TRADITIONAL_NAME>
2-[1-(4-chlorobenzyl)-3,6-dihydro-2H-pyridin-4-yl]-1,3-benzothiazole

> <PUBCHEM_IUPAC_INCHI>
InChI=1S/C19H17ClN2S/c20-16-7-5-14(6-8-16)13-22-11-9-15(10-12-22)19-21-17-3-1-2-4-18(17)23-19/h1-9H,10-13H2

> <PUBCHEM_IUPAC_INCHIKEY>
ASYJQHKPLFUJFY-UHFFFAOYSA-N

> <PUBCHEM_XLOGP3_AA>
4.7

> <PUBCHEM_EXACT_MASS>
340.0800974

> <PUBCHEM_MOLECULAR_FORMULA>
C19H17ClN2S

> <PUBCHEM_MOLECULAR_WEIGHT>
340.9

> <PUBCHEM_OPENEYE_CAN_SMILES>
C1CN(CC=C1C2=NC3=CC=CC=C3S2)CC4=CC=C(C=C4)Cl

> <PUBCHEM_OPENEYE_ISO_SMILES>
C1CN(CC=C1C2=NC3=CC=CC=C3S2)CC4=CC=C(C=C4)Cl

> <PUBCHEM_CACTVS_TPSA>
44.4

> <PUBCHEM_MONOISOTOPIC_WEIGHT>
340.0800974

> <PUBCHEM_TOTAL_CHARGE>
0

> <PUBCHEM_HEAVY_ATOM_COUNT>
23

> <PUBCHEM_ATOM_DEF_STEREO_COUNT>
0

> <PUBCHEM_ATOM_UDEF_STEREO_COUNT>
0

> <PUBCHEM_BOND_DEF_STEREO_COUNT>
0

> <PUBCHEM_BOND_UDEF_STEREO_COUNT>
0

> <PUBCHEM_ISOTOPIC_ATOM_COUNT>
0

> <PUBCHEM_COMPONENT_COUNT>
1

> <PUBCHEM_CACTVS_TAUTO_COUNT>
-1

> <PUBCHEM_COORDINATE_TYPE>
1
5
255

> <PUBCHEM_BONDANNOTATIONS>
12  13  8
12  14  8
13  17  8
14  18  8
15  16  8
15  19  8
16  20  8
17  21  8
18  21  8
19  22  8
2  11  8
2  15  8
20  23  8
22  23  8
4  11  8
4  16  8

$$$$
