24754540
  -OEChem-09292322262D

 71 74  0     1  0  0  0  0  0999 V2000
    2.0000   -0.4592    0.0000 O   0  0  0  0  0  0  0  0  0  0  0  0
    2.0000    1.5408    0.0000 O   0  0  0  0  0  0  0  0  0  0  0  0
    7.2622   -0.4833    0.0000 N   0  0  3  0  0  0  0  0  0  0  0  0
   11.5942    0.0000    0.0000 N   0  0  0  0  0  0  0  0  0  0  0  0
   13.3301    0.9933    0.0000 N   0  0  0  0  0  0  0  0  0  0  0  0
    6.3981    0.0200    0.0000 C   0  0  3  0  0  0  0  0  0  0  0  0
    6.3981    1.0617    0.0000 C   0  0  0  0  0  0  0  0  0  0  0  0
    5.4920   -0.4938    0.0000 C   0  0  0  0  0  0  0  0  0  0  0  0
    8.1301    0.0134    0.0000 C   0  0  0  0  0  0  0  0  0  0  0  0
    5.4920    1.5755    0.0000 C   0  0  0  0  0  0  0  0  0  0  0  0
    4.5981    0.0408    0.0000 C   0  0  0  0  0  0  0  0  0  0  0  0
    4.5981    1.0408    0.0000 C   0  0  0  0  0  0  0  0  0  0  0  0
    8.9942   -0.4900    0.0000 C   0  0  0  0  0  0  0  0  0  0  0  0
    7.2583   -1.4833    0.0000 C   0  0  0  0  0  0  0  0  0  0  0  0
    9.8622    0.0067    0.0000 C   0  0  0  0  0  0  0  0  0  0  0  0
   10.7263   -0.4967    0.0000 C   0  0  0  0  0  0  0  0  0  0  0  0
   12.4583   -0.5033    0.0000 C   0  0  0  0  0  0  0  0  0  0  0  0
   11.5981    1.0000    0.0000 C   0  0  0  0  0  0  0  0  0  0  0  0
   13.3262   -0.0067    0.0000 C   0  0  0  0  0  0  0  0  0  0  0  0
   12.4660    1.4966    0.0000 C   0  0  0  0  0  0  0  0  0  0  0  0
    8.1224   -1.9866    0.0000 C   0  0  0  0  0  0  0  0  0  0  0  0
    3.7320   -0.4592    0.0000 C   0  0  0  0  0  0  0  0  0  0  0  0
    3.7320    1.5408    0.0000 C   0  0  0  0  0  0  0  0  0  0  0  0
    2.8660    0.0408    0.0000 C   0  0  0  0  0  0  0  0  0  0  0  0
    2.8660    1.0408    0.0000 C   0  0  0  0  0  0  0  0  0  0  0  0
   14.1980    1.4900    0.0000 C   0  0  0  0  0  0  0  0  0  0  0  0
    8.1186   -2.9866    0.0000 C   0  0  0  0  0  0  0  0  0  0  0  0
   14.2019    2.4900    0.0000 C   0  0  0  0  0  0  0  0  0  0  0  0
   15.0621    0.9866    0.0000 C   0  0  0  0  0  0  0  0  0  0  0  0
   15.0698    2.9866    0.0000 C   0  0  0  0  0  0  0  0  0  0  0  0
   15.9301    1.4833    0.0000 C   0  0  0  0  0  0  0  0  0  0  0  0
   15.9339    2.4833    0.0000 C   0  0  0  0  0  0  0  0  0  0  0  0
    6.9356    0.3290    0.0000 H   0  0  0  0  0  0  0  0  0  0  0  0
    7.0089    0.9556    0.0000 H   0  0  0  0  0  0  0  0  0  0  0  0
    6.6071    1.6454    0.0000 H   0  0  0  0  0  0  0  0  0  0  0  0
    5.0874   -0.9636    0.0000 H   0  0  0  0  0  0  0  0  0  0  0  0
    5.8856   -0.9728    0.0000 H   0  0  0  0  0  0  0  0  0  0  0  0
    8.5305    0.4868    0.0000 H   0  0  0  0  0  0  0  0  0  0  0  0
    7.7334    0.4898    0.0000 H   0  0  0  0  0  0  0  0  0  0  0  0
    5.8856    2.0545    0.0000 H   0  0  0  0  0  0  0  0  0  0  0  0
    5.0874    2.0453    0.0000 H   0  0  0  0  0  0  0  0  0  0  0  0
    8.5939   -0.9634    0.0000 H   0  0  0  0  0  0  0  0  0  0  0  0
    9.3909   -0.9665    0.0000 H   0  0  0  0  0  0  0  0  0  0  0  0
    6.6482   -1.3733    0.0000 H   0  0  0  0  0  0  0  0  0  0  0  0
    7.0440   -2.0651    0.0000 H   0  0  0  0  0  0  0  0  0  0  0  0
   10.2625    0.4801    0.0000 H   0  0  0  0  0  0  0  0  0  0  0  0
    9.4655    0.4832    0.0000 H   0  0  0  0  0  0  0  0  0  0  0  0
   10.3259   -0.9701    0.0000 H   0  0  0  0  0  0  0  0  0  0  0  0
   11.1229   -0.9731    0.0000 H   0  0  0  0  0  0  0  0  0  0  0  0
   12.0579   -0.9767    0.0000 H   0  0  0  0  0  0  0  0  0  0  0  0
   12.8550   -0.9798    0.0000 H   0  0  0  0  0  0  0  0  0  0  0  0
   11.3882    1.5834    0.0000 H   0  0  0  0  0  0  0  0  0  0  0  0
   10.9871    0.8947    0.0000 H   0  0  0  0  0  0  0  0  0  0  0  0
   13.5360   -0.5901    0.0000 H   0  0  0  0  0  0  0  0  0  0  0  0
   13.9372    0.0986    0.0000 H   0  0  0  0  0  0  0  0  0  0  0  0
   12.8664    1.9701    0.0000 H   0  0  0  0  0  0  0  0  0  0  0  0
   12.0693    1.9731    0.0000 H   0  0  0  0  0  0  0  0  0  0  0  0
    8.7326   -2.0966    0.0000 H   0  0  0  0  0  0  0  0  0  0  0  0
    8.3367   -1.4048    0.0000 H   0  0  0  0  0  0  0  0  0  0  0  0
    3.7320   -1.0792    0.0000 H   0  0  0  0  0  0  0  0  0  0  0  0
    3.7320    2.1608    0.0000 H   0  0  0  0  0  0  0  0  0  0  0  0
    7.4986   -2.9842    0.0000 H   0  0  0  0  0  0  0  0  0  0  0  0
    8.1162   -3.6066    0.0000 H   0  0  0  0  0  0  0  0  0  0  0  0
    8.7386   -2.9890    0.0000 H   0  0  0  0  0  0  0  0  0  0  0  0
   13.6662    2.8020    0.0000 H   0  0  0  0  0  0  0  0  0  0  0  0
   15.0597    0.3666    0.0000 H   0  0  0  0  0  0  0  0  0  0  0  0
    2.0000   -1.0792    0.0000 H   0  0  0  0  0  0  0  0  0  0  0  0
    2.0000    2.1608    0.0000 H   0  0  0  0  0  0  0  0  0  0  0  0
   15.0722    3.6066    0.0000 H   0  0  0  0  0  0  0  0  0  0  0  0
   16.4658    1.1712    0.0000 H   0  0  0  0  0  0  0  0  0  0  0  0
   16.4721    2.7912    0.0000 H   0  0  0  0  0  0  0  0  0  0  0  0
  1 24  1  0  0  0  0
  1 67  1  0  0  0  0
  2 25  1  0  0  0  0
  2 68  1  0  0  0  0
  3  6  1  0  0  0  0
  3  9  1  0  0  0  0
  3 14  1  0  0  0  0
  4 16  1  0  0  0  0
  4 17  1  0  0  0  0
  4 18  1  0  0  0  0
  5 19  1  0  0  0  0
  5 20  1  0  0  0  0
  5 26  1  0  0  0  0
  6  7  1  0  0  0  0
  6  8  1  0  0  0  0
  6 33  1  0  0  0  0
  7 10  1  0  0  0  0
  7 34  1  0  0  0  0
  7 35  1  0  0  0  0
  8 11  1  0  0  0  0
  8 36  1  0  0  0  0
  8 37  1  0  0  0  0
  9 13  1  0  0  0  0
  9 38  1  0  0  0  0
  9 39  1  0  0  0  0
 10 12  1  0  0  0  0
 10 40  1  0  0  0  0
 10 41  1  0  0  0  0
 11 12  1  0  0  0  0
 11 22  2  0  0  0  0
 12 23  2  0  0  0  0
 13 15  1  0  0  0  0
 13 42  1  0  0  0  0
 13 43  1  0  0  0  0
 14 21  1  0  0  0  0
 14 44  1  0  0  0  0
 14 45  1  0  0  0  0
 15 16  1  0  0  0  0
 15 46  1  0  0  0  0
 15 47  1  0  0  0  0
 16 48  1  0  0  0  0
 16 49  1  0  0  0  0
 17 19  1  0  0  0  0
 17 50  1  0  0  0  0
 17 51  1  0  0  0  0
 18 20  1  0  0  0  0
 18 52  1  0  0  0  0
 18 53  1  0  0  0  0
 19 54  1  0  0  0  0
 19 55  1  0  0  0  0
 20 56  1  0  0  0  0
 20 57  1  0  0  0  0
 21 27  1  0  0  0  0
 21 58  1  0  0  0  0
 21 59  1  0  0  0  0
 22 24  1  0  0  0  0
 22 60  1  0  0  0  0
 23 25  1  0  0  0  0
 23 61  1  0  0  0  0
 24 25  2  0  0  0  0
 26 28  2  0  0  0  0
 26 29  1  0  0  0  0
 27 62  1  0  0  0  0
 27 63  1  0  0  0  0
 27 64  1  0  0  0  0
 28 30  1  0  0  0  0
 28 65  1  0  0  0  0
 29 31  2  0  0  0  0
 29 66  1  0  0  0  0
 30 32  2  0  0  0  0
 30 69  1  0  0  0  0
 31 32  1  0  0  0  0
 31 70  1  0  0  0  0
 32 71  1  0  0  0  0
M  END
> <PUBCHEM_COMPOUND_CID>
24754540

> <PUBCHEM_COMPOUND_CANONICALIZED>
1

> <PUBCHEM_CACTVS_COMPLEXITY>
533

> <PUBCHEM_CACTVS_HBOND_ACCEPTOR>
5

> <PUBCHEM_CACTVS_HBOND_DONOR>
2

> <PUBCHEM_CACTVS_ROTATABLE_BOND>
9

> <PUBCHEM_CACTVS_SUBSKEYS>
AAADcfB7MAAAAAAAAAAAAAAAAAAAAAAAAAA8YMEAAAAAAADBQAAAHgAACAAADCzBmAQyxoMAAgCAAiRCQACCAAAhIgAIiAAO7IgJZiLCkZOUcAlkwBHJ2AeQ0LMOoAABAAAQQABQAAKAACCAAAAAAAAAAA==

> <PUBCHEM_IUPAC_OPENEYE_NAME>
2-[4-(4-phenylpiperazin-1-yl)butyl-propyl-amino]tetralin-6,7-diol

> <PUBCHEM_IUPAC_CAS_NAME>
6-[4-(4-phenyl-1-piperazinyl)butyl-propylamino]-5,6,7,8-tetrahydronaphthalene-2,3-diol

> <PUBCHEM_IUPAC_NAME_MARKUP>
6-[4-(4-phenylpiperazin-1-yl)butyl-propylamino]-5,6,7,8-tetrahydronaphthalene-2,3-diol

> <PUBCHEM_IUPAC_NAME>
6-[4-(4-phenylpiperazin-1-yl)butyl-propylamino]-5,6,7,8-tetrahydronaphthalene-2,3-diol

> <PUBCHEM_IUPAC_SYSTEMATIC_NAME>
6-[4-(4-phenylpiperazin-1-yl)butyl-propyl-amino]-5,6,7,8-tetrahydronaphthalene-2,3-diol

> <PUBCHEM_IUPAC_TRADITIONAL_NAME>
2-[4-(4-phenylpiperazino)butyl-propyl-amino]tetralin-6,7-diol

> <PUBCHEM_IUPAC_INCHI>
InChI=1S/C27H39N3O2/c1-2-12-29(25-11-10-22-20-26(31)27(32)21-23(22)19-25)14-7-6-13-28-15-17-30(18-16-28)24-8-4-3-5-9-24/h3-5,8-9,20-21,25,31-32H,2,6-7,10-19H2,1H3

> <PUBCHEM_IUPAC_INCHIKEY>
BTNRAFHTPKZOBC-UHFFFAOYSA-N

> <PUBCHEM_XLOGP3_AA>
5.2

> <PUBCHEM_EXACT_MASS>
437.30422750

> <PUBCHEM_MOLECULAR_FORMULA>
C27H39N3O2

> <PUBCHEM_MOLECULAR_WEIGHT>
437.6

> <PUBCHEM_OPENEYE_CAN_SMILES>
CCCN(CCCCN1CCN(CC1)C2=CC=CC=C2)C3CCC4=CC(=C(C=C4C3)O)O

> <PUBCHEM_OPENEYE_ISO_SMILES>
CCCN(CCCCN1CCN(CC1)C2=CC=CC=C2)C3CCC4=CC(=C(C=C4C3)O)O

> <PUBCHEM_CACTVS_TPSA>
50.2

> <PUBCHEM_MONOISOTOPIC_WEIGHT>
437.30422750

> <PUBCHEM_TOTAL_CHARGE>
0

> <PUBCHEM_HEAVY_ATOM_COUNT>
32

> <PUBCHEM_ATOM_DEF_STEREO_COUNT>
0

> <PUBCHEM_ATOM_UDEF_STEREO_COUNT>
1

> <PUBCHEM_BOND_DEF_STEREO_COUNT>
0

> <PUBCHEM_BOND_UDEF_STEREO_COUNT>
0

> <PUBCHEM_ISOTOPIC_ATOM_COUNT>
0

> <PUBCHEM_COMPONENT_COUNT>
1

> <PUBCHEM_CACTVS_TAUTO_COUNT>
-1

> <PUBCHEM_COORDINATE_TYPE>
1
5
255

> <PUBCHEM_BONDANNOTATIONS>
11  12  8
11  22  8
12  23  8
22  24  8
23  25  8
24  25  8
26  28  8
26  29  8
28  30  8
29  31  8
6  3  3
30  32  8
31  32  8

$$$$
