10064981
  -OEChem-09292322512D

 42 45  0     0  0  0  0  0  0999 V2000
    9.7619   -3.7281    0.0000 Cl  0  0  0  0  0  0  0  0  0  0  0  0
    6.7619    1.4680    0.0000 N   0  0  0  0  0  0  0  0  0  0  0  0
    7.7619   -0.2640    0.0000 N   0  0  0  0  0  0  0  0  0  0  0  0
    4.6783    3.1388    0.0000 N   0  0  0  0  0  0  0  0  0  0  0  0
    4.6783    1.5293    0.0000 N   0  0  0  0  0  0  0  0  0  0  0  0
    7.7619    1.4680    0.0000 C   0  0  0  0  0  0  0  0  0  0  0  0
    6.2619    0.6020    0.0000 C   0  0  0  0  0  0  0  0  0  0  0  0
    8.2619    0.6020    0.0000 C   0  0  0  0  0  0  0  0  0  0  0  0
    6.7619   -0.2640    0.0000 C   0  0  0  0  0  0  0  0  0  0  0  0
    6.2619    2.3341    0.0000 C   0  0  0  0  0  0  0  0  0  0  0  0
    8.2619   -1.1300    0.0000 C   0  0  0  0  0  0  0  0  0  0  0  0
    5.2619    2.3341    0.0000 C   0  0  0  0  0  0  0  0  0  0  0  0
    9.2619   -1.1300    0.0000 C   0  0  0  0  0  0  0  0  0  0  0  0
    7.7619   -1.9961    0.0000 C   0  0  0  0  0  0  0  0  0  0  0  0
    3.7320    2.8341    0.0000 C   0  0  0  0  0  0  0  0  0  0  0  0
    3.7320    1.8341    0.0000 C   0  0  0  0  0  0  0  0  0  0  0  0
    9.7619   -1.9961    0.0000 C   0  0  0  0  0  0  0  0  0  0  0  0
    8.2619   -2.8621    0.0000 C   0  0  0  0  0  0  0  0  0  0  0  0
    2.8660    3.3341    0.0000 C   0  0  0  0  0  0  0  0  0  0  0  0
    2.8660    1.3341    0.0000 C   0  0  0  0  0  0  0  0  0  0  0  0
    9.2619   -2.8621    0.0000 C   0  0  0  0  0  0  0  0  0  0  0  0
    2.0000    2.8341    0.0000 C   0  0  0  0  0  0  0  0  0  0  0  0
    2.0000    1.8341    0.0000 C   0  0  0  0  0  0  0  0  0  0  0  0
    8.3445    1.6801    0.0000 H   0  0  0  0  0  0  0  0  0  0  0  0
    7.6542    2.0786    0.0000 H   0  0  0  0  0  0  0  0  0  0  0  0
    5.7869    1.0005    0.0000 H   0  0  0  0  0  0  0  0  0  0  0  0
    5.7869    0.2035    0.0000 H   0  0  0  0  0  0  0  0  0  0  0  0
    8.7368    0.2035    0.0000 H   0  0  0  0  0  0  0  0  0  0  0  0
    8.7368    1.0005    0.0000 H   0  0  0  0  0  0  0  0  0  0  0  0
    6.1793   -0.4761    0.0000 H   0  0  0  0  0  0  0  0  0  0  0  0
    6.8695   -0.8746    0.0000 H   0  0  0  0  0  0  0  0  0  0  0  0
    6.8445    2.5461    0.0000 H   0  0  0  0  0  0  0  0  0  0  0  0
    6.1542    2.9446    0.0000 H   0  0  0  0  0  0  0  0  0  0  0  0
    4.8709    3.7281    0.0000 H   0  0  0  0  0  0  0  0  0  0  0  0
    9.5719   -0.5931    0.0000 H   0  0  0  0  0  0  0  0  0  0  0  0
    7.1419   -1.9961    0.0000 H   0  0  0  0  0  0  0  0  0  0  0  0
   10.3819   -1.9961    0.0000 H   0  0  0  0  0  0  0  0  0  0  0  0
    7.9519   -3.3990    0.0000 H   0  0  0  0  0  0  0  0  0  0  0  0
    2.8660    3.9541    0.0000 H   0  0  0  0  0  0  0  0  0  0  0  0
    2.8660    0.7141    0.0000 H   0  0  0  0  0  0  0  0  0  0  0  0
    1.4631    3.1441    0.0000 H   0  0  0  0  0  0  0  0  0  0  0  0
    1.4631    1.5241    0.0000 H   0  0  0  0  0  0  0  0  0  0  0  0
  1 21  1  0  0  0  0
  2  6  1  0  0  0  0
  2  7  1  0  0  0  0
  2 10  1  0  0  0  0
  3  8  1  0  0  0  0
  3  9  1  0  0  0  0
  3 11  1  0  0  0  0
  4 12  1  0  0  0  0
  4 15  1  0  0  0  0
  4 34  1  0  0  0  0
  5 12  2  0  0  0  0
  5 16  1  0  0  0  0
  6  8  1  0  0  0  0
  6 24  1  0  0  0  0
  6 25  1  0  0  0  0
  7  9  1  0  0  0  0
  7 26  1  0  0  0  0
  7 27  1  0  0  0  0
  8 28  1  0  0  0  0
  8 29  1  0  0  0  0
  9 30  1  0  0  0  0
  9 31  1  0  0  0  0
 10 12  1  0  0  0  0
 10 32  1  0  0  0  0
 10 33  1  0  0  0  0
 11 13  2  0  0  0  0
 11 14  1  0  0  0  0
 13 17  1  0  0  0  0
 13 35  1  0  0  0  0
 14 18  2  0  0  0  0
 14 36  1  0  0  0  0
 15 16  1  0  0  0  0
 15 19  2  0  0  0  0
 16 20  2  0  0  0  0
 17 21  2  0  0  0  0
 17 37  1  0  0  0  0
 18 21  1  0  0  0  0
 18 38  1  0  0  0  0
 19 22  1  0  0  0  0
 19 39  1  0  0  0  0
 20 23  1  0  0  0  0
 20 40  1  0  0  0  0
 22 23  2  0  0  0  0
 22 41  1  0  0  0  0
 23 42  1  0  0  0  0
M  END
> <PUBCHEM_COMPOUND_CID>
10064981

> <PUBCHEM_COMPOUND_CANONICALIZED>
1

> <PUBCHEM_CACTVS_COMPLEXITY>
377

> <PUBCHEM_CACTVS_HBOND_ACCEPTOR>
3

> <PUBCHEM_CACTVS_HBOND_DONOR>
1

> <PUBCHEM_CACTVS_ROTATABLE_BOND>
3

> <PUBCHEM_CACTVS_SUBSKEYS>
AAADceB7gAAEAAAAAAAAAAAAAAAAAWAAAAA8YIAAAAAAAFgB9AAAHAIQAAAACArBFyQx0LfJkACgASZiZACCgC2hF6AJmSA4dpiIaKLBm5GUIAhokALIyCcQAAAAAABAAAAAACAAAIAAAAAAQAAAAAAAAA==

> <PUBCHEM_IUPAC_OPENEYE_NAME>
2-[[4-(4-chlorophenyl)piperazin-1-yl]methyl]-1H-benzimidazole

> <PUBCHEM_IUPAC_CAS_NAME>
2-[[4-(4-chlorophenyl)-1-piperazinyl]methyl]-1H-benzimidazole

> <PUBCHEM_IUPAC_NAME_MARKUP>
2-[[4-(4-chlorophenyl)piperazin-1-yl]methyl]-1<I>H</I>-benzimidazole

> <PUBCHEM_IUPAC_NAME>
2-[[4-(4-chlorophenyl)piperazin-1-yl]methyl]-1H-benzimidazole

> <PUBCHEM_IUPAC_SYSTEMATIC_NAME>
2-[[4-(4-chlorophenyl)piperazin-1-yl]methyl]-1H-benzimidazole

> <PUBCHEM_IUPAC_TRADITIONAL_NAME>
2-[[4-(4-chlorophenyl)piperazino]methyl]-1H-benzimidazole

> <PUBCHEM_IUPAC_INCHI>
InChI=1S/C18H19ClN4/c19-14-5-7-15(8-6-14)23-11-9-22(10-12-23)13-18-20-16-3-1-2-4-17(16)21-18/h1-8H,9-13H2,(H,20,21)

> <PUBCHEM_IUPAC_INCHIKEY>
ZKGTVROZJFXGLA-UHFFFAOYSA-N

> <PUBCHEM_XLOGP3_AA>
3.6

> <PUBCHEM_EXACT_MASS>
326.1298243

> <PUBCHEM_MOLECULAR_FORMULA>
C18H19ClN4

> <PUBCHEM_MOLECULAR_WEIGHT>
326.8

> <PUBCHEM_OPENEYE_CAN_SMILES>
C1CN(CCN1CC2=NC3=CC=CC=C3N2)C4=CC=C(C=C4)Cl

> <PUBCHEM_OPENEYE_ISO_SMILES>
C1CN(CCN1CC2=NC3=CC=CC=C3N2)C4=CC=C(C=C4)Cl

> <PUBCHEM_CACTVS_TPSA>
35.2

> <PUBCHEM_MONOISOTOPIC_WEIGHT>
326.1298243

> <PUBCHEM_TOTAL_CHARGE>
0

> <PUBCHEM_HEAVY_ATOM_COUNT>
23

> <PUBCHEM_ATOM_DEF_STEREO_COUNT>
0

> <PUBCHEM_ATOM_UDEF_STEREO_COUNT>
0

> <PUBCHEM_BOND_DEF_STEREO_COUNT>
0

> <PUBCHEM_BOND_UDEF_STEREO_COUNT>
0

> <PUBCHEM_ISOTOPIC_ATOM_COUNT>
0

> <PUBCHEM_COMPONENT_COUNT>
1

> <PUBCHEM_CACTVS_TAUTO_COUNT>
-1

> <PUBCHEM_COORDINATE_TYPE>
1
5
255

> <PUBCHEM_BONDANNOTATIONS>
11  13  8
11  14  8
13  17  8
14  18  8
15  16  8
15  19  8
16  20  8
17  21  8
18  21  8
19  22  8
20  23  8
22  23  8
4  12  8
4  15  8
5  12  8
5  16  8

$$$$
