12050199
  -OEChem-09292322142D

 55 58  0     0  0  0  0  0  0999 V2000
    6.9453   -6.1190    0.0000 Br  0  0  0  0  0  0  0  0  0  0  0  0
    6.0223   -2.5313    0.0000 O   0  0  0  0  0  0  0  0  0  0  0  0
    3.4812   -4.1190    0.0000 O   0  0  0  0  0  0  0  0  0  0  0  0
    2.7688    2.5694    0.0000 N   0  0  0  0  0  0  0  0  0  0  0  0
    4.5322    0.1424    0.0000 N   0  0  0  0  0  0  0  0  0  0  0  0
    4.4042   -2.5313    0.0000 N   0  0  0  0  0  0  0  0  0  0  0  0
    3.9444    0.9514    0.0000 C   0  0  0  0  0  0  0  0  0  0  0  0
    4.3511    1.8649    0.0000 C   0  0  0  0  0  0  0  0  0  0  0  0
    2.9499    0.8468    0.0000 C   0  0  0  0  0  0  0  0  0  0  0  0
    3.7634    2.6739    0.0000 C   0  0  0  0  0  0  0  0  0  0  0  0
    2.3621    1.6559    0.0000 C   0  0  0  0  0  0  0  0  0  0  0  0
    2.1810    3.3784    0.0000 C   0  0  0  0  0  0  0  0  0  0  0  0
    4.1254   -0.7712    0.0000 C   0  0  0  0  0  0  0  0  0  0  0  0
    2.5878    4.2920    0.0000 C   0  0  0  0  0  0  0  0  0  0  0  0
    4.7132   -1.5802    0.0000 C   0  0  0  0  0  0  0  0  0  0  0  0
    2.0000    5.1010    0.0000 C   0  0  0  0  0  0  0  0  0  0  0  0
    3.5823    4.3965    0.0000 C   0  0  0  0  0  0  0  0  0  0  0  0
    5.7132   -1.5802    0.0000 C   0  0  0  0  0  0  0  0  0  0  0  0
    2.4067    6.0145    0.0000 C   0  0  0  0  0  0  0  0  0  0  0  0
    3.9890    5.3100    0.0000 C   0  0  0  0  0  0  0  0  0  0  0  0
    5.2132   -3.1190    0.0000 C   0  0  0  0  0  0  0  0  0  0  0  0
    3.4013    6.1190    0.0000 C   0  0  0  0  0  0  0  0  0  0  0  0
    5.2132   -4.1190    0.0000 C   0  0  0  0  0  0  0  0  0  0  0  0
    4.3472   -4.6190    0.0000 C   0  0  0  0  0  0  0  0  0  0  0  0
    6.0793   -4.6190    0.0000 C   0  0  0  0  0  0  0  0  0  0  0  0
    4.3472   -5.6190    0.0000 C   0  0  0  0  0  0  0  0  0  0  0  0
    6.0793   -5.6190    0.0000 C   0  0  0  0  0  0  0  0  0  0  0  0
    5.2132   -6.1190    0.0000 C   0  0  0  0  0  0  0  0  0  0  0  0
    2.6152   -4.6190    0.0000 C   0  0  0  0  0  0  0  0  0  0  0  0
    3.6922    0.3850    0.0000 H   0  0  0  0  0  0  0  0  0  0  0  0
    4.8651    1.5182    0.0000 H   0  0  0  0  0  0  0  0  0  0  0  0
    4.7818    2.3109    0.0000 H   0  0  0  0  0  0  0  0  0  0  0  0
    2.3926    0.5750    0.0000 H   0  0  0  0  0  0  0  0  0  0  0  0
    3.1208    0.2509    0.0000 H   0  0  0  0  0  0  0  0  0  0  0  0
    4.3206    2.9457    0.0000 H   0  0  0  0  0  0  0  0  0  0  0  0
    3.5925    3.2699    0.0000 H   0  0  0  0  0  0  0  0  0  0  0  0
    1.8481    2.0026    0.0000 H   0  0  0  0  0  0  0  0  0  0  0  0
    1.9314    1.2099    0.0000 H   0  0  0  0  0  0  0  0  0  0  0  0
    5.1488    0.2072    0.0000 H   0  0  0  0  0  0  0  0  0  0  0  0
    1.6670    3.7251    0.0000 H   0  0  0  0  0  0  0  0  0  0  0  0
    1.7504    2.9324    0.0000 H   0  0  0  0  0  0  0  0  0  0  0  0
    3.6114   -0.4245    0.0000 H   0  0  0  0  0  0  0  0  0  0  0  0
    3.6948   -1.2172    0.0000 H   0  0  0  0  0  0  0  0  0  0  0  0
    1.3834    5.0362    0.0000 H   0  0  0  0  0  0  0  0  0  0  0  0
    3.9467    3.8949    0.0000 H   0  0  0  0  0  0  0  0  0  0  0  0
    6.0777   -1.0786    0.0000 H   0  0  0  0  0  0  0  0  0  0  0  0
    2.0423    6.5161    0.0000 H   0  0  0  0  0  0  0  0  0  0  0  0
    4.6056    5.3748    0.0000 H   0  0  0  0  0  0  0  0  0  0  0  0
    3.6534    6.6854    0.0000 H   0  0  0  0  0  0  0  0  0  0  0  0
    6.6162   -4.3090    0.0000 H   0  0  0  0  0  0  0  0  0  0  0  0
    3.8103   -5.9290    0.0000 H   0  0  0  0  0  0  0  0  0  0  0  0
    5.2132   -6.7390    0.0000 H   0  0  0  0  0  0  0  0  0  0  0  0
    2.3052   -4.0821    0.0000 H   0  0  0  0  0  0  0  0  0  0  0  0
    2.0782   -4.9290    0.0000 H   0  0  0  0  0  0  0  0  0  0  0  0
    2.9252   -5.1560    0.0000 H   0  0  0  0  0  0  0  0  0  0  0  0
  1 27  1  0  0  0  0
  2 18  1  0  0  0  0
  2 21  1  0  0  0  0
  3 24  1  0  0  0  0
  3 29  1  0  0  0  0
  4 10  1  0  0  0  0
  4 11  1  0  0  0  0
  4 12  1  0  0  0  0
  5  7  1  0  0  0  0
  5 13  1  0  0  0  0
  5 39  1  0  0  0  0
  6 15  1  0  0  0  0
  6 21  2  0  0  0  0
  7  8  1  0  0  0  0
  7  9  1  0  0  0  0
  7 30  1  0  0  0  0
  8 10  1  0  0  0  0
  8 31  1  0  0  0  0
  8 32  1  0  0  0  0
  9 11  1  0  0  0  0
  9 33  1  0  0  0  0
  9 34  1  0  0  0  0
 10 35  1  0  0  0  0
 10 36  1  0  0  0  0
 11 37  1  0  0  0  0
 11 38  1  0  0  0  0
 12 14  1  0  0  0  0
 12 40  1  0  0  0  0
 12 41  1  0  0  0  0
 13 15  1  0  0  0  0
 13 42  1  0  0  0  0
 13 43  1  0  0  0  0
 14 16  2  0  0  0  0
 14 17  1  0  0  0  0
 15 18  2  0  0  0  0
 16 19  1  0  0  0  0
 16 44  1  0  0  0  0
 17 20  2  0  0  0  0
 17 45  1  0  0  0  0
 18 46  1  0  0  0  0
 19 22  2  0  0  0  0
 19 47  1  0  0  0  0
 20 22  1  0  0  0  0
 20 48  1  0  0  0  0
 21 23  1  0  0  0  0
 22 49  1  0  0  0  0
 23 24  2  0  0  0  0
 23 25  1  0  0  0  0
 24 26  1  0  0  0  0
 25 27  2  0  0  0  0
 25 50  1  0  0  0  0
 26 28  2  0  0  0  0
 26 51  1  0  0  0  0
 27 28  1  0  0  0  0
 28 52  1  0  0  0  0
 29 53  1  0  0  0  0
 29 54  1  0  0  0  0
 29 55  1  0  0  0  0
M  END
> <PUBCHEM_COMPOUND_CID>
12050199

> <PUBCHEM_COMPOUND_CANONICALIZED>
1

> <PUBCHEM_CACTVS_COMPLEXITY>
483

> <PUBCHEM_CACTVS_HBOND_ACCEPTOR>
5

> <PUBCHEM_CACTVS_HBOND_DONOR>
1

> <PUBCHEM_CACTVS_ROTATABLE_BOND>
7

> <PUBCHEM_CACTVS_SUBSKEYS>
AAADceB7MAAAEAAAAAAAAAAAAAAAAWAAAAA8YIAAAAAAAAAB0AAAHgBQAAABrCzhngYyhpPIFECoAy1y1ASCiCAvYiQIiKG/LPgOZ76E9TufOWjn9BGYq5eYyCCOABAAEAAIAAAAIAAgABAAAAAAAAAAAA==

> <PUBCHEM_IUPAC_OPENEYE_NAME>
1-benzyl-N-[[2-(5-bromo-2-methoxy-phenyl)oxazol-4-yl]methyl]piperidin-4-amine

> <PUBCHEM_IUPAC_CAS_NAME>
N-[[2-(5-bromo-2-methoxyphenyl)-4-oxazolyl]methyl]-1-(phenylmethyl)-4-piperidinamine

> <PUBCHEM_IUPAC_NAME_MARKUP>
1-benzyl-<I>N</I>-[[2-(5-bromo-2-methoxyphenyl)-1,3-oxazol-4-yl]methyl]piperidin-4-amine

> <PUBCHEM_IUPAC_NAME>
1-benzyl-N-[[2-(5-bromo-2-methoxyphenyl)-1,3-oxazol-4-yl]methyl]piperidin-4-amine

> <PUBCHEM_IUPAC_SYSTEMATIC_NAME>
N-[[2-(5-bromanyl-2-methoxy-phenyl)-1,3-oxazol-4-yl]methyl]-1-(phenylmethyl)piperidin-4-amine

> <PUBCHEM_IUPAC_TRADITIONAL_NAME>
(1-benzyl-4-piperidyl)-[[2-(5-bromo-2-methoxy-phenyl)oxazol-4-yl]methyl]amine

> <PUBCHEM_IUPAC_INCHI>
InChI=1S/C23H26BrN3O2/c1-28-22-8-7-18(24)13-21(22)23-26-20(16-29-23)14-25-19-9-11-27(12-10-19)15-17-5-3-2-4-6-17/h2-8,13,16,19,25H,9-12,14-15H2,1H3

> <PUBCHEM_IUPAC_INCHIKEY>
MLHOXJCQVSTIML-UHFFFAOYSA-N

> <PUBCHEM_XLOGP3_AA>
4.2

> <PUBCHEM_EXACT_MASS>
455.12084

> <PUBCHEM_MOLECULAR_FORMULA>
C23H26BrN3O2

> <PUBCHEM_MOLECULAR_WEIGHT>
456.4

> <PUBCHEM_OPENEYE_CAN_SMILES>
COC1=C(C=C(C=C1)Br)C2=NC(=CO2)CNC3CCN(CC3)CC4=CC=CC=C4

> <PUBCHEM_OPENEYE_ISO_SMILES>
COC1=C(C=C(C=C1)Br)C2=NC(=CO2)CNC3CCN(CC3)CC4=CC=CC=C4

> <PUBCHEM_CACTVS_TPSA>
50.5

> <PUBCHEM_MONOISOTOPIC_WEIGHT>
455.12084

> <PUBCHEM_TOTAL_CHARGE>
0

> <PUBCHEM_HEAVY_ATOM_COUNT>
29

> <PUBCHEM_ATOM_DEF_STEREO_COUNT>
0

> <PUBCHEM_ATOM_UDEF_STEREO_COUNT>
0

> <PUBCHEM_BOND_DEF_STEREO_COUNT>
0

> <PUBCHEM_BOND_UDEF_STEREO_COUNT>
0

> <PUBCHEM_ISOTOPIC_ATOM_COUNT>
0

> <PUBCHEM_COMPONENT_COUNT>
1

> <PUBCHEM_CACTVS_TAUTO_COUNT>
-1

> <PUBCHEM_COORDINATE_TYPE>
1
5
255

> <PUBCHEM_BONDANNOTATIONS>
14  16  8
14  17  8
15  18  8
16  19  8
17  20  8
19  22  8
2  18  8
2  21  8
20  22  8
23  24  8
23  25  8
24  26  8
25  27  8
26  28  8
27  28  8
6  15  8
6  21  8

$$$$
