10912396
  -OEChem-09292321582D

 47 48  0     1  0  0  0  0  0999 V2000
    8.9387   -2.7123    0.0000 O   0  0  0  0  0  0  0  0  0  0  0  0
    4.5981    0.8323    0.0000 N   0  0  0  0  0  0  0  0  0  0  0  0
    8.0785   -2.2023    0.0000 N   0  0  0  0  0  0  0  0  0  0  0  0
    5.4641    0.3323    0.0000 C   0  0  3  0  0  0  0  0  0  0  0  0
    6.3301    0.8323    0.0000 C   0  0  0  0  0  0  0  0  0  0  0  0
    5.4641   -0.6677    0.0000 C   0  0  0  0  0  0  0  0  0  0  0  0
    7.1962    0.3323    0.0000 C   0  0  0  0  0  0  0  0  0  0  0  0
    6.3301   -1.1677    0.0000 C   0  0  0  0  0  0  0  0  0  0  0  0
    7.1962   -0.6677    0.0000 C   0  0  0  0  0  0  0  0  0  0  0  0
    8.0901    0.8669    0.0000 C   0  0  0  0  0  0  0  0  0  0  0  0
    8.9962    0.3531    0.0000 C   0  0  0  0  0  0  0  0  0  0  0  0
    8.0901   -1.2024    0.0000 C   0  0  0  0  0  0  0  0  0  0  0  0
    8.9962   -0.6885    0.0000 C   0  0  0  0  0  0  0  0  0  0  0  0
    3.7320    0.3323    0.0000 C   0  0  0  0  0  0  0  0  0  0  0  0
    4.5981    1.8323    0.0000 C   0  0  0  0  0  0  0  0  0  0  0  0
    2.8660    0.8323    0.0000 C   0  0  0  0  0  0  0  0  0  0  0  0
    3.7320    2.3323    0.0000 C   0  0  0  0  0  0  0  0  0  0  0  0
    2.0000    0.3323    0.0000 C   0  0  0  0  0  0  0  0  0  0  0  0
    3.7320    3.3323    0.0000 C   0  0  0  0  0  0  0  0  0  0  0  0
    5.4641    0.9523    0.0000 H   0  0  0  0  0  0  0  0  0  0  0  0
    6.7287    1.3072    0.0000 H   0  0  0  0  0  0  0  0  0  0  0  0
    5.9316    1.3072    0.0000 H   0  0  0  0  0  0  0  0  0  0  0  0
    4.8535   -0.5601    0.0000 H   0  0  0  0  0  0  0  0  0  0  0  0
    5.2520   -1.2503    0.0000 H   0  0  0  0  0  0  0  0  0  0  0  0
    5.9316   -1.6427    0.0000 H   0  0  0  0  0  0  0  0  0  0  0  0
    6.7287   -1.6427    0.0000 H   0  0  0  0  0  0  0  0  0  0  0  0
    8.4837    1.3460    0.0000 H   0  0  0  0  0  0  0  0  0  0  0  0
    7.6855    1.3367    0.0000 H   0  0  0  0  0  0  0  0  0  0  0  0
    9.6070    0.2470    0.0000 H   0  0  0  0  0  0  0  0  0  0  0  0
    9.2052    0.9368    0.0000 H   0  0  0  0  0  0  0  0  0  0  0  0
    9.2052   -1.2722    0.0000 H   0  0  0  0  0  0  0  0  0  0  0  0
    9.6070   -0.5825    0.0000 H   0  0  0  0  0  0  0  0  0  0  0  0
    3.3335   -0.1427    0.0000 H   0  0  0  0  0  0  0  0  0  0  0  0
    4.1306   -0.1427    0.0000 H   0  0  0  0  0  0  0  0  0  0  0  0
    5.2087    1.7246    0.0000 H   0  0  0  0  0  0  0  0  0  0  0  0
    4.8101    2.4149    0.0000 H   0  0  0  0  0  0  0  0  0  0  0  0
    3.2646    1.3072    0.0000 H   0  0  0  0  0  0  0  0  0  0  0  0
    2.4675    1.3072    0.0000 H   0  0  0  0  0  0  0  0  0  0  0  0
    3.1215    2.4399    0.0000 H   0  0  0  0  0  0  0  0  0  0  0  0
    3.5200    1.7497    0.0000 H   0  0  0  0  0  0  0  0  0  0  0  0
    1.6900    0.8692    0.0000 H   0  0  0  0  0  0  0  0  0  0  0  0
    1.4631    0.0223    0.0000 H   0  0  0  0  0  0  0  0  0  0  0  0
    2.3100   -0.2047    0.0000 H   0  0  0  0  0  0  0  0  0  0  0  0
    4.3520    3.3323    0.0000 H   0  0  0  0  0  0  0  0  0  0  0  0
    3.7320    3.9523    0.0000 H   0  0  0  0  0  0  0  0  0  0  0  0
    3.1120    3.3323    0.0000 H   0  0  0  0  0  0  0  0  0  0  0  0
    8.9316   -3.3323    0.0000 H   0  0  0  0  0  0  0  0  0  0  0  0
  1  3  1  0  0  0  0
  1 47  1  0  0  0  0
  2  4  1  0  0  0  0
  2 14  1  0  0  0  0
  2 15  1  0  0  0  0
  3 12  2  0  0  0  0
  4  5  1  0  0  0  0
  4  6  1  0  0  0  0
  4 20  1  0  0  0  0
  5  7  1  0  0  0  0
  5 21  1  0  0  0  0
  5 22  1  0  0  0  0
  6  8  1  0  0  0  0
  6 23  1  0  0  0  0
  6 24  1  0  0  0  0
  7  9  2  0  0  0  0
  7 10  1  0  0  0  0
  8  9  1  0  0  0  0
  8 25  1  0  0  0  0
  8 26  1  0  0  0  0
  9 12  1  0  0  0  0
 10 11  1  0  0  0  0
 10 27  1  0  0  0  0
 10 28  1  0  0  0  0
 11 13  1  0  0  0  0
 11 29  1  0  0  0  0
 11 30  1  0  0  0  0
 12 13  1  0  0  0  0
 13 31  1  0  0  0  0
 13 32  1  0  0  0  0
 14 16  1  0  0  0  0
 14 33  1  0  0  0  0
 14 34  1  0  0  0  0
 15 17  1  0  0  0  0
 15 35  1  0  0  0  0
 15 36  1  0  0  0  0
 16 18  1  0  0  0  0
 16 37  1  0  0  0  0
 16 38  1  0  0  0  0
 17 19  1  0  0  0  0
 17 39  1  0  0  0  0
 17 40  1  0  0  0  0
 18 41  1  0  0  0  0
 18 42  1  0  0  0  0
 18 43  1  0  0  0  0
 19 44  1  0  0  0  0
 19 45  1  0  0  0  0
 19 46  1  0  0  0  0
M  END
> <PUBCHEM_COMPOUND_CID>
10912396

> <PUBCHEM_COMPOUND_CANONICALIZED>
1

> <PUBCHEM_CACTVS_COMPLEXITY>
354

> <PUBCHEM_CACTVS_HBOND_ACCEPTOR>
3

> <PUBCHEM_CACTVS_HBOND_DONOR>
1

> <PUBCHEM_CACTVS_ROTATABLE_BOND>
5

> <PUBCHEM_CACTVS_SUBSKEYS>
AAADceB7IAAAAAAAAAAAAAAAAAAAAAAAAAAgQAAAAAAAAADAAAAAHAAECAAADCjBAAQCAAMQAACgAwBgAAAAAAAgAAAACAA4ABgAAAIAgAAEAAAAgACIAAMQgIAAAAAAAAAAAAAAAAAAAAAAAAAAAAAAAA==

> <PUBCHEM_IUPAC_OPENEYE_NAME>
6-(dipropylamino)-3,4,5,6,7,8-hexahydro-2H-naphthalen-1-one oxime

> <PUBCHEM_IUPAC_CAS_NAME>
6-(dipropylamino)-3,4,5,6,7,8-hexahydro-2H-naphthalen-1-one oxime

> <PUBCHEM_IUPAC_NAME_MARKUP>
(<I>N</I><I>E</I>)-<I>N</I>-[6-(dipropylamino)-3,4,5,6,7,8-hexahydro-2<I>H</I>-naphthalen-1-ylidene]hydroxylamine

> <PUBCHEM_IUPAC_NAME>
(NE)-N-[6-(dipropylamino)-3,4,5,6,7,8-hexahydro-2H-naphthalen-1-ylidene]hydroxylamine

> <PUBCHEM_IUPAC_SYSTEMATIC_NAME>
(NE)-N-[6-(dipropylamino)-3,4,5,6,7,8-hexahydro-2H-naphthalen-1-ylidene]hydroxylamine

> <PUBCHEM_IUPAC_TRADITIONAL_NAME>
6-(dipropylamino)-3,4,5,6,7,8-hexahydro-2H-naphthalen-1-one oxime

> <PUBCHEM_IUPAC_INCHI>
InChI=1S/C16H28N2O/c1-3-10-18(11-4-2)14-8-9-15-13(12-14)6-5-7-16(15)17-19/h14,19H,3-12H2,1-2H3/b17-16+

> <PUBCHEM_IUPAC_INCHIKEY>
OKGHBHDLSXHOSY-WUKNDPDISA-N

> <PUBCHEM_XLOGP3_AA>
3.3

> <PUBCHEM_EXACT_MASS>
264.220163521

> <PUBCHEM_MOLECULAR_FORMULA>
C16H28N2O

> <PUBCHEM_MOLECULAR_WEIGHT>
264.41

> <PUBCHEM_OPENEYE_CAN_SMILES>
CCCN(CCC)C1CCC2=C(C1)CCCC2=NO

> <PUBCHEM_OPENEYE_ISO_SMILES>
CCCN(CCC)C1CCC\2=C(C1)CCC/C2=N\O

> <PUBCHEM_CACTVS_TPSA>
35.8

> <PUBCHEM_MONOISOTOPIC_WEIGHT>
264.220163521

> <PUBCHEM_TOTAL_CHARGE>
0

> <PUBCHEM_HEAVY_ATOM_COUNT>
19

> <PUBCHEM_ATOM_DEF_STEREO_COUNT>
0

> <PUBCHEM_ATOM_UDEF_STEREO_COUNT>
1

> <PUBCHEM_BOND_DEF_STEREO_COUNT>
1

> <PUBCHEM_BOND_UDEF_STEREO_COUNT>
0

> <PUBCHEM_ISOTOPIC_ATOM_COUNT>
0

> <PUBCHEM_COMPONENT_COUNT>
1

> <PUBCHEM_CACTVS_TAUTO_COUNT>
-1

> <PUBCHEM_COORDINATE_TYPE>
1
5
255

> <PUBCHEM_BONDANNOTATIONS>
4  2  3

$$$$
