164628041
  -OEChem-09292322432D

 63 67  0     1  0  0  0  0  0999 V2000
    7.1946    3.3080    0.0000 O   0  0  0  0  0  0  0  0  0  0  0  0
    9.8206    1.7733    0.0000 O   0  0  0  0  0  0  0  0  0  0  0  0
    9.8327    5.8426    0.0000 O   0  0  0  0  0  0  0  0  0  0  0  0
    3.7770   -2.8011    0.0000 O   0  0  0  0  0  0  0  0  0  0  0  0
    7.1946    1.2386    0.0000 N   0  0  3  0  0  0  0  0  0  0  0  0
    5.5089   -2.7811    0.0000 N   0  0  0  0  0  0  0  0  0  0  0  0
    8.0886    1.7733    0.0000 C   0  0  1  0  0  0  0  0  0  0  0  0
    8.0886    2.7733    0.0000 C   0  0  1  0  0  0  0  0  0  0  0  0
    6.2886    1.7525    0.0000 C   0  0  0  0  0  0  0  0  0  0  0  0
    8.9546    1.2733    0.0000 C   0  0  0  0  0  0  0  0  0  0  0  0
    7.2062    0.2387    0.0000 C   0  0  0  0  0  0  0  0  0  0  0  0
    8.9546    3.2733    0.0000 C   0  0  0  0  0  0  0  0  0  0  0  0
    6.2886    2.7941    0.0000 C   0  0  0  0  0  0  0  0  0  0  0  0
    6.3460   -0.2713    0.0000 C   0  0  0  0  0  0  0  0  0  0  0  0
    9.8206    2.7733    0.0000 C   0  0  0  0  0  0  0  0  0  0  0  0
    8.9385    4.3148    0.0000 C   0  0  0  0  0  0  0  0  0  0  0  0
    6.3576   -1.2712    0.0000 C   0  0  0  0  0  0  0  0  0  0  0  0
   10.7306    3.2802    0.0000 C   0  0  0  0  0  0  0  0  0  0  0  0
    9.8366    4.8426    0.0000 C   0  0  0  0  0  0  0  0  0  0  0  0
    5.4974   -1.7812    0.0000 C   0  0  0  0  0  0  0  0  0  0  0  0
   10.7386    4.3218    0.0000 C   0  0  0  0  0  0  0  0  0  0  0  0
    4.6488   -3.2911    0.0000 C   0  0  0  0  0  0  0  0  0  0  0  0
   10.6968    6.3459    0.0000 C   0  0  0  0  0  0  0  0  0  0  0  0
    4.6603   -4.2910    0.0000 C   0  0  0  0  0  0  0  0  0  0  0  0
    3.8001   -4.8010    0.0000 C   0  0  0  0  0  0  0  0  0  0  0  0
    5.5321   -4.7810    0.0000 C   0  0  0  0  0  0  0  0  0  0  0  0
    3.8117   -5.8009    0.0000 C   0  0  0  0  0  0  0  0  0  0  0  0
    2.9001   -4.2767    0.0000 C   0  0  0  0  0  0  0  0  0  0  0  0
    4.6834   -6.2909    0.0000 C   0  0  0  0  0  0  0  0  0  0  0  0
    5.5436   -5.7809    0.0000 C   0  0  0  0  0  0  0  0  0  0  0  0
    2.9240   -6.3459    0.0000 C   0  0  0  0  0  0  0  0  0  0  0  0
    2.0000   -4.8010    0.0000 C   0  0  0  0  0  0  0  0  0  0  0  0
    2.0120   -5.8426    0.0000 C   0  0  0  0  0  0  0  0  0  0  0  0
    8.0951    0.9233    0.0000 H   0  0  0  0  0  0  0  0  0  0  0  0
    8.0951    3.6233    0.0000 H   0  0  0  0  0  0  0  0  0  0  0  0
    5.6777    1.8586    0.0000 H   0  0  0  0  0  0  0  0  0  0  0  0
    6.0795    1.1688    0.0000 H   0  0  0  0  0  0  0  0  0  0  0  0
    8.5561    0.7984    0.0000 H   0  0  0  0  0  0  0  0  0  0  0  0
    9.3531    0.7984    0.0000 H   0  0  0  0  0  0  0  0  0  0  0  0
    7.4250   -0.3414    0.0000 H   0  0  0  0  0  0  0  0  0  0  0  0
    7.8155    0.3534    0.0000 H   0  0  0  0  0  0  0  0  0  0  0  0
    6.0795    3.3778    0.0000 H   0  0  0  0  0  0  0  0  0  0  0  0
    5.6777    2.6880    0.0000 H   0  0  0  0  0  0  0  0  0  0  0  0
    6.1272    0.3089    0.0000 H   0  0  0  0  0  0  0  0  0  0  0  0
    5.7367   -0.3860    0.0000 H   0  0  0  0  0  0  0  0  0  0  0  0
    8.3980    4.6186    0.0000 H   0  0  0  0  0  0  0  0  0  0  0  0
    6.5763   -1.8513    0.0000 H   0  0  0  0  0  0  0  0  0  0  0  0
    6.9669   -1.1565    0.0000 H   0  0  0  0  0  0  0  0  0  0  0  0
   11.2639    2.9640    0.0000 H   0  0  0  0  0  0  0  0  0  0  0  0
    5.2786   -1.2011    0.0000 H   0  0  0  0  0  0  0  0  0  0  0  0
    4.8881   -1.8959    0.0000 H   0  0  0  0  0  0  0  0  0  0  0  0
   11.2768    4.6297    0.0000 H   0  0  0  0  0  0  0  0  0  0  0  0
    6.0494   -3.0849    0.0000 H   0  0  0  0  0  0  0  0  0  0  0  0
   11.0089    5.8102    0.0000 H   0  0  0  0  0  0  0  0  0  0  0  0
   11.2325    6.6580    0.0000 H   0  0  0  0  0  0  0  0  0  0  0  0
   10.3847    6.8816    0.0000 H   0  0  0  0  0  0  0  0  0  0  0  0
    6.0654   -4.4648    0.0000 H   0  0  0  0  0  0  0  0  0  0  0  0
    2.9001   -3.6567    0.0000 H   0  0  0  0  0  0  0  0  0  0  0  0
    4.6906   -6.9108    0.0000 H   0  0  0  0  0  0  0  0  0  0  0  0
    6.0841   -6.0847    0.0000 H   0  0  0  0  0  0  0  0  0  0  0  0
    2.9383   -6.9657    0.0000 H   0  0  0  0  0  0  0  0  0  0  0  0
    1.4607   -4.4952    0.0000 H   0  0  0  0  0  0  0  0  0  0  0  0
    1.4800   -6.1608    0.0000 H   0  0  0  0  0  0  0  0  0  0  0  0
  1  8  1  0  0  0  0
  1 13  1  0  0  0  0
  2 10  1  0  0  0  0
  2 15  1  0  0  0  0
  3 19  1  0  0  0  0
  3 23  1  0  0  0  0
  4 22  2  0  0  0  0
  5  7  1  0  0  0  0
  5  9  1  0  0  0  0
  5 11  1  0  0  0  0
  6 20  1  0  0  0  0
  6 22  1  0  0  0  0
  6 53  1  0  0  0  0
  7  8  1  0  0  0  0
  7 10  1  0  0  0  0
  7 34  1  6  0  0  0
  8 12  1  0  0  0  0
  8 35  1  1  0  0  0
  9 13  1  0  0  0  0
  9 36  1  0  0  0  0
  9 37  1  0  0  0  0
 10 38  1  0  0  0  0
 10 39  1  0  0  0  0
 11 14  1  0  0  0  0
 11 40  1  0  0  0  0
 11 41  1  0  0  0  0
 12 15  2  0  0  0  0
 12 16  1  0  0  0  0
 13 42  1  0  0  0  0
 13 43  1  0  0  0  0
 14 17  1  0  0  0  0
 14 44  1  0  0  0  0
 14 45  1  0  0  0  0
 15 18  1  0  0  0  0
 16 19  2  0  0  0  0
 16 46  1  0  0  0  0
 17 20  1  0  0  0  0
 17 47  1  0  0  0  0
 17 48  1  0  0  0  0
 18 21  2  0  0  0  0
 18 49  1  0  0  0  0
 19 21  1  0  0  0  0
 20 50  1  0  0  0  0
 20 51  1  0  0  0  0
 21 52  1  0  0  0  0
 22 24  1  0  0  0  0
 23 54  1  0  0  0  0
 23 55  1  0  0  0  0
 23 56  1  0  0  0  0
 24 25  1  0  0  0  0
 24 26  2  0  0  0  0
 25 27  1  0  0  0  0
 25 28  2  0  0  0  0
 26 30  1  0  0  0  0
 26 57  1  0  0  0  0
 27 29  1  0  0  0  0
 27 31  2  0  0  0  0
 28 32  1  0  0  0  0
 28 58  1  0  0  0  0
 29 30  2  0  0  0  0
 29 59  1  0  0  0  0
 30 60  1  0  0  0  0
 31 33  1  0  0  0  0
 31 61  1  0  0  0  0
 32 33  2  0  0  0  0
 32 62  1  0  0  0  0
 33 63  1  0  0  0  0
M  END
> <PUBCHEM_COMPOUND_CID>
164628041

> <PUBCHEM_COMPOUND_CANONICALIZED>
1

> <PUBCHEM_CACTVS_COMPLEXITY>
646

> <PUBCHEM_CACTVS_HBOND_ACCEPTOR>
5

> <PUBCHEM_CACTVS_HBOND_DONOR>
1

> <PUBCHEM_CACTVS_ROTATABLE_BOND>
7

> <PUBCHEM_CACTVS_SUBSKEYS>
AAADceB7OAAAAAAAAAAAAAAAAAAAAAAAAAA8aMECAAAAAADxVAAAHgAQAAAADDzhmAYyBsPABACIAiFSEACCCAAkIAAIiIEODMgOJzKEtRuHOSjl1hGYqYf42POOgQADAAAYAAACAAYAADAAAAAAAAAAAA==

> <PUBCHEM_IUPAC_OPENEYE_NAME>
N-[4-[(4aR,10bR)-9-methoxy-3,4a,5,10b-tetrahydro-2H-chromeno[4,3-b][1,4]oxazin-4-yl]butyl]naphthalene-1-carboxamide

> <PUBCHEM_IUPAC_CAS_NAME>
N-[4-[(4aR,10bR)-9-methoxy-3,4a,5,10b-tetrahydro-2H-[1]benzopyrano[4,3-b][1,4]oxazin-4-yl]butyl]-1-naphthalenecarboxamide

> <PUBCHEM_IUPAC_NAME_MARKUP>
<I>N</I>-[4-[(4<I>a</I><I>R</I>,10<I>b</I><I>R</I>)-9-methoxy-3,4<I>a</I>,5,10<I>b</I>-tetrahydro-2<I>H</I>-chromeno[4,3-b][1,4]oxazin-4-yl]butyl]naphthalene-1-carboxamide

> <PUBCHEM_IUPAC_NAME>
N-[4-[(4aR,10bR)-9-methoxy-3,4a,5,10b-tetrahydro-2H-chromeno[4,3-b][1,4]oxazin-4-yl]butyl]naphthalene-1-carboxamide

> <PUBCHEM_IUPAC_SYSTEMATIC_NAME>
N-[4-[(4aR,10bR)-9-methoxy-3,4a,5,10b-tetrahydro-2H-chromeno[4,3-b][1,4]oxazin-4-yl]butyl]naphthalene-1-carboxamide

> <PUBCHEM_IUPAC_TRADITIONAL_NAME>
N-[4-[(4aR,10bR)-9-methoxy-3,4a,5,10b-tetrahydro-2H-chromeno[4,3-b][1,4]oxazin-4-yl]butyl]-1-naphthamide

> <PUBCHEM_IUPAC_INCHI>
InChI=1S/C27H30N2O4/c1-31-20-11-12-25-23(17-20)26-24(18-33-25)29(15-16-32-26)14-5-4-13-28-27(30)22-10-6-8-19-7-2-3-9-21(19)22/h2-3,6-12,17,24,26H,4-5,13-16,18H2,1H3,(H,28,30)/t24-,26-/m1/s1

> <PUBCHEM_IUPAC_INCHIKEY>
GISMRNMZGNYAEU-AOYPEHQESA-N

> <PUBCHEM_XLOGP3>
4.3

> <PUBCHEM_EXACT_MASS>
446.22055744

> <PUBCHEM_MOLECULAR_FORMULA>
C27H30N2O4

> <PUBCHEM_MOLECULAR_WEIGHT>
446.5

> <PUBCHEM_OPENEYE_CAN_SMILES>
COC1=CC2=C(C=C1)OCC3C2OCCN3CCCCNC(=O)C4=CC=CC5=CC=CC=C54

> <PUBCHEM_OPENEYE_ISO_SMILES>
COC1=CC2=C(C=C1)OC[C@@H]3[C@@H]2OCCN3CCCCNC(=O)C4=CC=CC5=CC=CC=C54

> <PUBCHEM_CACTVS_TPSA>
60

> <PUBCHEM_MONOISOTOPIC_WEIGHT>
446.22055744

> <PUBCHEM_TOTAL_CHARGE>
0

> <PUBCHEM_HEAVY_ATOM_COUNT>
33

> <PUBCHEM_ATOM_DEF_STEREO_COUNT>
2

> <PUBCHEM_ATOM_UDEF_STEREO_COUNT>
0

> <PUBCHEM_BOND_DEF_STEREO_COUNT>
0

> <PUBCHEM_BOND_UDEF_STEREO_COUNT>
0

> <PUBCHEM_ISOTOPIC_ATOM_COUNT>
0

> <PUBCHEM_COMPONENT_COUNT>
1

> <PUBCHEM_CACTVS_TAUTO_COUNT>
-1

> <PUBCHEM_COORDINATE_TYPE>
1
5
255

> <PUBCHEM_BONDANNOTATIONS>
12  15  8
12  16  8
15  18  8
16  19  8
18  21  8
19  21  8
24  25  8
24  26  8
25  27  8
25  28  8
26  30  8
27  29  8
27  31  8
28  32  8
29  30  8
31  33  8
32  33  8
7  34  6
8  35  5

$$$$
