56673674
  -OEChem-09292322042D

 61 63  0     1  0  0  0  0  0999 V2000
    2.8660    7.6550    0.0000 Cl  0  0  0  0  0  0  0  0  0  0  0  0
    7.1962    0.1550    0.0000 S   0  0  0  0  0  0  0  0  0  0  0  0
   11.6065   -4.5403    0.0000 S   0  0  0  0  0  0  0  0  0  0  0  0
    7.6962    1.0210    0.0000 O   0  0  0  0  0  0  0  0  0  0  0  0
    6.6962   -0.7110    0.0000 O   0  0  0  0  0  0  0  0  0  0  0  0
   10.6603   -2.8450    0.0000 O   0  0  0  0  0  0  0  0  0  0  0  0
    9.7942   -7.3450    0.0000 O   0  0  0  0  0  0  0  0  0  0  0  0
   13.1901   -5.3450    0.0000 O   0  0  0  0  0  0  0  0  0  0  0  0
    8.9282   -1.8450    0.0000 N   0  0  0  0  0  0  0  0  0  0  0  0
    5.4641    3.1550    0.0000 N   0  0  0  0  0  0  0  0  0  0  0  0
   11.6065   -6.1497    0.0000 N   0  0  0  0  0  0  0  0  0  0  0  0
    6.3301    0.6550    0.0000 C   0  0  0  0  0  0  0  0  0  0  0  0
    8.0622   -0.3450    0.0000 C   0  0  0  0  0  0  0  0  0  0  0  0
    6.3301    1.6550    0.0000 C   0  0  0  0  0  0  0  0  0  0  0  0
    8.0622   -1.3450    0.0000 C   0  0  0  0  0  0  0  0  0  0  0  0
    5.4641    2.1550    0.0000 C   0  0  0  0  0  0  0  0  0  0  0  0
    8.9282   -2.8450    0.0000 C   0  0  0  0  0  0  0  0  0  0  0  0
    9.7942   -3.3450    0.0000 C   0  0  1  0  0  0  0  0  0  0  0  0
    9.7942   -4.3450    0.0000 C   0  0  0  0  0  0  0  0  0  0  0  0
    4.5981    3.6550    0.0000 C   0  0  0  0  0  0  0  0  0  0  0  0
   10.6603   -4.8450    0.0000 C   0  0  0  0  0  0  0  0  0  0  0  0
    4.5981    4.6550    0.0000 C   0  0  0  0  0  0  0  0  0  0  0  0
   10.6603   -5.8450    0.0000 C   0  0  0  0  0  0  0  0  0  0  0  0
    8.9282   -4.8450    0.0000 C   0  0  0  0  0  0  0  0  0  0  0  0
    9.7942   -6.3450    0.0000 C   0  0  0  0  0  0  0  0  0  0  0  0
    8.9282   -5.8450    0.0000 C   0  0  0  0  0  0  0  0  0  0  0  0
    3.7320    5.1550    0.0000 C   0  0  0  0  0  0  0  0  0  0  0  0
   12.1901   -5.3450    0.0000 C   0  0  0  0  0  0  0  0  0  0  0  0
    3.7320    6.1550    0.0000 C   0  0  0  0  0  0  0  0  0  0  0  0
    2.8660    4.6550    0.0000 C   0  0  0  0  0  0  0  0  0  0  0  0
    2.8660    6.6550    0.0000 C   0  0  0  0  0  0  0  0  0  0  0  0
    2.0000    5.1550    0.0000 C   0  0  0  0  0  0  0  0  0  0  0  0
    2.0000    6.1550    0.0000 C   0  0  0  0  0  0  0  0  0  0  0  0
    5.7196    0.7627    0.0000 H   0  0  0  0  0  0  0  0  0  0  0  0
    6.1181    0.0724    0.0000 H   0  0  0  0  0  0  0  0  0  0  0  0
    8.6728   -0.4527    0.0000 H   0  0  0  0  0  0  0  0  0  0  0  0
    8.2742    0.2376    0.0000 H   0  0  0  0  0  0  0  0  0  0  0  0
    6.9407    1.5473    0.0000 H   0  0  0  0  0  0  0  0  0  0  0  0
    6.5422    2.2376    0.0000 H   0  0  0  0  0  0  0  0  0  0  0  0
    7.4516   -1.2373    0.0000 H   0  0  0  0  0  0  0  0  0  0  0  0
    7.8501   -1.9276    0.0000 H   0  0  0  0  0  0  0  0  0  0  0  0
    4.8535    2.2627    0.0000 H   0  0  0  0  0  0  0  0  0  0  0  0
    5.2520    1.5724    0.0000 H   0  0  0  0  0  0  0  0  0  0  0  0
    8.3176   -2.7373    0.0000 H   0  0  0  0  0  0  0  0  0  0  0  0
    8.7162   -3.4276    0.0000 H   0  0  0  0  0  0  0  0  0  0  0  0
    9.7942   -2.7250    0.0000 H   0  0  0  0  0  0  0  0  0  0  0  0
    9.4651   -1.5350    0.0000 H   0  0  0  0  0  0  0  0  0  0  0  0
    6.0010    3.4650    0.0000 H   0  0  0  0  0  0  0  0  0  0  0  0
    3.9875    3.7627    0.0000 H   0  0  0  0  0  0  0  0  0  0  0  0
    4.3860    3.0724    0.0000 H   0  0  0  0  0  0  0  0  0  0  0  0
    5.2087    4.5473    0.0000 H   0  0  0  0  0  0  0  0  0  0  0  0
    4.8101    5.2376    0.0000 H   0  0  0  0  0  0  0  0  0  0  0  0
    8.3913   -4.5350    0.0000 H   0  0  0  0  0  0  0  0  0  0  0  0
    8.3913   -6.1550    0.0000 H   0  0  0  0  0  0  0  0  0  0  0  0
   10.6603   -2.2250    0.0000 H   0  0  0  0  0  0  0  0  0  0  0  0
   11.7991   -6.7391    0.0000 H   0  0  0  0  0  0  0  0  0  0  0  0
    4.2690    6.4650    0.0000 H   0  0  0  0  0  0  0  0  0  0  0  0
    2.8660    4.0350    0.0000 H   0  0  0  0  0  0  0  0  0  0  0  0
    9.2573   -7.6550    0.0000 H   0  0  0  0  0  0  0  0  0  0  0  0
    1.4631    4.8450    0.0000 H   0  0  0  0  0  0  0  0  0  0  0  0
    1.4631    6.4650    0.0000 H   0  0  0  0  0  0  0  0  0  0  0  0
  1 31  1  0  0  0  0
  2  4  2  0  0  0  0
  2  5  2  0  0  0  0
  2 12  1  0  0  0  0
  2 13  1  0  0  0  0
  3 21  1  0  0  0  0
  3 28  1  0  0  0  0
 18  6  1  6  0  0  0
  6 55  1  0  0  0  0
  7 25  1  0  0  0  0
  7 59  1  0  0  0  0
  8 28  2  0  0  0  0
  9 15  1  0  0  0  0
  9 17  1  0  0  0  0
  9 47  1  0  0  0  0
 10 16  1  0  0  0  0
 10 20  1  0  0  0  0
 10 48  1  0  0  0  0
 11 23  1  0  0  0  0
 11 28  1  0  0  0  0
 11 56  1  0  0  0  0
 12 14  1  0  0  0  0
 12 34  1  0  0  0  0
 12 35  1  0  0  0  0
 13 15  1  0  0  0  0
 13 36  1  0  0  0  0
 13 37  1  0  0  0  0
 14 16  1  0  0  0  0
 14 38  1  0  0  0  0
 14 39  1  0  0  0  0
 15 40  1  0  0  0  0
 15 41  1  0  0  0  0
 16 42  1  0  0  0  0
 16 43  1  0  0  0  0
 17 18  1  0  0  0  0
 17 44  1  0  0  0  0
 17 45  1  0  0  0  0
 18 19  1  0  0  0  0
 18 46  1  0  0  0  0
 19 21  2  0  0  0  0
 19 24  1  0  0  0  0
 20 22  1  0  0  0  0
 20 49  1  0  0  0  0
 20 50  1  0  0  0  0
 21 23  1  0  0  0  0
 22 27  1  0  0  0  0
 22 51  1  0  0  0  0
 22 52  1  0  0  0  0
 23 25  2  0  0  0  0
 24 26  2  0  0  0  0
 24 53  1  0  0  0  0
 25 26  1  0  0  0  0
 26 54  1  0  0  0  0
 27 29  2  0  0  0  0
 27 30  1  0  0  0  0
 29 31  1  0  0  0  0
 29 57  1  0  0  0  0
 30 32  2  0  0  0  0
 30 58  1  0  0  0  0
 31 33  2  0  0  0  0
 32 33  1  0  0  0  0
 32 60  1  0  0  0  0
 33 61  1  0  0  0  0
M  END
> <PUBCHEM_COMPOUND_CID>
56673674

> <PUBCHEM_COMPOUND_CANONICALIZED>
1

> <PUBCHEM_CACTVS_COMPLEXITY>
723

> <PUBCHEM_CACTVS_HBOND_ACCEPTOR>
8

> <PUBCHEM_CACTVS_HBOND_DONOR>
5

> <PUBCHEM_CACTVS_ROTATABLE_BOND>
13

> <PUBCHEM_CACTVS_SUBSKEYS>
AAADceB7OABkAAAAAAAAAAAAAAAAAWAAAAAwYAAAAAAAAFgBQAAAHgYQCAAADB7l2Cawx4LAAgqIAiRCUHDCAABhLRAIiJQPTogKNiLzk5OEcAhk1BH42Aew4KQOIAAAZAAEEQBAAADIAAgiAAAAAAAAAA==

> <PUBCHEM_IUPAC_OPENEYE_NAME>
7-[(1R)-2-[2-[3-[2-(3-chlorophenyl)ethylamino]propylsulfonyl]ethylamino]-1-hydroxy-ethyl]-4-hydroxy-3H-1,3-benzothiazol-2-one

> <PUBCHEM_IUPAC_CAS_NAME>
7-[(1R)-2-[2-[3-[2-(3-chlorophenyl)ethylamino]propylsulfonyl]ethylamino]-1-hydroxyethyl]-4-hydroxy-3H-1,3-benzothiazol-2-one

> <PUBCHEM_IUPAC_NAME_MARKUP>
7-[(1<I>R</I>)-2-[2-[3-[2-(3-chlorophenyl)ethylamino]propylsulfonyl]ethylamino]-1-hydroxyethyl]-4-hydroxy-3<I>H</I>-1,3-benzothiazol-2-one

> <PUBCHEM_IUPAC_NAME>
7-[(1R)-2-[2-[3-[2-(3-chlorophenyl)ethylamino]propylsulfonyl]ethylamino]-1-hydroxyethyl]-4-hydroxy-3H-1,3-benzothiazol-2-one

> <PUBCHEM_IUPAC_SYSTEMATIC_NAME>
7-[(1R)-2-[2-[3-[2-(3-chlorophenyl)ethylamino]propylsulfonyl]ethylamino]-1-oxidanyl-ethyl]-4-oxidanyl-3H-1,3-benzothiazol-2-one

> <PUBCHEM_IUPAC_TRADITIONAL_NAME>
7-[(1R)-2-[2-[3-[2-(3-chlorophenyl)ethylamino]propylsulfonyl]ethylamino]-1-hydroxy-ethyl]-4-hydroxy-3H-1,3-benzothiazol-2-one

> <PUBCHEM_IUPAC_INCHI>
InChI=1S/C22H28ClN3O5S2/c23-16-4-1-3-15(13-16)7-9-24-8-2-11-33(30,31)12-10-25-14-19(28)17-5-6-18(27)20-21(17)32-22(29)26-20/h1,3-6,13,19,24-25,27-28H,2,7-12,14H2,(H,26,29)/t19-/m0/s1

> <PUBCHEM_IUPAC_INCHIKEY>
HMSZGAMZVAVPLW-IBGZPJMESA-N

> <PUBCHEM_XLOGP3_AA>
1.9

> <PUBCHEM_EXACT_MASS>
513.1158910

> <PUBCHEM_MOLECULAR_FORMULA>
C22H28ClN3O5S2

> <PUBCHEM_MOLECULAR_WEIGHT>
514.1

> <PUBCHEM_OPENEYE_CAN_SMILES>
C1=CC(=CC(=C1)Cl)CCNCCCS(=O)(=O)CCNCC(C2=C3C(=C(C=C2)O)NC(=O)S3)O

> <PUBCHEM_OPENEYE_ISO_SMILES>
C1=CC(=CC(=C1)Cl)CCNCCCS(=O)(=O)CCNC[C@@H](C2=C3C(=C(C=C2)O)NC(=O)S3)O

> <PUBCHEM_CACTVS_TPSA>
161

> <PUBCHEM_MONOISOTOPIC_WEIGHT>
513.1158910

> <PUBCHEM_TOTAL_CHARGE>
0

> <PUBCHEM_HEAVY_ATOM_COUNT>
33

> <PUBCHEM_ATOM_DEF_STEREO_COUNT>
1

> <PUBCHEM_ATOM_UDEF_STEREO_COUNT>
0

> <PUBCHEM_BOND_DEF_STEREO_COUNT>
0

> <PUBCHEM_BOND_UDEF_STEREO_COUNT>
0

> <PUBCHEM_ISOTOPIC_ATOM_COUNT>
0

> <PUBCHEM_COMPONENT_COUNT>
1

> <PUBCHEM_CACTVS_TAUTO_COUNT>
-1

> <PUBCHEM_COORDINATE_TYPE>
1
5
255

> <PUBCHEM_BONDANNOTATIONS>
11  23  8
11  28  8
19  21  8
19  24  8
21  23  8
23  25  8
24  26  8
25  26  8
27  29  8
27  30  8
29  31  8
3  21  8
3  28  8
30  32  8
31  33  8
32  33  8
18  6  6

$$$$
