127041564
  -OEChem-09292322362D

 64 66  0     1  0  0  0  0  0999 V2000
    4.4487   -1.0000    0.0000 S   0  0  0  0  0  0  0  0  0  0  0  0
   10.5109    0.5000    0.0000 O   0  0  0  0  0  0  0  0  0  0  0  0
    3.9487   -1.8660    0.0000 O   0  0  0  0  0  0  0  0  0  0  0  0
    4.9487   -0.1340    0.0000 O   0  0  0  0  0  0  0  0  0  0  0  0
    7.9128   -0.0000    0.0000 N   0  0  0  0  0  0  0  0  0  0  0  0
    5.3147   -1.5000    0.0000 N   0  0  3  0  0  0  0  0  0  0  0  0
    2.5000    0.7024    0.0000 N   0  0  0  0  0  0  0  0  0  0  0  0
    2.0000   -0.1636    0.0000 N   0  0  0  0  0  0  0  0  0  0  0  0
    6.1808   -1.0000    0.0000 C   0  0  0  0  0  0  0  0  0  0  0  0
    7.0468   -1.5000    0.0000 C   0  0  0  0  0  0  0  0  0  0  0  0
    6.1808    0.0000    0.0000 C   0  0  0  0  0  0  0  0  0  0  0  0
    7.9128   -1.0000    0.0000 C   0  0  0  0  0  0  0  0  0  0  0  0
    7.0468    0.5000    0.0000 C   0  0  0  0  0  0  0  0  0  0  0  0
    8.7788    0.5000    0.0000 C   0  0  0  0  0  0  0  0  0  0  0  0
    5.3147   -2.5000    0.0000 C   0  0  0  0  0  0  0  0  0  0  0  0
    9.6448   -0.0000    0.0000 C   0  0  0  0  0  0  0  0  0  0  0  0
    3.5827   -0.5000    0.0000 C   0  0  0  0  0  0  0  0  0  0  0  0
   12.2429    1.5000    0.0000 C   0  0  0  0  0  0  0  0  0  0  0  0
   12.2429    0.5000    0.0000 C   0  0  0  0  0  0  0  0  0  0  0  0
   11.3769   -0.0000    0.0000 C   0  0  0  0  0  0  0  0  0  0  0  0
    3.4782    0.4945    0.0000 C   0  0  0  0  0  0  0  0  0  0  0  0
    2.6691   -0.9067    0.0000 C   0  0  0  0  0  0  0  0  0  0  0  0
   12.2429    2.5000    0.0000 C   0  0  0  0  0  0  0  0  0  0  0  0
   13.2429    1.5000    0.0000 C   0  0  0  0  0  0  0  0  0  0  0  0
   11.2429    1.5000    0.0000 C   0  0  0  0  0  0  0  0  0  0  0  0
   13.1090   -0.0000    0.0000 C   0  0  0  0  0  0  0  0  0  0  0  0
   11.3769   -1.0000    0.0000 C   0  0  0  0  0  0  0  0  0  0  0  0
   13.1090   -1.0000    0.0000 C   0  0  0  0  0  0  0  0  0  0  0  0
   12.2429   -1.5000    0.0000 C   0  0  0  0  0  0  0  0  0  0  0  0
    2.0933    1.6160    0.0000 C   0  0  0  0  0  0  0  0  0  0  0  0
    6.1808   -1.6200    0.0000 H   0  0  0  0  0  0  0  0  0  0  0  0
    6.6482   -1.9750    0.0000 H   0  0  0  0  0  0  0  0  0  0  0  0
    7.4453   -1.9750    0.0000 H   0  0  0  0  0  0  0  0  0  0  0  0
    5.9687    0.5826    0.0000 H   0  0  0  0  0  0  0  0  0  0  0  0
    5.5702   -0.1077    0.0000 H   0  0  0  0  0  0  0  0  0  0  0  0
    8.1249   -1.5826    0.0000 H   0  0  0  0  0  0  0  0  0  0  0  0
    8.5234   -0.8923    0.0000 H   0  0  0  0  0  0  0  0  0  0  0  0
    7.4453    0.9749    0.0000 H   0  0  0  0  0  0  0  0  0  0  0  0
    6.6482    0.9749    0.0000 H   0  0  0  0  0  0  0  0  0  0  0  0
    9.1774    0.9749    0.0000 H   0  0  0  0  0  0  0  0  0  0  0  0
    8.3803    0.9749    0.0000 H   0  0  0  0  0  0  0  0  0  0  0  0
    4.6947   -2.5000    0.0000 H   0  0  0  0  0  0  0  0  0  0  0  0
    5.3147   -3.1200    0.0000 H   0  0  0  0  0  0  0  0  0  0  0  0
    5.9347   -2.5000    0.0000 H   0  0  0  0  0  0  0  0  0  0  0  0
    9.2463   -0.4749    0.0000 H   0  0  0  0  0  0  0  0  0  0  0  0
   10.0434   -0.4749    0.0000 H   0  0  0  0  0  0  0  0  0  0  0  0
    3.9389    0.9094    0.0000 H   0  0  0  0  0  0  0  0  0  0  0  0
    2.5402   -1.5132    0.0000 H   0  0  0  0  0  0  0  0  0  0  0  0
   12.8629    2.5000    0.0000 H   0  0  0  0  0  0  0  0  0  0  0  0
   12.2429    3.1200    0.0000 H   0  0  0  0  0  0  0  0  0  0  0  0
   11.6229    2.5000    0.0000 H   0  0  0  0  0  0  0  0  0  0  0  0
   13.2429    0.8800    0.0000 H   0  0  0  0  0  0  0  0  0  0  0  0
   13.8629    1.5000    0.0000 H   0  0  0  0  0  0  0  0  0  0  0  0
   13.2429    2.1200    0.0000 H   0  0  0  0  0  0  0  0  0  0  0  0
   11.2429    2.1200    0.0000 H   0  0  0  0  0  0  0  0  0  0  0  0
   10.6229    1.5000    0.0000 H   0  0  0  0  0  0  0  0  0  0  0  0
   11.2429    0.8800    0.0000 H   0  0  0  0  0  0  0  0  0  0  0  0
   13.6459    0.3100    0.0000 H   0  0  0  0  0  0  0  0  0  0  0  0
   10.8400   -1.3100    0.0000 H   0  0  0  0  0  0  0  0  0  0  0  0
   13.6459   -1.3100    0.0000 H   0  0  0  0  0  0  0  0  0  0  0  0
   12.2429   -2.1200    0.0000 H   0  0  0  0  0  0  0  0  0  0  0  0
    2.6597    1.8682    0.0000 H   0  0  0  0  0  0  0  0  0  0  0  0
    1.8411    2.1824    0.0000 H   0  0  0  0  0  0  0  0  0  0  0  0
    1.5269    1.3638    0.0000 H   0  0  0  0  0  0  0  0  0  0  0  0
  1  3  2  0  0  0  0
  1  4  2  0  0  0  0
  1  6  1  0  0  0  0
  1 17  1  0  0  0  0
  2 16  1  0  0  0  0
  2 20  1  0  0  0  0
  5 12  1  0  0  0  0
  5 13  1  0  0  0  0
  5 14  1  0  0  0  0
  6  9  1  0  0  0  0
  6 15  1  0  0  0  0
  7  8  1  0  0  0  0
  7 21  1  0  0  0  0
  7 30  1  0  0  0  0
  8 22  2  0  0  0  0
  9 10  1  0  0  0  0
  9 11  1  0  0  0  0
  9 31  1  0  0  0  0
 10 12  1  0  0  0  0
 10 32  1  0  0  0  0
 10 33  1  0  0  0  0
 11 13  1  0  0  0  0
 11 34  1  0  0  0  0
 11 35  1  0  0  0  0
 12 36  1  0  0  0  0
 12 37  1  0  0  0  0
 13 38  1  0  0  0  0
 13 39  1  0  0  0  0
 14 16  1  0  0  0  0
 14 40  1  0  0  0  0
 14 41  1  0  0  0  0
 15 42  1  0  0  0  0
 15 43  1  0  0  0  0
 15 44  1  0  0  0  0
 16 45  1  0  0  0  0
 16 46  1  0  0  0  0
 17 21  2  0  0  0  0
 17 22  1  0  0  0  0
 18 19  1  0  0  0  0
 18 23  1  0  0  0  0
 18 24  1  0  0  0  0
 18 25  1  0  0  0  0
 19 20  1  0  0  0  0
 19 26  2  0  0  0  0
 20 27  2  0  0  0  0
 21 47  1  0  0  0  0
 22 48  1  0  0  0  0
 23 49  1  0  0  0  0
 23 50  1  0  0  0  0
 23 51  1  0  0  0  0
 24 52  1  0  0  0  0
 24 53  1  0  0  0  0
 24 54  1  0  0  0  0
 25 55  1  0  0  0  0
 25 56  1  0  0  0  0
 25 57  1  0  0  0  0
 26 28  1  0  0  0  0
 26 58  1  0  0  0  0
 27 29  1  0  0  0  0
 27 59  1  0  0  0  0
 28 29  2  0  0  0  0
 28 60  1  0  0  0  0
 29 61  1  0  0  0  0
 30 62  1  0  0  0  0
 30 63  1  0  0  0  0
 30 64  1  0  0  0  0
M  END
> <PUBCHEM_COMPOUND_CID>
127041564

> <PUBCHEM_COMPOUND_CANONICALIZED>
1

> <PUBCHEM_CACTVS_COMPLEXITY>
638

> <PUBCHEM_CACTVS_HBOND_ACCEPTOR>
6

> <PUBCHEM_CACTVS_HBOND_DONOR>
0

> <PUBCHEM_CACTVS_ROTATABLE_BOND>
8

> <PUBCHEM_CACTVS_SUBSKEYS>
AAADcfB7sABAAAAAAAAAAAAAAAAAAWAAAAA8QAAAAAAAAAABwAAAHgQIQAAADizh2gY+h5MIBAKiAjBnRHDSDBAxoAAY2CwuTJgOJqLE8VqHvCikyBHYqAeQwOAPgAAAAAAIAAAAAAAAABAAAAAAAAAAAA==

> <PUBCHEM_IUPAC_OPENEYE_NAME>
N-[1-[2-(2-tert-butylphenoxy)ethyl]-4-piperidyl]-N,1-dimethyl-pyrazole-4-sulfonamide

> <PUBCHEM_IUPAC_CAS_NAME>
N-[1-[2-(2-tert-butylphenoxy)ethyl]-4-piperidinyl]-N,1-dimethyl-4-pyrazolesulfonamide

> <PUBCHEM_IUPAC_NAME_MARKUP>
<I>N</I>-[1-[2-(2-<I>tert</I>-butylphenoxy)ethyl]piperidin-4-yl]-<I>N</I>,1-dimethylpyrazole-4-sulfonamide

> <PUBCHEM_IUPAC_NAME>
N-[1-[2-(2-tert-butylphenoxy)ethyl]piperidin-4-yl]-N,1-dimethylpyrazole-4-sulfonamide

> <PUBCHEM_IUPAC_SYSTEMATIC_NAME>
N-[1-[2-(2-tert-butylphenoxy)ethyl]piperidin-4-yl]-N,1-dimethyl-pyrazole-4-sulfonamide

> <PUBCHEM_IUPAC_TRADITIONAL_NAME>
N-[1-[2-(2-tert-butylphenoxy)ethyl]-4-piperidyl]-N,1-dimethyl-pyrazole-4-sulfonamide

> <PUBCHEM_IUPAC_INCHI>
InChI=1S/C22H34N4O3S/c1-22(2,3)20-8-6-7-9-21(20)29-15-14-26-12-10-18(11-13-26)25(5)30(27,28)19-16-23-24(4)17-19/h6-9,16-18H,10-15H2,1-5H3

> <PUBCHEM_IUPAC_INCHIKEY>
MKSFZMXFGKIKIM-UHFFFAOYSA-N

> <PUBCHEM_XLOGP3_AA>
3.3

> <PUBCHEM_EXACT_MASS>
434.23516213

> <PUBCHEM_MOLECULAR_FORMULA>
C22H34N4O3S

> <PUBCHEM_MOLECULAR_WEIGHT>
434.6

> <PUBCHEM_OPENEYE_CAN_SMILES>
CC(C)(C)C1=CC=CC=C1OCCN2CCC(CC2)N(C)S(=O)(=O)C3=CN(N=C3)C

> <PUBCHEM_OPENEYE_ISO_SMILES>
CC(C)(C)C1=CC=CC=C1OCCN2CCC(CC2)N(C)S(=O)(=O)C3=CN(N=C3)C

> <PUBCHEM_CACTVS_TPSA>
76

> <PUBCHEM_MONOISOTOPIC_WEIGHT>
434.23516213

> <PUBCHEM_TOTAL_CHARGE>
0

> <PUBCHEM_HEAVY_ATOM_COUNT>
30

> <PUBCHEM_ATOM_DEF_STEREO_COUNT>
0

> <PUBCHEM_ATOM_UDEF_STEREO_COUNT>
0

> <PUBCHEM_BOND_DEF_STEREO_COUNT>
0

> <PUBCHEM_BOND_UDEF_STEREO_COUNT>
0

> <PUBCHEM_ISOTOPIC_ATOM_COUNT>
0

> <PUBCHEM_COMPONENT_COUNT>
1

> <PUBCHEM_CACTVS_TAUTO_COUNT>
-1

> <PUBCHEM_COORDINATE_TYPE>
1
5
255

> <PUBCHEM_BONDANNOTATIONS>
17  21  8
17  22  8
19  20  8
19  26  8
20  27  8
26  28  8
27  29  8
28  29  8
7  21  8
7  8  8
8  22  8

$$$$
