164617783
  -OEChem-09292322012D

 55 56  0     1  0  0  0  0  0999 V2000
   10.7078    2.5017    0.0000 S   0  0  0  0  0  0  0  0  0  0  0  0
    5.4641    0.5950    0.0000 O   0  0  0  0  0  0  0  0  0  0  0  0
    3.7320    0.5950    0.0000 N   0  0  0  0  0  0  0  0  0  0  0  0
    4.5981    2.0950    0.0000 N   0  0  0  0  0  0  0  0  0  0  0  0
    6.3301    2.0950    0.0000 N   0  0  0  0  0  0  0  0  0  0  0  0
   10.8769    0.8926    0.0000 N   0  0  0  0  0  0  0  0  0  0  0  0
    5.4641    3.5950    0.0000 N   0  0  0  0  0  0  0  0  0  0  0  0
   12.3714    1.8631    0.0000 N   0  0  0  0  0  0  0  0  0  0  0  0
    2.8660   -0.9050    0.0000 C   0  0  3  0  0  0  0  0  0  0  0  0
    2.0000   -0.4050    0.0000 C   0  0  0  0  0  0  0  0  0  0  0  0
    3.7320   -0.4050    0.0000 C   0  0  0  0  0  0  0  0  0  0  0  0
    2.8660   -1.9050    0.0000 C   0  0  0  0  0  0  0  0  0  0  0  0
    2.0000    0.5950    0.0000 C   0  0  0  0  0  0  0  0  0  0  0  0
    3.7320   -2.4050    0.0000 C   0  0  0  0  0  0  0  0  0  0  0  0
    2.0000   -2.4050    0.0000 C   0  0  0  0  0  0  0  0  0  0  0  0
    8.0622    2.0950    0.0000 C   0  0  0  0  0  0  0  0  0  0  0  0
    8.9282    2.5950    0.0000 C   0  0  0  0  0  0  0  0  0  0  0  0
    3.7320   -3.4050    0.0000 C   0  0  0  0  0  0  0  0  0  0  0  0
    2.0000   -3.4050    0.0000 C   0  0  0  0  0  0  0  0  0  0  0  0
    4.5981    1.0950    0.0000 C   0  0  0  0  0  0  0  0  0  0  0  0
    7.1962    2.5950    0.0000 C   0  0  0  0  0  0  0  0  0  0  0  0
    9.7942    2.0950    0.0000 C   0  0  0  0  0  0  0  0  0  0  0  0
    2.8660   -3.9050    0.0000 C   0  0  0  0  0  0  0  0  0  0  0  0
    9.8988    1.1005    0.0000 C   0  0  0  0  0  0  0  0  0  0  0  0
    5.4641    2.5950    0.0000 C   0  0  0  0  0  0  0  0  0  0  0  0
    9.1556    0.4313    0.0000 C   0  0  0  0  0  0  0  0  0  0  0  0
   11.3769    1.7586    0.0000 C   0  0  0  0  0  0  0  0  0  0  0  0
    2.8660   -0.2850    0.0000 H   0  0  0  0  0  0  0  0  0  0  0  0
    1.3894   -0.2973    0.0000 H   0  0  0  0  0  0  0  0  0  0  0  0
    1.7880   -0.9876    0.0000 H   0  0  0  0  0  0  0  0  0  0  0  0
    3.9441   -0.9876    0.0000 H   0  0  0  0  0  0  0  0  0  0  0  0
    4.3426   -0.2973    0.0000 H   0  0  0  0  0  0  0  0  0  0  0  0
    2.6200    0.5950    0.0000 H   0  0  0  0  0  0  0  0  0  0  0  0
    2.0000    1.2150    0.0000 H   0  0  0  0  0  0  0  0  0  0  0  0
    1.3800    0.5950    0.0000 H   0  0  0  0  0  0  0  0  0  0  0  0
    3.1951    0.9050    0.0000 H   0  0  0  0  0  0  0  0  0  0  0  0
    4.2690   -2.0950    0.0000 H   0  0  0  0  0  0  0  0  0  0  0  0
    1.4631   -2.0950    0.0000 H   0  0  0  0  0  0  0  0  0  0  0  0
    7.6636    1.6200    0.0000 H   0  0  0  0  0  0  0  0  0  0  0  0
    8.4607    1.6200    0.0000 H   0  0  0  0  0  0  0  0  0  0  0  0
    9.3267    3.0700    0.0000 H   0  0  0  0  0  0  0  0  0  0  0  0
    8.5297    3.0700    0.0000 H   0  0  0  0  0  0  0  0  0  0  0  0
    4.2690   -3.7150    0.0000 H   0  0  0  0  0  0  0  0  0  0  0  0
    1.4631   -3.7150    0.0000 H   0  0  0  0  0  0  0  0  0  0  0  0
    7.5947    3.0700    0.0000 H   0  0  0  0  0  0  0  0  0  0  0  0
    6.7976    3.0700    0.0000 H   0  0  0  0  0  0  0  0  0  0  0  0
    2.8660   -4.5250    0.0000 H   0  0  0  0  0  0  0  0  0  0  0  0
    4.0611    2.4050    0.0000 H   0  0  0  0  0  0  0  0  0  0  0  0
    8.7408    0.8921    0.0000 H   0  0  0  0  0  0  0  0  0  0  0  0
    8.6949    0.0165    0.0000 H   0  0  0  0  0  0  0  0  0  0  0  0
    9.5705   -0.0294    0.0000 H   0  0  0  0  0  0  0  0  0  0  0  0
    6.0010    3.9050    0.0000 H   0  0  0  0  0  0  0  0  0  0  0  0
    4.9272    3.9050    0.0000 H   0  0  0  0  0  0  0  0  0  0  0  0
   12.7359    1.3615    0.0000 H   0  0  0  0  0  0  0  0  0  0  0  0
   12.6236    2.4295    0.0000 H   0  0  0  0  0  0  0  0  0  0  0  0
  1 22  1  0  0  0  0
  1 27  1  0  0  0  0
  2 20  2  0  0  0  0
  3 11  1  0  0  0  0
  3 20  1  0  0  0  0
  3 36  1  0  0  0  0
  4 20  1  0  0  0  0
  4 25  1  0  0  0  0
  4 48  1  0  0  0  0
  5 21  1  0  0  0  0
  5 25  2  0  0  0  0
  6 24  1  0  0  0  0
  6 27  2  0  0  0  0
  7 25  1  0  0  0  0
  7 52  1  0  0  0  0
  7 53  1  0  0  0  0
  8 27  1  0  0  0  0
  8 54  1  0  0  0  0
  8 55  1  0  0  0  0
  9 10  1  0  0  0  0
  9 11  1  0  0  0  0
  9 12  1  0  0  0  0
  9 28  1  0  0  0  0
 10 13  1  0  0  0  0
 10 29  1  0  0  0  0
 10 30  1  0  0  0  0
 11 31  1  0  0  0  0
 11 32  1  0  0  0  0
 12 14  2  0  0  0  0
 12 15  1  0  0  0  0
 13 33  1  0  0  0  0
 13 34  1  0  0  0  0
 13 35  1  0  0  0  0
 14 18  1  0  0  0  0
 14 37  1  0  0  0  0
 15 19  2  0  0  0  0
 15 38  1  0  0  0  0
 16 17  1  0  0  0  0
 16 21  1  0  0  0  0
 16 39  1  0  0  0  0
 16 40  1  0  0  0  0
 17 22  1  0  0  0  0
 17 41  1  0  0  0  0
 17 42  1  0  0  0  0
 18 23  2  0  0  0  0
 18 43  1  0  0  0  0
 19 23  1  0  0  0  0
 19 44  1  0  0  0  0
 21 45  1  0  0  0  0
 21 46  1  0  0  0  0
 22 24  2  0  0  0  0
 23 47  1  0  0  0  0
 24 26  1  0  0  0  0
 26 49  1  0  0  0  0
 26 50  1  0  0  0  0
 26 51  1  0  0  0  0
M  END
> <PUBCHEM_COMPOUND_CID>
164617783

> <PUBCHEM_COMPOUND_CANONICALIZED>
1

> <PUBCHEM_CACTVS_COMPLEXITY>
483

> <PUBCHEM_CACTVS_HBOND_ACCEPTOR>
5

> <PUBCHEM_CACTVS_HBOND_DONOR>
4

> <PUBCHEM_CACTVS_ROTATABLE_BOND>
9

> <PUBCHEM_CACTVS_SUBSKEYS>
AAADceB7oABAAAAAAAAAAAAAAAAAAWAAAAAwAAAAAAAAAAABwAAAHgQQAAAADQjBXgQzkZLIEAisAyRidAAC8KlhCDkJmJQ4QIiIICLgkRGEIAAolwJIyCcQgMAOgAAAAAAAAAAAAAAAAAAAAAAAAAAAAA==

> <PUBCHEM_IUPAC_OPENEYE_NAME>
1-[N'-[3-(2-amino-4-methyl-thiazol-5-yl)propyl]carbamimidoyl]-3-(2-phenylbutyl)urea

> <PUBCHEM_IUPAC_CAS_NAME>
1-[amino-[3-(2-amino-4-methyl-5-thiazolyl)propylimino]methyl]-3-(2-phenylbutyl)urea

> <PUBCHEM_IUPAC_NAME_MARKUP>
1-[<I>N</I>&apos;-[3-(2-amino-4-methyl-1,3-thiazol-5-yl)propyl]carbamimidoyl]-3-(2-phenylbutyl)urea

> <PUBCHEM_IUPAC_NAME>
1-[N'-[3-(2-amino-4-methyl-1,3-thiazol-5-yl)propyl]carbamimidoyl]-3-(2-phenylbutyl)urea

> <PUBCHEM_IUPAC_SYSTEMATIC_NAME>
1-[N'-[3-(2-azanyl-4-methyl-1,3-thiazol-5-yl)propyl]carbamimidoyl]-3-(2-phenylbutyl)urea

> <PUBCHEM_IUPAC_TRADITIONAL_NAME>
1-[N'-[3-(2-amino-4-methyl-thiazol-5-yl)propyl]amidino]-3-(2-phenylbutyl)urea

> <PUBCHEM_IUPAC_INCHI>
InChI=1S/C19H28N6OS/c1-3-14(15-8-5-4-6-9-15)12-23-19(26)25-17(20)22-11-7-10-16-13(2)24-18(21)27-16/h4-6,8-9,14H,3,7,10-12H2,1-2H3,(H2,21,24)(H4,20,22,23,25,26)

> <PUBCHEM_IUPAC_INCHIKEY>
UGRVOYIHHOLSHQ-UHFFFAOYSA-N

> <PUBCHEM_XLOGP3_AA>
3.3

> <PUBCHEM_EXACT_MASS>
388.20453071

> <PUBCHEM_MOLECULAR_FORMULA>
C19H28N6OS

> <PUBCHEM_MOLECULAR_WEIGHT>
388.5

> <PUBCHEM_OPENEYE_CAN_SMILES>
CCC(CNC(=O)NC(=NCCCC1=C(N=C(S1)N)C)N)C2=CC=CC=C2

> <PUBCHEM_OPENEYE_ISO_SMILES>
CCC(CNC(=O)NC(=NCCCC1=C(N=C(S1)N)C)N)C2=CC=CC=C2

> <PUBCHEM_CACTVS_TPSA>
147

> <PUBCHEM_MONOISOTOPIC_WEIGHT>
388.20453071

> <PUBCHEM_TOTAL_CHARGE>
0

> <PUBCHEM_HEAVY_ATOM_COUNT>
27

> <PUBCHEM_ATOM_DEF_STEREO_COUNT>
0

> <PUBCHEM_ATOM_UDEF_STEREO_COUNT>
1

> <PUBCHEM_BOND_DEF_STEREO_COUNT>
0

> <PUBCHEM_BOND_UDEF_STEREO_COUNT>
0

> <PUBCHEM_ISOTOPIC_ATOM_COUNT>
0

> <PUBCHEM_COMPONENT_COUNT>
1

> <PUBCHEM_CACTVS_TAUTO_COUNT>
-1

> <PUBCHEM_COORDINATE_TYPE>
1
5
255

> <PUBCHEM_BONDANNOTATIONS>
1  22  8
1  27  8
12  14  8
12  15  8
14  18  8
15  19  8
18  23  8
19  23  8
22  24  8
6  24  8
6  27  8
9  10  3

$$$$
