10251795
  -OEChem-09292322032D

 59 63  0     0  0  0  0  0  0999 V2000
    8.1886    2.2561    0.0000 Cl  0  0  0  0  0  0  0  0  0  0  0  0
    6.2619   -3.7136    0.0000 O   0  0  0  0  0  0  0  0  0  0  0  0
    5.6103   -0.0573    0.0000 N   0  0  0  0  0  0  0  0  0  0  0  0
    6.5422    2.7942    0.0000 N   0  0  0  0  0  0  0  0  0  0  0  0
    4.6783   -2.9089    0.0000 N   0  0  0  0  0  0  0  0  0  0  0  0
    4.6783   -4.5184    0.0000 N   0  0  0  0  0  0  0  0  0  0  0  0
    5.9209    0.8932    0.0000 C   0  0  0  0  0  0  0  0  0  0  0  0
    4.9889   -1.9584    0.0000 C   0  0  0  0  0  0  0  0  0  0  0  0
    4.6318   -0.2636    0.0000 C   0  0  0  0  0  0  0  0  0  0  0  0
    6.2781   -0.8016    0.0000 C   0  0  0  0  0  0  0  0  0  0  0  0
    5.2531    1.6375    0.0000 C   0  0  0  0  0  0  0  0  0  0  0  0
    6.8994    1.0994    0.0000 C   0  0  0  0  0  0  0  0  0  0  0  0
    4.3211   -1.2141    0.0000 C   0  0  0  0  0  0  0  0  0  0  0  0
    5.9674   -1.7522    0.0000 C   0  0  0  0  0  0  0  0  0  0  0  0
    5.5637    2.5880    0.0000 C   0  0  0  0  0  0  0  0  0  0  0  0
    7.2101    2.0499    0.0000 C   0  0  0  0  0  0  0  0  0  0  0  0
    6.8529    3.7447    0.0000 C   0  0  0  0  0  0  0  0  0  0  0  0
    3.7320   -3.2136    0.0000 C   0  0  0  0  0  0  0  0  0  0  0  0
    5.2619   -3.7136    0.0000 C   0  0  0  0  0  0  0  0  0  0  0  0
    3.7320   -4.2136    0.0000 C   0  0  0  0  0  0  0  0  0  0  0  0
    7.8314    3.9510    0.0000 C   0  0  0  0  0  0  0  0  0  0  0  0
    2.8660   -2.7136    0.0000 C   0  0  0  0  0  0  0  0  0  0  0  0
    2.8660   -4.7136    0.0000 C   0  0  0  0  0  0  0  0  0  0  0  0
    2.0000   -3.2136    0.0000 C   0  0  0  0  0  0  0  0  0  0  0  0
    8.4993    3.2066    0.0000 C   0  0  0  0  0  0  0  0  0  0  0  0
    8.1421    4.9015    0.0000 C   0  0  0  0  0  0  0  0  0  0  0  0
    2.0000   -4.2136    0.0000 C   0  0  0  0  0  0  0  0  0  0  0  0
    9.4778    3.4129    0.0000 C   0  0  0  0  0  0  0  0  0  0  0  0
    9.1206    5.1077    0.0000 C   0  0  0  0  0  0  0  0  0  0  0  0
    9.7884    4.3634    0.0000 C   0  0  0  0  0  0  0  0  0  0  0  0
    6.3350    0.4317    0.0000 H   0  0  0  0  0  0  0  0  0  0  0  0
    5.4030   -2.4198    0.0000 H   0  0  0  0  0  0  0  0  0  0  0  0
    4.6112    0.3561    0.0000 H   0  0  0  0  0  0  0  0  0  0  0  0
    4.0179   -0.1762    0.0000 H   0  0  0  0  0  0  0  0  0  0  0  0
    6.8250   -1.0937    0.0000 H   0  0  0  0  0  0  0  0  0  0  0  0
    6.6607   -0.3137    0.0000 H   0  0  0  0  0  0  0  0  0  0  0  0
    4.7062    1.9295    0.0000 H   0  0  0  0  0  0  0  0  0  0  0  0
    4.8705    1.1496    0.0000 H   0  0  0  0  0  0  0  0  0  0  0  0
    6.9200    0.4797    0.0000 H   0  0  0  0  0  0  0  0  0  0  0  0
    7.5132    1.0120    0.0000 H   0  0  0  0  0  0  0  0  0  0  0  0
    3.7742   -0.9221    0.0000 H   0  0  0  0  0  0  0  0  0  0  0  0
    3.9385   -1.7020    0.0000 H   0  0  0  0  0  0  0  0  0  0  0  0
    5.9880   -2.3718    0.0000 H   0  0  0  0  0  0  0  0  0  0  0  0
    6.5812   -1.8395    0.0000 H   0  0  0  0  0  0  0  0  0  0  0  0
    5.5432    3.2077    0.0000 H   0  0  0  0  0  0  0  0  0  0  0  0
    4.9499    2.6754    0.0000 H   0  0  0  0  0  0  0  0  0  0  0  0
    7.7570    1.7579    0.0000 H   0  0  0  0  0  0  0  0  0  0  0  0
    7.5926    2.5378    0.0000 H   0  0  0  0  0  0  0  0  0  0  0  0
    6.8323    4.3644    0.0000 H   0  0  0  0  0  0  0  0  0  0  0  0
    6.2391    3.8321    0.0000 H   0  0  0  0  0  0  0  0  0  0  0  0
    4.8709   -5.1077    0.0000 H   0  0  0  0  0  0  0  0  0  0  0  0
    2.8660   -2.0936    0.0000 H   0  0  0  0  0  0  0  0  0  0  0  0
    2.8660   -5.3336    0.0000 H   0  0  0  0  0  0  0  0  0  0  0  0
    1.4631   -2.9036    0.0000 H   0  0  0  0  0  0  0  0  0  0  0  0
    7.7280    5.3629    0.0000 H   0  0  0  0  0  0  0  0  0  0  0  0
    1.4631   -4.5236    0.0000 H   0  0  0  0  0  0  0  0  0  0  0  0
    9.8918    2.9514    0.0000 H   0  0  0  0  0  0  0  0  0  0  0  0
    9.3132    5.6970    0.0000 H   0  0  0  0  0  0  0  0  0  0  0  0
   10.3951    4.4912    0.0000 H   0  0  0  0  0  0  0  0  0  0  0  0
  1 25  1  0  0  0  0
  2 19  2  0  0  0  0
  3  7  1  0  0  0  0
  3  9  1  0  0  0  0
  3 10  1  0  0  0  0
  4 15  1  0  0  0  0
  4 16  1  0  0  0  0
  4 17  1  0  0  0  0
  5  8  1  0  0  0  0
  5 18  1  0  0  0  0
  5 19  1  0  0  0  0
  6 19  1  0  0  0  0
  6 20  1  0  0  0  0
  6 51  1  0  0  0  0
  7 11  1  0  0  0  0
  7 12  1  0  0  0  0
  7 31  1  0  0  0  0
  8 13  1  0  0  0  0
  8 14  1  0  0  0  0
  8 32  1  0  0  0  0
  9 13  1  0  0  0  0
  9 33  1  0  0  0  0
  9 34  1  0  0  0  0
 10 14  1  0  0  0  0
 10 35  1  0  0  0  0
 10 36  1  0  0  0  0
 11 15  1  0  0  0  0
 11 37  1  0  0  0  0
 11 38  1  0  0  0  0
 12 16  1  0  0  0  0
 12 39  1  0  0  0  0
 12 40  1  0  0  0  0
 13 41  1  0  0  0  0
 13 42  1  0  0  0  0
 14 43  1  0  0  0  0
 14 44  1  0  0  0  0
 15 45  1  0  0  0  0
 15 46  1  0  0  0  0
 16 47  1  0  0  0  0
 16 48  1  0  0  0  0
 17 21  1  0  0  0  0
 17 49  1  0  0  0  0
 17 50  1  0  0  0  0
 18 20  1  0  0  0  0
 18 22  2  0  0  0  0
 20 23  2  0  0  0  0
 21 25  1  0  0  0  0
 21 26  2  0  0  0  0
 22 24  1  0  0  0  0
 22 52  1  0  0  0  0
 23 27  1  0  0  0  0
 23 53  1  0  0  0  0
 24 27  2  0  0  0  0
 24 54  1  0  0  0  0
 25 28  2  0  0  0  0
 26 29  1  0  0  0  0
 26 55  1  0  0  0  0
 27 56  1  0  0  0  0
 28 30  1  0  0  0  0
 28 57  1  0  0  0  0
 29 30  2  0  0  0  0
 29 58  1  0  0  0  0
 30 59  1  0  0  0  0
M  END
> <PUBCHEM_COMPOUND_CID>
10251795

> <PUBCHEM_COMPOUND_CANONICALIZED>
1

> <PUBCHEM_CACTVS_COMPLEXITY>
588

> <PUBCHEM_CACTVS_HBOND_ACCEPTOR>
3

> <PUBCHEM_CACTVS_HBOND_DONOR>
1

> <PUBCHEM_CACTVS_ROTATABLE_BOND>
4

> <PUBCHEM_CACTVS_SUBSKEYS>
AAADceB7oAAEAAAAAAAAAAAAAAAAAWAAAAA8eIEAAAAAAFgBQAAAHgIQAAAADCrBGCQxwIPAAACIAiRCUACCAAAhBwAIiAAIdoiIYCLB05GUIAholgLIyCcQgAAOAAAAAAABACAAAAAAAAIAQAAAAAAAAA==

> <PUBCHEM_IUPAC_OPENEYE_NAME>
3-[1-[1-[(2-chlorophenyl)methyl]-4-piperidyl]-4-piperidyl]-1H-benzimidazol-2-one

> <PUBCHEM_IUPAC_CAS_NAME>
3-[1-[1-[(2-chlorophenyl)methyl]-4-piperidinyl]-4-piperidinyl]-1H-benzimidazol-2-one

> <PUBCHEM_IUPAC_NAME_MARKUP>
3-[1-[1-[(2-chlorophenyl)methyl]piperidin-4-yl]piperidin-4-yl]-1<I>H</I>-benzimidazol-2-one

> <PUBCHEM_IUPAC_NAME>
3-[1-[1-[(2-chlorophenyl)methyl]piperidin-4-yl]piperidin-4-yl]-1H-benzimidazol-2-one

> <PUBCHEM_IUPAC_SYSTEMATIC_NAME>
3-[1-[1-[(2-chlorophenyl)methyl]piperidin-4-yl]piperidin-4-yl]-1H-benzimidazol-2-one

> <PUBCHEM_IUPAC_TRADITIONAL_NAME>
3-[1-[1-(2-chlorobenzyl)-4-piperidyl]-4-piperidyl]-1H-benzimidazol-2-one

> <PUBCHEM_IUPAC_INCHI>
InChI=1S/C24H29ClN4O/c25-21-6-2-1-5-18(21)17-27-13-9-19(10-14-27)28-15-11-20(12-16-28)29-23-8-4-3-7-22(23)26-24(29)30/h1-8,19-20H,9-17H2,(H,26,30)

> <PUBCHEM_IUPAC_INCHIKEY>
AQMPTYUVSBXZPZ-UHFFFAOYSA-N

> <PUBCHEM_XLOGP3_AA>
4.1

> <PUBCHEM_EXACT_MASS>
424.2029893

> <PUBCHEM_MOLECULAR_FORMULA>
C24H29ClN4O

> <PUBCHEM_MOLECULAR_WEIGHT>
425.0

> <PUBCHEM_OPENEYE_CAN_SMILES>
C1CN(CCC1N2CCC(CC2)N3C4=CC=CC=C4NC3=O)CC5=CC=CC=C5Cl

> <PUBCHEM_OPENEYE_ISO_SMILES>
C1CN(CCC1N2CCC(CC2)N3C4=CC=CC=C4NC3=O)CC5=CC=CC=C5Cl

> <PUBCHEM_CACTVS_TPSA>
38.8

> <PUBCHEM_MONOISOTOPIC_WEIGHT>
424.2029893

> <PUBCHEM_TOTAL_CHARGE>
0

> <PUBCHEM_HEAVY_ATOM_COUNT>
30

> <PUBCHEM_ATOM_DEF_STEREO_COUNT>
0

> <PUBCHEM_ATOM_UDEF_STEREO_COUNT>
0

> <PUBCHEM_BOND_DEF_STEREO_COUNT>
0

> <PUBCHEM_BOND_UDEF_STEREO_COUNT>
0

> <PUBCHEM_ISOTOPIC_ATOM_COUNT>
0

> <PUBCHEM_COMPONENT_COUNT>
1

> <PUBCHEM_CACTVS_TAUTO_COUNT>
-1

> <PUBCHEM_COORDINATE_TYPE>
1
5
255

> <PUBCHEM_BONDANNOTATIONS>
18  20  8
18  22  8
20  23  8
21  25  8
21  26  8
22  24  8
23  27  8
24  27  8
25  28  8
26  29  8
28  30  8
29  30  8
5  18  8
5  19  8
6  19  8
6  20  8

$$$$
