44411936
  -OEChem-09292322502D

 62 66  0     0  0  0  0  0  0999 V2000
    7.0000    1.9468    0.0000 S   0  0  0  0  0  0  0  0  0  0  0  0
    5.0000   -3.2494    0.0000 F   0  0  0  0  0  0  0  0  0  0  0  0
    2.0000   -4.9814    0.0000 F   0  0  0  0  0  0  0  0  0  0  0  0
    6.1340    2.4468    0.0000 O   0  0  0  0  0  0  0  0  0  0  0  0
    7.5000    2.8128    0.0000 O   0  0  0  0  0  0  0  0  0  0  0  0
    6.5000    1.0808    0.0000 N   0  0  0  0  0  0  0  0  0  0  0  0
    5.5000   -0.6513    0.0000 C   0  0  0  0  0  0  0  0  0  0  0  0
    6.5000   -0.6513    0.0000 C   0  0  0  0  0  0  0  0  0  0  0  0
    5.0000    0.2147    0.0000 C   0  0  0  0  0  0  0  0  0  0  0  0
    7.0000    0.2147    0.0000 C   0  0  0  0  0  0  0  0  0  0  0  0
    5.5000    1.0808    0.0000 C   0  0  0  0  0  0  0  0  0  0  0  0
    5.0000   -1.5173    0.0000 C   0  0  0  0  0  0  0  0  0  0  0  0
    4.0000   -1.5173    0.0000 C   0  0  0  0  0  0  0  0  0  0  0  0
    7.8660    1.4468    0.0000 C   0  0  0  0  0  0  0  0  0  0  0  0
    3.5000   -2.3834    0.0000 C   0  0  0  0  0  0  0  0  0  0  0  0
    8.7320    1.9468    0.0000 C   0  0  0  0  0  0  0  0  0  0  0  0
    7.8660    0.4468    0.0000 C   0  0  0  0  0  0  0  0  0  0  0  0
    8.7320    2.9468    0.0000 C   0  0  0  0  0  0  0  0  0  0  0  0
    4.0000   -3.2494    0.0000 C   0  0  0  0  0  0  0  0  0  0  0  0
    2.5000   -2.3834    0.0000 C   0  0  0  0  0  0  0  0  0  0  0  0
    9.5981    1.4468    0.0000 C   0  0  0  0  0  0  0  0  0  0  0  0
    8.7320   -0.0532    0.0000 C   0  0  0  0  0  0  0  0  0  0  0  0
    9.5981    3.4468    0.0000 C   0  0  0  0  0  0  0  0  0  0  0  0
    9.5981    0.4468    0.0000 C   0  0  0  0  0  0  0  0  0  0  0  0
    3.5000   -4.1154    0.0000 C   0  0  0  0  0  0  0  0  0  0  0  0
    2.0000   -3.2494    0.0000 C   0  0  0  0  0  0  0  0  0  0  0  0
    7.8660    3.4468    0.0000 C   0  0  0  0  0  0  0  0  0  0  0  0
    9.5981    4.4468    0.0000 C   0  0  0  0  0  0  0  0  0  0  0  0
    2.5000   -4.1154    0.0000 C   0  0  0  0  0  0  0  0  0  0  0  0
   10.4920    2.9121    0.0000 C   0  0  0  0  0  0  0  0  0  0  0  0
    7.8660    4.4468    0.0000 C   0  0  0  0  0  0  0  0  0  0  0  0
    8.7320    4.9468    0.0000 C   0  0  0  0  0  0  0  0  0  0  0  0
   10.4920    4.9814    0.0000 C   0  0  0  0  0  0  0  0  0  0  0  0
   11.3981    3.4260    0.0000 C   0  0  0  0  0  0  0  0  0  0  0  0
   11.3981    4.4676    0.0000 C   0  0  0  0  0  0  0  0  0  0  0  0
    4.8800   -0.6513    0.0000 H   0  0  0  0  0  0  0  0  0  0  0  0
    6.3923   -1.2619    0.0000 H   0  0  0  0  0  0  0  0  0  0  0  0
    7.0826   -0.8634    0.0000 H   0  0  0  0  0  0  0  0  0  0  0  0
    4.5250    0.6132    0.0000 H   0  0  0  0  0  0  0  0  0  0  0  0
    4.5250   -0.1838    0.0000 H   0  0  0  0  0  0  0  0  0  0  0  0
    7.4750   -0.1838    0.0000 H   0  0  0  0  0  0  0  0  0  0  0  0
    7.4750    0.6132    0.0000 H   0  0  0  0  0  0  0  0  0  0  0  0
    5.6077    1.6913    0.0000 H   0  0  0  0  0  0  0  0  0  0  0  0
    4.9174    1.2928    0.0000 H   0  0  0  0  0  0  0  0  0  0  0  0
    4.8923   -2.1279    0.0000 H   0  0  0  0  0  0  0  0  0  0  0  0
    5.5826   -1.7294    0.0000 H   0  0  0  0  0  0  0  0  0  0  0  0
    4.1077   -0.9068    0.0000 H   0  0  0  0  0  0  0  0  0  0  0  0
    3.4174   -1.3053    0.0000 H   0  0  0  0  0  0  0  0  0  0  0  0
    7.3291    0.1368    0.0000 H   0  0  0  0  0  0  0  0  0  0  0  0
    2.1900   -1.8464    0.0000 H   0  0  0  0  0  0  0  0  0  0  0  0
   10.1350    1.7568    0.0000 H   0  0  0  0  0  0  0  0  0  0  0  0
    8.7320   -0.6732    0.0000 H   0  0  0  0  0  0  0  0  0  0  0  0
   10.1350    0.1368    0.0000 H   0  0  0  0  0  0  0  0  0  0  0  0
    3.8100   -4.6523    0.0000 H   0  0  0  0  0  0  0  0  0  0  0  0
    1.3800   -3.2494    0.0000 H   0  0  0  0  0  0  0  0  0  0  0  0
    7.3291    3.1368    0.0000 H   0  0  0  0  0  0  0  0  0  0  0  0
   10.4848    2.2922    0.0000 H   0  0  0  0  0  0  0  0  0  0  0  0
    7.3291    4.7568    0.0000 H   0  0  0  0  0  0  0  0  0  0  0  0
    8.7320    5.5668    0.0000 H   0  0  0  0  0  0  0  0  0  0  0  0
   10.4848    5.6014    0.0000 H   0  0  0  0  0  0  0  0  0  0  0  0
   11.9338    3.1139    0.0000 H   0  0  0  0  0  0  0  0  0  0  0  0
   11.9338    4.7796    0.0000 H   0  0  0  0  0  0  0  0  0  0  0  0
  1  4  2  0  0  0  0
  1  5  2  0  0  0  0
  1  6  1  0  0  0  0
  1 14  1  0  0  0  0
  2 19  1  0  0  0  0
  3 29  1  0  0  0  0
  6 10  1  0  0  0  0
  6 11  1  0  0  0  0
  7  8  1  0  0  0  0
  7  9  1  0  0  0  0
  7 12  1  0  0  0  0
  7 36  1  0  0  0  0
  8 10  1  0  0  0  0
  8 37  1  0  0  0  0
  8 38  1  0  0  0  0
  9 11  1  0  0  0  0
  9 39  1  0  0  0  0
  9 40  1  0  0  0  0
 10 41  1  0  0  0  0
 10 42  1  0  0  0  0
 11 43  1  0  0  0  0
 11 44  1  0  0  0  0
 12 13  1  0  0  0  0
 12 45  1  0  0  0  0
 12 46  1  0  0  0  0
 13 15  1  0  0  0  0
 13 47  1  0  0  0  0
 13 48  1  0  0  0  0
 14 16  1  0  0  0  0
 14 17  2  0  0  0  0
 15 19  2  0  0  0  0
 15 20  1  0  0  0  0
 16 18  1  0  0  0  0
 16 21  2  0  0  0  0
 17 22  1  0  0  0  0
 17 49  1  0  0  0  0
 18 23  1  0  0  0  0
 18 27  2  0  0  0  0
 19 25  1  0  0  0  0
 20 26  2  0  0  0  0
 20 50  1  0  0  0  0
 21 24  1  0  0  0  0
 21 51  1  0  0  0  0
 22 24  2  0  0  0  0
 22 52  1  0  0  0  0
 23 28  1  0  0  0  0
 23 30  2  0  0  0  0
 24 53  1  0  0  0  0
 25 29  2  0  0  0  0
 25 54  1  0  0  0  0
 26 29  1  0  0  0  0
 26 55  1  0  0  0  0
 27 31  1  0  0  0  0
 27 56  1  0  0  0  0
 28 32  1  0  0  0  0
 28 33  2  0  0  0  0
 30 34  1  0  0  0  0
 30 57  1  0  0  0  0
 31 32  2  0  0  0  0
 31 58  1  0  0  0  0
 32 59  1  0  0  0  0
 33 35  1  0  0  0  0
 33 60  1  0  0  0  0
 34 35  2  0  0  0  0
 34 61  1  0  0  0  0
 35 62  1  0  0  0  0
M  END
> <PUBCHEM_COMPOUND_CID>
44411936

> <PUBCHEM_COMPOUND_CANONICALIZED>
1

> <PUBCHEM_CACTVS_COMPLEXITY>
778

> <PUBCHEM_CACTVS_HBOND_ACCEPTOR>
5

> <PUBCHEM_CACTVS_HBOND_DONOR>
0

> <PUBCHEM_CACTVS_ROTATABLE_BOND>
6

> <PUBCHEM_CACTVS_SUBSKEYS>
AAADceB6MYBAAAAAAAAAAAAAAAAAAAAAAAA8YMGCAAAAAADBVAAAHQQAQAAADQDBWAwwAcIAAAKAAiBCAHBCABAgAAAIiBgIAIgIICKAkRCEIAAggACIiAcQgMAOgAACAAAUAAAAAAQAACgAAAAAAAAAAA==

> <PUBCHEM_IUPAC_OPENEYE_NAME>
4-[2-(2,4-difluorophenyl)ethyl]-1-[2-(1-naphthyl)phenyl]sulfonyl-piperidine

> <PUBCHEM_IUPAC_CAS_NAME>
4-[2-(2,4-difluorophenyl)ethyl]-1-[2-(1-naphthalenyl)phenyl]sulfonylpiperidine

> <PUBCHEM_IUPAC_NAME_MARKUP>
4-[2-(2,4-difluorophenyl)ethyl]-1-(2-naphthalen-1-ylphenyl)sulfonylpiperidine

> <PUBCHEM_IUPAC_NAME>
4-[2-(2,4-difluorophenyl)ethyl]-1-(2-naphthalen-1-ylphenyl)sulfonylpiperidine

> <PUBCHEM_IUPAC_SYSTEMATIC_NAME>
4-[2-[2,4-bis(fluoranyl)phenyl]ethyl]-1-(2-naphthalen-1-ylphenyl)sulfonyl-piperidine

> <PUBCHEM_IUPAC_TRADITIONAL_NAME>
4-[2-(2,4-difluorophenyl)ethyl]-1-[2-(1-naphthyl)phenyl]sulfonyl-piperidine

> <PUBCHEM_IUPAC_INCHI>
InChI=1S/C29H27F2NO2S/c30-24-15-14-23(28(31)20-24)13-12-21-16-18-32(19-17-21)35(33,34)29-11-4-3-9-27(29)26-10-5-7-22-6-1-2-8-25(22)26/h1-11,14-15,20-21H,12-13,16-19H2

> <PUBCHEM_IUPAC_INCHIKEY>
XMDQSAJIVSKCKY-UHFFFAOYSA-N

> <PUBCHEM_XLOGP3_AA>
7.4

> <PUBCHEM_EXACT_MASS>
491.17305660

> <PUBCHEM_MOLECULAR_FORMULA>
C29H27F2NO2S

> <PUBCHEM_MOLECULAR_WEIGHT>
491.6

> <PUBCHEM_OPENEYE_CAN_SMILES>
C1CN(CCC1CCC2=C(C=C(C=C2)F)F)S(=O)(=O)C3=CC=CC=C3C4=CC=CC5=CC=CC=C54

> <PUBCHEM_OPENEYE_ISO_SMILES>
C1CN(CCC1CCC2=C(C=C(C=C2)F)F)S(=O)(=O)C3=CC=CC=C3C4=CC=CC5=CC=CC=C54

> <PUBCHEM_CACTVS_TPSA>
45.8

> <PUBCHEM_MONOISOTOPIC_WEIGHT>
491.17305660

> <PUBCHEM_TOTAL_CHARGE>
0

> <PUBCHEM_HEAVY_ATOM_COUNT>
35

> <PUBCHEM_ATOM_DEF_STEREO_COUNT>
0

> <PUBCHEM_ATOM_UDEF_STEREO_COUNT>
0

> <PUBCHEM_BOND_DEF_STEREO_COUNT>
0

> <PUBCHEM_BOND_UDEF_STEREO_COUNT>
0

> <PUBCHEM_ISOTOPIC_ATOM_COUNT>
0

> <PUBCHEM_COMPONENT_COUNT>
1

> <PUBCHEM_CACTVS_TAUTO_COUNT>
-1

> <PUBCHEM_COORDINATE_TYPE>
1
5
255

> <PUBCHEM_BONDANNOTATIONS>
14  16  8
14  17  8
15  19  8
15  20  8
16  21  8
17  22  8
18  23  8
18  27  8
19  25  8
20  26  8
21  24  8
22  24  8
23  28  8
23  30  8
25  29  8
26  29  8
27  31  8
28  32  8
28  33  8
30  34  8
31  32  8
33  35  8
34  35  8

$$$$
