763774
  -OEChem-09292322472D

 36 38  0     0  0  0  0  0  0999 V2000
    2.8660   -4.3512    0.0000 Cl  0  0  0  0  0  0  0  0  0  0  0  0
    3.8366    4.1433    0.0000 S   0  0  0  0  0  0  0  0  0  0  0  0
    2.8660    1.6488    0.0000 N   0  0  0  0  0  0  0  0  0  0  0  0
    2.8660   -0.3512    0.0000 N   0  0  0  0  0  0  0  0  0  0  0  0
    3.7320    1.1488    0.0000 C   0  0  0  0  0  0  0  0  0  0  0  0
    2.0000    1.1488    0.0000 C   0  0  0  0  0  0  0  0  0  0  0  0
    3.7320    0.1488    0.0000 C   0  0  0  0  0  0  0  0  0  0  0  0
    2.0000    0.1488    0.0000 C   0  0  0  0  0  0  0  0  0  0  0  0
    2.8660    2.6488    0.0000 C   0  0  0  0  0  0  0  0  0  0  0  0
    2.8660   -1.3512    0.0000 C   0  0  0  0  0  0  0  0  0  0  0  0
    3.7320    3.1488    0.0000 C   0  0  0  0  0  0  0  0  0  0  0  0
    2.0000   -1.8512    0.0000 C   0  0  0  0  0  0  0  0  0  0  0  0
    3.7320   -1.8512    0.0000 C   0  0  0  0  0  0  0  0  0  0  0  0
    4.6456    2.7420    0.0000 C   0  0  0  0  0  0  0  0  0  0  0  0
    2.0000   -2.8512    0.0000 C   0  0  0  0  0  0  0  0  0  0  0  0
    3.7320   -2.8512    0.0000 C   0  0  0  0  0  0  0  0  0  0  0  0
    2.8660   -3.3512    0.0000 C   0  0  0  0  0  0  0  0  0  0  0  0
    5.3147    3.4852    0.0000 C   0  0  0  0  0  0  0  0  0  0  0  0
    4.8147    4.3512    0.0000 C   0  0  0  0  0  0  0  0  0  0  0  0
    4.3426    1.0411    0.0000 H   0  0  0  0  0  0  0  0  0  0  0  0
    3.9441    1.7314    0.0000 H   0  0  0  0  0  0  0  0  0  0  0  0
    1.7880    1.7314    0.0000 H   0  0  0  0  0  0  0  0  0  0  0  0
    1.3894    1.0411    0.0000 H   0  0  0  0  0  0  0  0  0  0  0  0
    3.9441   -0.4338    0.0000 H   0  0  0  0  0  0  0  0  0  0  0  0
    4.3426    0.2564    0.0000 H   0  0  0  0  0  0  0  0  0  0  0  0
    1.3894    0.2564    0.0000 H   0  0  0  0  0  0  0  0  0  0  0  0
    1.7880   -0.4338    0.0000 H   0  0  0  0  0  0  0  0  0  0  0  0
    2.6540    3.2314    0.0000 H   0  0  0  0  0  0  0  0  0  0  0  0
    2.2554    2.5411    0.0000 H   0  0  0  0  0  0  0  0  0  0  0  0
    1.4631   -1.5412    0.0000 H   0  0  0  0  0  0  0  0  0  0  0  0
    4.2690   -1.5412    0.0000 H   0  0  0  0  0  0  0  0  0  0  0  0
    4.7745    2.1356    0.0000 H   0  0  0  0  0  0  0  0  0  0  0  0
    1.4631   -3.1612    0.0000 H   0  0  0  0  0  0  0  0  0  0  0  0
    4.2690   -3.1612    0.0000 H   0  0  0  0  0  0  0  0  0  0  0  0
    5.9313    3.4204    0.0000 H   0  0  0  0  0  0  0  0  0  0  0  0
    5.0669    4.9176    0.0000 H   0  0  0  0  0  0  0  0  0  0  0  0
  1 17  1  0  0  0  0
  2 11  1  0  0  0  0
  2 19  1  0  0  0  0
  3  5  1  0  0  0  0
  3  6  1  0  0  0  0
  3  9  1  0  0  0  0
  4  7  1  0  0  0  0
  4  8  1  0  0  0  0
  4 10  1  0  0  0  0
  5  7  1  0  0  0  0
  5 20  1  0  0  0  0
  5 21  1  0  0  0  0
  6  8  1  0  0  0  0
  6 22  1  0  0  0  0
  6 23  1  0  0  0  0
  7 24  1  0  0  0  0
  7 25  1  0  0  0  0
  8 26  1  0  0  0  0
  8 27  1  0  0  0  0
  9 11  1  0  0  0  0
  9 28  1  0  0  0  0
  9 29  1  0  0  0  0
 10 12  2  0  0  0  0
 10 13  1  0  0  0  0
 11 14  2  0  0  0  0
 12 15  1  0  0  0  0
 12 30  1  0  0  0  0
 13 16  2  0  0  0  0
 13 31  1  0  0  0  0
 14 18  1  0  0  0  0
 14 32  1  0  0  0  0
 15 17  2  0  0  0  0
 15 33  1  0  0  0  0
 16 17  1  0  0  0  0
 16 34  1  0  0  0  0
 18 19  2  0  0  0  0
 18 35  1  0  0  0  0
 19 36  1  0  0  0  0
M  END
> <PUBCHEM_COMPOUND_CID>
763774

> <PUBCHEM_COMPOUND_CANONICALIZED>
1

> <PUBCHEM_CACTVS_COMPLEXITY>
273

> <PUBCHEM_CACTVS_HBOND_ACCEPTOR>
3

> <PUBCHEM_CACTVS_HBOND_DONOR>
0

> <PUBCHEM_CACTVS_ROTATABLE_BOND>
3

> <PUBCHEM_CACTVS_SUBSKEYS>
AAADceBzAABEAAAAAAAAAAAAAAAAASAAAAA8QAAAAAAAAAABwAAAHAYAAAAACArFUCSwwYMAAAiEACRCQACDAIAhDxBIiBgIZogIYCLhk5GUIAhggADoyAcQAAAAAABAAAAAAAAAAIAAAAAAAAAAAAAAAA==

> <PUBCHEM_IUPAC_OPENEYE_NAME>
1-(4-chlorophenyl)-4-(2-thienylmethyl)piperazine

> <PUBCHEM_IUPAC_CAS_NAME>
1-(4-chlorophenyl)-4-(thiophen-2-ylmethyl)piperazine

> <PUBCHEM_IUPAC_NAME_MARKUP>
1-(4-chlorophenyl)-4-(thiophen-2-ylmethyl)piperazine

> <PUBCHEM_IUPAC_NAME>
1-(4-chlorophenyl)-4-(thiophen-2-ylmethyl)piperazine

> <PUBCHEM_IUPAC_SYSTEMATIC_NAME>
1-(4-chlorophenyl)-4-(thiophen-2-ylmethyl)piperazine

> <PUBCHEM_IUPAC_TRADITIONAL_NAME>
1-(4-chlorophenyl)-4-(2-thenyl)piperazine

> <PUBCHEM_IUPAC_INCHI>
InChI=1S/C15H17ClN2S/c16-13-3-5-14(6-4-13)18-9-7-17(8-10-18)12-15-2-1-11-19-15/h1-6,11H,7-10,12H2

> <PUBCHEM_IUPAC_INCHIKEY>
HRSTWOYEDHKWAG-UHFFFAOYSA-N

> <PUBCHEM_XLOGP3_AA>
3.7

> <PUBCHEM_EXACT_MASS>
292.0800974

> <PUBCHEM_MOLECULAR_FORMULA>
C15H17ClN2S

> <PUBCHEM_MOLECULAR_WEIGHT>
292.8

> <PUBCHEM_OPENEYE_CAN_SMILES>
C1CN(CCN1CC2=CC=CS2)C3=CC=C(C=C3)Cl

> <PUBCHEM_OPENEYE_ISO_SMILES>
C1CN(CCN1CC2=CC=CS2)C3=CC=C(C=C3)Cl

> <PUBCHEM_CACTVS_TPSA>
34.7

> <PUBCHEM_MONOISOTOPIC_WEIGHT>
292.0800974

> <PUBCHEM_TOTAL_CHARGE>
0

> <PUBCHEM_HEAVY_ATOM_COUNT>
19

> <PUBCHEM_ATOM_DEF_STEREO_COUNT>
0

> <PUBCHEM_ATOM_UDEF_STEREO_COUNT>
0

> <PUBCHEM_BOND_DEF_STEREO_COUNT>
0

> <PUBCHEM_BOND_UDEF_STEREO_COUNT>
0

> <PUBCHEM_ISOTOPIC_ATOM_COUNT>
0

> <PUBCHEM_COMPONENT_COUNT>
1

> <PUBCHEM_CACTVS_TAUTO_COUNT>
-1

> <PUBCHEM_COORDINATE_TYPE>
1
5
255

> <PUBCHEM_BONDANNOTATIONS>
10  12  8
10  13  8
11  14  8
12  15  8
13  16  8
14  18  8
15  17  8
16  17  8
18  19  8
2  11  8
2  19  8

$$$$
