44437897
  -OEChem-09292322262D

 42 43  0     1  0  0  0  0  0999 V2000
    6.3301   -4.1555    0.0000 Br  0  0  0  0  0  0  0  0  0  0  0  0
    3.7320   -0.6555    0.0000 O   0  0  0  0  0  0  0  0  0  0  0  0
    2.8660   -2.1555    0.0000 O   0  0  0  0  0  0  0  0  0  0  0  0
    6.4347    1.8391    0.0000 N   0  0  3  0  0  0  0  0  0  0  0  0
    5.4641   -0.6555    0.0000 N   0  0  0  0  0  0  0  0  0  0  0  0
    6.3301    0.8445    0.0000 C   0  0  1  0  0  0  0  0  0  0  0  0
    7.2437    0.4378    0.0000 C   0  0  0  0  0  0  0  0  0  0  0  0
    7.9128    1.1809    0.0000 C   0  0  0  0  0  0  0  0  0  0  0  0
    7.4128    2.0470    0.0000 C   0  0  0  0  0  0  0  0  0  0  0  0
    5.4641    0.3445    0.0000 C   0  0  0  0  0  0  0  0  0  0  0  0
    5.6915    2.5082    0.0000 C   0  0  0  0  0  0  0  0  0  0  0  0
    5.8994    3.4863    0.0000 C   0  0  0  0  0  0  0  0  0  0  0  0
    4.5981   -1.1555    0.0000 C   0  0  0  0  0  0  0  0  0  0  0  0
    4.5981   -2.1555    0.0000 C   0  0  0  0  0  0  0  0  0  0  0  0
    5.1563    4.1555    0.0000 C   0  0  0  0  0  0  0  0  0  0  0  0
    3.7320   -2.6555    0.0000 C   0  0  0  0  0  0  0  0  0  0  0  0
    5.4641   -2.6555    0.0000 C   0  0  0  0  0  0  0  0  0  0  0  0
    3.7320   -3.6555    0.0000 C   0  0  0  0  0  0  0  0  0  0  0  0
    5.4641   -3.6555    0.0000 C   0  0  0  0  0  0  0  0  0  0  0  0
    4.5981   -4.1555    0.0000 C   0  0  0  0  0  0  0  0  0  0  0  0
    2.0000   -2.6555    0.0000 C   0  0  0  0  0  0  0  0  0  0  0  0
    5.8102    1.1822    0.0000 H   0  0  0  0  0  0  0  0  0  0  0  0
    6.9337   -0.0991    0.0000 H   0  0  0  0  0  0  0  0  0  0  0  0
    7.7453    0.0734    0.0000 H   0  0  0  0  0  0  0  0  0  0  0  0
    8.3277    0.7202    0.0000 H   0  0  0  0  0  0  0  0  0  0  0  0
    8.4144    1.5454    0.0000 H   0  0  0  0  0  0  0  0  0  0  0  0
    7.9792    2.2991    0.0000 H   0  0  0  0  0  0  0  0  0  0  0  0
    7.2212    2.6366    0.0000 H   0  0  0  0  0  0  0  0  0  0  0  0
    5.2520    0.9271    0.0000 H   0  0  0  0  0  0  0  0  0  0  0  0
    4.8535    0.2369    0.0000 H   0  0  0  0  0  0  0  0  0  0  0  0
    5.1167    2.7404    0.0000 H   0  0  0  0  0  0  0  0  0  0  0  0
    5.3630    1.9824    0.0000 H   0  0  0  0  0  0  0  0  0  0  0  0
    6.0010   -0.9655    0.0000 H   0  0  0  0  0  0  0  0  0  0  0  0
    6.4891    3.6779    0.0000 H   0  0  0  0  0  0  0  0  0  0  0  0
    5.2852    4.7619    0.0000 H   0  0  0  0  0  0  0  0  0  0  0  0
    4.5666    3.9639    0.0000 H   0  0  0  0  0  0  0  0  0  0  0  0
    6.0010   -2.3455    0.0000 H   0  0  0  0  0  0  0  0  0  0  0  0
    3.1951   -3.9655    0.0000 H   0  0  0  0  0  0  0  0  0  0  0  0
    4.5981   -4.7755    0.0000 H   0  0  0  0  0  0  0  0  0  0  0  0
    1.6900   -2.1185    0.0000 H   0  0  0  0  0  0  0  0  0  0  0  0
    1.4631   -2.9655    0.0000 H   0  0  0  0  0  0  0  0  0  0  0  0
    2.3100   -3.1924    0.0000 H   0  0  0  0  0  0  0  0  0  0  0  0
  1 19  1  0  0  0  0
  2 13  2  0  0  0  0
  3 16  1  0  0  0  0
  3 21  1  0  0  0  0
  4  6  1  0  0  0  0
  4  9  1  0  0  0  0
  4 11  1  0  0  0  0
  5 10  1  0  0  0  0
  5 13  1  0  0  0  0
  5 33  1  0  0  0  0
  6  7  1  0  0  0  0
  6 10  1  1  0  0  0
  6 22  1  0  0  0  0
  7  8  1  0  0  0  0
  7 23  1  0  0  0  0
  7 24  1  0  0  0  0
  8  9  1  0  0  0  0
  8 25  1  0  0  0  0
  8 26  1  0  0  0  0
  9 27  1  0  0  0  0
  9 28  1  0  0  0  0
 10 29  1  0  0  0  0
 10 30  1  0  0  0  0
 11 12  1  0  0  0  0
 11 31  1  0  0  0  0
 11 32  1  0  0  0  0
 12 15  2  0  0  0  0
 12 34  1  0  0  0  0
 13 14  1  0  0  0  0
 14 16  2  0  0  0  0
 14 17  1  0  0  0  0
 15 35  1  0  0  0  0
 15 36  1  0  0  0  0
 16 18  1  0  0  0  0
 17 19  2  0  0  0  0
 17 37  1  0  0  0  0
 18 20  2  0  0  0  0
 18 38  1  0  0  0  0
 19 20  1  0  0  0  0
 20 39  1  0  0  0  0
 21 40  1  0  0  0  0
 21 41  1  0  0  0  0
 21 42  1  0  0  0  0
M  END
> <PUBCHEM_COMPOUND_CID>
44437897

> <PUBCHEM_COMPOUND_CANONICALIZED>
1

> <PUBCHEM_CACTVS_COMPLEXITY>
364

> <PUBCHEM_CACTVS_HBOND_ACCEPTOR>
3

> <PUBCHEM_CACTVS_HBOND_DONOR>
1

> <PUBCHEM_CACTVS_ROTATABLE_BOND>
6

> <PUBCHEM_CACTVS_SUBSKEYS>
AAADceB7MAAAEAAAAAAAAAAAAAAAAWAAAAAwAAAAAAAAAAABAAAAHgBQAAABrCzBmAYyBoPABACIAiFSEACCCAAkIAQIiIEODOgMZjaEtRuUMWhm9hGIq5eYyCCOABAAEAAIAAAAIAAgABAAAAAAAAAAAA==

> <PUBCHEM_IUPAC_OPENEYE_NAME>
N-[[(2S)-1-allylpyrrolidin-2-yl]methyl]-5-bromo-2-methoxy-benzamide

> <PUBCHEM_IUPAC_CAS_NAME>
5-bromo-2-methoxy-N-[[(2S)-1-prop-2-enyl-2-pyrrolidinyl]methyl]benzamide

> <PUBCHEM_IUPAC_NAME_MARKUP>
5-bromo-2-methoxy-<I>N</I>-[[(2<I>S</I>)-1-prop-2-enylpyrrolidin-2-yl]methyl]benzamide

> <PUBCHEM_IUPAC_NAME>
5-bromo-2-methoxy-N-[[(2S)-1-prop-2-enylpyrrolidin-2-yl]methyl]benzamide

> <PUBCHEM_IUPAC_SYSTEMATIC_NAME>
5-bromanyl-2-methoxy-N-[[(2S)-1-prop-2-enylpyrrolidin-2-yl]methyl]benzamide

> <PUBCHEM_IUPAC_TRADITIONAL_NAME>
N-[[(2S)-1-allylpyrrolidin-2-yl]methyl]-5-bromo-2-methoxy-benzamide

> <PUBCHEM_IUPAC_INCHI>
InChI=1S/C16H21BrN2O2/c1-3-8-19-9-4-5-13(19)11-18-16(20)14-10-12(17)6-7-15(14)21-2/h3,6-7,10,13H,1,4-5,8-9,11H2,2H3,(H,18,20)/t13-/m0/s1

> <PUBCHEM_IUPAC_INCHIKEY>
YZUDCCCPYDXRSM-ZDUSSCGKSA-N

> <PUBCHEM_XLOGP3>
3

> <PUBCHEM_EXACT_MASS>
352.07864

> <PUBCHEM_MOLECULAR_FORMULA>
C16H21BrN2O2

> <PUBCHEM_MOLECULAR_WEIGHT>
353.25

> <PUBCHEM_OPENEYE_CAN_SMILES>
COC1=C(C=C(C=C1)Br)C(=O)NCC2CCCN2CC=C

> <PUBCHEM_OPENEYE_ISO_SMILES>
COC1=C(C=C(C=C1)Br)C(=O)NC[C@@H]2CCCN2CC=C

> <PUBCHEM_CACTVS_TPSA>
41.6

> <PUBCHEM_MONOISOTOPIC_WEIGHT>
352.07864

> <PUBCHEM_TOTAL_CHARGE>
0

> <PUBCHEM_HEAVY_ATOM_COUNT>
21

> <PUBCHEM_ATOM_DEF_STEREO_COUNT>
1

> <PUBCHEM_ATOM_UDEF_STEREO_COUNT>
0

> <PUBCHEM_BOND_DEF_STEREO_COUNT>
0

> <PUBCHEM_BOND_UDEF_STEREO_COUNT>
0

> <PUBCHEM_ISOTOPIC_ATOM_COUNT>
0

> <PUBCHEM_COMPONENT_COUNT>
1

> <PUBCHEM_CACTVS_TAUTO_COUNT>
-1

> <PUBCHEM_COORDINATE_TYPE>
1
5
255

> <PUBCHEM_BONDANNOTATIONS>
14  16  8
14  17  8
16  18  8
17  19  8
18  20  8
19  20  8
6  10  5

$$$$
