145983961
  -OEChem-09292322392D

 64 69  0     1  0  0  0  0  0999 V2000
    4.6660    0.1692    0.0000 S   0  0  0  0  0  0  0  0  0  0  0  0
   12.2739   -0.0673    0.0000 S   0  0  0  0  0  0  0  0  0  0  0  0
    5.6660    0.1692    0.0000 O   0  0  0  0  0  0  0  0  0  0  0  0
    3.6660    0.1692    0.0000 O   0  0  0  0  0  0  0  0  0  0  0  0
    4.6660    1.1692    0.0000 N   0  0  3  0  0  0  0  0  0  0  0  0
    8.1203    1.8080    0.0000 N   0  0  0  0  0  0  0  0  0  0  0  0
   10.0224    1.1900    0.0000 N   0  0  0  0  0  0  0  0  0  0  0  0
   11.2798   -0.0647    0.0000 N   0  0  0  0  0  0  0  0  0  0  0  0
    5.5321   -2.3308    0.0000 N   0  0  0  0  0  0  0  0  0  0  0  0
    5.4751    1.7570    0.0000 C   0  0  2  0  0  0  0  0  0  0  0  0
    5.1660    2.7080    0.0000 C   0  0  0  0  0  0  0  0  0  0  0  0
    6.4261    1.4479    0.0000 C   0  0  0  0  0  0  0  0  0  0  0  0
    4.1660    2.7080    0.0000 C   0  0  0  0  0  0  0  0  0  0  0  0
    3.8570    1.7570    0.0000 C   0  0  0  0  0  0  0  0  0  0  0  0
    7.1692    2.1171    0.0000 C   0  0  0  0  0  0  0  0  0  0  0  0
    8.3282    0.8299    0.0000 C   0  0  0  0  0  0  0  0  0  0  0  0
    8.8634    2.4772    0.0000 C   0  0  0  0  0  0  0  0  0  0  0  0
    9.2793    0.5209    0.0000 C   0  0  0  0  0  0  0  0  0  0  0  0
    9.8145    2.1682    0.0000 C   0  0  0  0  0  0  0  0  0  0  0  0
    4.6660   -0.8308    0.0000 C   0  0  0  0  0  0  0  0  0  0  0  0
   10.9735    0.8810    0.0000 C   0  0  0  0  0  0  0  0  0  0  0  0
    3.8000   -1.3308    0.0000 C   0  0  0  0  0  0  0  0  0  0  0  0
    5.5321   -1.3308    0.0000 C   0  0  0  0  0  0  0  0  0  0  0  0
   11.7772    1.4660    0.0000 C   0  0  0  0  0  0  0  0  0  0  0  0
    3.8000   -2.3308    0.0000 C   0  0  0  0  0  0  0  0  0  0  0  0
    2.9061   -0.7962    0.0000 C   0  0  0  0  0  0  0  0  0  0  0  0
   12.5852    0.8768    0.0000 C   0  0  0  0  0  0  0  0  0  0  0  0
    4.6660   -2.8308    0.0000 C   0  0  0  0  0  0  0  0  0  0  0  0
    2.9061   -2.8655    0.0000 C   0  0  0  0  0  0  0  0  0  0  0  0
   11.8834    2.4603    0.0000 C   0  0  0  0  0  0  0  0  0  0  0  0
    2.0000   -1.3100    0.0000 C   0  0  0  0  0  0  0  0  0  0  0  0
    2.0000   -2.3516    0.0000 C   0  0  0  0  0  0  0  0  0  0  0  0
   13.4994    1.2820    0.0000 C   0  0  0  0  0  0  0  0  0  0  0  0
   12.7977    2.8655    0.0000 C   0  0  0  0  0  0  0  0  0  0  0  0
   13.6057    2.2763    0.0000 C   0  0  0  0  0  0  0  0  0  0  0  0
    5.5720    1.1446    0.0000 H   0  0  0  0  0  0  0  0  0  0  0  0
    5.7725    2.8369    0.0000 H   0  0  0  0  0  0  0  0  0  0  0  0
    5.1012    3.3246    0.0000 H   0  0  0  0  0  0  0  0  0  0  0  0
    6.1350    0.9005    0.0000 H   0  0  0  0  0  0  0  0  0  0  0  0
    6.9147    1.0662    0.0000 H   0  0  0  0  0  0  0  0  0  0  0  0
    4.2308    3.3246    0.0000 H   0  0  0  0  0  0  0  0  0  0  0  0
    3.5596    2.8369    0.0000 H   0  0  0  0  0  0  0  0  0  0  0  0
    3.2906    2.0091    0.0000 H   0  0  0  0  0  0  0  0  0  0  0  0
    3.5470    1.2200    0.0000 H   0  0  0  0  0  0  0  0  0  0  0  0
    7.4603    2.6645    0.0000 H   0  0  0  0  0  0  0  0  0  0  0  0
    6.6807    2.4988    0.0000 H   0  0  0  0  0  0  0  0  0  0  0  0
    7.7086    0.8083    0.0000 H   0  0  0  0  0  0  0  0  0  0  0  0
    8.2419    0.2159    0.0000 H   0  0  0  0  0  0  0  0  0  0  0  0
    9.1545    3.0246    0.0000 H   0  0  0  0  0  0  0  0  0  0  0  0
    8.3749    2.8589    0.0000 H   0  0  0  0  0  0  0  0  0  0  0  0
    8.9882   -0.0265    0.0000 H   0  0  0  0  0  0  0  0  0  0  0  0
    9.7678    0.1392    0.0000 H   0  0  0  0  0  0  0  0  0  0  0  0
   10.4341    2.1898    0.0000 H   0  0  0  0  0  0  0  0  0  0  0  0
    9.9008    2.7821    0.0000 H   0  0  0  0  0  0  0  0  0  0  0  0
    6.0690   -1.0208    0.0000 H   0  0  0  0  0  0  0  0  0  0  0  0
    2.9132   -0.1762    0.0000 H   0  0  0  0  0  0  0  0  0  0  0  0
    4.6660   -3.4508    0.0000 H   0  0  0  0  0  0  0  0  0  0  0  0
    2.9132   -3.4854    0.0000 H   0  0  0  0  0  0  0  0  0  0  0  0
   11.3825    2.8256    0.0000 H   0  0  0  0  0  0  0  0  0  0  0  0
    1.4643   -0.9980    0.0000 H   0  0  0  0  0  0  0  0  0  0  0  0
    1.4643   -2.6637    0.0000 H   0  0  0  0  0  0  0  0  0  0  0  0
   14.0004    0.9167    0.0000 H   0  0  0  0  0  0  0  0  0  0  0  0
   12.8636    3.4820    0.0000 H   0  0  0  0  0  0  0  0  0  0  0  0
   14.1725    2.5275    0.0000 H   0  0  0  0  0  0  0  0  0  0  0  0
  1  3  2  0  0  0  0
  1  4  2  0  0  0  0
  1  5  1  0  0  0  0
  1 20  1  0  0  0  0
  2  8  1  0  0  0  0
  2 27  1  0  0  0  0
  5 10  1  0  0  0  0
  5 14  1  0  0  0  0
  6 15  1  0  0  0  0
  6 16  1  0  0  0  0
  6 17  1  0  0  0  0
  7 18  1  0  0  0  0
  7 19  1  0  0  0  0
  7 21  1  0  0  0  0
  8 21  2  0  0  0  0
  9 23  1  0  0  0  0
  9 28  2  0  0  0  0
 10 11  1  0  0  0  0
 10 12  1  6  0  0  0
 10 36  1  0  0  0  0
 11 13  1  0  0  0  0
 11 37  1  0  0  0  0
 11 38  1  0  0  0  0
 12 15  1  0  0  0  0
 12 39  1  0  0  0  0
 12 40  1  0  0  0  0
 13 14  1  0  0  0  0
 13 41  1  0  0  0  0
 13 42  1  0  0  0  0
 14 43  1  0  0  0  0
 14 44  1  0  0  0  0
 15 45  1  0  0  0  0
 15 46  1  0  0  0  0
 16 18  1  0  0  0  0
 16 47  1  0  0  0  0
 16 48  1  0  0  0  0
 17 19  1  0  0  0  0
 17 49  1  0  0  0  0
 17 50  1  0  0  0  0
 18 51  1  0  0  0  0
 18 52  1  0  0  0  0
 19 53  1  0  0  0  0
 19 54  1  0  0  0  0
 20 22  1  0  0  0  0
 20 23  2  0  0  0  0
 21 24  1  0  0  0  0
 22 25  1  0  0  0  0
 22 26  2  0  0  0  0
 23 55  1  0  0  0  0
 24 27  1  0  0  0  0
 24 30  2  0  0  0  0
 25 28  1  0  0  0  0
 25 29  2  0  0  0  0
 26 31  1  0  0  0  0
 26 56  1  0  0  0  0
 27 33  2  0  0  0  0
 28 57  1  0  0  0  0
 29 32  1  0  0  0  0
 29 58  1  0  0  0  0
 30 34  1  0  0  0  0
 30 59  1  0  0  0  0
 31 32  2  0  0  0  0
 31 60  1  0  0  0  0
 32 61  1  0  0  0  0
 33 35  1  0  0  0  0
 33 62  1  0  0  0  0
 34 35  2  0  0  0  0
 34 63  1  0  0  0  0
 35 64  1  0  0  0  0
M  END
> <PUBCHEM_COMPOUND_CID>
145983961

> <PUBCHEM_COMPOUND_CANONICALIZED>
1

> <PUBCHEM_CACTVS_COMPLEXITY>
815

> <PUBCHEM_CACTVS_HBOND_ACCEPTOR>
8

> <PUBCHEM_CACTVS_HBOND_DONOR>
0

> <PUBCHEM_CACTVS_ROTATABLE_BOND>
6

> <PUBCHEM_CACTVS_SUBSKEYS>
AAADceB7sABgAAAAAAAAAAAAAAAAAWLAAAA8eIEAAAAAAFix/gAAHAQAQAAADCjBWgQ9sdMIEAKkAjJnZHDDgDAxACBJ2DwoRJiIYOLA2ZGUIAxggALIyAcQgIAOgAAAAAAUAAAAAAAAACgAAAAAAAAAAA==

> <PUBCHEM_IUPAC_OPENEYE_NAME>
3-[4-[2-[(2R)-1-(4-isoquinolylsulfonyl)pyrrolidin-2-yl]ethyl]piperazin-1-yl]-1,2-benzothiazole

> <PUBCHEM_IUPAC_CAS_NAME>
3-[4-[2-[(2R)-1-(4-isoquinolinylsulfonyl)-2-pyrrolidinyl]ethyl]-1-piperazinyl]-1,2-benzothiazole

> <PUBCHEM_IUPAC_NAME_MARKUP>
3-[4-[2-[(2<I>R</I>)-1-isoquinolin-4-ylsulfonylpyrrolidin-2-yl]ethyl]piperazin-1-yl]-1,2-benzothiazole

> <PUBCHEM_IUPAC_NAME>
3-[4-[2-[(2R)-1-isoquinolin-4-ylsulfonylpyrrolidin-2-yl]ethyl]piperazin-1-yl]-1,2-benzothiazole

> <PUBCHEM_IUPAC_SYSTEMATIC_NAME>
3-[4-[2-[(2R)-1-isoquinolin-4-ylsulfonylpyrrolidin-2-yl]ethyl]piperazin-1-yl]-1,2-benzothiazole

> <PUBCHEM_IUPAC_TRADITIONAL_NAME>
3-[4-[2-[(2R)-1-(4-isoquinolylsulfonyl)pyrrolidin-2-yl]ethyl]piperazino]-1,2-benzothiazole

> <PUBCHEM_IUPAC_INCHI>
InChI=1S/C26H29N5O2S2/c32-35(33,25-19-27-18-20-6-1-2-8-22(20)25)31-12-5-7-21(31)11-13-29-14-16-30(17-15-29)26-23-9-3-4-10-24(23)34-28-26/h1-4,6,8-10,18-19,21H,5,7,11-17H2/t21-/m1/s1

> <PUBCHEM_IUPAC_INCHIKEY>
VKVJQSCYLIOFEN-OAQYLSRUSA-N

> <PUBCHEM_XLOGP3_AA>
4.5

> <PUBCHEM_EXACT_MASS>
507.17626753

> <PUBCHEM_MOLECULAR_FORMULA>
C26H29N5O2S2

> <PUBCHEM_MOLECULAR_WEIGHT>
507.7

> <PUBCHEM_OPENEYE_CAN_SMILES>
C1CC(N(C1)S(=O)(=O)C2=CN=CC3=CC=CC=C32)CCN4CCN(CC4)C5=NSC6=CC=CC=C65

> <PUBCHEM_OPENEYE_ISO_SMILES>
C1C[C@@H](N(C1)S(=O)(=O)C2=CN=CC3=CC=CC=C32)CCN4CCN(CC4)C5=NSC6=CC=CC=C65

> <PUBCHEM_CACTVS_TPSA>
106

> <PUBCHEM_MONOISOTOPIC_WEIGHT>
507.17626753

> <PUBCHEM_TOTAL_CHARGE>
0

> <PUBCHEM_HEAVY_ATOM_COUNT>
35

> <PUBCHEM_ATOM_DEF_STEREO_COUNT>
1

> <PUBCHEM_ATOM_UDEF_STEREO_COUNT>
0

> <PUBCHEM_BOND_DEF_STEREO_COUNT>
0

> <PUBCHEM_BOND_UDEF_STEREO_COUNT>
0

> <PUBCHEM_ISOTOPIC_ATOM_COUNT>
0

> <PUBCHEM_COMPONENT_COUNT>
1

> <PUBCHEM_CACTVS_TAUTO_COUNT>
-1

> <PUBCHEM_COORDINATE_TYPE>
1
5
255

> <PUBCHEM_BONDANNOTATIONS>
10  12  6
2  27  8
2  8  8
20  22  8
20  23  8
21  24  8
22  25  8
22  26  8
24  27  8
24  30  8
25  28  8
25  29  8
26  31  8
27  33  8
29  32  8
30  34  8
31  32  8
33  35  8
34  35  8
8  21  8
9  23  8
9  28  8

$$$$
