118709167
  -OEChem-09292322352D

136141  0     0  0  0  0  0  0999 V2000
    2.5981    0.4330    0.0000 Cl  0  0  0  0  0  0  0  0  0  0  0  0
   19.0981   -0.4330    0.0000 Cl  0  0  0  0  0  0  0  0  0  0  0  0
    2.8660   12.8971    0.0000 F   0  0  0  0  0  0  0  0  0  0  0  0
   15.3660  -12.8971    0.0000 F   0  0  0  0  0  0  0  0  0  0  0  0
    5.0981    3.0311    0.0000 O   0  0  0  0  0  0  0  0  0  0  0  0
   16.5981   -3.0311    0.0000 O   0  0  0  0  0  0  0  0  0  0  0  0
    6.5981    3.8971    0.0000 O   0  0  0  0  0  0  0  0  0  0  0  0
   15.0981   -3.8971    0.0000 O   0  0  0  0  0  0  0  0  0  0  0  0
    2.0000    8.3971    0.0000 O   0  0  0  0  0  0  0  0  0  0  0  0
   14.5000   -8.3971    0.0000 O   0  0  0  0  0  0  0  0  0  0  0  0
    4.5981    5.8971    0.0000 N   0  0  0  0  0  0  0  0  0  0  0  0
   17.0981   -5.8971    0.0000 N   0  0  0  0  0  0  0  0  0  0  0  0
    4.5981    3.8971    0.0000 C   0  0  0  0  0  0  0  0  0  0  0  0
   17.0981   -3.8971    0.0000 C   0  0  0  0  0  0  0  0  0  0  0  0
    5.4641    4.3971    0.0000 C   0  0  0  0  0  0  0  0  0  0  0  0
    3.7320    4.3971    0.0000 C   0  0  0  0  0  0  0  0  0  0  0  0
   16.2320   -4.3971    0.0000 C   0  0  0  0  0  0  0  0  0  0  0  0
   17.9641   -4.3971    0.0000 C   0  0  0  0  0  0  0  0  0  0  0  0
    5.4641    5.3971    0.0000 C   0  0  0  0  0  0  0  0  0  0  0  0
    3.7320    5.3971    0.0000 C   0  0  0  0  0  0  0  0  0  0  0  0
   16.2320   -5.3971    0.0000 C   0  0  0  0  0  0  0  0  0  0  0  0
   17.9641   -5.3971    0.0000 C   0  0  0  0  0  0  0  0  0  0  0  0
    4.0981    3.0311    0.0000 C   0  0  0  0  0  0  0  0  0  0  0  0
   17.5981   -3.0311    0.0000 C   0  0  0  0  0  0  0  0  0  0  0  0
    4.5981    6.8971    0.0000 C   0  0  0  0  0  0  0  0  0  0  0  0
   17.0981   -6.8971    0.0000 C   0  0  0  0  0  0  0  0  0  0  0  0
    3.7320    7.3971    0.0000 C   0  0  0  0  0  0  0  0  0  0  0  0
   16.2320   -7.3971    0.0000 C   0  0  0  0  0  0  0  0  0  0  0  0
    3.0981    3.0311    0.0000 C   0  0  0  0  0  0  0  0  0  0  0  0
   18.5981   -3.0311    0.0000 C   0  0  0  0  0  0  0  0  0  0  0  0
    4.5981    2.1651    0.0000 C   0  0  0  0  0  0  0  0  0  0  0  0
   17.0981   -2.1651    0.0000 C   0  0  0  0  0  0  0  0  0  0  0  0
    6.0981    3.0311    0.0000 C   0  0  0  0  0  0  0  0  0  0  0  0
   15.5981   -3.0311    0.0000 C   0  0  0  0  0  0  0  0  0  0  0  0
    3.7320    8.3971    0.0000 C   0  0  0  0  0  0  0  0  0  0  0  0
   16.2320   -8.3971    0.0000 C   0  0  0  0  0  0  0  0  0  0  0  0
    6.5981    2.1651    0.0000 C   0  0  0  0  0  0  0  0  0  0  0  0
   15.0981   -2.1651    0.0000 C   0  0  0  0  0  0  0  0  0  0  0  0
    2.5981    2.1651    0.0000 C   0  0  0  0  0  0  0  0  0  0  0  0
   19.0981   -2.1651    0.0000 C   0  0  0  0  0  0  0  0  0  0  0  0
    4.0981    1.2990    0.0000 C   0  0  0  0  0  0  0  0  0  0  0  0
   17.5981   -1.2990    0.0000 C   0  0  0  0  0  0  0  0  0  0  0  0
    7.5981    2.1651    0.0000 C   0  0  0  0  0  0  0  0  0  0  0  0
   14.0981   -2.1651    0.0000 C   0  0  0  0  0  0  0  0  0  0  0  0
    3.0981    1.2990    0.0000 C   0  0  0  0  0  0  0  0  0  0  0  0
   18.5981   -1.2990    0.0000 C   0  0  0  0  0  0  0  0  0  0  0  0
    8.0981    1.2990    0.0000 C   0  0  0  0  0  0  0  0  0  0  0  0
   13.5981   -1.2990    0.0000 C   0  0  0  0  0  0  0  0  0  0  0  0
    2.8660    8.8971    0.0000 C   0  0  0  0  0  0  0  0  0  0  0  0
   15.3660   -8.8971    0.0000 C   0  0  0  0  0  0  0  0  0  0  0  0
    9.0981    1.2990    0.0000 C   0  0  0  0  0  0  0  0  0  0  0  0
   12.5981   -1.2990    0.0000 C   0  0  0  0  0  0  0  0  0  0  0  0
    9.5981    0.4330    0.0000 C   0  0  0  0  0  0  0  0  0  0  0  0
   12.0981   -0.4330    0.0000 C   0  0  0  0  0  0  0  0  0  0  0  0
   10.5981    0.4330    0.0000 C   0  0  0  0  0  0  0  0  0  0  0  0
   11.0981   -0.4330    0.0000 C   0  0  0  0  0  0  0  0  0  0  0  0
    2.8660    9.8971    0.0000 C   0  0  0  0  0  0  0  0  0  0  0  0
   15.3660   -9.8971    0.0000 C   0  0  0  0  0  0  0  0  0  0  0  0
    2.0000   10.3971    0.0000 C   0  0  0  0  0  0  0  0  0  0  0  0
   16.2320  -10.3971    0.0000 C   0  0  0  0  0  0  0  0  0  0  0  0
    3.7320   10.3971    0.0000 C   0  0  0  0  0  0  0  0  0  0  0  0
   14.5000  -10.3971    0.0000 C   0  0  0  0  0  0  0  0  0  0  0  0
    2.0000   11.3971    0.0000 C   0  0  0  0  0  0  0  0  0  0  0  0
   16.2320  -11.3971    0.0000 C   0  0  0  0  0  0  0  0  0  0  0  0
    3.7320   11.3971    0.0000 C   0  0  0  0  0  0  0  0  0  0  0  0
   14.5000  -11.3971    0.0000 C   0  0  0  0  0  0  0  0  0  0  0  0
    2.8660   11.8971    0.0000 C   0  0  0  0  0  0  0  0  0  0  0  0
   15.3660  -11.8971    0.0000 C   0  0  0  0  0  0  0  0  0  0  0  0
    5.6762    3.8145    0.0000 H   0  0  0  0  0  0  0  0  0  0  0  0
    6.0747    4.5048    0.0000 H   0  0  0  0  0  0  0  0  0  0  0  0
    3.1215    4.5048    0.0000 H   0  0  0  0  0  0  0  0  0  0  0  0
    3.5200    3.8145    0.0000 H   0  0  0  0  0  0  0  0  0  0  0  0
   16.0200   -3.8145    0.0000 H   0  0  0  0  0  0  0  0  0  0  0  0
   15.6215   -4.5048    0.0000 H   0  0  0  0  0  0  0  0  0  0  0  0
   18.5747   -4.5048    0.0000 H   0  0  0  0  0  0  0  0  0  0  0  0
   18.1762   -3.8145    0.0000 H   0  0  0  0  0  0  0  0  0  0  0  0
    6.0747    5.2895    0.0000 H   0  0  0  0  0  0  0  0  0  0  0  0
    5.6762    5.9797    0.0000 H   0  0  0  0  0  0  0  0  0  0  0  0
    3.5200    5.9797    0.0000 H   0  0  0  0  0  0  0  0  0  0  0  0
    3.1215    5.2895    0.0000 H   0  0  0  0  0  0  0  0  0  0  0  0
   15.6215   -5.2895    0.0000 H   0  0  0  0  0  0  0  0  0  0  0  0
   16.0200   -5.9797    0.0000 H   0  0  0  0  0  0  0  0  0  0  0  0
   18.1762   -5.9797    0.0000 H   0  0  0  0  0  0  0  0  0  0  0  0
   18.5747   -5.2895    0.0000 H   0  0  0  0  0  0  0  0  0  0  0  0
    5.2087    6.7894    0.0000 H   0  0  0  0  0  0  0  0  0  0  0  0
    4.8101    7.4797    0.0000 H   0  0  0  0  0  0  0  0  0  0  0  0
   17.3101   -7.4797    0.0000 H   0  0  0  0  0  0  0  0  0  0  0  0
   17.7087   -6.7894    0.0000 H   0  0  0  0  0  0  0  0  0  0  0  0
    3.1215    7.5048    0.0000 H   0  0  0  0  0  0  0  0  0  0  0  0
    3.5200    6.8145    0.0000 H   0  0  0  0  0  0  0  0  0  0  0  0
   16.0200   -6.8145    0.0000 H   0  0  0  0  0  0  0  0  0  0  0  0
   15.6215   -7.5048    0.0000 H   0  0  0  0  0  0  0  0  0  0  0  0
    2.7881    3.5680    0.0000 H   0  0  0  0  0  0  0  0  0  0  0  0
   18.9081   -3.5680    0.0000 H   0  0  0  0  0  0  0  0  0  0  0  0
    5.2181    2.1651    0.0000 H   0  0  0  0  0  0  0  0  0  0  0  0
   16.4781   -2.1651    0.0000 H   0  0  0  0  0  0  0  0  0  0  0  0
    4.3426    8.2894    0.0000 H   0  0  0  0  0  0  0  0  0  0  0  0
    3.9441    8.9797    0.0000 H   0  0  0  0  0  0  0  0  0  0  0  0
   16.4441   -8.9797    0.0000 H   0  0  0  0  0  0  0  0  0  0  0  0
   16.8426   -8.2894    0.0000 H   0  0  0  0  0  0  0  0  0  0  0  0
    6.0155    1.9530    0.0000 H   0  0  0  0  0  0  0  0  0  0  0  0
    6.7057    1.5545    0.0000 H   0  0  0  0  0  0  0  0  0  0  0  0
   15.6807   -1.9530    0.0000 H   0  0  0  0  0  0  0  0  0  0  0  0
   14.9904   -1.5545    0.0000 H   0  0  0  0  0  0  0  0  0  0  0  0
    1.9781    2.1651    0.0000 H   0  0  0  0  0  0  0  0  0  0  0  0
   19.7181   -2.1651    0.0000 H   0  0  0  0  0  0  0  0  0  0  0  0
    4.4081    0.7621    0.0000 H   0  0  0  0  0  0  0  0  0  0  0  0
   17.2881   -0.7621    0.0000 H   0  0  0  0  0  0  0  0  0  0  0  0
    8.1807    2.3771    0.0000 H   0  0  0  0  0  0  0  0  0  0  0  0
    7.4904    2.7756    0.0000 H   0  0  0  0  0  0  0  0  0  0  0  0
   13.5155   -2.3771    0.0000 H   0  0  0  0  0  0  0  0  0  0  0  0
   14.2057   -2.7756    0.0000 H   0  0  0  0  0  0  0  0  0  0  0  0
    7.5155    1.0870    0.0000 H   0  0  0  0  0  0  0  0  0  0  0  0
    8.2057    0.6885    0.0000 H   0  0  0  0  0  0  0  0  0  0  0  0
   14.1807   -1.0870    0.0000 H   0  0  0  0  0  0  0  0  0  0  0  0
   13.4904   -0.6885    0.0000 H   0  0  0  0  0  0  0  0  0  0  0  0
    9.6807    1.5111    0.0000 H   0  0  0  0  0  0  0  0  0  0  0  0
    8.9904    1.9096    0.0000 H   0  0  0  0  0  0  0  0  0  0  0  0
   12.0155   -1.5111    0.0000 H   0  0  0  0  0  0  0  0  0  0  0  0
   12.7057   -1.9096    0.0000 H   0  0  0  0  0  0  0  0  0  0  0  0
    9.0155    0.2210    0.0000 H   0  0  0  0  0  0  0  0  0  0  0  0
    9.7057   -0.1776    0.0000 H   0  0  0  0  0  0  0  0  0  0  0  0
   12.6807   -0.2210    0.0000 H   0  0  0  0  0  0  0  0  0  0  0  0
   11.9904    0.1776    0.0000 H   0  0  0  0  0  0  0  0  0  0  0  0
   11.1807    0.6451    0.0000 H   0  0  0  0  0  0  0  0  0  0  0  0
   10.4904    1.0436    0.0000 H   0  0  0  0  0  0  0  0  0  0  0  0
   10.5155   -0.6451    0.0000 H   0  0  0  0  0  0  0  0  0  0  0  0
   11.2057   -1.0436    0.0000 H   0  0  0  0  0  0  0  0  0  0  0  0
    1.4631   10.0871    0.0000 H   0  0  0  0  0  0  0  0  0  0  0  0
   16.7690  -10.0871    0.0000 H   0  0  0  0  0  0  0  0  0  0  0  0
    4.2690   10.0871    0.0000 H   0  0  0  0  0  0  0  0  0  0  0  0
   13.9631  -10.0871    0.0000 H   0  0  0  0  0  0  0  0  0  0  0  0
    1.4631   11.7071    0.0000 H   0  0  0  0  0  0  0  0  0  0  0  0
   16.7690  -11.7071    0.0000 H   0  0  0  0  0  0  0  0  0  0  0  0
    4.2690   11.7071    0.0000 H   0  0  0  0  0  0  0  0  0  0  0  0
   13.9631  -11.7071    0.0000 H   0  0  0  0  0  0  0  0  0  0  0  0
  1 45  1  0  0  0  0
  2 46  1  0  0  0  0
  3 67  1  0  0  0  0
  4 68  1  0  0  0  0
  5 13  1  0  0  0  0
  5 33  1  0  0  0  0
  6 14  1  0  0  0  0
  6 34  1  0  0  0  0
  7 33  2  0  0  0  0
  8 34  2  0  0  0  0
  9 49  2  0  0  0  0
 10 50  2  0  0  0  0
 11 19  1  0  0  0  0
 11 20  1  0  0  0  0
 11 25  1  0  0  0  0
 12 21  1  0  0  0  0
 12 22  1  0  0  0  0
 12 26  1  0  0  0  0
 13 15  1  0  0  0  0
 13 16  1  0  0  0  0
 13 23  1  0  0  0  0
 14 17  1  0  0  0  0
 14 18  1  0  0  0  0
 14 24  1  0  0  0  0
 15 19  1  0  0  0  0
 15 69  1  0  0  0  0
 15 70  1  0  0  0  0
 16 20  1  0  0  0  0
 16 71  1  0  0  0  0
 16 72  1  0  0  0  0
 17 21  1  0  0  0  0
 17 73  1  0  0  0  0
 17 74  1  0  0  0  0
 18 22  1  0  0  0  0
 18 75  1  0  0  0  0
 18 76  1  0  0  0  0
 19 77  1  0  0  0  0
 19 78  1  0  0  0  0
 20 79  1  0  0  0  0
 20 80  1  0  0  0  0
 21 81  1  0  0  0  0
 21 82  1  0  0  0  0
 22 83  1  0  0  0  0
 22 84  1  0  0  0  0
 23 29  2  0  0  0  0
 23 31  1  0  0  0  0
 24 30  2  0  0  0  0
 24 32  1  0  0  0  0
 25 27  1  0  0  0  0
 25 85  1  0  0  0  0
 25 86  1  0  0  0  0
 26 28  1  0  0  0  0
 26 87  1  0  0  0  0
 26 88  1  0  0  0  0
 27 35  1  0  0  0  0
 27 89  1  0  0  0  0
 27 90  1  0  0  0  0
 28 36  1  0  0  0  0
 28 91  1  0  0  0  0
 28 92  1  0  0  0  0
 29 39  1  0  0  0  0
 29 93  1  0  0  0  0
 30 40  1  0  0  0  0
 30 94  1  0  0  0  0
 31 41  2  0  0  0  0
 31 95  1  0  0  0  0
 32 42  2  0  0  0  0
 32 96  1  0  0  0  0
 33 37  1  0  0  0  0
 34 38  1  0  0  0  0
 35 49  1  0  0  0  0
 35 97  1  0  0  0  0
 35 98  1  0  0  0  0
 36 50  1  0  0  0  0
 36 99  1  0  0  0  0
 36100  1  0  0  0  0
 37 43  1  0  0  0  0
 37101  1  0  0  0  0
 37102  1  0  0  0  0
 38 44  1  0  0  0  0
 38103  1  0  0  0  0
 38104  1  0  0  0  0
 39 45  2  0  0  0  0
 39105  1  0  0  0  0
 40 46  2  0  0  0  0
 40106  1  0  0  0  0
 41 45  1  0  0  0  0
 41107  1  0  0  0  0
 42 46  1  0  0  0  0
 42108  1  0  0  0  0
 43 47  1  0  0  0  0
 43109  1  0  0  0  0
 43110  1  0  0  0  0
 44 48  1  0  0  0  0
 44111  1  0  0  0  0
 44112  1  0  0  0  0
 47 51  1  0  0  0  0
 47113  1  0  0  0  0
 47114  1  0  0  0  0
 48 52  1  0  0  0  0
 48115  1  0  0  0  0
 48116  1  0  0  0  0
 49 57  1  0  0  0  0
 50 58  1  0  0  0  0
 51 53  1  0  0  0  0
 51117  1  0  0  0  0
 51118  1  0  0  0  0
 52 54  1  0  0  0  0
 52119  1  0  0  0  0
 52120  1  0  0  0  0
 53 55  1  0  0  0  0
 53121  1  0  0  0  0
 53122  1  0  0  0  0
 54 56  1  0  0  0  0
 54123  1  0  0  0  0
 54124  1  0  0  0  0
 55 56  1  0  0  0  0
 55125  1  0  0  0  0
 55126  1  0  0  0  0
 56127  1  0  0  0  0
 56128  1  0  0  0  0
 57 59  2  0  0  0  0
 57 61  1  0  0  0  0
 58 60  2  0  0  0  0
 58 62  1  0  0  0  0
 59 63  1  0  0  0  0
 59129  1  0  0  0  0
 60 64  1  0  0  0  0
 60130  1  0  0  0  0
 61 65  2  0  0  0  0
 61131  1  0  0  0  0
 62 66  2  0  0  0  0
 62132  1  0  0  0  0
 63 67  2  0  0  0  0
 63133  1  0  0  0  0
 64 68  2  0  0  0  0
 64134  1  0  0  0  0
 65 67  1  0  0  0  0
 65135  1  0  0  0  0
 66 68  1  0  0  0  0
 66136  1  0  0  0  0
M  END
> <PUBCHEM_COMPOUND_CID>
118709167

> <PUBCHEM_COMPOUND_CANONICALIZED>
1

> <PUBCHEM_CACTVS_COMPLEXITY>
1380

> <PUBCHEM_CACTVS_HBOND_ACCEPTOR>
10

> <PUBCHEM_CACTVS_HBOND_DONOR>
0

> <PUBCHEM_CACTVS_ROTATABLE_BOND>
29

> <PUBCHEM_CACTVS_SUBSKEYS>
AAADcfB/OYAGAAAAAAAAAAAAAAAAAAAAAAA8eMGCAAAAAAABVAAAHwIAAAAADEbBmCwwCIMABACIAqDSCAACAAAkBQAIiAEICsgIJjKBtxiGMQAmwAGIqYecyOCOhAAAAAAAAAAIAAAAAAAAAAAAAAAAAA==

> <PUBCHEM_IUPAC_OPENEYE_NAME>
bis[4-(4-chlorophenyl)-1-[4-(4-fluorophenyl)-4-oxo-butyl]-4-piperidyl] tetradecanedioate

> <PUBCHEM_IUPAC_CAS_NAME>
tetradecanedioic acid bis[4-(4-chlorophenyl)-1-[4-(4-fluorophenyl)-4-oxobutyl]-4-piperidinyl] ester

> <PUBCHEM_IUPAC_NAME_MARKUP>
bis[4-(4-chlorophenyl)-1-[4-(4-fluorophenyl)-4-oxobutyl]piperidin-4-yl] tetradecanedioate

> <PUBCHEM_IUPAC_NAME>
bis[4-(4-chlorophenyl)-1-[4-(4-fluorophenyl)-4-oxobutyl]piperidin-4-yl] tetradecanedioate

> <PUBCHEM_IUPAC_SYSTEMATIC_NAME>
bis[4-(4-chlorophenyl)-1-[4-(4-fluorophenyl)-4-oxidanylidene-butyl]piperidin-4-yl] tetradecanedioate

> <PUBCHEM_IUPAC_TRADITIONAL_NAME>
tetradecanedioic acid bis[4-(4-chlorophenyl)-1-[4-(4-fluorophenyl)-4-keto-butyl]-4-piperidyl] ester

> <PUBCHEM_IUPAC_INCHI>
InChI=1S/C56H68Cl2F2N2O6/c57-47-25-21-45(22-26-47)55(33-39-61(40-34-55)37-11-13-51(63)43-17-29-49(59)30-18-43)67-53(65)15-9-7-5-3-1-2-4-6-8-10-16-54(66)68-56(46-23-27-48(58)28-24-46)35-41-62(42-36-56)38-12-14-52(64)44-19-31-50(60)32-20-44/h17-32H,1-16,33-42H2

> <PUBCHEM_IUPAC_INCHIKEY>
KHEBQTBTKXEQAN-UHFFFAOYSA-N

> <PUBCHEM_XLOGP3_AA>
13.5

> <PUBCHEM_EXACT_MASS>
972.4422496

> <PUBCHEM_MOLECULAR_FORMULA>
C56H68Cl2F2N2O6

> <PUBCHEM_MOLECULAR_WEIGHT>
974.0

> <PUBCHEM_OPENEYE_CAN_SMILES>
C1CN(CCC1(C2=CC=C(C=C2)Cl)OC(=O)CCCCCCCCCCCCC(=O)OC3(CCN(CC3)CCCC(=O)C4=CC=C(C=C4)F)C5=CC=C(C=C5)Cl)CCCC(=O)C6=CC=C(C=C6)F

> <PUBCHEM_OPENEYE_ISO_SMILES>
C1CN(CCC1(C2=CC=C(C=C2)Cl)OC(=O)CCCCCCCCCCCCC(=O)OC3(CCN(CC3)CCCC(=O)C4=CC=C(C=C4)F)C5=CC=C(C=C5)Cl)CCCC(=O)C6=CC=C(C=C6)F

> <PUBCHEM_CACTVS_TPSA>
93.2

> <PUBCHEM_MONOISOTOPIC_WEIGHT>
972.4422496

> <PUBCHEM_TOTAL_CHARGE>
0

> <PUBCHEM_HEAVY_ATOM_COUNT>
68

> <PUBCHEM_ATOM_DEF_STEREO_COUNT>
0

> <PUBCHEM_ATOM_UDEF_STEREO_COUNT>
0

> <PUBCHEM_BOND_DEF_STEREO_COUNT>
0

> <PUBCHEM_BOND_UDEF_STEREO_COUNT>
0

> <PUBCHEM_ISOTOPIC_ATOM_COUNT>
0

> <PUBCHEM_COMPONENT_COUNT>
1

> <PUBCHEM_CACTVS_TAUTO_COUNT>
-1

> <PUBCHEM_COORDINATE_TYPE>
1
5
255

> <PUBCHEM_BONDANNOTATIONS>
23  29  8
23  31  8
24  30  8
24  32  8
29  39  8
30  40  8
31  41  8
32  42  8
39  45  8
40  46  8
41  45  8
42  46  8
57  59  8
57  61  8
58  60  8
58  62  8
59  63  8
60  64  8
61  65  8
62  66  8
63  67  8
64  68  8
65  67  8
66  68  8

$$$$
