15949564
  -OEChem-09292322272D

 64 66  0     0  0  0  0  0  0999 V2000
    3.3660   -6.4330    0.0000 F   0  0  0  0  0  0  0  0  0  0  0  0
    2.0000   -6.0670    0.0000 F   0  0  0  0  0  0  0  0  0  0  0  0
    2.3660   -4.7010    0.0000 F   0  0  0  0  0  0  0  0  0  0  0  0
    8.0622    3.4330    0.0000 O   0  0  0  0  0  0  0  0  0  0  0  0
    4.5981   -0.5670    0.0000 N   0  0  0  0  0  0  0  0  0  0  0  0
    4.5981   -2.5670    0.0000 N   0  0  0  0  0  0  0  0  0  0  0  0
    5.4641   -4.0670    0.0000 N   0  0  0  0  0  0  0  0  0  0  0  0
    6.3301    3.4330    0.0000 N   0  0  0  0  0  0  0  0  0  0  0  0
    4.5981   -5.5670    0.0000 N   0  0  0  0  0  0  0  0  0  0  0  0
    5.4641   -1.0670    0.0000 C   0  0  0  0  0  0  0  0  0  0  0  0
    3.7320   -1.0670    0.0000 C   0  0  0  0  0  0  0  0  0  0  0  0
    5.4641   -2.0670    0.0000 C   0  0  0  0  0  0  0  0  0  0  0  0
    3.7320   -2.0670    0.0000 C   0  0  0  0  0  0  0  0  0  0  0  0
    4.5981    0.4330    0.0000 C   0  0  0  0  0  0  0  0  0  0  0  0
    5.4641    0.9330    0.0000 C   0  0  0  0  0  0  0  0  0  0  0  0
    4.5981   -3.5670    0.0000 C   0  0  0  0  0  0  0  0  0  0  0  0
    5.4641    1.9330    0.0000 C   0  0  0  0  0  0  0  0  0  0  0  0
    6.3301   -5.5670    0.0000 C   0  0  0  0  0  0  0  0  0  0  0  0
    6.3301    2.4330    0.0000 C   0  0  0  0  0  0  0  0  0  0  0  0
    5.4641   -5.0670    0.0000 C   0  0  0  0  0  0  0  0  0  0  0  0
    3.7320   -4.0670    0.0000 C   0  0  0  0  0  0  0  0  0  0  0  0
    3.7320   -5.0670    0.0000 C   0  0  0  0  0  0  0  0  0  0  0  0
    7.1962   -6.0670    0.0000 C   0  0  0  0  0  0  0  0  0  0  0  0
    5.8301   -6.4330    0.0000 C   0  0  0  0  0  0  0  0  0  0  0  0
    6.8301   -4.7010    0.0000 C   0  0  0  0  0  0  0  0  0  0  0  0
    2.8660   -5.5670    0.0000 C   0  0  0  0  0  0  0  0  0  0  0  0
    7.1962    3.9330    0.0000 C   0  0  0  0  0  0  0  0  0  0  0  0
    5.4641    3.9330    0.0000 C   0  0  0  0  0  0  0  0  0  0  0  0
    7.1962    4.9330    0.0000 C   0  0  0  0  0  0  0  0  0  0  0  0
    5.4641    4.9330    0.0000 C   0  0  0  0  0  0  0  0  0  0  0  0
    6.3301    5.4330    0.0000 C   0  0  0  0  0  0  0  0  0  0  0  0
    6.3301    6.4330    0.0000 C   0  0  0  0  0  0  0  0  0  0  0  0
    6.0747   -1.1746    0.0000 H   0  0  0  0  0  0  0  0  0  0  0  0
    5.6762   -0.4844    0.0000 H   0  0  0  0  0  0  0  0  0  0  0  0
    3.5200   -0.4844    0.0000 H   0  0  0  0  0  0  0  0  0  0  0  0
    3.1215   -1.1746    0.0000 H   0  0  0  0  0  0  0  0  0  0  0  0
    5.6762   -2.6496    0.0000 H   0  0  0  0  0  0  0  0  0  0  0  0
    6.0747   -1.9593    0.0000 H   0  0  0  0  0  0  0  0  0  0  0  0
    3.1215   -1.9593    0.0000 H   0  0  0  0  0  0  0  0  0  0  0  0
    3.5200   -2.6496    0.0000 H   0  0  0  0  0  0  0  0  0  0  0  0
    4.3860    1.0156    0.0000 H   0  0  0  0  0  0  0  0  0  0  0  0
    3.9875    0.3254    0.0000 H   0  0  0  0  0  0  0  0  0  0  0  0
    5.6762    0.3504    0.0000 H   0  0  0  0  0  0  0  0  0  0  0  0
    6.0747    1.0407    0.0000 H   0  0  0  0  0  0  0  0  0  0  0  0
    5.2520    2.5156    0.0000 H   0  0  0  0  0  0  0  0  0  0  0  0
    4.8535    1.8254    0.0000 H   0  0  0  0  0  0  0  0  0  0  0  0
    6.5422    1.8504    0.0000 H   0  0  0  0  0  0  0  0  0  0  0  0
    6.9407    2.5407    0.0000 H   0  0  0  0  0  0  0  0  0  0  0  0
    3.1951   -3.7570    0.0000 H   0  0  0  0  0  0  0  0  0  0  0  0
    6.8862   -6.6039    0.0000 H   0  0  0  0  0  0  0  0  0  0  0  0
    7.7331   -6.3770    0.0000 H   0  0  0  0  0  0  0  0  0  0  0  0
    7.5062   -5.5300    0.0000 H   0  0  0  0  0  0  0  0  0  0  0  0
    5.2932   -6.1230    0.0000 H   0  0  0  0  0  0  0  0  0  0  0  0
    5.5201   -6.9700    0.0000 H   0  0  0  0  0  0  0  0  0  0  0  0
    6.3671   -6.7430    0.0000 H   0  0  0  0  0  0  0  0  0  0  0  0
    7.3671   -5.0110    0.0000 H   0  0  0  0  0  0  0  0  0  0  0  0
    7.1401   -4.1640    0.0000 H   0  0  0  0  0  0  0  0  0  0  0  0
    6.2932   -4.3910    0.0000 H   0  0  0  0  0  0  0  0  0  0  0  0
    4.9272    3.6230    0.0000 H   0  0  0  0  0  0  0  0  0  0  0  0
    7.7331    5.2430    0.0000 H   0  0  0  0  0  0  0  0  0  0  0  0
    4.9272    5.2430    0.0000 H   0  0  0  0  0  0  0  0  0  0  0  0
    6.9501    6.4330    0.0000 H   0  0  0  0  0  0  0  0  0  0  0  0
    6.3301    7.0530    0.0000 H   0  0  0  0  0  0  0  0  0  0  0  0
    5.7101    6.4330    0.0000 H   0  0  0  0  0  0  0  0  0  0  0  0
  1 26  1  0  0  0  0
  2 26  1  0  0  0  0
  3 26  1  0  0  0  0
  4 27  2  0  0  0  0
  5 10  1  0  0  0  0
  5 11  1  0  0  0  0
  5 14  1  0  0  0  0
  6 12  1  0  0  0  0
  6 13  1  0  0  0  0
  6 16  1  0  0  0  0
  7 16  2  0  0  0  0
  7 20  1  0  0  0  0
  8 19  1  0  0  0  0
  8 27  1  0  0  0  0
  8 28  1  0  0  0  0
  9 20  2  0  0  0  0
  9 22  1  0  0  0  0
 10 12  1  0  0  0  0
 10 33  1  0  0  0  0
 10 34  1  0  0  0  0
 11 13  1  0  0  0  0
 11 35  1  0  0  0  0
 11 36  1  0  0  0  0
 12 37  1  0  0  0  0
 12 38  1  0  0  0  0
 13 39  1  0  0  0  0
 13 40  1  0  0  0  0
 14 15  1  0  0  0  0
 14 41  1  0  0  0  0
 14 42  1  0  0  0  0
 15 17  1  0  0  0  0
 15 43  1  0  0  0  0
 15 44  1  0  0  0  0
 16 21  1  0  0  0  0
 17 19  1  0  0  0  0
 17 45  1  0  0  0  0
 17 46  1  0  0  0  0
 18 20  1  0  0  0  0
 18 23  1  0  0  0  0
 18 24  1  0  0  0  0
 18 25  1  0  0  0  0
 19 47  1  0  0  0  0
 19 48  1  0  0  0  0
 21 22  2  0  0  0  0
 21 49  1  0  0  0  0
 22 26  1  0  0  0  0
 23 50  1  0  0  0  0
 23 51  1  0  0  0  0
 23 52  1  0  0  0  0
 24 53  1  0  0  0  0
 24 54  1  0  0  0  0
 24 55  1  0  0  0  0
 25 56  1  0  0  0  0
 25 57  1  0  0  0  0
 25 58  1  0  0  0  0
 27 29  1  0  0  0  0
 28 30  2  0  0  0  0
 28 59  1  0  0  0  0
 29 31  2  0  0  0  0
 29 60  1  0  0  0  0
 30 31  1  0  0  0  0
 30 61  1  0  0  0  0
 31 32  1  0  0  0  0
 32 62  1  0  0  0  0
 32 63  1  0  0  0  0
 32 64  1  0  0  0  0
M  END
> <PUBCHEM_COMPOUND_CID>
15949564

> <PUBCHEM_COMPOUND_CANONICALIZED>
1

> <PUBCHEM_CACTVS_COMPLEXITY>
707

> <PUBCHEM_CACTVS_HBOND_ACCEPTOR>
8

> <PUBCHEM_CACTVS_HBOND_DONOR>
0

> <PUBCHEM_CACTVS_ROTATABLE_BOND>
7

> <PUBCHEM_CACTVS_SUBSKEYS>
AAADcfB7oYAAAAAAAAAAAAAAAAAAAAAAAAAsWIAAAAAAAAABgAAAHwAAAAAADgjBlxQzsJcIEACoAyd2dACAgCkhAqAJGCA4ZFiIaABAycAUBAhIBgLAwSAAAAAAAAAAAAAAAAAAAAAAAAAAAAAAAAAAAA==

> <PUBCHEM_IUPAC_OPENEYE_NAME>
1-[4-[4-[2-tert-butyl-6-(trifluoromethyl)pyrimidin-4-yl]piperazin-1-yl]butyl]-4-methyl-pyridin-2-one

> <PUBCHEM_IUPAC_CAS_NAME>
1-[4-[4-[2-tert-butyl-6-(trifluoromethyl)-4-pyrimidinyl]-1-piperazinyl]butyl]-4-methyl-2-pyridinone

> <PUBCHEM_IUPAC_NAME_MARKUP>
1-[4-[4-[2-<I>tert</I>-butyl-6-(trifluoromethyl)pyrimidin-4-yl]piperazin-1-yl]butyl]-4-methylpyridin-2-one

> <PUBCHEM_IUPAC_NAME>
1-[4-[4-[2-tert-butyl-6-(trifluoromethyl)pyrimidin-4-yl]piperazin-1-yl]butyl]-4-methylpyridin-2-one

> <PUBCHEM_IUPAC_SYSTEMATIC_NAME>
1-[4-[4-[2-tert-butyl-6-(trifluoromethyl)pyrimidin-4-yl]piperazin-1-yl]butyl]-4-methyl-pyridin-2-one

> <PUBCHEM_IUPAC_TRADITIONAL_NAME>
1-[4-[4-[2-tert-butyl-6-(trifluoromethyl)pyrimidin-4-yl]piperazino]butyl]-4-methyl-2-pyridone

> <PUBCHEM_IUPAC_INCHI>
InChI=1S/C23H32F3N5O/c1-17-7-10-31(20(32)15-17)9-6-5-8-29-11-13-30(14-12-29)19-16-18(23(24,25)26)27-21(28-19)22(2,3)4/h7,10,15-16H,5-6,8-9,11-14H2,1-4H3

> <PUBCHEM_IUPAC_INCHIKEY>
RLMADYPUXGWZSL-UHFFFAOYSA-N

> <PUBCHEM_XLOGP3_AA>
3.9

> <PUBCHEM_EXACT_MASS>
451.25589515

> <PUBCHEM_MOLECULAR_FORMULA>
C23H32F3N5O

> <PUBCHEM_MOLECULAR_WEIGHT>
451.5

> <PUBCHEM_OPENEYE_CAN_SMILES>
CC1=CC(=O)N(C=C1)CCCCN2CCN(CC2)C3=NC(=NC(=C3)C(F)(F)F)C(C)(C)C

> <PUBCHEM_OPENEYE_ISO_SMILES>
CC1=CC(=O)N(C=C1)CCCCN2CCN(CC2)C3=NC(=NC(=C3)C(F)(F)F)C(C)(C)C

> <PUBCHEM_CACTVS_TPSA>
52.6

> <PUBCHEM_MONOISOTOPIC_WEIGHT>
451.25589515

> <PUBCHEM_TOTAL_CHARGE>
0

> <PUBCHEM_HEAVY_ATOM_COUNT>
32

> <PUBCHEM_ATOM_DEF_STEREO_COUNT>
0

> <PUBCHEM_ATOM_UDEF_STEREO_COUNT>
0

> <PUBCHEM_BOND_DEF_STEREO_COUNT>
0

> <PUBCHEM_BOND_UDEF_STEREO_COUNT>
0

> <PUBCHEM_ISOTOPIC_ATOM_COUNT>
0

> <PUBCHEM_COMPONENT_COUNT>
1

> <PUBCHEM_CACTVS_TAUTO_COUNT>
-1

> <PUBCHEM_COORDINATE_TYPE>
1
5
255

> <PUBCHEM_BONDANNOTATIONS>
16  21  8
21  22  8
27  29  8
28  30  8
29  31  8
30  31  8
7  16  8
7  20  8
8  27  8
8  28  8
9  20  8
9  22  8

$$$$
