44591042
  -OEChem-09292322222D

 52 56  0     1  0  0  0  0  0999 V2000
   13.0043    1.1025    0.0000 Cl  0  0  0  0  0  0  0  0  0  0  0  0
    9.5350    0.1208    0.0000 O   0  0  0  0  0  0  0  0  0  0  0  0
    6.2781    0.6340    0.0000 N   0  0  0  0  0  0  0  0  0  0  0  0
    4.6783   -3.0827    0.0000 N   0  0  0  0  0  0  0  0  0  0  0  0
    7.4093    2.2910    0.0000 C   0  0  3  0  0  0  0  0  0  0  0  0
    6.5175    1.8385    0.0000 C   0  0  3  0  0  0  0  0  0  0  0  0
    9.0065    0.9698    0.0000 C   0  0  0  0  0  0  0  0  0  0  0  0
    8.8691    1.9603    0.0000 C   0  0  0  0  0  0  0  0  0  0  0  0
    8.1070    0.5330    0.0000 C   0  0  0  0  0  0  0  0  0  0  0  0
    6.8538    3.6720    0.0000 C   0  0  0  0  0  0  0  0  0  0  0  0
    5.9620    3.2196    0.0000 C   0  0  0  0  0  0  0  0  0  0  0  0
    5.9674   -0.3165    0.0000 C   0  0  0  0  0  0  0  0  0  0  0  0
   10.0060    1.0030    0.0000 C   0  0  0  0  0  0  0  0  0  0  0  0
    4.9889   -0.5227    0.0000 C   0  0  0  0  0  0  0  0  0  0  0  0
   10.4770    1.8851    0.0000 C   0  0  0  0  0  0  0  0  0  0  0  0
   10.5344    0.1540    0.0000 C   0  0  0  0  0  0  0  0  0  0  0  0
    4.6783   -1.4732    0.0000 C   0  0  0  0  0  0  0  0  0  0  0  0
   11.4764    1.9183    0.0000 C   0  0  0  0  0  0  0  0  0  0  0  0
   11.5339    0.1872    0.0000 C   0  0  0  0  0  0  0  0  0  0  0  0
    3.7320   -1.7780    0.0000 C   0  0  0  0  0  0  0  0  0  0  0  0
    5.2619   -2.2780    0.0000 C   0  0  0  0  0  0  0  0  0  0  0  0
   12.0049    1.0693    0.0000 C   0  0  0  0  0  0  0  0  0  0  0  0
    3.7320   -2.7780    0.0000 C   0  0  0  0  0  0  0  0  0  0  0  0
    2.8660   -1.2780    0.0000 C   0  0  0  0  0  0  0  0  0  0  0  0
    2.8660   -3.2780    0.0000 C   0  0  0  0  0  0  0  0  0  0  0  0
    2.0000   -1.7780    0.0000 C   0  0  0  0  0  0  0  0  0  0  0  0
    2.0000   -2.7780    0.0000 C   0  0  0  0  0  0  0  0  0  0  0  0
    7.8114    2.7630    0.0000 H   0  0  0  0  0  0  0  0  0  0  0  0
    7.0175    2.2052    0.0000 H   0  0  0  0  0  0  0  0  0  0  0  0
    9.4890    1.9712    0.0000 H   0  0  0  0  0  0  0  0  0  0  0  0
    8.9325    2.5770    0.0000 H   0  0  0  0  0  0  0  0  0  0  0  0
    7.6489    0.1152    0.0000 H   0  0  0  0  0  0  0  0  0  0  0  0
    8.4549    0.0198    0.0000 H   0  0  0  0  0  0  0  0  0  0  0  0
    7.4220    3.9200    0.0000 H   0  0  0  0  0  0  0  0  0  0  0  0
    6.5894    4.2328    0.0000 H   0  0  0  0  0  0  0  0  0  0  0  0
    5.6976    3.7804    0.0000 H   0  0  0  0  0  0  0  0  0  0  0  0
    5.3937    2.9716    0.0000 H   0  0  0  0  0  0  0  0  0  0  0  0
    5.9880   -0.9362    0.0000 H   0  0  0  0  0  0  0  0  0  0  0  0
    6.5812   -0.4038    0.0000 H   0  0  0  0  0  0  0  0  0  0  0  0
    4.9684    0.0969    0.0000 H   0  0  0  0  0  0  0  0  0  0  0  0
    4.3751   -0.4354    0.0000 H   0  0  0  0  0  0  0  0  0  0  0  0
    9.2430   -0.4261    0.0000 H   0  0  0  0  0  0  0  0  0  0  0  0
   10.1493    2.4114    0.0000 H   0  0  0  0  0  0  0  0  0  0  0  0
   10.2424   -0.3929    0.0000 H   0  0  0  0  0  0  0  0  0  0  0  0
   11.7685    2.4652    0.0000 H   0  0  0  0  0  0  0  0  0  0  0  0
   11.8615   -0.3392    0.0000 H   0  0  0  0  0  0  0  0  0  0  0  0
    5.8819   -2.2780    0.0000 H   0  0  0  0  0  0  0  0  0  0  0  0
    4.8709   -3.6720    0.0000 H   0  0  0  0  0  0  0  0  0  0  0  0
    2.8660   -0.6580    0.0000 H   0  0  0  0  0  0  0  0  0  0  0  0
    2.8660   -3.8980    0.0000 H   0  0  0  0  0  0  0  0  0  0  0  0
    1.4631   -1.4680    0.0000 H   0  0  0  0  0  0  0  0  0  0  0  0
    1.4631   -3.0880    0.0000 H   0  0  0  0  0  0  0  0  0  0  0  0
  1 22  1  0  0  0  0
  2  7  1  0  0  0  0
  2 42  1  0  0  0  0
  3  5  1  0  0  0  0
  3  6  1  0  0  0  0
  3 12  1  0  0  0  0
  4 21  1  0  0  0  0
  4 23  1  0  0  0  0
  4 48  1  0  0  0  0
  5  8  1  0  0  0  0
  5 10  1  0  0  0  0
  5 28  1  0  0  0  0
  6  9  1  0  0  0  0
  6 11  1  0  0  0  0
  6 29  1  0  0  0  0
  7  8  1  0  0  0  0
  7  9  1  0  0  0  0
  7 13  1  0  0  0  0
  8 30  1  0  0  0  0
  8 31  1  0  0  0  0
  9 32  1  0  0  0  0
  9 33  1  0  0  0  0
 10 11  1  0  0  0  0
 10 34  1  0  0  0  0
 10 35  1  0  0  0  0
 11 36  1  0  0  0  0
 11 37  1  0  0  0  0
 12 14  1  0  0  0  0
 12 38  1  0  0  0  0
 12 39  1  0  0  0  0
 13 15  2  0  0  0  0
 13 16  1  0  0  0  0
 14 17  1  0  0  0  0
 14 40  1  0  0  0  0
 14 41  1  0  0  0  0
 15 18  1  0  0  0  0
 15 43  1  0  0  0  0
 16 19  2  0  0  0  0
 16 44  1  0  0  0  0
 17 20  1  0  0  0  0
 17 21  2  0  0  0  0
 18 22  2  0  0  0  0
 18 45  1  0  0  0  0
 19 22  1  0  0  0  0
 19 46  1  0  0  0  0
 20 23  1  0  0  0  0
 20 24  2  0  0  0  0
 21 47  1  0  0  0  0
 23 25  2  0  0  0  0
 24 26  1  0  0  0  0
 24 49  1  0  0  0  0
 25 27  1  0  0  0  0
 25 50  1  0  0  0  0
 26 27  2  0  0  0  0
 26 51  1  0  0  0  0
 27 52  1  0  0  0  0
M  END
> <PUBCHEM_COMPOUND_CID>
44591042

> <PUBCHEM_COMPOUND_CANONICALIZED>
1

> <PUBCHEM_CACTVS_COMPLEXITY>
507

> <PUBCHEM_CACTVS_HBOND_ACCEPTOR>
2

> <PUBCHEM_CACTVS_HBOND_DONOR>
2

> <PUBCHEM_CACTVS_ROTATABLE_BOND>
4

> <PUBCHEM_CACTVS_SUBSKEYS>
AAADceB7IAAEAAAAAAAAAAAAAAAAAWLAAAA8YIAABgAAAFgB9AAAHgIQCAAADG7BniQ8wPPJkgCgAzRnRACCgCAxByAI2aA4bpgIJuLBk5GEcAhm0AHI2AeQwOAOhAAAAAACAAAIAAAAAAQAAAAAAAAAAA==

> <PUBCHEM_IUPAC_OPENEYE_NAME>
3-(4-chlorophenyl)-8-[2-(1H-indol-3-yl)ethyl]-8-azabicyclo[3.2.1]octan-3-ol

> <PUBCHEM_IUPAC_CAS_NAME>
3-(4-chlorophenyl)-8-[2-(1H-indol-3-yl)ethyl]-8-azabicyclo[3.2.1]octan-3-ol

> <PUBCHEM_IUPAC_NAME_MARKUP>
3-(4-chlorophenyl)-8-[2-(1<I>H</I>-indol-3-yl)ethyl]-8-azabicyclo[3.2.1]octan-3-ol

> <PUBCHEM_IUPAC_NAME>
3-(4-chlorophenyl)-8-[2-(1H-indol-3-yl)ethyl]-8-azabicyclo[3.2.1]octan-3-ol

> <PUBCHEM_IUPAC_SYSTEMATIC_NAME>
3-(4-chlorophenyl)-8-[2-(1H-indol-3-yl)ethyl]-8-azabicyclo[3.2.1]octan-3-ol

> <PUBCHEM_IUPAC_TRADITIONAL_NAME>
3-(4-chlorophenyl)-8-[2-(1H-indol-3-yl)ethyl]-8-azabicyclo[3.2.1]octan-3-ol

> <PUBCHEM_IUPAC_INCHI>
InChI=1S/C23H25ClN2O/c24-18-7-5-17(6-8-18)23(27)13-19-9-10-20(14-23)26(19)12-11-16-15-25-22-4-2-1-3-21(16)22/h1-8,15,19-20,25,27H,9-14H2

> <PUBCHEM_IUPAC_INCHIKEY>
NXGXYFWRVCUKFN-UHFFFAOYSA-N

> <PUBCHEM_XLOGP3>
4.9

> <PUBCHEM_EXACT_MASS>
380.1655411

> <PUBCHEM_MOLECULAR_FORMULA>
C23H25ClN2O

> <PUBCHEM_MOLECULAR_WEIGHT>
380.9

> <PUBCHEM_OPENEYE_CAN_SMILES>
C1CC2CC(CC1N2CCC3=CNC4=CC=CC=C43)(C5=CC=C(C=C5)Cl)O

> <PUBCHEM_OPENEYE_ISO_SMILES>
C1CC2CC(CC1N2CCC3=CNC4=CC=CC=C43)(C5=CC=C(C=C5)Cl)O

> <PUBCHEM_CACTVS_TPSA>
39.3

> <PUBCHEM_MONOISOTOPIC_WEIGHT>
380.1655411

> <PUBCHEM_TOTAL_CHARGE>
0

> <PUBCHEM_HEAVY_ATOM_COUNT>
27

> <PUBCHEM_ATOM_DEF_STEREO_COUNT>
0

> <PUBCHEM_ATOM_UDEF_STEREO_COUNT>
2

> <PUBCHEM_BOND_DEF_STEREO_COUNT>
0

> <PUBCHEM_BOND_UDEF_STEREO_COUNT>
0

> <PUBCHEM_ISOTOPIC_ATOM_COUNT>
0

> <PUBCHEM_COMPONENT_COUNT>
1

> <PUBCHEM_CACTVS_TAUTO_COUNT>
-1

> <PUBCHEM_COORDINATE_TYPE>
1
5
255

> <PUBCHEM_BONDANNOTATIONS>
13  15  8
13  16  8
15  18  8
16  19  8
17  20  8
17  21  8
18  22  8
19  22  8
20  23  8
20  24  8
23  25  8
24  26  8
25  27  8
26  27  8
4  21  8
4  23  8
5  10  3
6  11  3

$$$$
