156552367
  -OEChem-09292322442D

 61 64  0     1  0  0  0  0  0999 V2000
    2.0000   -5.0383    0.0000 F   0  0  0  0  0  0  0  0  0  0  0  0
   11.0116    2.3439    0.0000 O   0  0  0  0  0  0  0  0  0  0  0  0
    5.5443   -4.8430    0.0000 O   0  0  0  0  0  0  0  0  0  0  0  0
    9.7225    1.1872    0.0000 O   0  0  0  0  0  0  0  0  0  0  0  0
    6.4763   -0.3820    0.0000 N   0  0  0  0  0  0  0  0  0  0  0  0
    8.0761    1.7253    0.0000 N   0  0  0  0  0  0  0  0  0  0  0  0
    9.0081    4.5768    0.0000 N   0  0  0  0  0  0  0  0  0  0  0  0
    6.1279   -4.0383    0.0000 N   0  0  0  0  0  0  0  0  0  0  0  0
    5.8550   -2.2830    0.0000 C   0  0  0  0  0  0  0  0  0  0  0  0
    6.8335   -2.0768    0.0000 C   0  0  0  0  0  0  0  0  0  0  0  0
    5.1871   -1.5387    0.0000 C   0  0  0  0  0  0  0  0  0  0  0  0
    7.1441   -1.1263    0.0000 C   0  0  0  0  0  0  0  0  0  0  0  0
    5.4978   -0.5882    0.0000 C   0  0  0  0  0  0  0  0  0  0  0  0
    9.3653    2.8820    0.0000 C   0  0  3  0  0  0  0  0  0  0  0  0
    6.7870    0.5685    0.0000 C   0  0  0  0  0  0  0  0  0  0  0  0
   10.3438    3.0882    0.0000 C   0  0  3  0  0  0  0  0  0  0  0  0
    7.7654    0.7747    0.0000 C   0  0  0  0  0  0  0  0  0  0  0  0
    5.5443   -3.2336    0.0000 C   0  0  0  0  0  0  0  0  0  0  0  0
    8.6974    3.6263    0.0000 C   0  0  0  0  0  0  0  0  0  0  0  0
   10.6545    4.0387    0.0000 C   0  0  0  0  0  0  0  0  0  0  0  0
    9.0546    1.9315    0.0000 C   0  0  0  0  0  0  0  0  0  0  0  0
    9.9866    4.7830    0.0000 C   0  0  0  0  0  0  0  0  0  0  0  0
    4.5981   -3.5383    0.0000 C   0  0  0  0  0  0  0  0  0  0  0  0
    7.4083    2.4696    0.0000 C   0  0  0  0  0  0  0  0  0  0  0  0
    4.5981   -4.5383    0.0000 C   0  0  0  0  0  0  0  0  0  0  0  0
    6.4298    2.2634    0.0000 C   0  0  0  0  0  0  0  0  0  0  0  0
    3.7320   -3.0383    0.0000 C   0  0  0  0  0  0  0  0  0  0  0  0
    3.7320   -5.0383    0.0000 C   0  0  0  0  0  0  0  0  0  0  0  0
    2.8660   -3.5383    0.0000 C   0  0  0  0  0  0  0  0  0  0  0  0
    2.8660   -4.5383    0.0000 C   0  0  0  0  0  0  0  0  0  0  0  0
    6.2690   -2.7445    0.0000 H   0  0  0  0  0  0  0  0  0  0  0  0
    6.8540   -2.6965    0.0000 H   0  0  0  0  0  0  0  0  0  0  0  0
    7.4473   -2.1642    0.0000 H   0  0  0  0  0  0  0  0  0  0  0  0
    4.6402   -1.2467    0.0000 H   0  0  0  0  0  0  0  0  0  0  0  0
    4.8046   -2.0266    0.0000 H   0  0  0  0  0  0  0  0  0  0  0  0
    7.6910   -1.4183    0.0000 H   0  0  0  0  0  0  0  0  0  0  0  0
    7.5267   -0.6384    0.0000 H   0  0  0  0  0  0  0  0  0  0  0  0
    5.4772    0.0314    0.0000 H   0  0  0  0  0  0  0  0  0  0  0  0
    4.8840   -0.5009    0.0000 H   0  0  0  0  0  0  0  0  0  0  0  0
    8.7586    2.7542    0.0000 H   0  0  0  0  0  0  0  0  0  0  0  0
    6.7664    1.1882    0.0000 H   0  0  0  0  0  0  0  0  0  0  0  0
    6.1731    0.6559    0.0000 H   0  0  0  0  0  0  0  0  0  0  0  0
   10.1512    2.4989    0.0000 H   0  0  0  0  0  0  0  0  0  0  0  0
    7.7860    0.1551    0.0000 H   0  0  0  0  0  0  0  0  0  0  0  0
    8.3793    0.6874    0.0000 H   0  0  0  0  0  0  0  0  0  0  0  0
    8.1505    3.9183    0.0000 H   0  0  0  0  0  0  0  0  0  0  0  0
    8.3149    3.1384    0.0000 H   0  0  0  0  0  0  0  0  0  0  0  0
   11.2014    3.7467    0.0000 H   0  0  0  0  0  0  0  0  0  0  0  0
   11.0370    4.5266    0.0000 H   0  0  0  0  0  0  0  0  0  0  0  0
   10.5130    5.1107    0.0000 H   0  0  0  0  0  0  0  0  0  0  0  0
    9.7554    5.3583    0.0000 H   0  0  0  0  0  0  0  0  0  0  0  0
    8.5940    5.0383    0.0000 H   0  0  0  0  0  0  0  0  0  0  0  0
    7.9346    2.7972    0.0000 H   0  0  0  0  0  0  0  0  0  0  0  0
    7.1770    3.0448    0.0000 H   0  0  0  0  0  0  0  0  0  0  0  0
   11.6183    2.4718    0.0000 H   0  0  0  0  0  0  0  0  0  0  0  0
    6.3019    2.8700    0.0000 H   0  0  0  0  0  0  0  0  0  0  0  0
    5.8231    2.1355    0.0000 H   0  0  0  0  0  0  0  0  0  0  0  0
    6.5576    1.6567    0.0000 H   0  0  0  0  0  0  0  0  0  0  0  0
    3.7320   -2.4183    0.0000 H   0  0  0  0  0  0  0  0  0  0  0  0
    3.7320   -5.6583    0.0000 H   0  0  0  0  0  0  0  0  0  0  0  0
    2.3291   -3.2283    0.0000 H   0  0  0  0  0  0  0  0  0  0  0  0
  1 30  1  0  0  0  0
  2 16  1  0  0  0  0
  2 55  1  0  0  0  0
  3  8  1  0  0  0  0
  3 25  1  0  0  0  0
  4 21  2  0  0  0  0
  5 12  1  0  0  0  0
  5 13  1  0  0  0  0
  5 15  1  0  0  0  0
  6 17  1  0  0  0  0
  6 21  1  0  0  0  0
  6 24  1  0  0  0  0
  7 19  1  0  0  0  0
  7 22  1  0  0  0  0
  7 52  1  0  0  0  0
  8 18  2  0  0  0  0
  9 10  1  0  0  0  0
  9 11  1  0  0  0  0
  9 18  1  0  0  0  0
  9 31  1  0  0  0  0
 10 12  1  0  0  0  0
 10 32  1  0  0  0  0
 10 33  1  0  0  0  0
 11 13  1  0  0  0  0
 11 34  1  0  0  0  0
 11 35  1  0  0  0  0
 12 36  1  0  0  0  0
 12 37  1  0  0  0  0
 13 38  1  0  0  0  0
 13 39  1  0  0  0  0
 14 16  1  0  0  0  0
 14 19  1  0  0  0  0
 14 21  1  0  0  0  0
 14 40  1  0  0  0  0
 15 17  1  0  0  0  0
 15 41  1  0  0  0  0
 15 42  1  0  0  0  0
 16 20  1  0  0  0  0
 16 43  1  0  0  0  0
 17 44  1  0  0  0  0
 17 45  1  0  0  0  0
 18 23  1  0  0  0  0
 19 46  1  0  0  0  0
 19 47  1  0  0  0  0
 20 22  1  0  0  0  0
 20 48  1  0  0  0  0
 20 49  1  0  0  0  0
 22 50  1  0  0  0  0
 22 51  1  0  0  0  0
 23 25  2  0  0  0  0
 23 27  1  0  0  0  0
 24 26  1  0  0  0  0
 24 53  1  0  0  0  0
 24 54  1  0  0  0  0
 25 28  1  0  0  0  0
 26 56  1  0  0  0  0
 26 57  1  0  0  0  0
 26 58  1  0  0  0  0
 27 29  2  0  0  0  0
 27 59  1  0  0  0  0
 28 30  2  0  0  0  0
 28 60  1  0  0  0  0
 29 30  1  0  0  0  0
 29 61  1  0  0  0  0
M  END
> <PUBCHEM_COMPOUND_CID>
156552367

> <PUBCHEM_COMPOUND_CANONICALIZED>
1

> <PUBCHEM_CACTVS_COMPLEXITY>
575

> <PUBCHEM_CACTVS_HBOND_ACCEPTOR>
7

> <PUBCHEM_CACTVS_HBOND_DONOR>
2

> <PUBCHEM_CACTVS_ROTATABLE_BOND>
6

> <PUBCHEM_CACTVS_SUBSKEYS>
AAADceB7sQAAAAAAAAAAAAAAAAAAAWAAAAA8WIAAAAAAAFgB8AAAHwAUCAAADRzhng4yhtPQAgCpA6VyUgCCAAAkIAAomKE+TNoIdr6A1ZOUcYBm9hmIyceYyeCOAAAAAAAIAAAAAAAAABAAAAAAAAAAAA==

> <PUBCHEM_IUPAC_OPENEYE_NAME>
N-ethyl-N-[2-[4-(6-fluoro-1,2-benzoxazol-3-yl)-1-piperidyl]ethyl]-4-hydroxy-piperidine-3-carboxamide

> <PUBCHEM_IUPAC_CAS_NAME>
N-ethyl-N-[2-[4-(6-fluoro-1,2-benzoxazol-3-yl)-1-piperidinyl]ethyl]-4-hydroxy-3-piperidinecarboxamide

> <PUBCHEM_IUPAC_NAME_MARKUP>
<I>N</I>-ethyl-<I>N</I>-[2-[4-(6-fluoro-1,2-benzoxazol-3-yl)piperidin-1-yl]ethyl]-4-hydroxypiperidine-3-carboxamide

> <PUBCHEM_IUPAC_NAME>
N-ethyl-N-[2-[4-(6-fluoro-1,2-benzoxazol-3-yl)piperidin-1-yl]ethyl]-4-hydroxypiperidine-3-carboxamide

> <PUBCHEM_IUPAC_SYSTEMATIC_NAME>
N-ethyl-N-[2-[4-(6-fluoranyl-1,2-benzoxazol-3-yl)piperidin-1-yl]ethyl]-4-oxidanyl-piperidine-3-carboxamide

> <PUBCHEM_IUPAC_TRADITIONAL_NAME>
N-ethyl-N-[2-[4-(6-fluoroindoxazen-3-yl)piperidino]ethyl]-4-hydroxy-nipecotamide

> <PUBCHEM_IUPAC_INCHI>
InChI=1S/C22H31FN4O3/c1-2-27(22(29)18-14-24-8-5-19(18)28)12-11-26-9-6-15(7-10-26)21-17-4-3-16(23)13-20(17)30-25-21/h3-4,13,15,18-19,24,28H,2,5-12,14H2,1H3

> <PUBCHEM_IUPAC_INCHIKEY>
ZWSDZWGYYIXLJO-UHFFFAOYSA-N

> <PUBCHEM_XLOGP3_AA>
1.9

> <PUBCHEM_EXACT_MASS>
418.23801903

> <PUBCHEM_MOLECULAR_FORMULA>
C22H31FN4O3

> <PUBCHEM_MOLECULAR_WEIGHT>
418.5

> <PUBCHEM_OPENEYE_CAN_SMILES>
CCN(CCN1CCC(CC1)C2=NOC3=C2C=CC(=C3)F)C(=O)C4CNCCC4O

> <PUBCHEM_OPENEYE_ISO_SMILES>
CCN(CCN1CCC(CC1)C2=NOC3=C2C=CC(=C3)F)C(=O)C4CNCCC4O

> <PUBCHEM_CACTVS_TPSA>
81.8

> <PUBCHEM_MONOISOTOPIC_WEIGHT>
418.23801903

> <PUBCHEM_TOTAL_CHARGE>
0

> <PUBCHEM_HEAVY_ATOM_COUNT>
30

> <PUBCHEM_ATOM_DEF_STEREO_COUNT>
0

> <PUBCHEM_ATOM_UDEF_STEREO_COUNT>
2

> <PUBCHEM_BOND_DEF_STEREO_COUNT>
0

> <PUBCHEM_BOND_UDEF_STEREO_COUNT>
0

> <PUBCHEM_ISOTOPIC_ATOM_COUNT>
0

> <PUBCHEM_COMPONENT_COUNT>
1

> <PUBCHEM_CACTVS_TAUTO_COUNT>
-1

> <PUBCHEM_COORDINATE_TYPE>
1
5
255

> <PUBCHEM_BONDANNOTATIONS>
14  21  3
18  23  8
16  2  3
23  25  8
23  27  8
25  28  8
27  29  8
28  30  8
29  30  8
3  25  8
3  8  8
8  18  8

$$$$
