10593348
  -OEChem-09292322112D

 49 53  0     1  0  0  0  0  0999 V2000
    2.6118   -0.0500    0.0000 O   0  0  0  0  0  0  0  0  0  0  0  0
    8.0695   -1.7571    0.0000 N   0  0  3  0  0  0  0  0  0  0  0  0
    7.2113   -1.2601    0.0000 C   0  0  1  0  0  0  0  0  0  0  0  0
    7.2113   -0.2601    0.0000 C   0  0  0  0  0  0  0  0  0  0  0  0
    6.3452   -1.7601    0.0000 C   0  0  0  0  0  0  0  0  0  0  0  0
    8.1213    0.2467    0.0000 C   0  0  0  0  0  0  0  0  0  0  0  0
    8.9350   -1.2729    0.0000 C   0  0  0  0  0  0  0  0  0  0  0  0
    6.3452    0.2399    0.0000 C   0  0  0  0  0  0  0  0  0  0  0  0
    8.9606   -0.2815    0.0000 C   0  0  0  0  0  0  0  0  0  0  0  0
    5.4792   -1.2601    0.0000 C   0  0  0  0  0  0  0  0  0  0  0  0
    5.4792   -0.2601    0.0000 C   0  0  0  0  0  0  0  0  0  0  0  0
    8.0621   -2.7570    0.0000 C   0  0  0  0  0  0  0  0  0  0  0  0
    4.5853    0.2745    0.0000 C   0  0  0  0  0  0  0  0  0  0  0  0
    8.1293    1.2883    0.0000 C   0  0  0  0  0  0  0  0  0  0  0  0
    6.3292    1.2814    0.0000 C   0  0  0  0  0  0  0  0  0  0  0  0
    4.5853   -1.7948    0.0000 C   0  0  0  0  0  0  0  0  0  0  0  0
    7.2272    1.8091    0.0000 C   0  0  0  0  0  0  0  0  0  0  0  0
    3.6792   -0.2393    0.0000 C   0  0  0  0  0  0  0  0  0  0  0  0
    3.9514    1.0479    0.0000 C   0  0  0  0  0  0  0  0  0  0  0  0
    3.6792   -1.2810    0.0000 C   0  0  0  0  0  0  0  0  0  0  0  0
    4.3043    1.9836    0.0000 C   0  0  0  0  0  0  0  0  0  0  0  0
    2.9646    0.8857    0.0000 C   0  0  0  0  0  0  0  0  0  0  0  0
    3.6704    2.7570    0.0000 C   0  0  0  0  0  0  0  0  0  0  0  0
    5.2910    2.1459    0.0000 C   0  0  0  0  0  0  0  0  0  0  0  0
    2.3308    1.6591    0.0000 C   0  0  0  0  0  0  0  0  0  0  0  0
    2.6836    2.5948    0.0000 C   0  0  0  0  0  0  0  0  0  0  0  0
    7.2107   -2.1101    0.0000 H   0  0  0  0  0  0  0  0  0  0  0  0
    5.9467   -2.2351    0.0000 H   0  0  0  0  0  0  0  0  0  0  0  0
    6.7438   -2.2351    0.0000 H   0  0  0  0  0  0  0  0  0  0  0  0
    9.1367   -1.8592    0.0000 H   0  0  0  0  0  0  0  0  0  0  0  0
    9.5478   -1.1785    0.0000 H   0  0  0  0  0  0  0  0  0  0  0  0
    9.5677   -0.4074    0.0000 H   0  0  0  0  0  0  0  0  0  0  0  0
    9.1924    0.2935    0.0000 H   0  0  0  0  0  0  0  0  0  0  0  0
    7.4421   -2.7525    0.0000 H   0  0  0  0  0  0  0  0  0  0  0  0
    8.0575   -3.3770    0.0000 H   0  0  0  0  0  0  0  0  0  0  0  0
    8.6821   -2.7616    0.0000 H   0  0  0  0  0  0  0  0  0  0  0  0
    8.6674    1.5962    0.0000 H   0  0  0  0  0  0  0  0  0  0  0  0
    5.7887    1.5851    0.0000 H   0  0  0  0  0  0  0  0  0  0  0  0
    4.5925   -2.4148    0.0000 H   0  0  0  0  0  0  0  0  0  0  0  0
    7.2248    2.4291    0.0000 H   0  0  0  0  0  0  0  0  0  0  0  0
    3.1435    0.0727    0.0000 H   0  0  0  0  0  0  0  0  0  0  0  0
    3.1435   -1.5930    0.0000 H   0  0  0  0  0  0  0  0  0  0  0  0
    3.8892    3.3372    0.0000 H   0  0  0  0  0  0  0  0  0  0  0  0
    5.3916    1.5341    0.0000 H   0  0  0  0  0  0  0  0  0  0  0  0
    5.9028    2.2465    0.0000 H   0  0  0  0  0  0  0  0  0  0  0  0
    5.1904    2.7576    0.0000 H   0  0  0  0  0  0  0  0  0  0  0  0
    1.7190    1.5585    0.0000 H   0  0  0  0  0  0  0  0  0  0  0  0
    2.2906    3.0743    0.0000 H   0  0  0  0  0  0  0  0  0  0  0  0
    2.0000   -0.1506    0.0000 H   0  0  0  0  0  0  0  0  0  0  0  0
  1 22  1  0  0  0  0
  1 49  1  0  0  0  0
  2  3  1  0  0  0  0
  2  7  1  0  0  0  0
  2 12  1  0  0  0  0
  3  4  1  0  0  0  0
  3  5  1  0  0  0  0
  3 27  1  1  0  0  0
  4  6  2  0  0  0  0
  4  8  1  0  0  0  0
  5 10  1  0  0  0  0
  5 28  1  0  0  0  0
  5 29  1  0  0  0  0
  6  9  1  0  0  0  0
  6 14  1  0  0  0  0
  7  9  1  0  0  0  0
  7 30  1  0  0  0  0
  7 31  1  0  0  0  0
  8 11  1  0  0  0  0
  8 15  2  0  0  0  0
  9 32  1  0  0  0  0
  9 33  1  0  0  0  0
 10 11  2  0  0  0  0
 10 16  1  0  0  0  0
 11 13  1  0  0  0  0
 12 34  1  0  0  0  0
 12 35  1  0  0  0  0
 12 36  1  0  0  0  0
 13 18  2  0  0  0  0
 13 19  1  0  0  0  0
 14 17  2  0  0  0  0
 14 37  1  0  0  0  0
 15 17  1  0  0  0  0
 15 38  1  0  0  0  0
 16 20  2  0  0  0  0
 16 39  1  0  0  0  0
 17 40  1  0  0  0  0
 18 20  1  0  0  0  0
 18 41  1  0  0  0  0
 19 21  2  0  0  0  0
 19 22  1  0  0  0  0
 20 42  1  0  0  0  0
 21 23  1  0  0  0  0
 21 24  1  0  0  0  0
 22 25  2  0  0  0  0
 23 26  2  0  0  0  0
 23 43  1  0  0  0  0
 24 44  1  0  0  0  0
 24 45  1  0  0  0  0
 24 46  1  0  0  0  0
 25 26  1  0  0  0  0
 25 47  1  0  0  0  0
 26 48  1  0  0  0  0
M  END
> <PUBCHEM_COMPOUND_CID>
10593348

> <PUBCHEM_COMPOUND_CANONICALIZED>
1

> <PUBCHEM_CACTVS_COMPLEXITY>
506

> <PUBCHEM_CACTVS_HBOND_ACCEPTOR>
2

> <PUBCHEM_CACTVS_HBOND_DONOR>
1

> <PUBCHEM_CACTVS_ROTATABLE_BOND>
1

> <PUBCHEM_CACTVS_SUBSKEYS>
AAADceB6IAAAAAAAAAAAAAAAAAAAAAAAAAA8YMGCAAAAAADxUAAAHgAACAAADCzBmAQyBoMAAgCAAiBCAACCAAAgIAAIiAAODIgIJiKCkROEcAhkwBGImAeQwPAOgAADAAAYAACQAAaAADQAAAAAAAAAAA==

> <PUBCHEM_IUPAC_OPENEYE_NAME>
2-[(6aR)-6-methyl-5,6,6a,7-tetrahydro-4H-dibenzo[de,g]quinolin-11-yl]-3-methyl-phenol

> <PUBCHEM_IUPAC_CAS_NAME>
2-[(6aR)-6-methyl-5,6,6a,7-tetrahydro-4H-dibenzo[de,g]quinolin-11-yl]-3-methylphenol

> <PUBCHEM_IUPAC_NAME_MARKUP>
2-[(6<I>a</I><I>R</I>)-6-methyl-5,6,6<I>a</I>,7-tetrahydro-4<I>H</I>-dibenzo[de,g]quinolin-11-yl]-3-methylphenol

> <PUBCHEM_IUPAC_NAME>
2-[(6aR)-6-methyl-5,6,6a,7-tetrahydro-4H-dibenzo[de,g]quinolin-11-yl]-3-methylphenol

> <PUBCHEM_IUPAC_SYSTEMATIC_NAME>
2-[(6aR)-6-methyl-5,6,6a,7-tetrahydro-4H-dibenzo[de,g]quinolin-11-yl]-3-methyl-phenol

> <PUBCHEM_IUPAC_TRADITIONAL_NAME>
2-[(6aR)-6-methyl-5,6,6a,7-tetrahydro-4H-dibenzo[de,g]quinolin-11-yl]-3-methyl-phenol

> <PUBCHEM_IUPAC_INCHI>
InChI=1S/C24H23NO/c1-15-6-3-11-21(26)22(15)18-9-5-8-17-14-20-24-16(12-13-25(20)2)7-4-10-19(24)23(17)18/h3-11,20,26H,12-14H2,1-2H3/t20-/m1/s1

> <PUBCHEM_IUPAC_INCHIKEY>
QQYBSVWWEQVBIX-HXUWFJFHSA-N

> <PUBCHEM_XLOGP3_AA>
5.1

> <PUBCHEM_EXACT_MASS>
341.177964357

> <PUBCHEM_MOLECULAR_FORMULA>
C24H23NO

> <PUBCHEM_MOLECULAR_WEIGHT>
341.4

> <PUBCHEM_OPENEYE_CAN_SMILES>
CC1=C(C(=CC=C1)O)C2=CC=CC3=C2C4=CC=CC5=C4C(C3)N(CC5)C

> <PUBCHEM_OPENEYE_ISO_SMILES>
CC1=C(C(=CC=C1)O)C2=CC=CC3=C2C4=CC=CC5=C4[C@@H](C3)N(CC5)C

> <PUBCHEM_CACTVS_TPSA>
23.5

> <PUBCHEM_MONOISOTOPIC_WEIGHT>
341.177964357

> <PUBCHEM_TOTAL_CHARGE>
0

> <PUBCHEM_HEAVY_ATOM_COUNT>
26

> <PUBCHEM_ATOM_DEF_STEREO_COUNT>
1

> <PUBCHEM_ATOM_UDEF_STEREO_COUNT>
0

> <PUBCHEM_BOND_DEF_STEREO_COUNT>
0

> <PUBCHEM_BOND_UDEF_STEREO_COUNT>
0

> <PUBCHEM_ISOTOPIC_ATOM_COUNT>
0

> <PUBCHEM_COMPONENT_COUNT>
1

> <PUBCHEM_CACTVS_TAUTO_COUNT>
-1

> <PUBCHEM_COORDINATE_TYPE>
1
5
255

> <PUBCHEM_BONDANNOTATIONS>
10  11  8
10  16  8
11  13  8
13  18  8
14  17  8
15  17  8
16  20  8
18  20  8
19  21  8
19  22  8
21  23  8
22  25  8
23  26  8
25  26  8
3  27  5
4  6  8
4  8  8
6  14  8
8  15  8

$$$$
