11590801
  -OEChem-09292322302D

 58 61  0     0  0  0  0  0  0999 V2000
   16.7904   -0.4400    0.0000 F   0  0  0  0  0  0  0  0  0  0  0  0
   16.4244    0.9260    0.0000 F   0  0  0  0  0  0  0  0  0  0  0  0
   15.4244   -0.8060    0.0000 F   0  0  0  0  0  0  0  0  0  0  0  0
   10.7282   -0.9400    0.0000 N   0  0  0  0  0  0  0  0  0  0  0  0
   12.4603    0.0600    0.0000 N   0  0  0  0  0  0  0  0  0  0  0  0
    6.3981   -1.4400    0.0000 N   0  0  0  0  0  0  0  0  0  0  0  0
    4.6660   -1.4400    0.0000 N   0  0  0  0  0  0  0  0  0  0  0  0
   11.5942   -1.4400    0.0000 C   0  0  0  0  0  0  0  0  0  0  0  0
   10.7282    0.0600    0.0000 C   0  0  0  0  0  0  0  0  0  0  0  0
   12.4603   -0.9400    0.0000 C   0  0  0  0  0  0  0  0  0  0  0  0
   11.5942    0.5600    0.0000 C   0  0  0  0  0  0  0  0  0  0  0  0
    9.8622   -1.4400    0.0000 C   0  0  0  0  0  0  0  0  0  0  0  0
    8.9962   -0.9400    0.0000 C   0  0  0  0  0  0  0  0  0  0  0  0
   13.3263    0.5600    0.0000 C   0  0  0  0  0  0  0  0  0  0  0  0
    8.1301   -1.4400    0.0000 C   0  0  0  0  0  0  0  0  0  0  0  0
    7.2641   -0.9400    0.0000 C   0  0  0  0  0  0  0  0  0  0  0  0
   14.1923    0.0600    0.0000 C   0  0  0  0  0  0  0  0  0  0  0  0
   13.3263    1.5600    0.0000 C   0  0  0  0  0  0  0  0  0  0  0  0
   15.0583    0.5600    0.0000 C   0  0  0  0  0  0  0  0  0  0  0  0
   14.1923    2.0600    0.0000 C   0  0  0  0  0  0  0  0  0  0  0  0
   15.0583    1.5600    0.0000 C   0  0  0  0  0  0  0  0  0  0  0  0
   15.9244    0.0600    0.0000 C   0  0  0  0  0  0  0  0  0  0  0  0
    5.5321   -0.9400    0.0000 C   0  0  0  0  0  0  0  0  0  0  0  0
    5.5321    0.0600    0.0000 C   0  0  0  0  0  0  0  0  0  0  0  0
    3.8000   -0.9400    0.0000 C   0  0  0  0  0  0  0  0  0  0  0  0
    3.8000    0.0600    0.0000 C   0  0  0  0  0  0  0  0  0  0  0  0
    4.6660    0.5600    0.0000 C   0  0  0  0  0  0  0  0  0  0  0  0
    2.9061   -1.4747    0.0000 C   0  0  0  0  0  0  0  0  0  0  0  0
    2.9061    0.5947    0.0000 C   0  0  0  0  0  0  0  0  0  0  0  0
    2.0000   -0.9608    0.0000 C   0  0  0  0  0  0  0  0  0  0  0  0
    2.0000    0.0808    0.0000 C   0  0  0  0  0  0  0  0  0  0  0  0
   11.1957   -1.9150    0.0000 H   0  0  0  0  0  0  0  0  0  0  0  0
   11.9928   -1.9150    0.0000 H   0  0  0  0  0  0  0  0  0  0  0  0
   10.5162    0.6426    0.0000 H   0  0  0  0  0  0  0  0  0  0  0  0
   10.1176   -0.0477    0.0000 H   0  0  0  0  0  0  0  0  0  0  0  0
   12.6723   -1.5226    0.0000 H   0  0  0  0  0  0  0  0  0  0  0  0
   13.0708   -0.8323    0.0000 H   0  0  0  0  0  0  0  0  0  0  0  0
   11.9928    1.0350    0.0000 H   0  0  0  0  0  0  0  0  0  0  0  0
   11.1957    1.0350    0.0000 H   0  0  0  0  0  0  0  0  0  0  0  0
    9.4637   -1.9150    0.0000 H   0  0  0  0  0  0  0  0  0  0  0  0
   10.2607   -1.9150    0.0000 H   0  0  0  0  0  0  0  0  0  0  0  0
    9.3947   -0.4651    0.0000 H   0  0  0  0  0  0  0  0  0  0  0  0
    8.5976   -0.4651    0.0000 H   0  0  0  0  0  0  0  0  0  0  0  0
    7.7316   -1.9150    0.0000 H   0  0  0  0  0  0  0  0  0  0  0  0
    8.5287   -1.9150    0.0000 H   0  0  0  0  0  0  0  0  0  0  0  0
    7.6626   -0.4651    0.0000 H   0  0  0  0  0  0  0  0  0  0  0  0
    6.8656   -0.4651    0.0000 H   0  0  0  0  0  0  0  0  0  0  0  0
   14.1923   -0.5600    0.0000 H   0  0  0  0  0  0  0  0  0  0  0  0
   12.7894    1.8700    0.0000 H   0  0  0  0  0  0  0  0  0  0  0  0
    6.3981   -2.0600    0.0000 H   0  0  0  0  0  0  0  0  0  0  0  0
   14.1923    2.6800    0.0000 H   0  0  0  0  0  0  0  0  0  0  0  0
   15.5953    1.8700    0.0000 H   0  0  0  0  0  0  0  0  0  0  0  0
    6.0690    0.3700    0.0000 H   0  0  0  0  0  0  0  0  0  0  0  0
    4.6660    1.1800    0.0000 H   0  0  0  0  0  0  0  0  0  0  0  0
    2.9132   -2.0946    0.0000 H   0  0  0  0  0  0  0  0  0  0  0  0
    2.9132    1.2146    0.0000 H   0  0  0  0  0  0  0  0  0  0  0  0
    1.4643   -1.2729    0.0000 H   0  0  0  0  0  0  0  0  0  0  0  0
    1.4643    0.3929    0.0000 H   0  0  0  0  0  0  0  0  0  0  0  0
  1 22  1  0  0  0  0
  2 22  1  0  0  0  0
  3 22  1  0  0  0  0
  4  8  1  0  0  0  0
  4  9  1  0  0  0  0
  4 12  1  0  0  0  0
  5 10  1  0  0  0  0
  5 11  1  0  0  0  0
  5 14  1  0  0  0  0
  6 16  1  0  0  0  0
  6 23  1  0  0  0  0
  6 50  1  0  0  0  0
  7 23  2  0  0  0  0
  7 25  1  0  0  0  0
  8 10  1  0  0  0  0
  8 32  1  0  0  0  0
  8 33  1  0  0  0  0
  9 11  1  0  0  0  0
  9 34  1  0  0  0  0
  9 35  1  0  0  0  0
 10 36  1  0  0  0  0
 10 37  1  0  0  0  0
 11 38  1  0  0  0  0
 11 39  1  0  0  0  0
 12 13  1  0  0  0  0
 12 40  1  0  0  0  0
 12 41  1  0  0  0  0
 13 15  1  0  0  0  0
 13 42  1  0  0  0  0
 13 43  1  0  0  0  0
 14 17  1  0  0  0  0
 14 18  2  0  0  0  0
 15 16  1  0  0  0  0
 15 44  1  0  0  0  0
 15 45  1  0  0  0  0
 16 46  1  0  0  0  0
 16 47  1  0  0  0  0
 17 19  2  0  0  0  0
 17 48  1  0  0  0  0
 18 20  1  0  0  0  0
 18 49  1  0  0  0  0
 19 21  1  0  0  0  0
 19 22  1  0  0  0  0
 20 21  2  0  0  0  0
 20 51  1  0  0  0  0
 21 52  1  0  0  0  0
 23 24  1  0  0  0  0
 24 27  2  0  0  0  0
 24 53  1  0  0  0  0
 25 26  1  0  0  0  0
 25 28  2  0  0  0  0
 26 27  1  0  0  0  0
 26 29  2  0  0  0  0
 27 54  1  0  0  0  0
 28 30  1  0  0  0  0
 28 55  1  0  0  0  0
 29 31  1  0  0  0  0
 29 56  1  0  0  0  0
 30 31  2  0  0  0  0
 30 57  1  0  0  0  0
 31 58  1  0  0  0  0
M  END
> <PUBCHEM_COMPOUND_CID>
11590801

> <PUBCHEM_COMPOUND_CANONICALIZED>
1

> <PUBCHEM_CACTVS_COMPLEXITY>
535

> <PUBCHEM_CACTVS_HBOND_ACCEPTOR>
7

> <PUBCHEM_CACTVS_HBOND_DONOR>
1

> <PUBCHEM_CACTVS_ROTATABLE_BOND>
7

> <PUBCHEM_CACTVS_SUBSKEYS>
AAADceB7gYAAAAAAAAAAAAAAAAAAAAAAAAA8eIEAAAAAAACx9AAAHQAQAAAADAjBHhQx8PPIEACgAyZiZACCgCkhAiAJmKA4ZJiIYOLAmZGUIAhokALIyCcQgIAOAAAAQAACAAAAAACAAAQAAAAAAAAAAA==

> <PUBCHEM_IUPAC_OPENEYE_NAME>
N-[4-[4-[3-(trifluoromethyl)phenyl]piperazin-1-yl]butyl]quinolin-2-amine

> <PUBCHEM_IUPAC_CAS_NAME>
N-[4-[4-[3-(trifluoromethyl)phenyl]-1-piperazinyl]butyl]-2-quinolinamine

> <PUBCHEM_IUPAC_NAME_MARKUP>
<I>N</I>-[4-[4-[3-(trifluoromethyl)phenyl]piperazin-1-yl]butyl]quinolin-2-amine

> <PUBCHEM_IUPAC_NAME>
N-[4-[4-[3-(trifluoromethyl)phenyl]piperazin-1-yl]butyl]quinolin-2-amine

> <PUBCHEM_IUPAC_SYSTEMATIC_NAME>
N-[4-[4-[3-(trifluoromethyl)phenyl]piperazin-1-yl]butyl]quinolin-2-amine

> <PUBCHEM_IUPAC_TRADITIONAL_NAME>
2-quinolyl-[4-[4-[3-(trifluoromethyl)phenyl]piperazino]butyl]amine

> <PUBCHEM_IUPAC_INCHI>
InChI=1S/C24H27F3N4/c25-24(26,27)20-7-5-8-21(18-20)31-16-14-30(15-17-31)13-4-3-12-28-23-11-10-19-6-1-2-9-22(19)29-23/h1-2,5-11,18H,3-4,12-17H2,(H,28,29)

> <PUBCHEM_IUPAC_INCHIKEY>
AMDRAFDQLSKJMW-UHFFFAOYSA-N

> <PUBCHEM_XLOGP3_AA>
5.7

> <PUBCHEM_EXACT_MASS>
428.21878136

> <PUBCHEM_MOLECULAR_FORMULA>
C24H27F3N4

> <PUBCHEM_MOLECULAR_WEIGHT>
428.5

> <PUBCHEM_OPENEYE_CAN_SMILES>
C1CN(CCN1CCCCNC2=NC3=CC=CC=C3C=C2)C4=CC=CC(=C4)C(F)(F)F

> <PUBCHEM_OPENEYE_ISO_SMILES>
C1CN(CCN1CCCCNC2=NC3=CC=CC=C3C=C2)C4=CC=CC(=C4)C(F)(F)F

> <PUBCHEM_CACTVS_TPSA>
31.4

> <PUBCHEM_MONOISOTOPIC_WEIGHT>
428.21878136

> <PUBCHEM_TOTAL_CHARGE>
0

> <PUBCHEM_HEAVY_ATOM_COUNT>
31

> <PUBCHEM_ATOM_DEF_STEREO_COUNT>
0

> <PUBCHEM_ATOM_UDEF_STEREO_COUNT>
0

> <PUBCHEM_BOND_DEF_STEREO_COUNT>
0

> <PUBCHEM_BOND_UDEF_STEREO_COUNT>
0

> <PUBCHEM_ISOTOPIC_ATOM_COUNT>
0

> <PUBCHEM_COMPONENT_COUNT>
1

> <PUBCHEM_CACTVS_TAUTO_COUNT>
-1

> <PUBCHEM_COORDINATE_TYPE>
1
5
255

> <PUBCHEM_BONDANNOTATIONS>
14  17  8
14  18  8
17  19  8
18  20  8
19  21  8
20  21  8
23  24  8
24  27  8
25  26  8
25  28  8
26  27  8
26  29  8
28  30  8
29  31  8
30  31  8
7  23  8
7  25  8

$$$$
