155549315
  -OEChem-09292322412D

 69 73  0     0  0  0  0  0  0999 V2000
    2.7696   -2.7524    0.0000 O   0  0  0  0  0  0  0  0  0  0  0  0
    8.4391    3.8599    0.0000 O   0  0  0  0  0  0  0  0  0  0  0  0
    5.3051    2.3842    0.0000 N   0  0  0  0  0  0  0  0  0  0  0  0
    2.9061   -4.5047    0.0000 N   0  0  0  0  0  0  0  0  0  0  0  0
    4.3009   -3.6151    0.0000 N   0  0  0  0  0  0  0  0  0  0  0  0
    6.4461    4.0268    0.0000 N   0  0  0  0  0  0  0  0  0  0  0  0
    3.8000   -5.0394    0.0000 C   0  0  0  0  0  0  0  0  0  0  0  0
    4.7345    1.5629    0.0000 C   0  0  0  0  0  0  0  0  0  0  0  0
    4.6660   -4.5394    0.0000 C   0  0  0  0  0  0  0  0  0  0  0  0
    6.3016    2.3008    0.0000 C   0  0  0  0  0  0  0  0  0  0  0  0
    4.8791    3.2890    0.0000 C   0  0  0  0  0  0  0  0  0  0  0  0
    2.0000   -5.0186    0.0000 C   0  0  0  0  0  0  0  0  0  0  0  0
    3.8000   -6.0394    0.0000 C   0  0  0  0  0  0  0  0  0  0  0  0
    2.0000   -6.0602    0.0000 C   0  0  0  0  0  0  0  0  0  0  0  0
    4.8714   -2.7938    0.0000 C   0  0  0  0  0  0  0  0  0  0  0  0
    2.9061   -6.5741    0.0000 C   0  0  0  0  0  0  0  0  0  0  0  0
    5.1605    0.6582    0.0000 C   0  0  0  0  0  0  0  0  0  0  0  0
    6.8721    3.1221    0.0000 C   0  0  0  0  0  0  0  0  0  0  0  0
    5.4496    4.1102    0.0000 C   0  0  0  0  0  0  0  0  0  0  0  0
    4.4455   -1.8891    0.0000 C   0  0  0  0  0  0  0  0  0  0  0  0
    4.5900   -0.1631    0.0000 C   0  0  0  0  0  0  0  0  0  0  0  0
    5.0160   -1.0678    0.0000 C   0  0  0  0  0  0  0  0  0  0  0  0
    3.3073   -3.5955    0.0000 C   0  0  0  0  0  0  0  0  0  0  0  0
    5.5321   -5.0394    0.0000 C   0  0  0  0  0  0  0  0  0  0  0  0
    4.6660   -6.5394    0.0000 C   0  0  0  0  0  0  0  0  0  0  0  0
    7.0166    4.8481    0.0000 C   0  0  0  0  0  0  0  0  0  0  0  0
    5.5321   -6.0394    0.0000 C   0  0  0  0  0  0  0  0  0  0  0  0
    8.0131    4.7646    0.0000 C   0  0  0  0  0  0  0  0  0  0  0  0
    6.5906    5.7528    0.0000 C   0  0  0  0  0  0  0  0  0  0  0  0
    8.5837    5.5859    0.0000 C   0  0  0  0  0  0  0  0  0  0  0  0
    7.1612    6.5741    0.0000 C   0  0  0  0  0  0  0  0  0  0  0  0
    8.1577    6.4906    0.0000 C   0  0  0  0  0  0  0  0  0  0  0  0
    9.4356    3.7764    0.0000 C   0  0  0  0  0  0  0  0  0  0  0  0
    4.2945    1.9997    0.0000 H   0  0  0  0  0  0  0  0  0  0  0  0
    4.2280    1.2054    0.0000 H   0  0  0  0  0  0  0  0  0  0  0  0
    6.1433    1.7013    0.0000 H   0  0  0  0  0  0  0  0  0  0  0  0
    6.8644    2.0408    0.0000 H   0  0  0  0  0  0  0  0  0  0  0  0
    4.4390    3.7257    0.0000 H   0  0  0  0  0  0  0  0  0  0  0  0
    4.3725    2.9314    0.0000 H   0  0  0  0  0  0  0  0  0  0  0  0
    1.7909   -4.4349    0.0000 H   0  0  0  0  0  0  0  0  0  0  0  0
    1.3891   -5.1247    0.0000 H   0  0  0  0  0  0  0  0  0  0  0  0
    1.3891   -5.9541    0.0000 H   0  0  0  0  0  0  0  0  0  0  0  0
    1.7909   -6.6439    0.0000 H   0  0  0  0  0  0  0  0  0  0  0  0
    5.3115   -3.2306    0.0000 H   0  0  0  0  0  0  0  0  0  0  0  0
    5.3780   -2.4363    0.0000 H   0  0  0  0  0  0  0  0  0  0  0  0
    2.5124   -7.0531    0.0000 H   0  0  0  0  0  0  0  0  0  0  0  0
    3.3107   -7.0439    0.0000 H   0  0  0  0  0  0  0  0  0  0  0  0
    5.6006    0.2214    0.0000 H   0  0  0  0  0  0  0  0  0  0  0  0
    5.6671    1.0157    0.0000 H   0  0  0  0  0  0  0  0  0  0  0  0
    7.3121    2.6853    0.0000 H   0  0  0  0  0  0  0  0  0  0  0  0
    7.3786    3.4796    0.0000 H   0  0  0  0  0  0  0  0  0  0  0  0
    5.6078    4.7097    0.0000 H   0  0  0  0  0  0  0  0  0  0  0  0
    4.8867    4.3702    0.0000 H   0  0  0  0  0  0  0  0  0  0  0  0
    4.0054   -1.4523    0.0000 H   0  0  0  0  0  0  0  0  0  0  0  0
    3.9389   -2.2466    0.0000 H   0  0  0  0  0  0  0  0  0  0  0  0
    4.1500    0.2737    0.0000 H   0  0  0  0  0  0  0  0  0  0  0  0
    4.0834   -0.5206    0.0000 H   0  0  0  0  0  0  0  0  0  0  0  0
    5.4560   -1.5046    0.0000 H   0  0  0  0  0  0  0  0  0  0  0  0
    5.5225   -0.7103    0.0000 H   0  0  0  0  0  0  0  0  0  0  0  0
    6.0690   -4.7294    0.0000 H   0  0  0  0  0  0  0  0  0  0  0  0
    4.6660   -7.1594    0.0000 H   0  0  0  0  0  0  0  0  0  0  0  0
    6.0690   -6.3494    0.0000 H   0  0  0  0  0  0  0  0  0  0  0  0
    5.9728    5.8045    0.0000 H   0  0  0  0  0  0  0  0  0  0  0  0
    9.2015    5.5342    0.0000 H   0  0  0  0  0  0  0  0  0  0  0  0
    6.8971    7.1350    0.0000 H   0  0  0  0  0  0  0  0  0  0  0  0
    8.5114    6.9998    0.0000 H   0  0  0  0  0  0  0  0  0  0  0  0
    9.3839    3.1586    0.0000 H   0  0  0  0  0  0  0  0  0  0  0  0
   10.0535    3.7247    0.0000 H   0  0  0  0  0  0  0  0  0  0  0  0
    9.4874    4.3943    0.0000 H   0  0  0  0  0  0  0  0  0  0  0  0
  1 23  2  0  0  0  0
  2 28  1  0  0  0  0
  2 33  1  0  0  0  0
  3  8  1  0  0  0  0
  3 10  1  0  0  0  0
  3 11  1  0  0  0  0
  4  7  1  0  0  0  0
  4 12  1  0  0  0  0
  4 23  1  0  0  0  0
  5  9  1  0  0  0  0
  5 15  1  0  0  0  0
  5 23  1  0  0  0  0
  6 18  1  0  0  0  0
  6 19  1  0  0  0  0
  6 26  1  0  0  0  0
  7  9  1  0  0  0  0
  7 13  2  0  0  0  0
  8 17  1  0  0  0  0
  8 34  1  0  0  0  0
  8 35  1  0  0  0  0
  9 24  2  0  0  0  0
 10 18  1  0  0  0  0
 10 36  1  0  0  0  0
 10 37  1  0  0  0  0
 11 19  1  0  0  0  0
 11 38  1  0  0  0  0
 11 39  1  0  0  0  0
 12 14  1  0  0  0  0
 12 40  1  0  0  0  0
 12 41  1  0  0  0  0
 13 16  1  0  0  0  0
 13 25  1  0  0  0  0
 14 16  1  0  0  0  0
 14 42  1  0  0  0  0
 14 43  1  0  0  0  0
 15 20  1  0  0  0  0
 15 44  1  0  0  0  0
 15 45  1  0  0  0  0
 16 46  1  0  0  0  0
 16 47  1  0  0  0  0
 17 21  1  0  0  0  0
 17 48  1  0  0  0  0
 17 49  1  0  0  0  0
 18 50  1  0  0  0  0
 18 51  1  0  0  0  0
 19 52  1  0  0  0  0
 19 53  1  0  0  0  0
 20 22  1  0  0  0  0
 20 54  1  0  0  0  0
 20 55  1  0  0  0  0
 21 22  1  0  0  0  0
 21 56  1  0  0  0  0
 21 57  1  0  0  0  0
 22 58  1  0  0  0  0
 22 59  1  0  0  0  0
 24 27  1  0  0  0  0
 24 60  1  0  0  0  0
 25 27  2  0  0  0  0
 25 61  1  0  0  0  0
 26 28  1  0  0  0  0
 26 29  2  0  0  0  0
 27 62  1  0  0  0  0
 28 30  2  0  0  0  0
 29 31  1  0  0  0  0
 29 63  1  0  0  0  0
 30 32  1  0  0  0  0
 30 64  1  0  0  0  0
 31 32  2  0  0  0  0
 31 65  1  0  0  0  0
 32 66  1  0  0  0  0
 33 67  1  0  0  0  0
 33 68  1  0  0  0  0
 33 69  1  0  0  0  0
M  END
> <PUBCHEM_COMPOUND_CID>
155549315

> <PUBCHEM_COMPOUND_CANONICALIZED>
1

> <PUBCHEM_CACTVS_COMPLEXITY>
638

> <PUBCHEM_CACTVS_HBOND_ACCEPTOR>
4

> <PUBCHEM_CACTVS_HBOND_DONOR>
0

> <PUBCHEM_CACTVS_ROTATABLE_BOND>
9

> <PUBCHEM_CACTVS_SUBSKEYS>
AAADcfB7sAAAAAAAAAAAAAAAAAAAAWAAAAA8eIEAAAAAAFixQAAAHgAAAAAADAzBmAYzxoMABACIAiRCUACCCAAhIgAIiAAPfIiOZiLEsZuVMChsxhPY6CeQwIAOAAAAQAACECAAAACAAAQgQAAAAAAAAA==

> <PUBCHEM_IUPAC_OPENEYE_NAME>
3-[6-[4-(2-methoxyphenyl)piperazin-1-yl]hexyl]-1,3-diazatricyclo[6.3.1.04,12]dodeca-4,6,8(12)-trien-2-one

> <PUBCHEM_IUPAC_CAS_NAME>
3-[6-[4-(2-methoxyphenyl)-1-piperazinyl]hexyl]-1,3-diazatricyclo[6.3.1.04,12]dodeca-4,6,8(12)-trien-2-one

> <PUBCHEM_IUPAC_NAME_MARKUP>
3-[6-[4-(2-methoxyphenyl)piperazin-1-yl]hexyl]-1,3-diazatricyclo[6.3.1.0<SUP>4,12</SUP>]dodeca-4,6,8(12)-trien-2-one

> <PUBCHEM_IUPAC_NAME>
3-[6-[4-(2-methoxyphenyl)piperazin-1-yl]hexyl]-1,3-diazatricyclo[6.3.1.04,12]dodeca-4,6,8(12)-trien-2-one

> <PUBCHEM_IUPAC_SYSTEMATIC_NAME>
3-[6-[4-(2-methoxyphenyl)piperazin-1-yl]hexyl]-1,3-diazatricyclo[6.3.1.04,12]dodeca-4,6,8(12)-trien-2-one

> <PUBCHEM_IUPAC_TRADITIONAL_NAME>
3-[6-[4-(2-methoxyphenyl)piperazino]hexyl]-1,3-diazatricyclo[6.3.1.04,12]dodeca-4,6,8(12)-trien-2-one

> <PUBCHEM_IUPAC_INCHI>
InChI=1S/C27H36N4O2/c1-33-25-14-5-4-12-23(25)29-20-18-28(19-21-29)15-6-2-3-7-16-30-24-13-8-10-22-11-9-17-31(26(22)24)27(30)32/h4-5,8,10,12-14H,2-3,6-7,9,11,15-21H2,1H3

> <PUBCHEM_IUPAC_INCHIKEY>
HKOFHLGKVUBWFI-UHFFFAOYSA-N

> <PUBCHEM_XLOGP3_AA>
4.3

> <PUBCHEM_EXACT_MASS>
448.28382640

> <PUBCHEM_MOLECULAR_FORMULA>
C27H36N4O2

> <PUBCHEM_MOLECULAR_WEIGHT>
448.6

> <PUBCHEM_OPENEYE_CAN_SMILES>
COC1=CC=CC=C1N2CCN(CC2)CCCCCCN3C4=CC=CC5=C4N(C3=O)CCC5

> <PUBCHEM_OPENEYE_ISO_SMILES>
COC1=CC=CC=C1N2CCN(CC2)CCCCCCN3C4=CC=CC5=C4N(C3=O)CCC5

> <PUBCHEM_CACTVS_TPSA>
39.3

> <PUBCHEM_MONOISOTOPIC_WEIGHT>
448.28382640

> <PUBCHEM_TOTAL_CHARGE>
0

> <PUBCHEM_HEAVY_ATOM_COUNT>
33

> <PUBCHEM_ATOM_DEF_STEREO_COUNT>
0

> <PUBCHEM_ATOM_UDEF_STEREO_COUNT>
0

> <PUBCHEM_BOND_DEF_STEREO_COUNT>
0

> <PUBCHEM_BOND_UDEF_STEREO_COUNT>
0

> <PUBCHEM_ISOTOPIC_ATOM_COUNT>
0

> <PUBCHEM_COMPONENT_COUNT>
1

> <PUBCHEM_CACTVS_TAUTO_COUNT>
-1

> <PUBCHEM_COORDINATE_TYPE>
1
5
255

> <PUBCHEM_BONDANNOTATIONS>
13  25  8
24  27  8
25  27  8
26  28  8
26  29  8
28  30  8
29  31  8
30  32  8
31  32  8
4  23  8
4  7  8
5  23  8
5  9  8
7  13  8
7  9  8
9  24  8

$$$$
