44415658
  -OEChem-09292322282D

 63 68  0     0  0  0  0  0  0999 V2000
    8.7204    0.4491    0.0000 Cl  0  0  0  0  0  0  0  0  0  0  0  0
    6.5580   -3.9656    0.0000 S   0  0  0  0  0  0  0  0  0  0  0  0
    6.6150   -1.8778    0.0000 O   0  0  0  0  0  0  0  0  0  0  0  0
    3.9491    2.2138    0.0000 N   0  0  0  0  0  0  0  0  0  0  0  0
    3.0814    4.0157    0.0000 N   0  0  0  0  0  0  0  0  0  0  0  0
    4.8830   -0.8778    0.0000 N   0  0  0  0  0  0  0  0  0  0  0  0
    5.3830    1.3128    0.0000 N   0  0  0  0  0  0  0  0  0  0  0  0
    4.8830   -1.8778    0.0000 N   0  0  0  0  0  0  0  0  0  0  0  0
    4.5125    3.0400    0.0000 C   0  0  0  0  0  0  0  0  0  0  0  0
    2.9519    2.2885    0.0000 C   0  0  0  0  0  0  0  0  0  0  0  0
    4.0786    3.9410    0.0000 C   0  0  0  0  0  0  0  0  0  0  0  0
    2.5180    3.1895    0.0000 C   0  0  0  0  0  0  0  0  0  0  0  0
    4.3830    1.3128    0.0000 C   0  0  0  0  0  0  0  0  0  0  0  0
    3.7595    0.5310    0.0000 C   0  0  0  0  0  0  0  0  0  0  0  0
    2.6475    4.9167    0.0000 C   0  0  0  0  0  0  0  0  0  0  0  0
    3.9820   -0.4440    0.0000 C   0  0  0  0  0  0  0  0  0  0  0  0
    5.7840   -0.4440    0.0000 C   0  0  0  0  0  0  0  0  0  0  0  0
    6.0065    0.5310    0.0000 C   0  0  0  0  0  0  0  0  0  0  0  0
    2.7690    0.8533    0.0000 C   0  0  0  0  0  0  0  0  0  0  0  0
    3.2295   -1.1641    0.0000 C   0  0  0  0  0  0  0  0  0  0  0  0
    2.0000    0.1507    0.0000 C   0  0  0  0  0  0  0  0  0  0  0  0
    6.5365   -1.1642    0.0000 C   0  0  0  0  0  0  0  0  0  0  0  0
    6.9970    0.8533    0.0000 C   0  0  0  0  0  0  0  0  0  0  0  0
    2.2318   -0.8648    0.0000 C   0  0  0  0  0  0  0  0  0  0  0  0
    7.5342   -0.8648    0.0000 C   0  0  0  0  0  0  0  0  0  0  0  0
    7.7660    0.1507    0.0000 C   0  0  0  0  0  0  0  0  0  0  0  0
    5.7490   -2.3778    0.0000 C   0  0  0  0  0  0  0  0  0  0  0  0
    5.7490   -3.3778    0.0000 C   0  0  0  0  0  0  0  0  0  0  0  0
    4.9400   -3.9656    0.0000 C   0  0  0  0  0  0  0  0  0  0  0  0
    3.9889   -3.6566    0.0000 C   0  0  0  0  0  0  0  0  0  0  0  0
    5.2490   -4.9167    0.0000 C   0  0  0  0  0  0  0  0  0  0  0  0
    6.2490   -4.9167    0.0000 C   0  0  0  0  0  0  0  0  0  0  0  0
    3.2458   -4.3257    0.0000 C   0  0  0  0  0  0  0  0  0  0  0  0
    3.7810   -2.6785    0.0000 C   0  0  0  0  0  0  0  0  0  0  0  0
    2.2947   -4.0167    0.0000 C   0  0  0  0  0  0  0  0  0  0  0  0
    2.8300   -2.3694    0.0000 C   0  0  0  0  0  0  0  0  0  0  0  0
    2.0868   -3.0386    0.0000 C   0  0  0  0  0  0  0  0  0  0  0  0
    4.9563    2.6071    0.0000 H   0  0  0  0  0  0  0  0  0  0  0  0
    5.0159    3.4019    0.0000 H   0  0  0  0  0  0  0  0  0  0  0  0
    2.3551    2.1206    0.0000 H   0  0  0  0  0  0  0  0  0  0  0  0
    3.0137    1.6716    0.0000 H   0  0  0  0  0  0  0  0  0  0  0  0
    4.6754    4.1089    0.0000 H   0  0  0  0  0  0  0  0  0  0  0  0
    4.0168    4.5579    0.0000 H   0  0  0  0  0  0  0  0  0  0  0  0
    2.0742    3.6224    0.0000 H   0  0  0  0  0  0  0  0  0  0  0  0
    2.0146    2.8276    0.0000 H   0  0  0  0  0  0  0  0  0  0  0  0
    3.2061    5.1857    0.0000 H   0  0  0  0  0  0  0  0  0  0  0  0
    2.3785    5.4753    0.0000 H   0  0  0  0  0  0  0  0  0  0  0  0
    2.0889    4.6477    0.0000 H   0  0  0  0  0  0  0  0  0  0  0  0
    2.6380    1.4593    0.0000 H   0  0  0  0  0  0  0  0  0  0  0  0
    3.3744   -1.7669    0.0000 H   0  0  0  0  0  0  0  0  0  0  0  0
    1.4083    0.3358    0.0000 H   0  0  0  0  0  0  0  0  0  0  0  0
    4.3460   -2.1878    0.0000 H   0  0  0  0  0  0  0  0  0  0  0  0
    6.3916   -1.7670    0.0000 H   0  0  0  0  0  0  0  0  0  0  0  0
    7.1280    1.4593    0.0000 H   0  0  0  0  0  0  0  0  0  0  0  0
    1.7789   -1.2882    0.0000 H   0  0  0  0  0  0  0  0  0  0  0  0
    7.9871   -1.2883    0.0000 H   0  0  0  0  0  0  0  0  0  0  0  0
    4.8846   -5.4183    0.0000 H   0  0  0  0  0  0  0  0  0  0  0  0
    6.6134   -5.4183    0.0000 H   0  0  0  0  0  0  0  0  0  0  0  0
    3.3747   -4.9322    0.0000 H   0  0  0  0  0  0  0  0  0  0  0  0
    4.2418   -2.2636    0.0000 H   0  0  0  0  0  0  0  0  0  0  0  0
    1.8340   -4.4316    0.0000 H   0  0  0  0  0  0  0  0  0  0  0  0
    2.7011   -1.7630    0.0000 H   0  0  0  0  0  0  0  0  0  0  0  0
    1.4972   -2.8470    0.0000 H   0  0  0  0  0  0  0  0  0  0  0  0
  1 26  1  0  0  0  0
  2 28  1  0  0  0  0
  2 32  1  0  0  0  0
  3 27  2  0  0  0  0
  4  9  1  0  0  0  0
  4 10  1  0  0  0  0
  4 13  1  0  0  0  0
  5 11  1  0  0  0  0
  5 12  1  0  0  0  0
  5 15  1  0  0  0  0
  6  8  1  0  0  0  0
  6 16  1  0  0  0  0
  6 17  1  0  0  0  0
  7 13  2  0  0  0  0
  7 18  1  0  0  0  0
  8 27  1  0  0  0  0
  8 52  1  0  0  0  0
  9 11  1  0  0  0  0
  9 38  1  0  0  0  0
  9 39  1  0  0  0  0
 10 12  1  0  0  0  0
 10 40  1  0  0  0  0
 10 41  1  0  0  0  0
 11 42  1  0  0  0  0
 11 43  1  0  0  0  0
 12 44  1  0  0  0  0
 12 45  1  0  0  0  0
 13 14  1  0  0  0  0
 14 16  1  0  0  0  0
 14 19  2  0  0  0  0
 15 46  1  0  0  0  0
 15 47  1  0  0  0  0
 15 48  1  0  0  0  0
 16 20  2  0  0  0  0
 17 18  2  0  0  0  0
 17 22  1  0  0  0  0
 18 23  1  0  0  0  0
 19 21  1  0  0  0  0
 19 49  1  0  0  0  0
 20 24  1  0  0  0  0
 20 50  1  0  0  0  0
 21 24  2  0  0  0  0
 21 51  1  0  0  0  0
 22 25  2  0  0  0  0
 22 53  1  0  0  0  0
 23 26  2  0  0  0  0
 23 54  1  0  0  0  0
 24 55  1  0  0  0  0
 25 26  1  0  0  0  0
 25 56  1  0  0  0  0
 27 28  1  0  0  0  0
 28 29  2  0  0  0  0
 29 30  1  0  0  0  0
 29 31  1  0  0  0  0
 30 33  2  0  0  0  0
 30 34  1  0  0  0  0
 31 32  2  0  0  0  0
 31 57  1  0  0  0  0
 32 58  1  0  0  0  0
 33 35  1  0  0  0  0
 33 59  1  0  0  0  0
 34 36  2  0  0  0  0
 34 60  1  0  0  0  0
 35 37  2  0  0  0  0
 35 61  1  0  0  0  0
 36 37  1  0  0  0  0
 36 62  1  0  0  0  0
 37 63  1  0  0  0  0
M  END
> <PUBCHEM_COMPOUND_CID>
44415658

> <PUBCHEM_COMPOUND_CANONICALIZED>
1

> <PUBCHEM_CACTVS_COMPLEXITY>
829

> <PUBCHEM_CACTVS_HBOND_ACCEPTOR>
5

> <PUBCHEM_CACTVS_HBOND_DONOR>
1

> <PUBCHEM_CACTVS_ROTATABLE_BOND>
4

> <PUBCHEM_CACTVS_SUBSKEYS>
AAADceB7oABEAAAAAAAAAAAAAAAAASAAAAA8YMEABAAAAAAB1AAAHgYYAAAADArF2CSzwYNiAAisAidydACDBIElDxBbqBkodtgIYPLh35GUIQhggADoyQcYiMCOgABAAAICACAAAIAABAQAQAAAAAAAAA==

> <PUBCHEM_IUPAC_OPENEYE_NAME>
N-[3-chloro-6-(4-methylpiperazin-1-yl)benzo[b][1,4]benzodiazepin-11-yl]-3-phenyl-thiophene-2-carboxamide

> <PUBCHEM_IUPAC_CAS_NAME>
N-[3-chloro-6-(4-methyl-1-piperazinyl)-11-benzo[b][1,4]benzodiazepinyl]-3-phenyl-2-thiophenecarboxamide

> <PUBCHEM_IUPAC_NAME_MARKUP>
<I>N</I>-[3-chloro-6-(4-methylpiperazin-1-yl)benzo[b][1,4]benzodiazepin-11-yl]-3-phenylthiophene-2-carboxamide

> <PUBCHEM_IUPAC_NAME>
N-[3-chloro-6-(4-methylpiperazin-1-yl)benzo[b][1,4]benzodiazepin-11-yl]-3-phenylthiophene-2-carboxamide

> <PUBCHEM_IUPAC_SYSTEMATIC_NAME>
N-[3-chloranyl-6-(4-methylpiperazin-1-yl)benzo[b][1,4]benzodiazepin-11-yl]-3-phenyl-thiophene-2-carboxamide

> <PUBCHEM_IUPAC_TRADITIONAL_NAME>
N-[3-chloro-6-(4-methylpiperazino)benzo[b][1,4]benzodiazepin-11-yl]-3-phenyl-thiophene-2-carboxamide

> <PUBCHEM_IUPAC_INCHI>
InChI=1S/C29H26ClN5OS/c1-33-14-16-34(17-15-33)28-23-9-5-6-10-25(23)35(26-12-11-21(30)19-24(26)31-28)32-29(36)27-22(13-18-37-27)20-7-3-2-4-8-20/h2-13,18-19H,14-17H2,1H3,(H,32,36)

> <PUBCHEM_IUPAC_INCHIKEY>
VLPMRGUATFBEPH-UHFFFAOYSA-N

> <PUBCHEM_XLOGP3_AA>
6

> <PUBCHEM_EXACT_MASS>
527.1546593

> <PUBCHEM_MOLECULAR_FORMULA>
C29H26ClN5OS

> <PUBCHEM_MOLECULAR_WEIGHT>
528.1

> <PUBCHEM_OPENEYE_CAN_SMILES>
CN1CCN(CC1)C2=NC3=C(C=CC(=C3)Cl)N(C4=CC=CC=C42)NC(=O)C5=C(C=CS5)C6=CC=CC=C6

> <PUBCHEM_OPENEYE_ISO_SMILES>
CN1CCN(CC1)C2=NC3=C(C=CC(=C3)Cl)N(C4=CC=CC=C42)NC(=O)C5=C(C=CS5)C6=CC=CC=C6

> <PUBCHEM_CACTVS_TPSA>
79.4

> <PUBCHEM_MONOISOTOPIC_WEIGHT>
527.1546593

> <PUBCHEM_TOTAL_CHARGE>
0

> <PUBCHEM_HEAVY_ATOM_COUNT>
37

> <PUBCHEM_ATOM_DEF_STEREO_COUNT>
0

> <PUBCHEM_ATOM_UDEF_STEREO_COUNT>
0

> <PUBCHEM_BOND_DEF_STEREO_COUNT>
0

> <PUBCHEM_BOND_UDEF_STEREO_COUNT>
0

> <PUBCHEM_ISOTOPIC_ATOM_COUNT>
0

> <PUBCHEM_COMPONENT_COUNT>
1

> <PUBCHEM_CACTVS_TAUTO_COUNT>
-1

> <PUBCHEM_COORDINATE_TYPE>
1
5
255

> <PUBCHEM_BONDANNOTATIONS>
14  16  8
14  19  8
16  20  8
17  18  8
17  22  8
18  23  8
19  21  8
2  28  8
2  32  8
20  24  8
21  24  8
22  25  8
23  26  8
25  26  8
28  29  8
29  31  8
30  33  8
30  34  8
31  32  8
33  35  8
34  36  8
35  37  8
36  37  8

$$$$
