72699904
  -OEChem-09292322362D

 49 52  0     1  0  0  0  0  0999 V2000
    5.4820    6.0525    0.0000 Cl  0  0  0  0  0  0  0  0  0  0  0  0
    5.3871    0.8146    0.0000 S   0  0  0  0  0  0  0  0  0  0  0  0
    3.8372   -5.5492    0.0000 O   0  0  0  0  0  0  0  0  0  0  0  0
    5.6405   -4.4894    0.0000 O   0  0  0  0  0  0  0  0  0  0  0  0
    2.9180   -0.8525    0.0000 N   0  0  3  0  0  0  0  0  0  0  0  0
    3.7841   -1.3525    0.0000 C   0  0  1  0  0  0  0  0  0  0  0  0
    4.6501   -0.8525    0.0000 C   0  0  0  0  0  0  0  0  0  0  0  0
    2.0080   -1.3593    0.0000 C   0  0  0  0  0  0  0  0  0  0  0  0
    2.9180    0.1475    0.0000 C   0  0  0  0  0  0  0  0  0  0  0  0
    3.8001   -2.3940    0.0000 C   0  0  0  0  0  0  0  0  0  0  0  0
    2.0000   -2.4009    0.0000 C   0  0  0  0  0  0  0  0  0  0  0  0
    3.7841    0.6475    0.0000 C   0  0  0  0  0  0  0  0  0  0  0  0
    4.6501    0.1475    0.0000 C   0  0  0  0  0  0  0  0  0  0  0  0
    2.9021   -2.9217    0.0000 C   0  0  0  0  0  0  0  0  0  0  0  0
    3.9933    1.6193    0.0000 C   0  0  0  0  0  0  0  0  0  0  0  0
    4.7520   -2.9146    0.0000 C   0  0  0  0  0  0  0  0  0  0  0  0
    4.9820    1.7224    0.0000 C   0  0  0  0  0  0  0  0  0  0  0  0
    2.8937   -4.0067    0.0000 C   0  0  0  0  0  0  0  0  0  0  0  0
    5.4820    2.5884    0.0000 C   0  0  0  0  0  0  0  0  0  0  0  0
    4.7688   -3.9995    0.0000 C   0  0  0  0  0  0  0  0  0  0  0  0
    3.8334   -4.5492    0.0000 C   0  0  0  0  0  0  0  0  0  0  0  0
    4.9820    3.4544    0.0000 C   0  0  0  0  0  0  0  0  0  0  0  0
    5.4820    4.3205    0.0000 C   0  0  0  0  0  0  0  0  0  0  0  0
    4.9820    5.1865    0.0000 C   0  0  0  0  0  0  0  0  0  0  0  0
    2.9731   -6.0525    0.0000 C   0  0  0  0  0  0  0  0  0  0  0  0
    4.5234   -1.7718    0.0000 H   0  0  0  0  0  0  0  0  0  0  0  0
    4.8621   -1.4351    0.0000 H   0  0  0  0  0  0  0  0  0  0  0  0
    5.2607   -0.7448    0.0000 H   0  0  0  0  0  0  0  0  0  0  0  0
    1.8035   -0.7740    0.0000 H   0  0  0  0  0  0  0  0  0  0  0  0
    1.3964   -1.4607    0.0000 H   0  0  0  0  0  0  0  0  0  0  0  0
    2.7060    0.7301    0.0000 H   0  0  0  0  0  0  0  0  0  0  0  0
    2.3074    0.0399    0.0000 H   0  0  0  0  0  0  0  0  0  0  0  0
    1.3900   -2.2901    0.0000 H   0  0  0  0  0  0  0  0  0  0  0  0
    1.7864   -2.9830    0.0000 H   0  0  0  0  0  0  0  0  0  0  0  0
    3.5792    2.0808    0.0000 H   0  0  0  0  0  0  0  0  0  0  0  0
    5.2829   -2.5943    0.0000 H   0  0  0  0  0  0  0  0  0  0  0  0
    2.3556   -4.3146    0.0000 H   0  0  0  0  0  0  0  0  0  0  0  0
    5.9569    2.1899    0.0000 H   0  0  0  0  0  0  0  0  0  0  0  0
    5.9569    2.9870    0.0000 H   0  0  0  0  0  0  0  0  0  0  0  0
    4.5070    3.8530    0.0000 H   0  0  0  0  0  0  0  0  0  0  0  0
    4.5070    3.0559    0.0000 H   0  0  0  0  0  0  0  0  0  0  0  0
    5.9569    3.9219    0.0000 H   0  0  0  0  0  0  0  0  0  0  0  0
    5.9569    4.7190    0.0000 H   0  0  0  0  0  0  0  0  0  0  0  0
    6.1738   -4.1732    0.0000 H   0  0  0  0  0  0  0  0  0  0  0  0
    4.5070    5.5850    0.0000 H   0  0  0  0  0  0  0  0  0  0  0  0
    4.5070    4.7880    0.0000 H   0  0  0  0  0  0  0  0  0  0  0  0
    2.6610   -5.5168    0.0000 H   0  0  0  0  0  0  0  0  0  0  0  0
    2.4374   -6.3646    0.0000 H   0  0  0  0  0  0  0  0  0  0  0  0
    3.2852   -6.5883    0.0000 H   0  0  0  0  0  0  0  0  0  0  0  0
  1 24  1  0  0  0  0
  2 13  1  0  0  0  0
  2 17  1  0  0  0  0
  3 21  1  0  0  0  0
  3 25  1  0  0  0  0
  4 20  1  0  0  0  0
  4 44  1  0  0  0  0
  5  6  1  0  0  0  0
  5  8  1  0  0  0  0
  5  9  1  0  0  0  0
  6  7  1  0  0  0  0
  6 10  1  0  0  0  0
  6 26  1  6  0  0  0
  7 13  1  0  0  0  0
  7 27  1  0  0  0  0
  7 28  1  0  0  0  0
  8 11  1  0  0  0  0
  8 29  1  0  0  0  0
  8 30  1  0  0  0  0
  9 12  1  0  0  0  0
  9 31  1  0  0  0  0
  9 32  1  0  0  0  0
 10 14  1  0  0  0  0
 10 16  2  0  0  0  0
 11 14  1  0  0  0  0
 11 33  1  0  0  0  0
 11 34  1  0  0  0  0
 12 13  2  0  0  0  0
 12 15  1  0  0  0  0
 14 18  2  0  0  0  0
 15 17  2  0  0  0  0
 15 35  1  0  0  0  0
 16 20  1  0  0  0  0
 16 36  1  0  0  0  0
 17 19  1  0  0  0  0
 18 21  1  0  0  0  0
 18 37  1  0  0  0  0
 19 22  1  0  0  0  0
 19 38  1  0  0  0  0
 19 39  1  0  0  0  0
 20 21  2  0  0  0  0
 22 23  1  0  0  0  0
 22 40  1  0  0  0  0
 22 41  1  0  0  0  0
 23 24  1  0  0  0  0
 23 42  1  0  0  0  0
 23 43  1  0  0  0  0
 24 45  1  0  0  0  0
 24 46  1  0  0  0  0
 25 47  1  0  0  0  0
 25 48  1  0  0  0  0
 25 49  1  0  0  0  0
M  END
> <PUBCHEM_COMPOUND_CID>
72699904

> <PUBCHEM_COMPOUND_CANONICALIZED>
1

> <PUBCHEM_CACTVS_COMPLEXITY>
453

> <PUBCHEM_CACTVS_HBOND_ACCEPTOR>
4

> <PUBCHEM_CACTVS_HBOND_DONOR>
1

> <PUBCHEM_CACTVS_ROTATABLE_BOND>
5

> <PUBCHEM_CACTVS_SUBSKEYS>
AAADceB6MABEAAAAAAAAAAAAAAAAASAAAAA8WIAAAAAAAFixwAAAHgYACAAADC/B2EYyB4MABgiEAiBCAACDCIAgKBBAiBgOjogNJiKnsRuEcCtkwBGruAew0PMOoAABAAAQQABAAAIAACCAAAAAAAAAAA==

> <PUBCHEM_IUPAC_OPENEYE_NAME>
(1S)-14-(4-chlorobutyl)-5-methoxy-15-thia-10-azatetracyclo[8.7.0.02,7.012,16]heptadeca-2,4,6,12(16),13-pentaen-4-ol

> <PUBCHEM_IUPAC_CAS_NAME>
(1S)-14-(4-chlorobutyl)-5-methoxy-15-thia-10-azatetracyclo[8.7.0.02,7.012,16]heptadeca-2,4,6,12(16),13-pentaen-4-ol

> <PUBCHEM_IUPAC_NAME_MARKUP>
(1<I>S</I>)-14-(4-chlorobutyl)-5-methoxy-15-thia-10-azatetracyclo[8.7.0.0<SUP>2,7</SUP>.0<SUP>12,16</SUP>]heptadeca-2,4,6,12(16),13-pentaen-4-ol

> <PUBCHEM_IUPAC_NAME>
(1S)-14-(4-chlorobutyl)-5-methoxy-15-thia-10-azatetracyclo[8.7.0.02,7.012,16]heptadeca-2,4,6,12(16),13-pentaen-4-ol

> <PUBCHEM_IUPAC_SYSTEMATIC_NAME>
(1S)-14-(4-chloranylbutyl)-5-methoxy-15-thia-10-azatetracyclo[8.7.0.02,7.012,16]heptadeca-2,4,6,12(16),13-pentaen-4-ol

> <PUBCHEM_IUPAC_TRADITIONAL_NAME>
(1S)-14-(4-chlorobutyl)-5-methoxy-15-thia-10-azatetracyclo[8.7.0.02,7.012,16]heptadeca-2,4,6,12(16),13-pentaen-4-ol

> <PUBCHEM_IUPAC_INCHI>
InChI=1S/C20H24ClNO2S/c1-24-19-9-13-5-7-22-12-14-8-15(4-2-3-6-21)25-20(14)11-17(22)16(13)10-18(19)23/h8-10,17,23H,2-7,11-12H2,1H3/t17-/m0/s1

> <PUBCHEM_IUPAC_INCHIKEY>
MRYWDVLOYWQXCU-KRWDZBQOSA-N

> <PUBCHEM_XLOGP3_AA>
4.3

> <PUBCHEM_EXACT_MASS>
377.1216279

> <PUBCHEM_MOLECULAR_FORMULA>
C20H24ClNO2S

> <PUBCHEM_MOLECULAR_WEIGHT>
377.9

> <PUBCHEM_OPENEYE_CAN_SMILES>
COC1=C(C=C2C3CC4=C(CN3CCC2=C1)C=C(S4)CCCCCl)O

> <PUBCHEM_OPENEYE_ISO_SMILES>
COC1=C(C=C2[C@@H]3CC4=C(CN3CCC2=C1)C=C(S4)CCCCCl)O

> <PUBCHEM_CACTVS_TPSA>
60.9

> <PUBCHEM_MONOISOTOPIC_WEIGHT>
377.1216279

> <PUBCHEM_TOTAL_CHARGE>
0

> <PUBCHEM_HEAVY_ATOM_COUNT>
25

> <PUBCHEM_ATOM_DEF_STEREO_COUNT>
1

> <PUBCHEM_ATOM_UDEF_STEREO_COUNT>
0

> <PUBCHEM_BOND_DEF_STEREO_COUNT>
0

> <PUBCHEM_BOND_UDEF_STEREO_COUNT>
0

> <PUBCHEM_ISOTOPIC_ATOM_COUNT>
0

> <PUBCHEM_COMPONENT_COUNT>
1

> <PUBCHEM_CACTVS_TAUTO_COUNT>
-1

> <PUBCHEM_COORDINATE_TYPE>
1
5
255

> <PUBCHEM_BONDANNOTATIONS>
10  14  8
10  16  8
12  13  8
12  15  8
14  18  8
15  17  8
16  20  8
18  21  8
2  13  8
2  17  8
20  21  8
6  26  6

$$$$
