122183772
  -OEChem-09292322362D

 66 70  0     0  0  0  0  0  0999 V2000
    2.5280   -1.2704    0.0000 O   0  0  0  0  0  0  0  0  0  0  0  0
    4.3940   -6.8983    0.0000 O   0  0  0  0  0  0  0  0  0  0  0  0
    5.9921    2.7296    0.0000 N   0  0  0  0  0  0  0  0  0  0  0  0
    5.9921    4.7296    0.0000 N   0  0  0  0  0  0  0  0  0  0  0  0
    4.2601   -1.2704    0.0000 N   0  0  0  0  0  0  0  0  0  0  0  0
    2.5893   -3.3540    0.0000 N   0  0  0  0  0  0  0  0  0  0  0  0
    6.8582    3.2296    0.0000 C   0  0  0  0  0  0  0  0  0  0  0  0
    5.1261    3.2296    0.0000 C   0  0  0  0  0  0  0  0  0  0  0  0
    6.8582    4.2296    0.0000 C   0  0  0  0  0  0  0  0  0  0  0  0
    5.1261    4.2296    0.0000 C   0  0  0  0  0  0  0  0  0  0  0  0
    5.9921    1.7296    0.0000 C   0  0  0  0  0  0  0  0  0  0  0  0
    5.1261    1.2296    0.0000 C   0  0  0  0  0  0  0  0  0  0  0  0
    5.9921    5.7296    0.0000 C   0  0  0  0  0  0  0  0  0  0  0  0
    5.1261    0.2296    0.0000 C   0  0  0  0  0  0  0  0  0  0  0  0
    6.8582    6.2296    0.0000 C   0  0  0  0  0  0  0  0  0  0  0  0
    4.2601   -0.2704    0.0000 C   0  0  0  0  0  0  0  0  0  0  0  0
    5.1261    6.2296    0.0000 C   0  0  0  0  0  0  0  0  0  0  0  0
    6.8582    7.2296    0.0000 C   0  0  0  0  0  0  0  0  0  0  0  0
    7.7521    5.6950    0.0000 C   0  0  0  0  0  0  0  0  0  0  0  0
    5.1261    7.2296    0.0000 C   0  0  0  0  0  0  0  0  0  0  0  0
    5.9921    7.7296    0.0000 C   0  0  0  0  0  0  0  0  0  0  0  0
    7.7521    7.7643    0.0000 C   0  0  0  0  0  0  0  0  0  0  0  0
    8.6582    6.2088    0.0000 C   0  0  0  0  0  0  0  0  0  0  0  0
    8.6582    7.2504    0.0000 C   0  0  0  0  0  0  0  0  0  0  0  0
    3.3940   -1.7704    0.0000 C   0  0  0  0  0  0  0  0  0  0  0  0
    3.3940   -2.7704    0.0000 C   0  0  0  0  0  0  0  0  0  0  0  0
    3.8940   -4.3002    0.0000 C   0  0  0  0  0  0  0  0  0  0  0  0
    2.8940   -4.3002    0.0000 C   0  0  0  0  0  0  0  0  0  0  0  0
    4.1988   -3.3540    0.0000 C   0  0  0  0  0  0  0  0  0  0  0  0
    4.3940   -5.1662    0.0000 C   0  0  0  0  0  0  0  0  0  0  0  0
    2.3940   -5.1662    0.0000 C   0  0  0  0  0  0  0  0  0  0  0  0
    3.8940   -6.0322    0.0000 C   0  0  0  0  0  0  0  0  0  0  0  0
    2.8940   -6.0322    0.0000 C   0  0  0  0  0  0  0  0  0  0  0  0
    3.8940   -7.7643    0.0000 C   0  0  0  0  0  0  0  0  0  0  0  0
    7.0702    2.6470    0.0000 H   0  0  0  0  0  0  0  0  0  0  0  0
    7.4687    3.3373    0.0000 H   0  0  0  0  0  0  0  0  0  0  0  0
    4.5155    3.3373    0.0000 H   0  0  0  0  0  0  0  0  0  0  0  0
    4.9140    2.6470    0.0000 H   0  0  0  0  0  0  0  0  0  0  0  0
    7.4687    4.1220    0.0000 H   0  0  0  0  0  0  0  0  0  0  0  0
    7.0702    4.8122    0.0000 H   0  0  0  0  0  0  0  0  0  0  0  0
    4.9140    4.8122    0.0000 H   0  0  0  0  0  0  0  0  0  0  0  0
    4.5155    4.1220    0.0000 H   0  0  0  0  0  0  0  0  0  0  0  0
    6.2042    1.1470    0.0000 H   0  0  0  0  0  0  0  0  0  0  0  0
    6.6027    1.8373    0.0000 H   0  0  0  0  0  0  0  0  0  0  0  0
    4.9140    1.8122    0.0000 H   0  0  0  0  0  0  0  0  0  0  0  0
    4.5155    1.1220    0.0000 H   0  0  0  0  0  0  0  0  0  0  0  0
    5.3382   -0.3530    0.0000 H   0  0  0  0  0  0  0  0  0  0  0  0
    5.7367    0.3373    0.0000 H   0  0  0  0  0  0  0  0  0  0  0  0
    4.0480    0.3122    0.0000 H   0  0  0  0  0  0  0  0  0  0  0  0
    3.6495   -0.3780    0.0000 H   0  0  0  0  0  0  0  0  0  0  0  0
    4.5892    5.9196    0.0000 H   0  0  0  0  0  0  0  0  0  0  0  0
    7.7449    5.0750    0.0000 H   0  0  0  0  0  0  0  0  0  0  0  0
    4.5892    7.5396    0.0000 H   0  0  0  0  0  0  0  0  0  0  0  0
    5.9921    8.3496    0.0000 H   0  0  0  0  0  0  0  0  0  0  0  0
    4.7970   -1.5804    0.0000 H   0  0  0  0  0  0  0  0  0  0  0  0
    7.7449    8.3842    0.0000 H   0  0  0  0  0  0  0  0  0  0  0  0
    9.1939    5.8968    0.0000 H   0  0  0  0  0  0  0  0  0  0  0  0
    9.1939    7.5625    0.0000 H   0  0  0  0  0  0  0  0  0  0  0  0
    4.7881   -3.1614    0.0000 H   0  0  0  0  0  0  0  0  0  0  0  0
    2.0000   -3.1614    0.0000 H   0  0  0  0  0  0  0  0  0  0  0  0
    5.0140   -5.1662    0.0000 H   0  0  0  0  0  0  0  0  0  0  0  0
    1.7740   -5.1662    0.0000 H   0  0  0  0  0  0  0  0  0  0  0  0
    2.5840   -6.5692    0.0000 H   0  0  0  0  0  0  0  0  0  0  0  0
    3.3571   -7.4543    0.0000 H   0  0  0  0  0  0  0  0  0  0  0  0
    3.5840   -8.3012    0.0000 H   0  0  0  0  0  0  0  0  0  0  0  0
    4.4310   -8.0743    0.0000 H   0  0  0  0  0  0  0  0  0  0  0  0
  1 25  2  0  0  0  0
  2 32  1  0  0  0  0
  2 34  1  0  0  0  0
  3  7  1  0  0  0  0
  3  8  1  0  0  0  0
  3 11  1  0  0  0  0
  4  9  1  0  0  0  0
  4 10  1  0  0  0  0
  4 13  1  0  0  0  0
  5 16  1  0  0  0  0
  5 25  1  0  0  0  0
  5 55  1  0  0  0  0
  6 26  1  0  0  0  0
  6 28  1  0  0  0  0
  6 60  1  0  0  0  0
  7  9  1  0  0  0  0
  7 35  1  0  0  0  0
  7 36  1  0  0  0  0
  8 10  1  0  0  0  0
  8 37  1  0  0  0  0
  8 38  1  0  0  0  0
  9 39  1  0  0  0  0
  9 40  1  0  0  0  0
 10 41  1  0  0  0  0
 10 42  1  0  0  0  0
 11 12  1  0  0  0  0
 11 43  1  0  0  0  0
 11 44  1  0  0  0  0
 12 14  1  0  0  0  0
 12 45  1  0  0  0  0
 12 46  1  0  0  0  0
 13 15  1  0  0  0  0
 13 17  2  0  0  0  0
 14 16  1  0  0  0  0
 14 47  1  0  0  0  0
 14 48  1  0  0  0  0
 15 18  1  0  0  0  0
 15 19  2  0  0  0  0
 16 49  1  0  0  0  0
 16 50  1  0  0  0  0
 17 20  1  0  0  0  0
 17 51  1  0  0  0  0
 18 21  1  0  0  0  0
 18 22  2  0  0  0  0
 19 23  1  0  0  0  0
 19 52  1  0  0  0  0
 20 21  2  0  0  0  0
 20 53  1  0  0  0  0
 21 54  1  0  0  0  0
 22 24  1  0  0  0  0
 22 56  1  0  0  0  0
 23 24  2  0  0  0  0
 23 57  1  0  0  0  0
 24 58  1  0  0  0  0
 25 26  1  0  0  0  0
 26 29  2  0  0  0  0
 27 28  2  0  0  0  0
 27 29  1  0  0  0  0
 27 30  1  0  0  0  0
 28 31  1  0  0  0  0
 29 59  1  0  0  0  0
 30 32  2  0  0  0  0
 30 61  1  0  0  0  0
 31 33  2  0  0  0  0
 31 62  1  0  0  0  0
 32 33  1  0  0  0  0
 33 63  1  0  0  0  0
 34 64  1  0  0  0  0
 34 65  1  0  0  0  0
 34 66  1  0  0  0  0
M  END
> <PUBCHEM_COMPOUND_CID>
122183772

> <PUBCHEM_COMPOUND_CANONICALIZED>
1

> <PUBCHEM_CACTVS_COMPLEXITY>
652

> <PUBCHEM_CACTVS_HBOND_ACCEPTOR>
4

> <PUBCHEM_CACTVS_HBOND_DONOR>
2

> <PUBCHEM_CACTVS_ROTATABLE_BOND>
8

> <PUBCHEM_CACTVS_SUBSKEYS>
AAADcfB7sAAAAAAAAAAAAAAAAAAAAWAAAAA8YMEAAAAAAFjB9AAAHgAQAAAADAzBngYyxvPJlACoAyVyVACCiCAnIiAImaG+bNgMZvLEtbuUMShk1hHI6Ye42bOegEABQAASAAAAgAKAACQAAAAAAAAAAA==

> <PUBCHEM_IUPAC_OPENEYE_NAME>
5-methoxy-N-[4-[4-(1-naphthyl)piperazin-1-yl]butyl]-1H-indole-2-carboxamide

> <PUBCHEM_IUPAC_CAS_NAME>
5-methoxy-N-[4-[4-(1-naphthalenyl)-1-piperazinyl]butyl]-1H-indole-2-carboxamide

> <PUBCHEM_IUPAC_NAME_MARKUP>
5-methoxy-<I>N</I>-[4-(4-naphthalen-1-ylpiperazin-1-yl)butyl]-1<I>H</I>-indole-2-carboxamide

> <PUBCHEM_IUPAC_NAME>
5-methoxy-N-[4-(4-naphthalen-1-ylpiperazin-1-yl)butyl]-1H-indole-2-carboxamide

> <PUBCHEM_IUPAC_SYSTEMATIC_NAME>
5-methoxy-N-[4-(4-naphthalen-1-ylpiperazin-1-yl)butyl]-1H-indole-2-carboxamide

> <PUBCHEM_IUPAC_TRADITIONAL_NAME>
5-methoxy-N-[4-[4-(1-naphthyl)piperazino]butyl]-1H-indole-2-carboxamide

> <PUBCHEM_IUPAC_INCHI>
InChI=1S/C28H32N4O2/c1-34-23-11-12-25-22(19-23)20-26(30-25)28(33)29-13-4-5-14-31-15-17-32(18-16-31)27-10-6-8-21-7-2-3-9-24(21)27/h2-3,6-12,19-20,30H,4-5,13-18H2,1H3,(H,29,33)

> <PUBCHEM_IUPAC_INCHIKEY>
CGCDEESEQCYCIB-UHFFFAOYSA-N

> <PUBCHEM_XLOGP3_AA>
5.2

> <PUBCHEM_EXACT_MASS>
456.25252628

> <PUBCHEM_MOLECULAR_FORMULA>
C28H32N4O2

> <PUBCHEM_MOLECULAR_WEIGHT>
456.6

> <PUBCHEM_OPENEYE_CAN_SMILES>
COC1=CC2=C(C=C1)NC(=C2)C(=O)NCCCCN3CCN(CC3)C4=CC=CC5=CC=CC=C54

> <PUBCHEM_OPENEYE_ISO_SMILES>
COC1=CC2=C(C=C1)NC(=C2)C(=O)NCCCCN3CCN(CC3)C4=CC=CC5=CC=CC=C54

> <PUBCHEM_CACTVS_TPSA>
60.6

> <PUBCHEM_MONOISOTOPIC_WEIGHT>
456.25252628

> <PUBCHEM_TOTAL_CHARGE>
0

> <PUBCHEM_HEAVY_ATOM_COUNT>
34

> <PUBCHEM_ATOM_DEF_STEREO_COUNT>
0

> <PUBCHEM_ATOM_UDEF_STEREO_COUNT>
0

> <PUBCHEM_BOND_DEF_STEREO_COUNT>
0

> <PUBCHEM_BOND_UDEF_STEREO_COUNT>
0

> <PUBCHEM_ISOTOPIC_ATOM_COUNT>
0

> <PUBCHEM_COMPONENT_COUNT>
1

> <PUBCHEM_CACTVS_TAUTO_COUNT>
-1

> <PUBCHEM_COORDINATE_TYPE>
1
5
255

> <PUBCHEM_BONDANNOTATIONS>
13  15  8
13  17  8
15  18  8
15  19  8
17  20  8
18  21  8
18  22  8
19  23  8
20  21  8
22  24  8
23  24  8
26  29  8
27  28  8
27  29  8
27  30  8
28  31  8
30  32  8
31  33  8
32  33  8
6  26  8
6  28  8

$$$$
