49850772
  -OEChem-09292322312D

 57 61  0     0  0  0  0  0  0999 V2000
    6.1808   -0.3339    0.0000 N   0  0  0  0  0  0  0  0  0  0  0  0
    6.1808   -2.3339    0.0000 N   0  0  0  0  0  0  0  0  0  0  0  0
    7.9407   -5.3686    0.0000 N   0  0  0  0  0  0  0  0  0  0  0  0
    3.5827    4.1661    0.0000 N   0  0  0  0  0  0  0  0  0  0  0  0
    3.4782    5.1606    0.0000 N   0  0  0  0  0  0  0  0  0  0  0  0
    5.3147   -0.8339    0.0000 C   0  0  0  0  0  0  0  0  0  0  0  0
    7.0468   -0.8339    0.0000 C   0  0  0  0  0  0  0  0  0  0  0  0
    5.3147   -1.8339    0.0000 C   0  0  0  0  0  0  0  0  0  0  0  0
    7.0468   -1.8339    0.0000 C   0  0  0  0  0  0  0  0  0  0  0  0
    6.1808    0.6661    0.0000 C   0  0  0  0  0  0  0  0  0  0  0  0
    6.1808   -3.3339    0.0000 C   0  0  0  0  0  0  0  0  0  0  0  0
    5.3147    1.1661    0.0000 C   0  0  0  0  0  0  0  0  0  0  0  0
    7.0468   -3.8339    0.0000 C   0  0  0  0  0  0  0  0  0  0  0  0
    5.3147    2.1661    0.0000 C   0  0  0  0  0  0  0  0  0  0  0  0
    5.3147   -3.8339    0.0000 C   0  0  0  0  0  0  0  0  0  0  0  0
    7.0468   -4.8339    0.0000 C   0  0  0  0  0  0  0  0  0  0  0  0
    7.9407   -3.2992    0.0000 C   0  0  0  0  0  0  0  0  0  0  0  0
    5.3147   -4.8339    0.0000 C   0  0  0  0  0  0  0  0  0  0  0  0
    4.4487    2.6661    0.0000 C   0  0  0  0  0  0  0  0  0  0  0  0
    6.1808   -5.3339    0.0000 C   0  0  0  0  0  0  0  0  0  0  0  0
    6.1808    2.6661    0.0000 C   0  0  0  0  0  0  0  0  0  0  0  0
    4.4487    3.6661    0.0000 C   0  0  0  0  0  0  0  0  0  0  0  0
    8.8468   -3.8131    0.0000 C   0  0  0  0  0  0  0  0  0  0  0  0
    8.8468   -4.8547    0.0000 C   0  0  0  0  0  0  0  0  0  0  0  0
    6.1808    3.6661    0.0000 C   0  0  0  0  0  0  0  0  0  0  0  0
    5.3147    4.1661    0.0000 C   0  0  0  0  0  0  0  0  0  0  0  0
    9.7109   -5.3580    0.0000 C   0  0  0  0  0  0  0  0  0  0  0  0
    2.6691    3.7594    0.0000 C   0  0  0  0  0  0  0  0  0  0  0  0
    2.0000    4.5025    0.0000 C   0  0  0  0  0  0  0  0  0  0  0  0
    2.5000    5.3686    0.0000 C   0  0  0  0  0  0  0  0  0  0  0  0
    5.1027   -0.2513    0.0000 H   0  0  0  0  0  0  0  0  0  0  0  0
    4.7042   -0.9415    0.0000 H   0  0  0  0  0  0  0  0  0  0  0  0
    7.6574   -0.9415    0.0000 H   0  0  0  0  0  0  0  0  0  0  0  0
    7.2588   -0.2513    0.0000 H   0  0  0  0  0  0  0  0  0  0  0  0
    4.7042   -1.7262    0.0000 H   0  0  0  0  0  0  0  0  0  0  0  0
    5.1027   -2.4165    0.0000 H   0  0  0  0  0  0  0  0  0  0  0  0
    7.2588   -2.4165    0.0000 H   0  0  0  0  0  0  0  0  0  0  0  0
    7.6574   -1.7262    0.0000 H   0  0  0  0  0  0  0  0  0  0  0  0
    6.7913    0.5585    0.0000 H   0  0  0  0  0  0  0  0  0  0  0  0
    6.3928    1.2487    0.0000 H   0  0  0  0  0  0  0  0  0  0  0  0
    4.7042    1.2738    0.0000 H   0  0  0  0  0  0  0  0  0  0  0  0
    5.1027    0.5835    0.0000 H   0  0  0  0  0  0  0  0  0  0  0  0
    4.7778   -3.5239    0.0000 H   0  0  0  0  0  0  0  0  0  0  0  0
    7.9336   -2.6793    0.0000 H   0  0  0  0  0  0  0  0  0  0  0  0
    4.7778   -5.1439    0.0000 H   0  0  0  0  0  0  0  0  0  0  0  0
    3.9118    2.3561    0.0000 H   0  0  0  0  0  0  0  0  0  0  0  0
    6.1808   -5.9539    0.0000 H   0  0  0  0  0  0  0  0  0  0  0  0
    6.7177    2.3561    0.0000 H   0  0  0  0  0  0  0  0  0  0  0  0
    9.3825   -3.5010    0.0000 H   0  0  0  0  0  0  0  0  0  0  0  0
    6.7177    3.9761    0.0000 H   0  0  0  0  0  0  0  0  0  0  0  0
    5.3147    4.7861    0.0000 H   0  0  0  0  0  0  0  0  0  0  0  0
    9.3988   -5.8938    0.0000 H   0  0  0  0  0  0  0  0  0  0  0  0
   10.2466   -5.6701    0.0000 H   0  0  0  0  0  0  0  0  0  0  0  0
   10.0229   -4.8223    0.0000 H   0  0  0  0  0  0  0  0  0  0  0  0
    2.5402    3.1529    0.0000 H   0  0  0  0  0  0  0  0  0  0  0  0
    1.3834    4.4377    0.0000 H   0  0  0  0  0  0  0  0  0  0  0  0
    2.2478    5.9350    0.0000 H   0  0  0  0  0  0  0  0  0  0  0  0
  1  6  1  0  0  0  0
  1  7  1  0  0  0  0
  1 10  1  0  0  0  0
  2  8  1  0  0  0  0
  2  9  1  0  0  0  0
  2 11  1  0  0  0  0
  3 16  1  0  0  0  0
  3 24  2  0  0  0  0
  4  5  1  0  0  0  0
  4 22  1  0  0  0  0
  4 28  1  0  0  0  0
  5 30  2  0  0  0  0
  6  8  1  0  0  0  0
  6 31  1  0  0  0  0
  6 32  1  0  0  0  0
  7  9  1  0  0  0  0
  7 33  1  0  0  0  0
  7 34  1  0  0  0  0
  8 35  1  0  0  0  0
  8 36  1  0  0  0  0
  9 37  1  0  0  0  0
  9 38  1  0  0  0  0
 10 12  1  0  0  0  0
 10 39  1  0  0  0  0
 10 40  1  0  0  0  0
 11 13  1  0  0  0  0
 11 15  2  0  0  0  0
 12 14  1  0  0  0  0
 12 41  1  0  0  0  0
 12 42  1  0  0  0  0
 13 16  2  0  0  0  0
 13 17  1  0  0  0  0
 14 19  2  0  0  0  0
 14 21  1  0  0  0  0
 15 18  1  0  0  0  0
 15 43  1  0  0  0  0
 16 20  1  0  0  0  0
 17 23  2  0  0  0  0
 17 44  1  0  0  0  0
 18 20  2  0  0  0  0
 18 45  1  0  0  0  0
 19 22  1  0  0  0  0
 19 46  1  0  0  0  0
 20 47  1  0  0  0  0
 21 25  2  0  0  0  0
 21 48  1  0  0  0  0
 22 26  2  0  0  0  0
 23 24  1  0  0  0  0
 23 49  1  0  0  0  0
 24 27  1  0  0  0  0
 25 26  1  0  0  0  0
 25 50  1  0  0  0  0
 26 51  1  0  0  0  0
 27 52  1  0  0  0  0
 27 53  1  0  0  0  0
 27 54  1  0  0  0  0
 28 29  2  0  0  0  0
 28 55  1  0  0  0  0
 29 30  1  0  0  0  0
 29 56  1  0  0  0  0
 30 57  1  0  0  0  0
M  END
> <PUBCHEM_COMPOUND_CID>
49850772

> <PUBCHEM_COMPOUND_CANONICALIZED>
1

> <PUBCHEM_CACTVS_COMPLEXITY>
534

> <PUBCHEM_CACTVS_HBOND_ACCEPTOR>
4

> <PUBCHEM_CACTVS_HBOND_DONOR>
0

> <PUBCHEM_CACTVS_ROTATABLE_BOND>
5

> <PUBCHEM_CACTVS_SUBSKEYS>
AAADceB7gAAAAAAAAAAAAAAAAAAAAWAAAAA8eIEAAAAAAACx/AAAHAAIAAAADAjBHgQ+wPMIEACiAzRnRACShCAxgiAYmCA4ZJgIYOLA0dGUpAhgiADIyAcQgIAOAAAAQAQCAAAAAACACAQAAAAAAAAAAA==

> <PUBCHEM_IUPAC_OPENEYE_NAME>
2-methyl-5-[4-[2-(3-pyrazol-1-ylphenyl)ethyl]piperazin-1-yl]quinoline

> <PUBCHEM_IUPAC_CAS_NAME>
2-methyl-5-[4-[2-[3-(1-pyrazolyl)phenyl]ethyl]-1-piperazinyl]quinoline

> <PUBCHEM_IUPAC_NAME_MARKUP>
2-methyl-5-[4-[2-(3-pyrazol-1-ylphenyl)ethyl]piperazin-1-yl]quinoline

> <PUBCHEM_IUPAC_NAME>
2-methyl-5-[4-[2-(3-pyrazol-1-ylphenyl)ethyl]piperazin-1-yl]quinoline

> <PUBCHEM_IUPAC_SYSTEMATIC_NAME>
2-methyl-5-[4-[2-(3-pyrazol-1-ylphenyl)ethyl]piperazin-1-yl]quinoline

> <PUBCHEM_IUPAC_TRADITIONAL_NAME>
2-methyl-5-[4-[2-(3-pyrazol-1-ylphenyl)ethyl]piperazino]quinoline

> <PUBCHEM_IUPAC_INCHI>
InChI=1S/C25H27N5/c1-20-9-10-23-24(27-20)7-3-8-25(23)29-17-15-28(16-18-29)14-11-21-5-2-6-22(19-21)30-13-4-12-26-30/h2-10,12-13,19H,11,14-18H2,1H3

> <PUBCHEM_IUPAC_INCHIKEY>
SIMNKURLSFAWDZ-UHFFFAOYSA-N

> <PUBCHEM_XLOGP3_AA>
4.4

> <PUBCHEM_EXACT_MASS>
397.22664588

> <PUBCHEM_MOLECULAR_FORMULA>
C25H27N5

> <PUBCHEM_MOLECULAR_WEIGHT>
397.5

> <PUBCHEM_OPENEYE_CAN_SMILES>
CC1=NC2=C(C=C1)C(=CC=C2)N3CCN(CC3)CCC4=CC(=CC=C4)N5C=CC=N5

> <PUBCHEM_OPENEYE_ISO_SMILES>
CC1=NC2=C(C=C1)C(=CC=C2)N3CCN(CC3)CCC4=CC(=CC=C4)N5C=CC=N5

> <PUBCHEM_CACTVS_TPSA>
37.2

> <PUBCHEM_MONOISOTOPIC_WEIGHT>
397.22664588

> <PUBCHEM_TOTAL_CHARGE>
0

> <PUBCHEM_HEAVY_ATOM_COUNT>
30

> <PUBCHEM_ATOM_DEF_STEREO_COUNT>
0

> <PUBCHEM_ATOM_UDEF_STEREO_COUNT>
0

> <PUBCHEM_BOND_DEF_STEREO_COUNT>
0

> <PUBCHEM_BOND_UDEF_STEREO_COUNT>
0

> <PUBCHEM_ISOTOPIC_ATOM_COUNT>
0

> <PUBCHEM_COMPONENT_COUNT>
1

> <PUBCHEM_CACTVS_TAUTO_COUNT>
-1

> <PUBCHEM_COORDINATE_TYPE>
1
5
255

> <PUBCHEM_BONDANNOTATIONS>
11  13  8
11  15  8
13  16  8
13  17  8
14  19  8
14  21  8
15  18  8
16  20  8
17  23  8
18  20  8
19  22  8
21  25  8
22  26  8
23  24  8
25  26  8
28  29  8
29  30  8
3  16  8
3  24  8
4  28  8
4  5  8
5  30  8

$$$$
