10045023
  -OEChem-09292322132D

 61 64  0     1  0  0  0  0  0999 V2000
   10.6603   -1.2673    0.0000 O   0  0  0  0  0  0  0  0  0  0  0  0
    7.1962   -1.2673    0.0000 N   0  0  0  0  0  0  0  0  0  0  0  0
    8.9282   -0.2673    0.0000 C   0  0  0  0  0  0  0  0  0  0  0  0
    9.7942    0.2327    0.0000 C   0  0  3  0  0  0  0  0  0  0  0  0
    8.9282   -1.2673    0.0000 C   0  0  0  0  0  0  0  0  0  0  0  0
    8.0622    0.2327    0.0000 C   0  0  0  0  0  0  0  0  0  0  0  0
    8.0622   -1.7673    0.0000 C   0  0  0  0  0  0  0  0  0  0  0  0
    7.1962   -0.2673    0.0000 C   0  0  0  0  0  0  0  0  0  0  0  0
    9.7942    1.2327    0.0000 C   0  0  0  0  0  0  0  0  0  0  0  0
   10.6603   -0.2673    0.0000 C   0  0  0  0  0  0  0  0  0  0  0  0
   10.6603    1.7327    0.0000 C   0  0  0  0  0  0  0  0  0  0  0  0
    6.3301   -1.7673    0.0000 C   0  0  0  0  0  0  0  0  0  0  0  0
   11.5263    0.2327    0.0000 C   0  0  0  0  0  0  0  0  0  0  0  0
   11.5263    1.2327    0.0000 C   0  0  0  0  0  0  0  0  0  0  0  0
    5.4641   -1.2673    0.0000 C   0  0  0  0  0  0  0  0  0  0  0  0
   12.4202   -0.3020    0.0000 C   0  0  0  0  0  0  0  0  0  0  0  0
   12.4202    1.7673    0.0000 C   0  0  0  0  0  0  0  0  0  0  0  0
    5.4641   -0.2673    0.0000 C   0  0  0  0  0  0  0  0  0  0  0  0
    4.5981   -1.7673    0.0000 C   0  0  0  0  0  0  0  0  0  0  0  0
   13.3263    0.2119    0.0000 C   0  0  0  0  0  0  0  0  0  0  0  0
   13.3263    1.2535    0.0000 C   0  0  0  0  0  0  0  0  0  0  0  0
    2.8660    0.2327    0.0000 C   0  0  0  0  0  0  0  0  0  0  0  0
    3.7320   -0.2673    0.0000 C   0  0  0  0  0  0  0  0  0  0  0  0
    4.5981    0.2327    0.0000 C   0  0  0  0  0  0  0  0  0  0  0  0
    3.7320   -1.2673    0.0000 C   0  0  0  0  0  0  0  0  0  0  0  0
    2.0000    0.7327    0.0000 C   0  0  0  0  0  0  0  0  0  0  0  0
    2.3660   -0.6334    0.0000 C   0  0  0  0  0  0  0  0  0  0  0  0
    3.3660    1.0987    0.0000 C   0  0  0  0  0  0  0  0  0  0  0  0
    9.4651   -0.5773    0.0000 H   0  0  0  0  0  0  0  0  0  0  0  0
    9.2573    0.5427    0.0000 H   0  0  0  0  0  0  0  0  0  0  0  0
    9.1403   -1.8499    0.0000 H   0  0  0  0  0  0  0  0  0  0  0  0
    9.5388   -1.1597    0.0000 H   0  0  0  0  0  0  0  0  0  0  0  0
    8.4607    0.7076    0.0000 H   0  0  0  0  0  0  0  0  0  0  0  0
    7.6636    0.7076    0.0000 H   0  0  0  0  0  0  0  0  0  0  0  0
    7.6636   -2.2423    0.0000 H   0  0  0  0  0  0  0  0  0  0  0  0
    8.4607   -2.2423    0.0000 H   0  0  0  0  0  0  0  0  0  0  0  0
    6.9841    0.3153    0.0000 H   0  0  0  0  0  0  0  0  0  0  0  0
    6.5856   -0.3750    0.0000 H   0  0  0  0  0  0  0  0  0  0  0  0
    9.5822    1.8153    0.0000 H   0  0  0  0  0  0  0  0  0  0  0  0
    9.1836    1.1250    0.0000 H   0  0  0  0  0  0  0  0  0  0  0  0
   11.0588    2.2076    0.0000 H   0  0  0  0  0  0  0  0  0  0  0  0
   10.2617    2.2076    0.0000 H   0  0  0  0  0  0  0  0  0  0  0  0
    5.9316   -2.2423    0.0000 H   0  0  0  0  0  0  0  0  0  0  0  0
    6.7287   -2.2423    0.0000 H   0  0  0  0  0  0  0  0  0  0  0  0
   12.4131   -0.9220    0.0000 H   0  0  0  0  0  0  0  0  0  0  0  0
   12.4131    2.3873    0.0000 H   0  0  0  0  0  0  0  0  0  0  0  0
    6.0010    0.0427    0.0000 H   0  0  0  0  0  0  0  0  0  0  0  0
    4.5981   -2.3873    0.0000 H   0  0  0  0  0  0  0  0  0  0  0  0
   13.8620   -0.1002    0.0000 H   0  0  0  0  0  0  0  0  0  0  0  0
   13.8620    1.5656    0.0000 H   0  0  0  0  0  0  0  0  0  0  0  0
    4.5981    0.8527    0.0000 H   0  0  0  0  0  0  0  0  0  0  0  0
    3.1951   -1.5773    0.0000 H   0  0  0  0  0  0  0  0  0  0  0  0
    2.3100    1.2696    0.0000 H   0  0  0  0  0  0  0  0  0  0  0  0
    1.4631    1.0427    0.0000 H   0  0  0  0  0  0  0  0  0  0  0  0
    1.6900    0.1957    0.0000 H   0  0  0  0  0  0  0  0  0  0  0  0
    1.8291   -0.3234    0.0000 H   0  0  0  0  0  0  0  0  0  0  0  0
    2.0560   -1.1703    0.0000 H   0  0  0  0  0  0  0  0  0  0  0  0
    2.9030   -0.9434    0.0000 H   0  0  0  0  0  0  0  0  0  0  0  0
    3.9030    0.7887    0.0000 H   0  0  0  0  0  0  0  0  0  0  0  0
    3.6760    1.6356    0.0000 H   0  0  0  0  0  0  0  0  0  0  0  0
    2.8291    1.4087    0.0000 H   0  0  0  0  0  0  0  0  0  0  0  0
  1 10  2  0  0  0  0
  2  7  1  0  0  0  0
  2  8  1  0  0  0  0
  2 12  1  0  0  0  0
  3  4  1  0  0  0  0
  3  5  1  0  0  0  0
  3  6  1  0  0  0  0
  3 29  1  0  0  0  0
  4  9  1  0  0  0  0
  4 10  1  0  0  0  0
  4 30  1  0  0  0  0
  5  7  1  0  0  0  0
  5 31  1  0  0  0  0
  5 32  1  0  0  0  0
  6  8  1  0  0  0  0
  6 33  1  0  0  0  0
  6 34  1  0  0  0  0
  7 35  1  0  0  0  0
  7 36  1  0  0  0  0
  8 37  1  0  0  0  0
  8 38  1  0  0  0  0
  9 11  1  0  0  0  0
  9 39  1  0  0  0  0
  9 40  1  0  0  0  0
 10 13  1  0  0  0  0
 11 14  1  0  0  0  0
 11 41  1  0  0  0  0
 11 42  1  0  0  0  0
 12 15  1  0  0  0  0
 12 43  1  0  0  0  0
 12 44  1  0  0  0  0
 13 14  1  0  0  0  0
 13 16  2  0  0  0  0
 14 17  2  0  0  0  0
 15 18  2  0  0  0  0
 15 19  1  0  0  0  0
 16 20  1  0  0  0  0
 16 45  1  0  0  0  0
 17 21  1  0  0  0  0
 17 46  1  0  0  0  0
 18 24  1  0  0  0  0
 18 47  1  0  0  0  0
 19 25  2  0  0  0  0
 19 48  1  0  0  0  0
 20 21  2  0  0  0  0
 20 49  1  0  0  0  0
 21 50  1  0  0  0  0
 22 23  1  0  0  0  0
 22 26  1  0  0  0  0
 22 27  1  0  0  0  0
 22 28  1  0  0  0  0
 23 24  2  0  0  0  0
 23 25  1  0  0  0  0
 24 51  1  0  0  0  0
 25 52  1  0  0  0  0
 26 53  1  0  0  0  0
 26 54  1  0  0  0  0
 26 55  1  0  0  0  0
 27 56  1  0  0  0  0
 27 57  1  0  0  0  0
 27 58  1  0  0  0  0
 28 59  1  0  0  0  0
 28 60  1  0  0  0  0
 28 61  1  0  0  0  0
M  END
> <PUBCHEM_COMPOUND_CID>
10045023

> <PUBCHEM_COMPOUND_CANONICALIZED>
1

> <PUBCHEM_CACTVS_COMPLEXITY>
519

> <PUBCHEM_CACTVS_HBOND_ACCEPTOR>
2

> <PUBCHEM_CACTVS_HBOND_DONOR>
0

> <PUBCHEM_CACTVS_ROTATABLE_BOND>
4

> <PUBCHEM_CACTVS_SUBSKEYS>
AAADcfB6IAAAAAAAAAAAAAAAAAAAAAAAAAA8YMEAAAAAAADBQAAAHgAAAAAADwTBmAQyAIMAAACIAqBSAACCAAAkAAAIiAEIBMgIIDKAlRGEIQhggACIiYcYicCPwAAAAAAQAACAAAQAACAAAAAAAAAAAA==

> <PUBCHEM_IUPAC_OPENEYE_NAME>
2-[1-[(4-tert-butylphenyl)methyl]-4-piperidyl]tetralin-1-one

> <PUBCHEM_IUPAC_CAS_NAME>
2-[1-[(4-tert-butylphenyl)methyl]-4-piperidinyl]-3,4-dihydro-2H-naphthalen-1-one

> <PUBCHEM_IUPAC_NAME_MARKUP>
2-[1-[(4-<I>tert</I>-butylphenyl)methyl]piperidin-4-yl]-3,4-dihydro-2<I>H</I>-naphthalen-1-one

> <PUBCHEM_IUPAC_NAME>
2-[1-[(4-tert-butylphenyl)methyl]piperidin-4-yl]-3,4-dihydro-2H-naphthalen-1-one

> <PUBCHEM_IUPAC_SYSTEMATIC_NAME>
2-[1-[(4-tert-butylphenyl)methyl]piperidin-4-yl]-3,4-dihydro-2H-naphthalen-1-one

> <PUBCHEM_IUPAC_TRADITIONAL_NAME>
2-[1-(4-tert-butylbenzyl)-4-piperidyl]tetralin-1-one

> <PUBCHEM_IUPAC_INCHI>
InChI=1S/C26H33NO/c1-26(2,3)22-11-8-19(9-12-22)18-27-16-14-21(15-17-27)24-13-10-20-6-4-5-7-23(20)25(24)28/h4-9,11-12,21,24H,10,13-18H2,1-3H3

> <PUBCHEM_IUPAC_INCHIKEY>
ZEQHXVDOFWGIOA-UHFFFAOYSA-N

> <PUBCHEM_XLOGP3_AA>
6

> <PUBCHEM_EXACT_MASS>
375.256214676

> <PUBCHEM_MOLECULAR_FORMULA>
C26H33NO

> <PUBCHEM_MOLECULAR_WEIGHT>
375.5

> <PUBCHEM_OPENEYE_CAN_SMILES>
CC(C)(C)C1=CC=C(C=C1)CN2CCC(CC2)C3CCC4=CC=CC=C4C3=O

> <PUBCHEM_OPENEYE_ISO_SMILES>
CC(C)(C)C1=CC=C(C=C1)CN2CCC(CC2)C3CCC4=CC=CC=C4C3=O

> <PUBCHEM_CACTVS_TPSA>
20.3

> <PUBCHEM_MONOISOTOPIC_WEIGHT>
375.256214676

> <PUBCHEM_TOTAL_CHARGE>
0

> <PUBCHEM_HEAVY_ATOM_COUNT>
28

> <PUBCHEM_ATOM_DEF_STEREO_COUNT>
0

> <PUBCHEM_ATOM_UDEF_STEREO_COUNT>
1

> <PUBCHEM_BOND_DEF_STEREO_COUNT>
0

> <PUBCHEM_BOND_UDEF_STEREO_COUNT>
0

> <PUBCHEM_ISOTOPIC_ATOM_COUNT>
0

> <PUBCHEM_COMPONENT_COUNT>
1

> <PUBCHEM_CACTVS_TAUTO_COUNT>
-1

> <PUBCHEM_COORDINATE_TYPE>
1
5
255

> <PUBCHEM_BONDANNOTATIONS>
13  14  8
13  16  8
14  17  8
15  18  8
15  19  8
16  20  8
17  21  8
18  24  8
19  25  8
20  21  8
23  24  8
23  25  8
4  3  3

$$$$
