90643434
  -OEChem-09292322472D

191191  0     1  0  0  0  0  0999 V2000
   16.3076    1.9747    0.0000 O   0  0  0  0  0  0  0  0  0  0  0  0
   15.0632    2.5287    0.0000 O   0  0  0  0  0  0  0  0  0  0  0  0
   19.9039    1.7168    0.0000 O   0  0  0  0  0  0  0  0  0  0  0  0
   12.4651    5.0287    0.0000 O   0  0  0  0  0  0  0  0  0  0  0  0
   19.7845   -1.8868    0.0000 O   0  0  0  0  0  0  0  0  0  0  0  0
   13.3312    0.5287    0.0000 O   0  0  0  0  0  0  0  0  0  0  0  0
    9.7331    2.5287    0.0000 O   0  0  0  0  0  0  0  0  0  0  0  0
   23.3808   -2.1447    0.0000 O   0  0  0  0  0  0  0  0  0  0  0  0
    7.0010    5.0287    0.0000 O   0  0  0  0  0  0  0  0  0  0  0  0
    3.4030    4.0287    0.0000 O   0  0  0  0  0  0  0  0  0  0  0  0
    4.2690    2.5287    0.0000 O   0  0  0  0  0  0  0  0  0  0  0  0
   16.8428    3.6220    0.0000 N   0  0  0  0  0  0  0  0  0  0  0  0
   14.1972    4.0287    0.0000 N   0  0  0  0  0  0  0  0  0  0  0  0
   18.2097    1.3566    0.0000 N   0  0  0  0  0  0  0  0  0  0  0  0
   11.4651    3.5287    0.0000 N   0  0  0  0  0  0  0  0  0  0  0  0
   20.3197   -0.2395    0.0000 N   0  0  0  0  0  0  0  0  0  0  0  0
   21.3902    3.0550    0.0000 N   0  0  0  0  0  0  0  0  0  0  0  0
    8.7331    4.0287    0.0000 N   0  0  0  0  0  0  0  0  0  0  0  0
   21.6866   -2.5048    0.0000 N   0  0  0  0  0  0  0  0  0  0  0  0
   11.5991    0.5287    0.0000 N   0  0  0  0  0  0  0  0  0  0  0  0
   17.5550   -3.8942    0.0000 N   0  0  0  0  0  0  0  0  0  0  0  0
   23.0844    3.4151    0.0000 N   0  0  0  0  0  0  0  0  0  0  0  0
   21.9254    4.7023    0.0000 N   0  0  0  0  0  0  0  0  0  0  0  0
    6.0010    3.5287    0.0000 N   0  0  0  0  0  0  0  0  0  0  0  0
    8.8671    7.0287    0.0000 N   0  0  0  0  0  0  0  0  0  0  0  0
   23.7966   -4.1010    0.0000 N   0  0  0  0  0  0  0  0  0  0  0  0
   25.6102   -0.1373    0.0000 N   0  0  0  0  0  0  0  0  0  0  0  0
    6.1350    0.5287    0.0000 N   0  0  0  0  0  0  0  0  0  0  0  0
   21.7751   -7.0866    0.0000 N   0  0  0  0  0  0  0  0  0  0  0  0
    8.0010    8.5287    0.0000 N   0  0  0  0  0  0  0  0  0  0  0  0
    9.7331    8.5287    0.0000 N   0  0  0  0  0  0  0  0  0  0  0  0
    3.4030    7.0287    0.0000 N   0  0  0  0  0  0  0  0  0  0  0  0
    5.2690   -0.9713    0.0000 N   0  0  0  0  0  0  0  0  0  0  0  0
    7.0010   -0.9713    0.0000 N   0  0  0  0  0  0  0  0  0  0  0  0
   21.2398   -8.7338    0.0000 N   0  0  0  0  0  0  0  0  0  0  0  0
   20.0809   -7.4467    0.0000 N   0  0  0  0  0  0  0  0  0  0  0  0
    2.5369    8.5287    0.0000 N   0  0  0  0  0  0  0  0  0  0  0  0
    4.2690    8.5287    0.0000 N   0  0  0  0  0  0  0  0  0  0  0  0
   15.9292    4.0287    0.0000 C   0  0  1  0  0  0  0  0  0  0  0  0
   16.0338    5.0232    0.0000 C   0  0  0  0  0  0  0  0  0  0  0  0
   17.0119    5.2311    0.0000 C   0  0  0  0  0  0  0  0  0  0  0  0
   17.5119    4.3651    0.0000 C   0  0  0  0  0  0  0  0  0  0  0  0
   17.0507    2.6438    0.0000 C   0  0  0  0  0  0  0  0  0  0  0  0
   18.0018    2.3348    0.0000 C   0  0  2  0  0  0  0  0  0  0  0  0
   15.0632    3.5287    0.0000 C   0  0  0  0  0  0  0  0  0  0  0  0
   18.7449    3.0039    0.0000 C   0  0  0  0  0  0  0  0  0  0  0  0
   13.3312    3.5287    0.0000 C   0  0  1  0  0  0  0  0  0  0  0  0
   19.6960    2.6949    0.0000 C   0  0  0  0  0  0  0  0  0  0  0  0
   13.3312    2.5287    0.0000 C   0  0  0  0  0  0  0  0  0  0  0  0
   19.1607    1.0476    0.0000 C   0  0  0  0  0  0  0  0  0  0  0  0
   19.3686    0.0695    0.0000 C   0  0  2  0  0  0  0  0  0  0  0  0
   12.4651    4.0287    0.0000 C   0  0  0  0  0  0  0  0  0  0  0  0
   20.4391    3.3640    0.0000 C   0  0  0  0  0  0  0  0  0  0  0  0
   18.6255   -0.5996    0.0000 C   0  0  0  0  0  0  0  0  0  0  0  0
   12.4651    2.0287    0.0000 C   0  0  0  0  0  0  0  0  0  0  0  0
   18.8334   -1.5778    0.0000 C   0  0  0  0  0  0  0  0  0  0  0  0
   10.5991    4.0287    0.0000 C   0  0  1  0  0  0  0  0  0  0  0  0
   10.5991    5.0287    0.0000 C   0  0  0  0  0  0  0  0  0  0  0  0
   18.0903   -2.2469    0.0000 C   0  0  0  0  0  0  0  0  0  0  0  0
   20.5276   -1.2177    0.0000 C   0  0  0  0  0  0  0  0  0  0  0  0
   21.4787   -1.5267    0.0000 C   0  0  2  0  0  0  0  0  0  0  0  0
   12.4651    1.0287    0.0000 C   0  0  0  0  0  0  0  0  0  0  0  0
    9.7331    3.5287    0.0000 C   0  0  0  0  0  0  0  0  0  0  0  0
   22.2218   -0.8576    0.0000 C   0  0  0  0  0  0  0  0  0  0  0  0
    9.7331    5.5287    0.0000 C   0  0  0  0  0  0  0  0  0  0  0  0
   18.2982   -3.2251    0.0000 C   0  0  0  0  0  0  0  0  0  0  0  0
   23.1729   -1.1666    0.0000 C   0  0  0  0  0  0  0  0  0  0  0  0
    7.8671    3.5287    0.0000 C   0  0  1  0  0  0  0  0  0  0  0  0
   22.1333    3.7242    0.0000 C   0  0  0  0  0  0  0  0  0  0  0  0
    9.7331    6.5287    0.0000 C   0  0  0  0  0  0  0  0  0  0  0  0
   23.9160   -0.4974    0.0000 C   0  0  0  0  0  0  0  0  0  0  0  0
    7.8671    2.5287    0.0000 C   0  0  0  0  0  0  0  0  0  0  0  0
   22.6376   -2.8139    0.0000 C   0  0  0  0  0  0  0  0  0  0  0  0
   22.8455   -3.7920    0.0000 C   0  0  2  0  0  0  0  0  0  0  0  0
    7.0010    4.0287    0.0000 C   0  0  0  0  0  0  0  0  0  0  0  0
    7.0010    2.0287    0.0000 C   0  0  0  0  0  0  0  0  0  0  0  0
   24.8671   -0.8065    0.0000 C   0  0  0  0  0  0  0  0  0  0  0  0
   22.1024   -4.4611    0.0000 C   0  0  0  0  0  0  0  0  0  0  0  0
    5.1350    4.0287    0.0000 C   0  0  1  0  0  0  0  0  0  0  0  0
    7.0010    1.0287    0.0000 C   0  0  0  0  0  0  0  0  0  0  0  0
   22.3103   -5.4393    0.0000 C   0  0  0  0  0  0  0  0  0  0  0  0
    5.1350    5.0287    0.0000 C   0  0  0  0  0  0  0  0  0  0  0  0
    4.2690    5.5287    0.0000 C   0  0  0  0  0  0  0  0  0  0  0  0
   21.5672   -6.1084    0.0000 C   0  0  0  0  0  0  0  0  0  0  0  0
    8.8671    8.0287    0.0000 C   0  0  0  0  0  0  0  0  0  0  0  0
    4.2690    3.5287    0.0000 C   0  0  0  0  0  0  0  0  0  0  0  0
    4.2690    6.5287    0.0000 C   0  0  0  0  0  0  0  0  0  0  0  0
    6.1350   -0.4713    0.0000 C   0  0  0  0  0  0  0  0  0  0  0  0
   21.0319   -7.7557    0.0000 C   0  0  0  0  0  0  0  0  0  0  0  0
    3.4030    8.0287    0.0000 C   0  0  0  0  0  0  0  0  0  0  0  0
   15.9617    3.4096    0.0000 H   0  0  0  0  0  0  0  0  0  0  0  0
   15.9690    5.6398    0.0000 H   0  0  0  0  0  0  0  0  0  0  0  0
   15.4138    5.0232    0.0000 H   0  0  0  0  0  0  0  0  0  0  0  0
   17.5783    5.4833    0.0000 H   0  0  0  0  0  0  0  0  0  0  0  0
   16.8203    5.8208    0.0000 H   0  0  0  0  0  0  0  0  0  0  0  0
   17.9268    3.9044    0.0000 H   0  0  0  0  0  0  0  0  0  0  0  0
   18.0135    4.7295    0.0000 H   0  0  0  0  0  0  0  0  0  0  0  0
   17.5410    1.9199    0.0000 H   0  0  0  0  0  0  0  0  0  0  0  0
   19.0360    3.5514    0.0000 H   0  0  0  0  0  0  0  0  0  0  0  0
   18.2563    3.3856    0.0000 H   0  0  0  0  0  0  0  0  0  0  0  0
   14.1972    4.6487    0.0000 H   0  0  0  0  0  0  0  0  0  0  0  0
   13.8681    3.2187    0.0000 H   0  0  0  0  0  0  0  0  0  0  0  0
   17.7489    0.9418    0.0000 H   0  0  0  0  0  0  0  0  0  0  0  0
   19.4049    2.1475    0.0000 H   0  0  0  0  0  0  0  0  0  0  0  0
   20.1845    2.3132    0.0000 H   0  0  0  0  0  0  0  0  0  0  0  0
   13.5432    1.9461    0.0000 H   0  0  0  0  0  0  0  0  0  0  0  0
   13.9417    2.6364    0.0000 H   0  0  0  0  0  0  0  0  0  0  0  0
   19.8294    0.4843    0.0000 H   0  0  0  0  0  0  0  0  0  0  0  0
   20.7302    3.9115    0.0000 H   0  0  0  0  0  0  0  0  0  0  0  0
   19.9505    3.7458    0.0000 H   0  0  0  0  0  0  0  0  0  0  0  0
   18.2969   -0.0739    0.0000 H   0  0  0  0  0  0  0  0  0  0  0  0
   18.0506   -0.8319    0.0000 H   0  0  0  0  0  0  0  0  0  0  0  0
   12.2531    2.6113    0.0000 H   0  0  0  0  0  0  0  0  0  0  0  0
   11.8546    1.9210    0.0000 H   0  0  0  0  0  0  0  0  0  0  0  0
   12.0021    3.2187    0.0000 H   0  0  0  0  0  0  0  0  0  0  0  0
   19.1620   -2.1036    0.0000 H   0  0  0  0  0  0  0  0  0  0  0  0
   19.4083   -1.3455    0.0000 H   0  0  0  0  0  0  0  0  0  0  0  0
   20.7804    0.1753    0.0000 H   0  0  0  0  0  0  0  0  0  0  0  0
   11.1360    4.3387    0.0000 H   0  0  0  0  0  0  0  0  0  0  0  0
   11.2097    4.9210    0.0000 H   0  0  0  0  0  0  0  0  0  0  0  0
   10.8112    5.6113    0.0000 H   0  0  0  0  0  0  0  0  0  0  0  0
   17.7617   -1.7211    0.0000 H   0  0  0  0  0  0  0  0  0  0  0  0
   17.5154   -2.4792    0.0000 H   0  0  0  0  0  0  0  0  0  0  0  0
   22.0683   -1.7183    0.0000 H   0  0  0  0  0  0  0  0  0  0  0  0
   22.5129   -0.3101    0.0000 H   0  0  0  0  0  0  0  0  0  0  0  0
   21.7332   -0.4759    0.0000 H   0  0  0  0  0  0  0  0  0  0  0  0
    9.1225    5.6364    0.0000 H   0  0  0  0  0  0  0  0  0  0  0  0
    9.5210    4.9461    0.0000 H   0  0  0  0  0  0  0  0  0  0  0  0
   18.6267   -3.7509    0.0000 H   0  0  0  0  0  0  0  0  0  0  0  0
   18.8730   -2.9928    0.0000 H   0  0  0  0  0  0  0  0  0  0  0  0
   22.8818   -1.7140    0.0000 H   0  0  0  0  0  0  0  0  0  0  0  0
   23.6614   -1.5483    0.0000 H   0  0  0  0  0  0  0  0  0  0  0  0
   21.2258   -2.9197    0.0000 H   0  0  0  0  0  0  0  0  0  0  0  0
    9.2700    4.3387    0.0000 H   0  0  0  0  0  0  0  0  0  0  0  0
    8.4040    3.2187    0.0000 H   0  0  0  0  0  0  0  0  0  0  0  0
   10.3437    6.4210    0.0000 H   0  0  0  0  0  0  0  0  0  0  0  0
    9.9451    7.1113    0.0000 H   0  0  0  0  0  0  0  0  0  0  0  0
   24.2071    0.0500    0.0000 H   0  0  0  0  0  0  0  0  0  0  0  0
   23.4274   -0.1157    0.0000 H   0  0  0  0  0  0  0  0  0  0  0  0
    8.0791    1.9461    0.0000 H   0  0  0  0  0  0  0  0  0  0  0  0
    8.4776    2.6364    0.0000 H   0  0  0  0  0  0  0  0  0  0  0  0
   11.5991   -0.0913    0.0000 H   0  0  0  0  0  0  0  0  0  0  0  0
   11.0622    0.8387    0.0000 H   0  0  0  0  0  0  0  0  0  0  0  0
   22.9744   -4.3985    0.0000 H   0  0  0  0  0  0  0  0  0  0  0  0
    6.7890    2.6113    0.0000 H   0  0  0  0  0  0  0  0  0  0  0  0
    6.3905    1.9210    0.0000 H   0  0  0  0  0  0  0  0  0  0  0  0
   17.6839   -4.5006    0.0000 H   0  0  0  0  0  0  0  0  0  0  0  0
   16.9654   -3.7026    0.0000 H   0  0  0  0  0  0  0  0  0  0  0  0
   24.5760   -1.3539    0.0000 H   0  0  0  0  0  0  0  0  0  0  0  0
   25.3556   -1.1882    0.0000 H   0  0  0  0  0  0  0  0  0  0  0  0
   21.7738   -3.9354    0.0000 H   0  0  0  0  0  0  0  0  0  0  0  0
   21.5275   -4.6934    0.0000 H   0  0  0  0  0  0  0  0  0  0  0  0
    6.5380    3.2187    0.0000 H   0  0  0  0  0  0  0  0  0  0  0  0
   23.5451    3.8300    0.0000 H   0  0  0  0  0  0  0  0  0  0  0  0
   23.2133    2.8087    0.0000 H   0  0  0  0  0  0  0  0  0  0  0  0
   22.3861    5.1172    0.0000 H   0  0  0  0  0  0  0  0  0  0  0  0
   21.3357    4.8939    0.0000 H   0  0  0  0  0  0  0  0  0  0  0  0
    5.6720    4.3387    0.0000 H   0  0  0  0  0  0  0  0  0  0  0  0
    7.2131    0.4461    0.0000 H   0  0  0  0  0  0  0  0  0  0  0  0
    7.6116    1.1364    0.0000 H   0  0  0  0  0  0  0  0  0  0  0  0
   22.6389   -5.9651    0.0000 H   0  0  0  0  0  0  0  0  0  0  0  0
   22.8852   -5.2070    0.0000 H   0  0  0  0  0  0  0  0  0  0  0  0
    5.7456    4.9210    0.0000 H   0  0  0  0  0  0  0  0  0  0  0  0
    5.3471    5.6113    0.0000 H   0  0  0  0  0  0  0  0  0  0  0  0
   23.9255   -4.7075    0.0000 H   0  0  0  0  0  0  0  0  0  0  0  0
   24.2573   -3.6862    0.0000 H   0  0  0  0  0  0  0  0  0  0  0  0
   26.1999   -0.3289    0.0000 H   0  0  0  0  0  0  0  0  0  0  0  0
   25.4813    0.4691    0.0000 H   0  0  0  0  0  0  0  0  0  0  0  0
    3.6584    5.6364    0.0000 H   0  0  0  0  0  0  0  0  0  0  0  0
    4.0569    4.9461    0.0000 H   0  0  0  0  0  0  0  0  0  0  0  0
   21.2386   -5.5826    0.0000 H   0  0  0  0  0  0  0  0  0  0  0  0
   20.9923   -6.3407    0.0000 H   0  0  0  0  0  0  0  0  0  0  0  0
    4.8796    6.4210    0.0000 H   0  0  0  0  0  0  0  0  0  0  0  0
    4.4810    7.1113    0.0000 H   0  0  0  0  0  0  0  0  0  0  0  0
    8.0010    9.1487    0.0000 H   0  0  0  0  0  0  0  0  0  0  0  0
    7.4641    8.2187    0.0000 H   0  0  0  0  0  0  0  0  0  0  0  0
    9.7331    9.1487    0.0000 H   0  0  0  0  0  0  0  0  0  0  0  0
   10.2700    8.2187    0.0000 H   0  0  0  0  0  0  0  0  0  0  0  0
    2.8660    3.7187    0.0000 H   0  0  0  0  0  0  0  0  0  0  0  0
    5.2690   -1.5913    0.0000 H   0  0  0  0  0  0  0  0  0  0  0  0
    4.7320   -0.6613    0.0000 H   0  0  0  0  0  0  0  0  0  0  0  0
    7.0010   -1.5913    0.0000 H   0  0  0  0  0  0  0  0  0  0  0  0
    7.5380   -0.6613    0.0000 H   0  0  0  0  0  0  0  0  0  0  0  0
   20.7791   -9.1487    0.0000 H   0  0  0  0  0  0  0  0  0  0  0  0
   21.8295   -8.9254    0.0000 H   0  0  0  0  0  0  0  0  0  0  0  0
   19.6201   -7.8615    0.0000 H   0  0  0  0  0  0  0  0  0  0  0  0
   19.9520   -6.8402    0.0000 H   0  0  0  0  0  0  0  0  0  0  0  0
    2.5369    9.1487    0.0000 H   0  0  0  0  0  0  0  0  0  0  0  0
    2.0000    8.2187    0.0000 H   0  0  0  0  0  0  0  0  0  0  0  0
    4.2690    9.1487    0.0000 H   0  0  0  0  0  0  0  0  0  0  0  0
    4.8059    8.2187    0.0000 H   0  0  0  0  0  0  0  0  0  0  0  0
  1 43  2  0  0  0  0
  2 45  2  0  0  0  0
  3 50  2  0  0  0  0
  4 52  2  0  0  0  0
  5 60  2  0  0  0  0
  6 62  2  0  0  0  0
  7 63  2  0  0  0  0
  8 73  2  0  0  0  0
  9 75  2  0  0  0  0
 10 86  1  0  0  0  0
 10179  1  0  0  0  0
 11 86  2  0  0  0  0
 12 39  1  0  0  0  0
 12 42  1  0  0  0  0
 12 43  1  0  0  0  0
 13 45  1  0  0  0  0
 47 13  1  1  0  0  0
 13101  1  0  0  0  0
 44 14  1  6  0  0  0
 14 50  1  0  0  0  0
 14103  1  0  0  0  0
 15 52  1  0  0  0  0
 57 15  1  6  0  0  0
 15115  1  0  0  0  0
 51 16  1  1  0  0  0
 16 60  1  0  0  0  0
 16118  1  0  0  0  0
 17 53  1  0  0  0  0
 17 69  2  0  0  0  0
 18 63  1  0  0  0  0
 68 18  1  1  0  0  0
 18134  1  0  0  0  0
 61 19  1  6  0  0  0
 19 73  1  0  0  0  0
 19133  1  0  0  0  0
 20 62  1  0  0  0  0
 20142  1  0  0  0  0
 20143  1  0  0  0  0
 21 66  1  0  0  0  0
 21147  1  0  0  0  0
 21148  1  0  0  0  0
 22 69  1  0  0  0  0
 22154  1  0  0  0  0
 22155  1  0  0  0  0
 23 69  1  0  0  0  0
 23156  1  0  0  0  0
 23157  1  0  0  0  0
 24 75  1  0  0  0  0
 79 24  1  6  0  0  0
 24153  1  0  0  0  0
 25 70  1  0  0  0  0
 25 85  2  0  0  0  0
 74 26  1  1  0  0  0
 26165  1  0  0  0  0
 26166  1  0  0  0  0
 27 77  1  0  0  0  0
 27167  1  0  0  0  0
 27168  1  0  0  0  0
 28 80  1  0  0  0  0
 28 88  2  0  0  0  0
 29 84  1  0  0  0  0
 29 89  2  0  0  0  0
 30 85  1  0  0  0  0
 30175  1  0  0  0  0
 30176  1  0  0  0  0
 31 85  1  0  0  0  0
 31177  1  0  0  0  0
 31178  1  0  0  0  0
 32 87  1  0  0  0  0
 32 90  2  0  0  0  0
 33 88  1  0  0  0  0
 33180  1  0  0  0  0
 33181  1  0  0  0  0
 34 88  1  0  0  0  0
 34182  1  0  0  0  0
 34183  1  0  0  0  0
 35 89  1  0  0  0  0
 35184  1  0  0  0  0
 35185  1  0  0  0  0
 36 89  1  0  0  0  0
 36186  1  0  0  0  0
 36187  1  0  0  0  0
 37 90  1  0  0  0  0
 37188  1  0  0  0  0
 37189  1  0  0  0  0
 38 90  1  0  0  0  0
 38190  1  0  0  0  0
 38191  1  0  0  0  0
 39 40  1  0  0  0  0
 39 45  1  6  0  0  0
 39 91  1  0  0  0  0
 40 41  1  0  0  0  0
 40 92  1  0  0  0  0
 40 93  1  0  0  0  0
 41 42  1  0  0  0  0
 41 94  1  0  0  0  0
 41 95  1  0  0  0  0
 42 96  1  0  0  0  0
 42 97  1  0  0  0  0
 43 44  1  0  0  0  0
 44 46  1  0  0  0  0
 44 98  1  0  0  0  0
 46 48  1  0  0  0  0
 46 99  1  0  0  0  0
 46100  1  0  0  0  0
 47 49  1  0  0  0  0
 47 52  1  0  0  0  0
 47102  1  0  0  0  0
 48 53  1  0  0  0  0
 48104  1  0  0  0  0
 48105  1  0  0  0  0
 49 55  1  0  0  0  0
 49106  1  0  0  0  0
 49107  1  0  0  0  0
 50 51  1  0  0  0  0
 51 54  1  0  0  0  0
 51108  1  0  0  0  0
 53109  1  0  0  0  0
 53110  1  0  0  0  0
 54 56  1  0  0  0  0
 54111  1  0  0  0  0
 54112  1  0  0  0  0
 55 62  1  0  0  0  0
 55113  1  0  0  0  0
 55114  1  0  0  0  0
 56 59  1  0  0  0  0
 56116  1  0  0  0  0
 56117  1  0  0  0  0
 57 58  1  0  0  0  0
 57 63  1  0  0  0  0
 57119  1  0  0  0  0
 58 65  1  0  0  0  0
 58120  1  0  0  0  0
 58121  1  0  0  0  0
 59 66  1  0  0  0  0
 59122  1  0  0  0  0
 59123  1  0  0  0  0
 60 61  1  0  0  0  0
 61 64  1  0  0  0  0
 61124  1  0  0  0  0
 64 67  1  0  0  0  0
 64125  1  0  0  0  0
 64126  1  0  0  0  0
 65 70  1  0  0  0  0
 65127  1  0  0  0  0
 65128  1  0  0  0  0
 66129  1  0  0  0  0
 66130  1  0  0  0  0
 67 71  1  0  0  0  0
 67131  1  0  0  0  0
 67132  1  0  0  0  0
 68 72  1  0  0  0  0
 68 75  1  0  0  0  0
 68135  1  0  0  0  0
 70136  1  0  0  0  0
 70137  1  0  0  0  0
 71 77  1  0  0  0  0
 71138  1  0  0  0  0
 71139  1  0  0  0  0
 72 76  1  0  0  0  0
 72140  1  0  0  0  0
 72141  1  0  0  0  0
 73 74  1  0  0  0  0
 74 78  1  0  0  0  0
 74144  1  0  0  0  0
 76 80  1  0  0  0  0
 76145  1  0  0  0  0
 76146  1  0  0  0  0
 77149  1  0  0  0  0
 77150  1  0  0  0  0
 78 81  1  0  0  0  0
 78151  1  0  0  0  0
 78152  1  0  0  0  0
 79 82  1  0  0  0  0
 79 86  1  0  0  0  0
 79158  1  0  0  0  0
 80159  1  0  0  0  0
 80160  1  0  0  0  0
 81 84  1  0  0  0  0
 81161  1  0  0  0  0
 81162  1  0  0  0  0
 82 83  1  0  0  0  0
 82163  1  0  0  0  0
 82164  1  0  0  0  0
 83 87  1  0  0  0  0
 83169  1  0  0  0  0
 83170  1  0  0  0  0
 84171  1  0  0  0  0
 84172  1  0  0  0  0
 87173  1  0  0  0  0
 87174  1  0  0  0  0
M  END
> <PUBCHEM_COMPOUND_CID>
90643434

> <PUBCHEM_COMPOUND_CANONICALIZED>
1

> <PUBCHEM_CACTVS_COMPLEXITY>
2460

> <PUBCHEM_CACTVS_HBOND_ACCEPTOR>
19

> <PUBCHEM_CACTVS_HBOND_DONOR>
22

> <PUBCHEM_CACTVS_ROTATABLE_BOND>
47

> <PUBCHEM_CACTVS_SUBSKEYS>
AAADcfB//AAAAAAAAAAAAAAAAAAAAWAAAAAAAAAAAAAAAAAAAAAAHgAQCAAACCjBgAQBCAPAAgAoAAGQPAAAAAEAAAAAAIGIAAACQBIAgCAUQAAEFgCQAAGcGwAAAAAAAAAAAAAAAAAAAAAAAAAAAAAAAA==

> <PUBCHEM_IUPAC_OPENEYE_NAME>
(2S)-2-[[(2S)-2-[[(2S)-2-[[(2S)-5-amino-2-[[(2S)-1-[(2S)-2-[[(2S)-6-amino-2-[[(2S)-6-amino-2-[[(2S)-2-amino-5-guanidino-pentanoyl]amino]hexanoyl]amino]hexanoyl]amino]-5-guanidino-pentanoyl]pyrrolidine-2-carbonyl]amino]-5-oxo-pentanoyl]amino]-5-guanidino-pentanoyl]amino]-5-guanidino-pentanoyl]amino]-5-guanidino-pentanoic acid

> <PUBCHEM_IUPAC_CAS_NAME>
(2S)-2-[[(2S)-2-[[(2S)-2-[[(2S)-5-amino-2-[[[(2S)-1-[(2S)-2-[[(2S)-6-amino-2-[[(2S)-6-amino-2-[[(2S)-2-amino-5-(diaminomethylideneamino)-1-oxopentyl]amino]-1-oxohexyl]amino]-1-oxohexyl]amino]-5-(diaminomethylideneamino)-1-oxopentyl]-2-pyrrolidinyl]-oxomethyl]amino]-1,5-dioxopentyl]amino]-5-(diaminomethylideneamino)-1-oxopentyl]amino]-5-(diaminomethylideneamino)-1-oxopentyl]amino]-5-(diaminomethylideneamino)pentanoic acid

> <PUBCHEM_IUPAC_NAME_MARKUP>
(2<I>S</I>)-2-[[(2<I>S</I>)-2-[[(2<I>S</I>)-2-[[(2<I>S</I>)-5-amino-2-[[(2<I>S</I>)-1-[(2<I>S</I>)-2-[[(2<I>S</I>)-6-amino-2-[[(2<I>S</I>)-6-amino-2-[[(2<I>S</I>)-2-amino-5-(diaminomethylideneamino)pentanoyl]amino]hexanoyl]amino]hexanoyl]amino]-5-(diaminomethylideneamino)pentanoyl]pyrrolidine-2-carbonyl]amino]-5-oxopentanoyl]amino]-5-(diaminomethylideneamino)pentanoyl]amino]-5-(diaminomethylideneamino)pentanoyl]amino]-5-(diaminomethylideneamino)pentanoic acid

> <PUBCHEM_IUPAC_NAME>
(2S)-2-[[(2S)-2-[[(2S)-2-[[(2S)-5-amino-2-[[(2S)-1-[(2S)-2-[[(2S)-6-amino-2-[[(2S)-6-amino-2-[[(2S)-2-amino-5-(diaminomethylideneamino)pentanoyl]amino]hexanoyl]amino]hexanoyl]amino]-5-(diaminomethylideneamino)pentanoyl]pyrrolidine-2-carbonyl]amino]-5-oxopentanoyl]amino]-5-(diaminomethylideneamino)pentanoyl]amino]-5-(diaminomethylideneamino)pentanoyl]amino]-5-(diaminomethylideneamino)pentanoic acid

> <PUBCHEM_IUPAC_SYSTEMATIC_NAME>
(2S)-2-[[(2S)-2-[[(2S)-2-[[(2S)-5-azanyl-2-[[(2S)-1-[(2S)-2-[[(2S)-6-azanyl-2-[[(2S)-6-azanyl-2-[[(2S)-2-azanyl-5-[bis(azanyl)methylideneamino]pentanoyl]amino]hexanoyl]amino]hexanoyl]amino]-5-[bis(azanyl)methylideneamino]pentanoyl]pyrrolidin-2-yl]carbonylamino]-5-oxidanylidene-pentanoyl]amino]-5-[bis(azanyl)methylideneamino]pentanoyl]amino]-5-[bis(azanyl)methylideneamino]pentanoyl]amino]-5-[bis(azanyl)methylideneamino]pentanoic acid

> <PUBCHEM_IUPAC_TRADITIONAL_NAME>
(2S)-2-[[(2S)-2-[[(2S)-2-[[(2S)-5-amino-2-[[(2S)-1-[(2S)-2-[[(2S)-6-amino-2-[[(2S)-6-amino-2-[[(2S)-2-amino-5-guanidino-pentanoyl]amino]hexanoyl]amino]hexanoyl]amino]-5-guanidino-pentanoyl]prolyl]amino]-5-keto-pentanoyl]amino]-5-guanidino-pentanoyl]amino]-5-guanidino-pentanoyl]amino]-5-guanidino-valeric acid

> <PUBCHEM_IUPAC_INCHI>
InChI=1S/C52H101N27O11/c53-21-3-1-12-30(72-39(81)29(55)11-5-23-67-48(57)58)40(82)73-31(13-2-4-22-54)42(84)77-35(16-8-26-70-51(63)64)46(88)79-28-10-18-37(79)45(87)76-34(19-20-38(56)80)44(86)75-32(14-6-24-68-49(59)60)41(83)74-33(15-7-25-69-50(61)62)43(85)78-36(47(89)90)17-9-27-71-52(65)66/h29-37H,1-28,53-55H2,(H2,56,80)(H,72,81)(H,73,82)(H,74,83)(H,75,86)(H,76,87)(H,77,84)(H,78,85)(H,89,90)(H4,57,58,67)(H4,59,60,68)(H4,61,62,69)(H4,63,64,70)(H4,65,66,71)/t29-,30-,31-,32-,33-,34-,35-,36-,37-/m0/s1

> <PUBCHEM_IUPAC_INCHIKEY>
XOBCYBIYOHGQPS-IZROAPMXSA-N

> <PUBCHEM_XLOGP3>
-13.9

> <PUBCHEM_EXACT_MASS>
1279.81738715

> <PUBCHEM_MOLECULAR_FORMULA>
C52H101N27O11

> <PUBCHEM_MOLECULAR_WEIGHT>
1280.5

> <PUBCHEM_OPENEYE_CAN_SMILES>
C1CC(N(C1)C(=O)C(CCCN=C(N)N)NC(=O)C(CCCCN)NC(=O)C(CCCCN)NC(=O)C(CCCN=C(N)N)N)C(=O)NC(CCC(=O)N)C(=O)NC(CCCN=C(N)N)C(=O)NC(CCCN=C(N)N)C(=O)NC(CCCN=C(N)N)C(=O)O

> <PUBCHEM_OPENEYE_ISO_SMILES>
C1C[C@H](N(C1)C(=O)[C@H](CCCN=C(N)N)NC(=O)[C@H](CCCCN)NC(=O)[C@H](CCCCN)NC(=O)[C@H](CCCN=C(N)N)N)C(=O)N[C@@H](CCC(=O)N)C(=O)N[C@@H](CCCN=C(N)N)C(=O)N[C@@H](CCCN=C(N)N)C(=O)N[C@@H](CCCN=C(N)N)C(=O)O

> <PUBCHEM_CACTVS_TPSA>
705

> <PUBCHEM_MONOISOTOPIC_WEIGHT>
1279.81738715

> <PUBCHEM_TOTAL_CHARGE>
0

> <PUBCHEM_HEAVY_ATOM_COUNT>
90

> <PUBCHEM_ATOM_DEF_STEREO_COUNT>
9

> <PUBCHEM_ATOM_UDEF_STEREO_COUNT>
0

> <PUBCHEM_BOND_DEF_STEREO_COUNT>
0

> <PUBCHEM_BOND_UDEF_STEREO_COUNT>
0

> <PUBCHEM_ISOTOPIC_ATOM_COUNT>
0

> <PUBCHEM_COMPONENT_COUNT>
1

> <PUBCHEM_CACTVS_TAUTO_COUNT>
-1

> <PUBCHEM_COORDINATE_TYPE>
1
5
255

> <PUBCHEM_BONDANNOTATIONS>
47  13  5
44  14  6
57  15  6
51  16  5
68  18  5
61  19  6
79  24  6
74  26  5
39  45  6

$$$$
