53248674
  -OEChem-09292322322D

 67 69  0     0  0  0  0  0  0999 V2000
    9.2099    0.6305    0.0000 O   0  0  0  0  0  0  0  0  0  0  0  0
    3.1343    4.1071    0.0000 O   0  0  0  0  0  0  0  0  0  0  0  0
   14.4721    0.6546    0.0000 O   0  0  0  0  0  0  0  0  0  0  0  0
    5.9370    9.2380    0.0000 O   0  0  0  0  0  0  0  0  0  0  0  0
    8.5351    8.7380    0.0000 O   0  0  0  0  0  0  0  0  0  0  0  0
    6.8030    7.7380    0.0000 O   0  0  0  0  0  0  0  0  0  0  0  0
    7.6690   10.2380    0.0000 O   0  0  0  0  0  0  0  0  0  0  0  0
    4.8779    1.1138    0.0000 N   0  0  0  0  0  0  0  0  0  0  0  0
    3.1420    2.1071    0.0000 N   0  0  0  0  0  0  0  0  0  0  0  0
   12.7400    0.6546    0.0000 N   0  0  0  0  0  0  0  0  0  0  0  0
    4.8740    2.1138    0.0000 C   0  0  0  0  0  0  0  0  0  0  0  0
    4.0138    0.6104    0.0000 C   0  0  0  0  0  0  0  0  0  0  0  0
    4.0061    2.6104    0.0000 C   0  0  0  0  0  0  0  0  0  0  0  0
    3.1458    1.1071    0.0000 C   0  0  0  0  0  0  0  0  0  0  0  0
    5.7458    0.6171    0.0000 C   0  0  0  0  0  0  0  0  0  0  0  0
    6.6099    1.1204    0.0000 C   0  0  0  0  0  0  0  0  0  0  0  0
    2.2740    2.6037    0.0000 C   0  0  0  0  0  0  0  0  0  0  0  0
    7.4778    0.6238    0.0000 C   0  0  0  0  0  0  0  0  0  0  0  0
    2.2702    3.6037    0.0000 C   0  0  0  0  0  0  0  0  0  0  0  0
    8.3419    1.1271    0.0000 C   0  0  0  0  0  0  0  0  0  0  0  0
    1.4099    2.1004    0.0000 C   0  0  0  0  0  0  0  0  0  0  0  0
    1.4022    4.1004    0.0000 C   0  0  0  0  0  0  0  0  0  0  0  0
    0.5420    2.5971    0.0000 C   0  0  0  0  0  0  0  0  0  0  0  0
    0.5381    3.5971    0.0000 C   0  0  0  0  0  0  0  0  0  0  0  0
   10.0740    1.1338    0.0000 C   0  0  0  0  0  0  0  0  0  0  0  0
    3.1304    5.1071    0.0000 C   0  0  0  0  0  0  0  0  0  0  0  0
   10.9800    0.6200    0.0000 C   0  0  0  0  0  0  0  0  0  0  0  0
   10.0740    2.1754    0.0000 C   0  0  0  0  0  0  0  0  0  0  0  0
   11.8740    1.1546    0.0000 C   0  0  0  0  0  0  0  0  0  0  0  0
   11.8740    2.1546    0.0000 C   0  0  0  0  0  0  0  0  0  0  0  0
   10.9800    2.6893    0.0000 C   0  0  0  0  0  0  0  0  0  0  0  0
   12.7400    2.6546    0.0000 C   0  0  0  0  0  0  0  0  0  0  0  0
   13.6060    1.1546    0.0000 C   0  0  0  0  0  0  0  0  0  0  0  0
   13.6060    2.1546    0.0000 C   0  0  0  0  0  0  0  0  0  0  0  0
    6.8030    8.7380    0.0000 C   0  0  0  0  0  0  0  0  0  0  0  0
    7.6690    9.2380    0.0000 C   0  0  0  0  0  0  0  0  0  0  0  0
    5.4850    2.0085    0.0000 H   0  0  0  0  0  0  0  0  0  0  0  0
    5.0838    2.6972    0.0000 H   0  0  0  0  0  0  0  0  0  0  0  0
    3.6171    0.1340    0.0000 H   0  0  0  0  0  0  0  0  0  0  0  0
    4.4141    0.1370    0.0000 H   0  0  0  0  0  0  0  0  0  0  0  0
    4.4028    3.0869    0.0000 H   0  0  0  0  0  0  0  0  0  0  0  0
    3.6057    3.0838    0.0000 H   0  0  0  0  0  0  0  0  0  0  0  0
    2.5348    1.2124    0.0000 H   0  0  0  0  0  0  0  0  0  0  0  0
    2.9360    0.5237    0.0000 H   0  0  0  0  0  0  0  0  0  0  0  0
    5.3491    0.1406    0.0000 H   0  0  0  0  0  0  0  0  0  0  0  0
    6.1462    0.1437    0.0000 H   0  0  0  0  0  0  0  0  0  0  0  0
    7.0066    1.5969    0.0000 H   0  0  0  0  0  0  0  0  0  0  0  0
    6.2095    1.5939    0.0000 H   0  0  0  0  0  0  0  0  0  0  0  0
    7.0812    0.1473    0.0000 H   0  0  0  0  0  0  0  0  0  0  0  0
    7.8782    0.1504    0.0000 H   0  0  0  0  0  0  0  0  0  0  0  0
    8.7386    1.6036    0.0000 H   0  0  0  0  0  0  0  0  0  0  0  0
    7.9416    1.6005    0.0000 H   0  0  0  0  0  0  0  0  0  0  0  0
    1.4123    1.4804    0.0000 H   0  0  0  0  0  0  0  0  0  0  0  0
    1.3998    4.7204    0.0000 H   0  0  0  0  0  0  0  0  0  0  0  0
    0.0062    2.2850    0.0000 H   0  0  0  0  0  0  0  0  0  0  0  0
    0.0000    3.9050    0.0000 H   0  0  0  0  0  0  0  0  0  0  0  0
    3.7504    5.1095    0.0000 H   0  0  0  0  0  0  0  0  0  0  0  0
    3.1280    5.7271    0.0000 H   0  0  0  0  0  0  0  0  0  0  0  0
    2.5104    5.1047    0.0000 H   0  0  0  0  0  0  0  0  0  0  0  0
   10.9872    0.0000    0.0000 H   0  0  0  0  0  0  0  0  0  0  0  0
    9.5382    2.4875    0.0000 H   0  0  0  0  0  0  0  0  0  0  0  0
   10.9872    3.3092    0.0000 H   0  0  0  0  0  0  0  0  0  0  0  0
   12.7400    0.0346    0.0000 H   0  0  0  0  0  0  0  0  0  0  0  0
   12.7400    3.2746    0.0000 H   0  0  0  0  0  0  0  0  0  0  0  0
   14.1430    2.4646    0.0000 H   0  0  0  0  0  0  0  0  0  0  0  0
    5.4000    8.9280    0.0000 H   0  0  0  0  0  0  0  0  0  0  0  0
    9.0720    9.0480    0.0000 H   0  0  0  0  0  0  0  0  0  0  0  0
  1 20  1  0  0  0  0
  1 25  1  0  0  0  0
  2 19  1  0  0  0  0
  2 26  1  0  0  0  0
  3 33  2  0  0  0  0
  4 35  1  0  0  0  0
  4 66  1  0  0  0  0
  5 36  1  0  0  0  0
  5 67  1  0  0  0  0
  6 35  2  0  0  0  0
  7 36  2  0  0  0  0
  8 11  1  0  0  0  0
  8 12  1  0  0  0  0
  8 15  1  0  0  0  0
  9 13  1  0  0  0  0
  9 14  1  0  0  0  0
  9 17  1  0  0  0  0
 10 29  1  0  0  0  0
 10 33  1  0  0  0  0
 10 63  1  0  0  0  0
 11 13  1  0  0  0  0
 11 37  1  0  0  0  0
 11 38  1  0  0  0  0
 12 14  1  0  0  0  0
 12 39  1  0  0  0  0
 12 40  1  0  0  0  0
 13 41  1  0  0  0  0
 13 42  1  0  0  0  0
 14 43  1  0  0  0  0
 14 44  1  0  0  0  0
 15 16  1  0  0  0  0
 15 45  1  0  0  0  0
 15 46  1  0  0  0  0
 16 18  1  0  0  0  0
 16 47  1  0  0  0  0
 16 48  1  0  0  0  0
 17 19  1  0  0  0  0
 17 21  2  0  0  0  0
 18 20  1  0  0  0  0
 18 49  1  0  0  0  0
 18 50  1  0  0  0  0
 19 22  2  0  0  0  0
 20 51  1  0  0  0  0
 20 52  1  0  0  0  0
 21 23  1  0  0  0  0
 21 53  1  0  0  0  0
 22 24  1  0  0  0  0
 22 54  1  0  0  0  0
 23 24  2  0  0  0  0
 23 55  1  0  0  0  0
 24 56  1  0  0  0  0
 25 27  2  0  0  0  0
 25 28  1  0  0  0  0
 26 57  1  0  0  0  0
 26 58  1  0  0  0  0
 26 59  1  0  0  0  0
 27 29  1  0  0  0  0
 27 60  1  0  0  0  0
 28 31  2  0  0  0  0
 28 61  1  0  0  0  0
 29 30  2  0  0  0  0
 30 31  1  0  0  0  0
 30 32  1  0  0  0  0
 31 62  1  0  0  0  0
 32 34  2  0  0  0  0
 32 64  1  0  0  0  0
 33 34  1  0  0  0  0
 34 65  1  0  0  0  0
 35 36  1  0  0  0  0
M  END
> <PUBCHEM_COMPOUND_CID>
53248674

> <PUBCHEM_COMPOUND_CANONICALIZED>
1

> <PUBCHEM_CACTVS_COMPLEXITY>
648

> <PUBCHEM_CACTVS_HBOND_ACCEPTOR>
9

> <PUBCHEM_CACTVS_HBOND_DONOR>
3

> <PUBCHEM_CACTVS_ROTATABLE_BOND>
9

> <PUBCHEM_CACTVS_SUBSKEYS>
AAADceB7OAAAAAAAAAAAAAAAAAAAAAAAAAA8YIEAAAAAAACBQAAAHgAQCAAADAzhmAYyzoPABgCIAiXSWAKCCAAhIgAIiABPbMgPZiLEsZuXOCjm1BnZ6Yew0AMOIAAAAgACEABAAAAEAAQgAAAAAAAAAA==

> <PUBCHEM_IUPAC_OPENEYE_NAME>
7-[4-[4-(2-methoxyphenyl)piperazin-1-yl]butoxy]-1H-quinolin-2-one;oxalic acid

> <PUBCHEM_IUPAC_CAS_NAME>
7-[4-[4-(2-methoxyphenyl)-1-piperazinyl]butoxy]-1H-quinolin-2-one;oxalic acid

> <PUBCHEM_IUPAC_NAME_MARKUP>
7-[4-[4-(2-methoxyphenyl)piperazin-1-yl]butoxy]-1<I>H</I>-quinolin-2-one;oxalic acid

> <PUBCHEM_IUPAC_NAME>
7-[4-[4-(2-methoxyphenyl)piperazin-1-yl]butoxy]-1H-quinolin-2-one;oxalic acid

> <PUBCHEM_IUPAC_SYSTEMATIC_NAME>
ethanedioic acid;7-[4-[4-(2-methoxyphenyl)piperazin-1-yl]butoxy]-1H-quinolin-2-one

> <PUBCHEM_IUPAC_TRADITIONAL_NAME>
7-[4-[4-(2-methoxyphenyl)piperazino]butoxy]carbostyril;oxalic acid

> <PUBCHEM_IUPAC_INCHI>
InChI=1S/C24H29N3O3.C2H2O4/c1-29-23-7-3-2-6-22(23)27-15-13-26(14-16-27)12-4-5-17-30-20-10-8-19-9-11-24(28)25-21(19)18-20;3-1(4)2(5)6/h2-3,6-11,18H,4-5,12-17H2,1H3,(H,25,28);(H,3,4)(H,5,6)

> <PUBCHEM_IUPAC_INCHIKEY>
BITBPPPUNYZRQM-UHFFFAOYSA-N

> <PUBCHEM_EXACT_MASS>
497.21620034

> <PUBCHEM_MOLECULAR_FORMULA>
C26H31N3O7

> <PUBCHEM_MOLECULAR_WEIGHT>
497.5

> <PUBCHEM_OPENEYE_CAN_SMILES>
COC1=CC=CC=C1N2CCN(CC2)CCCCOC3=CC4=C(C=C3)C=CC(=O)N4.C(=O)(C(=O)O)O

> <PUBCHEM_OPENEYE_ISO_SMILES>
COC1=CC=CC=C1N2CCN(CC2)CCCCOC3=CC4=C(C=C3)C=CC(=O)N4.C(=O)(C(=O)O)O

> <PUBCHEM_CACTVS_TPSA>
129

> <PUBCHEM_MONOISOTOPIC_WEIGHT>
497.21620034

> <PUBCHEM_TOTAL_CHARGE>
0

> <PUBCHEM_HEAVY_ATOM_COUNT>
36

> <PUBCHEM_ATOM_DEF_STEREO_COUNT>
0

> <PUBCHEM_ATOM_UDEF_STEREO_COUNT>
0

> <PUBCHEM_BOND_DEF_STEREO_COUNT>
0

> <PUBCHEM_BOND_UDEF_STEREO_COUNT>
0

> <PUBCHEM_ISOTOPIC_ATOM_COUNT>
0

> <PUBCHEM_COMPONENT_COUNT>
2

> <PUBCHEM_CACTVS_TAUTO_COUNT>
-1

> <PUBCHEM_COORDINATE_TYPE>
1
5
255

> <PUBCHEM_BONDANNOTATIONS>
10  29  8
10  33  8
17  19  8
17  21  8
19  22  8
21  23  8
22  24  8
23  24  8
25  27  8
25  28  8
27  29  8
28  31  8
29  30  8
30  31  8
30  32  8
32  34  8
33  34  8

$$$$
