25068905
  -OEChem-09292322302D

 57 61  0     0  0  0  0  0  0999 V2000
    4.5816   -1.7114    0.0000 O   0  0  0  0  0  0  0  0  0  0  0  0
    2.0000   -4.6723    0.0000 O   0  0  0  0  0  0  0  0  0  0  0  0
    6.3136    1.2886    0.0000 N   0  0  0  0  0  0  0  0  0  0  0  0
    6.3136    3.2886    0.0000 N   0  0  0  0  0  0  0  0  0  0  0  0
    3.3836   -5.7863    0.0000 N   0  0  0  0  0  0  0  0  0  0  0  0
    7.1796    1.7886    0.0000 C   0  0  0  0  0  0  0  0  0  0  0  0
    5.4476    1.7886    0.0000 C   0  0  0  0  0  0  0  0  0  0  0  0
    7.1796    2.7886    0.0000 C   0  0  0  0  0  0  0  0  0  0  0  0
    5.4476    2.7886    0.0000 C   0  0  0  0  0  0  0  0  0  0  0  0
    6.3136    0.2886    0.0000 C   0  0  0  0  0  0  0  0  0  0  0  0
    6.3136    4.2886    0.0000 C   0  0  0  0  0  0  0  0  0  0  0  0
    5.4476   -0.2114    0.0000 C   0  0  0  0  0  0  0  0  0  0  0  0
    7.1796    4.7886    0.0000 C   0  0  0  0  0  0  0  0  0  0  0  0
    5.4476   -1.2114    0.0000 C   0  0  0  0  0  0  0  0  0  0  0  0
    5.4476    4.7886    0.0000 C   0  0  0  0  0  0  0  0  0  0  0  0
    7.1796    5.7886    0.0000 C   0  0  0  0  0  0  0  0  0  0  0  0
    8.0736    4.2539    0.0000 C   0  0  0  0  0  0  0  0  0  0  0  0
    5.4476    5.7886    0.0000 C   0  0  0  0  0  0  0  0  0  0  0  0
    6.3136    6.2886    0.0000 C   0  0  0  0  0  0  0  0  0  0  0  0
    8.0736    6.3232    0.0000 C   0  0  0  0  0  0  0  0  0  0  0  0
    4.5816   -2.7114    0.0000 C   0  0  0  0  0  0  0  0  0  0  0  0
    4.5816   -4.7114    0.0000 C   0  0  0  0  0  0  0  0  0  0  0  0
    3.7155   -4.2114    0.0000 C   0  0  0  0  0  0  0  0  0  0  0  0
    8.9796    4.7678    0.0000 C   0  0  0  0  0  0  0  0  0  0  0  0
    4.3723   -5.6832    0.0000 C   0  0  0  0  0  0  0  0  0  0  0  0
    3.7155   -3.2114    0.0000 C   0  0  0  0  0  0  0  0  0  0  0  0
    8.9796    5.8094    0.0000 C   0  0  0  0  0  0  0  0  0  0  0  0
    5.4476   -3.2114    0.0000 C   0  0  0  0  0  0  0  0  0  0  0  0
    5.4476   -4.2114    0.0000 C   0  0  0  0  0  0  0  0  0  0  0  0
    2.9785   -4.8785    0.0000 C   0  0  0  0  0  0  0  0  0  0  0  0
    7.3917    1.2060    0.0000 H   0  0  0  0  0  0  0  0  0  0  0  0
    7.7902    1.8962    0.0000 H   0  0  0  0  0  0  0  0  0  0  0  0
    4.8370    1.8962    0.0000 H   0  0  0  0  0  0  0  0  0  0  0  0
    5.2355    1.2060    0.0000 H   0  0  0  0  0  0  0  0  0  0  0  0
    7.7902    2.6809    0.0000 H   0  0  0  0  0  0  0  0  0  0  0  0
    7.3917    3.3712    0.0000 H   0  0  0  0  0  0  0  0  0  0  0  0
    5.2355    3.3712    0.0000 H   0  0  0  0  0  0  0  0  0  0  0  0
    4.8370    2.6809    0.0000 H   0  0  0  0  0  0  0  0  0  0  0  0
    6.5256   -0.2940    0.0000 H   0  0  0  0  0  0  0  0  0  0  0  0
    6.9242    0.3962    0.0000 H   0  0  0  0  0  0  0  0  0  0  0  0
    5.2355    0.3712    0.0000 H   0  0  0  0  0  0  0  0  0  0  0  0
    4.8370   -0.3191    0.0000 H   0  0  0  0  0  0  0  0  0  0  0  0
    5.6596   -1.7940    0.0000 H   0  0  0  0  0  0  0  0  0  0  0  0
    6.0582   -1.1038    0.0000 H   0  0  0  0  0  0  0  0  0  0  0  0
    4.9106    4.4786    0.0000 H   0  0  0  0  0  0  0  0  0  0  0  0
    8.0664    3.6340    0.0000 H   0  0  0  0  0  0  0  0  0  0  0  0
    4.9106    6.0986    0.0000 H   0  0  0  0  0  0  0  0  0  0  0  0
    6.3136    6.9086    0.0000 H   0  0  0  0  0  0  0  0  0  0  0  0
    8.0664    6.9432    0.0000 H   0  0  0  0  0  0  0  0  0  0  0  0
    9.5154    4.4557    0.0000 H   0  0  0  0  0  0  0  0  0  0  0  0
    4.3714   -6.3032    0.0000 H   0  0  0  0  0  0  0  0  0  0  0  0
    4.9888   -5.7493    0.0000 H   0  0  0  0  0  0  0  0  0  0  0  0
    3.1786   -2.9014    0.0000 H   0  0  0  0  0  0  0  0  0  0  0  0
    9.5154    6.1215    0.0000 H   0  0  0  0  0  0  0  0  0  0  0  0
    5.9845   -2.9014    0.0000 H   0  0  0  0  0  0  0  0  0  0  0  0
    5.9845   -4.5214    0.0000 H   0  0  0  0  0  0  0  0  0  0  0  0
    3.0736   -6.3232    0.0000 H   0  0  0  0  0  0  0  0  0  0  0  0
  1 14  1  0  0  0  0
  1 21  1  0  0  0  0
  2 30  2  0  0  0  0
  3  6  1  0  0  0  0
  3  7  1  0  0  0  0
  3 10  1  0  0  0  0
  4  8  1  0  0  0  0
  4  9  1  0  0  0  0
  4 11  1  0  0  0  0
  5 25  1  0  0  0  0
  5 30  1  0  0  0  0
  5 57  1  0  0  0  0
  6  8  1  0  0  0  0
  6 31  1  0  0  0  0
  6 32  1  0  0  0  0
  7  9  1  0  0  0  0
  7 33  1  0  0  0  0
  7 34  1  0  0  0  0
  8 35  1  0  0  0  0
  8 36  1  0  0  0  0
  9 37  1  0  0  0  0
  9 38  1  0  0  0  0
 10 12  1  0  0  0  0
 10 39  1  0  0  0  0
 10 40  1  0  0  0  0
 11 13  1  0  0  0  0
 11 15  2  0  0  0  0
 12 14  1  0  0  0  0
 12 41  1  0  0  0  0
 12 42  1  0  0  0  0
 13 16  1  0  0  0  0
 13 17  2  0  0  0  0
 14 43  1  0  0  0  0
 14 44  1  0  0  0  0
 15 18  1  0  0  0  0
 15 45  1  0  0  0  0
 16 19  1  0  0  0  0
 16 20  2  0  0  0  0
 17 24  1  0  0  0  0
 17 46  1  0  0  0  0
 18 19  2  0  0  0  0
 18 47  1  0  0  0  0
 19 48  1  0  0  0  0
 20 27  1  0  0  0  0
 20 49  1  0  0  0  0
 21 26  2  0  0  0  0
 21 28  1  0  0  0  0
 22 23  2  0  0  0  0
 22 25  1  0  0  0  0
 22 29  1  0  0  0  0
 23 26  1  0  0  0  0
 23 30  1  0  0  0  0
 24 27  2  0  0  0  0
 24 50  1  0  0  0  0
 25 51  1  0  0  0  0
 25 52  1  0  0  0  0
 26 53  1  0  0  0  0
 27 54  1  0  0  0  0
 28 29  2  0  0  0  0
 28 55  1  0  0  0  0
 29 56  1  0  0  0  0
M  END
> <PUBCHEM_COMPOUND_CID>
25068905

> <PUBCHEM_COMPOUND_CANONICALIZED>
1

> <PUBCHEM_CACTVS_COMPLEXITY>
577

> <PUBCHEM_CACTVS_HBOND_ACCEPTOR>
4

> <PUBCHEM_CACTVS_HBOND_DONOR>
1

> <PUBCHEM_CACTVS_ROTATABLE_BOND>
6

> <PUBCHEM_CACTVS_SUBSKEYS>
AAADceB7MAAAAAAAAAAAAAAAAAAAAWAAAAA8YMEAAAAAAFjBVAAAHgAQAAAADAzhmAYwxsPABACIAiVSUACCCAAlIgAIiIEObMgMZjLEtZuWOSjmxhHI6Ye+2JKOoAABQAASAABAAAKAACQAAAAAAAAAAA==

> <PUBCHEM_IUPAC_OPENEYE_NAME>
6-[3-[4-(1-naphthyl)piperazin-1-yl]propoxy]isoindolin-1-one

> <PUBCHEM_IUPAC_CAS_NAME>
6-[3-[4-(1-naphthalenyl)-1-piperazinyl]propoxy]-2,3-dihydroisoindol-1-one

> <PUBCHEM_IUPAC_NAME_MARKUP>
6-[3-(4-naphthalen-1-ylpiperazin-1-yl)propoxy]-2,3-dihydroisoindol-1-one

> <PUBCHEM_IUPAC_NAME>
6-[3-(4-naphthalen-1-ylpiperazin-1-yl)propoxy]-2,3-dihydroisoindol-1-one

> <PUBCHEM_IUPAC_SYSTEMATIC_NAME>
6-[3-(4-naphthalen-1-ylpiperazin-1-yl)propoxy]-2,3-dihydroisoindol-1-one

> <PUBCHEM_IUPAC_TRADITIONAL_NAME>
6-[3-[4-(1-naphthyl)piperazino]propoxy]isoindolin-1-one

> <PUBCHEM_IUPAC_INCHI>
InChI=1S/C25H27N3O2/c29-25-23-17-21(10-9-20(23)18-26-25)30-16-4-11-27-12-14-28(15-13-27)24-8-3-6-19-5-1-2-7-22(19)24/h1-3,5-10,17H,4,11-16,18H2,(H,26,29)

> <PUBCHEM_IUPAC_INCHIKEY>
HCCHXMMABQRBMV-UHFFFAOYSA-N

> <PUBCHEM_XLOGP3_AA>
4

> <PUBCHEM_EXACT_MASS>
401.21032711

> <PUBCHEM_MOLECULAR_FORMULA>
C25H27N3O2

> <PUBCHEM_MOLECULAR_WEIGHT>
401.5

> <PUBCHEM_OPENEYE_CAN_SMILES>
C1CN(CCN1CCCOC2=CC3=C(CNC3=O)C=C2)C4=CC=CC5=CC=CC=C54

> <PUBCHEM_OPENEYE_ISO_SMILES>
C1CN(CCN1CCCOC2=CC3=C(CNC3=O)C=C2)C4=CC=CC5=CC=CC=C54

> <PUBCHEM_CACTVS_TPSA>
44.8

> <PUBCHEM_MONOISOTOPIC_WEIGHT>
401.21032711

> <PUBCHEM_TOTAL_CHARGE>
0

> <PUBCHEM_HEAVY_ATOM_COUNT>
30

> <PUBCHEM_ATOM_DEF_STEREO_COUNT>
0

> <PUBCHEM_ATOM_UDEF_STEREO_COUNT>
0

> <PUBCHEM_BOND_DEF_STEREO_COUNT>
0

> <PUBCHEM_BOND_UDEF_STEREO_COUNT>
0

> <PUBCHEM_ISOTOPIC_ATOM_COUNT>
0

> <PUBCHEM_COMPONENT_COUNT>
1

> <PUBCHEM_CACTVS_TAUTO_COUNT>
-1

> <PUBCHEM_COORDINATE_TYPE>
1
5
255

> <PUBCHEM_BONDANNOTATIONS>
11  13  8
11  15  8
13  16  8
13  17  8
15  18  8
16  19  8
16  20  8
17  24  8
18  19  8
20  27  8
21  26  8
21  28  8
22  23  8
22  29  8
23  26  8
24  27  8
28  29  8

$$$$
