163196460
  -OEChem-09292322452D

 54 57  0     0  0  0  0  0  0999 V2000
    8.9282   -1.4050    0.0000 S   0  0  0  0  0  0  0  0  0  0  0  0
    4.5981   -0.9050    0.0000 N   0  0  0  0  0  0  0  0  0  0  0  0
    2.8660   -1.9050    0.0000 N   0  0  0  0  0  0  0  0  0  0  0  0
    6.3301   -0.9050    0.0000 N   0  0  0  0  0  0  0  0  0  0  0  0
    5.4641    0.5950    0.0000 N   0  0  0  0  0  0  0  0  0  0  0  0
    7.1962    0.5950    0.0000 N   0  0  0  0  0  0  0  0  0  0  0  0
    6.3301    2.0950    0.0000 N   0  0  0  0  0  0  0  0  0  0  0  0
    4.5981   -1.9050    0.0000 C   0  0  0  0  0  0  0  0  0  0  0  0
    3.7320   -0.4050    0.0000 C   0  0  0  0  0  0  0  0  0  0  0  0
    3.7320   -2.4050    0.0000 C   0  0  0  0  0  0  0  0  0  0  0  0
    2.8660   -0.9050    0.0000 C   0  0  0  0  0  0  0  0  0  0  0  0
    5.4641   -0.4050    0.0000 C   0  0  0  0  0  0  0  0  0  0  0  0
    2.0000   -2.4050    0.0000 C   0  0  0  0  0  0  0  0  0  0  0  0
    8.0622   -0.9050    0.0000 C   0  0  0  0  0  0  0  0  0  0  0  0
    7.1962   -0.4050    0.0000 C   0  0  0  0  0  0  0  0  0  0  0  0
    7.5622   -1.7710    0.0000 C   0  0  0  0  0  0  0  0  0  0  0  0
    8.5622   -0.0390    0.0000 C   0  0  0  0  0  0  0  0  0  0  0  0
    6.3301    1.0950    0.0000 C   0  0  0  0  0  0  0  0  0  0  0  0
    9.7942   -0.9050    0.0000 C   0  0  0  0  0  0  0  0  0  0  0  0
   10.6603   -1.4050    0.0000 C   0  0  0  0  0  0  0  0  0  0  0  0
   11.5263   -0.9050    0.0000 C   0  0  0  0  0  0  0  0  0  0  0  0
    9.7942    0.0950    0.0000 C   0  0  0  0  0  0  0  0  0  0  0  0
   11.5263    0.0950    0.0000 C   0  0  0  0  0  0  0  0  0  0  0  0
   10.6603    0.5950    0.0000 C   0  0  0  0  0  0  0  0  0  0  0  0
   12.4202   -1.4397    0.0000 C   0  0  0  0  0  0  0  0  0  0  0  0
   12.4202    0.6297    0.0000 C   0  0  0  0  0  0  0  0  0  0  0  0
   13.3263   -0.9258    0.0000 C   0  0  0  0  0  0  0  0  0  0  0  0
   13.3263    0.1158    0.0000 C   0  0  0  0  0  0  0  0  0  0  0  0
    4.8101   -2.4876    0.0000 H   0  0  0  0  0  0  0  0  0  0  0  0
    5.2087   -1.7973    0.0000 H   0  0  0  0  0  0  0  0  0  0  0  0
    4.1306    0.0699    0.0000 H   0  0  0  0  0  0  0  0  0  0  0  0
    3.3335    0.0699    0.0000 H   0  0  0  0  0  0  0  0  0  0  0  0
    3.3335   -2.8800    0.0000 H   0  0  0  0  0  0  0  0  0  0  0  0
    4.1306   -2.8800    0.0000 H   0  0  0  0  0  0  0  0  0  0  0  0
    2.6540   -0.3224    0.0000 H   0  0  0  0  0  0  0  0  0  0  0  0
    2.2554   -1.0127    0.0000 H   0  0  0  0  0  0  0  0  0  0  0  0
    1.6900   -1.8681    0.0000 H   0  0  0  0  0  0  0  0  0  0  0  0
    1.4631   -2.7150    0.0000 H   0  0  0  0  0  0  0  0  0  0  0  0
    2.3100   -2.9419    0.0000 H   0  0  0  0  0  0  0  0  0  0  0  0
    7.0252   -1.4610    0.0000 H   0  0  0  0  0  0  0  0  0  0  0  0
    7.2522   -2.3080    0.0000 H   0  0  0  0  0  0  0  0  0  0  0  0
    8.0991   -2.0810    0.0000 H   0  0  0  0  0  0  0  0  0  0  0  0
    9.0991   -0.3490    0.0000 H   0  0  0  0  0  0  0  0  0  0  0  0
    8.8722    0.4980    0.0000 H   0  0  0  0  0  0  0  0  0  0  0  0
    8.0252    0.2710    0.0000 H   0  0  0  0  0  0  0  0  0  0  0  0
   10.6603   -2.0250    0.0000 H   0  0  0  0  0  0  0  0  0  0  0  0
    9.2573    0.4050    0.0000 H   0  0  0  0  0  0  0  0  0  0  0  0
   10.6603    1.2150    0.0000 H   0  0  0  0  0  0  0  0  0  0  0  0
    5.7932    2.4050    0.0000 H   0  0  0  0  0  0  0  0  0  0  0  0
    6.8671    2.4050    0.0000 H   0  0  0  0  0  0  0  0  0  0  0  0
   12.4131   -2.0596    0.0000 H   0  0  0  0  0  0  0  0  0  0  0  0
   12.4131    1.2496    0.0000 H   0  0  0  0  0  0  0  0  0  0  0  0
   13.8620   -1.2379    0.0000 H   0  0  0  0  0  0  0  0  0  0  0  0
   13.8620    0.4279    0.0000 H   0  0  0  0  0  0  0  0  0  0  0  0
  1 14  1  0  0  0  0
  1 19  1  0  0  0  0
  2  8  1  0  0  0  0
  2  9  1  0  0  0  0
  2 12  1  0  0  0  0
  3 10  1  0  0  0  0
  3 11  1  0  0  0  0
  3 13  1  0  0  0  0
  4 12  2  0  0  0  0
  4 15  1  0  0  0  0
  5 12  1  0  0  0  0
  5 18  2  0  0  0  0
  6 15  2  0  0  0  0
  6 18  1  0  0  0  0
  7 18  1  0  0  0  0
  7 49  1  0  0  0  0
  7 50  1  0  0  0  0
  8 10  1  0  0  0  0
  8 29  1  0  0  0  0
  8 30  1  0  0  0  0
  9 11  1  0  0  0  0
  9 31  1  0  0  0  0
  9 32  1  0  0  0  0
 10 33  1  0  0  0  0
 10 34  1  0  0  0  0
 11 35  1  0  0  0  0
 11 36  1  0  0  0  0
 13 37  1  0  0  0  0
 13 38  1  0  0  0  0
 13 39  1  0  0  0  0
 14 15  1  0  0  0  0
 14 16  1  0  0  0  0
 14 17  1  0  0  0  0
 16 40  1  0  0  0  0
 16 41  1  0  0  0  0
 16 42  1  0  0  0  0
 17 43  1  0  0  0  0
 17 44  1  0  0  0  0
 17 45  1  0  0  0  0
 19 20  2  0  0  0  0
 19 22  1  0  0  0  0
 20 21  1  0  0  0  0
 20 46  1  0  0  0  0
 21 23  1  0  0  0  0
 21 25  2  0  0  0  0
 22 24  2  0  0  0  0
 22 47  1  0  0  0  0
 23 24  1  0  0  0  0
 23 26  2  0  0  0  0
 24 48  1  0  0  0  0
 25 27  1  0  0  0  0
 25 51  1  0  0  0  0
 26 28  1  0  0  0  0
 26 52  1  0  0  0  0
 27 28  2  0  0  0  0
 27 53  1  0  0  0  0
 28 54  1  0  0  0  0
M  END
> <PUBCHEM_COMPOUND_CID>
163196460

> <PUBCHEM_COMPOUND_CANONICALIZED>
1

> <PUBCHEM_CACTVS_COMPLEXITY>
509

> <PUBCHEM_CACTVS_HBOND_ACCEPTOR>
7

> <PUBCHEM_CACTVS_HBOND_DONOR>
1

> <PUBCHEM_CACTVS_ROTATABLE_BOND>
4

> <PUBCHEM_CACTVS_SUBSKEYS>
AAADceB7gABAAAAAAAAAAAAAAAAAAAAAAAA8eIEAAAAAAADB1AAAHAQQAAAADADBWwQzEcdIEAigAiJiJAACgAkgCLAJiBgoAIiIaCKgGRCUIAAogAKoiAcAgIAOkAAAgAAQAAAgAAEAACAAAAAAAAAAAA==

> <PUBCHEM_IUPAC_OPENEYE_NAME>
4-[1-methyl-1-(2-naphthylsulfanyl)ethyl]-6-(4-methylpiperazin-1-yl)-1,3,5-triazin-2-amine

> <PUBCHEM_IUPAC_CAS_NAME>
4-(4-methyl-1-piperazinyl)-6-[2-(2-naphthalenylthio)propan-2-yl]-1,3,5-triazin-2-amine

> <PUBCHEM_IUPAC_NAME_MARKUP>
4-(4-methylpiperazin-1-yl)-6-(2-naphthalen-2-ylsulfanylpropan-2-yl)-1,3,5-triazin-2-amine

> <PUBCHEM_IUPAC_NAME>
4-(4-methylpiperazin-1-yl)-6-(2-naphthalen-2-ylsulfanylpropan-2-yl)-1,3,5-triazin-2-amine

> <PUBCHEM_IUPAC_SYSTEMATIC_NAME>
4-(4-methylpiperazin-1-yl)-6-(2-naphthalen-2-ylsulfanylpropan-2-yl)-1,3,5-triazin-2-amine

> <PUBCHEM_IUPAC_TRADITIONAL_NAME>
[4-[1-methyl-1-(2-naphthylthio)ethyl]-6-(4-methylpiperazino)-s-triazin-2-yl]amine

> <PUBCHEM_IUPAC_INCHI>
InChI=1S/C21H26N6S/c1-21(2,28-17-9-8-15-6-4-5-7-16(15)14-17)18-23-19(22)25-20(24-18)27-12-10-26(3)11-13-27/h4-9,14H,10-13H2,1-3H3,(H2,22,23,24,25)

> <PUBCHEM_IUPAC_INCHIKEY>
AFNNYMZEMGROFW-UHFFFAOYSA-N

> <PUBCHEM_XLOGP3_AA>
3.8

> <PUBCHEM_EXACT_MASS>
394.19396603

> <PUBCHEM_MOLECULAR_FORMULA>
C21H26N6S

> <PUBCHEM_MOLECULAR_WEIGHT>
394.5

> <PUBCHEM_OPENEYE_CAN_SMILES>
CC(C)(C1=NC(=NC(=N1)N2CCN(CC2)C)N)SC3=CC4=CC=CC=C4C=C3

> <PUBCHEM_OPENEYE_ISO_SMILES>
CC(C)(C1=NC(=NC(=N1)N2CCN(CC2)C)N)SC3=CC4=CC=CC=C4C=C3

> <PUBCHEM_CACTVS_TPSA>
96.5

> <PUBCHEM_MONOISOTOPIC_WEIGHT>
394.19396603

> <PUBCHEM_TOTAL_CHARGE>
0

> <PUBCHEM_HEAVY_ATOM_COUNT>
28

> <PUBCHEM_ATOM_DEF_STEREO_COUNT>
0

> <PUBCHEM_ATOM_UDEF_STEREO_COUNT>
0

> <PUBCHEM_BOND_DEF_STEREO_COUNT>
0

> <PUBCHEM_BOND_UDEF_STEREO_COUNT>
0

> <PUBCHEM_ISOTOPIC_ATOM_COUNT>
0

> <PUBCHEM_COMPONENT_COUNT>
1

> <PUBCHEM_CACTVS_TAUTO_COUNT>
-1

> <PUBCHEM_COORDINATE_TYPE>
1
5
255

> <PUBCHEM_BONDANNOTATIONS>
19  20  8
19  22  8
20  21  8
21  23  8
21  25  8
22  24  8
23  24  8
23  26  8
25  27  8
26  28  8
27  28  8
4  12  8
4  15  8
5  12  8
5  18  8
6  15  8
6  18  8

$$$$
