53320010
  -OEChem-09292322072D

 56 60  0     1  0  0  0  0  0999 V2000
    4.6660   -1.2326    0.0000 S   0  0  0  0  0  0  0  0  0  0  0  0
    4.6660    2.7674    0.0000 O   0  0  0  0  0  0  0  0  0  0  0  0
    5.6660   -1.2326    0.0000 O   0  0  0  0  0  0  0  0  0  0  0  0
    3.6660   -1.2326    0.0000 O   0  0  0  0  0  0  0  0  0  0  0  0
    2.9176    2.8020    0.0000 N   0  0  0  0  0  0  0  0  0  0  0  0
    2.9408    4.8019    0.0000 N   0  0  0  0  0  0  0  0  0  0  0  0
    4.6660   -0.2326    0.0000 N   0  0  3  0  0  0  0  0  0  0  0  0
    2.0574    3.3120    0.0000 C   0  0  0  0  0  0  0  0  0  0  0  0
    3.7894    3.2920    0.0000 C   0  0  0  0  0  0  0  0  0  0  0  0
    2.9061    1.8021    0.0000 C   0  0  0  0  0  0  0  0  0  0  0  0
    2.0690    4.3119    0.0000 C   0  0  0  0  0  0  0  0  0  0  0  0
    3.8009    4.2919    0.0000 C   0  0  0  0  0  0  0  0  0  0  0  0
    3.8000    1.2674    0.0000 C   0  0  0  0  0  0  0  0  0  0  0  0
    3.8000    0.2674    0.0000 C   0  0  0  0  0  0  0  0  0  0  0  0
    5.5321    0.2674    0.0000 C   0  0  0  0  0  0  0  0  0  0  0  0
    5.5321    1.2674    0.0000 C   0  0  0  0  0  0  0  0  0  0  0  0
    4.6660    1.7674    0.0000 C   0  0  0  0  0  0  0  0  0  0  0  0
    2.0000    1.2882    0.0000 C   0  0  0  0  0  0  0  0  0  0  0  0
    2.9061   -0.2672    0.0000 C   0  0  0  0  0  0  0  0  0  0  0  0
    2.9523    5.8018    0.0000 C   0  0  0  0  0  0  0  0  0  0  0  0
    2.0000    0.2466    0.0000 C   0  0  0  0  0  0  0  0  0  0  0  0
    4.6660   -2.2326    0.0000 C   0  0  0  0  0  0  0  0  0  0  0  0
    5.5321   -2.7326    0.0000 C   0  0  0  0  0  0  0  0  0  0  0  0
    3.8000   -2.7326    0.0000 C   0  0  0  0  0  0  0  0  0  0  0  0
    5.5321   -3.7326    0.0000 C   0  0  0  0  0  0  0  0  0  0  0  0
    4.6660   -4.2326    0.0000 C   0  0  0  0  0  0  0  0  0  0  0  0
    3.8000   -3.7326    0.0000 C   0  0  0  0  0  0  0  0  0  0  0  0
    6.4421   -4.2394    0.0000 C   0  0  0  0  0  0  0  0  0  0  0  0
    4.6500   -5.2741    0.0000 C   0  0  0  0  0  0  0  0  0  0  0  0
    6.4501   -5.2810    0.0000 C   0  0  0  0  0  0  0  0  0  0  0  0
    5.5480   -5.8018    0.0000 C   0  0  0  0  0  0  0  0  0  0  0  0
    1.4482    3.4267    0.0000 H   0  0  0  0  0  0  0  0  0  0  0  0
    1.8387    2.7319    0.0000 H   0  0  0  0  0  0  0  0  0  0  0  0
    3.9947    2.7070    0.0000 H   0  0  0  0  0  0  0  0  0  0  0  0
    4.4012    3.3926    0.0000 H   0  0  0  0  0  0  0  0  0  0  0  0
    1.8637    4.8970    0.0000 H   0  0  0  0  0  0  0  0  0  0  0  0
    1.4572    4.2114    0.0000 H   0  0  0  0  0  0  0  0  0  0  0  0
    4.4102    4.1772    0.0000 H   0  0  0  0  0  0  0  0  0  0  0  0
    4.0197    4.8720    0.0000 H   0  0  0  0  0  0  0  0  0  0  0  0
    5.7441   -0.3152    0.0000 H   0  0  0  0  0  0  0  0  0  0  0  0
    6.1426    0.3751    0.0000 H   0  0  0  0  0  0  0  0  0  0  0  0
    6.1426    1.1598    0.0000 H   0  0  0  0  0  0  0  0  0  0  0  0
    5.7441    1.8500    0.0000 H   0  0  0  0  0  0  0  0  0  0  0  0
    1.4643    1.6003    0.0000 H   0  0  0  0  0  0  0  0  0  0  0  0
    2.9132   -0.8872    0.0000 H   0  0  0  0  0  0  0  0  0  0  0  0
    3.5723    5.7947    0.0000 H   0  0  0  0  0  0  0  0  0  0  0  0
    2.9595    6.4218    0.0000 H   0  0  0  0  0  0  0  0  0  0  0  0
    2.3324    5.8090    0.0000 H   0  0  0  0  0  0  0  0  0  0  0  0
    1.4643   -0.0654    0.0000 H   0  0  0  0  0  0  0  0  0  0  0  0
    6.0690   -2.4226    0.0000 H   0  0  0  0  0  0  0  0  0  0  0  0
    3.2631   -2.4226    0.0000 H   0  0  0  0  0  0  0  0  0  0  0  0
    3.2631   -4.0426    0.0000 H   0  0  0  0  0  0  0  0  0  0  0  0
    6.9754   -3.9232    0.0000 H   0  0  0  0  0  0  0  0  0  0  0  0
    4.1095   -5.5778    0.0000 H   0  0  0  0  0  0  0  0  0  0  0  0
    6.9882   -5.5889    0.0000 H   0  0  0  0  0  0  0  0  0  0  0  0
    5.5456   -6.4218    0.0000 H   0  0  0  0  0  0  0  0  0  0  0  0
  1  3  2  0  0  0  0
  1  4  2  0  0  0  0
  1  7  1  0  0  0  0
  1 22  1  0  0  0  0
  2 17  2  0  0  0  0
  5  8  1  0  0  0  0
  5  9  1  0  0  0  0
  5 10  1  0  0  0  0
  6 11  1  0  0  0  0
  6 12  1  0  0  0  0
  6 20  1  0  0  0  0
  7 14  1  0  0  0  0
  7 15  1  0  0  0  0
  8 11  1  0  0  0  0
  8 32  1  0  0  0  0
  8 33  1  0  0  0  0
  9 12  1  0  0  0  0
  9 34  1  0  0  0  0
  9 35  1  0  0  0  0
 10 13  2  0  0  0  0
 10 18  1  0  0  0  0
 11 36  1  0  0  0  0
 11 37  1  0  0  0  0
 12 38  1  0  0  0  0
 12 39  1  0  0  0  0
 13 14  1  0  0  0  0
 13 17  1  0  0  0  0
 14 19  2  0  0  0  0
 15 16  1  0  0  0  0
 15 40  1  0  0  0  0
 15 41  1  0  0  0  0
 16 17  1  0  0  0  0
 16 42  1  0  0  0  0
 16 43  1  0  0  0  0
 18 21  2  0  0  0  0
 18 44  1  0  0  0  0
 19 21  1  0  0  0  0
 19 45  1  0  0  0  0
 20 46  1  0  0  0  0
 20 47  1  0  0  0  0
 20 48  1  0  0  0  0
 21 49  1  0  0  0  0
 22 23  2  0  0  0  0
 22 24  1  0  0  0  0
 23 25  1  0  0  0  0
 23 50  1  0  0  0  0
 24 27  2  0  0  0  0
 24 51  1  0  0  0  0
 25 26  1  0  0  0  0
 25 28  2  0  0  0  0
 26 27  1  0  0  0  0
 26 29  2  0  0  0  0
 27 52  1  0  0  0  0
 28 30  1  0  0  0  0
 28 53  1  0  0  0  0
 29 31  1  0  0  0  0
 29 54  1  0  0  0  0
 30 31  2  0  0  0  0
 30 55  1  0  0  0  0
 31 56  1  0  0  0  0
M  END
> <PUBCHEM_COMPOUND_CID>
53320010

> <PUBCHEM_COMPOUND_CANONICALIZED>
1

> <PUBCHEM_CACTVS_COMPLEXITY>
759

> <PUBCHEM_CACTVS_HBOND_ACCEPTOR>
6

> <PUBCHEM_CACTVS_HBOND_DONOR>
0

> <PUBCHEM_CACTVS_ROTATABLE_BOND>
3

> <PUBCHEM_CACTVS_SUBSKEYS>
AAADceB7MABAAAAAAAAAAAAAAAAAAAAAAAA8eMECAAAAAADxVAAAHgQAQAAADAzB2AQywcMAAAKIAqRSQHDCABAlAgAIiBkIZMgIYDrA1dGUIYhggADIyUcYiICOkAAAgAQSAAAgAAEACCQAAAAAAAAAAA==

> <PUBCHEM_IUPAC_OPENEYE_NAME>
5-(4-methylpiperazin-1-yl)-1-(2-naphthylsulfonyl)-2,3-dihydroquinolin-4-one

> <PUBCHEM_IUPAC_CAS_NAME>
5-(4-methyl-1-piperazinyl)-1-(2-naphthalenylsulfonyl)-2,3-dihydroquinolin-4-one

> <PUBCHEM_IUPAC_NAME_MARKUP>
5-(4-methylpiperazin-1-yl)-1-naphthalen-2-ylsulfonyl-2,3-dihydroquinolin-4-one

> <PUBCHEM_IUPAC_NAME>
5-(4-methylpiperazin-1-yl)-1-naphthalen-2-ylsulfonyl-2,3-dihydroquinolin-4-one

> <PUBCHEM_IUPAC_SYSTEMATIC_NAME>
5-(4-methylpiperazin-1-yl)-1-naphthalen-2-ylsulfonyl-2,3-dihydroquinolin-4-one

> <PUBCHEM_IUPAC_TRADITIONAL_NAME>
5-(4-methylpiperazino)-1-(2-naphthylsulfonyl)-2,3-dihydroquinolin-4-one

> <PUBCHEM_IUPAC_INCHI>
InChI=1S/C24H25N3O3S/c1-25-13-15-26(16-14-25)21-7-4-8-22-24(21)23(28)11-12-27(22)31(29,30)20-10-9-18-5-2-3-6-19(18)17-20/h2-10,17H,11-16H2,1H3

> <PUBCHEM_IUPAC_INCHIKEY>
TZMHJAWORUSIEG-UHFFFAOYSA-N

> <PUBCHEM_XLOGP3_AA>
3.3

> <PUBCHEM_EXACT_MASS>
435.16166284

> <PUBCHEM_MOLECULAR_FORMULA>
C24H25N3O3S

> <PUBCHEM_MOLECULAR_WEIGHT>
435.5

> <PUBCHEM_OPENEYE_CAN_SMILES>
CN1CCN(CC1)C2=C3C(=O)CCN(C3=CC=C2)S(=O)(=O)C4=CC5=CC=CC=C5C=C4

> <PUBCHEM_OPENEYE_ISO_SMILES>
CN1CCN(CC1)C2=C3C(=O)CCN(C3=CC=C2)S(=O)(=O)C4=CC5=CC=CC=C5C=C4

> <PUBCHEM_CACTVS_TPSA>
69.3

> <PUBCHEM_MONOISOTOPIC_WEIGHT>
435.16166284

> <PUBCHEM_TOTAL_CHARGE>
0

> <PUBCHEM_HEAVY_ATOM_COUNT>
31

> <PUBCHEM_ATOM_DEF_STEREO_COUNT>
0

> <PUBCHEM_ATOM_UDEF_STEREO_COUNT>
0

> <PUBCHEM_BOND_DEF_STEREO_COUNT>
0

> <PUBCHEM_BOND_UDEF_STEREO_COUNT>
0

> <PUBCHEM_ISOTOPIC_ATOM_COUNT>
0

> <PUBCHEM_COMPONENT_COUNT>
1

> <PUBCHEM_CACTVS_TAUTO_COUNT>
-1

> <PUBCHEM_COORDINATE_TYPE>
1
5
255

> <PUBCHEM_BONDANNOTATIONS>
10  13  8
10  18  8
13  14  8
14  19  8
18  21  8
19  21  8
22  23  8
22  24  8
23  25  8
24  27  8
25  26  8
25  28  8
26  27  8
26  29  8
28  30  8
29  31  8
30  31  8

$$$$
