10246054
  -OEChem-09292322032D

 44 47  0     1  0  0  0  0  0999 V2000
    2.0000    2.5145    0.0000 F   0  0  0  0  0  0  0  0  0  0  0  0
    8.9148   -0.8155    0.0000 F   0  0  0  0  0  0  0  0  0  0  0  0
    5.3972   -1.1303    0.0000 O   0  0  0  0  0  0  0  0  0  0  0  0
    5.5332   -0.1456    0.0000 N   0  0  3  0  0  0  0  0  0  0  0  0
    2.9878   -2.2827    0.0000 N   0  0  0  0  0  0  0  0  0  0  0  0
    4.6322    0.2883    0.0000 C   0  0  3  0  0  0  0  0  0  0  0  0
    3.9471   -0.4320    0.0000 C   0  0  0  0  0  0  0  0  0  0  0  0
    4.4189   -1.3070    0.0000 C   0  0  3  0  0  0  0  0  0  0  0  0
    4.4097    1.2632    0.0000 C   0  0  0  0  0  0  0  0  0  0  0  0
    3.9850   -2.2079    0.0000 C   0  0  0  0  0  0  0  0  0  0  0  0
    6.4341    0.2883    0.0000 C   0  0  0  0  0  0  0  0  0  0  0  0
    5.0332    2.0451    0.0000 C   0  0  0  0  0  0  0  0  0  0  0  0
    6.0332    2.0451    0.0000 C   0  0  0  0  0  0  0  0  0  0  0  0
    6.6567    1.2632    0.0000 C   0  0  0  0  0  0  0  0  0  0  0  0
    3.3774    1.4026    0.0000 C   0  0  0  0  0  0  0  0  0  0  0  0
    7.1867   -0.4319    0.0000 C   0  0  0  0  0  0  0  0  0  0  0  0
    4.6676    3.0204    0.0000 C   0  0  0  0  0  0  0  0  0  0  0  0
    7.6472    1.5856    0.0000 C   0  0  0  0  0  0  0  0  0  0  0  0
    2.9894    2.3692    0.0000 C   0  0  0  0  0  0  0  0  0  0  0  0
    3.6388    3.1836    0.0000 C   0  0  0  0  0  0  0  0  0  0  0  0
    8.1844   -0.1325    0.0000 C   0  0  0  0  0  0  0  0  0  0  0  0
    2.5540   -3.1836    0.0000 C   0  0  0  0  0  0  0  0  0  0  0  0
    2.4245   -1.4564    0.0000 C   0  0  0  0  0  0  0  0  0  0  0  0
    8.4162    0.8830    0.0000 C   0  0  0  0  0  0  0  0  0  0  0  0
    4.0343    0.4525    0.0000 H   0  0  0  0  0  0  0  0  0  0  0  0
    3.5452    0.0402    0.0000 H   0  0  0  0  0  0  0  0  0  0  0  0
    3.4353   -0.7820    0.0000 H   0  0  0  0  0  0  0  0  0  0  0  0
    4.7943   -1.8004    0.0000 H   0  0  0  0  0  0  0  0  0  0  0  0
    3.9233   -2.8248    0.0000 H   0  0  0  0  0  0  0  0  0  0  0  0
    4.5819   -2.3758    0.0000 H   0  0  0  0  0  0  0  0  0  0  0  0
    6.5918    2.3141    0.0000 H   0  0  0  0  0  0  0  0  0  0  0  0
    5.8952    2.6495    0.0000 H   0  0  0  0  0  0  0  0  0  0  0  0
    2.9965    0.9134    0.0000 H   0  0  0  0  0  0  0  0  0  0  0  0
    7.0418   -1.0347    0.0000 H   0  0  0  0  0  0  0  0  0  0  0  0
    5.0598    3.5007    0.0000 H   0  0  0  0  0  0  0  0  0  0  0  0
    7.7781    2.1916    0.0000 H   0  0  0  0  0  0  0  0  0  0  0  0
    3.4146    3.7616    0.0000 H   0  0  0  0  0  0  0  0  0  0  0  0
    1.9954   -2.9146    0.0000 H   0  0  0  0  0  0  0  0  0  0  0  0
    2.2849   -3.7422    0.0000 H   0  0  0  0  0  0  0  0  0  0  0  0
    3.1126   -3.4526    0.0000 H   0  0  0  0  0  0  0  0  0  0  0  0
    2.9368   -1.1072    0.0000 H   0  0  0  0  0  0  0  0  0  0  0  0
    2.0752   -0.9442    0.0000 H   0  0  0  0  0  0  0  0  0  0  0  0
    1.9122   -1.8057    0.0000 H   0  0  0  0  0  0  0  0  0  0  0  0
    9.0079    1.0680    0.0000 H   0  0  0  0  0  0  0  0  0  0  0  0
  1 19  1  0  0  0  0
  2 21  1  0  0  0  0
  3  4  1  0  0  0  0
  3  8  1  0  0  0  0
  4  6  1  0  0  0  0
  4 11  1  0  0  0  0
  5 10  1  0  0  0  0
  5 22  1  0  0  0  0
  5 23  1  0  0  0  0
  6  7  1  0  0  0  0
  6  9  1  0  0  0  0
  6 25  1  0  0  0  0
  7  8  1  0  0  0  0
  7 26  1  0  0  0  0
  7 27  1  0  0  0  0
  8 10  1  0  0  0  0
  8 28  1  0  0  0  0
  9 12  2  0  0  0  0
  9 15  1  0  0  0  0
 10 29  1  0  0  0  0
 10 30  1  0  0  0  0
 11 14  2  0  0  0  0
 11 16  1  0  0  0  0
 12 13  1  0  0  0  0
 12 17  1  0  0  0  0
 13 14  1  0  0  0  0
 13 31  1  0  0  0  0
 13 32  1  0  0  0  0
 14 18  1  0  0  0  0
 15 19  2  0  0  0  0
 15 33  1  0  0  0  0
 16 21  2  0  0  0  0
 16 34  1  0  0  0  0
 17 20  2  0  0  0  0
 17 35  1  0  0  0  0
 18 24  2  0  0  0  0
 18 36  1  0  0  0  0
 19 20  1  0  0  0  0
 20 37  1  0  0  0  0
 21 24  1  0  0  0  0
 22 38  1  0  0  0  0
 22 39  1  0  0  0  0
 22 40  1  0  0  0  0
 23 41  1  0  0  0  0
 23 42  1  0  0  0  0
 23 43  1  0  0  0  0
 24 44  1  0  0  0  0
M  END
> <PUBCHEM_COMPOUND_CID>
10246054

> <PUBCHEM_COMPOUND_CANONICALIZED>
1

> <PUBCHEM_CACTVS_COMPLEXITY>
449

> <PUBCHEM_CACTVS_HBOND_ACCEPTOR>
5

> <PUBCHEM_CACTVS_HBOND_DONOR>
0

> <PUBCHEM_CACTVS_ROTATABLE_BOND>
2

> <PUBCHEM_CACTVS_SUBSKEYS>
AAADceB7IYAAAAAAAAAAAAAAAAAAAWAAAAAwYAAABYAAAACxQAAAHwAEAAAADDzhmA4ywIMQAACAAiRCQACCAAAhAgAoiAAIZIgKICLAkZGEIAhmgADYyAeQwPAOgAAAAAASAAAAAAAAACQAAAAAAAAAAA==

> <PUBCHEM_IUPAC_OPENEYE_NAME>
1-(9,17-difluoro-3-oxa-2-azatetracyclo[12.4.0.02,6.07,12]octadeca-1(14),7(12),8,10,15,17-hexaen-4-yl)-N,N-dimethyl-methanamine

> <PUBCHEM_IUPAC_CAS_NAME>
1-(9,17-difluoro-3-oxa-2-azatetracyclo[12.4.0.02,6.07,12]octadeca-1(14),7(12),8,10,15,17-hexaen-4-yl)-N,N-dimethylmethanamine

> <PUBCHEM_IUPAC_NAME_MARKUP>
1-(9,17-difluoro-3-oxa-2-azatetracyclo[12.4.0.0<SUP>2,6</SUP>.0<SUP>7,12</SUP>]octadeca-1(14),7(12),8,10,15,17-hexaen-4-yl)-<I>N</I>,<I>N</I>-dimethylmethanamine

> <PUBCHEM_IUPAC_NAME>
1-(9,17-difluoro-3-oxa-2-azatetracyclo[12.4.0.02,6.07,12]octadeca-1(14),7(12),8,10,15,17-hexaen-4-yl)-N,N-dimethylmethanamine

> <PUBCHEM_IUPAC_SYSTEMATIC_NAME>
1-[9,17-bis(fluoranyl)-3-oxa-2-azatetracyclo[12.4.0.02,6.07,12]octadeca-1(14),7(12),8,10,15,17-hexaen-4-yl]-N,N-dimethyl-methanamine

> <PUBCHEM_IUPAC_TRADITIONAL_NAME>
(9,17-difluoro-3-oxa-2-azatetracyclo[12.4.0.02,6.07,12]octadeca-1(14),7(12),8,10,15,17-hexaen-4-yl)methyl-dimethyl-amine

> <PUBCHEM_IUPAC_INCHI>
InChI=1S/C19H20F2N2O/c1-22(2)11-16-10-19-17-8-14(20)5-3-12(17)7-13-4-6-15(21)9-18(13)23(19)24-16/h3-6,8-9,16,19H,7,10-11H2,1-2H3

> <PUBCHEM_IUPAC_INCHIKEY>
GEDGEGJCGBTAON-UHFFFAOYSA-N

> <PUBCHEM_XLOGP3_AA>
4.1

> <PUBCHEM_EXACT_MASS>
330.15436959

> <PUBCHEM_MOLECULAR_FORMULA>
C19H20F2N2O

> <PUBCHEM_MOLECULAR_WEIGHT>
330.4

> <PUBCHEM_OPENEYE_CAN_SMILES>
CN(C)CC1CC2C3=C(CC4=C(N2O1)C=C(C=C4)F)C=CC(=C3)F

> <PUBCHEM_OPENEYE_ISO_SMILES>
CN(C)CC1CC2C3=C(CC4=C(N2O1)C=C(C=C4)F)C=CC(=C3)F

> <PUBCHEM_CACTVS_TPSA>
15.7

> <PUBCHEM_MONOISOTOPIC_WEIGHT>
330.15436959

> <PUBCHEM_TOTAL_CHARGE>
0

> <PUBCHEM_HEAVY_ATOM_COUNT>
24

> <PUBCHEM_ATOM_DEF_STEREO_COUNT>
0

> <PUBCHEM_ATOM_UDEF_STEREO_COUNT>
2

> <PUBCHEM_BOND_DEF_STEREO_COUNT>
0

> <PUBCHEM_BOND_UDEF_STEREO_COUNT>
0

> <PUBCHEM_ISOTOPIC_ATOM_COUNT>
0

> <PUBCHEM_COMPONENT_COUNT>
1

> <PUBCHEM_CACTVS_TAUTO_COUNT>
-1

> <PUBCHEM_COORDINATE_TYPE>
1
5
255

> <PUBCHEM_BONDANNOTATIONS>
11  14  8
11  16  8
12  17  8
14  18  8
15  19  8
16  21  8
17  20  8
18  24  8
19  20  8
21  24  8
6  7  3
8  10  3
9  12  8
9  15  8

$$$$
