71724971
  -OEChem-09292322012D

 47 50  0     0  0  0  0  0  0999 V2000
    9.7619    2.4291    0.0000 O   0  0  0  0  0  0  0  0  0  0  0  0
    6.7619   -2.7671    0.0000 O   0  0  0  0  0  0  0  0  0  0  0  0
    7.7619    0.6970    0.0000 N   0  0  0  0  0  0  0  0  0  0  0  0
    6.7619   -1.0350    0.0000 N   0  0  0  0  0  0  0  0  0  0  0  0
    4.6783   -2.7058    0.0000 N   0  0  0  0  0  0  0  0  0  0  0  0
    2.8660   -2.9010    0.0000 N   0  0  0  0  0  0  0  0  0  0  0  0
   12.2619    3.2951    0.0000 N   0  0  0  0  0  0  0  0  0  0  0  0
    6.7619    0.6970    0.0000 C   0  0  0  0  0  0  0  0  0  0  0  0
    8.2619   -0.1690    0.0000 C   0  0  0  0  0  0  0  0  0  0  0  0
    6.2619   -0.1690    0.0000 C   0  0  0  0  0  0  0  0  0  0  0  0
    7.7619   -1.0350    0.0000 C   0  0  0  0  0  0  0  0  0  0  0  0
    8.2619    1.5630    0.0000 C   0  0  0  0  0  0  0  0  0  0  0  0
    6.2619   -1.9010    0.0000 C   0  0  0  0  0  0  0  0  0  0  0  0
    9.2619    1.5630    0.0000 C   0  0  0  0  0  0  0  0  0  0  0  0
    5.2619   -1.9010    0.0000 C   0  0  0  0  0  0  0  0  0  0  0  0
    4.6783   -1.0963    0.0000 C   0  0  0  0  0  0  0  0  0  0  0  0
    3.7320   -1.4010    0.0000 C   0  0  0  0  0  0  0  0  0  0  0  0
    3.7320   -2.4010    0.0000 C   0  0  0  0  0  0  0  0  0  0  0  0
    2.8660   -0.9010    0.0000 C   0  0  0  0  0  0  0  0  0  0  0  0
   10.7619    2.4291    0.0000 C   0  0  0  0  0  0  0  0  0  0  0  0
    2.0000   -1.4010    0.0000 C   0  0  0  0  0  0  0  0  0  0  0  0
    2.0000   -2.4010    0.0000 C   0  0  0  0  0  0  0  0  0  0  0  0
   11.2619    1.5630    0.0000 C   0  0  0  0  0  0  0  0  0  0  0  0
   11.2619    3.2951    0.0000 C   0  0  0  0  0  0  0  0  0  0  0  0
   12.2619    1.5630    0.0000 C   0  0  0  0  0  0  0  0  0  0  0  0
   12.7619    2.4291    0.0000 C   0  0  0  0  0  0  0  0  0  0  0  0
    6.8695    1.3076    0.0000 H   0  0  0  0  0  0  0  0  0  0  0  0
    6.1793    0.9091    0.0000 H   0  0  0  0  0  0  0  0  0  0  0  0
    8.7368   -0.5675    0.0000 H   0  0  0  0  0  0  0  0  0  0  0  0
    8.7368    0.2295    0.0000 H   0  0  0  0  0  0  0  0  0  0  0  0
    5.7869    0.2295    0.0000 H   0  0  0  0  0  0  0  0  0  0  0  0
    5.7869   -0.5675    0.0000 H   0  0  0  0  0  0  0  0  0  0  0  0
    7.6542   -1.6456    0.0000 H   0  0  0  0  0  0  0  0  0  0  0  0
    8.3445   -1.2471    0.0000 H   0  0  0  0  0  0  0  0  0  0  0  0
    8.3695    2.1736    0.0000 H   0  0  0  0  0  0  0  0  0  0  0  0
    7.6793    1.7751    0.0000 H   0  0  0  0  0  0  0  0  0  0  0  0
    9.1542    0.9525    0.0000 H   0  0  0  0  0  0  0  0  0  0  0  0
    9.8445    1.3510    0.0000 H   0  0  0  0  0  0  0  0  0  0  0  0
    4.8709   -0.5070    0.0000 H   0  0  0  0  0  0  0  0  0  0  0  0
    4.8709   -3.2951    0.0000 H   0  0  0  0  0  0  0  0  0  0  0  0
    2.8660   -0.2810    0.0000 H   0  0  0  0  0  0  0  0  0  0  0  0
    1.4631   -1.0910    0.0000 H   0  0  0  0  0  0  0  0  0  0  0  0
    1.4631   -2.7110    0.0000 H   0  0  0  0  0  0  0  0  0  0  0  0
   10.9519    1.0261    0.0000 H   0  0  0  0  0  0  0  0  0  0  0  0
   10.9519    3.8320    0.0000 H   0  0  0  0  0  0  0  0  0  0  0  0
   12.5719    1.0261    0.0000 H   0  0  0  0  0  0  0  0  0  0  0  0
   13.3819    2.4291    0.0000 H   0  0  0  0  0  0  0  0  0  0  0  0
  1 14  1  0  0  0  0
  1 20  1  0  0  0  0
  2 13  2  0  0  0  0
  3  8  1  0  0  0  0
  3  9  1  0  0  0  0
  3 12  1  0  0  0  0
  4 10  1  0  0  0  0
  4 11  1  0  0  0  0
  4 13  1  0  0  0  0
  5 15  1  0  0  0  0
  5 18  1  0  0  0  0
  5 40  1  0  0  0  0
  6 18  1  0  0  0  0
  6 22  2  0  0  0  0
  7 24  1  0  0  0  0
  7 26  2  0  0  0  0
  8 10  1  0  0  0  0
  8 27  1  0  0  0  0
  8 28  1  0  0  0  0
  9 11  1  0  0  0  0
  9 29  1  0  0  0  0
  9 30  1  0  0  0  0
 10 31  1  0  0  0  0
 10 32  1  0  0  0  0
 11 33  1  0  0  0  0
 11 34  1  0  0  0  0
 12 14  1  0  0  0  0
 12 35  1  0  0  0  0
 12 36  1  0  0  0  0
 13 15  1  0  0  0  0
 14 37  1  0  0  0  0
 14 38  1  0  0  0  0
 15 16  2  0  0  0  0
 16 17  1  0  0  0  0
 16 39  1  0  0  0  0
 17 18  2  0  0  0  0
 17 19  1  0  0  0  0
 19 21  2  0  0  0  0
 19 41  1  0  0  0  0
 20 23  1  0  0  0  0
 20 24  2  0  0  0  0
 21 22  1  0  0  0  0
 21 42  1  0  0  0  0
 22 43  1  0  0  0  0
 23 25  2  0  0  0  0
 23 44  1  0  0  0  0
 24 45  1  0  0  0  0
 25 26  1  0  0  0  0
 25 46  1  0  0  0  0
 26 47  1  0  0  0  0
M  END
> <PUBCHEM_COMPOUND_CID>
71724971

> <PUBCHEM_COMPOUND_CANONICALIZED>
1

> <PUBCHEM_CACTVS_COMPLEXITY>
469

> <PUBCHEM_CACTVS_HBOND_ACCEPTOR>
5

> <PUBCHEM_CACTVS_HBOND_DONOR>
1

> <PUBCHEM_CACTVS_ROTATABLE_BOND>
5

> <PUBCHEM_CACTVS_SUBSKEYS>
AAADceB7sAAAAAAAAAAAAAAAAAAAAWAAAAAsWLAAAAAAAFgB/gAAHgAQAAAADAzhnwY9tt/JlACoAzd3dASCiCm3YqAJ2SG/bNiObvLEvbuXOSjs1hPY6ac4iQCOAAAAAAAAAAAAAAAAAAAAAAAAAAAAAA==

> <PUBCHEM_IUPAC_OPENEYE_NAME>
[4-[2-(3-pyridyloxy)ethyl]piperazin-1-yl]-(1H-pyrrolo[2,3-b]pyridin-2-yl)methanone

> <PUBCHEM_IUPAC_CAS_NAME>
[4-[2-(3-pyridinyloxy)ethyl]-1-piperazinyl]-(1H-pyrrolo[2,3-b]pyridin-2-yl)methanone

> <PUBCHEM_IUPAC_NAME_MARKUP>
[4-(2-pyridin-3-yloxyethyl)piperazin-1-yl]-(1<I>H</I>-pyrrolo[2,3-b]pyridin-2-yl)methanone

> <PUBCHEM_IUPAC_NAME>
[4-(2-pyridin-3-yloxyethyl)piperazin-1-yl]-(1H-pyrrolo[2,3-b]pyridin-2-yl)methanone

> <PUBCHEM_IUPAC_SYSTEMATIC_NAME>
[4-(2-pyridin-3-yloxyethyl)piperazin-1-yl]-(1H-pyrrolo[2,3-b]pyridin-2-yl)methanone

> <PUBCHEM_IUPAC_TRADITIONAL_NAME>
[4-[2-(3-pyridyloxy)ethyl]piperazino]-(1H-pyrrolo[2,3-b]pyridin-2-yl)methanone

> <PUBCHEM_IUPAC_INCHI>
InChI=1S/C19H21N5O2/c25-19(17-13-15-3-1-6-21-18(15)22-17)24-9-7-23(8-10-24)11-12-26-16-4-2-5-20-14-16/h1-6,13-14H,7-12H2,(H,21,22)

> <PUBCHEM_IUPAC_INCHIKEY>
LXZRZJUUHTZVBE-UHFFFAOYSA-N

> <PUBCHEM_XLOGP3_AA>
1.5

> <PUBCHEM_EXACT_MASS>
351.16952493

> <PUBCHEM_MOLECULAR_FORMULA>
C19H21N5O2

> <PUBCHEM_MOLECULAR_WEIGHT>
351.4

> <PUBCHEM_OPENEYE_CAN_SMILES>
C1CN(CCN1CCOC2=CN=CC=C2)C(=O)C3=CC4=C(N3)N=CC=C4

> <PUBCHEM_OPENEYE_ISO_SMILES>
C1CN(CCN1CCOC2=CN=CC=C2)C(=O)C3=CC4=C(N3)N=CC=C4

> <PUBCHEM_CACTVS_TPSA>
74.4

> <PUBCHEM_MONOISOTOPIC_WEIGHT>
351.16952493

> <PUBCHEM_TOTAL_CHARGE>
0

> <PUBCHEM_HEAVY_ATOM_COUNT>
26

> <PUBCHEM_ATOM_DEF_STEREO_COUNT>
0

> <PUBCHEM_ATOM_UDEF_STEREO_COUNT>
0

> <PUBCHEM_BOND_DEF_STEREO_COUNT>
0

> <PUBCHEM_BOND_UDEF_STEREO_COUNT>
0

> <PUBCHEM_ISOTOPIC_ATOM_COUNT>
0

> <PUBCHEM_COMPONENT_COUNT>
1

> <PUBCHEM_CACTVS_TAUTO_COUNT>
-1

> <PUBCHEM_COORDINATE_TYPE>
1
5
255

> <PUBCHEM_BONDANNOTATIONS>
15  16  8
16  17  8
17  18  8
17  19  8
19  21  8
20  23  8
20  24  8
21  22  8
23  25  8
25  26  8
5  15  8
5  18  8
6  18  8
6  22  8
7  24  8
7  26  8

$$$$
