155550192
  -OEChem-09292322412D

 64 67  0     0  0  0  0  0  0999 V2000
    8.9282    1.0761    0.0000 O   0  0  0  0  0  0  0  0  0  0  0  0
    9.7942   -0.4239    0.0000 O   0  0  0  0  0  0  0  0  0  0  0  0
    9.8512    4.6639    0.0000 O   0  0  0  0  0  0  0  0  0  0  0  0
   12.6282    3.3767    0.0000 O   0  0  0  0  0  0  0  0  0  0  0  0
    6.3301   -3.4239    0.0000 N   0  0  0  0  0  0  0  0  0  0  0  0
    4.5981   -4.4239    0.0000 N   0  0  0  0  0  0  0  0  0  0  0  0
    8.0622   -0.4239    0.0000 N   0  0  0  0  0  0  0  0  0  0  0  0
   13.1635    5.0240    0.0000 N   0  0  0  0  0  0  0  0  0  0  0  0
    5.4641   -2.9239    0.0000 C   0  0  0  0  0  0  0  0  0  0  0  0
    6.3301   -4.4239    0.0000 C   0  0  0  0  0  0  0  0  0  0  0  0
    4.5981   -3.4239    0.0000 C   0  0  0  0  0  0  0  0  0  0  0  0
    5.4641   -4.9239    0.0000 C   0  0  0  0  0  0  0  0  0  0  0  0
    7.1962   -2.9239    0.0000 C   0  0  0  0  0  0  0  0  0  0  0  0
    7.1962   -1.9239    0.0000 C   0  0  0  0  0  0  0  0  0  0  0  0
    3.7320   -4.9239    0.0000 C   0  0  0  0  0  0  0  0  0  0  0  0
    8.0622   -1.4239    0.0000 C   0  0  0  0  0  0  0  0  0  0  0  0
    2.8660   -4.4239    0.0000 C   0  0  0  0  0  0  0  0  0  0  0  0
    3.7320   -5.9239    0.0000 C   0  0  0  0  0  0  0  0  0  0  0  0
    2.0000   -4.9239    0.0000 C   0  0  0  0  0  0  0  0  0  0  0  0
    2.8660   -6.4239    0.0000 C   0  0  0  0  0  0  0  0  0  0  0  0
    2.0000   -5.9239    0.0000 C   0  0  0  0  0  0  0  0  0  0  0  0
    8.9282    0.0761    0.0000 C   0  0  0  0  0  0  0  0  0  0  0  0
    9.7942    1.5761    0.0000 C   0  0  0  0  0  0  0  0  0  0  0  0
   10.6603    3.0761    0.0000 C   0  0  0  0  0  0  0  0  0  0  0  0
   10.6603    4.0761    0.0000 C   0  0  0  0  0  0  0  0  0  0  0  0
    9.7942    2.5761    0.0000 C   0  0  0  0  0  0  0  0  0  0  0  0
   11.4693    4.6639    0.0000 C   0  0  0  0  0  0  0  0  0  0  0  0
   10.6603    1.0761    0.0000 C   0  0  0  0  0  0  0  0  0  0  0  0
   11.5263    2.5761    0.0000 C   0  0  0  0  0  0  0  0  0  0  0  0
   10.1603    5.6149    0.0000 C   0  0  0  0  0  0  0  0  0  0  0  0
   11.1603    5.6149    0.0000 C   0  0  0  0  0  0  0  0  0  0  0  0
   11.5263    1.5761    0.0000 C   0  0  0  0  0  0  0  0  0  0  0  0
   12.4203    4.3548    0.0000 C   0  0  0  0  0  0  0  0  0  0  0  0
    9.5725    6.4239    0.0000 C   0  0  0  0  0  0  0  0  0  0  0  0
    5.8626   -2.4490    0.0000 H   0  0  0  0  0  0  0  0  0  0  0  0
    5.0656   -2.4490    0.0000 H   0  0  0  0  0  0  0  0  0  0  0  0
    6.5422   -5.0065    0.0000 H   0  0  0  0  0  0  0  0  0  0  0  0
    6.9407   -4.3163    0.0000 H   0  0  0  0  0  0  0  0  0  0  0  0
    4.3860   -2.8413    0.0000 H   0  0  0  0  0  0  0  0  0  0  0  0
    3.9875   -3.5316    0.0000 H   0  0  0  0  0  0  0  0  0  0  0  0
    5.0656   -5.3989    0.0000 H   0  0  0  0  0  0  0  0  0  0  0  0
    5.8626   -5.3989    0.0000 H   0  0  0  0  0  0  0  0  0  0  0  0
    7.4082   -3.5065    0.0000 H   0  0  0  0  0  0  0  0  0  0  0  0
    7.8067   -2.8163    0.0000 H   0  0  0  0  0  0  0  0  0  0  0  0
    6.9841   -1.3413    0.0000 H   0  0  0  0  0  0  0  0  0  0  0  0
    6.5856   -2.0316    0.0000 H   0  0  0  0  0  0  0  0  0  0  0  0
    8.2742   -2.0065    0.0000 H   0  0  0  0  0  0  0  0  0  0  0  0
    8.6728   -1.3163    0.0000 H   0  0  0  0  0  0  0  0  0  0  0  0
    2.8660   -3.8039    0.0000 H   0  0  0  0  0  0  0  0  0  0  0  0
    4.2690   -6.2339    0.0000 H   0  0  0  0  0  0  0  0  0  0  0  0
    7.5252   -0.1139    0.0000 H   0  0  0  0  0  0  0  0  0  0  0  0
    1.4631   -4.6139    0.0000 H   0  0  0  0  0  0  0  0  0  0  0  0
    2.8660   -7.0439    0.0000 H   0  0  0  0  0  0  0  0  0  0  0  0
    1.4631   -6.2339    0.0000 H   0  0  0  0  0  0  0  0  0  0  0  0
    9.2573    2.8861    0.0000 H   0  0  0  0  0  0  0  0  0  0  0  0
   10.6603    0.4561    0.0000 H   0  0  0  0  0  0  0  0  0  0  0  0
   12.0632    2.8861    0.0000 H   0  0  0  0  0  0  0  0  0  0  0  0
   11.5247    6.1165    0.0000 H   0  0  0  0  0  0  0  0  0  0  0  0
   12.0632    1.2661    0.0000 H   0  0  0  0  0  0  0  0  0  0  0  0
   10.0741    6.7884    0.0000 H   0  0  0  0  0  0  0  0  0  0  0  0
    9.2080    6.9255    0.0000 H   0  0  0  0  0  0  0  0  0  0  0  0
    9.0709    6.0595    0.0000 H   0  0  0  0  0  0  0  0  0  0  0  0
   13.7531    4.8324    0.0000 H   0  0  0  0  0  0  0  0  0  0  0  0
   13.0346    5.6304    0.0000 H   0  0  0  0  0  0  0  0  0  0  0  0
  1 22  1  0  0  0  0
  1 23  1  0  0  0  0
  2 22  2  0  0  0  0
  3 25  1  0  0  0  0
  3 30  1  0  0  0  0
  4 33  2  0  0  0  0
  5  9  1  0  0  0  0
  5 10  1  0  0  0  0
  5 13  1  0  0  0  0
  6 11  1  0  0  0  0
  6 12  1  0  0  0  0
  6 15  1  0  0  0  0
  7 16  1  0  0  0  0
  7 22  1  0  0  0  0
  7 51  1  0  0  0  0
  8 33  1  0  0  0  0
  8 63  1  0  0  0  0
  8 64  1  0  0  0  0
  9 11  1  0  0  0  0
  9 35  1  0  0  0  0
  9 36  1  0  0  0  0
 10 12  1  0  0  0  0
 10 37  1  0  0  0  0
 10 38  1  0  0  0  0
 11 39  1  0  0  0  0
 11 40  1  0  0  0  0
 12 41  1  0  0  0  0
 12 42  1  0  0  0  0
 13 14  1  0  0  0  0
 13 43  1  0  0  0  0
 13 44  1  0  0  0  0
 14 16  1  0  0  0  0
 14 45  1  0  0  0  0
 14 46  1  0  0  0  0
 15 17  2  0  0  0  0
 15 18  1  0  0  0  0
 16 47  1  0  0  0  0
 16 48  1  0  0  0  0
 17 19  1  0  0  0  0
 17 49  1  0  0  0  0
 18 20  2  0  0  0  0
 18 50  1  0  0  0  0
 19 21  2  0  0  0  0
 19 52  1  0  0  0  0
 20 21  1  0  0  0  0
 20 53  1  0  0  0  0
 21 54  1  0  0  0  0
 23 26  1  0  0  0  0
 23 28  2  0  0  0  0
 24 25  1  0  0  0  0
 24 26  2  0  0  0  0
 24 29  1  0  0  0  0
 25 27  2  0  0  0  0
 26 55  1  0  0  0  0
 27 31  1  0  0  0  0
 27 33  1  0  0  0  0
 28 32  1  0  0  0  0
 28 56  1  0  0  0  0
 29 32  2  0  0  0  0
 29 57  1  0  0  0  0
 30 31  2  0  0  0  0
 30 34  1  0  0  0  0
 31 58  1  0  0  0  0
 32 59  1  0  0  0  0
 34 60  1  0  0  0  0
 34 61  1  0  0  0  0
 34 62  1  0  0  0  0
M  END
> <PUBCHEM_COMPOUND_CID>
155550192

> <PUBCHEM_COMPOUND_CANONICALIZED>
1

> <PUBCHEM_CACTVS_COMPLEXITY>
663

> <PUBCHEM_CACTVS_HBOND_ACCEPTOR>
6

> <PUBCHEM_CACTVS_HBOND_DONOR>
2

> <PUBCHEM_CACTVS_ROTATABLE_BOND>
9

> <PUBCHEM_CACTVS_SUBSKEYS>
AAADceB7uAAAAAAAAAAAAAAAAAAAASAAAAA8YIAAAAAAAAAB0AAAHgAQAAAADAzBmAQyzoPABECIAqVSWACCCAAlIgAIiIEObMkMZj7M9ZueO2jm9hHI6Yf/yPCOAAABAAAAAAAAAAIAAAAAAAAAAAAAAA==

> <PUBCHEM_IUPAC_OPENEYE_NAME>
[3-(3-carbamoyl-5-methyl-2-furyl)phenyl] N-[3-(4-phenylpiperazin-1-yl)propyl]carbamate

> <PUBCHEM_IUPAC_CAS_NAME>
N-[3-(4-phenyl-1-piperazinyl)propyl]carbamic acid [3-(3-carbamoyl-5-methyl-2-furanyl)phenyl] ester

> <PUBCHEM_IUPAC_NAME_MARKUP>
[3-(3-carbamoyl-5-methylfuran-2-yl)phenyl] <I>N</I>-[3-(4-phenylpiperazin-1-yl)propyl]carbamate

> <PUBCHEM_IUPAC_NAME>
[3-(3-carbamoyl-5-methylfuran-2-yl)phenyl] N-[3-(4-phenylpiperazin-1-yl)propyl]carbamate

> <PUBCHEM_IUPAC_SYSTEMATIC_NAME>
[3-(3-aminocarbonyl-5-methyl-furan-2-yl)phenyl] N-[3-(4-phenylpiperazin-1-yl)propyl]carbamate

> <PUBCHEM_IUPAC_TRADITIONAL_NAME>
N-[3-(4-phenylpiperazino)propyl]carbamic acid [3-(3-carbamoyl-5-methyl-2-furyl)phenyl] ester

> <PUBCHEM_IUPAC_INCHI>
InChI=1S/C26H30N4O4/c1-19-17-23(25(27)31)24(33-19)20-7-5-10-22(18-20)34-26(32)28-11-6-12-29-13-15-30(16-14-29)21-8-3-2-4-9-21/h2-5,7-10,17-18H,6,11-16H2,1H3,(H2,27,31)(H,28,32)

> <PUBCHEM_IUPAC_INCHIKEY>
RZBBQNAIKHGIFW-UHFFFAOYSA-N

> <PUBCHEM_XLOGP3_AA>
3.5

> <PUBCHEM_EXACT_MASS>
462.22670545

> <PUBCHEM_MOLECULAR_FORMULA>
C26H30N4O4

> <PUBCHEM_MOLECULAR_WEIGHT>
462.5

> <PUBCHEM_OPENEYE_CAN_SMILES>
CC1=CC(=C(O1)C2=CC(=CC=C2)OC(=O)NCCCN3CCN(CC3)C4=CC=CC=C4)C(=O)N

> <PUBCHEM_OPENEYE_ISO_SMILES>
CC1=CC(=C(O1)C2=CC(=CC=C2)OC(=O)NCCCN3CCN(CC3)C4=CC=CC=C4)C(=O)N

> <PUBCHEM_CACTVS_TPSA>
101

> <PUBCHEM_MONOISOTOPIC_WEIGHT>
462.22670545

> <PUBCHEM_TOTAL_CHARGE>
0

> <PUBCHEM_HEAVY_ATOM_COUNT>
34

> <PUBCHEM_ATOM_DEF_STEREO_COUNT>
0

> <PUBCHEM_ATOM_UDEF_STEREO_COUNT>
0

> <PUBCHEM_BOND_DEF_STEREO_COUNT>
0

> <PUBCHEM_BOND_UDEF_STEREO_COUNT>
0

> <PUBCHEM_ISOTOPIC_ATOM_COUNT>
0

> <PUBCHEM_COMPONENT_COUNT>
1

> <PUBCHEM_CACTVS_TAUTO_COUNT>
-1

> <PUBCHEM_COORDINATE_TYPE>
1
5
255

> <PUBCHEM_BONDANNOTATIONS>
15  17  8
15  18  8
17  19  8
18  20  8
19  21  8
20  21  8
23  26  8
23  28  8
24  26  8
24  29  8
25  27  8
27  31  8
28  32  8
29  32  8
3  25  8
3  30  8
30  31  8

$$$$
