122178864
  -OEChem-09292322082D

 56 59  0     1  0  0  0  0  0999 V2000
   13.3224    0.3339    0.0000 O   0  0  0  0  0  0  0  0  0  0  0  0
    7.2602    0.8339    0.0000 N   0  0  3  0  0  0  0  0  0  0  0  0
   12.4564   -1.1661    0.0000 N   0  0  0  0  0  0  0  0  0  0  0  0
   15.1020   -0.7594    0.0000 N   0  0  0  0  0  0  0  0  0  0  0  0
    2.0000   -0.1936    0.0000 N   0  0  0  0  0  0  0  0  0  0  0  0
    9.8583    0.3339    0.0000 C   0  0  0  0  0  0  0  0  0  0  0  0
   10.7243    0.8339    0.0000 C   0  0  0  0  0  0  0  0  0  0  0  0
    9.8583   -0.6661    0.0000 C   0  0  0  0  0  0  0  0  0  0  0  0
   11.5904   -0.6661    0.0000 C   0  0  0  0  0  0  0  0  0  0  0  0
   11.5904    0.3339    0.0000 C   0  0  0  0  0  0  0  0  0  0  0  0
   10.7243   -1.1661    0.0000 C   0  0  0  0  0  0  0  0  0  0  0  0
    8.9923    0.8339    0.0000 C   0  0  0  0  0  0  0  0  0  0  0  0
    8.1263    0.3339    0.0000 C   0  0  0  0  0  0  0  0  0  0  0  0
    7.2602    1.8339    0.0000 C   0  0  0  0  0  0  0  0  0  0  0  0
    6.3942    0.3339    0.0000 C   0  0  0  0  0  0  0  0  0  0  0  0
    6.3942    2.3339    0.0000 C   0  0  0  0  0  0  0  0  0  0  0  0
    5.5282    0.8339    0.0000 C   0  0  0  0  0  0  0  0  0  0  0  0
    5.5282    1.8339    0.0000 C   0  0  0  0  0  0  0  0  0  0  0  0
   13.3224   -0.6661    0.0000 C   0  0  0  0  0  0  0  0  0  0  0  0
    4.6342    0.2992    0.0000 C   0  0  0  0  0  0  0  0  0  0  0  0
    4.6342    2.3686    0.0000 C   0  0  0  0  0  0  0  0  0  0  0  0
   14.1884   -1.1661    0.0000 C   0  0  0  0  0  0  0  0  0  0  0  0
    3.7282    0.8131    0.0000 C   0  0  0  0  0  0  0  0  0  0  0  0
    3.7282    1.8547    0.0000 C   0  0  0  0  0  0  0  0  0  0  0  0
   14.2930   -2.1606    0.0000 C   0  0  0  0  0  0  0  0  0  0  0  0
   15.7711   -1.5025    0.0000 C   0  0  0  0  0  0  0  0  0  0  0  0
   15.2711   -2.3686    0.0000 C   0  0  0  0  0  0  0  0  0  0  0  0
    2.8641    0.3097    0.0000 C   0  0  0  0  0  0  0  0  0  0  0  0
    9.3214    0.0239    0.0000 H   0  0  0  0  0  0  0  0  0  0  0  0
   11.1229    1.3088    0.0000 H   0  0  0  0  0  0  0  0  0  0  0  0
   10.3258    1.3088    0.0000 H   0  0  0  0  0  0  0  0  0  0  0  0
    9.2477   -0.5585    0.0000 H   0  0  0  0  0  0  0  0  0  0  0  0
    9.6463   -1.2487    0.0000 H   0  0  0  0  0  0  0  0  0  0  0  0
   12.1273   -0.3561    0.0000 H   0  0  0  0  0  0  0  0  0  0  0  0
   12.2010    0.2262    0.0000 H   0  0  0  0  0  0  0  0  0  0  0  0
   11.8024    0.9165    0.0000 H   0  0  0  0  0  0  0  0  0  0  0  0
   10.3258   -1.6411    0.0000 H   0  0  0  0  0  0  0  0  0  0  0  0
   11.1229   -1.6411    0.0000 H   0  0  0  0  0  0  0  0  0  0  0  0
    9.3908    1.3088    0.0000 H   0  0  0  0  0  0  0  0  0  0  0  0
    8.5938    1.3088    0.0000 H   0  0  0  0  0  0  0  0  0  0  0  0
    7.7277   -0.1411    0.0000 H   0  0  0  0  0  0  0  0  0  0  0  0
    8.5248   -0.1411    0.0000 H   0  0  0  0  0  0  0  0  0  0  0  0
   12.4564   -1.7861    0.0000 H   0  0  0  0  0  0  0  0  0  0  0  0
    7.8708    1.7262    0.0000 H   0  0  0  0  0  0  0  0  0  0  0  0
    7.4723    2.4165    0.0000 H   0  0  0  0  0  0  0  0  0  0  0  0
    5.9957   -0.1411    0.0000 H   0  0  0  0  0  0  0  0  0  0  0  0
    6.7928   -0.1411    0.0000 H   0  0  0  0  0  0  0  0  0  0  0  0
    6.7928    2.8088    0.0000 H   0  0  0  0  0  0  0  0  0  0  0  0
    5.9957    2.8088    0.0000 H   0  0  0  0  0  0  0  0  0  0  0  0
    4.6414   -0.3207    0.0000 H   0  0  0  0  0  0  0  0  0  0  0  0
    4.6414    2.9885    0.0000 H   0  0  0  0  0  0  0  0  0  0  0  0
    3.1924    2.1668    0.0000 H   0  0  0  0  0  0  0  0  0  0  0  0
   15.2309   -0.1529    0.0000 H   0  0  0  0  0  0  0  0  0  0  0  0
   13.8322   -2.5755    0.0000 H   0  0  0  0  0  0  0  0  0  0  0  0
   16.3877   -1.4377    0.0000 H   0  0  0  0  0  0  0  0  0  0  0  0
   15.5233   -2.9350    0.0000 H   0  0  0  0  0  0  0  0  0  0  0  0
  1 19  2  0  0  0  0
  2 13  1  0  0  0  0
  2 14  1  0  0  0  0
  2 15  1  0  0  0  0
  3  9  1  0  0  0  0
  3 19  1  0  0  0  0
  3 43  1  0  0  0  0
  4 22  1  0  0  0  0
  4 26  1  0  0  0  0
  4 53  1  0  0  0  0
  5 28  3  0  0  0  0
  6  7  1  0  0  0  0
  6  8  1  0  0  0  0
  6 12  1  0  0  0  0
  6 29  1  0  0  0  0
  7 10  1  0  0  0  0
  7 30  1  0  0  0  0
  7 31  1  0  0  0  0
  8 11  1  0  0  0  0
  8 32  1  0  0  0  0
  8 33  1  0  0  0  0
  9 10  1  0  0  0  0
  9 11  1  0  0  0  0
  9 34  1  0  0  0  0
 10 35  1  0  0  0  0
 10 36  1  0  0  0  0
 11 37  1  0  0  0  0
 11 38  1  0  0  0  0
 12 13  1  0  0  0  0
 12 39  1  0  0  0  0
 12 40  1  0  0  0  0
 13 41  1  0  0  0  0
 13 42  1  0  0  0  0
 14 16  1  0  0  0  0
 14 44  1  0  0  0  0
 14 45  1  0  0  0  0
 15 17  1  0  0  0  0
 15 46  1  0  0  0  0
 15 47  1  0  0  0  0
 16 18  1  0  0  0  0
 16 48  1  0  0  0  0
 16 49  1  0  0  0  0
 17 18  2  0  0  0  0
 17 20  1  0  0  0  0
 18 21  1  0  0  0  0
 19 22  1  0  0  0  0
 20 23  2  0  0  0  0
 20 50  1  0  0  0  0
 21 24  2  0  0  0  0
 21 51  1  0  0  0  0
 22 25  2  0  0  0  0
 23 24  1  0  0  0  0
 23 28  1  0  0  0  0
 24 52  1  0  0  0  0
 25 27  1  0  0  0  0
 25 54  1  0  0  0  0
 26 27  2  0  0  0  0
 26 55  1  0  0  0  0
 27 56  1  0  0  0  0
M  END
> <PUBCHEM_COMPOUND_CID>
122178864

> <PUBCHEM_COMPOUND_CANONICALIZED>
1

> <PUBCHEM_CACTVS_COMPLEXITY>
576

> <PUBCHEM_CACTVS_HBOND_ACCEPTOR>
3

> <PUBCHEM_CACTVS_HBOND_DONOR>
2

> <PUBCHEM_CACTVS_ROTATABLE_BOND>
5

> <PUBCHEM_CACTVS_SUBSKEYS>
AAADceB7oAAAAAAAAAAAAAAAAAAAAWAAAAA8YIAAAAAAAACxwAAAHgAQAAAADSjBngQ8gJPJkAC4BzV3VACigCA3AiAI2aG4ZNgI4PLAlbGUIQhglgDIyY8YgcAOwAACAAAQAACQAAQAACAAAAAAAAAAAA==

> <PUBCHEM_IUPAC_OPENEYE_NAME>
N-[4-[2-(7-cyano-3,4-dihydro-1H-isoquinolin-2-yl)ethyl]cyclohexyl]-1H-pyrrole-2-carboxamide

> <PUBCHEM_IUPAC_CAS_NAME>
N-[4-[2-(7-cyano-3,4-dihydro-1H-isoquinolin-2-yl)ethyl]cyclohexyl]-1H-pyrrole-2-carboxamide

> <PUBCHEM_IUPAC_NAME_MARKUP>
<I>N</I>-[4-[2-(7-cyano-3,4-dihydro-1<I>H</I>-isoquinolin-2-yl)ethyl]cyclohexyl]-1<I>H</I>-pyrrole-2-carboxamide

> <PUBCHEM_IUPAC_NAME>
N-[4-[2-(7-cyano-3,4-dihydro-1H-isoquinolin-2-yl)ethyl]cyclohexyl]-1H-pyrrole-2-carboxamide

> <PUBCHEM_IUPAC_SYSTEMATIC_NAME>
N-[4-[2-(7-cyano-3,4-dihydro-1H-isoquinolin-2-yl)ethyl]cyclohexyl]-1H-pyrrole-2-carboxamide

> <PUBCHEM_IUPAC_TRADITIONAL_NAME>
N-[4-[2-(7-cyano-3,4-dihydro-1H-isoquinolin-2-yl)ethyl]cyclohexyl]-1H-pyrrole-2-carboxamide

> <PUBCHEM_IUPAC_INCHI>
InChI=1S/C23H28N4O/c24-15-18-3-6-19-10-13-27(16-20(19)14-18)12-9-17-4-7-21(8-5-17)26-23(28)22-2-1-11-25-22/h1-3,6,11,14,17,21,25H,4-5,7-10,12-13,16H2,(H,26,28)

> <PUBCHEM_IUPAC_INCHIKEY>
DYYDGIYTRRBVEC-UHFFFAOYSA-N

> <PUBCHEM_XLOGP3_AA>
3.5

> <PUBCHEM_EXACT_MASS>
376.22631153

> <PUBCHEM_MOLECULAR_FORMULA>
C23H28N4O

> <PUBCHEM_MOLECULAR_WEIGHT>
376.5

> <PUBCHEM_OPENEYE_CAN_SMILES>
C1CC(CCC1CCN2CCC3=C(C2)C=C(C=C3)C#N)NC(=O)C4=CC=CN4

> <PUBCHEM_OPENEYE_ISO_SMILES>
C1CC(CCC1CCN2CCC3=C(C2)C=C(C=C3)C#N)NC(=O)C4=CC=CN4

> <PUBCHEM_CACTVS_TPSA>
71.9

> <PUBCHEM_MONOISOTOPIC_WEIGHT>
376.22631153

> <PUBCHEM_TOTAL_CHARGE>
0

> <PUBCHEM_HEAVY_ATOM_COUNT>
28

> <PUBCHEM_ATOM_DEF_STEREO_COUNT>
0

> <PUBCHEM_ATOM_UDEF_STEREO_COUNT>
0

> <PUBCHEM_BOND_DEF_STEREO_COUNT>
0

> <PUBCHEM_BOND_UDEF_STEREO_COUNT>
0

> <PUBCHEM_ISOTOPIC_ATOM_COUNT>
0

> <PUBCHEM_COMPONENT_COUNT>
1

> <PUBCHEM_CACTVS_TAUTO_COUNT>
-1

> <PUBCHEM_COORDINATE_TYPE>
1
5
255

> <PUBCHEM_BONDANNOTATIONS>
17  18  8
17  20  8
18  21  8
20  23  8
21  24  8
22  25  8
23  24  8
25  27  8
26  27  8
4  22  8
4  26  8

$$$$
