72700634
  -OEChem-09292322382D

 63 67  0     0  0  0  0  0  0999 V2000
    4.6783   -6.1412    0.0000 S   0  0  0  0  0  0  0  0  0  0  0  0
    9.7884    2.7406    0.0000 O   0  0  0  0  0  0  0  0  0  0  0  0
    5.6103   -1.6802    0.0000 N   0  0  0  0  0  0  0  0  0  0  0  0
    8.1421    3.2787    0.0000 N   0  0  0  0  0  0  0  0  0  0  0  0
    4.9889   -3.5812    0.0000 N   0  0  0  0  0  0  0  0  0  0  0  0
    5.2619   -5.3364    0.0000 N   0  0  0  0  0  0  0  0  0  0  0  0
    9.0741    6.1302    0.0000 N   0  0  0  0  0  0  0  0  0  0  0  0
    7.2101    0.4271    0.0000 C   0  0  0  0  0  0  0  0  0  0  0  0
    8.1886    0.6333    0.0000 C   0  0  0  0  0  0  0  0  0  0  0  0
    6.5422    1.1714    0.0000 C   0  0  0  0  0  0  0  0  0  0  0  0
    7.8314    2.3282    0.0000 C   0  0  0  0  0  0  0  0  0  0  0  0
    8.4993    1.5838    0.0000 C   0  0  0  0  0  0  0  0  0  0  0  0
    6.8529    2.1219    0.0000 C   0  0  0  0  0  0  0  0  0  0  0  0
    6.8994   -0.5234    0.0000 C   0  0  0  0  0  0  0  0  0  0  0  0
    5.9209   -0.7296    0.0000 C   0  0  0  0  0  0  0  0  0  0  0  0
    4.6318   -1.8864    0.0000 C   0  0  0  0  0  0  0  0  0  0  0  0
    6.2781   -2.4245    0.0000 C   0  0  0  0  0  0  0  0  0  0  0  0
    4.3211   -2.8369    0.0000 C   0  0  0  0  0  0  0  0  0  0  0  0
    5.9674   -3.3750    0.0000 C   0  0  0  0  0  0  0  0  0  0  0  0
    9.1206    3.4849    0.0000 C   0  0  0  0  0  0  0  0  0  0  0  0
    4.6783   -4.5317    0.0000 C   0  0  0  0  0  0  0  0  0  0  0  0
    3.7320   -4.8364    0.0000 C   0  0  0  0  0  0  0  0  0  0  0  0
    9.4312    4.4354    0.0000 C   0  0  0  0  0  0  0  0  0  0  0  0
    3.7320   -5.8364    0.0000 C   0  0  0  0  0  0  0  0  0  0  0  0
    2.8660   -4.3364    0.0000 C   0  0  0  0  0  0  0  0  0  0  0  0
   10.4097    4.6416    0.0000 C   0  0  0  0  0  0  0  0  0  0  0  0
    8.7634    5.1797    0.0000 C   0  0  0  0  0  0  0  0  0  0  0  0
    2.8660   -6.3364    0.0000 C   0  0  0  0  0  0  0  0  0  0  0  0
    2.0000   -4.8364    0.0000 C   0  0  0  0  0  0  0  0  0  0  0  0
    2.0000   -5.8364    0.0000 C   0  0  0  0  0  0  0  0  0  0  0  0
   10.7204    5.5921    0.0000 C   0  0  0  0  0  0  0  0  0  0  0  0
   10.0526    6.3364    0.0000 C   0  0  0  0  0  0  0  0  0  0  0  0
    7.6242   -0.0344    0.0000 H   0  0  0  0  0  0  0  0  0  0  0  0
    8.2092    0.0137    0.0000 H   0  0  0  0  0  0  0  0  0  0  0  0
    8.8024    0.5460    0.0000 H   0  0  0  0  0  0  0  0  0  0  0  0
    5.9953    1.4634    0.0000 H   0  0  0  0  0  0  0  0  0  0  0  0
    6.1597    0.6835    0.0000 H   0  0  0  0  0  0  0  0  0  0  0  0
    8.4381    2.4560    0.0000 H   0  0  0  0  0  0  0  0  0  0  0  0
    9.0462    1.2918    0.0000 H   0  0  0  0  0  0  0  0  0  0  0  0
    8.8818    2.0718    0.0000 H   0  0  0  0  0  0  0  0  0  0  0  0
    6.8323    2.7416    0.0000 H   0  0  0  0  0  0  0  0  0  0  0  0
    6.2391    2.2093    0.0000 H   0  0  0  0  0  0  0  0  0  0  0  0
    6.9200   -1.1431    0.0000 H   0  0  0  0  0  0  0  0  0  0  0  0
    7.5132   -0.6108    0.0000 H   0  0  0  0  0  0  0  0  0  0  0  0
    5.9004   -0.1100    0.0000 H   0  0  0  0  0  0  0  0  0  0  0  0
    5.3071   -0.6423    0.0000 H   0  0  0  0  0  0  0  0  0  0  0  0
    4.6112   -1.2667    0.0000 H   0  0  0  0  0  0  0  0  0  0  0  0
    4.0179   -1.7990    0.0000 H   0  0  0  0  0  0  0  0  0  0  0  0
    6.8250   -2.7165    0.0000 H   0  0  0  0  0  0  0  0  0  0  0  0
    6.6607   -1.9366    0.0000 H   0  0  0  0  0  0  0  0  0  0  0  0
    7.7280    3.7401    0.0000 H   0  0  0  0  0  0  0  0  0  0  0  0
    3.7742   -2.5449    0.0000 H   0  0  0  0  0  0  0  0  0  0  0  0
    3.9385   -3.3248    0.0000 H   0  0  0  0  0  0  0  0  0  0  0  0
    5.9880   -3.9946    0.0000 H   0  0  0  0  0  0  0  0  0  0  0  0
    6.5812   -3.4623    0.0000 H   0  0  0  0  0  0  0  0  0  0  0  0
    2.8660   -3.7164    0.0000 H   0  0  0  0  0  0  0  0  0  0  0  0
   10.8238    4.1802    0.0000 H   0  0  0  0  0  0  0  0  0  0  0  0
    8.1567    5.0518    0.0000 H   0  0  0  0  0  0  0  0  0  0  0  0
    2.8660   -6.9564    0.0000 H   0  0  0  0  0  0  0  0  0  0  0  0
    1.4631   -4.5264    0.0000 H   0  0  0  0  0  0  0  0  0  0  0  0
    1.4631   -6.1464    0.0000 H   0  0  0  0  0  0  0  0  0  0  0  0
   11.3271    5.7200    0.0000 H   0  0  0  0  0  0  0  0  0  0  0  0
   10.2452    6.9258    0.0000 H   0  0  0  0  0  0  0  0  0  0  0  0
  1  6  1  0  0  0  0
  1 24  1  0  0  0  0
  2 20  2  0  0  0  0
  3 15  1  0  0  0  0
  3 16  1  0  0  0  0
  3 17  1  0  0  0  0
  4 11  1  0  0  0  0
  4 20  1  0  0  0  0
  4 51  1  0  0  0  0
  5 18  1  0  0  0  0
  5 19  1  0  0  0  0
  5 21  1  0  0  0  0
  6 21  2  0  0  0  0
  7 27  1  0  0  0  0
  7 32  2  0  0  0  0
  8  9  1  0  0  0  0
  8 10  1  0  0  0  0
  8 14  1  0  0  0  0
  8 33  1  0  0  0  0
  9 12  1  0  0  0  0
  9 34  1  0  0  0  0
  9 35  1  0  0  0  0
 10 13  1  0  0  0  0
 10 36  1  0  0  0  0
 10 37  1  0  0  0  0
 11 12  1  0  0  0  0
 11 13  1  0  0  0  0
 11 38  1  0  0  0  0
 12 39  1  0  0  0  0
 12 40  1  0  0  0  0
 13 41  1  0  0  0  0
 13 42  1  0  0  0  0
 14 15  1  0  0  0  0
 14 43  1  0  0  0  0
 14 44  1  0  0  0  0
 15 45  1  0  0  0  0
 15 46  1  0  0  0  0
 16 18  1  0  0  0  0
 16 47  1  0  0  0  0
 16 48  1  0  0  0  0
 17 19  1  0  0  0  0
 17 49  1  0  0  0  0
 17 50  1  0  0  0  0
 18 52  1  0  0  0  0
 18 53  1  0  0  0  0
 19 54  1  0  0  0  0
 19 55  1  0  0  0  0
 20 23  1  0  0  0  0
 21 22  1  0  0  0  0
 22 24  1  0  0  0  0
 22 25  2  0  0  0  0
 23 26  1  0  0  0  0
 23 27  2  0  0  0  0
 24 28  2  0  0  0  0
 25 29  1  0  0  0  0
 25 56  1  0  0  0  0
 26 31  2  0  0  0  0
 26 57  1  0  0  0  0
 27 58  1  0  0  0  0
 28 30  1  0  0  0  0
 28 59  1  0  0  0  0
 29 30  2  0  0  0  0
 29 60  1  0  0  0  0
 30 61  1  0  0  0  0
 31 32  1  0  0  0  0
 31 62  1  0  0  0  0
 32 63  1  0  0  0  0
M  END
> <PUBCHEM_COMPOUND_CID>
72700634

> <PUBCHEM_COMPOUND_CANONICALIZED>
1

> <PUBCHEM_CACTVS_COMPLEXITY>
605

> <PUBCHEM_CACTVS_HBOND_ACCEPTOR>
6

> <PUBCHEM_CACTVS_HBOND_DONOR>
1

> <PUBCHEM_CACTVS_ROTATABLE_BOND>
6

> <PUBCHEM_CACTVS_SUBSKEYS>
AAADceB7oABAAAAAAAAAAAAAAAAAAWAAAAA8eIEAAAAAAFgB/AAAHgQQQAAADSjB2gQ9sdPIEACsAjN3dACDgDA1AiBJ2Lk4ZNiIYPrA3ZGUIYxglgLIyccYgYAOAAAAAAAEAAAQAAAAAAgAAAAAAAAAAA==

> <PUBCHEM_IUPAC_OPENEYE_NAME>
N-[4-[2-[4-(1,2-benzothiazol-3-yl)piperazin-1-yl]ethyl]cyclohexyl]pyridine-3-carboxamide

> <PUBCHEM_IUPAC_CAS_NAME>
N-[4-[2-[4-(1,2-benzothiazol-3-yl)-1-piperazinyl]ethyl]cyclohexyl]-3-pyridinecarboxamide

> <PUBCHEM_IUPAC_NAME_MARKUP>
<I>N</I>-[4-[2-[4-(1,2-benzothiazol-3-yl)piperazin-1-yl]ethyl]cyclohexyl]pyridine-3-carboxamide

> <PUBCHEM_IUPAC_NAME>
N-[4-[2-[4-(1,2-benzothiazol-3-yl)piperazin-1-yl]ethyl]cyclohexyl]pyridine-3-carboxamide

> <PUBCHEM_IUPAC_SYSTEMATIC_NAME>
N-[4-[2-[4-(1,2-benzothiazol-3-yl)piperazin-1-yl]ethyl]cyclohexyl]pyridine-3-carboxamide

> <PUBCHEM_IUPAC_TRADITIONAL_NAME>
N-[4-[2-[4-(1,2-benzothiazol-3-yl)piperazino]ethyl]cyclohexyl]nicotinamide

> <PUBCHEM_IUPAC_INCHI>
InChI=1S/C25H31N5OS/c31-25(20-4-3-12-26-18-20)27-21-9-7-19(8-10-21)11-13-29-14-16-30(17-15-29)24-22-5-1-2-6-23(22)32-28-24/h1-6,12,18-19,21H,7-11,13-17H2,(H,27,31)

> <PUBCHEM_IUPAC_INCHIKEY>
RGWGDYMUCXDODX-UHFFFAOYSA-N

> <PUBCHEM_XLOGP3_AA>
4.4

> <PUBCHEM_EXACT_MASS>
449.22493180

> <PUBCHEM_MOLECULAR_FORMULA>
C25H31N5OS

> <PUBCHEM_MOLECULAR_WEIGHT>
449.6

> <PUBCHEM_OPENEYE_CAN_SMILES>
C1CC(CCC1CCN2CCN(CC2)C3=NSC4=CC=CC=C43)NC(=O)C5=CN=CC=C5

> <PUBCHEM_OPENEYE_ISO_SMILES>
C1CC(CCC1CCN2CCN(CC2)C3=NSC4=CC=CC=C43)NC(=O)C5=CN=CC=C5

> <PUBCHEM_CACTVS_TPSA>
89.6

> <PUBCHEM_MONOISOTOPIC_WEIGHT>
449.22493180

> <PUBCHEM_TOTAL_CHARGE>
0

> <PUBCHEM_HEAVY_ATOM_COUNT>
32

> <PUBCHEM_ATOM_DEF_STEREO_COUNT>
0

> <PUBCHEM_ATOM_UDEF_STEREO_COUNT>
0

> <PUBCHEM_BOND_DEF_STEREO_COUNT>
0

> <PUBCHEM_BOND_UDEF_STEREO_COUNT>
0

> <PUBCHEM_ISOTOPIC_ATOM_COUNT>
0

> <PUBCHEM_COMPONENT_COUNT>
1

> <PUBCHEM_CACTVS_TAUTO_COUNT>
-1

> <PUBCHEM_COORDINATE_TYPE>
1
5
255

> <PUBCHEM_BONDANNOTATIONS>
1  24  8
1  6  8
21  22  8
22  24  8
22  25  8
23  26  8
23  27  8
24  28  8
25  29  8
26  31  8
28  30  8
29  30  8
31  32  8
6  21  8
7  27  8
7  32  8

$$$$
