145985958
  -OEChem-09292322392D

 65 70  0     1  0  0  0  0  0999 V2000
    4.6660   -0.2989    0.0000 S   0  0  0  0  0  0  0  0  0  0  0  0
    5.6660   -0.2989    0.0000 O   0  0  0  0  0  0  0  0  0  0  0  0
    3.6660   -0.2989    0.0000 O   0  0  0  0  0  0  0  0  0  0  0  0
   13.2499    1.5788    0.0000 O   0  0  0  0  0  0  0  0  0  0  0  0
   12.9739    3.3336    0.0000 O   0  0  0  0  0  0  0  0  0  0  0  0
    4.6660    0.7011    0.0000 N   0  0  3  0  0  0  0  0  0  0  0  0
    8.1203    1.3400    0.0000 N   0  0  0  0  0  0  0  0  0  0  0  0
   10.0224    0.7219    0.0000 N   0  0  0  0  0  0  0  0  0  0  0  0
    5.5321   -2.7989    0.0000 N   0  0  0  0  0  0  0  0  0  0  0  0
   11.7192    2.0761    0.0000 N   0  0  0  0  0  0  0  0  0  0  0  0
    5.4751    1.2889    0.0000 C   0  0  2  0  0  0  0  0  0  0  0  0
    5.1660    2.2399    0.0000 C   0  0  0  0  0  0  0  0  0  0  0  0
    6.4261    0.9799    0.0000 C   0  0  0  0  0  0  0  0  0  0  0  0
    4.1660    2.2399    0.0000 C   0  0  0  0  0  0  0  0  0  0  0  0
    3.8570    1.2889    0.0000 C   0  0  0  0  0  0  0  0  0  0  0  0
    7.1692    1.6490    0.0000 C   0  0  0  0  0  0  0  0  0  0  0  0
    8.3282    0.3618    0.0000 C   0  0  0  0  0  0  0  0  0  0  0  0
    8.8634    2.0091    0.0000 C   0  0  0  0  0  0  0  0  0  0  0  0
    9.2793    0.0528    0.0000 C   0  0  0  0  0  0  0  0  0  0  0  0
    9.8145    1.7001    0.0000 C   0  0  0  0  0  0  0  0  0  0  0  0
    4.6660   -1.2989    0.0000 C   0  0  0  0  0  0  0  0  0  0  0  0
   10.9735    0.4129    0.0000 C   0  0  0  0  0  0  0  0  0  0  0  0
    3.8000   -1.7989    0.0000 C   0  0  0  0  0  0  0  0  0  0  0  0
    5.5321   -1.7989    0.0000 C   0  0  0  0  0  0  0  0  0  0  0  0
   11.7166    1.0821    0.0000 C   0  0  0  0  0  0  0  0  0  0  0  0
   11.1814   -0.5652    0.0000 C   0  0  0  0  0  0  0  0  0  0  0  0
    3.8000   -2.7989    0.0000 C   0  0  0  0  0  0  0  0  0  0  0  0
    2.9061   -1.2642    0.0000 C   0  0  0  0  0  0  0  0  0  0  0  0
   12.6677    0.7730    0.0000 C   0  0  0  0  0  0  0  0  0  0  0  0
    4.6660   -3.2989    0.0000 C   0  0  0  0  0  0  0  0  0  0  0  0
   12.1324   -0.8742    0.0000 C   0  0  0  0  0  0  0  0  0  0  0  0
   12.8756   -0.2051    0.0000 C   0  0  0  0  0  0  0  0  0  0  0  0
    2.9061   -3.3336    0.0000 C   0  0  0  0  0  0  0  0  0  0  0  0
    2.0000   -1.7781    0.0000 C   0  0  0  0  0  0  0  0  0  0  0  0
   12.6649    2.3825    0.0000 C   0  0  0  0  0  0  0  0  0  0  0  0
    2.0000   -2.8197    0.0000 C   0  0  0  0  0  0  0  0  0  0  0  0
    5.5720    0.6765    0.0000 H   0  0  0  0  0  0  0  0  0  0  0  0
    5.7725    2.3688    0.0000 H   0  0  0  0  0  0  0  0  0  0  0  0
    5.1012    2.8565    0.0000 H   0  0  0  0  0  0  0  0  0  0  0  0
    6.1350    0.4324    0.0000 H   0  0  0  0  0  0  0  0  0  0  0  0
    6.9147    0.5982    0.0000 H   0  0  0  0  0  0  0  0  0  0  0  0
    4.2308    2.8565    0.0000 H   0  0  0  0  0  0  0  0  0  0  0  0
    3.5596    2.3688    0.0000 H   0  0  0  0  0  0  0  0  0  0  0  0
    3.2906    1.5411    0.0000 H   0  0  0  0  0  0  0  0  0  0  0  0
    3.5470    0.7519    0.0000 H   0  0  0  0  0  0  0  0  0  0  0  0
    7.4603    2.1964    0.0000 H   0  0  0  0  0  0  0  0  0  0  0  0
    6.6807    2.0307    0.0000 H   0  0  0  0  0  0  0  0  0  0  0  0
    7.7086    0.3402    0.0000 H   0  0  0  0  0  0  0  0  0  0  0  0
    8.2419   -0.2521    0.0000 H   0  0  0  0  0  0  0  0  0  0  0  0
    9.1545    2.5565    0.0000 H   0  0  0  0  0  0  0  0  0  0  0  0
    8.3749    2.3908    0.0000 H   0  0  0  0  0  0  0  0  0  0  0  0
    8.9882   -0.4946    0.0000 H   0  0  0  0  0  0  0  0  0  0  0  0
    9.7678   -0.3289    0.0000 H   0  0  0  0  0  0  0  0  0  0  0  0
   10.4341    1.7217    0.0000 H   0  0  0  0  0  0  0  0  0  0  0  0
    9.9008    2.3141    0.0000 H   0  0  0  0  0  0  0  0  0  0  0  0
    6.0690   -1.4889    0.0000 H   0  0  0  0  0  0  0  0  0  0  0  0
   10.7206   -0.9801    0.0000 H   0  0  0  0  0  0  0  0  0  0  0  0
    2.9132   -0.6443    0.0000 H   0  0  0  0  0  0  0  0  0  0  0  0
    4.6660   -3.9189    0.0000 H   0  0  0  0  0  0  0  0  0  0  0  0
   11.2182    2.4414    0.0000 H   0  0  0  0  0  0  0  0  0  0  0  0
   12.2614   -1.4807    0.0000 H   0  0  0  0  0  0  0  0  0  0  0  0
   13.4652   -0.3967    0.0000 H   0  0  0  0  0  0  0  0  0  0  0  0
    2.9132   -3.9535    0.0000 H   0  0  0  0  0  0  0  0  0  0  0  0
    1.4643   -1.4660    0.0000 H   0  0  0  0  0  0  0  0  0  0  0  0
    1.4643   -3.1318    0.0000 H   0  0  0  0  0  0  0  0  0  0  0  0
  1  2  2  0  0  0  0
  1  3  2  0  0  0  0
  1  6  1  0  0  0  0
  1 21  1  0  0  0  0
  4 29  1  0  0  0  0
  4 35  1  0  0  0  0
  5 35  2  0  0  0  0
  6 11  1  0  0  0  0
  6 15  1  0  0  0  0
  7 16  1  0  0  0  0
  7 17  1  0  0  0  0
  7 18  1  0  0  0  0
  8 19  1  0  0  0  0
  8 20  1  0  0  0  0
  8 22  1  0  0  0  0
  9 24  1  0  0  0  0
  9 30  2  0  0  0  0
 10 25  1  0  0  0  0
 10 35  1  0  0  0  0
 10 60  1  0  0  0  0
 11 12  1  0  0  0  0
 11 13  1  6  0  0  0
 11 37  1  0  0  0  0
 12 14  1  0  0  0  0
 12 38  1  0  0  0  0
 12 39  1  0  0  0  0
 13 16  1  0  0  0  0
 13 40  1  0  0  0  0
 13 41  1  0  0  0  0
 14 15  1  0  0  0  0
 14 42  1  0  0  0  0
 14 43  1  0  0  0  0
 15 44  1  0  0  0  0
 15 45  1  0  0  0  0
 16 46  1  0  0  0  0
 16 47  1  0  0  0  0
 17 19  1  0  0  0  0
 17 48  1  0  0  0  0
 17 49  1  0  0  0  0
 18 20  1  0  0  0  0
 18 50  1  0  0  0  0
 18 51  1  0  0  0  0
 19 52  1  0  0  0  0
 19 53  1  0  0  0  0
 20 54  1  0  0  0  0
 20 55  1  0  0  0  0
 21 23  1  0  0  0  0
 21 24  2  0  0  0  0
 22 25  2  0  0  0  0
 22 26  1  0  0  0  0
 23 27  1  0  0  0  0
 23 28  2  0  0  0  0
 24 56  1  0  0  0  0
 25 29  1  0  0  0  0
 26 31  2  0  0  0  0
 26 57  1  0  0  0  0
 27 30  1  0  0  0  0
 27 33  2  0  0  0  0
 28 34  1  0  0  0  0
 28 58  1  0  0  0  0
 29 32  2  0  0  0  0
 30 59  1  0  0  0  0
 31 32  1  0  0  0  0
 31 61  1  0  0  0  0
 32 62  1  0  0  0  0
 33 36  1  0  0  0  0
 33 63  1  0  0  0  0
 34 36  2  0  0  0  0
 34 64  1  0  0  0  0
 36 65  1  0  0  0  0
M  END
> <PUBCHEM_COMPOUND_CID>
145985958

> <PUBCHEM_COMPOUND_CANONICALIZED>
1

> <PUBCHEM_CACTVS_COMPLEXITY>
889

> <PUBCHEM_CACTVS_HBOND_ACCEPTOR>
8

> <PUBCHEM_CACTVS_HBOND_DONOR>
1

> <PUBCHEM_CACTVS_ROTATABLE_BOND>
6

> <PUBCHEM_CACTVS_SUBSKEYS>
AAADceB7uABAAAAAAAAAAAAAAAAAAWLAAAA8eIEAAAAAAFix9AAAHgQQQAAADCzB2gQ8z9PIFAKoAjRnXHDCiDAxIiAI2DwvfJkOZuLE8ZudMihmxBnY6AeQ0IMOgAAAAgAQECAAAAAEACAgQAAAAAAAAA==

> <PUBCHEM_IUPAC_OPENEYE_NAME>
4-[4-[2-[(2R)-1-(4-isoquinolylsulfonyl)pyrrolidin-2-yl]ethyl]piperazin-1-yl]-3H-1,3-benzoxazol-2-one

> <PUBCHEM_IUPAC_CAS_NAME>
4-[4-[2-[(2R)-1-(4-isoquinolinylsulfonyl)-2-pyrrolidinyl]ethyl]-1-piperazinyl]-3H-1,3-benzoxazol-2-one

> <PUBCHEM_IUPAC_NAME_MARKUP>
4-[4-[2-[(2<I>R</I>)-1-isoquinolin-4-ylsulfonylpyrrolidin-2-yl]ethyl]piperazin-1-yl]-3<I>H</I>-1,3-benzoxazol-2-one

> <PUBCHEM_IUPAC_NAME>
4-[4-[2-[(2R)-1-isoquinolin-4-ylsulfonylpyrrolidin-2-yl]ethyl]piperazin-1-yl]-3H-1,3-benzoxazol-2-one

> <PUBCHEM_IUPAC_SYSTEMATIC_NAME>
4-[4-[2-[(2R)-1-isoquinolin-4-ylsulfonylpyrrolidin-2-yl]ethyl]piperazin-1-yl]-3H-1,3-benzoxazol-2-one

> <PUBCHEM_IUPAC_TRADITIONAL_NAME>
4-[4-[2-[(2R)-1-(4-isoquinolylsulfonyl)pyrrolidin-2-yl]ethyl]piperazino]-3H-1,3-benzoxazol-2-one

> <PUBCHEM_IUPAC_INCHI>
InChI=1S/C26H29N5O4S/c32-26-28-25-22(8-3-9-23(25)35-26)30-15-13-29(14-16-30)12-10-20-6-4-11-31(20)36(33,34)24-18-27-17-19-5-1-2-7-21(19)24/h1-3,5,7-9,17-18,20H,4,6,10-16H2,(H,28,32)/t20-/m1/s1

> <PUBCHEM_IUPAC_INCHIKEY>
HACFIQPIDCCMMT-HXUWFJFHSA-N

> <PUBCHEM_XLOGP3_AA>
3

> <PUBCHEM_EXACT_MASS>
507.19402560

> <PUBCHEM_MOLECULAR_FORMULA>
C26H29N5O4S

> <PUBCHEM_MOLECULAR_WEIGHT>
507.6

> <PUBCHEM_OPENEYE_CAN_SMILES>
C1CC(N(C1)S(=O)(=O)C2=CN=CC3=CC=CC=C32)CCN4CCN(CC4)C5=C6C(=CC=C5)OC(=O)N6

> <PUBCHEM_OPENEYE_ISO_SMILES>
C1C[C@@H](N(C1)S(=O)(=O)C2=CN=CC3=CC=CC=C32)CCN4CCN(CC4)C5=C6C(=CC=C5)OC(=O)N6

> <PUBCHEM_CACTVS_TPSA>
104

> <PUBCHEM_MONOISOTOPIC_WEIGHT>
507.19402560

> <PUBCHEM_TOTAL_CHARGE>
0

> <PUBCHEM_HEAVY_ATOM_COUNT>
36

> <PUBCHEM_ATOM_DEF_STEREO_COUNT>
1

> <PUBCHEM_ATOM_UDEF_STEREO_COUNT>
0

> <PUBCHEM_BOND_DEF_STEREO_COUNT>
0

> <PUBCHEM_BOND_UDEF_STEREO_COUNT>
0

> <PUBCHEM_ISOTOPIC_ATOM_COUNT>
0

> <PUBCHEM_COMPONENT_COUNT>
1

> <PUBCHEM_CACTVS_TAUTO_COUNT>
-1

> <PUBCHEM_COORDINATE_TYPE>
1
5
255

> <PUBCHEM_BONDANNOTATIONS>
10  25  8
10  35  8
11  13  6
21  23  8
21  24  8
22  25  8
22  26  8
23  27  8
23  28  8
25  29  8
26  31  8
27  30  8
27  33  8
28  34  8
29  32  8
31  32  8
33  36  8
34  36  8
4  29  8
4  35  8
9  24  8
9  30  8

$$$$
