138670791
  -OEChem-09292322452D

 68 71  0     1  0  0  0  0  0999 V2000
    3.1215    1.5597    0.0000 S   0  0  0  0  0  0  0  0  0  0  0  0
   10.6160    0.5891    0.0000 F   0  0  0  0  0  0  0  0  0  0  0  0
   19.0669   -2.6771    0.0000 F   0  0  0  0  0  0  0  0  0  0  0  0
   18.7061   -1.3096    0.0000 F   0  0  0  0  0  0  0  0  0  0  0  0
   17.6994   -3.0378    0.0000 F   0  0  0  0  0  0  0  0  0  0  0  0
    6.1160    1.4552    0.0000 O   0  0  0  0  0  0  0  0  0  0  0  0
   16.4707   -2.1671    0.0000 O   0  0  0  0  0  0  0  0  0  0  0  0
   11.6160   -1.1429    0.0000 N   0  0  3  0  0  0  0  0  0  0  0  0
    6.1160   -0.2769    0.0000 N   0  0  0  0  0  0  0  0  0  0  0  0
   14.7006   -2.1776    0.0000 N   0  0  0  0  0  0  0  0  0  0  0  0
    3.7796    3.0378    0.0000 N   0  0  0  0  0  0  0  0  0  0  0  0
    9.1160   -0.2769    0.0000 C   0  0  0  0  0  0  0  0  0  0  0  0
    8.6160   -1.1429    0.0000 C   0  0  0  0  0  0  0  0  0  0  0  0
    8.6160    0.5891    0.0000 C   0  0  0  0  0  0  0  0  0  0  0  0
    7.1160   -0.2769    0.0000 C   0  0  0  0  0  0  0  0  0  0  0  0
    7.6160   -1.1429    0.0000 C   0  0  0  0  0  0  0  0  0  0  0  0
    7.6160    0.5891    0.0000 C   0  0  0  0  0  0  0  0  0  0  0  0
   10.1160   -0.2769    0.0000 C   0  0  3  0  0  0  0  0  0  0  0  0
   10.6160   -1.1429    0.0000 C   0  0  0  0  0  0  0  0  0  0  0  0
   12.0499   -0.2419    0.0000 C   0  0  0  0  0  0  0  0  0  0  0  0
   12.0499   -2.0439    0.0000 C   0  0  0  0  0  0  0  0  0  0  0  0
   13.0248   -0.0194    0.0000 C   0  0  0  0  0  0  0  0  0  0  0  0
   13.0248   -2.2664    0.0000 C   0  0  0  0  0  0  0  0  0  0  0  0
    5.6160    0.5891    0.0000 C   0  0  0  0  0  0  0  0  0  0  0  0
   13.8066   -0.6429    0.0000 C   0  0  0  0  0  0  0  0  0  0  0  0
   13.8066   -1.6429    0.0000 C   0  0  0  0  0  0  0  0  0  0  0  0
    4.6160    0.5891    0.0000 C   0  0  0  0  0  0  0  0  0  0  0  0
   14.7006   -0.1083    0.0000 C   0  0  0  0  0  0  0  0  0  0  0  0
   15.6066   -0.6221    0.0000 C   0  0  0  0  0  0  0  0  0  0  0  0
    4.1160    1.4552    0.0000 C   0  0  0  0  0  0  0  0  0  0  0  0
   15.6066   -1.6637    0.0000 C   0  0  0  0  0  0  0  0  0  0  0  0
    4.5227    2.3687    0.0000 C   0  0  0  0  0  0  0  0  0  0  0  0
    2.9136    2.5378    0.0000 C   0  0  0  0  0  0  0  0  0  0  0  0
   17.3387   -1.6704    0.0000 C   0  0  0  0  0  0  0  0  0  0  0  0
    2.0000    2.9446    0.0000 C   0  0  0  0  0  0  0  0  0  0  0  0
   18.2028   -2.1737    0.0000 C   0  0  0  0  0  0  0  0  0  0  0  0
    9.4260    0.2600    0.0000 H   0  0  0  0  0  0  0  0  0  0  0  0
    8.5083   -1.7535    0.0000 H   0  0  0  0  0  0  0  0  0  0  0  0
    9.1986   -1.3550    0.0000 H   0  0  0  0  0  0  0  0  0  0  0  0
    9.1986    0.8012    0.0000 H   0  0  0  0  0  0  0  0  0  0  0  0
    8.5083    1.1997    0.0000 H   0  0  0  0  0  0  0  0  0  0  0  0
    6.8060    0.2600    0.0000 H   0  0  0  0  0  0  0  0  0  0  0  0
    7.0334   -1.3550    0.0000 H   0  0  0  0  0  0  0  0  0  0  0  0
    7.7236   -1.7535    0.0000 H   0  0  0  0  0  0  0  0  0  0  0  0
    7.7236    1.1997    0.0000 H   0  0  0  0  0  0  0  0  0  0  0  0
    7.0334    0.8012    0.0000 H   0  0  0  0  0  0  0  0  0  0  0  0
   10.7360   -0.2769    0.0000 H   0  0  0  0  0  0  0  0  0  0  0  0
   10.0334   -1.3550    0.0000 H   0  0  0  0  0  0  0  0  0  0  0  0
   10.7236   -1.7535    0.0000 H   0  0  0  0  0  0  0  0  0  0  0  0
    5.8060   -0.8138    0.0000 H   0  0  0  0  0  0  0  0  0  0  0  0
   12.0499    0.3781    0.0000 H   0  0  0  0  0  0  0  0  0  0  0  0
   11.4454   -0.1040    0.0000 H   0  0  0  0  0  0  0  0  0  0  0  0
   11.4454   -2.1818    0.0000 H   0  0  0  0  0  0  0  0  0  0  0  0
   12.0499   -2.6639    0.0000 H   0  0  0  0  0  0  0  0  0  0  0  0
   13.5095    0.3671    0.0000 H   0  0  0  0  0  0  0  0  0  0  0  0
   12.7558    0.5392    0.0000 H   0  0  0  0  0  0  0  0  0  0  0  0
   12.7558   -2.8250    0.0000 H   0  0  0  0  0  0  0  0  0  0  0  0
   13.5095   -2.6530    0.0000 H   0  0  0  0  0  0  0  0  0  0  0  0
    4.0334    0.3771    0.0000 H   0  0  0  0  0  0  0  0  0  0  0  0
    4.7236   -0.0214    0.0000 H   0  0  0  0  0  0  0  0  0  0  0  0
   14.6934    0.5117    0.0000 H   0  0  0  0  0  0  0  0  0  0  0  0
   16.1424   -0.3100    0.0000 H   0  0  0  0  0  0  0  0  0  0  0  0
    5.1292    2.4976    0.0000 H   0  0  0  0  0  0  0  0  0  0  0  0
   17.7390   -1.1970    0.0000 H   0  0  0  0  0  0  0  0  0  0  0  0
   16.9420   -1.1939    0.0000 H   0  0  0  0  0  0  0  0  0  0  0  0
    2.2522    3.5110    0.0000 H   0  0  0  0  0  0  0  0  0  0  0  0
    1.4336    3.1968    0.0000 H   0  0  0  0  0  0  0  0  0  0  0  0
    1.7478    2.3782    0.0000 H   0  0  0  0  0  0  0  0  0  0  0  0
  1 30  1  0  0  0  0
  1 33  1  0  0  0  0
  2 18  1  0  0  0  0
  3 36  1  0  0  0  0
  4 36  1  0  0  0  0
  5 36  1  0  0  0  0
  6 24  2  0  0  0  0
  7 31  1  0  0  0  0
  7 34  1  0  0  0  0
  8 19  1  0  0  0  0
  8 20  1  0  0  0  0
  8 21  1  0  0  0  0
  9 15  1  0  0  0  0
  9 24  1  0  0  0  0
  9 50  1  0  0  0  0
 10 26  1  0  0  0  0
 10 31  2  0  0  0  0
 11 32  1  0  0  0  0
 11 33  2  0  0  0  0
 12 13  1  0  0  0  0
 12 14  1  0  0  0  0
 12 18  1  0  0  0  0
 12 37  1  0  0  0  0
 13 16  1  0  0  0  0
 13 38  1  0  0  0  0
 13 39  1  0  0  0  0
 14 17  1  0  0  0  0
 14 40  1  0  0  0  0
 14 41  1  0  0  0  0
 15 16  1  0  0  0  0
 15 17  1  0  0  0  0
 15 42  1  0  0  0  0
 16 43  1  0  0  0  0
 16 44  1  0  0  0  0
 17 45  1  0  0  0  0
 17 46  1  0  0  0  0
 18 19  1  0  0  0  0
 18 47  1  0  0  0  0
 19 48  1  0  0  0  0
 19 49  1  0  0  0  0
 20 22  1  0  0  0  0
 20 51  1  0  0  0  0
 20 52  1  0  0  0  0
 21 23  1  0  0  0  0
 21 53  1  0  0  0  0
 21 54  1  0  0  0  0
 22 25  1  0  0  0  0
 22 55  1  0  0  0  0
 22 56  1  0  0  0  0
 23 26  1  0  0  0  0
 23 57  1  0  0  0  0
 23 58  1  0  0  0  0
 24 27  1  0  0  0  0
 25 26  2  0  0  0  0
 25 28  1  0  0  0  0
 27 30  1  0  0  0  0
 27 59  1  0  0  0  0
 27 60  1  0  0  0  0
 28 29  2  0  0  0  0
 28 61  1  0  0  0  0
 29 31  1  0  0  0  0
 29 62  1  0  0  0  0
 30 32  2  0  0  0  0
 32 63  1  0  0  0  0
 33 35  1  0  0  0  0
 34 36  1  0  0  0  0
 34 64  1  0  0  0  0
 34 65  1  0  0  0  0
 35 66  1  0  0  0  0
 35 67  1  0  0  0  0
 35 68  1  0  0  0  0
M  END
> <PUBCHEM_COMPOUND_CID>
138670791

> <PUBCHEM_COMPOUND_CANONICALIZED>
1

> <PUBCHEM_CACTVS_COMPLEXITY>
710

> <PUBCHEM_CACTVS_HBOND_ACCEPTOR>
10

> <PUBCHEM_CACTVS_HBOND_DONOR>
1

> <PUBCHEM_CACTVS_ROTATABLE_BOND>
8

> <PUBCHEM_CACTVS_SUBSKEYS>
AAADcfB7scBAAAAAAAAAAAAAAAAAAWAAAAA8QAAABYAAAAAB4AAAHwQQAAAADSjh3hY+hZPIFAisAzV3VACC+KBxKjhI2K0+bJgMJvLk9ZuOOCjk1hHo6AeU0KEOAAAAAAAAAAAQAAAAAAAAAAAAAAAAAA==

> <PUBCHEM_IUPAC_OPENEYE_NAME>
N-[4-[1-fluoro-2-[2-(2,2,2-trifluoroethoxy)-5,6,8,9-tetrahydropyrido[2,3-d]azepin-7-yl]ethyl]cyclohexyl]-2-(2-methylthiazol-5-yl)acetamide

> <PUBCHEM_IUPAC_CAS_NAME>
N-[4-[1-fluoro-2-[2-(2,2,2-trifluoroethoxy)-5,6,8,9-tetrahydropyrido[2,3-d]azepin-7-yl]ethyl]cyclohexyl]-2-(2-methyl-5-thiazolyl)acetamide

> <PUBCHEM_IUPAC_NAME_MARKUP>
<I>N</I>-[4-[1-fluoro-2-[2-(2,2,2-trifluoroethoxy)-5,6,8,9-tetrahydropyrido[2,3-d]azepin-7-yl]ethyl]cyclohexyl]-2-(2-methyl-1,3-thiazol-5-yl)acetamide

> <PUBCHEM_IUPAC_NAME>
N-[4-[1-fluoro-2-[2-(2,2,2-trifluoroethoxy)-5,6,8,9-tetrahydropyrido[2,3-d]azepin-7-yl]ethyl]cyclohexyl]-2-(2-methyl-1,3-thiazol-5-yl)acetamide

> <PUBCHEM_IUPAC_SYSTEMATIC_NAME>
N-[4-[1-fluoranyl-2-[2-[2,2,2-tris(fluoranyl)ethoxy]-5,6,8,9-tetrahydropyrido[2,3-d]azepin-7-yl]ethyl]cyclohexyl]-2-(2-methyl-1,3-thiazol-5-yl)ethanamide

> <PUBCHEM_IUPAC_TRADITIONAL_NAME>
N-[4-[1-fluoro-2-[2-(2,2,2-trifluoroethoxy)-5,6,8,9-tetrahydropyrid[2,3-d]azepin-7-yl]ethyl]cyclohexyl]-2-(2-methylthiazol-5-yl)acetamide

> <PUBCHEM_IUPAC_INCHI>
InChI=1S/C25H32F4N4O2S/c1-16-30-13-20(36-16)12-23(34)31-19-5-2-17(3-6-19)21(26)14-33-10-8-18-4-7-24(32-22(18)9-11-33)35-15-25(27,28)29/h4,7,13,17,19,21H,2-3,5-6,8-12,14-15H2,1H3,(H,31,34)

> <PUBCHEM_IUPAC_INCHIKEY>
PUHBDUPTTFDHNP-UHFFFAOYSA-N

> <PUBCHEM_XLOGP3_AA>
5

> <PUBCHEM_EXACT_MASS>
528.21821010

> <PUBCHEM_MOLECULAR_FORMULA>
C25H32F4N4O2S

> <PUBCHEM_MOLECULAR_WEIGHT>
528.6

> <PUBCHEM_OPENEYE_CAN_SMILES>
CC1=NC=C(S1)CC(=O)NC2CCC(CC2)C(CN3CCC4=C(CC3)N=C(C=C4)OCC(F)(F)F)F

> <PUBCHEM_OPENEYE_ISO_SMILES>
CC1=NC=C(S1)CC(=O)NC2CCC(CC2)C(CN3CCC4=C(CC3)N=C(C=C4)OCC(F)(F)F)F

> <PUBCHEM_CACTVS_TPSA>
95.6

> <PUBCHEM_MONOISOTOPIC_WEIGHT>
528.21821010

> <PUBCHEM_TOTAL_CHARGE>
0

> <PUBCHEM_HEAVY_ATOM_COUNT>
36

> <PUBCHEM_ATOM_DEF_STEREO_COUNT>
0

> <PUBCHEM_ATOM_UDEF_STEREO_COUNT>
1

> <PUBCHEM_BOND_DEF_STEREO_COUNT>
0

> <PUBCHEM_BOND_UDEF_STEREO_COUNT>
0

> <PUBCHEM_ISOTOPIC_ATOM_COUNT>
0

> <PUBCHEM_COMPONENT_COUNT>
1

> <PUBCHEM_CACTVS_TAUTO_COUNT>
-1

> <PUBCHEM_COORDINATE_TYPE>
1
5
255

> <PUBCHEM_BONDANNOTATIONS>
1  30  8
1  33  8
10  26  8
10  31  8
11  32  8
11  33  8
18  2  3
25  26  8
25  28  8
28  29  8
29  31  8
30  32  8

$$$$
