44626329
  -OEChem-09292322292D

 56 61  0     1  0  0  0  0  0999 V2000
    2.0000   -0.5885    0.0000 F   0  0  0  0  0  0  0  0  0  0  0  0
   12.2204   -1.5061    0.0000 O   0  0  0  0  0  0  0  0  0  0  0  0
   13.3314   -2.8921    0.0000 O   0  0  0  0  0  0  0  0  0  0  0  0
    8.7224   -0.3843    0.0000 N   0  0  0  0  0  0  0  0  0  0  0  0
   10.6803    0.0239    0.0000 N   0  0  0  0  0  0  0  0  0  0  0  0
    4.8717    2.2721    0.0000 N   0  0  0  0  0  0  0  0  0  0  0  0
   13.7959   -1.1776    0.0000 N   0  0  0  0  0  0  0  0  0  0  0  0
    7.0772    0.1572    0.0000 C   0  0  3  0  0  0  0  0  0  0  0  0
    7.7435   -0.5885    0.0000 C   0  0  0  0  0  0  0  0  0  0  0  0
    7.3991    1.1479    0.0000 C   0  0  0  0  0  0  0  0  0  0  0  0
    6.0567   -0.0515    0.0000 C   0  0  0  0  0  0  0  0  0  0  0  0
    6.6962    1.9166    0.0000 C   0  0  0  0  0  0  0  0  0  0  0  0
    5.3717    0.7333    0.0000 C   0  0  0  0  0  0  0  0  0  0  0  0
    5.6808    1.6843    0.0000 C   0  0  0  0  0  0  0  0  0  0  0  0
    9.3887   -1.1300    0.0000 C   0  0  0  0  0  0  0  0  0  0  0  0
    9.0351    0.5655    0.0000 C   0  0  0  0  0  0  0  0  0  0  0  0
   10.3676   -0.9259    0.0000 C   0  0  0  0  0  0  0  0  0  0  0  0
   10.0140    0.7697    0.0000 C   0  0  0  0  0  0  0  0  0  0  0  0
    4.3717    0.7333    0.0000 C   0  0  0  0  0  0  0  0  0  0  0  0
    4.0627    1.6843    0.0000 C   0  0  0  0  0  0  0  0  0  0  0  0
   11.6592    0.2281    0.0000 C   0  0  0  0  0  0  0  0  0  0  0  0
    3.6868   -0.0515    0.0000 C   0  0  0  0  0  0  0  0  0  0  0  0
    3.0473    1.9166    0.0000 C   0  0  0  0  0  0  0  0  0  0  0  0
   12.3255   -0.5176    0.0000 C   0  0  0  0  0  0  0  0  0  0  0  0
    2.6663    0.1572    0.0000 C   0  0  0  0  0  0  0  0  0  0  0  0
   11.9719    1.1779    0.0000 C   0  0  0  0  0  0  0  0  0  0  0  0
    2.3444    1.1479    0.0000 C   0  0  0  0  0  0  0  0  0  0  0  0
   13.3044   -0.3135    0.0000 C   0  0  0  0  0  0  0  0  0  0  0  0
   12.9509    1.3821    0.0000 C   0  0  0  0  0  0  0  0  0  0  0  0
   13.6171    0.6364    0.0000 C   0  0  0  0  0  0  0  0  0  0  0  0
   13.1273   -1.9132    0.0000 C   0  0  0  0  0  0  0  0  0  0  0  0
    6.8822   -0.4313    0.0000 H   0  0  0  0  0  0  0  0  0  0  0  0
    7.2164   -0.9150    0.0000 H   0  0  0  0  0  0  0  0  0  0  0  0
    7.9735   -1.1642    0.0000 H   0  0  0  0  0  0  0  0  0  0  0  0
    7.9473    0.8582    0.0000 H   0  0  0  0  0  0  0  0  0  0  0  0
    7.7783    1.6384    0.0000 H   0  0  0  0  0  0  0  0  0  0  0  0
    5.5267   -0.3732    0.0000 H   0  0  0  0  0  0  0  0  0  0  0  0
    6.2830   -0.6287    0.0000 H   0  0  0  0  0  0  0  0  0  0  0  0
    7.2186    2.2505    0.0000 H   0  0  0  0  0  0  0  0  0  0  0  0
    6.4565    2.4884    0.0000 H   0  0  0  0  0  0  0  0  0  0  0  0
    8.8616   -1.4566    0.0000 H   0  0  0  0  0  0  0  0  0  0  0  0
    9.6187   -1.7058    0.0000 H   0  0  0  0  0  0  0  0  0  0  0  0
    9.0158    1.1852    0.0000 H   0  0  0  0  0  0  0  0  0  0  0  0
    8.4215    0.6542    0.0000 H   0  0  0  0  0  0  0  0  0  0  0  0
   10.3869   -1.5456    0.0000 H   0  0  0  0  0  0  0  0  0  0  0  0
   10.9813   -1.0146    0.0000 H   0  0  0  0  0  0  0  0  0  0  0  0
   10.5411    1.0962    0.0000 H   0  0  0  0  0  0  0  0  0  0  0  0
    9.7840    1.3454    0.0000 H   0  0  0  0  0  0  0  0  0  0  0  0
    4.8717    2.8921    0.0000 H   0  0  0  0  0  0  0  0  0  0  0  0
    3.8852   -0.6389    0.0000 H   0  0  0  0  0  0  0  0  0  0  0  0
    2.8626    2.5084    0.0000 H   0  0  0  0  0  0  0  0  0  0  0  0
   11.5588    1.6403    0.0000 H   0  0  0  0  0  0  0  0  0  0  0  0
    1.7384    1.2791    0.0000 H   0  0  0  0  0  0  0  0  0  0  0  0
   13.1447    1.9710    0.0000 H   0  0  0  0  0  0  0  0  0  0  0  0
   14.2241    0.7629    0.0000 H   0  0  0  0  0  0  0  0  0  0  0  0
   14.4122   -1.2458    0.0000 H   0  0  0  0  0  0  0  0  0  0  0  0
  1 25  1  0  0  0  0
  2 24  1  0  0  0  0
  2 31  1  0  0  0  0
  3 31  2  0  0  0  0
  4  9  1  0  0  0  0
  4 15  1  0  0  0  0
  4 16  1  0  0  0  0
  5 17  1  0  0  0  0
  5 18  1  0  0  0  0
  5 21  1  0  0  0  0
  6 14  1  0  0  0  0
  6 20  1  0  0  0  0
  6 49  1  0  0  0  0
  7 28  1  0  0  0  0
  7 31  1  0  0  0  0
  7 56  1  0  0  0  0
  8  9  1  0  0  0  0
  8 10  1  0  0  0  0
  8 11  1  0  0  0  0
  8 32  1  0  0  0  0
  9 33  1  0  0  0  0
  9 34  1  0  0  0  0
 10 12  1  0  0  0  0
 10 35  1  0  0  0  0
 10 36  1  0  0  0  0
 11 13  1  0  0  0  0
 11 37  1  0  0  0  0
 11 38  1  0  0  0  0
 12 14  1  0  0  0  0
 12 39  1  0  0  0  0
 12 40  1  0  0  0  0
 13 14  2  0  0  0  0
 13 19  1  0  0  0  0
 15 17  1  0  0  0  0
 15 41  1  0  0  0  0
 15 42  1  0  0  0  0
 16 18  1  0  0  0  0
 16 43  1  0  0  0  0
 16 44  1  0  0  0  0
 17 45  1  0  0  0  0
 17 46  1  0  0  0  0
 18 47  1  0  0  0  0
 18 48  1  0  0  0  0
 19 20  2  0  0  0  0
 19 22  1  0  0  0  0
 20 23  1  0  0  0  0
 21 24  1  0  0  0  0
 21 26  2  0  0  0  0
 22 25  2  0  0  0  0
 22 50  1  0  0  0  0
 23 27  2  0  0  0  0
 23 51  1  0  0  0  0
 24 28  2  0  0  0  0
 25 27  1  0  0  0  0
 26 29  1  0  0  0  0
 26 52  1  0  0  0  0
 27 53  1  0  0  0  0
 28 30  1  0  0  0  0
 29 30  2  0  0  0  0
 29 54  1  0  0  0  0
 30 55  1  0  0  0  0
M  END
> <PUBCHEM_COMPOUND_CID>
44626329

> <PUBCHEM_COMPOUND_CANONICALIZED>
1

> <PUBCHEM_CACTVS_COMPLEXITY>
672

> <PUBCHEM_CACTVS_HBOND_ACCEPTOR>
5

> <PUBCHEM_CACTVS_HBOND_DONOR>
2

> <PUBCHEM_CACTVS_ROTATABLE_BOND>
3

> <PUBCHEM_CACTVS_SUBSKEYS>
AAADceB7sQAAAAAAAAAAAAAAAAAAAWLAAAA8YMEAAAAAAFgB9AAAHwAQAAAADQzBngwwzvPJlACoAyRiXACCiCAhIiAImSA9bJkOZuLE8dudMihk1BHY6AeQwMAOgAAAAAQCEAAQAAQACAQgAAAAAAAAAA==

> <PUBCHEM_IUPAC_OPENEYE_NAME>
7-[4-[(6-fluoro-2,3,4,9-tetrahydro-1H-carbazol-3-yl)methyl]piperazin-1-yl]-3H-1,3-benzoxazol-2-one

> <PUBCHEM_IUPAC_CAS_NAME>
7-[4-[(6-fluoro-2,3,4,9-tetrahydro-1H-carbazol-3-yl)methyl]-1-piperazinyl]-3H-1,3-benzoxazol-2-one

> <PUBCHEM_IUPAC_NAME_MARKUP>
7-[4-[(6-fluoro-2,3,4,9-tetrahydro-1<I>H</I>-carbazol-3-yl)methyl]piperazin-1-yl]-3<I>H</I>-1,3-benzoxazol-2-one

> <PUBCHEM_IUPAC_NAME>
7-[4-[(6-fluoro-2,3,4,9-tetrahydro-1H-carbazol-3-yl)methyl]piperazin-1-yl]-3H-1,3-benzoxazol-2-one

> <PUBCHEM_IUPAC_SYSTEMATIC_NAME>
7-[4-[(6-fluoranyl-2,3,4,9-tetrahydro-1H-carbazol-3-yl)methyl]piperazin-1-yl]-3H-1,3-benzoxazol-2-one

> <PUBCHEM_IUPAC_TRADITIONAL_NAME>
7-[4-[(6-fluoro-2,3,4,9-tetrahydro-1H-carbazol-3-yl)methyl]piperazino]-3H-1,3-benzoxazol-2-one

> <PUBCHEM_IUPAC_INCHI>
InChI=1S/C24H25FN4O2/c25-16-5-7-20-18(13-16)17-12-15(4-6-19(17)26-20)14-28-8-10-29(11-9-28)22-3-1-2-21-23(22)31-24(30)27-21/h1-3,5,7,13,15,26H,4,6,8-12,14H2,(H,27,30)

> <PUBCHEM_IUPAC_INCHIKEY>
ZEIYGHCLSNJBKD-UHFFFAOYSA-N

> <PUBCHEM_XLOGP3_AA>
3.9

> <PUBCHEM_EXACT_MASS>
420.19615422

> <PUBCHEM_MOLECULAR_FORMULA>
C24H25FN4O2

> <PUBCHEM_MOLECULAR_WEIGHT>
420.5

> <PUBCHEM_OPENEYE_CAN_SMILES>
C1CC2=C(CC1CN3CCN(CC3)C4=CC=CC5=C4OC(=O)N5)C6=C(N2)C=CC(=C6)F

> <PUBCHEM_OPENEYE_ISO_SMILES>
C1CC2=C(CC1CN3CCN(CC3)C4=CC=CC5=C4OC(=O)N5)C6=C(N2)C=CC(=C6)F

> <PUBCHEM_CACTVS_TPSA>
60.6

> <PUBCHEM_MONOISOTOPIC_WEIGHT>
420.19615422

> <PUBCHEM_TOTAL_CHARGE>
0

> <PUBCHEM_HEAVY_ATOM_COUNT>
31

> <PUBCHEM_ATOM_DEF_STEREO_COUNT>
0

> <PUBCHEM_ATOM_UDEF_STEREO_COUNT>
1

> <PUBCHEM_BOND_DEF_STEREO_COUNT>
0

> <PUBCHEM_BOND_UDEF_STEREO_COUNT>
0

> <PUBCHEM_ISOTOPIC_ATOM_COUNT>
0

> <PUBCHEM_COMPONENT_COUNT>
1

> <PUBCHEM_CACTVS_TAUTO_COUNT>
-1

> <PUBCHEM_COORDINATE_TYPE>
1
5
255

> <PUBCHEM_BONDANNOTATIONS>
13  14  8
13  19  8
19  20  8
19  22  8
2  24  8
2  31  8
20  23  8
21  24  8
21  26  8
22  25  8
23  27  8
24  28  8
25  27  8
26  29  8
28  30  8
29  30  8
6  14  8
6  20  8
7  28  8
7  31  8
8  9  3

$$$$
