10546579
  -OEChem-09292322102D

 47 51  0     1  0  0  0  0  0999 V2000
    3.3630   -1.3727    0.0000 F   0  0  0  0  0  0  0  0  0  0  0  0
    6.6563   -3.5813    0.0000 F   0  0  0  0  0  0  0  0  0  0  0  0
    2.7443    1.5628    0.0000 N   0  0  0  0  0  0  0  0  0  0  0  0
    6.4610   -0.0370    0.0000 N   0  0  0  0  0  0  0  0  0  0  0  0
    3.9010    0.2737    0.0000 C   0  0  2  0  0  0  0  0  0  0  0  0
    3.1567   -0.3942    0.0000 C   0  0  1  0  0  0  0  0  0  0  0  0
    4.8516   -0.0370    0.0000 C   0  0  0  0  0  0  0  0  0  0  0  0
    3.6948    1.2522    0.0000 C   0  0  0  0  0  0  0  0  0  0  0  0
    2.2062   -0.0835    0.0000 C   0  0  0  0  0  0  0  0  0  0  0  0
    2.0000    0.8950    0.0000 C   0  0  0  0  0  0  0  0  0  0  0  0
    5.6563    0.5466    0.0000 C   0  0  0  0  0  0  0  0  0  0  0  0
    5.1563   -0.9832    0.0000 C   0  0  0  0  0  0  0  0  0  0  0  0
    6.1563   -0.9832    0.0000 C   0  0  0  0  0  0  0  0  0  0  0  0
    5.6563    1.5466    0.0000 C   0  0  0  0  0  0  0  0  0  0  0  0
    4.6563   -1.8492    0.0000 C   0  0  0  0  0  0  0  0  0  0  0  0
    6.5223    2.0466    0.0000 C   0  0  0  0  0  0  0  0  0  0  0  0
    6.6563   -1.8492    0.0000 C   0  0  0  0  0  0  0  0  0  0  0  0
    4.7903    2.0466    0.0000 C   0  0  0  0  0  0  0  0  0  0  0  0
    5.1563   -2.7153    0.0000 C   0  0  0  0  0  0  0  0  0  0  0  0
    6.1563   -2.7153    0.0000 C   0  0  0  0  0  0  0  0  0  0  0  0
    6.5223    3.0466    0.0000 C   0  0  0  0  0  0  0  0  0  0  0  0
    7.4163    1.5120    0.0000 C   0  0  0  0  0  0  0  0  0  0  0  0
    4.7903    3.0466    0.0000 C   0  0  0  0  0  0  0  0  0  0  0  0
    5.6563    3.5466    0.0000 C   0  0  0  0  0  0  0  0  0  0  0  0
    7.4163    3.5813    0.0000 C   0  0  0  0  0  0  0  0  0  0  0  0
    8.3223    2.0258    0.0000 C   0  0  0  0  0  0  0  0  0  0  0  0
    8.3223    3.0674    0.0000 C   0  0  0  0  0  0  0  0  0  0  0  0
    4.0763   -0.5581    0.0000 H   0  0  0  0  0  0  0  0  0  0  0  0
    2.6953   -0.8082    0.0000 H   0  0  0  0  0  0  0  0  0  0  0  0
    4.3145    1.2728    0.0000 H   0  0  0  0  0  0  0  0  0  0  0  0
    3.7822    1.8660    0.0000 H   0  0  0  0  0  0  0  0  0  0  0  0
    1.5866   -0.1041    0.0000 H   0  0  0  0  0  0  0  0  0  0  0  0
    2.1189   -0.6973    0.0000 H   0  0  0  0  0  0  0  0  0  0  0  0
    1.6724    1.4214    0.0000 H   0  0  0  0  0  0  0  0  0  0  0  0
    1.4247    0.6637    0.0000 H   0  0  0  0  0  0  0  0  0  0  0  0
    2.6164    2.1695    0.0000 H   0  0  0  0  0  0  0  0  0  0  0  0
    7.0504    0.1556    0.0000 H   0  0  0  0  0  0  0  0  0  0  0  0
    4.0363   -1.8492    0.0000 H   0  0  0  0  0  0  0  0  0  0  0  0
    7.2763   -1.8492    0.0000 H   0  0  0  0  0  0  0  0  0  0  0  0
    4.2533    1.7366    0.0000 H   0  0  0  0  0  0  0  0  0  0  0  0
    4.8463   -3.2522    0.0000 H   0  0  0  0  0  0  0  0  0  0  0  0
    7.4091    0.8920    0.0000 H   0  0  0  0  0  0  0  0  0  0  0  0
    4.2533    3.3566    0.0000 H   0  0  0  0  0  0  0  0  0  0  0  0
    5.6563    4.1666    0.0000 H   0  0  0  0  0  0  0  0  0  0  0  0
    7.4091    4.2012    0.0000 H   0  0  0  0  0  0  0  0  0  0  0  0
    8.8581    1.7137    0.0000 H   0  0  0  0  0  0  0  0  0  0  0  0
    8.8581    3.3795    0.0000 H   0  0  0  0  0  0  0  0  0  0  0  0
  6  1  1  6  0  0  0
  2 20  1  0  0  0  0
  3  8  1  0  0  0  0
  3 10  1  0  0  0  0
  3 36  1  0  0  0  0
  4 11  1  0  0  0  0
  4 13  1  0  0  0  0
  4 37  1  0  0  0  0
  5  6  1  0  0  0  0
  5  7  1  0  0  0  0
  5  8  1  0  0  0  0
  5 28  1  6  0  0  0
  6  9  1  0  0  0  0
  6 29  1  0  0  0  0
  7 11  2  0  0  0  0
  7 12  1  0  0  0  0
  8 30  1  0  0  0  0
  8 31  1  0  0  0  0
  9 10  1  0  0  0  0
  9 32  1  0  0  0  0
  9 33  1  0  0  0  0
 10 34  1  0  0  0  0
 10 35  1  0  0  0  0
 11 14  1  0  0  0  0
 12 13  2  0  0  0  0
 12 15  1  0  0  0  0
 13 17  1  0  0  0  0
 14 16  1  0  0  0  0
 14 18  2  0  0  0  0
 15 19  2  0  0  0  0
 15 38  1  0  0  0  0
 16 21  1  0  0  0  0
 16 22  2  0  0  0  0
 17 20  2  0  0  0  0
 17 39  1  0  0  0  0
 18 23  1  0  0  0  0
 18 40  1  0  0  0  0
 19 20  1  0  0  0  0
 19 41  1  0  0  0  0
 21 24  1  0  0  0  0
 21 25  2  0  0  0  0
 22 26  1  0  0  0  0
 22 42  1  0  0  0  0
 23 24  2  0  0  0  0
 23 43  1  0  0  0  0
 24 44  1  0  0  0  0
 25 27  1  0  0  0  0
 25 45  1  0  0  0  0
 26 27  2  0  0  0  0
 26 46  1  0  0  0  0
 27 47  1  0  0  0  0
M  END
> <PUBCHEM_COMPOUND_CID>
10546579

> <PUBCHEM_COMPOUND_CANONICALIZED>
1

> <PUBCHEM_CACTVS_COMPLEXITY>
515

> <PUBCHEM_CACTVS_HBOND_ACCEPTOR>
3

> <PUBCHEM_CACTVS_HBOND_DONOR>
2

> <PUBCHEM_CACTVS_ROTATABLE_BOND>
2

> <PUBCHEM_CACTVS_SUBSKEYS>
AAADceB7AYAAAAAAAAAAAAAAAAAAAWAAAAA8YMEAAAAAAFjB9AAAHQAQAAAADQjBHgwwwPLJkACgAyRiRACCgCAhAiAImaA4ZJgIIOLAkZGEIAhgkADIyAcQgMAOgAACAAASAAAAAAQAACQAAAAAAAAAAA==

> <PUBCHEM_IUPAC_OPENEYE_NAME>
6-fluoro-3-[(3R,4R)-4-fluoro-3-piperidyl]-2-(1-naphthyl)-1H-indole

> <PUBCHEM_IUPAC_CAS_NAME>
6-fluoro-3-[(3R,4R)-4-fluoro-3-piperidinyl]-2-(1-naphthalenyl)-1H-indole

> <PUBCHEM_IUPAC_NAME_MARKUP>
6-fluoro-3-[(3<I>R</I>,4<I>R</I>)-4-fluoropiperidin-3-yl]-2-naphthalen-1-yl-1<I>H</I>-indole

> <PUBCHEM_IUPAC_NAME>
6-fluoro-3-[(3R,4R)-4-fluoropiperidin-3-yl]-2-naphthalen-1-yl-1H-indole

> <PUBCHEM_IUPAC_SYSTEMATIC_NAME>
6-fluoranyl-3-[(3R,4R)-4-fluoranylpiperidin-3-yl]-2-naphthalen-1-yl-1H-indole

> <PUBCHEM_IUPAC_TRADITIONAL_NAME>
6-fluoro-3-[(3R,4R)-4-fluoro-3-piperidyl]-2-(1-naphthyl)-1H-indole

> <PUBCHEM_IUPAC_INCHI>
InChI=1S/C23H20F2N2/c24-15-8-9-18-21(12-15)27-23(22(18)19-13-26-11-10-20(19)25)17-7-3-5-14-4-1-2-6-16(14)17/h1-9,12,19-20,26-27H,10-11,13H2/t19-,20-/m1/s1

> <PUBCHEM_IUPAC_INCHIKEY>
XWGNKABGVNJFEL-WOJBJXKFSA-N

> <PUBCHEM_XLOGP3_AA>
5.2

> <PUBCHEM_EXACT_MASS>
362.15945497

> <PUBCHEM_MOLECULAR_FORMULA>
C23H20F2N2

> <PUBCHEM_MOLECULAR_WEIGHT>
362.4

> <PUBCHEM_OPENEYE_CAN_SMILES>
C1CNCC(C1F)C2=C(NC3=C2C=CC(=C3)F)C4=CC=CC5=CC=CC=C54

> <PUBCHEM_OPENEYE_ISO_SMILES>
C1CNC[C@H]([C@@H]1F)C2=C(NC3=C2C=CC(=C3)F)C4=CC=CC5=CC=CC=C54

> <PUBCHEM_CACTVS_TPSA>
27.8

> <PUBCHEM_MONOISOTOPIC_WEIGHT>
362.15945497

> <PUBCHEM_TOTAL_CHARGE>
0

> <PUBCHEM_HEAVY_ATOM_COUNT>
27

> <PUBCHEM_ATOM_DEF_STEREO_COUNT>
2

> <PUBCHEM_ATOM_UDEF_STEREO_COUNT>
0

> <PUBCHEM_BOND_DEF_STEREO_COUNT>
0

> <PUBCHEM_BOND_UDEF_STEREO_COUNT>
0

> <PUBCHEM_ISOTOPIC_ATOM_COUNT>
0

> <PUBCHEM_COMPONENT_COUNT>
1

> <PUBCHEM_CACTVS_TAUTO_COUNT>
-1

> <PUBCHEM_COORDINATE_TYPE>
1
5
255

> <PUBCHEM_BONDANNOTATIONS>
6  1  6
12  13  8
12  15  8
13  17  8
14  16  8
14  18  8
15  19  8
16  21  8
16  22  8
17  20  8
18  23  8
19  20  8
21  24  8
21  25  8
22  26  8
23  24  8
25  27  8
26  27  8
4  11  8
4  13  8
5  28  6
7  11  8
7  12  8

$$$$
