76324758
  -OEChem-09292322342D

 59 62  0     1  0  0  0  0  0999 V2000
    9.7942   -0.5173    0.0000 O   0  0  0  0  0  0  0  0  0  0  0  0
    2.8660    0.4827    0.0000 O   0  0  0  0  0  0  0  0  0  0  0  0
   14.1923    0.9552    0.0000 O   0  5  0  0  0  0  0  0  0  0  0  0
   13.3205   -0.5415    0.0000 O   0  0  0  0  0  0  0  0  0  0  0  0
    6.3301    0.4827    0.0000 N   0  0  0  0  0  0  0  0  0  0  0  0
    4.5981   -0.5173    0.0000 N   0  0  0  0  0  0  0  0  0  0  0  0
   13.3244    0.4585    0.0000 N   0  3  0  0  0  0  0  0  0  0  0  0
    8.9282    0.9827    0.0000 C   0  0  3  0  0  0  0  0  0  0  0  0
    8.0622    0.4827    0.0000 C   0  0  0  0  0  0  0  0  0  0  0  0
    9.7942    0.4827    0.0000 C   0  0  3  0  0  0  0  0  0  0  0  0
    8.9282    1.9827    0.0000 C   0  0  0  0  0  0  0  0  0  0  0  0
    7.1962    0.9827    0.0000 C   0  0  0  0  0  0  0  0  0  0  0  0
    9.7942    2.4827    0.0000 C   0  0  0  0  0  0  0  0  0  0  0  0
   10.6603    0.9827    0.0000 C   0  0  0  0  0  0  0  0  0  0  0  0
   10.6603    1.9827    0.0000 C   0  0  0  0  0  0  0  0  0  0  0  0
    5.4641    0.9827    0.0000 C   0  0  0  0  0  0  0  0  0  0  0  0
    6.3301   -0.5173    0.0000 C   0  0  0  0  0  0  0  0  0  0  0  0
    4.5981    0.4827    0.0000 C   0  0  0  0  0  0  0  0  0  0  0  0
    5.4641   -1.0173    0.0000 C   0  0  0  0  0  0  0  0  0  0  0  0
   11.5542    0.4480    0.0000 C   0  0  0  0  0  0  0  0  0  0  0  0
   11.5542    2.5173    0.0000 C   0  0  0  0  0  0  0  0  0  0  0  0
    3.7320   -1.0173    0.0000 C   0  0  0  0  0  0  0  0  0  0  0  0
   12.4603    0.9619    0.0000 C   0  0  0  0  0  0  0  0  0  0  0  0
   12.4603    2.0035    0.0000 C   0  0  0  0  0  0  0  0  0  0  0  0
    2.8660   -0.5173    0.0000 C   0  0  0  0  0  0  0  0  0  0  0  0
    3.7320   -2.0173    0.0000 C   0  0  0  0  0  0  0  0  0  0  0  0
    2.0000   -1.0173    0.0000 C   0  0  0  0  0  0  0  0  0  0  0  0
    2.8660   -2.5173    0.0000 C   0  0  0  0  0  0  0  0  0  0  0  0
    2.0000   -2.0173    0.0000 C   0  0  0  0  0  0  0  0  0  0  0  0
    2.0000    0.9827    0.0000 C   0  0  0  0  0  0  0  0  0  0  0  0
    8.9282    0.3627    0.0000 H   0  0  0  0  0  0  0  0  0  0  0  0
    7.6636    0.0077    0.0000 H   0  0  0  0  0  0  0  0  0  0  0  0
    8.4607    0.0077    0.0000 H   0  0  0  0  0  0  0  0  0  0  0  0
   10.3312    0.1727    0.0000 H   0  0  0  0  0  0  0  0  0  0  0  0
    8.7162    2.5653    0.0000 H   0  0  0  0  0  0  0  0  0  0  0  0
    8.3176    1.8750    0.0000 H   0  0  0  0  0  0  0  0  0  0  0  0
    7.5947    1.4576    0.0000 H   0  0  0  0  0  0  0  0  0  0  0  0
    6.7976    1.4576    0.0000 H   0  0  0  0  0  0  0  0  0  0  0  0
   10.1928    2.9576    0.0000 H   0  0  0  0  0  0  0  0  0  0  0  0
    9.3957    2.9576    0.0000 H   0  0  0  0  0  0  0  0  0  0  0  0
    5.8626    1.4576    0.0000 H   0  0  0  0  0  0  0  0  0  0  0  0
    5.0656    1.4576    0.0000 H   0  0  0  0  0  0  0  0  0  0  0  0
    6.5422   -1.0999    0.0000 H   0  0  0  0  0  0  0  0  0  0  0  0
    6.9407   -0.4097    0.0000 H   0  0  0  0  0  0  0  0  0  0  0  0
    4.3860    1.0653    0.0000 H   0  0  0  0  0  0  0  0  0  0  0  0
    3.9875    0.3750    0.0000 H   0  0  0  0  0  0  0  0  0  0  0  0
    5.0656   -1.4923    0.0000 H   0  0  0  0  0  0  0  0  0  0  0  0
    5.8626   -1.4923    0.0000 H   0  0  0  0  0  0  0  0  0  0  0  0
   11.5470   -0.1720    0.0000 H   0  0  0  0  0  0  0  0  0  0  0  0
   11.5470    3.1373    0.0000 H   0  0  0  0  0  0  0  0  0  0  0  0
    9.2573   -0.8273    0.0000 H   0  0  0  0  0  0  0  0  0  0  0  0
   12.9960    2.3156    0.0000 H   0  0  0  0  0  0  0  0  0  0  0  0
    4.2690   -2.3273    0.0000 H   0  0  0  0  0  0  0  0  0  0  0  0
    1.4631   -0.7073    0.0000 H   0  0  0  0  0  0  0  0  0  0  0  0
    2.8660   -3.1373    0.0000 H   0  0  0  0  0  0  0  0  0  0  0  0
    1.4631   -2.3273    0.0000 H   0  0  0  0  0  0  0  0  0  0  0  0
    2.3100    1.5196    0.0000 H   0  0  0  0  0  0  0  0  0  0  0  0
    1.4631    1.2927    0.0000 H   0  0  0  0  0  0  0  0  0  0  0  0
    1.6900    0.4457    0.0000 H   0  0  0  0  0  0  0  0  0  0  0  0
  1 10  1  0  0  0  0
  1 51  1  0  0  0  0
  2 25  1  0  0  0  0
  2 30  1  0  0  0  0
  3  7  1  0  0  0  0
  4  7  2  0  0  0  0
  5 12  1  0  0  0  0
  5 16  1  0  0  0  0
  5 17  1  0  0  0  0
  6 18  1  0  0  0  0
  6 19  1  0  0  0  0
  6 22  1  0  0  0  0
  7 23  1  0  0  0  0
  8  9  1  0  0  0  0
  8 10  1  0  0  0  0
  8 11  1  0  0  0  0
  8 31  1  0  0  0  0
  9 12  1  0  0  0  0
  9 32  1  0  0  0  0
  9 33  1  0  0  0  0
 10 14  1  0  0  0  0
 10 34  1  0  0  0  0
 11 13  1  0  0  0  0
 11 35  1  0  0  0  0
 11 36  1  0  0  0  0
 12 37  1  0  0  0  0
 12 38  1  0  0  0  0
 13 15  1  0  0  0  0
 13 39  1  0  0  0  0
 13 40  1  0  0  0  0
 14 15  2  0  0  0  0
 14 20  1  0  0  0  0
 15 21  1  0  0  0  0
 16 18  1  0  0  0  0
 16 41  1  0  0  0  0
 16 42  1  0  0  0  0
 17 19  1  0  0  0  0
 17 43  1  0  0  0  0
 17 44  1  0  0  0  0
 18 45  1  0  0  0  0
 18 46  1  0  0  0  0
 19 47  1  0  0  0  0
 19 48  1  0  0  0  0
 20 23  2  0  0  0  0
 20 49  1  0  0  0  0
 21 24  2  0  0  0  0
 21 50  1  0  0  0  0
 22 25  1  0  0  0  0
 22 26  2  0  0  0  0
 23 24  1  0  0  0  0
 24 52  1  0  0  0  0
 25 27  2  0  0  0  0
 26 28  1  0  0  0  0
 26 53  1  0  0  0  0
 27 29  1  0  0  0  0
 27 54  1  0  0  0  0
 28 29  2  0  0  0  0
 28 55  1  0  0  0  0
 29 56  1  0  0  0  0
 30 57  1  0  0  0  0
 30 58  1  0  0  0  0
 30 59  1  0  0  0  0
M  CHG  2   3  -1   7   1
M  END
> <PUBCHEM_COMPOUND_CID>
76324758

> <PUBCHEM_COMPOUND_CANONICALIZED>
1

> <PUBCHEM_CACTVS_COMPLEXITY>
563

> <PUBCHEM_CACTVS_HBOND_ACCEPTOR>
6

> <PUBCHEM_CACTVS_HBOND_DONOR>
1

> <PUBCHEM_CACTVS_ROTATABLE_BOND>
5

> <PUBCHEM_CACTVS_SUBSKEYS>
AAADceB7OAAAAAAAAAAAAAAAAAAAAAAAAAA8YMEAAAAAAADBQAAAHgAECAAADRzhmAYyxoMQRgCBAiRCQwCCCAAhIgAoiAAPbIoOdiLEsZuVcChkwBHY+AewwPAOiAAAQAAQEACQAAaAADAgAAAAAAAAAA==

> <PUBCHEM_IUPAC_OPENEYE_NAME>
2-[2-[4-(2-methoxyphenyl)piperazin-1-yl]ethyl]-7-nitro-tetralin-1-ol

> <PUBCHEM_IUPAC_CAS_NAME>
2-[2-[4-(2-methoxyphenyl)-1-piperazinyl]ethyl]-7-nitro-1,2,3,4-tetrahydronaphthalen-1-ol

> <PUBCHEM_IUPAC_NAME_MARKUP>
2-[2-[4-(2-methoxyphenyl)piperazin-1-yl]ethyl]-7-nitro-1,2,3,4-tetrahydronaphthalen-1-ol

> <PUBCHEM_IUPAC_NAME>
2-[2-[4-(2-methoxyphenyl)piperazin-1-yl]ethyl]-7-nitro-1,2,3,4-tetrahydronaphthalen-1-ol

> <PUBCHEM_IUPAC_SYSTEMATIC_NAME>
2-[2-[4-(2-methoxyphenyl)piperazin-1-yl]ethyl]-7-nitro-1,2,3,4-tetrahydronaphthalen-1-ol

> <PUBCHEM_IUPAC_TRADITIONAL_NAME>
2-[2-[4-(2-methoxyphenyl)piperazino]ethyl]-7-nitro-tetralin-1-ol

> <PUBCHEM_IUPAC_INCHI>
InChI=1S/C23H29N3O4/c1-30-22-5-3-2-4-21(22)25-14-12-24(13-15-25)11-10-18-7-6-17-8-9-19(26(28)29)16-20(17)23(18)27/h2-5,8-9,16,18,23,27H,6-7,10-15H2,1H3

> <PUBCHEM_IUPAC_INCHIKEY>
FMPGJOKHIUMWLA-UHFFFAOYSA-N

> <PUBCHEM_XLOGP3_AA>
3.5

> <PUBCHEM_EXACT_MASS>
411.21580641

> <PUBCHEM_MOLECULAR_FORMULA>
C23H29N3O4

> <PUBCHEM_MOLECULAR_WEIGHT>
411.5

> <PUBCHEM_OPENEYE_CAN_SMILES>
COC1=CC=CC=C1N2CCN(CC2)CCC3CCC4=C(C3O)C=C(C=C4)[N+](=O)[O-]

> <PUBCHEM_OPENEYE_ISO_SMILES>
COC1=CC=CC=C1N2CCN(CC2)CCC3CCC4=C(C3O)C=C(C=C4)[N+](=O)[O-]

> <PUBCHEM_CACTVS_TPSA>
81.8

> <PUBCHEM_MONOISOTOPIC_WEIGHT>
411.21580641

> <PUBCHEM_TOTAL_CHARGE>
0

> <PUBCHEM_HEAVY_ATOM_COUNT>
30

> <PUBCHEM_ATOM_DEF_STEREO_COUNT>
0

> <PUBCHEM_ATOM_UDEF_STEREO_COUNT>
2

> <PUBCHEM_BOND_DEF_STEREO_COUNT>
0

> <PUBCHEM_BOND_UDEF_STEREO_COUNT>
0

> <PUBCHEM_ISOTOPIC_ATOM_COUNT>
0

> <PUBCHEM_COMPONENT_COUNT>
1

> <PUBCHEM_CACTVS_TAUTO_COUNT>
-1

> <PUBCHEM_COORDINATE_TYPE>
1
5
255

> <PUBCHEM_BONDANNOTATIONS>
10  1  3
14  15  8
14  20  8
15  21  8
20  23  8
21  24  8
22  25  8
22  26  8
23  24  8
25  27  8
26  28  8
27  29  8
28  29  8
8  9  3

$$$$
