155552000
  -OEChem-09292322062D

157161  0     1  0  0  0  0  0999 V2000
    2.0000    0.5087    0.0000 F   0  0  0  0  0  0  0  0  0  0  0  0
   11.2788    0.4807    0.0000 O   0  0  0  0  0  0  0  0  0  0  0  0
    6.5000   -0.3573    0.0000 O   0  0  0  0  0  0  0  0  0  0  0  0
   18.5155    0.6098    0.0000 O   0  0  0  0  0  0  0  0  0  0  0  0
   20.8381   -2.1480    0.0000 O   0  0  0  0  0  0  0  0  0  0  0  0
   24.3877   -1.5156    0.0000 O   0  0  0  0  0  0  0  0  0  0  0  0
   27.0238   -1.2899    0.0000 O   0  0  0  0  0  0  0  0  0  0  0  0
   30.5735   -0.6575    0.0000 O   0  0  0  0  0  0  0  0  0  0  0  0
   36.3411   -3.7775    0.0000 O   0  0  0  0  0  0  0  0  0  0  0  0
   33.3141    0.5627    0.0000 O   0  0  0  0  0  0  0  0  0  0  0  0
   31.9825   -3.8221    0.0000 O   0  0  0  0  0  0  0  0  0  0  0  0
   34.0186   -1.0196    0.0000 O   0  0  0  0  0  0  0  0  0  0  0  0
   38.8727   -4.5463    0.0000 O   0  0  0  0  0  0  0  0  0  0  0  0
   42.2133   -5.9029    0.0000 O   0  0  0  0  0  0  0  0  0  0  0  0
   11.5878    3.0498    0.0000 N   0  0  3  0  0  0  0  0  0  0  0  0
    9.0000    2.2408    0.0000 N   0  0  0  0  0  0  0  0  0  0  0  0
   12.5388    1.7408    0.0000 N   0  0  0  0  0  0  0  0  0  0  0  0
   17.4975   -0.7914    0.0000 N   0  0  0  0  0  0  0  0  0  0  0  0
   21.8561   -0.7468    0.0000 N   0  0  0  0  0  0  0  0  0  0  0  0
   32.1915   -1.8331    0.0000 N   0  0  3  0  0  0  0  0  0  0  0  0
   29.5554   -2.0588    0.0000 N   0  0  0  0  0  0  0  0  0  0  0  0
   33.7050   -4.0032    0.0000 N   0  0  0  0  0  0  0  0  0  0  0  0
   41.5088   -4.3206    0.0000 N   0  0  0  0  0  0  0  0  0  0  0  0
   11.0000    2.2408    0.0000 C   0  0  0  0  0  0  0  0  0  0  0  0
   10.5000    3.1068    0.0000 C   0  0  0  0  0  0  0  0  0  0  0  0
   10.5000    1.3747    0.0000 C   0  0  0  0  0  0  0  0  0  0  0  0
    9.5000    3.1068    0.0000 C   0  0  0  0  0  0  0  0  0  0  0  0
    9.5000    1.3747    0.0000 C   0  0  0  0  0  0  0  0  0  0  0  0
   11.5878    1.4317    0.0000 C   0  0  0  0  0  0  0  0  0  0  0  0
   12.5388    2.7408    0.0000 C   0  0  0  0  0  0  0  0  0  0  0  0
    8.0000    2.2408    0.0000 C   0  0  0  0  0  0  0  0  0  0  0  0
   11.2788    4.0008    0.0000 C   0  0  0  0  0  0  0  0  0  0  0  0
   13.3479    1.1530    0.0000 C   0  0  0  0  0  0  0  0  0  0  0  0
    7.5000    1.3747    0.0000 C   0  0  0  0  0  0  0  0  0  0  0  0
   14.2614    1.5597    0.0000 C   0  0  0  0  0  0  0  0  0  0  0  0
   11.9479    4.7440    0.0000 C   0  0  0  0  0  0  0  0  0  0  0  0
   10.3006    4.2087    0.0000 C   0  0  0  0  0  0  0  0  0  0  0  0
    6.5000    1.3747    0.0000 C   0  0  0  0  0  0  0  0  0  0  0  0
   15.0704    0.9719    0.0000 C   0  0  0  0  0  0  0  0  0  0  0  0
   11.6389    5.6950    0.0000 C   0  0  0  0  0  0  0  0  0  0  0  0
    9.9916    5.1598    0.0000 C   0  0  0  0  0  0  0  0  0  0  0  0
   10.6607    5.9029    0.0000 C   0  0  0  0  0  0  0  0  0  0  0  0
    6.0000    0.5087    0.0000 C   0  0  0  0  0  0  0  0  0  0  0  0
   14.9659   -0.0226    0.0000 C   0  0  0  0  0  0  0  0  0  0  0  0
   15.9840    1.3787    0.0000 C   0  0  0  0  0  0  0  0  0  0  0  0
    5.0000    0.5087    0.0000 C   0  0  0  0  0  0  0  0  0  0  0  0
   15.7749   -0.6104    0.0000 C   0  0  0  0  0  0  0  0  0  0  0  0
   16.7930    0.7909    0.0000 C   0  0  0  0  0  0  0  0  0  0  0  0
   16.6885   -0.2036    0.0000 C   0  0  0  0  0  0  0  0  0  0  0  0
    4.5000    1.3747    0.0000 C   0  0  0  0  0  0  0  0  0  0  0  0
    4.5000   -0.3573    0.0000 C   0  0  0  0  0  0  0  0  0  0  0  0
    3.5000    1.3747    0.0000 C   0  0  0  0  0  0  0  0  0  0  0  0
    3.5000   -0.3573    0.0000 C   0  0  0  0  0  0  0  0  0  0  0  0
    3.0000    0.5087    0.0000 C   0  0  0  0  0  0  0  0  0  0  0  0
   18.4110   -0.3847    0.0000 C   0  0  0  0  0  0  0  0  0  0  0  0
   19.2200   -0.9725    0.0000 C   0  0  0  0  0  0  0  0  0  0  0  0
   20.1336   -0.5657    0.0000 C   0  0  0  0  0  0  0  0  0  0  0  0
   20.9426   -1.1535    0.0000 C   0  0  0  0  0  0  0  0  0  0  0  0
   22.6652   -1.3346    0.0000 C   0  0  0  0  0  0  0  0  0  0  0  0
   23.5787   -0.9278    0.0000 C   0  0  0  0  0  0  0  0  0  0  0  0
   25.3013   -1.1089    0.0000 C   0  0  0  0  0  0  0  0  0  0  0  0
   26.1103   -1.6967    0.0000 C   0  0  0  0  0  0  0  0  0  0  0  0
   27.8328   -1.8777    0.0000 C   0  0  0  0  0  0  0  0  0  0  0  0
   31.2780   -2.2398    0.0000 C   0  0  0  0  0  0  0  0  0  0  0  0
   33.0005   -2.4209    0.0000 C   0  0  0  0  0  0  0  0  0  0  0  0
   28.7464   -1.4710    0.0000 C   0  0  0  0  0  0  0  0  0  0  0  0
   32.2960   -0.8386    0.0000 C   0  0  0  0  0  0  0  0  0  0  0  0
   30.4690   -1.6520    0.0000 C   0  0  0  0  0  0  0  0  0  0  0  0
   32.8960   -3.4154    0.0000 C   0  0  0  0  0  0  0  0  0  0  0  0
   34.6186   -3.5964    0.0000 C   0  0  0  0  0  0  0  0  0  0  0  0
   33.2096   -0.4318    0.0000 C   0  0  0  0  0  0  0  0  0  0  0  0
   35.4276   -4.1842    0.0000 C   0  0  0  0  0  0  0  0  0  0  0  0
   37.1501   -4.3653    0.0000 C   0  0  0  0  0  0  0  0  0  0  0  0
   38.0637   -3.9585    0.0000 C   0  0  0  0  0  0  0  0  0  0  0  0
   34.2277    0.9694    0.0000 C   0  0  0  0  0  0  0  0  0  0  0  0
   39.7863   -4.1396    0.0000 C   0  0  0  0  0  0  0  0  0  0  0  0
   40.5953   -4.7274    0.0000 C   0  0  0  0  0  0  0  0  0  0  0  0
   42.3178   -4.9084    0.0000 C   0  0  0  0  0  0  0  0  0  0  0  0
   43.2314   -4.5017    0.0000 C   0  0  0  0  0  0  0  0  0  0  0  0
   11.0826    3.3188    0.0000 H   0  0  0  0  0  0  0  0  0  0  0  0
   10.3923    3.7174    0.0000 H   0  0  0  0  0  0  0  0  0  0  0  0
   10.3923    0.7642    0.0000 H   0  0  0  0  0  0  0  0  0  0  0  0
   11.0826    1.1627    0.0000 H   0  0  0  0  0  0  0  0  0  0  0  0
    9.6077    3.7174    0.0000 H   0  0  0  0  0  0  0  0  0  0  0  0
    8.9174    3.3188    0.0000 H   0  0  0  0  0  0  0  0  0  0  0  0
    8.9174    1.1627    0.0000 H   0  0  0  0  0  0  0  0  0  0  0  0
    9.6077    0.7642    0.0000 H   0  0  0  0  0  0  0  0  0  0  0  0
   13.1554    2.6760    0.0000 H   0  0  0  0  0  0  0  0  0  0  0  0
   12.6677    3.3472    0.0000 H   0  0  0  0  0  0  0  0  0  0  0  0
    8.1077    2.8513    0.0000 H   0  0  0  0  0  0  0  0  0  0  0  0
    7.4174    2.4528    0.0000 H   0  0  0  0  0  0  0  0  0  0  0  0
   12.9019    0.7223    0.0000 H   0  0  0  0  0  0  0  0  0  0  0  0
   13.6946    0.6390    0.0000 H   0  0  0  0  0  0  0  0  0  0  0  0
    7.3923    0.7642    0.0000 H   0  0  0  0  0  0  0  0  0  0  0  0
    8.0826    1.1627    0.0000 H   0  0  0  0  0  0  0  0  0  0  0  0
   14.7074    1.9904    0.0000 H   0  0  0  0  0  0  0  0  0  0  0  0
   13.9147    2.0737    0.0000 H   0  0  0  0  0  0  0  0  0  0  0  0
   12.5544    4.6151    0.0000 H   0  0  0  0  0  0  0  0  0  0  0  0
    9.8858    3.7480    0.0000 H   0  0  0  0  0  0  0  0  0  0  0  0
    6.6077    1.9853    0.0000 H   0  0  0  0  0  0  0  0  0  0  0  0
    5.9174    1.5868    0.0000 H   0  0  0  0  0  0  0  0  0  0  0  0
   12.0537    6.1558    0.0000 H   0  0  0  0  0  0  0  0  0  0  0  0
    9.3852    5.2887    0.0000 H   0  0  0  0  0  0  0  0  0  0  0  0
   10.4691    6.4926    0.0000 H   0  0  0  0  0  0  0  0  0  0  0  0
   14.3995   -0.2748    0.0000 H   0  0  0  0  0  0  0  0  0  0  0  0
   16.0488    1.9953    0.0000 H   0  0  0  0  0  0  0  0  0  0  0  0
   15.7101   -1.2270    0.0000 H   0  0  0  0  0  0  0  0  0  0  0  0
   17.3594    1.0430    0.0000 H   0  0  0  0  0  0  0  0  0  0  0  0
    4.8100    1.9117    0.0000 H   0  0  0  0  0  0  0  0  0  0  0  0
    4.8100   -0.8943    0.0000 H   0  0  0  0  0  0  0  0  0  0  0  0
   17.4327   -1.4080    0.0000 H   0  0  0  0  0  0  0  0  0  0  0  0
    3.1900    1.9117    0.0000 H   0  0  0  0  0  0  0  0  0  0  0  0
    3.1900   -0.8943    0.0000 H   0  0  0  0  0  0  0  0  0  0  0  0
   18.7740   -1.4032    0.0000 H   0  0  0  0  0  0  0  0  0  0  0  0
   19.5667   -1.4865    0.0000 H   0  0  0  0  0  0  0  0  0  0  0  0
   20.5796   -0.1351    0.0000 H   0  0  0  0  0  0  0  0  0  0  0  0
   19.7869   -0.0517    0.0000 H   0  0  0  0  0  0  0  0  0  0  0  0
   21.9209   -0.1302    0.0000 H   0  0  0  0  0  0  0  0  0  0  0  0
   22.2192   -1.7653    0.0000 H   0  0  0  0  0  0  0  0  0  0  0  0
   23.0119   -1.8486    0.0000 H   0  0  0  0  0  0  0  0  0  0  0  0
   24.0247   -0.4972    0.0000 H   0  0  0  0  0  0  0  0  0  0  0  0
   23.2320   -0.4138    0.0000 H   0  0  0  0  0  0  0  0  0  0  0  0
   25.7473   -0.6782    0.0000 H   0  0  0  0  0  0  0  0  0  0  0  0
   24.9546   -0.5949    0.0000 H   0  0  0  0  0  0  0  0  0  0  0  0
   25.6643   -2.1274    0.0000 H   0  0  0  0  0  0  0  0  0  0  0  0
   26.4570   -2.2107    0.0000 H   0  0  0  0  0  0  0  0  0  0  0  0
   27.3869   -2.3084    0.0000 H   0  0  0  0  0  0  0  0  0  0  0  0
   28.1795   -2.3917    0.0000 H   0  0  0  0  0  0  0  0  0  0  0  0
   30.8320   -2.6705    0.0000 H   0  0  0  0  0  0  0  0  0  0  0  0
   31.6247   -2.7538    0.0000 H   0  0  0  0  0  0  0  0  0  0  0  0
   33.5965   -2.5918    0.0000 H   0  0  0  0  0  0  0  0  0  0  0  0
   33.2723   -1.8636    0.0000 H   0  0  0  0  0  0  0  0  0  0  0  0
   29.1924   -1.0403    0.0000 H   0  0  0  0  0  0  0  0  0  0  0  0
   28.3997   -0.9570    0.0000 H   0  0  0  0  0  0  0  0  0  0  0  0
   32.1461   -0.2370    0.0000 H   0  0  0  0  0  0  0  0  0  0  0  0
   31.6776   -0.8818    0.0000 H   0  0  0  0  0  0  0  0  0  0  0  0
   29.4906   -2.6754    0.0000 H   0  0  0  0  0  0  0  0  0  0  0  0
   33.6402   -4.6198    0.0000 H   0  0  0  0  0  0  0  0  0  0  0  0
   35.0646   -3.1658    0.0000 H   0  0  0  0  0  0  0  0  0  0  0  0
   34.2719   -3.0824    0.0000 H   0  0  0  0  0  0  0  0  0  0  0  0
   34.9816   -4.6149    0.0000 H   0  0  0  0  0  0  0  0  0  0  0  0
   35.7743   -4.6982    0.0000 H   0  0  0  0  0  0  0  0  0  0  0  0
   36.7042   -4.7960    0.0000 H   0  0  0  0  0  0  0  0  0  0  0  0
   37.4968   -4.8793    0.0000 H   0  0  0  0  0  0  0  0  0  0  0  0
   38.5097   -3.5278    0.0000 H   0  0  0  0  0  0  0  0  0  0  0  0
   37.7170   -3.4445    0.0000 H   0  0  0  0  0  0  0  0  0  0  0  0
   34.4798    0.4030    0.0000 H   0  0  0  0  0  0  0  0  0  0  0  0
   34.7941    1.2216    0.0000 H   0  0  0  0  0  0  0  0  0  0  0  0
   33.9755    1.5358    0.0000 H   0  0  0  0  0  0  0  0  0  0  0  0
   40.2322   -3.7089    0.0000 H   0  0  0  0  0  0  0  0  0  0  0  0
   39.4396   -3.6256    0.0000 H   0  0  0  0  0  0  0  0  0  0  0  0
   40.1493   -5.1581    0.0000 H   0  0  0  0  0  0  0  0  0  0  0  0
   40.9420   -5.2414    0.0000 H   0  0  0  0  0  0  0  0  0  0  0  0
   41.5736   -3.7040    0.0000 H   0  0  0  0  0  0  0  0  0  0  0  0
   43.4836   -5.0681    0.0000 H   0  0  0  0  0  0  0  0  0  0  0  0
   43.7978   -4.2495    0.0000 H   0  0  0  0  0  0  0  0  0  0  0  0
   42.9792   -3.9353    0.0000 H   0  0  0  0  0  0  0  0  0  0  0  0
  1 54  1  0  0  0  0
  2 29  2  0  0  0  0
  3 43  2  0  0  0  0
  4 55  2  0  0  0  0
  5 58  2  0  0  0  0
  6 60  1  0  0  0  0
  6 61  1  0  0  0  0
  7 62  1  0  0  0  0
  7 63  1  0  0  0  0
  8 68  2  0  0  0  0
  9 72  1  0  0  0  0
  9 73  1  0  0  0  0
 10 71  1  0  0  0  0
 10 75  1  0  0  0  0
 11 69  2  0  0  0  0
 12 71  2  0  0  0  0
 13 74  1  0  0  0  0
 13 76  1  0  0  0  0
 14 78  2  0  0  0  0
 15 24  1  0  0  0  0
 15 30  1  0  0  0  0
 15 32  1  0  0  0  0
 16 27  1  0  0  0  0
 16 28  1  0  0  0  0
 16 31  1  0  0  0  0
 17 29  1  0  0  0  0
 17 30  1  0  0  0  0
 17 33  1  0  0  0  0
 18 49  1  0  0  0  0
 18 55  1  0  0  0  0
 18111  1  0  0  0  0
 19 58  1  0  0  0  0
 19 59  1  0  0  0  0
 19118  1  0  0  0  0
 20 64  1  0  0  0  0
 20 65  1  0  0  0  0
 20 67  1  0  0  0  0
 21 66  1  0  0  0  0
 21 68  1  0  0  0  0
 21137  1  0  0  0  0
 22 69  1  0  0  0  0
 22 70  1  0  0  0  0
 22138  1  0  0  0  0
 23 77  1  0  0  0  0
 23 78  1  0  0  0  0
 23154  1  0  0  0  0
 24 25  1  0  0  0  0
 24 26  1  0  0  0  0
 24 29  1  0  0  0  0
 25 27  1  0  0  0  0
 25 80  1  0  0  0  0
 25 81  1  0  0  0  0
 26 28  1  0  0  0  0
 26 82  1  0  0  0  0
 26 83  1  0  0  0  0
 27 84  1  0  0  0  0
 27 85  1  0  0  0  0
 28 86  1  0  0  0  0
 28 87  1  0  0  0  0
 30 88  1  0  0  0  0
 30 89  1  0  0  0  0
 31 34  1  0  0  0  0
 31 90  1  0  0  0  0
 31 91  1  0  0  0  0
 32 36  2  0  0  0  0
 32 37  1  0  0  0  0
 33 35  1  0  0  0  0
 33 92  1  0  0  0  0
 33 93  1  0  0  0  0
 34 38  1  0  0  0  0
 34 94  1  0  0  0  0
 34 95  1  0  0  0  0
 35 39  1  0  0  0  0
 35 96  1  0  0  0  0
 35 97  1  0  0  0  0
 36 40  1  0  0  0  0
 36 98  1  0  0  0  0
 37 41  2  0  0  0  0
 37 99  1  0  0  0  0
 38 43  1  0  0  0  0
 38100  1  0  0  0  0
 38101  1  0  0  0  0
 39 44  2  0  0  0  0
 39 45  1  0  0  0  0
 40 42  2  0  0  0  0
 40102  1  0  0  0  0
 41 42  1  0  0  0  0
 41103  1  0  0  0  0
 42104  1  0  0  0  0
 43 46  1  0  0  0  0
 44 47  1  0  0  0  0
 44105  1  0  0  0  0
 45 48  2  0  0  0  0
 45106  1  0  0  0  0
 46 50  2  0  0  0  0
 46 51  1  0  0  0  0
 47 49  2  0  0  0  0
 47107  1  0  0  0  0
 48 49  1  0  0  0  0
 48108  1  0  0  0  0
 50 52  1  0  0  0  0
 50109  1  0  0  0  0
 51 53  2  0  0  0  0
 51110  1  0  0  0  0
 52 54  2  0  0  0  0
 52112  1  0  0  0  0
 53 54  1  0  0  0  0
 53113  1  0  0  0  0
 55 56  1  0  0  0  0
 56 57  1  0  0  0  0
 56114  1  0  0  0  0
 56115  1  0  0  0  0
 57 58  1  0  0  0  0
 57116  1  0  0  0  0
 57117  1  0  0  0  0
 59 60  1  0  0  0  0
 59119  1  0  0  0  0
 59120  1  0  0  0  0
 60121  1  0  0  0  0
 60122  1  0  0  0  0
 61 62  1  0  0  0  0
 61123  1  0  0  0  0
 61124  1  0  0  0  0
 62125  1  0  0  0  0
 62126  1  0  0  0  0
 63 66  1  0  0  0  0
 63127  1  0  0  0  0
 63128  1  0  0  0  0
 64 68  1  0  0  0  0
 64129  1  0  0  0  0
 64130  1  0  0  0  0
 65 69  1  0  0  0  0
 65131  1  0  0  0  0
 65132  1  0  0  0  0
 66133  1  0  0  0  0
 66134  1  0  0  0  0
 67 71  1  0  0  0  0
 67135  1  0  0  0  0
 67136  1  0  0  0  0
 70 72  1  0  0  0  0
 70139  1  0  0  0  0
 70140  1  0  0  0  0
 72141  1  0  0  0  0
 72142  1  0  0  0  0
 73 74  1  0  0  0  0
 73143  1  0  0  0  0
 73144  1  0  0  0  0
 74145  1  0  0  0  0
 74146  1  0  0  0  0
 75147  1  0  0  0  0
 75148  1  0  0  0  0
 75149  1  0  0  0  0
 76 77  1  0  0  0  0
 76150  1  0  0  0  0
 76151  1  0  0  0  0
 77152  1  0  0  0  0
 77153  1  0  0  0  0
 78 79  1  0  0  0  0
 79155  1  0  0  0  0
 79156  1  0  0  0  0
 79157  1  0  0  0  0
M  END
> <PUBCHEM_COMPOUND_CID>
155552000

> <PUBCHEM_COMPOUND_CANONICALIZED>
1

> <PUBCHEM_CACTVS_COMPLEXITY>
1870

> <PUBCHEM_CACTVS_HBOND_ACCEPTOR>
17

> <PUBCHEM_CACTVS_HBOND_DONOR>
5

> <PUBCHEM_CACTVS_ROTATABLE_BOND>
38

> <PUBCHEM_CACTVS_SUBSKEYS>
AAADcfB//QAAAAAAAAAAAAAAAAAAAWAAAAA8YMEAAAAAAAABUAAAHwAQAAAADIzhmA4zyIPABACIAqXSWACCAAAlAgAIiIGIZMiLYDLA1bGXIQholwLayacdiICOCAAAAAAAAAAQAAAAAAAAAAAAAAAAAA==

> <PUBCHEM_IUPAC_OPENEYE_NAME>
methyl 2-[[2-[2-[2-(2-acetamidoethoxy)ethoxy]ethylamino]-2-oxo-ethyl]-[2-[2-[2-[2-[[4-[4-[2-[8-[4-(4-fluorophenyl)-4-oxo-butyl]-4-oxo-1-phenyl-1,3,8-triazaspiro[4.5]decan-3-yl]ethyl]anilino]-4-oxo-butanoyl]amino]ethoxy]ethoxy]ethylamino]-2-oxo-ethyl]amino]acetate

> <PUBCHEM_IUPAC_CAS_NAME>
2-[[2-[2-[2-(2-acetamidoethoxy)ethoxy]ethylamino]-2-oxoethyl]-[2-[2-[2-[2-[[4-[4-[2-[8-[4-(4-fluorophenyl)-4-oxobutyl]-4-oxo-1-phenyl-1,3,8-triazaspiro[4.5]decan-3-yl]ethyl]anilino]-1,4-dioxobutyl]amino]ethoxy]ethoxy]ethylamino]-2-oxoethyl]amino]acetic acid methyl ester

> <PUBCHEM_IUPAC_NAME_MARKUP>
methyl 2-[[2-[2-[2-(2-acetamidoethoxy)ethoxy]ethylamino]-2-oxoethyl]-[2-[2-[2-[2-[[4-[4-[2-[8-[4-(4-fluorophenyl)-4-oxobutyl]-4-oxo-1-phenyl-1,3,8-triazaspiro[4.5]decan-3-yl]ethyl]anilino]-4-oxobutanoyl]amino]ethoxy]ethoxy]ethylamino]-2-oxoethyl]amino]acetate

> <PUBCHEM_IUPAC_NAME>
methyl 2-[[2-[2-[2-(2-acetamidoethoxy)ethoxy]ethylamino]-2-oxoethyl]-[2-[2-[2-[2-[[4-[4-[2-[8-[4-(4-fluorophenyl)-4-oxobutyl]-4-oxo-1-phenyl-1,3,8-triazaspiro[4.5]decan-3-yl]ethyl]anilino]-4-oxobutanoyl]amino]ethoxy]ethoxy]ethylamino]-2-oxoethyl]amino]acetate

> <PUBCHEM_IUPAC_SYSTEMATIC_NAME>
methyl 2-[[2-[2-[2-(2-acetamidoethoxy)ethoxy]ethylamino]-2-oxidanylidene-ethyl]-[2-[2-[2-[2-[[4-[[4-[2-[8-[4-(4-fluorophenyl)-4-oxidanylidene-butyl]-4-oxidanylidene-1-phenyl-1,3,8-triazaspiro[4.5]decan-3-yl]ethyl]phenyl]amino]-4-oxidanylidene-butanoyl]amino]ethoxy]ethoxy]ethylamino]-2-oxidanylidene-ethyl]amino]ethanoate

> <PUBCHEM_IUPAC_TRADITIONAL_NAME>
2-[[2-[2-[2-(2-acetamidoethoxy)ethoxy]ethylamino]-2-keto-ethyl]-[2-[2-[2-[2-[[4-[4-[2-[8-[4-(4-fluorophenyl)-4-keto-butyl]-4-keto-1-phenyl-1,3,8-triazaspiro[4.5]decan-3-yl]ethyl]anilino]-4-keto-butanoyl]amino]ethoxy]ethoxy]ethylamino]-2-keto-ethyl]amino]acetic acid methyl ester

> <PUBCHEM_IUPAC_INCHI>
InChI=1S/C56H78FN9O13/c1-43(67)58-23-31-76-35-36-78-33-25-60-52(71)39-64(41-54(73)75-2)40-53(72)61-26-34-79-38-37-77-32-24-59-50(69)18-19-51(70)62-47-16-10-44(11-17-47)20-28-65-42-66(48-7-4-3-5-8-48)56(55(65)74)21-29-63(30-22-56)27-6-9-49(68)45-12-14-46(57)15-13-45/h3-5,7-8,10-17H,6,9,18-42H2,1-2H3,(H,58,67)(H,59,69)(H,60,71)(H,61,72)(H,62,70)

> <PUBCHEM_IUPAC_INCHIKEY>
GCWQAOYJCGIKLW-UHFFFAOYSA-N

> <PUBCHEM_XLOGP3_AA>
1.3

> <PUBCHEM_EXACT_MASS>
1103.57031174

> <PUBCHEM_MOLECULAR_FORMULA>
C56H78FN9O13

> <PUBCHEM_MOLECULAR_WEIGHT>
1104.3

> <PUBCHEM_OPENEYE_CAN_SMILES>
CC(=O)NCCOCCOCCNC(=O)CN(CC(=O)NCCOCCOCCNC(=O)CCC(=O)NC1=CC=C(C=C1)CCN2CN(C3(C2=O)CCN(CC3)CCCC(=O)C4=CC=C(C=C4)F)C5=CC=CC=C5)CC(=O)OC

> <PUBCHEM_OPENEYE_ISO_SMILES>
CC(=O)NCCOCCOCCNC(=O)CN(CC(=O)NCCOCCOCCNC(=O)CCC(=O)NC1=CC=C(C=C1)CCN2CN(C3(C2=O)CCN(CC3)CCCC(=O)C4=CC=C(C=C4)F)C5=CC=CC=C5)CC(=O)OC

> <PUBCHEM_CACTVS_TPSA>
256

> <PUBCHEM_MONOISOTOPIC_WEIGHT>
1103.57031174

> <PUBCHEM_TOTAL_CHARGE>
0

> <PUBCHEM_HEAVY_ATOM_COUNT>
79

> <PUBCHEM_ATOM_DEF_STEREO_COUNT>
0

> <PUBCHEM_ATOM_UDEF_STEREO_COUNT>
0

> <PUBCHEM_BOND_DEF_STEREO_COUNT>
0

> <PUBCHEM_BOND_UDEF_STEREO_COUNT>
0

> <PUBCHEM_ISOTOPIC_ATOM_COUNT>
0

> <PUBCHEM_COMPONENT_COUNT>
1

> <PUBCHEM_CACTVS_TAUTO_COUNT>
-1

> <PUBCHEM_COORDINATE_TYPE>
1
5
255

> <PUBCHEM_BONDANNOTATIONS>
32  36  8
32  37  8
36  40  8
37  41  8
39  44  8
39  45  8
40  42  8
41  42  8
44  47  8
45  48  8
46  50  8
46  51  8
47  49  8
48  49  8
50  52  8
51  53  8
52  54  8
53  54  8

$$$$
