137646245
  -OEChem-09292322392D

 57 60  0     1  0  0  0  0  0999 V2000
    6.8671    2.2010    0.0000 O   0  0  0  0  0  0  0  0  0  0  0  0
    8.5991    1.2010    0.0000 O   0  0  0  0  0  0  0  0  0  0  0  0
    4.2690   -2.2990    0.0000 O   0  0  0  0  0  0  0  0  0  0  0  0
    2.5369   -3.2990    0.0000 O   0  0  0  0  0  0  0  0  0  0  0  0
    6.0010   -0.2990    0.0000 N   0  0  0  0  0  0  0  0  0  0  0  0
    7.7331    2.7010    0.0000 C   0  0  0  0  0  0  0  0  0  0  0  0
    6.8671    1.2010    0.0000 C   0  0  3  0  0  0  0  0  0  0  0  0
    8.5991    2.2010    0.0000 C   0  0  0  0  0  0  0  0  0  0  0  0
    7.7331    0.7010    0.0000 C   0  0  0  0  0  0  0  0  0  0  0  0
    8.6728    3.0430    0.0000 C   0  0  0  0  0  0  0  0  0  0  0  0
    7.2331    3.5670    0.0000 C   0  0  0  0  0  0  0  0  0  0  0  0
    6.0010    0.7010    0.0000 C   0  0  0  0  0  0  0  0  0  0  0  0
    8.8464    4.0278    0.0000 C   0  0  0  0  0  0  0  0  0  0  0  0
    6.2331    3.5670    0.0000 C   0  0  0  0  0  0  0  0  0  0  0  0
    9.4388    2.4002    0.0000 C   0  0  0  0  0  0  0  0  0  0  0  0
    7.7331    4.4330    0.0000 C   0  0  0  0  0  0  0  0  0  0  0  0
    5.1350   -0.7990    0.0000 C   0  0  0  0  0  0  0  0  0  0  0  0
    9.7861    4.3698    0.0000 C   0  0  0  0  0  0  0  0  0  0  0  0
    5.7331    4.4330    0.0000 C   0  0  0  0  0  0  0  0  0  0  0  0
   10.3785    2.7422    0.0000 C   0  0  0  0  0  0  0  0  0  0  0  0
    7.2331    5.2990    0.0000 C   0  0  0  0  0  0  0  0  0  0  0  0
   10.5522    3.7270    0.0000 C   0  0  0  0  0  0  0  0  0  0  0  0
    6.2331    5.2990    0.0000 C   0  0  0  0  0  0  0  0  0  0  0  0
    5.1350   -1.7990    0.0000 C   0  0  0  0  0  0  0  0  0  0  0  0
    4.2690   -3.2990    0.0000 C   0  0  0  0  0  0  0  0  0  0  0  0
    3.4030   -3.7990    0.0000 C   0  0  0  0  0  0  0  0  0  0  0  0
    5.1350   -3.7990    0.0000 C   0  0  0  0  0  0  0  0  0  0  0  0
    3.4030   -4.7990    0.0000 C   0  0  0  0  0  0  0  0  0  0  0  0
    5.1350   -4.7990    0.0000 C   0  0  0  0  0  0  0  0  0  0  0  0
    4.2690   -5.2990    0.0000 C   0  0  0  0  0  0  0  0  0  0  0  0
    6.3301    1.5110    0.0000 H   0  0  0  0  0  0  0  0  0  0  0  0
    9.2097    2.0933    0.0000 H   0  0  0  0  0  0  0  0  0  0  0  0
    8.8112    2.7836    0.0000 H   0  0  0  0  0  0  0  0  0  0  0  0
    7.3346    0.2260    0.0000 H   0  0  0  0  0  0  0  0  0  0  0  0
    8.1316    0.2260    0.0000 H   0  0  0  0  0  0  0  0  0  0  0  0
    5.7890    1.2836    0.0000 H   0  0  0  0  0  0  0  0  0  0  0  0
    5.3905    0.5933    0.0000 H   0  0  0  0  0  0  0  0  0  0  0  0
    6.5380   -0.6090    0.0000 H   0  0  0  0  0  0  0  0  0  0  0  0
    8.3715    4.4263    0.0000 H   0  0  0  0  0  0  0  0  0  0  0  0
    5.9231    3.0300    0.0000 H   0  0  0  0  0  0  0  0  0  0  0  0
    9.3312    1.7896    0.0000 H   0  0  0  0  0  0  0  0  0  0  0  0
    8.3531    4.4330    0.0000 H   0  0  0  0  0  0  0  0  0  0  0  0
    4.9230   -0.2164    0.0000 H   0  0  0  0  0  0  0  0  0  0  0  0
    4.5244   -0.9067    0.0000 H   0  0  0  0  0  0  0  0  0  0  0  0
    9.8938    4.9804    0.0000 H   0  0  0  0  0  0  0  0  0  0  0  0
    5.1131    4.4330    0.0000 H   0  0  0  0  0  0  0  0  0  0  0  0
   10.8535    2.3437    0.0000 H   0  0  0  0  0  0  0  0  0  0  0  0
    7.5431    5.8360    0.0000 H   0  0  0  0  0  0  0  0  0  0  0  0
   11.1348    3.9391    0.0000 H   0  0  0  0  0  0  0  0  0  0  0  0
    5.9231    5.8360    0.0000 H   0  0  0  0  0  0  0  0  0  0  0  0
    5.3471   -2.3816    0.0000 H   0  0  0  0  0  0  0  0  0  0  0  0
    5.7456   -1.6914    0.0000 H   0  0  0  0  0  0  0  0  0  0  0  0
    5.6720   -3.4890    0.0000 H   0  0  0  0  0  0  0  0  0  0  0  0
    2.8660   -5.1090    0.0000 H   0  0  0  0  0  0  0  0  0  0  0  0
    5.6720   -5.1090    0.0000 H   0  0  0  0  0  0  0  0  0  0  0  0
    4.2690   -5.9190    0.0000 H   0  0  0  0  0  0  0  0  0  0  0  0
    2.0000   -3.6090    0.0000 H   0  0  0  0  0  0  0  0  0  0  0  0
  1  6  1  0  0  0  0
  1  7  1  0  0  0  0
  2  8  1  0  0  0  0
  2  9  1  0  0  0  0
  3 24  1  0  0  0  0
  3 25  1  0  0  0  0
  4 26  1  0  0  0  0
  4 57  1  0  0  0  0
  5 12  1  0  0  0  0
  5 17  1  0  0  0  0
  5 38  1  0  0  0  0
  6  8  1  0  0  0  0
  6 10  1  0  0  0  0
  6 11  1  0  0  0  0
  7  9  1  0  0  0  0
  7 12  1  0  0  0  0
  7 31  1  0  0  0  0
  8 32  1  0  0  0  0
  8 33  1  0  0  0  0
  9 34  1  0  0  0  0
  9 35  1  0  0  0  0
 10 13  2  0  0  0  0
 10 15  1  0  0  0  0
 11 14  2  0  0  0  0
 11 16  1  0  0  0  0
 12 36  1  0  0  0  0
 12 37  1  0  0  0  0
 13 18  1  0  0  0  0
 13 39  1  0  0  0  0
 14 19  1  0  0  0  0
 14 40  1  0  0  0  0
 15 20  2  0  0  0  0
 15 41  1  0  0  0  0
 16 21  2  0  0  0  0
 16 42  1  0  0  0  0
 17 24  1  0  0  0  0
 17 43  1  0  0  0  0
 17 44  1  0  0  0  0
 18 22  2  0  0  0  0
 18 45  1  0  0  0  0
 19 23  2  0  0  0  0
 19 46  1  0  0  0  0
 20 22  1  0  0  0  0
 20 47  1  0  0  0  0
 21 23  1  0  0  0  0
 21 48  1  0  0  0  0
 22 49  1  0  0  0  0
 23 50  1  0  0  0  0
 24 51  1  0  0  0  0
 24 52  1  0  0  0  0
 25 26  1  0  0  0  0
 25 27  2  0  0  0  0
 26 28  2  0  0  0  0
 27 29  1  0  0  0  0
 27 53  1  0  0  0  0
 28 30  1  0  0  0  0
 28 54  1  0  0  0  0
 29 30  2  0  0  0  0
 29 55  1  0  0  0  0
 30 56  1  0  0  0  0
M  END
> <PUBCHEM_COMPOUND_CID>
137646245

> <PUBCHEM_COMPOUND_CANONICALIZED>
1

> <PUBCHEM_CACTVS_COMPLEXITY>
472

> <PUBCHEM_CACTVS_HBOND_ACCEPTOR>
5

> <PUBCHEM_CACTVS_HBOND_DONOR>
2

> <PUBCHEM_CACTVS_ROTATABLE_BOND>
8

> <PUBCHEM_CACTVS_SUBSKEYS>
AAADceB6OAAAAAAAAAAAAAAAAAAAAAAAAAA0YMEAAAAAAAABUAAAHgAQCAAADFThmAYwBoLABgCAAiBCAAACCAAgIAAIiIAOiIgPJiKGMRqHeCOm0BGbuAeAwOAOgAAAAAAAQAAAAAAAAACAAAAAAAAAAA==

> <PUBCHEM_IUPAC_OPENEYE_NAME>
2-[2-[(6,6-diphenyl-1,4-dioxan-2-yl)methylamino]ethoxy]phenol

> <PUBCHEM_IUPAC_CAS_NAME>
2-[2-[(6,6-diphenyl-1,4-dioxan-2-yl)methylamino]ethoxy]phenol

> <PUBCHEM_IUPAC_NAME_MARKUP>
2-[2-[(6,6-diphenyl-1,4-dioxan-2-yl)methylamino]ethoxy]phenol

> <PUBCHEM_IUPAC_NAME>
2-[2-[(6,6-diphenyl-1,4-dioxan-2-yl)methylamino]ethoxy]phenol

> <PUBCHEM_IUPAC_SYSTEMATIC_NAME>
2-[2-[(6,6-diphenyl-1,4-dioxan-2-yl)methylamino]ethoxy]phenol

> <PUBCHEM_IUPAC_TRADITIONAL_NAME>
2-[2-[(6,6-diphenyl-1,4-dioxan-2-yl)methylamino]ethoxy]phenol

> <PUBCHEM_IUPAC_INCHI>
InChI=1S/C25H27NO4/c27-23-13-7-8-14-24(23)29-16-15-26-17-22-18-28-19-25(30-22,20-9-3-1-4-10-20)21-11-5-2-6-12-21/h1-14,22,26-27H,15-19H2

> <PUBCHEM_IUPAC_INCHIKEY>
UUTWNAKPHRTMAJ-UHFFFAOYSA-N

> <PUBCHEM_XLOGP3_AA>
3.7

> <PUBCHEM_EXACT_MASS>
405.19400834

> <PUBCHEM_MOLECULAR_FORMULA>
C25H27NO4

> <PUBCHEM_MOLECULAR_WEIGHT>
405.5

> <PUBCHEM_OPENEYE_CAN_SMILES>
C1C(OC(CO1)(C2=CC=CC=C2)C3=CC=CC=C3)CNCCOC4=CC=CC=C4O

> <PUBCHEM_OPENEYE_ISO_SMILES>
C1C(OC(CO1)(C2=CC=CC=C2)C3=CC=CC=C3)CNCCOC4=CC=CC=C4O

> <PUBCHEM_CACTVS_TPSA>
60

> <PUBCHEM_MONOISOTOPIC_WEIGHT>
405.19400834

> <PUBCHEM_TOTAL_CHARGE>
0

> <PUBCHEM_HEAVY_ATOM_COUNT>
30

> <PUBCHEM_ATOM_DEF_STEREO_COUNT>
0

> <PUBCHEM_ATOM_UDEF_STEREO_COUNT>
1

> <PUBCHEM_BOND_DEF_STEREO_COUNT>
0

> <PUBCHEM_BOND_UDEF_STEREO_COUNT>
0

> <PUBCHEM_ISOTOPIC_ATOM_COUNT>
0

> <PUBCHEM_COMPONENT_COUNT>
1

> <PUBCHEM_CACTVS_TAUTO_COUNT>
-1

> <PUBCHEM_COORDINATE_TYPE>
1
5
255

> <PUBCHEM_BONDANNOTATIONS>
10  13  8
10  15  8
11  14  8
11  16  8
13  18  8
14  19  8
15  20  8
16  21  8
18  22  8
19  23  8
20  22  8
21  23  8
25  26  8
25  27  8
26  28  8
27  29  8
28  30  8
29  30  8
7  12  3

$$$$
