70690499
  -OEChem-09292322052D

 44 47  0     1  0  0  0  0  0999 V2000
    3.8372   -4.1192    0.0000 O   0  0  0  0  0  0  0  0  0  0  0  0
    5.6405   -3.0595    0.0000 O   0  0  0  0  0  0  0  0  0  0  0  0
    6.4361    3.6226    0.0000 O   0  0  0  0  0  0  0  0  0  0  0  0
    2.9180    0.5775    0.0000 N   0  0  3  0  0  0  0  0  0  0  0  0
    3.7841    0.0775    0.0000 C   0  0  1  0  0  0  0  0  0  0  0  0
    4.6501    0.5775    0.0000 C   0  0  0  0  0  0  0  0  0  0  0  0
    2.0080    0.0706    0.0000 C   0  0  0  0  0  0  0  0  0  0  0  0
    3.8001   -0.9640    0.0000 C   0  0  0  0  0  0  0  0  0  0  0  0
    2.9180    1.5775    0.0000 C   0  0  0  0  0  0  0  0  0  0  0  0
    2.0000   -0.9710    0.0000 C   0  0  0  0  0  0  0  0  0  0  0  0
    2.9021   -1.4918    0.0000 C   0  0  0  0  0  0  0  0  0  0  0  0
    4.6501    1.5775    0.0000 C   0  0  0  0  0  0  0  0  0  0  0  0
    3.7841    2.0775    0.0000 C   0  0  0  0  0  0  0  0  0  0  0  0
    4.7520   -1.4846    0.0000 C   0  0  0  0  0  0  0  0  0  0  0  0
    2.8937   -2.5768    0.0000 C   0  0  0  0  0  0  0  0  0  0  0  0
    5.5601    2.0843    0.0000 C   0  0  0  0  0  0  0  0  0  0  0  0
    3.7680    3.1190    0.0000 C   0  0  0  0  0  0  0  0  0  0  0  0
    4.7688   -2.5695    0.0000 C   0  0  0  0  0  0  0  0  0  0  0  0
    3.8334   -3.1192    0.0000 C   0  0  0  0  0  0  0  0  0  0  0  0
    5.5681    3.1259    0.0000 C   0  0  0  0  0  0  0  0  0  0  0  0
    4.6660    3.6467    0.0000 C   0  0  0  0  0  0  0  0  0  0  0  0
    2.9731   -4.6226    0.0000 C   0  0  0  0  0  0  0  0  0  0  0  0
    6.4399    4.6226    0.0000 C   0  0  0  0  0  0  0  0  0  0  0  0
    4.5234   -0.3418    0.0000 H   0  0  0  0  0  0  0  0  0  0  0  0
    4.8621   -0.0051    0.0000 H   0  0  0  0  0  0  0  0  0  0  0  0
    5.2607    0.6851    0.0000 H   0  0  0  0  0  0  0  0  0  0  0  0
    1.8035    0.6559    0.0000 H   0  0  0  0  0  0  0  0  0  0  0  0
    1.3964   -0.0308    0.0000 H   0  0  0  0  0  0  0  0  0  0  0  0
    2.7060    2.1601    0.0000 H   0  0  0  0  0  0  0  0  0  0  0  0
    2.3074    1.4698    0.0000 H   0  0  0  0  0  0  0  0  0  0  0  0
    1.3900   -0.8602    0.0000 H   0  0  0  0  0  0  0  0  0  0  0  0
    1.7864   -1.5530    0.0000 H   0  0  0  0  0  0  0  0  0  0  0  0
    5.2829   -1.1644    0.0000 H   0  0  0  0  0  0  0  0  0  0  0  0
    2.3556   -2.8847    0.0000 H   0  0  0  0  0  0  0  0  0  0  0  0
    6.0934    1.7681    0.0000 H   0  0  0  0  0  0  0  0  0  0  0  0
    3.2275    3.4228    0.0000 H   0  0  0  0  0  0  0  0  0  0  0  0
    4.6636    4.2667    0.0000 H   0  0  0  0  0  0  0  0  0  0  0  0
    5.6477   -3.6794    0.0000 H   0  0  0  0  0  0  0  0  0  0  0  0
    2.6610   -4.0868    0.0000 H   0  0  0  0  0  0  0  0  0  0  0  0
    2.4374   -4.9346    0.0000 H   0  0  0  0  0  0  0  0  0  0  0  0
    3.2852   -5.1583    0.0000 H   0  0  0  0  0  0  0  0  0  0  0  0
    7.0599    4.6202    0.0000 H   0  0  0  0  0  0  0  0  0  0  0  0
    6.4423    5.2426    0.0000 H   0  0  0  0  0  0  0  0  0  0  0  0
    5.8199    4.6250    0.0000 H   0  0  0  0  0  0  0  0  0  0  0  0
  1 19  1  0  0  0  0
  1 22  1  0  0  0  0
  2 18  1  0  0  0  0
  2 38  1  0  0  0  0
  3 20  1  0  0  0  0
  3 23  1  0  0  0  0
  4  5  1  0  0  0  0
  4  7  1  0  0  0  0
  4  9  1  0  0  0  0
  5  6  1  0  0  0  0
  5  8  1  0  0  0  0
  5 24  1  6  0  0  0
  6 12  1  0  0  0  0
  6 25  1  0  0  0  0
  6 26  1  0  0  0  0
  7 10  1  0  0  0  0
  7 27  1  0  0  0  0
  7 28  1  0  0  0  0
  8 11  1  0  0  0  0
  8 14  2  0  0  0  0
  9 13  1  0  0  0  0
  9 29  1  0  0  0  0
  9 30  1  0  0  0  0
 10 11  1  0  0  0  0
 10 31  1  0  0  0  0
 10 32  1  0  0  0  0
 11 15  2  0  0  0  0
 12 13  2  0  0  0  0
 12 16  1  0  0  0  0
 13 17  1  0  0  0  0
 14 18  1  0  0  0  0
 14 33  1  0  0  0  0
 15 19  1  0  0  0  0
 15 34  1  0  0  0  0
 16 20  2  0  0  0  0
 16 35  1  0  0  0  0
 17 21  2  0  0  0  0
 17 36  1  0  0  0  0
 18 19  2  0  0  0  0
 20 21  1  0  0  0  0
 21 37  1  0  0  0  0
 22 39  1  0  0  0  0
 22 40  1  0  0  0  0
 22 41  1  0  0  0  0
 23 42  1  0  0  0  0
 23 43  1  0  0  0  0
 23 44  1  0  0  0  0
M  END
> <PUBCHEM_COMPOUND_CID>
70690499

> <PUBCHEM_COMPOUND_CANONICALIZED>
1

> <PUBCHEM_CACTVS_COMPLEXITY>
417

> <PUBCHEM_CACTVS_HBOND_ACCEPTOR>
4

> <PUBCHEM_CACTVS_HBOND_DONOR>
1

> <PUBCHEM_CACTVS_ROTATABLE_BOND>
2

> <PUBCHEM_CACTVS_SUBSKEYS>
AAADceB6MAAAAAAAAAAAAAAAAAAAAAAAAAA8eIEAAAAAAACxQAAAHgAACAAADCzBmAYyBoMABgCAAiBCAACCCAAgIAAIiAAOjIgNJiKGsRuEcCtkwBGLuAew0PMOoAABAAAQQABAAAIAACCAAAAAAAAAAA==

> <PUBCHEM_IUPAC_OPENEYE_NAME>
(13aS)-3,11-dimethoxy-6,8,13,13a-tetrahydro-5H-isoquinolino[2,1-b]isoquinolin-2-ol

> <PUBCHEM_IUPAC_CAS_NAME>
(13aS)-3,11-dimethoxy-6,8,13,13a-tetrahydro-5H-isoquinolino[2,1-b]isoquinolin-2-ol

> <PUBCHEM_IUPAC_NAME_MARKUP>
(13<I>a</I><I>S</I>)-3,11-dimethoxy-6,8,13,13<I>a</I>-tetrahydro-5<I>H</I>-isoquinolino[2,1-b]isoquinolin-2-ol

> <PUBCHEM_IUPAC_NAME>
(13aS)-3,11-dimethoxy-6,8,13,13a-tetrahydro-5H-isoquinolino[2,1-b]isoquinolin-2-ol

> <PUBCHEM_IUPAC_SYSTEMATIC_NAME>
(13aS)-3,11-dimethoxy-6,8,13,13a-tetrahydro-5H-isoquinolino[2,1-b]isoquinolin-2-ol

> <PUBCHEM_IUPAC_TRADITIONAL_NAME>
(13aS)-3,11-dimethoxy-6,8,13,13a-tetrahydro-5H-isoquinolin[2,1-b]isoquinolin-2-ol

> <PUBCHEM_IUPAC_INCHI>
InChI=1S/C19H21NO3/c1-22-15-4-3-13-11-20-6-5-12-9-19(23-2)18(21)10-16(12)17(20)8-14(13)7-15/h3-4,7,9-10,17,21H,5-6,8,11H2,1-2H3/t17-/m0/s1

> <PUBCHEM_IUPAC_INCHIKEY>
XZPOSTRUOZYGKG-KRWDZBQOSA-N

> <PUBCHEM_XLOGP3_AA>
2.9

> <PUBCHEM_EXACT_MASS>
311.15214353

> <PUBCHEM_MOLECULAR_FORMULA>
C19H21NO3

> <PUBCHEM_MOLECULAR_WEIGHT>
311.4

> <PUBCHEM_OPENEYE_CAN_SMILES>
COC1=CC2=C(CN3CCC4=CC(=C(C=C4C3C2)O)OC)C=C1

> <PUBCHEM_OPENEYE_ISO_SMILES>
COC1=CC2=C(CN3CCC4=CC(=C(C=C4[C@@H]3C2)O)OC)C=C1

> <PUBCHEM_CACTVS_TPSA>
41.9

> <PUBCHEM_MONOISOTOPIC_WEIGHT>
311.15214353

> <PUBCHEM_TOTAL_CHARGE>
0

> <PUBCHEM_HEAVY_ATOM_COUNT>
23

> <PUBCHEM_ATOM_DEF_STEREO_COUNT>
1

> <PUBCHEM_ATOM_UDEF_STEREO_COUNT>
0

> <PUBCHEM_BOND_DEF_STEREO_COUNT>
0

> <PUBCHEM_BOND_UDEF_STEREO_COUNT>
0

> <PUBCHEM_ISOTOPIC_ATOM_COUNT>
0

> <PUBCHEM_COMPONENT_COUNT>
1

> <PUBCHEM_CACTVS_TAUTO_COUNT>
-1

> <PUBCHEM_COORDINATE_TYPE>
1
5
255

> <PUBCHEM_BONDANNOTATIONS>
11  15  8
12  13  8
12  16  8
13  17  8
14  18  8
15  19  8
16  20  8
17  21  8
18  19  8
20  21  8
5  24  6
8  11  8
8  14  8

$$$$
