126533957
  -OEChem-09292322372D

 57 61  0     1  0  0  0  0  0999 V2000
    9.4372    2.2926    0.0000 S   0  0  0  0  0  0  0  0  0  0  0  0
    2.0000   -0.6643    0.0000 F   0  0  0  0  0  0  0  0  0  0  0  0
    5.2946   -1.7348    0.0000 F   0  0  0  0  0  0  0  0  0  0  0  0
    3.9563   -0.2485    0.0000 N   0  0  3  0  0  0  0  0  0  0  0  0
    6.4372    0.5606    0.0000 N   0  0  3  0  0  0  0  0  0  0  0  0
   11.0250    1.4836    0.0000 N   0  0  0  0  0  0  0  0  0  0  0  0
   11.0250    3.1016    0.0000 N   0  0  0  0  0  0  0  0  0  0  0  0
   11.9760    2.7926    0.0000 N   0  0  0  0  0  0  0  0  0  0  0  0
   13.6986    1.6116    0.0000 N   0  0  0  0  0  0  0  0  0  0  0  0
   13.4895   -0.3775    0.0000 N   0  0  0  0  0  0  0  0  0  0  0  0
    4.9074    1.0606    0.0000 C   0  0  3  0  0  0  0  0  0  0  0  0
    4.9074    0.0606    0.0000 C   0  0  3  0  0  0  0  0  0  0  0  0
    5.8536    1.3653    0.0000 C   0  0  0  0  0  0  0  0  0  0  0  0
    3.9563    1.3696    0.0000 C   0  0  0  0  0  0  0  0  0  0  0  0
    5.8536   -0.2442    0.0000 C   0  0  0  0  0  0  0  0  0  0  0  0
    3.3685    0.5606    0.0000 C   0  0  0  0  0  0  0  0  0  0  0  0
    7.4372    0.5606    0.0000 C   0  0  0  0  0  0  0  0  0  0  0  0
    3.6473   -1.1995    0.0000 C   0  0  0  0  0  0  0  0  0  0  0  0
    7.9372    1.4266    0.0000 C   0  0  0  0  0  0  0  0  0  0  0  0
    2.6691   -1.4074    0.0000 C   0  0  0  0  0  0  0  0  0  0  0  0
    4.3164   -1.9427    0.0000 C   0  0  0  0  0  0  0  0  0  0  0  0
    8.9372    1.4266    0.0000 C   0  0  0  0  0  0  0  0  0  0  0  0
    2.3601   -2.3585    0.0000 C   0  0  0  0  0  0  0  0  0  0  0  0
    4.0074   -2.8937    0.0000 C   0  0  0  0  0  0  0  0  0  0  0  0
    3.0292   -3.1016    0.0000 C   0  0  0  0  0  0  0  0  0  0  0  0
   10.4372    2.2926    0.0000 C   0  0  0  0  0  0  0  0  0  0  0  0
   11.9760    1.7926    0.0000 C   0  0  0  0  0  0  0  0  0  0  0  0
   10.7159    0.5325    0.0000 C   0  0  0  0  0  0  0  0  0  0  0  0
   12.7850    1.2048    0.0000 C   0  0  0  0  0  0  0  0  0  0  0  0
   12.6805    0.2103    0.0000 C   0  0  0  0  0  0  0  0  0  0  0  0
   14.5076    1.0238    0.0000 C   0  0  0  0  0  0  0  0  0  0  0  0
   14.4031    0.0293    0.0000 C   0  0  0  0  0  0  0  0  0  0  0  0
    4.9082    1.6806    0.0000 H   0  0  0  0  0  0  0  0  0  0  0  0
    4.9082   -0.5594    0.0000 H   0  0  0  0  0  0  0  0  0  0  0  0
    6.3910    1.6745    0.0000 H   0  0  0  0  0  0  0  0  0  0  0  0
    5.6025    1.9322    0.0000 H   0  0  0  0  0  0  0  0  0  0  0  0
    4.2085    1.9360    0.0000 H   0  0  0  0  0  0  0  0  0  0  0  0
    3.4194    1.6796    0.0000 H   0  0  0  0  0  0  0  0  0  0  0  0
    5.6025   -0.8111    0.0000 H   0  0  0  0  0  0  0  0  0  0  0  0
    6.3910   -0.5534    0.0000 H   0  0  0  0  0  0  0  0  0  0  0  0
    2.9078    0.9754    0.0000 H   0  0  0  0  0  0  0  0  0  0  0  0
    2.9078    0.1457    0.0000 H   0  0  0  0  0  0  0  0  0  0  0  0
    7.3295   -0.0500    0.0000 H   0  0  0  0  0  0  0  0  0  0  0  0
    8.0198    0.3485    0.0000 H   0  0  0  0  0  0  0  0  0  0  0  0
    8.0448    2.0372    0.0000 H   0  0  0  0  0  0  0  0  0  0  0  0
    7.3546    1.6386    0.0000 H   0  0  0  0  0  0  0  0  0  0  0  0
    8.8295    0.8160    0.0000 H   0  0  0  0  0  0  0  0  0  0  0  0
    9.5198    1.2145    0.0000 H   0  0  0  0  0  0  0  0  0  0  0  0
    1.7537   -2.4874    0.0000 H   0  0  0  0  0  0  0  0  0  0  0  0
    4.4222   -3.3545    0.0000 H   0  0  0  0  0  0  0  0  0  0  0  0
    2.8376   -3.6913    0.0000 H   0  0  0  0  0  0  0  0  0  0  0  0
   10.1263    0.7241    0.0000 H   0  0  0  0  0  0  0  0  0  0  0  0
   10.5244   -0.0571    0.0000 H   0  0  0  0  0  0  0  0  0  0  0  0
   11.3056    0.3409    0.0000 H   0  0  0  0  0  0  0  0  0  0  0  0
   12.1141   -0.0419    0.0000 H   0  0  0  0  0  0  0  0  0  0  0  0
   15.0740    1.2760    0.0000 H   0  0  0  0  0  0  0  0  0  0  0  0
   14.9047   -0.3352    0.0000 H   0  0  0  0  0  0  0  0  0  0  0  0
  1 22  1  0  0  0  0
  1 26  1  0  0  0  0
  2 20  1  0  0  0  0
  3 21  1  0  0  0  0
  4 12  1  0  0  0  0
  4 16  1  0  0  0  0
  4 18  1  0  0  0  0
  5 13  1  0  0  0  0
  5 15  1  0  0  0  0
  5 17  1  0  0  0  0
  6 26  1  0  0  0  0
  6 27  1  0  0  0  0
  6 28  1  0  0  0  0
  7  8  1  0  0  0  0
  7 26  2  0  0  0  0
  8 27  2  0  0  0  0
  9 29  2  0  0  0  0
  9 31  1  0  0  0  0
 10 30  2  0  0  0  0
 10 32  1  0  0  0  0
 11 12  1  0  0  0  0
 11 13  1  0  0  0  0
 11 14  1  0  0  0  0
 11 33  1  0  0  0  0
 12 15  1  0  0  0  0
 12 34  1  0  0  0  0
 13 35  1  0  0  0  0
 13 36  1  0  0  0  0
 14 16  1  0  0  0  0
 14 37  1  0  0  0  0
 14 38  1  0  0  0  0
 15 39  1  0  0  0  0
 15 40  1  0  0  0  0
 16 41  1  0  0  0  0
 16 42  1  0  0  0  0
 17 19  1  0  0  0  0
 17 43  1  0  0  0  0
 17 44  1  0  0  0  0
 18 20  2  0  0  0  0
 18 21  1  0  0  0  0
 19 22  1  0  0  0  0
 19 45  1  0  0  0  0
 19 46  1  0  0  0  0
 20 23  1  0  0  0  0
 21 24  2  0  0  0  0
 22 47  1  0  0  0  0
 22 48  1  0  0  0  0
 23 25  2  0  0  0  0
 23 49  1  0  0  0  0
 24 25  1  0  0  0  0
 24 50  1  0  0  0  0
 25 51  1  0  0  0  0
 27 29  1  0  0  0  0
 28 52  1  0  0  0  0
 28 53  1  0  0  0  0
 28 54  1  0  0  0  0
 29 30  1  0  0  0  0
 30 55  1  0  0  0  0
 31 32  2  0  0  0  0
 31 56  1  0  0  0  0
 32 57  1  0  0  0  0
M  END
> <PUBCHEM_COMPOUND_CID>
126533957

> <PUBCHEM_COMPOUND_CANONICALIZED>
1

> <PUBCHEM_CACTVS_COMPLEXITY>
609

> <PUBCHEM_CACTVS_HBOND_ACCEPTOR>
9

> <PUBCHEM_CACTVS_HBOND_DONOR>
0

> <PUBCHEM_CACTVS_ROTATABLE_BOND>
7

> <PUBCHEM_CACTVS_SUBSKEYS>
AAADceB7gYBAAAAAAAAAAAAAAAAAAWLFgAA8QAAAAAAWAAAB8AAAHQQIAAAADSjFVwy/0JcMEAiiATZnZACS0C9xErAd2CA4dJiIaOLg2ZGUIAhgiALIyAcQAAAKAAAAAAAAAAAAAAAAAAAAAAAAAAAAAA==

> <PUBCHEM_IUPAC_OPENEYE_NAME>
1-(2,6-difluorophenyl)-5-[3-[(4-methyl-5-pyrazin-2-yl-1,2,4-triazol-3-yl)sulfanyl]propyl]-2,3,3a,4,6,6a-hexahydropyrrolo[2,3-c]pyrrole

> <PUBCHEM_IUPAC_CAS_NAME>
1-(2,6-difluorophenyl)-5-[3-[[4-methyl-5-(2-pyrazinyl)-1,2,4-triazol-3-yl]thio]propyl]-2,3,3a,4,6,6a-hexahydropyrrolo[2,3-c]pyrrole

> <PUBCHEM_IUPAC_NAME_MARKUP>
1-(2,6-difluorophenyl)-5-[3-[(4-methyl-5-pyrazin-2-yl-1,2,4-triazol-3-yl)sulfanyl]propyl]-2,3,3<I>a</I>,4,6,6<I>a</I>-hexahydropyrrolo[2,3-c]pyrrole

> <PUBCHEM_IUPAC_NAME>
1-(2,6-difluorophenyl)-5-[3-[(4-methyl-5-pyrazin-2-yl-1,2,4-triazol-3-yl)sulfanyl]propyl]-2,3,3a,4,6,6a-hexahydropyrrolo[2,3-c]pyrrole

> <PUBCHEM_IUPAC_SYSTEMATIC_NAME>
1-[2,6-bis(fluoranyl)phenyl]-5-[3-[(4-methyl-5-pyrazin-2-yl-1,2,4-triazol-3-yl)sulfanyl]propyl]-2,3,3a,4,6,6a-hexahydropyrrolo[2,3-c]pyrrole

> <PUBCHEM_IUPAC_TRADITIONAL_NAME>
1-(2,6-difluorophenyl)-5-[3-[(4-methyl-5-pyrazin-2-yl-1,2,4-triazol-3-yl)thio]propyl]-2,3,3a,4,6,6a-hexahydropyrrolo[2,3-c]pyrrole

> <PUBCHEM_IUPAC_INCHI>
InChI=1S/C22H25F2N7S/c1-29-21(18-12-25-7-8-26-18)27-28-22(29)32-11-3-9-30-13-15-6-10-31(19(15)14-30)20-16(23)4-2-5-17(20)24/h2,4-5,7-8,12,15,19H,3,6,9-11,13-14H2,1H3

> <PUBCHEM_IUPAC_INCHIKEY>
XDPJGUWWXSDVTP-UHFFFAOYSA-N

> <PUBCHEM_XLOGP3_AA>
2.5

> <PUBCHEM_EXACT_MASS>
457.18602132

> <PUBCHEM_MOLECULAR_FORMULA>
C22H25F2N7S

> <PUBCHEM_MOLECULAR_WEIGHT>
457.5

> <PUBCHEM_OPENEYE_CAN_SMILES>
CN1C(=NN=C1SCCCN2CC3CCN(C3C2)C4=C(C=CC=C4F)F)C5=NC=CN=C5

> <PUBCHEM_OPENEYE_ISO_SMILES>
CN1C(=NN=C1SCCCN2CC3CCN(C3C2)C4=C(C=CC=C4F)F)C5=NC=CN=C5

> <PUBCHEM_CACTVS_TPSA>
88.3

> <PUBCHEM_MONOISOTOPIC_WEIGHT>
457.18602132

> <PUBCHEM_TOTAL_CHARGE>
0

> <PUBCHEM_HEAVY_ATOM_COUNT>
32

> <PUBCHEM_ATOM_DEF_STEREO_COUNT>
0

> <PUBCHEM_ATOM_UDEF_STEREO_COUNT>
2

> <PUBCHEM_BOND_DEF_STEREO_COUNT>
0

> <PUBCHEM_BOND_UDEF_STEREO_COUNT>
0

> <PUBCHEM_ISOTOPIC_ATOM_COUNT>
0

> <PUBCHEM_COMPONENT_COUNT>
1

> <PUBCHEM_CACTVS_TAUTO_COUNT>
-1

> <PUBCHEM_COORDINATE_TYPE>
1
5
255

> <PUBCHEM_BONDANNOTATIONS>
10  30  8
10  32  8
11  14  3
12  15  3
18  20  8
18  21  8
20  23  8
21  24  8
23  25  8
24  25  8
29  30  8
31  32  8
6  26  8
6  27  8
7  26  8
7  8  8
8  27  8
9  29  8
9  31  8

$$$$
