51356569
  -OEChem-09292321592D

 50 53  0     0  0  0  0  0  0999 V2000
    6.7619   -2.6097    0.0000 O   0  0  0  0  0  0  0  0  0  0  0  0
    6.7619    0.8544    0.0000 N   0  0  0  0  0  0  0  0  0  0  0  0
    4.6783    2.5252    0.0000 N   0  0  0  0  0  0  0  0  0  0  0  0
    4.6783    0.9157    0.0000 N   0  0  0  0  0  0  0  0  0  0  0  0
    7.7619   -0.8776    0.0000 C   0  0  0  0  0  0  0  0  0  0  0  0
    8.2619   -0.0116    0.0000 C   0  0  0  0  0  0  0  0  0  0  0  0
    6.7619   -0.8776    0.0000 C   0  0  0  0  0  0  0  0  0  0  0  0
    7.7619    0.8544    0.0000 C   0  0  0  0  0  0  0  0  0  0  0  0
    6.2619   -0.0116    0.0000 C   0  0  0  0  0  0  0  0  0  0  0  0
    8.2619   -1.7436    0.0000 C   0  0  0  0  0  0  0  0  0  0  0  0
    6.2619    1.7204    0.0000 C   0  0  0  0  0  0  0  0  0  0  0  0
    5.2619    1.7204    0.0000 C   0  0  0  0  0  0  0  0  0  0  0  0
    7.7619   -2.6097    0.0000 C   0  0  0  0  0  0  0  0  0  0  0  0
    9.2619   -1.7436    0.0000 C   0  0  0  0  0  0  0  0  0  0  0  0
    3.7320    2.2204    0.0000 C   0  0  0  0  0  0  0  0  0  0  0  0
    3.7320    1.2204    0.0000 C   0  0  0  0  0  0  0  0  0  0  0  0
    8.2619   -3.4757    0.0000 C   0  0  0  0  0  0  0  0  0  0  0  0
    9.7619   -2.6097    0.0000 C   0  0  0  0  0  0  0  0  0  0  0  0
    4.9889    3.4757    0.0000 C   0  0  0  0  0  0  0  0  0  0  0  0
    9.2619   -3.4757    0.0000 C   0  0  0  0  0  0  0  0  0  0  0  0
    2.8660    2.7204    0.0000 C   0  0  0  0  0  0  0  0  0  0  0  0
    2.8660    0.7204    0.0000 C   0  0  0  0  0  0  0  0  0  0  0  0
    2.0000    2.2204    0.0000 C   0  0  0  0  0  0  0  0  0  0  0  0
    2.0000    1.2204    0.0000 C   0  0  0  0  0  0  0  0  0  0  0  0
    6.2619   -3.4757    0.0000 C   0  0  0  0  0  0  0  0  0  0  0  0
    7.4519   -1.4146    0.0000 H   0  0  0  0  0  0  0  0  0  0  0  0
    8.7368   -0.4101    0.0000 H   0  0  0  0  0  0  0  0  0  0  0  0
    8.7368    0.3869    0.0000 H   0  0  0  0  0  0  0  0  0  0  0  0
    6.1793   -1.0897    0.0000 H   0  0  0  0  0  0  0  0  0  0  0  0
    6.8695   -1.4882    0.0000 H   0  0  0  0  0  0  0  0  0  0  0  0
    8.3445    1.0665    0.0000 H   0  0  0  0  0  0  0  0  0  0  0  0
    7.6542    1.4650    0.0000 H   0  0  0  0  0  0  0  0  0  0  0  0
    5.7869    0.3869    0.0000 H   0  0  0  0  0  0  0  0  0  0  0  0
    5.7869   -0.4101    0.0000 H   0  0  0  0  0  0  0  0  0  0  0  0
    6.8445    1.9325    0.0000 H   0  0  0  0  0  0  0  0  0  0  0  0
    6.1542    2.3310    0.0000 H   0  0  0  0  0  0  0  0  0  0  0  0
    9.5719   -1.2067    0.0000 H   0  0  0  0  0  0  0  0  0  0  0  0
    7.9519   -4.0126    0.0000 H   0  0  0  0  0  0  0  0  0  0  0  0
   10.3819   -2.6097    0.0000 H   0  0  0  0  0  0  0  0  0  0  0  0
    5.5783    3.2831    0.0000 H   0  0  0  0  0  0  0  0  0  0  0  0
    5.1815    4.0650    0.0000 H   0  0  0  0  0  0  0  0  0  0  0  0
    4.3996    3.6683    0.0000 H   0  0  0  0  0  0  0  0  0  0  0  0
    9.5719   -4.0126    0.0000 H   0  0  0  0  0  0  0  0  0  0  0  0
    2.8660    3.3404    0.0000 H   0  0  0  0  0  0  0  0  0  0  0  0
    2.8660    0.1004    0.0000 H   0  0  0  0  0  0  0  0  0  0  0  0
    1.4631    2.5304    0.0000 H   0  0  0  0  0  0  0  0  0  0  0  0
    1.4631    0.9104    0.0000 H   0  0  0  0  0  0  0  0  0  0  0  0
    5.7249   -3.1657    0.0000 H   0  0  0  0  0  0  0  0  0  0  0  0
    5.9519   -4.0126    0.0000 H   0  0  0  0  0  0  0  0  0  0  0  0
    6.7988   -3.7857    0.0000 H   0  0  0  0  0  0  0  0  0  0  0  0
  1 13  1  0  0  0  0
  1 25  1  0  0  0  0
  2  8  1  0  0  0  0
  2  9  1  0  0  0  0
  2 11  1  0  0  0  0
  3 12  1  0  0  0  0
  3 15  1  0  0  0  0
  3 19  1  0  0  0  0
  4 12  2  0  0  0  0
  4 16  1  0  0  0  0
  5  6  1  0  0  0  0
  5  7  1  0  0  0  0
  5 10  1  0  0  0  0
  5 26  1  0  0  0  0
  6  8  1  0  0  0  0
  6 27  1  0  0  0  0
  6 28  1  0  0  0  0
  7  9  1  0  0  0  0
  7 29  1  0  0  0  0
  7 30  1  0  0  0  0
  8 31  1  0  0  0  0
  8 32  1  0  0  0  0
  9 33  1  0  0  0  0
  9 34  1  0  0  0  0
 10 13  1  0  0  0  0
 10 14  2  0  0  0  0
 11 12  1  0  0  0  0
 11 35  1  0  0  0  0
 11 36  1  0  0  0  0
 13 17  2  0  0  0  0
 14 18  1  0  0  0  0
 14 37  1  0  0  0  0
 15 16  1  0  0  0  0
 15 21  2  0  0  0  0
 16 22  2  0  0  0  0
 17 20  1  0  0  0  0
 17 38  1  0  0  0  0
 18 20  2  0  0  0  0
 18 39  1  0  0  0  0
 19 40  1  0  0  0  0
 19 41  1  0  0  0  0
 19 42  1  0  0  0  0
 20 43  1  0  0  0  0
 21 23  1  0  0  0  0
 21 44  1  0  0  0  0
 22 24  1  0  0  0  0
 22 45  1  0  0  0  0
 23 24  2  0  0  0  0
 23 46  1  0  0  0  0
 24 47  1  0  0  0  0
 25 48  1  0  0  0  0
 25 49  1  0  0  0  0
 25 50  1  0  0  0  0
M  END
> <PUBCHEM_COMPOUND_CID>
51356569

> <PUBCHEM_COMPOUND_CANONICALIZED>
1

> <PUBCHEM_CACTVS_COMPLEXITY>
423

> <PUBCHEM_CACTVS_HBOND_ACCEPTOR>
3

> <PUBCHEM_CACTVS_HBOND_DONOR>
0

> <PUBCHEM_CACTVS_ROTATABLE_BOND>
4

> <PUBCHEM_CACTVS_SUBSKEYS>
AAADceB7IAAAAAAAAAAAAAAAAAAAAWAAAAA8YIAAAAAAAFgB9AAAHgAAAAAADQzBnwYz1rcMFACgAyZiZACCiC0hMqAJ2CA+fJiMbqLEuZuUMChswBPI6CeQ0OIOgAAAAAAIACAAAAAAABAAQAAAAAAAAA==

> <PUBCHEM_IUPAC_OPENEYE_NAME>
2-[[4-(2-methoxyphenyl)-1-piperidyl]methyl]-1-methyl-benzimidazole

> <PUBCHEM_IUPAC_CAS_NAME>
2-[[4-(2-methoxyphenyl)-1-piperidinyl]methyl]-1-methylbenzimidazole

> <PUBCHEM_IUPAC_NAME_MARKUP>
2-[[4-(2-methoxyphenyl)piperidin-1-yl]methyl]-1-methylbenzimidazole

> <PUBCHEM_IUPAC_NAME>
2-[[4-(2-methoxyphenyl)piperidin-1-yl]methyl]-1-methylbenzimidazole

> <PUBCHEM_IUPAC_SYSTEMATIC_NAME>
2-[[4-(2-methoxyphenyl)piperidin-1-yl]methyl]-1-methyl-benzimidazole

> <PUBCHEM_IUPAC_TRADITIONAL_NAME>
2-[[4-(2-methoxyphenyl)piperidino]methyl]-1-methyl-benzimidazole

> <PUBCHEM_IUPAC_INCHI>
InChI=1S/C21H25N3O/c1-23-19-9-5-4-8-18(19)22-21(23)15-24-13-11-16(12-14-24)17-7-3-6-10-20(17)25-2/h3-10,16H,11-15H2,1-2H3

> <PUBCHEM_IUPAC_INCHIKEY>
MJDLYRJRCRLNGE-UHFFFAOYSA-N

> <PUBCHEM_XLOGP3_AA>
3.5

> <PUBCHEM_EXACT_MASS>
335.199762429

> <PUBCHEM_MOLECULAR_FORMULA>
C21H25N3O

> <PUBCHEM_MOLECULAR_WEIGHT>
335.4

> <PUBCHEM_OPENEYE_CAN_SMILES>
CN1C2=CC=CC=C2N=C1CN3CCC(CC3)C4=CC=CC=C4OC

> <PUBCHEM_OPENEYE_ISO_SMILES>
CN1C2=CC=CC=C2N=C1CN3CCC(CC3)C4=CC=CC=C4OC

> <PUBCHEM_CACTVS_TPSA>
30.3

> <PUBCHEM_MONOISOTOPIC_WEIGHT>
335.199762429

> <PUBCHEM_TOTAL_CHARGE>
0

> <PUBCHEM_HEAVY_ATOM_COUNT>
25

> <PUBCHEM_ATOM_DEF_STEREO_COUNT>
0

> <PUBCHEM_ATOM_UDEF_STEREO_COUNT>
0

> <PUBCHEM_BOND_DEF_STEREO_COUNT>
0

> <PUBCHEM_BOND_UDEF_STEREO_COUNT>
0

> <PUBCHEM_ISOTOPIC_ATOM_COUNT>
0

> <PUBCHEM_COMPONENT_COUNT>
1

> <PUBCHEM_CACTVS_TAUTO_COUNT>
-1

> <PUBCHEM_COORDINATE_TYPE>
1
5
255

> <PUBCHEM_BONDANNOTATIONS>
10  13  8
10  14  8
13  17  8
14  18  8
15  16  8
15  21  8
16  22  8
17  20  8
18  20  8
21  23  8
22  24  8
23  24  8
3  12  8
3  15  8
4  12  8
4  16  8

$$$$
