44363213
  -OEChem-09292322212D

 77 82  0     1  0  0  0  0  0999 V2000
    6.3981    3.2157    0.0000 S   0  0  0  0  0  0  0  0  0  0  0  0
    6.8981    4.0817    0.0000 O   0  0  0  0  0  0  0  0  0  0  0  0
    5.8981    2.3497    0.0000 O   0  0  0  0  0  0  0  0  0  0  0  0
    9.8622    1.2157    0.0000 O   0  0  0  0  0  0  0  0  0  0  0  0
    8.8112   -3.0457    0.0000 N   0  0  3  0  0  0  0  0  0  0  0  0
    5.5321    3.7157    0.0000 N   0  0  3  0  0  0  0  0  0  0  0  0
    8.9392   -0.3721    0.0000 N   0  0  0  0  0  0  0  0  0  0  0  0
    9.4578   -3.8086    0.0000 C   0  0  3  0  0  0  0  0  0  0  0  0
    9.2645   -4.7897    0.0000 C   0  0  0  0  0  0  0  0  0  0  0  0
    7.8116   -3.0756    0.0000 C   0  0  0  0  0  0  0  0  0  0  0  0
    8.3769   -5.2503    0.0000 C   0  0  0  0  0  0  0  0  0  0  0  0
    7.2118   -3.8758    0.0000 C   0  0  0  0  0  0  0  0  0  0  0  0
    7.4634   -4.8436    0.0000 C   0  0  0  0  0  0  0  0  0  0  0  0
    9.2179   -2.1322    0.0000 C   0  0  0  0  0  0  0  0  0  0  0  0
   10.4256   -3.5570    0.0000 C   0  0  0  0  0  0  0  0  0  0  0  0
    8.6301   -1.3232    0.0000 C   0  0  0  0  0  0  0  0  0  0  0  0
   11.1274   -4.2693    0.0000 C   0  0  0  0  0  0  0  0  0  0  0  0
   10.6917   -2.5930    0.0000 C   0  0  0  0  0  0  0  0  0  0  0  0
    5.5321    4.7157    0.0000 C   0  0  0  0  0  0  0  0  0  0  0  0
    4.6660    3.2157    0.0000 C   0  0  0  0  0  0  0  0  0  0  0  0
    4.6660    5.2157    0.0000 C   0  0  0  0  0  0  0  0  0  0  0  0
    7.6301   -1.3232    0.0000 C   0  0  0  0  0  0  0  0  0  0  0  0
    8.1301    0.2157    0.0000 C   0  0  0  0  0  0  0  0  0  0  0  0
    3.8000    3.7157    0.0000 C   0  0  0  0  0  0  0  0  0  0  0  0
    3.8000    4.7157    0.0000 C   0  0  0  0  0  0  0  0  0  0  0  0
    7.3211   -0.3721    0.0000 C   0  0  0  0  0  0  0  0  0  0  0  0
    8.1301    1.2157    0.0000 C   0  0  0  0  0  0  0  0  0  0  0  0
    7.2641    2.7157    0.0000 C   0  0  0  0  0  0  0  0  0  0  0  0
   12.0953   -4.0178    0.0000 C   0  0  0  0  0  0  0  0  0  0  0  0
   11.6595   -2.3414    0.0000 C   0  0  0  0  0  0  0  0  0  0  0  0
    7.2641    1.7157    0.0000 C   0  0  0  0  0  0  0  0  0  0  0  0
   12.3613   -3.0538    0.0000 C   0  0  0  0  0  0  0  0  0  0  0  0
    2.9061    3.1810    0.0000 C   0  0  0  0  0  0  0  0  0  0  0  0
    2.9061    5.2503    0.0000 C   0  0  0  0  0  0  0  0  0  0  0  0
    8.9962    1.7157    0.0000 C   0  0  0  0  0  0  0  0  0  0  0  0
    8.1301    3.2157    0.0000 C   0  0  0  0  0  0  0  0  0  0  0  0
    8.9962    2.7157    0.0000 C   0  0  0  0  0  0  0  0  0  0  0  0
    2.0000    3.6949    0.0000 C   0  0  0  0  0  0  0  0  0  0  0  0
    2.0000    4.7365    0.0000 C   0  0  0  0  0  0  0  0  0  0  0  0
   10.7282    1.7157    0.0000 C   0  0  0  0  0  0  0  0  0  0  0  0
    9.6450   -3.2175    0.0000 H   0  0  0  0  0  0  0  0  0  0  0  0
    9.4205   -5.3898    0.0000 H   0  0  0  0  0  0  0  0  0  0  0  0
    9.8842   -4.7711    0.0000 H   0  0  0  0  0  0  0  0  0  0  0  0
    7.9314   -2.4673    0.0000 H   0  0  0  0  0  0  0  0  0  0  0  0
    7.2452   -2.8235    0.0000 H   0  0  0  0  0  0  0  0  0  0  0  0
    8.0050   -5.7464    0.0000 H   0  0  0  0  0  0  0  0  0  0  0  0
    8.7778   -5.7233    0.0000 H   0  0  0  0  0  0  0  0  0  0  0  0
    6.8109   -3.4028    0.0000 H   0  0  0  0  0  0  0  0  0  0  0  0
    6.6615   -4.1614    0.0000 H   0  0  0  0  0  0  0  0  0  0  0  0
    6.8437   -4.8622    0.0000 H   0  0  0  0  0  0  0  0  0  0  0  0
    7.3436   -5.4519    0.0000 H   0  0  0  0  0  0  0  0  0  0  0  0
    9.7319   -2.4789    0.0000 H   0  0  0  0  0  0  0  0  0  0  0  0
    9.6486   -1.6862    0.0000 H   0  0  0  0  0  0  0  0  0  0  0  0
   10.9625   -4.8670    0.0000 H   0  0  0  0  0  0  0  0  0  0  0  0
   10.2565   -2.1513    0.0000 H   0  0  0  0  0  0  0  0  0  0  0  0
    6.1426    4.6080    0.0000 H   0  0  0  0  0  0  0  0  0  0  0  0
    5.7441    5.2983    0.0000 H   0  0  0  0  0  0  0  0  0  0  0  0
    4.2675    2.7407    0.0000 H   0  0  0  0  0  0  0  0  0  0  0  0
    5.0646    2.7407    0.0000 H   0  0  0  0  0  0  0  0  0  0  0  0
    9.5288   -0.1805    0.0000 H   0  0  0  0  0  0  0  0  0  0  0  0
    5.0646    5.6906    0.0000 H   0  0  0  0  0  0  0  0  0  0  0  0
    4.2675    5.6906    0.0000 H   0  0  0  0  0  0  0  0  0  0  0  0
    7.2657   -1.8248    0.0000 H   0  0  0  0  0  0  0  0  0  0  0  0
    6.7315   -0.1805    0.0000 H   0  0  0  0  0  0  0  0  0  0  0  0
   12.5304   -4.4594    0.0000 H   0  0  0  0  0  0  0  0  0  0  0  0
   11.8244   -1.7438    0.0000 H   0  0  0  0  0  0  0  0  0  0  0  0
    6.7272    1.4057    0.0000 H   0  0  0  0  0  0  0  0  0  0  0  0
   12.9613   -2.8978    0.0000 H   0  0  0  0  0  0  0  0  0  0  0  0
    2.9132    2.5611    0.0000 H   0  0  0  0  0  0  0  0  0  0  0  0
    2.9132    5.8703    0.0000 H   0  0  0  0  0  0  0  0  0  0  0  0
    8.1301    3.8357    0.0000 H   0  0  0  0  0  0  0  0  0  0  0  0
    9.5331    3.0257    0.0000 H   0  0  0  0  0  0  0  0  0  0  0  0
    1.4643    3.3828    0.0000 H   0  0  0  0  0  0  0  0  0  0  0  0
    1.4643    5.0486    0.0000 H   0  0  0  0  0  0  0  0  0  0  0  0
   11.0382    1.1788    0.0000 H   0  0  0  0  0  0  0  0  0  0  0  0
   11.2651    2.0257    0.0000 H   0  0  0  0  0  0  0  0  0  0  0  0
   10.4182    2.2526    0.0000 H   0  0  0  0  0  0  0  0  0  0  0  0
  1  2  2  0  0  0  0
  1  3  2  0  0  0  0
  1  6  1  0  0  0  0
  1 28  1  0  0  0  0
  4 35  1  0  0  0  0
  4 40  1  0  0  0  0
  5  8  1  0  0  0  0
  5 10  1  0  0  0  0
  5 14  1  0  0  0  0
  6 19  1  0  0  0  0
  6 20  1  0  0  0  0
  7 16  1  0  0  0  0
  7 23  1  0  0  0  0
  7 60  1  0  0  0  0
  8  9  1  0  0  0  0
  8 15  1  0  0  0  0
  8 41  1  0  0  0  0
  9 11  1  0  0  0  0
  9 42  1  0  0  0  0
  9 43  1  0  0  0  0
 10 12  1  0  0  0  0
 10 44  1  0  0  0  0
 10 45  1  0  0  0  0
 11 13  1  0  0  0  0
 11 46  1  0  0  0  0
 11 47  1  0  0  0  0
 12 13  1  0  0  0  0
 12 48  1  0  0  0  0
 12 49  1  0  0  0  0
 13 50  1  0  0  0  0
 13 51  1  0  0  0  0
 14 16  1  0  0  0  0
 14 52  1  0  0  0  0
 14 53  1  0  0  0  0
 15 17  2  0  0  0  0
 15 18  1  0  0  0  0
 16 22  2  0  0  0  0
 17 29  1  0  0  0  0
 17 54  1  0  0  0  0
 18 30  2  0  0  0  0
 18 55  1  0  0  0  0
 19 21  1  0  0  0  0
 19 56  1  0  0  0  0
 19 57  1  0  0  0  0
 20 24  1  0  0  0  0
 20 58  1  0  0  0  0
 20 59  1  0  0  0  0
 21 25  1  0  0  0  0
 21 61  1  0  0  0  0
 21 62  1  0  0  0  0
 22 26  1  0  0  0  0
 22 63  1  0  0  0  0
 23 26  2  0  0  0  0
 23 27  1  0  0  0  0
 24 25  1  0  0  0  0
 24 33  2  0  0  0  0
 25 34  2  0  0  0  0
 26 64  1  0  0  0  0
 27 31  1  0  0  0  0
 27 35  2  0  0  0  0
 28 31  2  0  0  0  0
 28 36  1  0  0  0  0
 29 32  2  0  0  0  0
 29 65  1  0  0  0  0
 30 32  1  0  0  0  0
 30 66  1  0  0  0  0
 31 67  1  0  0  0  0
 32 68  1  0  0  0  0
 33 38  1  0  0  0  0
 33 69  1  0  0  0  0
 34 39  1  0  0  0  0
 34 70  1  0  0  0  0
 35 37  1  0  0  0  0
 36 37  2  0  0  0  0
 36 71  1  0  0  0  0
 37 72  1  0  0  0  0
 38 39  2  0  0  0  0
 38 73  1  0  0  0  0
 39 74  1  0  0  0  0
 40 75  1  0  0  0  0
 40 76  1  0  0  0  0
 40 77  1  0  0  0  0
M  END
> <PUBCHEM_COMPOUND_CID>
44363213

> <PUBCHEM_COMPOUND_CANONICALIZED>
1

> <PUBCHEM_CACTVS_COMPLEXITY>
903

> <PUBCHEM_CACTVS_HBOND_ACCEPTOR>
5

> <PUBCHEM_CACTVS_HBOND_DONOR>
1

> <PUBCHEM_CACTVS_ROTATABLE_BOND>
7

> <PUBCHEM_CACTVS_SUBSKEYS>
AAADcfB/MABAAAAAAAAAAAAAAAAAAWAAAAA8YMEABYAAAACx1AAAHgQQQAAADCzB3gYyh5PJlAKgAyRiRHDCiDAhIiAImTg+bJgMZuLEsZuUMChm0BHI6AeQwOAOgIAAgAAYAAABAAEAADAAAAAAAAAAAA==

> <PUBCHEM_IUPAC_OPENEYE_NAME>
2-[4-methoxy-3-[5-[(2-phenylazepan-1-yl)methyl]-1H-pyrrol-2-yl]phenyl]sulfonyl-3,4-dihydro-1H-isoquinoline

> <PUBCHEM_IUPAC_CAS_NAME>
2-[4-methoxy-3-[5-[(2-phenyl-1-azepanyl)methyl]-1H-pyrrol-2-yl]phenyl]sulfonyl-3,4-dihydro-1H-isoquinoline

> <PUBCHEM_IUPAC_NAME_MARKUP>
2-[4-methoxy-3-[5-[(2-phenylazepan-1-yl)methyl]-1<I>H</I>-pyrrol-2-yl]phenyl]sulfonyl-3,4-dihydro-1<I>H</I>-isoquinoline

> <PUBCHEM_IUPAC_NAME>
2-[4-methoxy-3-[5-[(2-phenylazepan-1-yl)methyl]-1H-pyrrol-2-yl]phenyl]sulfonyl-3,4-dihydro-1H-isoquinoline

> <PUBCHEM_IUPAC_SYSTEMATIC_NAME>
2-[4-methoxy-3-[5-[(2-phenylazepan-1-yl)methyl]-1H-pyrrol-2-yl]phenyl]sulfonyl-3,4-dihydro-1H-isoquinoline

> <PUBCHEM_IUPAC_TRADITIONAL_NAME>
2-[4-methoxy-3-[5-[(2-phenylazepan-1-yl)methyl]-1H-pyrrol-2-yl]phenyl]sulfonyl-3,4-dihydro-1H-isoquinoline

> <PUBCHEM_IUPAC_INCHI>
InChI=1S/C33H37N3O3S/c1-39-33-18-16-29(40(37,38)36-21-19-25-10-7-8-13-27(25)23-36)22-30(33)31-17-15-28(34-31)24-35-20-9-3-6-14-32(35)26-11-4-2-5-12-26/h2,4-5,7-8,10-13,15-18,22,32,34H,3,6,9,14,19-21,23-24H2,1H3

> <PUBCHEM_IUPAC_INCHIKEY>
FXOJKPLALHHTKM-UHFFFAOYSA-N

> <PUBCHEM_XLOGP3_AA>
5.6

> <PUBCHEM_EXACT_MASS>
555.25556322

> <PUBCHEM_MOLECULAR_FORMULA>
C33H37N3O3S

> <PUBCHEM_MOLECULAR_WEIGHT>
555.7

> <PUBCHEM_OPENEYE_CAN_SMILES>
COC1=C(C=C(C=C1)S(=O)(=O)N2CCC3=CC=CC=C3C2)C4=CC=C(N4)CN5CCCCCC5C6=CC=CC=C6

> <PUBCHEM_OPENEYE_ISO_SMILES>
COC1=C(C=C(C=C1)S(=O)(=O)N2CCC3=CC=CC=C3C2)C4=CC=C(N4)CN5CCCCCC5C6=CC=CC=C6

> <PUBCHEM_CACTVS_TPSA>
74

> <PUBCHEM_MONOISOTOPIC_WEIGHT>
555.25556322

> <PUBCHEM_TOTAL_CHARGE>
0

> <PUBCHEM_HEAVY_ATOM_COUNT>
40

> <PUBCHEM_ATOM_DEF_STEREO_COUNT>
0

> <PUBCHEM_ATOM_UDEF_STEREO_COUNT>
1

> <PUBCHEM_BOND_DEF_STEREO_COUNT>
0

> <PUBCHEM_BOND_UDEF_STEREO_COUNT>
0

> <PUBCHEM_ISOTOPIC_ATOM_COUNT>
0

> <PUBCHEM_COMPONENT_COUNT>
1

> <PUBCHEM_CACTVS_TAUTO_COUNT>
-1

> <PUBCHEM_COORDINATE_TYPE>
1
5
255

> <PUBCHEM_BONDANNOTATIONS>
15  17  8
15  18  8
16  22  8
17  29  8
18  30  8
22  26  8
23  26  8
24  25  8
24  33  8
25  34  8
27  31  8
27  35  8
28  31  8
28  36  8
29  32  8
30  32  8
33  38  8
34  39  8
35  37  8
36  37  8
38  39  8
7  16  8
7  23  8
8  15  3

$$$$
