44335722
  -OEChem-09292322152D

 53 56  0     0  0  0  0  0  0999 V2000
   11.1241   -4.0252    0.0000 Cl  0  0  0  0  0  0  0  0  0  0  0  0
    4.3211    0.0637    0.0000 O   0  0  0  0  0  0  0  0  0  0  0  0
    6.2781   -0.3487    0.0000 N   0  0  0  0  0  0  0  0  0  0  0  0
    6.8994   -2.2498    0.0000 N   0  0  0  0  0  0  0  0  0  0  0  0
    4.6783    1.7585    0.0000 N   0  0  0  0  0  0  0  0  0  0  0  0
    5.6103   -1.0930    0.0000 C   0  0  0  0  0  0  0  0  0  0  0  0
    7.2566   -0.5550    0.0000 C   0  0  0  0  0  0  0  0  0  0  0  0
    5.9209   -2.0436    0.0000 C   0  0  0  0  0  0  0  0  0  0  0  0
    7.5673   -1.5055    0.0000 C   0  0  0  0  0  0  0  0  0  0  0  0
    5.9674    0.6018    0.0000 C   0  0  0  0  0  0  0  0  0  0  0  0
    5.2619    2.5633    0.0000 C   0  0  0  0  0  0  0  0  0  0  0  0
    4.6783    3.3680    0.0000 C   0  0  0  0  0  0  0  0  0  0  0  0
    7.2101   -3.2003    0.0000 C   0  0  0  0  0  0  0  0  0  0  0  0
    3.7320    2.0633    0.0000 C   0  0  0  0  0  0  0  0  0  0  0  0
    3.7320    3.0633    0.0000 C   0  0  0  0  0  0  0  0  0  0  0  0
    4.9889    0.8080    0.0000 C   0  0  0  0  0  0  0  0  0  0  0  0
    2.8660    3.5633    0.0000 C   0  0  0  0  0  0  0  0  0  0  0  0
    8.1886   -3.4065    0.0000 C   0  0  0  0  0  0  0  0  0  0  0  0
    2.8660    1.5633    0.0000 C   0  0  0  0  0  0  0  0  0  0  0  0
    2.0000    3.0633    0.0000 C   0  0  0  0  0  0  0  0  0  0  0  0
    2.0000    2.0633    0.0000 C   0  0  0  0  0  0  0  0  0  0  0  0
    2.8660    4.5633    0.0000 C   0  0  0  0  0  0  0  0  0  0  0  0
    8.4993   -4.3570    0.0000 C   0  0  0  0  0  0  0  0  0  0  0  0
    8.8564   -2.6622    0.0000 C   0  0  0  0  0  0  0  0  0  0  0  0
    9.4778   -4.5633    0.0000 C   0  0  0  0  0  0  0  0  0  0  0  0
    9.8349   -2.8684    0.0000 C   0  0  0  0  0  0  0  0  0  0  0  0
   10.1456   -3.8190    0.0000 C   0  0  0  0  0  0  0  0  0  0  0  0
    5.2277   -0.6051    0.0000 H   0  0  0  0  0  0  0  0  0  0  0  0
    5.0633   -1.3851    0.0000 H   0  0  0  0  0  0  0  0  0  0  0  0
    7.8704   -0.4676    0.0000 H   0  0  0  0  0  0  0  0  0  0  0  0
    7.2772    0.0647    0.0000 H   0  0  0  0  0  0  0  0  0  0  0  0
    5.3071   -2.1309    0.0000 H   0  0  0  0  0  0  0  0  0  0  0  0
    5.9004   -2.6632    0.0000 H   0  0  0  0  0  0  0  0  0  0  0  0
    7.9498   -1.9934    0.0000 H   0  0  0  0  0  0  0  0  0  0  0  0
    8.1142   -1.2135    0.0000 H   0  0  0  0  0  0  0  0  0  0  0  0
    6.5812    0.6891    0.0000 H   0  0  0  0  0  0  0  0  0  0  0  0
    5.9880    1.2214    0.0000 H   0  0  0  0  0  0  0  0  0  0  0  0
    5.7227    2.1485    0.0000 H   0  0  0  0  0  0  0  0  0  0  0  0
    5.7227    2.9780    0.0000 H   0  0  0  0  0  0  0  0  0  0  0  0
    5.2156    3.6772    0.0000 H   0  0  0  0  0  0  0  0  0  0  0  0
    4.4272    3.9349    0.0000 H   0  0  0  0  0  0  0  0  0  0  0  0
    6.5963   -3.2876    0.0000 H   0  0  0  0  0  0  0  0  0  0  0  0
    7.1895   -3.8200    0.0000 H   0  0  0  0  0  0  0  0  0  0  0  0
    2.8660    0.9433    0.0000 H   0  0  0  0  0  0  0  0  0  0  0  0
    1.4631    3.3733    0.0000 H   0  0  0  0  0  0  0  0  0  0  0  0
    1.4631    1.7533    0.0000 H   0  0  0  0  0  0  0  0  0  0  0  0
    3.4860    4.5633    0.0000 H   0  0  0  0  0  0  0  0  0  0  0  0
    2.8660    5.1833    0.0000 H   0  0  0  0  0  0  0  0  0  0  0  0
    2.2460    4.5633    0.0000 H   0  0  0  0  0  0  0  0  0  0  0  0
    8.0852   -4.8185    0.0000 H   0  0  0  0  0  0  0  0  0  0  0  0
    8.6638   -2.0729    0.0000 H   0  0  0  0  0  0  0  0  0  0  0  0
    9.6704   -5.1526    0.0000 H   0  0  0  0  0  0  0  0  0  0  0  0
   10.2490   -2.4070    0.0000 H   0  0  0  0  0  0  0  0  0  0  0  0
  1 27  1  0  0  0  0
  2 16  2  0  0  0  0
  3  6  1  0  0  0  0
  3  7  1  0  0  0  0
  3 10  1  0  0  0  0
  4  8  1  0  0  0  0
  4  9  1  0  0  0  0
  4 13  1  0  0  0  0
  5 11  1  0  0  0  0
  5 14  1  0  0  0  0
  5 16  1  0  0  0  0
  6  8  1  0  0  0  0
  6 28  1  0  0  0  0
  6 29  1  0  0  0  0
  7  9  1  0  0  0  0
  7 30  1  0  0  0  0
  7 31  1  0  0  0  0
  8 32  1  0  0  0  0
  8 33  1  0  0  0  0
  9 34  1  0  0  0  0
  9 35  1  0  0  0  0
 10 16  1  0  0  0  0
 10 36  1  0  0  0  0
 10 37  1  0  0  0  0
 11 12  1  0  0  0  0
 11 38  1  0  0  0  0
 11 39  1  0  0  0  0
 12 15  1  0  0  0  0
 12 40  1  0  0  0  0
 12 41  1  0  0  0  0
 13 18  1  0  0  0  0
 13 42  1  0  0  0  0
 13 43  1  0  0  0  0
 14 15  1  0  0  0  0
 14 19  2  0  0  0  0
 15 17  2  0  0  0  0
 17 20  1  0  0  0  0
 17 22  1  0  0  0  0
 18 23  2  0  0  0  0
 18 24  1  0  0  0  0
 19 21  1  0  0  0  0
 19 44  1  0  0  0  0
 20 21  2  0  0  0  0
 20 45  1  0  0  0  0
 21 46  1  0  0  0  0
 22 47  1  0  0  0  0
 22 48  1  0  0  0  0
 22 49  1  0  0  0  0
 23 25  1  0  0  0  0
 23 50  1  0  0  0  0
 24 26  2  0  0  0  0
 24 51  1  0  0  0  0
 25 27  2  0  0  0  0
 25 52  1  0  0  0  0
 26 27  1  0  0  0  0
 26 53  1  0  0  0  0
M  END
> <PUBCHEM_COMPOUND_CID>
44335722

> <PUBCHEM_COMPOUND_CANONICALIZED>
1

> <PUBCHEM_CACTVS_COMPLEXITY>
500

> <PUBCHEM_CACTVS_HBOND_ACCEPTOR>
3

> <PUBCHEM_CACTVS_HBOND_DONOR>
0

> <PUBCHEM_CACTVS_ROTATABLE_BOND>
4

> <PUBCHEM_CACTVS_SUBSKEYS>
AAADceB7IAAEAAAAAAAAAAAAAAAAAWAAAAA8YIAAAAAAAFgBQAAAHgIAAAAADArBmCQywIMAAACIAiVSUACCAAAhBwAIiACIZogIYCLBk7GUIAhghgDIyAcQgIAOhAAAQAASAAAIAACAACQAAAAAAAAAAA==

> <PUBCHEM_IUPAC_OPENEYE_NAME>
2-[4-[(4-chlorophenyl)methyl]piperazin-1-yl]-1-(4-methylindolin-1-yl)ethanone

> <PUBCHEM_IUPAC_CAS_NAME>
2-[4-[(4-chlorophenyl)methyl]-1-piperazinyl]-1-(4-methyl-2,3-dihydroindol-1-yl)ethanone

> <PUBCHEM_IUPAC_NAME_MARKUP>
2-[4-[(4-chlorophenyl)methyl]piperazin-1-yl]-1-(4-methyl-2,3-dihydroindol-1-yl)ethanone

> <PUBCHEM_IUPAC_NAME>
2-[4-[(4-chlorophenyl)methyl]piperazin-1-yl]-1-(4-methyl-2,3-dihydroindol-1-yl)ethanone

> <PUBCHEM_IUPAC_SYSTEMATIC_NAME>
2-[4-[(4-chlorophenyl)methyl]piperazin-1-yl]-1-(4-methyl-2,3-dihydroindol-1-yl)ethanone

> <PUBCHEM_IUPAC_TRADITIONAL_NAME>
2-[4-(4-chlorobenzyl)piperazino]-1-(4-methylindolin-1-yl)ethanone

> <PUBCHEM_IUPAC_INCHI>
InChI=1S/C22H26ClN3O/c1-17-3-2-4-21-20(17)9-10-26(21)22(27)16-25-13-11-24(12-14-25)15-18-5-7-19(23)8-6-18/h2-8H,9-16H2,1H3

> <PUBCHEM_IUPAC_INCHIKEY>
FMTZLPYHNXPXCD-UHFFFAOYSA-N

> <PUBCHEM_XLOGP3_AA>
3.7

> <PUBCHEM_EXACT_MASS>
383.1764402

> <PUBCHEM_MOLECULAR_FORMULA>
C22H26ClN3O

> <PUBCHEM_MOLECULAR_WEIGHT>
383.9

> <PUBCHEM_OPENEYE_CAN_SMILES>
CC1=C2CCN(C2=CC=C1)C(=O)CN3CCN(CC3)CC4=CC=C(C=C4)Cl

> <PUBCHEM_OPENEYE_ISO_SMILES>
CC1=C2CCN(C2=CC=C1)C(=O)CN3CCN(CC3)CC4=CC=C(C=C4)Cl

> <PUBCHEM_CACTVS_TPSA>
26.8

> <PUBCHEM_MONOISOTOPIC_WEIGHT>
383.1764402

> <PUBCHEM_TOTAL_CHARGE>
0

> <PUBCHEM_HEAVY_ATOM_COUNT>
27

> <PUBCHEM_ATOM_DEF_STEREO_COUNT>
0

> <PUBCHEM_ATOM_UDEF_STEREO_COUNT>
0

> <PUBCHEM_BOND_DEF_STEREO_COUNT>
0

> <PUBCHEM_BOND_UDEF_STEREO_COUNT>
0

> <PUBCHEM_ISOTOPIC_ATOM_COUNT>
0

> <PUBCHEM_COMPONENT_COUNT>
1

> <PUBCHEM_CACTVS_TAUTO_COUNT>
-1

> <PUBCHEM_COORDINATE_TYPE>
1
5
255

> <PUBCHEM_BONDANNOTATIONS>
14  15  8
14  19  8
15  17  8
17  20  8
18  23  8
18  24  8
19  21  8
20  21  8
23  25  8
24  26  8
25  27  8
26  27  8

$$$$
