44378369
  -OEChem-09292322192D

 60 64  0     1  0  0  0  0  0999 V2000
    2.6066    5.9408    0.0000 F   0  0  0  0  0  0  0  0  0  0  0  0
    5.6200    2.4883    0.0000 O   0  0  0  0  0  0  0  0  0  0  0  0
    5.9632   -3.7307    0.0000 N   0  0  3  0  0  0  0  0  0  0  0  0
    4.6333   -0.9796    0.0000 N   0  0  3  0  0  0  0  0  0  0  0  0
    2.6200    2.4768    0.0000 N   0  0  0  0  0  0  0  0  0  0  0  0
    5.6541   -2.7796    0.0000 C   0  0  2  0  0  0  0  0  0  0  0  0
    4.6541   -2.7796    0.0000 C   0  0  1  0  0  0  0  0  0  0  0  0
    6.1888   -1.8857    0.0000 C   0  0  0  0  0  0  0  0  0  0  0  0
    4.1195   -1.8857    0.0000 C   0  0  0  0  0  0  0  0  0  0  0  0
    4.3451   -3.7307    0.0000 C   0  0  0  0  0  0  0  0  0  0  0  0
    5.1541   -4.3184    0.0000 C   0  0  0  0  0  0  0  0  0  0  0  0
    5.6750   -0.9796    0.0000 C   0  0  0  0  0  0  0  0  0  0  0  0
    6.9068   -3.9980    0.0000 C   0  0  0  0  0  0  0  0  0  0  0  0
    5.1167   -5.2985    0.0000 C   0  0  0  0  0  0  0  0  0  0  0  0
    7.2887   -4.9014    0.0000 C   0  0  0  0  0  0  0  0  0  0  0  0
    5.8579   -5.9408    0.0000 C   0  0  0  0  0  0  0  0  0  0  0  0
    4.1300   -0.1155    0.0000 C   0  0  0  0  0  0  0  0  0  0  0  0
    3.4700   -4.1816    0.0000 C   0  0  0  0  0  0  0  0  0  0  0  0
    6.8227   -5.7644    0.0000 C   0  0  0  0  0  0  0  0  0  0  0  0
    4.2256   -5.7169    0.0000 C   0  0  0  0  0  0  0  0  0  0  0  0
    3.4109   -5.1643    0.0000 C   0  0  0  0  0  0  0  0  0  0  0  0
    4.6267    0.7524    0.0000 C   0  0  0  0  0  0  0  0  0  0  0  0
    4.1233    1.6165    0.0000 C   0  0  0  0  0  0  0  0  0  0  0  0
    4.6200    2.4845    0.0000 C   0  0  0  0  0  0  0  0  0  0  0  0
    4.1166    3.3486    0.0000 C   0  0  0  0  0  0  0  0  0  0  0  0
    3.1166    3.3447    0.0000 C   0  0  0  0  0  0  0  0  0  0  0  0
    4.6133    4.2165    0.0000 C   0  0  0  0  0  0  0  0  0  0  0  0
    2.6133    4.2088    0.0000 C   0  0  0  0  0  0  0  0  0  0  0  0
    4.1100    5.0806    0.0000 C   0  0  0  0  0  0  0  0  0  0  0  0
    3.1100    5.0768    0.0000 C   0  0  0  0  0  0  0  0  0  0  0  0
    6.4988   -2.8750    0.0000 H   0  0  0  0  0  0  0  0  0  0  0  0
    3.8095   -2.8750    0.0000 H   0  0  0  0  0  0  0  0  0  0  0  0
    6.6586   -2.2903    0.0000 H   0  0  0  0  0  0  0  0  0  0  0  0
    6.6678   -1.4920    0.0000 H   0  0  0  0  0  0  0  0  0  0  0  0
    3.6405   -1.4920    0.0000 H   0  0  0  0  0  0  0  0  0  0  0  0
    3.6497   -2.2903    0.0000 H   0  0  0  0  0  0  0  0  0  0  0  0
    6.2587   -0.7705    0.0000 H   0  0  0  0  0  0  0  0  0  0  0  0
    5.5689   -0.3687    0.0000 H   0  0  0  0  0  0  0  0  0  0  0  0
    7.5174   -3.8902    0.0000 H   0  0  0  0  0  0  0  0  0  0  0  0
    6.9383   -3.3787    0.0000 H   0  0  0  0  0  0  0  0  0  0  0  0
    7.7547   -5.3103    0.0000 H   0  0  0  0  0  0  0  0  0  0  0  0
    7.7914   -4.5385    0.0000 H   0  0  0  0  0  0  0  0  0  0  0  0
    5.3575   -6.3068    0.0000 H   0  0  0  0  0  0  0  0  0  0  0  0
    6.1029   -6.5104    0.0000 H   0  0  0  0  0  0  0  0  0  0  0  0
    3.6535    0.2812    0.0000 H   0  0  0  0  0  0  0  0  0  0  0  0
    3.6566   -0.5159    0.0000 H   0  0  0  0  0  0  0  0  0  0  0  0
    2.9506   -3.8431    0.0000 H   0  0  0  0  0  0  0  0  0  0  0  0
    6.7952   -6.3838    0.0000 H   0  0  0  0  0  0  0  0  0  0  0  0
    7.4203   -5.9296    0.0000 H   0  0  0  0  0  0  0  0  0  0  0  0
    4.1769   -6.3350    0.0000 H   0  0  0  0  0  0  0  0  0  0  0  0
    2.8546   -5.4380    0.0000 H   0  0  0  0  0  0  0  0  0  0  0  0
    5.1031    0.3557    0.0000 H   0  0  0  0  0  0  0  0  0  0  0  0
    5.1001    1.1528    0.0000 H   0  0  0  0  0  0  0  0  0  0  0  0
    3.6468    2.0132    0.0000 H   0  0  0  0  0  0  0  0  0  0  0  0
    3.6499    1.2162    0.0000 H   0  0  0  0  0  0  0  0  0  0  0  0
    5.2333    4.2189    0.0000 H   0  0  0  0  0  0  0  0  0  0  0  0
    1.9933    4.2064    0.0000 H   0  0  0  0  0  0  0  0  0  0  0  0
    4.4179    5.6187    0.0000 H   0  0  0  0  0  0  0  0  0  0  0  0
    2.0000    2.4744    0.0000 H   0  0  0  0  0  0  0  0  0  0  0  0
    2.9321    1.9410    0.0000 H   0  0  0  0  0  0  0  0  0  0  0  0
  1 30  1  0  0  0  0
  2 24  2  0  0  0  0
  3  6  1  0  0  0  0
  3 11  1  0  0  0  0
  3 13  1  0  0  0  0
  4  9  1  0  0  0  0
  4 12  1  0  0  0  0
  4 17  1  0  0  0  0
  5 26  1  0  0  0  0
  5 59  1  0  0  0  0
  5 60  1  0  0  0  0
  6  7  1  0  0  0  0
  6  8  1  0  0  0  0
  6 31  1  1  0  0  0
  7  9  1  0  0  0  0
  7 10  1  0  0  0  0
  7 32  1  1  0  0  0
  8 12  1  0  0  0  0
  8 33  1  0  0  0  0
  8 34  1  0  0  0  0
  9 35  1  0  0  0  0
  9 36  1  0  0  0  0
 10 11  1  0  0  0  0
 10 18  2  0  0  0  0
 11 14  2  0  0  0  0
 12 37  1  0  0  0  0
 12 38  1  0  0  0  0
 13 15  1  0  0  0  0
 13 39  1  0  0  0  0
 13 40  1  0  0  0  0
 14 16  1  0  0  0  0
 14 20  1  0  0  0  0
 15 19  1  0  0  0  0
 15 41  1  0  0  0  0
 15 42  1  0  0  0  0
 16 19  1  0  0  0  0
 16 43  1  0  0  0  0
 16 44  1  0  0  0  0
 17 22  1  0  0  0  0
 17 45  1  0  0  0  0
 17 46  1  0  0  0  0
 18 21  1  0  0  0  0
 18 47  1  0  0  0  0
 19 48  1  0  0  0  0
 19 49  1  0  0  0  0
 20 21  2  0  0  0  0
 20 50  1  0  0  0  0
 21 51  1  0  0  0  0
 22 23  1  0  0  0  0
 22 52  1  0  0  0  0
 22 53  1  0  0  0  0
 23 24  1  0  0  0  0
 23 54  1  0  0  0  0
 23 55  1  0  0  0  0
 24 25  1  0  0  0  0
 25 26  2  0  0  0  0
 25 27  1  0  0  0  0
 26 28  1  0  0  0  0
 27 29  2  0  0  0  0
 27 56  1  0  0  0  0
 28 30  2  0  0  0  0
 28 57  1  0  0  0  0
 29 30  1  0  0  0  0
 29 58  1  0  0  0  0
M  END
> <PUBCHEM_COMPOUND_CID>
44378369

> <PUBCHEM_COMPOUND_CANONICALIZED>
1

> <PUBCHEM_CACTVS_COMPLEXITY>
615

> <PUBCHEM_CACTVS_HBOND_ACCEPTOR>
5

> <PUBCHEM_CACTVS_HBOND_DONOR>
1

> <PUBCHEM_CACTVS_ROTATABLE_BOND>
5

> <PUBCHEM_CACTVS_SUBSKEYS>
AAADceB7IQAAAAAAAAAAAAAAAAAAAWAAAAA8YIAABYAAAFixQAAAHwAQAAAADSzBmAwwwINAAACIAqRSQACCAAAlAgAIiAEIZMgIIDrA1ZGEIYhgkADIyccciMCOgAACAAACAAAAAAQAAAQAAAAAAAAAAA==

> <PUBCHEM_IUPAC_OPENEYE_NAME>
1-(2-amino-4-fluoro-phenyl)-4-[(11S,16R)-10,14-diazatetracyclo[8.6.1.05,17.011,16]heptadeca-1,3,5(17)-trien-14-yl]butan-1-one

> <PUBCHEM_IUPAC_CAS_NAME>
1-(2-amino-4-fluorophenyl)-4-[(11S,16R)-10,14-diazatetracyclo[8.6.1.05,17.011,16]heptadeca-1,3,5(17)-trien-14-yl]-1-butanone

> <PUBCHEM_IUPAC_NAME_MARKUP>
1-(2-amino-4-fluorophenyl)-4-[(11<I>S</I>,16<I>R</I>)-10,14-diazatetracyclo[8.6.1.0<SUP>5,17</SUP>.0<SUP>11,16</SUP>]heptadeca-1,3,5(17)-trien-14-yl]butan-1-one

> <PUBCHEM_IUPAC_NAME>
1-(2-amino-4-fluorophenyl)-4-[(11S,16R)-10,14-diazatetracyclo[8.6.1.05,17.011,16]heptadeca-1,3,5(17)-trien-14-yl]butan-1-one

> <PUBCHEM_IUPAC_SYSTEMATIC_NAME>
1-(2-azanyl-4-fluoranyl-phenyl)-4-[(11S,16R)-10,14-diazatetracyclo[8.6.1.05,17.011,16]heptadeca-1,3,5(17)-trien-14-yl]butan-1-one

> <PUBCHEM_IUPAC_TRADITIONAL_NAME>
1-(2-amino-4-fluoro-phenyl)-4-[(11S,16R)-10,14-diazatetracyclo[8.6.1.05,17.011,16]heptadeca-1,3,5(17)-trien-14-yl]butan-1-one

> <PUBCHEM_IUPAC_INCHI>
InChI=1S/C25H30FN3O/c26-18-9-10-20(22(27)15-18)24(30)8-4-12-28-14-11-23-21(16-28)19-7-3-6-17-5-1-2-13-29(23)25(17)19/h3,6-7,9-10,15,21,23H,1-2,4-5,8,11-14,16,27H2/t21-,23-/m0/s1

> <PUBCHEM_IUPAC_INCHIKEY>
HKELRUMBUSUQHV-GMAHTHKFSA-N

> <PUBCHEM_XLOGP3_AA>
4.5

> <PUBCHEM_EXACT_MASS>
407.23729075

> <PUBCHEM_MOLECULAR_FORMULA>
C25H30FN3O

> <PUBCHEM_MOLECULAR_WEIGHT>
407.5

> <PUBCHEM_OPENEYE_CAN_SMILES>
C1CCN2C3CCN(CC3C4=CC=CC(=C42)C1)CCCC(=O)C5=C(C=C(C=C5)F)N

> <PUBCHEM_OPENEYE_ISO_SMILES>
C1CCN2[C@H]3CCN(C[C@H]3C4=CC=CC(=C42)C1)CCCC(=O)C5=C(C=C(C=C5)F)N

> <PUBCHEM_CACTVS_TPSA>
49.6

> <PUBCHEM_MONOISOTOPIC_WEIGHT>
407.23729075

> <PUBCHEM_TOTAL_CHARGE>
0

> <PUBCHEM_HEAVY_ATOM_COUNT>
30

> <PUBCHEM_ATOM_DEF_STEREO_COUNT>
2

> <PUBCHEM_ATOM_UDEF_STEREO_COUNT>
0

> <PUBCHEM_BOND_DEF_STEREO_COUNT>
0

> <PUBCHEM_BOND_UDEF_STEREO_COUNT>
0

> <PUBCHEM_ISOTOPIC_ATOM_COUNT>
0

> <PUBCHEM_COMPONENT_COUNT>
1

> <PUBCHEM_CACTVS_TAUTO_COUNT>
-1

> <PUBCHEM_COORDINATE_TYPE>
1
5
255

> <PUBCHEM_BONDANNOTATIONS>
10  11  8
10  18  8
11  14  8
14  20  8
18  21  8
20  21  8
25  26  8
25  27  8
26  28  8
27  29  8
28  30  8
29  30  8
6  31  5
7  32  5

$$$$
