132247301
  -OEChem-09292322452D

 55 58  0     0  0  0  0  0  0999 V2000
    4.0000    5.1791    0.0000 Cl  0  0  0  0  0  0  0  0  0  0  0  0
    7.8660    2.2150    0.0000 F   0  0  0  0  0  0  0  0  0  0  0  0
    2.0000    5.1791    0.0000 F   0  0  0  0  0  0  0  0  0  0  0  0
    3.5000    0.8490    0.0000 O   0  0  0  0  0  0  0  0  0  0  0  0
    9.5981   -1.7850    0.0000 O   0  0  0  0  0  0  0  0  0  0  0  0
    5.0000    1.7150    0.0000 N   0  0  0  0  0  0  0  0  0  0  0  0
    7.8660    0.2150    0.0000 N   0  0  0  0  0  0  0  0  0  0  0  0
   11.4103   -4.5898    0.0000 N   0  0  0  0  0  0  0  0  0  0  0  0
    7.0000    1.7150    0.0000 C   0  0  0  0  0  0  0  0  0  0  0  0
    6.5000    0.8490    0.0000 C   0  0  0  0  0  0  0  0  0  0  0  0
    6.5000    2.5810    0.0000 C   0  0  0  0  0  0  0  0  0  0  0  0
    5.5000    0.8490    0.0000 C   0  0  0  0  0  0  0  0  0  0  0  0
    5.5000    2.5810    0.0000 C   0  0  0  0  0  0  0  0  0  0  0  0
    7.8660    1.2150    0.0000 C   0  0  0  0  0  0  0  0  0  0  0  0
    4.0000    1.7150    0.0000 C   0  0  0  0  0  0  0  0  0  0  0  0
    8.7320   -0.2850    0.0000 C   0  0  0  0  0  0  0  0  0  0  0  0
    3.5000    2.5810    0.0000 C   0  0  0  0  0  0  0  0  0  0  0  0
    8.7320   -1.2850    0.0000 C   0  0  0  0  0  0  0  0  0  0  0  0
    4.0000    3.4470    0.0000 C   0  0  0  0  0  0  0  0  0  0  0  0
    2.5000    2.5810    0.0000 C   0  0  0  0  0  0  0  0  0  0  0  0
    9.5981   -2.7850    0.0000 C   0  0  0  0  0  0  0  0  0  0  0  0
    3.5000    4.3130    0.0000 C   0  0  0  0  0  0  0  0  0  0  0  0
    2.0000    3.4470    0.0000 C   0  0  0  0  0  0  0  0  0  0  0  0
   10.4641   -3.2850    0.0000 C   0  0  0  0  0  0  0  0  0  0  0  0
    2.5000    4.3130    0.0000 C   0  0  0  0  0  0  0  0  0  0  0  0
   10.4641   -4.2850    0.0000 C   0  0  0  0  0  0  0  0  0  0  0  0
    8.7320   -3.2850    0.0000 C   0  0  0  0  0  0  0  0  0  0  0  0
   11.4103   -2.9803    0.0000 C   0  0  0  0  0  0  0  0  0  0  0  0
    9.5981   -4.7850    0.0000 C   0  0  0  0  0  0  0  0  0  0  0  0
    8.7320   -4.2850    0.0000 C   0  0  0  0  0  0  0  0  0  0  0  0
   11.9939   -3.7850    0.0000 C   0  0  0  0  0  0  0  0  0  0  0  0
    6.3923    0.2384    0.0000 H   0  0  0  0  0  0  0  0  0  0  0  0
    7.0826    0.6369    0.0000 H   0  0  0  0  0  0  0  0  0  0  0  0
    7.0826    2.7930    0.0000 H   0  0  0  0  0  0  0  0  0  0  0  0
    6.3923    3.1916    0.0000 H   0  0  0  0  0  0  0  0  0  0  0  0
    4.9174    0.6369    0.0000 H   0  0  0  0  0  0  0  0  0  0  0  0
    5.6077    0.2384    0.0000 H   0  0  0  0  0  0  0  0  0  0  0  0
    5.6077    3.1916    0.0000 H   0  0  0  0  0  0  0  0  0  0  0  0
    4.9174    2.7930    0.0000 H   0  0  0  0  0  0  0  0  0  0  0  0
    8.4766    1.1073    0.0000 H   0  0  0  0  0  0  0  0  0  0  0  0
    8.0781    1.7976    0.0000 H   0  0  0  0  0  0  0  0  0  0  0  0
    7.3291   -0.0950    0.0000 H   0  0  0  0  0  0  0  0  0  0  0  0
    9.3426   -0.3927    0.0000 H   0  0  0  0  0  0  0  0  0  0  0  0
    8.9441    0.2976    0.0000 H   0  0  0  0  0  0  0  0  0  0  0  0
    8.1215   -1.1774    0.0000 H   0  0  0  0  0  0  0  0  0  0  0  0
    8.5200   -1.8676    0.0000 H   0  0  0  0  0  0  0  0  0  0  0  0
    4.6200    3.4470    0.0000 H   0  0  0  0  0  0  0  0  0  0  0  0
    2.1900    2.0441    0.0000 H   0  0  0  0  0  0  0  0  0  0  0  0
    1.3800    3.4470    0.0000 H   0  0  0  0  0  0  0  0  0  0  0  0
    8.1951   -2.9750    0.0000 H   0  0  0  0  0  0  0  0  0  0  0  0
   11.6029   -2.3910    0.0000 H   0  0  0  0  0  0  0  0  0  0  0  0
    9.5981   -5.4050    0.0000 H   0  0  0  0  0  0  0  0  0  0  0  0
   11.6029   -5.1791    0.0000 H   0  0  0  0  0  0  0  0  0  0  0  0
    8.1951   -4.5950    0.0000 H   0  0  0  0  0  0  0  0  0  0  0  0
   12.6139   -3.7850    0.0000 H   0  0  0  0  0  0  0  0  0  0  0  0
  1 22  1  0  0  0  0
  2  9  1  0  0  0  0
  3 25  1  0  0  0  0
  4 15  2  0  0  0  0
  5 18  1  0  0  0  0
  5 21  1  0  0  0  0
  6 12  1  0  0  0  0
  6 13  1  0  0  0  0
  6 15  1  0  0  0  0
  7 14  1  0  0  0  0
  7 16  1  0  0  0  0
  7 42  1  0  0  0  0
  8 26  1  0  0  0  0
  8 31  1  0  0  0  0
  8 53  1  0  0  0  0
  9 10  1  0  0  0  0
  9 11  1  0  0  0  0
  9 14  1  0  0  0  0
 10 12  1  0  0  0  0
 10 32  1  0  0  0  0
 10 33  1  0  0  0  0
 11 13  1  0  0  0  0
 11 34  1  0  0  0  0
 11 35  1  0  0  0  0
 12 36  1  0  0  0  0
 12 37  1  0  0  0  0
 13 38  1  0  0  0  0
 13 39  1  0  0  0  0
 14 40  1  0  0  0  0
 14 41  1  0  0  0  0
 15 17  1  0  0  0  0
 16 18  1  0  0  0  0
 16 43  1  0  0  0  0
 16 44  1  0  0  0  0
 17 19  2  0  0  0  0
 17 20  1  0  0  0  0
 18 45  1  0  0  0  0
 18 46  1  0  0  0  0
 19 22  1  0  0  0  0
 19 47  1  0  0  0  0
 20 23  2  0  0  0  0
 20 48  1  0  0  0  0
 21 24  1  0  0  0  0
 21 27  2  0  0  0  0
 22 25  2  0  0  0  0
 23 25  1  0  0  0  0
 23 49  1  0  0  0  0
 24 26  2  0  0  0  0
 24 28  1  0  0  0  0
 26 29  1  0  0  0  0
 27 30  1  0  0  0  0
 27 50  1  0  0  0  0
 28 31  2  0  0  0  0
 28 51  1  0  0  0  0
 29 30  2  0  0  0  0
 29 52  1  0  0  0  0
 30 54  1  0  0  0  0
 31 55  1  0  0  0  0
M  END
> <PUBCHEM_COMPOUND_CID>
132247301

> <PUBCHEM_COMPOUND_CANONICALIZED>
1

> <PUBCHEM_CACTVS_COMPLEXITY>
605

> <PUBCHEM_CACTVS_HBOND_ACCEPTOR>
5

> <PUBCHEM_CACTVS_HBOND_DONOR>
2

> <PUBCHEM_CACTVS_ROTATABLE_BOND>
7

> <PUBCHEM_CACTVS_SUBSKEYS>
AAADceB7MYAEAAAAAAAAAAAAAAAAAWAAAAA8YIAAAAAAAFgB9AAAHwIQAAAADA7hni48xvPJlACoAzV3VACCiCA1JyAI2aE+btgOJvLFt5uHOSjm1hnY6Ye42KOOAAAAIgAKAAAAAABEABQAAAAAAAAAAA==

> <PUBCHEM_IUPAC_OPENEYE_NAME>
(3-chloro-4-fluoro-phenyl)-[4-fluoro-4-[[2-(1H-indol-4-yloxy)ethylamino]methyl]-1-piperidyl]methanone

> <PUBCHEM_IUPAC_CAS_NAME>
(3-chloro-4-fluorophenyl)-[4-fluoro-4-[[2-(1H-indol-4-yloxy)ethylamino]methyl]-1-piperidinyl]methanone

> <PUBCHEM_IUPAC_NAME_MARKUP>
(3-chloro-4-fluorophenyl)-[4-fluoro-4-[[2-(1<I>H</I>-indol-4-yloxy)ethylamino]methyl]piperidin-1-yl]methanone

> <PUBCHEM_IUPAC_NAME>
(3-chloro-4-fluorophenyl)-[4-fluoro-4-[[2-(1H-indol-4-yloxy)ethylamino]methyl]piperidin-1-yl]methanone

> <PUBCHEM_IUPAC_SYSTEMATIC_NAME>
(3-chloranyl-4-fluoranyl-phenyl)-[4-fluoranyl-4-[[2-(1H-indol-4-yloxy)ethylamino]methyl]piperidin-1-yl]methanone

> <PUBCHEM_IUPAC_TRADITIONAL_NAME>
(3-chloro-4-fluoro-phenyl)-[4-fluoro-4-[[2-(1H-indol-4-yloxy)ethylamino]methyl]piperidino]methanone

> <PUBCHEM_IUPAC_INCHI>
InChI=1S/C23H24ClF2N3O2/c24-18-14-16(4-5-19(18)25)22(30)29-11-7-23(26,8-12-29)15-27-10-13-31-21-3-1-2-20-17(21)6-9-28-20/h1-6,9,14,27-28H,7-8,10-13,15H2

> <PUBCHEM_IUPAC_INCHIKEY>
KOWBAFDEMIDBCY-UHFFFAOYSA-N

> <PUBCHEM_XLOGP3_AA>
4.2

> <PUBCHEM_EXACT_MASS>
447.1525110

> <PUBCHEM_MOLECULAR_FORMULA>
C23H24ClF2N3O2

> <PUBCHEM_MOLECULAR_WEIGHT>
447.9

> <PUBCHEM_OPENEYE_CAN_SMILES>
C1CN(CCC1(CNCCOC2=CC=CC3=C2C=CN3)F)C(=O)C4=CC(=C(C=C4)F)Cl

> <PUBCHEM_OPENEYE_ISO_SMILES>
C1CN(CCC1(CNCCOC2=CC=CC3=C2C=CN3)F)C(=O)C4=CC(=C(C=C4)F)Cl

> <PUBCHEM_CACTVS_TPSA>
57.4

> <PUBCHEM_MONOISOTOPIC_WEIGHT>
447.1525110

> <PUBCHEM_TOTAL_CHARGE>
0

> <PUBCHEM_HEAVY_ATOM_COUNT>
31

> <PUBCHEM_ATOM_DEF_STEREO_COUNT>
0

> <PUBCHEM_ATOM_UDEF_STEREO_COUNT>
0

> <PUBCHEM_BOND_DEF_STEREO_COUNT>
0

> <PUBCHEM_BOND_UDEF_STEREO_COUNT>
0

> <PUBCHEM_ISOTOPIC_ATOM_COUNT>
0

> <PUBCHEM_COMPONENT_COUNT>
1

> <PUBCHEM_CACTVS_TAUTO_COUNT>
-1

> <PUBCHEM_COORDINATE_TYPE>
1
5
255

> <PUBCHEM_BONDANNOTATIONS>
17  19  8
17  20  8
19  22  8
20  23  8
21  24  8
21  27  8
22  25  8
23  25  8
24  26  8
24  28  8
26  29  8
27  30  8
28  31  8
29  30  8
8  26  8
8  31  8

$$$$
