51002362
  -OEChem-09292322332D

 55 58  0     0  0  0  0  0  0999 V2000
    2.0000    4.5959    0.0000 Cl  0  0  0  0  0  0  0  0  0  0  0  0
    5.8550    1.8406    0.0000 S   0  0  0  0  0  0  0  0  0  0  0  0
    7.0976   -1.9615    0.0000 O   0  0  0  0  0  0  0  0  0  0  0  0
    6.8055    2.1513    0.0000 O   0  0  0  0  0  0  0  0  0  0  0  0
    4.9044    1.5300    0.0000 O   0  0  0  0  0  0  0  0  0  0  0  0
    6.0726   -4.4006    0.0000 N   0  0  0  0  0  0  0  0  0  0  0  0
    5.1406   -1.5490    0.0000 N   0  0  0  0  0  0  0  0  0  0  0  0
    5.5443    2.7911    0.0000 N   0  0  0  0  0  0  0  0  0  0  0  0
    3.7320    2.5959    0.0000 N   0  0  0  0  0  0  0  0  0  0  0  0
    5.4513   -2.4996    0.0000 C   0  0  0  0  0  0  0  0  0  0  0  0
    4.7834   -3.2439    0.0000 C   0  0  0  0  0  0  0  0  0  0  0  0
    6.4298   -2.7058    0.0000 C   0  0  0  0  0  0  0  0  0  0  0  0
    5.0941   -4.1944    0.0000 C   0  0  0  0  0  0  0  0  0  0  0  0
    6.7404   -3.6563    0.0000 C   0  0  0  0  0  0  0  0  0  0  0  0
    6.3832   -5.3511    0.0000 C   0  0  0  0  0  0  0  0  0  0  0  0
    5.8084   -0.8047    0.0000 C   0  0  0  0  0  0  0  0  0  0  0  0
    5.4978    0.1458    0.0000 C   0  0  0  0  0  0  0  0  0  0  0  0
    6.1656    0.8901    0.0000 C   0  0  0  0  0  0  0  0  0  0  0  0
    6.7870   -1.0110    0.0000 C   0  0  0  0  0  0  0  0  0  0  0  0
    7.1441    0.6839    0.0000 C   0  0  0  0  0  0  0  0  0  0  0  0
    7.4548   -0.2666    0.0000 C   0  0  0  0  0  0  0  0  0  0  0  0
    4.5981    3.0959    0.0000 C   0  0  0  0  0  0  0  0  0  0  0  0
    4.5981    4.0959    0.0000 C   0  0  0  0  0  0  0  0  0  0  0  0
    6.1279    3.5959    0.0000 C   0  0  0  0  0  0  0  0  0  0  0  0
    5.5443    4.4006    0.0000 C   0  0  0  0  0  0  0  0  0  0  0  0
    3.7320    4.5959    0.0000 C   0  0  0  0  0  0  0  0  0  0  0  0
    5.8550    5.3511    0.0000 C   0  0  0  0  0  0  0  0  0  0  0  0
    2.8660    4.0959    0.0000 C   0  0  0  0  0  0  0  0  0  0  0  0
    2.8660    3.0959    0.0000 C   0  0  0  0  0  0  0  0  0  0  0  0
    8.0761   -2.1677    0.0000 C   0  0  0  0  0  0  0  0  0  0  0  0
    5.8653   -2.0381    0.0000 H   0  0  0  0  0  0  0  0  0  0  0  0
    4.4009   -2.7560    0.0000 H   0  0  0  0  0  0  0  0  0  0  0  0
    4.2365   -3.5359    0.0000 H   0  0  0  0  0  0  0  0  0  0  0  0
    7.0436   -2.6184    0.0000 H   0  0  0  0  0  0  0  0  0  0  0  0
    6.4503   -2.0861    0.0000 H   0  0  0  0  0  0  0  0  0  0  0  0
    4.4803   -4.2817    0.0000 H   0  0  0  0  0  0  0  0  0  0  0  0
    5.0735   -4.8140    0.0000 H   0  0  0  0  0  0  0  0  0  0  0  0
    7.1230   -4.1442    0.0000 H   0  0  0  0  0  0  0  0  0  0  0  0
    7.2874   -3.3643    0.0000 H   0  0  0  0  0  0  0  0  0  0  0  0
    4.5339   -1.4212    0.0000 H   0  0  0  0  0  0  0  0  0  0  0  0
    5.7939   -5.5437    0.0000 H   0  0  0  0  0  0  0  0  0  0  0  0
    6.5759   -5.9404    0.0000 H   0  0  0  0  0  0  0  0  0  0  0  0
    6.9726   -5.1585    0.0000 H   0  0  0  0  0  0  0  0  0  0  0  0
    4.8911    0.2736    0.0000 H   0  0  0  0  0  0  0  0  0  0  0  0
    7.5582    1.1453    0.0000 H   0  0  0  0  0  0  0  0  0  0  0  0
    8.0615   -0.3945    0.0000 H   0  0  0  0  0  0  0  0  0  0  0  0
    6.7479    3.5959    0.0000 H   0  0  0  0  0  0  0  0  0  0  0  0
    3.7320    5.2159    0.0000 H   0  0  0  0  0  0  0  0  0  0  0  0
    6.4443    5.1585    0.0000 H   0  0  0  0  0  0  0  0  0  0  0  0
    6.0476    5.9404    0.0000 H   0  0  0  0  0  0  0  0  0  0  0  0
    5.2656    5.5437    0.0000 H   0  0  0  0  0  0  0  0  0  0  0  0
    2.3291    2.7859    0.0000 H   0  0  0  0  0  0  0  0  0  0  0  0
    7.9483   -2.7744    0.0000 H   0  0  0  0  0  0  0  0  0  0  0  0
    8.6828   -2.2956    0.0000 H   0  0  0  0  0  0  0  0  0  0  0  0
    8.2040   -1.5610    0.0000 H   0  0  0  0  0  0  0  0  0  0  0  0
  1 28  1  0  0  0  0
  2  4  2  0  0  0  0
  2  5  2  0  0  0  0
  2  8  1  0  0  0  0
  2 18  1  0  0  0  0
  3 19  1  0  0  0  0
  3 30  1  0  0  0  0
  6 13  1  0  0  0  0
  6 14  1  0  0  0  0
  6 15  1  0  0  0  0
  7 10  1  0  0  0  0
  7 16  1  0  0  0  0
  7 40  1  0  0  0  0
  8 22  1  0  0  0  0
  8 24  1  0  0  0  0
  9 22  1  0  0  0  0
  9 29  2  0  0  0  0
 10 11  1  0  0  0  0
 10 12  1  0  0  0  0
 10 31  1  0  0  0  0
 11 13  1  0  0  0  0
 11 32  1  0  0  0  0
 11 33  1  0  0  0  0
 12 14  1  0  0  0  0
 12 34  1  0  0  0  0
 12 35  1  0  0  0  0
 13 36  1  0  0  0  0
 13 37  1  0  0  0  0
 14 38  1  0  0  0  0
 14 39  1  0  0  0  0
 15 41  1  0  0  0  0
 15 42  1  0  0  0  0
 15 43  1  0  0  0  0
 16 17  1  0  0  0  0
 16 19  2  0  0  0  0
 17 18  2  0  0  0  0
 17 44  1  0  0  0  0
 18 20  1  0  0  0  0
 19 21  1  0  0  0  0
 20 21  2  0  0  0  0
 20 45  1  0  0  0  0
 21 46  1  0  0  0  0
 22 23  2  0  0  0  0
 23 25  1  0  0  0  0
 23 26  1  0  0  0  0
 24 25  2  0  0  0  0
 24 47  1  0  0  0  0
 25 27  1  0  0  0  0
 26 28  2  0  0  0  0
 26 48  1  0  0  0  0
 27 49  1  0  0  0  0
 27 50  1  0  0  0  0
 27 51  1  0  0  0  0
 28 29  1  0  0  0  0
 29 52  1  0  0  0  0
 30 53  1  0  0  0  0
 30 54  1  0  0  0  0
 30 55  1  0  0  0  0
M  END
> <PUBCHEM_COMPOUND_CID>
51002362

> <PUBCHEM_COMPOUND_CANONICALIZED>
1

> <PUBCHEM_CACTVS_COMPLEXITY>
682

> <PUBCHEM_CACTVS_HBOND_ACCEPTOR>
6

> <PUBCHEM_CACTVS_HBOND_DONOR>
1

> <PUBCHEM_CACTVS_ROTATABLE_BOND>
5

> <PUBCHEM_CACTVS_SUBSKEYS>
AAADceB7sABEAAAAAAAAAAAAAAAAAWAAAAA8WIAAAAAAAFgB/AAAHgYQQAAADC7B2yY/99/IFAKgAjZnZHDCiDkxJ6AJ2LgvbpiOLuLF+5vFMCxs0BPY6CeQQAAOgIAAACAAEAABAAAAQAAgAAAAAAAAAA==

> <PUBCHEM_IUPAC_OPENEYE_NAME>
N-[5-(5-chloro-3-methyl-pyrrolo[2,3-b]pyridin-1-yl)sulfonyl-2-methoxy-phenyl]-1-methyl-piperidin-4-amine

> <PUBCHEM_IUPAC_CAS_NAME>
N-[5-[(5-chloro-3-methyl-1-pyrrolo[2,3-b]pyridinyl)sulfonyl]-2-methoxyphenyl]-1-methyl-4-piperidinamine

> <PUBCHEM_IUPAC_NAME_MARKUP>
<I>N</I>-[5-(5-chloro-3-methylpyrrolo[2,3-b]pyridin-1-yl)sulfonyl-2-methoxyphenyl]-1-methylpiperidin-4-amine

> <PUBCHEM_IUPAC_NAME>
N-[5-(5-chloro-3-methylpyrrolo[2,3-b]pyridin-1-yl)sulfonyl-2-methoxyphenyl]-1-methylpiperidin-4-amine

> <PUBCHEM_IUPAC_SYSTEMATIC_NAME>
N-[5-(5-chloranyl-3-methyl-pyrrolo[2,3-b]pyridin-1-yl)sulfonyl-2-methoxy-phenyl]-1-methyl-piperidin-4-amine

> <PUBCHEM_IUPAC_TRADITIONAL_NAME>
[5-(5-chloro-3-methyl-pyrrolo[2,3-b]pyridin-1-yl)sulfonyl-2-methoxy-phenyl]-(1-methyl-4-piperidyl)amine

> <PUBCHEM_IUPAC_INCHI>
InChI=1S/C21H25ClN4O3S/c1-14-13-26(21-18(14)10-15(22)12-23-21)30(27,28)17-4-5-20(29-3)19(11-17)24-16-6-8-25(2)9-7-16/h4-5,10-13,16,24H,6-9H2,1-3H3

> <PUBCHEM_IUPAC_INCHIKEY>
XRDVQWJPAZZLKN-UHFFFAOYSA-N

> <PUBCHEM_XLOGP3_AA>
4

> <PUBCHEM_EXACT_MASS>
448.1335895

> <PUBCHEM_MOLECULAR_FORMULA>
C21H25ClN4O3S

> <PUBCHEM_MOLECULAR_WEIGHT>
449.0

> <PUBCHEM_OPENEYE_CAN_SMILES>
CC1=CN(C2=C1C=C(C=N2)Cl)S(=O)(=O)C3=CC(=C(C=C3)OC)NC4CCN(CC4)C

> <PUBCHEM_OPENEYE_ISO_SMILES>
CC1=CN(C2=C1C=C(C=N2)Cl)S(=O)(=O)C3=CC(=C(C=C3)OC)NC4CCN(CC4)C

> <PUBCHEM_CACTVS_TPSA>
84.8

> <PUBCHEM_MONOISOTOPIC_WEIGHT>
448.1335895

> <PUBCHEM_TOTAL_CHARGE>
0

> <PUBCHEM_HEAVY_ATOM_COUNT>
30

> <PUBCHEM_ATOM_DEF_STEREO_COUNT>
0

> <PUBCHEM_ATOM_UDEF_STEREO_COUNT>
0

> <PUBCHEM_BOND_DEF_STEREO_COUNT>
0

> <PUBCHEM_BOND_UDEF_STEREO_COUNT>
0

> <PUBCHEM_ISOTOPIC_ATOM_COUNT>
0

> <PUBCHEM_COMPONENT_COUNT>
1

> <PUBCHEM_CACTVS_TAUTO_COUNT>
-1

> <PUBCHEM_COORDINATE_TYPE>
1
5
255

> <PUBCHEM_BONDANNOTATIONS>
16  17  8
16  19  8
17  18  8
18  20  8
19  21  8
20  21  8
22  23  8
23  25  8
23  26  8
24  25  8
26  28  8
28  29  8
8  22  8
8  24  8
9  22  8
9  29  8

$$$$
