155535404
  -OEChem-09292322462D

 58 61  0     0  0  0  0  0  0999 V2000
    4.5981    1.2748    0.0000 S   0  0  0  0  0  0  0  0  0  0  0  0
    2.8660   -1.7252    0.0000 N   0  0  0  0  0  0  0  0  0  0  0  0
    2.8660   -5.7252    0.0000 N   0  0  0  0  0  0  0  0  0  0  0  0
    5.4071    2.8626    0.0000 N   0  0  0  0  0  0  0  0  0  0  0  0
    3.7891    2.8626    0.0000 N   0  0  0  0  0  0  0  0  0  0  0  0
    4.0981    3.8136    0.0000 N   0  0  0  0  0  0  0  0  0  0  0  0
    2.8660   -3.7252    0.0000 C   0  0  0  0  0  0  0  0  0  0  0  0
    3.7320   -3.2252    0.0000 C   0  0  0  0  0  0  0  0  0  0  0  0
    2.0000   -3.2252    0.0000 C   0  0  0  0  0  0  0  0  0  0  0  0
    2.0000   -4.2252    0.0000 C   0  0  0  0  0  0  0  0  0  0  0  0
    3.7320   -4.2252    0.0000 C   0  0  0  0  0  0  0  0  0  0  0  0
    3.7320   -2.2252    0.0000 C   0  0  0  0  0  0  0  0  0  0  0  0
    2.0000   -2.2252    0.0000 C   0  0  0  0  0  0  0  0  0  0  0  0
    2.0000   -5.2252    0.0000 C   0  0  0  0  0  0  0  0  0  0  0  0
    3.7320   -5.2252    0.0000 C   0  0  0  0  0  0  0  0  0  0  0  0
    2.8660   -0.7252    0.0000 C   0  0  0  0  0  0  0  0  0  0  0  0
    3.7320   -0.2252    0.0000 C   0  0  0  0  0  0  0  0  0  0  0  0
    3.7320    0.7748    0.0000 C   0  0  0  0  0  0  0  0  0  0  0  0
    4.5981    2.2748    0.0000 C   0  0  0  0  0  0  0  0  0  0  0  0
    5.0981    3.8136    0.0000 C   0  0  0  0  0  0  0  0  0  0  0  0
    6.3582    2.5536    0.0000 C   0  0  0  0  0  0  0  0  0  0  0  0
    5.6859    4.6226    0.0000 C   0  0  0  0  0  0  0  0  0  0  0  0
    5.2791    5.5362    0.0000 C   0  0  0  0  0  0  0  0  0  0  0  0
    6.6804    4.5181    0.0000 C   0  0  0  0  0  0  0  0  0  0  0  0
    5.8669    6.3452    0.0000 C   0  0  0  0  0  0  0  0  0  0  0  0
    7.2682    5.3271    0.0000 C   0  0  0  0  0  0  0  0  0  0  0  0
    6.8614    6.2407    0.0000 C   0  0  0  0  0  0  0  0  0  0  0  0
    3.9441   -3.8078    0.0000 H   0  0  0  0  0  0  0  0  0  0  0  0
    4.3426   -3.1176    0.0000 H   0  0  0  0  0  0  0  0  0  0  0  0
    1.3894   -3.1176    0.0000 H   0  0  0  0  0  0  0  0  0  0  0  0
    1.7880   -3.8078    0.0000 H   0  0  0  0  0  0  0  0  0  0  0  0
    1.7880   -3.6426    0.0000 H   0  0  0  0  0  0  0  0  0  0  0  0
    1.3894   -4.3329    0.0000 H   0  0  0  0  0  0  0  0  0  0  0  0
    4.3426   -4.3329    0.0000 H   0  0  0  0  0  0  0  0  0  0  0  0
    3.9441   -3.6426    0.0000 H   0  0  0  0  0  0  0  0  0  0  0  0
    4.3426   -2.3329    0.0000 H   0  0  0  0  0  0  0  0  0  0  0  0
    3.9441   -1.6426    0.0000 H   0  0  0  0  0  0  0  0  0  0  0  0
    1.7880   -1.6426    0.0000 H   0  0  0  0  0  0  0  0  0  0  0  0
    1.3894   -2.3329    0.0000 H   0  0  0  0  0  0  0  0  0  0  0  0
    1.3894   -5.1175    0.0000 H   0  0  0  0  0  0  0  0  0  0  0  0
    1.7880   -5.8078    0.0000 H   0  0  0  0  0  0  0  0  0  0  0  0
    3.9441   -5.8078    0.0000 H   0  0  0  0  0  0  0  0  0  0  0  0
    4.3426   -5.1175    0.0000 H   0  0  0  0  0  0  0  0  0  0  0  0
    2.8660   -6.3452    0.0000 H   0  0  0  0  0  0  0  0  0  0  0  0
    2.6540   -0.1426    0.0000 H   0  0  0  0  0  0  0  0  0  0  0  0
    2.2554   -0.8329    0.0000 H   0  0  0  0  0  0  0  0  0  0  0  0
    3.9441   -0.8078    0.0000 H   0  0  0  0  0  0  0  0  0  0  0  0
    4.3426   -0.1175    0.0000 H   0  0  0  0  0  0  0  0  0  0  0  0
    3.5200    1.3574    0.0000 H   0  0  0  0  0  0  0  0  0  0  0  0
    3.1215    0.6671    0.0000 H   0  0  0  0  0  0  0  0  0  0  0  0
    6.1666    1.9639    0.0000 H   0  0  0  0  0  0  0  0  0  0  0  0
    6.9478    2.3620    0.0000 H   0  0  0  0  0  0  0  0  0  0  0  0
    6.5497    3.1432    0.0000 H   0  0  0  0  0  0  0  0  0  0  0  0
    4.6625    5.6010    0.0000 H   0  0  0  0  0  0  0  0  0  0  0  0
    6.9326    3.9517    0.0000 H   0  0  0  0  0  0  0  0  0  0  0  0
    5.6147    6.9116    0.0000 H   0  0  0  0  0  0  0  0  0  0  0  0
    7.8848    5.2623    0.0000 H   0  0  0  0  0  0  0  0  0  0  0  0
    7.2259    6.7423    0.0000 H   0  0  0  0  0  0  0  0  0  0  0  0
  1 18  1  0  0  0  0
  1 19  1  0  0  0  0
  2 12  1  0  0  0  0
  2 13  1  0  0  0  0
  2 16  1  0  0  0  0
  3 14  1  0  0  0  0
  3 15  1  0  0  0  0
  3 44  1  0  0  0  0
  4 19  1  0  0  0  0
  4 20  1  0  0  0  0
  4 21  1  0  0  0  0
  5  6  1  0  0  0  0
  5 19  2  0  0  0  0
  6 20  2  0  0  0  0
  7  8  1  0  0  0  0
  7  9  1  0  0  0  0
  7 10  1  0  0  0  0
  7 11  1  0  0  0  0
  8 12  1  0  0  0  0
  8 28  1  0  0  0  0
  8 29  1  0  0  0  0
  9 13  1  0  0  0  0
  9 30  1  0  0  0  0
  9 31  1  0  0  0  0
 10 14  1  0  0  0  0
 10 32  1  0  0  0  0
 10 33  1  0  0  0  0
 11 15  1  0  0  0  0
 11 34  1  0  0  0  0
 11 35  1  0  0  0  0
 12 36  1  0  0  0  0
 12 37  1  0  0  0  0
 13 38  1  0  0  0  0
 13 39  1  0  0  0  0
 14 40  1  0  0  0  0
 14 41  1  0  0  0  0
 15 42  1  0  0  0  0
 15 43  1  0  0  0  0
 16 17  1  0  0  0  0
 16 45  1  0  0  0  0
 16 46  1  0  0  0  0
 17 18  1  0  0  0  0
 17 47  1  0  0  0  0
 17 48  1  0  0  0  0
 18 49  1  0  0  0  0
 18 50  1  0  0  0  0
 20 22  1  0  0  0  0
 21 51  1  0  0  0  0
 21 52  1  0  0  0  0
 21 53  1  0  0  0  0
 22 23  2  0  0  0  0
 22 24  1  0  0  0  0
 23 25  1  0  0  0  0
 23 54  1  0  0  0  0
 24 26  2  0  0  0  0
 24 55  1  0  0  0  0
 25 27  2  0  0  0  0
 25 56  1  0  0  0  0
 26 27  1  0  0  0  0
 26 57  1  0  0  0  0
 27 58  1  0  0  0  0
M  END
> <PUBCHEM_COMPOUND_CID>
155535404

> <PUBCHEM_COMPOUND_CANONICALIZED>
1

> <PUBCHEM_CACTVS_COMPLEXITY>
440

> <PUBCHEM_CACTVS_HBOND_ACCEPTOR>
5

> <PUBCHEM_CACTVS_HBOND_DONOR>
1

> <PUBCHEM_CACTVS_ROTATABLE_BOND>
6

> <PUBCHEM_CACTVS_SUBSKEYS>
AAADceB7gABAAAAAAAAAAAAAAAAAAWAAAAA8WIAAAAAAAAABwAAAHAQYAAAADgDFWwSzEIfMEAiiAiJiJACS0AtgALAdyKAoBJiIKKKgmRGEIAhgmAKIiAcQgAAPAAAAAAAAAAAAAAAAAAAAAAAAAAAAAA==

> <PUBCHEM_IUPAC_OPENEYE_NAME>
3-[3-[(4-methyl-5-phenyl-1,2,4-triazol-3-yl)sulfanyl]propyl]-3,9-diazaspiro[5.5]undecane

> <PUBCHEM_IUPAC_CAS_NAME>
3-[3-[(4-methyl-5-phenyl-1,2,4-triazol-3-yl)thio]propyl]-3,9-diazaspiro[5.5]undecane

> <PUBCHEM_IUPAC_NAME_MARKUP>
3-[3-[(4-methyl-5-phenyl-1,2,4-triazol-3-yl)sulfanyl]propyl]-3,9-diazaspiro[5.5]undecane

> <PUBCHEM_IUPAC_NAME>
3-[3-[(4-methyl-5-phenyl-1,2,4-triazol-3-yl)sulfanyl]propyl]-3,9-diazaspiro[5.5]undecane

> <PUBCHEM_IUPAC_SYSTEMATIC_NAME>
3-[3-[(4-methyl-5-phenyl-1,2,4-triazol-3-yl)sulfanyl]propyl]-3,9-diazaspiro[5.5]undecane

> <PUBCHEM_IUPAC_TRADITIONAL_NAME>
3-[3-[(4-methyl-5-phenyl-1,2,4-triazol-3-yl)thio]propyl]-3,9-diazaspiro[5.5]undecane

> <PUBCHEM_IUPAC_INCHI>
InChI=1S/C21H31N5S/c1-25-19(18-6-3-2-4-7-18)23-24-20(25)27-17-5-14-26-15-10-21(11-16-26)8-12-22-13-9-21/h2-4,6-7,22H,5,8-17H2,1H3

> <PUBCHEM_IUPAC_INCHIKEY>
UDZHORRPPMFMKH-UHFFFAOYSA-N

> <PUBCHEM_XLOGP3_AA>
3

> <PUBCHEM_EXACT_MASS>
385.23001718

> <PUBCHEM_MOLECULAR_FORMULA>
C21H31N5S

> <PUBCHEM_MOLECULAR_WEIGHT>
385.6

> <PUBCHEM_OPENEYE_CAN_SMILES>
CN1C(=NN=C1SCCCN2CCC3(CCNCC3)CC2)C4=CC=CC=C4

> <PUBCHEM_OPENEYE_ISO_SMILES>
CN1C(=NN=C1SCCCN2CCC3(CCNCC3)CC2)C4=CC=CC=C4

> <PUBCHEM_CACTVS_TPSA>
71.3

> <PUBCHEM_MONOISOTOPIC_WEIGHT>
385.23001718

> <PUBCHEM_TOTAL_CHARGE>
0

> <PUBCHEM_HEAVY_ATOM_COUNT>
27

> <PUBCHEM_ATOM_DEF_STEREO_COUNT>
0

> <PUBCHEM_ATOM_UDEF_STEREO_COUNT>
0

> <PUBCHEM_BOND_DEF_STEREO_COUNT>
0

> <PUBCHEM_BOND_UDEF_STEREO_COUNT>
0

> <PUBCHEM_ISOTOPIC_ATOM_COUNT>
0

> <PUBCHEM_COMPONENT_COUNT>
1

> <PUBCHEM_CACTVS_TAUTO_COUNT>
-1

> <PUBCHEM_COORDINATE_TYPE>
1
5
255

> <PUBCHEM_BONDANNOTATIONS>
22  23  8
22  24  8
23  25  8
24  26  8
25  27  8
26  27  8
4  19  8
4  20  8
5  19  8
5  6  8
6  20  8

$$$$
