164625966
  -OEChem-09292322442D

 56 59  0     1  0  0  0  0  0999 V2000
   13.3070   -3.7737    0.0000 F   0  0  0  0  0  0  0  0  0  0  0  0
    2.0000    2.7737    0.0000 O   0  0  0  0  0  0  0  0  0  0  0  0
    2.0000    0.7737    0.0000 O   0  0  0  0  0  0  0  0  0  0  0  0
    8.9826   -2.2571    0.0000 O   0  0  0  0  0  0  0  0  0  0  0  0
    6.3981    1.2529    0.0000 N   0  0  3  0  0  0  0  0  0  0  0  0
    9.8544   -0.7604    0.0000 N   0  0  0  0  0  0  0  0  0  0  0  0
    6.3981    2.2946    0.0000 C   0  0  0  0  0  0  0  0  0  0  0  0
    5.4920    0.7391    0.0000 C   0  0  0  0  0  0  0  0  0  0  0  0
    5.4920    2.8084    0.0000 C   0  0  0  0  0  0  0  0  0  0  0  0
    4.5981    1.2737    0.0000 C   0  0  0  0  0  0  0  0  0  0  0  0
    4.5981    2.2737    0.0000 C   0  0  0  0  0  0  0  0  0  0  0  0
    7.2622    0.7496    0.0000 C   0  0  0  0  0  0  0  0  0  0  0  0
    8.1301    1.2462    0.0000 C   0  0  0  0  0  0  0  0  0  0  0  0
    3.7320    2.7737    0.0000 C   0  0  0  0  0  0  0  0  0  0  0  0
    3.7320    0.7737    0.0000 C   0  0  0  0  0  0  0  0  0  0  0  0
    8.9942    0.7429    0.0000 C   0  0  0  0  0  0  0  0  0  0  0  0
    2.8660    2.2737    0.0000 C   0  0  0  0  0  0  0  0  0  0  0  0
    2.8660    1.2737    0.0000 C   0  0  0  0  0  0  0  0  0  0  0  0
    8.1340    2.2462    0.0000 C   0  0  0  0  0  0  0  0  0  0  0  0
    8.9904   -0.2571    0.0000 C   0  0  0  0  0  0  0  0  0  0  0  0
    9.8622    1.2396    0.0000 C   0  0  0  0  0  0  0  0  0  0  0  0
    9.0019    2.7429    0.0000 C   0  0  0  0  0  0  0  0  0  0  0  0
    9.8660    2.2396    0.0000 C   0  0  0  0  0  0  0  0  0  0  0  0
    2.0000    3.7737    0.0000 C   0  0  0  0  0  0  0  0  0  0  0  0
    9.8506   -1.7604    0.0000 C   0  0  0  0  0  0  0  0  0  0  0  0
   10.7147   -2.2637    0.0000 C   0  0  0  0  0  0  0  0  0  0  0  0
   10.7108   -3.2637    0.0000 C   0  0  0  0  0  0  0  0  0  0  0  0
   11.5826   -1.7671    0.0000 C   0  0  0  0  0  0  0  0  0  0  0  0
   11.5749   -3.7671    0.0000 C   0  0  0  0  0  0  0  0  0  0  0  0
   12.4467   -2.2704    0.0000 C   0  0  0  0  0  0  0  0  0  0  0  0
   12.4429   -3.2704    0.0000 C   0  0  0  0  0  0  0  0  0  0  0  0
    7.0089    2.1885    0.0000 H   0  0  0  0  0  0  0  0  0  0  0  0
    6.6071    2.8782    0.0000 H   0  0  0  0  0  0  0  0  0  0  0  0
    5.0874    0.2693    0.0000 H   0  0  0  0  0  0  0  0  0  0  0  0
    5.8856    0.2601    0.0000 H   0  0  0  0  0  0  0  0  0  0  0  0
    5.8856    3.2874    0.0000 H   0  0  0  0  0  0  0  0  0  0  0  0
    5.0874    3.2782    0.0000 H   0  0  0  0  0  0  0  0  0  0  0  0
    6.8618    0.2762    0.0000 H   0  0  0  0  0  0  0  0  0  0  0  0
    7.6589    0.2731    0.0000 H   0  0  0  0  0  0  0  0  0  0  0  0
    3.7320    3.3937    0.0000 H   0  0  0  0  0  0  0  0  0  0  0  0
    3.7320    0.1537    0.0000 H   0  0  0  0  0  0  0  0  0  0  0  0
    7.5982    2.5583    0.0000 H   0  0  0  0  0  0  0  0  0  0  0  0
    8.3802   -0.1471    0.0000 H   0  0  0  0  0  0  0  0  0  0  0  0
    8.7761   -0.8389    0.0000 H   0  0  0  0  0  0  0  0  0  0  0  0
   10.3979    0.9275    0.0000 H   0  0  0  0  0  0  0  0  0  0  0  0
    9.0043    3.3629    0.0000 H   0  0  0  0  0  0  0  0  0  0  0  0
   10.4041    2.5475    0.0000 H   0  0  0  0  0  0  0  0  0  0  0  0
   10.3926   -0.4525    0.0000 H   0  0  0  0  0  0  0  0  0  0  0  0
    2.0000    0.1537    0.0000 H   0  0  0  0  0  0  0  0  0  0  0  0
    2.6200    3.7737    0.0000 H   0  0  0  0  0  0  0  0  0  0  0  0
    2.0000    4.3937    0.0000 H   0  0  0  0  0  0  0  0  0  0  0  0
    1.3800    3.7737    0.0000 H   0  0  0  0  0  0  0  0  0  0  0  0
   10.1727   -3.5717    0.0000 H   0  0  0  0  0  0  0  0  0  0  0  0
   11.5850   -1.1471    0.0000 H   0  0  0  0  0  0  0  0  0  0  0  0
   11.5725   -4.3871    0.0000 H   0  0  0  0  0  0  0  0  0  0  0  0
   12.9849   -1.9625    0.0000 H   0  0  0  0  0  0  0  0  0  0  0  0
  1 31  1  0  0  0  0
  2 17  1  0  0  0  0
  2 24  1  0  0  0  0
  3 18  1  0  0  0  0
  3 49  1  0  0  0  0
  4 25  2  0  0  0  0
  5  7  1  0  0  0  0
  5  8  1  0  0  0  0
  5 12  1  0  0  0  0
  6 20  1  0  0  0  0
  6 25  1  0  0  0  0
  6 48  1  0  0  0  0
  7  9  1  0  0  0  0
  7 32  1  0  0  0  0
  7 33  1  0  0  0  0
  8 10  1  0  0  0  0
  8 34  1  0  0  0  0
  8 35  1  0  0  0  0
  9 11  1  0  0  0  0
  9 36  1  0  0  0  0
  9 37  1  0  0  0  0
 10 11  1  0  0  0  0
 10 15  2  0  0  0  0
 11 14  2  0  0  0  0
 12 13  1  0  0  0  0
 12 38  1  0  0  0  0
 12 39  1  0  0  0  0
 13 16  1  0  0  0  0
 13 19  2  0  0  0  0
 14 17  1  0  0  0  0
 14 40  1  0  0  0  0
 15 18  1  0  0  0  0
 15 41  1  0  0  0  0
 16 20  1  0  0  0  0
 16 21  2  0  0  0  0
 17 18  2  0  0  0  0
 19 22  1  0  0  0  0
 19 42  1  0  0  0  0
 20 43  1  0  0  0  0
 20 44  1  0  0  0  0
 21 23  1  0  0  0  0
 21 45  1  0  0  0  0
 22 23  2  0  0  0  0
 22 46  1  0  0  0  0
 23 47  1  0  0  0  0
 24 50  1  0  0  0  0
 24 51  1  0  0  0  0
 24 52  1  0  0  0  0
 25 26  1  0  0  0  0
 26 27  2  0  0  0  0
 26 28  1  0  0  0  0
 27 29  1  0  0  0  0
 27 53  1  0  0  0  0
 28 30  2  0  0  0  0
 28 54  1  0  0  0  0
 29 31  2  0  0  0  0
 29 55  1  0  0  0  0
 30 31  1  0  0  0  0
 30 56  1  0  0  0  0
M  END
> <PUBCHEM_COMPOUND_CID>
164625966

> <PUBCHEM_COMPOUND_CANONICALIZED>
1

> <PUBCHEM_CACTVS_COMPLEXITY>
583

> <PUBCHEM_CACTVS_HBOND_ACCEPTOR>
5

> <PUBCHEM_CACTVS_HBOND_DONOR>
2

> <PUBCHEM_CACTVS_ROTATABLE_BOND>
6

> <PUBCHEM_CACTVS_SUBSKEYS>
AAADceB7MQAAAAAAAAAAAAAAAAAAAAAAAAA8YMEAAAAAAACxUAAAHwAQCAAADATBmA4yBoPABgCIAiFSEACCCAAkIAAIiIEOjMgNJjKGtRuEcStkxhGLuYe42LKOoAABAAAQQABAAAIAACCAAAAAAAAAAA==

> <PUBCHEM_IUPAC_OPENEYE_NAME>
4-fluoro-N-[[2-[(7-hydroxy-6-methoxy-3,4-dihydro-1H-isoquinolin-2-yl)methyl]phenyl]methyl]benzamide

> <PUBCHEM_IUPAC_CAS_NAME>
4-fluoro-N-[[2-[(7-hydroxy-6-methoxy-3,4-dihydro-1H-isoquinolin-2-yl)methyl]phenyl]methyl]benzamide

> <PUBCHEM_IUPAC_NAME_MARKUP>
4-fluoro-<I>N</I>-[[2-[(7-hydroxy-6-methoxy-3,4-dihydro-1<I>H</I>-isoquinolin-2-yl)methyl]phenyl]methyl]benzamide

> <PUBCHEM_IUPAC_NAME>
4-fluoro-N-[[2-[(7-hydroxy-6-methoxy-3,4-dihydro-1H-isoquinolin-2-yl)methyl]phenyl]methyl]benzamide

> <PUBCHEM_IUPAC_SYSTEMATIC_NAME>
4-fluoranyl-N-[[2-[(6-methoxy-7-oxidanyl-3,4-dihydro-1H-isoquinolin-2-yl)methyl]phenyl]methyl]benzamide

> <PUBCHEM_IUPAC_TRADITIONAL_NAME>
4-fluoro-N-[2-[(7-hydroxy-6-methoxy-3,4-dihydro-1H-isoquinolin-2-yl)methyl]benzyl]benzamide

> <PUBCHEM_IUPAC_INCHI>
InChI=1S/C25H25FN2O3/c1-31-24-13-18-10-11-28(16-21(18)12-23(24)29)15-20-5-3-2-4-19(20)14-27-25(30)17-6-8-22(26)9-7-17/h2-9,12-13,29H,10-11,14-16H2,1H3,(H,27,30)

> <PUBCHEM_IUPAC_INCHIKEY>
QMHQSKUJOYRTHB-UHFFFAOYSA-N

> <PUBCHEM_XLOGP3_AA>
3.8

> <PUBCHEM_EXACT_MASS>
420.18492083

> <PUBCHEM_MOLECULAR_FORMULA>
C25H25FN2O3

> <PUBCHEM_MOLECULAR_WEIGHT>
420.5

> <PUBCHEM_OPENEYE_CAN_SMILES>
COC1=C(C=C2CN(CCC2=C1)CC3=CC=CC=C3CNC(=O)C4=CC=C(C=C4)F)O

> <PUBCHEM_OPENEYE_ISO_SMILES>
COC1=C(C=C2CN(CCC2=C1)CC3=CC=CC=C3CNC(=O)C4=CC=C(C=C4)F)O

> <PUBCHEM_CACTVS_TPSA>
61.8

> <PUBCHEM_MONOISOTOPIC_WEIGHT>
420.18492083

> <PUBCHEM_TOTAL_CHARGE>
0

> <PUBCHEM_HEAVY_ATOM_COUNT>
31

> <PUBCHEM_ATOM_DEF_STEREO_COUNT>
0

> <PUBCHEM_ATOM_UDEF_STEREO_COUNT>
0

> <PUBCHEM_BOND_DEF_STEREO_COUNT>
0

> <PUBCHEM_BOND_UDEF_STEREO_COUNT>
0

> <PUBCHEM_ISOTOPIC_ATOM_COUNT>
0

> <PUBCHEM_COMPONENT_COUNT>
1

> <PUBCHEM_CACTVS_TAUTO_COUNT>
-1

> <PUBCHEM_COORDINATE_TYPE>
1
5
255

> <PUBCHEM_BONDANNOTATIONS>
10  11  8
10  15  8
11  14  8
13  16  8
13  19  8
14  17  8
15  18  8
16  21  8
17  18  8
19  22  8
21  23  8
22  23  8
26  27  8
26  28  8
27  29  8
28  30  8
29  31  8
30  31  8

$$$$
