44579034
  -OEChem-09292322502D

 95102  0     1  0  0  0  0  0999 V2000
   11.4703   -2.0665    0.0000 O   0  0  0  0  0  0  0  0  0  0  0  0
    8.9244    2.4633    0.0000 O   0  0  0  0  0  0  0  0  0  0  0  0
    9.7383   -2.0464    0.0000 O   0  0  0  0  0  0  0  0  0  0  0  0
    8.0411    0.9734    0.0000 O   0  0  0  0  0  0  0  0  0  0  0  0
   14.9429   -5.0980    0.0000 N   0  0  3  0  0  0  0  0  0  0  0  0
    4.6020    6.0702    0.0000 N   0  0  3  0  0  0  0  0  0  0  0  0
   14.0847   -4.6011    0.0000 C   0  0  1  0  0  0  0  0  0  0  0  0
    5.4537    5.5623    0.0000 C   0  0  1  0  0  0  0  0  0  0  0  0
   14.0847   -3.6011    0.0000 C   0  0  0  0  0  0  0  0  0  0  0  0
    6.3274    6.0488    0.0000 C   0  0  0  0  0  0  0  0  0  0  0  0
   13.2187   -5.1011    0.0000 C   0  0  0  0  0  0  0  0  0  0  0  0
    5.4383    4.5624    0.0000 C   0  0  0  0  0  0  0  0  0  0  0  0
   15.8084   -4.6138    0.0000 C   0  0  0  0  0  0  0  0  0  0  0  0
    4.6039    7.0619    0.0000 C   0  0  0  0  0  0  0  0  0  0  0  0
   14.9947   -3.0942    0.0000 C   0  0  0  0  0  0  0  0  0  0  0  0
   15.8340   -3.6224    0.0000 C   0  0  0  0  0  0  0  0  0  0  0  0
    6.3274    7.0905    0.0000 C   0  0  0  0  0  0  0  0  0  0  0  0
    5.4575    7.5667    0.0000 C   0  0  0  0  0  0  0  0  0  0  0  0
   13.2187   -3.1011    0.0000 C   0  0  0  0  0  0  0  0  0  0  0  0
    7.1856    5.5356    0.0000 C   0  0  0  0  0  0  0  0  0  0  0  0
   12.3526   -4.6011    0.0000 C   0  0  0  0  0  0  0  0  0  0  0  0
    6.2965    4.0491    0.0000 C   0  0  0  0  0  0  0  0  0  0  0  0
   14.9355   -6.0980    0.0000 C   0  0  0  0  0  0  0  0  0  0  0  0
   12.3526   -3.6011    0.0000 C   0  0  0  0  0  0  0  0  0  0  0  0
    3.7320    5.5772    0.0000 C   0  0  0  0  0  0  0  0  0  0  0  0
    7.1702    4.5357    0.0000 C   0  0  0  0  0  0  0  0  0  0  0  0
   15.0027   -2.0526    0.0000 C   0  0  0  0  0  0  0  0  0  0  0  0
    7.2334    7.6043    0.0000 C   0  0  0  0  0  0  0  0  0  0  0  0
   13.2026   -2.0596    0.0000 C   0  0  0  0  0  0  0  0  0  0  0  0
    8.1033    6.0283    0.0000 C   0  0  0  0  0  0  0  0  0  0  0  0
   15.7978   -6.6044    0.0000 C   0  0  0  0  0  0  0  0  0  0  0  0
    2.8700    6.0841    0.0000 C   0  0  0  0  0  0  0  0  0  0  0  0
   11.4587   -3.0664    0.0000 C   0  0  0  0  0  0  0  0  0  0  0  0
   11.4587   -5.1357    0.0000 C   0  0  0  0  0  0  0  0  0  0  0  0
   14.1006   -1.5318    0.0000 C   0  0  0  0  0  0  0  0  0  0  0  0
    6.2644    3.0080    0.0000 C   0  0  0  0  0  0  0  0  0  0  0  0
    8.1274    7.0697    0.0000 C   0  0  0  0  0  0  0  0  0  0  0  0
    8.0722    4.0149    0.0000 C   0  0  0  0  0  0  0  0  0  0  0  0
   10.5526   -3.5802    0.0000 C   0  0  0  0  0  0  0  0  0  0  0  0
    8.0642    2.9733    0.0000 C   0  0  0  0  0  0  0  0  0  0  0  0
   10.5526   -4.6219    0.0000 C   0  0  0  0  0  0  0  0  0  0  0  0
    7.1542    2.4664    0.0000 C   0  0  0  0  0  0  0  0  0  0  0  0
   15.7904   -7.6043    0.0000 C   0  0  0  0  0  0  0  0  0  0  0  0
    2.0000    5.5911    0.0000 C   0  0  0  0  0  0  0  0  0  0  0  0
   10.6101   -1.5565    0.0000 C   0  0  0  0  0  0  0  0  0  0  0  0
   10.6216   -0.5565    0.0000 C   0  0  0  0  0  0  0  0  0  0  0  0
    8.9128    1.4634    0.0000 C   0  0  0  0  0  0  0  0  0  0  0  0
    9.7615   -0.0466    0.0000 C   0  0  0  0  0  0  0  0  0  0  0  0
    9.7730    0.9534    0.0000 C   0  0  0  0  0  0  0  0  0  0  0  0
   14.0842   -5.4511    0.0000 H   0  0  0  0  0  0  0  0  0  0  0  0
    4.7114    5.1482    0.0000 H   0  0  0  0  0  0  0  0  0  0  0  0
   12.8201   -5.5760    0.0000 H   0  0  0  0  0  0  0  0  0  0  0  0
   13.6172   -5.5760    0.0000 H   0  0  0  0  0  0  0  0  0  0  0  0
    4.8295    4.6794    0.0000 H   0  0  0  0  0  0  0  0  0  0  0  0
    5.2173    3.9831    0.0000 H   0  0  0  0  0  0  0  0  0  0  0  0
   16.0101   -5.2001    0.0000 H   0  0  0  0  0  0  0  0  0  0  0  0
   16.4212   -4.5194    0.0000 H   0  0  0  0  0  0  0  0  0  0  0  0
    4.3881    7.6432    0.0000 H   0  0  0  0  0  0  0  0  0  0  0  0
    3.9935    6.9529    0.0000 H   0  0  0  0  0  0  0  0  0  0  0  0
   16.4411   -3.7483    0.0000 H   0  0  0  0  0  0  0  0  0  0  0  0
   16.0658   -3.0474    0.0000 H   0  0  0  0  0  0  0  0  0  0  0  0
    5.8471    8.0490    0.0000 H   0  0  0  0  0  0  0  0  0  0  0  0
    5.0521    8.0358    0.0000 H   0  0  0  0  0  0  0  0  0  0  0  0
   14.3257   -5.9858    0.0000 H   0  0  0  0  0  0  0  0  0  0  0  0
   14.7192   -6.6790    0.0000 H   0  0  0  0  0  0  0  0  0  0  0  0
    3.3297    5.1054    0.0000 H   0  0  0  0  0  0  0  0  0  0  0  0
    4.1267    5.0991    0.0000 H   0  0  0  0  0  0  0  0  0  0  0  0
   15.5409   -1.7447    0.0000 H   0  0  0  0  0  0  0  0  0  0  0  0
    7.2406    8.2243    0.0000 H   0  0  0  0  0  0  0  0  0  0  0  0
   12.6621   -1.7558    0.0000 H   0  0  0  0  0  0  0  0  0  0  0  0
    8.6317    5.7039    0.0000 H   0  0  0  0  0  0  0  0  0  0  0  0
   16.4076   -6.7165    0.0000 H   0  0  0  0  0  0  0  0  0  0  0  0
   16.0142   -6.0233    0.0000 H   0  0  0  0  0  0  0  0  0  0  0  0
    3.2723    6.5558    0.0000 H   0  0  0  0  0  0  0  0  0  0  0  0
    2.4753    6.5622    0.0000 H   0  0  0  0  0  0  0  0  0  0  0  0
   11.4659   -5.7557    0.0000 H   0  0  0  0  0  0  0  0  0  0  0  0
   14.0983   -0.9118    0.0000 H   0  0  0  0  0  0  0  0  0  0  0  0
    5.7193    2.7125    0.0000 H   0  0  0  0  0  0  0  0  0  0  0  0
    8.6702    7.3693    0.0000 H   0  0  0  0  0  0  0  0  0  0  0  0
    8.6104    4.3228    0.0000 H   0  0  0  0  0  0  0  0  0  0  0  0
   10.0169   -3.2682    0.0000 H   0  0  0  0  0  0  0  0  0  0  0  0
   10.0169   -4.9339    0.0000 H   0  0  0  0  0  0  0  0  0  0  0  0
    7.1423    1.8465    0.0000 H   0  0  0  0  0  0  0  0  0  0  0  0
   15.1704   -7.5997    0.0000 H   0  0  0  0  0  0  0  0  0  0  0  0
   15.7858   -8.2243    0.0000 H   0  0  0  0  0  0  0  0  0  0  0  0
   16.4104   -7.6089    0.0000 H   0  0  0  0  0  0  0  0  0  0  0  0
    1.6943    6.1305    0.0000 H   0  0  0  0  0  0  0  0  0  0  0  0
    1.4606    5.2854    0.0000 H   0  0  0  0  0  0  0  0  0  0  0  0
    2.3057    5.0517    0.0000 H   0  0  0  0  0  0  0  0  0  0  0  0
   11.2309   -0.6713    0.0000 H   0  0  0  0  0  0  0  0  0  0  0  0
   10.8404    0.0236    0.0000 H   0  0  0  0  0  0  0  0  0  0  0  0
    9.1522    0.0681    0.0000 H   0  0  0  0  0  0  0  0  0  0  0  0
    9.5427   -0.6267    0.0000 H   0  0  0  0  0  0  0  0  0  0  0  0
   10.3823    0.8387    0.0000 H   0  0  0  0  0  0  0  0  0  0  0  0
    9.9918    1.5335    0.0000 H   0  0  0  0  0  0  0  0  0  0  0  0
  1 33  1  0  0  0  0
  1 45  1  0  0  0  0
  2 40  1  0  0  0  0
  2 47  1  0  0  0  0
  3 45  2  0  0  0  0
  4 47  2  0  0  0  0
  5  7  1  0  0  0  0
  5 13  1  0  0  0  0
  5 23  1  0  0  0  0
  6  8  1  0  0  0  0
  6 14  1  0  0  0  0
  6 25  1  0  0  0  0
  7  9  1  0  0  0  0
  7 11  1  0  0  0  0
  7 50  1  1  0  0  0
  8 10  1  0  0  0  0
  8 12  1  0  0  0  0
  8 51  1  6  0  0  0
  9 15  2  0  0  0  0
  9 19  1  0  0  0  0
 10 17  2  0  0  0  0
 10 20  1  0  0  0  0
 11 21  1  0  0  0  0
 11 52  1  0  0  0  0
 11 53  1  0  0  0  0
 12 22  1  0  0  0  0
 12 54  1  0  0  0  0
 12 55  1  0  0  0  0
 13 16  1  0  0  0  0
 13 56  1  0  0  0  0
 13 57  1  0  0  0  0
 14 18  1  0  0  0  0
 14 58  1  0  0  0  0
 14 59  1  0  0  0  0
 15 16  1  0  0  0  0
 15 27  1  0  0  0  0
 16 60  1  0  0  0  0
 16 61  1  0  0  0  0
 17 18  1  0  0  0  0
 17 28  1  0  0  0  0
 18 62  1  0  0  0  0
 18 63  1  0  0  0  0
 19 24  1  0  0  0  0
 19 29  2  0  0  0  0
 20 26  1  0  0  0  0
 20 30  2  0  0  0  0
 21 24  2  0  0  0  0
 21 34  1  0  0  0  0
 22 26  2  0  0  0  0
 22 36  1  0  0  0  0
 23 31  1  0  0  0  0
 23 64  1  0  0  0  0
 23 65  1  0  0  0  0
 24 33  1  0  0  0  0
 25 32  1  0  0  0  0
 25 66  1  0  0  0  0
 25 67  1  0  0  0  0
 26 38  1  0  0  0  0
 27 35  2  0  0  0  0
 27 68  1  0  0  0  0
 28 37  2  0  0  0  0
 28 69  1  0  0  0  0
 29 35  1  0  0  0  0
 29 70  1  0  0  0  0
 30 37  1  0  0  0  0
 30 71  1  0  0  0  0
 31 43  1  0  0  0  0
 31 72  1  0  0  0  0
 31 73  1  0  0  0  0
 32 44  1  0  0  0  0
 32 74  1  0  0  0  0
 32 75  1  0  0  0  0
 33 39  2  0  0  0  0
 34 41  2  0  0  0  0
 34 76  1  0  0  0  0
 35 77  1  0  0  0  0
 36 42  2  0  0  0  0
 36 78  1  0  0  0  0
 37 79  1  0  0  0  0
 38 40  2  0  0  0  0
 38 80  1  0  0  0  0
 39 41  1  0  0  0  0
 39 81  1  0  0  0  0
 40 42  1  0  0  0  0
 41 82  1  0  0  0  0
 42 83  1  0  0  0  0
 43 84  1  0  0  0  0
 43 85  1  0  0  0  0
 43 86  1  0  0  0  0
 44 87  1  0  0  0  0
 44 88  1  0  0  0  0
 44 89  1  0  0  0  0
 45 46  1  0  0  0  0
 46 48  1  0  0  0  0
 46 90  1  0  0  0  0
 46 91  1  0  0  0  0
 47 49  1  0  0  0  0
 48 49  1  0  0  0  0
 48 92  1  0  0  0  0
 48 93  1  0  0  0  0
 49 94  1  0  0  0  0
 49 95  1  0  0  0  0
M  END
> <PUBCHEM_COMPOUND_CID>
44579034

> <PUBCHEM_COMPOUND_CANONICALIZED>
1

> <PUBCHEM_CACTVS_COMPLEXITY>
1140

> <PUBCHEM_CACTVS_HBOND_ACCEPTOR>
6

> <PUBCHEM_CACTVS_HBOND_DONOR>
0

> <PUBCHEM_CACTVS_ROTATABLE_BOND>
12

> <PUBCHEM_CACTVS_SUBSKEYS>
AAADcfB/OAAAAAAAAAAAAAAAAAAAAAAAAAA8eMGDAAAAAADxVAAAHgAAAAAADCzBmAQyDoMABACIAiDSCACCCAAgIAAIiAEODIgMJjKEsRuGOijkwBGIqAeY9vsOoAADAAAYAADQAAaAADQAAAAAAAAAAA==

> <PUBCHEM_IUPAC_OPENEYE_NAME>
O1-[(6aR)-6-propyl-5,6,6a,7-tetrahydro-4H-dibenzo[de,g]quinolin-10-yl] O5-[(6aR)-6-propyl-5,6,6a,7-tetrahydro-4H-dibenzo[de,g]quinolin-11-yl] pentanedioate

> <PUBCHEM_IUPAC_CAS_NAME>
pentanedioic acid O1-[(6aR)-6-propyl-5,6,6a,7-tetrahydro-4H-dibenzo[de,g]quinolin-10-yl] ester O5-[(6aR)-6-propyl-5,6,6a,7-tetrahydro-4H-dibenzo[de,g]quinolin-11-yl] ester

> <PUBCHEM_IUPAC_NAME_MARKUP>
1-<I>O</I>-[(6<I>a</I><I>R</I>)-6-propyl-5,6,6<I>a</I>,7-tetrahydro-4<I>H</I>-dibenzo[de,g]quinolin-10-yl] 5-<I>O</I>-[(6<I>a</I><I>R</I>)-6-propyl-5,6,6<I>a</I>,7-tetrahydro-4<I>H</I>-dibenzo[de,g]quinolin-11-yl] pentanedioate

> <PUBCHEM_IUPAC_NAME>
1-O-[(6aR)-6-propyl-5,6,6a,7-tetrahydro-4H-dibenzo[de,g]quinolin-10-yl] 5-O-[(6aR)-6-propyl-5,6,6a,7-tetrahydro-4H-dibenzo[de,g]quinolin-11-yl] pentanedioate

> <PUBCHEM_IUPAC_SYSTEMATIC_NAME>
O1-[(6aR)-6-propyl-5,6,6a,7-tetrahydro-4H-dibenzo[de,g]quinolin-10-yl] O5-[(6aR)-6-propyl-5,6,6a,7-tetrahydro-4H-dibenzo[de,g]quinolin-11-yl] pentanedioate

> <PUBCHEM_IUPAC_TRADITIONAL_NAME>
glutaric acid O1-[(6aR)-6-propyl-5,6,6a,7-tetrahydro-4H-dibenzo[de,g]quinolin-10-yl] ester O5-[(6aR)-6-propyl-5,6,6a,7-tetrahydro-4H-dibenzo[de,g]quinolin-11-yl] ester

> <PUBCHEM_IUPAC_INCHI>
InChI=1S/C43H46N2O4/c1-3-21-44-23-19-28-9-5-12-33-35-27-32(18-17-30(35)25-36(44)41(28)33)48-39(46)15-8-16-40(47)49-38-14-7-11-31-26-37-42-29(20-24-45(37)22-4-2)10-6-13-34(42)43(31)38/h5-7,9-14,17-18,27,36-37H,3-4,8,15-16,19-26H2,1-2H3/t36-,37-/m1/s1

> <PUBCHEM_IUPAC_INCHIKEY>
MFYPDFYITWHTII-FZNHDDJXSA-N

> <PUBCHEM_XLOGP3_AA>
8.3

> <PUBCHEM_EXACT_MASS>
654.34575795

> <PUBCHEM_MOLECULAR_FORMULA>
C43H46N2O4

> <PUBCHEM_MOLECULAR_WEIGHT>
654.8

> <PUBCHEM_OPENEYE_CAN_SMILES>
CCCN1CCC2=C3C1CC4=C(C3=CC=C2)C(=CC=C4)OC(=O)CCCC(=O)OC5=CC6=C(CC7C8=C(CCN7CCC)C=CC=C68)C=C5

> <PUBCHEM_OPENEYE_ISO_SMILES>
CCCN1CCC2=C3[C@H]1CC4=C(C3=CC=C2)C(=CC=C4)OC(=O)CCCC(=O)OC5=CC6=C(C[C@@H]7C8=C(CCN7CCC)C=CC=C68)C=C5

> <PUBCHEM_CACTVS_TPSA>
59.1

> <PUBCHEM_MONOISOTOPIC_WEIGHT>
654.34575795

> <PUBCHEM_TOTAL_CHARGE>
0

> <PUBCHEM_HEAVY_ATOM_COUNT>
49

> <PUBCHEM_ATOM_DEF_STEREO_COUNT>
2

> <PUBCHEM_ATOM_UDEF_STEREO_COUNT>
0

> <PUBCHEM_BOND_DEF_STEREO_COUNT>
0

> <PUBCHEM_BOND_UDEF_STEREO_COUNT>
0

> <PUBCHEM_ISOTOPIC_ATOM_COUNT>
0

> <PUBCHEM_COMPONENT_COUNT>
1

> <PUBCHEM_CACTVS_TAUTO_COUNT>
-1

> <PUBCHEM_COORDINATE_TYPE>
1
5
255

> <PUBCHEM_BONDANNOTATIONS>
10  17  8
10  20  8
15  27  8
17  28  8
19  29  8
20  30  8
21  24  8
21  34  8
22  26  8
22  36  8
24  33  8
26  38  8
27  35  8
28  37  8
29  35  8
30  37  8
33  39  8
34  41  8
36  42  8
38  40  8
39  41  8
40  42  8
7  50  5
8  51  6
9  15  8
9  19  8

$$$$
