127039746
  -OEChem-09292322002D

 73 76  0     1  0  0  0  0  0999 V2000
    8.3167    2.6200    0.0000 Cl  0  0  0  0  0  0  0  0  0  0  0  0
    7.2415   11.0918    0.0000 S   0  0  0  0  0  0  0  0  0  0  0  0
    1.3660    5.1159    0.0000 F   0  0  0  0  0  0  0  0  0  0  0  0
    0.0000    5.4819    0.0000 F   0  0  0  0  0  0  0  0  0  0  0  0
    0.3660    6.8480    0.0000 F   0  0  0  0  0  0  0  0  0  0  0  0
    2.5981    5.9819    0.0000 O   0  0  0  0  0  0  0  0  0  0  0  0
    1.7320    7.4819    0.0000 O   0  0  0  0  0  0  0  0  0  0  0  0
    9.1827    8.1200    0.0000 N   0  0  3  0  0  0  0  0  0  0  0  0
   10.0488    5.6200    0.0000 N   0  0  0  0  0  0  0  0  0  0  0  0
   10.0488    3.6200    0.0000 N   0  0  0  0  0  0  0  0  0  0  0  0
    5.8476   10.2871    0.0000 N   0  0  0  0  0  0  0  0  0  0  0  0
   11.8610    0.8153    0.0000 N   0  0  0  0  0  0  0  0  0  0  0  0
    5.7528   12.0609    0.0000 N   0  0  0  0  0  0  0  0  0  0  0  0
    8.3167    8.6200    0.0000 C   0  0  1  0  0  0  0  0  0  0  0  0
    7.4507    8.1200    0.0000 C   0  0  0  0  0  0  0  0  0  0  0  0
    8.3167    9.6200    0.0000 C   0  0  0  0  0  0  0  0  0  0  0  0
    9.1827    7.1200    0.0000 C   0  0  0  0  0  0  0  0  0  0  0  0
   10.0488    6.6200    0.0000 C   0  0  0  0  0  0  0  0  0  0  0  0
    6.5847    8.6200    0.0000 C   0  0  0  0  0  0  0  0  0  0  0  0
   10.0488    8.6200    0.0000 C   0  0  0  0  0  0  0  0  0  0  0  0
    9.1827    5.1200    0.0000 C   0  0  0  0  0  0  0  0  0  0  0  0
   10.9148    5.1200    0.0000 C   0  0  0  0  0  0  0  0  0  0  0  0
    7.4507   10.1200    0.0000 C   0  0  0  0  0  0  0  0  0  0  0  0
    9.1827    4.1200    0.0000 C   0  0  0  0  0  0  0  0  0  0  0  0
   10.9148    4.1200    0.0000 C   0  0  0  0  0  0  0  0  0  0  0  0
    6.5847    9.6200    0.0000 C   0  0  0  0  0  0  0  0  0  0  0  0
   10.0488    9.6200    0.0000 C   0  0  0  0  0  0  0  0  0  0  0  0
   10.0488    2.6200    0.0000 C   0  0  0  0  0  0  0  0  0  0  0  0
    6.2528   11.1949    0.0000 C   0  0  0  0  0  0  0  0  0  0  0  0
   10.9148    2.1200    0.0000 C   0  0  0  0  0  0  0  0  0  0  0  0
   10.9148   10.1200    0.0000 C   0  0  0  0  0  0  0  0  0  0  0  0
    9.1827    2.1200    0.0000 C   0  0  0  0  0  0  0  0  0  0  0  0
   10.9148    1.1200    0.0000 C   0  0  0  0  0  0  0  0  0  0  0  0
   11.8610    2.4247    0.0000 C   0  0  0  0  0  0  0  0  0  0  0  0
    9.1827    1.1200    0.0000 C   0  0  0  0  0  0  0  0  0  0  0  0
   10.0488    0.6200    0.0000 C   0  0  0  0  0  0  0  0  0  0  0  0
   12.4446    1.6200    0.0000 C   0  0  0  0  0  0  0  0  0  0  0  0
    0.8660    5.9819    0.0000 C   0  0  0  0  0  0  0  0  0  0  0  0
    1.7320    6.4819    0.0000 C   0  0  0  0  0  0  0  0  0  0  0  0
    8.8536    8.9300    0.0000 H   0  0  0  0  0  0  0  0  0  0  0  0
    7.0522    7.6450    0.0000 H   0  0  0  0  0  0  0  0  0  0  0  0
    7.8492    7.6450    0.0000 H   0  0  0  0  0  0  0  0  0  0  0  0
    8.9273    9.5123    0.0000 H   0  0  0  0  0  0  0  0  0  0  0  0
    8.5288   10.2026    0.0000 H   0  0  0  0  0  0  0  0  0  0  0  0
    8.5722    7.2277    0.0000 H   0  0  0  0  0  0  0  0  0  0  0  0
    8.9707    6.5374    0.0000 H   0  0  0  0  0  0  0  0  0  0  0  0
   10.6593    6.5123    0.0000 H   0  0  0  0  0  0  0  0  0  0  0  0
   10.2608    7.2026    0.0000 H   0  0  0  0  0  0  0  0  0  0  0  0
    5.9741    8.7277    0.0000 H   0  0  0  0  0  0  0  0  0  0  0  0
    6.3726    8.0374    0.0000 H   0  0  0  0  0  0  0  0  0  0  0  0
   10.2608    8.0374    0.0000 H   0  0  0  0  0  0  0  0  0  0  0  0
   10.6593    8.7277    0.0000 H   0  0  0  0  0  0  0  0  0  0  0  0
    8.9707    5.7026    0.0000 H   0  0  0  0  0  0  0  0  0  0  0  0
    8.5722    5.0123    0.0000 H   0  0  0  0  0  0  0  0  0  0  0  0
   11.5254    5.0123    0.0000 H   0  0  0  0  0  0  0  0  0  0  0  0
   11.1268    5.7026    0.0000 H   0  0  0  0  0  0  0  0  0  0  0  0
    8.5722    4.2277    0.0000 H   0  0  0  0  0  0  0  0  0  0  0  0
    8.9707    3.5374    0.0000 H   0  0  0  0  0  0  0  0  0  0  0  0
   11.1268    3.5374    0.0000 H   0  0  0  0  0  0  0  0  0  0  0  0
   11.5254    4.2277    0.0000 H   0  0  0  0  0  0  0  0  0  0  0  0
    9.8367   10.2026    0.0000 H   0  0  0  0  0  0  0  0  0  0  0  0
    9.4382    9.5123    0.0000 H   0  0  0  0  0  0  0  0  0  0  0  0
   11.2248    9.5831    0.0000 H   0  0  0  0  0  0  0  0  0  0  0  0
   11.4517   10.4300    0.0000 H   0  0  0  0  0  0  0  0  0  0  0  0
   10.6048   10.6569    0.0000 H   0  0  0  0  0  0  0  0  0  0  0  0
   12.0536    3.0140    0.0000 H   0  0  0  0  0  0  0  0  0  0  0  0
    8.6458    0.8100    0.0000 H   0  0  0  0  0  0  0  0  0  0  0  0
   10.0488    0.0000    0.0000 H   0  0  0  0  0  0  0  0  0  0  0  0
   12.0536    0.2259    0.0000 H   0  0  0  0  0  0  0  0  0  0  0  0
    5.1328   12.0609    0.0000 H   0  0  0  0  0  0  0  0  0  0  0  0
    6.0628   12.5978    0.0000 H   0  0  0  0  0  0  0  0  0  0  0  0
   13.0646    1.6200    0.0000 H   0  0  0  0  0  0  0  0  0  0  0  0
    3.1350    6.2919    0.0000 H   0  0  0  0  0  0  0  0  0  0  0  0
  1 32  1  0  0  0  0
  2 23  1  0  0  0  0
  2 29  1  0  0  0  0
  3 38  1  0  0  0  0
  4 38  1  0  0  0  0
  5 38  1  0  0  0  0
  6 39  1  0  0  0  0
  6 73  1  0  0  0  0
  7 39  2  0  0  0  0
 14  8  1  1  0  0  0
  8 17  1  0  0  0  0
  8 20  1  0  0  0  0
  9 18  1  0  0  0  0
  9 21  1  0  0  0  0
  9 22  1  0  0  0  0
 10 24  1  0  0  0  0
 10 25  1  0  0  0  0
 10 28  1  0  0  0  0
 11 26  1  0  0  0  0
 11 29  2  0  0  0  0
 12 33  1  0  0  0  0
 12 37  1  0  0  0  0
 12 69  1  0  0  0  0
 13 29  1  0  0  0  0
 13 70  1  0  0  0  0
 13 71  1  0  0  0  0
 14 15  1  0  0  0  0
 14 16  1  0  0  0  0
 14 40  1  0  0  0  0
 15 19  1  0  0  0  0
 15 41  1  0  0  0  0
 15 42  1  0  0  0  0
 16 23  1  0  0  0  0
 16 43  1  0  0  0  0
 16 44  1  0  0  0  0
 17 18  1  0  0  0  0
 17 45  1  0  0  0  0
 17 46  1  0  0  0  0
 18 47  1  0  0  0  0
 18 48  1  0  0  0  0
 19 26  1  0  0  0  0
 19 49  1  0  0  0  0
 19 50  1  0  0  0  0
 20 27  1  0  0  0  0
 20 51  1  0  0  0  0
 20 52  1  0  0  0  0
 21 24  1  0  0  0  0
 21 53  1  0  0  0  0
 21 54  1  0  0  0  0
 22 25  1  0  0  0  0
 22 55  1  0  0  0  0
 22 56  1  0  0  0  0
 23 26  2  0  0  0  0
 24 57  1  0  0  0  0
 24 58  1  0  0  0  0
 25 59  1  0  0  0  0
 25 60  1  0  0  0  0
 27 31  1  0  0  0  0
 27 61  1  0  0  0  0
 27 62  1  0  0  0  0
 28 30  1  0  0  0  0
 28 32  2  0  0  0  0
 30 33  2  0  0  0  0
 30 34  1  0  0  0  0
 31 63  1  0  0  0  0
 31 64  1  0  0  0  0
 31 65  1  0  0  0  0
 32 35  1  0  0  0  0
 33 36  1  0  0  0  0
 34 37  2  0  0  0  0
 34 66  1  0  0  0  0
 35 36  2  0  0  0  0
 35 67  1  0  0  0  0
 36 68  1  0  0  0  0
 37 72  1  0  0  0  0
 38 39  1  0  0  0  0
M  END
> <PUBCHEM_COMPOUND_CID>
127039746

> <PUBCHEM_COMPOUND_CANONICALIZED>
1

> <PUBCHEM_CACTVS_COMPLEXITY>
689

> <PUBCHEM_CACTVS_HBOND_ACCEPTOR>
11

> <PUBCHEM_CACTVS_HBOND_DONOR>
3

> <PUBCHEM_CACTVS_ROTATABLE_BOND>
7

> <PUBCHEM_CACTVS_SUBSKEYS>
AAADcfB7sYBEAAAAAAAAAAAAAAAAAWLAAAA8YIAAAAAAAFgB/AAAHwYQCAAADCrB3jQ/2fPJkgisAzT3bACC8KlxDzkI2bQ4ZpiIYOLh0tHUJAhgkALIyCcQgIAOAABAIAQCABAAAYBASAQCIAAAAAAAAA==

> <PUBCHEM_IUPAC_OPENEYE_NAME>
(6S)-N6-[2-[4-(5-chloro-1H-indol-4-yl)piperazin-1-yl]ethyl]-N6-propyl-4,5,6,7-tetrahydro-1,3-benzothiazole-2,6-diamine;2,2,2-trifluoroacetic acid

> <PUBCHEM_IUPAC_CAS_NAME>
(6S)-N6-[2-[4-(5-chloro-1H-indol-4-yl)-1-piperazinyl]ethyl]-N6-propyl-4,5,6,7-tetrahydro-1,3-benzothiazole-2,6-diamine;2,2,2-trifluoroacetic acid

> <PUBCHEM_IUPAC_NAME_MARKUP>
(6<I>S</I>)-6-<I>N</I>-[2-[4-(5-chloro-1<I>H</I>-indol-4-yl)piperazin-1-yl]ethyl]-6-<I>N</I>-propyl-4,5,6,7-tetrahydro-1,3-benzothiazole-2,6-diamine;2,2,2-trifluoroacetic acid

> <PUBCHEM_IUPAC_NAME>
(6S)-6-N-[2-[4-(5-chloro-1H-indol-4-yl)piperazin-1-yl]ethyl]-6-N-propyl-4,5,6,7-tetrahydro-1,3-benzothiazole-2,6-diamine;2,2,2-trifluoroacetic acid

> <PUBCHEM_IUPAC_SYSTEMATIC_NAME>
(6S)-N6-[2-[4-(5-chloranyl-1H-indol-4-yl)piperazin-1-yl]ethyl]-N6-propyl-4,5,6,7-tetrahydro-1,3-benzothiazole-2,6-diamine;2,2,2-tris(fluoranyl)ethanoic acid

> <PUBCHEM_IUPAC_TRADITIONAL_NAME>
[(6S)-2-amino-4,5,6,7-tetrahydro-1,3-benzothiazol-6-yl]-[2-[4-(5-chloro-1H-indol-4-yl)piperazino]ethyl]-propyl-amine;2,2,2-trifluoroacetic acid

> <PUBCHEM_IUPAC_INCHI>
InChI=1S/C24H33ClN6S.C2HF3O2/c1-2-9-30(17-3-5-21-22(16-17)32-24(26)28-21)13-10-29-11-14-31(15-12-29)23-18-7-8-27-20(18)6-4-19(23)25;3-2(4,5)1(6)7/h4,6-8,17,27H,2-3,5,9-16H2,1H3,(H2,26,28);(H,6,7)/t17-;/m0./s1

> <PUBCHEM_IUPAC_INCHIKEY>
FWMNUBBJKNQYHX-LMOVPXPDSA-N

> <PUBCHEM_EXACT_MASS>
586.2104577

> <PUBCHEM_MOLECULAR_FORMULA>
C26H34ClF3N6O2S

> <PUBCHEM_MOLECULAR_WEIGHT>
587.1

> <PUBCHEM_OPENEYE_CAN_SMILES>
CCCN(CCN1CCN(CC1)C2=C(C=CC3=C2C=CN3)Cl)C4CCC5=C(C4)SC(=N5)N.C(=O)(C(F)(F)F)O

> <PUBCHEM_OPENEYE_ISO_SMILES>
CCCN(CCN1CCN(CC1)C2=C(C=CC3=C2C=CN3)Cl)[C@H]4CCC5=C(C4)SC(=N5)N.C(=O)(C(F)(F)F)O

> <PUBCHEM_CACTVS_TPSA>
130

> <PUBCHEM_MONOISOTOPIC_WEIGHT>
586.2104577

> <PUBCHEM_TOTAL_CHARGE>
0

> <PUBCHEM_HEAVY_ATOM_COUNT>
39

> <PUBCHEM_ATOM_DEF_STEREO_COUNT>
1

> <PUBCHEM_ATOM_UDEF_STEREO_COUNT>
0

> <PUBCHEM_BOND_DEF_STEREO_COUNT>
0

> <PUBCHEM_BOND_UDEF_STEREO_COUNT>
0

> <PUBCHEM_ISOTOPIC_ATOM_COUNT>
0

> <PUBCHEM_COMPONENT_COUNT>
2

> <PUBCHEM_CACTVS_TAUTO_COUNT>
-1

> <PUBCHEM_COORDINATE_TYPE>
1
5
255

> <PUBCHEM_BONDANNOTATIONS>
11  26  8
11  29  8
12  33  8
12  37  8
2  23  8
2  29  8
23  26  8
28  30  8
28  32  8
30  33  8
30  34  8
32  35  8
33  36  8
34  37  8
35  36  8
14  8  5

$$$$
