11554891
  -OEChem-09292322482D

 59 63  0     0  0  0  0  0  0999 V2000
    6.4103   -5.7231    0.0000 O   0  0  0  0  0  0  0  0  0  0  0  0
    2.8660   -3.9184    0.0000 O   0  0  0  0  0  0  0  0  0  0  0  0
   11.8777    1.4638    0.0000 O   0  0  0  0  0  0  0  0  0  0  0  0
   13.6144    5.7092    0.0000 O   0  0  0  0  0  0  0  0  0  0  0  0
    7.3423   -1.2621    0.0000 N   0  0  0  0  0  0  0  0  0  0  0  0
    6.7210   -3.1632    0.0000 N   0  0  0  0  0  0  0  0  0  0  0  0
    6.9939   -4.9184    0.0000 N   0  0  0  0  0  0  0  0  0  0  0  0
   10.2313    2.0019    0.0000 N   0  0  0  0  0  0  0  0  0  0  0  0
   13.7174    4.7205    0.0000 N   0  0  0  0  0  0  0  0  0  0  0  0
   12.6426    5.9184    0.0000 N   0  0  0  0  0  0  0  0  0  0  0  0
    8.0102   -2.0064    0.0000 C   0  0  0  0  0  0  0  0  0  0  0  0
    6.3638   -1.4683    0.0000 C   0  0  0  0  0  0  0  0  0  0  0  0
    7.6995   -2.9569    0.0000 C   0  0  0  0  0  0  0  0  0  0  0  0
    6.0531   -2.4188    0.0000 C   0  0  0  0  0  0  0  0  0  0  0  0
    7.6530   -0.3116    0.0000 C   0  0  0  0  0  0  0  0  0  0  0  0
    8.6315   -0.1054    0.0000 C   0  0  0  0  0  0  0  0  0  0  0  0
    6.4103   -4.1137    0.0000 C   0  0  0  0  0  0  0  0  0  0  0  0
    8.9421    0.8451    0.0000 C   0  0  0  0  0  0  0  0  0  0  0  0
    5.4641   -4.4184    0.0000 C   0  0  0  0  0  0  0  0  0  0  0  0
    9.9206    1.0514    0.0000 C   0  0  0  0  0  0  0  0  0  0  0  0
    5.4641   -5.4184    0.0000 C   0  0  0  0  0  0  0  0  0  0  0  0
    4.5981   -3.9184    0.0000 C   0  0  0  0  0  0  0  0  0  0  0  0
    4.5981   -5.9184    0.0000 C   0  0  0  0  0  0  0  0  0  0  0  0
    3.7320   -4.4184    0.0000 C   0  0  0  0  0  0  0  0  0  0  0  0
    3.7320   -5.4184    0.0000 C   0  0  0  0  0  0  0  0  0  0  0  0
   11.2098    2.2081    0.0000 C   0  0  0  0  0  0  0  0  0  0  0  0
   11.5205    3.1586    0.0000 C   0  0  0  0  0  0  0  0  0  0  0  0
   12.4990    3.3648    0.0000 C   0  0  0  0  0  0  0  0  0  0  0  0
   10.8526    3.9029    0.0000 C   0  0  0  0  0  0  0  0  0  0  0  0
   12.8096    4.3154    0.0000 C   0  0  0  0  0  0  0  0  0  0  0  0
    2.0000   -4.4184    0.0000 C   0  0  0  0  0  0  0  0  0  0  0  0
   11.1633    4.8534    0.0000 C   0  0  0  0  0  0  0  0  0  0  0  0
   12.1418    5.0597    0.0000 C   0  0  0  0  0  0  0  0  0  0  0  0
    8.5571   -2.2984    0.0000 H   0  0  0  0  0  0  0  0  0  0  0  0
    8.3927   -1.5185    0.0000 H   0  0  0  0  0  0  0  0  0  0  0  0
    6.3432   -0.8487    0.0000 H   0  0  0  0  0  0  0  0  0  0  0  0
    5.7500   -1.3810    0.0000 H   0  0  0  0  0  0  0  0  0  0  0  0
    7.7201   -3.5766    0.0000 H   0  0  0  0  0  0  0  0  0  0  0  0
    8.3133   -3.0443    0.0000 H   0  0  0  0  0  0  0  0  0  0  0  0
    5.5062   -2.1268    0.0000 H   0  0  0  0  0  0  0  0  0  0  0  0
    5.6706   -2.9068    0.0000 H   0  0  0  0  0  0  0  0  0  0  0  0
    7.6324    0.3081    0.0000 H   0  0  0  0  0  0  0  0  0  0  0  0
    7.0392   -0.2242    0.0000 H   0  0  0  0  0  0  0  0  0  0  0  0
    8.6520   -0.7250    0.0000 H   0  0  0  0  0  0  0  0  0  0  0  0
    9.2453   -0.1927    0.0000 H   0  0  0  0  0  0  0  0  0  0  0  0
    8.9216    1.4648    0.0000 H   0  0  0  0  0  0  0  0  0  0  0  0
    8.3283    0.9325    0.0000 H   0  0  0  0  0  0  0  0  0  0  0  0
    9.9412    0.4317    0.0000 H   0  0  0  0  0  0  0  0  0  0  0  0
   10.5345    0.9640    0.0000 H   0  0  0  0  0  0  0  0  0  0  0  0
    4.5981   -3.2984    0.0000 H   0  0  0  0  0  0  0  0  0  0  0  0
    9.8172    2.4634    0.0000 H   0  0  0  0  0  0  0  0  0  0  0  0
    4.5981   -6.5384    0.0000 H   0  0  0  0  0  0  0  0  0  0  0  0
    3.1951   -5.7284    0.0000 H   0  0  0  0  0  0  0  0  0  0  0  0
   12.9130    2.9034    0.0000 H   0  0  0  0  0  0  0  0  0  0  0  0
   10.2460    3.7751    0.0000 H   0  0  0  0  0  0  0  0  0  0  0  0
    1.6900   -3.8815    0.0000 H   0  0  0  0  0  0  0  0  0  0  0  0
    1.4631   -4.7284    0.0000 H   0  0  0  0  0  0  0  0  0  0  0  0
    2.3100   -4.9553    0.0000 H   0  0  0  0  0  0  0  0  0  0  0  0
   10.7492    5.3149    0.0000 H   0  0  0  0  0  0  0  0  0  0  0  0
  1  7  1  0  0  0  0
  1 21  1  0  0  0  0
  2 24  1  0  0  0  0
  2 31  1  0  0  0  0
  3 26  2  0  0  0  0
  4  9  1  0  0  0  0
  4 10  1  0  0  0  0
  5 11  1  0  0  0  0
  5 12  1  0  0  0  0
  5 15  1  0  0  0  0
  6 13  1  0  0  0  0
  6 14  1  0  0  0  0
  6 17  1  0  0  0  0
  7 17  2  0  0  0  0
  8 20  1  0  0  0  0
  8 26  1  0  0  0  0
  8 51  1  0  0  0  0
  9 30  2  0  0  0  0
 10 33  2  0  0  0  0
 11 13  1  0  0  0  0
 11 34  1  0  0  0  0
 11 35  1  0  0  0  0
 12 14  1  0  0  0  0
 12 36  1  0  0  0  0
 12 37  1  0  0  0  0
 13 38  1  0  0  0  0
 13 39  1  0  0  0  0
 14 40  1  0  0  0  0
 14 41  1  0  0  0  0
 15 16  1  0  0  0  0
 15 42  1  0  0  0  0
 15 43  1  0  0  0  0
 16 18  1  0  0  0  0
 16 44  1  0  0  0  0
 16 45  1  0  0  0  0
 17 19  1  0  0  0  0
 18 20  1  0  0  0  0
 18 46  1  0  0  0  0
 18 47  1  0  0  0  0
 19 21  2  0  0  0  0
 19 22  1  0  0  0  0
 20 48  1  0  0  0  0
 20 49  1  0  0  0  0
 21 23  1  0  0  0  0
 22 24  2  0  0  0  0
 22 50  1  0  0  0  0
 23 25  2  0  0  0  0
 23 52  1  0  0  0  0
 24 25  1  0  0  0  0
 25 53  1  0  0  0  0
 26 27  1  0  0  0  0
 27 28  2  0  0  0  0
 27 29  1  0  0  0  0
 28 30  1  0  0  0  0
 28 54  1  0  0  0  0
 29 32  2  0  0  0  0
 29 55  1  0  0  0  0
 30 33  1  0  0  0  0
 31 56  1  0  0  0  0
 31 57  1  0  0  0  0
 31 58  1  0  0  0  0
 32 33  1  0  0  0  0
 32 59  1  0  0  0  0
M  END
> <PUBCHEM_COMPOUND_CID>
11554891

> <PUBCHEM_COMPOUND_CANONICALIZED>
1

> <PUBCHEM_CACTVS_COMPLEXITY>
648

> <PUBCHEM_CACTVS_HBOND_ACCEPTOR>
9

> <PUBCHEM_CACTVS_HBOND_DONOR>
1

> <PUBCHEM_CACTVS_ROTATABLE_BOND>
8

> <PUBCHEM_CACTVS_SUBSKEYS>
AAADceB7uAAAAAAAAAAAAAAAAAAAAWLAAAA8YIAAAAAAAFgB/gAAHgAUAAAADAzBngYz9vPQBACpA6dycgCCCAQlMgApmKE+fNqMZrrEvZuUMahm1pvI6cf+yTCeCQABQAAIACASAAKAABAAQAAAAAAAAA==

> <PUBCHEM_IUPAC_OPENEYE_NAME>
N-[4-[4-(5-methoxy-1,2-benzoxazol-3-yl)piperazin-1-yl]butyl]-2,1,3-benzoxadiazole-5-carboxamide

> <PUBCHEM_IUPAC_CAS_NAME>
N-[4-[4-(5-methoxy-1,2-benzoxazol-3-yl)-1-piperazinyl]butyl]-2,1,3-benzoxadiazole-5-carboxamide

> <PUBCHEM_IUPAC_NAME_MARKUP>
<I>N</I>-[4-[4-(5-methoxy-1,2-benzoxazol-3-yl)piperazin-1-yl]butyl]-2,1,3-benzoxadiazole-5-carboxamide

> <PUBCHEM_IUPAC_NAME>
N-[4-[4-(5-methoxy-1,2-benzoxazol-3-yl)piperazin-1-yl]butyl]-2,1,3-benzoxadiazole-5-carboxamide

> <PUBCHEM_IUPAC_SYSTEMATIC_NAME>
N-[4-[4-(5-methoxy-1,2-benzoxazol-3-yl)piperazin-1-yl]butyl]-2,1,3-benzoxadiazole-5-carboxamide

> <PUBCHEM_IUPAC_TRADITIONAL_NAME>
N-[4-[4-(5-methoxyindoxazen-3-yl)piperazino]butyl]benzofurazan-5-carboxamide

> <PUBCHEM_IUPAC_INCHI>
InChI=1S/C23H26N6O4/c1-31-17-5-7-21-18(15-17)22(27-32-21)29-12-10-28(11-13-29)9-3-2-8-24-23(30)16-4-6-19-20(14-16)26-33-25-19/h4-7,14-15H,2-3,8-13H2,1H3,(H,24,30)

> <PUBCHEM_IUPAC_INCHIKEY>
CWNXARPODKGZCQ-UHFFFAOYSA-N

> <PUBCHEM_XLOGP3_AA>
2.9

> <PUBCHEM_EXACT_MASS>
450.20155333

> <PUBCHEM_MOLECULAR_FORMULA>
C23H26N6O4

> <PUBCHEM_MOLECULAR_WEIGHT>
450.5

> <PUBCHEM_OPENEYE_CAN_SMILES>
COC1=CC2=C(C=C1)ON=C2N3CCN(CC3)CCCCNC(=O)C4=CC5=NON=C5C=C4

> <PUBCHEM_OPENEYE_ISO_SMILES>
COC1=CC2=C(C=C1)ON=C2N3CCN(CC3)CCCCNC(=O)C4=CC5=NON=C5C=C4

> <PUBCHEM_CACTVS_TPSA>
110

> <PUBCHEM_MONOISOTOPIC_WEIGHT>
450.20155333

> <PUBCHEM_TOTAL_CHARGE>
0

> <PUBCHEM_HEAVY_ATOM_COUNT>
33

> <PUBCHEM_ATOM_DEF_STEREO_COUNT>
0

> <PUBCHEM_ATOM_UDEF_STEREO_COUNT>
0

> <PUBCHEM_BOND_DEF_STEREO_COUNT>
0

> <PUBCHEM_BOND_UDEF_STEREO_COUNT>
0

> <PUBCHEM_ISOTOPIC_ATOM_COUNT>
0

> <PUBCHEM_COMPONENT_COUNT>
1

> <PUBCHEM_CACTVS_TAUTO_COUNT>
-1

> <PUBCHEM_COORDINATE_TYPE>
1
5
255

> <PUBCHEM_BONDANNOTATIONS>
1  21  8
1  7  8
10  33  8
17  19  8
19  21  8
19  22  8
21  23  8
22  24  8
23  25  8
24  25  8
27  28  8
27  29  8
28  30  8
29  32  8
30  33  8
32  33  8
4  10  8
4  9  8
7  17  8
9  30  8

$$$$
