16756752
  -OEChem-09292322252D

 64 67  0     0  0  0  0  0  0999 V2000
   10.6603    6.2500    0.0000 Cl  0  0  0  0  0  0  0  0  0  0  0  0
    8.9282    7.2500    0.0000 Cl  0  0  0  0  0  0  0  0  0  0  0  0
    8.9282    3.2500    0.0000 O   0  0  0  0  0  0  0  0  0  0  0  0
    4.5981   -6.2500    0.0000 O   0  0  0  0  0  0  0  0  0  0  0  0
    5.4641    0.2500    0.0000 N   0  0  0  0  0  0  0  0  0  0  0  0
    3.7320   -4.7500    0.0000 N   0  0  0  0  0  0  0  0  0  0  0  0
    5.4641   -1.7500    0.0000 C   0  0  0  0  0  0  0  0  0  0  0  0
    4.5981   -1.2500    0.0000 C   0  0  0  0  0  0  0  0  0  0  0  0
    6.3301   -1.2500    0.0000 C   0  0  0  0  0  0  0  0  0  0  0  0
    4.5981   -0.2500    0.0000 C   0  0  0  0  0  0  0  0  0  0  0  0
    6.3301   -0.2500    0.0000 C   0  0  0  0  0  0  0  0  0  0  0  0
    5.4641   -2.7500    0.0000 C   0  0  0  0  0  0  0  0  0  0  0  0
    5.4641    1.2500    0.0000 C   0  0  0  0  0  0  0  0  0  0  0  0
    4.5981   -3.2500    0.0000 C   0  0  0  0  0  0  0  0  0  0  0  0
    6.3301   -3.2500    0.0000 C   0  0  0  0  0  0  0  0  0  0  0  0
    6.3301    1.7500    0.0000 C   0  0  0  0  0  0  0  0  0  0  0  0
    4.5981   -4.2500    0.0000 C   0  0  0  0  0  0  0  0  0  0  0  0
    6.3301   -4.2500    0.0000 C   0  0  0  0  0  0  0  0  0  0  0  0
    5.4641   -4.7500    0.0000 C   0  0  0  0  0  0  0  0  0  0  0  0
    7.1962    1.2500    0.0000 C   0  0  0  0  0  0  0  0  0  0  0  0
    6.3301    2.7500    0.0000 C   0  0  0  0  0  0  0  0  0  0  0  0
    8.0622    1.7500    0.0000 C   0  0  0  0  0  0  0  0  0  0  0  0
    7.1962    3.2500    0.0000 C   0  0  0  0  0  0  0  0  0  0  0  0
    8.0622    2.7500    0.0000 C   0  0  0  0  0  0  0  0  0  0  0  0
    3.7320   -5.7500    0.0000 C   0  0  0  0  0  0  0  0  0  0  0  0
    2.8660   -6.2500    0.0000 C   0  0  0  0  0  0  0  0  0  0  0  0
    2.8660   -7.2500    0.0000 C   0  0  0  0  0  0  0  0  0  0  0  0
    2.0000   -5.7500    0.0000 C   0  0  0  0  0  0  0  0  0  0  0  0
    8.9282    4.2500    0.0000 C   0  0  0  0  0  0  0  0  0  0  0  0
    9.7942    4.7500    0.0000 C   0  0  0  0  0  0  0  0  0  0  0  0
    8.0622    4.7500    0.0000 C   0  0  0  0  0  0  0  0  0  0  0  0
    9.7942    5.7500    0.0000 C   0  0  0  0  0  0  0  0  0  0  0  0
    8.0622    5.7500    0.0000 C   0  0  0  0  0  0  0  0  0  0  0  0
    8.9282    6.2500    0.0000 C   0  0  0  0  0  0  0  0  0  0  0  0
    6.0010   -2.0600    0.0000 H   0  0  0  0  0  0  0  0  0  0  0  0
    3.9875   -1.1423    0.0000 H   0  0  0  0  0  0  0  0  0  0  0  0
    4.3860   -1.8326    0.0000 H   0  0  0  0  0  0  0  0  0  0  0  0
    6.5422   -1.8326    0.0000 H   0  0  0  0  0  0  0  0  0  0  0  0
    6.9407   -1.1423    0.0000 H   0  0  0  0  0  0  0  0  0  0  0  0
    4.3860    0.3326    0.0000 H   0  0  0  0  0  0  0  0  0  0  0  0
    3.9875   -0.3577    0.0000 H   0  0  0  0  0  0  0  0  0  0  0  0
    6.9407   -0.3577    0.0000 H   0  0  0  0  0  0  0  0  0  0  0  0
    6.5422    0.3326    0.0000 H   0  0  0  0  0  0  0  0  0  0  0  0
    5.2520    1.8326    0.0000 H   0  0  0  0  0  0  0  0  0  0  0  0
    4.8535    1.1423    0.0000 H   0  0  0  0  0  0  0  0  0  0  0  0
    4.0611   -2.9400    0.0000 H   0  0  0  0  0  0  0  0  0  0  0  0
    6.8671   -2.9400    0.0000 H   0  0  0  0  0  0  0  0  0  0  0  0
    6.8671   -4.5600    0.0000 H   0  0  0  0  0  0  0  0  0  0  0  0
    5.4641   -5.3700    0.0000 H   0  0  0  0  0  0  0  0  0  0  0  0
    7.1962    0.6300    0.0000 H   0  0  0  0  0  0  0  0  0  0  0  0
    5.7932    3.0600    0.0000 H   0  0  0  0  0  0  0  0  0  0  0  0
    3.1951   -4.4400    0.0000 H   0  0  0  0  0  0  0  0  0  0  0  0
    8.5991    1.4400    0.0000 H   0  0  0  0  0  0  0  0  0  0  0  0
    7.1962    3.8700    0.0000 H   0  0  0  0  0  0  0  0  0  0  0  0
    2.8660   -5.6300    0.0000 H   0  0  0  0  0  0  0  0  0  0  0  0
    2.2460   -7.2500    0.0000 H   0  0  0  0  0  0  0  0  0  0  0  0
    2.8660   -7.8700    0.0000 H   0  0  0  0  0  0  0  0  0  0  0  0
    3.4860   -7.2500    0.0000 H   0  0  0  0  0  0  0  0  0  0  0  0
    2.3100   -5.2131    0.0000 H   0  0  0  0  0  0  0  0  0  0  0  0
    1.4631   -5.4400    0.0000 H   0  0  0  0  0  0  0  0  0  0  0  0
    1.6900   -6.2869    0.0000 H   0  0  0  0  0  0  0  0  0  0  0  0
   10.3312    4.4400    0.0000 H   0  0  0  0  0  0  0  0  0  0  0  0
    7.5252    4.4400    0.0000 H   0  0  0  0  0  0  0  0  0  0  0  0
    7.5252    6.0600    0.0000 H   0  0  0  0  0  0  0  0  0  0  0  0
  1 32  1  0  0  0  0
  2 34  1  0  0  0  0
  3 24  1  0  0  0  0
  3 29  1  0  0  0  0
  4 25  2  0  0  0  0
  5 10  1  0  0  0  0
  5 11  1  0  0  0  0
  5 13  1  0  0  0  0
  6 17  1  0  0  0  0
  6 25  1  0  0  0  0
  6 52  1  0  0  0  0
  7  8  1  0  0  0  0
  7  9  1  0  0  0  0
  7 12  1  0  0  0  0
  7 35  1  0  0  0  0
  8 10  1  0  0  0  0
  8 36  1  0  0  0  0
  8 37  1  0  0  0  0
  9 11  1  0  0  0  0
  9 38  1  0  0  0  0
  9 39  1  0  0  0  0
 10 40  1  0  0  0  0
 10 41  1  0  0  0  0
 11 42  1  0  0  0  0
 11 43  1  0  0  0  0
 12 14  2  0  0  0  0
 12 15  1  0  0  0  0
 13 16  1  0  0  0  0
 13 44  1  0  0  0  0
 13 45  1  0  0  0  0
 14 17  1  0  0  0  0
 14 46  1  0  0  0  0
 15 18  2  0  0  0  0
 15 47  1  0  0  0  0
 16 20  2  0  0  0  0
 16 21  1  0  0  0  0
 17 19  2  0  0  0  0
 18 19  1  0  0  0  0
 18 48  1  0  0  0  0
 19 49  1  0  0  0  0
 20 22  1  0  0  0  0
 20 50  1  0  0  0  0
 21 23  2  0  0  0  0
 21 51  1  0  0  0  0
 22 24  2  0  0  0  0
 22 53  1  0  0  0  0
 23 24  1  0  0  0  0
 23 54  1  0  0  0  0
 25 26  1  0  0  0  0
 26 27  1  0  0  0  0
 26 28  1  0  0  0  0
 26 55  1  0  0  0  0
 27 56  1  0  0  0  0
 27 57  1  0  0  0  0
 27 58  1  0  0  0  0
 28 59  1  0  0  0  0
 28 60  1  0  0  0  0
 28 61  1  0  0  0  0
 29 30  2  0  0  0  0
 29 31  1  0  0  0  0
 30 32  1  0  0  0  0
 30 62  1  0  0  0  0
 31 33  2  0  0  0  0
 31 63  1  0  0  0  0
 32 34  2  0  0  0  0
 33 34  1  0  0  0  0
 33 64  1  0  0  0  0
M  END
> <PUBCHEM_COMPOUND_CID>
16756752

> <PUBCHEM_COMPOUND_CANONICALIZED>
1

> <PUBCHEM_CACTVS_COMPLEXITY>
632

> <PUBCHEM_CACTVS_HBOND_ACCEPTOR>
3

> <PUBCHEM_CACTVS_HBOND_DONOR>
1

> <PUBCHEM_CACTVS_ROTATABLE_BOND>
7

> <PUBCHEM_CACTVS_SUBSKEYS>
AAADceB7MAAGAAAAAAAAAAAAAAAAAAAAAAA8YMEAAAAAAAABUAAAHgIQAAAADQ7BmCQyxoPABACIAiVSUACCCAAhJwAIikEObogMJiLFs5uGOCjk1BHI6AeQ0MIOoCAAQQAAAARAQACCAAAACAAAAAAAAA==

> <PUBCHEM_IUPAC_OPENEYE_NAME>
N-[3-[1-[[4-(3,4-dichlorophenoxy)phenyl]methyl]-4-piperidyl]phenyl]-2-methyl-propanamide

> <PUBCHEM_IUPAC_CAS_NAME>
N-[3-[1-[[4-(3,4-dichlorophenoxy)phenyl]methyl]-4-piperidinyl]phenyl]-2-methylpropanamide

> <PUBCHEM_IUPAC_NAME_MARKUP>
<I>N</I>-[3-[1-[[4-(3,4-dichlorophenoxy)phenyl]methyl]piperidin-4-yl]phenyl]-2-methylpropanamide

> <PUBCHEM_IUPAC_NAME>
N-[3-[1-[[4-(3,4-dichlorophenoxy)phenyl]methyl]piperidin-4-yl]phenyl]-2-methylpropanamide

> <PUBCHEM_IUPAC_SYSTEMATIC_NAME>
N-[3-[1-[[4-[3,4-bis(chloranyl)phenoxy]phenyl]methyl]piperidin-4-yl]phenyl]-2-methyl-propanamide

> <PUBCHEM_IUPAC_TRADITIONAL_NAME>
N-[3-[1-[4-(3,4-dichlorophenoxy)benzyl]-4-piperidyl]phenyl]-2-methyl-propionamide

> <PUBCHEM_IUPAC_INCHI>
InChI=1S/C28H30Cl2N2O2/c1-19(2)28(33)31-23-5-3-4-22(16-23)21-12-14-32(15-13-21)18-20-6-8-24(9-7-20)34-25-10-11-26(29)27(30)17-25/h3-11,16-17,19,21H,12-15,18H2,1-2H3,(H,31,33)

> <PUBCHEM_IUPAC_INCHIKEY>
TVUCFWYHYFWZFI-UHFFFAOYSA-N

> <PUBCHEM_XLOGP3_AA>
7

> <PUBCHEM_EXACT_MASS>
496.1684336

> <PUBCHEM_MOLECULAR_FORMULA>
C28H30Cl2N2O2

> <PUBCHEM_MOLECULAR_WEIGHT>
497.5

> <PUBCHEM_OPENEYE_CAN_SMILES>
CC(C)C(=O)NC1=CC=CC(=C1)C2CCN(CC2)CC3=CC=C(C=C3)OC4=CC(=C(C=C4)Cl)Cl

> <PUBCHEM_OPENEYE_ISO_SMILES>
CC(C)C(=O)NC1=CC=CC(=C1)C2CCN(CC2)CC3=CC=C(C=C3)OC4=CC(=C(C=C4)Cl)Cl

> <PUBCHEM_CACTVS_TPSA>
41.6

> <PUBCHEM_MONOISOTOPIC_WEIGHT>
496.1684336

> <PUBCHEM_TOTAL_CHARGE>
0

> <PUBCHEM_HEAVY_ATOM_COUNT>
34

> <PUBCHEM_ATOM_DEF_STEREO_COUNT>
0

> <PUBCHEM_ATOM_UDEF_STEREO_COUNT>
0

> <PUBCHEM_BOND_DEF_STEREO_COUNT>
0

> <PUBCHEM_BOND_UDEF_STEREO_COUNT>
0

> <PUBCHEM_ISOTOPIC_ATOM_COUNT>
0

> <PUBCHEM_COMPONENT_COUNT>
1

> <PUBCHEM_CACTVS_TAUTO_COUNT>
-1

> <PUBCHEM_COORDINATE_TYPE>
1
5
255

> <PUBCHEM_BONDANNOTATIONS>
12  14  8
12  15  8
14  17  8
15  18  8
16  20  8
16  21  8
17  19  8
18  19  8
20  22  8
21  23  8
22  24  8
23  24  8
29  30  8
29  31  8
30  32  8
31  33  8
32  34  8
33  34  8

$$$$
