55479093
  -OEChem-09292322332D

 46 48  0     0  0  0  0  0  0999 V2000
    6.3301    3.1488    0.0000 S   0  0  0  0  0  0  0  0  0  0  0  0
    7.3007    4.6433    0.0000 S   0  0  0  0  0  0  0  0  0  0  0  0
    4.5981   -2.8512    0.0000 O   0  0  0  0  0  0  0  0  0  0  0  0
    5.8301    4.0148    0.0000 O   0  0  0  0  0  0  0  0  0  0  0  0
    6.8301    2.2828    0.0000 O   0  0  0  0  0  0  0  0  0  0  0  0
    5.4641   -0.3512    0.0000 N   0  0  0  0  0  0  0  0  0  0  0  0
    5.4641    2.6488    0.0000 N   0  0  0  0  0  0  0  0  0  0  0  0
    5.4641    1.6488    0.0000 C   0  0  0  0  0  0  0  0  0  0  0  0
    4.5981    1.1488    0.0000 C   0  0  0  0  0  0  0  0  0  0  0  0
    6.3301    1.1488    0.0000 C   0  0  0  0  0  0  0  0  0  0  0  0
    4.5981    0.1488    0.0000 C   0  0  0  0  0  0  0  0  0  0  0  0
    6.3301    0.1488    0.0000 C   0  0  0  0  0  0  0  0  0  0  0  0
    5.4641   -1.3512    0.0000 C   0  0  0  0  0  0  0  0  0  0  0  0
    4.5981   -1.8512    0.0000 C   0  0  0  0  0  0  0  0  0  0  0  0
    7.1962    3.6488    0.0000 C   0  0  0  0  0  0  0  0  0  0  0  0
    8.1097    3.2420    0.0000 C   0  0  0  0  0  0  0  0  0  0  0  0
    3.7320   -3.3512    0.0000 C   0  0  0  0  0  0  0  0  0  0  0  0
    8.7788    3.9852    0.0000 C   0  0  0  0  0  0  0  0  0  0  0  0
    8.2788    4.8512    0.0000 C   0  0  0  0  0  0  0  0  0  0  0  0
    3.7320   -4.3512    0.0000 C   0  0  0  0  0  0  0  0  0  0  0  0
    2.8660   -2.8512    0.0000 C   0  0  0  0  0  0  0  0  0  0  0  0
    2.8660   -4.8512    0.0000 C   0  0  0  0  0  0  0  0  0  0  0  0
    2.0000   -3.3512    0.0000 C   0  0  0  0  0  0  0  0  0  0  0  0
    2.0000   -4.3512    0.0000 C   0  0  0  0  0  0  0  0  0  0  0  0
    6.0010    1.9588    0.0000 H   0  0  0  0  0  0  0  0  0  0  0  0
    4.3860    1.7314    0.0000 H   0  0  0  0  0  0  0  0  0  0  0  0
    3.9875    1.0411    0.0000 H   0  0  0  0  0  0  0  0  0  0  0  0
    6.9407    1.0411    0.0000 H   0  0  0  0  0  0  0  0  0  0  0  0
    6.5422    1.7314    0.0000 H   0  0  0  0  0  0  0  0  0  0  0  0
    3.9875    0.2564    0.0000 H   0  0  0  0  0  0  0  0  0  0  0  0
    4.3860   -0.4338    0.0000 H   0  0  0  0  0  0  0  0  0  0  0  0
    6.5422   -0.4338    0.0000 H   0  0  0  0  0  0  0  0  0  0  0  0
    6.9407    0.2564    0.0000 H   0  0  0  0  0  0  0  0  0  0  0  0
    5.6762   -1.9338    0.0000 H   0  0  0  0  0  0  0  0  0  0  0  0
    6.0747   -1.2436    0.0000 H   0  0  0  0  0  0  0  0  0  0  0  0
    4.9272    2.9588    0.0000 H   0  0  0  0  0  0  0  0  0  0  0  0
    4.3860   -1.2686    0.0000 H   0  0  0  0  0  0  0  0  0  0  0  0
    3.9875   -1.9589    0.0000 H   0  0  0  0  0  0  0  0  0  0  0  0
    8.2386    2.6356    0.0000 H   0  0  0  0  0  0  0  0  0  0  0  0
    9.3954    3.9204    0.0000 H   0  0  0  0  0  0  0  0  0  0  0  0
    8.5310    5.4176    0.0000 H   0  0  0  0  0  0  0  0  0  0  0  0
    4.2690   -4.6612    0.0000 H   0  0  0  0  0  0  0  0  0  0  0  0
    2.8660   -2.2312    0.0000 H   0  0  0  0  0  0  0  0  0  0  0  0
    2.8660   -5.4712    0.0000 H   0  0  0  0  0  0  0  0  0  0  0  0
    1.4631   -3.0412    0.0000 H   0  0  0  0  0  0  0  0  0  0  0  0
    1.4631   -4.6612    0.0000 H   0  0  0  0  0  0  0  0  0  0  0  0
  1  4  2  0  0  0  0
  1  5  2  0  0  0  0
  1  7  1  0  0  0  0
  1 15  1  0  0  0  0
  2 15  1  0  0  0  0
  2 19  1  0  0  0  0
  3 14  1  0  0  0  0
  3 17  1  0  0  0  0
  6 11  1  0  0  0  0
  6 12  1  0  0  0  0
  6 13  1  0  0  0  0
  7  8  1  0  0  0  0
  7 36  1  0  0  0  0
  8  9  1  0  0  0  0
  8 10  1  0  0  0  0
  8 25  1  0  0  0  0
  9 11  1  0  0  0  0
  9 26  1  0  0  0  0
  9 27  1  0  0  0  0
 10 12  1  0  0  0  0
 10 28  1  0  0  0  0
 10 29  1  0  0  0  0
 11 30  1  0  0  0  0
 11 31  1  0  0  0  0
 12 32  1  0  0  0  0
 12 33  1  0  0  0  0
 13 14  1  0  0  0  0
 13 34  1  0  0  0  0
 13 35  1  0  0  0  0
 14 37  1  0  0  0  0
 14 38  1  0  0  0  0
 15 16  2  0  0  0  0
 16 18  1  0  0  0  0
 16 39  1  0  0  0  0
 17 20  2  0  0  0  0
 17 21  1  0  0  0  0
 18 19  2  0  0  0  0
 18 40  1  0  0  0  0
 19 41  1  0  0  0  0
 20 22  1  0  0  0  0
 20 42  1  0  0  0  0
 21 23  2  0  0  0  0
 21 43  1  0  0  0  0
 22 24  2  0  0  0  0
 22 44  1  0  0  0  0
 23 24  1  0  0  0  0
 23 45  1  0  0  0  0
 24 46  1  0  0  0  0
M  END
> <PUBCHEM_COMPOUND_CID>
55479093

> <PUBCHEM_COMPOUND_CANONICALIZED>
1

> <PUBCHEM_CACTVS_COMPLEXITY>
467

> <PUBCHEM_CACTVS_HBOND_ACCEPTOR>
6

> <PUBCHEM_CACTVS_HBOND_DONOR>
1

> <PUBCHEM_CACTVS_ROTATABLE_BOND>
7

> <PUBCHEM_CACTVS_SUBSKEYS>
AAADceB7MABgAAAAAAAAAAAAAAAAASAAAAA8QAAAAAAAAAABwAAAHgQQQAAACCzl0AawB4NABAqEACBCAHBDCZAgKBBIiJgOCIgOJiKk8RqHOCCk0BG4qAeQQAAAAAAAAAAAAAAAAAAAAAAAAAAAAAAAAA==

> <PUBCHEM_IUPAC_OPENEYE_NAME>
N-[1-(2-phenoxyethyl)-4-piperidyl]thiophene-2-sulfonamide

> <PUBCHEM_IUPAC_CAS_NAME>
N-[1-(2-phenoxyethyl)-4-piperidinyl]-2-thiophenesulfonamide

> <PUBCHEM_IUPAC_NAME_MARKUP>
<I>N</I>-[1-(2-phenoxyethyl)piperidin-4-yl]thiophene-2-sulfonamide

> <PUBCHEM_IUPAC_NAME>
N-[1-(2-phenoxyethyl)piperidin-4-yl]thiophene-2-sulfonamide

> <PUBCHEM_IUPAC_SYSTEMATIC_NAME>
N-[1-(2-phenoxyethyl)piperidin-4-yl]thiophene-2-sulfonamide

> <PUBCHEM_IUPAC_TRADITIONAL_NAME>
N-[1-(2-phenoxyethyl)-4-piperidyl]thiophene-2-sulfonamide

> <PUBCHEM_IUPAC_INCHI>
InChI=1S/C17H22N2O3S2/c20-24(21,17-7-4-14-23-17)18-15-8-10-19(11-9-15)12-13-22-16-5-2-1-3-6-16/h1-7,14-15,18H,8-13H2

> <PUBCHEM_IUPAC_INCHIKEY>
KHFRVSBPNUGGOX-UHFFFAOYSA-N

> <PUBCHEM_XLOGP3_AA>
3.2

> <PUBCHEM_EXACT_MASS>
366.10718492

> <PUBCHEM_MOLECULAR_FORMULA>
C17H22N2O3S2

> <PUBCHEM_MOLECULAR_WEIGHT>
366.5

> <PUBCHEM_OPENEYE_CAN_SMILES>
C1CN(CCC1NS(=O)(=O)C2=CC=CS2)CCOC3=CC=CC=C3

> <PUBCHEM_OPENEYE_ISO_SMILES>
C1CN(CCC1NS(=O)(=O)C2=CC=CS2)CCOC3=CC=CC=C3

> <PUBCHEM_CACTVS_TPSA>
95.3

> <PUBCHEM_MONOISOTOPIC_WEIGHT>
366.10718492

> <PUBCHEM_TOTAL_CHARGE>
0

> <PUBCHEM_HEAVY_ATOM_COUNT>
24

> <PUBCHEM_ATOM_DEF_STEREO_COUNT>
0

> <PUBCHEM_ATOM_UDEF_STEREO_COUNT>
0

> <PUBCHEM_BOND_DEF_STEREO_COUNT>
0

> <PUBCHEM_BOND_UDEF_STEREO_COUNT>
0

> <PUBCHEM_ISOTOPIC_ATOM_COUNT>
0

> <PUBCHEM_COMPONENT_COUNT>
1

> <PUBCHEM_CACTVS_TAUTO_COUNT>
-1

> <PUBCHEM_COORDINATE_TYPE>
1
5
255

> <PUBCHEM_BONDANNOTATIONS>
15  16  8
16  18  8
17  20  8
17  21  8
18  19  8
2  15  8
2  19  8
20  22  8
21  23  8
22  24  8
23  24  8

$$$$
