44241718
  -OEChem-09292322282D

 56 60  0     0  0  0  0  0  0999 V2000
    5.3147   -2.8684    0.0000 O   0  0  0  0  0  0  0  0  0  0  0  0
    8.4161    1.0930    0.0000 N   0  0  0  0  0  0  0  0  0  0  0  0
    3.5827    0.1316    0.0000 N   0  0  0  0  0  0  0  0  0  0  0  0
   10.3732    1.5055    0.0000 N   0  0  0  0  0  0  0  0  0  0  0  0
    4.4487   -1.3684    0.0000 N   0  0  0  0  0  0  0  0  0  0  0  0
    5.3147    0.1316    0.0000 N   0  0  0  0  0  0  0  0  0  0  0  0
    7.1270   -1.6732    0.0000 N   0  0  0  0  0  0  0  0  0  0  0  0
   12.0195    0.9674    0.0000 N   0  0  0  0  0  0  0  0  0  0  0  0
    3.4782    1.1261    0.0000 C   0  0  0  0  0  0  0  0  0  0  0  0
    2.6691   -0.2752    0.0000 C   0  0  0  0  0  0  0  0  0  0  0  0
    9.0840    0.3487    0.0000 C   0  0  0  0  0  0  0  0  0  0  0  0
    8.7268    2.0436    0.0000 C   0  0  0  0  0  0  0  0  0  0  0  0
    2.5000    1.3340    0.0000 C   0  0  0  0  0  0  0  0  0  0  0  0
    2.0000    0.4680    0.0000 C   0  0  0  0  0  0  0  0  0  0  0  0
    7.4376    0.8868    0.0000 C   0  0  0  0  0  0  0  0  0  0  0  0
   10.0625    0.5550    0.0000 C   0  0  0  0  0  0  0  0  0  0  0  0
    9.7053    2.2498    0.0000 C   0  0  0  0  0  0  0  0  0  0  0  0
    7.1270   -0.0637    0.0000 C   0  0  0  0  0  0  0  0  0  0  0  0
    4.4487   -0.3684    0.0000 C   0  0  0  0  0  0  0  0  0  0  0  0
    6.1808   -0.3684    0.0000 C   0  0  0  0  0  0  0  0  0  0  0  0
    6.1808   -1.3684    0.0000 C   0  0  0  0  0  0  0  0  0  0  0  0
    7.7106   -0.8684    0.0000 C   0  0  0  0  0  0  0  0  0  0  0  0
    5.3147   -1.8684    0.0000 C   0  0  0  0  0  0  0  0  0  0  0  0
   11.3517    1.7117    0.0000 C   0  0  0  0  0  0  0  0  0  0  0  0
    3.5827   -1.8684    0.0000 C   0  0  0  0  0  0  0  0  0  0  0  0
   11.6623    2.6622    0.0000 C   0  0  0  0  0  0  0  0  0  0  0  0
   12.6408    2.8684    0.0000 C   0  0  0  0  0  0  0  0  0  0  0  0
   12.9980    1.1736    0.0000 C   0  0  0  0  0  0  0  0  0  0  0  0
   13.3087    2.1241    0.0000 C   0  0  0  0  0  0  0  0  0  0  0  0
    4.0982    1.1261    0.0000 H   0  0  0  0  0  0  0  0  0  0  0  0
    3.5430    1.7427    0.0000 H   0  0  0  0  0  0  0  0  0  0  0  0
    2.1675   -0.6396    0.0000 H   0  0  0  0  0  0  0  0  0  0  0  0
    2.9791   -0.8121    0.0000 H   0  0  0  0  0  0  0  0  0  0  0  0
    8.5576    0.0211    0.0000 H   0  0  0  0  0  0  0  0  0  0  0  0
    9.3152   -0.2265    0.0000 H   0  0  0  0  0  0  0  0  0  0  0  0
    8.7062    2.6632    0.0000 H   0  0  0  0  0  0  0  0  0  0  0  0
    8.1130    2.1309    0.0000 H   0  0  0  0  0  0  0  0  0  0  0  0
    2.6916    1.9237    0.0000 H   0  0  0  0  0  0  0  0  0  0  0  0
    1.9336    1.5862    0.0000 H   0  0  0  0  0  0  0  0  0  0  0  0
    1.4984    0.8324    0.0000 H   0  0  0  0  0  0  0  0  0  0  0  0
    1.5851    0.0072    0.0000 H   0  0  0  0  0  0  0  0  0  0  0  0
    7.4171    1.5065    0.0000 H   0  0  0  0  0  0  0  0  0  0  0  0
    6.8238    0.9742    0.0000 H   0  0  0  0  0  0  0  0  0  0  0  0
   10.0831   -0.0647    0.0000 H   0  0  0  0  0  0  0  0  0  0  0  0
   10.6763    0.4676    0.0000 H   0  0  0  0  0  0  0  0  0  0  0  0
   10.2317    2.5774    0.0000 H   0  0  0  0  0  0  0  0  0  0  0  0
    9.4740    2.8250    0.0000 H   0  0  0  0  0  0  0  0  0  0  0  0
    8.3306   -0.8684    0.0000 H   0  0  0  0  0  0  0  0  0  0  0  0
    7.3196   -2.2625    0.0000 H   0  0  0  0  0  0  0  0  0  0  0  0
    3.2727   -1.3315    0.0000 H   0  0  0  0  0  0  0  0  0  0  0  0
    3.0457   -2.1784    0.0000 H   0  0  0  0  0  0  0  0  0  0  0  0
    3.8927   -2.4054    0.0000 H   0  0  0  0  0  0  0  0  0  0  0  0
   11.2483    3.1237    0.0000 H   0  0  0  0  0  0  0  0  0  0  0  0
   12.8334    3.4578    0.0000 H   0  0  0  0  0  0  0  0  0  0  0  0
   13.4121    0.7121    0.0000 H   0  0  0  0  0  0  0  0  0  0  0  0
   13.9153    2.2520    0.0000 H   0  0  0  0  0  0  0  0  0  0  0  0
  1 23  2  0  0  0  0
  2 11  1  0  0  0  0
  2 12  1  0  0  0  0
  2 15  1  0  0  0  0
  3  9  1  0  0  0  0
  3 10  1  0  0  0  0
  3 19  1  0  0  0  0
  4 16  1  0  0  0  0
  4 17  1  0  0  0  0
  4 24  1  0  0  0  0
  5 19  1  0  0  0  0
  5 23  1  0  0  0  0
  5 25  1  0  0  0  0
  6 19  2  0  0  0  0
  6 20  1  0  0  0  0
  7 21  1  0  0  0  0
  7 22  1  0  0  0  0
  7 49  1  0  0  0  0
  8 24  1  0  0  0  0
  8 28  2  0  0  0  0
  9 13  1  0  0  0  0
  9 30  1  0  0  0  0
  9 31  1  0  0  0  0
 10 14  1  0  0  0  0
 10 32  1  0  0  0  0
 10 33  1  0  0  0  0
 11 16  1  0  0  0  0
 11 34  1  0  0  0  0
 11 35  1  0  0  0  0
 12 17  1  0  0  0  0
 12 36  1  0  0  0  0
 12 37  1  0  0  0  0
 13 14  1  0  0  0  0
 13 38  1  0  0  0  0
 13 39  1  0  0  0  0
 14 40  1  0  0  0  0
 14 41  1  0  0  0  0
 15 18  1  0  0  0  0
 15 42  1  0  0  0  0
 15 43  1  0  0  0  0
 16 44  1  0  0  0  0
 16 45  1  0  0  0  0
 17 46  1  0  0  0  0
 17 47  1  0  0  0  0
 18 20  1  0  0  0  0
 18 22  2  0  0  0  0
 20 21  2  0  0  0  0
 21 23  1  0  0  0  0
 22 48  1  0  0  0  0
 24 26  2  0  0  0  0
 25 50  1  0  0  0  0
 25 51  1  0  0  0  0
 25 52  1  0  0  0  0
 26 27  1  0  0  0  0
 26 53  1  0  0  0  0
 27 29  2  0  0  0  0
 27 54  1  0  0  0  0
 28 29  1  0  0  0  0
 28 55  1  0  0  0  0
 29 56  1  0  0  0  0
M  END
> <PUBCHEM_COMPOUND_CID>
44241718

> <PUBCHEM_COMPOUND_CANONICALIZED>
1

> <PUBCHEM_CACTVS_COMPLEXITY>
627

> <PUBCHEM_CACTVS_HBOND_ACCEPTOR>
5

> <PUBCHEM_CACTVS_HBOND_DONOR>
1

> <PUBCHEM_CACTVS_ROTATABLE_BOND>
4

> <PUBCHEM_CACTVS_SUBSKEYS>
AAADceB7oAAAAAAAAAAAAAAAAAAAAWLAAAAsWIAAAAAAAEAB4AAAHgAQAAAADAjBngQ/8JPJkACoAzd3dACCgCk3EiAJ2aG4dNiIYPrA3fGUJYhogwLIyWYYAQAMAAAAAAAAAAAAAAAAAAAAAAAAAAAAAA==

> <PUBCHEM_IUPAC_OPENEYE_NAME>
3-methyl-7-[[4-(2-pyridyl)piperazin-1-yl]methyl]-2-pyrrolidin-1-yl-5H-pyrrolo[3,2-d]pyrimidin-4-one

> <PUBCHEM_IUPAC_CAS_NAME>
3-methyl-7-[[4-(2-pyridinyl)-1-piperazinyl]methyl]-2-(1-pyrrolidinyl)-5H-pyrrolo[3,2-d]pyrimidin-4-one

> <PUBCHEM_IUPAC_NAME_MARKUP>
3-methyl-7-[(4-pyridin-2-ylpiperazin-1-yl)methyl]-2-pyrrolidin-1-yl-5<I>H</I>-pyrrolo[3,2-d]pyrimidin-4-one

> <PUBCHEM_IUPAC_NAME>
3-methyl-7-[(4-pyridin-2-ylpiperazin-1-yl)methyl]-2-pyrrolidin-1-yl-5H-pyrrolo[3,2-d]pyrimidin-4-one

> <PUBCHEM_IUPAC_SYSTEMATIC_NAME>
3-methyl-7-[(4-pyridin-2-ylpiperazin-1-yl)methyl]-2-pyrrolidin-1-yl-5H-pyrrolo[3,2-d]pyrimidin-4-one

> <PUBCHEM_IUPAC_TRADITIONAL_NAME>
3-methyl-7-[[4-(2-pyridyl)piperazino]methyl]-2-pyrrolidino-5H-pyrrolo[3,2-d]pyrimidin-4-one

> <PUBCHEM_IUPAC_INCHI>
InChI=1S/C21H27N7O/c1-25-20(29)19-18(24-21(25)28-8-4-5-9-28)16(14-23-19)15-26-10-12-27(13-11-26)17-6-2-3-7-22-17/h2-3,6-7,14,23H,4-5,8-13,15H2,1H3

> <PUBCHEM_IUPAC_INCHIKEY>
ILONWIHGXYVYRK-UHFFFAOYSA-N

> <PUBCHEM_XLOGP3_AA>
1.2

> <PUBCHEM_EXACT_MASS>
393.22770851

> <PUBCHEM_MOLECULAR_FORMULA>
C21H27N7O

> <PUBCHEM_MOLECULAR_WEIGHT>
393.5

> <PUBCHEM_OPENEYE_CAN_SMILES>
CN1C(=O)C2=C(C(=CN2)CN3CCN(CC3)C4=CC=CC=N4)N=C1N5CCCC5

> <PUBCHEM_OPENEYE_ISO_SMILES>
CN1C(=O)C2=C(C(=CN2)CN3CCN(CC3)C4=CC=CC=N4)N=C1N5CCCC5

> <PUBCHEM_CACTVS_TPSA>
71.1

> <PUBCHEM_MONOISOTOPIC_WEIGHT>
393.22770851

> <PUBCHEM_TOTAL_CHARGE>
0

> <PUBCHEM_HEAVY_ATOM_COUNT>
29

> <PUBCHEM_ATOM_DEF_STEREO_COUNT>
0

> <PUBCHEM_ATOM_UDEF_STEREO_COUNT>
0

> <PUBCHEM_BOND_DEF_STEREO_COUNT>
0

> <PUBCHEM_BOND_UDEF_STEREO_COUNT>
0

> <PUBCHEM_ISOTOPIC_ATOM_COUNT>
0

> <PUBCHEM_COMPONENT_COUNT>
1

> <PUBCHEM_CACTVS_TAUTO_COUNT>
-1

> <PUBCHEM_COORDINATE_TYPE>
1
5
255

> <PUBCHEM_BONDANNOTATIONS>
18  20  8
18  22  8
20  21  8
21  23  8
24  26  8
26  27  8
27  29  8
28  29  8
5  19  8
5  23  8
6  19  8
6  20  8
7  21  8
7  22  8
8  24  8
8  28  8

$$$$
