122180571
  -OEChem-09292322362D

 63 67  0     0  0  0  0  0  0999 V2000
    4.9836    4.2547    0.0000 O   0  0  0  0  0  0  0  0  0  0  0  0
    4.6215    0.8095    0.0000 N   0  0  0  0  0  0  0  0  0  0  0  0
    3.8080    2.6366    0.0000 N   0  0  0  0  0  0  0  0  0  0  0  0
    8.9134   -3.3426    0.0000 N   0  0  0  0  0  0  0  0  0  0  0  0
    7.3307   -3.0062    0.0000 N   0  0  0  0  0  0  0  0  0  0  0  0
    7.9998   -3.7493    0.0000 N   0  0  0  0  0  0  0  0  0  0  0  0
   13.3115   -4.8634    0.0000 N   0  0  0  0  0  0  0  0  0  0  0  0
    5.2092    1.6186    0.0000 C   0  0  0  0  0  0  0  0  0  0  0  0
    3.6270    0.9141    0.0000 C   0  0  0  0  0  0  0  0  0  0  0  0
    4.8025    2.5321    0.0000 C   0  0  0  0  0  0  0  0  0  0  0  0
    3.2202    1.8276    0.0000 C   0  0  0  0  0  0  0  0  0  0  0  0
    5.0282   -0.1040    0.0000 C   0  0  0  0  0  0  0  0  0  0  0  0
    6.0227   -0.2085    0.0000 C   0  0  0  0  0  0  0  0  0  0  0  0
    6.4295   -1.1221    0.0000 C   0  0  0  0  0  0  0  0  0  0  0  0
    3.4013    3.5502    0.0000 C   0  0  0  0  0  0  0  0  0  0  0  0
    7.4240   -1.2266    0.0000 C   0  0  0  0  0  0  0  0  0  0  0  0
    3.9890    4.3592    0.0000 C   0  0  0  0  0  0  0  0  0  0  0  0
    2.4067    3.6547    0.0000 C   0  0  0  0  0  0  0  0  0  0  0  0
    7.8307   -2.1402    0.0000 C   0  0  0  0  0  0  0  0  0  0  0  0
    3.5823    5.2727    0.0000 C   0  0  0  0  0  0  0  0  0  0  0  0
    2.0000    4.5682    0.0000 C   0  0  0  0  0  0  0  0  0  0  0  0
    2.5878    5.3773    0.0000 C   0  0  0  0  0  0  0  0  0  0  0  0
    8.8089   -2.3481    0.0000 C   0  0  0  0  0  0  0  0  0  0  0  0
    9.7794   -3.8426    0.0000 C   0  0  0  0  0  0  0  0  0  0  0  0
    5.5714    5.0637    0.0000 C   0  0  0  0  0  0  0  0  0  0  0  0
   10.6454   -3.3426    0.0000 C   0  0  0  0  0  0  0  0  0  0  0  0
    9.7794   -4.8426    0.0000 C   0  0  0  0  0  0  0  0  0  0  0  0
   11.5115   -3.8426    0.0000 C   0  0  0  0  0  0  0  0  0  0  0  0
   11.5115   -4.8426    0.0000 C   0  0  0  0  0  0  0  0  0  0  0  0
   10.6454   -5.3426    0.0000 C   0  0  0  0  0  0  0  0  0  0  0  0
   12.4054   -3.3079    0.0000 C   0  0  0  0  0  0  0  0  0  0  0  0
   12.4054   -5.3773    0.0000 C   0  0  0  0  0  0  0  0  0  0  0  0
   13.3115   -3.8218    0.0000 C   0  0  0  0  0  0  0  0  0  0  0  0
    5.6399    1.1726    0.0000 H   0  0  0  0  0  0  0  0  0  0  0  0
    5.7233    1.9652    0.0000 H   0  0  0  0  0  0  0  0  0  0  0  0
    3.0254    0.7641    0.0000 H   0  0  0  0  0  0  0  0  0  0  0  0
    3.6702    0.2956    0.0000 H   0  0  0  0  0  0  0  0  0  0  0  0
    5.4041    2.6821    0.0000 H   0  0  0  0  0  0  0  0  0  0  0  0
    4.7593    3.1506    0.0000 H   0  0  0  0  0  0  0  0  0  0  0  0
    2.7895    2.2736    0.0000 H   0  0  0  0  0  0  0  0  0  0  0  0
    2.7062    1.4809    0.0000 H   0  0  0  0  0  0  0  0  0  0  0  0
    4.4266   -0.2540    0.0000 H   0  0  0  0  0  0  0  0  0  0  0  0
    5.0714   -0.7225    0.0000 H   0  0  0  0  0  0  0  0  0  0  0  0
    6.6243   -0.0586    0.0000 H   0  0  0  0  0  0  0  0  0  0  0  0
    5.9795    0.4099    0.0000 H   0  0  0  0  0  0  0  0  0  0  0  0
    5.8279   -1.2721    0.0000 H   0  0  0  0  0  0  0  0  0  0  0  0
    6.4727   -1.7406    0.0000 H   0  0  0  0  0  0  0  0  0  0  0  0
    8.0256   -1.0766    0.0000 H   0  0  0  0  0  0  0  0  0  0  0  0
    7.3807   -0.6081    0.0000 H   0  0  0  0  0  0  0  0  0  0  0  0
    2.0423    3.1531    0.0000 H   0  0  0  0  0  0  0  0  0  0  0  0
    3.9467    5.7743    0.0000 H   0  0  0  0  0  0  0  0  0  0  0  0
    1.3834    4.6330    0.0000 H   0  0  0  0  0  0  0  0  0  0  0  0
    2.3356    5.9437    0.0000 H   0  0  0  0  0  0  0  0  0  0  0  0
    9.2696   -1.9332    0.0000 H   0  0  0  0  0  0  0  0  0  0  0  0
    6.0729    4.6992    0.0000 H   0  0  0  0  0  0  0  0  0  0  0  0
    5.9358    5.5653    0.0000 H   0  0  0  0  0  0  0  0  0  0  0  0
    5.0698    5.4281    0.0000 H   0  0  0  0  0  0  0  0  0  0  0  0
   10.6454   -2.7226    0.0000 H   0  0  0  0  0  0  0  0  0  0  0  0
    9.2425   -5.1526    0.0000 H   0  0  0  0  0  0  0  0  0  0  0  0
   10.6454   -5.9626    0.0000 H   0  0  0  0  0  0  0  0  0  0  0  0
   12.3982   -2.6880    0.0000 H   0  0  0  0  0  0  0  0  0  0  0  0
   12.3982   -5.9972    0.0000 H   0  0  0  0  0  0  0  0  0  0  0  0
   13.8472   -3.5097    0.0000 H   0  0  0  0  0  0  0  0  0  0  0  0
  1 17  1  0  0  0  0
  1 25  1  0  0  0  0
  2  8  1  0  0  0  0
  2  9  1  0  0  0  0
  2 12  1  0  0  0  0
  3 10  1  0  0  0  0
  3 11  1  0  0  0  0
  3 15  1  0  0  0  0
  4  6  1  0  0  0  0
  4 23  1  0  0  0  0
  4 24  1  0  0  0  0
  5  6  2  0  0  0  0
  5 19  1  0  0  0  0
  7 32  2  0  0  0  0
  7 33  1  0  0  0  0
  8 10  1  0  0  0  0
  8 34  1  0  0  0  0
  8 35  1  0  0  0  0
  9 11  1  0  0  0  0
  9 36  1  0  0  0  0
  9 37  1  0  0  0  0
 10 38  1  0  0  0  0
 10 39  1  0  0  0  0
 11 40  1  0  0  0  0
 11 41  1  0  0  0  0
 12 13  1  0  0  0  0
 12 42  1  0  0  0  0
 12 43  1  0  0  0  0
 13 14  1  0  0  0  0
 13 44  1  0  0  0  0
 13 45  1  0  0  0  0
 14 16  1  0  0  0  0
 14 46  1  0  0  0  0
 14 47  1  0  0  0  0
 15 17  1  0  0  0  0
 15 18  2  0  0  0  0
 16 19  1  0  0  0  0
 16 48  1  0  0  0  0
 16 49  1  0  0  0  0
 17 20  2  0  0  0  0
 18 21  1  0  0  0  0
 18 50  1  0  0  0  0
 19 23  2  0  0  0  0
 20 22  1  0  0  0  0
 20 51  1  0  0  0  0
 21 22  2  0  0  0  0
 21 52  1  0  0  0  0
 22 53  1  0  0  0  0
 23 54  1  0  0  0  0
 24 26  2  0  0  0  0
 24 27  1  0  0  0  0
 25 55  1  0  0  0  0
 25 56  1  0  0  0  0
 25 57  1  0  0  0  0
 26 28  1  0  0  0  0
 26 58  1  0  0  0  0
 27 30  2  0  0  0  0
 27 59  1  0  0  0  0
 28 29  2  0  0  0  0
 28 31  1  0  0  0  0
 29 30  1  0  0  0  0
 29 32  1  0  0  0  0
 30 60  1  0  0  0  0
 31 33  2  0  0  0  0
 31 61  1  0  0  0  0
 32 62  1  0  0  0  0
 33 63  1  0  0  0  0
M  END
> <PUBCHEM_COMPOUND_CID>
122180571

> <PUBCHEM_COMPOUND_CANONICALIZED>
1

> <PUBCHEM_CACTVS_COMPLEXITY>
585

> <PUBCHEM_CACTVS_HBOND_ACCEPTOR>
6

> <PUBCHEM_CACTVS_HBOND_DONOR>
0

> <PUBCHEM_CACTVS_ROTATABLE_BOND>
8

> <PUBCHEM_CACTVS_SUBSKEYS>
AAADceB7oAAAAAAAAAAAAAAAAAAAAWAAAAA8eIEAAAAAAACx/AAAHgAIAAAADAzBngY+xtMIFACiAzRnRACCjCQxsiAY2CA/fJgOZuLEsZuVMChkwBHY6AeQwIAOiAAAQAAQEAAQAACAACAgAAAAAAAAAA==

> <PUBCHEM_IUPAC_OPENEYE_NAME>
6-[4-[4-[4-(2-methoxyphenyl)piperazin-1-yl]butyl]triazol-1-yl]isoquinoline

> <PUBCHEM_IUPAC_CAS_NAME>
6-[4-[4-[4-(2-methoxyphenyl)-1-piperazinyl]butyl]-1-triazolyl]isoquinoline

> <PUBCHEM_IUPAC_NAME_MARKUP>
6-[4-[4-[4-(2-methoxyphenyl)piperazin-1-yl]butyl]triazol-1-yl]isoquinoline

> <PUBCHEM_IUPAC_NAME>
6-[4-[4-[4-(2-methoxyphenyl)piperazin-1-yl]butyl]triazol-1-yl]isoquinoline

> <PUBCHEM_IUPAC_SYSTEMATIC_NAME>
6-[4-[4-[4-(2-methoxyphenyl)piperazin-1-yl]butyl]-1,2,3-triazol-1-yl]isoquinoline

> <PUBCHEM_IUPAC_TRADITIONAL_NAME>
6-[4-[4-[4-(2-methoxyphenyl)piperazino]butyl]triazol-1-yl]isoquinoline

> <PUBCHEM_IUPAC_INCHI>
InChI=1S/C26H30N6O/c1-33-26-8-3-2-7-25(26)31-16-14-30(15-17-31)13-5-4-6-23-20-32(29-28-23)24-10-9-22-19-27-12-11-21(22)18-24/h2-3,7-12,18-20H,4-6,13-17H2,1H3

> <PUBCHEM_IUPAC_INCHIKEY>
QHKQWOMFBZYAFY-UHFFFAOYSA-N

> <PUBCHEM_XLOGP3_AA>
4.1

> <PUBCHEM_EXACT_MASS>
442.24810960

> <PUBCHEM_MOLECULAR_FORMULA>
C26H30N6O

> <PUBCHEM_MOLECULAR_WEIGHT>
442.6

> <PUBCHEM_OPENEYE_CAN_SMILES>
COC1=CC=CC=C1N2CCN(CC2)CCCCC3=CN(N=N3)C4=CC5=C(C=C4)C=NC=C5

> <PUBCHEM_OPENEYE_ISO_SMILES>
COC1=CC=CC=C1N2CCN(CC2)CCCCC3=CN(N=N3)C4=CC5=C(C=C4)C=NC=C5

> <PUBCHEM_CACTVS_TPSA>
59.3

> <PUBCHEM_MONOISOTOPIC_WEIGHT>
442.24810960

> <PUBCHEM_TOTAL_CHARGE>
0

> <PUBCHEM_HEAVY_ATOM_COUNT>
33

> <PUBCHEM_ATOM_DEF_STEREO_COUNT>
0

> <PUBCHEM_ATOM_UDEF_STEREO_COUNT>
0

> <PUBCHEM_BOND_DEF_STEREO_COUNT>
0

> <PUBCHEM_BOND_UDEF_STEREO_COUNT>
0

> <PUBCHEM_ISOTOPIC_ATOM_COUNT>
0

> <PUBCHEM_COMPONENT_COUNT>
1

> <PUBCHEM_CACTVS_TAUTO_COUNT>
-1

> <PUBCHEM_COORDINATE_TYPE>
1
5
255

> <PUBCHEM_BONDANNOTATIONS>
15  17  8
15  18  8
17  20  8
18  21  8
19  23  8
20  22  8
21  22  8
24  26  8
24  27  8
26  28  8
27  30  8
28  29  8
28  31  8
29  30  8
29  32  8
31  33  8
4  23  8
4  6  8
5  19  8
5  6  8
7  32  8
7  33  8

$$$$
