21454
  -OEChem-09292322512D

 34 36  0     0  0  0  0  0  0999 V2000
    5.9674    1.0994    0.0000 N   0  0  0  0  0  0  0  0  0  0  0  0
    4.6783   -1.6668    0.0000 N   0  0  0  0  0  0  0  0  0  0  0  0
    6.6353    0.3551    0.0000 C   0  0  0  0  0  0  0  0  0  0  0  0
    6.2781    2.0499    0.0000 C   0  0  0  0  0  0  0  0  0  0  0  0
    7.6138    0.5613    0.0000 C   0  0  0  0  0  0  0  0  0  0  0  0
    7.2566    2.2561    0.0000 C   0  0  0  0  0  0  0  0  0  0  0  0
    7.9244    1.5118    0.0000 C   0  0  0  0  0  0  0  0  0  0  0  0
    4.9889    0.8932    0.0000 C   0  0  0  0  0  0  0  0  0  0  0  0
    4.6783   -0.0573    0.0000 C   0  0  0  0  0  0  0  0  0  0  0  0
    3.7320   -0.3621    0.0000 C   0  0  0  0  0  0  0  0  0  0  0  0
    5.2619   -0.8621    0.0000 C   0  0  0  0  0  0  0  0  0  0  0  0
    3.7320   -1.3621    0.0000 C   0  0  0  0  0  0  0  0  0  0  0  0
    2.8660    0.1379    0.0000 C   0  0  0  0  0  0  0  0  0  0  0  0
    2.8660   -1.8621    0.0000 C   0  0  0  0  0  0  0  0  0  0  0  0
    2.0000   -0.3621    0.0000 C   0  0  0  0  0  0  0  0  0  0  0  0
    2.0000   -1.3621    0.0000 C   0  0  0  0  0  0  0  0  0  0  0  0
    6.1089    0.0275    0.0000 H   0  0  0  0  0  0  0  0  0  0  0  0
    6.8665   -0.2202    0.0000 H   0  0  0  0  0  0  0  0  0  0  0  0
    6.2575    2.6696    0.0000 H   0  0  0  0  0  0  0  0  0  0  0  0
    5.6643    2.1373    0.0000 H   0  0  0  0  0  0  0  0  0  0  0  0
    7.6344   -0.0583    0.0000 H   0  0  0  0  0  0  0  0  0  0  0  0
    8.2276    0.4740    0.0000 H   0  0  0  0  0  0  0  0  0  0  0  0
    7.7830    2.5838    0.0000 H   0  0  0  0  0  0  0  0  0  0  0  0
    7.0254    2.8314    0.0000 H   0  0  0  0  0  0  0  0  0  0  0  0
    8.4714    1.2198    0.0000 H   0  0  0  0  0  0  0  0  0  0  0  0
    8.3070    1.9997    0.0000 H   0  0  0  0  0  0  0  0  0  0  0  0
    4.9684    1.5128    0.0000 H   0  0  0  0  0  0  0  0  0  0  0  0
    4.3751    0.9805    0.0000 H   0  0  0  0  0  0  0  0  0  0  0  0
    5.8819   -0.8621    0.0000 H   0  0  0  0  0  0  0  0  0  0  0  0
    4.8709   -2.2561    0.0000 H   0  0  0  0  0  0  0  0  0  0  0  0
    2.8660    0.7579    0.0000 H   0  0  0  0  0  0  0  0  0  0  0  0
    2.8660   -2.4821    0.0000 H   0  0  0  0  0  0  0  0  0  0  0  0
    1.4631   -0.0521    0.0000 H   0  0  0  0  0  0  0  0  0  0  0  0
    1.4631   -1.6721    0.0000 H   0  0  0  0  0  0  0  0  0  0  0  0
  1  3  1  0  0  0  0
  1  4  1  0  0  0  0
  1  8  1  0  0  0  0
  2 11  1  0  0  0  0
  2 12  1  0  0  0  0
  2 30  1  0  0  0  0
  3  5  1  0  0  0  0
  3 17  1  0  0  0  0
  3 18  1  0  0  0  0
  4  6  1  0  0  0  0
  4 19  1  0  0  0  0
  4 20  1  0  0  0  0
  5  7  1  0  0  0  0
  5 21  1  0  0  0  0
  5 22  1  0  0  0  0
  6  7  1  0  0  0  0
  6 23  1  0  0  0  0
  6 24  1  0  0  0  0
  7 25  1  0  0  0  0
  7 26  1  0  0  0  0
  8  9  1  0  0  0  0
  8 27  1  0  0  0  0
  8 28  1  0  0  0  0
  9 10  1  0  0  0  0
  9 11  2  0  0  0  0
 10 12  1  0  0  0  0
 10 13  2  0  0  0  0
 11 29  1  0  0  0  0
 12 14  2  0  0  0  0
 13 15  1  0  0  0  0
 13 31  1  0  0  0  0
 14 16  1  0  0  0  0
 14 32  1  0  0  0  0
 15 16  2  0  0  0  0
 15 33  1  0  0  0  0
 16 34  1  0  0  0  0
M  END
> <PUBCHEM_COMPOUND_CID>
21454

> <PUBCHEM_COMPOUND_CANONICALIZED>
1

> <PUBCHEM_CACTVS_COMPLEXITY>
223

> <PUBCHEM_CACTVS_HBOND_ACCEPTOR>
1

> <PUBCHEM_CACTVS_HBOND_DONOR>
1

> <PUBCHEM_CACTVS_ROTATABLE_BOND>
2

> <PUBCHEM_CACTVS_SUBSKEYS>
AAADceBzAAAAAAAAAAAAAAAAAAAAAWAAAAA8QAAAAAAAAFgB8AAAHAAQAAAADAjBHgQ8wPPJkACgAzRnRACCgCAxAiAI2aA4ZJgIIOLA0ZGEIAhgkADIyAcQgMAOgAAAAAACAAAAAAAAAAQAAAAAAAAAAA==

> <PUBCHEM_IUPAC_OPENEYE_NAME>
3-(1-piperidylmethyl)-1H-indole

> <PUBCHEM_IUPAC_CAS_NAME>
3-(1-piperidinylmethyl)-1H-indole

> <PUBCHEM_IUPAC_NAME_MARKUP>
3-(piperidin-1-ylmethyl)-1<I>H</I>-indole

> <PUBCHEM_IUPAC_NAME>
3-(piperidin-1-ylmethyl)-1H-indole

> <PUBCHEM_IUPAC_SYSTEMATIC_NAME>
3-(piperidin-1-ylmethyl)-1H-indole

> <PUBCHEM_IUPAC_TRADITIONAL_NAME>
3-(piperidinomethyl)-1H-indole

> <PUBCHEM_IUPAC_INCHI>
InChI=1S/C14H18N2/c1-4-8-16(9-5-1)11-12-10-15-14-7-3-2-6-13(12)14/h2-3,6-7,10,15H,1,4-5,8-9,11H2

> <PUBCHEM_IUPAC_INCHIKEY>
HPKXPFRRVVWAPD-UHFFFAOYSA-N

> <PUBCHEM_XLOGP3>
2.6

> <PUBCHEM_EXACT_MASS>
214.146998583

> <PUBCHEM_MOLECULAR_FORMULA>
C14H18N2

> <PUBCHEM_MOLECULAR_WEIGHT>
214.31

> <PUBCHEM_OPENEYE_CAN_SMILES>
C1CCN(CC1)CC2=CNC3=CC=CC=C32

> <PUBCHEM_OPENEYE_ISO_SMILES>
C1CCN(CC1)CC2=CNC3=CC=CC=C32

> <PUBCHEM_CACTVS_TPSA>
19

> <PUBCHEM_MONOISOTOPIC_WEIGHT>
214.146998583

> <PUBCHEM_TOTAL_CHARGE>
0

> <PUBCHEM_HEAVY_ATOM_COUNT>
16

> <PUBCHEM_ATOM_DEF_STEREO_COUNT>
0

> <PUBCHEM_ATOM_UDEF_STEREO_COUNT>
0

> <PUBCHEM_BOND_DEF_STEREO_COUNT>
0

> <PUBCHEM_BOND_UDEF_STEREO_COUNT>
0

> <PUBCHEM_ISOTOPIC_ATOM_COUNT>
0

> <PUBCHEM_COMPONENT_COUNT>
1

> <PUBCHEM_CACTVS_TAUTO_COUNT>
1

> <PUBCHEM_COORDINATE_TYPE>
1
5
255

> <PUBCHEM_BONDANNOTATIONS>
10  12  8
10  13  8
12  14  8
13  15  8
14  16  8
15  16  8
2  11  8
2  12  8
9  10  8
9  11  8

$$$$
