46227320
  -OEChem-09292322482D

 39 42  0     1  0  0  0  0  0999 V2000
    2.7357    1.6946    0.0000 O   0  0  0  0  0  0  0  0  0  0  0  0
    7.4741    0.8015    0.0000 N   0  0  3  0  0  0  0  0  0  0  0  0
    6.5731    0.3676    0.0000 C   0  0  3  0  0  0  0  0  0  0  0  0
    8.1592    0.0812    0.0000 C   0  0  0  0  0  0  0  0  0  0  0  0
    7.6966    1.7765    0.0000 C   0  0  0  0  0  0  0  0  0  0  0  0
    6.7091   -0.6171    0.0000 C   0  0  0  0  0  0  0  0  0  0  0  0
    5.6721    0.8015    0.0000 C   0  0  0  0  0  0  0  0  0  0  0  0
    7.6874   -0.7937    0.0000 C   0  0  0  0  0  0  0  0  0  0  0  0
    7.0731    2.5583    0.0000 C   0  0  0  0  0  0  0  0  0  0  0  0
    6.0731    2.5583    0.0000 C   0  0  0  0  0  0  0  0  0  0  0  0
    5.4496    1.7765    0.0000 C   0  0  0  0  0  0  0  0  0  0  0  0
    6.0281   -1.3971    0.0000 C   0  0  0  0  0  0  0  0  0  0  0  0
    4.9196    0.0814    0.0000 C   0  0  0  0  0  0  0  0  0  0  0  0
    8.0525   -1.7627    0.0000 C   0  0  0  0  0  0  0  0  0  0  0  0
    4.4591    2.0988    0.0000 C   0  0  0  0  0  0  0  0  0  0  0  0
    6.3708   -2.3743    0.0000 C   0  0  0  0  0  0  0  0  0  0  0  0
    3.9219    0.3807    0.0000 C   0  0  0  0  0  0  0  0  0  0  0  0
    7.3897   -2.5583    0.0000 C   0  0  0  0  0  0  0  0  0  0  0  0
    3.6901    1.3962    0.0000 C   0  0  0  0  0  0  0  0  0  0  0  0
    2.0000    1.0173    0.0000 C   0  0  0  0  0  0  0  0  0  0  0  0
    6.0720    0.0026    0.0000 H   0  0  0  0  0  0  0  0  0  0  0  0
    8.6709   -0.2688    0.0000 H   0  0  0  0  0  0  0  0  0  0  0  0
    8.5610    0.5534    0.0000 H   0  0  0  0  0  0  0  0  0  0  0  0
    8.2552    1.5074    0.0000 H   0  0  0  0  0  0  0  0  0  0  0  0
    8.0832    2.2612    0.0000 H   0  0  0  0  0  0  0  0  0  0  0  0
    7.6317    2.8273    0.0000 H   0  0  0  0  0  0  0  0  0  0  0  0
    6.9351    3.1627    0.0000 H   0  0  0  0  0  0  0  0  0  0  0  0
    6.2111    3.1627    0.0000 H   0  0  0  0  0  0  0  0  0  0  0  0
    5.5145    2.8273    0.0000 H   0  0  0  0  0  0  0  0  0  0  0  0
    5.4193   -1.2799    0.0000 H   0  0  0  0  0  0  0  0  0  0  0  0
    5.0645   -0.5215    0.0000 H   0  0  0  0  0  0  0  0  0  0  0  0
    8.6638   -1.8658    0.0000 H   0  0  0  0  0  0  0  0  0  0  0  0
    4.3281    2.7048    0.0000 H   0  0  0  0  0  0  0  0  0  0  0  0
    5.9684   -2.8460    0.0000 H   0  0  0  0  0  0  0  0  0  0  0  0
    3.4690   -0.0428    0.0000 H   0  0  0  0  0  0  0  0  0  0  0  0
    7.6016   -3.1410    0.0000 H   0  0  0  0  0  0  0  0  0  0  0  0
    1.5800    1.4734    0.0000 H   0  0  0  0  0  0  0  0  0  0  0  0
    1.5439    0.5974    0.0000 H   0  0  0  0  0  0  0  0  0  0  0  0
    2.4200    0.5612    0.0000 H   0  0  0  0  0  0  0  0  0  0  0  0
  1 19  1  0  0  0  0
  1 20  1  0  0  0  0
  2  3  1  0  0  0  0
  2  4  1  0  0  0  0
  2  5  1  0  0  0  0
  3  6  1  0  0  0  0
  3  7  1  0  0  0  0
  3 21  1  0  0  0  0
  4  8  1  0  0  0  0
  4 22  1  0  0  0  0
  4 23  1  0  0  0  0
  5  9  1  0  0  0  0
  5 24  1  0  0  0  0
  5 25  1  0  0  0  0
  6  8  1  0  0  0  0
  6 12  2  0  0  0  0
  7 11  2  0  0  0  0
  7 13  1  0  0  0  0
  8 14  2  0  0  0  0
  9 10  1  0  0  0  0
  9 26  1  0  0  0  0
  9 27  1  0  0  0  0
 10 11  1  0  0  0  0
 10 28  1  0  0  0  0
 10 29  1  0  0  0  0
 11 15  1  0  0  0  0
 12 16  1  0  0  0  0
 12 30  1  0  0  0  0
 13 17  2  0  0  0  0
 13 31  1  0  0  0  0
 14 18  1  0  0  0  0
 14 32  1  0  0  0  0
 15 19  2  0  0  0  0
 15 33  1  0  0  0  0
 16 18  2  0  0  0  0
 16 34  1  0  0  0  0
 17 19  1  0  0  0  0
 17 35  1  0  0  0  0
 18 36  1  0  0  0  0
 20 37  1  0  0  0  0
 20 38  1  0  0  0  0
 20 39  1  0  0  0  0
M  END
> <PUBCHEM_COMPOUND_CID>
46227320

> <PUBCHEM_COMPOUND_CANONICALIZED>
1

> <PUBCHEM_CACTVS_COMPLEXITY>
344

> <PUBCHEM_CACTVS_HBOND_ACCEPTOR>
2

> <PUBCHEM_CACTVS_HBOND_DONOR>
0

> <PUBCHEM_CACTVS_ROTATABLE_BOND>
1

> <PUBCHEM_CACTVS_SUBSKEYS>
AAADceB6IAAAAAAAAAAAAAAAAAAAAWAAAAAwYAAABYAAAFixQAAAHgAAAAAADCzBmAYyBoMABACAAiBCAACCCAAgIAAIiAAODIgMJiKEsRuEMChkwBGIqAeQ0PMOoAABAAAQAABAAAIAACAAAAAAAAAAAA==

> <PUBCHEM_IUPAC_OPENEYE_NAME>
5-methoxy-11-azatetracyclo[9.7.0.02,7.013,18]octadeca-2(7),3,5,13,15,17-hexaene

> <PUBCHEM_IUPAC_CAS_NAME>
5-methoxy-11-azatetracyclo[9.7.0.02,7.013,18]octadeca-2(7),3,5,13,15,17-hexaene

> <PUBCHEM_IUPAC_NAME_MARKUP>
5-methoxy-11-azatetracyclo[9.7.0.0<SUP>2,7</SUP>.0<SUP>13,18</SUP>]octadeca-2(7),3,5,13,15,17-hexaene

> <PUBCHEM_IUPAC_NAME>
5-methoxy-11-azatetracyclo[9.7.0.02,7.013,18]octadeca-2(7),3,5,13,15,17-hexaene

> <PUBCHEM_IUPAC_SYSTEMATIC_NAME>
5-methoxy-11-azatetracyclo[9.7.0.02,7.013,18]octadeca-2(7),3,5,13,15,17-hexaene

> <PUBCHEM_IUPAC_TRADITIONAL_NAME>
5-methoxy-11-azatetracyclo[9.7.0.02,7.013,18]octadeca-2(7),3,5,13,15,17-hexaene

> <PUBCHEM_IUPAC_INCHI>
InChI=1S/C18H19NO/c1-20-15-8-9-17-13(11-15)6-4-10-19-12-14-5-2-3-7-16(14)18(17)19/h2-3,5,7-9,11,18H,4,6,10,12H2,1H3

> <PUBCHEM_IUPAC_INCHIKEY>
JATYIIXSEHMITM-UHFFFAOYSA-N

> <PUBCHEM_XLOGP3_AA>
3.4

> <PUBCHEM_EXACT_MASS>
265.146664230

> <PUBCHEM_MOLECULAR_FORMULA>
C18H19NO

> <PUBCHEM_MOLECULAR_WEIGHT>
265.3

> <PUBCHEM_OPENEYE_CAN_SMILES>
COC1=CC2=C(C=C1)C3C4=CC=CC=C4CN3CCC2

> <PUBCHEM_OPENEYE_ISO_SMILES>
COC1=CC2=C(C=C1)C3C4=CC=CC=C4CN3CCC2

> <PUBCHEM_CACTVS_TPSA>
12.5

> <PUBCHEM_MONOISOTOPIC_WEIGHT>
265.146664230

> <PUBCHEM_TOTAL_CHARGE>
0

> <PUBCHEM_HEAVY_ATOM_COUNT>
20

> <PUBCHEM_ATOM_DEF_STEREO_COUNT>
0

> <PUBCHEM_ATOM_UDEF_STEREO_COUNT>
1

> <PUBCHEM_BOND_DEF_STEREO_COUNT>
0

> <PUBCHEM_BOND_UDEF_STEREO_COUNT>
0

> <PUBCHEM_ISOTOPIC_ATOM_COUNT>
0

> <PUBCHEM_COMPONENT_COUNT>
1

> <PUBCHEM_CACTVS_TAUTO_COUNT>
-1

> <PUBCHEM_COORDINATE_TYPE>
1
5
255

> <PUBCHEM_BONDANNOTATIONS>
11  15  8
12  16  8
13  17  8
14  18  8
15  19  8
16  18  8
17  19  8
3  6  3
6  12  8
6  8  8
7  11  8
7  13  8
8  14  8

$$$$
