76328714
  -OEChem-09292321592D

 71 73  0     1  0  0  0  0  0999 V2000
   17.0586    1.1200    0.0000 F   0  0  0  0  0  0  0  0  0  0  0  0
    4.0682    3.6200    0.0000 O   0  0  0  0  0  0  0  0  0  0  0  0
   14.4606    0.6200    0.0000 O   0  0  0  0  0  0  0  0  0  0  0  0
    0.5381    3.5958    0.0000 O   0  0  0  0  0  0  0  0  0  0  0  0
    9.8284    9.2853    0.0000 O   0  0  0  0  0  0  0  0  0  0  0  0
    7.2303    9.7853    0.0000 O   0  0  0  0  0  0  0  0  0  0  0  0
    8.9623   10.7853    0.0000 O   0  0  0  0  0  0  0  0  0  0  0  0
    8.0963    8.2853    0.0000 O   0  0  0  0  0  0  0  0  0  0  0  0
    9.2644    3.6200    0.0000 N   0  0  0  0  0  0  0  0  0  0  0  0
   10.9965    2.6200    0.0000 N   0  0  0  0  0  0  0  0  0  0  0  0
    6.6663    4.1200    0.0000 N   0  0  0  0  0  0  0  0  0  0  0  0
    9.2644    2.6200    0.0000 C   0  0  0  0  0  0  0  0  0  0  0  0
   10.1304    4.1200    0.0000 C   0  0  0  0  0  0  0  0  0  0  0  0
   10.1304    2.1200    0.0000 C   0  0  0  0  0  0  0  0  0  0  0  0
   10.9965    3.6200    0.0000 C   0  0  0  0  0  0  0  0  0  0  0  0
    8.3984    4.1200    0.0000 C   0  0  0  0  0  0  0  0  0  0  0  0
    4.9343    4.1200    0.0000 C   0  0  1  0  0  0  0  0  0  0  0  0
    7.5324    3.6200    0.0000 C   0  0  0  0  0  0  0  0  0  0  0  0
    5.8003    3.6200    0.0000 C   0  0  0  0  0  0  0  0  0  0  0  0
    4.9343    5.1200    0.0000 C   0  0  0  0  0  0  0  0  0  0  0  0
    4.0682    5.6200    0.0000 C   0  0  0  0  0  0  0  0  0  0  0  0
   11.8625    2.1200    0.0000 C   0  0  0  0  0  0  0  0  0  0  0  0
    3.2022    5.1200    0.0000 C   0  0  0  0  0  0  0  0  0  0  0  0
    3.2022    4.1200    0.0000 C   0  0  0  0  0  0  0  0  0  0  0  0
   12.7285    2.6200    0.0000 C   0  0  0  0  0  0  0  0  0  0  0  0
   11.8625    1.1200    0.0000 C   0  0  0  0  0  0  0  0  0  0  0  0
    2.3083    5.6547    0.0000 C   0  0  0  0  0  0  0  0  0  0  0  0
    2.3083    3.5853    0.0000 C   0  0  0  0  0  0  0  0  0  0  0  0
   13.5945    2.1200    0.0000 C   0  0  0  0  0  0  0  0  0  0  0  0
   12.7285    0.6200    0.0000 C   0  0  0  0  0  0  0  0  0  0  0  0
    1.4022    5.1408    0.0000 C   0  0  0  0  0  0  0  0  0  0  0  0
    1.4022    4.0992    0.0000 C   0  0  0  0  0  0  0  0  0  0  0  0
   13.5945    1.1200    0.0000 C   0  0  0  0  0  0  0  0  0  0  0  0
   15.3266    1.1200    0.0000 C   0  0  0  0  0  0  0  0  0  0  0  0
   16.1926    0.6200    0.0000 C   0  0  0  0  0  0  0  0  0  0  0  0
    8.9623    9.7853    0.0000 C   0  0  0  0  0  0  0  0  0  0  0  0
    8.0963    9.2853    0.0000 C   0  0  0  0  0  0  0  0  0  0  0  0
    8.6538    2.7277    0.0000 H   0  0  0  0  0  0  0  0  0  0  0  0
    9.0524    2.0374    0.0000 H   0  0  0  0  0  0  0  0  0  0  0  0
   10.5290    4.5950    0.0000 H   0  0  0  0  0  0  0  0  0  0  0  0
    9.7319    4.5950    0.0000 H   0  0  0  0  0  0  0  0  0  0  0  0
    9.7319    1.6450    0.0000 H   0  0  0  0  0  0  0  0  0  0  0  0
   10.5290    1.6450    0.0000 H   0  0  0  0  0  0  0  0  0  0  0  0
   11.6070    3.5123    0.0000 H   0  0  0  0  0  0  0  0  0  0  0  0
   11.2085    4.2026    0.0000 H   0  0  0  0  0  0  0  0  0  0  0  0
    8.7969    4.5950    0.0000 H   0  0  0  0  0  0  0  0  0  0  0  0
    7.9998    4.5950    0.0000 H   0  0  0  0  0  0  0  0  0  0  0  0
    4.9343    3.5000    0.0000 H   0  0  0  0  0  0  0  0  0  0  0  0
    7.1338    3.1450    0.0000 H   0  0  0  0  0  0  0  0  0  0  0  0
    7.9309    3.1450    0.0000 H   0  0  0  0  0  0  0  0  0  0  0  0
    5.4018    3.1450    0.0000 H   0  0  0  0  0  0  0  0  0  0  0  0
    6.1988    3.1450    0.0000 H   0  0  0  0  0  0  0  0  0  0  0  0
    5.5449    5.0123    0.0000 H   0  0  0  0  0  0  0  0  0  0  0  0
    5.1463    5.7026    0.0000 H   0  0  0  0  0  0  0  0  0  0  0  0
    6.6663    4.7400    0.0000 H   0  0  0  0  0  0  0  0  0  0  0  0
    4.4668    6.0950    0.0000 H   0  0  0  0  0  0  0  0  0  0  0  0
    3.6697    6.0950    0.0000 H   0  0  0  0  0  0  0  0  0  0  0  0
   12.7285    3.2400    0.0000 H   0  0  0  0  0  0  0  0  0  0  0  0
   11.3255    0.8100    0.0000 H   0  0  0  0  0  0  0  0  0  0  0  0
    2.3154    6.2746    0.0000 H   0  0  0  0  0  0  0  0  0  0  0  0
    2.3154    2.9654    0.0000 H   0  0  0  0  0  0  0  0  0  0  0  0
   14.1315    2.4300    0.0000 H   0  0  0  0  0  0  0  0  0  0  0  0
   12.7285    0.0000    0.0000 H   0  0  0  0  0  0  0  0  0  0  0  0
    0.8665    5.4529    0.0000 H   0  0  0  0  0  0  0  0  0  0  0  0
    0.0000    3.9038    0.0000 H   0  0  0  0  0  0  0  0  0  0  0  0
   15.7251    1.5950    0.0000 H   0  0  0  0  0  0  0  0  0  0  0  0
   14.9281    1.5950    0.0000 H   0  0  0  0  0  0  0  0  0  0  0  0
   15.7941    0.1451    0.0000 H   0  0  0  0  0  0  0  0  0  0  0  0
   16.5911    0.1451    0.0000 H   0  0  0  0  0  0  0  0  0  0  0  0
   10.3653    9.5953    0.0000 H   0  0  0  0  0  0  0  0  0  0  0  0
    6.6933    9.4753    0.0000 H   0  0  0  0  0  0  0  0  0  0  0  0
  1 35  1  0  0  0  0
  2 17  1  0  0  0  0
  2 24  1  0  0  0  0
  3 33  1  0  0  0  0
  3 34  1  0  0  0  0
  4 32  1  0  0  0  0
  4 65  1  0  0  0  0
  5 36  1  0  0  0  0
  5 70  1  0  0  0  0
  6 37  1  0  0  0  0
  6 71  1  0  0  0  0
  7 36  2  0  0  0  0
  8 37  2  0  0  0  0
  9 12  1  0  0  0  0
  9 13  1  0  0  0  0
  9 16  1  0  0  0  0
 10 14  1  0  0  0  0
 10 15  1  0  0  0  0
 10 22  1  0  0  0  0
 11 18  1  0  0  0  0
 11 19  1  0  0  0  0
 11 55  1  0  0  0  0
 12 14  1  0  0  0  0
 12 38  1  0  0  0  0
 12 39  1  0  0  0  0
 13 15  1  0  0  0  0
 13 40  1  0  0  0  0
 13 41  1  0  0  0  0
 14 42  1  0  0  0  0
 14 43  1  0  0  0  0
 15 44  1  0  0  0  0
 15 45  1  0  0  0  0
 16 18  1  0  0  0  0
 16 46  1  0  0  0  0
 16 47  1  0  0  0  0
 17 19  1  6  0  0  0
 17 20  1  0  0  0  0
 17 48  1  0  0  0  0
 18 49  1  0  0  0  0
 18 50  1  0  0  0  0
 19 51  1  0  0  0  0
 19 52  1  0  0  0  0
 20 21  1  0  0  0  0
 20 53  1  0  0  0  0
 20 54  1  0  0  0  0
 21 23  1  0  0  0  0
 21 56  1  0  0  0  0
 21 57  1  0  0  0  0
 22 25  2  0  0  0  0
 22 26  1  0  0  0  0
 23 24  2  0  0  0  0
 23 27  1  0  0  0  0
 24 28  1  0  0  0  0
 25 29  1  0  0  0  0
 25 58  1  0  0  0  0
 26 30  2  0  0  0  0
 26 59  1  0  0  0  0
 27 31  2  0  0  0  0
 27 60  1  0  0  0  0
 28 32  2  0  0  0  0
 28 61  1  0  0  0  0
 29 33  2  0  0  0  0
 29 62  1  0  0  0  0
 30 33  1  0  0  0  0
 30 63  1  0  0  0  0
 31 32  1  0  0  0  0
 31 64  1  0  0  0  0
 34 35  1  0  0  0  0
 34 66  1  0  0  0  0
 34 67  1  0  0  0  0
 35 68  1  0  0  0  0
 35 69  1  0  0  0  0
 36 37  1  0  0  0  0
M  END
> <PUBCHEM_COMPOUND_CID>
76328714

> <PUBCHEM_COMPOUND_CANONICALIZED>
1

> <PUBCHEM_CACTVS_COMPLEXITY>
584

> <PUBCHEM_CACTVS_HBOND_ACCEPTOR>
11

> <PUBCHEM_CACTVS_HBOND_DONOR>
4

> <PUBCHEM_CACTVS_ROTATABLE_BOND>
10

> <PUBCHEM_CACTVS_SUBSKEYS>
AAADcfB7OQAAAAAAAAAAAAAAAAAAAAAAAAA8aIEAAAAAAACRQAAAHwAQCAAADBzhmAYwzoPABgCIAiTSSAKCCAAhIgAIiIBObIgPZyLGsZuXeCjl0BXZ+Aew4KwOIEAACAAIAABAgAAQABAAAAAAAAAAAA==

> <PUBCHEM_IUPAC_OPENEYE_NAME>
(2R)-2-[[2-[4-[4-(2-fluoroethoxy)phenyl]piperazin-1-yl]ethylamino]methyl]chroman-7-ol;oxalic acid

> <PUBCHEM_IUPAC_CAS_NAME>
(2R)-2-[[2-[4-[4-(2-fluoroethoxy)phenyl]-1-piperazinyl]ethylamino]methyl]-3,4-dihydro-2H-1-benzopyran-7-ol;oxalic acid

> <PUBCHEM_IUPAC_NAME_MARKUP>
(2<I>R</I>)-2-[[2-[4-[4-(2-fluoroethoxy)phenyl]piperazin-1-yl]ethylamino]methyl]-3,4-dihydro-2<I>H</I>-chromen-7-ol;oxalic acid

> <PUBCHEM_IUPAC_NAME>
(2R)-2-[[2-[4-[4-(2-fluoroethoxy)phenyl]piperazin-1-yl]ethylamino]methyl]-3,4-dihydro-2H-chromen-7-ol;oxalic acid

> <PUBCHEM_IUPAC_SYSTEMATIC_NAME>
ethanedioic acid;(2R)-2-[[2-[4-[4-(2-fluoranylethoxy)phenyl]piperazin-1-yl]ethylamino]methyl]-3,4-dihydro-2H-chromen-7-ol

> <PUBCHEM_IUPAC_TRADITIONAL_NAME>
(2R)-2-[[2-[4-[4-(2-fluoroethoxy)phenyl]piperazino]ethylamino]methyl]chroman-7-ol;oxalic acid

> <PUBCHEM_IUPAC_INCHI>
InChI=1S/C24H32FN3O3.C2H2O4/c25-9-16-30-22-7-3-20(4-8-22)28-14-12-27(13-15-28)11-10-26-18-23-6-2-19-1-5-21(29)17-24(19)31-23;3-1(4)2(5)6/h1,3-5,7-8,17,23,26,29H,2,6,9-16,18H2;(H,3,4)(H,5,6)/t23-;/m1./s1

> <PUBCHEM_IUPAC_INCHIKEY>
RZVJHWFWMXWRBD-GNAFDRTKSA-N

> <PUBCHEM_EXACT_MASS>
519.23807859

> <PUBCHEM_MOLECULAR_FORMULA>
C26H34FN3O7

> <PUBCHEM_MOLECULAR_WEIGHT>
519.6

> <PUBCHEM_OPENEYE_CAN_SMILES>
C1CC2=C(C=C(C=C2)O)OC1CNCCN3CCN(CC3)C4=CC=C(C=C4)OCCF.C(=O)(C(=O)O)O

> <PUBCHEM_OPENEYE_ISO_SMILES>
C1CC2=C(C=C(C=C2)O)O[C@H]1CNCCN3CCN(CC3)C4=CC=C(C=C4)OCCF.C(=O)(C(=O)O)O

> <PUBCHEM_CACTVS_TPSA>
132

> <PUBCHEM_MONOISOTOPIC_WEIGHT>
519.23807859

> <PUBCHEM_TOTAL_CHARGE>
0

> <PUBCHEM_HEAVY_ATOM_COUNT>
37

> <PUBCHEM_ATOM_DEF_STEREO_COUNT>
1

> <PUBCHEM_ATOM_UDEF_STEREO_COUNT>
0

> <PUBCHEM_BOND_DEF_STEREO_COUNT>
0

> <PUBCHEM_BOND_UDEF_STEREO_COUNT>
0

> <PUBCHEM_ISOTOPIC_ATOM_COUNT>
0

> <PUBCHEM_COMPONENT_COUNT>
2

> <PUBCHEM_CACTVS_TAUTO_COUNT>
-1

> <PUBCHEM_COORDINATE_TYPE>
1
5
255

> <PUBCHEM_BONDANNOTATIONS>
17  19  6
22  25  8
22  26  8
23  24  8
23  27  8
24  28  8
25  29  8
26  30  8
27  31  8
28  32  8
29  33  8
30  33  8
31  32  8

$$$$
