122179564
  -OEChem-09292322002D

 56 57  0     1  0  0  0  0  0999 V2000
   10.5920   -4.6130    0.0000 O   0  0  0  0  0  0  0  0  0  0  0  0
    2.8660    1.8870    0.0000 O   0  0  0  0  0  0  0  0  0  0  0  0
    2.0000    5.3870    0.0000 O   0  0  0  0  0  0  0  0  0  0  0  0
    3.7320    5.3870    0.0000 O   0  0  0  0  0  0  0  0  0  0  0  0
    6.3301   -1.1130    0.0000 N   0  0  3  0  0  0  0  0  0  0  0  0
    9.0084   -5.4177    0.0000 N   0  0  0  0  0  0  0  0  0  0  0  0
    4.5981    1.8870    0.0000 N   0  0  0  0  0  0  0  0  0  0  0  0
    6.3301   -2.1130    0.0000 C   0  0  0  0  0  0  0  0  0  0  0  0
    7.1962   -2.6130    0.0000 C   0  0  0  0  0  0  0  0  0  0  0  0
    5.4641   -0.6130    0.0000 C   0  0  0  0  0  0  0  0  0  0  0  0
    7.1962   -0.6130    0.0000 C   0  0  0  0  0  0  0  0  0  0  0  0
    7.1962   -3.6130    0.0000 C   0  0  0  0  0  0  0  0  0  0  0  0
    8.0622   -4.1130    0.0000 C   0  0  0  0  0  0  0  0  0  0  0  0
    5.4641    0.3870    0.0000 C   0  0  0  0  0  0  0  0  0  0  0  0
    7.1962    0.3870    0.0000 C   0  0  0  0  0  0  0  0  0  0  0  0
    9.0084   -3.8082    0.0000 C   0  0  0  0  0  0  0  0  0  0  0  0
    8.0622   -5.1130    0.0000 C   0  0  0  0  0  0  0  0  0  0  0  0
    4.5981    0.8870    0.0000 C   0  0  0  0  0  0  0  0  0  0  0  0
    6.3301   -4.1130    0.0000 C   0  0  0  0  0  0  0  0  0  0  0  0
    9.5920   -4.6130    0.0000 C   0  0  0  0  0  0  0  0  0  0  0  0
    7.1962   -5.6130    0.0000 C   0  0  0  0  0  0  0  0  0  0  0  0
    6.3301   -5.1130    0.0000 C   0  0  0  0  0  0  0  0  0  0  0  0
    8.0622    0.8870    0.0000 C   0  0  0  0  0  0  0  0  0  0  0  0
    3.7320    2.3870    0.0000 C   0  0  0  0  0  0  0  0  0  0  0  0
    3.7320    3.3870    0.0000 C   0  0  0  0  0  0  0  0  0  0  0  0
    2.8660    3.8870    0.0000 C   0  0  0  0  0  0  0  0  0  0  0  0
    2.8660    4.8870    0.0000 C   0  0  0  0  0  0  0  0  0  0  0  0
    5.7196   -2.0053    0.0000 H   0  0  0  0  0  0  0  0  0  0  0  0
    6.1181   -2.6956    0.0000 H   0  0  0  0  0  0  0  0  0  0  0  0
    7.8067   -2.7206    0.0000 H   0  0  0  0  0  0  0  0  0  0  0  0
    7.4082   -2.0304    0.0000 H   0  0  0  0  0  0  0  0  0  0  0  0
    4.8535   -0.5053    0.0000 H   0  0  0  0  0  0  0  0  0  0  0  0
    5.2520   -1.1956    0.0000 H   0  0  0  0  0  0  0  0  0  0  0  0
    7.4082   -1.1956    0.0000 H   0  0  0  0  0  0  0  0  0  0  0  0
    7.8067   -0.5053    0.0000 H   0  0  0  0  0  0  0  0  0  0  0  0
    6.0747    0.2794    0.0000 H   0  0  0  0  0  0  0  0  0  0  0  0
    5.6762    0.9696    0.0000 H   0  0  0  0  0  0  0  0  0  0  0  0
    6.9841    0.9696    0.0000 H   0  0  0  0  0  0  0  0  0  0  0  0
    6.5856    0.2794    0.0000 H   0  0  0  0  0  0  0  0  0  0  0  0
    9.5458   -3.4990    0.0000 H   0  0  0  0  0  0  0  0  0  0  0  0
    8.7574   -3.2413    0.0000 H   0  0  0  0  0  0  0  0  0  0  0  0
    3.9875    0.9947    0.0000 H   0  0  0  0  0  0  0  0  0  0  0  0
    4.3860    0.3044    0.0000 H   0  0  0  0  0  0  0  0  0  0  0  0
    5.7932   -3.8030    0.0000 H   0  0  0  0  0  0  0  0  0  0  0  0
    9.2010   -6.0070    0.0000 H   0  0  0  0  0  0  0  0  0  0  0  0
    7.1962   -6.2330    0.0000 H   0  0  0  0  0  0  0  0  0  0  0  0
    5.7932   -5.4230    0.0000 H   0  0  0  0  0  0  0  0  0  0  0  0
    8.3722    0.3501    0.0000 H   0  0  0  0  0  0  0  0  0  0  0  0
    8.5991    1.1970    0.0000 H   0  0  0  0  0  0  0  0  0  0  0  0
    7.7522    1.4240    0.0000 H   0  0  0  0  0  0  0  0  0  0  0  0
    5.1350    2.1970    0.0000 H   0  0  0  0  0  0  0  0  0  0  0  0
    4.3426    3.2794    0.0000 H   0  0  0  0  0  0  0  0  0  0  0  0
    3.9441    3.9696    0.0000 H   0  0  0  0  0  0  0  0  0  0  0  0
    2.2554    3.9947    0.0000 H   0  0  0  0  0  0  0  0  0  0  0  0
    2.6540    3.3044    0.0000 H   0  0  0  0  0  0  0  0  0  0  0  0
    2.0000    6.0070    0.0000 H   0  0  0  0  0  0  0  0  0  0  0  0
  1 20  2  0  0  0  0
  2 24  2  0  0  0  0
  3 27  1  0  0  0  0
  3 56  1  0  0  0  0
  4 27  2  0  0  0  0
  5  8  1  0  0  0  0
  5 10  1  0  0  0  0
  5 11  1  0  0  0  0
  6 17  1  0  0  0  0
  6 20  1  0  0  0  0
  6 45  1  0  0  0  0
  7 18  1  0  0  0  0
  7 24  1  0  0  0  0
  7 51  1  0  0  0  0
  8  9  1  0  0  0  0
  8 28  1  0  0  0  0
  8 29  1  0  0  0  0
  9 12  1  0  0  0  0
  9 30  1  0  0  0  0
  9 31  1  0  0  0  0
 10 14  1  0  0  0  0
 10 32  1  0  0  0  0
 10 33  1  0  0  0  0
 11 15  1  0  0  0  0
 11 34  1  0  0  0  0
 11 35  1  0  0  0  0
 12 13  2  0  0  0  0
 12 19  1  0  0  0  0
 13 16  1  0  0  0  0
 13 17  1  0  0  0  0
 14 18  1  0  0  0  0
 14 36  1  0  0  0  0
 14 37  1  0  0  0  0
 15 23  1  0  0  0  0
 15 38  1  0  0  0  0
 15 39  1  0  0  0  0
 16 20  1  0  0  0  0
 16 40  1  0  0  0  0
 16 41  1  0  0  0  0
 17 21  2  0  0  0  0
 18 42  1  0  0  0  0
 18 43  1  0  0  0  0
 19 22  2  0  0  0  0
 19 44  1  0  0  0  0
 21 22  1  0  0  0  0
 21 46  1  0  0  0  0
 22 47  1  0  0  0  0
 23 48  1  0  0  0  0
 23 49  1  0  0  0  0
 23 50  1  0  0  0  0
 24 25  1  0  0  0  0
 25 26  1  0  0  0  0
 25 52  1  0  0  0  0
 25 53  1  0  0  0  0
 26 27  1  0  0  0  0
 26 54  1  0  0  0  0
 26 55  1  0  0  0  0
M  END
> <PUBCHEM_COMPOUND_CID>
122179564

> <PUBCHEM_COMPOUND_CANONICALIZED>
1

> <PUBCHEM_CACTVS_COMPLEXITY>
512

> <PUBCHEM_CACTVS_HBOND_ACCEPTOR>
5

> <PUBCHEM_CACTVS_HBOND_DONOR>
3

> <PUBCHEM_CACTVS_ROTATABLE_BOND>
12

> <PUBCHEM_CACTVS_SUBSKEYS>
AAADceB7OAAAAAAAAAAAAAAAAAAAAWAAAAAwAAAAAAAAAFgBAAAAHgAQCAAADAjBmAQyyIPAAgCIAiXSWACCAAAhAgAIiIEIZIgIIDLA1ZGEYAhklgDIyAc/iICOgAAAQAASAAAAAACAACQAAAAAAAAAAA==

> <PUBCHEM_IUPAC_OPENEYE_NAME>
4-oxo-4-[3-[2-(2-oxoindolin-4-yl)ethyl-propyl-amino]propylamino]butanoic acid

> <PUBCHEM_IUPAC_CAS_NAME>
4-oxo-4-[3-[2-(2-oxo-1,3-dihydroindol-4-yl)ethyl-propylamino]propylamino]butanoic acid

> <PUBCHEM_IUPAC_NAME_MARKUP>
4-oxo-4-[3-[2-(2-oxo-1,3-dihydroindol-4-yl)ethyl-propylamino]propylamino]butanoic acid

> <PUBCHEM_IUPAC_NAME>
4-oxo-4-[3-[2-(2-oxo-1,3-dihydroindol-4-yl)ethyl-propylamino]propylamino]butanoic acid

> <PUBCHEM_IUPAC_SYSTEMATIC_NAME>
4-oxidanylidene-4-[3-[2-(2-oxidanylidene-1,3-dihydroindol-4-yl)ethyl-propyl-amino]propylamino]butanoic acid

> <PUBCHEM_IUPAC_TRADITIONAL_NAME>
4-keto-4-[3-[2-(2-ketoindolin-4-yl)ethyl-propyl-amino]propylamino]butyric acid

> <PUBCHEM_IUPAC_INCHI>
InChI=1S/C20H29N3O4/c1-2-11-23(12-4-10-21-18(24)7-8-20(26)27)13-9-15-5-3-6-17-16(15)14-19(25)22-17/h3,5-6H,2,4,7-14H2,1H3,(H,21,24)(H,22,25)(H,26,27)

> <PUBCHEM_IUPAC_INCHIKEY>
PGMQAYWTXDEEHH-UHFFFAOYSA-N

> <PUBCHEM_XLOGP3>
-1.4

> <PUBCHEM_EXACT_MASS>
375.21580641

> <PUBCHEM_MOLECULAR_FORMULA>
C20H29N3O4

> <PUBCHEM_MOLECULAR_WEIGHT>
375.5

> <PUBCHEM_OPENEYE_CAN_SMILES>
CCCN(CCCNC(=O)CCC(=O)O)CCC1=C2CC(=O)NC2=CC=C1

> <PUBCHEM_OPENEYE_ISO_SMILES>
CCCN(CCCNC(=O)CCC(=O)O)CCC1=C2CC(=O)NC2=CC=C1

> <PUBCHEM_CACTVS_TPSA>
98.7

> <PUBCHEM_MONOISOTOPIC_WEIGHT>
375.21580641

> <PUBCHEM_TOTAL_CHARGE>
0

> <PUBCHEM_HEAVY_ATOM_COUNT>
27

> <PUBCHEM_ATOM_DEF_STEREO_COUNT>
0

> <PUBCHEM_ATOM_UDEF_STEREO_COUNT>
0

> <PUBCHEM_BOND_DEF_STEREO_COUNT>
0

> <PUBCHEM_BOND_UDEF_STEREO_COUNT>
0

> <PUBCHEM_ISOTOPIC_ATOM_COUNT>
0

> <PUBCHEM_COMPONENT_COUNT>
1

> <PUBCHEM_CACTVS_TAUTO_COUNT>
-1

> <PUBCHEM_COORDINATE_TYPE>
1
5
255

> <PUBCHEM_BONDANNOTATIONS>
12  13  8
12  19  8
13  17  8
17  21  8
19  22  8
21  22  8

$$$$
