10248715
  -OEChem-09292322512D

 52 55  0     0  0  0  0  0  0999 V2000
    4.5700    1.2436    0.0000 O   0  0  0  0  0  0  0  0  0  0  0  0
    6.3301   -2.0352    0.0000 N   0  0  0  0  0  0  0  0  0  0  0  0
    6.3301    0.9648    0.0000 N   0  0  0  0  0  0  0  0  0  0  0  0
    5.8301    2.5036    0.0000 N   0  0  0  0  0  0  0  0  0  0  0  0
    2.0000   -2.5352    0.0000 N   0  0  0  0  0  0  0  0  0  0  0  0
    6.3301   -0.0352    0.0000 C   0  0  0  0  0  0  0  0  0  0  0  0
    5.4641   -0.5352    0.0000 C   0  0  0  0  0  0  0  0  0  0  0  0
    7.1962   -0.5352    0.0000 C   0  0  0  0  0  0  0  0  0  0  0  0
    5.4641   -1.5352    0.0000 C   0  0  0  0  0  0  0  0  0  0  0  0
    7.1962   -1.5352    0.0000 C   0  0  0  0  0  0  0  0  0  0  0  0
    6.3301   -3.0352    0.0000 C   0  0  0  0  0  0  0  0  0  0  0  0
    7.1391    1.5526    0.0000 C   0  0  0  0  0  0  0  0  0  0  0  0
    5.5211    1.5526    0.0000 C   0  0  0  0  0  0  0  0  0  0  0  0
    6.8301    2.5036    0.0000 C   0  0  0  0  0  0  0  0  0  0  0  0
    5.4641   -3.5352    0.0000 C   0  0  0  0  0  0  0  0  0  0  0  0
    8.0902    1.2436    0.0000 C   0  0  0  0  0  0  0  0  0  0  0  0
    7.4179    3.3126    0.0000 C   0  0  0  0  0  0  0  0  0  0  0  0
    4.5981   -3.0352    0.0000 C   0  0  0  0  0  0  0  0  0  0  0  0
    5.4641   -4.5352    0.0000 C   0  0  0  0  0  0  0  0  0  0  0  0
    8.4124    3.2081    0.0000 C   0  0  0  0  0  0  0  0  0  0  0  0
    7.0112    4.2262    0.0000 C   0  0  0  0  0  0  0  0  0  0  0  0
    3.7320   -3.5352    0.0000 C   0  0  0  0  0  0  0  0  0  0  0  0
    4.5981   -5.0352    0.0000 C   0  0  0  0  0  0  0  0  0  0  0  0
    3.7320   -4.5352    0.0000 C   0  0  0  0  0  0  0  0  0  0  0  0
    9.0002    4.0171    0.0000 C   0  0  0  0  0  0  0  0  0  0  0  0
    7.5990    5.0352    0.0000 C   0  0  0  0  0  0  0  0  0  0  0  0
    8.5935    4.9307    0.0000 C   0  0  0  0  0  0  0  0  0  0  0  0
    2.8660   -3.0352    0.0000 C   0  0  0  0  0  0  0  0  0  0  0  0
    6.8671    0.2748    0.0000 H   0  0  0  0  0  0  0  0  0  0  0  0
    5.2520    0.0474    0.0000 H   0  0  0  0  0  0  0  0  0  0  0  0
    4.8535   -0.6429    0.0000 H   0  0  0  0  0  0  0  0  0  0  0  0
    7.8067   -0.6429    0.0000 H   0  0  0  0  0  0  0  0  0  0  0  0
    7.4082    0.0474    0.0000 H   0  0  0  0  0  0  0  0  0  0  0  0
    4.8535   -1.4276    0.0000 H   0  0  0  0  0  0  0  0  0  0  0  0
    5.2520   -2.1178    0.0000 H   0  0  0  0  0  0  0  0  0  0  0  0
    7.4082   -2.1178    0.0000 H   0  0  0  0  0  0  0  0  0  0  0  0
    7.8067   -1.4276    0.0000 H   0  0  0  0  0  0  0  0  0  0  0  0
    6.5422   -3.6178    0.0000 H   0  0  0  0  0  0  0  0  0  0  0  0
    6.9407   -2.9276    0.0000 H   0  0  0  0  0  0  0  0  0  0  0  0
    5.4657    3.0052    0.0000 H   0  0  0  0  0  0  0  0  0  0  0  0
    7.8986    0.6539    0.0000 H   0  0  0  0  0  0  0  0  0  0  0  0
    8.6799    1.0520    0.0000 H   0  0  0  0  0  0  0  0  0  0  0  0
    8.2818    1.8332    0.0000 H   0  0  0  0  0  0  0  0  0  0  0  0
    4.5981   -2.4152    0.0000 H   0  0  0  0  0  0  0  0  0  0  0  0
    6.0010   -4.8452    0.0000 H   0  0  0  0  0  0  0  0  0  0  0  0
    8.6646    2.6417    0.0000 H   0  0  0  0  0  0  0  0  0  0  0  0
    6.3946    4.2910    0.0000 H   0  0  0  0  0  0  0  0  0  0  0  0
    4.5981   -5.6552    0.0000 H   0  0  0  0  0  0  0  0  0  0  0  0
    3.1951   -4.8452    0.0000 H   0  0  0  0  0  0  0  0  0  0  0  0
    9.6168    3.9523    0.0000 H   0  0  0  0  0  0  0  0  0  0  0  0
    7.3468    5.6016    0.0000 H   0  0  0  0  0  0  0  0  0  0  0  0
    8.9579    5.4323    0.0000 H   0  0  0  0  0  0  0  0  0  0  0  0
  1 13  2  0  0  0  0
  2  9  1  0  0  0  0
  2 10  1  0  0  0  0
  2 11  1  0  0  0  0
  3  6  1  0  0  0  0
  3 12  1  0  0  0  0
  3 13  1  0  0  0  0
  4 13  1  0  0  0  0
  4 14  1  0  0  0  0
  4 40  1  0  0  0  0
  5 28  3  0  0  0  0
  6  7  1  0  0  0  0
  6  8  1  0  0  0  0
  6 29  1  0  0  0  0
  7  9  1  0  0  0  0
  7 30  1  0  0  0  0
  7 31  1  0  0  0  0
  8 10  1  0  0  0  0
  8 32  1  0  0  0  0
  8 33  1  0  0  0  0
  9 34  1  0  0  0  0
  9 35  1  0  0  0  0
 10 36  1  0  0  0  0
 10 37  1  0  0  0  0
 11 15  1  0  0  0  0
 11 38  1  0  0  0  0
 11 39  1  0  0  0  0
 12 14  2  0  0  0  0
 12 16  1  0  0  0  0
 14 17  1  0  0  0  0
 15 18  2  0  0  0  0
 15 19  1  0  0  0  0
 16 41  1  0  0  0  0
 16 42  1  0  0  0  0
 16 43  1  0  0  0  0
 17 20  2  0  0  0  0
 17 21  1  0  0  0  0
 18 22  1  0  0  0  0
 18 44  1  0  0  0  0
 19 23  2  0  0  0  0
 19 45  1  0  0  0  0
 20 25  1  0  0  0  0
 20 46  1  0  0  0  0
 21 26  2  0  0  0  0
 21 47  1  0  0  0  0
 22 24  2  0  0  0  0
 22 28  1  0  0  0  0
 23 24  1  0  0  0  0
 23 48  1  0  0  0  0
 24 49  1  0  0  0  0
 25 27  2  0  0  0  0
 25 50  1  0  0  0  0
 26 27  1  0  0  0  0
 26 51  1  0  0  0  0
 27 52  1  0  0  0  0
M  END
> <PUBCHEM_COMPOUND_CID>
10248715

> <PUBCHEM_COMPOUND_CANONICALIZED>
1

> <PUBCHEM_CACTVS_COMPLEXITY>
649

> <PUBCHEM_CACTVS_HBOND_ACCEPTOR>
3

> <PUBCHEM_CACTVS_HBOND_DONOR>
1

> <PUBCHEM_CACTVS_ROTATABLE_BOND>
4

> <PUBCHEM_CACTVS_SUBSKEYS>
AAADceB7oAAAAAAAAAAAAAAAAAAAAQAAAAA8YIAAAAAAAAABQAAAHgAQAAAADCjBGAQzAIPAAACYBiRCUACiAAAgAAAIiAAIBIiIoCKA0RGEIAhohgKIiA8QgEAOAAACAAAAAAAAAAQAAAAAAAAAAAAAAA==

> <PUBCHEM_IUPAC_OPENEYE_NAME>
3-[[4-(4-methyl-2-oxo-5-phenyl-1H-imidazol-3-yl)-1-piperidyl]methyl]benzonitrile

> <PUBCHEM_IUPAC_CAS_NAME>
3-[[4-(4-methyl-2-oxo-5-phenyl-1H-imidazol-3-yl)-1-piperidinyl]methyl]benzonitrile

> <PUBCHEM_IUPAC_NAME_MARKUP>
3-[[4-(4-methyl-2-oxo-5-phenyl-1<I>H</I>-imidazol-3-yl)piperidin-1-yl]methyl]benzonitrile

> <PUBCHEM_IUPAC_NAME>
3-[[4-(4-methyl-2-oxo-5-phenyl-1H-imidazol-3-yl)piperidin-1-yl]methyl]benzonitrile

> <PUBCHEM_IUPAC_SYSTEMATIC_NAME>
3-[[4-(4-methyl-2-oxidanylidene-5-phenyl-1H-imidazol-3-yl)piperidin-1-yl]methyl]benzenecarbonitrile

> <PUBCHEM_IUPAC_TRADITIONAL_NAME>
3-[[4-(2-keto-5-methyl-4-phenyl-4-imidazolin-1-yl)piperidino]methyl]benzonitrile

> <PUBCHEM_IUPAC_INCHI>
InChI=1S/C23H24N4O/c1-17-22(20-8-3-2-4-9-20)25-23(28)27(17)21-10-12-26(13-11-21)16-19-7-5-6-18(14-19)15-24/h2-9,14,21H,10-13,16H2,1H3,(H,25,28)

> <PUBCHEM_IUPAC_INCHIKEY>
JLSSZJJVQVSQHQ-UHFFFAOYSA-N

> <PUBCHEM_XLOGP3_AA>
3.1

> <PUBCHEM_EXACT_MASS>
372.19501140

> <PUBCHEM_MOLECULAR_FORMULA>
C23H24N4O

> <PUBCHEM_MOLECULAR_WEIGHT>
372.5

> <PUBCHEM_OPENEYE_CAN_SMILES>
CC1=C(NC(=O)N1C2CCN(CC2)CC3=CC(=CC=C3)C#N)C4=CC=CC=C4

> <PUBCHEM_OPENEYE_ISO_SMILES>
CC1=C(NC(=O)N1C2CCN(CC2)CC3=CC(=CC=C3)C#N)C4=CC=CC=C4

> <PUBCHEM_CACTVS_TPSA>
59.4

> <PUBCHEM_MONOISOTOPIC_WEIGHT>
372.19501140

> <PUBCHEM_TOTAL_CHARGE>
0

> <PUBCHEM_HEAVY_ATOM_COUNT>
28

> <PUBCHEM_ATOM_DEF_STEREO_COUNT>
0

> <PUBCHEM_ATOM_UDEF_STEREO_COUNT>
0

> <PUBCHEM_BOND_DEF_STEREO_COUNT>
0

> <PUBCHEM_BOND_UDEF_STEREO_COUNT>
0

> <PUBCHEM_ISOTOPIC_ATOM_COUNT>
0

> <PUBCHEM_COMPONENT_COUNT>
1

> <PUBCHEM_CACTVS_TAUTO_COUNT>
-1

> <PUBCHEM_COORDINATE_TYPE>
1
5
255

> <PUBCHEM_BONDANNOTATIONS>
12  14  8
15  18  8
15  19  8
17  20  8
17  21  8
18  22  8
19  23  8
20  25  8
21  26  8
22  24  8
23  24  8
25  27  8
26  27  8
3  12  8
3  13  8
4  13  8
4  14  8

$$$$
