155529453
  -OEChem-09292322412D

 52 56  0     1  0  0  0  0  0999 V2000
    7.2082    4.0487    0.0000 O   0  0  0  0  0  0  0  0  0  0  0  0
    6.3981   -4.3792    0.0000 O   0  0  0  0  0  0  0  0  0  0  0  0
    5.5321   -0.8792    0.0000 N   0  0  3  0  0  0  0  0  0  0  0  0
    9.7050    0.9527    0.0000 N   0  0  0  0  0  0  0  0  0  0  0  0
    4.6660   -4.3792    0.0000 N   0  0  0  0  0  0  0  0  0  0  0  0
    6.3981   -1.3792    0.0000 C   0  0  0  0  0  0  0  0  0  0  0  0
    7.2641   -0.8792    0.0000 C   0  0  0  0  0  0  0  0  0  0  0  0
    7.2641    0.1208    0.0000 C   0  0  0  0  0  0  0  0  0  0  0  0
    5.5321    0.1208    0.0000 C   0  0  0  0  0  0  0  0  0  0  0  0
    4.6660   -1.3792    0.0000 C   0  0  0  0  0  0  0  0  0  0  0  0
    6.3981    0.6208    0.0000 C   0  0  0  0  0  0  0  0  0  0  0  0
    8.1301    0.6208    0.0000 C   0  0  0  0  0  0  0  0  0  0  0  0
    4.6660   -2.3792    0.0000 C   0  0  0  0  0  0  0  0  0  0  0  0
    8.2332    1.6095    0.0000 C   0  0  0  0  0  0  0  0  0  0  0  0
    9.2117    1.8158    0.0000 C   0  0  0  0  0  0  0  0  0  0  0  0
    9.0379    0.2157    0.0000 C   0  0  0  0  0  0  0  0  0  0  0  0
    3.8000   -2.8792    0.0000 C   0  0  0  0  0  0  0  0  0  0  0  0
    5.5321   -2.8792    0.0000 C   0  0  0  0  0  0  0  0  0  0  0  0
    7.5654    2.3538    0.0000 C   0  0  0  0  0  0  0  0  0  0  0  0
    3.8000   -3.8792    0.0000 C   0  0  0  0  0  0  0  0  0  0  0  0
    9.5224    2.7663    0.0000 C   0  0  0  0  0  0  0  0  0  0  0  0
    2.9061   -2.3445    0.0000 C   0  0  0  0  0  0  0  0  0  0  0  0
    5.5321   -3.8792    0.0000 C   0  0  0  0  0  0  0  0  0  0  0  0
    7.8760    3.3044    0.0000 C   0  0  0  0  0  0  0  0  0  0  0  0
    8.8545    3.5106    0.0000 C   0  0  0  0  0  0  0  0  0  0  0  0
    2.9061   -4.4138    0.0000 C   0  0  0  0  0  0  0  0  0  0  0  0
    2.0000   -2.8584    0.0000 C   0  0  0  0  0  0  0  0  0  0  0  0
    2.0000   -3.9000    0.0000 C   0  0  0  0  0  0  0  0  0  0  0  0
    7.5188    4.9992    0.0000 C   0  0  0  0  0  0  0  0  0  0  0  0
    5.9996   -1.8541    0.0000 H   0  0  0  0  0  0  0  0  0  0  0  0
    6.7966   -1.8541    0.0000 H   0  0  0  0  0  0  0  0  0  0  0  0
    7.4762   -1.4618    0.0000 H   0  0  0  0  0  0  0  0  0  0  0  0
    7.8747   -0.7715    0.0000 H   0  0  0  0  0  0  0  0  0  0  0  0
    5.3200    0.7034    0.0000 H   0  0  0  0  0  0  0  0  0  0  0  0
    4.9215    0.0132    0.0000 H   0  0  0  0  0  0  0  0  0  0  0  0
    4.4540   -0.7966    0.0000 H   0  0  0  0  0  0  0  0  0  0  0  0
    4.0555   -1.4868    0.0000 H   0  0  0  0  0  0  0  0  0  0  0  0
    6.3981    1.2408    0.0000 H   0  0  0  0  0  0  0  0  0  0  0  0
    9.1658   -0.3910    0.0000 H   0  0  0  0  0  0  0  0  0  0  0  0
   10.3214    0.8858    0.0000 H   0  0  0  0  0  0  0  0  0  0  0  0
    6.0690   -2.5692    0.0000 H   0  0  0  0  0  0  0  0  0  0  0  0
    6.9587    2.2260    0.0000 H   0  0  0  0  0  0  0  0  0  0  0  0
   10.1290    2.8941    0.0000 H   0  0  0  0  0  0  0  0  0  0  0  0
    2.9132   -1.7246    0.0000 H   0  0  0  0  0  0  0  0  0  0  0  0
    4.6660   -4.9992    0.0000 H   0  0  0  0  0  0  0  0  0  0  0  0
    9.0471    4.0999    0.0000 H   0  0  0  0  0  0  0  0  0  0  0  0
    2.9132   -5.0338    0.0000 H   0  0  0  0  0  0  0  0  0  0  0  0
    1.4643   -2.5463    0.0000 H   0  0  0  0  0  0  0  0  0  0  0  0
    1.4643   -4.2121    0.0000 H   0  0  0  0  0  0  0  0  0  0  0  0
    8.1082    4.8066    0.0000 H   0  0  0  0  0  0  0  0  0  0  0  0
    7.7114    5.5885    0.0000 H   0  0  0  0  0  0  0  0  0  0  0  0
    6.9295    5.1918    0.0000 H   0  0  0  0  0  0  0  0  0  0  0  0
  1 24  1  0  0  0  0
  1 29  1  0  0  0  0
  2 23  2  0  0  0  0
  3  6  1  0  0  0  0
  3  9  1  0  0  0  0
  3 10  1  0  0  0  0
  4 15  1  0  0  0  0
  4 16  1  0  0  0  0
  4 40  1  0  0  0  0
  5 20  1  0  0  0  0
  5 23  1  0  0  0  0
  5 45  1  0  0  0  0
  6  7  1  0  0  0  0
  6 30  1  0  0  0  0
  6 31  1  0  0  0  0
  7  8  1  0  0  0  0
  7 32  1  0  0  0  0
  7 33  1  0  0  0  0
  8 11  2  0  0  0  0
  8 12  1  0  0  0  0
  9 11  1  0  0  0  0
  9 34  1  0  0  0  0
  9 35  1  0  0  0  0
 10 13  1  0  0  0  0
 10 36  1  0  0  0  0
 10 37  1  0  0  0  0
 11 38  1  0  0  0  0
 12 14  1  0  0  0  0
 12 16  2  0  0  0  0
 13 17  1  0  0  0  0
 13 18  2  0  0  0  0
 14 15  2  0  0  0  0
 14 19  1  0  0  0  0
 15 21  1  0  0  0  0
 16 39  1  0  0  0  0
 17 20  1  0  0  0  0
 17 22  2  0  0  0  0
 18 23  1  0  0  0  0
 18 41  1  0  0  0  0
 19 24  2  0  0  0  0
 19 42  1  0  0  0  0
 20 26  2  0  0  0  0
 21 25  2  0  0  0  0
 21 43  1  0  0  0  0
 22 27  1  0  0  0  0
 22 44  1  0  0  0  0
 24 25  1  0  0  0  0
 25 46  1  0  0  0  0
 26 28  1  0  0  0  0
 26 47  1  0  0  0  0
 27 28  2  0  0  0  0
 27 48  1  0  0  0  0
 28 49  1  0  0  0  0
 29 50  1  0  0  0  0
 29 51  1  0  0  0  0
 29 52  1  0  0  0  0
M  END
> <PUBCHEM_COMPOUND_CID>
155529453

> <PUBCHEM_COMPOUND_CANONICALIZED>
1

> <PUBCHEM_CACTVS_COMPLEXITY>
688

> <PUBCHEM_CACTVS_HBOND_ACCEPTOR>
3

> <PUBCHEM_CACTVS_HBOND_DONOR>
2

> <PUBCHEM_CACTVS_ROTATABLE_BOND>
4

> <PUBCHEM_CACTVS_SUBSKEYS>
AAADceB7MAAAAAAAAAAAAAAAAAAAAWAAAAAwYIEAAAAAAFiB9AAAHgAQAAAADAzBngY+xvPJlACoAzV3VACCiCAxIiAI2aA+bNgMJuLEsZuEMChk1BHI6Qew0PIOgEABAAACAAAAgAIAAAQAAAAAAAAAAA==

> <PUBCHEM_IUPAC_OPENEYE_NAME>
4-[[4-(5-methoxy-1H-indol-3-yl)-3,6-dihydro-2H-pyridin-1-yl]methyl]-1H-quinolin-2-one

> <PUBCHEM_IUPAC_CAS_NAME>
4-[[4-(5-methoxy-1H-indol-3-yl)-3,6-dihydro-2H-pyridin-1-yl]methyl]-1H-quinolin-2-one

> <PUBCHEM_IUPAC_NAME_MARKUP>
4-[[4-(5-methoxy-1<I>H</I>-indol-3-yl)-3,6-dihydro-2<I>H</I>-pyridin-1-yl]methyl]-1<I>H</I>-quinolin-2-one

> <PUBCHEM_IUPAC_NAME>
4-[[4-(5-methoxy-1H-indol-3-yl)-3,6-dihydro-2H-pyridin-1-yl]methyl]-1H-quinolin-2-one

> <PUBCHEM_IUPAC_SYSTEMATIC_NAME>
4-[[4-(5-methoxy-1H-indol-3-yl)-3,6-dihydro-2H-pyridin-1-yl]methyl]-1H-quinolin-2-one

> <PUBCHEM_IUPAC_TRADITIONAL_NAME>
4-[[4-(5-methoxy-1H-indol-3-yl)-3,6-dihydro-2H-pyridin-1-yl]methyl]carbostyril

> <PUBCHEM_IUPAC_INCHI>
InChI=1S/C24H23N3O2/c1-29-18-6-7-22-20(13-18)21(14-25-22)16-8-10-27(11-9-16)15-17-12-24(28)26-23-5-3-2-4-19(17)23/h2-8,12-14,25H,9-11,15H2,1H3,(H,26,28)

> <PUBCHEM_IUPAC_INCHIKEY>
PQCUTSKJJPRTSW-UHFFFAOYSA-N

> <PUBCHEM_XLOGP3_AA>
2.7

> <PUBCHEM_EXACT_MASS>
385.17902698

> <PUBCHEM_MOLECULAR_FORMULA>
C24H23N3O2

> <PUBCHEM_MOLECULAR_WEIGHT>
385.5

> <PUBCHEM_OPENEYE_CAN_SMILES>
COC1=CC2=C(C=C1)NC=C2C3=CCN(CC3)CC4=CC(=O)NC5=CC=CC=C54

> <PUBCHEM_OPENEYE_ISO_SMILES>
COC1=CC2=C(C=C1)NC=C2C3=CCN(CC3)CC4=CC(=O)NC5=CC=CC=C54

> <PUBCHEM_CACTVS_TPSA>
57.4

> <PUBCHEM_MONOISOTOPIC_WEIGHT>
385.17902698

> <PUBCHEM_TOTAL_CHARGE>
0

> <PUBCHEM_HEAVY_ATOM_COUNT>
29

> <PUBCHEM_ATOM_DEF_STEREO_COUNT>
0

> <PUBCHEM_ATOM_UDEF_STEREO_COUNT>
0

> <PUBCHEM_BOND_DEF_STEREO_COUNT>
0

> <PUBCHEM_BOND_UDEF_STEREO_COUNT>
0

> <PUBCHEM_ISOTOPIC_ATOM_COUNT>
0

> <PUBCHEM_COMPONENT_COUNT>
1

> <PUBCHEM_CACTVS_TAUTO_COUNT>
-1

> <PUBCHEM_COORDINATE_TYPE>
1
5
255

> <PUBCHEM_BONDANNOTATIONS>
12  14  8
12  16  8
13  17  8
13  18  8
14  15  8
14  19  8
15  21  8
17  20  8
17  22  8
18  23  8
19  24  8
20  26  8
21  25  8
22  27  8
24  25  8
26  28  8
27  28  8
4  15  8
4  16  8
5  20  8
5  23  8

$$$$
