10564353
  -OEChem-09292322522D

 45 46  0     1  0  0  0  0  0999 V2000
    4.6660   -2.2327    0.0000 O   0  0  0  0  0  0  0  0  0  0  0  0
    3.7894    1.2919    0.0000 O   0  0  0  0  0  0  0  0  0  0  0  0
    6.3981   -0.2327    0.0000 N   0  0  3  0  0  0  0  0  0  0  0  0
    5.5321   -0.7327    0.0000 C   0  0  1  0  0  0  0  0  0  0  0  0
    4.6660   -0.2327    0.0000 C   0  0  0  0  0  0  0  0  0  0  0  0
    7.2641   -0.7327    0.0000 C   0  0  0  0  0  0  0  0  0  0  0  0
    5.5321   -1.7327    0.0000 C   0  0  0  0  0  0  0  0  0  0  0  0
    6.3981    0.7673    0.0000 C   0  0  0  0  0  0  0  0  0  0  0  0
    3.8000   -0.7327    0.0000 C   0  0  0  0  0  0  0  0  0  0  0  0
    3.8000   -1.7327    0.0000 C   0  0  0  0  0  0  0  0  0  0  0  0
    7.2641    1.2673    0.0000 C   0  0  0  0  0  0  0  0  0  0  0  0
    8.1301   -0.2327    0.0000 C   0  0  0  0  0  0  0  0  0  0  0  0
    7.2641   -1.7327    0.0000 C   0  0  0  0  0  0  0  0  0  0  0  0
    2.9061   -0.1980    0.0000 C   0  0  0  0  0  0  0  0  0  0  0  0
    2.9061   -2.2673    0.0000 C   0  0  0  0  0  0  0  0  0  0  0  0
    7.2641    2.2673    0.0000 C   0  0  0  0  0  0  0  0  0  0  0  0
    2.0000   -0.7119    0.0000 C   0  0  0  0  0  0  0  0  0  0  0  0
    2.0000   -1.7535    0.0000 C   0  0  0  0  0  0  0  0  0  0  0  0
    2.9176    0.8019    0.0000 C   0  0  0  0  0  0  0  0  0  0  0  0
    2.0574    1.3119    0.0000 C   0  0  0  0  0  0  0  0  0  0  0  0
    5.5321   -0.1127    0.0000 H   0  0  0  0  0  0  0  0  0  0  0  0
    5.0646    0.2423    0.0000 H   0  0  0  0  0  0  0  0  0  0  0  0
    4.2675    0.2423    0.0000 H   0  0  0  0  0  0  0  0  0  0  0  0
    6.7272   -1.0427    0.0000 H   0  0  0  0  0  0  0  0  0  0  0  0
    5.7441   -2.3153    0.0000 H   0  0  0  0  0  0  0  0  0  0  0  0
    6.1426   -1.6250    0.0000 H   0  0  0  0  0  0  0  0  0  0  0  0
    6.1860    1.3499    0.0000 H   0  0  0  0  0  0  0  0  0  0  0  0
    5.7875    0.6597    0.0000 H   0  0  0  0  0  0  0  0  0  0  0  0
    7.4762    0.6847    0.0000 H   0  0  0  0  0  0  0  0  0  0  0  0
    7.8747    1.3750    0.0000 H   0  0  0  0  0  0  0  0  0  0  0  0
    8.4401   -0.7696    0.0000 H   0  0  0  0  0  0  0  0  0  0  0  0
    8.6671    0.0773    0.0000 H   0  0  0  0  0  0  0  0  0  0  0  0
    7.8201    0.3043    0.0000 H   0  0  0  0  0  0  0  0  0  0  0  0
    6.6441   -1.7327    0.0000 H   0  0  0  0  0  0  0  0  0  0  0  0
    7.2641   -2.3527    0.0000 H   0  0  0  0  0  0  0  0  0  0  0  0
    7.8841   -1.7327    0.0000 H   0  0  0  0  0  0  0  0  0  0  0  0
    2.9132   -2.8873    0.0000 H   0  0  0  0  0  0  0  0  0  0  0  0
    7.8841    2.2673    0.0000 H   0  0  0  0  0  0  0  0  0  0  0  0
    7.2641    2.8873    0.0000 H   0  0  0  0  0  0  0  0  0  0  0  0
    6.6441    2.2673    0.0000 H   0  0  0  0  0  0  0  0  0  0  0  0
    1.4643   -0.3998    0.0000 H   0  0  0  0  0  0  0  0  0  0  0  0
    1.4643   -2.0656    0.0000 H   0  0  0  0  0  0  0  0  0  0  0  0
    2.3736    1.8452    0.0000 H   0  0  0  0  0  0  0  0  0  0  0  0
    1.5241    1.6281    0.0000 H   0  0  0  0  0  0  0  0  0  0  0  0
    1.7413    0.7786    0.0000 H   0  0  0  0  0  0  0  0  0  0  0  0
  1  7  1  0  0  0  0
  1 10  1  0  0  0  0
  2 19  2  0  0  0  0
  4  3  1  6  0  0  0
  3  6  1  0  0  0  0
  3  8  1  0  0  0  0
  4  5  1  0  0  0  0
  4  7  1  0  0  0  0
  4 21  1  0  0  0  0
  5  9  1  0  0  0  0
  5 22  1  0  0  0  0
  5 23  1  0  0  0  0
  6 12  1  0  0  0  0
  6 13  1  0  0  0  0
  6 24  1  0  0  0  0
  7 25  1  0  0  0  0
  7 26  1  0  0  0  0
  8 11  1  0  0  0  0
  8 27  1  0  0  0  0
  8 28  1  0  0  0  0
  9 10  1  0  0  0  0
  9 14  2  0  0  0  0
 10 15  2  0  0  0  0
 11 16  1  0  0  0  0
 11 29  1  0  0  0  0
 11 30  1  0  0  0  0
 12 31  1  0  0  0  0
 12 32  1  0  0  0  0
 12 33  1  0  0  0  0
 13 34  1  0  0  0  0
 13 35  1  0  0  0  0
 13 36  1  0  0  0  0
 14 17  1  0  0  0  0
 14 19  1  0  0  0  0
 15 18  1  0  0  0  0
 15 37  1  0  0  0  0
 16 38  1  0  0  0  0
 16 39  1  0  0  0  0
 16 40  1  0  0  0  0
 17 18  2  0  0  0  0
 17 41  1  0  0  0  0
 18 42  1  0  0  0  0
 19 20  1  0  0  0  0
 20 43  1  0  0  0  0
 20 44  1  0  0  0  0
 20 45  1  0  0  0  0
M  END
> <PUBCHEM_COMPOUND_CID>
10564353

> <PUBCHEM_COMPOUND_CANONICALIZED>
1

> <PUBCHEM_CACTVS_COMPLEXITY>
329

> <PUBCHEM_CACTVS_HBOND_ACCEPTOR>
3

> <PUBCHEM_CACTVS_HBOND_DONOR>
0

> <PUBCHEM_CACTVS_ROTATABLE_BOND>
5

> <PUBCHEM_CACTVS_SUBSKEYS>
AAADceB6MAAAAAAAAAAAAAAAAAAAAAAAAAA0QAAAAAAAAACRAAAAHgAAAAAADCzhmAYyBoMABACIAqBSAAACCAAkIAAIiAEOCMgOJjKEtRuHOSCkwBGYqYe6ybCegAABAAAYAAAAAAIAADAAAAAAAAAAAA==

> <PUBCHEM_IUPAC_OPENEYE_NAME>
1-[(3S)-3-[isopropyl(propyl)amino]chroman-5-yl]ethanone

> <PUBCHEM_IUPAC_CAS_NAME>
1-[(3S)-3-[propan-2-yl(propyl)amino]-3,4-dihydro-2H-1-benzopyran-5-yl]ethanone

> <PUBCHEM_IUPAC_NAME_MARKUP>
1-[(3<I>S</I>)-3-[propan-2-yl(propyl)amino]-3,4-dihydro-2<I>H</I>-chromen-5-yl]ethanone

> <PUBCHEM_IUPAC_NAME>
1-[(3S)-3-[propan-2-yl(propyl)amino]-3,4-dihydro-2H-chromen-5-yl]ethanone

> <PUBCHEM_IUPAC_SYSTEMATIC_NAME>
1-[(3S)-3-[propan-2-yl(propyl)amino]-3,4-dihydro-2H-chromen-5-yl]ethanone

> <PUBCHEM_IUPAC_TRADITIONAL_NAME>
1-[(3S)-3-[isopropyl(propyl)amino]chroman-5-yl]ethanone

> <PUBCHEM_IUPAC_INCHI>
InChI=1S/C17H25NO2/c1-5-9-18(12(2)3)14-10-16-15(13(4)19)7-6-8-17(16)20-11-14/h6-8,12,14H,5,9-11H2,1-4H3/t14-/m0/s1

> <PUBCHEM_IUPAC_INCHIKEY>
ZYESZLRISGYBQK-AWEZNQCLSA-N

> <PUBCHEM_XLOGP3_AA>
3.4

> <PUBCHEM_EXACT_MASS>
275.188529040

> <PUBCHEM_MOLECULAR_FORMULA>
C17H25NO2

> <PUBCHEM_MOLECULAR_WEIGHT>
275.4

> <PUBCHEM_OPENEYE_CAN_SMILES>
CCCN(C1CC2=C(C=CC=C2OC1)C(=O)C)C(C)C

> <PUBCHEM_OPENEYE_ISO_SMILES>
CCCN([C@H]1CC2=C(C=CC=C2OC1)C(=O)C)C(C)C

> <PUBCHEM_CACTVS_TPSA>
29.5

> <PUBCHEM_MONOISOTOPIC_WEIGHT>
275.188529040

> <PUBCHEM_TOTAL_CHARGE>
0

> <PUBCHEM_HEAVY_ATOM_COUNT>
20

> <PUBCHEM_ATOM_DEF_STEREO_COUNT>
1

> <PUBCHEM_ATOM_UDEF_STEREO_COUNT>
0

> <PUBCHEM_BOND_DEF_STEREO_COUNT>
0

> <PUBCHEM_BOND_UDEF_STEREO_COUNT>
0

> <PUBCHEM_ISOTOPIC_ATOM_COUNT>
0

> <PUBCHEM_COMPONENT_COUNT>
1

> <PUBCHEM_CACTVS_TAUTO_COUNT>
-1

> <PUBCHEM_COORDINATE_TYPE>
1
5
255

> <PUBCHEM_BONDANNOTATIONS>
10  15  8
14  17  8
15  18  8
17  18  8
4  3  6
9  10  8
9  14  8

$$$$
