164916924
  -OEChem-09292322442D

 59 61  0     0  0  0  0  0  0999 V2000
    9.5000    0.2010    0.0000 O   0  0  0  0  0  0  0  0  0  0  0  0
    5.5000    0.2010    0.0000 N   0  0  0  0  0  0  0  0  0  0  0  0
    9.9397   -1.0071    0.0000 N   0  0  0  0  0  0  0  0  0  0  0  0
    8.0000   -0.6651    0.0000 C   0  0  0  0  0  0  0  0  0  0  0  0
    7.0000   -0.6651    0.0000 C   0  0  0  0  0  0  0  0  0  0  0  0
    8.0000   -1.6651    0.0000 C   0  0  0  0  0  0  0  0  0  0  0  0
    8.0000    0.3349    0.0000 C   0  0  0  0  0  0  0  0  0  0  0  0
    6.5000    0.2010    0.0000 C   0  0  0  0  0  0  0  0  0  0  0  0
    9.0000   -0.6651    0.0000 C   0  0  0  0  0  0  0  0  0  0  0  0
    8.8660   -2.1651    0.0000 C   0  0  0  0  0  0  0  0  0  0  0  0
    7.1340    0.8349    0.0000 C   0  0  0  0  0  0  0  0  0  0  0  0
    7.1340   -2.1651    0.0000 C   0  0  0  0  0  0  0  0  0  0  0  0
    8.8660    0.8349    0.0000 C   0  0  0  0  0  0  0  0  0  0  0  0
    5.0000    1.0670    0.0000 C   0  0  0  0  0  0  0  0  0  0  0  0
    4.0000    1.0670    0.0000 C   0  0  0  0  0  0  0  0  0  0  0  0
    8.8660   -3.1651    0.0000 C   0  0  0  0  0  0  0  0  0  0  0  0
    7.1340    1.8349    0.0000 C   0  0  0  0  0  0  0  0  0  0  0  0
    7.1340   -3.1651    0.0000 C   0  0  0  0  0  0  0  0  0  0  0  0
    8.8660    1.8349    0.0000 C   0  0  0  0  0  0  0  0  0  0  0  0
   10.7057   -0.3643    0.0000 C   0  0  0  0  0  0  0  0  0  0  0  0
   10.1134   -1.9918    0.0000 C   0  0  0  0  0  0  0  0  0  0  0  0
    8.0000   -3.6651    0.0000 C   0  0  0  0  0  0  0  0  0  0  0  0
    8.0000    2.3349    0.0000 C   0  0  0  0  0  0  0  0  0  0  0  0
    3.5000    1.9330    0.0000 C   0  0  0  0  0  0  0  0  0  0  0  0
    4.0000    2.7990    0.0000 C   0  0  0  0  0  0  0  0  0  0  0  0
    2.5000    1.9330    0.0000 C   0  0  0  0  0  0  0  0  0  0  0  0
    3.5000    3.6651    0.0000 C   0  0  0  0  0  0  0  0  0  0  0  0
    2.0000    2.7990    0.0000 C   0  0  0  0  0  0  0  0  0  0  0  0
    2.5000    3.6651    0.0000 C   0  0  0  0  0  0  0  0  0  0  0  0
    6.4174   -0.8771    0.0000 H   0  0  0  0  0  0  0  0  0  0  0  0
    7.1077   -1.2756    0.0000 H   0  0  0  0  0  0  0  0  0  0  0  0
    7.0826    0.4130    0.0000 H   0  0  0  0  0  0  0  0  0  0  0  0
    6.3923    0.8115    0.0000 H   0  0  0  0  0  0  0  0  0  0  0  0
    5.1900   -0.3360    0.0000 H   0  0  0  0  0  0  0  0  0  0  0  0
    9.4030   -1.8551    0.0000 H   0  0  0  0  0  0  0  0  0  0  0  0
    6.5970    0.5249    0.0000 H   0  0  0  0  0  0  0  0  0  0  0  0
    6.5970   -1.8551    0.0000 H   0  0  0  0  0  0  0  0  0  0  0  0
    9.4030    0.5249    0.0000 H   0  0  0  0  0  0  0  0  0  0  0  0
    5.5826    1.2790    0.0000 H   0  0  0  0  0  0  0  0  0  0  0  0
    4.8923    1.6776    0.0000 H   0  0  0  0  0  0  0  0  0  0  0  0
    3.4174    0.8549    0.0000 H   0  0  0  0  0  0  0  0  0  0  0  0
    4.1077    0.4564    0.0000 H   0  0  0  0  0  0  0  0  0  0  0  0
    9.4030   -3.4751    0.0000 H   0  0  0  0  0  0  0  0  0  0  0  0
    6.5970    2.1449    0.0000 H   0  0  0  0  0  0  0  0  0  0  0  0
    6.5970   -3.4751    0.0000 H   0  0  0  0  0  0  0  0  0  0  0  0
    9.4030    2.1449    0.0000 H   0  0  0  0  0  0  0  0  0  0  0  0
   11.1043   -0.8392    0.0000 H   0  0  0  0  0  0  0  0  0  0  0  0
   11.1807    0.0342    0.0000 H   0  0  0  0  0  0  0  0  0  0  0  0
   10.3072    0.1107    0.0000 H   0  0  0  0  0  0  0  0  0  0  0  0
    9.5028   -2.0995    0.0000 H   0  0  0  0  0  0  0  0  0  0  0  0
   10.2211   -2.6024    0.0000 H   0  0  0  0  0  0  0  0  0  0  0  0
   10.7240   -1.8841    0.0000 H   0  0  0  0  0  0  0  0  0  0  0  0
    8.0000   -4.2851    0.0000 H   0  0  0  0  0  0  0  0  0  0  0  0
    8.0000    2.9549    0.0000 H   0  0  0  0  0  0  0  0  0  0  0  0
    4.6200    2.7990    0.0000 H   0  0  0  0  0  0  0  0  0  0  0  0
    2.1900    1.3961    0.0000 H   0  0  0  0  0  0  0  0  0  0  0  0
    3.8100    4.2020    0.0000 H   0  0  0  0  0  0  0  0  0  0  0  0
    1.3800    2.7990    0.0000 H   0  0  0  0  0  0  0  0  0  0  0  0
    2.1900    4.2020    0.0000 H   0  0  0  0  0  0  0  0  0  0  0  0
  1  9  2  0  0  0  0
  2  8  1  0  0  0  0
  2 14  1  0  0  0  0
  2 34  1  0  0  0  0
  3  9  1  0  0  0  0
  3 20  1  0  0  0  0
  3 21  1  0  0  0  0
  4  5  1  0  0  0  0
  4  6  1  0  0  0  0
  4  7  1  0  0  0  0
  4  9  1  0  0  0  0
  5  8  1  0  0  0  0
  5 30  1  0  0  0  0
  5 31  1  0  0  0  0
  6 10  2  0  0  0  0
  6 12  1  0  0  0  0
  7 11  2  0  0  0  0
  7 13  1  0  0  0  0
  8 32  1  0  0  0  0
  8 33  1  0  0  0  0
 10 16  1  0  0  0  0
 10 35  1  0  0  0  0
 11 17  1  0  0  0  0
 11 36  1  0  0  0  0
 12 18  2  0  0  0  0
 12 37  1  0  0  0  0
 13 19  2  0  0  0  0
 13 38  1  0  0  0  0
 14 15  1  0  0  0  0
 14 39  1  0  0  0  0
 14 40  1  0  0  0  0
 15 24  1  0  0  0  0
 15 41  1  0  0  0  0
 15 42  1  0  0  0  0
 16 22  2  0  0  0  0
 16 43  1  0  0  0  0
 17 23  2  0  0  0  0
 17 44  1  0  0  0  0
 18 22  1  0  0  0  0
 18 45  1  0  0  0  0
 19 23  1  0  0  0  0
 19 46  1  0  0  0  0
 20 47  1  0  0  0  0
 20 48  1  0  0  0  0
 20 49  1  0  0  0  0
 21 50  1  0  0  0  0
 21 51  1  0  0  0  0
 21 52  1  0  0  0  0
 22 53  1  0  0  0  0
 23 54  1  0  0  0  0
 24 25  2  0  0  0  0
 24 26  1  0  0  0  0
 25 27  1  0  0  0  0
 25 55  1  0  0  0  0
 26 28  2  0  0  0  0
 26 56  1  0  0  0  0
 27 29  2  0  0  0  0
 27 57  1  0  0  0  0
 28 29  1  0  0  0  0
 28 58  1  0  0  0  0
 29 59  1  0  0  0  0
M  END
> <PUBCHEM_COMPOUND_CID>
164916924

> <PUBCHEM_COMPOUND_CANONICALIZED>
1

> <PUBCHEM_CACTVS_COMPLEXITY>
453

> <PUBCHEM_CACTVS_HBOND_ACCEPTOR>
2

> <PUBCHEM_CACTVS_HBOND_DONOR>
1

> <PUBCHEM_CACTVS_ROTATABLE_BOND>
9

> <PUBCHEM_CACTVS_SUBSKEYS>
AAADceB7IAAAAAAAAAAAAAAAAAAAAAAAAAAwYMAAAAAAAAABUAAAHgAQAAAADgDBmAQyAIPAAACIAiFSEAACAAAgAAAIiIEIAIgIIDKAlRGEIAAgkgCIiAcciMCPgAAAAAAAAAAAAAAAAAAAAAAAAAAAAA==

> <PUBCHEM_IUPAC_OPENEYE_NAME>
N,N-dimethyl-2,2-diphenyl-4-(2-phenylethylamino)butanamide

> <PUBCHEM_IUPAC_CAS_NAME>
N,N-dimethyl-2,2-diphenyl-4-(2-phenylethylamino)butanamide

> <PUBCHEM_IUPAC_NAME_MARKUP>
<I>N</I>,<I>N</I>-dimethyl-2,2-diphenyl-4-(2-phenylethylamino)butanamide

> <PUBCHEM_IUPAC_NAME>
N,N-dimethyl-2,2-diphenyl-4-(2-phenylethylamino)butanamide

> <PUBCHEM_IUPAC_SYSTEMATIC_NAME>
N,N-dimethyl-2,2-diphenyl-4-(2-phenylethylamino)butanamide

> <PUBCHEM_IUPAC_TRADITIONAL_NAME>
N,N-dimethyl-4-(phenethylamino)-2,2-diphenyl-butyramide

> <PUBCHEM_IUPAC_INCHI>
InChI=1S/C26H30N2O/c1-28(2)25(29)26(23-14-8-4-9-15-23,24-16-10-5-11-17-24)19-21-27-20-18-22-12-6-3-7-13-22/h3-17,27H,18-21H2,1-2H3

> <PUBCHEM_IUPAC_INCHIKEY>
MYMOYRKEPVSSAG-UHFFFAOYSA-N

> <PUBCHEM_XLOGP3_AA>
4.7

> <PUBCHEM_EXACT_MASS>
386.235813585

> <PUBCHEM_MOLECULAR_FORMULA>
C26H30N2O

> <PUBCHEM_MOLECULAR_WEIGHT>
386.5

> <PUBCHEM_OPENEYE_CAN_SMILES>
CN(C)C(=O)C(CCNCCC1=CC=CC=C1)(C2=CC=CC=C2)C3=CC=CC=C3

> <PUBCHEM_OPENEYE_ISO_SMILES>
CN(C)C(=O)C(CCNCCC1=CC=CC=C1)(C2=CC=CC=C2)C3=CC=CC=C3

> <PUBCHEM_CACTVS_TPSA>
32.3

> <PUBCHEM_MONOISOTOPIC_WEIGHT>
386.235813585

> <PUBCHEM_TOTAL_CHARGE>
0

> <PUBCHEM_HEAVY_ATOM_COUNT>
29

> <PUBCHEM_ATOM_DEF_STEREO_COUNT>
0

> <PUBCHEM_ATOM_UDEF_STEREO_COUNT>
0

> <PUBCHEM_BOND_DEF_STEREO_COUNT>
0

> <PUBCHEM_BOND_UDEF_STEREO_COUNT>
0

> <PUBCHEM_ISOTOPIC_ATOM_COUNT>
0

> <PUBCHEM_COMPONENT_COUNT>
1

> <PUBCHEM_CACTVS_TAUTO_COUNT>
-1

> <PUBCHEM_COORDINATE_TYPE>
1
5
255

> <PUBCHEM_BONDANNOTATIONS>
10  16  8
11  17  8
12  18  8
13  19  8
16  22  8
17  23  8
18  22  8
19  23  8
24  25  8
24  26  8
25  27  8
26  28  8
27  29  8
28  29  8
6  10  8
6  12  8
7  11  8
7  13  8

$$$$
