45482151
  -OEChem-09292322292D

 58 61  0     0  0  0  0  0  0999 V2000
    7.4805    4.4807    0.0000 O   0  0  0  0  0  0  0  0  0  0  0  0
    4.9483   -0.4780    0.0000 O   0  0  0  0  0  0  0  0  0  0  0  0
    2.0000   -7.2213    0.0000 O   0  5  0  0  0  0  0  0  0  0  0  0
    3.7320   -7.2213    0.0000 O   0  0  0  0  0  0  0  0  0  0  0  0
    4.3159    3.0717    0.0000 N   0  0  0  0  0  0  0  0  0  0  0  0
    5.4915    4.6897    0.0000 N   0  0  0  0  0  0  0  0  0  0  0  0
    3.5471    0.5401    0.0000 N   0  0  0  0  0  0  0  0  0  0  0  0
    2.8660   -2.7213    0.0000 N   0  0  0  0  0  0  0  0  0  0  0  0
    2.3660   -1.1825    0.0000 N   0  0  0  0  0  0  0  0  0  0  0  0
    2.0570   -2.1335    0.0000 N   0  0  0  0  0  0  0  0  0  0  0  0
    2.8660   -6.7213    0.0000 N   0  3  0  0  0  0  0  0  0  0  0  0
    3.9092    3.9852    0.0000 C   0  0  0  0  0  0  0  0  0  0  0  0
    5.3104    2.9672    0.0000 C   0  0  0  0  0  0  0  0  0  0  0  0
    4.4970    4.7942    0.0000 C   0  0  0  0  0  0  0  0  0  0  0  0
    5.8982    3.7762    0.0000 C   0  0  0  0  0  0  0  0  0  0  0  0
    3.7281    2.2627    0.0000 C   0  0  0  0  0  0  0  0  0  0  0  0
    6.0793    5.4987    0.0000 C   0  0  0  0  0  0  0  0  0  0  0  0
    4.1349    1.3491    0.0000 C   0  0  0  0  0  0  0  0  0  0  0  0
    7.0738    5.3942    0.0000 C   0  0  0  0  0  0  0  0  0  0  0  0
    5.6725    6.4123    0.0000 C   0  0  0  0  0  0  0  0  0  0  0  0
    7.6616    6.2032    0.0000 C   0  0  0  0  0  0  0  0  0  0  0  0
    6.2603    7.2213    0.0000 C   0  0  0  0  0  0  0  0  0  0  0  0
    7.2548    7.1168    0.0000 C   0  0  0  0  0  0  0  0  0  0  0  0
    3.9538   -0.3734    0.0000 C   0  0  0  0  0  0  0  0  0  0  0  0
    3.3660   -1.1825    0.0000 C   0  0  0  0  0  0  0  0  0  0  0  0
    8.4750    4.3761    0.0000 C   0  0  0  0  0  0  0  0  0  0  0  0
    3.6750   -2.1335    0.0000 C   0  0  0  0  0  0  0  0  0  0  0  0
    2.8660   -3.7213    0.0000 C   0  0  0  0  0  0  0  0  0  0  0  0
    2.0000   -4.2213    0.0000 C   0  0  0  0  0  0  0  0  0  0  0  0
    3.7320   -4.2213    0.0000 C   0  0  0  0  0  0  0  0  0  0  0  0
    2.0000   -5.2213    0.0000 C   0  0  0  0  0  0  0  0  0  0  0  0
    3.7320   -5.2213    0.0000 C   0  0  0  0  0  0  0  0  0  0  0  0
    2.8660   -5.7213    0.0000 C   0  0  0  0  0  0  0  0  0  0  0  0
    3.4785    4.4312    0.0000 H   0  0  0  0  0  0  0  0  0  0  0  0
    3.3952    3.6385    0.0000 H   0  0  0  0  0  0  0  0  0  0  0  0
    5.1395    2.3712    0.0000 H   0  0  0  0  0  0  0  0  0  0  0  0
    5.8677    2.6954    0.0000 H   0  0  0  0  0  0  0  0  0  0  0  0
    4.6678    5.3902    0.0000 H   0  0  0  0  0  0  0  0  0  0  0  0
    3.9397    5.0660    0.0000 H   0  0  0  0  0  0  0  0  0  0  0  0
    6.3289    3.3302    0.0000 H   0  0  0  0  0  0  0  0  0  0  0  0
    6.4122    4.1229    0.0000 H   0  0  0  0  0  0  0  0  0  0  0  0
    3.2974    2.7087    0.0000 H   0  0  0  0  0  0  0  0  0  0  0  0
    3.2141    1.9160    0.0000 H   0  0  0  0  0  0  0  0  0  0  0  0
    4.5656    0.9031    0.0000 H   0  0  0  0  0  0  0  0  0  0  0  0
    4.6489    1.6958    0.0000 H   0  0  0  0  0  0  0  0  0  0  0  0
    5.0559    6.4771    0.0000 H   0  0  0  0  0  0  0  0  0  0  0  0
    2.9305    0.6049    0.0000 H   0  0  0  0  0  0  0  0  0  0  0  0
    8.2782    6.1384    0.0000 H   0  0  0  0  0  0  0  0  0  0  0  0
    6.0081    7.7877    0.0000 H   0  0  0  0  0  0  0  0  0  0  0  0
    7.6193    7.6184    0.0000 H   0  0  0  0  0  0  0  0  0  0  0  0
    8.4102    3.7595    0.0000 H   0  0  0  0  0  0  0  0  0  0  0  0
    9.0916    4.3113    0.0000 H   0  0  0  0  0  0  0  0  0  0  0  0
    8.5398    4.9927    0.0000 H   0  0  0  0  0  0  0  0  0  0  0  0
    4.2647   -2.3251    0.0000 H   0  0  0  0  0  0  0  0  0  0  0  0
    1.4631   -3.9113    0.0000 H   0  0  0  0  0  0  0  0  0  0  0  0
    4.2690   -3.9113    0.0000 H   0  0  0  0  0  0  0  0  0  0  0  0
    1.4631   -5.5313    0.0000 H   0  0  0  0  0  0  0  0  0  0  0  0
    4.2690   -5.5313    0.0000 H   0  0  0  0  0  0  0  0  0  0  0  0
  1 19  1  0  0  0  0
  1 26  1  0  0  0  0
  2 24  2  0  0  0  0
  3 11  1  0  0  0  0
  4 11  2  0  0  0  0
  5 12  1  0  0  0  0
  5 13  1  0  0  0  0
  5 16  1  0  0  0  0
  6 14  1  0  0  0  0
  6 15  1  0  0  0  0
  6 17  1  0  0  0  0
  7 18  1  0  0  0  0
  7 24  1  0  0  0  0
  7 47  1  0  0  0  0
  8 10  1  0  0  0  0
  8 27  1  0  0  0  0
  8 28  1  0  0  0  0
  9 10  2  0  0  0  0
  9 25  1  0  0  0  0
 11 33  1  0  0  0  0
 12 14  1  0  0  0  0
 12 34  1  0  0  0  0
 12 35  1  0  0  0  0
 13 15  1  0  0  0  0
 13 36  1  0  0  0  0
 13 37  1  0  0  0  0
 14 38  1  0  0  0  0
 14 39  1  0  0  0  0
 15 40  1  0  0  0  0
 15 41  1  0  0  0  0
 16 18  1  0  0  0  0
 16 42  1  0  0  0  0
 16 43  1  0  0  0  0
 17 19  1  0  0  0  0
 17 20  2  0  0  0  0
 18 44  1  0  0  0  0
 18 45  1  0  0  0  0
 19 21  2  0  0  0  0
 20 22  1  0  0  0  0
 20 46  1  0  0  0  0
 21 23  1  0  0  0  0
 21 48  1  0  0  0  0
 22 23  2  0  0  0  0
 22 49  1  0  0  0  0
 23 50  1  0  0  0  0
 24 25  1  0  0  0  0
 25 27  2  0  0  0  0
 26 51  1  0  0  0  0
 26 52  1  0  0  0  0
 26 53  1  0  0  0  0
 27 54  1  0  0  0  0
 28 29  2  0  0  0  0
 28 30  1  0  0  0  0
 29 31  1  0  0  0  0
 29 55  1  0  0  0  0
 30 32  2  0  0  0  0
 30 56  1  0  0  0  0
 31 33  2  0  0  0  0
 31 57  1  0  0  0  0
 32 33  1  0  0  0  0
 32 58  1  0  0  0  0
M  CHG  2   3  -1  11   1
M  END
> <PUBCHEM_COMPOUND_CID>
45482151

> <PUBCHEM_COMPOUND_CANONICALIZED>
1

> <PUBCHEM_CACTVS_COMPLEXITY>
647

> <PUBCHEM_CACTVS_HBOND_ACCEPTOR>
8

> <PUBCHEM_CACTVS_HBOND_DONOR>
1

> <PUBCHEM_CACTVS_ROTATABLE_BOND>
7

> <PUBCHEM_CACTVS_SUBSKEYS>
AAADceB7uAAAAAAAAAAAAAAAAAAAAWAAAAA8YIAAAAAAAAAB0AAAHgAcAAAACAzBlgY+xpPYRACrATV3VwCCDCQ3sgA4mIG/fMoOZmrE8ZuVMKhk1hHY6MeQQAAAAACAAAAAEAAAAQAAAAAgAAAAAAAAAA==

> <PUBCHEM_IUPAC_OPENEYE_NAME>
N-[2-[4-(2-methoxyphenyl)piperazin-1-yl]ethyl]-1-(4-nitrophenyl)triazole-4-carboxamide

> <PUBCHEM_IUPAC_CAS_NAME>
N-[2-[4-(2-methoxyphenyl)-1-piperazinyl]ethyl]-1-(4-nitrophenyl)-4-triazolecarboxamide

> <PUBCHEM_IUPAC_NAME_MARKUP>
<I>N</I>-[2-[4-(2-methoxyphenyl)piperazin-1-yl]ethyl]-1-(4-nitrophenyl)triazole-4-carboxamide

> <PUBCHEM_IUPAC_NAME>
N-[2-[4-(2-methoxyphenyl)piperazin-1-yl]ethyl]-1-(4-nitrophenyl)triazole-4-carboxamide

> <PUBCHEM_IUPAC_SYSTEMATIC_NAME>
N-[2-[4-(2-methoxyphenyl)piperazin-1-yl]ethyl]-1-(4-nitrophenyl)-1,2,3-triazole-4-carboxamide

> <PUBCHEM_IUPAC_TRADITIONAL_NAME>
N-[2-[4-(2-methoxyphenyl)piperazino]ethyl]-1-(4-nitrophenyl)triazole-4-carboxamide

> <PUBCHEM_IUPAC_INCHI>
InChI=1S/C22H25N7O4/c1-33-21-5-3-2-4-20(21)27-14-12-26(13-15-27)11-10-23-22(30)19-16-28(25-24-19)17-6-8-18(9-7-17)29(31)32/h2-9,16H,10-15H2,1H3,(H,23,30)

> <PUBCHEM_IUPAC_INCHIKEY>
JIMZYWHOJZKVBJ-UHFFFAOYSA-N

> <PUBCHEM_XLOGP3_AA>
2.4

> <PUBCHEM_EXACT_MASS>
451.19680230

> <PUBCHEM_MOLECULAR_FORMULA>
C22H25N7O4

> <PUBCHEM_MOLECULAR_WEIGHT>
451.5

> <PUBCHEM_OPENEYE_CAN_SMILES>
COC1=CC=CC=C1N2CCN(CC2)CCNC(=O)C3=CN(N=N3)C4=CC=C(C=C4)[N+](=O)[O-]

> <PUBCHEM_OPENEYE_ISO_SMILES>
COC1=CC=CC=C1N2CCN(CC2)CCNC(=O)C3=CN(N=N3)C4=CC=C(C=C4)[N+](=O)[O-]

> <PUBCHEM_CACTVS_TPSA>
121

> <PUBCHEM_MONOISOTOPIC_WEIGHT>
451.19680230

> <PUBCHEM_TOTAL_CHARGE>
0

> <PUBCHEM_HEAVY_ATOM_COUNT>
33

> <PUBCHEM_ATOM_DEF_STEREO_COUNT>
0

> <PUBCHEM_ATOM_UDEF_STEREO_COUNT>
0

> <PUBCHEM_BOND_DEF_STEREO_COUNT>
0

> <PUBCHEM_BOND_UDEF_STEREO_COUNT>
0

> <PUBCHEM_ISOTOPIC_ATOM_COUNT>
0

> <PUBCHEM_COMPONENT_COUNT>
1

> <PUBCHEM_CACTVS_TAUTO_COUNT>
-1

> <PUBCHEM_COORDINATE_TYPE>
1
5
255

> <PUBCHEM_BONDANNOTATIONS>
17  19  8
17  20  8
19  21  8
20  22  8
21  23  8
22  23  8
25  27  8
28  29  8
28  30  8
29  31  8
30  32  8
31  33  8
32  33  8
8  10  8
8  27  8
9  10  8
9  25  8

$$$$
