44286909
  -OEChem-09292322502D

 57 59  0     1  0  0  0  0  0999 V2000
    8.0609   -0.2128    0.0000 O   0  0  0  0  0  0  0  0  0  0  0  0
    7.1842   -1.7373    0.0000 O   0  0  0  0  0  0  0  0  0  0  0  0
    2.0000   -2.7973    0.0000 O   0  0  0  0  0  0  0  0  0  0  0  0
    9.7930    1.7872    0.0000 N   0  0  0  0  0  0  0  0  0  0  0  0
    8.9269    1.2872    0.0000 C   0  0  3  0  0  0  0  0  0  0  0  0
    8.0609    1.7872    0.0000 C   0  0  0  0  0  0  0  0  0  0  0  0
    8.9269    0.2872    0.0000 C   0  0  0  0  0  0  0  0  0  0  0  0
   10.6590    1.2872    0.0000 C   0  0  0  0  0  0  0  0  0  0  0  0
    9.7930    2.7872    0.0000 C   0  0  0  0  0  0  0  0  0  0  0  0
    7.1949    1.2872    0.0000 C   0  0  0  0  0  0  0  0  0  0  0  0
    7.1949    0.2872    0.0000 C   0  0  0  0  0  0  0  0  0  0  0  0
   11.5250    1.7872    0.0000 C   0  0  0  0  0  0  0  0  0  0  0  0
   10.6590    3.2872    0.0000 C   0  0  0  0  0  0  0  0  0  0  0  0
    6.3009    1.8219    0.0000 C   0  0  0  0  0  0  0  0  0  0  0  0
    6.3009   -0.2474    0.0000 C   0  0  0  0  0  0  0  0  0  0  0  0
    5.3949    1.3080    0.0000 C   0  0  0  0  0  0  0  0  0  0  0  0
    5.3949    0.2664    0.0000 C   0  0  0  0  0  0  0  0  0  0  0  0
   12.3910    1.2872    0.0000 C   0  0  0  0  0  0  0  0  0  0  0  0
   10.6590    4.2872    0.0000 C   0  0  0  0  0  0  0  0  0  0  0  0
    6.3125   -1.2474    0.0000 C   0  0  0  0  0  0  0  0  0  0  0  0
    5.4523   -1.7574    0.0000 C   0  0  0  0  0  0  0  0  0  0  0  0
    5.4639   -2.7573    0.0000 C   0  0  0  0  0  0  0  0  0  0  0  0
    4.5806   -1.2674    0.0000 C   0  0  0  0  0  0  0  0  0  0  0  0
    4.6037   -3.2673    0.0000 C   0  0  0  0  0  0  0  0  0  0  0  0
    3.7204   -1.7774    0.0000 C   0  0  0  0  0  0  0  0  0  0  0  0
    3.7319   -2.7773    0.0000 C   0  0  0  0  0  0  0  0  0  0  0  0
    2.8718   -3.2873    0.0000 C   0  0  0  0  0  0  0  0  0  0  0  0
    2.8833   -4.2872    0.0000 C   0  0  0  0  0  0  0  0  0  0  0  0
    8.9269    1.9072    0.0000 H   0  0  0  0  0  0  0  0  0  0  0  0
    8.4594    2.2622    0.0000 H   0  0  0  0  0  0  0  0  0  0  0  0
    7.6624    2.2622    0.0000 H   0  0  0  0  0  0  0  0  0  0  0  0
    9.1390   -0.2954    0.0000 H   0  0  0  0  0  0  0  0  0  0  0  0
    9.5375    0.3949    0.0000 H   0  0  0  0  0  0  0  0  0  0  0  0
   10.2604    0.8123    0.0000 H   0  0  0  0  0  0  0  0  0  0  0  0
   11.0575    0.8123    0.0000 H   0  0  0  0  0  0  0  0  0  0  0  0
    9.5809    3.3698    0.0000 H   0  0  0  0  0  0  0  0  0  0  0  0
    9.1824    2.6796    0.0000 H   0  0  0  0  0  0  0  0  0  0  0  0
   11.9235    2.2622    0.0000 H   0  0  0  0  0  0  0  0  0  0  0  0
   11.1265    2.2622    0.0000 H   0  0  0  0  0  0  0  0  0  0  0  0
   10.8710    2.7046    0.0000 H   0  0  0  0  0  0  0  0  0  0  0  0
   11.2696    3.3949    0.0000 H   0  0  0  0  0  0  0  0  0  0  0  0
    6.3081    2.4418    0.0000 H   0  0  0  0  0  0  0  0  0  0  0  0
    4.8591    1.6201    0.0000 H   0  0  0  0  0  0  0  0  0  0  0  0
    4.8591   -0.0457    0.0000 H   0  0  0  0  0  0  0  0  0  0  0  0
   12.0810    0.7503    0.0000 H   0  0  0  0  0  0  0  0  0  0  0  0
   12.9280    0.9772    0.0000 H   0  0  0  0  0  0  0  0  0  0  0  0
   12.7010    1.8242    0.0000 H   0  0  0  0  0  0  0  0  0  0  0  0
   11.2790    4.2872    0.0000 H   0  0  0  0  0  0  0  0  0  0  0  0
   10.6590    4.9072    0.0000 H   0  0  0  0  0  0  0  0  0  0  0  0
   10.0390    4.2872    0.0000 H   0  0  0  0  0  0  0  0  0  0  0  0
    6.0043   -3.0610    0.0000 H   0  0  0  0  0  0  0  0  0  0  0  0
    4.5734   -0.6474    0.0000 H   0  0  0  0  0  0  0  0  0  0  0  0
    4.6108   -3.8872    0.0000 H   0  0  0  0  0  0  0  0  0  0  0  0
    3.1799   -1.4736    0.0000 H   0  0  0  0  0  0  0  0  0  0  0  0
    2.2634   -4.2944    0.0000 H   0  0  0  0  0  0  0  0  0  0  0  0
    2.8905   -4.9072    0.0000 H   0  0  0  0  0  0  0  0  0  0  0  0
    3.5033   -4.2801    0.0000 H   0  0  0  0  0  0  0  0  0  0  0  0
  1  7  1  0  0  0  0
  1 11  1  0  0  0  0
  2 20  2  0  0  0  0
  3 27  2  0  0  0  0
  4  5  1  0  0  0  0
  4  8  1  0  0  0  0
  4  9  1  0  0  0  0
  5  6  1  0  0  0  0
  5  7  1  0  0  0  0
  5 29  1  0  0  0  0
  6 10  1  0  0  0  0
  6 30  1  0  0  0  0
  6 31  1  0  0  0  0
  7 32  1  0  0  0  0
  7 33  1  0  0  0  0
  8 12  1  0  0  0  0
  8 34  1  0  0  0  0
  8 35  1  0  0  0  0
  9 13  1  0  0  0  0
  9 36  1  0  0  0  0
  9 37  1  0  0  0  0
 10 11  2  0  0  0  0
 10 14  1  0  0  0  0
 11 15  1  0  0  0  0
 12 18  1  0  0  0  0
 12 38  1  0  0  0  0
 12 39  1  0  0  0  0
 13 19  1  0  0  0  0
 13 40  1  0  0  0  0
 13 41  1  0  0  0  0
 14 16  2  0  0  0  0
 14 42  1  0  0  0  0
 15 17  2  0  0  0  0
 15 20  1  0  0  0  0
 16 17  1  0  0  0  0
 16 43  1  0  0  0  0
 17 44  1  0  0  0  0
 18 45  1  0  0  0  0
 18 46  1  0  0  0  0
 18 47  1  0  0  0  0
 19 48  1  0  0  0  0
 19 49  1  0  0  0  0
 19 50  1  0  0  0  0
 20 21  1  0  0  0  0
 21 22  2  0  0  0  0
 21 23  1  0  0  0  0
 22 24  1  0  0  0  0
 22 51  1  0  0  0  0
 23 25  2  0  0  0  0
 23 52  1  0  0  0  0
 24 26  2  0  0  0  0
 24 53  1  0  0  0  0
 25 26  1  0  0  0  0
 25 54  1  0  0  0  0
 26 27  1  0  0  0  0
 27 28  1  0  0  0  0
 28 55  1  0  0  0  0
 28 56  1  0  0  0  0
 28 57  1  0  0  0  0
M  END
> <PUBCHEM_COMPOUND_CID>
44286909

> <PUBCHEM_COMPOUND_CANONICALIZED>
1

> <PUBCHEM_CACTVS_COMPLEXITY>
520

> <PUBCHEM_CACTVS_HBOND_ACCEPTOR>
4

> <PUBCHEM_CACTVS_HBOND_DONOR>
0

> <PUBCHEM_CACTVS_ROTATABLE_BOND>
8

> <PUBCHEM_CACTVS_SUBSKEYS>
AAADceB6MAAAAAAAAAAAAAAAAAAAAAAAAAA0YIAAAAAAAACRQAAAHgAAAAAADCzhmAYyBoMABACIAqBSAAACCAAkIAAIiAEMCMgOJjaEtRuHOWCk4BGYqYe4yOCOQAACAAAIAACAAAQAABAAAAAAAAAAAA==

> <PUBCHEM_IUPAC_OPENEYE_NAME>
1-[4-[3-(dipropylamino)chromane-8-carbonyl]phenyl]ethanone

> <PUBCHEM_IUPAC_CAS_NAME>
1-[4-[[3-(dipropylamino)-3,4-dihydro-2H-1-benzopyran-8-yl]-oxomethyl]phenyl]ethanone

> <PUBCHEM_IUPAC_NAME_MARKUP>
1-[4-[3-(dipropylamino)-3,4-dihydro-2<I>H</I>-chromene-8-carbonyl]phenyl]ethanone

> <PUBCHEM_IUPAC_NAME>
1-[4-[3-(dipropylamino)-3,4-dihydro-2H-chromene-8-carbonyl]phenyl]ethanone

> <PUBCHEM_IUPAC_SYSTEMATIC_NAME>
1-[4-[[3-(dipropylamino)-3,4-dihydro-2H-chromen-8-yl]carbonyl]phenyl]ethanone

> <PUBCHEM_IUPAC_TRADITIONAL_NAME>
1-[4-[3-(dipropylamino)chroman-8-carbonyl]phenyl]ethanone

> <PUBCHEM_IUPAC_INCHI>
InChI=1S/C24H29NO3/c1-4-13-25(14-5-2)21-15-20-7-6-8-22(24(20)28-16-21)23(27)19-11-9-18(10-12-19)17(3)26/h6-12,21H,4-5,13-16H2,1-3H3

> <PUBCHEM_IUPAC_INCHIKEY>
GDCQIEHJIRJTNW-UHFFFAOYSA-N

> <PUBCHEM_XLOGP3_AA>
4.8

> <PUBCHEM_EXACT_MASS>
379.21474379

> <PUBCHEM_MOLECULAR_FORMULA>
C24H29NO3

> <PUBCHEM_MOLECULAR_WEIGHT>
379.5

> <PUBCHEM_OPENEYE_CAN_SMILES>
CCCN(CCC)C1CC2=C(C(=CC=C2)C(=O)C3=CC=C(C=C3)C(=O)C)OC1

> <PUBCHEM_OPENEYE_ISO_SMILES>
CCCN(CCC)C1CC2=C(C(=CC=C2)C(=O)C3=CC=C(C=C3)C(=O)C)OC1

> <PUBCHEM_CACTVS_TPSA>
46.6

> <PUBCHEM_MONOISOTOPIC_WEIGHT>
379.21474379

> <PUBCHEM_TOTAL_CHARGE>
0

> <PUBCHEM_HEAVY_ATOM_COUNT>
28

> <PUBCHEM_ATOM_DEF_STEREO_COUNT>
0

> <PUBCHEM_ATOM_UDEF_STEREO_COUNT>
1

> <PUBCHEM_BOND_DEF_STEREO_COUNT>
0

> <PUBCHEM_BOND_UDEF_STEREO_COUNT>
0

> <PUBCHEM_ISOTOPIC_ATOM_COUNT>
0

> <PUBCHEM_COMPONENT_COUNT>
1

> <PUBCHEM_CACTVS_TAUTO_COUNT>
-1

> <PUBCHEM_COORDINATE_TYPE>
1
5
255

> <PUBCHEM_BONDANNOTATIONS>
10  11  8
10  14  8
11  15  8
14  16  8
15  17  8
16  17  8
21  22  8
21  23  8
22  24  8
23  25  8
24  26  8
25  26  8
5  4  3

$$$$
