134131472
  -OEChem-09292322432D

 58 62  0     0  0  0  0  0  0999 V2000
    2.0000   -5.4890    0.0000 F   0  0  0  0  0  0  0  0  0  0  0  0
   11.2758    5.4890    0.0000 F   0  0  0  0  0  0  0  0  0  0  0  0
   11.9901    2.0994    0.0000 F   0  0  0  0  0  0  0  0  0  0  0  0
    5.5443   -5.2938    0.0000 O   0  0  0  0  0  0  0  0  0  0  0  0
    9.0546    1.4807    0.0000 O   0  0  0  0  0  0  0  0  0  0  0  0
   10.2973    5.2828    0.0000 O   0  0  0  0  0  0  0  0  0  0  0  0
    6.4763   -0.8327    0.0000 N   0  0  0  0  0  0  0  0  0  0  0  0
    6.1279   -4.4890    0.0000 N   0  0  0  0  0  0  0  0  0  0  0  0
   10.3438    2.6375    0.0000 N   0  0  0  0  0  0  0  0  0  0  0  0
   10.6545    3.5880    0.0000 N   0  0  0  0  0  0  0  0  0  0  0  0
    5.8550   -2.7338    0.0000 C   0  0  0  0  0  0  0  0  0  0  0  0
    5.1871   -1.9895    0.0000 C   0  0  0  0  0  0  0  0  0  0  0  0
    6.8335   -2.5276    0.0000 C   0  0  0  0  0  0  0  0  0  0  0  0
    5.4978   -1.0390    0.0000 C   0  0  0  0  0  0  0  0  0  0  0  0
    7.1441   -1.5770    0.0000 C   0  0  0  0  0  0  0  0  0  0  0  0
    6.7870    0.1178    0.0000 C   0  0  0  0  0  0  0  0  0  0  0  0
    5.5443   -3.6843    0.0000 C   0  0  0  0  0  0  0  0  0  0  0  0
    7.7654    0.3240    0.0000 C   0  0  0  0  0  0  0  0  0  0  0  0
    4.5981   -3.9890    0.0000 C   0  0  0  0  0  0  0  0  0  0  0  0
    4.5981   -4.9890    0.0000 C   0  0  0  0  0  0  0  0  0  0  0  0
    8.0761    1.2745    0.0000 C   0  0  0  0  0  0  0  0  0  0  0  0
    3.7320   -3.4890    0.0000 C   0  0  0  0  0  0  0  0  0  0  0  0
    3.7320   -5.4890    0.0000 C   0  0  0  0  0  0  0  0  0  0  0  0
    2.8660   -3.9890    0.0000 C   0  0  0  0  0  0  0  0  0  0  0  0
    2.8660   -4.9890    0.0000 C   0  0  0  0  0  0  0  0  0  0  0  0
    9.3653    2.4313    0.0000 C   0  0  0  0  0  0  0  0  0  0  0  0
    8.6974    3.1756    0.0000 C   0  0  0  0  0  0  0  0  0  0  0  0
    9.0081    4.1261    0.0000 C   0  0  0  0  0  0  0  0  0  0  0  0
    9.9866    4.3323    0.0000 C   0  0  0  0  0  0  0  0  0  0  0  0
   11.6330    3.7942    0.0000 C   0  0  0  0  0  0  0  0  0  0  0  0
   11.9436    4.7447    0.0000 C   0  0  0  0  0  0  0  0  0  0  0  0
   12.3008    3.0499    0.0000 C   0  0  0  0  0  0  0  0  0  0  0  0
   12.9221    4.9510    0.0000 C   0  0  0  0  0  0  0  0  0  0  0  0
   13.2793    3.2561    0.0000 C   0  0  0  0  0  0  0  0  0  0  0  0
   13.5900    4.2066    0.0000 C   0  0  0  0  0  0  0  0  0  0  0  0
    6.2690   -3.1952    0.0000 H   0  0  0  0  0  0  0  0  0  0  0  0
    4.6402   -1.6975    0.0000 H   0  0  0  0  0  0  0  0  0  0  0  0
    4.8046   -2.4774    0.0000 H   0  0  0  0  0  0  0  0  0  0  0  0
    6.8540   -3.1472    0.0000 H   0  0  0  0  0  0  0  0  0  0  0  0
    7.4473   -2.6149    0.0000 H   0  0  0  0  0  0  0  0  0  0  0  0
    5.4772   -0.4193    0.0000 H   0  0  0  0  0  0  0  0  0  0  0  0
    4.8840   -0.9516    0.0000 H   0  0  0  0  0  0  0  0  0  0  0  0
    7.6910   -1.8691    0.0000 H   0  0  0  0  0  0  0  0  0  0  0  0
    7.5267   -1.0891    0.0000 H   0  0  0  0  0  0  0  0  0  0  0  0
    6.7664    0.7374    0.0000 H   0  0  0  0  0  0  0  0  0  0  0  0
    6.1731    0.2051    0.0000 H   0  0  0  0  0  0  0  0  0  0  0  0
    7.7860   -0.2957    0.0000 H   0  0  0  0  0  0  0  0  0  0  0  0
    8.3793    0.2366    0.0000 H   0  0  0  0  0  0  0  0  0  0  0  0
    8.0556    1.8942    0.0000 H   0  0  0  0  0  0  0  0  0  0  0  0
    7.4623    1.3619    0.0000 H   0  0  0  0  0  0  0  0  0  0  0  0
    3.7320   -2.8690    0.0000 H   0  0  0  0  0  0  0  0  0  0  0  0
    3.7320   -6.1090    0.0000 H   0  0  0  0  0  0  0  0  0  0  0  0
    2.3291   -3.6790    0.0000 H   0  0  0  0  0  0  0  0  0  0  0  0
    8.0908    3.0477    0.0000 H   0  0  0  0  0  0  0  0  0  0  0  0
    8.5940    4.5875    0.0000 H   0  0  0  0  0  0  0  0  0  0  0  0
   13.1147    5.5403    0.0000 H   0  0  0  0  0  0  0  0  0  0  0  0
   13.6934    2.7947    0.0000 H   0  0  0  0  0  0  0  0  0  0  0  0
   14.1966    4.3345    0.0000 H   0  0  0  0  0  0  0  0  0  0  0  0
  1 25  1  0  0  0  0
  2 31  1  0  0  0  0
  3 32  1  0  0  0  0
  4  8  1  0  0  0  0
  4 20  1  0  0  0  0
  5 21  1  0  0  0  0
  5 26  1  0  0  0  0
  6 29  2  0  0  0  0
  7 14  1  0  0  0  0
  7 15  1  0  0  0  0
  7 16  1  0  0  0  0
  8 17  2  0  0  0  0
  9 10  1  0  0  0  0
  9 26  2  0  0  0  0
 10 29  1  0  0  0  0
 10 30  1  0  0  0  0
 11 12  1  0  0  0  0
 11 13  1  0  0  0  0
 11 17  1  0  0  0  0
 11 36  1  0  0  0  0
 12 14  1  0  0  0  0
 12 37  1  0  0  0  0
 12 38  1  0  0  0  0
 13 15  1  0  0  0  0
 13 39  1  0  0  0  0
 13 40  1  0  0  0  0
 14 41  1  0  0  0  0
 14 42  1  0  0  0  0
 15 43  1  0  0  0  0
 15 44  1  0  0  0  0
 16 18  1  0  0  0  0
 16 45  1  0  0  0  0
 16 46  1  0  0  0  0
 17 19  1  0  0  0  0
 18 21  1  0  0  0  0
 18 47  1  0  0  0  0
 18 48  1  0  0  0  0
 19 20  2  0  0  0  0
 19 22  1  0  0  0  0
 20 23  1  0  0  0  0
 21 49  1  0  0  0  0
 21 50  1  0  0  0  0
 22 24  2  0  0  0  0
 22 51  1  0  0  0  0
 23 25  2  0  0  0  0
 23 52  1  0  0  0  0
 24 25  1  0  0  0  0
 24 53  1  0  0  0  0
 26 27  1  0  0  0  0
 27 28  2  0  0  0  0
 27 54  1  0  0  0  0
 28 29  1  0  0  0  0
 28 55  1  0  0  0  0
 30 31  2  0  0  0  0
 30 32  1  0  0  0  0
 31 33  1  0  0  0  0
 32 34  2  0  0  0  0
 33 35  2  0  0  0  0
 33 56  1  0  0  0  0
 34 35  1  0  0  0  0
 34 57  1  0  0  0  0
 35 58  1  0  0  0  0
M  END
> <PUBCHEM_COMPOUND_CID>
134131472

> <PUBCHEM_COMPOUND_CANONICALIZED>
1

> <PUBCHEM_CACTVS_COMPLEXITY>
797

> <PUBCHEM_CACTVS_HBOND_ACCEPTOR>
9

> <PUBCHEM_CACTVS_HBOND_DONOR>
0

> <PUBCHEM_CACTVS_ROTATABLE_BOND>
7

> <PUBCHEM_CACTVS_SUBSKEYS>
AAADceB7sYAAAAAAAAAAAAAAAAAAAWAAAAA8YIEAAAAAAFgB9AAAHwAMAAAADQzhng4wxtMQBACpA6VyUgCSBAAlIAA6mCE+TNoIJrrAtZOGMYhmzBnI6ceYyOCOAAAAAAAIAAAAAAAAABAAAAAAAAAAAA==

> <PUBCHEM_IUPAC_OPENEYE_NAME>
2-(2,6-difluorophenyl)-6-[3-[4-(6-fluoro-1,2-benzoxazol-3-yl)-1-piperidyl]propoxy]pyridazin-3-one

> <PUBCHEM_IUPAC_CAS_NAME>
2-(2,6-difluorophenyl)-6-[3-[4-(6-fluoro-1,2-benzoxazol-3-yl)-1-piperidinyl]propoxy]-3-pyridazinone

> <PUBCHEM_IUPAC_NAME_MARKUP>
2-(2,6-difluorophenyl)-6-[3-[4-(6-fluoro-1,2-benzoxazol-3-yl)piperidin-1-yl]propoxy]pyridazin-3-one

> <PUBCHEM_IUPAC_NAME>
2-(2,6-difluorophenyl)-6-[3-[4-(6-fluoro-1,2-benzoxazol-3-yl)piperidin-1-yl]propoxy]pyridazin-3-one

> <PUBCHEM_IUPAC_SYSTEMATIC_NAME>
2-[2,6-bis(fluoranyl)phenyl]-6-[3-[4-(6-fluoranyl-1,2-benzoxazol-3-yl)piperidin-1-yl]propoxy]pyridazin-3-one

> <PUBCHEM_IUPAC_TRADITIONAL_NAME>
2-(2,6-difluorophenyl)-6-[3-[4-(6-fluoroindoxazen-3-yl)piperidino]propoxy]pyridazin-3-one

> <PUBCHEM_IUPAC_INCHI>
InChI=1S/C25H23F3N4O3/c26-17-5-6-18-21(15-17)35-30-24(18)16-9-12-31(13-10-16)11-2-14-34-22-7-8-23(33)32(29-22)25-19(27)3-1-4-20(25)28/h1,3-8,15-16H,2,9-14H2

> <PUBCHEM_IUPAC_INCHIKEY>
JCSJNNBJTFWLCL-UHFFFAOYSA-N

> <PUBCHEM_XLOGP3_AA>
4.2

> <PUBCHEM_EXACT_MASS>
484.17222509

> <PUBCHEM_MOLECULAR_FORMULA>
C25H23F3N4O3

> <PUBCHEM_MOLECULAR_WEIGHT>
484.5

> <PUBCHEM_OPENEYE_CAN_SMILES>
C1CN(CCC1C2=NOC3=C2C=CC(=C3)F)CCCOC4=NN(C(=O)C=C4)C5=C(C=CC=C5F)F

> <PUBCHEM_OPENEYE_ISO_SMILES>
C1CN(CCC1C2=NOC3=C2C=CC(=C3)F)CCCOC4=NN(C(=O)C=C4)C5=C(C=CC=C5F)F

> <PUBCHEM_CACTVS_TPSA>
71.2

> <PUBCHEM_MONOISOTOPIC_WEIGHT>
484.17222509

> <PUBCHEM_TOTAL_CHARGE>
0

> <PUBCHEM_HEAVY_ATOM_COUNT>
35

> <PUBCHEM_ATOM_DEF_STEREO_COUNT>
0

> <PUBCHEM_ATOM_UDEF_STEREO_COUNT>
0

> <PUBCHEM_BOND_DEF_STEREO_COUNT>
0

> <PUBCHEM_BOND_UDEF_STEREO_COUNT>
0

> <PUBCHEM_ISOTOPIC_ATOM_COUNT>
0

> <PUBCHEM_COMPONENT_COUNT>
1

> <PUBCHEM_CACTVS_TAUTO_COUNT>
-1

> <PUBCHEM_COORDINATE_TYPE>
1
5
255

> <PUBCHEM_BONDANNOTATIONS>
10  29  8
17  19  8
19  20  8
19  22  8
20  23  8
22  24  8
23  25  8
24  25  8
26  27  8
27  28  8
28  29  8
30  31  8
30  32  8
31  33  8
32  34  8
33  35  8
34  35  8
4  20  8
4  8  8
8  17  8
9  10  8
9  26  8

$$$$
