168271877
  -OEChem-09292322092D

 70 69  0     1  0  0  0  0  0999 V2000
    2.0281   12.2133    0.0000 S   0  0  0  0  0  0  0  0  0  0  0  0
    8.9427    3.9112    0.0000 F   0  0  0  0  0  0  0  0  0  0  0  0
    9.3087    5.2772    0.0000 F   0  0  0  0  0  0  0  0  0  0  0  0
   10.3087    3.5452    0.0000 F   0  0  0  0  0  0  0  0  0  0  0  0
    8.9427    8.2772    0.0000 F   0  0  0  0  0  0  0  0  0  0  0  0
    9.3087    9.6433    0.0000 F   0  0  0  0  0  0  0  0  0  0  0  0
   10.3087    7.9112    0.0000 F   0  0  0  0  0  0  0  0  0  0  0  0
    3.8076    8.1200    0.0000 O   0  0  0  0  0  0  0  0  0  0  0  0
   11.5407    4.4112    0.0000 O   0  0  0  0  0  0  0  0  0  0  0  0
   11.5407    8.7772    0.0000 O   0  0  0  0  0  0  0  0  0  0  0  0
   10.6747    5.9112    0.0000 O   0  0  0  0  0  0  0  0  0  0  0  0
   10.6747   10.2772    0.0000 O   0  0  0  0  0  0  0  0  0  0  0  0
    4.6737    6.6200    0.0000 N   0  0  0  0  0  0  0  0  0  0  0  0
    5.5397    8.1200    0.0000 N   0  0  0  0  0  0  0  0  0  0  0  0
    4.6737    9.6200    0.0000 N   0  0  0  0  0  0  0  0  0  0  0  0
    6.4057    9.6200    0.0000 N   0  0  0  0  0  0  0  0  0  0  0  0
    2.8371   13.6145    0.0000 N   0  0  0  0  0  0  0  0  0  0  0  0
    1.8590   13.8224    0.0000 N   0  0  0  0  0  0  0  0  0  0  0  0
    0.3644   12.8519    0.0000 N   0  0  0  0  0  0  0  0  0  0  0  0
    3.8076    5.1200    0.0000 C   0  0  3  0  0  0  0  0  0  0  0  0
    2.9416    4.6200    0.0000 C   0  0  0  0  0  0  0  0  0  0  0  0
    3.8076    6.1200    0.0000 C   0  0  0  0  0  0  0  0  0  0  0  0
    4.6737    4.6200    0.0000 C   0  0  0  0  0  0  0  0  0  0  0  0
    2.9416    3.6200    0.0000 C   0  0  0  0  0  0  0  0  0  0  0  0
    2.0756    3.1200    0.0000 C   0  0  0  0  0  0  0  0  0  0  0  0
    3.8076    3.1200    0.0000 C   0  0  0  0  0  0  0  0  0  0  0  0
    2.0756    2.1200    0.0000 C   0  0  0  0  0  0  0  0  0  0  0  0
    3.8076    2.1200    0.0000 C   0  0  0  0  0  0  0  0  0  0  0  0
    2.9416    1.6200    0.0000 C   0  0  0  0  0  0  0  0  0  0  0  0
    4.6737    7.6200    0.0000 C   0  0  0  0  0  0  0  0  0  0  0  0
    2.9416    0.6200    0.0000 C   0  0  0  0  0  0  0  0  0  0  0  0
    3.8076   11.1200    0.0000 C   0  0  0  0  0  0  0  0  0  0  0  0
    4.6737   10.6200    0.0000 C   0  0  0  0  0  0  0  0  0  0  0  0
    3.8076   12.1200    0.0000 C   0  0  0  0  0  0  0  0  0  0  0  0
    5.5397    9.1200    0.0000 C   0  0  0  0  0  0  0  0  0  0  0  0
    2.9416   12.6200    0.0000 C   0  0  0  0  0  0  0  0  0  0  0  0
    1.3590   12.9564    0.0000 C   0  0  0  0  0  0  0  0  0  0  0  0
    9.8087    4.4112    0.0000 C   0  0  0  0  0  0  0  0  0  0  0  0
    9.8087    8.7772    0.0000 C   0  0  0  0  0  0  0  0  0  0  0  0
   10.6747    4.9112    0.0000 C   0  0  0  0  0  0  0  0  0  0  0  0
   10.6747    9.2772    0.0000 C   0  0  0  0  0  0  0  0  0  0  0  0
    3.8076    4.5000    0.0000 H   0  0  0  0  0  0  0  0  0  0  0  0
    2.7296    5.2026    0.0000 H   0  0  0  0  0  0  0  0  0  0  0  0
    2.3310    4.5123    0.0000 H   0  0  0  0  0  0  0  0  0  0  0  0
    3.5956    6.7026    0.0000 H   0  0  0  0  0  0  0  0  0  0  0  0
    3.1971    6.0123    0.0000 H   0  0  0  0  0  0  0  0  0  0  0  0
    4.3637    4.0831    0.0000 H   0  0  0  0  0  0  0  0  0  0  0  0
    5.2106    4.3100    0.0000 H   0  0  0  0  0  0  0  0  0  0  0  0
    4.9837    5.1569    0.0000 H   0  0  0  0  0  0  0  0  0  0  0  0
    5.2106    6.3100    0.0000 H   0  0  0  0  0  0  0  0  0  0  0  0
    1.5387    3.4300    0.0000 H   0  0  0  0  0  0  0  0  0  0  0  0
    4.3446    3.4300    0.0000 H   0  0  0  0  0  0  0  0  0  0  0  0
    1.5387    1.8100    0.0000 H   0  0  0  0  0  0  0  0  0  0  0  0
    4.3446    1.8100    0.0000 H   0  0  0  0  0  0  0  0  0  0  0  0
    2.3216    0.6200    0.0000 H   0  0  0  0  0  0  0  0  0  0  0  0
    2.9416    0.0000    0.0000 H   0  0  0  0  0  0  0  0  0  0  0  0
    3.5616    0.6200    0.0000 H   0  0  0  0  0  0  0  0  0  0  0  0
    6.0766    7.8100    0.0000 H   0  0  0  0  0  0  0  0  0  0  0  0
    3.1971   11.2277    0.0000 H   0  0  0  0  0  0  0  0  0  0  0  0
    3.5956   10.5374    0.0000 H   0  0  0  0  0  0  0  0  0  0  0  0
    5.2843   10.5123    0.0000 H   0  0  0  0  0  0  0  0  0  0  0  0
    4.8857   11.2026    0.0000 H   0  0  0  0  0  0  0  0  0  0  0  0
    4.4182   12.0123    0.0000 H   0  0  0  0  0  0  0  0  0  0  0  0
    4.0197   12.7026    0.0000 H   0  0  0  0  0  0  0  0  0  0  0  0
    6.4057   10.2400    0.0000 H   0  0  0  0  0  0  0  0  0  0  0  0
    6.9427    9.3100    0.0000 H   0  0  0  0  0  0  0  0  0  0  0  0
    0.0000   13.3535    0.0000 H   0  0  0  0  0  0  0  0  0  0  0  0
    0.1122   12.2855    0.0000 H   0  0  0  0  0  0  0  0  0  0  0  0
   12.0777    4.7212    0.0000 H   0  0  0  0  0  0  0  0  0  0  0  0
   12.0777    9.0872    0.0000 H   0  0  0  0  0  0  0  0  0  0  0  0
  1 36  1  0  0  0  0
  1 37  1  0  0  0  0
  2 38  1  0  0  0  0
  3 38  1  0  0  0  0
  4 38  1  0  0  0  0
  5 39  1  0  0  0  0
  6 39  1  0  0  0  0
  7 39  1  0  0  0  0
  8 30  2  0  0  0  0
  9 40  1  0  0  0  0
  9 69  1  0  0  0  0
 10 41  1  0  0  0  0
 10 70  1  0  0  0  0
 11 40  2  0  0  0  0
 12 41  2  0  0  0  0
 13 22  1  0  0  0  0
 13 30  1  0  0  0  0
 13 50  1  0  0  0  0
 14 30  1  0  0  0  0
 14 35  1  0  0  0  0
 14 58  1  0  0  0  0
 15 33  1  0  0  0  0
 15 35  2  0  0  0  0
 16 35  1  0  0  0  0
 16 65  1  0  0  0  0
 16 66  1  0  0  0  0
 17 18  1  0  0  0  0
 17 36  2  0  0  0  0
 18 37  2  0  0  0  0
 19 37  1  0  0  0  0
 19 67  1  0  0  0  0
 19 68  1  0  0  0  0
 20 21  1  0  0  0  0
 20 22  1  0  0  0  0
 20 23  1  0  0  0  0
 20 42  1  0  0  0  0
 21 24  1  0  0  0  0
 21 43  1  0  0  0  0
 21 44  1  0  0  0  0
 22 45  1  0  0  0  0
 22 46  1  0  0  0  0
 23 47  1  0  0  0  0
 23 48  1  0  0  0  0
 23 49  1  0  0  0  0
 24 25  2  0  0  0  0
 24 26  1  0  0  0  0
 25 27  1  0  0  0  0
 25 51  1  0  0  0  0
 26 28  2  0  0  0  0
 26 52  1  0  0  0  0
 27 29  2  0  0  0  0
 27 53  1  0  0  0  0
 28 29  1  0  0  0  0
 28 54  1  0  0  0  0
 29 31  1  0  0  0  0
 31 55  1  0  0  0  0
 31 56  1  0  0  0  0
 31 57  1  0  0  0  0
 32 33  1  0  0  0  0
 32 34  1  0  0  0  0
 32 59  1  0  0  0  0
 32 60  1  0  0  0  0
 33 61  1  0  0  0  0
 33 62  1  0  0  0  0
 34 36  1  0  0  0  0
 34 63  1  0  0  0  0
 34 64  1  0  0  0  0
 38 40  1  0  0  0  0
 39 41  1  0  0  0  0
M  END
> <PUBCHEM_COMPOUND_CID>
168271877

> <PUBCHEM_COMPOUND_CANONICALIZED>
1

> <PUBCHEM_CACTVS_COMPLEXITY>
566

> <PUBCHEM_CACTVS_HBOND_ACCEPTOR>
16

> <PUBCHEM_CACTVS_HBOND_DONOR>
6

> <PUBCHEM_CACTVS_ROTATABLE_BOND>
9

> <PUBCHEM_CACTVS_SUBSKEYS>
AAADceB7ucBAAAAAAAAAAAAAAAAAAWAAAAAwAAAAAAAAAAABwAAAHwQYCAAADQDB2hQzGILAAgiuAiDyPAASAINgABEdiIA4AIiIICKgkRCEIAA4nwIIiAcQgMAOQAAAAAAAAACAAAAAAAAAAAAAAAAAAA==

> <PUBCHEM_IUPAC_OPENEYE_NAME>
1-[N'-[3-(5-amino-1,3,4-thiadiazol-2-yl)propyl]carbamimidoyl]-3-[2-methyl-3-(p-tolyl)propyl]urea;2,2,2-trifluoroacetic acid

> <PUBCHEM_IUPAC_CAS_NAME>
1-[amino-[3-(5-amino-1,3,4-thiadiazol-2-yl)propylimino]methyl]-3-[2-methyl-3-(4-methylphenyl)propyl]urea;2,2,2-trifluoroacetic acid

> <PUBCHEM_IUPAC_NAME_MARKUP>
1-[<I>N</I>&apos;-[3-(5-amino-1,3,4-thiadiazol-2-yl)propyl]carbamimidoyl]-3-[2-methyl-3-(4-methylphenyl)propyl]urea;2,2,2-trifluoroacetic acid

> <PUBCHEM_IUPAC_NAME>
1-[N'-[3-(5-amino-1,3,4-thiadiazol-2-yl)propyl]carbamimidoyl]-3-[2-methyl-3-(4-methylphenyl)propyl]urea;2,2,2-trifluoroacetic acid

> <PUBCHEM_IUPAC_SYSTEMATIC_NAME>
1-[N'-[3-(5-azanyl-1,3,4-thiadiazol-2-yl)propyl]carbamimidoyl]-3-[2-methyl-3-(4-methylphenyl)propyl]urea;2,2,2-tris(fluoranyl)ethanoic acid

> <PUBCHEM_IUPAC_TRADITIONAL_NAME>
1-[N'-[3-(5-amino-1,3,4-thiadiazol-2-yl)propyl]amidino]-3-[2-methyl-3-(p-tolyl)propyl]urea;2,2,2-trifluoroacetic acid

> <PUBCHEM_IUPAC_INCHI>
InChI=1S/C18H27N7OS.2C2HF3O2/c1-12-5-7-14(8-6-12)10-13(2)11-22-18(26)23-16(19)21-9-3-4-15-24-25-17(20)27-15;2*3-2(4,5)1(6)7/h5-8,13H,3-4,9-11H2,1-2H3,(H2,20,25)(H4,19,21,22,23,26);2*(H,6,7)

> <PUBCHEM_IUPAC_INCHIKEY>
WSLRCNVNYUERND-UHFFFAOYSA-N

> <PUBCHEM_EXACT_MASS>
617.18550720

> <PUBCHEM_MOLECULAR_FORMULA>
C22H29F6N7O5S

> <PUBCHEM_MOLECULAR_WEIGHT>
617.6

> <PUBCHEM_OPENEYE_CAN_SMILES>
CC1=CC=C(C=C1)CC(C)CNC(=O)NC(=NCCCC2=NN=C(S2)N)N.C(=O)(C(F)(F)F)O.C(=O)(C(F)(F)F)O

> <PUBCHEM_OPENEYE_ISO_SMILES>
CC1=CC=C(C=C1)CC(C)CNC(=O)NC(=NCCCC2=NN=C(S2)N)N.C(=O)(C(F)(F)F)O.C(=O)(C(F)(F)F)O

> <PUBCHEM_CACTVS_TPSA>
234

> <PUBCHEM_MONOISOTOPIC_WEIGHT>
617.18550720

> <PUBCHEM_TOTAL_CHARGE>
0

> <PUBCHEM_HEAVY_ATOM_COUNT>
41

> <PUBCHEM_ATOM_DEF_STEREO_COUNT>
0

> <PUBCHEM_ATOM_UDEF_STEREO_COUNT>
1

> <PUBCHEM_BOND_DEF_STEREO_COUNT>
0

> <PUBCHEM_BOND_UDEF_STEREO_COUNT>
0

> <PUBCHEM_ISOTOPIC_ATOM_COUNT>
0

> <PUBCHEM_COMPONENT_COUNT>
3

> <PUBCHEM_CACTVS_TAUTO_COUNT>
-1

> <PUBCHEM_COORDINATE_TYPE>
1
5
255

> <PUBCHEM_BONDANNOTATIONS>
1  36  8
1  37  8
17  18  8
17  36  8
18  37  8
20  23  3
24  25  8
24  26  8
25  27  8
26  28  8
27  29  8
28  29  8

$$$$
