137657951
  -OEChem-09292322012D

 36 38  0     0  0  0  0  0  0999 V2000
    4.6260   -0.3103    0.0000 O   0  0  0  0  0  0  0  0  0  0  0  0
    2.8660   -3.3450    0.0000 O   0  0  0  0  0  0  0  0  0  0  0  0
    6.3961   -2.3692    0.0000 O   0  0  0  0  0  0  0  0  0  0  0  0
    2.8660    0.6550    0.0000 N   0  0  0  0  0  0  0  0  0  0  0  0
    2.8660    2.6550    0.0000 N   0  0  0  0  0  0  0  0  0  0  0  0
    4.6260   -2.3797    0.0000 N   0  0  0  0  0  0  0  0  0  0  0  0
    3.7320    1.1550    0.0000 C   0  0  0  0  0  0  0  0  0  0  0  0
    2.0000    1.1550    0.0000 C   0  0  0  0  0  0  0  0  0  0  0  0
    3.7320    2.1550    0.0000 C   0  0  0  0  0  0  0  0  0  0  0  0
    2.0000    2.1550    0.0000 C   0  0  0  0  0  0  0  0  0  0  0  0
    2.8660   -0.3450    0.0000 C   0  0  0  0  0  0  0  0  0  0  0  0
    3.7320   -0.8450    0.0000 C   0  0  0  0  0  0  0  0  0  0  0  0
    2.8660    3.6550    0.0000 C   0  0  0  0  0  0  0  0  0  0  0  0
    2.0000   -0.8450    0.0000 C   0  0  0  0  0  0  0  0  0  0  0  0
    3.7320   -1.8450    0.0000 C   0  0  0  0  0  0  0  0  0  0  0  0
    2.8660   -2.3450    0.0000 C   0  0  0  0  0  0  0  0  0  0  0  0
    2.0000   -1.8450    0.0000 C   0  0  0  0  0  0  0  0  0  0  0  0
    5.5321   -0.8242    0.0000 C   0  0  0  0  0  0  0  0  0  0  0  0
    5.5321   -1.8658    0.0000 C   0  0  0  0  0  0  0  0  0  0  0  0
    3.9441    0.5724    0.0000 H   0  0  0  0  0  0  0  0  0  0  0  0
    4.3426    1.2627    0.0000 H   0  0  0  0  0  0  0  0  0  0  0  0
    1.3894    1.2627    0.0000 H   0  0  0  0  0  0  0  0  0  0  0  0
    1.7880    0.5724    0.0000 H   0  0  0  0  0  0  0  0  0  0  0  0
    4.3426    2.0473    0.0000 H   0  0  0  0  0  0  0  0  0  0  0  0
    3.9441    2.7376    0.0000 H   0  0  0  0  0  0  0  0  0  0  0  0
    1.7880    2.7376    0.0000 H   0  0  0  0  0  0  0  0  0  0  0  0
    1.3894    2.0473    0.0000 H   0  0  0  0  0  0  0  0  0  0  0  0
    3.4860    3.6550    0.0000 H   0  0  0  0  0  0  0  0  0  0  0  0
    2.8660    4.2750    0.0000 H   0  0  0  0  0  0  0  0  0  0  0  0
    2.2460    3.6550    0.0000 H   0  0  0  0  0  0  0  0  0  0  0  0
    1.4631   -0.5350    0.0000 H   0  0  0  0  0  0  0  0  0  0  0  0
    1.4631   -2.1550    0.0000 H   0  0  0  0  0  0  0  0  0  0  0  0
    4.6188   -2.9996    0.0000 H   0  0  0  0  0  0  0  0  0  0  0  0
    6.1429   -0.9303    0.0000 H   0  0  0  0  0  0  0  0  0  0  0  0
    5.7411   -0.2405    0.0000 H   0  0  0  0  0  0  0  0  0  0  0  0
    2.3291   -3.6550    0.0000 H   0  0  0  0  0  0  0  0  0  0  0  0
  1 12  1  0  0  0  0
  1 18  1  0  0  0  0
  2 16  1  0  0  0  0
  2 36  1  0  0  0  0
  3 19  2  0  0  0  0
  4  7  1  0  0  0  0
  4  8  1  0  0  0  0
  4 11  1  0  0  0  0
  5  9  1  0  0  0  0
  5 10  1  0  0  0  0
  5 13  1  0  0  0  0
  6 15  1  0  0  0  0
  6 19  1  0  0  0  0
  6 33  1  0  0  0  0
  7  9  1  0  0  0  0
  7 20  1  0  0  0  0
  7 21  1  0  0  0  0
  8 10  1  0  0  0  0
  8 22  1  0  0  0  0
  8 23  1  0  0  0  0
  9 24  1  0  0  0  0
  9 25  1  0  0  0  0
 10 26  1  0  0  0  0
 10 27  1  0  0  0  0
 11 12  2  0  0  0  0
 11 14  1  0  0  0  0
 12 15  1  0  0  0  0
 13 28  1  0  0  0  0
 13 29  1  0  0  0  0
 13 30  1  0  0  0  0
 14 17  2  0  0  0  0
 14 31  1  0  0  0  0
 15 16  2  0  0  0  0
 16 17  1  0  0  0  0
 17 32  1  0  0  0  0
 18 19  1  0  0  0  0
 18 34  1  0  0  0  0
 18 35  1  0  0  0  0
M  END
> <PUBCHEM_COMPOUND_CID>
137657951

> <PUBCHEM_COMPOUND_CANONICALIZED>
1

> <PUBCHEM_CACTVS_COMPLEXITY>
344

> <PUBCHEM_CACTVS_HBOND_ACCEPTOR>
5

> <PUBCHEM_CACTVS_HBOND_DONOR>
2

> <PUBCHEM_CACTVS_ROTATABLE_BOND>
1

> <PUBCHEM_CACTVS_SUBSKEYS>
AAADceBzMAAAAAAAAAAAAAAAAAAAAAAAAAA8WIAAAAAAAACxAAAAHgAQCAAACAzhkAYyxoPABgCIACVSUAKCCAAhIgAIiABPbIgOZyLW8N+XeCjl1BXY+AewYAwAAEAACAQAEAAAgAAQCAAgAAAAAAAAAA==

> <PUBCHEM_IUPAC_OPENEYE_NAME>
5-hydroxy-8-(4-methylpiperazin-1-yl)-4H-1,4-benzoxazin-3-one

> <PUBCHEM_IUPAC_CAS_NAME>
5-hydroxy-8-(4-methyl-1-piperazinyl)-4H-1,4-benzoxazin-3-one

> <PUBCHEM_IUPAC_NAME_MARKUP>
5-hydroxy-8-(4-methylpiperazin-1-yl)-4<I>H</I>-1,4-benzoxazin-3-one

> <PUBCHEM_IUPAC_NAME>
5-hydroxy-8-(4-methylpiperazin-1-yl)-4H-1,4-benzoxazin-3-one

> <PUBCHEM_IUPAC_SYSTEMATIC_NAME>
8-(4-methylpiperazin-1-yl)-5-oxidanyl-4H-1,4-benzoxazin-3-one

> <PUBCHEM_IUPAC_TRADITIONAL_NAME>
5-hydroxy-8-(4-methylpiperazino)-4H-1,4-benzoxazin-3-one

> <PUBCHEM_IUPAC_INCHI>
InChI=1S/C13H17N3O3/c1-15-4-6-16(7-5-15)9-2-3-10(17)12-13(9)19-8-11(18)14-12/h2-3,17H,4-8H2,1H3,(H,14,18)

> <PUBCHEM_IUPAC_INCHIKEY>
MZFAZCYLMYZDDU-UHFFFAOYSA-N

> <PUBCHEM_XLOGP3_AA>
0.5

> <PUBCHEM_EXACT_MASS>
263.12699141

> <PUBCHEM_MOLECULAR_FORMULA>
C13H17N3O3

> <PUBCHEM_MOLECULAR_WEIGHT>
263.29

> <PUBCHEM_OPENEYE_CAN_SMILES>
CN1CCN(CC1)C2=C3C(=C(C=C2)O)NC(=O)CO3

> <PUBCHEM_OPENEYE_ISO_SMILES>
CN1CCN(CC1)C2=C3C(=C(C=C2)O)NC(=O)CO3

> <PUBCHEM_CACTVS_TPSA>
65

> <PUBCHEM_MONOISOTOPIC_WEIGHT>
263.12699141

> <PUBCHEM_TOTAL_CHARGE>
0

> <PUBCHEM_HEAVY_ATOM_COUNT>
19

> <PUBCHEM_ATOM_DEF_STEREO_COUNT>
0

> <PUBCHEM_ATOM_UDEF_STEREO_COUNT>
0

> <PUBCHEM_BOND_DEF_STEREO_COUNT>
0

> <PUBCHEM_BOND_UDEF_STEREO_COUNT>
0

> <PUBCHEM_ISOTOPIC_ATOM_COUNT>
0

> <PUBCHEM_COMPONENT_COUNT>
1

> <PUBCHEM_CACTVS_TAUTO_COUNT>
-1

> <PUBCHEM_COORDINATE_TYPE>
1
5
255

> <PUBCHEM_BONDANNOTATIONS>
11  12  8
11  14  8
12  15  8
14  17  8
15  16  8
16  17  8

$$$$
