44350679
  -OEChem-09292322122D

 64 66  0     0  0  0  0  0  0999 V2000
   10.7988    1.4030    0.0000 O   0  0  0  0  0  0  0  0  0  0  0  0
    3.5259    6.6223    0.0000 O   0  0  0  0  0  0  0  0  0  0  0  0
    3.5259    3.1118    0.0000 O   0  0  0  0  0  0  0  0  0  0  0  0
    8.0084    9.6210    0.0000 O   0  0  0  0  0  0  0  0  0  0  0  0
    5.4104   10.1210    0.0000 O   0  0  0  0  0  0  0  0  0  0  0  0
    7.1424   11.1210    0.0000 O   0  0  0  0  0  0  0  0  0  0  0  0
    6.2764    8.6210    0.0000 O   0  0  0  0  0  0  0  0  0  0  0  0
    7.7988    3.1350    0.0000 N   0  0  0  0  0  0  0  0  0  0  0  0
    9.7988    3.1350    0.0000 N   0  0  0  0  0  0  0  0  0  0  0  0
    3.7988    4.8671    0.0000 N   0  0  0  0  0  0  0  0  0  0  0  0
    8.2988    2.2690    0.0000 C   0  0  0  0  0  0  0  0  0  0  0  0
    8.2988    4.0010    0.0000 C   0  0  0  0  0  0  0  0  0  0  0  0
    9.2988    2.2690    0.0000 C   0  0  0  0  0  0  0  0  0  0  0  0
    9.2988    4.0010    0.0000 C   0  0  0  0  0  0  0  0  0  0  0  0
    6.7988    3.1350    0.0000 C   0  0  0  0  0  0  0  0  0  0  0  0
    6.2988    4.0010    0.0000 C   0  0  0  0  0  0  0  0  0  0  0  0
    5.2988    4.0010    0.0000 C   0  0  0  0  0  0  0  0  0  0  0  0
   10.7988    3.1350    0.0000 C   0  0  0  0  0  0  0  0  0  0  0  0
    4.7988    4.8671    0.0000 C   0  0  0  0  0  0  0  0  0  0  0  0
   11.2988    2.2690    0.0000 C   0  0  0  0  0  0  0  0  0  0  0  0
   11.2988    4.0010    0.0000 C   0  0  0  0  0  0  0  0  0  0  0  0
    3.2152    5.6718    0.0000 C   0  0  0  0  0  0  0  0  0  0  0  0
    3.2152    4.0623    0.0000 C   0  0  0  0  0  0  0  0  0  0  0  0
    2.2690    5.3671    0.0000 C   0  0  0  0  0  0  0  0  0  0  0  0
    2.2690    4.3671    0.0000 C   0  0  0  0  0  0  0  0  0  0  0  0
   12.2988    2.2690    0.0000 C   0  0  0  0  0  0  0  0  0  0  0  0
   12.2988    4.0010    0.0000 C   0  0  0  0  0  0  0  0  0  0  0  0
   12.7988    3.1350    0.0000 C   0  0  0  0  0  0  0  0  0  0  0  0
    1.4030    5.8671    0.0000 C   0  0  0  0  0  0  0  0  0  0  0  0
    1.4030    3.8671    0.0000 C   0  0  0  0  0  0  0  0  0  0  0  0
    0.5369    5.3671    0.0000 C   0  0  0  0  0  0  0  0  0  0  0  0
    0.5369    4.3671    0.0000 C   0  0  0  0  0  0  0  0  0  0  0  0
   11.2988    0.5369    0.0000 C   0  0  0  0  0  0  0  0  0  0  0  0
    7.1424   10.1210    0.0000 C   0  0  0  0  0  0  0  0  0  0  0  0
    6.2764    9.6210    0.0000 C   0  0  0  0  0  0  0  0  0  0  0  0
    7.7162    2.0569    0.0000 H   0  0  0  0  0  0  0  0  0  0  0  0
    8.4065    1.6584    0.0000 H   0  0  0  0  0  0  0  0  0  0  0  0
    8.4065    4.6116    0.0000 H   0  0  0  0  0  0  0  0  0  0  0  0
    7.7162    4.2131    0.0000 H   0  0  0  0  0  0  0  0  0  0  0  0
    9.1912    1.6584    0.0000 H   0  0  0  0  0  0  0  0  0  0  0  0
    9.8814    2.0569    0.0000 H   0  0  0  0  0  0  0  0  0  0  0  0
    9.8814    4.2131    0.0000 H   0  0  0  0  0  0  0  0  0  0  0  0
    9.1912    4.6116    0.0000 H   0  0  0  0  0  0  0  0  0  0  0  0
    6.2162    2.9230    0.0000 H   0  0  0  0  0  0  0  0  0  0  0  0
    6.9065    2.5244    0.0000 H   0  0  0  0  0  0  0  0  0  0  0  0
    6.8814    4.2131    0.0000 H   0  0  0  0  0  0  0  0  0  0  0  0
    6.1912    4.6116    0.0000 H   0  0  0  0  0  0  0  0  0  0  0  0
    4.7162    3.7890    0.0000 H   0  0  0  0  0  0  0  0  0  0  0  0
    5.4065    3.3905    0.0000 H   0  0  0  0  0  0  0  0  0  0  0  0
    5.3814    5.0791    0.0000 H   0  0  0  0  0  0  0  0  0  0  0  0
    4.6912    5.4776    0.0000 H   0  0  0  0  0  0  0  0  0  0  0  0
   10.9888    4.5380    0.0000 H   0  0  0  0  0  0  0  0  0  0  0  0
   12.6088    1.7320    0.0000 H   0  0  0  0  0  0  0  0  0  0  0  0
   12.6088    4.5380    0.0000 H   0  0  0  0  0  0  0  0  0  0  0  0
   13.4188    3.1350    0.0000 H   0  0  0  0  0  0  0  0  0  0  0  0
    1.4030    6.4871    0.0000 H   0  0  0  0  0  0  0  0  0  0  0  0
    1.4030    3.2471    0.0000 H   0  0  0  0  0  0  0  0  0  0  0  0
    0.0000    5.6771    0.0000 H   0  0  0  0  0  0  0  0  0  0  0  0
    0.0000    4.0571    0.0000 H   0  0  0  0  0  0  0  0  0  0  0  0
   10.7619    0.2269    0.0000 H   0  0  0  0  0  0  0  0  0  0  0  0
   11.6088    0.0000    0.0000 H   0  0  0  0  0  0  0  0  0  0  0  0
   11.8358    0.8469    0.0000 H   0  0  0  0  0  0  0  0  0  0  0  0
    8.5454    9.9310    0.0000 H   0  0  0  0  0  0  0  0  0  0  0  0
    4.8734    9.8110    0.0000 H   0  0  0  0  0  0  0  0  0  0  0  0
  1 20  1  0  0  0  0
  1 33  1  0  0  0  0
  2 22  2  0  0  0  0
  3 23  2  0  0  0  0
  4 34  1  0  0  0  0
  4 63  1  0  0  0  0
  5 35  1  0  0  0  0
  5 64  1  0  0  0  0
  6 34  2  0  0  0  0
  7 35  2  0  0  0  0
  8 11  1  0  0  0  0
  8 12  1  0  0  0  0
  8 15  1  0  0  0  0
  9 13  1  0  0  0  0
  9 14  1  0  0  0  0
  9 18  1  0  0  0  0
 10 19  1  0  0  0  0
 10 22  1  0  0  0  0
 10 23  1  0  0  0  0
 11 13  1  0  0  0  0
 11 36  1  0  0  0  0
 11 37  1  0  0  0  0
 12 14  1  0  0  0  0
 12 38  1  0  0  0  0
 12 39  1  0  0  0  0
 13 40  1  0  0  0  0
 13 41  1  0  0  0  0
 14 42  1  0  0  0  0
 14 43  1  0  0  0  0
 15 16  1  0  0  0  0
 15 44  1  0  0  0  0
 15 45  1  0  0  0  0
 16 17  1  0  0  0  0
 16 46  1  0  0  0  0
 16 47  1  0  0  0  0
 17 19  1  0  0  0  0
 17 48  1  0  0  0  0
 17 49  1  0  0  0  0
 18 20  1  0  0  0  0
 18 21  2  0  0  0  0
 19 50  1  0  0  0  0
 19 51  1  0  0  0  0
 20 26  2  0  0  0  0
 21 27  1  0  0  0  0
 21 52  1  0  0  0  0
 22 24  1  0  0  0  0
 23 25  1  0  0  0  0
 24 25  1  0  0  0  0
 24 29  2  0  0  0  0
 25 30  2  0  0  0  0
 26 28  1  0  0  0  0
 26 53  1  0  0  0  0
 27 28  2  0  0  0  0
 27 54  1  0  0  0  0
 28 55  1  0  0  0  0
 29 31  1  0  0  0  0
 29 56  1  0  0  0  0
 30 32  1  0  0  0  0
 30 57  1  0  0  0  0
 31 32  2  0  0  0  0
 31 58  1  0  0  0  0
 32 59  1  0  0  0  0
 33 60  1  0  0  0  0
 33 61  1  0  0  0  0
 33 62  1  0  0  0  0
 34 35  1  0  0  0  0
M  END
> <PUBCHEM_COMPOUND_CID>
44350679

> <PUBCHEM_COMPOUND_CANONICALIZED>
1

> <PUBCHEM_CACTVS_COMPLEXITY>
623

> <PUBCHEM_CACTVS_HBOND_ACCEPTOR>
9

> <PUBCHEM_CACTVS_HBOND_DONOR>
2

> <PUBCHEM_CACTVS_ROTATABLE_BOND>
8

> <PUBCHEM_CACTVS_SUBSKEYS>
AAADceB7OAAAAAAAAAAAAAAAAAAAAWAAAAA8YIAAAAAAAFgBQAAAHgAACAAADAzBmAYyzoMABgCIAiXSWAKCCAAlIgAIiAFPbMgPZjLEtZuVMShkxjHZ6YedyICOgAAAAAAQEAAAAAAAACAgAAAAAAAAAA==

> <PUBCHEM_IUPAC_OPENEYE_NAME>
2-[4-[4-(2-methoxyphenyl)piperazin-1-yl]butyl]isoindoline-1,3-dione;oxalic acid

> <PUBCHEM_IUPAC_CAS_NAME>
2-[4-[4-(2-methoxyphenyl)-1-piperazinyl]butyl]isoindole-1,3-dione;oxalic acid

> <PUBCHEM_IUPAC_NAME_MARKUP>
2-[4-[4-(2-methoxyphenyl)piperazin-1-yl]butyl]isoindole-1,3-dione;oxalic acid

> <PUBCHEM_IUPAC_NAME>
2-[4-[4-(2-methoxyphenyl)piperazin-1-yl]butyl]isoindole-1,3-dione;oxalic acid

> <PUBCHEM_IUPAC_SYSTEMATIC_NAME>
ethanedioic acid;2-[4-[4-(2-methoxyphenyl)piperazin-1-yl]butyl]isoindole-1,3-dione

> <PUBCHEM_IUPAC_TRADITIONAL_NAME>
2-[4-[4-(2-methoxyphenyl)piperazino]butyl]isoindoline-1,3-quinone;oxalic acid

> <PUBCHEM_IUPAC_INCHI>
InChI=1S/C23H27N3O3.C2H2O4/c1-29-21-11-5-4-10-20(21)25-16-14-24(15-17-25)12-6-7-13-26-22(27)18-8-2-3-9-19(18)23(26)28;3-1(4)2(5)6/h2-5,8-11H,6-7,12-17H2,1H3;(H,3,4)(H,5,6)

> <PUBCHEM_IUPAC_INCHIKEY>
FJEULEYUVHBLOR-UHFFFAOYSA-N

> <PUBCHEM_EXACT_MASS>
483.20055027

> <PUBCHEM_MOLECULAR_FORMULA>
C25H29N3O7

> <PUBCHEM_MOLECULAR_WEIGHT>
483.5

> <PUBCHEM_OPENEYE_CAN_SMILES>
COC1=CC=CC=C1N2CCN(CC2)CCCCN3C(=O)C4=CC=CC=C4C3=O.C(=O)(C(=O)O)O

> <PUBCHEM_OPENEYE_ISO_SMILES>
COC1=CC=CC=C1N2CCN(CC2)CCCCN3C(=O)C4=CC=CC=C4C3=O.C(=O)(C(=O)O)O

> <PUBCHEM_CACTVS_TPSA>
128

> <PUBCHEM_MONOISOTOPIC_WEIGHT>
483.20055027

> <PUBCHEM_TOTAL_CHARGE>
0

> <PUBCHEM_HEAVY_ATOM_COUNT>
35

> <PUBCHEM_ATOM_DEF_STEREO_COUNT>
0

> <PUBCHEM_ATOM_UDEF_STEREO_COUNT>
0

> <PUBCHEM_BOND_DEF_STEREO_COUNT>
0

> <PUBCHEM_BOND_UDEF_STEREO_COUNT>
0

> <PUBCHEM_ISOTOPIC_ATOM_COUNT>
0

> <PUBCHEM_COMPONENT_COUNT>
2

> <PUBCHEM_CACTVS_TAUTO_COUNT>
-1

> <PUBCHEM_COORDINATE_TYPE>
1
5
255

> <PUBCHEM_BONDANNOTATIONS>
18  20  8
18  21  8
20  26  8
21  27  8
24  25  8
24  29  8
25  30  8
26  28  8
27  28  8
29  31  8
30  32  8
31  32  8

$$$$
