117870413
  -OEChem-09292322472D

 63 67  0     0  0  0  0  0  0999 V2000
    6.8981   -5.5819    0.0000 F   0  0  0  0  0  0  0  0  0  0  0  0
    7.2641   -6.9479    0.0000 F   0  0  0  0  0  0  0  0  0  0  0  0
    5.8981   -7.3140    0.0000 F   0  0  0  0  0  0  0  0  0  0  0  0
    8.1301    2.5521    0.0000 O   0  0  0  0  0  0  0  0  0  0  0  0
    4.6660   -1.4479    0.0000 N   0  0  0  0  0  0  0  0  0  0  0  0
    4.6660   -3.4479    0.0000 N   0  0  0  0  0  0  0  0  0  0  0  0
    4.6660   -6.4479    0.0000 N   0  0  0  0  0  0  0  0  0  0  0  0
    6.3981    2.5521    0.0000 N   0  0  0  0  0  0  0  0  0  0  0  0
    6.7641    5.5819    0.0000 N   0  0  0  0  0  0  0  0  0  0  0  0
    8.0688    4.6357    0.0000 N   0  0  0  0  0  0  0  0  0  0  0  0
    5.5321   -1.9479    0.0000 C   0  0  0  0  0  0  0  0  0  0  0  0
    3.8000   -1.9479    0.0000 C   0  0  0  0  0  0  0  0  0  0  0  0
    5.5321   -2.9479    0.0000 C   0  0  0  0  0  0  0  0  0  0  0  0
    3.8000   -2.9479    0.0000 C   0  0  0  0  0  0  0  0  0  0  0  0
    4.6660   -0.4479    0.0000 C   0  0  0  0  0  0  0  0  0  0  0  0
    5.5321    0.0521    0.0000 C   0  0  0  0  0  0  0  0  0  0  0  0
    4.6660   -4.4479    0.0000 C   0  0  0  0  0  0  0  0  0  0  0  0
    5.5321    1.0521    0.0000 C   0  0  0  0  0  0  0  0  0  0  0  0
    3.8000   -4.9479    0.0000 C   0  0  0  0  0  0  0  0  0  0  0  0
    5.5321   -4.9479    0.0000 C   0  0  0  0  0  0  0  0  0  0  0  0
    6.3981    1.5521    0.0000 C   0  0  0  0  0  0  0  0  0  0  0  0
    3.8000   -5.9479    0.0000 C   0  0  0  0  0  0  0  0  0  0  0  0
    5.5321   -5.9479    0.0000 C   0  0  0  0  0  0  0  0  0  0  0  0
    2.9061   -4.4133    0.0000 C   0  0  0  0  0  0  0  0  0  0  0  0
    2.9061   -6.4826    0.0000 C   0  0  0  0  0  0  0  0  0  0  0  0
    2.0000   -4.9271    0.0000 C   0  0  0  0  0  0  0  0  0  0  0  0
    6.3981   -6.4479    0.0000 C   0  0  0  0  0  0  0  0  0  0  0  0
    2.0000   -5.9687    0.0000 C   0  0  0  0  0  0  0  0  0  0  0  0
    7.2641    3.0521    0.0000 C   0  0  0  0  0  0  0  0  0  0  0  0
    7.2641    4.0521    0.0000 C   0  0  0  0  0  0  0  0  0  0  0  0
    6.4594    4.6357    0.0000 C   0  0  0  0  0  0  0  0  0  0  0  0
    7.7641    5.5819    0.0000 C   0  0  0  0  0  0  0  0  0  0  0  0
    6.2641    6.4479    0.0000 C   0  0  0  0  0  0  0  0  0  0  0  0
    8.2641    6.4479    0.0000 C   0  0  0  0  0  0  0  0  0  0  0  0
    6.7641    7.3140    0.0000 C   0  0  0  0  0  0  0  0  0  0  0  0
    7.7641    7.3140    0.0000 C   0  0  0  0  0  0  0  0  0  0  0  0
    6.1426   -2.0556    0.0000 H   0  0  0  0  0  0  0  0  0  0  0  0
    5.7441   -1.3653    0.0000 H   0  0  0  0  0  0  0  0  0  0  0  0
    3.5880   -1.3653    0.0000 H   0  0  0  0  0  0  0  0  0  0  0  0
    3.1894   -2.0556    0.0000 H   0  0  0  0  0  0  0  0  0  0  0  0
    5.7441   -3.5305    0.0000 H   0  0  0  0  0  0  0  0  0  0  0  0
    6.1426   -2.8403    0.0000 H   0  0  0  0  0  0  0  0  0  0  0  0
    3.1894   -2.8403    0.0000 H   0  0  0  0  0  0  0  0  0  0  0  0
    3.5880   -3.5305    0.0000 H   0  0  0  0  0  0  0  0  0  0  0  0
    4.4540    0.1347    0.0000 H   0  0  0  0  0  0  0  0  0  0  0  0
    4.0555   -0.5556    0.0000 H   0  0  0  0  0  0  0  0  0  0  0  0
    5.7441   -0.5305    0.0000 H   0  0  0  0  0  0  0  0  0  0  0  0
    6.1426    0.1597    0.0000 H   0  0  0  0  0  0  0  0  0  0  0  0
    5.3200    1.6347    0.0000 H   0  0  0  0  0  0  0  0  0  0  0  0
    4.9215    0.9444    0.0000 H   0  0  0  0  0  0  0  0  0  0  0  0
    6.0690   -4.6379    0.0000 H   0  0  0  0  0  0  0  0  0  0  0  0
    6.6101    0.9695    0.0000 H   0  0  0  0  0  0  0  0  0  0  0  0
    7.0087    1.6597    0.0000 H   0  0  0  0  0  0  0  0  0  0  0  0
    2.9132   -3.7933    0.0000 H   0  0  0  0  0  0  0  0  0  0  0  0
    5.8612    2.8621    0.0000 H   0  0  0  0  0  0  0  0  0  0  0  0
    2.9132   -7.1026    0.0000 H   0  0  0  0  0  0  0  0  0  0  0  0
    1.4643   -4.6150    0.0000 H   0  0  0  0  0  0  0  0  0  0  0  0
    1.4643   -6.2808    0.0000 H   0  0  0  0  0  0  0  0  0  0  0  0
    5.8701    4.4431    0.0000 H   0  0  0  0  0  0  0  0  0  0  0  0
    5.6441    6.4479    0.0000 H   0  0  0  0  0  0  0  0  0  0  0  0
    8.8841    6.4479    0.0000 H   0  0  0  0  0  0  0  0  0  0  0  0
    6.4541    7.8509    0.0000 H   0  0  0  0  0  0  0  0  0  0  0  0
    8.0741    7.8509    0.0000 H   0  0  0  0  0  0  0  0  0  0  0  0
  1 27  1  0  0  0  0
  2 27  1  0  0  0  0
  3 27  1  0  0  0  0
  4 29  2  0  0  0  0
  5 11  1  0  0  0  0
  5 12  1  0  0  0  0
  5 15  1  0  0  0  0
  6 13  1  0  0  0  0
  6 14  1  0  0  0  0
  6 17  1  0  0  0  0
  7 22  1  0  0  0  0
  7 23  2  0  0  0  0
  8 21  1  0  0  0  0
  8 29  1  0  0  0  0
  8 55  1  0  0  0  0
  9 31  1  0  0  0  0
  9 32  1  0  0  0  0
  9 33  1  0  0  0  0
 10 30  1  0  0  0  0
 10 32  2  0  0  0  0
 11 13  1  0  0  0  0
 11 37  1  0  0  0  0
 11 38  1  0  0  0  0
 12 14  1  0  0  0  0
 12 39  1  0  0  0  0
 12 40  1  0  0  0  0
 13 41  1  0  0  0  0
 13 42  1  0  0  0  0
 14 43  1  0  0  0  0
 14 44  1  0  0  0  0
 15 16  1  0  0  0  0
 15 45  1  0  0  0  0
 15 46  1  0  0  0  0
 16 18  1  0  0  0  0
 16 47  1  0  0  0  0
 16 48  1  0  0  0  0
 17 19  1  0  0  0  0
 17 20  2  0  0  0  0
 18 21  1  0  0  0  0
 18 49  1  0  0  0  0
 18 50  1  0  0  0  0
 19 22  1  0  0  0  0
 19 24  2  0  0  0  0
 20 23  1  0  0  0  0
 20 51  1  0  0  0  0
 21 52  1  0  0  0  0
 21 53  1  0  0  0  0
 22 25  2  0  0  0  0
 23 27  1  0  0  0  0
 24 26  1  0  0  0  0
 24 54  1  0  0  0  0
 25 28  1  0  0  0  0
 25 56  1  0  0  0  0
 26 28  2  0  0  0  0
 26 57  1  0  0  0  0
 28 58  1  0  0  0  0
 29 30  1  0  0  0  0
 30 31  2  0  0  0  0
 31 59  1  0  0  0  0
 32 34  1  0  0  0  0
 33 35  2  0  0  0  0
 33 60  1  0  0  0  0
 34 36  2  0  0  0  0
 34 61  1  0  0  0  0
 35 36  1  0  0  0  0
 35 62  1  0  0  0  0
 36 63  1  0  0  0  0
M  END
> <PUBCHEM_COMPOUND_CID>
117870413

> <PUBCHEM_COMPOUND_CANONICALIZED>
1

> <PUBCHEM_CACTVS_COMPLEXITY>
731

> <PUBCHEM_CACTVS_HBOND_ACCEPTOR>
8

> <PUBCHEM_CACTVS_HBOND_DONOR>
1

> <PUBCHEM_CACTVS_ROTATABLE_BOND>
7

> <PUBCHEM_CACTVS_SUBSKEYS>
AAADceB7oYAAAAAAAAAAAAAAAAAAAWAAAAA8WLEAAAAAAFix/gAAHwAQAAAADAjBnxQ98P/MGACoAzd3dACCgC03EqAJ2KG4dNiIaOrA2fGUJIholgLIyOcQgIAOAAAAAAACAAAAAAAAAAQAAAAAAAAAAA==

> <PUBCHEM_IUPAC_OPENEYE_NAME>
N-[4-[4-[2-(trifluoromethyl)-4-quinolyl]piperazin-1-yl]butyl]imidazo[1,2-a]pyridine-2-carboxamide

> <PUBCHEM_IUPAC_CAS_NAME>
N-[4-[4-[2-(trifluoromethyl)-4-quinolinyl]-1-piperazinyl]butyl]-2-imidazo[1,2-a]pyridinecarboxamide

> <PUBCHEM_IUPAC_NAME_MARKUP>
<I>N</I>-[4-[4-[2-(trifluoromethyl)quinolin-4-yl]piperazin-1-yl]butyl]imidazo[1,2-a]pyridine-2-carboxamide

> <PUBCHEM_IUPAC_NAME>
N-[4-[4-[2-(trifluoromethyl)quinolin-4-yl]piperazin-1-yl]butyl]imidazo[1,2-a]pyridine-2-carboxamide

> <PUBCHEM_IUPAC_SYSTEMATIC_NAME>
N-[4-[4-[2-(trifluoromethyl)quinolin-4-yl]piperazin-1-yl]butyl]imidazo[1,2-a]pyridine-2-carboxamide

> <PUBCHEM_IUPAC_TRADITIONAL_NAME>
N-[4-[4-[2-(trifluoromethyl)-4-quinolyl]piperazino]butyl]imidazo[1,2-a]pyridine-2-carboxamide

> <PUBCHEM_IUPAC_INCHI>
InChI=1S/C26H27F3N6O/c27-26(28,29)23-17-22(19-7-1-2-8-20(19)31-23)34-15-13-33(14-16-34)11-6-4-10-30-25(36)21-18-35-12-5-3-9-24(35)32-21/h1-3,5,7-9,12,17-18H,4,6,10-11,13-16H2,(H,30,36)

> <PUBCHEM_IUPAC_INCHIKEY>
SJNLUIGGLBDGFM-UHFFFAOYSA-N

> <PUBCHEM_XLOGP3_AA>
4.9

> <PUBCHEM_EXACT_MASS>
496.21984399

> <PUBCHEM_MOLECULAR_FORMULA>
C26H27F3N6O

> <PUBCHEM_MOLECULAR_WEIGHT>
496.5

> <PUBCHEM_OPENEYE_CAN_SMILES>
C1CN(CCN1CCCCNC(=O)C2=CN3C=CC=CC3=N2)C4=CC(=NC5=CC=CC=C54)C(F)(F)F

> <PUBCHEM_OPENEYE_ISO_SMILES>
C1CN(CCN1CCCCNC(=O)C2=CN3C=CC=CC3=N2)C4=CC(=NC5=CC=CC=C54)C(F)(F)F

> <PUBCHEM_CACTVS_TPSA>
65.8

> <PUBCHEM_MONOISOTOPIC_WEIGHT>
496.21984399

> <PUBCHEM_TOTAL_CHARGE>
0

> <PUBCHEM_HEAVY_ATOM_COUNT>
36

> <PUBCHEM_ATOM_DEF_STEREO_COUNT>
0

> <PUBCHEM_ATOM_UDEF_STEREO_COUNT>
0

> <PUBCHEM_BOND_DEF_STEREO_COUNT>
0

> <PUBCHEM_BOND_UDEF_STEREO_COUNT>
0

> <PUBCHEM_ISOTOPIC_ATOM_COUNT>
0

> <PUBCHEM_COMPONENT_COUNT>
1

> <PUBCHEM_CACTVS_TAUTO_COUNT>
-1

> <PUBCHEM_COORDINATE_TYPE>
1
5
255

> <PUBCHEM_BONDANNOTATIONS>
10  30  8
10  32  8
17  19  8
17  20  8
19  22  8
19  24  8
20  23  8
22  25  8
24  26  8
25  28  8
26  28  8
30  31  8
32  34  8
33  35  8
34  36  8
35  36  8
7  22  8
7  23  8
9  31  8
9  32  8
9  33  8

$$$$
