137657322
  -OEChem-09292322012D

 61 65  0     0  0  0  0  0  0999 V2000
    5.3351    2.8217    0.0000 O   0  0  0  0  0  0  0  0  0  0  0  0
    7.0671   -7.1783    0.0000 O   0  0  0  0  0  0  0  0  0  0  0  0
   10.5973   -6.2025    0.0000 O   0  0  0  0  0  0  0  0  0  0  0  0
    3.7510    7.4883    0.0000 O   0  0  0  0  0  0  0  0  0  0  0  0
    7.0671   -1.1783    0.0000 N   0  0  0  0  0  0  0  0  0  0  0  0
    7.0671   -3.1783    0.0000 N   0  0  0  0  0  0  0  0  0  0  0  0
    8.8271   -6.2130    0.0000 N   0  0  0  0  0  0  0  0  0  0  0  0
    2.7370    4.3217    0.0000 N   0  0  0  0  0  0  0  0  0  0  0  0
    2.0000    4.9888    0.0000 N   0  0  0  0  0  0  0  0  0  0  0  0
    6.2011   -1.6783    0.0000 C   0  0  0  0  0  0  0  0  0  0  0  0
    7.9332   -1.6783    0.0000 C   0  0  0  0  0  0  0  0  0  0  0  0
    6.2011   -2.6783    0.0000 C   0  0  0  0  0  0  0  0  0  0  0  0
    7.9332   -2.6783    0.0000 C   0  0  0  0  0  0  0  0  0  0  0  0
    7.0671   -0.1783    0.0000 C   0  0  0  0  0  0  0  0  0  0  0  0
    6.2011    0.3217    0.0000 C   0  0  0  0  0  0  0  0  0  0  0  0
    7.0671   -4.1783    0.0000 C   0  0  0  0  0  0  0  0  0  0  0  0
    6.2011    1.3217    0.0000 C   0  0  0  0  0  0  0  0  0  0  0  0
    7.9332   -4.6783    0.0000 C   0  0  0  0  0  0  0  0  0  0  0  0
    6.2011   -4.6783    0.0000 C   0  0  0  0  0  0  0  0  0  0  0  0
    7.9332   -5.6783    0.0000 C   0  0  0  0  0  0  0  0  0  0  0  0
    5.3351    1.8217    0.0000 C   0  0  0  0  0  0  0  0  0  0  0  0
    6.2011   -5.6783    0.0000 C   0  0  0  0  0  0  0  0  0  0  0  0
    8.8271   -4.1437    0.0000 C   0  0  0  0  0  0  0  0  0  0  0  0
    7.0671   -6.1783    0.0000 C   0  0  0  0  0  0  0  0  0  0  0  0
    9.7332   -4.6575    0.0000 C   0  0  0  0  0  0  0  0  0  0  0  0
    9.7332   -5.6991    0.0000 C   0  0  0  0  0  0  0  0  0  0  0  0
    4.4691    3.3217    0.0000 C   0  0  0  0  0  0  0  0  0  0  0  0
    4.4691    4.3217    0.0000 C   0  0  0  0  0  0  0  0  0  0  0  0
    3.6030    4.8217    0.0000 C   0  0  0  0  0  0  0  0  0  0  0  0
    3.6030    2.8217    0.0000 C   0  0  0  0  0  0  0  0  0  0  0  0
    2.7370    3.3217    0.0000 C   0  0  0  0  0  0  0  0  0  0  0  0
    3.3938    5.7935    0.0000 C   0  0  0  0  0  0  0  0  0  0  0  0
    2.4051    5.8966    0.0000 C   0  0  0  0  0  0  0  0  0  0  0  0
    4.0617    6.5378    0.0000 C   0  0  0  0  0  0  0  0  0  0  0  0
    5.9891   -1.0957    0.0000 H   0  0  0  0  0  0  0  0  0  0  0  0
    5.5905   -1.7860    0.0000 H   0  0  0  0  0  0  0  0  0  0  0  0
    8.5438   -1.7860    0.0000 H   0  0  0  0  0  0  0  0  0  0  0  0
    8.1452   -1.0957    0.0000 H   0  0  0  0  0  0  0  0  0  0  0  0
    5.5905   -2.5707    0.0000 H   0  0  0  0  0  0  0  0  0  0  0  0
    5.9891   -3.2609    0.0000 H   0  0  0  0  0  0  0  0  0  0  0  0
    8.1452   -3.2609    0.0000 H   0  0  0  0  0  0  0  0  0  0  0  0
    8.5438   -2.5707    0.0000 H   0  0  0  0  0  0  0  0  0  0  0  0
    7.6777   -0.2860    0.0000 H   0  0  0  0  0  0  0  0  0  0  0  0
    7.2792    0.4043    0.0000 H   0  0  0  0  0  0  0  0  0  0  0  0
    5.5905    0.4293    0.0000 H   0  0  0  0  0  0  0  0  0  0  0  0
    5.9891   -0.2609    0.0000 H   0  0  0  0  0  0  0  0  0  0  0  0
    6.8117    1.2140    0.0000 H   0  0  0  0  0  0  0  0  0  0  0  0
    6.4132    1.9043    0.0000 H   0  0  0  0  0  0  0  0  0  0  0  0
    5.6642   -4.3683    0.0000 H   0  0  0  0  0  0  0  0  0  0  0  0
    4.7245    1.9293    0.0000 H   0  0  0  0  0  0  0  0  0  0  0  0
    5.1230    1.2391    0.0000 H   0  0  0  0  0  0  0  0  0  0  0  0
    5.6642   -5.9883    0.0000 H   0  0  0  0  0  0  0  0  0  0  0  0
    8.8199   -3.5237    0.0000 H   0  0  0  0  0  0  0  0  0  0  0  0
    8.8199   -6.8329    0.0000 H   0  0  0  0  0  0  0  0  0  0  0  0
   10.2689   -4.3454    0.0000 H   0  0  0  0  0  0  0  0  0  0  0  0
    6.5302   -7.4883    0.0000 H   0  0  0  0  0  0  0  0  0  0  0  0
    5.0060    4.6317    0.0000 H   0  0  0  0  0  0  0  0  0  0  0  0
    3.6030    2.2017    0.0000 H   0  0  0  0  0  0  0  0  0  0  0  0
    2.2001    3.0117    0.0000 H   0  0  0  0  0  0  0  0  0  0  0  0
    2.0951    6.4335    0.0000 H   0  0  0  0  0  0  0  0  0  0  0  0
    4.6684    6.4099    0.0000 H   0  0  0  0  0  0  0  0  0  0  0  0
  1 21  1  0  0  0  0
  1 27  1  0  0  0  0
  2 24  1  0  0  0  0
  2 56  1  0  0  0  0
  3 26  2  0  0  0  0
  4 34  2  0  0  0  0
  5 10  1  0  0  0  0
  5 11  1  0  0  0  0
  5 14  1  0  0  0  0
  6 12  1  0  0  0  0
  6 13  1  0  0  0  0
  6 16  1  0  0  0  0
  7 20  1  0  0  0  0
  7 26  1  0  0  0  0
  7 54  1  0  0  0  0
  8  9  1  0  0  0  0
  8 29  1  0  0  0  0
  8 31  1  0  0  0  0
  9 33  2  0  0  0  0
 10 12  1  0  0  0  0
 10 35  1  0  0  0  0
 10 36  1  0  0  0  0
 11 13  1  0  0  0  0
 11 37  1  0  0  0  0
 11 38  1  0  0  0  0
 12 39  1  0  0  0  0
 12 40  1  0  0  0  0
 13 41  1  0  0  0  0
 13 42  1  0  0  0  0
 14 15  1  0  0  0  0
 14 43  1  0  0  0  0
 14 44  1  0  0  0  0
 15 17  1  0  0  0  0
 15 45  1  0  0  0  0
 15 46  1  0  0  0  0
 16 18  2  0  0  0  0
 16 19  1  0  0  0  0
 17 21  1  0  0  0  0
 17 47  1  0  0  0  0
 17 48  1  0  0  0  0
 18 20  1  0  0  0  0
 18 23  1  0  0  0  0
 19 22  2  0  0  0  0
 19 49  1  0  0  0  0
 20 24  2  0  0  0  0
 21 50  1  0  0  0  0
 21 51  1  0  0  0  0
 22 24  1  0  0  0  0
 22 52  1  0  0  0  0
 23 25  2  0  0  0  0
 23 53  1  0  0  0  0
 25 26  1  0  0  0  0
 25 55  1  0  0  0  0
 27 28  2  0  0  0  0
 27 30  1  0  0  0  0
 28 29  1  0  0  0  0
 28 57  1  0  0  0  0
 29 32  2  0  0  0  0
 30 31  2  0  0  0  0
 30 58  1  0  0  0  0
 31 59  1  0  0  0  0
 32 33  1  0  0  0  0
 32 34  1  0  0  0  0
 33 60  1  0  0  0  0
 34 61  1  0  0  0  0
M  END
> <PUBCHEM_COMPOUND_CID>
137657322

> <PUBCHEM_COMPOUND_CANONICALIZED>
1

> <PUBCHEM_CACTVS_COMPLEXITY>
743

> <PUBCHEM_CACTVS_HBOND_ACCEPTOR>
7

> <PUBCHEM_CACTVS_HBOND_DONOR>
2

> <PUBCHEM_CACTVS_ROTATABLE_BOND>
8

> <PUBCHEM_CACTVS_SUBSKEYS>
AAADceB7uAAAAAAAAAAAAAAAAAAAAWAAAAA8WIEAAAAAAFiB8AAAHgAYCAAADAzhngY8xrPIFgCqAz131ACSjCA1oiAY2CE/bNgOZvrW9duW/ajm3BnY+ce43FDOAEABAAQCEAAAgAIACAQgAAAAAAAAAA==

> <PUBCHEM_IUPAC_OPENEYE_NAME>
5-[4-[4-(8-hydroxy-2-oxo-1H-quinolin-5-yl)piperazin-1-yl]butoxy]pyrazolo[1,5-a]pyridine-3-carbaldehyde

> <PUBCHEM_IUPAC_CAS_NAME>
5-[4-[4-(8-hydroxy-2-oxo-1H-quinolin-5-yl)-1-piperazinyl]butoxy]-3-pyrazolo[1,5-a]pyridinecarboxaldehyde

> <PUBCHEM_IUPAC_NAME_MARKUP>
5-[4-[4-(8-hydroxy-2-oxo-1<I>H</I>-quinolin-5-yl)piperazin-1-yl]butoxy]pyrazolo[1,5-a]pyridine-3-carbaldehyde

> <PUBCHEM_IUPAC_NAME>
5-[4-[4-(8-hydroxy-2-oxo-1H-quinolin-5-yl)piperazin-1-yl]butoxy]pyrazolo[1,5-a]pyridine-3-carbaldehyde

> <PUBCHEM_IUPAC_SYSTEMATIC_NAME>
5-[4-[4-(8-oxidanyl-2-oxidanylidene-1H-quinolin-5-yl)piperazin-1-yl]butoxy]pyrazolo[1,5-a]pyridine-3-carbaldehyde

> <PUBCHEM_IUPAC_TRADITIONAL_NAME>
5-[4-[4-(8-hydroxy-2-keto-1H-quinolin-5-yl)piperazino]butoxy]pyrazolo[1,5-a]pyridine-3-carbaldehyde

> <PUBCHEM_IUPAC_INCHI>
InChI=1S/C25H27N5O4/c31-17-18-16-26-30-9-7-19(15-22(18)30)34-14-2-1-8-28-10-12-29(13-11-28)21-4-5-23(32)25-20(21)3-6-24(33)27-25/h3-7,9,15-17,32H,1-2,8,10-14H2,(H,27,33)

> <PUBCHEM_IUPAC_INCHIKEY>
NHLHTGDNMWUOMW-UHFFFAOYSA-N

> <PUBCHEM_XLOGP3_AA>
1.9

> <PUBCHEM_EXACT_MASS>
461.20630436

> <PUBCHEM_MOLECULAR_FORMULA>
C25H27N5O4

> <PUBCHEM_MOLECULAR_WEIGHT>
461.5

> <PUBCHEM_OPENEYE_CAN_SMILES>
C1CN(CCN1CCCCOC2=CC3=C(C=NN3C=C2)C=O)C4=C5C=CC(=O)NC5=C(C=C4)O

> <PUBCHEM_OPENEYE_ISO_SMILES>
C1CN(CCN1CCCCOC2=CC3=C(C=NN3C=C2)C=O)C4=C5C=CC(=O)NC5=C(C=C4)O

> <PUBCHEM_CACTVS_TPSA>
99.4

> <PUBCHEM_MONOISOTOPIC_WEIGHT>
461.20630436

> <PUBCHEM_TOTAL_CHARGE>
0

> <PUBCHEM_HEAVY_ATOM_COUNT>
34

> <PUBCHEM_ATOM_DEF_STEREO_COUNT>
0

> <PUBCHEM_ATOM_UDEF_STEREO_COUNT>
0

> <PUBCHEM_BOND_DEF_STEREO_COUNT>
0

> <PUBCHEM_BOND_UDEF_STEREO_COUNT>
0

> <PUBCHEM_ISOTOPIC_ATOM_COUNT>
0

> <PUBCHEM_COMPONENT_COUNT>
1

> <PUBCHEM_CACTVS_TAUTO_COUNT>
-1

> <PUBCHEM_COORDINATE_TYPE>
1
5
255

> <PUBCHEM_BONDANNOTATIONS>
16  18  8
16  19  8
18  20  8
18  23  8
19  22  8
20  24  8
22  24  8
23  25  8
25  26  8
27  28  8
27  30  8
28  29  8
29  32  8
30  31  8
32  33  8
7  20  8
7  26  8
8  29  8
8  31  8
8  9  8
9  33  8

$$$$
