52947507
  -OEChem-09292322302D

 56 60  0     1  0  0  0  0  0999 V2000
    5.4381   -1.3874    0.0000 S   0  0  0  0  0  0  0  0  0  0  0  0
    2.1045   -4.2113    0.0000 O   0  0  0  0  0  0  0  0  0  0  0  0
    7.1702    1.6126    0.0000 N   0  0  3  0  0  0  0  0  0  0  0  0
    4.4676   -2.8819    0.0000 N   0  0  0  0  0  0  0  0  0  0  0  0
    3.6585   -1.4807    0.0000 N   0  0  0  0  0  0  0  0  0  0  0  0
    2.9894   -2.2238    0.0000 N   0  0  0  0  0  0  0  0  0  0  0  0
    2.9136   -5.6126    0.0000 N   0  0  0  0  0  0  0  0  0  0  0  0
    8.9022    2.6126    0.0000 C   0  0  3  0  0  0  0  0  0  0  0  0
    8.9022    1.6126    0.0000 C   0  0  3  0  0  0  0  0  0  0  0  0
    9.7688    2.1126    0.0000 C   0  0  0  0  0  0  0  0  0  0  0  0
    8.0362    3.1126    0.0000 C   0  0  0  0  0  0  0  0  0  0  0  0
    8.0362    1.1126    0.0000 C   0  0  0  0  0  0  0  0  0  0  0  0
    8.9022    3.6126    0.0000 C   0  0  0  0  0  0  0  0  0  0  0  0
    7.1702    2.6126    0.0000 C   0  0  0  0  0  0  0  0  0  0  0  0
    6.3041    1.1126    0.0000 C   0  0  0  0  0  0  0  0  0  0  0  0
    9.7682    4.1126    0.0000 C   0  0  0  0  0  0  0  0  0  0  0  0
    8.0362    4.1126    0.0000 C   0  0  0  0  0  0  0  0  0  0  0  0
    6.3041    0.1126    0.0000 C   0  0  0  0  0  0  0  0  0  0  0  0
    9.7682    5.1126    0.0000 C   0  0  0  0  0  0  0  0  0  0  0  0
    8.0362    5.1126    0.0000 C   0  0  0  0  0  0  0  0  0  0  0  0
    8.9022    5.6126    0.0000 C   0  0  0  0  0  0  0  0  0  0  0  0
    5.4381   -0.3874    0.0000 C   0  0  0  0  0  0  0  0  0  0  0  0
    4.5721   -1.8874    0.0000 C   0  0  0  0  0  0  0  0  0  0  0  0
    3.4894   -3.0899    0.0000 C   0  0  0  0  0  0  0  0  0  0  0  0
    5.2107   -3.5511    0.0000 C   0  0  0  0  0  0  0  0  0  0  0  0
    3.0827   -4.0034    0.0000 C   0  0  0  0  0  0  0  0  0  0  0  0
    3.5827   -4.8694    0.0000 C   0  0  0  0  0  0  0  0  0  0  0  0
    4.5772   -4.9740    0.0000 C   0  0  0  0  0  0  0  0  0  0  0  0
    2.0000   -5.2058    0.0000 C   0  0  0  0  0  0  0  0  0  0  0  0
    9.2122    1.0756    0.0000 H   0  0  0  0  0  0  0  0  0  0  0  0
   10.1672    1.6376    0.0000 H   0  0  0  0  0  0  0  0  0  0  0  0
   10.1672    2.5876    0.0000 H   0  0  0  0  0  0  0  0  0  0  0  0
    8.4347    3.5875    0.0000 H   0  0  0  0  0  0  0  0  0  0  0  0
    7.6377    3.5875    0.0000 H   0  0  0  0  0  0  0  0  0  0  0  0
    7.6377    0.6376    0.0000 H   0  0  0  0  0  0  0  0  0  0  0  0
    8.4347    0.6376    0.0000 H   0  0  0  0  0  0  0  0  0  0  0  0
    6.9581    3.1952    0.0000 H   0  0  0  0  0  0  0  0  0  0  0  0
    6.5596    2.5049    0.0000 H   0  0  0  0  0  0  0  0  0  0  0  0
    6.0921    1.6952    0.0000 H   0  0  0  0  0  0  0  0  0  0  0  0
    5.6936    1.0049    0.0000 H   0  0  0  0  0  0  0  0  0  0  0  0
   10.3052    3.8026    0.0000 H   0  0  0  0  0  0  0  0  0  0  0  0
    7.4992    3.8026    0.0000 H   0  0  0  0  0  0  0  0  0  0  0  0
    6.5162   -0.4700    0.0000 H   0  0  0  0  0  0  0  0  0  0  0  0
    6.9147    0.2202    0.0000 H   0  0  0  0  0  0  0  0  0  0  0  0
   10.3052    5.4226    0.0000 H   0  0  0  0  0  0  0  0  0  0  0  0
    7.4992    5.4226    0.0000 H   0  0  0  0  0  0  0  0  0  0  0  0
    8.9022    6.2326    0.0000 H   0  0  0  0  0  0  0  0  0  0  0  0
    5.2261    0.1952    0.0000 H   0  0  0  0  0  0  0  0  0  0  0  0
    4.8275   -0.4951    0.0000 H   0  0  0  0  0  0  0  0  0  0  0  0
    4.7958   -4.0118    0.0000 H   0  0  0  0  0  0  0  0  0  0  0  0
    5.6714   -3.9659    0.0000 H   0  0  0  0  0  0  0  0  0  0  0  0
    5.6256   -3.0903    0.0000 H   0  0  0  0  0  0  0  0  0  0  0  0
    4.5124   -5.5906    0.0000 H   0  0  0  0  0  0  0  0  0  0  0  0
    5.1938   -5.0388    0.0000 H   0  0  0  0  0  0  0  0  0  0  0  0
    4.6420   -4.3574    0.0000 H   0  0  0  0  0  0  0  0  0  0  0  0
    1.4631   -5.5158    0.0000 H   0  0  0  0  0  0  0  0  0  0  0  0
  1 22  1  0  0  0  0
  1 23  1  0  0  0  0
  2 26  1  0  0  0  0
  2 29  1  0  0  0  0
  3 12  1  0  0  0  0
  3 14  1  0  0  0  0
  3 15  1  0  0  0  0
  4 23  1  0  0  0  0
  4 24  1  0  0  0  0
  4 25  1  0  0  0  0
  5  6  1  0  0  0  0
  5 23  2  0  0  0  0
  6 24  2  0  0  0  0
  7 27  1  0  0  0  0
  7 29  2  0  0  0  0
  8  9  1  0  0  0  0
  8 10  1  0  0  0  0
  8 11  1  0  0  0  0
  8 13  1  0  0  0  0
  9 10  1  0  0  0  0
  9 12  1  0  0  0  0
  9 30  1  0  0  0  0
 10 31  1  0  0  0  0
 10 32  1  0  0  0  0
 11 14  1  0  0  0  0
 11 33  1  0  0  0  0
 11 34  1  0  0  0  0
 12 35  1  0  0  0  0
 12 36  1  0  0  0  0
 13 16  2  0  0  0  0
 13 17  1  0  0  0  0
 14 37  1  0  0  0  0
 14 38  1  0  0  0  0
 15 18  1  0  0  0  0
 15 39  1  0  0  0  0
 15 40  1  0  0  0  0
 16 19  1  0  0  0  0
 16 41  1  0  0  0  0
 17 20  2  0  0  0  0
 17 42  1  0  0  0  0
 18 22  1  0  0  0  0
 18 43  1  0  0  0  0
 18 44  1  0  0  0  0
 19 21  2  0  0  0  0
 19 45  1  0  0  0  0
 20 21  1  0  0  0  0
 20 46  1  0  0  0  0
 21 47  1  0  0  0  0
 22 48  1  0  0  0  0
 22 49  1  0  0  0  0
 24 26  1  0  0  0  0
 25 50  1  0  0  0  0
 25 51  1  0  0  0  0
 25 52  1  0  0  0  0
 26 27  2  0  0  0  0
 27 28  1  0  0  0  0
 28 53  1  0  0  0  0
 28 54  1  0  0  0  0
 28 55  1  0  0  0  0
 29 56  1  0  0  0  0
M  END
> <PUBCHEM_COMPOUND_CID>
52947507

> <PUBCHEM_COMPOUND_CANONICALIZED>
1

> <PUBCHEM_CACTVS_COMPLEXITY>
561

> <PUBCHEM_CACTVS_HBOND_ACCEPTOR>
6

> <PUBCHEM_CACTVS_HBOND_DONOR>
0

> <PUBCHEM_CACTVS_ROTATABLE_BOND>
7

> <PUBCHEM_CACTVS_SUBSKEYS>
AAADceB7oABAAAAAAAAAAAAAGAAAAWLAAAA8QAAABYAAAAAB8AAAHgQIAAAADwzF3wa3lJcMFEiqA6Zz9ASS2Ct7YLAd2CG9RJiOKCLk2TCNIChgjALYiAcQgMAPgAAAAAAAAAAAAAAAAAAAAAAAAAAAAA==

> <PUBCHEM_IUPAC_OPENEYE_NAME>
4-methyl-5-[4-methyl-5-[3-(6-phenyl-3-azabicyclo[4.1.0]heptan-3-yl)propylsulfanyl]-1,2,4-triazol-3-yl]oxazole

> <PUBCHEM_IUPAC_CAS_NAME>
4-methyl-5-[4-methyl-5-[3-(6-phenyl-3-azabicyclo[4.1.0]heptan-3-yl)propylthio]-1,2,4-triazol-3-yl]oxazole

> <PUBCHEM_IUPAC_NAME_MARKUP>
4-methyl-5-[4-methyl-5-[3-(6-phenyl-3-azabicyclo[4.1.0]heptan-3-yl)propylsulfanyl]-1,2,4-triazol-3-yl]-1,3-oxazole

> <PUBCHEM_IUPAC_NAME>
4-methyl-5-[4-methyl-5-[3-(6-phenyl-3-azabicyclo[4.1.0]heptan-3-yl)propylsulfanyl]-1,2,4-triazol-3-yl]-1,3-oxazole

> <PUBCHEM_IUPAC_SYSTEMATIC_NAME>
4-methyl-5-[4-methyl-5-[3-(6-phenyl-3-azabicyclo[4.1.0]heptan-3-yl)propylsulfanyl]-1,2,4-triazol-3-yl]-1,3-oxazole

> <PUBCHEM_IUPAC_TRADITIONAL_NAME>
4-methyl-5-[4-methyl-5-[3-(6-phenyl-3-azabicyclo[4.1.0]heptan-3-yl)propylthio]-1,2,4-triazol-3-yl]oxazole

> <PUBCHEM_IUPAC_INCHI>
InChI=1S/C22H27N5OS/c1-16-19(28-15-23-16)20-24-25-21(26(20)2)29-12-6-10-27-11-9-22(13-18(22)14-27)17-7-4-3-5-8-17/h3-5,7-8,15,18H,6,9-14H2,1-2H3

> <PUBCHEM_IUPAC_INCHIKEY>
NGVUDBRNEJJAEO-UHFFFAOYSA-N

> <PUBCHEM_XLOGP3_AA>
3.5

> <PUBCHEM_EXACT_MASS>
409.19363168

> <PUBCHEM_MOLECULAR_FORMULA>
C22H27N5OS

> <PUBCHEM_MOLECULAR_WEIGHT>
409.5

> <PUBCHEM_OPENEYE_CAN_SMILES>
CC1=C(OC=N1)C2=NN=C(N2C)SCCCN3CCC4(CC4C3)C5=CC=CC=C5

> <PUBCHEM_OPENEYE_ISO_SMILES>
CC1=C(OC=N1)C2=NN=C(N2C)SCCCN3CCC4(CC4C3)C5=CC=CC=C5

> <PUBCHEM_CACTVS_TPSA>
85.3

> <PUBCHEM_MONOISOTOPIC_WEIGHT>
409.19363168

> <PUBCHEM_TOTAL_CHARGE>
0

> <PUBCHEM_HEAVY_ATOM_COUNT>
29

> <PUBCHEM_ATOM_DEF_STEREO_COUNT>
0

> <PUBCHEM_ATOM_UDEF_STEREO_COUNT>
2

> <PUBCHEM_BOND_DEF_STEREO_COUNT>
0

> <PUBCHEM_BOND_UDEF_STEREO_COUNT>
0

> <PUBCHEM_ISOTOPIC_ATOM_COUNT>
0

> <PUBCHEM_COMPONENT_COUNT>
1

> <PUBCHEM_CACTVS_TAUTO_COUNT>
-1

> <PUBCHEM_COORDINATE_TYPE>
1
5
255

> <PUBCHEM_BONDANNOTATIONS>
13  16  8
13  17  8
16  19  8
17  20  8
19  21  8
2  26  8
2  29  8
20  21  8
26  27  8
4  23  8
4  24  8
5  23  8
5  6  8
6  24  8
7  27  8
7  29  8
8  13  3
9  10  3

$$$$
