45267261
  -OEChem-09292322482D

 47 50  0     0  0  0  0  0  0999 V2000
   13.5549   -1.5029    0.0000 Cl  0  0  0  0  0  0  0  0  0  0  0  0
   13.7639    0.4862    0.0000 Cl  0  0  0  0  0  0  0  0  0  0  0  0
    8.0406   -1.8130    0.0000 O   0  0  0  0  0  0  0  0  0  0  0  0
    5.2619    0.8130    0.0000 N   0  0  0  0  0  0  0  0  0  0  0  0
    7.7619   -0.0530    0.0000 N   0  0  0  0  0  0  0  0  0  0  0  0
    9.3007   -0.5530    0.0000 N   0  0  0  0  0  0  0  0  0  0  0  0
    6.2619    0.8130    0.0000 C   0  0  0  0  0  0  0  0  0  0  0  0
    6.7619   -0.0530    0.0000 C   0  0  0  0  0  0  0  0  0  0  0  0
    8.3497    0.7560    0.0000 C   0  0  0  0  0  0  0  0  0  0  0  0
    4.6783    1.6178    0.0000 C   0  0  0  0  0  0  0  0  0  0  0  0
    4.6783    0.0083    0.0000 C   0  0  0  0  0  0  0  0  0  0  0  0
    9.3007    0.4470    0.0000 C   0  0  0  0  0  0  0  0  0  0  0  0
    3.7320    1.3130    0.0000 C   0  0  0  0  0  0  0  0  0  0  0  0
    3.7320    0.3130    0.0000 C   0  0  0  0  0  0  0  0  0  0  0  0
    8.3497   -0.8620    0.0000 C   0  0  0  0  0  0  0  0  0  0  0  0
   10.1097   -1.1408    0.0000 C   0  0  0  0  0  0  0  0  0  0  0  0
    2.8660    1.8130    0.0000 C   0  0  0  0  0  0  0  0  0  0  0  0
    2.8660   -0.1870    0.0000 C   0  0  0  0  0  0  0  0  0  0  0  0
   11.0233   -0.7340    0.0000 C   0  0  0  0  0  0  0  0  0  0  0  0
    2.0000    1.3130    0.0000 C   0  0  0  0  0  0  0  0  0  0  0  0
    2.0000    0.3130    0.0000 C   0  0  0  0  0  0  0  0  0  0  0  0
   11.8323   -1.3218    0.0000 C   0  0  0  0  0  0  0  0  0  0  0  0
   11.1278    0.2605    0.0000 C   0  0  0  0  0  0  0  0  0  0  0  0
   12.7458   -0.9151    0.0000 C   0  0  0  0  0  0  0  0  0  0  0  0
   12.0414    0.6672    0.0000 C   0  0  0  0  0  0  0  0  0  0  0  0
   12.8504    0.0794    0.0000 C   0  0  0  0  0  0  0  0  0  0  0  0
    6.8445    1.0251    0.0000 H   0  0  0  0  0  0  0  0  0  0  0  0
    6.1542    1.4236    0.0000 H   0  0  0  0  0  0  0  0  0  0  0  0
    6.1793   -0.2650    0.0000 H   0  0  0  0  0  0  0  0  0  0  0  0
    6.8695   -0.6636    0.0000 H   0  0  0  0  0  0  0  0  0  0  0  0
    8.6018    1.3224    0.0000 H   0  0  0  0  0  0  0  0  0  0  0  0
    7.8127    1.0660    0.0000 H   0  0  0  0  0  0  0  0  0  0  0  0
    5.2156    1.9270    0.0000 H   0  0  0  0  0  0  0  0  0  0  0  0
    4.4272    2.1847    0.0000 H   0  0  0  0  0  0  0  0  0  0  0  0
    4.4272   -0.5586    0.0000 H   0  0  0  0  0  0  0  0  0  0  0  0
    5.2156   -0.3009    0.0000 H   0  0  0  0  0  0  0  0  0  0  0  0
    9.9173    0.3822    0.0000 H   0  0  0  0  0  0  0  0  0  0  0  0
    9.4296    1.0535    0.0000 H   0  0  0  0  0  0  0  0  0  0  0  0
    9.6638   -1.5714    0.0000 H   0  0  0  0  0  0  0  0  0  0  0  0
   10.4564   -1.6548    0.0000 H   0  0  0  0  0  0  0  0  0  0  0  0
    2.8660    2.4330    0.0000 H   0  0  0  0  0  0  0  0  0  0  0  0
    2.8660   -0.8070    0.0000 H   0  0  0  0  0  0  0  0  0  0  0  0
    1.4631    1.6231    0.0000 H   0  0  0  0  0  0  0  0  0  0  0  0
    1.4631    0.0030    0.0000 H   0  0  0  0  0  0  0  0  0  0  0  0
   11.7675   -1.9384    0.0000 H   0  0  0  0  0  0  0  0  0  0  0  0
   10.6262    0.6249    0.0000 H   0  0  0  0  0  0  0  0  0  0  0  0
   12.1062    1.2838    0.0000 H   0  0  0  0  0  0  0  0  0  0  0  0
  1 24  1  0  0  0  0
  2 26  1  0  0  0  0
  3 15  2  0  0  0  0
  4  7  1  0  0  0  0
  4 10  1  0  0  0  0
  4 11  1  0  0  0  0
  5  8  1  0  0  0  0
  5  9  1  0  0  0  0
  5 15  1  0  0  0  0
  6 12  1  0  0  0  0
  6 15  1  0  0  0  0
  6 16  1  0  0  0  0
  7  8  1  0  0  0  0
  7 27  1  0  0  0  0
  7 28  1  0  0  0  0
  8 29  1  0  0  0  0
  8 30  1  0  0  0  0
  9 12  1  0  0  0  0
  9 31  1  0  0  0  0
  9 32  1  0  0  0  0
 10 13  1  0  0  0  0
 10 33  1  0  0  0  0
 10 34  1  0  0  0  0
 11 14  1  0  0  0  0
 11 35  1  0  0  0  0
 11 36  1  0  0  0  0
 12 37  1  0  0  0  0
 12 38  1  0  0  0  0
 13 14  1  0  0  0  0
 13 17  2  0  0  0  0
 14 18  2  0  0  0  0
 16 19  1  0  0  0  0
 16 39  1  0  0  0  0
 16 40  1  0  0  0  0
 17 20  1  0  0  0  0
 17 41  1  0  0  0  0
 18 21  1  0  0  0  0
 18 42  1  0  0  0  0
 19 22  2  0  0  0  0
 19 23  1  0  0  0  0
 20 21  2  0  0  0  0
 20 43  1  0  0  0  0
 21 44  1  0  0  0  0
 22 24  1  0  0  0  0
 22 45  1  0  0  0  0
 23 25  2  0  0  0  0
 23 46  1  0  0  0  0
 24 26  2  0  0  0  0
 25 26  1  0  0  0  0
 25 47  1  0  0  0  0
M  END
> <PUBCHEM_COMPOUND_CID>
45267261

> <PUBCHEM_COMPOUND_CANONICALIZED>
1

> <PUBCHEM_CACTVS_COMPLEXITY>
491

> <PUBCHEM_CACTVS_HBOND_ACCEPTOR>
2

> <PUBCHEM_CACTVS_HBOND_DONOR>
0

> <PUBCHEM_CACTVS_ROTATABLE_BOND>
5

> <PUBCHEM_CACTVS_SUBSKEYS>
AAADceB7IAAGAAAAAAAAAAAAAAAAAWLAAAAwYAAAAAAAAFgBQAAAHgIAAAAADALBGCQxAIMAAACIAiBCEACCAAAgBQAIikAIBoiIYCKBkxGUIAhohgKIiAcQgIAOhAAAIAAQAAQIAABAACAACAAAAAAAAA==

> <PUBCHEM_IUPAC_OPENEYE_NAME>
1-[(3,4-dichlorophenyl)methyl]-3-(2-isoindolin-2-ylethyl)imidazolidin-2-one

> <PUBCHEM_IUPAC_CAS_NAME>
1-[(3,4-dichlorophenyl)methyl]-3-[2-(1,3-dihydroisoindol-2-yl)ethyl]-2-imidazolidinone

> <PUBCHEM_IUPAC_NAME_MARKUP>
1-[(3,4-dichlorophenyl)methyl]-3-[2-(1,3-dihydroisoindol-2-yl)ethyl]imidazolidin-2-one

> <PUBCHEM_IUPAC_NAME>
1-[(3,4-dichlorophenyl)methyl]-3-[2-(1,3-dihydroisoindol-2-yl)ethyl]imidazolidin-2-one

> <PUBCHEM_IUPAC_SYSTEMATIC_NAME>
1-[(3,4-dichlorophenyl)methyl]-3-[2-(1,3-dihydroisoindol-2-yl)ethyl]imidazolidin-2-one

> <PUBCHEM_IUPAC_TRADITIONAL_NAME>
1-(3,4-dichlorobenzyl)-3-(2-isoindolin-2-ylethyl)-2-imidazolidinone

> <PUBCHEM_IUPAC_INCHI>
InChI=1S/C20H21Cl2N3O/c21-18-6-5-15(11-19(18)22)12-25-10-9-24(20(25)26)8-7-23-13-16-3-1-2-4-17(16)14-23/h1-6,11H,7-10,12-14H2

> <PUBCHEM_IUPAC_INCHIKEY>
OJGCUCNESMAFSG-UHFFFAOYSA-N

> <PUBCHEM_XLOGP3_AA>
3.4

> <PUBCHEM_EXACT_MASS>
389.1061677

> <PUBCHEM_MOLECULAR_FORMULA>
C20H21Cl2N3O

> <PUBCHEM_MOLECULAR_WEIGHT>
390.3

> <PUBCHEM_OPENEYE_CAN_SMILES>
C1CN(C(=O)N1CCN2CC3=CC=CC=C3C2)CC4=CC(=C(C=C4)Cl)Cl

> <PUBCHEM_OPENEYE_ISO_SMILES>
C1CN(C(=O)N1CCN2CC3=CC=CC=C3C2)CC4=CC(=C(C=C4)Cl)Cl

> <PUBCHEM_CACTVS_TPSA>
26.8

> <PUBCHEM_MONOISOTOPIC_WEIGHT>
389.1061677

> <PUBCHEM_TOTAL_CHARGE>
0

> <PUBCHEM_HEAVY_ATOM_COUNT>
26

> <PUBCHEM_ATOM_DEF_STEREO_COUNT>
0

> <PUBCHEM_ATOM_UDEF_STEREO_COUNT>
0

> <PUBCHEM_BOND_DEF_STEREO_COUNT>
0

> <PUBCHEM_BOND_UDEF_STEREO_COUNT>
0

> <PUBCHEM_ISOTOPIC_ATOM_COUNT>
0

> <PUBCHEM_COMPONENT_COUNT>
1

> <PUBCHEM_CACTVS_TAUTO_COUNT>
-1

> <PUBCHEM_COORDINATE_TYPE>
1
5
255

> <PUBCHEM_BONDANNOTATIONS>
13  14  8
13  17  8
14  18  8
17  20  8
18  21  8
19  22  8
19  23  8
20  21  8
22  24  8
23  25  8
24  26  8
25  26  8

$$$$
