155202848
  -OEChem-09292322432D

 60 63  0     1  0  0  0  0  0999 V2000
   12.7619    1.5675    0.0000 O   0  0  0  0  0  0  0  0  0  0  0  0
    9.7619   -0.1645    0.0000 O   0  0  0  0  0  0  0  0  0  0  0  0
    6.7619   -1.8966    0.0000 O   0  0  0  0  0  0  0  0  0  0  0  0
   10.7619    1.5675    0.0000 N   0  0  3  0  0  0  0  0  0  0  0  0
    6.7619   -0.1645    0.0000 N   0  0  0  0  0  0  0  0  0  0  0  0
   14.2619   -1.0306    0.0000 N   0  0  0  0  0  0  0  0  0  0  0  0
    4.6783   -1.8353    0.0000 N   0  0  0  0  0  0  0  0  0  0  0  0
   14.2619   -2.7626    0.0000 N   0  0  0  0  0  0  0  0  0  0  0  0
   11.2619    2.4335    0.0000 C   0  0  2  0  0  0  0  0  0  0  0  0
   11.2619    0.7015    0.0000 C   0  0  0  0  0  0  0  0  0  0  0  0
   12.2619    0.7015    0.0000 C   0  0  2  0  0  0  0  0  0  0  0  0
    9.7619    1.5675    0.0000 C   0  0  0  0  0  0  0  0  0  0  0  0
   12.2619    2.4335    0.0000 C   0  0  0  0  0  0  0  0  0  0  0  0
    9.2619    0.7015    0.0000 C   0  0  3  0  0  0  0  0  0  0  0  0
   10.7619    3.2996    0.0000 C   0  0  0  0  0  0  0  0  0  0  0  0
    8.2619    0.7015    0.0000 C   0  0  0  0  0  0  0  0  0  0  0  0
   12.7619   -0.1645    0.0000 C   0  0  0  0  0  0  0  0  0  0  0  0
    7.7619   -0.1645    0.0000 C   0  0  0  0  0  0  0  0  0  0  0  0
   12.2619   -1.0306    0.0000 C   0  0  0  0  0  0  0  0  0  0  0  0
   13.7619   -0.1645    0.0000 C   0  0  0  0  0  0  0  0  0  0  0  0
   12.7619   -1.8966    0.0000 C   0  0  0  0  0  0  0  0  0  0  0  0
   13.7619   -1.8966    0.0000 C   0  0  0  0  0  0  0  0  0  0  0  0
    6.2619   -1.0306    0.0000 C   0  0  0  0  0  0  0  0  0  0  0  0
    5.2619   -1.0306    0.0000 C   0  0  0  0  0  0  0  0  0  0  0  0
    4.6783   -0.2258    0.0000 C   0  0  0  0  0  0  0  0  0  0  0  0
    3.7320   -1.5306    0.0000 C   0  0  0  0  0  0  0  0  0  0  0  0
    3.7320   -0.5306    0.0000 C   0  0  0  0  0  0  0  0  0  0  0  0
    2.8660   -2.0306    0.0000 C   0  0  0  0  0  0  0  0  0  0  0  0
    2.8660   -0.0306    0.0000 C   0  0  0  0  0  0  0  0  0  0  0  0
    2.0000   -1.5306    0.0000 C   0  0  0  0  0  0  0  0  0  0  0  0
    2.0000   -0.5306    0.0000 C   0  0  0  0  0  0  0  0  0  0  0  0
   10.6419    2.4335    0.0000 H   0  0  0  0  0  0  0  0  0  0  0  0
   10.6793    0.4894    0.0000 H   0  0  0  0  0  0  0  0  0  0  0  0
   11.3695    0.0909    0.0000 H   0  0  0  0  0  0  0  0  0  0  0  0
   11.9519    0.1645    0.0000 H   0  0  0  0  0  0  0  0  0  0  0  0
    9.8695    2.1781    0.0000 H   0  0  0  0  0  0  0  0  0  0  0  0
    9.1793    1.7796    0.0000 H   0  0  0  0  0  0  0  0  0  0  0  0
   12.8445    2.6456    0.0000 H   0  0  0  0  0  0  0  0  0  0  0  0
   12.1542    3.0441    0.0000 H   0  0  0  0  0  0  0  0  0  0  0  0
    8.9519    0.1645    0.0000 H   0  0  0  0  0  0  0  0  0  0  0  0
   11.2988    3.6096    0.0000 H   0  0  0  0  0  0  0  0  0  0  0  0
   10.4519    3.8365    0.0000 H   0  0  0  0  0  0  0  0  0  0  0  0
   10.2249    2.9896    0.0000 H   0  0  0  0  0  0  0  0  0  0  0  0
    8.3695    1.3121    0.0000 H   0  0  0  0  0  0  0  0  0  0  0  0
    7.6793    0.9135    0.0000 H   0  0  0  0  0  0  0  0  0  0  0  0
    7.6542   -0.7751    0.0000 H   0  0  0  0  0  0  0  0  0  0  0  0
    8.3445   -0.3766    0.0000 H   0  0  0  0  0  0  0  0  0  0  0  0
   11.6419   -1.0306    0.0000 H   0  0  0  0  0  0  0  0  0  0  0  0
    9.4519   -0.7015    0.0000 H   0  0  0  0  0  0  0  0  0  0  0  0
   14.0719    0.3724    0.0000 H   0  0  0  0  0  0  0  0  0  0  0  0
    6.4519    0.3724    0.0000 H   0  0  0  0  0  0  0  0  0  0  0  0
   12.4519   -2.4335    0.0000 H   0  0  0  0  0  0  0  0  0  0  0  0
    4.8709   -2.4246    0.0000 H   0  0  0  0  0  0  0  0  0  0  0  0
    4.8709    0.3635    0.0000 H   0  0  0  0  0  0  0  0  0  0  0  0
   14.8819   -2.7626    0.0000 H   0  0  0  0  0  0  0  0  0  0  0  0
   13.9519   -3.2996    0.0000 H   0  0  0  0  0  0  0  0  0  0  0  0
    2.8660   -2.6506    0.0000 H   0  0  0  0  0  0  0  0  0  0  0  0
    2.8660    0.5894    0.0000 H   0  0  0  0  0  0  0  0  0  0  0  0
    1.4631   -1.8406    0.0000 H   0  0  0  0  0  0  0  0  0  0  0  0
    1.4631   -0.2206    0.0000 H   0  0  0  0  0  0  0  0  0  0  0  0
  1 11  1  0  0  0  0
  1 13  1  0  0  0  0
  2 14  1  0  0  0  0
  2 49  1  0  0  0  0
  3 23  2  0  0  0  0
  4  9  1  0  0  0  0
  4 10  1  0  0  0  0
  4 12  1  0  0  0  0
  5 18  1  0  0  0  0
  5 23  1  0  0  0  0
  5 51  1  0  0  0  0
  6 20  1  0  0  0  0
  6 22  2  0  0  0  0
  7 24  1  0  0  0  0
  7 26  1  0  0  0  0
  7 53  1  0  0  0  0
  8 22  1  0  0  0  0
  8 55  1  0  0  0  0
  8 56  1  0  0  0  0
  9 13  1  0  0  0  0
  9 15  1  1  0  0  0
  9 32  1  0  0  0  0
 10 11  1  0  0  0  0
 10 33  1  0  0  0  0
 10 34  1  0  0  0  0
 11 17  1  1  0  0  0
 11 35  1  0  0  0  0
 12 14  1  0  0  0  0
 12 36  1  0  0  0  0
 12 37  1  0  0  0  0
 13 38  1  0  0  0  0
 13 39  1  0  0  0  0
 14 16  1  0  0  0  0
 14 40  1  0  0  0  0
 15 41  1  0  0  0  0
 15 42  1  0  0  0  0
 15 43  1  0  0  0  0
 16 18  1  0  0  0  0
 16 44  1  0  0  0  0
 16 45  1  0  0  0  0
 17 19  1  0  0  0  0
 17 20  2  0  0  0  0
 18 46  1  0  0  0  0
 18 47  1  0  0  0  0
 19 21  2  0  0  0  0
 19 48  1  0  0  0  0
 20 50  1  0  0  0  0
 21 22  1  0  0  0  0
 21 52  1  0  0  0  0
 23 24  1  0  0  0  0
 24 25  2  0  0  0  0
 25 27  1  0  0  0  0
 25 54  1  0  0  0  0
 26 27  1  0  0  0  0
 26 28  2  0  0  0  0
 27 29  2  0  0  0  0
 28 30  1  0  0  0  0
 28 57  1  0  0  0  0
 29 31  1  0  0  0  0
 29 58  1  0  0  0  0
 30 31  2  0  0  0  0
 30 59  1  0  0  0  0
 31 60  1  0  0  0  0
M  END
> <PUBCHEM_COMPOUND_CID>
155202848

> <PUBCHEM_COMPOUND_CANONICALIZED>
1

> <PUBCHEM_CACTVS_COMPLEXITY>
594

> <PUBCHEM_CACTVS_HBOND_ACCEPTOR>
6

> <PUBCHEM_CACTVS_HBOND_DONOR>
4

> <PUBCHEM_CACTVS_ROTATABLE_BOND>
7

> <PUBCHEM_CACTVS_SUBSKEYS>
AAADceB7sAAAAAAAAAAAAAAAAAAAAWAAAAA8WIAAAAAAAFgB/AAAHgAQCAAADDzhngY/8PPJlgCoAzd3dACCgCk3AiAI2aG4bNiKdvLAtbmXcQhm1gPY6aeYmYKeAAAAAAACAAAAAAAAAAQAAAAAAAAAAA==

> <PUBCHEM_IUPAC_OPENEYE_NAME>
N-[4-[(2S,5S)-2-(6-amino-3-pyridyl)-5-methyl-morpholin-4-yl]-3-hydroxy-butyl]-1H-indole-2-carboxamide

> <PUBCHEM_IUPAC_CAS_NAME>
N-[4-[(2S,5S)-2-(6-amino-3-pyridinyl)-5-methyl-4-morpholinyl]-3-hydroxybutyl]-1H-indole-2-carboxamide

> <PUBCHEM_IUPAC_NAME_MARKUP>
<I>N</I>-[4-[(2<I>S</I>,5<I>S</I>)-2-(6-aminopyridin-3-yl)-5-methylmorpholin-4-yl]-3-hydroxybutyl]-1<I>H</I>-indole-2-carboxamide

> <PUBCHEM_IUPAC_NAME>
N-[4-[(2S,5S)-2-(6-aminopyridin-3-yl)-5-methylmorpholin-4-yl]-3-hydroxybutyl]-1H-indole-2-carboxamide

> <PUBCHEM_IUPAC_SYSTEMATIC_NAME>
N-[4-[(2S,5S)-2-(6-azanylpyridin-3-yl)-5-methyl-morpholin-4-yl]-3-oxidanyl-butyl]-1H-indole-2-carboxamide

> <PUBCHEM_IUPAC_TRADITIONAL_NAME>
N-[4-[(2S,5S)-2-(6-amino-3-pyridyl)-5-methyl-morpholino]-3-hydroxy-butyl]-1H-indole-2-carboxamide

> <PUBCHEM_IUPAC_INCHI>
InChI=1S/C23H29N5O3/c1-15-14-31-21(17-6-7-22(24)26-11-17)13-28(15)12-18(29)8-9-25-23(30)20-10-16-4-2-3-5-19(16)27-20/h2-7,10-11,15,18,21,27,29H,8-9,12-14H2,1H3,(H2,24,26)(H,25,30)/t15-,18?,21+/m0/s1

> <PUBCHEM_IUPAC_INCHIKEY>
QVJKSJKBVZSPPJ-LMONUYQQSA-N

> <PUBCHEM_XLOGP3_AA>
1.6

> <PUBCHEM_EXACT_MASS>
423.22703980

> <PUBCHEM_MOLECULAR_FORMULA>
C23H29N5O3

> <PUBCHEM_MOLECULAR_WEIGHT>
423.5

> <PUBCHEM_OPENEYE_CAN_SMILES>
CC1COC(CN1CC(CCNC(=O)C2=CC3=CC=CC=C3N2)O)C4=CN=C(C=C4)N

> <PUBCHEM_OPENEYE_ISO_SMILES>
C[C@H]1CO[C@H](CN1CC(CCNC(=O)C2=CC3=CC=CC=C3N2)O)C4=CN=C(C=C4)N

> <PUBCHEM_CACTVS_TPSA>
117

> <PUBCHEM_MONOISOTOPIC_WEIGHT>
423.22703980

> <PUBCHEM_TOTAL_CHARGE>
0

> <PUBCHEM_HEAVY_ATOM_COUNT>
31

> <PUBCHEM_ATOM_DEF_STEREO_COUNT>
2

> <PUBCHEM_ATOM_UDEF_STEREO_COUNT>
1

> <PUBCHEM_BOND_DEF_STEREO_COUNT>
0

> <PUBCHEM_BOND_UDEF_STEREO_COUNT>
0

> <PUBCHEM_ISOTOPIC_ATOM_COUNT>
0

> <PUBCHEM_COMPONENT_COUNT>
1

> <PUBCHEM_CACTVS_TAUTO_COUNT>
-1

> <PUBCHEM_COORDINATE_TYPE>
1
5
255

> <PUBCHEM_BONDANNOTATIONS>
11  17  5
17  19  8
17  20  8
19  21  8
14  2  3
21  22  8
24  25  8
25  27  8
26  27  8
26  28  8
27  29  8
28  30  8
29  31  8
30  31  8
6  20  8
6  22  8
7  24  8
7  26  8
9  15  5

$$$$
