90666900
  -OEChem-09292322352D

 50 54  0     1  0  0  0  0  0999 V2000
    2.0000   -3.9466    0.0000 F   0  0  0  0  0  0  0  0  0  0  0  0
    9.5554    3.8820    0.0000 O   0  0  0  0  0  0  0  0  0  0  0  0
   10.0796    0.5841    0.0000 O   0  0  0  0  0  0  0  0  0  0  0  0
    6.4763    0.7097    0.0000 N   0  0  3  0  0  0  0  0  0  0  0  0
   10.6302    2.6840    0.0000 N   0  0  0  0  0  0  0  0  0  0  0  0
    5.5443   -3.7513    0.0000 N   0  0  0  0  0  0  0  0  0  0  0  0
    7.7654    1.8665    0.0000 C   0  0  3  0  0  0  0  0  0  0  0  0
    6.7870    1.6603    0.0000 C   0  0  0  0  0  0  0  0  0  0  0  0
    8.0761    2.8170    0.0000 C   0  0  0  0  0  0  0  0  0  0  0  0
    8.4333    1.1222    0.0000 C   0  0  0  0  0  0  0  0  0  0  0  0
    5.4978    0.5035    0.0000 C   0  0  0  0  0  0  0  0  0  0  0  0
    7.1441   -0.0346    0.0000 C   0  0  0  0  0  0  0  0  0  0  0  0
    5.1871   -0.4470    0.0000 C   0  0  0  0  0  0  0  0  0  0  0  0
    9.0546    3.0232    0.0000 C   0  0  0  0  0  0  0  0  0  0  0  0
    5.8550   -1.1913    0.0000 C   0  0  0  0  0  0  0  0  0  0  0  0
    9.4118    1.3284    0.0000 C   0  0  0  0  0  0  0  0  0  0  0  0
    6.8335   -0.9851    0.0000 C   0  0  0  0  0  0  0  0  0  0  0  0
    9.7225    2.2789    0.0000 C   0  0  0  0  0  0  0  0  0  0  0  0
    5.5443   -2.1418    0.0000 C   0  0  0  0  0  0  0  0  0  0  0  0
    4.5981   -2.4465    0.0000 C   0  0  0  0  0  0  0  0  0  0  0  0
   10.5272    3.6728    0.0000 C   0  0  0  0  0  0  0  0  0  0  0  0
    6.1279   -2.9465    0.0000 C   0  0  0  0  0  0  0  0  0  0  0  0
    4.5981   -3.4466    0.0000 C   0  0  0  0  0  0  0  0  0  0  0  0
    3.7320   -1.9466    0.0000 C   0  0  0  0  0  0  0  0  0  0  0  0
   11.2715    4.3406    0.0000 C   0  0  0  0  0  0  0  0  0  0  0  0
    3.7320   -3.9466    0.0000 C   0  0  0  0  0  0  0  0  0  0  0  0
    2.8660   -2.4465    0.0000 C   0  0  0  0  0  0  0  0  0  0  0  0
    2.8660   -3.4466    0.0000 C   0  0  0  0  0  0  0  0  0  0  0  0
    7.3514    2.3280    0.0000 H   0  0  0  0  0  0  0  0  0  0  0  0
    6.7664    2.2799    0.0000 H   0  0  0  0  0  0  0  0  0  0  0  0
    6.1731    1.7476    0.0000 H   0  0  0  0  0  0  0  0  0  0  0  0
    8.0556    3.4367    0.0000 H   0  0  0  0  0  0  0  0  0  0  0  0
    7.4623    2.9044    0.0000 H   0  0  0  0  0  0  0  0  0  0  0  0
    7.9069    0.7945    0.0000 H   0  0  0  0  0  0  0  0  0  0  0  0
    8.6646    0.5469    0.0000 H   0  0  0  0  0  0  0  0  0  0  0  0
    5.4772    1.1232    0.0000 H   0  0  0  0  0  0  0  0  0  0  0  0
    4.8840    0.5909    0.0000 H   0  0  0  0  0  0  0  0  0  0  0  0
    7.6910   -0.3266    0.0000 H   0  0  0  0  0  0  0  0  0  0  0  0
    7.5267    0.4533    0.0000 H   0  0  0  0  0  0  0  0  0  0  0  0
    4.6402   -0.1550    0.0000 H   0  0  0  0  0  0  0  0  0  0  0  0
    4.8046   -0.9349    0.0000 H   0  0  0  0  0  0  0  0  0  0  0  0
    7.2475   -1.4465    0.0000 H   0  0  0  0  0  0  0  0  0  0  0  0
    6.7479   -2.9465    0.0000 H   0  0  0  0  0  0  0  0  0  0  0  0
    5.7369   -4.3406    0.0000 H   0  0  0  0  0  0  0  0  0  0  0  0
    3.7320   -1.3265    0.0000 H   0  0  0  0  0  0  0  0  0  0  0  0
   11.6856    3.8791    0.0000 H   0  0  0  0  0  0  0  0  0  0  0  0
   11.7330    4.7547    0.0000 H   0  0  0  0  0  0  0  0  0  0  0  0
   10.8574    4.8021    0.0000 H   0  0  0  0  0  0  0  0  0  0  0  0
    3.7320   -4.5666    0.0000 H   0  0  0  0  0  0  0  0  0  0  0  0
    2.3291   -2.1366    0.0000 H   0  0  0  0  0  0  0  0  0  0  0  0
  1 28  1  0  0  0  0
  2 14  1  0  0  0  0
  2 21  1  0  0  0  0
  3 16  2  0  0  0  0
  4  8  1  0  0  0  0
  4 11  1  0  0  0  0
  4 12  1  0  0  0  0
  5 18  1  0  0  0  0
  5 21  2  0  0  0  0
  6 22  1  0  0  0  0
  6 23  1  0  0  0  0
  6 44  1  0  0  0  0
  7  8  1  0  0  0  0
  7  9  1  0  0  0  0
  7 10  1  0  0  0  0
  7 29  1  0  0  0  0
  8 30  1  0  0  0  0
  8 31  1  0  0  0  0
  9 14  1  0  0  0  0
  9 32  1  0  0  0  0
  9 33  1  0  0  0  0
 10 16  1  0  0  0  0
 10 34  1  0  0  0  0
 10 35  1  0  0  0  0
 11 13  1  0  0  0  0
 11 36  1  0  0  0  0
 11 37  1  0  0  0  0
 12 17  1  0  0  0  0
 12 38  1  0  0  0  0
 12 39  1  0  0  0  0
 13 15  1  0  0  0  0
 13 40  1  0  0  0  0
 13 41  1  0  0  0  0
 14 18  2  0  0  0  0
 15 17  2  0  0  0  0
 15 19  1  0  0  0  0
 16 18  1  0  0  0  0
 17 42  1  0  0  0  0
 19 20  1  0  0  0  0
 19 22  2  0  0  0  0
 20 23  2  0  0  0  0
 20 24  1  0  0  0  0
 21 25  1  0  0  0  0
 22 43  1  0  0  0  0
 23 26  1  0  0  0  0
 24 27  2  0  0  0  0
 24 45  1  0  0  0  0
 25 46  1  0  0  0  0
 25 47  1  0  0  0  0
 25 48  1  0  0  0  0
 26 28  2  0  0  0  0
 26 49  1  0  0  0  0
 27 28  1  0  0  0  0
 27 50  1  0  0  0  0
M  END
> <PUBCHEM_COMPOUND_CID>
90666900

> <PUBCHEM_COMPOUND_CANONICALIZED>
1

> <PUBCHEM_CACTVS_COMPLEXITY>
641

> <PUBCHEM_CACTVS_HBOND_ACCEPTOR>
5

> <PUBCHEM_CACTVS_HBOND_DONOR>
1

> <PUBCHEM_CACTVS_ROTATABLE_BOND>
3

> <PUBCHEM_CACTVS_SUBSKEYS>
AAADceB7MQAAAAAAAAAAAAAAAAAAAWLAAAAwYIAAAAAAAFgB/AAAHwAQAAAADQzBngw+xPPJlECoA7V3VASCiCA/YiAI2aG9ZNgOIPbMkbOPKWjktADYyQe8ztBugAAAAAACAAAQAAIAAAQgAAAAAAAAAA==

> <PUBCHEM_IUPAC_OPENEYE_NAME>
6-[[4-(6-fluoro-1H-indol-3-yl)-3,6-dihydro-2H-pyridin-1-yl]methyl]-2-methyl-6,7-dihydro-5H-1,3-benzoxazol-4-one

> <PUBCHEM_IUPAC_CAS_NAME>
6-[[4-(6-fluoro-1H-indol-3-yl)-3,6-dihydro-2H-pyridin-1-yl]methyl]-2-methyl-6,7-dihydro-5H-1,3-benzoxazol-4-one

> <PUBCHEM_IUPAC_NAME_MARKUP>
6-[[4-(6-fluoro-1<I>H</I>-indol-3-yl)-3,6-dihydro-2<I>H</I>-pyridin-1-yl]methyl]-2-methyl-6,7-dihydro-5<I>H</I>-1,3-benzoxazol-4-one

> <PUBCHEM_IUPAC_NAME>
6-[[4-(6-fluoro-1H-indol-3-yl)-3,6-dihydro-2H-pyridin-1-yl]methyl]-2-methyl-6,7-dihydro-5H-1,3-benzoxazol-4-one

> <PUBCHEM_IUPAC_SYSTEMATIC_NAME>
6-[[4-(6-fluoranyl-1H-indol-3-yl)-3,6-dihydro-2H-pyridin-1-yl]methyl]-2-methyl-6,7-dihydro-5H-1,3-benzoxazol-4-one

> <PUBCHEM_IUPAC_TRADITIONAL_NAME>
6-[[4-(6-fluoro-1H-indol-3-yl)-3,6-dihydro-2H-pyridin-1-yl]methyl]-2-methyl-6,7-dihydro-5H-1,3-benzoxazol-4-one

> <PUBCHEM_IUPAC_INCHI>
InChI=1S/C22H22FN3O2/c1-13-25-22-20(27)8-14(9-21(22)28-13)12-26-6-4-15(5-7-26)18-11-24-19-10-16(23)2-3-17(18)19/h2-4,10-11,14,24H,5-9,12H2,1H3

> <PUBCHEM_IUPAC_INCHIKEY>
UKBFTRTZQMOGIC-UHFFFAOYSA-N

> <PUBCHEM_XLOGP3_AA>
3.2

> <PUBCHEM_EXACT_MASS>
379.16960512

> <PUBCHEM_MOLECULAR_FORMULA>
C22H22FN3O2

> <PUBCHEM_MOLECULAR_WEIGHT>
379.4

> <PUBCHEM_OPENEYE_CAN_SMILES>
CC1=NC2=C(O1)CC(CC2=O)CN3CCC(=CC3)C4=CNC5=C4C=CC(=C5)F

> <PUBCHEM_OPENEYE_ISO_SMILES>
CC1=NC2=C(O1)CC(CC2=O)CN3CCC(=CC3)C4=CNC5=C4C=CC(=C5)F

> <PUBCHEM_CACTVS_TPSA>
62.1

> <PUBCHEM_MONOISOTOPIC_WEIGHT>
379.16960512

> <PUBCHEM_TOTAL_CHARGE>
0

> <PUBCHEM_HEAVY_ATOM_COUNT>
28

> <PUBCHEM_ATOM_DEF_STEREO_COUNT>
0

> <PUBCHEM_ATOM_UDEF_STEREO_COUNT>
1

> <PUBCHEM_BOND_DEF_STEREO_COUNT>
0

> <PUBCHEM_BOND_UDEF_STEREO_COUNT>
0

> <PUBCHEM_ISOTOPIC_ATOM_COUNT>
0

> <PUBCHEM_COMPONENT_COUNT>
1

> <PUBCHEM_CACTVS_TAUTO_COUNT>
-1

> <PUBCHEM_COORDINATE_TYPE>
1
5
255

> <PUBCHEM_BONDANNOTATIONS>
14  18  8
19  20  8
19  22  8
2  14  8
2  21  8
20  23  8
20  24  8
23  26  8
24  27  8
26  28  8
27  28  8
5  18  8
5  21  8
6  22  8
6  23  8
7  8  3

$$$$
