155540541
  -OEChem-09292322422D

 55 59  0     1  0  0  0  0  0999 V2000
    9.6778    0.0482    0.0000 S   0  0  0  0  0  0  0  0  0  0  0  0
   10.6283    0.3588    0.0000 O   0  0  0  0  0  0  0  0  0  0  0  0
    8.7273   -0.2625    0.0000 O   0  0  0  0  0  0  0  0  0  0  0  0
    4.0908   -0.1966    0.0000 N   0  0  0  0  0  0  0  0  0  0  0  0
    5.8228    0.8034    0.0000 N   0  0  0  0  0  0  0  0  0  0  0  0
    9.3671    0.9987    0.0000 N   0  0  3  0  0  0  0  0  0  0  0  0
    3.2247   -0.6966    0.0000 C   0  0  0  0  0  0  0  0  0  0  0  0
    2.2588   -0.4378    0.0000 C   0  0  0  0  0  0  0  0  0  0  0  0
    2.9659   -1.6625    0.0000 C   0  0  0  0  0  0  0  0  0  0  0  0
    2.0000   -1.4037    0.0000 C   0  0  0  0  0  0  0  0  0  0  0  0
    4.0908    0.8034    0.0000 C   0  0  0  0  0  0  0  0  0  0  0  0
    4.9568   -0.6966    0.0000 C   0  0  0  0  0  0  0  0  0  0  0  0
    4.9568    1.3034    0.0000 C   0  0  0  0  0  0  0  0  0  0  0  0
    5.8228   -0.1966    0.0000 C   0  0  0  0  0  0  0  0  0  0  0  0
    6.6888    1.3034    0.0000 C   0  0  0  0  0  0  0  0  0  0  0  0
    8.4209    1.3034    0.0000 C   0  0  0  0  0  0  0  0  0  0  0  0
    8.4209    2.3034    0.0000 C   0  0  0  0  0  0  0  0  0  0  0  0
    7.5549    0.8034    0.0000 C   0  0  0  0  0  0  0  0  0  0  0  0
    9.3671    2.6081    0.0000 C   0  0  0  0  0  0  0  0  0  0  0  0
    9.9507    1.8034    0.0000 C   0  0  0  0  0  0  0  0  0  0  0  0
    6.6888    2.3034    0.0000 C   0  0  0  0  0  0  0  0  0  0  0  0
    7.5549    2.8034    0.0000 C   0  0  0  0  0  0  0  0  0  0  0  0
    9.9884   -0.9024    0.0000 C   0  0  0  0  0  0  0  0  0  0  0  0
   10.9669   -1.1086    0.0000 C   0  0  0  0  0  0  0  0  0  0  0  0
    9.3206   -1.6467    0.0000 C   0  0  0  0  0  0  0  0  0  0  0  0
   11.2776   -2.0591    0.0000 C   0  0  0  0  0  0  0  0  0  0  0  0
    9.6313   -2.5972    0.0000 C   0  0  0  0  0  0  0  0  0  0  0  0
   10.6098   -2.8034    0.0000 C   0  0  0  0  0  0  0  0  0  0  0  0
    3.1438   -0.0819    0.0000 H   0  0  0  0  0  0  0  0  0  0  0  0
    2.4193    0.1611    0.0000 H   0  0  0  0  0  0  0  0  0  0  0  0
    1.6600   -0.2773    0.0000 H   0  0  0  0  0  0  0  0  0  0  0  0
    2.8055   -2.2614    0.0000 H   0  0  0  0  0  0  0  0  0  0  0  0
    3.5648   -1.8230    0.0000 H   0  0  0  0  0  0  0  0  0  0  0  0
    1.4011   -1.2432    0.0000 H   0  0  0  0  0  0  0  0  0  0  0  0
    1.8395   -2.0026    0.0000 H   0  0  0  0  0  0  0  0  0  0  0  0
    3.8787    1.3860    0.0000 H   0  0  0  0  0  0  0  0  0  0  0  0
    3.4802    0.6957    0.0000 H   0  0  0  0  0  0  0  0  0  0  0  0
    4.5583   -1.1715    0.0000 H   0  0  0  0  0  0  0  0  0  0  0  0
    5.3553   -1.1715    0.0000 H   0  0  0  0  0  0  0  0  0  0  0  0
    5.3553    1.7784    0.0000 H   0  0  0  0  0  0  0  0  0  0  0  0
    4.5583    1.7784    0.0000 H   0  0  0  0  0  0  0  0  0  0  0  0
    6.0349   -0.7792    0.0000 H   0  0  0  0  0  0  0  0  0  0  0  0
    6.4334   -0.0889    0.0000 H   0  0  0  0  0  0  0  0  0  0  0  0
    7.5549    0.1834    0.0000 H   0  0  0  0  0  0  0  0  0  0  0  0
    9.9045    2.9174    0.0000 H   0  0  0  0  0  0  0  0  0  0  0  0
    9.1161    3.1750    0.0000 H   0  0  0  0  0  0  0  0  0  0  0  0
   10.4116    1.3887    0.0000 H   0  0  0  0  0  0  0  0  0  0  0  0
   10.4116    2.2181    0.0000 H   0  0  0  0  0  0  0  0  0  0  0  0
    6.1519    2.6134    0.0000 H   0  0  0  0  0  0  0  0  0  0  0  0
    7.5549    3.4234    0.0000 H   0  0  0  0  0  0  0  0  0  0  0  0
   11.3810   -0.6471    0.0000 H   0  0  0  0  0  0  0  0  0  0  0  0
    8.7139   -1.5188    0.0000 H   0  0  0  0  0  0  0  0  0  0  0  0
   11.8843   -2.1870    0.0000 H   0  0  0  0  0  0  0  0  0  0  0  0
    9.2172   -3.0587    0.0000 H   0  0  0  0  0  0  0  0  0  0  0  0
   10.8024   -3.3927    0.0000 H   0  0  0  0  0  0  0  0  0  0  0  0
  1  2  2  0  0  0  0
  1  3  2  0  0  0  0
  1  6  1  0  0  0  0
  1 23  1  0  0  0  0
  4  7  1  0  0  0  0
  4 11  1  0  0  0  0
  4 12  1  0  0  0  0
  5 13  1  0  0  0  0
  5 14  1  0  0  0  0
  5 15  1  0  0  0  0
  6 16  1  0  0  0  0
  6 20  1  0  0  0  0
  7  8  1  0  0  0  0
  7  9  1  0  0  0  0
  7 29  1  0  0  0  0
  8 10  1  0  0  0  0
  8 30  1  0  0  0  0
  8 31  1  0  0  0  0
  9 10  1  0  0  0  0
  9 32  1  0  0  0  0
  9 33  1  0  0  0  0
 10 34  1  0  0  0  0
 10 35  1  0  0  0  0
 11 13  1  0  0  0  0
 11 36  1  0  0  0  0
 11 37  1  0  0  0  0
 12 14  1  0  0  0  0
 12 38  1  0  0  0  0
 12 39  1  0  0  0  0
 13 40  1  0  0  0  0
 13 41  1  0  0  0  0
 14 42  1  0  0  0  0
 14 43  1  0  0  0  0
 15 18  2  0  0  0  0
 15 21  1  0  0  0  0
 16 17  2  0  0  0  0
 16 18  1  0  0  0  0
 17 19  1  0  0  0  0
 17 22  1  0  0  0  0
 18 44  1  0  0  0  0
 19 20  1  0  0  0  0
 19 45  1  0  0  0  0
 19 46  1  0  0  0  0
 20 47  1  0  0  0  0
 20 48  1  0  0  0  0
 21 22  2  0  0  0  0
 21 49  1  0  0  0  0
 22 50  1  0  0  0  0
 23 24  2  0  0  0  0
 23 25  1  0  0  0  0
 24 26  1  0  0  0  0
 24 51  1  0  0  0  0
 25 27  2  0  0  0  0
 25 52  1  0  0  0  0
 26 28  2  0  0  0  0
 26 53  1  0  0  0  0
 27 28  1  0  0  0  0
 27 54  1  0  0  0  0
 28 55  1  0  0  0  0
M  END
> <PUBCHEM_COMPOUND_CID>
155540541

> <PUBCHEM_COMPOUND_CANONICALIZED>
1

> <PUBCHEM_CACTVS_COMPLEXITY>
631

> <PUBCHEM_CACTVS_HBOND_ACCEPTOR>
5

> <PUBCHEM_CACTVS_HBOND_DONOR>
0

> <PUBCHEM_CACTVS_ROTATABLE_BOND>
4

> <PUBCHEM_CACTVS_SUBSKEYS>
AAADceB7MABAAAAAAAAAAAAAAABgAWAAAAA8YIAAAAAAAFgBQAAAHAQAQAAADCjBWAQwwYMAAAKAAiRCQHDCABAhAgAIiBgIZIgIYCLA0dGUIAhggADIyAcQgIAOCAAAAAQCAAAQAAAACAQAAAAAAAAAAA==

> <PUBCHEM_IUPAC_OPENEYE_NAME>
1-(benzenesulfonyl)-6-(4-cyclobutylpiperazin-1-yl)indoline

> <PUBCHEM_IUPAC_CAS_NAME>
1-(benzenesulfonyl)-6-(4-cyclobutyl-1-piperazinyl)-2,3-dihydroindole

> <PUBCHEM_IUPAC_NAME_MARKUP>
1-(benzenesulfonyl)-6-(4-cyclobutylpiperazin-1-yl)-2,3-dihydroindole

> <PUBCHEM_IUPAC_NAME>
1-(benzenesulfonyl)-6-(4-cyclobutylpiperazin-1-yl)-2,3-dihydroindole

> <PUBCHEM_IUPAC_SYSTEMATIC_NAME>
6-(4-cyclobutylpiperazin-1-yl)-1-(phenylsulfonyl)-2,3-dihydroindole

> <PUBCHEM_IUPAC_TRADITIONAL_NAME>
1-besyl-6-(4-cyclobutylpiperazino)indoline

> <PUBCHEM_IUPAC_INCHI>
InChI=1S/C22H27N3O2S/c26-28(27,21-7-2-1-3-8-21)25-12-11-18-9-10-20(17-22(18)25)24-15-13-23(14-16-24)19-5-4-6-19/h1-3,7-10,17,19H,4-6,11-16H2

> <PUBCHEM_IUPAC_INCHIKEY>
LQIJGBZSCQJUGS-UHFFFAOYSA-N

> <PUBCHEM_XLOGP3_AA>
3.5

> <PUBCHEM_EXACT_MASS>
397.18239829

> <PUBCHEM_MOLECULAR_FORMULA>
C22H27N3O2S

> <PUBCHEM_MOLECULAR_WEIGHT>
397.5

> <PUBCHEM_OPENEYE_CAN_SMILES>
C1CC(C1)N2CCN(CC2)C3=CC4=C(CCN4S(=O)(=O)C5=CC=CC=C5)C=C3

> <PUBCHEM_OPENEYE_ISO_SMILES>
C1CC(C1)N2CCN(CC2)C3=CC4=C(CCN4S(=O)(=O)C5=CC=CC=C5)C=C3

> <PUBCHEM_CACTVS_TPSA>
52.2

> <PUBCHEM_MONOISOTOPIC_WEIGHT>
397.18239829

> <PUBCHEM_TOTAL_CHARGE>
0

> <PUBCHEM_HEAVY_ATOM_COUNT>
28

> <PUBCHEM_ATOM_DEF_STEREO_COUNT>
0

> <PUBCHEM_ATOM_UDEF_STEREO_COUNT>
0

> <PUBCHEM_BOND_DEF_STEREO_COUNT>
0

> <PUBCHEM_BOND_UDEF_STEREO_COUNT>
0

> <PUBCHEM_ISOTOPIC_ATOM_COUNT>
0

> <PUBCHEM_COMPONENT_COUNT>
1

> <PUBCHEM_CACTVS_TAUTO_COUNT>
-1

> <PUBCHEM_COORDINATE_TYPE>
1
5
255

> <PUBCHEM_BONDANNOTATIONS>
15  18  8
15  21  8
16  17  8
16  18  8
17  22  8
21  22  8
23  24  8
23  25  8
24  26  8
25  27  8
26  28  8
27  28  8

$$$$
