45486859
  -OEChem-09292322292D

 58 63  0     1  0  0  0  0  0999 V2000
    2.0000   -0.5885    0.0000 F   0  0  0  0  0  0  0  0  0  0  0  0
   13.3314   -2.8921    0.0000 O   0  0  0  0  0  0  0  0  0  0  0  0
    8.7224   -0.3843    0.0000 N   0  0  0  0  0  0  0  0  0  0  0  0
   10.6803    0.0239    0.0000 N   0  0  0  0  0  0  0  0  0  0  0  0
    4.8717    2.2721    0.0000 N   0  0  0  0  0  0  0  0  0  0  0  0
   13.7959   -1.1776    0.0000 N   0  0  0  0  0  0  0  0  0  0  0  0
    7.0772    0.1572    0.0000 C   0  0  3  0  0  0  0  0  0  0  0  0
    7.7435   -0.5885    0.0000 C   0  0  0  0  0  0  0  0  0  0  0  0
    7.3991    1.1479    0.0000 C   0  0  0  0  0  0  0  0  0  0  0  0
    6.0567   -0.0515    0.0000 C   0  0  0  0  0  0  0  0  0  0  0  0
    6.6962    1.9166    0.0000 C   0  0  0  0  0  0  0  0  0  0  0  0
    5.3717    0.7333    0.0000 C   0  0  0  0  0  0  0  0  0  0  0  0
    5.6808    1.6843    0.0000 C   0  0  0  0  0  0  0  0  0  0  0  0
    9.3887   -1.1300    0.0000 C   0  0  0  0  0  0  0  0  0  0  0  0
    9.0351    0.5655    0.0000 C   0  0  0  0  0  0  0  0  0  0  0  0
   10.3676   -0.9259    0.0000 C   0  0  0  0  0  0  0  0  0  0  0  0
   10.0140    0.7697    0.0000 C   0  0  0  0  0  0  0  0  0  0  0  0
    4.3717    0.7333    0.0000 C   0  0  0  0  0  0  0  0  0  0  0  0
    4.0627    1.6843    0.0000 C   0  0  0  0  0  0  0  0  0  0  0  0
   11.6592    0.2281    0.0000 C   0  0  0  0  0  0  0  0  0  0  0  0
   12.3255   -0.5176    0.0000 C   0  0  0  0  0  0  0  0  0  0  0  0
    3.6868   -0.0515    0.0000 C   0  0  0  0  0  0  0  0  0  0  0  0
    3.0473    1.9166    0.0000 C   0  0  0  0  0  0  0  0  0  0  0  0
   11.9719    1.1779    0.0000 C   0  0  0  0  0  0  0  0  0  0  0  0
   12.2204   -1.5061    0.0000 C   0  0  0  0  0  0  0  0  0  0  0  0
   13.3044   -0.3135    0.0000 C   0  0  0  0  0  0  0  0  0  0  0  0
    2.6663    0.1572    0.0000 C   0  0  0  0  0  0  0  0  0  0  0  0
    2.3444    1.1479    0.0000 C   0  0  0  0  0  0  0  0  0  0  0  0
   12.9509    1.3821    0.0000 C   0  0  0  0  0  0  0  0  0  0  0  0
   13.1273   -1.9132    0.0000 C   0  0  0  0  0  0  0  0  0  0  0  0
   13.6171    0.6364    0.0000 C   0  0  0  0  0  0  0  0  0  0  0  0
    6.8822   -0.4313    0.0000 H   0  0  0  0  0  0  0  0  0  0  0  0
    7.2164   -0.9150    0.0000 H   0  0  0  0  0  0  0  0  0  0  0  0
    7.9735   -1.1642    0.0000 H   0  0  0  0  0  0  0  0  0  0  0  0
    7.9473    0.8582    0.0000 H   0  0  0  0  0  0  0  0  0  0  0  0
    7.7783    1.6384    0.0000 H   0  0  0  0  0  0  0  0  0  0  0  0
    5.5267   -0.3732    0.0000 H   0  0  0  0  0  0  0  0  0  0  0  0
    6.2830   -0.6287    0.0000 H   0  0  0  0  0  0  0  0  0  0  0  0
    7.2186    2.2505    0.0000 H   0  0  0  0  0  0  0  0  0  0  0  0
    6.4565    2.4884    0.0000 H   0  0  0  0  0  0  0  0  0  0  0  0
    8.8616   -1.4566    0.0000 H   0  0  0  0  0  0  0  0  0  0  0  0
    9.6187   -1.7058    0.0000 H   0  0  0  0  0  0  0  0  0  0  0  0
    9.0158    1.1852    0.0000 H   0  0  0  0  0  0  0  0  0  0  0  0
    8.4215    0.6542    0.0000 H   0  0  0  0  0  0  0  0  0  0  0  0
   10.3869   -1.5456    0.0000 H   0  0  0  0  0  0  0  0  0  0  0  0
   10.9813   -1.0146    0.0000 H   0  0  0  0  0  0  0  0  0  0  0  0
   10.5411    1.0962    0.0000 H   0  0  0  0  0  0  0  0  0  0  0  0
    9.7840    1.3454    0.0000 H   0  0  0  0  0  0  0  0  0  0  0  0
    4.8717    2.8921    0.0000 H   0  0  0  0  0  0  0  0  0  0  0  0
    3.8852   -0.6389    0.0000 H   0  0  0  0  0  0  0  0  0  0  0  0
    2.8626    2.5084    0.0000 H   0  0  0  0  0  0  0  0  0  0  0  0
   11.5588    1.6403    0.0000 H   0  0  0  0  0  0  0  0  0  0  0  0
   11.6141   -1.3761    0.0000 H   0  0  0  0  0  0  0  0  0  0  0  0
   12.0273   -2.0953    0.0000 H   0  0  0  0  0  0  0  0  0  0  0  0
    1.7384    1.2791    0.0000 H   0  0  0  0  0  0  0  0  0  0  0  0
   13.1447    1.9710    0.0000 H   0  0  0  0  0  0  0  0  0  0  0  0
   14.2241    0.7629    0.0000 H   0  0  0  0  0  0  0  0  0  0  0  0
   14.4122   -1.2458    0.0000 H   0  0  0  0  0  0  0  0  0  0  0  0
  1 27  1  0  0  0  0
  2 30  2  0  0  0  0
  3  8  1  0  0  0  0
  3 14  1  0  0  0  0
  3 15  1  0  0  0  0
  4 16  1  0  0  0  0
  4 17  1  0  0  0  0
  4 20  1  0  0  0  0
  5 13  1  0  0  0  0
  5 19  1  0  0  0  0
  5 49  1  0  0  0  0
  6 26  1  0  0  0  0
  6 30  1  0  0  0  0
  6 58  1  0  0  0  0
  7  8  1  0  0  0  0
  7  9  1  0  0  0  0
  7 10  1  0  0  0  0
  7 32  1  0  0  0  0
  8 33  1  0  0  0  0
  8 34  1  0  0  0  0
  9 11  1  0  0  0  0
  9 35  1  0  0  0  0
  9 36  1  0  0  0  0
 10 12  1  0  0  0  0
 10 37  1  0  0  0  0
 10 38  1  0  0  0  0
 11 13  1  0  0  0  0
 11 39  1  0  0  0  0
 11 40  1  0  0  0  0
 12 13  2  0  0  0  0
 12 18  1  0  0  0  0
 14 16  1  0  0  0  0
 14 41  1  0  0  0  0
 14 42  1  0  0  0  0
 15 17  1  0  0  0  0
 15 43  1  0  0  0  0
 15 44  1  0  0  0  0
 16 45  1  0  0  0  0
 16 46  1  0  0  0  0
 17 47  1  0  0  0  0
 17 48  1  0  0  0  0
 18 19  2  0  0  0  0
 18 22  1  0  0  0  0
 19 23  1  0  0  0  0
 20 21  1  0  0  0  0
 20 24  2  0  0  0  0
 21 25  1  0  0  0  0
 21 26  2  0  0  0  0
 22 27  2  0  0  0  0
 22 50  1  0  0  0  0
 23 28  2  0  0  0  0
 23 51  1  0  0  0  0
 24 29  1  0  0  0  0
 24 52  1  0  0  0  0
 25 30  1  0  0  0  0
 25 53  1  0  0  0  0
 25 54  1  0  0  0  0
 26 31  1  0  0  0  0
 27 28  1  0  0  0  0
 28 55  1  0  0  0  0
 29 31  2  0  0  0  0
 29 56  1  0  0  0  0
 31 57  1  0  0  0  0
M  END
> <PUBCHEM_COMPOUND_CID>
45486859

> <PUBCHEM_COMPOUND_CANONICALIZED>
1

> <PUBCHEM_CACTVS_COMPLEXITY>
668

> <PUBCHEM_CACTVS_HBOND_ACCEPTOR>
4

> <PUBCHEM_CACTVS_HBOND_DONOR>
2

> <PUBCHEM_CACTVS_ROTATABLE_BOND>
3

> <PUBCHEM_CACTVS_SUBSKEYS>
AAADceB7oQAAAAAAAAAAAAAAAAAAAWLAAAA8YMEAAAAAAFgB9AAAHwAQAAAADQjBngwwwPPJkACoAyVyVACCgCAhAiAImSE4ZJgIYPLA1dGUIAhglADIyAcciMCOgAAAAAQCAAAQAAQACAQAAAAAAAAAAA==

> <PUBCHEM_IUPAC_OPENEYE_NAME>
4-[4-[(6-fluoro-2,3,4,9-tetrahydro-1H-carbazol-3-yl)methyl]piperazin-1-yl]indolin-2-one

> <PUBCHEM_IUPAC_CAS_NAME>
4-[4-[(6-fluoro-2,3,4,9-tetrahydro-1H-carbazol-3-yl)methyl]-1-piperazinyl]-1,3-dihydroindol-2-one

> <PUBCHEM_IUPAC_NAME_MARKUP>
4-[4-[(6-fluoro-2,3,4,9-tetrahydro-1<I>H</I>-carbazol-3-yl)methyl]piperazin-1-yl]-1,3-dihydroindol-2-one

> <PUBCHEM_IUPAC_NAME>
4-[4-[(6-fluoro-2,3,4,9-tetrahydro-1H-carbazol-3-yl)methyl]piperazin-1-yl]-1,3-dihydroindol-2-one

> <PUBCHEM_IUPAC_SYSTEMATIC_NAME>
4-[4-[(6-fluoranyl-2,3,4,9-tetrahydro-1H-carbazol-3-yl)methyl]piperazin-1-yl]-1,3-dihydroindol-2-one

> <PUBCHEM_IUPAC_TRADITIONAL_NAME>
4-[4-[(6-fluoro-2,3,4,9-tetrahydro-1H-carbazol-3-yl)methyl]piperazino]oxindole

> <PUBCHEM_IUPAC_INCHI>
InChI=1S/C25H27FN4O/c26-17-5-7-23-19(13-17)18-12-16(4-6-22(18)27-23)15-29-8-10-30(11-9-29)24-3-1-2-21-20(24)14-25(31)28-21/h1-3,5,7,13,16,27H,4,6,8-12,14-15H2,(H,28,31)

> <PUBCHEM_IUPAC_INCHIKEY>
DSVMXCDLDIBCHM-UHFFFAOYSA-N

> <PUBCHEM_XLOGP3_AA>
3.6

> <PUBCHEM_EXACT_MASS>
418.21688966

> <PUBCHEM_MOLECULAR_FORMULA>
C25H27FN4O

> <PUBCHEM_MOLECULAR_WEIGHT>
418.5

> <PUBCHEM_OPENEYE_CAN_SMILES>
C1CC2=C(CC1CN3CCN(CC3)C4=CC=CC5=C4CC(=O)N5)C6=C(N2)C=CC(=C6)F

> <PUBCHEM_OPENEYE_ISO_SMILES>
C1CC2=C(CC1CN3CCN(CC3)C4=CC=CC5=C4CC(=O)N5)C6=C(N2)C=CC(=C6)F

> <PUBCHEM_CACTVS_TPSA>
51.4

> <PUBCHEM_MONOISOTOPIC_WEIGHT>
418.21688966

> <PUBCHEM_TOTAL_CHARGE>
0

> <PUBCHEM_HEAVY_ATOM_COUNT>
31

> <PUBCHEM_ATOM_DEF_STEREO_COUNT>
0

> <PUBCHEM_ATOM_UDEF_STEREO_COUNT>
1

> <PUBCHEM_BOND_DEF_STEREO_COUNT>
0

> <PUBCHEM_BOND_UDEF_STEREO_COUNT>
0

> <PUBCHEM_ISOTOPIC_ATOM_COUNT>
0

> <PUBCHEM_COMPONENT_COUNT>
1

> <PUBCHEM_CACTVS_TAUTO_COUNT>
-1

> <PUBCHEM_COORDINATE_TYPE>
1
5
255

> <PUBCHEM_BONDANNOTATIONS>
12  13  8
12  18  8
18  19  8
18  22  8
19  23  8
20  21  8
20  24  8
21  26  8
22  27  8
23  28  8
24  29  8
26  31  8
27  28  8
29  31  8
5  13  8
5  19  8
7  8  3

$$$$
