71657942
  -OEChem-09292322332D

 67 69  0     1  0  0  0  0  0999 V2000
    2.8660   -5.4012    0.0000 O   0  0  0  0  0  0  0  0  0  0  0  0
    3.7126    2.8964    0.0000 O   0  0  0  0  0  0  0  0  0  0  0  0
    5.0981   -2.2106    0.0000 N   0  0  3  0  0  0  0  0  0  0  0  0
    4.5981   -4.4012    0.0000 N   0  0  3  0  0  0  0  0  0  0  0  0
    5.2731    2.1448    0.0000 N   0  0  0  0  0  0  0  0  0  0  0  0
    6.4453    6.5750    0.0000 N   0  0  0  0  0  0  0  0  0  0  0  0
    4.0981   -2.2106    0.0000 C   0  0  0  0  0  0  0  0  0  0  0  0
    5.7216   -2.9924    0.0000 C   0  0  0  0  0  0  0  0  0  0  0  0
    3.4746   -2.9924    0.0000 C   0  0  0  0  0  0  0  0  0  0  0  0
    5.4990   -3.9673    0.0000 C   0  0  0  0  0  0  0  0  0  0  0  0
    3.6971   -3.9673    0.0000 C   0  0  0  0  0  0  0  0  0  0  0  0
    5.5320   -1.3096    0.0000 C   0  0  0  0  0  0  0  0  0  0  0  0
    4.9686   -0.4833    0.0000 C   0  0  0  0  0  0  0  0  0  0  0  0
    4.5981   -5.4012    0.0000 C   0  0  0  0  0  0  0  0  0  0  0  0
    5.4025    0.4176    0.0000 C   0  0  0  0  0  0  0  0  0  0  0  0
    4.8392    1.2439    0.0000 C   0  0  0  0  0  0  0  0  0  0  0  0
    3.7320   -5.9012    0.0000 C   0  0  0  0  0  0  0  0  0  0  0  0
    5.4641   -5.9012    0.0000 C   0  0  0  0  0  0  0  0  0  0  0  0
    3.7320   -6.9012    0.0000 C   0  0  0  0  0  0  0  0  0  0  0  0
    5.4641   -6.9012    0.0000 C   0  0  0  0  0  0  0  0  0  0  0  0
    4.5981   -7.4012    0.0000 C   0  0  0  0  0  0  0  0  0  0  0  0
    4.7098    2.9711    0.0000 C   0  0  0  0  0  0  0  0  0  0  0  0
    5.1436    3.8720    0.0000 C   0  0  0  0  0  0  0  0  0  0  0  0
    2.0000   -5.9012    0.0000 C   0  0  0  0  0  0  0  0  0  0  0  0
    6.1408    3.9468    0.0000 C   0  0  0  0  0  0  0  0  0  0  0  0
    4.5803    4.6983    0.0000 C   0  0  0  0  0  0  0  0  0  0  0  0
    6.0114    5.6740    0.0000 C   0  0  0  0  0  0  0  0  0  0  0  0
    6.5747    4.8477    0.0000 C   0  0  0  0  0  0  0  0  0  0  0  0
    5.0142    5.5992    0.0000 C   0  0  0  0  0  0  0  0  0  0  0  0
    5.8820    7.4012    0.0000 C   0  0  0  0  0  0  0  0  0  0  0  0
    7.4425    6.6497    0.0000 C   0  0  0  0  0  0  0  0  0  0  0  0
    4.2360   -1.6061    0.0000 H   0  0  0  0  0  0  0  0  0  0  0  0
    3.5395   -1.9415    0.0000 H   0  0  0  0  0  0  0  0  0  0  0  0
    6.2802   -3.2614    0.0000 H   0  0  0  0  0  0  0  0  0  0  0  0
    6.1081   -2.5076    0.0000 H   0  0  0  0  0  0  0  0  0  0  0  0
    3.0880   -2.5076    0.0000 H   0  0  0  0  0  0  0  0  0  0  0  0
    2.9160   -3.2614    0.0000 H   0  0  0  0  0  0  0  0  0  0  0  0
    5.6370   -4.5718    0.0000 H   0  0  0  0  0  0  0  0  0  0  0  0
    6.1190   -3.9673    0.0000 H   0  0  0  0  0  0  0  0  0  0  0  0
    3.0771   -3.9673    0.0000 H   0  0  0  0  0  0  0  0  0  0  0  0
    3.5591   -4.5718    0.0000 H   0  0  0  0  0  0  0  0  0  0  0  0
    6.0354   -1.6715    0.0000 H   0  0  0  0  0  0  0  0  0  0  0  0
    5.9758   -0.8767    0.0000 H   0  0  0  0  0  0  0  0  0  0  0  0
    4.4652   -0.1214    0.0000 H   0  0  0  0  0  0  0  0  0  0  0  0
    4.5248   -0.9162    0.0000 H   0  0  0  0  0  0  0  0  0  0  0  0
    5.9059    0.0557    0.0000 H   0  0  0  0  0  0  0  0  0  0  0  0
    5.8464    0.8505    0.0000 H   0  0  0  0  0  0  0  0  0  0  0  0
    4.3358    1.6058    0.0000 H   0  0  0  0  0  0  0  0  0  0  0  0
    4.3954    0.8110    0.0000 H   0  0  0  0  0  0  0  0  0  0  0  0
    6.0010   -5.5912    0.0000 H   0  0  0  0  0  0  0  0  0  0  0  0
    3.1951   -7.2112    0.0000 H   0  0  0  0  0  0  0  0  0  0  0  0
    5.8914    2.1912    0.0000 H   0  0  0  0  0  0  0  0  0  0  0  0
    6.0010   -7.2112    0.0000 H   0  0  0  0  0  0  0  0  0  0  0  0
    4.5981   -8.0212    0.0000 H   0  0  0  0  0  0  0  0  0  0  0  0
    1.6900   -5.3642    0.0000 H   0  0  0  0  0  0  0  0  0  0  0  0
    1.4631   -6.2112    0.0000 H   0  0  0  0  0  0  0  0  0  0  0  0
    2.3100   -6.4381    0.0000 H   0  0  0  0  0  0  0  0  0  0  0  0
    6.4901    3.4345    0.0000 H   0  0  0  0  0  0  0  0  0  0  0  0
    3.9621    4.6520    0.0000 H   0  0  0  0  0  0  0  0  0  0  0  0
    7.1930    4.8941    0.0000 H   0  0  0  0  0  0  0  0  0  0  0  0
    4.6650    6.1115    0.0000 H   0  0  0  0  0  0  0  0  0  0  0  0
    6.3943    7.7504    0.0000 H   0  0  0  0  0  0  0  0  0  0  0  0
    5.5327    7.9135    0.0000 H   0  0  0  0  0  0  0  0  0  0  0  0
    5.3697    7.0519    0.0000 H   0  0  0  0  0  0  0  0  0  0  0  0
    7.4888    6.0314    0.0000 H   0  0  0  0  0  0  0  0  0  0  0  0
    8.0608    6.6960    0.0000 H   0  0  0  0  0  0  0  0  0  0  0  0
    7.3962    7.2680    0.0000 H   0  0  0  0  0  0  0  0  0  0  0  0
  1 17  1  0  0  0  0
  1 24  1  0  0  0  0
  2 22  2  0  0  0  0
  3  7  1  0  0  0  0
  3  8  1  0  0  0  0
  3 12  1  0  0  0  0
  4 10  1  0  0  0  0
  4 11  1  0  0  0  0
  4 14  1  0  0  0  0
  5 16  1  0  0  0  0
  5 22  1  0  0  0  0
  5 52  1  0  0  0  0
  6 27  1  0  0  0  0
  6 30  1  0  0  0  0
  6 31  1  0  0  0  0
  7  9  1  0  0  0  0
  7 32  1  0  0  0  0
  7 33  1  0  0  0  0
  8 10  1  0  0  0  0
  8 34  1  0  0  0  0
  8 35  1  0  0  0  0
  9 11  1  0  0  0  0
  9 36  1  0  0  0  0
  9 37  1  0  0  0  0
 10 38  1  0  0  0  0
 10 39  1  0  0  0  0
 11 40  1  0  0  0  0
 11 41  1  0  0  0  0
 12 13  1  0  0  0  0
 12 42  1  0  0  0  0
 12 43  1  0  0  0  0
 13 15  1  0  0  0  0
 13 44  1  0  0  0  0
 13 45  1  0  0  0  0
 14 17  1  0  0  0  0
 14 18  2  0  0  0  0
 15 16  1  0  0  0  0
 15 46  1  0  0  0  0
 15 47  1  0  0  0  0
 16 48  1  0  0  0  0
 16 49  1  0  0  0  0
 17 19  2  0  0  0  0
 18 20  1  0  0  0  0
 18 50  1  0  0  0  0
 19 21  1  0  0  0  0
 19 51  1  0  0  0  0
 20 21  2  0  0  0  0
 20 53  1  0  0  0  0
 21 54  1  0  0  0  0
 22 23  1  0  0  0  0
 23 25  2  0  0  0  0
 23 26  1  0  0  0  0
 24 55  1  0  0  0  0
 24 56  1  0  0  0  0
 24 57  1  0  0  0  0
 25 28  1  0  0  0  0
 25 58  1  0  0  0  0
 26 29  2  0  0  0  0
 26 59  1  0  0  0  0
 27 28  2  0  0  0  0
 27 29  1  0  0  0  0
 28 60  1  0  0  0  0
 29 61  1  0  0  0  0
 30 62  1  0  0  0  0
 30 63  1  0  0  0  0
 30 64  1  0  0  0  0
 31 65  1  0  0  0  0
 31 66  1  0  0  0  0
 31 67  1  0  0  0  0
M  END
> <PUBCHEM_COMPOUND_CID>
71657942

> <PUBCHEM_COMPOUND_CANONICALIZED>
1

> <PUBCHEM_CACTVS_COMPLEXITY>
522

> <PUBCHEM_CACTVS_HBOND_ACCEPTOR>
5

> <PUBCHEM_CACTVS_HBOND_DONOR>
1

> <PUBCHEM_CACTVS_ROTATABLE_BOND>
9

> <PUBCHEM_CACTVS_SUBSKEYS>
AAADcfB7sAAAAAAAAAAAAAAAAAAAAAAAAAAwYAAABYAAAAABQAAAHgAQAAAADAzBmAYyxoPABACIAiVSUACCCAAlIgAIiIEPbMgOZjLE9ZuVMShk1hHY6YeYyQCeCAAAAAAAEAAQAAAAAAAgAAAAAAAAAA==

> <PUBCHEM_IUPAC_OPENEYE_NAME>
4-(dimethylamino)-N-[4-[4-(2-methoxyphenyl)-1,4-diazepan-1-yl]butyl]benzamide

> <PUBCHEM_IUPAC_CAS_NAME>
4-(dimethylamino)-N-[4-[4-(2-methoxyphenyl)-1,4-diazepan-1-yl]butyl]benzamide

> <PUBCHEM_IUPAC_NAME_MARKUP>
4-(dimethylamino)-<I>N</I>-[4-[4-(2-methoxyphenyl)-1,4-diazepan-1-yl]butyl]benzamide

> <PUBCHEM_IUPAC_NAME>
4-(dimethylamino)-N-[4-[4-(2-methoxyphenyl)-1,4-diazepan-1-yl]butyl]benzamide

> <PUBCHEM_IUPAC_SYSTEMATIC_NAME>
4-(dimethylamino)-N-[4-[4-(2-methoxyphenyl)-1,4-diazepan-1-yl]butyl]benzamide

> <PUBCHEM_IUPAC_TRADITIONAL_NAME>
4-(dimethylamino)-N-[4-[4-(2-methoxyphenyl)-1,4-diazepan-1-yl]butyl]benzamide

> <PUBCHEM_IUPAC_INCHI>
InChI=1S/C25H36N4O2/c1-27(2)22-13-11-21(12-14-22)25(30)26-15-6-7-16-28-17-8-18-29(20-19-28)23-9-4-5-10-24(23)31-3/h4-5,9-14H,6-8,15-20H2,1-3H3,(H,26,30)

> <PUBCHEM_IUPAC_INCHIKEY>
OBWVPNLXYFESGY-UHFFFAOYSA-N

> <PUBCHEM_XLOGP3_AA>
4

> <PUBCHEM_EXACT_MASS>
424.28382640

> <PUBCHEM_MOLECULAR_FORMULA>
C25H36N4O2

> <PUBCHEM_MOLECULAR_WEIGHT>
424.6

> <PUBCHEM_OPENEYE_CAN_SMILES>
CN(C)C1=CC=C(C=C1)C(=O)NCCCCN2CCCN(CC2)C3=CC=CC=C3OC

> <PUBCHEM_OPENEYE_ISO_SMILES>
CN(C)C1=CC=C(C=C1)C(=O)NCCCCN2CCCN(CC2)C3=CC=CC=C3OC

> <PUBCHEM_CACTVS_TPSA>
48

> <PUBCHEM_MONOISOTOPIC_WEIGHT>
424.28382640

> <PUBCHEM_TOTAL_CHARGE>
0

> <PUBCHEM_HEAVY_ATOM_COUNT>
31

> <PUBCHEM_ATOM_DEF_STEREO_COUNT>
0

> <PUBCHEM_ATOM_UDEF_STEREO_COUNT>
0

> <PUBCHEM_BOND_DEF_STEREO_COUNT>
0

> <PUBCHEM_BOND_UDEF_STEREO_COUNT>
0

> <PUBCHEM_ISOTOPIC_ATOM_COUNT>
0

> <PUBCHEM_COMPONENT_COUNT>
1

> <PUBCHEM_CACTVS_TAUTO_COUNT>
-1

> <PUBCHEM_COORDINATE_TYPE>
1
5
255

> <PUBCHEM_BONDANNOTATIONS>
14  17  8
14  18  8
17  19  8
18  20  8
19  21  8
20  21  8
23  25  8
23  26  8
25  28  8
26  29  8
27  28  8
27  29  8

$$$$
