127047776
  -OEChem-09292322372D

 57 60  0     0  0  0  0  0  0999 V2000
    8.4530   -1.8240    0.0000 S   0  0  0  0  0  0  0  0  0  0  0  0
    9.4035   -1.5133    0.0000 O   0  0  0  0  0  0  0  0  0  0  0  0
    7.5025   -2.1347    0.0000 O   0  0  0  0  0  0  0  0  0  0  0  0
    4.5981   -1.0687    0.0000 N   0  0  0  0  0  0  0  0  0  0  0  0
    2.8660   -2.0687    0.0000 N   0  0  0  0  0  0  0  0  0  0  0  0
    8.1424   -0.8735    0.0000 N   0  0  0  0  0  0  0  0  0  0  0  0
    6.3301   -1.0687    0.0000 N   0  0  0  0  0  0  0  0  0  0  0  0
    4.5981   -2.0687    0.0000 C   0  0  0  0  0  0  0  0  0  0  0  0
    3.7320   -0.5687    0.0000 C   0  0  0  0  0  0  0  0  0  0  0  0
    3.7320   -2.5687    0.0000 C   0  0  0  0  0  0  0  0  0  0  0  0
    2.8660   -1.0687    0.0000 C   0  0  0  0  0  0  0  0  0  0  0  0
    5.4641   -0.5687    0.0000 C   0  0  0  0  0  0  0  0  0  0  0  0
    7.1962   -0.5687    0.0000 C   0  0  0  0  0  0  0  0  0  0  0  0
    7.1962    0.4313    0.0000 C   0  0  0  0  0  0  0  0  0  0  0  0
    8.7637   -2.7745    0.0000 C   0  0  0  0  0  0  0  0  0  0  0  0
    9.7422   -2.9807    0.0000 C   0  0  0  0  0  0  0  0  0  0  0  0
    6.3301    0.9313    0.0000 C   0  0  0  0  0  0  0  0  0  0  0  0
    5.4641    0.4313    0.0000 C   0  0  0  0  0  0  0  0  0  0  0  0
    8.7260   -0.0687    0.0000 C   0  0  0  0  0  0  0  0  0  0  0  0
    2.0000   -2.5687    0.0000 C   0  0  0  0  0  0  0  0  0  0  0  0
    8.1424    0.7360    0.0000 C   0  0  0  0  0  0  0  0  0  0  0  0
    6.3301    1.9313    0.0000 C   0  0  0  0  0  0  0  0  0  0  0  0
   10.0529   -3.9313    0.0000 C   0  0  0  0  0  0  0  0  0  0  0  0
   10.4100   -2.2364    0.0000 C   0  0  0  0  0  0  0  0  0  0  0  0
    5.4641    2.4313    0.0000 C   0  0  0  0  0  0  0  0  0  0  0  0
    7.1962    2.4313    0.0000 C   0  0  0  0  0  0  0  0  0  0  0  0
    5.4641    3.4313    0.0000 C   0  0  0  0  0  0  0  0  0  0  0  0
    7.1962    3.4313    0.0000 C   0  0  0  0  0  0  0  0  0  0  0  0
    6.3301    3.9313    0.0000 C   0  0  0  0  0  0  0  0  0  0  0  0
    4.8101   -2.6514    0.0000 H   0  0  0  0  0  0  0  0  0  0  0  0
    5.2087   -1.9611    0.0000 H   0  0  0  0  0  0  0  0  0  0  0  0
    4.1306   -0.0938    0.0000 H   0  0  0  0  0  0  0  0  0  0  0  0
    3.3335   -0.0938    0.0000 H   0  0  0  0  0  0  0  0  0  0  0  0
    3.3335   -3.0437    0.0000 H   0  0  0  0  0  0  0  0  0  0  0  0
    4.1306   -3.0437    0.0000 H   0  0  0  0  0  0  0  0  0  0  0  0
    2.6540   -0.4861    0.0000 H   0  0  0  0  0  0  0  0  0  0  0  0
    2.2554   -1.1764    0.0000 H   0  0  0  0  0  0  0  0  0  0  0  0
    8.1499   -2.8619    0.0000 H   0  0  0  0  0  0  0  0  0  0  0  0
    8.7431   -3.3942    0.0000 H   0  0  0  0  0  0  0  0  0  0  0  0
    9.5496   -2.3914    0.0000 H   0  0  0  0  0  0  0  0  0  0  0  0
    4.9272    0.7413    0.0000 H   0  0  0  0  0  0  0  0  0  0  0  0
    9.3460   -0.0687    0.0000 H   0  0  0  0  0  0  0  0  0  0  0  0
    1.6900   -2.0318    0.0000 H   0  0  0  0  0  0  0  0  0  0  0  0
    1.4631   -2.8787    0.0000 H   0  0  0  0  0  0  0  0  0  0  0  0
    2.3100   -3.1057    0.0000 H   0  0  0  0  0  0  0  0  0  0  0  0
    8.3350    1.3253    0.0000 H   0  0  0  0  0  0  0  0  0  0  0  0
    9.4635   -4.1239    0.0000 H   0  0  0  0  0  0  0  0  0  0  0  0
   10.2455   -4.5206    0.0000 H   0  0  0  0  0  0  0  0  0  0  0  0
   10.6422   -3.7386    0.0000 H   0  0  0  0  0  0  0  0  0  0  0  0
   10.8715   -2.6505    0.0000 H   0  0  0  0  0  0  0  0  0  0  0  0
   10.8241   -1.7750    0.0000 H   0  0  0  0  0  0  0  0  0  0  0  0
    9.9486   -1.8224    0.0000 H   0  0  0  0  0  0  0  0  0  0  0  0
    4.9272    2.1213    0.0000 H   0  0  0  0  0  0  0  0  0  0  0  0
    7.7331    2.1213    0.0000 H   0  0  0  0  0  0  0  0  0  0  0  0
    4.9272    3.7413    0.0000 H   0  0  0  0  0  0  0  0  0  0  0  0
    7.7331    3.7413    0.0000 H   0  0  0  0  0  0  0  0  0  0  0  0
    6.3301    4.5513    0.0000 H   0  0  0  0  0  0  0  0  0  0  0  0
  1  2  2  0  0  0  0
  1  3  2  0  0  0  0
  1  6  1  0  0  0  0
  1 15  1  0  0  0  0
  4  8  1  0  0  0  0
  4  9  1  0  0  0  0
  4 12  1  0  0  0  0
  5 10  1  0  0  0  0
  5 11  1  0  0  0  0
  5 20  1  0  0  0  0
  6 13  1  0  0  0  0
  6 19  1  0  0  0  0
  7 12  2  0  0  0  0
  7 13  1  0  0  0  0
  8 10  1  0  0  0  0
  8 30  1  0  0  0  0
  8 31  1  0  0  0  0
  9 11  1  0  0  0  0
  9 32  1  0  0  0  0
  9 33  1  0  0  0  0
 10 34  1  0  0  0  0
 10 35  1  0  0  0  0
 11 36  1  0  0  0  0
 11 37  1  0  0  0  0
 12 18  1  0  0  0  0
 13 14  2  0  0  0  0
 14 17  1  0  0  0  0
 14 21  1  0  0  0  0
 15 16  1  0  0  0  0
 15 38  1  0  0  0  0
 15 39  1  0  0  0  0
 16 23  1  0  0  0  0
 16 24  1  0  0  0  0
 16 40  1  0  0  0  0
 17 18  2  0  0  0  0
 17 22  1  0  0  0  0
 18 41  1  0  0  0  0
 19 21  2  0  0  0  0
 19 42  1  0  0  0  0
 20 43  1  0  0  0  0
 20 44  1  0  0  0  0
 20 45  1  0  0  0  0
 21 46  1  0  0  0  0
 22 25  2  0  0  0  0
 22 26  1  0  0  0  0
 23 47  1  0  0  0  0
 23 48  1  0  0  0  0
 23 49  1  0  0  0  0
 24 50  1  0  0  0  0
 24 51  1  0  0  0  0
 24 52  1  0  0  0  0
 25 27  1  0  0  0  0
 25 53  1  0  0  0  0
 26 28  2  0  0  0  0
 26 54  1  0  0  0  0
 27 29  2  0  0  0  0
 27 55  1  0  0  0  0
 28 29  1  0  0  0  0
 28 56  1  0  0  0  0
 29 57  1  0  0  0  0
M  END
> <PUBCHEM_COMPOUND_CID>
127047776

> <PUBCHEM_COMPOUND_CANONICALIZED>
1

> <PUBCHEM_CACTVS_COMPLEXITY>
636

> <PUBCHEM_CACTVS_HBOND_ACCEPTOR>
5

> <PUBCHEM_CACTVS_HBOND_DONOR>
0

> <PUBCHEM_CACTVS_ROTATABLE_BOND>
5

> <PUBCHEM_CACTVS_SUBSKEYS>
AAADceB7sABAAAAAAAAAAAAAAAAAAWAAAAA8WIAAAAAAAFgB/AAAHAQAQAAADQDFWwS/sN8IEAKgAjJnZHDCgCkxAqAJ2CA4ZJiIaOLAmZGUIAhogALIyCcQgMAOgAAAAAAAAAAAAAAAAAAAAAAAAAAAAA==

> <PUBCHEM_IUPAC_OPENEYE_NAME>
1-isobutylsulfonyl-6-(4-methylpiperazin-1-yl)-4-phenyl-pyrrolo[2,3-b]pyridine

> <PUBCHEM_IUPAC_CAS_NAME>
6-(4-methyl-1-piperazinyl)-1-(2-methylpropylsulfonyl)-4-phenylpyrrolo[2,3-b]pyridine

> <PUBCHEM_IUPAC_NAME_MARKUP>
6-(4-methylpiperazin-1-yl)-1-(2-methylpropylsulfonyl)-4-phenylpyrrolo[2,3-b]pyridine

> <PUBCHEM_IUPAC_NAME>
6-(4-methylpiperazin-1-yl)-1-(2-methylpropylsulfonyl)-4-phenylpyrrolo[2,3-b]pyridine

> <PUBCHEM_IUPAC_SYSTEMATIC_NAME>
6-(4-methylpiperazin-1-yl)-1-(2-methylpropylsulfonyl)-4-phenyl-pyrrolo[2,3-b]pyridine

> <PUBCHEM_IUPAC_TRADITIONAL_NAME>
1-isobutylsulfonyl-6-(4-methylpiperazino)-4-phenyl-pyrrolo[2,3-b]pyridine

> <PUBCHEM_IUPAC_INCHI>
InChI=1S/C22H28N4O2S/c1-17(2)16-29(27,28)26-10-9-19-20(18-7-5-4-6-8-18)15-21(23-22(19)26)25-13-11-24(3)12-14-25/h4-10,15,17H,11-14,16H2,1-3H3

> <PUBCHEM_IUPAC_INCHIKEY>
LABSLKNETFNUAU-UHFFFAOYSA-N

> <PUBCHEM_XLOGP3_AA>
4.2

> <PUBCHEM_EXACT_MASS>
412.19329732

> <PUBCHEM_MOLECULAR_FORMULA>
C22H28N4O2S

> <PUBCHEM_MOLECULAR_WEIGHT>
412.6

> <PUBCHEM_OPENEYE_CAN_SMILES>
CC(C)CS(=O)(=O)N1C=CC2=C1N=C(C=C2C3=CC=CC=C3)N4CCN(CC4)C

> <PUBCHEM_OPENEYE_ISO_SMILES>
CC(C)CS(=O)(=O)N1C=CC2=C1N=C(C=C2C3=CC=CC=C3)N4CCN(CC4)C

> <PUBCHEM_CACTVS_TPSA>
66.8

> <PUBCHEM_MONOISOTOPIC_WEIGHT>
412.19329732

> <PUBCHEM_TOTAL_CHARGE>
0

> <PUBCHEM_HEAVY_ATOM_COUNT>
29

> <PUBCHEM_ATOM_DEF_STEREO_COUNT>
0

> <PUBCHEM_ATOM_UDEF_STEREO_COUNT>
0

> <PUBCHEM_BOND_DEF_STEREO_COUNT>
0

> <PUBCHEM_BOND_UDEF_STEREO_COUNT>
0

> <PUBCHEM_ISOTOPIC_ATOM_COUNT>
0

> <PUBCHEM_COMPONENT_COUNT>
1

> <PUBCHEM_CACTVS_TAUTO_COUNT>
-1

> <PUBCHEM_COORDINATE_TYPE>
1
5
255

> <PUBCHEM_BONDANNOTATIONS>
12  18  8
13  14  8
14  17  8
14  21  8
17  18  8
19  21  8
22  25  8
22  26  8
25  27  8
26  28  8
27  29  8
28  29  8
6  13  8
6  19  8
7  12  8
7  13  8

$$$$
