168291109
  -OEChem-09292322452D

 57 60  0     0  0  0  0  0  0999 V2000
   10.6718   -1.6920    0.0000 O   0  0  0  0  0  0  0  0  0  0  0  0
   15.9339   -1.6679    0.0000 O   0  0  0  0  0  0  0  0  0  0  0  0
    6.3397   -1.2087    0.0000 N   0  0  0  0  0  0  0  0  0  0  0  0
    4.6038   -0.2154    0.0000 N   0  0  0  0  0  0  0  0  0  0  0  0
    2.8718   -0.2221    0.0000 N   0  0  0  0  0  0  0  0  0  0  0  0
   14.2019   -1.6679    0.0000 N   0  0  0  0  0  0  0  0  0  0  0  0
    5.4602    2.2879    0.0000 N   0  0  0  0  0  0  0  0  0  0  0  0
    6.3359   -0.2087    0.0000 C   0  0  0  0  0  0  0  0  0  0  0  0
    5.4756   -1.7121    0.0000 C   0  0  0  0  0  0  0  0  0  0  0  0
    5.4679    0.2879    0.0000 C   0  0  0  0  0  0  0  0  0  0  0  0
    4.6077   -1.2154    0.0000 C   0  0  0  0  0  0  0  0  0  0  0  0
    7.2077   -1.7054    0.0000 C   0  0  0  0  0  0  0  0  0  0  0  0
    8.0718   -1.2021    0.0000 C   0  0  0  0  0  0  0  0  0  0  0  0
    8.9397   -1.6987    0.0000 C   0  0  0  0  0  0  0  0  0  0  0  0
    3.7359    0.2812    0.0000 C   0  0  0  0  0  0  0  0  0  0  0  0
    9.8038   -1.1954    0.0000 C   0  0  0  0  0  0  0  0  0  0  0  0
    3.7320    1.2812    0.0000 C   0  0  0  0  0  0  0  0  0  0  0  0
   13.3359   -0.1679    0.0000 C   0  0  0  0  0  0  0  0  0  0  0  0
   14.2019    0.3321    0.0000 C   0  0  0  0  0  0  0  0  0  0  0  0
   13.3359   -1.1679    0.0000 C   0  0  0  0  0  0  0  0  0  0  0  0
   11.5358   -1.1887    0.0000 C   0  0  0  0  0  0  0  0  0  0  0  0
   15.0679   -0.1679    0.0000 C   0  0  0  0  0  0  0  0  0  0  0  0
   12.4419   -1.7026    0.0000 C   0  0  0  0  0  0  0  0  0  0  0  0
    2.8641    1.7779    0.0000 C   0  0  0  0  0  0  0  0  0  0  0  0
   12.4419    0.3668    0.0000 C   0  0  0  0  0  0  0  0  0  0  0  0
   11.5358   -0.1471    0.0000 C   0  0  0  0  0  0  0  0  0  0  0  0
   15.0679   -1.1679    0.0000 C   0  0  0  0  0  0  0  0  0  0  0  0
    2.0038    0.2746    0.0000 C   0  0  0  0  0  0  0  0  0  0  0  0
    2.0000    1.2746    0.0000 C   0  0  0  0  0  0  0  0  0  0  0  0
    4.5961    1.7846    0.0000 C   0  0  0  0  0  0  0  0  0  0  0  0
    6.9469   -0.3141    0.0000 H   0  0  0  0  0  0  0  0  0  0  0  0
    6.5457    0.3747    0.0000 H   0  0  0  0  0  0  0  0  0  0  0  0
    5.0789   -2.1886    0.0000 H   0  0  0  0  0  0  0  0  0  0  0  0
    5.8760   -2.1855    0.0000 H   0  0  0  0  0  0  0  0  0  0  0  0
    5.8646    0.7644    0.0000 H   0  0  0  0  0  0  0  0  0  0  0  0
    5.0676    0.7613    0.0000 H   0  0  0  0  0  0  0  0  0  0  0  0
    3.9967   -1.1101    0.0000 H   0  0  0  0  0  0  0  0  0  0  0  0
    4.3979   -1.7988    0.0000 H   0  0  0  0  0  0  0  0  0  0  0  0
    6.8110   -2.1819    0.0000 H   0  0  0  0  0  0  0  0  0  0  0  0
    7.6080   -2.1788    0.0000 H   0  0  0  0  0  0  0  0  0  0  0  0
    8.4685   -0.7256    0.0000 H   0  0  0  0  0  0  0  0  0  0  0  0
    7.6714   -0.7287    0.0000 H   0  0  0  0  0  0  0  0  0  0  0  0
    8.5430   -2.1752    0.0000 H   0  0  0  0  0  0  0  0  0  0  0  0
    9.3401   -2.1721    0.0000 H   0  0  0  0  0  0  0  0  0  0  0  0
   10.2005   -0.7189    0.0000 H   0  0  0  0  0  0  0  0  0  0  0  0
    9.4034   -0.7220    0.0000 H   0  0  0  0  0  0  0  0  0  0  0  0
   14.6004    0.8071    0.0000 H   0  0  0  0  0  0  0  0  0  0  0  0
   13.8034    0.8071    0.0000 H   0  0  0  0  0  0  0  0  0  0  0  0
   15.6785   -0.2756    0.0000 H   0  0  0  0  0  0  0  0  0  0  0  0
   15.2800    0.4147    0.0000 H   0  0  0  0  0  0  0  0  0  0  0  0
   12.4491   -2.3225    0.0000 H   0  0  0  0  0  0  0  0  0  0  0  0
    2.8617    2.3979    0.0000 H   0  0  0  0  0  0  0  0  0  0  0  0
   12.4491    0.9867    0.0000 H   0  0  0  0  0  0  0  0  0  0  0  0
   11.0001    0.1650    0.0000 H   0  0  0  0  0  0  0  0  0  0  0  0
   14.2019   -2.2879    0.0000 H   0  0  0  0  0  0  0  0  0  0  0  0
    1.4681   -0.0375    0.0000 H   0  0  0  0  0  0  0  0  0  0  0  0
    1.4619    1.5825    0.0000 H   0  0  0  0  0  0  0  0  0  0  0  0
  1 16  1  0  0  0  0
  1 21  1  0  0  0  0
  2 27  2  0  0  0  0
  3  8  1  0  0  0  0
  3  9  1  0  0  0  0
  3 12  1  0  0  0  0
  4 10  1  0  0  0  0
  4 11  1  0  0  0  0
  4 15  1  0  0  0  0
  5 15  1  0  0  0  0
  5 28  2  0  0  0  0
  6 20  1  0  0  0  0
  6 27  1  0  0  0  0
  6 55  1  0  0  0  0
  7 30  3  0  0  0  0
  8 10  1  0  0  0  0
  8 31  1  0  0  0  0
  8 32  1  0  0  0  0
  9 11  1  0  0  0  0
  9 33  1  0  0  0  0
  9 34  1  0  0  0  0
 10 35  1  0  0  0  0
 10 36  1  0  0  0  0
 11 37  1  0  0  0  0
 11 38  1  0  0  0  0
 12 13  1  0  0  0  0
 12 39  1  0  0  0  0
 12 40  1  0  0  0  0
 13 14  1  0  0  0  0
 13 41  1  0  0  0  0
 13 42  1  0  0  0  0
 14 16  1  0  0  0  0
 14 43  1  0  0  0  0
 14 44  1  0  0  0  0
 15 17  2  0  0  0  0
 16 45  1  0  0  0  0
 16 46  1  0  0  0  0
 17 24  1  0  0  0  0
 17 30  1  0  0  0  0
 18 19  1  0  0  0  0
 18 20  2  0  0  0  0
 18 25  1  0  0  0  0
 19 22  1  0  0  0  0
 19 47  1  0  0  0  0
 19 48  1  0  0  0  0
 20 23  1  0  0  0  0
 21 23  2  0  0  0  0
 21 26  1  0  0  0  0
 22 27  1  0  0  0  0
 22 49  1  0  0  0  0
 22 50  1  0  0  0  0
 23 51  1  0  0  0  0
 24 29  2  0  0  0  0
 24 52  1  0  0  0  0
 25 26  2  0  0  0  0
 25 53  1  0  0  0  0
 26 54  1  0  0  0  0
 28 29  1  0  0  0  0
 28 56  1  0  0  0  0
 29 57  1  0  0  0  0
M  END
> <PUBCHEM_COMPOUND_CID>
168291109

> <PUBCHEM_COMPOUND_CANONICALIZED>
1

> <PUBCHEM_CACTVS_COMPLEXITY>
612

> <PUBCHEM_CACTVS_HBOND_ACCEPTOR>
6

> <PUBCHEM_CACTVS_HBOND_DONOR>
1

> <PUBCHEM_CACTVS_ROTATABLE_BOND>
7

> <PUBCHEM_CACTVS_SUBSKEYS>
AAADceB7sAAAAAAAAAAAAAAAAAAAAAAAAAA8WLEAAAAAAACxwAAAHgAQAAAADAzhmgY99pPIFAC4Bjd3dACiiCkxIiAJ2CE+bJiM5vLEuZuWOCju1BvI6C+42aOeIAAAAgACAABAAAAEAAQAAAAAAAAAAA==

> <PUBCHEM_IUPAC_OPENEYE_NAME>
2-[4-[4-[(2-oxo-3,4-dihydro-1H-quinolin-7-yl)oxy]butyl]piperazin-1-yl]pyridine-3-carbonitrile

> <PUBCHEM_IUPAC_CAS_NAME>
2-[4-[4-[(2-oxo-3,4-dihydro-1H-quinolin-7-yl)oxy]butyl]-1-piperazinyl]-3-pyridinecarbonitrile

> <PUBCHEM_IUPAC_NAME_MARKUP>
2-[4-[4-[(2-oxo-3,4-dihydro-1<I>H</I>-quinolin-7-yl)oxy]butyl]piperazin-1-yl]pyridine-3-carbonitrile

> <PUBCHEM_IUPAC_NAME>
2-[4-[4-[(2-oxo-3,4-dihydro-1H-quinolin-7-yl)oxy]butyl]piperazin-1-yl]pyridine-3-carbonitrile

> <PUBCHEM_IUPAC_SYSTEMATIC_NAME>
2-[4-[4-[(2-oxidanylidene-3,4-dihydro-1H-quinolin-7-yl)oxy]butyl]piperazin-1-yl]pyridine-3-carbonitrile

> <PUBCHEM_IUPAC_TRADITIONAL_NAME>
2-[4-[4-[(2-keto-3,4-dihydro-1H-quinolin-7-yl)oxy]butyl]piperazino]nicotinonitrile

> <PUBCHEM_IUPAC_INCHI>
InChI=1S/C23H27N5O2/c24-17-19-4-3-9-25-23(19)28-13-11-27(12-14-28)10-1-2-15-30-20-7-5-18-6-8-22(29)26-21(18)16-20/h3-5,7,9,16H,1-2,6,8,10-15H2,(H,26,29)

> <PUBCHEM_IUPAC_INCHIKEY>
QWYUUBBTIYYNJQ-UHFFFAOYSA-N

> <PUBCHEM_XLOGP3_AA>
2.4

> <PUBCHEM_EXACT_MASS>
405.21647512

> <PUBCHEM_MOLECULAR_FORMULA>
C23H27N5O2

> <PUBCHEM_MOLECULAR_WEIGHT>
405.5

> <PUBCHEM_OPENEYE_CAN_SMILES>
C1CC(=O)NC2=C1C=CC(=C2)OCCCCN3CCN(CC3)C4=C(C=CC=N4)C#N

> <PUBCHEM_OPENEYE_ISO_SMILES>
C1CC(=O)NC2=C1C=CC(=C2)OCCCCN3CCN(CC3)C4=C(C=CC=N4)C#N

> <PUBCHEM_CACTVS_TPSA>
81.5

> <PUBCHEM_MONOISOTOPIC_WEIGHT>
405.21647512

> <PUBCHEM_TOTAL_CHARGE>
0

> <PUBCHEM_HEAVY_ATOM_COUNT>
30

> <PUBCHEM_ATOM_DEF_STEREO_COUNT>
0

> <PUBCHEM_ATOM_UDEF_STEREO_COUNT>
0

> <PUBCHEM_BOND_DEF_STEREO_COUNT>
0

> <PUBCHEM_BOND_UDEF_STEREO_COUNT>
0

> <PUBCHEM_ISOTOPIC_ATOM_COUNT>
0

> <PUBCHEM_COMPONENT_COUNT>
1

> <PUBCHEM_CACTVS_TAUTO_COUNT>
-1

> <PUBCHEM_COORDINATE_TYPE>
1
5
255

> <PUBCHEM_BONDANNOTATIONS>
15  17  8
17  24  8
18  20  8
18  25  8
20  23  8
21  23  8
21  26  8
24  29  8
25  26  8
28  29  8
5  15  8
5  28  8

$$$$
