155523121
  -OEChem-09292322402D

 51 54  0     0  0  0  0  0  0999 V2000
    6.7210   -2.8321    0.0000 S   0  0  0  0  0  0  0  0  0  0  0  0
    7.4499    5.6836    0.0000 F   0  0  0  0  0  0  0  0  0  0  0  0
    5.8017    5.1512    0.0000 F   0  0  0  0  0  0  0  0  0  0  0  0
    7.6715   -2.5214    0.0000 O   0  0  0  0  0  0  0  0  0  0  0  0
    5.7705   -3.1427    0.0000 O   0  0  0  0  0  0  0  0  0  0  0  0
    2.8660   -0.0768    0.0000 O   0  0  0  0  0  0  0  0  0  0  0  0
    6.4103   -1.8815    0.0000 N   0  0  0  0  0  0  0  0  0  0  0  0
    7.6743    1.9858    0.0000 N   0  0  0  0  0  0  0  0  0  0  0  0
    6.1346    1.4885    0.0000 N   0  0  0  0  0  0  0  0  0  0  0  0
    6.4164    3.2481    0.0000 N   0  0  0  0  0  0  0  0  0  0  0  0
    5.4641   -1.5768    0.0000 C   0  0  0  0  0  0  0  0  0  0  0  0
    5.4641   -0.5768    0.0000 C   0  0  0  0  0  0  0  0  0  0  0  0
    6.4103   -0.2721    0.0000 C   0  0  0  0  0  0  0  0  0  0  0  0
    6.9939   -1.0768    0.0000 C   0  0  0  0  0  0  0  0  0  0  0  0
    6.7210    0.6784    0.0000 C   0  0  0  0  0  0  0  0  0  0  0  0
    4.5981   -0.0768    0.0000 C   0  0  0  0  0  0  0  0  0  0  0  0
    4.5981   -2.0768    0.0000 C   0  0  0  0  0  0  0  0  0  0  0  0
    7.6726    0.9858    0.0000 C   0  0  0  0  0  0  0  0  0  0  0  0
    7.0316   -3.7826    0.0000 C   0  0  0  0  0  0  0  0  0  0  0  0
    3.7320   -0.5768    0.0000 C   0  0  0  0  0  0  0  0  0  0  0  0
    3.7320   -1.5768    0.0000 C   0  0  0  0  0  0  0  0  0  0  0  0
    6.7238    2.2965    0.0000 C   0  0  0  0  0  0  0  0  0  0  0  0
    8.4806    0.3966    0.0000 C   0  0  0  0  0  0  0  0  0  0  0  0
    6.3638   -4.5269    0.0000 C   0  0  0  0  0  0  0  0  0  0  0  0
    8.0102   -3.9888    0.0000 C   0  0  0  0  0  0  0  0  0  0  0  0
    7.0868    3.9900    0.0000 C   0  0  0  0  0  0  0  0  0  0  0  0
    6.6745   -5.4774    0.0000 C   0  0  0  0  0  0  0  0  0  0  0  0
    8.3208   -4.9393    0.0000 C   0  0  0  0  0  0  0  0  0  0  0  0
    7.6530   -5.6836    0.0000 C   0  0  0  0  0  0  0  0  0  0  0  0
    6.7795    4.9416    0.0000 C   0  0  0  0  0  0  0  0  0  0  0  0
    2.0000   -0.5768    0.0000 C   0  0  0  0  0  0  0  0  0  0  0  0
    7.6139   -1.0768    0.0000 H   0  0  0  0  0  0  0  0  0  0  0  0
    4.5981    0.5432    0.0000 H   0  0  0  0  0  0  0  0  0  0  0  0
    4.5981   -2.6968    0.0000 H   0  0  0  0  0  0  0  0  0  0  0  0
    3.1951   -1.8868    0.0000 H   0  0  0  0  0  0  0  0  0  0  0  0
    8.1765    2.3494    0.0000 H   0  0  0  0  0  0  0  0  0  0  0  0
    8.1153   -0.1043    0.0000 H   0  0  0  0  0  0  0  0  0  0  0  0
    8.9815    0.0313    0.0000 H   0  0  0  0  0  0  0  0  0  0  0  0
    8.8459    0.8976    0.0000 H   0  0  0  0  0  0  0  0  0  0  0  0
    5.7571   -4.3990    0.0000 H   0  0  0  0  0  0  0  0  0  0  0  0
    8.4242   -3.5273    0.0000 H   0  0  0  0  0  0  0  0  0  0  0  0
    5.8102    3.3780    0.0000 H   0  0  0  0  0  0  0  0  0  0  0  0
    7.4677    3.5008    0.0000 H   0  0  0  0  0  0  0  0  0  0  0  0
    7.6348    4.2802    0.0000 H   0  0  0  0  0  0  0  0  0  0  0  0
    6.2604   -5.9389    0.0000 H   0  0  0  0  0  0  0  0  0  0  0  0
    8.9275   -5.0672    0.0000 H   0  0  0  0  0  0  0  0  0  0  0  0
    7.8456   -6.2730    0.0000 H   0  0  0  0  0  0  0  0  0  0  0  0
    6.5889    5.5316    0.0000 H   0  0  0  0  0  0  0  0  0  0  0  0
    1.6900   -0.0399    0.0000 H   0  0  0  0  0  0  0  0  0  0  0  0
    1.4631   -0.8868    0.0000 H   0  0  0  0  0  0  0  0  0  0  0  0
    2.3100   -1.1138    0.0000 H   0  0  0  0  0  0  0  0  0  0  0  0
  1  4  2  0  0  0  0
  1  5  2  0  0  0  0
  1  7  1  0  0  0  0
  1 19  1  0  0  0  0
  2 30  1  0  0  0  0
  3 30  1  0  0  0  0
  6 20  1  0  0  0  0
  6 31  1  0  0  0  0
  7 11  1  0  0  0  0
  7 14  1  0  0  0  0
  8 18  1  0  0  0  0
  8 22  1  0  0  0  0
  8 36  1  0  0  0  0
  9 15  1  0  0  0  0
  9 22  2  0  0  0  0
 10 22  1  0  0  0  0
 10 26  1  0  0  0  0
 10 42  1  0  0  0  0
 11 12  2  0  0  0  0
 11 17  1  0  0  0  0
 12 13  1  0  0  0  0
 12 16  1  0  0  0  0
 13 14  2  0  0  0  0
 13 15  1  0  0  0  0
 14 32  1  0  0  0  0
 15 18  2  0  0  0  0
 16 20  2  0  0  0  0
 16 33  1  0  0  0  0
 17 21  2  0  0  0  0
 17 34  1  0  0  0  0
 18 23  1  0  0  0  0
 19 24  2  0  0  0  0
 19 25  1  0  0  0  0
 20 21  1  0  0  0  0
 21 35  1  0  0  0  0
 23 37  1  0  0  0  0
 23 38  1  0  0  0  0
 23 39  1  0  0  0  0
 24 27  1  0  0  0  0
 24 40  1  0  0  0  0
 25 28  2  0  0  0  0
 25 41  1  0  0  0  0
 26 30  1  0  0  0  0
 26 43  1  0  0  0  0
 26 44  1  0  0  0  0
 27 29  2  0  0  0  0
 27 45  1  0  0  0  0
 28 29  1  0  0  0  0
 28 46  1  0  0  0  0
 29 47  1  0  0  0  0
 30 48  1  0  0  0  0
 31 49  1  0  0  0  0
 31 50  1  0  0  0  0
 31 51  1  0  0  0  0
M  END
> <PUBCHEM_COMPOUND_CID>
155523121

> <PUBCHEM_COMPOUND_CANONICALIZED>
1

> <PUBCHEM_CACTVS_COMPLEXITY>
701

> <PUBCHEM_CACTVS_HBOND_ACCEPTOR>
7

> <PUBCHEM_CACTVS_HBOND_DONOR>
2

> <PUBCHEM_CACTVS_ROTATABLE_BOND>
7

> <PUBCHEM_CACTVS_SUBSKEYS>
AAADceB7sYBAAAAAAAAAAAAAAAAAAWLAAAAwYAAAAAAAAFgB/AAAHwQQQAAADAzB3hY/1/bJlAKgAzRnZHDCiD2xMqAJ2bg+fJiMbuLE+ZuUMChs0BPI6Cew0PMOgEABAAACAAAAgAIAAAQAAAAAAAAAAA==

> <PUBCHEM_IUPAC_OPENEYE_NAME>
4-[1-(benzenesulfonyl)-5-methoxy-indol-3-yl]-N-(2,2-difluoroethyl)-5-methyl-1H-imidazol-2-amine

> <PUBCHEM_IUPAC_CAS_NAME>
4-[1-(benzenesulfonyl)-5-methoxy-3-indolyl]-N-(2,2-difluoroethyl)-5-methyl-1H-imidazol-2-amine

> <PUBCHEM_IUPAC_NAME_MARKUP>
4-[1-(benzenesulfonyl)-5-methoxyindol-3-yl]-<I>N</I>-(2,2-difluoroethyl)-5-methyl-1<I>H</I>-imidazol-2-amine

> <PUBCHEM_IUPAC_NAME>
4-[1-(benzenesulfonyl)-5-methoxyindol-3-yl]-N-(2,2-difluoroethyl)-5-methyl-1H-imidazol-2-amine

> <PUBCHEM_IUPAC_SYSTEMATIC_NAME>
N-[2,2-bis(fluoranyl)ethyl]-4-[5-methoxy-1-(phenylsulfonyl)indol-3-yl]-5-methyl-1H-imidazol-2-amine

> <PUBCHEM_IUPAC_TRADITIONAL_NAME>
[4-(1-besyl-5-methoxy-indol-3-yl)-5-methyl-1H-imidazol-2-yl]-(2,2-difluoroethyl)amine

> <PUBCHEM_IUPAC_INCHI>
InChI=1S/C21H20F2N4O3S/c1-13-20(26-21(25-13)24-11-19(22)23)17-12-27(18-9-8-14(30-2)10-16(17)18)31(28,29)15-6-4-3-5-7-15/h3-10,12,19H,11H2,1-2H3,(H2,24,25,26)

> <PUBCHEM_IUPAC_INCHIKEY>
WCHJUNPRKBSVFY-UHFFFAOYSA-N

> <PUBCHEM_XLOGP3_AA>
4.6

> <PUBCHEM_EXACT_MASS>
446.12241801

> <PUBCHEM_MOLECULAR_FORMULA>
C21H20F2N4O3S

> <PUBCHEM_MOLECULAR_WEIGHT>
446.5

> <PUBCHEM_OPENEYE_CAN_SMILES>
CC1=C(N=C(N1)NCC(F)F)C2=CN(C3=C2C=C(C=C3)OC)S(=O)(=O)C4=CC=CC=C4

> <PUBCHEM_OPENEYE_ISO_SMILES>
CC1=C(N=C(N1)NCC(F)F)C2=CN(C3=C2C=C(C=C3)OC)S(=O)(=O)C4=CC=CC=C4

> <PUBCHEM_CACTVS_TPSA>
97.4

> <PUBCHEM_MONOISOTOPIC_WEIGHT>
446.12241801

> <PUBCHEM_TOTAL_CHARGE>
0

> <PUBCHEM_HEAVY_ATOM_COUNT>
31

> <PUBCHEM_ATOM_DEF_STEREO_COUNT>
0

> <PUBCHEM_ATOM_UDEF_STEREO_COUNT>
0

> <PUBCHEM_BOND_DEF_STEREO_COUNT>
0

> <PUBCHEM_BOND_UDEF_STEREO_COUNT>
0

> <PUBCHEM_ISOTOPIC_ATOM_COUNT>
0

> <PUBCHEM_COMPONENT_COUNT>
1

> <PUBCHEM_CACTVS_TAUTO_COUNT>
-1

> <PUBCHEM_COORDINATE_TYPE>
1
5
255

> <PUBCHEM_BONDANNOTATIONS>
11  12  8
11  17  8
12  13  8
12  16  8
13  14  8
15  18  8
16  20  8
17  21  8
19  24  8
19  25  8
20  21  8
24  27  8
25  28  8
27  29  8
28  29  8
7  11  8
7  14  8
8  18  8
8  22  8
9  15  8
9  22  8

$$$$
