53248256
  -OEChem-09292322312D

 67 71  0     1  0  0  0  0  0999 V2000
   11.6361    1.1108    0.0000 F   0  0  0  0  0  0  0  0  0  0  0  0
   16.2787   -1.4280    0.0000 O   0  0  0  0  0  0  0  0  0  0  0  0
    8.3374    2.1686    0.0000 O   0  0  0  0  0  0  0  0  0  0  0  0
   12.9800   -0.3703    0.0000 N   0  0  0  0  0  0  0  0  0  0  0  0
   14.9347    0.0531    0.0000 N   0  0  0  0  0  0  0  0  0  0  0  0
    8.7040    0.4758    0.0000 N   0  0  0  0  0  0  0  0  0  0  0  0
   13.6520   -1.1108    0.0000 C   0  0  0  0  0  0  0  0  0  0  0  0
   13.2854    0.5820    0.0000 C   0  0  0  0  0  0  0  0  0  0  0  0
   14.6294   -0.8992    0.0000 C   0  0  0  0  0  0  0  0  0  0  0  0
   14.2627    0.7936    0.0000 C   0  0  0  0  0  0  0  0  0  0  0  0
   12.0027   -0.5820    0.0000 C   0  0  0  0  0  0  0  0  0  0  0  0
   11.3307    0.1586    0.0000 C   0  0  3  0  0  0  0  0  0  0  0  0
   15.9121    0.2648    0.0000 C   0  0  0  0  0  0  0  0  0  0  0  0
   10.3534   -0.0531    0.0000 C   0  0  0  0  0  0  0  0  0  0  0  0
    9.6814    0.6875    0.0000 C   0  0  0  0  0  0  0  0  0  0  0  0
   16.5841   -0.4758    0.0000 C   0  0  0  0  0  0  0  0  0  0  0  0
   16.2174    1.2170    0.0000 C   0  0  0  0  0  0  0  0  0  0  0  0
    5.3364    1.5411    0.0000 C   0  0  0  0  0  0  0  0  0  0  0  0
    4.5274    2.1289    0.0000 C   0  0  0  0  0  0  0  0  0  0  0  0
    5.0274    0.5901    0.0000 C   0  0  0  0  0  0  0  0  0  0  0  0
    3.7183    1.5411    0.0000 C   0  0  0  0  0  0  0  0  0  0  0  0
    4.0274    0.5901    0.0000 C   0  0  0  0  0  0  0  0  0  0  0  0
    7.0547    1.0047    0.0000 C   0  0  0  0  0  0  0  0  0  0  0  0
    6.3518    1.7734    0.0000 C   0  0  0  0  0  0  0  0  0  0  0  0
   17.5614   -0.2641    0.0000 C   0  0  0  0  0  0  0  0  0  0  0  0
    5.7123   -0.1947    0.0000 C   0  0  0  0  0  0  0  0  0  0  0  0
    8.0321    1.2164    0.0000 C   0  0  0  0  0  0  0  0  0  0  0  0
   17.1947    1.4287    0.0000 C   0  0  0  0  0  0  0  0  0  0  0  0
    6.7328    0.0140    0.0000 C   0  0  0  0  0  0  0  0  0  0  0  0
    2.7029    1.7734    0.0000 C   0  0  0  0  0  0  0  0  0  0  0  0
    3.3424   -0.1947    0.0000 C   0  0  0  0  0  0  0  0  0  0  0  0
   17.8667    0.6881    0.0000 C   0  0  0  0  0  0  0  0  0  0  0  0
    2.0000    1.0047    0.0000 C   0  0  0  0  0  0  0  0  0  0  0  0
    2.3219    0.0140    0.0000 C   0  0  0  0  0  0  0  0  0  0  0  0
   16.9507   -2.1686    0.0000 C   0  0  0  0  0  0  0  0  0  0  0  0
   13.1275   -1.4414    0.0000 H   0  0  0  0  0  0  0  0  0  0  0  0
   13.8865   -1.6848    0.0000 H   0  0  0  0  0  0  0  0  0  0  0  0
   13.2614    1.2015    0.0000 H   0  0  0  0  0  0  0  0  0  0  0  0
   12.6711    0.6659    0.0000 H   0  0  0  0  0  0  0  0  0  0  0  0
   14.6534   -1.5187    0.0000 H   0  0  0  0  0  0  0  0  0  0  0  0
   15.2437   -0.9831    0.0000 H   0  0  0  0  0  0  0  0  0  0  0  0
   14.7873    1.1242    0.0000 H   0  0  0  0  0  0  0  0  0  0  0  0
   14.0283    1.3676    0.0000 H   0  0  0  0  0  0  0  0  0  0  0  0
   11.4782   -0.9125    0.0000 H   0  0  0  0  0  0  0  0  0  0  0  0
   12.2372   -1.1559    0.0000 H   0  0  0  0  0  0  0  0  0  0  0  0
   11.9367    0.2898    0.0000 H   0  0  0  0  0  0  0  0  0  0  0  0
    9.8289   -0.3837    0.0000 H   0  0  0  0  0  0  0  0  0  0  0  0
   10.5878   -0.6270    0.0000 H   0  0  0  0  0  0  0  0  0  0  0  0
   10.2059    1.0180    0.0000 H   0  0  0  0  0  0  0  0  0  0  0  0
    9.4469    1.2614    0.0000 H   0  0  0  0  0  0  0  0  0  0  0  0
   15.8008    1.6762    0.0000 H   0  0  0  0  0  0  0  0  0  0  0  0
    4.9422    2.5896    0.0000 H   0  0  0  0  0  0  0  0  0  0  0  0
    4.1125    2.5896    0.0000 H   0  0  0  0  0  0  0  0  0  0  0  0
    8.5147   -0.1146    0.0000 H   0  0  0  0  0  0  0  0  0  0  0  0
    6.5365    2.3652    0.0000 H   0  0  0  0  0  0  0  0  0  0  0  0
    5.5139   -0.7821    0.0000 H   0  0  0  0  0  0  0  0  0  0  0  0
   17.9780   -0.7233    0.0000 H   0  0  0  0  0  0  0  0  0  0  0  0
   17.3841    2.0191    0.0000 H   0  0  0  0  0  0  0  0  0  0  0  0
    7.1459   -0.4483    0.0000 H   0  0  0  0  0  0  0  0  0  0  0  0
    2.5182    2.3652    0.0000 H   0  0  0  0  0  0  0  0  0  0  0  0
    3.5408   -0.7821    0.0000 H   0  0  0  0  0  0  0  0  0  0  0  0
   18.4727    0.8194    0.0000 H   0  0  0  0  0  0  0  0  0  0  0  0
    1.3940    1.1359    0.0000 H   0  0  0  0  0  0  0  0  0  0  0  0
    1.9088   -0.4483    0.0000 H   0  0  0  0  0  0  0  0  0  0  0  0
   16.4915   -2.5852    0.0000 H   0  0  0  0  0  0  0  0  0  0  0  0
   17.3673   -2.6277    0.0000 H   0  0  0  0  0  0  0  0  0  0  0  0
   17.4098   -1.7520    0.0000 H   0  0  0  0  0  0  0  0  0  0  0  0
  1 12  1  0  0  0  0
  2 16  1  0  0  0  0
  2 35  1  0  0  0  0
  3 27  2  0  0  0  0
  4  7  1  0  0  0  0
  4  8  1  0  0  0  0
  4 11  1  0  0  0  0
  5  9  1  0  0  0  0
  5 10  1  0  0  0  0
  5 13  1  0  0  0  0
  6 15  1  0  0  0  0
  6 27  1  0  0  0  0
  6 54  1  0  0  0  0
  7  9  1  0  0  0  0
  7 36  1  0  0  0  0
  7 37  1  0  0  0  0
  8 10  1  0  0  0  0
  8 38  1  0  0  0  0
  8 39  1  0  0  0  0
  9 40  1  0  0  0  0
  9 41  1  0  0  0  0
 10 42  1  0  0  0  0
 10 43  1  0  0  0  0
 11 12  1  0  0  0  0
 11 44  1  0  0  0  0
 11 45  1  0  0  0  0
 12 14  1  0  0  0  0
 12 46  1  0  0  0  0
 13 16  1  0  0  0  0
 13 17  2  0  0  0  0
 14 15  1  0  0  0  0
 14 47  1  0  0  0  0
 14 48  1  0  0  0  0
 15 49  1  0  0  0  0
 15 50  1  0  0  0  0
 16 25  2  0  0  0  0
 17 28  1  0  0  0  0
 17 51  1  0  0  0  0
 18 19  1  0  0  0  0
 18 20  2  0  0  0  0
 18 24  1  0  0  0  0
 19 21  1  0  0  0  0
 19 52  1  0  0  0  0
 19 53  1  0  0  0  0
 20 22  1  0  0  0  0
 20 26  1  0  0  0  0
 21 22  1  0  0  0  0
 21 30  2  0  0  0  0
 22 31  2  0  0  0  0
 23 24  2  0  0  0  0
 23 27  1  0  0  0  0
 23 29  1  0  0  0  0
 24 55  1  0  0  0  0
 25 32  1  0  0  0  0
 25 57  1  0  0  0  0
 26 29  2  0  0  0  0
 26 56  1  0  0  0  0
 28 32  2  0  0  0  0
 28 58  1  0  0  0  0
 29 59  1  0  0  0  0
 30 33  1  0  0  0  0
 30 60  1  0  0  0  0
 31 34  1  0  0  0  0
 31 61  1  0  0  0  0
 32 62  1  0  0  0  0
 33 34  2  0  0  0  0
 33 63  1  0  0  0  0
 34 64  1  0  0  0  0
 35 65  1  0  0  0  0
 35 66  1  0  0  0  0
 35 67  1  0  0  0  0
M  END
> <PUBCHEM_COMPOUND_CID>
53248256

> <PUBCHEM_COMPOUND_CANONICALIZED>
1

> <PUBCHEM_CACTVS_COMPLEXITY>
685

> <PUBCHEM_CACTVS_HBOND_ACCEPTOR>
5

> <PUBCHEM_CACTVS_HBOND_DONOR>
1

> <PUBCHEM_CACTVS_ROTATABLE_BOND>
8

> <PUBCHEM_CACTVS_SUBSKEYS>
AAADcfB7MQAAAAAAAAAAAAAAAAAAAYAAAAA8YMEAAAAAAGABUAAAHwAQAAAADAzBmAYyxoPABACIAiVSUACCCAAlIgAIiIEPbMgOZjLEtZuVMShk1hHY6YeYyMCOwAACAAAQEACAAAQAACAgAQAACAAAAA==

> <PUBCHEM_IUPAC_OPENEYE_NAME>
N-[3-fluoro-4-[4-(2-methoxyphenyl)piperazin-1-yl]butyl]-9H-fluorene-2-carboxamide

> <PUBCHEM_IUPAC_CAS_NAME>
N-[3-fluoro-4-[4-(2-methoxyphenyl)-1-piperazinyl]butyl]-9H-fluorene-2-carboxamide

> <PUBCHEM_IUPAC_NAME_MARKUP>
<I>N</I>-[3-fluoro-4-[4-(2-methoxyphenyl)piperazin-1-yl]butyl]-9<I>H</I>-fluorene-2-carboxamide

> <PUBCHEM_IUPAC_NAME>
N-[3-fluoro-4-[4-(2-methoxyphenyl)piperazin-1-yl]butyl]-9H-fluorene-2-carboxamide

> <PUBCHEM_IUPAC_SYSTEMATIC_NAME>
N-[3-fluoranyl-4-[4-(2-methoxyphenyl)piperazin-1-yl]butyl]-9H-fluorene-2-carboxamide

> <PUBCHEM_IUPAC_TRADITIONAL_NAME>
N-[3-fluoro-4-[4-(2-methoxyphenyl)piperazino]butyl]-9H-fluorene-2-carboxamide

> <PUBCHEM_IUPAC_INCHI>
InChI=1S/C29H32FN3O2/c1-35-28-9-5-4-8-27(28)33-16-14-32(15-17-33)20-24(30)12-13-31-29(34)22-10-11-26-23(19-22)18-21-6-2-3-7-25(21)26/h2-11,19,24H,12-18,20H2,1H3,(H,31,34)

> <PUBCHEM_IUPAC_INCHIKEY>
QULJKIQETSQZKV-UHFFFAOYSA-N

> <PUBCHEM_XLOGP3_AA>
5.2

> <PUBCHEM_EXACT_MASS>
473.24785543

> <PUBCHEM_MOLECULAR_FORMULA>
C29H32FN3O2

> <PUBCHEM_MOLECULAR_WEIGHT>
473.6

> <PUBCHEM_OPENEYE_CAN_SMILES>
COC1=CC=CC=C1N2CCN(CC2)CC(CCNC(=O)C3=CC4=C(C=C3)C5=CC=CC=C5C4)F

> <PUBCHEM_OPENEYE_ISO_SMILES>
COC1=CC=CC=C1N2CCN(CC2)CC(CCNC(=O)C3=CC4=C(C=C3)C5=CC=CC=C5C4)F

> <PUBCHEM_CACTVS_TPSA>
44.8

> <PUBCHEM_MONOISOTOPIC_WEIGHT>
473.24785543

> <PUBCHEM_TOTAL_CHARGE>
0

> <PUBCHEM_HEAVY_ATOM_COUNT>
35

> <PUBCHEM_ATOM_DEF_STEREO_COUNT>
0

> <PUBCHEM_ATOM_UDEF_STEREO_COUNT>
1

> <PUBCHEM_BOND_DEF_STEREO_COUNT>
0

> <PUBCHEM_BOND_UDEF_STEREO_COUNT>
0

> <PUBCHEM_ISOTOPIC_ATOM_COUNT>
0

> <PUBCHEM_COMPONENT_COUNT>
1

> <PUBCHEM_CACTVS_TAUTO_COUNT>
-1

> <PUBCHEM_COORDINATE_TYPE>
1
5
255

> <PUBCHEM_BONDANNOTATIONS>
12  1  3
13  16  8
13  17  8
16  25  8
17  28  8
18  20  8
18  24  8
20  26  8
21  22  8
21  30  8
22  31  8
23  24  8
23  29  8
25  32  8
26  29  8
28  32  8
30  33  8
31  34  8
33  34  8

$$$$
