10450593
  -OEChem-09292322092D

 48 50  0     1  0  0  0  0  0999 V2000
    2.0000   -5.5000    0.0000 F   0  0  0  0  0  0  0  0  0  0  0  0
    5.4641   -3.5000    0.0000 O   0  0  0  0  0  0  0  0  0  0  0  0
    8.0622    2.0000    0.0000 N   0  0  0  0  0  0  0  0  0  0  0  0
    6.3301   -1.0000    0.0000 N   0  0  0  0  0  0  0  0  0  0  0  0
    8.0622   -1.0000    0.0000 N   0  0  0  0  0  0  0  0  0  0  0  0
    8.9282    2.5000    0.0000 C   0  0  2  0  0  0  0  0  0  0  0  0
    8.9282    3.5000    0.0000 C   0  0  0  0  0  0  0  0  0  0  0  0
    9.7942    2.0000    0.0000 C   0  0  0  0  0  0  0  0  0  0  0  0
    8.0622    1.0000    0.0000 C   0  0  0  0  0  0  0  0  0  0  0  0
    8.0622    4.0000    0.0000 C   0  0  0  0  0  0  0  0  0  0  0  0
    9.7942    4.0000    0.0000 C   0  0  0  0  0  0  0  0  0  0  0  0
    7.1962    0.5000    0.0000 C   0  0  0  0  0  0  0  0  0  0  0  0
    7.1962   -0.5000    0.0000 C   0  0  0  0  0  0  0  0  0  0  0  0
    6.3301   -2.0000    0.0000 C   0  0  0  0  0  0  0  0  0  0  0  0
    8.9282    0.5000    0.0000 C   0  0  0  0  0  0  0  0  0  0  0  0
    8.0622    5.0000    0.0000 C   0  0  0  0  0  0  0  0  0  0  0  0
    9.7942    5.0000    0.0000 C   0  0  0  0  0  0  0  0  0  0  0  0
    5.4641   -2.5000    0.0000 C   0  0  0  0  0  0  0  0  0  0  0  0
    8.9282    5.5000    0.0000 C   0  0  0  0  0  0  0  0  0  0  0  0
    8.9282   -0.5000    0.0000 C   0  0  0  0  0  0  0  0  0  0  0  0
    4.5981   -4.0000    0.0000 C   0  0  0  0  0  0  0  0  0  0  0  0
    3.7320   -3.5000    0.0000 C   0  0  0  0  0  0  0  0  0  0  0  0
    4.5981   -5.0000    0.0000 C   0  0  0  0  0  0  0  0  0  0  0  0
    2.8660   -4.0000    0.0000 C   0  0  0  0  0  0  0  0  0  0  0  0
    3.7320   -5.5000    0.0000 C   0  0  0  0  0  0  0  0  0  0  0  0
    2.8660   -5.0000    0.0000 C   0  0  0  0  0  0  0  0  0  0  0  0
    8.9282    1.8800    0.0000 H   0  0  0  0  0  0  0  0  0  0  0  0
    7.5252    2.3100    0.0000 H   0  0  0  0  0  0  0  0  0  0  0  0
    9.4842    1.4631    0.0000 H   0  0  0  0  0  0  0  0  0  0  0  0
   10.3312    1.6900    0.0000 H   0  0  0  0  0  0  0  0  0  0  0  0
   10.1042    2.5369    0.0000 H   0  0  0  0  0  0  0  0  0  0  0  0
    7.5252    3.6900    0.0000 H   0  0  0  0  0  0  0  0  0  0  0  0
   10.3312    3.6900    0.0000 H   0  0  0  0  0  0  0  0  0  0  0  0
    6.6592    0.8100    0.0000 H   0  0  0  0  0  0  0  0  0  0  0  0
    6.5422   -2.5826    0.0000 H   0  0  0  0  0  0  0  0  0  0  0  0
    6.9407   -1.8923    0.0000 H   0  0  0  0  0  0  0  0  0  0  0  0
    9.4651    0.8100    0.0000 H   0  0  0  0  0  0  0  0  0  0  0  0
    5.7932   -0.6900    0.0000 H   0  0  0  0  0  0  0  0  0  0  0  0
    5.2520   -1.9174    0.0000 H   0  0  0  0  0  0  0  0  0  0  0  0
    4.8535   -2.6077    0.0000 H   0  0  0  0  0  0  0  0  0  0  0  0
    7.5252    5.3100    0.0000 H   0  0  0  0  0  0  0  0  0  0  0  0
   10.3312    5.3100    0.0000 H   0  0  0  0  0  0  0  0  0  0  0  0
    9.4651   -0.8100    0.0000 H   0  0  0  0  0  0  0  0  0  0  0  0
    8.9282    6.1200    0.0000 H   0  0  0  0  0  0  0  0  0  0  0  0
    3.7320   -2.8800    0.0000 H   0  0  0  0  0  0  0  0  0  0  0  0
    5.1350   -5.3100    0.0000 H   0  0  0  0  0  0  0  0  0  0  0  0
    2.3291   -3.6900    0.0000 H   0  0  0  0  0  0  0  0  0  0  0  0
    3.7320   -6.1200    0.0000 H   0  0  0  0  0  0  0  0  0  0  0  0
  1 26  1  0  0  0  0
  2 18  1  0  0  0  0
  2 21  1  0  0  0  0
  6  3  1  6  0  0  0
  3  9  1  0  0  0  0
  3 28  1  0  0  0  0
  4 13  1  0  0  0  0
  4 14  1  0  0  0  0
  4 38  1  0  0  0  0
  5 13  2  0  0  0  0
  5 20  1  0  0  0  0
  6  7  1  0  0  0  0
  6  8  1  0  0  0  0
  6 27  1  0  0  0  0
  7 10  2  0  0  0  0
  7 11  1  0  0  0  0
  8 29  1  0  0  0  0
  8 30  1  0  0  0  0
  8 31  1  0  0  0  0
  9 12  2  0  0  0  0
  9 15  1  0  0  0  0
 10 16  1  0  0  0  0
 10 32  1  0  0  0  0
 11 17  2  0  0  0  0
 11 33  1  0  0  0  0
 12 13  1  0  0  0  0
 12 34  1  0  0  0  0
 14 18  1  0  0  0  0
 14 35  1  0  0  0  0
 14 36  1  0  0  0  0
 15 20  2  0  0  0  0
 15 37  1  0  0  0  0
 16 19  2  0  0  0  0
 16 41  1  0  0  0  0
 17 19  1  0  0  0  0
 17 42  1  0  0  0  0
 18 39  1  0  0  0  0
 18 40  1  0  0  0  0
 19 44  1  0  0  0  0
 20 43  1  0  0  0  0
 21 22  2  0  0  0  0
 21 23  1  0  0  0  0
 22 24  1  0  0  0  0
 22 45  1  0  0  0  0
 23 25  2  0  0  0  0
 23 46  1  0  0  0  0
 24 26  2  0  0  0  0
 24 47  1  0  0  0  0
 25 26  1  0  0  0  0
 25 48  1  0  0  0  0
M  END
> <PUBCHEM_COMPOUND_CID>
10450593

> <PUBCHEM_COMPOUND_CANONICALIZED>
1

> <PUBCHEM_CACTVS_COMPLEXITY>
384

> <PUBCHEM_CACTVS_HBOND_ACCEPTOR>
5

> <PUBCHEM_CACTVS_HBOND_DONOR>
2

> <PUBCHEM_CACTVS_ROTATABLE_BOND>
8

> <PUBCHEM_CACTVS_SUBSKEYS>
AAADceB7IQAAAAAAAAAAAAAAAAAAAAAAAAA8YIAAAAAAAAAB0AAAHwAQAAAADCzhmg4/9pLIFACgAjZnZACCiCkxIiAJ2KA+bJiOJmLE+duHPCjs0BPY6CeQwIAOAAAAAAAAAAAAAAAAAAAAAAAAAAAAAA==

> <PUBCHEM_IUPAC_OPENEYE_NAME>
N2-[2-(4-fluorophenoxy)ethyl]-N4-[(1S)-1-phenylethyl]pyridine-2,4-diamine

> <PUBCHEM_IUPAC_CAS_NAME>
N2-[2-(4-fluorophenoxy)ethyl]-N4-[(1S)-1-phenylethyl]pyridine-2,4-diamine

> <PUBCHEM_IUPAC_NAME_MARKUP>
2-<I>N</I>-[2-(4-fluorophenoxy)ethyl]-4-<I>N</I>-[(1<I>S</I>)-1-phenylethyl]pyridine-2,4-diamine

> <PUBCHEM_IUPAC_NAME>
2-N-[2-(4-fluorophenoxy)ethyl]-4-N-[(1S)-1-phenylethyl]pyridine-2,4-diamine

> <PUBCHEM_IUPAC_SYSTEMATIC_NAME>
N2-[2-(4-fluoranylphenoxy)ethyl]-N4-[(1S)-1-phenylethyl]pyridine-2,4-diamine

> <PUBCHEM_IUPAC_TRADITIONAL_NAME>
2-(4-fluorophenoxy)ethyl-[4-[[(1S)-1-phenylethyl]amino]-2-pyridyl]amine

> <PUBCHEM_IUPAC_INCHI>
InChI=1S/C21H22FN3O/c1-16(17-5-3-2-4-6-17)25-19-11-12-23-21(15-19)24-13-14-26-20-9-7-18(22)8-10-20/h2-12,15-16H,13-14H2,1H3,(H2,23,24,25)/t16-/m0/s1

> <PUBCHEM_IUPAC_INCHIKEY>
RNAQUCCCIRBEBB-INIZCTEOSA-N

> <PUBCHEM_XLOGP3_AA>
4.8

> <PUBCHEM_EXACT_MASS>
351.17469050

> <PUBCHEM_MOLECULAR_FORMULA>
C21H22FN3O

> <PUBCHEM_MOLECULAR_WEIGHT>
351.4

> <PUBCHEM_OPENEYE_CAN_SMILES>
CC(C1=CC=CC=C1)NC2=CC(=NC=C2)NCCOC3=CC=C(C=C3)F

> <PUBCHEM_OPENEYE_ISO_SMILES>
C[C@@H](C1=CC=CC=C1)NC2=CC(=NC=C2)NCCOC3=CC=C(C=C3)F

> <PUBCHEM_CACTVS_TPSA>
46.2

> <PUBCHEM_MONOISOTOPIC_WEIGHT>
351.17469050

> <PUBCHEM_TOTAL_CHARGE>
0

> <PUBCHEM_HEAVY_ATOM_COUNT>
26

> <PUBCHEM_ATOM_DEF_STEREO_COUNT>
1

> <PUBCHEM_ATOM_UDEF_STEREO_COUNT>
0

> <PUBCHEM_BOND_DEF_STEREO_COUNT>
0

> <PUBCHEM_BOND_UDEF_STEREO_COUNT>
0

> <PUBCHEM_ISOTOPIC_ATOM_COUNT>
0

> <PUBCHEM_COMPONENT_COUNT>
1

> <PUBCHEM_CACTVS_TAUTO_COUNT>
-1

> <PUBCHEM_COORDINATE_TYPE>
1
5
255

> <PUBCHEM_BONDANNOTATIONS>
10  16  8
11  17  8
12  13  8
15  20  8
16  19  8
17  19  8
21  22  8
21  23  8
22  24  8
23  25  8
24  26  8
25  26  8
6  3  6
5  13  8
5  20  8
7  10  8
7  11  8
9  12  8
9  15  8

$$$$
