10469437
  -OEChem-09292322132D

 41 44  0     1  0  0  0  0  0999 V2000
    4.8830   -2.7541    0.0000 O   0  0  0  0  0  0  0  0  0  0  0  0
    3.0814    2.1394    0.0000 N   0  0  3  0  0  0  0  0  0  0  0  0
    2.9519    0.4122    0.0000 C   0  0  0  0  0  0  0  0  0  0  0  0
    2.5180    1.3132    0.0000 C   0  0  0  0  0  0  0  0  0  0  0  0
    3.9491    0.3375    0.0000 C   0  0  0  0  0  0  0  0  0  0  0  0
    4.0786    2.0647    0.0000 C   0  0  0  0  0  0  0  0  0  0  0  0
    4.3830   -0.5635    0.0000 C   0  0  0  0  0  0  0  0  0  0  0  0
    4.5125    1.1637    0.0000 C   0  0  0  0  0  0  0  0  0  0  0  0
    3.7595   -1.3453    0.0000 C   0  0  0  0  0  0  0  0  0  0  0  0
    2.6475    3.0404    0.0000 C   0  0  0  0  0  0  0  0  0  0  0  0
    5.3830   -0.5635    0.0000 C   0  0  0  0  0  0  0  0  0  0  0  0
    3.9820   -2.3202    0.0000 C   0  0  0  0  0  0  0  0  0  0  0  0
    6.0065   -1.3453    0.0000 C   0  0  0  0  0  0  0  0  0  0  0  0
    5.7840   -2.3202    0.0000 C   0  0  0  0  0  0  0  0  0  0  0  0
    2.7690   -1.0230    0.0000 C   0  0  0  0  0  0  0  0  0  0  0  0
    3.2295   -3.0404    0.0000 C   0  0  0  0  0  0  0  0  0  0  0  0
    6.9970   -1.0230    0.0000 C   0  0  0  0  0  0  0  0  0  0  0  0
    2.0000   -1.7255    0.0000 C   0  0  0  0  0  0  0  0  0  0  0  0
    6.5365   -3.0404    0.0000 C   0  0  0  0  0  0  0  0  0  0  0  0
    2.2318   -2.7410    0.0000 C   0  0  0  0  0  0  0  0  0  0  0  0
    7.7660   -1.7256    0.0000 C   0  0  0  0  0  0  0  0  0  0  0  0
    7.5342   -2.7411    0.0000 C   0  0  0  0  0  0  0  0  0  0  0  0
    2.3551    0.2443    0.0000 H   0  0  0  0  0  0  0  0  0  0  0  0
    3.0137   -0.2047    0.0000 H   0  0  0  0  0  0  0  0  0  0  0  0
    2.0742    1.7461    0.0000 H   0  0  0  0  0  0  0  0  0  0  0  0
    2.0146    0.9513    0.0000 H   0  0  0  0  0  0  0  0  0  0  0  0
    4.6754    2.2326    0.0000 H   0  0  0  0  0  0  0  0  0  0  0  0
    4.0168    2.6816    0.0000 H   0  0  0  0  0  0  0  0  0  0  0  0
    5.1307    1.1174    0.0000 H   0  0  0  0  0  0  0  0  0  0  0  0
    5.6520   -0.0049    0.0000 H   0  0  0  0  0  0  0  0  0  0  0  0
    3.2061    3.3094    0.0000 H   0  0  0  0  0  0  0  0  0  0  0  0
    2.3785    3.5990    0.0000 H   0  0  0  0  0  0  0  0  0  0  0  0
    2.0889    2.7714    0.0000 H   0  0  0  0  0  0  0  0  0  0  0  0
    2.6380   -0.4169    0.0000 H   0  0  0  0  0  0  0  0  0  0  0  0
    3.3744   -3.6432    0.0000 H   0  0  0  0  0  0  0  0  0  0  0  0
    7.1280   -0.4170    0.0000 H   0  0  0  0  0  0  0  0  0  0  0  0
    1.4083   -1.5405    0.0000 H   0  0  0  0  0  0  0  0  0  0  0  0
    6.3916   -3.6432    0.0000 H   0  0  0  0  0  0  0  0  0  0  0  0
    1.7789   -3.1645    0.0000 H   0  0  0  0  0  0  0  0  0  0  0  0
    8.3578   -1.5405    0.0000 H   0  0  0  0  0  0  0  0  0  0  0  0
    7.9871   -3.1645    0.0000 H   0  0  0  0  0  0  0  0  0  0  0  0
  1 12  1  0  0  0  0
  1 14  1  0  0  0  0
  2  4  1  0  0  0  0
  2  6  1  0  0  0  0
  2 10  1  0  0  0  0
  3  4  1  0  0  0  0
  3  5  1  0  0  0  0
  3 23  1  0  0  0  0
  3 24  1  0  0  0  0
  4 25  1  0  0  0  0
  4 26  1  0  0  0  0
  5  7  1  0  0  0  0
  5  8  2  0  0  0  0
  6  8  1  0  0  0  0
  6 27  1  0  0  0  0
  6 28  1  0  0  0  0
  7  9  1  0  0  0  0
  7 11  2  0  0  0  0
  8 29  1  0  0  0  0
  9 12  1  0  0  0  0
  9 15  2  0  0  0  0
 10 31  1  0  0  0  0
 10 32  1  0  0  0  0
 10 33  1  0  0  0  0
 11 13  1  0  0  0  0
 11 30  1  0  0  0  0
 12 16  2  0  0  0  0
 13 14  1  0  0  0  0
 13 17  2  0  0  0  0
 14 19  2  0  0  0  0
 15 18  1  0  0  0  0
 15 34  1  0  0  0  0
 16 20  1  0  0  0  0
 16 35  1  0  0  0  0
 17 21  1  0  0  0  0
 17 36  1  0  0  0  0
 18 20  2  0  0  0  0
 18 37  1  0  0  0  0
 19 22  1  0  0  0  0
 19 38  1  0  0  0  0
 20 39  1  0  0  0  0
 21 22  2  0  0  0  0
 21 40  1  0  0  0  0
 22 41  1  0  0  0  0
M  END
> <PUBCHEM_COMPOUND_CID>
10469437

> <PUBCHEM_COMPOUND_CANONICALIZED>
1

> <PUBCHEM_CACTVS_COMPLEXITY>
466

> <PUBCHEM_CACTVS_HBOND_ACCEPTOR>
2

> <PUBCHEM_CACTVS_HBOND_DONOR>
0

> <PUBCHEM_CACTVS_ROTATABLE_BOND>
1

> <PUBCHEM_CACTVS_SUBSKEYS>
AAADceB6IAAAAAAAAAAAAAAAAAAAAAAAAAAwYIAABAAAAAABQAAAHgAAAAAADATBmAQyBoMABACAAiBCAACCCAAgIAAIiAAOCIgMJiKEsRqGOCCkwBGIqAeQwKAOAAAAAAAIAAAAAAAAABAAAAAAAAAAAA==

> <PUBCHEM_IUPAC_OPENEYE_NAME>
4-benzo[b][1]benzoxepin-5-yl-1-methyl-3,6-dihydro-2H-pyridine

> <PUBCHEM_IUPAC_CAS_NAME>
4-(5-benzo[b][1]benzoxepinyl)-1-methyl-3,6-dihydro-2H-pyridine

> <PUBCHEM_IUPAC_NAME_MARKUP>
4-benzo[b][1]benzoxepin-5-yl-1-methyl-3,6-dihydro-2<I>H</I>-pyridine

> <PUBCHEM_IUPAC_NAME>
4-benzo[b][1]benzoxepin-5-yl-1-methyl-3,6-dihydro-2H-pyridine

> <PUBCHEM_IUPAC_SYSTEMATIC_NAME>
4-benzo[b][1]benzoxepin-5-yl-1-methyl-3,6-dihydro-2H-pyridine

> <PUBCHEM_IUPAC_TRADITIONAL_NAME>
4-benzo[b][1]benzoxepin-5-yl-1-methyl-3,6-dihydro-2H-pyridine

> <PUBCHEM_IUPAC_INCHI>
InChI=1S/C20H19NO/c1-21-12-10-15(11-13-21)18-14-16-6-2-4-8-19(16)22-20-9-5-3-7-17(18)20/h2-10,14H,11-13H2,1H3

> <PUBCHEM_IUPAC_INCHIKEY>
RLKXCFDJQXIBBO-UHFFFAOYSA-N

> <PUBCHEM_XLOGP3_AA>
3.7

> <PUBCHEM_EXACT_MASS>
289.146664230

> <PUBCHEM_MOLECULAR_FORMULA>
C20H19NO

> <PUBCHEM_MOLECULAR_WEIGHT>
289.4

> <PUBCHEM_OPENEYE_CAN_SMILES>
CN1CCC(=CC1)C2=CC3=CC=CC=C3OC4=CC=CC=C42

> <PUBCHEM_OPENEYE_ISO_SMILES>
CN1CCC(=CC1)C2=CC3=CC=CC=C3OC4=CC=CC=C42

> <PUBCHEM_CACTVS_TPSA>
12.5

> <PUBCHEM_MONOISOTOPIC_WEIGHT>
289.146664230

> <PUBCHEM_TOTAL_CHARGE>
0

> <PUBCHEM_HEAVY_ATOM_COUNT>
22

> <PUBCHEM_ATOM_DEF_STEREO_COUNT>
0

> <PUBCHEM_ATOM_UDEF_STEREO_COUNT>
0

> <PUBCHEM_BOND_DEF_STEREO_COUNT>
0

> <PUBCHEM_BOND_UDEF_STEREO_COUNT>
0

> <PUBCHEM_ISOTOPIC_ATOM_COUNT>
0

> <PUBCHEM_COMPONENT_COUNT>
1

> <PUBCHEM_CACTVS_TAUTO_COUNT>
-1

> <PUBCHEM_COORDINATE_TYPE>
1
5
255

> <PUBCHEM_BONDANNOTATIONS>
12  16  8
13  14  8
13  17  8
14  19  8
15  18  8
16  20  8
17  21  8
18  20  8
19  22  8
21  22  8
9  12  8
9  15  8

$$$$
