44222488
  -OEChem-09292322282D

 54 57  0     0  0  0  0  0  0999 V2000
   12.7619   -4.3971    0.0000 Cl  0  0  0  0  0  0  0  0  0  0  0  0
    9.7619    0.7990    0.0000 N   0  0  0  0  0  0  0  0  0  0  0  0
   10.7619   -0.9330    0.0000 N   0  0  0  0  0  0  0  0  0  0  0  0
    3.7320    2.8971    0.0000 N   0  0  0  0  0  0  0  0  0  0  0  0
    4.6783    2.5924    0.0000 N   0  0  0  0  0  0  0  0  0  0  0  0
    9.2619   -0.0670    0.0000 C   0  0  0  0  0  0  0  0  0  0  0  0
   10.7619    0.7990    0.0000 C   0  0  0  0  0  0  0  0  0  0  0  0
    9.2619    1.6651    0.0000 C   0  0  0  0  0  0  0  0  0  0  0  0
    9.7619   -0.9330    0.0000 C   0  0  0  0  0  0  0  0  0  0  0  0
   11.2619   -0.0670    0.0000 C   0  0  0  0  0  0  0  0  0  0  0  0
    8.2619    1.6651    0.0000 C   0  0  0  0  0  0  0  0  0  0  0  0
    7.7619    2.5311    0.0000 C   0  0  0  0  0  0  0  0  0  0  0  0
    6.7619    2.5311    0.0000 C   0  0  0  0  0  0  0  0  0  0  0  0
   11.2619   -1.7990    0.0000 C   0  0  0  0  0  0  0  0  0  0  0  0
    6.2619    3.3971    0.0000 C   0  0  0  0  0  0  0  0  0  0  0  0
   12.2619   -1.7990    0.0000 C   0  0  0  0  0  0  0  0  0  0  0  0
   10.7619   -2.6651    0.0000 C   0  0  0  0  0  0  0  0  0  0  0  0
    5.2619    3.3971    0.0000 C   0  0  0  0  0  0  0  0  0  0  0  0
    4.6783    4.2018    0.0000 C   0  0  0  0  0  0  0  0  0  0  0  0
   12.7619   -2.6651    0.0000 C   0  0  0  0  0  0  0  0  0  0  0  0
   11.2619   -3.5311    0.0000 C   0  0  0  0  0  0  0  0  0  0  0  0
    3.7320    3.8971    0.0000 C   0  0  0  0  0  0  0  0  0  0  0  0
   12.2619   -3.5311    0.0000 C   0  0  0  0  0  0  0  0  0  0  0  0
    2.8660    4.3971    0.0000 C   0  0  0  0  0  0  0  0  0  0  0  0
    2.8660    2.3971    0.0000 C   0  0  0  0  0  0  0  0  0  0  0  0
    2.0000    3.8971    0.0000 C   0  0  0  0  0  0  0  0  0  0  0  0
    2.0000    2.8971    0.0000 C   0  0  0  0  0  0  0  0  0  0  0  0
    8.7869    0.3315    0.0000 H   0  0  0  0  0  0  0  0  0  0  0  0
    8.7869   -0.4655    0.0000 H   0  0  0  0  0  0  0  0  0  0  0  0
   11.3445    1.0111    0.0000 H   0  0  0  0  0  0  0  0  0  0  0  0
   10.6542    1.4096    0.0000 H   0  0  0  0  0  0  0  0  0  0  0  0
    9.8445    1.8771    0.0000 H   0  0  0  0  0  0  0  0  0  0  0  0
    9.1542    2.2756    0.0000 H   0  0  0  0  0  0  0  0  0  0  0  0
    9.1793   -1.1451    0.0000 H   0  0  0  0  0  0  0  0  0  0  0  0
    9.8695   -1.5436    0.0000 H   0  0  0  0  0  0  0  0  0  0  0  0
   11.7368   -0.4655    0.0000 H   0  0  0  0  0  0  0  0  0  0  0  0
   11.7368    0.3315    0.0000 H   0  0  0  0  0  0  0  0  0  0  0  0
    7.6793    1.4530    0.0000 H   0  0  0  0  0  0  0  0  0  0  0  0
    8.3695    1.0545    0.0000 H   0  0  0  0  0  0  0  0  0  0  0  0
    8.3445    2.7431    0.0000 H   0  0  0  0  0  0  0  0  0  0  0  0
    7.6542    3.1417    0.0000 H   0  0  0  0  0  0  0  0  0  0  0  0
    6.1793    2.3190    0.0000 H   0  0  0  0  0  0  0  0  0  0  0  0
    6.8695    1.9205    0.0000 H   0  0  0  0  0  0  0  0  0  0  0  0
    6.8445    3.6092    0.0000 H   0  0  0  0  0  0  0  0  0  0  0  0
    6.1542    4.0077    0.0000 H   0  0  0  0  0  0  0  0  0  0  0  0
   12.5719   -1.2621    0.0000 H   0  0  0  0  0  0  0  0  0  0  0  0
   10.1419   -2.6651    0.0000 H   0  0  0  0  0  0  0  0  0  0  0  0
    4.8709    4.7912    0.0000 H   0  0  0  0  0  0  0  0  0  0  0  0
   13.3819   -2.6651    0.0000 H   0  0  0  0  0  0  0  0  0  0  0  0
   10.9519   -4.0680    0.0000 H   0  0  0  0  0  0  0  0  0  0  0  0
    2.8660    5.0171    0.0000 H   0  0  0  0  0  0  0  0  0  0  0  0
    2.8660    1.7771    0.0000 H   0  0  0  0  0  0  0  0  0  0  0  0
    1.4631    4.2071    0.0000 H   0  0  0  0  0  0  0  0  0  0  0  0
    1.4631    2.5871    0.0000 H   0  0  0  0  0  0  0  0  0  0  0  0
  1 23  1  0  0  0  0
  2  6  1  0  0  0  0
  2  7  1  0  0  0  0
  2  8  1  0  0  0  0
  3  9  1  0  0  0  0
  3 10  1  0  0  0  0
  3 14  1  0  0  0  0
  4  5  1  0  0  0  0
  4 22  1  0  0  0  0
  4 25  1  0  0  0  0
  5 18  2  0  0  0  0
  6  9  1  0  0  0  0
  6 28  1  0  0  0  0
  6 29  1  0  0  0  0
  7 10  1  0  0  0  0
  7 30  1  0  0  0  0
  7 31  1  0  0  0  0
  8 11  1  0  0  0  0
  8 32  1  0  0  0  0
  8 33  1  0  0  0  0
  9 34  1  0  0  0  0
  9 35  1  0  0  0  0
 10 36  1  0  0  0  0
 10 37  1  0  0  0  0
 11 12  1  0  0  0  0
 11 38  1  0  0  0  0
 11 39  1  0  0  0  0
 12 13  1  0  0  0  0
 12 40  1  0  0  0  0
 12 41  1  0  0  0  0
 13 15  1  0  0  0  0
 13 42  1  0  0  0  0
 13 43  1  0  0  0  0
 14 16  2  0  0  0  0
 14 17  1  0  0  0  0
 15 18  1  0  0  0  0
 15 44  1  0  0  0  0
 15 45  1  0  0  0  0
 16 20  1  0  0  0  0
 16 46  1  0  0  0  0
 17 21  2  0  0  0  0
 17 47  1  0  0  0  0
 18 19  1  0  0  0  0
 19 22  2  0  0  0  0
 19 48  1  0  0  0  0
 20 23  2  0  0  0  0
 20 49  1  0  0  0  0
 21 23  1  0  0  0  0
 21 50  1  0  0  0  0
 22 24  1  0  0  0  0
 24 26  2  0  0  0  0
 24 51  1  0  0  0  0
 25 27  2  0  0  0  0
 25 52  1  0  0  0  0
 26 27  1  0  0  0  0
 26 53  1  0  0  0  0
 27 54  1  0  0  0  0
M  END
> <PUBCHEM_COMPOUND_CID>
44222488

> <PUBCHEM_COMPOUND_CANONICALIZED>
1

> <PUBCHEM_CACTVS_COMPLEXITY>
432

> <PUBCHEM_CACTVS_HBOND_ACCEPTOR>
3

> <PUBCHEM_CACTVS_HBOND_DONOR>
0

> <PUBCHEM_CACTVS_ROTATABLE_BOND>
7

> <PUBCHEM_CACTVS_SUBSKEYS>
AAADceB7gAAEAAAAAAAAAAAAAAAAAWAAAAA8WIAAAAAAAFgB8AAAHAIIAAAACArBFiQ8wLMIEACiATRnRACShCAxhyAY2CA4ZpgIYOLB09GUpAhgiADIyAcQgIAAAABAAAAAAAAAAIAAAAAAAAAAAAAAAA==

> <PUBCHEM_IUPAC_OPENEYE_NAME>
2-[5-[4-(4-chlorophenyl)piperazin-1-yl]pentyl]pyrazolo[1,5-a]pyridine

> <PUBCHEM_IUPAC_CAS_NAME>
2-[5-[4-(4-chlorophenyl)-1-piperazinyl]pentyl]pyrazolo[1,5-a]pyridine

> <PUBCHEM_IUPAC_NAME_MARKUP>
2-[5-[4-(4-chlorophenyl)piperazin-1-yl]pentyl]pyrazolo[1,5-a]pyridine

> <PUBCHEM_IUPAC_NAME>
2-[5-[4-(4-chlorophenyl)piperazin-1-yl]pentyl]pyrazolo[1,5-a]pyridine

> <PUBCHEM_IUPAC_SYSTEMATIC_NAME>
2-[5-[4-(4-chlorophenyl)piperazin-1-yl]pentyl]pyrazolo[1,5-a]pyridine

> <PUBCHEM_IUPAC_TRADITIONAL_NAME>
2-[5-[4-(4-chlorophenyl)piperazino]pentyl]pyrazolo[1,5-a]pyridine

> <PUBCHEM_IUPAC_INCHI>
InChI=1S/C22H27ClN4/c23-19-8-10-21(11-9-19)26-16-14-25(15-17-26)12-4-1-2-6-20-18-22-7-3-5-13-27(22)24-20/h3,5,7-11,13,18H,1-2,4,6,12,14-17H2

> <PUBCHEM_IUPAC_INCHIKEY>
JSGXAYKHXNUQAX-UHFFFAOYSA-N

> <PUBCHEM_XLOGP3_AA>
4.7

> <PUBCHEM_EXACT_MASS>
382.1924246

> <PUBCHEM_MOLECULAR_FORMULA>
C22H27ClN4

> <PUBCHEM_MOLECULAR_WEIGHT>
382.9

> <PUBCHEM_OPENEYE_CAN_SMILES>
C1CN(CCN1CCCCCC2=NN3C=CC=CC3=C2)C4=CC=C(C=C4)Cl

> <PUBCHEM_OPENEYE_ISO_SMILES>
C1CN(CCN1CCCCCC2=NN3C=CC=CC3=C2)C4=CC=C(C=C4)Cl

> <PUBCHEM_CACTVS_TPSA>
23.8

> <PUBCHEM_MONOISOTOPIC_WEIGHT>
382.1924246

> <PUBCHEM_TOTAL_CHARGE>
0

> <PUBCHEM_HEAVY_ATOM_COUNT>
27

> <PUBCHEM_ATOM_DEF_STEREO_COUNT>
0

> <PUBCHEM_ATOM_UDEF_STEREO_COUNT>
0

> <PUBCHEM_BOND_DEF_STEREO_COUNT>
0

> <PUBCHEM_BOND_UDEF_STEREO_COUNT>
0

> <PUBCHEM_ISOTOPIC_ATOM_COUNT>
0

> <PUBCHEM_COMPONENT_COUNT>
1

> <PUBCHEM_CACTVS_TAUTO_COUNT>
-1

> <PUBCHEM_COORDINATE_TYPE>
1
5
255

> <PUBCHEM_BONDANNOTATIONS>
14  16  8
14  17  8
16  20  8
17  21  8
18  19  8
19  22  8
20  23  8
21  23  8
22  24  8
24  26  8
25  27  8
26  27  8
4  22  8
4  25  8
4  5  8
5  18  8

$$$$
