14151052
  -OEChem-09292322092D

 49 51  0     0  0  0  0  0  0999 V2000
    6.5981    2.7680    0.0000 Cl  0  0  0  0  0  0  0  0  0  0  0  0
    6.5981    6.2320    0.0000 Cl  0  0  0  0  0  0  0  0  0  0  0  0
    2.8660   -6.2320    0.0000 F   0  0  0  0  0  0  0  0  0  0  0  0
    4.0981    3.6340    0.0000 O   0  0  0  0  0  0  0  0  0  0  0  0
    2.0000   -1.7320    0.0000 O   0  0  0  0  0  0  0  0  0  0  0  0
    4.5981    0.7679    0.0000 N   0  0  0  0  0  0  0  0  0  0  0  0
    4.5981    2.7680    0.0000 C   0  0  0  0  0  0  0  0  0  0  0  0
    5.4641    2.2680    0.0000 C   0  0  0  0  0  0  0  0  0  0  0  0
    3.7320    2.2680    0.0000 C   0  0  0  0  0  0  0  0  0  0  0  0
    5.4641    1.2680    0.0000 C   0  0  0  0  0  0  0  0  0  0  0  0
    3.7320    1.2680    0.0000 C   0  0  0  0  0  0  0  0  0  0  0  0
    4.5981   -0.2321    0.0000 C   0  0  0  0  0  0  0  0  0  0  0  0
    5.0981    3.6340    0.0000 C   0  0  0  0  0  0  0  0  0  0  0  0
    3.7320   -0.7321    0.0000 C   0  0  0  0  0  0  0  0  0  0  0  0
    6.0981    3.6340    0.0000 C   0  0  0  0  0  0  0  0  0  0  0  0
    4.5981    4.5000    0.0000 C   0  0  0  0  0  0  0  0  0  0  0  0
    3.7320   -1.7320    0.0000 C   0  0  0  0  0  0  0  0  0  0  0  0
    6.5981    4.5000    0.0000 C   0  0  0  0  0  0  0  0  0  0  0  0
    5.0981    5.3660    0.0000 C   0  0  0  0  0  0  0  0  0  0  0  0
    2.8660   -2.2320    0.0000 C   0  0  0  0  0  0  0  0  0  0  0  0
    6.0981    5.3660    0.0000 C   0  0  0  0  0  0  0  0  0  0  0  0
    2.8660   -3.2320    0.0000 C   0  0  0  0  0  0  0  0  0  0  0  0
    3.7320   -3.7320    0.0000 C   0  0  0  0  0  0  0  0  0  0  0  0
    2.0000   -3.7320    0.0000 C   0  0  0  0  0  0  0  0  0  0  0  0
    3.7320   -4.7320    0.0000 C   0  0  0  0  0  0  0  0  0  0  0  0
    2.0000   -4.7320    0.0000 C   0  0  0  0  0  0  0  0  0  0  0  0
    2.8660   -5.2320    0.0000 C   0  0  0  0  0  0  0  0  0  0  0  0
    6.0747    2.1603    0.0000 H   0  0  0  0  0  0  0  0  0  0  0  0
    5.6762    2.8506    0.0000 H   0  0  0  0  0  0  0  0  0  0  0  0
    3.5200    2.8506    0.0000 H   0  0  0  0  0  0  0  0  0  0  0  0
    3.1215    2.1603    0.0000 H   0  0  0  0  0  0  0  0  0  0  0  0
    5.6762    0.6853    0.0000 H   0  0  0  0  0  0  0  0  0  0  0  0
    6.0747    1.3756    0.0000 H   0  0  0  0  0  0  0  0  0  0  0  0
    3.1215    1.3756    0.0000 H   0  0  0  0  0  0  0  0  0  0  0  0
    3.5200    0.6853    0.0000 H   0  0  0  0  0  0  0  0  0  0  0  0
    4.8101   -0.8147    0.0000 H   0  0  0  0  0  0  0  0  0  0  0  0
    5.2087   -0.1244    0.0000 H   0  0  0  0  0  0  0  0  0  0  0  0
    3.5200   -0.1494    0.0000 H   0  0  0  0  0  0  0  0  0  0  0  0
    3.1215   -0.8397    0.0000 H   0  0  0  0  0  0  0  0  0  0  0  0
    3.4781    3.6340    0.0000 H   0  0  0  0  0  0  0  0  0  0  0  0
    3.9781    4.5000    0.0000 H   0  0  0  0  0  0  0  0  0  0  0  0
    3.9441   -2.3147    0.0000 H   0  0  0  0  0  0  0  0  0  0  0  0
    4.3426   -1.6244    0.0000 H   0  0  0  0  0  0  0  0  0  0  0  0
    7.2181    4.5000    0.0000 H   0  0  0  0  0  0  0  0  0  0  0  0
    4.7881    5.9030    0.0000 H   0  0  0  0  0  0  0  0  0  0  0  0
    4.2690   -3.4220    0.0000 H   0  0  0  0  0  0  0  0  0  0  0  0
    1.4631   -3.4220    0.0000 H   0  0  0  0  0  0  0  0  0  0  0  0
    4.2690   -5.0420    0.0000 H   0  0  0  0  0  0  0  0  0  0  0  0
    1.4631   -5.0420    0.0000 H   0  0  0  0  0  0  0  0  0  0  0  0
  1 15  1  0  0  0  0
  2 21  1  0  0  0  0
  3 27  1  0  0  0  0
  4  7  1  0  0  0  0
  4 40  1  0  0  0  0
  5 20  2  0  0  0  0
  6 10  1  0  0  0  0
  6 11  1  0  0  0  0
  6 12  1  0  0  0  0
  7  8  1  0  0  0  0
  7  9  1  0  0  0  0
  7 13  1  0  0  0  0
  8 10  1  0  0  0  0
  8 28  1  0  0  0  0
  8 29  1  0  0  0  0
  9 11  1  0  0  0  0
  9 30  1  0  0  0  0
  9 31  1  0  0  0  0
 10 32  1  0  0  0  0
 10 33  1  0  0  0  0
 11 34  1  0  0  0  0
 11 35  1  0  0  0  0
 12 14  1  0  0  0  0
 12 36  1  0  0  0  0
 12 37  1  0  0  0  0
 13 15  2  0  0  0  0
 13 16  1  0  0  0  0
 14 17  1  0  0  0  0
 14 38  1  0  0  0  0
 14 39  1  0  0  0  0
 15 18  1  0  0  0  0
 16 19  2  0  0  0  0
 16 41  1  0  0  0  0
 17 20  1  0  0  0  0
 17 42  1  0  0  0  0
 17 43  1  0  0  0  0
 18 21  2  0  0  0  0
 18 44  1  0  0  0  0
 19 21  1  0  0  0  0
 19 45  1  0  0  0  0
 20 22  1  0  0  0  0
 22 23  2  0  0  0  0
 22 24  1  0  0  0  0
 23 25  1  0  0  0  0
 23 46  1  0  0  0  0
 24 26  2  0  0  0  0
 24 47  1  0  0  0  0
 25 27  2  0  0  0  0
 25 48  1  0  0  0  0
 26 27  1  0  0  0  0
 26 49  1  0  0  0  0
M  END
> <PUBCHEM_COMPOUND_CID>
14151052

> <PUBCHEM_COMPOUND_CANONICALIZED>
1

> <PUBCHEM_CACTVS_COMPLEXITY>
491

> <PUBCHEM_CACTVS_HBOND_ACCEPTOR>
4

> <PUBCHEM_CACTVS_HBOND_DONOR>
1

> <PUBCHEM_CACTVS_ROTATABLE_BOND>
6

> <PUBCHEM_CACTVS_SUBSKEYS>
AAADceB6MQAGAAAAAAAAAAAAAAAAAAAAAAA8YIAAAAAAAAABQAAAHwIACAAADEbBmCwwAIMAAgCIAqBSAAACAAAkBQAIiAEICsgIJjKBlxCEcQAmwAGImYecyOCOhAAAAACBAAAIAAAAAQIAAAAAAAAAAA==

> <PUBCHEM_IUPAC_OPENEYE_NAME>
4-[4-(2,4-dichlorophenyl)-4-hydroxy-1-piperidyl]-1-(4-fluorophenyl)butan-1-one

> <PUBCHEM_IUPAC_CAS_NAME>
4-[4-(2,4-dichlorophenyl)-4-hydroxy-1-piperidinyl]-1-(4-fluorophenyl)-1-butanone

> <PUBCHEM_IUPAC_NAME_MARKUP>
4-[4-(2,4-dichlorophenyl)-4-hydroxypiperidin-1-yl]-1-(4-fluorophenyl)butan-1-one

> <PUBCHEM_IUPAC_NAME>
4-[4-(2,4-dichlorophenyl)-4-hydroxypiperidin-1-yl]-1-(4-fluorophenyl)butan-1-one

> <PUBCHEM_IUPAC_SYSTEMATIC_NAME>
4-[4-(2,4-dichlorophenyl)-4-oxidanyl-piperidin-1-yl]-1-(4-fluorophenyl)butan-1-one

> <PUBCHEM_IUPAC_TRADITIONAL_NAME>
4-[4-(2,4-dichlorophenyl)-4-hydroxy-piperidino]-1-(4-fluorophenyl)butan-1-one

> <PUBCHEM_IUPAC_INCHI>
InChI=1S/C21H22Cl2FNO2/c22-16-5-8-18(19(23)14-16)21(27)9-12-25(13-10-21)11-1-2-20(26)15-3-6-17(24)7-4-15/h3-8,14,27H,1-2,9-13H2

> <PUBCHEM_IUPAC_INCHIKEY>
IHNSUSUUGKHFOR-UHFFFAOYSA-N

> <PUBCHEM_XLOGP3>
3.9

> <PUBCHEM_EXACT_MASS>
409.1011625

> <PUBCHEM_MOLECULAR_FORMULA>
C21H22Cl2FNO2

> <PUBCHEM_MOLECULAR_WEIGHT>
410.3

> <PUBCHEM_OPENEYE_CAN_SMILES>
C1CN(CCC1(C2=C(C=C(C=C2)Cl)Cl)O)CCCC(=O)C3=CC=C(C=C3)F

> <PUBCHEM_OPENEYE_ISO_SMILES>
C1CN(CCC1(C2=C(C=C(C=C2)Cl)Cl)O)CCCC(=O)C3=CC=C(C=C3)F

> <PUBCHEM_CACTVS_TPSA>
40.5

> <PUBCHEM_MONOISOTOPIC_WEIGHT>
409.1011625

> <PUBCHEM_TOTAL_CHARGE>
0

> <PUBCHEM_HEAVY_ATOM_COUNT>
27

> <PUBCHEM_ATOM_DEF_STEREO_COUNT>
0

> <PUBCHEM_ATOM_UDEF_STEREO_COUNT>
0

> <PUBCHEM_BOND_DEF_STEREO_COUNT>
0

> <PUBCHEM_BOND_UDEF_STEREO_COUNT>
0

> <PUBCHEM_ISOTOPIC_ATOM_COUNT>
0

> <PUBCHEM_COMPONENT_COUNT>
1

> <PUBCHEM_CACTVS_TAUTO_COUNT>
-1

> <PUBCHEM_COORDINATE_TYPE>
1
5
255

> <PUBCHEM_BONDANNOTATIONS>
13  15  8
13  16  8
15  18  8
16  19  8
18  21  8
19  21  8
22  23  8
22  24  8
23  25  8
24  26  8
25  27  8
26  27  8

$$$$
