118731508
  -OEChem-09292322352D

 66 70  0     1  0  0  0  0  0999 V2000
    4.8959    3.6563    0.0000 O   0  0  0  0  0  0  0  0  0  0  0  0
    3.2496    4.1944    0.0000 O   0  0  0  0  0  0  0  0  0  0  0  0
    5.6103    0.2666    0.0000 N   0  0  3  0  0  0  0  0  0  0  0  0
    4.6783   -4.1944    0.0000 N   0  0  0  0  0  0  0  0  0  0  0  0
    2.8924    5.8892    0.0000 N   0  0  0  0  0  0  0  0  0  0  0  0
    4.6318    0.0604    0.0000 C   0  0  0  0  0  0  0  0  0  0  0  0
    4.3211   -0.8901    0.0000 C   0  0  0  0  0  0  0  0  0  0  0  0
    4.9889   -1.6344    0.0000 C   0  0  0  0  0  0  0  0  0  0  0  0
    6.2781   -0.4777    0.0000 C   0  0  0  0  0  0  0  0  0  0  0  0
    4.6783   -2.5849    0.0000 C   0  0  0  0  0  0  0  0  0  0  0  0
    5.9209    1.2172    0.0000 C   0  0  0  0  0  0  0  0  0  0  0  0
    5.9674   -1.4282    0.0000 C   0  0  0  0  0  0  0  0  0  0  0  0
    3.7320   -2.8896    0.0000 C   0  0  0  0  0  0  0  0  0  0  0  0
    3.7320   -3.8896    0.0000 C   0  0  0  0  0  0  0  0  0  0  0  0
    5.2619   -3.3896    0.0000 C   0  0  0  0  0  0  0  0  0  0  0  0
    5.2531    1.9615    0.0000 C   0  0  0  0  0  0  0  0  0  0  0  0
    4.9889   -5.1449    0.0000 C   0  0  0  0  0  0  0  0  0  0  0  0
    2.8660   -2.3896    0.0000 C   0  0  0  0  0  0  0  0  0  0  0  0
    2.8660   -4.3896    0.0000 C   0  0  0  0  0  0  0  0  0  0  0  0
    5.5637    2.9120    0.0000 C   0  0  0  0  0  0  0  0  0  0  0  0
    5.9674   -5.3511    0.0000 C   0  0  0  0  0  0  0  0  0  0  0  0
    2.0000   -2.8896    0.0000 C   0  0  0  0  0  0  0  0  0  0  0  0
    2.0000   -3.8896    0.0000 C   0  0  0  0  0  0  0  0  0  0  0  0
    6.2781   -6.3016    0.0000 C   0  0  0  0  0  0  0  0  0  0  0  0
    6.6353   -4.6068    0.0000 C   0  0  0  0  0  0  0  0  0  0  0  0
    5.2066    4.6068    0.0000 C   0  0  0  0  0  0  0  0  0  0  0  0
    7.2566   -6.5078    0.0000 C   0  0  0  0  0  0  0  0  0  0  0  0
    7.6138   -4.8130    0.0000 C   0  0  0  0  0  0  0  0  0  0  0  0
    7.9244   -5.7636    0.0000 C   0  0  0  0  0  0  0  0  0  0  0  0
    4.5387    5.3511    0.0000 C   0  0  0  0  0  0  0  0  0  0  0  0
    6.1851    4.8130    0.0000 C   0  0  0  0  0  0  0  0  0  0  0  0
    4.8494    6.3016    0.0000 C   0  0  0  0  0  0  0  0  0  0  0  0
    6.4957    5.7636    0.0000 C   0  0  0  0  0  0  0  0  0  0  0  0
    5.8279    6.5078    0.0000 C   0  0  0  0  0  0  0  0  0  0  0  0
    3.5602    5.1449    0.0000 C   0  0  0  0  0  0  0  0  0  0  0  0
    4.6112    0.6801    0.0000 H   0  0  0  0  0  0  0  0  0  0  0  0
    4.0179    0.1478    0.0000 H   0  0  0  0  0  0  0  0  0  0  0  0
    3.7742   -0.5981    0.0000 H   0  0  0  0  0  0  0  0  0  0  0  0
    3.9385   -1.3780    0.0000 H   0  0  0  0  0  0  0  0  0  0  0  0
    6.8250   -0.7697    0.0000 H   0  0  0  0  0  0  0  0  0  0  0  0
    6.6607    0.0103    0.0000 H   0  0  0  0  0  0  0  0  0  0  0  0
    6.4678    0.9252    0.0000 H   0  0  0  0  0  0  0  0  0  0  0  0
    6.3035    1.7051    0.0000 H   0  0  0  0  0  0  0  0  0  0  0  0
    6.3815   -1.8896    0.0000 H   0  0  0  0  0  0  0  0  0  0  0  0
    5.8819   -3.3896    0.0000 H   0  0  0  0  0  0  0  0  0  0  0  0
    4.7062    2.2535    0.0000 H   0  0  0  0  0  0  0  0  0  0  0  0
    4.8705    1.4736    0.0000 H   0  0  0  0  0  0  0  0  0  0  0  0
    4.3751   -5.2322    0.0000 H   0  0  0  0  0  0  0  0  0  0  0  0
    4.9684   -5.7646    0.0000 H   0  0  0  0  0  0  0  0  0  0  0  0
    2.8660   -1.7696    0.0000 H   0  0  0  0  0  0  0  0  0  0  0  0
    2.8660   -5.0096    0.0000 H   0  0  0  0  0  0  0  0  0  0  0  0
    6.1107    2.6200    0.0000 H   0  0  0  0  0  0  0  0  0  0  0  0
    5.9463    3.3999    0.0000 H   0  0  0  0  0  0  0  0  0  0  0  0
    1.4631   -2.5796    0.0000 H   0  0  0  0  0  0  0  0  0  0  0  0
    1.4631   -4.1996    0.0000 H   0  0  0  0  0  0  0  0  0  0  0  0
    5.8640   -6.7631    0.0000 H   0  0  0  0  0  0  0  0  0  0  0  0
    6.4427   -4.0175    0.0000 H   0  0  0  0  0  0  0  0  0  0  0  0
    7.4492   -7.0972    0.0000 H   0  0  0  0  0  0  0  0  0  0  0  0
    8.0279   -4.3516    0.0000 H   0  0  0  0  0  0  0  0  0  0  0  0
    8.5311   -5.8914    0.0000 H   0  0  0  0  0  0  0  0  0  0  0  0
    6.5991    4.3516    0.0000 H   0  0  0  0  0  0  0  0  0  0  0  0
    4.4353    6.7631    0.0000 H   0  0  0  0  0  0  0  0  0  0  0  0
    7.1024    5.8914    0.0000 H   0  0  0  0  0  0  0  0  0  0  0  0
    6.0205    7.0972    0.0000 H   0  0  0  0  0  0  0  0  0  0  0  0
    2.2857    5.7613    0.0000 H   0  0  0  0  0  0  0  0  0  0  0  0
    3.0850    6.4785    0.0000 H   0  0  0  0  0  0  0  0  0  0  0  0
  1 20  1  0  0  0  0
  1 26  1  0  0  0  0
  2 35  2  0  0  0  0
  3  6  1  0  0  0  0
  3  9  1  0  0  0  0
  3 11  1  0  0  0  0
  4 14  1  0  0  0  0
  4 15  1  0  0  0  0
  4 17  1  0  0  0  0
  5 35  1  0  0  0  0
  5 65  1  0  0  0  0
  5 66  1  0  0  0  0
  6  7  1  0  0  0  0
  6 36  1  0  0  0  0
  6 37  1  0  0  0  0
  7  8  1  0  0  0  0
  7 38  1  0  0  0  0
  7 39  1  0  0  0  0
  8 10  1  0  0  0  0
  8 12  2  0  0  0  0
  9 12  1  0  0  0  0
  9 40  1  0  0  0  0
  9 41  1  0  0  0  0
 10 13  1  0  0  0  0
 10 15  2  0  0  0  0
 11 16  1  0  0  0  0
 11 42  1  0  0  0  0
 11 43  1  0  0  0  0
 12 44  1  0  0  0  0
 13 14  1  0  0  0  0
 13 18  2  0  0  0  0
 14 19  2  0  0  0  0
 15 45  1  0  0  0  0
 16 20  1  0  0  0  0
 16 46  1  0  0  0  0
 16 47  1  0  0  0  0
 17 21  1  0  0  0  0
 17 48  1  0  0  0  0
 17 49  1  0  0  0  0
 18 22  1  0  0  0  0
 18 50  1  0  0  0  0
 19 23  1  0  0  0  0
 19 51  1  0  0  0  0
 20 52  1  0  0  0  0
 20 53  1  0  0  0  0
 21 24  2  0  0  0  0
 21 25  1  0  0  0  0
 22 23  2  0  0  0  0
 22 54  1  0  0  0  0
 23 55  1  0  0  0  0
 24 27  1  0  0  0  0
 24 56  1  0  0  0  0
 25 28  2  0  0  0  0
 25 57  1  0  0  0  0
 26 30  1  0  0  0  0
 26 31  2  0  0  0  0
 27 29  2  0  0  0  0
 27 58  1  0  0  0  0
 28 29  1  0  0  0  0
 28 59  1  0  0  0  0
 29 60  1  0  0  0  0
 30 32  2  0  0  0  0
 30 35  1  0  0  0  0
 31 33  1  0  0  0  0
 31 61  1  0  0  0  0
 32 34  1  0  0  0  0
 32 62  1  0  0  0  0
 33 34  2  0  0  0  0
 33 63  1  0  0  0  0
 34 64  1  0  0  0  0
M  END
> <PUBCHEM_COMPOUND_CID>
118731508

> <PUBCHEM_COMPOUND_CANONICALIZED>
1

> <PUBCHEM_CACTVS_COMPLEXITY>
718

> <PUBCHEM_CACTVS_HBOND_ACCEPTOR>
3

> <PUBCHEM_CACTVS_HBOND_DONOR>
1

> <PUBCHEM_CACTVS_ROTATABLE_BOND>
9

> <PUBCHEM_CACTVS_SUBSKEYS>
AAADceB7MAAAAAAAAAAAAAAAAAAAAWAAAAAwYMEAAAAAAFgB9AAAHgAQAAAADAzhngY8xvNMFACoAzV3VACCiCA1IiAI2CE+bNgMJvbEtZuGOWjm4BHI6YeYyOCOgAAAAAAKAAAAAAAAABQAAAAAAAAAAA==

> <PUBCHEM_IUPAC_OPENEYE_NAME>
2-[3-[4-(1-benzylindol-3-yl)-3,6-dihydro-2H-pyridin-1-yl]propoxy]benzamide

> <PUBCHEM_IUPAC_CAS_NAME>
2-[3-[4-[1-(phenylmethyl)-3-indolyl]-3,6-dihydro-2H-pyridin-1-yl]propoxy]benzamide

> <PUBCHEM_IUPAC_NAME_MARKUP>
2-[3-[4-(1-benzylindol-3-yl)-3,6-dihydro-2<I>H</I>-pyridin-1-yl]propoxy]benzamide

> <PUBCHEM_IUPAC_NAME>
2-[3-[4-(1-benzylindol-3-yl)-3,6-dihydro-2H-pyridin-1-yl]propoxy]benzamide

> <PUBCHEM_IUPAC_SYSTEMATIC_NAME>
2-[3-[4-[1-(phenylmethyl)indol-3-yl]-3,6-dihydro-2H-pyridin-1-yl]propoxy]benzamide

> <PUBCHEM_IUPAC_TRADITIONAL_NAME>
2-[3-[4-(1-benzylindol-3-yl)-3,6-dihydro-2H-pyridin-1-yl]propoxy]benzamide

> <PUBCHEM_IUPAC_INCHI>
InChI=1S/C30H31N3O2/c31-30(34)26-12-5-7-14-29(26)35-20-8-17-32-18-15-24(16-19-32)27-22-33(21-23-9-2-1-3-10-23)28-13-6-4-11-25(27)28/h1-7,9-15,22H,8,16-21H2,(H2,31,34)

> <PUBCHEM_IUPAC_INCHIKEY>
FPGKBFKWSRCNIW-UHFFFAOYSA-N

> <PUBCHEM_XLOGP3_AA>
4.7

> <PUBCHEM_EXACT_MASS>
465.24162724

> <PUBCHEM_MOLECULAR_FORMULA>
C30H31N3O2

> <PUBCHEM_MOLECULAR_WEIGHT>
465.6

> <PUBCHEM_OPENEYE_CAN_SMILES>
C1CN(CC=C1C2=CN(C3=CC=CC=C32)CC4=CC=CC=C4)CCCOC5=CC=CC=C5C(=O)N

> <PUBCHEM_OPENEYE_ISO_SMILES>
C1CN(CC=C1C2=CN(C3=CC=CC=C32)CC4=CC=CC=C4)CCCOC5=CC=CC=C5C(=O)N

> <PUBCHEM_CACTVS_TPSA>
60.5

> <PUBCHEM_MONOISOTOPIC_WEIGHT>
465.24162724

> <PUBCHEM_TOTAL_CHARGE>
0

> <PUBCHEM_HEAVY_ATOM_COUNT>
35

> <PUBCHEM_ATOM_DEF_STEREO_COUNT>
0

> <PUBCHEM_ATOM_UDEF_STEREO_COUNT>
0

> <PUBCHEM_BOND_DEF_STEREO_COUNT>
0

> <PUBCHEM_BOND_UDEF_STEREO_COUNT>
0

> <PUBCHEM_ISOTOPIC_ATOM_COUNT>
0

> <PUBCHEM_COMPONENT_COUNT>
1

> <PUBCHEM_CACTVS_TAUTO_COUNT>
-1

> <PUBCHEM_COORDINATE_TYPE>
1
5
255

> <PUBCHEM_BONDANNOTATIONS>
10  13  8
10  15  8
13  14  8
13  18  8
14  19  8
18  22  8
19  23  8
21  24  8
21  25  8
22  23  8
24  27  8
25  28  8
26  30  8
26  31  8
27  29  8
28  29  8
30  32  8
31  33  8
32  34  8
33  34  8
4  14  8
4  15  8

$$$$
