90645304
  -OEChem-09292322082D

 61 64  0     0  0  0  0  0  0999 V2000
    2.0000    2.0567    0.0000 Cl  0  0  0  0  0  0  0  0  0  0  0  0
    5.5443    0.2520    0.0000 S   0  0  0  0  0  0  0  0  0  0  0  0
   13.1279   -2.4074    0.0000 O   0  0  0  0  0  0  0  0  0  0  0  0
    7.6279    1.9227    0.0000 O   0  0  0  0  0  0  0  0  0  0  0  0
    2.0000    0.0567    0.0000 O   0  0  0  0  0  0  0  0  0  0  0  0
   10.1279   -0.6753    0.0000 N   0  0  0  0  0  0  0  0  0  0  0  0
   12.1279   -0.6753    0.0000 N   0  0  0  0  0  0  0  0  0  0  0  0
    7.6279    0.1907    0.0000 N   0  0  0  0  0  0  0  0  0  0  0  0
    5.8550    2.8120    0.0000 N   0  0  0  0  0  0  0  0  0  0  0  0
    3.7320    0.0567    0.0000 N   0  0  0  0  0  0  0  0  0  0  0  0
   10.6279   -1.5414    0.0000 C   0  0  0  0  0  0  0  0  0  0  0  0
   10.6279    0.1907    0.0000 C   0  0  0  0  0  0  0  0  0  0  0  0
   11.6279   -1.5414    0.0000 C   0  0  0  0  0  0  0  0  0  0  0  0
   11.6279    0.1907    0.0000 C   0  0  0  0  0  0  0  0  0  0  0  0
    9.1279   -0.6753    0.0000 C   0  0  0  0  0  0  0  0  0  0  0  0
   13.1279   -0.6753    0.0000 C   0  0  0  0  0  0  0  0  0  0  0  0
    8.6279    0.1907    0.0000 C   0  0  0  0  0  0  0  0  0  0  0  0
   13.6279   -1.5414    0.0000 C   0  0  0  0  0  0  0  0  0  0  0  0
   13.6279    0.1907    0.0000 C   0  0  0  0  0  0  0  0  0  0  0  0
   14.6279   -1.5414    0.0000 C   0  0  0  0  0  0  0  0  0  0  0  0
   14.6279    0.1907    0.0000 C   0  0  0  0  0  0  0  0  0  0  0  0
    7.1279    1.0567    0.0000 C   0  0  0  0  0  0  0  0  0  0  0  0
   15.1279   -0.6753    0.0000 C   0  0  0  0  0  0  0  0  0  0  0  0
    6.1279    1.0567    0.0000 C   0  0  0  0  0  0  0  0  0  0  0  0
    5.5443    1.8614    0.0000 C   0  0  0  0  0  0  0  0  0  0  0  0
    4.5981    1.5567    0.0000 C   0  0  0  0  0  0  0  0  0  0  0  0
    4.5981    0.5567    0.0000 C   0  0  0  0  0  0  0  0  0  0  0  0
    3.7320    2.0567    0.0000 C   0  0  0  0  0  0  0  0  0  0  0  0
   13.6279   -3.2734    0.0000 C   0  0  0  0  0  0  0  0  0  0  0  0
    2.8660    1.5567    0.0000 C   0  0  0  0  0  0  0  0  0  0  0  0
    3.7320    3.0567    0.0000 C   0  0  0  0  0  0  0  0  0  0  0  0
    2.8660    0.5567    0.0000 C   0  0  0  0  0  0  0  0  0  0  0  0
    2.0000   -0.9433    0.0000 C   0  0  0  0  0  0  0  0  0  0  0  0
   10.0453   -1.7534    0.0000 H   0  0  0  0  0  0  0  0  0  0  0  0
   10.7356   -2.1519    0.0000 H   0  0  0  0  0  0  0  0  0  0  0  0
   10.7356    0.8013    0.0000 H   0  0  0  0  0  0  0  0  0  0  0  0
   10.0453    0.4027    0.0000 H   0  0  0  0  0  0  0  0  0  0  0  0
   11.5202   -2.1519    0.0000 H   0  0  0  0  0  0  0  0  0  0  0  0
   12.2105   -1.7534    0.0000 H   0  0  0  0  0  0  0  0  0  0  0  0
   12.2105    0.4027    0.0000 H   0  0  0  0  0  0  0  0  0  0  0  0
   11.5202    0.8013    0.0000 H   0  0  0  0  0  0  0  0  0  0  0  0
    8.5453   -0.8874    0.0000 H   0  0  0  0  0  0  0  0  0  0  0  0
    9.2356   -1.2859    0.0000 H   0  0  0  0  0  0  0  0  0  0  0  0
    9.2105    0.4027    0.0000 H   0  0  0  0  0  0  0  0  0  0  0  0
    8.5202    0.8013    0.0000 H   0  0  0  0  0  0  0  0  0  0  0  0
   13.3179    0.7276    0.0000 H   0  0  0  0  0  0  0  0  0  0  0  0
    7.3179   -0.3463    0.0000 H   0  0  0  0  0  0  0  0  0  0  0  0
   14.9379   -2.0783    0.0000 H   0  0  0  0  0  0  0  0  0  0  0  0
   14.9379    0.7276    0.0000 H   0  0  0  0  0  0  0  0  0  0  0  0
   15.7479   -0.6753    0.0000 H   0  0  0  0  0  0  0  0  0  0  0  0
   13.0910   -3.5834    0.0000 H   0  0  0  0  0  0  0  0  0  0  0  0
   13.9379   -3.8104    0.0000 H   0  0  0  0  0  0  0  0  0  0  0  0
   14.1648   -2.9634    0.0000 H   0  0  0  0  0  0  0  0  0  0  0  0
    4.3520    3.0567    0.0000 H   0  0  0  0  0  0  0  0  0  0  0  0
    3.7320    3.6767    0.0000 H   0  0  0  0  0  0  0  0  0  0  0  0
    3.1120    3.0567    0.0000 H   0  0  0  0  0  0  0  0  0  0  0  0
    6.4616    2.9398    0.0000 H   0  0  0  0  0  0  0  0  0  0  0  0
    5.4409    3.2734    0.0000 H   0  0  0  0  0  0  0  0  0  0  0  0
    1.3800   -0.9433    0.0000 H   0  0  0  0  0  0  0  0  0  0  0  0
    2.0000   -1.5633    0.0000 H   0  0  0  0  0  0  0  0  0  0  0  0
    2.6200   -0.9433    0.0000 H   0  0  0  0  0  0  0  0  0  0  0  0
  1 30  1  0  0  0  0
  2 24  1  0  0  0  0
  2 27  1  0  0  0  0
  3 18  1  0  0  0  0
  3 29  1  0  0  0  0
  4 22  2  0  0  0  0
  5 32  1  0  0  0  0
  5 33  1  0  0  0  0
  6 11  1  0  0  0  0
  6 12  1  0  0  0  0
  6 15  1  0  0  0  0
  7 13  1  0  0  0  0
  7 14  1  0  0  0  0
  7 16  1  0  0  0  0
  8 17  1  0  0  0  0
  8 22  1  0  0  0  0
  8 47  1  0  0  0  0
  9 25  1  0  0  0  0
  9 57  1  0  0  0  0
  9 58  1  0  0  0  0
 10 27  2  0  0  0  0
 10 32  1  0  0  0  0
 11 13  1  0  0  0  0
 11 34  1  0  0  0  0
 11 35  1  0  0  0  0
 12 14  1  0  0  0  0
 12 36  1  0  0  0  0
 12 37  1  0  0  0  0
 13 38  1  0  0  0  0
 13 39  1  0  0  0  0
 14 40  1  0  0  0  0
 14 41  1  0  0  0  0
 15 17  1  0  0  0  0
 15 42  1  0  0  0  0
 15 43  1  0  0  0  0
 16 18  1  0  0  0  0
 16 19  2  0  0  0  0
 17 44  1  0  0  0  0
 17 45  1  0  0  0  0
 18 20  2  0  0  0  0
 19 21  1  0  0  0  0
 19 46  1  0  0  0  0
 20 23  1  0  0  0  0
 20 48  1  0  0  0  0
 21 23  2  0  0  0  0
 21 49  1  0  0  0  0
 22 24  1  0  0  0  0
 23 50  1  0  0  0  0
 24 25  2  0  0  0  0
 25 26  1  0  0  0  0
 26 27  1  0  0  0  0
 26 28  2  0  0  0  0
 28 30  1  0  0  0  0
 28 31  1  0  0  0  0
 29 51  1  0  0  0  0
 29 52  1  0  0  0  0
 29 53  1  0  0  0  0
 30 32  2  0  0  0  0
 31 54  1  0  0  0  0
 31 55  1  0  0  0  0
 31 56  1  0  0  0  0
 33 59  1  0  0  0  0
 33 60  1  0  0  0  0
 33 61  1  0  0  0  0
M  END
> <PUBCHEM_COMPOUND_CID>
90645304

> <PUBCHEM_COMPOUND_CANONICALIZED>
1

> <PUBCHEM_CACTVS_COMPLEXITY>
656

> <PUBCHEM_CACTVS_HBOND_ACCEPTOR>
8

> <PUBCHEM_CACTVS_HBOND_DONOR>
2

> <PUBCHEM_CACTVS_ROTATABLE_BOND>
7

> <PUBCHEM_CACTVS_SUBSKEYS>
AAADceB7sABEAAAAAAAAAAAAAAAAASAAAAA8WIAAAAAAAFgB/AAAHgYQAAAADA7B2iYyx9PIFAisAiVyVACD2KBlLngImLUvb9gOZnvl99vVNaxk1hH46UeY2SGOgAAAAAAAEAAAAAAAAAAgAAAAAAAAAA==

> <PUBCHEM_IUPAC_OPENEYE_NAME>
3-amino-5-chloro-6-methoxy-N-[2-[4-(2-methoxyphenyl)piperazin-1-yl]ethyl]-4-methyl-thieno[2,3-b]pyridine-2-carboxamide

> <PUBCHEM_IUPAC_CAS_NAME>
3-amino-5-chloro-6-methoxy-N-[2-[4-(2-methoxyphenyl)-1-piperazinyl]ethyl]-4-methyl-2-thieno[2,3-b]pyridinecarboxamide

> <PUBCHEM_IUPAC_NAME_MARKUP>
3-amino-5-chloro-6-methoxy-<I>N</I>-[2-[4-(2-methoxyphenyl)piperazin-1-yl]ethyl]-4-methylthieno[2,3-b]pyridine-2-carboxamide

> <PUBCHEM_IUPAC_NAME>
3-amino-5-chloro-6-methoxy-N-[2-[4-(2-methoxyphenyl)piperazin-1-yl]ethyl]-4-methylthieno[2,3-b]pyridine-2-carboxamide

> <PUBCHEM_IUPAC_SYSTEMATIC_NAME>
3-azanyl-5-chloranyl-6-methoxy-N-[2-[4-(2-methoxyphenyl)piperazin-1-yl]ethyl]-4-methyl-thieno[2,3-b]pyridine-2-carboxamide

> <PUBCHEM_IUPAC_TRADITIONAL_NAME>
3-amino-5-chloro-6-methoxy-N-[2-[4-(2-methoxyphenyl)piperazino]ethyl]-4-methyl-thieno[2,3-b]pyridine-2-carboxamide

> <PUBCHEM_IUPAC_INCHI>
InChI=1S/C23H28ClN5O3S/c1-14-17-19(25)20(33-23(17)27-22(32-3)18(14)24)21(30)26-8-9-28-10-12-29(13-11-28)15-6-4-5-7-16(15)31-2/h4-7H,8-13,25H2,1-3H3,(H,26,30)

> <PUBCHEM_IUPAC_INCHIKEY>
MAPGIJMBSHARKF-UHFFFAOYSA-N

> <PUBCHEM_XLOGP3_AA>
4.6

> <PUBCHEM_EXACT_MASS>
489.1601386

> <PUBCHEM_MOLECULAR_FORMULA>
C23H28ClN5O3S

> <PUBCHEM_MOLECULAR_WEIGHT>
490.0

> <PUBCHEM_OPENEYE_CAN_SMILES>
CC1=C2C(=C(SC2=NC(=C1Cl)OC)C(=O)NCCN3CCN(CC3)C4=CC=CC=C4OC)N

> <PUBCHEM_OPENEYE_ISO_SMILES>
CC1=C2C(=C(SC2=NC(=C1Cl)OC)C(=O)NCCN3CCN(CC3)C4=CC=CC=C4OC)N

> <PUBCHEM_CACTVS_TPSA>
121

> <PUBCHEM_MONOISOTOPIC_WEIGHT>
489.1601386

> <PUBCHEM_TOTAL_CHARGE>
0

> <PUBCHEM_HEAVY_ATOM_COUNT>
33

> <PUBCHEM_ATOM_DEF_STEREO_COUNT>
0

> <PUBCHEM_ATOM_UDEF_STEREO_COUNT>
0

> <PUBCHEM_BOND_DEF_STEREO_COUNT>
0

> <PUBCHEM_BOND_UDEF_STEREO_COUNT>
0

> <PUBCHEM_ISOTOPIC_ATOM_COUNT>
0

> <PUBCHEM_COMPONENT_COUNT>
1

> <PUBCHEM_CACTVS_TAUTO_COUNT>
-1

> <PUBCHEM_COORDINATE_TYPE>
1
5
255

> <PUBCHEM_BONDANNOTATIONS>
10  27  8
10  32  8
16  18  8
16  19  8
18  20  8
19  21  8
2  24  8
2  27  8
20  23  8
21  23  8
24  25  8
25  26  8
26  27  8
26  28  8
28  30  8
30  32  8

$$$$
