44348012
  -OEChem-09292322202D

 57 60  0     1  0  0  0  0  0999 V2000
    2.8222   -1.4442    0.0000 Cl  0  0  0  0  0  0  0  0  0  0  0  0
    6.9998   -2.6885    0.0000 O   0  0  0  0  0  0  0  0  0  0  0  0
    5.8864   -4.0154    0.0000 O   0  0  0  0  0  0  0  0  0  0  0  0
    8.9193    1.5361    0.0000 N   0  0  0  0  0  0  0  0  0  0  0  0
    6.4074   -1.0610    0.0000 N   0  0  0  0  0  0  0  0  0  0  0  0
    2.4750   -3.4138    0.0000 N   0  0  0  0  0  0  0  0  0  0  0  0
    9.3971   -0.4125    0.0000 C   0  0  3  0  0  0  0  0  0  0  0  0
    9.6559    0.5535    0.0000 C   0  0  3  0  0  0  0  0  0  0  0  0
    8.1761   -1.2781    0.0000 C   0  0  0  0  0  0  0  0  0  0  0  0
    7.6227    0.2423    0.0000 C   0  0  0  0  0  0  0  0  0  0  0  0
    7.3471   -0.7189    0.0000 C   0  0  0  0  0  0  0  0  0  0  0  0
   10.6688   -1.2071    0.0000 C   0  0  0  0  0  0  0  0  0  0  0  0
   11.0876    0.3558    0.0000 C   0  0  0  0  0  0  0  0  0  0  0  0
   11.4459   -0.5778    0.0000 C   0  0  0  0  0  0  0  0  0  0  0  0
    8.4193    2.4021    0.0000 C   0  0  0  0  0  0  0  0  0  0  0  0
    8.9193    3.2681    0.0000 C   0  0  0  0  0  0  0  0  0  0  0  0
    6.2337   -2.0458    0.0000 C   0  0  0  0  0  0  0  0  0  0  0  0
    8.4193    4.1342    0.0000 C   0  0  0  0  0  0  0  0  0  0  0  0
    9.9193    3.2681    0.0000 C   0  0  0  0  0  0  0  0  0  0  0  0
    5.2940   -2.3878    0.0000 C   0  0  0  0  0  0  0  0  0  0  0  0
    8.9193    5.0002    0.0000 C   0  0  0  0  0  0  0  0  0  0  0  0
   10.4193    4.1342    0.0000 C   0  0  0  0  0  0  0  0  0  0  0  0
    9.9193    5.0002    0.0000 C   0  0  0  0  0  0  0  0  0  0  0  0
    5.1204   -3.3726    0.0000 C   0  0  0  0  0  0  0  0  0  0  0  0
    4.5280   -1.7450    0.0000 C   0  0  0  0  0  0  0  0  0  0  0  0
    4.1807   -3.7146    0.0000 C   0  0  0  0  0  0  0  0  0  0  0  0
    3.5883   -2.0870    0.0000 C   0  0  0  0  0  0  0  0  0  0  0  0
    3.4146   -3.0718    0.0000 C   0  0  0  0  0  0  0  0  0  0  0  0
    5.7128   -5.0002    0.0000 C   0  0  0  0  0  0  0  0  0  0  0  0
    9.4152   -1.0322    0.0000 H   0  0  0  0  0  0  0  0  0  0  0  0
    9.6605   -0.0665    0.0000 H   0  0  0  0  0  0  0  0  0  0  0  0
    7.7702   -1.7468    0.0000 H   0  0  0  0  0  0  0  0  0  0  0  0
    8.5928   -1.7372    0.0000 H   0  0  0  0  0  0  0  0  0  0  0  0
    7.6176    0.8623    0.0000 H   0  0  0  0  0  0  0  0  0  0  0  0
    7.0084    0.3261    0.0000 H   0  0  0  0  0  0  0  0  0  0  0  0
    6.8936   -0.2961    0.0000 H   0  0  0  0  0  0  0  0  0  0  0  0
   10.2843   -1.6934    0.0000 H   0  0  0  0  0  0  0  0  0  0  0  0
   11.1098   -1.6430    0.0000 H   0  0  0  0  0  0  0  0  0  0  0  0
   11.6954    0.4781    0.0000 H   0  0  0  0  0  0  0  0  0  0  0  0
   11.0685    0.9755    0.0000 H   0  0  0  0  0  0  0  0  0  0  0  0
   11.7836   -1.0978    0.0000 H   0  0  0  0  0  0  0  0  0  0  0  0
   11.9984   -0.2963    0.0000 H   0  0  0  0  0  0  0  0  0  0  0  0
    7.9444    2.8006    0.0000 H   0  0  0  0  0  0  0  0  0  0  0  0
    7.9444    2.0036    0.0000 H   0  0  0  0  0  0  0  0  0  0  0  0
    5.9324   -0.6624    0.0000 H   0  0  0  0  0  0  0  0  0  0  0  0
    7.7993    4.1342    0.0000 H   0  0  0  0  0  0  0  0  0  0  0  0
   10.2293    2.7312    0.0000 H   0  0  0  0  0  0  0  0  0  0  0  0
    8.6093    5.5371    0.0000 H   0  0  0  0  0  0  0  0  0  0  0  0
   11.0393    4.1342    0.0000 H   0  0  0  0  0  0  0  0  0  0  0  0
   10.2293    5.5371    0.0000 H   0  0  0  0  0  0  0  0  0  0  0  0
    4.6356   -1.1344    0.0000 H   0  0  0  0  0  0  0  0  0  0  0  0
    4.0730   -4.3252    0.0000 H   0  0  0  0  0  0  0  0  0  0  0  0
    5.1022   -4.8925    0.0000 H   0  0  0  0  0  0  0  0  0  0  0  0
    5.6051   -5.6108    0.0000 H   0  0  0  0  0  0  0  0  0  0  0  0
    6.3233   -5.1078    0.0000 H   0  0  0  0  0  0  0  0  0  0  0  0
    2.3673   -4.0244    0.0000 H   0  0  0  0  0  0  0  0  0  0  0  0
    2.0000   -3.0153    0.0000 H   0  0  0  0  0  0  0  0  0  0  0  0
  1 27  1  0  0  0  0
  2 17  2  0  0  0  0
  3 24  1  0  0  0  0
  3 29  1  0  0  0  0
  4  7  1  0  0  0  0
  4  8  1  0  0  0  0
  4 15  1  0  0  0  0
  5 11  1  0  0  0  0
  5 17  1  0  0  0  0
  5 45  1  0  0  0  0
  6 28  1  0  0  0  0
  6 56  1  0  0  0  0
  6 57  1  0  0  0  0
  7  9  1  0  0  0  0
  7 12  1  0  0  0  0
  7 30  1  0  0  0  0
  8 10  1  0  0  0  0
  8 13  1  0  0  0  0
  8 31  1  0  0  0  0
  9 11  1  0  0  0  0
  9 32  1  0  0  0  0
  9 33  1  0  0  0  0
 10 11  1  0  0  0  0
 10 34  1  0  0  0  0
 10 35  1  0  0  0  0
 11 36  1  0  0  0  0
 12 14  1  0  0  0  0
 12 37  1  0  0  0  0
 12 38  1  0  0  0  0
 13 14  1  0  0  0  0
 13 39  1  0  0  0  0
 13 40  1  0  0  0  0
 14 41  1  0  0  0  0
 14 42  1  0  0  0  0
 15 16  1  0  0  0  0
 15 43  1  0  0  0  0
 15 44  1  0  0  0  0
 16 18  2  0  0  0  0
 16 19  1  0  0  0  0
 17 20  1  0  0  0  0
 18 21  1  0  0  0  0
 18 46  1  0  0  0  0
 19 22  2  0  0  0  0
 19 47  1  0  0  0  0
 20 24  1  0  0  0  0
 20 25  2  0  0  0  0
 21 23  2  0  0  0  0
 21 48  1  0  0  0  0
 22 23  1  0  0  0  0
 22 49  1  0  0  0  0
 23 50  1  0  0  0  0
 24 26  2  0  0  0  0
 25 27  1  0  0  0  0
 25 51  1  0  0  0  0
 26 28  1  0  0  0  0
 26 52  1  0  0  0  0
 27 28  2  0  0  0  0
 29 53  1  0  0  0  0
 29 54  1  0  0  0  0
 29 55  1  0  0  0  0
M  END
> <PUBCHEM_COMPOUND_CID>
44348012

> <PUBCHEM_COMPOUND_CANONICALIZED>
1

> <PUBCHEM_CACTVS_COMPLEXITY>
542

> <PUBCHEM_CACTVS_HBOND_ACCEPTOR>
4

> <PUBCHEM_CACTVS_HBOND_DONOR>
2

> <PUBCHEM_CACTVS_ROTATABLE_BOND>
5

> <PUBCHEM_CACTVS_SUBSKEYS>
AAADceB7MAAEAAAAAAAAAAAAAAAAAAAAAAA8eIEAAAAYAAABQAAAHgIQAAAADC7BmCYyxoPABACIAiVSUACCCAAkJwAIiIEObsgMJjaF95uEMWhm9hmI6YeY2aGeCCAAIgAIABAQQABEABAAIAAAAAAAAA==

> <PUBCHEM_IUPAC_OPENEYE_NAME>
4-amino-N-(9-benzyl-9-azabicyclo[3.3.1]nonan-3-yl)-5-chloro-2-methoxy-benzamide

> <PUBCHEM_IUPAC_CAS_NAME>
4-amino-5-chloro-2-methoxy-N-[9-(phenylmethyl)-9-azabicyclo[3.3.1]nonan-3-yl]benzamide

> <PUBCHEM_IUPAC_NAME_MARKUP>
4-amino-<I>N</I>-(9-benzyl-9-azabicyclo[3.3.1]nonan-3-yl)-5-chloro-2-methoxybenzamide

> <PUBCHEM_IUPAC_NAME>
4-amino-N-(9-benzyl-9-azabicyclo[3.3.1]nonan-3-yl)-5-chloro-2-methoxybenzamide

> <PUBCHEM_IUPAC_SYSTEMATIC_NAME>
4-azanyl-5-chloranyl-2-methoxy-N-[9-(phenylmethyl)-9-azabicyclo[3.3.1]nonan-3-yl]benzamide

> <PUBCHEM_IUPAC_TRADITIONAL_NAME>
4-amino-N-(9-benzyl-9-azabicyclo[3.3.1]nonan-3-yl)-5-chloro-2-methoxy-benzamide

> <PUBCHEM_IUPAC_INCHI>
InChI=1S/C23H28ClN3O2/c1-29-22-13-21(25)20(24)12-19(22)23(28)26-16-10-17-8-5-9-18(11-16)27(17)14-15-6-3-2-4-7-15/h2-4,6-7,12-13,16-18H,5,8-11,14,25H2,1H3,(H,26,28)

> <PUBCHEM_IUPAC_INCHIKEY>
BUPWFKLTAPZHIE-UHFFFAOYSA-N

> <PUBCHEM_XLOGP3_AA>
4.2

> <PUBCHEM_EXACT_MASS>
413.1870048

> <PUBCHEM_MOLECULAR_FORMULA>
C23H28ClN3O2

> <PUBCHEM_MOLECULAR_WEIGHT>
413.9

> <PUBCHEM_OPENEYE_CAN_SMILES>
COC1=CC(=C(C=C1C(=O)NC2CC3CCCC(C2)N3CC4=CC=CC=C4)Cl)N

> <PUBCHEM_OPENEYE_ISO_SMILES>
COC1=CC(=C(C=C1C(=O)NC2CC3CCCC(C2)N3CC4=CC=CC=C4)Cl)N

> <PUBCHEM_CACTVS_TPSA>
67.6

> <PUBCHEM_MONOISOTOPIC_WEIGHT>
413.1870048

> <PUBCHEM_TOTAL_CHARGE>
0

> <PUBCHEM_HEAVY_ATOM_COUNT>
29

> <PUBCHEM_ATOM_DEF_STEREO_COUNT>
0

> <PUBCHEM_ATOM_UDEF_STEREO_COUNT>
2

> <PUBCHEM_BOND_DEF_STEREO_COUNT>
0

> <PUBCHEM_BOND_UDEF_STEREO_COUNT>
0

> <PUBCHEM_ISOTOPIC_ATOM_COUNT>
0

> <PUBCHEM_COMPONENT_COUNT>
1

> <PUBCHEM_CACTVS_TAUTO_COUNT>
-1

> <PUBCHEM_COORDINATE_TYPE>
1
5
255

> <PUBCHEM_BONDANNOTATIONS>
16  18  8
16  19  8
18  21  8
19  22  8
20  24  8
20  25  8
21  23  8
22  23  8
24  26  8
25  27  8
26  28  8
27  28  8
7  12  3
8  13  3

$$$$
