155562353
  -OEChem-09292322412D

 65 67  0     1  0  0  0  0  0999 V2000
    6.2385    0.0000    0.0000 Cl  0  0  0  0  0  0  0  0  0  0  0  0
    7.4282   11.4860    0.0000 S   0  0  0  0  0  0  0  0  0  0  0  0
    6.0622    3.1200    0.0000 F   0  0  0  0  0  0  0  0  0  0  0  0
    0.0000    4.6200    0.0000 F   0  0  0  0  0  0  0  0  0  0  0  0
    2.5981    5.1200    0.0000 O   0  0  0  0  0  0  0  0  0  0  0  0
    5.6962    8.4860    0.0000 N   0  0  3  0  0  0  0  0  0  0  0  0
    9.2078   11.5793    0.0000 N   0  0  0  0  0  0  0  0  0  0  0  0
    8.3988   12.9805    0.0000 N   0  0  0  0  0  0  0  0  0  0  0  0
    9.3769   13.1885    0.0000 N   0  0  0  0  0  0  0  0  0  0  0  0
    4.8301    6.9860    0.0000 C   0  0  3  0  0  0  0  0  0  0  0  0
    4.3301    6.1200    0.0000 C   0  0  3  0  0  0  0  0  0  0  0  0
    3.8301    6.9860    0.0000 C   0  0  0  0  0  0  0  0  0  0  0  0
    5.6962    7.4860    0.0000 C   0  0  0  0  0  0  0  0  0  0  0  0
    4.3301    5.1200    0.0000 C   0  0  0  0  0  0  0  0  0  0  0  0
    3.4641    4.6200    0.0000 C   0  0  0  0  0  0  0  0  0  0  0  0
    5.1962    4.6200    0.0000 C   0  0  0  0  0  0  0  0  0  0  0  0
    6.5622    8.9860    0.0000 C   0  0  0  0  0  0  0  0  0  0  0  0
    4.8301    8.9860    0.0000 C   0  0  0  0  0  0  0  0  0  0  0  0
    3.4641    3.6200    0.0000 C   0  0  0  0  0  0  0  0  0  0  0  0
    5.1962    3.6200    0.0000 C   0  0  0  0  0  0  0  0  0  0  0  0
    6.5622    9.9860    0.0000 C   0  0  0  0  0  0  0  0  0  0  0  0
    4.3301    3.1200    0.0000 C   0  0  0  0  0  0  0  0  0  0  0  0
    7.4282   10.4860    0.0000 C   0  0  0  0  0  0  0  0  0  0  0  0
    1.7320    4.6200    0.0000 C   0  0  0  0  0  0  0  0  0  0  0  0
    0.8660    5.1200    0.0000 C   0  0  0  0  0  0  0  0  0  0  0  0
    8.2942   11.9860    0.0000 C   0  0  0  0  0  0  0  0  0  0  0  0
    9.8769   12.3224    0.0000 C   0  0  0  0  0  0  0  0  0  0  0  0
    9.4157   10.6011    0.0000 C   0  0  0  0  0  0  0  0  0  0  0  0
   10.8714   12.2179    0.0000 C   0  0  0  0  0  0  0  0  0  0  0  0
   11.4592   13.0269    0.0000 C   0  0  0  0  0  0  0  0  0  0  0  0
   11.2782   11.3044    0.0000 C   0  0  0  0  0  0  0  0  0  0  0  0
   12.4537   12.9224    0.0000 C   0  0  0  0  0  0  0  0  0  0  0  0
   12.2727   11.1998    0.0000 C   0  0  0  0  0  0  0  0  0  0  0  0
   12.8605   12.0088    0.0000 C   0  0  0  0  0  0  0  0  0  0  0  0
    4.6697    7.5849    0.0000 H   0  0  0  0  0  0  0  0  0  0  0  0
    4.9290    5.9595    0.0000 H   0  0  0  0  0  0  0  0  0  0  0  0
    3.7225    7.5966    0.0000 H   0  0  0  0  0  0  0  0  0  0  0  0
    3.2475    6.7740    0.0000 H   0  0  0  0  0  0  0  0  0  0  0  0
    5.9082    6.9034    0.0000 H   0  0  0  0  0  0  0  0  0  0  0  0
    6.3067    7.5937    0.0000 H   0  0  0  0  0  0  0  0  0  0  0  0
    5.7331    4.9300    0.0000 H   0  0  0  0  0  0  0  0  0  0  0  0
    6.7742    8.4034    0.0000 H   0  0  0  0  0  0  0  0  0  0  0  0
    7.1728    9.0937    0.0000 H   0  0  0  0  0  0  0  0  0  0  0  0
    5.1401    9.5230    0.0000 H   0  0  0  0  0  0  0  0  0  0  0  0
    4.2932    9.2960    0.0000 H   0  0  0  0  0  0  0  0  0  0  0  0
    4.5201    8.4491    0.0000 H   0  0  0  0  0  0  0  0  0  0  0  0
    2.9272    3.3100    0.0000 H   0  0  0  0  0  0  0  0  0  0  0  0
    6.3501   10.5686    0.0000 H   0  0  0  0  0  0  0  0  0  0  0  0
    5.9516    9.8784    0.0000 H   0  0  0  0  0  0  0  0  0  0  0  0
    4.3301    2.5000    0.0000 H   0  0  0  0  0  0  0  0  0  0  0  0
    7.6403    9.9034    0.0000 H   0  0  0  0  0  0  0  0  0  0  0  0
    8.0388   10.5937    0.0000 H   0  0  0  0  0  0  0  0  0  0  0  0
    1.3335    4.1450    0.0000 H   0  0  0  0  0  0  0  0  0  0  0  0
    2.1306    4.1450    0.0000 H   0  0  0  0  0  0  0  0  0  0  0  0
    1.2646    5.5950    0.0000 H   0  0  0  0  0  0  0  0  0  0  0  0
    0.4675    5.5950    0.0000 H   0  0  0  0  0  0  0  0  0  0  0  0
    8.8092   10.4722    0.0000 H   0  0  0  0  0  0  0  0  0  0  0  0
    9.5446    9.9947    0.0000 H   0  0  0  0  0  0  0  0  0  0  0  0
   10.0221   10.7300    0.0000 H   0  0  0  0  0  0  0  0  0  0  0  0
   11.2070   13.5933    0.0000 H   0  0  0  0  0  0  0  0  0  0  0  0
   10.9137   10.8028    0.0000 H   0  0  0  0  0  0  0  0  0  0  0  0
   12.8182   13.4240    0.0000 H   0  0  0  0  0  0  0  0  0  0  0  0
   12.5249   10.6334    0.0000 H   0  0  0  0  0  0  0  0  0  0  0  0
   13.4771   11.9440    0.0000 H   0  0  0  0  0  0  0  0  0  0  0  0
    7.2385    0.0000    0.0000 H   0  0  0  0  0  0  0  0  0  0  0  0
  1 65  1  0  0  0  0
  2 23  1  0  0  0  0
  2 26  1  0  0  0  0
  3 20  1  0  0  0  0
  4 25  1  0  0  0  0
  5 15  1  0  0  0  0
  5 24  1  0  0  0  0
  6 13  1  0  0  0  0
  6 17  1  0  0  0  0
  6 18  1  0  0  0  0
  7 26  1  0  0  0  0
  7 27  1  0  0  0  0
  7 28  1  0  0  0  0
  8  9  1  0  0  0  0
  8 26  2  0  0  0  0
  9 27  2  0  0  0  0
 10 11  1  0  0  0  0
 10 12  1  0  0  0  0
 10 13  1  0  0  0  0
 10 35  1  0  0  0  0
 11 12  1  0  0  0  0
 11 14  1  0  0  0  0
 11 36  1  0  0  0  0
 12 37  1  0  0  0  0
 12 38  1  0  0  0  0
 13 39  1  0  0  0  0
 13 40  1  0  0  0  0
 14 15  2  0  0  0  0
 14 16  1  0  0  0  0
 15 19  1  0  0  0  0
 16 20  2  0  0  0  0
 16 41  1  0  0  0  0
 17 21  1  0  0  0  0
 17 42  1  0  0  0  0
 17 43  1  0  0  0  0
 18 44  1  0  0  0  0
 18 45  1  0  0  0  0
 18 46  1  0  0  0  0
 19 22  2  0  0  0  0
 19 47  1  0  0  0  0
 20 22  1  0  0  0  0
 21 23  1  0  0  0  0
 21 48  1  0  0  0  0
 21 49  1  0  0  0  0
 22 50  1  0  0  0  0
 23 51  1  0  0  0  0
 23 52  1  0  0  0  0
 24 25  1  0  0  0  0
 24 53  1  0  0  0  0
 24 54  1  0  0  0  0
 25 55  1  0  0  0  0
 25 56  1  0  0  0  0
 27 29  1  0  0  0  0
 28 57  1  0  0  0  0
 28 58  1  0  0  0  0
 28 59  1  0  0  0  0
 29 30  2  0  0  0  0
 29 31  1  0  0  0  0
 30 32  1  0  0  0  0
 30 60  1  0  0  0  0
 31 33  2  0  0  0  0
 31 61  1  0  0  0  0
 32 34  2  0  0  0  0
 32 62  1  0  0  0  0
 33 34  1  0  0  0  0
 33 63  1  0  0  0  0
 34 64  1  0  0  0  0
M  END
> <PUBCHEM_COMPOUND_CID>
155562353

> <PUBCHEM_COMPOUND_CANONICALIZED>
1

> <PUBCHEM_CACTVS_COMPLEXITY>
585

> <PUBCHEM_CACTVS_HBOND_ACCEPTOR>
7

> <PUBCHEM_CACTVS_HBOND_DONOR>
1

> <PUBCHEM_CACTVS_ROTATABLE_BOND>
12

> <PUBCHEM_CACTVS_SUBSKEYS>
AAADceB7oYBEAAAAAAAAAAAAGAAAAWAAAAAwYAAAAAAAAAAB0AAAHwQIAAAADQTl2w6zFocMFAiiAiJiJACS2AtgILAdyCAuDJiMLqKkuRuGOCjkyBOIqAeQ0OIOgAAAAAAIAAAAAAAAABAAAAAAAAAAAA==

> <PUBCHEM_IUPAC_OPENEYE_NAME>
N-[[2-[5-fluoro-2-(2-fluoroethoxy)phenyl]cyclopropyl]methyl]-N-methyl-3-[(4-methyl-5-phenyl-1,2,4-triazol-3-yl)sulfanyl]propan-1-amine;hydrochloride

> <PUBCHEM_IUPAC_CAS_NAME>
N-[[2-[5-fluoro-2-(2-fluoroethoxy)phenyl]cyclopropyl]methyl]-N-methyl-3-[(4-methyl-5-phenyl-1,2,4-triazol-3-yl)thio]-1-propanamine;hydrochloride

> <PUBCHEM_IUPAC_NAME_MARKUP>
<I>N</I>-[[2-[5-fluoro-2-(2-fluoroethoxy)phenyl]cyclopropyl]methyl]-<I>N</I>-methyl-3-[(4-methyl-5-phenyl-1,2,4-triazol-3-yl)sulfanyl]propan-1-amine;hydrochloride

> <PUBCHEM_IUPAC_NAME>
N-[[2-[5-fluoro-2-(2-fluoroethoxy)phenyl]cyclopropyl]methyl]-N-methyl-3-[(4-methyl-5-phenyl-1,2,4-triazol-3-yl)sulfanyl]propan-1-amine;hydrochloride

> <PUBCHEM_IUPAC_SYSTEMATIC_NAME>
N-[[2-[5-fluoranyl-2-(2-fluoranylethoxy)phenyl]cyclopropyl]methyl]-N-methyl-3-[(4-methyl-5-phenyl-1,2,4-triazol-3-yl)sulfanyl]propan-1-amine;hydrochloride

> <PUBCHEM_IUPAC_TRADITIONAL_NAME>
[2-[5-fluoro-2-(2-fluoroethoxy)phenyl]cyclopropyl]methyl-methyl-[3-[(4-methyl-5-phenyl-1,2,4-triazol-3-yl)thio]propyl]amine;hydrochloride

> <PUBCHEM_IUPAC_INCHI>
InChI=1S/C25H30F2N4OS.ClH/c1-30(17-19-15-21(19)22-16-20(27)9-10-23(22)32-13-11-26)12-6-14-33-25-29-28-24(31(25)2)18-7-4-3-5-8-18;/h3-5,7-10,16,19,21H,6,11-15,17H2,1-2H3;1H

> <PUBCHEM_IUPAC_INCHIKEY>
YGLJFTGMBJXSPI-UHFFFAOYSA-N

> <PUBCHEM_EXACT_MASS>
508.1875168

> <PUBCHEM_MOLECULAR_FORMULA>
C25H31ClF2N4OS

> <PUBCHEM_MOLECULAR_WEIGHT>
509.1

> <PUBCHEM_OPENEYE_CAN_SMILES>
CN1C(=NN=C1SCCCN(C)CC2CC2C3=C(C=CC(=C3)F)OCCF)C4=CC=CC=C4.Cl

> <PUBCHEM_OPENEYE_ISO_SMILES>
CN1C(=NN=C1SCCCN(C)CC2CC2C3=C(C=CC(=C3)F)OCCF)C4=CC=CC=C4.Cl

> <PUBCHEM_CACTVS_TPSA>
68.5

> <PUBCHEM_MONOISOTOPIC_WEIGHT>
508.1875168

> <PUBCHEM_TOTAL_CHARGE>
0

> <PUBCHEM_HEAVY_ATOM_COUNT>
34

> <PUBCHEM_ATOM_DEF_STEREO_COUNT>
0

> <PUBCHEM_ATOM_UDEF_STEREO_COUNT>
2

> <PUBCHEM_BOND_DEF_STEREO_COUNT>
0

> <PUBCHEM_BOND_UDEF_STEREO_COUNT>
0

> <PUBCHEM_ISOTOPIC_ATOM_COUNT>
0

> <PUBCHEM_COMPONENT_COUNT>
2

> <PUBCHEM_CACTVS_TAUTO_COUNT>
-1

> <PUBCHEM_COORDINATE_TYPE>
1
5
255

> <PUBCHEM_BONDANNOTATIONS>
10  13  3
11  14  3
14  15  8
14  16  8
15  19  8
16  20  8
19  22  8
20  22  8
29  30  8
29  31  8
30  32  8
31  33  8
32  34  8
33  34  8
7  26  8
7  27  8
8  26  8
8  9  8
9  27  8

$$$$
