11849637
  -OEChem-09292322022D

 48 50  0     0  0  0  0  0  0999 V2000
    2.5369    2.7500    0.0000 O   0  0  0  0  0  0  0  0  0  0  0  0
    3.4030    0.2500    0.0000 N   0  0  0  0  0  0  0  0  0  0  0  0
    3.4030   -1.7500    0.0000 N   0  0  0  0  0  0  0  0  0  0  0  0
    2.5369   -3.2500    0.0000 N   0  0  0  0  0  0  0  0  0  0  0  0
    3.4030    3.2500    0.0000 N   0  0  0  0  0  0  0  0  0  0  0  0
    4.2690   -0.2500    0.0000 C   0  0  0  0  0  0  0  0  0  0  0  0
    2.5369   -0.2500    0.0000 C   0  0  0  0  0  0  0  0  0  0  0  0
    4.2690   -1.2500    0.0000 C   0  0  0  0  0  0  0  0  0  0  0  0
    2.5369   -1.2500    0.0000 C   0  0  0  0  0  0  0  0  0  0  0  0
    3.4030    1.2500    0.0000 C   0  0  0  0  0  0  0  0  0  0  0  0
    4.2690    1.7500    0.0000 C   0  0  0  0  0  0  0  0  0  0  0  0
    3.4030   -2.7500    0.0000 C   0  0  0  0  0  0  0  0  0  0  0  0
    4.2690    2.7500    0.0000 C   0  0  0  0  0  0  0  0  0  0  0  0
    4.2690   -3.2500    0.0000 C   0  0  0  0  0  0  0  0  0  0  0  0
    5.1350    3.2500    0.0000 C   0  0  0  0  0  0  0  0  0  0  0  0
    4.2690   -4.2500    0.0000 C   0  0  0  0  0  0  0  0  0  0  0  0
    6.0010    2.7500    0.0000 C   0  0  0  0  0  0  0  0  0  0  0  0
    2.5369   -4.2500    0.0000 C   0  0  0  0  0  0  0  0  0  0  0  0
    5.1350    4.2500    0.0000 C   0  0  0  0  0  0  0  0  0  0  0  0
    3.4030   -4.7500    0.0000 C   0  0  0  0  0  0  0  0  0  0  0  0
    6.8671    3.2500    0.0000 C   0  0  0  0  0  0  0  0  0  0  0  0
    6.0010    4.7500    0.0000 C   0  0  0  0  0  0  0  0  0  0  0  0
    6.8671    4.2500    0.0000 C   0  0  0  0  0  0  0  0  0  0  0  0
    7.7331    2.7500    0.0000 C   0  0  0  0  0  0  0  0  0  0  0  0
    4.8796   -0.3577    0.0000 H   0  0  0  0  0  0  0  0  0  0  0  0
    4.4810    0.3326    0.0000 H   0  0  0  0  0  0  0  0  0  0  0  0
    2.3249    0.3326    0.0000 H   0  0  0  0  0  0  0  0  0  0  0  0
    1.9264   -0.3577    0.0000 H   0  0  0  0  0  0  0  0  0  0  0  0
    4.4810   -1.8326    0.0000 H   0  0  0  0  0  0  0  0  0  0  0  0
    4.8796   -1.1423    0.0000 H   0  0  0  0  0  0  0  0  0  0  0  0
    1.9264   -1.1423    0.0000 H   0  0  0  0  0  0  0  0  0  0  0  0
    2.3249   -1.8326    0.0000 H   0  0  0  0  0  0  0  0  0  0  0  0
    3.1909    1.8326    0.0000 H   0  0  0  0  0  0  0  0  0  0  0  0
    2.7924    1.1423    0.0000 H   0  0  0  0  0  0  0  0  0  0  0  0
    4.4810    1.1674    0.0000 H   0  0  0  0  0  0  0  0  0  0  0  0
    4.8796    1.8577    0.0000 H   0  0  0  0  0  0  0  0  0  0  0  0
    4.8059   -2.9400    0.0000 H   0  0  0  0  0  0  0  0  0  0  0  0
    4.8059   -4.5600    0.0000 H   0  0  0  0  0  0  0  0  0  0  0  0
    6.0010    2.1300    0.0000 H   0  0  0  0  0  0  0  0  0  0  0  0
    4.5981    4.5600    0.0000 H   0  0  0  0  0  0  0  0  0  0  0  0
    2.0000   -4.5600    0.0000 H   0  0  0  0  0  0  0  0  0  0  0  0
    3.4030   -5.3700    0.0000 H   0  0  0  0  0  0  0  0  0  0  0  0
    6.0010    5.3700    0.0000 H   0  0  0  0  0  0  0  0  0  0  0  0
    7.4040    4.5600    0.0000 H   0  0  0  0  0  0  0  0  0  0  0  0
    7.4231    2.2131    0.0000 H   0  0  0  0  0  0  0  0  0  0  0  0
    8.2700    2.4400    0.0000 H   0  0  0  0  0  0  0  0  0  0  0  0
    8.0431    3.2869    0.0000 H   0  0  0  0  0  0  0  0  0  0  0  0
    2.0000    3.0600    0.0000 H   0  0  0  0  0  0  0  0  0  0  0  0
  1  5  1  0  0  0  0
  1 48  1  0  0  0  0
  2  6  1  0  0  0  0
  2  7  1  0  0  0  0
  2 10  1  0  0  0  0
  3  8  1  0  0  0  0
  3  9  1  0  0  0  0
  3 12  1  0  0  0  0
  4 12  1  0  0  0  0
  4 18  2  0  0  0  0
  5 13  2  0  0  0  0
  6  8  1  0  0  0  0
  6 25  1  0  0  0  0
  6 26  1  0  0  0  0
  7  9  1  0  0  0  0
  7 27  1  0  0  0  0
  7 28  1  0  0  0  0
  8 29  1  0  0  0  0
  8 30  1  0  0  0  0
  9 31  1  0  0  0  0
  9 32  1  0  0  0  0
 10 11  1  0  0  0  0
 10 33  1  0  0  0  0
 10 34  1  0  0  0  0
 11 13  1  0  0  0  0
 11 35  1  0  0  0  0
 11 36  1  0  0  0  0
 12 14  2  0  0  0  0
 13 15  1  0  0  0  0
 14 16  1  0  0  0  0
 14 37  1  0  0  0  0
 15 17  1  0  0  0  0
 15 19  2  0  0  0  0
 16 20  2  0  0  0  0
 16 38  1  0  0  0  0
 17 21  2  0  0  0  0
 17 39  1  0  0  0  0
 18 20  1  0  0  0  0
 18 41  1  0  0  0  0
 19 22  1  0  0  0  0
 19 40  1  0  0  0  0
 20 42  1  0  0  0  0
 21 23  1  0  0  0  0
 21 24  1  0  0  0  0
 22 23  2  0  0  0  0
 22 43  1  0  0  0  0
 23 44  1  0  0  0  0
 24 45  1  0  0  0  0
 24 46  1  0  0  0  0
 24 47  1  0  0  0  0
M  END
> <PUBCHEM_COMPOUND_CID>
11849637

> <PUBCHEM_COMPOUND_CANONICALIZED>
1

> <PUBCHEM_CACTVS_COMPLEXITY>
406

> <PUBCHEM_CACTVS_HBOND_ACCEPTOR>
5

> <PUBCHEM_CACTVS_HBOND_DONOR>
1

> <PUBCHEM_CACTVS_ROTATABLE_BOND>
5

> <PUBCHEM_CACTVS_SUBSKEYS>
AAADceB7oAAAAAAAAAAAAAAAAAAAAAAAAAA8WIAAAAAAAAABwAAAHAAECAAADAjBGgQ/sJMYEACgAzJnZACCgCkxAiAJ2CA4ZJiIYOLAmZGUIAhogALIyCcQgMAOAAACAAAAAAAAAAQAAAAAAAAAAAAAAA==

> <PUBCHEM_IUPAC_OPENEYE_NAME>
1-(m-tolyl)-3-[4-(2-pyridyl)piperazin-1-yl]propan-1-one oxime

> <PUBCHEM_IUPAC_CAS_NAME>
1-(3-methylphenyl)-3-[4-(2-pyridinyl)-1-piperazinyl]-1-propanone oxime

> <PUBCHEM_IUPAC_NAME_MARKUP>
(<I>N</I><I>E</I>)-<I>N</I>-[1-(3-methylphenyl)-3-(4-pyridin-2-ylpiperazin-1-yl)propylidene]hydroxylamine

> <PUBCHEM_IUPAC_NAME>
(NE)-N-[1-(3-methylphenyl)-3-(4-pyridin-2-ylpiperazin-1-yl)propylidene]hydroxylamine

> <PUBCHEM_IUPAC_SYSTEMATIC_NAME>
(NE)-N-[1-(3-methylphenyl)-3-(4-pyridin-2-ylpiperazin-1-yl)propylidene]hydroxylamine

> <PUBCHEM_IUPAC_TRADITIONAL_NAME>
1-(m-tolyl)-3-[4-(2-pyridyl)piperazino]propan-1-one oxime

> <PUBCHEM_IUPAC_INCHI>
InChI=1S/C19H24N4O/c1-16-5-4-6-17(15-16)18(21-24)8-10-22-11-13-23(14-12-22)19-7-2-3-9-20-19/h2-7,9,15,24H,8,10-14H2,1H3/b21-18+

> <PUBCHEM_IUPAC_INCHIKEY>
NHFACONALCKCDS-DYTRJAOYSA-N

> <PUBCHEM_XLOGP3_AA>
3.1

> <PUBCHEM_EXACT_MASS>
324.19501140

> <PUBCHEM_MOLECULAR_FORMULA>
C19H24N4O

> <PUBCHEM_MOLECULAR_WEIGHT>
324.4

> <PUBCHEM_OPENEYE_CAN_SMILES>
CC1=CC(=CC=C1)C(=NO)CCN2CCN(CC2)C3=CC=CC=N3

> <PUBCHEM_OPENEYE_ISO_SMILES>
CC1=CC(=CC=C1)/C(=N/O)/CCN2CCN(CC2)C3=CC=CC=N3

> <PUBCHEM_CACTVS_TPSA>
52

> <PUBCHEM_MONOISOTOPIC_WEIGHT>
324.19501140

> <PUBCHEM_TOTAL_CHARGE>
0

> <PUBCHEM_HEAVY_ATOM_COUNT>
24

> <PUBCHEM_ATOM_DEF_STEREO_COUNT>
0

> <PUBCHEM_ATOM_UDEF_STEREO_COUNT>
0

> <PUBCHEM_BOND_DEF_STEREO_COUNT>
1

> <PUBCHEM_BOND_UDEF_STEREO_COUNT>
0

> <PUBCHEM_ISOTOPIC_ATOM_COUNT>
0

> <PUBCHEM_COMPONENT_COUNT>
1

> <PUBCHEM_CACTVS_TAUTO_COUNT>
-1

> <PUBCHEM_COORDINATE_TYPE>
1
5
255

> <PUBCHEM_BONDANNOTATIONS>
12  14  8
14  16  8
15  17  8
15  19  8
16  20  8
17  21  8
18  20  8
19  22  8
21  23  8
22  23  8
4  12  8
4  18  8

$$$$
