11178830
  -OEChem-09292322262D

 61 65  0     0  0  0  0  0  0999 V2000
   13.3123   -2.2846    0.0000 F   0  0  0  0  0  0  0  0  0  0  0  0
    4.6520   -2.2846    0.0000 F   0  0  0  0  0  0  0  0  0  0  0  0
    6.3840    0.7154    0.0000 O   0  0  0  0  0  0  0  0  0  0  0  0
   15.0722    0.7500    0.0000 O   0  0  0  0  0  0  0  0  0  0  0  0
   16.8424   -1.3088    0.0000 O   0  0  0  0  0  0  0  0  0  0  0  0
    8.9821    0.2154    0.0000 N   0  0  0  0  0  0  0  0  0  0  0  0
   15.0722   -1.3193    0.0000 N   0  0  0  0  0  0  0  0  0  0  0  0
    2.8760    0.7222    0.0000 N   0  0  0  0  0  0  0  0  0  0  0  0
   10.7142   -0.7846    0.0000 C   0  0  0  0  0  0  0  0  0  0  0  0
    9.8482   -1.2846    0.0000 C   0  0  0  0  0  0  0  0  0  0  0  0
   10.7142    0.2154    0.0000 C   0  0  0  0  0  0  0  0  0  0  0  0
    8.9821   -0.7846    0.0000 C   0  0  0  0  0  0  0  0  0  0  0  0
    9.8482    0.7154    0.0000 C   0  0  0  0  0  0  0  0  0  0  0  0
   11.5802   -1.2846    0.0000 C   0  0  0  0  0  0  0  0  0  0  0  0
    8.1161    0.7154    0.0000 C   0  0  0  0  0  0  0  0  0  0  0  0
   12.4462   -0.7846    0.0000 C   0  0  0  0  0  0  0  0  0  0  0  0
    7.2501    0.2154    0.0000 C   0  0  0  0  0  0  0  0  0  0  0  0
   13.3123   -1.2846    0.0000 C   0  0  0  0  0  0  0  0  0  0  0  0
   12.4462    0.2154    0.0000 C   0  0  0  0  0  0  0  0  0  0  0  0
   14.1783   -0.7846    0.0000 C   0  0  0  0  0  0  0  0  0  0  0  0
   13.3123    0.7154    0.0000 C   0  0  0  0  0  0  0  0  0  0  0  0
   14.1783    0.2154    0.0000 C   0  0  0  0  0  0  0  0  0  0  0  0
    5.5180    0.2154    0.0000 C   0  0  0  0  0  0  0  0  0  0  0  0
   15.9783    0.2362    0.0000 C   0  0  0  0  0  0  0  0  0  0  0  0
   15.9783   -0.8054    0.0000 C   0  0  0  0  0  0  0  0  0  0  0  0
    4.6520    0.7154    0.0000 C   0  0  0  0  0  0  0  0  0  0  0  0
    5.5180   -0.7846    0.0000 C   0  0  0  0  0  0  0  0  0  0  0  0
    3.7860    0.2154    0.0000 C   0  0  0  0  0  0  0  0  0  0  0  0
    4.6681    1.7569    0.0000 C   0  0  0  0  0  0  0  0  0  0  0  0
    4.6520   -1.2846    0.0000 C   0  0  0  0  0  0  0  0  0  0  0  0
    3.7860   -0.7846    0.0000 C   0  0  0  0  0  0  0  0  0  0  0  0
    3.7700    2.2846    0.0000 C   0  0  0  0  0  0  0  0  0  0  0  0
    2.8680    1.7638    0.0000 C   0  0  0  0  0  0  0  0  0  0  0  0
    2.0000    2.2605    0.0000 C   0  0  0  0  0  0  0  0  0  0  0  0
   11.2511   -0.4746    0.0000 H   0  0  0  0  0  0  0  0  0  0  0  0
    9.4496   -1.7596    0.0000 H   0  0  0  0  0  0  0  0  0  0  0  0
   10.2467   -1.7596    0.0000 H   0  0  0  0  0  0  0  0  0  0  0  0
   11.3248    0.1077    0.0000 H   0  0  0  0  0  0  0  0  0  0  0  0
   10.9262    0.7980    0.0000 H   0  0  0  0  0  0  0  0  0  0  0  0
    8.3715   -0.6770    0.0000 H   0  0  0  0  0  0  0  0  0  0  0  0
    8.7701   -1.3672    0.0000 H   0  0  0  0  0  0  0  0  0  0  0  0
   10.2467    1.1903    0.0000 H   0  0  0  0  0  0  0  0  0  0  0  0
    9.4496    1.1903    0.0000 H   0  0  0  0  0  0  0  0  0  0  0  0
   11.1817   -1.7596    0.0000 H   0  0  0  0  0  0  0  0  0  0  0  0
   11.9787   -1.7596    0.0000 H   0  0  0  0  0  0  0  0  0  0  0  0
    8.5146    1.1903    0.0000 H   0  0  0  0  0  0  0  0  0  0  0  0
    7.7176    1.1903    0.0000 H   0  0  0  0  0  0  0  0  0  0  0  0
    6.8516   -0.2596    0.0000 H   0  0  0  0  0  0  0  0  0  0  0  0
    7.6486   -0.2596    0.0000 H   0  0  0  0  0  0  0  0  0  0  0  0
   11.9093    0.5254    0.0000 H   0  0  0  0  0  0  0  0  0  0  0  0
   13.3123    1.3354    0.0000 H   0  0  0  0  0  0  0  0  0  0  0  0
   15.0651   -1.9392    0.0000 H   0  0  0  0  0  0  0  0  0  0  0  0
   16.5891    0.1301    0.0000 H   0  0  0  0  0  0  0  0  0  0  0  0
   16.1873    0.8199    0.0000 H   0  0  0  0  0  0  0  0  0  0  0  0
    6.0550   -1.0946    0.0000 H   0  0  0  0  0  0  0  0  0  0  0  0
    5.2086    2.0606    0.0000 H   0  0  0  0  0  0  0  0  0  0  0  0
    3.2490   -1.0946    0.0000 H   0  0  0  0  0  0  0  0  0  0  0  0
    3.7724    2.9046    0.0000 H   0  0  0  0  0  0  0  0  0  0  0  0
    2.3079    2.7986    0.0000 H   0  0  0  0  0  0  0  0  0  0  0  0
    1.4619    2.5684    0.0000 H   0  0  0  0  0  0  0  0  0  0  0  0
    1.6921    1.7224    0.0000 H   0  0  0  0  0  0  0  0  0  0  0  0
  1 18  1  0  0  0  0
  2 30  1  0  0  0  0
  3 17  1  0  0  0  0
  3 23  1  0  0  0  0
  4 22  1  0  0  0  0
  4 24  1  0  0  0  0
  5 25  2  0  0  0  0
  6 12  1  0  0  0  0
  6 13  1  0  0  0  0
  6 15  1  0  0  0  0
  7 20  1  0  0  0  0
  7 25  1  0  0  0  0
  7 52  1  0  0  0  0
  8 28  1  0  0  0  0
  8 33  2  0  0  0  0
  9 10  1  0  0  0  0
  9 11  1  0  0  0  0
  9 14  1  0  0  0  0
  9 35  1  0  0  0  0
 10 12  1  0  0  0  0
 10 36  1  0  0  0  0
 10 37  1  0  0  0  0
 11 13  1  0  0  0  0
 11 38  1  0  0  0  0
 11 39  1  0  0  0  0
 12 40  1  0  0  0  0
 12 41  1  0  0  0  0
 13 42  1  0  0  0  0
 13 43  1  0  0  0  0
 14 16  1  0  0  0  0
 14 44  1  0  0  0  0
 14 45  1  0  0  0  0
 15 17  1  0  0  0  0
 15 46  1  0  0  0  0
 15 47  1  0  0  0  0
 16 18  2  0  0  0  0
 16 19  1  0  0  0  0
 17 48  1  0  0  0  0
 17 49  1  0  0  0  0
 18 20  1  0  0  0  0
 19 21  2  0  0  0  0
 19 50  1  0  0  0  0
 20 22  2  0  0  0  0
 21 22  1  0  0  0  0
 21 51  1  0  0  0  0
 23 26  1  0  0  0  0
 23 27  2  0  0  0  0
 24 25  1  0  0  0  0
 24 53  1  0  0  0  0
 24 54  1  0  0  0  0
 26 28  2  0  0  0  0
 26 29  1  0  0  0  0
 27 30  1  0  0  0  0
 27 55  1  0  0  0  0
 28 31  1  0  0  0  0
 29 32  2  0  0  0  0
 29 56  1  0  0  0  0
 30 31  2  0  0  0  0
 31 57  1  0  0  0  0
 32 33  1  0  0  0  0
 32 58  1  0  0  0  0
 33 34  1  0  0  0  0
 34 59  1  0  0  0  0
 34 60  1  0  0  0  0
 34 61  1  0  0  0  0
M  END
> <PUBCHEM_COMPOUND_CID>
11178830

> <PUBCHEM_COMPOUND_CANONICALIZED>
1

> <PUBCHEM_CACTVS_COMPLEXITY>
692

> <PUBCHEM_CACTVS_HBOND_ACCEPTOR>
7

> <PUBCHEM_CACTVS_HBOND_DONOR>
1

> <PUBCHEM_CACTVS_ROTATABLE_BOND>
6

> <PUBCHEM_CACTVS_SUBSKEYS>
AAADceB7MYAAAAAAAAAAAAAAAAAAAAAAAAA8eLECAAAAAACx9AAAHwAQAAAADQzhng4yxvPIFACoAyVyVAKCiCAhIiAImCB/bJgOJuLEsZ+HOCjm1BnY6AeQ0OMOIAAAQgAKEABAAACEABQgAAAAAAAAAA==

> <PUBCHEM_IUPAC_OPENEYE_NAME>
5-fluoro-6-[[1-[2-[(7-fluoro-2-methyl-5-quinolyl)oxy]ethyl]-4-piperidyl]methyl]-4H-1,4-benzoxazin-3-one

> <PUBCHEM_IUPAC_CAS_NAME>
5-fluoro-6-[[1-[2-[(7-fluoro-2-methyl-5-quinolinyl)oxy]ethyl]-4-piperidinyl]methyl]-4H-1,4-benzoxazin-3-one

> <PUBCHEM_IUPAC_NAME_MARKUP>
5-fluoro-6-[[1-[2-(7-fluoro-2-methylquinolin-5-yl)oxyethyl]piperidin-4-yl]methyl]-4<I>H</I>-1,4-benzoxazin-3-one

> <PUBCHEM_IUPAC_NAME>
5-fluoro-6-[[1-[2-(7-fluoro-2-methylquinolin-5-yl)oxyethyl]piperidin-4-yl]methyl]-4H-1,4-benzoxazin-3-one

> <PUBCHEM_IUPAC_SYSTEMATIC_NAME>
5-fluoranyl-6-[[1-[2-(7-fluoranyl-2-methyl-quinolin-5-yl)oxyethyl]piperidin-4-yl]methyl]-4H-1,4-benzoxazin-3-one

> <PUBCHEM_IUPAC_TRADITIONAL_NAME>
5-fluoro-6-[[1-[2-[(7-fluoro-2-methyl-5-quinolyl)oxy]ethyl]-4-piperidyl]methyl]-4H-1,4-benzoxazin-3-one

> <PUBCHEM_IUPAC_INCHI>
InChI=1S/C26H27F2N3O3/c1-16-2-4-20-21(29-16)13-19(27)14-23(20)33-11-10-31-8-6-17(7-9-31)12-18-3-5-22-26(25(18)28)30-24(32)15-34-22/h2-5,13-14,17H,6-12,15H2,1H3,(H,30,32)

> <PUBCHEM_IUPAC_INCHIKEY>
NNKWTFPUEFVMKD-UHFFFAOYSA-N

> <PUBCHEM_XLOGP3_AA>
4.5

> <PUBCHEM_EXACT_MASS>
467.20204806

> <PUBCHEM_MOLECULAR_FORMULA>
C26H27F2N3O3

> <PUBCHEM_MOLECULAR_WEIGHT>
467.5

> <PUBCHEM_OPENEYE_CAN_SMILES>
CC1=NC2=C(C=C1)C(=CC(=C2)F)OCCN3CCC(CC3)CC4=C(C5=C(C=C4)OCC(=O)N5)F

> <PUBCHEM_OPENEYE_ISO_SMILES>
CC1=NC2=C(C=C1)C(=CC(=C2)F)OCCN3CCC(CC3)CC4=C(C5=C(C=C4)OCC(=O)N5)F

> <PUBCHEM_CACTVS_TPSA>
63.7

> <PUBCHEM_MONOISOTOPIC_WEIGHT>
467.20204806

> <PUBCHEM_TOTAL_CHARGE>
0

> <PUBCHEM_HEAVY_ATOM_COUNT>
34

> <PUBCHEM_ATOM_DEF_STEREO_COUNT>
0

> <PUBCHEM_ATOM_UDEF_STEREO_COUNT>
0

> <PUBCHEM_BOND_DEF_STEREO_COUNT>
0

> <PUBCHEM_BOND_UDEF_STEREO_COUNT>
0

> <PUBCHEM_ISOTOPIC_ATOM_COUNT>
0

> <PUBCHEM_COMPONENT_COUNT>
1

> <PUBCHEM_CACTVS_TAUTO_COUNT>
-1

> <PUBCHEM_COORDINATE_TYPE>
1
5
255

> <PUBCHEM_BONDANNOTATIONS>
16  18  8
16  19  8
18  20  8
19  21  8
20  22  8
21  22  8
23  26  8
23  27  8
26  28  8
26  29  8
27  30  8
28  31  8
29  32  8
30  31  8
32  33  8
8  28  8
8  33  8

$$$$
