127047901
  -OEChem-09292322372D

 61 64  0     0  0  0  0  0  0999 V2000
    8.4530   -2.5740    0.0000 S   0  0  0  0  0  0  0  0  0  0  0  0
    9.4035   -2.2633    0.0000 O   0  0  0  0  0  0  0  0  0  0  0  0
    7.5025   -2.8847    0.0000 O   0  0  0  0  0  0  0  0  0  0  0  0
    6.3301    4.1813    0.0000 O   0  0  0  0  0  0  0  0  0  0  0  0
    4.5981   -1.8187    0.0000 N   0  0  0  0  0  0  0  0  0  0  0  0
    2.8660   -2.8187    0.0000 N   0  0  0  0  0  0  0  0  0  0  0  0
    8.1424   -1.6235    0.0000 N   0  0  0  0  0  0  0  0  0  0  0  0
    6.3301   -1.8187    0.0000 N   0  0  0  0  0  0  0  0  0  0  0  0
    4.5981   -2.8187    0.0000 C   0  0  0  0  0  0  0  0  0  0  0  0
    3.7320   -1.3187    0.0000 C   0  0  0  0  0  0  0  0  0  0  0  0
    3.7320   -3.3187    0.0000 C   0  0  0  0  0  0  0  0  0  0  0  0
    2.8660   -1.8187    0.0000 C   0  0  0  0  0  0  0  0  0  0  0  0
    5.4641   -1.3187    0.0000 C   0  0  0  0  0  0  0  0  0  0  0  0
    7.1962   -1.3187    0.0000 C   0  0  0  0  0  0  0  0  0  0  0  0
    7.1962   -0.3187    0.0000 C   0  0  0  0  0  0  0  0  0  0  0  0
    8.7637   -3.5245    0.0000 C   0  0  0  0  0  0  0  0  0  0  0  0
    6.3301    0.1813    0.0000 C   0  0  0  0  0  0  0  0  0  0  0  0
    9.7422   -3.7307    0.0000 C   0  0  0  0  0  0  0  0  0  0  0  0
    5.4641   -0.3187    0.0000 C   0  0  0  0  0  0  0  0  0  0  0  0
    2.0000   -3.3187    0.0000 C   0  0  0  0  0  0  0  0  0  0  0  0
    8.7260   -0.8187    0.0000 C   0  0  0  0  0  0  0  0  0  0  0  0
    8.1424   -0.0140    0.0000 C   0  0  0  0  0  0  0  0  0  0  0  0
    6.3301    1.1813    0.0000 C   0  0  0  0  0  0  0  0  0  0  0  0
   10.0529   -4.6813    0.0000 C   0  0  0  0  0  0  0  0  0  0  0  0
   10.4100   -2.9864    0.0000 C   0  0  0  0  0  0  0  0  0  0  0  0
    7.1962    1.6813    0.0000 C   0  0  0  0  0  0  0  0  0  0  0  0
    5.4641    1.6813    0.0000 C   0  0  0  0  0  0  0  0  0  0  0  0
    7.1962    2.6813    0.0000 C   0  0  0  0  0  0  0  0  0  0  0  0
    5.4641    2.6813    0.0000 C   0  0  0  0  0  0  0  0  0  0  0  0
    6.3301    3.1813    0.0000 C   0  0  0  0  0  0  0  0  0  0  0  0
    5.4641    4.6813    0.0000 C   0  0  0  0  0  0  0  0  0  0  0  0
    4.8101   -3.4014    0.0000 H   0  0  0  0  0  0  0  0  0  0  0  0
    5.2087   -2.7111    0.0000 H   0  0  0  0  0  0  0  0  0  0  0  0
    4.1306   -0.8438    0.0000 H   0  0  0  0  0  0  0  0  0  0  0  0
    3.3335   -0.8438    0.0000 H   0  0  0  0  0  0  0  0  0  0  0  0
    3.3335   -3.7937    0.0000 H   0  0  0  0  0  0  0  0  0  0  0  0
    4.1306   -3.7937    0.0000 H   0  0  0  0  0  0  0  0  0  0  0  0
    2.6540   -1.2361    0.0000 H   0  0  0  0  0  0  0  0  0  0  0  0
    2.2554   -1.9264    0.0000 H   0  0  0  0  0  0  0  0  0  0  0  0
    8.1499   -3.6119    0.0000 H   0  0  0  0  0  0  0  0  0  0  0  0
    8.7431   -4.1442    0.0000 H   0  0  0  0  0  0  0  0  0  0  0  0
    9.5496   -3.1414    0.0000 H   0  0  0  0  0  0  0  0  0  0  0  0
    4.9272   -0.0087    0.0000 H   0  0  0  0  0  0  0  0  0  0  0  0
    9.3460   -0.8187    0.0000 H   0  0  0  0  0  0  0  0  0  0  0  0
    1.6900   -2.7818    0.0000 H   0  0  0  0  0  0  0  0  0  0  0  0
    1.4631   -3.6287    0.0000 H   0  0  0  0  0  0  0  0  0  0  0  0
    2.3100   -3.8557    0.0000 H   0  0  0  0  0  0  0  0  0  0  0  0
    8.3350    0.5753    0.0000 H   0  0  0  0  0  0  0  0  0  0  0  0
    9.4635   -4.8739    0.0000 H   0  0  0  0  0  0  0  0  0  0  0  0
   10.2455   -5.2706    0.0000 H   0  0  0  0  0  0  0  0  0  0  0  0
   10.6422   -4.4886    0.0000 H   0  0  0  0  0  0  0  0  0  0  0  0
   10.8715   -3.4005    0.0000 H   0  0  0  0  0  0  0  0  0  0  0  0
   10.8241   -2.5250    0.0000 H   0  0  0  0  0  0  0  0  0  0  0  0
    9.9486   -2.5724    0.0000 H   0  0  0  0  0  0  0  0  0  0  0  0
    7.7331    1.3713    0.0000 H   0  0  0  0  0  0  0  0  0  0  0  0
    4.9272    1.3713    0.0000 H   0  0  0  0  0  0  0  0  0  0  0  0
    7.7331    2.9913    0.0000 H   0  0  0  0  0  0  0  0  0  0  0  0
    4.9272    2.9913    0.0000 H   0  0  0  0  0  0  0  0  0  0  0  0
    5.7741    5.2182    0.0000 H   0  0  0  0  0  0  0  0  0  0  0  0
    4.9272    4.9913    0.0000 H   0  0  0  0  0  0  0  0  0  0  0  0
    5.1541    4.1443    0.0000 H   0  0  0  0  0  0  0  0  0  0  0  0
  1  2  2  0  0  0  0
  1  3  2  0  0  0  0
  1  7  1  0  0  0  0
  1 16  1  0  0  0  0
  4 30  1  0  0  0  0
  4 31  1  0  0  0  0
  5  9  1  0  0  0  0
  5 10  1  0  0  0  0
  5 13  1  0  0  0  0
  6 11  1  0  0  0  0
  6 12  1  0  0  0  0
  6 20  1  0  0  0  0
  7 14  1  0  0  0  0
  7 21  1  0  0  0  0
  8 13  2  0  0  0  0
  8 14  1  0  0  0  0
  9 11  1  0  0  0  0
  9 32  1  0  0  0  0
  9 33  1  0  0  0  0
 10 12  1  0  0  0  0
 10 34  1  0  0  0  0
 10 35  1  0  0  0  0
 11 36  1  0  0  0  0
 11 37  1  0  0  0  0
 12 38  1  0  0  0  0
 12 39  1  0  0  0  0
 13 19  1  0  0  0  0
 14 15  2  0  0  0  0
 15 17  1  0  0  0  0
 15 22  1  0  0  0  0
 16 18  1  0  0  0  0
 16 40  1  0  0  0  0
 16 41  1  0  0  0  0
 17 19  2  0  0  0  0
 17 23  1  0  0  0  0
 18 24  1  0  0  0  0
 18 25  1  0  0  0  0
 18 42  1  0  0  0  0
 19 43  1  0  0  0  0
 20 45  1  0  0  0  0
 20 46  1  0  0  0  0
 20 47  1  0  0  0  0
 21 22  2  0  0  0  0
 21 44  1  0  0  0  0
 22 48  1  0  0  0  0
 23 26  2  0  0  0  0
 23 27  1  0  0  0  0
 24 49  1  0  0  0  0
 24 50  1  0  0  0  0
 24 51  1  0  0  0  0
 25 52  1  0  0  0  0
 25 53  1  0  0  0  0
 25 54  1  0  0  0  0
 26 28  1  0  0  0  0
 26 55  1  0  0  0  0
 27 29  2  0  0  0  0
 27 56  1  0  0  0  0
 28 30  2  0  0  0  0
 28 57  1  0  0  0  0
 29 30  1  0  0  0  0
 29 58  1  0  0  0  0
 31 59  1  0  0  0  0
 31 60  1  0  0  0  0
 31 61  1  0  0  0  0
M  END
> <PUBCHEM_COMPOUND_CID>
127047901

> <PUBCHEM_COMPOUND_CANONICALIZED>
1

> <PUBCHEM_CACTVS_COMPLEXITY>
681

> <PUBCHEM_CACTVS_HBOND_ACCEPTOR>
6

> <PUBCHEM_CACTVS_HBOND_DONOR>
0

> <PUBCHEM_CACTVS_ROTATABLE_BOND>
6

> <PUBCHEM_CACTVS_SUBSKEYS>
AAADceB7sABAAAAAAAAAAAAAAAAAAWAAAAA8WIAAAAAAAFgB/AAAHgQAQAAADQTF2wa/tt8IFAKgAjJnZHDCiCkxIqAJ2CA+bJiMbuLEuZuUMChswBPI6CeQwPAOoAAAAAAAAABAAAAAAAAAAAAAAAAAAA==

> <PUBCHEM_IUPAC_OPENEYE_NAME>
1-isobutylsulfonyl-4-(4-methoxyphenyl)-6-(4-methylpiperazin-1-yl)pyrrolo[2,3-b]pyridine

> <PUBCHEM_IUPAC_CAS_NAME>
4-(4-methoxyphenyl)-6-(4-methyl-1-piperazinyl)-1-(2-methylpropylsulfonyl)pyrrolo[2,3-b]pyridine

> <PUBCHEM_IUPAC_NAME_MARKUP>
4-(4-methoxyphenyl)-6-(4-methylpiperazin-1-yl)-1-(2-methylpropylsulfonyl)pyrrolo[2,3-b]pyridine

> <PUBCHEM_IUPAC_NAME>
4-(4-methoxyphenyl)-6-(4-methylpiperazin-1-yl)-1-(2-methylpropylsulfonyl)pyrrolo[2,3-b]pyridine

> <PUBCHEM_IUPAC_SYSTEMATIC_NAME>
4-(4-methoxyphenyl)-6-(4-methylpiperazin-1-yl)-1-(2-methylpropylsulfonyl)pyrrolo[2,3-b]pyridine

> <PUBCHEM_IUPAC_TRADITIONAL_NAME>
1-isobutylsulfonyl-4-(4-methoxyphenyl)-6-(4-methylpiperazino)pyrrolo[2,3-b]pyridine

> <PUBCHEM_IUPAC_INCHI>
InChI=1S/C23H30N4O3S/c1-17(2)16-31(28,29)27-10-9-20-21(18-5-7-19(30-4)8-6-18)15-22(24-23(20)27)26-13-11-25(3)12-14-26/h5-10,15,17H,11-14,16H2,1-4H3

> <PUBCHEM_IUPAC_INCHIKEY>
OGYHYPVUHUXITF-UHFFFAOYSA-N

> <PUBCHEM_XLOGP3_AA>
4.1

> <PUBCHEM_EXACT_MASS>
442.20386201

> <PUBCHEM_MOLECULAR_FORMULA>
C23H30N4O3S

> <PUBCHEM_MOLECULAR_WEIGHT>
442.6

> <PUBCHEM_OPENEYE_CAN_SMILES>
CC(C)CS(=O)(=O)N1C=CC2=C1N=C(C=C2C3=CC=C(C=C3)OC)N4CCN(CC4)C

> <PUBCHEM_OPENEYE_ISO_SMILES>
CC(C)CS(=O)(=O)N1C=CC2=C1N=C(C=C2C3=CC=C(C=C3)OC)N4CCN(CC4)C

> <PUBCHEM_CACTVS_TPSA>
76

> <PUBCHEM_MONOISOTOPIC_WEIGHT>
442.20386201

> <PUBCHEM_TOTAL_CHARGE>
0

> <PUBCHEM_HEAVY_ATOM_COUNT>
31

> <PUBCHEM_ATOM_DEF_STEREO_COUNT>
0

> <PUBCHEM_ATOM_UDEF_STEREO_COUNT>
0

> <PUBCHEM_BOND_DEF_STEREO_COUNT>
0

> <PUBCHEM_BOND_UDEF_STEREO_COUNT>
0

> <PUBCHEM_ISOTOPIC_ATOM_COUNT>
0

> <PUBCHEM_COMPONENT_COUNT>
1

> <PUBCHEM_CACTVS_TAUTO_COUNT>
-1

> <PUBCHEM_COORDINATE_TYPE>
1
5
255

> <PUBCHEM_BONDANNOTATIONS>
13  19  8
14  15  8
15  17  8
15  22  8
17  19  8
21  22  8
23  26  8
23  27  8
26  28  8
27  29  8
28  30  8
29  30  8
7  14  8
7  21  8
8  13  8
8  14  8

$$$$
