44589595
  -OEChem-09292322072D

 59 63  0     0  0  0  0  0  0999 V2000
    7.7189    3.0004    0.0000 S   0  0  0  0  0  0  0  0  0  0  0  0
    2.0000   -3.4579    0.0000 F   0  0  0  0  0  0  0  0  0  0  0  0
    8.6694    2.6898    0.0000 O   0  0  0  0  0  0  0  0  0  0  0  0
    6.7684    3.3111    0.0000 O   0  0  0  0  0  0  0  0  0  0  0  0
    7.1279   -4.4579    0.0000 O   0  0  0  0  0  0  0  0  0  0  0  0
    6.4763   -0.8016    0.0000 N   0  0  0  0  0  0  0  0  0  0  0  0
    7.4083    2.0499    0.0000 N   0  0  0  0  0  0  0  0  0  0  0  0
    5.5443   -3.6532    0.0000 N   0  0  0  0  0  0  0  0  0  0  0  0
    5.5443   -5.2627    0.0000 N   0  0  0  0  0  0  0  0  0  0  0  0
    6.7870    0.1489    0.0000 C   0  0  0  0  0  0  0  0  0  0  0  0
    5.8550   -2.7027    0.0000 C   0  0  0  0  0  0  0  0  0  0  0  0
    5.4978   -1.0079    0.0000 C   0  0  0  0  0  0  0  0  0  0  0  0
    7.1441   -1.5460    0.0000 C   0  0  0  0  0  0  0  0  0  0  0  0
    6.1191    0.8932    0.0000 C   0  0  0  0  0  0  0  0  0  0  0  0
    7.7654    0.3551    0.0000 C   0  0  0  0  0  0  0  0  0  0  0  0
    5.1871   -1.9584    0.0000 C   0  0  0  0  0  0  0  0  0  0  0  0
    6.8335   -2.4965    0.0000 C   0  0  0  0  0  0  0  0  0  0  0  0
    6.4298    1.8437    0.0000 C   0  0  0  0  0  0  0  0  0  0  0  0
    8.0761    1.3056    0.0000 C   0  0  0  0  0  0  0  0  0  0  0  0
    4.5981   -3.9579    0.0000 C   0  0  0  0  0  0  0  0  0  0  0  0
    6.1279   -4.4579    0.0000 C   0  0  0  0  0  0  0  0  0  0  0  0
    4.5981   -4.9579    0.0000 C   0  0  0  0  0  0  0  0  0  0  0  0
    8.0296    3.9510    0.0000 C   0  0  0  0  0  0  0  0  0  0  0  0
    3.7320   -3.4579    0.0000 C   0  0  0  0  0  0  0  0  0  0  0  0
    3.7320   -5.4579    0.0000 C   0  0  0  0  0  0  0  0  0  0  0  0
    9.0081    4.1572    0.0000 C   0  0  0  0  0  0  0  0  0  0  0  0
    7.3618    4.6953    0.0000 C   0  0  0  0  0  0  0  0  0  0  0  0
    2.8660   -3.9579    0.0000 C   0  0  0  0  0  0  0  0  0  0  0  0
    2.8660   -4.9579    0.0000 C   0  0  0  0  0  0  0  0  0  0  0  0
    9.3188    5.1077    0.0000 C   0  0  0  0  0  0  0  0  0  0  0  0
    7.6724    5.6458    0.0000 C   0  0  0  0  0  0  0  0  0  0  0  0
    8.6509    5.8520    0.0000 C   0  0  0  0  0  0  0  0  0  0  0  0
    7.2010   -0.3126    0.0000 H   0  0  0  0  0  0  0  0  0  0  0  0
    6.2690   -3.1641    0.0000 H   0  0  0  0  0  0  0  0  0  0  0  0
    5.4772   -0.3882    0.0000 H   0  0  0  0  0  0  0  0  0  0  0  0
    4.8840   -0.9205    0.0000 H   0  0  0  0  0  0  0  0  0  0  0  0
    7.6910   -1.8380    0.0000 H   0  0  0  0  0  0  0  0  0  0  0  0
    7.5267   -1.0580    0.0000 H   0  0  0  0  0  0  0  0  0  0  0  0
    5.5722    1.1852    0.0000 H   0  0  0  0  0  0  0  0  0  0  0  0
    5.7366    0.4053    0.0000 H   0  0  0  0  0  0  0  0  0  0  0  0
    7.7860   -0.2646    0.0000 H   0  0  0  0  0  0  0  0  0  0  0  0
    8.3793    0.2677    0.0000 H   0  0  0  0  0  0  0  0  0  0  0  0
    4.6402   -1.6664    0.0000 H   0  0  0  0  0  0  0  0  0  0  0  0
    4.8046   -2.4463    0.0000 H   0  0  0  0  0  0  0  0  0  0  0  0
    6.8540   -3.1161    0.0000 H   0  0  0  0  0  0  0  0  0  0  0  0
    7.4473   -2.5838    0.0000 H   0  0  0  0  0  0  0  0  0  0  0  0
    6.4092    2.4634    0.0000 H   0  0  0  0  0  0  0  0  0  0  0  0
    5.8160    1.9310    0.0000 H   0  0  0  0  0  0  0  0  0  0  0  0
    8.6230    1.0136    0.0000 H   0  0  0  0  0  0  0  0  0  0  0  0
    8.4587    1.7935    0.0000 H   0  0  0  0  0  0  0  0  0  0  0  0
    5.7369   -5.8520    0.0000 H   0  0  0  0  0  0  0  0  0  0  0  0
    3.7320   -2.8379    0.0000 H   0  0  0  0  0  0  0  0  0  0  0  0
    3.7320   -6.0779    0.0000 H   0  0  0  0  0  0  0  0  0  0  0  0
    9.4222    3.6957    0.0000 H   0  0  0  0  0  0  0  0  0  0  0  0
    6.7551    4.5674    0.0000 H   0  0  0  0  0  0  0  0  0  0  0  0
    2.3291   -5.2679    0.0000 H   0  0  0  0  0  0  0  0  0  0  0  0
    9.9254    5.2356    0.0000 H   0  0  0  0  0  0  0  0  0  0  0  0
    7.2584    6.1072    0.0000 H   0  0  0  0  0  0  0  0  0  0  0  0
    8.8435    6.4413    0.0000 H   0  0  0  0  0  0  0  0  0  0  0  0
  1  3  2  0  0  0  0
  1  4  2  0  0  0  0
  1  7  1  0  0  0  0
  1 23  1  0  0  0  0
  2 28  1  0  0  0  0
  5 21  2  0  0  0  0
  6 10  1  0  0  0  0
  6 12  1  0  0  0  0
  6 13  1  0  0  0  0
  7 18  1  0  0  0  0
  7 19  1  0  0  0  0
  8 11  1  0  0  0  0
  8 20  1  0  0  0  0
  8 21  1  0  0  0  0
  9 21  1  0  0  0  0
  9 22  1  0  0  0  0
  9 51  1  0  0  0  0
 10 14  1  0  0  0  0
 10 15  1  0  0  0  0
 10 33  1  0  0  0  0
 11 16  1  0  0  0  0
 11 17  1  0  0  0  0
 11 34  1  0  0  0  0
 12 16  1  0  0  0  0
 12 35  1  0  0  0  0
 12 36  1  0  0  0  0
 13 17  1  0  0  0  0
 13 37  1  0  0  0  0
 13 38  1  0  0  0  0
 14 18  1  0  0  0  0
 14 39  1  0  0  0  0
 14 40  1  0  0  0  0
 15 19  1  0  0  0  0
 15 41  1  0  0  0  0
 15 42  1  0  0  0  0
 16 43  1  0  0  0  0
 16 44  1  0  0  0  0
 17 45  1  0  0  0  0
 17 46  1  0  0  0  0
 18 47  1  0  0  0  0
 18 48  1  0  0  0  0
 19 49  1  0  0  0  0
 19 50  1  0  0  0  0
 20 22  2  0  0  0  0
 20 24  1  0  0  0  0
 22 25  1  0  0  0  0
 23 26  2  0  0  0  0
 23 27  1  0  0  0  0
 24 28  2  0  0  0  0
 24 52  1  0  0  0  0
 25 29  2  0  0  0  0
 25 53  1  0  0  0  0
 26 30  1  0  0  0  0
 26 54  1  0  0  0  0
 27 31  2  0  0  0  0
 27 55  1  0  0  0  0
 28 29  1  0  0  0  0
 29 56  1  0  0  0  0
 30 32  2  0  0  0  0
 30 57  1  0  0  0  0
 31 32  1  0  0  0  0
 31 58  1  0  0  0  0
 32 59  1  0  0  0  0
M  END
> <PUBCHEM_COMPOUND_CID>
44589595

> <PUBCHEM_COMPOUND_CANONICALIZED>
1

> <PUBCHEM_CACTVS_COMPLEXITY>
769

> <PUBCHEM_CACTVS_HBOND_ACCEPTOR>
6

> <PUBCHEM_CACTVS_HBOND_DONOR>
1

> <PUBCHEM_CACTVS_ROTATABLE_BOND>
4

> <PUBCHEM_CACTVS_SUBSKEYS>
AAADceB7sQBAAAAAAAAAAAAAAAAAAWAAAAA8eIEAAAAAAFgBQAAAHwQQQAAACCjBUAwxwYPAAAKIACRCUHDCABAhAgAIiBgIdIiIYCLA0ZGUIAholgLIyCcQAAAAAAAAAAAAACAAAAAAAAAAQAAAAAAAAA==

> <PUBCHEM_IUPAC_OPENEYE_NAME>
3-[1-[1-(benzenesulfonyl)-4-piperidyl]-4-piperidyl]-5-fluoro-1H-benzimidazol-2-one

> <PUBCHEM_IUPAC_CAS_NAME>
3-[1-[1-(benzenesulfonyl)-4-piperidinyl]-4-piperidinyl]-5-fluoro-1H-benzimidazol-2-one

> <PUBCHEM_IUPAC_NAME_MARKUP>
3-[1-[1-(benzenesulfonyl)piperidin-4-yl]piperidin-4-yl]-5-fluoro-1<I>H</I>-benzimidazol-2-one

> <PUBCHEM_IUPAC_NAME>
3-[1-[1-(benzenesulfonyl)piperidin-4-yl]piperidin-4-yl]-5-fluoro-1H-benzimidazol-2-one

> <PUBCHEM_IUPAC_SYSTEMATIC_NAME>
5-fluoranyl-3-[1-[1-(phenylsulfonyl)piperidin-4-yl]piperidin-4-yl]-1H-benzimidazol-2-one

> <PUBCHEM_IUPAC_TRADITIONAL_NAME>
3-[1-(1-besyl-4-piperidyl)-4-piperidyl]-5-fluoro-1H-benzimidazol-2-one

> <PUBCHEM_IUPAC_INCHI>
InChI=1S/C23H27FN4O3S/c24-17-6-7-21-22(16-17)28(23(29)25-21)19-8-12-26(13-9-19)18-10-14-27(15-11-18)32(30,31)20-4-2-1-3-5-20/h1-7,16,18-19H,8-15H2,(H,25,29)

> <PUBCHEM_IUPAC_INCHIKEY>
XWZNKQSARMNAJJ-UHFFFAOYSA-N

> <PUBCHEM_XLOGP3_AA>
2.8

> <PUBCHEM_EXACT_MASS>
458.17879007

> <PUBCHEM_MOLECULAR_FORMULA>
C23H27FN4O3S

> <PUBCHEM_MOLECULAR_WEIGHT>
458.6

> <PUBCHEM_OPENEYE_CAN_SMILES>
C1CN(CCC1N2C3=C(C=CC(=C3)F)NC2=O)C4CCN(CC4)S(=O)(=O)C5=CC=CC=C5

> <PUBCHEM_OPENEYE_ISO_SMILES>
C1CN(CCC1N2C3=C(C=CC(=C3)F)NC2=O)C4CCN(CC4)S(=O)(=O)C5=CC=CC=C5

> <PUBCHEM_CACTVS_TPSA>
81.3

> <PUBCHEM_MONOISOTOPIC_WEIGHT>
458.17879007

> <PUBCHEM_TOTAL_CHARGE>
0

> <PUBCHEM_HEAVY_ATOM_COUNT>
32

> <PUBCHEM_ATOM_DEF_STEREO_COUNT>
0

> <PUBCHEM_ATOM_UDEF_STEREO_COUNT>
0

> <PUBCHEM_BOND_DEF_STEREO_COUNT>
0

> <PUBCHEM_BOND_UDEF_STEREO_COUNT>
0

> <PUBCHEM_ISOTOPIC_ATOM_COUNT>
0

> <PUBCHEM_COMPONENT_COUNT>
1

> <PUBCHEM_CACTVS_TAUTO_COUNT>
-1

> <PUBCHEM_COORDINATE_TYPE>
1
5
255

> <PUBCHEM_BONDANNOTATIONS>
20  22  8
20  24  8
22  25  8
23  26  8
23  27  8
24  28  8
25  29  8
26  30  8
27  31  8
28  29  8
30  32  8
31  32  8
8  20  8
8  21  8
9  21  8
9  22  8

$$$$
