10543696
  -OEChem-09292322512D

 44 47  0     0  0  0  0  0  0999 V2000
    2.8660   -0.2215    0.0000 N   0  0  0  0  0  0  0  0  0  0  0  0
    2.8660   -2.2215    0.0000 N   0  0  0  0  0  0  0  0  0  0  0  0
    3.8366    2.2730    0.0000 N   0  0  0  0  0  0  0  0  0  0  0  0
    2.0000   -3.7215    0.0000 N   0  0  0  0  0  0  0  0  0  0  0  0
    5.3147    1.6149    0.0000 N   0  0  0  0  0  0  0  0  0  0  0  0
    2.8660   -5.2215    0.0000 N   0  0  0  0  0  0  0  0  0  0  0  0
    3.7320   -0.7215    0.0000 C   0  0  0  0  0  0  0  0  0  0  0  0
    2.0000   -0.7215    0.0000 C   0  0  0  0  0  0  0  0  0  0  0  0
    3.7320   -1.7215    0.0000 C   0  0  0  0  0  0  0  0  0  0  0  0
    2.0000   -1.7215    0.0000 C   0  0  0  0  0  0  0  0  0  0  0  0
    2.8660    0.7785    0.0000 C   0  0  0  0  0  0  0  0  0  0  0  0
    3.7320    1.2785    0.0000 C   0  0  0  0  0  0  0  0  0  0  0  0
    2.8660   -3.2215    0.0000 C   0  0  0  0  0  0  0  0  0  0  0  0
    4.6456    0.8717    0.0000 C   0  0  0  0  0  0  0  0  0  0  0  0
    4.8147    2.4809    0.0000 C   0  0  0  0  0  0  0  0  0  0  0  0
    3.7320   -3.7215    0.0000 C   0  0  0  0  0  0  0  0  0  0  0  0
    5.2215    3.3944    0.0000 C   0  0  0  0  0  0  0  0  0  0  0  0
    3.7320   -4.7215    0.0000 C   0  0  0  0  0  0  0  0  0  0  0  0
    2.0000   -4.7215    0.0000 C   0  0  0  0  0  0  0  0  0  0  0  0
    4.6337    4.2035    0.0000 C   0  0  0  0  0  0  0  0  0  0  0  0
    6.2160    3.4990    0.0000 C   0  0  0  0  0  0  0  0  0  0  0  0
    5.0404    5.1170    0.0000 C   0  0  0  0  0  0  0  0  0  0  0  0
    6.6227    4.4125    0.0000 C   0  0  0  0  0  0  0  0  0  0  0  0
    6.0349    5.2215    0.0000 C   0  0  0  0  0  0  0  0  0  0  0  0
    4.3426   -0.8292    0.0000 H   0  0  0  0  0  0  0  0  0  0  0  0
    3.9441   -0.1389    0.0000 H   0  0  0  0  0  0  0  0  0  0  0  0
    1.7880   -0.1389    0.0000 H   0  0  0  0  0  0  0  0  0  0  0  0
    1.3894   -0.8292    0.0000 H   0  0  0  0  0  0  0  0  0  0  0  0
    3.9441   -2.3041    0.0000 H   0  0  0  0  0  0  0  0  0  0  0  0
    4.3426   -1.6139    0.0000 H   0  0  0  0  0  0  0  0  0  0  0  0
    1.3894   -1.6139    0.0000 H   0  0  0  0  0  0  0  0  0  0  0  0
    1.7880   -2.3041    0.0000 H   0  0  0  0  0  0  0  0  0  0  0  0
    2.6540    1.3611    0.0000 H   0  0  0  0  0  0  0  0  0  0  0  0
    2.2554    0.6708    0.0000 H   0  0  0  0  0  0  0  0  0  0  0  0
    3.3758    2.6878    0.0000 H   0  0  0  0  0  0  0  0  0  0  0  0
    4.7745    0.2653    0.0000 H   0  0  0  0  0  0  0  0  0  0  0  0
    4.2690   -3.4115    0.0000 H   0  0  0  0  0  0  0  0  0  0  0  0
    4.2690   -5.0315    0.0000 H   0  0  0  0  0  0  0  0  0  0  0  0
    1.4631   -5.0315    0.0000 H   0  0  0  0  0  0  0  0  0  0  0  0
    4.0171    4.1386    0.0000 H   0  0  0  0  0  0  0  0  0  0  0  0
    6.5804    2.9974    0.0000 H   0  0  0  0  0  0  0  0  0  0  0  0
    4.6760    5.6186    0.0000 H   0  0  0  0  0  0  0  0  0  0  0  0
    7.2393    4.4773    0.0000 H   0  0  0  0  0  0  0  0  0  0  0  0
    6.2871    5.7879    0.0000 H   0  0  0  0  0  0  0  0  0  0  0  0
  1  7  1  0  0  0  0
  1  8  1  0  0  0  0
  1 11  1  0  0  0  0
  2  9  1  0  0  0  0
  2 10  1  0  0  0  0
  2 13  1  0  0  0  0
  3 12  1  0  0  0  0
  3 15  1  0  0  0  0
  3 35  1  0  0  0  0
  4 13  2  0  0  0  0
  4 19  1  0  0  0  0
  5 14  1  0  0  0  0
  5 15  2  0  0  0  0
  6 18  1  0  0  0  0
  6 19  2  0  0  0  0
  7  9  1  0  0  0  0
  7 25  1  0  0  0  0
  7 26  1  0  0  0  0
  8 10  1  0  0  0  0
  8 27  1  0  0  0  0
  8 28  1  0  0  0  0
  9 29  1  0  0  0  0
  9 30  1  0  0  0  0
 10 31  1  0  0  0  0
 10 32  1  0  0  0  0
 11 12  1  0  0  0  0
 11 33  1  0  0  0  0
 11 34  1  0  0  0  0
 12 14  2  0  0  0  0
 13 16  1  0  0  0  0
 14 36  1  0  0  0  0
 15 17  1  0  0  0  0
 16 18  2  0  0  0  0
 16 37  1  0  0  0  0
 17 20  2  0  0  0  0
 17 21  1  0  0  0  0
 18 38  1  0  0  0  0
 19 39  1  0  0  0  0
 20 22  1  0  0  0  0
 20 40  1  0  0  0  0
 21 23  2  0  0  0  0
 21 41  1  0  0  0  0
 22 24  2  0  0  0  0
 22 42  1  0  0  0  0
 23 24  1  0  0  0  0
 23 43  1  0  0  0  0
 24 44  1  0  0  0  0
M  END
> <PUBCHEM_COMPOUND_CID>
10543696

> <PUBCHEM_COMPOUND_CANONICALIZED>
1

> <PUBCHEM_CACTVS_COMPLEXITY>
378

> <PUBCHEM_CACTVS_HBOND_ACCEPTOR>
5

> <PUBCHEM_CACTVS_HBOND_DONOR>
1

> <PUBCHEM_CACTVS_ROTATABLE_BOND>
4

> <PUBCHEM_CACTVS_SUBSKEYS>
AAADceB7gAAAAAAAAAAAAAAAAAAAAWAAAAA8WIAAAAAAAAAB8AAAHAAQAAAADAjBHwQ9sJfJkACgAzZnZACCgC2xEqAJ2SA4dJiIaKLA2VGUJAhokALIiCcQgAAOAAAAAAAAAAAAAAAAAAAAAAAAAAAAAA==

> <PUBCHEM_IUPAC_OPENEYE_NAME>
4-[4-[(2-phenyl-1H-imidazol-5-yl)methyl]piperazin-1-yl]pyrimidine

> <PUBCHEM_IUPAC_CAS_NAME>
4-[4-[(2-phenyl-1H-imidazol-5-yl)methyl]-1-piperazinyl]pyrimidine

> <PUBCHEM_IUPAC_NAME_MARKUP>
4-[4-[(2-phenyl-1<I>H</I>-imidazol-5-yl)methyl]piperazin-1-yl]pyrimidine

> <PUBCHEM_IUPAC_NAME>
4-[4-[(2-phenyl-1H-imidazol-5-yl)methyl]piperazin-1-yl]pyrimidine

> <PUBCHEM_IUPAC_SYSTEMATIC_NAME>
4-[4-[(2-phenyl-1H-imidazol-5-yl)methyl]piperazin-1-yl]pyrimidine

> <PUBCHEM_IUPAC_TRADITIONAL_NAME>
4-[4-[(2-phenyl-1H-imidazol-5-yl)methyl]piperazino]pyrimidine

> <PUBCHEM_IUPAC_INCHI>
InChI=1S/C18H20N6/c1-2-4-15(5-3-1)18-20-12-16(22-18)13-23-8-10-24(11-9-23)17-6-7-19-14-21-17/h1-7,12,14H,8-11,13H2,(H,20,22)

> <PUBCHEM_IUPAC_INCHIKEY>
FLGOCJKEWNMJFU-UHFFFAOYSA-N

> <PUBCHEM_XLOGP3_AA>
1.8

> <PUBCHEM_EXACT_MASS>
320.17494466

> <PUBCHEM_MOLECULAR_FORMULA>
C18H20N6

> <PUBCHEM_MOLECULAR_WEIGHT>
320.4

> <PUBCHEM_OPENEYE_CAN_SMILES>
C1CN(CCN1CC2=CN=C(N2)C3=CC=CC=C3)C4=NC=NC=C4

> <PUBCHEM_OPENEYE_ISO_SMILES>
C1CN(CCN1CC2=CN=C(N2)C3=CC=CC=C3)C4=NC=NC=C4

> <PUBCHEM_CACTVS_TPSA>
60.9

> <PUBCHEM_MONOISOTOPIC_WEIGHT>
320.17494466

> <PUBCHEM_TOTAL_CHARGE>
0

> <PUBCHEM_HEAVY_ATOM_COUNT>
24

> <PUBCHEM_ATOM_DEF_STEREO_COUNT>
0

> <PUBCHEM_ATOM_UDEF_STEREO_COUNT>
0

> <PUBCHEM_BOND_DEF_STEREO_COUNT>
0

> <PUBCHEM_BOND_UDEF_STEREO_COUNT>
0

> <PUBCHEM_ISOTOPIC_ATOM_COUNT>
0

> <PUBCHEM_COMPONENT_COUNT>
1

> <PUBCHEM_CACTVS_TAUTO_COUNT>
-1

> <PUBCHEM_COORDINATE_TYPE>
1
5
255

> <PUBCHEM_BONDANNOTATIONS>
12  14  8
13  16  8
16  18  8
17  20  8
17  21  8
20  22  8
21  23  8
22  24  8
23  24  8
3  12  8
3  15  8
4  13  8
4  19  8
5  14  8
5  15  8
6  18  8
6  19  8

$$$$
