10496727
  -OEChem-09292322132D

 46 50  0     1  0  0  0  0  0999 V2000
    5.3631    1.7484    0.0000 O   0  0  0  0  0  0  0  0  0  0  0  0
    2.6663    0.3348    0.0000 O   0  0  0  0  0  0  0  0  0  0  0  0
    8.8357   -1.2831    0.0000 N   0  0  3  0  0  0  0  0  0  0  0  0
    7.9775   -0.7862    0.0000 C   0  0  1  0  0  0  0  0  0  0  0  0
    7.9775    0.2138    0.0000 C   0  0  0  0  0  0  0  0  0  0  0  0
    7.1115   -1.2862    0.0000 C   0  0  0  0  0  0  0  0  0  0  0  0
    8.8875    0.7207    0.0000 C   0  0  0  0  0  0  0  0  0  0  0  0
    9.7012   -0.7989    0.0000 C   0  0  0  0  0  0  0  0  0  0  0  0
    7.1115    0.7138    0.0000 C   0  0  0  0  0  0  0  0  0  0  0  0
    9.7268    0.1924    0.0000 C   0  0  0  0  0  0  0  0  0  0  0  0
    6.2455   -0.7862    0.0000 C   0  0  0  0  0  0  0  0  0  0  0  0
    6.2455    0.2138    0.0000 C   0  0  0  0  0  0  0  0  0  0  0  0
    8.8283   -2.2831    0.0000 C   0  0  0  0  0  0  0  0  0  0  0  0
    8.8956    1.7623    0.0000 C   0  0  0  0  0  0  0  0  0  0  0  0
    7.0954    1.7553    0.0000 C   0  0  0  0  0  0  0  0  0  0  0  0
    5.3515    0.7485    0.0000 C   0  0  0  0  0  0  0  0  0  0  0  0
    5.3515   -1.3208    0.0000 C   0  0  0  0  0  0  0  0  0  0  0  0
    7.9935    2.2831    0.0000 C   0  0  0  0  0  0  0  0  0  0  0  0
    4.4455    0.2346    0.0000 C   0  0  0  0  0  0  0  0  0  0  0  0
    4.4455   -0.8070    0.0000 C   0  0  0  0  0  0  0  0  0  0  0  0
    3.5814    0.7380    0.0000 C   0  0  0  0  0  0  0  0  0  0  0  0
    3.4807    1.7329    0.0000 C   0  0  0  0  0  0  0  0  0  0  0  0
    4.5029    2.2584    0.0000 C   0  0  0  0  0  0  0  0  0  0  0  0
    2.5033    1.9446    0.0000 C   0  0  0  0  0  0  0  0  0  0  0  0
    2.0000    1.0805    0.0000 C   0  0  0  0  0  0  0  0  0  0  0  0
    7.9770   -1.6362    0.0000 H   0  0  0  0  0  0  0  0  0  0  0  0
    6.7130   -1.7611    0.0000 H   0  0  0  0  0  0  0  0  0  0  0  0
    7.5100   -1.7611    0.0000 H   0  0  0  0  0  0  0  0  0  0  0  0
    9.9030   -1.3852    0.0000 H   0  0  0  0  0  0  0  0  0  0  0  0
   10.3140   -0.7046    0.0000 H   0  0  0  0  0  0  0  0  0  0  0  0
   10.3339    0.0665    0.0000 H   0  0  0  0  0  0  0  0  0  0  0  0
    9.9586    0.7675    0.0000 H   0  0  0  0  0  0  0  0  0  0  0  0
    8.2084   -2.2785    0.0000 H   0  0  0  0  0  0  0  0  0  0  0  0
    8.8238   -2.9031    0.0000 H   0  0  0  0  0  0  0  0  0  0  0  0
    9.4483   -2.2877    0.0000 H   0  0  0  0  0  0  0  0  0  0  0  0
    9.4337    2.0702    0.0000 H   0  0  0  0  0  0  0  0  0  0  0  0
    6.5550    2.0591    0.0000 H   0  0  0  0  0  0  0  0  0  0  0  0
    5.3587   -1.9408    0.0000 H   0  0  0  0  0  0  0  0  0  0  0  0
    7.9911    2.9031    0.0000 H   0  0  0  0  0  0  0  0  0  0  0  0
    3.9097   -1.1191    0.0000 H   0  0  0  0  0  0  0  0  0  0  0  0
    3.9430    2.1460    0.0000 H   0  0  0  0  0  0  0  0  0  0  0  0
    4.8191    2.7917    0.0000 H   0  0  0  0  0  0  0  0  0  0  0  0
    3.9696    2.5746    0.0000 H   0  0  0  0  0  0  0  0  0  0  0  0
    4.1867    1.7251    0.0000 H   0  0  0  0  0  0  0  0  0  0  0  0
    2.2533    2.5119    0.0000 H   0  0  0  0  0  0  0  0  0  0  0  0
    1.3832    1.0180    0.0000 H   0  0  0  0  0  0  0  0  0  0  0  0
  1 16  1  0  0  0  0
  1 23  1  0  0  0  0
  2 21  1  0  0  0  0
  2 25  1  0  0  0  0
  3  4  1  0  0  0  0
  3  8  1  0  0  0  0
  3 13  1  0  0  0  0
  4  5  1  0  0  0  0
  4  6  1  0  0  0  0
  4 26  1  1  0  0  0
  5  7  2  0  0  0  0
  5  9  1  0  0  0  0
  6 11  1  0  0  0  0
  6 27  1  0  0  0  0
  6 28  1  0  0  0  0
  7 10  1  0  0  0  0
  7 14  1  0  0  0  0
  8 10  1  0  0  0  0
  8 29  1  0  0  0  0
  8 30  1  0  0  0  0
  9 12  1  0  0  0  0
  9 15  2  0  0  0  0
 10 31  1  0  0  0  0
 10 32  1  0  0  0  0
 11 12  2  0  0  0  0
 11 17  1  0  0  0  0
 12 16  1  0  0  0  0
 13 33  1  0  0  0  0
 13 34  1  0  0  0  0
 13 35  1  0  0  0  0
 14 18  2  0  0  0  0
 14 36  1  0  0  0  0
 15 18  1  0  0  0  0
 15 37  1  0  0  0  0
 16 19  2  0  0  0  0
 17 20  2  0  0  0  0
 17 38  1  0  0  0  0
 18 39  1  0  0  0  0
 19 20  1  0  0  0  0
 19 21  1  0  0  0  0
 20 40  1  0  0  0  0
 21 22  2  0  0  0  0
 22 24  1  0  0  0  0
 22 41  1  0  0  0  0
 23 42  1  0  0  0  0
 23 43  1  0  0  0  0
 23 44  1  0  0  0  0
 24 25  2  0  0  0  0
 24 45  1  0  0  0  0
 25 46  1  0  0  0  0
M  END
> <PUBCHEM_COMPOUND_CID>
10496727

> <PUBCHEM_COMPOUND_CANONICALIZED>
1

> <PUBCHEM_CACTVS_COMPLEXITY>
483

> <PUBCHEM_CACTVS_HBOND_ACCEPTOR>
3

> <PUBCHEM_CACTVS_HBOND_DONOR>
0

> <PUBCHEM_CACTVS_ROTATABLE_BOND>
2

> <PUBCHEM_CACTVS_SUBSKEYS>
AAADceB6MAAAAAAAAAAAAAAAAAAAASAAAAA8YMEAAAAAAADx0AAAHgAAAAAADCzhmAYyBoMABECIAqhSgACCCAAkIAAIiAEODMgMJzaEtRuGOWjl4BGIqYeY2POOwAADAAAYAACQAAaAADQAAAAAAAAAAA==

> <PUBCHEM_IUPAC_OPENEYE_NAME>
(6aR)-10-(2-furyl)-11-methoxy-6-methyl-5,6,6a,7-tetrahydro-4H-dibenzo[de,g]quinoline

> <PUBCHEM_IUPAC_CAS_NAME>
(6aR)-10-(2-furanyl)-11-methoxy-6-methyl-5,6,6a,7-tetrahydro-4H-dibenzo[de,g]quinoline

> <PUBCHEM_IUPAC_NAME_MARKUP>
(6<I>a</I><I>R</I>)-10-(furan-2-yl)-11-methoxy-6-methyl-5,6,6<I>a</I>,7-tetrahydro-4<I>H</I>-dibenzo[de,g]quinoline

> <PUBCHEM_IUPAC_NAME>
(6aR)-10-(furan-2-yl)-11-methoxy-6-methyl-5,6,6a,7-tetrahydro-4H-dibenzo[de,g]quinoline

> <PUBCHEM_IUPAC_SYSTEMATIC_NAME>
(6aR)-10-(furan-2-yl)-11-methoxy-6-methyl-5,6,6a,7-tetrahydro-4H-dibenzo[de,g]quinoline

> <PUBCHEM_IUPAC_TRADITIONAL_NAME>
(6aR)-10-(2-furyl)-11-methoxy-6-methyl-5,6,6a,7-tetrahydro-4H-dibenzo[de,g]quinoline

> <PUBCHEM_IUPAC_INCHI>
InChI=1S/C22H21NO2/c1-23-11-10-14-5-3-6-17-20(14)18(23)13-15-8-9-16(19-7-4-12-25-19)22(24-2)21(15)17/h3-9,12,18H,10-11,13H2,1-2H3/t18-/m1/s1

> <PUBCHEM_IUPAC_INCHIKEY>
QMTSFMDPFYQGDZ-GOSISDBHSA-N

> <PUBCHEM_XLOGP3_AA>
4.2

> <PUBCHEM_EXACT_MASS>
331.157228913

> <PUBCHEM_MOLECULAR_FORMULA>
C22H21NO2

> <PUBCHEM_MOLECULAR_WEIGHT>
331.4

> <PUBCHEM_OPENEYE_CAN_SMILES>
CN1CCC2=C3C1CC4=C(C3=CC=C2)C(=C(C=C4)C5=CC=CO5)OC

> <PUBCHEM_OPENEYE_ISO_SMILES>
CN1CCC2=C3[C@H]1CC4=C(C3=CC=C2)C(=C(C=C4)C5=CC=CO5)OC

> <PUBCHEM_CACTVS_TPSA>
25.6

> <PUBCHEM_MONOISOTOPIC_WEIGHT>
331.157228913

> <PUBCHEM_TOTAL_CHARGE>
0

> <PUBCHEM_HEAVY_ATOM_COUNT>
25

> <PUBCHEM_ATOM_DEF_STEREO_COUNT>
1

> <PUBCHEM_ATOM_UDEF_STEREO_COUNT>
0

> <PUBCHEM_BOND_DEF_STEREO_COUNT>
0

> <PUBCHEM_BOND_UDEF_STEREO_COUNT>
0

> <PUBCHEM_ISOTOPIC_ATOM_COUNT>
0

> <PUBCHEM_COMPONENT_COUNT>
1

> <PUBCHEM_CACTVS_TAUTO_COUNT>
-1

> <PUBCHEM_COORDINATE_TYPE>
1
5
255

> <PUBCHEM_BONDANNOTATIONS>
11  12  8
11  17  8
12  16  8
14  18  8
15  18  8
16  19  8
17  20  8
19  20  8
2  21  8
2  25  8
21  22  8
22  24  8
24  25  8
4  26  5
5  7  8
5  9  8
7  14  8
9  15  8

$$$$
