57400229
  -OEChem-09292322042D

 63 66  0     1  0  0  0  0  0999 V2000
   11.6065   -4.5403    0.0000 S   0  0  0  0  0  0  0  0  0  0  0  0
    4.5981    7.6550    0.0000 F   0  0  0  0  0  0  0  0  0  0  0  0
   10.6603   -2.8450    0.0000 O   0  0  0  0  0  0  0  0  0  0  0  0
    7.1962    0.1550    0.0000 O   0  0  0  0  0  0  0  0  0  0  0  0
    9.7942   -7.3450    0.0000 O   0  0  0  0  0  0  0  0  0  0  0  0
   13.1901   -5.3450    0.0000 O   0  0  0  0  0  0  0  0  0  0  0  0
    8.9282   -1.8450    0.0000 N   0  0  0  0  0  0  0  0  0  0  0  0
   11.6065   -6.1497    0.0000 N   0  0  0  0  0  0  0  0  0  0  0  0
    5.4641    4.1550    0.0000 N   0  0  0  0  0  0  0  0  0  0  0  0
    9.7942   -3.3450    0.0000 C   0  0  2  0  0  0  0  0  0  0  0  0
    9.7942   -4.3450    0.0000 C   0  0  0  0  0  0  0  0  0  0  0  0
    8.9282   -2.8450    0.0000 C   0  0  0  0  0  0  0  0  0  0  0  0
   10.6603   -4.8450    0.0000 C   0  0  0  0  0  0  0  0  0  0  0  0
   10.6603   -5.8450    0.0000 C   0  0  0  0  0  0  0  0  0  0  0  0
    8.0622   -1.3450    0.0000 C   0  0  0  0  0  0  0  0  0  0  0  0
    8.9282   -4.8450    0.0000 C   0  0  0  0  0  0  0  0  0  0  0  0
    9.7942   -6.3450    0.0000 C   0  0  0  0  0  0  0  0  0  0  0  0
    8.0622   -0.3450    0.0000 C   0  0  0  0  0  0  0  0  0  0  0  0
    8.9282   -5.8450    0.0000 C   0  0  0  0  0  0  0  0  0  0  0  0
    4.5981    4.6550    0.0000 C   0  0  0  0  0  0  0  0  0  0  0  0
    5.4641    3.1550    0.0000 C   0  0  0  0  0  0  0  0  0  0  0  0
    4.5981    5.6550    0.0000 C   0  0  0  0  0  0  0  0  0  0  0  0
    6.3301    2.6550    0.0000 C   0  0  0  0  0  0  0  0  0  0  0  0
   12.1901   -5.3450    0.0000 C   0  0  0  0  0  0  0  0  0  0  0  0
    7.1962    1.1550    0.0000 C   0  0  0  0  0  0  0  0  0  0  0  0
    6.3301    1.6550    0.0000 C   0  0  0  0  0  0  0  0  0  0  0  0
    3.7320    6.1550    0.0000 C   0  0  0  0  0  0  0  0  0  0  0  0
    7.1962    3.1550    0.0000 C   0  0  0  0  0  0  0  0  0  0  0  0
    8.0622    1.6550    0.0000 C   0  0  0  0  0  0  0  0  0  0  0  0
    8.0622    2.6550    0.0000 C   0  0  0  0  0  0  0  0  0  0  0  0
    3.7320    7.1550    0.0000 C   0  0  0  0  0  0  0  0  0  0  0  0
    2.8660    5.6550    0.0000 C   0  0  0  0  0  0  0  0  0  0  0  0
    2.8660    7.6550    0.0000 C   0  0  0  0  0  0  0  0  0  0  0  0
    2.0000    6.1550    0.0000 C   0  0  0  0  0  0  0  0  0  0  0  0
    2.0000    7.1550    0.0000 C   0  0  0  0  0  0  0  0  0  0  0  0
    9.7942   -2.7250    0.0000 H   0  0  0  0  0  0  0  0  0  0  0  0
    8.3176   -2.7373    0.0000 H   0  0  0  0  0  0  0  0  0  0  0  0
    8.7162   -3.4276    0.0000 H   0  0  0  0  0  0  0  0  0  0  0  0
    9.4651   -1.5350    0.0000 H   0  0  0  0  0  0  0  0  0  0  0  0
    7.4516   -1.2373    0.0000 H   0  0  0  0  0  0  0  0  0  0  0  0
    7.8501   -1.9276    0.0000 H   0  0  0  0  0  0  0  0  0  0  0  0
    8.3913   -4.5350    0.0000 H   0  0  0  0  0  0  0  0  0  0  0  0
    8.6728   -0.4527    0.0000 H   0  0  0  0  0  0  0  0  0  0  0  0
    8.2742    0.2376    0.0000 H   0  0  0  0  0  0  0  0  0  0  0  0
    8.3913   -6.1550    0.0000 H   0  0  0  0  0  0  0  0  0  0  0  0
    3.9875    4.7627    0.0000 H   0  0  0  0  0  0  0  0  0  0  0  0
    4.3860    4.0724    0.0000 H   0  0  0  0  0  0  0  0  0  0  0  0
   11.7991   -6.7391    0.0000 H   0  0  0  0  0  0  0  0  0  0  0  0
    4.8535    3.2627    0.0000 H   0  0  0  0  0  0  0  0  0  0  0  0
    5.2520    2.5724    0.0000 H   0  0  0  0  0  0  0  0  0  0  0  0
    5.2087    5.5473    0.0000 H   0  0  0  0  0  0  0  0  0  0  0  0
    4.8101    6.2376    0.0000 H   0  0  0  0  0  0  0  0  0  0  0  0
    6.0010    4.4650    0.0000 H   0  0  0  0  0  0  0  0  0  0  0  0
   10.6603   -2.2250    0.0000 H   0  0  0  0  0  0  0  0  0  0  0  0
    5.7932    1.3450    0.0000 H   0  0  0  0  0  0  0  0  0  0  0  0
    7.1962    3.7750    0.0000 H   0  0  0  0  0  0  0  0  0  0  0  0
    8.5991    1.3450    0.0000 H   0  0  0  0  0  0  0  0  0  0  0  0
    8.5991    2.9650    0.0000 H   0  0  0  0  0  0  0  0  0  0  0  0
    2.8660    5.0350    0.0000 H   0  0  0  0  0  0  0  0  0  0  0  0
    9.2573   -7.6550    0.0000 H   0  0  0  0  0  0  0  0  0  0  0  0
    2.8660    8.2750    0.0000 H   0  0  0  0  0  0  0  0  0  0  0  0
    1.4631    5.8450    0.0000 H   0  0  0  0  0  0  0  0  0  0  0  0
    1.4631    7.4650    0.0000 H   0  0  0  0  0  0  0  0  0  0  0  0
  1 13  1  0  0  0  0
  1 24  1  0  0  0  0
  2 31  1  0  0  0  0
 10  3  1  6  0  0  0
  3 54  1  0  0  0  0
  4 18  1  0  0  0  0
  4 25  1  0  0  0  0
  5 17  1  0  0  0  0
  5 60  1  0  0  0  0
  6 24  2  0  0  0  0
  7 12  1  0  0  0  0
  7 15  1  0  0  0  0
  7 39  1  0  0  0  0
  8 14  1  0  0  0  0
  8 24  1  0  0  0  0
  8 48  1  0  0  0  0
  9 20  1  0  0  0  0
  9 21  1  0  0  0  0
  9 53  1  0  0  0  0
 10 11  1  0  0  0  0
 10 12  1  0  0  0  0
 10 36  1  0  0  0  0
 11 13  2  0  0  0  0
 11 16  1  0  0  0  0
 12 37  1  0  0  0  0
 12 38  1  0  0  0  0
 13 14  1  0  0  0  0
 14 17  2  0  0  0  0
 15 18  1  0  0  0  0
 15 40  1  0  0  0  0
 15 41  1  0  0  0  0
 16 19  2  0  0  0  0
 16 42  1  0  0  0  0
 17 19  1  0  0  0  0
 18 43  1  0  0  0  0
 18 44  1  0  0  0  0
 19 45  1  0  0  0  0
 20 22  1  0  0  0  0
 20 46  1  0  0  0  0
 20 47  1  0  0  0  0
 21 23  1  0  0  0  0
 21 49  1  0  0  0  0
 21 50  1  0  0  0  0
 22 27  1  0  0  0  0
 22 51  1  0  0  0  0
 22 52  1  0  0  0  0
 23 26  2  0  0  0  0
 23 28  1  0  0  0  0
 25 26  1  0  0  0  0
 25 29  2  0  0  0  0
 26 55  1  0  0  0  0
 27 31  1  0  0  0  0
 27 32  2  0  0  0  0
 28 30  2  0  0  0  0
 28 56  1  0  0  0  0
 29 30  1  0  0  0  0
 29 57  1  0  0  0  0
 30 58  1  0  0  0  0
 31 33  2  0  0  0  0
 32 34  1  0  0  0  0
 32 59  1  0  0  0  0
 33 35  1  0  0  0  0
 33 61  1  0  0  0  0
 34 35  2  0  0  0  0
 34 62  1  0  0  0  0
 35 63  1  0  0  0  0
M  END
> <PUBCHEM_COMPOUND_CID>
57400229

> <PUBCHEM_COMPOUND_CANONICALIZED>
1

> <PUBCHEM_CACTVS_COMPLEXITY>
662

> <PUBCHEM_CACTVS_HBOND_ACCEPTOR>
8

> <PUBCHEM_CACTVS_HBOND_DONOR>
5

> <PUBCHEM_CACTVS_ROTATABLE_BOND>
12

> <PUBCHEM_CACTVS_SUBSKEYS>
AAADceB7OQBAAAAAAAAAAAAAAAAAAWAAAAAwYMAAAAAAAFgBUAAAHwQQCAAADBzh2A4wx4LABgiIAiRCUACCCABhKBAIiJQPTIgONiL2sZuHeCjk1BHY+Aew4LQOIAABRAAEEQBAAAKIAAgiAAAAAAAAAA==

> <PUBCHEM_IUPAC_OPENEYE_NAME>
7-[(1R)-2-[2-[3-[[2-(2-fluorophenyl)ethylamino]methyl]phenoxy]ethylamino]-1-hydroxy-ethyl]-4-hydroxy-3H-1,3-benzothiazol-2-one

> <PUBCHEM_IUPAC_CAS_NAME>
7-[(1R)-2-[2-[3-[[2-(2-fluorophenyl)ethylamino]methyl]phenoxy]ethylamino]-1-hydroxyethyl]-4-hydroxy-3H-1,3-benzothiazol-2-one

> <PUBCHEM_IUPAC_NAME_MARKUP>
7-[(1<I>R</I>)-2-[2-[3-[[2-(2-fluorophenyl)ethylamino]methyl]phenoxy]ethylamino]-1-hydroxyethyl]-4-hydroxy-3<I>H</I>-1,3-benzothiazol-2-one

> <PUBCHEM_IUPAC_NAME>
7-[(1R)-2-[2-[3-[[2-(2-fluorophenyl)ethylamino]methyl]phenoxy]ethylamino]-1-hydroxyethyl]-4-hydroxy-3H-1,3-benzothiazol-2-one

> <PUBCHEM_IUPAC_SYSTEMATIC_NAME>
7-[(1R)-2-[2-[3-[[2-(2-fluorophenyl)ethylamino]methyl]phenoxy]ethylamino]-1-oxidanyl-ethyl]-4-oxidanyl-3H-1,3-benzothiazol-2-one

> <PUBCHEM_IUPAC_TRADITIONAL_NAME>
7-[(1R)-2-[2-[3-[[2-(2-fluorophenyl)ethylamino]methyl]phenoxy]ethylamino]-1-hydroxy-ethyl]-4-hydroxy-3H-1,3-benzothiazol-2-one

> <PUBCHEM_IUPAC_INCHI>
InChI=1S/C26H28FN3O4S/c27-21-7-2-1-5-18(21)10-11-28-15-17-4-3-6-19(14-17)34-13-12-29-16-23(32)20-8-9-22(31)24-25(20)35-26(33)30-24/h1-9,14,23,28-29,31-32H,10-13,15-16H2,(H,30,33)/t23-/m0/s1

> <PUBCHEM_IUPAC_INCHIKEY>
UTPREWJYUHXHLZ-QHCPKHFHSA-N

> <PUBCHEM_XLOGP3_AA>
3.1

> <PUBCHEM_EXACT_MASS>
497.17845572

> <PUBCHEM_MOLECULAR_FORMULA>
C26H28FN3O4S

> <PUBCHEM_MOLECULAR_WEIGHT>
497.6

> <PUBCHEM_OPENEYE_CAN_SMILES>
C1=CC=C(C(=C1)CCNCC2=CC(=CC=C2)OCCNCC(C3=C4C(=C(C=C3)O)NC(=O)S4)O)F

> <PUBCHEM_OPENEYE_ISO_SMILES>
C1=CC=C(C(=C1)CCNCC2=CC(=CC=C2)OCCNC[C@@H](C3=C4C(=C(C=C3)O)NC(=O)S4)O)F

> <PUBCHEM_CACTVS_TPSA>
128

> <PUBCHEM_MONOISOTOPIC_WEIGHT>
497.17845572

> <PUBCHEM_TOTAL_CHARGE>
0

> <PUBCHEM_HEAVY_ATOM_COUNT>
35

> <PUBCHEM_ATOM_DEF_STEREO_COUNT>
1

> <PUBCHEM_ATOM_UDEF_STEREO_COUNT>
0

> <PUBCHEM_BOND_DEF_STEREO_COUNT>
0

> <PUBCHEM_BOND_UDEF_STEREO_COUNT>
0

> <PUBCHEM_ISOTOPIC_ATOM_COUNT>
0

> <PUBCHEM_COMPONENT_COUNT>
1

> <PUBCHEM_CACTVS_TAUTO_COUNT>
-1

> <PUBCHEM_COORDINATE_TYPE>
1
5
255

> <PUBCHEM_BONDANNOTATIONS>
1  13  8
1  24  8
11  13  8
11  16  8
13  14  8
14  17  8
16  19  8
17  19  8
23  26  8
23  28  8
25  26  8
25  29  8
27  31  8
27  32  8
28  30  8
29  30  8
10  3  6
31  33  8
32  34  8
33  35  8
34  35  8
8  14  8
8  24  8

$$$$
