164625719
  -OEChem-09292322432D

 54 57  0     1  0  0  0  0  0999 V2000
    5.4176    3.0528    0.0000 O   0  0  0  0  0  0  0  0  0  0  0  0
    8.0436    1.5181    0.0000 O   0  0  0  0  0  0  0  0  0  0  0  0
    8.0557    5.5874    0.0000 O   0  0  0  0  0  0  0  0  0  0  0  0
    2.0000   -3.0563    0.0000 O   0  0  0  0  0  0  0  0  0  0  0  0
    2.0812   -5.1433    0.0000 O   0  0  0  0  0  0  0  0  0  0  0  0
    5.4176    0.9835    0.0000 N   0  0  3  0  0  0  0  0  0  0  0  0
    3.7319   -3.0363    0.0000 N   0  0  0  0  0  0  0  0  0  0  0  0
    6.3116    1.5181    0.0000 C   0  0  1  0  0  0  0  0  0  0  0  0
    6.3116    2.5181    0.0000 C   0  0  1  0  0  0  0  0  0  0  0  0
    4.5116    1.4973    0.0000 C   0  0  0  0  0  0  0  0  0  0  0  0
    7.1776    1.0181    0.0000 C   0  0  0  0  0  0  0  0  0  0  0  0
    5.4292   -0.0165    0.0000 C   0  0  0  0  0  0  0  0  0  0  0  0
    7.1776    3.0181    0.0000 C   0  0  0  0  0  0  0  0  0  0  0  0
    4.5116    2.5390    0.0000 C   0  0  0  0  0  0  0  0  0  0  0  0
    4.5690   -0.5264    0.0000 C   0  0  0  0  0  0  0  0  0  0  0  0
    8.0436    2.5181    0.0000 C   0  0  0  0  0  0  0  0  0  0  0  0
    7.1615    4.0596    0.0000 C   0  0  0  0  0  0  0  0  0  0  0  0
    4.5806   -1.5264    0.0000 C   0  0  0  0  0  0  0  0  0  0  0  0
    8.9536    3.0250    0.0000 C   0  0  0  0  0  0  0  0  0  0  0  0
    8.0596    4.5874    0.0000 C   0  0  0  0  0  0  0  0  0  0  0  0
    3.7204   -2.0364    0.0000 C   0  0  0  0  0  0  0  0  0  0  0  0
    8.9616    4.0666    0.0000 C   0  0  0  0  0  0  0  0  0  0  0  0
    2.8718   -3.5463    0.0000 C   0  0  0  0  0  0  0  0  0  0  0  0
    8.9198    6.0907    0.0000 C   0  0  0  0  0  0  0  0  0  0  0  0
    2.8833   -4.5462    0.0000 C   0  0  0  0  0  0  0  0  0  0  0  0
    3.6991   -5.1246    0.0000 C   0  0  0  0  0  0  0  0  0  0  0  0
    3.4011   -6.0792    0.0000 C   0  0  0  0  0  0  0  0  0  0  0  0
    2.4011   -6.0907    0.0000 C   0  0  0  0  0  0  0  0  0  0  0  0
    6.3181    0.6682    0.0000 H   0  0  0  0  0  0  0  0  0  0  0  0
    6.3181    3.3681    0.0000 H   0  0  0  0  0  0  0  0  0  0  0  0
    3.9007    1.6034    0.0000 H   0  0  0  0  0  0  0  0  0  0  0  0
    4.3025    0.9136    0.0000 H   0  0  0  0  0  0  0  0  0  0  0  0
    6.7791    0.5432    0.0000 H   0  0  0  0  0  0  0  0  0  0  0  0
    7.5761    0.5432    0.0000 H   0  0  0  0  0  0  0  0  0  0  0  0
    5.6480   -0.5966    0.0000 H   0  0  0  0  0  0  0  0  0  0  0  0
    6.0385    0.0983    0.0000 H   0  0  0  0  0  0  0  0  0  0  0  0
    4.3025    3.1226    0.0000 H   0  0  0  0  0  0  0  0  0  0  0  0
    3.9007    2.4329    0.0000 H   0  0  0  0  0  0  0  0  0  0  0  0
    4.3502    0.0537    0.0000 H   0  0  0  0  0  0  0  0  0  0  0  0
    3.9597   -0.6412    0.0000 H   0  0  0  0  0  0  0  0  0  0  0  0
    6.6210    4.3634    0.0000 H   0  0  0  0  0  0  0  0  0  0  0  0
    4.7993   -2.1065    0.0000 H   0  0  0  0  0  0  0  0  0  0  0  0
    5.1898   -1.4117    0.0000 H   0  0  0  0  0  0  0  0  0  0  0  0
    9.4869    2.7088    0.0000 H   0  0  0  0  0  0  0  0  0  0  0  0
    3.5016   -1.4562    0.0000 H   0  0  0  0  0  0  0  0  0  0  0  0
    3.1111   -2.1511    0.0000 H   0  0  0  0  0  0  0  0  0  0  0  0
    9.4998    4.3745    0.0000 H   0  0  0  0  0  0  0  0  0  0  0  0
    4.2724   -3.3401    0.0000 H   0  0  0  0  0  0  0  0  0  0  0  0
    9.2319    5.5550    0.0000 H   0  0  0  0  0  0  0  0  0  0  0  0
    9.4555    6.4028    0.0000 H   0  0  0  0  0  0  0  0  0  0  0  0
    8.6077    6.6265    0.0000 H   0  0  0  0  0  0  0  0  0  0  0  0
    4.2865   -4.9262    0.0000 H   0  0  0  0  0  0  0  0  0  0  0  0
    3.7713   -6.5765    0.0000 H   0  0  0  0  0  0  0  0  0  0  0  0
    2.0425   -6.5965    0.0000 H   0  0  0  0  0  0  0  0  0  0  0  0
  1  9  1  0  0  0  0
  1 14  1  0  0  0  0
  2 11  1  0  0  0  0
  2 16  1  0  0  0  0
  3 20  1  0  0  0  0
  3 24  1  0  0  0  0
  4 23  2  0  0  0  0
  5 25  1  0  0  0  0
  5 28  1  0  0  0  0
  6  8  1  0  0  0  0
  6 10  1  0  0  0  0
  6 12  1  0  0  0  0
  7 21  1  0  0  0  0
  7 23  1  0  0  0  0
  7 48  1  0  0  0  0
  8  9  1  0  0  0  0
  8 11  1  0  0  0  0
  8 29  1  6  0  0  0
  9 13  1  0  0  0  0
  9 30  1  1  0  0  0
 10 14  1  0  0  0  0
 10 31  1  0  0  0  0
 10 32  1  0  0  0  0
 11 33  1  0  0  0  0
 11 34  1  0  0  0  0
 12 15  1  0  0  0  0
 12 35  1  0  0  0  0
 12 36  1  0  0  0  0
 13 16  2  0  0  0  0
 13 17  1  0  0  0  0
 14 37  1  0  0  0  0
 14 38  1  0  0  0  0
 15 18  1  0  0  0  0
 15 39  1  0  0  0  0
 15 40  1  0  0  0  0
 16 19  1  0  0  0  0
 17 20  2  0  0  0  0
 17 41  1  0  0  0  0
 18 21  1  0  0  0  0
 18 42  1  0  0  0  0
 18 43  1  0  0  0  0
 19 22  2  0  0  0  0
 19 44  1  0  0  0  0
 20 22  1  0  0  0  0
 21 45  1  0  0  0  0
 21 46  1  0  0  0  0
 22 47  1  0  0  0  0
 23 25  1  0  0  0  0
 24 49  1  0  0  0  0
 24 50  1  0  0  0  0
 24 51  1  0  0  0  0
 25 26  2  0  0  0  0
 26 27  1  0  0  0  0
 26 52  1  0  0  0  0
 27 28  2  0  0  0  0
 27 53  1  0  0  0  0
 28 54  1  0  0  0  0
M  END
> <PUBCHEM_COMPOUND_CID>
164625719

> <PUBCHEM_COMPOUND_CANONICALIZED>
1

> <PUBCHEM_CACTVS_COMPLEXITY>
519

> <PUBCHEM_CACTVS_HBOND_ACCEPTOR>
6

> <PUBCHEM_CACTVS_HBOND_DONOR>
1

> <PUBCHEM_CACTVS_ROTATABLE_BOND>
7

> <PUBCHEM_CACTVS_SUBSKEYS>
AAADceB7OAAAAAAAAAAAAAAAAAAAASAAAAA8SIAAAAAAAACxwAAAHgAQAAAADDzhmAYyBoPABECIAqlSkAKCCAAkIAAIiIHODMgOJzKEtT+HOSjl1hGYqYf417MOAQABAAAIAAACAAIAABAAAAAAAAAAAA==

> <PUBCHEM_IUPAC_OPENEYE_NAME>
N-[4-[(4aR,10bR)-9-methoxy-3,4a,5,10b-tetrahydro-2H-chromeno[4,3-b][1,4]oxazin-4-yl]butyl]furan-2-carboxamide

> <PUBCHEM_IUPAC_CAS_NAME>
N-[4-[(4aR,10bR)-9-methoxy-3,4a,5,10b-tetrahydro-2H-[1]benzopyrano[4,3-b][1,4]oxazin-4-yl]butyl]-2-furancarboxamide

> <PUBCHEM_IUPAC_NAME_MARKUP>
<I>N</I>-[4-[(4<I>a</I><I>R</I>,10<I>b</I><I>R</I>)-9-methoxy-3,4<I>a</I>,5,10<I>b</I>-tetrahydro-2<I>H</I>-chromeno[4,3-b][1,4]oxazin-4-yl]butyl]furan-2-carboxamide

> <PUBCHEM_IUPAC_NAME>
N-[4-[(4aR,10bR)-9-methoxy-3,4a,5,10b-tetrahydro-2H-chromeno[4,3-b][1,4]oxazin-4-yl]butyl]furan-2-carboxamide

> <PUBCHEM_IUPAC_SYSTEMATIC_NAME>
N-[4-[(4aR,10bR)-9-methoxy-3,4a,5,10b-tetrahydro-2H-chromeno[4,3-b][1,4]oxazin-4-yl]butyl]furan-2-carboxamide

> <PUBCHEM_IUPAC_TRADITIONAL_NAME>
N-[4-[(4aR,10bR)-9-methoxy-3,4a,5,10b-tetrahydro-2H-chromeno[4,3-b][1,4]oxazin-4-yl]butyl]-2-furamide

> <PUBCHEM_IUPAC_INCHI>
InChI=1S/C21H26N2O5/c1-25-15-6-7-18-16(13-15)20-17(14-28-18)23(10-12-27-20)9-3-2-8-22-21(24)19-5-4-11-26-19/h4-7,11,13,17,20H,2-3,8-10,12,14H2,1H3,(H,22,24)/t17-,20-/m1/s1

> <PUBCHEM_IUPAC_INCHIKEY>
BVAQJIHTMVINPX-YLJYHZDGSA-N

> <PUBCHEM_XLOGP3>
2.5

> <PUBCHEM_EXACT_MASS>
386.18417193

> <PUBCHEM_MOLECULAR_FORMULA>
C21H26N2O5

> <PUBCHEM_MOLECULAR_WEIGHT>
386.4

> <PUBCHEM_OPENEYE_CAN_SMILES>
COC1=CC2=C(C=C1)OCC3C2OCCN3CCCCNC(=O)C4=CC=CO4

> <PUBCHEM_OPENEYE_ISO_SMILES>
COC1=CC2=C(C=C1)OC[C@@H]3[C@@H]2OCCN3CCCCNC(=O)C4=CC=CO4

> <PUBCHEM_CACTVS_TPSA>
73.2

> <PUBCHEM_MONOISOTOPIC_WEIGHT>
386.18417193

> <PUBCHEM_TOTAL_CHARGE>
0

> <PUBCHEM_HEAVY_ATOM_COUNT>
28

> <PUBCHEM_ATOM_DEF_STEREO_COUNT>
2

> <PUBCHEM_ATOM_UDEF_STEREO_COUNT>
0

> <PUBCHEM_BOND_DEF_STEREO_COUNT>
0

> <PUBCHEM_BOND_UDEF_STEREO_COUNT>
0

> <PUBCHEM_ISOTOPIC_ATOM_COUNT>
0

> <PUBCHEM_COMPONENT_COUNT>
1

> <PUBCHEM_CACTVS_TAUTO_COUNT>
-1

> <PUBCHEM_COORDINATE_TYPE>
1
5
255

> <PUBCHEM_BONDANNOTATIONS>
13  16  8
13  17  8
16  19  8
17  20  8
19  22  8
20  22  8
25  26  8
26  27  8
27  28  8
5  25  8
5  28  8
8  29  6
9  30  5

$$$$
