74767927
  -OEChem-09292322082D

 65 69  0     1  0  0  0  0  0999 V2000
   13.3224    0.7646    0.0000 O   0  0  0  0  0  0  0  0  0  0  0  0
    7.2602    1.2646    0.0000 N   0  0  3  0  0  0  0  0  0  0  0  0
   12.4564   -0.7354    0.0000 N   0  0  0  0  0  0  0  0  0  0  0  0
   15.0962   -0.3302    0.0000 N   0  0  0  0  0  0  0  0  0  0  0  0
    2.0000    0.2372    0.0000 N   0  0  0  0  0  0  0  0  0  0  0  0
    9.8583    0.7646    0.0000 C   0  0  0  0  0  0  0  0  0  0  0  0
    9.8583   -0.2354    0.0000 C   0  0  0  0  0  0  0  0  0  0  0  0
   10.7243    1.2646    0.0000 C   0  0  0  0  0  0  0  0  0  0  0  0
   11.5904   -0.2354    0.0000 C   0  0  0  0  0  0  0  0  0  0  0  0
   10.7243   -0.7354    0.0000 C   0  0  0  0  0  0  0  0  0  0  0  0
   11.5904    0.7646    0.0000 C   0  0  0  0  0  0  0  0  0  0  0  0
    8.9923    1.2646    0.0000 C   0  0  0  0  0  0  0  0  0  0  0  0
    8.1263    0.7646    0.0000 C   0  0  0  0  0  0  0  0  0  0  0  0
    7.2602    2.2646    0.0000 C   0  0  0  0  0  0  0  0  0  0  0  0
    6.3942    0.7646    0.0000 C   0  0  0  0  0  0  0  0  0  0  0  0
    6.3942    2.7646    0.0000 C   0  0  0  0  0  0  0  0  0  0  0  0
    5.5282    1.2646    0.0000 C   0  0  0  0  0  0  0  0  0  0  0  0
    5.5282    2.2646    0.0000 C   0  0  0  0  0  0  0  0  0  0  0  0
   13.3224   -0.2354    0.0000 C   0  0  0  0  0  0  0  0  0  0  0  0
   14.1884   -0.7354    0.0000 C   0  0  0  0  0  0  0  0  0  0  0  0
    4.6342    0.7300    0.0000 C   0  0  0  0  0  0  0  0  0  0  0  0
    4.6342    2.7993    0.0000 C   0  0  0  0  0  0  0  0  0  0  0  0
    3.7282    1.2438    0.0000 C   0  0  0  0  0  0  0  0  0  0  0  0
   14.2915   -1.7241    0.0000 C   0  0  0  0  0  0  0  0  0  0  0  0
    3.7282    2.2855    0.0000 C   0  0  0  0  0  0  0  0  0  0  0  0
   15.7633   -1.0673    0.0000 C   0  0  0  0  0  0  0  0  0  0  0  0
   15.2633   -1.9333    0.0000 C   0  0  0  0  0  0  0  0  0  0  0  0
   15.3025    0.6483    0.0000 C   0  0  0  0  0  0  0  0  0  0  0  0
   16.7633   -1.0673    0.0000 C   0  0  0  0  0  0  0  0  0  0  0  0
   15.7633   -2.7993    0.0000 C   0  0  0  0  0  0  0  0  0  0  0  0
    2.8641    0.7405    0.0000 C   0  0  0  0  0  0  0  0  0  0  0  0
   17.2633   -1.9333    0.0000 C   0  0  0  0  0  0  0  0  0  0  0  0
   16.7633   -2.7993    0.0000 C   0  0  0  0  0  0  0  0  0  0  0  0
    9.3214    0.4546    0.0000 H   0  0  0  0  0  0  0  0  0  0  0  0
    9.2477   -0.1277    0.0000 H   0  0  0  0  0  0  0  0  0  0  0  0
    9.6463   -0.8180    0.0000 H   0  0  0  0  0  0  0  0  0  0  0  0
   11.1229    1.7396    0.0000 H   0  0  0  0  0  0  0  0  0  0  0  0
   10.3258    1.7396    0.0000 H   0  0  0  0  0  0  0  0  0  0  0  0
   12.1273    0.0746    0.0000 H   0  0  0  0  0  0  0  0  0  0  0  0
   10.3258   -1.2103    0.0000 H   0  0  0  0  0  0  0  0  0  0  0  0
   11.1229   -1.2103    0.0000 H   0  0  0  0  0  0  0  0  0  0  0  0
   12.2010    0.6570    0.0000 H   0  0  0  0  0  0  0  0  0  0  0  0
   11.8024    1.3473    0.0000 H   0  0  0  0  0  0  0  0  0  0  0  0
    9.3908    1.7396    0.0000 H   0  0  0  0  0  0  0  0  0  0  0  0
    8.5938    1.7396    0.0000 H   0  0  0  0  0  0  0  0  0  0  0  0
    7.7277    0.2897    0.0000 H   0  0  0  0  0  0  0  0  0  0  0  0
    8.5248    0.2897    0.0000 H   0  0  0  0  0  0  0  0  0  0  0  0
   12.4564   -1.3554    0.0000 H   0  0  0  0  0  0  0  0  0  0  0  0
    7.8708    2.1570    0.0000 H   0  0  0  0  0  0  0  0  0  0  0  0
    7.4723    2.8472    0.0000 H   0  0  0  0  0  0  0  0  0  0  0  0
    5.9957    0.2897    0.0000 H   0  0  0  0  0  0  0  0  0  0  0  0
    6.7928    0.2897    0.0000 H   0  0  0  0  0  0  0  0  0  0  0  0
    6.7928    3.2396    0.0000 H   0  0  0  0  0  0  0  0  0  0  0  0
    5.9957    3.2396    0.0000 H   0  0  0  0  0  0  0  0  0  0  0  0
    4.6414    0.1100    0.0000 H   0  0  0  0  0  0  0  0  0  0  0  0
    4.6414    3.4193    0.0000 H   0  0  0  0  0  0  0  0  0  0  0  0
   13.8300   -2.1381    0.0000 H   0  0  0  0  0  0  0  0  0  0  0  0
    3.1924    2.5975    0.0000 H   0  0  0  0  0  0  0  0  0  0  0  0
   15.9091    0.5204    0.0000 H   0  0  0  0  0  0  0  0  0  0  0  0
   15.4303    1.2549    0.0000 H   0  0  0  0  0  0  0  0  0  0  0  0
   14.6958    0.7761    0.0000 H   0  0  0  0  0  0  0  0  0  0  0  0
   17.0733   -0.5303    0.0000 H   0  0  0  0  0  0  0  0  0  0  0  0
   15.4533   -3.3362    0.0000 H   0  0  0  0  0  0  0  0  0  0  0  0
   17.8833   -1.9333    0.0000 H   0  0  0  0  0  0  0  0  0  0  0  0
   17.0733   -3.3362    0.0000 H   0  0  0  0  0  0  0  0  0  0  0  0
  1 19  2  0  0  0  0
  2 13  1  0  0  0  0
  2 14  1  0  0  0  0
  2 15  1  0  0  0  0
  3  9  1  0  0  0  0
  3 19  1  0  0  0  0
  3 48  1  0  0  0  0
  4 20  1  0  0  0  0
  4 26  1  0  0  0  0
  4 28  1  0  0  0  0
  5 31  3  0  0  0  0
  6  7  1  0  0  0  0
  6  8  1  0  0  0  0
  6 12  1  0  0  0  0
  6 34  1  0  0  0  0
  7 10  1  0  0  0  0
  7 35  1  0  0  0  0
  7 36  1  0  0  0  0
  8 11  1  0  0  0  0
  8 37  1  0  0  0  0
  8 38  1  0  0  0  0
  9 10  1  0  0  0  0
  9 11  1  0  0  0  0
  9 39  1  0  0  0  0
 10 40  1  0  0  0  0
 10 41  1  0  0  0  0
 11 42  1  0  0  0  0
 11 43  1  0  0  0  0
 12 13  1  0  0  0  0
 12 44  1  0  0  0  0
 12 45  1  0  0  0  0
 13 46  1  0  0  0  0
 13 47  1  0  0  0  0
 14 16  1  0  0  0  0
 14 49  1  0  0  0  0
 14 50  1  0  0  0  0
 15 17  1  0  0  0  0
 15 51  1  0  0  0  0
 15 52  1  0  0  0  0
 16 18  1  0  0  0  0
 16 53  1  0  0  0  0
 16 54  1  0  0  0  0
 17 18  2  0  0  0  0
 17 21  1  0  0  0  0
 18 22  1  0  0  0  0
 19 20  1  0  0  0  0
 20 24  2  0  0  0  0
 21 23  2  0  0  0  0
 21 55  1  0  0  0  0
 22 25  2  0  0  0  0
 22 56  1  0  0  0  0
 23 25  1  0  0  0  0
 23 31  1  0  0  0  0
 24 27  1  0  0  0  0
 24 57  1  0  0  0  0
 25 58  1  0  0  0  0
 26 27  1  0  0  0  0
 26 29  2  0  0  0  0
 27 30  2  0  0  0  0
 28 59  1  0  0  0  0
 28 60  1  0  0  0  0
 28 61  1  0  0  0  0
 29 32  1  0  0  0  0
 29 62  1  0  0  0  0
 30 33  1  0  0  0  0
 30 63  1  0  0  0  0
 32 33  2  0  0  0  0
 32 64  1  0  0  0  0
 33 65  1  0  0  0  0
M  END
> <PUBCHEM_COMPOUND_CID>
74767927

> <PUBCHEM_COMPOUND_CANONICALIZED>
1

> <PUBCHEM_CACTVS_COMPLEXITY>
723

> <PUBCHEM_CACTVS_HBOND_ACCEPTOR>
3

> <PUBCHEM_CACTVS_HBOND_DONOR>
1

> <PUBCHEM_CACTVS_ROTATABLE_BOND>
5

> <PUBCHEM_CACTVS_SUBSKEYS>
AAADcfB7oAAAAAAAAAAAAAAAAAAAAWAAAAA8YMEAAAAAAFix9AAAHgAQAAAADSjBngQywPPMEAC4ByVyVACigCAnAiAI2KG4ZNgI4PLAlbGUIQhglgDIyY8YicCewAACAAASAACQAAQAACQAAAAAAAAAAA==

> <PUBCHEM_IUPAC_OPENEYE_NAME>
N-[4-[2-(7-cyano-3,4-dihydro-1H-isoquinolin-2-yl)ethyl]cyclohexyl]-1-methyl-indole-2-carboxamide

> <PUBCHEM_IUPAC_CAS_NAME>
N-[4-[2-(7-cyano-3,4-dihydro-1H-isoquinolin-2-yl)ethyl]cyclohexyl]-1-methyl-2-indolecarboxamide

> <PUBCHEM_IUPAC_NAME_MARKUP>
<I>N</I>-[4-[2-(7-cyano-3,4-dihydro-1<I>H</I>-isoquinolin-2-yl)ethyl]cyclohexyl]-1-methylindole-2-carboxamide

> <PUBCHEM_IUPAC_NAME>
N-[4-[2-(7-cyano-3,4-dihydro-1H-isoquinolin-2-yl)ethyl]cyclohexyl]-1-methylindole-2-carboxamide

> <PUBCHEM_IUPAC_SYSTEMATIC_NAME>
N-[4-[2-(7-cyano-3,4-dihydro-1H-isoquinolin-2-yl)ethyl]cyclohexyl]-1-methyl-indole-2-carboxamide

> <PUBCHEM_IUPAC_TRADITIONAL_NAME>
N-[4-[2-(7-cyano-3,4-dihydro-1H-isoquinolin-2-yl)ethyl]cyclohexyl]-1-methyl-indole-2-carboxamide

> <PUBCHEM_IUPAC_INCHI>
InChI=1S/C28H32N4O/c1-31-26-5-3-2-4-23(26)17-27(31)28(33)30-25-10-7-20(8-11-25)12-14-32-15-13-22-9-6-21(18-29)16-24(22)19-32/h2-6,9,16-17,20,25H,7-8,10-15,19H2,1H3,(H,30,33)

> <PUBCHEM_IUPAC_INCHIKEY>
DYTTXOUBUJAEAG-UHFFFAOYSA-N

> <PUBCHEM_XLOGP3_AA>
4.8

> <PUBCHEM_EXACT_MASS>
440.25761166

> <PUBCHEM_MOLECULAR_FORMULA>
C28H32N4O

> <PUBCHEM_MOLECULAR_WEIGHT>
440.6

> <PUBCHEM_OPENEYE_CAN_SMILES>
CN1C2=CC=CC=C2C=C1C(=O)NC3CCC(CC3)CCN4CCC5=C(C4)C=C(C=C5)C#N

> <PUBCHEM_OPENEYE_ISO_SMILES>
CN1C2=CC=CC=C2C=C1C(=O)NC3CCC(CC3)CCN4CCC5=C(C4)C=C(C=C5)C#N

> <PUBCHEM_CACTVS_TPSA>
61.1

> <PUBCHEM_MONOISOTOPIC_WEIGHT>
440.25761166

> <PUBCHEM_TOTAL_CHARGE>
0

> <PUBCHEM_HEAVY_ATOM_COUNT>
33

> <PUBCHEM_ATOM_DEF_STEREO_COUNT>
0

> <PUBCHEM_ATOM_UDEF_STEREO_COUNT>
0

> <PUBCHEM_BOND_DEF_STEREO_COUNT>
0

> <PUBCHEM_BOND_UDEF_STEREO_COUNT>
0

> <PUBCHEM_ISOTOPIC_ATOM_COUNT>
0

> <PUBCHEM_COMPONENT_COUNT>
1

> <PUBCHEM_CACTVS_TAUTO_COUNT>
-1

> <PUBCHEM_COORDINATE_TYPE>
1
5
255

> <PUBCHEM_BONDANNOTATIONS>
17  18  8
17  21  8
18  22  8
20  24  8
21  23  8
22  25  8
23  25  8
24  27  8
26  27  8
26  29  8
27  30  8
29  32  8
30  33  8
32  33  8
4  20  8
4  26  8

$$$$
