11725909
  -OEChem-09292322212D

 41 44  0     1  0  0  0  0  0999 V2000
    2.0000    2.0350    0.0000 Cl  0  0  0  0  0  0  0  0  0  0  0  0
   12.1279   -2.4291    0.0000 Cl  0  0  0  0  0  0  0  0  0  0  0  0
    9.1279    1.0350    0.0000 N   0  0  3  0  0  0  0  0  0  0  0  0
    5.5443    1.8398    0.0000 N   0  0  0  0  0  0  0  0  0  0  0  0
    5.5443    0.2303    0.0000 N   0  0  0  0  0  0  0  0  0  0  0  0
    8.6279    1.9010    0.0000 C   0  0  0  0  0  0  0  0  0  0  0  0
    7.6279    1.9010    0.0000 C   0  0  0  0  0  0  0  0  0  0  0  0
    8.6279    0.1690    0.0000 C   0  0  0  0  0  0  0  0  0  0  0  0
    7.1279    1.0350    0.0000 C   0  0  0  0  0  0  0  0  0  0  0  0
   10.1279    1.0350    0.0000 C   0  0  0  0  0  0  0  0  0  0  0  0
    7.6279    0.1690    0.0000 C   0  0  0  0  0  0  0  0  0  0  0  0
    6.1279    1.0350    0.0000 C   0  0  0  0  0  0  0  0  0  0  0  0
   10.6279    0.1690    0.0000 C   0  0  0  0  0  0  0  0  0  0  0  0
    4.5981    1.5350    0.0000 C   0  0  0  0  0  0  0  0  0  0  0  0
    4.5981    0.5350    0.0000 C   0  0  0  0  0  0  0  0  0  0  0  0
   11.6279    0.1690    0.0000 C   0  0  0  0  0  0  0  0  0  0  0  0
   10.1279   -0.6970    0.0000 C   0  0  0  0  0  0  0  0  0  0  0  0
    3.7320    2.0350    0.0000 C   0  0  0  0  0  0  0  0  0  0  0  0
    3.7320    0.0350    0.0000 C   0  0  0  0  0  0  0  0  0  0  0  0
   12.1279   -0.6970    0.0000 C   0  0  0  0  0  0  0  0  0  0  0  0
   10.6279   -1.5630    0.0000 C   0  0  0  0  0  0  0  0  0  0  0  0
    2.8660    1.5350    0.0000 C   0  0  0  0  0  0  0  0  0  0  0  0
    2.8660    0.5350    0.0000 C   0  0  0  0  0  0  0  0  0  0  0  0
   11.6279   -1.5630    0.0000 C   0  0  0  0  0  0  0  0  0  0  0  0
    9.2105    2.1131    0.0000 H   0  0  0  0  0  0  0  0  0  0  0  0
    8.5202    2.5116    0.0000 H   0  0  0  0  0  0  0  0  0  0  0  0
    7.7356    2.5116    0.0000 H   0  0  0  0  0  0  0  0  0  0  0  0
    7.0453    2.1131    0.0000 H   0  0  0  0  0  0  0  0  0  0  0  0
    8.5202   -0.4416    0.0000 H   0  0  0  0  0  0  0  0  0  0  0  0
    9.2105   -0.0431    0.0000 H   0  0  0  0  0  0  0  0  0  0  0  0
   10.7105    1.2471    0.0000 H   0  0  0  0  0  0  0  0  0  0  0  0
   10.0202    1.6456    0.0000 H   0  0  0  0  0  0  0  0  0  0  0  0
    7.3179   -0.3679    0.0000 H   0  0  0  0  0  0  0  0  0  0  0  0
    5.7369    2.4291    0.0000 H   0  0  0  0  0  0  0  0  0  0  0  0
   11.9379    0.7059    0.0000 H   0  0  0  0  0  0  0  0  0  0  0  0
    9.5079   -0.6970    0.0000 H   0  0  0  0  0  0  0  0  0  0  0  0
    3.7320    2.6550    0.0000 H   0  0  0  0  0  0  0  0  0  0  0  0
    3.7320   -0.5850    0.0000 H   0  0  0  0  0  0  0  0  0  0  0  0
   12.7479   -0.6970    0.0000 H   0  0  0  0  0  0  0  0  0  0  0  0
   10.3179   -2.1000    0.0000 H   0  0  0  0  0  0  0  0  0  0  0  0
    2.3291    0.2250    0.0000 H   0  0  0  0  0  0  0  0  0  0  0  0
  1 22  1  0  0  0  0
  2 24  1  0  0  0  0
  3  6  1  0  0  0  0
  3  8  1  0  0  0  0
  3 10  1  0  0  0  0
  4 12  1  0  0  0  0
  4 14  1  0  0  0  0
  4 34  1  0  0  0  0
  5 12  2  0  0  0  0
  5 15  1  0  0  0  0
  6  7  1  0  0  0  0
  6 25  1  0  0  0  0
  6 26  1  0  0  0  0
  7  9  1  0  0  0  0
  7 27  1  0  0  0  0
  7 28  1  0  0  0  0
  8 11  1  0  0  0  0
  8 29  1  0  0  0  0
  8 30  1  0  0  0  0
  9 11  2  0  0  0  0
  9 12  1  0  0  0  0
 10 13  1  0  0  0  0
 10 31  1  0  0  0  0
 10 32  1  0  0  0  0
 11 33  1  0  0  0  0
 13 16  2  0  0  0  0
 13 17  1  0  0  0  0
 14 15  2  0  0  0  0
 14 18  1  0  0  0  0
 15 19  1  0  0  0  0
 16 20  1  0  0  0  0
 16 35  1  0  0  0  0
 17 21  2  0  0  0  0
 17 36  1  0  0  0  0
 18 22  2  0  0  0  0
 18 37  1  0  0  0  0
 19 23  2  0  0  0  0
 19 38  1  0  0  0  0
 20 24  2  0  0  0  0
 20 39  1  0  0  0  0
 21 24  1  0  0  0  0
 21 40  1  0  0  0  0
 22 23  1  0  0  0  0
 23 41  1  0  0  0  0
M  END
> <PUBCHEM_COMPOUND_CID>
11725909

> <PUBCHEM_COMPOUND_CANONICALIZED>
1

> <PUBCHEM_CACTVS_COMPLEXITY>
462

> <PUBCHEM_CACTVS_HBOND_ACCEPTOR>
2

> <PUBCHEM_CACTVS_HBOND_DONOR>
1

> <PUBCHEM_CACTVS_ROTATABLE_BOND>
3

> <PUBCHEM_CACTVS_SUBSKEYS>
AAADceB7AAAGAAAAAAAAAAAAAAAAAWAAAAAwYIAAAAAAAFgB9AAAHAIQAAAADArBHyQx0LfJkACgAyZiZACCgC2hF6AJmSA4dpiIaKLBm5GUIAhokALIyCcQgAAOBABAAAIAACAIAIAABAAAQAAAAAAAAA==

> <PUBCHEM_IUPAC_OPENEYE_NAME>
6-chloro-2-[1-[(4-chlorophenyl)methyl]-3,6-dihydro-2H-pyridin-4-yl]-1H-benzimidazole

> <PUBCHEM_IUPAC_CAS_NAME>
6-chloro-2-[1-[(4-chlorophenyl)methyl]-3,6-dihydro-2H-pyridin-4-yl]-1H-benzimidazole

> <PUBCHEM_IUPAC_NAME_MARKUP>
6-chloro-2-[1-[(4-chlorophenyl)methyl]-3,6-dihydro-2<I>H</I>-pyridin-4-yl]-1<I>H</I>-benzimidazole

> <PUBCHEM_IUPAC_NAME>
6-chloro-2-[1-[(4-chlorophenyl)methyl]-3,6-dihydro-2H-pyridin-4-yl]-1H-benzimidazole

> <PUBCHEM_IUPAC_SYSTEMATIC_NAME>
6-chloranyl-2-[1-[(4-chlorophenyl)methyl]-3,6-dihydro-2H-pyridin-4-yl]-1H-benzimidazole

> <PUBCHEM_IUPAC_TRADITIONAL_NAME>
6-chloro-2-[1-(4-chlorobenzyl)-3,6-dihydro-2H-pyridin-4-yl]-1H-benzimidazole

> <PUBCHEM_IUPAC_INCHI>
InChI=1S/C19H17Cl2N3/c20-15-3-1-13(2-4-15)12-24-9-7-14(8-10-24)19-22-17-6-5-16(21)11-18(17)23-19/h1-7,11H,8-10,12H2,(H,22,23)

> <PUBCHEM_IUPAC_INCHIKEY>
COYPPYFVEXHGJK-UHFFFAOYSA-N

> <PUBCHEM_XLOGP3_AA>
4.5

> <PUBCHEM_EXACT_MASS>
357.0799529

> <PUBCHEM_MOLECULAR_FORMULA>
C19H17Cl2N3

> <PUBCHEM_MOLECULAR_WEIGHT>
358.3

> <PUBCHEM_OPENEYE_CAN_SMILES>
C1CN(CC=C1C2=NC3=C(N2)C=C(C=C3)Cl)CC4=CC=C(C=C4)Cl

> <PUBCHEM_OPENEYE_ISO_SMILES>
C1CN(CC=C1C2=NC3=C(N2)C=C(C=C3)Cl)CC4=CC=C(C=C4)Cl

> <PUBCHEM_CACTVS_TPSA>
31.9

> <PUBCHEM_MONOISOTOPIC_WEIGHT>
357.0799529

> <PUBCHEM_TOTAL_CHARGE>
0

> <PUBCHEM_HEAVY_ATOM_COUNT>
24

> <PUBCHEM_ATOM_DEF_STEREO_COUNT>
0

> <PUBCHEM_ATOM_UDEF_STEREO_COUNT>
0

> <PUBCHEM_BOND_DEF_STEREO_COUNT>
0

> <PUBCHEM_BOND_UDEF_STEREO_COUNT>
0

> <PUBCHEM_ISOTOPIC_ATOM_COUNT>
0

> <PUBCHEM_COMPONENT_COUNT>
1

> <PUBCHEM_CACTVS_TAUTO_COUNT>
-1

> <PUBCHEM_COORDINATE_TYPE>
1
5
255

> <PUBCHEM_BONDANNOTATIONS>
13  16  8
13  17  8
14  15  8
14  18  8
15  19  8
16  20  8
17  21  8
18  22  8
19  23  8
20  24  8
21  24  8
22  23  8
4  12  8
4  14  8
5  12  8
5  15  8

$$$$
