155515324
  -OEChem-09292322462D

 44 46  0     0  0  0  0  0  0999 V2000
    8.9282   -1.5950    0.0000 Cl  0  0  0  0  0  0  0  0  0  0  0  0
    8.9282    0.4050    0.0000 S   0  0  0  0  0  0  0  0  0  0  0  0
    9.4282    1.2710    0.0000 O   0  0  0  0  0  0  0  0  0  0  0  0
    8.4282   -0.4610    0.0000 O   0  0  0  0  0  0  0  0  0  0  0  0
    4.5981    0.9050    0.0000 N   0  0  0  0  0  0  0  0  0  0  0  0
    2.8660    1.9050    0.0000 N   0  0  0  0  0  0  0  0  0  0  0  0
    6.3301    0.9050    0.0000 N   0  0  0  0  0  0  0  0  0  0  0  0
    5.4641   -0.5950    0.0000 N   0  0  0  0  0  0  0  0  0  0  0  0
    7.1962   -0.5950    0.0000 N   0  0  0  0  0  0  0  0  0  0  0  0
    6.3301   -2.0950    0.0000 N   0  0  0  0  0  0  0  0  0  0  0  0
    3.7320    0.4050    0.0000 C   0  0  0  0  0  0  0  0  0  0  0  0
    4.5981    1.9050    0.0000 C   0  0  0  0  0  0  0  0  0  0  0  0
    2.8660    0.9050    0.0000 C   0  0  0  0  0  0  0  0  0  0  0  0
    3.7320    2.4050    0.0000 C   0  0  0  0  0  0  0  0  0  0  0  0
    5.4641    0.4050    0.0000 C   0  0  0  0  0  0  0  0  0  0  0  0
    2.0000    2.4050    0.0000 C   0  0  0  0  0  0  0  0  0  0  0  0
    8.0622    0.9050    0.0000 C   0  0  0  0  0  0  0  0  0  0  0  0
    7.1962    0.4050    0.0000 C   0  0  0  0  0  0  0  0  0  0  0  0
    9.7942   -0.0950    0.0000 C   0  0  0  0  0  0  0  0  0  0  0  0
    6.3301   -1.0950    0.0000 C   0  0  0  0  0  0  0  0  0  0  0  0
    9.7942   -1.0950    0.0000 C   0  0  0  0  0  0  0  0  0  0  0  0
   10.6603    0.4050    0.0000 C   0  0  0  0  0  0  0  0  0  0  0  0
   10.6603   -1.5950    0.0000 C   0  0  0  0  0  0  0  0  0  0  0  0
   11.5263   -0.0950    0.0000 C   0  0  0  0  0  0  0  0  0  0  0  0
   11.5263   -1.0950    0.0000 C   0  0  0  0  0  0  0  0  0  0  0  0
    3.3335   -0.0699    0.0000 H   0  0  0  0  0  0  0  0  0  0  0  0
    4.1306   -0.0699    0.0000 H   0  0  0  0  0  0  0  0  0  0  0  0
    5.2087    1.7973    0.0000 H   0  0  0  0  0  0  0  0  0  0  0  0
    4.8101    2.4876    0.0000 H   0  0  0  0  0  0  0  0  0  0  0  0
    2.2554    1.0127    0.0000 H   0  0  0  0  0  0  0  0  0  0  0  0
    2.6540    0.3224    0.0000 H   0  0  0  0  0  0  0  0  0  0  0  0
    4.1306    2.8800    0.0000 H   0  0  0  0  0  0  0  0  0  0  0  0
    3.3335    2.8800    0.0000 H   0  0  0  0  0  0  0  0  0  0  0  0
    2.3100    2.9419    0.0000 H   0  0  0  0  0  0  0  0  0  0  0  0
    1.4631    2.7150    0.0000 H   0  0  0  0  0  0  0  0  0  0  0  0
    1.6900    1.8681    0.0000 H   0  0  0  0  0  0  0  0  0  0  0  0
    8.4607    1.3800    0.0000 H   0  0  0  0  0  0  0  0  0  0  0  0
    7.6636    1.3800    0.0000 H   0  0  0  0  0  0  0  0  0  0  0  0
   10.6603    1.0250    0.0000 H   0  0  0  0  0  0  0  0  0  0  0  0
   10.6603   -2.2150    0.0000 H   0  0  0  0  0  0  0  0  0  0  0  0
   12.0632    0.2150    0.0000 H   0  0  0  0  0  0  0  0  0  0  0  0
    5.7932   -2.4050    0.0000 H   0  0  0  0  0  0  0  0  0  0  0  0
    6.8671   -2.4050    0.0000 H   0  0  0  0  0  0  0  0  0  0  0  0
   12.0632   -1.4050    0.0000 H   0  0  0  0  0  0  0  0  0  0  0  0
  1 21  1  0  0  0  0
  2  3  2  0  0  0  0
  2  4  2  0  0  0  0
  2 17  1  0  0  0  0
  2 19  1  0  0  0  0
  5 11  1  0  0  0  0
  5 12  1  0  0  0  0
  5 15  1  0  0  0  0
  6 13  1  0  0  0  0
  6 14  1  0  0  0  0
  6 16  1  0  0  0  0
  7 15  2  0  0  0  0
  7 18  1  0  0  0  0
  8 15  1  0  0  0  0
  8 20  2  0  0  0  0
  9 18  2  0  0  0  0
  9 20  1  0  0  0  0
 10 20  1  0  0  0  0
 10 42  1  0  0  0  0
 10 43  1  0  0  0  0
 11 13  1  0  0  0  0
 11 26  1  0  0  0  0
 11 27  1  0  0  0  0
 12 14  1  0  0  0  0
 12 28  1  0  0  0  0
 12 29  1  0  0  0  0
 13 30  1  0  0  0  0
 13 31  1  0  0  0  0
 14 32  1  0  0  0  0
 14 33  1  0  0  0  0
 16 34  1  0  0  0  0
 16 35  1  0  0  0  0
 16 36  1  0  0  0  0
 17 18  1  0  0  0  0
 17 37  1  0  0  0  0
 17 38  1  0  0  0  0
 19 21  1  0  0  0  0
 19 22  2  0  0  0  0
 21 23  2  0  0  0  0
 22 24  1  0  0  0  0
 22 39  1  0  0  0  0
 23 25  1  0  0  0  0
 23 40  1  0  0  0  0
 24 25  2  0  0  0  0
 24 41  1  0  0  0  0
 25 44  1  0  0  0  0
M  END
> <PUBCHEM_COMPOUND_CID>
155515324

> <PUBCHEM_COMPOUND_CANONICALIZED>
1

> <PUBCHEM_CACTVS_COMPLEXITY>
537

> <PUBCHEM_CACTVS_HBOND_ACCEPTOR>
8

> <PUBCHEM_CACTVS_HBOND_DONOR>
1

> <PUBCHEM_CACTVS_ROTATABLE_BOND>
4

> <PUBCHEM_CACTVS_SUBSKEYS>
AAADceBzsABEAAAAAAAAAAAAAAAAAAAAAAA8WIAAAAAAAAABwAAAHAYQAAAACALFUySzEYdIEAqgACJiJHBCgAkgDbAJiBgYAoiIaCKhGxCQIAAogAKoiAcAAAAAAAAAAAAAAIAAAAAAAAABAAAAAAAAAA==

> <PUBCHEM_IUPAC_OPENEYE_NAME>
4-[(2-chlorophenyl)sulfonylmethyl]-6-(4-methylpiperazin-1-yl)-1,3,5-triazin-2-amine

> <PUBCHEM_IUPAC_CAS_NAME>
4-[(2-chlorophenyl)sulfonylmethyl]-6-(4-methyl-1-piperazinyl)-1,3,5-triazin-2-amine

> <PUBCHEM_IUPAC_NAME_MARKUP>
4-[(2-chlorophenyl)sulfonylmethyl]-6-(4-methylpiperazin-1-yl)-1,3,5-triazin-2-amine

> <PUBCHEM_IUPAC_NAME>
4-[(2-chlorophenyl)sulfonylmethyl]-6-(4-methylpiperazin-1-yl)-1,3,5-triazin-2-amine

> <PUBCHEM_IUPAC_SYSTEMATIC_NAME>
4-[(2-chlorophenyl)sulfonylmethyl]-6-(4-methylpiperazin-1-yl)-1,3,5-triazin-2-amine

> <PUBCHEM_IUPAC_TRADITIONAL_NAME>
[4-[(2-chlorophenyl)sulfonylmethyl]-6-(4-methylpiperazino)-s-triazin-2-yl]amine

> <PUBCHEM_IUPAC_INCHI>
InChI=1S/C15H19ClN6O2S/c1-21-6-8-22(9-7-21)15-19-13(18-14(17)20-15)10-25(23,24)12-5-3-2-4-11(12)16/h2-5H,6-10H2,1H3,(H2,17,18,19,20)

> <PUBCHEM_IUPAC_INCHIKEY>
WWPMYLXEYGNGDR-UHFFFAOYSA-N

> <PUBCHEM_XLOGP3_AA>
1.3

> <PUBCHEM_EXACT_MASS>
382.0978727

> <PUBCHEM_MOLECULAR_FORMULA>
C15H19ClN6O2S

> <PUBCHEM_MOLECULAR_WEIGHT>
382.9

> <PUBCHEM_OPENEYE_CAN_SMILES>
CN1CCN(CC1)C2=NC(=NC(=N2)N)CS(=O)(=O)C3=CC=CC=C3Cl

> <PUBCHEM_OPENEYE_ISO_SMILES>
CN1CCN(CC1)C2=NC(=NC(=N2)N)CS(=O)(=O)C3=CC=CC=C3Cl

> <PUBCHEM_CACTVS_TPSA>
114

> <PUBCHEM_MONOISOTOPIC_WEIGHT>
382.0978727

> <PUBCHEM_TOTAL_CHARGE>
0

> <PUBCHEM_HEAVY_ATOM_COUNT>
25

> <PUBCHEM_ATOM_DEF_STEREO_COUNT>
0

> <PUBCHEM_ATOM_UDEF_STEREO_COUNT>
0

> <PUBCHEM_BOND_DEF_STEREO_COUNT>
0

> <PUBCHEM_BOND_UDEF_STEREO_COUNT>
0

> <PUBCHEM_ISOTOPIC_ATOM_COUNT>
0

> <PUBCHEM_COMPONENT_COUNT>
1

> <PUBCHEM_CACTVS_TAUTO_COUNT>
-1

> <PUBCHEM_COORDINATE_TYPE>
1
5
255

> <PUBCHEM_BONDANNOTATIONS>
19  21  8
19  22  8
21  23  8
22  24  8
23  25  8
24  25  8
7  15  8
7  18  8
8  15  8
8  20  8
9  18  8
9  20  8

$$$$
