76314861
  -OEChem-09292322342D

 73 75  0     0  0  0  0  0  0999 V2000
   14.3286    8.8271    0.0000 F   0  0  0  0  0  0  0  0  0  0  0  0
   11.7038    9.1590    0.0000 O   0  0  0  0  0  0  0  0  0  0  0  0
    4.5901    4.1196    0.0000 O   0  0  0  0  0  0  0  0  0  0  0  0
    1.4030    2.6200    0.0000 O   0  0  0  0  0  0  0  0  0  0  0  0
    8.4634   15.1863    0.0000 O   0  0  0  0  0  0  0  0  0  0  0  0
    5.8653   15.6863    0.0000 O   0  0  0  0  0  0  0  0  0  0  0  0
    7.5973   16.6863    0.0000 O   0  0  0  0  0  0  0  0  0  0  0  0
    6.7313   14.1863    0.0000 O   0  0  0  0  0  0  0  0  0  0  0  0
    9.1254    6.8455    0.0000 N   0  0  0  0  0  0  0  0  0  0  0  0
    9.7468    8.7465    0.0000 N   0  0  0  0  0  0  0  0  0  0  0  0
    6.2364    3.5815    0.0000 N   0  0  0  0  0  0  0  0  0  0  0  0
    4.9473    0.8153    0.0000 N   0  0  0  0  0  0  0  0  0  0  0  0
    8.4576    7.5898    0.0000 C   0  0  0  0  0  0  0  0  0  0  0  0
   10.1039    7.0517    0.0000 C   0  0  0  0  0  0  0  0  0  0  0  0
    8.7682    8.5403    0.0000 C   0  0  0  0  0  0  0  0  0  0  0  0
   10.4146    8.0022    0.0000 C   0  0  0  0  0  0  0  0  0  0  0  0
    8.8148    5.8950    0.0000 C   0  0  0  0  0  0  0  0  0  0  0  0
   10.0574    9.6970    0.0000 C   0  0  0  0  0  0  0  0  0  0  0  0
   11.0359    9.9032    0.0000 C   0  0  0  0  0  0  0  0  0  0  0  0
    7.8363    5.6887    0.0000 C   0  0  0  0  0  0  0  0  0  0  0  0
    9.3896   10.4413    0.0000 C   0  0  0  0  0  0  0  0  0  0  0  0
   11.3466   10.8538    0.0000 C   0  0  0  0  0  0  0  0  0  0  0  0
    7.5256    4.7382    0.0000 C   0  0  0  0  0  0  0  0  0  0  0  0
    9.7002   11.3919    0.0000 C   0  0  0  0  0  0  0  0  0  0  0  0
   10.6787   11.5981    0.0000 C   0  0  0  0  0  0  0  0  0  0  0  0
    6.5471    4.5320    0.0000 C   0  0  0  0  0  0  0  0  0  0  0  0
   12.6823    9.3652    0.0000 C   0  0  0  0  0  0  0  0  0  0  0  0
    4.9473    2.4247    0.0000 C   0  0  0  0  0  0  0  0  0  0  0  0
    4.0010    2.1200    0.0000 C   0  0  0  0  0  0  0  0  0  0  0  0
    5.2579    3.3752    0.0000 C   0  0  0  0  0  0  0  0  0  0  0  0
    4.0010    1.1200    0.0000 C   0  0  0  0  0  0  0  0  0  0  0  0
   13.3501    8.6209    0.0000 C   0  0  0  0  0  0  0  0  0  0  0  0
    5.5309    1.6200    0.0000 C   0  0  0  0  0  0  0  0  0  0  0  0
    3.1350    2.6200    0.0000 C   0  0  0  0  0  0  0  0  0  0  0  0
    3.1350    0.6200    0.0000 C   0  0  0  0  0  0  0  0  0  0  0  0
    2.2690    2.1200    0.0000 C   0  0  0  0  0  0  0  0  0  0  0  0
    2.2690    1.1200    0.0000 C   0  0  0  0  0  0  0  0  0  0  0  0
    0.5369    2.1200    0.0000 C   0  0  0  0  0  0  0  0  0  0  0  0
    7.5973   15.6863    0.0000 C   0  0  0  0  0  0  0  0  0  0  0  0
    6.7313   15.1863    0.0000 C   0  0  0  0  0  0  0  0  0  0  0  0
    7.9107    7.8818    0.0000 H   0  0  0  0  0  0  0  0  0  0  0  0
    8.0750    7.1019    0.0000 H   0  0  0  0  0  0  0  0  0  0  0  0
   10.1245    6.4320    0.0000 H   0  0  0  0  0  0  0  0  0  0  0  0
   10.7177    6.9643    0.0000 H   0  0  0  0  0  0  0  0  0  0  0  0
    8.7477    9.1600    0.0000 H   0  0  0  0  0  0  0  0  0  0  0  0
    8.1544    8.6276    0.0000 H   0  0  0  0  0  0  0  0  0  0  0  0
   10.9615    7.7102    0.0000 H   0  0  0  0  0  0  0  0  0  0  0  0
   10.7971    8.4901    0.0000 H   0  0  0  0  0  0  0  0  0  0  0  0
    8.8353    5.2753    0.0000 H   0  0  0  0  0  0  0  0  0  0  0  0
    9.4286    5.8076    0.0000 H   0  0  0  0  0  0  0  0  0  0  0  0
    7.4222    6.1502    0.0000 H   0  0  0  0  0  0  0  0  0  0  0  0
    8.7829   10.3135    0.0000 H   0  0  0  0  0  0  0  0  0  0  0  0
   11.9533   10.9816    0.0000 H   0  0  0  0  0  0  0  0  0  0  0  0
    7.9397    4.2767    0.0000 H   0  0  0  0  0  0  0  0  0  0  0  0
    9.2862   11.8533    0.0000 H   0  0  0  0  0  0  0  0  0  0  0  0
   10.8713   12.1874    0.0000 H   0  0  0  0  0  0  0  0  0  0  0  0
    6.5265    5.1516    0.0000 H   0  0  0  0  0  0  0  0  0  0  0  0
    5.9333    4.6193    0.0000 H   0  0  0  0  0  0  0  0  0  0  0  0
   13.2086    9.6928    0.0000 H   0  0  0  0  0  0  0  0  0  0  0  0
   12.4510    9.9404    0.0000 H   0  0  0  0  0  0  0  0  0  0  0  0
    6.6505    3.1200    0.0000 H   0  0  0  0  0  0  0  0  0  0  0  0
    6.1509    1.6200    0.0000 H   0  0  0  0  0  0  0  0  0  0  0  0
   12.8238    8.2932    0.0000 H   0  0  0  0  0  0  0  0  0  0  0  0
   13.5814    8.0456    0.0000 H   0  0  0  0  0  0  0  0  0  0  0  0
    5.1399    0.2259    0.0000 H   0  0  0  0  0  0  0  0  0  0  0  0
    3.1350    3.2400    0.0000 H   0  0  0  0  0  0  0  0  0  0  0  0
    3.1350    0.0000    0.0000 H   0  0  0  0  0  0  0  0  0  0  0  0
    1.7320    0.8100    0.0000 H   0  0  0  0  0  0  0  0  0  0  0  0
    0.2269    2.6569    0.0000 H   0  0  0  0  0  0  0  0  0  0  0  0
    0.0000    1.8100    0.0000 H   0  0  0  0  0  0  0  0  0  0  0  0
    0.8469    1.5831    0.0000 H   0  0  0  0  0  0  0  0  0  0  0  0
    9.0003   15.4963    0.0000 H   0  0  0  0  0  0  0  0  0  0  0  0
    5.3283   15.3763    0.0000 H   0  0  0  0  0  0  0  0  0  0  0  0
  1 32  1  0  0  0  0
  2 19  1  0  0  0  0
  2 27  1  0  0  0  0
  3 30  2  0  0  0  0
  4 36  1  0  0  0  0
  4 38  1  0  0  0  0
  5 39  1  0  0  0  0
  5 72  1  0  0  0  0
  6 40  1  0  0  0  0
  6 73  1  0  0  0  0
  7 39  2  0  0  0  0
  8 40  2  0  0  0  0
  9 13  1  0  0  0  0
  9 14  1  0  0  0  0
  9 17  1  0  0  0  0
 10 15  1  0  0  0  0
 10 16  1  0  0  0  0
 10 18  1  0  0  0  0
 11 26  1  0  0  0  0
 11 30  1  0  0  0  0
 11 61  1  0  0  0  0
 12 31  1  0  0  0  0
 12 33  1  0  0  0  0
 12 65  1  0  0  0  0
 13 15  1  0  0  0  0
 13 41  1  0  0  0  0
 13 42  1  0  0  0  0
 14 16  1  0  0  0  0
 14 43  1  0  0  0  0
 14 44  1  0  0  0  0
 15 45  1  0  0  0  0
 15 46  1  0  0  0  0
 16 47  1  0  0  0  0
 16 48  1  0  0  0  0
 17 20  1  0  0  0  0
 17 49  1  0  0  0  0
 17 50  1  0  0  0  0
 18 19  1  0  0  0  0
 18 21  2  0  0  0  0
 19 22  2  0  0  0  0
 20 23  2  0  0  0  0
 20 51  1  0  0  0  0
 21 24  1  0  0  0  0
 21 52  1  0  0  0  0
 22 25  1  0  0  0  0
 22 53  1  0  0  0  0
 23 26  1  0  0  0  0
 23 54  1  0  0  0  0
 24 25  2  0  0  0  0
 24 55  1  0  0  0  0
 25 56  1  0  0  0  0
 26 57  1  0  0  0  0
 26 58  1  0  0  0  0
 27 32  1  0  0  0  0
 27 59  1  0  0  0  0
 27 60  1  0  0  0  0
 28 29  1  0  0  0  0
 28 30  1  0  0  0  0
 28 33  2  0  0  0  0
 29 31  2  0  0  0  0
 29 34  1  0  0  0  0
 31 35  1  0  0  0  0
 32 63  1  0  0  0  0
 32 64  1  0  0  0  0
 33 62  1  0  0  0  0
 34 36  2  0  0  0  0
 34 66  1  0  0  0  0
 35 37  2  0  0  0  0
 35 67  1  0  0  0  0
 36 37  1  0  0  0  0
 37 68  1  0  0  0  0
 38 69  1  0  0  0  0
 38 70  1  0  0  0  0
 38 71  1  0  0  0  0
 39 40  1  0  0  0  0
M  END
> <PUBCHEM_COMPOUND_CID>
76314861

> <PUBCHEM_COMPOUND_CANONICALIZED>
1

> <PUBCHEM_CACTVS_COMPLEXITY>
730

> <PUBCHEM_CACTVS_HBOND_ACCEPTOR>
10

> <PUBCHEM_CACTVS_HBOND_DONOR>
4

> <PUBCHEM_CACTVS_ROTATABLE_BOND>
11

> <PUBCHEM_CACTVS_SUBSKEYS>
AAADcfB7uQAAAAAAAAAAAAAAAAAAAWAAAAA8YIAAAAAAAFgB9AAAHwAQCAAADAzhngY+zvPJlgCoAzX3XAKCiCA1IiAI2aF/bNgPZvrE9ZuXOajk1hHZ6ce83PLOgEABAAACEAAAgAIAAAQgAAAAAAAAAA==

> <PUBCHEM_IUPAC_OPENEYE_NAME>
N-[(E)-4-[4-[2-(2-fluoroethoxy)phenyl]piperazin-1-yl]but-2-enyl]-5-methoxy-1H-indole-3-carboxamide;oxalic acid

> <PUBCHEM_IUPAC_CAS_NAME>
N-[(E)-4-[4-[2-(2-fluoroethoxy)phenyl]-1-piperazinyl]but-2-enyl]-5-methoxy-1H-indole-3-carboxamide;oxalic acid

> <PUBCHEM_IUPAC_NAME_MARKUP>
<I>N</I>-[(<I>E</I>)-4-[4-[2-(2-fluoroethoxy)phenyl]piperazin-1-yl]but-2-enyl]-5-methoxy-1<I>H</I>-indole-3-carboxamide;oxalic acid

> <PUBCHEM_IUPAC_NAME>
N-[(E)-4-[4-[2-(2-fluoroethoxy)phenyl]piperazin-1-yl]but-2-enyl]-5-methoxy-1H-indole-3-carboxamide;oxalic acid

> <PUBCHEM_IUPAC_SYSTEMATIC_NAME>
ethanedioic acid;N-[(E)-4-[4-[2-(2-fluoranylethoxy)phenyl]piperazin-1-yl]but-2-enyl]-5-methoxy-1H-indole-3-carboxamide

> <PUBCHEM_IUPAC_TRADITIONAL_NAME>
N-[(E)-4-[4-[2-(2-fluoroethoxy)phenyl]piperazino]but-2-enyl]-5-methoxy-1H-indole-3-carboxamide;oxalic acid

> <PUBCHEM_IUPAC_INCHI>
InChI=1S/C26H31FN4O3.C2H2O4/c1-33-20-8-9-23-21(18-20)22(19-29-23)26(32)28-11-4-5-12-30-13-15-31(16-14-30)24-6-2-3-7-25(24)34-17-10-27;3-1(4)2(5)6/h2-9,18-19,29H,10-17H2,1H3,(H,28,32);(H,3,4)(H,5,6)/b5-4+;

> <PUBCHEM_IUPAC_INCHIKEY>
GKXMCZPMDKWLIG-FXRZFVDSSA-N

> <PUBCHEM_EXACT_MASS>
556.23332757

> <PUBCHEM_MOLECULAR_FORMULA>
C28H33FN4O7

> <PUBCHEM_MOLECULAR_WEIGHT>
556.6

> <PUBCHEM_OPENEYE_CAN_SMILES>
COC1=CC2=C(C=C1)NC=C2C(=O)NCC=CCN3CCN(CC3)C4=CC=CC=C4OCCF.C(=O)(C(=O)O)O

> <PUBCHEM_OPENEYE_ISO_SMILES>
COC1=CC2=C(C=C1)NC=C2C(=O)NC/C=C/CN3CCN(CC3)C4=CC=CC=C4OCCF.C(=O)(C(=O)O)O

> <PUBCHEM_CACTVS_TPSA>
144

> <PUBCHEM_MONOISOTOPIC_WEIGHT>
556.23332757

> <PUBCHEM_TOTAL_CHARGE>
0

> <PUBCHEM_HEAVY_ATOM_COUNT>
40

> <PUBCHEM_ATOM_DEF_STEREO_COUNT>
0

> <PUBCHEM_ATOM_UDEF_STEREO_COUNT>
0

> <PUBCHEM_BOND_DEF_STEREO_COUNT>
1

> <PUBCHEM_BOND_UDEF_STEREO_COUNT>
0

> <PUBCHEM_ISOTOPIC_ATOM_COUNT>
0

> <PUBCHEM_COMPONENT_COUNT>
2

> <PUBCHEM_CACTVS_TAUTO_COUNT>
-1

> <PUBCHEM_COORDINATE_TYPE>
1
5
255

> <PUBCHEM_BONDANNOTATIONS>
12  31  8
12  33  8
18  19  8
18  21  8
19  22  8
21  24  8
22  25  8
24  25  8
28  29  8
28  33  8
29  31  8
29  34  8
31  35  8
34  36  8
35  37  8
36  37  8

$$$$
