52938728
  -OEChem-09292322312D

 91 97  0     1  0  0  0  0  0999 V2000
    3.6508   -2.9374    0.0000 O   0  0  0  0  0  0  0  0  0  0  0  0
    7.4996    5.7207    0.0000 O   0  0  0  0  0  0  0  0  0  0  0  0
    7.1234   -5.9689    0.0000 N   0  0  3  0  0  0  0  0  0  0  0  0
    4.3189    4.3484    0.0000 N   0  0  0  0  0  0  0  0  0  0  0  0
    5.5131    5.9527    0.0000 N   0  0  0  0  0  0  0  0  0  0  0  0
    3.3199    0.1055    0.0000 N   0  0  0  0  0  0  0  0  0  0  0  0
    2.0000   -0.8304    0.0000 N   0  0  0  0  0  0  0  0  0  0  0  0
    2.3200    0.1171    0.0000 N   0  0  0  0  0  0  0  0  0  0  0  0
    6.2652   -5.4720    0.0000 C   0  0  3  0  0  0  0  0  0  0  0  0
    6.2652   -4.4720    0.0000 C   0  0  0  0  0  0  0  0  0  0  0  0
    5.3992   -5.9720    0.0000 C   0  0  0  0  0  0  0  0  0  0  0  0
    7.9889   -5.4847    0.0000 C   0  0  0  0  0  0  0  0  0  0  0  0
    7.1752   -3.9651    0.0000 C   0  0  0  0  0  0  0  0  0  0  0  0
    8.0145   -4.4933    0.0000 C   0  0  0  0  0  0  0  0  0  0  0  0
    5.3992   -3.9720    0.0000 C   0  0  0  0  0  0  0  0  0  0  0  0
    4.5332   -5.4720    0.0000 C   0  0  0  0  0  0  0  0  0  0  0  0
    7.1160   -6.9689    0.0000 C   0  0  0  0  0  0  0  0  0  0  0  0
    4.5332   -4.4720    0.0000 C   0  0  0  0  0  0  0  0  0  0  0  0
    7.1832   -2.9235    0.0000 C   0  0  0  0  0  0  0  0  0  0  0  0
    5.3831   -2.9304    0.0000 C   0  0  0  0  0  0  0  0  0  0  0  0
    7.9783   -7.4753    0.0000 C   0  0  0  0  0  0  0  0  0  0  0  0
    3.6392   -3.9373    0.0000 C   0  0  0  0  0  0  0  0  0  0  0  0
    3.6392   -6.0066    0.0000 C   0  0  0  0  0  0  0  0  0  0  0  0
    6.2812   -2.4027    0.0000 C   0  0  0  0  0  0  0  0  0  0  0  0
    2.7332   -4.4512    0.0000 C   0  0  0  0  0  0  0  0  0  0  0  0
    2.7332   -5.4928    0.0000 C   0  0  0  0  0  0  0  0  0  0  0  0
    5.3122    4.2324    0.0000 C   0  0  0  0  0  0  0  0  0  0  0  0
    3.9228    5.2666    0.0000 C   0  0  0  0  0  0  0  0  0  0  0  0
    7.9709   -8.4752    0.0000 C   0  0  0  0  0  0  0  0  0  0  0  0
    5.9093    5.0345    0.0000 C   0  0  0  0  0  0  0  0  0  0  0  0
    4.5199    6.0687    0.0000 C   0  0  0  0  0  0  0  0  0  0  0  0
    3.7218    3.5462    0.0000 C   0  0  0  0  0  0  0  0  0  0  0  0
    4.1180    2.6280    0.0000 C   0  0  0  0  0  0  0  0  0  0  0  0
    3.5209    1.8259    0.0000 C   0  0  0  0  0  0  0  0  0  0  0  0
    6.1102    6.7549    0.0000 C   0  0  0  0  0  0  0  0  0  0  0  0
    2.7906   -2.4274    0.0000 C   0  0  0  0  0  0  0  0  0  0  0  0
    3.9170    0.9077    0.0000 C   0  0  0  0  0  0  0  0  0  0  0  0
    2.8022   -1.4275    0.0000 C   0  0  0  0  0  0  0  0  0  0  0  0
    7.1035    6.6389    0.0000 C   0  0  0  0  0  0  0  0  0  0  0  0
    5.7141    7.6731    0.0000 C   0  0  0  0  0  0  0  0  0  0  0  0
    3.6179   -0.8491    0.0000 C   0  0  0  0  0  0  0  0  0  0  0  0
    7.7006    7.4410    0.0000 C   0  0  0  0  0  0  0  0  0  0  0  0
    6.3112    8.4752    0.0000 C   0  0  0  0  0  0  0  0  0  0  0  0
    7.3044    8.3592    0.0000 C   0  0  0  0  0  0  0  0  0  0  0  0
    8.4929    5.6046    0.0000 C   0  0  0  0  0  0  0  0  0  0  0  0
    6.2648   -6.0920    0.0000 H   0  0  0  0  0  0  0  0  0  0  0  0
    5.0007   -6.4469    0.0000 H   0  0  0  0  0  0  0  0  0  0  0  0
    5.7977   -6.4469    0.0000 H   0  0  0  0  0  0  0  0  0  0  0  0
    8.1907   -6.0710    0.0000 H   0  0  0  0  0  0  0  0  0  0  0  0
    8.6017   -5.3904    0.0000 H   0  0  0  0  0  0  0  0  0  0  0  0
    8.6216   -4.6192    0.0000 H   0  0  0  0  0  0  0  0  0  0  0  0
    8.2463   -3.9183    0.0000 H   0  0  0  0  0  0  0  0  0  0  0  0
    6.5063   -6.8567    0.0000 H   0  0  0  0  0  0  0  0  0  0  0  0
    6.8997   -7.5499    0.0000 H   0  0  0  0  0  0  0  0  0  0  0  0
    7.7214   -2.6156    0.0000 H   0  0  0  0  0  0  0  0  0  0  0  0
    4.8426   -2.6267    0.0000 H   0  0  0  0  0  0  0  0  0  0  0  0
    8.5881   -7.5874    0.0000 H   0  0  0  0  0  0  0  0  0  0  0  0
    8.1947   -6.8942    0.0000 H   0  0  0  0  0  0  0  0  0  0  0  0
    3.6464   -6.6266    0.0000 H   0  0  0  0  0  0  0  0  0  0  0  0
    6.2788   -1.7827    0.0000 H   0  0  0  0  0  0  0  0  0  0  0  0
    2.1974   -4.1391    0.0000 H   0  0  0  0  0  0  0  0  0  0  0  0
    2.1974   -5.8048    0.0000 H   0  0  0  0  0  0  0  0  0  0  0  0
    5.1344    3.6384    0.0000 H   0  0  0  0  0  0  0  0  0  0  0  0
    5.8663    3.9541    0.0000 H   0  0  0  0  0  0  0  0  0  0  0  0
    3.4973    5.7175    0.0000 H   0  0  0  0  0  0  0  0  0  0  0  0
    3.4048    4.9258    0.0000 H   0  0  0  0  0  0  0  0  0  0  0  0
    7.3510   -8.4706    0.0000 H   0  0  0  0  0  0  0  0  0  0  0  0
    7.9664   -9.0952    0.0000 H   0  0  0  0  0  0  0  0  0  0  0  0
    8.5909   -8.4798    0.0000 H   0  0  0  0  0  0  0  0  0  0  0  0
    6.3348    4.5836    0.0000 H   0  0  0  0  0  0  0  0  0  0  0  0
    6.4273    5.3753    0.0000 H   0  0  0  0  0  0  0  0  0  0  0  0
    4.6977    6.6627    0.0000 H   0  0  0  0  0  0  0  0  0  0  0  0
    3.9658    6.3470    0.0000 H   0  0  0  0  0  0  0  0  0  0  0  0
    3.2963    3.9972    0.0000 H   0  0  0  0  0  0  0  0  0  0  0  0
    3.2039    3.2055    0.0000 H   0  0  0  0  0  0  0  0  0  0  0  0
    4.5435    2.1771    0.0000 H   0  0  0  0  0  0  0  0  0  0  0  0
    4.6360    2.9688    0.0000 H   0  0  0  0  0  0  0  0  0  0  0  0
    3.0954    2.2768    0.0000 H   0  0  0  0  0  0  0  0  0  0  0  0
    3.0029    1.4851    0.0000 H   0  0  0  0  0  0  0  0  0  0  0  0
    2.1813   -2.3127    0.0000 H   0  0  0  0  0  0  0  0  0  0  0  0
    2.5718   -3.0075    0.0000 H   0  0  0  0  0  0  0  0  0  0  0  0
    4.3425    0.4567    0.0000 H   0  0  0  0  0  0  0  0  0  0  0  0
    4.4350    1.2484    0.0000 H   0  0  0  0  0  0  0  0  0  0  0  0
    5.0983    7.7450    0.0000 H   0  0  0  0  0  0  0  0  0  0  0  0
    4.2053   -1.0475    0.0000 H   0  0  0  0  0  0  0  0  0  0  0  0
    8.3164    7.3691    0.0000 H   0  0  0  0  0  0  0  0  0  0  0  0
    6.0656    9.0445    0.0000 H   0  0  0  0  0  0  0  0  0  0  0  0
    7.6746    8.8566    0.0000 H   0  0  0  0  0  0  0  0  0  0  0  0
    8.4210    4.9888    0.0000 H   0  0  0  0  0  0  0  0  0  0  0  0
    9.1087    5.5327    0.0000 H   0  0  0  0  0  0  0  0  0  0  0  0
    8.5648    6.2205    0.0000 H   0  0  0  0  0  0  0  0  0  0  0  0
  1 22  1  0  0  0  0
  1 36  1  0  0  0  0
  2 39  1  0  0  0  0
  2 45  1  0  0  0  0
  3  9  1  0  0  0  0
  3 12  1  0  0  0  0
  3 17  1  0  0  0  0
  4 27  1  0  0  0  0
  4 28  1  0  0  0  0
  4 32  1  0  0  0  0
  5 30  1  0  0  0  0
  5 31  1  0  0  0  0
  5 35  1  0  0  0  0
  6  8  1  0  0  0  0
  6 37  1  0  0  0  0
  6 41  1  0  0  0  0
  7  8  2  0  0  0  0
  7 38  1  0  0  0  0
  9 10  1  0  0  0  0
  9 11  1  0  0  0  0
  9 46  1  0  0  0  0
 10 13  2  0  0  0  0
 10 15  1  0  0  0  0
 11 16  1  0  0  0  0
 11 47  1  0  0  0  0
 11 48  1  0  0  0  0
 12 14  1  0  0  0  0
 12 49  1  0  0  0  0
 12 50  1  0  0  0  0
 13 14  1  0  0  0  0
 13 19  1  0  0  0  0
 14 51  1  0  0  0  0
 14 52  1  0  0  0  0
 15 18  1  0  0  0  0
 15 20  2  0  0  0  0
 16 18  2  0  0  0  0
 16 23  1  0  0  0  0
 17 21  1  0  0  0  0
 17 53  1  0  0  0  0
 17 54  1  0  0  0  0
 18 22  1  0  0  0  0
 19 24  2  0  0  0  0
 19 55  1  0  0  0  0
 20 24  1  0  0  0  0
 20 56  1  0  0  0  0
 21 29  1  0  0  0  0
 21 57  1  0  0  0  0
 21 58  1  0  0  0  0
 22 25  2  0  0  0  0
 23 26  2  0  0  0  0
 23 59  1  0  0  0  0
 24 60  1  0  0  0  0
 25 26  1  0  0  0  0
 25 61  1  0  0  0  0
 26 62  1  0  0  0  0
 27 30  1  0  0  0  0
 27 63  1  0  0  0  0
 27 64  1  0  0  0  0
 28 31  1  0  0  0  0
 28 65  1  0  0  0  0
 28 66  1  0  0  0  0
 29 67  1  0  0  0  0
 29 68  1  0  0  0  0
 29 69  1  0  0  0  0
 30 70  1  0  0  0  0
 30 71  1  0  0  0  0
 31 72  1  0  0  0  0
 31 73  1  0  0  0  0
 32 33  1  0  0  0  0
 32 74  1  0  0  0  0
 32 75  1  0  0  0  0
 33 34  1  0  0  0  0
 33 76  1  0  0  0  0
 33 77  1  0  0  0  0
 34 37  1  0  0  0  0
 34 78  1  0  0  0  0
 34 79  1  0  0  0  0
 35 39  1  0  0  0  0
 35 40  2  0  0  0  0
 36 38  1  0  0  0  0
 36 80  1  0  0  0  0
 36 81  1  0  0  0  0
 37 82  1  0  0  0  0
 37 83  1  0  0  0  0
 38 41  2  0  0  0  0
 39 42  2  0  0  0  0
 40 43  1  0  0  0  0
 40 84  1  0  0  0  0
 41 85  1  0  0  0  0
 42 44  1  0  0  0  0
 42 86  1  0  0  0  0
 43 44  2  0  0  0  0
 43 87  1  0  0  0  0
 44 88  1  0  0  0  0
 45 89  1  0  0  0  0
 45 90  1  0  0  0  0
 45 91  1  0  0  0  0
M  END
> <PUBCHEM_COMPOUND_CID>
52938728

> <PUBCHEM_COMPOUND_CANONICALIZED>
1

> <PUBCHEM_CACTVS_COMPLEXITY>
902

> <PUBCHEM_CACTVS_HBOND_ACCEPTOR>
7

> <PUBCHEM_CACTVS_HBOND_DONOR>
0

> <PUBCHEM_CACTVS_ROTATABLE_BOND>
12

> <PUBCHEM_CACTVS_SUBSKEYS>
AAADcfB/sAAAAAAAAAAAAAAAAAAAAWAAAAA8eMGCAAAAAADx1AAAHgAIAAAADCzhngY+xpMIBACiAzRnRASCDAQxsgAY2AA/fIgOZiLEsZuXOCjmwBHY6AeQ0PMOgAADAAAYEACQAAaAADQgAAAAAAAAAA==

> <PUBCHEM_IUPAC_OPENEYE_NAME>
11-[[1-[4-[4-(2-methoxyphenyl)piperazin-1-yl]butyl]triazol-4-yl]methoxy]-6-propyl-5,6,6a,7-tetrahydro-4H-dibenzo[de,g]quinoline

> <PUBCHEM_IUPAC_CAS_NAME>
11-[[1-[4-[4-(2-methoxyphenyl)-1-piperazinyl]butyl]-4-triazolyl]methoxy]-6-propyl-5,6,6a,7-tetrahydro-4H-dibenzo[de,g]quinoline

> <PUBCHEM_IUPAC_NAME_MARKUP>
11-[[1-[4-[4-(2-methoxyphenyl)piperazin-1-yl]butyl]triazol-4-yl]methoxy]-6-propyl-5,6,6<I>a</I>,7-tetrahydro-4<I>H</I>-dibenzo[de,g]quinoline

> <PUBCHEM_IUPAC_NAME>
11-[[1-[4-[4-(2-methoxyphenyl)piperazin-1-yl]butyl]triazol-4-yl]methoxy]-6-propyl-5,6,6a,7-tetrahydro-4H-dibenzo[de,g]quinoline

> <PUBCHEM_IUPAC_SYSTEMATIC_NAME>
11-[[1-[4-[4-(2-methoxyphenyl)piperazin-1-yl]butyl]-1,2,3-triazol-4-yl]methoxy]-6-propyl-5,6,6a,7-tetrahydro-4H-dibenzo[de,g]quinoline

> <PUBCHEM_IUPAC_TRADITIONAL_NAME>
11-[[1-[4-[4-(2-methoxyphenyl)piperazino]butyl]triazol-4-yl]methoxy]-6-propyl-5,6,6a,7-tetrahydro-4H-dibenzo[de,g]quinoline

> <PUBCHEM_IUPAC_INCHI>
InChI=1S/C37H46N6O2/c1-3-17-41-20-16-28-10-8-12-31-36(28)33(41)25-29-11-9-15-35(37(29)31)45-27-30-26-43(39-38-30)19-7-6-18-40-21-23-42(24-22-40)32-13-4-5-14-34(32)44-2/h4-5,8-15,26,33H,3,6-7,16-25,27H2,1-2H3

> <PUBCHEM_IUPAC_INCHIKEY>
OXHFCAMGABAVGJ-UHFFFAOYSA-N

> <PUBCHEM_XLOGP3_AA>
5.9

> <PUBCHEM_EXACT_MASS>
606.36822473

> <PUBCHEM_MOLECULAR_FORMULA>
C37H46N6O2

> <PUBCHEM_MOLECULAR_WEIGHT>
606.8

> <PUBCHEM_OPENEYE_CAN_SMILES>
CCCN1CCC2=C3C1CC4=C(C3=CC=C2)C(=CC=C4)OCC5=CN(N=N5)CCCCN6CCN(CC6)C7=CC=CC=C7OC

> <PUBCHEM_OPENEYE_ISO_SMILES>
CCCN1CCC2=C3C1CC4=C(C3=CC=C2)C(=CC=C4)OCC5=CN(N=N5)CCCCN6CCN(CC6)C7=CC=CC=C7OC

> <PUBCHEM_CACTVS_TPSA>
58.9

> <PUBCHEM_MONOISOTOPIC_WEIGHT>
606.36822473

> <PUBCHEM_TOTAL_CHARGE>
0

> <PUBCHEM_HEAVY_ATOM_COUNT>
45

> <PUBCHEM_ATOM_DEF_STEREO_COUNT>
0

> <PUBCHEM_ATOM_UDEF_STEREO_COUNT>
1

> <PUBCHEM_BOND_DEF_STEREO_COUNT>
0

> <PUBCHEM_BOND_UDEF_STEREO_COUNT>
0

> <PUBCHEM_ISOTOPIC_ATOM_COUNT>
0

> <PUBCHEM_COMPONENT_COUNT>
1

> <PUBCHEM_CACTVS_TAUTO_COUNT>
-1

> <PUBCHEM_COORDINATE_TYPE>
1
5
255

> <PUBCHEM_BONDANNOTATIONS>
10  13  8
10  15  8
13  19  8
15  20  8
16  18  8
16  23  8
18  22  8
19  24  8
20  24  8
22  25  8
23  26  8
25  26  8
35  39  8
35  40  8
38  41  8
39  42  8
40  43  8
42  44  8
43  44  8
6  41  8
6  8  8
7  38  8
7  8  8
9  11  3

$$$$
