44278789
  -OEChem-09292322202D

 55 58  0     1  0  0  0  0  0999 V2000
    4.5981   -3.5173    0.0000 O   0  0  0  0  0  0  0  0  0  0  0  0
    6.3301    0.4827    0.0000 O   0  0  0  0  0  0  0  0  0  0  0  0
    6.3301    2.4827    0.0000 O   0  0  0  0  0  0  0  0  0  0  0  0
    4.5981   -0.5173    0.0000 N   0  0  0  0  0  0  0  0  0  0  0  0
    4.5981   -2.5173    0.0000 C   0  0  0  0  0  0  0  0  0  0  0  0
    3.7320   -2.0173    0.0000 C   0  0  0  0  0  0  0  0  0  0  0  0
    5.4641   -2.0173    0.0000 C   0  0  0  0  0  0  0  0  0  0  0  0
    3.7320   -1.0173    0.0000 C   0  0  0  0  0  0  0  0  0  0  0  0
    5.4641   -1.0173    0.0000 C   0  0  0  0  0  0  0  0  0  0  0  0
    4.5981    0.4827    0.0000 C   0  0  0  0  0  0  0  0  0  0  0  0
    5.4641    0.9827    0.0000 C   0  0  3  0  0  0  0  0  0  0  0  0
    5.4641    1.9827    0.0000 C   0  0  0  0  0  0  0  0  0  0  0  0
    3.7320   -4.0173    0.0000 C   0  0  0  0  0  0  0  0  0  0  0  0
    3.7320   -5.0173    0.0000 C   0  0  0  0  0  0  0  0  0  0  0  0
    2.8660   -3.5173    0.0000 C   0  0  0  0  0  0  0  0  0  0  0  0
    6.3301    3.4827    0.0000 C   0  0  0  0  0  0  0  0  0  0  0  0
    7.1962    3.9827    0.0000 C   0  0  0  0  0  0  0  0  0  0  0  0
    2.8660   -5.5173    0.0000 C   0  0  0  0  0  0  0  0  0  0  0  0
    2.0000   -4.0173    0.0000 C   0  0  0  0  0  0  0  0  0  0  0  0
    7.1962    4.9827    0.0000 C   0  0  0  0  0  0  0  0  0  0  0  0
    5.4641    3.9827    0.0000 C   0  0  0  0  0  0  0  0  0  0  0  0
    2.0000   -5.0173    0.0000 C   0  0  0  0  0  0  0  0  0  0  0  0
    8.0901    3.4480    0.0000 C   0  0  0  0  0  0  0  0  0  0  0  0
    6.3301    5.4827    0.0000 C   0  0  0  0  0  0  0  0  0  0  0  0
    5.4641    4.9827    0.0000 C   0  0  0  0  0  0  0  0  0  0  0  0
    8.0901    5.5173    0.0000 C   0  0  0  0  0  0  0  0  0  0  0  0
    8.9962    3.9618    0.0000 C   0  0  0  0  0  0  0  0  0  0  0  0
    8.9962    5.0035    0.0000 C   0  0  0  0  0  0  0  0  0  0  0  0
    5.1350   -2.8273    0.0000 H   0  0  0  0  0  0  0  0  0  0  0  0
    3.1215   -1.9097    0.0000 H   0  0  0  0  0  0  0  0  0  0  0  0
    3.5200   -2.5999    0.0000 H   0  0  0  0  0  0  0  0  0  0  0  0
    5.6762   -2.5999    0.0000 H   0  0  0  0  0  0  0  0  0  0  0  0
    6.0747   -1.9097    0.0000 H   0  0  0  0  0  0  0  0  0  0  0  0
    3.5200   -0.4347    0.0000 H   0  0  0  0  0  0  0  0  0  0  0  0
    3.1215   -1.1250    0.0000 H   0  0  0  0  0  0  0  0  0  0  0  0
    6.0747   -1.1250    0.0000 H   0  0  0  0  0  0  0  0  0  0  0  0
    5.6762   -0.4347    0.0000 H   0  0  0  0  0  0  0  0  0  0  0  0
    4.3860    1.0653    0.0000 H   0  0  0  0  0  0  0  0  0  0  0  0
    3.9875    0.3750    0.0000 H   0  0  0  0  0  0  0  0  0  0  0  0
    5.4641    0.3627    0.0000 H   0  0  0  0  0  0  0  0  0  0  0  0
    5.2520    2.5653    0.0000 H   0  0  0  0  0  0  0  0  0  0  0  0
    4.8535    1.8750    0.0000 H   0  0  0  0  0  0  0  0  0  0  0  0
    6.8671    0.7927    0.0000 H   0  0  0  0  0  0  0  0  0  0  0  0
    4.2690   -5.3273    0.0000 H   0  0  0  0  0  0  0  0  0  0  0  0
    2.8660   -2.8973    0.0000 H   0  0  0  0  0  0  0  0  0  0  0  0
    2.8660   -6.1373    0.0000 H   0  0  0  0  0  0  0  0  0  0  0  0
    1.4631   -3.7073    0.0000 H   0  0  0  0  0  0  0  0  0  0  0  0
    4.9272    3.6727    0.0000 H   0  0  0  0  0  0  0  0  0  0  0  0
    1.4631   -5.3273    0.0000 H   0  0  0  0  0  0  0  0  0  0  0  0
    8.0829    2.8280    0.0000 H   0  0  0  0  0  0  0  0  0  0  0  0
    6.3301    6.1027    0.0000 H   0  0  0  0  0  0  0  0  0  0  0  0
    4.9272    5.2927    0.0000 H   0  0  0  0  0  0  0  0  0  0  0  0
    8.0829    6.1373    0.0000 H   0  0  0  0  0  0  0  0  0  0  0  0
    9.5319    3.6498    0.0000 H   0  0  0  0  0  0  0  0  0  0  0  0
    9.5319    5.3156    0.0000 H   0  0  0  0  0  0  0  0  0  0  0  0
  1  5  1  0  0  0  0
  1 13  1  0  0  0  0
  2 11  1  0  0  0  0
  2 43  1  0  0  0  0
  3 12  1  0  0  0  0
  3 16  1  0  0  0  0
  4  8  1  0  0  0  0
  4  9  1  0  0  0  0
  4 10  1  0  0  0  0
  5  6  1  0  0  0  0
  5  7  1  0  0  0  0
  5 29  1  0  0  0  0
  6  8  1  0  0  0  0
  6 30  1  0  0  0  0
  6 31  1  0  0  0  0
  7  9  1  0  0  0  0
  7 32  1  0  0  0  0
  7 33  1  0  0  0  0
  8 34  1  0  0  0  0
  8 35  1  0  0  0  0
  9 36  1  0  0  0  0
  9 37  1  0  0  0  0
 10 11  1  0  0  0  0
 10 38  1  0  0  0  0
 10 39  1  0  0  0  0
 11 12  1  0  0  0  0
 11 40  1  0  0  0  0
 12 41  1  0  0  0  0
 12 42  1  0  0  0  0
 13 14  2  0  0  0  0
 13 15  1  0  0  0  0
 14 18  1  0  0  0  0
 14 44  1  0  0  0  0
 15 19  2  0  0  0  0
 15 45  1  0  0  0  0
 16 17  1  0  0  0  0
 16 21  2  0  0  0  0
 17 20  1  0  0  0  0
 17 23  2  0  0  0  0
 18 22  2  0  0  0  0
 18 46  1  0  0  0  0
 19 22  1  0  0  0  0
 19 47  1  0  0  0  0
 20 24  1  0  0  0  0
 20 26  2  0  0  0  0
 21 25  1  0  0  0  0
 21 48  1  0  0  0  0
 22 49  1  0  0  0  0
 23 27  1  0  0  0  0
 23 50  1  0  0  0  0
 24 25  2  0  0  0  0
 24 51  1  0  0  0  0
 25 52  1  0  0  0  0
 26 28  1  0  0  0  0
 26 53  1  0  0  0  0
 27 28  2  0  0  0  0
 27 54  1  0  0  0  0
 28 55  1  0  0  0  0
M  END
> <PUBCHEM_COMPOUND_CID>
44278789

> <PUBCHEM_COMPOUND_CANONICALIZED>
1

> <PUBCHEM_CACTVS_COMPLEXITY>
445

> <PUBCHEM_CACTVS_HBOND_ACCEPTOR>
4

> <PUBCHEM_CACTVS_HBOND_DONOR>
1

> <PUBCHEM_CACTVS_ROTATABLE_BOND>
7

> <PUBCHEM_CACTVS_SUBSKEYS>
AAADceB6MAAAAAAAAAAAAAAAAAAAAAAAAAA8YMEAAAAAAADBVAAAHgAACAAADBThmAYwBsMABgCAAiBCAAACCAAgIAAIiAAOCIgPNiKEsRqGOCCmwBGbqAeQwLAOgAABAAAYAAAAAAIAADAAAAAAAAAAAA==

> <PUBCHEM_IUPAC_OPENEYE_NAME>
1-(1-naphthyloxy)-3-(4-phenoxy-1-piperidyl)propan-2-ol

> <PUBCHEM_IUPAC_CAS_NAME>
1-(1-naphthalenyloxy)-3-(4-phenoxy-1-piperidinyl)-2-propanol

> <PUBCHEM_IUPAC_NAME_MARKUP>
1-naphthalen-1-yloxy-3-(4-phenoxypiperidin-1-yl)propan-2-ol

> <PUBCHEM_IUPAC_NAME>
1-naphthalen-1-yloxy-3-(4-phenoxypiperidin-1-yl)propan-2-ol

> <PUBCHEM_IUPAC_SYSTEMATIC_NAME>
1-naphthalen-1-yloxy-3-(4-phenoxypiperidin-1-yl)propan-2-ol

> <PUBCHEM_IUPAC_TRADITIONAL_NAME>
1-(1-naphthoxy)-3-(4-phenoxypiperidino)propan-2-ol

> <PUBCHEM_IUPAC_INCHI>
InChI=1S/C24H27NO3/c26-20(18-27-24-12-6-8-19-7-4-5-11-23(19)24)17-25-15-13-22(14-16-25)28-21-9-2-1-3-10-21/h1-12,20,22,26H,13-18H2

> <PUBCHEM_IUPAC_INCHIKEY>
DZPUKTCTIGNFBU-UHFFFAOYSA-N

> <PUBCHEM_XLOGP3>
5.5

> <PUBCHEM_EXACT_MASS>
377.19909372

> <PUBCHEM_MOLECULAR_FORMULA>
C24H27NO3

> <PUBCHEM_MOLECULAR_WEIGHT>
377.5

> <PUBCHEM_OPENEYE_CAN_SMILES>
C1CN(CCC1OC2=CC=CC=C2)CC(COC3=CC=CC4=CC=CC=C43)O

> <PUBCHEM_OPENEYE_ISO_SMILES>
C1CN(CCC1OC2=CC=CC=C2)CC(COC3=CC=CC4=CC=CC=C43)O

> <PUBCHEM_CACTVS_TPSA>
41.9

> <PUBCHEM_MONOISOTOPIC_WEIGHT>
377.19909372

> <PUBCHEM_TOTAL_CHARGE>
0

> <PUBCHEM_HEAVY_ATOM_COUNT>
28

> <PUBCHEM_ATOM_DEF_STEREO_COUNT>
0

> <PUBCHEM_ATOM_UDEF_STEREO_COUNT>
1

> <PUBCHEM_BOND_DEF_STEREO_COUNT>
0

> <PUBCHEM_BOND_UDEF_STEREO_COUNT>
0

> <PUBCHEM_ISOTOPIC_ATOM_COUNT>
0

> <PUBCHEM_COMPONENT_COUNT>
1

> <PUBCHEM_CACTVS_TAUTO_COUNT>
-1

> <PUBCHEM_COORDINATE_TYPE>
1
5
255

> <PUBCHEM_BONDANNOTATIONS>
13  14  8
13  15  8
14  18  8
15  19  8
16  17  8
16  21  8
17  20  8
17  23  8
18  22  8
19  22  8
11  2  3
20  24  8
20  26  8
21  25  8
23  27  8
24  25  8
26  28  8
27  28  8

$$$$
