137645834
  -OEChem-09292322082D

 58 62  0     1  0  0  0  0  0999 V2000
   10.8622    3.5173    0.0000 Cl  0  0  0  0  0  0  0  0  0  0  0  0
   12.5942    4.5173    0.0000 Cl  0  0  0  0  0  0  0  0  0  0  0  0
    3.8000   -0.9827    0.0000 O   0  0  0  0  0  0  0  0  0  0  0  0
    9.1301    0.5173    0.0000 N   0  0  0  0  0  0  0  0  0  0  0  0
    5.5321   -0.9827    0.0000 N   0  0  0  0  0  0  0  0  0  0  0  0
   10.8622    1.5173    0.0000 N   0  0  0  0  0  0  0  0  0  0  0  0
    4.6660   -4.4827    0.0000 N   0  0  0  0  0  0  0  0  0  0  0  0
    7.3981    0.5173    0.0000 C   0  0  1  0  0  0  0  0  0  0  0  0
    6.3981    0.5173    0.0000 C   0  0  1  0  0  0  0  0  0  0  0  0
    6.8981    1.3834    0.0000 C   0  0  0  0  0  0  0  0  0  0  0  0
    8.2641    0.0173    0.0000 C   0  0  0  0  0  0  0  0  0  0  0  0
    5.5321    0.0173    0.0000 C   0  0  0  0  0  0  0  0  0  0  0  0
    9.9962    0.0173    0.0000 C   0  0  0  0  0  0  0  0  0  0  0  0
    9.1301    1.5173    0.0000 C   0  0  0  0  0  0  0  0  0  0  0  0
   10.8622    0.5173    0.0000 C   0  0  0  0  0  0  0  0  0  0  0  0
    9.9962    2.0173    0.0000 C   0  0  0  0  0  0  0  0  0  0  0  0
    4.6660   -1.4827    0.0000 C   0  0  0  0  0  0  0  0  0  0  0  0
   11.7282    2.0173    0.0000 C   0  0  0  0  0  0  0  0  0  0  0  0
    4.6660   -2.4827    0.0000 C   0  0  0  0  0  0  0  0  0  0  0  0
   11.7282    3.0173    0.0000 C   0  0  0  0  0  0  0  0  0  0  0  0
   12.5942    1.5173    0.0000 C   0  0  0  0  0  0  0  0  0  0  0  0
    3.8000   -2.9827    0.0000 C   0  0  0  0  0  0  0  0  0  0  0  0
    5.5321   -2.9827    0.0000 C   0  0  0  0  0  0  0  0  0  0  0  0
   12.5942    3.5173    0.0000 C   0  0  0  0  0  0  0  0  0  0  0  0
   13.4603    2.0173    0.0000 C   0  0  0  0  0  0  0  0  0  0  0  0
   13.4603    3.0173    0.0000 C   0  0  0  0  0  0  0  0  0  0  0  0
    3.8000   -3.9827    0.0000 C   0  0  0  0  0  0  0  0  0  0  0  0
    2.9061   -2.4480    0.0000 C   0  0  0  0  0  0  0  0  0  0  0  0
    5.5321   -3.9827    0.0000 C   0  0  0  0  0  0  0  0  0  0  0  0
    2.9061   -4.5173    0.0000 C   0  0  0  0  0  0  0  0  0  0  0  0
    2.0000   -2.9618    0.0000 C   0  0  0  0  0  0  0  0  0  0  0  0
    2.0000   -4.0035    0.0000 C   0  0  0  0  0  0  0  0  0  0  0  0
    7.2376   -0.0815    0.0000 H   0  0  0  0  0  0  0  0  0  0  0  0
    6.5586   -0.0815    0.0000 H   0  0  0  0  0  0  0  0  0  0  0  0
    7.3730    1.7819    0.0000 H   0  0  0  0  0  0  0  0  0  0  0  0
    6.4231    1.7819    0.0000 H   0  0  0  0  0  0  0  0  0  0  0  0
    7.8656   -0.4576    0.0000 H   0  0  0  0  0  0  0  0  0  0  0  0
    8.6626   -0.4576    0.0000 H   0  0  0  0  0  0  0  0  0  0  0  0
    5.3200    0.5999    0.0000 H   0  0  0  0  0  0  0  0  0  0  0  0
    4.9215   -0.0903    0.0000 H   0  0  0  0  0  0  0  0  0  0  0  0
    9.5976   -0.4576    0.0000 H   0  0  0  0  0  0  0  0  0  0  0  0
   10.3947   -0.4576    0.0000 H   0  0  0  0  0  0  0  0  0  0  0  0
    8.9181    2.0999    0.0000 H   0  0  0  0  0  0  0  0  0  0  0  0
    8.5196    1.4097    0.0000 H   0  0  0  0  0  0  0  0  0  0  0  0
    6.0690   -1.2927    0.0000 H   0  0  0  0  0  0  0  0  0  0  0  0
   11.0742   -0.0653    0.0000 H   0  0  0  0  0  0  0  0  0  0  0  0
   11.4728    0.6250    0.0000 H   0  0  0  0  0  0  0  0  0  0  0  0
   10.3947    2.4923    0.0000 H   0  0  0  0  0  0  0  0  0  0  0  0
    9.5976    2.4923    0.0000 H   0  0  0  0  0  0  0  0  0  0  0  0
   12.5942    0.8973    0.0000 H   0  0  0  0  0  0  0  0  0  0  0  0
    6.0690   -2.6727    0.0000 H   0  0  0  0  0  0  0  0  0  0  0  0
   13.9972    1.7073    0.0000 H   0  0  0  0  0  0  0  0  0  0  0  0
   13.9972    3.3273    0.0000 H   0  0  0  0  0  0  0  0  0  0  0  0
    2.9132   -1.8280    0.0000 H   0  0  0  0  0  0  0  0  0  0  0  0
    6.0690   -4.2927    0.0000 H   0  0  0  0  0  0  0  0  0  0  0  0
    2.9132   -5.1373    0.0000 H   0  0  0  0  0  0  0  0  0  0  0  0
    1.4643   -2.6498    0.0000 H   0  0  0  0  0  0  0  0  0  0  0  0
    1.4643   -4.3156    0.0000 H   0  0  0  0  0  0  0  0  0  0  0  0
  1 20  1  0  0  0  0
  2 24  1  0  0  0  0
  3 17  2  0  0  0  0
  4 11  1  0  0  0  0
  4 13  1  0  0  0  0
  4 14  1  0  0  0  0
  5 12  1  0  0  0  0
  5 17  1  0  0  0  0
  5 45  1  0  0  0  0
  6 15  1  0  0  0  0
  6 16  1  0  0  0  0
  6 18  1  0  0  0  0
  7 27  1  0  0  0  0
  7 29  2  0  0  0  0
  8  9  1  0  0  0  0
  8 10  1  0  0  0  0
  8 11  1  1  0  0  0
  8 33  1  0  0  0  0
  9 10  1  0  0  0  0
  9 12  1  6  0  0  0
  9 34  1  0  0  0  0
 10 35  1  0  0  0  0
 10 36  1  0  0  0  0
 11 37  1  0  0  0  0
 11 38  1  0  0  0  0
 12 39  1  0  0  0  0
 12 40  1  0  0  0  0
 13 15  1  0  0  0  0
 13 41  1  0  0  0  0
 13 42  1  0  0  0  0
 14 16  1  0  0  0  0
 14 43  1  0  0  0  0
 14 44  1  0  0  0  0
 15 46  1  0  0  0  0
 15 47  1  0  0  0  0
 16 48  1  0  0  0  0
 16 49  1  0  0  0  0
 17 19  1  0  0  0  0
 18 20  2  0  0  0  0
 18 21  1  0  0  0  0
 19 22  1  0  0  0  0
 19 23  2  0  0  0  0
 20 24  1  0  0  0  0
 21 25  2  0  0  0  0
 21 50  1  0  0  0  0
 22 27  1  0  0  0  0
 22 28  2  0  0  0  0
 23 29  1  0  0  0  0
 23 51  1  0  0  0  0
 24 26  2  0  0  0  0
 25 26  1  0  0  0  0
 25 52  1  0  0  0  0
 26 53  1  0  0  0  0
 27 30  2  0  0  0  0
 28 31  1  0  0  0  0
 28 54  1  0  0  0  0
 29 55  1  0  0  0  0
 30 32  1  0  0  0  0
 30 56  1  0  0  0  0
 31 32  2  0  0  0  0
 31 57  1  0  0  0  0
 32 58  1  0  0  0  0
M  END
> <PUBCHEM_COMPOUND_CID>
137645834

> <PUBCHEM_COMPOUND_CANONICALIZED>
1

> <PUBCHEM_CACTVS_COMPLEXITY>
643

> <PUBCHEM_CACTVS_HBOND_ACCEPTOR>
4

> <PUBCHEM_CACTVS_HBOND_DONOR>
1

> <PUBCHEM_CACTVS_ROTATABLE_BOND>
6

> <PUBCHEM_CACTVS_SUBSKEYS>
AAADceB7oAAGAAAAAAAAAAAAGAAAAAAAAAA8eIEAAAAAAACx9AAAHgIQAAAADQrBniQ8wPPIEACoAzV3VACCgCA1ByAI2uE4ZtgIYPLBl5HUIQhglgDIyYcciMCOgAAAAAICABQAAAAABAQAKAAAAAAAAA==

> <PUBCHEM_IUPAC_OPENEYE_NAME>
N-[[(1R,2R)-2-[[4-(2,3-dichlorophenyl)piperazin-1-yl]methyl]cyclopropyl]methyl]quinoline-4-carboxamide

> <PUBCHEM_IUPAC_CAS_NAME>
N-[[(1R,2R)-2-[[4-(2,3-dichlorophenyl)-1-piperazinyl]methyl]cyclopropyl]methyl]-4-quinolinecarboxamide

> <PUBCHEM_IUPAC_NAME_MARKUP>
<I>N</I>-[[(1<I>R</I>,2<I>R</I>)-2-[[4-(2,3-dichlorophenyl)piperazin-1-yl]methyl]cyclopropyl]methyl]quinoline-4-carboxamide

> <PUBCHEM_IUPAC_NAME>
N-[[(1R,2R)-2-[[4-(2,3-dichlorophenyl)piperazin-1-yl]methyl]cyclopropyl]methyl]quinoline-4-carboxamide

> <PUBCHEM_IUPAC_SYSTEMATIC_NAME>
N-[[(1R,2R)-2-[[4-[2,3-bis(chloranyl)phenyl]piperazin-1-yl]methyl]cyclopropyl]methyl]quinoline-4-carboxamide

> <PUBCHEM_IUPAC_TRADITIONAL_NAME>
N-[[(1R,2R)-2-[[4-(2,3-dichlorophenyl)piperazino]methyl]cyclopropyl]methyl]cinchoninamide

> <PUBCHEM_IUPAC_INCHI>
InChI=1S/C25H26Cl2N4O/c26-21-5-3-7-23(24(21)27)31-12-10-30(11-13-31)16-18-14-17(18)15-29-25(32)20-8-9-28-22-6-2-1-4-19(20)22/h1-9,17-18H,10-16H2,(H,29,32)/t17-,18-/m0/s1

> <PUBCHEM_IUPAC_INCHIKEY>
MOIAIVHWYHJNIE-ROUUACIJSA-N

> <PUBCHEM_XLOGP3_AA>
5

> <PUBCHEM_EXACT_MASS>
468.1483669

> <PUBCHEM_MOLECULAR_FORMULA>
C25H26Cl2N4O

> <PUBCHEM_MOLECULAR_WEIGHT>
469.4

> <PUBCHEM_OPENEYE_CAN_SMILES>
C1CN(CCN1CC2CC2CNC(=O)C3=CC=NC4=CC=CC=C34)C5=C(C(=CC=C5)Cl)Cl

> <PUBCHEM_OPENEYE_ISO_SMILES>
C1CN(CCN1C[C@@H]2C[C@H]2CNC(=O)C3=CC=NC4=CC=CC=C34)C5=C(C(=CC=C5)Cl)Cl

> <PUBCHEM_CACTVS_TPSA>
48.5

> <PUBCHEM_MONOISOTOPIC_WEIGHT>
468.1483669

> <PUBCHEM_TOTAL_CHARGE>
0

> <PUBCHEM_HEAVY_ATOM_COUNT>
32

> <PUBCHEM_ATOM_DEF_STEREO_COUNT>
2

> <PUBCHEM_ATOM_UDEF_STEREO_COUNT>
0

> <PUBCHEM_BOND_DEF_STEREO_COUNT>
0

> <PUBCHEM_BOND_UDEF_STEREO_COUNT>
0

> <PUBCHEM_ISOTOPIC_ATOM_COUNT>
0

> <PUBCHEM_COMPONENT_COUNT>
1

> <PUBCHEM_CACTVS_TAUTO_COUNT>
-1

> <PUBCHEM_COORDINATE_TYPE>
1
5
255

> <PUBCHEM_BONDANNOTATIONS>
18  20  8
18  21  8
19  22  8
19  23  8
20  24  8
21  25  8
22  27  8
22  28  8
23  29  8
24  26  8
25  26  8
27  30  8
28  31  8
30  32  8
31  32  8
7  27  8
7  29  8
8  11  5
9  12  6

$$$$
