44411667
  -OEChem-09292322502D

 50 53  0     0  0  0  0  0  0999 V2000
    5.4641   -4.0173    0.0000 F   0  0  0  0  0  0  0  0  0  0  0  0
    2.0000   -4.0173    0.0000 F   0  0  0  0  0  0  0  0  0  0  0  0
    9.7942    0.4827    0.0000 O   0  0  0  0  0  0  0  0  0  0  0  0
    8.0622    0.4827    0.0000 N   0  0  0  0  0  0  0  0  0  0  0  0
   10.6882    1.9480    0.0000 N   0  0  0  0  0  0  0  0  0  0  0  0
    6.3301   -0.5173    0.0000 C   0  0  0  0  0  0  0  0  0  0  0  0
    6.3301    0.4827    0.0000 C   0  0  0  0  0  0  0  0  0  0  0  0
    7.1962   -1.0173    0.0000 C   0  0  0  0  0  0  0  0  0  0  0  0
    5.4641   -1.0173    0.0000 C   0  0  0  0  0  0  0  0  0  0  0  0
    7.1962    0.9827    0.0000 C   0  0  0  0  0  0  0  0  0  0  0  0
    8.0622   -0.5173    0.0000 C   0  0  0  0  0  0  0  0  0  0  0  0
    5.4641   -2.0173    0.0000 C   0  0  0  0  0  0  0  0  0  0  0  0
    8.9282    0.9827    0.0000 C   0  0  0  0  0  0  0  0  0  0  0  0
    4.5981   -2.5173    0.0000 C   0  0  0  0  0  0  0  0  0  0  0  0
    8.9282    1.9827    0.0000 C   0  0  0  0  0  0  0  0  0  0  0  0
    4.5981   -3.5173    0.0000 C   0  0  0  0  0  0  0  0  0  0  0  0
    3.7320   -2.0173    0.0000 C   0  0  0  0  0  0  0  0  0  0  0  0
    9.7942    2.4827    0.0000 C   0  0  0  0  0  0  0  0  0  0  0  0
    8.0622    2.4827    0.0000 C   0  0  0  0  0  0  0  0  0  0  0  0
    9.7942    3.4827    0.0000 C   0  0  0  0  0  0  0  0  0  0  0  0
    3.7320   -4.0173    0.0000 C   0  0  0  0  0  0  0  0  0  0  0  0
    2.8660   -2.5173    0.0000 C   0  0  0  0  0  0  0  0  0  0  0  0
    8.0622    3.4827    0.0000 C   0  0  0  0  0  0  0  0  0  0  0  0
    8.9282    3.9827    0.0000 C   0  0  0  0  0  0  0  0  0  0  0  0
    2.8660   -3.5173    0.0000 C   0  0  0  0  0  0  0  0  0  0  0  0
   10.6882    4.0173    0.0000 C   0  0  0  0  0  0  0  0  0  0  0  0
   11.5942    2.4618    0.0000 C   0  0  0  0  0  0  0  0  0  0  0  0
   11.5942    3.5035    0.0000 C   0  0  0  0  0  0  0  0  0  0  0  0
    5.7932   -0.2073    0.0000 H   0  0  0  0  0  0  0  0  0  0  0  0
    6.1181    1.0653    0.0000 H   0  0  0  0  0  0  0  0  0  0  0  0
    5.7196    0.3750    0.0000 H   0  0  0  0  0  0  0  0  0  0  0  0
    6.7976   -1.4923    0.0000 H   0  0  0  0  0  0  0  0  0  0  0  0
    7.5947   -1.4923    0.0000 H   0  0  0  0  0  0  0  0  0  0  0  0
    5.2520   -0.4347    0.0000 H   0  0  0  0  0  0  0  0  0  0  0  0
    4.8535   -1.1250    0.0000 H   0  0  0  0  0  0  0  0  0  0  0  0
    7.5947    1.4576    0.0000 H   0  0  0  0  0  0  0  0  0  0  0  0
    6.7976    1.4576    0.0000 H   0  0  0  0  0  0  0  0  0  0  0  0
    8.2742   -1.0999    0.0000 H   0  0  0  0  0  0  0  0  0  0  0  0
    8.6728   -0.4097    0.0000 H   0  0  0  0  0  0  0  0  0  0  0  0
    5.6762   -2.5999    0.0000 H   0  0  0  0  0  0  0  0  0  0  0  0
    6.0747   -1.9097    0.0000 H   0  0  0  0  0  0  0  0  0  0  0  0
    3.7320   -1.3973    0.0000 H   0  0  0  0  0  0  0  0  0  0  0  0
    7.5252    2.1727    0.0000 H   0  0  0  0  0  0  0  0  0  0  0  0
    3.7320   -4.6373    0.0000 H   0  0  0  0  0  0  0  0  0  0  0  0
    2.3291   -2.2073    0.0000 H   0  0  0  0  0  0  0  0  0  0  0  0
    7.5252    3.7927    0.0000 H   0  0  0  0  0  0  0  0  0  0  0  0
    8.9282    4.6027    0.0000 H   0  0  0  0  0  0  0  0  0  0  0  0
   10.6810    4.6373    0.0000 H   0  0  0  0  0  0  0  0  0  0  0  0
   12.1300    2.1498    0.0000 H   0  0  0  0  0  0  0  0  0  0  0  0
   12.1300    3.8156    0.0000 H   0  0  0  0  0  0  0  0  0  0  0  0
  1 16  1  0  0  0  0
  2 25  1  0  0  0  0
  3 13  2  0  0  0  0
  4 10  1  0  0  0  0
  4 11  1  0  0  0  0
  4 13  1  0  0  0  0
  5 18  1  0  0  0  0
  5 27  2  0  0  0  0
  6  7  1  0  0  0  0
  6  8  1  0  0  0  0
  6  9  1  0  0  0  0
  6 29  1  0  0  0  0
  7 10  1  0  0  0  0
  7 30  1  0  0  0  0
  7 31  1  0  0  0  0
  8 11  1  0  0  0  0
  8 32  1  0  0  0  0
  8 33  1  0  0  0  0
  9 12  1  0  0  0  0
  9 34  1  0  0  0  0
  9 35  1  0  0  0  0
 10 36  1  0  0  0  0
 10 37  1  0  0  0  0
 11 38  1  0  0  0  0
 11 39  1  0  0  0  0
 12 14  1  0  0  0  0
 12 40  1  0  0  0  0
 12 41  1  0  0  0  0
 13 15  1  0  0  0  0
 14 16  2  0  0  0  0
 14 17  1  0  0  0  0
 15 18  1  0  0  0  0
 15 19  2  0  0  0  0
 16 21  1  0  0  0  0
 17 22  2  0  0  0  0
 17 42  1  0  0  0  0
 18 20  2  0  0  0  0
 19 23  1  0  0  0  0
 19 43  1  0  0  0  0
 20 24  1  0  0  0  0
 20 26  1  0  0  0  0
 21 25  2  0  0  0  0
 21 44  1  0  0  0  0
 22 25  1  0  0  0  0
 22 45  1  0  0  0  0
 23 24  2  0  0  0  0
 23 46  1  0  0  0  0
 24 47  1  0  0  0  0
 26 28  2  0  0  0  0
 26 48  1  0  0  0  0
 27 28  1  0  0  0  0
 27 49  1  0  0  0  0
 28 50  1  0  0  0  0
M  END
> <PUBCHEM_COMPOUND_CID>
44411667

> <PUBCHEM_COMPOUND_CANONICALIZED>
1

> <PUBCHEM_CACTVS_COMPLEXITY>
523

> <PUBCHEM_CACTVS_HBOND_ACCEPTOR>
4

> <PUBCHEM_CACTVS_HBOND_DONOR>
0

> <PUBCHEM_CACTVS_ROTATABLE_BOND>
4

> <PUBCHEM_CACTVS_SUBSKEYS>
AAADceB7IYAAAAAAAAAAAAAAAAAAAAAAAAA8eIEAAAAAAACx9AAAHwAAAAAADQjBngw8wPMIEACoAzV3VACCgCA1AiAI2CE4ZNgIIPrA1ZGEIYhghgDIyccYiMCOAAACAAACAAAAAAQAAAQAAAAAAAAAAA==

> <PUBCHEM_IUPAC_OPENEYE_NAME>
[4-[2-(2,4-difluorophenyl)ethyl]-1-piperidyl]-(8-quinolyl)methanone

> <PUBCHEM_IUPAC_CAS_NAME>
[4-[2-(2,4-difluorophenyl)ethyl]-1-piperidinyl]-(8-quinolinyl)methanone

> <PUBCHEM_IUPAC_NAME_MARKUP>
[4-[2-(2,4-difluorophenyl)ethyl]piperidin-1-yl]-quinolin-8-ylmethanone

> <PUBCHEM_IUPAC_NAME>
[4-[2-(2,4-difluorophenyl)ethyl]piperidin-1-yl]-quinolin-8-ylmethanone

> <PUBCHEM_IUPAC_SYSTEMATIC_NAME>
[4-[2-[2,4-bis(fluoranyl)phenyl]ethyl]piperidin-1-yl]-quinolin-8-yl-methanone

> <PUBCHEM_IUPAC_TRADITIONAL_NAME>
[4-[2-(2,4-difluorophenyl)ethyl]piperidino]-(8-quinolyl)methanone

> <PUBCHEM_IUPAC_INCHI>
InChI=1S/C23H22F2N2O/c24-19-9-8-17(21(25)15-19)7-6-16-10-13-27(14-11-16)23(28)20-5-1-3-18-4-2-12-26-22(18)20/h1-5,8-9,12,15-16H,6-7,10-11,13-14H2

> <PUBCHEM_IUPAC_INCHIKEY>
PMBWRYROEYPVBK-UHFFFAOYSA-N

> <PUBCHEM_XLOGP3_AA>
5.1

> <PUBCHEM_EXACT_MASS>
380.17001965

> <PUBCHEM_MOLECULAR_FORMULA>
C23H22F2N2O

> <PUBCHEM_MOLECULAR_WEIGHT>
380.4

> <PUBCHEM_OPENEYE_CAN_SMILES>
C1CN(CCC1CCC2=C(C=C(C=C2)F)F)C(=O)C3=CC=CC4=C3N=CC=C4

> <PUBCHEM_OPENEYE_ISO_SMILES>
C1CN(CCC1CCC2=C(C=C(C=C2)F)F)C(=O)C3=CC=CC4=C3N=CC=C4

> <PUBCHEM_CACTVS_TPSA>
33.2

> <PUBCHEM_MONOISOTOPIC_WEIGHT>
380.17001965

> <PUBCHEM_TOTAL_CHARGE>
0

> <PUBCHEM_HEAVY_ATOM_COUNT>
28

> <PUBCHEM_ATOM_DEF_STEREO_COUNT>
0

> <PUBCHEM_ATOM_UDEF_STEREO_COUNT>
0

> <PUBCHEM_BOND_DEF_STEREO_COUNT>
0

> <PUBCHEM_BOND_UDEF_STEREO_COUNT>
0

> <PUBCHEM_ISOTOPIC_ATOM_COUNT>
0

> <PUBCHEM_COMPONENT_COUNT>
1

> <PUBCHEM_CACTVS_TAUTO_COUNT>
-1

> <PUBCHEM_COORDINATE_TYPE>
1
5
255

> <PUBCHEM_BONDANNOTATIONS>
14  16  8
14  17  8
15  18  8
15  19  8
16  21  8
17  22  8
18  20  8
19  23  8
20  24  8
20  26  8
21  25  8
22  25  8
23  24  8
26  28  8
27  28  8
5  18  8
5  27  8

$$$$
