49780808
  -OEChem-09292322302D

 56 60  0     1  0  0  0  0  0999 V2000
    6.2252   -0.5777    0.0000 S   0  0  0  0  0  0  0  0  0  0  0  0
    2.7431   -2.4331    0.0000 O   0  0  0  0  0  0  0  0  0  0  0  0
    9.2252    1.1544    0.0000 N   0  0  0  0  0  0  0  0  0  0  0  0
    4.7306   -1.5482    0.0000 N   0  0  0  0  0  0  0  0  0  0  0  0
    6.1319   -2.3572    0.0000 N   0  0  0  0  0  0  0  0  0  0  0  0
    5.3887   -3.0264    0.0000 N   0  0  0  0  0  0  0  0  0  0  0  0
    2.4067   -4.0158    0.0000 N   0  0  0  0  0  0  0  0  0  0  0  0
   11.7640    1.6544    0.0000 C   0  0  3  0  0  0  0  0  0  0  0  0
   11.7640    0.6544    0.0000 C   0  0  3  0  0  0  0  0  0  0  0  0
   12.6305    1.1544    0.0000 C   0  0  0  0  0  0  0  0  0  0  0  0
   10.8129    1.9634    0.0000 C   0  0  0  0  0  0  0  0  0  0  0  0
   10.8129    0.3454    0.0000 C   0  0  0  0  0  0  0  0  0  0  0  0
   10.2251    1.1544    0.0000 C   0  0  3  0  0  0  0  0  0  0  0  0
   11.7640    2.6544    0.0000 C   0  0  0  0  0  0  0  0  0  0  0  0
   10.8980    3.1544    0.0000 C   0  0  0  0  0  0  0  0  0  0  0  0
   12.6300    3.1544    0.0000 C   0  0  0  0  0  0  0  0  0  0  0  0
    8.7252    0.2884    0.0000 C   0  0  0  0  0  0  0  0  0  0  0  0
   10.8980    4.1544    0.0000 C   0  0  0  0  0  0  0  0  0  0  0  0
   12.6300    4.1544    0.0000 C   0  0  0  0  0  0  0  0  0  0  0  0
    7.7252    0.2884    0.0000 C   0  0  0  0  0  0  0  0  0  0  0  0
   11.7640    4.6544    0.0000 C   0  0  0  0  0  0  0  0  0  0  0  0
    7.2252   -0.5777    0.0000 C   0  0  0  0  0  0  0  0  0  0  0  0
    5.7252   -1.4437    0.0000 C   0  0  0  0  0  0  0  0  0  0  0  0
    4.5227   -2.5264    0.0000 C   0  0  0  0  0  0  0  0  0  0  0  0
    4.0615   -0.8051    0.0000 C   0  0  0  0  0  0  0  0  0  0  0  0
    3.6092   -2.9331    0.0000 C   0  0  0  0  0  0  0  0  0  0  0  0
    3.4013   -3.9112    0.0000 C   0  0  0  0  0  0  0  0  0  0  0  0
    4.0704   -4.6544    0.0000 C   0  0  0  0  0  0  0  0  0  0  0  0
    2.0000   -3.1022    0.0000 C   0  0  0  0  0  0  0  0  0  0  0  0
   12.0161    0.0880    0.0000 H   0  0  0  0  0  0  0  0  0  0  0  0
   13.0290    0.6794    0.0000 H   0  0  0  0  0  0  0  0  0  0  0  0
   13.0290    1.6294    0.0000 H   0  0  0  0  0  0  0  0  0  0  0  0
   11.0651    2.5298    0.0000 H   0  0  0  0  0  0  0  0  0  0  0  0
   10.2760    2.2734    0.0000 H   0  0  0  0  0  0  0  0  0  0  0  0
   10.2760    0.0354    0.0000 H   0  0  0  0  0  0  0  0  0  0  0  0
   11.0651   -0.2210    0.0000 H   0  0  0  0  0  0  0  0  0  0  0  0
    9.9437    1.7068    0.0000 H   0  0  0  0  0  0  0  0  0  0  0  0
    8.9152    1.6913    0.0000 H   0  0  0  0  0  0  0  0  0  0  0  0
   10.3610    2.8444    0.0000 H   0  0  0  0  0  0  0  0  0  0  0  0
   13.1670    2.8444    0.0000 H   0  0  0  0  0  0  0  0  0  0  0  0
    8.6175   -0.3222    0.0000 H   0  0  0  0  0  0  0  0  0  0  0  0
    9.3078    0.0763    0.0000 H   0  0  0  0  0  0  0  0  0  0  0  0
   10.3610    4.4644    0.0000 H   0  0  0  0  0  0  0  0  0  0  0  0
   13.1670    4.4644    0.0000 H   0  0  0  0  0  0  0  0  0  0  0  0
    7.8328    0.8989    0.0000 H   0  0  0  0  0  0  0  0  0  0  0  0
    7.1425    0.5004    0.0000 H   0  0  0  0  0  0  0  0  0  0  0  0
   11.7640    5.2744    0.0000 H   0  0  0  0  0  0  0  0  0  0  0  0
    7.1175   -1.1882    0.0000 H   0  0  0  0  0  0  0  0  0  0  0  0
    7.8078   -0.7897    0.0000 H   0  0  0  0  0  0  0  0  0  0  0  0
    4.5222   -0.3902    0.0000 H   0  0  0  0  0  0  0  0  0  0  0  0
    3.6466   -0.3443    0.0000 H   0  0  0  0  0  0  0  0  0  0  0  0
    3.6008   -1.2199    0.0000 H   0  0  0  0  0  0  0  0  0  0  0  0
    3.6096   -5.0692    0.0000 H   0  0  0  0  0  0  0  0  0  0  0  0
    4.4852   -5.1151    0.0000 H   0  0  0  0  0  0  0  0  0  0  0  0
    4.5311   -4.2395    0.0000 H   0  0  0  0  0  0  0  0  0  0  0  0
    1.3936   -2.9733    0.0000 H   0  0  0  0  0  0  0  0  0  0  0  0
  1 22  1  0  0  0  0
  1 23  1  0  0  0  0
  2 26  1  0  0  0  0
  2 29  1  0  0  0  0
  3 13  1  0  0  0  0
  3 17  1  0  0  0  0
  3 38  1  0  0  0  0
  4 23  1  0  0  0  0
  4 24  1  0  0  0  0
  4 25  1  0  0  0  0
  5  6  1  0  0  0  0
  5 23  2  0  0  0  0
  6 24  2  0  0  0  0
  7 27  1  0  0  0  0
  7 29  2  0  0  0  0
  8  9  1  0  0  0  0
  8 10  1  0  0  0  0
  8 11  1  0  0  0  0
  8 14  1  0  0  0  0
  9 10  1  0  0  0  0
  9 12  1  0  0  0  0
  9 30  1  0  0  0  0
 10 31  1  0  0  0  0
 10 32  1  0  0  0  0
 11 13  1  0  0  0  0
 11 33  1  0  0  0  0
 11 34  1  0  0  0  0
 12 13  1  0  0  0  0
 12 35  1  0  0  0  0
 12 36  1  0  0  0  0
 13 37  1  0  0  0  0
 14 15  2  0  0  0  0
 14 16  1  0  0  0  0
 15 18  1  0  0  0  0
 15 39  1  0  0  0  0
 16 19  2  0  0  0  0
 16 40  1  0  0  0  0
 17 20  1  0  0  0  0
 17 41  1  0  0  0  0
 17 42  1  0  0  0  0
 18 21  2  0  0  0  0
 18 43  1  0  0  0  0
 19 21  1  0  0  0  0
 19 44  1  0  0  0  0
 20 22  1  0  0  0  0
 20 45  1  0  0  0  0
 20 46  1  0  0  0  0
 21 47  1  0  0  0  0
 22 48  1  0  0  0  0
 22 49  1  0  0  0  0
 24 26  1  0  0  0  0
 25 50  1  0  0  0  0
 25 51  1  0  0  0  0
 25 52  1  0  0  0  0
 26 27  2  0  0  0  0
 27 28  1  0  0  0  0
 28 53  1  0  0  0  0
 28 54  1  0  0  0  0
 28 55  1  0  0  0  0
 29 56  1  0  0  0  0
M  END
> <PUBCHEM_COMPOUND_CID>
49780808

> <PUBCHEM_COMPOUND_CANONICALIZED>
1

> <PUBCHEM_CACTVS_COMPLEXITY>
561

> <PUBCHEM_CACTVS_HBOND_ACCEPTOR>
6

> <PUBCHEM_CACTVS_HBOND_DONOR>
1

> <PUBCHEM_CACTVS_ROTATABLE_BOND>
8

> <PUBCHEM_CACTVS_SUBSKEYS>
AAADceB7oABAAAAAAAAAAAAAGAAAAeLEAAAwYAAAAAAAAAAB8AAAHgQYAAAADyzF3wa3lJfMFEiqA6Zz9ASS2Ct7YLAd2KG9RJiOKCLk2TCNIChgnALYiAcQgMAPgAAAAAAAAAAAAACAAAAAACAACAAAAA==

> <PUBCHEM_IUPAC_OPENEYE_NAME>
N-[3-[[4-methyl-5-(4-methyloxazol-5-yl)-1,2,4-triazol-3-yl]sulfanyl]propyl]-1-phenyl-bicyclo[3.1.0]hexan-3-amine

> <PUBCHEM_IUPAC_CAS_NAME>
N-[3-[[4-methyl-5-(4-methyl-5-oxazolyl)-1,2,4-triazol-3-yl]thio]propyl]-1-phenyl-3-bicyclo[3.1.0]hexanamine

> <PUBCHEM_IUPAC_NAME_MARKUP>
<I>N</I>-[3-[[4-methyl-5-(4-methyl-1,3-oxazol-5-yl)-1,2,4-triazol-3-yl]sulfanyl]propyl]-1-phenylbicyclo[3.1.0]hexan-3-amine

> <PUBCHEM_IUPAC_NAME>
N-[3-[[4-methyl-5-(4-methyl-1,3-oxazol-5-yl)-1,2,4-triazol-3-yl]sulfanyl]propyl]-1-phenylbicyclo[3.1.0]hexan-3-amine

> <PUBCHEM_IUPAC_SYSTEMATIC_NAME>
N-[3-[[4-methyl-5-(4-methyl-1,3-oxazol-5-yl)-1,2,4-triazol-3-yl]sulfanyl]propyl]-1-phenyl-bicyclo[3.1.0]hexan-3-amine

> <PUBCHEM_IUPAC_TRADITIONAL_NAME>
3-[[4-methyl-5-(4-methyloxazol-5-yl)-1,2,4-triazol-3-yl]thio]propyl-(1-phenyl-3-bicyclo[3.1.0]hexanyl)amine

> <PUBCHEM_IUPAC_INCHI>
InChI=1S/C22H27N5OS/c1-15-19(28-14-24-15)20-25-26-21(27(20)2)29-10-6-9-23-18-11-17-12-22(17,13-18)16-7-4-3-5-8-16/h3-5,7-8,14,17-18,23H,6,9-13H2,1-2H3

> <PUBCHEM_IUPAC_INCHIKEY>
XWXGIXOQLMBDID-UHFFFAOYSA-N

> <PUBCHEM_XLOGP3_AA>
3.6

> <PUBCHEM_EXACT_MASS>
409.19363168

> <PUBCHEM_MOLECULAR_FORMULA>
C22H27N5OS

> <PUBCHEM_MOLECULAR_WEIGHT>
409.5

> <PUBCHEM_OPENEYE_CAN_SMILES>
CC1=C(OC=N1)C2=NN=C(N2C)SCCCNC3CC4CC4(C3)C5=CC=CC=C5

> <PUBCHEM_OPENEYE_ISO_SMILES>
CC1=C(OC=N1)C2=NN=C(N2C)SCCCNC3CC4CC4(C3)C5=CC=CC=C5

> <PUBCHEM_CACTVS_TPSA>
94.1

> <PUBCHEM_MONOISOTOPIC_WEIGHT>
409.19363168

> <PUBCHEM_TOTAL_CHARGE>
0

> <PUBCHEM_HEAVY_ATOM_COUNT>
29

> <PUBCHEM_ATOM_DEF_STEREO_COUNT>
0

> <PUBCHEM_ATOM_UDEF_STEREO_COUNT>
3

> <PUBCHEM_BOND_DEF_STEREO_COUNT>
0

> <PUBCHEM_BOND_UDEF_STEREO_COUNT>
0

> <PUBCHEM_ISOTOPIC_ATOM_COUNT>
0

> <PUBCHEM_COMPONENT_COUNT>
1

> <PUBCHEM_CACTVS_TAUTO_COUNT>
-1

> <PUBCHEM_COORDINATE_TYPE>
1
5
255

> <PUBCHEM_BONDANNOTATIONS>
14  15  8
14  16  8
15  18  8
16  19  8
18  21  8
19  21  8
2  26  8
2  29  8
26  27  8
13  3  3
4  23  8
4  24  8
5  23  8
5  6  8
6  24  8
7  27  8
7  29  8
8  14  3
9  12  3

$$$$
