44347784
  -OEChem-09292322132D

 61 63  0     0  0  0  0  0  0999 V2000
    7.4156    8.6169    0.0000 F   0  0  0  0  0  0  0  0  0  0  0  0
    9.1736   11.6893    0.0000 F   0  0  0  0  0  0  0  0  0  0  0  0
    8.3197    7.1200    0.0000 O   0  0  0  0  0  0  0  0  0  0  0  0
    4.8671    5.5946    0.0000 O   0  0  0  0  0  0  0  0  0  0  0  0
    0.5369    6.0946    0.0000 O   0  0  0  0  0  0  0  0  0  0  0  0
    4.0010    7.0946    0.0000 O   0  0  0  0  0  0  0  0  0  0  0  0
    1.4030    4.5946    0.0000 O   0  0  0  0  0  0  0  0  0  0  0  0
   10.0518    5.1200    0.0000 N   0  0  0  0  0  0  0  0  0  0  0  0
   10.0518    7.1200    0.0000 C   0  0  0  0  0  0  0  0  0  0  0  0
    9.1858    6.6200    0.0000 C   0  0  0  0  0  0  0  0  0  0  0  0
   10.9178    6.6200    0.0000 C   0  0  0  0  0  0  0  0  0  0  0  0
   10.9178    7.6200    0.0000 C   0  0  0  0  0  0  0  0  0  0  0  0
    9.1858    5.6200    0.0000 C   0  0  0  0  0  0  0  0  0  0  0  0
   10.9178    5.6200    0.0000 C   0  0  0  0  0  0  0  0  0  0  0  0
    9.1858    7.6200    0.0000 C   0  0  0  0  0  0  0  0  0  0  0  0
   10.9178    8.6200    0.0000 C   0  0  0  0  0  0  0  0  0  0  0  0
    9.1858    8.6200    0.0000 C   0  0  0  0  0  0  0  0  0  0  0  0
   10.0518    9.1200    0.0000 C   0  0  0  0  0  0  0  0  0  0  0  0
   10.0518    4.1200    0.0000 C   0  0  0  0  0  0  0  0  0  0  0  0
   10.9178    3.6200    0.0000 C   0  0  0  0  0  0  0  0  0  0  0  0
    8.2758    9.1268    0.0000 C   0  0  0  0  0  0  0  0  0  0  0  0
   10.0678   10.1615    0.0000 C   0  0  0  0  0  0  0  0  0  0  0  0
    8.2677   10.1684    0.0000 C   0  0  0  0  0  0  0  0  0  0  0  0
    9.1698   10.6893    0.0000 C   0  0  0  0  0  0  0  0  0  0  0  0
   10.9178    2.6200    0.0000 C   0  0  0  0  0  0  0  0  0  0  0  0
   10.0518    2.1200    0.0000 C   0  0  0  0  0  0  0  0  0  0  0  0
   11.7838    2.1200    0.0000 C   0  0  0  0  0  0  0  0  0  0  0  0
   10.0518    1.1200    0.0000 C   0  0  0  0  0  0  0  0  0  0  0  0
   11.7838    1.1200    0.0000 C   0  0  0  0  0  0  0  0  0  0  0  0
   10.9178    0.6200    0.0000 C   0  0  0  0  0  0  0  0  0  0  0  0
    3.1350    5.5946    0.0000 C   0  0  0  0  0  0  0  0  0  0  0  0
    2.2690    6.0946    0.0000 C   0  0  0  0  0  0  0  0  0  0  0  0
    4.0010    6.0946    0.0000 C   0  0  0  0  0  0  0  0  0  0  0  0
    1.4030    5.5946    0.0000 C   0  0  0  0  0  0  0  0  0  0  0  0
    8.9737    7.2026    0.0000 H   0  0  0  0  0  0  0  0  0  0  0  0
    8.5752    6.5123    0.0000 H   0  0  0  0  0  0  0  0  0  0  0  0
   11.5284    6.5123    0.0000 H   0  0  0  0  0  0  0  0  0  0  0  0
   11.1299    7.2026    0.0000 H   0  0  0  0  0  0  0  0  0  0  0  0
   11.1299    7.0374    0.0000 H   0  0  0  0  0  0  0  0  0  0  0  0
   11.5284    7.7277    0.0000 H   0  0  0  0  0  0  0  0  0  0  0  0
    8.5752    5.7277    0.0000 H   0  0  0  0  0  0  0  0  0  0  0  0
    8.9737    5.0374    0.0000 H   0  0  0  0  0  0  0  0  0  0  0  0
   11.1299    5.0374    0.0000 H   0  0  0  0  0  0  0  0  0  0  0  0
   11.5284    5.7277    0.0000 H   0  0  0  0  0  0  0  0  0  0  0  0
   11.5284    8.5123    0.0000 H   0  0  0  0  0  0  0  0  0  0  0  0
   11.1299    9.2026    0.0000 H   0  0  0  0  0  0  0  0  0  0  0  0
    9.4412    4.2277    0.0000 H   0  0  0  0  0  0  0  0  0  0  0  0
    9.8397    3.5374    0.0000 H   0  0  0  0  0  0  0  0  0  0  0  0
   11.5284    3.5123    0.0000 H   0  0  0  0  0  0  0  0  0  0  0  0
   11.1299    4.2026    0.0000 H   0  0  0  0  0  0  0  0  0  0  0  0
   10.6083   10.4653    0.0000 H   0  0  0  0  0  0  0  0  0  0  0  0
    7.7296   10.4764    0.0000 H   0  0  0  0  0  0  0  0  0  0  0  0
    9.5148    2.4300    0.0000 H   0  0  0  0  0  0  0  0  0  0  0  0
   12.3208    2.4300    0.0000 H   0  0  0  0  0  0  0  0  0  0  0  0
    9.5148    0.8100    0.0000 H   0  0  0  0  0  0  0  0  0  0  0  0
   12.3208    0.8100    0.0000 H   0  0  0  0  0  0  0  0  0  0  0  0
   10.9178    0.0000    0.0000 H   0  0  0  0  0  0  0  0  0  0  0  0
    3.1350    4.9746    0.0000 H   0  0  0  0  0  0  0  0  0  0  0  0
    2.2690    6.7146    0.0000 H   0  0  0  0  0  0  0  0  0  0  0  0
    5.4040    5.9046    0.0000 H   0  0  0  0  0  0  0  0  0  0  0  0
    0.0000    5.7846    0.0000 H   0  0  0  0  0  0  0  0  0  0  0  0
  1 21  1  0  0  0  0
  2 24  1  0  0  0  0
  3 15  2  0  0  0  0
  4 33  1  0  0  0  0
  4 60  1  0  0  0  0
  5 34  1  0  0  0  0
  5 61  1  0  0  0  0
  6 33  2  0  0  0  0
  7 34  2  0  0  0  0
  8 13  1  0  0  0  0
  8 14  1  0  0  0  0
  8 19  1  0  0  0  0
  9 10  1  0  0  0  0
  9 11  1  0  0  0  0
  9 12  1  0  0  0  0
  9 15  1  0  0  0  0
 10 13  1  0  0  0  0
 10 35  1  0  0  0  0
 10 36  1  0  0  0  0
 11 14  1  0  0  0  0
 11 37  1  0  0  0  0
 11 38  1  0  0  0  0
 12 16  1  0  0  0  0
 12 39  1  0  0  0  0
 12 40  1  0  0  0  0
 13 41  1  0  0  0  0
 13 42  1  0  0  0  0
 14 43  1  0  0  0  0
 14 44  1  0  0  0  0
 15 17  1  0  0  0  0
 16 18  1  0  0  0  0
 16 45  1  0  0  0  0
 16 46  1  0  0  0  0
 17 18  2  0  0  0  0
 17 21  1  0  0  0  0
 18 22  1  0  0  0  0
 19 20  1  0  0  0  0
 19 47  1  0  0  0  0
 19 48  1  0  0  0  0
 20 25  1  0  0  0  0
 20 49  1  0  0  0  0
 20 50  1  0  0  0  0
 21 23  2  0  0  0  0
 22 24  2  0  0  0  0
 22 51  1  0  0  0  0
 23 24  1  0  0  0  0
 23 52  1  0  0  0  0
 25 26  2  0  0  0  0
 25 27  1  0  0  0  0
 26 28  1  0  0  0  0
 26 53  1  0  0  0  0
 27 29  2  0  0  0  0
 27 54  1  0  0  0  0
 28 30  2  0  0  0  0
 28 55  1  0  0  0  0
 29 30  1  0  0  0  0
 29 56  1  0  0  0  0
 30 57  1  0  0  0  0
 31 32  2  0  0  0  0
 31 33  1  0  0  0  0
 31 58  1  0  0  0  0
 32 34  1  0  0  0  0
 32 59  1  0  0  0  0
M  END
> <PUBCHEM_COMPOUND_CID>
44347784

> <PUBCHEM_COMPOUND_CANONICALIZED>
1

> <PUBCHEM_CACTVS_COMPLEXITY>
615

> <PUBCHEM_CACTVS_HBOND_ACCEPTOR>
8

> <PUBCHEM_CACTVS_HBOND_DONOR>
2

> <PUBCHEM_CACTVS_ROTATABLE_BOND>
5

> <PUBCHEM_CACTVS_SUBSKEYS>
AAADceB6OYAAAAAAAAAAAAAAAAAAAAAAAAA8YMEAAAAAAADBQAAAHwAACAAADgTBmAwwCIMAAgCIAqDSCAACAAAkAAAIiAEIAMgIJDKAlRGEMQAggACImYcciMCPgAAAAAAQAACAAAQAACAAAAAAAAAAAA==

> <PUBCHEM_IUPAC_OPENEYE_NAME>
6',8'-difluoro-1-(2-phenylethyl)spiro[piperidine-4,2'-tetralin]-1'-one;fumaric acid

> <PUBCHEM_IUPAC_CAS_NAME>
(E)-2-butenedioic acid;6,8-difluoro-1'-(2-phenylethyl)-1-spiro[3,4-dihydronaphthalene-2,4'-piperidine]one

> <PUBCHEM_IUPAC_NAME_MARKUP>
(<I>E</I>)-but-2-enedioic acid;6,8-difluoro-1&apos;-(2-phenylethyl)spiro[3,4-dihydronaphthalene-2,4&apos;-piperidine]-1-one

> <PUBCHEM_IUPAC_NAME>
(E)-but-2-enedioic acid;6,8-difluoro-1'-(2-phenylethyl)spiro[3,4-dihydronaphthalene-2,4'-piperidine]-1-one

> <PUBCHEM_IUPAC_SYSTEMATIC_NAME>
6,8-bis(fluoranyl)-1'-(2-phenylethyl)spiro[3,4-dihydronaphthalene-2,4'-piperidine]-1-one;(E)-but-2-enedioic acid

> <PUBCHEM_IUPAC_TRADITIONAL_NAME>
6',8'-difluoro-1-phenethyl-spiro[piperidine-4,2'-tetralin]-1'-one;fumaric acid

> <PUBCHEM_IUPAC_INCHI>
InChI=1S/C22H23F2NO.C4H4O4/c23-18-14-17-6-8-22(21(26)20(17)19(24)15-18)9-12-25(13-10-22)11-7-16-4-2-1-3-5-16;5-3(6)1-2-4(7)8/h1-5,14-15H,6-13H2;1-2H,(H,5,6)(H,7,8)/b;2-1+

> <PUBCHEM_IUPAC_INCHIKEY>
CKMRWVXKNQFRGQ-WLHGVMLRSA-N

> <PUBCHEM_EXACT_MASS>
471.18572929

> <PUBCHEM_MOLECULAR_FORMULA>
C26H27F2NO5

> <PUBCHEM_MOLECULAR_WEIGHT>
471.5

> <PUBCHEM_OPENEYE_CAN_SMILES>
C1CC2(CCN(CC2)CCC3=CC=CC=C3)C(=O)C4=C1C=C(C=C4F)F.C(=CC(=O)O)C(=O)O

> <PUBCHEM_OPENEYE_ISO_SMILES>
C1CC2(CCN(CC2)CCC3=CC=CC=C3)C(=O)C4=C1C=C(C=C4F)F.C(=C/C(=O)O)\C(=O)O

> <PUBCHEM_CACTVS_TPSA>
94.9

> <PUBCHEM_MONOISOTOPIC_WEIGHT>
471.18572929

> <PUBCHEM_TOTAL_CHARGE>
0

> <PUBCHEM_HEAVY_ATOM_COUNT>
34

> <PUBCHEM_ATOM_DEF_STEREO_COUNT>
0

> <PUBCHEM_ATOM_UDEF_STEREO_COUNT>
0

> <PUBCHEM_BOND_DEF_STEREO_COUNT>
1

> <PUBCHEM_BOND_UDEF_STEREO_COUNT>
0

> <PUBCHEM_ISOTOPIC_ATOM_COUNT>
0

> <PUBCHEM_COMPONENT_COUNT>
2

> <PUBCHEM_CACTVS_TAUTO_COUNT>
-1

> <PUBCHEM_COORDINATE_TYPE>
1
5
255

> <PUBCHEM_BONDANNOTATIONS>
17  18  8
17  21  8
18  22  8
21  23  8
22  24  8
23  24  8
25  26  8
25  27  8
26  28  8
27  29  8
28  30  8
29  30  8

$$$$
