138691364
  -OEChem-09292322462D

 33 35  0     0  0  0  0  0  0999 V2000
    3.4030    0.9801    0.0000 O   0  0  0  0  0  0  0  0  0  0  0  0
    6.6715    1.5454    0.0000 N   0  0  0  0  0  0  0  0  0  0  0  0
    6.9473   -1.8247    0.0000 N   0  0  0  0  0  0  0  0  0  0  0  0
    8.2112    2.0427    0.0000 N   0  0  0  0  0  0  0  0  0  0  0  0
    2.5369   -0.5199    0.0000 N   0  0  0  0  0  0  0  0  0  0  0  0
    6.9473   -0.2152    0.0000 C   0  0  0  0  0  0  0  0  0  0  0  0
    6.0010   -0.5199    0.0000 C   0  0  0  0  0  0  0  0  0  0  0  0
    7.2579    0.7353    0.0000 C   0  0  0  0  0  0  0  0  0  0  0  0
    6.0010   -1.5199    0.0000 C   0  0  0  0  0  0  0  0  0  0  0  0
    7.5309   -1.0199    0.0000 C   0  0  0  0  0  0  0  0  0  0  0  0
    5.1350   -0.0199    0.0000 C   0  0  0  0  0  0  0  0  0  0  0  0
    5.6715    1.5471    0.0000 C   0  0  0  0  0  0  0  0  0  0  0  0
    5.1350   -2.0199    0.0000 C   0  0  0  0  0  0  0  0  0  0  0  0
    8.2095    1.0427    0.0000 C   0  0  0  0  0  0  0  0  0  0  0  0
    4.2690   -0.5199    0.0000 C   0  0  0  0  0  0  0  0  0  0  0  0
    7.2607    2.3534    0.0000 C   0  0  0  0  0  0  0  0  0  0  0  0
    4.2690   -1.5199    0.0000 C   0  0  0  0  0  0  0  0  0  0  0  0
    5.1730    2.4140    0.0000 C   0  0  0  0  0  0  0  0  0  0  0  0
    3.4030   -0.0199    0.0000 C   0  0  0  0  0  0  0  0  0  0  0  0
    8.1509   -1.0199    0.0000 H   0  0  0  0  0  0  0  0  0  0  0  0
    7.1399   -2.4140    0.0000 H   0  0  0  0  0  0  0  0  0  0  0  0
    5.0886    1.3360    0.0000 H   0  0  0  0  0  0  0  0  0  0  0  0
    5.7781    0.9363    0.0000 H   0  0  0  0  0  0  0  0  0  0  0  0
    5.1350    0.6001    0.0000 H   0  0  0  0  0  0  0  0  0  0  0  0
    5.1350   -2.6399    0.0000 H   0  0  0  0  0  0  0  0  0  0  0  0
    8.7105    0.6774    0.0000 H   0  0  0  0  0  0  0  0  0  0  0  0
    7.0702    2.9433    0.0000 H   0  0  0  0  0  0  0  0  0  0  0  0
    3.7320   -1.8299    0.0000 H   0  0  0  0  0  0  0  0  0  0  0  0
    5.7105    2.7231    0.0000 H   0  0  0  0  0  0  0  0  0  0  0  0
    4.8640    2.9514    0.0000 H   0  0  0  0  0  0  0  0  0  0  0  0
    4.6356    2.1049    0.0000 H   0  0  0  0  0  0  0  0  0  0  0  0
    2.0000   -0.2099    0.0000 H   0  0  0  0  0  0  0  0  0  0  0  0
    2.5369   -1.1399    0.0000 H   0  0  0  0  0  0  0  0  0  0  0  0
  1 19  2  0  0  0  0
  2  8  1  0  0  0  0
  2 12  1  0  0  0  0
  2 16  1  0  0  0  0
  3  9  1  0  0  0  0
  3 10  1  0  0  0  0
  3 21  1  0  0  0  0
  4 14  1  0  0  0  0
  4 16  2  0  0  0  0
  5 19  1  0  0  0  0
  5 32  1  0  0  0  0
  5 33  1  0  0  0  0
  6  7  1  0  0  0  0
  6  8  1  0  0  0  0
  6 10  2  0  0  0  0
  7  9  2  0  0  0  0
  7 11  1  0  0  0  0
  8 14  2  0  0  0  0
  9 13  1  0  0  0  0
 10 20  1  0  0  0  0
 11 15  2  0  0  0  0
 11 24  1  0  0  0  0
 12 18  1  0  0  0  0
 12 22  1  0  0  0  0
 12 23  1  0  0  0  0
 13 17  2  0  0  0  0
 13 25  1  0  0  0  0
 14 26  1  0  0  0  0
 15 17  1  0  0  0  0
 15 19  1  0  0  0  0
 16 27  1  0  0  0  0
 17 28  1  0  0  0  0
 18 29  1  0  0  0  0
 18 30  1  0  0  0  0
 18 31  1  0  0  0  0
M  END
> <PUBCHEM_COMPOUND_CID>
138691364

> <PUBCHEM_COMPOUND_CANONICALIZED>
1

> <PUBCHEM_CACTVS_COMPLEXITY>
348

> <PUBCHEM_CACTVS_HBOND_ACCEPTOR>
2

> <PUBCHEM_CACTVS_HBOND_DONOR>
2

> <PUBCHEM_CACTVS_ROTATABLE_BOND>
3

> <PUBCHEM_CACTVS_SUBSKEYS>
AAADccBzoAAAAAAAAAAAAAAAAAAAAWLAAAAwAAAAAAAAAFgB/AAAHgAQAAAADAjBngQ/0PfNkACoAzV3dACCgC01EqAJ2aE4dNiIaPLA3ZGUIQhokALIyacYicCeiAACAAACAAAQAAQAAAQAAAAAAAAAAA==

> <PUBCHEM_IUPAC_OPENEYE_NAME>
3-(3-ethylimidazol-4-yl)-1H-indole-5-carboxamide

> <PUBCHEM_IUPAC_CAS_NAME>
3-(3-ethyl-4-imidazolyl)-1H-indole-5-carboxamide

> <PUBCHEM_IUPAC_NAME_MARKUP>
3-(3-ethylimidazol-4-yl)-1<I>H</I>-indole-5-carboxamide

> <PUBCHEM_IUPAC_NAME>
3-(3-ethylimidazol-4-yl)-1H-indole-5-carboxamide

> <PUBCHEM_IUPAC_SYSTEMATIC_NAME>
3-(3-ethylimidazol-4-yl)-1H-indole-5-carboxamide

> <PUBCHEM_IUPAC_TRADITIONAL_NAME>
3-(3-ethylimidazol-4-yl)-1H-indole-5-carboxamide

> <PUBCHEM_IUPAC_INCHI>
InChI=1S/C14H14N4O/c1-2-18-8-16-7-13(18)11-6-17-12-4-3-9(14(15)19)5-10(11)12/h3-8,17H,2H2,1H3,(H2,15,19)

> <PUBCHEM_IUPAC_INCHIKEY>
RXDHCCKYQJNUFV-UHFFFAOYSA-N

> <PUBCHEM_XLOGP3_AA>
1

> <PUBCHEM_EXACT_MASS>
254.11676108

> <PUBCHEM_MOLECULAR_FORMULA>
C14H14N4O

> <PUBCHEM_MOLECULAR_WEIGHT>
254.29

> <PUBCHEM_OPENEYE_CAN_SMILES>
CCN1C=NC=C1C2=CNC3=C2C=C(C=C3)C(=O)N

> <PUBCHEM_OPENEYE_ISO_SMILES>
CCN1C=NC=C1C2=CNC3=C2C=C(C=C3)C(=O)N

> <PUBCHEM_CACTVS_TPSA>
76.7

> <PUBCHEM_MONOISOTOPIC_WEIGHT>
254.11676108

> <PUBCHEM_TOTAL_CHARGE>
0

> <PUBCHEM_HEAVY_ATOM_COUNT>
19

> <PUBCHEM_ATOM_DEF_STEREO_COUNT>
0

> <PUBCHEM_ATOM_UDEF_STEREO_COUNT>
0

> <PUBCHEM_BOND_DEF_STEREO_COUNT>
0

> <PUBCHEM_BOND_UDEF_STEREO_COUNT>
0

> <PUBCHEM_ISOTOPIC_ATOM_COUNT>
0

> <PUBCHEM_COMPONENT_COUNT>
1

> <PUBCHEM_CACTVS_TAUTO_COUNT>
-1

> <PUBCHEM_COORDINATE_TYPE>
1
5
255

> <PUBCHEM_BONDANNOTATIONS>
11  15  8
13  17  8
15  17  8
2  16  8
2  8  8
3  10  8
3  9  8
4  14  8
4  16  8
6  10  8
6  7  8
7  11  8
7  9  8
8  14  8
9  13  8

$$$$
