11784937
  -OEChem-09292322362D

 56 60  0     1  0  0  0  0  0999 V2000
    6.8867   -3.2115    0.0000 S   0  0  0  0  0  0  0  0  0  0  0  0
   13.1576    0.0205    0.0000 F   0  0  0  0  0  0  0  0  0  0  0  0
   11.4255    4.0205    0.0000 F   0  0  0  0  0  0  0  0  0  0  0  0
   12.4255    3.0205    0.0000 F   0  0  0  0  0  0  0  0  0  0  0  0
   10.4255    3.0205    0.0000 F   0  0  0  0  0  0  0  0  0  0  0  0
    2.5878   -2.4328    0.0000 O   0  0  0  0  0  0  0  0  0  0  0  0
    9.8867   -1.4795    0.0000 N   0  0  3  0  0  0  0  0  0  0  0  0
    5.2989   -2.4025    0.0000 N   0  0  0  0  0  0  0  0  0  0  0  0
    5.2989   -4.0205    0.0000 N   0  0  0  0  0  0  0  0  0  0  0  0
    4.3479   -3.7115    0.0000 N   0  0  0  0  0  0  0  0  0  0  0  0
    2.5878   -0.8147    0.0000 N   0  0  0  0  0  0  0  0  0  0  0  0
   11.4255   -0.9795    0.0000 C   0  0  2  0  0  0  0  0  0  0  0  0
   11.4255   -1.9795    0.0000 C   0  0  1  0  0  0  0  0  0  0  0  0
   12.2921   -1.4795    0.0000 C   0  0  0  0  0  0  0  0  0  0  0  0
   10.4745   -0.6704    0.0000 C   0  0  0  0  0  0  0  0  0  0  0  0
   10.4745   -2.2885    0.0000 C   0  0  0  0  0  0  0  0  0  0  0  0
   11.4255    0.0205    0.0000 C   0  0  0  0  0  0  0  0  0  0  0  0
    8.8867   -1.4795    0.0000 C   0  0  0  0  0  0  0  0  0  0  0  0
   12.2916    0.5205    0.0000 C   0  0  0  0  0  0  0  0  0  0  0  0
   10.5595    0.5205    0.0000 C   0  0  0  0  0  0  0  0  0  0  0  0
    8.3867   -2.3455    0.0000 C   0  0  0  0  0  0  0  0  0  0  0  0
   12.2916    1.5205    0.0000 C   0  0  0  0  0  0  0  0  0  0  0  0
   10.5595    1.5205    0.0000 C   0  0  0  0  0  0  0  0  0  0  0  0
   11.4255    2.0205    0.0000 C   0  0  0  0  0  0  0  0  0  0  0  0
    7.3867   -2.3455    0.0000 C   0  0  0  0  0  0  0  0  0  0  0  0
   11.4255    3.0205    0.0000 C   0  0  0  0  0  0  0  0  0  0  0  0
    5.8867   -3.2115    0.0000 C   0  0  0  0  0  0  0  0  0  0  0  0
    4.3479   -2.7115    0.0000 C   0  0  0  0  0  0  0  0  0  0  0  0
    5.6079   -1.4514    0.0000 C   0  0  0  0  0  0  0  0  0  0  0  0
    3.5388   -2.1237    0.0000 C   0  0  0  0  0  0  0  0  0  0  0  0
    3.5388   -1.1237    0.0000 C   0  0  0  0  0  0  0  0  0  0  0  0
    4.3479   -0.5359    0.0000 C   0  0  0  0  0  0  0  0  0  0  0  0
    2.0000   -1.6237    0.0000 C   0  0  0  0  0  0  0  0  0  0  0  0
   11.7712   -2.7560    0.0000 H   0  0  0  0  0  0  0  0  0  0  0  0
   12.6906   -1.9544    0.0000 H   0  0  0  0  0  0  0  0  0  0  0  0
   12.6906   -1.0045    0.0000 H   0  0  0  0  0  0  0  0  0  0  0  0
   10.7267   -0.1041    0.0000 H   0  0  0  0  0  0  0  0  0  0  0  0
    9.9376   -0.3604    0.0000 H   0  0  0  0  0  0  0  0  0  0  0  0
    9.9376   -2.5985    0.0000 H   0  0  0  0  0  0  0  0  0  0  0  0
   10.7267   -2.8549    0.0000 H   0  0  0  0  0  0  0  0  0  0  0  0
    8.9944   -0.8689    0.0000 H   0  0  0  0  0  0  0  0  0  0  0  0
    8.3041   -1.2674    0.0000 H   0  0  0  0  0  0  0  0  0  0  0  0
   10.0226    0.2105    0.0000 H   0  0  0  0  0  0  0  0  0  0  0  0
    8.2790   -2.9561    0.0000 H   0  0  0  0  0  0  0  0  0  0  0  0
    8.9693   -2.5575    0.0000 H   0  0  0  0  0  0  0  0  0  0  0  0
   12.8285    1.8305    0.0000 H   0  0  0  0  0  0  0  0  0  0  0  0
   10.0226    1.8305    0.0000 H   0  0  0  0  0  0  0  0  0  0  0  0
    7.4944   -1.7349    0.0000 H   0  0  0  0  0  0  0  0  0  0  0  0
    6.8041   -2.1334    0.0000 H   0  0  0  0  0  0  0  0  0  0  0  0
    6.1976   -1.6430    0.0000 H   0  0  0  0  0  0  0  0  0  0  0  0
    5.7995   -0.8618    0.0000 H   0  0  0  0  0  0  0  0  0  0  0  0
    5.0183   -1.2598    0.0000 H   0  0  0  0  0  0  0  0  0  0  0  0
    4.7123   -1.0375    0.0000 H   0  0  0  0  0  0  0  0  0  0  0  0
    4.8494   -0.1715    0.0000 H   0  0  0  0  0  0  0  0  0  0  0  0
    3.9834   -0.0344    0.0000 H   0  0  0  0  0  0  0  0  0  0  0  0
    1.3800   -1.6237    0.0000 H   0  0  0  0  0  0  0  0  0  0  0  0
  1 25  1  0  0  0  0
  1 27  1  0  0  0  0
  2 19  1  0  0  0  0
  3 26  1  0  0  0  0
  4 26  1  0  0  0  0
  5 26  1  0  0  0  0
  6 30  1  0  0  0  0
  6 33  1  0  0  0  0
  7 15  1  0  0  0  0
  7 16  1  0  0  0  0
  7 18  1  0  0  0  0
  8 27  1  0  0  0  0
  8 28  1  0  0  0  0
  8 29  1  0  0  0  0
  9 10  1  0  0  0  0
  9 27  2  0  0  0  0
 10 28  2  0  0  0  0
 11 31  1  0  0  0  0
 11 33  2  0  0  0  0
 12 13  1  0  0  0  0
 12 14  1  0  0  0  0
 12 15  1  0  0  0  0
 12 17  1  6  0  0  0
 13 14  1  0  0  0  0
 13 16  1  0  0  0  0
 13 34  1  6  0  0  0
 14 35  1  0  0  0  0
 14 36  1  0  0  0  0
 15 37  1  0  0  0  0
 15 38  1  0  0  0  0
 16 39  1  0  0  0  0
 16 40  1  0  0  0  0
 17 19  2  0  0  0  0
 17 20  1  0  0  0  0
 18 21  1  0  0  0  0
 18 41  1  0  0  0  0
 18 42  1  0  0  0  0
 19 22  1  0  0  0  0
 20 23  2  0  0  0  0
 20 43  1  0  0  0  0
 21 25  1  0  0  0  0
 21 44  1  0  0  0  0
 21 45  1  0  0  0  0
 22 24  2  0  0  0  0
 22 46  1  0  0  0  0
 23 24  1  0  0  0  0
 23 47  1  0  0  0  0
 24 26  1  0  0  0  0
 25 48  1  0  0  0  0
 25 49  1  0  0  0  0
 28 30  1  0  0  0  0
 29 50  1  0  0  0  0
 29 51  1  0  0  0  0
 29 52  1  0  0  0  0
 30 31  2  0  0  0  0
 31 32  1  0  0  0  0
 32 53  1  0  0  0  0
 32 54  1  0  0  0  0
 32 55  1  0  0  0  0
 33 56  1  0  0  0  0
M  END
> <PUBCHEM_COMPOUND_CID>
11784937

> <PUBCHEM_COMPOUND_CANONICALIZED>
1

> <PUBCHEM_CACTVS_COMPLEXITY>
704

> <PUBCHEM_CACTVS_HBOND_ACCEPTOR>
10

> <PUBCHEM_CACTVS_HBOND_DONOR>
0

> <PUBCHEM_CACTVS_ROTATABLE_BOND>
7

> <PUBCHEM_CACTVS_SUBSKEYS>
AAADceB7ocBAAAAAAAAAAAAAGAAAAWLFgAA8QAAAAAAAAAAB8AAAHwQIAAAADwzF3x63lJcMFEiqA6Zz9ASS2Ct7YLAd2CG9RJiOKCLk2TGNIChgjALYiAcQgMAPwAAAAAAAAACAAAAAAAAAAAAAAAAAAA==

> <PUBCHEM_IUPAC_OPENEYE_NAME>
5-[5-[3-[(1S,5R)-1-[2-fluoro-4-(trifluoromethyl)phenyl]-3-azabicyclo[3.1.0]hexan-3-yl]propylsulfanyl]-4-methyl-1,2,4-triazol-3-yl]-4-methyl-oxazole

> <PUBCHEM_IUPAC_CAS_NAME>
5-[5-[3-[(1S,5R)-1-[2-fluoro-4-(trifluoromethyl)phenyl]-3-azabicyclo[3.1.0]hexan-3-yl]propylthio]-4-methyl-1,2,4-triazol-3-yl]-4-methyloxazole

> <PUBCHEM_IUPAC_NAME_MARKUP>
5-[5-[3-[(1<I>S</I>,5<I>R</I>)-1-[2-fluoro-4-(trifluoromethyl)phenyl]-3-azabicyclo[3.1.0]hexan-3-yl]propylsulfanyl]-4-methyl-1,2,4-triazol-3-yl]-4-methyl-1,3-oxazole

> <PUBCHEM_IUPAC_NAME>
5-[5-[3-[(1S,5R)-1-[2-fluoro-4-(trifluoromethyl)phenyl]-3-azabicyclo[3.1.0]hexan-3-yl]propylsulfanyl]-4-methyl-1,2,4-triazol-3-yl]-4-methyl-1,3-oxazole

> <PUBCHEM_IUPAC_SYSTEMATIC_NAME>
5-[5-[3-[(1S,5R)-1-[2-fluoranyl-4-(trifluoromethyl)phenyl]-3-azabicyclo[3.1.0]hexan-3-yl]propylsulfanyl]-4-methyl-1,2,4-triazol-3-yl]-4-methyl-1,3-oxazole

> <PUBCHEM_IUPAC_TRADITIONAL_NAME>
5-[5-[3-[(1S,5R)-1-[2-fluoro-4-(trifluoromethyl)phenyl]-3-azabicyclo[3.1.0]hexan-3-yl]propylthio]-4-methyl-1,2,4-triazol-3-yl]-4-methyl-oxazole

> <PUBCHEM_IUPAC_INCHI>
InChI=1S/C22H23F4N5OS/c1-13-18(32-12-27-13)19-28-29-20(30(19)2)33-7-3-6-31-10-15-9-21(15,11-31)16-5-4-14(8-17(16)23)22(24,25)26/h4-5,8,12,15H,3,6-7,9-11H2,1-2H3/t15-,21-/m0/s1

> <PUBCHEM_IUPAC_INCHIKEY>
ZKRWPAYTJMRKLJ-BTYIYWSLSA-N

> <PUBCHEM_XLOGP3_AA>
4.1

> <PUBCHEM_EXACT_MASS>
481.15594420

> <PUBCHEM_MOLECULAR_FORMULA>
C22H23F4N5OS

> <PUBCHEM_MOLECULAR_WEIGHT>
481.5

> <PUBCHEM_OPENEYE_CAN_SMILES>
CC1=C(OC=N1)C2=NN=C(N2C)SCCCN3CC4CC4(C3)C5=C(C=C(C=C5)C(F)(F)F)F

> <PUBCHEM_OPENEYE_ISO_SMILES>
CC1=C(OC=N1)C2=NN=C(N2C)SCCCN3C[C@@H]4C[C@@]4(C3)C5=C(C=C(C=C5)C(F)(F)F)F

> <PUBCHEM_CACTVS_TPSA>
85.3

> <PUBCHEM_MONOISOTOPIC_WEIGHT>
481.15594420

> <PUBCHEM_TOTAL_CHARGE>
0

> <PUBCHEM_HEAVY_ATOM_COUNT>
33

> <PUBCHEM_ATOM_DEF_STEREO_COUNT>
2

> <PUBCHEM_ATOM_UDEF_STEREO_COUNT>
0

> <PUBCHEM_BOND_DEF_STEREO_COUNT>
0

> <PUBCHEM_BOND_UDEF_STEREO_COUNT>
0

> <PUBCHEM_ISOTOPIC_ATOM_COUNT>
0

> <PUBCHEM_COMPONENT_COUNT>
1

> <PUBCHEM_CACTVS_TAUTO_COUNT>
-1

> <PUBCHEM_COORDINATE_TYPE>
1
5
255

> <PUBCHEM_BONDANNOTATIONS>
10  28  8
11  31  8
11  33  8
12  17  6
13  34  6
17  19  8
17  20  8
19  22  8
20  23  8
22  24  8
23  24  8
30  31  8
6  30  8
6  33  8
8  27  8
8  28  8
9  10  8
9  27  8

$$$$
