155562652
  -OEChem-09292322462D

 77 82  0     1  0  0  0  0  0999 V2000
   12.4257   -5.7763    0.0000 O   0  0  0  0  0  0  0  0  0  0  0  0
    6.3981    2.6392    0.0000 O   0  0  0  0  0  0  0  0  0  0  0  0
    4.6660   -0.3608    0.0000 O   0  0  0  0  0  0  0  0  0  0  0  0
    4.6660    6.6392    0.0000 O   0  0  0  0  0  0  0  0  0  0  0  0
    8.1301   -2.3608    0.0000 N   0  0  3  0  0  0  0  0  0  0  0  0
    8.4962   -6.3906    0.0000 N   0  0  0  0  0  0  0  0  0  0  0  0
    5.5321    1.1392    0.0000 N   0  0  0  0  0  0  0  0  0  0  0  0
    3.8000    1.1392    0.0000 N   0  0  0  0  0  0  0  0  0  0  0  0
    8.9962   -3.8608    0.0000 C   0  0  3  0  0  0  0  0  0  0  0  0
    8.1301   -3.3608    0.0000 C   0  0  0  0  0  0  0  0  0  0  0  0
    9.8622   -3.3608    0.0000 C   0  0  0  0  0  0  0  0  0  0  0  0
    9.8622   -2.3608    0.0000 C   0  0  0  0  0  0  0  0  0  0  0  0
    8.9962   -1.8608    0.0000 C   0  0  0  0  0  0  0  0  0  0  0  0
    8.9962   -4.8608    0.0000 C   0  0  0  0  0  0  0  0  0  0  0  0
    7.2641   -1.8608    0.0000 C   0  0  0  0  0  0  0  0  0  0  0  0
    7.2641   -0.8608    0.0000 C   0  0  0  0  0  0  0  0  0  0  0  0
    9.8009   -5.4444    0.0000 C   0  0  0  0  0  0  0  0  0  0  0  0
    8.1914   -5.4444    0.0000 C   0  0  0  0  0  0  0  0  0  0  0  0
    6.3981   -0.3608    0.0000 C   0  0  0  0  0  0  0  0  0  0  0  0
    9.4902   -6.3949    0.0000 C   0  0  0  0  0  0  0  0  0  0  0  0
    6.3981    0.6392    0.0000 C   0  0  0  0  0  0  0  0  0  0  0  0
   10.7794   -5.2382    0.0000 C   0  0  0  0  0  0  0  0  0  0  0  0
   10.1581   -7.1392    0.0000 C   0  0  0  0  0  0  0  0  0  0  0  0
   11.4472   -5.9825    0.0000 C   0  0  0  0  0  0  0  0  0  0  0  0
   11.1366   -6.9330    0.0000 C   0  0  0  0  0  0  0  0  0  0  0  0
    5.5321    2.1392    0.0000 C   0  0  0  0  0  0  0  0  0  0  0  0
    4.6660    0.6392    0.0000 C   0  0  0  0  0  0  0  0  0  0  0  0
    4.6660    2.6392    0.0000 C   0  0  0  0  0  0  0  0  0  0  0  0
    3.8000    2.1392    0.0000 C   0  0  0  0  0  0  0  0  0  0  0  0
    4.6660    3.6392    0.0000 C   0  0  0  0  0  0  0  0  0  0  0  0
    2.9061    0.6046    0.0000 C   0  0  0  0  0  0  0  0  0  0  0  0
    2.9061    2.6739    0.0000 C   0  0  0  0  0  0  0  0  0  0  0  0
   13.0936   -6.5206    0.0000 C   0  0  0  0  0  0  0  0  0  0  0  0
    2.0000    1.1184    0.0000 C   0  0  0  0  0  0  0  0  0  0  0  0
    2.0000    2.1600    0.0000 C   0  0  0  0  0  0  0  0  0  0  0  0
    3.8000    4.1392    0.0000 C   0  0  0  0  0  0  0  0  0  0  0  0
    5.5321    4.1392    0.0000 C   0  0  0  0  0  0  0  0  0  0  0  0
    3.8000    5.1392    0.0000 C   0  0  0  0  0  0  0  0  0  0  0  0
    5.5321    5.1392    0.0000 C   0  0  0  0  0  0  0  0  0  0  0  0
    4.6660    5.6392    0.0000 C   0  0  0  0  0  0  0  0  0  0  0  0
    5.5321    7.1392    0.0000 C   0  0  0  0  0  0  0  0  0  0  0  0
    9.5331   -4.1708    0.0000 H   0  0  0  0  0  0  0  0  0  0  0  0
    7.5196   -3.2531    0.0000 H   0  0  0  0  0  0  0  0  0  0  0  0
    7.9181   -3.9434    0.0000 H   0  0  0  0  0  0  0  0  0  0  0  0
   10.0742   -3.9434    0.0000 H   0  0  0  0  0  0  0  0  0  0  0  0
   10.4728   -3.2531    0.0000 H   0  0  0  0  0  0  0  0  0  0  0  0
   10.4728   -2.4684    0.0000 H   0  0  0  0  0  0  0  0  0  0  0  0
   10.0742   -1.7782    0.0000 H   0  0  0  0  0  0  0  0  0  0  0  0
    9.3947   -1.3858    0.0000 H   0  0  0  0  0  0  0  0  0  0  0  0
    8.5976   -1.3858    0.0000 H   0  0  0  0  0  0  0  0  0  0  0  0
    6.6535   -1.7531    0.0000 H   0  0  0  0  0  0  0  0  0  0  0  0
    7.0521   -2.4434    0.0000 H   0  0  0  0  0  0  0  0  0  0  0  0
    7.8747   -0.9684    0.0000 H   0  0  0  0  0  0  0  0  0  0  0  0
    7.4762   -0.2782    0.0000 H   0  0  0  0  0  0  0  0  0  0  0  0
    7.6021   -5.2518    0.0000 H   0  0  0  0  0  0  0  0  0  0  0  0
    5.7875   -0.2531    0.0000 H   0  0  0  0  0  0  0  0  0  0  0  0
    6.1860   -0.9434    0.0000 H   0  0  0  0  0  0  0  0  0  0  0  0
    8.1300   -6.8909    0.0000 H   0  0  0  0  0  0  0  0  0  0  0  0
    7.0087    0.5316    0.0000 H   0  0  0  0  0  0  0  0  0  0  0  0
    6.6101    1.2218    0.0000 H   0  0  0  0  0  0  0  0  0  0  0  0
   10.9720   -4.6489    0.0000 H   0  0  0  0  0  0  0  0  0  0  0  0
    9.9655   -7.7285    0.0000 H   0  0  0  0  0  0  0  0  0  0  0  0
   11.5506   -7.3945    0.0000 H   0  0  0  0  0  0  0  0  0  0  0  0
    2.9132   -0.0154    0.0000 H   0  0  0  0  0  0  0  0  0  0  0  0
    2.9132    3.2938    0.0000 H   0  0  0  0  0  0  0  0  0  0  0  0
   12.6321   -6.9346    0.0000 H   0  0  0  0  0  0  0  0  0  0  0  0
   13.5077   -6.9820    0.0000 H   0  0  0  0  0  0  0  0  0  0  0  0
   13.5551   -6.1065    0.0000 H   0  0  0  0  0  0  0  0  0  0  0  0
    1.4643    0.8063    0.0000 H   0  0  0  0  0  0  0  0  0  0  0  0
    1.4643    2.4721    0.0000 H   0  0  0  0  0  0  0  0  0  0  0  0
    3.2631    3.8292    0.0000 H   0  0  0  0  0  0  0  0  0  0  0  0
    6.0690    3.8292    0.0000 H   0  0  0  0  0  0  0  0  0  0  0  0
    3.2631    5.4492    0.0000 H   0  0  0  0  0  0  0  0  0  0  0  0
    6.0690    5.4492    0.0000 H   0  0  0  0  0  0  0  0  0  0  0  0
    5.8421    6.6023    0.0000 H   0  0  0  0  0  0  0  0  0  0  0  0
    6.0690    7.4492    0.0000 H   0  0  0  0  0  0  0  0  0  0  0  0
    5.2221    7.6762    0.0000 H   0  0  0  0  0  0  0  0  0  0  0  0
  1 24  1  0  0  0  0
  1 33  1  0  0  0  0
  2 26  2  0  0  0  0
  3 27  2  0  0  0  0
  4 40  1  0  0  0  0
  4 41  1  0  0  0  0
  5 10  1  0  0  0  0
  5 13  1  0  0  0  0
  5 15  1  0  0  0  0
  6 18  1  0  0  0  0
  6 20  1  0  0  0  0
  6 58  1  0  0  0  0
  7 21  1  0  0  0  0
  7 26  1  0  0  0  0
  7 27  1  0  0  0  0
  8 27  1  0  0  0  0
  8 29  1  0  0  0  0
  8 31  1  0  0  0  0
  9 10  1  0  0  0  0
  9 11  1  0  0  0  0
  9 14  1  0  0  0  0
  9 42  1  0  0  0  0
 10 43  1  0  0  0  0
 10 44  1  0  0  0  0
 11 12  1  0  0  0  0
 11 45  1  0  0  0  0
 11 46  1  0  0  0  0
 12 13  1  0  0  0  0
 12 47  1  0  0  0  0
 12 48  1  0  0  0  0
 13 49  1  0  0  0  0
 13 50  1  0  0  0  0
 14 17  1  0  0  0  0
 14 18  2  0  0  0  0
 15 16  1  0  0  0  0
 15 51  1  0  0  0  0
 15 52  1  0  0  0  0
 16 19  1  0  0  0  0
 16 53  1  0  0  0  0
 16 54  1  0  0  0  0
 17 20  2  0  0  0  0
 17 22  1  0  0  0  0
 18 55  1  0  0  0  0
 19 21  1  0  0  0  0
 19 56  1  0  0  0  0
 19 57  1  0  0  0  0
 20 23  1  0  0  0  0
 21 59  1  0  0  0  0
 21 60  1  0  0  0  0
 22 24  2  0  0  0  0
 22 61  1  0  0  0  0
 23 25  2  0  0  0  0
 23 62  1  0  0  0  0
 24 25  1  0  0  0  0
 25 63  1  0  0  0  0
 26 28  1  0  0  0  0
 28 29  2  0  0  0  0
 28 30  1  0  0  0  0
 29 32  1  0  0  0  0
 30 36  2  0  0  0  0
 30 37  1  0  0  0  0
 31 34  2  0  0  0  0
 31 64  1  0  0  0  0
 32 35  2  0  0  0  0
 32 65  1  0  0  0  0
 33 66  1  0  0  0  0
 33 67  1  0  0  0  0
 33 68  1  0  0  0  0
 34 35  1  0  0  0  0
 34 69  1  0  0  0  0
 35 70  1  0  0  0  0
 36 38  1  0  0  0  0
 36 71  1  0  0  0  0
 37 39  2  0  0  0  0
 37 72  1  0  0  0  0
 38 40  2  0  0  0  0
 38 73  1  0  0  0  0
 39 40  1  0  0  0  0
 39 74  1  0  0  0  0
 41 75  1  0  0  0  0
 41 76  1  0  0  0  0
 41 77  1  0  0  0  0
M  END
> <PUBCHEM_COMPOUND_CID>
155562652

> <PUBCHEM_COMPOUND_CANONICALIZED>
1

> <PUBCHEM_CACTVS_COMPLEXITY>
1050

> <PUBCHEM_CACTVS_HBOND_ACCEPTOR>
5

> <PUBCHEM_CACTVS_HBOND_DONOR>
1

> <PUBCHEM_CACTVS_ROTATABLE_BOND>
9

> <PUBCHEM_CACTVS_SUBSKEYS>
AAADcfB/uAAAAAAAAAAAAAAAAAAAAWAAAAA8YIECAAAAAFiB9AAAHgAQAAAADQzBngY/xvPJlACoAzV3VACCiCAxIiAI2aE+bNiMJvLEtZuEMChs1zPI6Ue42PKOoEABAAACAABAgAIAAAQAAAAAAAAAAA==

> <PUBCHEM_IUPAC_OPENEYE_NAME>
2-[4-[3-(5-methoxy-1H-indol-3-yl)-1-piperidyl]butyl]-4-(4-methoxyphenyl)pyrido[1,2-c]pyrimidine-1,3-dione

> <PUBCHEM_IUPAC_CAS_NAME>
2-[4-[3-(5-methoxy-1H-indol-3-yl)-1-piperidinyl]butyl]-4-(4-methoxyphenyl)pyrido[1,2-c]pyrimidine-1,3-dione

> <PUBCHEM_IUPAC_NAME_MARKUP>
2-[4-[3-(5-methoxy-1<I>H</I>-indol-3-yl)piperidin-1-yl]butyl]-4-(4-methoxyphenyl)pyrido[1,2-c]pyrimidine-1,3-dione

> <PUBCHEM_IUPAC_NAME>
2-[4-[3-(5-methoxy-1H-indol-3-yl)piperidin-1-yl]butyl]-4-(4-methoxyphenyl)pyrido[1,2-c]pyrimidine-1,3-dione

> <PUBCHEM_IUPAC_SYSTEMATIC_NAME>
2-[4-[3-(5-methoxy-1H-indol-3-yl)piperidin-1-yl]butyl]-4-(4-methoxyphenyl)pyrido[1,2-c]pyrimidine-1,3-dione

> <PUBCHEM_IUPAC_TRADITIONAL_NAME>
2-[4-[3-(5-methoxy-1H-indol-3-yl)piperidino]butyl]-4-(4-methoxyphenyl)pyrido[1,2-c]pyrimidine-1,3-quinone

> <PUBCHEM_IUPAC_INCHI>
InChI=1S/C33H36N4O4/c1-40-25-12-10-23(11-13-25)31-30-9-3-4-18-36(30)33(39)37(32(31)38)19-6-5-16-35-17-7-8-24(22-35)28-21-34-29-15-14-26(41-2)20-27(28)29/h3-4,9-15,18,20-21,24,34H,5-8,16-17,19,22H2,1-2H3

> <PUBCHEM_IUPAC_INCHIKEY>
SGASECCAALLGOF-UHFFFAOYSA-N

> <PUBCHEM_XLOGP3_AA>
5

> <PUBCHEM_EXACT_MASS>
552.27365564

> <PUBCHEM_MOLECULAR_FORMULA>
C33H36N4O4

> <PUBCHEM_MOLECULAR_WEIGHT>
552.7

> <PUBCHEM_OPENEYE_CAN_SMILES>
COC1=CC=C(C=C1)C2=C3C=CC=CN3C(=O)N(C2=O)CCCCN4CCCC(C4)C5=CNC6=C5C=C(C=C6)OC

> <PUBCHEM_OPENEYE_ISO_SMILES>
COC1=CC=C(C=C1)C2=C3C=CC=CN3C(=O)N(C2=O)CCCCN4CCCC(C4)C5=CNC6=C5C=C(C=C6)OC

> <PUBCHEM_CACTVS_TPSA>
78.1

> <PUBCHEM_MONOISOTOPIC_WEIGHT>
552.27365564

> <PUBCHEM_TOTAL_CHARGE>
0

> <PUBCHEM_HEAVY_ATOM_COUNT>
41

> <PUBCHEM_ATOM_DEF_STEREO_COUNT>
0

> <PUBCHEM_ATOM_UDEF_STEREO_COUNT>
1

> <PUBCHEM_BOND_DEF_STEREO_COUNT>
0

> <PUBCHEM_BOND_UDEF_STEREO_COUNT>
0

> <PUBCHEM_ISOTOPIC_ATOM_COUNT>
0

> <PUBCHEM_COMPONENT_COUNT>
1

> <PUBCHEM_CACTVS_TAUTO_COUNT>
-1

> <PUBCHEM_COORDINATE_TYPE>
1
5
255

> <PUBCHEM_BONDANNOTATIONS>
14  17  8
14  18  8
17  20  8
17  22  8
20  23  8
22  24  8
23  25  8
24  25  8
26  28  8
28  29  8
29  32  8
30  36  8
30  37  8
31  34  8
32  35  8
34  35  8
36  38  8
37  39  8
38  40  8
39  40  8
6  18  8
6  20  8
7  26  8
7  27  8
8  27  8
8  29  8
8  31  8
9  14  3

$$$$
