44350714
  -OEChem-09292322112D

 77 79  0     1  0  0  0  0  0999 V2000
    1.4030    3.6200    0.0000 O   0  0  0  0  0  0  0  0  0  0  0  0
    9.1972    5.1200    0.0000 O   0  0  0  0  0  0  0  0  0  0  0  0
   15.3254    5.6442    0.0000 O   0  0  0  0  0  0  0  0  0  0  0  0
    9.6648    9.2845    0.0000 O   0  0  0  0  0  0  0  0  0  0  0  0
    7.0667    9.7845    0.0000 O   0  0  0  0  0  0  0  0  0  0  0  0
    8.7987   10.7845    0.0000 O   0  0  0  0  0  0  0  0  0  0  0  0
    7.9327    8.2845    0.0000 O   0  0  0  0  0  0  0  0  0  0  0  0
    4.8671    3.6200    0.0000 N   0  0  0  0  0  0  0  0  0  0  0  0
    3.1350    2.6200    0.0000 N   0  0  0  0  0  0  0  0  0  0  0  0
    8.3312    3.6200    0.0000 N   0  0  0  0  0  0  0  0  0  0  0  0
    4.0010    4.1200    0.0000 C   0  0  0  0  0  0  0  0  0  0  0  0
    4.8671    2.6200    0.0000 C   0  0  0  0  0  0  0  0  0  0  0  0
    3.1350    3.6200    0.0000 C   0  0  0  0  0  0  0  0  0  0  0  0
    4.0010    2.1200    0.0000 C   0  0  0  0  0  0  0  0  0  0  0  0
    5.7331    4.1200    0.0000 C   0  0  0  0  0  0  0  0  0  0  0  0
    6.5991    3.6200    0.0000 C   0  0  0  0  0  0  0  0  0  0  0  0
    2.2690    2.1200    0.0000 C   0  0  0  0  0  0  0  0  0  0  0  0
    7.4651    4.1200    0.0000 C   0  0  0  0  0  0  0  0  0  0  0  0
    1.4030    2.6200    0.0000 C   0  0  0  0  0  0  0  0  0  0  0  0
    2.2690    1.1200    0.0000 C   0  0  0  0  0  0  0  0  0  0  0  0
   10.0632    3.6200    0.0000 C   0  0  2  0  0  0  0  0  0  0  0  0
    9.1972    4.1200    0.0000 C   0  0  0  0  0  0  0  0  0  0  0  0
    0.5369    2.1200    0.0000 C   0  0  0  0  0  0  0  0  0  0  0  0
    1.4030    0.6200    0.0000 C   0  0  0  0  0  0  0  0  0  0  0  0
   10.9292    4.1200    0.0000 C   0  0  0  0  0  0  0  0  0  0  0  0
    0.5369    1.1200    0.0000 C   0  0  0  0  0  0  0  0  0  0  0  0
   10.0632    2.6200    0.0000 C   0  0  0  0  0  0  0  0  0  0  0  0
   11.7953    3.6200    0.0000 C   0  0  0  0  0  0  0  0  0  0  0  0
   10.9292    5.1200    0.0000 C   0  0  0  0  0  0  0  0  0  0  0  0
   12.6613    4.1200    0.0000 C   0  0  0  0  0  0  0  0  0  0  0  0
   12.6613    5.1200    0.0000 C   0  0  0  0  0  0  0  0  0  0  0  0
   11.7953    5.6200    0.0000 C   0  0  0  0  0  0  0  0  0  0  0  0
    0.5369    4.1200    0.0000 C   0  0  0  0  0  0  0  0  0  0  0  0
   13.5552    3.5853    0.0000 C   0  0  0  0  0  0  0  0  0  0  0  0
   13.5552    5.6547    0.0000 C   0  0  0  0  0  0  0  0  0  0  0  0
   14.4613    5.1408    0.0000 C   0  0  0  0  0  0  0  0  0  0  0  0
   14.4613    4.0992    0.0000 C   0  0  0  0  0  0  0  0  0  0  0  0
   16.1933    5.1475    0.0000 C   0  0  0  0  0  0  0  0  0  0  0  0
    8.7987    9.7845    0.0000 C   0  0  0  0  0  0  0  0  0  0  0  0
    7.9327    9.2845    0.0000 C   0  0  0  0  0  0  0  0  0  0  0  0
    4.3996    4.5950    0.0000 H   0  0  0  0  0  0  0  0  0  0  0  0
    3.6025    4.5950    0.0000 H   0  0  0  0  0  0  0  0  0  0  0  0
    5.0791    2.0374    0.0000 H   0  0  0  0  0  0  0  0  0  0  0  0
    5.4776    2.7277    0.0000 H   0  0  0  0  0  0  0  0  0  0  0  0
    2.9230    4.2026    0.0000 H   0  0  0  0  0  0  0  0  0  0  0  0
    2.5244    3.5123    0.0000 H   0  0  0  0  0  0  0  0  0  0  0  0
    3.6025    1.6450    0.0000 H   0  0  0  0  0  0  0  0  0  0  0  0
    4.3996    1.6450    0.0000 H   0  0  0  0  0  0  0  0  0  0  0  0
    6.1316    4.5950    0.0000 H   0  0  0  0  0  0  0  0  0  0  0  0
    5.3346    4.5950    0.0000 H   0  0  0  0  0  0  0  0  0  0  0  0
    6.2006    3.1450    0.0000 H   0  0  0  0  0  0  0  0  0  0  0  0
    6.9976    3.1450    0.0000 H   0  0  0  0  0  0  0  0  0  0  0  0
    7.8637    4.5950    0.0000 H   0  0  0  0  0  0  0  0  0  0  0  0
    7.0666    4.5950    0.0000 H   0  0  0  0  0  0  0  0  0  0  0  0
    2.8059    0.8100    0.0000 H   0  0  0  0  0  0  0  0  0  0  0  0
    8.3312    3.0000    0.0000 H   0  0  0  0  0  0  0  0  0  0  0  0
   10.6002    3.3100    0.0000 H   0  0  0  0  0  0  0  0  0  0  0  0
    0.0000    2.4300    0.0000 H   0  0  0  0  0  0  0  0  0  0  0  0
    1.4030    0.0000    0.0000 H   0  0  0  0  0  0  0  0  0  0  0  0
    0.0000    0.8100    0.0000 H   0  0  0  0  0  0  0  0  0  0  0  0
    9.4432    2.6200    0.0000 H   0  0  0  0  0  0  0  0  0  0  0  0
   10.0632    2.0000    0.0000 H   0  0  0  0  0  0  0  0  0  0  0  0
   10.6832    2.6200    0.0000 H   0  0  0  0  0  0  0  0  0  0  0  0
   11.7953    3.0000    0.0000 H   0  0  0  0  0  0  0  0  0  0  0  0
   10.3923    5.4300    0.0000 H   0  0  0  0  0  0  0  0  0  0  0  0
   11.7953    6.2400    0.0000 H   0  0  0  0  0  0  0  0  0  0  0  0
    0.8469    4.6569    0.0000 H   0  0  0  0  0  0  0  0  0  0  0  0
    0.0000    4.4300    0.0000 H   0  0  0  0  0  0  0  0  0  0  0  0
    0.2269    3.5831    0.0000 H   0  0  0  0  0  0  0  0  0  0  0  0
   13.5481    2.9654    0.0000 H   0  0  0  0  0  0  0  0  0  0  0  0
   13.5481    6.2746    0.0000 H   0  0  0  0  0  0  0  0  0  0  0  0
   14.9970    3.7871    0.0000 H   0  0  0  0  0  0  0  0  0  0  0  0
   15.8854    4.6094    0.0000 H   0  0  0  0  0  0  0  0  0  0  0  0
   16.7315    4.8396    0.0000 H   0  0  0  0  0  0  0  0  0  0  0  0
   16.5013    5.6856    0.0000 H   0  0  0  0  0  0  0  0  0  0  0  0
   10.2017    9.5945    0.0000 H   0  0  0  0  0  0  0  0  0  0  0  0
    6.5298    9.4745    0.0000 H   0  0  0  0  0  0  0  0  0  0  0  0
  1 19  1  0  0  0  0
  1 33  1  0  0  0  0
  2 22  2  0  0  0  0
  3 36  1  0  0  0  0
  3 38  1  0  0  0  0
  4 39  1  0  0  0  0
  4 76  1  0  0  0  0
  5 40  1  0  0  0  0
  5 77  1  0  0  0  0
  6 39  2  0  0  0  0
  7 40  2  0  0  0  0
  8 11  1  0  0  0  0
  8 12  1  0  0  0  0
  8 15  1  0  0  0  0
  9 13  1  0  0  0  0
  9 14  1  0  0  0  0
  9 17  1  0  0  0  0
 10 18  1  0  0  0  0
 10 22  1  0  0  0  0
 10 56  1  0  0  0  0
 11 13  1  0  0  0  0
 11 41  1  0  0  0  0
 11 42  1  0  0  0  0
 12 14  1  0  0  0  0
 12 43  1  0  0  0  0
 12 44  1  0  0  0  0
 13 45  1  0  0  0  0
 13 46  1  0  0  0  0
 14 47  1  0  0  0  0
 14 48  1  0  0  0  0
 15 16  1  0  0  0  0
 15 49  1  0  0  0  0
 15 50  1  0  0  0  0
 16 18  1  0  0  0  0
 16 51  1  0  0  0  0
 16 52  1  0  0  0  0
 17 19  1  0  0  0  0
 17 20  2  0  0  0  0
 18 53  1  0  0  0  0
 18 54  1  0  0  0  0
 19 23  2  0  0  0  0
 20 24  1  0  0  0  0
 20 55  1  0  0  0  0
 21 22  1  0  0  0  0
 21 25  1  0  0  0  0
 21 27  1  6  0  0  0
 21 57  1  0  0  0  0
 23 26  1  0  0  0  0
 23 58  1  0  0  0  0
 24 26  2  0  0  0  0
 24 59  1  0  0  0  0
 25 28  2  0  0  0  0
 25 29  1  0  0  0  0
 26 60  1  0  0  0  0
 27 61  1  0  0  0  0
 27 62  1  0  0  0  0
 27 63  1  0  0  0  0
 28 30  1  0  0  0  0
 28 64  1  0  0  0  0
 29 32  2  0  0  0  0
 29 65  1  0  0  0  0
 30 31  2  0  0  0  0
 30 34  1  0  0  0  0
 31 32  1  0  0  0  0
 31 35  1  0  0  0  0
 32 66  1  0  0  0  0
 33 67  1  0  0  0  0
 33 68  1  0  0  0  0
 33 69  1  0  0  0  0
 34 37  2  0  0  0  0
 34 70  1  0  0  0  0
 35 36  2  0  0  0  0
 35 71  1  0  0  0  0
 36 37  1  0  0  0  0
 37 72  1  0  0  0  0
 38 73  1  0  0  0  0
 38 74  1  0  0  0  0
 38 75  1  0  0  0  0
 39 40  1  0  0  0  0
M  END
> <PUBCHEM_COMPOUND_CID>
44350714

> <PUBCHEM_COMPOUND_CANONICALIZED>
1

> <PUBCHEM_CACTVS_COMPLEXITY>
696

> <PUBCHEM_CACTVS_HBOND_ACCEPTOR>
9

> <PUBCHEM_CACTVS_HBOND_DONOR>
3

> <PUBCHEM_CACTVS_ROTATABLE_BOND>
10

> <PUBCHEM_CACTVS_SUBSKEYS>
AAADcfB7OAAAAAAAAAAAAAAAAAAAAAAAAAA8YMEAAAAAAADBVAAAHgAQCAAADQzBmAYyzsPABgCIAiXSWAKCCAAhIgAIiIFPbIgPZjLE9ZuVMChk1hHZ6AeYyPCO4AADAAAQEADAAAYAACAgAAAAAAAAAA==

> <PUBCHEM_IUPAC_OPENEYE_NAME>
(2S)-2-(6-methoxy-2-naphthyl)-N-[3-[4-(2-methoxyphenyl)piperazin-1-yl]propyl]propanamide;oxalic acid

> <PUBCHEM_IUPAC_CAS_NAME>
(2S)-2-(6-methoxy-2-naphthalenyl)-N-[3-[4-(2-methoxyphenyl)-1-piperazinyl]propyl]propanamide;oxalic acid

> <PUBCHEM_IUPAC_NAME_MARKUP>
(2<I>S</I>)-2-(6-methoxynaphthalen-2-yl)-<I>N</I>-[3-[4-(2-methoxyphenyl)piperazin-1-yl]propyl]propanamide;oxalic acid

> <PUBCHEM_IUPAC_NAME>
(2S)-2-(6-methoxynaphthalen-2-yl)-N-[3-[4-(2-methoxyphenyl)piperazin-1-yl]propyl]propanamide;oxalic acid

> <PUBCHEM_IUPAC_SYSTEMATIC_NAME>
ethanedioic acid;(2S)-2-(6-methoxynaphthalen-2-yl)-N-[3-[4-(2-methoxyphenyl)piperazin-1-yl]propyl]propanamide

> <PUBCHEM_IUPAC_TRADITIONAL_NAME>
(2S)-2-(6-methoxy-2-naphthyl)-N-[3-[4-(2-methoxyphenyl)piperazino]propyl]propionamide;oxalic acid

> <PUBCHEM_IUPAC_INCHI>
InChI=1S/C28H35N3O3.C2H2O4/c1-21(22-9-10-24-20-25(33-2)12-11-23(24)19-22)28(32)29-13-6-14-30-15-17-31(18-16-30)26-7-4-5-8-27(26)34-3;3-1(4)2(5)6/h4-5,7-12,19-21H,6,13-18H2,1-3H3,(H,29,32);(H,3,4)(H,5,6)/t21-;/m0./s1

> <PUBCHEM_IUPAC_INCHIKEY>
XMTZXXGGLDZXRN-BOXHHOBZSA-N

> <PUBCHEM_EXACT_MASS>
551.26315053

> <PUBCHEM_MOLECULAR_FORMULA>
C30H37N3O7

> <PUBCHEM_MOLECULAR_WEIGHT>
551.6

> <PUBCHEM_OPENEYE_CAN_SMILES>
CC(C1=CC2=C(C=C1)C=C(C=C2)OC)C(=O)NCCCN3CCN(CC3)C4=CC=CC=C4OC.C(=O)(C(=O)O)O

> <PUBCHEM_OPENEYE_ISO_SMILES>
C[C@@H](C1=CC2=C(C=C1)C=C(C=C2)OC)C(=O)NCCCN3CCN(CC3)C4=CC=CC=C4OC.C(=O)(C(=O)O)O

> <PUBCHEM_CACTVS_TPSA>
129

> <PUBCHEM_MONOISOTOPIC_WEIGHT>
551.26315053

> <PUBCHEM_TOTAL_CHARGE>
0

> <PUBCHEM_HEAVY_ATOM_COUNT>
40

> <PUBCHEM_ATOM_DEF_STEREO_COUNT>
1

> <PUBCHEM_ATOM_UDEF_STEREO_COUNT>
0

> <PUBCHEM_BOND_DEF_STEREO_COUNT>
0

> <PUBCHEM_BOND_UDEF_STEREO_COUNT>
0

> <PUBCHEM_ISOTOPIC_ATOM_COUNT>
0

> <PUBCHEM_COMPONENT_COUNT>
2

> <PUBCHEM_CACTVS_TAUTO_COUNT>
-1

> <PUBCHEM_COORDINATE_TYPE>
1
5
255

> <PUBCHEM_BONDANNOTATIONS>
17  19  8
17  20  8
19  23  8
20  24  8
21  27  6
23  26  8
24  26  8
25  28  8
25  29  8
28  30  8
29  32  8
30  31  8
30  34  8
31  32  8
31  35  8
34  37  8
35  36  8
36  37  8

$$$$
