24900812
  -OEChem-09292322042D

 58 61  0     1  0  0  0  0  0999 V2000
   13.3385   -1.5403    0.0000 S   0  0  0  0  0  0  0  0  0  0  0  0
   12.3923    0.1550    0.0000 O   0  0  0  0  0  0  0  0  0  0  0  0
   11.5263   -4.3450    0.0000 O   0  0  0  0  0  0  0  0  0  0  0  0
   14.9221   -2.3450    0.0000 O   0  0  0  0  0  0  0  0  0  0  0  0
   10.6603    1.1550    0.0000 N   0  0  0  0  0  0  0  0  0  0  0  0
   13.3385   -3.1497    0.0000 N   0  0  0  0  0  0  0  0  0  0  0  0
    5.4641    3.1550    0.0000 N   0  0  0  0  0  0  0  0  0  0  0  0
    3.7320    4.1550    0.0000 N   0  0  0  0  0  0  0  0  0  0  0  0
   11.5263   -0.3450    0.0000 C   0  0  1  0  0  0  0  0  0  0  0  0
   10.6603    0.1550    0.0000 C   0  0  0  0  0  0  0  0  0  0  0  0
   11.5263   -1.3450    0.0000 C   0  0  0  0  0  0  0  0  0  0  0  0
    9.7942    1.6550    0.0000 C   0  0  0  0  0  0  0  0  0  0  0  0
    9.7942    2.6550    0.0000 C   0  0  0  0  0  0  0  0  0  0  0  0
   12.3923   -1.8450    0.0000 C   0  0  0  0  0  0  0  0  0  0  0  0
    8.9282    3.1550    0.0000 C   0  0  0  0  0  0  0  0  0  0  0  0
   12.3923   -2.8450    0.0000 C   0  0  0  0  0  0  0  0  0  0  0  0
   10.6603   -1.8450    0.0000 C   0  0  0  0  0  0  0  0  0  0  0  0
    8.0622    2.6550    0.0000 C   0  0  0  0  0  0  0  0  0  0  0  0
    7.1962    3.1550    0.0000 C   0  0  0  0  0  0  0  0  0  0  0  0
   11.5263   -3.3450    0.0000 C   0  0  0  0  0  0  0  0  0  0  0  0
   10.6603   -2.8450    0.0000 C   0  0  0  0  0  0  0  0  0  0  0  0
    8.9282    4.1550    0.0000 C   0  0  0  0  0  0  0  0  0  0  0  0
    6.3301    2.6550    0.0000 C   0  0  0  0  0  0  0  0  0  0  0  0
    7.1962    4.1550    0.0000 C   0  0  0  0  0  0  0  0  0  0  0  0
    8.0622    4.6550    0.0000 C   0  0  0  0  0  0  0  0  0  0  0  0
   13.9221   -2.3450    0.0000 C   0  0  0  0  0  0  0  0  0  0  0  0
    4.5981    2.6550    0.0000 C   0  0  0  0  0  0  0  0  0  0  0  0
    3.7320    3.1550    0.0000 C   0  0  0  0  0  0  0  0  0  0  0  0
    2.8660    2.6550    0.0000 C   0  0  0  0  0  0  0  0  0  0  0  0
    2.0000    3.1550    0.0000 C   0  0  0  0  0  0  0  0  0  0  0  0
    2.8660    4.6550    0.0000 C   0  0  0  0  0  0  0  0  0  0  0  0
    2.0000    4.1550    0.0000 C   0  0  0  0  0  0  0  0  0  0  0  0
   12.0632   -0.6550    0.0000 H   0  0  0  0  0  0  0  0  0  0  0  0
   10.0497    0.2627    0.0000 H   0  0  0  0  0  0  0  0  0  0  0  0
   10.4482   -0.4276    0.0000 H   0  0  0  0  0  0  0  0  0  0  0  0
    9.1836    1.7627    0.0000 H   0  0  0  0  0  0  0  0  0  0  0  0
    9.5822    1.0724    0.0000 H   0  0  0  0  0  0  0  0  0  0  0  0
   10.4048    2.5473    0.0000 H   0  0  0  0  0  0  0  0  0  0  0  0
   10.0063    3.2376    0.0000 H   0  0  0  0  0  0  0  0  0  0  0  0
   11.1972    1.4650    0.0000 H   0  0  0  0  0  0  0  0  0  0  0  0
   10.1233   -1.5350    0.0000 H   0  0  0  0  0  0  0  0  0  0  0  0
    8.0622    2.0350    0.0000 H   0  0  0  0  0  0  0  0  0  0  0  0
   10.1233   -3.1550    0.0000 H   0  0  0  0  0  0  0  0  0  0  0  0
    9.4651    4.4650    0.0000 H   0  0  0  0  0  0  0  0  0  0  0  0
    5.9316    2.1800    0.0000 H   0  0  0  0  0  0  0  0  0  0  0  0
    6.7287    2.1800    0.0000 H   0  0  0  0  0  0  0  0  0  0  0  0
   13.5311   -3.7390    0.0000 H   0  0  0  0  0  0  0  0  0  0  0  0
   12.3923    0.7750    0.0000 H   0  0  0  0  0  0  0  0  0  0  0  0
    6.6592    4.4650    0.0000 H   0  0  0  0  0  0  0  0  0  0  0  0
    8.0622    5.2750    0.0000 H   0  0  0  0  0  0  0  0  0  0  0  0
    5.4641    3.7750    0.0000 H   0  0  0  0  0  0  0  0  0  0  0  0
    4.1996    2.1800    0.0000 H   0  0  0  0  0  0  0  0  0  0  0  0
    4.9966    2.1800    0.0000 H   0  0  0  0  0  0  0  0  0  0  0  0
   10.9893   -4.6550    0.0000 H   0  0  0  0  0  0  0  0  0  0  0  0
    2.8660    2.0350    0.0000 H   0  0  0  0  0  0  0  0  0  0  0  0
    1.4631    2.8450    0.0000 H   0  0  0  0  0  0  0  0  0  0  0  0
    2.8660    5.2750    0.0000 H   0  0  0  0  0  0  0  0  0  0  0  0
    1.4631    4.4650    0.0000 H   0  0  0  0  0  0  0  0  0  0  0  0
  1 14  1  0  0  0  0
  1 26  1  0  0  0  0
  9  2  1  6  0  0  0
  2 48  1  0  0  0  0
  3 20  1  0  0  0  0
  3 54  1  0  0  0  0
  4 26  2  0  0  0  0
  5 10  1  0  0  0  0
  5 12  1  0  0  0  0
  5 40  1  0  0  0  0
  6 16  1  0  0  0  0
  6 26  1  0  0  0  0
  6 47  1  0  0  0  0
  7 23  1  0  0  0  0
  7 27  1  0  0  0  0
  7 51  1  0  0  0  0
  8 28  1  0  0  0  0
  8 31  2  0  0  0  0
  9 10  1  0  0  0  0
  9 11  1  0  0  0  0
  9 33  1  0  0  0  0
 10 34  1  0  0  0  0
 10 35  1  0  0  0  0
 11 14  2  0  0  0  0
 11 17  1  0  0  0  0
 12 13  1  0  0  0  0
 12 36  1  0  0  0  0
 12 37  1  0  0  0  0
 13 15  1  0  0  0  0
 13 38  1  0  0  0  0
 13 39  1  0  0  0  0
 14 16  1  0  0  0  0
 15 18  2  0  0  0  0
 15 22  1  0  0  0  0
 16 20  2  0  0  0  0
 17 21  2  0  0  0  0
 17 41  1  0  0  0  0
 18 19  1  0  0  0  0
 18 42  1  0  0  0  0
 19 23  1  0  0  0  0
 19 24  2  0  0  0  0
 20 21  1  0  0  0  0
 21 43  1  0  0  0  0
 22 25  2  0  0  0  0
 22 44  1  0  0  0  0
 23 45  1  0  0  0  0
 23 46  1  0  0  0  0
 24 25  1  0  0  0  0
 24 49  1  0  0  0  0
 25 50  1  0  0  0  0
 27 28  1  0  0  0  0
 27 52  1  0  0  0  0
 27 53  1  0  0  0  0
 28 29  2  0  0  0  0
 29 30  1  0  0  0  0
 29 55  1  0  0  0  0
 30 32  2  0  0  0  0
 30 56  1  0  0  0  0
 31 32  1  0  0  0  0
 31 57  1  0  0  0  0
 32 58  1  0  0  0  0
M  END
> <PUBCHEM_COMPOUND_CID>
24900812

> <PUBCHEM_COMPOUND_CANONICALIZED>
1

> <PUBCHEM_CACTVS_COMPLEXITY>
598

> <PUBCHEM_CACTVS_HBOND_ACCEPTOR>
7

> <PUBCHEM_CACTVS_HBOND_DONOR>
5

> <PUBCHEM_CACTVS_ROTATABLE_BOND>
10

> <PUBCHEM_CACTVS_SUBSKEYS>
AAADceB7sABAAAAAAAAAAAAAAAAAAWAAAAA8YIAAAAAAAFgB0AAAHgQQCAAADBzh3gY8x5LIEgioAzRnVACCgCBxKjAI2LQ/bJgKduLykZOUcAhk1BHY2Aew4OQOIAACRAAEEQBAAASIAAgiAAAAAAAAAA==

> <PUBCHEM_IUPAC_OPENEYE_NAME>
4-hydroxy-7-[(1R)-1-hydroxy-2-[2-[3-[(2-pyridylmethylamino)methyl]phenyl]ethylamino]ethyl]-3H-1,3-benzothiazol-2-one

> <PUBCHEM_IUPAC_CAS_NAME>
4-hydroxy-7-[(1R)-1-hydroxy-2-[2-[3-[(2-pyridinylmethylamino)methyl]phenyl]ethylamino]ethyl]-3H-1,3-benzothiazol-2-one

> <PUBCHEM_IUPAC_NAME_MARKUP>
4-hydroxy-7-[(1<I>R</I>)-1-hydroxy-2-[2-[3-[(pyridin-2-ylmethylamino)methyl]phenyl]ethylamino]ethyl]-3<I>H</I>-1,3-benzothiazol-2-one

> <PUBCHEM_IUPAC_NAME>
4-hydroxy-7-[(1R)-1-hydroxy-2-[2-[3-[(pyridin-2-ylmethylamino)methyl]phenyl]ethylamino]ethyl]-3H-1,3-benzothiazol-2-one

> <PUBCHEM_IUPAC_SYSTEMATIC_NAME>
4-oxidanyl-7-[(1R)-1-oxidanyl-2-[2-[3-[(pyridin-2-ylmethylamino)methyl]phenyl]ethylamino]ethyl]-3H-1,3-benzothiazol-2-one

> <PUBCHEM_IUPAC_TRADITIONAL_NAME>
4-hydroxy-7-[(1R)-1-hydroxy-2-[2-[3-[(2-pyridylmethylamino)methyl]phenyl]ethylamino]ethyl]-3H-1,3-benzothiazol-2-one

> <PUBCHEM_IUPAC_INCHI>
InChI=1S/C24H26N4O3S/c29-20-8-7-19(23-22(20)28-24(31)32-23)21(30)15-25-11-9-16-4-3-5-17(12-16)13-26-14-18-6-1-2-10-27-18/h1-8,10,12,21,25-26,29-30H,9,11,13-15H2,(H,28,31)/t21-/m0/s1

> <PUBCHEM_IUPAC_INCHIKEY>
IGZSZKKVFOSODP-NRFANRHFSA-N

> <PUBCHEM_XLOGP3_AA>
1.8

> <PUBCHEM_EXACT_MASS>
450.17256188

> <PUBCHEM_MOLECULAR_FORMULA>
C24H26N4O3S

> <PUBCHEM_MOLECULAR_WEIGHT>
450.6

> <PUBCHEM_OPENEYE_CAN_SMILES>
C1=CC=NC(=C1)CNCC2=CC=CC(=C2)CCNCC(C3=C4C(=C(C=C3)O)NC(=O)S4)O

> <PUBCHEM_OPENEYE_ISO_SMILES>
C1=CC=NC(=C1)CNCC2=CC=CC(=C2)CCNC[C@@H](C3=C4C(=C(C=C3)O)NC(=O)S4)O

> <PUBCHEM_CACTVS_TPSA>
132

> <PUBCHEM_MONOISOTOPIC_WEIGHT>
450.17256188

> <PUBCHEM_TOTAL_CHARGE>
0

> <PUBCHEM_HEAVY_ATOM_COUNT>
32

> <PUBCHEM_ATOM_DEF_STEREO_COUNT>
1

> <PUBCHEM_ATOM_UDEF_STEREO_COUNT>
0

> <PUBCHEM_BOND_DEF_STEREO_COUNT>
0

> <PUBCHEM_BOND_UDEF_STEREO_COUNT>
0

> <PUBCHEM_ISOTOPIC_ATOM_COUNT>
0

> <PUBCHEM_COMPONENT_COUNT>
1

> <PUBCHEM_CACTVS_TAUTO_COUNT>
-1

> <PUBCHEM_COORDINATE_TYPE>
1
5
255

> <PUBCHEM_BONDANNOTATIONS>
1  14  8
1  26  8
11  14  8
11  17  8
14  16  8
15  18  8
15  22  8
16  20  8
17  21  8
18  19  8
19  24  8
9  2  6
20  21  8
22  25  8
24  25  8
28  29  8
29  30  8
30  32  8
31  32  8
6  16  8
6  26  8
8  28  8
8  31  8

$$$$
