44426404
  -OEChem-09292322242D

 69 74  0     0  0  0  0  0  0999 V2000
   11.6603    1.6900    0.0000 S   0  0  0  0  0  0  0  0  0  0  0  0
    3.8660    0.1900    0.0000 O   0  0  0  0  0  0  0  0  0  0  0  0
   11.1603    0.8240    0.0000 O   0  0  0  0  0  0  0  0  0  0  0  0
   12.1603    2.5560    0.0000 O   0  0  0  0  0  0  0  0  0  0  0  0
   15.2045    1.4947    0.0000 O   0  0  0  0  0  0  0  0  0  0  0  0
   15.2045   -0.1147    0.0000 O   0  0  0  0  0  0  0  0  0  0  0  0
    7.3301    0.1900    0.0000 N   0  0  0  0  0  0  0  0  0  0  0  0
   10.7942    2.1900    0.0000 N   0  0  0  0  0  0  0  0  0  0  0  0
    8.1962    0.6900    0.0000 C   0  0  0  0  0  0  0  0  0  0  0  0
    8.1962    1.6900    0.0000 C   0  0  0  0  0  0  0  0  0  0  0  0
    9.0622    0.1900    0.0000 C   0  0  0  0  0  0  0  0  0  0  0  0
    9.9282    1.6900    0.0000 C   0  0  0  0  0  0  0  0  0  0  0  0
    9.0622    2.1900    0.0000 C   0  0  0  0  0  0  0  0  0  0  0  0
    9.9282    0.6900    0.0000 C   0  0  0  0  0  0  0  0  0  0  0  0
    5.5981   -0.8100    0.0000 C   0  0  0  0  0  0  0  0  0  0  0  0
    6.4641    0.6900    0.0000 C   0  0  0  0  0  0  0  0  0  0  0  0
    7.3301   -0.8100    0.0000 C   0  0  0  0  0  0  0  0  0  0  0  0
    5.5981    0.1900    0.0000 C   0  0  0  0  0  0  0  0  0  0  0  0
    6.4641   -1.3100    0.0000 C   0  0  0  0  0  0  0  0  0  0  0  0
    4.7320   -1.3100    0.0000 C   0  0  0  0  0  0  0  0  0  0  0  0
    3.0000    0.6900    0.0000 C   0  0  0  0  0  0  0  0  0  0  0  0
    2.5000    1.5560    0.0000 C   0  0  0  0  0  0  0  0  0  0  0  0
    2.0000    0.6900    0.0000 C   0  0  0  0  0  0  0  0  0  0  0  0
    3.8660   -0.8100    0.0000 C   0  0  0  0  0  0  0  0  0  0  0  0
    4.7320   -2.3100    0.0000 C   0  0  0  0  0  0  0  0  0  0  0  0
    3.0000   -1.3100    0.0000 C   0  0  0  0  0  0  0  0  0  0  0  0
   12.5263    1.1900    0.0000 C   0  0  0  0  0  0  0  0  0  0  0  0
    3.8660   -2.8100    0.0000 C   0  0  0  0  0  0  0  0  0  0  0  0
    3.0000   -2.3100    0.0000 C   0  0  0  0  0  0  0  0  0  0  0  0
   13.3923    1.6900    0.0000 C   0  0  0  0  0  0  0  0  0  0  0  0
   12.5263    0.1900    0.0000 C   0  0  0  0  0  0  0  0  0  0  0  0
   14.2583    1.1900    0.0000 C   0  0  0  0  0  0  0  0  0  0  0  0
   13.3923   -0.3100    0.0000 C   0  0  0  0  0  0  0  0  0  0  0  0
   14.2583    0.1900    0.0000 C   0  0  0  0  0  0  0  0  0  0  0  0
   15.7882    0.6900    0.0000 C   0  0  0  0  0  0  0  0  0  0  0  0
    7.6592    1.0000    0.0000 H   0  0  0  0  0  0  0  0  0  0  0  0
    7.9841    2.2726    0.0000 H   0  0  0  0  0  0  0  0  0  0  0  0
    7.5856    1.5823    0.0000 H   0  0  0  0  0  0  0  0  0  0  0  0
    8.6636   -0.2849    0.0000 H   0  0  0  0  0  0  0  0  0  0  0  0
    9.4607   -0.2849    0.0000 H   0  0  0  0  0  0  0  0  0  0  0  0
   10.4651    1.3800    0.0000 H   0  0  0  0  0  0  0  0  0  0  0  0
    9.4607    2.6650    0.0000 H   0  0  0  0  0  0  0  0  0  0  0  0
    8.6636    2.6650    0.0000 H   0  0  0  0  0  0  0  0  0  0  0  0
   10.1403    0.1074    0.0000 H   0  0  0  0  0  0  0  0  0  0  0  0
   10.5388    0.7977    0.0000 H   0  0  0  0  0  0  0  0  0  0  0  0
    5.5981   -1.4300    0.0000 H   0  0  0  0  0  0  0  0  0  0  0  0
    6.8626    1.1650    0.0000 H   0  0  0  0  0  0  0  0  0  0  0  0
    6.0656    1.1650    0.0000 H   0  0  0  0  0  0  0  0  0  0  0  0
    7.5422   -1.3926    0.0000 H   0  0  0  0  0  0  0  0  0  0  0  0
    7.9407   -0.7023    0.0000 H   0  0  0  0  0  0  0  0  0  0  0  0
    5.3860    0.7726    0.0000 H   0  0  0  0  0  0  0  0  0  0  0  0
    4.9875    0.0823    0.0000 H   0  0  0  0  0  0  0  0  0  0  0  0
    6.0656   -1.7850    0.0000 H   0  0  0  0  0  0  0  0  0  0  0  0
    6.8626   -1.7850    0.0000 H   0  0  0  0  0  0  0  0  0  0  0  0
   10.7942    2.8100    0.0000 H   0  0  0  0  0  0  0  0  0  0  0  0
    2.8395    0.0911    0.0000 H   0  0  0  0  0  0  0  0  0  0  0  0
    2.9750    1.9546    0.0000 H   0  0  0  0  0  0  0  0  0  0  0  0
    2.0250    1.9546    0.0000 H   0  0  0  0  0  0  0  0  0  0  0  0
    1.4174    0.9021    0.0000 H   0  0  0  0  0  0  0  0  0  0  0  0
    1.8923    0.0794    0.0000 H   0  0  0  0  0  0  0  0  0  0  0  0
    5.2690   -2.6200    0.0000 H   0  0  0  0  0  0  0  0  0  0  0  0
    2.4631   -1.0000    0.0000 H   0  0  0  0  0  0  0  0  0  0  0  0
    3.8660   -3.4300    0.0000 H   0  0  0  0  0  0  0  0  0  0  0  0
    2.4631   -2.6200    0.0000 H   0  0  0  0  0  0  0  0  0  0  0  0
   13.3923    2.3100    0.0000 H   0  0  0  0  0  0  0  0  0  0  0  0
   11.9893   -0.1200    0.0000 H   0  0  0  0  0  0  0  0  0  0  0  0
   13.3923   -0.9300    0.0000 H   0  0  0  0  0  0  0  0  0  0  0  0
   16.2490    0.2753    0.0000 H   0  0  0  0  0  0  0  0  0  0  0  0
   16.2490    1.1047    0.0000 H   0  0  0  0  0  0  0  0  0  0  0  0
  1  3  2  0  0  0  0
  1  4  2  0  0  0  0
  1  8  1  0  0  0  0
  1 27  1  0  0  0  0
  2 21  1  0  0  0  0
  2 24  1  0  0  0  0
  5 32  1  0  0  0  0
  5 35  1  0  0  0  0
  6 34  1  0  0  0  0
  6 35  1  0  0  0  0
  7  9  1  0  0  0  0
  7 16  1  0  0  0  0
  7 17  1  0  0  0  0
  8 12  1  0  0  0  0
  8 55  1  0  0  0  0
  9 10  1  0  0  0  0
  9 11  1  0  0  0  0
  9 36  1  0  0  0  0
 10 13  1  0  0  0  0
 10 37  1  0  0  0  0
 10 38  1  0  0  0  0
 11 14  1  0  0  0  0
 11 39  1  0  0  0  0
 11 40  1  0  0  0  0
 12 13  1  0  0  0  0
 12 14  1  0  0  0  0
 12 41  1  0  0  0  0
 13 42  1  0  0  0  0
 13 43  1  0  0  0  0
 14 44  1  0  0  0  0
 14 45  1  0  0  0  0
 15 18  1  0  0  0  0
 15 19  1  0  0  0  0
 15 20  1  0  0  0  0
 15 46  1  0  0  0  0
 16 18  1  0  0  0  0
 16 47  1  0  0  0  0
 16 48  1  0  0  0  0
 17 19  1  0  0  0  0
 17 49  1  0  0  0  0
 17 50  1  0  0  0  0
 18 51  1  0  0  0  0
 18 52  1  0  0  0  0
 19 53  1  0  0  0  0
 19 54  1  0  0  0  0
 20 24  1  0  0  0  0
 20 25  2  0  0  0  0
 21 22  1  0  0  0  0
 21 23  1  0  0  0  0
 21 56  1  0  0  0  0
 22 23  1  0  0  0  0
 22 57  1  0  0  0  0
 22 58  1  0  0  0  0
 23 59  1  0  0  0  0
 23 60  1  0  0  0  0
 24 26  2  0  0  0  0
 25 28  1  0  0  0  0
 25 61  1  0  0  0  0
 26 29  1  0  0  0  0
 26 62  1  0  0  0  0
 27 30  2  0  0  0  0
 27 31  1  0  0  0  0
 28 29  2  0  0  0  0
 28 63  1  0  0  0  0
 29 64  1  0  0  0  0
 30 32  1  0  0  0  0
 30 65  1  0  0  0  0
 31 33  2  0  0  0  0
 31 66  1  0  0  0  0
 32 34  2  0  0  0  0
 33 34  1  0  0  0  0
 33 67  1  0  0  0  0
 35 68  1  0  0  0  0
 35 69  1  0  0  0  0
M  END
> <PUBCHEM_COMPOUND_CID>
44426404

> <PUBCHEM_COMPOUND_CANONICALIZED>
1

> <PUBCHEM_CACTVS_COMPLEXITY>
799

> <PUBCHEM_CACTVS_HBOND_ACCEPTOR>
7

> <PUBCHEM_CACTVS_HBOND_DONOR>
1

> <PUBCHEM_CACTVS_ROTATABLE_BOND>
7

> <PUBCHEM_CACTVS_SUBSKEYS>
AAADcfB7OABAAAAAAAAAAAAAGAAAASAAAAA8YMEAAAAAAEgBQAAAHgQQQAAADTzh2AcwD4NABAKAAiBCAHBCCBAgIAAIiJgOiIgdJiKEsRqmOCKk0BGOqAeQ0OIOgIAABAAIQAABAQAIABCAAAAAAAAAAA==

> <PUBCHEM_IUPAC_OPENEYE_NAME>
N-[4-[4-[2-(cyclopropoxy)phenyl]-1-piperidyl]cyclohexyl]-1,3-benzodioxole-5-sulfonamide

> <PUBCHEM_IUPAC_CAS_NAME>
N-[4-[4-(2-cyclopropyloxyphenyl)-1-piperidinyl]cyclohexyl]-1,3-benzodioxole-5-sulfonamide

> <PUBCHEM_IUPAC_NAME_MARKUP>
<I>N</I>-[4-[4-(2-cyclopropyloxyphenyl)piperidin-1-yl]cyclohexyl]-1,3-benzodioxole-5-sulfonamide

> <PUBCHEM_IUPAC_NAME>
N-[4-[4-(2-cyclopropyloxyphenyl)piperidin-1-yl]cyclohexyl]-1,3-benzodioxole-5-sulfonamide

> <PUBCHEM_IUPAC_SYSTEMATIC_NAME>
N-[4-[4-(2-cyclopropyloxyphenyl)piperidin-1-yl]cyclohexyl]-1,3-benzodioxole-5-sulfonamide

> <PUBCHEM_IUPAC_TRADITIONAL_NAME>
N-[4-[4-[2-(cyclopropoxy)phenyl]piperidino]cyclohexyl]-1,3-benzodioxole-5-sulfonamide

> <PUBCHEM_IUPAC_INCHI>
InChI=1S/C27H34N2O5S/c30-35(31,23-11-12-26-27(17-23)33-18-32-26)28-20-5-7-21(8-6-20)29-15-13-19(14-16-29)24-3-1-2-4-25(24)34-22-9-10-22/h1-4,11-12,17,19-22,28H,5-10,13-16,18H2

> <PUBCHEM_IUPAC_INCHIKEY>
ZIIYCNPQTIYWFF-UHFFFAOYSA-N

> <PUBCHEM_XLOGP3_AA>
4.8

> <PUBCHEM_EXACT_MASS>
498.21884336

> <PUBCHEM_MOLECULAR_FORMULA>
C27H34N2O5S

> <PUBCHEM_MOLECULAR_WEIGHT>
498.6

> <PUBCHEM_OPENEYE_CAN_SMILES>
C1CC(CCC1NS(=O)(=O)C2=CC3=C(C=C2)OCO3)N4CCC(CC4)C5=CC=CC=C5OC6CC6

> <PUBCHEM_OPENEYE_ISO_SMILES>
C1CC(CCC1NS(=O)(=O)C2=CC3=C(C=C2)OCO3)N4CCC(CC4)C5=CC=CC=C5OC6CC6

> <PUBCHEM_CACTVS_TPSA>
85.5

> <PUBCHEM_MONOISOTOPIC_WEIGHT>
498.21884336

> <PUBCHEM_TOTAL_CHARGE>
0

> <PUBCHEM_HEAVY_ATOM_COUNT>
35

> <PUBCHEM_ATOM_DEF_STEREO_COUNT>
0

> <PUBCHEM_ATOM_UDEF_STEREO_COUNT>
0

> <PUBCHEM_BOND_DEF_STEREO_COUNT>
0

> <PUBCHEM_BOND_UDEF_STEREO_COUNT>
0

> <PUBCHEM_ISOTOPIC_ATOM_COUNT>
0

> <PUBCHEM_COMPONENT_COUNT>
1

> <PUBCHEM_CACTVS_TAUTO_COUNT>
-1

> <PUBCHEM_COORDINATE_TYPE>
1
5
255

> <PUBCHEM_BONDANNOTATIONS>
20  24  8
20  25  8
24  26  8
25  28  8
26  29  8
27  30  8
27  31  8
28  29  8
30  32  8
31  33  8
32  34  8
33  34  8

$$$$
