11547643
  -OEChem-09292322272D

 68 72  0     0  0  0  0  0  0999 V2000
    2.8680    4.8395    0.0000 O   0  0  0  0  0  0  0  0  0  0  0  0
    8.1914   -4.2200    0.0000 O   0  0  0  0  0  0  0  0  0  0  0  0
    9.8622   -2.1364    0.0000 O   0  0  0  0  0  0  0  0  0  0  0  0
    6.9962   -6.0322    0.0000 O   0  0  0  0  0  0  0  0  0  0  0  0
    6.3981    1.8636    0.0000 N   0  0  0  0  0  0  0  0  0  0  0  0
    6.3981    3.8636    0.0000 N   0  0  0  0  0  0  0  0  0  0  0  0
    7.2641    5.3636    0.0000 N   0  0  0  0  0  0  0  0  0  0  0  0
    8.1301   -2.1364    0.0000 N   0  0  0  0  0  0  0  0  0  0  0  0
    7.2641    2.3636    0.0000 C   0  0  0  0  0  0  0  0  0  0  0  0
    5.5320    2.3636    0.0000 C   0  0  0  0  0  0  0  0  0  0  0  0
    7.2641    3.3636    0.0000 C   0  0  0  0  0  0  0  0  0  0  0  0
    5.5320    3.3636    0.0000 C   0  0  0  0  0  0  0  0  0  0  0  0
    6.3981    0.8636    0.0000 C   0  0  0  0  0  0  0  0  0  0  0  0
    7.2641    0.3636    0.0000 C   0  0  0  0  0  0  0  0  0  0  0  0
    6.3981    4.8636    0.0000 C   0  0  0  0  0  0  0  0  0  0  0  0
    7.2641   -0.6364    0.0000 C   0  0  0  0  0  0  0  0  0  0  0  0
    5.5320    5.3636    0.0000 C   0  0  0  0  0  0  0  0  0  0  0  0
    8.1301   -1.1364    0.0000 C   0  0  0  0  0  0  0  0  0  0  0  0
    5.5320    6.3636    0.0000 C   0  0  0  0  0  0  0  0  0  0  0  0
    4.6381    4.8290    0.0000 C   0  0  0  0  0  0  0  0  0  0  0  0
    6.3981    6.8636    0.0000 C   0  0  0  0  0  0  0  0  0  0  0  0
    7.2641    6.3636    0.0000 C   0  0  0  0  0  0  0  0  0  0  0  0
    4.6381    6.8983    0.0000 C   0  0  0  0  0  0  0  0  0  0  0  0
    3.7320    5.3428    0.0000 C   0  0  0  0  0  0  0  0  0  0  0  0
    3.7320    6.3844    0.0000 C   0  0  0  0  0  0  0  0  0  0  0  0
    8.9962   -2.6364    0.0000 C   0  0  0  0  0  0  0  0  0  0  0  0
    8.9962   -3.6364    0.0000 C   0  0  0  0  0  0  0  0  0  0  0  0
    9.8009   -4.2200    0.0000 C   0  0  0  0  0  0  0  0  0  0  0  0
    9.4962   -5.1662    0.0000 C   0  0  0  0  0  0  0  0  0  0  0  0
    8.4962   -5.1662    0.0000 C   0  0  0  0  0  0  0  0  0  0  0  0
    7.9962   -6.0322    0.0000 C   0  0  0  0  0  0  0  0  0  0  0  0
    9.9962   -6.0322    0.0000 C   0  0  0  0  0  0  0  0  0  0  0  0
    2.0000    5.3361    0.0000 C   0  0  0  0  0  0  0  0  0  0  0  0
    8.4962   -6.8983    0.0000 C   0  0  0  0  0  0  0  0  0  0  0  0
    9.4962   -6.8983    0.0000 C   0  0  0  0  0  0  0  0  0  0  0  0
    6.4962   -6.8983    0.0000 C   0  0  0  0  0  0  0  0  0  0  0  0
    7.4762    1.7810    0.0000 H   0  0  0  0  0  0  0  0  0  0  0  0
    7.8747    2.4713    0.0000 H   0  0  0  0  0  0  0  0  0  0  0  0
    4.9215    2.4713    0.0000 H   0  0  0  0  0  0  0  0  0  0  0  0
    5.3200    1.7810    0.0000 H   0  0  0  0  0  0  0  0  0  0  0  0
    7.8747    3.2560    0.0000 H   0  0  0  0  0  0  0  0  0  0  0  0
    7.4762    3.9462    0.0000 H   0  0  0  0  0  0  0  0  0  0  0  0
    5.3200    3.9462    0.0000 H   0  0  0  0  0  0  0  0  0  0  0  0
    4.9215    3.2560    0.0000 H   0  0  0  0  0  0  0  0  0  0  0  0
    5.7875    0.9713    0.0000 H   0  0  0  0  0  0  0  0  0  0  0  0
    6.1860    0.2810    0.0000 H   0  0  0  0  0  0  0  0  0  0  0  0
    7.8747    0.2559    0.0000 H   0  0  0  0  0  0  0  0  0  0  0  0
    7.4762    0.9462    0.0000 H   0  0  0  0  0  0  0  0  0  0  0  0
    6.6535   -0.5287    0.0000 H   0  0  0  0  0  0  0  0  0  0  0  0
    7.0520   -1.2190    0.0000 H   0  0  0  0  0  0  0  0  0  0  0  0
    8.7407   -1.2441    0.0000 H   0  0  0  0  0  0  0  0  0  0  0  0
    8.3422   -0.5538    0.0000 H   0  0  0  0  0  0  0  0  0  0  0  0
    4.6453    4.2090    0.0000 H   0  0  0  0  0  0  0  0  0  0  0  0
    6.3981    7.4836    0.0000 H   0  0  0  0  0  0  0  0  0  0  0  0
    7.5932   -2.4464    0.0000 H   0  0  0  0  0  0  0  0  0  0  0  0
    7.8010    6.6736    0.0000 H   0  0  0  0  0  0  0  0  0  0  0  0
    4.6453    7.5182    0.0000 H   0  0  0  0  0  0  0  0  0  0  0  0
    3.1963    6.6965    0.0000 H   0  0  0  0  0  0  0  0  0  0  0  0
   10.3902   -4.0274    0.0000 H   0  0  0  0  0  0  0  0  0  0  0  0
   10.6161   -6.0322    0.0000 H   0  0  0  0  0  0  0  0  0  0  0  0
    2.3079    5.8742    0.0000 H   0  0  0  0  0  0  0  0  0  0  0  0
    1.4619    5.6440    0.0000 H   0  0  0  0  0  0  0  0  0  0  0  0
    1.6921    4.7980    0.0000 H   0  0  0  0  0  0  0  0  0  0  0  0
    8.1862   -7.4352    0.0000 H   0  0  0  0  0  0  0  0  0  0  0  0
    9.8062   -7.4352    0.0000 H   0  0  0  0  0  0  0  0  0  0  0  0
    5.9592   -6.5883    0.0000 H   0  0  0  0  0  0  0  0  0  0  0  0
    6.1861   -7.4352    0.0000 H   0  0  0  0  0  0  0  0  0  0  0  0
    7.0331   -7.2083    0.0000 H   0  0  0  0  0  0  0  0  0  0  0  0
  1 24  1  0  0  0  0
  1 33  1  0  0  0  0
  2 27  1  0  0  0  0
  2 30  1  0  0  0  0
  3 26  2  0  0  0  0
  4 31  1  0  0  0  0
  4 36  1  0  0  0  0
  5  9  1  0  0  0  0
  5 10  1  0  0  0  0
  5 13  1  0  0  0  0
  6 11  1  0  0  0  0
  6 12  1  0  0  0  0
  6 15  1  0  0  0  0
  7 15  2  0  0  0  0
  7 22  1  0  0  0  0
  8 18  1  0  0  0  0
  8 26  1  0  0  0  0
  8 55  1  0  0  0  0
  9 11  1  0  0  0  0
  9 37  1  0  0  0  0
  9 38  1  0  0  0  0
 10 12  1  0  0  0  0
 10 39  1  0  0  0  0
 10 40  1  0  0  0  0
 11 41  1  0  0  0  0
 11 42  1  0  0  0  0
 12 43  1  0  0  0  0
 12 44  1  0  0  0  0
 13 14  1  0  0  0  0
 13 45  1  0  0  0  0
 13 46  1  0  0  0  0
 14 16  1  0  0  0  0
 14 47  1  0  0  0  0
 14 48  1  0  0  0  0
 15 17  1  0  0  0  0
 16 18  1  0  0  0  0
 16 49  1  0  0  0  0
 16 50  1  0  0  0  0
 17 19  2  0  0  0  0
 17 20  1  0  0  0  0
 18 51  1  0  0  0  0
 18 52  1  0  0  0  0
 19 21  1  0  0  0  0
 19 23  1  0  0  0  0
 20 24  2  0  0  0  0
 20 53  1  0  0  0  0
 21 22  2  0  0  0  0
 21 54  1  0  0  0  0
 22 56  1  0  0  0  0
 23 25  2  0  0  0  0
 23 57  1  0  0  0  0
 24 25  1  0  0  0  0
 25 58  1  0  0  0  0
 26 27  1  0  0  0  0
 27 28  2  0  0  0  0
 28 29  1  0  0  0  0
 28 59  1  0  0  0  0
 29 30  2  0  0  0  0
 29 32  1  0  0  0  0
 30 31  1  0  0  0  0
 31 34  2  0  0  0  0
 32 35  2  0  0  0  0
 32 60  1  0  0  0  0
 33 61  1  0  0  0  0
 33 62  1  0  0  0  0
 33 63  1  0  0  0  0
 34 35  1  0  0  0  0
 34 64  1  0  0  0  0
 35 65  1  0  0  0  0
 36 66  1  0  0  0  0
 36 67  1  0  0  0  0
 36 68  1  0  0  0  0
M  END
> <PUBCHEM_COMPOUND_CID>
11547643

> <PUBCHEM_COMPOUND_CANONICALIZED>
1

> <PUBCHEM_CACTVS_COMPLEXITY>
703

> <PUBCHEM_CACTVS_HBOND_ACCEPTOR>
7

> <PUBCHEM_CACTVS_HBOND_DONOR>
1

> <PUBCHEM_CACTVS_ROTATABLE_BOND>
9

> <PUBCHEM_CACTVS_SUBSKEYS>
AAADcfB7uAAAAAAAAAAAAAAAAAAAASAAAAA8eIEAAAAAAEix/gAAHgAQAAAADATBmgY/ttPIFECoArN3dAKCiCk1IiAJ2KH+7NiPZvLEvb+XOSrs1hPa6ae4/77uoAABAAAYQABAAAIAADCAAAAAAAAAAA==

> <PUBCHEM_IUPAC_OPENEYE_NAME>
7-methoxy-N-[4-[4-(7-methoxy-1-isoquinolyl)piperazin-1-yl]butyl]benzofuran-2-carboxamide

> <PUBCHEM_IUPAC_CAS_NAME>
7-methoxy-N-[4-[4-(7-methoxy-1-isoquinolinyl)-1-piperazinyl]butyl]-2-benzofurancarboxamide

> <PUBCHEM_IUPAC_NAME_MARKUP>
7-methoxy-<I>N</I>-[4-[4-(7-methoxyisoquinolin-1-yl)piperazin-1-yl]butyl]-1-benzofuran-2-carboxamide

> <PUBCHEM_IUPAC_NAME>
7-methoxy-N-[4-[4-(7-methoxyisoquinolin-1-yl)piperazin-1-yl]butyl]-1-benzofuran-2-carboxamide

> <PUBCHEM_IUPAC_SYSTEMATIC_NAME>
7-methoxy-N-[4-[4-(7-methoxyisoquinolin-1-yl)piperazin-1-yl]butyl]-1-benzofuran-2-carboxamide

> <PUBCHEM_IUPAC_TRADITIONAL_NAME>
7-methoxy-N-[4-[4-(7-methoxy-1-isoquinolyl)piperazino]butyl]coumarilamide

> <PUBCHEM_IUPAC_INCHI>
InChI=1S/C28H32N4O4/c1-34-22-9-8-20-10-12-29-27(23(20)19-22)32-16-14-31(15-17-32)13-4-3-11-30-28(33)25-18-21-6-5-7-24(35-2)26(21)36-25/h5-10,12,18-19H,3-4,11,13-17H2,1-2H3,(H,30,33)

> <PUBCHEM_IUPAC_INCHIKEY>
IKWFRNZOZWEGCD-UHFFFAOYSA-N

> <PUBCHEM_XLOGP3_AA>
4.7

> <PUBCHEM_EXACT_MASS>
488.24235551

> <PUBCHEM_MOLECULAR_FORMULA>
C28H32N4O4

> <PUBCHEM_MOLECULAR_WEIGHT>
488.6

> <PUBCHEM_OPENEYE_CAN_SMILES>
COC1=CC2=C(C=C1)C=CN=C2N3CCN(CC3)CCCCNC(=O)C4=CC5=C(O4)C(=CC=C5)OC

> <PUBCHEM_OPENEYE_ISO_SMILES>
COC1=CC2=C(C=C1)C=CN=C2N3CCN(CC3)CCCCNC(=O)C4=CC5=C(O4)C(=CC=C5)OC

> <PUBCHEM_CACTVS_TPSA>
80.1

> <PUBCHEM_MONOISOTOPIC_WEIGHT>
488.24235551

> <PUBCHEM_TOTAL_CHARGE>
0

> <PUBCHEM_HEAVY_ATOM_COUNT>
36

> <PUBCHEM_ATOM_DEF_STEREO_COUNT>
0

> <PUBCHEM_ATOM_UDEF_STEREO_COUNT>
0

> <PUBCHEM_BOND_DEF_STEREO_COUNT>
0

> <PUBCHEM_BOND_UDEF_STEREO_COUNT>
0

> <PUBCHEM_ISOTOPIC_ATOM_COUNT>
0

> <PUBCHEM_COMPONENT_COUNT>
1

> <PUBCHEM_CACTVS_TAUTO_COUNT>
-1

> <PUBCHEM_COORDINATE_TYPE>
1
5
255

> <PUBCHEM_BONDANNOTATIONS>
15  17  8
17  19  8
17  20  8
19  21  8
19  23  8
2  27  8
2  30  8
20  24  8
21  22  8
23  25  8
24  25  8
27  28  8
28  29  8
29  30  8
29  32  8
30  31  8
31  34  8
32  35  8
34  35  8
7  15  8
7  22  8

$$$$
