71459759
  -OEChem-09292322332D

 61 65  0     0  0  0  0  0  0999 V2000
    9.7142    1.8007    0.0000 O   0  0  0  0  0  0  0  0  0  0  0  0
    6.4162    2.8605    0.0000 N   0  0  0  0  0  0  0  0  0  0  0  0
    8.3711    3.2827    0.0000 N   0  0  0  0  0  0  0  0  0  0  0  0
    6.7221    3.8125    0.0000 C   0  0  0  0  0  0  0  0  0  0  0  0
    7.0877    2.1195    0.0000 C   0  0  0  0  0  0  0  0  0  0  0  0
    7.6996    4.0236    0.0000 C   0  0  0  0  0  0  0  0  0  0  0  0
    8.0652    2.3306    0.0000 C   0  0  0  0  0  0  0  0  0  0  0  0
    5.4387    2.6494    0.0000 C   0  0  0  0  0  0  0  0  0  0  0  0
    5.1328    1.6973    0.0000 C   0  0  0  0  0  0  0  0  0  0  0  0
    9.3486    3.4938    0.0000 C   0  0  0  0  0  0  0  0  0  0  0  0
    4.1881    1.3879    0.0000 C   0  0  0  0  0  0  0  0  0  0  0  0
    5.7204    0.8955    0.0000 C   0  0  0  0  0  0  0  0  0  0  0  0
    4.1931    0.3879    0.0000 C   0  0  0  0  0  0  0  0  0  0  0  0
   10.0201    2.7528    0.0000 C   0  0  0  0  0  0  0  0  0  0  0  0
    5.1408    0.0879    0.0000 C   0  0  0  0  0  0  0  0  0  0  0  0
    9.6545    4.4458    0.0000 C   0  0  0  0  0  0  0  0  0  0  0  0
    3.4032    2.0075    0.0000 C   0  0  0  0  0  0  0  0  0  0  0  0
   10.9976    2.9639    0.0000 C   0  0  0  0  0  0  0  0  0  0  0  0
    3.4144   -0.2395    0.0000 C   0  0  0  0  0  0  0  0  0  0  0  0
   10.6320    4.6569    0.0000 C   0  0  0  0  0  0  0  0  0  0  0  0
   11.3035    3.9160    0.0000 C   0  0  0  0  0  0  0  0  0  0  0  0
    2.4294    1.7801    0.0000 C   0  0  0  0  0  0  0  0  0  0  0  0
    2.4384   -0.0218    0.0000 C   0  0  0  0  0  0  0  0  0  0  0  0
    5.4562   -0.8611    0.0000 C   0  0  0  0  0  0  0  0  0  0  0  0
    2.0000    0.8770    0.0000 C   0  0  0  0  0  0  0  0  0  0  0  0
   10.3858    1.0598    0.0000 C   0  0  0  0  0  0  0  0  0  0  0  0
    5.7716   -1.8100    0.0000 C   0  0  0  0  0  0  0  0  0  0  0  0
    6.0870   -2.7590    0.0000 C   0  0  0  0  0  0  0  0  0  0  0  0
    7.0666   -2.9603    0.0000 C   0  0  0  0  0  0  0  0  0  0  0  0
    5.4229   -3.5066    0.0000 C   0  0  0  0  0  0  0  0  0  0  0  0
    7.3820   -3.9093    0.0000 C   0  0  0  0  0  0  0  0  0  0  0  0
    5.7383   -4.4556    0.0000 C   0  0  0  0  0  0  0  0  0  0  0  0
    6.7178   -4.6569    0.0000 C   0  0  0  0  0  0  0  0  0  0  0  0
    6.6985    4.4321    0.0000 H   0  0  0  0  0  0  0  0  0  0  0  0
    6.1079    3.8968    0.0000 H   0  0  0  0  0  0  0  0  0  0  0  0
    6.5630    1.7892    0.0000 H   0  0  0  0  0  0  0  0  0  0  0  0
    7.3219    1.5454    0.0000 H   0  0  0  0  0  0  0  0  0  0  0  0
    8.2243    4.3539    0.0000 H   0  0  0  0  0  0  0  0  0  0  0  0
    7.4654    4.5977    0.0000 H   0  0  0  0  0  0  0  0  0  0  0  0
    8.0889    1.7111    0.0000 H   0  0  0  0  0  0  0  0  0  0  0  0
    8.6794    2.2463    0.0000 H   0  0  0  0  0  0  0  0  0  0  0  0
    5.4151    3.2689    0.0000 H   0  0  0  0  0  0  0  0  0  0  0  0
    4.8245    2.7337    0.0000 H   0  0  0  0  0  0  0  0  0  0  0  0
    6.3404    0.8986    0.0000 H   0  0  0  0  0  0  0  0  0  0  0  0
    9.2381    4.9052    0.0000 H   0  0  0  0  0  0  0  0  0  0  0  0
    3.5381    2.6126    0.0000 H   0  0  0  0  0  0  0  0  0  0  0  0
   11.4140    2.5045    0.0000 H   0  0  0  0  0  0  0  0  0  0  0  0
    3.5554   -0.8433    0.0000 H   0  0  0  0  0  0  0  0  0  0  0  0
   10.8216    5.2472    0.0000 H   0  0  0  0  0  0  0  0  0  0  0  0
   11.9096    4.0468    0.0000 H   0  0  0  0  0  0  0  0  0  0  0  0
    2.0404    2.2629    0.0000 H   0  0  0  0  0  0  0  0  0  0  0  0
    2.0542   -0.5085    0.0000 H   0  0  0  0  0  0  0  0  0  0  0  0
    1.3800    0.8739    0.0000 H   0  0  0  0  0  0  0  0  0  0  0  0
    9.9264    0.6434    0.0000 H   0  0  0  0  0  0  0  0  0  0  0  0
   10.8021    0.6004    0.0000 H   0  0  0  0  0  0  0  0  0  0  0  0
   10.8452    1.4761    0.0000 H   0  0  0  0  0  0  0  0  0  0  0  0
    7.4783   -2.4968    0.0000 H   0  0  0  0  0  0  0  0  0  0  0  0
    4.8156   -3.3818    0.0000 H   0  0  0  0  0  0  0  0  0  0  0  0
    7.9893   -4.0341    0.0000 H   0  0  0  0  0  0  0  0  0  0  0  0
    5.3266   -4.9191    0.0000 H   0  0  0  0  0  0  0  0  0  0  0  0
    6.9134   -5.2453    0.0000 H   0  0  0  0  0  0  0  0  0  0  0  0
  1 14  1  0  0  0  0
  1 26  1  0  0  0  0
  2  4  1  0  0  0  0
  2  5  1  0  0  0  0
  2  8  1  0  0  0  0
  3  6  1  0  0  0  0
  3  7  1  0  0  0  0
  3 10  1  0  0  0  0
  4  6  1  0  0  0  0
  4 34  1  0  0  0  0
  4 35  1  0  0  0  0
  5  7  1  0  0  0  0
  5 36  1  0  0  0  0
  5 37  1  0  0  0  0
  6 38  1  0  0  0  0
  6 39  1  0  0  0  0
  7 40  1  0  0  0  0
  7 41  1  0  0  0  0
  8  9  1  0  0  0  0
  8 42  1  0  0  0  0
  8 43  1  0  0  0  0
  9 11  1  0  0  0  0
  9 12  2  0  0  0  0
 10 14  1  0  0  0  0
 10 16  2  0  0  0  0
 11 13  1  0  0  0  0
 11 17  2  0  0  0  0
 12 15  1  0  0  0  0
 12 44  1  0  0  0  0
 13 15  2  0  0  0  0
 13 19  1  0  0  0  0
 14 18  2  0  0  0  0
 15 24  1  0  0  0  0
 16 20  1  0  0  0  0
 16 45  1  0  0  0  0
 17 22  1  0  0  0  0
 17 46  1  0  0  0  0
 18 21  1  0  0  0  0
 18 47  1  0  0  0  0
 19 23  2  0  0  0  0
 19 48  1  0  0  0  0
 20 21  2  0  0  0  0
 20 49  1  0  0  0  0
 21 50  1  0  0  0  0
 22 25  2  0  0  0  0
 22 51  1  0  0  0  0
 23 25  1  0  0  0  0
 23 52  1  0  0  0  0
 24 27  3  0  0  0  0
 25 53  1  0  0  0  0
 26 54  1  0  0  0  0
 26 55  1  0  0  0  0
 26 56  1  0  0  0  0
 27 28  1  0  0  0  0
 28 29  2  0  0  0  0
 28 30  1  0  0  0  0
 29 31  1  0  0  0  0
 29 57  1  0  0  0  0
 30 32  2  0  0  0  0
 30 58  1  0  0  0  0
 31 33  2  0  0  0  0
 31 59  1  0  0  0  0
 32 33  1  0  0  0  0
 32 60  1  0  0  0  0
 33 61  1  0  0  0  0
M  END
> <PUBCHEM_COMPOUND_CID>
71459759

> <PUBCHEM_COMPOUND_CANONICALIZED>
1

> <PUBCHEM_CACTVS_COMPLEXITY>
665

> <PUBCHEM_CACTVS_HBOND_ACCEPTOR>
3

> <PUBCHEM_CACTVS_HBOND_DONOR>
0

> <PUBCHEM_CACTVS_ROTATABLE_BOND>
6

> <PUBCHEM_CACTVS_SUBSKEYS>
AAADceB7IAAAAAAAAAAAAAAAAAAAAYAAAAA8YIAABgAAAADBUAAAHgAAAAAADAzBmAYyxsMABADAEiRCQAiCCAAhIgAIiAAPbIgOZiLEsZuVMChkwBHY6AeQwMAOgAAAAAAAEAAAAAAAAAAgAQAACAAAAA==

> <PUBCHEM_IUPAC_OPENEYE_NAME>
1-(2-methoxyphenyl)-4-[[3-(2-phenylethynyl)azulen-1-yl]methyl]piperazine

> <PUBCHEM_IUPAC_CAS_NAME>
1-(2-methoxyphenyl)-4-[[3-(2-phenylethynyl)-1-azulenyl]methyl]piperazine

> <PUBCHEM_IUPAC_NAME_MARKUP>
1-(2-methoxyphenyl)-4-[[3-(2-phenylethynyl)azulen-1-yl]methyl]piperazine

> <PUBCHEM_IUPAC_NAME>
1-(2-methoxyphenyl)-4-[[3-(2-phenylethynyl)azulen-1-yl]methyl]piperazine

> <PUBCHEM_IUPAC_SYSTEMATIC_NAME>
1-(2-methoxyphenyl)-4-[[3-(2-phenylethynyl)azulen-1-yl]methyl]piperazine

> <PUBCHEM_IUPAC_TRADITIONAL_NAME>
1-(2-methoxyphenyl)-4-[[3-(2-phenylethynyl)azulen-1-yl]methyl]piperazine

> <PUBCHEM_IUPAC_INCHI>
InChI=1S/C30H28N2O/c1-33-30-15-9-8-14-29(30)32-20-18-31(19-21-32)23-26-22-25(17-16-24-10-4-2-5-11-24)27-12-6-3-7-13-28(26)27/h2-15,22H,18-21,23H2,1H3

> <PUBCHEM_IUPAC_INCHIKEY>
KMVWYPYWHLOVLW-UHFFFAOYSA-N

> <PUBCHEM_XLOGP3_AA>
6.3

> <PUBCHEM_EXACT_MASS>
432.220163521

> <PUBCHEM_MOLECULAR_FORMULA>
C30H28N2O

> <PUBCHEM_MOLECULAR_WEIGHT>
432.6

> <PUBCHEM_OPENEYE_CAN_SMILES>
COC1=CC=CC=C1N2CCN(CC2)CC3=CC(=C4C3=CC=CC=C4)C#CC5=CC=CC=C5

> <PUBCHEM_OPENEYE_ISO_SMILES>
COC1=CC=CC=C1N2CCN(CC2)CC3=CC(=C4C3=CC=CC=C4)C#CC5=CC=CC=C5

> <PUBCHEM_CACTVS_TPSA>
15.7

> <PUBCHEM_MONOISOTOPIC_WEIGHT>
432.220163521

> <PUBCHEM_TOTAL_CHARGE>
0

> <PUBCHEM_HEAVY_ATOM_COUNT>
33

> <PUBCHEM_ATOM_DEF_STEREO_COUNT>
0

> <PUBCHEM_ATOM_UDEF_STEREO_COUNT>
0

> <PUBCHEM_BOND_DEF_STEREO_COUNT>
0

> <PUBCHEM_BOND_UDEF_STEREO_COUNT>
0

> <PUBCHEM_ISOTOPIC_ATOM_COUNT>
0

> <PUBCHEM_COMPONENT_COUNT>
1

> <PUBCHEM_CACTVS_TAUTO_COUNT>
-1

> <PUBCHEM_COORDINATE_TYPE>
1
5
255

> <PUBCHEM_BONDANNOTATIONS>
10  14  8
10  16  8
11  17  8
12  15  8
13  15  8
13  19  8
14  18  8
16  20  8
17  22  8
18  21  8
19  23  8
20  21  8
22  25  8
23  25  8
28  29  8
28  30  8
29  31  8
30  32  8
31  33  8
32  33  8
9  11  8
9  12  8

$$$$
