46888984
  -OEChem-09292322292D

 63 66  0     0  0  0  0  0  0999 V2000
    2.8660   -1.3343    0.0000 S   0  0  0  0  0  0  0  0  0  0  0  0
    2.0000    0.1657    0.0000 F   0  0  0  0  0  0  0  0  0  0  0  0
    5.4641    2.1657    0.0000 O   0  0  0  0  0  0  0  0  0  0  0  0
   15.9224    0.1415    0.0000 O   0  0  0  0  0  0  0  0  0  0  0  0
    3.3660   -2.2003    0.0000 O   0  0  0  0  0  0  0  0  0  0  0  0
    2.3660   -0.4683    0.0000 O   0  0  0  0  0  0  0  0  0  0  0  0
    8.0622    1.6657    0.0000 N   0  0  0  0  0  0  0  0  0  0  0  0
   14.1523    0.1310    0.0000 N   0  0  0  0  0  0  0  0  0  0  0  0
    3.7320   -0.8343    0.0000 N   0  0  0  0  0  0  0  0  0  0  0  0
    9.7942    0.6657    0.0000 C   0  0  0  0  0  0  0  0  0  0  0  0
    8.9282    0.1657    0.0000 C   0  0  0  0  0  0  0  0  0  0  0  0
    9.7942    1.6657    0.0000 C   0  0  0  0  0  0  0  0  0  0  0  0
    8.0622    0.6657    0.0000 C   0  0  0  0  0  0  0  0  0  0  0  0
    8.9282    2.1657    0.0000 C   0  0  0  0  0  0  0  0  0  0  0  0
   10.6603    0.1657    0.0000 C   0  0  0  0  0  0  0  0  0  0  0  0
    7.1962    2.1657    0.0000 C   0  0  0  0  0  0  0  0  0  0  0  0
   11.5263    0.6657    0.0000 C   0  0  0  0  0  0  0  0  0  0  0  0
    6.3301    1.6657    0.0000 C   0  0  0  0  0  0  0  0  0  0  0  0
   12.3923    0.1657    0.0000 C   0  0  0  0  0  0  0  0  0  0  0  0
   11.5263    1.6657    0.0000 C   0  0  0  0  0  0  0  0  0  0  0  0
   13.2583    0.6657    0.0000 C   0  0  0  0  0  0  0  0  0  0  0  0
   13.2583    1.6657    0.0000 C   0  0  0  0  0  0  0  0  0  0  0  0
   12.3923    2.1657    0.0000 C   0  0  0  0  0  0  0  0  0  0  0  0
   14.1523    2.2003    0.0000 C   0  0  0  0  0  0  0  0  0  0  0  0
   15.0583    1.6865    0.0000 C   0  0  0  0  0  0  0  0  0  0  0  0
   15.0583    0.6449    0.0000 C   0  0  0  0  0  0  0  0  0  0  0  0
    4.5981    1.6657    0.0000 C   0  0  0  0  0  0  0  0  0  0  0  0
    4.5981    0.6657    0.0000 C   0  0  0  0  0  0  0  0  0  0  0  0
    3.7320    2.1657    0.0000 C   0  0  0  0  0  0  0  0  0  0  0  0
    3.7320    0.1657    0.0000 C   0  0  0  0  0  0  0  0  0  0  0  0
    2.8660    1.6657    0.0000 C   0  0  0  0  0  0  0  0  0  0  0  0
    2.8660    0.6657    0.0000 C   0  0  0  0  0  0  0  0  0  0  0  0
    2.0000   -1.8343    0.0000 C   0  0  0  0  0  0  0  0  0  0  0  0
    9.7942    0.0457    0.0000 H   0  0  0  0  0  0  0  0  0  0  0  0
    8.5297   -0.3093    0.0000 H   0  0  0  0  0  0  0  0  0  0  0  0
    9.3267   -0.3093    0.0000 H   0  0  0  0  0  0  0  0  0  0  0  0
   10.4048    1.5580    0.0000 H   0  0  0  0  0  0  0  0  0  0  0  0
   10.0063    2.2483    0.0000 H   0  0  0  0  0  0  0  0  0  0  0  0
    7.4516    0.7733    0.0000 H   0  0  0  0  0  0  0  0  0  0  0  0
    7.8501    0.0831    0.0000 H   0  0  0  0  0  0  0  0  0  0  0  0
    9.3267    2.6406    0.0000 H   0  0  0  0  0  0  0  0  0  0  0  0
    8.5297    2.6406    0.0000 H   0  0  0  0  0  0  0  0  0  0  0  0
   10.2617   -0.3093    0.0000 H   0  0  0  0  0  0  0  0  0  0  0  0
   11.0588   -0.3093    0.0000 H   0  0  0  0  0  0  0  0  0  0  0  0
    7.5947    2.6406    0.0000 H   0  0  0  0  0  0  0  0  0  0  0  0
    6.7976    2.6406    0.0000 H   0  0  0  0  0  0  0  0  0  0  0  0
    5.9316    1.1907    0.0000 H   0  0  0  0  0  0  0  0  0  0  0  0
    6.7287    1.1907    0.0000 H   0  0  0  0  0  0  0  0  0  0  0  0
   12.3923   -0.4543    0.0000 H   0  0  0  0  0  0  0  0  0  0  0  0
   10.9893    1.9757    0.0000 H   0  0  0  0  0  0  0  0  0  0  0  0
   12.3923    2.7857    0.0000 H   0  0  0  0  0  0  0  0  0  0  0  0
   14.5459    2.6794    0.0000 H   0  0  0  0  0  0  0  0  0  0  0  0
   13.7477    2.6701    0.0000 H   0  0  0  0  0  0  0  0  0  0  0  0
   15.6692    1.5804    0.0000 H   0  0  0  0  0  0  0  0  0  0  0  0
   15.2674    2.2702    0.0000 H   0  0  0  0  0  0  0  0  0  0  0  0
   14.1451   -0.4889    0.0000 H   0  0  0  0  0  0  0  0  0  0  0  0
    5.1350    0.3557    0.0000 H   0  0  0  0  0  0  0  0  0  0  0  0
    3.7320    2.7857    0.0000 H   0  0  0  0  0  0  0  0  0  0  0  0
    2.3291    1.9757    0.0000 H   0  0  0  0  0  0  0  0  0  0  0  0
    4.2690   -1.1443    0.0000 H   0  0  0  0  0  0  0  0  0  0  0  0
    1.6900   -1.2974    0.0000 H   0  0  0  0  0  0  0  0  0  0  0  0
    1.4631   -2.1443    0.0000 H   0  0  0  0  0  0  0  0  0  0  0  0
    2.3100   -2.3712    0.0000 H   0  0  0  0  0  0  0  0  0  0  0  0
  1  5  2  0  0  0  0
  1  6  2  0  0  0  0
  1  9  1  0  0  0  0
  1 33  1  0  0  0  0
  2 32  1  0  0  0  0
  3 18  1  0  0  0  0
  3 27  1  0  0  0  0
  4 26  2  0  0  0  0
  7 13  1  0  0  0  0
  7 14  1  0  0  0  0
  7 16  1  0  0  0  0
  8 21  1  0  0  0  0
  8 26  1  0  0  0  0
  8 56  1  0  0  0  0
  9 30  1  0  0  0  0
  9 60  1  0  0  0  0
 10 11  1  0  0  0  0
 10 12  1  0  0  0  0
 10 15  1  0  0  0  0
 10 34  1  0  0  0  0
 11 13  1  0  0  0  0
 11 35  1  0  0  0  0
 11 36  1  0  0  0  0
 12 14  1  0  0  0  0
 12 37  1  0  0  0  0
 12 38  1  0  0  0  0
 13 39  1  0  0  0  0
 13 40  1  0  0  0  0
 14 41  1  0  0  0  0
 14 42  1  0  0  0  0
 15 17  1  0  0  0  0
 15 43  1  0  0  0  0
 15 44  1  0  0  0  0
 16 18  1  0  0  0  0
 16 45  1  0  0  0  0
 16 46  1  0  0  0  0
 17 19  2  0  0  0  0
 17 20  1  0  0  0  0
 18 47  1  0  0  0  0
 18 48  1  0  0  0  0
 19 21  1  0  0  0  0
 19 49  1  0  0  0  0
 20 23  2  0  0  0  0
 20 50  1  0  0  0  0
 21 22  2  0  0  0  0
 22 23  1  0  0  0  0
 22 24  1  0  0  0  0
 23 51  1  0  0  0  0
 24 25  1  0  0  0  0
 24 52  1  0  0  0  0
 24 53  1  0  0  0  0
 25 26  1  0  0  0  0
 25 54  1  0  0  0  0
 25 55  1  0  0  0  0
 27 28  2  0  0  0  0
 27 29  1  0  0  0  0
 28 30  1  0  0  0  0
 28 57  1  0  0  0  0
 29 31  2  0  0  0  0
 29 58  1  0  0  0  0
 30 32  2  0  0  0  0
 31 32  1  0  0  0  0
 31 59  1  0  0  0  0
 33 61  1  0  0  0  0
 33 62  1  0  0  0  0
 33 63  1  0  0  0  0
M  END
> <PUBCHEM_COMPOUND_CID>
46888984

> <PUBCHEM_COMPOUND_CANONICALIZED>
1

> <PUBCHEM_CACTVS_COMPLEXITY>
753

> <PUBCHEM_CACTVS_HBOND_ACCEPTOR>
7

> <PUBCHEM_CACTVS_HBOND_DONOR>
2

> <PUBCHEM_CACTVS_ROTATABLE_BOND>
8

> <PUBCHEM_CACTVS_SUBSKEYS>
AAADceB7OQBAAAAAAAAAAAAAAAAAAAAAAAA8eIEAAAAAAACxQAAAHwQQQAAADQzhmA6yxoPABAKIAiVSUHCCCAAhIgAIiAEObIgOJjLEsZuHOCjm1BnY6AeY2cGeQAAAQgACAACAAACEAAQAAAAAAAAAAA==

> <PUBCHEM_IUPAC_OPENEYE_NAME>
N-[2-fluoro-5-[2-[4-[(2-oxo-3,4-dihydro-1H-quinolin-7-yl)methyl]-1-piperidyl]ethoxy]phenyl]methanesulfonamide

> <PUBCHEM_IUPAC_CAS_NAME>
N-[2-fluoro-5-[2-[4-[(2-oxo-3,4-dihydro-1H-quinolin-7-yl)methyl]-1-piperidinyl]ethoxy]phenyl]methanesulfonamide

> <PUBCHEM_IUPAC_NAME_MARKUP>
<I>N</I>-[2-fluoro-5-[2-[4-[(2-oxo-3,4-dihydro-1<I>H</I>-quinolin-7-yl)methyl]piperidin-1-yl]ethoxy]phenyl]methanesulfonamide

> <PUBCHEM_IUPAC_NAME>
N-[2-fluoro-5-[2-[4-[(2-oxo-3,4-dihydro-1H-quinolin-7-yl)methyl]piperidin-1-yl]ethoxy]phenyl]methanesulfonamide

> <PUBCHEM_IUPAC_SYSTEMATIC_NAME>
N-[2-fluoranyl-5-[2-[4-[(2-oxidanylidene-3,4-dihydro-1H-quinolin-7-yl)methyl]piperidin-1-yl]ethoxy]phenyl]methanesulfonamide

> <PUBCHEM_IUPAC_TRADITIONAL_NAME>
N-[2-fluoro-5-[2-[4-[(2-keto-3,4-dihydro-1H-quinolin-7-yl)methyl]piperidino]ethoxy]phenyl]methanesulfonamide

> <PUBCHEM_IUPAC_INCHI>
InChI=1S/C24H30FN3O4S/c1-33(30,31)27-23-16-20(5-6-21(23)25)32-13-12-28-10-8-17(9-11-28)14-18-2-3-19-4-7-24(29)26-22(19)15-18/h2-3,5-6,15-17,27H,4,7-14H2,1H3,(H,26,29)

> <PUBCHEM_IUPAC_INCHIKEY>
QDSGHUPQZUYWDF-UHFFFAOYSA-N

> <PUBCHEM_XLOGP3_AA>
2.8

> <PUBCHEM_EXACT_MASS>
475.19410578

> <PUBCHEM_MOLECULAR_FORMULA>
C24H30FN3O4S

> <PUBCHEM_MOLECULAR_WEIGHT>
475.6

> <PUBCHEM_OPENEYE_CAN_SMILES>
CS(=O)(=O)NC1=C(C=CC(=C1)OCCN2CCC(CC2)CC3=CC4=C(CCC(=O)N4)C=C3)F

> <PUBCHEM_OPENEYE_ISO_SMILES>
CS(=O)(=O)NC1=C(C=CC(=C1)OCCN2CCC(CC2)CC3=CC4=C(CCC(=O)N4)C=C3)F

> <PUBCHEM_CACTVS_TPSA>
96.1

> <PUBCHEM_MONOISOTOPIC_WEIGHT>
475.19410578

> <PUBCHEM_TOTAL_CHARGE>
0

> <PUBCHEM_HEAVY_ATOM_COUNT>
33

> <PUBCHEM_ATOM_DEF_STEREO_COUNT>
0

> <PUBCHEM_ATOM_UDEF_STEREO_COUNT>
0

> <PUBCHEM_BOND_DEF_STEREO_COUNT>
0

> <PUBCHEM_BOND_UDEF_STEREO_COUNT>
0

> <PUBCHEM_ISOTOPIC_ATOM_COUNT>
0

> <PUBCHEM_COMPONENT_COUNT>
1

> <PUBCHEM_CACTVS_TAUTO_COUNT>
-1

> <PUBCHEM_COORDINATE_TYPE>
1
5
255

> <PUBCHEM_BONDANNOTATIONS>
17  19  8
17  20  8
19  21  8
20  23  8
21  22  8
22  23  8
27  28  8
27  29  8
28  30  8
29  31  8
30  32  8
31  32  8

$$$$
