155514378
  -OEChem-09292322412D

 51 55  0     0  0  0  0  0  0999 V2000
    5.7868   -1.2082    0.0000 S   0  0  0  0  0  0  0  0  0  0  0  0
    4.7868   -1.2082    0.0000 O   0  0  0  0  0  0  0  0  0  0  0  0
    6.7868   -1.2082    0.0000 O   0  0  0  0  0  0  0  0  0  0  0  0
    2.9785    2.6083    0.0000 O   0  0  0  0  0  0  0  0  0  0  0  0
    5.7868   -0.2082    0.0000 N   0  0  0  0  0  0  0  0  0  0  0  0
    8.0585    3.7426    0.0000 N   0  0  0  0  0  0  0  0  0  0  0  0
    7.5467   -4.2429    0.0000 N   0  0  0  0  0  0  0  0  0  0  0  0
    6.2868    1.3216    0.0000 C   0  0  0  0  0  0  0  0  0  0  0  0
    6.8774    2.1286    0.0000 C   0  0  0  0  0  0  0  0  0  0  0  0
    5.2927    1.3259    0.0000 C   0  0  0  0  0  0  0  0  0  0  0  0
    4.9820    0.3754    0.0000 C   0  0  0  0  0  0  0  0  0  0  0  0
    6.4738    3.0435    0.0000 C   0  0  0  0  0  0  0  0  0  0  0  0
    6.5915    0.3754    0.0000 C   0  0  0  0  0  0  0  0  0  0  0  0
    7.0644    3.8505    0.0000 C   0  0  0  0  0  0  0  0  0  0  0  0
    7.8715    2.0206    0.0000 C   0  0  0  0  0  0  0  0  0  0  0  0
    8.4621    2.8276    0.0000 C   0  0  0  0  0  0  0  0  0  0  0  0
    5.7868   -2.2082    0.0000 C   0  0  0  0  0  0  0  0  0  0  0  0
    4.6249    2.0702    0.0000 C   0  0  0  0  0  0  0  0  0  0  0  0
    4.0035    0.1692    0.0000 C   0  0  0  0  0  0  0  0  0  0  0  0
    3.6464    1.8640    0.0000 C   0  0  0  0  0  0  0  0  0  0  0  0
    6.6528   -2.7082    0.0000 C   0  0  0  0  0  0  0  0  0  0  0  0
    3.3357    0.9135    0.0000 C   0  0  0  0  0  0  0  0  0  0  0  0
    4.9207   -2.7082    0.0000 C   0  0  0  0  0  0  0  0  0  0  0  0
    6.6528   -3.7082    0.0000 C   0  0  0  0  0  0  0  0  0  0  0  0
    4.9207   -3.7082    0.0000 C   0  0  0  0  0  0  0  0  0  0  0  0
    7.5467   -2.1736    0.0000 C   0  0  0  0  0  0  0  0  0  0  0  0
    5.7868   -4.2082    0.0000 C   0  0  0  0  0  0  0  0  0  0  0  0
    8.4528   -2.6874    0.0000 C   0  0  0  0  0  0  0  0  0  0  0  0
    8.4528   -3.7290    0.0000 C   0  0  0  0  0  0  0  0  0  0  0  0
    2.0000    2.4021    0.0000 C   0  0  0  0  0  0  0  0  0  0  0  0
    6.0446    3.4910    0.0000 H   0  0  0  0  0  0  0  0  0  0  0  0
    5.9586    2.6986    0.0000 H   0  0  0  0  0  0  0  0  0  0  0  0
    7.1808    0.1828    0.0000 H   0  0  0  0  0  0  0  0  0  0  0  0
    7.2373    4.4459    0.0000 H   0  0  0  0  0  0  0  0  0  0  0  0
    6.5080    4.1242    0.0000 H   0  0  0  0  0  0  0  0  0  0  0  0
    8.1217    1.4534    0.0000 H   0  0  0  0  0  0  0  0  0  0  0  0
    8.8912    2.3801    0.0000 H   0  0  0  0  0  0  0  0  0  0  0  0
    8.9773    3.1725    0.0000 H   0  0  0  0  0  0  0  0  0  0  0  0
    4.8175    2.6595    0.0000 H   0  0  0  0  0  0  0  0  0  0  0  0
    3.8109   -0.4201    0.0000 H   0  0  0  0  0  0  0  0  0  0  0  0
    8.4247    4.2429    0.0000 H   0  0  0  0  0  0  0  0  0  0  0  0
    2.7290    0.7856    0.0000 H   0  0  0  0  0  0  0  0  0  0  0  0
    4.3838   -2.3982    0.0000 H   0  0  0  0  0  0  0  0  0  0  0  0
    4.3838   -4.0182    0.0000 H   0  0  0  0  0  0  0  0  0  0  0  0
    7.5396   -1.5536    0.0000 H   0  0  0  0  0  0  0  0  0  0  0  0
    5.7868   -4.8282    0.0000 H   0  0  0  0  0  0  0  0  0  0  0  0
    8.9885   -2.3753    0.0000 H   0  0  0  0  0  0  0  0  0  0  0  0
    8.9885   -4.0411    0.0000 H   0  0  0  0  0  0  0  0  0  0  0  0
    1.8721    3.0088    0.0000 H   0  0  0  0  0  0  0  0  0  0  0  0
    1.3933    2.2742    0.0000 H   0  0  0  0  0  0  0  0  0  0  0  0
    2.1279    1.7954    0.0000 H   0  0  0  0  0  0  0  0  0  0  0  0
  1  2  2  0  0  0  0
  1  3  2  0  0  0  0
  1  5  1  0  0  0  0
  1 17  1  0  0  0  0
  4 20  1  0  0  0  0
  4 30  1  0  0  0  0
  5 11  1  0  0  0  0
  5 13  1  0  0  0  0
  6 14  1  0  0  0  0
  6 16  1  0  0  0  0
  6 41  1  0  0  0  0
  7 24  1  0  0  0  0
  7 29  2  0  0  0  0
  8  9  1  0  0  0  0
  8 10  1  0  0  0  0
  8 13  2  0  0  0  0
  9 12  1  0  0  0  0
  9 15  2  0  0  0  0
 10 11  2  0  0  0  0
 10 18  1  0  0  0  0
 11 19  1  0  0  0  0
 12 14  1  0  0  0  0
 12 31  1  0  0  0  0
 12 32  1  0  0  0  0
 13 33  1  0  0  0  0
 14 34  1  0  0  0  0
 14 35  1  0  0  0  0
 15 16  1  0  0  0  0
 15 36  1  0  0  0  0
 16 37  1  0  0  0  0
 16 38  1  0  0  0  0
 17 21  1  0  0  0  0
 17 23  2  0  0  0  0
 18 20  2  0  0  0  0
 18 39  1  0  0  0  0
 19 22  2  0  0  0  0
 19 40  1  0  0  0  0
 20 22  1  0  0  0  0
 21 24  2  0  0  0  0
 21 26  1  0  0  0  0
 22 42  1  0  0  0  0
 23 25  1  0  0  0  0
 23 43  1  0  0  0  0
 24 27  1  0  0  0  0
 25 27  2  0  0  0  0
 25 44  1  0  0  0  0
 26 28  2  0  0  0  0
 26 45  1  0  0  0  0
 27 46  1  0  0  0  0
 28 29  1  0  0  0  0
 28 47  1  0  0  0  0
 29 48  1  0  0  0  0
 30 49  1  0  0  0  0
 30 50  1  0  0  0  0
 30 51  1  0  0  0  0
M  END
> <PUBCHEM_COMPOUND_CID>
155514378

> <PUBCHEM_COMPOUND_CANONICALIZED>
1

> <PUBCHEM_CACTVS_COMPLEXITY>
749

> <PUBCHEM_CACTVS_HBOND_ACCEPTOR>
5

> <PUBCHEM_CACTVS_HBOND_DONOR>
1

> <PUBCHEM_CACTVS_ROTATABLE_BOND>
4

> <PUBCHEM_CACTVS_SUBSKEYS>
AAADceB7MABAAAAAAAAAAAAAAAAAAWAAAAA8YIEAAAAAAFix/gAAHgQQQAAADAzB3gY+x/LIFAKgAzRnRHDCiDAxIiAI2Lg+bJgMJuLEsZuEMCxk0BHI6Aew0PIOgEABACAGAAAAgAIAQAwAAAAAAAAAAA==

> <PUBCHEM_IUPAC_OPENEYE_NAME>
5-[5-methoxy-3-(1,2,3,6-tetrahydropyridin-4-yl)indol-1-yl]sulfonylquinoline

> <PUBCHEM_IUPAC_CAS_NAME>
5-[[5-methoxy-3-(1,2,3,6-tetrahydropyridin-4-yl)-1-indolyl]sulfonyl]quinoline

> <PUBCHEM_IUPAC_NAME_MARKUP>
5-[5-methoxy-3-(1,2,3,6-tetrahydropyridin-4-yl)indol-1-yl]sulfonylquinoline

> <PUBCHEM_IUPAC_NAME>
5-[5-methoxy-3-(1,2,3,6-tetrahydropyridin-4-yl)indol-1-yl]sulfonylquinoline

> <PUBCHEM_IUPAC_SYSTEMATIC_NAME>
5-[5-methoxy-3-(1,2,3,6-tetrahydropyridin-4-yl)indol-1-yl]sulfonylquinoline

> <PUBCHEM_IUPAC_TRADITIONAL_NAME>
5-[5-methoxy-3-(1,2,3,6-tetrahydropyridin-4-yl)indol-1-yl]sulfonylquinoline

> <PUBCHEM_IUPAC_INCHI>
InChI=1S/C23H21N3O3S/c1-29-17-7-8-22-19(14-17)20(16-9-12-24-13-10-16)15-26(22)30(27,28)23-6-2-5-21-18(23)4-3-11-25-21/h2-9,11,14-15,24H,10,12-13H2,1H3

> <PUBCHEM_IUPAC_INCHIKEY>
RQZXKTXKVVCWAG-UHFFFAOYSA-N

> <PUBCHEM_XLOGP3_AA>
3.2

> <PUBCHEM_EXACT_MASS>
419.13036271

> <PUBCHEM_MOLECULAR_FORMULA>
C23H21N3O3S

> <PUBCHEM_MOLECULAR_WEIGHT>
419.5

> <PUBCHEM_OPENEYE_CAN_SMILES>
COC1=CC2=C(C=C1)N(C=C2C3=CCNCC3)S(=O)(=O)C4=CC=CC5=C4C=CC=N5

> <PUBCHEM_OPENEYE_ISO_SMILES>
COC1=CC2=C(C=C1)N(C=C2C3=CCNCC3)S(=O)(=O)C4=CC=CC5=C4C=CC=N5

> <PUBCHEM_CACTVS_TPSA>
81.6

> <PUBCHEM_MONOISOTOPIC_WEIGHT>
419.13036271

> <PUBCHEM_TOTAL_CHARGE>
0

> <PUBCHEM_HEAVY_ATOM_COUNT>
30

> <PUBCHEM_ATOM_DEF_STEREO_COUNT>
0

> <PUBCHEM_ATOM_UDEF_STEREO_COUNT>
0

> <PUBCHEM_BOND_DEF_STEREO_COUNT>
0

> <PUBCHEM_BOND_UDEF_STEREO_COUNT>
0

> <PUBCHEM_ISOTOPIC_ATOM_COUNT>
0

> <PUBCHEM_COMPONENT_COUNT>
1

> <PUBCHEM_CACTVS_TAUTO_COUNT>
-1

> <PUBCHEM_COORDINATE_TYPE>
1
5
255

> <PUBCHEM_BONDANNOTATIONS>
10  11  8
10  18  8
11  19  8
17  21  8
17  23  8
18  20  8
19  22  8
20  22  8
21  24  8
21  26  8
23  25  8
24  27  8
25  27  8
26  28  8
28  29  8
5  11  8
5  13  8
7  24  8
7  29  8
8  10  8
8  13  8

$$$$
