135339817
  -OEChem-09292322062D

 60 64  0     0  0  0  0  0  0999 V2000
    2.0000   -0.1811    0.0000 F   0  0  0  0  0  0  0  0  0  0  0  0
    4.7770   -2.3921    0.0000 O   0  0  0  0  0  0  0  0  0  0  0  0
   11.9036    0.3333    0.0000 O   0  0  0  0  0  0  0  0  0  0  0  0
   15.4337   -0.6425    0.0000 O   0  0  0  0  0  0  0  0  0  0  0  0
    8.4395    0.3200    0.0000 N   0  0  0  0  0  0  0  0  0  0  0  0
    5.7480   -2.1792    0.0000 N   0  0  0  0  0  0  0  0  0  0  0  0
   16.2997    0.8575    0.0000 N   0  0  0  0  0  0  0  0  0  0  0  0
    6.7113   -0.6867    0.0000 C   0  0  0  0  0  0  0  0  0  0  0  0
    7.5793   -1.1834    0.0000 C   0  0  0  0  0  0  0  0  0  0  0  0
    6.7075    0.3133    0.0000 C   0  0  0  0  0  0  0  0  0  0  0  0
    8.4434   -0.6800    0.0000 C   0  0  0  0  0  0  0  0  0  0  0  0
    7.5716    0.8166    0.0000 C   0  0  0  0  0  0  0  0  0  0  0  0
    9.3036    0.8233    0.0000 C   0  0  0  0  0  0  0  0  0  0  0  0
    5.8472   -1.1900    0.0000 C   0  0  0  0  0  0  0  0  0  0  0  0
   10.1715    0.3266    0.0000 C   0  0  0  0  0  0  0  0  0  0  0  0
    4.9379   -0.7884    0.0000 C   0  0  0  0  0  0  0  0  0  0  0  0
   11.0356    0.8300    0.0000 C   0  0  0  0  0  0  0  0  0  0  0  0
    4.2729   -1.5353    0.0000 C   0  0  0  0  0  0  0  0  0  0  0  0
    4.6236    0.1609    0.0000 C   0  0  0  0  0  0  0  0  0  0  0  0
    3.2936   -1.3329    0.0000 C   0  0  0  0  0  0  0  0  0  0  0  0
   15.4337    2.3574    0.0000 C   0  0  0  0  0  0  0  0  0  0  0  0
   14.5677    1.8574    0.0000 C   0  0  0  0  0  0  0  0  0  0  0  0
   14.5677    0.8575    0.0000 C   0  0  0  0  0  0  0  0  0  0  0  0
   16.2997    1.8574    0.0000 C   0  0  0  0  0  0  0  0  0  0  0  0
    3.6443    0.3633    0.0000 C   0  0  0  0  0  0  0  0  0  0  0  0
   12.7677    0.8366    0.0000 C   0  0  0  0  0  0  0  0  0  0  0  0
    2.9793   -0.3836    0.0000 C   0  0  0  0  0  0  0  0  0  0  0  0
   13.6737    0.3228    0.0000 C   0  0  0  0  0  0  0  0  0  0  0  0
   15.4337    0.3575    0.0000 C   0  0  0  0  0  0  0  0  0  0  0  0
   13.6737    2.3921    0.0000 C   0  0  0  0  0  0  0  0  0  0  0  0
   12.7677    1.8783    0.0000 C   0  0  0  0  0  0  0  0  0  0  0  0
   17.1658    0.3575    0.0000 C   0  0  0  0  0  0  0  0  0  0  0  0
    6.7137   -1.3067    0.0000 H   0  0  0  0  0  0  0  0  0  0  0  0
    7.1826   -1.6599    0.0000 H   0  0  0  0  0  0  0  0  0  0  0  0
    7.9796   -1.6568    0.0000 H   0  0  0  0  0  0  0  0  0  0  0  0
    6.4932    0.8951    0.0000 H   0  0  0  0  0  0  0  0  0  0  0  0
    6.0973    0.2033    0.0000 H   0  0  0  0  0  0  0  0  0  0  0  0
    8.6576   -1.2618    0.0000 H   0  0  0  0  0  0  0  0  0  0  0  0
    9.0535   -0.5700    0.0000 H   0  0  0  0  0  0  0  0  0  0  0  0
    7.9682    1.2931    0.0000 H   0  0  0  0  0  0  0  0  0  0  0  0
    7.1712    1.2900    0.0000 H   0  0  0  0  0  0  0  0  0  0  0  0
    9.7003    1.2998    0.0000 H   0  0  0  0  0  0  0  0  0  0  0  0
    8.9032    1.2967    0.0000 H   0  0  0  0  0  0  0  0  0  0  0  0
    9.7748   -0.1499    0.0000 H   0  0  0  0  0  0  0  0  0  0  0  0
   10.5719   -0.1468    0.0000 H   0  0  0  0  0  0  0  0  0  0  0  0
   11.4323    1.3064    0.0000 H   0  0  0  0  0  0  0  0  0  0  0  0
   10.6353    1.3034    0.0000 H   0  0  0  0  0  0  0  0  0  0  0  0
    5.0358    0.6239    0.0000 H   0  0  0  0  0  0  0  0  0  0  0  0
    2.8813   -1.7959    0.0000 H   0  0  0  0  0  0  0  0  0  0  0  0
   15.8322    2.8324    0.0000 H   0  0  0  0  0  0  0  0  0  0  0  0
   15.0352    2.8324    0.0000 H   0  0  0  0  0  0  0  0  0  0  0  0
   16.9103    1.7498    0.0000 H   0  0  0  0  0  0  0  0  0  0  0  0
   16.5118    2.4401    0.0000 H   0  0  0  0  0  0  0  0  0  0  0  0
    3.4494    0.9519    0.0000 H   0  0  0  0  0  0  0  0  0  0  0  0
   13.6809   -0.2972    0.0000 H   0  0  0  0  0  0  0  0  0  0  0  0
   13.6809    3.0121    0.0000 H   0  0  0  0  0  0  0  0  0  0  0  0
   12.2319    2.1903    0.0000 H   0  0  0  0  0  0  0  0  0  0  0  0
   16.8558   -0.1795    0.0000 H   0  0  0  0  0  0  0  0  0  0  0  0
   17.7027    0.0475    0.0000 H   0  0  0  0  0  0  0  0  0  0  0  0
   17.4757    0.8944    0.0000 H   0  0  0  0  0  0  0  0  0  0  0  0
  1 27  1  0  0  0  0
  2  6  1  0  0  0  0
  2 18  1  0  0  0  0
  3 17  1  0  0  0  0
  3 26  1  0  0  0  0
  4 29  2  0  0  0  0
  5 11  1  0  0  0  0
  5 12  1  0  0  0  0
  5 13  1  0  0  0  0
  6 14  2  0  0  0  0
  7 24  1  0  0  0  0
  7 29  1  0  0  0  0
  7 32  1  0  0  0  0
  8  9  1  0  0  0  0
  8 10  1  0  0  0  0
  8 14  1  0  0  0  0
  8 33  1  0  0  0  0
  9 11  1  0  0  0  0
  9 34  1  0  0  0  0
  9 35  1  0  0  0  0
 10 12  1  0  0  0  0
 10 36  1  0  0  0  0
 10 37  1  0  0  0  0
 11 38  1  0  0  0  0
 11 39  1  0  0  0  0
 12 40  1  0  0  0  0
 12 41  1  0  0  0  0
 13 15  1  0  0  0  0
 13 42  1  0  0  0  0
 13 43  1  0  0  0  0
 14 16  1  0  0  0  0
 15 17  1  0  0  0  0
 15 44  1  0  0  0  0
 15 45  1  0  0  0  0
 16 18  2  0  0  0  0
 16 19  1  0  0  0  0
 17 46  1  0  0  0  0
 17 47  1  0  0  0  0
 18 20  1  0  0  0  0
 19 25  2  0  0  0  0
 19 48  1  0  0  0  0
 20 27  2  0  0  0  0
 20 49  1  0  0  0  0
 21 22  1  0  0  0  0
 21 24  1  0  0  0  0
 21 50  1  0  0  0  0
 21 51  1  0  0  0  0
 22 23  2  0  0  0  0
 22 30  1  0  0  0  0
 23 28  1  0  0  0  0
 23 29  1  0  0  0  0
 24 52  1  0  0  0  0
 24 53  1  0  0  0  0
 25 27  1  0  0  0  0
 25 54  1  0  0  0  0
 26 28  2  0  0  0  0
 26 31  1  0  0  0  0
 28 55  1  0  0  0  0
 30 31  2  0  0  0  0
 30 56  1  0  0  0  0
 31 57  1  0  0  0  0
 32 58  1  0  0  0  0
 32 59  1  0  0  0  0
 32 60  1  0  0  0  0
M  END
> <PUBCHEM_COMPOUND_CID>
135339817

> <PUBCHEM_COMPOUND_CANONICALIZED>
1

> <PUBCHEM_CACTVS_COMPLEXITY>
644

> <PUBCHEM_CACTVS_HBOND_ACCEPTOR>
6

> <PUBCHEM_CACTVS_HBOND_DONOR>
0

> <PUBCHEM_CACTVS_ROTATABLE_BOND>
6

> <PUBCHEM_CACTVS_SUBSKEYS>
AAADceB7MQAAAAAAAAAAAAAAAAAAAWAAAAA8eIEAAAAAAFix9AAAHwAEAAAADQzhng4yhtMQBACpA6VyUgCCCAAkIAAomCE+TNoMJrqEtZuGOajmxhmI6ce6yfCOoAABAAAYAABAAAIAADAAAAAAAAAAAA==

> <PUBCHEM_IUPAC_OPENEYE_NAME>
7-[3-[4-(6-fluoro-1,2-benzoxazol-3-yl)-1-piperidyl]propoxy]-2-methyl-3,4-dihydroisoquinolin-1-one

> <PUBCHEM_IUPAC_CAS_NAME>
7-[3-[4-(6-fluoro-1,2-benzoxazol-3-yl)-1-piperidinyl]propoxy]-2-methyl-3,4-dihydroisoquinolin-1-one

> <PUBCHEM_IUPAC_NAME_MARKUP>
7-[3-[4-(6-fluoro-1,2-benzoxazol-3-yl)piperidin-1-yl]propoxy]-2-methyl-3,4-dihydroisoquinolin-1-one

> <PUBCHEM_IUPAC_NAME>
7-[3-[4-(6-fluoro-1,2-benzoxazol-3-yl)piperidin-1-yl]propoxy]-2-methyl-3,4-dihydroisoquinolin-1-one

> <PUBCHEM_IUPAC_SYSTEMATIC_NAME>
7-[3-[4-(6-fluoranyl-1,2-benzoxazol-3-yl)piperidin-1-yl]propoxy]-2-methyl-3,4-dihydroisoquinolin-1-one

> <PUBCHEM_IUPAC_TRADITIONAL_NAME>
7-[3-[4-(6-fluoroindoxazen-3-yl)piperidino]propoxy]-2-methyl-3,4-dihydroisocarbostyril

> <PUBCHEM_IUPAC_INCHI>
InChI=1S/C25H28FN3O3/c1-28-11-7-17-3-5-20(16-22(17)25(28)30)31-14-2-10-29-12-8-18(9-13-29)24-21-6-4-19(26)15-23(21)32-27-24/h3-6,15-16,18H,2,7-14H2,1H3

> <PUBCHEM_IUPAC_INCHIKEY>
RDGPIFCCGRDXMY-UHFFFAOYSA-N

> <PUBCHEM_XLOGP3_AA>
3.9

> <PUBCHEM_EXACT_MASS>
437.21146993

> <PUBCHEM_MOLECULAR_FORMULA>
C25H28FN3O3

> <PUBCHEM_MOLECULAR_WEIGHT>
437.5

> <PUBCHEM_OPENEYE_CAN_SMILES>
CN1CCC2=C(C1=O)C=C(C=C2)OCCCN3CCC(CC3)C4=NOC5=C4C=CC(=C5)F

> <PUBCHEM_OPENEYE_ISO_SMILES>
CN1CCC2=C(C1=O)C=C(C=C2)OCCCN3CCC(CC3)C4=NOC5=C4C=CC(=C5)F

> <PUBCHEM_CACTVS_TPSA>
58.8

> <PUBCHEM_MONOISOTOPIC_WEIGHT>
437.21146993

> <PUBCHEM_TOTAL_CHARGE>
0

> <PUBCHEM_HEAVY_ATOM_COUNT>
32

> <PUBCHEM_ATOM_DEF_STEREO_COUNT>
0

> <PUBCHEM_ATOM_UDEF_STEREO_COUNT>
0

> <PUBCHEM_BOND_DEF_STEREO_COUNT>
0

> <PUBCHEM_BOND_UDEF_STEREO_COUNT>
0

> <PUBCHEM_ISOTOPIC_ATOM_COUNT>
0

> <PUBCHEM_COMPONENT_COUNT>
1

> <PUBCHEM_CACTVS_TAUTO_COUNT>
-1

> <PUBCHEM_COORDINATE_TYPE>
1
5
255

> <PUBCHEM_BONDANNOTATIONS>
14  16  8
16  18  8
16  19  8
18  20  8
19  25  8
2  18  8
2  6  8
20  27  8
22  23  8
22  30  8
23  28  8
25  27  8
26  28  8
26  31  8
30  31  8
6  14  8

$$$$
