164916944
  -OEChem-09292322442D

 61 64  0     1  0  0  0  0  0999 V2000
    8.3583   -0.9183    0.0000 O   0  0  0  0  0  0  0  0  0  0  0  0
    7.2602    0.4478    0.0000 N   0  0  3  0  0  0  0  0  0  0  0  0
    9.1847   -1.9031    0.0000 N   0  0  0  0  0  0  0  0  0  0  0  0
    2.0000   -0.5797    0.0000 N   0  0  0  0  0  0  0  0  0  0  0  0
    9.8583   -0.0522    0.0000 C   0  0  0  0  0  0  0  0  0  0  0  0
    8.9923    0.4478    0.0000 C   0  0  0  0  0  0  0  0  0  0  0  0
    8.1263   -0.0522    0.0000 C   0  0  0  0  0  0  0  0  0  0  0  0
    7.2602    1.4478    0.0000 C   0  0  0  0  0  0  0  0  0  0  0  0
    6.3942   -0.0522    0.0000 C   0  0  0  0  0  0  0  0  0  0  0  0
    6.3942    1.9478    0.0000 C   0  0  0  0  0  0  0  0  0  0  0  0
   10.7243   -0.5522    0.0000 C   0  0  0  0  0  0  0  0  0  0  0  0
   10.3583    0.8138    0.0000 C   0  0  0  0  0  0  0  0  0  0  0  0
    5.5282    0.4478    0.0000 C   0  0  0  0  0  0  0  0  0  0  0  0
    5.5282    1.4478    0.0000 C   0  0  0  0  0  0  0  0  0  0  0  0
    9.3583   -0.9183    0.0000 C   0  0  0  0  0  0  0  0  0  0  0  0
    4.6342   -0.0869    0.0000 C   0  0  0  0  0  0  0  0  0  0  0  0
   11.5904   -0.0522    0.0000 C   0  0  0  0  0  0  0  0  0  0  0  0
   11.3583    0.8138    0.0000 C   0  0  0  0  0  0  0  0  0  0  0  0
   10.7243   -1.5522    0.0000 C   0  0  0  0  0  0  0  0  0  0  0  0
    9.8583    1.6798    0.0000 C   0  0  0  0  0  0  0  0  0  0  0  0
    4.6342    1.9824    0.0000 C   0  0  0  0  0  0  0  0  0  0  0  0
    3.7282    0.4270    0.0000 C   0  0  0  0  0  0  0  0  0  0  0  0
    3.7282    1.4686    0.0000 C   0  0  0  0  0  0  0  0  0  0  0  0
   12.4564   -0.5522    0.0000 C   0  0  0  0  0  0  0  0  0  0  0  0
   11.8583    1.6798    0.0000 C   0  0  0  0  0  0  0  0  0  0  0  0
   11.5904   -2.0522    0.0000 C   0  0  0  0  0  0  0  0  0  0  0  0
   10.3583    2.5458    0.0000 C   0  0  0  0  0  0  0  0  0  0  0  0
    8.2451   -2.2452    0.0000 C   0  0  0  0  0  0  0  0  0  0  0  0
    9.9507   -2.5458    0.0000 C   0  0  0  0  0  0  0  0  0  0  0  0
   12.4564   -1.5522    0.0000 C   0  0  0  0  0  0  0  0  0  0  0  0
   11.3583    2.5458    0.0000 C   0  0  0  0  0  0  0  0  0  0  0  0
    2.8641   -0.0764    0.0000 C   0  0  0  0  0  0  0  0  0  0  0  0
    9.3908    0.9227    0.0000 H   0  0  0  0  0  0  0  0  0  0  0  0
    8.5938    0.9227    0.0000 H   0  0  0  0  0  0  0  0  0  0  0  0
    7.7277   -0.5272    0.0000 H   0  0  0  0  0  0  0  0  0  0  0  0
    8.5248   -0.5272    0.0000 H   0  0  0  0  0  0  0  0  0  0  0  0
    7.8708    1.3401    0.0000 H   0  0  0  0  0  0  0  0  0  0  0  0
    7.4723    2.0304    0.0000 H   0  0  0  0  0  0  0  0  0  0  0  0
    5.9957   -0.5272    0.0000 H   0  0  0  0  0  0  0  0  0  0  0  0
    6.7928   -0.5272    0.0000 H   0  0  0  0  0  0  0  0  0  0  0  0
    6.7928    2.4227    0.0000 H   0  0  0  0  0  0  0  0  0  0  0  0
    5.9957    2.4227    0.0000 H   0  0  0  0  0  0  0  0  0  0  0  0
    4.6414   -0.7068    0.0000 H   0  0  0  0  0  0  0  0  0  0  0  0
   11.5904    0.5678    0.0000 H   0  0  0  0  0  0  0  0  0  0  0  0
   11.6683    0.2769    0.0000 H   0  0  0  0  0  0  0  0  0  0  0  0
   10.1874   -1.8622    0.0000 H   0  0  0  0  0  0  0  0  0  0  0  0
    9.2383    1.6798    0.0000 H   0  0  0  0  0  0  0  0  0  0  0  0
    4.6414    2.6024    0.0000 H   0  0  0  0  0  0  0  0  0  0  0  0
    3.1924    1.7807    0.0000 H   0  0  0  0  0  0  0  0  0  0  0  0
   12.9933   -0.2422    0.0000 H   0  0  0  0  0  0  0  0  0  0  0  0
   12.4783    1.6798    0.0000 H   0  0  0  0  0  0  0  0  0  0  0  0
   11.5904   -2.6722    0.0000 H   0  0  0  0  0  0  0  0  0  0  0  0
   10.0483    3.0828    0.0000 H   0  0  0  0  0  0  0  0  0  0  0  0
    8.0330   -1.6626    0.0000 H   0  0  0  0  0  0  0  0  0  0  0  0
    7.6625   -2.4572    0.0000 H   0  0  0  0  0  0  0  0  0  0  0  0
    8.4572   -2.8277    0.0000 H   0  0  0  0  0  0  0  0  0  0  0  0
    9.5522   -3.0208    0.0000 H   0  0  0  0  0  0  0  0  0  0  0  0
   10.4257   -2.9444    0.0000 H   0  0  0  0  0  0  0  0  0  0  0  0
   10.3492   -2.0709    0.0000 H   0  0  0  0  0  0  0  0  0  0  0  0
   12.9933   -1.8622    0.0000 H   0  0  0  0  0  0  0  0  0  0  0  0
   11.6683    3.0828    0.0000 H   0  0  0  0  0  0  0  0  0  0  0  0
  1 15  2  0  0  0  0
  2  7  1  0  0  0  0
  2  8  1  0  0  0  0
  2  9  1  0  0  0  0
  3 15  1  0  0  0  0
  3 28  1  0  0  0  0
  3 29  1  0  0  0  0
  4 32  3  0  0  0  0
  5  6  1  0  0  0  0
  5 11  1  0  0  0  0
  5 12  1  0  0  0  0
  5 15  1  0  0  0  0
  6  7  1  0  0  0  0
  6 33  1  0  0  0  0
  6 34  1  0  0  0  0
  7 35  1  0  0  0  0
  7 36  1  0  0  0  0
  8 10  1  0  0  0  0
  8 37  1  0  0  0  0
  8 38  1  0  0  0  0
  9 13  1  0  0  0  0
  9 39  1  0  0  0  0
  9 40  1  0  0  0  0
 10 14  1  0  0  0  0
 10 41  1  0  0  0  0
 10 42  1  0  0  0  0
 11 17  2  0  0  0  0
 11 19  1  0  0  0  0
 12 18  2  0  0  0  0
 12 20  1  0  0  0  0
 13 14  2  0  0  0  0
 13 16  1  0  0  0  0
 14 21  1  0  0  0  0
 16 22  2  0  0  0  0
 16 43  1  0  0  0  0
 17 24  1  0  0  0  0
 17 44  1  0  0  0  0
 18 25  1  0  0  0  0
 18 45  1  0  0  0  0
 19 26  2  0  0  0  0
 19 46  1  0  0  0  0
 20 27  2  0  0  0  0
 20 47  1  0  0  0  0
 21 23  2  0  0  0  0
 21 48  1  0  0  0  0
 22 23  1  0  0  0  0
 22 32  1  0  0  0  0
 23 49  1  0  0  0  0
 24 30  2  0  0  0  0
 24 50  1  0  0  0  0
 25 31  2  0  0  0  0
 25 51  1  0  0  0  0
 26 30  1  0  0  0  0
 26 52  1  0  0  0  0
 27 31  1  0  0  0  0
 27 53  1  0  0  0  0
 28 54  1  0  0  0  0
 28 55  1  0  0  0  0
 28 56  1  0  0  0  0
 29 57  1  0  0  0  0
 29 58  1  0  0  0  0
 29 59  1  0  0  0  0
 30 60  1  0  0  0  0
 31 61  1  0  0  0  0
M  END
> <PUBCHEM_COMPOUND_CID>
164916944

> <PUBCHEM_COMPOUND_CANONICALIZED>
1

> <PUBCHEM_CACTVS_COMPLEXITY>
649

> <PUBCHEM_CACTVS_HBOND_ACCEPTOR>
3

> <PUBCHEM_CACTVS_HBOND_DONOR>
0

> <PUBCHEM_CACTVS_ROTATABLE_BOND>
6

> <PUBCHEM_CACTVS_SUBSKEYS>
AAADceB7IAAAAAAAAAAAAAAAAAAAAAAAAAA8YMEAAAAAAACxUAAAHgAAAAAADgDBmAQyAIMAAACYBiFSEACiAAAgAAAIiAEIBIgIoDKAlRGEIAhgggCIiA8ciMCPwAACAAAQAACAAAQAACAAAAAAAAAAAA==

> <PUBCHEM_IUPAC_OPENEYE_NAME>
4-(7-cyano-3,4-dihydro-1H-isoquinolin-2-yl)-N,N-dimethyl-2,2-diphenyl-butanamide

> <PUBCHEM_IUPAC_CAS_NAME>
4-(7-cyano-3,4-dihydro-1H-isoquinolin-2-yl)-N,N-dimethyl-2,2-diphenylbutanamide

> <PUBCHEM_IUPAC_NAME_MARKUP>
4-(7-cyano-3,4-dihydro-1<I>H</I>-isoquinolin-2-yl)-<I>N</I>,<I>N</I>-dimethyl-2,2-diphenylbutanamide

> <PUBCHEM_IUPAC_NAME>
4-(7-cyano-3,4-dihydro-1H-isoquinolin-2-yl)-N,N-dimethyl-2,2-diphenylbutanamide

> <PUBCHEM_IUPAC_SYSTEMATIC_NAME>
4-(7-cyano-3,4-dihydro-1H-isoquinolin-2-yl)-N,N-dimethyl-2,2-diphenyl-butanamide

> <PUBCHEM_IUPAC_TRADITIONAL_NAME>
4-(7-cyano-3,4-dihydro-1H-isoquinolin-2-yl)-N,N-dimethyl-2,2-diphenyl-butyramide

> <PUBCHEM_IUPAC_INCHI>
InChI=1S/C28H29N3O/c1-30(2)27(32)28(25-9-5-3-6-10-25,26-11-7-4-8-12-26)16-18-31-17-15-23-14-13-22(20-29)19-24(23)21-31/h3-14,19H,15-18,21H2,1-2H3

> <PUBCHEM_IUPAC_INCHIKEY>
LRAXIKDADSVQMU-UHFFFAOYSA-N

> <PUBCHEM_XLOGP3_AA>
4.5

> <PUBCHEM_EXACT_MASS>
423.231062557

> <PUBCHEM_MOLECULAR_FORMULA>
C28H29N3O

> <PUBCHEM_MOLECULAR_WEIGHT>
423.5

> <PUBCHEM_OPENEYE_CAN_SMILES>
CN(C)C(=O)C(CCN1CCC2=C(C1)C=C(C=C2)C#N)(C3=CC=CC=C3)C4=CC=CC=C4

> <PUBCHEM_OPENEYE_ISO_SMILES>
CN(C)C(=O)C(CCN1CCC2=C(C1)C=C(C=C2)C#N)(C3=CC=CC=C3)C4=CC=CC=C4

> <PUBCHEM_CACTVS_TPSA>
47.3

> <PUBCHEM_MONOISOTOPIC_WEIGHT>
423.231062557

> <PUBCHEM_TOTAL_CHARGE>
0

> <PUBCHEM_HEAVY_ATOM_COUNT>
32

> <PUBCHEM_ATOM_DEF_STEREO_COUNT>
0

> <PUBCHEM_ATOM_UDEF_STEREO_COUNT>
0

> <PUBCHEM_BOND_DEF_STEREO_COUNT>
0

> <PUBCHEM_BOND_UDEF_STEREO_COUNT>
0

> <PUBCHEM_ISOTOPIC_ATOM_COUNT>
0

> <PUBCHEM_COMPONENT_COUNT>
1

> <PUBCHEM_CACTVS_TAUTO_COUNT>
-1

> <PUBCHEM_COORDINATE_TYPE>
1
5
255

> <PUBCHEM_BONDANNOTATIONS>
11  17  8
11  19  8
12  18  8
12  20  8
13  14  8
13  16  8
14  21  8
16  22  8
17  24  8
18  25  8
19  26  8
20  27  8
21  23  8
22  23  8
24  30  8
25  31  8
26  30  8
27  31  8

$$$$
