45261752
  -OEChem-09292322132D

 54 56  0     0  0  0  0  0  0999 V2000
    7.5468    4.5801    0.0000 Cl  0  0  0  0  0  0  0  0  0  0  0  0
    0.5901    5.4750    0.0000 O   0  0  0  0  0  0  0  0  0  0  0  0
    2.3222    3.4750    0.0000 N   0  0  0  0  0  0  0  0  0  0  0  0
    2.3222    5.4750    0.0000 C   0  0  0  0  0  0  0  0  0  0  0  0
    1.4562    4.9750    0.0000 C   0  0  0  0  0  0  0  0  0  0  0  0
    3.1882    4.9750    0.0000 C   0  0  0  0  0  0  0  0  0  0  0  0
    1.4562    3.9750    0.0000 C   0  0  0  0  0  0  0  0  0  0  0  0
    3.1882    3.9750    0.0000 C   0  0  0  0  0  0  0  0  0  0  0  0
    3.1882    5.9750    0.0000 C   0  0  0  0  0  0  0  0  0  0  0  0
    3.1882    1.9750    0.0000 C   0  0  0  0  0  0  0  0  0  0  0  0
    2.3222    2.4750    0.0000 C   0  0  0  0  0  0  0  0  0  0  0  0
    1.4562    5.9750    0.0000 C   0  0  0  0  0  0  0  0  0  0  0  0
    3.1882    0.9749    0.0000 C   0  0  0  0  0  0  0  0  0  0  0  0
    4.0542    2.4750    0.0000 C   0  0  0  0  0  0  0  0  0  0  0  0
    3.1882    6.9750    0.0000 C   0  0  0  0  0  0  0  0  0  0  0  0
    4.0542    0.4749    0.0000 C   0  0  0  0  0  0  0  0  0  0  0  0
    4.9203    1.9750    0.0000 C   0  0  0  0  0  0  0  0  0  0  0  0
    1.4562    6.9750    0.0000 C   0  0  0  0  0  0  0  0  0  0  0  0
    4.9203    0.9749    0.0000 C   0  0  0  0  0  0  0  0  0  0  0  0
    2.3222    7.4750    0.0000 C   0  0  0  0  0  0  0  0  0  0  0  0
    0.5462    7.4818    0.0000 C   0  0  0  0  0  0  0  0  0  0  0  0
    2.3382    8.5165    0.0000 C   0  0  0  0  0  0  0  0  0  0  0  0
    0.5381    8.5234    0.0000 C   0  0  0  0  0  0  0  0  0  0  0  0
    1.4402    9.0442    0.0000 C   0  0  0  0  0  0  0  0  0  0  0  0
    1.2441    5.5576    0.0000 H   0  0  0  0  0  0  0  0  0  0  0  0
    0.8456    4.8673    0.0000 H   0  0  0  0  0  0  0  0  0  0  0  0
    3.7988    4.8673    0.0000 H   0  0  0  0  0  0  0  0  0  0  0  0
    3.4003    5.5576    0.0000 H   0  0  0  0  0  0  0  0  0  0  0  0
    0.8456    4.0826    0.0000 H   0  0  0  0  0  0  0  0  0  0  0  0
    1.2441    3.3923    0.0000 H   0  0  0  0  0  0  0  0  0  0  0  0
    3.4003    3.3923    0.0000 H   0  0  0  0  0  0  0  0  0  0  0  0
    3.7988    4.0826    0.0000 H   0  0  0  0  0  0  0  0  0  0  0  0
    3.4003    5.3923    0.0000 H   0  0  0  0  0  0  0  0  0  0  0  0
    3.7988    6.0826    0.0000 H   0  0  0  0  0  0  0  0  0  0  0  0
    3.1882    2.5950    0.0000 H   0  0  0  0  0  0  0  0  0  0  0  0
    1.7116    2.5826    0.0000 H   0  0  0  0  0  0  0  0  0  0  0  0
    2.1101    1.8923    0.0000 H   0  0  0  0  0  0  0  0  0  0  0  0
    2.5776    1.0826    0.0000 H   0  0  0  0  0  0  0  0  0  0  0  0
    2.9762    0.3923    0.0000 H   0  0  0  0  0  0  0  0  0  0  0  0
    4.4528    2.9499    0.0000 H   0  0  0  0  0  0  0  0  0  0  0  0
    3.6557    2.9499    0.0000 H   0  0  0  0  0  0  0  0  0  0  0  0
    3.7988    6.8673    0.0000 H   0  0  0  0  0  0  0  0  0  0  0  0
    3.4003    7.5576    0.0000 H   0  0  0  0  0  0  0  0  0  0  0  0
    3.6557    0.0000    0.0000 H   0  0  0  0  0  0  0  0  0  0  0  0
    4.4528    0.0000    0.0000 H   0  0  0  0  0  0  0  0  0  0  0  0
    5.5308    1.8673    0.0000 H   0  0  0  0  0  0  0  0  0  0  0  0
    5.1323    2.5576    0.0000 H   0  0  0  0  0  0  0  0  0  0  0  0
    5.1323    0.3923    0.0000 H   0  0  0  0  0  0  0  0  0  0  0  0
    5.5308    1.0826    0.0000 H   0  0  0  0  0  0  0  0  0  0  0  0
    0.0128    7.1656    0.0000 H   0  0  0  0  0  0  0  0  0  0  0  0
    2.8787    8.8202    0.0000 H   0  0  0  0  0  0  0  0  0  0  0  0
    0.0000    8.8313    0.0000 H   0  0  0  0  0  0  0  0  0  0  0  0
    1.4426    9.6642    0.0000 H   0  0  0  0  0  0  0  0  0  0  0  0
    8.5468    4.5801    0.0000 H   0  0  0  0  0  0  0  0  0  0  0  0
  1 54  1  0  0  0  0
  2 12  2  0  0  0  0
  3  7  1  0  0  0  0
  3  8  1  0  0  0  0
  3 11  1  0  0  0  0
  4  5  1  0  0  0  0
  4  6  1  0  0  0  0
  4  9  1  0  0  0  0
  4 12  1  0  0  0  0
  5  7  1  0  0  0  0
  5 25  1  0  0  0  0
  5 26  1  0  0  0  0
  6  8  1  0  0  0  0
  6 27  1  0  0  0  0
  6 28  1  0  0  0  0
  7 29  1  0  0  0  0
  7 30  1  0  0  0  0
  8 31  1  0  0  0  0
  8 32  1  0  0  0  0
  9 15  1  0  0  0  0
  9 33  1  0  0  0  0
  9 34  1  0  0  0  0
 10 11  1  0  0  0  0
 10 13  1  0  0  0  0
 10 14  1  0  0  0  0
 10 35  1  0  0  0  0
 11 36  1  0  0  0  0
 11 37  1  0  0  0  0
 12 18  1  0  0  0  0
 13 16  1  0  0  0  0
 13 38  1  0  0  0  0
 13 39  1  0  0  0  0
 14 17  1  0  0  0  0
 14 40  1  0  0  0  0
 14 41  1  0  0  0  0
 15 20  1  0  0  0  0
 15 42  1  0  0  0  0
 15 43  1  0  0  0  0
 16 19  1  0  0  0  0
 16 44  1  0  0  0  0
 16 45  1  0  0  0  0
 17 19  1  0  0  0  0
 17 46  1  0  0  0  0
 17 47  1  0  0  0  0
 18 20  1  0  0  0  0
 18 21  2  0  0  0  0
 19 48  1  0  0  0  0
 19 49  1  0  0  0  0
 20 22  2  0  0  0  0
 21 23  1  0  0  0  0
 21 50  1  0  0  0  0
 22 24  1  0  0  0  0
 22 51  1  0  0  0  0
 23 24  2  0  0  0  0
 23 52  1  0  0  0  0
 24 53  1  0  0  0  0
M  END
> <PUBCHEM_COMPOUND_CID>
45261752

> <PUBCHEM_COMPOUND_CANONICALIZED>
1

> <PUBCHEM_CACTVS_COMPLEXITY>
418

> <PUBCHEM_CACTVS_HBOND_ACCEPTOR>
2

> <PUBCHEM_CACTVS_HBOND_DONOR>
1

> <PUBCHEM_CACTVS_ROTATABLE_BOND>
2

> <PUBCHEM_CACTVS_SUBSKEYS>
AAADceB6IAAEAAAAAAAAAAAAAAAAAAAAAAA8YMEAAAAAAADBAAAAHgAAAAAADwTBmAQwAIMAAACIAqBSAAACAAAkAAAIiAEIAMgIIDKAlRCEIQAggACIiYcciMCPgAAAAAAQAACAAAQAACAAAAAAAAAAAA==

> <PUBCHEM_IUPAC_OPENEYE_NAME>
1-(cyclohexylmethyl)spiro[piperidine-4,2'-tetralin]-1'-one;hydrochloride

> <PUBCHEM_IUPAC_CAS_NAME>
1'-(cyclohexylmethyl)-1-spiro[3,4-dihydronaphthalene-2,4'-piperidine]one;hydrochloride

> <PUBCHEM_IUPAC_NAME_MARKUP>
1&apos;-(cyclohexylmethyl)spiro[3,4-dihydronaphthalene-2,4&apos;-piperidine]-1-one;hydrochloride

> <PUBCHEM_IUPAC_NAME>
1'-(cyclohexylmethyl)spiro[3,4-dihydronaphthalene-2,4'-piperidine]-1-one;hydrochloride

> <PUBCHEM_IUPAC_SYSTEMATIC_NAME>
1'-(cyclohexylmethyl)spiro[3,4-dihydronaphthalene-2,4'-piperidine]-1-one;hydrochloride

> <PUBCHEM_IUPAC_TRADITIONAL_NAME>
1-(cyclohexylmethyl)spiro[piperidine-4,2'-tetralin]-1'-one;hydrochloride

> <PUBCHEM_IUPAC_INCHI>
InChI=1S/C21H29NO.ClH/c23-20-19-9-5-4-8-18(19)10-11-21(20)12-14-22(15-13-21)16-17-6-2-1-3-7-17;/h4-5,8-9,17H,1-3,6-7,10-16H2;1H

> <PUBCHEM_IUPAC_INCHIKEY>
XFNVJEAESHOKTJ-UHFFFAOYSA-N

> <PUBCHEM_EXACT_MASS>
347.2015923

> <PUBCHEM_MOLECULAR_FORMULA>
C21H30ClNO

> <PUBCHEM_MOLECULAR_WEIGHT>
347.9

> <PUBCHEM_OPENEYE_CAN_SMILES>
C1CCC(CC1)CN2CCC3(CCC4=CC=CC=C4C3=O)CC2.Cl

> <PUBCHEM_OPENEYE_ISO_SMILES>
C1CCC(CC1)CN2CCC3(CCC4=CC=CC=C4C3=O)CC2.Cl

> <PUBCHEM_CACTVS_TPSA>
20.3

> <PUBCHEM_MONOISOTOPIC_WEIGHT>
347.2015923

> <PUBCHEM_TOTAL_CHARGE>
0

> <PUBCHEM_HEAVY_ATOM_COUNT>
24

> <PUBCHEM_ATOM_DEF_STEREO_COUNT>
0

> <PUBCHEM_ATOM_UDEF_STEREO_COUNT>
0

> <PUBCHEM_BOND_DEF_STEREO_COUNT>
0

> <PUBCHEM_BOND_UDEF_STEREO_COUNT>
0

> <PUBCHEM_ISOTOPIC_ATOM_COUNT>
0

> <PUBCHEM_COMPONENT_COUNT>
2

> <PUBCHEM_CACTVS_TAUTO_COUNT>
-1

> <PUBCHEM_COORDINATE_TYPE>
1
5
255

> <PUBCHEM_BONDANNOTATIONS>
18  20  8
18  21  8
20  22  8
21  23  8
22  24  8
23  24  8

$$$$
