168295015
  -OEChem-09292322442D

 64 66  0     0  0  0  0  0  0999 V2000
    4.9338   11.1319    0.0000 O   0  0  0  0  0  0  0  0  0  0  0  0
    3.6014    1.5000    0.0000 O   0  0  0  0  0  0  0  0  0  0  0  0
    6.1995    1.0000    0.0000 O   0  0  0  0  0  0  0  0  0  0  0  0
    4.4674    0.0000    0.0000 O   0  0  0  0  0  0  0  0  0  0  0  0
    5.3335    2.5000    0.0000 O   0  0  0  0  0  0  0  0  0  0  0  0
    4.9338    8.1319    0.0000 N   0  0  0  0  0  0  0  0  0  0  0  0
    6.6659    7.1319    0.0000 N   0  0  0  0  0  0  0  0  0  0  0  0
    3.2018   11.1319    0.0000 N   0  0  0  0  0  0  0  0  0  0  0  0
    5.7998    8.6319    0.0000 C   0  0  0  0  0  0  0  0  0  0  0  0
    4.9338    7.1319    0.0000 C   0  0  0  0  0  0  0  0  0  0  0  0
    6.6659    8.1319    0.0000 C   0  0  0  0  0  0  0  0  0  0  0  0
    5.7998    6.6319    0.0000 C   0  0  0  0  0  0  0  0  0  0  0  0
    4.0678    8.6319    0.0000 C   0  0  0  0  0  0  0  0  0  0  0  0
    4.0678    9.6319    0.0000 C   0  0  0  0  0  0  0  0  0  0  0  0
    3.2018   10.1319    0.0000 C   0  0  0  0  0  0  0  0  0  0  0  0
    7.5319    6.6319    0.0000 C   0  0  0  0  0  0  0  0  0  0  0  0
    2.3358   11.6319    0.0000 C   0  0  0  0  0  0  0  0  0  0  0  0
    3.2018   13.1319    0.0000 C   0  0  0  0  0  0  0  0  0  0  0  0
    2.3358   12.6319    0.0000 C   0  0  0  0  0  0  0  0  0  0  0  0
    4.0678   12.6319    0.0000 C   0  0  0  0  0  0  0  0  0  0  0  0
    4.0678   11.6319    0.0000 C   0  0  0  0  0  0  0  0  0  0  0  0
    8.3979    7.1319    0.0000 C   0  0  0  0  0  0  0  0  0  0  0  0
    7.5319    5.6319    0.0000 C   0  0  0  0  0  0  0  0  0  0  0  0
    1.4418   11.0972    0.0000 C   0  0  0  0  0  0  0  0  0  0  0  0
    1.4418   13.1666    0.0000 C   0  0  0  0  0  0  0  0  0  0  0  0
    9.2640    6.6319    0.0000 C   0  0  0  0  0  0  0  0  0  0  0  0
    8.3979    8.1319    0.0000 C   0  0  0  0  0  0  0  0  0  0  0  0
    8.3979    5.1319    0.0000 C   0  0  0  0  0  0  0  0  0  0  0  0
    0.5357   11.6111    0.0000 C   0  0  0  0  0  0  0  0  0  0  0  0
    0.5357   12.6527    0.0000 C   0  0  0  0  0  0  0  0  0  0  0  0
    9.2640    5.6319    0.0000 C   0  0  0  0  0  0  0  0  0  0  0  0
    4.4674    1.0000    0.0000 C   0  0  0  0  0  0  0  0  0  0  0  0
    5.3335    1.5000    0.0000 C   0  0  0  0  0  0  0  0  0  0  0  0
    6.1984    9.1068    0.0000 H   0  0  0  0  0  0  0  0  0  0  0  0
    5.4013    9.1068    0.0000 H   0  0  0  0  0  0  0  0  0  0  0  0
    4.3232    7.2396    0.0000 H   0  0  0  0  0  0  0  0  0  0  0  0
    4.7218    6.5493    0.0000 H   0  0  0  0  0  0  0  0  0  0  0  0
    7.2764    8.0242    0.0000 H   0  0  0  0  0  0  0  0  0  0  0  0
    6.8779    8.7145    0.0000 H   0  0  0  0  0  0  0  0  0  0  0  0
    5.4013    6.1570    0.0000 H   0  0  0  0  0  0  0  0  0  0  0  0
    6.1984    6.1570    0.0000 H   0  0  0  0  0  0  0  0  0  0  0  0
    3.4572    8.7396    0.0000 H   0  0  0  0  0  0  0  0  0  0  0  0
    3.8557    8.0493    0.0000 H   0  0  0  0  0  0  0  0  0  0  0  0
    4.6784    9.5242    0.0000 H   0  0  0  0  0  0  0  0  0  0  0  0
    4.2798   10.2145    0.0000 H   0  0  0  0  0  0  0  0  0  0  0  0
    2.5912   10.2396    0.0000 H   0  0  0  0  0  0  0  0  0  0  0  0
    2.9897    9.5493    0.0000 H   0  0  0  0  0  0  0  0  0  0  0  0
    3.6003   13.6068    0.0000 H   0  0  0  0  0  0  0  0  0  0  0  0
    2.8032   13.6068    0.0000 H   0  0  0  0  0  0  0  0  0  0  0  0
    4.6784   12.5242    0.0000 H   0  0  0  0  0  0  0  0  0  0  0  0
    4.2798   13.2145    0.0000 H   0  0  0  0  0  0  0  0  0  0  0  0
    6.9950    5.3219    0.0000 H   0  0  0  0  0  0  0  0  0  0  0  0
    1.4490   10.4773    0.0000 H   0  0  0  0  0  0  0  0  0  0  0  0
    1.4490   13.7865    0.0000 H   0  0  0  0  0  0  0  0  0  0  0  0
    9.8009    6.9419    0.0000 H   0  0  0  0  0  0  0  0  0  0  0  0
    9.0179    8.1319    0.0000 H   0  0  0  0  0  0  0  0  0  0  0  0
    8.3979    8.7519    0.0000 H   0  0  0  0  0  0  0  0  0  0  0  0
    7.7779    8.1319    0.0000 H   0  0  0  0  0  0  0  0  0  0  0  0
    8.3979    4.5119    0.0000 H   0  0  0  0  0  0  0  0  0  0  0  0
    0.0000   11.2990    0.0000 H   0  0  0  0  0  0  0  0  0  0  0  0
    0.0000   12.9648    0.0000 H   0  0  0  0  0  0  0  0  0  0  0  0
    9.8009    5.3219    0.0000 H   0  0  0  0  0  0  0  0  0  0  0  0
    3.0645    1.1900    0.0000 H   0  0  0  0  0  0  0  0  0  0  0  0
    6.7364    1.3100    0.0000 H   0  0  0  0  0  0  0  0  0  0  0  0
  1 21  2  0  0  0  0
  2 32  1  0  0  0  0
  2 63  1  0  0  0  0
  3 33  1  0  0  0  0
  3 64  1  0  0  0  0
  4 32  2  0  0  0  0
  5 33  2  0  0  0  0
  6  9  1  0  0  0  0
  6 10  1  0  0  0  0
  6 13  1  0  0  0  0
  7 11  1  0  0  0  0
  7 12  1  0  0  0  0
  7 16  1  0  0  0  0
  8 15  1  0  0  0  0
  8 17  1  0  0  0  0
  8 21  1  0  0  0  0
  9 11  1  0  0  0  0
  9 34  1  0  0  0  0
  9 35  1  0  0  0  0
 10 12  1  0  0  0  0
 10 36  1  0  0  0  0
 10 37  1  0  0  0  0
 11 38  1  0  0  0  0
 11 39  1  0  0  0  0
 12 40  1  0  0  0  0
 12 41  1  0  0  0  0
 13 14  1  0  0  0  0
 13 42  1  0  0  0  0
 13 43  1  0  0  0  0
 14 15  1  0  0  0  0
 14 44  1  0  0  0  0
 14 45  1  0  0  0  0
 15 46  1  0  0  0  0
 15 47  1  0  0  0  0
 16 22  1  0  0  0  0
 16 23  2  0  0  0  0
 17 19  1  0  0  0  0
 17 24  2  0  0  0  0
 18 19  1  0  0  0  0
 18 20  1  0  0  0  0
 18 48  1  0  0  0  0
 18 49  1  0  0  0  0
 19 25  2  0  0  0  0
 20 21  1  0  0  0  0
 20 50  1  0  0  0  0
 20 51  1  0  0  0  0
 22 26  2  0  0  0  0
 22 27  1  0  0  0  0
 23 28  1  0  0  0  0
 23 52  1  0  0  0  0
 24 29  1  0  0  0  0
 24 53  1  0  0  0  0
 25 30  1  0  0  0  0
 25 54  1  0  0  0  0
 26 31  1  0  0  0  0
 26 55  1  0  0  0  0
 27 56  1  0  0  0  0
 27 57  1  0  0  0  0
 27 58  1  0  0  0  0
 28 31  2  0  0  0  0
 28 59  1  0  0  0  0
 29 30  2  0  0  0  0
 29 60  1  0  0  0  0
 30 61  1  0  0  0  0
 31 62  1  0  0  0  0
 32 33  1  0  0  0  0
M  END
> <PUBCHEM_COMPOUND_CID>
168295015

> <PUBCHEM_COMPOUND_CANONICALIZED>
1

> <PUBCHEM_CACTVS_COMPLEXITY>
560

> <PUBCHEM_CACTVS_HBOND_ACCEPTOR>
7

> <PUBCHEM_CACTVS_HBOND_DONOR>
2

> <PUBCHEM_CACTVS_ROTATABLE_BOND>
6

> <PUBCHEM_CACTVS_SUBSKEYS>
AAADceB7OAAAAAAAAAAAAAAAAAAAAAAAAAA8eIEAAAAAAACxQAAAHgAACAAADAjBmAQyyIMAAgCIAiXSWAKCAAAhAgAIiAFIZIgJYDLA0ZGUIAhghgDJyAcYiYCeAAAAAAACAAAAAAAAAAQAAAAAAAAAAA==

> <PUBCHEM_IUPAC_OPENEYE_NAME>
1-[3-[4-(o-tolyl)piperazin-1-yl]propyl]-3,4-dihydroquinolin-2-one;oxalic acid

> <PUBCHEM_IUPAC_CAS_NAME>
1-[3-[4-(2-methylphenyl)-1-piperazinyl]propyl]-3,4-dihydroquinolin-2-one;oxalic acid

> <PUBCHEM_IUPAC_NAME_MARKUP>
1-[3-[4-(2-methylphenyl)piperazin-1-yl]propyl]-3,4-dihydroquinolin-2-one;oxalic acid

> <PUBCHEM_IUPAC_NAME>
1-[3-[4-(2-methylphenyl)piperazin-1-yl]propyl]-3,4-dihydroquinolin-2-one;oxalic acid

> <PUBCHEM_IUPAC_SYSTEMATIC_NAME>
ethanedioic acid;1-[3-[4-(2-methylphenyl)piperazin-1-yl]propyl]-3,4-dihydroquinolin-2-one

> <PUBCHEM_IUPAC_TRADITIONAL_NAME>
1-[3-[4-(o-tolyl)piperazino]propyl]-3,4-dihydrocarbostyril;oxalic acid

> <PUBCHEM_IUPAC_INCHI>
InChI=1S/C23H29N3O.C2H2O4/c1-19-7-2-4-9-21(19)25-17-15-24(16-18-25)13-6-14-26-22-10-5-3-8-20(22)11-12-23(26)27;3-1(4)2(5)6/h2-5,7-10H,6,11-18H2,1H3;(H,3,4)(H,5,6)

> <PUBCHEM_IUPAC_INCHIKEY>
CMVLINCMBQOVMI-UHFFFAOYSA-N

> <PUBCHEM_EXACT_MASS>
453.22637110

> <PUBCHEM_MOLECULAR_FORMULA>
C25H31N3O5

> <PUBCHEM_MOLECULAR_WEIGHT>
453.5

> <PUBCHEM_OPENEYE_CAN_SMILES>
CC1=CC=CC=C1N2CCN(CC2)CCCN3C(=O)CCC4=CC=CC=C43.C(=O)(C(=O)O)O

> <PUBCHEM_OPENEYE_ISO_SMILES>
CC1=CC=CC=C1N2CCN(CC2)CCCN3C(=O)CCC4=CC=CC=C43.C(=O)(C(=O)O)O

> <PUBCHEM_CACTVS_TPSA>
101

> <PUBCHEM_MONOISOTOPIC_WEIGHT>
453.22637110

> <PUBCHEM_TOTAL_CHARGE>
0

> <PUBCHEM_HEAVY_ATOM_COUNT>
33

> <PUBCHEM_ATOM_DEF_STEREO_COUNT>
0

> <PUBCHEM_ATOM_UDEF_STEREO_COUNT>
0

> <PUBCHEM_BOND_DEF_STEREO_COUNT>
0

> <PUBCHEM_BOND_UDEF_STEREO_COUNT>
0

> <PUBCHEM_ISOTOPIC_ATOM_COUNT>
0

> <PUBCHEM_COMPONENT_COUNT>
2

> <PUBCHEM_CACTVS_TAUTO_COUNT>
-1

> <PUBCHEM_COORDINATE_TYPE>
1
5
255

> <PUBCHEM_BONDANNOTATIONS>
16  22  8
16  23  8
17  19  8
17  24  8
19  25  8
22  26  8
23  28  8
24  29  8
25  30  8
26  31  8
28  31  8
29  30  8

$$$$
