44350752
  -OEChem-09292322122D

 79 81  0     0  0  0  0  0  0999 V2000
   14.0031   15.6200    0.0000 O   0  0  0  0  0  0  0  0  0  0  0  0
    8.8070    8.6200    0.0000 O   0  0  0  0  0  0  0  0  0  0  0  0
    7.0749    3.6200    0.0000 O   0  0  0  0  0  0  0  0  0  0  0  0
    0.5369    9.3700    0.0000 O   0  0  0  0  0  0  0  0  0  0  0  0
    3.1350    8.8700    0.0000 O   0  0  0  0  0  0  0  0  0  0  0  0
    1.4030    7.8700    0.0000 O   0  0  0  0  0  0  0  0  0  0  0  0
    2.2690   10.3700    0.0000 O   0  0  0  0  0  0  0  0  0  0  0  0
   12.2711   12.6200    0.0000 N   0  0  0  0  0  0  0  0  0  0  0  0
   12.2711   14.6200    0.0000 N   0  0  0  0  0  0  0  0  0  0  0  0
   10.5390    8.6200    0.0000 N   0  0  0  0  0  0  0  0  0  0  0  0
   13.1371   13.1200    0.0000 C   0  0  0  0  0  0  0  0  0  0  0  0
   11.4050   13.1200    0.0000 C   0  0  0  0  0  0  0  0  0  0  0  0
   13.1371   14.1200    0.0000 C   0  0  0  0  0  0  0  0  0  0  0  0
   11.4050   14.1200    0.0000 C   0  0  0  0  0  0  0  0  0  0  0  0
   12.2711   11.6200    0.0000 C   0  0  0  0  0  0  0  0  0  0  0  0
   11.4050   11.1200    0.0000 C   0  0  0  0  0  0  0  0  0  0  0  0
   12.2711   15.6200    0.0000 C   0  0  0  0  0  0  0  0  0  0  0  0
   11.4050   10.1200    0.0000 C   0  0  0  0  0  0  0  0  0  0  0  0
   10.5390    9.6200    0.0000 C   0  0  0  0  0  0  0  0  0  0  0  0
   13.1371   16.1200    0.0000 C   0  0  0  0  0  0  0  0  0  0  0  0
   11.4050   16.1200    0.0000 C   0  0  0  0  0  0  0  0  0  0  0  0
   13.1371   17.1200    0.0000 C   0  0  0  0  0  0  0  0  0  0  0  0
   11.4050   17.1200    0.0000 C   0  0  0  0  0  0  0  0  0  0  0  0
   12.2711   17.6200    0.0000 C   0  0  0  0  0  0  0  0  0  0  0  0
    9.6730    8.1200    0.0000 C   0  0  0  0  0  0  0  0  0  0  0  0
   14.8691   16.1200    0.0000 C   0  0  0  0  0  0  0  0  0  0  0  0
    9.6730    7.1200    0.0000 C   0  0  0  0  0  0  0  0  0  0  0  0
    8.8070    6.6200    0.0000 C   0  0  0  0  0  0  0  0  0  0  0  0
    8.8070    5.6200    0.0000 C   0  0  0  0  0  0  0  0  0  0  0  0
    7.9409    5.1200    0.0000 C   0  0  0  0  0  0  0  0  0  0  0  0
    9.6730    5.1200    0.0000 C   0  0  0  0  0  0  0  0  0  0  0  0
    7.9409    4.1200    0.0000 C   0  0  0  0  0  0  0  0  0  0  0  0
    9.6730    4.1200    0.0000 C   0  0  0  0  0  0  0  0  0  0  0  0
    8.8070    3.6200    0.0000 C   0  0  0  0  0  0  0  0  0  0  0  0
    7.0749    2.6200    0.0000 C   0  0  0  0  0  0  0  0  0  0  0  0
    7.9409    2.1200    0.0000 C   0  0  0  0  0  0  0  0  0  0  0  0
    6.2089    2.1200    0.0000 C   0  0  0  0  0  0  0  0  0  0  0  0
    7.9409    1.1200    0.0000 C   0  0  0  0  0  0  0  0  0  0  0  0
    6.2089    1.1200    0.0000 C   0  0  0  0  0  0  0  0  0  0  0  0
    7.0749    0.6200    0.0000 C   0  0  0  0  0  0  0  0  0  0  0  0
    1.4030    8.8700    0.0000 C   0  0  0  0  0  0  0  0  0  0  0  0
    2.2690    9.3700    0.0000 C   0  0  0  0  0  0  0  0  0  0  0  0
   13.3491   12.5374    0.0000 H   0  0  0  0  0  0  0  0  0  0  0  0
   13.7477   13.2277    0.0000 H   0  0  0  0  0  0  0  0  0  0  0  0
   10.7945   13.2277    0.0000 H   0  0  0  0  0  0  0  0  0  0  0  0
   11.1930   12.5374    0.0000 H   0  0  0  0  0  0  0  0  0  0  0  0
   13.7477   14.0123    0.0000 H   0  0  0  0  0  0  0  0  0  0  0  0
   13.3491   14.7026    0.0000 H   0  0  0  0  0  0  0  0  0  0  0  0
   11.1930   14.7026    0.0000 H   0  0  0  0  0  0  0  0  0  0  0  0
   10.7945   14.0123    0.0000 H   0  0  0  0  0  0  0  0  0  0  0  0
   12.4831   11.0374    0.0000 H   0  0  0  0  0  0  0  0  0  0  0  0
   12.8816   11.7277    0.0000 H   0  0  0  0  0  0  0  0  0  0  0  0
   11.1930   11.7026    0.0000 H   0  0  0  0  0  0  0  0  0  0  0  0
   10.7945   11.0123    0.0000 H   0  0  0  0  0  0  0  0  0  0  0  0
   11.6171    9.5374    0.0000 H   0  0  0  0  0  0  0  0  0  0  0  0
   12.0156   10.2277    0.0000 H   0  0  0  0  0  0  0  0  0  0  0  0
   10.3270   10.2026    0.0000 H   0  0  0  0  0  0  0  0  0  0  0  0
    9.9284    9.5123    0.0000 H   0  0  0  0  0  0  0  0  0  0  0  0
   10.8681   15.8100    0.0000 H   0  0  0  0  0  0  0  0  0  0  0  0
   13.6740   17.4300    0.0000 H   0  0  0  0  0  0  0  0  0  0  0  0
   10.8681   17.4300    0.0000 H   0  0  0  0  0  0  0  0  0  0  0  0
   11.0759    8.3100    0.0000 H   0  0  0  0  0  0  0  0  0  0  0  0
   12.2711   18.2400    0.0000 H   0  0  0  0  0  0  0  0  0  0  0  0
   15.1791   15.5831    0.0000 H   0  0  0  0  0  0  0  0  0  0  0  0
   15.4061   16.4300    0.0000 H   0  0  0  0  0  0  0  0  0  0  0  0
   14.5591   16.6569    0.0000 H   0  0  0  0  0  0  0  0  0  0  0  0
   10.2099    6.8100    0.0000 H   0  0  0  0  0  0  0  0  0  0  0  0
    8.2700    6.9300    0.0000 H   0  0  0  0  0  0  0  0  0  0  0  0
    7.4040    5.4300    0.0000 H   0  0  0  0  0  0  0  0  0  0  0  0
   10.2099    5.4300    0.0000 H   0  0  0  0  0  0  0  0  0  0  0  0
   10.2099    3.8100    0.0000 H   0  0  0  0  0  0  0  0  0  0  0  0
    8.8070    3.0000    0.0000 H   0  0  0  0  0  0  0  0  0  0  0  0
    8.4779    2.4300    0.0000 H   0  0  0  0  0  0  0  0  0  0  0  0
    5.6720    2.4300    0.0000 H   0  0  0  0  0  0  0  0  0  0  0  0
    8.4779    0.8100    0.0000 H   0  0  0  0  0  0  0  0  0  0  0  0
    5.6720    0.8100    0.0000 H   0  0  0  0  0  0  0  0  0  0  0  0
    7.0749    0.0000    0.0000 H   0  0  0  0  0  0  0  0  0  0  0  0
    0.0000    9.0600    0.0000 H   0  0  0  0  0  0  0  0  0  0  0  0
    3.6720    9.1800    0.0000 H   0  0  0  0  0  0  0  0  0  0  0  0
  1 20  1  0  0  0  0
  1 26  1  0  0  0  0
  2 25  2  0  0  0  0
  3 32  1  0  0  0  0
  3 35  1  0  0  0  0
  4 41  1  0  0  0  0
  4 78  1  0  0  0  0
  5 42  1  0  0  0  0
  5 79  1  0  0  0  0
  6 41  2  0  0  0  0
  7 42  2  0  0  0  0
  8 11  1  0  0  0  0
  8 12  1  0  0  0  0
  8 15  1  0  0  0  0
  9 13  1  0  0  0  0
  9 14  1  0  0  0  0
  9 17  1  0  0  0  0
 10 19  1  0  0  0  0
 10 25  1  0  0  0  0
 10 62  1  0  0  0  0
 11 13  1  0  0  0  0
 11 43  1  0  0  0  0
 11 44  1  0  0  0  0
 12 14  1  0  0  0  0
 12 45  1  0  0  0  0
 12 46  1  0  0  0  0
 13 47  1  0  0  0  0
 13 48  1  0  0  0  0
 14 49  1  0  0  0  0
 14 50  1  0  0  0  0
 15 16  1  0  0  0  0
 15 51  1  0  0  0  0
 15 52  1  0  0  0  0
 16 18  1  0  0  0  0
 16 53  1  0  0  0  0
 16 54  1  0  0  0  0
 17 20  1  0  0  0  0
 17 21  2  0  0  0  0
 18 19  1  0  0  0  0
 18 55  1  0  0  0  0
 18 56  1  0  0  0  0
 19 57  1  0  0  0  0
 19 58  1  0  0  0  0
 20 22  2  0  0  0  0
 21 23  1  0  0  0  0
 21 59  1  0  0  0  0
 22 24  1  0  0  0  0
 22 60  1  0  0  0  0
 23 24  2  0  0  0  0
 23 61  1  0  0  0  0
 24 63  1  0  0  0  0
 25 27  1  0  0  0  0
 26 64  1  0  0  0  0
 26 65  1  0  0  0  0
 26 66  1  0  0  0  0
 27 28  2  0  0  0  0
 27 67  1  0  0  0  0
 28 29  1  0  0  0  0
 28 68  1  0  0  0  0
 29 30  2  0  0  0  0
 29 31  1  0  0  0  0
 30 32  1  0  0  0  0
 30 69  1  0  0  0  0
 31 33  2  0  0  0  0
 31 70  1  0  0  0  0
 32 34  2  0  0  0  0
 33 34  1  0  0  0  0
 33 71  1  0  0  0  0
 34 72  1  0  0  0  0
 35 36  2  0  0  0  0
 35 37  1  0  0  0  0
 36 38  1  0  0  0  0
 36 73  1  0  0  0  0
 37 39  2  0  0  0  0
 37 74  1  0  0  0  0
 38 40  2  0  0  0  0
 38 75  1  0  0  0  0
 39 40  1  0  0  0  0
 39 76  1  0  0  0  0
 40 77  1  0  0  0  0
 41 42  1  0  0  0  0
M  END
> <PUBCHEM_COMPOUND_CID>
44350752

> <PUBCHEM_COMPOUND_CANONICALIZED>
1

> <PUBCHEM_CACTVS_COMPLEXITY>
729

> <PUBCHEM_CACTVS_HBOND_ACCEPTOR>
9

> <PUBCHEM_CACTVS_HBOND_DONOR>
3

> <PUBCHEM_CACTVS_ROTATABLE_BOND>
12

> <PUBCHEM_CACTVS_SUBSKEYS>
AAADcfB/OAAAAAAAAAAAAAAAAAAAAAAAAAA8YMEAAAAAAAABUAAAHgAQCAAADAzBmAYyzoPABgCIAiXSWAKCCAAhIgAIiIBPbMgPZiLEsZuXOCjk1hHZ6YeQwBAOAAABAAAAEAAAAAIAAAAgAAAAAAAAAA==

> <PUBCHEM_IUPAC_OPENEYE_NAME>
(E)-N-[4-[4-(2-methoxyphenyl)piperazin-1-yl]butyl]-3-(3-phenoxyphenyl)prop-2-enamide;oxalic acid

> <PUBCHEM_IUPAC_CAS_NAME>
(E)-N-[4-[4-(2-methoxyphenyl)-1-piperazinyl]butyl]-3-(3-phenoxyphenyl)-2-propenamide;oxalic acid

> <PUBCHEM_IUPAC_NAME_MARKUP>
(<I>E</I>)-<I>N</I>-[4-[4-(2-methoxyphenyl)piperazin-1-yl]butyl]-3-(3-phenoxyphenyl)prop-2-enamide;oxalic acid

> <PUBCHEM_IUPAC_NAME>
(E)-N-[4-[4-(2-methoxyphenyl)piperazin-1-yl]butyl]-3-(3-phenoxyphenyl)prop-2-enamide;oxalic acid

> <PUBCHEM_IUPAC_SYSTEMATIC_NAME>
ethanedioic acid;(E)-N-[4-[4-(2-methoxyphenyl)piperazin-1-yl]butyl]-3-(3-phenoxyphenyl)prop-2-enamide

> <PUBCHEM_IUPAC_TRADITIONAL_NAME>
(E)-N-[4-[4-(2-methoxyphenyl)piperazino]butyl]-3-(3-phenoxyphenyl)acrylamide;oxalic acid

> <PUBCHEM_IUPAC_INCHI>
InChI=1S/C30H35N3O3.C2H2O4/c1-35-29-15-6-5-14-28(29)33-22-20-32(21-23-33)19-8-7-18-31-30(34)17-16-25-10-9-13-27(24-25)36-26-11-3-2-4-12-26;3-1(4)2(5)6/h2-6,9-17,24H,7-8,18-23H2,1H3,(H,31,34);(H,3,4)(H,5,6)/b17-16+;

> <PUBCHEM_IUPAC_INCHIKEY>
JWYZSOLQNKFASI-CMBBICFISA-N

> <PUBCHEM_EXACT_MASS>
575.26315053

> <PUBCHEM_MOLECULAR_FORMULA>
C32H37N3O7

> <PUBCHEM_MOLECULAR_WEIGHT>
575.7

> <PUBCHEM_OPENEYE_CAN_SMILES>
COC1=CC=CC=C1N2CCN(CC2)CCCCNC(=O)C=CC3=CC(=CC=C3)OC4=CC=CC=C4.C(=O)(C(=O)O)O

> <PUBCHEM_OPENEYE_ISO_SMILES>
COC1=CC=CC=C1N2CCN(CC2)CCCCNC(=O)/C=C/C3=CC(=CC=C3)OC4=CC=CC=C4.C(=O)(C(=O)O)O

> <PUBCHEM_CACTVS_TPSA>
129

> <PUBCHEM_MONOISOTOPIC_WEIGHT>
575.26315053

> <PUBCHEM_TOTAL_CHARGE>
0

> <PUBCHEM_HEAVY_ATOM_COUNT>
42

> <PUBCHEM_ATOM_DEF_STEREO_COUNT>
0

> <PUBCHEM_ATOM_UDEF_STEREO_COUNT>
0

> <PUBCHEM_BOND_DEF_STEREO_COUNT>
1

> <PUBCHEM_BOND_UDEF_STEREO_COUNT>
0

> <PUBCHEM_ISOTOPIC_ATOM_COUNT>
0

> <PUBCHEM_COMPONENT_COUNT>
2

> <PUBCHEM_CACTVS_TAUTO_COUNT>
-1

> <PUBCHEM_COORDINATE_TYPE>
1
5
255

> <PUBCHEM_BONDANNOTATIONS>
17  20  8
17  21  8
20  22  8
21  23  8
22  24  8
23  24  8
29  30  8
29  31  8
30  32  8
31  33  8
32  34  8
33  34  8
35  36  8
35  37  8
36  38  8
37  39  8
38  40  8
39  40  8

$$$$
