24879056
  -OEChem-09292322502D

 48 49  0     1  0  0  0  0  0999 V2000
    7.6962    3.2204    0.0000 F   0  0  0  0  0  0  0  0  0  0  0  0
    8.0622    4.5864    0.0000 F   0  0  0  0  0  0  0  0  0  0  0  0
    6.6962    4.9524    0.0000 F   0  0  0  0  0  0  0  0  0  0  0  0
    6.3301    3.5864    0.0000 O   0  0  0  0  0  0  0  0  0  0  0  0
    2.8660   -3.4136    0.0000 N   0  0  0  0  0  0  0  0  0  0  0  0
    3.7320   -0.9136    0.0000 N   0  0  3  0  0  0  0  0  0  0  0  0
    2.0570   -4.0014    0.0000 C   0  0  0  0  0  0  0  0  0  0  0  0
    3.6750   -4.0014    0.0000 C   0  0  0  0  0  0  0  0  0  0  0  0
    2.3660   -4.9524    0.0000 C   0  0  0  0  0  0  0  0  0  0  0  0
    3.3660   -4.9524    0.0000 C   0  0  0  0  0  0  0  0  0  0  0  0
    2.8660   -2.4136    0.0000 C   0  0  0  0  0  0  0  0  0  0  0  0
    3.7320   -1.9136    0.0000 C   0  0  0  0  0  0  0  0  0  0  0  0
    4.5981   -0.4136    0.0000 C   0  0  0  0  0  0  0  0  0  0  0  0
    2.8660   -0.4136    0.0000 C   0  0  0  0  0  0  0  0  0  0  0  0
    4.5981    0.5864    0.0000 C   0  0  0  0  0  0  0  0  0  0  0  0
    2.0000   -0.9136    0.0000 C   0  0  0  0  0  0  0  0  0  0  0  0
    5.4641    1.0864    0.0000 C   0  0  0  0  0  0  0  0  0  0  0  0
    5.4641    2.0864    0.0000 C   0  0  0  0  0  0  0  0  0  0  0  0
    6.3301    0.5864    0.0000 C   0  0  0  0  0  0  0  0  0  0  0  0
    6.3301    2.5864    0.0000 C   0  0  0  0  0  0  0  0  0  0  0  0
    7.1962    1.0864    0.0000 C   0  0  0  0  0  0  0  0  0  0  0  0
    7.1962    2.0864    0.0000 C   0  0  0  0  0  0  0  0  0  0  0  0
    7.1962    4.0864    0.0000 C   0  0  0  0  0  0  0  0  0  0  0  0
    1.7470   -3.4644    0.0000 H   0  0  0  0  0  0  0  0  0  0  0  0
    1.4906   -4.2536    0.0000 H   0  0  0  0  0  0  0  0  0  0  0  0
    4.2414   -4.2536    0.0000 H   0  0  0  0  0  0  0  0  0  0  0  0
    3.9850   -3.4644    0.0000 H   0  0  0  0  0  0  0  0  0  0  0  0
    1.7596   -5.0813    0.0000 H   0  0  0  0  0  0  0  0  0  0  0  0
    2.4308   -5.5690    0.0000 H   0  0  0  0  0  0  0  0  0  0  0  0
    3.3012   -5.5690    0.0000 H   0  0  0  0  0  0  0  0  0  0  0  0
    3.9725   -5.0813    0.0000 H   0  0  0  0  0  0  0  0  0  0  0  0
    2.6540   -1.8310    0.0000 H   0  0  0  0  0  0  0  0  0  0  0  0
    2.2554   -2.5213    0.0000 H   0  0  0  0  0  0  0  0  0  0  0  0
    3.9441   -2.4962    0.0000 H   0  0  0  0  0  0  0  0  0  0  0  0
    4.3426   -1.8059    0.0000 H   0  0  0  0  0  0  0  0  0  0  0  0
    4.8101   -0.9962    0.0000 H   0  0  0  0  0  0  0  0  0  0  0  0
    5.2087   -0.3059    0.0000 H   0  0  0  0  0  0  0  0  0  0  0  0
    3.2646    0.0614    0.0000 H   0  0  0  0  0  0  0  0  0  0  0  0
    2.4675    0.0614    0.0000 H   0  0  0  0  0  0  0  0  0  0  0  0
    4.3860    1.1690    0.0000 H   0  0  0  0  0  0  0  0  0  0  0  0
    3.9875    0.4787    0.0000 H   0  0  0  0  0  0  0  0  0  0  0  0
    1.6900   -0.3767    0.0000 H   0  0  0  0  0  0  0  0  0  0  0  0
    1.4631   -1.2236    0.0000 H   0  0  0  0  0  0  0  0  0  0  0  0
    2.3100   -1.4505    0.0000 H   0  0  0  0  0  0  0  0  0  0  0  0
    4.9272    2.3964    0.0000 H   0  0  0  0  0  0  0  0  0  0  0  0
    6.3301   -0.0336    0.0000 H   0  0  0  0  0  0  0  0  0  0  0  0
    7.7331    0.7764    0.0000 H   0  0  0  0  0  0  0  0  0  0  0  0
    7.7331    2.3964    0.0000 H   0  0  0  0  0  0  0  0  0  0  0  0
  1 23  1  0  0  0  0
  2 23  1  0  0  0  0
  3 23  1  0  0  0  0
  4 20  1  0  0  0  0
  4 23  1  0  0  0  0
  5  7  1  0  0  0  0
  5  8  1  0  0  0  0
  5 11  1  0  0  0  0
  6 12  1  0  0  0  0
  6 13  1  0  0  0  0
  6 14  1  0  0  0  0
  7  9  1  0  0  0  0
  7 24  1  0  0  0  0
  7 25  1  0  0  0  0
  8 10  1  0  0  0  0
  8 26  1  0  0  0  0
  8 27  1  0  0  0  0
  9 10  1  0  0  0  0
  9 28  1  0  0  0  0
  9 29  1  0  0  0  0
 10 30  1  0  0  0  0
 10 31  1  0  0  0  0
 11 12  1  0  0  0  0
 11 32  1  0  0  0  0
 11 33  1  0  0  0  0
 12 34  1  0  0  0  0
 12 35  1  0  0  0  0
 13 15  1  0  0  0  0
 13 36  1  0  0  0  0
 13 37  1  0  0  0  0
 14 16  1  0  0  0  0
 14 38  1  0  0  0  0
 14 39  1  0  0  0  0
 15 17  1  0  0  0  0
 15 40  1  0  0  0  0
 15 41  1  0  0  0  0
 16 42  1  0  0  0  0
 16 43  1  0  0  0  0
 16 44  1  0  0  0  0
 17 18  2  0  0  0  0
 17 19  1  0  0  0  0
 18 20  1  0  0  0  0
 18 45  1  0  0  0  0
 19 21  2  0  0  0  0
 19 46  1  0  0  0  0
 20 22  2  0  0  0  0
 21 22  1  0  0  0  0
 21 47  1  0  0  0  0
 22 48  1  0  0  0  0
M  END
> <PUBCHEM_COMPOUND_CID>
24879056

> <PUBCHEM_COMPOUND_CANONICALIZED>
1

> <PUBCHEM_CACTVS_COMPLEXITY>
332

> <PUBCHEM_CACTVS_HBOND_ACCEPTOR>
6

> <PUBCHEM_CACTVS_HBOND_DONOR>
0

> <PUBCHEM_CACTVS_ROTATABLE_BOND>
8

> <PUBCHEM_CACTVS_SUBSKEYS>
AAADceB7IYAAAAAAAAAAAAAAAAAAAWAAAAAwAAAAAAAAAAABAAAAHwAAAAAADATBmBQyBoMABACAAiBCAAACCAAgIAAIiAAOCIgMZiKEsRuUMCAkwBGIqAeQ0LIOAAABAAAAAAAAAAIAAAAAAAAAAAAAAA==

> <PUBCHEM_IUPAC_OPENEYE_NAME>
N-ethyl-N-(2-pyrrolidin-1-ylethyl)-2-[3-(trifluoromethoxy)phenyl]ethanamine

> <PUBCHEM_IUPAC_CAS_NAME>
N-ethyl-N-[2-(1-pyrrolidinyl)ethyl]-2-[3-(trifluoromethoxy)phenyl]ethanamine

> <PUBCHEM_IUPAC_NAME_MARKUP>
<I>N</I>-ethyl-<I>N</I>-(2-pyrrolidin-1-ylethyl)-2-[3-(trifluoromethoxy)phenyl]ethanamine

> <PUBCHEM_IUPAC_NAME>
N-ethyl-N-(2-pyrrolidin-1-ylethyl)-2-[3-(trifluoromethoxy)phenyl]ethanamine

> <PUBCHEM_IUPAC_SYSTEMATIC_NAME>
N-ethyl-N-(2-pyrrolidin-1-ylethyl)-2-[3-(trifluoromethyloxy)phenyl]ethanamine

> <PUBCHEM_IUPAC_TRADITIONAL_NAME>
ethyl-(2-pyrrolidinoethyl)-[2-[3-(trifluoromethoxy)phenyl]ethyl]amine

> <PUBCHEM_IUPAC_INCHI>
InChI=1S/C17H25F3N2O/c1-2-21(12-13-22-9-3-4-10-22)11-8-15-6-5-7-16(14-15)23-17(18,19)20/h5-7,14H,2-4,8-13H2,1H3

> <PUBCHEM_IUPAC_INCHIKEY>
BQYHDNIHHQQZPU-UHFFFAOYSA-N

> <PUBCHEM_XLOGP3_AA>
4.3

> <PUBCHEM_EXACT_MASS>
330.19189791

> <PUBCHEM_MOLECULAR_FORMULA>
C17H25F3N2O

> <PUBCHEM_MOLECULAR_WEIGHT>
330.4

> <PUBCHEM_OPENEYE_CAN_SMILES>
CCN(CCC1=CC(=CC=C1)OC(F)(F)F)CCN2CCCC2

> <PUBCHEM_OPENEYE_ISO_SMILES>
CCN(CCC1=CC(=CC=C1)OC(F)(F)F)CCN2CCCC2

> <PUBCHEM_CACTVS_TPSA>
15.7

> <PUBCHEM_MONOISOTOPIC_WEIGHT>
330.19189791

> <PUBCHEM_TOTAL_CHARGE>
0

> <PUBCHEM_HEAVY_ATOM_COUNT>
23

> <PUBCHEM_ATOM_DEF_STEREO_COUNT>
0

> <PUBCHEM_ATOM_UDEF_STEREO_COUNT>
0

> <PUBCHEM_BOND_DEF_STEREO_COUNT>
0

> <PUBCHEM_BOND_UDEF_STEREO_COUNT>
0

> <PUBCHEM_ISOTOPIC_ATOM_COUNT>
0

> <PUBCHEM_COMPONENT_COUNT>
1

> <PUBCHEM_CACTVS_TAUTO_COUNT>
-1

> <PUBCHEM_COORDINATE_TYPE>
1
5
255

> <PUBCHEM_BONDANNOTATIONS>
17  18  8
17  19  8
18  20  8
19  21  8
20  22  8
21  22  8

$$$$
