10709505
  -OEChem-09292322522D

 48 50  0     1  0  0  0  0  0999 V2000
    5.1491   -2.2327    0.0000 O   0  0  0  0  0  0  0  0  0  0  0  0
    4.2724    1.2919    0.0000 O   0  0  0  0  0  0  0  0  0  0  0  0
    6.8811   -0.2327    0.0000 N   0  0  3  0  0  0  0  0  0  0  0  0
    2.5405    1.3119    0.0000 N   0  0  0  0  0  0  0  0  0  0  0  0
    7.7472   -0.7327    0.0000 C   0  0  0  0  0  0  0  0  0  0  0  0
    7.8517   -1.7272    0.0000 C   0  0  0  0  0  0  0  0  0  0  0  0
    8.6607   -0.3259    0.0000 C   0  0  0  0  0  0  0  0  0  0  0  0
    6.0151   -0.7327    0.0000 C   0  0  2  0  0  0  0  0  0  0  0  0
    8.8298   -1.9351    0.0000 C   0  0  0  0  0  0  0  0  0  0  0  0
    9.3298   -1.0691    0.0000 C   0  0  0  0  0  0  0  0  0  0  0  0
    6.8811    0.7673    0.0000 C   0  0  0  0  0  0  0  0  0  0  0  0
    5.1491   -0.2327    0.0000 C   0  0  0  0  0  0  0  0  0  0  0  0
    6.0151   -1.7327    0.0000 C   0  0  0  0  0  0  0  0  0  0  0  0
    4.2830   -0.7327    0.0000 C   0  0  0  0  0  0  0  0  0  0  0  0
    7.7472    1.2673    0.0000 C   0  0  0  0  0  0  0  0  0  0  0  0
    4.2830   -1.7327    0.0000 C   0  0  0  0  0  0  0  0  0  0  0  0
    3.3891   -0.1980    0.0000 C   0  0  0  0  0  0  0  0  0  0  0  0
    7.7472    2.2673    0.0000 C   0  0  0  0  0  0  0  0  0  0  0  0
    3.3891   -2.2673    0.0000 C   0  0  0  0  0  0  0  0  0  0  0  0
    2.4830   -0.7119    0.0000 C   0  0  0  0  0  0  0  0  0  0  0  0
    2.4830   -1.7535    0.0000 C   0  0  0  0  0  0  0  0  0  0  0  0
    3.4007    0.8019    0.0000 C   0  0  0  0  0  0  0  0  0  0  0  0
    7.7796   -0.1135    0.0000 H   0  0  0  0  0  0  0  0  0  0  0  0
    7.2317   -1.7272    0.0000 H   0  0  0  0  0  0  0  0  0  0  0  0
    7.7869   -2.3438    0.0000 H   0  0  0  0  0  0  0  0  0  0  0  0
    9.1623    0.0385    0.0000 H   0  0  0  0  0  0  0  0  0  0  0  0
    8.3507    0.2110    0.0000 H   0  0  0  0  0  0  0  0  0  0  0  0
    6.5520   -1.0427    0.0000 H   0  0  0  0  0  0  0  0  0  0  0  0
    8.6382   -2.5248    0.0000 H   0  0  0  0  0  0  0  0  0  0  0  0
    9.3962   -2.1873    0.0000 H   0  0  0  0  0  0  0  0  0  0  0  0
    9.8314   -1.4335    0.0000 H   0  0  0  0  0  0  0  0  0  0  0  0
    9.7447   -0.6083    0.0000 H   0  0  0  0  0  0  0  0  0  0  0  0
    6.6691    1.3499    0.0000 H   0  0  0  0  0  0  0  0  0  0  0  0
    6.2705    0.6597    0.0000 H   0  0  0  0  0  0  0  0  0  0  0  0
    5.5476    0.2423    0.0000 H   0  0  0  0  0  0  0  0  0  0  0  0
    4.7505    0.2423    0.0000 H   0  0  0  0  0  0  0  0  0  0  0  0
    6.2272   -2.3153    0.0000 H   0  0  0  0  0  0  0  0  0  0  0  0
    6.6257   -1.6250    0.0000 H   0  0  0  0  0  0  0  0  0  0  0  0
    7.9592    0.6847    0.0000 H   0  0  0  0  0  0  0  0  0  0  0  0
    8.3577    1.3750    0.0000 H   0  0  0  0  0  0  0  0  0  0  0  0
    8.3672    2.2673    0.0000 H   0  0  0  0  0  0  0  0  0  0  0  0
    7.7472    2.8873    0.0000 H   0  0  0  0  0  0  0  0  0  0  0  0
    7.1272    2.2673    0.0000 H   0  0  0  0  0  0  0  0  0  0  0  0
    3.3963   -2.8873    0.0000 H   0  0  0  0  0  0  0  0  0  0  0  0
    1.9473   -0.3998    0.0000 H   0  0  0  0  0  0  0  0  0  0  0  0
    1.9473   -2.0656    0.0000 H   0  0  0  0  0  0  0  0  0  0  0  0
    2.5476    1.9319    0.0000 H   0  0  0  0  0  0  0  0  0  0  0  0
    2.0000    1.0081    0.0000 H   0  0  0  0  0  0  0  0  0  0  0  0
  1 13  1  0  0  0  0
  1 16  1  0  0  0  0
  2 22  2  0  0  0  0
  3  5  1  0  0  0  0
  8  3  1  1  0  0  0
  3 11  1  0  0  0  0
  4 22  1  0  0  0  0
  4 47  1  0  0  0  0
  4 48  1  0  0  0  0
  5  6  1  0  0  0  0
  5  7  1  0  0  0  0
  5 23  1  0  0  0  0
  6  9  1  0  0  0  0
  6 24  1  0  0  0  0
  6 25  1  0  0  0  0
  7 10  1  0  0  0  0
  7 26  1  0  0  0  0
  7 27  1  0  0  0  0
  8 12  1  0  0  0  0
  8 13  1  0  0  0  0
  8 28  1  0  0  0  0
  9 10  1  0  0  0  0
  9 29  1  0  0  0  0
  9 30  1  0  0  0  0
 10 31  1  0  0  0  0
 10 32  1  0  0  0  0
 11 15  1  0  0  0  0
 11 33  1  0  0  0  0
 11 34  1  0  0  0  0
 12 14  1  0  0  0  0
 12 35  1  0  0  0  0
 12 36  1  0  0  0  0
 13 37  1  0  0  0  0
 13 38  1  0  0  0  0
 14 16  1  0  0  0  0
 14 17  2  0  0  0  0
 15 18  1  0  0  0  0
 15 39  1  0  0  0  0
 15 40  1  0  0  0  0
 16 19  2  0  0  0  0
 17 20  1  0  0  0  0
 17 22  1  0  0  0  0
 18 41  1  0  0  0  0
 18 42  1  0  0  0  0
 18 43  1  0  0  0  0
 19 21  1  0  0  0  0
 19 44  1  0  0  0  0
 20 21  2  0  0  0  0
 20 45  1  0  0  0  0
 21 46  1  0  0  0  0
M  END
> <PUBCHEM_COMPOUND_CID>
10709505

> <PUBCHEM_COMPOUND_CANONICALIZED>
1

> <PUBCHEM_CACTVS_COMPLEXITY>
381

> <PUBCHEM_CACTVS_HBOND_ACCEPTOR>
3

> <PUBCHEM_CACTVS_HBOND_DONOR>
1

> <PUBCHEM_CACTVS_ROTATABLE_BOND>
5

> <PUBCHEM_CACTVS_SUBSKEYS>
AAADceB7MAAAAAAAAAAAAAAAAAAAAYAAAAA0QAAAAAAAAACRAAAAHgAQAAAADCzhmAYyBoNABACIAiFSEACCCAAkIAAIiAEODMgOJjKEtRuHOSDkwBGYqYe6ybCegAABAAAYAAAAAAIAADAAAAAAAAAAAA==

> <PUBCHEM_IUPAC_OPENEYE_NAME>
(3R)-3-[cyclopentyl(propyl)amino]chromane-5-carboxamide

> <PUBCHEM_IUPAC_CAS_NAME>
(3R)-3-[cyclopentyl(propyl)amino]-3,4-dihydro-2H-1-benzopyran-5-carboxamide

> <PUBCHEM_IUPAC_NAME_MARKUP>
(3<I>R</I>)-3-[cyclopentyl(propyl)amino]-3,4-dihydro-2<I>H</I>-chromene-5-carboxamide

> <PUBCHEM_IUPAC_NAME>
(3R)-3-[cyclopentyl(propyl)amino]-3,4-dihydro-2H-chromene-5-carboxamide

> <PUBCHEM_IUPAC_SYSTEMATIC_NAME>
(3R)-3-[cyclopentyl(propyl)amino]-3,4-dihydro-2H-chromene-5-carboxamide

> <PUBCHEM_IUPAC_TRADITIONAL_NAME>
(3R)-3-[cyclopentyl(propyl)amino]chroman-5-carboxamide

> <PUBCHEM_IUPAC_INCHI>
InChI=1S/C18H26N2O2/c1-2-10-20(13-6-3-4-7-13)14-11-16-15(18(19)21)8-5-9-17(16)22-12-14/h5,8-9,13-14H,2-4,6-7,10-12H2,1H3,(H2,19,21)/t14-/m1/s1

> <PUBCHEM_IUPAC_INCHIKEY>
RPTJAEIJXWMLAQ-CQSZACIVSA-N

> <PUBCHEM_XLOGP3_AA>
3.1

> <PUBCHEM_EXACT_MASS>
302.199428076

> <PUBCHEM_MOLECULAR_FORMULA>
C18H26N2O2

> <PUBCHEM_MOLECULAR_WEIGHT>
302.4

> <PUBCHEM_OPENEYE_CAN_SMILES>
CCCN(C1CCCC1)C2CC3=C(C=CC=C3OC2)C(=O)N

> <PUBCHEM_OPENEYE_ISO_SMILES>
CCCN([C@@H]1CC2=C(C=CC=C2OC1)C(=O)N)C3CCCC3

> <PUBCHEM_CACTVS_TPSA>
55.6

> <PUBCHEM_MONOISOTOPIC_WEIGHT>
302.199428076

> <PUBCHEM_TOTAL_CHARGE>
0

> <PUBCHEM_HEAVY_ATOM_COUNT>
22

> <PUBCHEM_ATOM_DEF_STEREO_COUNT>
1

> <PUBCHEM_ATOM_UDEF_STEREO_COUNT>
0

> <PUBCHEM_BOND_DEF_STEREO_COUNT>
0

> <PUBCHEM_BOND_UDEF_STEREO_COUNT>
0

> <PUBCHEM_ISOTOPIC_ATOM_COUNT>
0

> <PUBCHEM_COMPONENT_COUNT>
1

> <PUBCHEM_CACTVS_TAUTO_COUNT>
-1

> <PUBCHEM_COORDINATE_TYPE>
1
5
255

> <PUBCHEM_BONDANNOTATIONS>
14  16  8
14  17  8
16  19  8
17  20  8
19  21  8
20  21  8
8  3  5

$$$$
