49850872
  -OEChem-09292322312D

 57 60  0     0  0  0  0  0  0999 V2000
    3.7320    5.5173    0.0000 O   0  0  0  0  0  0  0  0  0  0  0  0
    5.4641   -0.4827    0.0000 N   0  0  0  0  0  0  0  0  0  0  0  0
    5.4641   -2.4827    0.0000 N   0  0  0  0  0  0  0  0  0  0  0  0
    7.2241   -5.5173    0.0000 N   0  0  0  0  0  0  0  0  0  0  0  0
    2.8660    4.0173    0.0000 N   0  0  0  0  0  0  0  0  0  0  0  0
    4.5981   -0.9827    0.0000 C   0  0  0  0  0  0  0  0  0  0  0  0
    6.3301   -0.9827    0.0000 C   0  0  0  0  0  0  0  0  0  0  0  0
    4.5981   -1.9827    0.0000 C   0  0  0  0  0  0  0  0  0  0  0  0
    6.3301   -1.9827    0.0000 C   0  0  0  0  0  0  0  0  0  0  0  0
    5.4641    0.5173    0.0000 C   0  0  0  0  0  0  0  0  0  0  0  0
    5.4641   -3.4827    0.0000 C   0  0  0  0  0  0  0  0  0  0  0  0
    4.5981    1.0173    0.0000 C   0  0  0  0  0  0  0  0  0  0  0  0
    6.3301   -3.9827    0.0000 C   0  0  0  0  0  0  0  0  0  0  0  0
    4.5981    2.0173    0.0000 C   0  0  0  0  0  0  0  0  0  0  0  0
    4.5981   -3.9827    0.0000 C   0  0  0  0  0  0  0  0  0  0  0  0
    6.3301   -4.9827    0.0000 C   0  0  0  0  0  0  0  0  0  0  0  0
    7.2241   -3.4480    0.0000 C   0  0  0  0  0  0  0  0  0  0  0  0
    4.5981   -4.9827    0.0000 C   0  0  0  0  0  0  0  0  0  0  0  0
    5.4641   -5.4827    0.0000 C   0  0  0  0  0  0  0  0  0  0  0  0
    3.7320    2.5173    0.0000 C   0  0  0  0  0  0  0  0  0  0  0  0
    5.4641    2.5173    0.0000 C   0  0  0  0  0  0  0  0  0  0  0  0
    8.1301   -3.9618    0.0000 C   0  0  0  0  0  0  0  0  0  0  0  0
    3.7320    3.5173    0.0000 C   0  0  0  0  0  0  0  0  0  0  0  0
    8.1301   -5.0035    0.0000 C   0  0  0  0  0  0  0  0  0  0  0  0
    5.4641    3.5173    0.0000 C   0  0  0  0  0  0  0  0  0  0  0  0
    4.5981    4.0173    0.0000 C   0  0  0  0  0  0  0  0  0  0  0  0
    8.9942   -5.5068    0.0000 C   0  0  0  0  0  0  0  0  0  0  0  0
    2.8660    5.0173    0.0000 C   0  0  0  0  0  0  0  0  0  0  0  0
    2.0000    5.5173    0.0000 C   0  0  0  0  0  0  0  0  0  0  0  0
    4.3860   -0.4001    0.0000 H   0  0  0  0  0  0  0  0  0  0  0  0
    3.9875   -1.0903    0.0000 H   0  0  0  0  0  0  0  0  0  0  0  0
    6.9407   -1.0903    0.0000 H   0  0  0  0  0  0  0  0  0  0  0  0
    6.5422   -0.4001    0.0000 H   0  0  0  0  0  0  0  0  0  0  0  0
    3.9875   -1.8750    0.0000 H   0  0  0  0  0  0  0  0  0  0  0  0
    4.3860   -2.5653    0.0000 H   0  0  0  0  0  0  0  0  0  0  0  0
    6.5422   -2.5653    0.0000 H   0  0  0  0  0  0  0  0  0  0  0  0
    6.9407   -1.8750    0.0000 H   0  0  0  0  0  0  0  0  0  0  0  0
    6.0747    0.4097    0.0000 H   0  0  0  0  0  0  0  0  0  0  0  0
    5.6762    1.0999    0.0000 H   0  0  0  0  0  0  0  0  0  0  0  0
    3.9875    1.1250    0.0000 H   0  0  0  0  0  0  0  0  0  0  0  0
    4.3860    0.4347    0.0000 H   0  0  0  0  0  0  0  0  0  0  0  0
    4.0611   -3.6727    0.0000 H   0  0  0  0  0  0  0  0  0  0  0  0
    7.2169   -2.8280    0.0000 H   0  0  0  0  0  0  0  0  0  0  0  0
    4.0611   -5.2927    0.0000 H   0  0  0  0  0  0  0  0  0  0  0  0
    5.4641   -6.1027    0.0000 H   0  0  0  0  0  0  0  0  0  0  0  0
    3.1951    2.2073    0.0000 H   0  0  0  0  0  0  0  0  0  0  0  0
    6.0010    2.2073    0.0000 H   0  0  0  0  0  0  0  0  0  0  0  0
    8.6659   -3.6498    0.0000 H   0  0  0  0  0  0  0  0  0  0  0  0
    6.0010    3.8273    0.0000 H   0  0  0  0  0  0  0  0  0  0  0  0
    4.5981    4.6373    0.0000 H   0  0  0  0  0  0  0  0  0  0  0  0
    8.6822   -6.0426    0.0000 H   0  0  0  0  0  0  0  0  0  0  0  0
    9.5300   -5.8189    0.0000 H   0  0  0  0  0  0  0  0  0  0  0  0
    9.3063   -4.9711    0.0000 H   0  0  0  0  0  0  0  0  0  0  0  0
    2.3291    3.7073    0.0000 H   0  0  0  0  0  0  0  0  0  0  0  0
    2.3100    6.0543    0.0000 H   0  0  0  0  0  0  0  0  0  0  0  0
    1.4631    5.8273    0.0000 H   0  0  0  0  0  0  0  0  0  0  0  0
    1.6900    4.9804    0.0000 H   0  0  0  0  0  0  0  0  0  0  0  0
  1 28  2  0  0  0  0
  2  6  1  0  0  0  0
  2  7  1  0  0  0  0
  2 10  1  0  0  0  0
  3  8  1  0  0  0  0
  3  9  1  0  0  0  0
  3 11  1  0  0  0  0
  4 16  1  0  0  0  0
  4 24  2  0  0  0  0
  5 23  1  0  0  0  0
  5 28  1  0  0  0  0
  5 54  1  0  0  0  0
  6  8  1  0  0  0  0
  6 30  1  0  0  0  0
  6 31  1  0  0  0  0
  7  9  1  0  0  0  0
  7 32  1  0  0  0  0
  7 33  1  0  0  0  0
  8 34  1  0  0  0  0
  8 35  1  0  0  0  0
  9 36  1  0  0  0  0
  9 37  1  0  0  0  0
 10 12  1  0  0  0  0
 10 38  1  0  0  0  0
 10 39  1  0  0  0  0
 11 13  1  0  0  0  0
 11 15  2  0  0  0  0
 12 14  1  0  0  0  0
 12 40  1  0  0  0  0
 12 41  1  0  0  0  0
 13 16  2  0  0  0  0
 13 17  1  0  0  0  0
 14 20  2  0  0  0  0
 14 21  1  0  0  0  0
 15 18  1  0  0  0  0
 15 42  1  0  0  0  0
 16 19  1  0  0  0  0
 17 22  2  0  0  0  0
 17 43  1  0  0  0  0
 18 19  2  0  0  0  0
 18 44  1  0  0  0  0
 19 45  1  0  0  0  0
 20 23  1  0  0  0  0
 20 46  1  0  0  0  0
 21 25  2  0  0  0  0
 21 47  1  0  0  0  0
 22 24  1  0  0  0  0
 22 48  1  0  0  0  0
 23 26  2  0  0  0  0
 24 27  1  0  0  0  0
 25 26  1  0  0  0  0
 25 49  1  0  0  0  0
 26 50  1  0  0  0  0
 27 51  1  0  0  0  0
 27 52  1  0  0  0  0
 27 53  1  0  0  0  0
 28 29  1  0  0  0  0
 29 55  1  0  0  0  0
 29 56  1  0  0  0  0
 29 57  1  0  0  0  0
M  END
> <PUBCHEM_COMPOUND_CID>
49850872

> <PUBCHEM_COMPOUND_CANONICALIZED>
1

> <PUBCHEM_CACTVS_COMPLEXITY>
533

> <PUBCHEM_CACTVS_HBOND_ACCEPTOR>
4

> <PUBCHEM_CACTVS_HBOND_DONOR>
1

> <PUBCHEM_CACTVS_ROTATABLE_BOND>
5

> <PUBCHEM_CACTVS_SUBSKEYS>
AAADceB7oAAAAAAAAAAAAAAAAAAAAAAAAAA8eIEAAAAAAACx9AAAHgAQAAAADAjBngQywPPIEACoAyVyVACCgCAhAiAImCA4ZJgIYOLA0dGUJAhglADIyAcQgIAOAAAAQAQCAAAAAACACAQAAAAAAAAAAA==

> <PUBCHEM_IUPAC_OPENEYE_NAME>
N-[3-[2-[4-(2-methyl-5-quinolyl)piperazin-1-yl]ethyl]phenyl]acetamide

> <PUBCHEM_IUPAC_CAS_NAME>
N-[3-[2-[4-(2-methyl-5-quinolinyl)-1-piperazinyl]ethyl]phenyl]acetamide

> <PUBCHEM_IUPAC_NAME_MARKUP>
<I>N</I>-[3-[2-[4-(2-methylquinolin-5-yl)piperazin-1-yl]ethyl]phenyl]acetamide

> <PUBCHEM_IUPAC_NAME>
N-[3-[2-[4-(2-methylquinolin-5-yl)piperazin-1-yl]ethyl]phenyl]acetamide

> <PUBCHEM_IUPAC_SYSTEMATIC_NAME>
N-[3-[2-[4-(2-methylquinolin-5-yl)piperazin-1-yl]ethyl]phenyl]ethanamide

> <PUBCHEM_IUPAC_TRADITIONAL_NAME>
N-[3-[2-[4-(2-methyl-5-quinolyl)piperazino]ethyl]phenyl]acetamide

> <PUBCHEM_IUPAC_INCHI>
InChI=1S/C24H28N4O/c1-18-9-10-22-23(25-18)7-4-8-24(22)28-15-13-27(14-16-28)12-11-20-5-3-6-21(17-20)26-19(2)29/h3-10,17H,11-16H2,1-2H3,(H,26,29)

> <PUBCHEM_IUPAC_INCHIKEY>
ZCJYRUIJZMZVJE-UHFFFAOYSA-N

> <PUBCHEM_XLOGP3_AA>
3.7

> <PUBCHEM_EXACT_MASS>
388.22631153

> <PUBCHEM_MOLECULAR_FORMULA>
C24H28N4O

> <PUBCHEM_MOLECULAR_WEIGHT>
388.5

> <PUBCHEM_OPENEYE_CAN_SMILES>
CC1=NC2=C(C=C1)C(=CC=C2)N3CCN(CC3)CCC4=CC(=CC=C4)NC(=O)C

> <PUBCHEM_OPENEYE_ISO_SMILES>
CC1=NC2=C(C=C1)C(=CC=C2)N3CCN(CC3)CCC4=CC(=CC=C4)NC(=O)C

> <PUBCHEM_CACTVS_TPSA>
48.5

> <PUBCHEM_MONOISOTOPIC_WEIGHT>
388.22631153

> <PUBCHEM_TOTAL_CHARGE>
0

> <PUBCHEM_HEAVY_ATOM_COUNT>
29

> <PUBCHEM_ATOM_DEF_STEREO_COUNT>
0

> <PUBCHEM_ATOM_UDEF_STEREO_COUNT>
0

> <PUBCHEM_BOND_DEF_STEREO_COUNT>
0

> <PUBCHEM_BOND_UDEF_STEREO_COUNT>
0

> <PUBCHEM_ISOTOPIC_ATOM_COUNT>
0

> <PUBCHEM_COMPONENT_COUNT>
1

> <PUBCHEM_CACTVS_TAUTO_COUNT>
-1

> <PUBCHEM_COORDINATE_TYPE>
1
5
255

> <PUBCHEM_BONDANNOTATIONS>
11  13  8
11  15  8
13  16  8
13  17  8
14  20  8
14  21  8
15  18  8
16  19  8
17  22  8
18  19  8
20  23  8
21  25  8
22  24  8
23  26  8
25  26  8
4  16  8
4  24  8

$$$$
