11397777
  -OEChem-09292322302D

 59 63  0     1  0  0  0  0  0999 V2000
    7.8867   -3.2115    0.0000 S   0  0  0  0  0  0  0  0  0  0  0  0
    3.5878   -2.4328    0.0000 S   0  0  0  0  0  0  0  0  0  0  0  0
   12.4255    4.0205    0.0000 F   0  0  0  0  0  0  0  0  0  0  0  0
   13.4255    3.0205    0.0000 F   0  0  0  0  0  0  0  0  0  0  0  0
   11.4255    3.0205    0.0000 F   0  0  0  0  0  0  0  0  0  0  0  0
   10.8867   -1.4795    0.0000 N   0  0  3  0  0  0  0  0  0  0  0  0
    6.2989   -2.4025    0.0000 N   0  0  0  0  0  0  0  0  0  0  0  0
    6.2989   -4.0205    0.0000 N   0  0  0  0  0  0  0  0  0  0  0  0
    5.3479   -3.7115    0.0000 N   0  0  0  0  0  0  0  0  0  0  0  0
    3.5878   -0.8147    0.0000 N   0  0  0  0  0  0  0  0  0  0  0  0
   12.4255   -0.9795    0.0000 C   0  0  2  0  0  0  0  0  0  0  0  0
   12.4255   -1.9795    0.0000 C   0  0  1  0  0  0  0  0  0  0  0  0
   13.2921   -1.4795    0.0000 C   0  0  0  0  0  0  0  0  0  0  0  0
   11.4745   -0.6704    0.0000 C   0  0  0  0  0  0  0  0  0  0  0  0
   11.4745   -2.2885    0.0000 C   0  0  0  0  0  0  0  0  0  0  0  0
   12.4255    0.0205    0.0000 C   0  0  0  0  0  0  0  0  0  0  0  0
    9.8867   -1.4795    0.0000 C   0  0  0  0  0  0  0  0  0  0  0  0
   13.2916    0.5205    0.0000 C   0  0  0  0  0  0  0  0  0  0  0  0
   11.5595    0.5205    0.0000 C   0  0  0  0  0  0  0  0  0  0  0  0
    9.3867   -2.3455    0.0000 C   0  0  0  0  0  0  0  0  0  0  0  0
   13.2916    1.5205    0.0000 C   0  0  0  0  0  0  0  0  0  0  0  0
   11.5595    1.5205    0.0000 C   0  0  0  0  0  0  0  0  0  0  0  0
   12.4255    2.0205    0.0000 C   0  0  0  0  0  0  0  0  0  0  0  0
    8.3867   -2.3455    0.0000 C   0  0  0  0  0  0  0  0  0  0  0  0
   12.4255    3.0205    0.0000 C   0  0  0  0  0  0  0  0  0  0  0  0
    6.8867   -3.2115    0.0000 C   0  0  0  0  0  0  0  0  0  0  0  0
    5.3479   -2.7115    0.0000 C   0  0  0  0  0  0  0  0  0  0  0  0
    6.6079   -1.4514    0.0000 C   0  0  0  0  0  0  0  0  0  0  0  0
    4.5388   -2.1237    0.0000 C   0  0  0  0  0  0  0  0  0  0  0  0
    4.5388   -1.1237    0.0000 C   0  0  0  0  0  0  0  0  0  0  0  0
    3.0000   -1.6237    0.0000 C   0  0  0  0  0  0  0  0  0  0  0  0
    5.3479   -0.5359    0.0000 C   0  0  0  0  0  0  0  0  0  0  0  0
    2.0000   -1.6237    0.0000 C   0  0  0  0  0  0  0  0  0  0  0  0
   12.7712   -2.7560    0.0000 H   0  0  0  0  0  0  0  0  0  0  0  0
   13.6906   -1.9544    0.0000 H   0  0  0  0  0  0  0  0  0  0  0  0
   13.6906   -1.0045    0.0000 H   0  0  0  0  0  0  0  0  0  0  0  0
   11.7267   -0.1041    0.0000 H   0  0  0  0  0  0  0  0  0  0  0  0
   10.9375   -0.3604    0.0000 H   0  0  0  0  0  0  0  0  0  0  0  0
   10.9375   -2.5985    0.0000 H   0  0  0  0  0  0  0  0  0  0  0  0
   11.7267   -2.8549    0.0000 H   0  0  0  0  0  0  0  0  0  0  0  0
    9.9944   -0.8689    0.0000 H   0  0  0  0  0  0  0  0  0  0  0  0
    9.3041   -1.2674    0.0000 H   0  0  0  0  0  0  0  0  0  0  0  0
   13.8285    0.2105    0.0000 H   0  0  0  0  0  0  0  0  0  0  0  0
   11.0226    0.2105    0.0000 H   0  0  0  0  0  0  0  0  0  0  0  0
    9.2790   -2.9561    0.0000 H   0  0  0  0  0  0  0  0  0  0  0  0
    9.9693   -2.5575    0.0000 H   0  0  0  0  0  0  0  0  0  0  0  0
   13.8285    1.8305    0.0000 H   0  0  0  0  0  0  0  0  0  0  0  0
   11.0226    1.8305    0.0000 H   0  0  0  0  0  0  0  0  0  0  0  0
    8.4944   -1.7349    0.0000 H   0  0  0  0  0  0  0  0  0  0  0  0
    7.8041   -2.1334    0.0000 H   0  0  0  0  0  0  0  0  0  0  0  0
    7.1976   -1.6430    0.0000 H   0  0  0  0  0  0  0  0  0  0  0  0
    6.7995   -0.8618    0.0000 H   0  0  0  0  0  0  0  0  0  0  0  0
    6.0183   -1.2598    0.0000 H   0  0  0  0  0  0  0  0  0  0  0  0
    5.7123   -1.0375    0.0000 H   0  0  0  0  0  0  0  0  0  0  0  0
    5.8494   -0.1715    0.0000 H   0  0  0  0  0  0  0  0  0  0  0  0
    4.9834   -0.0344    0.0000 H   0  0  0  0  0  0  0  0  0  0  0  0
    2.0000   -1.0037    0.0000 H   0  0  0  0  0  0  0  0  0  0  0  0
    1.3800   -1.6237    0.0000 H   0  0  0  0  0  0  0  0  0  0  0  0
    2.0000   -2.2437    0.0000 H   0  0  0  0  0  0  0  0  0  0  0  0
  1 24  1  0  0  0  0
  1 26  1  0  0  0  0
  2 29  1  0  0  0  0
  2 31  1  0  0  0  0
  3 25  1  0  0  0  0
  4 25  1  0  0  0  0
  5 25  1  0  0  0  0
  6 14  1  0  0  0  0
  6 15  1  0  0  0  0
  6 17  1  0  0  0  0
  7 26  1  0  0  0  0
  7 27  1  0  0  0  0
  7 28  1  0  0  0  0
  8  9  1  0  0  0  0
  8 26  2  0  0  0  0
  9 27  2  0  0  0  0
 10 30  1  0  0  0  0
 10 31  2  0  0  0  0
 11 12  1  0  0  0  0
 11 13  1  0  0  0  0
 11 14  1  0  0  0  0
 11 16  1  6  0  0  0
 12 13  1  0  0  0  0
 12 15  1  0  0  0  0
 12 34  1  6  0  0  0
 13 35  1  0  0  0  0
 13 36  1  0  0  0  0
 14 37  1  0  0  0  0
 14 38  1  0  0  0  0
 15 39  1  0  0  0  0
 15 40  1  0  0  0  0
 16 18  2  0  0  0  0
 16 19  1  0  0  0  0
 17 20  1  0  0  0  0
 17 41  1  0  0  0  0
 17 42  1  0  0  0  0
 18 21  1  0  0  0  0
 18 43  1  0  0  0  0
 19 22  2  0  0  0  0
 19 44  1  0  0  0  0
 20 24  1  0  0  0  0
 20 45  1  0  0  0  0
 20 46  1  0  0  0  0
 21 23  2  0  0  0  0
 21 47  1  0  0  0  0
 22 23  1  0  0  0  0
 22 48  1  0  0  0  0
 23 25  1  0  0  0  0
 24 49  1  0  0  0  0
 24 50  1  0  0  0  0
 27 29  1  0  0  0  0
 28 51  1  0  0  0  0
 28 52  1  0  0  0  0
 28 53  1  0  0  0  0
 29 30  2  0  0  0  0
 30 32  1  0  0  0  0
 31 33  1  0  0  0  0
 32 54  1  0  0  0  0
 32 55  1  0  0  0  0
 32 56  1  0  0  0  0
 33 57  1  0  0  0  0
 33 58  1  0  0  0  0
 33 59  1  0  0  0  0
M  END
> <PUBCHEM_COMPOUND_CID>
11397777

> <PUBCHEM_COMPOUND_CANONICALIZED>
1

> <PUBCHEM_CACTVS_COMPLEXITY>
692

> <PUBCHEM_CACTVS_HBOND_ACCEPTOR>
9

> <PUBCHEM_CACTVS_HBOND_DONOR>
0

> <PUBCHEM_CACTVS_ROTATABLE_BOND>
7

> <PUBCHEM_CACTVS_SUBSKEYS>
AAADceB7gYBgAAAAAAAAAAAAGAAAAWLFgAA8QAAAAAAAAAAB8AAAHQQIAAAADwjFXxSzkZcMEAimAyZiZACS8KthCLgd2DQ4RJiIKCLg2RGEIAhgiALoiAcQgMAPwAAAAAAAAACAAAAAAAAAAAAAAAAAAA==

> <PUBCHEM_IUPAC_OPENEYE_NAME>
2,4-dimethyl-5-[4-methyl-5-[3-[(1S,5R)-1-[4-(trifluoromethyl)phenyl]-3-azabicyclo[3.1.0]hexan-3-yl]propylsulfanyl]-1,2,4-triazol-3-yl]thiazole

> <PUBCHEM_IUPAC_CAS_NAME>
2,4-dimethyl-5-[4-methyl-5-[3-[(1S,5R)-1-[4-(trifluoromethyl)phenyl]-3-azabicyclo[3.1.0]hexan-3-yl]propylthio]-1,2,4-triazol-3-yl]thiazole

> <PUBCHEM_IUPAC_NAME_MARKUP>
2,4-dimethyl-5-[4-methyl-5-[3-[(1<I>S</I>,5<I>R</I>)-1-[4-(trifluoromethyl)phenyl]-3-azabicyclo[3.1.0]hexan-3-yl]propylsulfanyl]-1,2,4-triazol-3-yl]-1,3-thiazole

> <PUBCHEM_IUPAC_NAME>
2,4-dimethyl-5-[4-methyl-5-[3-[(1S,5R)-1-[4-(trifluoromethyl)phenyl]-3-azabicyclo[3.1.0]hexan-3-yl]propylsulfanyl]-1,2,4-triazol-3-yl]-1,3-thiazole

> <PUBCHEM_IUPAC_SYSTEMATIC_NAME>
2,4-dimethyl-5-[4-methyl-5-[3-[(1S,5R)-1-[4-(trifluoromethyl)phenyl]-3-azabicyclo[3.1.0]hexan-3-yl]propylsulfanyl]-1,2,4-triazol-3-yl]-1,3-thiazole

> <PUBCHEM_IUPAC_TRADITIONAL_NAME>
2,4-dimethyl-5-[4-methyl-5-[3-[(1S,5R)-1-[4-(trifluoromethyl)phenyl]-3-azabicyclo[3.1.0]hexan-3-yl]propylthio]-1,2,4-triazol-3-yl]thiazole

> <PUBCHEM_IUPAC_INCHI>
InChI=1S/C23H26F3N5S2/c1-14-19(33-15(2)27-14)20-28-29-21(30(20)3)32-10-4-9-31-12-18-11-22(18,13-31)16-5-7-17(8-6-16)23(24,25)26/h5-8,18H,4,9-13H2,1-3H3/t18-,22+/m0/s1

> <PUBCHEM_IUPAC_INCHIKEY>
ODIJMXCJWMOZFJ-PGRDOPGGSA-N

> <PUBCHEM_XLOGP3_AA>
5

> <PUBCHEM_EXACT_MASS>
493.15817268

> <PUBCHEM_MOLECULAR_FORMULA>
C23H26F3N5S2

> <PUBCHEM_MOLECULAR_WEIGHT>
493.6

> <PUBCHEM_OPENEYE_CAN_SMILES>
CC1=C(SC(=N1)C)C2=NN=C(N2C)SCCCN3CC4CC4(C3)C5=CC=C(C=C5)C(F)(F)F

> <PUBCHEM_OPENEYE_ISO_SMILES>
CC1=C(SC(=N1)C)C2=NN=C(N2C)SCCCN3C[C@@H]4C[C@@]4(C3)C5=CC=C(C=C5)C(F)(F)F

> <PUBCHEM_CACTVS_TPSA>
100

> <PUBCHEM_MONOISOTOPIC_WEIGHT>
493.15817268

> <PUBCHEM_TOTAL_CHARGE>
0

> <PUBCHEM_HEAVY_ATOM_COUNT>
33

> <PUBCHEM_ATOM_DEF_STEREO_COUNT>
2

> <PUBCHEM_ATOM_UDEF_STEREO_COUNT>
0

> <PUBCHEM_BOND_DEF_STEREO_COUNT>
0

> <PUBCHEM_BOND_UDEF_STEREO_COUNT>
0

> <PUBCHEM_ISOTOPIC_ATOM_COUNT>
0

> <PUBCHEM_COMPONENT_COUNT>
1

> <PUBCHEM_CACTVS_TAUTO_COUNT>
-1

> <PUBCHEM_COORDINATE_TYPE>
1
5
255

> <PUBCHEM_BONDANNOTATIONS>
10  30  8
10  31  8
11  16  6
12  34  6
16  18  8
16  19  8
18  21  8
19  22  8
2  29  8
2  31  8
21  23  8
22  23  8
29  30  8
7  26  8
7  27  8
8  26  8
8  9  8
9  27  8

$$$$
