10467118
  -OEChem-09292322512D

 40 41  0     1  0  0  0  0  0999 V2000
    2.0000   -2.0950    0.0000 O   0  0  0  0  0  0  0  0  0  0  0  0
    3.7320    1.9050    0.0000 N   0  0  3  0  0  0  0  0  0  0  0  0
    2.8660   -3.5950    0.0000 N   0  0  0  0  0  0  0  0  0  0  0  0
    4.5981    0.4050    0.0000 C   0  0  1  0  0  0  0  0  0  0  0  0
    3.7320    0.9050    0.0000 C   0  0  0  0  0  0  0  0  0  0  0  0
    5.4641    0.9050    0.0000 C   0  0  0  0  0  0  0  0  0  0  0  0
    5.4641    1.9050    0.0000 C   0  0  0  0  0  0  0  0  0  0  0  0
    4.5981    2.4050    0.0000 C   0  0  0  0  0  0  0  0  0  0  0  0
    2.8660    2.4050    0.0000 C   0  0  0  0  0  0  0  0  0  0  0  0
    4.5981   -0.5950    0.0000 C   0  0  0  0  0  0  0  0  0  0  0  0
    2.8660    3.4050    0.0000 C   0  0  0  0  0  0  0  0  0  0  0  0
    3.7320   -1.0950    0.0000 C   0  0  0  0  0  0  0  0  0  0  0  0
    5.4641   -1.0950    0.0000 C   0  0  0  0  0  0  0  0  0  0  0  0
    2.0000    3.9050    0.0000 C   0  0  0  0  0  0  0  0  0  0  0  0
    3.7320   -2.0950    0.0000 C   0  0  0  0  0  0  0  0  0  0  0  0
    5.4641   -2.0950    0.0000 C   0  0  0  0  0  0  0  0  0  0  0  0
    4.5981   -2.5950    0.0000 C   0  0  0  0  0  0  0  0  0  0  0  0
    2.8660   -2.5950    0.0000 C   0  0  0  0  0  0  0  0  0  0  0  0
    5.1350    0.0950    0.0000 H   0  0  0  0  0  0  0  0  0  0  0  0
    3.1215    1.0127    0.0000 H   0  0  0  0  0  0  0  0  0  0  0  0
    3.5200    0.3224    0.0000 H   0  0  0  0  0  0  0  0  0  0  0  0
    5.6762    0.3224    0.0000 H   0  0  0  0  0  0  0  0  0  0  0  0
    6.0747    1.0127    0.0000 H   0  0  0  0  0  0  0  0  0  0  0  0
    6.0747    1.7973    0.0000 H   0  0  0  0  0  0  0  0  0  0  0  0
    5.6762    2.4876    0.0000 H   0  0  0  0  0  0  0  0  0  0  0  0
    4.9966    2.8800    0.0000 H   0  0  0  0  0  0  0  0  0  0  0  0
    4.1996    2.8800    0.0000 H   0  0  0  0  0  0  0  0  0  0  0  0
    2.2554    2.5127    0.0000 H   0  0  0  0  0  0  0  0  0  0  0  0
    2.6540    1.8224    0.0000 H   0  0  0  0  0  0  0  0  0  0  0  0
    3.4766    3.2973    0.0000 H   0  0  0  0  0  0  0  0  0  0  0  0
    3.0781    3.9876    0.0000 H   0  0  0  0  0  0  0  0  0  0  0  0
    3.1951   -0.7850    0.0000 H   0  0  0  0  0  0  0  0  0  0  0  0
    6.0010   -0.7850    0.0000 H   0  0  0  0  0  0  0  0  0  0  0  0
    2.3100    4.4419    0.0000 H   0  0  0  0  0  0  0  0  0  0  0  0
    1.4631    4.2150    0.0000 H   0  0  0  0  0  0  0  0  0  0  0  0
    1.6900    3.3681    0.0000 H   0  0  0  0  0  0  0  0  0  0  0  0
    6.0010   -2.4050    0.0000 H   0  0  0  0  0  0  0  0  0  0  0  0
    4.5981   -3.2150    0.0000 H   0  0  0  0  0  0  0  0  0  0  0  0
    2.3291   -3.9050    0.0000 H   0  0  0  0  0  0  0  0  0  0  0  0
    3.4030   -3.9050    0.0000 H   0  0  0  0  0  0  0  0  0  0  0  0
  1 18  2  0  0  0  0
  2  5  1  0  0  0  0
  2  8  1  0  0  0  0
  2  9  1  0  0  0  0
  3 18  1  0  0  0  0
  3 39  1  0  0  0  0
  3 40  1  0  0  0  0
  4  5  1  0  0  0  0
  4  6  1  0  0  0  0
  4 10  1  1  0  0  0
  4 19  1  0  0  0  0
  5 20  1  0  0  0  0
  5 21  1  0  0  0  0
  6  7  1  0  0  0  0
  6 22  1  0  0  0  0
  6 23  1  0  0  0  0
  7  8  1  0  0  0  0
  7 24  1  0  0  0  0
  7 25  1  0  0  0  0
  8 26  1  0  0  0  0
  8 27  1  0  0  0  0
  9 11  1  0  0  0  0
  9 28  1  0  0  0  0
  9 29  1  0  0  0  0
 10 12  2  0  0  0  0
 10 13  1  0  0  0  0
 11 14  1  0  0  0  0
 11 30  1  0  0  0  0
 11 31  1  0  0  0  0
 12 15  1  0  0  0  0
 12 32  1  0  0  0  0
 13 16  2  0  0  0  0
 13 33  1  0  0  0  0
 14 34  1  0  0  0  0
 14 35  1  0  0  0  0
 14 36  1  0  0  0  0
 15 17  2  0  0  0  0
 15 18  1  0  0  0  0
 16 17  1  0  0  0  0
 16 37  1  0  0  0  0
 17 38  1  0  0  0  0
M  END
> <PUBCHEM_COMPOUND_CID>
10467118

> <PUBCHEM_COMPOUND_CANONICALIZED>
1

> <PUBCHEM_CACTVS_COMPLEXITY>
280

> <PUBCHEM_CACTVS_HBOND_ACCEPTOR>
2

> <PUBCHEM_CACTVS_HBOND_DONOR>
1

> <PUBCHEM_CACTVS_ROTATABLE_BOND>
4

> <PUBCHEM_CACTVS_SUBSKEYS>
AAADceBzIAAAAAAAAAAAAAAAAAAAAAAAAAA8QAAAAAAAAAABAAAAHgAQAAAADQDBmAQyAINAAACIAiFSEACCAAAkAAAIiAEIBMgIIDKAlRGEIQBggACIiYcYiMCOgAACAAAAAAAAAAQAAAAAAAAAAAAAAA==

> <PUBCHEM_IUPAC_OPENEYE_NAME>
3-[(3S)-1-propyl-3-piperidyl]benzamide

> <PUBCHEM_IUPAC_CAS_NAME>
3-[(3S)-1-propyl-3-piperidinyl]benzamide

> <PUBCHEM_IUPAC_NAME_MARKUP>
3-[(3<I>S</I>)-1-propylpiperidin-3-yl]benzamide

> <PUBCHEM_IUPAC_NAME>
3-[(3S)-1-propylpiperidin-3-yl]benzamide

> <PUBCHEM_IUPAC_SYSTEMATIC_NAME>
3-[(3S)-1-propylpiperidin-3-yl]benzamide

> <PUBCHEM_IUPAC_TRADITIONAL_NAME>
3-[(3S)-1-propyl-3-piperidyl]benzamide

> <PUBCHEM_IUPAC_INCHI>
InChI=1S/C15H22N2O/c1-2-8-17-9-4-7-14(11-17)12-5-3-6-13(10-12)15(16)18/h3,5-6,10,14H,2,4,7-9,11H2,1H3,(H2,16,18)/t14-/m1/s1

> <PUBCHEM_IUPAC_INCHIKEY>
CJCQHAUDAPOVBD-CQSZACIVSA-N

> <PUBCHEM_XLOGP3_AA>
2.3

> <PUBCHEM_EXACT_MASS>
246.173213330

> <PUBCHEM_MOLECULAR_FORMULA>
C15H22N2O

> <PUBCHEM_MOLECULAR_WEIGHT>
246.35

> <PUBCHEM_OPENEYE_CAN_SMILES>
CCCN1CCCC(C1)C2=CC(=CC=C2)C(=O)N

> <PUBCHEM_OPENEYE_ISO_SMILES>
CCCN1CCC[C@H](C1)C2=CC(=CC=C2)C(=O)N

> <PUBCHEM_CACTVS_TPSA>
46.3

> <PUBCHEM_MONOISOTOPIC_WEIGHT>
246.173213330

> <PUBCHEM_TOTAL_CHARGE>
0

> <PUBCHEM_HEAVY_ATOM_COUNT>
18

> <PUBCHEM_ATOM_DEF_STEREO_COUNT>
1

> <PUBCHEM_ATOM_UDEF_STEREO_COUNT>
0

> <PUBCHEM_BOND_DEF_STEREO_COUNT>
0

> <PUBCHEM_BOND_UDEF_STEREO_COUNT>
0

> <PUBCHEM_ISOTOPIC_ATOM_COUNT>
0

> <PUBCHEM_COMPONENT_COUNT>
1

> <PUBCHEM_CACTVS_TAUTO_COUNT>
-1

> <PUBCHEM_COORDINATE_TYPE>
1
5
255

> <PUBCHEM_BONDANNOTATIONS>
10  12  8
10  13  8
12  15  8
13  16  8
15  17  8
16  17  8
4  10  5

$$$$
