54477
  -OEChem-09292322032D

 45 46  0     1  0  0  0  0  0999 V2000
    2.8660   -3.8209    0.0000 Br  0  0  0  0  0  0  0  0  0  0  0  0
    3.7320   -0.3209    0.0000 O   0  0  0  0  0  0  0  0  0  0  0  0
    2.8660   -1.8209    0.0000 O   0  0  0  0  0  0  0  0  0  0  0  0
    6.3301   -1.8209    0.0000 O   0  0  0  0  0  0  0  0  0  0  0  0
    6.4347    2.1736    0.0000 N   0  0  3  0  0  0  0  0  0  0  0  0
    5.4641   -0.3209    0.0000 N   0  0  0  0  0  0  0  0  0  0  0  0
    6.3301    1.1791    0.0000 C   0  0  1  0  0  0  0  0  0  0  0  0
    7.2437    0.7724    0.0000 C   0  0  0  0  0  0  0  0  0  0  0  0
    7.9128    1.5155    0.0000 C   0  0  0  0  0  0  0  0  0  0  0  0
    7.4128    2.3815    0.0000 C   0  0  0  0  0  0  0  0  0  0  0  0
    5.4641    0.6791    0.0000 C   0  0  0  0  0  0  0  0  0  0  0  0
    5.6915    2.8428    0.0000 C   0  0  0  0  0  0  0  0  0  0  0  0
    5.8994    3.8209    0.0000 C   0  0  0  0  0  0  0  0  0  0  0  0
    4.5981   -0.8209    0.0000 C   0  0  0  0  0  0  0  0  0  0  0  0
    4.5981   -1.8209    0.0000 C   0  0  0  0  0  0  0  0  0  0  0  0
    3.7320   -2.3209    0.0000 C   0  0  0  0  0  0  0  0  0  0  0  0
    5.4641   -2.3209    0.0000 C   0  0  0  0  0  0  0  0  0  0  0  0
    3.7320   -3.3209    0.0000 C   0  0  0  0  0  0  0  0  0  0  0  0
    5.4641   -3.3209    0.0000 C   0  0  0  0  0  0  0  0  0  0  0  0
    4.5981   -3.8209    0.0000 C   0  0  0  0  0  0  0  0  0  0  0  0
    2.0000   -2.3209    0.0000 C   0  0  0  0  0  0  0  0  0  0  0  0
    7.1962   -2.3209    0.0000 C   0  0  0  0  0  0  0  0  0  0  0  0
    5.8102    1.5168    0.0000 H   0  0  0  0  0  0  0  0  0  0  0  0
    6.9337    0.2354    0.0000 H   0  0  0  0  0  0  0  0  0  0  0  0
    7.7453    0.4079    0.0000 H   0  0  0  0  0  0  0  0  0  0  0  0
    8.3277    1.0548    0.0000 H   0  0  0  0  0  0  0  0  0  0  0  0
    8.4144    1.8799    0.0000 H   0  0  0  0  0  0  0  0  0  0  0  0
    7.9792    2.6337    0.0000 H   0  0  0  0  0  0  0  0  0  0  0  0
    7.2212    2.9712    0.0000 H   0  0  0  0  0  0  0  0  0  0  0  0
    5.2520    1.2617    0.0000 H   0  0  0  0  0  0  0  0  0  0  0  0
    4.8535    0.5714    0.0000 H   0  0  0  0  0  0  0  0  0  0  0  0
    5.1167    3.0750    0.0000 H   0  0  0  0  0  0  0  0  0  0  0  0
    5.3630    2.3170    0.0000 H   0  0  0  0  0  0  0  0  0  0  0  0
    6.0010   -0.6309    0.0000 H   0  0  0  0  0  0  0  0  0  0  0  0
    6.5059    3.6920    0.0000 H   0  0  0  0  0  0  0  0  0  0  0  0
    6.0283    4.4274    0.0000 H   0  0  0  0  0  0  0  0  0  0  0  0
    5.2930    3.9498    0.0000 H   0  0  0  0  0  0  0  0  0  0  0  0
    6.0010   -3.6309    0.0000 H   0  0  0  0  0  0  0  0  0  0  0  0
    4.5981   -4.4409    0.0000 H   0  0  0  0  0  0  0  0  0  0  0  0
    1.6900   -1.7840    0.0000 H   0  0  0  0  0  0  0  0  0  0  0  0
    1.4631   -2.6309    0.0000 H   0  0  0  0  0  0  0  0  0  0  0  0
    2.3100   -2.8578    0.0000 H   0  0  0  0  0  0  0  0  0  0  0  0
    6.8862   -2.8578    0.0000 H   0  0  0  0  0  0  0  0  0  0  0  0
    7.7331   -2.6309    0.0000 H   0  0  0  0  0  0  0  0  0  0  0  0
    7.5062   -1.7840    0.0000 H   0  0  0  0  0  0  0  0  0  0  0  0
  1 18  1  0  0  0  0
  2 14  2  0  0  0  0
  3 16  1  0  0  0  0
  3 21  1  0  0  0  0
  4 17  1  0  0  0  0
  4 22  1  0  0  0  0
  5  7  1  0  0  0  0
  5 10  1  0  0  0  0
  5 12  1  0  0  0  0
  6 11  1  0  0  0  0
  6 14  1  0  0  0  0
  6 34  1  0  0  0  0
  7  8  1  0  0  0  0
  7 11  1  1  0  0  0
  7 23  1  0  0  0  0
  8  9  1  0  0  0  0
  8 24  1  0  0  0  0
  8 25  1  0  0  0  0
  9 10  1  0  0  0  0
  9 26  1  0  0  0  0
  9 27  1  0  0  0  0
 10 28  1  0  0  0  0
 10 29  1  0  0  0  0
 11 30  1  0  0  0  0
 11 31  1  0  0  0  0
 12 13  1  0  0  0  0
 12 32  1  0  0  0  0
 12 33  1  0  0  0  0
 13 35  1  0  0  0  0
 13 36  1  0  0  0  0
 13 37  1  0  0  0  0
 14 15  1  0  0  0  0
 15 16  1  0  0  0  0
 15 17  2  0  0  0  0
 16 18  2  0  0  0  0
 17 19  1  0  0  0  0
 18 20  1  0  0  0  0
 19 20  2  0  0  0  0
 19 38  1  0  0  0  0
 20 39  1  0  0  0  0
 21 40  1  0  0  0  0
 21 41  1  0  0  0  0
 21 42  1  0  0  0  0
 22 43  1  0  0  0  0
 22 44  1  0  0  0  0
 22 45  1  0  0  0  0
M  END
> <PUBCHEM_COMPOUND_CID>
54477

> <PUBCHEM_COMPOUND_CANONICALIZED>
1

> <PUBCHEM_CACTVS_COMPLEXITY>
369

> <PUBCHEM_CACTVS_HBOND_ACCEPTOR>
4

> <PUBCHEM_CACTVS_HBOND_DONOR>
1

> <PUBCHEM_CACTVS_ROTATABLE_BOND>
6

> <PUBCHEM_CACTVS_SUBSKEYS>
AAADceB7MAAAEAAAAAAAAAAAAAAAAWAAAAAwAAAAAAAAAAABAAAAHgBQAAABrCzBmAYyBoPABACIAiFSEACCCAAkIAQIiIEODOgMZzaEtBuUMWhn9hWIqxeY6CyOABAAGAAIBAAAIAAwABAIAAAAAAAAAA==

> <PUBCHEM_IUPAC_OPENEYE_NAME>
3-bromo-N-[[(2S)-1-ethylpyrrolidin-2-yl]methyl]-2,6-dimethoxy-benzamide

> <PUBCHEM_IUPAC_CAS_NAME>
3-bromo-N-[[(2S)-1-ethyl-2-pyrrolidinyl]methyl]-2,6-dimethoxybenzamide

> <PUBCHEM_IUPAC_NAME_MARKUP>
3-bromo-<I>N</I>-[[(2<I>S</I>)-1-ethylpyrrolidin-2-yl]methyl]-2,6-dimethoxybenzamide

> <PUBCHEM_IUPAC_NAME>
3-bromo-N-[[(2S)-1-ethylpyrrolidin-2-yl]methyl]-2,6-dimethoxybenzamide

> <PUBCHEM_IUPAC_SYSTEMATIC_NAME>
3-bromanyl-N-[[(2S)-1-ethylpyrrolidin-2-yl]methyl]-2,6-dimethoxy-benzamide

> <PUBCHEM_IUPAC_TRADITIONAL_NAME>
3-bromo-N-[[(2S)-1-ethylpyrrolidin-2-yl]methyl]-2,6-dimethoxy-benzamide

> <PUBCHEM_IUPAC_INCHI>
InChI=1S/C16H23BrN2O3/c1-4-19-9-5-6-11(19)10-18-16(20)14-13(21-2)8-7-12(17)15(14)22-3/h7-8,11H,4-6,9-10H2,1-3H3,(H,18,20)/t11-/m0/s1

> <PUBCHEM_IUPAC_INCHIKEY>
GUJRSXAPGDDABA-NSHDSACASA-N

> <PUBCHEM_XLOGP3>
2.1

> <PUBCHEM_EXACT_MASS>
370.08921

> <PUBCHEM_MOLECULAR_FORMULA>
C16H23BrN2O3

> <PUBCHEM_MOLECULAR_WEIGHT>
371.27

> <PUBCHEM_OPENEYE_CAN_SMILES>
CCN1CCCC1CNC(=O)C2=C(C=CC(=C2OC)Br)OC

> <PUBCHEM_OPENEYE_ISO_SMILES>
CCN1CCC[C@H]1CNC(=O)C2=C(C=CC(=C2OC)Br)OC

> <PUBCHEM_CACTVS_TPSA>
50.8

> <PUBCHEM_MONOISOTOPIC_WEIGHT>
370.08921

> <PUBCHEM_TOTAL_CHARGE>
0

> <PUBCHEM_HEAVY_ATOM_COUNT>
22

> <PUBCHEM_ATOM_DEF_STEREO_COUNT>
1

> <PUBCHEM_ATOM_UDEF_STEREO_COUNT>
0

> <PUBCHEM_BOND_DEF_STEREO_COUNT>
0

> <PUBCHEM_BOND_UDEF_STEREO_COUNT>
0

> <PUBCHEM_ISOTOPIC_ATOM_COUNT>
0

> <PUBCHEM_COMPONENT_COUNT>
1

> <PUBCHEM_CACTVS_TAUTO_COUNT>
2

> <PUBCHEM_COORDINATE_TYPE>
1
5
255

> <PUBCHEM_BONDANNOTATIONS>
15  16  8
15  17  8
16  18  8
17  19  8
18  20  8
19  20  8
7  11  5

$$$$
