44588957
  -OEChem-09292322232D

 57 59  0     1  0  0  0  0  0999 V2000
    9.0263    4.5196    0.0000 Br  0  0  0  0  0  0  0  0  0  0  0  0
    6.4747    5.9123    0.0000 O   0  0  0  0  0  0  0  0  0  0  0  0
    6.4747    3.8640    0.0000 O   0  0  0  0  0  0  0  0  0  0  0  0
    1.6200    4.8882    0.0000 N   0  0  3  0  0  0  0  0  0  0  0  0
    3.0288    3.7647    0.0000 C   0  0  3  0  0  0  0  0  0  0  0  0
    2.0539    3.9872    0.0000 C   0  0  0  0  0  0  0  0  0  0  0  0
    3.8106    4.3882    0.0000 C   0  0  0  0  0  0  0  0  0  0  0  0
    3.8106    5.3882    0.0000 C   0  0  0  0  0  0  0  0  0  0  0  0
    3.0288    6.0117    0.0000 C   0  0  0  0  0  0  0  0  0  0  0  0
    2.0539    5.7892    0.0000 C   0  0  0  0  0  0  0  0  0  0  0  0
    3.2513    2.7898    0.0000 C   0  0  0  0  0  0  0  0  0  0  0  0
    4.7046    5.9228    0.0000 C   0  0  0  0  0  0  0  0  0  0  0  0
    4.7046    3.8535    0.0000 C   0  0  0  0  0  0  0  0  0  0  0  0
    0.6200    4.8882    0.0000 C   0  0  0  0  0  0  0  0  0  0  0  0
    5.6106    5.4090    0.0000 C   0  0  0  0  0  0  0  0  0  0  0  0
    5.6106    4.3674    0.0000 C   0  0  0  0  0  0  0  0  0  0  0  0
    2.5183    2.1096    0.0000 C   0  0  0  0  0  0  0  0  0  0  0  0
    4.6930    6.9228    0.0000 C   0  0  0  0  0  0  0  0  0  0  0  0
    4.2069    2.4950    0.0000 C   0  0  0  0  0  0  0  0  0  0  0  0
    2.7408    1.1347    0.0000 C   0  0  0  0  0  0  0  0  0  0  0  0
    4.4294    1.5201    0.0000 C   0  0  0  0  0  0  0  0  0  0  0  0
    5.5532    7.4328    0.0000 C   0  0  0  0  0  0  0  0  0  0  0  0
    3.8213    7.4127    0.0000 C   0  0  0  0  0  0  0  0  0  0  0  0
    3.6964    0.8399    0.0000 C   0  0  0  0  0  0  0  0  0  0  0  0
    5.5416    8.4327    0.0000 C   0  0  0  0  0  0  0  0  0  0  0  0
    2.0078    0.4545    0.0000 C   0  0  0  0  0  0  0  0  0  0  0  0
    3.8097    8.4127    0.0000 C   0  0  0  0  0  0  0  0  0  0  0  0
    4.6699    8.9226    0.0000 C   0  0  0  0  0  0  0  0  0  0  0  0
    6.4018    8.9427    0.0000 C   0  0  0  0  0  0  0  0  0  0  0  0
    2.5904    3.3263    0.0000 H   0  0  0  0  0  0  0  0  0  0  0  0
    1.4494    3.8492    0.0000 H   0  0  0  0  0  0  0  0  0  0  0  0
    2.0539    3.3672    0.0000 H   0  0  0  0  0  0  0  0  0  0  0  0
    3.5136    6.3982    0.0000 H   0  0  0  0  0  0  0  0  0  0  0  0
    2.7598    6.5703    0.0000 H   0  0  0  0  0  0  0  0  0  0  0  0
    2.0539    6.4092    0.0000 H   0  0  0  0  0  0  0  0  0  0  0  0
    1.4494    5.9271    0.0000 H   0  0  0  0  0  0  0  0  0  0  0  0
    4.6974    3.2336    0.0000 H   0  0  0  0  0  0  0  0  0  0  0  0
    0.6200    5.5082    0.0000 H   0  0  0  0  0  0  0  0  0  0  0  0
    0.0000    4.8882    0.0000 H   0  0  0  0  0  0  0  0  0  0  0  0
    0.6200    4.2682    0.0000 H   0  0  0  0  0  0  0  0  0  0  0  0
    1.9258    2.2923    0.0000 H   0  0  0  0  0  0  0  0  0  0  0  0
    4.6614    2.9167    0.0000 H   0  0  0  0  0  0  0  0  0  0  0  0
    5.0219    1.3373    0.0000 H   0  0  0  0  0  0  0  0  0  0  0  0
    6.0937    7.1290    0.0000 H   0  0  0  0  0  0  0  0  0  0  0  0
    3.2880    7.0965    0.0000 H   0  0  0  0  0  0  0  0  0  0  0  0
    3.8343    0.2355    0.0000 H   0  0  0  0  0  0  0  0  0  0  0  0
    7.0129    5.6044    0.0000 H   0  0  0  0  0  0  0  0  0  0  0  0
    6.4723    3.2440    0.0000 H   0  0  0  0  0  0  0  0  0  0  0  0
    1.5860    0.9090    0.0000 H   0  0  0  0  0  0  0  0  0  0  0  0
    1.5533    0.0328    0.0000 H   0  0  0  0  0  0  0  0  0  0  0  0
    2.4295    0.0000    0.0000 H   0  0  0  0  0  0  0  0  0  0  0  0
    3.2692    8.7164    0.0000 H   0  0  0  0  0  0  0  0  0  0  0  0
    4.6627    9.5426    0.0000 H   0  0  0  0  0  0  0  0  0  0  0  0
    6.7180    8.4094    0.0000 H   0  0  0  0  0  0  0  0  0  0  0  0
    6.9352    9.2589    0.0000 H   0  0  0  0  0  0  0  0  0  0  0  0
    6.0856    9.4760    0.0000 H   0  0  0  0  0  0  0  0  0  0  0  0
   10.0263    4.5196    0.0000 H   0  0  0  0  0  0  0  0  0  0  0  0
  1 57  1  0  0  0  0
  2 15  1  0  0  0  0
  2 47  1  0  0  0  0
  3 16  1  0  0  0  0
  3 48  1  0  0  0  0
  4  6  1  0  0  0  0
  4 10  1  0  0  0  0
  4 14  1  0  0  0  0
  5  6  1  0  0  0  0
  5  7  1  0  0  0  0
  5 11  1  0  0  0  0
  5 30  1  0  0  0  0
  6 31  1  0  0  0  0
  6 32  1  0  0  0  0
  7  8  1  0  0  0  0
  7 13  2  0  0  0  0
  8  9  1  0  0  0  0
  8 12  2  0  0  0  0
  9 10  1  0  0  0  0
  9 33  1  0  0  0  0
  9 34  1  0  0  0  0
 10 35  1  0  0  0  0
 10 36  1  0  0  0  0
 11 17  1  0  0  0  0
 11 19  2  0  0  0  0
 12 15  1  0  0  0  0
 12 18  1  0  0  0  0
 13 16  1  0  0  0  0
 13 37  1  0  0  0  0
 14 38  1  0  0  0  0
 14 39  1  0  0  0  0
 14 40  1  0  0  0  0
 15 16  2  0  0  0  0
 17 20  2  0  0  0  0
 17 41  1  0  0  0  0
 18 22  1  0  0  0  0
 18 23  2  0  0  0  0
 19 21  1  0  0  0  0
 19 42  1  0  0  0  0
 20 24  1  0  0  0  0
 20 26  1  0  0  0  0
 21 24  2  0  0  0  0
 21 43  1  0  0  0  0
 22 25  2  0  0  0  0
 22 44  1  0  0  0  0
 23 27  1  0  0  0  0
 23 45  1  0  0  0  0
 24 46  1  0  0  0  0
 25 28  1  0  0  0  0
 25 29  1  0  0  0  0
 26 49  1  0  0  0  0
 26 50  1  0  0  0  0
 26 51  1  0  0  0  0
 27 28  2  0  0  0  0
 27 52  1  0  0  0  0
 28 53  1  0  0  0  0
 29 54  1  0  0  0  0
 29 55  1  0  0  0  0
 29 56  1  0  0  0  0
M  END
> <PUBCHEM_COMPOUND_CID>
44588957

> <PUBCHEM_COMPOUND_CANONICALIZED>
1

> <PUBCHEM_CACTVS_COMPLEXITY>
511

> <PUBCHEM_CACTVS_HBOND_ACCEPTOR>
3

> <PUBCHEM_CACTVS_HBOND_DONOR>
3

> <PUBCHEM_CACTVS_ROTATABLE_BOND>
2

> <PUBCHEM_CACTVS_SUBSKEYS>
AAADceB6MAAAEAAAAAAAAAAAAAAAAAAAAAAwYMAABYAAAAABUAAAHgAACAAADQTBmAQyBoMAAgCAAiBCAAACAAAgIAAIiAAOiIgJJiKCkROEcAEkwBGJmAeQ0PIOoAADAAAYQABAAAYAADCAAAAAAAAAAA==

> <PUBCHEM_IUPAC_OPENEYE_NAME>
3-methyl-5,9-bis(m-tolyl)-1,2,4,5-tetrahydro-3-benzazepine-7,8-diol;hydrobromide

> <PUBCHEM_IUPAC_CAS_NAME>
3-methyl-5,9-bis(3-methylphenyl)-1,2,4,5-tetrahydro-3-benzazepine-7,8-diol;hydrobromide

> <PUBCHEM_IUPAC_NAME_MARKUP>
3-methyl-5,9-bis(3-methylphenyl)-1,2,4,5-tetrahydro-3-benzazepine-7,8-diol;hydrobromide

> <PUBCHEM_IUPAC_NAME>
3-methyl-5,9-bis(3-methylphenyl)-1,2,4,5-tetrahydro-3-benzazepine-7,8-diol;hydrobromide

> <PUBCHEM_IUPAC_SYSTEMATIC_NAME>
3-methyl-5,9-bis(3-methylphenyl)-1,2,4,5-tetrahydro-3-benzazepine-7,8-diol;hydrobromide

> <PUBCHEM_IUPAC_TRADITIONAL_NAME>
3-methyl-5,9-bis(m-tolyl)-1,2,4,5-tetrahydro-3-benzazepine-7,8-diol;hydrobromide

> <PUBCHEM_IUPAC_INCHI>
InChI=1S/C25H27NO2.BrH/c1-16-6-4-8-18(12-16)22-15-26(3)11-10-20-21(22)14-23(27)25(28)24(20)19-9-5-7-17(2)13-19;/h4-9,12-14,22,27-28H,10-11,15H2,1-3H3;1H

> <PUBCHEM_IUPAC_INCHIKEY>
WKXBRVOJFDBSLP-UHFFFAOYSA-N

> <PUBCHEM_EXACT_MASS>
453.13034

> <PUBCHEM_MOLECULAR_FORMULA>
C25H28BrNO2

> <PUBCHEM_MOLECULAR_WEIGHT>
454.4

> <PUBCHEM_OPENEYE_CAN_SMILES>
CC1=CC(=CC=C1)C2CN(CCC3=C(C(=C(C=C23)O)O)C4=CC=CC(=C4)C)C.Br

> <PUBCHEM_OPENEYE_ISO_SMILES>
CC1=CC(=CC=C1)C2CN(CCC3=C(C(=C(C=C23)O)O)C4=CC=CC(=C4)C)C.Br

> <PUBCHEM_CACTVS_TPSA>
43.7

> <PUBCHEM_MONOISOTOPIC_WEIGHT>
453.13034

> <PUBCHEM_TOTAL_CHARGE>
0

> <PUBCHEM_HEAVY_ATOM_COUNT>
29

> <PUBCHEM_ATOM_DEF_STEREO_COUNT>
0

> <PUBCHEM_ATOM_UDEF_STEREO_COUNT>
1

> <PUBCHEM_BOND_DEF_STEREO_COUNT>
0

> <PUBCHEM_BOND_UDEF_STEREO_COUNT>
0

> <PUBCHEM_ISOTOPIC_ATOM_COUNT>
0

> <PUBCHEM_COMPONENT_COUNT>
2

> <PUBCHEM_CACTVS_TAUTO_COUNT>
-1

> <PUBCHEM_COORDINATE_TYPE>
1
5
255

> <PUBCHEM_BONDANNOTATIONS>
11  17  8
11  19  8
12  15  8
13  16  8
15  16  8
17  20  8
18  22  8
18  23  8
19  21  8
20  24  8
21  24  8
22  25  8
23  27  8
25  28  8
27  28  8
5  11  3
7  13  8
7  8  8
8  12  8

$$$$
