118731507
  -OEChem-09292322352D

 68 72  0     0  0  0  0  0  0999 V2000
    3.7938   -0.7273    0.0000 S   0  0  0  0  0  0  0  0  0  0  0  0
   12.1923    1.4180    0.0000 O   0  0  0  0  0  0  0  0  0  0  0  0
    4.7103   -1.1273    0.0000 O   0  0  0  0  0  0  0  0  0  0  0  0
    2.8773   -0.3272    0.0000 O   0  0  0  0  0  0  0  0  0  0  0  0
   17.4544    1.4421    0.0000 O   0  0  0  0  0  0  0  0  0  0  0  0
    4.1939    0.1892    0.0000 N   0  0  0  0  0  0  0  0  0  0  0  0
    7.8602    1.9013    0.0000 N   0  0  0  0  0  0  0  0  0  0  0  0
   15.7224    1.4421    0.0000 N   0  0  0  0  0  0  0  0  0  0  0  0
    5.2641    1.3913    0.0000 C   0  0  0  0  0  0  0  0  0  0  0  0
    4.3548    1.7929    0.0000 C   0  0  0  0  0  0  0  0  0  0  0  0
    6.1282    1.8946    0.0000 C   0  0  0  0  0  0  0  0  0  0  0  0
    3.6898    1.0460    0.0000 C   0  0  0  0  0  0  0  0  0  0  0  0
    5.1649    0.4022    0.0000 C   0  0  0  0  0  0  0  0  0  0  0  0
    6.9961    1.3979    0.0000 C   0  0  0  0  0  0  0  0  0  0  0  0
    8.7282    1.4046    0.0000 C   0  0  0  0  0  0  0  0  0  0  0  0
    9.5923    1.9080    0.0000 C   0  0  0  0  0  0  0  0  0  0  0  0
    4.0404    2.7422    0.0000 C   0  0  0  0  0  0  0  0  0  0  0  0
    2.7105    1.2484    0.0000 C   0  0  0  0  0  0  0  0  0  0  0  0
   10.4602    1.4113    0.0000 C   0  0  0  0  0  0  0  0  0  0  0  0
    3.3938   -1.6438    0.0000 C   0  0  0  0  0  0  0  0  0  0  0  0
   14.8564    2.9421    0.0000 C   0  0  0  0  0  0  0  0  0  0  0  0
   15.7224    3.4421    0.0000 C   0  0  0  0  0  0  0  0  0  0  0  0
    3.0612    2.9446    0.0000 C   0  0  0  0  0  0  0  0  0  0  0  0
   11.3243    1.9146    0.0000 C   0  0  0  0  0  0  0  0  0  0  0  0
    2.3962    2.1978    0.0000 C   0  0  0  0  0  0  0  0  0  0  0  0
   14.8564    1.9421    0.0000 C   0  0  0  0  0  0  0  0  0  0  0  0
   16.5884    2.9421    0.0000 C   0  0  0  0  0  0  0  0  0  0  0  0
   13.0563    1.9213    0.0000 C   0  0  0  0  0  0  0  0  0  0  0  0
   13.9624    1.4075    0.0000 C   0  0  0  0  0  0  0  0  0  0  0  0
   13.9624    3.4768    0.0000 C   0  0  0  0  0  0  0  0  0  0  0  0
   16.5884    1.9421    0.0000 C   0  0  0  0  0  0  0  0  0  0  0  0
    2.4000   -1.7556    0.0000 C   0  0  0  0  0  0  0  0  0  0  0  0
    3.9875   -2.4485    0.0000 C   0  0  0  0  0  0  0  0  0  0  0  0
   13.0563    2.9629    0.0000 C   0  0  0  0  0  0  0  0  0  0  0  0
    2.0000   -2.6721    0.0000 C   0  0  0  0  0  0  0  0  0  0  0  0
    3.5874   -3.3650    0.0000 C   0  0  0  0  0  0  0  0  0  0  0  0
    2.5937   -3.4768    0.0000 C   0  0  0  0  0  0  0  0  0  0  0  0
    6.5249    2.3711    0.0000 H   0  0  0  0  0  0  0  0  0  0  0  0
    5.7278    2.3680    0.0000 H   0  0  0  0  0  0  0  0  0  0  0  0
    5.6279   -0.0101    0.0000 H   0  0  0  0  0  0  0  0  0  0  0  0
    6.5994    0.9215    0.0000 H   0  0  0  0  0  0  0  0  0  0  0  0
    7.3965    0.9245    0.0000 H   0  0  0  0  0  0  0  0  0  0  0  0
    8.3315    0.9281    0.0000 H   0  0  0  0  0  0  0  0  0  0  0  0
    9.1285    0.9312    0.0000 H   0  0  0  0  0  0  0  0  0  0  0  0
    7.8578    2.5213    0.0000 H   0  0  0  0  0  0  0  0  0  0  0  0
    9.9890    2.3844    0.0000 H   0  0  0  0  0  0  0  0  0  0  0  0
    9.1919    2.3814    0.0000 H   0  0  0  0  0  0  0  0  0  0  0  0
    4.4527    3.2052    0.0000 H   0  0  0  0  0  0  0  0  0  0  0  0
    2.2982    0.7854    0.0000 H   0  0  0  0  0  0  0  0  0  0  0  0
   10.0635    0.9348    0.0000 H   0  0  0  0  0  0  0  0  0  0  0  0
   10.8606    0.9379    0.0000 H   0  0  0  0  0  0  0  0  0  0  0  0
   16.1209    3.9171    0.0000 H   0  0  0  0  0  0  0  0  0  0  0  0
   15.3239    3.9171    0.0000 H   0  0  0  0  0  0  0  0  0  0  0  0
    2.8663    3.5332    0.0000 H   0  0  0  0  0  0  0  0  0  0  0  0
   11.7210    2.3911    0.0000 H   0  0  0  0  0  0  0  0  0  0  0  0
   10.9240    2.3880    0.0000 H   0  0  0  0  0  0  0  0  0  0  0  0
    1.7890    2.3233    0.0000 H   0  0  0  0  0  0  0  0  0  0  0  0
   17.1990    2.8345    0.0000 H   0  0  0  0  0  0  0  0  0  0  0  0
   16.8005    3.5247    0.0000 H   0  0  0  0  0  0  0  0  0  0  0  0
   13.9696    0.7875    0.0000 H   0  0  0  0  0  0  0  0  0  0  0  0
   13.9696    4.0967    0.0000 H   0  0  0  0  0  0  0  0  0  0  0  0
   15.7224    0.8221    0.0000 H   0  0  0  0  0  0  0  0  0  0  0  0
    2.0320   -1.2567    0.0000 H   0  0  0  0  0  0  0  0  0  0  0  0
    4.6036   -2.3792    0.0000 H   0  0  0  0  0  0  0  0  0  0  0  0
   12.5206    3.2750    0.0000 H   0  0  0  0  0  0  0  0  0  0  0  0
    1.3839   -2.7414    0.0000 H   0  0  0  0  0  0  0  0  0  0  0  0
    3.9555   -3.8639    0.0000 H   0  0  0  0  0  0  0  0  0  0  0  0
    2.3457   -4.0450    0.0000 H   0  0  0  0  0  0  0  0  0  0  0  0
  1  3  2  0  0  0  0
  1  4  2  0  0  0  0
  1  6  1  0  0  0  0
  1 20  1  0  0  0  0
  2 24  1  0  0  0  0
  2 28  1  0  0  0  0
  5 31  2  0  0  0  0
  6 12  1  0  0  0  0
  6 13  1  0  0  0  0
  7 14  1  0  0  0  0
  7 15  1  0  0  0  0
  7 45  1  0  0  0  0
  8 26  1  0  0  0  0
  8 31  1  0  0  0  0
  8 62  1  0  0  0  0
  9 10  1  0  0  0  0
  9 11  1  0  0  0  0
  9 13  2  0  0  0  0
 10 12  1  0  0  0  0
 10 17  2  0  0  0  0
 11 14  1  0  0  0  0
 11 38  1  0  0  0  0
 11 39  1  0  0  0  0
 12 18  2  0  0  0  0
 13 40  1  0  0  0  0
 14 41  1  0  0  0  0
 14 42  1  0  0  0  0
 15 16  1  0  0  0  0
 15 43  1  0  0  0  0
 15 44  1  0  0  0  0
 16 19  1  0  0  0  0
 16 46  1  0  0  0  0
 16 47  1  0  0  0  0
 17 23  1  0  0  0  0
 17 48  1  0  0  0  0
 18 25  1  0  0  0  0
 18 49  1  0  0  0  0
 19 24  1  0  0  0  0
 19 50  1  0  0  0  0
 19 51  1  0  0  0  0
 20 32  2  0  0  0  0
 20 33  1  0  0  0  0
 21 22  1  0  0  0  0
 21 26  2  0  0  0  0
 21 30  1  0  0  0  0
 22 27  1  0  0  0  0
 22 52  1  0  0  0  0
 22 53  1  0  0  0  0
 23 25  2  0  0  0  0
 23 54  1  0  0  0  0
 24 55  1  0  0  0  0
 24 56  1  0  0  0  0
 25 57  1  0  0  0  0
 26 29  1  0  0  0  0
 27 31  1  0  0  0  0
 27 58  1  0  0  0  0
 27 59  1  0  0  0  0
 28 29  2  0  0  0  0
 28 34  1  0  0  0  0
 29 60  1  0  0  0  0
 30 34  2  0  0  0  0
 30 61  1  0  0  0  0
 32 35  1  0  0  0  0
 32 63  1  0  0  0  0
 33 36  2  0  0  0  0
 33 64  1  0  0  0  0
 34 65  1  0  0  0  0
 35 37  2  0  0  0  0
 35 66  1  0  0  0  0
 36 37  1  0  0  0  0
 36 67  1  0  0  0  0
 37 68  1  0  0  0  0
M  END
> <PUBCHEM_COMPOUND_CID>
118731507

> <PUBCHEM_COMPOUND_CANONICALIZED>
1

> <PUBCHEM_CACTVS_COMPLEXITY>
841

> <PUBCHEM_CACTVS_HBOND_ACCEPTOR>
5

> <PUBCHEM_CACTVS_HBOND_DONOR>
2

> <PUBCHEM_CACTVS_ROTATABLE_BOND>
11

> <PUBCHEM_CACTVS_SUBSKEYS>
AAADceB7OABAAAAAAAAAAAAAAAAAAWAAAAA8YMEAAAAAAFix9AAAHgQQQAAADAzh3gY8x/LIFAKoAzV3VHDCiDAxIiAI2Lk+bJgMJvLEsZuGOCjm1BnI6Ae42eOeoAAAAgACAABAAAAEAAQAAAAAAAAAAA==

> <PUBCHEM_IUPAC_OPENEYE_NAME>
7-[4-[2-[1-(benzenesulfonyl)indol-3-yl]ethylamino]butoxy]-3,4-dihydro-1H-quinolin-2-one

> <PUBCHEM_IUPAC_CAS_NAME>
7-[4-[2-[1-(benzenesulfonyl)-3-indolyl]ethylamino]butoxy]-3,4-dihydro-1H-quinolin-2-one

> <PUBCHEM_IUPAC_NAME_MARKUP>
7-[4-[2-[1-(benzenesulfonyl)indol-3-yl]ethylamino]butoxy]-3,4-dihydro-1<I>H</I>-quinolin-2-one

> <PUBCHEM_IUPAC_NAME>
7-[4-[2-[1-(benzenesulfonyl)indol-3-yl]ethylamino]butoxy]-3,4-dihydro-1H-quinolin-2-one

> <PUBCHEM_IUPAC_SYSTEMATIC_NAME>
7-[4-[2-[1-(phenylsulfonyl)indol-3-yl]ethylamino]butoxy]-3,4-dihydro-1H-quinolin-2-one

> <PUBCHEM_IUPAC_TRADITIONAL_NAME>
7-[4-[2-(1-besylindol-3-yl)ethylamino]butoxy]-3,4-dihydrocarbostyril

> <PUBCHEM_IUPAC_INCHI>
InChI=1S/C29H31N3O4S/c33-29-15-13-22-12-14-24(20-27(22)31-29)36-19-7-6-17-30-18-16-23-21-32(28-11-5-4-10-26(23)28)37(34,35)25-8-2-1-3-9-25/h1-5,8-12,14,20-21,30H,6-7,13,15-19H2,(H,31,33)

> <PUBCHEM_IUPAC_INCHIKEY>
IJFJQGSENNDENR-UHFFFAOYSA-N

> <PUBCHEM_XLOGP3_AA>
4.6

> <PUBCHEM_EXACT_MASS>
517.20352765

> <PUBCHEM_MOLECULAR_FORMULA>
C29H31N3O4S

> <PUBCHEM_MOLECULAR_WEIGHT>
517.6

> <PUBCHEM_OPENEYE_CAN_SMILES>
C1CC(=O)NC2=C1C=CC(=C2)OCCCCNCCC3=CN(C4=CC=CC=C43)S(=O)(=O)C5=CC=CC=C5

> <PUBCHEM_OPENEYE_ISO_SMILES>
C1CC(=O)NC2=C1C=CC(=C2)OCCCCNCCC3=CN(C4=CC=CC=C43)S(=O)(=O)C5=CC=CC=C5

> <PUBCHEM_CACTVS_TPSA>
97.8

> <PUBCHEM_MONOISOTOPIC_WEIGHT>
517.20352765

> <PUBCHEM_TOTAL_CHARGE>
0

> <PUBCHEM_HEAVY_ATOM_COUNT>
37

> <PUBCHEM_ATOM_DEF_STEREO_COUNT>
0

> <PUBCHEM_ATOM_UDEF_STEREO_COUNT>
0

> <PUBCHEM_BOND_DEF_STEREO_COUNT>
0

> <PUBCHEM_BOND_UDEF_STEREO_COUNT>
0

> <PUBCHEM_ISOTOPIC_ATOM_COUNT>
0

> <PUBCHEM_COMPONENT_COUNT>
1

> <PUBCHEM_CACTVS_TAUTO_COUNT>
-1

> <PUBCHEM_COORDINATE_TYPE>
1
5
255

> <PUBCHEM_BONDANNOTATIONS>
10  12  8
10  17  8
12  18  8
17  23  8
18  25  8
20  32  8
20  33  8
21  26  8
21  30  8
23  25  8
26  29  8
28  29  8
28  34  8
30  34  8
32  35  8
33  36  8
35  37  8
36  37  8
6  12  8
6  13  8
9  10  8
9  13  8

$$$$
