164615797
  -OEChem-09292322432D

 48 51  0     1  0  0  0  0  0999 V2000
    2.7357   -1.2602    0.0000 O   0  0  0  0  0  0  0  0  0  0  0  0
    4.7715    2.3063    0.0000 N   0  0  3  0  0  0  0  0  0  0  0  0
    7.0731   -0.3966    0.0000 N   0  0  0  0  0  0  0  0  0  0  0  0
    6.5731   -2.5873    0.0000 N   0  0  0  0  0  0  0  0  0  0  0  0
    4.6420    0.5791    0.0000 C   0  0  0  0  0  0  0  0  0  0  0  0
    4.2082    1.4801    0.0000 C   0  0  0  0  0  0  0  0  0  0  0  0
    5.6392    0.5044    0.0000 C   0  0  0  0  0  0  0  0  0  0  0  0
    5.7687    2.2316    0.0000 C   0  0  0  0  0  0  0  0  0  0  0  0
    6.0731   -0.3966    0.0000 C   0  0  0  0  0  0  0  0  0  0  0  0
    6.2026    1.3306    0.0000 C   0  0  0  0  0  0  0  0  0  0  0  0
    5.4496   -1.1784    0.0000 C   0  0  0  0  0  0  0  0  0  0  0  0
    5.6721   -2.1534    0.0000 C   0  0  0  0  0  0  0  0  0  0  0  0
    4.3376    3.2073    0.0000 C   0  0  0  0  0  0  0  0  0  0  0  0
    7.6966   -1.1785    0.0000 C   0  0  0  0  0  0  0  0  0  0  0  0
    7.4741   -2.1534    0.0000 C   0  0  0  0  0  0  0  0  0  0  0  0
    4.4591   -0.8561    0.0000 C   0  0  0  0  0  0  0  0  0  0  0  0
    4.9196   -2.8736    0.0000 C   0  0  0  0  0  0  0  0  0  0  0  0
    3.6901   -1.5587    0.0000 C   0  0  0  0  0  0  0  0  0  0  0  0
    8.6871   -0.8561    0.0000 C   0  0  0  0  0  0  0  0  0  0  0  0
    8.2266   -2.8736    0.0000 C   0  0  0  0  0  0  0  0  0  0  0  0
    3.9219   -2.5742    0.0000 C   0  0  0  0  0  0  0  0  0  0  0  0
    9.4561   -1.5587    0.0000 C   0  0  0  0  0  0  0  0  0  0  0  0
    9.2243   -2.5742    0.0000 C   0  0  0  0  0  0  0  0  0  0  0  0
   10.4105   -1.2603    0.0000 C   0  0  0  0  0  0  0  0  0  0  0  0
    2.0000   -1.9376    0.0000 C   0  0  0  0  0  0  0  0  0  0  0  0
    4.0452    0.4112    0.0000 H   0  0  0  0  0  0  0  0  0  0  0  0
    4.7038   -0.0378    0.0000 H   0  0  0  0  0  0  0  0  0  0  0  0
    3.7643    1.9130    0.0000 H   0  0  0  0  0  0  0  0  0  0  0  0
    3.7048    1.1181    0.0000 H   0  0  0  0  0  0  0  0  0  0  0  0
    6.3655    2.3995    0.0000 H   0  0  0  0  0  0  0  0  0  0  0  0
    5.7070    2.8485    0.0000 H   0  0  0  0  0  0  0  0  0  0  0  0
    6.8208    1.2842    0.0000 H   0  0  0  0  0  0  0  0  0  0  0  0
    4.8962    3.4763    0.0000 H   0  0  0  0  0  0  0  0  0  0  0  0
    4.0686    3.7659    0.0000 H   0  0  0  0  0  0  0  0  0  0  0  0
    3.7790    2.9383    0.0000 H   0  0  0  0  0  0  0  0  0  0  0  0
    6.5731   -3.2073    0.0000 H   0  0  0  0  0  0  0  0  0  0  0  0
    4.3282   -0.2501    0.0000 H   0  0  0  0  0  0  0  0  0  0  0  0
    5.0645   -3.4764    0.0000 H   0  0  0  0  0  0  0  0  0  0  0  0
    8.8181   -0.2501    0.0000 H   0  0  0  0  0  0  0  0  0  0  0  0
    8.0817   -3.4764    0.0000 H   0  0  0  0  0  0  0  0  0  0  0  0
    3.4690   -2.9976    0.0000 H   0  0  0  0  0  0  0  0  0  0  0  0
    9.6772   -2.9977    0.0000 H   0  0  0  0  0  0  0  0  0  0  0  0
   10.5956   -1.8520    0.0000 H   0  0  0  0  0  0  0  0  0  0  0  0
   11.0023   -1.0753    0.0000 H   0  0  0  0  0  0  0  0  0  0  0  0
   10.2255   -0.6685    0.0000 H   0  0  0  0  0  0  0  0  0  0  0  0
    1.5800   -1.4815    0.0000 H   0  0  0  0  0  0  0  0  0  0  0  0
    1.5439   -2.3575    0.0000 H   0  0  0  0  0  0  0  0  0  0  0  0
    2.4200   -2.3937    0.0000 H   0  0  0  0  0  0  0  0  0  0  0  0
  1 18  1  0  0  0  0
  1 25  1  0  0  0  0
  2  6  1  0  0  0  0
  2  8  1  0  0  0  0
  2 13  1  0  0  0  0
  3  9  2  0  0  0  0
  3 14  1  0  0  0  0
  4 12  1  0  0  0  0
  4 15  1  0  0  0  0
  4 36  1  0  0  0  0
  5  6  1  0  0  0  0
  5  7  1  0  0  0  0
  5 26  1  0  0  0  0
  5 27  1  0  0  0  0
  6 28  1  0  0  0  0
  6 29  1  0  0  0  0
  7  9  1  0  0  0  0
  7 10  2  0  0  0  0
  8 10  1  0  0  0  0
  8 30  1  0  0  0  0
  8 31  1  0  0  0  0
  9 11  1  0  0  0  0
 10 32  1  0  0  0  0
 11 12  2  0  0  0  0
 11 16  1  0  0  0  0
 12 17  1  0  0  0  0
 13 33  1  0  0  0  0
 13 34  1  0  0  0  0
 13 35  1  0  0  0  0
 14 15  2  0  0  0  0
 14 19  1  0  0  0  0
 15 20  1  0  0  0  0
 16 18  2  0  0  0  0
 16 37  1  0  0  0  0
 17 21  2  0  0  0  0
 17 38  1  0  0  0  0
 18 21  1  0  0  0  0
 19 22  2  0  0  0  0
 19 39  1  0  0  0  0
 20 23  2  0  0  0  0
 20 40  1  0  0  0  0
 21 41  1  0  0  0  0
 22 23  1  0  0  0  0
 22 24  1  0  0  0  0
 23 42  1  0  0  0  0
 24 43  1  0  0  0  0
 24 44  1  0  0  0  0
 24 45  1  0  0  0  0
 25 46  1  0  0  0  0
 25 47  1  0  0  0  0
 25 48  1  0  0  0  0
M  END
> <PUBCHEM_COMPOUND_CID>
164615797

> <PUBCHEM_COMPOUND_CANONICALIZED>
1

> <PUBCHEM_CACTVS_COMPLEXITY>
543

> <PUBCHEM_CACTVS_HBOND_ACCEPTOR>
4

> <PUBCHEM_CACTVS_HBOND_DONOR>
1

> <PUBCHEM_CACTVS_ROTATABLE_BOND>
2

> <PUBCHEM_CACTVS_SUBSKEYS>
AAADceB7IAAAAAAAAAAAAAAAAAAAAAAAAAAwYIAABAAAAAABQAAAHgAQAAAADAzBmAYyxoPABACgAyRiRACCCAAhIgAIiAAufJgMZuLEsZuUMChk0BHI6AewwLAOCEABQAACACAQgAKAAAQAQAAAAAAAAA==

> <PUBCHEM_IUPAC_OPENEYE_NAME>
8-methoxy-3-methyl-6-(1-methyl-3,6-dihydro-2H-pyridin-4-yl)-11H-benzo[b][1,4]benzodiazepine

> <PUBCHEM_IUPAC_CAS_NAME>
8-methoxy-3-methyl-6-(1-methyl-3,6-dihydro-2H-pyridin-4-yl)-11H-benzo[b][1,4]benzodiazepine

> <PUBCHEM_IUPAC_NAME_MARKUP>
8-methoxy-3-methyl-6-(1-methyl-3,6-dihydro-2<I>H</I>-pyridin-4-yl)-11<I>H</I>-benzo[b][1,4]benzodiazepine

> <PUBCHEM_IUPAC_NAME>
8-methoxy-3-methyl-6-(1-methyl-3,6-dihydro-2H-pyridin-4-yl)-11H-benzo[b][1,4]benzodiazepine

> <PUBCHEM_IUPAC_SYSTEMATIC_NAME>
8-methoxy-3-methyl-6-(1-methyl-3,6-dihydro-2H-pyridin-4-yl)-11H-benzo[b][1,4]benzodiazepine

> <PUBCHEM_IUPAC_TRADITIONAL_NAME>
8-methoxy-3-methyl-6-(1-methyl-3,6-dihydro-2H-pyridin-4-yl)-11H-benzo[b][1,4]benzodiazepine

> <PUBCHEM_IUPAC_INCHI>
InChI=1S/C21H23N3O/c1-14-4-6-19-20(12-14)23-21(15-8-10-24(2)11-9-15)17-13-16(25-3)5-7-18(17)22-19/h4-8,12-13,22H,9-11H2,1-3H3

> <PUBCHEM_IUPAC_INCHIKEY>
KNQWZRSCBVNFCG-UHFFFAOYSA-N

> <PUBCHEM_XLOGP3_AA>
3.7

> <PUBCHEM_EXACT_MASS>
333.184112366

> <PUBCHEM_MOLECULAR_FORMULA>
C21H23N3O

> <PUBCHEM_MOLECULAR_WEIGHT>
333.4

> <PUBCHEM_OPENEYE_CAN_SMILES>
CC1=CC2=C(C=C1)NC3=C(C=C(C=C3)OC)C(=N2)C4=CCN(CC4)C

> <PUBCHEM_OPENEYE_ISO_SMILES>
CC1=CC2=C(C=C1)NC3=C(C=C(C=C3)OC)C(=N2)C4=CCN(CC4)C

> <PUBCHEM_CACTVS_TPSA>
36.9

> <PUBCHEM_MONOISOTOPIC_WEIGHT>
333.184112366

> <PUBCHEM_TOTAL_CHARGE>
0

> <PUBCHEM_HEAVY_ATOM_COUNT>
25

> <PUBCHEM_ATOM_DEF_STEREO_COUNT>
0

> <PUBCHEM_ATOM_UDEF_STEREO_COUNT>
0

> <PUBCHEM_BOND_DEF_STEREO_COUNT>
0

> <PUBCHEM_BOND_UDEF_STEREO_COUNT>
0

> <PUBCHEM_ISOTOPIC_ATOM_COUNT>
0

> <PUBCHEM_COMPONENT_COUNT>
1

> <PUBCHEM_CACTVS_TAUTO_COUNT>
-1

> <PUBCHEM_COORDINATE_TYPE>
1
5
255

> <PUBCHEM_BONDANNOTATIONS>
11  12  8
11  16  8
12  17  8
14  15  8
14  19  8
15  20  8
16  18  8
17  21  8
18  21  8
19  22  8
20  23  8
22  23  8

$$$$
