22397846
  -OEChem-09292322292D

 36 37  0     0  0  0  0  0  0999 V2000
    2.0000   -3.4400    0.0000 O   0  0  0  0  0  0  0  0  0  0  0  0
    3.7320    1.5600    0.0000 N   0  0  0  0  0  0  0  0  0  0  0  0
    3.7320   -0.4400    0.0000 N   0  0  0  0  0  0  0  0  0  0  0  0
    4.5981    1.0600    0.0000 C   0  0  0  0  0  0  0  0  0  0  0  0
    2.8660    1.0600    0.0000 C   0  0  0  0  0  0  0  0  0  0  0  0
    4.5981    0.0600    0.0000 C   0  0  0  0  0  0  0  0  0  0  0  0
    2.8660    0.0600    0.0000 C   0  0  0  0  0  0  0  0  0  0  0  0
    3.7320    2.5600    0.0000 C   0  0  0  0  0  0  0  0  0  0  0  0
    3.7320   -1.4400    0.0000 C   0  0  0  0  0  0  0  0  0  0  0  0
    4.5981    3.0600    0.0000 C   0  0  0  0  0  0  0  0  0  0  0  0
    2.8660   -1.9400    0.0000 C   0  0  0  0  0  0  0  0  0  0  0  0
    4.5981   -1.9400    0.0000 C   0  0  0  0  0  0  0  0  0  0  0  0
    4.5981    4.0600    0.0000 C   0  0  0  0  0  0  0  0  0  0  0  0
    2.8660   -2.9400    0.0000 C   0  0  0  0  0  0  0  0  0  0  0  0
    4.5981   -2.9400    0.0000 C   0  0  0  0  0  0  0  0  0  0  0  0
    3.7320   -3.4400    0.0000 C   0  0  0  0  0  0  0  0  0  0  0  0
    5.2087    0.9523    0.0000 H   0  0  0  0  0  0  0  0  0  0  0  0
    4.8101    1.6426    0.0000 H   0  0  0  0  0  0  0  0  0  0  0  0
    2.6540    1.6426    0.0000 H   0  0  0  0  0  0  0  0  0  0  0  0
    2.2554    0.9523    0.0000 H   0  0  0  0  0  0  0  0  0  0  0  0
    4.8101   -0.5226    0.0000 H   0  0  0  0  0  0  0  0  0  0  0  0
    5.2087    0.1677    0.0000 H   0  0  0  0  0  0  0  0  0  0  0  0
    2.2554    0.1677    0.0000 H   0  0  0  0  0  0  0  0  0  0  0  0
    2.6540   -0.5226    0.0000 H   0  0  0  0  0  0  0  0  0  0  0  0
    3.5200    3.1426    0.0000 H   0  0  0  0  0  0  0  0  0  0  0  0
    3.1215    2.4523    0.0000 H   0  0  0  0  0  0  0  0  0  0  0  0
    4.8101    2.4774    0.0000 H   0  0  0  0  0  0  0  0  0  0  0  0
    5.2087    3.1677    0.0000 H   0  0  0  0  0  0  0  0  0  0  0  0
    2.3291   -1.6300    0.0000 H   0  0  0  0  0  0  0  0  0  0  0  0
    5.1350   -1.6300    0.0000 H   0  0  0  0  0  0  0  0  0  0  0  0
    5.2181    4.0600    0.0000 H   0  0  0  0  0  0  0  0  0  0  0  0
    4.5981    4.6800    0.0000 H   0  0  0  0  0  0  0  0  0  0  0  0
    3.9781    4.0600    0.0000 H   0  0  0  0  0  0  0  0  0  0  0  0
    5.1350   -3.2500    0.0000 H   0  0  0  0  0  0  0  0  0  0  0  0
    3.7320   -4.0600    0.0000 H   0  0  0  0  0  0  0  0  0  0  0  0
    2.0000   -4.0600    0.0000 H   0  0  0  0  0  0  0  0  0  0  0  0
  1 14  1  0  0  0  0
  1 36  1  0  0  0  0
  2  4  1  0  0  0  0
  2  5  1  0  0  0  0
  2  8  1  0  0  0  0
  3  6  1  0  0  0  0
  3  7  1  0  0  0  0
  3  9  1  0  0  0  0
  4  6  1  0  0  0  0
  4 17  1  0  0  0  0
  4 18  1  0  0  0  0
  5  7  1  0  0  0  0
  5 19  1  0  0  0  0
  5 20  1  0  0  0  0
  6 21  1  0  0  0  0
  6 22  1  0  0  0  0
  7 23  1  0  0  0  0
  7 24  1  0  0  0  0
  8 10  1  0  0  0  0
  8 25  1  0  0  0  0
  8 26  1  0  0  0  0
  9 11  2  0  0  0  0
  9 12  1  0  0  0  0
 10 13  1  0  0  0  0
 10 27  1  0  0  0  0
 10 28  1  0  0  0  0
 11 14  1  0  0  0  0
 11 29  1  0  0  0  0
 12 15  2  0  0  0  0
 12 30  1  0  0  0  0
 13 31  1  0  0  0  0
 13 32  1  0  0  0  0
 13 33  1  0  0  0  0
 14 16  2  0  0  0  0
 15 16  1  0  0  0  0
 15 34  1  0  0  0  0
 16 35  1  0  0  0  0
M  END
> <PUBCHEM_COMPOUND_CID>
22397846

> <PUBCHEM_COMPOUND_CANONICALIZED>
1

> <PUBCHEM_CACTVS_COMPLEXITY>
202

> <PUBCHEM_CACTVS_HBOND_ACCEPTOR>
3

> <PUBCHEM_CACTVS_HBOND_DONOR>
1

> <PUBCHEM_CACTVS_ROTATABLE_BOND>
3

> <PUBCHEM_CACTVS_SUBSKEYS>
AAADceBzIAAAAAAAAAAAAAAAAAAAAAAAAAA8QAAAAAAAAAABAAAAHgAACAAACAzBkAQyxoMAAgCAACRCQACCAAAhIgAIiAAObIgIZiLCkZOUcAhmwBnI2AeQUAMAAAAAAgAAAAAAAAAEAAAAAAAAAAAAAA==

> <PUBCHEM_IUPAC_OPENEYE_NAME>
3-(4-propylpiperazin-1-yl)phenol

> <PUBCHEM_IUPAC_CAS_NAME>
3-(4-propyl-1-piperazinyl)phenol

> <PUBCHEM_IUPAC_NAME_MARKUP>
3-(4-propylpiperazin-1-yl)phenol

> <PUBCHEM_IUPAC_NAME>
3-(4-propylpiperazin-1-yl)phenol

> <PUBCHEM_IUPAC_SYSTEMATIC_NAME>
3-(4-propylpiperazin-1-yl)phenol

> <PUBCHEM_IUPAC_TRADITIONAL_NAME>
3-(4-propylpiperazino)phenol

> <PUBCHEM_IUPAC_INCHI>
InChI=1S/C13H20N2O/c1-2-6-14-7-9-15(10-8-14)12-4-3-5-13(16)11-12/h3-5,11,16H,2,6-10H2,1H3

> <PUBCHEM_IUPAC_INCHIKEY>
AWROKCIGUWAVRF-UHFFFAOYSA-N

> <PUBCHEM_XLOGP3_AA>
2.4

> <PUBCHEM_EXACT_MASS>
220.157563266

> <PUBCHEM_MOLECULAR_FORMULA>
C13H20N2O

> <PUBCHEM_MOLECULAR_WEIGHT>
220.31

> <PUBCHEM_OPENEYE_CAN_SMILES>
CCCN1CCN(CC1)C2=CC(=CC=C2)O

> <PUBCHEM_OPENEYE_ISO_SMILES>
CCCN1CCN(CC1)C2=CC(=CC=C2)O

> <PUBCHEM_CACTVS_TPSA>
26.7

> <PUBCHEM_MONOISOTOPIC_WEIGHT>
220.157563266

> <PUBCHEM_TOTAL_CHARGE>
0

> <PUBCHEM_HEAVY_ATOM_COUNT>
16

> <PUBCHEM_ATOM_DEF_STEREO_COUNT>
0

> <PUBCHEM_ATOM_UDEF_STEREO_COUNT>
0

> <PUBCHEM_BOND_DEF_STEREO_COUNT>
0

> <PUBCHEM_BOND_UDEF_STEREO_COUNT>
0

> <PUBCHEM_ISOTOPIC_ATOM_COUNT>
0

> <PUBCHEM_COMPONENT_COUNT>
1

> <PUBCHEM_CACTVS_TAUTO_COUNT>
-1

> <PUBCHEM_COORDINATE_TYPE>
1
5
255

> <PUBCHEM_BONDANNOTATIONS>
11  14  8
12  15  8
14  16  8
15  16  8
9  11  8
9  12  8

$$$$
