44589179
  -OEChem-09292322232D

 66 69  0     0  0  0  0  0  0999 V2000
    2.0000   -8.7694    0.0000 F   0  0  0  0  0  0  0  0  0  0  0  0
    2.8660   -6.2694    0.0000 O   0  0  0  0  0  0  0  0  0  0  0  0
    8.0622    2.7306    0.0000 O   0  0  0  0  0  0  0  0  0  0  0  0
    4.5981   -1.2694    0.0000 N   0  0  0  0  0  0  0  0  0  0  0  0
    4.5981   -3.2694    0.0000 N   0  0  0  0  0  0  0  0  0  0  0  0
    6.3301    2.7306    0.0000 N   0  0  0  0  0  0  0  0  0  0  0  0
    7.1962    7.2306    0.0000 N   0  0  0  0  0  0  0  0  0  0  0  0
    6.6962    8.7694    0.0000 N   0  0  0  0  0  0  0  0  0  0  0  0
    5.4641   -1.7694    0.0000 C   0  0  0  0  0  0  0  0  0  0  0  0
    3.7320   -1.7694    0.0000 C   0  0  0  0  0  0  0  0  0  0  0  0
    5.4641   -2.7694    0.0000 C   0  0  0  0  0  0  0  0  0  0  0  0
    3.7320   -2.7694    0.0000 C   0  0  0  0  0  0  0  0  0  0  0  0
    4.5981   -0.2694    0.0000 C   0  0  0  0  0  0  0  0  0  0  0  0
    5.4641    0.2306    0.0000 C   0  0  0  0  0  0  0  0  0  0  0  0
    4.5981   -4.2694    0.0000 C   0  0  0  0  0  0  0  0  0  0  0  0
    5.4641    1.2306    0.0000 C   0  0  0  0  0  0  0  0  0  0  0  0
    6.3301    1.7306    0.0000 C   0  0  0  0  0  0  0  0  0  0  0  0
    3.7320   -4.7694    0.0000 C   0  0  0  0  0  0  0  0  0  0  0  0
    5.4641   -4.7694    0.0000 C   0  0  0  0  0  0  0  0  0  0  0  0
    3.7320   -5.7694    0.0000 C   0  0  0  0  0  0  0  0  0  0  0  0
    5.4641   -5.7694    0.0000 C   0  0  0  0  0  0  0  0  0  0  0  0
    4.5981   -6.2694    0.0000 C   0  0  0  0  0  0  0  0  0  0  0  0
    7.1962    3.2306    0.0000 C   0  0  0  0  0  0  0  0  0  0  0  0
    7.1962    4.2306    0.0000 C   0  0  0  0  0  0  0  0  0  0  0  0
    2.8660   -7.2694    0.0000 C   0  0  0  0  0  0  0  0  0  0  0  0
    8.0622    4.7306    0.0000 C   0  0  0  0  0  0  0  0  0  0  0  0
    6.3301    4.7306    0.0000 C   0  0  0  0  0  0  0  0  0  0  0  0
    7.1962    6.2306    0.0000 C   0  0  0  0  0  0  0  0  0  0  0  0
    8.0622    5.7306    0.0000 C   0  0  0  0  0  0  0  0  0  0  0  0
    6.3301    5.7306    0.0000 C   0  0  0  0  0  0  0  0  0  0  0  0
    2.0000   -7.7694    0.0000 C   0  0  0  0  0  0  0  0  0  0  0  0
    8.0052    7.8184    0.0000 C   0  0  0  0  0  0  0  0  0  0  0  0
    6.3871    7.8184    0.0000 C   0  0  0  0  0  0  0  0  0  0  0  0
    7.6962    8.7694    0.0000 C   0  0  0  0  0  0  0  0  0  0  0  0
    6.0747   -1.8771    0.0000 H   0  0  0  0  0  0  0  0  0  0  0  0
    5.6762   -1.1868    0.0000 H   0  0  0  0  0  0  0  0  0  0  0  0
    3.5200   -1.1868    0.0000 H   0  0  0  0  0  0  0  0  0  0  0  0
    3.1215   -1.8771    0.0000 H   0  0  0  0  0  0  0  0  0  0  0  0
    5.6762   -3.3520    0.0000 H   0  0  0  0  0  0  0  0  0  0  0  0
    6.0747   -2.6618    0.0000 H   0  0  0  0  0  0  0  0  0  0  0  0
    3.1215   -2.6618    0.0000 H   0  0  0  0  0  0  0  0  0  0  0  0
    3.5200   -3.3520    0.0000 H   0  0  0  0  0  0  0  0  0  0  0  0
    4.3860    0.3132    0.0000 H   0  0  0  0  0  0  0  0  0  0  0  0
    3.9875   -0.3771    0.0000 H   0  0  0  0  0  0  0  0  0  0  0  0
    5.6762   -0.3520    0.0000 H   0  0  0  0  0  0  0  0  0  0  0  0
    6.0747    0.3382    0.0000 H   0  0  0  0  0  0  0  0  0  0  0  0
    5.2520    1.8132    0.0000 H   0  0  0  0  0  0  0  0  0  0  0  0
    4.8535    1.1229    0.0000 H   0  0  0  0  0  0  0  0  0  0  0  0
    6.5422    1.1480    0.0000 H   0  0  0  0  0  0  0  0  0  0  0  0
    6.9407    1.8382    0.0000 H   0  0  0  0  0  0  0  0  0  0  0  0
    3.1951   -4.4594    0.0000 H   0  0  0  0  0  0  0  0  0  0  0  0
    6.0010   -4.4594    0.0000 H   0  0  0  0  0  0  0  0  0  0  0  0
    6.0010   -6.0794    0.0000 H   0  0  0  0  0  0  0  0  0  0  0  0
    5.7932    3.0406    0.0000 H   0  0  0  0  0  0  0  0  0  0  0  0
    4.5981   -6.8894    0.0000 H   0  0  0  0  0  0  0  0  0  0  0  0
    3.0781   -7.8520    0.0000 H   0  0  0  0  0  0  0  0  0  0  0  0
    3.4766   -7.1618    0.0000 H   0  0  0  0  0  0  0  0  0  0  0  0
    8.5991    4.4206    0.0000 H   0  0  0  0  0  0  0  0  0  0  0  0
    5.7932    4.4206    0.0000 H   0  0  0  0  0  0  0  0  0  0  0  0
    8.5991    6.0406    0.0000 H   0  0  0  0  0  0  0  0  0  0  0  0
    5.7932    6.0406    0.0000 H   0  0  0  0  0  0  0  0  0  0  0  0
    1.7880   -7.1868    0.0000 H   0  0  0  0  0  0  0  0  0  0  0  0
    1.3894   -7.8771    0.0000 H   0  0  0  0  0  0  0  0  0  0  0  0
    8.5948    7.6268    0.0000 H   0  0  0  0  0  0  0  0  0  0  0  0
    5.7975    7.6268    0.0000 H   0  0  0  0  0  0  0  0  0  0  0  0
    8.0606    9.2710    0.0000 H   0  0  0  0  0  0  0  0  0  0  0  0
  1 31  1  0  0  0  0
  2 20  1  0  0  0  0
  2 25  1  0  0  0  0
  3 23  2  0  0  0  0
  4  9  1  0  0  0  0
  4 10  1  0  0  0  0
  4 13  1  0  0  0  0
  5 11  1  0  0  0  0
  5 12  1  0  0  0  0
  5 15  1  0  0  0  0
  6 17  1  0  0  0  0
  6 23  1  0  0  0  0
  6 54  1  0  0  0  0
  7 28  1  0  0  0  0
  7 32  1  0  0  0  0
  7 33  1  0  0  0  0
  8 33  2  0  0  0  0
  8 34  1  0  0  0  0
  9 11  1  0  0  0  0
  9 35  1  0  0  0  0
  9 36  1  0  0  0  0
 10 12  1  0  0  0  0
 10 37  1  0  0  0  0
 10 38  1  0  0  0  0
 11 39  1  0  0  0  0
 11 40  1  0  0  0  0
 12 41  1  0  0  0  0
 12 42  1  0  0  0  0
 13 14  1  0  0  0  0
 13 43  1  0  0  0  0
 13 44  1  0  0  0  0
 14 16  1  0  0  0  0
 14 45  1  0  0  0  0
 14 46  1  0  0  0  0
 15 18  2  0  0  0  0
 15 19  1  0  0  0  0
 16 17  1  0  0  0  0
 16 47  1  0  0  0  0
 16 48  1  0  0  0  0
 17 49  1  0  0  0  0
 17 50  1  0  0  0  0
 18 20  1  0  0  0  0
 18 51  1  0  0  0  0
 19 21  2  0  0  0  0
 19 52  1  0  0  0  0
 20 22  2  0  0  0  0
 21 22  1  0  0  0  0
 21 53  1  0  0  0  0
 22 55  1  0  0  0  0
 23 24  1  0  0  0  0
 24 26  2  0  0  0  0
 24 27  1  0  0  0  0
 25 31  1  0  0  0  0
 25 56  1  0  0  0  0
 25 57  1  0  0  0  0
 26 29  1  0  0  0  0
 26 58  1  0  0  0  0
 27 30  2  0  0  0  0
 27 59  1  0  0  0  0
 28 29  2  0  0  0  0
 28 30  1  0  0  0  0
 29 60  1  0  0  0  0
 30 61  1  0  0  0  0
 31 62  1  0  0  0  0
 31 63  1  0  0  0  0
 32 34  2  0  0  0  0
 32 64  1  0  0  0  0
 33 65  1  0  0  0  0
 34 66  1  0  0  0  0
M  END
> <PUBCHEM_COMPOUND_CID>
44589179

> <PUBCHEM_COMPOUND_CANONICALIZED>
1

> <PUBCHEM_CACTVS_COMPLEXITY>
596

> <PUBCHEM_CACTVS_HBOND_ACCEPTOR>
6

> <PUBCHEM_CACTVS_HBOND_DONOR>
1

> <PUBCHEM_CACTVS_ROTATABLE_BOND>
11

> <PUBCHEM_CACTVS_SUBSKEYS>
AAADcfB7sQAAAAAAAAAAAAAAAAAAAWAAAAA8YIAAAAAAAAAB0AAAHwAQAAAADAzhmgY91pfMFACoAjV3dACCiC01MqAJyIEefMiMbnLEvZuWOSju1hvI6aeY2QOeCAAAAgAAAAAQAAAEAAAAAAAAAAAAAA==

> <PUBCHEM_IUPAC_OPENEYE_NAME>
N-[4-[4-[3-(2-fluoroethoxy)phenyl]piperazin-1-yl]butyl]-4-imidazol-1-yl-benzamide

> <PUBCHEM_IUPAC_CAS_NAME>
N-[4-[4-[3-(2-fluoroethoxy)phenyl]-1-piperazinyl]butyl]-4-(1-imidazolyl)benzamide

> <PUBCHEM_IUPAC_NAME_MARKUP>
<I>N</I>-[4-[4-[3-(2-fluoroethoxy)phenyl]piperazin-1-yl]butyl]-4-imidazol-1-ylbenzamide

> <PUBCHEM_IUPAC_NAME>
N-[4-[4-[3-(2-fluoroethoxy)phenyl]piperazin-1-yl]butyl]-4-imidazol-1-ylbenzamide

> <PUBCHEM_IUPAC_SYSTEMATIC_NAME>
N-[4-[4-[3-(2-fluoranylethoxy)phenyl]piperazin-1-yl]butyl]-4-imidazol-1-yl-benzamide

> <PUBCHEM_IUPAC_TRADITIONAL_NAME>
N-[4-[4-[3-(2-fluoroethoxy)phenyl]piperazino]butyl]-4-imidazol-1-yl-benzamide

> <PUBCHEM_IUPAC_INCHI>
InChI=1S/C26H32FN5O2/c27-10-19-34-25-5-3-4-24(20-25)31-17-15-30(16-18-31)13-2-1-11-29-26(33)22-6-8-23(9-7-22)32-14-12-28-21-32/h3-9,12,14,20-21H,1-2,10-11,13,15-19H2,(H,29,33)

> <PUBCHEM_IUPAC_INCHIKEY>
FVTIZFQEARZLMQ-UHFFFAOYSA-N

> <PUBCHEM_XLOGP3_AA>
3.6

> <PUBCHEM_EXACT_MASS>
465.25400344

> <PUBCHEM_MOLECULAR_FORMULA>
C26H32FN5O2

> <PUBCHEM_MOLECULAR_WEIGHT>
465.6

> <PUBCHEM_OPENEYE_CAN_SMILES>
C1CN(CCN1CCCCNC(=O)C2=CC=C(C=C2)N3C=CN=C3)C4=CC(=CC=C4)OCCF

> <PUBCHEM_OPENEYE_ISO_SMILES>
C1CN(CCN1CCCCNC(=O)C2=CC=C(C=C2)N3C=CN=C3)C4=CC(=CC=C4)OCCF

> <PUBCHEM_CACTVS_TPSA>
62.6

> <PUBCHEM_MONOISOTOPIC_WEIGHT>
465.25400344

> <PUBCHEM_TOTAL_CHARGE>
0

> <PUBCHEM_HEAVY_ATOM_COUNT>
34

> <PUBCHEM_ATOM_DEF_STEREO_COUNT>
0

> <PUBCHEM_ATOM_UDEF_STEREO_COUNT>
0

> <PUBCHEM_BOND_DEF_STEREO_COUNT>
0

> <PUBCHEM_BOND_UDEF_STEREO_COUNT>
0

> <PUBCHEM_ISOTOPIC_ATOM_COUNT>
0

> <PUBCHEM_COMPONENT_COUNT>
1

> <PUBCHEM_CACTVS_TAUTO_COUNT>
-1

> <PUBCHEM_COORDINATE_TYPE>
1
5
255

> <PUBCHEM_BONDANNOTATIONS>
15  18  8
15  19  8
18  20  8
19  21  8
20  22  8
21  22  8
24  26  8
24  27  8
26  29  8
27  30  8
28  29  8
28  30  8
32  34  8
7  32  8
7  33  8
8  33  8
8  34  8

$$$$
