155514575
  -OEChem-09292322402D

 40 42  0     0  0  0  0  0  0999 V2000
    7.7306    4.7407    0.0000 Cl  0  0  0  0  0  0  0  0  0  0  0  0
    3.5259    3.4409    0.0000 S   0  0  0  0  0  0  0  0  0  0  0  0
    4.4764    3.7516    0.0000 O   0  0  0  0  0  0  0  0  0  0  0  0
    2.5753    3.1302    0.0000 O   0  0  0  0  0  0  0  0  0  0  0  0
    3.2152    4.3914    0.0000 N   0  0  0  0  0  0  0  0  0  0  0  0
    2.9395    7.7614    0.0000 N   0  0  0  0  0  0  0  0  0  0  0  0
    4.4792    8.2588    0.0000 N   0  0  0  0  0  0  0  0  0  0  0  0
    3.2213    9.5210    0.0000 N   0  0  0  0  0  0  0  0  0  0  0  0
    2.2690    4.6961    0.0000 C   0  0  0  0  0  0  0  0  0  0  0  0
    2.2690    5.6961    0.0000 C   0  0  0  0  0  0  0  0  0  0  0  0
    3.2152    6.0009    0.0000 C   0  0  0  0  0  0  0  0  0  0  0  0
    3.7988    5.1961    0.0000 C   0  0  0  0  0  0  0  0  0  0  0  0
    3.5259    6.9514    0.0000 C   0  0  0  0  0  0  0  0  0  0  0  0
    1.4030    4.1961    0.0000 C   0  0  0  0  0  0  0  0  0  0  0  0
    1.4030    6.1961    0.0000 C   0  0  0  0  0  0  0  0  0  0  0  0
    3.8365    2.4904    0.0000 C   0  0  0  0  0  0  0  0  0  0  0  0
    0.5369    4.6961    0.0000 C   0  0  0  0  0  0  0  0  0  0  0  0
    0.5369    5.6961    0.0000 C   0  0  0  0  0  0  0  0  0  0  0  0
    4.4775    7.2588    0.0000 C   0  0  0  0  0  0  0  0  0  0  0  0
    4.8150    2.2841    0.0000 C   0  0  0  0  0  0  0  0  0  0  0  0
    3.1687    1.7461    0.0000 C   0  0  0  0  0  0  0  0  0  0  0  0
    3.5287    8.5694    0.0000 C   0  0  0  0  0  0  0  0  0  0  0  0
    5.1257    1.3336    0.0000 C   0  0  0  0  0  0  0  0  0  0  0  0
    3.4794    0.7955    0.0000 C   0  0  0  0  0  0  0  0  0  0  0  0
    4.4579    0.5893    0.0000 C   0  0  0  0  0  0  0  0  0  0  0  0
    4.4188    5.1961    0.0000 H   0  0  0  0  0  0  0  0  0  0  0  0
    1.4030    3.5761    0.0000 H   0  0  0  0  0  0  0  0  0  0  0  0
    1.4030    6.8161    0.0000 H   0  0  0  0  0  0  0  0  0  0  0  0
    0.0000    4.3861    0.0000 H   0  0  0  0  0  0  0  0  0  0  0  0
    0.0000    6.0061    0.0000 H   0  0  0  0  0  0  0  0  0  0  0  0
    2.3195    7.7625    0.0000 H   0  0  0  0  0  0  0  0  0  0  0  0
    4.9784    6.8935    0.0000 H   0  0  0  0  0  0  0  0  0  0  0  0
    5.2291    2.7456    0.0000 H   0  0  0  0  0  0  0  0  0  0  0  0
    2.5620    1.8739    0.0000 H   0  0  0  0  0  0  0  0  0  0  0  0
    5.7324    1.2058    0.0000 H   0  0  0  0  0  0  0  0  0  0  0  0
    3.0653    0.3341    0.0000 H   0  0  0  0  0  0  0  0  0  0  0  0
    4.6505    0.0000    0.0000 H   0  0  0  0  0  0  0  0  0  0  0  0
    3.6370    9.9810    0.0000 H   0  0  0  0  0  0  0  0  0  0  0  0
    2.6151    9.6510    0.0000 H   0  0  0  0  0  0  0  0  0  0  0  0
    8.7306    4.7407    0.0000 H   0  0  0  0  0  0  0  0  0  0  0  0
  1 40  1  0  0  0  0
  2  3  2  0  0  0  0
  2  4  2  0  0  0  0
  2  5  1  0  0  0  0
  2 16  1  0  0  0  0
  5  9  1  0  0  0  0
  5 12  1  0  0  0  0
  6 13  1  0  0  0  0
  6 22  1  0  0  0  0
  6 31  1  0  0  0  0
  7 19  1  0  0  0  0
  7 22  2  0  0  0  0
  8 22  1  0  0  0  0
  8 38  1  0  0  0  0
  8 39  1  0  0  0  0
  9 10  1  0  0  0  0
  9 14  2  0  0  0  0
 10 11  1  0  0  0  0
 10 15  2  0  0  0  0
 11 12  2  0  0  0  0
 11 13  1  0  0  0  0
 12 26  1  0  0  0  0
 13 19  2  0  0  0  0
 14 17  1  0  0  0  0
 14 27  1  0  0  0  0
 15 18  1  0  0  0  0
 15 28  1  0  0  0  0
 16 20  2  0  0  0  0
 16 21  1  0  0  0  0
 17 18  2  0  0  0  0
 17 29  1  0  0  0  0
 18 30  1  0  0  0  0
 19 32  1  0  0  0  0
 20 23  1  0  0  0  0
 20 33  1  0  0  0  0
 21 24  2  0  0  0  0
 21 34  1  0  0  0  0
 23 25  2  0  0  0  0
 23 35  1  0  0  0  0
 24 25  1  0  0  0  0
 24 36  1  0  0  0  0
 25 37  1  0  0  0  0
M  END
> <PUBCHEM_COMPOUND_CID>
155514575

> <PUBCHEM_COMPOUND_CANONICALIZED>
1

> <PUBCHEM_CACTVS_COMPLEXITY>
543

> <PUBCHEM_CACTVS_HBOND_ACCEPTOR>
4

> <PUBCHEM_CACTVS_HBOND_DONOR>
3

> <PUBCHEM_CACTVS_ROTATABLE_BOND>
3

> <PUBCHEM_CACTVS_SUBSKEYS>
AAADccB7sABEAAAAAAAAAAAAAAAAAWLAAAAwYAAAAAAAAFgB/AAAHAQQQAAADAjBXgQ90fbJkAKgAzRnZHDCgD2xEqAJ2Tg4dJiIaOLA2ZGUIAhokALIyCcQgMAOgAAAAAACAAAAAAAAAAQAAAAAAAAAAA==

> <PUBCHEM_IUPAC_OPENEYE_NAME>
5-[1-(benzenesulfonyl)indol-3-yl]-1H-imidazol-2-amine;hydrochloride

> <PUBCHEM_IUPAC_CAS_NAME>
5-[1-(benzenesulfonyl)-3-indolyl]-1H-imidazol-2-amine;hydrochloride

> <PUBCHEM_IUPAC_NAME_MARKUP>
5-[1-(benzenesulfonyl)indol-3-yl]-1<I>H</I>-imidazol-2-amine;hydrochloride

> <PUBCHEM_IUPAC_NAME>
5-[1-(benzenesulfonyl)indol-3-yl]-1H-imidazol-2-amine;hydrochloride

> <PUBCHEM_IUPAC_SYSTEMATIC_NAME>
5-[1-(phenylsulfonyl)indol-3-yl]-1H-imidazol-2-amine;hydrochloride

> <PUBCHEM_IUPAC_TRADITIONAL_NAME>
[5-(1-besylindol-3-yl)-1H-imidazol-2-yl]amine;hydrochloride

> <PUBCHEM_IUPAC_INCHI>
InChI=1S/C17H14N4O2S.ClH/c18-17-19-10-15(20-17)14-11-21(16-9-5-4-8-13(14)16)24(22,23)12-6-2-1-3-7-12;/h1-11H,(H3,18,19,20);1H

> <PUBCHEM_IUPAC_INCHIKEY>
PXAIBELDQYOOGF-UHFFFAOYSA-N

> <PUBCHEM_EXACT_MASS>
374.0604246

> <PUBCHEM_MOLECULAR_FORMULA>
C17H15ClN4O2S

> <PUBCHEM_MOLECULAR_WEIGHT>
374.8

> <PUBCHEM_OPENEYE_CAN_SMILES>
C1=CC=C(C=C1)S(=O)(=O)N2C=C(C3=CC=CC=C32)C4=CN=C(N4)N.Cl

> <PUBCHEM_OPENEYE_ISO_SMILES>
C1=CC=C(C=C1)S(=O)(=O)N2C=C(C3=CC=CC=C32)C4=CN=C(N4)N.Cl

> <PUBCHEM_CACTVS_TPSA>
102

> <PUBCHEM_MONOISOTOPIC_WEIGHT>
374.0604246

> <PUBCHEM_TOTAL_CHARGE>
0

> <PUBCHEM_HEAVY_ATOM_COUNT>
25

> <PUBCHEM_ATOM_DEF_STEREO_COUNT>
0

> <PUBCHEM_ATOM_UDEF_STEREO_COUNT>
0

> <PUBCHEM_BOND_DEF_STEREO_COUNT>
0

> <PUBCHEM_BOND_UDEF_STEREO_COUNT>
0

> <PUBCHEM_ISOTOPIC_ATOM_COUNT>
0

> <PUBCHEM_COMPONENT_COUNT>
2

> <PUBCHEM_CACTVS_TAUTO_COUNT>
-1

> <PUBCHEM_COORDINATE_TYPE>
1
5
255

> <PUBCHEM_BONDANNOTATIONS>
10  11  8
10  15  8
11  12  8
13  19  8
14  17  8
15  18  8
16  20  8
16  21  8
17  18  8
20  23  8
21  24  8
23  25  8
24  25  8
5  12  8
5  9  8
6  13  8
6  22  8
7  19  8
7  22  8
9  10  8
9  14  8

$$$$
