15115515
  -OEChem-09292322142D

 91 98  0     1  0  0  0  0  0999 V2000
    9.5920    1.3735    0.0000 S   0  0  0  0  0  0  0  0  0  0  0  0
    5.2592    3.8682    0.0000 O   0  0  0  0  0  0  0  0  0  0  0  0
   15.5208   -6.5217    0.0000 O   0  0  0  0  0  0  0  0  0  0  0  0
    6.0682    6.4559    0.0000 O   0  0  0  0  0  0  0  0  0  0  0  0
    4.9805    2.1081    0.0000 O   0  0  0  0  0  0  0  0  0  0  0  0
    2.5381    6.4801    0.0000 O   0  0  0  0  0  0  0  0  0  0  0  0
    9.5984    6.4801    0.0000 O   0  0  0  0  0  0  0  0  0  0  0  0
   14.6640   -1.9843    0.0000 N   0  0  3  0  0  0  0  0  0  0  0  0
    7.9836    0.7309    0.0000 N   0  0  0  0  0  0  0  0  0  0  0  0
    9.3443   -0.3407    0.0000 N   0  0  0  0  0  0  0  0  0  0  0  0
   15.0350   -2.9129    0.0000 C   0  0  3  0  0  0  0  0  0  0  0  0
   14.4163   -3.6986    0.0000 C   0  0  0  0  0  0  0  0  0  0  0  0
   16.0247   -3.0559    0.0000 C   0  0  0  0  0  0  0  0  0  0  0  0
   14.7873   -4.6272    0.0000 C   0  0  0  0  0  0  0  0  0  0  0  0
   16.3957   -3.9845    0.0000 C   0  0  0  0  0  0  0  0  0  0  0  0
   15.7770   -4.7702    0.0000 C   0  0  0  0  0  0  0  0  0  0  0  0
   13.6742   -1.8413    0.0000 C   0  0  0  0  0  0  0  0  0  0  0  0
   15.2826   -1.1987    0.0000 C   0  0  0  0  0  0  0  0  0  0  0  0
   13.3032   -0.9127    0.0000 C   0  0  0  0  0  0  0  0  0  0  0  0
   17.4288   -4.1176    0.0000 C   0  0  0  0  0  0  0  0  0  0  0  0
    6.0682    4.4559    0.0000 C   0  0  0  0  0  0  0  0  0  0  0  0
   16.2724   -1.3417    0.0000 C   0  0  0  0  0  0  0  0  0  0  0  0
   16.1486   -5.7433    0.0000 C   0  0  0  0  0  0  0  0  0  0  0  0
    6.8773    3.8682    0.0000 C   0  0  0  0  0  0  0  0  0  0  0  0
    5.2022    4.9559    0.0000 C   0  0  0  0  0  0  0  0  0  0  0  0
    6.9343    4.9559    0.0000 C   0  0  0  0  0  0  0  0  0  0  0  0
   17.8228   -5.0818    0.0000 C   0  0  0  0  0  0  0  0  0  0  0  0
   17.1783   -5.9002    0.0000 C   0  0  0  0  0  0  0  0  0  0  0  0
   12.3135   -0.7697    0.0000 C   0  0  0  0  0  0  0  0  0  0  0  0
    6.5682    2.9171    0.0000 C   0  0  0  0  0  0  0  0  0  0  0  0
   16.8911   -0.5560    0.0000 C   0  0  0  0  0  0  0  0  0  0  0  0
    5.2022    5.9559    0.0000 C   0  0  0  0  0  0  0  0  0  0  0  0
    6.9343    5.9559    0.0000 C   0  0  0  0  0  0  0  0  0  0  0  0
    5.5682    2.9171    0.0000 C   0  0  0  0  0  0  0  0  0  0  0  0
    7.8728    3.5616    0.0000 C   0  0  0  0  0  0  0  0  0  0  0  0
    4.3083    4.4213    0.0000 C   0  0  0  0  0  0  0  0  0  0  0  0
    7.8282    4.4213    0.0000 C   0  0  0  0  0  0  0  0  0  0  0  0
    6.7691    1.8950    0.0000 C   0  0  0  0  0  0  0  0  0  0  0  0
   11.6948   -1.5554    0.0000 C   0  0  0  0  0  0  0  0  0  0  0  0
   11.9424    0.1589    0.0000 C   0  0  0  0  0  0  0  0  0  0  0  0
    7.6125    1.6595    0.0000 C   0  0  0  0  0  0  0  0  0  0  0  0
    8.2419    2.4504    0.0000 C   0  0  0  0  0  0  0  0  0  0  0  0
    4.3083    6.4906    0.0000 C   0  0  0  0  0  0  0  0  0  0  0  0
    7.8282    6.4906    0.0000 C   0  0  0  0  0  0  0  0  0  0  0  0
    3.4022    4.9351    0.0000 C   0  0  0  0  0  0  0  0  0  0  0  0
    8.7343    4.9351    0.0000 C   0  0  0  0  0  0  0  0  0  0  0  0
    3.4022    5.9768    0.0000 C   0  0  0  0  0  0  0  0  0  0  0  0
    8.7343    5.9768    0.0000 C   0  0  0  0  0  0  0  0  0  0  0  0
   10.7051   -1.4124    0.0000 C   0  0  0  0  0  0  0  0  0  0  0  0
   10.9527    0.3019    0.0000 C   0  0  0  0  0  0  0  0  0  0  0  0
   10.3340   -0.4837    0.0000 C   0  0  0  0  0  0  0  0  0  0  0  0
    8.9733    0.5879    0.0000 C   0  0  0  0  0  0  0  0  0  0  0  0
   14.4214   -2.8243    0.0000 H   0  0  0  0  0  0  0  0  0  0  0  0
   14.0032   -3.2362    0.0000 H   0  0  0  0  0  0  0  0  0  0  0  0
   13.8892   -4.0251    0.0000 H   0  0  0  0  0  0  0  0  0  0  0  0
   16.6316   -2.9294    0.0000 H   0  0  0  0  0  0  0  0  0  0  0  0
   16.0055   -2.4362    0.0000 H   0  0  0  0  0  0  0  0  0  0  0  0
   14.1804   -4.7538    0.0000 H   0  0  0  0  0  0  0  0  0  0  0  0
   14.8066   -5.2469    0.0000 H   0  0  0  0  0  0  0  0  0  0  0  0
   13.0673   -1.9679    0.0000 H   0  0  0  0  0  0  0  0  0  0  0  0
   13.6935   -2.4610    0.0000 H   0  0  0  0  0  0  0  0  0  0  0  0
   15.4765   -0.6098    0.0000 H   0  0  0  0  0  0  0  0  0  0  0  0
   14.7363   -0.9055    0.0000 H   0  0  0  0  0  0  0  0  0  0  0  0
   13.9101   -0.7861    0.0000 H   0  0  0  0  0  0  0  0  0  0  0  0
   13.2839   -0.2930    0.0000 H   0  0  0  0  0  0  0  0  0  0  0  0
   17.8068   -3.6261    0.0000 H   0  0  0  0  0  0  0  0  0  0  0  0
   16.0785   -1.9306    0.0000 H   0  0  0  0  0  0  0  0  0  0  0  0
   16.8187   -1.6348    0.0000 H   0  0  0  0  0  0  0  0  0  0  0  0
   18.4367   -5.1681    0.0000 H   0  0  0  0  0  0  0  0  0  0  0  0
   17.4061   -6.4768    0.0000 H   0  0  0  0  0  0  0  0  0  0  0  0
   17.3782   -0.9396    0.0000 H   0  0  0  0  0  0  0  0  0  0  0  0
   17.2747   -0.0689    0.0000 H   0  0  0  0  0  0  0  0  0  0  0  0
   16.4040   -0.1724    0.0000 H   0  0  0  0  0  0  0  0  0  0  0  0
    8.3063    4.0048    0.0000 H   0  0  0  0  0  0  0  0  0  0  0  0
    4.3154    3.8013    0.0000 H   0  0  0  0  0  0  0  0  0  0  0  0
    7.8210    3.8013    0.0000 H   0  0  0  0  0  0  0  0  0  0  0  0
   15.7442   -7.1001    0.0000 H   0  0  0  0  0  0  0  0  0  0  0  0
    6.3139    1.4741    0.0000 H   0  0  0  0  0  0  0  0  0  0  0  0
   11.9248   -2.1311    0.0000 H   0  0  0  0  0  0  0  0  0  0  0  0
   12.3260    0.6460    0.0000 H   0  0  0  0  0  0  0  0  0  0  0  0
    8.8523    2.3421    0.0000 H   0  0  0  0  0  0  0  0  0  0  0  0
    4.3154    7.1106    0.0000 H   0  0  0  0  0  0  0  0  0  0  0  0
    7.8210    7.1106    0.0000 H   0  0  0  0  0  0  0  0  0  0  0  0
    2.8665    4.6231    0.0000 H   0  0  0  0  0  0  0  0  0  0  0  0
    9.2700    4.6231    0.0000 H   0  0  0  0  0  0  0  0  0  0  0  0
   10.3215   -1.8994    0.0000 H   0  0  0  0  0  0  0  0  0  0  0  0
   10.7227    0.8776    0.0000 H   0  0  0  0  0  0  0  0  0  0  0  0
    7.6000    0.2438    0.0000 H   0  0  0  0  0  0  0  0  0  0  0  0
    8.9607   -0.8278    0.0000 H   0  0  0  0  0  0  0  0  0  0  0  0
    2.0000    6.1722    0.0000 H   0  0  0  0  0  0  0  0  0  0  0  0
    9.5960    7.1001    0.0000 H   0  0  0  0  0  0  0  0  0  0  0  0
  1 52  2  0  0  0  0
  2 21  1  0  0  0  0
  2 34  1  0  0  0  0
  3 23  1  0  0  0  0
  3 77  1  0  0  0  0
  4 32  1  0  0  0  0
  4 33  1  0  0  0  0
  5 34  2  0  0  0  0
  6 47  1  0  0  0  0
  6 90  1  0  0  0  0
  7 48  1  0  0  0  0
  7 91  1  0  0  0  0
  8 11  1  0  0  0  0
  8 17  1  0  0  0  0
  8 18  1  0  0  0  0
  9 41  1  0  0  0  0
  9 52  1  0  0  0  0
  9 88  1  0  0  0  0
 10 51  1  0  0  0  0
 10 52  1  0  0  0  0
 10 89  1  0  0  0  0
 11 12  1  0  0  0  0
 11 13  1  0  0  0  0
 11 53  1  0  0  0  0
 12 14  1  0  0  0  0
 12 54  1  0  0  0  0
 12 55  1  0  0  0  0
 13 15  1  0  0  0  0
 13 56  1  0  0  0  0
 13 57  1  0  0  0  0
 14 16  1  0  0  0  0
 14 58  1  0  0  0  0
 14 59  1  0  0  0  0
 15 16  2  0  0  0  0
 15 20  1  0  0  0  0
 16 23  1  0  0  0  0
 17 19  1  0  0  0  0
 17 60  1  0  0  0  0
 17 61  1  0  0  0  0
 18 22  1  0  0  0  0
 18 62  1  0  0  0  0
 18 63  1  0  0  0  0
 19 29  1  0  0  0  0
 19 64  1  0  0  0  0
 19 65  1  0  0  0  0
 20 27  2  0  0  0  0
 20 66  1  0  0  0  0
 21 24  1  0  0  0  0
 21 25  1  0  0  0  0
 21 26  1  0  0  0  0
 22 31  1  0  0  0  0
 22 67  1  0  0  0  0
 22 68  1  0  0  0  0
 23 28  2  0  0  0  0
 24 30  2  0  0  0  0
 24 35  1  0  0  0  0
 25 32  2  0  0  0  0
 25 36  1  0  0  0  0
 26 33  2  0  0  0  0
 26 37  1  0  0  0  0
 27 28  1  0  0  0  0
 27 69  1  0  0  0  0
 28 70  1  0  0  0  0
 29 39  2  0  0  0  0
 29 40  1  0  0  0  0
 30 34  1  0  0  0  0
 30 38  1  0  0  0  0
 31 71  1  0  0  0  0
 31 72  1  0  0  0  0
 31 73  1  0  0  0  0
 32 43  1  0  0  0  0
 33 44  1  0  0  0  0
 35 42  2  0  0  0  0
 35 74  1  0  0  0  0
 36 45  2  0  0  0  0
 36 75  1  0  0  0  0
 37 46  2  0  0  0  0
 37 76  1  0  0  0  0
 38 41  2  0  0  0  0
 38 78  1  0  0  0  0
 39 49  1  0  0  0  0
 39 79  1  0  0  0  0
 40 50  2  0  0  0  0
 40 80  1  0  0  0  0
 41 42  1  0  0  0  0
 42 81  1  0  0  0  0
 43 47  2  0  0  0  0
 43 82  1  0  0  0  0
 44 48  2  0  0  0  0
 44 83  1  0  0  0  0
 45 47  1  0  0  0  0
 45 84  1  0  0  0  0
 46 48  1  0  0  0  0
 46 85  1  0  0  0  0
 49 51  2  0  0  0  0
 49 86  1  0  0  0  0
 50 51  1  0  0  0  0
 50 87  1  0  0  0  0
M  END
> <PUBCHEM_COMPOUND_CID>
15115515

> <PUBCHEM_COMPOUND_CANONICALIZED>
1

> <PUBCHEM_CACTVS_COMPLEXITY>
1220

> <PUBCHEM_CACTVS_HBOND_ACCEPTOR>
8

> <PUBCHEM_CACTVS_HBOND_DONOR>
5

> <PUBCHEM_CACTVS_ROTATABLE_BOND>
8

> <PUBCHEM_CACTVS_SUBSKEYS>
AAADcfB/OABAAAAAAAAAAAAAAAAAASAAAAA0YMGDAAAAAEjRVAAAHgQQCAAADGzBmAQzzoPABgCMAiTSSACCCAAlIgkIiAEObMiMJzLGtZuGeSjt0BfI+ae++P+OqAABSAAYAABQAAKQADAAAAAAAAAAAA==

> <PUBCHEM_IUPAC_OPENEYE_NAME>
1-(3',6'-dihydroxy-3-oxo-spiro[isobenzofuran-1,9'-xanthene]-5-yl)-3-[4-[2-[(5-hydroxytetralin-2-yl)-propyl-amino]ethyl]phenyl]thiourea

> <PUBCHEM_IUPAC_CAS_NAME>
1-(3',6'-dihydroxy-3-oxo-5-spiro[isobenzofuran-1,9'-xanthene]yl)-3-[4-[2-[(5-hydroxy-1,2,3,4-tetrahydronaphthalen-2-yl)-propylamino]ethyl]phenyl]thiourea

> <PUBCHEM_IUPAC_NAME_MARKUP>
1-(3&apos;,6&apos;-dihydroxy-3-oxospiro[2-benzofuran-1,9&apos;-xanthene]-5-yl)-3-[4-[2-[(5-hydroxy-1,2,3,4-tetrahydronaphthalen-2-yl)-propylamino]ethyl]phenyl]thiourea

> <PUBCHEM_IUPAC_NAME>
1-(3',6'-dihydroxy-3-oxospiro[2-benzofuran-1,9'-xanthene]-5-yl)-3-[4-[2-[(5-hydroxy-1,2,3,4-tetrahydronaphthalen-2-yl)-propylamino]ethyl]phenyl]thiourea

> <PUBCHEM_IUPAC_SYSTEMATIC_NAME>
1-[3',6'-bis(oxidanyl)-3-oxidanylidene-spiro[2-benzofuran-1,9'-xanthene]-5-yl]-3-[4-[2-[(5-oxidanyl-1,2,3,4-tetrahydronaphthalen-2-yl)-propyl-amino]ethyl]phenyl]thiourea

> <PUBCHEM_IUPAC_TRADITIONAL_NAME>
1-(3',6'-dihydroxy-3-keto-spiro[phthalan-1,9'-xanthene]-5-yl)-3-[4-[2-[(5-hydroxytetralin-2-yl)-propyl-amino]ethyl]phenyl]thiourea

> <PUBCHEM_IUPAC_INCHI>
InChI=1S/C42H39N3O6S/c1-2-19-45(29-11-14-32-26(21-29)4-3-5-37(32)48)20-18-25-6-8-27(9-7-25)43-41(52)44-28-10-15-34-33(22-28)40(49)51-42(34)35-16-12-30(46)23-38(35)50-39-24-31(47)13-17-36(39)42/h3-10,12-13,15-17,22-24,29,46-48H,2,11,14,18-21H2,1H3,(H2,43,44,52)

> <PUBCHEM_IUPAC_INCHIKEY>
GUYDMNDOMIQYML-UHFFFAOYSA-N

> <PUBCHEM_XLOGP3_AA>
7.8

> <PUBCHEM_EXACT_MASS>
713.25595715

> <PUBCHEM_MOLECULAR_FORMULA>
C42H39N3O6S

> <PUBCHEM_MOLECULAR_WEIGHT>
713.8

> <PUBCHEM_OPENEYE_CAN_SMILES>
CCCN(CCC1=CC=C(C=C1)NC(=S)NC2=CC3=C(C=C2)C4(C5=C(C=C(C=C5)O)OC6=C4C=CC(=C6)O)OC3=O)C7CCC8=C(C7)C=CC=C8O

> <PUBCHEM_OPENEYE_ISO_SMILES>
CCCN(CCC1=CC=C(C=C1)NC(=S)NC2=CC3=C(C=C2)C4(C5=C(C=C(C=C5)O)OC6=C4C=CC(=C6)O)OC3=O)C7CCC8=C(C7)C=CC=C8O

> <PUBCHEM_CACTVS_TPSA>
156

> <PUBCHEM_MONOISOTOPIC_WEIGHT>
713.25595715

> <PUBCHEM_TOTAL_CHARGE>
0

> <PUBCHEM_HEAVY_ATOM_COUNT>
52

> <PUBCHEM_ATOM_DEF_STEREO_COUNT>
0

> <PUBCHEM_ATOM_UDEF_STEREO_COUNT>
1

> <PUBCHEM_BOND_DEF_STEREO_COUNT>
0

> <PUBCHEM_BOND_UDEF_STEREO_COUNT>
0

> <PUBCHEM_ISOTOPIC_ATOM_COUNT>
0

> <PUBCHEM_COMPONENT_COUNT>
1

> <PUBCHEM_CACTVS_TAUTO_COUNT>
-1

> <PUBCHEM_COORDINATE_TYPE>
1
5
255

> <PUBCHEM_BONDANNOTATIONS>
15  16  8
15  20  8
16  23  8
20  27  8
23  28  8
24  30  8
24  35  8
25  32  8
25  36  8
26  33  8
26  37  8
27  28  8
29  39  8
29  40  8
30  38  8
32  43  8
33  44  8
35  42  8
36  45  8
37  46  8
38  41  8
39  49  8
40  50  8
41  42  8
43  47  8
44  48  8
45  47  8
46  48  8
49  51  8
50  51  8
11  8  3

$$$$
