19964401
  -OEChem-09292322392D

 48 51  0     1  0  0  0  0  0999 V2000
    7.9244   -0.4923    0.0000 O   0  0  0  0  0  0  0  0  0  0  0  0
    5.9674   -0.9048    0.0000 N   0  0  3  0  0  0  0  0  0  0  0  0
    4.6783   -3.6710    0.0000 N   0  0  0  0  0  0  0  0  0  0  0  0
    7.2566    0.2520    0.0000 C   0  0  3  0  0  0  0  0  0  0  0  0
    6.2781    0.0458    0.0000 C   0  0  0  0  0  0  0  0  0  0  0  0
    6.6353   -1.6491    0.0000 C   0  0  0  0  0  0  0  0  0  0  0  0
    7.5673    1.2025    0.0000 C   0  0  0  0  0  0  0  0  0  0  0  0
    4.9889   -1.1110    0.0000 C   0  0  0  0  0  0  0  0  0  0  0  0
    7.6138   -1.4428    0.0000 C   0  0  0  0  0  0  0  0  0  0  0  0
    8.5458    1.4087    0.0000 C   0  0  0  0  0  0  0  0  0  0  0  0
    4.6783   -2.0615    0.0000 C   0  0  0  0  0  0  0  0  0  0  0  0
    3.7320   -2.3662    0.0000 C   0  0  0  0  0  0  0  0  0  0  0  0
    5.2619   -2.8662    0.0000 C   0  0  0  0  0  0  0  0  0  0  0  0
    8.8564    2.3592    0.0000 C   0  0  0  0  0  0  0  0  0  0  0  0
    3.7320   -3.3662    0.0000 C   0  0  0  0  0  0  0  0  0  0  0  0
    2.8660   -1.8662    0.0000 C   0  0  0  0  0  0  0  0  0  0  0  0
    2.8660   -3.8662    0.0000 C   0  0  0  0  0  0  0  0  0  0  0  0
    8.1886    3.1035    0.0000 C   0  0  0  0  0  0  0  0  0  0  0  0
    9.8349    2.5655    0.0000 C   0  0  0  0  0  0  0  0  0  0  0  0
    2.0000   -2.3662    0.0000 C   0  0  0  0  0  0  0  0  0  0  0  0
    2.0000   -3.3662    0.0000 C   0  0  0  0  0  0  0  0  0  0  0  0
    8.4993    4.0541    0.0000 C   0  0  0  0  0  0  0  0  0  0  0  0
   10.1456    3.5160    0.0000 C   0  0  0  0  0  0  0  0  0  0  0  0
    9.4778    4.2603    0.0000 C   0  0  0  0  0  0  0  0  0  0  0  0
    7.8633    0.3798    0.0000 H   0  0  0  0  0  0  0  0  0  0  0  0
    6.2575    0.6654    0.0000 H   0  0  0  0  0  0  0  0  0  0  0  0
    5.6643    0.1331    0.0000 H   0  0  0  0  0  0  0  0  0  0  0  0
    6.1089   -1.9767    0.0000 H   0  0  0  0  0  0  0  0  0  0  0  0
    6.8665   -2.2243    0.0000 H   0  0  0  0  0  0  0  0  0  0  0  0
    7.5467    1.8222    0.0000 H   0  0  0  0  0  0  0  0  0  0  0  0
    6.9534    1.2898    0.0000 H   0  0  0  0  0  0  0  0  0  0  0  0
    4.9684   -0.4913    0.0000 H   0  0  0  0  0  0  0  0  0  0  0  0
    4.3751   -1.0236    0.0000 H   0  0  0  0  0  0  0  0  0  0  0  0
    7.6344   -2.0625    0.0000 H   0  0  0  0  0  0  0  0  0  0  0  0
    8.2276   -1.5302    0.0000 H   0  0  0  0  0  0  0  0  0  0  0  0
    8.5663    0.7891    0.0000 H   0  0  0  0  0  0  0  0  0  0  0  0
    9.1596    1.3214    0.0000 H   0  0  0  0  0  0  0  0  0  0  0  0
    5.8819   -2.8662    0.0000 H   0  0  0  0  0  0  0  0  0  0  0  0
    4.8709   -4.2603    0.0000 H   0  0  0  0  0  0  0  0  0  0  0  0
    2.8660   -1.2462    0.0000 H   0  0  0  0  0  0  0  0  0  0  0  0
    2.8660   -4.4862    0.0000 H   0  0  0  0  0  0  0  0  0  0  0  0
    7.5819    2.9757    0.0000 H   0  0  0  0  0  0  0  0  0  0  0  0
   10.2490    2.1040    0.0000 H   0  0  0  0  0  0  0  0  0  0  0  0
    1.4631   -2.0562    0.0000 H   0  0  0  0  0  0  0  0  0  0  0  0
    1.4631   -3.6762    0.0000 H   0  0  0  0  0  0  0  0  0  0  0  0
    8.0852    4.5155    0.0000 H   0  0  0  0  0  0  0  0  0  0  0  0
   10.7523    3.6438    0.0000 H   0  0  0  0  0  0  0  0  0  0  0  0
    9.6704    4.8496    0.0000 H   0  0  0  0  0  0  0  0  0  0  0  0
  1  4  1  0  0  0  0
  1  9  1  0  0  0  0
  2  5  1  0  0  0  0
  2  6  1  0  0  0  0
  2  8  1  0  0  0  0
  3 13  1  0  0  0  0
  3 15  1  0  0  0  0
  3 39  1  0  0  0  0
  4  5  1  0  0  0  0
  4  7  1  0  0  0  0
  4 25  1  0  0  0  0
  5 26  1  0  0  0  0
  5 27  1  0  0  0  0
  6  9  1  0  0  0  0
  6 28  1  0  0  0  0
  6 29  1  0  0  0  0
  7 10  1  0  0  0  0
  7 30  1  0  0  0  0
  7 31  1  0  0  0  0
  8 11  1  0  0  0  0
  8 32  1  0  0  0  0
  8 33  1  0  0  0  0
  9 34  1  0  0  0  0
  9 35  1  0  0  0  0
 10 14  1  0  0  0  0
 10 36  1  0  0  0  0
 10 37  1  0  0  0  0
 11 12  1  0  0  0  0
 11 13  2  0  0  0  0
 12 15  1  0  0  0  0
 12 16  2  0  0  0  0
 13 38  1  0  0  0  0
 14 18  2  0  0  0  0
 14 19  1  0  0  0  0
 15 17  2  0  0  0  0
 16 20  1  0  0  0  0
 16 40  1  0  0  0  0
 17 21  1  0  0  0  0
 17 41  1  0  0  0  0
 18 22  1  0  0  0  0
 18 42  1  0  0  0  0
 19 23  2  0  0  0  0
 19 43  1  0  0  0  0
 20 21  2  0  0  0  0
 20 44  1  0  0  0  0
 21 45  1  0  0  0  0
 22 24  2  0  0  0  0
 22 46  1  0  0  0  0
 23 24  1  0  0  0  0
 23 47  1  0  0  0  0
 24 48  1  0  0  0  0
M  END
> <PUBCHEM_COMPOUND_CID>
19964401

> <PUBCHEM_COMPOUND_CANONICALIZED>
1

> <PUBCHEM_CACTVS_COMPLEXITY>
382

> <PUBCHEM_CACTVS_HBOND_ACCEPTOR>
2

> <PUBCHEM_CACTVS_HBOND_DONOR>
1

> <PUBCHEM_CACTVS_ROTATABLE_BOND>
5

> <PUBCHEM_CACTVS_SUBSKEYS>
AAADceB7IAAAAAAAAAAAAAAAAAAAAWAAAAA8YIAAAAAAAFgB9AAAHgAQAAAADBzhngY8wPPJlACgAzRnRACCgCAxAiAI2aA4ZJgKIOLA0ZGHIAhkkADYyAeQwOAOgAAAAAACAAAAAAAAAAQAAAAAAAAAAA==

> <PUBCHEM_IUPAC_OPENEYE_NAME>
4-(1H-indol-3-ylmethyl)-2-(2-phenylethyl)morpholine

> <PUBCHEM_IUPAC_CAS_NAME>
4-(1H-indol-3-ylmethyl)-2-(2-phenylethyl)morpholine

> <PUBCHEM_IUPAC_NAME_MARKUP>
4-(1<I>H</I>-indol-3-ylmethyl)-2-(2-phenylethyl)morpholine

> <PUBCHEM_IUPAC_NAME>
4-(1H-indol-3-ylmethyl)-2-(2-phenylethyl)morpholine

> <PUBCHEM_IUPAC_SYSTEMATIC_NAME>
4-(1H-indol-3-ylmethyl)-2-(2-phenylethyl)morpholine

> <PUBCHEM_IUPAC_TRADITIONAL_NAME>
4-(1H-indol-3-ylmethyl)-2-phenethyl-morpholine

> <PUBCHEM_IUPAC_INCHI>
InChI=1S/C21H24N2O/c1-2-6-17(7-3-1)10-11-19-16-23(12-13-24-19)15-18-14-22-21-9-5-4-8-20(18)21/h1-9,14,19,22H,10-13,15-16H2

> <PUBCHEM_IUPAC_INCHIKEY>
JNSNEWFLCREWMB-UHFFFAOYSA-N

> <PUBCHEM_XLOGP3_AA>
3.9

> <PUBCHEM_EXACT_MASS>
320.188863393

> <PUBCHEM_MOLECULAR_FORMULA>
C21H24N2O

> <PUBCHEM_MOLECULAR_WEIGHT>
320.4

> <PUBCHEM_OPENEYE_CAN_SMILES>
C1COC(CN1CC2=CNC3=CC=CC=C32)CCC4=CC=CC=C4

> <PUBCHEM_OPENEYE_ISO_SMILES>
C1COC(CN1CC2=CNC3=CC=CC=C32)CCC4=CC=CC=C4

> <PUBCHEM_CACTVS_TPSA>
28.3

> <PUBCHEM_MONOISOTOPIC_WEIGHT>
320.188863393

> <PUBCHEM_TOTAL_CHARGE>
0

> <PUBCHEM_HEAVY_ATOM_COUNT>
24

> <PUBCHEM_ATOM_DEF_STEREO_COUNT>
0

> <PUBCHEM_ATOM_UDEF_STEREO_COUNT>
1

> <PUBCHEM_BOND_DEF_STEREO_COUNT>
0

> <PUBCHEM_BOND_UDEF_STEREO_COUNT>
0

> <PUBCHEM_ISOTOPIC_ATOM_COUNT>
0

> <PUBCHEM_COMPONENT_COUNT>
1

> <PUBCHEM_CACTVS_TAUTO_COUNT>
-1

> <PUBCHEM_COORDINATE_TYPE>
1
5
255

> <PUBCHEM_BONDANNOTATIONS>
11  12  8
11  13  8
12  15  8
12  16  8
14  18  8
14  19  8
15  17  8
16  20  8
17  21  8
18  22  8
19  23  8
20  21  8
22  24  8
23  24  8
3  13  8
3  15  8
4  7  3

$$$$
