155554026
  -OEChem-09292322092D

 38 41  0     0  0  0  0  0  0999 V2000
    5.6783   -2.1329    0.0000 S   0  0  0  0  0  0  0  0  0  0  0  0
    3.8660    0.6719    0.0000 N   0  0  0  0  0  0  0  0  0  0  0  0
    3.0000   -0.8281    0.0000 N   0  0  0  0  0  0  0  0  0  0  0  0
    3.8660   -2.3282    0.0000 N   0  0  0  0  0  0  0  0  0  0  0  0
    3.0000    1.1718    0.0000 C   0  0  0  0  0  0  0  0  0  0  0  0
    2.5000    2.0379    0.0000 C   0  0  0  0  0  0  0  0  0  0  0  0
    2.0000    1.1718    0.0000 C   0  0  0  0  0  0  0  0  0  0  0  0
    5.9889    0.4271    0.0000 C   0  0  0  0  0  0  0  0  0  0  0  0
    6.9674    0.6333    0.0000 C   0  0  0  0  0  0  0  0  0  0  0  0
    5.3211    1.1714    0.0000 C   0  0  0  0  0  0  0  0  0  0  0  0
    7.2781    1.5838    0.0000 C   0  0  0  0  0  0  0  0  0  0  0  0
    5.6318    2.1219    0.0000 C   0  0  0  0  0  0  0  0  0  0  0  0
    6.6103    2.3282    0.0000 C   0  0  0  0  0  0  0  0  0  0  0  0
    5.6783   -0.5234    0.0000 C   0  0  0  0  0  0  0  0  0  0  0  0
    4.7320   -0.8281    0.0000 C   0  0  0  0  0  0  0  0  0  0  0  0
    3.8660   -0.3281    0.0000 C   0  0  0  0  0  0  0  0  0  0  0  0
    6.2619   -1.3282    0.0000 C   0  0  0  0  0  0  0  0  0  0  0  0
    4.7320   -1.8282    0.0000 C   0  0  0  0  0  0  0  0  0  0  0  0
    3.0000   -1.8282    0.0000 C   0  0  0  0  0  0  0  0  0  0  0  0
    2.8395    0.5730    0.0000 H   0  0  0  0  0  0  0  0  0  0  0  0
    2.9750    2.4364    0.0000 H   0  0  0  0  0  0  0  0  0  0  0  0
    2.0250    2.4364    0.0000 H   0  0  0  0  0  0  0  0  0  0  0  0
    1.4174    1.3839    0.0000 H   0  0  0  0  0  0  0  0  0  0  0  0
    1.8923    0.5613    0.0000 H   0  0  0  0  0  0  0  0  0  0  0  0
    6.4030   -0.0344    0.0000 H   0  0  0  0  0  0  0  0  0  0  0  0
    6.9880    0.0137    0.0000 H   0  0  0  0  0  0  0  0  0  0  0  0
    7.5812    0.5460    0.0000 H   0  0  0  0  0  0  0  0  0  0  0  0
    4.7742    1.4634    0.0000 H   0  0  0  0  0  0  0  0  0  0  0  0
    4.9385    0.6835    0.0000 H   0  0  0  0  0  0  0  0  0  0  0  0
    7.8250    1.2918    0.0000 H   0  0  0  0  0  0  0  0  0  0  0  0
    7.6607    2.0718    0.0000 H   0  0  0  0  0  0  0  0  0  0  0  0
    5.6112    2.7416    0.0000 H   0  0  0  0  0  0  0  0  0  0  0  0
    5.0179    2.2093    0.0000 H   0  0  0  0  0  0  0  0  0  0  0  0
    7.1366    2.6558    0.0000 H   0  0  0  0  0  0  0  0  0  0  0  0
    6.3790    2.9034    0.0000 H   0  0  0  0  0  0  0  0  0  0  0  0
    4.4030    0.9819    0.0000 H   0  0  0  0  0  0  0  0  0  0  0  0
    6.8819   -1.3282    0.0000 H   0  0  0  0  0  0  0  0  0  0  0  0
    2.4631   -2.1382    0.0000 H   0  0  0  0  0  0  0  0  0  0  0  0
  1 17  1  0  0  0  0
  1 18  1  0  0  0  0
  2  5  1  0  0  0  0
  2 16  1  0  0  0  0
  2 36  1  0  0  0  0
  3 16  1  0  0  0  0
  3 19  2  0  0  0  0
  4 18  2  0  0  0  0
  4 19  1  0  0  0  0
  5  6  1  0  0  0  0
  5  7  1  0  0  0  0
  5 20  1  0  0  0  0
  6  7  1  0  0  0  0
  6 21  1  0  0  0  0
  6 22  1  0  0  0  0
  7 23  1  0  0  0  0
  7 24  1  0  0  0  0
  8  9  1  0  0  0  0
  8 10  1  0  0  0  0
  8 14  1  0  0  0  0
  8 25  1  0  0  0  0
  9 11  1  0  0  0  0
  9 26  1  0  0  0  0
  9 27  1  0  0  0  0
 10 12  1  0  0  0  0
 10 28  1  0  0  0  0
 10 29  1  0  0  0  0
 11 13  1  0  0  0  0
 11 30  1  0  0  0  0
 11 31  1  0  0  0  0
 12 13  1  0  0  0  0
 12 32  1  0  0  0  0
 12 33  1  0  0  0  0
 13 34  1  0  0  0  0
 13 35  1  0  0  0  0
 14 15  1  0  0  0  0
 14 17  2  0  0  0  0
 15 16  2  0  0  0  0
 15 18  1  0  0  0  0
 17 37  1  0  0  0  0
 19 38  1  0  0  0  0
M  END
> <PUBCHEM_COMPOUND_CID>
155554026

> <PUBCHEM_COMPOUND_CANONICALIZED>
1

> <PUBCHEM_CACTVS_COMPLEXITY>
315

> <PUBCHEM_CACTVS_HBOND_ACCEPTOR>
4

> <PUBCHEM_CACTVS_HBOND_DONOR>
1

> <PUBCHEM_CACTVS_ROTATABLE_BOND>
3

> <PUBCHEM_CACTVS_SUBSKEYS>
AAADceBzAABAAAAAAAAAAAAAGAAAASAAAAA8QAAAAAAAAFgB+AAAHAQQAAAADSjFWgSlsdbIEAikAgJjZACD0KlxCLgB2LAoRJiIKAJg2cGEBAxokALoSCMQgMAOgAAAAAAAAAAAAAAAAAAAAAAAAAAAAA==

> <PUBCHEM_IUPAC_OPENEYE_NAME>
5-cyclohexyl-N-cyclopropyl-thieno[2,3-d]pyrimidin-4-amine

> <PUBCHEM_IUPAC_CAS_NAME>
5-cyclohexyl-N-cyclopropyl-4-thieno[2,3-d]pyrimidinamine

> <PUBCHEM_IUPAC_NAME_MARKUP>
5-cyclohexyl-<I>N</I>-cyclopropylthieno[2,3-d]pyrimidin-4-amine

> <PUBCHEM_IUPAC_NAME>
5-cyclohexyl-N-cyclopropylthieno[2,3-d]pyrimidin-4-amine

> <PUBCHEM_IUPAC_SYSTEMATIC_NAME>
5-cyclohexyl-N-cyclopropyl-thieno[2,3-d]pyrimidin-4-amine

> <PUBCHEM_IUPAC_TRADITIONAL_NAME>
(5-cyclohexylthieno[2,3-d]pyrimidin-4-yl)-cyclopropyl-amine

> <PUBCHEM_IUPAC_INCHI>
InChI=1S/C15H19N3S/c1-2-4-10(5-3-1)12-8-19-15-13(12)14(16-9-17-15)18-11-6-7-11/h8-11H,1-7H2,(H,16,17,18)

> <PUBCHEM_IUPAC_INCHIKEY>
HFBMKXMGIVCOND-UHFFFAOYSA-N

> <PUBCHEM_XLOGP3_AA>
5

> <PUBCHEM_EXACT_MASS>
273.12996879

> <PUBCHEM_MOLECULAR_FORMULA>
C15H19N3S

> <PUBCHEM_MOLECULAR_WEIGHT>
273.4

> <PUBCHEM_OPENEYE_CAN_SMILES>
C1CCC(CC1)C2=CSC3=NC=NC(=C23)NC4CC4

> <PUBCHEM_OPENEYE_ISO_SMILES>
C1CCC(CC1)C2=CSC3=NC=NC(=C23)NC4CC4

> <PUBCHEM_CACTVS_TPSA>
66

> <PUBCHEM_MONOISOTOPIC_WEIGHT>
273.12996879

> <PUBCHEM_TOTAL_CHARGE>
0

> <PUBCHEM_HEAVY_ATOM_COUNT>
19

> <PUBCHEM_ATOM_DEF_STEREO_COUNT>
0

> <PUBCHEM_ATOM_UDEF_STEREO_COUNT>
0

> <PUBCHEM_BOND_DEF_STEREO_COUNT>
0

> <PUBCHEM_BOND_UDEF_STEREO_COUNT>
0

> <PUBCHEM_ISOTOPIC_ATOM_COUNT>
0

> <PUBCHEM_COMPONENT_COUNT>
1

> <PUBCHEM_CACTVS_TAUTO_COUNT>
-1

> <PUBCHEM_COORDINATE_TYPE>
1
5
255

> <PUBCHEM_BONDANNOTATIONS>
1  17  8
1  18  8
14  15  8
14  17  8
15  16  8
15  18  8
3  16  8
3  19  8
4  18  8
4  19  8

$$$$
