44579033
  -OEChem-09292322502D

 92 99  0     1  0  0  0  0  0999 V2000
    8.0780   -2.7666    0.0000 O   0  0  0  0  0  0  0  0  0  0  0  0
    5.5206    0.7633    0.0000 O   0  0  0  0  0  0  0  0  0  0  0  0
    6.3460   -2.7465    0.0000 O   0  0  0  0  0  0  0  0  0  0  0  0
    7.2525    0.7432    0.0000 O   0  0  0  0  0  0  0  0  0  0  0  0
   11.5506   -5.7981    0.0000 N   0  0  3  0  0  0  0  0  0  0  0  0
    4.6866    6.3308    0.0000 N   0  0  3  0  0  0  0  0  0  0  0  0
   10.6924   -5.3011    0.0000 C   0  0  1  0  0  0  0  0  0  0  0  0
    4.6777    5.3392    0.0000 C   0  0  1  0  0  0  0  0  0  0  0  0
   10.6924   -4.3011    0.0000 C   0  0  0  0  0  0  0  0  0  0  0  0
    3.8078    4.8458    0.0000 C   0  0  0  0  0  0  0  0  0  0  0  0
    9.8264   -5.8011    0.0000 C   0  0  0  0  0  0  0  0  0  0  0  0
    5.5398    4.8325    0.0000 C   0  0  0  0  0  0  0  0  0  0  0  0
   12.4161   -5.3139    0.0000 C   0  0  0  0  0  0  0  0  0  0  0  0
    3.8385    6.8448    0.0000 C   0  0  0  0  0  0  0  0  0  0  0  0
   11.6024   -3.7943    0.0000 C   0  0  0  0  0  0  0  0  0  0  0  0
   12.4417   -4.3225    0.0000 C   0  0  0  0  0  0  0  0  0  0  0  0
    2.9180    5.3874    0.0000 C   0  0  0  0  0  0  0  0  0  0  0  0
    2.9635    6.3780    0.0000 C   0  0  0  0  0  0  0  0  0  0  0  0
    9.8264   -3.8011    0.0000 C   0  0  0  0  0  0  0  0  0  0  0  0
    3.8001    3.8459    0.0000 C   0  0  0  0  0  0  0  0  0  0  0  0
    8.9604   -5.3011    0.0000 C   0  0  0  0  0  0  0  0  0  0  0  0
    5.5321    3.8325    0.0000 C   0  0  0  0  0  0  0  0  0  0  0  0
   11.5432   -6.7980    0.0000 C   0  0  0  0  0  0  0  0  0  0  0  0
    8.9604   -4.3011    0.0000 C   0  0  0  0  0  0  0  0  0  0  0  0
    5.5601    6.8177    0.0000 C   0  0  0  0  0  0  0  0  0  0  0  0
    4.6623    3.3392    0.0000 C   0  0  0  0  0  0  0  0  0  0  0  0
   11.6104   -2.7527    0.0000 C   0  0  0  0  0  0  0  0  0  0  0  0
    2.0080    4.8805    0.0000 C   0  0  0  0  0  0  0  0  0  0  0  0
    9.8103   -2.7596    0.0000 C   0  0  0  0  0  0  0  0  0  0  0  0
    2.9021    3.3181    0.0000 C   0  0  0  0  0  0  0  0  0  0  0  0
   12.4055   -7.3044    0.0000 C   0  0  0  0  0  0  0  0  0  0  0  0
    5.5752    7.8176    0.0000 C   0  0  0  0  0  0  0  0  0  0  0  0
    8.0664   -3.7665    0.0000 C   0  0  0  0  0  0  0  0  0  0  0  0
    8.0664   -5.8358    0.0000 C   0  0  0  0  0  0  0  0  0  0  0  0
   10.7084   -2.2319    0.0000 C   0  0  0  0  0  0  0  0  0  0  0  0
    6.4382    3.3187    0.0000 C   0  0  0  0  0  0  0  0  0  0  0  0
    2.0000    3.8389    0.0000 C   0  0  0  0  0  0  0  0  0  0  0  0
    4.6382    2.2978    0.0000 C   0  0  0  0  0  0  0  0  0  0  0  0
    5.5321    1.7632    0.0000 C   0  0  0  0  0  0  0  0  0  0  0  0
    7.1604   -4.2803    0.0000 C   0  0  0  0  0  0  0  0  0  0  0  0
    7.1604   -5.3220    0.0000 C   0  0  0  0  0  0  0  0  0  0  0  0
    6.4382    2.2770    0.0000 C   0  0  0  0  0  0  0  0  0  0  0  0
   12.3981   -8.3044    0.0000 C   0  0  0  0  0  0  0  0  0  0  0  0
    6.4486    8.3044    0.0000 C   0  0  0  0  0  0  0  0  0  0  0  0
    7.2178   -2.2566    0.0000 C   0  0  0  0  0  0  0  0  0  0  0  0
    7.2294   -1.2566    0.0000 C   0  0  0  0  0  0  0  0  0  0  0  0
    6.3692   -0.7467    0.0000 C   0  0  0  0  0  0  0  0  0  0  0  0
    6.3807    0.2533    0.0000 C   0  0  0  0  0  0  0  0  0  0  0  0
   10.6919   -6.1511    0.0000 H   0  0  0  0  0  0  0  0  0  0  0  0
    5.4173    5.7580    0.0000 H   0  0  0  0  0  0  0  0  0  0  0  0
    9.4279   -6.2761    0.0000 H   0  0  0  0  0  0  0  0  0  0  0  0
   10.2249   -6.2761    0.0000 H   0  0  0  0  0  0  0  0  0  0  0  0
    6.1496    4.7201    0.0000 H   0  0  0  0  0  0  0  0  0  0  0  0
    5.7564    5.4134    0.0000 H   0  0  0  0  0  0  0  0  0  0  0  0
   12.6179   -5.9002    0.0000 H   0  0  0  0  0  0  0  0  0  0  0  0
   13.0289   -5.2195    0.0000 H   0  0  0  0  0  0  0  0  0  0  0  0
    4.2489    7.3095    0.0000 H   0  0  0  0  0  0  0  0  0  0  0  0
    3.4541    7.3313    0.0000 H   0  0  0  0  0  0  0  0  0  0  0  0
   13.0488   -4.4484    0.0000 H   0  0  0  0  0  0  0  0  0  0  0  0
   12.6735   -3.7475    0.0000 H   0  0  0  0  0  0  0  0  0  0  0  0
    2.7735    6.9682    0.0000 H   0  0  0  0  0  0  0  0  0  0  0  0
    2.3489    6.2960    0.0000 H   0  0  0  0  0  0  0  0  0  0  0  0
   10.9335   -6.6859    0.0000 H   0  0  0  0  0  0  0  0  0  0  0  0
   11.3269   -7.3791    0.0000 H   0  0  0  0  0  0  0  0  0  0  0  0
    5.7633    6.2319    0.0000 H   0  0  0  0  0  0  0  0  0  0  0  0
    6.1722    6.9161    0.0000 H   0  0  0  0  0  0  0  0  0  0  0  0
   12.1486   -2.4448    0.0000 H   0  0  0  0  0  0  0  0  0  0  0  0
    1.4747    5.1967    0.0000 H   0  0  0  0  0  0  0  0  0  0  0  0
    9.2698   -2.4559    0.0000 H   0  0  0  0  0  0  0  0  0  0  0  0
    2.9045    2.6981    0.0000 H   0  0  0  0  0  0  0  0  0  0  0  0
   13.0153   -7.4166    0.0000 H   0  0  0  0  0  0  0  0  0  0  0  0
   12.6219   -6.7234    0.0000 H   0  0  0  0  0  0  0  0  0  0  0  0
    5.3719    8.4033    0.0000 H   0  0  0  0  0  0  0  0  0  0  0  0
    4.9630    7.7191    0.0000 H   0  0  0  0  0  0  0  0  0  0  0  0
    8.0736   -6.4558    0.0000 H   0  0  0  0  0  0  0  0  0  0  0  0
   10.7060   -1.6119    0.0000 H   0  0  0  0  0  0  0  0  0  0  0  0
    6.9739    3.6307    0.0000 H   0  0  0  0  0  0  0  0  0  0  0  0
    1.4619    3.5310    0.0000 H   0  0  0  0  0  0  0  0  0  0  0  0
    4.0954    1.9983    0.0000 H   0  0  0  0  0  0  0  0  0  0  0  0
    6.6246   -3.9683    0.0000 H   0  0  0  0  0  0  0  0  0  0  0  0
    6.6246   -5.6340    0.0000 H   0  0  0  0  0  0  0  0  0  0  0  0
    6.9739    1.9650    0.0000 H   0  0  0  0  0  0  0  0  0  0  0  0
   11.7781   -8.2998    0.0000 H   0  0  0  0  0  0  0  0  0  0  0  0
   12.3935   -8.9244    0.0000 H   0  0  0  0  0  0  0  0  0  0  0  0
   13.0181   -8.3090    0.0000 H   0  0  0  0  0  0  0  0  0  0  0  0
    6.7505    7.7628    0.0000 H   0  0  0  0  0  0  0  0  0  0  0  0
    6.9902    8.6063    0.0000 H   0  0  0  0  0  0  0  0  0  0  0  0
    6.1468    8.8460    0.0000 H   0  0  0  0  0  0  0  0  0  0  0  0
    7.8386   -1.3714    0.0000 H   0  0  0  0  0  0  0  0  0  0  0  0
    7.4481   -0.6765    0.0000 H   0  0  0  0  0  0  0  0  0  0  0  0
    5.7599   -0.6319    0.0000 H   0  0  0  0  0  0  0  0  0  0  0  0
    6.1504   -1.3268    0.0000 H   0  0  0  0  0  0  0  0  0  0  0  0
  1 33  1  0  0  0  0
  1 45  1  0  0  0  0
  2 39  1  0  0  0  0
  2 48  1  0  0  0  0
  3 45  2  0  0  0  0
  4 48  2  0  0  0  0
  5  7  1  0  0  0  0
  5 13  1  0  0  0  0
  5 23  1  0  0  0  0
  6  8  1  0  0  0  0
  6 14  1  0  0  0  0
  6 25  1  0  0  0  0
  7  9  1  0  0  0  0
  7 11  1  0  0  0  0
  7 49  1  1  0  0  0
  8 10  1  0  0  0  0
  8 12  1  0  0  0  0
  8 50  1  1  0  0  0
  9 15  2  0  0  0  0
  9 19  1  0  0  0  0
 10 17  2  0  0  0  0
 10 20  1  0  0  0  0
 11 21  1  0  0  0  0
 11 51  1  0  0  0  0
 11 52  1  0  0  0  0
 12 22  1  0  0  0  0
 12 53  1  0  0  0  0
 12 54  1  0  0  0  0
 13 16  1  0  0  0  0
 13 55  1  0  0  0  0
 13 56  1  0  0  0  0
 14 18  1  0  0  0  0
 14 57  1  0  0  0  0
 14 58  1  0  0  0  0
 15 16  1  0  0  0  0
 15 27  1  0  0  0  0
 16 59  1  0  0  0  0
 16 60  1  0  0  0  0
 17 18  1  0  0  0  0
 17 28  1  0  0  0  0
 18 61  1  0  0  0  0
 18 62  1  0  0  0  0
 19 24  1  0  0  0  0
 19 29  2  0  0  0  0
 20 26  1  0  0  0  0
 20 30  2  0  0  0  0
 21 24  2  0  0  0  0
 21 34  1  0  0  0  0
 22 26  2  0  0  0  0
 22 36  1  0  0  0  0
 23 31  1  0  0  0  0
 23 63  1  0  0  0  0
 23 64  1  0  0  0  0
 24 33  1  0  0  0  0
 25 32  1  0  0  0  0
 25 65  1  0  0  0  0
 25 66  1  0  0  0  0
 26 38  1  0  0  0  0
 27 35  2  0  0  0  0
 27 67  1  0  0  0  0
 28 37  2  0  0  0  0
 28 68  1  0  0  0  0
 29 35  1  0  0  0  0
 29 69  1  0  0  0  0
 30 37  1  0  0  0  0
 30 70  1  0  0  0  0
 31 43  1  0  0  0  0
 31 71  1  0  0  0  0
 31 72  1  0  0  0  0
 32 44  1  0  0  0  0
 32 73  1  0  0  0  0
 32 74  1  0  0  0  0
 33 40  2  0  0  0  0
 34 41  2  0  0  0  0
 34 75  1  0  0  0  0
 35 76  1  0  0  0  0
 36 42  2  0  0  0  0
 36 77  1  0  0  0  0
 37 78  1  0  0  0  0
 38 39  2  0  0  0  0
 38 79  1  0  0  0  0
 39 42  1  0  0  0  0
 40 41  1  0  0  0  0
 40 80  1  0  0  0  0
 41 81  1  0  0  0  0
 42 82  1  0  0  0  0
 43 83  1  0  0  0  0
 43 84  1  0  0  0  0
 43 85  1  0  0  0  0
 44 86  1  0  0  0  0
 44 87  1  0  0  0  0
 44 88  1  0  0  0  0
 45 46  1  0  0  0  0
 46 47  1  0  0  0  0
 46 89  1  0  0  0  0
 46 90  1  0  0  0  0
 47 48  1  0  0  0  0
 47 91  1  0  0  0  0
 47 92  1  0  0  0  0
M  END
> <PUBCHEM_COMPOUND_CID>
44579033

> <PUBCHEM_COMPOUND_CANONICALIZED>
1

> <PUBCHEM_CACTVS_COMPLEXITY>
1130

> <PUBCHEM_CACTVS_HBOND_ACCEPTOR>
6

> <PUBCHEM_CACTVS_HBOND_DONOR>
0

> <PUBCHEM_CACTVS_ROTATABLE_BOND>
11

> <PUBCHEM_CACTVS_SUBSKEYS>
AAADcfB/OAAAAAAAAAAAAAAAAAAAAAAAAAA8eMGDAAAAAADxVAAAHgAAAAAADCzBmAQyDoMABACIAiDSCACCCAAgIAAIiAEODIgMJjKEsRuGOijkwBGIqAfT0PMOoAADAAAYAADQAAaAADQAAAAAAAAAAA==

> <PUBCHEM_IUPAC_OPENEYE_NAME>
O1-[(6aR)-6-propyl-5,6,6a,7-tetrahydro-4H-dibenzo[de,g]quinolin-10-yl] O4-[(6aR)-6-propyl-5,6,6a,7-tetrahydro-4H-dibenzo[de,g]quinolin-11-yl] butanedioate

> <PUBCHEM_IUPAC_CAS_NAME>
butanedioic acid O1-[(6aR)-6-propyl-5,6,6a,7-tetrahydro-4H-dibenzo[de,g]quinolin-10-yl] ester O4-[(6aR)-6-propyl-5,6,6a,7-tetrahydro-4H-dibenzo[de,g]quinolin-11-yl] ester

> <PUBCHEM_IUPAC_NAME_MARKUP>
1-<I>O</I>-[(6<I>a</I><I>R</I>)-6-propyl-5,6,6<I>a</I>,7-tetrahydro-4<I>H</I>-dibenzo[de,g]quinolin-10-yl] 4-<I>O</I>-[(6<I>a</I><I>R</I>)-6-propyl-5,6,6<I>a</I>,7-tetrahydro-4<I>H</I>-dibenzo[de,g]quinolin-11-yl] butanedioate

> <PUBCHEM_IUPAC_NAME>
1-O-[(6aR)-6-propyl-5,6,6a,7-tetrahydro-4H-dibenzo[de,g]quinolin-10-yl] 4-O-[(6aR)-6-propyl-5,6,6a,7-tetrahydro-4H-dibenzo[de,g]quinolin-11-yl] butanedioate

> <PUBCHEM_IUPAC_SYSTEMATIC_NAME>
O1-[(6aR)-6-propyl-5,6,6a,7-tetrahydro-4H-dibenzo[de,g]quinolin-10-yl] O4-[(6aR)-6-propyl-5,6,6a,7-tetrahydro-4H-dibenzo[de,g]quinolin-11-yl] butanedioate

> <PUBCHEM_IUPAC_TRADITIONAL_NAME>
succinic acid O1-[(6aR)-6-propyl-5,6,6a,7-tetrahydro-4H-dibenzo[de,g]quinolin-10-yl] ester O4-[(6aR)-6-propyl-5,6,6a,7-tetrahydro-4H-dibenzo[de,g]quinolin-11-yl] ester

> <PUBCHEM_IUPAC_INCHI>
InChI=1S/C42H44N2O4/c1-3-20-43-22-18-27-8-5-11-32-34-26-31(15-14-29(34)24-35(43)40(27)32)47-38(45)16-17-39(46)48-37-13-7-10-30-25-36-41-28(19-23-44(36)21-4-2)9-6-12-33(41)42(30)37/h5-15,26,35-36H,3-4,16-25H2,1-2H3/t35-,36-/m1/s1

> <PUBCHEM_IUPAC_INCHIKEY>
BCYVFMPPKQJVKU-LQFQNGICSA-N

> <PUBCHEM_XLOGP3_AA>
7.9

> <PUBCHEM_EXACT_MASS>
640.33010789

> <PUBCHEM_MOLECULAR_FORMULA>
C42H44N2O4

> <PUBCHEM_MOLECULAR_WEIGHT>
640.8

> <PUBCHEM_OPENEYE_CAN_SMILES>
CCCN1CCC2=C3C1CC4=C(C3=CC=C2)C(=CC=C4)OC(=O)CCC(=O)OC5=CC6=C(CC7C8=C(CCN7CCC)C=CC=C68)C=C5

> <PUBCHEM_OPENEYE_ISO_SMILES>
CCCN1CCC2=C3[C@H]1CC4=C(C3=CC=C2)C(=CC=C4)OC(=O)CCC(=O)OC5=CC6=C(C[C@@H]7C8=C(CCN7CCC)C=CC=C68)C=C5

> <PUBCHEM_CACTVS_TPSA>
59.1

> <PUBCHEM_MONOISOTOPIC_WEIGHT>
640.33010789

> <PUBCHEM_TOTAL_CHARGE>
0

> <PUBCHEM_HEAVY_ATOM_COUNT>
48

> <PUBCHEM_ATOM_DEF_STEREO_COUNT>
2

> <PUBCHEM_ATOM_UDEF_STEREO_COUNT>
0

> <PUBCHEM_BOND_DEF_STEREO_COUNT>
0

> <PUBCHEM_BOND_UDEF_STEREO_COUNT>
0

> <PUBCHEM_ISOTOPIC_ATOM_COUNT>
0

> <PUBCHEM_COMPONENT_COUNT>
1

> <PUBCHEM_CACTVS_TAUTO_COUNT>
-1

> <PUBCHEM_COORDINATE_TYPE>
1
5
255

> <PUBCHEM_BONDANNOTATIONS>
10  17  8
10  20  8
15  27  8
17  28  8
19  29  8
20  30  8
21  24  8
21  34  8
22  26  8
22  36  8
24  33  8
26  38  8
27  35  8
28  37  8
29  35  8
30  37  8
33  40  8
34  41  8
36  42  8
38  39  8
39  42  8
40  41  8
7  49  5
8  50  5
9  15  8
9  19  8

$$$$
