16123353
  -OEChem-09292322302D

 52 55  0     1  0  0  0  0  0999 V2000
    5.0249    0.6545    0.0000 S   0  0  0  0  0  0  0  0  0  0  0  0
    4.5249    1.5205    0.0000 O   0  0  0  0  0  0  0  0  0  0  0  0
    5.5249   -0.2115    0.0000 O   0  0  0  0  0  0  0  0  0  0  0  0
    2.6200   -4.3455    0.0000 N   0  0  0  0  0  0  0  0  0  0  0  0
    4.1588    0.1545    0.0000 N   0  0  0  0  0  0  0  0  0  0  0  0
    4.1588   -3.8455    0.0000 C   0  0  1  0  0  0  0  0  0  0  0  0
    4.1588   -4.8455    0.0000 C   0  0  2  0  0  0  0  0  0  0  0  0
    5.0254   -4.3455    0.0000 C   0  0  0  0  0  0  0  0  0  0  0  0
    3.2078   -3.5365    0.0000 C   0  0  0  0  0  0  0  0  0  0  0  0
    3.2078   -5.1545    0.0000 C   0  0  0  0  0  0  0  0  0  0  0  0
    4.1588   -2.8455    0.0000 C   0  0  0  0  0  0  0  0  0  0  0  0
    3.2928   -2.3455    0.0000 C   0  0  0  0  0  0  0  0  0  0  0  0
    5.0249   -2.3455    0.0000 C   0  0  0  0  0  0  0  0  0  0  0  0
    3.2928   -1.3455    0.0000 C   0  0  0  0  0  0  0  0  0  0  0  0
    5.0249   -1.3455    0.0000 C   0  0  0  0  0  0  0  0  0  0  0  0
    4.1588   -0.8455    0.0000 C   0  0  0  0  0  0  0  0  0  0  0  0
    5.8909    1.1545    0.0000 C   0  0  0  0  0  0  0  0  0  0  0  0
    5.8909    2.1545    0.0000 C   0  0  0  0  0  0  0  0  0  0  0  0
    6.7569    0.6545    0.0000 C   0  0  0  0  0  0  0  0  0  0  0  0
    7.6229    2.1545    0.0000 C   0  0  0  0  0  0  0  0  0  0  0  0
    8.4890    2.6545    0.0000 C   0  0  0  0  0  0  0  0  0  0  0  0
    6.7569    2.6545    0.0000 C   0  0  0  0  0  0  0  0  0  0  0  0
    7.6229    1.1545    0.0000 C   0  0  0  0  0  0  0  0  0  0  0  0
    8.4890    3.6545    0.0000 C   0  0  0  0  0  0  0  0  0  0  0  0
    9.3550    4.1545    0.0000 C   0  0  0  0  0  0  0  0  0  0  0  0
    9.3550    5.1545    0.0000 C   0  0  0  0  0  0  0  0  0  0  0  0
    4.5045   -5.6220    0.0000 H   0  0  0  0  0  0  0  0  0  0  0  0
    5.4239   -4.8205    0.0000 H   0  0  0  0  0  0  0  0  0  0  0  0
    5.4239   -3.8705    0.0000 H   0  0  0  0  0  0  0  0  0  0  0  0
    3.4600   -2.9701    0.0000 H   0  0  0  0  0  0  0  0  0  0  0  0
    2.6708   -3.2265    0.0000 H   0  0  0  0  0  0  0  0  0  0  0  0
    2.6708   -5.4645    0.0000 H   0  0  0  0  0  0  0  0  0  0  0  0
    3.4600   -5.7209    0.0000 H   0  0  0  0  0  0  0  0  0  0  0  0
    2.0000   -4.3455    0.0000 H   0  0  0  0  0  0  0  0  0  0  0  0
    2.7559   -2.6555    0.0000 H   0  0  0  0  0  0  0  0  0  0  0  0
    5.5618   -2.6555    0.0000 H   0  0  0  0  0  0  0  0  0  0  0  0
    2.7559   -1.0355    0.0000 H   0  0  0  0  0  0  0  0  0  0  0  0
    5.5618   -1.0355    0.0000 H   0  0  0  0  0  0  0  0  0  0  0  0
    3.6219    0.4645    0.0000 H   0  0  0  0  0  0  0  0  0  0  0  0
    5.3540    2.4645    0.0000 H   0  0  0  0  0  0  0  0  0  0  0  0
    6.7569    0.0345    0.0000 H   0  0  0  0  0  0  0  0  0  0  0  0
    8.7010    2.0719    0.0000 H   0  0  0  0  0  0  0  0  0  0  0  0
    9.0996    2.7622    0.0000 H   0  0  0  0  0  0  0  0  0  0  0  0
    8.2769    4.2371    0.0000 H   0  0  0  0  0  0  0  0  0  0  0  0
    7.8784    3.5468    0.0000 H   0  0  0  0  0  0  0  0  0  0  0  0
    6.7569    3.2745    0.0000 H   0  0  0  0  0  0  0  0  0  0  0  0
    8.1599    0.8445    0.0000 H   0  0  0  0  0  0  0  0  0  0  0  0
    9.5670    3.5719    0.0000 H   0  0  0  0  0  0  0  0  0  0  0  0
    9.9656    4.2622    0.0000 H   0  0  0  0  0  0  0  0  0  0  0  0
    9.9750    5.1545    0.0000 H   0  0  0  0  0  0  0  0  0  0  0  0
    9.3550    5.7745    0.0000 H   0  0  0  0  0  0  0  0  0  0  0  0
    8.7350    5.1545    0.0000 H   0  0  0  0  0  0  0  0  0  0  0  0
  1  2  2  0  0  0  0
  1  3  2  0  0  0  0
  1  5  1  0  0  0  0
  1 17  1  0  0  0  0
  4  9  1  0  0  0  0
  4 10  1  0  0  0  0
  4 34  1  0  0  0  0
  5 16  1  0  0  0  0
  5 39  1  0  0  0  0
  6  7  1  0  0  0  0
  6  8  1  0  0  0  0
  6  9  1  0  0  0  0
  6 11  1  1  0  0  0
  7  8  1  0  0  0  0
  7 10  1  0  0  0  0
  7 27  1  1  0  0  0
  8 28  1  0  0  0  0
  8 29  1  0  0  0  0
  9 30  1  0  0  0  0
  9 31  1  0  0  0  0
 10 32  1  0  0  0  0
 10 33  1  0  0  0  0
 11 12  2  0  0  0  0
 11 13  1  0  0  0  0
 12 14  1  0  0  0  0
 12 35  1  0  0  0  0
 13 15  2  0  0  0  0
 13 36  1  0  0  0  0
 14 16  2  0  0  0  0
 14 37  1  0  0  0  0
 15 16  1  0  0  0  0
 15 38  1  0  0  0  0
 17 18  2  0  0  0  0
 17 19  1  0  0  0  0
 18 22  1  0  0  0  0
 18 40  1  0  0  0  0
 19 23  2  0  0  0  0
 19 41  1  0  0  0  0
 20 21  1  0  0  0  0
 20 22  2  0  0  0  0
 20 23  1  0  0  0  0
 21 24  1  0  0  0  0
 21 42  1  0  0  0  0
 21 43  1  0  0  0  0
 22 46  1  0  0  0  0
 23 47  1  0  0  0  0
 24 25  1  0  0  0  0
 24 44  1  0  0  0  0
 24 45  1  0  0  0  0
 25 26  1  0  0  0  0
 25 48  1  0  0  0  0
 25 49  1  0  0  0  0
 26 50  1  0  0  0  0
 26 51  1  0  0  0  0
 26 52  1  0  0  0  0
M  END
> <PUBCHEM_COMPOUND_CID>
16123353

> <PUBCHEM_COMPOUND_CANONICALIZED>
1

> <PUBCHEM_CACTVS_COMPLEXITY>
571

> <PUBCHEM_CACTVS_HBOND_ACCEPTOR>
4

> <PUBCHEM_CACTVS_HBOND_DONOR>
2

> <PUBCHEM_CACTVS_ROTATABLE_BOND>
7

> <PUBCHEM_CACTVS_SUBSKEYS>
AAADceB7MABAAAAAAAAAAAAAGAAAAWAAAAA8YIAAAAAAAAABQAAAHAQQQAAADwjBWAQywYLAAAKAAiRCQHDCABAgAgAIiJgIZIgIICKAkZGEIABgkACIyAcQgMAPmAAAAAAAAAAwAAAAAAAAAAAAAAAAAA==

> <PUBCHEM_IUPAC_OPENEYE_NAME>
N-[4-[(1R,5S)-3-azabicyclo[3.1.0]hexan-1-yl]phenyl]-4-butyl-benzenesulfonamide

> <PUBCHEM_IUPAC_CAS_NAME>
N-[4-[(1R,5S)-3-azabicyclo[3.1.0]hexan-1-yl]phenyl]-4-butylbenzenesulfonamide

> <PUBCHEM_IUPAC_NAME_MARKUP>
<I>N</I>-[4-[(1<I>R</I>,5<I>S</I>)-3-azabicyclo[3.1.0]hexan-1-yl]phenyl]-4-butylbenzenesulfonamide

> <PUBCHEM_IUPAC_NAME>
N-[4-[(1R,5S)-3-azabicyclo[3.1.0]hexan-1-yl]phenyl]-4-butylbenzenesulfonamide

> <PUBCHEM_IUPAC_SYSTEMATIC_NAME>
N-[4-[(1R,5S)-3-azabicyclo[3.1.0]hexan-1-yl]phenyl]-4-butyl-benzenesulfonamide

> <PUBCHEM_IUPAC_TRADITIONAL_NAME>
N-[4-[(1R,5S)-3-azabicyclo[3.1.0]hexan-1-yl]phenyl]-4-butyl-benzenesulfonamide

> <PUBCHEM_IUPAC_INCHI>
InChI=1S/C21H26N2O2S/c1-2-3-4-16-5-11-20(12-6-16)26(24,25)23-19-9-7-17(8-10-19)21-13-18(21)14-22-15-21/h5-12,18,22-23H,2-4,13-15H2,1H3/t18-,21+/m1/s1

> <PUBCHEM_IUPAC_INCHIKEY>
NZOQVGKUAPXCFT-NQIIRXRSSA-N

> <PUBCHEM_XLOGP3_AA>
4.1

> <PUBCHEM_EXACT_MASS>
370.17149925

> <PUBCHEM_MOLECULAR_FORMULA>
C21H26N2O2S

> <PUBCHEM_MOLECULAR_WEIGHT>
370.5

> <PUBCHEM_OPENEYE_CAN_SMILES>
CCCCC1=CC=C(C=C1)S(=O)(=O)NC2=CC=C(C=C2)C34CC3CNC4

> <PUBCHEM_OPENEYE_ISO_SMILES>
CCCCC1=CC=C(C=C1)S(=O)(=O)NC2=CC=C(C=C2)[C@@]34C[C@@H]3CNC4

> <PUBCHEM_CACTVS_TPSA>
66.6

> <PUBCHEM_MONOISOTOPIC_WEIGHT>
370.17149925

> <PUBCHEM_TOTAL_CHARGE>
0

> <PUBCHEM_HEAVY_ATOM_COUNT>
26

> <PUBCHEM_ATOM_DEF_STEREO_COUNT>
2

> <PUBCHEM_ATOM_UDEF_STEREO_COUNT>
0

> <PUBCHEM_BOND_DEF_STEREO_COUNT>
0

> <PUBCHEM_BOND_UDEF_STEREO_COUNT>
0

> <PUBCHEM_ISOTOPIC_ATOM_COUNT>
0

> <PUBCHEM_COMPONENT_COUNT>
1

> <PUBCHEM_CACTVS_TAUTO_COUNT>
-1

> <PUBCHEM_COORDINATE_TYPE>
1
5
255

> <PUBCHEM_BONDANNOTATIONS>
11  12  8
11  13  8
12  14  8
13  15  8
14  16  8
15  16  8
17  18  8
17  19  8
18  22  8
19  23  8
20  22  8
20  23  8
6  11  5
7  27  5

$$$$
