164616642
  -OEChem-09292322022D

 59 63  0     1  0  0  0  0  0999 V2000
   12.5842   -0.2625    0.0000 O   0  0  0  0  0  0  0  0  0  0  0  0
   17.8464   -0.2383    0.0000 O   0  0  0  0  0  0  0  0  0  0  0  0
    8.2522    0.2208    0.0000 N   0  0  0  0  0  0  0  0  0  0  0  0
   16.1143   -0.2383    0.0000 N   0  0  0  0  0  0  0  0  0  0  0  0
    6.5201    0.2142    0.0000 C   0  0  3  0  0  0  0  0  0  0  0  0
    5.5201    0.2103    0.0000 C   0  0  3  0  0  0  0  0  0  0  0  0
    6.0168    1.0783    0.0000 C   0  0  0  0  0  0  0  0  0  0  0  0
    7.3881   -0.2825    0.0000 C   0  0  0  0  0  0  0  0  0  0  0  0
    4.6560   -0.2930    0.0000 C   0  0  0  0  0  0  0  0  0  0  0  0
    3.7881    0.2036    0.0000 C   0  0  0  0  0  0  0  0  0  0  0  0
    4.6599   -1.2930    0.0000 C   0  0  0  0  0  0  0  0  0  0  0  0
    9.1201   -0.2758    0.0000 C   0  0  0  0  0  0  0  0  0  0  0  0
    2.9240   -0.2997    0.0000 C   0  0  0  0  0  0  0  0  0  0  0  0
    3.7958   -1.7964    0.0000 C   0  0  0  0  0  0  0  0  0  0  0  0
    3.8001    1.2452    0.0000 C   0  0  0  0  0  0  0  0  0  0  0  0
    2.9278   -1.2997    0.0000 C   0  0  0  0  0  0  0  0  0  0  0  0
    9.9842    0.2275    0.0000 C   0  0  0  0  0  0  0  0  0  0  0  0
    2.0120    0.2036    0.0000 C   0  0  0  0  0  0  0  0  0  0  0  0
    2.9001    1.7695    0.0000 C   0  0  0  0  0  0  0  0  0  0  0  0
   10.8521   -0.2691    0.0000 C   0  0  0  0  0  0  0  0  0  0  0  0
    2.0000    1.2452    0.0000 C   0  0  0  0  0  0  0  0  0  0  0  0
   11.7162    0.2342    0.0000 C   0  0  0  0  0  0  0  0  0  0  0  0
   13.4483    0.2409    0.0000 C   0  0  0  0  0  0  0  0  0  0  0  0
   14.3543   -0.2730    0.0000 C   0  0  0  0  0  0  0  0  0  0  0  0
   13.4483    1.2825    0.0000 C   0  0  0  0  0  0  0  0  0  0  0  0
   15.2483    0.2617    0.0000 C   0  0  0  0  0  0  0  0  0  0  0  0
   15.2483    1.2617    0.0000 C   0  0  0  0  0  0  0  0  0  0  0  0
   14.3543    1.7964    0.0000 C   0  0  0  0  0  0  0  0  0  0  0  0
   16.1143    1.7617    0.0000 C   0  0  0  0  0  0  0  0  0  0  0  0
   16.9803    0.2617    0.0000 C   0  0  0  0  0  0  0  0  0  0  0  0
   16.9803    1.2617    0.0000 C   0  0  0  0  0  0  0  0  0  0  0  0
    6.9568    0.6543    0.0000 H   0  0  0  0  0  0  0  0  0  0  0  0
    5.6829   -0.3879    0.0000 H   0  0  0  0  0  0  0  0  0  0  0  0
    6.4902    1.4786    0.0000 H   0  0  0  0  0  0  0  0  0  0  0  0
    5.5403    1.4750    0.0000 H   0  0  0  0  0  0  0  0  0  0  0  0
    6.9914   -0.7590    0.0000 H   0  0  0  0  0  0  0  0  0  0  0  0
    7.7884   -0.7559    0.0000 H   0  0  0  0  0  0  0  0  0  0  0  0
    8.2498    0.8408    0.0000 H   0  0  0  0  0  0  0  0  0  0  0  0
    5.1980   -1.6009    0.0000 H   0  0  0  0  0  0  0  0  0  0  0  0
    8.7234   -0.7523    0.0000 H   0  0  0  0  0  0  0  0  0  0  0  0
    9.5205   -0.7492    0.0000 H   0  0  0  0  0  0  0  0  0  0  0  0
    3.7982   -2.4163    0.0000 H   0  0  0  0  0  0  0  0  0  0  0  0
    4.3394    1.5510    0.0000 H   0  0  0  0  0  0  0  0  0  0  0  0
    2.3921   -1.6118    0.0000 H   0  0  0  0  0  0  0  0  0  0  0  0
   10.3809    0.7040    0.0000 H   0  0  0  0  0  0  0  0  0  0  0  0
    9.5838    0.7009    0.0000 H   0  0  0  0  0  0  0  0  0  0  0  0
    1.4800   -0.1146    0.0000 H   0  0  0  0  0  0  0  0  0  0  0  0
    2.9001    2.3895    0.0000 H   0  0  0  0  0  0  0  0  0  0  0  0
   10.4554   -0.7456    0.0000 H   0  0  0  0  0  0  0  0  0  0  0  0
   11.2525   -0.7425    0.0000 H   0  0  0  0  0  0  0  0  0  0  0  0
    1.4607    1.5510    0.0000 H   0  0  0  0  0  0  0  0  0  0  0  0
   12.1129    0.7107    0.0000 H   0  0  0  0  0  0  0  0  0  0  0  0
   11.3159    0.7076    0.0000 H   0  0  0  0  0  0  0  0  0  0  0  0
   14.3615   -0.8929    0.0000 H   0  0  0  0  0  0  0  0  0  0  0  0
   12.9125    1.5946    0.0000 H   0  0  0  0  0  0  0  0  0  0  0  0
   14.3615    2.4163    0.0000 H   0  0  0  0  0  0  0  0  0  0  0  0
   16.1143   -0.8583    0.0000 H   0  0  0  0  0  0  0  0  0  0  0  0
   16.1143    2.3817    0.0000 H   0  0  0  0  0  0  0  0  0  0  0  0
   17.5173    1.5717    0.0000 H   0  0  0  0  0  0  0  0  0  0  0  0
  1 22  1  0  0  0  0
  1 23  1  0  0  0  0
  2 30  2  0  0  0  0
  3  8  1  0  0  0  0
  3 12  1  0  0  0  0
  3 38  1  0  0  0  0
  4 26  1  0  0  0  0
  4 30  1  0  0  0  0
  4 57  1  0  0  0  0
  5  6  1  0  0  0  0
  5  7  1  0  0  0  0
  5  8  1  0  0  0  0
  5 32  1  0  0  0  0
  6  7  1  0  0  0  0
  6  9  1  0  0  0  0
  6 33  1  0  0  0  0
  7 34  1  0  0  0  0
  7 35  1  0  0  0  0
  8 36  1  0  0  0  0
  8 37  1  0  0  0  0
  9 10  1  0  0  0  0
  9 11  2  0  0  0  0
 10 13  1  0  0  0  0
 10 15  2  0  0  0  0
 11 14  1  0  0  0  0
 11 39  1  0  0  0  0
 12 17  1  0  0  0  0
 12 40  1  0  0  0  0
 12 41  1  0  0  0  0
 13 16  1  0  0  0  0
 13 18  2  0  0  0  0
 14 16  2  0  0  0  0
 14 42  1  0  0  0  0
 15 19  1  0  0  0  0
 15 43  1  0  0  0  0
 16 44  1  0  0  0  0
 17 20  1  0  0  0  0
 17 45  1  0  0  0  0
 17 46  1  0  0  0  0
 18 21  1  0  0  0  0
 18 47  1  0  0  0  0
 19 21  2  0  0  0  0
 19 48  1  0  0  0  0
 20 22  1  0  0  0  0
 20 49  1  0  0  0  0
 20 50  1  0  0  0  0
 21 51  1  0  0  0  0
 22 52  1  0  0  0  0
 22 53  1  0  0  0  0
 23 24  2  0  0  0  0
 23 25  1  0  0  0  0
 24 26  1  0  0  0  0
 24 54  1  0  0  0  0
 25 28  2  0  0  0  0
 25 55  1  0  0  0  0
 26 27  2  0  0  0  0
 27 28  1  0  0  0  0
 27 29  1  0  0  0  0
 28 56  1  0  0  0  0
 29 31  2  0  0  0  0
 29 58  1  0  0  0  0
 30 31  1  0  0  0  0
 31 59  1  0  0  0  0
M  END
> <PUBCHEM_COMPOUND_CID>
164616642

> <PUBCHEM_COMPOUND_CANONICALIZED>
1

> <PUBCHEM_CACTVS_COMPLEXITY>
635

> <PUBCHEM_CACTVS_HBOND_ACCEPTOR>
3

> <PUBCHEM_CACTVS_HBOND_DONOR>
2

> <PUBCHEM_CACTVS_ROTATABLE_BOND>
9

> <PUBCHEM_CACTVS_SUBSKEYS>
AAADceB7MAAAAAAAAAAAAAAAGAAAAAAAAAAwYMEAAAAAAADBVAAAHgAQAAAADQzhmAYwxsLABACIAiVSUACCCAAhIgAIiIAObMgMJiLEsZuGOCjm1BnI6Yew0MMOoAACAgASAABAAAQEACQAAAAAAAAAAA==

> <PUBCHEM_IUPAC_OPENEYE_NAME>
7-[4-[[2-(1-naphthyl)cyclopropyl]methylamino]butoxy]-1H-quinolin-2-one

> <PUBCHEM_IUPAC_CAS_NAME>
7-[4-[[2-(1-naphthalenyl)cyclopropyl]methylamino]butoxy]-1H-quinolin-2-one

> <PUBCHEM_IUPAC_NAME_MARKUP>
7-[4-[(2-naphthalen-1-ylcyclopropyl)methylamino]butoxy]-1<I>H</I>-quinolin-2-one

> <PUBCHEM_IUPAC_NAME>
7-[4-[(2-naphthalen-1-ylcyclopropyl)methylamino]butoxy]-1H-quinolin-2-one

> <PUBCHEM_IUPAC_SYSTEMATIC_NAME>
7-[4-[(2-naphthalen-1-ylcyclopropyl)methylamino]butoxy]-1H-quinolin-2-one

> <PUBCHEM_IUPAC_TRADITIONAL_NAME>
7-[4-[[2-(1-naphthyl)cyclopropyl]methylamino]butoxy]carbostyril

> <PUBCHEM_IUPAC_INCHI>
InChI=1S/C27H28N2O2/c30-27-13-11-20-10-12-22(17-26(20)29-27)31-15-4-3-14-28-18-21-16-25(21)24-9-5-7-19-6-1-2-8-23(19)24/h1-2,5-13,17,21,25,28H,3-4,14-16,18H2,(H,29,30)

> <PUBCHEM_IUPAC_INCHIKEY>
PPICFYYJZAROHJ-UHFFFAOYSA-N

> <PUBCHEM_XLOGP3_AA>
5

> <PUBCHEM_EXACT_MASS>
412.215078140

> <PUBCHEM_MOLECULAR_FORMULA>
C27H28N2O2

> <PUBCHEM_MOLECULAR_WEIGHT>
412.5

> <PUBCHEM_OPENEYE_CAN_SMILES>
C1C(C1C2=CC=CC3=CC=CC=C32)CNCCCCOC4=CC5=C(C=C4)C=CC(=O)N5

> <PUBCHEM_OPENEYE_ISO_SMILES>
C1C(C1C2=CC=CC3=CC=CC=C32)CNCCCCOC4=CC5=C(C=C4)C=CC(=O)N5

> <PUBCHEM_CACTVS_TPSA>
50.4

> <PUBCHEM_MONOISOTOPIC_WEIGHT>
412.215078140

> <PUBCHEM_TOTAL_CHARGE>
0

> <PUBCHEM_HEAVY_ATOM_COUNT>
31

> <PUBCHEM_ATOM_DEF_STEREO_COUNT>
0

> <PUBCHEM_ATOM_UDEF_STEREO_COUNT>
2

> <PUBCHEM_BOND_DEF_STEREO_COUNT>
0

> <PUBCHEM_BOND_UDEF_STEREO_COUNT>
0

> <PUBCHEM_ISOTOPIC_ATOM_COUNT>
0

> <PUBCHEM_COMPONENT_COUNT>
1

> <PUBCHEM_CACTVS_TAUTO_COUNT>
-1

> <PUBCHEM_COORDINATE_TYPE>
1
5
255

> <PUBCHEM_BONDANNOTATIONS>
10  13  8
10  15  8
11  14  8
13  16  8
13  18  8
14  16  8
15  19  8
18  21  8
19  21  8
23  24  8
23  25  8
24  26  8
25  28  8
26  27  8
27  28  8
27  29  8
29  31  8
30  31  8
4  26  8
4  30  8
5  8  3
6  9  3
9  10  8
9  11  8

$$$$
