44377954
  -OEChem-09292322192D

 63 67  0     1  0  0  0  0  0999 V2000
    6.7413   -5.9408    0.0000 S   0  0  0  0  0  0  0  0  0  0  0  0
    3.4900    5.9408    0.0000 F   0  0  0  0  0  0  0  0  0  0  0  0
    6.5033    2.4883    0.0000 O   0  0  0  0  0  0  0  0  0  0  0  0
    2.0000    3.3370    0.0000 O   0  0  0  0  0  0  0  0  0  0  0  0
    6.8465   -3.7307    0.0000 N   0  0  3  0  0  0  0  0  0  0  0  0
    5.5167   -0.9796    0.0000 N   0  0  3  0  0  0  0  0  0  0  0  0
    3.5033    2.4768    0.0000 N   0  0  0  0  0  0  0  0  0  0  0  0
    6.5375   -2.7796    0.0000 C   0  0  2  0  0  0  0  0  0  0  0  0
    5.5375   -2.7796    0.0000 C   0  0  1  0  0  0  0  0  0  0  0  0
    7.0721   -1.8857    0.0000 C   0  0  0  0  0  0  0  0  0  0  0  0
    5.0028   -1.8857    0.0000 C   0  0  0  0  0  0  0  0  0  0  0  0
    5.2285   -3.7307    0.0000 C   0  0  0  0  0  0  0  0  0  0  0  0
    6.0375   -4.3184    0.0000 C   0  0  0  0  0  0  0  0  0  0  0  0
    6.5583   -0.9796    0.0000 C   0  0  0  0  0  0  0  0  0  0  0  0
    7.7902   -3.9980    0.0000 C   0  0  0  0  0  0  0  0  0  0  0  0
    5.0133   -0.1155    0.0000 C   0  0  0  0  0  0  0  0  0  0  0  0
    6.0001   -5.2985    0.0000 C   0  0  0  0  0  0  0  0  0  0  0  0
    4.3533   -4.1816    0.0000 C   0  0  0  0  0  0  0  0  0  0  0  0
    8.1720   -4.9014    0.0000 C   0  0  0  0  0  0  0  0  0  0  0  0
    7.7061   -5.7644    0.0000 C   0  0  0  0  0  0  0  0  0  0  0  0
    5.5100    0.7524    0.0000 C   0  0  0  0  0  0  0  0  0  0  0  0
    5.1089   -5.7169    0.0000 C   0  0  0  0  0  0  0  0  0  0  0  0
    4.2942   -5.1643    0.0000 C   0  0  0  0  0  0  0  0  0  0  0  0
    5.0066    1.6165    0.0000 C   0  0  0  0  0  0  0  0  0  0  0  0
    5.5033    2.4845    0.0000 C   0  0  0  0  0  0  0  0  0  0  0  0
    5.0000    3.3486    0.0000 C   0  0  0  0  0  0  0  0  0  0  0  0
    4.0000    3.3447    0.0000 C   0  0  0  0  0  0  0  0  0  0  0  0
    5.4966    4.2165    0.0000 C   0  0  0  0  0  0  0  0  0  0  0  0
    3.4966    4.2088    0.0000 C   0  0  0  0  0  0  0  0  0  0  0  0
    4.9933    5.0806    0.0000 C   0  0  0  0  0  0  0  0  0  0  0  0
    3.9933    5.0768    0.0000 C   0  0  0  0  0  0  0  0  0  0  0  0
    2.5033    2.4729    0.0000 C   0  0  0  0  0  0  0  0  0  0  0  0
    2.0067    1.6050    0.0000 C   0  0  0  0  0  0  0  0  0  0  0  0
    7.3821   -2.8750    0.0000 H   0  0  0  0  0  0  0  0  0  0  0  0
    4.6928   -2.8750    0.0000 H   0  0  0  0  0  0  0  0  0  0  0  0
    7.5419   -2.2903    0.0000 H   0  0  0  0  0  0  0  0  0  0  0  0
    7.5512   -1.4920    0.0000 H   0  0  0  0  0  0  0  0  0  0  0  0
    4.5238   -1.4920    0.0000 H   0  0  0  0  0  0  0  0  0  0  0  0
    4.5330   -2.2903    0.0000 H   0  0  0  0  0  0  0  0  0  0  0  0
    7.1420   -0.7705    0.0000 H   0  0  0  0  0  0  0  0  0  0  0  0
    6.4522   -0.3687    0.0000 H   0  0  0  0  0  0  0  0  0  0  0  0
    8.4007   -3.8902    0.0000 H   0  0  0  0  0  0  0  0  0  0  0  0
    7.8216   -3.3787    0.0000 H   0  0  0  0  0  0  0  0  0  0  0  0
    4.5368    0.2812    0.0000 H   0  0  0  0  0  0  0  0  0  0  0  0
    4.5399   -0.5159    0.0000 H   0  0  0  0  0  0  0  0  0  0  0  0
    3.8339   -3.8431    0.0000 H   0  0  0  0  0  0  0  0  0  0  0  0
    8.6380   -5.3103    0.0000 H   0  0  0  0  0  0  0  0  0  0  0  0
    8.6747   -4.5385    0.0000 H   0  0  0  0  0  0  0  0  0  0  0  0
    7.6785   -6.3838    0.0000 H   0  0  0  0  0  0  0  0  0  0  0  0
    8.3036   -5.9296    0.0000 H   0  0  0  0  0  0  0  0  0  0  0  0
    5.9865    0.3557    0.0000 H   0  0  0  0  0  0  0  0  0  0  0  0
    5.9834    1.1528    0.0000 H   0  0  0  0  0  0  0  0  0  0  0  0
    5.0603   -6.3350    0.0000 H   0  0  0  0  0  0  0  0  0  0  0  0
    3.7379   -5.4380    0.0000 H   0  0  0  0  0  0  0  0  0  0  0  0
    4.5302    2.0132    0.0000 H   0  0  0  0  0  0  0  0  0  0  0  0
    4.5332    1.2162    0.0000 H   0  0  0  0  0  0  0  0  0  0  0  0
    6.1166    4.2189    0.0000 H   0  0  0  0  0  0  0  0  0  0  0  0
    2.8767    4.2064    0.0000 H   0  0  0  0  0  0  0  0  0  0  0  0
    5.3012    5.6187    0.0000 H   0  0  0  0  0  0  0  0  0  0  0  0
    3.8154    1.9410    0.0000 H   0  0  0  0  0  0  0  0  0  0  0  0
    1.4686    1.9129    0.0000 H   0  0  0  0  0  0  0  0  0  0  0  0
    1.6988    1.0668    0.0000 H   0  0  0  0  0  0  0  0  0  0  0  0
    2.5448    1.2970    0.0000 H   0  0  0  0  0  0  0  0  0  0  0  0
  1 17  1  0  0  0  0
  1 20  1  0  0  0  0
  2 31  1  0  0  0  0
  3 25  2  0  0  0  0
  4 32  2  0  0  0  0
  5  8  1  0  0  0  0
  5 13  1  0  0  0  0
  5 15  1  0  0  0  0
  6 11  1  0  0  0  0
  6 14  1  0  0  0  0
  6 16  1  0  0  0  0
  7 27  1  0  0  0  0
  7 32  1  0  0  0  0
  7 60  1  0  0  0  0
  8  9  1  0  0  0  0
  8 10  1  0  0  0  0
  8 34  1  1  0  0  0
  9 11  1  0  0  0  0
  9 12  1  0  0  0  0
  9 35  1  1  0  0  0
 10 14  1  0  0  0  0
 10 36  1  0  0  0  0
 10 37  1  0  0  0  0
 11 38  1  0  0  0  0
 11 39  1  0  0  0  0
 12 13  2  0  0  0  0
 12 18  1  0  0  0  0
 13 17  1  0  0  0  0
 14 40  1  0  0  0  0
 14 41  1  0  0  0  0
 15 19  1  0  0  0  0
 15 42  1  0  0  0  0
 15 43  1  0  0  0  0
 16 21  1  0  0  0  0
 16 44  1  0  0  0  0
 16 45  1  0  0  0  0
 17 22  2  0  0  0  0
 18 23  2  0  0  0  0
 18 46  1  0  0  0  0
 19 20  1  0  0  0  0
 19 47  1  0  0  0  0
 19 48  1  0  0  0  0
 20 49  1  0  0  0  0
 20 50  1  0  0  0  0
 21 24  1  0  0  0  0
 21 51  1  0  0  0  0
 21 52  1  0  0  0  0
 22 23  1  0  0  0  0
 22 53  1  0  0  0  0
 23 54  1  0  0  0  0
 24 25  1  0  0  0  0
 24 55  1  0  0  0  0
 24 56  1  0  0  0  0
 25 26  1  0  0  0  0
 26 27  2  0  0  0  0
 26 28  1  0  0  0  0
 27 29  1  0  0  0  0
 28 30  2  0  0  0  0
 28 57  1  0  0  0  0
 29 31  2  0  0  0  0
 29 58  1  0  0  0  0
 30 31  1  0  0  0  0
 30 59  1  0  0  0  0
 32 33  1  0  0  0  0
 33 61  1  0  0  0  0
 33 62  1  0  0  0  0
 33 63  1  0  0  0  0
M  END
> <PUBCHEM_COMPOUND_CID>
44377954

> <PUBCHEM_COMPOUND_CANONICALIZED>
1

> <PUBCHEM_CACTVS_COMPLEXITY>
724

> <PUBCHEM_CACTVS_HBOND_ACCEPTOR>
6

> <PUBCHEM_CACTVS_HBOND_DONOR>
1

> <PUBCHEM_CACTVS_ROTATABLE_BOND>
6

> <PUBCHEM_CACTVS_SUBSKEYS>
AAADceB7MQBAAAAAAAAAAAAAAAAAAWAAAAA8YIAABYAAAFixQAAAHwQQAAAADSzF2AyywYPAAAiIAqVSUACCAAAlChAIiB0IZMgIIDrg1ZGEIYhglADoyccciMCOgAAAgAACAQAAAAEAAAQCAAAAAAAAAA==

> <PUBCHEM_IUPAC_OPENEYE_NAME>
N-[5-fluoro-2-[4-[(11S,16R)-6-thia-10,14-diazatetracyclo[8.6.1.05,17.011,16]heptadeca-1(17),2,4-trien-14-yl]butanoyl]phenyl]acetamide

> <PUBCHEM_IUPAC_CAS_NAME>
N-[5-fluoro-2-[1-oxo-4-[(11S,16R)-6-thia-10,14-diazatetracyclo[8.6.1.05,17.011,16]heptadeca-1(17),2,4-trien-14-yl]butyl]phenyl]acetamide

> <PUBCHEM_IUPAC_NAME_MARKUP>
<I>N</I>-[5-fluoro-2-[4-[(11<I>S</I>,16<I>R</I>)-6-thia-10,14-diazatetracyclo[8.6.1.0<SUP>5,17</SUP>.0<SUP>11,16</SUP>]heptadeca-1(17),2,4-trien-14-yl]butanoyl]phenyl]acetamide

> <PUBCHEM_IUPAC_NAME>
N-[5-fluoro-2-[4-[(11S,16R)-6-thia-10,14-diazatetracyclo[8.6.1.05,17.011,16]heptadeca-1(17),2,4-trien-14-yl]butanoyl]phenyl]acetamide

> <PUBCHEM_IUPAC_SYSTEMATIC_NAME>
N-[5-fluoranyl-2-[4-[(11S,16R)-6-thia-10,14-diazatetracyclo[8.6.1.05,17.011,16]heptadeca-1(17),2,4-trien-14-yl]butanoyl]phenyl]ethanamide

> <PUBCHEM_IUPAC_TRADITIONAL_NAME>
N-[5-fluoro-2-[4-[(11S,16R)-6-thia-10,14-diazatetracyclo[8.6.1.05,17.011,16]heptadeca-1(17),2,4-trien-14-yl]butanoyl]phenyl]acetamide

> <PUBCHEM_IUPAC_INCHI>
InChI=1S/C26H30FN3O2S/c1-17(31)28-22-15-18(27)8-9-20(22)24(32)6-3-11-29-13-10-23-21(16-29)19-5-2-7-25-26(19)30(23)12-4-14-33-25/h2,5,7-9,15,21,23H,3-4,6,10-14,16H2,1H3,(H,28,31)/t21-,23-/m0/s1

> <PUBCHEM_IUPAC_INCHIKEY>
FHQYCPGXTQGPMU-GMAHTHKFSA-N

> <PUBCHEM_XLOGP3_AA>
4.2

> <PUBCHEM_EXACT_MASS>
467.20427654

> <PUBCHEM_MOLECULAR_FORMULA>
C26H30FN3O2S

> <PUBCHEM_MOLECULAR_WEIGHT>
467.6

> <PUBCHEM_OPENEYE_CAN_SMILES>
CC(=O)NC1=C(C=CC(=C1)F)C(=O)CCCN2CCC3C(C2)C4=C5N3CCCSC5=CC=C4

> <PUBCHEM_OPENEYE_ISO_SMILES>
CC(=O)NC1=C(C=CC(=C1)F)C(=O)CCCN2CC[C@H]3[C@@H](C2)C4=C5N3CCCSC5=CC=C4

> <PUBCHEM_CACTVS_TPSA>
78

> <PUBCHEM_MONOISOTOPIC_WEIGHT>
467.20427654

> <PUBCHEM_TOTAL_CHARGE>
0

> <PUBCHEM_HEAVY_ATOM_COUNT>
33

> <PUBCHEM_ATOM_DEF_STEREO_COUNT>
2

> <PUBCHEM_ATOM_UDEF_STEREO_COUNT>
0

> <PUBCHEM_BOND_DEF_STEREO_COUNT>
0

> <PUBCHEM_BOND_UDEF_STEREO_COUNT>
0

> <PUBCHEM_ISOTOPIC_ATOM_COUNT>
0

> <PUBCHEM_COMPONENT_COUNT>
1

> <PUBCHEM_CACTVS_TAUTO_COUNT>
-1

> <PUBCHEM_COORDINATE_TYPE>
1
5
255

> <PUBCHEM_BONDANNOTATIONS>
12  13  8
12  18  8
13  17  8
17  22  8
18  23  8
22  23  8
26  27  8
26  28  8
27  29  8
28  30  8
29  31  8
30  31  8
8  34  5
9  35  5

$$$$
