45260715
  -OEChem-09292322192D

 39 39  0     1  0  0  0  0  0999 V2000
    5.9399    3.6945    0.0000 Cl  0  0  0  0  0  0  0  0  0  0  0  0
    3.4030    2.7690    0.0000 O   0  0  0  0  0  0  0  0  0  0  0  0
    0.8049    4.2690    0.0000 O   0  0  0  0  0  0  0  0  0  0  0  0
    1.0369    1.4030    0.0000 N   0  0  0  0  0  0  0  0  0  0  0  0
    2.5369    2.2690    0.0000 C   0  0  3  0  0  0  0  0  0  0  0  0
    1.6709    2.7690    0.0000 C   0  0  0  0  0  0  0  0  0  0  0  0
    2.0369    1.4030    0.0000 C   0  0  0  0  0  0  0  0  0  0  0  0
    3.0369    1.4030    0.0000 C   0  0  0  0  0  0  0  0  0  0  0  0
    1.6709    3.7690    0.0000 C   0  0  0  0  0  0  0  0  0  0  0  0
    2.5369    4.2690    0.0000 C   0  0  0  0  0  0  0  0  0  0  0  0
    3.4030    3.7690    0.0000 C   0  0  0  0  0  0  0  0  0  0  0  0
    0.5369    0.5369    0.0000 C   0  0  0  0  0  0  0  0  0  0  0  0
    0.5369    2.2690    0.0000 C   0  0  0  0  0  0  0  0  0  0  0  0
    2.5369    5.2690    0.0000 C   0  0  0  0  0  0  0  0  0  0  0  0
    3.4030    5.7690    0.0000 C   0  0  0  0  0  0  0  0  0  0  0  0
    1.6709    5.7690    0.0000 C   0  0  0  0  0  0  0  0  0  0  0  0
    3.4030    6.7690    0.0000 C   0  0  0  0  0  0  0  0  0  0  0  0
    1.6709    6.7690    0.0000 C   0  0  0  0  0  0  0  0  0  0  0  0
    2.5369    7.2690    0.0000 C   0  0  0  0  0  0  0  0  0  0  0  0
    1.0603    2.8766    0.0000 H   0  0  0  0  0  0  0  0  0  0  0  0
    1.4589    2.1864    0.0000 H   0  0  0  0  0  0  0  0  0  0  0  0
    1.9293    0.7924    0.0000 H   0  0  0  0  0  0  0  0  0  0  0  0
    2.6196    1.1909    0.0000 H   0  0  0  0  0  0  0  0  0  0  0  0
    2.5000    1.0930    0.0000 H   0  0  0  0  0  0  0  0  0  0  0  0
    3.3469    0.8660    0.0000 H   0  0  0  0  0  0  0  0  0  0  0  0
    3.5739    1.7130    0.0000 H   0  0  0  0  0  0  0  0  0  0  0  0
    3.9399    4.0790    0.0000 H   0  0  0  0  0  0  0  0  0  0  0  0
    0.0000    0.8469    0.0000 H   0  0  0  0  0  0  0  0  0  0  0  0
    0.2269    0.0000    0.0000 H   0  0  0  0  0  0  0  0  0  0  0  0
    1.0739    0.2269    0.0000 H   0  0  0  0  0  0  0  0  0  0  0  0
    1.0739    2.5790    0.0000 H   0  0  0  0  0  0  0  0  0  0  0  0
    0.2269    2.8059    0.0000 H   0  0  0  0  0  0  0  0  0  0  0  0
    0.0000    1.9590    0.0000 H   0  0  0  0  0  0  0  0  0  0  0  0
    3.9399    5.4590    0.0000 H   0  0  0  0  0  0  0  0  0  0  0  0
    1.1340    5.4590    0.0000 H   0  0  0  0  0  0  0  0  0  0  0  0
    3.9399    7.0790    0.0000 H   0  0  0  0  0  0  0  0  0  0  0  0
    1.1340    7.0790    0.0000 H   0  0  0  0  0  0  0  0  0  0  0  0
    2.5369    7.8890    0.0000 H   0  0  0  0  0  0  0  0  0  0  0  0
    6.9399    3.6945    0.0000 H   0  0  0  0  0  0  0  0  0  0  0  0
  1 39  1  0  0  0  0
  2  5  1  0  0  0  0
  2 11  1  0  0  0  0
  3  9  2  0  0  0  0
  4  7  1  0  0  0  0
  4 12  1  0  0  0  0
  4 13  1  0  0  0  0
  5  6  1  0  0  0  0
  5  7  1  0  0  0  0
  5  8  1  0  0  0  0
  6  9  1  0  0  0  0
  6 20  1  0  0  0  0
  6 21  1  0  0  0  0
  7 22  1  0  0  0  0
  7 23  1  0  0  0  0
  8 24  1  0  0  0  0
  8 25  1  0  0  0  0
  8 26  1  0  0  0  0
  9 10  1  0  0  0  0
 10 11  2  0  0  0  0
 10 14  1  0  0  0  0
 11 27  1  0  0  0  0
 12 28  1  0  0  0  0
 12 29  1  0  0  0  0
 12 30  1  0  0  0  0
 13 31  1  0  0  0  0
 13 32  1  0  0  0  0
 13 33  1  0  0  0  0
 14 15  2  0  0  0  0
 14 16  1  0  0  0  0
 15 17  1  0  0  0  0
 15 34  1  0  0  0  0
 16 18  2  0  0  0  0
 16 35  1  0  0  0  0
 17 19  2  0  0  0  0
 17 36  1  0  0  0  0
 18 19  1  0  0  0  0
 18 37  1  0  0  0  0
 19 38  1  0  0  0  0
M  END
> <PUBCHEM_COMPOUND_CID>
45260715

> <PUBCHEM_COMPOUND_CANONICALIZED>
1

> <PUBCHEM_CACTVS_COMPLEXITY>
342

> <PUBCHEM_CACTVS_HBOND_ACCEPTOR>
3

> <PUBCHEM_CACTVS_HBOND_DONOR>
1

> <PUBCHEM_CACTVS_ROTATABLE_BOND>
3

> <PUBCHEM_CACTVS_SUBSKEYS>
AAADceByMAAEAAAAAAAAAAAAAAAAAAAAAAAwQAAAAAAAAAABAAAAHgAAAAAADEThmAYyAIMABACIAqBSAAACCAAgIAAIiAEIAMgKIDaAlRCFIAAkoAAYiIecyPCOAAAAAAAAAAAAAAAAAAAAAAAAAAAAAA==

> <PUBCHEM_IUPAC_OPENEYE_NAME>
2-[(dimethylamino)methyl]-2-methyl-5-phenyl-3H-pyran-4-one;hydrochloride

> <PUBCHEM_IUPAC_CAS_NAME>
2-[(dimethylamino)methyl]-2-methyl-5-phenyl-3H-pyran-4-one;hydrochloride

> <PUBCHEM_IUPAC_NAME_MARKUP>
2-[(dimethylamino)methyl]-2-methyl-5-phenyl-3<I>H</I>-pyran-4-one;hydrochloride

> <PUBCHEM_IUPAC_NAME>
2-[(dimethylamino)methyl]-2-methyl-5-phenyl-3H-pyran-4-one;hydrochloride

> <PUBCHEM_IUPAC_SYSTEMATIC_NAME>
2-[(dimethylamino)methyl]-2-methyl-5-phenyl-3H-pyran-4-one;hydrochloride

> <PUBCHEM_IUPAC_TRADITIONAL_NAME>
2-[(dimethylamino)methyl]-2-methyl-5-phenyl-3H-pyran-4-one;hydrochloride

> <PUBCHEM_IUPAC_INCHI>
InChI=1S/C15H19NO2.ClH/c1-15(11-16(2)3)9-14(17)13(10-18-15)12-7-5-4-6-8-12;/h4-8,10H,9,11H2,1-3H3;1H

> <PUBCHEM_IUPAC_INCHIKEY>
YUWJJDSEUDGSLI-UHFFFAOYSA-N

> <PUBCHEM_EXACT_MASS>
281.1182566

> <PUBCHEM_MOLECULAR_FORMULA>
C15H20ClNO2

> <PUBCHEM_MOLECULAR_WEIGHT>
281.78

> <PUBCHEM_OPENEYE_CAN_SMILES>
CC1(CC(=O)C(=CO1)C2=CC=CC=C2)CN(C)C.Cl

> <PUBCHEM_OPENEYE_ISO_SMILES>
CC1(CC(=O)C(=CO1)C2=CC=CC=C2)CN(C)C.Cl

> <PUBCHEM_CACTVS_TPSA>
29.5

> <PUBCHEM_MONOISOTOPIC_WEIGHT>
281.1182566

> <PUBCHEM_TOTAL_CHARGE>
0

> <PUBCHEM_HEAVY_ATOM_COUNT>
19

> <PUBCHEM_ATOM_DEF_STEREO_COUNT>
0

> <PUBCHEM_ATOM_UDEF_STEREO_COUNT>
1

> <PUBCHEM_BOND_DEF_STEREO_COUNT>
0

> <PUBCHEM_BOND_UDEF_STEREO_COUNT>
0

> <PUBCHEM_ISOTOPIC_ATOM_COUNT>
0

> <PUBCHEM_COMPONENT_COUNT>
2

> <PUBCHEM_CACTVS_TAUTO_COUNT>
-1

> <PUBCHEM_COORDINATE_TYPE>
1
5
255

> <PUBCHEM_BONDANNOTATIONS>
14  15  8
14  16  8
15  17  8
16  18  8
17  19  8
18  19  8
5  8  3

$$$$
