49782602
  -OEChem-09292322312D

 89 95  0     0  0  0  0  0  0999 V2000
    3.1256   -0.3683    0.0000 O   0  0  0  0  0  0  0  0  0  0  0  0
    9.5090    0.3108    0.0000 O   0  0  0  0  0  0  0  0  0  0  0  0
    5.5974    0.5752    0.0000 N   0  0  0  0  0  0  0  0  0  0  0  0
    4.0653   -0.7104    0.0000 C   0  0  0  0  0  0  0  0  0  0  0  0
    5.0050   -1.0524    0.0000 C   0  0  0  0  0  0  0  0  0  0  0  0
    3.8916    0.2745    0.0000 C   0  0  0  0  0  0  0  0  0  0  0  0
    5.7710   -0.4096    0.0000 C   0  0  0  0  0  0  0  0  0  0  0  0
    4.6577    0.9172    0.0000 C   0  0  0  0  0  0  0  0  0  0  0  0
    3.7232   -1.6500    0.0000 C   0  0  0  0  0  0  0  0  0  0  0  0
    6.3634    1.2180    0.0000 C   0  0  0  0  0  0  0  0  0  0  0  0
    2.8616   -1.1526    0.0000 C   0  0  0  0  0  0  0  0  0  0  0  0
    3.7232   -2.6450    0.0000 C   0  0  0  0  0  0  0  0  0  0  0  0
    7.3031    0.8760    0.0000 C   0  0  0  0  0  0  0  0  0  0  0  0
    3.7232   -0.6551    0.0000 C   0  0  0  0  0  0  0  0  0  0  0  0
    2.8616   -3.1424    0.0000 C   0  0  0  0  0  0  0  0  0  0  0  0
    2.0000   -1.6500    0.0000 C   0  0  0  0  0  0  0  0  0  0  0  0
    8.0691    1.5188    0.0000 C   0  0  0  0  0  0  0  0  0  0  0  0
    2.0000   -2.6450    0.0000 C   0  0  0  0  0  0  0  0  0  0  0  0
    4.7637   -0.6330    0.0000 C   0  0  0  0  0  0  0  0  0  0  0  0
    3.7232   -3.6399    0.0000 C   0  0  0  0  0  0  0  0  0  0  0  0
    4.7637   -3.6178    0.0000 C   0  0  0  0  0  0  0  0  0  0  0  0
    5.6253   -1.1305    0.0000 C   0  0  0  0  0  0  0  0  0  0  0  0
    9.0088    1.1768    0.0000 C   0  0  0  0  0  0  0  0  0  0  0  0
    5.6253   -3.1203    0.0000 C   0  0  0  0  0  0  0  0  0  0  0  0
    9.6516    1.9428    0.0000 C   0  0  0  0  0  0  0  0  0  0  0  0
    6.4869   -1.6279    0.0000 C   0  0  0  0  0  0  0  0  0  0  0  0
    4.7637   -1.6279    0.0000 C   0  0  0  0  0  0  0  0  0  0  0  0
    6.4869   -2.6228    0.0000 C   0  0  0  0  0  0  0  0  0  0  0  0
    4.7637   -2.6228    0.0000 C   0  0  0  0  0  0  0  0  0  0  0  0
    9.3113    2.8777    0.0000 C   0  0  0  0  0  0  0  0  0  0  0  0
   10.6314    1.7700    0.0000 C   0  0  0  0  0  0  0  0  0  0  0  0
    8.6718    2.1156    0.0000 C   0  0  0  0  0  0  0  0  0  0  0  0
   11.2709    2.5322    0.0000 C   0  0  0  0  0  0  0  0  0  0  0  0
    9.9509    3.6399    0.0000 C   0  0  0  0  0  0  0  0  0  0  0  0
    8.4694    1.0948    0.0000 C   0  0  0  0  0  0  0  0  0  0  0  0
   11.6112    1.5973    0.0000 C   0  0  0  0  0  0  0  0  0  0  0  0
   10.9307    3.4671    0.0000 C   0  0  0  0  0  0  0  0  0  0  0  0
   11.4088    0.5765    0.0000 C   0  0  0  0  0  0  0  0  0  0  0  0
    8.8097    0.1599    0.0000 C   0  0  0  0  0  0  0  0  0  0  0  0
   10.7693   -0.1856    0.0000 C   0  0  0  0  0  0  0  0  0  0  0  0
    9.4492    0.9220    0.0000 C   0  0  0  0  0  0  0  0  0  0  0  0
    9.1500   -0.7750    0.0000 C   0  0  0  0  0  0  0  0  0  0  0  0
   10.4290    0.7493    0.0000 C   0  0  0  0  0  0  0  0  0  0  0  0
   10.1298   -0.9477    0.0000 C   0  0  0  0  0  0  0  0  0  0  0  0
    4.6950   -1.5893    0.0000 H   0  0  0  0  0  0  0  0  0  0  0  0
    5.4799   -1.4509    0.0000 H   0  0  0  0  0  0  0  0  0  0  0  0
    3.5816    0.8114    0.0000 H   0  0  0  0  0  0  0  0  0  0  0  0
    3.3090    0.0624    0.0000 H   0  0  0  0  0  0  0  0  0  0  0  0
    6.0810   -0.9465    0.0000 H   0  0  0  0  0  0  0  0  0  0  0  0
    6.3536   -0.1975    0.0000 H   0  0  0  0  0  0  0  0  0  0  0  0
    4.9677    1.4542    0.0000 H   0  0  0  0  0  0  0  0  0  0  0  0
    4.1827    1.3158    0.0000 H   0  0  0  0  0  0  0  0  0  0  0  0
    6.6734    1.7550    0.0000 H   0  0  0  0  0  0  0  0  0  0  0  0
    5.8884    1.6165    0.0000 H   0  0  0  0  0  0  0  0  0  0  0  0
    4.2602   -2.9550    0.0000 H   0  0  0  0  0  0  0  0  0  0  0  0
    3.0179    0.2422    0.0000 H   0  0  0  0  0  0  0  0  0  0  0  0
    6.9931    0.3391    0.0000 H   0  0  0  0  0  0  0  0  0  0  0  0
    7.7780    0.4775    0.0000 H   0  0  0  0  0  0  0  0  0  0  0  0
    3.9270   -0.0696    0.0000 H   0  0  0  0  0  0  0  0  0  0  0  0
    3.8901   -1.2523    0.0000 H   0  0  0  0  0  0  0  0  0  0  0  0
    1.4631   -1.3400    0.0000 H   0  0  0  0  0  0  0  0  0  0  0  0
    8.3791    2.0557    0.0000 H   0  0  0  0  0  0  0  0  0  0  0  0
    7.5942    1.9173    0.0000 H   0  0  0  0  0  0  0  0  0  0  0  0
    1.4631   -2.9550    0.0000 H   0  0  0  0  0  0  0  0  0  0  0  0
    5.2358   -0.2311    0.0000 H   0  0  0  0  0  0  0  0  0  0  0  0
    4.6096   -1.2336    0.0000 H   0  0  0  0  0  0  0  0  0  0  0  0
    3.2511   -4.0418    0.0000 H   0  0  0  0  0  0  0  0  0  0  0  0
    3.8774   -3.0393    0.0000 H   0  0  0  0  0  0  0  0  0  0  0  0
    4.5599   -4.2033    0.0000 H   0  0  0  0  0  0  0  0  0  0  0  0
    4.5968   -3.0206    0.0000 H   0  0  0  0  0  0  0  0  0  0  0  0
    7.0238   -1.3179    0.0000 H   0  0  0  0  0  0  0  0  0  0  0  0
    4.2267   -1.3179    0.0000 H   0  0  0  0  0  0  0  0  0  0  0  0
    7.0238   -2.9328    0.0000 H   0  0  0  0  0  0  0  0  0  0  0  0
    4.2267   -2.9328    0.0000 H   0  0  0  0  0  0  0  0  0  0  0  0
   10.8435    1.1874    0.0000 H   0  0  0  0  0  0  0  0  0  0  0  0
    8.3656    2.6547    0.0000 H   0  0  0  0  0  0  0  0  0  0  0  0
    9.2309    1.8476    0.0000 H   0  0  0  0  0  0  0  0  0  0  0  0
    9.7388    4.2225    0.0000 H   0  0  0  0  0  0  0  0  0  0  0  0
    7.9369    1.4124    0.0000 H   0  0  0  0  0  0  0  0  0  0  0  0
    9.0876    1.1423    0.0000 H   0  0  0  0  0  0  0  0  0  0  0  0
   12.1437    1.2797    0.0000 H   0  0  0  0  0  0  0  0  0  0  0  0
   10.9930    1.5498    0.0000 H   0  0  0  0  0  0  0  0  0  0  0  0
   11.3292    3.9421    0.0000 H   0  0  0  0  0  0  0  0  0  0  0  0
   11.7150    0.0374    0.0000 H   0  0  0  0  0  0  0  0  0  0  0  0
   10.8497    0.8445    0.0000 H   0  0  0  0  0  0  0  0  0  0  0  0
    9.2371    1.5046    0.0000 H   0  0  0  0  0  0  0  0  0  0  0  0
    8.7515   -1.2500    0.0000 H   0  0  0  0  0  0  0  0  0  0  0  0
   10.8275    1.2242    0.0000 H   0  0  0  0  0  0  0  0  0  0  0  0
   10.3419   -1.5303    0.0000 H   0  0  0  0  0  0  0  0  0  0  0  0
  1  4  1  0  0  0  0
  1 56  1  0  0  0  0
  2 23  2  0  0  0  0
  3  7  1  0  0  0  0
  3  8  1  0  0  0  0
  3 10  1  0  0  0  0
  4  5  1  0  0  0  0
  4  6  1  0  0  0  0
  4  9  1  0  0  0  0
  5  7  1  0  0  0  0
  5 45  1  0  0  0  0
  5 46  1  0  0  0  0
  6  8  1  0  0  0  0
  6 47  1  0  0  0  0
  6 48  1  0  0  0  0
  7 49  1  0  0  0  0
  7 50  1  0  0  0  0
  8 51  1  0  0  0  0
  8 52  1  0  0  0  0
  9 11  2  0  0  0  0
  9 12  1  0  0  0  0
 10 13  1  0  0  0  0
 10 53  1  0  0  0  0
 10 54  1  0  0  0  0
 11 14  1  0  0  0  0
 11 16  1  0  0  0  0
 12 15  2  0  0  0  0
 12 55  1  0  0  0  0
 13 17  1  0  0  0  0
 13 57  1  0  0  0  0
 13 58  1  0  0  0  0
 14 19  1  0  0  0  0
 14 59  1  0  0  0  0
 14 60  1  0  0  0  0
 15 18  1  0  0  0  0
 15 20  1  0  0  0  0
 16 18  2  0  0  0  0
 16 61  1  0  0  0  0
 17 23  1  0  0  0  0
 17 62  1  0  0  0  0
 17 63  1  0  0  0  0
 18 64  1  0  0  0  0
 19 22  1  0  0  0  0
 19 65  1  0  0  0  0
 19 66  1  0  0  0  0
 20 21  1  0  0  0  0
 20 67  1  0  0  0  0
 20 68  1  0  0  0  0
 21 24  1  0  0  0  0
 21 69  1  0  0  0  0
 21 70  1  0  0  0  0
 22 26  2  0  0  0  0
 22 27  1  0  0  0  0
 23 25  1  0  0  0  0
 24 28  2  0  0  0  0
 24 29  1  0  0  0  0
 25 30  2  0  0  0  0
 25 31  1  0  0  0  0
 26 28  1  0  0  0  0
 26 71  1  0  0  0  0
 27 29  2  0  0  0  0
 27 72  1  0  0  0  0
 28 73  1  0  0  0  0
 29 74  1  0  0  0  0
 30 32  1  0  0  0  0
 30 34  1  0  0  0  0
 31 33  2  0  0  0  0
 31 75  1  0  0  0  0
 32 35  1  0  0  0  0
 32 76  1  0  0  0  0
 32 77  1  0  0  0  0
 33 36  1  0  0  0  0
 33 37  1  0  0  0  0
 34 37  2  0  0  0  0
 34 78  1  0  0  0  0
 35 39  1  0  0  0  0
 35 79  1  0  0  0  0
 35 80  1  0  0  0  0
 36 38  1  0  0  0  0
 36 81  1  0  0  0  0
 36 82  1  0  0  0  0
 37 83  1  0  0  0  0
 38 40  1  0  0  0  0
 38 84  1  0  0  0  0
 38 85  1  0  0  0  0
 39 41  2  0  0  0  0
 39 42  1  0  0  0  0
 40 43  2  0  0  0  0
 40 44  1  0  0  0  0
 41 43  1  0  0  0  0
 41 86  1  0  0  0  0
 42 44  2  0  0  0  0
 42 87  1  0  0  0  0
 43 88  1  0  0  0  0
 44 89  1  0  0  0  0
M  END
> <PUBCHEM_COMPOUND_CID>
49782602

> <PUBCHEM_COMPOUND_CANONICALIZED>
1

> <PUBCHEM_CACTVS_COMPLEXITY>
908

> <PUBCHEM_CACTVS_HBOND_ACCEPTOR>
3

> <PUBCHEM_CACTVS_HBOND_DONOR>
1

> <PUBCHEM_CACTVS_ROTATABLE_BOND>
6

> <PUBCHEM_CACTVS_SUBSKEYS>
AAADcfB+MAAAAAAAAAAAAAAAAAAAAAAAAAA8YMGCAAAAAAABVAAAHgAACAAADETBmAQwAIMAAgCIAqBSAAACAAAkAAAIiAEICMgIJjKAlRCEcQAmwAGImYecyOCOwAACAAAQAACAAAQAACAAAAAAAAAAAA==

> <PUBCHEM_IUPAC_OPENEYE_NAME>
4-[4-hydroxy-4-(5-tricyclo[8.2.2.24,7]hexadeca-1(13),4,6,10(14),11,15-hexaenyl)-1-piperidyl]-1-(5-tricyclo[8.2.2.24,7]hexadeca-1(13),4,6,10(14),11,15-hexaenyl)butan-1-one

> <PUBCHEM_IUPAC_CAS_NAME>
4-[4-hydroxy-4-(5-tricyclo[8.2.2.24,7]hexadeca-1(13),4,6,10(14),11,15-hexaenyl)-1-piperidinyl]-1-(5-tricyclo[8.2.2.24,7]hexadeca-1(13),4,6,10(14),11,15-hexaenyl)-1-butanone

> <PUBCHEM_IUPAC_NAME_MARKUP>
4-[4-hydroxy-4-(5-tricyclo[8.2.2.2<SUP>4,7</SUP>]hexadeca-1(13),4,6,10(14),11,15-hexaenyl)piperidin-1-yl]-1-(5-tricyclo[8.2.2.2<SUP>4,7</SUP>]hexadeca-1(13),4,6,10(14),11,15-hexaenyl)butan-1-one

> <PUBCHEM_IUPAC_NAME>
4-[4-hydroxy-4-(5-tricyclo[8.2.2.24,7]hexadeca-1(13),4,6,10(14),11,15-hexaenyl)piperidin-1-yl]-1-(5-tricyclo[8.2.2.24,7]hexadeca-1(13),4,6,10(14),11,15-hexaenyl)butan-1-one

> <PUBCHEM_IUPAC_SYSTEMATIC_NAME>
4-[4-oxidanyl-4-(5-tricyclo[8.2.2.24,7]hexadeca-1(13),4,6,10(14),11,15-hexaenyl)piperidin-1-yl]-1-(5-tricyclo[8.2.2.24,7]hexadeca-1(13),4,6,10(14),11,15-hexaenyl)butan-1-one

> <PUBCHEM_IUPAC_TRADITIONAL_NAME>
4-[4-hydroxy-4-(5-tricyclo[8.2.2.24,7]hexadeca-1(13),4,6,10(14),11,15-hexaenyl)piperidino]-1-(5-tricyclo[8.2.2.24,7]hexadeca-1(13),4,6,10(14),11,15-hexaenyl)butan-1-one

> <PUBCHEM_IUPAC_INCHI>
InChI=1S/C41H45NO2/c43-40(38-28-34-13-11-30-3-7-32(8-4-30)15-19-36(38)20-17-34)2-1-25-42-26-23-41(44,24-27-42)39-29-35-14-12-31-5-9-33(10-6-31)16-21-37(39)22-18-35/h3-10,17-18,20,22,28-29,44H,1-2,11-16,19,21,23-27H2

> <PUBCHEM_IUPAC_INCHIKEY>
IJSPBXBGZJAXBL-UHFFFAOYSA-N

> <PUBCHEM_XLOGP3_AA>
8.1

> <PUBCHEM_EXACT_MASS>
583.345029678

> <PUBCHEM_MOLECULAR_FORMULA>
C41H45NO2

> <PUBCHEM_MOLECULAR_WEIGHT>
583.8

> <PUBCHEM_OPENEYE_CAN_SMILES>
C1CC2=CC(=C(CCC3=CC=C1C=C3)C=C2)C(=O)CCCN4CCC(CC4)(C5=C6CCC7=CC=C(CCC(=C5)C=C6)C=C7)O

> <PUBCHEM_OPENEYE_ISO_SMILES>
C1CC2=CC(=C(CCC3=CC=C1C=C3)C=C2)C(=O)CCCN4CCC(CC4)(C5=C6CCC7=CC=C(CCC(=C5)C=C6)C=C7)O

> <PUBCHEM_CACTVS_TPSA>
40.5

> <PUBCHEM_MONOISOTOPIC_WEIGHT>
583.345029678

> <PUBCHEM_TOTAL_CHARGE>
0

> <PUBCHEM_HEAVY_ATOM_COUNT>
44

> <PUBCHEM_ATOM_DEF_STEREO_COUNT>
0

> <PUBCHEM_ATOM_UDEF_STEREO_COUNT>
0

> <PUBCHEM_BOND_DEF_STEREO_COUNT>
0

> <PUBCHEM_BOND_UDEF_STEREO_COUNT>
0

> <PUBCHEM_ISOTOPIC_ATOM_COUNT>
0

> <PUBCHEM_COMPONENT_COUNT>
1

> <PUBCHEM_CACTVS_TAUTO_COUNT>
-1

> <PUBCHEM_COORDINATE_TYPE>
1
5
255

> <PUBCHEM_BONDANNOTATIONS>
11  16  8
12  15  8
15  18  8
16  18  8
22  26  8
22  27  8
24  28  8
24  29  8
25  30  8
25  31  8
26  28  8
27  29  8
30  34  8
31  33  8
33  37  8
34  37  8
39  41  8
39  42  8
40  43  8
40  44  8
41  43  8
42  44  8
9  11  8
9  12  8

$$$$
