44436772
  -OEChem-09292322492D

 63 65  0     0  0  0  0  0  0999 V2000
    8.0622    4.0000    0.0000 O   0  0  0  0  0  0  0  0  0  0  0  0
    2.8660   -2.0000    0.0000 O   0  0  0  0  0  0  0  0  0  0  0  0
    6.3301    2.0000    0.0000 N   0  0  0  0  0  0  0  0  0  0  0  0
    6.3301    5.0000    0.0000 N   0  0  0  0  0  0  0  0  0  0  0  0
    4.5981   -2.0000    0.0000 N   0  0  0  0  0  0  0  0  0  0  0  0
    6.3301    4.0000    0.0000 C   0  0  0  0  0  0  0  0  0  0  0  0
    5.4641    3.5000    0.0000 C   0  0  0  0  0  0  0  0  0  0  0  0
    7.1962    3.5000    0.0000 C   0  0  0  0  0  0  0  0  0  0  0  0
    5.4641    2.5000    0.0000 C   0  0  0  0  0  0  0  0  0  0  0  0
    7.1962    2.5000    0.0000 C   0  0  0  0  0  0  0  0  0  0  0  0
    6.3301    1.0000    0.0000 C   0  0  0  0  0  0  0  0  0  0  0  0
    5.4641    0.5000    0.0000 C   0  0  0  0  0  0  0  0  0  0  0  0
    5.4641   -0.5000    0.0000 C   0  0  0  0  0  0  0  0  0  0  0  0
    7.1962    5.5000    0.0000 C   0  0  0  0  0  0  0  0  0  0  0  0
    4.5981   -1.0000    0.0000 C   0  0  0  0  0  0  0  0  0  0  0  0
    8.0622    5.0000    0.0000 C   0  0  0  0  0  0  0  0  0  0  0  0
    7.1962    6.5000    0.0000 C   0  0  0  0  0  0  0  0  0  0  0  0
    8.9282    5.5000    0.0000 C   0  0  0  0  0  0  0  0  0  0  0  0
    8.0622    7.0000    0.0000 C   0  0  0  0  0  0  0  0  0  0  0  0
    8.9282    6.5000    0.0000 C   0  0  0  0  0  0  0  0  0  0  0  0
    3.7320   -2.5000    0.0000 C   0  0  0  0  0  0  0  0  0  0  0  0
    8.9282    3.5000    0.0000 C   0  0  0  0  0  0  0  0  0  0  0  0
    3.7320   -3.5000    0.0000 C   0  0  0  0  0  0  0  0  0  0  0  0
    2.8660   -4.0000    0.0000 C   0  0  0  0  0  0  0  0  0  0  0  0
    2.8660   -5.0000    0.0000 C   0  0  0  0  0  0  0  0  0  0  0  0
    2.0000   -5.5000    0.0000 C   0  0  0  0  0  0  0  0  0  0  0  0
    3.7320   -5.5000    0.0000 C   0  0  0  0  0  0  0  0  0  0  0  0
    2.0000   -6.5000    0.0000 C   0  0  0  0  0  0  0  0  0  0  0  0
    3.7320   -6.5000    0.0000 C   0  0  0  0  0  0  0  0  0  0  0  0
    2.8660   -7.0000    0.0000 C   0  0  0  0  0  0  0  0  0  0  0  0
    6.8671    4.3100    0.0000 H   0  0  0  0  0  0  0  0  0  0  0  0
    5.2520    4.0826    0.0000 H   0  0  0  0  0  0  0  0  0  0  0  0
    4.8535    3.3923    0.0000 H   0  0  0  0  0  0  0  0  0  0  0  0
    7.8067    3.3923    0.0000 H   0  0  0  0  0  0  0  0  0  0  0  0
    7.4082    4.0826    0.0000 H   0  0  0  0  0  0  0  0  0  0  0  0
    4.8535    2.6077    0.0000 H   0  0  0  0  0  0  0  0  0  0  0  0
    5.2520    1.9174    0.0000 H   0  0  0  0  0  0  0  0  0  0  0  0
    7.4082    1.9174    0.0000 H   0  0  0  0  0  0  0  0  0  0  0  0
    7.8067    2.6077    0.0000 H   0  0  0  0  0  0  0  0  0  0  0  0
    6.5422    0.4174    0.0000 H   0  0  0  0  0  0  0  0  0  0  0  0
    6.9407    1.1077    0.0000 H   0  0  0  0  0  0  0  0  0  0  0  0
    5.7932    5.3100    0.0000 H   0  0  0  0  0  0  0  0  0  0  0  0
    5.2520    1.0826    0.0000 H   0  0  0  0  0  0  0  0  0  0  0  0
    4.8535    0.3923    0.0000 H   0  0  0  0  0  0  0  0  0  0  0  0
    5.6762   -1.0826    0.0000 H   0  0  0  0  0  0  0  0  0  0  0  0
    6.0747   -0.3923    0.0000 H   0  0  0  0  0  0  0  0  0  0  0  0
    4.3860   -0.4174    0.0000 H   0  0  0  0  0  0  0  0  0  0  0  0
    3.9875   -1.1077    0.0000 H   0  0  0  0  0  0  0  0  0  0  0  0
    6.6592    6.8100    0.0000 H   0  0  0  0  0  0  0  0  0  0  0  0
    5.1350   -2.3100    0.0000 H   0  0  0  0  0  0  0  0  0  0  0  0
    9.4651    5.1900    0.0000 H   0  0  0  0  0  0  0  0  0  0  0  0
    8.0622    7.6200    0.0000 H   0  0  0  0  0  0  0  0  0  0  0  0
    9.4651    6.8100    0.0000 H   0  0  0  0  0  0  0  0  0  0  0  0
    8.6182    2.9631    0.0000 H   0  0  0  0  0  0  0  0  0  0  0  0
    9.4651    3.1900    0.0000 H   0  0  0  0  0  0  0  0  0  0  0  0
    9.2382    4.0369    0.0000 H   0  0  0  0  0  0  0  0  0  0  0  0
    4.2690   -3.8100    0.0000 H   0  0  0  0  0  0  0  0  0  0  0  0
    2.3291   -3.6900    0.0000 H   0  0  0  0  0  0  0  0  0  0  0  0
    1.4631   -5.1900    0.0000 H   0  0  0  0  0  0  0  0  0  0  0  0
    4.2690   -5.1900    0.0000 H   0  0  0  0  0  0  0  0  0  0  0  0
    1.4631   -6.8100    0.0000 H   0  0  0  0  0  0  0  0  0  0  0  0
    4.2690   -6.8100    0.0000 H   0  0  0  0  0  0  0  0  0  0  0  0
    2.8660   -7.6200    0.0000 H   0  0  0  0  0  0  0  0  0  0  0  0
  1 16  1  0  0  0  0
  1 22  1  0  0  0  0
  2 21  2  0  0  0  0
  3  9  1  0  0  0  0
  3 10  1  0  0  0  0
  3 11  1  0  0  0  0
  4  6  1  0  0  0  0
  4 14  1  0  0  0  0
  4 42  1  0  0  0  0
  5 15  1  0  0  0  0
  5 21  1  0  0  0  0
  5 50  1  0  0  0  0
  6  7  1  0  0  0  0
  6  8  1  0  0  0  0
  6 31  1  0  0  0  0
  7  9  1  0  0  0  0
  7 32  1  0  0  0  0
  7 33  1  0  0  0  0
  8 10  1  0  0  0  0
  8 34  1  0  0  0  0
  8 35  1  0  0  0  0
  9 36  1  0  0  0  0
  9 37  1  0  0  0  0
 10 38  1  0  0  0  0
 10 39  1  0  0  0  0
 11 12  1  0  0  0  0
 11 40  1  0  0  0  0
 11 41  1  0  0  0  0
 12 13  1  0  0  0  0
 12 43  1  0  0  0  0
 12 44  1  0  0  0  0
 13 15  1  0  0  0  0
 13 45  1  0  0  0  0
 13 46  1  0  0  0  0
 14 16  1  0  0  0  0
 14 17  2  0  0  0  0
 15 47  1  0  0  0  0
 15 48  1  0  0  0  0
 16 18  2  0  0  0  0
 17 19  1  0  0  0  0
 17 49  1  0  0  0  0
 18 20  1  0  0  0  0
 18 51  1  0  0  0  0
 19 20  2  0  0  0  0
 19 52  1  0  0  0  0
 20 53  1  0  0  0  0
 21 23  1  0  0  0  0
 22 54  1  0  0  0  0
 22 55  1  0  0  0  0
 22 56  1  0  0  0  0
 23 24  2  0  0  0  0
 23 57  1  0  0  0  0
 24 25  1  0  0  0  0
 24 58  1  0  0  0  0
 25 26  2  0  0  0  0
 25 27  1  0  0  0  0
 26 28  1  0  0  0  0
 26 59  1  0  0  0  0
 27 29  2  0  0  0  0
 27 60  1  0  0  0  0
 28 30  2  0  0  0  0
 28 61  1  0  0  0  0
 29 30  1  0  0  0  0
 29 62  1  0  0  0  0
 30 63  1  0  0  0  0
M  END
> <PUBCHEM_COMPOUND_CID>
44436772

> <PUBCHEM_COMPOUND_CANONICALIZED>
1

> <PUBCHEM_CACTVS_COMPLEXITY>
511

> <PUBCHEM_CACTVS_HBOND_ACCEPTOR>
4

> <PUBCHEM_CACTVS_HBOND_DONOR>
2

> <PUBCHEM_CACTVS_ROTATABLE_BOND>
10

> <PUBCHEM_CACTVS_SUBSKEYS>
AAADcfB7MAAAAAAAAAAAAAAAAAAAAAAAAAA8YIAAAAAAAAABQAAAHgAQAAAADCzBmAYyxoPABACIAiVSUACCCAAhIgAIiIAPbMgOJiLE8ZuFMChk1hHY6YeQwAAOAAAAAAAAEAAAAAAAAAAgAAAAAAAAAA==

> <PUBCHEM_IUPAC_OPENEYE_NAME>
(E)-N-[4-[4-(2-methoxyanilino)-1-piperidyl]butyl]-3-phenyl-prop-2-enamide

> <PUBCHEM_IUPAC_CAS_NAME>
(E)-N-[4-[4-(2-methoxyanilino)-1-piperidinyl]butyl]-3-phenyl-2-propenamide

> <PUBCHEM_IUPAC_NAME_MARKUP>
(<I>E</I>)-<I>N</I>-[4-[4-(2-methoxyanilino)piperidin-1-yl]butyl]-3-phenylprop-2-enamide

> <PUBCHEM_IUPAC_NAME>
(E)-N-[4-[4-(2-methoxyanilino)piperidin-1-yl]butyl]-3-phenylprop-2-enamide

> <PUBCHEM_IUPAC_SYSTEMATIC_NAME>
(E)-N-[4-[4-[(2-methoxyphenyl)amino]piperidin-1-yl]butyl]-3-phenyl-prop-2-enamide

> <PUBCHEM_IUPAC_TRADITIONAL_NAME>
(E)-N-[4-[4-(o-anisidino)piperidino]butyl]-3-phenyl-acrylamide

> <PUBCHEM_IUPAC_INCHI>
InChI=1S/C25H33N3O2/c1-30-24-12-6-5-11-23(24)27-22-15-19-28(20-16-22)18-8-7-17-26-25(29)14-13-21-9-3-2-4-10-21/h2-6,9-14,22,27H,7-8,15-20H2,1H3,(H,26,29)/b14-13+

> <PUBCHEM_IUPAC_INCHIKEY>
JAWKNWQXUPQJQD-BUHFOSPRSA-N

> <PUBCHEM_XLOGP3_AA>
4.6

> <PUBCHEM_EXACT_MASS>
407.25727730

> <PUBCHEM_MOLECULAR_FORMULA>
C25H33N3O2

> <PUBCHEM_MOLECULAR_WEIGHT>
407.5

> <PUBCHEM_OPENEYE_CAN_SMILES>
COC1=CC=CC=C1NC2CCN(CC2)CCCCNC(=O)C=CC3=CC=CC=C3

> <PUBCHEM_OPENEYE_ISO_SMILES>
COC1=CC=CC=C1NC2CCN(CC2)CCCCNC(=O)/C=C/C3=CC=CC=C3

> <PUBCHEM_CACTVS_TPSA>
53.6

> <PUBCHEM_MONOISOTOPIC_WEIGHT>
407.25727730

> <PUBCHEM_TOTAL_CHARGE>
0

> <PUBCHEM_HEAVY_ATOM_COUNT>
30

> <PUBCHEM_ATOM_DEF_STEREO_COUNT>
0

> <PUBCHEM_ATOM_UDEF_STEREO_COUNT>
0

> <PUBCHEM_BOND_DEF_STEREO_COUNT>
1

> <PUBCHEM_BOND_UDEF_STEREO_COUNT>
0

> <PUBCHEM_ISOTOPIC_ATOM_COUNT>
0

> <PUBCHEM_COMPONENT_COUNT>
1

> <PUBCHEM_CACTVS_TAUTO_COUNT>
-1

> <PUBCHEM_COORDINATE_TYPE>
1
5
255

> <PUBCHEM_BONDANNOTATIONS>
14  16  8
14  17  8
16  18  8
17  19  8
18  20  8
19  20  8
25  26  8
25  27  8
26  28  8
27  29  8
28  30  8
29  30  8

$$$$
