90467322
  -OEChem-09292322002D

 67 71  0     0  0  0  0  0  0999 V2000
   16.9507   -1.0304    0.0000 O   0  0  0  0  0  0  0  0  0  0  0  0
    8.0321    2.3546    0.0000 O   0  0  0  0  0  0  0  0  0  0  0  0
    8.3987    0.6618    0.0000 O   0  0  0  0  0  0  0  0  0  0  0  0
   13.6520    0.0274    0.0000 N   0  0  0  0  0  0  0  0  0  0  0  0
   14.9960   -1.4538    0.0000 N   0  0  0  0  0  0  0  0  0  0  0  0
    9.6814    1.8257    0.0000 N   0  0  0  0  0  0  0  0  0  0  0  0
    4.5274    3.2671    0.0000 N   0  0  0  0  0  0  0  0  0  0  0  0
   14.6294    0.2391    0.0000 C   0  0  0  0  0  0  0  0  0  0  0  0
   13.3467   -0.9249    0.0000 C   0  0  0  0  0  0  0  0  0  0  0  0
   15.3014   -0.5015    0.0000 C   0  0  0  0  0  0  0  0  0  0  0  0
   14.0187   -1.6654    0.0000 C   0  0  0  0  0  0  0  0  0  0  0  0
   12.9800    0.7679    0.0000 C   0  0  0  0  0  0  0  0  0  0  0  0
   12.0027    0.5562    0.0000 C   0  0  0  0  0  0  0  0  0  0  0  0
   15.6680   -2.1943    0.0000 C   0  0  0  0  0  0  0  0  0  0  0  0
   11.3307    1.2968    0.0000 C   0  0  0  0  0  0  0  0  0  0  0  0
   10.3534    1.0851    0.0000 C   0  0  0  0  0  0  0  0  0  0  0  0
   16.6453   -1.9826    0.0000 C   0  0  0  0  0  0  0  0  0  0  0  0
   15.3627   -3.1466    0.0000 C   0  0  0  0  0  0  0  0  0  0  0  0
   17.3173   -2.7232    0.0000 C   0  0  0  0  0  0  0  0  0  0  0  0
   16.0346   -3.8871    0.0000 C   0  0  0  0  0  0  0  0  0  0  0  0
   17.0120   -3.6754    0.0000 C   0  0  0  0  0  0  0  0  0  0  0  0
    5.0274    1.7283    0.0000 C   0  0  0  0  0  0  0  0  0  0  0  0
    5.3364    2.6793    0.0000 C   0  0  0  0  0  0  0  0  0  0  0  0
    4.0274    1.7283    0.0000 C   0  0  0  0  0  0  0  0  0  0  0  0
    3.7183    2.6793    0.0000 C   0  0  0  0  0  0  0  0  0  0  0  0
    8.7040    1.6140    0.0000 C   0  0  0  0  0  0  0  0  0  0  0  0
    6.3518    2.9116    0.0000 C   0  0  0  0  0  0  0  0  0  0  0  0
    7.0547    2.1429    0.0000 C   0  0  0  0  0  0  0  0  0  0  0  0
    5.7123    0.9435    0.0000 C   0  0  0  0  0  0  0  0  0  0  0  0
   17.9280   -0.8187    0.0000 C   0  0  0  0  0  0  0  0  0  0  0  0
    3.3424    0.9435    0.0000 C   0  0  0  0  0  0  0  0  0  0  0  0
    6.7328    1.1522    0.0000 C   0  0  0  0  0  0  0  0  0  0  0  0
    2.7029    2.9116    0.0000 C   0  0  0  0  0  0  0  0  0  0  0  0
    2.3219    1.1522    0.0000 C   0  0  0  0  0  0  0  0  0  0  0  0
    2.0000    2.1429    0.0000 C   0  0  0  0  0  0  0  0  0  0  0  0
   15.1539    0.5696    0.0000 H   0  0  0  0  0  0  0  0  0  0  0  0
   14.3949    0.8130    0.0000 H   0  0  0  0  0  0  0  0  0  0  0  0
   12.7981   -0.6359    0.0000 H   0  0  0  0  0  0  0  0  0  0  0  0
   12.9669   -1.4149    0.0000 H   0  0  0  0  0  0  0  0  0  0  0  0
   15.8499   -0.7905    0.0000 H   0  0  0  0  0  0  0  0  0  0  0  0
   15.6812   -0.0115    0.0000 H   0  0  0  0  0  0  0  0  0  0  0  0
   13.4942   -1.9960    0.0000 H   0  0  0  0  0  0  0  0  0  0  0  0
   14.2531   -2.2394    0.0000 H   0  0  0  0  0  0  0  0  0  0  0  0
   13.5046    1.0985    0.0000 H   0  0  0  0  0  0  0  0  0  0  0  0
   12.7456    1.3419    0.0000 H   0  0  0  0  0  0  0  0  0  0  0  0
   11.4782    0.2257    0.0000 H   0  0  0  0  0  0  0  0  0  0  0  0
   12.2372   -0.0177    0.0000 H   0  0  0  0  0  0  0  0  0  0  0  0
   11.8552    1.6274    0.0000 H   0  0  0  0  0  0  0  0  0  0  0  0
   11.0962    1.8708    0.0000 H   0  0  0  0  0  0  0  0  0  0  0  0
    9.8289    0.7546    0.0000 H   0  0  0  0  0  0  0  0  0  0  0  0
   10.5878    0.5112    0.0000 H   0  0  0  0  0  0  0  0  0  0  0  0
   14.7567   -3.2778    0.0000 H   0  0  0  0  0  0  0  0  0  0  0  0
   17.9233   -2.5920    0.0000 H   0  0  0  0  0  0  0  0  0  0  0  0
   15.8453   -4.4775    0.0000 H   0  0  0  0  0  0  0  0  0  0  0  0
    9.8707    2.4161    0.0000 H   0  0  0  0  0  0  0  0  0  0  0  0
   17.4286   -4.1346    0.0000 H   0  0  0  0  0  0  0  0  0  0  0  0
    4.5274    3.8871    0.0000 H   0  0  0  0  0  0  0  0  0  0  0  0
    6.5365    3.5034    0.0000 H   0  0  0  0  0  0  0  0  0  0  0  0
    5.5139    0.3561    0.0000 H   0  0  0  0  0  0  0  0  0  0  0  0
   18.0593   -1.4247    0.0000 H   0  0  0  0  0  0  0  0  0  0  0  0
   18.5340   -0.6875    0.0000 H   0  0  0  0  0  0  0  0  0  0  0  0
   17.7968   -0.2128    0.0000 H   0  0  0  0  0  0  0  0  0  0  0  0
    3.5408    0.3561    0.0000 H   0  0  0  0  0  0  0  0  0  0  0  0
    7.1459    0.6899    0.0000 H   0  0  0  0  0  0  0  0  0  0  0  0
    2.5182    3.5034    0.0000 H   0  0  0  0  0  0  0  0  0  0  0  0
    1.9088    0.6899    0.0000 H   0  0  0  0  0  0  0  0  0  0  0  0
    1.3940    2.2741    0.0000 H   0  0  0  0  0  0  0  0  0  0  0  0
  1 17  1  0  0  0  0
  1 30  1  0  0  0  0
  2 26  1  0  0  0  0
  2 28  1  0  0  0  0
  3 26  2  0  0  0  0
  4  8  1  0  0  0  0
  4  9  1  0  0  0  0
  4 12  1  0  0  0  0
  5 10  1  0  0  0  0
  5 11  1  0  0  0  0
  5 14  1  0  0  0  0
  6 16  1  0  0  0  0
  6 26  1  0  0  0  0
  6 55  1  0  0  0  0
  7 23  1  0  0  0  0
  7 25  1  0  0  0  0
  7 57  1  0  0  0  0
  8 10  1  0  0  0  0
  8 36  1  0  0  0  0
  8 37  1  0  0  0  0
  9 11  1  0  0  0  0
  9 38  1  0  0  0  0
  9 39  1  0  0  0  0
 10 40  1  0  0  0  0
 10 41  1  0  0  0  0
 11 42  1  0  0  0  0
 11 43  1  0  0  0  0
 12 13  1  0  0  0  0
 12 44  1  0  0  0  0
 12 45  1  0  0  0  0
 13 15  1  0  0  0  0
 13 46  1  0  0  0  0
 13 47  1  0  0  0  0
 14 17  1  0  0  0  0
 14 18  2  0  0  0  0
 15 16  1  0  0  0  0
 15 48  1  0  0  0  0
 15 49  1  0  0  0  0
 16 50  1  0  0  0  0
 16 51  1  0  0  0  0
 17 19  2  0  0  0  0
 18 20  1  0  0  0  0
 18 52  1  0  0  0  0
 19 21  1  0  0  0  0
 19 53  1  0  0  0  0
 20 21  2  0  0  0  0
 20 54  1  0  0  0  0
 21 56  1  0  0  0  0
 22 23  2  0  0  0  0
 22 24  1  0  0  0  0
 22 29  1  0  0  0  0
 23 27  1  0  0  0  0
 24 25  1  0  0  0  0
 24 31  2  0  0  0  0
 25 33  2  0  0  0  0
 27 28  2  0  0  0  0
 27 58  1  0  0  0  0
 28 32  1  0  0  0  0
 29 32  2  0  0  0  0
 29 59  1  0  0  0  0
 30 60  1  0  0  0  0
 30 61  1  0  0  0  0
 30 62  1  0  0  0  0
 31 34  1  0  0  0  0
 31 63  1  0  0  0  0
 32 64  1  0  0  0  0
 33 35  1  0  0  0  0
 33 65  1  0  0  0  0
 34 35  2  0  0  0  0
 34 66  1  0  0  0  0
 35 67  1  0  0  0  0
M  END
> <PUBCHEM_COMPOUND_CID>
90467322

> <PUBCHEM_COMPOUND_CANONICALIZED>
1

> <PUBCHEM_CACTVS_COMPLEXITY>
671

> <PUBCHEM_CACTVS_HBOND_ACCEPTOR>
5

> <PUBCHEM_CACTVS_HBOND_DONOR>
2

> <PUBCHEM_CACTVS_ROTATABLE_BOND>
9

> <PUBCHEM_CACTVS_SUBSKEYS>
AAADcfB7sAAAAAAAAAAAAAAAAAAAAWAAAAA8YMEAAAAAAFgB/AAAHgAQAAAADAzBngYyzvPJlACoAyRiXACCiCAhIiAImaA/bJkOZuLEsZudMihm1hnY6AeQ0PMOoAAAAgACEABAAAAEAAQgAAAAAAAAAA==

> <PUBCHEM_IUPAC_OPENEYE_NAME>
9H-carbazol-2-yl N-[4-[4-(2-methoxyphenyl)piperazin-1-yl]butyl]carbamate

> <PUBCHEM_IUPAC_CAS_NAME>
N-[4-[4-(2-methoxyphenyl)-1-piperazinyl]butyl]carbamic acid 9H-carbazol-2-yl ester

> <PUBCHEM_IUPAC_NAME_MARKUP>
9<I>H</I>-carbazol-2-yl <I>N</I>-[4-[4-(2-methoxyphenyl)piperazin-1-yl]butyl]carbamate

> <PUBCHEM_IUPAC_NAME>
9H-carbazol-2-yl N-[4-[4-(2-methoxyphenyl)piperazin-1-yl]butyl]carbamate

> <PUBCHEM_IUPAC_SYSTEMATIC_NAME>
9H-carbazol-2-yl N-[4-[4-(2-methoxyphenyl)piperazin-1-yl]butyl]carbamate

> <PUBCHEM_IUPAC_TRADITIONAL_NAME>
N-[4-[4-(2-methoxyphenyl)piperazino]butyl]carbamic acid 9H-carbazol-2-yl ester

> <PUBCHEM_IUPAC_INCHI>
InChI=1S/C28H32N4O3/c1-34-27-11-5-4-10-26(27)32-18-16-31(17-19-32)15-7-6-14-29-28(33)35-21-12-13-23-22-8-2-3-9-24(22)30-25(23)20-21/h2-5,8-13,20,30H,6-7,14-19H2,1H3,(H,29,33)

> <PUBCHEM_IUPAC_INCHIKEY>
VCYGJFJKSCACCN-UHFFFAOYSA-N

> <PUBCHEM_XLOGP3_AA>
5.3

> <PUBCHEM_EXACT_MASS>
472.24744090

> <PUBCHEM_MOLECULAR_FORMULA>
C28H32N4O3

> <PUBCHEM_MOLECULAR_WEIGHT>
472.6

> <PUBCHEM_OPENEYE_CAN_SMILES>
COC1=CC=CC=C1N2CCN(CC2)CCCCNC(=O)OC3=CC4=C(C=C3)C5=CC=CC=C5N4

> <PUBCHEM_OPENEYE_ISO_SMILES>
COC1=CC=CC=C1N2CCN(CC2)CCCCNC(=O)OC3=CC4=C(C=C3)C5=CC=CC=C5N4

> <PUBCHEM_CACTVS_TPSA>
69.8

> <PUBCHEM_MONOISOTOPIC_WEIGHT>
472.24744090

> <PUBCHEM_TOTAL_CHARGE>
0

> <PUBCHEM_HEAVY_ATOM_COUNT>
35

> <PUBCHEM_ATOM_DEF_STEREO_COUNT>
0

> <PUBCHEM_ATOM_UDEF_STEREO_COUNT>
0

> <PUBCHEM_BOND_DEF_STEREO_COUNT>
0

> <PUBCHEM_BOND_UDEF_STEREO_COUNT>
0

> <PUBCHEM_ISOTOPIC_ATOM_COUNT>
0

> <PUBCHEM_COMPONENT_COUNT>
1

> <PUBCHEM_CACTVS_TAUTO_COUNT>
-1

> <PUBCHEM_COORDINATE_TYPE>
1
5
255

> <PUBCHEM_BONDANNOTATIONS>
14  17  8
14  18  8
17  19  8
18  20  8
19  21  8
20  21  8
22  23  8
22  24  8
22  29  8
23  27  8
24  25  8
24  31  8
25  33  8
27  28  8
28  32  8
29  32  8
31  34  8
33  35  8
34  35  8
7  23  8
7  25  8

$$$$
