10409174
  -OEChem-09292322192D

 55 59  0     1  0  0  0  0  0999 V2000
    2.0000    0.6054    0.0000 F   0  0  0  0  0  0  0  0  0  0  0  0
    4.7684   -1.6163    0.0000 O   0  0  0  0  0  0  0  0  0  0  0  0
   11.0395   -1.4184    0.0000 O   0  0  0  0  0  0  0  0  0  0  0  0
   14.5696    1.6058    0.0000 O   0  0  0  0  0  0  0  0  0  0  0  0
    8.4414    1.0816    0.0000 N   0  0  0  0  0  0  0  0  0  0  0  0
    5.7402   -1.4071    0.0000 N   0  0  0  0  0  0  0  0  0  0  0  0
    6.7093    0.0816    0.0000 C   0  0  0  0  0  0  0  0  0  0  0  0
   10.1734    1.0816    0.0000 C   0  0  3  0  0  0  0  0  0  0  0  0
    9.3074    1.5816    0.0000 C   0  0  0  0  0  0  0  0  0  0  0  0
    6.7093    1.0816    0.0000 C   0  0  0  0  0  0  0  0  0  0  0  0
    7.5754   -0.4184    0.0000 C   0  0  0  0  0  0  0  0  0  0  0  0
    7.5754    1.5816    0.0000 C   0  0  0  0  0  0  0  0  0  0  0  0
    8.4414    0.0816    0.0000 C   0  0  0  0  0  0  0  0  0  0  0  0
   11.0395    1.5816    0.0000 C   0  0  0  0  0  0  0  0  0  0  0  0
   10.1734    0.0816    0.0000 C   0  0  0  0  0  0  0  0  0  0  0  0
    5.8433   -0.4184    0.0000 C   0  0  0  0  0  0  0  0  0  0  0  0
   11.9055    1.0816    0.0000 C   0  0  0  0  0  0  0  0  0  0  0  0
   11.0395   -0.4184    0.0000 C   0  0  0  0  0  0  0  0  0  0  0  0
   11.9055    0.0816    0.0000 C   0  0  0  0  0  0  0  0  0  0  0  0
    4.9355   -0.0133    0.0000 C   0  0  0  0  0  0  0  0  0  0  0  0
   12.7994    1.6163    0.0000 C   0  0  0  0  0  0  0  0  0  0  0  0
   12.7994   -0.4530    0.0000 C   0  0  0  0  0  0  0  0  0  0  0  0
    4.2677   -0.7576    0.0000 C   0  0  0  0  0  0  0  0  0  0  0  0
   13.7055    1.1024    0.0000 C   0  0  0  0  0  0  0  0  0  0  0  0
    4.6249    0.9373    0.0000 C   0  0  0  0  0  0  0  0  0  0  0  0
   13.7055    0.0608    0.0000 C   0  0  0  0  0  0  0  0  0  0  0  0
    3.2892   -0.5513    0.0000 C   0  0  0  0  0  0  0  0  0  0  0  0
    3.6464    1.1435    0.0000 C   0  0  0  0  0  0  0  0  0  0  0  0
    2.9785    0.3992    0.0000 C   0  0  0  0  0  0  0  0  0  0  0  0
   15.4375    1.1091    0.0000 C   0  0  0  0  0  0  0  0  0  0  0  0
    6.7093   -0.5384    0.0000 H   0  0  0  0  0  0  0  0  0  0  0  0
   10.1734    1.7016    0.0000 H   0  0  0  0  0  0  0  0  0  0  0  0
    9.7059    2.0566    0.0000 H   0  0  0  0  0  0  0  0  0  0  0  0
    8.9089    2.0566    0.0000 H   0  0  0  0  0  0  0  0  0  0  0  0
    6.4973    1.6642    0.0000 H   0  0  0  0  0  0  0  0  0  0  0  0
    6.0988    0.9740    0.0000 H   0  0  0  0  0  0  0  0  0  0  0  0
    7.1768   -0.8933    0.0000 H   0  0  0  0  0  0  0  0  0  0  0  0
    7.9739   -0.8933    0.0000 H   0  0  0  0  0  0  0  0  0  0  0  0
    7.9739    2.0566    0.0000 H   0  0  0  0  0  0  0  0  0  0  0  0
    7.1768    2.0566    0.0000 H   0  0  0  0  0  0  0  0  0  0  0  0
    8.6534   -0.5010    0.0000 H   0  0  0  0  0  0  0  0  0  0  0  0
    9.0520    0.1893    0.0000 H   0  0  0  0  0  0  0  0  0  0  0  0
   11.4380    2.0566    0.0000 H   0  0  0  0  0  0  0  0  0  0  0  0
   10.6409    2.0566    0.0000 H   0  0  0  0  0  0  0  0  0  0  0  0
    9.5628    0.1893    0.0000 H   0  0  0  0  0  0  0  0  0  0  0  0
    9.9614   -0.5010    0.0000 H   0  0  0  0  0  0  0  0  0  0  0  0
   12.7923    2.2362    0.0000 H   0  0  0  0  0  0  0  0  0  0  0  0
   12.7923   -1.0730    0.0000 H   0  0  0  0  0  0  0  0  0  0  0  0
    5.0389    1.3987    0.0000 H   0  0  0  0  0  0  0  0  0  0  0  0
   14.2412   -0.2512    0.0000 H   0  0  0  0  0  0  0  0  0  0  0  0
    2.8751   -1.0128    0.0000 H   0  0  0  0  0  0  0  0  0  0  0  0
    3.4537    1.7328    0.0000 H   0  0  0  0  0  0  0  0  0  0  0  0
   15.1296    0.5710    0.0000 H   0  0  0  0  0  0  0  0  0  0  0  0
   15.9757    0.8012    0.0000 H   0  0  0  0  0  0  0  0  0  0  0  0
   15.7455    1.6472    0.0000 H   0  0  0  0  0  0  0  0  0  0  0  0
  1 29  1  0  0  0  0
  2  6  1  0  0  0  0
  2 23  1  0  0  0  0
  3 18  2  0  0  0  0
  4 24  1  0  0  0  0
  4 30  1  0  0  0  0
  5  9  1  0  0  0  0
  5 12  1  0  0  0  0
  5 13  1  0  0  0  0
  6 16  2  0  0  0  0
  7 10  1  0  0  0  0
  7 11  1  0  0  0  0
  7 16  1  0  0  0  0
  7 31  1  0  0  0  0
  8  9  1  0  0  0  0
  8 14  1  0  0  0  0
  8 15  1  0  0  0  0
  8 32  1  0  0  0  0
  9 33  1  0  0  0  0
  9 34  1  0  0  0  0
 10 12  1  0  0  0  0
 10 35  1  0  0  0  0
 10 36  1  0  0  0  0
 11 13  1  0  0  0  0
 11 37  1  0  0  0  0
 11 38  1  0  0  0  0
 12 39  1  0  0  0  0
 12 40  1  0  0  0  0
 13 41  1  0  0  0  0
 13 42  1  0  0  0  0
 14 17  1  0  0  0  0
 14 43  1  0  0  0  0
 14 44  1  0  0  0  0
 15 18  1  0  0  0  0
 15 45  1  0  0  0  0
 15 46  1  0  0  0  0
 16 20  1  0  0  0  0
 17 19  2  0  0  0  0
 17 21  1  0  0  0  0
 18 19  1  0  0  0  0
 19 22  1  0  0  0  0
 20 23  2  0  0  0  0
 20 25  1  0  0  0  0
 21 24  2  0  0  0  0
 21 47  1  0  0  0  0
 22 26  2  0  0  0  0
 22 48  1  0  0  0  0
 23 27  1  0  0  0  0
 24 26  1  0  0  0  0
 25 28  2  0  0  0  0
 25 49  1  0  0  0  0
 26 50  1  0  0  0  0
 27 29  2  0  0  0  0
 27 51  1  0  0  0  0
 28 29  1  0  0  0  0
 28 52  1  0  0  0  0
 30 53  1  0  0  0  0
 30 54  1  0  0  0  0
 30 55  1  0  0  0  0
M  END
> <PUBCHEM_COMPOUND_CID>
10409174

> <PUBCHEM_COMPOUND_CANONICALIZED>
1

> <PUBCHEM_CACTVS_COMPLEXITY>
611

> <PUBCHEM_CACTVS_HBOND_ACCEPTOR>
6

> <PUBCHEM_CACTVS_HBOND_DONOR>
0

> <PUBCHEM_CACTVS_ROTATABLE_BOND>
4

> <PUBCHEM_CACTVS_SUBSKEYS>
AAADceB7MQAAAAAAAAAAAAAAAAAAAWAAAAA8YMEAAAAAAFjB9AAAHwAEAAAADQzBng4yhtMQBACpA6RyQgCCCAAkIAAomCE+TNoMJrqEtZuEMaBmwBmI6ceczPDOoAABAAAYAADAAAYAADAAAAAAAAAAAA==

> <PUBCHEM_IUPAC_OPENEYE_NAME>
3-[[4-(6-fluoro-1,2-benzoxazol-3-yl)-1-piperidyl]methyl]-6-methoxy-tetralin-1-one

> <PUBCHEM_IUPAC_CAS_NAME>
3-[[4-(6-fluoro-1,2-benzoxazol-3-yl)-1-piperidinyl]methyl]-6-methoxy-3,4-dihydro-2H-naphthalen-1-one

> <PUBCHEM_IUPAC_NAME_MARKUP>
3-[[4-(6-fluoro-1,2-benzoxazol-3-yl)piperidin-1-yl]methyl]-6-methoxy-3,4-dihydro-2<I>H</I>-naphthalen-1-one

> <PUBCHEM_IUPAC_NAME>
3-[[4-(6-fluoro-1,2-benzoxazol-3-yl)piperidin-1-yl]methyl]-6-methoxy-3,4-dihydro-2H-naphthalen-1-one

> <PUBCHEM_IUPAC_SYSTEMATIC_NAME>
3-[[4-(6-fluoranyl-1,2-benzoxazol-3-yl)piperidin-1-yl]methyl]-6-methoxy-3,4-dihydro-2H-naphthalen-1-one

> <PUBCHEM_IUPAC_TRADITIONAL_NAME>
3-[[4-(6-fluoroindoxazen-3-yl)piperidino]methyl]-6-methoxy-tetralin-1-one

> <PUBCHEM_IUPAC_INCHI>
InChI=1S/C24H25FN2O3/c1-29-19-3-5-20-17(12-19)10-15(11-22(20)28)14-27-8-6-16(7-9-27)24-21-4-2-18(25)13-23(21)30-26-24/h2-5,12-13,15-16H,6-11,14H2,1H3

> <PUBCHEM_IUPAC_INCHIKEY>
OTRBXADIASNSBW-UHFFFAOYSA-N

> <PUBCHEM_XLOGP3_AA>
4.1

> <PUBCHEM_EXACT_MASS>
408.18492083

> <PUBCHEM_MOLECULAR_FORMULA>
C24H25FN2O3

> <PUBCHEM_MOLECULAR_WEIGHT>
408.5

> <PUBCHEM_OPENEYE_CAN_SMILES>
COC1=CC2=C(C=C1)C(=O)CC(C2)CN3CCC(CC3)C4=NOC5=C4C=CC(=C5)F

> <PUBCHEM_OPENEYE_ISO_SMILES>
COC1=CC2=C(C=C1)C(=O)CC(C2)CN3CCC(CC3)C4=NOC5=C4C=CC(=C5)F

> <PUBCHEM_CACTVS_TPSA>
55.6

> <PUBCHEM_MONOISOTOPIC_WEIGHT>
408.18492083

> <PUBCHEM_TOTAL_CHARGE>
0

> <PUBCHEM_HEAVY_ATOM_COUNT>
30

> <PUBCHEM_ATOM_DEF_STEREO_COUNT>
0

> <PUBCHEM_ATOM_UDEF_STEREO_COUNT>
1

> <PUBCHEM_BOND_DEF_STEREO_COUNT>
0

> <PUBCHEM_BOND_UDEF_STEREO_COUNT>
0

> <PUBCHEM_ISOTOPIC_ATOM_COUNT>
0

> <PUBCHEM_COMPONENT_COUNT>
1

> <PUBCHEM_CACTVS_TAUTO_COUNT>
-1

> <PUBCHEM_COORDINATE_TYPE>
1
5
255

> <PUBCHEM_BONDANNOTATIONS>
16  20  8
17  19  8
17  21  8
19  22  8
2  23  8
2  6  8
20  23  8
20  25  8
21  24  8
22  26  8
23  27  8
24  26  8
25  28  8
27  29  8
28  29  8
6  16  8
8  9  3

$$$$
