45271737
  -OEChem-09292322282D

 56 59  0     1  0  0  0  0  0999 V2000
    6.7341   -4.1968    0.0000 Cl  0  0  0  0  0  0  0  0  0  0  0  0
    7.0489   -0.9330    0.0000 O   0  0  0  0  0  0  0  0  0  0  0  0
    6.4338    1.9205    0.0000 N   0  0  3  0  0  0  0  0  0  0  0  0
    8.4338    0.1884    0.0000 N   0  0  0  0  0  0  0  0  0  0  0  0
    8.7702   -1.3943    0.0000 N   0  0  0  0  0  0  0  0  0  0  0  0
    5.2937    3.3952    0.0000 C   0  0  2  0  0  0  0  0  0  0  0  0
    5.0349    2.4293    0.0000 C   0  0  1  0  0  0  0  0  0  0  0  0
    4.5571    4.3778    0.0000 C   0  0  0  0  0  0  0  0  0  0  0  0
    2.9848    2.1228    0.0000 C   0  0  0  0  0  0  0  0  0  0  0  0
    3.2604    3.0841    0.0000 C   0  0  0  0  0  0  0  0  0  0  0  0
    3.8138    1.5636    0.0000 C   0  0  0  0  0  0  0  0  0  0  0  0
    6.6926    2.8864    0.0000 C   0  0  0  0  0  0  0  0  0  0  0  0
    5.5525    4.3611    0.0000 C   0  0  0  0  0  0  0  0  0  0  0  0
    2.0000    2.2965    0.0000 C   0  0  0  0  0  0  0  0  0  0  0  0
    2.3420    1.3568    0.0000 C   0  0  0  0  0  0  0  0  0  0  0  0
    6.9338    1.0544    0.0000 C   0  0  0  0  0  0  0  0  0  0  0  0
    7.9338    1.0544    0.0000 C   0  0  0  0  0  0  0  0  0  0  0  0
    9.4283    0.0839    0.0000 C   0  0  0  0  0  0  0  0  0  0  0  0
    8.0271   -0.7251    0.0000 C   0  0  0  0  0  0  0  0  0  0  0  0
    9.6362   -0.8943    0.0000 C   0  0  0  0  0  0  0  0  0  0  0  0
    8.6657   -2.3888    0.0000 C   0  0  0  0  0  0  0  0  0  0  0  0
    7.7521   -2.7955    0.0000 C   0  0  0  0  0  0  0  0  0  0  0  0
    9.4747   -2.9766    0.0000 C   0  0  0  0  0  0  0  0  0  0  0  0
    7.6476   -3.7900    0.0000 C   0  0  0  0  0  0  0  0  0  0  0  0
    9.3702   -3.9711    0.0000 C   0  0  0  0  0  0  0  0  0  0  0  0
    8.4566   -4.3778    0.0000 C   0  0  0  0  0  0  0  0  0  0  0  0
    4.8149    1.6082    0.0000 H   0  0  0  0  0  0  0  0  0  0  0  0
    4.8749    4.9102    0.0000 H   0  0  0  0  0  0  0  0  0  0  0  0
    3.9439    4.4698    0.0000 H   0  0  0  0  0  0  0  0  0  0  0  0
    3.2554    3.7041    0.0000 H   0  0  0  0  0  0  0  0  0  0  0  0
    2.6461    3.1679    0.0000 H   0  0  0  0  0  0  0  0  0  0  0  0
    3.4080    1.0949    0.0000 H   0  0  0  0  0  0  0  0  0  0  0  0
    4.2305    1.1045    0.0000 H   0  0  0  0  0  0  0  0  0  0  0  0
    7.2866    2.7086    0.0000 H   0  0  0  0  0  0  0  0  0  0  0  0
    6.8876    3.4750    0.0000 H   0  0  0  0  0  0  0  0  0  0  0  0
    6.1514    4.2007    0.0000 H   0  0  0  0  0  0  0  0  0  0  0  0
    5.7130    4.9600    0.0000 H   0  0  0  0  0  0  0  0  0  0  0  0
    4.9536    4.5216    0.0000 H   0  0  0  0  0  0  0  0  0  0  0  0
    6.3512    0.8424    0.0000 H   0  0  0  0  0  0  0  0  0  0  0  0
    7.0415    0.4439    0.0000 H   0  0  0  0  0  0  0  0  0  0  0  0
    2.1077    2.9070    0.0000 H   0  0  0  0  0  0  0  0  0  0  0  0
    1.3894    2.4041    0.0000 H   0  0  0  0  0  0  0  0  0  0  0  0
    1.8923    1.6859    0.0000 H   0  0  0  0  0  0  0  0  0  0  0  0
    1.8671    1.7553    0.0000 H   0  0  0  0  0  0  0  0  0  0  0  0
    1.9435    0.8818    0.0000 H   0  0  0  0  0  0  0  0  0  0  0  0
    2.8170    0.9582    0.0000 H   0  0  0  0  0  0  0  0  0  0  0  0
    8.5164    1.2665    0.0000 H   0  0  0  0  0  0  0  0  0  0  0  0
    7.8262    1.6650    0.0000 H   0  0  0  0  0  0  0  0  0  0  0  0
   10.0449    0.1487    0.0000 H   0  0  0  0  0  0  0  0  0  0  0  0
    9.4283    0.7039    0.0000 H   0  0  0  0  0  0  0  0  0  0  0  0
    9.8884   -1.4607    0.0000 H   0  0  0  0  0  0  0  0  0  0  0  0
   10.2259   -0.7027    0.0000 H   0  0  0  0  0  0  0  0  0  0  0  0
    7.2506   -2.4311    0.0000 H   0  0  0  0  0  0  0  0  0  0  0  0
   10.0411   -2.7244    0.0000 H   0  0  0  0  0  0  0  0  0  0  0  0
    9.8718   -4.3355    0.0000 H   0  0  0  0  0  0  0  0  0  0  0  0
    8.3918   -4.9944    0.0000 H   0  0  0  0  0  0  0  0  0  0  0  0
  1 24  1  0  0  0  0
  2 19  2  0  0  0  0
  3  7  1  0  0  0  0
  3 12  1  0  0  0  0
  3 16  1  0  0  0  0
  4 17  1  0  0  0  0
  4 18  1  0  0  0  0
  4 19  1  0  0  0  0
  5 19  1  0  0  0  0
  5 20  1  0  0  0  0
  5 21  1  0  0  0  0
  6  8  1  0  0  0  0
  6 10  1  0  0  0  0
  6 12  1  0  0  0  0
  6 13  1  6  0  0  0
  7  8  1  0  0  0  0
  7 11  1  0  0  0  0
  7 27  1  1  0  0  0
  8 28  1  0  0  0  0
  8 29  1  0  0  0  0
  9 10  1  0  0  0  0
  9 11  1  0  0  0  0
  9 14  1  0  0  0  0
  9 15  1  0  0  0  0
 10 30  1  0  0  0  0
 10 31  1  0  0  0  0
 11 32  1  0  0  0  0
 11 33  1  0  0  0  0
 12 34  1  0  0  0  0
 12 35  1  0  0  0  0
 13 36  1  0  0  0  0
 13 37  1  0  0  0  0
 13 38  1  0  0  0  0
 14 41  1  0  0  0  0
 14 42  1  0  0  0  0
 14 43  1  0  0  0  0
 15 44  1  0  0  0  0
 15 45  1  0  0  0  0
 15 46  1  0  0  0  0
 16 17  1  0  0  0  0
 16 39  1  0  0  0  0
 16 40  1  0  0  0  0
 17 47  1  0  0  0  0
 17 48  1  0  0  0  0
 18 20  1  0  0  0  0
 18 49  1  0  0  0  0
 18 50  1  0  0  0  0
 20 51  1  0  0  0  0
 20 52  1  0  0  0  0
 21 22  2  0  0  0  0
 21 23  1  0  0  0  0
 22 24  1  0  0  0  0
 22 53  1  0  0  0  0
 23 25  2  0  0  0  0
 23 54  1  0  0  0  0
 24 26  2  0  0  0  0
 25 26  1  0  0  0  0
 25 55  1  0  0  0  0
 26 56  1  0  0  0  0
M  END
> <PUBCHEM_COMPOUND_CID>
45271737

> <PUBCHEM_COMPOUND_CANONICALIZED>
1

> <PUBCHEM_CACTVS_COMPLEXITY>
553

> <PUBCHEM_CACTVS_HBOND_ACCEPTOR>
2

> <PUBCHEM_CACTVS_HBOND_DONOR>
0

> <PUBCHEM_CACTVS_ROTATABLE_BOND>
4

> <PUBCHEM_CACTVS_SUBSKEYS>
AAADceB7IAAEAAAAAAAAAAAAAAAAAWLAAAAwYAAABYAAAAABAAAAHgIAAAAADirBECQzwIMAAACIACRCUACCAAAhBwAIiAAIZoiIYCLBk5GUIAhohgLIyCcQgEAPAAAAAAIAAAAAAASABAAAAAAAAAAAAA==

> <PUBCHEM_IUPAC_OPENEYE_NAME>
1-(3-chlorophenyl)-3-[2-[(1S,5R)-1,3,3-trimethyl-6-azabicyclo[3.2.1]octan-6-yl]ethyl]imidazolidin-2-one

> <PUBCHEM_IUPAC_CAS_NAME>
1-(3-chlorophenyl)-3-[2-[(1S,5R)-1,3,3-trimethyl-6-azabicyclo[3.2.1]octan-6-yl]ethyl]-2-imidazolidinone

> <PUBCHEM_IUPAC_NAME_MARKUP>
1-(3-chlorophenyl)-3-[2-[(1<I>S</I>,5<I>R</I>)-1,3,3-trimethyl-6-azabicyclo[3.2.1]octan-6-yl]ethyl]imidazolidin-2-one

> <PUBCHEM_IUPAC_NAME>
1-(3-chlorophenyl)-3-[2-[(1S,5R)-1,3,3-trimethyl-6-azabicyclo[3.2.1]octan-6-yl]ethyl]imidazolidin-2-one

> <PUBCHEM_IUPAC_SYSTEMATIC_NAME>
1-(3-chlorophenyl)-3-[2-[(1S,5R)-1,3,3-trimethyl-6-azabicyclo[3.2.1]octan-6-yl]ethyl]imidazolidin-2-one

> <PUBCHEM_IUPAC_TRADITIONAL_NAME>
1-(3-chlorophenyl)-3-[2-[(1S,5R)-1,3,3-trimethyl-6-azabicyclo[3.2.1]octan-6-yl]ethyl]-2-imidazolidinone

> <PUBCHEM_IUPAC_INCHI>
InChI=1S/C21H30ClN3O/c1-20(2)12-18-13-21(3,14-20)15-24(18)8-7-23-9-10-25(19(23)26)17-6-4-5-16(22)11-17/h4-6,11,18H,7-10,12-15H2,1-3H3/t18-,21-/m1/s1

> <PUBCHEM_IUPAC_INCHIKEY>
OLKRKRWLKISLQU-WIYYLYMNSA-N

> <PUBCHEM_XLOGP3_AA>
4.3

> <PUBCHEM_EXACT_MASS>
375.2077403

> <PUBCHEM_MOLECULAR_FORMULA>
C21H30ClN3O

> <PUBCHEM_MOLECULAR_WEIGHT>
375.9

> <PUBCHEM_OPENEYE_CAN_SMILES>
CC1(CC2CC(C1)(CN2CCN3CCN(C3=O)C4=CC(=CC=C4)Cl)C)C

> <PUBCHEM_OPENEYE_ISO_SMILES>
C[C@@]12C[C@@H](CC(C1)(C)C)N(C2)CCN3CCN(C3=O)C4=CC(=CC=C4)Cl

> <PUBCHEM_CACTVS_TPSA>
26.8

> <PUBCHEM_MONOISOTOPIC_WEIGHT>
375.2077403

> <PUBCHEM_TOTAL_CHARGE>
0

> <PUBCHEM_HEAVY_ATOM_COUNT>
26

> <PUBCHEM_ATOM_DEF_STEREO_COUNT>
2

> <PUBCHEM_ATOM_UDEF_STEREO_COUNT>
0

> <PUBCHEM_BOND_DEF_STEREO_COUNT>
0

> <PUBCHEM_BOND_UDEF_STEREO_COUNT>
0

> <PUBCHEM_ISOTOPIC_ATOM_COUNT>
0

> <PUBCHEM_COMPONENT_COUNT>
1

> <PUBCHEM_CACTVS_TAUTO_COUNT>
-1

> <PUBCHEM_COORDINATE_TYPE>
1
5
255

> <PUBCHEM_BONDANNOTATIONS>
21  22  8
21  23  8
22  24  8
23  25  8
24  26  8
25  26  8
6  13  6
7  27  5

$$$$
