132247308
  -OEChem-09292322452D

 55 57  0     0  0  0  0  0  0999 V2000
    2.0000   -3.0981    0.0000 Cl  0  0  0  0  0  0  0  0  0  0  0  0
    4.9641    0.7679    0.0000 F   0  0  0  0  0  0  0  0  0  0  0  0
    2.0000   -5.0981    0.0000 F   0  0  0  0  0  0  0  0  0  0  0  0
    6.3301   -3.5981    0.0000 O   0  0  0  0  0  0  0  0  0  0  0  0
    8.9641    2.5000    0.0000 O   0  0  0  0  0  0  0  0  0  0  0  0
   11.4641    5.0981    0.0000 O   0  0  0  0  0  0  0  0  0  0  0  0
    5.4641   -2.0981    0.0000 N   0  0  0  0  0  0  0  0  0  0  0  0
    6.9641    0.7679    0.0000 N   0  0  0  0  0  0  0  0  0  0  0  0
   12.9641    4.2320    0.0000 N   0  0  0  0  0  0  0  0  0  0  0  0
    5.4641   -0.0981    0.0000 C   0  0  0  0  0  0  0  0  0  0  0  0
    4.5981   -0.5981    0.0000 C   0  0  0  0  0  0  0  0  0  0  0  0
    6.3301   -0.5981    0.0000 C   0  0  0  0  0  0  0  0  0  0  0  0
    4.5981   -1.5981    0.0000 C   0  0  0  0  0  0  0  0  0  0  0  0
    6.3301   -1.5981    0.0000 C   0  0  0  0  0  0  0  0  0  0  0  0
    5.9641    0.7679    0.0000 C   0  0  0  0  0  0  0  0  0  0  0  0
    5.4641   -3.0981    0.0000 C   0  0  0  0  0  0  0  0  0  0  0  0
    7.4641    1.6340    0.0000 C   0  0  0  0  0  0  0  0  0  0  0  0
    4.5981   -3.5981    0.0000 C   0  0  0  0  0  0  0  0  0  0  0  0
    8.4641    1.6340    0.0000 C   0  0  0  0  0  0  0  0  0  0  0  0
    3.7320   -3.0981    0.0000 C   0  0  0  0  0  0  0  0  0  0  0  0
    4.5981   -4.5981    0.0000 C   0  0  0  0  0  0  0  0  0  0  0  0
    2.8660   -3.5981    0.0000 C   0  0  0  0  0  0  0  0  0  0  0  0
    3.7320   -5.0981    0.0000 C   0  0  0  0  0  0  0  0  0  0  0  0
    2.8660   -4.5981    0.0000 C   0  0  0  0  0  0  0  0  0  0  0  0
    9.9641    2.5000    0.0000 C   0  0  0  0  0  0  0  0  0  0  0  0
   10.4641    3.3660    0.0000 C   0  0  0  0  0  0  0  0  0  0  0  0
   10.4641    1.6340    0.0000 C   0  0  0  0  0  0  0  0  0  0  0  0
   11.4641    3.3660    0.0000 C   0  0  0  0  0  0  0  0  0  0  0  0
   11.4641    1.6340    0.0000 C   0  0  0  0  0  0  0  0  0  0  0  0
   11.9641    2.5000    0.0000 C   0  0  0  0  0  0  0  0  0  0  0  0
   11.9641    4.2320    0.0000 C   0  0  0  0  0  0  0  0  0  0  0  0
    4.3860   -0.0155    0.0000 H   0  0  0  0  0  0  0  0  0  0  0  0
    3.9875   -0.7057    0.0000 H   0  0  0  0  0  0  0  0  0  0  0  0
    6.9407   -0.7057    0.0000 H   0  0  0  0  0  0  0  0  0  0  0  0
    6.5422   -0.0155    0.0000 H   0  0  0  0  0  0  0  0  0  0  0  0
    3.9875   -1.4904    0.0000 H   0  0  0  0  0  0  0  0  0  0  0  0
    4.3860   -2.1807    0.0000 H   0  0  0  0  0  0  0  0  0  0  0  0
    6.5422   -2.1807    0.0000 H   0  0  0  0  0  0  0  0  0  0  0  0
    6.9407   -1.4904    0.0000 H   0  0  0  0  0  0  0  0  0  0  0  0
    6.0718    1.3785    0.0000 H   0  0  0  0  0  0  0  0  0  0  0  0
    5.3815    0.9800    0.0000 H   0  0  0  0  0  0  0  0  0  0  0  0
    7.2741    0.2310    0.0000 H   0  0  0  0  0  0  0  0  0  0  0  0
    7.5718    2.2446    0.0000 H   0  0  0  0  0  0  0  0  0  0  0  0
    6.8815    1.8460    0.0000 H   0  0  0  0  0  0  0  0  0  0  0  0
    8.3564    1.0234    0.0000 H   0  0  0  0  0  0  0  0  0  0  0  0
    9.0467    1.4219    0.0000 H   0  0  0  0  0  0  0  0  0  0  0  0
    3.7320   -2.4781    0.0000 H   0  0  0  0  0  0  0  0  0  0  0  0
    5.1350   -4.9081    0.0000 H   0  0  0  0  0  0  0  0  0  0  0  0
    3.7320   -5.7181    0.0000 H   0  0  0  0  0  0  0  0  0  0  0  0
   10.1541    3.9030    0.0000 H   0  0  0  0  0  0  0  0  0  0  0  0
   10.1541    1.0970    0.0000 H   0  0  0  0  0  0  0  0  0  0  0  0
   11.7741    1.0970    0.0000 H   0  0  0  0  0  0  0  0  0  0  0  0
   12.5841    2.5000    0.0000 H   0  0  0  0  0  0  0  0  0  0  0  0
   13.2741    4.7690    0.0000 H   0  0  0  0  0  0  0  0  0  0  0  0
   13.2741    3.6951    0.0000 H   0  0  0  0  0  0  0  0  0  0  0  0
  1 22  1  0  0  0  0
  2 10  1  0  0  0  0
  3 24  1  0  0  0  0
  4 16  2  0  0  0  0
  5 19  1  0  0  0  0
  5 25  1  0  0  0  0
  6 31  2  0  0  0  0
  7 13  1  0  0  0  0
  7 14  1  0  0  0  0
  7 16  1  0  0  0  0
  8 15  1  0  0  0  0
  8 17  1  0  0  0  0
  8 42  1  0  0  0  0
  9 31  1  0  0  0  0
  9 54  1  0  0  0  0
  9 55  1  0  0  0  0
 10 11  1  0  0  0  0
 10 12  1  0  0  0  0
 10 15  1  0  0  0  0
 11 13  1  0  0  0  0
 11 32  1  0  0  0  0
 11 33  1  0  0  0  0
 12 14  1  0  0  0  0
 12 34  1  0  0  0  0
 12 35  1  0  0  0  0
 13 36  1  0  0  0  0
 13 37  1  0  0  0  0
 14 38  1  0  0  0  0
 14 39  1  0  0  0  0
 15 40  1  0  0  0  0
 15 41  1  0  0  0  0
 16 18  1  0  0  0  0
 17 19  1  0  0  0  0
 17 43  1  0  0  0  0
 17 44  1  0  0  0  0
 18 20  2  0  0  0  0
 18 21  1  0  0  0  0
 19 45  1  0  0  0  0
 19 46  1  0  0  0  0
 20 22  1  0  0  0  0
 20 47  1  0  0  0  0
 21 23  2  0  0  0  0
 21 48  1  0  0  0  0
 22 24  2  0  0  0  0
 23 24  1  0  0  0  0
 23 49  1  0  0  0  0
 25 26  1  0  0  0  0
 25 27  2  0  0  0  0
 26 28  2  0  0  0  0
 26 50  1  0  0  0  0
 27 29  1  0  0  0  0
 27 51  1  0  0  0  0
 28 30  1  0  0  0  0
 28 31  1  0  0  0  0
 29 30  2  0  0  0  0
 29 52  1  0  0  0  0
 30 53  1  0  0  0  0
M  END
> <PUBCHEM_COMPOUND_CID>
132247308

> <PUBCHEM_COMPOUND_CANONICALIZED>
1

> <PUBCHEM_CACTVS_COMPLEXITY>
619

> <PUBCHEM_CACTVS_HBOND_ACCEPTOR>
6

> <PUBCHEM_CACTVS_HBOND_DONOR>
2

> <PUBCHEM_CACTVS_ROTATABLE_BOND>
8

> <PUBCHEM_CACTVS_SUBSKEYS>
AAADceB7MYAEAAAAAAAAAAAAAAAAAAAAAAA8YIAAAAAAAAABQAAAHwIQAAAADAbhmC4wBoPABACIAiFSEACCCAAkJQAIiIEODsgOJjKFtxuHOSjk1hGYqYe6yBCOAAABIAAAAAAAAAJAAAAAAAAAAAAAAA==

> <PUBCHEM_IUPAC_OPENEYE_NAME>
3-[2-[[1-(3-chloro-4-fluoro-benzoyl)-4-fluoro-4-piperidyl]methylamino]ethoxy]benzamide

> <PUBCHEM_IUPAC_CAS_NAME>
3-[2-[[1-[(3-chloro-4-fluorophenyl)-oxomethyl]-4-fluoro-4-piperidinyl]methylamino]ethoxy]benzamide

> <PUBCHEM_IUPAC_NAME_MARKUP>
3-[2-[[1-(3-chloro-4-fluorobenzoyl)-4-fluoropiperidin-4-yl]methylamino]ethoxy]benzamide

> <PUBCHEM_IUPAC_NAME>
3-[2-[[1-(3-chloro-4-fluorobenzoyl)-4-fluoropiperidin-4-yl]methylamino]ethoxy]benzamide

> <PUBCHEM_IUPAC_SYSTEMATIC_NAME>
3-[2-[[1-(3-chloranyl-4-fluoranyl-phenyl)carbonyl-4-fluoranyl-piperidin-4-yl]methylamino]ethoxy]benzamide

> <PUBCHEM_IUPAC_TRADITIONAL_NAME>
3-[2-[[1-(3-chloro-4-fluoro-benzoyl)-4-fluoro-4-piperidyl]methylamino]ethoxy]benzamide

> <PUBCHEM_IUPAC_INCHI>
InChI=1S/C22H24ClF2N3O3/c23-18-13-16(4-5-19(18)24)21(30)28-9-6-22(25,7-10-28)14-27-8-11-31-17-3-1-2-15(12-17)20(26)29/h1-5,12-13,27H,6-11,14H2,(H2,26,29)

> <PUBCHEM_IUPAC_INCHIKEY>
OODAUUFBIANTSD-UHFFFAOYSA-N

> <PUBCHEM_XLOGP3_AA>
2.9

> <PUBCHEM_EXACT_MASS>
451.1474257

> <PUBCHEM_MOLECULAR_FORMULA>
C22H24ClF2N3O3

> <PUBCHEM_MOLECULAR_WEIGHT>
451.9

> <PUBCHEM_OPENEYE_CAN_SMILES>
C1CN(CCC1(CNCCOC2=CC=CC(=C2)C(=O)N)F)C(=O)C3=CC(=C(C=C3)F)Cl

> <PUBCHEM_OPENEYE_ISO_SMILES>
C1CN(CCC1(CNCCOC2=CC=CC(=C2)C(=O)N)F)C(=O)C3=CC(=C(C=C3)F)Cl

> <PUBCHEM_CACTVS_TPSA>
84.7

> <PUBCHEM_MONOISOTOPIC_WEIGHT>
451.1474257

> <PUBCHEM_TOTAL_CHARGE>
0

> <PUBCHEM_HEAVY_ATOM_COUNT>
31

> <PUBCHEM_ATOM_DEF_STEREO_COUNT>
0

> <PUBCHEM_ATOM_UDEF_STEREO_COUNT>
0

> <PUBCHEM_BOND_DEF_STEREO_COUNT>
0

> <PUBCHEM_BOND_UDEF_STEREO_COUNT>
0

> <PUBCHEM_ISOTOPIC_ATOM_COUNT>
0

> <PUBCHEM_COMPONENT_COUNT>
1

> <PUBCHEM_CACTVS_TAUTO_COUNT>
-1

> <PUBCHEM_COORDINATE_TYPE>
1
5
255

> <PUBCHEM_BONDANNOTATIONS>
18  20  8
18  21  8
20  22  8
21  23  8
22  24  8
23  24  8
25  26  8
25  27  8
26  28  8
27  29  8
28  30  8
29  30  8

$$$$
