44347742
  -OEChem-09292322132D

 64 66  0     1  0  0  0  0  0999 V2000
   12.7012    0.0000    0.0000 F   0  0  0  0  0  0  0  0  0  0  0  0
   14.0673    0.3660    0.0000 F   0  0  0  0  0  0  0  0  0  0  0  0
   13.7012    1.7320    0.0000 F   0  0  0  0  0  0  0  0  0  0  0  0
    8.0051    5.8660    0.0000 O   0  0  0  0  0  0  0  0  0  0  0  0
    3.1350    3.9326    0.0000 O   0  0  0  0  0  0  0  0  0  0  0  0
    4.8671    4.9326    0.0000 O   0  0  0  0  0  0  0  0  0  0  0  0
    0.5369    5.4326    0.0000 O   0  0  0  0  0  0  0  0  0  0  0  0
    4.0010    6.4326    0.0000 O   0  0  0  0  0  0  0  0  0  0  0  0
    1.4030    3.9326    0.0000 O   0  0  0  0  0  0  0  0  0  0  0  0
    9.7371    3.8660    0.0000 N   0  0  0  0  0  0  0  0  0  0  0  0
    9.7371    5.8660    0.0000 C   0  0  0  0  0  0  0  0  0  0  0  0
    8.8711    5.3660    0.0000 C   0  0  0  0  0  0  0  0  0  0  0  0
   10.6032    5.3660    0.0000 C   0  0  0  0  0  0  0  0  0  0  0  0
   10.6032    6.3660    0.0000 C   0  0  0  0  0  0  0  0  0  0  0  0
    8.8711    4.3660    0.0000 C   0  0  0  0  0  0  0  0  0  0  0  0
   10.6032    4.3660    0.0000 C   0  0  0  0  0  0  0  0  0  0  0  0
    8.8711    6.3660    0.0000 C   0  0  0  0  0  0  0  0  0  0  0  0
   10.6032    7.3660    0.0000 C   0  0  0  0  0  0  0  0  0  0  0  0
    8.8711    7.3660    0.0000 C   0  0  0  0  0  0  0  0  0  0  0  0
    9.7371    7.8660    0.0000 C   0  0  0  0  0  0  0  0  0  0  0  0
    9.7371    2.8660    0.0000 C   0  0  0  0  0  0  0  0  0  0  0  0
    7.9611    7.8729    0.0000 C   0  0  0  0  0  0  0  0  0  0  0  0
    9.7532    8.9075    0.0000 C   0  0  0  0  0  0  0  0  0  0  0  0
   10.6032    2.3660    0.0000 C   0  0  0  0  0  0  0  0  0  0  0  0
    7.9531    8.9145    0.0000 C   0  0  0  0  0  0  0  0  0  0  0  0
    8.8552    9.4353    0.0000 C   0  0  0  0  0  0  0  0  0  0  0  0
   11.4692    2.8660    0.0000 C   0  0  0  0  0  0  0  0  0  0  0  0
   10.6032    1.3660    0.0000 C   0  0  0  0  0  0  0  0  0  0  0  0
   12.3352    2.3660    0.0000 C   0  0  0  0  0  0  0  0  0  0  0  0
   11.4692    0.8660    0.0000 C   0  0  0  0  0  0  0  0  0  0  0  0
   12.3352    1.3660    0.0000 C   0  0  0  0  0  0  0  0  0  0  0  0
   13.2012    0.8660    0.0000 C   0  0  0  0  0  0  0  0  0  0  0  0
    3.1350    4.9326    0.0000 C   0  0  3  0  0  0  0  0  0  0  0  0
    2.2690    5.4326    0.0000 C   0  0  0  0  0  0  0  0  0  0  0  0
    4.0010    5.4326    0.0000 C   0  0  0  0  0  0  0  0  0  0  0  0
    1.4030    4.9326    0.0000 C   0  0  0  0  0  0  0  0  0  0  0  0
    8.6591    5.9486    0.0000 H   0  0  0  0  0  0  0  0  0  0  0  0
    8.2605    5.2584    0.0000 H   0  0  0  0  0  0  0  0  0  0  0  0
   11.2137    5.2584    0.0000 H   0  0  0  0  0  0  0  0  0  0  0  0
   10.8152    5.9486    0.0000 H   0  0  0  0  0  0  0  0  0  0  0  0
   10.8152    5.7834    0.0000 H   0  0  0  0  0  0  0  0  0  0  0  0
   11.2137    6.4737    0.0000 H   0  0  0  0  0  0  0  0  0  0  0  0
    8.2605    4.4737    0.0000 H   0  0  0  0  0  0  0  0  0  0  0  0
    8.6591    3.7834    0.0000 H   0  0  0  0  0  0  0  0  0  0  0  0
   10.8152    3.7834    0.0000 H   0  0  0  0  0  0  0  0  0  0  0  0
   11.2137    4.4737    0.0000 H   0  0  0  0  0  0  0  0  0  0  0  0
   11.2137    7.2584    0.0000 H   0  0  0  0  0  0  0  0  0  0  0  0
   10.8152    7.9486    0.0000 H   0  0  0  0  0  0  0  0  0  0  0  0
    9.1266    2.9737    0.0000 H   0  0  0  0  0  0  0  0  0  0  0  0
    9.5251    2.2834    0.0000 H   0  0  0  0  0  0  0  0  0  0  0  0
    7.4278    7.5567    0.0000 H   0  0  0  0  0  0  0  0  0  0  0  0
   10.2937    9.2113    0.0000 H   0  0  0  0  0  0  0  0  0  0  0  0
    7.4150    9.2224    0.0000 H   0  0  0  0  0  0  0  0  0  0  0  0
    8.8576   10.0553    0.0000 H   0  0  0  0  0  0  0  0  0  0  0  0
   11.4692    3.4860    0.0000 H   0  0  0  0  0  0  0  0  0  0  0  0
   10.0662    1.0560    0.0000 H   0  0  0  0  0  0  0  0  0  0  0  0
   12.8721    2.6760    0.0000 H   0  0  0  0  0  0  0  0  0  0  0  0
   11.4692    0.2460    0.0000 H   0  0  0  0  0  0  0  0  0  0  0  0
    2.5981    4.6226    0.0000 H   0  0  0  0  0  0  0  0  0  0  0  0
    2.6675    5.9076    0.0000 H   0  0  0  0  0  0  0  0  0  0  0  0
    1.8705    5.9076    0.0000 H   0  0  0  0  0  0  0  0  0  0  0  0
    2.5981    3.6226    0.0000 H   0  0  0  0  0  0  0  0  0  0  0  0
    5.4040    5.2426    0.0000 H   0  0  0  0  0  0  0  0  0  0  0  0
    0.0000    5.1226    0.0000 H   0  0  0  0  0  0  0  0  0  0  0  0
  1 32  1  0  0  0  0
  2 32  1  0  0  0  0
  3 32  1  0  0  0  0
  4 17  2  0  0  0  0
  5 33  1  0  0  0  0
  5 62  1  0  0  0  0
  6 35  1  0  0  0  0
  6 63  1  0  0  0  0
  7 36  1  0  0  0  0
  7 64  1  0  0  0  0
  8 35  2  0  0  0  0
  9 36  2  0  0  0  0
 10 15  1  0  0  0  0
 10 16  1  0  0  0  0
 10 21  1  0  0  0  0
 11 12  1  0  0  0  0
 11 13  1  0  0  0  0
 11 14  1  0  0  0  0
 11 17  1  0  0  0  0
 12 15  1  0  0  0  0
 12 37  1  0  0  0  0
 12 38  1  0  0  0  0
 13 16  1  0  0  0  0
 13 39  1  0  0  0  0
 13 40  1  0  0  0  0
 14 18  1  0  0  0  0
 14 41  1  0  0  0  0
 14 42  1  0  0  0  0
 15 43  1  0  0  0  0
 15 44  1  0  0  0  0
 16 45  1  0  0  0  0
 16 46  1  0  0  0  0
 17 19  1  0  0  0  0
 18 20  1  0  0  0  0
 18 47  1  0  0  0  0
 18 48  1  0  0  0  0
 19 20  1  0  0  0  0
 19 22  2  0  0  0  0
 20 23  2  0  0  0  0
 21 24  1  0  0  0  0
 21 49  1  0  0  0  0
 21 50  1  0  0  0  0
 22 25  1  0  0  0  0
 22 51  1  0  0  0  0
 23 26  1  0  0  0  0
 23 52  1  0  0  0  0
 24 27  2  0  0  0  0
 24 28  1  0  0  0  0
 25 26  2  0  0  0  0
 25 53  1  0  0  0  0
 26 54  1  0  0  0  0
 27 29  1  0  0  0  0
 27 55  1  0  0  0  0
 28 30  2  0  0  0  0
 28 56  1  0  0  0  0
 29 31  2  0  0  0  0
 29 57  1  0  0  0  0
 30 31  1  0  0  0  0
 30 58  1  0  0  0  0
 31 32  1  0  0  0  0
 33 34  1  0  0  0  0
 33 35  1  0  0  0  0
 33 59  1  0  0  0  0
 34 36  1  0  0  0  0
 34 60  1  0  0  0  0
 34 61  1  0  0  0  0
M  END
> <PUBCHEM_COMPOUND_CID>
44347742

> <PUBCHEM_COMPOUND_CANONICALIZED>
1

> <PUBCHEM_CACTVS_COMPLEXITY>
659

> <PUBCHEM_CACTVS_HBOND_ACCEPTOR>
10

> <PUBCHEM_CACTVS_HBOND_DONOR>
3

> <PUBCHEM_CACTVS_ROTATABLE_BOND>
5

> <PUBCHEM_CACTVS_SUBSKEYS>
AAADceB6OYAAAAAAAAAAAAAAAAAAAAAAAAA8YMEAAAAAAADBQAAAHwAACAAADhThmBYwCIMAAgCIAqDSCAKCAAAkAAAIiAFIBMgJMDaAlRGEYQhloACJiYdfiMCPwAAAAAAQAACAAAQAACAAAAAAAAAAAA==

> <PUBCHEM_IUPAC_OPENEYE_NAME>
2-hydroxybutanedioic acid;1-[[4-(trifluoromethyl)phenyl]methyl]spiro[piperidine-4,2'-tetralin]-1'-one

> <PUBCHEM_IUPAC_CAS_NAME>
2-hydroxybutanedioic acid;1'-[[4-(trifluoromethyl)phenyl]methyl]-1-spiro[3,4-dihydronaphthalene-2,4'-piperidine]one

> <PUBCHEM_IUPAC_NAME_MARKUP>
2-hydroxybutanedioic acid;1&apos;-[[4-(trifluoromethyl)phenyl]methyl]spiro[3,4-dihydronaphthalene-2,4&apos;-piperidine]-1-one

> <PUBCHEM_IUPAC_NAME>
2-hydroxybutanedioic acid;1'-[[4-(trifluoromethyl)phenyl]methyl]spiro[3,4-dihydronaphthalene-2,4'-piperidine]-1-one

> <PUBCHEM_IUPAC_SYSTEMATIC_NAME>
2-oxidanylbutanedioic acid;1'-[[4-(trifluoromethyl)phenyl]methyl]spiro[3,4-dihydronaphthalene-2,4'-piperidine]-1-one

> <PUBCHEM_IUPAC_TRADITIONAL_NAME>
malic acid;1-[4-(trifluoromethyl)benzyl]spiro[piperidine-4,2'-tetralin]-1'-one

> <PUBCHEM_IUPAC_INCHI>
InChI=1S/C22H22F3NO.C4H6O5/c23-22(24,25)18-7-5-16(6-8-18)15-26-13-11-21(12-14-26)10-9-17-3-1-2-4-19(17)20(21)27;5-2(4(8)9)1-3(6)7/h1-8H,9-15H2;2,5H,1H2,(H,6,7)(H,8,9)

> <PUBCHEM_IUPAC_INCHIKEY>
HDNQPZIPBLGWKW-UHFFFAOYSA-N

> <PUBCHEM_EXACT_MASS>
507.18687210

> <PUBCHEM_MOLECULAR_FORMULA>
C26H28F3NO6

> <PUBCHEM_MOLECULAR_WEIGHT>
507.5

> <PUBCHEM_OPENEYE_CAN_SMILES>
C1CC2(CCN(CC2)CC3=CC=C(C=C3)C(F)(F)F)C(=O)C4=CC=CC=C41.C(C(C(=O)O)O)C(=O)O

> <PUBCHEM_OPENEYE_ISO_SMILES>
C1CC2(CCN(CC2)CC3=CC=C(C=C3)C(F)(F)F)C(=O)C4=CC=CC=C41.C(C(C(=O)O)O)C(=O)O

> <PUBCHEM_CACTVS_TPSA>
115

> <PUBCHEM_MONOISOTOPIC_WEIGHT>
507.18687210

> <PUBCHEM_TOTAL_CHARGE>
0

> <PUBCHEM_HEAVY_ATOM_COUNT>
36

> <PUBCHEM_ATOM_DEF_STEREO_COUNT>
0

> <PUBCHEM_ATOM_UDEF_STEREO_COUNT>
1

> <PUBCHEM_BOND_DEF_STEREO_COUNT>
0

> <PUBCHEM_BOND_UDEF_STEREO_COUNT>
0

> <PUBCHEM_ISOTOPIC_ATOM_COUNT>
0

> <PUBCHEM_COMPONENT_COUNT>
2

> <PUBCHEM_CACTVS_TAUTO_COUNT>
-1

> <PUBCHEM_COORDINATE_TYPE>
1
5
255

> <PUBCHEM_BONDANNOTATIONS>
19  20  8
19  22  8
20  23  8
22  25  8
23  26  8
24  27  8
24  28  8
25  26  8
27  29  8
28  30  8
29  31  8
30  31  8
33  5  3

$$$$
