53325242
  -OEChem-09292322392D

 66 69  0     0  0  0  0  0  0999 V2000
    4.5981   -6.7631    0.0000 Cl  0  0  0  0  0  0  0  0  0  0  0  0
    2.0000   -6.2631    0.0000 F   0  0  0  0  0  0  0  0  0  0  0  0
    2.3660   -4.8971    0.0000 F   0  0  0  0  0  0  0  0  0  0  0  0
    3.3660   -6.6292    0.0000 F   0  0  0  0  0  0  0  0  0  0  0  0
    4.0981    6.7631    0.0000 F   0  0  0  0  0  0  0  0  0  0  0  0
   10.0981    3.2990    0.0000 F   0  0  0  0  0  0  0  0  0  0  0  0
    3.7320   -3.2631    0.0000 O   0  0  0  0  0  0  0  0  0  0  0  0
    5.5981   -1.0311    0.0000 N   0  0  0  0  0  0  0  0  0  0  0  0
    4.5981   -2.7631    0.0000 C   0  0  0  0  0  0  0  0  0  0  0  0
    5.5981   -2.7631    0.0000 C   0  0  0  0  0  0  0  0  0  0  0  0
    4.0981   -1.8971    0.0000 C   0  0  0  0  0  0  0  0  0  0  0  0
    6.0981   -1.8971    0.0000 C   0  0  0  0  0  0  0  0  0  0  0  0
    4.5981   -1.0311    0.0000 C   0  0  0  0  0  0  0  0  0  0  0  0
    6.0981   -0.1651    0.0000 C   0  0  0  0  0  0  0  0  0  0  0  0
    4.5981   -3.7631    0.0000 C   0  0  0  0  0  0  0  0  0  0  0  0
    5.5981    0.7010    0.0000 C   0  0  0  0  0  0  0  0  0  0  0  0
    6.0981    1.5670    0.0000 C   0  0  0  0  0  0  0  0  0  0  0  0
    5.5981    2.4330    0.0000 C   0  0  0  0  0  0  0  0  0  0  0  0
    3.7320   -4.2631    0.0000 C   0  0  0  0  0  0  0  0  0  0  0  0
    5.4641   -4.2631    0.0000 C   0  0  0  0  0  0  0  0  0  0  0  0
    6.0981    3.2990    0.0000 C   0  0  0  0  0  0  0  0  0  0  0  0
    3.7320   -5.2631    0.0000 C   0  0  0  0  0  0  0  0  0  0  0  0
    5.4641   -5.2631    0.0000 C   0  0  0  0  0  0  0  0  0  0  0  0
    5.5981    4.1651    0.0000 C   0  0  0  0  0  0  0  0  0  0  0  0
    7.0981    3.2990    0.0000 C   0  0  0  0  0  0  0  0  0  0  0  0
    4.5981   -5.7631    0.0000 C   0  0  0  0  0  0  0  0  0  0  0  0
    2.8660   -5.7631    0.0000 C   0  0  0  0  0  0  0  0  0  0  0  0
    4.5981    4.1651    0.0000 C   0  0  0  0  0  0  0  0  0  0  0  0
    7.5981    2.4330    0.0000 C   0  0  0  0  0  0  0  0  0  0  0  0
    6.0981    5.0311    0.0000 C   0  0  0  0  0  0  0  0  0  0  0  0
    7.5981    4.1651    0.0000 C   0  0  0  0  0  0  0  0  0  0  0  0
    4.0981    5.0311    0.0000 C   0  0  0  0  0  0  0  0  0  0  0  0
    8.5981    2.4330    0.0000 C   0  0  0  0  0  0  0  0  0  0  0  0
    5.5981    5.8971    0.0000 C   0  0  0  0  0  0  0  0  0  0  0  0
    8.5981    4.1651    0.0000 C   0  0  0  0  0  0  0  0  0  0  0  0
    4.5981    5.8971    0.0000 C   0  0  0  0  0  0  0  0  0  0  0  0
    9.0981    3.2990    0.0000 C   0  0  0  0  0  0  0  0  0  0  0  0
    5.4904   -3.3737    0.0000 H   0  0  0  0  0  0  0  0  0  0  0  0
    6.1807   -2.9752    0.0000 H   0  0  0  0  0  0  0  0  0  0  0  0
    3.6231   -1.4986    0.0000 H   0  0  0  0  0  0  0  0  0  0  0  0
    3.6231   -2.2956    0.0000 H   0  0  0  0  0  0  0  0  0  0  0  0
    6.5730   -2.2956    0.0000 H   0  0  0  0  0  0  0  0  0  0  0  0
    6.5730   -1.4986    0.0000 H   0  0  0  0  0  0  0  0  0  0  0  0
    4.7057   -0.4205    0.0000 H   0  0  0  0  0  0  0  0  0  0  0  0
    4.0155   -0.8190    0.0000 H   0  0  0  0  0  0  0  0  0  0  0  0
    6.5730   -0.5636    0.0000 H   0  0  0  0  0  0  0  0  0  0  0  0
    6.5730    0.2335    0.0000 H   0  0  0  0  0  0  0  0  0  0  0  0
    5.1231    1.0995    0.0000 H   0  0  0  0  0  0  0  0  0  0  0  0
    5.1231    0.3024    0.0000 H   0  0  0  0  0  0  0  0  0  0  0  0
    6.5730    1.1685    0.0000 H   0  0  0  0  0  0  0  0  0  0  0  0
    6.5730    1.9655    0.0000 H   0  0  0  0  0  0  0  0  0  0  0  0
    3.1951   -2.9531    0.0000 H   0  0  0  0  0  0  0  0  0  0  0  0
    5.1231    2.8315    0.0000 H   0  0  0  0  0  0  0  0  0  0  0  0
    5.1231    2.0345    0.0000 H   0  0  0  0  0  0  0  0  0  0  0  0
    3.1951   -3.9531    0.0000 H   0  0  0  0  0  0  0  0  0  0  0  0
    6.0010   -3.9531    0.0000 H   0  0  0  0  0  0  0  0  0  0  0  0
    6.4081    2.7621    0.0000 H   0  0  0  0  0  0  0  0  0  0  0  0
    6.0010   -5.5731    0.0000 H   0  0  0  0  0  0  0  0  0  0  0  0
    4.2881    3.6281    0.0000 H   0  0  0  0  0  0  0  0  0  0  0  0
    7.2881    1.8961    0.0000 H   0  0  0  0  0  0  0  0  0  0  0  0
    6.7181    5.0311    0.0000 H   0  0  0  0  0  0  0  0  0  0  0  0
    7.2881    4.7020    0.0000 H   0  0  0  0  0  0  0  0  0  0  0  0
    3.4781    5.0311    0.0000 H   0  0  0  0  0  0  0  0  0  0  0  0
    8.9081    1.8961    0.0000 H   0  0  0  0  0  0  0  0  0  0  0  0
    5.9081    6.4340    0.0000 H   0  0  0  0  0  0  0  0  0  0  0  0
    8.9081    4.7020    0.0000 H   0  0  0  0  0  0  0  0  0  0  0  0
  1 26  1  0  0  0  0
  2 27  1  0  0  0  0
  3 27  1  0  0  0  0
  4 27  1  0  0  0  0
  5 36  1  0  0  0  0
  6 37  1  0  0  0  0
  7  9  1  0  0  0  0
  7 52  1  0  0  0  0
  8 12  1  0  0  0  0
  8 13  1  0  0  0  0
  8 14  1  0  0  0  0
  9 10  1  0  0  0  0
  9 11  1  0  0  0  0
  9 15  1  0  0  0  0
 10 12  1  0  0  0  0
 10 38  1  0  0  0  0
 10 39  1  0  0  0  0
 11 13  1  0  0  0  0
 11 40  1  0  0  0  0
 11 41  1  0  0  0  0
 12 42  1  0  0  0  0
 12 43  1  0  0  0  0
 13 44  1  0  0  0  0
 13 45  1  0  0  0  0
 14 16  1  0  0  0  0
 14 46  1  0  0  0  0
 14 47  1  0  0  0  0
 15 19  2  0  0  0  0
 15 20  1  0  0  0  0
 16 17  1  0  0  0  0
 16 48  1  0  0  0  0
 16 49  1  0  0  0  0
 17 18  1  0  0  0  0
 17 50  1  0  0  0  0
 17 51  1  0  0  0  0
 18 21  1  0  0  0  0
 18 53  1  0  0  0  0
 18 54  1  0  0  0  0
 19 22  1  0  0  0  0
 19 55  1  0  0  0  0
 20 23  2  0  0  0  0
 20 56  1  0  0  0  0
 21 24  1  0  0  0  0
 21 25  1  0  0  0  0
 21 57  1  0  0  0  0
 22 26  2  0  0  0  0
 22 27  1  0  0  0  0
 23 26  1  0  0  0  0
 23 58  1  0  0  0  0
 24 28  2  0  0  0  0
 24 30  1  0  0  0  0
 25 29  2  0  0  0  0
 25 31  1  0  0  0  0
 28 32  1  0  0  0  0
 28 59  1  0  0  0  0
 29 33  1  0  0  0  0
 29 60  1  0  0  0  0
 30 34  2  0  0  0  0
 30 61  1  0  0  0  0
 31 35  2  0  0  0  0
 31 62  1  0  0  0  0
 32 36  2  0  0  0  0
 32 63  1  0  0  0  0
 33 37  2  0  0  0  0
 33 64  1  0  0  0  0
 34 36  1  0  0  0  0
 34 65  1  0  0  0  0
 35 37  1  0  0  0  0
 35 66  1  0  0  0  0
M  END
> <PUBCHEM_COMPOUND_CID>
53325242

> <PUBCHEM_COMPOUND_CANONICALIZED>
1

> <PUBCHEM_CACTVS_COMPLEXITY>
662

> <PUBCHEM_CACTVS_HBOND_ACCEPTOR>
7

> <PUBCHEM_CACTVS_HBOND_DONOR>
1

> <PUBCHEM_CACTVS_ROTATABLE_BOND>
8

> <PUBCHEM_CACTVS_SUBSKEYS>
AAADceB6IcAEAAAAAAAAAAAAAAAAAAAAAAA8YMEAAAAAAAABUAAAHwIACAAADUbBmDwwAIMAAgCAAiBCAAACAAAgBQAIiAAICogIJiKBkxCEcAAmwAGImAeQwOAOhAACAAABAAAIAAQAAAIAAAAAAAAAAA==

> <PUBCHEM_IUPAC_OPENEYE_NAME>
1-[5,5-bis(4-fluorophenyl)pentyl]-4-[4-chloro-3-(trifluoromethyl)phenyl]piperidin-4-ol

> <PUBCHEM_IUPAC_CAS_NAME>
1-[5,5-bis(4-fluorophenyl)pentyl]-4-[4-chloro-3-(trifluoromethyl)phenyl]-4-piperidinol

> <PUBCHEM_IUPAC_NAME_MARKUP>
1-[5,5-bis(4-fluorophenyl)pentyl]-4-[4-chloro-3-(trifluoromethyl)phenyl]piperidin-4-ol

> <PUBCHEM_IUPAC_NAME>
1-[5,5-bis(4-fluorophenyl)pentyl]-4-[4-chloro-3-(trifluoromethyl)phenyl]piperidin-4-ol

> <PUBCHEM_IUPAC_SYSTEMATIC_NAME>
1-[5,5-bis(4-fluorophenyl)pentyl]-4-[4-chloranyl-3-(trifluoromethyl)phenyl]piperidin-4-ol

> <PUBCHEM_IUPAC_TRADITIONAL_NAME>
1-[5,5-bis(4-fluorophenyl)pentyl]-4-[4-chloro-3-(trifluoromethyl)phenyl]piperidin-4-ol

> <PUBCHEM_IUPAC_INCHI>
InChI=1S/C29H29ClF5NO/c30-27-13-8-22(19-26(27)29(33,34)35)28(37)14-17-36(18-15-28)16-2-1-3-25(20-4-9-23(31)10-5-20)21-6-11-24(32)12-7-21/h4-13,19,25,37H,1-3,14-18H2

> <PUBCHEM_IUPAC_INCHIKEY>
QBWLTDPVSJCLIE-UHFFFAOYSA-N

> <PUBCHEM_XLOGP3_AA>
7.8

> <PUBCHEM_EXACT_MASS>
537.1857831

> <PUBCHEM_MOLECULAR_FORMULA>
C29H29ClF5NO

> <PUBCHEM_MOLECULAR_WEIGHT>
538.0

> <PUBCHEM_OPENEYE_CAN_SMILES>
C1CN(CCC1(C2=CC(=C(C=C2)Cl)C(F)(F)F)O)CCCCC(C3=CC=C(C=C3)F)C4=CC=C(C=C4)F

> <PUBCHEM_OPENEYE_ISO_SMILES>
C1CN(CCC1(C2=CC(=C(C=C2)Cl)C(F)(F)F)O)CCCCC(C3=CC=C(C=C3)F)C4=CC=C(C=C4)F

> <PUBCHEM_CACTVS_TPSA>
23.5

> <PUBCHEM_MONOISOTOPIC_WEIGHT>
537.1857831

> <PUBCHEM_TOTAL_CHARGE>
0

> <PUBCHEM_HEAVY_ATOM_COUNT>
37

> <PUBCHEM_ATOM_DEF_STEREO_COUNT>
0

> <PUBCHEM_ATOM_UDEF_STEREO_COUNT>
0

> <PUBCHEM_BOND_DEF_STEREO_COUNT>
0

> <PUBCHEM_BOND_UDEF_STEREO_COUNT>
0

> <PUBCHEM_ISOTOPIC_ATOM_COUNT>
0

> <PUBCHEM_COMPONENT_COUNT>
1

> <PUBCHEM_CACTVS_TAUTO_COUNT>
-1

> <PUBCHEM_COORDINATE_TYPE>
1
5
255

> <PUBCHEM_BONDANNOTATIONS>
15  19  8
15  20  8
19  22  8
20  23  8
22  26  8
23  26  8
24  28  8
24  30  8
25  29  8
25  31  8
28  32  8
29  33  8
30  34  8
31  35  8
32  36  8
33  37  8
34  36  8
35  37  8

$$$$
