165112407
  -OEChem-09292322452D

 61 64  0     1  0  0  0  0  0999 V2000
   14.4946    0.3513    0.0000 S   0  0  0  0  0  0  0  0  0  0  0  0
   18.5865   -1.2991    0.0000 F   0  0  0  0  0  0  0  0  0  0  0  0
   17.5915   -2.3041    0.0000 F   0  0  0  0  0  0  0  0  0  0  0  0
   17.5815   -0.3041    0.0000 F   0  0  0  0  0  0  0  0  0  0  0  0
    5.8489    2.1015    0.0000 O   0  0  0  0  0  0  0  0  0  0  0  0
   16.0822   -0.4456    0.0000 O   0  0  0  0  0  0  0  0  0  0  0  0
    2.8169    0.7204    0.0000 O   0  0  0  0  0  0  0  0  0  0  0  0
   11.3618   -0.4691    0.0000 N   0  0  3  0  0  0  0  0  0  0  0  0
    5.8576    0.3695    0.0000 N   0  0  0  0  0  0  0  0  0  0  0  0
   14.5026   -1.2582    0.0000 N   0  0  0  0  0  0  0  0  0  0  0  0
    3.7614    2.0341    0.0000 N   0  0  0  0  0  0  0  0  0  0  0  0
    3.7695    0.4161    0.0000 N   0  0  0  0  0  0  0  0  0  0  0  0
    8.8575    0.3844    0.0000 C   0  0  0  0  0  0  0  0  0  0  0  0
    8.3618   -0.4841    0.0000 C   0  0  0  0  0  0  0  0  0  0  0  0
    8.3532    1.2480    0.0000 C   0  0  0  0  0  0  0  0  0  0  0  0
    6.8575    0.3745    0.0000 C   0  0  0  0  0  0  0  0  0  0  0  0
    7.3618   -0.4890    0.0000 C   0  0  0  0  0  0  0  0  0  0  0  0
    7.3532    1.2430    0.0000 C   0  0  0  0  0  0  0  0  0  0  0  0
    9.8575    0.3894    0.0000 C   0  0  0  0  0  0  0  0  0  0  0  0
   10.3618   -0.4741    0.0000 C   0  0  0  0  0  0  0  0  0  0  0  0
   11.7912    0.4340    0.0000 C   0  0  0  0  0  0  0  0  0  0  0  0
   11.8002   -1.3679    0.0000 C   0  0  0  0  0  0  0  0  0  0  0  0
   12.7650    0.6614    0.0000 C   0  0  0  0  0  0  0  0  0  0  0  0
   12.7762   -1.5856    0.0000 C   0  0  0  0  0  0  0  0  0  0  0  0
   13.5499    0.0418    0.0000 C   0  0  0  0  0  0  0  0  0  0  0  0
   13.5549   -0.9582    0.0000 C   0  0  0  0  0  0  0  0  0  0  0  0
    5.3532    1.2330    0.0000 C   0  0  0  0  0  0  0  0  0  0  0  0
    4.3532    1.2280    0.0000 C   0  0  0  0  0  0  0  0  0  0  0  0
   15.0822   -0.4505    0.0000 C   0  0  0  0  0  0  0  0  0  0  0  0
    2.8119    1.7203    0.0000 C   0  0  0  0  0  0  0  0  0  0  0  0
   16.5865   -1.3091    0.0000 C   0  0  0  0  0  0  0  0  0  0  0  0
    2.0000    2.3041    0.0000 C   0  0  0  0  0  0  0  0  0  0  0  0
   17.5865   -1.3041    0.0000 C   0  0  0  0  0  0  0  0  0  0  0  0
    9.1648    0.9229    0.0000 H   0  0  0  0  0  0  0  0  0  0  0  0
    8.2572   -1.0952    0.0000 H   0  0  0  0  0  0  0  0  0  0  0  0
    8.9455   -0.6932    0.0000 H   0  0  0  0  0  0  0  0  0  0  0  0
    8.9348    1.4629    0.0000 H   0  0  0  0  0  0  0  0  0  0  0  0
    8.2425    1.8580    0.0000 H   0  0  0  0  0  0  0  0  0  0  0  0
    6.5449    0.9099    0.0000 H   0  0  0  0  0  0  0  0  0  0  0  0
    6.7803   -0.7040    0.0000 H   0  0  0  0  0  0  0  0  0  0  0  0
    7.4726   -1.0991    0.0000 H   0  0  0  0  0  0  0  0  0  0  0  0
    7.4578    1.8541    0.0000 H   0  0  0  0  0  0  0  0  0  0  0  0
    6.7696    1.4521    0.0000 H   0  0  0  0  0  0  0  0  0  0  0  0
   10.4390    0.6044    0.0000 H   0  0  0  0  0  0  0  0  0  0  0  0
    9.7468    0.9995    0.0000 H   0  0  0  0  0  0  0  0  0  0  0  0
    9.7803   -0.6890    0.0000 H   0  0  0  0  0  0  0  0  0  0  0  0
   10.4725   -1.0841    0.0000 H   0  0  0  0  0  0  0  0  0  0  0  0
    5.5502   -0.1690    0.0000 H   0  0  0  0  0  0  0  0  0  0  0  0
   11.7881    1.0540    0.0000 H   0  0  0  0  0  0  0  0  0  0  0  0
   11.1861    0.5690    0.0000 H   0  0  0  0  0  0  0  0  0  0  0  0
   11.1964   -1.5089    0.0000 H   0  0  0  0  0  0  0  0  0  0  0  0
   11.8033   -1.9879    0.0000 H   0  0  0  0  0  0  0  0  0  0  0  0
   13.2478    1.0504    0.0000 H   0  0  0  0  0  0  0  0  0  0  0  0
   12.4932    1.2186    0.0000 H   0  0  0  0  0  0  0  0  0  0  0  0
   12.5100   -2.1455    0.0000 H   0  0  0  0  0  0  0  0  0  0  0  0
   13.2629   -1.9697    0.0000 H   0  0  0  0  0  0  0  0  0  0  0  0
   16.0050   -1.5240    0.0000 H   0  0  0  0  0  0  0  0  0  0  0  0
   16.6972   -1.9191    0.0000 H   0  0  0  0  0  0  0  0  0  0  0  0
    2.3619    2.8075    0.0000 H   0  0  0  0  0  0  0  0  0  0  0  0
    1.4966    2.6660    0.0000 H   0  0  0  0  0  0  0  0  0  0  0  0
    1.6381    1.8007    0.0000 H   0  0  0  0  0  0  0  0  0  0  0  0
  1 25  1  0  0  0  0
  1 29  1  0  0  0  0
  2 33  1  0  0  0  0
  3 33  1  0  0  0  0
  4 33  1  0  0  0  0
  5 27  2  0  0  0  0
  6 29  1  0  0  0  0
  6 31  1  0  0  0  0
  7 12  1  0  0  0  0
  7 30  1  0  0  0  0
  8 20  1  0  0  0  0
  8 21  1  0  0  0  0
  8 22  1  0  0  0  0
  9 16  1  0  0  0  0
  9 27  1  0  0  0  0
  9 48  1  0  0  0  0
 10 26  1  0  0  0  0
 10 29  2  0  0  0  0
 11 28  1  0  0  0  0
 11 30  2  0  0  0  0
 12 28  2  0  0  0  0
 13 14  1  0  0  0  0
 13 15  1  0  0  0  0
 13 19  1  0  0  0  0
 13 34  1  0  0  0  0
 14 17  1  0  0  0  0
 14 35  1  0  0  0  0
 14 36  1  0  0  0  0
 15 18  1  0  0  0  0
 15 37  1  0  0  0  0
 15 38  1  0  0  0  0
 16 17  1  0  0  0  0
 16 18  1  0  0  0  0
 16 39  1  0  0  0  0
 17 40  1  0  0  0  0
 17 41  1  0  0  0  0
 18 42  1  0  0  0  0
 18 43  1  0  0  0  0
 19 20  1  0  0  0  0
 19 44  1  0  0  0  0
 19 45  1  0  0  0  0
 20 46  1  0  0  0  0
 20 47  1  0  0  0  0
 21 23  1  0  0  0  0
 21 49  1  0  0  0  0
 21 50  1  0  0  0  0
 22 24  1  0  0  0  0
 22 51  1  0  0  0  0
 22 52  1  0  0  0  0
 23 25  1  0  0  0  0
 23 53  1  0  0  0  0
 23 54  1  0  0  0  0
 24 26  1  0  0  0  0
 24 55  1  0  0  0  0
 24 56  1  0  0  0  0
 25 26  2  0  0  0  0
 27 28  1  0  0  0  0
 30 32  1  0  0  0  0
 31 33  1  0  0  0  0
 31 57  1  0  0  0  0
 31 58  1  0  0  0  0
 32 59  1  0  0  0  0
 32 60  1  0  0  0  0
 32 61  1  0  0  0  0
M  END
> <PUBCHEM_COMPOUND_CID>
165112407

> <PUBCHEM_COMPOUND_CANONICALIZED>
1

> <PUBCHEM_CACTVS_COMPLEXITY>
653

> <PUBCHEM_CACTVS_HBOND_ACCEPTOR>
11

> <PUBCHEM_CACTVS_HBOND_DONOR>
1

> <PUBCHEM_CACTVS_ROTATABLE_BOND>
7

> <PUBCHEM_CACTVS_SUBSKEYS>
AAADceB7sYBAAAAAAAAAAAAAAAAAAWLAAAAwAAAABYAAAACx4AAAHwQUAAAADSjh1xYDkRfYFAitAQdwdgAA8KljCLghGJS4QAiAaAJgyCEcAAAgFwLISAMQgIAOAAAAAAAAAAAQAAAAAAAAAAAAAAAAAA==

> <PUBCHEM_IUPAC_OPENEYE_NAME>
5-methyl-N-[4-[2-[2-(2,2,2-trifluoroethoxy)-4,5,7,8-tetrahydrothiazolo[4,5-d]azepin-6-yl]ethyl]cyclohexyl]-1,2,4-oxadiazole-3-carboxamide

> <PUBCHEM_IUPAC_CAS_NAME>
5-methyl-N-[4-[2-[2-(2,2,2-trifluoroethoxy)-4,5,7,8-tetrahydrothiazolo[4,5-d]azepin-6-yl]ethyl]cyclohexyl]-1,2,4-oxadiazole-3-carboxamide

> <PUBCHEM_IUPAC_NAME_MARKUP>
5-methyl-<I>N</I>-[4-[2-[2-(2,2,2-trifluoroethoxy)-4,5,7,8-tetrahydro-[1,3]thiazolo[4,5-d]azepin-6-yl]ethyl]cyclohexyl]-1,2,4-oxadiazole-3-carboxamide

> <PUBCHEM_IUPAC_NAME>
5-methyl-N-[4-[2-[2-(2,2,2-trifluoroethoxy)-4,5,7,8-tetrahydro-[1,3]thiazolo[4,5-d]azepin-6-yl]ethyl]cyclohexyl]-1,2,4-oxadiazole-3-carboxamide

> <PUBCHEM_IUPAC_SYSTEMATIC_NAME>
5-methyl-N-[4-[2-[2-[2,2,2-tris(fluoranyl)ethoxy]-4,5,7,8-tetrahydro-[1,3]thiazolo[4,5-d]azepin-6-yl]ethyl]cyclohexyl]-1,2,4-oxadiazole-3-carboxamide

> <PUBCHEM_IUPAC_TRADITIONAL_NAME>
5-methyl-N-[4-[2-[2-(2,2,2-trifluoroethoxy)-4,5,7,8-tetrahydrothiazol[4,5-d]azepin-6-yl]ethyl]cyclohexyl]-1,2,4-oxadiazole-3-carboxamide

> <PUBCHEM_IUPAC_INCHI>
InChI=1S/C21H28F3N5O3S/c1-13-25-18(28-32-13)19(30)26-15-4-2-14(3-5-15)6-9-29-10-7-16-17(8-11-29)33-20(27-16)31-12-21(22,23)24/h14-15H,2-12H2,1H3,(H,26,30)

> <PUBCHEM_IUPAC_INCHIKEY>
TXJLVFDHHWCPFJ-UHFFFAOYSA-N

> <PUBCHEM_XLOGP3_AA>
4.6

> <PUBCHEM_EXACT_MASS>
487.18649543

> <PUBCHEM_MOLECULAR_FORMULA>
C21H28F3N5O3S

> <PUBCHEM_MOLECULAR_WEIGHT>
487.5

> <PUBCHEM_OPENEYE_CAN_SMILES>
CC1=NC(=NO1)C(=O)NC2CCC(CC2)CCN3CCC4=C(CC3)SC(=N4)OCC(F)(F)F

> <PUBCHEM_OPENEYE_ISO_SMILES>
CC1=NC(=NO1)C(=O)NC2CCC(CC2)CCN3CCC4=C(CC3)SC(=N4)OCC(F)(F)F

> <PUBCHEM_CACTVS_TPSA>
122

> <PUBCHEM_MONOISOTOPIC_WEIGHT>
487.18649543

> <PUBCHEM_TOTAL_CHARGE>
0

> <PUBCHEM_HEAVY_ATOM_COUNT>
33

> <PUBCHEM_ATOM_DEF_STEREO_COUNT>
0

> <PUBCHEM_ATOM_UDEF_STEREO_COUNT>
0

> <PUBCHEM_BOND_DEF_STEREO_COUNT>
0

> <PUBCHEM_BOND_UDEF_STEREO_COUNT>
0

> <PUBCHEM_ISOTOPIC_ATOM_COUNT>
0

> <PUBCHEM_COMPONENT_COUNT>
1

> <PUBCHEM_CACTVS_TAUTO_COUNT>
-1

> <PUBCHEM_COORDINATE_TYPE>
1
5
255

> <PUBCHEM_BONDANNOTATIONS>
1  25  8
1  29  8
10  26  8
10  29  8
11  28  8
11  30  8
12  28  8
25  26  8
7  12  8
7  30  8

$$$$
