75201901
  -OEChem-09292322412D

 43 47  0     0  0  0  0  0  0999 V2000
    4.5981    1.4626    0.0000 O   0  0  0  0  0  0  0  0  0  0  0  0
    3.0752    4.4344    0.0000 O   0  0  0  0  0  0  0  0  0  0  0  0
    5.4641   -3.0374    0.0000 N   0  0  0  0  0  0  0  0  0  0  0  0
    3.7320   -4.0374    0.0000 N   0  0  0  0  0  0  0  0  0  0  0  0
    6.4103   -4.3422    0.0000 N   0  0  0  0  0  0  0  0  0  0  0  0
    2.8660    1.4626    0.0000 N   0  0  0  0  0  0  0  0  0  0  0  0
    4.5981   -2.5374    0.0000 C   0  0  0  0  0  0  0  0  0  0  0  0
    4.5981   -1.5374    0.0000 C   0  0  0  0  0  0  0  0  0  0  0  0
    5.4641   -1.0374    0.0000 C   0  0  0  0  0  0  0  0  0  0  0  0
    3.7320   -3.0374    0.0000 C   0  0  0  0  0  0  0  0  0  0  0  0
    5.4641   -4.0374    0.0000 C   0  0  0  0  0  0  0  0  0  0  0  0
    3.7320   -1.0374    0.0000 C   0  0  0  0  0  0  0  0  0  0  0  0
    5.4641   -0.0374    0.0000 C   0  0  0  0  0  0  0  0  0  0  0  0
    4.5981    0.4626    0.0000 C   0  0  0  0  0  0  0  0  0  0  0  0
    6.4103   -2.7327    0.0000 C   0  0  0  0  0  0  0  0  0  0  0  0
    3.7320   -0.0374    0.0000 C   0  0  0  0  0  0  0  0  0  0  0  0
    6.3301   -1.5374    0.0000 C   0  0  0  0  0  0  0  0  0  0  0  0
    4.5981   -4.5374    0.0000 C   0  0  0  0  0  0  0  0  0  0  0  0
    2.8660   -2.5374    0.0000 C   0  0  0  0  0  0  0  0  0  0  0  0
    6.9939   -3.5374    0.0000 C   0  0  0  0  0  0  0  0  0  0  0  0
    3.7320    2.9626    0.0000 C   0  0  0  0  0  0  0  0  0  0  0  0
    3.7320    1.9626    0.0000 C   0  0  0  0  0  0  0  0  0  0  0  0
    2.8660    3.4626    0.0000 C   0  0  0  0  0  0  0  0  0  0  0  0
    4.4691    3.6296    0.0000 C   0  0  0  0  0  0  0  0  0  0  0  0
    2.0000    2.9626    0.0000 C   0  0  0  0  0  0  0  0  0  0  0  0
    4.0640    4.5374    0.0000 C   0  0  0  0  0  0  0  0  0  0  0  0
    2.0000    1.9626    0.0000 C   0  0  0  0  0  0  0  0  0  0  0  0
    3.1951   -1.3474    0.0000 H   0  0  0  0  0  0  0  0  0  0  0  0
    6.0010    0.2726    0.0000 H   0  0  0  0  0  0  0  0  0  0  0  0
    6.6029   -2.1434    0.0000 H   0  0  0  0  0  0  0  0  0  0  0  0
    3.1951    0.2726    0.0000 H   0  0  0  0  0  0  0  0  0  0  0  0
    6.0201   -2.0744    0.0000 H   0  0  0  0  0  0  0  0  0  0  0  0
    6.8671   -1.8474    0.0000 H   0  0  0  0  0  0  0  0  0  0  0  0
    6.6401   -1.0005    0.0000 H   0  0  0  0  0  0  0  0  0  0  0  0
    4.5981   -5.1574    0.0000 H   0  0  0  0  0  0  0  0  0  0  0  0
    3.1760   -2.0005    0.0000 H   0  0  0  0  0  0  0  0  0  0  0  0
    2.3291   -2.2274    0.0000 H   0  0  0  0  0  0  0  0  0  0  0  0
    2.5560   -3.0744    0.0000 H   0  0  0  0  0  0  0  0  0  0  0  0
    7.6139   -3.5374    0.0000 H   0  0  0  0  0  0  0  0  0  0  0  0
    5.0757    3.5018    0.0000 H   0  0  0  0  0  0  0  0  0  0  0  0
    1.4631    3.2726    0.0000 H   0  0  0  0  0  0  0  0  0  0  0  0
    4.3740    5.0744    0.0000 H   0  0  0  0  0  0  0  0  0  0  0  0
    1.4631    1.6526    0.0000 H   0  0  0  0  0  0  0  0  0  0  0  0
  1 14  1  0  0  0  0
  1 22  1  0  0  0  0
  2 23  1  0  0  0  0
  2 26  1  0  0  0  0
  3  7  1  0  0  0  0
  3 11  1  0  0  0  0
  3 15  1  0  0  0  0
  4 10  1  0  0  0  0
  4 18  2  0  0  0  0
  5 11  2  0  0  0  0
  5 20  1  0  0  0  0
  6 22  2  0  0  0  0
  6 27  1  0  0  0  0
  7  8  1  0  0  0  0
  7 10  2  0  0  0  0
  8  9  2  0  0  0  0
  8 12  1  0  0  0  0
  9 13  1  0  0  0  0
  9 17  1  0  0  0  0
 10 19  1  0  0  0  0
 11 18  1  0  0  0  0
 12 16  2  0  0  0  0
 12 28  1  0  0  0  0
 13 14  2  0  0  0  0
 13 29  1  0  0  0  0
 14 16  1  0  0  0  0
 15 20  2  0  0  0  0
 15 30  1  0  0  0  0
 16 31  1  0  0  0  0
 17 32  1  0  0  0  0
 17 33  1  0  0  0  0
 17 34  1  0  0  0  0
 18 35  1  0  0  0  0
 19 36  1  0  0  0  0
 19 37  1  0  0  0  0
 19 38  1  0  0  0  0
 20 39  1  0  0  0  0
 21 22  1  0  0  0  0
 21 23  2  0  0  0  0
 21 24  1  0  0  0  0
 23 25  1  0  0  0  0
 24 26  2  0  0  0  0
 24 40  1  0  0  0  0
 25 27  2  0  0  0  0
 25 41  1  0  0  0  0
 26 42  1  0  0  0  0
 27 43  1  0  0  0  0
M  END
> <PUBCHEM_COMPOUND_CID>
75201901

> <PUBCHEM_COMPOUND_CANONICALIZED>
1

> <PUBCHEM_CACTVS_COMPLEXITY>
520

> <PUBCHEM_CACTVS_HBOND_ACCEPTOR>
5

> <PUBCHEM_CACTVS_HBOND_DONOR>
0

> <PUBCHEM_CACTVS_ROTATABLE_BOND>
3

> <PUBCHEM_CACTVS_SUBSKEYS>
AAADceB7sAAAAAAAAAAAAAAAAAAAAWJAAAA8WIAAAAAAAFgB/gAAHgAAAAAADAzhnwY/tt8MHECoA7535ACCiC01MqAJ2CE+fNiMb/7EvZueOejv4B/I6ef+2LMOoAABAAAQAABAAAIAACAAAAAAAAAAAA==

> <PUBCHEM_IUPAC_OPENEYE_NAME>
4-[3-methyl-4-(6-methylimidazo[1,2-a]pyrazin-5-yl)phenoxy]furo[3,2-c]pyridine

> <PUBCHEM_IUPAC_CAS_NAME>
4-[3-methyl-4-(6-methyl-5-imidazo[1,2-a]pyrazinyl)phenoxy]furo[3,2-c]pyridine

> <PUBCHEM_IUPAC_NAME_MARKUP>
4-[3-methyl-4-(6-methylimidazo[1,2-a]pyrazin-5-yl)phenoxy]furo[3,2-c]pyridine

> <PUBCHEM_IUPAC_NAME>
4-[3-methyl-4-(6-methylimidazo[1,2-a]pyrazin-5-yl)phenoxy]furo[3,2-c]pyridine

> <PUBCHEM_IUPAC_SYSTEMATIC_NAME>
4-[3-methyl-4-(6-methylimidazo[1,2-a]pyrazin-5-yl)phenoxy]furo[3,2-c]pyridine

> <PUBCHEM_IUPAC_TRADITIONAL_NAME>
4-[3-methyl-4-(6-methylimidazo[1,2-a]pyrazin-5-yl)phenoxy]furo[3,2-c]pyridine

> <PUBCHEM_IUPAC_INCHI>
InChI=1S/C21H16N4O2/c1-13-11-15(27-21-17-6-10-26-18(17)5-7-23-21)3-4-16(13)20-14(2)24-12-19-22-8-9-25(19)20/h3-12H,1-2H3

> <PUBCHEM_IUPAC_INCHIKEY>
HWAIAGZSWHOLLK-UHFFFAOYSA-N

> <PUBCHEM_XLOGP3_AA>
4.3

> <PUBCHEM_EXACT_MASS>
356.12732577

> <PUBCHEM_MOLECULAR_FORMULA>
C21H16N4O2

> <PUBCHEM_MOLECULAR_WEIGHT>
356.4

> <PUBCHEM_OPENEYE_CAN_SMILES>
CC1=C(C=CC(=C1)OC2=NC=CC3=C2C=CO3)C4=C(N=CC5=NC=CN54)C

> <PUBCHEM_OPENEYE_ISO_SMILES>
CC1=C(C=CC(=C1)OC2=NC=CC3=C2C=CO3)C4=C(N=CC5=NC=CN54)C

> <PUBCHEM_CACTVS_TPSA>
65.4

> <PUBCHEM_MONOISOTOPIC_WEIGHT>
356.12732577

> <PUBCHEM_TOTAL_CHARGE>
0

> <PUBCHEM_HEAVY_ATOM_COUNT>
27

> <PUBCHEM_ATOM_DEF_STEREO_COUNT>
0

> <PUBCHEM_ATOM_UDEF_STEREO_COUNT>
0

> <PUBCHEM_BOND_DEF_STEREO_COUNT>
0

> <PUBCHEM_BOND_UDEF_STEREO_COUNT>
0

> <PUBCHEM_ISOTOPIC_ATOM_COUNT>
0

> <PUBCHEM_COMPONENT_COUNT>
1

> <PUBCHEM_CACTVS_TAUTO_COUNT>
-1

> <PUBCHEM_COORDINATE_TYPE>
1
5
255

> <PUBCHEM_BONDANNOTATIONS>
11  18  8
12  16  8
13  14  8
14  16  8
15  20  8
2  23  8
2  26  8
21  22  8
21  23  8
21  24  8
23  25  8
24  26  8
25  27  8
3  11  8
3  15  8
3  7  8
4  10  8
4  18  8
5  11  8
5  20  8
6  22  8
6  27  8
7  10  8
8  12  8
8  9  8
9  13  8

$$$$
