24823922
  -OEChem-09292322262D

 49 52  0     0  0  0  0  0  0999 V2000
   10.2852   -2.6453    0.0000 F   0  0  0  0  0  0  0  0  0  0  0  0
    9.2601   -0.2062    0.0000 O   0  0  0  0  0  0  0  0  0  0  0  0
    5.9674    0.8699    0.0000 N   0  0  0  0  0  0  0  0  0  0  0  0
    7.9244    1.2824    0.0000 N   0  0  0  0  0  0  0  0  0  0  0  0
    3.7320   -1.5915    0.0000 N   0  0  0  0  0  0  0  0  0  0  0  0
    4.6783   -1.8963    0.0000 N   0  0  0  0  0  0  0  0  0  0  0  0
    6.2781    1.8205    0.0000 C   0  0  0  0  0  0  0  0  0  0  0  0
    6.6353    0.1256    0.0000 C   0  0  0  0  0  0  0  0  0  0  0  0
    7.2566    2.0267    0.0000 C   0  0  0  0  0  0  0  0  0  0  0  0
    7.6138    0.3319    0.0000 C   0  0  0  0  0  0  0  0  0  0  0  0
    4.9889    0.6637    0.0000 C   0  0  0  0  0  0  0  0  0  0  0  0
    8.9030    1.4886    0.0000 C   0  0  0  0  0  0  0  0  0  0  0  0
    4.6783   -0.2868    0.0000 C   0  0  0  0  0  0  0  0  0  0  0  0
    3.7320   -0.5915    0.0000 C   0  0  0  0  0  0  0  0  0  0  0  0
    9.5708    0.7443    0.0000 C   0  0  0  0  0  0  0  0  0  0  0  0
    9.2136    2.4391    0.0000 C   0  0  0  0  0  0  0  0  0  0  0  0
    5.2619   -1.0915    0.0000 C   0  0  0  0  0  0  0  0  0  0  0  0
    2.8660   -0.0915    0.0000 C   0  0  0  0  0  0  0  0  0  0  0  0
   10.5493    0.9505    0.0000 C   0  0  0  0  0  0  0  0  0  0  0  0
   10.1921    2.6453    0.0000 C   0  0  0  0  0  0  0  0  0  0  0  0
   10.8600    1.9010    0.0000 C   0  0  0  0  0  0  0  0  0  0  0  0
    2.8660   -2.0915    0.0000 C   0  0  0  0  0  0  0  0  0  0  0  0
    2.0000   -0.5915    0.0000 C   0  0  0  0  0  0  0  0  0  0  0  0
    2.0000   -1.5915    0.0000 C   0  0  0  0  0  0  0  0  0  0  0  0
    9.9280   -0.9505    0.0000 C   0  0  0  0  0  0  0  0  0  0  0  0
    9.6173   -1.9010    0.0000 C   0  0  0  0  0  0  0  0  0  0  0  0
    6.2575    2.4401    0.0000 H   0  0  0  0  0  0  0  0  0  0  0  0
    5.6643    1.9078    0.0000 H   0  0  0  0  0  0  0  0  0  0  0  0
    6.1089   -0.2020    0.0000 H   0  0  0  0  0  0  0  0  0  0  0  0
    6.8665   -0.4496    0.0000 H   0  0  0  0  0  0  0  0  0  0  0  0
    7.7830    2.3543    0.0000 H   0  0  0  0  0  0  0  0  0  0  0  0
    7.0254    2.6019    0.0000 H   0  0  0  0  0  0  0  0  0  0  0  0
    7.6344   -0.2878    0.0000 H   0  0  0  0  0  0  0  0  0  0  0  0
    8.2276    0.2445    0.0000 H   0  0  0  0  0  0  0  0  0  0  0  0
    4.9684    1.2834    0.0000 H   0  0  0  0  0  0  0  0  0  0  0  0
    4.3751    0.7511    0.0000 H   0  0  0  0  0  0  0  0  0  0  0  0
    8.7996    2.9006    0.0000 H   0  0  0  0  0  0  0  0  0  0  0  0
    5.8819   -1.0915    0.0000 H   0  0  0  0  0  0  0  0  0  0  0  0
    2.8660    0.5285    0.0000 H   0  0  0  0  0  0  0  0  0  0  0  0
   10.9634    0.4891    0.0000 H   0  0  0  0  0  0  0  0  0  0  0  0
   10.3847    3.2347    0.0000 H   0  0  0  0  0  0  0  0  0  0  0  0
   11.4666    2.0289    0.0000 H   0  0  0  0  0  0  0  0  0  0  0  0
    2.8660   -2.7115    0.0000 H   0  0  0  0  0  0  0  0  0  0  0  0
    1.4631   -0.2815    0.0000 H   0  0  0  0  0  0  0  0  0  0  0  0
    1.4631   -1.9015    0.0000 H   0  0  0  0  0  0  0  0  0  0  0  0
   10.4749   -1.2425    0.0000 H   0  0  0  0  0  0  0  0  0  0  0  0
   10.3105   -0.4626    0.0000 H   0  0  0  0  0  0  0  0  0  0  0  0
    9.0704   -1.6090    0.0000 H   0  0  0  0  0  0  0  0  0  0  0  0
    9.2348   -2.3890    0.0000 H   0  0  0  0  0  0  0  0  0  0  0  0
  1 26  1  0  0  0  0
  2 15  1  0  0  0  0
  2 25  1  0  0  0  0
  3  7  1  0  0  0  0
  3  8  1  0  0  0  0
  3 11  1  0  0  0  0
  4  9  1  0  0  0  0
  4 10  1  0  0  0  0
  4 12  1  0  0  0  0
  5  6  1  0  0  0  0
  5 14  1  0  0  0  0
  5 22  1  0  0  0  0
  6 17  2  0  0  0  0
  7  9  1  0  0  0  0
  7 27  1  0  0  0  0
  7 28  1  0  0  0  0
  8 10  1  0  0  0  0
  8 29  1  0  0  0  0
  8 30  1  0  0  0  0
  9 31  1  0  0  0  0
  9 32  1  0  0  0  0
 10 33  1  0  0  0  0
 10 34  1  0  0  0  0
 11 13  1  0  0  0  0
 11 35  1  0  0  0  0
 11 36  1  0  0  0  0
 12 15  1  0  0  0  0
 12 16  2  0  0  0  0
 13 14  2  0  0  0  0
 13 17  1  0  0  0  0
 14 18  1  0  0  0  0
 15 19  2  0  0  0  0
 16 20  1  0  0  0  0
 16 37  1  0  0  0  0
 17 38  1  0  0  0  0
 18 23  2  0  0  0  0
 18 39  1  0  0  0  0
 19 21  1  0  0  0  0
 19 40  1  0  0  0  0
 20 21  2  0  0  0  0
 20 41  1  0  0  0  0
 21 42  1  0  0  0  0
 22 24  2  0  0  0  0
 22 43  1  0  0  0  0
 23 24  1  0  0  0  0
 23 44  1  0  0  0  0
 24 45  1  0  0  0  0
 25 26  1  0  0  0  0
 25 46  1  0  0  0  0
 25 47  1  0  0  0  0
 26 48  1  0  0  0  0
 26 49  1  0  0  0  0
M  END
> <PUBCHEM_COMPOUND_CID>
24823922

> <PUBCHEM_COMPOUND_CANONICALIZED>
1

> <PUBCHEM_CACTVS_COMPLEXITY>
432

> <PUBCHEM_CACTVS_HBOND_ACCEPTOR>
5

> <PUBCHEM_CACTVS_HBOND_DONOR>
0

> <PUBCHEM_CACTVS_ROTATABLE_BOND>
6

> <PUBCHEM_CACTVS_SUBSKEYS>
AAADceB7oQAAAAAAAAAAAAAAAAAAAWAAAAA8WIAAAAAAAFgB8AAAHwAIAAAADAzhngY8xrMIFACiAzRnRACSjCAxoiAY2CA/bJgOZuLE8duXvCjkyBHY6AeQwEAMAAAAAAAAEAAAAAAAAAAgAAAAAAAAAA==

> <PUBCHEM_IUPAC_OPENEYE_NAME>
3-[[4-[2-(2-fluoroethoxy)phenyl]piperazin-1-yl]methyl]pyrazolo[1,5-a]pyridine

> <PUBCHEM_IUPAC_CAS_NAME>
3-[[4-[2-(2-fluoroethoxy)phenyl]-1-piperazinyl]methyl]pyrazolo[1,5-a]pyridine

> <PUBCHEM_IUPAC_NAME_MARKUP>
3-[[4-[2-(2-fluoroethoxy)phenyl]piperazin-1-yl]methyl]pyrazolo[1,5-a]pyridine

> <PUBCHEM_IUPAC_NAME>
3-[[4-[2-(2-fluoroethoxy)phenyl]piperazin-1-yl]methyl]pyrazolo[1,5-a]pyridine

> <PUBCHEM_IUPAC_SYSTEMATIC_NAME>
3-[[4-[2-(2-fluoranylethoxy)phenyl]piperazin-1-yl]methyl]pyrazolo[1,5-a]pyridine

> <PUBCHEM_IUPAC_TRADITIONAL_NAME>
3-[[4-[2-(2-fluoroethoxy)phenyl]piperazino]methyl]pyrazolo[1,5-a]pyridine

> <PUBCHEM_IUPAC_INCHI>
InChI=1S/C20H23FN4O/c21-8-14-26-20-7-2-1-6-19(20)24-12-10-23(11-13-24)16-17-15-22-25-9-4-3-5-18(17)25/h1-7,9,15H,8,10-14,16H2

> <PUBCHEM_IUPAC_INCHIKEY>
RGBHOSATWXCXSR-UHFFFAOYSA-N

> <PUBCHEM_XLOGP3_AA>
2.8

> <PUBCHEM_EXACT_MASS>
354.18558953

> <PUBCHEM_MOLECULAR_FORMULA>
C20H23FN4O

> <PUBCHEM_MOLECULAR_WEIGHT>
354.4

> <PUBCHEM_OPENEYE_CAN_SMILES>
C1CN(CCN1CC2=C3C=CC=CN3N=C2)C4=CC=CC=C4OCCF

> <PUBCHEM_OPENEYE_ISO_SMILES>
C1CN(CCN1CC2=C3C=CC=CN3N=C2)C4=CC=CC=C4OCCF

> <PUBCHEM_CACTVS_TPSA>
33

> <PUBCHEM_MONOISOTOPIC_WEIGHT>
354.18558953

> <PUBCHEM_TOTAL_CHARGE>
0

> <PUBCHEM_HEAVY_ATOM_COUNT>
26

> <PUBCHEM_ATOM_DEF_STEREO_COUNT>
0

> <PUBCHEM_ATOM_UDEF_STEREO_COUNT>
0

> <PUBCHEM_BOND_DEF_STEREO_COUNT>
0

> <PUBCHEM_BOND_UDEF_STEREO_COUNT>
0

> <PUBCHEM_ISOTOPIC_ATOM_COUNT>
0

> <PUBCHEM_COMPONENT_COUNT>
1

> <PUBCHEM_CACTVS_TAUTO_COUNT>
-1

> <PUBCHEM_COORDINATE_TYPE>
1
5
255

> <PUBCHEM_BONDANNOTATIONS>
12  15  8
12  16  8
13  14  8
13  17  8
14  18  8
15  19  8
16  20  8
18  23  8
19  21  8
20  21  8
22  24  8
23  24  8
5  14  8
5  22  8
5  6  8
6  17  8

$$$$
