155525527
  -OEChem-09292322012D

 58 60  0     1  0  0  0  0  0999 V2000
   13.8755   -0.6003    0.0000 S   0  0  0  0  0  0  0  0  0  0  0  0
    4.2690    2.0950    0.0000 O   0  0  0  0  0  0  0  0  0  0  0  0
    2.5369    1.0950    0.0000 O   0  0  0  0  0  0  0  0  0  0  0  0
   10.3312   -0.4050    0.0000 N   0  0  3  0  0  0  0  0  0  0  0  0
   13.8755   -2.2097    0.0000 N   0  0  0  0  0  0  0  0  0  0  0  0
   15.4591   -1.4050    0.0000 N   0  0  0  0  0  0  0  0  0  0  0  0
   11.1972   -0.9050    0.0000 C   0  0  1  0  0  0  0  0  0  0  0  0
   11.1972   -1.9050    0.0000 C   0  0  0  0  0  0  0  0  0  0  0  0
   12.0632   -0.4050    0.0000 C   0  0  0  0  0  0  0  0  0  0  0  0
   12.0632   -2.4050    0.0000 C   0  0  0  0  0  0  0  0  0  0  0  0
    9.4651   -0.9050    0.0000 C   0  0  0  0  0  0  0  0  0  0  0  0
   12.9292   -0.9050    0.0000 C   0  0  0  0  0  0  0  0  0  0  0  0
   10.3312    0.5950    0.0000 C   0  0  0  0  0  0  0  0  0  0  0  0
   12.9292   -1.9050    0.0000 C   0  0  0  0  0  0  0  0  0  0  0  0
    8.5991   -0.4050    0.0000 C   0  0  0  0  0  0  0  0  0  0  0  0
    7.7331   -0.9050    0.0000 C   0  0  0  0  0  0  0  0  0  0  0  0
    9.4651    1.0950    0.0000 C   0  0  0  0  0  0  0  0  0  0  0  0
    6.8671   -0.4050    0.0000 C   0  0  0  0  0  0  0  0  0  0  0  0
   14.4591   -1.4050    0.0000 C   0  0  0  0  0  0  0  0  0  0  0  0
    9.4651    2.0950    0.0000 C   0  0  0  0  0  0  0  0  0  0  0  0
    6.0010   -0.9050    0.0000 C   0  0  0  0  0  0  0  0  0  0  0  0
    5.1350   -0.4050    0.0000 C   0  0  0  0  0  0  0  0  0  0  0  0
    5.1350    0.5950    0.0000 C   0  0  0  0  0  0  0  0  0  0  0  0
    4.2690   -0.9050    0.0000 C   0  0  0  0  0  0  0  0  0  0  0  0
    4.2690    1.0950    0.0000 C   0  0  0  0  0  0  0  0  0  0  0  0
    3.4030   -0.4050    0.0000 C   0  0  0  0  0  0  0  0  0  0  0  0
    3.4030    0.5950    0.0000 C   0  0  0  0  0  0  0  0  0  0  0  0
   10.6603   -1.2150    0.0000 H   0  0  0  0  0  0  0  0  0  0  0  0
   10.5866   -1.7973    0.0000 H   0  0  0  0  0  0  0  0  0  0  0  0
   10.9851   -2.4876    0.0000 H   0  0  0  0  0  0  0  0  0  0  0  0
   12.4617    0.0699    0.0000 H   0  0  0  0  0  0  0  0  0  0  0  0
   11.6647    0.0699    0.0000 H   0  0  0  0  0  0  0  0  0  0  0  0
   11.6647   -2.8800    0.0000 H   0  0  0  0  0  0  0  0  0  0  0  0
   12.4617   -2.8800    0.0000 H   0  0  0  0  0  0  0  0  0  0  0  0
    9.0666   -1.3800    0.0000 H   0  0  0  0  0  0  0  0  0  0  0  0
    9.8637   -1.3800    0.0000 H   0  0  0  0  0  0  0  0  0  0  0  0
   10.9417    0.4873    0.0000 H   0  0  0  0  0  0  0  0  0  0  0  0
   10.5432    1.1776    0.0000 H   0  0  0  0  0  0  0  0  0  0  0  0
    8.9976    0.0699    0.0000 H   0  0  0  0  0  0  0  0  0  0  0  0
    8.2006    0.0699    0.0000 H   0  0  0  0  0  0  0  0  0  0  0  0
    7.3346   -1.3800    0.0000 H   0  0  0  0  0  0  0  0  0  0  0  0
    8.1316   -1.3800    0.0000 H   0  0  0  0  0  0  0  0  0  0  0  0
    8.8546    1.2027    0.0000 H   0  0  0  0  0  0  0  0  0  0  0  0
    9.2531    0.5124    0.0000 H   0  0  0  0  0  0  0  0  0  0  0  0
    7.2656    0.0699    0.0000 H   0  0  0  0  0  0  0  0  0  0  0  0
    6.4685    0.0699    0.0000 H   0  0  0  0  0  0  0  0  0  0  0  0
   10.0851    2.0950    0.0000 H   0  0  0  0  0  0  0  0  0  0  0  0
    9.4651    2.7150    0.0000 H   0  0  0  0  0  0  0  0  0  0  0  0
    8.8451    2.0950    0.0000 H   0  0  0  0  0  0  0  0  0  0  0  0
    5.6025   -1.3800    0.0000 H   0  0  0  0  0  0  0  0  0  0  0  0
    6.3996   -1.3800    0.0000 H   0  0  0  0  0  0  0  0  0  0  0  0
   15.7691   -1.9419    0.0000 H   0  0  0  0  0  0  0  0  0  0  0  0
   15.7691   -0.8681    0.0000 H   0  0  0  0  0  0  0  0  0  0  0  0
    5.6720    0.9050    0.0000 H   0  0  0  0  0  0  0  0  0  0  0  0
    4.2690   -1.5250    0.0000 H   0  0  0  0  0  0  0  0  0  0  0  0
    2.8660   -0.7150    0.0000 H   0  0  0  0  0  0  0  0  0  0  0  0
    3.7320    2.4050    0.0000 H   0  0  0  0  0  0  0  0  0  0  0  0
    2.0000    0.7850    0.0000 H   0  0  0  0  0  0  0  0  0  0  0  0
  1 12  1  0  0  0  0
  1 19  1  0  0  0  0
  2 25  1  0  0  0  0
  2 57  1  0  0  0  0
  3 27  1  0  0  0  0
  3 58  1  0  0  0  0
  7  4  1  6  0  0  0
  4 11  1  0  0  0  0
  4 13  1  0  0  0  0
  5 14  1  0  0  0  0
  5 19  2  0  0  0  0
  6 19  1  0  0  0  0
  6 52  1  0  0  0  0
  6 53  1  0  0  0  0
  7  8  1  0  0  0  0
  7  9  1  0  0  0  0
  7 28  1  0  0  0  0
  8 10  1  0  0  0  0
  8 29  1  0  0  0  0
  8 30  1  0  0  0  0
  9 12  1  0  0  0  0
  9 31  1  0  0  0  0
  9 32  1  0  0  0  0
 10 14  1  0  0  0  0
 10 33  1  0  0  0  0
 10 34  1  0  0  0  0
 11 15  1  0  0  0  0
 11 35  1  0  0  0  0
 11 36  1  0  0  0  0
 12 14  2  0  0  0  0
 13 17  1  0  0  0  0
 13 37  1  0  0  0  0
 13 38  1  0  0  0  0
 15 16  1  0  0  0  0
 15 39  1  0  0  0  0
 15 40  1  0  0  0  0
 16 18  1  0  0  0  0
 16 41  1  0  0  0  0
 16 42  1  0  0  0  0
 17 20  1  0  0  0  0
 17 43  1  0  0  0  0
 17 44  1  0  0  0  0
 18 21  1  0  0  0  0
 18 45  1  0  0  0  0
 18 46  1  0  0  0  0
 20 47  1  0  0  0  0
 20 48  1  0  0  0  0
 20 49  1  0  0  0  0
 21 22  1  0  0  0  0
 21 50  1  0  0  0  0
 21 51  1  0  0  0  0
 22 23  2  0  0  0  0
 22 24  1  0  0  0  0
 23 25  1  0  0  0  0
 23 54  1  0  0  0  0
 24 26  2  0  0  0  0
 24 55  1  0  0  0  0
 25 27  2  0  0  0  0
 26 27  1  0  0  0  0
 26 56  1  0  0  0  0
M  END
> <PUBCHEM_COMPOUND_CID>
155525527

> <PUBCHEM_COMPOUND_CANONICALIZED>
1

> <PUBCHEM_CACTVS_COMPLEXITY>
442

> <PUBCHEM_CACTVS_HBOND_ACCEPTOR>
6

> <PUBCHEM_CACTVS_HBOND_DONOR>
3

> <PUBCHEM_CACTVS_ROTATABLE_BOND>
9

> <PUBCHEM_CACTVS_SUBSKEYS>
AAADceB7MABAAAAAAAAAAAAAAAAAAWAAAAAwYAAAAAAAAFgBwAAAHgQQCAAADCzB3gQzl5NIEgikAyRiZAAC8KlhKDkImBQ+yIiJJiLikROEcAEkwBPJ2CeQwPAOIAABAAAAQABAAQIAQACCAAAAAAAAAA==

> <PUBCHEM_IUPAC_OPENEYE_NAME>
4-[5-[[(6S)-2-amino-4,5,6,7-tetrahydro-1,3-benzothiazol-6-yl]-propyl-amino]pentyl]benzene-1,2-diol

> <PUBCHEM_IUPAC_CAS_NAME>
4-[5-[[(6S)-2-amino-4,5,6,7-tetrahydro-1,3-benzothiazol-6-yl]-propylamino]pentyl]benzene-1,2-diol

> <PUBCHEM_IUPAC_NAME_MARKUP>
4-[5-[[(6<I>S</I>)-2-amino-4,5,6,7-tetrahydro-1,3-benzothiazol-6-yl]-propylamino]pentyl]benzene-1,2-diol

> <PUBCHEM_IUPAC_NAME>
4-[5-[[(6S)-2-amino-4,5,6,7-tetrahydro-1,3-benzothiazol-6-yl]-propylamino]pentyl]benzene-1,2-diol

> <PUBCHEM_IUPAC_SYSTEMATIC_NAME>
4-[5-[[(6S)-2-azanyl-4,5,6,7-tetrahydro-1,3-benzothiazol-6-yl]-propyl-amino]pentyl]benzene-1,2-diol

> <PUBCHEM_IUPAC_TRADITIONAL_NAME>
4-[5-[[(6S)-2-amino-4,5,6,7-tetrahydro-1,3-benzothiazol-6-yl]-propyl-amino]pentyl]pyrocatechol

> <PUBCHEM_IUPAC_INCHI>
InChI=1S/C21H31N3O2S/c1-2-11-24(16-8-9-17-20(14-16)27-21(22)23-17)12-5-3-4-6-15-7-10-18(25)19(26)13-15/h7,10,13,16,25-26H,2-6,8-9,11-12,14H2,1H3,(H2,22,23)/t16-/m0/s1

> <PUBCHEM_IUPAC_INCHIKEY>
CVHFBMSYCSPBIQ-INIZCTEOSA-N

> <PUBCHEM_XLOGP3_AA>
4.8

> <PUBCHEM_EXACT_MASS>
389.21369841

> <PUBCHEM_MOLECULAR_FORMULA>
C21H31N3O2S

> <PUBCHEM_MOLECULAR_WEIGHT>
389.6

> <PUBCHEM_OPENEYE_CAN_SMILES>
CCCN(CCCCCC1=CC(=C(C=C1)O)O)C2CCC3=C(C2)SC(=N3)N

> <PUBCHEM_OPENEYE_ISO_SMILES>
CCCN(CCCCCC1=CC(=C(C=C1)O)O)[C@H]2CCC3=C(C2)SC(=N3)N

> <PUBCHEM_CACTVS_TPSA>
111

> <PUBCHEM_MONOISOTOPIC_WEIGHT>
389.21369841

> <PUBCHEM_TOTAL_CHARGE>
0

> <PUBCHEM_HEAVY_ATOM_COUNT>
27

> <PUBCHEM_ATOM_DEF_STEREO_COUNT>
1

> <PUBCHEM_ATOM_UDEF_STEREO_COUNT>
0

> <PUBCHEM_BOND_DEF_STEREO_COUNT>
0

> <PUBCHEM_BOND_UDEF_STEREO_COUNT>
0

> <PUBCHEM_ISOTOPIC_ATOM_COUNT>
0

> <PUBCHEM_COMPONENT_COUNT>
1

> <PUBCHEM_CACTVS_TAUTO_COUNT>
-1

> <PUBCHEM_COORDINATE_TYPE>
1
5
255

> <PUBCHEM_BONDANNOTATIONS>
1  12  8
1  19  8
12  14  8
22  23  8
22  24  8
23  25  8
24  26  8
25  27  8
26  27  8
7  4  6
5  14  8
5  19  8

$$$$
