10457264
  -OEChem-09292322042D

 65 70  0     1  0  0  0  0  0999 V2000
    7.0164    3.7691    0.0000 O   0  0  0  0  0  0  0  0  0  0  0  0
    9.2056   -1.6340    0.0000 O   0  0  0  0  0  0  0  0  0  0  0  0
    4.5274    0.4393    0.0000 N   0  0  0  0  0  0  0  0  0  0  0  0
    5.6151    4.7872    0.0000 N   0  0  0  0  0  0  0  0  0  0  0  0
    7.9140   -2.7880    0.0000 N   0  0  0  0  0  0  0  0  0  0  0  0
    9.5592   -3.3296    0.0000 N   0  0  0  0  0  0  0  0  0  0  0  0
    4.5274    2.4393    0.0000 C   0  0  0  0  0  0  0  0  0  0  0  0
    5.3364    3.0271    0.0000 C   0  0  0  0  0  0  0  0  0  0  0  0
    3.6613    1.9393    0.0000 C   0  0  0  0  0  0  0  0  0  0  0  0
    5.3934    1.9393    0.0000 C   0  0  0  0  0  0  0  0  0  0  0  0
    3.7183    3.0271    0.0000 C   0  0  0  0  0  0  0  0  0  0  0  0
    5.0274    3.9781    0.0000 C   0  0  2  0  0  0  0  0  0  0  0  0
    4.0274    3.9781    0.0000 C   0  0  0  0  0  0  0  0  0  0  0  0
    3.6613    0.9393    0.0000 C   0  0  0  0  0  0  0  0  0  0  0  0
    5.3934    0.9393    0.0000 C   0  0  0  0  0  0  0  0  0  0  0  0
    2.7029    2.7948    0.0000 C   0  0  0  0  0  0  0  0  0  0  0  0
    4.5274   -0.5607    0.0000 C   0  0  0  0  0  0  0  0  0  0  0  0
    3.3424    4.7629    0.0000 C   0  0  0  0  0  0  0  0  0  0  0  0
    2.0000    3.5635    0.0000 C   0  0  0  0  0  0  0  0  0  0  0  0
    2.3219    4.5542    0.0000 C   0  0  0  0  0  0  0  0  0  0  0  0
    5.3934   -1.0607    0.0000 C   0  0  0  0  0  0  0  0  0  0  0  0
    6.6097    4.6826    0.0000 C   0  0  0  0  0  0  0  0  0  0  0  0
    5.3974   -2.1023    0.0000 C   0  0  0  0  0  0  0  0  0  0  0  0
    6.2975   -0.5434    0.0000 C   0  0  0  0  0  0  0  0  0  0  0  0
    7.1974    5.4916    0.0000 C   0  0  0  0  0  0  0  0  0  0  0  0
    6.3054   -2.6127    0.0000 C   0  0  0  0  0  0  0  0  0  0  0  0
    7.1734   -2.1160    0.0000 C   0  0  0  0  0  0  0  0  0  0  0  0
    7.1935   -1.0746    0.0000 C   0  0  0  0  0  0  0  0  0  0  0  0
    6.5096   -3.5916    0.0000 C   0  0  0  0  0  0  0  0  0  0  0  0
    7.5037   -3.7000    0.0000 C   0  0  0  0  0  0  0  0  0  0  0  0
    5.8812   -4.4224    0.0000 C   0  0  0  0  0  0  0  0  0  0  0  0
    7.9383   -4.6466    0.0000 C   0  0  0  0  0  0  0  0  0  0  0  0
    8.8929   -2.5839    0.0000 C   0  0  0  0  0  0  0  0  0  0  0  0
    6.2938   -5.3788    0.0000 C   0  0  0  0  0  0  0  0  0  0  0  0
    7.3293   -5.4916    0.0000 C   0  0  0  0  0  0  0  0  0  0  0  0
    5.6464    2.4902    0.0000 H   0  0  0  0  0  0  0  0  0  0  0  0
    5.9028    3.2793    0.0000 H   0  0  0  0  0  0  0  0  0  0  0  0
    3.4493    2.5219    0.0000 H   0  0  0  0  0  0  0  0  0  0  0  0
    3.0508    1.8316    0.0000 H   0  0  0  0  0  0  0  0  0  0  0  0
    6.0040    1.8316    0.0000 H   0  0  0  0  0  0  0  0  0  0  0  0
    5.6054    2.5219    0.0000 H   0  0  0  0  0  0  0  0  0  0  0  0
    5.6397    3.8812    0.0000 H   0  0  0  0  0  0  0  0  0  0  0  0
    3.0508    1.0470    0.0000 H   0  0  0  0  0  0  0  0  0  0  0  0
    3.4493    0.3567    0.0000 H   0  0  0  0  0  0  0  0  0  0  0  0
    5.6054    0.3567    0.0000 H   0  0  0  0  0  0  0  0  0  0  0  0
    6.0040    1.0470    0.0000 H   0  0  0  0  0  0  0  0  0  0  0  0
    2.5182    2.2030    0.0000 H   0  0  0  0  0  0  0  0  0  0  0  0
    5.3630    5.3536    0.0000 H   0  0  0  0  0  0  0  0  0  0  0  0
    3.9168   -0.4530    0.0000 H   0  0  0  0  0  0  0  0  0  0  0  0
    4.3153   -1.1433    0.0000 H   0  0  0  0  0  0  0  0  0  0  0  0
    3.5408    5.3503    0.0000 H   0  0  0  0  0  0  0  0  0  0  0  0
    1.3940    3.4323    0.0000 H   0  0  0  0  0  0  0  0  0  0  0  0
    1.9088    5.0165    0.0000 H   0  0  0  0  0  0  0  0  0  0  0  0
    4.8629   -2.4165    0.0000 H   0  0  0  0  0  0  0  0  0  0  0  0
    6.3022    0.0766    0.0000 H   0  0  0  0  0  0  0  0  0  0  0  0
    7.6990    5.1272    0.0000 H   0  0  0  0  0  0  0  0  0  0  0  0
    7.5619    5.9932    0.0000 H   0  0  0  0  0  0  0  0  0  0  0  0
    6.6959    5.8561    0.0000 H   0  0  0  0  0  0  0  0  0  0  0  0
    7.7351   -0.7729    0.0000 H   0  0  0  0  0  0  0  0  0  0  0  0
    5.2657   -4.3480    0.0000 H   0  0  0  0  0  0  0  0  0  0  0  0
    8.5554   -4.7066    0.0000 H   0  0  0  0  0  0  0  0  0  0  0  0
    5.9256   -5.8775    0.0000 H   0  0  0  0  0  0  0  0  0  0  0  0
    7.5815   -6.0580    0.0000 H   0  0  0  0  0  0  0  0  0  0  0  0
   10.1661   -3.2030    0.0000 H   0  0  0  0  0  0  0  0  0  0  0  0
    9.3653   -3.9185    0.0000 H   0  0  0  0  0  0  0  0  0  0  0  0
  1 22  2  0  0  0  0
  2 33  2  0  0  0  0
  3 14  1  0  0  0  0
  3 15  1  0  0  0  0
  3 17  1  0  0  0  0
 12  4  1  6  0  0  0
  4 22  1  0  0  0  0
  4 48  1  0  0  0  0
  5 27  1  0  0  0  0
  5 30  1  0  0  0  0
  5 33  1  0  0  0  0
  6 33  1  0  0  0  0
  6 64  1  0  0  0  0
  6 65  1  0  0  0  0
  7  8  1  0  0  0  0
  7  9  1  0  0  0  0
  7 10  1  0  0  0  0
  7 11  1  0  0  0  0
  8 12  1  0  0  0  0
  8 36  1  0  0  0  0
  8 37  1  0  0  0  0
  9 14  1  0  0  0  0
  9 38  1  0  0  0  0
  9 39  1  0  0  0  0
 10 15  1  0  0  0  0
 10 40  1  0  0  0  0
 10 41  1  0  0  0  0
 11 13  1  0  0  0  0
 11 16  2  0  0  0  0
 12 13  1  0  0  0  0
 12 42  1  0  0  0  0
 13 18  2  0  0  0  0
 14 43  1  0  0  0  0
 14 44  1  0  0  0  0
 15 45  1  0  0  0  0
 15 46  1  0  0  0  0
 16 19  1  0  0  0  0
 16 47  1  0  0  0  0
 17 21  1  0  0  0  0
 17 49  1  0  0  0  0
 17 50  1  0  0  0  0
 18 20  1  0  0  0  0
 18 51  1  0  0  0  0
 19 20  2  0  0  0  0
 19 52  1  0  0  0  0
 20 53  1  0  0  0  0
 21 23  2  0  0  0  0
 21 24  1  0  0  0  0
 22 25  1  0  0  0  0
 23 26  1  0  0  0  0
 23 54  1  0  0  0  0
 24 28  2  0  0  0  0
 24 55  1  0  0  0  0
 25 56  1  0  0  0  0
 25 57  1  0  0  0  0
 25 58  1  0  0  0  0
 26 27  2  0  0  0  0
 26 29  1  0  0  0  0
 27 28  1  0  0  0  0
 28 59  1  0  0  0  0
 29 30  1  0  0  0  0
 29 31  2  0  0  0  0
 30 32  2  0  0  0  0
 31 34  1  0  0  0  0
 31 60  1  0  0  0  0
 32 35  1  0  0  0  0
 32 61  1  0  0  0  0
 34 35  2  0  0  0  0
 34 62  1  0  0  0  0
 35 63  1  0  0  0  0
M  END
> <PUBCHEM_COMPOUND_CID>
10457264

> <PUBCHEM_COMPOUND_CANONICALIZED>
1

> <PUBCHEM_CACTVS_COMPLEXITY>
809

> <PUBCHEM_CACTVS_HBOND_ACCEPTOR>
3

> <PUBCHEM_CACTVS_HBOND_DONOR>
2

> <PUBCHEM_CACTVS_ROTATABLE_BOND>
3

> <PUBCHEM_CACTVS_SUBSKEYS>
AAADceB7sAAAAAAAAAAAAAAAAAAAAeIAAAA8YMEAAAAAAHgB/AAAHgAQAAAADijBngQzwPPMEACoAyVyVACCgCAhAiAImKA4ZJiIIOLAkZGEIAhglgLIyCcQgMAPiAACAAASAAAQAAQAACQAASAACQAAAA==

> <PUBCHEM_IUPAC_OPENEYE_NAME>
3-[[(3R)-3-acetamidospiro[indane-1,4'-piperidine]-1'-yl]methyl]carbazole-9-carboxamide

> <PUBCHEM_IUPAC_CAS_NAME>
3-[[(1R)-1-acetamido-1'-spiro[1,2-dihydroindene-3,4'-piperidine]yl]methyl]-9-carbazolecarboxamide

> <PUBCHEM_IUPAC_NAME_MARKUP>
3-[[(1<I>R</I>)-1-acetamidospiro[1,2-dihydroindene-3,4&apos;-piperidine]-1&apos;-yl]methyl]carbazole-9-carboxamide

> <PUBCHEM_IUPAC_NAME>
3-[[(1R)-1-acetamidospiro[1,2-dihydroindene-3,4'-piperidine]-1'-yl]methyl]carbazole-9-carboxamide

> <PUBCHEM_IUPAC_SYSTEMATIC_NAME>
3-[[(1R)-1-acetamidospiro[1,2-dihydroindene-3,4'-piperidine]-1'-yl]methyl]carbazole-9-carboxamide

> <PUBCHEM_IUPAC_TRADITIONAL_NAME>
3-[[(3R)-3-acetamidospiro[indane-1,4'-piperidine]-1'-yl]methyl]carbazole-9-carboxamide

> <PUBCHEM_IUPAC_INCHI>
InChI=1S/C29H30N4O2/c1-19(34)31-25-17-29(24-8-4-2-7-22(24)25)12-14-32(15-13-29)18-20-10-11-27-23(16-20)21-6-3-5-9-26(21)33(27)28(30)35/h2-11,16,25H,12-15,17-18H2,1H3,(H2,30,35)(H,31,34)/t25-/m1/s1

> <PUBCHEM_IUPAC_INCHIKEY>
WFKZKRWZCHJQIT-RUZDIDTESA-N

> <PUBCHEM_XLOGP3_AA>
4

> <PUBCHEM_EXACT_MASS>
466.23687621

> <PUBCHEM_MOLECULAR_FORMULA>
C29H30N4O2

> <PUBCHEM_MOLECULAR_WEIGHT>
466.6

> <PUBCHEM_OPENEYE_CAN_SMILES>
CC(=O)NC1CC2(CCN(CC2)CC3=CC4=C(C=C3)N(C5=CC=CC=C54)C(=O)N)C6=CC=CC=C16

> <PUBCHEM_OPENEYE_ISO_SMILES>
CC(=O)N[C@@H]1CC2(CCN(CC2)CC3=CC4=C(C=C3)N(C5=CC=CC=C54)C(=O)N)C6=CC=CC=C16

> <PUBCHEM_CACTVS_TPSA>
80.4

> <PUBCHEM_MONOISOTOPIC_WEIGHT>
466.23687621

> <PUBCHEM_TOTAL_CHARGE>
0

> <PUBCHEM_HEAVY_ATOM_COUNT>
35

> <PUBCHEM_ATOM_DEF_STEREO_COUNT>
1

> <PUBCHEM_ATOM_UDEF_STEREO_COUNT>
0

> <PUBCHEM_BOND_DEF_STEREO_COUNT>
0

> <PUBCHEM_BOND_UDEF_STEREO_COUNT>
0

> <PUBCHEM_ISOTOPIC_ATOM_COUNT>
0

> <PUBCHEM_COMPONENT_COUNT>
1

> <PUBCHEM_CACTVS_TAUTO_COUNT>
-1

> <PUBCHEM_COORDINATE_TYPE>
1
5
255

> <PUBCHEM_BONDANNOTATIONS>
11  13  8
11  16  8
13  18  8
16  19  8
18  20  8
19  20  8
21  23  8
21  24  8
23  26  8
24  28  8
26  27  8
26  29  8
27  28  8
29  30  8
29  31  8
30  32  8
31  34  8
32  35  8
34  35  8
12  4  6
5  27  8
5  30  8

$$$$
