71151664
  -OEChem-09292322352D

 67 71  0     0  0  0  0  0  0999 V2000
    2.8660    3.5591    0.0000 O   0  0  0  0  0  0  0  0  0  0  0  0
    4.5981    3.5591    0.0000 O   0  0  0  0  0  0  0  0  0  0  0  0
    4.5981    0.5591    0.0000 N   0  0  0  0  0  0  0  0  0  0  0  0
    4.5981   -1.4409    0.0000 N   0  0  0  0  0  0  0  0  0  0  0  0
    6.4103   -4.2456    0.0000 N   0  0  0  0  0  0  0  0  0  0  0  0
    5.4641    5.0591    0.0000 N   0  0  0  0  0  0  0  0  0  0  0  0
    3.7320    0.0591    0.0000 C   0  0  0  0  0  0  0  0  0  0  0  0
    5.4641    0.0591    0.0000 C   0  0  0  0  0  0  0  0  0  0  0  0
    3.7320   -0.9409    0.0000 C   0  0  0  0  0  0  0  0  0  0  0  0
    5.4641   -0.9409    0.0000 C   0  0  0  0  0  0  0  0  0  0  0  0
    4.5981    1.5591    0.0000 C   0  0  0  0  0  0  0  0  0  0  0  0
    4.5981   -2.4409    0.0000 C   0  0  0  0  0  0  0  0  0  0  0  0
    5.4641   -2.9409    0.0000 C   0  0  0  0  0  0  0  0  0  0  0  0
    3.7320    2.0591    0.0000 C   0  0  0  0  0  0  0  0  0  0  0  0
    5.4641   -3.9409    0.0000 C   0  0  0  0  0  0  0  0  0  0  0  0
    3.7320   -2.9409    0.0000 C   0  0  0  0  0  0  0  0  0  0  0  0
    6.4103   -2.6362    0.0000 C   0  0  0  0  0  0  0  0  0  0  0  0
    3.7320    3.0591    0.0000 C   0  0  0  0  0  0  0  0  0  0  0  0
    4.5981   -4.4409    0.0000 C   0  0  0  0  0  0  0  0  0  0  0  0
    6.9939   -3.4409    0.0000 C   0  0  0  0  0  0  0  0  0  0  0  0
    3.7320   -3.9409    0.0000 C   0  0  0  0  0  0  0  0  0  0  0  0
    6.7210   -5.1962    0.0000 C   0  0  0  0  0  0  0  0  0  0  0  0
    7.6995   -5.4024    0.0000 C   0  0  0  0  0  0  0  0  0  0  0  0
    8.0102   -6.3529    0.0000 C   0  0  0  0  0  0  0  0  0  0  0  0
    8.3673   -4.6581    0.0000 C   0  0  0  0  0  0  0  0  0  0  0  0
    2.8660    4.5591    0.0000 C   0  0  0  0  0  0  0  0  0  0  0  0
    8.9887   -6.5591    0.0000 C   0  0  0  0  0  0  0  0  0  0  0  0
    9.3458   -4.8643    0.0000 C   0  0  0  0  0  0  0  0  0  0  0  0
    3.7320    5.0591    0.0000 C   0  0  0  0  0  0  0  0  0  0  0  0
    2.0000    5.0591    0.0000 C   0  0  0  0  0  0  0  0  0  0  0  0
    9.6565   -5.8148    0.0000 C   0  0  0  0  0  0  0  0  0  0  0  0
    3.7320    6.0591    0.0000 C   0  0  0  0  0  0  0  0  0  0  0  0
    2.0000    6.0591    0.0000 C   0  0  0  0  0  0  0  0  0  0  0  0
    2.8660    6.5591    0.0000 C   0  0  0  0  0  0  0  0  0  0  0  0
    4.5981    4.5591    0.0000 C   0  0  0  0  0  0  0  0  0  0  0  0
    3.5200    0.6417    0.0000 H   0  0  0  0  0  0  0  0  0  0  0  0
    3.1215   -0.0486    0.0000 H   0  0  0  0  0  0  0  0  0  0  0  0
    6.0747   -0.0486    0.0000 H   0  0  0  0  0  0  0  0  0  0  0  0
    5.6762    0.6417    0.0000 H   0  0  0  0  0  0  0  0  0  0  0  0
    3.1215   -0.8332    0.0000 H   0  0  0  0  0  0  0  0  0  0  0  0
    3.5200   -1.5235    0.0000 H   0  0  0  0  0  0  0  0  0  0  0  0
    5.6762   -1.5235    0.0000 H   0  0  0  0  0  0  0  0  0  0  0  0
    6.0747   -0.8332    0.0000 H   0  0  0  0  0  0  0  0  0  0  0  0
    5.2087    1.4514    0.0000 H   0  0  0  0  0  0  0  0  0  0  0  0
    4.8101    2.1417    0.0000 H   0  0  0  0  0  0  0  0  0  0  0  0
    3.1215    2.1668    0.0000 H   0  0  0  0  0  0  0  0  0  0  0  0
    3.5200    1.4765    0.0000 H   0  0  0  0  0  0  0  0  0  0  0  0
    3.1951   -2.6309    0.0000 H   0  0  0  0  0  0  0  0  0  0  0  0
    6.6029   -2.0468    0.0000 H   0  0  0  0  0  0  0  0  0  0  0  0
    4.3426    2.9514    0.0000 H   0  0  0  0  0  0  0  0  0  0  0  0
    3.9441    3.6417    0.0000 H   0  0  0  0  0  0  0  0  0  0  0  0
    4.5981   -5.0609    0.0000 H   0  0  0  0  0  0  0  0  0  0  0  0
    7.6139   -3.4409    0.0000 H   0  0  0  0  0  0  0  0  0  0  0  0
    3.1951   -4.2509    0.0000 H   0  0  0  0  0  0  0  0  0  0  0  0
    6.1072   -5.2835    0.0000 H   0  0  0  0  0  0  0  0  0  0  0  0
    6.7004   -5.8158    0.0000 H   0  0  0  0  0  0  0  0  0  0  0  0
    7.5961   -6.8144    0.0000 H   0  0  0  0  0  0  0  0  0  0  0  0
    8.1747   -4.0687    0.0000 H   0  0  0  0  0  0  0  0  0  0  0  0
    9.1813   -7.1484    0.0000 H   0  0  0  0  0  0  0  0  0  0  0  0
    9.7599   -4.4028    0.0000 H   0  0  0  0  0  0  0  0  0  0  0  0
    1.4631    4.7491    0.0000 H   0  0  0  0  0  0  0  0  0  0  0  0
   10.2632   -5.9427    0.0000 H   0  0  0  0  0  0  0  0  0  0  0  0
    4.2690    6.3691    0.0000 H   0  0  0  0  0  0  0  0  0  0  0  0
    1.4631    6.3691    0.0000 H   0  0  0  0  0  0  0  0  0  0  0  0
    2.8660    7.1791    0.0000 H   0  0  0  0  0  0  0  0  0  0  0  0
    6.0010    4.7491    0.0000 H   0  0  0  0  0  0  0  0  0  0  0  0
    5.4641    5.6791    0.0000 H   0  0  0  0  0  0  0  0  0  0  0  0
  1 18  1  0  0  0  0
  1 26  1  0  0  0  0
  2 35  2  0  0  0  0
  3  7  1  0  0  0  0
  3  8  1  0  0  0  0
  3 11  1  0  0  0  0
  4  9  1  0  0  0  0
  4 10  1  0  0  0  0
  4 12  1  0  0  0  0
  5 15  1  0  0  0  0
  5 20  1  0  0  0  0
  5 22  1  0  0  0  0
  6 35  1  0  0  0  0
  6 66  1  0  0  0  0
  6 67  1  0  0  0  0
  7  9  1  0  0  0  0
  7 36  1  0  0  0  0
  7 37  1  0  0  0  0
  8 10  1  0  0  0  0
  8 38  1  0  0  0  0
  8 39  1  0  0  0  0
  9 40  1  0  0  0  0
  9 41  1  0  0  0  0
 10 42  1  0  0  0  0
 10 43  1  0  0  0  0
 11 14  1  0  0  0  0
 11 44  1  0  0  0  0
 11 45  1  0  0  0  0
 12 13  1  0  0  0  0
 12 16  2  0  0  0  0
 13 15  2  0  0  0  0
 13 17  1  0  0  0  0
 14 18  1  0  0  0  0
 14 46  1  0  0  0  0
 14 47  1  0  0  0  0
 15 19  1  0  0  0  0
 16 21  1  0  0  0  0
 16 48  1  0  0  0  0
 17 20  2  0  0  0  0
 17 49  1  0  0  0  0
 18 50  1  0  0  0  0
 18 51  1  0  0  0  0
 19 21  2  0  0  0  0
 19 52  1  0  0  0  0
 20 53  1  0  0  0  0
 21 54  1  0  0  0  0
 22 23  1  0  0  0  0
 22 55  1  0  0  0  0
 22 56  1  0  0  0  0
 23 24  2  0  0  0  0
 23 25  1  0  0  0  0
 24 27  1  0  0  0  0
 24 57  1  0  0  0  0
 25 28  2  0  0  0  0
 25 58  1  0  0  0  0
 26 29  1  0  0  0  0
 26 30  2  0  0  0  0
 27 31  2  0  0  0  0
 27 59  1  0  0  0  0
 28 31  1  0  0  0  0
 28 60  1  0  0  0  0
 29 32  2  0  0  0  0
 29 35  1  0  0  0  0
 30 33  1  0  0  0  0
 30 61  1  0  0  0  0
 31 62  1  0  0  0  0
 32 34  1  0  0  0  0
 32 63  1  0  0  0  0
 33 34  2  0  0  0  0
 33 64  1  0  0  0  0
 34 65  1  0  0  0  0
M  END
> <PUBCHEM_COMPOUND_CID>
71151664

> <PUBCHEM_COMPOUND_CANONICALIZED>
1

> <PUBCHEM_CACTVS_COMPLEXITY>
661

> <PUBCHEM_CACTVS_HBOND_ACCEPTOR>
4

> <PUBCHEM_CACTVS_HBOND_DONOR>
1

> <PUBCHEM_CACTVS_ROTATABLE_BOND>
9

> <PUBCHEM_CACTVS_SUBSKEYS>
AAADcfB7sAAAAAAAAAAAAAAAAAAAAWAAAAA8YMEAAAAAAFgB9AAAHgAQAAAADAzhngY8xvNMFACoAzV3VACCiCA1IiAI2CE+bNgMZvbE9duWPWjm4BHI6YeYyKCOAAAAAAQKAAAAAAAACBQAAAAAAAAAAA==

> <PUBCHEM_IUPAC_OPENEYE_NAME>
2-[3-[4-(1-benzylindol-4-yl)piperazin-1-yl]propoxy]benzamide

> <PUBCHEM_IUPAC_CAS_NAME>
2-[3-[4-[1-(phenylmethyl)-4-indolyl]-1-piperazinyl]propoxy]benzamide

> <PUBCHEM_IUPAC_NAME_MARKUP>
2-[3-[4-(1-benzylindol-4-yl)piperazin-1-yl]propoxy]benzamide

> <PUBCHEM_IUPAC_NAME>
2-[3-[4-(1-benzylindol-4-yl)piperazin-1-yl]propoxy]benzamide

> <PUBCHEM_IUPAC_SYSTEMATIC_NAME>
2-[3-[4-[1-(phenylmethyl)indol-4-yl]piperazin-1-yl]propoxy]benzamide

> <PUBCHEM_IUPAC_TRADITIONAL_NAME>
2-[3-[4-(1-benzylindol-4-yl)piperazino]propoxy]benzamide

> <PUBCHEM_IUPAC_INCHI>
InChI=1S/C29H32N4O2/c30-29(34)25-10-4-5-13-28(25)35-21-7-15-31-17-19-32(20-18-31)26-11-6-12-27-24(26)14-16-33(27)22-23-8-2-1-3-9-23/h1-6,8-14,16H,7,15,17-22H2,(H2,30,34)

> <PUBCHEM_IUPAC_INCHIKEY>
RODUYAHDHBLXFS-UHFFFAOYSA-N

> <PUBCHEM_XLOGP3_AA>
4.4

> <PUBCHEM_EXACT_MASS>
468.25252628

> <PUBCHEM_MOLECULAR_FORMULA>
C29H32N4O2

> <PUBCHEM_MOLECULAR_WEIGHT>
468.6

> <PUBCHEM_OPENEYE_CAN_SMILES>
C1CN(CCN1CCCOC2=CC=CC=C2C(=O)N)C3=CC=CC4=C3C=CN4CC5=CC=CC=C5

> <PUBCHEM_OPENEYE_ISO_SMILES>
C1CN(CCN1CCCOC2=CC=CC=C2C(=O)N)C3=CC=CC4=C3C=CN4CC5=CC=CC=C5

> <PUBCHEM_CACTVS_TPSA>
63.7

> <PUBCHEM_MONOISOTOPIC_WEIGHT>
468.25252628

> <PUBCHEM_TOTAL_CHARGE>
0

> <PUBCHEM_HEAVY_ATOM_COUNT>
35

> <PUBCHEM_ATOM_DEF_STEREO_COUNT>
0

> <PUBCHEM_ATOM_UDEF_STEREO_COUNT>
0

> <PUBCHEM_BOND_DEF_STEREO_COUNT>
0

> <PUBCHEM_BOND_UDEF_STEREO_COUNT>
0

> <PUBCHEM_ISOTOPIC_ATOM_COUNT>
0

> <PUBCHEM_COMPONENT_COUNT>
1

> <PUBCHEM_CACTVS_TAUTO_COUNT>
-1

> <PUBCHEM_COORDINATE_TYPE>
1
5
255

> <PUBCHEM_BONDANNOTATIONS>
12  13  8
12  16  8
13  15  8
13  17  8
15  19  8
16  21  8
17  20  8
19  21  8
23  24  8
23  25  8
24  27  8
25  28  8
26  29  8
26  30  8
27  31  8
28  31  8
29  32  8
30  33  8
32  34  8
33  34  8
5  15  8
5  20  8

$$$$
