46889041
  -OEChem-09292322292D

 67 71  0     1  0  0  0  0  0999 V2000
    2.9848   -1.2258    0.0000 S   0  0  0  0  0  0  0  0  0  0  0  0
    3.2856   -2.9315    0.0000 F   0  0  0  0  0  0  0  0  0  0  0  0
    7.2248   -2.2369    0.0000 O   0  0  0  0  0  0  0  0  0  0  0  0
   17.2769    0.8642    0.0000 O   0  0  0  0  0  0  0  0  0  0  0  0
    2.8112   -0.2410    0.0000 O   0  0  0  0  0  0  0  0  0  0  0  0
    3.1585   -2.2106    0.0000 O   0  0  0  0  0  0  0  0  0  0  0  0
    8.8936   -0.1839    0.0000 N   0  0  0  0  0  0  0  0  0  0  0  0
   15.5067    0.8537    0.0000 N   0  0  0  0  0  0  0  0  0  0  0  0
    3.9696   -1.0521    0.0000 N   0  0  0  0  0  0  0  0  0  0  0  0
   11.1487    1.3884    0.0000 C   0  0  0  0  0  0  0  0  0  0  0  0
    9.2001    1.8662    0.0000 C   0  0  3  0  0  0  0  0  0  0  0  0
   10.1660    2.1250    0.0000 C   0  0  3  0  0  0  0  0  0  0  0  0
    8.6913    3.2651    0.0000 C   0  0  0  0  0  0  0  0  0  0  0  0
    9.6572    3.5239    0.0000 C   0  0  0  0  0  0  0  0  0  0  0  0
    8.3345    0.6451    0.0000 C   0  0  0  0  0  0  0  0  0  0  0  0
    9.8549    0.0917    0.0000 C   0  0  0  0  0  0  0  0  0  0  0  0
   12.0147    0.8884    0.0000 C   0  0  0  0  0  0  0  0  0  0  0  0
    8.5516   -1.1236    0.0000 C   0  0  0  0  0  0  0  0  0  0  0  0
   12.8807    1.3884    0.0000 C   0  0  0  0  0  0  0  0  0  0  0  0
    7.5668   -1.2972    0.0000 C   0  0  0  0  0  0  0  0  0  0  0  0
   13.7467    0.8884    0.0000 C   0  0  0  0  0  0  0  0  0  0  0  0
   12.8807    2.3884    0.0000 C   0  0  0  0  0  0  0  0  0  0  0  0
   14.6128    1.3884    0.0000 C   0  0  0  0  0  0  0  0  0  0  0  0
   13.7467    2.8884    0.0000 C   0  0  0  0  0  0  0  0  0  0  0  0
   14.6128    2.3884    0.0000 C   0  0  0  0  0  0  0  0  0  0  0  0
   15.5067    2.9230    0.0000 C   0  0  0  0  0  0  0  0  0  0  0  0
   16.4128    2.4092    0.0000 C   0  0  0  0  0  0  0  0  0  0  0  0
    6.2400   -2.4106    0.0000 C   0  0  0  0  0  0  0  0  0  0  0  0
   16.4128    1.3676    0.0000 C   0  0  0  0  0  0  0  0  0  0  0  0
    5.5972   -1.6445    0.0000 C   0  0  0  0  0  0  0  0  0  0  0  0
    5.8980   -3.3503    0.0000 C   0  0  0  0  0  0  0  0  0  0  0  0
    4.6124   -1.8182    0.0000 C   0  0  0  0  0  0  0  0  0  0  0  0
    4.9132   -3.5239    0.0000 C   0  0  0  0  0  0  0  0  0  0  0  0
    4.2704   -2.7579    0.0000 C   0  0  0  0  0  0  0  0  0  0  0  0
    2.0000   -1.3994    0.0000 C   0  0  0  0  0  0  0  0  0  0  0  0
   11.4902    1.9058    0.0000 H   0  0  0  0  0  0  0  0  0  0  0  0
    8.5857    1.9490    0.0000 H   0  0  0  0  0  0  0  0  0  0  0  0
   10.6640    2.4943    0.0000 H   0  0  0  0  0  0  0  0  0  0  0  0
    8.5135    3.8591    0.0000 H   0  0  0  0  0  0  0  0  0  0  0  0
    8.1028    3.0702    0.0000 H   0  0  0  0  0  0  0  0  0  0  0  0
   10.2458    3.7188    0.0000 H   0  0  0  0  0  0  0  0  0  0  0  0
    9.4794    4.1179    0.0000 H   0  0  0  0  0  0  0  0  0  0  0  0
    7.8753    1.0618    0.0000 H   0  0  0  0  0  0  0  0  0  0  0  0
    7.8658    0.2393    0.0000 H   0  0  0  0  0  0  0  0  0  0  0  0
    9.9387   -0.5226    0.0000 H   0  0  0  0  0  0  0  0  0  0  0  0
   10.4749    0.0867    0.0000 H   0  0  0  0  0  0  0  0  0  0  0  0
   11.6162    0.4134    0.0000 H   0  0  0  0  0  0  0  0  0  0  0  0
   12.4132    0.4134    0.0000 H   0  0  0  0  0  0  0  0  0  0  0  0
    8.5516   -1.7436    0.0000 H   0  0  0  0  0  0  0  0  0  0  0  0
    9.1622   -1.2312    0.0000 H   0  0  0  0  0  0  0  0  0  0  0  0
    7.5668   -0.6772    0.0000 H   0  0  0  0  0  0  0  0  0  0  0  0
    6.9562   -1.1896    0.0000 H   0  0  0  0  0  0  0  0  0  0  0  0
   13.7467    0.2684    0.0000 H   0  0  0  0  0  0  0  0  0  0  0  0
   12.3438    2.6984    0.0000 H   0  0  0  0  0  0  0  0  0  0  0  0
   13.7467    3.5084    0.0000 H   0  0  0  0  0  0  0  0  0  0  0  0
   15.9003    3.4020    0.0000 H   0  0  0  0  0  0  0  0  0  0  0  0
   15.1021    3.3928    0.0000 H   0  0  0  0  0  0  0  0  0  0  0  0
   15.4995    0.2337    0.0000 H   0  0  0  0  0  0  0  0  0  0  0  0
   17.0236    2.3031    0.0000 H   0  0  0  0  0  0  0  0  0  0  0  0
   16.6218    2.9929    0.0000 H   0  0  0  0  0  0  0  0  0  0  0  0
    5.8093   -1.0619    0.0000 H   0  0  0  0  0  0  0  0  0  0  0  0
    6.2965   -3.8252    0.0000 H   0  0  0  0  0  0  0  0  0  0  0  0
    4.7011   -4.1065    0.0000 H   0  0  0  0  0  0  0  0  0  0  0  0
    4.1817   -0.4695    0.0000 H   0  0  0  0  0  0  0  0  0  0  0  0
    1.8923   -0.7889    0.0000 H   0  0  0  0  0  0  0  0  0  0  0  0
    1.3894   -1.5071    0.0000 H   0  0  0  0  0  0  0  0  0  0  0  0
    2.1077   -2.0100    0.0000 H   0  0  0  0  0  0  0  0  0  0  0  0
  1  5  2  0  0  0  0
  1  6  2  0  0  0  0
  1  9  1  0  0  0  0
  1 35  1  0  0  0  0
  2 34  1  0  0  0  0
  3 20  1  0  0  0  0
  3 28  1  0  0  0  0
  4 29  2  0  0  0  0
  7 15  1  0  0  0  0
  7 16  1  0  0  0  0
  7 18  1  0  0  0  0
  8 23  1  0  0  0  0
  8 29  1  0  0  0  0
  8 58  1  0  0  0  0
  9 32  1  0  0  0  0
  9 64  1  0  0  0  0
 10 11  1  0  0  0  0
 10 12  1  0  0  0  0
 10 17  1  0  0  0  0
 10 36  1  0  0  0  0
 11 13  1  0  0  0  0
 11 15  1  0  0  0  0
 11 37  1  0  0  0  0
 12 14  1  0  0  0  0
 12 16  1  0  0  0  0
 12 38  1  0  0  0  0
 13 14  1  0  0  0  0
 13 39  1  0  0  0  0
 13 40  1  0  0  0  0
 14 41  1  0  0  0  0
 14 42  1  0  0  0  0
 15 43  1  0  0  0  0
 15 44  1  0  0  0  0
 16 45  1  0  0  0  0
 16 46  1  0  0  0  0
 17 19  1  0  0  0  0
 17 47  1  0  0  0  0
 17 48  1  0  0  0  0
 18 20  1  0  0  0  0
 18 49  1  0  0  0  0
 18 50  1  0  0  0  0
 19 21  2  0  0  0  0
 19 22  1  0  0  0  0
 20 51  1  0  0  0  0
 20 52  1  0  0  0  0
 21 23  1  0  0  0  0
 21 53  1  0  0  0  0
 22 24  2  0  0  0  0
 22 54  1  0  0  0  0
 23 25  2  0  0  0  0
 24 25  1  0  0  0  0
 24 55  1  0  0  0  0
 25 26  1  0  0  0  0
 26 27  1  0  0  0  0
 26 56  1  0  0  0  0
 26 57  1  0  0  0  0
 27 29  1  0  0  0  0
 27 59  1  0  0  0  0
 27 60  1  0  0  0  0
 28 30  2  0  0  0  0
 28 31  1  0  0  0  0
 30 32  1  0  0  0  0
 30 61  1  0  0  0  0
 31 33  2  0  0  0  0
 31 62  1  0  0  0  0
 32 34  2  0  0  0  0
 33 34  1  0  0  0  0
 33 63  1  0  0  0  0
 35 65  1  0  0  0  0
 35 66  1  0  0  0  0
 35 67  1  0  0  0  0
M  END
> <PUBCHEM_COMPOUND_CID>
46889041

> <PUBCHEM_COMPOUND_CANONICALIZED>
1

> <PUBCHEM_CACTVS_COMPLEXITY>
838

> <PUBCHEM_CACTVS_HBOND_ACCEPTOR>
7

> <PUBCHEM_CACTVS_HBOND_DONOR>
2

> <PUBCHEM_CACTVS_ROTATABLE_BOND>
8

> <PUBCHEM_CACTVS_SUBSKEYS>
AAADcfB7OQBAAAAAAAAAAAAAAAAAAYAAAAA8eIEABYAAAACxQAAAHwQQQAAADQzhmA6yxoPABAKIAiVSUHCCCAAhIgAIiAEObIgOJjLEsZuHOCjm1BnY6AeY2cGewAAAQgACAACAAACEAAQAAQAACAAAAA==

> <PUBCHEM_IUPAC_OPENEYE_NAME>
N-[2-fluoro-5-[2-[8-[(2-oxo-3,4-dihydro-1H-quinolin-7-yl)methyl]-3-azabicyclo[3.2.1]octan-3-yl]ethoxy]phenyl]methanesulfonamide

> <PUBCHEM_IUPAC_CAS_NAME>
N-[2-fluoro-5-[2-[8-[(2-oxo-3,4-dihydro-1H-quinolin-7-yl)methyl]-3-azabicyclo[3.2.1]octan-3-yl]ethoxy]phenyl]methanesulfonamide

> <PUBCHEM_IUPAC_NAME_MARKUP>
<I>N</I>-[2-fluoro-5-[2-[8-[(2-oxo-3,4-dihydro-1<I>H</I>-quinolin-7-yl)methyl]-3-azabicyclo[3.2.1]octan-3-yl]ethoxy]phenyl]methanesulfonamide

> <PUBCHEM_IUPAC_NAME>
N-[2-fluoro-5-[2-[8-[(2-oxo-3,4-dihydro-1H-quinolin-7-yl)methyl]-3-azabicyclo[3.2.1]octan-3-yl]ethoxy]phenyl]methanesulfonamide

> <PUBCHEM_IUPAC_SYSTEMATIC_NAME>
N-[2-fluoranyl-5-[2-[8-[(2-oxidanylidene-3,4-dihydro-1H-quinolin-7-yl)methyl]-3-azabicyclo[3.2.1]octan-3-yl]ethoxy]phenyl]methanesulfonamide

> <PUBCHEM_IUPAC_TRADITIONAL_NAME>
N-[2-fluoro-5-[2-[8-[(2-keto-3,4-dihydro-1H-quinolin-7-yl)methyl]-3-azabicyclo[3.2.1]octan-3-yl]ethoxy]phenyl]methanesulfonamide

> <PUBCHEM_IUPAC_INCHI>
InChI=1S/C26H32FN3O4S/c1-35(32,33)29-25-14-21(7-8-23(25)27)34-11-10-30-15-19-4-5-20(16-30)22(19)12-17-2-3-18-6-9-26(31)28-24(18)13-17/h2-3,7-8,13-14,19-20,22,29H,4-6,9-12,15-16H2,1H3,(H,28,31)

> <PUBCHEM_IUPAC_INCHIKEY>
HEKVAXCQMOFXKK-UHFFFAOYSA-N

> <PUBCHEM_XLOGP3_AA>
3.1

> <PUBCHEM_EXACT_MASS>
501.20975585

> <PUBCHEM_MOLECULAR_FORMULA>
C26H32FN3O4S

> <PUBCHEM_MOLECULAR_WEIGHT>
501.6

> <PUBCHEM_OPENEYE_CAN_SMILES>
CS(=O)(=O)NC1=C(C=CC(=C1)OCCN2CC3CCC(C2)C3CC4=CC5=C(CCC(=O)N5)C=C4)F

> <PUBCHEM_OPENEYE_ISO_SMILES>
CS(=O)(=O)NC1=C(C=CC(=C1)OCCN2CC3CCC(C2)C3CC4=CC5=C(CCC(=O)N5)C=C4)F

> <PUBCHEM_CACTVS_TPSA>
96.1

> <PUBCHEM_MONOISOTOPIC_WEIGHT>
501.20975585

> <PUBCHEM_TOTAL_CHARGE>
0

> <PUBCHEM_HEAVY_ATOM_COUNT>
35

> <PUBCHEM_ATOM_DEF_STEREO_COUNT>
0

> <PUBCHEM_ATOM_UDEF_STEREO_COUNT>
2

> <PUBCHEM_BOND_DEF_STEREO_COUNT>
0

> <PUBCHEM_BOND_UDEF_STEREO_COUNT>
0

> <PUBCHEM_ISOTOPIC_ATOM_COUNT>
0

> <PUBCHEM_COMPONENT_COUNT>
1

> <PUBCHEM_CACTVS_TAUTO_COUNT>
-1

> <PUBCHEM_COORDINATE_TYPE>
1
5
255

> <PUBCHEM_BONDANNOTATIONS>
11  13  3
12  14  3
19  21  8
19  22  8
21  23  8
22  24  8
23  25  8
24  25  8
28  30  8
28  31  8
30  32  8
31  33  8
32  34  8
33  34  8

$$$$
