72699817
  -OEChem-09292322052D

 49 52  0     1  0  0  0  0  0999 V2000
    5.3871    1.2476    0.0000 S   0  0  0  0  0  0  0  0  0  0  0  0
    3.8372   -5.1162    0.0000 O   0  0  0  0  0  0  0  0  0  0  0  0
    5.6405   -4.0564    0.0000 O   0  0  0  0  0  0  0  0  0  0  0  0
    2.9180   -0.4195    0.0000 N   0  0  3  0  0  0  0  0  0  0  0  0
    3.7841   -0.9195    0.0000 C   0  0  1  0  0  0  0  0  0  0  0  0
    4.6501   -0.4195    0.0000 C   0  0  0  0  0  0  0  0  0  0  0  0
    2.0080   -0.9263    0.0000 C   0  0  0  0  0  0  0  0  0  0  0  0
    2.9180    0.5805    0.0000 C   0  0  0  0  0  0  0  0  0  0  0  0
    3.8001   -1.9610    0.0000 C   0  0  0  0  0  0  0  0  0  0  0  0
    2.0000   -1.9679    0.0000 C   0  0  0  0  0  0  0  0  0  0  0  0
    3.7841    1.0805    0.0000 C   0  0  0  0  0  0  0  0  0  0  0  0
    4.6501    0.5805    0.0000 C   0  0  0  0  0  0  0  0  0  0  0  0
    2.9021   -2.4887    0.0000 C   0  0  0  0  0  0  0  0  0  0  0  0
    3.9933    2.0524    0.0000 C   0  0  0  0  0  0  0  0  0  0  0  0
    4.7520   -2.4816    0.0000 C   0  0  0  0  0  0  0  0  0  0  0  0
    4.9820    2.1554    0.0000 C   0  0  0  0  0  0  0  0  0  0  0  0
    2.8937   -3.5737    0.0000 C   0  0  0  0  0  0  0  0  0  0  0  0
    5.4820    3.0214    0.0000 C   0  0  0  0  0  0  0  0  0  0  0  0
    4.7688   -3.5665    0.0000 C   0  0  0  0  0  0  0  0  0  0  0  0
    3.8334   -4.1162    0.0000 C   0  0  0  0  0  0  0  0  0  0  0  0
    4.9820    3.8875    0.0000 C   0  0  0  0  0  0  0  0  0  0  0  0
    5.4820    4.7535    0.0000 C   0  0  0  0  0  0  0  0  0  0  0  0
    4.9820    5.6195    0.0000 C   0  0  0  0  0  0  0  0  0  0  0  0
    2.9731   -5.6195    0.0000 C   0  0  0  0  0  0  0  0  0  0  0  0
    4.5234   -1.3388    0.0000 H   0  0  0  0  0  0  0  0  0  0  0  0
    4.8621   -1.0021    0.0000 H   0  0  0  0  0  0  0  0  0  0  0  0
    5.2607   -0.3118    0.0000 H   0  0  0  0  0  0  0  0  0  0  0  0
    1.8035   -0.3410    0.0000 H   0  0  0  0  0  0  0  0  0  0  0  0
    1.3964   -1.0277    0.0000 H   0  0  0  0  0  0  0  0  0  0  0  0
    2.7060    1.1631    0.0000 H   0  0  0  0  0  0  0  0  0  0  0  0
    2.3074    0.4729    0.0000 H   0  0  0  0  0  0  0  0  0  0  0  0
    1.3900   -1.8571    0.0000 H   0  0  0  0  0  0  0  0  0  0  0  0
    1.7864   -2.5500    0.0000 H   0  0  0  0  0  0  0  0  0  0  0  0
    3.5792    2.5138    0.0000 H   0  0  0  0  0  0  0  0  0  0  0  0
    5.2829   -2.1613    0.0000 H   0  0  0  0  0  0  0  0  0  0  0  0
    2.3556   -3.8816    0.0000 H   0  0  0  0  0  0  0  0  0  0  0  0
    5.9569    2.6229    0.0000 H   0  0  0  0  0  0  0  0  0  0  0  0
    5.9569    3.4200    0.0000 H   0  0  0  0  0  0  0  0  0  0  0  0
    4.5070    4.2860    0.0000 H   0  0  0  0  0  0  0  0  0  0  0  0
    4.5070    3.4889    0.0000 H   0  0  0  0  0  0  0  0  0  0  0  0
    5.9569    4.3550    0.0000 H   0  0  0  0  0  0  0  0  0  0  0  0
    5.9569    5.1520    0.0000 H   0  0  0  0  0  0  0  0  0  0  0  0
    6.1738   -3.7402    0.0000 H   0  0  0  0  0  0  0  0  0  0  0  0
    5.5189    5.9295    0.0000 H   0  0  0  0  0  0  0  0  0  0  0  0
    4.6720    6.1565    0.0000 H   0  0  0  0  0  0  0  0  0  0  0  0
    4.4450    5.3095    0.0000 H   0  0  0  0  0  0  0  0  0  0  0  0
    2.6610   -5.0838    0.0000 H   0  0  0  0  0  0  0  0  0  0  0  0
    2.4374   -5.9316    0.0000 H   0  0  0  0  0  0  0  0  0  0  0  0
    3.2852   -6.1552    0.0000 H   0  0  0  0  0  0  0  0  0  0  0  0
  1 12  1  0  0  0  0
  1 16  1  0  0  0  0
  2 20  1  0  0  0  0
  2 24  1  0  0  0  0
  3 19  1  0  0  0  0
  3 43  1  0  0  0  0
  4  5  1  0  0  0  0
  4  7  1  0  0  0  0
  4  8  1  0  0  0  0
  5  6  1  0  0  0  0
  5  9  1  0  0  0  0
  5 25  1  6  0  0  0
  6 12  1  0  0  0  0
  6 26  1  0  0  0  0
  6 27  1  0  0  0  0
  7 10  1  0  0  0  0
  7 28  1  0  0  0  0
  7 29  1  0  0  0  0
  8 11  1  0  0  0  0
  8 30  1  0  0  0  0
  8 31  1  0  0  0  0
  9 13  1  0  0  0  0
  9 15  2  0  0  0  0
 10 13  1  0  0  0  0
 10 32  1  0  0  0  0
 10 33  1  0  0  0  0
 11 12  2  0  0  0  0
 11 14  1  0  0  0  0
 13 17  2  0  0  0  0
 14 16  2  0  0  0  0
 14 34  1  0  0  0  0
 15 19  1  0  0  0  0
 15 35  1  0  0  0  0
 16 18  1  0  0  0  0
 17 20  1  0  0  0  0
 17 36  1  0  0  0  0
 18 21  1  0  0  0  0
 18 37  1  0  0  0  0
 18 38  1  0  0  0  0
 19 20  2  0  0  0  0
 21 22  1  0  0  0  0
 21 39  1  0  0  0  0
 21 40  1  0  0  0  0
 22 23  1  0  0  0  0
 22 41  1  0  0  0  0
 22 42  1  0  0  0  0
 23 44  1  0  0  0  0
 23 45  1  0  0  0  0
 23 46  1  0  0  0  0
 24 47  1  0  0  0  0
 24 48  1  0  0  0  0
 24 49  1  0  0  0  0
M  END
> <PUBCHEM_COMPOUND_CID>
72699817

> <PUBCHEM_COMPOUND_CANONICALIZED>
1

> <PUBCHEM_CACTVS_COMPLEXITY>
434

> <PUBCHEM_CACTVS_HBOND_ACCEPTOR>
4

> <PUBCHEM_CACTVS_HBOND_DONOR>
1

> <PUBCHEM_CACTVS_ROTATABLE_BOND>
4

> <PUBCHEM_CACTVS_SUBSKEYS>
AAADceB6MABAAAAAAAAAAAAAAAAAASAAAAA8WIAAAAAAAFixwAAAHgQACAAADCzB2AYyB4MABgiEAiBCAACDCIAgKBBAiBgOjIgNJiKmsRuEcCtkwBGruAew0PMOoAABAAAQQABAAAIAACCAAAAAAAAAAA==

> <PUBCHEM_IUPAC_OPENEYE_NAME>
(1S)-14-butyl-5-methoxy-15-thia-10-azatetracyclo[8.7.0.02,7.012,16]heptadeca-2,4,6,12(16),13-pentaen-4-ol

> <PUBCHEM_IUPAC_CAS_NAME>
(1S)-14-butyl-5-methoxy-15-thia-10-azatetracyclo[8.7.0.02,7.012,16]heptadeca-2,4,6,12(16),13-pentaen-4-ol

> <PUBCHEM_IUPAC_NAME_MARKUP>
(1<I>S</I>)-14-butyl-5-methoxy-15-thia-10-azatetracyclo[8.7.0.0<SUP>2,7</SUP>.0<SUP>12,16</SUP>]heptadeca-2,4,6,12(16),13-pentaen-4-ol

> <PUBCHEM_IUPAC_NAME>
(1S)-14-butyl-5-methoxy-15-thia-10-azatetracyclo[8.7.0.02,7.012,16]heptadeca-2,4,6,12(16),13-pentaen-4-ol

> <PUBCHEM_IUPAC_SYSTEMATIC_NAME>
(1S)-14-butyl-5-methoxy-15-thia-10-azatetracyclo[8.7.0.02,7.012,16]heptadeca-2,4,6,12(16),13-pentaen-4-ol

> <PUBCHEM_IUPAC_TRADITIONAL_NAME>
(1S)-14-butyl-5-methoxy-15-thia-10-azatetracyclo[8.7.0.02,7.012,16]heptadeca-2,4,6,12(16),13-pentaen-4-ol

> <PUBCHEM_IUPAC_INCHI>
InChI=1S/C20H25NO2S/c1-3-4-5-15-8-14-12-21-7-6-13-9-19(23-2)18(22)10-16(13)17(21)11-20(14)24-15/h8-10,17,22H,3-7,11-12H2,1-2H3/t17-/m0/s1

> <PUBCHEM_IUPAC_INCHIKEY>
RJSAZDFVYLKJQV-KRWDZBQOSA-N

> <PUBCHEM_XLOGP3_AA>
4.4

> <PUBCHEM_EXACT_MASS>
343.16060021

> <PUBCHEM_MOLECULAR_FORMULA>
C20H25NO2S

> <PUBCHEM_MOLECULAR_WEIGHT>
343.5

> <PUBCHEM_OPENEYE_CAN_SMILES>
CCCCC1=CC2=C(S1)CC3C4=CC(=C(C=C4CCN3C2)OC)O

> <PUBCHEM_OPENEYE_ISO_SMILES>
CCCCC1=CC2=C(S1)C[C@H]3C4=CC(=C(C=C4CCN3C2)OC)O

> <PUBCHEM_CACTVS_TPSA>
60.9

> <PUBCHEM_MONOISOTOPIC_WEIGHT>
343.16060021

> <PUBCHEM_TOTAL_CHARGE>
0

> <PUBCHEM_HEAVY_ATOM_COUNT>
24

> <PUBCHEM_ATOM_DEF_STEREO_COUNT>
1

> <PUBCHEM_ATOM_UDEF_STEREO_COUNT>
0

> <PUBCHEM_BOND_DEF_STEREO_COUNT>
0

> <PUBCHEM_BOND_UDEF_STEREO_COUNT>
0

> <PUBCHEM_ISOTOPIC_ATOM_COUNT>
0

> <PUBCHEM_COMPONENT_COUNT>
1

> <PUBCHEM_CACTVS_TAUTO_COUNT>
-1

> <PUBCHEM_COORDINATE_TYPE>
1
5
255

> <PUBCHEM_BONDANNOTATIONS>
1  12  8
1  16  8
11  12  8
11  14  8
13  17  8
14  16  8
15  19  8
17  20  8
19  20  8
5  25  6
9  13  8
9  15  8

$$$$
