156540526
  -OEChem-09292322452D

 53 55  0     0  0  0  0  0  0999 V2000
    2.0000    4.6024    0.0000 F   0  0  0  0  0  0  0  0  0  0  0  0
    9.7225   -1.6230    0.0000 O   0  0  0  0  0  0  0  0  0  0  0  0
   10.6545   -4.4746    0.0000 O   0  0  0  0  0  0  0  0  0  0  0  0
    6.4763   -0.0539    0.0000 N   0  0  0  0  0  0  0  0  0  0  0  0
    5.5443    2.7977    0.0000 N   0  0  0  0  0  0  0  0  0  0  0  0
    6.1279    3.6024    0.0000 N   0  0  0  0  0  0  0  0  0  0  0  0
    8.0761   -2.1611    0.0000 N   0  0  0  0  0  0  0  0  0  0  0  0
    5.8550    1.8472    0.0000 C   0  0  0  0  0  0  0  0  0  0  0  0
    6.8335    1.6410    0.0000 C   0  0  0  0  0  0  0  0  0  0  0  0
    5.1871    1.1029    0.0000 C   0  0  0  0  0  0  0  0  0  0  0  0
    7.1441    0.6905    0.0000 C   0  0  0  0  0  0  0  0  0  0  0  0
    5.4978    0.1524    0.0000 C   0  0  0  0  0  0  0  0  0  0  0  0
    6.7870   -1.0044    0.0000 C   0  0  0  0  0  0  0  0  0  0  0  0
    7.7654   -1.2106    0.0000 C   0  0  0  0  0  0  0  0  0  0  0  0
    4.5981    3.1024    0.0000 C   0  0  0  0  0  0  0  0  0  0  0  0
    4.5981    4.1024    0.0000 C   0  0  0  0  0  0  0  0  0  0  0  0
    5.5443    4.4072    0.0000 C   0  0  0  0  0  0  0  0  0  0  0  0
    3.7320    2.6024    0.0000 C   0  0  0  0  0  0  0  0  0  0  0  0
    7.4083   -2.9054    0.0000 C   0  0  0  0  0  0  0  0  0  0  0  0
    3.7320    4.6024    0.0000 C   0  0  0  0  0  0  0  0  0  0  0  0
    9.0546   -2.3673    0.0000 C   0  0  0  0  0  0  0  0  0  0  0  0
    2.8660    3.1024    0.0000 C   0  0  0  0  0  0  0  0  0  0  0  0
    2.8660    4.1024    0.0000 C   0  0  0  0  0  0  0  0  0  0  0  0
    9.3653   -3.3178    0.0000 C   0  0  0  0  0  0  0  0  0  0  0  0
    7.7189   -3.8559    0.0000 C   0  0  0  0  0  0  0  0  0  0  0  0
   10.3438   -3.5241    0.0000 C   0  0  0  0  0  0  0  0  0  0  0  0
    6.2690    2.3087    0.0000 H   0  0  0  0  0  0  0  0  0  0  0  0
    7.4473    1.7283    0.0000 H   0  0  0  0  0  0  0  0  0  0  0  0
    6.8540    2.2606    0.0000 H   0  0  0  0  0  0  0  0  0  0  0  0
    4.8046    1.5908    0.0000 H   0  0  0  0  0  0  0  0  0  0  0  0
    4.6402    0.8109    0.0000 H   0  0  0  0  0  0  0  0  0  0  0  0
    7.5267    0.2025    0.0000 H   0  0  0  0  0  0  0  0  0  0  0  0
    7.6910    0.9825    0.0000 H   0  0  0  0  0  0  0  0  0  0  0  0
    4.8840    0.0650    0.0000 H   0  0  0  0  0  0  0  0  0  0  0  0
    5.4772   -0.4673    0.0000 H   0  0  0  0  0  0  0  0  0  0  0  0
    6.1731   -1.0917    0.0000 H   0  0  0  0  0  0  0  0  0  0  0  0
    6.7664   -1.6240    0.0000 H   0  0  0  0  0  0  0  0  0  0  0  0
    8.3793   -1.1232    0.0000 H   0  0  0  0  0  0  0  0  0  0  0  0
    7.7860   -0.5909    0.0000 H   0  0  0  0  0  0  0  0  0  0  0  0
    5.7369    4.9965    0.0000 H   0  0  0  0  0  0  0  0  0  0  0  0
    3.7320    1.9824    0.0000 H   0  0  0  0  0  0  0  0  0  0  0  0
    7.0257   -2.4175    0.0000 H   0  0  0  0  0  0  0  0  0  0  0  0
    6.8614   -3.1974    0.0000 H   0  0  0  0  0  0  0  0  0  0  0  0
    3.7320    5.2224    0.0000 H   0  0  0  0  0  0  0  0  0  0  0  0
    2.3291    2.7924    0.0000 H   0  0  0  0  0  0  0  0  0  0  0  0
    8.7515   -3.4052    0.0000 H   0  0  0  0  0  0  0  0  0  0  0  0
    9.3447   -3.9375    0.0000 H   0  0  0  0  0  0  0  0  0  0  0  0
    7.1296   -4.0485    0.0000 H   0  0  0  0  0  0  0  0  0  0  0  0
    7.9115   -4.4452    0.0000 H   0  0  0  0  0  0  0  0  0  0  0  0
    8.3083   -3.6633    0.0000 H   0  0  0  0  0  0  0  0  0  0  0  0
   10.9576   -3.4367    0.0000 H   0  0  0  0  0  0  0  0  0  0  0  0
   10.3644   -2.9044    0.0000 H   0  0  0  0  0  0  0  0  0  0  0  0
   11.2611   -4.6024    0.0000 H   0  0  0  0  0  0  0  0  0  0  0  0
  1 23  1  0  0  0  0
  2 21  2  0  0  0  0
  3 26  1  0  0  0  0
  3 53  1  0  0  0  0
  4 11  1  0  0  0  0
  4 12  1  0  0  0  0
  4 13  1  0  0  0  0
  5  6  1  0  0  0  0
  5  8  1  0  0  0  0
  5 15  1  0  0  0  0
  6 17  2  0  0  0  0
  7 14  1  0  0  0  0
  7 19  1  0  0  0  0
  7 21  1  0  0  0  0
  8  9  1  0  0  0  0
  8 10  1  0  0  0  0
  8 27  1  0  0  0  0
  9 11  1  0  0  0  0
  9 28  1  0  0  0  0
  9 29  1  0  0  0  0
 10 12  1  0  0  0  0
 10 30  1  0  0  0  0
 10 31  1  0  0  0  0
 11 32  1  0  0  0  0
 11 33  1  0  0  0  0
 12 34  1  0  0  0  0
 12 35  1  0  0  0  0
 13 14  1  0  0  0  0
 13 36  1  0  0  0  0
 13 37  1  0  0  0  0
 14 38  1  0  0  0  0
 14 39  1  0  0  0  0
 15 16  2  0  0  0  0
 15 18  1  0  0  0  0
 16 17  1  0  0  0  0
 16 20  1  0  0  0  0
 17 40  1  0  0  0  0
 18 22  2  0  0  0  0
 18 41  1  0  0  0  0
 19 25  1  0  0  0  0
 19 42  1  0  0  0  0
 19 43  1  0  0  0  0
 20 23  2  0  0  0  0
 20 44  1  0  0  0  0
 21 24  1  0  0  0  0
 22 23  1  0  0  0  0
 22 45  1  0  0  0  0
 24 26  1  0  0  0  0
 24 46  1  0  0  0  0
 24 47  1  0  0  0  0
 25 48  1  0  0  0  0
 25 49  1  0  0  0  0
 25 50  1  0  0  0  0
 26 51  1  0  0  0  0
 26 52  1  0  0  0  0
M  END
> <PUBCHEM_COMPOUND_CID>
156540526

> <PUBCHEM_COMPOUND_CANONICALIZED>
1

> <PUBCHEM_CACTVS_COMPLEXITY>
459

> <PUBCHEM_CACTVS_HBOND_ACCEPTOR>
5

> <PUBCHEM_CACTVS_HBOND_DONOR>
1

> <PUBCHEM_CACTVS_ROTATABLE_BOND>
7

> <PUBCHEM_CACTVS_SUBSKEYS>
AAADceB7sQAAAAAAAAAAAAAAAAAAAWAAAAA8QAAAAAAAAFgB8AAAHwAICAAADCjhng4+wPMIAgCqAzV3VACSBAAhggAY2CE4ZJgIcKbA0dGU5AhirgDIyAcQgAAOAAAAAAACAAAAAAAAAAQAAAAAAAAAAA==

> <PUBCHEM_IUPAC_OPENEYE_NAME>
N-ethyl-N-[2-[4-(5-fluoroindazol-1-yl)-1-piperidyl]ethyl]-3-hydroxy-propanamide

> <PUBCHEM_IUPAC_CAS_NAME>
N-ethyl-N-[2-[4-(5-fluoro-1-indazolyl)-1-piperidinyl]ethyl]-3-hydroxypropanamide

> <PUBCHEM_IUPAC_NAME_MARKUP>
<I>N</I>-ethyl-<I>N</I>-[2-[4-(5-fluoroindazol-1-yl)piperidin-1-yl]ethyl]-3-hydroxypropanamide

> <PUBCHEM_IUPAC_NAME>
N-ethyl-N-[2-[4-(5-fluoroindazol-1-yl)piperidin-1-yl]ethyl]-3-hydroxypropanamide

> <PUBCHEM_IUPAC_SYSTEMATIC_NAME>
N-ethyl-N-[2-[4-(5-fluoranylindazol-1-yl)piperidin-1-yl]ethyl]-3-oxidanyl-propanamide

> <PUBCHEM_IUPAC_TRADITIONAL_NAME>
N-ethyl-N-[2-[4-(5-fluoroindazol-1-yl)piperidino]ethyl]-3-hydroxy-propionamide

> <PUBCHEM_IUPAC_INCHI>
InChI=1S/C19H27FN4O2/c1-2-23(19(26)7-12-25)11-10-22-8-5-17(6-9-22)24-18-4-3-16(20)13-15(18)14-21-24/h3-4,13-14,17,25H,2,5-12H2,1H3

> <PUBCHEM_IUPAC_INCHIKEY>
YPTQUGODRIZPOA-UHFFFAOYSA-N

> <PUBCHEM_XLOGP3_AA>
1.3

> <PUBCHEM_EXACT_MASS>
362.21180428

> <PUBCHEM_MOLECULAR_FORMULA>
C19H27FN4O2

> <PUBCHEM_MOLECULAR_WEIGHT>
362.4

> <PUBCHEM_OPENEYE_CAN_SMILES>
CCN(CCN1CCC(CC1)N2C3=C(C=C(C=C3)F)C=N2)C(=O)CCO

> <PUBCHEM_OPENEYE_ISO_SMILES>
CCN(CCN1CCC(CC1)N2C3=C(C=C(C=C3)F)C=N2)C(=O)CCO

> <PUBCHEM_CACTVS_TPSA>
61.6

> <PUBCHEM_MONOISOTOPIC_WEIGHT>
362.21180428

> <PUBCHEM_TOTAL_CHARGE>
0

> <PUBCHEM_HEAVY_ATOM_COUNT>
26

> <PUBCHEM_ATOM_DEF_STEREO_COUNT>
0

> <PUBCHEM_ATOM_UDEF_STEREO_COUNT>
0

> <PUBCHEM_BOND_DEF_STEREO_COUNT>
0

> <PUBCHEM_BOND_UDEF_STEREO_COUNT>
0

> <PUBCHEM_ISOTOPIC_ATOM_COUNT>
0

> <PUBCHEM_COMPONENT_COUNT>
1

> <PUBCHEM_CACTVS_TAUTO_COUNT>
-1

> <PUBCHEM_COORDINATE_TYPE>
1
5
255

> <PUBCHEM_BONDANNOTATIONS>
15  16  8
15  18  8
16  17  8
16  20  8
18  22  8
20  23  8
22  23  8
5  15  8
5  6  8
6  17  8

$$$$
