21073793
  -OEChem-09292322312D

 64 68  0     0  0  0  0  0  0999 V2000
   15.0421   -1.0085    0.0000 O   0  0  0  0  0  0  0  0  0  0  0  0
    7.2622   -1.4370    0.0000 O   0  0  0  0  0  0  0  0  0  0  0  0
    2.0000   -1.4129    0.0000 O   0  0  0  0  0  0  0  0  0  0  0  0
   11.5942   -0.9537    0.0000 N   0  0  0  0  0  0  0  0  0  0  0  0
   13.3301    0.0396    0.0000 N   0  0  0  0  0  0  0  0  0  0  0  0
    5.4920   -1.4475    0.0000 N   0  0  0  0  0  0  0  0  0  0  0  0
    3.7320   -1.4129    0.0000 N   0  0  0  0  0  0  0  0  0  0  0  0
   12.4583   -1.4571    0.0000 C   0  0  0  0  0  0  0  0  0  0  0  0
   11.5981    0.0463    0.0000 C   0  0  0  0  0  0  0  0  0  0  0  0
   13.3262   -0.9604    0.0000 C   0  0  0  0  0  0  0  0  0  0  0  0
   12.4660    0.5429    0.0000 C   0  0  0  0  0  0  0  0  0  0  0  0
   10.7263   -1.4504    0.0000 C   0  0  0  0  0  0  0  0  0  0  0  0
   14.1980    0.5362    0.0000 C   0  0  0  0  0  0  0  0  0  0  0  0
    9.8622   -0.9471    0.0000 C   0  0  0  0  0  0  0  0  0  0  0  0
   15.0621    0.0329    0.0000 C   0  0  0  0  0  0  0  0  0  0  0  0
   15.9301    0.5296    0.0000 C   0  0  0  0  0  0  0  0  0  0  0  0
    8.9942   -1.4437    0.0000 C   0  0  0  0  0  0  0  0  0  0  0  0
   16.8381    0.0192    0.0000 C   0  0  0  0  0  0  0  0  0  0  0  0
   14.2019    1.5362    0.0000 C   0  0  0  0  0  0  0  0  0  0  0  0
   16.8421   -1.0224    0.0000 C   0  0  0  0  0  0  0  0  0  0  0  0
   15.9381   -1.5397    0.0000 C   0  0  0  0  0  0  0  0  0  0  0  0
   15.9339    1.5296    0.0000 C   0  0  0  0  0  0  0  0  0  0  0  0
   15.0698    2.0329    0.0000 C   0  0  0  0  0  0  0  0  0  0  0  0
    8.1301   -0.9404    0.0000 C   0  0  0  0  0  0  0  0  0  0  0  0
    6.3981   -0.9337    0.0000 C   0  0  0  0  0  0  0  0  0  0  0  0
    4.5981    0.0871    0.0000 C   0  0  0  0  0  0  0  0  0  0  0  0
    3.7320    0.5871    0.0000 C   0  0  0  0  0  0  0  0  0  0  0  0
    4.5981   -0.9129    0.0000 C   0  0  0  0  0  0  0  0  0  0  0  0
    2.8660    0.0871    0.0000 C   0  0  0  0  0  0  0  0  0  0  0  0
    5.4920    0.6218    0.0000 C   0  0  0  0  0  0  0  0  0  0  0  0
    6.3981    0.1079    0.0000 C   0  0  0  0  0  0  0  0  0  0  0  0
    2.8660   -0.9129    0.0000 C   0  0  0  0  0  0  0  0  0  0  0  0
   12.0579   -1.9305    0.0000 H   0  0  0  0  0  0  0  0  0  0  0  0
   12.8550   -1.9336    0.0000 H   0  0  0  0  0  0  0  0  0  0  0  0
   11.3882    0.6297    0.0000 H   0  0  0  0  0  0  0  0  0  0  0  0
   10.9871   -0.0590    0.0000 H   0  0  0  0  0  0  0  0  0  0  0  0
   13.5360   -1.5438    0.0000 H   0  0  0  0  0  0  0  0  0  0  0  0
   13.9372   -0.8551    0.0000 H   0  0  0  0  0  0  0  0  0  0  0  0
   12.8664    1.0163    0.0000 H   0  0  0  0  0  0  0  0  0  0  0  0
   12.0693    1.0194    0.0000 H   0  0  0  0  0  0  0  0  0  0  0  0
   10.3259   -1.9238    0.0000 H   0  0  0  0  0  0  0  0  0  0  0  0
   11.1229   -1.9269    0.0000 H   0  0  0  0  0  0  0  0  0  0  0  0
   10.2625   -0.4736    0.0000 H   0  0  0  0  0  0  0  0  0  0  0  0
    9.4655   -0.4706    0.0000 H   0  0  0  0  0  0  0  0  0  0  0  0
    8.5939   -1.9171    0.0000 H   0  0  0  0  0  0  0  0  0  0  0  0
    9.3909   -1.9202    0.0000 H   0  0  0  0  0  0  0  0  0  0  0  0
   17.4494   -0.0845    0.0000 H   0  0  0  0  0  0  0  0  0  0  0  0
   17.0449    0.6037    0.0000 H   0  0  0  0  0  0  0  0  0  0  0  0
   13.6662    1.8483    0.0000 H   0  0  0  0  0  0  0  0  0  0  0  0
   17.0534   -1.6053    0.0000 H   0  0  0  0  0  0  0  0  0  0  0  0
   17.4526   -0.9140    0.0000 H   0  0  0  0  0  0  0  0  0  0  0  0
   15.5353   -2.0111    0.0000 H   0  0  0  0  0  0  0  0  0  0  0  0
   16.3335   -2.0172    0.0000 H   0  0  0  0  0  0  0  0  0  0  0  0
   16.4721    1.8375    0.0000 H   0  0  0  0  0  0  0  0  0  0  0  0
   15.0722    2.6529    0.0000 H   0  0  0  0  0  0  0  0  0  0  0  0
    8.5305   -0.4670    0.0000 H   0  0  0  0  0  0  0  0  0  0  0  0
    7.7334   -0.4639    0.0000 H   0  0  0  0  0  0  0  0  0  0  0  0
    4.1306    1.0621    0.0000 H   0  0  0  0  0  0  0  0  0  0  0  0
    3.3335    1.0621    0.0000 H   0  0  0  0  0  0  0  0  0  0  0  0
    2.6540    0.6697    0.0000 H   0  0  0  0  0  0  0  0  0  0  0  0
    2.2554   -0.0206    0.0000 H   0  0  0  0  0  0  0  0  0  0  0  0
    5.4848    1.2417    0.0000 H   0  0  0  0  0  0  0  0  0  0  0  0
    6.9338    0.4200    0.0000 H   0  0  0  0  0  0  0  0  0  0  0  0
    3.7320   -2.0329    0.0000 H   0  0  0  0  0  0  0  0  0  0  0  0
  1 15  1  0  0  0  0
  1 21  1  0  0  0  0
  2 24  1  0  0  0  0
  2 25  1  0  0  0  0
  3 32  2  0  0  0  0
  4  8  1  0  0  0  0
  4  9  1  0  0  0  0
  4 12  1  0  0  0  0
  5 10  1  0  0  0  0
  5 11  1  0  0  0  0
  5 13  1  0  0  0  0
  6 25  2  0  0  0  0
  6 28  1  0  0  0  0
  7 28  1  0  0  0  0
  7 32  1  0  0  0  0
  7 64  1  0  0  0  0
  8 10  1  0  0  0  0
  8 33  1  0  0  0  0
  8 34  1  0  0  0  0
  9 11  1  0  0  0  0
  9 35  1  0  0  0  0
  9 36  1  0  0  0  0
 10 37  1  0  0  0  0
 10 38  1  0  0  0  0
 11 39  1  0  0  0  0
 11 40  1  0  0  0  0
 12 14  1  0  0  0  0
 12 41  1  0  0  0  0
 12 42  1  0  0  0  0
 13 15  1  0  0  0  0
 13 19  2  0  0  0  0
 14 17  1  0  0  0  0
 14 43  1  0  0  0  0
 14 44  1  0  0  0  0
 15 16  2  0  0  0  0
 16 18  1  0  0  0  0
 16 22  1  0  0  0  0
 17 24  1  0  0  0  0
 17 45  1  0  0  0  0
 17 46  1  0  0  0  0
 18 20  1  0  0  0  0
 18 47  1  0  0  0  0
 18 48  1  0  0  0  0
 19 23  1  0  0  0  0
 19 49  1  0  0  0  0
 20 21  1  0  0  0  0
 20 50  1  0  0  0  0
 20 51  1  0  0  0  0
 21 52  1  0  0  0  0
 21 53  1  0  0  0  0
 22 23  2  0  0  0  0
 22 54  1  0  0  0  0
 23 55  1  0  0  0  0
 24 56  1  0  0  0  0
 24 57  1  0  0  0  0
 25 31  1  0  0  0  0
 26 27  1  0  0  0  0
 26 28  2  0  0  0  0
 26 30  1  0  0  0  0
 27 29  1  0  0  0  0
 27 58  1  0  0  0  0
 27 59  1  0  0  0  0
 29 32  1  0  0  0  0
 29 60  1  0  0  0  0
 29 61  1  0  0  0  0
 30 31  2  0  0  0  0
 30 62  1  0  0  0  0
 31 63  1  0  0  0  0
M  END
> <PUBCHEM_COMPOUND_CID>
21073793

> <PUBCHEM_COMPOUND_CANONICALIZED>
1

> <PUBCHEM_CACTVS_COMPLEXITY>
612

> <PUBCHEM_CACTVS_HBOND_ACCEPTOR>
6

> <PUBCHEM_CACTVS_HBOND_DONOR>
1

> <PUBCHEM_CACTVS_ROTATABLE_BOND>
7

> <PUBCHEM_CACTVS_SUBSKEYS>
AAADcfB7sAAAAAAAAAAAAAAAAAAAAAAAAAA8WLEiAAAAAACxwAAAHgAQAAAADAzhmgYx9pPIFACoAidydACCiCkhIiAJmCE/bJiOZvLEuZufOCjs1RPY6Ce42aKOAAAAQAAIEAAAAACAABAgAAAAAAAAAA==

> <PUBCHEM_IUPAC_OPENEYE_NAME>
7-[4-(4-chroman-8-ylpiperazin-1-yl)butoxy]-3,4-dihydro-1H-1,8-naphthyridin-2-one

> <PUBCHEM_IUPAC_CAS_NAME>
7-[4-[4-(3,4-dihydro-2H-1-benzopyran-8-yl)-1-piperazinyl]butoxy]-3,4-dihydro-1H-1,8-naphthyridin-2-one

> <PUBCHEM_IUPAC_NAME_MARKUP>
7-[4-[4-(3,4-dihydro-2<I>H</I>-chromen-8-yl)piperazin-1-yl]butoxy]-3,4-dihydro-1<I>H</I>-1,8-naphthyridin-2-one

> <PUBCHEM_IUPAC_NAME>
7-[4-[4-(3,4-dihydro-2H-chromen-8-yl)piperazin-1-yl]butoxy]-3,4-dihydro-1H-1,8-naphthyridin-2-one

> <PUBCHEM_IUPAC_SYSTEMATIC_NAME>
7-[4-[4-(3,4-dihydro-2H-chromen-8-yl)piperazin-1-yl]butoxy]-3,4-dihydro-1H-1,8-naphthyridin-2-one

> <PUBCHEM_IUPAC_TRADITIONAL_NAME>
7-[4-(4-chroman-8-ylpiperazino)butoxy]-3,4-dihydro-1H-1,8-naphthyridin-2-one

> <PUBCHEM_IUPAC_INCHI>
InChI=1S/C25H32N4O3/c30-22-10-8-20-9-11-23(27-25(20)26-22)31-17-2-1-12-28-13-15-29(16-14-28)21-7-3-5-19-6-4-18-32-24(19)21/h3,5,7,9,11H,1-2,4,6,8,10,12-18H2,(H,26,27,30)

> <PUBCHEM_IUPAC_INCHIKEY>
NRFJXDLMBKNOHP-UHFFFAOYSA-N

> <PUBCHEM_XLOGP3_AA>
3.3

> <PUBCHEM_EXACT_MASS>
436.24744090

> <PUBCHEM_MOLECULAR_FORMULA>
C25H32N4O3

> <PUBCHEM_MOLECULAR_WEIGHT>
436.5

> <PUBCHEM_OPENEYE_CAN_SMILES>
C1CC2=C(C(=CC=C2)N3CCN(CC3)CCCCOC4=NC5=C(CCC(=O)N5)C=C4)OC1

> <PUBCHEM_OPENEYE_ISO_SMILES>
C1CC2=C(C(=CC=C2)N3CCN(CC3)CCCCOC4=NC5=C(CCC(=O)N5)C=C4)OC1

> <PUBCHEM_CACTVS_TPSA>
66.9

> <PUBCHEM_MONOISOTOPIC_WEIGHT>
436.24744090

> <PUBCHEM_TOTAL_CHARGE>
0

> <PUBCHEM_HEAVY_ATOM_COUNT>
32

> <PUBCHEM_ATOM_DEF_STEREO_COUNT>
0

> <PUBCHEM_ATOM_UDEF_STEREO_COUNT>
0

> <PUBCHEM_BOND_DEF_STEREO_COUNT>
0

> <PUBCHEM_BOND_UDEF_STEREO_COUNT>
0

> <PUBCHEM_ISOTOPIC_ATOM_COUNT>
0

> <PUBCHEM_COMPONENT_COUNT>
1

> <PUBCHEM_CACTVS_TAUTO_COUNT>
-1

> <PUBCHEM_COORDINATE_TYPE>
1
5
255

> <PUBCHEM_BONDANNOTATIONS>
13  15  8
13  19  8
15  16  8
16  22  8
19  23  8
22  23  8
25  31  8
26  28  8
26  30  8
30  31  8
6  25  8
6  28  8

$$$$
