53364225
  -OEChem-09292322322D

132139  0     0  0  0  0  0  0999 V2000
    7.1962  -13.2906    0.0000 O   0  0  0  0  0  0  0  0  0  0  0  0
   16.0741   11.9742    0.0000 O   0  0  0  0  0  0  0  0  0  0  0  0
    2.8660   -6.7906    0.0000 O   0  0  0  0  0  0  0  0  0  0  0  0
   11.2304    5.8474    0.0000 O   0  0  0  0  0  0  0  0  0  0  0  0
    4.5981   -5.7906    0.0000 O   0  0  0  0  0  0  0  0  0  0  0  0
    9.7441    7.1857    0.0000 O   0  0  0  0  0  0  0  0  0  0  0  0
    6.7329   -0.2202    0.0000 O   0  0  0  0  0  0  0  0  0  0  0  0
    6.5072    2.4159    0.0000 O   0  0  0  0  0  0  0  0  0  0  0  0
    5.4641  -10.2906    0.0000 N   0  0  0  0  0  0  0  0  0  0  0  0
   13.7562    9.3999    0.0000 N   0  0  0  0  0  0  0  0  0  0  0  0
    7.1962  -11.2906    0.0000 N   0  0  0  0  0  0  0  0  0  0  0  0
   14.1720   11.3562    0.0000 N   0  0  0  0  0  0  0  0  0  0  0  0
    5.9641   -2.7518    0.0000 N   0  0  0  0  0  0  0  0  0  0  0  0
    7.2761    4.9475    0.0000 N   0  0  0  0  0  0  0  0  0  0  0  0
    4.6551   -3.7029    0.0000 N   0  0  0  0  0  0  0  0  0  0  0  0
    7.7761    6.4863    0.0000 N   0  0  0  0  0  0  0  0  0  0  0  0
    4.9641   -2.7518    0.0000 N   0  0  0  0  0  0  0  0  0  0  0  0
    6.9671    5.8985    0.0000 N   0  0  0  0  0  0  0  0  0  0  0  0
    6.3301   -9.7906    0.0000 C   0  0  0  0  0  0  0  0  0  0  0  0
    5.4641  -11.2906    0.0000 C   0  0  0  0  0  0  0  0  0  0  0  0
   14.7073    9.7089    0.0000 C   0  0  0  0  0  0  0  0  0  0  0  0
   13.0131   10.0690    0.0000 C   0  0  0  0  0  0  0  0  0  0  0  0
    7.1962  -10.2906    0.0000 C   0  0  0  0  0  0  0  0  0  0  0  0
    6.3301  -11.7906    0.0000 C   0  0  0  0  0  0  0  0  0  0  0  0
   14.9152   10.6871    0.0000 C   0  0  0  0  0  0  0  0  0  0  0  0
   13.2210   11.0472    0.0000 C   0  0  0  0  0  0  0  0  0  0  0  0
    4.5981   -9.7906    0.0000 C   0  0  0  0  0  0  0  0  0  0  0  0
   13.5483    8.4218    0.0000 C   0  0  0  0  0  0  0  0  0  0  0  0
    8.0622  -11.7906    0.0000 C   0  0  0  0  0  0  0  0  0  0  0  0
   14.3799   12.3343    0.0000 C   0  0  0  0  0  0  0  0  0  0  0  0
    4.5981   -8.7906    0.0000 C   0  0  0  0  0  0  0  0  0  0  0  0
   12.5972    8.1127    0.0000 C   0  0  0  0  0  0  0  0  0  0  0  0
    8.0622  -12.7906    0.0000 C   0  0  0  0  0  0  0  0  0  0  0  0
   15.3310   12.6434    0.0000 C   0  0  0  0  0  0  0  0  0  0  0  0
    8.9282  -11.2906    0.0000 C   0  0  0  0  0  0  0  0  0  0  0  0
   13.6368   13.0035    0.0000 C   0  0  0  0  0  0  0  0  0  0  0  0
    3.7320   -8.2906    0.0000 C   0  0  0  0  0  0  0  0  0  0  0  0
   12.3893    7.1346    0.0000 C   0  0  0  0  0  0  0  0  0  0  0  0
    5.4641   -8.2906    0.0000 C   0  0  0  0  0  0  0  0  0  0  0  0
   11.8541    8.7819    0.0000 C   0  0  0  0  0  0  0  0  0  0  0  0
    8.9282  -13.2906    0.0000 C   0  0  0  0  0  0  0  0  0  0  0  0
   15.5389   13.6215    0.0000 C   0  0  0  0  0  0  0  0  0  0  0  0
    9.7942  -11.7906    0.0000 C   0  0  0  0  0  0  0  0  0  0  0  0
   13.8447   13.9816    0.0000 C   0  0  0  0  0  0  0  0  0  0  0  0
    3.7320   -7.2906    0.0000 C   0  0  0  0  0  0  0  0  0  0  0  0
   11.4383    6.8256    0.0000 C   0  0  0  0  0  0  0  0  0  0  0  0
    9.7942  -12.7906    0.0000 C   0  0  0  0  0  0  0  0  0  0  0  0
   14.7958   14.2906    0.0000 C   0  0  0  0  0  0  0  0  0  0  0  0
    5.4641   -7.2906    0.0000 C   0  0  0  0  0  0  0  0  0  0  0  0
   10.9030    8.4728    0.0000 C   0  0  0  0  0  0  0  0  0  0  0  0
    4.5981   -6.7906    0.0000 C   0  0  0  0  0  0  0  0  0  0  0  0
   10.6951    7.4947    0.0000 C   0  0  0  0  0  0  0  0  0  0  0  0
    7.1962  -14.2906    0.0000 C   0  0  0  0  0  0  0  0  0  0  0  0
   17.0252   12.2832    0.0000 C   0  0  0  0  0  0  0  0  0  0  0  0
    5.4641   -5.2906    0.0000 C   0  0  0  0  0  0  0  0  0  0  0  0
    9.5361    6.2075    0.0000 C   0  0  0  0  0  0  0  0  0  0  0  0
    2.0000   -7.2906    0.0000 C   0  0  0  0  0  0  0  0  0  0  0  0
   11.9735    5.1783    0.0000 C   0  0  0  0  0  0  0  0  0  0  0  0
    5.4641   -4.2906    0.0000 C   0  0  0  0  0  0  0  0  0  0  0  0
    8.5851    5.8985    0.0000 C   0  0  0  0  0  0  0  0  0  0  0  0
    6.2731   -3.7029    0.0000 C   0  0  0  0  0  0  0  0  0  0  0  0
    8.2761    4.9475    0.0000 C   0  0  0  0  0  0  0  0  0  0  0  0
    6.5519   -1.9428    0.0000 C   0  0  0  0  0  0  0  0  0  0  0  0
    6.6883    4.1384    0.0000 C   0  0  0  0  0  0  0  0  0  0  0  0
    6.1452   -1.0292    0.0000 C   0  0  0  0  0  0  0  0  0  0  0  0
    7.0950    3.2249    0.0000 C   0  0  0  0  0  0  0  0  0  0  0  0
    6.3262    0.6933    0.0000 C   0  0  0  0  0  0  0  0  0  0  0  0
    6.9140    1.5023    0.0000 C   0  0  0  0  0  0  0  0  0  0  0  0
    6.7287   -9.3157    0.0000 H   0  0  0  0  0  0  0  0  0  0  0  0
    5.9316   -9.3157    0.0000 H   0  0  0  0  0  0  0  0  0  0  0  0
    4.8535  -11.1830    0.0000 H   0  0  0  0  0  0  0  0  0  0  0  0
    5.2520  -11.8733    0.0000 H   0  0  0  0  0  0  0  0  0  0  0  0
   14.7935    9.0950    0.0000 H   0  0  0  0  0  0  0  0  0  0  0  0
   15.3269    9.6873    0.0000 H   0  0  0  0  0  0  0  0  0  0  0  0
   12.4382   10.3013    0.0000 H   0  0  0  0  0  0  0  0  0  0  0  0
   12.6845    9.5432    0.0000 H   0  0  0  0  0  0  0  0  0  0  0  0
    7.8067  -10.3983    0.0000 H   0  0  0  0  0  0  0  0  0  0  0  0
    7.4082   -9.7080    0.0000 H   0  0  0  0  0  0  0  0  0  0  0  0
    5.9316  -12.2656    0.0000 H   0  0  0  0  0  0  0  0  0  0  0  0
    6.7287  -12.2656    0.0000 H   0  0  0  0  0  0  0  0  0  0  0  0
   15.4900   10.4548    0.0000 H   0  0  0  0  0  0  0  0  0  0  0  0
   15.2437   11.2129    0.0000 H   0  0  0  0  0  0  0  0  0  0  0  0
   13.1347   11.6611    0.0000 H   0  0  0  0  0  0  0  0  0  0  0  0
   12.6013   11.0688    0.0000 H   0  0  0  0  0  0  0  0  0  0  0  0
    3.9875   -9.6830    0.0000 H   0  0  0  0  0  0  0  0  0  0  0  0
    4.3860  -10.3733    0.0000 H   0  0  0  0  0  0  0  0  0  0  0  0
   13.6346    7.8078    0.0000 H   0  0  0  0  0  0  0  0  0  0  0  0
   14.1679    8.4001    0.0000 H   0  0  0  0  0  0  0  0  0  0  0  0
    8.9282  -10.6706    0.0000 H   0  0  0  0  0  0  0  0  0  0  0  0
   13.0471   12.8119    0.0000 H   0  0  0  0  0  0  0  0  0  0  0  0
    3.1951   -8.6006    0.0000 H   0  0  0  0  0  0  0  0  0  0  0  0
   12.8501    6.7197    0.0000 H   0  0  0  0  0  0  0  0  0  0  0  0
    6.0010   -8.6006    0.0000 H   0  0  0  0  0  0  0  0  0  0  0  0
   11.9830    9.3883    0.0000 H   0  0  0  0  0  0  0  0  0  0  0  0
    8.9282  -13.9106    0.0000 H   0  0  0  0  0  0  0  0  0  0  0  0
   16.1286   13.8131    0.0000 H   0  0  0  0  0  0  0  0  0  0  0  0
   10.3312  -11.4806    0.0000 H   0  0  0  0  0  0  0  0  0  0  0  0
   13.3840   14.3965    0.0000 H   0  0  0  0  0  0  0  0  0  0  0  0
   10.3312  -13.1006    0.0000 H   0  0  0  0  0  0  0  0  0  0  0  0
   14.9247   14.8971    0.0000 H   0  0  0  0  0  0  0  0  0  0  0  0
    6.0010   -6.9806    0.0000 H   0  0  0  0  0  0  0  0  0  0  0  0
   10.4423    8.8877    0.0000 H   0  0  0  0  0  0  0  0  0  0  0  0
    6.5762  -14.2906    0.0000 H   0  0  0  0  0  0  0  0  0  0  0  0
    7.1962  -14.9106    0.0000 H   0  0  0  0  0  0  0  0  0  0  0  0
    7.8162  -14.2906    0.0000 H   0  0  0  0  0  0  0  0  0  0  0  0
   17.2168   11.6936    0.0000 H   0  0  0  0  0  0  0  0  0  0  0  0
   17.6149   12.4748    0.0000 H   0  0  0  0  0  0  0  0  0  0  0  0
   16.8336   12.8729    0.0000 H   0  0  0  0  0  0  0  0  0  0  0  0
    5.6762   -5.8732    0.0000 H   0  0  0  0  0  0  0  0  0  0  0  0
    6.0747   -5.1830    0.0000 H   0  0  0  0  0  0  0  0  0  0  0  0
    9.6224    5.5936    0.0000 H   0  0  0  0  0  0  0  0  0  0  0  0
   10.1558    6.1859    0.0000 H   0  0  0  0  0  0  0  0  0  0  0  0
    1.6900   -6.7537    0.0000 H   0  0  0  0  0  0  0  0  0  0  0  0
    1.4631   -7.6006    0.0000 H   0  0  0  0  0  0  0  0  0  0  0  0
    2.3100   -7.8276    0.0000 H   0  0  0  0  0  0  0  0  0  0  0  0
   11.5586    4.7176    0.0000 H   0  0  0  0  0  0  0  0  0  0  0  0
   12.4343    4.7634    0.0000 H   0  0  0  0  0  0  0  0  0  0  0  0
   12.3884    5.6390    0.0000 H   0  0  0  0  0  0  0  0  0  0  0  0
    6.8628   -3.8944    0.0000 H   0  0  0  0  0  0  0  0  0  0  0  0
    8.6405    4.4459    0.0000 H   0  0  0  0  0  0  0  0  0  0  0  0
    6.9826   -2.3888    0.0000 H   0  0  0  0  0  0  0  0  0  0  0  0
    7.0659   -1.5961    0.0000 H   0  0  0  0  0  0  0  0  0  0  0  0
    6.2576    4.5844    0.0000 H   0  0  0  0  0  0  0  0  0  0  0  0
    6.1743    3.7918    0.0000 H   0  0  0  0  0  0  0  0  0  0  0  0
    5.7145   -0.5832    0.0000 H   0  0  0  0  0  0  0  0  0  0  0  0
    5.6312   -1.3759    0.0000 H   0  0  0  0  0  0  0  0  0  0  0  0
    7.5257    2.7789    0.0000 H   0  0  0  0  0  0  0  0  0  0  0  0
    7.6090    3.5716    0.0000 H   0  0  0  0  0  0  0  0  0  0  0  0
    5.8955    1.1393    0.0000 H   0  0  0  0  0  0  0  0  0  0  0  0
    5.8122    0.3466    0.0000 H   0  0  0  0  0  0  0  0  0  0  0  0
    7.3447    1.0563    0.0000 H   0  0  0  0  0  0  0  0  0  0  0  0
    7.4280    1.8490    0.0000 H   0  0  0  0  0  0  0  0  0  0  0  0
  1 33  1  0  0  0  0
  1 53  1  0  0  0  0
  2 34  1  0  0  0  0
  2 54  1  0  0  0  0
  3 45  1  0  0  0  0
  3 57  1  0  0  0  0
  4 46  1  0  0  0  0
  4 58  1  0  0  0  0
  5 51  1  0  0  0  0
  5 55  1  0  0  0  0
  6 52  1  0  0  0  0
  6 56  1  0  0  0  0
  7 65  1  0  0  0  0
  7 67  1  0  0  0  0
  8 66  1  0  0  0  0
  8 68  1  0  0  0  0
  9 19  1  0  0  0  0
  9 20  1  0  0  0  0
  9 27  1  0  0  0  0
 10 21  1  0  0  0  0
 10 22  1  0  0  0  0
 10 28  1  0  0  0  0
 11 23  1  0  0  0  0
 11 24  1  0  0  0  0
 11 29  1  0  0  0  0
 12 25  1  0  0  0  0
 12 26  1  0  0  0  0
 12 30  1  0  0  0  0
 13 17  1  0  0  0  0
 13 61  1  0  0  0  0
 13 63  1  0  0  0  0
 14 18  1  0  0  0  0
 14 62  1  0  0  0  0
 14 64  1  0  0  0  0
 15 17  2  0  0  0  0
 15 59  1  0  0  0  0
 16 18  2  0  0  0  0
 16 60  1  0  0  0  0
 19 23  1  0  0  0  0
 19 69  1  0  0  0  0
 19 70  1  0  0  0  0
 20 24  1  0  0  0  0
 20 71  1  0  0  0  0
 20 72  1  0  0  0  0
 21 25  1  0  0  0  0
 21 73  1  0  0  0  0
 21 74  1  0  0  0  0
 22 26  1  0  0  0  0
 22 75  1  0  0  0  0
 22 76  1  0  0  0  0
 23 77  1  0  0  0  0
 23 78  1  0  0  0  0
 24 79  1  0  0  0  0
 24 80  1  0  0  0  0
 25 81  1  0  0  0  0
 25 82  1  0  0  0  0
 26 83  1  0  0  0  0
 26 84  1  0  0  0  0
 27 31  1  0  0  0  0
 27 85  1  0  0  0  0
 27 86  1  0  0  0  0
 28 32  1  0  0  0  0
 28 87  1  0  0  0  0
 28 88  1  0  0  0  0
 29 33  1  0  0  0  0
 29 35  2  0  0  0  0
 30 34  1  0  0  0  0
 30 36  2  0  0  0  0
 31 37  2  0  0  0  0
 31 39  1  0  0  0  0
 32 38  2  0  0  0  0
 32 40  1  0  0  0  0
 33 41  2  0  0  0  0
 34 42  2  0  0  0  0
 35 43  1  0  0  0  0
 35 89  1  0  0  0  0
 36 44  1  0  0  0  0
 36 90  1  0  0  0  0
 37 45  1  0  0  0  0
 37 91  1  0  0  0  0
 38 46  1  0  0  0  0
 38 92  1  0  0  0  0
 39 49  2  0  0  0  0
 39 93  1  0  0  0  0
 40 50  2  0  0  0  0
 40 94  1  0  0  0  0
 41 47  1  0  0  0  0
 41 95  1  0  0  0  0
 42 48  1  0  0  0  0
 42 96  1  0  0  0  0
 43 47  2  0  0  0  0
 43 97  1  0  0  0  0
 44 48  2  0  0  0  0
 44 98  1  0  0  0  0
 45 51  2  0  0  0  0
 46 52  2  0  0  0  0
 47 99  1  0  0  0  0
 48100  1  0  0  0  0
 49 51  1  0  0  0  0
 49101  1  0  0  0  0
 50 52  1  0  0  0  0
 50102  1  0  0  0  0
 53103  1  0  0  0  0
 53104  1  0  0  0  0
 53105  1  0  0  0  0
 54106  1  0  0  0  0
 54107  1  0  0  0  0
 54108  1  0  0  0  0
 55 59  1  0  0  0  0
 55109  1  0  0  0  0
 55110  1  0  0  0  0
 56 60  1  0  0  0  0
 56111  1  0  0  0  0
 56112  1  0  0  0  0
 57113  1  0  0  0  0
 57114  1  0  0  0  0
 57115  1  0  0  0  0
 58116  1  0  0  0  0
 58117  1  0  0  0  0
 58118  1  0  0  0  0
 59 61  2  0  0  0  0
 60 62  2  0  0  0  0
 61119  1  0  0  0  0
 62120  1  0  0  0  0
 63 65  1  0  0  0  0
 63121  1  0  0  0  0
 63122  1  0  0  0  0
 64 66  1  0  0  0  0
 64123  1  0  0  0  0
 64124  1  0  0  0  0
 65125  1  0  0  0  0
 65126  1  0  0  0  0
 66127  1  0  0  0  0
 66128  1  0  0  0  0
 67 68  1  0  0  0  0
 67129  1  0  0  0  0
 67130  1  0  0  0  0
 68131  1  0  0  0  0
 68132  1  0  0  0  0
M  END
> <PUBCHEM_COMPOUND_CID>
53364225

> <PUBCHEM_COMPOUND_CANONICALIZED>
1

> <PUBCHEM_CACTVS_COMPLEXITY>
1290

> <PUBCHEM_CACTVS_HBOND_ACCEPTOR>
16

> <PUBCHEM_CACTVS_HBOND_DONOR>
0

> <PUBCHEM_CACTVS_ROTATABLE_BOND>
25

> <PUBCHEM_CACTVS_SUBSKEYS>
AAADcfB//AAAAAAAAAAAAAAAAAAAAWLAAAA8eMGCAAAAAAAB9AAAHgAIAAAADAzhngY+xpMIBACiAzRnRASCDAQxsgAY2AA//IgPZiLEsZuXOCrmwBHa6Aew0BIOIAABAAAAUABAAAIAAACgAAAAAAAAAA==

> <PUBCHEM_IUPAC_OPENEYE_NAME>
1-[[3-methoxy-4-[[1-[2-[2-[2-[4-[[2-methoxy-4-[[4-(2-methoxyphenyl)piperazin-1-yl]methyl]phenoxy]methyl]triazol-1-yl]ethoxy]ethoxy]ethyl]triazol-4-yl]methoxy]phenyl]methyl]-4-(2-methoxyphenyl)piperazine

> <PUBCHEM_IUPAC_CAS_NAME>
1-[[3-methoxy-4-[[1-[2-[2-[2-[4-[[2-methoxy-4-[[4-(2-methoxyphenyl)-1-piperazinyl]methyl]phenoxy]methyl]-1-triazolyl]ethoxy]ethoxy]ethyl]-4-triazolyl]methoxy]phenyl]methyl]-4-(2-methoxyphenyl)piperazine

> <PUBCHEM_IUPAC_NAME_MARKUP>
1-[[3-methoxy-4-[[1-[2-[2-[2-[4-[[2-methoxy-4-[[4-(2-methoxyphenyl)piperazin-1-yl]methyl]phenoxy]methyl]triazol-1-yl]ethoxy]ethoxy]ethyl]triazol-4-yl]methoxy]phenyl]methyl]-4-(2-methoxyphenyl)piperazine

> <PUBCHEM_IUPAC_NAME>
1-[[3-methoxy-4-[[1-[2-[2-[2-[4-[[2-methoxy-4-[[4-(2-methoxyphenyl)piperazin-1-yl]methyl]phenoxy]methyl]triazol-1-yl]ethoxy]ethoxy]ethyl]triazol-4-yl]methoxy]phenyl]methyl]-4-(2-methoxyphenyl)piperazine

> <PUBCHEM_IUPAC_SYSTEMATIC_NAME>
1-[[3-methoxy-4-[[1-[2-[2-[2-[4-[[2-methoxy-4-[[4-(2-methoxyphenyl)piperazin-1-yl]methyl]phenoxy]methyl]-1,2,3-triazol-1-yl]ethoxy]ethoxy]ethyl]-1,2,3-triazol-4-yl]methoxy]phenyl]methyl]-4-(2-methoxyphenyl)piperazine

> <PUBCHEM_IUPAC_TRADITIONAL_NAME>
1-[3-methoxy-4-[[1-[2-[2-[2-[4-[[2-methoxy-4-[[4-(2-methoxyphenyl)piperazino]methyl]phenoxy]methyl]triazol-1-yl]ethoxy]ethoxy]ethyl]triazol-4-yl]methoxy]benzyl]-4-(2-methoxyphenyl)piperazine

> <PUBCHEM_IUPAC_INCHI>
InChI=1S/C50H64N10O8/c1-61-45-11-7-5-9-43(45)57-21-17-55(18-22-57)33-39-13-15-47(49(31-39)63-3)67-37-41-35-59(53-51-41)25-27-65-29-30-66-28-26-60-36-42(52-54-60)38-68-48-16-14-40(32-50(48)64-4)34-56-19-23-58(24-20-56)44-10-6-8-12-46(44)62-2/h5-16,31-32,35-36H,17-30,33-34,37-38H2,1-4H3

> <PUBCHEM_IUPAC_INCHIKEY>
LQTCRFLMOJHQHE-UHFFFAOYSA-N

> <PUBCHEM_XLOGP3_AA>
4.5

> <PUBCHEM_EXACT_MASS>
932.49085904

> <PUBCHEM_MOLECULAR_FORMULA>
C50H64N10O8

> <PUBCHEM_MOLECULAR_WEIGHT>
933.1

> <PUBCHEM_OPENEYE_CAN_SMILES>
COC1=CC=CC=C1N2CCN(CC2)CC3=CC(=C(C=C3)OCC4=CN(N=N4)CCOCCOCCN5C=C(N=N5)COC6=C(C=C(C=C6)CN7CCN(CC7)C8=CC=CC=C8OC)OC)OC

> <PUBCHEM_OPENEYE_ISO_SMILES>
COC1=CC=CC=C1N2CCN(CC2)CC3=CC(=C(C=C3)OCC4=CN(N=N4)CCOCCOCCN5C=C(N=N5)COC6=C(C=C(C=C6)CN7CCN(CC7)C8=CC=CC=C8OC)OC)OC

> <PUBCHEM_CACTVS_TPSA>
148

> <PUBCHEM_MONOISOTOPIC_WEIGHT>
932.49085904

> <PUBCHEM_TOTAL_CHARGE>
0

> <PUBCHEM_HEAVY_ATOM_COUNT>
68

> <PUBCHEM_ATOM_DEF_STEREO_COUNT>
0

> <PUBCHEM_ATOM_UDEF_STEREO_COUNT>
0

> <PUBCHEM_BOND_DEF_STEREO_COUNT>
0

> <PUBCHEM_BOND_UDEF_STEREO_COUNT>
0

> <PUBCHEM_ISOTOPIC_ATOM_COUNT>
0

> <PUBCHEM_COMPONENT_COUNT>
1

> <PUBCHEM_CACTVS_TAUTO_COUNT>
-1

> <PUBCHEM_COORDINATE_TYPE>
1
5
255

> <PUBCHEM_BONDANNOTATIONS>
13  17  8
13  61  8
14  18  8
14  62  8
15  17  8
15  59  8
16  18  8
16  60  8
29  33  8
29  35  8
30  34  8
30  36  8
31  37  8
31  39  8
32  38  8
32  40  8
33  41  8
34  42  8
35  43  8
36  44  8
37  45  8
38  46  8
39  49  8
40  50  8
41  47  8
42  48  8
43  47  8
44  48  8
45  51  8
46  52  8
49  51  8
50  52  8
59  61  8
60  62  8

$$$$
