145990353
  -OEChem-09292322392D

 68 72  0     1  0  0  0  0  0999 V2000
    6.3301    0.3815    0.0000 O   0  0  0  0  0  0  0  0  0  0  0  0
    5.6915    4.0451    0.0000 O   0  0  0  0  0  0  0  0  0  0  0  0
    7.4516    0.9966    0.0000 O   0  0  0  0  0  0  0  0  0  0  0  0
    2.8660   -3.6186    0.0000 O   0  0  0  0  0  0  0  0  0  0  0  0
    4.5981   -0.6185    0.0000 N   0  0  0  0  0  0  0  0  0  0  0  0
    4.5981   -2.6186    0.0000 N   0  0  0  0  0  0  0  0  0  0  0  0
    6.3301    2.3814    0.0000 N   0  0  0  0  0  0  0  0  0  0  0  0
    7.9128    2.7179    0.0000 N   0  0  0  0  0  0  0  0  0  0  0  0
    4.5981    0.3815    0.0000 C   0  0  0  0  0  0  0  0  0  0  0  0
    3.7320   -1.1186    0.0000 C   0  0  0  0  0  0  0  0  0  0  0  0
    5.4641   -1.1186    0.0000 C   0  0  0  0  0  0  0  0  0  0  0  0
    5.4641    0.8815    0.0000 C   0  0  3  0  0  0  0  0  0  0  0  0
    7.4128    3.5839    0.0000 C   0  0  3  0  0  0  0  0  0  0  0  0
    3.7320   -2.1186    0.0000 C   0  0  0  0  0  0  0  0  0  0  0  0
    5.4641   -2.1186    0.0000 C   0  0  0  0  0  0  0  0  0  0  0  0
    5.4641    1.8814    0.0000 C   0  0  0  0  0  0  0  0  0  0  0  0
    6.4347    3.3760    0.0000 C   0  0  0  0  0  0  0  0  0  0  0  0
    8.2788    4.0839    0.0000 C   0  0  0  0  0  0  0  0  0  0  0  0
    7.2437    1.9747    0.0000 C   0  0  0  0  0  0  0  0  0  0  0  0
    7.2049    4.5620    0.0000 C   0  0  0  0  0  0  0  0  0  0  0  0
    4.5981   -3.6186    0.0000 C   0  0  0  0  0  0  0  0  0  0  0  0
    9.1448    3.5839    0.0000 C   0  0  0  0  0  0  0  0  0  0  0  0
    8.2788    5.0839    0.0000 C   0  0  0  0  0  0  0  0  0  0  0  0
    3.7320   -4.1186    0.0000 C   0  0  0  0  0  0  0  0  0  0  0  0
   10.0109    4.0839    0.0000 C   0  0  0  0  0  0  0  0  0  0  0  0
    5.4641   -4.1186    0.0000 C   0  0  0  0  0  0  0  0  0  0  0  0
   10.0109    5.0839    0.0000 C   0  0  0  0  0  0  0  0  0  0  0  0
    9.1448    5.5839    0.0000 C   0  0  0  0  0  0  0  0  0  0  0  0
    3.7320   -5.1186    0.0000 C   0  0  0  0  0  0  0  0  0  0  0  0
    5.4641   -5.1186    0.0000 C   0  0  0  0  0  0  0  0  0  0  0  0
   10.9048    3.5492    0.0000 C   0  0  0  0  0  0  0  0  0  0  0  0
   10.9048    5.6186    0.0000 C   0  0  0  0  0  0  0  0  0  0  0  0
    4.5981   -5.6186    0.0000 C   0  0  0  0  0  0  0  0  0  0  0  0
   11.8109    4.0631    0.0000 C   0  0  0  0  0  0  0  0  0  0  0  0
   11.8109    5.1047    0.0000 C   0  0  0  0  0  0  0  0  0  0  0  0
    2.0000   -4.1186    0.0000 C   0  0  0  0  0  0  0  0  0  0  0  0
    4.3860    0.9641    0.0000 H   0  0  0  0  0  0  0  0  0  0  0  0
    3.9875    0.2738    0.0000 H   0  0  0  0  0  0  0  0  0  0  0  0
    3.5200   -0.5359    0.0000 H   0  0  0  0  0  0  0  0  0  0  0  0
    3.1215   -1.2262    0.0000 H   0  0  0  0  0  0  0  0  0  0  0  0
    6.0747   -1.2262    0.0000 H   0  0  0  0  0  0  0  0  0  0  0  0
    5.6762   -0.5359    0.0000 H   0  0  0  0  0  0  0  0  0  0  0  0
    5.4641    0.2615    0.0000 H   0  0  0  0  0  0  0  0  0  0  0  0
    3.1215   -2.0109    0.0000 H   0  0  0  0  0  0  0  0  0  0  0  0
    3.5200   -2.7012    0.0000 H   0  0  0  0  0  0  0  0  0  0  0  0
    5.6762   -2.7012    0.0000 H   0  0  0  0  0  0  0  0  0  0  0  0
    6.0747   -2.0109    0.0000 H   0  0  0  0  0  0  0  0  0  0  0  0
    5.2520    2.4641    0.0000 H   0  0  0  0  0  0  0  0  0  0  0  0
    4.8535    1.7738    0.0000 H   0  0  0  0  0  0  0  0  0  0  0  0
    8.5294    2.6530    0.0000 H   0  0  0  0  0  0  0  0  0  0  0  0
    7.8113    4.6909    0.0000 H   0  0  0  0  0  0  0  0  0  0  0  0
    7.0760    5.1685    0.0000 H   0  0  0  0  0  0  0  0  0  0  0  0
    6.5984    4.4331    0.0000 H   0  0  0  0  0  0  0  0  0  0  0  0
    9.1448    2.9639    0.0000 H   0  0  0  0  0  0  0  0  0  0  0  0
    6.3301   -0.2385    0.0000 H   0  0  0  0  0  0  0  0  0  0  0  0
    7.7419    5.3939    0.0000 H   0  0  0  0  0  0  0  0  0  0  0  0
    6.0010   -3.8086    0.0000 H   0  0  0  0  0  0  0  0  0  0  0  0
    9.1448    6.2039    0.0000 H   0  0  0  0  0  0  0  0  0  0  0  0
    3.1951   -5.4286    0.0000 H   0  0  0  0  0  0  0  0  0  0  0  0
    6.0010   -5.4286    0.0000 H   0  0  0  0  0  0  0  0  0  0  0  0
   10.8977    2.9293    0.0000 H   0  0  0  0  0  0  0  0  0  0  0  0
   10.8977    6.2385    0.0000 H   0  0  0  0  0  0  0  0  0  0  0  0
    4.5981   -6.2386    0.0000 H   0  0  0  0  0  0  0  0  0  0  0  0
   12.3466    3.7510    0.0000 H   0  0  0  0  0  0  0  0  0  0  0  0
   12.3466    5.4168    0.0000 H   0  0  0  0  0  0  0  0  0  0  0  0
    1.6900   -3.5816    0.0000 H   0  0  0  0  0  0  0  0  0  0  0  0
    1.4631   -4.4286    0.0000 H   0  0  0  0  0  0  0  0  0  0  0  0
    2.3100   -4.6555    0.0000 H   0  0  0  0  0  0  0  0  0  0  0  0
  1 12  1  0  0  0  0
  1 55  1  0  0  0  0
  2 17  2  0  0  0  0
  3 19  2  0  0  0  0
  4 24  1  0  0  0  0
  4 36  1  0  0  0  0
  5  9  1  0  0  0  0
  5 10  1  0  0  0  0
  5 11  1  0  0  0  0
  6 14  1  0  0  0  0
  6 15  1  0  0  0  0
  6 21  1  0  0  0  0
  7 16  1  0  0  0  0
  7 17  1  0  0  0  0
  7 19  1  0  0  0  0
  8 13  1  0  0  0  0
  8 19  1  0  0  0  0
  8 50  1  0  0  0  0
  9 12  1  0  0  0  0
  9 37  1  0  0  0  0
  9 38  1  0  0  0  0
 10 14  1  0  0  0  0
 10 39  1  0  0  0  0
 10 40  1  0  0  0  0
 11 15  1  0  0  0  0
 11 41  1  0  0  0  0
 11 42  1  0  0  0  0
 12 16  1  0  0  0  0
 12 43  1  0  0  0  0
 13 17  1  0  0  0  0
 13 18  1  0  0  0  0
 13 20  1  0  0  0  0
 14 44  1  0  0  0  0
 14 45  1  0  0  0  0
 15 46  1  0  0  0  0
 15 47  1  0  0  0  0
 16 48  1  0  0  0  0
 16 49  1  0  0  0  0
 18 22  2  0  0  0  0
 18 23  1  0  0  0  0
 20 51  1  0  0  0  0
 20 52  1  0  0  0  0
 20 53  1  0  0  0  0
 21 24  1  0  0  0  0
 21 26  2  0  0  0  0
 22 25  1  0  0  0  0
 22 54  1  0  0  0  0
 23 28  2  0  0  0  0
 23 56  1  0  0  0  0
 24 29  2  0  0  0  0
 25 27  1  0  0  0  0
 25 31  2  0  0  0  0
 26 30  1  0  0  0  0
 26 57  1  0  0  0  0
 27 28  1  0  0  0  0
 27 32  2  0  0  0  0
 28 58  1  0  0  0  0
 29 33  1  0  0  0  0
 29 59  1  0  0  0  0
 30 33  2  0  0  0  0
 30 60  1  0  0  0  0
 31 34  1  0  0  0  0
 31 61  1  0  0  0  0
 32 35  1  0  0  0  0
 32 62  1  0  0  0  0
 33 63  1  0  0  0  0
 34 35  2  0  0  0  0
 34 64  1  0  0  0  0
 35 65  1  0  0  0  0
 36 66  1  0  0  0  0
 36 67  1  0  0  0  0
 36 68  1  0  0  0  0
M  END
> <PUBCHEM_COMPOUND_CID>
145990353

> <PUBCHEM_COMPOUND_CANONICALIZED>
1

> <PUBCHEM_CACTVS_COMPLEXITY>
788

> <PUBCHEM_CACTVS_HBOND_ACCEPTOR>
6

> <PUBCHEM_CACTVS_HBOND_DONOR>
2

> <PUBCHEM_CACTVS_ROTATABLE_BOND>
7

> <PUBCHEM_CACTVS_SUBSKEYS>
AAADcfB7uAAAAAAAAAAAAAAAAAAAAWAAAAA8YMEAAAAAAADBVAAAHgAQCAAADJzhmAYzxsPABgCIAiVSUACCCAAhIgAIiAGPbIiOdjLE9buVMChs1zPY6AeYyMCOwAACAAAQEACAAAQAACAgAAAAAAAAAA==

> <PUBCHEM_IUPAC_OPENEYE_NAME>
3-[2-hydroxy-3-[4-(2-methoxyphenyl)piperazin-1-yl]propyl]-5-methyl-5-(2-naphthyl)imidazolidine-2,4-dione

> <PUBCHEM_IUPAC_CAS_NAME>
3-[2-hydroxy-3-[4-(2-methoxyphenyl)-1-piperazinyl]propyl]-5-methyl-5-(2-naphthalenyl)imidazolidine-2,4-dione

> <PUBCHEM_IUPAC_NAME_MARKUP>
3-[2-hydroxy-3-[4-(2-methoxyphenyl)piperazin-1-yl]propyl]-5-methyl-5-naphthalen-2-ylimidazolidine-2,4-dione

> <PUBCHEM_IUPAC_NAME>
3-[2-hydroxy-3-[4-(2-methoxyphenyl)piperazin-1-yl]propyl]-5-methyl-5-naphthalen-2-ylimidazolidine-2,4-dione

> <PUBCHEM_IUPAC_SYSTEMATIC_NAME>
3-[3-[4-(2-methoxyphenyl)piperazin-1-yl]-2-oxidanyl-propyl]-5-methyl-5-naphthalen-2-yl-imidazolidine-2,4-dione

> <PUBCHEM_IUPAC_TRADITIONAL_NAME>
3-[2-hydroxy-3-[4-(2-methoxyphenyl)piperazino]propyl]-5-methyl-5-(2-naphthyl)hydantoin

> <PUBCHEM_IUPAC_INCHI>
InChI=1S/C28H32N4O4/c1-28(22-12-11-20-7-3-4-8-21(20)17-22)26(34)32(27(35)29-28)19-23(33)18-30-13-15-31(16-14-30)24-9-5-6-10-25(24)36-2/h3-12,17,23,33H,13-16,18-19H2,1-2H3,(H,29,35)

> <PUBCHEM_IUPAC_INCHIKEY>
XEBUJQRPSLQFLB-UHFFFAOYSA-N

> <PUBCHEM_XLOGP3_AA>
3.3

> <PUBCHEM_EXACT_MASS>
488.24235551

> <PUBCHEM_MOLECULAR_FORMULA>
C28H32N4O4

> <PUBCHEM_MOLECULAR_WEIGHT>
488.6

> <PUBCHEM_OPENEYE_CAN_SMILES>
CC1(C(=O)N(C(=O)N1)CC(CN2CCN(CC2)C3=CC=CC=C3OC)O)C4=CC5=CC=CC=C5C=C4

> <PUBCHEM_OPENEYE_ISO_SMILES>
CC1(C(=O)N(C(=O)N1)CC(CN2CCN(CC2)C3=CC=CC=C3OC)O)C4=CC5=CC=CC=C5C=C4

> <PUBCHEM_CACTVS_TPSA>
85.4

> <PUBCHEM_MONOISOTOPIC_WEIGHT>
488.24235551

> <PUBCHEM_TOTAL_CHARGE>
0

> <PUBCHEM_HEAVY_ATOM_COUNT>
36

> <PUBCHEM_ATOM_DEF_STEREO_COUNT>
0

> <PUBCHEM_ATOM_UDEF_STEREO_COUNT>
2

> <PUBCHEM_BOND_DEF_STEREO_COUNT>
0

> <PUBCHEM_BOND_UDEF_STEREO_COUNT>
0

> <PUBCHEM_ISOTOPIC_ATOM_COUNT>
0

> <PUBCHEM_COMPONENT_COUNT>
1

> <PUBCHEM_CACTVS_TAUTO_COUNT>
-1

> <PUBCHEM_COORDINATE_TYPE>
1
5
255

> <PUBCHEM_BONDANNOTATIONS>
12  1  3
13  20  3
18  22  8
18  23  8
21  24  8
21  26  8
22  25  8
23  28  8
24  29  8
25  27  8
25  31  8
26  30  8
27  28  8
27  32  8
29  33  8
30  33  8
31  34  8
32  35  8
34  35  8

$$$$
