72197845
  -OEChem-09292322332D

 67 72  0     1  0  0  0  0  0999 V2000
    2.0000   -4.1845    0.0000 F   0  0  0  0  0  0  0  0  0  0  0  0
   11.1249    1.4540    0.0000 O   0  0  0  0  0  0  0  0  0  0  0  0
    7.7789    2.5476    0.0000 O   0  0  0  0  0  0  0  0  0  0  0  0
    6.4763   -1.5282    0.0000 N   0  0  0  0  0  0  0  0  0  0  0  0
    9.3653    1.7358    0.0000 N   0  0  0  0  0  0  0  0  0  0  0  0
    5.5443   -5.9892    0.0000 N   0  0  0  0  0  0  0  0  0  0  0  0
   12.6610    4.1216    0.0000 N   0  0  0  0  0  0  0  0  0  0  0  0
    5.8550   -3.4292    0.0000 C   0  0  0  0  0  0  0  0  0  0  0  0
    5.1871   -2.6849    0.0000 C   0  0  0  0  0  0  0  0  0  0  0  0
    6.8335   -3.2230    0.0000 C   0  0  0  0  0  0  0  0  0  0  0  0
    5.4978   -1.7344    0.0000 C   0  0  0  0  0  0  0  0  0  0  0  0
    7.1441   -2.2725    0.0000 C   0  0  0  0  0  0  0  0  0  0  0  0
    6.7870   -0.5776    0.0000 C   0  0  0  0  0  0  0  0  0  0  0  0
    5.5443   -4.3797    0.0000 C   0  0  0  0  0  0  0  0  0  0  0  0
    7.7654   -0.3714    0.0000 C   0  0  0  0  0  0  0  0  0  0  0  0
    8.0761    0.5791    0.0000 C   0  0  0  0  0  0  0  0  0  0  0  0
    4.5981   -4.6845    0.0000 C   0  0  0  0  0  0  0  0  0  0  0  0
    9.0546    0.7853    0.0000 C   0  0  0  0  0  0  0  0  0  0  0  0
   10.3186    3.0432    0.0000 C   0  0  3  0  0  0  0  0  0  0  0  0
    6.1279   -5.1845    0.0000 C   0  0  0  0  0  0  0  0  0  0  0  0
    9.3681    3.3539    0.0000 C   0  0  0  0  0  0  0  0  0  0  0  0
    4.5981   -5.6845    0.0000 C   0  0  0  0  0  0  0  0  0  0  0  0
   10.3169    2.0432    0.0000 C   0  0  0  0  0  0  0  0  0  0  0  0
    8.7789    2.5459    0.0000 C   0  0  0  0  0  0  0  0  0  0  0  0
   11.1286    3.6296    0.0000 C   0  0  0  0  0  0  0  0  0  0  0  0
    3.7320   -4.1845    0.0000 C   0  0  0  0  0  0  0  0  0  0  0  0
   11.1295    4.6237    0.0000 C   0  0  0  0  0  0  0  0  0  0  0  0
    3.7320   -6.1845    0.0000 C   0  0  0  0  0  0  0  0  0  0  0  0
   12.0733    3.3200    0.0000 C   0  0  0  0  0  0  0  0  0  0  0  0
   12.0816    4.9294    0.0000 C   0  0  0  0  0  0  0  0  0  0  0  0
    2.8660   -4.6845    0.0000 C   0  0  0  0  0  0  0  0  0  0  0  0
    2.8660   -5.6845    0.0000 C   0  0  0  0  0  0  0  0  0  0  0  0
   10.3887    5.2954    0.0000 C   0  0  0  0  0  0  0  0  0  0  0  0
   12.2929    5.9068    0.0000 C   0  0  0  0  0  0  0  0  0  0  0  0
   10.6000    6.2728    0.0000 C   0  0  0  0  0  0  0  0  0  0  0  0
   11.5521    6.5785    0.0000 C   0  0  0  0  0  0  0  0  0  0  0  0
    6.2690   -3.8907    0.0000 H   0  0  0  0  0  0  0  0  0  0  0  0
    4.6402   -2.3929    0.0000 H   0  0  0  0  0  0  0  0  0  0  0  0
    4.8046   -3.1728    0.0000 H   0  0  0  0  0  0  0  0  0  0  0  0
    6.8540   -3.8426    0.0000 H   0  0  0  0  0  0  0  0  0  0  0  0
    7.4473   -3.3103    0.0000 H   0  0  0  0  0  0  0  0  0  0  0  0
    5.4772   -1.1147    0.0000 H   0  0  0  0  0  0  0  0  0  0  0  0
    4.8840   -1.6470    0.0000 H   0  0  0  0  0  0  0  0  0  0  0  0
    7.6910   -2.5645    0.0000 H   0  0  0  0  0  0  0  0  0  0  0  0
    7.5267   -1.7846    0.0000 H   0  0  0  0  0  0  0  0  0  0  0  0
    6.7664    0.0420    0.0000 H   0  0  0  0  0  0  0  0  0  0  0  0
    6.1731   -0.4903    0.0000 H   0  0  0  0  0  0  0  0  0  0  0  0
    7.7860   -0.9911    0.0000 H   0  0  0  0  0  0  0  0  0  0  0  0
    8.3793   -0.4588    0.0000 H   0  0  0  0  0  0  0  0  0  0  0  0
    8.0556    1.1988    0.0000 H   0  0  0  0  0  0  0  0  0  0  0  0
    7.4623    0.6664    0.0000 H   0  0  0  0  0  0  0  0  0  0  0  0
   10.2227    3.6557    0.0000 H   0  0  0  0  0  0  0  0  0  0  0  0
    9.0752    0.1657    0.0000 H   0  0  0  0  0  0  0  0  0  0  0  0
    9.6684    0.6980    0.0000 H   0  0  0  0  0  0  0  0  0  0  0  0
    6.7479   -5.1845    0.0000 H   0  0  0  0  0  0  0  0  0  0  0  0
    9.6212    3.9198    0.0000 H   0  0  0  0  0  0  0  0  0  0  0  0
    8.8317    3.6648    0.0000 H   0  0  0  0  0  0  0  0  0  0  0  0
    5.7369   -6.5785    0.0000 H   0  0  0  0  0  0  0  0  0  0  0  0
    3.7320   -3.5645    0.0000 H   0  0  0  0  0  0  0  0  0  0  0  0
    3.7320   -6.8045    0.0000 H   0  0  0  0  0  0  0  0  0  0  0  0
   12.2628    2.7296    0.0000 H   0  0  0  0  0  0  0  0  0  0  0  0
   13.2810    4.1184    0.0000 H   0  0  0  0  0  0  0  0  0  0  0  0
    2.3291   -5.9945    0.0000 H   0  0  0  0  0  0  0  0  0  0  0  0
    9.7984    5.1058    0.0000 H   0  0  0  0  0  0  0  0  0  0  0  0
   12.8832    6.0964    0.0000 H   0  0  0  0  0  0  0  0  0  0  0  0
   10.1407    6.6892    0.0000 H   0  0  0  0  0  0  0  0  0  0  0  0
   11.6831    7.1845    0.0000 H   0  0  0  0  0  0  0  0  0  0  0  0
  1 31  1  0  0  0  0
  2 23  2  0  0  0  0
  3 24  2  0  0  0  0
  4 11  1  0  0  0  0
  4 12  1  0  0  0  0
  4 13  1  0  0  0  0
  5 18  1  0  0  0  0
  5 23  1  0  0  0  0
  5 24  1  0  0  0  0
  6 20  1  0  0  0  0
  6 22  1  0  0  0  0
  6 58  1  0  0  0  0
  7 29  1  0  0  0  0
  7 30  1  0  0  0  0
  7 62  1  0  0  0  0
  8  9  1  0  0  0  0
  8 10  1  0  0  0  0
  8 14  1  0  0  0  0
  8 37  1  0  0  0  0
  9 11  1  0  0  0  0
  9 38  1  0  0  0  0
  9 39  1  0  0  0  0
 10 12  1  0  0  0  0
 10 40  1  0  0  0  0
 10 41  1  0  0  0  0
 11 42  1  0  0  0  0
 11 43  1  0  0  0  0
 12 44  1  0  0  0  0
 12 45  1  0  0  0  0
 13 15  1  0  0  0  0
 13 46  1  0  0  0  0
 13 47  1  0  0  0  0
 14 17  1  0  0  0  0
 14 20  2  0  0  0  0
 15 16  1  0  0  0  0
 15 48  1  0  0  0  0
 15 49  1  0  0  0  0
 16 18  1  0  0  0  0
 16 50  1  0  0  0  0
 16 51  1  0  0  0  0
 17 22  2  0  0  0  0
 17 26  1  0  0  0  0
 18 53  1  0  0  0  0
 18 54  1  0  0  0  0
 19 21  1  0  0  0  0
 19 23  1  0  0  0  0
 19 25  1  0  0  0  0
 19 52  1  0  0  0  0
 20 55  1  0  0  0  0
 21 24  1  0  0  0  0
 21 56  1  0  0  0  0
 21 57  1  0  0  0  0
 22 28  1  0  0  0  0
 25 27  1  0  0  0  0
 25 29  2  0  0  0  0
 26 31  2  0  0  0  0
 26 59  1  0  0  0  0
 27 30  1  0  0  0  0
 27 33  2  0  0  0  0
 28 32  2  0  0  0  0
 28 60  1  0  0  0  0
 29 61  1  0  0  0  0
 30 34  2  0  0  0  0
 31 32  1  0  0  0  0
 32 63  1  0  0  0  0
 33 35  1  0  0  0  0
 33 64  1  0  0  0  0
 34 36  1  0  0  0  0
 34 65  1  0  0  0  0
 35 36  2  0  0  0  0
 35 66  1  0  0  0  0
 36 67  1  0  0  0  0
M  END
> <PUBCHEM_COMPOUND_CID>
72197845

> <PUBCHEM_COMPOUND_CANONICALIZED>
1

> <PUBCHEM_CACTVS_COMPLEXITY>
802

> <PUBCHEM_CACTVS_HBOND_ACCEPTOR>
4

> <PUBCHEM_CACTVS_HBOND_DONOR>
2

> <PUBCHEM_CACTVS_ROTATABLE_BOND>
7

> <PUBCHEM_CACTVS_SUBSKEYS>
AAADceB7sQAAAAAAAAAAAAAAAAAAAWLFgAA8YIAAAAAAAFgB/gAAHwAQAAAADQjBngw8wPPJkACoAzV3VACCgCAxAiAI2aE4ZJgIIPLAlZGEIAhgliDIyAcdicCegAAAAAACAAAAAAAAAAQAAAAAAAAAAA==

> <PUBCHEM_IUPAC_OPENEYE_NAME>
1-[4-[4-(5-fluoro-1H-indol-3-yl)-1-piperidyl]butyl]-3-(1H-indol-3-yl)pyrrolidine-2,5-dione

> <PUBCHEM_IUPAC_CAS_NAME>
1-[4-[4-(5-fluoro-1H-indol-3-yl)-1-piperidinyl]butyl]-3-(1H-indol-3-yl)pyrrolidine-2,5-dione

> <PUBCHEM_IUPAC_NAME_MARKUP>
1-[4-[4-(5-fluoro-1<I>H</I>-indol-3-yl)piperidin-1-yl]butyl]-3-(1<I>H</I>-indol-3-yl)pyrrolidine-2,5-dione

> <PUBCHEM_IUPAC_NAME>
1-[4-[4-(5-fluoro-1H-indol-3-yl)piperidin-1-yl]butyl]-3-(1H-indol-3-yl)pyrrolidine-2,5-dione

> <PUBCHEM_IUPAC_SYSTEMATIC_NAME>
1-[4-[4-(5-fluoranyl-1H-indol-3-yl)piperidin-1-yl]butyl]-3-(1H-indol-3-yl)pyrrolidine-2,5-dione

> <PUBCHEM_IUPAC_TRADITIONAL_NAME>
1-[4-[4-(5-fluoro-1H-indol-3-yl)piperidino]butyl]-3-(1H-indol-3-yl)pyrrolidine-2,5-quinone

> <PUBCHEM_IUPAC_INCHI>
InChI=1S/C29H31FN4O2/c30-20-7-8-27-22(15-20)24(17-31-27)19-9-13-33(14-10-19)11-3-4-12-34-28(35)16-23(29(34)36)25-18-32-26-6-2-1-5-21(25)26/h1-2,5-8,15,17-19,23,31-32H,3-4,9-14,16H2

> <PUBCHEM_IUPAC_INCHIKEY>
MGSKAXDKJKXHKT-UHFFFAOYSA-N

> <PUBCHEM_XLOGP3_AA>
4.2

> <PUBCHEM_EXACT_MASS>
486.24310441

> <PUBCHEM_MOLECULAR_FORMULA>
C29H31FN4O2

> <PUBCHEM_MOLECULAR_WEIGHT>
486.6

> <PUBCHEM_OPENEYE_CAN_SMILES>
C1CN(CCC1C2=CNC3=C2C=C(C=C3)F)CCCCN4C(=O)CC(C4=O)C5=CNC6=CC=CC=C65

> <PUBCHEM_OPENEYE_ISO_SMILES>
C1CN(CCC1C2=CNC3=C2C=C(C=C3)F)CCCCN4C(=O)CC(C4=O)C5=CNC6=CC=CC=C65

> <PUBCHEM_CACTVS_TPSA>
72.2

> <PUBCHEM_MONOISOTOPIC_WEIGHT>
486.24310441

> <PUBCHEM_TOTAL_CHARGE>
0

> <PUBCHEM_HEAVY_ATOM_COUNT>
36

> <PUBCHEM_ATOM_DEF_STEREO_COUNT>
0

> <PUBCHEM_ATOM_UDEF_STEREO_COUNT>
1

> <PUBCHEM_BOND_DEF_STEREO_COUNT>
0

> <PUBCHEM_BOND_UDEF_STEREO_COUNT>
0

> <PUBCHEM_ISOTOPIC_ATOM_COUNT>
0

> <PUBCHEM_COMPONENT_COUNT>
1

> <PUBCHEM_CACTVS_TAUTO_COUNT>
-1

> <PUBCHEM_COORDINATE_TYPE>
1
5
255

> <PUBCHEM_BONDANNOTATIONS>
14  17  8
14  20  8
17  22  8
17  26  8
19  25  3
22  28  8
25  27  8
25  29  8
26  31  8
27  30  8
27  33  8
28  32  8
30  34  8
31  32  8
33  35  8
34  36  8
35  36  8
6  20  8
6  22  8
7  29  8
7  30  8

$$$$
