24754332
  -OEChem-09292322262D

 68 72  0     1  0  0  0  0  0999 V2000
    2.0000   -3.5976    0.0000 O   0  0  0  0  0  0  0  0  0  0  0  0
    6.2740   -0.0283    0.0000 N   0  0  3  0  0  0  0  0  0  0  0  0
    7.9983    1.9783    0.0000 N   0  0  0  0  0  0  0  0  0  0  0  0
    9.7265    2.9850    0.0000 N   0  0  0  0  0  0  0  0  0  0  0  0
    3.5836   -4.4023    0.0000 N   0  0  0  0  0  0  0  0  0  0  0  0
    6.2778   -1.0283    0.0000 C   0  0  3  0  0  0  0  0  0  0  0  0
    5.3798   -1.5561    0.0000 C   0  0  0  0  0  0  0  0  0  0  0  0
    7.1799   -1.5492    0.0000 C   0  0  0  0  0  0  0  0  0  0  0  0
    5.3958   -2.5976    0.0000 C   0  0  0  0  0  0  0  0  0  0  0  0
    7.1719   -2.5908    0.0000 C   0  0  0  0  0  0  0  0  0  0  0  0
    6.2619   -3.0976    0.0000 C   0  0  0  0  0  0  0  0  0  0  0  0
    7.1381    0.4750    0.0000 C   0  0  0  0  0  0  0  0  0  0  0  0
    7.1342    1.4750    0.0000 C   0  0  0  0  0  0  0  0  0  0  0  0
    5.4060    0.4683    0.0000 C   0  0  0  0  0  0  0  0  0  0  0  0
    4.5298   -3.0976    0.0000 C   0  0  0  0  0  0  0  0  0  0  0  0
    8.8663    1.4817    0.0000 C   0  0  0  0  0  0  0  0  0  0  0  0
    7.9944    2.9783    0.0000 C   0  0  0  0  0  0  0  0  0  0  0  0
    4.5298   -4.0976    0.0000 C   0  0  0  0  0  0  0  0  0  0  0  0
    6.2619   -4.0976    0.0000 C   0  0  0  0  0  0  0  0  0  0  0  0
    3.5836   -2.7929    0.0000 C   0  0  0  0  0  0  0  0  0  0  0  0
    9.7303    1.9850    0.0000 C   0  0  0  0  0  0  0  0  0  0  0  0
    8.8585    3.4816    0.0000 C   0  0  0  0  0  0  0  0  0  0  0  0
    5.4022    1.4683    0.0000 C   0  0  0  0  0  0  0  0  0  0  0  0
    5.3958   -4.5976    0.0000 C   0  0  0  0  0  0  0  0  0  0  0  0
    3.0000   -3.5976    0.0000 C   0  0  0  0  0  0  0  0  0  0  0  0
    4.5342    1.9650    0.0000 C   0  0  0  0  0  0  0  0  0  0  0  0
   10.5906    3.4883    0.0000 C   0  0  0  0  0  0  0  0  0  0  0  0
   10.5867    4.4883    0.0000 C   0  0  0  0  0  0  0  0  0  0  0  0
   11.4585    2.9917    0.0000 C   0  0  0  0  0  0  0  0  0  0  0  0
   11.4508    4.9916    0.0000 C   0  0  0  0  0  0  0  0  0  0  0  0
   12.3226    3.4950    0.0000 C   0  0  0  0  0  0  0  0  0  0  0  0
   12.3188    4.4950    0.0000 C   0  0  0  0  0  0  0  0  0  0  0  0
    6.8142   -0.7173    0.0000 H   0  0  0  0  0  0  0  0  0  0  0  0
    5.1618   -0.9757    0.0000 H   0  0  0  0  0  0  0  0  0  0  0  0
    4.7706   -1.6716    0.0000 H   0  0  0  0  0  0  0  0  0  0  0  0
    7.7899   -1.6600    0.0000 H   0  0  0  0  0  0  0  0  0  0  0  0
    7.3935   -0.9671    0.0000 H   0  0  0  0  0  0  0  0  0  0  0  0
    7.3764   -3.1760    0.0000 H   0  0  0  0  0  0  0  0  0  0  0  0
    7.7835   -2.4894    0.0000 H   0  0  0  0  0  0  0  0  0  0  0  0
    7.3524   -0.1068    0.0000 H   0  0  0  0  0  0  0  0  0  0  0  0
    7.7482    0.5850    0.0000 H   0  0  0  0  0  0  0  0  0  0  0  0
    6.9199    2.0568    0.0000 H   0  0  0  0  0  0  0  0  0  0  0  0
    6.5240    1.3650    0.0000 H   0  0  0  0  0  0  0  0  0  0  0  0
    4.7950    0.5736    0.0000 H   0  0  0  0  0  0  0  0  0  0  0  0
    5.1962   -0.1151    0.0000 H   0  0  0  0  0  0  0  0  0  0  0  0
    8.4696    1.0052    0.0000 H   0  0  0  0  0  0  0  0  0  0  0  0
    9.2666    1.0082    0.0000 H   0  0  0  0  0  0  0  0  0  0  0  0
    7.7802    3.5601    0.0000 H   0  0  0  0  0  0  0  0  0  0  0  0
    7.3843    2.8683    0.0000 H   0  0  0  0  0  0  0  0  0  0  0  0
    6.7988   -4.4076    0.0000 H   0  0  0  0  0  0  0  0  0  0  0  0
    3.8346   -2.2260    0.0000 H   0  0  0  0  0  0  0  0  0  0  0  0
    3.0462   -2.4836    0.0000 H   0  0  0  0  0  0  0  0  0  0  0  0
    9.9446    1.4032    0.0000 H   0  0  0  0  0  0  0  0  0  0  0  0
   10.3405    2.0950    0.0000 H   0  0  0  0  0  0  0  0  0  0  0  0
    9.2552    3.9581    0.0000 H   0  0  0  0  0  0  0  0  0  0  0  0
    8.4582    3.9550    0.0000 H   0  0  0  0  0  0  0  0  0  0  0  0
    6.0132    1.3630    0.0000 H   0  0  0  0  0  0  0  0  0  0  0  0
    5.6120    2.0517    0.0000 H   0  0  0  0  0  0  0  0  0  0  0  0
    5.3958   -5.2176    0.0000 H   0  0  0  0  0  0  0  0  0  0  0  0
    3.3910   -4.9916    0.0000 H   0  0  0  0  0  0  0  0  0  0  0  0
    4.8422    2.5031    0.0000 H   0  0  0  0  0  0  0  0  0  0  0  0
    3.9961    2.2729    0.0000 H   0  0  0  0  0  0  0  0  0  0  0  0
    4.2263    1.4268    0.0000 H   0  0  0  0  0  0  0  0  0  0  0  0
   10.0486    4.7962    0.0000 H   0  0  0  0  0  0  0  0  0  0  0  0
   11.4609    2.3717    0.0000 H   0  0  0  0  0  0  0  0  0  0  0  0
   11.4484    5.6116    0.0000 H   0  0  0  0  0  0  0  0  0  0  0  0
   12.8607    3.1871    0.0000 H   0  0  0  0  0  0  0  0  0  0  0  0
   12.8545    4.8071    0.0000 H   0  0  0  0  0  0  0  0  0  0  0  0
  1 25  2  0  0  0  0
  2  6  1  0  0  0  0
  2 12  1  0  0  0  0
  2 14  1  0  0  0  0
  3 13  1  0  0  0  0
  3 16  1  0  0  0  0
  3 17  1  0  0  0  0
  4 21  1  0  0  0  0
  4 22  1  0  0  0  0
  4 27  1  0  0  0  0
  5 18  1  0  0  0  0
  5 25  1  0  0  0  0
  5 60  1  0  0  0  0
  6  7  1  0  0  0  0
  6  8  1  0  0  0  0
  6 33  1  0  0  0  0
  7  9  1  0  0  0  0
  7 34  1  0  0  0  0
  7 35  1  0  0  0  0
  8 10  1  0  0  0  0
  8 36  1  0  0  0  0
  8 37  1  0  0  0  0
  9 11  2  0  0  0  0
  9 15  1  0  0  0  0
 10 11  1  0  0  0  0
 10 38  1  0  0  0  0
 10 39  1  0  0  0  0
 11 19  1  0  0  0  0
 12 13  1  0  0  0  0
 12 40  1  0  0  0  0
 12 41  1  0  0  0  0
 13 42  1  0  0  0  0
 13 43  1  0  0  0  0
 14 23  1  0  0  0  0
 14 44  1  0  0  0  0
 14 45  1  0  0  0  0
 15 18  2  0  0  0  0
 15 20  1  0  0  0  0
 16 21  1  0  0  0  0
 16 46  1  0  0  0  0
 16 47  1  0  0  0  0
 17 22  1  0  0  0  0
 17 48  1  0  0  0  0
 17 49  1  0  0  0  0
 18 24  1  0  0  0  0
 19 24  2  0  0  0  0
 19 50  1  0  0  0  0
 20 25  1  0  0  0  0
 20 51  1  0  0  0  0
 20 52  1  0  0  0  0
 21 53  1  0  0  0  0
 21 54  1  0  0  0  0
 22 55  1  0  0  0  0
 22 56  1  0  0  0  0
 23 26  1  0  0  0  0
 23 57  1  0  0  0  0
 23 58  1  0  0  0  0
 24 59  1  0  0  0  0
 26 61  1  0  0  0  0
 26 62  1  0  0  0  0
 26 63  1  0  0  0  0
 27 28  2  0  0  0  0
 27 29  1  0  0  0  0
 28 30  1  0  0  0  0
 28 64  1  0  0  0  0
 29 31  2  0  0  0  0
 29 65  1  0  0  0  0
 30 32  2  0  0  0  0
 30 66  1  0  0  0  0
 31 32  1  0  0  0  0
 31 67  1  0  0  0  0
 32 68  1  0  0  0  0
M  END
> <PUBCHEM_COMPOUND_CID>
24754332

> <PUBCHEM_COMPOUND_CANONICALIZED>
1

> <PUBCHEM_CACTVS_COMPLEXITY>
613

> <PUBCHEM_CACTVS_HBOND_ACCEPTOR>
4

> <PUBCHEM_CACTVS_HBOND_DONOR>
1

> <PUBCHEM_CACTVS_ROTATABLE_BOND>
7

> <PUBCHEM_CACTVS_SUBSKEYS>
AAADcfB7oAAAAAAAAAAAAAAAAAAAAWAAAAA8YMEAAAAAAFjBQAAAHgAQAAAADCjBmAQywIPAAACIAiVSUACCAAAhAgAIiAEIZIgIYDLAlZGUIAhglADIyAcciMCOiAACQAASAAAQAASAACQAAAAAAAAAAA==

> <PUBCHEM_IUPAC_OPENEYE_NAME>
8-[2-(4-phenylpiperazin-1-yl)ethyl-propyl-amino]-1,3,6,7,8,9-hexahydrobenzo[e]indol-2-one

> <PUBCHEM_IUPAC_CAS_NAME>
8-[2-(4-phenyl-1-piperazinyl)ethyl-propylamino]-1,3,6,7,8,9-hexahydrobenzo[e]indol-2-one

> <PUBCHEM_IUPAC_NAME_MARKUP>
8-[2-(4-phenylpiperazin-1-yl)ethyl-propylamino]-1,3,6,7,8,9-hexahydrobenzo[e]indol-2-one

> <PUBCHEM_IUPAC_NAME>
8-[2-(4-phenylpiperazin-1-yl)ethyl-propylamino]-1,3,6,7,8,9-hexahydrobenzo[e]indol-2-one

> <PUBCHEM_IUPAC_SYSTEMATIC_NAME>
8-[2-(4-phenylpiperazin-1-yl)ethyl-propyl-amino]-1,3,6,7,8,9-hexahydrobenzo[e]indol-2-one

> <PUBCHEM_IUPAC_TRADITIONAL_NAME>
8-[2-(4-phenylpiperazino)ethyl-propyl-amino]-1,3,6,7,8,9-hexahydrobenz[e]indol-2-one

> <PUBCHEM_IUPAC_INCHI>
InChI=1S/C27H36N4O/c1-2-12-30(16-13-29-14-17-31(18-15-29)22-6-4-3-5-7-22)23-10-8-21-9-11-26-25(24(21)19-23)20-27(32)28-26/h3-7,9,11,23H,2,8,10,12-20H2,1H3,(H,28,32)

> <PUBCHEM_IUPAC_INCHIKEY>
PJWMINWCBXFJAI-UHFFFAOYSA-N

> <PUBCHEM_XLOGP3_AA>
4.1

> <PUBCHEM_EXACT_MASS>
432.28891178

> <PUBCHEM_MOLECULAR_FORMULA>
C27H36N4O

> <PUBCHEM_MOLECULAR_WEIGHT>
432.6

> <PUBCHEM_OPENEYE_CAN_SMILES>
CCCN(CCN1CCN(CC1)C2=CC=CC=C2)C3CCC4=C(C3)C5=C(C=C4)NC(=O)C5

> <PUBCHEM_OPENEYE_ISO_SMILES>
CCCN(CCN1CCN(CC1)C2=CC=CC=C2)C3CCC4=C(C3)C5=C(C=C4)NC(=O)C5

> <PUBCHEM_CACTVS_TPSA>
38.8

> <PUBCHEM_MONOISOTOPIC_WEIGHT>
432.28891178

> <PUBCHEM_TOTAL_CHARGE>
0

> <PUBCHEM_HEAVY_ATOM_COUNT>
32

> <PUBCHEM_ATOM_DEF_STEREO_COUNT>
0

> <PUBCHEM_ATOM_UDEF_STEREO_COUNT>
1

> <PUBCHEM_BOND_DEF_STEREO_COUNT>
0

> <PUBCHEM_BOND_UDEF_STEREO_COUNT>
0

> <PUBCHEM_ISOTOPIC_ATOM_COUNT>
0

> <PUBCHEM_COMPONENT_COUNT>
1

> <PUBCHEM_CACTVS_TAUTO_COUNT>
-1

> <PUBCHEM_COORDINATE_TYPE>
1
5
255

> <PUBCHEM_BONDANNOTATIONS>
11  19  8
15  18  8
18  24  8
19  24  8
6  2  3
27  28  8
27  29  8
28  30  8
29  31  8
30  32  8
31  32  8
9  11  8
9  15  8

$$$$
