44438224
  -OEChem-09292322262D

 53 56  0     0  0  0  0  0  0999 V2000
    9.8084    3.6482    0.0000 Cl  0  0  0  0  0  0  0  0  0  0  0  0
    9.0812   -1.1695    0.0000 O   0  0  0  0  0  0  0  0  0  0  0  0
    9.8028    0.1821    0.0000 O   0  0  0  0  0  0  0  0  0  0  0  0
    5.9674   -0.2927    0.0000 N   0  0  0  0  0  0  0  0  0  0  0  0
    4.6783   -3.0589    0.0000 N   0  0  0  0  0  0  0  0  0  0  0  0
    7.9244    0.1197    0.0000 C   0  0  0  0  0  0  0  0  0  0  0  0
    7.6138   -0.8308    0.0000 C   0  0  0  0  0  0  0  0  0  0  0  0
    7.2566    0.8640    0.0000 C   0  0  0  0  0  0  0  0  0  0  0  0
    6.6353   -1.0370    0.0000 C   0  0  0  0  0  0  0  0  0  0  0  0
    6.2781    0.6578    0.0000 C   0  0  0  0  0  0  0  0  0  0  0  0
    8.3954    1.0018    0.0000 C   0  0  0  0  0  0  0  0  0  0  0  0
    4.9889   -0.4989    0.0000 C   0  0  0  0  0  0  0  0  0  0  0  0
    8.8750   -0.1909    0.0000 C   0  0  0  0  0  0  0  0  0  0  0  0
    4.6783   -1.4495    0.0000 C   0  0  0  0  0  0  0  0  0  0  0  0
    9.3949    1.0350    0.0000 C   0  0  0  0  0  0  0  0  0  0  0  0
    7.8670    1.8508    0.0000 C   0  0  0  0  0  0  0  0  0  0  0  0
    3.7320   -1.7542    0.0000 C   0  0  0  0  0  0  0  0  0  0  0  0
    5.2619   -2.2542    0.0000 C   0  0  0  0  0  0  0  0  0  0  0  0
    9.8659    1.9172    0.0000 C   0  0  0  0  0  0  0  0  0  0  0  0
    8.3380    2.7330    0.0000 C   0  0  0  0  0  0  0  0  0  0  0  0
    3.7320   -2.7542    0.0000 C   0  0  0  0  0  0  0  0  0  0  0  0
    9.3374    2.7661    0.0000 C   0  0  0  0  0  0  0  0  0  0  0  0
   10.0317   -1.4801    0.0000 C   0  0  0  0  0  0  0  0  0  0  0  0
    2.8660   -1.2542    0.0000 C   0  0  0  0  0  0  0  0  0  0  0  0
    2.8660   -3.2542    0.0000 C   0  0  0  0  0  0  0  0  0  0  0  0
    2.0000   -1.7542    0.0000 C   0  0  0  0  0  0  0  0  0  0  0  0
   10.2379   -2.4586    0.0000 C   0  0  0  0  0  0  0  0  0  0  0  0
    2.0000   -2.7542    0.0000 C   0  0  0  0  0  0  0  0  0  0  0  0
    7.6344   -1.4505    0.0000 H   0  0  0  0  0  0  0  0  0  0  0  0
    8.2276   -0.9182    0.0000 H   0  0  0  0  0  0  0  0  0  0  0  0
    7.7830    1.1917    0.0000 H   0  0  0  0  0  0  0  0  0  0  0  0
    7.0254    1.4393    0.0000 H   0  0  0  0  0  0  0  0  0  0  0  0
    6.1089   -1.3647    0.0000 H   0  0  0  0  0  0  0  0  0  0  0  0
    6.8665   -1.6123    0.0000 H   0  0  0  0  0  0  0  0  0  0  0  0
    6.2575    1.2775    0.0000 H   0  0  0  0  0  0  0  0  0  0  0  0
    5.6643    0.7451    0.0000 H   0  0  0  0  0  0  0  0  0  0  0  0
    4.9684    0.1207    0.0000 H   0  0  0  0  0  0  0  0  0  0  0  0
    4.3751   -0.4116    0.0000 H   0  0  0  0  0  0  0  0  0  0  0  0
    9.7225    0.5087    0.0000 H   0  0  0  0  0  0  0  0  0  0  0  0
    7.2473    1.8302    0.0000 H   0  0  0  0  0  0  0  0  0  0  0  0
    5.8819   -2.2542    0.0000 H   0  0  0  0  0  0  0  0  0  0  0  0
   10.4856    1.9377    0.0000 H   0  0  0  0  0  0  0  0  0  0  0  0
    8.0104    3.2593    0.0000 H   0  0  0  0  0  0  0  0  0  0  0  0
    4.8709   -3.6482    0.0000 H   0  0  0  0  0  0  0  0  0  0  0  0
   10.6514   -1.4595    0.0000 H   0  0  0  0  0  0  0  0  0  0  0  0
   10.1191   -0.8663    0.0000 H   0  0  0  0  0  0  0  0  0  0  0  0
    2.8660   -0.6342    0.0000 H   0  0  0  0  0  0  0  0  0  0  0  0
    2.8660   -3.8742    0.0000 H   0  0  0  0  0  0  0  0  0  0  0  0
    1.4631   -1.4442    0.0000 H   0  0  0  0  0  0  0  0  0  0  0  0
    9.6313   -2.5865    0.0000 H   0  0  0  0  0  0  0  0  0  0  0  0
   10.3658   -3.0653    0.0000 H   0  0  0  0  0  0  0  0  0  0  0  0
   10.8446   -2.3308    0.0000 H   0  0  0  0  0  0  0  0  0  0  0  0
    1.4631   -3.0642    0.0000 H   0  0  0  0  0  0  0  0  0  0  0  0
  1 22  1  0  0  0  0
  2 13  1  0  0  0  0
  2 23  1  0  0  0  0
  3 13  2  0  0  0  0
  4  9  1  0  0  0  0
  4 10  1  0  0  0  0
  4 12  1  0  0  0  0
  5 18  1  0  0  0  0
  5 21  1  0  0  0  0
  5 44  1  0  0  0  0
  6  7  1  0  0  0  0
  6  8  1  0  0  0  0
  6 11  1  0  0  0  0
  6 13  1  0  0  0  0
  7  9  1  0  0  0  0
  7 29  1  0  0  0  0
  7 30  1  0  0  0  0
  8 10  1  0  0  0  0
  8 31  1  0  0  0  0
  8 32  1  0  0  0  0
  9 33  1  0  0  0  0
  9 34  1  0  0  0  0
 10 35  1  0  0  0  0
 10 36  1  0  0  0  0
 11 15  2  0  0  0  0
 11 16  1  0  0  0  0
 12 14  1  0  0  0  0
 12 37  1  0  0  0  0
 12 38  1  0  0  0  0
 14 17  1  0  0  0  0
 14 18  2  0  0  0  0
 15 19  1  0  0  0  0
 15 39  1  0  0  0  0
 16 20  2  0  0  0  0
 16 40  1  0  0  0  0
 17 21  1  0  0  0  0
 17 24  2  0  0  0  0
 18 41  1  0  0  0  0
 19 22  2  0  0  0  0
 19 42  1  0  0  0  0
 20 22  1  0  0  0  0
 20 43  1  0  0  0  0
 21 25  2  0  0  0  0
 23 27  1  0  0  0  0
 23 45  1  0  0  0  0
 23 46  1  0  0  0  0
 24 26  1  0  0  0  0
 24 47  1  0  0  0  0
 25 28  1  0  0  0  0
 25 48  1  0  0  0  0
 26 28  2  0  0  0  0
 26 49  1  0  0  0  0
 27 50  1  0  0  0  0
 27 51  1  0  0  0  0
 27 52  1  0  0  0  0
 28 53  1  0  0  0  0
M  END
> <PUBCHEM_COMPOUND_CID>
44438224

> <PUBCHEM_COMPOUND_CANONICALIZED>
1

> <PUBCHEM_CACTVS_COMPLEXITY>
527

> <PUBCHEM_CACTVS_HBOND_ACCEPTOR>
3

> <PUBCHEM_CACTVS_HBOND_DONOR>
1

> <PUBCHEM_CACTVS_ROTATABLE_BOND>
6

> <PUBCHEM_CACTVS_SUBSKEYS>
AAADceB7MAAEAAAAAAAAAAAAAAAAAWAAAAA8YIAAAAAAAFgB9AAAHgIQAAAADgrhniY+yPPJlACoAzT3TACCgCAxByAI2aE4ZpgIIPLB15GGIAhk0AHIyAe8yOCPhAAAAAACAAAIAAAAAAQAAAAAAAAAAA==

> <PUBCHEM_IUPAC_OPENEYE_NAME>
ethyl 4-(4-chlorophenyl)-1-(1H-indol-3-ylmethyl)piperidine-4-carboxylate

> <PUBCHEM_IUPAC_CAS_NAME>
4-(4-chlorophenyl)-1-(1H-indol-3-ylmethyl)-4-piperidinecarboxylic acid ethyl ester

> <PUBCHEM_IUPAC_NAME_MARKUP>
ethyl 4-(4-chlorophenyl)-1-(1<I>H</I>-indol-3-ylmethyl)piperidine-4-carboxylate

> <PUBCHEM_IUPAC_NAME>
ethyl 4-(4-chlorophenyl)-1-(1H-indol-3-ylmethyl)piperidine-4-carboxylate

> <PUBCHEM_IUPAC_SYSTEMATIC_NAME>
ethyl 4-(4-chlorophenyl)-1-(1H-indol-3-ylmethyl)piperidine-4-carboxylate

> <PUBCHEM_IUPAC_TRADITIONAL_NAME>
4-(4-chlorophenyl)-1-(1H-indol-3-ylmethyl)isonipecotic acid ethyl ester

> <PUBCHEM_IUPAC_INCHI>
InChI=1S/C23H25ClN2O2/c1-2-28-22(27)23(18-7-9-19(24)10-8-18)11-13-26(14-12-23)16-17-15-25-21-6-4-3-5-20(17)21/h3-10,15,25H,2,11-14,16H2,1H3

> <PUBCHEM_IUPAC_INCHIKEY>
AZDUCQAJTYHBKO-UHFFFAOYSA-N

> <PUBCHEM_XLOGP3_AA>
4.7

> <PUBCHEM_EXACT_MASS>
396.1604557

> <PUBCHEM_MOLECULAR_FORMULA>
C23H25ClN2O2

> <PUBCHEM_MOLECULAR_WEIGHT>
396.9

> <PUBCHEM_OPENEYE_CAN_SMILES>
CCOC(=O)C1(CCN(CC1)CC2=CNC3=CC=CC=C32)C4=CC=C(C=C4)Cl

> <PUBCHEM_OPENEYE_ISO_SMILES>
CCOC(=O)C1(CCN(CC1)CC2=CNC3=CC=CC=C32)C4=CC=C(C=C4)Cl

> <PUBCHEM_CACTVS_TPSA>
45.3

> <PUBCHEM_MONOISOTOPIC_WEIGHT>
396.1604557

> <PUBCHEM_TOTAL_CHARGE>
0

> <PUBCHEM_HEAVY_ATOM_COUNT>
28

> <PUBCHEM_ATOM_DEF_STEREO_COUNT>
0

> <PUBCHEM_ATOM_UDEF_STEREO_COUNT>
0

> <PUBCHEM_BOND_DEF_STEREO_COUNT>
0

> <PUBCHEM_BOND_UDEF_STEREO_COUNT>
0

> <PUBCHEM_ISOTOPIC_ATOM_COUNT>
0

> <PUBCHEM_COMPONENT_COUNT>
1

> <PUBCHEM_CACTVS_TAUTO_COUNT>
-1

> <PUBCHEM_COORDINATE_TYPE>
1
5
255

> <PUBCHEM_BONDANNOTATIONS>
11  15  8
11  16  8
14  17  8
14  18  8
15  19  8
16  20  8
17  21  8
17  24  8
19  22  8
20  22  8
21  25  8
24  26  8
25  28  8
26  28  8
5  18  8
5  21  8

$$$$
