44340880
  -OEChem-09292322082D

 64 65  0     1  0  0  0  0  0999 V2000
   13.1371    5.8700    0.0000 O   0  0  0  0  0  0  0  0  0  0  0  0
    8.8070    6.3700    0.0000 O   0  0  0  0  0  0  0  0  0  0  0  0
   12.2711    7.3700    0.0000 O   0  0  0  0  0  0  0  0  0  0  0  0
    9.6730    4.8700    0.0000 O   0  0  0  0  0  0  0  0  0  0  0  0
    3.1350    3.6200    0.0000 N   0  0  0  0  0  0  0  0  0  0  0  0
    3.1350    6.6200    0.0000 N   0  0  3  0  0  0  0  0  0  0  0  0
    3.1350    5.6200    0.0000 C   0  0  0  0  0  0  0  0  0  0  0  0
    2.2690    5.1200    0.0000 C   0  0  0  0  0  0  0  0  0  0  0  0
    4.0010    5.1200    0.0000 C   0  0  0  0  0  0  0  0  0  0  0  0
    2.2690    4.1200    0.0000 C   0  0  0  0  0  0  0  0  0  0  0  0
    4.0010    4.1200    0.0000 C   0  0  0  0  0  0  0  0  0  0  0  0
    3.1350    2.6200    0.0000 C   0  0  0  0  0  0  0  0  0  0  0  0
    4.0010    7.1200    0.0000 C   0  0  0  0  0  0  0  0  0  0  0  0
    2.2690    7.1200    0.0000 C   0  0  0  0  0  0  0  0  0  0  0  0
    2.2690    2.1200    0.0000 C   0  0  0  0  0  0  0  0  0  0  0  0
    4.0010    8.1200    0.0000 C   0  0  0  0  0  0  0  0  0  0  0  0
    1.4030    2.6200    0.0000 C   0  0  0  0  0  0  0  0  0  0  0  0
    2.2690    1.1200    0.0000 C   0  0  0  0  0  0  0  0  0  0  0  0
    4.8671    8.6200    0.0000 C   0  0  0  0  0  0  0  0  0  0  0  0
    0.5369    2.1200    0.0000 C   0  0  0  0  0  0  0  0  0  0  0  0
    1.4030    0.6200    0.0000 C   0  0  0  0  0  0  0  0  0  0  0  0
    0.5369    1.1200    0.0000 C   0  0  0  0  0  0  0  0  0  0  0  0
    4.8671    9.6200    0.0000 C   0  0  0  0  0  0  0  0  0  0  0  0
    5.7331   10.1200    0.0000 C   0  0  0  0  0  0  0  0  0  0  0  0
    4.0010   10.1200    0.0000 C   0  0  0  0  0  0  0  0  0  0  0  0
    5.7331   11.1200    0.0000 C   0  0  0  0  0  0  0  0  0  0  0  0
    4.0010   11.1200    0.0000 C   0  0  0  0  0  0  0  0  0  0  0  0
    4.8671   11.6200    0.0000 C   0  0  0  0  0  0  0  0  0  0  0  0
   11.4050    5.8700    0.0000 C   0  0  0  0  0  0  0  0  0  0  0  0
   10.5390    6.3700    0.0000 C   0  0  0  0  0  0  0  0  0  0  0  0
   12.2711    6.3700    0.0000 C   0  0  0  0  0  0  0  0  0  0  0  0
    9.6730    5.8700    0.0000 C   0  0  0  0  0  0  0  0  0  0  0  0
    3.6720    5.9300    0.0000 H   0  0  0  0  0  0  0  0  0  0  0  0
    2.0569    5.7026    0.0000 H   0  0  0  0  0  0  0  0  0  0  0  0
    1.6584    5.0123    0.0000 H   0  0  0  0  0  0  0  0  0  0  0  0
    4.6116    5.0123    0.0000 H   0  0  0  0  0  0  0  0  0  0  0  0
    4.2131    5.7026    0.0000 H   0  0  0  0  0  0  0  0  0  0  0  0
    1.6584    4.2277    0.0000 H   0  0  0  0  0  0  0  0  0  0  0  0
    2.0569    3.5374    0.0000 H   0  0  0  0  0  0  0  0  0  0  0  0
    4.2131    3.5374    0.0000 H   0  0  0  0  0  0  0  0  0  0  0  0
    4.6116    4.2277    0.0000 H   0  0  0  0  0  0  0  0  0  0  0  0
    3.3471    2.0374    0.0000 H   0  0  0  0  0  0  0  0  0  0  0  0
    3.7456    2.7277    0.0000 H   0  0  0  0  0  0  0  0  0  0  0  0
    4.2131    6.5374    0.0000 H   0  0  0  0  0  0  0  0  0  0  0  0
    4.6116    7.2277    0.0000 H   0  0  0  0  0  0  0  0  0  0  0  0
    2.5790    7.6569    0.0000 H   0  0  0  0  0  0  0  0  0  0  0  0
    1.7320    7.4300    0.0000 H   0  0  0  0  0  0  0  0  0  0  0  0
    1.9590    6.5831    0.0000 H   0  0  0  0  0  0  0  0  0  0  0  0
    3.4641    8.4300    0.0000 H   0  0  0  0  0  0  0  0  0  0  0  0
    1.4030    3.2400    0.0000 H   0  0  0  0  0  0  0  0  0  0  0  0
    2.8059    0.8100    0.0000 H   0  0  0  0  0  0  0  0  0  0  0  0
    5.4040    8.3100    0.0000 H   0  0  0  0  0  0  0  0  0  0  0  0
    0.0000    2.4300    0.0000 H   0  0  0  0  0  0  0  0  0  0  0  0
    1.4030    0.0000    0.0000 H   0  0  0  0  0  0  0  0  0  0  0  0
    0.0000    0.8100    0.0000 H   0  0  0  0  0  0  0  0  0  0  0  0
    6.2700    9.8100    0.0000 H   0  0  0  0  0  0  0  0  0  0  0  0
    3.4641    9.8100    0.0000 H   0  0  0  0  0  0  0  0  0  0  0  0
    6.2700   11.4300    0.0000 H   0  0  0  0  0  0  0  0  0  0  0  0
    3.4641   11.4300    0.0000 H   0  0  0  0  0  0  0  0  0  0  0  0
    4.8671   12.2400    0.0000 H   0  0  0  0  0  0  0  0  0  0  0  0
   11.4050    5.2500    0.0000 H   0  0  0  0  0  0  0  0  0  0  0  0
   10.5390    6.9900    0.0000 H   0  0  0  0  0  0  0  0  0  0  0  0
   13.6740    6.1800    0.0000 H   0  0  0  0  0  0  0  0  0  0  0  0
    8.2700    6.0600    0.0000 H   0  0  0  0  0  0  0  0  0  0  0  0
  1 31  1  0  0  0  0
  1 63  1  0  0  0  0
  2 32  1  0  0  0  0
  2 64  1  0  0  0  0
  3 31  2  0  0  0  0
  4 32  2  0  0  0  0
  5 10  1  0  0  0  0
  5 11  1  0  0  0  0
  5 12  1  0  0  0  0
  6  7  1  0  0  0  0
  6 13  1  0  0  0  0
  6 14  1  0  0  0  0
  7  8  1  0  0  0  0
  7  9  1  0  0  0  0
  7 33  1  0  0  0  0
  8 10  1  0  0  0  0
  8 34  1  0  0  0  0
  8 35  1  0  0  0  0
  9 11  1  0  0  0  0
  9 36  1  0  0  0  0
  9 37  1  0  0  0  0
 10 38  1  0  0  0  0
 10 39  1  0  0  0  0
 11 40  1  0  0  0  0
 11 41  1  0  0  0  0
 12 15  1  0  0  0  0
 12 42  1  0  0  0  0
 12 43  1  0  0  0  0
 13 16  1  0  0  0  0
 13 44  1  0  0  0  0
 13 45  1  0  0  0  0
 14 46  1  0  0  0  0
 14 47  1  0  0  0  0
 14 48  1  0  0  0  0
 15 17  2  0  0  0  0
 15 18  1  0  0  0  0
 16 19  2  0  0  0  0
 16 49  1  0  0  0  0
 17 20  1  0  0  0  0
 17 50  1  0  0  0  0
 18 21  2  0  0  0  0
 18 51  1  0  0  0  0
 19 23  1  0  0  0  0
 19 52  1  0  0  0  0
 20 22  2  0  0  0  0
 20 53  1  0  0  0  0
 21 22  1  0  0  0  0
 21 54  1  0  0  0  0
 22 55  1  0  0  0  0
 23 24  2  0  0  0  0
 23 25  1  0  0  0  0
 24 26  1  0  0  0  0
 24 56  1  0  0  0  0
 25 27  2  0  0  0  0
 25 57  1  0  0  0  0
 26 28  2  0  0  0  0
 26 58  1  0  0  0  0
 27 28  1  0  0  0  0
 27 59  1  0  0  0  0
 28 60  1  0  0  0  0
 29 30  2  0  0  0  0
 29 31  1  0  0  0  0
 29 61  1  0  0  0  0
 30 32  1  0  0  0  0
 30 62  1  0  0  0  0
M  END
> <PUBCHEM_COMPOUND_CID>
44340880

> <PUBCHEM_COMPOUND_CANONICALIZED>
1

> <PUBCHEM_CACTVS_COMPLEXITY>
477

> <PUBCHEM_CACTVS_HBOND_ACCEPTOR>
6

> <PUBCHEM_CACTVS_HBOND_DONOR>
2

> <PUBCHEM_CACTVS_ROTATABLE_BOND>
8

> <PUBCHEM_CACTVS_SUBSKEYS>
AAADcfB7OAAAAAAAAAAAAAAAAAAAAAAAAAA8YIAAAAAAAAABQAAAHgAACAAADCjBmAQyCIMAAgCIAiDSCACCAAAgAAAIiAAIBMgIJCKA0RGEMAhggACImYcQgAAOAAAAAAAAAAAAAAAAAAAAAAAAAAAAAA==

> <PUBCHEM_IUPAC_OPENEYE_NAME>
1-benzyl-N-[(E)-cinnamyl]-N-methyl-piperidin-4-amine;fumaric acid

> <PUBCHEM_IUPAC_CAS_NAME>
(E)-2-butenedioic acid;N-methyl-1-(phenylmethyl)-N-[(E)-3-phenylprop-2-enyl]-4-piperidinamine

> <PUBCHEM_IUPAC_NAME_MARKUP>
1-benzyl-<I>N</I>-methyl-<I>N</I>-[(<I>E</I>)-3-phenylprop-2-enyl]piperidin-4-amine;(<I>E</I>)-but-2-enedioic acid

> <PUBCHEM_IUPAC_NAME>
1-benzyl-N-methyl-N-[(E)-3-phenylprop-2-enyl]piperidin-4-amine;(E)-but-2-enedioic acid

> <PUBCHEM_IUPAC_SYSTEMATIC_NAME>
(E)-but-2-enedioic acid;N-methyl-1-(phenylmethyl)-N-[(E)-3-phenylprop-2-enyl]piperidin-4-amine

> <PUBCHEM_IUPAC_TRADITIONAL_NAME>
(1-benzyl-4-piperidyl)-[(E)-cinnamyl]-methyl-amine;fumaric acid

> <PUBCHEM_IUPAC_INCHI>
InChI=1S/C22H28N2.C4H4O4/c1-23(16-8-13-20-9-4-2-5-10-20)22-14-17-24(18-15-22)19-21-11-6-3-7-12-21;5-3(6)1-2-4(7)8/h2-13,22H,14-19H2,1H3;1-2H,(H,5,6)(H,7,8)/b13-8+;2-1+

> <PUBCHEM_IUPAC_INCHIKEY>
SKHYSDMJSYJDMZ-WDOSNMPVSA-N

> <PUBCHEM_EXACT_MASS>
436.23620751

> <PUBCHEM_MOLECULAR_FORMULA>
C26H32N2O4

> <PUBCHEM_MOLECULAR_WEIGHT>
436.5

> <PUBCHEM_OPENEYE_CAN_SMILES>
CN(CC=CC1=CC=CC=C1)C2CCN(CC2)CC3=CC=CC=C3.C(=CC(=O)O)C(=O)O

> <PUBCHEM_OPENEYE_ISO_SMILES>
CN(C/C=C/C1=CC=CC=C1)C2CCN(CC2)CC3=CC=CC=C3.C(=C/C(=O)O)\C(=O)O

> <PUBCHEM_CACTVS_TPSA>
81.1

> <PUBCHEM_MONOISOTOPIC_WEIGHT>
436.23620751

> <PUBCHEM_TOTAL_CHARGE>
0

> <PUBCHEM_HEAVY_ATOM_COUNT>
32

> <PUBCHEM_ATOM_DEF_STEREO_COUNT>
0

> <PUBCHEM_ATOM_UDEF_STEREO_COUNT>
0

> <PUBCHEM_BOND_DEF_STEREO_COUNT>
2

> <PUBCHEM_BOND_UDEF_STEREO_COUNT>
0

> <PUBCHEM_ISOTOPIC_ATOM_COUNT>
0

> <PUBCHEM_COMPONENT_COUNT>
2

> <PUBCHEM_CACTVS_TAUTO_COUNT>
-1

> <PUBCHEM_COORDINATE_TYPE>
1
5
255

> <PUBCHEM_BONDANNOTATIONS>
15  17  8
15  18  8
17  20  8
18  21  8
20  22  8
21  22  8
23  24  8
23  25  8
24  26  8
25  27  8
26  28  8
27  28  8

$$$$
