155524228
  -OEChem-09292322402D

 71 76  0     1  0  0  0  0  0999 V2000
   12.9089    6.0524    0.0000 F   0  0  0  0  0  0  0  0  0  0  0  0
    8.6449    2.3692    0.0000 O   0  0  0  0  0  0  0  0  0  0  0  0
   11.9909    1.2756    0.0000 O   0  0  0  0  0  0  0  0  0  0  0  0
    2.8660   -4.3628    0.0000 O   0  0  0  0  0  0  0  0  0  0  0  0
    7.3423   -1.7065    0.0000 N   0  0  0  0  0  0  0  0  0  0  0  0
   10.2313    1.5575    0.0000 N   0  0  0  0  0  0  0  0  0  0  0  0
    6.4103   -6.1676    0.0000 N   0  0  0  0  0  0  0  0  0  0  0  0
    8.9807    5.4292    0.0000 N   0  0  0  0  0  0  0  0  0  0  0  0
    6.7210   -3.6076    0.0000 C   0  0  0  0  0  0  0  0  0  0  0  0
    6.0531   -2.8633    0.0000 C   0  0  0  0  0  0  0  0  0  0  0  0
    7.6995   -3.4014    0.0000 C   0  0  0  0  0  0  0  0  0  0  0  0
    6.3638   -1.9128    0.0000 C   0  0  0  0  0  0  0  0  0  0  0  0
    8.0102   -2.4508    0.0000 C   0  0  0  0  0  0  0  0  0  0  0  0
    7.6530   -0.7560    0.0000 C   0  0  0  0  0  0  0  0  0  0  0  0
    6.4103   -4.5581    0.0000 C   0  0  0  0  0  0  0  0  0  0  0  0
    8.6315   -0.5498    0.0000 C   0  0  0  0  0  0  0  0  0  0  0  0
    8.9421    0.4007    0.0000 C   0  0  0  0  0  0  0  0  0  0  0  0
    5.4641   -4.8628    0.0000 C   0  0  0  0  0  0  0  0  0  0  0  0
    9.9206    0.6069    0.0000 C   0  0  0  0  0  0  0  0  0  0  0  0
   10.2341    3.1755    0.0000 C   0  0  3  0  0  0  0  0  0  0  0  0
    6.9939   -5.3628    0.0000 C   0  0  0  0  0  0  0  0  0  0  0  0
   11.1846    2.8648    0.0000 C   0  0  0  0  0  0  0  0  0  0  0  0
    5.4641   -5.8628    0.0000 C   0  0  0  0  0  0  0  0  0  0  0  0
    9.6449    2.3675    0.0000 C   0  0  0  0  0  0  0  0  0  0  0  0
   11.1829    1.8648    0.0000 C   0  0  0  0  0  0  0  0  0  0  0  0
    9.9267    4.1271    0.0000 C   0  0  0  0  0  0  0  0  0  0  0  0
    4.5981   -4.3628    0.0000 C   0  0  0  0  0  0  0  0  0  0  0  0
   10.5131    4.9298    0.0000 C   0  0  0  0  0  0  0  0  0  0  0  0
    4.5981   -6.3628    0.0000 C   0  0  0  0  0  0  0  0  0  0  0  0
    8.9816    4.4351    0.0000 C   0  0  0  0  0  0  0  0  0  0  0  0
    3.7320   -4.8628    0.0000 C   0  0  0  0  0  0  0  0  0  0  0  0
    9.9253    5.7388    0.0000 C   0  0  0  0  0  0  0  0  0  0  0  0
    3.7320   -5.8628    0.0000 C   0  0  0  0  0  0  0  0  0  0  0  0
   11.5076    5.0343    0.0000 C   0  0  0  0  0  0  0  0  0  0  0  0
   10.3321    6.6524    0.0000 C   0  0  0  0  0  0  0  0  0  0  0  0
   11.9144    5.9479    0.0000 C   0  0  0  0  0  0  0  0  0  0  0  0
   11.3266    6.7569    0.0000 C   0  0  0  0  0  0  0  0  0  0  0  0
    2.0000   -4.8628    0.0000 C   0  0  0  0  0  0  0  0  0  0  0  0
    6.1143   -3.7354    0.0000 H   0  0  0  0  0  0  0  0  0  0  0  0
    5.5062   -2.5712    0.0000 H   0  0  0  0  0  0  0  0  0  0  0  0
    5.6706   -3.3512    0.0000 H   0  0  0  0  0  0  0  0  0  0  0  0
    7.7201   -4.0210    0.0000 H   0  0  0  0  0  0  0  0  0  0  0  0
    8.3133   -3.4887    0.0000 H   0  0  0  0  0  0  0  0  0  0  0  0
    6.3432   -1.2931    0.0000 H   0  0  0  0  0  0  0  0  0  0  0  0
    5.7500   -1.8254    0.0000 H   0  0  0  0  0  0  0  0  0  0  0  0
    8.5571   -2.7429    0.0000 H   0  0  0  0  0  0  0  0  0  0  0  0
    8.3927   -1.9629    0.0000 H   0  0  0  0  0  0  0  0  0  0  0  0
    7.6324   -0.1364    0.0000 H   0  0  0  0  0  0  0  0  0  0  0  0
    7.0392   -0.6687    0.0000 H   0  0  0  0  0  0  0  0  0  0  0  0
    8.6520   -1.1695    0.0000 H   0  0  0  0  0  0  0  0  0  0  0  0
    9.2453   -0.6371    0.0000 H   0  0  0  0  0  0  0  0  0  0  0  0
    8.9216    1.0204    0.0000 H   0  0  0  0  0  0  0  0  0  0  0  0
    8.3283    0.4881    0.0000 H   0  0  0  0  0  0  0  0  0  0  0  0
    9.9412   -0.0127    0.0000 H   0  0  0  0  0  0  0  0  0  0  0  0
   10.5345    0.5196    0.0000 H   0  0  0  0  0  0  0  0  0  0  0  0
   10.6733    3.6131    0.0000 H   0  0  0  0  0  0  0  0  0  0  0  0
    7.6139   -5.3628    0.0000 H   0  0  0  0  0  0  0  0  0  0  0  0
   11.8011    2.7990    0.0000 H   0  0  0  0  0  0  0  0  0  0  0  0
   11.3146    3.4711    0.0000 H   0  0  0  0  0  0  0  0  0  0  0  0
    6.6029   -6.7569    0.0000 H   0  0  0  0  0  0  0  0  0  0  0  0
    4.5981   -3.7428    0.0000 H   0  0  0  0  0  0  0  0  0  0  0  0
    4.5981   -6.9828    0.0000 H   0  0  0  0  0  0  0  0  0  0  0  0
    8.4800    4.0707    0.0000 H   0  0  0  0  0  0  0  0  0  0  0  0
    3.1951   -6.1728    0.0000 H   0  0  0  0  0  0  0  0  0  0  0  0
    8.4785    5.7927    0.0000 H   0  0  0  0  0  0  0  0  0  0  0  0
   11.8721    4.5327    0.0000 H   0  0  0  0  0  0  0  0  0  0  0  0
    9.9677    7.1540    0.0000 H   0  0  0  0  0  0  0  0  0  0  0  0
   11.5788    7.3233    0.0000 H   0  0  0  0  0  0  0  0  0  0  0  0
    1.6900   -4.3259    0.0000 H   0  0  0  0  0  0  0  0  0  0  0  0
    1.4631   -5.1728    0.0000 H   0  0  0  0  0  0  0  0  0  0  0  0
    2.3100   -5.3998    0.0000 H   0  0  0  0  0  0  0  0  0  0  0  0
  1 36  1  0  0  0  0
  2 24  2  0  0  0  0
  3 25  2  0  0  0  0
  4 31  1  0  0  0  0
  4 38  1  0  0  0  0
  5 12  1  0  0  0  0
  5 13  1  0  0  0  0
  5 14  1  0  0  0  0
  6 19  1  0  0  0  0
  6 24  1  0  0  0  0
  6 25  1  0  0  0  0
  7 21  1  0  0  0  0
  7 23  1  0  0  0  0
  7 60  1  0  0  0  0
  8 30  1  0  0  0  0
  8 32  1  0  0  0  0
  8 65  1  0  0  0  0
  9 10  1  0  0  0  0
  9 11  1  0  0  0  0
  9 15  1  0  0  0  0
  9 39  1  0  0  0  0
 10 12  1  0  0  0  0
 10 40  1  0  0  0  0
 10 41  1  0  0  0  0
 11 13  1  0  0  0  0
 11 42  1  0  0  0  0
 11 43  1  0  0  0  0
 12 44  1  0  0  0  0
 12 45  1  0  0  0  0
 13 46  1  0  0  0  0
 13 47  1  0  0  0  0
 14 16  1  0  0  0  0
 14 48  1  0  0  0  0
 14 49  1  0  0  0  0
 15 18  1  0  0  0  0
 15 21  2  0  0  0  0
 16 17  1  0  0  0  0
 16 50  1  0  0  0  0
 16 51  1  0  0  0  0
 17 19  1  0  0  0  0
 17 52  1  0  0  0  0
 17 53  1  0  0  0  0
 18 23  2  0  0  0  0
 18 27  1  0  0  0  0
 19 54  1  0  0  0  0
 19 55  1  0  0  0  0
 20 22  1  0  0  0  0
 20 24  1  0  0  0  0
 20 26  1  0  0  0  0
 20 56  1  0  0  0  0
 21 57  1  0  0  0  0
 22 25  1  0  0  0  0
 22 58  1  0  0  0  0
 22 59  1  0  0  0  0
 23 29  1  0  0  0  0
 26 28  1  0  0  0  0
 26 30  2  0  0  0  0
 27 31  2  0  0  0  0
 27 61  1  0  0  0  0
 28 32  2  0  0  0  0
 28 34  1  0  0  0  0
 29 33  2  0  0  0  0
 29 62  1  0  0  0  0
 30 63  1  0  0  0  0
 31 33  1  0  0  0  0
 32 35  1  0  0  0  0
 33 64  1  0  0  0  0
 34 36  2  0  0  0  0
 34 66  1  0  0  0  0
 35 37  2  0  0  0  0
 35 67  1  0  0  0  0
 36 37  1  0  0  0  0
 37 68  1  0  0  0  0
 38 69  1  0  0  0  0
 38 70  1  0  0  0  0
 38 71  1  0  0  0  0
M  END
> <PUBCHEM_COMPOUND_CID>
155524228

> <PUBCHEM_COMPOUND_CANONICALIZED>
1

> <PUBCHEM_CACTVS_COMPLEXITY>
851

> <PUBCHEM_CACTVS_HBOND_ACCEPTOR>
5

> <PUBCHEM_CACTVS_HBOND_DONOR>
2

> <PUBCHEM_CACTVS_ROTATABLE_BOND>
8

> <PUBCHEM_CACTVS_SUBSKEYS>
AAADcfB7sQAAAAAAAAAAAAAAAAAAAWLFgAA8YIAAAAAAAFgB/gAAHwAQAAAADQzBng4+xvPJlACoAzV3VACCiCAxIiAI2aE+bJgMJvLEtZuEMChk1jHI6Ae92fKegEABAAACAAAAgAIAAAQAAAAAAAAAAA==

> <PUBCHEM_IUPAC_OPENEYE_NAME>
3-(5-fluoro-1H-indol-3-yl)-1-[4-[4-(5-methoxy-1H-indol-3-yl)-1-piperidyl]butyl]pyrrolidine-2,5-dione

> <PUBCHEM_IUPAC_CAS_NAME>
3-(5-fluoro-1H-indol-3-yl)-1-[4-[4-(5-methoxy-1H-indol-3-yl)-1-piperidinyl]butyl]pyrrolidine-2,5-dione

> <PUBCHEM_IUPAC_NAME_MARKUP>
3-(5-fluoro-1<I>H</I>-indol-3-yl)-1-[4-[4-(5-methoxy-1<I>H</I>-indol-3-yl)piperidin-1-yl]butyl]pyrrolidine-2,5-dione

> <PUBCHEM_IUPAC_NAME>
3-(5-fluoro-1H-indol-3-yl)-1-[4-[4-(5-methoxy-1H-indol-3-yl)piperidin-1-yl]butyl]pyrrolidine-2,5-dione

> <PUBCHEM_IUPAC_SYSTEMATIC_NAME>
3-(5-fluoranyl-1H-indol-3-yl)-1-[4-[4-(5-methoxy-1H-indol-3-yl)piperidin-1-yl]butyl]pyrrolidine-2,5-dione

> <PUBCHEM_IUPAC_TRADITIONAL_NAME>
3-(5-fluoro-1H-indol-3-yl)-1-[4-[4-(5-methoxy-1H-indol-3-yl)piperidino]butyl]pyrrolidine-2,5-quinone

> <PUBCHEM_IUPAC_INCHI>
InChI=1S/C30H33FN4O3/c1-38-21-5-7-28-23(15-21)25(17-32-28)19-8-12-34(13-9-19)10-2-3-11-35-29(36)16-24(30(35)37)26-18-33-27-6-4-20(31)14-22(26)27/h4-7,14-15,17-19,24,32-33H,2-3,8-13,16H2,1H3

> <PUBCHEM_IUPAC_INCHIKEY>
RLCMAMKDJBORHF-UHFFFAOYSA-N

> <PUBCHEM_XLOGP3_AA>
4.2

> <PUBCHEM_EXACT_MASS>
516.25366909

> <PUBCHEM_MOLECULAR_FORMULA>
C30H33FN4O3

> <PUBCHEM_MOLECULAR_WEIGHT>
516.6

> <PUBCHEM_OPENEYE_CAN_SMILES>
COC1=CC2=C(C=C1)NC=C2C3CCN(CC3)CCCCN4C(=O)CC(C4=O)C5=CNC6=C5C=C(C=C6)F

> <PUBCHEM_OPENEYE_ISO_SMILES>
COC1=CC2=C(C=C1)NC=C2C3CCN(CC3)CCCCN4C(=O)CC(C4=O)C5=CNC6=C5C=C(C=C6)F

> <PUBCHEM_CACTVS_TPSA>
81.4

> <PUBCHEM_MONOISOTOPIC_WEIGHT>
516.25366909

> <PUBCHEM_TOTAL_CHARGE>
0

> <PUBCHEM_HEAVY_ATOM_COUNT>
38

> <PUBCHEM_ATOM_DEF_STEREO_COUNT>
0

> <PUBCHEM_ATOM_UDEF_STEREO_COUNT>
1

> <PUBCHEM_BOND_DEF_STEREO_COUNT>
0

> <PUBCHEM_BOND_UDEF_STEREO_COUNT>
0

> <PUBCHEM_ISOTOPIC_ATOM_COUNT>
0

> <PUBCHEM_COMPONENT_COUNT>
1

> <PUBCHEM_CACTVS_TAUTO_COUNT>
-1

> <PUBCHEM_COORDINATE_TYPE>
1
5
255

> <PUBCHEM_BONDANNOTATIONS>
15  18  8
15  21  8
18  23  8
18  27  8
20  26  3
23  29  8
26  28  8
26  30  8
27  31  8
28  32  8
28  34  8
29  33  8
31  33  8
32  35  8
34  36  8
35  37  8
36  37  8
7  21  8
7  23  8
8  30  8
8  32  8

$$$$
