134150645
  -OEChem-09292322382D

 60 63  0     1  0  0  0  0  0999 V2000
    8.1740   -0.1537    0.0000 Br  0  0  0  0  0  0  0  0  0  0  0  0
    4.6499    1.8809    0.0000 O   0  0  0  0  0  0  0  0  0  0  0  0
    5.5909   -5.8472    0.0000 O   0  0  0  0  0  0  0  0  0  0  0  0
    7.3942   -4.7875    0.0000 O   0  0  0  0  0  0  0  0  0  0  0  0
    6.4159    2.9187    0.0000 O   0  0  0  0  0  0  0  0  0  0  0  0
    4.6717   -1.1505    0.0000 N   0  0  3  0  0  0  0  0  0  0  0  0
    5.5378   -1.6505    0.0000 C   0  0  1  0  0  0  0  0  0  0  0  0
    6.4038   -1.1505    0.0000 C   0  0  0  0  0  0  0  0  0  0  0  0
    3.7617   -1.6574    0.0000 C   0  0  0  0  0  0  0  0  0  0  0  0
    4.6717   -0.1505    0.0000 C   0  0  0  0  0  0  0  0  0  0  0  0
    5.5538   -2.6920    0.0000 C   0  0  0  0  0  0  0  0  0  0  0  0
    3.7537   -2.6990    0.0000 C   0  0  0  0  0  0  0  0  0  0  0  0
    6.4038   -0.1505    0.0000 C   0  0  0  0  0  0  0  0  0  0  0  0
    5.5378    0.3495    0.0000 C   0  0  0  0  0  0  0  0  0  0  0  0
    4.6558   -3.2198    0.0000 C   0  0  0  0  0  0  0  0  0  0  0  0
    6.5057   -3.2127    0.0000 C   0  0  0  0  0  0  0  0  0  0  0  0
    5.5217    1.3910    0.0000 C   0  0  0  0  0  0  0  0  0  0  0  0
    4.6474   -4.3048    0.0000 C   0  0  0  0  0  0  0  0  0  0  0  0
    7.3138    0.3563    0.0000 C   0  0  0  0  0  0  0  0  0  0  0  0
    6.5225   -4.2975    0.0000 C   0  0  0  0  0  0  0  0  0  0  0  0
    5.5870   -4.8473    0.0000 C   0  0  0  0  0  0  0  0  0  0  0  0
    6.4197    1.9187    0.0000 C   0  0  0  0  0  0  0  0  0  0  0  0
    7.3218    1.3979    0.0000 C   0  0  0  0  0  0  0  0  0  0  0  0
    4.6384    2.8809    0.0000 C   0  0  0  0  0  0  0  0  0  0  0  0
    3.7666    3.3708    0.0000 C   0  0  0  0  0  0  0  0  0  0  0  0
    3.7551    4.3707    0.0000 C   0  0  0  0  0  0  0  0  0  0  0  0
    2.8833    4.8607    0.0000 C   0  0  0  0  0  0  0  0  0  0  0  0
    2.8718    5.8606    0.0000 C   0  0  0  0  0  0  0  0  0  0  0  0
    4.7268   -6.3506    0.0000 C   0  0  0  0  0  0  0  0  0  0  0  0
    2.0000    6.3506    0.0000 C   0  0  0  0  0  0  0  0  0  0  0  0
    6.2771   -2.0699    0.0000 H   0  0  0  0  0  0  0  0  0  0  0  0
    6.6158   -1.7331    0.0000 H   0  0  0  0  0  0  0  0  0  0  0  0
    7.0144   -1.0429    0.0000 H   0  0  0  0  0  0  0  0  0  0  0  0
    3.5572   -1.0721    0.0000 H   0  0  0  0  0  0  0  0  0  0  0  0
    3.1501   -1.7588    0.0000 H   0  0  0  0  0  0  0  0  0  0  0  0
    4.4597    0.4321    0.0000 H   0  0  0  0  0  0  0  0  0  0  0  0
    4.0611   -0.2582    0.0000 H   0  0  0  0  0  0  0  0  0  0  0  0
    3.1437   -2.5882    0.0000 H   0  0  0  0  0  0  0  0  0  0  0  0
    3.5401   -3.2810    0.0000 H   0  0  0  0  0  0  0  0  0  0  0  0
    7.0366   -2.8924    0.0000 H   0  0  0  0  0  0  0  0  0  0  0  0
    4.1093   -4.6127    0.0000 H   0  0  0  0  0  0  0  0  0  0  0  0
    7.8599    1.7058    0.0000 H   0  0  0  0  0  0  0  0  0  0  0  0
    5.2502    2.7803    0.0000 H   0  0  0  0  0  0  0  0  0  0  0  0
    4.8437    3.4659    0.0000 H   0  0  0  0  0  0  0  0  0  0  0  0
    3.1548    3.4714    0.0000 H   0  0  0  0  0  0  0  0  0  0  0  0
    3.5613    2.7858    0.0000 H   0  0  0  0  0  0  0  0  0  0  0  0
    4.3668    4.2702    0.0000 H   0  0  0  0  0  0  0  0  0  0  0  0
    3.9604    4.9558    0.0000 H   0  0  0  0  0  0  0  0  0  0  0  0
    7.4014   -5.4074    0.0000 H   0  0  0  0  0  0  0  0  0  0  0  0
    6.9516    3.2308    0.0000 H   0  0  0  0  0  0  0  0  0  0  0  0
    2.2715    4.9613    0.0000 H   0  0  0  0  0  0  0  0  0  0  0  0
    2.6780    4.2757    0.0000 H   0  0  0  0  0  0  0  0  0  0  0  0
    3.4835    5.7600    0.0000 H   0  0  0  0  0  0  0  0  0  0  0  0
    3.0770    6.4456    0.0000 H   0  0  0  0  0  0  0  0  0  0  0  0
    4.4147   -5.8148    0.0000 H   0  0  0  0  0  0  0  0  0  0  0  0
    4.1911   -6.6626    0.0000 H   0  0  0  0  0  0  0  0  0  0  0  0
    5.0389   -6.8863    0.0000 H   0  0  0  0  0  0  0  0  0  0  0  0
    2.3038    6.8911    0.0000 H   0  0  0  0  0  0  0  0  0  0  0  0
    1.4595    6.6544    0.0000 H   0  0  0  0  0  0  0  0  0  0  0  0
    1.6962    5.8101    0.0000 H   0  0  0  0  0  0  0  0  0  0  0  0
  1 19  1  0  0  0  0
  2 17  1  0  0  0  0
  2 24  1  0  0  0  0
  3 21  1  0  0  0  0
  3 29  1  0  0  0  0
  4 20  1  0  0  0  0
  4 49  1  0  0  0  0
  5 22  1  0  0  0  0
  5 50  1  0  0  0  0
  6  7  1  0  0  0  0
  6  9  1  0  0  0  0
  6 10  1  0  0  0  0
  7  8  1  0  0  0  0
  7 11  1  0  0  0  0
  7 31  1  6  0  0  0
  8 13  1  0  0  0  0
  8 32  1  0  0  0  0
  8 33  1  0  0  0  0
  9 12  1  0  0  0  0
  9 34  1  0  0  0  0
  9 35  1  0  0  0  0
 10 14  1  0  0  0  0
 10 36  1  0  0  0  0
 10 37  1  0  0  0  0
 11 15  1  0  0  0  0
 11 16  2  0  0  0  0
 12 15  1  0  0  0  0
 12 38  1  0  0  0  0
 12 39  1  0  0  0  0
 13 14  1  0  0  0  0
 13 19  2  0  0  0  0
 14 17  2  0  0  0  0
 15 18  2  0  0  0  0
 16 20  1  0  0  0  0
 16 40  1  0  0  0  0
 17 22  1  0  0  0  0
 18 21  1  0  0  0  0
 18 41  1  0  0  0  0
 19 23  1  0  0  0  0
 20 21  2  0  0  0  0
 22 23  2  0  0  0  0
 23 42  1  0  0  0  0
 24 25  1  0  0  0  0
 24 43  1  0  0  0  0
 24 44  1  0  0  0  0
 25 26  1  0  0  0  0
 25 45  1  0  0  0  0
 25 46  1  0  0  0  0
 26 27  1  0  0  0  0
 26 47  1  0  0  0  0
 26 48  1  0  0  0  0
 27 28  1  0  0  0  0
 27 51  1  0  0  0  0
 27 52  1  0  0  0  0
 28 30  1  0  0  0  0
 28 53  1  0  0  0  0
 28 54  1  0  0  0  0
 29 55  1  0  0  0  0
 29 56  1  0  0  0  0
 29 57  1  0  0  0  0
 30 58  1  0  0  0  0
 30 59  1  0  0  0  0
 30 60  1  0  0  0  0
M  END
> <PUBCHEM_COMPOUND_CID>
134150645

> <PUBCHEM_COMPOUND_CANONICALIZED>
1

> <PUBCHEM_CACTVS_COMPLEXITY>
551

> <PUBCHEM_CACTVS_HBOND_ACCEPTOR>
5

> <PUBCHEM_CACTVS_HBOND_DONOR>
2

> <PUBCHEM_CACTVS_ROTATABLE_BOND>
7

> <PUBCHEM_CACTVS_SUBSKEYS>
AAADceB6OAAAEAAAAAAAAAAAAAAAAAAAAAA8eIEAAAAAAACxQAAAHgBACAABrCzhmAYyBoMABgCAAiBCAACCCAAgIAQAiAAOjKgNJiKGsRuGeCvmwBGLuhew0PMOoBABEIAYwABAIAIhADGAAAAAAAAAAA==

> <PUBCHEM_IUPAC_OPENEYE_NAME>
(13aS)-12-bromo-9-hexoxy-3-methoxy-6,8,13,13a-tetrahydro-5H-isoquinolino[2,1-b]isoquinoline-2,10-diol

> <PUBCHEM_IUPAC_CAS_NAME>
(13aS)-12-bromo-9-hexoxy-3-methoxy-6,8,13,13a-tetrahydro-5H-isoquinolino[2,1-b]isoquinoline-2,10-diol

> <PUBCHEM_IUPAC_NAME_MARKUP>
(13<I>a</I><I>S</I>)-12-bromo-9-hexoxy-3-methoxy-6,8,13,13<I>a</I>-tetrahydro-5<I>H</I>-isoquinolino[2,1-b]isoquinoline-2,10-diol

> <PUBCHEM_IUPAC_NAME>
(13aS)-12-bromo-9-hexoxy-3-methoxy-6,8,13,13a-tetrahydro-5H-isoquinolino[2,1-b]isoquinoline-2,10-diol

> <PUBCHEM_IUPAC_SYSTEMATIC_NAME>
(13aS)-12-bromanyl-9-hexoxy-3-methoxy-6,8,13,13a-tetrahydro-5H-isoquinolino[2,1-b]isoquinoline-2,10-diol

> <PUBCHEM_IUPAC_TRADITIONAL_NAME>
(13aS)-12-bromo-9-hexoxy-3-methoxy-6,8,13,13a-tetrahydro-5H-isoquinolin[2,1-b]isoquinoline-2,10-diol

> <PUBCHEM_IUPAC_INCHI>
InChI=1S/C24H30BrNO4/c1-3-4-5-6-9-30-24-18-14-26-8-7-15-10-23(29-2)21(27)12-16(15)20(26)11-17(18)19(25)13-22(24)28/h10,12-13,20,27-28H,3-9,11,14H2,1-2H3/t20-/m0/s1

> <PUBCHEM_IUPAC_INCHIKEY>
VYGXIFKVFAKJNM-FQEVSTJZSA-N

> <PUBCHEM_XLOGP3_AA>
5.6

> <PUBCHEM_EXACT_MASS>
475.13582

> <PUBCHEM_MOLECULAR_FORMULA>
C24H30BrNO4

> <PUBCHEM_MOLECULAR_WEIGHT>
476.4

> <PUBCHEM_OPENEYE_CAN_SMILES>
CCCCCCOC1=C2CN3CCC4=CC(=C(C=C4C3CC2=C(C=C1O)Br)O)OC

> <PUBCHEM_OPENEYE_ISO_SMILES>
CCCCCCOC1=C2CN3CCC4=CC(=C(C=C4[C@@H]3CC2=C(C=C1O)Br)O)OC

> <PUBCHEM_CACTVS_TPSA>
62.2

> <PUBCHEM_MONOISOTOPIC_WEIGHT>
475.13582

> <PUBCHEM_TOTAL_CHARGE>
0

> <PUBCHEM_HEAVY_ATOM_COUNT>
30

> <PUBCHEM_ATOM_DEF_STEREO_COUNT>
1

> <PUBCHEM_ATOM_UDEF_STEREO_COUNT>
0

> <PUBCHEM_BOND_DEF_STEREO_COUNT>
0

> <PUBCHEM_BOND_UDEF_STEREO_COUNT>
0

> <PUBCHEM_ISOTOPIC_ATOM_COUNT>
0

> <PUBCHEM_COMPONENT_COUNT>
1

> <PUBCHEM_CACTVS_TAUTO_COUNT>
-1

> <PUBCHEM_COORDINATE_TYPE>
1
5
255

> <PUBCHEM_BONDANNOTATIONS>
11  15  8
11  16  8
13  14  8
13  19  8
14  17  8
15  18  8
16  20  8
17  22  8
18  21  8
19  23  8
20  21  8
22  23  8
7  31  6

$$$$
