122191608
  -OEChem-09292322362D

 58 61  0     0  0  0  0  0  0999 V2000
   12.7619    4.5941    0.0000 O   0  0  0  0  0  0  0  0  0  0  0  0
    7.7619   -0.6020    0.0000 N   0  0  0  0  0  0  0  0  0  0  0  0
    6.7619   -2.3341    0.0000 N   0  0  0  0  0  0  0  0  0  0  0  0
    4.6783   -4.0048    0.0000 N   0  0  0  0  0  0  0  0  0  0  0  0
    9.7619    1.1300    0.0000 N   0  0  0  0  0  0  0  0  0  0  0  0
    6.7619   -0.6020    0.0000 C   0  0  0  0  0  0  0  0  0  0  0  0
    8.2619   -1.4680    0.0000 C   0  0  0  0  0  0  0  0  0  0  0  0
    6.2619   -1.4680    0.0000 C   0  0  0  0  0  0  0  0  0  0  0  0
    7.7619   -2.3341    0.0000 C   0  0  0  0  0  0  0  0  0  0  0  0
    8.2619    0.2640    0.0000 C   0  0  0  0  0  0  0  0  0  0  0  0
    6.2619   -3.2001    0.0000 C   0  0  0  0  0  0  0  0  0  0  0  0
    9.2619    0.2640    0.0000 C   0  0  0  0  0  0  0  0  0  0  0  0
    5.2619   -3.2001    0.0000 C   0  0  0  0  0  0  0  0  0  0  0  0
    4.6783   -2.3954    0.0000 C   0  0  0  0  0  0  0  0  0  0  0  0
    3.7320   -3.7001    0.0000 C   0  0  0  0  0  0  0  0  0  0  0  0
    3.7320   -2.7001    0.0000 C   0  0  0  0  0  0  0  0  0  0  0  0
   10.7619    1.1300    0.0000 C   0  0  0  0  0  0  0  0  0  0  0  0
    2.8660   -4.2001    0.0000 C   0  0  0  0  0  0  0  0  0  0  0  0
    2.8660   -2.2001    0.0000 C   0  0  0  0  0  0  0  0  0  0  0  0
   11.2619    1.9961    0.0000 C   0  0  0  0  0  0  0  0  0  0  0  0
    2.0000   -3.7001    0.0000 C   0  0  0  0  0  0  0  0  0  0  0  0
    2.0000   -2.7001    0.0000 C   0  0  0  0  0  0  0  0  0  0  0  0
   12.2619    1.9961    0.0000 C   0  0  0  0  0  0  0  0  0  0  0  0
   10.7619    2.8621    0.0000 C   0  0  0  0  0  0  0  0  0  0  0  0
   12.7619    2.8621    0.0000 C   0  0  0  0  0  0  0  0  0  0  0  0
   11.2619    3.7281    0.0000 C   0  0  0  0  0  0  0  0  0  0  0  0
   12.2619    3.7281    0.0000 C   0  0  0  0  0  0  0  0  0  0  0  0
   13.7619    4.5941    0.0000 C   0  0  0  0  0  0  0  0  0  0  0  0
    6.8695    0.0086    0.0000 H   0  0  0  0  0  0  0  0  0  0  0  0
    6.1793   -0.3900    0.0000 H   0  0  0  0  0  0  0  0  0  0  0  0
    8.7368   -1.8666    0.0000 H   0  0  0  0  0  0  0  0  0  0  0  0
    8.7368   -1.0695    0.0000 H   0  0  0  0  0  0  0  0  0  0  0  0
    5.7869   -1.0695    0.0000 H   0  0  0  0  0  0  0  0  0  0  0  0
    5.7869   -1.8666    0.0000 H   0  0  0  0  0  0  0  0  0  0  0  0
    7.6542   -2.9446    0.0000 H   0  0  0  0  0  0  0  0  0  0  0  0
    8.3445   -2.5461    0.0000 H   0  0  0  0  0  0  0  0  0  0  0  0
    8.3695    0.8746    0.0000 H   0  0  0  0  0  0  0  0  0  0  0  0
    7.6793    0.4761    0.0000 H   0  0  0  0  0  0  0  0  0  0  0  0
    6.1542   -3.8107    0.0000 H   0  0  0  0  0  0  0  0  0  0  0  0
    6.8445   -3.4121    0.0000 H   0  0  0  0  0  0  0  0  0  0  0  0
    9.1542   -0.3466    0.0000 H   0  0  0  0  0  0  0  0  0  0  0  0
    9.8445    0.0520    0.0000 H   0  0  0  0  0  0  0  0  0  0  0  0
    4.8709   -4.5941    0.0000 H   0  0  0  0  0  0  0  0  0  0  0  0
    4.8709   -1.8060    0.0000 H   0  0  0  0  0  0  0  0  0  0  0  0
    9.4519    1.6670    0.0000 H   0  0  0  0  0  0  0  0  0  0  0  0
   10.6542    0.5195    0.0000 H   0  0  0  0  0  0  0  0  0  0  0  0
   11.3445    0.9180    0.0000 H   0  0  0  0  0  0  0  0  0  0  0  0
    2.8660   -4.8201    0.0000 H   0  0  0  0  0  0  0  0  0  0  0  0
    2.8660   -1.5801    0.0000 H   0  0  0  0  0  0  0  0  0  0  0  0
    1.4631   -4.0101    0.0000 H   0  0  0  0  0  0  0  0  0  0  0  0
    1.4631   -2.3901    0.0000 H   0  0  0  0  0  0  0  0  0  0  0  0
   12.5719    1.4591    0.0000 H   0  0  0  0  0  0  0  0  0  0  0  0
   10.1419    2.8621    0.0000 H   0  0  0  0  0  0  0  0  0  0  0  0
   13.3819    2.8621    0.0000 H   0  0  0  0  0  0  0  0  0  0  0  0
   10.9519    4.2650    0.0000 H   0  0  0  0  0  0  0  0  0  0  0  0
   13.7619    3.9741    0.0000 H   0  0  0  0  0  0  0  0  0  0  0  0
   14.3819    4.5941    0.0000 H   0  0  0  0  0  0  0  0  0  0  0  0
   13.7619    5.2141    0.0000 H   0  0  0  0  0  0  0  0  0  0  0  0
  1 27  1  0  0  0  0
  1 28  1  0  0  0  0
  2  6  1  0  0  0  0
  2  7  1  0  0  0  0
  2 10  1  0  0  0  0
  3  8  1  0  0  0  0
  3  9  1  0  0  0  0
  3 11  1  0  0  0  0
  4 13  1  0  0  0  0
  4 15  1  0  0  0  0
  4 43  1  0  0  0  0
  5 12  1  0  0  0  0
  5 17  1  0  0  0  0
  5 45  1  0  0  0  0
  6  8  1  0  0  0  0
  6 29  1  0  0  0  0
  6 30  1  0  0  0  0
  7  9  1  0  0  0  0
  7 31  1  0  0  0  0
  7 32  1  0  0  0  0
  8 33  1  0  0  0  0
  8 34  1  0  0  0  0
  9 35  1  0  0  0  0
  9 36  1  0  0  0  0
 10 12  1  0  0  0  0
 10 37  1  0  0  0  0
 10 38  1  0  0  0  0
 11 13  1  0  0  0  0
 11 39  1  0  0  0  0
 11 40  1  0  0  0  0
 12 41  1  0  0  0  0
 12 42  1  0  0  0  0
 13 14  2  0  0  0  0
 14 16  1  0  0  0  0
 14 44  1  0  0  0  0
 15 16  1  0  0  0  0
 15 18  2  0  0  0  0
 16 19  2  0  0  0  0
 17 20  1  0  0  0  0
 17 46  1  0  0  0  0
 17 47  1  0  0  0  0
 18 21  1  0  0  0  0
 18 48  1  0  0  0  0
 19 22  1  0  0  0  0
 19 49  1  0  0  0  0
 20 23  2  0  0  0  0
 20 24  1  0  0  0  0
 21 22  2  0  0  0  0
 21 50  1  0  0  0  0
 22 51  1  0  0  0  0
 23 25  1  0  0  0  0
 23 52  1  0  0  0  0
 24 26  2  0  0  0  0
 24 53  1  0  0  0  0
 25 27  2  0  0  0  0
 25 54  1  0  0  0  0
 26 27  1  0  0  0  0
 26 55  1  0  0  0  0
 28 56  1  0  0  0  0
 28 57  1  0  0  0  0
 28 58  1  0  0  0  0
M  END
> <PUBCHEM_COMPOUND_CID>
122191608

> <PUBCHEM_COMPOUND_CANONICALIZED>
1

> <PUBCHEM_CACTVS_COMPLEXITY>
446

> <PUBCHEM_CACTVS_HBOND_ACCEPTOR>
4

> <PUBCHEM_CACTVS_HBOND_DONOR>
2

> <PUBCHEM_CACTVS_ROTATABLE_BOND>
8

> <PUBCHEM_CACTVS_SUBSKEYS>
AAADceB7oAAAAAAAAAAAAAAAAAAAAWAAAAA8YIAAAAAAAFgB9AAAHgAQAAAADAzBngYyxvPJlACgAyRiRACCiCAhIiAImaA+bJgMZuLEsZuUMChk0BHI6AeQ0IIOIAAAAAACAABAAAAAAAQAAAAAAAAAAA==

> <PUBCHEM_IUPAC_OPENEYE_NAME>
2-[4-(1H-indol-2-ylmethyl)piperazin-1-yl]-N-[(4-methoxyphenyl)methyl]ethanamine

> <PUBCHEM_IUPAC_CAS_NAME>
2-[4-(1H-indol-2-ylmethyl)-1-piperazinyl]-N-[(4-methoxyphenyl)methyl]ethanamine

> <PUBCHEM_IUPAC_NAME_MARKUP>
2-[4-(1<I>H</I>-indol-2-ylmethyl)piperazin-1-yl]-<I>N</I>-[(4-methoxyphenyl)methyl]ethanamine

> <PUBCHEM_IUPAC_NAME>
2-[4-(1H-indol-2-ylmethyl)piperazin-1-yl]-N-[(4-methoxyphenyl)methyl]ethanamine

> <PUBCHEM_IUPAC_SYSTEMATIC_NAME>
2-[4-(1H-indol-2-ylmethyl)piperazin-1-yl]-N-[(4-methoxyphenyl)methyl]ethanamine

> <PUBCHEM_IUPAC_TRADITIONAL_NAME>
2-[4-(1H-indol-2-ylmethyl)piperazino]ethyl-p-anisyl-amine

> <PUBCHEM_IUPAC_INCHI>
InChI=1S/C23H30N4O/c1-28-22-8-6-19(7-9-22)17-24-10-11-26-12-14-27(15-13-26)18-21-16-20-4-2-3-5-23(20)25-21/h2-9,16,24-25H,10-15,17-18H2,1H3

> <PUBCHEM_IUPAC_INCHIKEY>
HZFVOEDJAMLOAK-UHFFFAOYSA-N

> <PUBCHEM_XLOGP3_AA>
2.8

> <PUBCHEM_EXACT_MASS>
378.24196159

> <PUBCHEM_MOLECULAR_FORMULA>
C23H30N4O

> <PUBCHEM_MOLECULAR_WEIGHT>
378.5

> <PUBCHEM_OPENEYE_CAN_SMILES>
COC1=CC=C(C=C1)CNCCN2CCN(CC2)CC3=CC4=CC=CC=C4N3

> <PUBCHEM_OPENEYE_ISO_SMILES>
COC1=CC=C(C=C1)CNCCN2CCN(CC2)CC3=CC4=CC=CC=C4N3

> <PUBCHEM_CACTVS_TPSA>
43.5

> <PUBCHEM_MONOISOTOPIC_WEIGHT>
378.24196159

> <PUBCHEM_TOTAL_CHARGE>
0

> <PUBCHEM_HEAVY_ATOM_COUNT>
28

> <PUBCHEM_ATOM_DEF_STEREO_COUNT>
0

> <PUBCHEM_ATOM_UDEF_STEREO_COUNT>
0

> <PUBCHEM_BOND_DEF_STEREO_COUNT>
0

> <PUBCHEM_BOND_UDEF_STEREO_COUNT>
0

> <PUBCHEM_ISOTOPIC_ATOM_COUNT>
0

> <PUBCHEM_COMPONENT_COUNT>
1

> <PUBCHEM_CACTVS_TAUTO_COUNT>
-1

> <PUBCHEM_COORDINATE_TYPE>
1
5
255

> <PUBCHEM_BONDANNOTATIONS>
13  14  8
14  16  8
15  16  8
15  18  8
16  19  8
18  21  8
19  22  8
20  23  8
20  24  8
21  22  8
23  25  8
24  26  8
25  27  8
26  27  8
4  13  8
4  15  8

$$$$
