134151729
  -OEChem-09292322382D

 71 74  0     1  0  0  0  0  0999 V2000
    8.9282    2.0000    0.0000 O   0  0  0  0  0  0  0  0  0  0  0  0
    5.4641   -2.0000    0.0000 N   0  0  3  0  0  0  0  0  0  0  0  0
    5.4641   -4.0000    0.0000 N   0  0  3  0  0  0  0  0  0  0  0  0
    8.0622    3.5000    0.0000 N   0  0  0  0  0  0  0  0  0  0  0  0
    4.5981   -2.5000    0.0000 C   0  0  2  0  0  0  0  0  0  0  0  0
    4.5981   -3.5000    0.0000 C   0  0  0  0  0  0  0  0  0  0  0  0
    6.3301   -2.5000    0.0000 C   0  0  0  0  0  0  0  0  0  0  0  0
    6.3301   -3.5000    0.0000 C   0  0  0  0  0  0  0  0  0  0  0  0
    5.4641   -1.0000    0.0000 C   0  0  0  0  0  0  0  0  0  0  0  0
    3.7320   -2.0000    0.0000 C   0  0  0  0  0  0  0  0  0  0  0  0
    6.3301   -0.5000    0.0000 C   0  0  0  0  0  0  0  0  0  0  0  0
    5.4641   -5.0000    0.0000 C   0  0  0  0  0  0  0  0  0  0  0  0
    6.3301    0.5000    0.0000 C   0  0  0  0  0  0  0  0  0  0  0  0
    7.1962    1.0000    0.0000 C   0  0  0  0  0  0  0  0  0  0  0  0
    4.5981   -5.5000    0.0000 C   0  0  0  0  0  0  0  0  0  0  0  0
    6.3301   -5.5000    0.0000 C   0  0  0  0  0  0  0  0  0  0  0  0
    7.1962    2.0000    0.0000 C   0  0  0  0  0  0  0  0  0  0  0  0
    4.5981   -6.5000    0.0000 C   0  0  0  0  0  0  0  0  0  0  0  0
    3.7320   -5.0000    0.0000 C   0  0  0  0  0  0  0  0  0  0  0  0
    6.3301   -6.5000    0.0000 C   0  0  0  0  0  0  0  0  0  0  0  0
    5.4641   -7.0000    0.0000 C   0  0  0  0  0  0  0  0  0  0  0  0
    8.0622    2.5000    0.0000 C   0  0  0  0  0  0  0  0  0  0  0  0
    3.7320   -4.0000    0.0000 C   0  0  0  0  0  0  0  0  0  0  0  0
    2.8660   -5.5000    0.0000 C   0  0  0  0  0  0  0  0  0  0  0  0
    2.8660   -3.5000    0.0000 C   0  0  0  0  0  0  0  0  0  0  0  0
    2.0000   -5.0000    0.0000 C   0  0  0  0  0  0  0  0  0  0  0  0
    2.0000   -4.0000    0.0000 C   0  0  0  0  0  0  0  0  0  0  0  0
    8.9282    4.0000    0.0000 C   0  0  0  0  0  0  0  0  0  0  0  0
    8.9282    5.0000    0.0000 C   0  0  0  0  0  0  0  0  0  0  0  0
    9.7942    5.5000    0.0000 C   0  0  0  0  0  0  0  0  0  0  0  0
    8.0622    5.5000    0.0000 C   0  0  0  0  0  0  0  0  0  0  0  0
    9.7942    6.5000    0.0000 C   0  0  0  0  0  0  0  0  0  0  0  0
    8.0622    6.5000    0.0000 C   0  0  0  0  0  0  0  0  0  0  0  0
    8.9282    7.0000    0.0000 C   0  0  0  0  0  0  0  0  0  0  0  0
    4.5981   -1.8800    0.0000 H   0  0  0  0  0  0  0  0  0  0  0  0
    3.9875   -3.3923    0.0000 H   0  0  0  0  0  0  0  0  0  0  0  0
    4.3860   -4.0826    0.0000 H   0  0  0  0  0  0  0  0  0  0  0  0
    6.9407   -2.6077    0.0000 H   0  0  0  0  0  0  0  0  0  0  0  0
    6.5422   -1.9174    0.0000 H   0  0  0  0  0  0  0  0  0  0  0  0
    6.5422   -4.0826    0.0000 H   0  0  0  0  0  0  0  0  0  0  0  0
    6.9407   -3.3923    0.0000 H   0  0  0  0  0  0  0  0  0  0  0  0
    5.2520   -0.4174    0.0000 H   0  0  0  0  0  0  0  0  0  0  0  0
    4.8535   -1.1077    0.0000 H   0  0  0  0  0  0  0  0  0  0  0  0
    4.0420   -1.4631    0.0000 H   0  0  0  0  0  0  0  0  0  0  0  0
    3.1951   -1.6900    0.0000 H   0  0  0  0  0  0  0  0  0  0  0  0
    3.4220   -2.5369    0.0000 H   0  0  0  0  0  0  0  0  0  0  0  0
    6.5422   -1.0826    0.0000 H   0  0  0  0  0  0  0  0  0  0  0  0
    6.9407   -0.3923    0.0000 H   0  0  0  0  0  0  0  0  0  0  0  0
    6.1181    1.0826    0.0000 H   0  0  0  0  0  0  0  0  0  0  0  0
    5.7196    0.3923    0.0000 H   0  0  0  0  0  0  0  0  0  0  0  0
    7.4082    0.4174    0.0000 H   0  0  0  0  0  0  0  0  0  0  0  0
    7.8067    1.1077    0.0000 H   0  0  0  0  0  0  0  0  0  0  0  0
    6.8671   -5.1900    0.0000 H   0  0  0  0  0  0  0  0  0  0  0  0
    6.9841    2.5826    0.0000 H   0  0  0  0  0  0  0  0  0  0  0  0
    6.5856    1.8923    0.0000 H   0  0  0  0  0  0  0  0  0  0  0  0
    4.0611   -6.8100    0.0000 H   0  0  0  0  0  0  0  0  0  0  0  0
    6.8671   -6.8100    0.0000 H   0  0  0  0  0  0  0  0  0  0  0  0
    5.4641   -7.6200    0.0000 H   0  0  0  0  0  0  0  0  0  0  0  0
    4.2690   -3.6900    0.0000 H   0  0  0  0  0  0  0  0  0  0  0  0
    2.8660   -6.1200    0.0000 H   0  0  0  0  0  0  0  0  0  0  0  0
    7.5252    3.8100    0.0000 H   0  0  0  0  0  0  0  0  0  0  0  0
    2.8660   -2.8800    0.0000 H   0  0  0  0  0  0  0  0  0  0  0  0
    1.4631   -5.3100    0.0000 H   0  0  0  0  0  0  0  0  0  0  0  0
    1.4631   -3.6900    0.0000 H   0  0  0  0  0  0  0  0  0  0  0  0
    9.1403    3.4174    0.0000 H   0  0  0  0  0  0  0  0  0  0  0  0
    9.5388    4.1077    0.0000 H   0  0  0  0  0  0  0  0  0  0  0  0
   10.3312    5.1900    0.0000 H   0  0  0  0  0  0  0  0  0  0  0  0
    7.5252    5.1900    0.0000 H   0  0  0  0  0  0  0  0  0  0  0  0
   10.3312    6.8100    0.0000 H   0  0  0  0  0  0  0  0  0  0  0  0
    7.5252    6.8100    0.0000 H   0  0  0  0  0  0  0  0  0  0  0  0
    8.9282    7.6200    0.0000 H   0  0  0  0  0  0  0  0  0  0  0  0
  1 22  2  0  0  0  0
  2  5  1  0  0  0  0
  2  7  1  0  0  0  0
  2  9  1  0  0  0  0
  3  6  1  0  0  0  0
  3  8  1  0  0  0  0
  3 12  1  0  0  0  0
  4 22  1  0  0  0  0
  4 28  1  0  0  0  0
  4 61  1  0  0  0  0
  5  6  1  0  0  0  0
  5 10  1  6  0  0  0
  5 35  1  0  0  0  0
  6 36  1  0  0  0  0
  6 37  1  0  0  0  0
  7  8  1  0  0  0  0
  7 38  1  0  0  0  0
  7 39  1  0  0  0  0
  8 40  1  0  0  0  0
  8 41  1  0  0  0  0
  9 11  1  0  0  0  0
  9 42  1  0  0  0  0
  9 43  1  0  0  0  0
 10 44  1  0  0  0  0
 10 45  1  0  0  0  0
 10 46  1  0  0  0  0
 11 13  1  0  0  0  0
 11 47  1  0  0  0  0
 11 48  1  0  0  0  0
 12 15  1  0  0  0  0
 12 16  2  0  0  0  0
 13 14  1  0  0  0  0
 13 49  1  0  0  0  0
 13 50  1  0  0  0  0
 14 17  1  0  0  0  0
 14 51  1  0  0  0  0
 14 52  1  0  0  0  0
 15 18  2  0  0  0  0
 15 19  1  0  0  0  0
 16 20  1  0  0  0  0
 16 53  1  0  0  0  0
 17 22  1  0  0  0  0
 17 54  1  0  0  0  0
 17 55  1  0  0  0  0
 18 21  1  0  0  0  0
 18 56  1  0  0  0  0
 19 23  2  0  0  0  0
 19 24  1  0  0  0  0
 20 21  2  0  0  0  0
 20 57  1  0  0  0  0
 21 58  1  0  0  0  0
 23 25  1  0  0  0  0
 23 59  1  0  0  0  0
 24 26  2  0  0  0  0
 24 60  1  0  0  0  0
 25 27  2  0  0  0  0
 25 62  1  0  0  0  0
 26 27  1  0  0  0  0
 26 63  1  0  0  0  0
 27 64  1  0  0  0  0
 28 29  1  0  0  0  0
 28 65  1  0  0  0  0
 28 66  1  0  0  0  0
 29 30  2  0  0  0  0
 29 31  1  0  0  0  0
 30 32  1  0  0  0  0
 30 67  1  0  0  0  0
 31 33  2  0  0  0  0
 31 68  1  0  0  0  0
 32 34  2  0  0  0  0
 32 69  1  0  0  0  0
 33 34  1  0  0  0  0
 33 70  1  0  0  0  0
 34 71  1  0  0  0  0
M  END
> <PUBCHEM_COMPOUND_CID>
134151729

> <PUBCHEM_COMPOUND_CANONICALIZED>
1

> <PUBCHEM_CACTVS_COMPLEXITY>
584

> <PUBCHEM_CACTVS_HBOND_ACCEPTOR>
3

> <PUBCHEM_CACTVS_HBOND_DONOR>
1

> <PUBCHEM_CACTVS_ROTATABLE_BOND>
10

> <PUBCHEM_CACTVS_SUBSKEYS>
AAADcfB7IAAAAAAAAAAAAAAAAAAAAAAAAAA8YMEAAAAAAAABUAAAHgAQAAAADCjBmAQywIPAAACIAiVSUACCAAAhAgAIiIEIZIgIYDLAkZGUIAhglgDIyAcYiMAOgAAAAAACAAAAAAAAAAQAAAAAAAAAAA==

> <PUBCHEM_IUPAC_OPENEYE_NAME>
N-benzyl-6-[(2S)-2-methyl-4-(2-phenylphenyl)piperazin-1-yl]hexanamide

> <PUBCHEM_IUPAC_CAS_NAME>
6-[(2S)-2-methyl-4-(2-phenylphenyl)-1-piperazinyl]-N-(phenylmethyl)hexanamide

> <PUBCHEM_IUPAC_NAME_MARKUP>
<I>N</I>-benzyl-6-[(2<I>S</I>)-2-methyl-4-(2-phenylphenyl)piperazin-1-yl]hexanamide

> <PUBCHEM_IUPAC_NAME>
N-benzyl-6-[(2S)-2-methyl-4-(2-phenylphenyl)piperazin-1-yl]hexanamide

> <PUBCHEM_IUPAC_SYSTEMATIC_NAME>
6-[(2S)-2-methyl-4-(2-phenylphenyl)piperazin-1-yl]-N-(phenylmethyl)hexanamide

> <PUBCHEM_IUPAC_TRADITIONAL_NAME>
N-benzyl-6-[(2S)-2-methyl-4-(2-phenylphenyl)piperazino]hexanamide

> <PUBCHEM_IUPAC_INCHI>
InChI=1S/C30H37N3O/c1-25-24-33(29-18-11-10-17-28(29)27-15-7-3-8-16-27)22-21-32(25)20-12-4-9-19-30(34)31-23-26-13-5-2-6-14-26/h2-3,5-8,10-11,13-18,25H,4,9,12,19-24H2,1H3,(H,31,34)/t25-/m0/s1

> <PUBCHEM_IUPAC_INCHIKEY>
GPICSZOLXGYSHL-VWLOTQADSA-N

> <PUBCHEM_XLOGP3_AA>
5.7

> <PUBCHEM_EXACT_MASS>
455.293662812

> <PUBCHEM_MOLECULAR_FORMULA>
C30H37N3O

> <PUBCHEM_MOLECULAR_WEIGHT>
455.6

> <PUBCHEM_OPENEYE_CAN_SMILES>
CC1CN(CCN1CCCCCC(=O)NCC2=CC=CC=C2)C3=CC=CC=C3C4=CC=CC=C4

> <PUBCHEM_OPENEYE_ISO_SMILES>
C[C@H]1CN(CCN1CCCCCC(=O)NCC2=CC=CC=C2)C3=CC=CC=C3C4=CC=CC=C4

> <PUBCHEM_CACTVS_TPSA>
35.6

> <PUBCHEM_MONOISOTOPIC_WEIGHT>
455.293662812

> <PUBCHEM_TOTAL_CHARGE>
0

> <PUBCHEM_HEAVY_ATOM_COUNT>
34

> <PUBCHEM_ATOM_DEF_STEREO_COUNT>
1

> <PUBCHEM_ATOM_UDEF_STEREO_COUNT>
0

> <PUBCHEM_BOND_DEF_STEREO_COUNT>
0

> <PUBCHEM_BOND_UDEF_STEREO_COUNT>
0

> <PUBCHEM_ISOTOPIC_ATOM_COUNT>
0

> <PUBCHEM_COMPONENT_COUNT>
1

> <PUBCHEM_CACTVS_TAUTO_COUNT>
-1

> <PUBCHEM_COORDINATE_TYPE>
1
5
255

> <PUBCHEM_BONDANNOTATIONS>
12  15  8
12  16  8
15  18  8
16  20  8
18  21  8
19  23  8
19  24  8
20  21  8
23  25  8
24  26  8
25  27  8
26  27  8
29  30  8
29  31  8
30  32  8
31  33  8
32  34  8
33  34  8
5  10  6

$$$$
