127046922
  -OEChem-09292322002D

 58 62  0     1  0  0  0  0  0999 V2000
    4.8714    6.2537    0.0000 O   0  0  0  0  0  0  0  0  0  0  0  0
    9.8622   -1.4919    0.0000 O   0  0  0  0  0  0  0  0  0  0  0  0
    4.6660    4.5081    0.0000 N   0  0  0  0  0  0  0  0  0  0  0  0
    6.3981    2.5081    0.0000 N   0  0  3  0  0  0  0  0  0  0  0  0
    3.3073    5.4520    0.0000 N   0  0  0  0  0  0  0  0  0  0  0  0
    8.1301   -1.4919    0.0000 N   0  0  0  0  0  0  0  0  0  0  0  0
    9.8009   -3.5755    0.0000 N   0  0  0  0  0  0  0  0  0  0  0  0
    5.5321    3.0081    0.0000 C   0  0  1  0  0  0  0  0  0  0  0  0
    5.5321    4.0081    0.0000 C   0  0  0  0  0  0  0  0  0  0  0  0
    4.6660    2.5081    0.0000 C   0  0  0  0  0  0  0  0  0  0  0  0
    3.8000    4.0081    0.0000 C   0  0  0  0  0  0  0  0  0  0  0  0
    3.8000    3.0081    0.0000 C   0  0  0  0  0  0  0  0  0  0  0  0
    6.3981    1.5081    0.0000 C   0  0  0  0  0  0  0  0  0  0  0  0
    2.9061    4.5428    0.0000 C   0  0  0  0  0  0  0  0  0  0  0  0
    4.3009    5.4325    0.0000 C   0  0  0  0  0  0  0  0  0  0  0  0
    7.2641    1.0081    0.0000 C   0  0  0  0  0  0  0  0  0  0  0  0
    2.9061    2.4735    0.0000 C   0  0  0  0  0  0  0  0  0  0  0  0
    7.2641    3.0081    0.0000 C   0  0  0  0  0  0  0  0  0  0  0  0
    2.0000    4.0290    0.0000 C   0  0  0  0  0  0  0  0  0  0  0  0
    7.2641    0.0081    0.0000 C   0  0  0  0  0  0  0  0  0  0  0  0
    2.0000    2.9873    0.0000 C   0  0  0  0  0  0  0  0  0  0  0  0
    8.1301   -0.4919    0.0000 C   0  0  0  0  0  0  0  0  0  0  0  0
    8.9962   -1.9919    0.0000 C   0  0  0  0  0  0  0  0  0  0  0  0
    8.9962   -2.9919    0.0000 C   0  0  0  0  0  0  0  0  0  0  0  0
    9.4962   -4.5217    0.0000 C   0  0  0  0  0  0  0  0  0  0  0  0
    8.4962   -4.5217    0.0000 C   0  0  0  0  0  0  0  0  0  0  0  0
    8.1914   -3.5755    0.0000 C   0  0  0  0  0  0  0  0  0  0  0  0
    9.9962   -5.3877    0.0000 C   0  0  0  0  0  0  0  0  0  0  0  0
    7.9962   -5.3877    0.0000 C   0  0  0  0  0  0  0  0  0  0  0  0
    9.4962   -6.2537    0.0000 C   0  0  0  0  0  0  0  0  0  0  0  0
    8.4962   -6.2537    0.0000 C   0  0  0  0  0  0  0  0  0  0  0  0
    5.5321    2.3881    0.0000 H   0  0  0  0  0  0  0  0  0  0  0  0
    6.1426    3.9005    0.0000 H   0  0  0  0  0  0  0  0  0  0  0  0
    5.7441    4.5908    0.0000 H   0  0  0  0  0  0  0  0  0  0  0  0
    4.2675    2.0332    0.0000 H   0  0  0  0  0  0  0  0  0  0  0  0
    5.0646    2.0332    0.0000 H   0  0  0  0  0  0  0  0  0  0  0  0
    5.7875    1.6158    0.0000 H   0  0  0  0  0  0  0  0  0  0  0  0
    6.1860    0.9255    0.0000 H   0  0  0  0  0  0  0  0  0  0  0  0
    7.8747    0.9005    0.0000 H   0  0  0  0  0  0  0  0  0  0  0  0
    7.4762    1.5908    0.0000 H   0  0  0  0  0  0  0  0  0  0  0  0
    2.9132    1.8535    0.0000 H   0  0  0  0  0  0  0  0  0  0  0  0
    7.5741    2.4712    0.0000 H   0  0  0  0  0  0  0  0  0  0  0  0
    7.8010    3.3181    0.0000 H   0  0  0  0  0  0  0  0  0  0  0  0
    6.9541    3.5451    0.0000 H   0  0  0  0  0  0  0  0  0  0  0  0
    2.9739    5.9748    0.0000 H   0  0  0  0  0  0  0  0  0  0  0  0
    1.4643    4.3410    0.0000 H   0  0  0  0  0  0  0  0  0  0  0  0
    6.6535    0.1158    0.0000 H   0  0  0  0  0  0  0  0  0  0  0  0
    7.0521   -0.5745    0.0000 H   0  0  0  0  0  0  0  0  0  0  0  0
    1.4643    2.6753    0.0000 H   0  0  0  0  0  0  0  0  0  0  0  0
    8.7407   -0.5995    0.0000 H   0  0  0  0  0  0  0  0  0  0  0  0
    8.3422    0.0907    0.0000 H   0  0  0  0  0  0  0  0  0  0  0  0
    7.5932   -1.8019    0.0000 H   0  0  0  0  0  0  0  0  0  0  0  0
   10.3902   -3.3829    0.0000 H   0  0  0  0  0  0  0  0  0  0  0  0
    7.6021   -3.3829    0.0000 H   0  0  0  0  0  0  0  0  0  0  0  0
   10.6162   -5.3877    0.0000 H   0  0  0  0  0  0  0  0  0  0  0  0
    7.3762   -5.3877    0.0000 H   0  0  0  0  0  0  0  0  0  0  0  0
    9.8062   -6.7907    0.0000 H   0  0  0  0  0  0  0  0  0  0  0  0
    8.1862   -6.7907    0.0000 H   0  0  0  0  0  0  0  0  0  0  0  0
  1 15  2  0  0  0  0
  2 23  2  0  0  0  0
  3  9  1  0  0  0  0
  3 11  1  0  0  0  0
  3 15  1  0  0  0  0
  8  4  1  6  0  0  0
  4 13  1  0  0  0  0
  4 18  1  0  0  0  0
  5 14  1  0  0  0  0
  5 15  1  0  0  0  0
  5 45  1  0  0  0  0
  6 22  1  0  0  0  0
  6 23  1  0  0  0  0
  6 52  1  0  0  0  0
  7 24  1  0  0  0  0
  7 25  1  0  0  0  0
  7 53  1  0  0  0  0
  8  9  1  0  0  0  0
  8 10  1  0  0  0  0
  8 32  1  0  0  0  0
  9 33  1  0  0  0  0
  9 34  1  0  0  0  0
 10 12  1  0  0  0  0
 10 35  1  0  0  0  0
 10 36  1  0  0  0  0
 11 12  2  0  0  0  0
 11 14  1  0  0  0  0
 12 17  1  0  0  0  0
 13 16  1  0  0  0  0
 13 37  1  0  0  0  0
 13 38  1  0  0  0  0
 14 19  2  0  0  0  0
 16 20  1  0  0  0  0
 16 39  1  0  0  0  0
 16 40  1  0  0  0  0
 17 21  2  0  0  0  0
 17 41  1  0  0  0  0
 18 42  1  0  0  0  0
 18 43  1  0  0  0  0
 18 44  1  0  0  0  0
 19 21  1  0  0  0  0
 19 46  1  0  0  0  0
 20 22  1  0  0  0  0
 20 47  1  0  0  0  0
 20 48  1  0  0  0  0
 21 49  1  0  0  0  0
 22 50  1  0  0  0  0
 22 51  1  0  0  0  0
 23 24  1  0  0  0  0
 24 27  2  0  0  0  0
 25 26  1  0  0  0  0
 25 28  2  0  0  0  0
 26 27  1  0  0  0  0
 26 29  2  0  0  0  0
 27 54  1  0  0  0  0
 28 30  1  0  0  0  0
 28 55  1  0  0  0  0
 29 31  1  0  0  0  0
 29 56  1  0  0  0  0
 30 31  2  0  0  0  0
 30 57  1  0  0  0  0
 31 58  1  0  0  0  0
M  END
> <PUBCHEM_COMPOUND_CID>
127046922

> <PUBCHEM_COMPOUND_CANONICALIZED>
1

> <PUBCHEM_CACTVS_COMPLEXITY>
672

> <PUBCHEM_CACTVS_HBOND_ACCEPTOR>
3

> <PUBCHEM_CACTVS_HBOND_DONOR>
3

> <PUBCHEM_CACTVS_ROTATABLE_BOND>
7

> <PUBCHEM_CACTVS_SUBSKEYS>
AAADceB7sAAAAAAAAAAAAAAAAAAAAWLAAAA8YIAAAAAAAFix9AAAHgAQAAAADCjBngQzwPPJkACoAyVyVACCgCAnAiAImaG4dNiIYPLAlbGUIQholgLIyacYiYCeAAAAQAACACAAAACAAAQAQAAAAAAAAA==

> <PUBCHEM_IUPAC_OPENEYE_NAME>
N-[4-[methyl-[(10R)-2-oxo-1,3-diazatricyclo[6.3.1.04,12]dodeca-4,6,8(12)-trien-10-yl]amino]butyl]-1H-indole-2-carboxamide

> <PUBCHEM_IUPAC_CAS_NAME>
N-[4-[methyl-[(10R)-2-oxo-1,3-diazatricyclo[6.3.1.04,12]dodeca-4,6,8(12)-trien-10-yl]amino]butyl]-1H-indole-2-carboxamide

> <PUBCHEM_IUPAC_NAME_MARKUP>
<I>N</I>-[4-[methyl-[(10<I>R</I>)-2-oxo-1,3-diazatricyclo[6.3.1.0<SUP>4,12</SUP>]dodeca-4,6,8(12)-trien-10-yl]amino]butyl]-1<I>H</I>-indole-2-carboxamide

> <PUBCHEM_IUPAC_NAME>
N-[4-[methyl-[(10R)-2-oxo-1,3-diazatricyclo[6.3.1.04,12]dodeca-4,6,8(12)-trien-10-yl]amino]butyl]-1H-indole-2-carboxamide

> <PUBCHEM_IUPAC_SYSTEMATIC_NAME>
N-[4-[methyl-[(10R)-2-oxidanylidene-1,3-diazatricyclo[6.3.1.04,12]dodeca-4,6,8(12)-trien-10-yl]amino]butyl]-1H-indole-2-carboxamide

> <PUBCHEM_IUPAC_TRADITIONAL_NAME>
N-[4-[[(10R)-2-keto-1,3-diazatricyclo[6.3.1.04,12]dodeca-4,6,8(12)-trien-10-yl]-methyl-amino]butyl]-1H-indole-2-carboxamide

> <PUBCHEM_IUPAC_INCHI>
InChI=1S/C24H27N5O2/c1-28(18-13-17-8-6-10-20-22(17)29(15-18)24(31)27-20)12-5-4-11-25-23(30)21-14-16-7-2-3-9-19(16)26-21/h2-3,6-10,14,18,26H,4-5,11-13,15H2,1H3,(H,25,30)(H,27,31)/t18-/m1/s1

> <PUBCHEM_IUPAC_INCHIKEY>
XRUUSJMEKAKGQU-GOSISDBHSA-N

> <PUBCHEM_XLOGP3_AA>
3

> <PUBCHEM_EXACT_MASS>
417.21647512

> <PUBCHEM_MOLECULAR_FORMULA>
C24H27N5O2

> <PUBCHEM_MOLECULAR_WEIGHT>
417.5

> <PUBCHEM_OPENEYE_CAN_SMILES>
CN(CCCCNC(=O)C1=CC2=CC=CC=C2N1)C3CC4=C5C(=CC=C4)NC(=O)N5C3

> <PUBCHEM_OPENEYE_ISO_SMILES>
CN(CCCCNC(=O)C1=CC2=CC=CC=C2N1)[C@@H]3CC4=C5C(=CC=C4)NC(=O)N5C3

> <PUBCHEM_CACTVS_TPSA>
80.5

> <PUBCHEM_MONOISOTOPIC_WEIGHT>
417.21647512

> <PUBCHEM_TOTAL_CHARGE>
0

> <PUBCHEM_HEAVY_ATOM_COUNT>
31

> <PUBCHEM_ATOM_DEF_STEREO_COUNT>
1

> <PUBCHEM_ATOM_UDEF_STEREO_COUNT>
0

> <PUBCHEM_BOND_DEF_STEREO_COUNT>
0

> <PUBCHEM_BOND_UDEF_STEREO_COUNT>
0

> <PUBCHEM_ISOTOPIC_ATOM_COUNT>
0

> <PUBCHEM_COMPONENT_COUNT>
1

> <PUBCHEM_CACTVS_TAUTO_COUNT>
-1

> <PUBCHEM_COORDINATE_TYPE>
1
5
255

> <PUBCHEM_BONDANNOTATIONS>
11  12  8
11  14  8
12  17  8
14  19  8
17  21  8
19  21  8
24  27  8
25  26  8
25  28  8
26  27  8
26  29  8
28  30  8
29  31  8
3  11  8
3  15  8
30  31  8
8  4  6
5  14  8
5  15  8
7  24  8
7  25  8

$$$$
