118726021
  -OEChem-09292322022D

 56 61  0     0  0  0  0  0  0999 V2000
    4.5640    4.8754    0.0000 O   0  0  0  0  0  0  0  0  0  0  0  0
   12.9118   -3.3745    0.0000 O   0  0  0  0  0  0  0  0  0  0  0  0
    5.4641   -0.5654    0.0000 N   0  0  0  0  0  0  0  0  0  0  0  0
    7.1962   -1.5654    0.0000 N   0  0  0  0  0  0  0  0  0  0  0  0
    3.0752    3.9064    0.0000 N   0  0  0  0  0  0  0  0  0  0  0  0
    8.9282   -1.5654    0.0000 N   0  0  0  0  0  0  0  0  0  0  0  0
    8.0622   -3.0654    0.0000 N   0  0  0  0  0  0  0  0  0  0  0  0
    9.7942   -3.0654    0.0000 N   0  0  0  0  0  0  0  0  0  0  0  0
   10.7404   -1.7607    0.0000 N   0  0  0  0  0  0  0  0  0  0  0  0
   10.7404   -3.3702    0.0000 N   0  0  0  0  0  0  0  0  0  0  0  0
    8.9282   -4.5654    0.0000 N   0  0  0  0  0  0  0  0  0  0  0  0
    5.4641   -1.5654    0.0000 C   0  0  0  0  0  0  0  0  0  0  0  0
    6.3301   -0.0654    0.0000 C   0  0  0  0  0  0  0  0  0  0  0  0
    6.3301   -2.0654    0.0000 C   0  0  0  0  0  0  0  0  0  0  0  0
    7.1962   -0.5654    0.0000 C   0  0  0  0  0  0  0  0  0  0  0  0
    4.5981   -0.0654    0.0000 C   0  0  0  0  0  0  0  0  0  0  0  0
    4.5981    0.9346    0.0000 C   0  0  0  0  0  0  0  0  0  0  0  0
    3.7320    1.4346    0.0000 C   0  0  0  0  0  0  0  0  0  0  0  0
    3.7320    2.4346    0.0000 C   0  0  0  0  0  0  0  0  0  0  0  0
    8.0622   -2.0654    0.0000 C   0  0  0  0  0  0  0  0  0  0  0  0
    4.4691    3.1016    0.0000 C   0  0  0  0  0  0  0  0  0  0  0  0
    2.8660    2.9346    0.0000 C   0  0  0  0  0  0  0  0  0  0  0  0
    2.8660    0.9346    0.0000 C   0  0  0  0  0  0  0  0  0  0  0  0
    4.0640    4.0094    0.0000 C   0  0  0  0  0  0  0  0  0  0  0  0
    2.0000    2.4346    0.0000 C   0  0  0  0  0  0  0  0  0  0  0  0
    2.0000    1.4346    0.0000 C   0  0  0  0  0  0  0  0  0  0  0  0
    9.7942   -2.0654    0.0000 C   0  0  0  0  0  0  0  0  0  0  0  0
    8.9282   -3.5654    0.0000 C   0  0  0  0  0  0  0  0  0  0  0  0
   11.3241   -2.5654    0.0000 C   0  0  0  0  0  0  0  0  0  0  0  0
   12.3241   -2.5654    0.0000 C   0  0  0  0  0  0  0  0  0  0  0  0
   12.9118   -1.7564    0.0000 C   0  0  0  0  0  0  0  0  0  0  0  0
   13.8629   -2.0654    0.0000 C   0  0  0  0  0  0  0  0  0  0  0  0
   13.8629   -3.0654    0.0000 C   0  0  0  0  0  0  0  0  0  0  0  0
    4.8535   -1.4578    0.0000 H   0  0  0  0  0  0  0  0  0  0  0  0
    5.2520   -2.1481    0.0000 H   0  0  0  0  0  0  0  0  0  0  0  0
    6.7287    0.4095    0.0000 H   0  0  0  0  0  0  0  0  0  0  0  0
    5.9316    0.4095    0.0000 H   0  0  0  0  0  0  0  0  0  0  0  0
    5.9316   -2.5404    0.0000 H   0  0  0  0  0  0  0  0  0  0  0  0
    6.7287   -2.5404    0.0000 H   0  0  0  0  0  0  0  0  0  0  0  0
    7.8067   -0.6731    0.0000 H   0  0  0  0  0  0  0  0  0  0  0  0
    7.4082    0.0172    0.0000 H   0  0  0  0  0  0  0  0  0  0  0  0
    3.9875    0.0422    0.0000 H   0  0  0  0  0  0  0  0  0  0  0  0
    4.3860   -0.6481    0.0000 H   0  0  0  0  0  0  0  0  0  0  0  0
    5.2087    0.8269    0.0000 H   0  0  0  0  0  0  0  0  0  0  0  0
    4.8101    1.5172    0.0000 H   0  0  0  0  0  0  0  0  0  0  0  0
    4.8345    2.6008    0.0000 H   0  0  0  0  0  0  0  0  0  0  0  0
    5.0056    3.4124    0.0000 H   0  0  0  0  0  0  0  0  0  0  0  0
    2.8660    0.3146    0.0000 H   0  0  0  0  0  0  0  0  0  0  0  0
    2.6612    4.3678    0.0000 H   0  0  0  0  0  0  0  0  0  0  0  0
    1.4631    2.7446    0.0000 H   0  0  0  0  0  0  0  0  0  0  0  0
    1.4631    1.1246    0.0000 H   0  0  0  0  0  0  0  0  0  0  0  0
    8.3913   -4.8754    0.0000 H   0  0  0  0  0  0  0  0  0  0  0  0
    9.4651   -4.8754    0.0000 H   0  0  0  0  0  0  0  0  0  0  0  0
   12.7203   -1.1668    0.0000 H   0  0  0  0  0  0  0  0  0  0  0  0
   14.3645   -1.7010    0.0000 H   0  0  0  0  0  0  0  0  0  0  0  0
   14.3645   -3.4299    0.0000 H   0  0  0  0  0  0  0  0  0  0  0  0
  1 24  2  0  0  0  0
  2 30  1  0  0  0  0
  2 33  1  0  0  0  0
  3 12  1  0  0  0  0
  3 13  1  0  0  0  0
  3 16  1  0  0  0  0
  4 14  1  0  0  0  0
  4 15  1  0  0  0  0
  4 20  1  0  0  0  0
  5 22  1  0  0  0  0
  5 24  1  0  0  0  0
  5 49  1  0  0  0  0
  6 20  2  0  0  0  0
  6 27  1  0  0  0  0
  7 20  1  0  0  0  0
  7 28  2  0  0  0  0
  8 10  1  0  0  0  0
  8 27  1  0  0  0  0
  8 28  1  0  0  0  0
  9 27  2  0  0  0  0
  9 29  1  0  0  0  0
 10 29  2  0  0  0  0
 11 28  1  0  0  0  0
 11 52  1  0  0  0  0
 11 53  1  0  0  0  0
 12 14  1  0  0  0  0
 12 34  1  0  0  0  0
 12 35  1  0  0  0  0
 13 15  1  0  0  0  0
 13 36  1  0  0  0  0
 13 37  1  0  0  0  0
 14 38  1  0  0  0  0
 14 39  1  0  0  0  0
 15 40  1  0  0  0  0
 15 41  1  0  0  0  0
 16 17  1  0  0  0  0
 16 42  1  0  0  0  0
 16 43  1  0  0  0  0
 17 18  1  0  0  0  0
 17 44  1  0  0  0  0
 17 45  1  0  0  0  0
 18 19  2  0  0  0  0
 18 23  1  0  0  0  0
 19 21  1  0  0  0  0
 19 22  1  0  0  0  0
 21 24  1  0  0  0  0
 21 46  1  0  0  0  0
 21 47  1  0  0  0  0
 22 25  2  0  0  0  0
 23 26  2  0  0  0  0
 23 48  1  0  0  0  0
 25 26  1  0  0  0  0
 25 50  1  0  0  0  0
 26 51  1  0  0  0  0
 29 30  1  0  0  0  0
 30 31  2  0  0  0  0
 31 32  1  0  0  0  0
 31 54  1  0  0  0  0
 32 33  2  0  0  0  0
 32 55  1  0  0  0  0
 33 56  1  0  0  0  0
M  END
> <PUBCHEM_COMPOUND_CID>
118726021

> <PUBCHEM_COMPOUND_CANONICALIZED>
1

> <PUBCHEM_CACTVS_COMPLEXITY>
705

> <PUBCHEM_CACTVS_HBOND_ACCEPTOR>
9

> <PUBCHEM_CACTVS_HBOND_DONOR>
2

> <PUBCHEM_CACTVS_ROTATABLE_BOND>
5

> <PUBCHEM_CACTVS_SUBSKEYS>
AAADceB78AAAAAAAAAAAAAAAAAAAAWLEgAA8WIAAAAAAAFgB/AAAHgAYAAAADAzhmwYx1IfIFECqAq9y9ASSiAsnIqAdiCGubNiObrLEvbuXOSj83BPY6YecmYKOgAAAQAASAAAAAACAACQAAAAAAAAAAA==

> <PUBCHEM_IUPAC_OPENEYE_NAME>
4-[2-[4-[7-amino-2-(2-furyl)-[1,2,4]triazolo[1,5-a][1,3,5]triazin-5-yl]piperazin-1-yl]ethyl]indolin-2-one

> <PUBCHEM_IUPAC_CAS_NAME>
4-[2-[4-[7-amino-2-(2-furanyl)-[1,2,4]triazolo[1,5-a][1,3,5]triazin-5-yl]-1-piperazinyl]ethyl]-1,3-dihydroindol-2-one

> <PUBCHEM_IUPAC_NAME_MARKUP>
4-[2-[4-[7-amino-2-(furan-2-yl)-[1,2,4]triazolo[1,5-a][1,3,5]triazin-5-yl]piperazin-1-yl]ethyl]-1,3-dihydroindol-2-one

> <PUBCHEM_IUPAC_NAME>
4-[2-[4-[7-amino-2-(furan-2-yl)-[1,2,4]triazolo[1,5-a][1,3,5]triazin-5-yl]piperazin-1-yl]ethyl]-1,3-dihydroindol-2-one

> <PUBCHEM_IUPAC_SYSTEMATIC_NAME>
4-[2-[4-[7-azanyl-2-(furan-2-yl)-[1,2,4]triazolo[1,5-a][1,3,5]triazin-5-yl]piperazin-1-yl]ethyl]-1,3-dihydroindol-2-one

> <PUBCHEM_IUPAC_TRADITIONAL_NAME>
4-[2-[4-[7-amino-2-(2-furyl)-[1,2,4]triazolo[1,5-a][1,3,5]triazin-5-yl]piperazino]ethyl]oxindole

> <PUBCHEM_IUPAC_INCHI>
InChI=1S/C22H23N9O2/c23-20-26-21(27-22-25-19(28-31(20)22)17-5-2-12-33-17)30-10-8-29(9-11-30)7-6-14-3-1-4-16-15(14)13-18(32)24-16/h1-5,12H,6-11,13H2,(H,24,32)(H2,23,25,26,27,28)

> <PUBCHEM_IUPAC_INCHIKEY>
BXPBFDBSJYZGDU-UHFFFAOYSA-N

> <PUBCHEM_XLOGP3_AA>
1.4

> <PUBCHEM_EXACT_MASS>
445.19747101

> <PUBCHEM_MOLECULAR_FORMULA>
C22H23N9O2

> <PUBCHEM_MOLECULAR_WEIGHT>
445.5

> <PUBCHEM_OPENEYE_CAN_SMILES>
C1CN(CCN1CCC2=C3CC(=O)NC3=CC=C2)C4=NC5=NC(=NN5C(=N4)N)C6=CC=CO6

> <PUBCHEM_OPENEYE_ISO_SMILES>
C1CN(CCN1CCC2=C3CC(=O)NC3=CC=C2)C4=NC5=NC(=NN5C(=N4)N)C6=CC=CO6

> <PUBCHEM_CACTVS_TPSA>
131

> <PUBCHEM_MONOISOTOPIC_WEIGHT>
445.19747101

> <PUBCHEM_TOTAL_CHARGE>
0

> <PUBCHEM_HEAVY_ATOM_COUNT>
33

> <PUBCHEM_ATOM_DEF_STEREO_COUNT>
0

> <PUBCHEM_ATOM_UDEF_STEREO_COUNT>
0

> <PUBCHEM_BOND_DEF_STEREO_COUNT>
0

> <PUBCHEM_BOND_UDEF_STEREO_COUNT>
0

> <PUBCHEM_ISOTOPIC_ATOM_COUNT>
0

> <PUBCHEM_COMPONENT_COUNT>
1

> <PUBCHEM_CACTVS_TAUTO_COUNT>
-1

> <PUBCHEM_COORDINATE_TYPE>
1
5
255

> <PUBCHEM_BONDANNOTATIONS>
10  29  8
18  19  8
18  23  8
19  22  8
2  30  8
2  33  8
22  25  8
23  26  8
25  26  8
30  31  8
31  32  8
32  33  8
6  20  8
6  27  8
7  20  8
7  28  8
8  10  8
8  27  8
8  28  8
9  27  8
9  29  8

$$$$
