44350774
  -OEChem-09292322112D

 68 70  0     0  0  0  0  0  0999 V2000
   12.4227    2.6200    0.0000 O   0  0  0  0  0  0  0  0  0  0  0  0
    7.1986    9.8988    0.0000 O   0  0  0  0  0  0  0  0  0  0  0  0
   10.7187    9.8988    0.0000 O   0  0  0  0  0  0  0  0  0  0  0  0
    3.1350    6.8784    0.0000 O   0  0  0  0  0  0  0  0  0  0  0  0
    0.5369    7.3784    0.0000 O   0  0  0  0  0  0  0  0  0  0  0  0
    2.2690    8.3784    0.0000 O   0  0  0  0  0  0  0  0  0  0  0  0
    1.4030    5.8784    0.0000 O   0  0  0  0  0  0  0  0  0  0  0  0
   10.6907    5.6200    0.0000 N   0  0  0  0  0  0  0  0  0  0  0  0
   10.6907    3.6200    0.0000 N   0  0  0  0  0  0  0  0  0  0  0  0
    8.9586    9.6200    0.0000 N   0  0  0  0  0  0  0  0  0  0  0  0
   11.5567    5.1200    0.0000 C   0  0  0  0  0  0  0  0  0  0  0  0
    9.8247    5.1200    0.0000 C   0  0  0  0  0  0  0  0  0  0  0  0
   11.5567    4.1200    0.0000 C   0  0  0  0  0  0  0  0  0  0  0  0
    9.8247    4.1200    0.0000 C   0  0  0  0  0  0  0  0  0  0  0  0
   10.6907    6.6200    0.0000 C   0  0  0  0  0  0  0  0  0  0  0  0
    9.8247    7.1200    0.0000 C   0  0  0  0  0  0  0  0  0  0  0  0
    9.8247    8.1200    0.0000 C   0  0  0  0  0  0  0  0  0  0  0  0
   10.6907    2.6200    0.0000 C   0  0  0  0  0  0  0  0  0  0  0  0
    8.9586    8.6200    0.0000 C   0  0  0  0  0  0  0  0  0  0  0  0
   11.5567    2.1200    0.0000 C   0  0  0  0  0  0  0  0  0  0  0  0
    9.8247    2.1200    0.0000 C   0  0  0  0  0  0  0  0  0  0  0  0
    8.1496   10.2078    0.0000 C   0  0  0  0  0  0  0  0  0  0  0  0
   11.5567    1.1200    0.0000 C   0  0  0  0  0  0  0  0  0  0  0  0
    9.7677   10.2078    0.0000 C   0  0  0  0  0  0  0  0  0  0  0  0
    9.8247    1.1200    0.0000 C   0  0  0  0  0  0  0  0  0  0  0  0
    8.4586   11.1588    0.0000 C   0  0  0  0  0  0  0  0  0  0  0  0
   10.6907    0.6200    0.0000 C   0  0  0  0  0  0  0  0  0  0  0  0
    9.4586   11.1588    0.0000 C   0  0  0  0  0  0  0  0  0  0  0  0
    7.8709   11.9679    0.0000 C   0  0  0  0  0  0  0  0  0  0  0  0
   13.2888    2.1200    0.0000 C   0  0  0  0  0  0  0  0  0  0  0  0
    8.2776   12.8814    0.0000 C   0  0  0  0  0  0  0  0  0  0  0  0
    6.8763   11.8633    0.0000 C   0  0  0  0  0  0  0  0  0  0  0  0
    7.6898   13.6904    0.0000 C   0  0  0  0  0  0  0  0  0  0  0  0
    6.2886   12.6723    0.0000 C   0  0  0  0  0  0  0  0  0  0  0  0
    6.6953   13.5859    0.0000 C   0  0  0  0  0  0  0  0  0  0  0  0
    2.2690    7.3784    0.0000 C   0  0  0  0  0  0  0  0  0  0  0  0
    1.4030    6.8784    0.0000 C   0  0  0  0  0  0  0  0  0  0  0  0
   12.1673    5.0123    0.0000 H   0  0  0  0  0  0  0  0  0  0  0  0
   11.7688    5.7026    0.0000 H   0  0  0  0  0  0  0  0  0  0  0  0
    9.6126    5.7026    0.0000 H   0  0  0  0  0  0  0  0  0  0  0  0
    9.2141    5.0123    0.0000 H   0  0  0  0  0  0  0  0  0  0  0  0
   11.7688    3.5374    0.0000 H   0  0  0  0  0  0  0  0  0  0  0  0
   12.1673    4.2277    0.0000 H   0  0  0  0  0  0  0  0  0  0  0  0
    9.2141    4.2277    0.0000 H   0  0  0  0  0  0  0  0  0  0  0  0
    9.6126    3.5374    0.0000 H   0  0  0  0  0  0  0  0  0  0  0  0
   11.3013    6.5123    0.0000 H   0  0  0  0  0  0  0  0  0  0  0  0
   10.9027    7.2026    0.0000 H   0  0  0  0  0  0  0  0  0  0  0  0
    9.2141    7.2277    0.0000 H   0  0  0  0  0  0  0  0  0  0  0  0
    9.6126    6.5374    0.0000 H   0  0  0  0  0  0  0  0  0  0  0  0
   10.4352    8.0123    0.0000 H   0  0  0  0  0  0  0  0  0  0  0  0
   10.0367    8.7026    0.0000 H   0  0  0  0  0  0  0  0  0  0  0  0
    8.3481    8.7277    0.0000 H   0  0  0  0  0  0  0  0  0  0  0  0
    8.7466    8.0374    0.0000 H   0  0  0  0  0  0  0  0  0  0  0  0
    9.2877    2.4300    0.0000 H   0  0  0  0  0  0  0  0  0  0  0  0
   12.0937    0.8100    0.0000 H   0  0  0  0  0  0  0  0  0  0  0  0
    9.2877    0.8100    0.0000 H   0  0  0  0  0  0  0  0  0  0  0  0
   10.6907    0.0000    0.0000 H   0  0  0  0  0  0  0  0  0  0  0  0
    9.8231   11.6604    0.0000 H   0  0  0  0  0  0  0  0  0  0  0  0
   12.9788    1.5831    0.0000 H   0  0  0  0  0  0  0  0  0  0  0  0
   13.8257    1.8100    0.0000 H   0  0  0  0  0  0  0  0  0  0  0  0
   13.5988    2.6569    0.0000 H   0  0  0  0  0  0  0  0  0  0  0  0
    8.8942   12.9462    0.0000 H   0  0  0  0  0  0  0  0  0  0  0  0
    6.6242   11.2969    0.0000 H   0  0  0  0  0  0  0  0  0  0  0  0
    7.9420   14.2568    0.0000 H   0  0  0  0  0  0  0  0  0  0  0  0
    5.6720   12.6075    0.0000 H   0  0  0  0  0  0  0  0  0  0  0  0
    6.3309   14.0875    0.0000 H   0  0  0  0  0  0  0  0  0  0  0  0
    3.6720    7.1884    0.0000 H   0  0  0  0  0  0  0  0  0  0  0  0
    0.0000    7.0684    0.0000 H   0  0  0  0  0  0  0  0  0  0  0  0
  1 20  1  0  0  0  0
  1 30  1  0  0  0  0
  2 22  2  0  0  0  0
  3 24  2  0  0  0  0
  4 36  1  0  0  0  0
  4 67  1  0  0  0  0
  5 37  1  0  0  0  0
  5 68  1  0  0  0  0
  6 36  2  0  0  0  0
  7 37  2  0  0  0  0
  8 11  1  0  0  0  0
  8 12  1  0  0  0  0
  8 15  1  0  0  0  0
  9 13  1  0  0  0  0
  9 14  1  0  0  0  0
  9 18  1  0  0  0  0
 10 19  1  0  0  0  0
 10 22  1  0  0  0  0
 10 24  1  0  0  0  0
 11 13  1  0  0  0  0
 11 38  1  0  0  0  0
 11 39  1  0  0  0  0
 12 14  1  0  0  0  0
 12 40  1  0  0  0  0
 12 41  1  0  0  0  0
 13 42  1  0  0  0  0
 13 43  1  0  0  0  0
 14 44  1  0  0  0  0
 14 45  1  0  0  0  0
 15 16  1  0  0  0  0
 15 46  1  0  0  0  0
 15 47  1  0  0  0  0
 16 17  1  0  0  0  0
 16 48  1  0  0  0  0
 16 49  1  0  0  0  0
 17 19  1  0  0  0  0
 17 50  1  0  0  0  0
 17 51  1  0  0  0  0
 18 20  1  0  0  0  0
 18 21  2  0  0  0  0
 19 52  1  0  0  0  0
 19 53  1  0  0  0  0
 20 23  2  0  0  0  0
 21 25  1  0  0  0  0
 21 54  1  0  0  0  0
 22 26  1  0  0  0  0
 23 27  1  0  0  0  0
 23 55  1  0  0  0  0
 24 28  1  0  0  0  0
 25 27  2  0  0  0  0
 25 56  1  0  0  0  0
 26 28  2  0  0  0  0
 26 29  1  0  0  0  0
 27 57  1  0  0  0  0
 28 58  1  0  0  0  0
 29 31  2  0  0  0  0
 29 32  1  0  0  0  0
 30 59  1  0  0  0  0
 30 60  1  0  0  0  0
 30 61  1  0  0  0  0
 31 33  1  0  0  0  0
 31 62  1  0  0  0  0
 32 34  2  0  0  0  0
 32 63  1  0  0  0  0
 33 35  2  0  0  0  0
 33 64  1  0  0  0  0
 34 35  1  0  0  0  0
 34 65  1  0  0  0  0
 35 66  1  0  0  0  0
 36 37  1  0  0  0  0
M  END
> <PUBCHEM_COMPOUND_CID>
44350774

> <PUBCHEM_COMPOUND_CANONICALIZED>
1

> <PUBCHEM_CACTVS_COMPLEXITY>
722

> <PUBCHEM_CACTVS_HBOND_ACCEPTOR>
9

> <PUBCHEM_CACTVS_HBOND_DONOR>
2

> <PUBCHEM_CACTVS_ROTATABLE_BOND>
9

> <PUBCHEM_CACTVS_SUBSKEYS>
AAADceB7OAAAAAAAAAAAAAAAAAAAAQAAAAA8YIAAAAAAAAABQAAAHgAACAAADAzBmAYyzoMABgCIAiXSWAKCCAAhIgAIiAFPbMgPZjLEtZuVMChkxjHZ6YeYyICOAAAAAAAAEAAAAAAAAAAgAAAAAAAAAA==

> <PUBCHEM_IUPAC_OPENEYE_NAME>
1-[4-[4-(2-methoxyphenyl)piperazin-1-yl]butyl]-3-phenyl-pyrrole-2,5-dione;oxalic acid

> <PUBCHEM_IUPAC_CAS_NAME>
1-[4-[4-(2-methoxyphenyl)-1-piperazinyl]butyl]-3-phenylpyrrole-2,5-dione;oxalic acid

> <PUBCHEM_IUPAC_NAME_MARKUP>
1-[4-[4-(2-methoxyphenyl)piperazin-1-yl]butyl]-3-phenylpyrrole-2,5-dione;oxalic acid

> <PUBCHEM_IUPAC_NAME>
1-[4-[4-(2-methoxyphenyl)piperazin-1-yl]butyl]-3-phenylpyrrole-2,5-dione;oxalic acid

> <PUBCHEM_IUPAC_SYSTEMATIC_NAME>
ethanedioic acid;1-[4-[4-(2-methoxyphenyl)piperazin-1-yl]butyl]-3-phenyl-pyrrole-2,5-dione

> <PUBCHEM_IUPAC_TRADITIONAL_NAME>
1-[4-[4-(2-methoxyphenyl)piperazino]butyl]-3-phenyl-3-pyrroline-2,5-quinone;oxalic acid

> <PUBCHEM_IUPAC_INCHI>
InChI=1S/C25H29N3O3.C2H2O4/c1-31-23-12-6-5-11-22(23)27-17-15-26(16-18-27)13-7-8-14-28-24(29)19-21(25(28)30)20-9-3-2-4-10-20;3-1(4)2(5)6/h2-6,9-12,19H,7-8,13-18H2,1H3;(H,3,4)(H,5,6)

> <PUBCHEM_IUPAC_INCHIKEY>
IDLLRKLCRRBGTJ-UHFFFAOYSA-N

> <PUBCHEM_EXACT_MASS>
509.21620034

> <PUBCHEM_MOLECULAR_FORMULA>
C27H31N3O7

> <PUBCHEM_MOLECULAR_WEIGHT>
509.5

> <PUBCHEM_OPENEYE_CAN_SMILES>
COC1=CC=CC=C1N2CCN(CC2)CCCCN3C(=O)C=C(C3=O)C4=CC=CC=C4.C(=O)(C(=O)O)O

> <PUBCHEM_OPENEYE_ISO_SMILES>
COC1=CC=CC=C1N2CCN(CC2)CCCCN3C(=O)C=C(C3=O)C4=CC=CC=C4.C(=O)(C(=O)O)O

> <PUBCHEM_CACTVS_TPSA>
128

> <PUBCHEM_MONOISOTOPIC_WEIGHT>
509.21620034

> <PUBCHEM_TOTAL_CHARGE>
0

> <PUBCHEM_HEAVY_ATOM_COUNT>
37

> <PUBCHEM_ATOM_DEF_STEREO_COUNT>
0

> <PUBCHEM_ATOM_UDEF_STEREO_COUNT>
0

> <PUBCHEM_BOND_DEF_STEREO_COUNT>
0

> <PUBCHEM_BOND_UDEF_STEREO_COUNT>
0

> <PUBCHEM_ISOTOPIC_ATOM_COUNT>
0

> <PUBCHEM_COMPONENT_COUNT>
2

> <PUBCHEM_CACTVS_TAUTO_COUNT>
-1

> <PUBCHEM_COORDINATE_TYPE>
1
5
255

> <PUBCHEM_BONDANNOTATIONS>
18  20  8
18  21  8
20  23  8
21  25  8
23  27  8
25  27  8
29  31  8
29  32  8
31  33  8
32  34  8
33  35  8
34  35  8

$$$$
