45273293
  -OEChem-09292322482D

 52 54  0     0  0  0  0  0  0999 V2000
    4.5981   -5.7055    0.0000 F   0  0  0  0  0  0  0  0  0  0  0  0
    6.3582   -1.4267    0.0000 O   0  0  0  0  0  0  0  0  0  0  0  0
    5.8669    2.3649    0.0000 N   0  0  0  0  0  0  0  0  0  0  0  0
    7.0425    3.9830    0.0000 N   0  0  0  0  0  0  0  0  0  0  0  0
    5.0981   -0.1667    0.0000 N   0  0  0  0  0  0  0  0  0  0  0  0
    4.5981   -1.7055    0.0000 N   0  0  0  0  0  0  0  0  0  0  0  0
    2.0000   -5.2055    0.0000 N   0  0  0  0  0  0  0  0  0  0  0  0
    5.4602    3.2785    0.0000 C   0  0  0  0  0  0  0  0  0  0  0  0
    6.8614    2.2604    0.0000 C   0  0  0  0  0  0  0  0  0  0  0  0
    6.0480    4.0875    0.0000 C   0  0  0  0  0  0  0  0  0  0  0  0
    7.4492    3.0694    0.0000 C   0  0  0  0  0  0  0  0  0  0  0  0
    5.2791    1.5559    0.0000 C   0  0  0  0  0  0  0  0  0  0  0  0
    7.6303    4.7920    0.0000 C   0  0  0  0  0  0  0  0  0  0  0  0
    5.6859    0.6424    0.0000 C   0  0  0  0  0  0  0  0  0  0  0  0
    4.0981   -0.1667    0.0000 C   0  0  0  0  0  0  0  0  0  0  0  0
    3.7891   -1.1177    0.0000 C   0  0  0  0  0  0  0  0  0  0  0  0
    5.4071   -1.1177    0.0000 C   0  0  0  0  0  0  0  0  0  0  0  0
    7.2235    5.7055    0.0000 C   0  0  0  0  0  0  0  0  0  0  0  0
    8.6248    4.6874    0.0000 C   0  0  0  0  0  0  0  0  0  0  0  0
    4.5981   -2.7055    0.0000 C   0  0  0  0  0  0  0  0  0  0  0  0
    3.7320   -3.2055    0.0000 C   0  0  0  0  0  0  0  0  0  0  0  0
    5.4641   -3.2055    0.0000 C   0  0  0  0  0  0  0  0  0  0  0  0
    3.7320   -4.2055    0.0000 C   0  0  0  0  0  0  0  0  0  0  0  0
    5.4641   -4.2055    0.0000 C   0  0  0  0  0  0  0  0  0  0  0  0
    4.5981   -4.7055    0.0000 C   0  0  0  0  0  0  0  0  0  0  0  0
    2.8660   -4.7055    0.0000 C   0  0  0  0  0  0  0  0  0  0  0  0
    5.0295    3.7244    0.0000 H   0  0  0  0  0  0  0  0  0  0  0  0
    4.9462    2.9318    0.0000 H   0  0  0  0  0  0  0  0  0  0  0  0
    6.6905    1.6644    0.0000 H   0  0  0  0  0  0  0  0  0  0  0  0
    7.4187    1.9886    0.0000 H   0  0  0  0  0  0  0  0  0  0  0  0
    6.2188    4.6835    0.0000 H   0  0  0  0  0  0  0  0  0  0  0  0
    5.4907    4.3593    0.0000 H   0  0  0  0  0  0  0  0  0  0  0  0
    7.8799    2.6234    0.0000 H   0  0  0  0  0  0  0  0  0  0  0  0
    7.9632    3.4161    0.0000 H   0  0  0  0  0  0  0  0  0  0  0  0
    4.8484    2.0019    0.0000 H   0  0  0  0  0  0  0  0  0  0  0  0
    4.7651    1.2092    0.0000 H   0  0  0  0  0  0  0  0  0  0  0  0
    7.9947    5.2936    0.0000 H   0  0  0  0  0  0  0  0  0  0  0  0
    6.1166    0.1964    0.0000 H   0  0  0  0  0  0  0  0  0  0  0  0
    6.1999    0.9890    0.0000 H   0  0  0  0  0  0  0  0  0  0  0  0
    4.1629    0.4499    0.0000 H   0  0  0  0  0  0  0  0  0  0  0  0
    3.4916   -0.0378    0.0000 H   0  0  0  0  0  0  0  0  0  0  0  0
    3.2227   -0.8655    0.0000 H   0  0  0  0  0  0  0  0  0  0  0  0
    3.4791   -1.6547    0.0000 H   0  0  0  0  0  0  0  0  0  0  0  0
    7.7899    5.9577    0.0000 H   0  0  0  0  0  0  0  0  0  0  0  0
    6.9714    6.2719    0.0000 H   0  0  0  0  0  0  0  0  0  0  0  0
    6.6571    5.4533    0.0000 H   0  0  0  0  0  0  0  0  0  0  0  0
    8.5600    4.0708    0.0000 H   0  0  0  0  0  0  0  0  0  0  0  0
    9.2414    4.6226    0.0000 H   0  0  0  0  0  0  0  0  0  0  0  0
    8.6896    5.3040    0.0000 H   0  0  0  0  0  0  0  0  0  0  0  0
    3.1951   -2.8955    0.0000 H   0  0  0  0  0  0  0  0  0  0  0  0
    6.0010   -2.8955    0.0000 H   0  0  0  0  0  0  0  0  0  0  0  0
    6.0010   -4.5155    0.0000 H   0  0  0  0  0  0  0  0  0  0  0  0
  1 25  1  0  0  0  0
  2 17  2  0  0  0  0
  3  8  1  0  0  0  0
  3  9  1  0  0  0  0
  3 12  1  0  0  0  0
  4 10  1  0  0  0  0
  4 11  1  0  0  0  0
  4 13  1  0  0  0  0
  5 14  1  0  0  0  0
  5 15  1  0  0  0  0
  5 17  1  0  0  0  0
  6 16  1  0  0  0  0
  6 17  1  0  0  0  0
  6 20  1  0  0  0  0
  7 26  3  0  0  0  0
  8 10  1  0  0  0  0
  8 27  1  0  0  0  0
  8 28  1  0  0  0  0
  9 11  1  0  0  0  0
  9 29  1  0  0  0  0
  9 30  1  0  0  0  0
 10 31  1  0  0  0  0
 10 32  1  0  0  0  0
 11 33  1  0  0  0  0
 11 34  1  0  0  0  0
 12 14  1  0  0  0  0
 12 35  1  0  0  0  0
 12 36  1  0  0  0  0
 13 18  1  0  0  0  0
 13 19  1  0  0  0  0
 13 37  1  0  0  0  0
 14 38  1  0  0  0  0
 14 39  1  0  0  0  0
 15 16  1  0  0  0  0
 15 40  1  0  0  0  0
 15 41  1  0  0  0  0
 16 42  1  0  0  0  0
 16 43  1  0  0  0  0
 18 44  1  0  0  0  0
 18 45  1  0  0  0  0
 18 46  1  0  0  0  0
 19 47  1  0  0  0  0
 19 48  1  0  0  0  0
 19 49  1  0  0  0  0
 20 21  2  0  0  0  0
 20 22  1  0  0  0  0
 21 23  1  0  0  0  0
 21 50  1  0  0  0  0
 22 24  2  0  0  0  0
 22 51  1  0  0  0  0
 23 25  2  0  0  0  0
 23 26  1  0  0  0  0
 24 25  1  0  0  0  0
 24 52  1  0  0  0  0
M  END
> <PUBCHEM_COMPOUND_CID>
45273293

> <PUBCHEM_COMPOUND_CANONICALIZED>
1

> <PUBCHEM_CACTVS_COMPLEXITY>
539

> <PUBCHEM_CACTVS_HBOND_ACCEPTOR>
5

> <PUBCHEM_CACTVS_HBOND_DONOR>
0

> <PUBCHEM_CACTVS_ROTATABLE_BOND>
5

> <PUBCHEM_CACTVS_SUBSKEYS>
AAADceB7oQAAAAAAAAAAAAAAAAAAAWAAAAA8QAAAAAAAAAABAAAAHwAAAAAADCjBGAwzwIMAAACYBiRCUACiAAAhAgAIiAAIZIiI4CLAkZGUIAhohgLIyC8QgAAOAAAAQAAAAAAAAACAAAAAAAAAAAAAAA==

> <PUBCHEM_IUPAC_OPENEYE_NAME>
2-fluoro-5-[3-[2-(4-isopropylpiperazin-1-yl)ethyl]-2-oxo-imidazolidin-1-yl]benzonitrile

> <PUBCHEM_IUPAC_CAS_NAME>
2-fluoro-5-[2-oxo-3-[2-(4-propan-2-yl-1-piperazinyl)ethyl]-1-imidazolidinyl]benzonitrile

> <PUBCHEM_IUPAC_NAME_MARKUP>
2-fluoro-5-[2-oxo-3-[2-(4-propan-2-ylpiperazin-1-yl)ethyl]imidazolidin-1-yl]benzonitrile

> <PUBCHEM_IUPAC_NAME>
2-fluoro-5-[2-oxo-3-[2-(4-propan-2-ylpiperazin-1-yl)ethyl]imidazolidin-1-yl]benzonitrile

> <PUBCHEM_IUPAC_SYSTEMATIC_NAME>
2-fluoranyl-5-[2-oxidanylidene-3-[2-(4-propan-2-ylpiperazin-1-yl)ethyl]imidazolidin-1-yl]benzenecarbonitrile

> <PUBCHEM_IUPAC_TRADITIONAL_NAME>
2-fluoro-5-[3-[2-(4-isopropylpiperazino)ethyl]-2-keto-imidazolidin-1-yl]benzonitrile

> <PUBCHEM_IUPAC_INCHI>
InChI=1S/C19H26FN5O/c1-15(2)23-8-5-22(6-9-23)7-10-24-11-12-25(19(24)26)17-3-4-18(20)16(13-17)14-21/h3-4,13,15H,5-12H2,1-2H3

> <PUBCHEM_IUPAC_INCHIKEY>
SDVCLZNNONYWDK-UHFFFAOYSA-N

> <PUBCHEM_XLOGP3_AA>
1.5

> <PUBCHEM_EXACT_MASS>
359.21213863

> <PUBCHEM_MOLECULAR_FORMULA>
C19H26FN5O

> <PUBCHEM_MOLECULAR_WEIGHT>
359.4

> <PUBCHEM_OPENEYE_CAN_SMILES>
CC(C)N1CCN(CC1)CCN2CCN(C2=O)C3=CC(=C(C=C3)F)C#N

> <PUBCHEM_OPENEYE_ISO_SMILES>
CC(C)N1CCN(CC1)CCN2CCN(C2=O)C3=CC(=C(C=C3)F)C#N

> <PUBCHEM_CACTVS_TPSA>
53.8

> <PUBCHEM_MONOISOTOPIC_WEIGHT>
359.21213863

> <PUBCHEM_TOTAL_CHARGE>
0

> <PUBCHEM_HEAVY_ATOM_COUNT>
26

> <PUBCHEM_ATOM_DEF_STEREO_COUNT>
0

> <PUBCHEM_ATOM_UDEF_STEREO_COUNT>
0

> <PUBCHEM_BOND_DEF_STEREO_COUNT>
0

> <PUBCHEM_BOND_UDEF_STEREO_COUNT>
0

> <PUBCHEM_ISOTOPIC_ATOM_COUNT>
0

> <PUBCHEM_COMPONENT_COUNT>
1

> <PUBCHEM_CACTVS_TAUTO_COUNT>
-1

> <PUBCHEM_COORDINATE_TYPE>
1
5
255

> <PUBCHEM_BONDANNOTATIONS>
20  21  8
20  22  8
21  23  8
22  24  8
23  25  8
24  25  8

$$$$
