44319370
  -OEChem-09292322152D

 54 57  0     1  0  0  0  0  0999 V2000
    6.3301   -5.4146    0.0000 Br  0  0  0  0  0  0  0  0  0  0  0  0
    5.4071   -1.8268    0.0000 O   0  0  0  0  0  0  0  0  0  0  0  0
    2.8660   -3.4146    0.0000 O   0  0  0  0  0  0  0  0  0  0  0  0
    3.9170    0.8468    0.0000 N   0  0  0  0  0  0  0  0  0  0  0  0
    4.7305    2.6739    0.0000 N   0  0  0  0  0  0  0  0  0  0  0  0
    3.7891   -1.8268    0.0000 N   0  0  0  0  0  0  0  0  0  0  0  0
    3.5103   -0.0667    0.0000 C   0  0  0  0  0  0  0  0  0  0  0  0
    4.0981   -0.8757    0.0000 C   0  0  1  0  0  0  0  0  0  0  0  0
    4.9116    0.9514    0.0000 C   0  0  0  0  0  0  0  0  0  0  0  0
    3.3292    1.6559    0.0000 C   0  0  0  0  0  0  0  0  0  0  0  0
    5.3183    1.8649    0.0000 C   0  0  0  0  0  0  0  0  0  0  0  0
    3.7360    2.5694    0.0000 C   0  0  0  0  0  0  0  0  0  0  0  0
    5.0981   -0.8757    0.0000 C   0  0  1  0  0  0  0  0  0  0  0  0
    5.1372    3.5875    0.0000 C   0  0  0  0  0  0  0  0  0  0  0  0
    5.6859   -0.0667    0.0000 C   0  0  0  0  0  0  0  0  0  0  0  0
    4.5981   -2.4146    0.0000 C   0  0  0  0  0  0  0  0  0  0  0  0
    4.5981   -3.4146    0.0000 C   0  0  0  0  0  0  0  0  0  0  0  0
    4.5494    4.3965    0.0000 C   0  0  0  0  0  0  0  0  0  0  0  0
    6.1318    3.6920    0.0000 C   0  0  0  0  0  0  0  0  0  0  0  0
    3.7320   -3.9146    0.0000 C   0  0  0  0  0  0  0  0  0  0  0  0
    5.4641   -3.9146    0.0000 C   0  0  0  0  0  0  0  0  0  0  0  0
    4.9562    5.3100    0.0000 C   0  0  0  0  0  0  0  0  0  0  0  0
    6.5385    4.6056    0.0000 C   0  0  0  0  0  0  0  0  0  0  0  0
    5.9507    5.4146    0.0000 C   0  0  0  0  0  0  0  0  0  0  0  0
    3.7320   -4.9146    0.0000 C   0  0  0  0  0  0  0  0  0  0  0  0
    5.4641   -4.9146    0.0000 C   0  0  0  0  0  0  0  0  0  0  0  0
    4.5981   -5.4146    0.0000 C   0  0  0  0  0  0  0  0  0  0  0  0
    2.0000   -3.9146    0.0000 C   0  0  0  0  0  0  0  0  0  0  0  0
    2.9963    0.2800    0.0000 H   0  0  0  0  0  0  0  0  0  0  0  0
    3.0796   -0.5127    0.0000 H   0  0  0  0  0  0  0  0  0  0  0  0
    3.4857   -0.9727    0.0000 H   0  0  0  0  0  0  0  0  0  0  0  0
    4.8683    0.3329    0.0000 H   0  0  0  0  0  0  0  0  0  0  0  0
    5.5131    0.8014    0.0000 H   0  0  0  0  0  0  0  0  0  0  0  0
    2.8152    2.0026    0.0000 H   0  0  0  0  0  0  0  0  0  0  0  0
    2.8986    1.2099    0.0000 H   0  0  0  0  0  0  0  0  0  0  0  0
    5.8323    1.5182    0.0000 H   0  0  0  0  0  0  0  0  0  0  0  0
    5.7490    2.3109    0.0000 H   0  0  0  0  0  0  0  0  0  0  0  0
    3.7792    3.1879    0.0000 H   0  0  0  0  0  0  0  0  0  0  0  0
    3.1344    2.7194    0.0000 H   0  0  0  0  0  0  0  0  0  0  0  0
    5.7104   -0.9727    0.0000 H   0  0  0  0  0  0  0  0  0  0  0  0
    6.1874   -0.4311    0.0000 H   0  0  0  0  0  0  0  0  0  0  0  0
    6.0503    0.4349    0.0000 H   0  0  0  0  0  0  0  0  0  0  0  0
    5.1843    0.2977    0.0000 H   0  0  0  0  0  0  0  0  0  0  0  0
    3.9328    4.3317    0.0000 H   0  0  0  0  0  0  0  0  0  0  0  0
    6.4962    3.1904    0.0000 H   0  0  0  0  0  0  0  0  0  0  0  0
    6.0010   -3.6046    0.0000 H   0  0  0  0  0  0  0  0  0  0  0  0
    4.5918    5.8116    0.0000 H   0  0  0  0  0  0  0  0  0  0  0  0
    7.1551    4.6704    0.0000 H   0  0  0  0  0  0  0  0  0  0  0  0
    6.2029    5.9810    0.0000 H   0  0  0  0  0  0  0  0  0  0  0  0
    3.1951   -5.2246    0.0000 H   0  0  0  0  0  0  0  0  0  0  0  0
    4.5981   -6.0346    0.0000 H   0  0  0  0  0  0  0  0  0  0  0  0
    1.6900   -3.3776    0.0000 H   0  0  0  0  0  0  0  0  0  0  0  0
    1.4631   -4.2246    0.0000 H   0  0  0  0  0  0  0  0  0  0  0  0
    2.3100   -4.4515    0.0000 H   0  0  0  0  0  0  0  0  0  0  0  0
  1 26  1  0  0  0  0
  2 13  1  0  0  0  0
  2 16  1  0  0  0  0
  3 20  1  0  0  0  0
  3 28  1  0  0  0  0
  4  7  1  0  0  0  0
  4  9  1  0  0  0  0
  4 10  1  0  0  0  0
  5 11  1  0  0  0  0
  5 12  1  0  0  0  0
  5 14  1  0  0  0  0
  6  8  1  0  0  0  0
  6 16  2  0  0  0  0
  8  7  1  1  0  0  0
  7 29  1  0  0  0  0
  7 30  1  0  0  0  0
  8 13  1  0  0  0  0
  8 31  1  0  0  0  0
  9 11  1  0  0  0  0
  9 32  1  0  0  0  0
  9 33  1  0  0  0  0
 10 12  1  0  0  0  0
 10 34  1  0  0  0  0
 10 35  1  0  0  0  0
 11 36  1  0  0  0  0
 11 37  1  0  0  0  0
 12 38  1  0  0  0  0
 12 39  1  0  0  0  0
 13 15  1  1  0  0  0
 13 40  1  0  0  0  0
 14 18  2  0  0  0  0
 14 19  1  0  0  0  0
 15 41  1  0  0  0  0
 15 42  1  0  0  0  0
 15 43  1  0  0  0  0
 16 17  1  0  0  0  0
 17 20  2  0  0  0  0
 17 21  1  0  0  0  0
 18 22  1  0  0  0  0
 18 44  1  0  0  0  0
 19 23  2  0  0  0  0
 19 45  1  0  0  0  0
 20 25  1  0  0  0  0
 21 26  2  0  0  0  0
 21 46  1  0  0  0  0
 22 24  2  0  0  0  0
 22 47  1  0  0  0  0
 23 24  1  0  0  0  0
 23 48  1  0  0  0  0
 24 49  1  0  0  0  0
 25 27  2  0  0  0  0
 25 50  1  0  0  0  0
 26 27  1  0  0  0  0
 27 51  1  0  0  0  0
 28 52  1  0  0  0  0
 28 53  1  0  0  0  0
 28 54  1  0  0  0  0
M  END
> <PUBCHEM_COMPOUND_CID>
44319370

> <PUBCHEM_COMPOUND_CANONICALIZED>
1

> <PUBCHEM_CACTVS_COMPLEXITY>
532

> <PUBCHEM_CACTVS_HBOND_ACCEPTOR>
5

> <PUBCHEM_CACTVS_HBOND_DONOR>
0

> <PUBCHEM_CACTVS_ROTATABLE_BOND>
5

> <PUBCHEM_CACTVS_SUBSKEYS>
AAADceB7MAAAEAAAAAAAAAAAAAAAAQAAAAA8YIAAAAAAAAABQAAAHgBAAAABrDzhmAYyxoMABACgAiRiRACCCAAhIgQIiAAubLgOZ6LEsZuXMChnwBHI6heQwCAOABAAEAAIAAAAIAAgABAAAAAAAAAAAA==

> <PUBCHEM_IUPAC_OPENEYE_NAME>
(4S,5R)-2-(5-bromo-2-methoxy-phenyl)-5-methyl-4-[(4-phenylpiperazin-1-yl)methyl]-4,5-dihydrooxazole

> <PUBCHEM_IUPAC_CAS_NAME>
(4S,5R)-2-(5-bromo-2-methoxyphenyl)-5-methyl-4-[(4-phenyl-1-piperazinyl)methyl]-4,5-dihydrooxazole

> <PUBCHEM_IUPAC_NAME_MARKUP>
(4<I>S</I>,5<I>R</I>)-2-(5-bromo-2-methoxyphenyl)-5-methyl-4-[(4-phenylpiperazin-1-yl)methyl]-4,5-dihydro-1,3-oxazole

> <PUBCHEM_IUPAC_NAME>
(4S,5R)-2-(5-bromo-2-methoxyphenyl)-5-methyl-4-[(4-phenylpiperazin-1-yl)methyl]-4,5-dihydro-1,3-oxazole

> <PUBCHEM_IUPAC_SYSTEMATIC_NAME>
(4S,5R)-2-(5-bromanyl-2-methoxy-phenyl)-5-methyl-4-[(4-phenylpiperazin-1-yl)methyl]-4,5-dihydro-1,3-oxazole

> <PUBCHEM_IUPAC_TRADITIONAL_NAME>
(4S,5R)-2-(5-bromo-2-methoxy-phenyl)-5-methyl-4-[(4-phenylpiperazino)methyl]-2-oxazoline

> <PUBCHEM_IUPAC_INCHI>
InChI=1S/C22H26BrN3O2/c1-16-20(24-22(28-16)19-14-17(23)8-9-21(19)27-2)15-25-10-12-26(13-11-25)18-6-4-3-5-7-18/h3-9,14,16,20H,10-13,15H2,1-2H3/t16-,20+/m1/s1

> <PUBCHEM_IUPAC_INCHIKEY>
XHTCEJWQQIHAOR-UZLBHIALSA-N

> <PUBCHEM_XLOGP3_AA>
4.2

> <PUBCHEM_EXACT_MASS>
443.12084

> <PUBCHEM_MOLECULAR_FORMULA>
C22H26BrN3O2

> <PUBCHEM_MOLECULAR_WEIGHT>
444.4

> <PUBCHEM_OPENEYE_CAN_SMILES>
CC1C(N=C(O1)C2=C(C=CC(=C2)Br)OC)CN3CCN(CC3)C4=CC=CC=C4

> <PUBCHEM_OPENEYE_ISO_SMILES>
C[C@@H]1[C@@H](N=C(O1)C2=C(C=CC(=C2)Br)OC)CN3CCN(CC3)C4=CC=CC=C4

> <PUBCHEM_CACTVS_TPSA>
37.3

> <PUBCHEM_MONOISOTOPIC_WEIGHT>
443.12084

> <PUBCHEM_TOTAL_CHARGE>
0

> <PUBCHEM_HEAVY_ATOM_COUNT>
28

> <PUBCHEM_ATOM_DEF_STEREO_COUNT>
2

> <PUBCHEM_ATOM_UDEF_STEREO_COUNT>
0

> <PUBCHEM_BOND_DEF_STEREO_COUNT>
0

> <PUBCHEM_BOND_UDEF_STEREO_COUNT>
0

> <PUBCHEM_ISOTOPIC_ATOM_COUNT>
0

> <PUBCHEM_COMPONENT_COUNT>
1

> <PUBCHEM_CACTVS_TAUTO_COUNT>
-1

> <PUBCHEM_COORDINATE_TYPE>
1
5
255

> <PUBCHEM_BONDANNOTATIONS>
13  15  5
14  18  8
14  19  8
17  20  8
17  21  8
18  22  8
19  23  8
20  25  8
21  26  8
22  24  8
23  24  8
25  27  8
26  27  8
8  7  5

$$$$
