45259658
  -OEChem-09292322152D

 73 76  0     0  0  0  0  0  0999 V2000
   10.3348    7.7397    0.0000 Cl  0  0  0  0  0  0  0  0  0  0  0  0
    4.0580   10.2078    0.0000 O   0  0  0  0  0  0  0  0  0  0  0  0
    3.1350    3.6200    0.0000 N   0  0  0  0  0  0  0  0  0  0  0  0
    3.1350    5.6200    0.0000 N   0  0  0  0  0  0  0  0  0  0  0  0
    4.3671   11.1588    0.0000 N   0  0  0  0  0  0  0  0  0  0  0  0
    2.2690    4.1200    0.0000 C   0  0  0  0  0  0  0  0  0  0  0  0
    4.0010    4.1200    0.0000 C   0  0  0  0  0  0  0  0  0  0  0  0
    2.2690    5.1200    0.0000 C   0  0  0  0  0  0  0  0  0  0  0  0
    4.0010    5.1200    0.0000 C   0  0  0  0  0  0  0  0  0  0  0  0
    3.1350    2.6200    0.0000 C   0  0  0  0  0  0  0  0  0  0  0  0
    3.1350    6.6200    0.0000 C   0  0  0  0  0  0  0  0  0  0  0  0
    4.0010    7.1200    0.0000 C   0  0  0  0  0  0  0  0  0  0  0  0
    2.2690    2.1200    0.0000 C   0  0  0  0  0  0  0  0  0  0  0  0
    4.0010    2.1200    0.0000 C   0  0  0  0  0  0  0  0  0  0  0  0
    4.0010    8.1200    0.0000 C   0  0  0  0  0  0  0  0  0  0  0  0
    4.8671    8.6200    0.0000 C   0  0  0  0  0  0  0  0  0  0  0  0
    2.2690    1.1200    0.0000 C   0  0  0  0  0  0  0  0  0  0  0  0
    4.8671    2.6200    0.0000 C   0  0  0  0  0  0  0  0  0  0  0  0
    1.4030    2.6200    0.0000 C   0  0  0  0  0  0  0  0  0  0  0  0
    4.0010    1.1200    0.0000 C   0  0  0  0  0  0  0  0  0  0  0  0
    1.4030    0.6200    0.0000 C   0  0  0  0  0  0  0  0  0  0  0  0
    5.7331    2.1200    0.0000 C   0  0  0  0  0  0  0  0  0  0  0  0
    0.5369    2.1200    0.0000 C   0  0  0  0  0  0  0  0  0  0  0  0
    4.8671    0.6200    0.0000 C   0  0  0  0  0  0  0  0  0  0  0  0
    4.8671    9.6200    0.0000 C   0  0  0  0  0  0  0  0  0  0  0  0
    0.5369    1.1200    0.0000 C   0  0  0  0  0  0  0  0  0  0  0  0
    5.7331    1.1200    0.0000 C   0  0  0  0  0  0  0  0  0  0  0  0
    5.6761   10.2078    0.0000 C   0  0  0  0  0  0  0  0  0  0  0  0
    5.3671   11.1588    0.0000 C   0  0  0  0  0  0  0  0  0  0  0  0
    5.9549   11.9679    0.0000 C   0  0  0  0  0  0  0  0  0  0  0  0
    5.5481   12.8814    0.0000 C   0  0  0  0  0  0  0  0  0  0  0  0
    6.1359   13.6904    0.0000 C   0  0  0  0  0  0  0  0  0  0  0  0
    7.1304   13.5859    0.0000 C   0  0  0  0  0  0  0  0  0  0  0  0
    5.7292   14.6040    0.0000 C   0  0  0  0  0  0  0  0  0  0  0  0
    7.7182   14.3949    0.0000 C   0  0  0  0  0  0  0  0  0  0  0  0
    6.3170   15.4130    0.0000 C   0  0  0  0  0  0  0  0  0  0  0  0
    7.3115   15.3085    0.0000 C   0  0  0  0  0  0  0  0  0  0  0  0
    1.6584    4.2277    0.0000 H   0  0  0  0  0  0  0  0  0  0  0  0
    2.0569    3.5374    0.0000 H   0  0  0  0  0  0  0  0  0  0  0  0
    4.2131    3.5374    0.0000 H   0  0  0  0  0  0  0  0  0  0  0  0
    4.6116    4.2277    0.0000 H   0  0  0  0  0  0  0  0  0  0  0  0
    2.0569    5.7026    0.0000 H   0  0  0  0  0  0  0  0  0  0  0  0
    1.6584    5.0123    0.0000 H   0  0  0  0  0  0  0  0  0  0  0  0
    4.6116    5.0123    0.0000 H   0  0  0  0  0  0  0  0  0  0  0  0
    4.2131    5.7026    0.0000 H   0  0  0  0  0  0  0  0  0  0  0  0
    3.1350    2.0000    0.0000 H   0  0  0  0  0  0  0  0  0  0  0  0
    2.9230    7.2026    0.0000 H   0  0  0  0  0  0  0  0  0  0  0  0
    2.5244    6.5123    0.0000 H   0  0  0  0  0  0  0  0  0  0  0  0
    4.2131    6.5374    0.0000 H   0  0  0  0  0  0  0  0  0  0  0  0
    4.6116    7.2277    0.0000 H   0  0  0  0  0  0  0  0  0  0  0  0
    3.7890    8.7026    0.0000 H   0  0  0  0  0  0  0  0  0  0  0  0
    3.3905    8.0123    0.0000 H   0  0  0  0  0  0  0  0  0  0  0  0
    5.0791    8.0374    0.0000 H   0  0  0  0  0  0  0  0  0  0  0  0
    5.4776    8.7277    0.0000 H   0  0  0  0  0  0  0  0  0  0  0  0
    2.8059    0.8100    0.0000 H   0  0  0  0  0  0  0  0  0  0  0  0
    4.8671    3.2400    0.0000 H   0  0  0  0  0  0  0  0  0  0  0  0
    1.4030    3.2400    0.0000 H   0  0  0  0  0  0  0  0  0  0  0  0
    3.4641    0.8100    0.0000 H   0  0  0  0  0  0  0  0  0  0  0  0
    1.4030    0.0000    0.0000 H   0  0  0  0  0  0  0  0  0  0  0  0
    6.2700    2.4300    0.0000 H   0  0  0  0  0  0  0  0  0  0  0  0
    0.0000    2.4300    0.0000 H   0  0  0  0  0  0  0  0  0  0  0  0
    4.8671    0.0000    0.0000 H   0  0  0  0  0  0  0  0  0  0  0  0
    0.0000    0.8100    0.0000 H   0  0  0  0  0  0  0  0  0  0  0  0
    6.2700    0.8100    0.0000 H   0  0  0  0  0  0  0  0  0  0  0  0
    6.2657   10.0162    0.0000 H   0  0  0  0  0  0  0  0  0  0  0  0
    6.5714   11.9031    0.0000 H   0  0  0  0  0  0  0  0  0  0  0  0
    4.9315   12.9462    0.0000 H   0  0  0  0  0  0  0  0  0  0  0  0
    7.3826   13.0195    0.0000 H   0  0  0  0  0  0  0  0  0  0  0  0
    5.1126   14.6688    0.0000 H   0  0  0  0  0  0  0  0  0  0  0  0
    8.3348   14.3301    0.0000 H   0  0  0  0  0  0  0  0  0  0  0  0
    6.0648   15.9794    0.0000 H   0  0  0  0  0  0  0  0  0  0  0  0
    7.6759   15.8100    0.0000 H   0  0  0  0  0  0  0  0  0  0  0  0
   11.3348    7.7397    0.0000 H   0  0  0  0  0  0  0  0  0  0  0  0
  1 73  1  0  0  0  0
  2  5  1  0  0  0  0
  2 25  1  0  0  0  0
  3  6  1  0  0  0  0
  3  7  1  0  0  0  0
  3 10  1  0  0  0  0
  4  8  1  0  0  0  0
  4  9  1  0  0  0  0
  4 11  1  0  0  0  0
  5 29  2  0  0  0  0
  6  8  1  0  0  0  0
  6 38  1  0  0  0  0
  6 39  1  0  0  0  0
  7  9  1  0  0  0  0
  7 40  1  0  0  0  0
  7 41  1  0  0  0  0
  8 42  1  0  0  0  0
  8 43  1  0  0  0  0
  9 44  1  0  0  0  0
  9 45  1  0  0  0  0
 10 13  1  0  0  0  0
 10 14  1  0  0  0  0
 10 46  1  0  0  0  0
 11 12  1  0  0  0  0
 11 47  1  0  0  0  0
 11 48  1  0  0  0  0
 12 15  1  0  0  0  0
 12 49  1  0  0  0  0
 12 50  1  0  0  0  0
 13 17  2  0  0  0  0
 13 19  1  0  0  0  0
 14 18  2  0  0  0  0
 14 20  1  0  0  0  0
 15 16  1  0  0  0  0
 15 51  1  0  0  0  0
 15 52  1  0  0  0  0
 16 25  1  0  0  0  0
 16 53  1  0  0  0  0
 16 54  1  0  0  0  0
 17 21  1  0  0  0  0
 17 55  1  0  0  0  0
 18 22  1  0  0  0  0
 18 56  1  0  0  0  0
 19 23  2  0  0  0  0
 19 57  1  0  0  0  0
 20 24  2  0  0  0  0
 20 58  1  0  0  0  0
 21 26  2  0  0  0  0
 21 59  1  0  0  0  0
 22 27  2  0  0  0  0
 22 60  1  0  0  0  0
 23 26  1  0  0  0  0
 23 61  1  0  0  0  0
 24 27  1  0  0  0  0
 24 62  1  0  0  0  0
 25 28  2  0  0  0  0
 26 63  1  0  0  0  0
 27 64  1  0  0  0  0
 28 29  1  0  0  0  0
 28 65  1  0  0  0  0
 29 30  1  0  0  0  0
 30 31  2  0  0  0  0
 30 66  1  0  0  0  0
 31 32  1  0  0  0  0
 31 67  1  0  0  0  0
 32 33  2  0  0  0  0
 32 34  1  0  0  0  0
 33 35  1  0  0  0  0
 33 68  1  0  0  0  0
 34 36  2  0  0  0  0
 34 69  1  0  0  0  0
 35 37  2  0  0  0  0
 35 70  1  0  0  0  0
 36 37  1  0  0  0  0
 36 71  1  0  0  0  0
 37 72  1  0  0  0  0
M  END
> <PUBCHEM_COMPOUND_CID>
45259658

> <PUBCHEM_COMPOUND_CANONICALIZED>
1

> <PUBCHEM_CACTVS_COMPLEXITY>
609

> <PUBCHEM_CACTVS_HBOND_ACCEPTOR>
4

> <PUBCHEM_CACTVS_HBOND_DONOR>
1

> <PUBCHEM_CACTVS_ROTATABLE_BOND>
10

> <PUBCHEM_CACTVS_SUBSKEYS>
AAADcfB/IAAEAAAAAAAAAAAAAAAAAWAAAAA8YMEAAAAAAAAB1AAAHgAEAAAADCzBngQwhJMQAACpA6RyQgCCAAAkIgAomCE+bNoIZjqAkZOUMYhmgBiIyUeYkcIOAAAAAAAAAAAAAAAAAAAAAAAAAAAAAA==

> <PUBCHEM_IUPAC_OPENEYE_NAME>
5-[4-(4-benzhydrylpiperazin-1-yl)butyl]-3-[(E)-styryl]isoxazole;hydrochloride

> <PUBCHEM_IUPAC_CAS_NAME>
5-[4-[4-(diphenylmethyl)-1-piperazinyl]butyl]-3-[(E)-2-phenylethenyl]isoxazole;hydrochloride

> <PUBCHEM_IUPAC_NAME_MARKUP>
5-[4-(4-benzhydrylpiperazin-1-yl)butyl]-3-[(<I>E</I>)-2-phenylethenyl]-1,2-oxazole;hydrochloride

> <PUBCHEM_IUPAC_NAME>
5-[4-(4-benzhydrylpiperazin-1-yl)butyl]-3-[(E)-2-phenylethenyl]-1,2-oxazole;hydrochloride

> <PUBCHEM_IUPAC_SYSTEMATIC_NAME>
5-[4-[4-(diphenylmethyl)piperazin-1-yl]butyl]-3-[(E)-2-phenylethenyl]-1,2-oxazole;hydrochloride

> <PUBCHEM_IUPAC_TRADITIONAL_NAME>
5-[4-(4-benzhydrylpiperazino)butyl]-3-[(E)-styryl]isoxazole;hydrochloride

> <PUBCHEM_IUPAC_INCHI>
InChI=1S/C32H35N3O.ClH/c1-4-12-27(13-5-1)19-20-30-26-31(36-33-30)18-10-11-21-34-22-24-35(25-23-34)32(28-14-6-2-7-15-28)29-16-8-3-9-17-29;/h1-9,12-17,19-20,26,32H,10-11,18,21-25H2;1H/b20-19+;

> <PUBCHEM_IUPAC_INCHIKEY>
PZPTVQNVGDIBHE-RZLHGTIFSA-N

> <PUBCHEM_EXACT_MASS>
513.2546905

> <PUBCHEM_MOLECULAR_FORMULA>
C32H36ClN3O

> <PUBCHEM_MOLECULAR_WEIGHT>
514.1

> <PUBCHEM_OPENEYE_CAN_SMILES>
C1CN(CCN1CCCCC2=CC(=NO2)C=CC3=CC=CC=C3)C(C4=CC=CC=C4)C5=CC=CC=C5.Cl

> <PUBCHEM_OPENEYE_ISO_SMILES>
C1CN(CCN1CCCCC2=CC(=NO2)/C=C/C3=CC=CC=C3)C(C4=CC=CC=C4)C5=CC=CC=C5.Cl

> <PUBCHEM_CACTVS_TPSA>
32.5

> <PUBCHEM_MONOISOTOPIC_WEIGHT>
513.2546905

> <PUBCHEM_TOTAL_CHARGE>
0

> <PUBCHEM_HEAVY_ATOM_COUNT>
37

> <PUBCHEM_ATOM_DEF_STEREO_COUNT>
0

> <PUBCHEM_ATOM_UDEF_STEREO_COUNT>
0

> <PUBCHEM_BOND_DEF_STEREO_COUNT>
1

> <PUBCHEM_BOND_UDEF_STEREO_COUNT>
0

> <PUBCHEM_ISOTOPIC_ATOM_COUNT>
0

> <PUBCHEM_COMPONENT_COUNT>
2

> <PUBCHEM_CACTVS_TAUTO_COUNT>
-1

> <PUBCHEM_COORDINATE_TYPE>
1
5
255

> <PUBCHEM_BONDANNOTATIONS>
13  17  8
13  19  8
14  18  8
14  20  8
17  21  8
18  22  8
19  23  8
2  25  8
2  5  8
20  24  8
21  26  8
22  27  8
23  26  8
24  27  8
25  28  8
28  29  8
32  33  8
32  34  8
33  35  8
34  36  8
35  37  8
36  37  8
5  29  8

$$$$
