49782600
  -OEChem-09292322312D

 55 57  0     0  0  0  0  0  0999 V2000
    2.8660   -6.2320    0.0000 F   0  0  0  0  0  0  0  0  0  0  0  0
    4.0981    3.6340    0.0000 O   0  0  0  0  0  0  0  0  0  0  0  0
    2.0000   -1.7320    0.0000 O   0  0  0  0  0  0  0  0  0  0  0  0
    4.5981    0.7679    0.0000 N   0  0  0  0  0  0  0  0  0  0  0  0
    4.5981    2.7680    0.0000 C   0  0  0  0  0  0  0  0  0  0  0  0
    5.4641    2.2680    0.0000 C   0  0  0  0  0  0  0  0  0  0  0  0
    3.7320    2.2680    0.0000 C   0  0  0  0  0  0  0  0  0  0  0  0
    5.4641    1.2680    0.0000 C   0  0  0  0  0  0  0  0  0  0  0  0
    3.7320    1.2680    0.0000 C   0  0  0  0  0  0  0  0  0  0  0  0
    5.0981    3.6340    0.0000 C   0  0  0  0  0  0  0  0  0  0  0  0
    4.5981   -0.2321    0.0000 C   0  0  0  0  0  0  0  0  0  0  0  0
    3.7320   -0.7321    0.0000 C   0  0  0  0  0  0  0  0  0  0  0  0
    6.0981    3.6340    0.0000 C   0  0  0  0  0  0  0  0  0  0  0  0
    4.5981    4.5000    0.0000 C   0  0  0  0  0  0  0  0  0  0  0  0
    3.7320   -1.7320    0.0000 C   0  0  0  0  0  0  0  0  0  0  0  0
    5.0981    5.3660    0.0000 C   0  0  0  0  0  0  0  0  0  0  0  0
    6.5981    4.5000    0.0000 C   0  0  0  0  0  0  0  0  0  0  0  0
    6.5981    2.7680    0.0000 C   0  0  0  0  0  0  0  0  0  0  0  0
    6.0981    5.3660    0.0000 C   0  0  0  0  0  0  0  0  0  0  0  0
    4.5981    6.2320    0.0000 C   0  0  0  0  0  0  0  0  0  0  0  0
    2.8660   -2.2320    0.0000 C   0  0  0  0  0  0  0  0  0  0  0  0
    2.8660   -3.2320    0.0000 C   0  0  0  0  0  0  0  0  0  0  0  0
    2.0000   -3.7320    0.0000 C   0  0  0  0  0  0  0  0  0  0  0  0
    3.7320   -3.7320    0.0000 C   0  0  0  0  0  0  0  0  0  0  0  0
    2.0000   -4.7320    0.0000 C   0  0  0  0  0  0  0  0  0  0  0  0
    3.7320   -4.7320    0.0000 C   0  0  0  0  0  0  0  0  0  0  0  0
    2.8660   -5.2320    0.0000 C   0  0  0  0  0  0  0  0  0  0  0  0
    6.0747    2.1603    0.0000 H   0  0  0  0  0  0  0  0  0  0  0  0
    5.6762    2.8506    0.0000 H   0  0  0  0  0  0  0  0  0  0  0  0
    3.5200    2.8506    0.0000 H   0  0  0  0  0  0  0  0  0  0  0  0
    3.1215    2.1603    0.0000 H   0  0  0  0  0  0  0  0  0  0  0  0
    5.6762    0.6853    0.0000 H   0  0  0  0  0  0  0  0  0  0  0  0
    6.0747    1.3756    0.0000 H   0  0  0  0  0  0  0  0  0  0  0  0
    3.1215    1.3756    0.0000 H   0  0  0  0  0  0  0  0  0  0  0  0
    3.5200    0.6853    0.0000 H   0  0  0  0  0  0  0  0  0  0  0  0
    4.8101   -0.8147    0.0000 H   0  0  0  0  0  0  0  0  0  0  0  0
    5.2087   -0.1244    0.0000 H   0  0  0  0  0  0  0  0  0  0  0  0
    3.5200   -0.1494    0.0000 H   0  0  0  0  0  0  0  0  0  0  0  0
    3.1215   -0.8397    0.0000 H   0  0  0  0  0  0  0  0  0  0  0  0
    3.4781    3.6340    0.0000 H   0  0  0  0  0  0  0  0  0  0  0  0
    3.9781    4.5000    0.0000 H   0  0  0  0  0  0  0  0  0  0  0  0
    3.9441   -2.3147    0.0000 H   0  0  0  0  0  0  0  0  0  0  0  0
    4.3426   -1.6244    0.0000 H   0  0  0  0  0  0  0  0  0  0  0  0
    7.2181    4.5000    0.0000 H   0  0  0  0  0  0  0  0  0  0  0  0
    6.0611    2.4580    0.0000 H   0  0  0  0  0  0  0  0  0  0  0  0
    6.9081    2.2310    0.0000 H   0  0  0  0  0  0  0  0  0  0  0  0
    7.1350    3.0780    0.0000 H   0  0  0  0  0  0  0  0  0  0  0  0
    6.4081    5.9030    0.0000 H   0  0  0  0  0  0  0  0  0  0  0  0
    5.1350    6.5420    0.0000 H   0  0  0  0  0  0  0  0  0  0  0  0
    4.2881    6.7690    0.0000 H   0  0  0  0  0  0  0  0  0  0  0  0
    4.0611    5.9220    0.0000 H   0  0  0  0  0  0  0  0  0  0  0  0
    1.4631   -3.4220    0.0000 H   0  0  0  0  0  0  0  0  0  0  0  0
    4.2690   -3.4220    0.0000 H   0  0  0  0  0  0  0  0  0  0  0  0
    1.4631   -5.0420    0.0000 H   0  0  0  0  0  0  0  0  0  0  0  0
    4.2690   -5.0420    0.0000 H   0  0  0  0  0  0  0  0  0  0  0  0
  1 27  1  0  0  0  0
  2  5  1  0  0  0  0
  2 40  1  0  0  0  0
  3 21  2  0  0  0  0
  4  8  1  0  0  0  0
  4  9  1  0  0  0  0
  4 11  1  0  0  0  0
  5  6  1  0  0  0  0
  5  7  1  0  0  0  0
  5 10  1  0  0  0  0
  6  8  1  0  0  0  0
  6 28  1  0  0  0  0
  6 29  1  0  0  0  0
  7  9  1  0  0  0  0
  7 30  1  0  0  0  0
  7 31  1  0  0  0  0
  8 32  1  0  0  0  0
  8 33  1  0  0  0  0
  9 34  1  0  0  0  0
  9 35  1  0  0  0  0
 10 13  2  0  0  0  0
 10 14  1  0  0  0  0
 11 12  1  0  0  0  0
 11 36  1  0  0  0  0
 11 37  1  0  0  0  0
 12 15  1  0  0  0  0
 12 38  1  0  0  0  0
 12 39  1  0  0  0  0
 13 17  1  0  0  0  0
 13 18  1  0  0  0  0
 14 16  2  0  0  0  0
 14 41  1  0  0  0  0
 15 21  1  0  0  0  0
 15 42  1  0  0  0  0
 15 43  1  0  0  0  0
 16 19  1  0  0  0  0
 16 20  1  0  0  0  0
 17 19  2  0  0  0  0
 17 44  1  0  0  0  0
 18 45  1  0  0  0  0
 18 46  1  0  0  0  0
 18 47  1  0  0  0  0
 19 48  1  0  0  0  0
 20 49  1  0  0  0  0
 20 50  1  0  0  0  0
 20 51  1  0  0  0  0
 21 22  1  0  0  0  0
 22 23  2  0  0  0  0
 22 24  1  0  0  0  0
 23 25  1  0  0  0  0
 23 52  1  0  0  0  0
 24 26  2  0  0  0  0
 24 53  1  0  0  0  0
 25 27  2  0  0  0  0
 25 54  1  0  0  0  0
 26 27  1  0  0  0  0
 26 55  1  0  0  0  0
M  END
> <PUBCHEM_COMPOUND_CID>
49782600

> <PUBCHEM_COMPOUND_CANONICALIZED>
1

> <PUBCHEM_CACTVS_COMPLEXITY>
481

> <PUBCHEM_CACTVS_HBOND_ACCEPTOR>
4

> <PUBCHEM_CACTVS_HBOND_DONOR>
1

> <PUBCHEM_CACTVS_ROTATABLE_BOND>
6

> <PUBCHEM_CACTVS_SUBSKEYS>
AAADceB6MQAAAAAAAAAAAAAAAAAAAAAAAAA8YIAAAAAAAAABQAAAHwAACAAADETBmAwyAIMAAgCIAqBSAAACAAAkAAAIiAEICMgIJjKAlRCEcQAmwAGImYecyOCOwAACAAAQAACAAAQAACAAAAAAAAAAAA==

> <PUBCHEM_IUPAC_OPENEYE_NAME>
4-[4-(2,5-dimethylphenyl)-4-hydroxy-1-piperidyl]-1-(4-fluorophenyl)butan-1-one

> <PUBCHEM_IUPAC_CAS_NAME>
4-[4-(2,5-dimethylphenyl)-4-hydroxy-1-piperidinyl]-1-(4-fluorophenyl)-1-butanone

> <PUBCHEM_IUPAC_NAME_MARKUP>
4-[4-(2,5-dimethylphenyl)-4-hydroxypiperidin-1-yl]-1-(4-fluorophenyl)butan-1-one

> <PUBCHEM_IUPAC_NAME>
4-[4-(2,5-dimethylphenyl)-4-hydroxypiperidin-1-yl]-1-(4-fluorophenyl)butan-1-one

> <PUBCHEM_IUPAC_SYSTEMATIC_NAME>
4-[4-(2,5-dimethylphenyl)-4-oxidanyl-piperidin-1-yl]-1-(4-fluorophenyl)butan-1-one

> <PUBCHEM_IUPAC_TRADITIONAL_NAME>
4-[4-(2,5-dimethylphenyl)-4-hydroxy-piperidino]-1-(4-fluorophenyl)butan-1-one

> <PUBCHEM_IUPAC_INCHI>
InChI=1S/C23H28FNO2/c1-17-5-6-18(2)21(16-17)23(27)11-14-25(15-12-23)13-3-4-22(26)19-7-9-20(24)10-8-19/h5-10,16,27H,3-4,11-15H2,1-2H3

> <PUBCHEM_IUPAC_INCHIKEY>
ZRBHAKYJDKFUAO-UHFFFAOYSA-N

> <PUBCHEM_XLOGP3>
3.3

> <PUBCHEM_EXACT_MASS>
369.21040730

> <PUBCHEM_MOLECULAR_FORMULA>
C23H28FNO2

> <PUBCHEM_MOLECULAR_WEIGHT>
369.5

> <PUBCHEM_OPENEYE_CAN_SMILES>
CC1=CC(=C(C=C1)C)C2(CCN(CC2)CCCC(=O)C3=CC=C(C=C3)F)O

> <PUBCHEM_OPENEYE_ISO_SMILES>
CC1=CC(=C(C=C1)C)C2(CCN(CC2)CCCC(=O)C3=CC=C(C=C3)F)O

> <PUBCHEM_CACTVS_TPSA>
40.5

> <PUBCHEM_MONOISOTOPIC_WEIGHT>
369.21040730

> <PUBCHEM_TOTAL_CHARGE>
0

> <PUBCHEM_HEAVY_ATOM_COUNT>
27

> <PUBCHEM_ATOM_DEF_STEREO_COUNT>
0

> <PUBCHEM_ATOM_UDEF_STEREO_COUNT>
0

> <PUBCHEM_BOND_DEF_STEREO_COUNT>
0

> <PUBCHEM_BOND_UDEF_STEREO_COUNT>
0

> <PUBCHEM_ISOTOPIC_ATOM_COUNT>
0

> <PUBCHEM_COMPONENT_COUNT>
1

> <PUBCHEM_CACTVS_TAUTO_COUNT>
-1

> <PUBCHEM_COORDINATE_TYPE>
1
5
255

> <PUBCHEM_BONDANNOTATIONS>
10  13  8
10  14  8
13  17  8
14  16  8
16  19  8
17  19  8
22  23  8
22  24  8
23  25  8
24  26  8
25  27  8
26  27  8

$$$$
