10780928
  -OEChem-09292322102D

 44 46  0     1  0  0  0  0  0999 V2000
    3.8936   -1.4832    0.0000 S   0  0  0  0  0  0  0  0  0  0  0  0
    7.4819   -1.2811    0.0000 O   0  0  0  0  0  0  0  0  0  0  0  0
    6.5840    1.2813    0.0000 N   0  0  0  0  0  0  0  0  0  0  0  0
    3.8936   -3.0927    0.0000 N   0  0  0  0  0  0  0  0  0  0  0  0
    2.3100   -2.2880    0.0000 N   0  0  0  0  0  0  0  0  0  0  0  0
    6.5878    0.2813    0.0000 C   0  0  3  0  0  0  0  0  0  0  0  0
    5.6898   -0.2464    0.0000 C   0  0  0  0  0  0  0  0  0  0  0  0
    7.4899   -0.2395    0.0000 C   0  0  0  0  0  0  0  0  0  0  0  0
    5.7058   -1.2880    0.0000 C   0  0  0  0  0  0  0  0  0  0  0  0
    7.4481    1.7846    0.0000 C   0  0  0  0  0  0  0  0  0  0  0  0
    5.7160    1.7780    0.0000 C   0  0  0  0  0  0  0  0  0  0  0  0
    6.5719   -1.7880    0.0000 C   0  0  0  0  0  0  0  0  0  0  0  0
    7.4442    2.7846    0.0000 C   0  0  0  0  0  0  0  0  0  0  0  0
    5.7122    2.7780    0.0000 C   0  0  0  0  0  0  0  0  0  0  0  0
    4.8398   -1.7880    0.0000 C   0  0  0  0  0  0  0  0  0  0  0  0
    6.5719   -2.7880    0.0000 C   0  0  0  0  0  0  0  0  0  0  0  0
    4.8398   -2.7880    0.0000 C   0  0  0  0  0  0  0  0  0  0  0  0
    5.7058   -3.2880    0.0000 C   0  0  0  0  0  0  0  0  0  0  0  0
    8.3083    3.2880    0.0000 C   0  0  0  0  0  0  0  0  0  0  0  0
    4.8442    3.2746    0.0000 C   0  0  0  0  0  0  0  0  0  0  0  0
    3.3100   -2.2880    0.0000 C   0  0  0  0  0  0  0  0  0  0  0  0
    6.0491    0.5882    0.0000 H   0  0  0  0  0  0  0  0  0  0  0  0
    5.4718    0.3339    0.0000 H   0  0  0  0  0  0  0  0  0  0  0  0
    5.0806   -0.3619    0.0000 H   0  0  0  0  0  0  0  0  0  0  0  0
    8.0999   -0.3503    0.0000 H   0  0  0  0  0  0  0  0  0  0  0  0
    7.7035    0.3426    0.0000 H   0  0  0  0  0  0  0  0  0  0  0  0
    7.6624    1.2028    0.0000 H   0  0  0  0  0  0  0  0  0  0  0  0
    8.0582    1.8946    0.0000 H   0  0  0  0  0  0  0  0  0  0  0  0
    5.1050    1.8833    0.0000 H   0  0  0  0  0  0  0  0  0  0  0  0
    5.5062    1.1945    0.0000 H   0  0  0  0  0  0  0  0  0  0  0  0
    7.2299    3.3664    0.0000 H   0  0  0  0  0  0  0  0  0  0  0  0
    6.8340    2.6746    0.0000 H   0  0  0  0  0  0  0  0  0  0  0  0
    6.3232    2.6726    0.0000 H   0  0  0  0  0  0  0  0  0  0  0  0
    5.9220    3.3614    0.0000 H   0  0  0  0  0  0  0  0  0  0  0  0
    7.1088   -3.0980    0.0000 H   0  0  0  0  0  0  0  0  0  0  0  0
    5.7058   -3.9080    0.0000 H   0  0  0  0  0  0  0  0  0  0  0  0
    8.6204    2.7522    0.0000 H   0  0  0  0  0  0  0  0  0  0  0  0
    8.8440    3.6000    0.0000 H   0  0  0  0  0  0  0  0  0  0  0  0
    7.9962    3.8237    0.0000 H   0  0  0  0  0  0  0  0  0  0  0  0
    5.1522    3.8127    0.0000 H   0  0  0  0  0  0  0  0  0  0  0  0
    4.3061    3.5825    0.0000 H   0  0  0  0  0  0  0  0  0  0  0  0
    4.5363    2.7365    0.0000 H   0  0  0  0  0  0  0  0  0  0  0  0
    2.0000   -2.8249    0.0000 H   0  0  0  0  0  0  0  0  0  0  0  0
    2.0000   -1.7510    0.0000 H   0  0  0  0  0  0  0  0  0  0  0  0
  1 15  1  0  0  0  0
  1 21  1  0  0  0  0
  2  8  1  0  0  0  0
  2 12  1  0  0  0  0
  3  6  1  0  0  0  0
  3 10  1  0  0  0  0
  3 11  1  0  0  0  0
  4 17  1  0  0  0  0
  4 21  2  0  0  0  0
  5 21  1  0  0  0  0
  5 43  1  0  0  0  0
  5 44  1  0  0  0  0
  6  7  1  0  0  0  0
  6  8  1  0  0  0  0
  6 22  1  0  0  0  0
  7  9  1  0  0  0  0
  7 23  1  0  0  0  0
  7 24  1  0  0  0  0
  8 25  1  0  0  0  0
  8 26  1  0  0  0  0
  9 12  2  0  0  0  0
  9 15  1  0  0  0  0
 10 13  1  0  0  0  0
 10 27  1  0  0  0  0
 10 28  1  0  0  0  0
 11 14  1  0  0  0  0
 11 29  1  0  0  0  0
 11 30  1  0  0  0  0
 12 16  1  0  0  0  0
 13 19  1  0  0  0  0
 13 31  1  0  0  0  0
 13 32  1  0  0  0  0
 14 20  1  0  0  0  0
 14 33  1  0  0  0  0
 14 34  1  0  0  0  0
 15 17  2  0  0  0  0
 16 18  2  0  0  0  0
 16 35  1  0  0  0  0
 17 18  1  0  0  0  0
 18 36  1  0  0  0  0
 19 37  1  0  0  0  0
 19 38  1  0  0  0  0
 19 39  1  0  0  0  0
 20 40  1  0  0  0  0
 20 41  1  0  0  0  0
 20 42  1  0  0  0  0
M  END
> <PUBCHEM_COMPOUND_CID>
10780928

> <PUBCHEM_COMPOUND_CANONICALIZED>
1

> <PUBCHEM_CACTVS_COMPLEXITY>
338

> <PUBCHEM_CACTVS_HBOND_ACCEPTOR>
5

> <PUBCHEM_CACTVS_HBOND_DONOR>
1

> <PUBCHEM_CACTVS_ROTATABLE_BOND>
5

> <PUBCHEM_CACTVS_SUBSKEYS>
AAADceB7IABAAAAAAAAAAAAAAAAAAWAAAAA0QAAAAAAAAFiR8AAAHgQQAAAADCzh3gYz17NIFAikAyRiZACD+KlhKjkImDQ+bJiOJqLksJuHOCjkwBPY6CewwKAOAEAARAAMAQAAgACIABgCAAAAAAAAAA==

> <PUBCHEM_IUPAC_OPENEYE_NAME>
N8,N8-dipropyl-8,9-dihydro-7H-pyrano[2,3-g][1,3]benzothiazole-2,8-diamine

> <PUBCHEM_IUPAC_CAS_NAME>
N8,N8-dipropyl-8,9-dihydro-7H-pyrano[2,3-g][1,3]benzothiazole-2,8-diamine

> <PUBCHEM_IUPAC_NAME_MARKUP>
8-<I>N</I>,8-<I>N</I>-dipropyl-8,9-dihydro-7<I>H</I>-pyrano[2,3-g][1,3]benzothiazole-2,8-diamine

> <PUBCHEM_IUPAC_NAME>
8-N,8-N-dipropyl-8,9-dihydro-7H-pyrano[2,3-g][1,3]benzothiazole-2,8-diamine

> <PUBCHEM_IUPAC_SYSTEMATIC_NAME>
N8,N8-dipropyl-8,9-dihydro-7H-pyrano[2,3-g][1,3]benzothiazole-2,8-diamine

> <PUBCHEM_IUPAC_TRADITIONAL_NAME>
(2-amino-8,9-dihydro-7H-pyrano[2,3-g][1,3]benzothiazol-8-yl)-dipropyl-amine

> <PUBCHEM_IUPAC_INCHI>
InChI=1S/C16H23N3OS/c1-3-7-19(8-4-2)11-9-12-14(20-10-11)6-5-13-15(12)21-16(17)18-13/h5-6,11H,3-4,7-10H2,1-2H3,(H2,17,18)

> <PUBCHEM_IUPAC_INCHIKEY>
DSJQTHADLDMTRA-UHFFFAOYSA-N

> <PUBCHEM_XLOGP3_AA>
3.9

> <PUBCHEM_EXACT_MASS>
305.15618354

> <PUBCHEM_MOLECULAR_FORMULA>
C16H23N3OS

> <PUBCHEM_MOLECULAR_WEIGHT>
305.4

> <PUBCHEM_OPENEYE_CAN_SMILES>
CCCN(CCC)C1CC2=C(C=CC3=C2SC(=N3)N)OC1

> <PUBCHEM_OPENEYE_ISO_SMILES>
CCCN(CCC)C1CC2=C(C=CC3=C2SC(=N3)N)OC1

> <PUBCHEM_CACTVS_TPSA>
79.6

> <PUBCHEM_MONOISOTOPIC_WEIGHT>
305.15618354

> <PUBCHEM_TOTAL_CHARGE>
0

> <PUBCHEM_HEAVY_ATOM_COUNT>
21

> <PUBCHEM_ATOM_DEF_STEREO_COUNT>
0

> <PUBCHEM_ATOM_UDEF_STEREO_COUNT>
1

> <PUBCHEM_BOND_DEF_STEREO_COUNT>
0

> <PUBCHEM_BOND_UDEF_STEREO_COUNT>
0

> <PUBCHEM_ISOTOPIC_ATOM_COUNT>
0

> <PUBCHEM_COMPONENT_COUNT>
1

> <PUBCHEM_CACTVS_TAUTO_COUNT>
-1

> <PUBCHEM_COORDINATE_TYPE>
1
5
255

> <PUBCHEM_BONDANNOTATIONS>
1  15  8
1  21  8
12  16  8
15  17  8
16  18  8
17  18  8
6  3  3
4  17  8
4  21  8
9  12  8
9  15  8

$$$$
