10071413
  -OEChem-09292322242D

 61 64  0     0  0  0  0  0  0999 V2000
   15.4939   -0.1690    0.0000 O   0  0  0  0  0  0  0  0  0  0  0  0
    8.4939   -1.9010    0.0000 O   0  0  0  0  0  0  0  0  0  0  0  0
   12.4939    1.5630    0.0000 N   0  0  0  0  0  0  0  0  0  0  0  0
   14.4939    1.5630    0.0000 N   0  0  0  0  0  0  0  0  0  0  0  0
    8.4939   -0.1690    0.0000 N   0  0  0  0  0  0  0  0  0  0  0  0
    6.4103   -1.8398    0.0000 N   0  0  0  0  0  0  0  0  0  0  0  0
    2.0000    0.4650    0.0000 N   0  0  0  0  0  0  0  0  0  0  0  0
   12.9939    0.6970    0.0000 C   0  0  0  0  0  0  0  0  0  0  0  0
   12.9939    2.4291    0.0000 C   0  0  0  0  0  0  0  0  0  0  0  0
   13.9939    0.6970    0.0000 C   0  0  0  0  0  0  0  0  0  0  0  0
   13.9939    2.4291    0.0000 C   0  0  0  0  0  0  0  0  0  0  0  0
   11.4939    1.5630    0.0000 C   0  0  0  0  0  0  0  0  0  0  0  0
   10.9939    0.6970    0.0000 C   0  0  0  0  0  0  0  0  0  0  0  0
   15.4939    1.5630    0.0000 C   0  0  0  0  0  0  0  0  0  0  0  0
    9.9939    0.6970    0.0000 C   0  0  0  0  0  0  0  0  0  0  0  0
    9.4939   -0.1690    0.0000 C   0  0  0  0  0  0  0  0  0  0  0  0
   15.9939    0.6970    0.0000 C   0  0  0  0  0  0  0  0  0  0  0  0
   15.9939    2.4291    0.0000 C   0  0  0  0  0  0  0  0  0  0  0  0
   16.9939    0.6970    0.0000 C   0  0  0  0  0  0  0  0  0  0  0  0
   16.9939    2.4291    0.0000 C   0  0  0  0  0  0  0  0  0  0  0  0
   17.4939    1.5630    0.0000 C   0  0  0  0  0  0  0  0  0  0  0  0
    7.9939   -1.0350    0.0000 C   0  0  0  0  0  0  0  0  0  0  0  0
    6.9939   -1.0350    0.0000 C   0  0  0  0  0  0  0  0  0  0  0  0
    5.4641   -0.5350    0.0000 C   0  0  0  0  0  0  0  0  0  0  0  0
    5.4641   -1.5350    0.0000 C   0  0  0  0  0  0  0  0  0  0  0  0
    6.4103   -0.2303    0.0000 C   0  0  0  0  0  0  0  0  0  0  0  0
   15.9939   -1.0350    0.0000 C   0  0  0  0  0  0  0  0  0  0  0  0
    4.5981   -0.0350    0.0000 C   0  0  0  0  0  0  0  0  0  0  0  0
    4.5981   -2.0350    0.0000 C   0  0  0  0  0  0  0  0  0  0  0  0
    3.7320   -0.5350    0.0000 C   0  0  0  0  0  0  0  0  0  0  0  0
    3.7320   -1.5350    0.0000 C   0  0  0  0  0  0  0  0  0  0  0  0
    2.8660   -0.0350    0.0000 C   0  0  0  0  0  0  0  0  0  0  0  0
   12.4113    0.4850    0.0000 H   0  0  0  0  0  0  0  0  0  0  0  0
   13.1016    0.0864    0.0000 H   0  0  0  0  0  0  0  0  0  0  0  0
   13.1016    3.0397    0.0000 H   0  0  0  0  0  0  0  0  0  0  0  0
   12.4113    2.6411    0.0000 H   0  0  0  0  0  0  0  0  0  0  0  0
   13.8863    0.0864    0.0000 H   0  0  0  0  0  0  0  0  0  0  0  0
   14.5765    0.4850    0.0000 H   0  0  0  0  0  0  0  0  0  0  0  0
   14.5765    2.6411    0.0000 H   0  0  0  0  0  0  0  0  0  0  0  0
   13.8863    3.0397    0.0000 H   0  0  0  0  0  0  0  0  0  0  0  0
   11.6016    2.1736    0.0000 H   0  0  0  0  0  0  0  0  0  0  0  0
   10.9113    1.7751    0.0000 H   0  0  0  0  0  0  0  0  0  0  0  0
   10.8863    0.0864    0.0000 H   0  0  0  0  0  0  0  0  0  0  0  0
   11.5765    0.4850    0.0000 H   0  0  0  0  0  0  0  0  0  0  0  0
   10.1016    1.3076    0.0000 H   0  0  0  0  0  0  0  0  0  0  0  0
    9.4113    0.9091    0.0000 H   0  0  0  0  0  0  0  0  0  0  0  0
    9.3863   -0.7796    0.0000 H   0  0  0  0  0  0  0  0  0  0  0  0
   10.0765   -0.3810    0.0000 H   0  0  0  0  0  0  0  0  0  0  0  0
   15.6839    2.9660    0.0000 H   0  0  0  0  0  0  0  0  0  0  0  0
    8.1839    0.3679    0.0000 H   0  0  0  0  0  0  0  0  0  0  0  0
   17.3039    0.1601    0.0000 H   0  0  0  0  0  0  0  0  0  0  0  0
   17.3039    2.9660    0.0000 H   0  0  0  0  0  0  0  0  0  0  0  0
   18.1139    1.5630    0.0000 H   0  0  0  0  0  0  0  0  0  0  0  0
    6.6029    0.3590    0.0000 H   0  0  0  0  0  0  0  0  0  0  0  0
    6.6029   -2.4291    0.0000 H   0  0  0  0  0  0  0  0  0  0  0  0
   15.4570   -1.3450    0.0000 H   0  0  0  0  0  0  0  0  0  0  0  0
   16.3039   -1.5720    0.0000 H   0  0  0  0  0  0  0  0  0  0  0  0
   16.5309   -0.7250    0.0000 H   0  0  0  0  0  0  0  0  0  0  0  0
    4.5981    0.5850    0.0000 H   0  0  0  0  0  0  0  0  0  0  0  0
    4.5981   -2.6550    0.0000 H   0  0  0  0  0  0  0  0  0  0  0  0
    3.1951   -1.8450    0.0000 H   0  0  0  0  0  0  0  0  0  0  0  0
  1 17  1  0  0  0  0
  1 27  1  0  0  0  0
  2 22  2  0  0  0  0
  3  8  1  0  0  0  0
  3  9  1  0  0  0  0
  3 12  1  0  0  0  0
  4 10  1  0  0  0  0
  4 11  1  0  0  0  0
  4 14  1  0  0  0  0
  5 16  1  0  0  0  0
  5 22  1  0  0  0  0
  5 50  1  0  0  0  0
  6 23  1  0  0  0  0
  6 25  1  0  0  0  0
  6 55  1  0  0  0  0
  7 32  3  0  0  0  0
  8 10  1  0  0  0  0
  8 33  1  0  0  0  0
  8 34  1  0  0  0  0
  9 11  1  0  0  0  0
  9 35  1  0  0  0  0
  9 36  1  0  0  0  0
 10 37  1  0  0  0  0
 10 38  1  0  0  0  0
 11 39  1  0  0  0  0
 11 40  1  0  0  0  0
 12 13  1  0  0  0  0
 12 41  1  0  0  0  0
 12 42  1  0  0  0  0
 13 15  1  0  0  0  0
 13 43  1  0  0  0  0
 13 44  1  0  0  0  0
 14 17  1  0  0  0  0
 14 18  2  0  0  0  0
 15 16  1  0  0  0  0
 15 45  1  0  0  0  0
 15 46  1  0  0  0  0
 16 47  1  0  0  0  0
 16 48  1  0  0  0  0
 17 19  2  0  0  0  0
 18 20  1  0  0  0  0
 18 49  1  0  0  0  0
 19 21  1  0  0  0  0
 19 51  1  0  0  0  0
 20 21  2  0  0  0  0
 20 52  1  0  0  0  0
 21 53  1  0  0  0  0
 22 23  1  0  0  0  0
 23 26  2  0  0  0  0
 24 25  2  0  0  0  0
 24 26  1  0  0  0  0
 24 28  1  0  0  0  0
 25 29  1  0  0  0  0
 26 54  1  0  0  0  0
 27 56  1  0  0  0  0
 27 57  1  0  0  0  0
 27 58  1  0  0  0  0
 28 30  2  0  0  0  0
 28 59  1  0  0  0  0
 29 31  2  0  0  0  0
 29 60  1  0  0  0  0
 30 31  1  0  0  0  0
 30 32  1  0  0  0  0
 31 61  1  0  0  0  0
M  END
> <PUBCHEM_COMPOUND_CID>
10071413

> <PUBCHEM_COMPOUND_CANONICALIZED>
1

> <PUBCHEM_CACTVS_COMPLEXITY>
656

> <PUBCHEM_CACTVS_HBOND_ACCEPTOR>
5

> <PUBCHEM_CACTVS_HBOND_DONOR>
2

> <PUBCHEM_CACTVS_ROTATABLE_BOND>
8

> <PUBCHEM_CACTVS_SUBSKEYS>
AAADceB7sAAAAAAAAAAAAAAAAAAAAWAAAAA8YIAAAAAAAFgB9AAAHgAQAAAADAzBngYyxvPJlAC4ByVyVACiiCAnIiAImaG/bNgO5vLEtbuVMShk1hHY6Y+YycCeCAACAAACEAAQAAQAAAQgAAAAAAAAAA==

> <PUBCHEM_IUPAC_OPENEYE_NAME>
5-cyano-N-[4-[4-(2-methoxyphenyl)piperazin-1-yl]butyl]-1H-indole-2-carboxamide

> <PUBCHEM_IUPAC_CAS_NAME>
5-cyano-N-[4-[4-(2-methoxyphenyl)-1-piperazinyl]butyl]-1H-indole-2-carboxamide

> <PUBCHEM_IUPAC_NAME_MARKUP>
5-cyano-<I>N</I>-[4-[4-(2-methoxyphenyl)piperazin-1-yl]butyl]-1<I>H</I>-indole-2-carboxamide

> <PUBCHEM_IUPAC_NAME>
5-cyano-N-[4-[4-(2-methoxyphenyl)piperazin-1-yl]butyl]-1H-indole-2-carboxamide

> <PUBCHEM_IUPAC_SYSTEMATIC_NAME>
5-cyano-N-[4-[4-(2-methoxyphenyl)piperazin-1-yl]butyl]-1H-indole-2-carboxamide

> <PUBCHEM_IUPAC_TRADITIONAL_NAME>
5-cyano-N-[4-[4-(2-methoxyphenyl)piperazino]butyl]-1H-indole-2-carboxamide

> <PUBCHEM_IUPAC_INCHI>
InChI=1S/C25H29N5O2/c1-32-24-7-3-2-6-23(24)30-14-12-29(13-15-30)11-5-4-10-27-25(31)22-17-20-16-19(18-26)8-9-21(20)28-22/h2-3,6-9,16-17,28H,4-5,10-15H2,1H3,(H,27,31)

> <PUBCHEM_IUPAC_INCHIKEY>
ZDQIWLYZMZKCKZ-UHFFFAOYSA-N

> <PUBCHEM_XLOGP3_AA>
3.7

> <PUBCHEM_EXACT_MASS>
431.23212518

> <PUBCHEM_MOLECULAR_FORMULA>
C25H29N5O2

> <PUBCHEM_MOLECULAR_WEIGHT>
431.5

> <PUBCHEM_OPENEYE_CAN_SMILES>
COC1=CC=CC=C1N2CCN(CC2)CCCCNC(=O)C3=CC4=C(N3)C=CC(=C4)C#N

> <PUBCHEM_OPENEYE_ISO_SMILES>
COC1=CC=CC=C1N2CCN(CC2)CCCCNC(=O)C3=CC4=C(N3)C=CC(=C4)C#N

> <PUBCHEM_CACTVS_TPSA>
84.4

> <PUBCHEM_MONOISOTOPIC_WEIGHT>
431.23212518

> <PUBCHEM_TOTAL_CHARGE>
0

> <PUBCHEM_HEAVY_ATOM_COUNT>
32

> <PUBCHEM_ATOM_DEF_STEREO_COUNT>
0

> <PUBCHEM_ATOM_UDEF_STEREO_COUNT>
0

> <PUBCHEM_BOND_DEF_STEREO_COUNT>
0

> <PUBCHEM_BOND_UDEF_STEREO_COUNT>
0

> <PUBCHEM_ISOTOPIC_ATOM_COUNT>
0

> <PUBCHEM_COMPONENT_COUNT>
1

> <PUBCHEM_CACTVS_TAUTO_COUNT>
-1

> <PUBCHEM_COORDINATE_TYPE>
1
5
255

> <PUBCHEM_BONDANNOTATIONS>
14  17  8
14  18  8
17  19  8
18  20  8
19  21  8
20  21  8
23  26  8
24  25  8
24  26  8
24  28  8
25  29  8
28  30  8
29  31  8
30  31  8
6  23  8
6  25  8

$$$$
