10378389
  -OEChem-09292322182D

 39 41  0     1  0  0  0  0  0999 V2000
    6.0682   -1.0000    0.0000 O   0  0  0  0  0  0  0  0  0  0  0  0
    2.5381   -1.0241    0.0000 O   0  0  0  0  0  0  0  0  0  0  0  0
    8.6663   -0.5000    0.0000 N   0  0  0  0  0  0  0  0  0  0  0  0
    6.9343   -0.5000    0.0000 C   0  0  2  0  0  0  0  0  0  0  0  0
    6.9343    0.5000    0.0000 C   0  0  0  0  0  0  0  0  0  0  0  0
    6.0682    1.0000    0.0000 C   0  0  0  0  0  0  0  0  0  0  0  0
    7.8003   -1.0000    0.0000 C   0  0  0  0  0  0  0  0  0  0  0  0
    5.2022    0.5000    0.0000 C   0  0  0  0  0  0  0  0  0  0  0  0
    5.2022   -0.5000    0.0000 C   0  0  0  0  0  0  0  0  0  0  0  0
    4.3083    1.0347    0.0000 C   0  0  0  0  0  0  0  0  0  0  0  0
    9.5323   -1.0000    0.0000 C   0  0  0  0  0  0  0  0  0  0  0  0
    4.3083   -1.0347    0.0000 C   0  0  0  0  0  0  0  0  0  0  0  0
    3.4022    0.5208    0.0000 C   0  0  0  0  0  0  0  0  0  0  0  0
    3.4022   -0.5208    0.0000 C   0  0  0  0  0  0  0  0  0  0  0  0
   10.3984   -0.5000    0.0000 C   0  0  0  0  0  0  0  0  0  0  0  0
   11.2644   -1.0000    0.0000 C   0  0  0  0  0  0  0  0  0  0  0  0
   10.3984    0.5000    0.0000 C   0  0  0  0  0  0  0  0  0  0  0  0
   12.1304   -0.5000    0.0000 C   0  0  0  0  0  0  0  0  0  0  0  0
   11.2644    1.0000    0.0000 C   0  0  0  0  0  0  0  0  0  0  0  0
   12.1304    0.5000    0.0000 C   0  0  0  0  0  0  0  0  0  0  0  0
    6.9343   -1.1200    0.0000 H   0  0  0  0  0  0  0  0  0  0  0  0
    7.5449    0.3923    0.0000 H   0  0  0  0  0  0  0  0  0  0  0  0
    7.1463    1.0826    0.0000 H   0  0  0  0  0  0  0  0  0  0  0  0
    6.4668    1.4750    0.0000 H   0  0  0  0  0  0  0  0  0  0  0  0
    5.6697    1.4750    0.0000 H   0  0  0  0  0  0  0  0  0  0  0  0
    7.4018   -1.4750    0.0000 H   0  0  0  0  0  0  0  0  0  0  0  0
    8.1988   -1.4750    0.0000 H   0  0  0  0  0  0  0  0  0  0  0  0
    8.6663    0.1200    0.0000 H   0  0  0  0  0  0  0  0  0  0  0  0
    4.3154    1.6546    0.0000 H   0  0  0  0  0  0  0  0  0  0  0  0
    9.1338   -1.4750    0.0000 H   0  0  0  0  0  0  0  0  0  0  0  0
    9.9309   -1.4750    0.0000 H   0  0  0  0  0  0  0  0  0  0  0  0
    4.3154   -1.6546    0.0000 H   0  0  0  0  0  0  0  0  0  0  0  0
    2.8665    0.8329    0.0000 H   0  0  0  0  0  0  0  0  0  0  0  0
   11.2644   -1.6200    0.0000 H   0  0  0  0  0  0  0  0  0  0  0  0
    9.8614    0.8100    0.0000 H   0  0  0  0  0  0  0  0  0  0  0  0
   12.6674   -0.8100    0.0000 H   0  0  0  0  0  0  0  0  0  0  0  0
   11.2644    1.6200    0.0000 H   0  0  0  0  0  0  0  0  0  0  0  0
    2.0000   -0.7162    0.0000 H   0  0  0  0  0  0  0  0  0  0  0  0
   12.6674    0.8100    0.0000 H   0  0  0  0  0  0  0  0  0  0  0  0
  1  4  1  0  0  0  0
  1  9  1  0  0  0  0
  2 14  1  0  0  0  0
  2 38  1  0  0  0  0
  3  7  1  0  0  0  0
  3 11  1  0  0  0  0
  3 28  1  0  0  0  0
  4  5  1  0  0  0  0
  4  7  1  6  0  0  0
  4 21  1  0  0  0  0
  5  6  1  0  0  0  0
  5 22  1  0  0  0  0
  5 23  1  0  0  0  0
  6  8  1  0  0  0  0
  6 24  1  0  0  0  0
  6 25  1  0  0  0  0
  7 26  1  0  0  0  0
  7 27  1  0  0  0  0
  8  9  2  0  0  0  0
  8 10  1  0  0  0  0
  9 12  1  0  0  0  0
 10 13  2  0  0  0  0
 10 29  1  0  0  0  0
 11 15  1  0  0  0  0
 11 30  1  0  0  0  0
 11 31  1  0  0  0  0
 12 14  2  0  0  0  0
 12 32  1  0  0  0  0
 13 14  1  0  0  0  0
 13 33  1  0  0  0  0
 15 16  2  0  0  0  0
 15 17  1  0  0  0  0
 16 18  1  0  0  0  0
 16 34  1  0  0  0  0
 17 19  2  0  0  0  0
 17 35  1  0  0  0  0
 18 20  2  0  0  0  0
 18 36  1  0  0  0  0
 19 20  1  0  0  0  0
 19 37  1  0  0  0  0
 20 39  1  0  0  0  0
M  END
> <PUBCHEM_COMPOUND_CID>
10378389

> <PUBCHEM_COMPOUND_CANONICALIZED>
1

> <PUBCHEM_CACTVS_COMPLEXITY>
291

> <PUBCHEM_CACTVS_HBOND_ACCEPTOR>
3

> <PUBCHEM_CACTVS_HBOND_DONOR>
2

> <PUBCHEM_CACTVS_ROTATABLE_BOND>
4

> <PUBCHEM_CACTVS_SUBSKEYS>
AAADceB6MAAAAAAAAAAAAAAAAAAAAAAAAAA0YIAAAAAAAACRQAAAHgAQCAAADBThmAYwBoLABgCAAiBCAACCCAAgIAAIiIAODIgOJyKGsRuHeCjl0BWYuAeQ4KwOIAAACAAIAABAAAAQABAAAAAAAAAAAA==

> <PUBCHEM_IUPAC_OPENEYE_NAME>
(2R)-2-[(benzylamino)methyl]chroman-7-ol

> <PUBCHEM_IUPAC_CAS_NAME>
(2R)-2-[[(phenylmethyl)amino]methyl]-3,4-dihydro-2H-1-benzopyran-7-ol

> <PUBCHEM_IUPAC_NAME_MARKUP>
(2<I>R</I>)-2-[(benzylamino)methyl]-3,4-dihydro-2<I>H</I>-chromen-7-ol

> <PUBCHEM_IUPAC_NAME>
(2R)-2-[(benzylamino)methyl]-3,4-dihydro-2H-chromen-7-ol

> <PUBCHEM_IUPAC_SYSTEMATIC_NAME>
(2R)-2-[[(phenylmethyl)amino]methyl]-3,4-dihydro-2H-chromen-7-ol

> <PUBCHEM_IUPAC_TRADITIONAL_NAME>
(2R)-2-[(benzylamino)methyl]chroman-7-ol

> <PUBCHEM_IUPAC_INCHI>
InChI=1S/C17H19NO2/c19-15-8-6-14-7-9-16(20-17(14)10-15)12-18-11-13-4-2-1-3-5-13/h1-6,8,10,16,18-19H,7,9,11-12H2/t16-/m1/s1

> <PUBCHEM_IUPAC_INCHIKEY>
DWUAAOIZQFTYQP-MRXNPFEDSA-N

> <PUBCHEM_XLOGP3_AA>
3.1

> <PUBCHEM_EXACT_MASS>
269.141578849

> <PUBCHEM_MOLECULAR_FORMULA>
C17H19NO2

> <PUBCHEM_MOLECULAR_WEIGHT>
269.34

> <PUBCHEM_OPENEYE_CAN_SMILES>
C1CC2=C(C=C(C=C2)O)OC1CNCC3=CC=CC=C3

> <PUBCHEM_OPENEYE_ISO_SMILES>
C1CC2=C(C=C(C=C2)O)O[C@H]1CNCC3=CC=CC=C3

> <PUBCHEM_CACTVS_TPSA>
41.5

> <PUBCHEM_MONOISOTOPIC_WEIGHT>
269.141578849

> <PUBCHEM_TOTAL_CHARGE>
0

> <PUBCHEM_HEAVY_ATOM_COUNT>
20

> <PUBCHEM_ATOM_DEF_STEREO_COUNT>
1

> <PUBCHEM_ATOM_UDEF_STEREO_COUNT>
0

> <PUBCHEM_BOND_DEF_STEREO_COUNT>
0

> <PUBCHEM_BOND_UDEF_STEREO_COUNT>
0

> <PUBCHEM_ISOTOPIC_ATOM_COUNT>
0

> <PUBCHEM_COMPONENT_COUNT>
1

> <PUBCHEM_CACTVS_TAUTO_COUNT>
-1

> <PUBCHEM_COORDINATE_TYPE>
1
5
255

> <PUBCHEM_BONDANNOTATIONS>
10  13  8
12  14  8
13  14  8
15  16  8
15  17  8
16  18  8
17  19  8
18  20  8
19  20  8
4  7  6
8  10  8
8  9  8
9  12  8

$$$$
