146451664
  -OEChem-09292322412D

 66 70  0     1  0  0  0  0  0999 V2000
    8.5390    0.4680    0.0000 O   0  0  0  0  0  0  0  0  0  0  0  0
   13.8153   -2.7272    0.0000 O   0  0  0  0  0  0  0  0  0  0  0  0
   13.8153   -4.3367    0.0000 O   0  0  0  0  0  0  0  0  0  0  0  0
    6.8069    3.4680    0.0000 O   0  0  0  0  0  0  0  0  0  0  0  0
    8.5390   -1.5320    0.0000 N   0  0  0  0  0  0  0  0  0  0  0  0
   10.2710   -2.5320    0.0000 N   0  0  0  0  0  0  0  0  0  0  0  0
    5.9409    1.9680    0.0000 N   0  0  0  0  0  0  0  0  0  0  0  0
    4.1671    3.0629    0.0000 N   0  0  0  0  0  0  0  0  0  0  0  0
    8.5390   -2.5320    0.0000 C   0  0  0  0  0  0  0  0  0  0  0  0
    9.4050   -1.0320    0.0000 C   0  0  0  0  0  0  0  0  0  0  0  0
    9.4050   -3.0320    0.0000 C   0  0  0  0  0  0  0  0  0  0  0  0
   10.2710   -1.5320    0.0000 C   0  0  0  0  0  0  0  0  0  0  0  0
    7.6730   -1.0320    0.0000 C   0  0  0  0  0  0  0  0  0  0  0  0
    7.6730   -0.0320    0.0000 C   0  0  3  0  0  0  0  0  0  0  0  0
   11.1370   -3.0320    0.0000 C   0  0  0  0  0  0  0  0  0  0  0  0
    6.8069    0.4680    0.0000 C   0  0  0  0  0  0  0  0  0  0  0  0
   11.1370   -4.0320    0.0000 C   0  0  0  0  0  0  0  0  0  0  0  0
   12.0031   -2.5320    0.0000 C   0  0  0  0  0  0  0  0  0  0  0  0
    6.8069    1.4680    0.0000 C   0  0  0  0  0  0  0  0  0  0  0  0
   10.2710   -4.5320    0.0000 C   0  0  0  0  0  0  0  0  0  0  0  0
   12.0031   -4.5320    0.0000 C   0  0  0  0  0  0  0  0  0  0  0  0
   12.8691   -3.0320    0.0000 C   0  0  0  0  0  0  0  0  0  0  0  0
   12.8691   -4.0320    0.0000 C   0  0  0  0  0  0  0  0  0  0  0  0
   10.2710   -5.5320    0.0000 C   0  0  0  0  0  0  0  0  0  0  0  0
   14.3989   -3.5320    0.0000 C   0  0  0  0  0  0  0  0  0  0  0  0
    5.9409    2.9680    0.0000 C   0  0  0  0  0  0  0  0  0  0  0  0
    5.0749    3.4680    0.0000 C   0  0  0  0  0  0  0  0  0  0  0  0
    4.9718    4.4568    0.0000 C   0  0  0  0  0  0  0  0  0  0  0  0
    3.5000    3.7999    0.0000 C   0  0  0  0  0  0  0  0  0  0  0  0
    4.0000    4.6659    0.0000 C   0  0  0  0  0  0  0  0  0  0  0  0
    2.5000    3.7999    0.0000 C   0  0  0  0  0  0  0  0  0  0  0  0
    3.5000    5.5320    0.0000 C   0  0  0  0  0  0  0  0  0  0  0  0
    2.0000    4.6659    0.0000 C   0  0  0  0  0  0  0  0  0  0  0  0
    2.5000    5.5320    0.0000 C   0  0  0  0  0  0  0  0  0  0  0  0
    7.9284   -2.4243    0.0000 H   0  0  0  0  0  0  0  0  0  0  0  0
    8.3269   -3.1146    0.0000 H   0  0  0  0  0  0  0  0  0  0  0  0
    9.8035   -0.5570    0.0000 H   0  0  0  0  0  0  0  0  0  0  0  0
    9.0065   -0.5570    0.0000 H   0  0  0  0  0  0  0  0  0  0  0  0
    9.0065   -3.5069    0.0000 H   0  0  0  0  0  0  0  0  0  0  0  0
    9.8035   -3.5069    0.0000 H   0  0  0  0  0  0  0  0  0  0  0  0
   10.8816   -1.6396    0.0000 H   0  0  0  0  0  0  0  0  0  0  0  0
   10.4831   -0.9494    0.0000 H   0  0  0  0  0  0  0  0  0  0  0  0
    7.0624   -0.9243    0.0000 H   0  0  0  0  0  0  0  0  0  0  0  0
    7.4609   -1.6146    0.0000 H   0  0  0  0  0  0  0  0  0  0  0  0
    8.2099   -0.3420    0.0000 H   0  0  0  0  0  0  0  0  0  0  0  0
    6.1963    0.5757    0.0000 H   0  0  0  0  0  0  0  0  0  0  0  0
    6.5949   -0.1146    0.0000 H   0  0  0  0  0  0  0  0  0  0  0  0
   12.0031   -1.9120    0.0000 H   0  0  0  0  0  0  0  0  0  0  0  0
    7.4175    1.3604    0.0000 H   0  0  0  0  0  0  0  0  0  0  0  0
    7.0190    2.0506    0.0000 H   0  0  0  0  0  0  0  0  0  0  0  0
   10.0590   -3.9494    0.0000 H   0  0  0  0  0  0  0  0  0  0  0  0
    9.6604   -4.6396    0.0000 H   0  0  0  0  0  0  0  0  0  0  0  0
   12.0031   -5.1520    0.0000 H   0  0  0  0  0  0  0  0  0  0  0  0
    8.5390    1.0880    0.0000 H   0  0  0  0  0  0  0  0  0  0  0  0
    5.4040    1.6580    0.0000 H   0  0  0  0  0  0  0  0  0  0  0  0
    9.6510   -5.5320    0.0000 H   0  0  0  0  0  0  0  0  0  0  0  0
   10.2710   -6.1520    0.0000 H   0  0  0  0  0  0  0  0  0  0  0  0
   10.8910   -5.5320    0.0000 H   0  0  0  0  0  0  0  0  0  0  0  0
   14.8598   -3.9467    0.0000 H   0  0  0  0  0  0  0  0  0  0  0  0
   14.8598   -3.1172    0.0000 H   0  0  0  0  0  0  0  0  0  0  0  0
    4.0392    2.4562    0.0000 H   0  0  0  0  0  0  0  0  0  0  0  0
    5.4333    4.8708    0.0000 H   0  0  0  0  0  0  0  0  0  0  0  0
    2.1900    3.2630    0.0000 H   0  0  0  0  0  0  0  0  0  0  0  0
    3.8100    6.0689    0.0000 H   0  0  0  0  0  0  0  0  0  0  0  0
    1.3800    4.6659    0.0000 H   0  0  0  0  0  0  0  0  0  0  0  0
    2.1900    6.0689    0.0000 H   0  0  0  0  0  0  0  0  0  0  0  0
  1 14  1  0  0  0  0
  1 54  1  0  0  0  0
  2 22  1  0  0  0  0
  2 25  1  0  0  0  0
  3 23  1  0  0  0  0
  3 25  1  0  0  0  0
  4 26  2  0  0  0  0
  5  9  1  0  0  0  0
  5 10  1  0  0  0  0
  5 13  1  0  0  0  0
  6 11  1  0  0  0  0
  6 12  1  0  0  0  0
  6 15  1  0  0  0  0
  7 19  1  0  0  0  0
  7 26  1  0  0  0  0
  7 55  1  0  0  0  0
  8 27  1  0  0  0  0
  8 29  1  0  0  0  0
  8 61  1  0  0  0  0
  9 11  1  0  0  0  0
  9 35  1  0  0  0  0
  9 36  1  0  0  0  0
 10 12  1  0  0  0  0
 10 37  1  0  0  0  0
 10 38  1  0  0  0  0
 11 39  1  0  0  0  0
 11 40  1  0  0  0  0
 12 41  1  0  0  0  0
 12 42  1  0  0  0  0
 13 14  1  0  0  0  0
 13 43  1  0  0  0  0
 13 44  1  0  0  0  0
 14 16  1  0  0  0  0
 14 45  1  0  0  0  0
 15 17  1  0  0  0  0
 15 18  2  0  0  0  0
 16 19  1  0  0  0  0
 16 46  1  0  0  0  0
 16 47  1  0  0  0  0
 17 20  1  0  0  0  0
 17 21  2  0  0  0  0
 18 22  1  0  0  0  0
 18 48  1  0  0  0  0
 19 49  1  0  0  0  0
 19 50  1  0  0  0  0
 20 24  1  0  0  0  0
 20 51  1  0  0  0  0
 20 52  1  0  0  0  0
 21 23  1  0  0  0  0
 21 53  1  0  0  0  0
 22 23  2  0  0  0  0
 24 56  1  0  0  0  0
 24 57  1  0  0  0  0
 24 58  1  0  0  0  0
 25 59  1  0  0  0  0
 25 60  1  0  0  0  0
 26 27  1  0  0  0  0
 27 28  2  0  0  0  0
 28 30  1  0  0  0  0
 28 62  1  0  0  0  0
 29 30  1  0  0  0  0
 29 31  2  0  0  0  0
 30 32  2  0  0  0  0
 31 33  1  0  0  0  0
 31 63  1  0  0  0  0
 32 34  1  0  0  0  0
 32 64  1  0  0  0  0
 33 34  2  0  0  0  0
 33 65  1  0  0  0  0
 34 66  1  0  0  0  0
M  END
> <PUBCHEM_COMPOUND_CID>
146451664

> <PUBCHEM_COMPOUND_CANONICALIZED>
1

> <PUBCHEM_CACTVS_COMPLEXITY>
673

> <PUBCHEM_CACTVS_HBOND_ACCEPTOR>
6

> <PUBCHEM_CACTVS_HBOND_DONOR>
3

> <PUBCHEM_CACTVS_ROTATABLE_BOND>
8

> <PUBCHEM_CACTVS_SUBSKEYS>
AAADcfB7uAAAAAAAAAAAAAAAAAAAAWJAAAA8YIAAAAAAAFgB9AAAHgAQCAAADBzhngcyzvPJlgCoAyVyVACCiCAnIiAImaG+7NgfdvLEtbu0cSpm1hne6Ye42bOeIEABAgACQABAgAIEAASAAAAAAAAAAA==

> <PUBCHEM_IUPAC_OPENEYE_NAME>
N-[4-[4-(6-ethyl-1,3-benzodioxol-5-yl)piperazin-1-yl]-3-hydroxy-butyl]-1H-indole-2-carboxamide

> <PUBCHEM_IUPAC_CAS_NAME>
N-[4-[4-(6-ethyl-1,3-benzodioxol-5-yl)-1-piperazinyl]-3-hydroxybutyl]-1H-indole-2-carboxamide

> <PUBCHEM_IUPAC_NAME_MARKUP>
<I>N</I>-[4-[4-(6-ethyl-1,3-benzodioxol-5-yl)piperazin-1-yl]-3-hydroxybutyl]-1<I>H</I>-indole-2-carboxamide

> <PUBCHEM_IUPAC_NAME>
N-[4-[4-(6-ethyl-1,3-benzodioxol-5-yl)piperazin-1-yl]-3-hydroxybutyl]-1H-indole-2-carboxamide

> <PUBCHEM_IUPAC_SYSTEMATIC_NAME>
N-[4-[4-(6-ethyl-1,3-benzodioxol-5-yl)piperazin-1-yl]-3-oxidanyl-butyl]-1H-indole-2-carboxamide

> <PUBCHEM_IUPAC_TRADITIONAL_NAME>
N-[4-[4-(6-ethyl-1,3-benzodioxol-5-yl)piperazino]-3-hydroxy-butyl]-1H-indole-2-carboxamide

> <PUBCHEM_IUPAC_INCHI>
InChI=1S/C26H32N4O4/c1-2-18-14-24-25(34-17-33-24)15-23(18)30-11-9-29(10-12-30)16-20(31)7-8-27-26(32)22-13-19-5-3-4-6-21(19)28-22/h3-6,13-15,20,28,31H,2,7-12,16-17H2,1H3,(H,27,32)

> <PUBCHEM_IUPAC_INCHIKEY>
DGZKLXNLBCVGGK-UHFFFAOYSA-N

> <PUBCHEM_XLOGP3_AA>
3.6

> <PUBCHEM_EXACT_MASS>
464.24235551

> <PUBCHEM_MOLECULAR_FORMULA>
C26H32N4O4

> <PUBCHEM_MOLECULAR_WEIGHT>
464.6

> <PUBCHEM_OPENEYE_CAN_SMILES>
CCC1=CC2=C(C=C1N3CCN(CC3)CC(CCNC(=O)C4=CC5=CC=CC=C5N4)O)OCO2

> <PUBCHEM_OPENEYE_ISO_SMILES>
CCC1=CC2=C(C=C1N3CCN(CC3)CC(CCNC(=O)C4=CC5=CC=CC=C5N4)O)OCO2

> <PUBCHEM_CACTVS_TPSA>
90.1

> <PUBCHEM_MONOISOTOPIC_WEIGHT>
464.24235551

> <PUBCHEM_TOTAL_CHARGE>
0

> <PUBCHEM_HEAVY_ATOM_COUNT>
34

> <PUBCHEM_ATOM_DEF_STEREO_COUNT>
0

> <PUBCHEM_ATOM_UDEF_STEREO_COUNT>
1

> <PUBCHEM_BOND_DEF_STEREO_COUNT>
0

> <PUBCHEM_BOND_UDEF_STEREO_COUNT>
0

> <PUBCHEM_ISOTOPIC_ATOM_COUNT>
0

> <PUBCHEM_COMPONENT_COUNT>
1

> <PUBCHEM_CACTVS_TAUTO_COUNT>
-1

> <PUBCHEM_COORDINATE_TYPE>
1
5
255

> <PUBCHEM_BONDANNOTATIONS>
14  1  3
15  17  8
15  18  8
17  21  8
18  22  8
21  23  8
22  23  8
27  28  8
28  30  8
29  30  8
29  31  8
30  32  8
31  33  8
32  34  8
33  34  8
8  27  8
8  29  8

$$$$
