44394599
  -OEChem-09292322092D

 53 56  0     1  0  0  0  0  0999 V2000
    4.5411   -0.2058    0.0000 O   0  0  0  0  0  0  0  0  0  0  0  0
    6.2731    4.7942    0.0000 O   0  0  0  0  0  0  0  0  0  0  0  0
    3.3090   -2.7446    0.0000 N   0  0  3  0  0  0  0  0  0  0  0  0
    2.8090   -0.2058    0.0000 N   0  0  0  0  0  0  0  0  0  0  0  0
    2.8090   -1.2058    0.0000 C   0  0  3  0  0  0  0  0  0  0  0  0
    2.0000   -1.7935    0.0000 C   0  0  0  0  0  0  0  0  0  0  0  0
    3.6180   -1.7935    0.0000 C   0  0  0  0  0  0  0  0  0  0  0  0
    2.3090   -2.7446    0.0000 C   0  0  0  0  0  0  0  0  0  0  0  0
    3.8968   -3.5536    0.0000 C   0  0  0  0  0  0  0  0  0  0  0  0
    3.4901   -4.4672    0.0000 C   0  0  0  0  0  0  0  0  0  0  0  0
    3.6750    0.2942    0.0000 C   0  0  0  0  0  0  0  0  0  0  0  0
    2.4955   -4.5717    0.0000 C   0  0  0  0  0  0  0  0  0  0  0  0
    4.0778   -5.2762    0.0000 C   0  0  0  0  0  0  0  0  0  0  0  0
    3.6750    1.2942    0.0000 C   0  0  0  0  0  0  0  0  0  0  0  0
    2.0888   -5.4852    0.0000 C   0  0  0  0  0  0  0  0  0  0  0  0
    3.6711   -6.1897    0.0000 C   0  0  0  0  0  0  0  0  0  0  0  0
    2.8090    1.7942    0.0000 C   0  0  0  0  0  0  0  0  0  0  0  0
    4.5411    1.7942    0.0000 C   0  0  0  0  0  0  0  0  0  0  0  0
    2.6766   -6.2942    0.0000 C   0  0  0  0  0  0  0  0  0  0  0  0
    3.6750    3.2942    0.0000 C   0  0  0  0  0  0  0  0  0  0  0  0
    2.8090    2.7942    0.0000 C   0  0  0  0  0  0  0  0  0  0  0  0
    4.5411    2.7942    0.0000 C   0  0  0  0  0  0  0  0  0  0  0  0
    3.6750    4.2942    0.0000 C   0  0  0  0  0  0  0  0  0  0  0  0
    4.5411    4.7942    0.0000 C   0  0  0  0  0  0  0  0  0  0  0  0
    2.8090    4.7942    0.0000 C   0  0  0  0  0  0  0  0  0  0  0  0
    4.5411    5.7942    0.0000 C   0  0  0  0  0  0  0  0  0  0  0  0
    2.8090    5.7942    0.0000 C   0  0  0  0  0  0  0  0  0  0  0  0
    3.6750    6.2942    0.0000 C   0  0  0  0  0  0  0  0  0  0  0  0
    5.4071    4.2942    0.0000 C   0  0  0  0  0  0  0  0  0  0  0  0
    3.3614   -0.9243    0.0000 H   0  0  0  0  0  0  0  0  0  0  0  0
    1.6900   -1.2566    0.0000 H   0  0  0  0  0  0  0  0  0  0  0  0
    1.4336   -2.0457    0.0000 H   0  0  0  0  0  0  0  0  0  0  0  0
    4.1844   -2.0457    0.0000 H   0  0  0  0  0  0  0  0  0  0  0  0
    3.9280   -1.2566    0.0000 H   0  0  0  0  0  0  0  0  0  0  0  0
    1.7026   -2.8735    0.0000 H   0  0  0  0  0  0  0  0  0  0  0  0
    2.3738   -3.3612    0.0000 H   0  0  0  0  0  0  0  0  0  0  0  0
    4.4108   -3.9003    0.0000 H   0  0  0  0  0  0  0  0  0  0  0  0
    4.3275   -3.1076    0.0000 H   0  0  0  0  0  0  0  0  0  0  0  0
    2.2721    0.1042    0.0000 H   0  0  0  0  0  0  0  0  0  0  0  0
    2.1311   -4.0701    0.0000 H   0  0  0  0  0  0  0  0  0  0  0  0
    4.6944   -5.2114    0.0000 H   0  0  0  0  0  0  0  0  0  0  0  0
    1.4722   -5.5500    0.0000 H   0  0  0  0  0  0  0  0  0  0  0  0
    4.0355   -6.6913    0.0000 H   0  0  0  0  0  0  0  0  0  0  0  0
    2.2721    1.4842    0.0000 H   0  0  0  0  0  0  0  0  0  0  0  0
    5.0780    1.4842    0.0000 H   0  0  0  0  0  0  0  0  0  0  0  0
    2.4244   -6.8606    0.0000 H   0  0  0  0  0  0  0  0  0  0  0  0
    2.2721    3.1042    0.0000 H   0  0  0  0  0  0  0  0  0  0  0  0
    5.0780    3.1042    0.0000 H   0  0  0  0  0  0  0  0  0  0  0  0
    2.2721    4.4842    0.0000 H   0  0  0  0  0  0  0  0  0  0  0  0
    5.0780    6.1043    0.0000 H   0  0  0  0  0  0  0  0  0  0  0  0
    2.2721    6.1043    0.0000 H   0  0  0  0  0  0  0  0  0  0  0  0
    3.6750    6.9142    0.0000 H   0  0  0  0  0  0  0  0  0  0  0  0
    5.4071    3.6742    0.0000 H   0  0  0  0  0  0  0  0  0  0  0  0
  1 11  2  0  0  0  0
  2 29  2  0  0  0  0
  3  7  1  0  0  0  0
  3  8  1  0  0  0  0
  3  9  1  0  0  0  0
  4  5  1  0  0  0  0
  4 11  1  0  0  0  0
  4 39  1  0  0  0  0
  5  6  1  0  0  0  0
  5  7  1  0  0  0  0
  5 30  1  0  0  0  0
  6  8  1  0  0  0  0
  6 31  1  0  0  0  0
  6 32  1  0  0  0  0
  7 33  1  0  0  0  0
  7 34  1  0  0  0  0
  8 35  1  0  0  0  0
  8 36  1  0  0  0  0
  9 10  1  0  0  0  0
  9 37  1  0  0  0  0
  9 38  1  0  0  0  0
 10 12  2  0  0  0  0
 10 13  1  0  0  0  0
 11 14  1  0  0  0  0
 12 15  1  0  0  0  0
 12 40  1  0  0  0  0
 13 16  2  0  0  0  0
 13 41  1  0  0  0  0
 14 17  2  0  0  0  0
 14 18  1  0  0  0  0
 15 19  2  0  0  0  0
 15 42  1  0  0  0  0
 16 19  1  0  0  0  0
 16 43  1  0  0  0  0
 17 21  1  0  0  0  0
 17 44  1  0  0  0  0
 18 22  2  0  0  0  0
 18 45  1  0  0  0  0
 19 46  1  0  0  0  0
 20 21  2  0  0  0  0
 20 22  1  0  0  0  0
 20 23  1  0  0  0  0
 21 47  1  0  0  0  0
 22 48  1  0  0  0  0
 23 24  1  0  0  0  0
 23 25  2  0  0  0  0
 24 26  2  0  0  0  0
 24 29  1  0  0  0  0
 25 27  1  0  0  0  0
 25 49  1  0  0  0  0
 26 28  1  0  0  0  0
 26 50  1  0  0  0  0
 27 28  2  0  0  0  0
 27 51  1  0  0  0  0
 28 52  1  0  0  0  0
 29 53  1  0  0  0  0
M  END
> <PUBCHEM_COMPOUND_CID>
44394599

> <PUBCHEM_COMPOUND_CANONICALIZED>
1

> <PUBCHEM_CACTVS_COMPLEXITY>
537

> <PUBCHEM_CACTVS_HBOND_ACCEPTOR>
3

> <PUBCHEM_CACTVS_HBOND_DONOR>
1

> <PUBCHEM_CACTVS_ROTATABLE_BOND>
6

> <PUBCHEM_CACTVS_SUBSKEYS>
AAADceB7MAAAAAAAAAAAAAAAAAAAAWAAAAAwYMAAAAAAAAABUAAAHgAQAAAADCjhmAYwAIPAAACIAilSkACCAAAkAAAIiIEIBMgIYDKA1RGUIQhglgCIiYcYiMCOwAAAAAAQAACAAAAAACAAAAAAAAAAAA==

> <PUBCHEM_IUPAC_OPENEYE_NAME>
N-(1-benzylpyrrolidin-3-yl)-4-(2-formylphenyl)benzamide

> <PUBCHEM_IUPAC_CAS_NAME>
4-(2-formylphenyl)-N-[1-(phenylmethyl)-3-pyrrolidinyl]benzamide

> <PUBCHEM_IUPAC_NAME_MARKUP>
<I>N</I>-(1-benzylpyrrolidin-3-yl)-4-(2-formylphenyl)benzamide

> <PUBCHEM_IUPAC_NAME>
N-(1-benzylpyrrolidin-3-yl)-4-(2-formylphenyl)benzamide

> <PUBCHEM_IUPAC_SYSTEMATIC_NAME>
4-(2-methanoylphenyl)-N-[1-(phenylmethyl)pyrrolidin-3-yl]benzamide

> <PUBCHEM_IUPAC_TRADITIONAL_NAME>
N-(1-benzylpyrrolidin-3-yl)-4-(2-formylphenyl)benzamide

> <PUBCHEM_IUPAC_INCHI>
InChI=1S/C25H24N2O2/c28-18-22-8-4-5-9-24(22)20-10-12-21(13-11-20)25(29)26-23-14-15-27(17-23)16-19-6-2-1-3-7-19/h1-13,18,23H,14-17H2,(H,26,29)

> <PUBCHEM_IUPAC_INCHIKEY>
XMAARODROLJQOY-UHFFFAOYSA-N

> <PUBCHEM_XLOGP3_AA>
4

> <PUBCHEM_EXACT_MASS>
384.183778013

> <PUBCHEM_MOLECULAR_FORMULA>
C25H24N2O2

> <PUBCHEM_MOLECULAR_WEIGHT>
384.5

> <PUBCHEM_OPENEYE_CAN_SMILES>
C1CN(CC1NC(=O)C2=CC=C(C=C2)C3=CC=CC=C3C=O)CC4=CC=CC=C4

> <PUBCHEM_OPENEYE_ISO_SMILES>
C1CN(CC1NC(=O)C2=CC=C(C=C2)C3=CC=CC=C3C=O)CC4=CC=CC=C4

> <PUBCHEM_CACTVS_TPSA>
49.4

> <PUBCHEM_MONOISOTOPIC_WEIGHT>
384.183778013

> <PUBCHEM_TOTAL_CHARGE>
0

> <PUBCHEM_HEAVY_ATOM_COUNT>
29

> <PUBCHEM_ATOM_DEF_STEREO_COUNT>
0

> <PUBCHEM_ATOM_UDEF_STEREO_COUNT>
1

> <PUBCHEM_BOND_DEF_STEREO_COUNT>
0

> <PUBCHEM_BOND_UDEF_STEREO_COUNT>
0

> <PUBCHEM_ISOTOPIC_ATOM_COUNT>
0

> <PUBCHEM_COMPONENT_COUNT>
1

> <PUBCHEM_CACTVS_TAUTO_COUNT>
-1

> <PUBCHEM_COORDINATE_TYPE>
1
5
255

> <PUBCHEM_BONDANNOTATIONS>
10  12  8
10  13  8
12  15  8
13  16  8
14  17  8
14  18  8
15  19  8
16  19  8
17  21  8
18  22  8
20  21  8
20  22  8
23  24  8
23  25  8
24  26  8
25  27  8
26  28  8
27  28  8
5  4  3

$$$$
