11442772
  -OEChem-09292322102D

 57 60  0     0  0  0  0  0  0999 V2000
    2.0000   -5.5194    0.0000 Cl  0  0  0  0  0  0  0  0  0  0  0  0
    2.0000   -7.5194    0.0000 Cl  0  0  0  0  0  0  0  0  0  0  0  0
    7.1962    1.4806    0.0000 O   0  0  0  0  0  0  0  0  0  0  0  0
    3.7320   -2.5194    0.0000 N   0  0  0  0  0  0  0  0  0  0  0  0
    3.7320   -4.5194    0.0000 N   0  0  0  0  0  0  0  0  0  0  0  0
    5.4641    1.4806    0.0000 N   0  0  0  0  0  0  0  0  0  0  0  0
    5.5211    6.5684    0.0000 N   0  0  0  0  0  0  0  0  0  0  0  0
    7.1391    6.5684    0.0000 N   0  0  0  0  0  0  0  0  0  0  0  0
    2.8660   -3.0194    0.0000 C   0  0  0  0  0  0  0  0  0  0  0  0
    4.5981   -3.0194    0.0000 C   0  0  0  0  0  0  0  0  0  0  0  0
    2.8660   -4.0194    0.0000 C   0  0  0  0  0  0  0  0  0  0  0  0
    4.5981   -4.0194    0.0000 C   0  0  0  0  0  0  0  0  0  0  0  0
    3.7320   -1.5194    0.0000 C   0  0  0  0  0  0  0  0  0  0  0  0
    3.7320   -5.5194    0.0000 C   0  0  0  0  0  0  0  0  0  0  0  0
    4.5981   -1.0194    0.0000 C   0  0  0  0  0  0  0  0  0  0  0  0
    2.8660   -6.0194    0.0000 C   0  0  0  0  0  0  0  0  0  0  0  0
    4.5981   -6.0194    0.0000 C   0  0  0  0  0  0  0  0  0  0  0  0
    4.5981   -0.0194    0.0000 C   0  0  0  0  0  0  0  0  0  0  0  0
    2.8660   -7.0194    0.0000 C   0  0  0  0  0  0  0  0  0  0  0  0
    4.5981   -7.0194    0.0000 C   0  0  0  0  0  0  0  0  0  0  0  0
    3.7320   -7.5194    0.0000 C   0  0  0  0  0  0  0  0  0  0  0  0
    5.4641    0.4806    0.0000 C   0  0  0  0  0  0  0  0  0  0  0  0
    6.3301    1.9806    0.0000 C   0  0  0  0  0  0  0  0  0  0  0  0
    6.3301    2.9806    0.0000 C   0  0  0  0  0  0  0  0  0  0  0  0
    6.3301    4.9806    0.0000 C   0  0  0  0  0  0  0  0  0  0  0  0
    5.4641    3.4806    0.0000 C   0  0  0  0  0  0  0  0  0  0  0  0
    7.1962    3.4806    0.0000 C   0  0  0  0  0  0  0  0  0  0  0  0
    5.4641    4.4806    0.0000 C   0  0  0  0  0  0  0  0  0  0  0  0
    7.1962    4.4806    0.0000 C   0  0  0  0  0  0  0  0  0  0  0  0
    6.3301    5.9806    0.0000 C   0  0  0  0  0  0  0  0  0  0  0  0
    5.8301    7.5194    0.0000 C   0  0  0  0  0  0  0  0  0  0  0  0
    6.8301    7.5194    0.0000 C   0  0  0  0  0  0  0  0  0  0  0  0
    2.6540   -2.4368    0.0000 H   0  0  0  0  0  0  0  0  0  0  0  0
    2.2554   -3.1271    0.0000 H   0  0  0  0  0  0  0  0  0  0  0  0
    5.2087   -3.1271    0.0000 H   0  0  0  0  0  0  0  0  0  0  0  0
    4.8101   -2.4368    0.0000 H   0  0  0  0  0  0  0  0  0  0  0  0
    2.2554   -3.9118    0.0000 H   0  0  0  0  0  0  0  0  0  0  0  0
    2.6540   -4.6020    0.0000 H   0  0  0  0  0  0  0  0  0  0  0  0
    4.8101   -4.6020    0.0000 H   0  0  0  0  0  0  0  0  0  0  0  0
    5.2087   -3.9118    0.0000 H   0  0  0  0  0  0  0  0  0  0  0  0
    3.5200   -0.9368    0.0000 H   0  0  0  0  0  0  0  0  0  0  0  0
    3.1215   -1.6271    0.0000 H   0  0  0  0  0  0  0  0  0  0  0  0
    5.1350   -1.3294    0.0000 H   0  0  0  0  0  0  0  0  0  0  0  0
    5.1350   -5.7094    0.0000 H   0  0  0  0  0  0  0  0  0  0  0  0
    4.0611    0.2906    0.0000 H   0  0  0  0  0  0  0  0  0  0  0  0
    5.1350   -7.3294    0.0000 H   0  0  0  0  0  0  0  0  0  0  0  0
    3.7320   -8.1394    0.0000 H   0  0  0  0  0  0  0  0  0  0  0  0
    5.6762   -0.1020    0.0000 H   0  0  0  0  0  0  0  0  0  0  0  0
    6.0747    0.5882    0.0000 H   0  0  0  0  0  0  0  0  0  0  0  0
    4.9272    1.7906    0.0000 H   0  0  0  0  0  0  0  0  0  0  0  0
    4.9272    3.1706    0.0000 H   0  0  0  0  0  0  0  0  0  0  0  0
    7.7331    3.1706    0.0000 H   0  0  0  0  0  0  0  0  0  0  0  0
    4.9272    4.7906    0.0000 H   0  0  0  0  0  0  0  0  0  0  0  0
    7.7331    4.7906    0.0000 H   0  0  0  0  0  0  0  0  0  0  0  0
    4.9315    6.3768    0.0000 H   0  0  0  0  0  0  0  0  0  0  0  0
    5.4657    8.0210    0.0000 H   0  0  0  0  0  0  0  0  0  0  0  0
    7.1946    8.0210    0.0000 H   0  0  0  0  0  0  0  0  0  0  0  0
  1 16  1  0  0  0  0
  2 19  1  0  0  0  0
  3 23  2  0  0  0  0
  4  9  1  0  0  0  0
  4 10  1  0  0  0  0
  4 13  1  0  0  0  0
  5 11  1  0  0  0  0
  5 12  1  0  0  0  0
  5 14  1  0  0  0  0
  6 22  1  0  0  0  0
  6 23  1  0  0  0  0
  6 50  1  0  0  0  0
  7 30  1  0  0  0  0
  7 31  1  0  0  0  0
  7 55  1  0  0  0  0
  8 30  2  0  0  0  0
  8 32  1  0  0  0  0
  9 11  1  0  0  0  0
  9 33  1  0  0  0  0
  9 34  1  0  0  0  0
 10 12  1  0  0  0  0
 10 35  1  0  0  0  0
 10 36  1  0  0  0  0
 11 37  1  0  0  0  0
 11 38  1  0  0  0  0
 12 39  1  0  0  0  0
 12 40  1  0  0  0  0
 13 15  1  0  0  0  0
 13 41  1  0  0  0  0
 13 42  1  0  0  0  0
 14 16  2  0  0  0  0
 14 17  1  0  0  0  0
 15 18  2  0  0  0  0
 15 43  1  0  0  0  0
 16 19  1  0  0  0  0
 17 20  2  0  0  0  0
 17 44  1  0  0  0  0
 18 22  1  0  0  0  0
 18 45  1  0  0  0  0
 19 21  2  0  0  0  0
 20 21  1  0  0  0  0
 20 46  1  0  0  0  0
 21 47  1  0  0  0  0
 22 48  1  0  0  0  0
 22 49  1  0  0  0  0
 23 24  1  0  0  0  0
 24 26  2  0  0  0  0
 24 27  1  0  0  0  0
 25 28  2  0  0  0  0
 25 29  1  0  0  0  0
 25 30  1  0  0  0  0
 26 28  1  0  0  0  0
 26 51  1  0  0  0  0
 27 29  2  0  0  0  0
 27 52  1  0  0  0  0
 28 53  1  0  0  0  0
 29 54  1  0  0  0  0
 31 32  2  0  0  0  0
 31 56  1  0  0  0  0
 32 57  1  0  0  0  0
M  END
> <PUBCHEM_COMPOUND_CID>
11442772

> <PUBCHEM_COMPOUND_CANONICALIZED>
1

> <PUBCHEM_CACTVS_COMPLEXITY>
620

> <PUBCHEM_CACTVS_HBOND_ACCEPTOR>
4

> <PUBCHEM_CACTVS_HBOND_DONOR>
2

> <PUBCHEM_CACTVS_ROTATABLE_BOND>
7

> <PUBCHEM_CACTVS_SUBSKEYS>
AAADceB7oAAGAAAAAAAAAAAAAAAAAWAAAAA8YIAAAAAAAAAB0AAAHgIQAAAADArBmyQ90JfJkACoAjd3dACCgC21F6AJy+E4dtiIaLLBn5HUIQholgLIyacYiACOQAAAAAIAABSAAAAABAAAKAAAAAAAAA==

> <PUBCHEM_IUPAC_OPENEYE_NAME>
N-[(E)-4-[4-(2,3-dichlorophenyl)piperazin-1-yl]but-2-enyl]-4-(1H-imidazol-2-yl)benzamide

> <PUBCHEM_IUPAC_CAS_NAME>
N-[(E)-4-[4-(2,3-dichlorophenyl)-1-piperazinyl]but-2-enyl]-4-(1H-imidazol-2-yl)benzamide

> <PUBCHEM_IUPAC_NAME_MARKUP>
<I>N</I>-[(<I>E</I>)-4-[4-(2,3-dichlorophenyl)piperazin-1-yl]but-2-enyl]-4-(1<I>H</I>-imidazol-2-yl)benzamide

> <PUBCHEM_IUPAC_NAME>
N-[(E)-4-[4-(2,3-dichlorophenyl)piperazin-1-yl]but-2-enyl]-4-(1H-imidazol-2-yl)benzamide

> <PUBCHEM_IUPAC_SYSTEMATIC_NAME>
N-[(E)-4-[4-[2,3-bis(chloranyl)phenyl]piperazin-1-yl]but-2-enyl]-4-(1H-imidazol-2-yl)benzamide

> <PUBCHEM_IUPAC_TRADITIONAL_NAME>
N-[(E)-4-[4-(2,3-dichlorophenyl)piperazino]but-2-enyl]-4-(1H-imidazol-2-yl)benzamide

> <PUBCHEM_IUPAC_INCHI>
InChI=1S/C24H25Cl2N5O/c25-20-4-3-5-21(22(20)26)31-16-14-30(15-17-31)13-2-1-10-29-24(32)19-8-6-18(7-9-19)23-27-11-12-28-23/h1-9,11-12H,10,13-17H2,(H,27,28)(H,29,32)/b2-1+

> <PUBCHEM_IUPAC_INCHIKEY>
DEHCRGUCEKMKFX-OWOJBTEDSA-N

> <PUBCHEM_XLOGP3_AA>
4.2

> <PUBCHEM_EXACT_MASS>
469.1436158

> <PUBCHEM_MOLECULAR_FORMULA>
C24H25Cl2N5O

> <PUBCHEM_MOLECULAR_WEIGHT>
470.4

> <PUBCHEM_OPENEYE_CAN_SMILES>
C1CN(CCN1CC=CCNC(=O)C2=CC=C(C=C2)C3=NC=CN3)C4=C(C(=CC=C4)Cl)Cl

> <PUBCHEM_OPENEYE_ISO_SMILES>
C1CN(CCN1C/C=C/CNC(=O)C2=CC=C(C=C2)C3=NC=CN3)C4=C(C(=CC=C4)Cl)Cl

> <PUBCHEM_CACTVS_TPSA>
64.3

> <PUBCHEM_MONOISOTOPIC_WEIGHT>
469.1436158

> <PUBCHEM_TOTAL_CHARGE>
0

> <PUBCHEM_HEAVY_ATOM_COUNT>
32

> <PUBCHEM_ATOM_DEF_STEREO_COUNT>
0

> <PUBCHEM_ATOM_UDEF_STEREO_COUNT>
0

> <PUBCHEM_BOND_DEF_STEREO_COUNT>
1

> <PUBCHEM_BOND_UDEF_STEREO_COUNT>
0

> <PUBCHEM_ISOTOPIC_ATOM_COUNT>
0

> <PUBCHEM_COMPONENT_COUNT>
1

> <PUBCHEM_CACTVS_TAUTO_COUNT>
-1

> <PUBCHEM_COORDINATE_TYPE>
1
5
255

> <PUBCHEM_BONDANNOTATIONS>
14  16  8
14  17  8
16  19  8
17  20  8
19  21  8
20  21  8
24  26  8
24  27  8
25  28  8
25  29  8
26  28  8
27  29  8
31  32  8
7  30  8
7  31  8
8  30  8
8  32  8

$$$$
