66800916
  -OEChem-09292322352D

 61 65  0     0  0  0  0  0  0999 V2000
    7.1279    2.5079    0.0000 S   0  0  0  0  0  0  0  0  0  0  0  0
   13.4598   -4.2631    0.0000 S   0  0  0  0  0  0  0  0  0  0  0  0
    5.5443    1.7032    0.0000 S   0  0  0  0  0  0  0  0  0  0  0  0
    2.0000    3.5079    0.0000 F   0  0  0  0  0  0  0  0  0  0  0  0
    7.1279    1.5079    0.0000 O   0  0  0  0  0  0  0  0  0  0  0  0
    7.1279    3.5079    0.0000 O   0  0  0  0  0  0  0  0  0  0  0  0
   11.6279   -0.0902    0.0000 N   0  0  0  0  0  0  0  0  0  0  0  0
   12.6279   -1.8222    0.0000 N   0  0  0  0  0  0  0  0  0  0  0  0
    8.1279    2.5079    0.0000 N   0  0  0  0  0  0  0  0  0  0  0  0
   12.7228   -3.5960    0.0000 N   0  0  0  0  0  0  0  0  0  0  0  0
   11.1279   -0.9562    0.0000 C   0  0  0  0  0  0  0  0  0  0  0  0
   12.6279   -0.0902    0.0000 C   0  0  0  0  0  0  0  0  0  0  0  0
   11.6279   -1.8222    0.0000 C   0  0  0  0  0  0  0  0  0  0  0  0
   13.1279   -0.9562    0.0000 C   0  0  0  0  0  0  0  0  0  0  0  0
   11.1279    0.7758    0.0000 C   0  0  0  0  0  0  0  0  0  0  0  0
   10.1279    0.7758    0.0000 C   0  0  0  0  0  0  0  0  0  0  0  0
    9.6279    1.6419    0.0000 C   0  0  0  0  0  0  0  0  0  0  0  0
   13.1279   -2.6883    0.0000 C   0  0  0  0  0  0  0  0  0  0  0  0
    8.6279    1.6419    0.0000 C   0  0  0  0  0  0  0  0  0  0  0  0
   14.1166   -2.7913    0.0000 C   0  0  0  0  0  0  0  0  0  0  0  0
   14.3228   -3.7698    0.0000 C   0  0  0  0  0  0  0  0  0  0  0  0
    6.1279    2.5079    0.0000 C   0  0  0  0  0  0  0  0  0  0  0  0
   14.8609   -2.1235    0.0000 C   0  0  0  0  0  0  0  0  0  0  0  0
    5.5443    3.3126    0.0000 C   0  0  0  0  0  0  0  0  0  0  0  0
    4.5981    3.0079    0.0000 C   0  0  0  0  0  0  0  0  0  0  0  0
   15.2734   -4.0805    0.0000 C   0  0  0  0  0  0  0  0  0  0  0  0
    4.5981    2.0079    0.0000 C   0  0  0  0  0  0  0  0  0  0  0  0
   15.8115   -2.4341    0.0000 C   0  0  0  0  0  0  0  0  0  0  0  0
   16.0177   -3.4126    0.0000 C   0  0  0  0  0  0  0  0  0  0  0  0
    5.8550    4.2631    0.0000 C   0  0  0  0  0  0  0  0  0  0  0  0
    3.7320    3.5079    0.0000 C   0  0  0  0  0  0  0  0  0  0  0  0
    3.7320    1.5079    0.0000 C   0  0  0  0  0  0  0  0  0  0  0  0
    2.8660    3.0079    0.0000 C   0  0  0  0  0  0  0  0  0  0  0  0
    2.8660    2.0079    0.0000 C   0  0  0  0  0  0  0  0  0  0  0  0
   10.6530   -0.5577    0.0000 H   0  0  0  0  0  0  0  0  0  0  0  0
   10.6530   -1.3547    0.0000 H   0  0  0  0  0  0  0  0  0  0  0  0
   13.2105    0.1219    0.0000 H   0  0  0  0  0  0  0  0  0  0  0  0
   12.5202    0.5204    0.0000 H   0  0  0  0  0  0  0  0  0  0  0  0
   11.0453   -2.0343    0.0000 H   0  0  0  0  0  0  0  0  0  0  0  0
   11.7356   -2.4328    0.0000 H   0  0  0  0  0  0  0  0  0  0  0  0
   13.6029   -1.3547    0.0000 H   0  0  0  0  0  0  0  0  0  0  0  0
   13.6029   -0.5577    0.0000 H   0  0  0  0  0  0  0  0  0  0  0  0
   11.7105    0.9879    0.0000 H   0  0  0  0  0  0  0  0  0  0  0  0
   11.0202    1.3864    0.0000 H   0  0  0  0  0  0  0  0  0  0  0  0
    9.5453    0.5638    0.0000 H   0  0  0  0  0  0  0  0  0  0  0  0
   10.2356    0.1653    0.0000 H   0  0  0  0  0  0  0  0  0  0  0  0
   10.2105    1.8539    0.0000 H   0  0  0  0  0  0  0  0  0  0  0  0
    9.5202    2.2524    0.0000 H   0  0  0  0  0  0  0  0  0  0  0  0
    8.0453    1.4298    0.0000 H   0  0  0  0  0  0  0  0  0  0  0  0
    8.7356    1.0313    0.0000 H   0  0  0  0  0  0  0  0  0  0  0  0
    8.4379    3.0448    0.0000 H   0  0  0  0  0  0  0  0  0  0  0  0
   14.7331   -1.5168    0.0000 H   0  0  0  0  0  0  0  0  0  0  0  0
   15.4012   -4.6872    0.0000 H   0  0  0  0  0  0  0  0  0  0  0  0
   16.2729   -2.0201    0.0000 H   0  0  0  0  0  0  0  0  0  0  0  0
   16.6070   -3.6053    0.0000 H   0  0  0  0  0  0  0  0  0  0  0  0
    6.4443    4.0705    0.0000 H   0  0  0  0  0  0  0  0  0  0  0  0
    6.0476    4.8525    0.0000 H   0  0  0  0  0  0  0  0  0  0  0  0
    5.2656    4.4558    0.0000 H   0  0  0  0  0  0  0  0  0  0  0  0
    3.7320    4.1279    0.0000 H   0  0  0  0  0  0  0  0  0  0  0  0
    3.7320    0.8879    0.0000 H   0  0  0  0  0  0  0  0  0  0  0  0
    2.3291    1.6979    0.0000 H   0  0  0  0  0  0  0  0  0  0  0  0
  1  5  2  0  0  0  0
  1  6  2  0  0  0  0
  1  9  1  0  0  0  0
  1 22  1  0  0  0  0
  2 10  1  0  0  0  0
  2 21  1  0  0  0  0
  3 22  1  0  0  0  0
  3 27  1  0  0  0  0
  4 33  1  0  0  0  0
  7 11  1  0  0  0  0
  7 12  1  0  0  0  0
  7 15  1  0  0  0  0
  8 13  1  0  0  0  0
  8 14  1  0  0  0  0
  8 18  1  0  0  0  0
  9 19  1  0  0  0  0
  9 51  1  0  0  0  0
 10 18  2  0  0  0  0
 11 13  1  0  0  0  0
 11 35  1  0  0  0  0
 11 36  1  0  0  0  0
 12 14  1  0  0  0  0
 12 37  1  0  0  0  0
 12 38  1  0  0  0  0
 13 39  1  0  0  0  0
 13 40  1  0  0  0  0
 14 41  1  0  0  0  0
 14 42  1  0  0  0  0
 15 16  1  0  0  0  0
 15 43  1  0  0  0  0
 15 44  1  0  0  0  0
 16 17  1  0  0  0  0
 16 45  1  0  0  0  0
 16 46  1  0  0  0  0
 17 19  1  0  0  0  0
 17 47  1  0  0  0  0
 17 48  1  0  0  0  0
 18 20  1  0  0  0  0
 19 49  1  0  0  0  0
 19 50  1  0  0  0  0
 20 21  1  0  0  0  0
 20 23  2  0  0  0  0
 21 26  2  0  0  0  0
 22 24  2  0  0  0  0
 23 28  1  0  0  0  0
 23 52  1  0  0  0  0
 24 25  1  0  0  0  0
 24 30  1  0  0  0  0
 25 27  2  0  0  0  0
 25 31  1  0  0  0  0
 26 29  1  0  0  0  0
 26 53  1  0  0  0  0
 27 32  1  0  0  0  0
 28 29  2  0  0  0  0
 28 54  1  0  0  0  0
 29 55  1  0  0  0  0
 30 56  1  0  0  0  0
 30 57  1  0  0  0  0
 30 58  1  0  0  0  0
 31 33  2  0  0  0  0
 31 59  1  0  0  0  0
 32 34  2  0  0  0  0
 32 60  1  0  0  0  0
 33 34  1  0  0  0  0
 34 61  1  0  0  0  0
M  END
> <PUBCHEM_COMPOUND_CID>
66800916

> <PUBCHEM_COMPOUND_CANONICALIZED>
1

> <PUBCHEM_CACTVS_COMPLEXITY>
777

> <PUBCHEM_CACTVS_HBOND_ACCEPTOR>
9

> <PUBCHEM_CACTVS_HBOND_DONOR>
1

> <PUBCHEM_CACTVS_ROTATABLE_BOND>
8

> <PUBCHEM_CACTVS_SUBSKEYS>
AAADceB7sQBgAAAAAAAAAAAAAAAAAWJAAAA8YIAAAAAAAFgB/gAAHQQQQAAADADBWgwzsdNAAAqkAiJiYHDDAZAhCBBJmLgoRJiIYKLgmZGUIAxgkALoyAcQgMAOgAAAAAAEAAAAAAAAAAgAAAAAAAAAAA==

> <PUBCHEM_IUPAC_OPENEYE_NAME>
N-[4-[4-(1,2-benzothiazol-3-yl)piperazin-1-yl]butyl]-5-fluoro-3-methyl-benzothiophene-2-sulfonamide

> <PUBCHEM_IUPAC_CAS_NAME>
N-[4-[4-(1,2-benzothiazol-3-yl)-1-piperazinyl]butyl]-5-fluoro-3-methyl-1-benzothiophene-2-sulfonamide

> <PUBCHEM_IUPAC_NAME_MARKUP>
<I>N</I>-[4-[4-(1,2-benzothiazol-3-yl)piperazin-1-yl]butyl]-5-fluoro-3-methyl-1-benzothiophene-2-sulfonamide

> <PUBCHEM_IUPAC_NAME>
N-[4-[4-(1,2-benzothiazol-3-yl)piperazin-1-yl]butyl]-5-fluoro-3-methyl-1-benzothiophene-2-sulfonamide

> <PUBCHEM_IUPAC_SYSTEMATIC_NAME>
N-[4-[4-(1,2-benzothiazol-3-yl)piperazin-1-yl]butyl]-5-fluoranyl-3-methyl-1-benzothiophene-2-sulfonamide

> <PUBCHEM_IUPAC_TRADITIONAL_NAME>
N-[4-[4-(1,2-benzothiazol-3-yl)piperazino]butyl]-5-fluoro-3-methyl-benzothiophene-2-sulfonamide

> <PUBCHEM_IUPAC_INCHI>
InChI=1S/C24H27FN4O2S3/c1-17-20-16-18(25)8-9-21(20)32-24(17)34(30,31)26-10-4-5-11-28-12-14-29(15-13-28)23-19-6-2-3-7-22(19)33-27-23/h2-3,6-9,16,26H,4-5,10-15H2,1H3

> <PUBCHEM_IUPAC_INCHIKEY>
OIEGDDBPBCGRNO-UHFFFAOYSA-N

> <PUBCHEM_XLOGP3_AA>
5.8

> <PUBCHEM_EXACT_MASS>
518.12801780

> <PUBCHEM_MOLECULAR_FORMULA>
C24H27FN4O2S3

> <PUBCHEM_MOLECULAR_WEIGHT>
518.7

> <PUBCHEM_OPENEYE_CAN_SMILES>
CC1=C(SC2=C1C=C(C=C2)F)S(=O)(=O)NCCCCN3CCN(CC3)C4=NSC5=CC=CC=C54

> <PUBCHEM_OPENEYE_ISO_SMILES>
CC1=C(SC2=C1C=C(C=C2)F)S(=O)(=O)NCCCCN3CCN(CC3)C4=NSC5=CC=CC=C54

> <PUBCHEM_CACTVS_TPSA>
130

> <PUBCHEM_MONOISOTOPIC_WEIGHT>
518.12801780

> <PUBCHEM_TOTAL_CHARGE>
0

> <PUBCHEM_HEAVY_ATOM_COUNT>
34

> <PUBCHEM_ATOM_DEF_STEREO_COUNT>
0

> <PUBCHEM_ATOM_UDEF_STEREO_COUNT>
0

> <PUBCHEM_BOND_DEF_STEREO_COUNT>
0

> <PUBCHEM_BOND_UDEF_STEREO_COUNT>
0

> <PUBCHEM_ISOTOPIC_ATOM_COUNT>
0

> <PUBCHEM_COMPONENT_COUNT>
1

> <PUBCHEM_CACTVS_TAUTO_COUNT>
-1

> <PUBCHEM_COORDINATE_TYPE>
1
5
255

> <PUBCHEM_BONDANNOTATIONS>
10  18  8
18  20  8
2  10  8
2  21  8
20  21  8
20  23  8
21  26  8
22  24  8
23  28  8
24  25  8
25  27  8
25  31  8
26  29  8
27  32  8
28  29  8
3  22  8
3  27  8
31  33  8
32  34  8
33  34  8

$$$$
