35995182
  -OEChem-09292322012D

 53 56  0     0  0  0  0  0  0999 V2000
    2.0000   -2.9010    0.0000 Cl  0  0  0  0  0  0  0  0  0  0  0  0
   10.6279    2.4291    0.0000 O   0  0  0  0  0  0  0  0  0  0  0  0
    7.6279   -2.7671    0.0000 O   0  0  0  0  0  0  0  0  0  0  0  0
   14.6279    2.4291    0.0000 O   0  0  0  0  0  0  0  0  0  0  0  0
    8.6279    0.6970    0.0000 N   0  0  0  0  0  0  0  0  0  0  0  0
    7.6279   -1.0350    0.0000 N   0  0  0  0  0  0  0  0  0  0  0  0
    5.5443   -2.7058    0.0000 N   0  0  0  0  0  0  0  0  0  0  0  0
    7.6279    0.6970    0.0000 C   0  0  0  0  0  0  0  0  0  0  0  0
    9.1279   -0.1690    0.0000 C   0  0  0  0  0  0  0  0  0  0  0  0
    7.1279   -0.1690    0.0000 C   0  0  0  0  0  0  0  0  0  0  0  0
    8.6279   -1.0350    0.0000 C   0  0  0  0  0  0  0  0  0  0  0  0
    9.1279    1.5630    0.0000 C   0  0  0  0  0  0  0  0  0  0  0  0
    7.1279   -1.9010    0.0000 C   0  0  0  0  0  0  0  0  0  0  0  0
   10.1279    1.5630    0.0000 C   0  0  0  0  0  0  0  0  0  0  0  0
    6.1279   -1.9010    0.0000 C   0  0  0  0  0  0  0  0  0  0  0  0
    5.5443   -1.0963    0.0000 C   0  0  0  0  0  0  0  0  0  0  0  0
    4.5981   -2.4010    0.0000 C   0  0  0  0  0  0  0  0  0  0  0  0
    4.5981   -1.4010    0.0000 C   0  0  0  0  0  0  0  0  0  0  0  0
    3.7320   -2.9010    0.0000 C   0  0  0  0  0  0  0  0  0  0  0  0
    3.7320   -0.9010    0.0000 C   0  0  0  0  0  0  0  0  0  0  0  0
   11.6279    2.4291    0.0000 C   0  0  0  0  0  0  0  0  0  0  0  0
    2.8660   -2.4010    0.0000 C   0  0  0  0  0  0  0  0  0  0  0  0
    2.8660   -1.4010    0.0000 C   0  0  0  0  0  0  0  0  0  0  0  0
   12.1279    3.2951    0.0000 C   0  0  0  0  0  0  0  0  0  0  0  0
   12.1279    1.5630    0.0000 C   0  0  0  0  0  0  0  0  0  0  0  0
   13.1279    3.2951    0.0000 C   0  0  0  0  0  0  0  0  0  0  0  0
   13.1279    1.5630    0.0000 C   0  0  0  0  0  0  0  0  0  0  0  0
   13.6279    2.4291    0.0000 C   0  0  0  0  0  0  0  0  0  0  0  0
   15.1279    3.2951    0.0000 C   0  0  0  0  0  0  0  0  0  0  0  0
    7.7356    1.3076    0.0000 H   0  0  0  0  0  0  0  0  0  0  0  0
    7.0453    0.9091    0.0000 H   0  0  0  0  0  0  0  0  0  0  0  0
    9.6028   -0.5675    0.0000 H   0  0  0  0  0  0  0  0  0  0  0  0
    9.6028    0.2295    0.0000 H   0  0  0  0  0  0  0  0  0  0  0  0
    6.6530    0.2295    0.0000 H   0  0  0  0  0  0  0  0  0  0  0  0
    6.6530   -0.5675    0.0000 H   0  0  0  0  0  0  0  0  0  0  0  0
    8.5202   -1.6456    0.0000 H   0  0  0  0  0  0  0  0  0  0  0  0
    9.2105   -1.2471    0.0000 H   0  0  0  0  0  0  0  0  0  0  0  0
    9.2356    2.1736    0.0000 H   0  0  0  0  0  0  0  0  0  0  0  0
    8.5453    1.7751    0.0000 H   0  0  0  0  0  0  0  0  0  0  0  0
   10.0202    0.9525    0.0000 H   0  0  0  0  0  0  0  0  0  0  0  0
   10.7105    1.3510    0.0000 H   0  0  0  0  0  0  0  0  0  0  0  0
    5.7369   -3.2951    0.0000 H   0  0  0  0  0  0  0  0  0  0  0  0
    5.7369   -0.5070    0.0000 H   0  0  0  0  0  0  0  0  0  0  0  0
    3.7320   -3.5210    0.0000 H   0  0  0  0  0  0  0  0  0  0  0  0
    3.7320   -0.2810    0.0000 H   0  0  0  0  0  0  0  0  0  0  0  0
    2.3291   -1.0910    0.0000 H   0  0  0  0  0  0  0  0  0  0  0  0
   11.8179    3.8320    0.0000 H   0  0  0  0  0  0  0  0  0  0  0  0
   11.8179    1.0261    0.0000 H   0  0  0  0  0  0  0  0  0  0  0  0
   13.4379    3.8320    0.0000 H   0  0  0  0  0  0  0  0  0  0  0  0
   13.4379    1.0261    0.0000 H   0  0  0  0  0  0  0  0  0  0  0  0
   15.6648    2.9851    0.0000 H   0  0  0  0  0  0  0  0  0  0  0  0
   15.4379    3.8320    0.0000 H   0  0  0  0  0  0  0  0  0  0  0  0
   14.5910    3.6051    0.0000 H   0  0  0  0  0  0  0  0  0  0  0  0
  1 22  1  0  0  0  0
  2 14  1  0  0  0  0
  2 21  1  0  0  0  0
  3 13  2  0  0  0  0
  4 28  1  0  0  0  0
  4 29  1  0  0  0  0
  5  8  1  0  0  0  0
  5  9  1  0  0  0  0
  5 12  1  0  0  0  0
  6 10  1  0  0  0  0
  6 11  1  0  0  0  0
  6 13  1  0  0  0  0
  7 15  1  0  0  0  0
  7 17  1  0  0  0  0
  7 42  1  0  0  0  0
  8 10  1  0  0  0  0
  8 30  1  0  0  0  0
  8 31  1  0  0  0  0
  9 11  1  0  0  0  0
  9 32  1  0  0  0  0
  9 33  1  0  0  0  0
 10 34  1  0  0  0  0
 10 35  1  0  0  0  0
 11 36  1  0  0  0  0
 11 37  1  0  0  0  0
 12 14  1  0  0  0  0
 12 38  1  0  0  0  0
 12 39  1  0  0  0  0
 13 15  1  0  0  0  0
 14 40  1  0  0  0  0
 14 41  1  0  0  0  0
 15 16  2  0  0  0  0
 16 18  1  0  0  0  0
 16 43  1  0  0  0  0
 17 18  2  0  0  0  0
 17 19  1  0  0  0  0
 18 20  1  0  0  0  0
 19 22  2  0  0  0  0
 19 44  1  0  0  0  0
 20 23  2  0  0  0  0
 20 45  1  0  0  0  0
 21 24  2  0  0  0  0
 21 25  1  0  0  0  0
 22 23  1  0  0  0  0
 23 46  1  0  0  0  0
 24 26  1  0  0  0  0
 24 47  1  0  0  0  0
 25 27  2  0  0  0  0
 25 48  1  0  0  0  0
 26 28  2  0  0  0  0
 26 49  1  0  0  0  0
 27 28  1  0  0  0  0
 27 50  1  0  0  0  0
 29 51  1  0  0  0  0
 29 52  1  0  0  0  0
 29 53  1  0  0  0  0
M  END
> <PUBCHEM_COMPOUND_CID>
35995182

> <PUBCHEM_COMPOUND_CANONICALIZED>
1

> <PUBCHEM_CACTVS_COMPLEXITY>
535

> <PUBCHEM_CACTVS_HBOND_ACCEPTOR>
4

> <PUBCHEM_CACTVS_HBOND_DONOR>
1

> <PUBCHEM_CACTVS_ROTATABLE_BOND>
6

> <PUBCHEM_CACTVS_SUBSKEYS>
AAADceB7MAAEAAAAAAAAAAAAAAAAAWAAAAA8YIAAAAAAAFgB9AAAHgIQAAAADA7hniYyxvPJlACoAyVyVACCiCAnJyAImSG+btgOZvLFt7uXOSjk1hHY6YfYyYCeBQAAAAICAAAKAAAABAQAAAAAAAAAAA==

> <PUBCHEM_IUPAC_OPENEYE_NAME>
(6-chloro-1H-indol-2-yl)-[4-[2-(4-methoxyphenoxy)ethyl]piperazin-1-yl]methanone

> <PUBCHEM_IUPAC_CAS_NAME>
(6-chloro-1H-indol-2-yl)-[4-[2-(4-methoxyphenoxy)ethyl]-1-piperazinyl]methanone

> <PUBCHEM_IUPAC_NAME_MARKUP>
(6-chloro-1<I>H</I>-indol-2-yl)-[4-[2-(4-methoxyphenoxy)ethyl]piperazin-1-yl]methanone

> <PUBCHEM_IUPAC_NAME>
(6-chloro-1H-indol-2-yl)-[4-[2-(4-methoxyphenoxy)ethyl]piperazin-1-yl]methanone

> <PUBCHEM_IUPAC_SYSTEMATIC_NAME>
(6-chloranyl-1H-indol-2-yl)-[4-[2-(4-methoxyphenoxy)ethyl]piperazin-1-yl]methanone

> <PUBCHEM_IUPAC_TRADITIONAL_NAME>
(6-chloro-1H-indol-2-yl)-[4-[2-(4-methoxyphenoxy)ethyl]piperazino]methanone

> <PUBCHEM_IUPAC_INCHI>
InChI=1S/C22H24ClN3O3/c1-28-18-4-6-19(7-5-18)29-13-12-25-8-10-26(11-9-25)22(27)21-14-16-2-3-17(23)15-20(16)24-21/h2-7,14-15,24H,8-13H2,1H3

> <PUBCHEM_IUPAC_INCHIKEY>
LURCKJAGHVQMQC-UHFFFAOYSA-N

> <PUBCHEM_XLOGP3_AA>
3.9

> <PUBCHEM_EXACT_MASS>
413.1506193

> <PUBCHEM_MOLECULAR_FORMULA>
C22H24ClN3O3

> <PUBCHEM_MOLECULAR_WEIGHT>
413.9

> <PUBCHEM_OPENEYE_CAN_SMILES>
COC1=CC=C(C=C1)OCCN2CCN(CC2)C(=O)C3=CC4=C(N3)C=C(C=C4)Cl

> <PUBCHEM_OPENEYE_ISO_SMILES>
COC1=CC=C(C=C1)OCCN2CCN(CC2)C(=O)C3=CC4=C(N3)C=C(C=C4)Cl

> <PUBCHEM_CACTVS_TPSA>
57.8

> <PUBCHEM_MONOISOTOPIC_WEIGHT>
413.1506193

> <PUBCHEM_TOTAL_CHARGE>
0

> <PUBCHEM_HEAVY_ATOM_COUNT>
29

> <PUBCHEM_ATOM_DEF_STEREO_COUNT>
0

> <PUBCHEM_ATOM_UDEF_STEREO_COUNT>
0

> <PUBCHEM_BOND_DEF_STEREO_COUNT>
0

> <PUBCHEM_BOND_UDEF_STEREO_COUNT>
0

> <PUBCHEM_ISOTOPIC_ATOM_COUNT>
0

> <PUBCHEM_COMPONENT_COUNT>
1

> <PUBCHEM_CACTVS_TAUTO_COUNT>
-1

> <PUBCHEM_COORDINATE_TYPE>
1
5
255

> <PUBCHEM_BONDANNOTATIONS>
15  16  8
16  18  8
17  18  8
17  19  8
18  20  8
19  22  8
20  23  8
21  24  8
21  25  8
22  23  8
24  26  8
25  27  8
26  28  8
27  28  8
7  15  8
7  17  8

$$$$
