44324980
  -OEChem-09292322132D

 37 39  0     1  0  0  0  0  0999 V2000
    2.0000    0.3524    0.0000 O   0  0  0  0  0  0  0  0  0  0  0  0
    5.5321   -0.6684    0.0000 O   0  0  0  0  0  0  0  0  0  0  0  0
    5.5442    3.4008    0.0000 O   0  0  0  0  0  0  0  0  0  0  0  0
    2.9061   -1.2031    0.0000 N   0  0  3  0  0  0  0  0  0  0  0  0
    3.8000   -0.6684    0.0000 C   0  0  1  0  0  0  0  0  0  0  0  0
    3.8000    0.3316    0.0000 C   0  0  2  0  0  0  0  0  0  0  0  0
    2.9061    0.8663    0.0000 C   0  0  0  0  0  0  0  0  0  0  0  0
    4.6660   -1.1684    0.0000 C   0  0  0  0  0  0  0  0  0  0  0  0
    4.6660    0.8316    0.0000 C   0  0  0  0  0  0  0  0  0  0  0  0
    2.0000   -0.6892    0.0000 C   0  0  0  0  0  0  0  0  0  0  0  0
    2.9176   -2.2030    0.0000 C   0  0  0  0  0  0  0  0  0  0  0  0
    5.5321    0.3316    0.0000 C   0  0  0  0  0  0  0  0  0  0  0  0
    2.0574   -2.7130    0.0000 C   0  0  0  0  0  0  0  0  0  0  0  0
    4.6500    1.8731    0.0000 C   0  0  0  0  0  0  0  0  0  0  0  0
    6.4421    0.8384    0.0000 C   0  0  0  0  0  0  0  0  0  0  0  0
    5.5480    2.4008    0.0000 C   0  0  0  0  0  0  0  0  0  0  0  0
    6.4501    1.8800    0.0000 C   0  0  0  0  0  0  0  0  0  0  0  0
    2.0690   -3.7129    0.0000 C   0  0  0  0  0  0  0  0  0  0  0  0
    3.8066   -1.5184    0.0000 H   0  0  0  0  0  0  0  0  0  0  0  0
    3.8066    1.1816    0.0000 H   0  0  0  0  0  0  0  0  0  0  0  0
    3.3107    1.3360    0.0000 H   0  0  0  0  0  0  0  0  0  0  0  0
    2.5124    1.3453    0.0000 H   0  0  0  0  0  0  0  0  0  0  0  0
    4.2675   -1.6434    0.0000 H   0  0  0  0  0  0  0  0  0  0  0  0
    5.0646   -1.6434    0.0000 H   0  0  0  0  0  0  0  0  0  0  0  0
    1.3891   -0.5831    0.0000 H   0  0  0  0  0  0  0  0  0  0  0  0
    1.7909   -1.2729    0.0000 H   0  0  0  0  0  0  0  0  0  0  0  0
    3.1364   -2.7831    0.0000 H   0  0  0  0  0  0  0  0  0  0  0  0
    3.5269   -2.0883    0.0000 H   0  0  0  0  0  0  0  0  0  0  0  0
    1.8387   -2.1329    0.0000 H   0  0  0  0  0  0  0  0  0  0  0  0
    1.4482   -2.8277    0.0000 H   0  0  0  0  0  0  0  0  0  0  0  0
    4.1095    2.1769    0.0000 H   0  0  0  0  0  0  0  0  0  0  0  0
    6.9754    0.5223    0.0000 H   0  0  0  0  0  0  0  0  0  0  0  0
    6.9882    2.1880    0.0000 H   0  0  0  0  0  0  0  0  0  0  0  0
    1.4490   -3.7201    0.0000 H   0  0  0  0  0  0  0  0  0  0  0  0
    2.0762   -4.3329    0.0000 H   0  0  0  0  0  0  0  0  0  0  0  0
    2.6890   -3.7058    0.0000 H   0  0  0  0  0  0  0  0  0  0  0  0
    6.0799    3.7129    0.0000 H   0  0  0  0  0  0  0  0  0  0  0  0
  1  7  1  0  0  0  0
  1 10  1  0  0  0  0
  2  8  1  0  0  0  0
  2 12  1  0  0  0  0
  3 16  1  0  0  0  0
  3 37  1  0  0  0  0
  4  5  1  0  0  0  0
  4 10  1  0  0  0  0
  4 11  1  0  0  0  0
  5  6  1  0  0  0  0
  5  8  1  0  0  0  0
  5 19  1  6  0  0  0
  6  7  1  0  0  0  0
  6  9  1  0  0  0  0
  6 20  1  1  0  0  0
  7 21  1  0  0  0  0
  7 22  1  0  0  0  0
  8 23  1  0  0  0  0
  8 24  1  0  0  0  0
  9 12  2  0  0  0  0
  9 14  1  0  0  0  0
 10 25  1  0  0  0  0
 10 26  1  0  0  0  0
 11 13  1  0  0  0  0
 11 27  1  0  0  0  0
 11 28  1  0  0  0  0
 12 15  1  0  0  0  0
 13 18  1  0  0  0  0
 13 29  1  0  0  0  0
 13 30  1  0  0  0  0
 14 16  2  0  0  0  0
 14 31  1  0  0  0  0
 15 17  2  0  0  0  0
 15 32  1  0  0  0  0
 16 17  1  0  0  0  0
 17 33  1  0  0  0  0
 18 34  1  0  0  0  0
 18 35  1  0  0  0  0
 18 36  1  0  0  0  0
M  END
> <PUBCHEM_COMPOUND_CID>
44324980

> <PUBCHEM_COMPOUND_CANONICALIZED>
1

> <PUBCHEM_CACTVS_COMPLEXITY>
286

> <PUBCHEM_CACTVS_HBOND_ACCEPTOR>
4

> <PUBCHEM_CACTVS_HBOND_DONOR>
1

> <PUBCHEM_CACTVS_ROTATABLE_BOND>
2

> <PUBCHEM_CACTVS_SUBSKEYS>
AAADceByMAAAAAAAAAAAAAAAAAAAAAAAAAA8SIAAAAAAAACxAAAAHgAACAAADSzhmAYyBoMABgCAAiBCAAACCAAgIAAIiAAOCIgOJiKGsRuPeCCmwBGYuAfw8P8OgQABAAAIAAACAAIAABAAAAAAAAAAAA==

> <PUBCHEM_IUPAC_OPENEYE_NAME>
(4aS,10bR)-4-propyl-3,4a,5,10b-tetrahydro-1H-chromeno[3,4-d][1,3]oxazin-9-ol

> <PUBCHEM_IUPAC_CAS_NAME>
(4aS,10bR)-4-propyl-3,4a,5,10b-tetrahydro-1H-[1]benzopyrano[3,4-d][1,3]oxazin-9-ol

> <PUBCHEM_IUPAC_NAME_MARKUP>
(4<I>a</I><I>S</I>,10<I>b</I><I>R</I>)-4-propyl-3,4<I>a</I>,5,10<I>b</I>-tetrahydro-1<I>H</I>-chromeno[3,4-d][1,3]oxazin-9-ol

> <PUBCHEM_IUPAC_NAME>
(4aS,10bR)-4-propyl-3,4a,5,10b-tetrahydro-1H-chromeno[3,4-d][1,3]oxazin-9-ol

> <PUBCHEM_IUPAC_SYSTEMATIC_NAME>
(4aS,10bR)-4-propyl-3,4a,5,10b-tetrahydro-1H-chromeno[3,4-d][1,3]oxazin-9-ol

> <PUBCHEM_IUPAC_TRADITIONAL_NAME>
(4aS,10bR)-4-propyl-3,4a,5,10b-tetrahydro-1H-chromeno[3,4-d][1,3]oxazin-9-ol

> <PUBCHEM_IUPAC_INCHI>
InChI=1S/C14H19NO3/c1-2-5-15-9-17-7-12-11-6-10(16)3-4-14(11)18-8-13(12)15/h3-4,6,12-13,16H,2,5,7-9H2,1H3/t12-,13-/m1/s1

> <PUBCHEM_IUPAC_INCHIKEY>
ZFSOBPVEIKTNQS-CHWSQXEVSA-N

> <PUBCHEM_XLOGP3_AA>
2.1

> <PUBCHEM_EXACT_MASS>
249.13649347

> <PUBCHEM_MOLECULAR_FORMULA>
C14H19NO3

> <PUBCHEM_MOLECULAR_WEIGHT>
249.30

> <PUBCHEM_OPENEYE_CAN_SMILES>
CCCN1COCC2C1COC3=C2C=C(C=C3)O

> <PUBCHEM_OPENEYE_ISO_SMILES>
CCCN1COC[C@H]2[C@H]1COC3=C2C=C(C=C3)O

> <PUBCHEM_CACTVS_TPSA>
41.9

> <PUBCHEM_MONOISOTOPIC_WEIGHT>
249.13649347

> <PUBCHEM_TOTAL_CHARGE>
0

> <PUBCHEM_HEAVY_ATOM_COUNT>
18

> <PUBCHEM_ATOM_DEF_STEREO_COUNT>
2

> <PUBCHEM_ATOM_UDEF_STEREO_COUNT>
0

> <PUBCHEM_BOND_DEF_STEREO_COUNT>
0

> <PUBCHEM_BOND_UDEF_STEREO_COUNT>
0

> <PUBCHEM_ISOTOPIC_ATOM_COUNT>
0

> <PUBCHEM_COMPONENT_COUNT>
1

> <PUBCHEM_CACTVS_TAUTO_COUNT>
-1

> <PUBCHEM_COORDINATE_TYPE>
1
5
255

> <PUBCHEM_BONDANNOTATIONS>
12  15  8
14  16  8
15  17  8
16  17  8
5  19  6
6  20  5
9  12  8
9  14  8

$$$$
