45264588
  -OEChem-09292322202D

 41 43  0     1  0  0  0  0  0999 V2000
    3.6556    0.0000    0.0000 Cl  0  0  0  0  0  0  0  0  0  0  0  0
    3.1804    7.5787    0.0000 O   0  0  0  0  0  0  0  0  0  0  0  0
    4.3495    5.2703    0.0000 O   0  0  0  0  0  0  0  0  0  0  0  0
    5.5817    9.2746    0.0000 N   0  0  0  0  0  0  0  0  0  0  0  0
    6.3184    8.2919    0.0000 C   0  0  3  0  0  0  0  0  0  0  0  0
    6.0595    7.3260    0.0000 C   0  0  3  0  0  0  0  0  0  0  0  0
    4.0095    7.0195    0.0000 C   0  0  0  0  0  0  0  0  0  0  0  0
    4.2851    7.9808    0.0000 C   0  0  0  0  0  0  0  0  0  0  0  0
    4.8385    6.4604    0.0000 C   0  0  0  0  0  0  0  0  0  0  0  0
    7.7173    7.7831    0.0000 C   0  0  0  0  0  0  0  0  0  0  0  0
    7.4585    6.8172    0.0000 C   0  0  0  0  0  0  0  0  0  0  0  0
    3.7338    6.0583    0.0000 C   0  0  0  0  0  0  0  0  0  0  0  0
    5.0817   10.1406    0.0000 C   0  0  0  0  0  0  0  0  0  0  0  0
    2.7344    6.0234    0.0000 C   0  0  0  0  0  0  0  0  0  0  0  0
    2.3924    6.9631    0.0000 C   0  0  0  0  0  0  0  0  0  0  0  0
    2.1752    5.1943    0.0000 C   0  0  0  0  0  0  0  0  0  0  0  0
    2.6136    4.2956    0.0000 C   0  0  0  0  0  0  0  0  0  0  0  0
    1.1777    5.2641    0.0000 C   0  0  0  0  0  0  0  0  0  0  0  0
    2.0544    3.4665    0.0000 C   0  0  0  0  0  0  0  0  0  0  0  0
    0.6185    4.4351    0.0000 C   0  0  0  0  0  0  0  0  0  0  0  0
    1.0569    3.5363    0.0000 C   0  0  0  0  0  0  0  0  0  0  0  0
    6.6877    8.7899    0.0000 H   0  0  0  0  0  0  0  0  0  0  0  0
    6.1423    6.7116    0.0000 H   0  0  0  0  0  0  0  0  0  0  0  0
    4.2800    8.6008    0.0000 H   0  0  0  0  0  0  0  0  0  0  0  0
    3.6708    8.0646    0.0000 H   0  0  0  0  0  0  0  0  0  0  0  0
    4.4327    5.9916    0.0000 H   0  0  0  0  0  0  0  0  0  0  0  0
    5.2552    6.0012    0.0000 H   0  0  0  0  0  0  0  0  0  0  0  0
    8.3112    7.6053    0.0000 H   0  0  0  0  0  0  0  0  0  0  0  0
    7.9122    8.3717    0.0000 H   0  0  0  0  0  0  0  0  0  0  0  0
    7.2635    6.2286    0.0000 H   0  0  0  0  0  0  0  0  0  0  0  0
    8.0524    6.6394    0.0000 H   0  0  0  0  0  0  0  0  0  0  0  0
    5.6187   10.4506    0.0000 H   0  0  0  0  0  0  0  0  0  0  0  0
    4.7717   10.6775    0.0000 H   0  0  0  0  0  0  0  0  0  0  0  0
    4.5448    9.8306    0.0000 H   0  0  0  0  0  0  0  0  0  0  0  0
    1.7964    7.1340    0.0000 H   0  0  0  0  0  0  0  0  0  0  0  0
    3.2321    4.2523    0.0000 H   0  0  0  0  0  0  0  0  0  0  0  0
    0.9059    5.8214    0.0000 H   0  0  0  0  0  0  0  0  0  0  0  0
    2.3262    2.9093    0.0000 H   0  0  0  0  0  0  0  0  0  0  0  0
    0.0000    4.4783    0.0000 H   0  0  0  0  0  0  0  0  0  0  0  0
    0.7102    3.0223    0.0000 H   0  0  0  0  0  0  0  0  0  0  0  0
    4.6556    0.0000    0.0000 H   0  0  0  0  0  0  0  0  0  0  0  0
  1 41  1  0  0  0  0
  2  7  1  0  0  0  0
  2 15  1  0  0  0  0
  3 12  2  0  0  0  0
  4  5  1  0  0  0  0
  4  6  1  0  0  0  0
  4 13  1  0  0  0  0
  5  8  1  0  0  0  0
  5 10  1  0  0  0  0
  5 22  1  0  0  0  0
  6  9  1  0  0  0  0
  6 11  1  0  0  0  0
  6 23  1  0  0  0  0
  7  8  1  0  0  0  0
  7  9  1  0  0  0  0
  7 12  1  0  0  0  0
  8 24  1  0  0  0  0
  8 25  1  0  0  0  0
  9 26  1  0  0  0  0
  9 27  1  0  0  0  0
 10 11  1  0  0  0  0
 10 28  1  0  0  0  0
 10 29  1  0  0  0  0
 11 30  1  0  0  0  0
 11 31  1  0  0  0  0
 12 14  1  0  0  0  0
 13 32  1  0  0  0  0
 13 33  1  0  0  0  0
 13 34  1  0  0  0  0
 14 15  2  0  0  0  0
 14 16  1  0  0  0  0
 15 35  1  0  0  0  0
 16 17  2  0  0  0  0
 16 18  1  0  0  0  0
 17 19  1  0  0  0  0
 17 36  1  0  0  0  0
 18 20  2  0  0  0  0
 18 37  1  0  0  0  0
 19 21  2  0  0  0  0
 19 38  1  0  0  0  0
 20 21  1  0  0  0  0
 20 39  1  0  0  0  0
 21 40  1  0  0  0  0
M  END
> <PUBCHEM_COMPOUND_CID>
45264588

> <PUBCHEM_COMPOUND_CANONICALIZED>
1

> <PUBCHEM_CACTVS_COMPLEXITY>
436

> <PUBCHEM_CACTVS_HBOND_ACCEPTOR>
3

> <PUBCHEM_CACTVS_HBOND_DONOR>
1

> <PUBCHEM_CACTVS_ROTATABLE_BOND>
1

> <PUBCHEM_CACTVS_SUBSKEYS>
AAADceB6MAAEAAAAAAAAAAAAAAAAAWIAAAA8QAAABgAAAAABAAAAHgAAAAAADGzhmAYyAIMABACIAqBSAAICCAAgIAAIiAFIAMgIIDKAlRSEIAAmwACIiIecyOCOAAAAAAAAAAAAAAAAAAAAAAAAAAAAAA==

> <PUBCHEM_IUPAC_OPENEYE_NAME>
8-methyl-4'-phenyl-spiro[8-azabicyclo[3.2.1]octane-3,2'-furan]-3'-one;hydrochloride

> <PUBCHEM_IUPAC_CAS_NAME>
8-methyl-4'-phenyl-3'-spiro[8-azabicyclo[3.2.1]octane-3,2'-furan]one;hydrochloride

> <PUBCHEM_IUPAC_NAME_MARKUP>
8-methyl-4&apos;-phenylspiro[8-azabicyclo[3.2.1]octane-3,2&apos;-furan]-3&apos;-one;hydrochloride

> <PUBCHEM_IUPAC_NAME>
8-methyl-4'-phenylspiro[8-azabicyclo[3.2.1]octane-3,2'-furan]-3'-one;hydrochloride

> <PUBCHEM_IUPAC_SYSTEMATIC_NAME>
8-methyl-4'-phenyl-spiro[8-azabicyclo[3.2.1]octane-3,2'-furan]-3'-one;hydrochloride

> <PUBCHEM_IUPAC_TRADITIONAL_NAME>
8-methyl-4'-phenyl-spiro[8-azabicyclo[3.2.1]octane-3,2'-furan]-3'-one;hydrochloride

> <PUBCHEM_IUPAC_INCHI>
InChI=1S/C17H19NO2.ClH/c1-18-13-7-8-14(18)10-17(9-13)16(19)15(11-20-17)12-5-3-2-4-6-12;/h2-6,11,13-14H,7-10H2,1H3;1H

> <PUBCHEM_IUPAC_INCHIKEY>
LVIYUINPLJPYRR-UHFFFAOYSA-N

> <PUBCHEM_EXACT_MASS>
305.1182566

> <PUBCHEM_MOLECULAR_FORMULA>
C17H20ClNO2

> <PUBCHEM_MOLECULAR_WEIGHT>
305.8

> <PUBCHEM_OPENEYE_CAN_SMILES>
CN1C2CCC1CC3(C2)C(=O)C(=CO3)C4=CC=CC=C4.Cl

> <PUBCHEM_OPENEYE_ISO_SMILES>
CN1C2CCC1CC3(C2)C(=O)C(=CO3)C4=CC=CC=C4.Cl

> <PUBCHEM_CACTVS_TPSA>
29.5

> <PUBCHEM_MONOISOTOPIC_WEIGHT>
305.1182566

> <PUBCHEM_TOTAL_CHARGE>
0

> <PUBCHEM_HEAVY_ATOM_COUNT>
21

> <PUBCHEM_ATOM_DEF_STEREO_COUNT>
0

> <PUBCHEM_ATOM_UDEF_STEREO_COUNT>
2

> <PUBCHEM_BOND_DEF_STEREO_COUNT>
0

> <PUBCHEM_BOND_UDEF_STEREO_COUNT>
0

> <PUBCHEM_ISOTOPIC_ATOM_COUNT>
0

> <PUBCHEM_COMPONENT_COUNT>
2

> <PUBCHEM_CACTVS_TAUTO_COUNT>
-1

> <PUBCHEM_COORDINATE_TYPE>
1
5
255

> <PUBCHEM_BONDANNOTATIONS>
16  17  8
16  18  8
17  19  8
18  20  8
19  21  8
20  21  8
5  10  3
6  11  3

$$$$
