44407347
  -OEChem-09292322272D

 67 69  0     0  0  0  0  0  0999 V2000
    6.6469   -6.4788    0.0000 F   0  0  0  0  0  0  0  0  0  0  0  0
    8.0129   -6.1128    0.0000 F   0  0  0  0  0  0  0  0  0  0  0  0
    7.6469   -4.7468    0.0000 F   0  0  0  0  0  0  0  0  0  0  0  0
    2.0000    3.1976    0.0000 O   0  0  0  0  0  0  0  0  0  0  0  0
    4.6167    6.4788    0.0000 O   0  0  0  0  0  0  0  0  0  0  0  0
    5.4149   -0.6128    0.0000 N   0  0  0  0  0  0  0  0  0  0  0  0
    5.4149   -2.6128    0.0000 N   0  0  0  0  0  0  0  0  0  0  0  0
    3.6828    3.3872    0.0000 N   0  0  0  0  0  0  0  0  0  0  0  0
    4.5488   -4.1128    0.0000 N   0  0  0  0  0  0  0  0  0  0  0  0
    5.4149   -5.6128    0.0000 N   0  0  0  0  0  0  0  0  0  0  0  0
    6.2809   -1.1128    0.0000 C   0  0  0  0  0  0  0  0  0  0  0  0
    4.5488   -1.1128    0.0000 C   0  0  0  0  0  0  0  0  0  0  0  0
    5.4149    0.3872    0.0000 C   0  0  0  0  0  0  0  0  0  0  0  0
    6.2809   -2.1128    0.0000 C   0  0  0  0  0  0  0  0  0  0  0  0
    4.5488   -2.1128    0.0000 C   0  0  0  0  0  0  0  0  0  0  0  0
    4.5488    0.8872    0.0000 C   0  0  0  0  0  0  0  0  0  0  0  0
    4.5488    1.8872    0.0000 C   0  0  0  0  0  0  0  0  0  0  0  0
    3.6828    2.3872    0.0000 C   0  0  0  0  0  0  0  0  0  0  0  0
    5.4149   -3.6128    0.0000 C   0  0  0  0  0  0  0  0  0  0  0  0
    4.5838    3.8211    0.0000 C   0  0  0  0  0  0  0  0  0  0  0  0
    3.6828   -5.6128    0.0000 C   0  0  0  0  0  0  0  0  0  0  0  0
    4.8063    4.7960    0.0000 C   0  0  0  0  0  0  0  0  0  0  0  0
    2.7818    3.8211    0.0000 C   0  0  0  0  0  0  0  0  0  0  0  0
    4.5488   -5.1128    0.0000 C   0  0  0  0  0  0  0  0  0  0  0  0
    6.2809   -4.1128    0.0000 C   0  0  0  0  0  0  0  0  0  0  0  0
    2.5593    4.7960    0.0000 C   0  0  0  0  0  0  0  0  0  0  0  0
    3.1828    5.5778    0.0000 C   0  0  0  0  0  0  0  0  0  0  0  0
    4.1828    5.5778    0.0000 C   0  0  0  0  0  0  0  0  0  0  0  0
    6.2809   -5.1128    0.0000 C   0  0  0  0  0  0  0  0  0  0  0  0
    2.8168   -6.1128    0.0000 C   0  0  0  0  0  0  0  0  0  0  0  0
    4.1828   -6.4788    0.0000 C   0  0  0  0  0  0  0  0  0  0  0  0
    3.1828   -4.7468    0.0000 C   0  0  0  0  0  0  0  0  0  0  0  0
    7.1469   -5.6128    0.0000 C   0  0  0  0  0  0  0  0  0  0  0  0
    6.8915   -1.2205    0.0000 H   0  0  0  0  0  0  0  0  0  0  0  0
    6.4929   -0.5302    0.0000 H   0  0  0  0  0  0  0  0  0  0  0  0
    4.3368   -0.5302    0.0000 H   0  0  0  0  0  0  0  0  0  0  0  0
    3.9382   -1.2205    0.0000 H   0  0  0  0  0  0  0  0  0  0  0  0
    6.0254    0.2795    0.0000 H   0  0  0  0  0  0  0  0  0  0  0  0
    5.6269    0.9698    0.0000 H   0  0  0  0  0  0  0  0  0  0  0  0
    6.4929   -2.6954    0.0000 H   0  0  0  0  0  0  0  0  0  0  0  0
    6.8915   -2.0051    0.0000 H   0  0  0  0  0  0  0  0  0  0  0  0
    3.9382   -2.0051    0.0000 H   0  0  0  0  0  0  0  0  0  0  0  0
    4.3368   -2.6954    0.0000 H   0  0  0  0  0  0  0  0  0  0  0  0
    3.9382    0.9949    0.0000 H   0  0  0  0  0  0  0  0  0  0  0  0
    4.3368    0.3046    0.0000 H   0  0  0  0  0  0  0  0  0  0  0  0
    5.1594    1.7795    0.0000 H   0  0  0  0  0  0  0  0  0  0  0  0
    4.7609    2.4698    0.0000 H   0  0  0  0  0  0  0  0  0  0  0  0
    3.0722    2.4949    0.0000 H   0  0  0  0  0  0  0  0  0  0  0  0
    3.4708    1.8046    0.0000 H   0  0  0  0  0  0  0  0  0  0  0  0
    4.7217    3.2166    0.0000 H   0  0  0  0  0  0  0  0  0  0  0  0
    5.2038    3.8211    0.0000 H   0  0  0  0  0  0  0  0  0  0  0  0
    5.3649    4.5270    0.0000 H   0  0  0  0  0  0  0  0  0  0  0  0
    5.1928    5.2808    0.0000 H   0  0  0  0  0  0  0  0  0  0  0  0
    6.8178   -3.8028    0.0000 H   0  0  0  0  0  0  0  0  0  0  0  0
    2.1728    5.2808    0.0000 H   0  0  0  0  0  0  0  0  0  0  0  0
    2.0007    4.5270    0.0000 H   0  0  0  0  0  0  0  0  0  0  0  0
    3.3208    6.1823    0.0000 H   0  0  0  0  0  0  0  0  0  0  0  0
    2.6242    5.8469    0.0000 H   0  0  0  0  0  0  0  0  0  0  0  0
    2.5068   -5.5759    0.0000 H   0  0  0  0  0  0  0  0  0  0  0  0
    2.2798   -6.4228    0.0000 H   0  0  0  0  0  0  0  0  0  0  0  0
    3.1268   -6.6497    0.0000 H   0  0  0  0  0  0  0  0  0  0  0  0
    3.6459   -6.7888    0.0000 H   0  0  0  0  0  0  0  0  0  0  0  0
    4.4928   -7.0158    0.0000 H   0  0  0  0  0  0  0  0  0  0  0  0
    4.7197   -6.1688    0.0000 H   0  0  0  0  0  0  0  0  0  0  0  0
    3.7197   -4.4368    0.0000 H   0  0  0  0  0  0  0  0  0  0  0  0
    2.8728   -4.2098    0.0000 H   0  0  0  0  0  0  0  0  0  0  0  0
    2.6459   -5.0568    0.0000 H   0  0  0  0  0  0  0  0  0  0  0  0
  1 33  1  0  0  0  0
  2 33  1  0  0  0  0
  3 33  1  0  0  0  0
  4 23  2  0  0  0  0
  5 28  2  0  0  0  0
  6 11  1  0  0  0  0
  6 12  1  0  0  0  0
  6 13  1  0  0  0  0
  7 14  1  0  0  0  0
  7 15  1  0  0  0  0
  7 19  1  0  0  0  0
  8 18  1  0  0  0  0
  8 20  1  0  0  0  0
  8 23  1  0  0  0  0
  9 19  2  0  0  0  0
  9 24  1  0  0  0  0
 10 24  2  0  0  0  0
 10 29  1  0  0  0  0
 11 14  1  0  0  0  0
 11 34  1  0  0  0  0
 11 35  1  0  0  0  0
 12 15  1  0  0  0  0
 12 36  1  0  0  0  0
 12 37  1  0  0  0  0
 13 16  1  0  0  0  0
 13 38  1  0  0  0  0
 13 39  1  0  0  0  0
 14 40  1  0  0  0  0
 14 41  1  0  0  0  0
 15 42  1  0  0  0  0
 15 43  1  0  0  0  0
 16 17  1  0  0  0  0
 16 44  1  0  0  0  0
 16 45  1  0  0  0  0
 17 18  1  0  0  0  0
 17 46  1  0  0  0  0
 17 47  1  0  0  0  0
 18 48  1  0  0  0  0
 18 49  1  0  0  0  0
 19 25  1  0  0  0  0
 20 22  1  0  0  0  0
 20 50  1  0  0  0  0
 20 51  1  0  0  0  0
 21 24  1  0  0  0  0
 21 30  1  0  0  0  0
 21 31  1  0  0  0  0
 21 32  1  0  0  0  0
 22 28  1  0  0  0  0
 22 52  1  0  0  0  0
 22 53  1  0  0  0  0
 23 26  1  0  0  0  0
 25 29  2  0  0  0  0
 25 54  1  0  0  0  0
 26 27  1  0  0  0  0
 26 55  1  0  0  0  0
 26 56  1  0  0  0  0
 27 28  1  0  0  0  0
 27 57  1  0  0  0  0
 27 58  1  0  0  0  0
 29 33  1  0  0  0  0
 30 59  1  0  0  0  0
 30 60  1  0  0  0  0
 30 61  1  0  0  0  0
 31 62  1  0  0  0  0
 31 63  1  0  0  0  0
 31 64  1  0  0  0  0
 32 65  1  0  0  0  0
 32 66  1  0  0  0  0
 32 67  1  0  0  0  0
M  END
> <PUBCHEM_COMPOUND_CID>
44407347

> <PUBCHEM_COMPOUND_CANONICALIZED>
1

> <PUBCHEM_CACTVS_COMPLEXITY>
674

> <PUBCHEM_CACTVS_HBOND_ACCEPTOR>
9

> <PUBCHEM_CACTVS_HBOND_DONOR>
0

> <PUBCHEM_CACTVS_ROTATABLE_BOND>
7

> <PUBCHEM_CACTVS_SUBSKEYS>
AAADcfB7sYAAAAAAAAAAAAAAAAAAAAAAAAAsWAAABYAAAAABgAAAHwAAAAAADgzBlxQzsJcIEACoAadydACAgCkhAqABGCE4ZBiAaBpAyMAUBAhIBgLAQCEdCAAAAAAAAAAAAAAAAAAAAAAAAAAAAAAAAA==

> <PUBCHEM_IUPAC_OPENEYE_NAME>
1-[4-[4-[2-tert-butyl-6-(trifluoromethyl)pyrimidin-4-yl]piperazin-1-yl]butyl]azepane-2,5-dione

> <PUBCHEM_IUPAC_CAS_NAME>
1-[4-[4-[2-tert-butyl-6-(trifluoromethyl)-4-pyrimidinyl]-1-piperazinyl]butyl]azepane-2,5-dione

> <PUBCHEM_IUPAC_NAME_MARKUP>
1-[4-[4-[2-<I>tert</I>-butyl-6-(trifluoromethyl)pyrimidin-4-yl]piperazin-1-yl]butyl]azepane-2,5-dione

> <PUBCHEM_IUPAC_NAME>
1-[4-[4-[2-tert-butyl-6-(trifluoromethyl)pyrimidin-4-yl]piperazin-1-yl]butyl]azepane-2,5-dione

> <PUBCHEM_IUPAC_SYSTEMATIC_NAME>
1-[4-[4-[2-tert-butyl-6-(trifluoromethyl)pyrimidin-4-yl]piperazin-1-yl]butyl]azepane-2,5-dione

> <PUBCHEM_IUPAC_TRADITIONAL_NAME>
1-[4-[4-[2-tert-butyl-6-(trifluoromethyl)pyrimidin-4-yl]piperazino]butyl]azepane-2,5-quinone

> <PUBCHEM_IUPAC_INCHI>
InChI=1S/C23H34F3N5O2/c1-22(2,3)21-27-18(23(24,25)26)16-19(28-21)30-14-12-29(13-15-30)9-4-5-10-31-11-8-17(32)6-7-20(31)33/h16H,4-15H2,1-3H3

> <PUBCHEM_IUPAC_INCHIKEY>
FKDUMTZHFXGASD-UHFFFAOYSA-N

> <PUBCHEM_XLOGP3_AA>
2.7

> <PUBCHEM_EXACT_MASS>
469.26645983

> <PUBCHEM_MOLECULAR_FORMULA>
C23H34F3N5O2

> <PUBCHEM_MOLECULAR_WEIGHT>
469.5

> <PUBCHEM_OPENEYE_CAN_SMILES>
CC(C)(C)C1=NC(=CC(=N1)N2CCN(CC2)CCCCN3CCC(=O)CCC3=O)C(F)(F)F

> <PUBCHEM_OPENEYE_ISO_SMILES>
CC(C)(C)C1=NC(=CC(=N1)N2CCN(CC2)CCCCN3CCC(=O)CCC3=O)C(F)(F)F

> <PUBCHEM_CACTVS_TPSA>
69.6

> <PUBCHEM_MONOISOTOPIC_WEIGHT>
469.26645983

> <PUBCHEM_TOTAL_CHARGE>
0

> <PUBCHEM_HEAVY_ATOM_COUNT>
33

> <PUBCHEM_ATOM_DEF_STEREO_COUNT>
0

> <PUBCHEM_ATOM_UDEF_STEREO_COUNT>
0

> <PUBCHEM_BOND_DEF_STEREO_COUNT>
0

> <PUBCHEM_BOND_UDEF_STEREO_COUNT>
0

> <PUBCHEM_ISOTOPIC_ATOM_COUNT>
0

> <PUBCHEM_COMPONENT_COUNT>
1

> <PUBCHEM_CACTVS_TAUTO_COUNT>
-1

> <PUBCHEM_COORDINATE_TYPE>
1
5
255

> <PUBCHEM_BONDANNOTATIONS>
10  24  8
10  29  8
19  25  8
25  29  8
9  19  8
9  24  8

$$$$
