19770958
  -OEChem-09292322082D

 40 43  0     1  0  0  0  0  0999 V2000
    5.9674   -0.8601    0.0000 O   0  0  0  0  0  0  0  0  0  0  0  0
    4.3211   -0.3220    0.0000 O   0  0  0  0  0  0  0  0  0  0  0  0
    8.4797    1.7366    0.0000 N   0  0  0  0  0  0  0  0  0  0  0  0
    3.7320   -3.3216    0.0000 N   0  0  0  0  0  0  0  0  0  0  0  0
    4.6783   -3.6263    0.0000 N   0  0  0  0  0  0  0  0  0  0  0  0
    7.4732    2.4403    0.0000 C   0  0  3  0  0  0  0  0  0  0  0  0
    6.5164    2.1495    0.0000 C   0  0  3  0  0  0  0  0  0  0  0  0
    6.9183    3.8216    0.0000 C   0  0  0  0  0  0  0  0  0  0  0  0
    5.9615    3.5308    0.0000 C   0  0  0  0  0  0  0  0  0  0  0  0
    7.2297    0.3978    0.0000 C   0  0  0  0  0  0  0  0  0  0  0  0
    5.6917    0.9005    0.0000 C   0  0  0  0  0  0  0  0  0  0  0  0
    6.2781    0.0904    0.0000 C   0  0  0  0  0  0  0  0  0  0  0  0
    9.3618    1.2656    0.0000 C   0  0  0  0  0  0  0  0  0  0  0  0
    4.9889   -1.0663    0.0000 C   0  0  0  0  0  0  0  0  0  0  0  0
    4.6783   -2.0168    0.0000 C   0  0  0  0  0  0  0  0  0  0  0  0
    3.7320   -2.3215    0.0000 C   0  0  0  0  0  0  0  0  0  0  0  0
    5.2619   -2.8215    0.0000 C   0  0  0  0  0  0  0  0  0  0  0  0
    2.8660   -1.8216    0.0000 C   0  0  0  0  0  0  0  0  0  0  0  0
    2.8660   -3.8216    0.0000 C   0  0  0  0  0  0  0  0  0  0  0  0
    2.0000   -2.3215    0.0000 C   0  0  0  0  0  0  0  0  0  0  0  0
    2.0000   -3.3216    0.0000 C   0  0  0  0  0  0  0  0  0  0  0  0
    7.9587    2.8259    0.0000 H   0  0  0  0  0  0  0  0  0  0  0  0
    5.8995    2.2119    0.0000 H   0  0  0  0  0  0  0  0  0  0  0  0
    7.5000    4.0359    0.0000 H   0  0  0  0  0  0  0  0  0  0  0  0
    6.7209    4.4093    0.0000 H   0  0  0  0  0  0  0  0  0  0  0  0
    5.7641    4.1186    0.0000 H   0  0  0  0  0  0  0  0  0  0  0  0
    5.3797    3.3165    0.0000 H   0  0  0  0  0  0  0  0  0  0  0  0
    7.3338   -0.2134    0.0000 H   0  0  0  0  0  0  0  0  0  0  0  0
    7.8495    0.4133    0.0000 H   0  0  0  0  0  0  0  0  0  0  0  0
    5.2190    1.3017    0.0000 H   0  0  0  0  0  0  0  0  0  0  0  0
    5.2367    0.4793    0.0000 H   0  0  0  0  0  0  0  0  0  0  0  0
    5.6656   -0.0055    0.0000 H   0  0  0  0  0  0  0  0  0  0  0  0
    9.0698    0.7187    0.0000 H   0  0  0  0  0  0  0  0  0  0  0  0
    9.9088    0.9736    0.0000 H   0  0  0  0  0  0  0  0  0  0  0  0
    9.6539    1.8126    0.0000 H   0  0  0  0  0  0  0  0  0  0  0  0
    5.8819   -2.8215    0.0000 H   0  0  0  0  0  0  0  0  0  0  0  0
    2.8660   -1.2015    0.0000 H   0  0  0  0  0  0  0  0  0  0  0  0
    2.8660   -4.4416    0.0000 H   0  0  0  0  0  0  0  0  0  0  0  0
    1.4631   -2.0116    0.0000 H   0  0  0  0  0  0  0  0  0  0  0  0
    1.4631   -3.6316    0.0000 H   0  0  0  0  0  0  0  0  0  0  0  0
  1 12  1  0  0  0  0
  1 14  1  0  0  0  0
  2 14  2  0  0  0  0
  3  6  1  0  0  0  0
  3  7  1  0  0  0  0
  3 13  1  0  0  0  0
  4  5  1  0  0  0  0
  4 16  1  0  0  0  0
  4 19  1  0  0  0  0
  5 17  2  0  0  0  0
  6  8  1  0  0  0  0
  6 10  1  0  0  0  0
  6 22  1  0  0  0  0
  7  9  1  0  0  0  0
  7 11  1  0  0  0  0
  7 23  1  0  0  0  0
  8  9  1  0  0  0  0
  8 24  1  0  0  0  0
  8 25  1  0  0  0  0
  9 26  1  0  0  0  0
  9 27  1  0  0  0  0
 10 12  1  0  0  0  0
 10 28  1  0  0  0  0
 10 29  1  0  0  0  0
 11 12  1  0  0  0  0
 11 30  1  0  0  0  0
 11 31  1  0  0  0  0
 12 32  1  0  0  0  0
 13 33  1  0  0  0  0
 13 34  1  0  0  0  0
 13 35  1  0  0  0  0
 14 15  1  0  0  0  0
 15 16  2  0  0  0  0
 15 17  1  0  0  0  0
 16 18  1  0  0  0  0
 17 36  1  0  0  0  0
 18 20  2  0  0  0  0
 18 37  1  0  0  0  0
 19 21  2  0  0  0  0
 19 38  1  0  0  0  0
 20 21  1  0  0  0  0
 20 39  1  0  0  0  0
 21 40  1  0  0  0  0
M  END
> <PUBCHEM_COMPOUND_CID>
19770958

> <PUBCHEM_COMPOUND_CANONICALIZED>
1

> <PUBCHEM_CACTVS_COMPLEXITY>
402

> <PUBCHEM_CACTVS_HBOND_ACCEPTOR>
4

> <PUBCHEM_CACTVS_HBOND_DONOR>
0

> <PUBCHEM_CACTVS_ROTATABLE_BOND>
3

> <PUBCHEM_CACTVS_SUBSKEYS>
AAADceB7MAAAAAAAAAAAAAAAAAAAAWLAAAAsWAAABgAAAFgB4AAAHgAIAAAADDzhngY+yLMIFACqAzT3TACShCA1giAY2CE4bNgIJvrA9dmGtYhmyAHI6ceYyGCMAAAAAAAAAAAAAAAAAAAAAAAAAAAAAA==

> <PUBCHEM_IUPAC_OPENEYE_NAME>
(8-methyl-8-azabicyclo[3.2.1]octan-3-yl) pyrazolo[1,5-a]pyridine-3-carboxylate

> <PUBCHEM_IUPAC_CAS_NAME>
3-pyrazolo[1,5-a]pyridinecarboxylic acid (8-methyl-8-azabicyclo[3.2.1]octan-3-yl) ester

> <PUBCHEM_IUPAC_NAME_MARKUP>
(8-methyl-8-azabicyclo[3.2.1]octan-3-yl) pyrazolo[1,5-a]pyridine-3-carboxylate

> <PUBCHEM_IUPAC_NAME>
(8-methyl-8-azabicyclo[3.2.1]octan-3-yl) pyrazolo[1,5-a]pyridine-3-carboxylate

> <PUBCHEM_IUPAC_SYSTEMATIC_NAME>
(8-methyl-8-azabicyclo[3.2.1]octan-3-yl) pyrazolo[1,5-a]pyridine-3-carboxylate

> <PUBCHEM_IUPAC_TRADITIONAL_NAME>
pyrazolo[1,5-a]pyridine-3-carboxylic acid (8-methyl-8-azabicyclo[3.2.1]octan-3-yl) ester

> <PUBCHEM_IUPAC_INCHI>
InChI=1S/C16H19N3O2/c1-18-11-5-6-12(18)9-13(8-11)21-16(20)14-10-17-19-7-3-2-4-15(14)19/h2-4,7,10-13H,5-6,8-9H2,1H3

> <PUBCHEM_IUPAC_INCHIKEY>
OYMSVEYECKLFKC-UHFFFAOYSA-N

> <PUBCHEM_XLOGP3_AA>
2.1

> <PUBCHEM_EXACT_MASS>
285.147726857

> <PUBCHEM_MOLECULAR_FORMULA>
C16H19N3O2

> <PUBCHEM_MOLECULAR_WEIGHT>
285.34

> <PUBCHEM_OPENEYE_CAN_SMILES>
CN1C2CCC1CC(C2)OC(=O)C3=C4C=CC=CN4N=C3

> <PUBCHEM_OPENEYE_ISO_SMILES>
CN1C2CCC1CC(C2)OC(=O)C3=C4C=CC=CN4N=C3

> <PUBCHEM_CACTVS_TPSA>
46.8

> <PUBCHEM_MONOISOTOPIC_WEIGHT>
285.147726857

> <PUBCHEM_TOTAL_CHARGE>
0

> <PUBCHEM_HEAVY_ATOM_COUNT>
21

> <PUBCHEM_ATOM_DEF_STEREO_COUNT>
0

> <PUBCHEM_ATOM_UDEF_STEREO_COUNT>
2

> <PUBCHEM_BOND_DEF_STEREO_COUNT>
0

> <PUBCHEM_BOND_UDEF_STEREO_COUNT>
0

> <PUBCHEM_ISOTOPIC_ATOM_COUNT>
0

> <PUBCHEM_COMPONENT_COUNT>
1

> <PUBCHEM_CACTVS_TAUTO_COUNT>
-1

> <PUBCHEM_COORDINATE_TYPE>
1
5
255

> <PUBCHEM_BONDANNOTATIONS>
15  16  8
15  17  8
16  18  8
18  20  8
19  21  8
20  21  8
4  16  8
4  19  8
4  5  8
5  17  8
6  8  3
7  9  3

$$$$
