45827434
  -OEChem-09292322462D

 48 50  0     0  0  0  0  0  0999 V2000
    3.6180   -4.6056    0.0000 S   0  0  0  0  0  0  0  0  0  0  0  0
    6.9949    6.1934    0.0000 O   0  0  0  0  0  0  0  0  0  0  0  0
    3.5308    0.1934    0.0000 O   0  0  0  0  0  0  0  0  0  0  0  0
    6.9949    4.1934    0.0000 N   0  0  0  0  0  0  0  0  0  0  0  0
    5.2628    0.1934    0.0000 N   0  0  0  0  0  0  0  0  0  0  0  0
    4.8968   -2.8455    0.0000 N   0  0  0  0  0  0  0  0  0  0  0  0
    5.2058   -1.8944    0.0000 N   0  0  0  0  0  0  0  0  0  0  0  0
    6.9949    3.1934    0.0000 C   0  0  0  0  0  0  0  0  0  0  0  0
    7.8609    4.6934    0.0000 C   0  0  0  0  0  0  0  0  0  0  0  0
    6.1288    4.6934    0.0000 C   0  0  0  0  0  0  0  0  0  0  0  0
    6.1288    2.6934    0.0000 C   0  0  0  0  0  0  0  0  0  0  0  0
    7.8609    5.6934    0.0000 C   0  0  0  0  0  0  0  0  0  0  0  0
    6.1288    5.6934    0.0000 C   0  0  0  0  0  0  0  0  0  0  0  0
    6.1288    1.6934    0.0000 C   0  0  0  0  0  0  0  0  0  0  0  0
    5.2628    1.1934    0.0000 C   0  0  0  0  0  0  0  0  0  0  0  0
    4.3968   -0.3066    0.0000 C   0  0  0  0  0  0  0  0  0  0  0  0
    4.3968   -1.3066    0.0000 C   0  0  0  0  0  0  0  0  0  0  0  0
    3.8968   -2.8455    0.0000 C   0  0  0  0  0  0  0  0  0  0  0  0
    3.5878   -1.8944    0.0000 C   0  0  0  0  0  0  0  0  0  0  0  0
    3.3090   -3.6545    0.0000 C   0  0  0  0  0  0  0  0  0  0  0  0
    2.3090   -3.6545    0.0000 C   0  0  0  0  0  0  0  0  0  0  0  0
    2.8090   -5.1934    0.0000 C   0  0  0  0  0  0  0  0  0  0  0  0
    2.0000   -4.6056    0.0000 C   0  0  0  0  0  0  0  0  0  0  0  0
    2.8090   -6.1934    0.0000 C   0  0  0  0  0  0  0  0  0  0  0  0
    7.2069    2.6107    0.0000 H   0  0  0  0  0  0  0  0  0  0  0  0
    7.6055    3.3010    0.0000 H   0  0  0  0  0  0  0  0  0  0  0  0
    8.0730    4.1107    0.0000 H   0  0  0  0  0  0  0  0  0  0  0  0
    8.4715    4.8010    0.0000 H   0  0  0  0  0  0  0  0  0  0  0  0
    5.5183    4.8010    0.0000 H   0  0  0  0  0  0  0  0  0  0  0  0
    5.9168    4.1107    0.0000 H   0  0  0  0  0  0  0  0  0  0  0  0
    5.9168    3.2760    0.0000 H   0  0  0  0  0  0  0  0  0  0  0  0
    5.5183    2.5857    0.0000 H   0  0  0  0  0  0  0  0  0  0  0  0
    8.4715    5.5857    0.0000 H   0  0  0  0  0  0  0  0  0  0  0  0
    8.0730    6.2760    0.0000 H   0  0  0  0  0  0  0  0  0  0  0  0
    5.9168    6.2760    0.0000 H   0  0  0  0  0  0  0  0  0  0  0  0
    5.5183    5.5857    0.0000 H   0  0  0  0  0  0  0  0  0  0  0  0
    6.3409    1.1107    0.0000 H   0  0  0  0  0  0  0  0  0  0  0  0
    6.7394    1.8010    0.0000 H   0  0  0  0  0  0  0  0  0  0  0  0
    5.0508    1.7760    0.0000 H   0  0  0  0  0  0  0  0  0  0  0  0
    4.6523    1.0857    0.0000 H   0  0  0  0  0  0  0  0  0  0  0  0
    5.7998   -0.1166    0.0000 H   0  0  0  0  0  0  0  0  0  0  0  0
    2.9981   -1.7028    0.0000 H   0  0  0  0  0  0  0  0  0  0  0  0
    5.2612   -3.3471    0.0000 H   0  0  0  0  0  0  0  0  0  0  0  0
    1.9446   -3.1529    0.0000 H   0  0  0  0  0  0  0  0  0  0  0  0
    1.4103   -4.7972    0.0000 H   0  0  0  0  0  0  0  0  0  0  0  0
    2.1890   -6.1934    0.0000 H   0  0  0  0  0  0  0  0  0  0  0  0
    2.8090   -6.8134    0.0000 H   0  0  0  0  0  0  0  0  0  0  0  0
    3.4290   -6.1934    0.0000 H   0  0  0  0  0  0  0  0  0  0  0  0
  1 20  1  0  0  0  0
  1 22  1  0  0  0  0
  2 12  1  0  0  0  0
  2 13  1  0  0  0  0
  3 16  2  0  0  0  0
  4  8  1  0  0  0  0
  4  9  1  0  0  0  0
  4 10  1  0  0  0  0
  5 15  1  0  0  0  0
  5 16  1  0  0  0  0
  5 41  1  0  0  0  0
  6  7  1  0  0  0  0
  6 18  1  0  0  0  0
  6 43  1  0  0  0  0
  7 17  2  0  0  0  0
  8 11  1  0  0  0  0
  8 25  1  0  0  0  0
  8 26  1  0  0  0  0
  9 12  1  0  0  0  0
  9 27  1  0  0  0  0
  9 28  1  0  0  0  0
 10 13  1  0  0  0  0
 10 29  1  0  0  0  0
 10 30  1  0  0  0  0
 11 14  1  0  0  0  0
 11 31  1  0  0  0  0
 11 32  1  0  0  0  0
 12 33  1  0  0  0  0
 12 34  1  0  0  0  0
 13 35  1  0  0  0  0
 13 36  1  0  0  0  0
 14 15  1  0  0  0  0
 14 37  1  0  0  0  0
 14 38  1  0  0  0  0
 15 39  1  0  0  0  0
 15 40  1  0  0  0  0
 16 17  1  0  0  0  0
 17 19  1  0  0  0  0
 18 19  2  0  0  0  0
 18 20  1  0  0  0  0
 19 42  1  0  0  0  0
 20 21  2  0  0  0  0
 21 23  1  0  0  0  0
 21 44  1  0  0  0  0
 22 23  2  0  0  0  0
 22 24  1  0  0  0  0
 23 45  1  0  0  0  0
 24 46  1  0  0  0  0
 24 47  1  0  0  0  0
 24 48  1  0  0  0  0
M  END
> <PUBCHEM_COMPOUND_CID>
45827434

> <PUBCHEM_COMPOUND_CANONICALIZED>
1

> <PUBCHEM_CACTVS_COMPLEXITY>
406

> <PUBCHEM_CACTVS_HBOND_ACCEPTOR>
5

> <PUBCHEM_CACTVS_HBOND_DONOR>
2

> <PUBCHEM_CACTVS_ROTATABLE_BOND>
7

> <PUBCHEM_CACTVS_SUBSKEYS>
AAADceB7sABAAAAAAAAAAAAAAAAAAWJAAAAsAAAAAAAAAAAB4AAAHgQYAAAACAjh1gYygZPjBAiuASVyUACTBIAmChBYubm4ZNgKYLKg1dGXpQhgngC4yYcciICAAAAAAAAAAAAAAAAAAAAAAAAAAAAAAA==

> <PUBCHEM_IUPAC_OPENEYE_NAME>
5-(5-methyl-2-thienyl)-N-(4-morpholinobutyl)-1H-pyrazole-3-carboxamide

> <PUBCHEM_IUPAC_CAS_NAME>
5-(5-methyl-2-thiophenyl)-N-[4-(4-morpholinyl)butyl]-1H-pyrazole-3-carboxamide

> <PUBCHEM_IUPAC_NAME_MARKUP>
5-(5-methylthiophen-2-yl)-<I>N</I>-(4-morpholin-4-ylbutyl)-1<I>H</I>-pyrazole-3-carboxamide

> <PUBCHEM_IUPAC_NAME>
5-(5-methylthiophen-2-yl)-N-(4-morpholin-4-ylbutyl)-1H-pyrazole-3-carboxamide

> <PUBCHEM_IUPAC_SYSTEMATIC_NAME>
5-(5-methylthiophen-2-yl)-N-(4-morpholin-4-ylbutyl)-1H-pyrazole-3-carboxamide

> <PUBCHEM_IUPAC_TRADITIONAL_NAME>
5-(5-methyl-2-thienyl)-N-(4-morpholinobutyl)-1H-pyrazole-3-carboxamide

> <PUBCHEM_IUPAC_INCHI>
InChI=1S/C17H24N4O2S/c1-13-4-5-16(24-13)14-12-15(20-19-14)17(22)18-6-2-3-7-21-8-10-23-11-9-21/h4-5,12H,2-3,6-11H2,1H3,(H,18,22)(H,19,20)

> <PUBCHEM_IUPAC_INCHIKEY>
LNYAFSUULCKJLV-UHFFFAOYSA-N

> <PUBCHEM_XLOGP3_AA>
2

> <PUBCHEM_EXACT_MASS>
348.16199719

> <PUBCHEM_MOLECULAR_FORMULA>
C17H24N4O2S

> <PUBCHEM_MOLECULAR_WEIGHT>
348.5

> <PUBCHEM_OPENEYE_CAN_SMILES>
CC1=CC=C(S1)C2=CC(=NN2)C(=O)NCCCCN3CCOCC3

> <PUBCHEM_OPENEYE_ISO_SMILES>
CC1=CC=C(S1)C2=CC(=NN2)C(=O)NCCCCN3CCOCC3

> <PUBCHEM_CACTVS_TPSA>
98.5

> <PUBCHEM_MONOISOTOPIC_WEIGHT>
348.16199719

> <PUBCHEM_TOTAL_CHARGE>
0

> <PUBCHEM_HEAVY_ATOM_COUNT>
24

> <PUBCHEM_ATOM_DEF_STEREO_COUNT>
0

> <PUBCHEM_ATOM_UDEF_STEREO_COUNT>
0

> <PUBCHEM_BOND_DEF_STEREO_COUNT>
0

> <PUBCHEM_BOND_UDEF_STEREO_COUNT>
0

> <PUBCHEM_ISOTOPIC_ATOM_COUNT>
0

> <PUBCHEM_COMPONENT_COUNT>
1

> <PUBCHEM_CACTVS_TAUTO_COUNT>
-1

> <PUBCHEM_COORDINATE_TYPE>
1
5
255

> <PUBCHEM_BONDANNOTATIONS>
1  20  8
1  22  8
17  19  8
18  19  8
20  21  8
21  23  8
22  23  8
6  18  8
6  7  8
7  17  8

$$$$
