44407308
  -OEChem-09292322272D

 67 70  0     0  0  0  0  0  0999 V2000
    8.6301   -4.2183    0.0000 F   0  0  0  0  0  0  0  0  0  0  0  0
    8.9962   -5.5843    0.0000 F   0  0  0  0  0  0  0  0  0  0  0  0
    7.6301   -5.9503    0.0000 F   0  0  0  0  0  0  0  0  0  0  0  0
    4.6660    5.9157    0.0000 O   0  0  0  0  0  0  0  0  0  0  0  0
    6.3981    3.9157    0.0000 O   0  0  0  0  0  0  0  0  0  0  0  0
    6.3981   -0.0843    0.0000 N   0  0  0  0  0  0  0  0  0  0  0  0
    6.3981   -2.0843    0.0000 N   0  0  0  0  0  0  0  0  0  0  0  0
    4.6660    3.9157    0.0000 N   0  0  0  0  0  0  0  0  0  0  0  0
    5.5321   -3.5843    0.0000 N   0  0  0  0  0  0  0  0  0  0  0  0
    6.3981   -5.0843    0.0000 N   0  0  0  0  0  0  0  0  0  0  0  0
    7.2641   -0.5843    0.0000 C   0  0  0  0  0  0  0  0  0  0  0  0
    5.5321   -0.5843    0.0000 C   0  0  0  0  0  0  0  0  0  0  0  0
    7.2641   -1.5843    0.0000 C   0  0  0  0  0  0  0  0  0  0  0  0
    5.5321   -1.5843    0.0000 C   0  0  0  0  0  0  0  0  0  0  0  0
    6.3981    0.9157    0.0000 C   0  0  0  0  0  0  0  0  0  0  0  0
    5.5321    1.4157    0.0000 C   0  0  0  0  0  0  0  0  0  0  0  0
    5.5321    2.4157    0.0000 C   0  0  0  0  0  0  0  0  0  0  0  0
    6.3981   -3.0843    0.0000 C   0  0  0  0  0  0  0  0  0  0  0  0
    4.6660    2.9157    0.0000 C   0  0  0  0  0  0  0  0  0  0  0  0
    4.6660   -5.0843    0.0000 C   0  0  0  0  0  0  0  0  0  0  0  0
    5.5321   -4.5843    0.0000 C   0  0  0  0  0  0  0  0  0  0  0  0
    7.2641   -3.5843    0.0000 C   0  0  0  0  0  0  0  0  0  0  0  0
    7.2641   -4.5843    0.0000 C   0  0  0  0  0  0  0  0  0  0  0  0
    3.8000   -5.5843    0.0000 C   0  0  0  0  0  0  0  0  0  0  0  0
    5.1660   -5.9503    0.0000 C   0  0  0  0  0  0  0  0  0  0  0  0
    4.1660   -4.2183    0.0000 C   0  0  0  0  0  0  0  0  0  0  0  0
    3.8000    4.4157    0.0000 C   0  0  0  0  0  0  0  0  0  0  0  0
    5.5321    4.4157    0.0000 C   0  0  0  0  0  0  0  0  0  0  0  0
    3.8000    5.4157    0.0000 C   0  0  0  0  0  0  0  0  0  0  0  0
    5.5321    5.4157    0.0000 C   0  0  0  0  0  0  0  0  0  0  0  0
    8.1301   -5.0843    0.0000 C   0  0  0  0  0  0  0  0  0  0  0  0
    2.9061    3.8810    0.0000 C   0  0  0  0  0  0  0  0  0  0  0  0
    2.9061    5.9503    0.0000 C   0  0  0  0  0  0  0  0  0  0  0  0
    2.0000    4.3949    0.0000 C   0  0  0  0  0  0  0  0  0  0  0  0
    2.0000    5.4365    0.0000 C   0  0  0  0  0  0  0  0  0  0  0  0
    7.8747   -0.6920    0.0000 H   0  0  0  0  0  0  0  0  0  0  0  0
    7.4762   -0.0017    0.0000 H   0  0  0  0  0  0  0  0  0  0  0  0
    5.3200   -0.0017    0.0000 H   0  0  0  0  0  0  0  0  0  0  0  0
    4.9215   -0.6920    0.0000 H   0  0  0  0  0  0  0  0  0  0  0  0
    7.4762   -2.1669    0.0000 H   0  0  0  0  0  0  0  0  0  0  0  0
    7.8747   -1.4767    0.0000 H   0  0  0  0  0  0  0  0  0  0  0  0
    4.9215   -1.4767    0.0000 H   0  0  0  0  0  0  0  0  0  0  0  0
    5.3200   -2.1669    0.0000 H   0  0  0  0  0  0  0  0  0  0  0  0
    7.0087    0.8080    0.0000 H   0  0  0  0  0  0  0  0  0  0  0  0
    6.6101    1.4983    0.0000 H   0  0  0  0  0  0  0  0  0  0  0  0
    4.9215    1.5233    0.0000 H   0  0  0  0  0  0  0  0  0  0  0  0
    5.3200    0.8331    0.0000 H   0  0  0  0  0  0  0  0  0  0  0  0
    6.1426    2.3080    0.0000 H   0  0  0  0  0  0  0  0  0  0  0  0
    5.7441    2.9983    0.0000 H   0  0  0  0  0  0  0  0  0  0  0  0
    4.0555    3.0233    0.0000 H   0  0  0  0  0  0  0  0  0  0  0  0
    4.4540    2.3331    0.0000 H   0  0  0  0  0  0  0  0  0  0  0  0
    7.8010   -3.2743    0.0000 H   0  0  0  0  0  0  0  0  0  0  0  0
    3.4900   -5.0474    0.0000 H   0  0  0  0  0  0  0  0  0  0  0  0
    3.2631   -5.8943    0.0000 H   0  0  0  0  0  0  0  0  0  0  0  0
    4.1100   -6.1212    0.0000 H   0  0  0  0  0  0  0  0  0  0  0  0
    4.6291   -6.2603    0.0000 H   0  0  0  0  0  0  0  0  0  0  0  0
    5.4760   -6.4873    0.0000 H   0  0  0  0  0  0  0  0  0  0  0  0
    5.7030   -5.6403    0.0000 H   0  0  0  0  0  0  0  0  0  0  0  0
    4.7030   -3.9083    0.0000 H   0  0  0  0  0  0  0  0  0  0  0  0
    3.8560   -3.6814    0.0000 H   0  0  0  0  0  0  0  0  0  0  0  0
    3.6291   -4.5283    0.0000 H   0  0  0  0  0  0  0  0  0  0  0  0
    6.1426    5.3080    0.0000 H   0  0  0  0  0  0  0  0  0  0  0  0
    5.7441    5.9983    0.0000 H   0  0  0  0  0  0  0  0  0  0  0  0
    2.9132    3.2611    0.0000 H   0  0  0  0  0  0  0  0  0  0  0  0
    2.9132    6.5703    0.0000 H   0  0  0  0  0  0  0  0  0  0  0  0
    1.4643    4.0828    0.0000 H   0  0  0  0  0  0  0  0  0  0  0  0
    1.4643    5.7486    0.0000 H   0  0  0  0  0  0  0  0  0  0  0  0
  1 31  1  0  0  0  0
  2 31  1  0  0  0  0
  3 31  1  0  0  0  0
  4 29  1  0  0  0  0
  4 30  1  0  0  0  0
  5 28  2  0  0  0  0
  6 11  1  0  0  0  0
  6 12  1  0  0  0  0
  6 15  1  0  0  0  0
  7 13  1  0  0  0  0
  7 14  1  0  0  0  0
  7 18  1  0  0  0  0
  8 19  1  0  0  0  0
  8 27  1  0  0  0  0
  8 28  1  0  0  0  0
  9 18  2  0  0  0  0
  9 21  1  0  0  0  0
 10 21  2  0  0  0  0
 10 23  1  0  0  0  0
 11 13  1  0  0  0  0
 11 36  1  0  0  0  0
 11 37  1  0  0  0  0
 12 14  1  0  0  0  0
 12 38  1  0  0  0  0
 12 39  1  0  0  0  0
 13 40  1  0  0  0  0
 13 41  1  0  0  0  0
 14 42  1  0  0  0  0
 14 43  1  0  0  0  0
 15 16  1  0  0  0  0
 15 44  1  0  0  0  0
 15 45  1  0  0  0  0
 16 17  1  0  0  0  0
 16 46  1  0  0  0  0
 16 47  1  0  0  0  0
 17 19  1  0  0  0  0
 17 48  1  0  0  0  0
 17 49  1  0  0  0  0
 18 22  1  0  0  0  0
 19 50  1  0  0  0  0
 19 51  1  0  0  0  0
 20 21  1  0  0  0  0
 20 24  1  0  0  0  0
 20 25  1  0  0  0  0
 20 26  1  0  0  0  0
 22 23  2  0  0  0  0
 22 52  1  0  0  0  0
 23 31  1  0  0  0  0
 24 53  1  0  0  0  0
 24 54  1  0  0  0  0
 24 55  1  0  0  0  0
 25 56  1  0  0  0  0
 25 57  1  0  0  0  0
 25 58  1  0  0  0  0
 26 59  1  0  0  0  0
 26 60  1  0  0  0  0
 26 61  1  0  0  0  0
 27 29  1  0  0  0  0
 27 32  2  0  0  0  0
 28 30  1  0  0  0  0
 29 33  2  0  0  0  0
 30 62  1  0  0  0  0
 30 63  1  0  0  0  0
 32 34  1  0  0  0  0
 32 64  1  0  0  0  0
 33 35  1  0  0  0  0
 33 65  1  0  0  0  0
 34 35  2  0  0  0  0
 34 66  1  0  0  0  0
 35 67  1  0  0  0  0
M  END
> <PUBCHEM_COMPOUND_CID>
44407308

> <PUBCHEM_COMPOUND_CANONICALIZED>
1

> <PUBCHEM_CACTVS_COMPLEXITY>
708

> <PUBCHEM_CACTVS_HBOND_ACCEPTOR>
9

> <PUBCHEM_CACTVS_HBOND_DONOR>
0

> <PUBCHEM_CACTVS_ROTATABLE_BOND>
7

> <PUBCHEM_CACTVS_SUBSKEYS>
AAADcfB7sYAAAAAAAAAAAAAAAAAAAAAAAAA8WLEAAAAAAACxwAAAHwAAAAAADgzhlxYz9pcIFACoASdydAKCiCkhIqAJmCB/bJiObiLE+d+XPCjsxhPY6CeQQAAAAAAAAAAAEAAAAAAAAAAgAAAAAAAAAA==

> <PUBCHEM_IUPAC_OPENEYE_NAME>
4-[4-[4-[2-tert-butyl-6-(trifluoromethyl)pyrimidin-4-yl]piperazin-1-yl]butyl]-1,4-benzoxazin-3-one

> <PUBCHEM_IUPAC_CAS_NAME>
4-[4-[4-[2-tert-butyl-6-(trifluoromethyl)-4-pyrimidinyl]-1-piperazinyl]butyl]-1,4-benzoxazin-3-one

> <PUBCHEM_IUPAC_NAME_MARKUP>
4-[4-[4-[2-<I>tert</I>-butyl-6-(trifluoromethyl)pyrimidin-4-yl]piperazin-1-yl]butyl]-1,4-benzoxazin-3-one

> <PUBCHEM_IUPAC_NAME>
4-[4-[4-[2-tert-butyl-6-(trifluoromethyl)pyrimidin-4-yl]piperazin-1-yl]butyl]-1,4-benzoxazin-3-one

> <PUBCHEM_IUPAC_SYSTEMATIC_NAME>
4-[4-[4-[2-tert-butyl-6-(trifluoromethyl)pyrimidin-4-yl]piperazin-1-yl]butyl]-1,4-benzoxazin-3-one

> <PUBCHEM_IUPAC_TRADITIONAL_NAME>
4-[4-[4-[2-tert-butyl-6-(trifluoromethyl)pyrimidin-4-yl]piperazino]butyl]-1,4-benzoxazin-3-one

> <PUBCHEM_IUPAC_INCHI>
InChI=1S/C25H32F3N5O2/c1-24(2,3)23-29-20(25(26,27)28)16-21(30-23)32-14-12-31(13-15-32)10-6-7-11-33-18-8-4-5-9-19(18)35-17-22(33)34/h4-5,8-9,16H,6-7,10-15,17H2,1-3H3

> <PUBCHEM_IUPAC_INCHIKEY>
FPIUKAAHOYRXRK-UHFFFAOYSA-N

> <PUBCHEM_XLOGP3_AA>
4.6

> <PUBCHEM_EXACT_MASS>
491.25080977

> <PUBCHEM_MOLECULAR_FORMULA>
C25H32F3N5O2

> <PUBCHEM_MOLECULAR_WEIGHT>
491.5

> <PUBCHEM_OPENEYE_CAN_SMILES>
CC(C)(C)C1=NC(=CC(=N1)N2CCN(CC2)CCCCN3C(=O)COC4=CC=CC=C43)C(F)(F)F

> <PUBCHEM_OPENEYE_ISO_SMILES>
CC(C)(C)C1=NC(=CC(=N1)N2CCN(CC2)CCCCN3C(=O)COC4=CC=CC=C43)C(F)(F)F

> <PUBCHEM_CACTVS_TPSA>
61.8

> <PUBCHEM_MONOISOTOPIC_WEIGHT>
491.25080977

> <PUBCHEM_TOTAL_CHARGE>
0

> <PUBCHEM_HEAVY_ATOM_COUNT>
35

> <PUBCHEM_ATOM_DEF_STEREO_COUNT>
0

> <PUBCHEM_ATOM_UDEF_STEREO_COUNT>
0

> <PUBCHEM_BOND_DEF_STEREO_COUNT>
0

> <PUBCHEM_BOND_UDEF_STEREO_COUNT>
0

> <PUBCHEM_ISOTOPIC_ATOM_COUNT>
0

> <PUBCHEM_COMPONENT_COUNT>
1

> <PUBCHEM_CACTVS_TAUTO_COUNT>
-1

> <PUBCHEM_COORDINATE_TYPE>
1
5
255

> <PUBCHEM_BONDANNOTATIONS>
10  21  8
10  23  8
18  22  8
22  23  8
27  29  8
27  32  8
29  33  8
32  34  8
33  35  8
34  35  8
9  18  8
9  21  8

$$$$
