71725006
  -OEChem-09292322062D

 57 60  0     1  0  0  0  0  0999 V2000
    6.7619   -2.7671    0.0000 O   0  0  0  0  0  0  0  0  0  0  0  0
   13.7619    2.4291    0.0000 O   0  0  0  0  0  0  0  0  0  0  0  0
    7.7619    0.6970    0.0000 N   0  0  0  0  0  0  0  0  0  0  0  0
    6.7619   -1.0350    0.0000 N   0  0  0  0  0  0  0  0  0  0  0  0
    9.7619    2.4291    0.0000 N   0  0  3  0  0  0  0  0  0  0  0  0
    4.6783   -2.7058    0.0000 N   0  0  0  0  0  0  0  0  0  0  0  0
    8.2619   -0.1690    0.0000 C   0  0  0  0  0  0  0  0  0  0  0  0
    6.7619    0.6970    0.0000 C   0  0  0  0  0  0  0  0  0  0  0  0
    7.7619   -1.0350    0.0000 C   0  0  0  0  0  0  0  0  0  0  0  0
    6.2619   -0.1690    0.0000 C   0  0  0  0  0  0  0  0  0  0  0  0
    8.2619    1.5630    0.0000 C   0  0  0  0  0  0  0  0  0  0  0  0
    9.2619    1.5630    0.0000 C   0  0  0  0  0  0  0  0  0  0  0  0
    6.2619   -1.9010    0.0000 C   0  0  0  0  0  0  0  0  0  0  0  0
    5.2619   -1.9010    0.0000 C   0  0  0  0  0  0  0  0  0  0  0  0
   10.7619    2.4291    0.0000 C   0  0  0  0  0  0  0  0  0  0  0  0
    4.6783   -1.0963    0.0000 C   0  0  0  0  0  0  0  0  0  0  0  0
    9.2619    3.2951    0.0000 C   0  0  0  0  0  0  0  0  0  0  0  0
    3.7320   -2.4010    0.0000 C   0  0  0  0  0  0  0  0  0  0  0  0
    3.7320   -1.4010    0.0000 C   0  0  0  0  0  0  0  0  0  0  0  0
   11.2619    3.2951    0.0000 C   0  0  0  0  0  0  0  0  0  0  0  0
   11.2619    1.5630    0.0000 C   0  0  0  0  0  0  0  0  0  0  0  0
    2.8660   -2.9010    0.0000 C   0  0  0  0  0  0  0  0  0  0  0  0
    2.8660   -0.9010    0.0000 C   0  0  0  0  0  0  0  0  0  0  0  0
    2.0000   -2.4010    0.0000 C   0  0  0  0  0  0  0  0  0  0  0  0
    2.0000   -1.4010    0.0000 C   0  0  0  0  0  0  0  0  0  0  0  0
   12.2619    3.2951    0.0000 C   0  0  0  0  0  0  0  0  0  0  0  0
   12.2619    1.5630    0.0000 C   0  0  0  0  0  0  0  0  0  0  0  0
   12.7619    2.4291    0.0000 C   0  0  0  0  0  0  0  0  0  0  0  0
   14.2619    3.2951    0.0000 C   0  0  0  0  0  0  0  0  0  0  0  0
    8.7368   -0.5675    0.0000 H   0  0  0  0  0  0  0  0  0  0  0  0
    8.7368    0.2295    0.0000 H   0  0  0  0  0  0  0  0  0  0  0  0
    6.8695    1.3076    0.0000 H   0  0  0  0  0  0  0  0  0  0  0  0
    6.1793    0.9091    0.0000 H   0  0  0  0  0  0  0  0  0  0  0  0
    7.6542   -1.6456    0.0000 H   0  0  0  0  0  0  0  0  0  0  0  0
    8.3445   -1.2471    0.0000 H   0  0  0  0  0  0  0  0  0  0  0  0
    5.7869    0.2295    0.0000 H   0  0  0  0  0  0  0  0  0  0  0  0
    5.7869   -0.5675    0.0000 H   0  0  0  0  0  0  0  0  0  0  0  0
    8.3695    2.1736    0.0000 H   0  0  0  0  0  0  0  0  0  0  0  0
    7.6793    1.7751    0.0000 H   0  0  0  0  0  0  0  0  0  0  0  0
    9.1542    0.9525    0.0000 H   0  0  0  0  0  0  0  0  0  0  0  0
    9.8445    1.3510    0.0000 H   0  0  0  0  0  0  0  0  0  0  0  0
    4.8709   -3.2951    0.0000 H   0  0  0  0  0  0  0  0  0  0  0  0
    4.8709   -0.5070    0.0000 H   0  0  0  0  0  0  0  0  0  0  0  0
    9.7988    3.6051    0.0000 H   0  0  0  0  0  0  0  0  0  0  0  0
    8.9519    3.8320    0.0000 H   0  0  0  0  0  0  0  0  0  0  0  0
    8.7249    2.9851    0.0000 H   0  0  0  0  0  0  0  0  0  0  0  0
   10.9519    3.8320    0.0000 H   0  0  0  0  0  0  0  0  0  0  0  0
   10.9519    1.0261    0.0000 H   0  0  0  0  0  0  0  0  0  0  0  0
    2.8660   -3.5210    0.0000 H   0  0  0  0  0  0  0  0  0  0  0  0
    2.8660   -0.2810    0.0000 H   0  0  0  0  0  0  0  0  0  0  0  0
    1.4631   -2.7110    0.0000 H   0  0  0  0  0  0  0  0  0  0  0  0
    1.4631   -1.0910    0.0000 H   0  0  0  0  0  0  0  0  0  0  0  0
   12.5719    3.8320    0.0000 H   0  0  0  0  0  0  0  0  0  0  0  0
   12.5719    1.0261    0.0000 H   0  0  0  0  0  0  0  0  0  0  0  0
   14.7988    2.9851    0.0000 H   0  0  0  0  0  0  0  0  0  0  0  0
   14.5719    3.8320    0.0000 H   0  0  0  0  0  0  0  0  0  0  0  0
   13.7249    3.6051    0.0000 H   0  0  0  0  0  0  0  0  0  0  0  0
  1 13  2  0  0  0  0
  2 28  1  0  0  0  0
  2 29  1  0  0  0  0
  3  7  1  0  0  0  0
  3  8  1  0  0  0  0
  3 11  1  0  0  0  0
  4  9  1  0  0  0  0
  4 10  1  0  0  0  0
  4 13  1  0  0  0  0
  5 12  1  0  0  0  0
  5 15  1  0  0  0  0
  5 17  1  0  0  0  0
  6 14  1  0  0  0  0
  6 18  1  0  0  0  0
  6 42  1  0  0  0  0
  7  9  1  0  0  0  0
  7 30  1  0  0  0  0
  7 31  1  0  0  0  0
  8 10  1  0  0  0  0
  8 32  1  0  0  0  0
  8 33  1  0  0  0  0
  9 34  1  0  0  0  0
  9 35  1  0  0  0  0
 10 36  1  0  0  0  0
 10 37  1  0  0  0  0
 11 12  1  0  0  0  0
 11 38  1  0  0  0  0
 11 39  1  0  0  0  0
 12 40  1  0  0  0  0
 12 41  1  0  0  0  0
 13 14  1  0  0  0  0
 14 16  2  0  0  0  0
 15 20  2  0  0  0  0
 15 21  1  0  0  0  0
 16 19  1  0  0  0  0
 16 43  1  0  0  0  0
 17 44  1  0  0  0  0
 17 45  1  0  0  0  0
 17 46  1  0  0  0  0
 18 19  1  0  0  0  0
 18 22  2  0  0  0  0
 19 23  2  0  0  0  0
 20 26  1  0  0  0  0
 20 47  1  0  0  0  0
 21 27  2  0  0  0  0
 21 48  1  0  0  0  0
 22 24  1  0  0  0  0
 22 49  1  0  0  0  0
 23 25  1  0  0  0  0
 23 50  1  0  0  0  0
 24 25  2  0  0  0  0
 24 51  1  0  0  0  0
 25 52  1  0  0  0  0
 26 28  2  0  0  0  0
 26 53  1  0  0  0  0
 27 28  1  0  0  0  0
 27 54  1  0  0  0  0
 29 55  1  0  0  0  0
 29 56  1  0  0  0  0
 29 57  1  0  0  0  0
M  END
> <PUBCHEM_COMPOUND_CID>
71725006

> <PUBCHEM_COMPOUND_CANONICALIZED>
1

> <PUBCHEM_CACTVS_COMPLEXITY>
529

> <PUBCHEM_CACTVS_HBOND_ACCEPTOR>
4

> <PUBCHEM_CACTVS_HBOND_DONOR>
1

> <PUBCHEM_CACTVS_ROTATABLE_BOND>
6

> <PUBCHEM_CACTVS_SUBSKEYS>
AAADceB7sAAAAAAAAAAAAAAAAAAAAWAAAAA8YIAAAAAAAFgB9AAAHgAQAAAADAzBngYyxvPJlACoAyVyVACCiCAnIiAImSG+bNgMZvLEtbuUMShk1hHI6Ye4yYCeAEAAAAACAAAAgAAAAAQAAAAAAAAAAA==

> <PUBCHEM_IUPAC_OPENEYE_NAME>
1H-indol-2-yl-[4-[2-(4-methoxy-N-methyl-anilino)ethyl]piperazin-1-yl]methanone

> <PUBCHEM_IUPAC_CAS_NAME>
1H-indol-2-yl-[4-[2-(4-methoxy-N-methylanilino)ethyl]-1-piperazinyl]methanone

> <PUBCHEM_IUPAC_NAME_MARKUP>
1<I>H</I>-indol-2-yl-[4-[2-(4-methoxy-<I>N</I>-methylanilino)ethyl]piperazin-1-yl]methanone

> <PUBCHEM_IUPAC_NAME>
1H-indol-2-yl-[4-[2-(4-methoxy-N-methylanilino)ethyl]piperazin-1-yl]methanone

> <PUBCHEM_IUPAC_SYSTEMATIC_NAME>
1H-indol-2-yl-[4-[2-[(4-methoxyphenyl)-methyl-amino]ethyl]piperazin-1-yl]methanone

> <PUBCHEM_IUPAC_TRADITIONAL_NAME>
1H-indol-2-yl-[4-[2-(4-methoxy-N-methyl-anilino)ethyl]piperazino]methanone

> <PUBCHEM_IUPAC_INCHI>
InChI=1S/C23H28N4O2/c1-25(19-7-9-20(29-2)10-8-19)11-12-26-13-15-27(16-14-26)23(28)22-17-18-5-3-4-6-21(18)24-22/h3-10,17,24H,11-16H2,1-2H3

> <PUBCHEM_IUPAC_INCHIKEY>
HNAJEKAVHQELJQ-UHFFFAOYSA-N

> <PUBCHEM_XLOGP3_AA>
3.4

> <PUBCHEM_EXACT_MASS>
392.22122615

> <PUBCHEM_MOLECULAR_FORMULA>
C23H28N4O2

> <PUBCHEM_MOLECULAR_WEIGHT>
392.5

> <PUBCHEM_OPENEYE_CAN_SMILES>
CN(CCN1CCN(CC1)C(=O)C2=CC3=CC=CC=C3N2)C4=CC=C(C=C4)OC

> <PUBCHEM_OPENEYE_ISO_SMILES>
CN(CCN1CCN(CC1)C(=O)C2=CC3=CC=CC=C3N2)C4=CC=C(C=C4)OC

> <PUBCHEM_CACTVS_TPSA>
51.8

> <PUBCHEM_MONOISOTOPIC_WEIGHT>
392.22122615

> <PUBCHEM_TOTAL_CHARGE>
0

> <PUBCHEM_HEAVY_ATOM_COUNT>
29

> <PUBCHEM_ATOM_DEF_STEREO_COUNT>
0

> <PUBCHEM_ATOM_UDEF_STEREO_COUNT>
0

> <PUBCHEM_BOND_DEF_STEREO_COUNT>
0

> <PUBCHEM_BOND_UDEF_STEREO_COUNT>
0

> <PUBCHEM_ISOTOPIC_ATOM_COUNT>
0

> <PUBCHEM_COMPONENT_COUNT>
1

> <PUBCHEM_CACTVS_TAUTO_COUNT>
-1

> <PUBCHEM_COORDINATE_TYPE>
1
5
255

> <PUBCHEM_BONDANNOTATIONS>
14  16  8
15  20  8
15  21  8
16  19  8
18  19  8
18  22  8
19  23  8
20  26  8
21  27  8
22  24  8
23  25  8
24  25  8
26  28  8
27  28  8
6  14  8
6  18  8

$$$$
