44425702
  -OEChem-09292322242D

 52 55  0     1  0  0  0  0  0999 V2000
   13.0701   -2.8000    0.0000 Cl  0  0  0  0  0  0  0  0  0  0  0  0
    8.7227    1.6833    0.0000 S   0  0  0  0  0  0  0  0  0  0  0  0
   14.7983   -1.7933    0.0000 F   0  0  0  0  0  0  0  0  0  0  0  0
    9.2194    2.5513    0.0000 O   0  0  0  0  0  0  0  0  0  0  0  0
    8.2260    0.8154    0.0000 O   0  0  0  0  0  0  0  0  0  0  0  0
    3.0000    1.1558    0.0000 N   0  0  3  0  0  0  0  0  0  0  0  0
    7.8547    2.1800    0.0000 N   0  0  0  0  0  0  0  0  0  0  0  0
    4.4088    2.2793    0.0000 C   0  0  0  0  0  0  0  0  0  0  0  0
    4.4088    0.0323    0.0000 C   0  0  0  0  0  0  0  0  0  0  0  0
    3.4339    2.0568    0.0000 C   0  0  0  0  0  0  0  0  0  0  0  0
    3.4339    0.2549    0.0000 C   0  0  0  0  0  0  0  0  0  0  0  0
    5.1906    1.6558    0.0000 C   0  0  0  0  0  0  0  0  0  0  0  0
    5.1906    0.6558    0.0000 C   0  0  0  0  0  0  0  0  0  0  0  0
    6.0846    2.1905    0.0000 C   0  0  0  0  0  0  0  0  0  0  0  0
    6.0846    0.1212    0.0000 C   0  0  0  0  0  0  0  0  0  0  0  0
    6.9906    1.6766    0.0000 C   0  0  0  0  0  0  0  0  0  0  0  0
    2.0000    1.1558    0.0000 C   0  0  0  0  0  0  0  0  0  0  0  0
    6.9906    0.6350    0.0000 C   0  0  0  0  0  0  0  0  0  0  0  0
    9.5906    1.1866    0.0000 C   0  0  0  0  0  0  0  0  0  0  0  0
   10.4547    1.6900    0.0000 C   0  0  0  0  0  0  0  0  0  0  0  0
    9.5945    0.1867    0.0000 C   0  0  0  0  0  0  0  0  0  0  0  0
   11.3265    0.1933    0.0000 C   0  0  0  0  0  0  0  0  0  0  0  0
   11.3227    1.1933    0.0000 C   0  0  0  0  0  0  0  0  0  0  0  0
   10.4624   -0.3100    0.0000 C   0  0  0  0  0  0  0  0  0  0  0  0
   12.1945   -0.3033    0.0000 C   0  0  0  0  0  0  0  0  0  0  0  0
   12.1983   -1.3033    0.0000 C   0  0  0  0  0  0  0  0  0  0  0  0
   13.0586    0.2000    0.0000 C   0  0  0  0  0  0  0  0  0  0  0  0
   13.0663   -1.8000    0.0000 C   0  0  0  0  0  0  0  0  0  0  0  0
   13.9265   -0.2966    0.0000 C   0  0  0  0  0  0  0  0  0  0  0  0
   13.9304   -1.2966    0.0000 C   0  0  0  0  0  0  0  0  0  0  0  0
    4.8936    2.6659    0.0000 H   0  0  0  0  0  0  0  0  0  0  0  0
    4.1398    2.8379    0.0000 H   0  0  0  0  0  0  0  0  0  0  0  0
    4.1398   -0.5263    0.0000 H   0  0  0  0  0  0  0  0  0  0  0  0
    4.8936   -0.3542    0.0000 H   0  0  0  0  0  0  0  0  0  0  0  0
    3.4339    2.6768    0.0000 H   0  0  0  0  0  0  0  0  0  0  0  0
    2.8294    2.1948    0.0000 H   0  0  0  0  0  0  0  0  0  0  0  0
    2.8294    0.1169    0.0000 H   0  0  0  0  0  0  0  0  0  0  0  0
    3.4339   -0.3651    0.0000 H   0  0  0  0  0  0  0  0  0  0  0  0
    6.0774    2.8104    0.0000 H   0  0  0  0  0  0  0  0  0  0  0  0
    6.0774   -0.4988    0.0000 H   0  0  0  0  0  0  0  0  0  0  0  0
    2.0000    1.7758    0.0000 H   0  0  0  0  0  0  0  0  0  0  0  0
    1.3800    1.1558    0.0000 H   0  0  0  0  0  0  0  0  0  0  0  0
    2.0000    0.5358    0.0000 H   0  0  0  0  0  0  0  0  0  0  0  0
    7.5264    0.3229    0.0000 H   0  0  0  0  0  0  0  0  0  0  0  0
    7.8524    2.8000    0.0000 H   0  0  0  0  0  0  0  0  0  0  0  0
   10.4523    2.3100    0.0000 H   0  0  0  0  0  0  0  0  0  0  0  0
    9.0588   -0.1254    0.0000 H   0  0  0  0  0  0  0  0  0  0  0  0
   11.8584    1.5054    0.0000 H   0  0  0  0  0  0  0  0  0  0  0  0
   10.4648   -0.9300    0.0000 H   0  0  0  0  0  0  0  0  0  0  0  0
   11.6626   -1.6154    0.0000 H   0  0  0  0  0  0  0  0  0  0  0  0
   13.0562    0.8200    0.0000 H   0  0  0  0  0  0  0  0  0  0  0  0
   14.4622    0.0154    0.0000 H   0  0  0  0  0  0  0  0  0  0  0  0
  1 28  1  0  0  0  0
  2  4  2  0  0  0  0
  2  5  2  0  0  0  0
  2  7  1  0  0  0  0
  2 19  1  0  0  0  0
  3 30  1  0  0  0  0
  6 10  1  0  0  0  0
  6 11  1  0  0  0  0
  6 17  1  0  0  0  0
  7 16  1  0  0  0  0
  7 45  1  0  0  0  0
  8 10  1  0  0  0  0
  8 12  1  0  0  0  0
  8 31  1  0  0  0  0
  8 32  1  0  0  0  0
  9 11  1  0  0  0  0
  9 13  1  0  0  0  0
  9 33  1  0  0  0  0
  9 34  1  0  0  0  0
 10 35  1  0  0  0  0
 10 36  1  0  0  0  0
 11 37  1  0  0  0  0
 11 38  1  0  0  0  0
 12 13  2  0  0  0  0
 12 14  1  0  0  0  0
 13 15  1  0  0  0  0
 14 16  2  0  0  0  0
 14 39  1  0  0  0  0
 15 18  2  0  0  0  0
 15 40  1  0  0  0  0
 16 18  1  0  0  0  0
 17 41  1  0  0  0  0
 17 42  1  0  0  0  0
 17 43  1  0  0  0  0
 18 44  1  0  0  0  0
 19 20  2  0  0  0  0
 19 21  1  0  0  0  0
 20 23  1  0  0  0  0
 20 46  1  0  0  0  0
 21 24  2  0  0  0  0
 21 47  1  0  0  0  0
 22 23  2  0  0  0  0
 22 24  1  0  0  0  0
 22 25  1  0  0  0  0
 23 48  1  0  0  0  0
 24 49  1  0  0  0  0
 25 26  2  0  0  0  0
 25 27  1  0  0  0  0
 26 28  1  0  0  0  0
 26 50  1  0  0  0  0
 27 29  2  0  0  0  0
 27 51  1  0  0  0  0
 28 30  2  0  0  0  0
 29 30  1  0  0  0  0
 29 52  1  0  0  0  0
M  END
> <PUBCHEM_COMPOUND_CID>
44425702

> <PUBCHEM_COMPOUND_CANONICALIZED>
1

> <PUBCHEM_CACTVS_COMPLEXITY>
665

> <PUBCHEM_CACTVS_HBOND_ACCEPTOR>
5

> <PUBCHEM_CACTVS_HBOND_DONOR>
1

> <PUBCHEM_CACTVS_ROTATABLE_BOND>
4

> <PUBCHEM_CACTVS_SUBSKEYS>
AAADceB7MQBEAAAAAAAAAAAAAAAAAAAAAAAwYMAABYAAAAABUAAAHQYQQAAADArBWCwywYNAAAKAAiRCQHDCABAgBwAIiBgIZogIICKBk5GEIABgkACIyAcQgMAOmAAAYAAQAAAwAADAACAAAAAAAAAAAA==

> <PUBCHEM_IUPAC_OPENEYE_NAME>
4-(3-chloro-4-fluoro-phenyl)-N-(3-methyl-1,2,4,5-tetrahydro-3-benzazepin-7-yl)benzenesulfonamide

> <PUBCHEM_IUPAC_CAS_NAME>
4-(3-chloro-4-fluorophenyl)-N-(3-methyl-1,2,4,5-tetrahydro-3-benzazepin-7-yl)benzenesulfonamide

> <PUBCHEM_IUPAC_NAME_MARKUP>
4-(3-chloro-4-fluorophenyl)-<I>N</I>-(3-methyl-1,2,4,5-tetrahydro-3-benzazepin-7-yl)benzenesulfonamide

> <PUBCHEM_IUPAC_NAME>
4-(3-chloro-4-fluorophenyl)-N-(3-methyl-1,2,4,5-tetrahydro-3-benzazepin-7-yl)benzenesulfonamide

> <PUBCHEM_IUPAC_SYSTEMATIC_NAME>
4-(3-chloranyl-4-fluoranyl-phenyl)-N-(3-methyl-1,2,4,5-tetrahydro-3-benzazepin-7-yl)benzenesulfonamide

> <PUBCHEM_IUPAC_TRADITIONAL_NAME>
4-(3-chloro-4-fluoro-phenyl)-N-(3-methyl-1,2,4,5-tetrahydro-3-benzazepin-7-yl)benzenesulfonamide

> <PUBCHEM_IUPAC_INCHI>
InChI=1S/C23H22ClFN2O2S/c1-27-12-10-17-2-6-20(14-19(17)11-13-27)26-30(28,29)21-7-3-16(4-8-21)18-5-9-23(25)22(24)15-18/h2-9,14-15,26H,10-13H2,1H3

> <PUBCHEM_IUPAC_INCHIKEY>
JYXPVNIIIHSWLZ-UHFFFAOYSA-N

> <PUBCHEM_XLOGP3_AA>
5.1

> <PUBCHEM_EXACT_MASS>
444.1074550

> <PUBCHEM_MOLECULAR_FORMULA>
C23H22ClFN2O2S

> <PUBCHEM_MOLECULAR_WEIGHT>
444.9

> <PUBCHEM_OPENEYE_CAN_SMILES>
CN1CCC2=C(CC1)C=C(C=C2)NS(=O)(=O)C3=CC=C(C=C3)C4=CC(=C(C=C4)F)Cl

> <PUBCHEM_OPENEYE_ISO_SMILES>
CN1CCC2=C(CC1)C=C(C=C2)NS(=O)(=O)C3=CC=C(C=C3)C4=CC(=C(C=C4)F)Cl

> <PUBCHEM_CACTVS_TPSA>
57.8

> <PUBCHEM_MONOISOTOPIC_WEIGHT>
444.1074550

> <PUBCHEM_TOTAL_CHARGE>
0

> <PUBCHEM_HEAVY_ATOM_COUNT>
30

> <PUBCHEM_ATOM_DEF_STEREO_COUNT>
0

> <PUBCHEM_ATOM_UDEF_STEREO_COUNT>
0

> <PUBCHEM_BOND_DEF_STEREO_COUNT>
0

> <PUBCHEM_BOND_UDEF_STEREO_COUNT>
0

> <PUBCHEM_ISOTOPIC_ATOM_COUNT>
0

> <PUBCHEM_COMPONENT_COUNT>
1

> <PUBCHEM_CACTVS_TAUTO_COUNT>
-1

> <PUBCHEM_COORDINATE_TYPE>
1
5
255

> <PUBCHEM_BONDANNOTATIONS>
12  13  8
12  14  8
13  15  8
14  16  8
15  18  8
16  18  8
19  20  8
19  21  8
20  23  8
21  24  8
22  23  8
22  24  8
25  26  8
25  27  8
26  28  8
27  29  8
28  30  8
29  30  8

$$$$
