126720397
  -OEChem-09292322432D

 47 50  0     0  0  0  0  0  0999 V2000
    4.9889    1.7618    0.0000 S   0  0  0  0  0  0  0  0  0  0  0  0
    7.5673    4.0753    0.0000 F   0  0  0  0  0  0  0  0  0  0  0  0
    5.9394    1.4512    0.0000 O   0  0  0  0  0  0  0  0  0  0  0  0
    4.0384    2.0725    0.0000 O   0  0  0  0  0  0  0  0  0  0  0  0
    2.8660   -1.9934    0.0000 N   0  0  0  0  0  0  0  0  0  0  0  0
    4.6783    0.8113    0.0000 N   0  0  0  0  0  0  0  0  0  0  0  0
    2.8660   -3.9934    0.0000 N   0  0  0  0  0  0  0  0  0  0  0  0
    4.6783   -0.7981    0.0000 N   0  0  0  0  0  0  0  0  0  0  0  0
    2.0000   -0.4934    0.0000 N   0  0  0  0  0  0  0  0  0  0  0  0
    2.0000   -2.4934    0.0000 C   0  0  0  0  0  0  0  0  0  0  0  0
    3.7320   -2.4934    0.0000 C   0  0  0  0  0  0  0  0  0  0  0  0
    2.8660   -0.9934    0.0000 C   0  0  0  0  0  0  0  0  0  0  0  0
    2.0000   -3.4934    0.0000 C   0  0  0  0  0  0  0  0  0  0  0  0
    3.7320   -3.4934    0.0000 C   0  0  0  0  0  0  0  0  0  0  0  0
    3.7320   -0.4934    0.0000 C   0  0  0  0  0  0  0  0  0  0  0  0
    3.7320    0.5066    0.0000 C   0  0  0  0  0  0  0  0  0  0  0  0
    5.2619    0.0066    0.0000 C   0  0  0  0  0  0  0  0  0  0  0  0
    6.2619    0.0066    0.0000 C   0  0  0  0  0  0  0  0  0  0  0  0
    2.8660    1.0066    0.0000 C   0  0  0  0  0  0  0  0  0  0  0  0
    5.2996    2.7124    0.0000 C   0  0  0  0  0  0  0  0  0  0  0  0
    2.0000    0.5066    0.0000 C   0  0  0  0  0  0  0  0  0  0  0  0
    6.7619   -0.8594    0.0000 C   0  0  0  0  0  0  0  0  0  0  0  0
    6.2781    2.9186    0.0000 C   0  0  0  0  0  0  0  0  0  0  0  0
    4.6318    3.4567    0.0000 C   0  0  0  0  0  0  0  0  0  0  0  0
    6.5888    3.8691    0.0000 C   0  0  0  0  0  0  0  0  0  0  0  0
    4.9424    4.4072    0.0000 C   0  0  0  0  0  0  0  0  0  0  0  0
    5.9209    4.6134    0.0000 C   0  0  0  0  0  0  0  0  0  0  0  0
    1.7880   -1.9108    0.0000 H   0  0  0  0  0  0  0  0  0  0  0  0
    1.3894   -2.6011    0.0000 H   0  0  0  0  0  0  0  0  0  0  0  0
    4.3426   -2.6011    0.0000 H   0  0  0  0  0  0  0  0  0  0  0  0
    3.9441   -1.9108    0.0000 H   0  0  0  0  0  0  0  0  0  0  0  0
    1.3894   -3.3857    0.0000 H   0  0  0  0  0  0  0  0  0  0  0  0
    1.7880   -4.0760    0.0000 H   0  0  0  0  0  0  0  0  0  0  0  0
    3.9441   -4.0760    0.0000 H   0  0  0  0  0  0  0  0  0  0  0  0
    4.3426   -3.3857    0.0000 H   0  0  0  0  0  0  0  0  0  0  0  0
    2.8660   -4.6134    0.0000 H   0  0  0  0  0  0  0  0  0  0  0  0
    6.8445    0.2186    0.0000 H   0  0  0  0  0  0  0  0  0  0  0  0
    6.1542    0.6172    0.0000 H   0  0  0  0  0  0  0  0  0  0  0  0
    2.8660    1.6266    0.0000 H   0  0  0  0  0  0  0  0  0  0  0  0
    1.4631    0.8166    0.0000 H   0  0  0  0  0  0  0  0  0  0  0  0
    6.2249   -1.1694    0.0000 H   0  0  0  0  0  0  0  0  0  0  0  0
    7.0719   -1.3964    0.0000 H   0  0  0  0  0  0  0  0  0  0  0  0
    7.2988   -0.5494    0.0000 H   0  0  0  0  0  0  0  0  0  0  0  0
    6.6922    2.4571    0.0000 H   0  0  0  0  0  0  0  0  0  0  0  0
    4.0251    3.3288    0.0000 H   0  0  0  0  0  0  0  0  0  0  0  0
    4.5284    4.8686    0.0000 H   0  0  0  0  0  0  0  0  0  0  0  0
    6.1135    5.2027    0.0000 H   0  0  0  0  0  0  0  0  0  0  0  0
  1  3  2  0  0  0  0
  1  4  2  0  0  0  0
  1  6  1  0  0  0  0
  1 20  1  0  0  0  0
  2 25  1  0  0  0  0
  5 10  1  0  0  0  0
  5 11  1  0  0  0  0
  5 12  1  0  0  0  0
  6 16  1  0  0  0  0
  6 17  1  0  0  0  0
  7 13  1  0  0  0  0
  7 14  1  0  0  0  0
  7 36  1  0  0  0  0
  8 15  1  0  0  0  0
  8 17  2  0  0  0  0
  9 12  2  0  0  0  0
  9 21  1  0  0  0  0
 10 13  1  0  0  0  0
 10 28  1  0  0  0  0
 10 29  1  0  0  0  0
 11 14  1  0  0  0  0
 11 30  1  0  0  0  0
 11 31  1  0  0  0  0
 12 15  1  0  0  0  0
 13 32  1  0  0  0  0
 13 33  1  0  0  0  0
 14 34  1  0  0  0  0
 14 35  1  0  0  0  0
 15 16  2  0  0  0  0
 16 19  1  0  0  0  0
 17 18  1  0  0  0  0
 18 22  1  0  0  0  0
 18 37  1  0  0  0  0
 18 38  1  0  0  0  0
 19 21  2  0  0  0  0
 19 39  1  0  0  0  0
 20 23  1  0  0  0  0
 20 24  2  0  0  0  0
 21 40  1  0  0  0  0
 22 41  1  0  0  0  0
 22 42  1  0  0  0  0
 22 43  1  0  0  0  0
 23 25  2  0  0  0  0
 23 44  1  0  0  0  0
 24 26  1  0  0  0  0
 24 45  1  0  0  0  0
 25 27  1  0  0  0  0
 26 27  2  0  0  0  0
 26 46  1  0  0  0  0
 27 47  1  0  0  0  0
M  END
> <PUBCHEM_COMPOUND_CID>
126720397

> <PUBCHEM_COMPOUND_CANONICALIZED>
1

> <PUBCHEM_CACTVS_COMPLEXITY>
609

> <PUBCHEM_CACTVS_HBOND_ACCEPTOR>
7

> <PUBCHEM_CACTVS_HBOND_DONOR>
1

> <PUBCHEM_CACTVS_ROTATABLE_BOND>
4

> <PUBCHEM_CACTVS_SUBSKEYS>
AAADceB7sQBAAAAAAAAAAAAAAAAAAWAAAAA8WIAAAAAAAFgB/AAAHQQQQAAACAjBVww/8bfIEAKgATZnZHDCgD0xEqAJ2Lg4dJiIaOLA2dGUJAhokALIyCcQAAAAAAAAAAAAAAAAAAAAAAAAAAAAAAAAAA==

> <PUBCHEM_IUPAC_OPENEYE_NAME>
2-ethyl-1-(3-fluorophenyl)sulfonyl-4-piperazin-1-yl-imidazo[4,5-c]pyridine

> <PUBCHEM_IUPAC_CAS_NAME>
2-ethyl-1-(3-fluorophenyl)sulfonyl-4-(1-piperazinyl)imidazo[4,5-c]pyridine

> <PUBCHEM_IUPAC_NAME_MARKUP>
2-ethyl-1-(3-fluorophenyl)sulfonyl-4-piperazin-1-ylimidazo[4,5-c]pyridine

> <PUBCHEM_IUPAC_NAME>
2-ethyl-1-(3-fluorophenyl)sulfonyl-4-piperazin-1-ylimidazo[4,5-c]pyridine

> <PUBCHEM_IUPAC_SYSTEMATIC_NAME>
2-ethyl-1-(3-fluorophenyl)sulfonyl-4-piperazin-1-yl-imidazo[4,5-c]pyridine

> <PUBCHEM_IUPAC_TRADITIONAL_NAME>
2-ethyl-1-(3-fluorophenyl)sulfonyl-4-piperazino-imidazo[4,5-c]pyridine

> <PUBCHEM_IUPAC_INCHI>
InChI=1S/C18H20FN5O2S/c1-2-16-22-17-15(6-7-21-18(17)23-10-8-20-9-11-23)24(16)27(25,26)14-5-3-4-13(19)12-14/h3-7,12,20H,2,8-11H2,1H3

> <PUBCHEM_IUPAC_INCHIKEY>
UXDZDQRAGSHUBW-UHFFFAOYSA-N

> <PUBCHEM_XLOGP3_AA>
2.3

> <PUBCHEM_EXACT_MASS>
389.13217423

> <PUBCHEM_MOLECULAR_FORMULA>
C18H20FN5O2S

> <PUBCHEM_MOLECULAR_WEIGHT>
389.4

> <PUBCHEM_OPENEYE_CAN_SMILES>
CCC1=NC2=C(N1S(=O)(=O)C3=CC=CC(=C3)F)C=CN=C2N4CCNCC4

> <PUBCHEM_OPENEYE_ISO_SMILES>
CCC1=NC2=C(N1S(=O)(=O)C3=CC=CC(=C3)F)C=CN=C2N4CCNCC4

> <PUBCHEM_CACTVS_TPSA>
88.5

> <PUBCHEM_MONOISOTOPIC_WEIGHT>
389.13217423

> <PUBCHEM_TOTAL_CHARGE>
0

> <PUBCHEM_HEAVY_ATOM_COUNT>
27

> <PUBCHEM_ATOM_DEF_STEREO_COUNT>
0

> <PUBCHEM_ATOM_UDEF_STEREO_COUNT>
0

> <PUBCHEM_BOND_DEF_STEREO_COUNT>
0

> <PUBCHEM_BOND_UDEF_STEREO_COUNT>
0

> <PUBCHEM_ISOTOPIC_ATOM_COUNT>
0

> <PUBCHEM_COMPONENT_COUNT>
1

> <PUBCHEM_CACTVS_TAUTO_COUNT>
-1

> <PUBCHEM_COORDINATE_TYPE>
1
5
255

> <PUBCHEM_BONDANNOTATIONS>
12  15  8
15  16  8
16  19  8
19  21  8
20  23  8
20  24  8
23  25  8
24  26  8
25  27  8
26  27  8
6  16  8
6  17  8
8  15  8
8  17  8
9  12  8
9  21  8

$$$$
