25157845
  -OEChem-09292322502D

 69 72  0     1  0  0  0  0  0999 V2000
    9.8622   -1.7450    0.0000 O   0  0  0  0  0  0  0  0  0  0  0  0
    2.0000   -2.2108    0.0000 O   0  0  0  0  0  0  0  0  0  0  0  0
    2.0000   -0.2108    0.0000 O   0  0  0  0  0  0  0  0  0  0  0  0
   10.7455    2.7516    0.0000 O   0  0  0  0  0  0  0  0  0  0  0  0
    6.3981   -1.7316    0.0000 N   0  0  3  0  0  0  0  0  0  0  0  0
    6.3981   -0.6900    0.0000 C   0  0  0  0  0  0  0  0  0  0  0  0
    5.4920   -2.2455    0.0000 C   0  0  0  0  0  0  0  0  0  0  0  0
    5.4920   -0.1762    0.0000 C   0  0  0  0  0  0  0  0  0  0  0  0
    4.5981   -1.7108    0.0000 C   0  0  0  0  0  0  0  0  0  0  0  0
    4.5981   -0.7108    0.0000 C   0  0  0  0  0  0  0  0  0  0  0  0
    7.2622   -2.2350    0.0000 C   0  0  0  0  0  0  0  0  0  0  0  0
    8.1301   -1.7383    0.0000 C   0  0  0  0  0  0  0  0  0  0  0  0
    3.7320   -2.2108    0.0000 C   0  0  0  0  0  0  0  0  0  0  0  0
    3.7320   -0.2108    0.0000 C   0  0  0  0  0  0  0  0  0  0  0  0
    8.9942   -2.2416    0.0000 C   0  0  0  0  0  0  0  0  0  0  0  0
    2.8660   -1.7108    0.0000 C   0  0  0  0  0  0  0  0  0  0  0  0
    2.8660   -0.7108    0.0000 C   0  0  0  0  0  0  0  0  0  0  0  0
   10.7263   -2.2483    0.0000 C   0  0  0  0  0  0  0  0  0  0  0  0
   11.5942   -1.7517    0.0000 C   0  0  0  0  0  0  0  0  0  0  0  0
   11.5981   -0.7517    0.0000 C   0  0  0  0  0  0  0  0  0  0  0  0
   12.4660   -0.2550    0.0000 C   0  0  0  0  0  0  0  0  0  0  0  0
   10.7224   -3.2483    0.0000 C   0  0  0  0  0  0  0  0  0  0  0  0
   12.4583   -2.2550    0.0000 C   0  0  0  0  0  0  0  0  0  0  0  0
   12.4699    0.7450    0.0000 C   0  0  0  0  0  0  0  0  0  0  0  0
    2.0000   -3.2108    0.0000 C   0  0  0  0  0  0  0  0  0  0  0  0
    2.0000    0.7892    0.0000 C   0  0  0  0  0  0  0  0  0  0  0  0
   11.5865   -3.7516    0.0000 C   0  0  0  0  0  0  0  0  0  0  0  0
   12.4544   -3.2550    0.0000 C   0  0  0  0  0  0  0  0  0  0  0  0
   11.6058    1.2483    0.0000 C   0  0  0  0  0  0  0  0  0  0  0  0
   13.3378    1.2416    0.0000 C   0  0  0  0  0  0  0  0  0  0  0  0
   11.6096    2.2483    0.0000 C   0  0  0  0  0  0  0  0  0  0  0  0
   13.3417    2.2416    0.0000 C   0  0  0  0  0  0  0  0  0  0  0  0
   12.4776    2.7450    0.0000 C   0  0  0  0  0  0  0  0  0  0  0  0
   10.7494    3.7516    0.0000 C   0  0  0  0  0  0  0  0  0  0  0  0
    7.0089   -0.7961    0.0000 H   0  0  0  0  0  0  0  0  0  0  0  0
    6.6071   -0.1063    0.0000 H   0  0  0  0  0  0  0  0  0  0  0  0
    5.0874   -2.7153    0.0000 H   0  0  0  0  0  0  0  0  0  0  0  0
    5.8856   -2.7245    0.0000 H   0  0  0  0  0  0  0  0  0  0  0  0
    5.8856    0.3029    0.0000 H   0  0  0  0  0  0  0  0  0  0  0  0
    5.0874    0.2936    0.0000 H   0  0  0  0  0  0  0  0  0  0  0  0
    6.8618   -2.7084    0.0000 H   0  0  0  0  0  0  0  0  0  0  0  0
    7.6589   -2.7114    0.0000 H   0  0  0  0  0  0  0  0  0  0  0  0
    8.5305   -1.2649    0.0000 H   0  0  0  0  0  0  0  0  0  0  0  0
    7.7334   -1.2618    0.0000 H   0  0  0  0  0  0  0  0  0  0  0  0
    3.7320   -2.8308    0.0000 H   0  0  0  0  0  0  0  0  0  0  0  0
    3.7320    0.4092    0.0000 H   0  0  0  0  0  0  0  0  0  0  0  0
    8.5939   -2.7151    0.0000 H   0  0  0  0  0  0  0  0  0  0  0  0
    9.3909   -2.7181    0.0000 H   0  0  0  0  0  0  0  0  0  0  0  0
   11.3882   -0.1682    0.0000 H   0  0  0  0  0  0  0  0  0  0  0  0
   10.9871   -0.8570    0.0000 H   0  0  0  0  0  0  0  0  0  0  0  0
   12.6758   -0.8384    0.0000 H   0  0  0  0  0  0  0  0  0  0  0  0
   13.0770   -0.1497    0.0000 H   0  0  0  0  0  0  0  0  0  0  0  0
   10.1843   -3.5562    0.0000 H   0  0  0  0  0  0  0  0  0  0  0  0
   12.9964   -1.9471    0.0000 H   0  0  0  0  0  0  0  0  0  0  0  0
    1.3800   -3.2108    0.0000 H   0  0  0  0  0  0  0  0  0  0  0  0
    2.0000   -3.8308    0.0000 H   0  0  0  0  0  0  0  0  0  0  0  0
    2.6200   -3.2108    0.0000 H   0  0  0  0  0  0  0  0  0  0  0  0
    2.6200    0.7892    0.0000 H   0  0  0  0  0  0  0  0  0  0  0  0
    2.0000    1.4092    0.0000 H   0  0  0  0  0  0  0  0  0  0  0  0
    1.3800    0.7892    0.0000 H   0  0  0  0  0  0  0  0  0  0  0  0
   11.5841   -4.3716    0.0000 H   0  0  0  0  0  0  0  0  0  0  0  0
   12.9902   -3.5670    0.0000 H   0  0  0  0  0  0  0  0  0  0  0  0
   11.0676    0.9404    0.0000 H   0  0  0  0  0  0  0  0  0  0  0  0
   13.8735    0.9296    0.0000 H   0  0  0  0  0  0  0  0  0  0  0  0
   13.8798    2.5496    0.0000 H   0  0  0  0  0  0  0  0  0  0  0  0
   12.4800    3.3650    0.0000 H   0  0  0  0  0  0  0  0  0  0  0  0
   11.3694    3.7492    0.0000 H   0  0  0  0  0  0  0  0  0  0  0  0
   10.7518    4.3716    0.0000 H   0  0  0  0  0  0  0  0  0  0  0  0
   10.1294    3.7540    0.0000 H   0  0  0  0  0  0  0  0  0  0  0  0
  1 15  1  0  0  0  0
  1 18  1  0  0  0  0
  2 16  1  0  0  0  0
  2 25  1  0  0  0  0
  3 17  1  0  0  0  0
  3 26  1  0  0  0  0
  4 31  1  0  0  0  0
  4 34  1  0  0  0  0
  5  6  1  0  0  0  0
  5  7  1  0  0  0  0
  5 11  1  0  0  0  0
  6  8  1  0  0  0  0
  6 35  1  0  0  0  0
  6 36  1  0  0  0  0
  7  9  1  0  0  0  0
  7 37  1  0  0  0  0
  7 38  1  0  0  0  0
  8 10  1  0  0  0  0
  8 39  1  0  0  0  0
  8 40  1  0  0  0  0
  9 10  1  0  0  0  0
  9 13  2  0  0  0  0
 10 14  2  0  0  0  0
 11 12  1  0  0  0  0
 11 41  1  0  0  0  0
 11 42  1  0  0  0  0
 12 15  1  0  0  0  0
 12 43  1  0  0  0  0
 12 44  1  0  0  0  0
 13 16  1  0  0  0  0
 13 45  1  0  0  0  0
 14 17  1  0  0  0  0
 14 46  1  0  0  0  0
 15 47  1  0  0  0  0
 15 48  1  0  0  0  0
 16 17  2  0  0  0  0
 18 19  1  0  0  0  0
 18 22  2  0  0  0  0
 19 20  1  0  0  0  0
 19 23  2  0  0  0  0
 20 21  1  0  0  0  0
 20 49  1  0  0  0  0
 20 50  1  0  0  0  0
 21 24  1  0  0  0  0
 21 51  1  0  0  0  0
 21 52  1  0  0  0  0
 22 27  1  0  0  0  0
 22 53  1  0  0  0  0
 23 28  1  0  0  0  0
 23 54  1  0  0  0  0
 24 29  2  0  0  0  0
 24 30  1  0  0  0  0
 25 55  1  0  0  0  0
 25 56  1  0  0  0  0
 25 57  1  0  0  0  0
 26 58  1  0  0  0  0
 26 59  1  0  0  0  0
 26 60  1  0  0  0  0
 27 28  2  0  0  0  0
 27 61  1  0  0  0  0
 28 62  1  0  0  0  0
 29 31  1  0  0  0  0
 29 63  1  0  0  0  0
 30 32  2  0  0  0  0
 30 64  1  0  0  0  0
 31 33  2  0  0  0  0
 32 33  1  0  0  0  0
 32 65  1  0  0  0  0
 33 66  1  0  0  0  0
 34 67  1  0  0  0  0
 34 68  1  0  0  0  0
 34 69  1  0  0  0  0
M  END
> <PUBCHEM_COMPOUND_CID>
25157845

> <PUBCHEM_COMPOUND_CANONICALIZED>
1

> <PUBCHEM_CACTVS_COMPLEXITY>
574

> <PUBCHEM_CACTVS_HBOND_ACCEPTOR>
5

> <PUBCHEM_CACTVS_HBOND_DONOR>
0

> <PUBCHEM_CACTVS_ROTATABLE_BOND>
11

> <PUBCHEM_CACTVS_SUBSKEYS>
AAADcfB6OAAAAAAAAAAAAAAAAAAAAAAAAAA8YMEAAAAAAACxUAAAHgAAAAAADAThmAYyBoMABACAAiBCAACCCAAgIAAIiAAOjIgNJiKEsRuGOCrmwBGKqAew0PIOoAABAAAYQABAAAIAADCAAAAAAAAAAA==

> <PUBCHEM_IUPAC_OPENEYE_NAME>
6,7-dimethoxy-2-[3-[2-[2-(3-methoxyphenyl)ethyl]phenoxy]propyl]-3,4-dihydro-1H-isoquinoline

> <PUBCHEM_IUPAC_CAS_NAME>
6,7-dimethoxy-2-[3-[2-[2-(3-methoxyphenyl)ethyl]phenoxy]propyl]-3,4-dihydro-1H-isoquinoline

> <PUBCHEM_IUPAC_NAME_MARKUP>
6,7-dimethoxy-2-[3-[2-[2-(3-methoxyphenyl)ethyl]phenoxy]propyl]-3,4-dihydro-1<I>H</I>-isoquinoline

> <PUBCHEM_IUPAC_NAME>
6,7-dimethoxy-2-[3-[2-[2-(3-methoxyphenyl)ethyl]phenoxy]propyl]-3,4-dihydro-1H-isoquinoline

> <PUBCHEM_IUPAC_SYSTEMATIC_NAME>
6,7-dimethoxy-2-[3-[2-[2-(3-methoxyphenyl)ethyl]phenoxy]propyl]-3,4-dihydro-1H-isoquinoline

> <PUBCHEM_IUPAC_TRADITIONAL_NAME>
6,7-dimethoxy-2-[3-[2-[2-(3-methoxyphenyl)ethyl]phenoxy]propyl]-3,4-dihydro-1H-isoquinoline

> <PUBCHEM_IUPAC_INCHI>
InChI=1S/C29H35NO4/c1-31-26-10-6-8-22(18-26)12-13-23-9-4-5-11-27(23)34-17-7-15-30-16-14-24-19-28(32-2)29(33-3)20-25(24)21-30/h4-6,8-11,18-20H,7,12-17,21H2,1-3H3

> <PUBCHEM_IUPAC_INCHIKEY>
BKBFXPYTVYLRLP-UHFFFAOYSA-N

> <PUBCHEM_XLOGP3_AA>
5.9

> <PUBCHEM_EXACT_MASS>
461.25660860

> <PUBCHEM_MOLECULAR_FORMULA>
C29H35NO4

> <PUBCHEM_MOLECULAR_WEIGHT>
461.6

> <PUBCHEM_OPENEYE_CAN_SMILES>
COC1=CC=CC(=C1)CCC2=CC=CC=C2OCCCN3CCC4=CC(=C(C=C4C3)OC)OC

> <PUBCHEM_OPENEYE_ISO_SMILES>
COC1=CC=CC(=C1)CCC2=CC=CC=C2OCCCN3CCC4=CC(=C(C=C4C3)OC)OC

> <PUBCHEM_CACTVS_TPSA>
40.2

> <PUBCHEM_MONOISOTOPIC_WEIGHT>
461.25660860

> <PUBCHEM_TOTAL_CHARGE>
0

> <PUBCHEM_HEAVY_ATOM_COUNT>
34

> <PUBCHEM_ATOM_DEF_STEREO_COUNT>
0

> <PUBCHEM_ATOM_UDEF_STEREO_COUNT>
0

> <PUBCHEM_BOND_DEF_STEREO_COUNT>
0

> <PUBCHEM_BOND_UDEF_STEREO_COUNT>
0

> <PUBCHEM_ISOTOPIC_ATOM_COUNT>
0

> <PUBCHEM_COMPONENT_COUNT>
1

> <PUBCHEM_CACTVS_TAUTO_COUNT>
-1

> <PUBCHEM_COORDINATE_TYPE>
1
5
255

> <PUBCHEM_BONDANNOTATIONS>
10  14  8
13  16  8
14  17  8
16  17  8
18  19  8
18  22  8
19  23  8
22  27  8
23  28  8
24  29  8
24  30  8
27  28  8
29  31  8
30  32  8
31  33  8
32  33  8
9  10  8
9  13  8

$$$$
