54493650
  -OEChem-09292322212D

 71 75  0     1  0  0  0  0  0999 V2000
    9.8138    4.9942    0.0000 O   0  0  0  0  0  0  0  0  0  0  0  0
    2.0000   -0.5771    0.0000 O   0  0  0  0  0  0  0  0  0  0  0  0
    5.4176    3.4627    0.0000 N   0  0  3  0  0  0  0  0  0  0  0  0
    3.7319   -0.5571    0.0000 N   0  0  0  0  0  0  0  0  0  0  0  0
    6.3116    3.9974    0.0000 C   0  0  2  0  0  0  0  0  0  0  0  0
    6.3116    4.9974    0.0000 C   0  0  1  0  0  0  0  0  0  0  0  0
    5.4176    5.5320    0.0000 C   0  0  0  0  0  0  0  0  0  0  0  0
    7.1776    3.4974    0.0000 C   0  0  0  0  0  0  0  0  0  0  0  0
    4.5116    3.9766    0.0000 C   0  0  0  0  0  0  0  0  0  0  0  0
    4.5116    5.0182    0.0000 C   0  0  0  0  0  0  0  0  0  0  0  0
    7.1776    5.4974    0.0000 C   0  0  0  0  0  0  0  0  0  0  0  0
    8.0436    3.9974    0.0000 C   0  0  0  0  0  0  0  0  0  0  0  0
    8.0436    4.9974    0.0000 C   0  0  0  0  0  0  0  0  0  0  0  0
    5.4292    2.4628    0.0000 C   0  0  0  0  0  0  0  0  0  0  0  0
    7.1615    6.5389    0.0000 C   0  0  0  0  0  0  0  0  0  0  0  0
    4.5690    1.9528    0.0000 C   0  0  0  0  0  0  0  0  0  0  0  0
    8.9536    5.5042    0.0000 C   0  0  0  0  0  0  0  0  0  0  0  0
    8.0596    7.0666    0.0000 C   0  0  0  0  0  0  0  0  0  0  0  0
    4.5806    0.9529    0.0000 C   0  0  0  0  0  0  0  0  0  0  0  0
    8.9616    6.5458    0.0000 C   0  0  0  0  0  0  0  0  0  0  0  0
    3.7204    0.4429    0.0000 C   0  0  0  0  0  0  0  0  0  0  0  0
   10.6855    5.4842    0.0000 C   0  0  0  0  0  0  0  0  0  0  0  0
    2.8718   -1.0670    0.0000 C   0  0  0  0  0  0  0  0  0  0  0  0
    2.8833   -2.0670    0.0000 C   0  0  0  0  0  0  0  0  0  0  0  0
    2.0231   -2.5770    0.0000 C   0  0  0  0  0  0  0  0  0  0  0  0
    3.7551   -2.5569    0.0000 C   0  0  0  0  0  0  0  0  0  0  0  0
    2.0347   -3.5769    0.0000 C   0  0  0  0  0  0  0  0  0  0  0  0
    3.7666   -3.5568    0.0000 C   0  0  0  0  0  0  0  0  0  0  0  0
    2.9064   -4.0668    0.0000 C   0  0  0  0  0  0  0  0  0  0  0  0
    2.9180   -5.0668    0.0000 C   0  0  0  0  0  0  0  0  0  0  0  0
    2.0578   -5.5768    0.0000 C   0  0  0  0  0  0  0  0  0  0  0  0
    3.7898   -5.5567    0.0000 C   0  0  0  0  0  0  0  0  0  0  0  0
    2.0694   -6.5767    0.0000 C   0  0  0  0  0  0  0  0  0  0  0  0
    3.8013   -6.5566    0.0000 C   0  0  0  0  0  0  0  0  0  0  0  0
    2.9411   -7.0666    0.0000 C   0  0  0  0  0  0  0  0  0  0  0  0
    6.3181    3.1474    0.0000 H   0  0  0  0  0  0  0  0  0  0  0  0
    6.3181    5.8473    0.0000 H   0  0  0  0  0  0  0  0  0  0  0  0
    5.8222    6.0018    0.0000 H   0  0  0  0  0  0  0  0  0  0  0  0
    5.0240    6.0110    0.0000 H   0  0  0  0  0  0  0  0  0  0  0  0
    6.7791    3.0224    0.0000 H   0  0  0  0  0  0  0  0  0  0  0  0
    7.5761    3.0224    0.0000 H   0  0  0  0  0  0  0  0  0  0  0  0
    3.9007    4.0826    0.0000 H   0  0  0  0  0  0  0  0  0  0  0  0
    4.3025    3.3929    0.0000 H   0  0  0  0  0  0  0  0  0  0  0  0
    4.3025    5.6019    0.0000 H   0  0  0  0  0  0  0  0  0  0  0  0
    3.9007    4.9121    0.0000 H   0  0  0  0  0  0  0  0  0  0  0  0
    8.2557    3.4148    0.0000 H   0  0  0  0  0  0  0  0  0  0  0  0
    8.6542    4.1050    0.0000 H   0  0  0  0  0  0  0  0  0  0  0  0
    5.6480    1.8827    0.0000 H   0  0  0  0  0  0  0  0  0  0  0  0
    6.0385    2.5775    0.0000 H   0  0  0  0  0  0  0  0  0  0  0  0
    6.6210    6.8426    0.0000 H   0  0  0  0  0  0  0  0  0  0  0  0
    4.3502    2.5329    0.0000 H   0  0  0  0  0  0  0  0  0  0  0  0
    3.9597    1.8381    0.0000 H   0  0  0  0  0  0  0  0  0  0  0  0
    8.0572    7.6866    0.0000 H   0  0  0  0  0  0  0  0  0  0  0  0
    4.7993    0.3727    0.0000 H   0  0  0  0  0  0  0  0  0  0  0  0
    5.1898    1.0676    0.0000 H   0  0  0  0  0  0  0  0  0  0  0  0
    9.4998    6.8537    0.0000 H   0  0  0  0  0  0  0  0  0  0  0  0
    3.5016    1.0230    0.0000 H   0  0  0  0  0  0  0  0  0  0  0  0
    3.1111    0.3282    0.0000 H   0  0  0  0  0  0  0  0  0  0  0  0
   10.9893    4.9437    0.0000 H   0  0  0  0  0  0  0  0  0  0  0  0
   11.2260    5.7880    0.0000 H   0  0  0  0  0  0  0  0  0  0  0  0
   10.3818    6.0247    0.0000 H   0  0  0  0  0  0  0  0  0  0  0  0
    4.2724   -0.8608    0.0000 H   0  0  0  0  0  0  0  0  0  0  0  0
    1.4826   -2.2732    0.0000 H   0  0  0  0  0  0  0  0  0  0  0  0
    4.2884   -2.2407    0.0000 H   0  0  0  0  0  0  0  0  0  0  0  0
    1.5014   -3.8931    0.0000 H   0  0  0  0  0  0  0  0  0  0  0  0
    4.3071   -3.8606    0.0000 H   0  0  0  0  0  0  0  0  0  0  0  0
    1.5173   -5.2730    0.0000 H   0  0  0  0  0  0  0  0  0  0  0  0
    4.3231   -5.2405    0.0000 H   0  0  0  0  0  0  0  0  0  0  0  0
    1.5361   -6.8929    0.0000 H   0  0  0  0  0  0  0  0  0  0  0  0
    4.3418   -6.8604    0.0000 H   0  0  0  0  0  0  0  0  0  0  0  0
    2.9483   -7.6866    0.0000 H   0  0  0  0  0  0  0  0  0  0  0  0
  1 17  1  0  0  0  0
  1 22  1  0  0  0  0
  2 23  2  0  0  0  0
  3  5  1  0  0  0  0
  3  9  1  0  0  0  0
  3 14  1  0  0  0  0
  4 21  1  0  0  0  0
  4 23  1  0  0  0  0
  4 62  1  0  0  0  0
  5  6  1  0  0  0  0
  5  8  1  0  0  0  0
  5 36  1  1  0  0  0
  6  7  1  0  0  0  0
  6 11  1  0  0  0  0
  6 37  1  6  0  0  0
  7 10  1  0  0  0  0
  7 38  1  0  0  0  0
  7 39  1  0  0  0  0
  8 12  1  0  0  0  0
  8 40  1  0  0  0  0
  8 41  1  0  0  0  0
  9 10  1  0  0  0  0
  9 42  1  0  0  0  0
  9 43  1  0  0  0  0
 10 44  1  0  0  0  0
 10 45  1  0  0  0  0
 11 13  2  0  0  0  0
 11 15  1  0  0  0  0
 12 13  1  0  0  0  0
 12 46  1  0  0  0  0
 12 47  1  0  0  0  0
 13 17  1  0  0  0  0
 14 16  1  0  0  0  0
 14 48  1  0  0  0  0
 14 49  1  0  0  0  0
 15 18  2  0  0  0  0
 15 50  1  0  0  0  0
 16 19  1  0  0  0  0
 16 51  1  0  0  0  0
 16 52  1  0  0  0  0
 17 20  2  0  0  0  0
 18 20  1  0  0  0  0
 18 53  1  0  0  0  0
 19 21  1  0  0  0  0
 19 54  1  0  0  0  0
 19 55  1  0  0  0  0
 20 56  1  0  0  0  0
 21 57  1  0  0  0  0
 21 58  1  0  0  0  0
 22 59  1  0  0  0  0
 22 60  1  0  0  0  0
 22 61  1  0  0  0  0
 23 24  1  0  0  0  0
 24 25  2  0  0  0  0
 24 26  1  0  0  0  0
 25 27  1  0  0  0  0
 25 63  1  0  0  0  0
 26 28  2  0  0  0  0
 26 64  1  0  0  0  0
 27 29  2  0  0  0  0
 27 65  1  0  0  0  0
 28 29  1  0  0  0  0
 28 66  1  0  0  0  0
 29 30  1  0  0  0  0
 30 31  2  0  0  0  0
 30 32  1  0  0  0  0
 31 33  1  0  0  0  0
 31 67  1  0  0  0  0
 32 34  2  0  0  0  0
 32 68  1  0  0  0  0
 33 35  2  0  0  0  0
 33 69  1  0  0  0  0
 34 35  1  0  0  0  0
 34 70  1  0  0  0  0
 35 71  1  0  0  0  0
M  END
> <PUBCHEM_COMPOUND_CID>
54493650

> <PUBCHEM_COMPOUND_CANONICALIZED>
1

> <PUBCHEM_CACTVS_COMPLEXITY>
654

> <PUBCHEM_CACTVS_HBOND_ACCEPTOR>
3

> <PUBCHEM_CACTVS_HBOND_DONOR>
1

> <PUBCHEM_CACTVS_ROTATABLE_BOND>
8

> <PUBCHEM_CACTVS_SUBSKEYS>
AAADcfB7MAAAAAAAAAAAAAAAAAAAAAAAAAA8YMGCAAAAAADxUAAAHgAQAAAADSzBmAYyBoPABACIAiFSEACCCAAkIAAIiIEODMgMJjKEtRuEMShk1hGIqYeY2POOwAABAAAYAACQAAaAADQAAAAAAAAAAA==

> <PUBCHEM_IUPAC_OPENEYE_NAME>
N-[4-[(4aS,10bS)-7-methoxy-2,3,4a,5,6,10b-hexahydro-1H-benzo[f]quinolin-4-yl]butyl]-4-phenyl-benzamide

> <PUBCHEM_IUPAC_CAS_NAME>
N-[4-[(4aS,10bS)-7-methoxy-2,3,4a,5,6,10b-hexahydro-1H-benzo[f]quinolin-4-yl]butyl]-4-phenylbenzamide

> <PUBCHEM_IUPAC_NAME_MARKUP>
<I>N</I>-[4-[(4<I>a</I><I>S</I>,10<I>b</I><I>S</I>)-7-methoxy-2,3,4<I>a</I>,5,6,10<I>b</I>-hexahydro-1<I>H</I>-benzo[f]quinolin-4-yl]butyl]-4-phenylbenzamide

> <PUBCHEM_IUPAC_NAME>
N-[4-[(4aS,10bS)-7-methoxy-2,3,4a,5,6,10b-hexahydro-1H-benzo[f]quinolin-4-yl]butyl]-4-phenylbenzamide

> <PUBCHEM_IUPAC_SYSTEMATIC_NAME>
N-[4-[(4aS,10bS)-7-methoxy-2,3,4a,5,6,10b-hexahydro-1H-benzo[f]quinolin-4-yl]butyl]-4-phenyl-benzamide

> <PUBCHEM_IUPAC_TRADITIONAL_NAME>
N-[4-[(4aS,10bS)-7-methoxy-2,3,4a,5,6,10b-hexahydro-1H-benzo[f]quinolin-4-yl]butyl]-4-phenyl-benzamide

> <PUBCHEM_IUPAC_INCHI>
InChI=1S/C31H36N2O2/c1-35-30-13-7-11-26-27-12-8-22-33(29(27)19-18-28(26)30)21-6-5-20-32-31(34)25-16-14-24(15-17-25)23-9-3-2-4-10-23/h2-4,7,9-11,13-17,27,29H,5-6,8,12,18-22H2,1H3,(H,32,34)/t27-,29-/m0/s1

> <PUBCHEM_IUPAC_INCHIKEY>
XXNSAFMKWRWIBC-YTMVLYRLSA-N

> <PUBCHEM_XLOGP3_AA>
6.2

> <PUBCHEM_EXACT_MASS>
468.277678395

> <PUBCHEM_MOLECULAR_FORMULA>
C31H36N2O2

> <PUBCHEM_MOLECULAR_WEIGHT>
468.6

> <PUBCHEM_OPENEYE_CAN_SMILES>
COC1=CC=CC2=C1CCC3C2CCCN3CCCCNC(=O)C4=CC=C(C=C4)C5=CC=CC=C5

> <PUBCHEM_OPENEYE_ISO_SMILES>
COC1=CC=CC2=C1CC[C@H]3[C@H]2CCCN3CCCCNC(=O)C4=CC=C(C=C4)C5=CC=CC=C5

> <PUBCHEM_CACTVS_TPSA>
41.6

> <PUBCHEM_MONOISOTOPIC_WEIGHT>
468.277678395

> <PUBCHEM_TOTAL_CHARGE>
0

> <PUBCHEM_HEAVY_ATOM_COUNT>
35

> <PUBCHEM_ATOM_DEF_STEREO_COUNT>
2

> <PUBCHEM_ATOM_UDEF_STEREO_COUNT>
0

> <PUBCHEM_BOND_DEF_STEREO_COUNT>
0

> <PUBCHEM_BOND_UDEF_STEREO_COUNT>
0

> <PUBCHEM_ISOTOPIC_ATOM_COUNT>
0

> <PUBCHEM_COMPONENT_COUNT>
1

> <PUBCHEM_CACTVS_TAUTO_COUNT>
-1

> <PUBCHEM_COORDINATE_TYPE>
1
5
255

> <PUBCHEM_BONDANNOTATIONS>
11  13  8
11  15  8
13  17  8
15  18  8
17  20  8
18  20  8
24  25  8
24  26  8
25  27  8
26  28  8
27  29  8
28  29  8
30  31  8
30  32  8
31  33  8
32  34  8
33  35  8
34  35  8
5  36  5
6  37  6

$$$$
