49798838
  -OEChem-09292322302D

 55 58  0     0  0  0  0  0  0999 V2000
    4.7988    1.6200    0.0000 O   0  0  0  0  0  0  0  0  0  0  0  0
    7.0364    6.2593    0.0000 O   0  0  0  0  0  0  0  0  0  0  0  0
   10.5768    5.0650    0.0000 O   0  0  0  0  0  0  0  0  0  0  0  0
   13.1749    4.5650    0.0000 O   0  0  0  0  0  0  0  0  0  0  0  0
   11.4428    3.5650    0.0000 O   0  0  0  0  0  0  0  0  0  0  0  0
   12.3089    6.0650    0.0000 O   0  0  0  0  0  0  0  0  0  0  0  0
    4.1472    5.2763    0.0000 N   0  0  0  0  0  0  0  0  0  0  0  0
    3.2152    2.4247    0.0000 N   0  0  0  0  0  0  0  0  0  0  0  0
    3.2152    0.8153    0.0000 N   0  0  0  0  0  0  0  0  0  0  0  0
    3.5259    3.3752    0.0000 C   0  0  0  0  0  0  0  0  0  0  0  0
    2.8580    4.1196    0.0000 C   0  0  0  0  0  0  0  0  0  0  0  0
    4.5044    3.5815    0.0000 C   0  0  0  0  0  0  0  0  0  0  0  0
    3.1687    5.0701    0.0000 C   0  0  0  0  0  0  0  0  0  0  0  0
    4.8150    4.5320    0.0000 C   0  0  0  0  0  0  0  0  0  0  0  0
    4.4579    6.2268    0.0000 C   0  0  0  0  0  0  0  0  0  0  0  0
    2.2690    2.1200    0.0000 C   0  0  0  0  0  0  0  0  0  0  0  0
    3.7988    1.6200    0.0000 C   0  0  0  0  0  0  0  0  0  0  0  0
    5.4364    6.4330    0.0000 C   0  0  0  0  0  0  0  0  0  0  0  0
    2.2690    1.1200    0.0000 C   0  0  0  0  0  0  0  0  0  0  0  0
    1.4030    2.6200    0.0000 C   0  0  0  0  0  0  0  0  0  0  0  0
    5.8415    7.3408    0.0000 C   0  0  0  0  0  0  0  0  0  0  0  0
    1.4030    0.6200    0.0000 C   0  0  0  0  0  0  0  0  0  0  0  0
    6.1734    5.7660    0.0000 C   0  0  0  0  0  0  0  0  0  0  0  0
    6.8356    7.2328    0.0000 C   0  0  0  0  0  0  0  0  0  0  0  0
    0.5369    2.1200    0.0000 C   0  0  0  0  0  0  0  0  0  0  0  0
    0.5369    1.1200    0.0000 C   0  0  0  0  0  0  0  0  0  0  0  0
    5.4379    8.2558    0.0000 C   0  0  0  0  0  0  0  0  0  0  0  0
    7.4262    8.0398    0.0000 C   0  0  0  0  0  0  0  0  0  0  0  0
    6.0285    9.0627    0.0000 C   0  0  0  0  0  0  0  0  0  0  0  0
    7.0226    8.9548    0.0000 C   0  0  0  0  0  0  0  0  0  0  0  0
   11.4428    4.5650    0.0000 C   0  0  0  0  0  0  0  0  0  0  0  0
   12.3089    5.0650    0.0000 C   0  0  0  0  0  0  0  0  0  0  0  0
    3.9399    2.9138    0.0000 H   0  0  0  0  0  0  0  0  0  0  0  0
    2.3111    4.4116    0.0000 H   0  0  0  0  0  0  0  0  0  0  0  0
    2.4755    3.6316    0.0000 H   0  0  0  0  0  0  0  0  0  0  0  0
    4.5249    2.9618    0.0000 H   0  0  0  0  0  0  0  0  0  0  0  0
    5.1182    3.4941    0.0000 H   0  0  0  0  0  0  0  0  0  0  0  0
    3.1481    5.6897    0.0000 H   0  0  0  0  0  0  0  0  0  0  0  0
    2.5549    5.1574    0.0000 H   0  0  0  0  0  0  0  0  0  0  0  0
    5.3620    4.2400    0.0000 H   0  0  0  0  0  0  0  0  0  0  0  0
    5.1976    5.0199    0.0000 H   0  0  0  0  0  0  0  0  0  0  0  0
    4.4373    6.8465    0.0000 H   0  0  0  0  0  0  0  0  0  0  0  0
    3.8440    6.3142    0.0000 H   0  0  0  0  0  0  0  0  0  0  0  0
    3.4078    0.2259    0.0000 H   0  0  0  0  0  0  0  0  0  0  0  0
    1.4030    3.2400    0.0000 H   0  0  0  0  0  0  0  0  0  0  0  0
    1.4030    0.0000    0.0000 H   0  0  0  0  0  0  0  0  0  0  0  0
    6.1064    5.1496    0.0000 H   0  0  0  0  0  0  0  0  0  0  0  0
    0.0000    2.4300    0.0000 H   0  0  0  0  0  0  0  0  0  0  0  0
    0.0000    0.8100    0.0000 H   0  0  0  0  0  0  0  0  0  0  0  0
    4.8215    8.3227    0.0000 H   0  0  0  0  0  0  0  0  0  0  0  0
    8.0426    7.9729    0.0000 H   0  0  0  0  0  0  0  0  0  0  0  0
    5.7783    9.6300    0.0000 H   0  0  0  0  0  0  0  0  0  0  0  0
    7.3888    9.4551    0.0000 H   0  0  0  0  0  0  0  0  0  0  0  0
   10.0399    4.7550    0.0000 H   0  0  0  0  0  0  0  0  0  0  0  0
   13.7118    4.8750    0.0000 H   0  0  0  0  0  0  0  0  0  0  0  0
  1 17  2  0  0  0  0
  2 23  1  0  0  0  0
  2 24  1  0  0  0  0
  3 31  1  0  0  0  0
  3 54  1  0  0  0  0
  4 32  1  0  0  0  0
  4 55  1  0  0  0  0
  5 31  2  0  0  0  0
  6 32  2  0  0  0  0
  7 13  1  0  0  0  0
  7 14  1  0  0  0  0
  7 15  1  0  0  0  0
  8 10  1  0  0  0  0
  8 16  1  0  0  0  0
  8 17  1  0  0  0  0
  9 17  1  0  0  0  0
  9 19  1  0  0  0  0
  9 44  1  0  0  0  0
 10 11  1  0  0  0  0
 10 12  1  0  0  0  0
 10 33  1  0  0  0  0
 11 13  1  0  0  0  0
 11 34  1  0  0  0  0
 11 35  1  0  0  0  0
 12 14  1  0  0  0  0
 12 36  1  0  0  0  0
 12 37  1  0  0  0  0
 13 38  1  0  0  0  0
 13 39  1  0  0  0  0
 14 40  1  0  0  0  0
 14 41  1  0  0  0  0
 15 18  1  0  0  0  0
 15 42  1  0  0  0  0
 15 43  1  0  0  0  0
 16 19  1  0  0  0  0
 16 20  2  0  0  0  0
 18 21  1  0  0  0  0
 18 23  2  0  0  0  0
 19 22  2  0  0  0  0
 20 25  1  0  0  0  0
 20 45  1  0  0  0  0
 21 24  1  0  0  0  0
 21 27  2  0  0  0  0
 22 26  1  0  0  0  0
 22 46  1  0  0  0  0
 23 47  1  0  0  0  0
 24 28  2  0  0  0  0
 25 26  2  0  0  0  0
 25 48  1  0  0  0  0
 26 49  1  0  0  0  0
 27 29  1  0  0  0  0
 27 50  1  0  0  0  0
 28 30  1  0  0  0  0
 28 51  1  0  0  0  0
 29 30  2  0  0  0  0
 29 52  1  0  0  0  0
 30 53  1  0  0  0  0
 31 32  1  0  0  0  0
M  END
> <PUBCHEM_COMPOUND_CID>
49798838

> <PUBCHEM_COMPOUND_CANONICALIZED>
1

> <PUBCHEM_CACTVS_COMPLEXITY>
591

> <PUBCHEM_CACTVS_HBOND_ACCEPTOR>
7

> <PUBCHEM_CACTVS_HBOND_DONOR>
3

> <PUBCHEM_CACTVS_ROTATABLE_BOND>
4

> <PUBCHEM_CACTVS_SUBSKEYS>
AAADceB7OAAAAAAAAAAAAAAAAAAAAWJAAAA8YIAAAAAAAFgB9AAAHgAQCAAADCzhmAYxzsPABkCIAqzS2AKCCAAlIgAIiAFOfMiNZjrE9ZuWOSju1hPJ6ae8yOCOgAAAAAAIACAAAAAAABAAQAAAAAAAAA==

> <PUBCHEM_IUPAC_OPENEYE_NAME>
3-[1-(benzofuran-3-ylmethyl)-4-piperidyl]-1H-benzimidazol-2-one;oxalic acid

> <PUBCHEM_IUPAC_CAS_NAME>
3-[1-(3-benzofuranylmethyl)-4-piperidinyl]-1H-benzimidazol-2-one;oxalic acid

> <PUBCHEM_IUPAC_NAME_MARKUP>
3-[1-(1-benzofuran-3-ylmethyl)piperidin-4-yl]-1<I>H</I>-benzimidazol-2-one;oxalic acid

> <PUBCHEM_IUPAC_NAME>
3-[1-(1-benzofuran-3-ylmethyl)piperidin-4-yl]-1H-benzimidazol-2-one;oxalic acid

> <PUBCHEM_IUPAC_SYSTEMATIC_NAME>
3-[1-(1-benzofuran-3-ylmethyl)piperidin-4-yl]-1H-benzimidazol-2-one;ethanedioic acid

> <PUBCHEM_IUPAC_TRADITIONAL_NAME>
3-[1-(benzofuran-3-ylmethyl)-4-piperidyl]-1H-benzimidazol-2-one;oxalic acid

> <PUBCHEM_IUPAC_INCHI>
InChI=1S/C21H21N3O2.C2H2O4/c25-21-22-18-6-2-3-7-19(18)24(21)16-9-11-23(12-10-16)13-15-14-26-20-8-4-1-5-17(15)20;3-1(4)2(5)6/h1-8,14,16H,9-13H2,(H,22,25);(H,3,4)(H,5,6)

> <PUBCHEM_IUPAC_INCHIKEY>
QOAQDAXVNFVKNU-UHFFFAOYSA-N

> <PUBCHEM_EXACT_MASS>
437.15868546

> <PUBCHEM_MOLECULAR_FORMULA>
C23H23N3O6

> <PUBCHEM_MOLECULAR_WEIGHT>
437.4

> <PUBCHEM_OPENEYE_CAN_SMILES>
C1CN(CCC1N2C3=CC=CC=C3NC2=O)CC4=COC5=CC=CC=C54.C(=O)(C(=O)O)O

> <PUBCHEM_OPENEYE_ISO_SMILES>
C1CN(CCC1N2C3=CC=CC=C3NC2=O)CC4=COC5=CC=CC=C54.C(=O)(C(=O)O)O

> <PUBCHEM_CACTVS_TPSA>
123

> <PUBCHEM_MONOISOTOPIC_WEIGHT>
437.15868546

> <PUBCHEM_TOTAL_CHARGE>
0

> <PUBCHEM_HEAVY_ATOM_COUNT>
32

> <PUBCHEM_ATOM_DEF_STEREO_COUNT>
0

> <PUBCHEM_ATOM_UDEF_STEREO_COUNT>
0

> <PUBCHEM_BOND_DEF_STEREO_COUNT>
0

> <PUBCHEM_BOND_UDEF_STEREO_COUNT>
0

> <PUBCHEM_ISOTOPIC_ATOM_COUNT>
0

> <PUBCHEM_COMPONENT_COUNT>
2

> <PUBCHEM_CACTVS_TAUTO_COUNT>
-1

> <PUBCHEM_COORDINATE_TYPE>
1
5
255

> <PUBCHEM_BONDANNOTATIONS>
16  19  8
16  20  8
18  21  8
18  23  8
19  22  8
2  23  8
2  24  8
20  25  8
21  24  8
21  27  8
22  26  8
24  28  8
25  26  8
27  29  8
28  30  8
29  30  8
8  16  8
8  17  8
9  17  8
9  19  8

$$$$
