11776546
  -OEChem-09292322212D

 35 36  0     0  0  0  0  0  0999 V2000
    3.7320   -0.6900    0.0000 O   0  0  0  0  0  0  0  0  0  0  0  0
    2.0000   -3.6900    0.0000 O   0  0  0  0  0  0  0  0  0  0  0  0
    5.4641    1.3100    0.0000 N   0  0  0  0  0  0  0  0  0  0  0  0
    4.5981    0.8100    0.0000 C   0  0  0  0  0  0  0  0  0  0  0  0
    5.4641    2.3100    0.0000 C   0  0  0  0  0  0  0  0  0  0  0  0
    4.5981   -0.1900    0.0000 C   0  0  0  0  0  0  0  0  0  0  0  0
    6.3301    2.8100    0.0000 C   0  0  0  0  0  0  0  0  0  0  0  0
    7.1962    2.3100    0.0000 C   0  0  0  0  0  0  0  0  0  0  0  0
    6.3301    3.8100    0.0000 C   0  0  0  0  0  0  0  0  0  0  0  0
    3.7320   -1.6900    0.0000 C   0  0  0  0  0  0  0  0  0  0  0  0
    8.0622    2.8100    0.0000 C   0  0  0  0  0  0  0  0  0  0  0  0
    7.1962    4.3100    0.0000 C   0  0  0  0  0  0  0  0  0  0  0  0
    8.0622    3.8100    0.0000 C   0  0  0  0  0  0  0  0  0  0  0  0
    2.8660   -2.1900    0.0000 C   0  0  0  0  0  0  0  0  0  0  0  0
    4.5981   -2.1900    0.0000 C   0  0  0  0  0  0  0  0  0  0  0  0
    2.8660   -3.1900    0.0000 C   0  0  0  0  0  0  0  0  0  0  0  0
    4.5981   -3.1900    0.0000 C   0  0  0  0  0  0  0  0  0  0  0  0
    3.7320   -3.6900    0.0000 C   0  0  0  0  0  0  0  0  0  0  0  0
    4.3860    1.3926    0.0000 H   0  0  0  0  0  0  0  0  0  0  0  0
    3.9875    0.7023    0.0000 H   0  0  0  0  0  0  0  0  0  0  0  0
    5.2520    2.8926    0.0000 H   0  0  0  0  0  0  0  0  0  0  0  0
    4.8535    2.2023    0.0000 H   0  0  0  0  0  0  0  0  0  0  0  0
    6.0010    1.0000    0.0000 H   0  0  0  0  0  0  0  0  0  0  0  0
    4.8101   -0.7726    0.0000 H   0  0  0  0  0  0  0  0  0  0  0  0
    5.2087   -0.0823    0.0000 H   0  0  0  0  0  0  0  0  0  0  0  0
    7.1962    1.6900    0.0000 H   0  0  0  0  0  0  0  0  0  0  0  0
    5.7932    4.1200    0.0000 H   0  0  0  0  0  0  0  0  0  0  0  0
    8.5991    2.5000    0.0000 H   0  0  0  0  0  0  0  0  0  0  0  0
    7.1962    4.9300    0.0000 H   0  0  0  0  0  0  0  0  0  0  0  0
    2.3291   -1.8800    0.0000 H   0  0  0  0  0  0  0  0  0  0  0  0
    8.5991    4.1200    0.0000 H   0  0  0  0  0  0  0  0  0  0  0  0
    5.1350   -1.8800    0.0000 H   0  0  0  0  0  0  0  0  0  0  0  0
    5.1350   -3.5000    0.0000 H   0  0  0  0  0  0  0  0  0  0  0  0
    3.7320   -4.3100    0.0000 H   0  0  0  0  0  0  0  0  0  0  0  0
    2.0000   -4.3100    0.0000 H   0  0  0  0  0  0  0  0  0  0  0  0
  1  6  1  0  0  0  0
  1 10  1  0  0  0  0
  2 16  1  0  0  0  0
  2 35  1  0  0  0  0
  3  4  1  0  0  0  0
  3  5  1  0  0  0  0
  3 23  1  0  0  0  0
  4  6  1  0  0  0  0
  4 19  1  0  0  0  0
  4 20  1  0  0  0  0
  5  7  1  0  0  0  0
  5 21  1  0  0  0  0
  5 22  1  0  0  0  0
  6 24  1  0  0  0  0
  6 25  1  0  0  0  0
  7  8  2  0  0  0  0
  7  9  1  0  0  0  0
  8 11  1  0  0  0  0
  8 26  1  0  0  0  0
  9 12  2  0  0  0  0
  9 27  1  0  0  0  0
 10 14  1  0  0  0  0
 10 15  2  0  0  0  0
 11 13  2  0  0  0  0
 11 28  1  0  0  0  0
 12 13  1  0  0  0  0
 12 29  1  0  0  0  0
 13 31  1  0  0  0  0
 14 16  2  0  0  0  0
 14 30  1  0  0  0  0
 15 17  1  0  0  0  0
 15 32  1  0  0  0  0
 16 18  1  0  0  0  0
 17 18  2  0  0  0  0
 17 33  1  0  0  0  0
 18 34  1  0  0  0  0
M  END
> <PUBCHEM_COMPOUND_CID>
11776546

> <PUBCHEM_COMPOUND_CANONICALIZED>
1

> <PUBCHEM_CACTVS_COMPLEXITY>
217

> <PUBCHEM_CACTVS_HBOND_ACCEPTOR>
3

> <PUBCHEM_CACTVS_HBOND_DONOR>
2

> <PUBCHEM_CACTVS_ROTATABLE_BOND>
6

> <PUBCHEM_CACTVS_SUBSKEYS>
AAADceByMAAAAAAAAAAAAAAAAAAAAAAAAAAwYAAAAAAAAAABQAAAHgAQCAAADAThmAYwBoLABgCAAiBCAACCCAAgIAAIiIAODIgOJyKGsRuHeCjl0BWYuAeQ4AwOAAAACAAAAAAAAAAQAAAAAAAAAAAAAA==

> <PUBCHEM_IUPAC_OPENEYE_NAME>
3-[2-(benzylamino)ethoxy]phenol

> <PUBCHEM_IUPAC_CAS_NAME>
3-[2-[(phenylmethyl)amino]ethoxy]phenol

> <PUBCHEM_IUPAC_NAME_MARKUP>
3-[2-(benzylamino)ethoxy]phenol

> <PUBCHEM_IUPAC_NAME>
3-[2-(benzylamino)ethoxy]phenol

> <PUBCHEM_IUPAC_SYSTEMATIC_NAME>
3-[2-[(phenylmethyl)amino]ethoxy]phenol

> <PUBCHEM_IUPAC_TRADITIONAL_NAME>
3-[2-(benzylamino)ethoxy]phenol

> <PUBCHEM_IUPAC_INCHI>
InChI=1S/C15H17NO2/c17-14-7-4-8-15(11-14)18-10-9-16-12-13-5-2-1-3-6-13/h1-8,11,16-17H,9-10,12H2

> <PUBCHEM_IUPAC_INCHIKEY>
VBTFJGYCISLKEQ-UHFFFAOYSA-N

> <PUBCHEM_XLOGP3_AA>
2.6

> <PUBCHEM_EXACT_MASS>
243.125928785

> <PUBCHEM_MOLECULAR_FORMULA>
C15H17NO2

> <PUBCHEM_MOLECULAR_WEIGHT>
243.30

> <PUBCHEM_OPENEYE_CAN_SMILES>
C1=CC=C(C=C1)CNCCOC2=CC=CC(=C2)O

> <PUBCHEM_OPENEYE_ISO_SMILES>
C1=CC=C(C=C1)CNCCOC2=CC=CC(=C2)O

> <PUBCHEM_CACTVS_TPSA>
41.5

> <PUBCHEM_MONOISOTOPIC_WEIGHT>
243.125928785

> <PUBCHEM_TOTAL_CHARGE>
0

> <PUBCHEM_HEAVY_ATOM_COUNT>
18

> <PUBCHEM_ATOM_DEF_STEREO_COUNT>
0

> <PUBCHEM_ATOM_UDEF_STEREO_COUNT>
0

> <PUBCHEM_BOND_DEF_STEREO_COUNT>
0

> <PUBCHEM_BOND_UDEF_STEREO_COUNT>
0

> <PUBCHEM_ISOTOPIC_ATOM_COUNT>
0

> <PUBCHEM_COMPONENT_COUNT>
1

> <PUBCHEM_CACTVS_TAUTO_COUNT>
-1

> <PUBCHEM_COORDINATE_TYPE>
1
5
255

> <PUBCHEM_BONDANNOTATIONS>
10  14  8
10  15  8
11  13  8
12  13  8
14  16  8
15  17  8
16  18  8
17  18  8
7  8  8
7  9  8
8  11  8
9  12  8

$$$$
