44353476
  -OEChem-09292322202D

 58 60  0     1  0  0  0  0  0999 V2000
    4.5981   -0.5171    0.0000 N   0  0  0  0  0  0  0  0  0  0  0  0
    5.4641   -0.0171    0.0000 C   0  0  3  0  0  0  0  0  0  0  0  0
    5.4641    0.9829    0.0000 C   0  0  0  0  0  0  0  0  0  0  0  0
    6.3301   -0.5171    0.0000 C   0  0  0  0  0  0  0  0  0  0  0  0
    6.3301    1.4829    0.0000 C   0  0  0  0  0  0  0  0  0  0  0  0
    7.1962   -0.0171    0.0000 C   0  0  0  0  0  0  0  0  0  0  0  0
    7.1962    0.9829    0.0000 C   0  0  0  0  0  0  0  0  0  0  0  0
    3.7320   -0.0171    0.0000 C   0  0  0  0  0  0  0  0  0  0  0  0
    4.5981   -1.5171    0.0000 C   0  0  0  0  0  0  0  0  0  0  0  0
    8.0901    1.5176    0.0000 C   0  0  0  0  0  0  0  0  0  0  0  0
    8.0901   -0.5517    0.0000 C   0  0  0  0  0  0  0  0  0  0  0  0
    2.8660   -0.5171    0.0000 C   0  0  0  0  0  0  0  0  0  0  0  0
    3.7320   -2.0171    0.0000 C   0  0  0  0  0  0  0  0  0  0  0  0
    8.9962    1.0037    0.0000 C   0  0  0  0  0  0  0  0  0  0  0  0
    8.9962   -0.0379    0.0000 C   0  0  0  0  0  0  0  0  0  0  0  0
    9.8602    1.5071    0.0000 C   0  0  0  0  0  0  0  0  0  0  0  0
    2.0000   -0.0171    0.0000 C   0  0  0  0  0  0  0  0  0  0  0  0
    3.7320   -3.0171    0.0000 C   0  0  0  0  0  0  0  0  0  0  0  0
   10.7282    1.0104    0.0000 C   0  0  0  0  0  0  0  0  0  0  0  0
   11.5923    1.5138    0.0000 C   0  0  0  0  0  0  0  0  0  0  0  0
   11.5884    2.5137    0.0000 C   0  0  0  0  0  0  0  0  0  0  0  0
   12.4602    1.0171    0.0000 C   0  0  0  0  0  0  0  0  0  0  0  0
   12.4525    3.0171    0.0000 C   0  0  0  0  0  0  0  0  0  0  0  0
   13.3243    1.5204    0.0000 C   0  0  0  0  0  0  0  0  0  0  0  0
   13.3205    2.5204    0.0000 C   0  0  0  0  0  0  0  0  0  0  0  0
    5.4641   -0.6371    0.0000 H   0  0  0  0  0  0  0  0  0  0  0  0
    5.2520    1.5655    0.0000 H   0  0  0  0  0  0  0  0  0  0  0  0
    4.8535    0.8753    0.0000 H   0  0  0  0  0  0  0  0  0  0  0  0
    5.9316   -0.9920    0.0000 H   0  0  0  0  0  0  0  0  0  0  0  0
    6.7287   -0.9920    0.0000 H   0  0  0  0  0  0  0  0  0  0  0  0
    6.7287    1.9579    0.0000 H   0  0  0  0  0  0  0  0  0  0  0  0
    5.9316    1.9579    0.0000 H   0  0  0  0  0  0  0  0  0  0  0  0
    4.1306    0.4579    0.0000 H   0  0  0  0  0  0  0  0  0  0  0  0
    3.3335    0.4579    0.0000 H   0  0  0  0  0  0  0  0  0  0  0  0
    4.8101   -2.0997    0.0000 H   0  0  0  0  0  0  0  0  0  0  0  0
    5.2087   -1.4094    0.0000 H   0  0  0  0  0  0  0  0  0  0  0  0
    8.0829    2.1375    0.0000 H   0  0  0  0  0  0  0  0  0  0  0  0
    8.0829   -1.1717    0.0000 H   0  0  0  0  0  0  0  0  0  0  0  0
    2.4675   -0.9920    0.0000 H   0  0  0  0  0  0  0  0  0  0  0  0
    3.2646   -0.9920    0.0000 H   0  0  0  0  0  0  0  0  0  0  0  0
    3.5200   -1.4345    0.0000 H   0  0  0  0  0  0  0  0  0  0  0  0
    3.1215   -2.1247    0.0000 H   0  0  0  0  0  0  0  0  0  0  0  0
    9.5319   -0.3500    0.0000 H   0  0  0  0  0  0  0  0  0  0  0  0
   10.2569    1.9836    0.0000 H   0  0  0  0  0  0  0  0  0  0  0  0
    9.4599    1.9805    0.0000 H   0  0  0  0  0  0  0  0  0  0  0  0
    2.3100    0.5199    0.0000 H   0  0  0  0  0  0  0  0  0  0  0  0
    1.4631    0.2929    0.0000 H   0  0  0  0  0  0  0  0  0  0  0  0
    1.6900   -0.5540    0.0000 H   0  0  0  0  0  0  0  0  0  0  0  0
    3.1120   -3.0171    0.0000 H   0  0  0  0  0  0  0  0  0  0  0  0
    3.7320   -3.6371    0.0000 H   0  0  0  0  0  0  0  0  0  0  0  0
    4.3520   -3.0171    0.0000 H   0  0  0  0  0  0  0  0  0  0  0  0
   10.3315    0.5339    0.0000 H   0  0  0  0  0  0  0  0  0  0  0  0
   11.1286    0.5370    0.0000 H   0  0  0  0  0  0  0  0  0  0  0  0
   11.0503    2.8217    0.0000 H   0  0  0  0  0  0  0  0  0  0  0  0
   12.4626    0.3971    0.0000 H   0  0  0  0  0  0  0  0  0  0  0  0
   12.4501    3.6371    0.0000 H   0  0  0  0  0  0  0  0  0  0  0  0
   13.8625    1.2125    0.0000 H   0  0  0  0  0  0  0  0  0  0  0  0
   13.8562    2.8325    0.0000 H   0  0  0  0  0  0  0  0  0  0  0  0
  1  2  1  0  0  0  0
  1  8  1  0  0  0  0
  1  9  1  0  0  0  0
  2  3  1  0  0  0  0
  2  4  1  0  0  0  0
  2 26  1  0  0  0  0
  3  5  1  0  0  0  0
  3 27  1  0  0  0  0
  3 28  1  0  0  0  0
  4  6  1  0  0  0  0
  4 29  1  0  0  0  0
  4 30  1  0  0  0  0
  5  7  1  0  0  0  0
  5 31  1  0  0  0  0
  5 32  1  0  0  0  0
  6  7  2  0  0  0  0
  6 11  1  0  0  0  0
  7 10  1  0  0  0  0
  8 12  1  0  0  0  0
  8 33  1  0  0  0  0
  8 34  1  0  0  0  0
  9 13  1  0  0  0  0
  9 35  1  0  0  0  0
  9 36  1  0  0  0  0
 10 14  2  0  0  0  0
 10 37  1  0  0  0  0
 11 15  2  0  0  0  0
 11 38  1  0  0  0  0
 12 17  1  0  0  0  0
 12 39  1  0  0  0  0
 12 40  1  0  0  0  0
 13 18  1  0  0  0  0
 13 41  1  0  0  0  0
 13 42  1  0  0  0  0
 14 15  1  0  0  0  0
 14 16  1  0  0  0  0
 15 43  1  0  0  0  0
 16 19  1  0  0  0  0
 16 44  1  0  0  0  0
 16 45  1  0  0  0  0
 17 46  1  0  0  0  0
 17 47  1  0  0  0  0
 17 48  1  0  0  0  0
 18 49  1  0  0  0  0
 18 50  1  0  0  0  0
 18 51  1  0  0  0  0
 19 20  1  0  0  0  0
 19 52  1  0  0  0  0
 19 53  1  0  0  0  0
 20 21  2  0  0  0  0
 20 22  1  0  0  0  0
 21 23  1  0  0  0  0
 21 54  1  0  0  0  0
 22 24  2  0  0  0  0
 22 55  1  0  0  0  0
 23 25  2  0  0  0  0
 23 56  1  0  0  0  0
 24 25  1  0  0  0  0
 24 57  1  0  0  0  0
 25 58  1  0  0  0  0
M  END
> <PUBCHEM_COMPOUND_CID>
44353476

> <PUBCHEM_COMPOUND_CANONICALIZED>
1

> <PUBCHEM_CACTVS_COMPLEXITY>
353

> <PUBCHEM_CACTVS_HBOND_ACCEPTOR>
1

> <PUBCHEM_CACTVS_HBOND_DONOR>
0

> <PUBCHEM_CACTVS_ROTATABLE_BOND>
8

> <PUBCHEM_CACTVS_SUBSKEYS>
AAADcfB6AAAAAAAAAAAAAAAAAAAAAAAAAAAwYMAAAAAAAADBQAAAHAAAAAAADCjBGAQyAIMAAACAAiBCAAACAAAgAAAIiAAIAIgIICKAkRGEIAAggACIiAcQgMAOwAACAAAQAACQAASAACAAAAAAAAAAAA==

> <PUBCHEM_IUPAC_OPENEYE_NAME>
6-(2-phenylethyl)-N,N-dipropyl-tetralin-2-amine

> <PUBCHEM_IUPAC_CAS_NAME>
6-(2-phenylethyl)-N,N-dipropyl-1,2,3,4-tetrahydronaphthalen-2-amine

> <PUBCHEM_IUPAC_NAME_MARKUP>
6-(2-phenylethyl)-<I>N</I>,<I>N</I>-dipropyl-1,2,3,4-tetrahydronaphthalen-2-amine

> <PUBCHEM_IUPAC_NAME>
6-(2-phenylethyl)-N,N-dipropyl-1,2,3,4-tetrahydronaphthalen-2-amine

> <PUBCHEM_IUPAC_SYSTEMATIC_NAME>
6-(2-phenylethyl)-N,N-dipropyl-1,2,3,4-tetrahydronaphthalen-2-amine

> <PUBCHEM_IUPAC_TRADITIONAL_NAME>
(6-phenethyltetralin-2-yl)-dipropyl-amine

> <PUBCHEM_IUPAC_INCHI>
InChI=1S/C24H33N/c1-3-16-25(17-4-2)24-15-14-22-18-21(12-13-23(22)19-24)11-10-20-8-6-5-7-9-20/h5-9,12-13,18,24H,3-4,10-11,14-17,19H2,1-2H3

> <PUBCHEM_IUPAC_INCHIKEY>
HCNYNWZHRZQZAX-UHFFFAOYSA-N

> <PUBCHEM_XLOGP3_AA>
6.7

> <PUBCHEM_EXACT_MASS>
335.261300057

> <PUBCHEM_MOLECULAR_FORMULA>
C24H33N

> <PUBCHEM_MOLECULAR_WEIGHT>
335.5

> <PUBCHEM_OPENEYE_CAN_SMILES>
CCCN(CCC)C1CCC2=C(C1)C=CC(=C2)CCC3=CC=CC=C3

> <PUBCHEM_OPENEYE_ISO_SMILES>
CCCN(CCC)C1CCC2=C(C1)C=CC(=C2)CCC3=CC=CC=C3

> <PUBCHEM_CACTVS_TPSA>
3.2

> <PUBCHEM_MONOISOTOPIC_WEIGHT>
335.261300057

> <PUBCHEM_TOTAL_CHARGE>
0

> <PUBCHEM_HEAVY_ATOM_COUNT>
25

> <PUBCHEM_ATOM_DEF_STEREO_COUNT>
0

> <PUBCHEM_ATOM_UDEF_STEREO_COUNT>
1

> <PUBCHEM_BOND_DEF_STEREO_COUNT>
0

> <PUBCHEM_BOND_UDEF_STEREO_COUNT>
0

> <PUBCHEM_ISOTOPIC_ATOM_COUNT>
0

> <PUBCHEM_COMPONENT_COUNT>
1

> <PUBCHEM_CACTVS_TAUTO_COUNT>
-1

> <PUBCHEM_COORDINATE_TYPE>
1
5
255

> <PUBCHEM_BONDANNOTATIONS>
2  1  3
10  14  8
11  15  8
14  15  8
20  21  8
20  22  8
21  23  8
22  24  8
23  25  8
24  25  8
6  11  8
6  7  8
7  10  8

$$$$
