145967359
  -OEChem-09292322052D

 61 64  0     0  0  0  0  0  0999 V2000
    2.0000   -5.7984    0.0000 F   0  0  0  0  0  0  0  0  0  0  0  0
    5.5443   -5.6031    0.0000 O   0  0  0  0  0  0  0  0  0  0  0  0
    9.3653    2.1219    0.0000 O   0  0  0  0  0  0  0  0  0  0  0  0
   11.2758    5.1797    0.0000 O   0  0  0  0  0  0  0  0  0  0  0  0
    6.4763   -1.1421    0.0000 N   0  0  0  0  0  0  0  0  0  0  0  0
    6.1279   -4.7984    0.0000 N   0  0  0  0  0  0  0  0  0  0  0  0
   12.3008    2.7406    0.0000 N   0  0  0  0  0  0  0  0  0  0  0  0
   12.9221    4.6416    0.0000 N   0  0  0  0  0  0  0  0  0  0  0  0
    5.8550   -3.0431    0.0000 C   0  0  0  0  0  0  0  0  0  0  0  0
    5.1871   -2.2988    0.0000 C   0  0  0  0  0  0  0  0  0  0  0  0
    6.8335   -2.8369    0.0000 C   0  0  0  0  0  0  0  0  0  0  0  0
    5.4978   -1.3483    0.0000 C   0  0  0  0  0  0  0  0  0  0  0  0
    7.1441   -1.8864    0.0000 C   0  0  0  0  0  0  0  0  0  0  0  0
    6.7870   -0.1916    0.0000 C   0  0  0  0  0  0  0  0  0  0  0  0
    5.5443   -3.9936    0.0000 C   0  0  0  0  0  0  0  0  0  0  0  0
    7.7654    0.0147    0.0000 C   0  0  0  0  0  0  0  0  0  0  0  0
    4.5981   -4.2984    0.0000 C   0  0  0  0  0  0  0  0  0  0  0  0
    8.0761    0.9652    0.0000 C   0  0  0  0  0  0  0  0  0  0  0  0
    4.5981   -5.2984    0.0000 C   0  0  0  0  0  0  0  0  0  0  0  0
    3.7320   -3.7984    0.0000 C   0  0  0  0  0  0  0  0  0  0  0  0
    9.0546    1.1714    0.0000 C   0  0  0  0  0  0  0  0  0  0  0  0
    3.7320   -5.7984    0.0000 C   0  0  0  0  0  0  0  0  0  0  0  0
    2.8660   -4.2984    0.0000 C   0  0  0  0  0  0  0  0  0  0  0  0
    2.8660   -5.2984    0.0000 C   0  0  0  0  0  0  0  0  0  0  0  0
   10.3438    2.3282    0.0000 C   0  0  0  0  0  0  0  0  0  0  0  0
   10.6545    3.2787    0.0000 C   0  0  0  0  0  0  0  0  0  0  0  0
   11.0116    1.5838    0.0000 C   0  0  0  0  0  0  0  0  0  0  0  0
   11.6330    3.4849    0.0000 C   0  0  0  0  0  0  0  0  0  0  0  0
   11.9901    1.7901    0.0000 C   0  0  0  0  0  0  0  0  0  0  0  0
   11.9436    4.4354    0.0000 C   0  0  0  0  0  0  0  0  0  0  0  0
   13.2328    5.5921    0.0000 C   0  0  0  0  0  0  0  0  0  0  0  0
   14.2113    5.7984    0.0000 C   0  0  0  0  0  0  0  0  0  0  0  0
    6.2690   -3.5046    0.0000 H   0  0  0  0  0  0  0  0  0  0  0  0
    4.6402   -2.0068    0.0000 H   0  0  0  0  0  0  0  0  0  0  0  0
    4.8046   -2.7867    0.0000 H   0  0  0  0  0  0  0  0  0  0  0  0
    6.8540   -3.4566    0.0000 H   0  0  0  0  0  0  0  0  0  0  0  0
    7.4473   -2.9242    0.0000 H   0  0  0  0  0  0  0  0  0  0  0  0
    5.4772   -0.7286    0.0000 H   0  0  0  0  0  0  0  0  0  0  0  0
    4.8840   -1.2609    0.0000 H   0  0  0  0  0  0  0  0  0  0  0  0
    7.6910   -2.1784    0.0000 H   0  0  0  0  0  0  0  0  0  0  0  0
    7.5267   -1.3985    0.0000 H   0  0  0  0  0  0  0  0  0  0  0  0
    6.7664    0.4281    0.0000 H   0  0  0  0  0  0  0  0  0  0  0  0
    6.1731   -0.1042    0.0000 H   0  0  0  0  0  0  0  0  0  0  0  0
    7.7860   -0.6050    0.0000 H   0  0  0  0  0  0  0  0  0  0  0  0
    8.3793   -0.0727    0.0000 H   0  0  0  0  0  0  0  0  0  0  0  0
    8.0556    1.5849    0.0000 H   0  0  0  0  0  0  0  0  0  0  0  0
    7.4623    1.0525    0.0000 H   0  0  0  0  0  0  0  0  0  0  0  0
    3.7320   -3.1784    0.0000 H   0  0  0  0  0  0  0  0  0  0  0  0
    9.0752    0.5517    0.0000 H   0  0  0  0  0  0  0  0  0  0  0  0
    9.6684    1.0841    0.0000 H   0  0  0  0  0  0  0  0  0  0  0  0
    3.7320   -6.4184    0.0000 H   0  0  0  0  0  0  0  0  0  0  0  0
    2.3291   -3.9884    0.0000 H   0  0  0  0  0  0  0  0  0  0  0  0
   10.2404    3.7401    0.0000 H   0  0  0  0  0  0  0  0  0  0  0  0
   10.8190    0.9945    0.0000 H   0  0  0  0  0  0  0  0  0  0  0  0
   12.4042    1.3286    0.0000 H   0  0  0  0  0  0  0  0  0  0  0  0
   13.3362    4.1802    0.0000 H   0  0  0  0  0  0  0  0  0  0  0  0
   13.2122    6.2118    0.0000 H   0  0  0  0  0  0  0  0  0  0  0  0
   12.6190    5.6795    0.0000 H   0  0  0  0  0  0  0  0  0  0  0  0
   14.3391    5.1917    0.0000 H   0  0  0  0  0  0  0  0  0  0  0  0
   14.8180    5.9262    0.0000 H   0  0  0  0  0  0  0  0  0  0  0  0
   14.0834    6.4050    0.0000 H   0  0  0  0  0  0  0  0  0  0  0  0
  1 24  1  0  0  0  0
  2  6  1  0  0  0  0
  2 19  1  0  0  0  0
  3 21  1  0  0  0  0
  3 25  1  0  0  0  0
  4 30  2  0  0  0  0
  5 12  1  0  0  0  0
  5 13  1  0  0  0  0
  5 14  1  0  0  0  0
  6 15  2  0  0  0  0
  7 28  2  0  0  0  0
  7 29  1  0  0  0  0
  8 30  1  0  0  0  0
  8 31  1  0  0  0  0
  8 56  1  0  0  0  0
  9 10  1  0  0  0  0
  9 11  1  0  0  0  0
  9 15  1  0  0  0  0
  9 33  1  0  0  0  0
 10 12  1  0  0  0  0
 10 34  1  0  0  0  0
 10 35  1  0  0  0  0
 11 13  1  0  0  0  0
 11 36  1  0  0  0  0
 11 37  1  0  0  0  0
 12 38  1  0  0  0  0
 12 39  1  0  0  0  0
 13 40  1  0  0  0  0
 13 41  1  0  0  0  0
 14 16  1  0  0  0  0
 14 42  1  0  0  0  0
 14 43  1  0  0  0  0
 15 17  1  0  0  0  0
 16 18  1  0  0  0  0
 16 44  1  0  0  0  0
 16 45  1  0  0  0  0
 17 19  2  0  0  0  0
 17 20  1  0  0  0  0
 18 21  1  0  0  0  0
 18 46  1  0  0  0  0
 18 47  1  0  0  0  0
 19 22  1  0  0  0  0
 20 23  2  0  0  0  0
 20 48  1  0  0  0  0
 21 49  1  0  0  0  0
 21 50  1  0  0  0  0
 22 24  2  0  0  0  0
 22 51  1  0  0  0  0
 23 24  1  0  0  0  0
 23 52  1  0  0  0  0
 25 26  2  0  0  0  0
 25 27  1  0  0  0  0
 26 28  1  0  0  0  0
 26 53  1  0  0  0  0
 27 29  2  0  0  0  0
 27 54  1  0  0  0  0
 28 30  1  0  0  0  0
 29 55  1  0  0  0  0
 31 32  1  0  0  0  0
 31 57  1  0  0  0  0
 31 58  1  0  0  0  0
 32 59  1  0  0  0  0
 32 60  1  0  0  0  0
 32 61  1  0  0  0  0
M  END
> <PUBCHEM_COMPOUND_CID>
145967359

> <PUBCHEM_COMPOUND_CANONICALIZED>
1

> <PUBCHEM_CACTVS_COMPLEXITY>
590

> <PUBCHEM_CACTVS_HBOND_ACCEPTOR>
7

> <PUBCHEM_CACTVS_HBOND_DONOR>
1

> <PUBCHEM_CACTVS_ROTATABLE_BOND>
9

> <PUBCHEM_CACTVS_SUBSKEYS>
AAADceB7sQAAAAAAAAAAAAAAAAAAAWAAAAA8WIAAAAAAAFgB/AAAHwAUAAAADQzhng4+htPYFACpA7V3VgCCiCA3IiAo2KG+bNoMZvrEtbuWOajm1hnI6ce6yOCOAAAAAAAIAAAAAAAAABAAAAAAAAAAAA==

> <PUBCHEM_IUPAC_OPENEYE_NAME>
N-ethyl-4-[4-[4-(6-fluoro-1,2-benzoxazol-3-yl)-1-piperidyl]butoxy]pyridine-2-carboxamide

> <PUBCHEM_IUPAC_CAS_NAME>
N-ethyl-4-[4-[4-(6-fluoro-1,2-benzoxazol-3-yl)-1-piperidinyl]butoxy]-2-pyridinecarboxamide

> <PUBCHEM_IUPAC_NAME_MARKUP>
<I>N</I>-ethyl-4-[4-[4-(6-fluoro-1,2-benzoxazol-3-yl)piperidin-1-yl]butoxy]pyridine-2-carboxamide

> <PUBCHEM_IUPAC_NAME>
N-ethyl-4-[4-[4-(6-fluoro-1,2-benzoxazol-3-yl)piperidin-1-yl]butoxy]pyridine-2-carboxamide

> <PUBCHEM_IUPAC_SYSTEMATIC_NAME>
N-ethyl-4-[4-[4-(6-fluoranyl-1,2-benzoxazol-3-yl)piperidin-1-yl]butoxy]pyridine-2-carboxamide

> <PUBCHEM_IUPAC_TRADITIONAL_NAME>
N-ethyl-4-[4-[4-(6-fluoroindoxazen-3-yl)piperidino]butoxy]picolinamide

> <PUBCHEM_IUPAC_INCHI>
InChI=1S/C24H29FN4O3/c1-2-26-24(30)21-16-19(7-10-27-21)31-14-4-3-11-29-12-8-17(9-13-29)23-20-6-5-18(25)15-22(20)32-28-23/h5-7,10,15-17H,2-4,8-9,11-14H2,1H3,(H,26,30)

> <PUBCHEM_IUPAC_INCHIKEY>
DLLDYOMDZPUMBB-UHFFFAOYSA-N

> <PUBCHEM_XLOGP3_AA>
3.7

> <PUBCHEM_EXACT_MASS>
440.22236896

> <PUBCHEM_MOLECULAR_FORMULA>
C24H29FN4O3

> <PUBCHEM_MOLECULAR_WEIGHT>
440.5

> <PUBCHEM_OPENEYE_CAN_SMILES>
CCNC(=O)C1=NC=CC(=C1)OCCCCN2CCC(CC2)C3=NOC4=C3C=CC(=C4)F

> <PUBCHEM_OPENEYE_ISO_SMILES>
CCNC(=O)C1=NC=CC(=C1)OCCCCN2CCC(CC2)C3=NOC4=C3C=CC(=C4)F

> <PUBCHEM_CACTVS_TPSA>
80.5

> <PUBCHEM_MONOISOTOPIC_WEIGHT>
440.22236896

> <PUBCHEM_TOTAL_CHARGE>
0

> <PUBCHEM_HEAVY_ATOM_COUNT>
32

> <PUBCHEM_ATOM_DEF_STEREO_COUNT>
0

> <PUBCHEM_ATOM_UDEF_STEREO_COUNT>
0

> <PUBCHEM_BOND_DEF_STEREO_COUNT>
0

> <PUBCHEM_BOND_UDEF_STEREO_COUNT>
0

> <PUBCHEM_ISOTOPIC_ATOM_COUNT>
0

> <PUBCHEM_COMPONENT_COUNT>
1

> <PUBCHEM_CACTVS_TAUTO_COUNT>
-1

> <PUBCHEM_COORDINATE_TYPE>
1
5
255

> <PUBCHEM_BONDANNOTATIONS>
15  17  8
17  19  8
17  20  8
19  22  8
2  19  8
2  6  8
20  23  8
22  24  8
23  24  8
25  26  8
25  27  8
26  28  8
27  29  8
6  15  8
7  28  8
7  29  8

$$$$
