10073022
  -OEChem-09292322112D

 67 71  0     1  0  0  0  0  0999 V2000
   11.8911   -4.9045    0.0000 F   0  0  0  0  0  0  0  0  0  0  0  0
    5.0682   -6.1076    0.0000 F   0  0  0  0  0  0  0  0  0  0  0  0
    7.9587   -2.5516    0.0000 O   0  0  0  0  0  0  0  0  0  0  0  0
    5.4467    0.0454    0.0000 N   0  0  0  0  0  0  0  0  0  0  0  0
    4.9689   -1.9031    0.0000 C   0  0  1  0  0  0  0  0  0  0  0  0
    4.7101   -0.9372    0.0000 C   0  0  2  0  0  0  0  0  0  0  0  0
    3.5700   -2.4120    0.0000 C   0  0  0  0  0  0  0  0  0  0  0  0
    3.3112   -1.4460    0.0000 C   0  0  0  0  0  0  0  0  0  0  0  0
    6.1900   -2.7688    0.0000 C   0  0  0  0  0  0  0  0  0  0  0  0
    6.7434   -1.2483    0.0000 C   0  0  0  0  0  0  0  0  0  0  0  0
    7.0190   -2.2096    0.0000 C   0  0  0  0  0  0  0  0  0  0  0  0
    5.9467    0.9114    0.0000 C   0  0  0  0  0  0  0  0  0  0  0  0
    5.4467    1.7775    0.0000 C   0  0  0  0  0  0  0  0  0  0  0  0
    8.1324   -3.5364    0.0000 C   0  0  0  0  0  0  0  0  0  0  0  0
    5.9467    2.6435    0.0000 C   0  0  0  0  0  0  0  0  0  0  0  0
    5.4467    3.5095    0.0000 C   0  0  0  0  0  0  0  0  0  0  0  0
    9.0720   -3.8784    0.0000 C   0  0  0  0  0  0  0  0  0  0  0  0
    7.3663   -4.1792    0.0000 C   0  0  0  0  0  0  0  0  0  0  0  0
    5.9467    4.3755    0.0000 C   0  0  0  0  0  0  0  0  0  0  0  0
    9.2457   -4.8633    0.0000 C   0  0  0  0  0  0  0  0  0  0  0  0
    6.4266   -3.8372    0.0000 C   0  0  0  0  0  0  0  0  0  0  0  0
    9.8381   -3.2357    0.0000 C   0  0  0  0  0  0  0  0  0  0  0  0
    7.5400   -5.1640    0.0000 C   0  0  0  0  0  0  0  0  0  0  0  0
    6.9467    4.3755    0.0000 C   0  0  0  0  0  0  0  0  0  0  0  0
    5.4467    5.2416    0.0000 C   0  0  0  0  0  0  0  0  0  0  0  0
   10.1854   -5.2053    0.0000 C   0  0  0  0  0  0  0  0  0  0  0  0
    5.6606   -4.4800    0.0000 C   0  0  0  0  0  0  0  0  0  0  0  0
   10.7778   -3.5777    0.0000 C   0  0  0  0  0  0  0  0  0  0  0  0
    6.7739   -5.8068    0.0000 C   0  0  0  0  0  0  0  0  0  0  0  0
   10.9514   -4.5625    0.0000 C   0  0  0  0  0  0  0  0  0  0  0  0
    5.8342   -5.4648    0.0000 C   0  0  0  0  0  0  0  0  0  0  0  0
    7.4467    5.2416    0.0000 C   0  0  0  0  0  0  0  0  0  0  0  0
    5.9467    6.1076    0.0000 C   0  0  0  0  0  0  0  0  0  0  0  0
    6.9467    6.1076    0.0000 C   0  0  0  0  0  0  0  0  0  0  0  0
    5.1889   -2.7242    0.0000 H   0  0  0  0  0  0  0  0  0  0  0  0
    4.4901   -0.1162    0.0000 H   0  0  0  0  0  0  0  0  0  0  0  0
    3.7649   -3.0005    0.0000 H   0  0  0  0  0  0  0  0  0  0  0  0
    2.9760   -2.5897    0.0000 H   0  0  0  0  0  0  0  0  0  0  0  0
    2.7172   -1.6238    0.0000 H   0  0  0  0  0  0  0  0  0  0  0  0
    3.1163   -0.8575    0.0000 H   0  0  0  0  0  0  0  0  0  0  0  0
    6.5958   -3.2375    0.0000 H   0  0  0  0  0  0  0  0  0  0  0  0
    5.7733   -3.2279    0.0000 H   0  0  0  0  0  0  0  0  0  0  0  0
    6.7484   -0.6284    0.0000 H   0  0  0  0  0  0  0  0  0  0  0  0
    7.3577   -1.1646    0.0000 H   0  0  0  0  0  0  0  0  0  0  0  0
    7.0946   -2.8250    0.0000 H   0  0  0  0  0  0  0  0  0  0  0  0
    6.4217    1.3100    0.0000 H   0  0  0  0  0  0  0  0  0  0  0  0
    6.4217    0.5129    0.0000 H   0  0  0  0  0  0  0  0  0  0  0  0
    4.9718    1.3789    0.0000 H   0  0  0  0  0  0  0  0  0  0  0  0
    4.9718    2.1760    0.0000 H   0  0  0  0  0  0  0  0  0  0  0  0
    8.6073   -3.1379    0.0000 H   0  0  0  0  0  0  0  0  0  0  0  0
    6.4217    3.0420    0.0000 H   0  0  0  0  0  0  0  0  0  0  0  0
    6.4217    2.2449    0.0000 H   0  0  0  0  0  0  0  0  0  0  0  0
    4.9718    3.1110    0.0000 H   0  0  0  0  0  0  0  0  0  0  0  0
    4.9718    3.9080    0.0000 H   0  0  0  0  0  0  0  0  0  0  0  0
    8.7707   -5.2618    0.0000 H   0  0  0  0  0  0  0  0  0  0  0  0
    6.3190   -3.2266    0.0000 H   0  0  0  0  0  0  0  0  0  0  0  0
    9.7304   -2.6251    0.0000 H   0  0  0  0  0  0  0  0  0  0  0  0
    8.1226   -5.3761    0.0000 H   0  0  0  0  0  0  0  0  0  0  0  0
    7.2567    3.8386    0.0000 H   0  0  0  0  0  0  0  0  0  0  0  0
    4.8267    5.2416    0.0000 H   0  0  0  0  0  0  0  0  0  0  0  0
   10.2930   -5.8159    0.0000 H   0  0  0  0  0  0  0  0  0  0  0  0
    5.0780   -4.2679    0.0000 H   0  0  0  0  0  0  0  0  0  0  0  0
   11.2527   -3.1792    0.0000 H   0  0  0  0  0  0  0  0  0  0  0  0
    6.8816   -6.4174    0.0000 H   0  0  0  0  0  0  0  0  0  0  0  0
    8.0667    5.2416    0.0000 H   0  0  0  0  0  0  0  0  0  0  0  0
    5.6367    6.6445    0.0000 H   0  0  0  0  0  0  0  0  0  0  0  0
    7.2567    6.6445    0.0000 H   0  0  0  0  0  0  0  0  0  0  0  0
  1 30  1  0  0  0  0
  2 31  1  0  0  0  0
  3 11  1  0  0  0  0
  3 14  1  0  0  0  0
  4  5  1  0  0  0  0
  4  6  1  0  0  0  0
  4 12  1  0  0  0  0
  5  7  1  0  0  0  0
  5  9  1  0  0  0  0
  5 35  1  1  0  0  0
  6  8  1  0  0  0  0
  6 10  1  0  0  0  0
  6 36  1  6  0  0  0
  7  8  1  0  0  0  0
  7 37  1  0  0  0  0
  7 38  1  0  0  0  0
  8 39  1  0  0  0  0
  8 40  1  0  0  0  0
  9 11  1  0  0  0  0
  9 41  1  0  0  0  0
  9 42  1  0  0  0  0
 10 11  1  0  0  0  0
 10 43  1  0  0  0  0
 10 44  1  0  0  0  0
 11 45  1  0  0  0  0
 12 13  1  0  0  0  0
 12 46  1  0  0  0  0
 12 47  1  0  0  0  0
 13 15  1  0  0  0  0
 13 48  1  0  0  0  0
 13 49  1  0  0  0  0
 14 17  1  0  0  0  0
 14 18  1  0  0  0  0
 14 50  1  0  0  0  0
 15 16  1  0  0  0  0
 15 51  1  0  0  0  0
 15 52  1  0  0  0  0
 16 19  1  0  0  0  0
 16 53  1  0  0  0  0
 16 54  1  0  0  0  0
 17 20  2  0  0  0  0
 17 22  1  0  0  0  0
 18 21  2  0  0  0  0
 18 23  1  0  0  0  0
 19 24  2  0  0  0  0
 19 25  1  0  0  0  0
 20 26  1  0  0  0  0
 20 55  1  0  0  0  0
 21 27  1  0  0  0  0
 21 56  1  0  0  0  0
 22 28  2  0  0  0  0
 22 57  1  0  0  0  0
 23 29  2  0  0  0  0
 23 58  1  0  0  0  0
 24 32  1  0  0  0  0
 24 59  1  0  0  0  0
 25 33  2  0  0  0  0
 25 60  1  0  0  0  0
 26 30  2  0  0  0  0
 26 61  1  0  0  0  0
 27 31  2  0  0  0  0
 27 62  1  0  0  0  0
 28 30  1  0  0  0  0
 28 63  1  0  0  0  0
 29 31  1  0  0  0  0
 29 64  1  0  0  0  0
 32 34  2  0  0  0  0
 32 65  1  0  0  0  0
 33 34  1  0  0  0  0
 33 66  1  0  0  0  0
 34 67  1  0  0  0  0
M  END
> <PUBCHEM_COMPOUND_CID>
10073022

> <PUBCHEM_COMPOUND_CANONICALIZED>
1

> <PUBCHEM_CACTVS_COMPLEXITY>
559

> <PUBCHEM_CACTVS_HBOND_ACCEPTOR>
4

> <PUBCHEM_CACTVS_HBOND_DONOR>
0

> <PUBCHEM_CACTVS_ROTATABLE_BOND>
9

> <PUBCHEM_CACTVS_SUBSKEYS>
AAADcfB6IYAAAAAAAAAAAAAAAAAAAWAAAAA8YMEABgAAAAABUAAAHwAAAAAADDzhmA4wAIMABACAAiBCAAACAAAgAAAIiAAICIgIJiKAsRiGMAAmwAGIqAeQwOAOAAAAAAAAAAAAAAAAAAAAAAAAAAAAAA==

> <PUBCHEM_IUPAC_OPENEYE_NAME>
(1S,5R)-3-[bis(4-fluorophenyl)methoxy]-8-(4-phenylbutyl)-8-azabicyclo[3.2.1]octane

> <PUBCHEM_IUPAC_CAS_NAME>
(1S,5R)-3-[bis(4-fluorophenyl)methoxy]-8-(4-phenylbutyl)-8-azabicyclo[3.2.1]octane

> <PUBCHEM_IUPAC_NAME_MARKUP>
(1<I>S</I>,5<I>R</I>)-3-[bis(4-fluorophenyl)methoxy]-8-(4-phenylbutyl)-8-azabicyclo[3.2.1]octane

> <PUBCHEM_IUPAC_NAME>
(1S,5R)-3-[bis(4-fluorophenyl)methoxy]-8-(4-phenylbutyl)-8-azabicyclo[3.2.1]octane

> <PUBCHEM_IUPAC_SYSTEMATIC_NAME>
(1S,5R)-3-[bis(4-fluorophenyl)methoxy]-8-(4-phenylbutyl)-8-azabicyclo[3.2.1]octane

> <PUBCHEM_IUPAC_TRADITIONAL_NAME>
(1S,5R)-3-[bis(4-fluorophenyl)methoxy]-8-(4-phenylbutyl)-8-azabicyclo[3.2.1]octane

> <PUBCHEM_IUPAC_INCHI>
InChI=1S/C30H33F2NO/c31-25-13-9-23(10-14-25)30(24-11-15-26(32)16-12-24)34-29-20-27-17-18-28(21-29)33(27)19-5-4-8-22-6-2-1-3-7-22/h1-3,6-7,9-16,27-30H,4-5,8,17-21H2/t27-,28+,29?

> <PUBCHEM_IUPAC_INCHIKEY>
FJCIWANMQSLZNY-ULJKERAFSA-N

> <PUBCHEM_XLOGP3_AA>
7.4

> <PUBCHEM_EXACT_MASS>
461.25302100

> <PUBCHEM_MOLECULAR_FORMULA>
C30H33F2NO

> <PUBCHEM_MOLECULAR_WEIGHT>
461.6

> <PUBCHEM_OPENEYE_CAN_SMILES>
C1CC2CC(CC1N2CCCCC3=CC=CC=C3)OC(C4=CC=C(C=C4)F)C5=CC=C(C=C5)F

> <PUBCHEM_OPENEYE_ISO_SMILES>
C1C[C@H]2CC(C[C@@H]1N2CCCCC3=CC=CC=C3)OC(C4=CC=C(C=C4)F)C5=CC=C(C=C5)F

> <PUBCHEM_CACTVS_TPSA>
12.5

> <PUBCHEM_MONOISOTOPIC_WEIGHT>
461.25302100

> <PUBCHEM_TOTAL_CHARGE>
0

> <PUBCHEM_HEAVY_ATOM_COUNT>
34

> <PUBCHEM_ATOM_DEF_STEREO_COUNT>
2

> <PUBCHEM_ATOM_UDEF_STEREO_COUNT>
0

> <PUBCHEM_BOND_DEF_STEREO_COUNT>
0

> <PUBCHEM_BOND_UDEF_STEREO_COUNT>
0

> <PUBCHEM_ISOTOPIC_ATOM_COUNT>
0

> <PUBCHEM_COMPONENT_COUNT>
1

> <PUBCHEM_CACTVS_TAUTO_COUNT>
-1

> <PUBCHEM_COORDINATE_TYPE>
1
5
255

> <PUBCHEM_BONDANNOTATIONS>
17  20  8
17  22  8
18  21  8
18  23  8
19  24  8
19  25  8
20  26  8
21  27  8
22  28  8
23  29  8
24  32  8
25  33  8
26  30  8
27  31  8
28  30  8
29  31  8
32  34  8
33  34  8
5  35  5
6  36  6

$$$$
