71463196
  -OEChem-09292322472D

 40 42  0     0  0  0  0  0  0999 V2000
    6.2619    2.0042    0.0000 O   0  0  0  0  0  0  0  0  0  0  0  0
    4.9889    3.7594    0.0000 O   0  0  0  0  0  0  0  0  0  0  0  0
    5.6103   -1.6521    0.0000 N   0  0  0  0  0  0  0  0  0  0  0  0
    4.6783    1.1994    0.0000 N   0  0  0  0  0  0  0  0  0  0  0  0
    4.9889    0.2489    0.0000 C   0  0  0  0  0  0  0  0  0  0  0  0
    4.3211   -0.4954    0.0000 C   0  0  0  0  0  0  0  0  0  0  0  0
    5.9674    0.0427    0.0000 C   0  0  0  0  0  0  0  0  0  0  0  0
    4.6318   -1.4459    0.0000 C   0  0  0  0  0  0  0  0  0  0  0  0
    6.2781   -0.9078    0.0000 C   0  0  0  0  0  0  0  0  0  0  0  0
    5.9209   -2.6027    0.0000 C   0  0  0  0  0  0  0  0  0  0  0  0
    3.7320    1.5042    0.0000 C   0  0  0  0  0  0  0  0  0  0  0  0
    5.2619    2.0042    0.0000 C   0  0  0  0  0  0  0  0  0  0  0  0
    6.8994   -2.8089    0.0000 C   0  0  0  0  0  0  0  0  0  0  0  0
    3.7320    2.5042    0.0000 C   0  0  0  0  0  0  0  0  0  0  0  0
    4.6783    2.8089    0.0000 C   0  0  0  0  0  0  0  0  0  0  0  0
    2.8660    1.0042    0.0000 C   0  0  0  0  0  0  0  0  0  0  0  0
    7.2101   -3.7594    0.0000 C   0  0  0  0  0  0  0  0  0  0  0  0
    2.8660    3.0042    0.0000 C   0  0  0  0  0  0  0  0  0  0  0  0
    2.0000    1.5042    0.0000 C   0  0  0  0  0  0  0  0  0  0  0  0
    2.0000    2.5042    0.0000 C   0  0  0  0  0  0  0  0  0  0  0  0
    5.4030    0.7104    0.0000 H   0  0  0  0  0  0  0  0  0  0  0  0
    3.9385   -0.0075    0.0000 H   0  0  0  0  0  0  0  0  0  0  0  0
    3.7742   -0.7874    0.0000 H   0  0  0  0  0  0  0  0  0  0  0  0
    6.5812    0.1300    0.0000 H   0  0  0  0  0  0  0  0  0  0  0  0
    5.9880    0.6623    0.0000 H   0  0  0  0  0  0  0  0  0  0  0  0
    4.0179   -1.5333    0.0000 H   0  0  0  0  0  0  0  0  0  0  0  0
    4.6112   -2.0656    0.0000 H   0  0  0  0  0  0  0  0  0  0  0  0
    6.6607   -1.3958    0.0000 H   0  0  0  0  0  0  0  0  0  0  0  0
    6.8250   -0.6158    0.0000 H   0  0  0  0  0  0  0  0  0  0  0  0
    5.3071   -2.6900    0.0000 H   0  0  0  0  0  0  0  0  0  0  0  0
    5.9004   -3.2223    0.0000 H   0  0  0  0  0  0  0  0  0  0  0  0
    7.5132   -2.7215    0.0000 H   0  0  0  0  0  0  0  0  0  0  0  0
    6.9200   -2.1892    0.0000 H   0  0  0  0  0  0  0  0  0  0  0  0
    2.8660    0.3842    0.0000 H   0  0  0  0  0  0  0  0  0  0  0  0
    6.6208   -3.9520    0.0000 H   0  0  0  0  0  0  0  0  0  0  0  0
    7.4027   -4.3487    0.0000 H   0  0  0  0  0  0  0  0  0  0  0  0
    7.7994   -3.5668    0.0000 H   0  0  0  0  0  0  0  0  0  0  0  0
    2.8660    3.6242    0.0000 H   0  0  0  0  0  0  0  0  0  0  0  0
    1.4631    1.1942    0.0000 H   0  0  0  0  0  0  0  0  0  0  0  0
    1.4631    2.8142    0.0000 H   0  0  0  0  0  0  0  0  0  0  0  0
  1 12  2  0  0  0  0
  2 15  2  0  0  0  0
  3  8  1  0  0  0  0
  3  9  1  0  0  0  0
  3 10  1  0  0  0  0
  4  5  1  0  0  0  0
  4 11  1  0  0  0  0
  4 12  1  0  0  0  0
  5  6  1  0  0  0  0
  5  7  1  0  0  0  0
  5 21  1  0  0  0  0
  6  8  1  0  0  0  0
  6 22  1  0  0  0  0
  6 23  1  0  0  0  0
  7  9  1  0  0  0  0
  7 24  1  0  0  0  0
  7 25  1  0  0  0  0
  8 26  1  0  0  0  0
  8 27  1  0  0  0  0
  9 28  1  0  0  0  0
  9 29  1  0  0  0  0
 10 13  1  0  0  0  0
 10 30  1  0  0  0  0
 10 31  1  0  0  0  0
 11 14  1  0  0  0  0
 11 16  2  0  0  0  0
 12 15  1  0  0  0  0
 13 17  1  0  0  0  0
 13 32  1  0  0  0  0
 13 33  1  0  0  0  0
 14 15  1  0  0  0  0
 14 18  2  0  0  0  0
 16 19  1  0  0  0  0
 16 34  1  0  0  0  0
 17 35  1  0  0  0  0
 17 36  1  0  0  0  0
 17 37  1  0  0  0  0
 18 20  1  0  0  0  0
 18 38  1  0  0  0  0
 19 20  2  0  0  0  0
 19 39  1  0  0  0  0
 20 40  1  0  0  0  0
M  END
> <PUBCHEM_COMPOUND_CID>
71463196

> <PUBCHEM_COMPOUND_CANONICALIZED>
1

> <PUBCHEM_CACTVS_COMPLEXITY>
388

> <PUBCHEM_CACTVS_HBOND_ACCEPTOR>
3

> <PUBCHEM_CACTVS_HBOND_DONOR>
0

> <PUBCHEM_CACTVS_ROTATABLE_BOND>
3

> <PUBCHEM_CACTVS_SUBSKEYS>
AAADceB7MAAAAAAAAAAAAAAAAAAAAWAAAAA8QAAAAAAAAFgBAAAAHgAAAAAADCzBmAQywIMAAACIAqVSUACCAAAlAgAIiAGIZMgIIDrA1bGEIYhghgDIyccciICOAAAAAAACAAAAAAAAAAQAAAAAAAAAAA==

> <PUBCHEM_IUPAC_OPENEYE_NAME>
1-(1-propyl-4-piperidyl)indoline-2,3-dione

> <PUBCHEM_IUPAC_CAS_NAME>
1-(1-propyl-4-piperidinyl)indole-2,3-dione

> <PUBCHEM_IUPAC_NAME_MARKUP>
1-(1-propylpiperidin-4-yl)indole-2,3-dione

> <PUBCHEM_IUPAC_NAME>
1-(1-propylpiperidin-4-yl)indole-2,3-dione

> <PUBCHEM_IUPAC_SYSTEMATIC_NAME>
1-(1-propylpiperidin-4-yl)indole-2,3-dione

> <PUBCHEM_IUPAC_TRADITIONAL_NAME>
1-(1-propyl-4-piperidyl)isatin

> <PUBCHEM_IUPAC_INCHI>
InChI=1S/C16H20N2O2/c1-2-9-17-10-7-12(8-11-17)18-14-6-4-3-5-13(14)15(19)16(18)20/h3-6,12H,2,7-11H2,1H3

> <PUBCHEM_IUPAC_INCHIKEY>
ZMHLLOSHNNKANA-UHFFFAOYSA-N

> <PUBCHEM_XLOGP3>
2.1

> <PUBCHEM_EXACT_MASS>
272.152477885

> <PUBCHEM_MOLECULAR_FORMULA>
C16H20N2O2

> <PUBCHEM_MOLECULAR_WEIGHT>
272.34

> <PUBCHEM_OPENEYE_CAN_SMILES>
CCCN1CCC(CC1)N2C3=CC=CC=C3C(=O)C2=O

> <PUBCHEM_OPENEYE_ISO_SMILES>
CCCN1CCC(CC1)N2C3=CC=CC=C3C(=O)C2=O

> <PUBCHEM_CACTVS_TPSA>
40.6

> <PUBCHEM_MONOISOTOPIC_WEIGHT>
272.152477885

> <PUBCHEM_TOTAL_CHARGE>
0

> <PUBCHEM_HEAVY_ATOM_COUNT>
20

> <PUBCHEM_ATOM_DEF_STEREO_COUNT>
0

> <PUBCHEM_ATOM_UDEF_STEREO_COUNT>
0

> <PUBCHEM_BOND_DEF_STEREO_COUNT>
0

> <PUBCHEM_BOND_UDEF_STEREO_COUNT>
0

> <PUBCHEM_ISOTOPIC_ATOM_COUNT>
0

> <PUBCHEM_COMPONENT_COUNT>
1

> <PUBCHEM_CACTVS_TAUTO_COUNT>
-1

> <PUBCHEM_COORDINATE_TYPE>
1
5
255

> <PUBCHEM_BONDANNOTATIONS>
11  14  8
11  16  8
14  18  8
16  19  8
18  20  8
19  20  8

$$$$
