44309688
  -OEChem-09292322102D

 61 65  0     0  0  0  0  0  0999 V2000
    7.0948   -4.9337    0.0000 Cl  0  0  0  0  0  0  0  0  0  0  0  0
    6.4548   -6.8286    0.0000 Cl  0  0  0  0  0  0  0  0  0  0  0  0
    4.4118    3.3610    0.0000 O   0  0  0  0  0  0  0  0  0  0  0  0
    6.4138   -1.5372    0.0000 N   0  0  0  0  0  0  0  0  0  0  0  0
    5.7739   -3.4320    0.0000 N   0  0  0  0  0  0  0  0  0  0  0  0
    6.0528    2.8067    0.0000 N   0  0  0  0  0  0  0  0  0  0  0  0
    7.0743   -2.2880    0.0000 C   0  0  0  0  0  0  0  0  0  0  0  0
    5.4334   -1.7338    0.0000 C   0  0  0  0  0  0  0  0  0  0  0  0
    6.7543   -3.2355    0.0000 C   0  0  0  0  0  0  0  0  0  0  0  0
    5.1133   -2.6812    0.0000 C   0  0  0  0  0  0  0  0  0  0  0  0
    6.7338   -0.5898    0.0000 C   0  0  0  0  0  0  0  0  0  0  0  0
    5.4538   -4.3795    0.0000 C   0  0  0  0  0  0  0  0  0  0  0  0
    5.0274    5.2897    0.0000 C   0  0  0  0  0  0  0  0  0  0  0  0
    4.5274    6.8286    0.0000 C   0  0  0  0  0  0  0  0  0  0  0  0
    5.3364    6.2408    0.0000 C   0  0  0  0  0  0  0  0  0  0  0  0
    4.0274    5.2897    0.0000 C   0  0  0  0  0  0  0  0  0  0  0  0
    3.7183    6.2408    0.0000 C   0  0  0  0  0  0  0  0  0  0  0  0
    6.0733    0.1610    0.0000 C   0  0  0  0  0  0  0  0  0  0  0  0
    5.7123    4.5050    0.0000 C   0  0  0  0  0  0  0  0  0  0  0  0
    6.1143   -5.1303    0.0000 C   0  0  0  0  0  0  0  0  0  0  0  0
    4.4734   -4.5761    0.0000 C   0  0  0  0  0  0  0  0  0  0  0  0
    6.3518    6.4730    0.0000 C   0  0  0  0  0  0  0  0  0  0  0  0
    3.3424    4.5050    0.0000 C   0  0  0  0  0  0  0  0  0  0  0  0
    2.7029    6.4730    0.0000 C   0  0  0  0  0  0  0  0  0  0  0  0
    6.3933    1.1085    0.0000 C   0  0  0  0  0  0  0  0  0  0  0  0
    6.7328    4.7137    0.0000 C   0  0  0  0  0  0  0  0  0  0  0  0
    5.7328    1.8593    0.0000 C   0  0  0  0  0  0  0  0  0  0  0  0
    5.3923    3.5576    0.0000 C   0  0  0  0  0  0  0  0  0  0  0  0
    7.0547    5.7043    0.0000 C   0  0  0  0  0  0  0  0  0  0  0  0
    5.7944   -6.0777    0.0000 C   0  0  0  0  0  0  0  0  0  0  0  0
    4.1534   -5.5235    0.0000 C   0  0  0  0  0  0  0  0  0  0  0  0
    2.3219    4.7137    0.0000 C   0  0  0  0  0  0  0  0  0  0  0  0
    2.0000    5.7043    0.0000 C   0  0  0  0  0  0  0  0  0  0  0  0
    4.8139   -6.2743    0.0000 C   0  0  0  0  0  0  0  0  0  0  0  0
    7.6184   -2.5854    0.0000 H   0  0  0  0  0  0  0  0  0  0  0  0
    7.4617   -1.8039    0.0000 H   0  0  0  0  0  0  0  0  0  0  0  0
    5.4189   -1.1140    0.0000 H   0  0  0  0  0  0  0  0  0  0  0  0
    4.8204   -1.6404    0.0000 H   0  0  0  0  0  0  0  0  0  0  0  0
    6.7688   -3.8553    0.0000 H   0  0  0  0  0  0  0  0  0  0  0  0
    7.3673   -3.3288    0.0000 H   0  0  0  0  0  0  0  0  0  0  0  0
    4.5693   -2.3838    0.0000 H   0  0  0  0  0  0  0  0  0  0  0  0
    4.7260   -3.1653    0.0000 H   0  0  0  0  0  0  0  0  0  0  0  0
    7.2778   -0.8872    0.0000 H   0  0  0  0  0  0  0  0  0  0  0  0
    7.1212   -0.1057    0.0000 H   0  0  0  0  0  0  0  0  0  0  0  0
    4.9422    7.2893    0.0000 H   0  0  0  0  0  0  0  0  0  0  0  0
    4.1125    7.2893    0.0000 H   0  0  0  0  0  0  0  0  0  0  0  0
    5.4654    0.0392    0.0000 H   0  0  0  0  0  0  0  0  0  0  0  0
    4.0639   -4.1105    0.0000 H   0  0  0  0  0  0  0  0  0  0  0  0
    6.5365    7.0648    0.0000 H   0  0  0  0  0  0  0  0  0  0  0  0
    3.5408    3.9176    0.0000 H   0  0  0  0  0  0  0  0  0  0  0  0
    2.5182    7.0648    0.0000 H   0  0  0  0  0  0  0  0  0  0  0  0
    7.0012    1.2304    0.0000 H   0  0  0  0  0  0  0  0  0  0  0  0
    7.1459    4.2513    0.0000 H   0  0  0  0  0  0  0  0  0  0  0  0
    5.1888    2.1567    0.0000 H   0  0  0  0  0  0  0  0  0  0  0  0
    5.3455    1.3752    0.0000 H   0  0  0  0  0  0  0  0  0  0  0  0
    7.6607    5.8356    0.0000 H   0  0  0  0  0  0  0  0  0  0  0  0
    3.5455   -5.6454    0.0000 H   0  0  0  0  0  0  0  0  0  0  0  0
    1.9088    4.2513    0.0000 H   0  0  0  0  0  0  0  0  0  0  0  0
    1.3940    5.8356    0.0000 H   0  0  0  0  0  0  0  0  0  0  0  0
    6.6607    2.9286    0.0000 H   0  0  0  0  0  0  0  0  0  0  0  0
    4.6155   -6.8617    0.0000 H   0  0  0  0  0  0  0  0  0  0  0  0
  1 20  1  0  0  0  0
  2 30  1  0  0  0  0
  3 28  2  0  0  0  0
  4  7  1  0  0  0  0
  4  8  1  0  0  0  0
  4 11  1  0  0  0  0
  5  9  1  0  0  0  0
  5 10  1  0  0  0  0
  5 12  1  0  0  0  0
  6 27  1  0  0  0  0
  6 28  1  0  0  0  0
  6 60  1  0  0  0  0
  7  9  1  0  0  0  0
  7 35  1  0  0  0  0
  7 36  1  0  0  0  0
  8 10  1  0  0  0  0
  8 37  1  0  0  0  0
  8 38  1  0  0  0  0
  9 39  1  0  0  0  0
  9 40  1  0  0  0  0
 10 41  1  0  0  0  0
 10 42  1  0  0  0  0
 11 18  1  0  0  0  0
 11 43  1  0  0  0  0
 11 44  1  0  0  0  0
 12 20  2  0  0  0  0
 12 21  1  0  0  0  0
 13 15  2  0  0  0  0
 13 16  1  0  0  0  0
 13 19  1  0  0  0  0
 14 15  1  0  0  0  0
 14 17  1  0  0  0  0
 14 45  1  0  0  0  0
 14 46  1  0  0  0  0
 15 22  1  0  0  0  0
 16 17  1  0  0  0  0
 16 23  2  0  0  0  0
 17 24  2  0  0  0  0
 18 25  2  0  0  0  0
 18 47  1  0  0  0  0
 19 26  2  0  0  0  0
 19 28  1  0  0  0  0
 20 30  1  0  0  0  0
 21 31  2  0  0  0  0
 21 48  1  0  0  0  0
 22 29  2  0  0  0  0
 22 49  1  0  0  0  0
 23 32  1  0  0  0  0
 23 50  1  0  0  0  0
 24 33  1  0  0  0  0
 24 51  1  0  0  0  0
 25 27  1  0  0  0  0
 25 52  1  0  0  0  0
 26 29  1  0  0  0  0
 26 53  1  0  0  0  0
 27 54  1  0  0  0  0
 27 55  1  0  0  0  0
 29 56  1  0  0  0  0
 30 34  2  0  0  0  0
 31 34  1  0  0  0  0
 31 57  1  0  0  0  0
 32 33  2  0  0  0  0
 32 58  1  0  0  0  0
 33 59  1  0  0  0  0
 34 61  1  0  0  0  0
M  END
> <PUBCHEM_COMPOUND_CID>
44309688

> <PUBCHEM_COMPOUND_CANONICALIZED>
1

> <PUBCHEM_CACTVS_COMPLEXITY>
710

> <PUBCHEM_CACTVS_HBOND_ACCEPTOR>
3

> <PUBCHEM_CACTVS_HBOND_DONOR>
1

> <PUBCHEM_CACTVS_ROTATABLE_BOND>
6

> <PUBCHEM_CACTVS_SUBSKEYS>
AAADceB7IAAGAAAAAAAAAAAAAAAAAYAAAAA8YMEAAAAAAGABUAAAHgIQAAAADArBmCQwwIPAAACIAiVSUACCAAAlBwAIisEIZsgIYDLBl5HUIQhglgDIyYcYiMCOgAACAAIQABQAAAQABCAAKQAACAAAAA==

> <PUBCHEM_IUPAC_OPENEYE_NAME>
N-[(E)-4-[4-(2,3-dichlorophenyl)piperazin-1-yl]but-2-enyl]-9H-fluorene-4-carboxamide

> <PUBCHEM_IUPAC_CAS_NAME>
N-[(E)-4-[4-(2,3-dichlorophenyl)-1-piperazinyl]but-2-enyl]-9H-fluorene-4-carboxamide

> <PUBCHEM_IUPAC_NAME_MARKUP>
<I>N</I>-[(<I>E</I>)-4-[4-(2,3-dichlorophenyl)piperazin-1-yl]but-2-enyl]-9<I>H</I>-fluorene-4-carboxamide

> <PUBCHEM_IUPAC_NAME>
N-[(E)-4-[4-(2,3-dichlorophenyl)piperazin-1-yl]but-2-enyl]-9H-fluorene-4-carboxamide

> <PUBCHEM_IUPAC_SYSTEMATIC_NAME>
N-[(E)-4-[4-[2,3-bis(chloranyl)phenyl]piperazin-1-yl]but-2-enyl]-9H-fluorene-4-carboxamide

> <PUBCHEM_IUPAC_TRADITIONAL_NAME>
N-[(E)-4-[4-(2,3-dichlorophenyl)piperazino]but-2-enyl]-9H-fluorene-4-carboxamide

> <PUBCHEM_IUPAC_INCHI>
InChI=1S/C28H27Cl2N3O/c29-24-11-6-12-25(27(24)30)33-17-15-32(16-18-33)14-4-3-13-31-28(34)23-10-5-8-21-19-20-7-1-2-9-22(20)26(21)23/h1-12H,13-19H2,(H,31,34)/b4-3+

> <PUBCHEM_IUPAC_INCHIKEY>
LFQZHAKGDXWDRR-ONEGZZNKSA-N

> <PUBCHEM_XLOGP3_AA>
6

> <PUBCHEM_EXACT_MASS>
491.1531179

> <PUBCHEM_MOLECULAR_FORMULA>
C28H27Cl2N3O

> <PUBCHEM_MOLECULAR_WEIGHT>
492.4

> <PUBCHEM_OPENEYE_CAN_SMILES>
C1CN(CCN1CC=CCNC(=O)C2=CC=CC3=C2C4=CC=CC=C4C3)C5=C(C(=CC=C5)Cl)Cl

> <PUBCHEM_OPENEYE_ISO_SMILES>
C1CN(CCN1C/C=C/CNC(=O)C2=CC=CC3=C2C4=CC=CC=C4C3)C5=C(C(=CC=C5)Cl)Cl

> <PUBCHEM_CACTVS_TPSA>
35.6

> <PUBCHEM_MONOISOTOPIC_WEIGHT>
491.1531179

> <PUBCHEM_TOTAL_CHARGE>
0

> <PUBCHEM_HEAVY_ATOM_COUNT>
34

> <PUBCHEM_ATOM_DEF_STEREO_COUNT>
0

> <PUBCHEM_ATOM_UDEF_STEREO_COUNT>
0

> <PUBCHEM_BOND_DEF_STEREO_COUNT>
1

> <PUBCHEM_BOND_UDEF_STEREO_COUNT>
0

> <PUBCHEM_ISOTOPIC_ATOM_COUNT>
0

> <PUBCHEM_COMPONENT_COUNT>
1

> <PUBCHEM_CACTVS_TAUTO_COUNT>
-1

> <PUBCHEM_COORDINATE_TYPE>
1
5
255

> <PUBCHEM_BONDANNOTATIONS>
12  20  8
12  21  8
13  15  8
13  19  8
15  22  8
16  17  8
16  23  8
17  24  8
19  26  8
20  30  8
21  31  8
22  29  8
23  32  8
24  33  8
26  29  8
30  34  8
31  34  8
32  33  8

$$$$
