62416153
  -OEChem-09292322082D

 31 33  0     0  0  0  0  0  0999 V2000
    5.9030   -2.0377    0.0000 S   0  0  0  0  0  0  0  0  0  0  0  0
    4.0908    0.7670    0.0000 N   0  0  0  0  0  0  0  0  0  0  0  0
    3.2247   -0.7330    0.0000 N   0  0  0  0  0  0  0  0  0  0  0  0
    4.0908   -2.2330    0.0000 N   0  0  0  0  0  0  0  0  0  0  0  0
    3.2247    1.2670    0.0000 C   0  0  0  0  0  0  0  0  0  0  0  0
    2.9659    2.2330    0.0000 C   0  0  0  0  0  0  0  0  0  0  0  0
    2.2588    1.0082    0.0000 C   0  0  0  0  0  0  0  0  0  0  0  0
    2.0000    1.9741    0.0000 C   0  0  0  0  0  0  0  0  0  0  0  0
    4.0908   -0.2330    0.0000 C   0  0  0  0  0  0  0  0  0  0  0  0
    4.9568   -0.7330    0.0000 C   0  0  0  0  0  0  0  0  0  0  0  0
    5.9030   -0.4282    0.0000 C   0  0  0  0  0  0  0  0  0  0  0  0
    4.9568   -1.7330    0.0000 C   0  0  0  0  0  0  0  0  0  0  0  0
    6.4866   -1.2330    0.0000 C   0  0  0  0  0  0  0  0  0  0  0  0
    6.2137    0.5223    0.0000 C   0  0  0  0  0  0  0  0  0  0  0  0
    3.2247   -1.7330    0.0000 C   0  0  0  0  0  0  0  0  0  0  0  0
    7.4866   -1.2330    0.0000 C   0  0  0  0  0  0  0  0  0  0  0  0
    3.1438    0.6523    0.0000 H   0  0  0  0  0  0  0  0  0  0  0  0
    3.5648    2.3934    0.0000 H   0  0  0  0  0  0  0  0  0  0  0  0
    2.8055    2.8318    0.0000 H   0  0  0  0  0  0  0  0  0  0  0  0
    1.6600    0.8478    0.0000 H   0  0  0  0  0  0  0  0  0  0  0  0
    2.4193    0.4093    0.0000 H   0  0  0  0  0  0  0  0  0  0  0  0
    1.8395    2.5730    0.0000 H   0  0  0  0  0  0  0  0  0  0  0  0
    1.4011    1.8137    0.0000 H   0  0  0  0  0  0  0  0  0  0  0  0
    4.6277    1.0770    0.0000 H   0  0  0  0  0  0  0  0  0  0  0  0
    6.8030    0.3297    0.0000 H   0  0  0  0  0  0  0  0  0  0  0  0
    6.4063    1.1116    0.0000 H   0  0  0  0  0  0  0  0  0  0  0  0
    5.6244    0.7149    0.0000 H   0  0  0  0  0  0  0  0  0  0  0  0
    2.6878   -2.0430    0.0000 H   0  0  0  0  0  0  0  0  0  0  0  0
    7.4866   -1.8530    0.0000 H   0  0  0  0  0  0  0  0  0  0  0  0
    8.1066   -1.2330    0.0000 H   0  0  0  0  0  0  0  0  0  0  0  0
    7.4866   -0.6130    0.0000 H   0  0  0  0  0  0  0  0  0  0  0  0
  1 12  1  0  0  0  0
  1 13  1  0  0  0  0
  2  5  1  0  0  0  0
  2  9  1  0  0  0  0
  2 24  1  0  0  0  0
  3  9  1  0  0  0  0
  3 15  2  0  0  0  0
  4 12  2  0  0  0  0
  4 15  1  0  0  0  0
  5  6  1  0  0  0  0
  5  7  1  0  0  0  0
  5 17  1  0  0  0  0
  6  8  1  0  0  0  0
  6 18  1  0  0  0  0
  6 19  1  0  0  0  0
  7  8  1  0  0  0  0
  7 20  1  0  0  0  0
  7 21  1  0  0  0  0
  8 22  1  0  0  0  0
  8 23  1  0  0  0  0
  9 10  2  0  0  0  0
 10 11  1  0  0  0  0
 10 12  1  0  0  0  0
 11 13  2  0  0  0  0
 11 14  1  0  0  0  0
 13 16  1  0  0  0  0
 14 25  1  0  0  0  0
 14 26  1  0  0  0  0
 14 27  1  0  0  0  0
 15 28  1  0  0  0  0
 16 29  1  0  0  0  0
 16 30  1  0  0  0  0
 16 31  1  0  0  0  0
M  END
> <PUBCHEM_COMPOUND_CID>
62416153

> <PUBCHEM_COMPOUND_CANONICALIZED>
1

> <PUBCHEM_CACTVS_COMPLEXITY>
257

> <PUBCHEM_CACTVS_HBOND_ACCEPTOR>
4

> <PUBCHEM_CACTVS_HBOND_DONOR>
1

> <PUBCHEM_CACTVS_ROTATABLE_BOND>
2

> <PUBCHEM_CACTVS_SUBSKEYS>
AAADccBzAABAAAAAAAAAAAAAAABgASAAAAAsAAAAAAAAAFgB+AAAHAQQAAAADCjBWgQHsdbIEAikAgJhZACD0KlxCLgB2LAoRJiIKCLg2NGEBAxokALoyCYQAAAOgAAAAAAAAAAAAAAAAAAAAAAAAAAAAA==

> <PUBCHEM_IUPAC_OPENEYE_NAME>
N-cyclobutyl-5,6-dimethyl-thieno[2,3-d]pyrimidin-4-amine

> <PUBCHEM_IUPAC_CAS_NAME>
N-cyclobutyl-5,6-dimethyl-4-thieno[2,3-d]pyrimidinamine

> <PUBCHEM_IUPAC_NAME_MARKUP>
<I>N</I>-cyclobutyl-5,6-dimethylthieno[2,3-d]pyrimidin-4-amine

> <PUBCHEM_IUPAC_NAME>
N-cyclobutyl-5,6-dimethylthieno[2,3-d]pyrimidin-4-amine

> <PUBCHEM_IUPAC_SYSTEMATIC_NAME>
N-cyclobutyl-5,6-dimethyl-thieno[2,3-d]pyrimidin-4-amine

> <PUBCHEM_IUPAC_TRADITIONAL_NAME>
cyclobutyl-(5,6-dimethylthieno[2,3-d]pyrimidin-4-yl)amine

> <PUBCHEM_IUPAC_INCHI>
InChI=1S/C12H15N3S/c1-7-8(2)16-12-10(7)11(13-6-14-12)15-9-4-3-5-9/h6,9H,3-5H2,1-2H3,(H,13,14,15)

> <PUBCHEM_IUPAC_INCHIKEY>
MMUSYIOWPGZLOX-UHFFFAOYSA-N

> <PUBCHEM_XLOGP3_AA>
3.5

> <PUBCHEM_EXACT_MASS>
233.09866866

> <PUBCHEM_MOLECULAR_FORMULA>
C12H15N3S

> <PUBCHEM_MOLECULAR_WEIGHT>
233.33

> <PUBCHEM_OPENEYE_CAN_SMILES>
CC1=C(SC2=NC=NC(=C12)NC3CCC3)C

> <PUBCHEM_OPENEYE_ISO_SMILES>
CC1=C(SC2=NC=NC(=C12)NC3CCC3)C

> <PUBCHEM_CACTVS_TPSA>
66

> <PUBCHEM_MONOISOTOPIC_WEIGHT>
233.09866866

> <PUBCHEM_TOTAL_CHARGE>
0

> <PUBCHEM_HEAVY_ATOM_COUNT>
16

> <PUBCHEM_ATOM_DEF_STEREO_COUNT>
0

> <PUBCHEM_ATOM_UDEF_STEREO_COUNT>
0

> <PUBCHEM_BOND_DEF_STEREO_COUNT>
0

> <PUBCHEM_BOND_UDEF_STEREO_COUNT>
0

> <PUBCHEM_ISOTOPIC_ATOM_COUNT>
0

> <PUBCHEM_COMPONENT_COUNT>
1

> <PUBCHEM_CACTVS_TAUTO_COUNT>
-1

> <PUBCHEM_COORDINATE_TYPE>
1
5
255

> <PUBCHEM_BONDANNOTATIONS>
1  12  8
1  13  8
10  11  8
10  12  8
11  13  8
3  15  8
3  9  8
4  12  8
4  15  8
9  10  8

$$$$
