9885122
  -OEChem-09292322082D

 44 46  0     1  0  0  0  0  0999 V2000
    8.0694    4.2611    0.0000 Cl  0  0  0  0  0  0  0  0  0  0  0  0
    3.9730    6.8700    0.0000 Cl  0  0  0  0  0  0  0  0  0  0  0  0
    4.4731    4.5190    0.0000 O   0  0  0  0  0  0  0  0  0  0  0  0
    5.0968    1.5846    0.0000 O   0  0  0  0  0  0  0  0  0  0  0  0
    0.8740    1.6492    0.0000 N   0  0  3  0  0  0  0  0  0  0  0  0
    3.9378    2.8718    0.0000 N   0  0  0  0  0  0  0  0  0  0  0  0
    8.4852    2.3048    0.0000 N   0  0  0  0  0  0  0  0  0  0  0  0
    2.1778    2.5930    0.0000 C   0  0  3  0  0  0  0  0  0  0  0  0
    1.3687    3.1808    0.0000 C   0  0  3  0  0  0  0  0  0  0  0  0
    2.6778    4.1318    0.0000 C   0  0  3  0  0  0  0  0  0  0  0  0
    2.9868    3.1808    0.0000 C   0  0  3  0  0  0  0  0  0  0  0  0
    1.6778    4.1318    0.0000 C   0  0  0  0  0  0  0  0  0  0  0  0
    1.8681    1.6484    0.0000 C   0  0  0  0  0  0  0  0  0  0  0  0
    0.5660    2.5944    0.0000 C   0  0  0  0  0  0  0  0  0  0  0  0
    1.0592    3.4112    0.0000 C   0  0  0  0  0  0  0  0  0  0  0  0
    4.6810    3.5409    0.0000 C   0  0  0  0  0  0  0  0  0  0  0  0
    5.6320    3.2319    0.0000 C   0  0  0  0  0  0  0  0  0  0  0  0
    5.8399    2.2537    0.0000 C   0  0  0  0  0  0  0  0  0  0  0  0
    6.3752    3.9010    0.0000 C   0  0  0  0  0  0  0  0  0  0  0  0
    6.7910    1.9447    0.0000 C   0  0  0  0  0  0  0  0  0  0  0  0
    7.3262    3.5920    0.0000 C   0  0  0  0  0  0  0  0  0  0  0  0
    7.5342    2.6138    0.0000 C   0  0  0  0  0  0  0  0  0  0  0  0
    5.3047    0.6065    0.0000 C   0  0  0  0  0  0  0  0  0  0  0  0
    2.6789    2.2279    0.0000 H   0  0  0  0  0  0  0  0  0  0  0  0
    0.8667    3.5446    0.0000 H   0  0  0  0  0  0  0  0  0  0  0  0
    3.0422    4.6334    0.0000 H   0  0  0  0  0  0  0  0  0  0  0  0
    3.0838    2.5684    0.0000 H   0  0  0  0  0  0  0  0  0  0  0  0
    1.7426    4.7484    0.0000 H   0  0  0  0  0  0  0  0  0  0  0  0
    1.0713    4.2607    0.0000 H   0  0  0  0  0  0  0  0  0  0  0  0
    1.8024    1.0319    0.0000 H   0  0  0  0  0  0  0  0  0  0  0  0
    2.4743    1.5182    0.0000 H   0  0  0  0  0  0  0  0  0  0  0  0
    0.2550    3.1307    0.0000 H   0  0  0  0  0  0  0  0  0  0  0  0
    0.0000    2.3414    0.0000 H   0  0  0  0  0  0  0  0  0  0  0  0
    0.9092    4.0128    0.0000 H   0  0  0  0  0  0  0  0  0  0  0  0
    0.4407    3.3680    0.0000 H   0  0  0  0  0  0  0  0  0  0  0  0
    4.0667    2.2653    0.0000 H   0  0  0  0  0  0  0  0  0  0  0  0
    6.2463    4.5075    0.0000 H   0  0  0  0  0  0  0  0  0  0  0  0
    6.9199    1.3383    0.0000 H   0  0  0  0  0  0  0  0  0  0  0  0
    4.6983    0.4775    0.0000 H   0  0  0  0  0  0  0  0  0  0  0  0
    5.4336    0.0000    0.0000 H   0  0  0  0  0  0  0  0  0  0  0  0
    5.9112    0.7354    0.0000 H   0  0  0  0  0  0  0  0  0  0  0  0
    8.6141    1.6984    0.0000 H   0  0  0  0  0  0  0  0  0  0  0  0
    8.9460    2.7197    0.0000 H   0  0  0  0  0  0  0  0  0  0  0  0
    4.9730    6.8700    0.0000 H   0  0  0  0  0  0  0  0  0  0  0  0
  1 21  1  0  0  0  0
  2 44  1  0  0  0  0
  3 16  2  0  0  0  0
  4 18  1  0  0  0  0
  4 23  1  0  0  0  0
  5 13  1  0  0  0  0
  5 14  1  0  0  0  0
  5 15  1  0  0  0  0
  6 11  1  0  0  0  0
  6 16  1  0  0  0  0
  6 36  1  0  0  0  0
  7 22  1  0  0  0  0
  7 42  1  0  0  0  0
  7 43  1  0  0  0  0
  8  9  1  0  0  0  0
  8 11  1  0  0  0  0
  8 13  1  0  0  0  0
  8 24  1  0  0  0  0
  9 12  1  0  0  0  0
  9 14  1  0  0  0  0
  9 25  1  0  0  0  0
 10 11  1  0  0  0  0
 10 12  1  0  0  0  0
 10 15  1  0  0  0  0
 10 26  1  0  0  0  0
 11 27  1  0  0  0  0
 12 28  1  0  0  0  0
 12 29  1  0  0  0  0
 13 30  1  0  0  0  0
 13 31  1  0  0  0  0
 14 32  1  0  0  0  0
 14 33  1  0  0  0  0
 15 34  1  0  0  0  0
 15 35  1  0  0  0  0
 16 17  1  0  0  0  0
 17 18  1  0  0  0  0
 17 19  2  0  0  0  0
 18 20  2  0  0  0  0
 19 21  1  0  0  0  0
 19 37  1  0  0  0  0
 20 22  1  0  0  0  0
 20 38  1  0  0  0  0
 21 22  2  0  0  0  0
 23 39  1  0  0  0  0
 23 40  1  0  0  0  0
 23 41  1  0  0  0  0
M  END
> <PUBCHEM_COMPOUND_CID>
9885122

> <PUBCHEM_COMPOUND_CANONICALIZED>
1

> <PUBCHEM_CACTVS_COMPLEXITY>
463

> <PUBCHEM_CACTVS_HBOND_ACCEPTOR>
4

> <PUBCHEM_CACTVS_HBOND_DONOR>
3

> <PUBCHEM_CACTVS_ROTATABLE_BOND>
3

> <PUBCHEM_CACTVS_SUBSKEYS>
AAADceB7MAAGAAAAAAAAAAAAAAAAAeIAAAA8WIAAAAAAAAABAAAAHgIQAAAADS7BmCYyxoPABACIAiVSUACCCAAkJwAAiIEObsgMJjaF9puEMWhm9hmI6YeY2SGeiCAAIgAIABAQQABEABAAISAACQAAAA==

> <PUBCHEM_IUPAC_OPENEYE_NAME>
4-amino-N-(1-azatricyclo[3.3.1.03,7]nonan-4-yl)-5-chloro-2-methoxy-benzamide;hydrochloride

> <PUBCHEM_IUPAC_CAS_NAME>
4-amino-N-(1-azatricyclo[3.3.1.03,7]nonan-4-yl)-5-chloro-2-methoxybenzamide;hydrochloride

> <PUBCHEM_IUPAC_NAME_MARKUP>
4-amino-<I>N</I>-(1-azatricyclo[3.3.1.0<SUP>3,7</SUP>]nonan-4-yl)-5-chloro-2-methoxybenzamide;hydrochloride

> <PUBCHEM_IUPAC_NAME>
4-amino-N-(1-azatricyclo[3.3.1.03,7]nonan-4-yl)-5-chloro-2-methoxybenzamide;hydrochloride

> <PUBCHEM_IUPAC_SYSTEMATIC_NAME>
4-azanyl-N-(1-azatricyclo[3.3.1.03,7]nonan-4-yl)-5-chloranyl-2-methoxy-benzamide;hydrochloride

> <PUBCHEM_IUPAC_TRADITIONAL_NAME>
4-amino-N-(1-azatricyclo[3.3.1.03,7]nonan-4-yl)-5-chloro-2-methoxy-benzamide;hydrochloride

> <PUBCHEM_IUPAC_INCHI>
InChI=1S/C16H20ClN3O2.ClH/c1-22-14-4-13(18)12(17)3-10(14)16(21)19-15-9-2-8-5-20(6-9)7-11(8)15;/h3-4,8-9,11,15H,2,5-7,18H2,1H3,(H,19,21);1H

> <PUBCHEM_IUPAC_INCHIKEY>
DHGXYMAJZPNYQQ-UHFFFAOYSA-N

> <PUBCHEM_EXACT_MASS>
357.1010823

> <PUBCHEM_MOLECULAR_FORMULA>
C16H21Cl2N3O2

> <PUBCHEM_MOLECULAR_WEIGHT>
358.3

> <PUBCHEM_OPENEYE_CAN_SMILES>
COC1=CC(=C(C=C1C(=O)NC2C3CC4C2CN(C4)C3)Cl)N.Cl

> <PUBCHEM_OPENEYE_ISO_SMILES>
COC1=CC(=C(C=C1C(=O)NC2C3CC4C2CN(C4)C3)Cl)N.Cl

> <PUBCHEM_CACTVS_TPSA>
67.6

> <PUBCHEM_MONOISOTOPIC_WEIGHT>
357.1010823

> <PUBCHEM_TOTAL_CHARGE>
0

> <PUBCHEM_HEAVY_ATOM_COUNT>
23

> <PUBCHEM_ATOM_DEF_STEREO_COUNT>
0

> <PUBCHEM_ATOM_UDEF_STEREO_COUNT>
4

> <PUBCHEM_BOND_DEF_STEREO_COUNT>
0

> <PUBCHEM_BOND_UDEF_STEREO_COUNT>
0

> <PUBCHEM_ISOTOPIC_ATOM_COUNT>
0

> <PUBCHEM_COMPONENT_COUNT>
2

> <PUBCHEM_CACTVS_TAUTO_COUNT>
-1

> <PUBCHEM_COORDINATE_TYPE>
1
5
255

> <PUBCHEM_BONDANNOTATIONS>
10  12  3
17  18  8
17  19  8
18  20  8
19  21  8
20  22  8
21  22  8
11  6  3
8  13  3
9  12  3

$$$$
