11500677
  -OEChem-09292322272D

 44 46  0     1  0  0  0  0  0999 V2000
    2.9059   -2.7830    0.0000 O   0  0  0  0  0  0  0  0  0  0  0  0
    3.7841    2.7863    0.0000 N   0  0  3  0  0  0  0  0  0  0  0  0
    3.7841    1.7863    0.0000 C   0  0  0  0  0  0  0  0  0  0  0  0
    4.6501    3.2863    0.0000 C   0  0  0  0  0  0  0  0  0  0  0  0
    2.9180    1.2863    0.0000 C   0  0  0  0  0  0  0  0  0  0  0  0
    5.5161    2.7863    0.0000 C   0  0  0  0  0  0  0  0  0  0  0  0
    2.9180    0.2863    0.0000 C   0  0  0  0  0  0  0  0  0  0  0  0
    4.6501    0.2863    0.0000 C   0  0  0  0  0  0  0  0  0  0  0  0
    3.7841   -0.2137    0.0000 C   0  0  0  0  0  0  0  0  0  0  0  0
    5.5161    1.7863    0.0000 C   0  0  0  0  0  0  0  0  0  0  0  0
    4.6501    1.2863    0.0000 C   0  0  0  0  0  0  0  0  0  0  0  0
    2.9180    3.2863    0.0000 C   0  0  0  0  0  0  0  0  0  0  0  0
    2.0080   -0.2206    0.0000 C   0  0  0  0  0  0  0  0  0  0  0  0
    3.8001   -1.2552    0.0000 C   0  0  0  0  0  0  0  0  0  0  0  0
    6.9274    1.2092    0.0000 C   0  0  0  0  0  0  0  0  0  0  0  0
    4.4442   -0.2245    0.0000 C   0  0  0  0  0  0  0  0  0  0  0  0
    2.9021   -1.7830    0.0000 C   0  0  0  0  0  0  0  0  0  0  0  0
    2.0000   -1.2622    0.0000 C   0  0  0  0  0  0  0  0  0  0  0  0
    7.0306   -0.3121    0.0000 C   0  0  0  0  0  0  0  0  0  0  0  0
    5.7101   -1.0745    0.0000 C   0  0  0  0  0  0  0  0  0  0  0  0
    2.0418   -3.2863    0.0000 C   0  0  0  0  0  0  0  0  0  0  0  0
    3.9961    1.2037    0.0000 H   0  0  0  0  0  0  0  0  0  0  0  0
    4.3946    1.8940    0.0000 H   0  0  0  0  0  0  0  0  0  0  0  0
    2.7060    1.8689    0.0000 H   0  0  0  0  0  0  0  0  0  0  0  0
    2.3074    1.1786    0.0000 H   0  0  0  0  0  0  0  0  0  0  0  0
    5.0486    3.7612    0.0000 H   0  0  0  0  0  0  0  0  0  0  0  0
    4.2516    3.7612    0.0000 H   0  0  0  0  0  0  0  0  0  0  0  0
    6.1267    2.6786    0.0000 H   0  0  0  0  0  0  0  0  0  0  0  0
    5.7282    3.3689    0.0000 H   0  0  0  0  0  0  0  0  0  0  0  0
    4.8621   -0.2963    0.0000 H   0  0  0  0  0  0  0  0  0  0  0  0
    5.2607    0.3940    0.0000 H   0  0  0  0  0  0  0  0  0  0  0  0
    3.2280    3.8232    0.0000 H   0  0  0  0  0  0  0  0  0  0  0  0
    2.3811    3.5963    0.0000 H   0  0  0  0  0  0  0  0  0  0  0  0
    2.6080    2.7494    0.0000 H   0  0  0  0  0  0  0  0  0  0  0  0
    1.4747    0.0956    0.0000 H   0  0  0  0  0  0  0  0  0  0  0  0
    4.3406   -1.5590    0.0000 H   0  0  0  0  0  0  0  0  0  0  0  0
    7.4302    1.5720    0.0000 H   0  0  0  0  0  0  0  0  0  0  0  0
    3.8786   -0.4785    0.0000 H   0  0  0  0  0  0  0  0  0  0  0  0
    1.4619   -1.5701    0.0000 H   0  0  0  0  0  0  0  0  0  0  0  0
    7.5777   -0.6037    0.0000 H   0  0  0  0  0  0  0  0  0  0  0  0
    5.6891   -1.6941    0.0000 H   0  0  0  0  0  0  0  0  0  0  0  0
    1.7298   -2.7506    0.0000 H   0  0  0  0  0  0  0  0  0  0  0  0
    1.5061   -3.5984    0.0000 H   0  0  0  0  0  0  0  0  0  0  0  0
    2.3539   -3.8220    0.0000 H   0  0  0  0  0  0  0  0  0  0  0  0
  1 17  1  0  0  0  0
  1 21  1  0  0  0  0
  2  3  1  0  0  0  0
  2  4  1  0  0  0  0
  2 12  1  0  0  0  0
  3  5  1  0  0  0  0
  3 22  1  0  0  0  0
  3 23  1  0  0  0  0
  4  6  1  0  0  0  0
  4 26  1  0  0  0  0
  4 27  1  0  0  0  0
  5  7  1  0  0  0  0
  5 24  1  0  0  0  0
  5 25  1  0  0  0  0
  6 10  1  0  0  0  0
  6 28  1  0  0  0  0
  6 29  1  0  0  0  0
  7  9  2  0  0  0  0
  7 13  1  0  0  0  0
  8  9  1  0  0  0  0
  8 11  1  0  0  0  0
  8 30  1  0  0  0  0
  8 31  1  0  0  0  0
  9 14  1  0  0  0  0
 10 11  1  0  0  0  0
 10 15  2  0  0  0  0
 11 16  2  0  0  0  0
 12 32  1  0  0  0  0
 12 33  1  0  0  0  0
 12 34  1  0  0  0  0
 13 18  2  0  0  0  0
 13 35  1  0  0  0  0
 14 17  2  0  0  0  0
 14 36  1  0  0  0  0
 15 19  1  0  0  0  0
 15 37  1  0  0  0  0
 16 20  1  0  0  0  0
 16 38  1  0  0  0  0
 17 18  1  0  0  0  0
 18 39  1  0  0  0  0
 19 20  2  0  0  0  0
 19 40  1  0  0  0  0
 20 41  1  0  0  0  0
 21 42  1  0  0  0  0
 21 43  1  0  0  0  0
 21 44  1  0  0  0  0
M  END
> <PUBCHEM_COMPOUND_CID>
11500677

> <PUBCHEM_COMPOUND_CANONICALIZED>
1

> <PUBCHEM_CACTVS_COMPLEXITY>
319

> <PUBCHEM_CACTVS_HBOND_ACCEPTOR>
2

> <PUBCHEM_CACTVS_HBOND_DONOR>
0

> <PUBCHEM_CACTVS_ROTATABLE_BOND>
1

> <PUBCHEM_CACTVS_SUBSKEYS>
AAADceB6IAAAAAAAAAAAAAAAAAAAAAAAAAAwYAAAAAAAAACxQAAAHgAAAAAADATBmAYyBoMABACAAiBCAAACCAAgIAAIiAAOCIgMJiKEsRuEMCAkwBGIqAeQwPAOoAABAAAQAABAAAIAACAAAAAAAAAAAA==

> <PUBCHEM_IUPAC_OPENEYE_NAME>
5-methoxy-11-methyl-11-azatricyclo[12.4.0.03,8]octadeca-1(18),3(8),4,6,14,16-hexaene

> <PUBCHEM_IUPAC_CAS_NAME>
5-methoxy-11-methyl-11-azatricyclo[12.4.0.03,8]octadeca-1(18),3(8),4,6,14,16-hexaene

> <PUBCHEM_IUPAC_NAME_MARKUP>
5-methoxy-11-methyl-11-azatricyclo[12.4.0.0<SUP>3,8</SUP>]octadeca-1(18),3(8),4,6,14,16-hexaene

> <PUBCHEM_IUPAC_NAME>
5-methoxy-11-methyl-11-azatricyclo[12.4.0.03,8]octadeca-1(18),3(8),4,6,14,16-hexaene

> <PUBCHEM_IUPAC_SYSTEMATIC_NAME>
5-methoxy-11-methyl-11-azatricyclo[12.4.0.03,8]octadeca-1(18),3(8),4,6,14,16-hexaene

> <PUBCHEM_IUPAC_TRADITIONAL_NAME>
5-methoxy-11-methyl-11-azatricyclo[12.4.0.03,8]octadeca-1(18),3(8),4,6,14,16-hexaene

> <PUBCHEM_IUPAC_INCHI>
InChI=1S/C19H23NO/c1-20-11-9-15-5-3-4-6-17(15)13-18-14-19(21-2)8-7-16(18)10-12-20/h3-8,14H,9-13H2,1-2H3

> <PUBCHEM_IUPAC_INCHIKEY>
PXWQDDTVMQMYJG-UHFFFAOYSA-N

> <PUBCHEM_XLOGP3_AA>
4.1

> <PUBCHEM_EXACT_MASS>
281.177964357

> <PUBCHEM_MOLECULAR_FORMULA>
C19H23NO

> <PUBCHEM_MOLECULAR_WEIGHT>
281.4

> <PUBCHEM_OPENEYE_CAN_SMILES>
CN1CCC2=C(CC3=CC=CC=C3CC1)C=C(C=C2)OC

> <PUBCHEM_OPENEYE_ISO_SMILES>
CN1CCC2=C(CC3=CC=CC=C3CC1)C=C(C=C2)OC

> <PUBCHEM_CACTVS_TPSA>
12.5

> <PUBCHEM_MONOISOTOPIC_WEIGHT>
281.177964357

> <PUBCHEM_TOTAL_CHARGE>
0

> <PUBCHEM_HEAVY_ATOM_COUNT>
21

> <PUBCHEM_ATOM_DEF_STEREO_COUNT>
0

> <PUBCHEM_ATOM_UDEF_STEREO_COUNT>
0

> <PUBCHEM_BOND_DEF_STEREO_COUNT>
0

> <PUBCHEM_BOND_UDEF_STEREO_COUNT>
0

> <PUBCHEM_ISOTOPIC_ATOM_COUNT>
0

> <PUBCHEM_COMPONENT_COUNT>
1

> <PUBCHEM_CACTVS_TAUTO_COUNT>
-1

> <PUBCHEM_COORDINATE_TYPE>
1
5
255

> <PUBCHEM_BONDANNOTATIONS>
10  11  8
10  15  8
11  16  8
13  18  8
14  17  8
15  19  8
16  20  8
17  18  8
19  20  8
7  13  8
7  9  8
9  14  8

$$$$
