71450697
  -OEChem-09292322332D

 42 44  0     0  0  0  0  0  0999 V2000
    2.8660   -1.2673    0.0000 N   0  0  0  0  0  0  0  0  0  0  0  0
    2.8660    0.7327    0.0000 C   0  0  0  0  0  0  0  0  0  0  0  0
    3.7320    0.2327    0.0000 C   0  0  0  0  0  0  0  0  0  0  0  0
    2.0000    0.2327    0.0000 C   0  0  0  0  0  0  0  0  0  0  0  0
    3.7320   -0.7673    0.0000 C   0  0  0  0  0  0  0  0  0  0  0  0
    2.0000   -0.7673    0.0000 C   0  0  0  0  0  0  0  0  0  0  0  0
    2.8660    1.7327    0.0000 C   0  0  0  0  0  0  0  0  0  0  0  0
    2.8660   -2.2673    0.0000 C   0  0  0  0  0  0  0  0  0  0  0  0
    3.7320    2.2327    0.0000 C   0  0  0  0  0  0  0  0  0  0  0  0
    2.0000   -2.7673    0.0000 C   0  0  0  0  0  0  0  0  0  0  0  0
    2.0000    2.2327    0.0000 C   0  0  0  0  0  0  0  0  0  0  0  0
    3.7320    3.2327    0.0000 C   0  0  0  0  0  0  0  0  0  0  0  0
    2.0000    3.2327    0.0000 C   0  0  0  0  0  0  0  0  0  0  0  0
    4.6260    1.6980    0.0000 C   0  0  0  0  0  0  0  0  0  0  0  0
    2.8660    3.7327    0.0000 C   0  0  0  0  0  0  0  0  0  0  0  0
    2.0000   -3.7673    0.0000 C   0  0  0  0  0  0  0  0  0  0  0  0
    4.6260    3.7673    0.0000 C   0  0  0  0  0  0  0  0  0  0  0  0
    5.5321    2.2118    0.0000 C   0  0  0  0  0  0  0  0  0  0  0  0
    5.5321    3.2535    0.0000 C   0  0  0  0  0  0  0  0  0  0  0  0
    3.4030    1.0427    0.0000 H   0  0  0  0  0  0  0  0  0  0  0  0
    4.3426    0.1250    0.0000 H   0  0  0  0  0  0  0  0  0  0  0  0
    3.9441    0.8153    0.0000 H   0  0  0  0  0  0  0  0  0  0  0  0
    1.7880    0.8153    0.0000 H   0  0  0  0  0  0  0  0  0  0  0  0
    1.3894    0.1250    0.0000 H   0  0  0  0  0  0  0  0  0  0  0  0
    3.9441   -1.3499    0.0000 H   0  0  0  0  0  0  0  0  0  0  0  0
    4.3426   -0.6597    0.0000 H   0  0  0  0  0  0  0  0  0  0  0  0
    1.3894   -0.6597    0.0000 H   0  0  0  0  0  0  0  0  0  0  0  0
    1.7880   -1.3499    0.0000 H   0  0  0  0  0  0  0  0  0  0  0  0
    3.0781   -2.8499    0.0000 H   0  0  0  0  0  0  0  0  0  0  0  0
    3.4766   -2.1597    0.0000 H   0  0  0  0  0  0  0  0  0  0  0  0
    1.7880   -2.1847    0.0000 H   0  0  0  0  0  0  0  0  0  0  0  0
    1.3894   -2.8750    0.0000 H   0  0  0  0  0  0  0  0  0  0  0  0
    1.4631    1.9227    0.0000 H   0  0  0  0  0  0  0  0  0  0  0  0
    1.4631    3.5427    0.0000 H   0  0  0  0  0  0  0  0  0  0  0  0
    4.6188    1.0780    0.0000 H   0  0  0  0  0  0  0  0  0  0  0  0
    2.8660    4.3527    0.0000 H   0  0  0  0  0  0  0  0  0  0  0  0
    1.3800   -3.7673    0.0000 H   0  0  0  0  0  0  0  0  0  0  0  0
    2.0000   -4.3873    0.0000 H   0  0  0  0  0  0  0  0  0  0  0  0
    2.6200   -3.7673    0.0000 H   0  0  0  0  0  0  0  0  0  0  0  0
    4.6188    4.3873    0.0000 H   0  0  0  0  0  0  0  0  0  0  0  0
    6.0678    1.8998    0.0000 H   0  0  0  0  0  0  0  0  0  0  0  0
    6.0678    3.5656    0.0000 H   0  0  0  0  0  0  0  0  0  0  0  0
  1  5  1  0  0  0  0
  1  6  1  0  0  0  0
  1  8  1  0  0  0  0
  2  3  1  0  0  0  0
  2  4  1  0  0  0  0
  2  7  1  0  0  0  0
  2 20  1  0  0  0  0
  3  5  1  0  0  0  0
  3 21  1  0  0  0  0
  3 22  1  0  0  0  0
  4  6  1  0  0  0  0
  4 23  1  0  0  0  0
  4 24  1  0  0  0  0
  5 25  1  0  0  0  0
  5 26  1  0  0  0  0
  6 27  1  0  0  0  0
  6 28  1  0  0  0  0
  7  9  1  0  0  0  0
  7 11  2  0  0  0  0
  8 10  1  0  0  0  0
  8 29  1  0  0  0  0
  8 30  1  0  0  0  0
  9 12  1  0  0  0  0
  9 14  2  0  0  0  0
 10 16  1  0  0  0  0
 10 31  1  0  0  0  0
 10 32  1  0  0  0  0
 11 13  1  0  0  0  0
 11 33  1  0  0  0  0
 12 15  1  0  0  0  0
 12 17  2  0  0  0  0
 13 15  2  0  0  0  0
 13 34  1  0  0  0  0
 14 18  1  0  0  0  0
 14 35  1  0  0  0  0
 15 36  1  0  0  0  0
 16 37  1  0  0  0  0
 16 38  1  0  0  0  0
 16 39  1  0  0  0  0
 17 19  1  0  0  0  0
 17 40  1  0  0  0  0
 18 19  2  0  0  0  0
 18 41  1  0  0  0  0
 19 42  1  0  0  0  0
M  END
> <PUBCHEM_COMPOUND_CID>
71450697

> <PUBCHEM_COMPOUND_CANONICALIZED>
1

> <PUBCHEM_CACTVS_COMPLEXITY>
267

> <PUBCHEM_CACTVS_HBOND_ACCEPTOR>
1

> <PUBCHEM_CACTVS_HBOND_DONOR>
0

> <PUBCHEM_CACTVS_ROTATABLE_BOND>
3

> <PUBCHEM_CACTVS_SUBSKEYS>
AAADceB6AAAAAAAAAAAAAAAAAAAAAAAAAAA8YIAAAAAAAADBUAAAHAAAAAAADQDBGAQyAMMAAACAAiBCAAACAAAgAAAIiAAIAIgIICKAkRCEIAAggACIiAcQgMAOgAACAAAQAAAAAAQAACAAAAAAAAAAAA==

> <PUBCHEM_IUPAC_OPENEYE_NAME>
4-(1-naphthyl)-1-propyl-piperidine

> <PUBCHEM_IUPAC_CAS_NAME>
4-(1-naphthalenyl)-1-propylpiperidine

> <PUBCHEM_IUPAC_NAME_MARKUP>
4-naphthalen-1-yl-1-propylpiperidine

> <PUBCHEM_IUPAC_NAME>
4-naphthalen-1-yl-1-propylpiperidine

> <PUBCHEM_IUPAC_SYSTEMATIC_NAME>
4-naphthalen-1-yl-1-propyl-piperidine

> <PUBCHEM_IUPAC_TRADITIONAL_NAME>
4-(1-naphthyl)-1-propyl-piperidine

> <PUBCHEM_IUPAC_INCHI>
InChI=1S/C18H23N/c1-2-12-19-13-10-16(11-14-19)18-9-5-7-15-6-3-4-8-17(15)18/h3-9,16H,2,10-14H2,1H3

> <PUBCHEM_IUPAC_INCHIKEY>
ZEXVYCCERKFSCL-UHFFFAOYSA-N

> <PUBCHEM_XLOGP3_AA>
4.6

> <PUBCHEM_EXACT_MASS>
253.183049738

> <PUBCHEM_MOLECULAR_FORMULA>
C18H23N

> <PUBCHEM_MOLECULAR_WEIGHT>
253.4

> <PUBCHEM_OPENEYE_CAN_SMILES>
CCCN1CCC(CC1)C2=CC=CC3=CC=CC=C32

> <PUBCHEM_OPENEYE_ISO_SMILES>
CCCN1CCC(CC1)C2=CC=CC3=CC=CC=C32

> <PUBCHEM_CACTVS_TPSA>
3.2

> <PUBCHEM_MONOISOTOPIC_WEIGHT>
253.183049738

> <PUBCHEM_TOTAL_CHARGE>
0

> <PUBCHEM_HEAVY_ATOM_COUNT>
19

> <PUBCHEM_ATOM_DEF_STEREO_COUNT>
0

> <PUBCHEM_ATOM_UDEF_STEREO_COUNT>
0

> <PUBCHEM_BOND_DEF_STEREO_COUNT>
0

> <PUBCHEM_BOND_UDEF_STEREO_COUNT>
0

> <PUBCHEM_ISOTOPIC_ATOM_COUNT>
0

> <PUBCHEM_COMPONENT_COUNT>
1

> <PUBCHEM_CACTVS_TAUTO_COUNT>
-1

> <PUBCHEM_COORDINATE_TYPE>
1
5
255

> <PUBCHEM_BONDANNOTATIONS>
11  13  8
12  15  8
12  17  8
13  15  8
14  18  8
17  19  8
18  19  8
7  11  8
7  9  8
9  12  8
9  14  8

$$$$
