44441222
  -OEChem-09292322262D

 50 53  0     1  0  0  0  0  0999 V2000
    2.0000   -1.5000    0.0000 F   0  0  0  0  0  0  0  0  0  0  0  0
   12.4725   -1.3047    0.0000 O   0  0  0  0  0  0  0  0  0  0  0  0
    5.4641    1.5000    0.0000 O   0  0  0  0  0  0  0  0  0  0  0  0
   10.6603    1.5000    0.0000 O   0  0  0  0  0  0  0  0  0  0  0  0
    8.0622   -1.0000    0.0000 N   0  0  0  0  0  0  0  0  0  0  0  0
   13.0561   -0.5000    0.0000 N   0  0  0  0  0  0  0  0  0  0  0  0
    9.7942   -1.0000    0.0000 C   0  0  3  0  0  0  0  0  0  0  0  0
    8.9282   -1.5000    0.0000 C   0  0  0  0  0  0  0  0  0  0  0  0
    6.3301   -0.0000    0.0000 C   0  0  0  0  0  0  0  0  0  0  0  0
    7.1962   -1.5000    0.0000 C   0  0  0  0  0  0  0  0  0  0  0  0
    8.0622   -0.0000    0.0000 C   0  0  0  0  0  0  0  0  0  0  0  0
    6.3301   -1.0000    0.0000 C   0  0  0  0  0  0  0  0  0  0  0  0
    7.1962    0.5000    0.0000 C   0  0  0  0  0  0  0  0  0  0  0  0
   10.6603   -1.5000    0.0000 C   0  0  0  0  0  0  0  0  0  0  0  0
    9.7942    0.0000    0.0000 C   0  0  0  0  0  0  0  0  0  0  0  0
   11.5263   -1.0000    0.0000 C   0  0  0  0  0  0  0  0  0  0  0  0
    5.4641    0.5000    0.0000 C   0  0  0  0  0  0  0  0  0  0  0  0
   10.6603    0.5000    0.0000 C   0  0  0  0  0  0  0  0  0  0  0  0
   11.5263    0.0000    0.0000 C   0  0  0  0  0  0  0  0  0  0  0  0
   12.4725    0.3047    0.0000 C   0  0  0  0  0  0  0  0  0  0  0  0
    4.5981    0.0000    0.0000 C   0  0  0  0  0  0  0  0  0  0  0  0
   12.7832    1.2552    0.0000 C   0  0  0  0  0  0  0  0  0  0  0  0
    4.5981   -1.0000    0.0000 C   0  0  0  0  0  0  0  0  0  0  0  0
    3.7320    0.5000    0.0000 C   0  0  0  0  0  0  0  0  0  0  0  0
    3.7320   -1.5000    0.0000 C   0  0  0  0  0  0  0  0  0  0  0  0
    2.8660    0.0000    0.0000 C   0  0  0  0  0  0  0  0  0  0  0  0
    2.8660   -1.0000    0.0000 C   0  0  0  0  0  0  0  0  0  0  0  0
    9.2573   -0.6900    0.0000 H   0  0  0  0  0  0  0  0  0  0  0  0
    8.5297   -1.9750    0.0000 H   0  0  0  0  0  0  0  0  0  0  0  0
    9.3267   -1.9750    0.0000 H   0  0  0  0  0  0  0  0  0  0  0  0
    5.7932   -0.3100    0.0000 H   0  0  0  0  0  0  0  0  0  0  0  0
    6.7976   -1.9750    0.0000 H   0  0  0  0  0  0  0  0  0  0  0  0
    7.5947   -1.9750    0.0000 H   0  0  0  0  0  0  0  0  0  0  0  0
    8.6728   -0.1077    0.0000 H   0  0  0  0  0  0  0  0  0  0  0  0
    8.2742    0.5826    0.0000 H   0  0  0  0  0  0  0  0  0  0  0  0
    5.7196   -0.8923    0.0000 H   0  0  0  0  0  0  0  0  0  0  0  0
    6.1181   -1.5826    0.0000 H   0  0  0  0  0  0  0  0  0  0  0  0
    7.5947    0.9749    0.0000 H   0  0  0  0  0  0  0  0  0  0  0  0
    6.7976    0.9749    0.0000 H   0  0  0  0  0  0  0  0  0  0  0  0
   10.2617   -1.9750    0.0000 H   0  0  0  0  0  0  0  0  0  0  0  0
   11.0588   -1.9750    0.0000 H   0  0  0  0  0  0  0  0  0  0  0  0
    9.5822    0.5826    0.0000 H   0  0  0  0  0  0  0  0  0  0  0  0
    9.1836   -0.1077    0.0000 H   0  0  0  0  0  0  0  0  0  0  0  0
   13.3725    1.0626    0.0000 H   0  0  0  0  0  0  0  0  0  0  0  0
   12.9758    1.8446    0.0000 H   0  0  0  0  0  0  0  0  0  0  0  0
   12.1938    1.4479    0.0000 H   0  0  0  0  0  0  0  0  0  0  0  0
    5.1350   -1.3100    0.0000 H   0  0  0  0  0  0  0  0  0  0  0  0
    3.7320    1.1200    0.0000 H   0  0  0  0  0  0  0  0  0  0  0  0
    3.7320   -2.1200    0.0000 H   0  0  0  0  0  0  0  0  0  0  0  0
    2.3291    0.3100    0.0000 H   0  0  0  0  0  0  0  0  0  0  0  0
  1 27  1  0  0  0  0
  2  6  1  0  0  0  0
  2 16  1  0  0  0  0
  3 17  2  0  0  0  0
  4 18  2  0  0  0  0
  5  8  1  0  0  0  0
  5 10  1  0  0  0  0
  5 11  1  0  0  0  0
  6 20  2  0  0  0  0
  7  8  1  0  0  0  0
  7 14  1  0  0  0  0
  7 15  1  0  0  0  0
  7 28  1  0  0  0  0
  8 29  1  0  0  0  0
  8 30  1  0  0  0  0
  9 12  1  0  0  0  0
  9 13  1  0  0  0  0
  9 17  1  0  0  0  0
  9 31  1  0  0  0  0
 10 12  1  0  0  0  0
 10 32  1  0  0  0  0
 10 33  1  0  0  0  0
 11 13  1  0  0  0  0
 11 34  1  0  0  0  0
 11 35  1  0  0  0  0
 12 36  1  0  0  0  0
 12 37  1  0  0  0  0
 13 38  1  0  0  0  0
 13 39  1  0  0  0  0
 14 16  1  0  0  0  0
 14 40  1  0  0  0  0
 14 41  1  0  0  0  0
 15 18  1  0  0  0  0
 15 42  1  0  0  0  0
 15 43  1  0  0  0  0
 16 19  2  0  0  0  0
 17 21  1  0  0  0  0
 18 19  1  0  0  0  0
 19 20  1  0  0  0  0
 20 22  1  0  0  0  0
 21 23  2  0  0  0  0
 21 24  1  0  0  0  0
 22 44  1  0  0  0  0
 22 45  1  0  0  0  0
 22 46  1  0  0  0  0
 23 25  1  0  0  0  0
 23 47  1  0  0  0  0
 24 26  2  0  0  0  0
 24 48  1  0  0  0  0
 25 27  2  0  0  0  0
 25 49  1  0  0  0  0
 26 27  1  0  0  0  0
 26 50  1  0  0  0  0
M  END
> <PUBCHEM_COMPOUND_CID>
44441222

> <PUBCHEM_COMPOUND_CANONICALIZED>
1

> <PUBCHEM_CACTVS_COMPLEXITY>
556

> <PUBCHEM_CACTVS_HBOND_ACCEPTOR>
6

> <PUBCHEM_CACTVS_HBOND_DONOR>
0

> <PUBCHEM_CACTVS_ROTATABLE_BOND>
4

> <PUBCHEM_CACTVS_SUBSKEYS>
AAADceB7MQAAAAAAAAAAAAAAAAAAAWAAAAA8YIAAAAAAAFgBwAAAHwAEAAAADQzBngwyhJMQAACpA6RyQgCCAAAkIAAomCE8TNoIJj6IlZKEMcBmoBiIyce8zvDuAAAAAAAAAACAAAIAABAAAAAAAAAAAA==

> <PUBCHEM_IUPAC_OPENEYE_NAME>
6-[[4-(4-fluorobenzoyl)-1-piperidyl]methyl]-3-methyl-6,7-dihydro-5H-1,2-benzoxazol-4-one

> <PUBCHEM_IUPAC_CAS_NAME>
6-[[4-[(4-fluorophenyl)-oxomethyl]-1-piperidinyl]methyl]-3-methyl-6,7-dihydro-5H-1,2-benzoxazol-4-one

> <PUBCHEM_IUPAC_NAME_MARKUP>
6-[[4-(4-fluorobenzoyl)piperidin-1-yl]methyl]-3-methyl-6,7-dihydro-5<I>H</I>-1,2-benzoxazol-4-one

> <PUBCHEM_IUPAC_NAME>
6-[[4-(4-fluorobenzoyl)piperidin-1-yl]methyl]-3-methyl-6,7-dihydro-5H-1,2-benzoxazol-4-one

> <PUBCHEM_IUPAC_SYSTEMATIC_NAME>
6-[[4-(4-fluorophenyl)carbonylpiperidin-1-yl]methyl]-3-methyl-6,7-dihydro-5H-1,2-benzoxazol-4-one

> <PUBCHEM_IUPAC_TRADITIONAL_NAME>
6-[[4-(4-fluorobenzoyl)piperidino]methyl]-3-methyl-6,7-dihydro-5H-indoxazen-4-one

> <PUBCHEM_IUPAC_INCHI>
InChI=1S/C21H23FN2O3/c1-13-20-18(25)10-14(11-19(20)27-23-13)12-24-8-6-16(7-9-24)21(26)15-2-4-17(22)5-3-15/h2-5,14,16H,6-12H2,1H3

> <PUBCHEM_IUPAC_INCHIKEY>
NRQAJDJJLLMSNA-UHFFFAOYSA-N

> <PUBCHEM_XLOGP3_AA>
2.8

> <PUBCHEM_EXACT_MASS>
370.16927076

> <PUBCHEM_MOLECULAR_FORMULA>
C21H23FN2O3

> <PUBCHEM_MOLECULAR_WEIGHT>
370.4

> <PUBCHEM_OPENEYE_CAN_SMILES>
CC1=NOC2=C1C(=O)CC(C2)CN3CCC(CC3)C(=O)C4=CC=C(C=C4)F

> <PUBCHEM_OPENEYE_ISO_SMILES>
CC1=NOC2=C1C(=O)CC(C2)CN3CCC(CC3)C(=O)C4=CC=C(C=C4)F

> <PUBCHEM_CACTVS_TPSA>
63.4

> <PUBCHEM_MONOISOTOPIC_WEIGHT>
370.16927076

> <PUBCHEM_TOTAL_CHARGE>
0

> <PUBCHEM_HEAVY_ATOM_COUNT>
27

> <PUBCHEM_ATOM_DEF_STEREO_COUNT>
0

> <PUBCHEM_ATOM_UDEF_STEREO_COUNT>
1

> <PUBCHEM_BOND_DEF_STEREO_COUNT>
0

> <PUBCHEM_BOND_UDEF_STEREO_COUNT>
0

> <PUBCHEM_ISOTOPIC_ATOM_COUNT>
0

> <PUBCHEM_COMPONENT_COUNT>
1

> <PUBCHEM_CACTVS_TAUTO_COUNT>
-1

> <PUBCHEM_COORDINATE_TYPE>
1
5
255

> <PUBCHEM_BONDANNOTATIONS>
16  19  8
19  20  8
2  16  8
2  6  8
21  23  8
21  24  8
23  25  8
24  26  8
25  27  8
26  27  8
6  20  8
7  8  3

$$$$
