71151767
  -OEChem-09292322352D

 74 79  0     0  0  0  0  0  0999 V2000
    2.3506    0.6410    0.0000 F   0  0  0  0  0  0  0  0  0  0  0  0
   14.6909   -1.2630    0.0000 O   0  0  0  0  0  0  0  0  0  0  0  0
   19.9530   -1.2388    0.0000 O   0  0  0  0  0  0  0  0  0  0  0  0
   10.3588   -0.7797    0.0000 N   0  0  0  0  0  0  0  0  0  0  0  0
    8.6230    0.2136    0.0000 N   0  0  0  0  0  0  0  0  0  0  0  0
    5.2885    0.0337    0.0000 N   0  0  0  0  0  0  0  0  0  0  0  0
   18.2210   -1.2388    0.0000 N   0  0  0  0  0  0  0  0  0  0  0  0
   10.3550    0.2203    0.0000 C   0  0  0  0  0  0  0  0  0  0  0  0
    9.4948   -1.2830    0.0000 C   0  0  0  0  0  0  0  0  0  0  0  0
    9.4870    0.7170    0.0000 C   0  0  0  0  0  0  0  0  0  0  0  0
    8.6268   -0.7864    0.0000 C   0  0  0  0  0  0  0  0  0  0  0  0
   11.2268   -1.2764    0.0000 C   0  0  0  0  0  0  0  0  0  0  0  0
    7.7550    0.7103    0.0000 C   0  0  0  0  0  0  0  0  0  0  0  0
   12.0909   -0.7730    0.0000 C   0  0  0  0  0  0  0  0  0  0  0  0
    6.8909    0.2069    0.0000 C   0  0  0  0  0  0  0  0  0  0  0  0
    6.0230    0.7036    0.0000 C   0  0  0  0  0  0  0  0  0  0  0  0
   12.9588   -1.2697    0.0000 C   0  0  0  0  0  0  0  0  0  0  0  0
    7.7512    1.7103    0.0000 C   0  0  0  0  0  0  0  0  0  0  0  0
    6.6855   -0.7657    0.0000 C   0  0  0  0  0  0  0  0  0  0  0  0
    6.0191    1.7036    0.0000 C   0  0  0  0  0  0  0  0  0  0  0  0
    5.6971   -0.8725    0.0000 C   0  0  0  0  0  0  0  0  0  0  0  0
   13.8229   -0.7663    0.0000 C   0  0  0  0  0  0  0  0  0  0  0  0
    6.8832    2.2069    0.0000 C   0  0  0  0  0  0  0  0  0  0  0  0
    4.3092    0.2361    0.0000 C   0  0  0  0  0  0  0  0  0  0  0  0
    3.6443   -0.5107    0.0000 C   0  0  0  0  0  0  0  0  0  0  0  0
   15.5550   -0.7597    0.0000 C   0  0  0  0  0  0  0  0  0  0  0  0
   17.3550    0.2611    0.0000 C   0  0  0  0  0  0  0  0  0  0  0  0
   17.3550   -0.7389    0.0000 C   0  0  0  0  0  0  0  0  0  0  0  0
   18.2210    0.7611    0.0000 C   0  0  0  0  0  0  0  0  0  0  0  0
   16.4610   -1.2735    0.0000 C   0  0  0  0  0  0  0  0  0  0  0  0
   19.0870    0.2611    0.0000 C   0  0  0  0  0  0  0  0  0  0  0  0
   15.5550    0.2820    0.0000 C   0  0  0  0  0  0  0  0  0  0  0  0
   16.4610    0.7958    0.0000 C   0  0  0  0  0  0  0  0  0  0  0  0
    2.6650   -0.3083    0.0000 C   0  0  0  0  0  0  0  0  0  0  0  0
    3.9586   -1.4601    0.0000 C   0  0  0  0  0  0  0  0  0  0  0  0
   19.0870   -0.7389    0.0000 C   0  0  0  0  0  0  0  0  0  0  0  0
    2.0000   -1.0552    0.0000 C   0  0  0  0  0  0  0  0  0  0  0  0
    3.2936   -2.2069    0.0000 C   0  0  0  0  0  0  0  0  0  0  0  0
    2.3143   -2.0045    0.0000 C   0  0  0  0  0  0  0  0  0  0  0  0
   10.9660    0.1150    0.0000 H   0  0  0  0  0  0  0  0  0  0  0  0
   10.5648    0.8037    0.0000 H   0  0  0  0  0  0  0  0  0  0  0  0
    9.0980   -1.7595    0.0000 H   0  0  0  0  0  0  0  0  0  0  0  0
    9.8951   -1.7564    0.0000 H   0  0  0  0  0  0  0  0  0  0  0  0
    9.8837    1.1934    0.0000 H   0  0  0  0  0  0  0  0  0  0  0  0
    9.0867    1.1904    0.0000 H   0  0  0  0  0  0  0  0  0  0  0  0
    8.0158   -0.6811    0.0000 H   0  0  0  0  0  0  0  0  0  0  0  0
    8.4170   -1.3698    0.0000 H   0  0  0  0  0  0  0  0  0  0  0  0
   10.8301   -1.7528    0.0000 H   0  0  0  0  0  0  0  0  0  0  0  0
   11.6271   -1.7498    0.0000 H   0  0  0  0  0  0  0  0  0  0  0  0
   12.4876   -0.2965    0.0000 H   0  0  0  0  0  0  0  0  0  0  0  0
   11.6905   -0.2996    0.0000 H   0  0  0  0  0  0  0  0  0  0  0  0
   12.5621   -1.7462    0.0000 H   0  0  0  0  0  0  0  0  0  0  0  0
   13.3592   -1.7431    0.0000 H   0  0  0  0  0  0  0  0  0  0  0  0
    8.2869    2.0223    0.0000 H   0  0  0  0  0  0  0  0  0  0  0  0
    7.1013   -1.2255    0.0000 H   0  0  0  0  0  0  0  0  0  0  0  0
    5.4810    2.0115    0.0000 H   0  0  0  0  0  0  0  0  0  0  0  0
    5.3892   -1.4107    0.0000 H   0  0  0  0  0  0  0  0  0  0  0  0
   14.2196   -0.2899    0.0000 H   0  0  0  0  0  0  0  0  0  0  0  0
   13.4226   -0.2929    0.0000 H   0  0  0  0  0  0  0  0  0  0  0  0
    6.8808    2.8269    0.0000 H   0  0  0  0  0  0  0  0  0  0  0  0
    4.5383    0.8123    0.0000 H   0  0  0  0  0  0  0  0  0  0  0  0
    3.7816    0.5617    0.0000 H   0  0  0  0  0  0  0  0  0  0  0  0
   18.6195    1.2361    0.0000 H   0  0  0  0  0  0  0  0  0  0  0  0
   17.8225    1.2361    0.0000 H   0  0  0  0  0  0  0  0  0  0  0  0
   16.4682   -1.8935    0.0000 H   0  0  0  0  0  0  0  0  0  0  0  0
   19.6976    0.1535    0.0000 H   0  0  0  0  0  0  0  0  0  0  0  0
   19.2991    0.8438    0.0000 H   0  0  0  0  0  0  0  0  0  0  0  0
   15.0192    0.5940    0.0000 H   0  0  0  0  0  0  0  0  0  0  0  0
   16.4682    1.4158    0.0000 H   0  0  0  0  0  0  0  0  0  0  0  0
    4.5658   -1.5856    0.0000 H   0  0  0  0  0  0  0  0  0  0  0  0
   18.2210   -1.8588    0.0000 H   0  0  0  0  0  0  0  0  0  0  0  0
    1.3928   -0.9297    0.0000 H   0  0  0  0  0  0  0  0  0  0  0  0
    3.4885   -2.7955    0.0000 H   0  0  0  0  0  0  0  0  0  0  0  0
    1.9020   -2.4675    0.0000 H   0  0  0  0  0  0  0  0  0  0  0  0
  1 34  1  0  0  0  0
  2 22  1  0  0  0  0
  2 26  1  0  0  0  0
  3 36  2  0  0  0  0
  4  8  1  0  0  0  0
  4  9  1  0  0  0  0
  4 12  1  0  0  0  0
  5 10  1  0  0  0  0
  5 11  1  0  0  0  0
  5 13  1  0  0  0  0
  6 16  1  0  0  0  0
  6 21  1  0  0  0  0
  6 24  1  0  0  0  0
  7 28  1  0  0  0  0
  7 36  1  0  0  0  0
  7 71  1  0  0  0  0
  8 10  1  0  0  0  0
  8 40  1  0  0  0  0
  8 41  1  0  0  0  0
  9 11  1  0  0  0  0
  9 42  1  0  0  0  0
  9 43  1  0  0  0  0
 10 44  1  0  0  0  0
 10 45  1  0  0  0  0
 11 46  1  0  0  0  0
 11 47  1  0  0  0  0
 12 14  1  0  0  0  0
 12 48  1  0  0  0  0
 12 49  1  0  0  0  0
 13 15  1  0  0  0  0
 13 18  2  0  0  0  0
 14 17  1  0  0  0  0
 14 50  1  0  0  0  0
 14 51  1  0  0  0  0
 15 16  2  0  0  0  0
 15 19  1  0  0  0  0
 16 20  1  0  0  0  0
 17 22  1  0  0  0  0
 17 52  1  0  0  0  0
 17 53  1  0  0  0  0
 18 23  1  0  0  0  0
 18 54  1  0  0  0  0
 19 21  2  0  0  0  0
 19 55  1  0  0  0  0
 20 23  2  0  0  0  0
 20 56  1  0  0  0  0
 21 57  1  0  0  0  0
 22 58  1  0  0  0  0
 22 59  1  0  0  0  0
 23 60  1  0  0  0  0
 24 25  1  0  0  0  0
 24 61  1  0  0  0  0
 24 62  1  0  0  0  0
 25 34  1  0  0  0  0
 25 35  2  0  0  0  0
 26 30  2  0  0  0  0
 26 32  1  0  0  0  0
 27 28  2  0  0  0  0
 27 29  1  0  0  0  0
 27 33  1  0  0  0  0
 28 30  1  0  0  0  0
 29 31  1  0  0  0  0
 29 63  1  0  0  0  0
 29 64  1  0  0  0  0
 30 65  1  0  0  0  0
 31 36  1  0  0  0  0
 31 66  1  0  0  0  0
 31 67  1  0  0  0  0
 32 33  2  0  0  0  0
 32 68  1  0  0  0  0
 33 69  1  0  0  0  0
 34 37  2  0  0  0  0
 35 38  1  0  0  0  0
 35 70  1  0  0  0  0
 37 39  1  0  0  0  0
 37 72  1  0  0  0  0
 38 39  2  0  0  0  0
 38 73  1  0  0  0  0
 39 74  1  0  0  0  0
M  END
> <PUBCHEM_COMPOUND_CID>
71151767

> <PUBCHEM_COMPOUND_CANONICALIZED>
1

> <PUBCHEM_CACTVS_COMPLEXITY>
792

> <PUBCHEM_CACTVS_HBOND_ACCEPTOR>
5

> <PUBCHEM_CACTVS_HBOND_DONOR>
1

> <PUBCHEM_CACTVS_ROTATABLE_BOND>
9

> <PUBCHEM_CACTVS_SUBSKEYS>
AAADcfB/sQAAAAAAAAAAAAAAAAAAAWAAAAA8eMECAAAAAFix9AAAHwAQAAAADAzhng48xvPMFACoAzV3VACCiCAxIiAI2CE+bJgMZvLE8duWPCjm1BnI6Ae42aOeIAAAAgQCAABAAAAECAQAAAAAAAAAAA==

> <PUBCHEM_IUPAC_OPENEYE_NAME>
7-[4-[4-[1-[(2-fluorophenyl)methyl]indol-4-yl]piperazin-1-yl]butoxy]-3,4-dihydro-1H-quinolin-2-one

> <PUBCHEM_IUPAC_CAS_NAME>
7-[4-[4-[1-[(2-fluorophenyl)methyl]-4-indolyl]-1-piperazinyl]butoxy]-3,4-dihydro-1H-quinolin-2-one

> <PUBCHEM_IUPAC_NAME_MARKUP>
7-[4-[4-[1-[(2-fluorophenyl)methyl]indol-4-yl]piperazin-1-yl]butoxy]-3,4-dihydro-1<I>H</I>-quinolin-2-one

> <PUBCHEM_IUPAC_NAME>
7-[4-[4-[1-[(2-fluorophenyl)methyl]indol-4-yl]piperazin-1-yl]butoxy]-3,4-dihydro-1H-quinolin-2-one

> <PUBCHEM_IUPAC_SYSTEMATIC_NAME>
7-[4-[4-[1-[(2-fluorophenyl)methyl]indol-4-yl]piperazin-1-yl]butoxy]-3,4-dihydro-1H-quinolin-2-one

> <PUBCHEM_IUPAC_TRADITIONAL_NAME>
7-[4-[4-[1-(2-fluorobenzyl)indol-4-yl]piperazino]butoxy]-3,4-dihydrocarbostyril

> <PUBCHEM_IUPAC_INCHI>
InChI=1S/C32H35FN4O2/c33-28-7-2-1-6-25(28)23-37-16-14-27-30(8-5-9-31(27)37)36-19-17-35(18-20-36)15-3-4-21-39-26-12-10-24-11-13-32(38)34-29(24)22-26/h1-2,5-10,12,14,16,22H,3-4,11,13,15,17-21,23H2,(H,34,38)

> <PUBCHEM_IUPAC_INCHIKEY>
TUDBHIHVRZUNSF-UHFFFAOYSA-N

> <PUBCHEM_XLOGP3_AA>
5.2

> <PUBCHEM_EXACT_MASS>
526.27440453

> <PUBCHEM_MOLECULAR_FORMULA>
C32H35FN4O2

> <PUBCHEM_MOLECULAR_WEIGHT>
526.6

> <PUBCHEM_OPENEYE_CAN_SMILES>
C1CC(=O)NC2=C1C=CC(=C2)OCCCCN3CCN(CC3)C4=CC=CC5=C4C=CN5CC6=CC=CC=C6F

> <PUBCHEM_OPENEYE_ISO_SMILES>
C1CC(=O)NC2=C1C=CC(=C2)OCCCCN3CCN(CC3)C4=CC=CC5=C4C=CN5CC6=CC=CC=C6F

> <PUBCHEM_CACTVS_TPSA>
49.7

> <PUBCHEM_MONOISOTOPIC_WEIGHT>
526.27440453

> <PUBCHEM_TOTAL_CHARGE>
0

> <PUBCHEM_HEAVY_ATOM_COUNT>
39

> <PUBCHEM_ATOM_DEF_STEREO_COUNT>
0

> <PUBCHEM_ATOM_UDEF_STEREO_COUNT>
0

> <PUBCHEM_BOND_DEF_STEREO_COUNT>
0

> <PUBCHEM_BOND_UDEF_STEREO_COUNT>
0

> <PUBCHEM_ISOTOPIC_ATOM_COUNT>
0

> <PUBCHEM_COMPONENT_COUNT>
1

> <PUBCHEM_CACTVS_TAUTO_COUNT>
-1

> <PUBCHEM_COORDINATE_TYPE>
1
5
255

> <PUBCHEM_BONDANNOTATIONS>
13  15  8
13  18  8
15  16  8
15  19  8
16  20  8
18  23  8
19  21  8
20  23  8
25  34  8
25  35  8
26  30  8
26  32  8
27  28  8
27  33  8
28  30  8
32  33  8
34  37  8
35  38  8
37  39  8
38  39  8
6  16  8
6  21  8

$$$$
