155551238
  -OEChem-09292322082D

 53 56  0     0  0  0  0  0  0999 V2000
    9.0084   -1.0547    0.0000 S   0  0  0  0  0  0  0  0  0  0  0  0
    5.4641    5.7500    0.0000 F   0  0  0  0  0  0  0  0  0  0  0  0
    4.4641    4.7500    0.0000 F   0  0  0  0  0  0  0  0  0  0  0  0
    6.4641    4.7500    0.0000 F   0  0  0  0  0  0  0  0  0  0  0  0
    2.0000   -5.2500    0.0000 O   0  0  0  0  0  0  0  0  0  0  0  0
    3.7320   -4.2500    0.0000 N   0  0  0  0  0  0  0  0  0  0  0  0
    6.3301    0.2500    0.0000 N   0  0  0  0  0  0  0  0  0  0  0  0
    7.1962   -1.2500    0.0000 N   0  0  0  0  0  0  0  0  0  0  0  0
    7.1962    1.7500    0.0000 N   0  0  0  0  0  0  0  0  0  0  0  0
    4.5981   -3.7500    0.0000 C   0  0  0  0  0  0  0  0  0  0  0  0
    4.5981   -2.7500    0.0000 C   0  0  0  0  0  0  0  0  0  0  0  0
    3.7320   -5.2500    0.0000 C   0  0  0  0  0  0  0  0  0  0  0  0
    2.8660   -3.7500    0.0000 C   0  0  0  0  0  0  0  0  0  0  0  0
    5.4641   -2.2500    0.0000 C   0  0  0  0  0  0  0  0  0  0  0  0
    2.8660   -5.7500    0.0000 C   0  0  0  0  0  0  0  0  0  0  0  0
    2.0000   -4.2500    0.0000 C   0  0  0  0  0  0  0  0  0  0  0  0
    5.4641   -1.2500    0.0000 C   0  0  0  0  0  0  0  0  0  0  0  0
    6.3301   -0.7500    0.0000 C   0  0  0  0  0  0  0  0  0  0  0  0
    7.1962    0.7500    0.0000 C   0  0  0  0  0  0  0  0  0  0  0  0
    8.0622    0.2500    0.0000 C   0  0  0  0  0  0  0  0  0  0  0  0
    8.0622   -0.7500    0.0000 C   0  0  0  0  0  0  0  0  0  0  0  0
    9.0084    0.5547    0.0000 C   0  0  0  0  0  0  0  0  0  0  0  0
    6.3301    2.2500    0.0000 C   0  0  0  0  0  0  0  0  0  0  0  0
    9.5920   -0.2500    0.0000 C   0  0  0  0  0  0  0  0  0  0  0  0
    6.3301    3.2500    0.0000 C   0  0  0  0  0  0  0  0  0  0  0  0
    5.4641    1.7500    0.0000 C   0  0  0  0  0  0  0  0  0  0  0  0
    5.4641    3.7500    0.0000 C   0  0  0  0  0  0  0  0  0  0  0  0
    4.5981    2.2500    0.0000 C   0  0  0  0  0  0  0  0  0  0  0  0
    4.5981    3.2500    0.0000 C   0  0  0  0  0  0  0  0  0  0  0  0
    5.4641    4.7500    0.0000 C   0  0  0  0  0  0  0  0  0  0  0  0
    4.8101   -4.3326    0.0000 H   0  0  0  0  0  0  0  0  0  0  0  0
    5.2087   -3.6423    0.0000 H   0  0  0  0  0  0  0  0  0  0  0  0
    4.3860   -2.1674    0.0000 H   0  0  0  0  0  0  0  0  0  0  0  0
    3.9875   -2.8577    0.0000 H   0  0  0  0  0  0  0  0  0  0  0  0
    3.9441   -5.8326    0.0000 H   0  0  0  0  0  0  0  0  0  0  0  0
    4.3426   -5.1423    0.0000 H   0  0  0  0  0  0  0  0  0  0  0  0
    3.2646   -3.2750    0.0000 H   0  0  0  0  0  0  0  0  0  0  0  0
    2.4675   -3.2750    0.0000 H   0  0  0  0  0  0  0  0  0  0  0  0
    5.6762   -2.8326    0.0000 H   0  0  0  0  0  0  0  0  0  0  0  0
    6.0747   -2.1423    0.0000 H   0  0  0  0  0  0  0  0  0  0  0  0
    2.4675   -6.2250    0.0000 H   0  0  0  0  0  0  0  0  0  0  0  0
    3.2646   -6.2250    0.0000 H   0  0  0  0  0  0  0  0  0  0  0  0
    1.7880   -3.6674    0.0000 H   0  0  0  0  0  0  0  0  0  0  0  0
    1.3894   -4.3577    0.0000 H   0  0  0  0  0  0  0  0  0  0  0  0
    5.2520   -0.6674    0.0000 H   0  0  0  0  0  0  0  0  0  0  0  0
    4.8535   -1.3577    0.0000 H   0  0  0  0  0  0  0  0  0  0  0  0
    7.7331    2.0600    0.0000 H   0  0  0  0  0  0  0  0  0  0  0  0
    9.2010    1.1440    0.0000 H   0  0  0  0  0  0  0  0  0  0  0  0
   10.2120   -0.2500    0.0000 H   0  0  0  0  0  0  0  0  0  0  0  0
    6.8671    3.5600    0.0000 H   0  0  0  0  0  0  0  0  0  0  0  0
    5.4641    1.1300    0.0000 H   0  0  0  0  0  0  0  0  0  0  0  0
    4.0611    1.9400    0.0000 H   0  0  0  0  0  0  0  0  0  0  0  0
    4.0611    3.5600    0.0000 H   0  0  0  0  0  0  0  0  0  0  0  0
  1 21  1  0  0  0  0
  1 24  1  0  0  0  0
  2 30  1  0  0  0  0
  3 30  1  0  0  0  0
  4 30  1  0  0  0  0
  5 15  1  0  0  0  0
  5 16  1  0  0  0  0
  6 10  1  0  0  0  0
  6 12  1  0  0  0  0
  6 13  1  0  0  0  0
  7 18  2  0  0  0  0
  7 19  1  0  0  0  0
  8 18  1  0  0  0  0
  8 21  2  0  0  0  0
  9 19  1  0  0  0  0
  9 23  1  0  0  0  0
  9 47  1  0  0  0  0
 10 11  1  0  0  0  0
 10 31  1  0  0  0  0
 10 32  1  0  0  0  0
 11 14  1  0  0  0  0
 11 33  1  0  0  0  0
 11 34  1  0  0  0  0
 12 15  1  0  0  0  0
 12 35  1  0  0  0  0
 12 36  1  0  0  0  0
 13 16  1  0  0  0  0
 13 37  1  0  0  0  0
 13 38  1  0  0  0  0
 14 17  1  0  0  0  0
 14 39  1  0  0  0  0
 14 40  1  0  0  0  0
 15 41  1  0  0  0  0
 15 42  1  0  0  0  0
 16 43  1  0  0  0  0
 16 44  1  0  0  0  0
 17 18  1  0  0  0  0
 17 45  1  0  0  0  0
 17 46  1  0  0  0  0
 19 20  2  0  0  0  0
 20 21  1  0  0  0  0
 20 22  1  0  0  0  0
 22 24  2  0  0  0  0
 22 48  1  0  0  0  0
 23 25  1  0  0  0  0
 23 26  2  0  0  0  0
 24 49  1  0  0  0  0
 25 27  2  0  0  0  0
 25 50  1  0  0  0  0
 26 28  1  0  0  0  0
 26 51  1  0  0  0  0
 27 29  1  0  0  0  0
 27 30  1  0  0  0  0
 28 29  2  0  0  0  0
 28 52  1  0  0  0  0
 29 53  1  0  0  0  0
M  END
> <PUBCHEM_COMPOUND_CID>
155551238

> <PUBCHEM_COMPOUND_CANONICALIZED>
1

> <PUBCHEM_CACTVS_COMPLEXITY>
535

> <PUBCHEM_CACTVS_HBOND_ACCEPTOR>
9

> <PUBCHEM_CACTVS_HBOND_DONOR>
1

> <PUBCHEM_CACTVS_ROTATABLE_BOND>
7

> <PUBCHEM_CACTVS_SUBSKEYS>
AAADceB7oYBAAAAAAAAAAAAAAAAAASAAAAA8WIAAAAAAAFgB/AAAHwQQAAAADAjl2xax8dfIFAikAiZiZACD0KlhCrhJmDg4ZJiKKOLg2dGHJAxokAL4yCcQgAAOAAAAQAAAAAAAAACAAAAAAAAAAAAAAA==

> <PUBCHEM_IUPAC_OPENEYE_NAME>
2-(4-morpholinobutyl)-N-[3-(trifluoromethyl)phenyl]thieno[2,3-d]pyrimidin-4-amine

> <PUBCHEM_IUPAC_CAS_NAME>
2-[4-(4-morpholinyl)butyl]-N-[3-(trifluoromethyl)phenyl]-4-thieno[2,3-d]pyrimidinamine

> <PUBCHEM_IUPAC_NAME_MARKUP>
2-(4-morpholin-4-ylbutyl)-<I>N</I>-[3-(trifluoromethyl)phenyl]thieno[2,3-d]pyrimidin-4-amine

> <PUBCHEM_IUPAC_NAME>
2-(4-morpholin-4-ylbutyl)-N-[3-(trifluoromethyl)phenyl]thieno[2,3-d]pyrimidin-4-amine

> <PUBCHEM_IUPAC_SYSTEMATIC_NAME>
2-(4-morpholin-4-ylbutyl)-N-[3-(trifluoromethyl)phenyl]thieno[2,3-d]pyrimidin-4-amine

> <PUBCHEM_IUPAC_TRADITIONAL_NAME>
[2-(4-morpholinobutyl)thieno[2,3-d]pyrimidin-4-yl]-[3-(trifluoromethyl)phenyl]amine

> <PUBCHEM_IUPAC_INCHI>
InChI=1S/C21H23F3N4OS/c22-21(23,24)15-4-3-5-16(14-15)25-19-17-7-13-30-20(17)27-18(26-19)6-1-2-8-28-9-11-29-12-10-28/h3-5,7,13-14H,1-2,6,8-12H2,(H,25,26,27)

> <PUBCHEM_IUPAC_INCHIKEY>
HNNGQXUNGPVBNY-UHFFFAOYSA-N

> <PUBCHEM_XLOGP3_AA>
5

> <PUBCHEM_EXACT_MASS>
436.15446703

> <PUBCHEM_MOLECULAR_FORMULA>
C21H23F3N4OS

> <PUBCHEM_MOLECULAR_WEIGHT>
436.5

> <PUBCHEM_OPENEYE_CAN_SMILES>
C1COCCN1CCCCC2=NC(=C3C=CSC3=N2)NC4=CC=CC(=C4)C(F)(F)F

> <PUBCHEM_OPENEYE_ISO_SMILES>
C1COCCN1CCCCC2=NC(=C3C=CSC3=N2)NC4=CC=CC(=C4)C(F)(F)F

> <PUBCHEM_CACTVS_TPSA>
78.5

> <PUBCHEM_MONOISOTOPIC_WEIGHT>
436.15446703

> <PUBCHEM_TOTAL_CHARGE>
0

> <PUBCHEM_HEAVY_ATOM_COUNT>
30

> <PUBCHEM_ATOM_DEF_STEREO_COUNT>
0

> <PUBCHEM_ATOM_UDEF_STEREO_COUNT>
0

> <PUBCHEM_BOND_DEF_STEREO_COUNT>
0

> <PUBCHEM_BOND_UDEF_STEREO_COUNT>
0

> <PUBCHEM_ISOTOPIC_ATOM_COUNT>
0

> <PUBCHEM_COMPONENT_COUNT>
1

> <PUBCHEM_CACTVS_TAUTO_COUNT>
-1

> <PUBCHEM_COORDINATE_TYPE>
1
5
255

> <PUBCHEM_BONDANNOTATIONS>
1  21  8
1  24  8
19  20  8
20  21  8
20  22  8
22  24  8
23  25  8
23  26  8
25  27  8
26  28  8
27  29  8
28  29  8
7  18  8
7  19  8
8  18  8
8  21  8

$$$$
