9885927
  -OEChem-09292322272D

 58 62  0     0  0  0  0  0  0999 V2000
    5.9233   -0.1176    0.0000 N   0  0  0  0  0  0  0  0  0  0  0  0
    5.9233   -2.1176    0.0000 N   0  0  0  0  0  0  0  0  0  0  0  0
    7.6833   -5.1522    0.0000 N   0  0  0  0  0  0  0  0  0  0  0  0
    2.6164    3.2143    0.0000 N   0  0  0  0  0  0  0  0  0  0  0  0
    5.0573   -0.6176    0.0000 C   0  0  0  0  0  0  0  0  0  0  0  0
    6.7893   -0.6176    0.0000 C   0  0  0  0  0  0  0  0  0  0  0  0
    5.0573   -1.6176    0.0000 C   0  0  0  0  0  0  0  0  0  0  0  0
    6.7893   -1.6176    0.0000 C   0  0  0  0  0  0  0  0  0  0  0  0
    5.9233    0.8824    0.0000 C   0  0  0  0  0  0  0  0  0  0  0  0
    5.9233   -3.1176    0.0000 C   0  0  0  0  0  0  0  0  0  0  0  0
    6.7893   -3.6176    0.0000 C   0  0  0  0  0  0  0  0  0  0  0  0
    5.0573    1.3824    0.0000 C   0  0  0  0  0  0  0  0  0  0  0  0
    7.6833   -3.0829    0.0000 C   0  0  0  0  0  0  0  0  0  0  0  0
    6.7893   -4.6176    0.0000 C   0  0  0  0  0  0  0  0  0  0  0  0
    8.5893   -3.5968    0.0000 C   0  0  0  0  0  0  0  0  0  0  0  0
    5.0573    2.3824    0.0000 C   0  0  0  0  0  0  0  0  0  0  0  0
    8.5893   -4.6384    0.0000 C   0  0  0  0  0  0  0  0  0  0  0  0
    5.0573   -3.6176    0.0000 C   0  0  0  0  0  0  0  0  0  0  0  0
    4.1912    2.8824    0.0000 C   0  0  0  0  0  0  0  0  0  0  0  0
    5.9233   -5.1176    0.0000 C   0  0  0  0  0  0  0  0  0  0  0  0
    5.0573   -4.6176    0.0000 C   0  0  0  0  0  0  0  0  0  0  0  0
    4.0882    3.8712    0.0000 C   0  0  0  0  0  0  0  0  0  0  0  0
    3.2835    2.4773    0.0000 C   0  0  0  0  0  0  0  0  0  0  0  0
    3.1097    4.0774    0.0000 C   0  0  0  0  0  0  0  0  0  0  0  0
    4.7560    4.6154    0.0000 C   0  0  0  0  0  0  0  0  0  0  0  0
    2.7990    5.0279    0.0000 C   0  0  0  0  0  0  0  0  0  0  0  0
    4.4454    5.5660    0.0000 C   0  0  0  0  0  0  0  0  0  0  0  0
    3.4669    5.7722    0.0000 C   0  0  0  0  0  0  0  0  0  0  0  0
    4.8452   -0.0350    0.0000 H   0  0  0  0  0  0  0  0  0  0  0  0
    4.4467   -0.7252    0.0000 H   0  0  0  0  0  0  0  0  0  0  0  0
    7.3999   -0.7252    0.0000 H   0  0  0  0  0  0  0  0  0  0  0  0
    7.0014   -0.0350    0.0000 H   0  0  0  0  0  0  0  0  0  0  0  0
    4.4467   -1.5099    0.0000 H   0  0  0  0  0  0  0  0  0  0  0  0
    4.8452   -2.2002    0.0000 H   0  0  0  0  0  0  0  0  0  0  0  0
    7.0014   -2.2002    0.0000 H   0  0  0  0  0  0  0  0  0  0  0  0
    7.3999   -1.5099    0.0000 H   0  0  0  0  0  0  0  0  0  0  0  0
    6.5339    0.7748    0.0000 H   0  0  0  0  0  0  0  0  0  0  0  0
    6.1354    1.4650    0.0000 H   0  0  0  0  0  0  0  0  0  0  0  0
    4.4467    1.4901    0.0000 H   0  0  0  0  0  0  0  0  0  0  0  0
    4.8452    0.7998    0.0000 H   0  0  0  0  0  0  0  0  0  0  0  0
    8.0769   -2.6039    0.0000 H   0  0  0  0  0  0  0  0  0  0  0  0
    7.2787   -2.6131    0.0000 H   0  0  0  0  0  0  0  0  0  0  0  0
    9.2002   -3.7028    0.0000 H   0  0  0  0  0  0  0  0  0  0  0  0
    8.7984   -3.0131    0.0000 H   0  0  0  0  0  0  0  0  0  0  0  0
    5.6678    2.2748    0.0000 H   0  0  0  0  0  0  0  0  0  0  0  0
    5.2693    2.9650    0.0000 H   0  0  0  0  0  0  0  0  0  0  0  0
    8.7984   -5.2221    0.0000 H   0  0  0  0  0  0  0  0  0  0  0  0
    9.2002   -4.5323    0.0000 H   0  0  0  0  0  0  0  0  0  0  0  0
    4.5203   -3.3076    0.0000 H   0  0  0  0  0  0  0  0  0  0  0  0
    7.6761   -5.7722    0.0000 H   0  0  0  0  0  0  0  0  0  0  0  0
    5.9233   -5.7376    0.0000 H   0  0  0  0  0  0  0  0  0  0  0  0
    4.5203   -4.9276    0.0000 H   0  0  0  0  0  0  0  0  0  0  0  0
    3.1556    1.8706    0.0000 H   0  0  0  0  0  0  0  0  0  0  0  0
    2.0000    3.1474    0.0000 H   0  0  0  0  0  0  0  0  0  0  0  0
    5.3627    4.4876    0.0000 H   0  0  0  0  0  0  0  0  0  0  0  0
    2.1923    5.1558    0.0000 H   0  0  0  0  0  0  0  0  0  0  0  0
    4.8594    6.0274    0.0000 H   0  0  0  0  0  0  0  0  0  0  0  0
    3.2743    6.3615    0.0000 H   0  0  0  0  0  0  0  0  0  0  0  0
  1  5  1  0  0  0  0
  1  6  1  0  0  0  0
  1  9  1  0  0  0  0
  2  7  1  0  0  0  0
  2  8  1  0  0  0  0
  2 10  1  0  0  0  0
  3 14  1  0  0  0  0
  3 17  1  0  0  0  0
  3 50  1  0  0  0  0
  4 23  1  0  0  0  0
  4 24  1  0  0  0  0
  4 54  1  0  0  0  0
  5  7  1  0  0  0  0
  5 29  1  0  0  0  0
  5 30  1  0  0  0  0
  6  8  1  0  0  0  0
  6 31  1  0  0  0  0
  6 32  1  0  0  0  0
  7 33  1  0  0  0  0
  7 34  1  0  0  0  0
  8 35  1  0  0  0  0
  8 36  1  0  0  0  0
  9 12  1  0  0  0  0
  9 37  1  0  0  0  0
  9 38  1  0  0  0  0
 10 11  1  0  0  0  0
 10 18  2  0  0  0  0
 11 13  1  0  0  0  0
 11 14  2  0  0  0  0
 12 16  1  0  0  0  0
 12 39  1  0  0  0  0
 12 40  1  0  0  0  0
 13 15  1  0  0  0  0
 13 41  1  0  0  0  0
 13 42  1  0  0  0  0
 14 20  1  0  0  0  0
 15 17  1  0  0  0  0
 15 43  1  0  0  0  0
 15 44  1  0  0  0  0
 16 19  1  0  0  0  0
 16 45  1  0  0  0  0
 16 46  1  0  0  0  0
 17 47  1  0  0  0  0
 17 48  1  0  0  0  0
 18 21  1  0  0  0  0
 18 49  1  0  0  0  0
 19 22  1  0  0  0  0
 19 23  2  0  0  0  0
 20 21  2  0  0  0  0
 20 51  1  0  0  0  0
 21 52  1  0  0  0  0
 22 24  1  0  0  0  0
 22 25  2  0  0  0  0
 23 53  1  0  0  0  0
 24 26  2  0  0  0  0
 25 27  1  0  0  0  0
 25 55  1  0  0  0  0
 26 28  1  0  0  0  0
 26 56  1  0  0  0  0
 27 28  2  0  0  0  0
 27 57  1  0  0  0  0
 28 58  1  0  0  0  0
M  END
> <PUBCHEM_COMPOUND_CID>
9885927

> <PUBCHEM_COMPOUND_CANONICALIZED>
1

> <PUBCHEM_CACTVS_COMPLEXITY>
489

> <PUBCHEM_CACTVS_HBOND_ACCEPTOR>
3

> <PUBCHEM_CACTVS_HBOND_DONOR>
2

> <PUBCHEM_CACTVS_ROTATABLE_BOND>
5

> <PUBCHEM_CACTVS_SUBSKEYS>
AAADceB7gAAAAAAAAAAAAAAAAAAAAWAAAAA8eIEAAAAAAFix9AAAHAAQAAAADAjBHgQ8wPPJkACgAzRnRACCgCAxAiAI2aA4ZJgIYOLA0dGUIAhgkADIyAcQgMAOgAAAAAQCAAAAAAAACAQAAAAAAAAAAA==

> <PUBCHEM_IUPAC_OPENEYE_NAME>
5-[4-[3-(1H-indol-3-yl)propyl]piperazin-1-yl]-1,2,3,4-tetrahydroquinoline

> <PUBCHEM_IUPAC_CAS_NAME>
5-[4-[3-(1H-indol-3-yl)propyl]-1-piperazinyl]-1,2,3,4-tetrahydroquinoline

> <PUBCHEM_IUPAC_NAME_MARKUP>
5-[4-[3-(1<I>H</I>-indol-3-yl)propyl]piperazin-1-yl]-1,2,3,4-tetrahydroquinoline

> <PUBCHEM_IUPAC_NAME>
5-[4-[3-(1H-indol-3-yl)propyl]piperazin-1-yl]-1,2,3,4-tetrahydroquinoline

> <PUBCHEM_IUPAC_SYSTEMATIC_NAME>
5-[4-[3-(1H-indol-3-yl)propyl]piperazin-1-yl]-1,2,3,4-tetrahydroquinoline

> <PUBCHEM_IUPAC_TRADITIONAL_NAME>
5-[4-[3-(1H-indol-3-yl)propyl]piperazino]-1,2,3,4-tetrahydroquinoline

> <PUBCHEM_IUPAC_INCHI>
InChI=1S/C24H30N4/c1-2-9-22-20(7-1)19(18-26-22)6-5-13-27-14-16-28(17-15-27)24-11-3-10-23-21(24)8-4-12-25-23/h1-3,7,9-11,18,25-26H,4-6,8,12-17H2

> <PUBCHEM_IUPAC_INCHIKEY>
IJQNDNMGXIXMSM-UHFFFAOYSA-N

> <PUBCHEM_XLOGP3_AA>
4.7

> <PUBCHEM_EXACT_MASS>
374.24704697

> <PUBCHEM_MOLECULAR_FORMULA>
C24H30N4

> <PUBCHEM_MOLECULAR_WEIGHT>
374.5

> <PUBCHEM_OPENEYE_CAN_SMILES>
C1CC2=C(C=CC=C2N3CCN(CC3)CCCC4=CNC5=CC=CC=C54)NC1

> <PUBCHEM_OPENEYE_ISO_SMILES>
C1CC2=C(C=CC=C2N3CCN(CC3)CCCC4=CNC5=CC=CC=C54)NC1

> <PUBCHEM_CACTVS_TPSA>
34.3

> <PUBCHEM_MONOISOTOPIC_WEIGHT>
374.24704697

> <PUBCHEM_TOTAL_CHARGE>
0

> <PUBCHEM_HEAVY_ATOM_COUNT>
28

> <PUBCHEM_ATOM_DEF_STEREO_COUNT>
0

> <PUBCHEM_ATOM_UDEF_STEREO_COUNT>
0

> <PUBCHEM_BOND_DEF_STEREO_COUNT>
0

> <PUBCHEM_BOND_UDEF_STEREO_COUNT>
0

> <PUBCHEM_ISOTOPIC_ATOM_COUNT>
0

> <PUBCHEM_COMPONENT_COUNT>
1

> <PUBCHEM_CACTVS_TAUTO_COUNT>
-1

> <PUBCHEM_COORDINATE_TYPE>
1
5
255

> <PUBCHEM_BONDANNOTATIONS>
10  11  8
10  18  8
11  14  8
14  20  8
18  21  8
19  22  8
19  23  8
20  21  8
22  24  8
22  25  8
24  26  8
25  27  8
26  28  8
27  28  8
4  23  8
4  24  8

$$$$
