138973681
  -OEChem-09292322452D

 60 63  0     1  0  0  0  0  0999 V2000
    7.1312   -1.3416    0.0000 S   0  0  0  0  0  0  0  0  0  0  0  0
    2.0000    1.8000    0.0000 O   0  0  0  0  0  0  0  0  0  0  0  0
    2.0000    3.8000    0.0000 O   0  0  0  0  0  0  0  0  0  0  0  0
    5.4804    0.7654    0.0000 N   0  0  0  0  0  0  0  0  0  0  0  0
    6.3981    2.2792    0.0000 N   0  0  0  0  0  0  0  0  0  0  0  0
    5.4920    3.8346    0.0000 N   0  0  0  0  0  0  0  0  0  0  0  0
    2.8316   -1.9294    0.0000 N   0  0  0  0  0  0  0  0  0  0  0  0
    6.3406    0.2554    0.0000 C   0  0  2  0  0  0  0  0  0  0  0  0
    6.3291   -0.7445    0.0000 C   0  0  0  0  0  0  0  0  0  0  0  0
    5.8113   -2.2775    0.0000 C   0  0  0  0  0  0  0  0  0  0  0  0
    5.5133   -1.3229    0.0000 C   0  0  0  0  0  0  0  0  0  0  0  0
    5.2142   -3.0796    0.0000 C   0  0  0  0  0  0  0  0  0  0  0  0
    5.4920    1.7653    0.0000 C   0  0  0  0  0  0  0  0  0  0  0  0
    7.2124    0.7454    0.0000 C   0  0  0  0  0  0  0  0  0  0  0  0
    4.5981    2.3000    0.0000 C   0  0  0  0  0  0  0  0  0  0  0  0
    4.2210   -2.9636    0.0000 C   0  0  0  0  0  0  0  0  0  0  0  0
    6.8112   -2.2890    0.0000 C   0  0  0  0  0  0  0  0  0  0  0  0
    4.5981    3.3000    0.0000 C   0  0  0  0  0  0  0  0  0  0  0  0
    3.8248   -2.0454    0.0000 C   0  0  0  0  0  0  0  0  0  0  0  0
    5.6104   -3.9978    0.0000 C   0  0  0  0  0  0  0  0  0  0  0  0
    3.7320    1.8000    0.0000 C   0  0  0  0  0  0  0  0  0  0  0  0
    3.6239   -3.7658    0.0000 C   0  0  0  0  0  0  0  0  0  0  0  0
    3.7320    3.8000    0.0000 C   0  0  0  0  0  0  0  0  0  0  0  0
    2.8660    2.3000    0.0000 C   0  0  0  0  0  0  0  0  0  0  0  0
    6.3981    3.3208    0.0000 C   0  0  0  0  0  0  0  0  0  0  0  0
    2.8660    3.3000    0.0000 C   0  0  0  0  0  0  0  0  0  0  0  0
    5.0133   -4.8000    0.0000 C   0  0  0  0  0  0  0  0  0  0  0  0
    4.0200   -4.6840    0.0000 C   0  0  0  0  0  0  0  0  0  0  0  0
    7.2622    3.8241    0.0000 C   0  0  0  0  0  0  0  0  0  0  0  0
    2.2345   -2.7316    0.0000 C   0  0  0  0  0  0  0  0  0  0  0  0
    2.0000    0.8000    0.0000 C   0  0  0  0  0  0  0  0  0  0  0  0
    2.0000    4.8000    0.0000 C   0  0  0  0  0  0  0  0  0  0  0  0
    5.8002   -0.0484    0.0000 H   0  0  0  0  0  0  0  0  0  0  0  0
    4.9400    0.4616    0.0000 H   0  0  0  0  0  0  0  0  0  0  0  0
    4.9259   -1.1245    0.0000 H   0  0  0  0  0  0  0  0  0  0  0  0
    7.5162    0.2049    0.0000 H   0  0  0  0  0  0  0  0  0  0  0  0
    7.7529    1.0491    0.0000 H   0  0  0  0  0  0  0  0  0  0  0  0
    6.9086    1.2858    0.0000 H   0  0  0  0  0  0  0  0  0  0  0  0
    7.1698   -2.7948    0.0000 H   0  0  0  0  0  0  0  0  0  0  0  0
    4.4281   -1.9024    0.0000 H   0  0  0  0  0  0  0  0  0  0  0  0
    3.7887   -1.4265    0.0000 H   0  0  0  0  0  0  0  0  0  0  0  0
    6.2262   -4.0698    0.0000 H   0  0  0  0  0  0  0  0  0  0  0  0
    3.7320    1.1800    0.0000 H   0  0  0  0  0  0  0  0  0  0  0  0
    3.0081   -3.6938    0.0000 H   0  0  0  0  0  0  0  0  0  0  0  0
    3.7320    4.4200    0.0000 H   0  0  0  0  0  0  0  0  0  0  0  0
    5.2589   -5.3693    0.0000 H   0  0  0  0  0  0  0  0  0  0  0  0
    3.6498   -5.1813    0.0000 H   0  0  0  0  0  0  0  0  0  0  0  0
    2.5860   -1.3601    0.0000 H   0  0  0  0  0  0  0  0  0  0  0  0
    7.5742    3.2884    0.0000 H   0  0  0  0  0  0  0  0  0  0  0  0
    7.7979    4.1362    0.0000 H   0  0  0  0  0  0  0  0  0  0  0  0
    6.9501    4.3599    0.0000 H   0  0  0  0  0  0  0  0  0  0  0  0
    1.7371   -2.3614    0.0000 H   0  0  0  0  0  0  0  0  0  0  0  0
    1.8643   -3.2289    0.0000 H   0  0  0  0  0  0  0  0  0  0  0  0
    2.7318   -3.1018    0.0000 H   0  0  0  0  0  0  0  0  0  0  0  0
    1.3800    0.8000    0.0000 H   0  0  0  0  0  0  0  0  0  0  0  0
    2.0000    0.1800    0.0000 H   0  0  0  0  0  0  0  0  0  0  0  0
    2.6200    0.8000    0.0000 H   0  0  0  0  0  0  0  0  0  0  0  0
    2.6200    4.8000    0.0000 H   0  0  0  0  0  0  0  0  0  0  0  0
    2.0000    5.4200    0.0000 H   0  0  0  0  0  0  0  0  0  0  0  0
    1.3800    4.8000    0.0000 H   0  0  0  0  0  0  0  0  0  0  0  0
  1  9  1  0  0  0  0
  1 17  1  0  0  0  0
  2 24  1  0  0  0  0
  2 31  1  0  0  0  0
  3 26  1  0  0  0  0
  3 32  1  0  0  0  0
  8  4  1  1  0  0  0
  4 13  1  0  0  0  0
  4 34  1  0  0  0  0
  5 13  2  0  0  0  0
  5 25  1  0  0  0  0
  6 18  1  0  0  0  0
  6 25  2  0  0  0  0
  7 19  1  0  0  0  0
  7 30  1  0  0  0  0
  7 48  1  0  0  0  0
  8  9  1  0  0  0  0
  8 14  1  0  0  0  0
  8 33  1  0  0  0  0
  9 11  2  0  0  0  0
 10 11  1  0  0  0  0
 10 12  1  0  0  0  0
 10 17  2  0  0  0  0
 11 35  1  0  0  0  0
 12 16  1  0  0  0  0
 12 20  2  0  0  0  0
 13 15  1  0  0  0  0
 14 36  1  0  0  0  0
 14 37  1  0  0  0  0
 14 38  1  0  0  0  0
 15 18  1  0  0  0  0
 15 21  2  0  0  0  0
 16 19  1  0  0  0  0
 16 22  2  0  0  0  0
 17 39  1  0  0  0  0
 18 23  2  0  0  0  0
 19 40  1  0  0  0  0
 19 41  1  0  0  0  0
 20 27  1  0  0  0  0
 20 42  1  0  0  0  0
 21 24  1  0  0  0  0
 21 43  1  0  0  0  0
 22 28  1  0  0  0  0
 22 44  1  0  0  0  0
 23 26  1  0  0  0  0
 23 45  1  0  0  0  0
 24 26  2  0  0  0  0
 25 29  1  0  0  0  0
 27 28  2  0  0  0  0
 27 46  1  0  0  0  0
 28 47  1  0  0  0  0
 29 49  1  0  0  0  0
 29 50  1  0  0  0  0
 29 51  1  0  0  0  0
 30 52  1  0  0  0  0
 30 53  1  0  0  0  0
 30 54  1  0  0  0  0
 31 55  1  0  0  0  0
 31 56  1  0  0  0  0
 31 57  1  0  0  0  0
 32 58  1  0  0  0  0
 32 59  1  0  0  0  0
 32 60  1  0  0  0  0
M  END
> <PUBCHEM_COMPOUND_CID>
138973681

> <PUBCHEM_COMPOUND_CANONICALIZED>
1

> <PUBCHEM_CACTVS_COMPLEXITY>
584

> <PUBCHEM_CACTVS_HBOND_ACCEPTOR>
7

> <PUBCHEM_CACTVS_HBOND_DONOR>
2

> <PUBCHEM_CACTVS_ROTATABLE_BOND>
8

> <PUBCHEM_CACTVS_SUBSKEYS>
AAADceB7sABAAAAAAAAAAAAAAAAAASAAAAA8YIAAAAAAAACx/AAAHgQQAAAADCzF3waz9/bIFAikAyZiZACDiKkhKrBJmLg+7JiNLqLk+duENCpu0Bvq6Cew0NMOoEABAgASQABAgAIEACSAAAAAAAAAAA==

> <PUBCHEM_IUPAC_OPENEYE_NAME>
6,7-dimethoxy-2-methyl-N-[(1S)-1-[4-[2-(methylaminomethyl)phenyl]-2-thienyl]ethyl]quinazolin-4-amine

> <PUBCHEM_IUPAC_CAS_NAME>
6,7-dimethoxy-2-methyl-N-[(1S)-1-[4-[2-(methylaminomethyl)phenyl]-2-thiophenyl]ethyl]-4-quinazolinamine

> <PUBCHEM_IUPAC_NAME_MARKUP>
6,7-dimethoxy-2-methyl-<I>N</I>-[(1<I>S</I>)-1-[4-[2-(methylaminomethyl)phenyl]thiophen-2-yl]ethyl]quinazolin-4-amine

> <PUBCHEM_IUPAC_NAME>
6,7-dimethoxy-2-methyl-N-[(1S)-1-[4-[2-(methylaminomethyl)phenyl]thiophen-2-yl]ethyl]quinazolin-4-amine

> <PUBCHEM_IUPAC_SYSTEMATIC_NAME>
6,7-dimethoxy-2-methyl-N-[(1S)-1-[4-[2-(methylaminomethyl)phenyl]thiophen-2-yl]ethyl]quinazolin-4-amine

> <PUBCHEM_IUPAC_TRADITIONAL_NAME>
(6,7-dimethoxy-2-methyl-quinazolin-4-yl)-[(1S)-1-[4-[2-(methylaminomethyl)phenyl]-2-thienyl]ethyl]amine

> <PUBCHEM_IUPAC_INCHI>
InChI=1S/C25H28N4O2S/c1-15(24-10-18(14-32-24)19-9-7-6-8-17(19)13-26-3)27-25-20-11-22(30-4)23(31-5)12-21(20)28-16(2)29-25/h6-12,14-15,26H,13H2,1-5H3,(H,27,28,29)/t15-/m0/s1

> <PUBCHEM_IUPAC_INCHIKEY>
WEGLOYDTDILXDA-HNNXBMFYSA-N

> <PUBCHEM_XLOGP3_AA>
4.8

> <PUBCHEM_EXACT_MASS>
448.19329732

> <PUBCHEM_MOLECULAR_FORMULA>
C25H28N4O2S

> <PUBCHEM_MOLECULAR_WEIGHT>
448.6

> <PUBCHEM_OPENEYE_CAN_SMILES>
CC1=NC2=CC(=C(C=C2C(=N1)NC(C)C3=CC(=CS3)C4=CC=CC=C4CNC)OC)OC

> <PUBCHEM_OPENEYE_ISO_SMILES>
CC1=NC2=CC(=C(C=C2C(=N1)N[C@@H](C)C3=CC(=CS3)C4=CC=CC=C4CNC)OC)OC

> <PUBCHEM_CACTVS_TPSA>
96.5

> <PUBCHEM_MONOISOTOPIC_WEIGHT>
448.19329732

> <PUBCHEM_TOTAL_CHARGE>
0

> <PUBCHEM_HEAVY_ATOM_COUNT>
32

> <PUBCHEM_ATOM_DEF_STEREO_COUNT>
1

> <PUBCHEM_ATOM_UDEF_STEREO_COUNT>
0

> <PUBCHEM_BOND_DEF_STEREO_COUNT>
0

> <PUBCHEM_BOND_UDEF_STEREO_COUNT>
0

> <PUBCHEM_ISOTOPIC_ATOM_COUNT>
0

> <PUBCHEM_COMPONENT_COUNT>
1

> <PUBCHEM_CACTVS_TAUTO_COUNT>
-1

> <PUBCHEM_COORDINATE_TYPE>
1
5
255

> <PUBCHEM_BONDANNOTATIONS>
1  17  8
1  9  8
10  11  8
10  17  8
12  16  8
12  20  8
13  15  8
15  18  8
15  21  8
16  22  8
18  23  8
20  27  8
21  24  8
22  28  8
23  26  8
24  26  8
27  28  8
8  4  5
5  13  8
5  25  8
6  18  8
6  25  8
9  11  8

$$$$
