44340333
  -OEChem-09292322192D

 53 56  0     1  0  0  0  0  0999 V2000
    8.2050   -1.6907    0.0000 O   0  0  0  0  0  0  0  0  0  0  0  0
    9.9371   -1.6907    0.0000 O   0  0  0  0  0  0  0  0  0  0  0  0
    5.3903   -1.8931    0.0000 N   0  0  3  0  0  0  0  0  0  0  0  0
    7.3390   -0.1907    0.0000 N   0  0  0  0  0  0  0  0  0  0  0  0
    6.4730   -0.6907    0.0000 C   0  0  2  0  0  0  0  0  0  0  0  0
    5.5594   -0.2840    0.0000 C   0  0  0  0  0  0  0  0  0  0  0  0
    6.3684   -1.6852    0.0000 C   0  0  0  0  0  0  0  0  0  0  0  0
    4.8903   -1.0271    0.0000 C   0  0  0  0  0  0  0  0  0  0  0  0
    4.9836   -2.8067    0.0000 C   0  0  0  0  0  0  0  0  0  0  0  0
    3.9890   -2.9112    0.0000 C   0  0  0  0  0  0  0  0  0  0  0  0
    8.2050   -0.6907    0.0000 C   0  0  0  0  0  0  0  0  0  0  0  0
    9.0710   -0.1907    0.0000 C   0  0  0  0  0  0  0  0  0  0  0  0
    3.4013   -2.1022    0.0000 C   0  0  0  0  0  0  0  0  0  0  0  0
    3.5823   -3.8248    0.0000 C   0  0  0  0  0  0  0  0  0  0  0  0
    9.9371   -0.6907    0.0000 C   0  0  0  0  0  0  0  0  0  0  0  0
    9.0710    0.8093    0.0000 C   0  0  0  0  0  0  0  0  0  0  0  0
   10.8031   -0.1907    0.0000 C   0  0  0  0  0  0  0  0  0  0  0  0
   10.8031    0.8093    0.0000 C   0  0  0  0  0  0  0  0  0  0  0  0
    2.4067   -2.2067    0.0000 C   0  0  0  0  0  0  0  0  0  0  0  0
    2.5878   -3.9293    0.0000 C   0  0  0  0  0  0  0  0  0  0  0  0
    9.9371    1.3093    0.0000 C   0  0  0  0  0  0  0  0  0  0  0  0
    2.0000   -3.1203    0.0000 C   0  0  0  0  0  0  0  0  0  0  0  0
   11.6970   -0.7254    0.0000 C   0  0  0  0  0  0  0  0  0  0  0  0
   11.6970    1.3440    0.0000 C   0  0  0  0  0  0  0  0  0  0  0  0
   12.6031   -0.2115    0.0000 C   0  0  0  0  0  0  0  0  0  0  0  0
   12.6031    0.8301    0.0000 C   0  0  0  0  0  0  0  0  0  0  0  0
    9.9371    2.3093    0.0000 C   0  0  0  0  0  0  0  0  0  0  0  0
   10.8031   -2.1907    0.0000 C   0  0  0  0  0  0  0  0  0  0  0  0
    9.9371    3.3093    0.0000 C   0  0  0  0  0  0  0  0  0  0  0  0
    6.9930   -1.0284    0.0000 H   0  0  0  0  0  0  0  0  0  0  0  0
    5.8694    0.2530    0.0000 H   0  0  0  0  0  0  0  0  0  0  0  0
    5.0578    0.0805    0.0000 H   0  0  0  0  0  0  0  0  0  0  0  0
    6.4333   -2.3018    0.0000 H   0  0  0  0  0  0  0  0  0  0  0  0
    6.9884   -1.6852    0.0000 H   0  0  0  0  0  0  0  0  0  0  0  0
    4.4754   -0.5664    0.0000 H   0  0  0  0  0  0  0  0  0  0  0  0
    4.3887   -1.3915    0.0000 H   0  0  0  0  0  0  0  0  0  0  0  0
    4.9403   -3.4252    0.0000 H   0  0  0  0  0  0  0  0  0  0  0  0
    5.5851   -2.9567    0.0000 H   0  0  0  0  0  0  0  0  0  0  0  0
    7.3390    0.4293    0.0000 H   0  0  0  0  0  0  0  0  0  0  0  0
    3.6534   -1.5358    0.0000 H   0  0  0  0  0  0  0  0  0  0  0  0
    3.9467   -4.3264    0.0000 H   0  0  0  0  0  0  0  0  0  0  0  0
    8.5341    1.1193    0.0000 H   0  0  0  0  0  0  0  0  0  0  0  0
    2.0423   -1.7051    0.0000 H   0  0  0  0  0  0  0  0  0  0  0  0
    2.3356   -4.4957    0.0000 H   0  0  0  0  0  0  0  0  0  0  0  0
    1.3834   -3.1851    0.0000 H   0  0  0  0  0  0  0  0  0  0  0  0
   11.6899   -1.3453    0.0000 H   0  0  0  0  0  0  0  0  0  0  0  0
   11.6899    1.9639    0.0000 H   0  0  0  0  0  0  0  0  0  0  0  0
   13.1389   -0.5236    0.0000 H   0  0  0  0  0  0  0  0  0  0  0  0
   13.1389    1.1422    0.0000 H   0  0  0  0  0  0  0  0  0  0  0  0
   10.4931   -2.7276    0.0000 H   0  0  0  0  0  0  0  0  0  0  0  0
   11.3400   -2.5007    0.0000 H   0  0  0  0  0  0  0  0  0  0  0  0
   11.1131   -1.6538    0.0000 H   0  0  0  0  0  0  0  0  0  0  0  0
    9.9371    3.9293    0.0000 H   0  0  0  0  0  0  0  0  0  0  0  0
  1 11  2  0  0  0  0
  2 15  1  0  0  0  0
  2 28  1  0  0  0  0
  3  7  1  0  0  0  0
  3  8  1  0  0  0  0
  3  9  1  0  0  0  0
  5  4  1  1  0  0  0
  4 11  1  0  0  0  0
  4 39  1  0  0  0  0
  5  6  1  0  0  0  0
  5  7  1  0  0  0  0
  5 30  1  0  0  0  0
  6  8  1  0  0  0  0
  6 31  1  0  0  0  0
  6 32  1  0  0  0  0
  7 33  1  0  0  0  0
  7 34  1  0  0  0  0
  8 35  1  0  0  0  0
  8 36  1  0  0  0  0
  9 10  1  0  0  0  0
  9 37  1  0  0  0  0
  9 38  1  0  0  0  0
 10 13  2  0  0  0  0
 10 14  1  0  0  0  0
 11 12  1  0  0  0  0
 12 15  2  0  0  0  0
 12 16  1  0  0  0  0
 13 19  1  0  0  0  0
 13 40  1  0  0  0  0
 14 20  2  0  0  0  0
 14 41  1  0  0  0  0
 15 17  1  0  0  0  0
 16 21  2  0  0  0  0
 16 42  1  0  0  0  0
 17 18  1  0  0  0  0
 17 23  2  0  0  0  0
 18 21  1  0  0  0  0
 18 24  2  0  0  0  0
 19 22  2  0  0  0  0
 19 43  1  0  0  0  0
 20 22  1  0  0  0  0
 20 44  1  0  0  0  0
 21 27  1  0  0  0  0
 22 45  1  0  0  0  0
 23 25  1  0  0  0  0
 23 46  1  0  0  0  0
 24 26  1  0  0  0  0
 24 47  1  0  0  0  0
 25 26  2  0  0  0  0
 25 48  1  0  0  0  0
 26 49  1  0  0  0  0
 27 29  3  0  0  0  0
 28 50  1  0  0  0  0
 28 51  1  0  0  0  0
 28 52  1  0  0  0  0
 29 53  1  0  0  0  0
M  END
> <PUBCHEM_COMPOUND_CID>
44340333

> <PUBCHEM_COMPOUND_CANONICALIZED>
1

> <PUBCHEM_CACTVS_COMPLEXITY>
605

> <PUBCHEM_CACTVS_HBOND_ACCEPTOR>
3

> <PUBCHEM_CACTVS_HBOND_DONOR>
1

> <PUBCHEM_CACTVS_ROTATABLE_BOND>
6

> <PUBCHEM_CACTVS_SUBSKEYS>
AAADceB7MAAAAAAAAAAAAAAAAAAAAWAAAAAwYMAAAAAAAADBVAAAHgAQAAAADCzBmAYyBsPABADIGiFSEAiCCAAkIAAIiIEMDMgMZjaE9RuUMWhm9hGIqYeYyPCO4AADAAAYAADAAAYAADAAAAAAAAAAAA==

> <PUBCHEM_IUPAC_OPENEYE_NAME>
N-[(3R)-1-benzylpyrrolidin-3-yl]-4-ethynyl-1-methoxy-naphthalene-2-carboxamide

> <PUBCHEM_IUPAC_CAS_NAME>
4-ethynyl-1-methoxy-N-[(3R)-1-(phenylmethyl)-3-pyrrolidinyl]-2-naphthalenecarboxamide

> <PUBCHEM_IUPAC_NAME_MARKUP>
<I>N</I>-[(3<I>R</I>)-1-benzylpyrrolidin-3-yl]-4-ethynyl-1-methoxynaphthalene-2-carboxamide

> <PUBCHEM_IUPAC_NAME>
N-[(3R)-1-benzylpyrrolidin-3-yl]-4-ethynyl-1-methoxynaphthalene-2-carboxamide

> <PUBCHEM_IUPAC_SYSTEMATIC_NAME>
4-ethynyl-1-methoxy-N-[(3R)-1-(phenylmethyl)pyrrolidin-3-yl]naphthalene-2-carboxamide

> <PUBCHEM_IUPAC_TRADITIONAL_NAME>
N-[(3R)-1-benzylpyrrolidin-3-yl]-4-ethynyl-1-methoxy-2-naphthamide

> <PUBCHEM_IUPAC_INCHI>
InChI=1S/C25H24N2O2/c1-3-19-15-23(24(29-2)22-12-8-7-11-21(19)22)25(28)26-20-13-14-27(17-20)16-18-9-5-4-6-10-18/h1,4-12,15,20H,13-14,16-17H2,2H3,(H,26,28)/t20-/m1/s1

> <PUBCHEM_IUPAC_INCHIKEY>
GLJZGPDTNBDSGN-HXUWFJFHSA-N

> <PUBCHEM_XLOGP3_AA>
4.4

> <PUBCHEM_EXACT_MASS>
384.183778013

> <PUBCHEM_MOLECULAR_FORMULA>
C25H24N2O2

> <PUBCHEM_MOLECULAR_WEIGHT>
384.5

> <PUBCHEM_OPENEYE_CAN_SMILES>
COC1=C(C=C(C2=CC=CC=C21)C#C)C(=O)NC3CCN(C3)CC4=CC=CC=C4

> <PUBCHEM_OPENEYE_ISO_SMILES>
COC1=C(C=C(C2=CC=CC=C21)C#C)C(=O)N[C@@H]3CCN(C3)CC4=CC=CC=C4

> <PUBCHEM_CACTVS_TPSA>
41.6

> <PUBCHEM_MONOISOTOPIC_WEIGHT>
384.183778013

> <PUBCHEM_TOTAL_CHARGE>
0

> <PUBCHEM_HEAVY_ATOM_COUNT>
29

> <PUBCHEM_ATOM_DEF_STEREO_COUNT>
1

> <PUBCHEM_ATOM_UDEF_STEREO_COUNT>
0

> <PUBCHEM_BOND_DEF_STEREO_COUNT>
0

> <PUBCHEM_BOND_UDEF_STEREO_COUNT>
0

> <PUBCHEM_ISOTOPIC_ATOM_COUNT>
0

> <PUBCHEM_COMPONENT_COUNT>
1

> <PUBCHEM_CACTVS_TAUTO_COUNT>
-1

> <PUBCHEM_COORDINATE_TYPE>
1
5
255

> <PUBCHEM_BONDANNOTATIONS>
10  13  8
10  14  8
12  15  8
12  16  8
13  19  8
14  20  8
15  17  8
16  21  8
17  18  8
17  23  8
18  21  8
18  24  8
19  22  8
20  22  8
23  25  8
24  26  8
25  26  8
5  4  5

$$$$
