118711263
  -OEChem-09292322472D

 51 54  0     1  0  0  0  0  0999 V2000
    7.8547    0.2638    0.0000 O   0  0  0  0  0  0  0  0  0  0  0  0
    3.0000   -0.7604    0.0000 N   0  0  3  0  0  0  0  0  0  0  0  0
    4.4088    0.3631    0.0000 C   0  0  3  0  0  0  0  0  0  0  0  0
    3.4339    0.1406    0.0000 C   0  0  0  0  0  0  0  0  0  0  0  0
    5.1906   -0.2604    0.0000 C   0  0  0  0  0  0  0  0  0  0  0  0
    5.1906   -1.2604    0.0000 C   0  0  0  0  0  0  0  0  0  0  0  0
    4.4088   -1.8839    0.0000 C   0  0  0  0  0  0  0  0  0  0  0  0
    3.4339   -1.6614    0.0000 C   0  0  0  0  0  0  0  0  0  0  0  0
    4.6313    1.3380    0.0000 C   0  0  0  0  0  0  0  0  0  0  0  0
    6.0846    0.2743    0.0000 C   0  0  0  0  0  0  0  0  0  0  0  0
    6.0846   -1.7951    0.0000 C   0  0  0  0  0  0  0  0  0  0  0  0
    6.9906   -1.2812    0.0000 C   0  0  0  0  0  0  0  0  0  0  0  0
    2.0000   -0.7604    0.0000 C   0  0  0  0  0  0  0  0  0  0  0  0
    6.9906   -0.2396    0.0000 C   0  0  0  0  0  0  0  0  0  0  0  0
    5.5869    1.6328    0.0000 C   0  0  0  0  0  0  0  0  0  0  0  0
    3.8983    2.0182    0.0000 C   0  0  0  0  0  0  0  0  0  0  0  0
    7.8547   -1.7846    0.0000 C   0  0  0  0  0  0  0  0  0  0  0  0
    5.8094    2.6077    0.0000 C   0  0  0  0  0  0  0  0  0  0  0  0
    4.1208    2.9931    0.0000 C   0  0  0  0  0  0  0  0  0  0  0  0
    7.8509   -2.7845    0.0000 C   0  0  0  0  0  0  0  0  0  0  0  0
    8.7227   -1.2879    0.0000 C   0  0  0  0  0  0  0  0  0  0  0  0
    5.0764    3.2879    0.0000 C   0  0  0  0  0  0  0  0  0  0  0  0
    8.7150   -3.2879    0.0000 C   0  0  0  0  0  0  0  0  0  0  0  0
    6.9829   -3.2812    0.0000 C   0  0  0  0  0  0  0  0  0  0  0  0
    9.5868   -1.7912    0.0000 C   0  0  0  0  0  0  0  0  0  0  0  0
    9.5829   -2.7912    0.0000 C   0  0  0  0  0  0  0  0  0  0  0  0
    3.9704    0.8015    0.0000 H   0  0  0  0  0  0  0  0  0  0  0  0
    3.4339    0.7606    0.0000 H   0  0  0  0  0  0  0  0  0  0  0  0
    2.8294    0.2785    0.0000 H   0  0  0  0  0  0  0  0  0  0  0  0
    4.1398   -2.4425    0.0000 H   0  0  0  0  0  0  0  0  0  0  0  0
    4.8936   -2.2704    0.0000 H   0  0  0  0  0  0  0  0  0  0  0  0
    2.8294   -1.7993    0.0000 H   0  0  0  0  0  0  0  0  0  0  0  0
    3.4339   -2.2814    0.0000 H   0  0  0  0  0  0  0  0  0  0  0  0
    6.0774    0.8942    0.0000 H   0  0  0  0  0  0  0  0  0  0  0  0
    6.0774   -2.4150    0.0000 H   0  0  0  0  0  0  0  0  0  0  0  0
    2.0000   -0.1404    0.0000 H   0  0  0  0  0  0  0  0  0  0  0  0
    1.3800   -0.7604    0.0000 H   0  0  0  0  0  0  0  0  0  0  0  0
    2.0000   -1.3804    0.0000 H   0  0  0  0  0  0  0  0  0  0  0  0
    6.0414    1.2111    0.0000 H   0  0  0  0  0  0  0  0  0  0  0  0
    3.3058    1.8354    0.0000 H   0  0  0  0  0  0  0  0  0  0  0  0
    6.4019    2.7904    0.0000 H   0  0  0  0  0  0  0  0  0  0  0  0
    3.6663    3.4148    0.0000 H   0  0  0  0  0  0  0  0  0  0  0  0
    8.7251   -0.6679    0.0000 H   0  0  0  0  0  0  0  0  0  0  0  0
    5.2143    3.8923    0.0000 H   0  0  0  0  0  0  0  0  0  0  0  0
    7.8524    0.8837    0.0000 H   0  0  0  0  0  0  0  0  0  0  0  0
    8.7126   -3.9079    0.0000 H   0  0  0  0  0  0  0  0  0  0  0  0
    6.6750   -2.7431    0.0000 H   0  0  0  0  0  0  0  0  0  0  0  0
    6.4448   -3.5891    0.0000 H   0  0  0  0  0  0  0  0  0  0  0  0
    7.2909   -3.8193    0.0000 H   0  0  0  0  0  0  0  0  0  0  0  0
   10.1249   -1.4833    0.0000 H   0  0  0  0  0  0  0  0  0  0  0  0
   10.1187   -3.1033    0.0000 H   0  0  0  0  0  0  0  0  0  0  0  0
  1 14  1  0  0  0  0
  1 45  1  0  0  0  0
  2  4  1  0  0  0  0
  2  8  1  0  0  0  0
  2 13  1  0  0  0  0
  3  4  1  0  0  0  0
  3  5  1  0  0  0  0
  3  9  1  0  0  0  0
  3 27  1  0  0  0  0
  4 28  1  0  0  0  0
  4 29  1  0  0  0  0
  5  6  1  0  0  0  0
  5 10  2  0  0  0  0
  6  7  1  0  0  0  0
  6 11  2  0  0  0  0
  7  8  1  0  0  0  0
  7 30  1  0  0  0  0
  7 31  1  0  0  0  0
  8 32  1  0  0  0  0
  8 33  1  0  0  0  0
  9 15  2  0  0  0  0
  9 16  1  0  0  0  0
 10 14  1  0  0  0  0
 10 34  1  0  0  0  0
 11 12  1  0  0  0  0
 11 35  1  0  0  0  0
 12 14  2  0  0  0  0
 12 17  1  0  0  0  0
 13 36  1  0  0  0  0
 13 37  1  0  0  0  0
 13 38  1  0  0  0  0
 15 18  1  0  0  0  0
 15 39  1  0  0  0  0
 16 19  2  0  0  0  0
 16 40  1  0  0  0  0
 17 20  1  0  0  0  0
 17 21  2  0  0  0  0
 18 22  2  0  0  0  0
 18 41  1  0  0  0  0
 19 22  1  0  0  0  0
 19 42  1  0  0  0  0
 20 23  2  0  0  0  0
 20 24  1  0  0  0  0
 21 25  1  0  0  0  0
 21 43  1  0  0  0  0
 22 44  1  0  0  0  0
 23 26  1  0  0  0  0
 23 46  1  0  0  0  0
 24 47  1  0  0  0  0
 24 48  1  0  0  0  0
 24 49  1  0  0  0  0
 25 26  2  0  0  0  0
 25 50  1  0  0  0  0
 26 51  1  0  0  0  0
M  END
> <PUBCHEM_COMPOUND_CID>
118711263

> <PUBCHEM_COMPOUND_CANONICALIZED>
1

> <PUBCHEM_CACTVS_COMPLEXITY>
446

> <PUBCHEM_CACTVS_HBOND_ACCEPTOR>
2

> <PUBCHEM_CACTVS_HBOND_DONOR>
1

> <PUBCHEM_CACTVS_ROTATABLE_BOND>
2

> <PUBCHEM_CACTVS_SUBSKEYS>
AAADceB6IAAAAAAAAAAAAAAAAAAAAAAAAAAwYMAABYAAAAABUAAAHgAACAAADQTBmAQyBoMAAgCAAiBCAAACAAAgIAAIiAAOCIgIJiKCkROEcAAkwBGImAeQ0PIO4AADAAAYAADAAAYAADAAAAAAAAAAAA==

> <PUBCHEM_IUPAC_OPENEYE_NAME>
3-methyl-8-(o-tolyl)-5-phenyl-1,2,4,5-tetrahydro-3-benzazepin-7-ol

> <PUBCHEM_IUPAC_CAS_NAME>
3-methyl-8-(2-methylphenyl)-5-phenyl-1,2,4,5-tetrahydro-3-benzazepin-7-ol

> <PUBCHEM_IUPAC_NAME_MARKUP>
3-methyl-8-(2-methylphenyl)-5-phenyl-1,2,4,5-tetrahydro-3-benzazepin-7-ol

> <PUBCHEM_IUPAC_NAME>
3-methyl-8-(2-methylphenyl)-5-phenyl-1,2,4,5-tetrahydro-3-benzazepin-7-ol

> <PUBCHEM_IUPAC_SYSTEMATIC_NAME>
3-methyl-8-(2-methylphenyl)-5-phenyl-1,2,4,5-tetrahydro-3-benzazepin-7-ol

> <PUBCHEM_IUPAC_TRADITIONAL_NAME>
3-methyl-8-(o-tolyl)-5-phenyl-1,2,4,5-tetrahydro-3-benzazepin-7-ol

> <PUBCHEM_IUPAC_INCHI>
InChI=1S/C24H25NO/c1-17-8-6-7-11-20(17)22-14-19-12-13-25(2)16-23(21(19)15-24(22)26)18-9-4-3-5-10-18/h3-11,14-15,23,26H,12-13,16H2,1-2H3

> <PUBCHEM_IUPAC_INCHIKEY>
XPPRXZLCSISYMO-UHFFFAOYSA-N

> <PUBCHEM_XLOGP3_AA>
5.3

> <PUBCHEM_EXACT_MASS>
343.193614421

> <PUBCHEM_MOLECULAR_FORMULA>
C24H25NO

> <PUBCHEM_MOLECULAR_WEIGHT>
343.5

> <PUBCHEM_OPENEYE_CAN_SMILES>
CC1=CC=CC=C1C2=C(C=C3C(CN(CCC3=C2)C)C4=CC=CC=C4)O

> <PUBCHEM_OPENEYE_ISO_SMILES>
CC1=CC=CC=C1C2=C(C=C3C(CN(CCC3=C2)C)C4=CC=CC=C4)O

> <PUBCHEM_CACTVS_TPSA>
23.5

> <PUBCHEM_MONOISOTOPIC_WEIGHT>
343.193614421

> <PUBCHEM_TOTAL_CHARGE>
0

> <PUBCHEM_HEAVY_ATOM_COUNT>
26

> <PUBCHEM_ATOM_DEF_STEREO_COUNT>
0

> <PUBCHEM_ATOM_UDEF_STEREO_COUNT>
1

> <PUBCHEM_BOND_DEF_STEREO_COUNT>
0

> <PUBCHEM_BOND_UDEF_STEREO_COUNT>
0

> <PUBCHEM_ISOTOPIC_ATOM_COUNT>
0

> <PUBCHEM_COMPONENT_COUNT>
1

> <PUBCHEM_CACTVS_TAUTO_COUNT>
-1

> <PUBCHEM_COORDINATE_TYPE>
1
5
255

> <PUBCHEM_BONDANNOTATIONS>
10  14  8
11  12  8
12  14  8
15  18  8
16  19  8
17  20  8
17  21  8
18  22  8
19  22  8
20  23  8
21  25  8
23  26  8
25  26  8
3  9  3
5  10  8
5  6  8
6  11  8
9  15  8
9  16  8

$$$$
