127025275
  -OEChem-09292322362D

 69 72  0     0  0  0  0  0  0999 V2000
   15.8564   -0.5173    0.0000 O   0  0  0  0  0  0  0  0  0  0  0  0
    3.7320   -0.5173    0.0000 O   0  0  0  0  0  0  0  0  0  0  0  0
    4.5981   -2.0173    0.0000 O   0  0  0  0  0  0  0  0  0  0  0  0
   10.6603    0.4827    0.0000 N   0  0  0  0  0  0  0  0  0  0  0  0
    8.9282   -0.5173    0.0000 N   0  0  0  0  0  0  0  0  0  0  0  0
   14.9904    0.9827    0.0000 N   0  0  0  0  0  0  0  0  0  0  0  0
    5.4641   -0.5173    0.0000 N   0  0  0  0  0  0  0  0  0  0  0  0
    9.7942    0.9827    0.0000 C   0  0  0  0  0  0  0  0  0  0  0  0
   10.6603   -0.5173    0.0000 C   0  0  0  0  0  0  0  0  0  0  0  0
    8.9282    0.4827    0.0000 C   0  0  0  0  0  0  0  0  0  0  0  0
    9.7942   -1.0173    0.0000 C   0  0  0  0  0  0  0  0  0  0  0  0
   11.5263    0.9827    0.0000 C   0  0  0  0  0  0  0  0  0  0  0  0
   12.3923    0.4827    0.0000 C   0  0  0  0  0  0  0  0  0  0  0  0
    8.0622   -1.0173    0.0000 C   0  0  0  0  0  0  0  0  0  0  0  0
   13.2583    0.9827    0.0000 C   0  0  0  0  0  0  0  0  0  0  0  0
   14.1244    0.4827    0.0000 C   0  0  0  0  0  0  0  0  0  0  0  0
    7.1962   -0.5173    0.0000 C   0  0  0  0  0  0  0  0  0  0  0  0
    8.0622   -2.0173    0.0000 C   0  0  0  0  0  0  0  0  0  0  0  0
    6.3301   -1.0173    0.0000 C   0  0  0  0  0  0  0  0  0  0  0  0
    7.1962   -2.5173    0.0000 C   0  0  0  0  0  0  0  0  0  0  0  0
    6.3301   -2.0173    0.0000 C   0  0  0  0  0  0  0  0  0  0  0  0
   15.8564    0.4827    0.0000 C   0  0  0  0  0  0  0  0  0  0  0  0
   16.7224    0.9827    0.0000 C   0  0  0  0  0  0  0  0  0  0  0  0
   17.5885    0.4827    0.0000 C   0  0  0  0  0  0  0  0  0  0  0  0
   16.7224    1.9827    0.0000 C   0  0  0  0  0  0  0  0  0  0  0  0
   18.4545    0.9827    0.0000 C   0  0  0  0  0  0  0  0  0  0  0  0
    4.5981   -1.0173    0.0000 C   0  0  0  0  0  0  0  0  0  0  0  0
   18.4545    1.9827    0.0000 C   0  0  0  0  0  0  0  0  0  0  0  0
   17.5885    2.4827    0.0000 C   0  0  0  0  0  0  0  0  0  0  0  0
   19.3484    0.4480    0.0000 C   0  0  0  0  0  0  0  0  0  0  0  0
   19.3484    2.5173    0.0000 C   0  0  0  0  0  0  0  0  0  0  0  0
   20.2545    0.9619    0.0000 C   0  0  0  0  0  0  0  0  0  0  0  0
   20.2545    2.0035    0.0000 C   0  0  0  0  0  0  0  0  0  0  0  0
    2.8660   -1.0173    0.0000 C   0  0  0  0  0  0  0  0  0  0  0  0
    2.0000   -0.5173    0.0000 C   0  0  0  0  0  0  0  0  0  0  0  0
   10.1928    1.4576    0.0000 H   0  0  0  0  0  0  0  0  0  0  0  0
    9.3957    1.4576    0.0000 H   0  0  0  0  0  0  0  0  0  0  0  0
   10.8723   -1.0999    0.0000 H   0  0  0  0  0  0  0  0  0  0  0  0
   11.2708   -0.4097    0.0000 H   0  0  0  0  0  0  0  0  0  0  0  0
    8.7162    1.0653    0.0000 H   0  0  0  0  0  0  0  0  0  0  0  0
    8.3176    0.3750    0.0000 H   0  0  0  0  0  0  0  0  0  0  0  0
    9.3957   -1.4923    0.0000 H   0  0  0  0  0  0  0  0  0  0  0  0
   10.1928   -1.4923    0.0000 H   0  0  0  0  0  0  0  0  0  0  0  0
   11.9248    1.4576    0.0000 H   0  0  0  0  0  0  0  0  0  0  0  0
   11.1278    1.4576    0.0000 H   0  0  0  0  0  0  0  0  0  0  0  0
   11.9938    0.0077    0.0000 H   0  0  0  0  0  0  0  0  0  0  0  0
   12.7908    0.0077    0.0000 H   0  0  0  0  0  0  0  0  0  0  0  0
   13.6569    1.4576    0.0000 H   0  0  0  0  0  0  0  0  0  0  0  0
   12.8598    1.4576    0.0000 H   0  0  0  0  0  0  0  0  0  0  0  0
   13.7258    0.0077    0.0000 H   0  0  0  0  0  0  0  0  0  0  0  0
   14.5229    0.0077    0.0000 H   0  0  0  0  0  0  0  0  0  0  0  0
    7.1962    0.1027    0.0000 H   0  0  0  0  0  0  0  0  0  0  0  0
    8.5991   -2.3273    0.0000 H   0  0  0  0  0  0  0  0  0  0  0  0
    7.1962   -3.1373    0.0000 H   0  0  0  0  0  0  0  0  0  0  0  0
   14.9904    1.6027    0.0000 H   0  0  0  0  0  0  0  0  0  0  0  0
    5.7932   -2.3273    0.0000 H   0  0  0  0  0  0  0  0  0  0  0  0
    5.4641    0.1027    0.0000 H   0  0  0  0  0  0  0  0  0  0  0  0
   17.5885   -0.1373    0.0000 H   0  0  0  0  0  0  0  0  0  0  0  0
   16.1855    2.2927    0.0000 H   0  0  0  0  0  0  0  0  0  0  0  0
   17.5885    3.1027    0.0000 H   0  0  0  0  0  0  0  0  0  0  0  0
   19.3413   -0.1720    0.0000 H   0  0  0  0  0  0  0  0  0  0  0  0
   19.3413    3.1373    0.0000 H   0  0  0  0  0  0  0  0  0  0  0  0
   20.7902    0.6498    0.0000 H   0  0  0  0  0  0  0  0  0  0  0  0
   20.7902    2.3156    0.0000 H   0  0  0  0  0  0  0  0  0  0  0  0
    2.4675   -1.4923    0.0000 H   0  0  0  0  0  0  0  0  0  0  0  0
    3.2646   -1.4923    0.0000 H   0  0  0  0  0  0  0  0  0  0  0  0
    2.3100    0.0196    0.0000 H   0  0  0  0  0  0  0  0  0  0  0  0
    1.4631   -0.2073    0.0000 H   0  0  0  0  0  0  0  0  0  0  0  0
    1.6900   -1.0543    0.0000 H   0  0  0  0  0  0  0  0  0  0  0  0
  1 22  2  0  0  0  0
  2 27  1  0  0  0  0
  2 34  1  0  0  0  0
  3 27  2  0  0  0  0
  4  8  1  0  0  0  0
  4  9  1  0  0  0  0
  4 12  1  0  0  0  0
  5 10  1  0  0  0  0
  5 11  1  0  0  0  0
  5 14  1  0  0  0  0
  6 16  1  0  0  0  0
  6 22  1  0  0  0  0
  6 55  1  0  0  0  0
  7 19  1  0  0  0  0
  7 27  1  0  0  0  0
  7 57  1  0  0  0  0
  8 10  1  0  0  0  0
  8 36  1  0  0  0  0
  8 37  1  0  0  0  0
  9 11  1  0  0  0  0
  9 38  1  0  0  0  0
  9 39  1  0  0  0  0
 10 40  1  0  0  0  0
 10 41  1  0  0  0  0
 11 42  1  0  0  0  0
 11 43  1  0  0  0  0
 12 13  1  0  0  0  0
 12 44  1  0  0  0  0
 12 45  1  0  0  0  0
 13 15  1  0  0  0  0
 13 46  1  0  0  0  0
 13 47  1  0  0  0  0
 14 17  1  0  0  0  0
 14 18  2  0  0  0  0
 15 16  1  0  0  0  0
 15 48  1  0  0  0  0
 15 49  1  0  0  0  0
 16 50  1  0  0  0  0
 16 51  1  0  0  0  0
 17 19  2  0  0  0  0
 17 52  1  0  0  0  0
 18 20  1  0  0  0  0
 18 53  1  0  0  0  0
 19 21  1  0  0  0  0
 20 21  2  0  0  0  0
 20 54  1  0  0  0  0
 21 56  1  0  0  0  0
 22 23  1  0  0  0  0
 23 24  2  0  0  0  0
 23 25  1  0  0  0  0
 24 26  1  0  0  0  0
 24 58  1  0  0  0  0
 25 29  2  0  0  0  0
 25 59  1  0  0  0  0
 26 28  1  0  0  0  0
 26 30  2  0  0  0  0
 28 29  1  0  0  0  0
 28 31  2  0  0  0  0
 29 60  1  0  0  0  0
 30 32  1  0  0  0  0
 30 61  1  0  0  0  0
 31 33  1  0  0  0  0
 31 62  1  0  0  0  0
 32 33  2  0  0  0  0
 32 63  1  0  0  0  0
 33 64  1  0  0  0  0
 34 35  1  0  0  0  0
 34 65  1  0  0  0  0
 34 66  1  0  0  0  0
 35 67  1  0  0  0  0
 35 68  1  0  0  0  0
 35 69  1  0  0  0  0
M  END
> <PUBCHEM_COMPOUND_CID>
127025275

> <PUBCHEM_COMPOUND_CANONICALIZED>
1

> <PUBCHEM_CACTVS_COMPLEXITY>
667

> <PUBCHEM_CACTVS_HBOND_ACCEPTOR>
5

> <PUBCHEM_CACTVS_HBOND_DONOR>
2

> <PUBCHEM_CACTVS_ROTATABLE_BOND>
10

> <PUBCHEM_CACTVS_SUBSKEYS>
AAADcfB7sAAAAAAAAAAAAAAAAAAAAAAAAAA8YMEAAAAAAADBVAAAHgAQAAAADAjhmAYyyMPABACIAiVSWACCAAAlAgAIiIEIZMkIYDLA1dGcIQhglgDIyYcYiMCOwAACAAQQAACAAAQACCAAAAAAAAAAAA==

> <PUBCHEM_IUPAC_OPENEYE_NAME>
ethyl N-[3-[4-[4-(naphthalene-2-carbonylamino)butyl]piperazin-1-yl]phenyl]carbamate

> <PUBCHEM_IUPAC_CAS_NAME>
N-[3-[4-[4-[[2-naphthalenyl(oxo)methyl]amino]butyl]-1-piperazinyl]phenyl]carbamic acid ethyl ester

> <PUBCHEM_IUPAC_NAME_MARKUP>
ethyl <I>N</I>-[3-[4-[4-(naphthalene-2-carbonylamino)butyl]piperazin-1-yl]phenyl]carbamate

> <PUBCHEM_IUPAC_NAME>
ethyl N-[3-[4-[4-(naphthalene-2-carbonylamino)butyl]piperazin-1-yl]phenyl]carbamate

> <PUBCHEM_IUPAC_SYSTEMATIC_NAME>
ethyl N-[3-[4-[4-(naphthalen-2-ylcarbonylamino)butyl]piperazin-1-yl]phenyl]carbamate

> <PUBCHEM_IUPAC_TRADITIONAL_NAME>
N-[3-[4-[4-(2-naphthoylamino)butyl]piperazino]phenyl]carbamic acid ethyl ester

> <PUBCHEM_IUPAC_INCHI>
InChI=1S/C28H34N4O3/c1-2-35-28(34)30-25-10-7-11-26(21-25)32-18-16-31(17-19-32)15-6-5-14-29-27(33)24-13-12-22-8-3-4-9-23(22)20-24/h3-4,7-13,20-21H,2,5-6,14-19H2,1H3,(H,29,33)(H,30,34)

> <PUBCHEM_IUPAC_INCHIKEY>
GTNQPSDMJWWWGY-UHFFFAOYSA-N

> <PUBCHEM_XLOGP3_AA>
4.7

> <PUBCHEM_EXACT_MASS>
474.26309096

> <PUBCHEM_MOLECULAR_FORMULA>
C28H34N4O3

> <PUBCHEM_MOLECULAR_WEIGHT>
474.6

> <PUBCHEM_OPENEYE_CAN_SMILES>
CCOC(=O)NC1=CC(=CC=C1)N2CCN(CC2)CCCCNC(=O)C3=CC4=CC=CC=C4C=C3

> <PUBCHEM_OPENEYE_ISO_SMILES>
CCOC(=O)NC1=CC(=CC=C1)N2CCN(CC2)CCCCNC(=O)C3=CC4=CC=CC=C4C=C3

> <PUBCHEM_CACTVS_TPSA>
73.9

> <PUBCHEM_MONOISOTOPIC_WEIGHT>
474.26309096

> <PUBCHEM_TOTAL_CHARGE>
0

> <PUBCHEM_HEAVY_ATOM_COUNT>
35

> <PUBCHEM_ATOM_DEF_STEREO_COUNT>
0

> <PUBCHEM_ATOM_UDEF_STEREO_COUNT>
0

> <PUBCHEM_BOND_DEF_STEREO_COUNT>
0

> <PUBCHEM_BOND_UDEF_STEREO_COUNT>
0

> <PUBCHEM_ISOTOPIC_ATOM_COUNT>
0

> <PUBCHEM_COMPONENT_COUNT>
1

> <PUBCHEM_CACTVS_TAUTO_COUNT>
-1

> <PUBCHEM_COORDINATE_TYPE>
1
5
255

> <PUBCHEM_BONDANNOTATIONS>
14  17  8
14  18  8
17  19  8
18  20  8
19  21  8
20  21  8
23  24  8
23  25  8
24  26  8
25  29  8
26  28  8
26  30  8
28  29  8
28  31  8
30  32  8
31  33  8
32  33  8

$$$$
