90645294
  -OEChem-09292322352D

 60 61  0     0  0  0  0  0  0999 V2000
    8.4641    6.7320    0.0000 Cl  0  0  0  0  0  0  0  0  0  0  0  0
    5.9641    4.1340    0.0000 O   0  0  0  0  0  0  0  0  0  0  0  0
    3.0000   -4.7320    0.0000 O   0  0  0  0  0  0  0  0  0  0  0  0
    4.7320   -4.7320    0.0000 O   0  0  0  0  0  0  0  0  0  0  0  0
    6.4641    1.2680    0.0000 N   0  0  0  0  0  0  0  0  0  0  0  0
    3.8660   -3.2320    0.0000 N   0  0  0  0  0  0  0  0  0  0  0  0
    6.4641    3.2680    0.0000 C   0  0  0  0  0  0  0  0  0  0  0  0
    7.3301    2.7680    0.0000 C   0  0  0  0  0  0  0  0  0  0  0  0
    5.5981    2.7680    0.0000 C   0  0  0  0  0  0  0  0  0  0  0  0
    7.3301    1.7680    0.0000 C   0  0  0  0  0  0  0  0  0  0  0  0
    5.5981    1.7680    0.0000 C   0  0  0  0  0  0  0  0  0  0  0  0
    6.4641    0.2679    0.0000 C   0  0  0  0  0  0  0  0  0  0  0  0
    6.9641    4.1340    0.0000 C   0  0  0  0  0  0  0  0  0  0  0  0
    5.5981   -0.2321    0.0000 C   0  0  0  0  0  0  0  0  0  0  0  0
    5.5981   -1.2320    0.0000 C   0  0  0  0  0  0  0  0  0  0  0  0
    7.9641    4.1340    0.0000 C   0  0  0  0  0  0  0  0  0  0  0  0
    6.4641    5.0000    0.0000 C   0  0  0  0  0  0  0  0  0  0  0  0
    4.7320   -1.7320    0.0000 C   0  0  0  0  0  0  0  0  0  0  0  0
    8.4641    5.0000    0.0000 C   0  0  0  0  0  0  0  0  0  0  0  0
    6.9641    5.8660    0.0000 C   0  0  0  0  0  0  0  0  0  0  0  0
    4.7320   -2.7320    0.0000 C   0  0  0  0  0  0  0  0  0  0  0  0
    7.9641    5.8660    0.0000 C   0  0  0  0  0  0  0  0  0  0  0  0
    3.0000   -5.7320    0.0000 C   0  0  0  0  0  0  0  0  0  0  0  0
    3.8660   -4.2320    0.0000 C   0  0  0  0  0  0  0  0  0  0  0  0
    3.0000   -6.7320    0.0000 C   0  0  0  0  0  0  0  0  0  0  0  0
    2.0000   -5.7320    0.0000 C   0  0  0  0  0  0  0  0  0  0  0  0
    4.0000   -5.7320    0.0000 C   0  0  0  0  0  0  0  0  0  0  0  0
    7.9407    2.6603    0.0000 H   0  0  0  0  0  0  0  0  0  0  0  0
    7.5422    3.3506    0.0000 H   0  0  0  0  0  0  0  0  0  0  0  0
    5.3860    3.3506    0.0000 H   0  0  0  0  0  0  0  0  0  0  0  0
    4.9875    2.6603    0.0000 H   0  0  0  0  0  0  0  0  0  0  0  0
    7.5422    1.1853    0.0000 H   0  0  0  0  0  0  0  0  0  0  0  0
    7.9407    1.8756    0.0000 H   0  0  0  0  0  0  0  0  0  0  0  0
    4.9875    1.8756    0.0000 H   0  0  0  0  0  0  0  0  0  0  0  0
    5.3860    1.1853    0.0000 H   0  0  0  0  0  0  0  0  0  0  0  0
    6.6762   -0.3147    0.0000 H   0  0  0  0  0  0  0  0  0  0  0  0
    7.0747    0.3756    0.0000 H   0  0  0  0  0  0  0  0  0  0  0  0
    5.3860    0.3506    0.0000 H   0  0  0  0  0  0  0  0  0  0  0  0
    4.9875   -0.3397    0.0000 H   0  0  0  0  0  0  0  0  0  0  0  0
    5.3441    4.1340    0.0000 H   0  0  0  0  0  0  0  0  0  0  0  0
    5.8101   -1.8147    0.0000 H   0  0  0  0  0  0  0  0  0  0  0  0
    6.2087   -1.1244    0.0000 H   0  0  0  0  0  0  0  0  0  0  0  0
    8.2741    3.5970    0.0000 H   0  0  0  0  0  0  0  0  0  0  0  0
    5.8441    5.0000    0.0000 H   0  0  0  0  0  0  0  0  0  0  0  0
    4.5200   -1.1494    0.0000 H   0  0  0  0  0  0  0  0  0  0  0  0
    4.1215   -1.8397    0.0000 H   0  0  0  0  0  0  0  0  0  0  0  0
    9.0841    5.0000    0.0000 H   0  0  0  0  0  0  0  0  0  0  0  0
    6.6541    6.4030    0.0000 H   0  0  0  0  0  0  0  0  0  0  0  0
    4.9441   -3.3147    0.0000 H   0  0  0  0  0  0  0  0  0  0  0  0
    5.3426   -2.6244    0.0000 H   0  0  0  0  0  0  0  0  0  0  0  0
    3.3291   -2.9220    0.0000 H   0  0  0  0  0  0  0  0  0  0  0  0
    2.3800   -6.7320    0.0000 H   0  0  0  0  0  0  0  0  0  0  0  0
    3.0000   -7.3520    0.0000 H   0  0  0  0  0  0  0  0  0  0  0  0
    3.6200   -6.7320    0.0000 H   0  0  0  0  0  0  0  0  0  0  0  0
    2.0000   -5.1120    0.0000 H   0  0  0  0  0  0  0  0  0  0  0  0
    1.3800   -5.7320    0.0000 H   0  0  0  0  0  0  0  0  0  0  0  0
    2.0000   -6.3520    0.0000 H   0  0  0  0  0  0  0  0  0  0  0  0
    4.0000   -6.3520    0.0000 H   0  0  0  0  0  0  0  0  0  0  0  0
    4.6200   -5.7320    0.0000 H   0  0  0  0  0  0  0  0  0  0  0  0
    4.0000   -5.1120    0.0000 H   0  0  0  0  0  0  0  0  0  0  0  0
  1 22  1  0  0  0  0
  2  7  1  0  0  0  0
  2 40  1  0  0  0  0
  3 23  1  0  0  0  0
  3 24  1  0  0  0  0
  4 24  2  0  0  0  0
  5 10  1  0  0  0  0
  5 11  1  0  0  0  0
  5 12  1  0  0  0  0
  6 21  1  0  0  0  0
  6 24  1  0  0  0  0
  6 51  1  0  0  0  0
  7  8  1  0  0  0  0
  7  9  1  0  0  0  0
  7 13  1  0  0  0  0
  8 10  1  0  0  0  0
  8 28  1  0  0  0  0
  8 29  1  0  0  0  0
  9 11  1  0  0  0  0
  9 30  1  0  0  0  0
  9 31  1  0  0  0  0
 10 32  1  0  0  0  0
 10 33  1  0  0  0  0
 11 34  1  0  0  0  0
 11 35  1  0  0  0  0
 12 14  1  0  0  0  0
 12 36  1  0  0  0  0
 12 37  1  0  0  0  0
 13 16  2  0  0  0  0
 13 17  1  0  0  0  0
 14 15  1  0  0  0  0
 14 38  1  0  0  0  0
 14 39  1  0  0  0  0
 15 18  1  0  0  0  0
 15 41  1  0  0  0  0
 15 42  1  0  0  0  0
 16 19  1  0  0  0  0
 16 43  1  0  0  0  0
 17 20  2  0  0  0  0
 17 44  1  0  0  0  0
 18 21  1  0  0  0  0
 18 45  1  0  0  0  0
 18 46  1  0  0  0  0
 19 22  2  0  0  0  0
 19 47  1  0  0  0  0
 20 22  1  0  0  0  0
 20 48  1  0  0  0  0
 21 49  1  0  0  0  0
 21 50  1  0  0  0  0
 23 25  1  0  0  0  0
 23 26  1  0  0  0  0
 23 27  1  0  0  0  0
 25 52  1  0  0  0  0
 25 53  1  0  0  0  0
 25 54  1  0  0  0  0
 26 55  1  0  0  0  0
 26 56  1  0  0  0  0
 26 57  1  0  0  0  0
 27 58  1  0  0  0  0
 27 59  1  0  0  0  0
 27 60  1  0  0  0  0
M  END
> <PUBCHEM_COMPOUND_CID>
90645294

> <PUBCHEM_COMPOUND_CANONICALIZED>
1

> <PUBCHEM_CACTVS_COMPLEXITY>
451

> <PUBCHEM_CACTVS_HBOND_ACCEPTOR>
4

> <PUBCHEM_CACTVS_HBOND_DONOR>
2

> <PUBCHEM_CACTVS_ROTATABLE_BOND>
9

> <PUBCHEM_CACTVS_SUBSKEYS>
AAADcfB7MAAEAAAAAAAAAAAAAAAAAAAAAAA8QAAAAAAAAAABAAAAHgIQCAAADEbBmCQyCIPABgCIAiBCGAACAAAgBQAIiIAICokIJiKBkxCMcAAm1gGImAeQwOAOhAAAAAAAAAAIAAAAAAAAAAAAAAAAAA==

> <PUBCHEM_IUPAC_OPENEYE_NAME>
tert-butyl N-[5-[4-(4-chlorophenyl)-4-hydroxy-1-piperidyl]pentyl]carbamate

> <PUBCHEM_IUPAC_CAS_NAME>
N-[5-[4-(4-chlorophenyl)-4-hydroxy-1-piperidinyl]pentyl]carbamic acid tert-butyl ester

> <PUBCHEM_IUPAC_NAME_MARKUP>
<I>tert</I>-butyl <I>N</I>-[5-[4-(4-chlorophenyl)-4-hydroxypiperidin-1-yl]pentyl]carbamate

> <PUBCHEM_IUPAC_NAME>
tert-butyl N-[5-[4-(4-chlorophenyl)-4-hydroxypiperidin-1-yl]pentyl]carbamate

> <PUBCHEM_IUPAC_SYSTEMATIC_NAME>
tert-butyl N-[5-[4-(4-chlorophenyl)-4-oxidanyl-piperidin-1-yl]pentyl]carbamate

> <PUBCHEM_IUPAC_TRADITIONAL_NAME>
N-[5-[4-(4-chlorophenyl)-4-hydroxy-piperidino]pentyl]carbamic acid tert-butyl ester

> <PUBCHEM_IUPAC_INCHI>
InChI=1S/C21H33ClN2O3/c1-20(2,3)27-19(25)23-13-5-4-6-14-24-15-11-21(26,12-16-24)17-7-9-18(22)10-8-17/h7-10,26H,4-6,11-16H2,1-3H3,(H,23,25)

> <PUBCHEM_IUPAC_INCHIKEY>
RZIVHWYBTWTWME-UHFFFAOYSA-N

> <PUBCHEM_XLOGP3_AA>
3.8

> <PUBCHEM_EXACT_MASS>
396.2179706

> <PUBCHEM_MOLECULAR_FORMULA>
C21H33ClN2O3

> <PUBCHEM_MOLECULAR_WEIGHT>
396.9

> <PUBCHEM_OPENEYE_CAN_SMILES>
CC(C)(C)OC(=O)NCCCCCN1CCC(CC1)(C2=CC=C(C=C2)Cl)O

> <PUBCHEM_OPENEYE_ISO_SMILES>
CC(C)(C)OC(=O)NCCCCCN1CCC(CC1)(C2=CC=C(C=C2)Cl)O

> <PUBCHEM_CACTVS_TPSA>
61.8

> <PUBCHEM_MONOISOTOPIC_WEIGHT>
396.2179706

> <PUBCHEM_TOTAL_CHARGE>
0

> <PUBCHEM_HEAVY_ATOM_COUNT>
27

> <PUBCHEM_ATOM_DEF_STEREO_COUNT>
0

> <PUBCHEM_ATOM_UDEF_STEREO_COUNT>
0

> <PUBCHEM_BOND_DEF_STEREO_COUNT>
0

> <PUBCHEM_BOND_UDEF_STEREO_COUNT>
0

> <PUBCHEM_ISOTOPIC_ATOM_COUNT>
0

> <PUBCHEM_COMPONENT_COUNT>
1

> <PUBCHEM_CACTVS_TAUTO_COUNT>
-1

> <PUBCHEM_COORDINATE_TYPE>
1
5
255

> <PUBCHEM_BONDANNOTATIONS>
13  16  8
13  17  8
16  19  8
17  20  8
19  22  8
20  22  8

$$$$
