164609536
  -OEChem-09292322432D

 53 56  0     1  0  0  0  0  0999 V2000
    2.9180   -6.0667    0.0000 Br  0  0  0  0  0  0  0  0  0  0  0  0
    5.4176    4.5321    0.0000 O   0  0  0  0  0  0  0  0  0  0  0  0
    8.0436    2.9974    0.0000 O   0  0  0  0  0  0  0  0  0  0  0  0
    2.0000   -1.5770    0.0000 O   0  0  0  0  0  0  0  0  0  0  0  0
    5.4176    2.4628    0.0000 N   0  0  3  0  0  0  0  0  0  0  0  0
    3.7319   -1.5570    0.0000 N   0  0  0  0  0  0  0  0  0  0  0  0
    6.3116    2.9974    0.0000 C   0  0  1  0  0  0  0  0  0  0  0  0
    6.3116    3.9974    0.0000 C   0  0  1  0  0  0  0  0  0  0  0  0
    4.5116    2.9766    0.0000 C   0  0  0  0  0  0  0  0  0  0  0  0
    7.1776    2.4974    0.0000 C   0  0  0  0  0  0  0  0  0  0  0  0
    5.4292    1.4628    0.0000 C   0  0  0  0  0  0  0  0  0  0  0  0
    7.1776    4.4974    0.0000 C   0  0  0  0  0  0  0  0  0  0  0  0
    4.5116    4.0182    0.0000 C   0  0  0  0  0  0  0  0  0  0  0  0
    4.5690    0.9529    0.0000 C   0  0  0  0  0  0  0  0  0  0  0  0
    8.0436    3.9974    0.0000 C   0  0  0  0  0  0  0  0  0  0  0  0
    4.5806   -0.0471    0.0000 C   0  0  0  0  0  0  0  0  0  0  0  0
    7.1615    5.5389    0.0000 C   0  0  0  0  0  0  0  0  0  0  0  0
    8.9536    4.5043    0.0000 C   0  0  0  0  0  0  0  0  0  0  0  0
    3.7204   -0.5571    0.0000 C   0  0  0  0  0  0  0  0  0  0  0  0
    8.0596    6.0667    0.0000 C   0  0  0  0  0  0  0  0  0  0  0  0
    8.9616    5.5459    0.0000 C   0  0  0  0  0  0  0  0  0  0  0  0
    2.8718   -2.0670    0.0000 C   0  0  0  0  0  0  0  0  0  0  0  0
    2.8833   -3.0669    0.0000 C   0  0  0  0  0  0  0  0  0  0  0  0
    3.7551   -3.5568    0.0000 C   0  0  0  0  0  0  0  0  0  0  0  0
    2.0231   -3.5769    0.0000 C   0  0  0  0  0  0  0  0  0  0  0  0
    3.7666   -4.5568    0.0000 C   0  0  0  0  0  0  0  0  0  0  0  0
    2.0347   -4.5768    0.0000 C   0  0  0  0  0  0  0  0  0  0  0  0
    2.9064   -5.0668    0.0000 C   0  0  0  0  0  0  0  0  0  0  0  0
    6.3181    2.1475    0.0000 H   0  0  0  0  0  0  0  0  0  0  0  0
    6.3181    4.8474    0.0000 H   0  0  0  0  0  0  0  0  0  0  0  0
    3.9007    3.0827    0.0000 H   0  0  0  0  0  0  0  0  0  0  0  0
    4.3025    2.3929    0.0000 H   0  0  0  0  0  0  0  0  0  0  0  0
    6.7791    2.0225    0.0000 H   0  0  0  0  0  0  0  0  0  0  0  0
    7.5761    2.0225    0.0000 H   0  0  0  0  0  0  0  0  0  0  0  0
    5.6480    0.8827    0.0000 H   0  0  0  0  0  0  0  0  0  0  0  0
    6.0385    1.5776    0.0000 H   0  0  0  0  0  0  0  0  0  0  0  0
    4.3025    4.6019    0.0000 H   0  0  0  0  0  0  0  0  0  0  0  0
    3.9007    3.9122    0.0000 H   0  0  0  0  0  0  0  0  0  0  0  0
    4.3502    1.5330    0.0000 H   0  0  0  0  0  0  0  0  0  0  0  0
    3.9597    0.8381    0.0000 H   0  0  0  0  0  0  0  0  0  0  0  0
    4.7993   -0.6272    0.0000 H   0  0  0  0  0  0  0  0  0  0  0  0
    5.1898    0.0676    0.0000 H   0  0  0  0  0  0  0  0  0  0  0  0
    6.6210    5.8427    0.0000 H   0  0  0  0  0  0  0  0  0  0  0  0
    9.4869    4.1881    0.0000 H   0  0  0  0  0  0  0  0  0  0  0  0
    3.5016    0.0231    0.0000 H   0  0  0  0  0  0  0  0  0  0  0  0
    3.1111   -0.6718    0.0000 H   0  0  0  0  0  0  0  0  0  0  0  0
    8.0572    6.6867    0.0000 H   0  0  0  0  0  0  0  0  0  0  0  0
    9.4998    5.8538    0.0000 H   0  0  0  0  0  0  0  0  0  0  0  0
    4.2724   -1.8608    0.0000 H   0  0  0  0  0  0  0  0  0  0  0  0
    4.2884   -3.2407    0.0000 H   0  0  0  0  0  0  0  0  0  0  0  0
    1.4826   -3.2731    0.0000 H   0  0  0  0  0  0  0  0  0  0  0  0
    4.3071   -4.8606    0.0000 H   0  0  0  0  0  0  0  0  0  0  0  0
    1.5014   -4.8930    0.0000 H   0  0  0  0  0  0  0  0  0  0  0  0
  1 28  1  0  0  0  0
  2  8  1  0  0  0  0
  2 13  1  0  0  0  0
  3 10  1  0  0  0  0
  3 15  1  0  0  0  0
  4 22  2  0  0  0  0
  5  7  1  0  0  0  0
  5  9  1  0  0  0  0
  5 11  1  0  0  0  0
  6 19  1  0  0  0  0
  6 22  1  0  0  0  0
  6 49  1  0  0  0  0
  7  8  1  0  0  0  0
  7 10  1  0  0  0  0
  7 29  1  6  0  0  0
  8 12  1  0  0  0  0
  8 30  1  1  0  0  0
  9 13  1  0  0  0  0
  9 31  1  0  0  0  0
  9 32  1  0  0  0  0
 10 33  1  0  0  0  0
 10 34  1  0  0  0  0
 11 14  1  0  0  0  0
 11 35  1  0  0  0  0
 11 36  1  0  0  0  0
 12 15  1  0  0  0  0
 12 17  2  0  0  0  0
 13 37  1  0  0  0  0
 13 38  1  0  0  0  0
 14 16  1  0  0  0  0
 14 39  1  0  0  0  0
 14 40  1  0  0  0  0
 15 18  2  0  0  0  0
 16 19  1  0  0  0  0
 16 41  1  0  0  0  0
 16 42  1  0  0  0  0
 17 20  1  0  0  0  0
 17 43  1  0  0  0  0
 18 21  1  0  0  0  0
 18 44  1  0  0  0  0
 19 45  1  0  0  0  0
 19 46  1  0  0  0  0
 20 21  2  0  0  0  0
 20 47  1  0  0  0  0
 21 48  1  0  0  0  0
 22 23  1  0  0  0  0
 23 24  2  0  0  0  0
 23 25  1  0  0  0  0
 24 26  1  0  0  0  0
 24 50  1  0  0  0  0
 25 27  2  0  0  0  0
 25 51  1  0  0  0  0
 26 28  2  0  0  0  0
 26 52  1  0  0  0  0
 27 28  1  0  0  0  0
 27 53  1  0  0  0  0
M  END
> <PUBCHEM_COMPOUND_CID>
164609536

> <PUBCHEM_COMPOUND_CANONICALIZED>
1

> <PUBCHEM_CACTVS_COMPLEXITY>
512

> <PUBCHEM_CACTVS_HBOND_ACCEPTOR>
4

> <PUBCHEM_CACTVS_HBOND_DONOR>
1

> <PUBCHEM_CACTVS_ROTATABLE_BOND>
6

> <PUBCHEM_CACTVS_SUBSKEYS>
AAADceB7MAAAEAAAAAAAAAAAAAAAAAAAAAA8aIEAAAAAAACxQAAAHgBQAAABrDzhmAYwBoPABACIAiFSEACCCAAkIAQIiIEODOgOJzKEtRuHOSjl1hGYq5e4yKCOAgAAAAAIAAAEAAAAABAAAAAAAAAAAA==

> <PUBCHEM_IUPAC_OPENEYE_NAME>
N-[4-[(4aR,10bR)-3,4a,5,10b-tetrahydro-2H-chromeno[4,3-b][1,4]oxazin-4-yl]butyl]-4-bromo-benzamide

> <PUBCHEM_IUPAC_CAS_NAME>
N-[4-[(4aR,10bR)-3,4a,5,10b-tetrahydro-2H-[1]benzopyrano[4,3-b][1,4]oxazin-4-yl]butyl]-4-bromobenzamide

> <PUBCHEM_IUPAC_NAME_MARKUP>
<I>N</I>-[4-[(4<I>a</I><I>R</I>,10<I>b</I><I>R</I>)-3,4<I>a</I>,5,10<I>b</I>-tetrahydro-2<I>H</I>-chromeno[4,3-b][1,4]oxazin-4-yl]butyl]-4-bromobenzamide

> <PUBCHEM_IUPAC_NAME>
N-[4-[(4aR,10bR)-3,4a,5,10b-tetrahydro-2H-chromeno[4,3-b][1,4]oxazin-4-yl]butyl]-4-bromobenzamide

> <PUBCHEM_IUPAC_SYSTEMATIC_NAME>
N-[4-[(4aR,10bR)-3,4a,5,10b-tetrahydro-2H-chromeno[4,3-b][1,4]oxazin-4-yl]butyl]-4-bromanyl-benzamide

> <PUBCHEM_IUPAC_TRADITIONAL_NAME>
N-[4-[(4aR,10bR)-3,4a,5,10b-tetrahydro-2H-chromeno[4,3-b][1,4]oxazin-4-yl]butyl]-4-bromo-benzamide

> <PUBCHEM_IUPAC_INCHI>
InChI=1S/C22H25BrN2O3/c23-17-9-7-16(8-10-17)22(26)24-11-3-4-12-25-13-14-27-21-18-5-1-2-6-20(18)28-15-19(21)25/h1-2,5-10,19,21H,3-4,11-15H2,(H,24,26)/t19-,21-/m1/s1

> <PUBCHEM_IUPAC_INCHIKEY>
OHJSWFDQAUGCDZ-TZIWHRDSSA-N

> <PUBCHEM_XLOGP3>
3.8

> <PUBCHEM_EXACT_MASS>
444.10486

> <PUBCHEM_MOLECULAR_FORMULA>
C22H25BrN2O3

> <PUBCHEM_MOLECULAR_WEIGHT>
445.3

> <PUBCHEM_OPENEYE_CAN_SMILES>
C1COC2C(N1CCCCNC(=O)C3=CC=C(C=C3)Br)COC4=CC=CC=C24

> <PUBCHEM_OPENEYE_ISO_SMILES>
C1CO[C@H]2[C@H](N1CCCCNC(=O)C3=CC=C(C=C3)Br)COC4=CC=CC=C24

> <PUBCHEM_CACTVS_TPSA>
50.8

> <PUBCHEM_MONOISOTOPIC_WEIGHT>
444.10486

> <PUBCHEM_TOTAL_CHARGE>
0

> <PUBCHEM_HEAVY_ATOM_COUNT>
28

> <PUBCHEM_ATOM_DEF_STEREO_COUNT>
2

> <PUBCHEM_ATOM_UDEF_STEREO_COUNT>
0

> <PUBCHEM_BOND_DEF_STEREO_COUNT>
0

> <PUBCHEM_BOND_UDEF_STEREO_COUNT>
0

> <PUBCHEM_ISOTOPIC_ATOM_COUNT>
0

> <PUBCHEM_COMPONENT_COUNT>
1

> <PUBCHEM_CACTVS_TAUTO_COUNT>
-1

> <PUBCHEM_COORDINATE_TYPE>
1
5
255

> <PUBCHEM_BONDANNOTATIONS>
12  15  8
12  17  8
15  18  8
17  20  8
18  21  8
20  21  8
23  24  8
23  25  8
24  26  8
25  27  8
26  28  8
27  28  8
7  29  6
8  30  5

$$$$
