25131876
  -OEChem-09292322392D

 60 63  0     1  0  0  0  0  0999 V2000
    7.1962    2.2010    0.0000 O   0  0  0  0  0  0  0  0  0  0  0  0
    8.9282    1.2010    0.0000 O   0  0  0  0  0  0  0  0  0  0  0  0
    4.5981   -2.2990    0.0000 O   0  0  0  0  0  0  0  0  0  0  0  0
    2.8660   -3.2990    0.0000 O   0  0  0  0  0  0  0  0  0  0  0  0
    6.3301   -0.2990    0.0000 N   0  0  0  0  0  0  0  0  0  0  0  0
    8.0622    2.7010    0.0000 C   0  0  0  0  0  0  0  0  0  0  0  0
    7.1962    1.2010    0.0000 C   0  0  3  0  0  0  0  0  0  0  0  0
    8.9282    2.2010    0.0000 C   0  0  0  0  0  0  0  0  0  0  0  0
    8.0622    0.7010    0.0000 C   0  0  0  0  0  0  0  0  0  0  0  0
    9.0019    3.0430    0.0000 C   0  0  0  0  0  0  0  0  0  0  0  0
    7.5622    3.5670    0.0000 C   0  0  0  0  0  0  0  0  0  0  0  0
    6.3301    0.7010    0.0000 C   0  0  0  0  0  0  0  0  0  0  0  0
    9.1755    4.0278    0.0000 C   0  0  0  0  0  0  0  0  0  0  0  0
    6.5622    3.5670    0.0000 C   0  0  0  0  0  0  0  0  0  0  0  0
    9.7679    2.4002    0.0000 C   0  0  0  0  0  0  0  0  0  0  0  0
    8.0622    4.4330    0.0000 C   0  0  0  0  0  0  0  0  0  0  0  0
    5.4641   -0.7990    0.0000 C   0  0  0  0  0  0  0  0  0  0  0  0
   10.1152    4.3698    0.0000 C   0  0  0  0  0  0  0  0  0  0  0  0
    6.0622    4.4330    0.0000 C   0  0  0  0  0  0  0  0  0  0  0  0
   10.7076    2.7422    0.0000 C   0  0  0  0  0  0  0  0  0  0  0  0
    7.5622    5.2990    0.0000 C   0  0  0  0  0  0  0  0  0  0  0  0
   10.8813    3.7270    0.0000 C   0  0  0  0  0  0  0  0  0  0  0  0
    6.5622    5.2990    0.0000 C   0  0  0  0  0  0  0  0  0  0  0  0
    5.4641   -1.7990    0.0000 C   0  0  0  0  0  0  0  0  0  0  0  0
    4.5981   -3.2990    0.0000 C   0  0  0  0  0  0  0  0  0  0  0  0
    3.7320   -3.7990    0.0000 C   0  0  0  0  0  0  0  0  0  0  0  0
    5.4641   -3.7990    0.0000 C   0  0  0  0  0  0  0  0  0  0  0  0
    3.7320   -4.7990    0.0000 C   0  0  0  0  0  0  0  0  0  0  0  0
    5.4641   -4.7990    0.0000 C   0  0  0  0  0  0  0  0  0  0  0  0
    4.5981   -5.2990    0.0000 C   0  0  0  0  0  0  0  0  0  0  0  0
    2.0000   -3.7990    0.0000 C   0  0  0  0  0  0  0  0  0  0  0  0
    6.6592    1.5110    0.0000 H   0  0  0  0  0  0  0  0  0  0  0  0
    9.5388    2.0933    0.0000 H   0  0  0  0  0  0  0  0  0  0  0  0
    9.1403    2.7836    0.0000 H   0  0  0  0  0  0  0  0  0  0  0  0
    7.6636    0.2260    0.0000 H   0  0  0  0  0  0  0  0  0  0  0  0
    8.4607    0.2260    0.0000 H   0  0  0  0  0  0  0  0  0  0  0  0
    6.1181    1.2836    0.0000 H   0  0  0  0  0  0  0  0  0  0  0  0
    5.7196    0.5933    0.0000 H   0  0  0  0  0  0  0  0  0  0  0  0
    6.8671   -0.6090    0.0000 H   0  0  0  0  0  0  0  0  0  0  0  0
    8.7006    4.4263    0.0000 H   0  0  0  0  0  0  0  0  0  0  0  0
    6.2522    3.0300    0.0000 H   0  0  0  0  0  0  0  0  0  0  0  0
    9.6602    1.7896    0.0000 H   0  0  0  0  0  0  0  0  0  0  0  0
    8.6822    4.4330    0.0000 H   0  0  0  0  0  0  0  0  0  0  0  0
    5.2520   -0.2164    0.0000 H   0  0  0  0  0  0  0  0  0  0  0  0
    4.8535   -0.9067    0.0000 H   0  0  0  0  0  0  0  0  0  0  0  0
   10.2229    4.9804    0.0000 H   0  0  0  0  0  0  0  0  0  0  0  0
    5.4422    4.4330    0.0000 H   0  0  0  0  0  0  0  0  0  0  0  0
   11.1826    2.3437    0.0000 H   0  0  0  0  0  0  0  0  0  0  0  0
    7.8722    5.8360    0.0000 H   0  0  0  0  0  0  0  0  0  0  0  0
   11.4639    3.9391    0.0000 H   0  0  0  0  0  0  0  0  0  0  0  0
    6.2522    5.8360    0.0000 H   0  0  0  0  0  0  0  0  0  0  0  0
    5.6762   -2.3816    0.0000 H   0  0  0  0  0  0  0  0  0  0  0  0
    6.0747   -1.6914    0.0000 H   0  0  0  0  0  0  0  0  0  0  0  0
    6.0010   -3.4890    0.0000 H   0  0  0  0  0  0  0  0  0  0  0  0
    3.1951   -5.1090    0.0000 H   0  0  0  0  0  0  0  0  0  0  0  0
    6.0010   -5.1090    0.0000 H   0  0  0  0  0  0  0  0  0  0  0  0
    4.5981   -5.9190    0.0000 H   0  0  0  0  0  0  0  0  0  0  0  0
    1.6900   -3.2621    0.0000 H   0  0  0  0  0  0  0  0  0  0  0  0
    1.4631   -4.1090    0.0000 H   0  0  0  0  0  0  0  0  0  0  0  0
    2.3100   -4.3360    0.0000 H   0  0  0  0  0  0  0  0  0  0  0  0
  1  6  1  0  0  0  0
  1  7  1  0  0  0  0
  2  8  1  0  0  0  0
  2  9  1  0  0  0  0
  3 24  1  0  0  0  0
  3 25  1  0  0  0  0
  4 26  1  0  0  0  0
  4 31  1  0  0  0  0
  5 12  1  0  0  0  0
  5 17  1  0  0  0  0
  5 39  1  0  0  0  0
  6  8  1  0  0  0  0
  6 10  1  0  0  0  0
  6 11  1  0  0  0  0
  7  9  1  0  0  0  0
  7 12  1  0  0  0  0
  7 32  1  0  0  0  0
  8 33  1  0  0  0  0
  8 34  1  0  0  0  0
  9 35  1  0  0  0  0
  9 36  1  0  0  0  0
 10 13  2  0  0  0  0
 10 15  1  0  0  0  0
 11 14  2  0  0  0  0
 11 16  1  0  0  0  0
 12 37  1  0  0  0  0
 12 38  1  0  0  0  0
 13 18  1  0  0  0  0
 13 40  1  0  0  0  0
 14 19  1  0  0  0  0
 14 41  1  0  0  0  0
 15 20  2  0  0  0  0
 15 42  1  0  0  0  0
 16 21  2  0  0  0  0
 16 43  1  0  0  0  0
 17 24  1  0  0  0  0
 17 44  1  0  0  0  0
 17 45  1  0  0  0  0
 18 22  2  0  0  0  0
 18 46  1  0  0  0  0
 19 23  2  0  0  0  0
 19 47  1  0  0  0  0
 20 22  1  0  0  0  0
 20 48  1  0  0  0  0
 21 23  1  0  0  0  0
 21 49  1  0  0  0  0
 22 50  1  0  0  0  0
 23 51  1  0  0  0  0
 24 52  1  0  0  0  0
 24 53  1  0  0  0  0
 25 26  1  0  0  0  0
 25 27  2  0  0  0  0
 26 28  2  0  0  0  0
 27 29  1  0  0  0  0
 27 54  1  0  0  0  0
 28 30  1  0  0  0  0
 28 55  1  0  0  0  0
 29 30  2  0  0  0  0
 29 56  1  0  0  0  0
 30 57  1  0  0  0  0
 31 58  1  0  0  0  0
 31 59  1  0  0  0  0
 31 60  1  0  0  0  0
M  END
> <PUBCHEM_COMPOUND_CID>
25131876

> <PUBCHEM_COMPOUND_CANONICALIZED>
1

> <PUBCHEM_CACTVS_COMPLEXITY>
486

> <PUBCHEM_CACTVS_HBOND_ACCEPTOR>
5

> <PUBCHEM_CACTVS_HBOND_DONOR>
1

> <PUBCHEM_CACTVS_ROTATABLE_BOND>
9

> <PUBCHEM_CACTVS_SUBSKEYS>
AAADceB6OAAAAAAAAAAAAAAAAAAAAAAAAAA0YMEAAAAAAAABUAAAHgAQAAAADFThmAYyBoLABACAAiBCAAACCAAgIAAIiIAOiIgPJiKEMRqHOCKm0BGaqAeAwOAOgAAAAAAAQAAAAAAAAACAAAAAAAAAAA==

> <PUBCHEM_IUPAC_OPENEYE_NAME>
N-[(6,6-diphenyl-1,4-dioxan-2-yl)methyl]-2-(2-methoxyphenoxy)ethanamine

> <PUBCHEM_IUPAC_CAS_NAME>
N-[(6,6-diphenyl-1,4-dioxan-2-yl)methyl]-2-(2-methoxyphenoxy)ethanamine

> <PUBCHEM_IUPAC_NAME_MARKUP>
<I>N</I>-[(6,6-diphenyl-1,4-dioxan-2-yl)methyl]-2-(2-methoxyphenoxy)ethanamine

> <PUBCHEM_IUPAC_NAME>
N-[(6,6-diphenyl-1,4-dioxan-2-yl)methyl]-2-(2-methoxyphenoxy)ethanamine

> <PUBCHEM_IUPAC_SYSTEMATIC_NAME>
N-[(6,6-diphenyl-1,4-dioxan-2-yl)methyl]-2-(2-methoxyphenoxy)ethanamine

> <PUBCHEM_IUPAC_TRADITIONAL_NAME>
(6,6-diphenyl-1,4-dioxan-2-yl)methyl-[2-(2-methoxyphenoxy)ethyl]amine

> <PUBCHEM_IUPAC_INCHI>
InChI=1S/C26H29NO4/c1-28-24-14-8-9-15-25(24)30-17-16-27-18-23-19-29-20-26(31-23,21-10-4-2-5-11-21)22-12-6-3-7-13-22/h2-15,23,27H,16-20H2,1H3

> <PUBCHEM_IUPAC_INCHIKEY>
HIASEHRDTBGCHW-UHFFFAOYSA-N

> <PUBCHEM_XLOGP3_AA>
4

> <PUBCHEM_EXACT_MASS>
419.20965841

> <PUBCHEM_MOLECULAR_FORMULA>
C26H29NO4

> <PUBCHEM_MOLECULAR_WEIGHT>
419.5

> <PUBCHEM_OPENEYE_CAN_SMILES>
COC1=CC=CC=C1OCCNCC2COCC(O2)(C3=CC=CC=C3)C4=CC=CC=C4

> <PUBCHEM_OPENEYE_ISO_SMILES>
COC1=CC=CC=C1OCCNCC2COCC(O2)(C3=CC=CC=C3)C4=CC=CC=C4

> <PUBCHEM_CACTVS_TPSA>
49

> <PUBCHEM_MONOISOTOPIC_WEIGHT>
419.20965841

> <PUBCHEM_TOTAL_CHARGE>
0

> <PUBCHEM_HEAVY_ATOM_COUNT>
31

> <PUBCHEM_ATOM_DEF_STEREO_COUNT>
0

> <PUBCHEM_ATOM_UDEF_STEREO_COUNT>
1

> <PUBCHEM_BOND_DEF_STEREO_COUNT>
0

> <PUBCHEM_BOND_UDEF_STEREO_COUNT>
0

> <PUBCHEM_ISOTOPIC_ATOM_COUNT>
0

> <PUBCHEM_COMPONENT_COUNT>
1

> <PUBCHEM_CACTVS_TAUTO_COUNT>
-1

> <PUBCHEM_COORDINATE_TYPE>
1
5
255

> <PUBCHEM_BONDANNOTATIONS>
10  13  8
10  15  8
11  14  8
11  16  8
13  18  8
14  19  8
15  20  8
16  21  8
18  22  8
19  23  8
20  22  8
21  23  8
25  26  8
25  27  8
26  28  8
27  29  8
28  30  8
29  30  8
7  12  3

$$$$
