417052
  -OEChem-09292322522D

 30 32  0     0  0  0  0  0  0999 V2000
    7.3991   -1.7403    0.0000 O   0  0  0  0  0  0  0  0  0  0  0  0
    4.5274    1.1203    0.0000 N   0  0  0  0  0  0  0  0  0  0  0  0
    2.0000   -0.0039    0.0000 N   0  0  0  0  0  0  0  0  0  0  0  0
    4.0274   -0.4185    0.0000 C   0  0  0  0  0  0  0  0  0  0  0  0
    3.7183    0.5325    0.0000 C   0  0  0  0  0  0  0  0  0  0  0  0
    5.0274   -0.4185    0.0000 C   0  0  0  0  0  0  0  0  0  0  0  0
    3.3424   -1.2033    0.0000 C   0  0  0  0  0  0  0  0  0  0  0  0
    5.3364    0.5325    0.0000 C   0  0  0  0  0  0  0  0  0  0  0  0
    2.3219   -0.9946    0.0000 C   0  0  0  0  0  0  0  0  0  0  0  0
    2.7029    0.7648    0.0000 C   0  0  0  0  0  0  0  0  0  0  0  0
    5.7123   -1.2033    0.0000 C   0  0  0  0  0  0  0  0  0  0  0  0
    6.3518    0.7648    0.0000 C   0  0  0  0  0  0  0  0  0  0  0  0
    6.7328   -0.9946    0.0000 C   0  0  0  0  0  0  0  0  0  0  0  0
    2.4049    1.7193    0.0000 C   0  0  0  0  0  0  0  0  0  0  0  0
    7.0547   -0.0039    0.0000 C   0  0  0  0  0  0  0  0  0  0  0  0
    8.3780   -1.5362    0.0000 C   0  0  0  0  0  0  0  0  0  0  0  0
    3.1160   -1.7805    0.0000 H   0  0  0  0  0  0  0  0  0  0  0  0
    3.8724   -1.5250    0.0000 H   0  0  0  0  0  0  0  0  0  0  0  0
    4.5274    1.7403    0.0000 H   0  0  0  0  0  0  0  0  0  0  0  0
    1.7081   -1.0824    0.0000 H   0  0  0  0  0  0  0  0  0  0  0  0
    2.3034   -1.6143    0.0000 H   0  0  0  0  0  0  0  0  0  0  0  0
    5.5139   -1.7907    0.0000 H   0  0  0  0  0  0  0  0  0  0  0  0
    6.5365    1.3566    0.0000 H   0  0  0  0  0  0  0  0  0  0  0  0
    2.9968    1.9041    0.0000 H   0  0  0  0  0  0  0  0  0  0  0  0
    2.2202    2.3112    0.0000 H   0  0  0  0  0  0  0  0  0  0  0  0
    1.8131    1.5346    0.0000 H   0  0  0  0  0  0  0  0  0  0  0  0
    7.6607    0.1273    0.0000 H   0  0  0  0  0  0  0  0  0  0  0  0
    8.5046   -2.1431    0.0000 H   0  0  0  0  0  0  0  0  0  0  0  0
    8.9850   -1.4096    0.0000 H   0  0  0  0  0  0  0  0  0  0  0  0
    8.2515   -0.9292    0.0000 H   0  0  0  0  0  0  0  0  0  0  0  0
  1 13  1  0  0  0  0
  1 16  1  0  0  0  0
  2  5  1  0  0  0  0
  2  8  1  0  0  0  0
  2 19  1  0  0  0  0
  3  9  1  0  0  0  0
  3 10  2  0  0  0  0
  4  5  2  0  0  0  0
  4  6  1  0  0  0  0
  4  7  1  0  0  0  0
  5 10  1  0  0  0  0
  6  8  2  0  0  0  0
  6 11  1  0  0  0  0
  7  9  1  0  0  0  0
  7 17  1  0  0  0  0
  7 18  1  0  0  0  0
  8 12  1  0  0  0  0
  9 20  1  0  0  0  0
  9 21  1  0  0  0  0
 10 14  1  0  0  0  0
 11 13  2  0  0  0  0
 11 22  1  0  0  0  0
 12 15  2  0  0  0  0
 12 23  1  0  0  0  0
 13 15  1  0  0  0  0
 14 24  1  0  0  0  0
 14 25  1  0  0  0  0
 14 26  1  0  0  0  0
 15 27  1  0  0  0  0
 16 28  1  0  0  0  0
 16 29  1  0  0  0  0
 16 30  1  0  0  0  0
M  END
> <PUBCHEM_COMPOUND_CID>
417052

> <PUBCHEM_COMPOUND_CANONICALIZED>
1

> <PUBCHEM_CACTVS_COMPLEXITY>
302

> <PUBCHEM_CACTVS_HBOND_ACCEPTOR>
2

> <PUBCHEM_CACTVS_HBOND_DONOR>
1

> <PUBCHEM_CACTVS_ROTATABLE_BOND>
1

> <PUBCHEM_CACTVS_SUBSKEYS>
AAADccBzIAAAAAAAAAAAAAAAAAAAAWAAAAAwQAAAAAAAAFgB8AAAHgAQAAAADAzBngYyxvLJlACgAyRiRACCiCAhIiAImSA2bJgMJuLEsZuEMChk0BHI6Aew0PMOgEABAAACAAAAgAIAAAQAAAAAAAAAAA==

> <PUBCHEM_IUPAC_OPENEYE_NAME>
6-methoxy-1-methyl-4,9-dihydro-3H-pyrido[3,4-b]indole

> <PUBCHEM_IUPAC_CAS_NAME>
6-methoxy-1-methyl-4,9-dihydro-3H-pyrido[3,4-b]indole

> <PUBCHEM_IUPAC_NAME_MARKUP>
6-methoxy-1-methyl-4,9-dihydro-3<I>H</I>-pyrido[3,4-b]indole

> <PUBCHEM_IUPAC_NAME>
6-methoxy-1-methyl-4,9-dihydro-3H-pyrido[3,4-b]indole

> <PUBCHEM_IUPAC_SYSTEMATIC_NAME>
6-methoxy-1-methyl-4,9-dihydro-3H-pyrido[3,4-b]indole

> <PUBCHEM_IUPAC_TRADITIONAL_NAME>
6-methoxy-1-methyl-4,9-dihydro-3H-beta-carboline

> <PUBCHEM_IUPAC_INCHI>
InChI=1S/C13H14N2O/c1-8-13-10(5-6-14-8)11-7-9(16-2)3-4-12(11)15-13/h3-4,7,15H,5-6H2,1-2H3

> <PUBCHEM_IUPAC_INCHIKEY>
HMBHRMFLDKKSCT-UHFFFAOYSA-N

> <PUBCHEM_XLOGP3_AA>
2.1

> <PUBCHEM_EXACT_MASS>
214.110613074

> <PUBCHEM_MOLECULAR_FORMULA>
C13H14N2O

> <PUBCHEM_MOLECULAR_WEIGHT>
214.26

> <PUBCHEM_OPENEYE_CAN_SMILES>
CC1=NCCC2=C1NC3=C2C=C(C=C3)OC

> <PUBCHEM_OPENEYE_ISO_SMILES>
CC1=NCCC2=C1NC3=C2C=C(C=C3)OC

> <PUBCHEM_CACTVS_TPSA>
37.4

> <PUBCHEM_MONOISOTOPIC_WEIGHT>
214.110613074

> <PUBCHEM_TOTAL_CHARGE>
0

> <PUBCHEM_HEAVY_ATOM_COUNT>
16

> <PUBCHEM_ATOM_DEF_STEREO_COUNT>
0

> <PUBCHEM_ATOM_UDEF_STEREO_COUNT>
0

> <PUBCHEM_BOND_DEF_STEREO_COUNT>
0

> <PUBCHEM_BOND_UDEF_STEREO_COUNT>
0

> <PUBCHEM_ISOTOPIC_ATOM_COUNT>
0

> <PUBCHEM_COMPONENT_COUNT>
1

> <PUBCHEM_CACTVS_TAUTO_COUNT>
5

> <PUBCHEM_COORDINATE_TYPE>
1
5
255

> <PUBCHEM_BONDANNOTATIONS>
11  13  8
12  15  8
13  15  8
2  5  8
2  8  8
4  5  8
4  6  8
6  11  8
6  8  8
8  12  8

$$$$
