56678600
  -OEChem-09292322322D

 64 66  0     0  0  0  0  0  0999 V2000
    8.3265    4.6400    0.0000 O   0  0  0  0  0  0  0  0  0  0  0  0
    3.1420    1.6200    0.0000 O   0  0  0  0  0  0  0  0  0  0  0  0
   13.5887    4.6641    0.0000 O   0  0  0  0  0  0  0  0  0  0  0  0
    8.0934   10.3300    0.0000 O   0  0  0  0  0  0  0  0  0  0  0  0
    5.4953   10.8300    0.0000 O   0  0  0  0  0  0  0  0  0  0  0  0
    7.2274   11.8300    0.0000 O   0  0  0  0  0  0  0  0  0  0  0  0
    6.3613    9.3300    0.0000 O   0  0  0  0  0  0  0  0  0  0  0  0
    4.8624    4.6266    0.0000 N   0  0  0  0  0  0  0  0  0  0  0  0
    3.1343    3.6200    0.0000 N   0  0  0  0  0  0  0  0  0  0  0  0
   11.8566    4.6641    0.0000 N   0  0  0  0  0  0  0  0  0  0  0  0
    3.9945    5.1233    0.0000 C   0  0  0  0  0  0  0  0  0  0  0  0
    4.8663    3.6266    0.0000 C   0  0  0  0  0  0  0  0  0  0  0  0
    3.1304    4.6200    0.0000 C   0  0  0  0  0  0  0  0  0  0  0  0
    4.0022    3.1233    0.0000 C   0  0  0  0  0  0  0  0  0  0  0  0
    5.7265    5.1300    0.0000 C   0  0  0  0  0  0  0  0  0  0  0  0
    6.5945    4.6333    0.0000 C   0  0  0  0  0  0  0  0  0  0  0  0
    2.2702    3.1166    0.0000 C   0  0  0  0  0  0  0  0  0  0  0  0
    7.4586    5.1367    0.0000 C   0  0  0  0  0  0  0  0  0  0  0  0
    2.2740    2.1166    0.0000 C   0  0  0  0  0  0  0  0  0  0  0  0
    1.4022    3.6133    0.0000 C   0  0  0  0  0  0  0  0  0  0  0  0
    1.4099    1.6133    0.0000 C   0  0  0  0  0  0  0  0  0  0  0  0
    0.5381    3.1100    0.0000 C   0  0  0  0  0  0  0  0  0  0  0  0
    0.5420    2.1100    0.0000 C   0  0  0  0  0  0  0  0  0  0  0  0
    9.1906    5.1433    0.0000 C   0  0  0  0  0  0  0  0  0  0  0  0
   10.0967    4.6295    0.0000 C   0  0  0  0  0  0  0  0  0  0  0  0
    9.1906    6.1850    0.0000 C   0  0  0  0  0  0  0  0  0  0  0  0
    3.1458    0.6200    0.0000 C   0  0  0  0  0  0  0  0  0  0  0  0
   10.9906    5.1641    0.0000 C   0  0  0  0  0  0  0  0  0  0  0  0
   10.9906    6.1641    0.0000 C   0  0  0  0  0  0  0  0  0  0  0  0
   10.0967    6.6988    0.0000 C   0  0  0  0  0  0  0  0  0  0  0  0
   11.8566    6.6641    0.0000 C   0  0  0  0  0  0  0  0  0  0  0  0
   12.7227    5.1641    0.0000 C   0  0  0  0  0  0  0  0  0  0  0  0
   12.7227    6.1641    0.0000 C   0  0  0  0  0  0  0  0  0  0  0  0
    7.2274   10.8300    0.0000 C   0  0  0  0  0  0  0  0  0  0  0  0
    6.3613   10.3300    0.0000 C   0  0  0  0  0  0  0  0  0  0  0  0
    4.3912    5.5998    0.0000 H   0  0  0  0  0  0  0  0  0  0  0  0
    3.5941    5.5967    0.0000 H   0  0  0  0  0  0  0  0  0  0  0  0
    5.0806    3.0449    0.0000 H   0  0  0  0  0  0  0  0  0  0  0  0
    5.4765    3.7367    0.0000 H   0  0  0  0  0  0  0  0  0  0  0  0
    2.9161    5.2018    0.0000 H   0  0  0  0  0  0  0  0  0  0  0  0
    2.5202    4.5100    0.0000 H   0  0  0  0  0  0  0  0  0  0  0  0
    3.6055    2.6468    0.0000 H   0  0  0  0  0  0  0  0  0  0  0  0
    4.4026    2.6499    0.0000 H   0  0  0  0  0  0  0  0  0  0  0  0
    6.1232    5.6065    0.0000 H   0  0  0  0  0  0  0  0  0  0  0  0
    5.3262    5.6034    0.0000 H   0  0  0  0  0  0  0  0  0  0  0  0
    6.1978    4.1568    0.0000 H   0  0  0  0  0  0  0  0  0  0  0  0
    6.9948    4.1599    0.0000 H   0  0  0  0  0  0  0  0  0  0  0  0
    7.8553    5.6131    0.0000 H   0  0  0  0  0  0  0  0  0  0  0  0
    7.0582    5.6101    0.0000 H   0  0  0  0  0  0  0  0  0  0  0  0
    1.3998    4.2333    0.0000 H   0  0  0  0  0  0  0  0  0  0  0  0
    1.4123    0.9933    0.0000 H   0  0  0  0  0  0  0  0  0  0  0  0
    0.0000    3.4179    0.0000 H   0  0  0  0  0  0  0  0  0  0  0  0
    0.0062    1.7979    0.0000 H   0  0  0  0  0  0  0  0  0  0  0  0
   10.1038    4.0095    0.0000 H   0  0  0  0  0  0  0  0  0  0  0  0
    8.6549    6.4970    0.0000 H   0  0  0  0  0  0  0  0  0  0  0  0
    2.5258    0.6176    0.0000 H   0  0  0  0  0  0  0  0  0  0  0  0
    3.1482    0.0000    0.0000 H   0  0  0  0  0  0  0  0  0  0  0  0
    3.7658    0.6224    0.0000 H   0  0  0  0  0  0  0  0  0  0  0  0
   10.1038    7.3188    0.0000 H   0  0  0  0  0  0  0  0  0  0  0  0
   11.8566    4.0441    0.0000 H   0  0  0  0  0  0  0  0  0  0  0  0
   11.8566    7.2841    0.0000 H   0  0  0  0  0  0  0  0  0  0  0  0
   13.2596    6.4741    0.0000 H   0  0  0  0  0  0  0  0  0  0  0  0
    8.6303   10.6400    0.0000 H   0  0  0  0  0  0  0  0  0  0  0  0
    4.9584   10.5200    0.0000 H   0  0  0  0  0  0  0  0  0  0  0  0
  1 18  1  0  0  0  0
  1 24  1  0  0  0  0
  2 19  1  0  0  0  0
  2 27  1  0  0  0  0
  3 32  2  0  0  0  0
  4 34  1  0  0  0  0
  4 63  1  0  0  0  0
  5 35  1  0  0  0  0
  5 64  1  0  0  0  0
  6 34  2  0  0  0  0
  7 35  2  0  0  0  0
  8 11  1  0  0  0  0
  8 12  1  0  0  0  0
  8 15  1  0  0  0  0
  9 13  1  0  0  0  0
  9 14  1  0  0  0  0
  9 17  1  0  0  0  0
 10 28  1  0  0  0  0
 10 32  1  0  0  0  0
 10 60  1  0  0  0  0
 11 13  1  0  0  0  0
 11 36  1  0  0  0  0
 11 37  1  0  0  0  0
 12 14  1  0  0  0  0
 12 38  1  0  0  0  0
 12 39  1  0  0  0  0
 13 40  1  0  0  0  0
 13 41  1  0  0  0  0
 14 42  1  0  0  0  0
 14 43  1  0  0  0  0
 15 16  1  0  0  0  0
 15 44  1  0  0  0  0
 15 45  1  0  0  0  0
 16 18  1  0  0  0  0
 16 46  1  0  0  0  0
 16 47  1  0  0  0  0
 17 19  1  0  0  0  0
 17 20  2  0  0  0  0
 18 48  1  0  0  0  0
 18 49  1  0  0  0  0
 19 21  2  0  0  0  0
 20 22  1  0  0  0  0
 20 50  1  0  0  0  0
 21 23  1  0  0  0  0
 21 51  1  0  0  0  0
 22 23  2  0  0  0  0
 22 52  1  0  0  0  0
 23 53  1  0  0  0  0
 24 25  2  0  0  0  0
 24 26  1  0  0  0  0
 25 28  1  0  0  0  0
 25 54  1  0  0  0  0
 26 30  2  0  0  0  0
 26 55  1  0  0  0  0
 27 56  1  0  0  0  0
 27 57  1  0  0  0  0
 27 58  1  0  0  0  0
 28 29  2  0  0  0  0
 29 30  1  0  0  0  0
 29 31  1  0  0  0  0
 30 59  1  0  0  0  0
 31 33  2  0  0  0  0
 31 61  1  0  0  0  0
 32 33  1  0  0  0  0
 33 62  1  0  0  0  0
 34 35  1  0  0  0  0
M  END
> <PUBCHEM_COMPOUND_CID>
56678600

> <PUBCHEM_COMPOUND_CANONICALIZED>
1

> <PUBCHEM_CACTVS_COMPLEXITY>
633

> <PUBCHEM_CACTVS_HBOND_ACCEPTOR>
9

> <PUBCHEM_CACTVS_HBOND_DONOR>
3

> <PUBCHEM_CACTVS_ROTATABLE_BOND>
8

> <PUBCHEM_CACTVS_SUBSKEYS>
AAADceB7OAAAAAAAAAAAAAAAAAAAAAAAAAA8YIEAAAAAAACBQAAAHgAQCAAADAzhmAYyzoPABgCIAiXSWAKCCAAhIgAIiABPbMgPZiLEsZuXOCjm1BnZ6YeQ0AMOIAAAAgACEABAAAAEAAQgAAAAAAAAAA==

> <PUBCHEM_IUPAC_OPENEYE_NAME>
7-[3-[4-(2-methoxyphenyl)piperazin-1-yl]propoxy]-1H-quinolin-2-one;oxalic acid

> <PUBCHEM_IUPAC_CAS_NAME>
7-[3-[4-(2-methoxyphenyl)-1-piperazinyl]propoxy]-1H-quinolin-2-one;oxalic acid

> <PUBCHEM_IUPAC_NAME_MARKUP>
7-[3-[4-(2-methoxyphenyl)piperazin-1-yl]propoxy]-1<I>H</I>-quinolin-2-one;oxalic acid

> <PUBCHEM_IUPAC_NAME>
7-[3-[4-(2-methoxyphenyl)piperazin-1-yl]propoxy]-1H-quinolin-2-one;oxalic acid

> <PUBCHEM_IUPAC_SYSTEMATIC_NAME>
ethanedioic acid;7-[3-[4-(2-methoxyphenyl)piperazin-1-yl]propoxy]-1H-quinolin-2-one

> <PUBCHEM_IUPAC_TRADITIONAL_NAME>
7-[3-[4-(2-methoxyphenyl)piperazino]propoxy]carbostyril;oxalic acid

> <PUBCHEM_IUPAC_INCHI>
InChI=1S/C23H27N3O3.C2H2O4/c1-28-22-6-3-2-5-21(22)26-14-12-25(13-15-26)11-4-16-29-19-9-7-18-8-10-23(27)24-20(18)17-19;3-1(4)2(5)6/h2-3,5-10,17H,4,11-16H2,1H3,(H,24,27);(H,3,4)(H,5,6)

> <PUBCHEM_IUPAC_INCHIKEY>
YPWNLOVFNNBHHM-UHFFFAOYSA-N

> <PUBCHEM_EXACT_MASS>
483.20055027

> <PUBCHEM_MOLECULAR_FORMULA>
C25H29N3O7

> <PUBCHEM_MOLECULAR_WEIGHT>
483.5

> <PUBCHEM_OPENEYE_CAN_SMILES>
COC1=CC=CC=C1N2CCN(CC2)CCCOC3=CC4=C(C=C3)C=CC(=O)N4.C(=O)(C(=O)O)O

> <PUBCHEM_OPENEYE_ISO_SMILES>
COC1=CC=CC=C1N2CCN(CC2)CCCOC3=CC4=C(C=C3)C=CC(=O)N4.C(=O)(C(=O)O)O

> <PUBCHEM_CACTVS_TPSA>
129

> <PUBCHEM_MONOISOTOPIC_WEIGHT>
483.20055027

> <PUBCHEM_TOTAL_CHARGE>
0

> <PUBCHEM_HEAVY_ATOM_COUNT>
35

> <PUBCHEM_ATOM_DEF_STEREO_COUNT>
0

> <PUBCHEM_ATOM_UDEF_STEREO_COUNT>
0

> <PUBCHEM_BOND_DEF_STEREO_COUNT>
0

> <PUBCHEM_BOND_UDEF_STEREO_COUNT>
0

> <PUBCHEM_ISOTOPIC_ATOM_COUNT>
0

> <PUBCHEM_COMPONENT_COUNT>
2

> <PUBCHEM_CACTVS_TAUTO_COUNT>
-1

> <PUBCHEM_COORDINATE_TYPE>
1
5
255

> <PUBCHEM_BONDANNOTATIONS>
10  28  8
10  32  8
17  19  8
17  20  8
19  21  8
20  22  8
21  23  8
22  23  8
24  25  8
24  26  8
25  28  8
26  30  8
28  29  8
29  30  8
29  31  8
31  33  8
32  33  8

$$$$
