86277887
  -OEChem-09292322462D

120125  0     1  0  0  0  0  0999 V2000
   11.5263   -1.7500    0.0000 O   0  0  0  0  0  0  0  0  0  0  0  0
    9.7942    0.2500    0.0000 O   0  0  0  0  0  0  0  0  0  0  0  0
   10.6603   -1.2500    0.0000 O   0  0  0  0  0  0  0  0  0  0  0  0
   14.9904   -4.7500    0.0000 O   0  0  0  0  0  0  0  0  0  0  0  0
   11.5263   -4.7500    0.0000 O   0  0  0  0  0  0  0  0  0  0  0  0
   13.2583   -5.7500    0.0000 O   0  0  0  0  0  0  0  0  0  0  0  0
    6.3301    1.2500    0.0000 O   0  0  0  0  0  0  0  0  0  0  0  0
    2.0000    2.7500    0.0000 O   0  0  0  0  0  0  0  0  0  0  0  0
   12.3923    5.7500    0.0000 O   0  0  0  0  0  0  0  0  0  0  0  0
   14.1244    4.7500    0.0000 O   0  0  0  0  0  0  0  0  0  0  0  0
   12.3923   -0.2500    0.0000 N   0  0  0  0  0  0  0  0  0  0  0  0
    3.7320    1.7500    0.0000 N   0  0  0  0  0  0  0  0  0  0  0  0
   14.1244   -1.2500    0.0000 C   0  0  0  0  0  0  0  0  0  0  0  0
   13.2583   -1.7500    0.0000 C   0  0  2  0  0  0  0  0  0  0  0  0
   14.9904   -1.7500    0.0000 C   0  0  0  0  0  0  0  0  0  0  0  0
   14.1244   -0.2500    0.0000 C   0  0  0  0  0  0  0  0  0  0  0  0
   15.8564   -1.2500    0.0000 C   0  0  0  0  0  0  0  0  0  0  0  0
   14.9904    0.2500    0.0000 C   0  0  0  0  0  0  0  0  0  0  0  0
   15.8564   -0.2500    0.0000 C   0  0  0  0  0  0  0  0  0  0  0  0
   12.3923   -1.2500    0.0000 C   0  0  0  0  0  0  0  0  0  0  0  0
   11.5263    0.2500    0.0000 C   0  0  1  0  0  0  0  0  0  0  0  0
   13.2583   -2.7500    0.0000 C   0  0  0  0  0  0  0  0  0  0  0  0
   13.2583    0.2500    0.0000 C   0  0  0  0  0  0  0  0  0  0  0  0
   11.5263    1.2500    0.0000 C   0  0  0  0  0  0  0  0  0  0  0  0
   13.2583    1.2500    0.0000 C   0  0  0  0  0  0  0  0  0  0  0  0
   12.3923    1.7500    0.0000 C   0  0  0  0  0  0  0  0  0  0  0  0
   12.3923   -3.2500    0.0000 C   0  0  0  0  0  0  0  0  0  0  0  0
   14.1244   -3.2500    0.0000 C   0  0  0  0  0  0  0  0  0  0  0  0
   10.6603   -0.2500    0.0000 C   0  0  0  0  0  0  0  0  0  0  0  0
   14.1244   -4.2500    0.0000 C   0  0  0  0  0  0  0  0  0  0  0  0
   12.3923   -4.2500    0.0000 C   0  0  0  0  0  0  0  0  0  0  0  0
   13.2583   -4.7500    0.0000 C   0  0  0  0  0  0  0  0  0  0  0  0
    9.7942    1.2500    0.0000 C   0  0  2  0  0  0  0  0  0  0  0  0
   10.6603    1.7500    0.0000 C   0  0  0  0  0  0  0  0  0  0  0  0
    8.9282    1.7500    0.0000 C   0  0  0  0  0  0  0  0  0  0  0  0
   10.6603    2.7500    0.0000 C   0  0  0  0  0  0  0  0  0  0  0  0
   15.8564   -4.2500    0.0000 C   0  0  0  0  0  0  0  0  0  0  0  0
   10.6603   -4.2500    0.0000 C   0  0  0  0  0  0  0  0  0  0  0  0
    8.0622    1.2500    0.0000 C   0  0  0  0  0  0  0  0  0  0  0  0
    8.9282    2.7500    0.0000 C   0  0  0  0  0  0  0  0  0  0  0  0
   12.3923   -6.2500    0.0000 C   0  0  0  0  0  0  0  0  0  0  0  0
   11.5263    3.2500    0.0000 C   0  0  0  0  0  0  0  0  0  0  0  0
    7.1962    1.7500    0.0000 C   0  0  0  0  0  0  0  0  0  0  0  0
    8.0622    3.2500    0.0000 C   0  0  0  0  0  0  0  0  0  0  0  0
    7.1962    2.7500    0.0000 C   0  0  0  0  0  0  0  0  0  0  0  0
   11.5263    4.2500    0.0000 C   0  0  0  0  0  0  0  0  0  0  0  0
   12.3923    2.7500    0.0000 C   0  0  0  0  0  0  0  0  0  0  0  0
    4.5981    1.2500    0.0000 C   0  0  0  0  0  0  0  0  0  0  0  0
    5.4641    1.7500    0.0000 C   0  0  0  0  0  0  0  0  0  0  0  0
    3.7320    2.7500    0.0000 C   0  0  0  0  0  0  0  0  0  0  0  0
    2.8660    1.2500    0.0000 C   0  0  0  0  0  0  0  0  0  0  0  0
   12.3923    4.7500    0.0000 C   0  0  0  0  0  0  0  0  0  0  0  0
   13.2583    3.2500    0.0000 C   0  0  0  0  0  0  0  0  0  0  0  0
    2.8660    3.2500    0.0000 C   0  0  0  0  0  0  0  0  0  0  0  0
    2.0000    1.7500    0.0000 C   0  0  0  0  0  0  0  0  0  0  0  0
   13.2583    4.2500    0.0000 C   0  0  0  0  0  0  0  0  0  0  0  0
   11.5263    6.2500    0.0000 C   0  0  0  0  0  0  0  0  0  0  0  0
   14.9904    4.2500    0.0000 C   0  0  0  0  0  0  0  0  0  0  0  0
   14.1244   -1.8700    0.0000 H   0  0  0  0  0  0  0  0  0  0  0  0
   13.2583   -1.1300    0.0000 H   0  0  0  0  0  0  0  0  0  0  0  0
   14.5919   -2.2250    0.0000 H   0  0  0  0  0  0  0  0  0  0  0  0
   15.3889   -2.2250    0.0000 H   0  0  0  0  0  0  0  0  0  0  0  0
   13.9123    0.3326    0.0000 H   0  0  0  0  0  0  0  0  0  0  0  0
   13.5138   -0.3577    0.0000 H   0  0  0  0  0  0  0  0  0  0  0  0
   16.0685   -1.8326    0.0000 H   0  0  0  0  0  0  0  0  0  0  0  0
   16.4670   -1.1423    0.0000 H   0  0  0  0  0  0  0  0  0  0  0  0
   15.3889    0.7249    0.0000 H   0  0  0  0  0  0  0  0  0  0  0  0
   14.5919    0.7249    0.0000 H   0  0  0  0  0  0  0  0  0  0  0  0
   16.4670   -0.3577    0.0000 H   0  0  0  0  0  0  0  0  0  0  0  0
   16.0685    0.3326    0.0000 H   0  0  0  0  0  0  0  0  0  0  0  0
   11.5263   -0.3700    0.0000 H   0  0  0  0  0  0  0  0  0  0  0  0
   13.4704   -0.3326    0.0000 H   0  0  0  0  0  0  0  0  0  0  0  0
   13.8689    0.3577    0.0000 H   0  0  0  0  0  0  0  0  0  0  0  0
   11.3142    1.8326    0.0000 H   0  0  0  0  0  0  0  0  0  0  0  0
   10.9157    1.1423    0.0000 H   0  0  0  0  0  0  0  0  0  0  0  0
   13.8689    1.1423    0.0000 H   0  0  0  0  0  0  0  0  0  0  0  0
   13.4704    1.8326    0.0000 H   0  0  0  0  0  0  0  0  0  0  0  0
   12.7908    2.2250    0.0000 H   0  0  0  0  0  0  0  0  0  0  0  0
   11.9938    2.2250    0.0000 H   0  0  0  0  0  0  0  0  0  0  0  0
   11.8554   -2.9400    0.0000 H   0  0  0  0  0  0  0  0  0  0  0  0
   14.6613   -2.9400    0.0000 H   0  0  0  0  0  0  0  0  0  0  0  0
    9.2573    0.9400    0.0000 H   0  0  0  0  0  0  0  0  0  0  0  0
   10.8723    1.1674    0.0000 H   0  0  0  0  0  0  0  0  0  0  0  0
   11.2708    1.8577    0.0000 H   0  0  0  0  0  0  0  0  0  0  0  0
   10.4482    3.3326    0.0000 H   0  0  0  0  0  0  0  0  0  0  0  0
   10.0497    2.6423    0.0000 H   0  0  0  0  0  0  0  0  0  0  0  0
   16.1664   -4.7869    0.0000 H   0  0  0  0  0  0  0  0  0  0  0  0
   16.3933   -3.9400    0.0000 H   0  0  0  0  0  0  0  0  0  0  0  0
   15.5464   -3.7131    0.0000 H   0  0  0  0  0  0  0  0  0  0  0  0
   10.9703   -3.7131    0.0000 H   0  0  0  0  0  0  0  0  0  0  0  0
   10.1233   -3.9400    0.0000 H   0  0  0  0  0  0  0  0  0  0  0  0
   10.3503   -4.7869    0.0000 H   0  0  0  0  0  0  0  0  0  0  0  0
    8.0622    0.6300    0.0000 H   0  0  0  0  0  0  0  0  0  0  0  0
    9.4651    3.0600    0.0000 H   0  0  0  0  0  0  0  0  0  0  0  0
   12.0823   -5.7131    0.0000 H   0  0  0  0  0  0  0  0  0  0  0  0
   11.8554   -6.5600    0.0000 H   0  0  0  0  0  0  0  0  0  0  0  0
   12.7023   -6.7869    0.0000 H   0  0  0  0  0  0  0  0  0  0  0  0
    8.0622    3.8700    0.0000 H   0  0  0  0  0  0  0  0  0  0  0  0
    6.6592    3.0600    0.0000 H   0  0  0  0  0  0  0  0  0  0  0  0
   10.9893    4.5600    0.0000 H   0  0  0  0  0  0  0  0  0  0  0  0
   12.3923    2.1300    0.0000 H   0  0  0  0  0  0  0  0  0  0  0  0
    4.1996    0.7751    0.0000 H   0  0  0  0  0  0  0  0  0  0  0  0
    4.9966    0.7751    0.0000 H   0  0  0  0  0  0  0  0  0  0  0  0
    5.8626    2.2250    0.0000 H   0  0  0  0  0  0  0  0  0  0  0  0
    5.0656    2.2250    0.0000 H   0  0  0  0  0  0  0  0  0  0  0  0
    4.3426    2.6423    0.0000 H   0  0  0  0  0  0  0  0  0  0  0  0
    3.9441    3.3326    0.0000 H   0  0  0  0  0  0  0  0  0  0  0  0
    2.4675    0.7751    0.0000 H   0  0  0  0  0  0  0  0  0  0  0  0
    3.2646    0.7751    0.0000 H   0  0  0  0  0  0  0  0  0  0  0  0
   13.7953    2.9400    0.0000 H   0  0  0  0  0  0  0  0  0  0  0  0
    3.2646    3.7250    0.0000 H   0  0  0  0  0  0  0  0  0  0  0  0
    2.4675    3.7250    0.0000 H   0  0  0  0  0  0  0  0  0  0  0  0
    1.3894    1.8577    0.0000 H   0  0  0  0  0  0  0  0  0  0  0  0
    1.7880    1.1674    0.0000 H   0  0  0  0  0  0  0  0  0  0  0  0
   11.8363    6.7869    0.0000 H   0  0  0  0  0  0  0  0  0  0  0  0
   10.9893    6.5600    0.0000 H   0  0  0  0  0  0  0  0  0  0  0  0
   11.2163    5.7131    0.0000 H   0  0  0  0  0  0  0  0  0  0  0  0
   14.6804    3.7131    0.0000 H   0  0  0  0  0  0  0  0  0  0  0  0
   15.5273    3.9400    0.0000 H   0  0  0  0  0  0  0  0  0  0  0  0
   15.3004    4.7869    0.0000 H   0  0  0  0  0  0  0  0  0  0  0  0
  1 20  2  0  0  0  0
  2 29  1  0  0  0  0
 33  2  1  1  0  0  0
  3 29  2  0  0  0  0
  4 30  1  0  0  0  0
  4 37  1  0  0  0  0
  5 31  1  0  0  0  0
  5 38  1  0  0  0  0
  6 32  1  0  0  0  0
  6 41  1  0  0  0  0
  7 43  1  0  0  0  0
  7 49  1  0  0  0  0
  8 54  1  0  0  0  0
  8 55  1  0  0  0  0
  9 52  1  0  0  0  0
  9 57  1  0  0  0  0
 10 56  1  0  0  0  0
 10 58  1  0  0  0  0
 11 20  1  0  0  0  0
 11 21  1  0  0  0  0
 11 23  1  0  0  0  0
 12 48  1  0  0  0  0
 12 50  1  0  0  0  0
 12 51  1  0  0  0  0
 13 14  1  0  0  0  0
 13 15  1  0  0  0  0
 13 16  1  0  0  0  0
 13 59  1  0  0  0  0
 14 20  1  1  0  0  0
 14 22  1  0  0  0  0
 14 60  1  0  0  0  0
 15 17  1  0  0  0  0
 15 61  1  0  0  0  0
 15 62  1  0  0  0  0
 16 18  1  0  0  0  0
 16 63  1  0  0  0  0
 16 64  1  0  0  0  0
 17 19  1  0  0  0  0
 17 65  1  0  0  0  0
 17 66  1  0  0  0  0
 18 19  1  0  0  0  0
 18 67  1  0  0  0  0
 18 68  1  0  0  0  0
 19 69  1  0  0  0  0
 19 70  1  0  0  0  0
 21 24  1  0  0  0  0
 21 29  1  6  0  0  0
 21 71  1  0  0  0  0
 22 27  2  0  0  0  0
 22 28  1  0  0  0  0
 23 25  1  0  0  0  0
 23 72  1  0  0  0  0
 23 73  1  0  0  0  0
 24 26  1  0  0  0  0
 24 74  1  0  0  0  0
 24 75  1  0  0  0  0
 25 26  1  0  0  0  0
 25 76  1  0  0  0  0
 25 77  1  0  0  0  0
 26 78  1  0  0  0  0
 26 79  1  0  0  0  0
 27 31  1  0  0  0  0
 27 80  1  0  0  0  0
 28 30  2  0  0  0  0
 28 81  1  0  0  0  0
 30 32  1  0  0  0  0
 31 32  2  0  0  0  0
 33 34  1  0  0  0  0
 33 35  1  0  0  0  0
 33 82  1  0  0  0  0
 34 36  1  0  0  0  0
 34 83  1  0  0  0  0
 34 84  1  0  0  0  0
 35 39  2  0  0  0  0
 35 40  1  0  0  0  0
 36 42  1  0  0  0  0
 36 85  1  0  0  0  0
 36 86  1  0  0  0  0
 37 87  1  0  0  0  0
 37 88  1  0  0  0  0
 37 89  1  0  0  0  0
 38 90  1  0  0  0  0
 38 91  1  0  0  0  0
 38 92  1  0  0  0  0
 39 43  1  0  0  0  0
 39 93  1  0  0  0  0
 40 44  2  0  0  0  0
 40 94  1  0  0  0  0
 41 95  1  0  0  0  0
 41 96  1  0  0  0  0
 41 97  1  0  0  0  0
 42 46  2  0  0  0  0
 42 47  1  0  0  0  0
 43 45  2  0  0  0  0
 44 45  1  0  0  0  0
 44 98  1  0  0  0  0
 45 99  1  0  0  0  0
 46 52  1  0  0  0  0
 46100  1  0  0  0  0
 47 53  2  0  0  0  0
 47101  1  0  0  0  0
 48 49  1  0  0  0  0
 48102  1  0  0  0  0
 48103  1  0  0  0  0
 49104  1  0  0  0  0
 49105  1  0  0  0  0
 50 54  1  0  0  0  0
 50106  1  0  0  0  0
 50107  1  0  0  0  0
 51 55  1  0  0  0  0
 51108  1  0  0  0  0
 51109  1  0  0  0  0
 52 56  2  0  0  0  0
 53 56  1  0  0  0  0
 53110  1  0  0  0  0
 54111  1  0  0  0  0
 54112  1  0  0  0  0
 55113  1  0  0  0  0
 55114  1  0  0  0  0
 57115  1  0  0  0  0
 57116  1  0  0  0  0
 57117  1  0  0  0  0
 58118  1  0  0  0  0
 58119  1  0  0  0  0
 58120  1  0  0  0  0
M  END
> <PUBCHEM_COMPOUND_CID>
86277887

> <PUBCHEM_COMPOUND_CANONICALIZED>
1

> <PUBCHEM_CACTVS_COMPLEXITY>
1200

> <PUBCHEM_CACTVS_HBOND_ACCEPTOR>
11

> <PUBCHEM_CACTVS_HBOND_DONOR>
0

> <PUBCHEM_CACTVS_ROTATABLE_BOND>
19

> <PUBCHEM_CACTVS_SUBSKEYS>
AAADcfB/PAAAAAAAAAAAAAAAAAAAAAAAAAA8eMGCAAAAAAABUAAAHgAAAAAADTzhmAYyDoMABACIAiHSGAACCAAgIAAIiAGOiIgPJzKEtTuHOCKlxhWaqAfY/P7OoAABCAAAQABAAAIQAACAAAAAAAAAAA==

> <PUBCHEM_IUPAC_OPENEYE_NAME>
[(1R)-3-(3,4-dimethoxyphenyl)-1-[3-(2-morpholinoethoxy)phenyl]propyl] (2S)-1-[(2S)-2-cyclohexyl-2-(3,4,5-trimethoxyphenyl)acetyl]piperidine-2-carboxylate

> <PUBCHEM_IUPAC_CAS_NAME>
(2S)-1-[(2S)-2-cyclohexyl-1-oxo-2-(3,4,5-trimethoxyphenyl)ethyl]-2-piperidinecarboxylic acid [(1R)-3-(3,4-dimethoxyphenyl)-1-[3-[2-(4-morpholinyl)ethoxy]phenyl]propyl] ester

> <PUBCHEM_IUPAC_NAME_MARKUP>
[(1<I>R</I>)-3-(3,4-dimethoxyphenyl)-1-[3-(2-morpholin-4-ylethoxy)phenyl]propyl] (2<I>S</I>)-1-[(2<I>S</I>)-2-cyclohexyl-2-(3,4,5-trimethoxyphenyl)acetyl]piperidine-2-carboxylate

> <PUBCHEM_IUPAC_NAME>
[(1R)-3-(3,4-dimethoxyphenyl)-1-[3-(2-morpholin-4-ylethoxy)phenyl]propyl] (2S)-1-[(2S)-2-cyclohexyl-2-(3,4,5-trimethoxyphenyl)acetyl]piperidine-2-carboxylate

> <PUBCHEM_IUPAC_SYSTEMATIC_NAME>
[(1R)-3-(3,4-dimethoxyphenyl)-1-[3-(2-morpholin-4-ylethoxy)phenyl]propyl] (2S)-1-[(2S)-2-cyclohexyl-2-(3,4,5-trimethoxyphenyl)ethanoyl]piperidine-2-carboxylate

> <PUBCHEM_IUPAC_TRADITIONAL_NAME>
(2S)-1-[(2S)-2-cyclohexyl-2-(3,4,5-trimethoxyphenyl)acetyl]pipecolinic acid [(1R)-3-(3,4-dimethoxyphenyl)-1-[3-(2-morpholinoethoxy)phenyl]propyl] ester

> <PUBCHEM_IUPAC_INCHI>
InChI=1S/C46H62N2O10/c1-51-39-20-18-32(28-40(39)52-2)17-19-38(34-14-11-15-36(29-34)57-27-24-47-22-25-56-26-23-47)58-46(50)37-16-9-10-21-48(37)45(49)43(33-12-7-6-8-13-33)35-30-41(53-3)44(55-5)42(31-35)54-4/h11,14-15,18,20,28-31,33,37-38,43H,6-10,12-13,16-17,19,21-27H2,1-5H3/t37-,38+,43-/m0/s1

> <PUBCHEM_IUPAC_INCHIKEY>
ZDBWLRLGUBSLPG-FDHYQTMZSA-N

> <PUBCHEM_XLOGP3_AA>
8.2

> <PUBCHEM_EXACT_MASS>
802.44044618

> <PUBCHEM_MOLECULAR_FORMULA>
C46H62N2O10

> <PUBCHEM_MOLECULAR_WEIGHT>
803.0

> <PUBCHEM_OPENEYE_CAN_SMILES>
COC1=C(C=C(C=C1)CCC(C2=CC(=CC=C2)OCCN3CCOCC3)OC(=O)C4CCCCN4C(=O)C(C5CCCCC5)C6=CC(=C(C(=C6)OC)OC)OC)OC

> <PUBCHEM_OPENEYE_ISO_SMILES>
COC1=C(C=C(C=C1)CC[C@H](C2=CC(=CC=C2)OCCN3CCOCC3)OC(=O)[C@@H]4CCCCN4C(=O)[C@@H](C5CCCCC5)C6=CC(=C(C(=C6)OC)OC)OC)OC

> <PUBCHEM_CACTVS_TPSA>
115

> <PUBCHEM_MONOISOTOPIC_WEIGHT>
802.44044618

> <PUBCHEM_TOTAL_CHARGE>
0

> <PUBCHEM_HEAVY_ATOM_COUNT>
58

> <PUBCHEM_ATOM_DEF_STEREO_COUNT>
3

> <PUBCHEM_ATOM_UDEF_STEREO_COUNT>
0

> <PUBCHEM_BOND_DEF_STEREO_COUNT>
0

> <PUBCHEM_BOND_UDEF_STEREO_COUNT>
0

> <PUBCHEM_ISOTOPIC_ATOM_COUNT>
0

> <PUBCHEM_COMPONENT_COUNT>
1

> <PUBCHEM_CACTVS_TAUTO_COUNT>
-1

> <PUBCHEM_COORDINATE_TYPE>
1
5
255

> <PUBCHEM_BONDANNOTATIONS>
14  20  5
33  2  5
21  29  6
22  27  8
22  28  8
27  31  8
28  30  8
30  32  8
31  32  8
35  39  8
35  40  8
39  43  8
40  44  8
42  46  8
42  47  8
43  45  8
44  45  8
46  52  8
47  53  8
52  56  8
53  56  8

$$$$
