155515301
  -OEChem-09292322412D

 65 69  0     1  0  0  0  0  0999 V2000
    8.0622   -1.0490    0.0000 O   0  0  0  0  0  0  0  0  0  0  0  0
    9.7942   -0.0490    0.0000 O   0  0  0  0  0  0  0  0  0  0  0  0
    2.8660   -0.0490    0.0000 O   0  0  0  0  0  0  0  0  0  0  0  0
    6.3301   -0.0490    0.0000 N   0  0  0  0  0  0  0  0  0  0  0  0
    4.5981   -1.0490    0.0000 N   0  0  0  0  0  0  0  0  0  0  0  0
    8.0622   -0.0490    0.0000 C   0  0  1  0  0  0  0  0  0  0  0  0
    8.9282    0.4510    0.0000 C   0  0  0  0  0  0  0  0  0  0  0  0
    7.1962    0.4510    0.0000 C   0  0  0  0  0  0  0  0  0  0  0  0
    5.4641    0.4510    0.0000 C   0  0  0  0  0  0  0  0  0  0  0  0
    6.3301   -1.0490    0.0000 C   0  0  0  0  0  0  0  0  0  0  0  0
    4.5981   -0.0490    0.0000 C   0  0  0  0  0  0  0  0  0  0  0  0
    5.4641   -1.5490    0.0000 C   0  0  0  0  0  0  0  0  0  0  0  0
    9.8679    0.7930    0.0000 C   0  0  0  0  0  0  0  0  0  0  0  0
    8.4282    1.3170    0.0000 C   0  0  0  0  0  0  0  0  0  0  0  0
    8.9282   -1.5490    0.0000 C   0  0  0  0  0  0  0  0  0  0  0  0
    9.7942   -1.0490    0.0000 C   0  0  0  0  0  0  0  0  0  0  0  0
    3.7320   -1.5490    0.0000 C   0  0  0  0  0  0  0  0  0  0  0  0
   10.0415    1.7778    0.0000 C   0  0  0  0  0  0  0  0  0  0  0  0
    8.9282    2.1830    0.0000 C   0  0  0  0  0  0  0  0  0  0  0  0
   10.6339    0.1502    0.0000 C   0  0  0  0  0  0  0  0  0  0  0  0
    7.4282    1.3170    0.0000 C   0  0  0  0  0  0  0  0  0  0  0  0
    2.8660   -1.0490    0.0000 C   0  0  0  0  0  0  0  0  0  0  0  0
   10.9812    2.1198    0.0000 C   0  0  0  0  0  0  0  0  0  0  0  0
    8.4282    3.0490    0.0000 C   0  0  0  0  0  0  0  0  0  0  0  0
   11.5736    0.4922    0.0000 C   0  0  0  0  0  0  0  0  0  0  0  0
    6.9282    2.1830    0.0000 C   0  0  0  0  0  0  0  0  0  0  0  0
    3.7320   -2.5490    0.0000 C   0  0  0  0  0  0  0  0  0  0  0  0
   11.7473    1.4770    0.0000 C   0  0  0  0  0  0  0  0  0  0  0  0
    7.4282    3.0490    0.0000 C   0  0  0  0  0  0  0  0  0  0  0  0
    2.0000   -1.5490    0.0000 C   0  0  0  0  0  0  0  0  0  0  0  0
    2.8660   -3.0490    0.0000 C   0  0  0  0  0  0  0  0  0  0  0  0
    2.0000   -2.5490    0.0000 C   0  0  0  0  0  0  0  0  0  0  0  0
    2.0000    0.4510    0.0000 C   0  0  0  0  0  0  0  0  0  0  0  0
    7.5252   -0.3590    0.0000 H   0  0  0  0  0  0  0  0  0  0  0  0
    7.5947    0.9259    0.0000 H   0  0  0  0  0  0  0  0  0  0  0  0
    6.7976    0.9259    0.0000 H   0  0  0  0  0  0  0  0  0  0  0  0
    5.8626    0.9259    0.0000 H   0  0  0  0  0  0  0  0  0  0  0  0
    5.0656    0.9259    0.0000 H   0  0  0  0  0  0  0  0  0  0  0  0
    6.5422   -1.6316    0.0000 H   0  0  0  0  0  0  0  0  0  0  0  0
    6.9407   -0.9414    0.0000 H   0  0  0  0  0  0  0  0  0  0  0  0
    4.3860    0.5336    0.0000 H   0  0  0  0  0  0  0  0  0  0  0  0
    3.9875   -0.1567    0.0000 H   0  0  0  0  0  0  0  0  0  0  0  0
    5.0656   -2.0240    0.0000 H   0  0  0  0  0  0  0  0  0  0  0  0
    5.8626   -2.0240    0.0000 H   0  0  0  0  0  0  0  0  0  0  0  0
    8.5297   -2.0240    0.0000 H   0  0  0  0  0  0  0  0  0  0  0  0
    9.3267   -2.0240    0.0000 H   0  0  0  0  0  0  0  0  0  0  0  0
   10.0063   -1.6316    0.0000 H   0  0  0  0  0  0  0  0  0  0  0  0
   10.4048   -0.9414    0.0000 H   0  0  0  0  0  0  0  0  0  0  0  0
    9.5666    2.1763    0.0000 H   0  0  0  0  0  0  0  0  0  0  0  0
    9.5482    2.1830    0.0000 H   0  0  0  0  0  0  0  0  0  0  0  0
   10.5263   -0.4604    0.0000 H   0  0  0  0  0  0  0  0  0  0  0  0
    7.1182    0.7801    0.0000 H   0  0  0  0  0  0  0  0  0  0  0  0
   11.0889    2.7304    0.0000 H   0  0  0  0  0  0  0  0  0  0  0  0
    8.7382    3.5860    0.0000 H   0  0  0  0  0  0  0  0  0  0  0  0
   12.0486    0.0937    0.0000 H   0  0  0  0  0  0  0  0  0  0  0  0
    6.3082    2.1830    0.0000 H   0  0  0  0  0  0  0  0  0  0  0  0
    4.2690   -2.8590    0.0000 H   0  0  0  0  0  0  0  0  0  0  0  0
   12.3299    1.6891    0.0000 H   0  0  0  0  0  0  0  0  0  0  0  0
    7.1182    3.5860    0.0000 H   0  0  0  0  0  0  0  0  0  0  0  0
    1.4631   -1.2390    0.0000 H   0  0  0  0  0  0  0  0  0  0  0  0
    2.8660   -3.6690    0.0000 H   0  0  0  0  0  0  0  0  0  0  0  0
    1.4631   -2.8590    0.0000 H   0  0  0  0  0  0  0  0  0  0  0  0
    2.3100    0.9879    0.0000 H   0  0  0  0  0  0  0  0  0  0  0  0
    1.4631    0.7610    0.0000 H   0  0  0  0  0  0  0  0  0  0  0  0
    1.6900   -0.0860    0.0000 H   0  0  0  0  0  0  0  0  0  0  0  0
  1  6  1  0  0  0  0
  1 15  1  0  0  0  0
  2  7  1  0  0  0  0
  2 16  1  0  0  0  0
  3 22  1  0  0  0  0
  3 33  1  0  0  0  0
  4  8  1  0  0  0  0
  4  9  1  0  0  0  0
  4 10  1  0  0  0  0
  5 11  1  0  0  0  0
  5 12  1  0  0  0  0
  5 17  1  0  0  0  0
  6  7  1  0  0  0  0
  6  8  1  6  0  0  0
  6 34  1  0  0  0  0
  7 13  1  0  0  0  0
  7 14  1  0  0  0  0
  8 35  1  0  0  0  0
  8 36  1  0  0  0  0
  9 11  1  0  0  0  0
  9 37  1  0  0  0  0
  9 38  1  0  0  0  0
 10 12  1  0  0  0  0
 10 39  1  0  0  0  0
 10 40  1  0  0  0  0
 11 41  1  0  0  0  0
 11 42  1  0  0  0  0
 12 43  1  0  0  0  0
 12 44  1  0  0  0  0
 13 18  2  0  0  0  0
 13 20  1  0  0  0  0
 14 19  2  0  0  0  0
 14 21  1  0  0  0  0
 15 16  1  0  0  0  0
 15 45  1  0  0  0  0
 15 46  1  0  0  0  0
 16 47  1  0  0  0  0
 16 48  1  0  0  0  0
 17 22  1  0  0  0  0
 17 27  2  0  0  0  0
 18 23  1  0  0  0  0
 18 49  1  0  0  0  0
 19 24  1  0  0  0  0
 19 50  1  0  0  0  0
 20 25  2  0  0  0  0
 20 51  1  0  0  0  0
 21 26  2  0  0  0  0
 21 52  1  0  0  0  0
 22 30  2  0  0  0  0
 23 28  2  0  0  0  0
 23 53  1  0  0  0  0
 24 29  2  0  0  0  0
 24 54  1  0  0  0  0
 25 28  1  0  0  0  0
 25 55  1  0  0  0  0
 26 29  1  0  0  0  0
 26 56  1  0  0  0  0
 27 31  1  0  0  0  0
 27 57  1  0  0  0  0
 28 58  1  0  0  0  0
 29 59  1  0  0  0  0
 30 32  1  0  0  0  0
 30 60  1  0  0  0  0
 31 32  2  0  0  0  0
 31 61  1  0  0  0  0
 32 62  1  0  0  0  0
 33 63  1  0  0  0  0
 33 64  1  0  0  0  0
 33 65  1  0  0  0  0
M  END
> <PUBCHEM_COMPOUND_CID>
155515301

> <PUBCHEM_COMPOUND_CANONICALIZED>
1

> <PUBCHEM_CACTVS_COMPLEXITY>
564

> <PUBCHEM_CACTVS_HBOND_ACCEPTOR>
5

> <PUBCHEM_CACTVS_HBOND_DONOR>
0

> <PUBCHEM_CACTVS_ROTATABLE_BOND>
6

> <PUBCHEM_CACTVS_SUBSKEYS>
AAADcfB7MAAAAAAAAAAAAAAAAAAAAAAAAAA8aMECAAAAAAABUAAAHgAAAAAADFzhmAYyxoMABACAAiRCQACCCAAhIgAIiAAPbIgPZiLEsZuXMChmwBHa6AeQwOAOgAAAAAAAEAAAAAAAAAAgAAAAAAAAAA==

> <PUBCHEM_IUPAC_OPENEYE_NAME>
1-[[(2R)-3,3-diphenyl-1,4-dioxan-2-yl]methyl]-4-(2-methoxyphenyl)piperazine

> <PUBCHEM_IUPAC_CAS_NAME>
1-[[(2R)-3,3-diphenyl-1,4-dioxan-2-yl]methyl]-4-(2-methoxyphenyl)piperazine

> <PUBCHEM_IUPAC_NAME_MARKUP>
1-[[(2<I>R</I>)-3,3-diphenyl-1,4-dioxan-2-yl]methyl]-4-(2-methoxyphenyl)piperazine

> <PUBCHEM_IUPAC_NAME>
1-[[(2R)-3,3-diphenyl-1,4-dioxan-2-yl]methyl]-4-(2-methoxyphenyl)piperazine

> <PUBCHEM_IUPAC_SYSTEMATIC_NAME>
1-[[(2R)-3,3-diphenyl-1,4-dioxan-2-yl]methyl]-4-(2-methoxyphenyl)piperazine

> <PUBCHEM_IUPAC_TRADITIONAL_NAME>
1-[[(2R)-3,3-diphenyl-1,4-dioxan-2-yl]methyl]-4-(2-methoxyphenyl)piperazine

> <PUBCHEM_IUPAC_INCHI>
InChI=1S/C28H32N2O3/c1-31-26-15-9-8-14-25(26)30-18-16-29(17-19-30)22-27-28(33-21-20-32-27,23-10-4-2-5-11-23)24-12-6-3-7-13-24/h2-15,27H,16-22H2,1H3/t27-/m1/s1

> <PUBCHEM_IUPAC_INCHIKEY>
UJRXZWAABVTTPQ-HHHXNRCGSA-N

> <PUBCHEM_XLOGP3_AA>
4.4

> <PUBCHEM_EXACT_MASS>
444.24129289

> <PUBCHEM_MOLECULAR_FORMULA>
C28H32N2O3

> <PUBCHEM_MOLECULAR_WEIGHT>
444.6

> <PUBCHEM_OPENEYE_CAN_SMILES>
COC1=CC=CC=C1N2CCN(CC2)CC3C(OCCO3)(C4=CC=CC=C4)C5=CC=CC=C5

> <PUBCHEM_OPENEYE_ISO_SMILES>
COC1=CC=CC=C1N2CCN(CC2)C[C@@H]3C(OCCO3)(C4=CC=CC=C4)C5=CC=CC=C5

> <PUBCHEM_CACTVS_TPSA>
34.2

> <PUBCHEM_MONOISOTOPIC_WEIGHT>
444.24129289

> <PUBCHEM_TOTAL_CHARGE>
0

> <PUBCHEM_HEAVY_ATOM_COUNT>
33

> <PUBCHEM_ATOM_DEF_STEREO_COUNT>
1

> <PUBCHEM_ATOM_UDEF_STEREO_COUNT>
0

> <PUBCHEM_BOND_DEF_STEREO_COUNT>
0

> <PUBCHEM_BOND_UDEF_STEREO_COUNT>
0

> <PUBCHEM_ISOTOPIC_ATOM_COUNT>
0

> <PUBCHEM_COMPONENT_COUNT>
1

> <PUBCHEM_CACTVS_TAUTO_COUNT>
-1

> <PUBCHEM_COORDINATE_TYPE>
1
5
255

> <PUBCHEM_BONDANNOTATIONS>
13  18  8
13  20  8
14  19  8
14  21  8
17  22  8
17  27  8
18  23  8
19  24  8
20  25  8
21  26  8
22  30  8
23  28  8
24  29  8
25  28  8
26  29  8
27  31  8
30  32  8
31  32  8
6  8  6

$$$$
