11257780
  -OEChem-09292322522D

 52 54  0     1  0  0  0  0  0999 V2000
    2.0000    1.8561    0.0000 Cl  0  0  0  0  0  0  0  0  0  0  0  0
   14.8528   -1.8561    0.0000 F   0  0  0  0  0  0  0  0  0  0  0  0
    4.7029   -0.3133    0.0000 O   0  0  0  0  0  0  0  0  0  0  0  0
   11.1742    0.8766    0.0000 O   0  0  0  0  0  0  0  0  0  0  0  0
    7.7945   -0.3794    0.0000 N   0  0  3  0  0  0  0  0  0  0  0  0
    5.6039    0.1206    0.0000 C   0  0  3  0  0  0  0  0  0  0  0  0
    6.0378   -0.7804    0.0000 C   0  0  0  0  0  0  0  0  0  0  0  0
    6.0378    1.0215    0.0000 C   0  0  0  0  0  0  0  0  0  0  0  0
    7.0127   -1.0029    0.0000 C   0  0  0  0  0  0  0  0  0  0  0  0
    7.0127    1.2441    0.0000 C   0  0  0  0  0  0  0  0  0  0  0  0
    7.7945    0.6206    0.0000 C   0  0  0  0  0  0  0  0  0  0  0  0
    4.7029    0.5544    0.0000 C   0  0  0  0  0  0  0  0  0  0  0  0
    8.6955   -0.8133    0.0000 C   0  0  0  0  0  0  0  0  0  0  0  0
    9.5217   -0.2500    0.0000 C   0  0  0  0  0  0  0  0  0  0  0  0
    3.8767   -0.0089    0.0000 C   0  0  0  0  0  0  0  0  0  0  0  0
    4.6282    1.5516    0.0000 C   0  0  0  0  0  0  0  0  0  0  0  0
   10.4227   -0.6839    0.0000 C   0  0  0  0  0  0  0  0  0  0  0  0
    2.9757    0.4250    0.0000 C   0  0  0  0  0  0  0  0  0  0  0  0
    3.7272    1.9855    0.0000 C   0  0  0  0  0  0  0  0  0  0  0  0
    2.9010    1.4222    0.0000 C   0  0  0  0  0  0  0  0  0  0  0  0
   11.2489   -0.1206    0.0000 C   0  0  0  0  0  0  0  0  0  0  0  0
   12.1499   -0.5544    0.0000 C   0  0  0  0  0  0  0  0  0  0  0  0
   12.9761    0.0089    0.0000 C   0  0  0  0  0  0  0  0  0  0  0  0
   12.2246   -1.5516    0.0000 C   0  0  0  0  0  0  0  0  0  0  0  0
   13.8771   -0.4250    0.0000 C   0  0  0  0  0  0  0  0  0  0  0  0
   13.1256   -1.9855    0.0000 C   0  0  0  0  0  0  0  0  0  0  0  0
   13.9518   -1.4222    0.0000 C   0  0  0  0  0  0  0  0  0  0  0  0
    5.4333   -0.9184    0.0000 H   0  0  0  0  0  0  0  0  0  0  0  0
    6.0378   -1.4004    0.0000 H   0  0  0  0  0  0  0  0  0  0  0  0
    6.0378    1.6415    0.0000 H   0  0  0  0  0  0  0  0  0  0  0  0
    5.4333    1.1595    0.0000 H   0  0  0  0  0  0  0  0  0  0  0  0
    6.7437   -1.5615    0.0000 H   0  0  0  0  0  0  0  0  0  0  0  0
    7.4974   -1.3895    0.0000 H   0  0  0  0  0  0  0  0  0  0  0  0
    7.4974    1.6306    0.0000 H   0  0  0  0  0  0  0  0  0  0  0  0
    6.7437    1.8026    0.0000 H   0  0  0  0  0  0  0  0  0  0  0  0
    8.3990    0.4826    0.0000 H   0  0  0  0  0  0  0  0  0  0  0  0
    8.0635    1.1792    0.0000 H   0  0  0  0  0  0  0  0  0  0  0  0
    8.3336   -1.3167    0.0000 H   0  0  0  0  0  0  0  0  0  0  0  0
    9.1284   -1.2572    0.0000 H   0  0  0  0  0  0  0  0  0  0  0  0
    9.8836    0.2534    0.0000 H   0  0  0  0  0  0  0  0  0  0  0  0
    9.0888    0.1938    0.0000 H   0  0  0  0  0  0  0  0  0  0  0  0
    4.6566   -0.9316    0.0000 H   0  0  0  0  0  0  0  0  0  0  0  0
    3.9230   -0.6271    0.0000 H   0  0  0  0  0  0  0  0  0  0  0  0
    5.1404    1.9009    0.0000 H   0  0  0  0  0  0  0  0  0  0  0  0
   10.0608   -1.1873    0.0000 H   0  0  0  0  0  0  0  0  0  0  0  0
   10.8556   -1.1277    0.0000 H   0  0  0  0  0  0  0  0  0  0  0  0
    2.4634    0.0758    0.0000 H   0  0  0  0  0  0  0  0  0  0  0  0
    3.6809    2.6038    0.0000 H   0  0  0  0  0  0  0  0  0  0  0  0
   12.9298    0.6271    0.0000 H   0  0  0  0  0  0  0  0  0  0  0  0
   11.7124   -1.9009    0.0000 H   0  0  0  0  0  0  0  0  0  0  0  0
   14.3894   -0.0758    0.0000 H   0  0  0  0  0  0  0  0  0  0  0  0
   13.1719   -2.6038    0.0000 H   0  0  0  0  0  0  0  0  0  0  0  0
  1 20  1  0  0  0  0
  2 27  1  0  0  0  0
  3  6  1  0  0  0  0
  3 42  1  0  0  0  0
  4 21  2  0  0  0  0
  5  9  1  0  0  0  0
  5 11  1  0  0  0  0
  5 13  1  0  0  0  0
  6  7  1  0  0  0  0
  6  8  1  0  0  0  0
  6 12  1  0  0  0  0
  7  9  1  0  0  0  0
  7 28  1  0  0  0  0
  7 29  1  0  0  0  0
  8 10  1  0  0  0  0
  8 30  1  0  0  0  0
  8 31  1  0  0  0  0
  9 32  1  0  0  0  0
  9 33  1  0  0  0  0
 10 11  1  0  0  0  0
 10 34  1  0  0  0  0
 10 35  1  0  0  0  0
 11 36  1  0  0  0  0
 11 37  1  0  0  0  0
 12 15  2  0  0  0  0
 12 16  1  0  0  0  0
 13 14  1  0  0  0  0
 13 38  1  0  0  0  0
 13 39  1  0  0  0  0
 14 17  1  0  0  0  0
 14 40  1  0  0  0  0
 14 41  1  0  0  0  0
 15 18  1  0  0  0  0
 15 43  1  0  0  0  0
 16 19  2  0  0  0  0
 16 44  1  0  0  0  0
 17 21  1  0  0  0  0
 17 45  1  0  0  0  0
 17 46  1  0  0  0  0
 18 20  2  0  0  0  0
 18 47  1  0  0  0  0
 19 20  1  0  0  0  0
 19 48  1  0  0  0  0
 21 22  1  0  0  0  0
 22 23  2  0  0  0  0
 22 24  1  0  0  0  0
 23 25  1  0  0  0  0
 23 49  1  0  0  0  0
 24 26  2  0  0  0  0
 24 50  1  0  0  0  0
 25 27  2  0  0  0  0
 25 51  1  0  0  0  0
 26 27  1  0  0  0  0
 26 52  1  0  0  0  0
M  END
> <PUBCHEM_COMPOUND_CID>
11257780

> <PUBCHEM_COMPOUND_CANONICALIZED>
1

> <PUBCHEM_CACTVS_COMPLEXITY>
475

> <PUBCHEM_CACTVS_HBOND_ACCEPTOR>
4

> <PUBCHEM_CACTVS_HBOND_DONOR>
1

> <PUBCHEM_CACTVS_ROTATABLE_BOND>
6

> <PUBCHEM_CACTVS_SUBSKEYS>
AAADceB6MQAEAAAAAAAAAAAAAAAAAAAAAAAwYAAABYAAAAABQAAAHwIACAAADEbBmCwwAIMAAgCIAqBSAAACAAAkBQAIiAEICsgIJjKBlxCEcQAmwAGImYe8yOCOhAAAAAAAAAAIAAAAAAAAAAAAAAAAAA==

> <PUBCHEM_IUPAC_OPENEYE_NAME>
4-[4-(4-chlorophenyl)-4-hydroxy-azepan-1-yl]-1-(4-fluorophenyl)butan-1-one

> <PUBCHEM_IUPAC_CAS_NAME>
4-[4-(4-chlorophenyl)-4-hydroxy-1-azepanyl]-1-(4-fluorophenyl)-1-butanone

> <PUBCHEM_IUPAC_NAME_MARKUP>
4-[4-(4-chlorophenyl)-4-hydroxyazepan-1-yl]-1-(4-fluorophenyl)butan-1-one

> <PUBCHEM_IUPAC_NAME>
4-[4-(4-chlorophenyl)-4-hydroxyazepan-1-yl]-1-(4-fluorophenyl)butan-1-one

> <PUBCHEM_IUPAC_SYSTEMATIC_NAME>
4-[4-(4-chlorophenyl)-4-oxidanyl-azepan-1-yl]-1-(4-fluorophenyl)butan-1-one

> <PUBCHEM_IUPAC_TRADITIONAL_NAME>
4-[4-(4-chlorophenyl)-4-hydroxy-azepan-1-yl]-1-(4-fluorophenyl)butan-1-one

> <PUBCHEM_IUPAC_INCHI>
InChI=1S/C22H25ClFNO2/c23-19-8-6-18(7-9-19)22(27)12-2-15-25(16-13-22)14-1-3-21(26)17-4-10-20(24)11-5-17/h4-11,27H,1-3,12-16H2

> <PUBCHEM_IUPAC_INCHIKEY>
JJXYNELAGRWXFC-UHFFFAOYSA-N

> <PUBCHEM_XLOGP3>
3.6

> <PUBCHEM_EXACT_MASS>
389.1557849

> <PUBCHEM_MOLECULAR_FORMULA>
C22H25ClFNO2

> <PUBCHEM_MOLECULAR_WEIGHT>
389.9

> <PUBCHEM_OPENEYE_CAN_SMILES>
C1CC(CCN(C1)CCCC(=O)C2=CC=C(C=C2)F)(C3=CC=C(C=C3)Cl)O

> <PUBCHEM_OPENEYE_ISO_SMILES>
C1CC(CCN(C1)CCCC(=O)C2=CC=C(C=C2)F)(C3=CC=C(C=C3)Cl)O

> <PUBCHEM_CACTVS_TPSA>
40.5

> <PUBCHEM_MONOISOTOPIC_WEIGHT>
389.1557849

> <PUBCHEM_TOTAL_CHARGE>
0

> <PUBCHEM_HEAVY_ATOM_COUNT>
27

> <PUBCHEM_ATOM_DEF_STEREO_COUNT>
0

> <PUBCHEM_ATOM_UDEF_STEREO_COUNT>
1

> <PUBCHEM_BOND_DEF_STEREO_COUNT>
0

> <PUBCHEM_BOND_UDEF_STEREO_COUNT>
0

> <PUBCHEM_ISOTOPIC_ATOM_COUNT>
0

> <PUBCHEM_COMPONENT_COUNT>
1

> <PUBCHEM_CACTVS_TAUTO_COUNT>
-1

> <PUBCHEM_COORDINATE_TYPE>
1
5
255

> <PUBCHEM_BONDANNOTATIONS>
12  15  8
12  16  8
15  18  8
16  19  8
18  20  8
19  20  8
22  23  8
22  24  8
23  25  8
24  26  8
25  27  8
26  27  8
6  3  3

$$$$
