134154387
  -OEChem-09292322382D

 45 48  0     1  0  0  0  0  0999 V2000
    5.5321    0.2500    0.0000 N   0  0  3  0  0  0  0  0  0  0  0  0
    6.3981   -0.2500    0.0000 C   0  0  0  0  0  0  0  0  0  0  0  0
    5.5321    1.2500    0.0000 C   0  0  0  0  0  0  0  0  0  0  0  0
    4.6660   -0.2500    0.0000 C   0  0  0  0  0  0  0  0  0  0  0  0
    7.2641    0.2500    0.0000 C   0  0  0  0  0  0  0  0  0  0  0  0
    4.6660    1.7500    0.0000 C   0  0  0  0  0  0  0  0  0  0  0  0
    3.8000    0.2500    0.0000 C   0  0  0  0  0  0  0  0  0  0  0  0
    8.1301   -0.2500    0.0000 C   0  0  0  0  0  0  0  0  0  0  0  0
    3.8000    1.2500    0.0000 C   0  0  0  0  0  0  0  0  0  0  0  0
    8.1301   -1.2500    0.0000 C   0  0  0  0  0  0  0  0  0  0  0  0
    8.9962   -1.7500    0.0000 C   0  0  0  0  0  0  0  0  0  0  0  0
    8.9962    0.2500    0.0000 C   0  0  0  0  0  0  0  0  0  0  0  0
    9.8622   -1.2500    0.0000 C   0  0  0  0  0  0  0  0  0  0  0  0
    9.8622   -0.2500    0.0000 C   0  0  0  0  0  0  0  0  0  0  0  0
    2.9061   -0.2847    0.0000 C   0  0  0  0  0  0  0  0  0  0  0  0
    2.9061    1.7847    0.0000 C   0  0  0  0  0  0  0  0  0  0  0  0
    2.0000    0.2292    0.0000 C   0  0  0  0  0  0  0  0  0  0  0  0
    2.0000    1.2708    0.0000 C   0  0  0  0  0  0  0  0  0  0  0  0
   10.7561   -1.7847    0.0000 C   0  0  0  0  0  0  0  0  0  0  0  0
   10.7561    0.2847    0.0000 C   0  0  0  0  0  0  0  0  0  0  0  0
   11.6622   -1.2708    0.0000 C   0  0  0  0  0  0  0  0  0  0  0  0
   11.6622   -0.2292    0.0000 C   0  0  0  0  0  0  0  0  0  0  0  0
    5.9996   -0.7249    0.0000 H   0  0  0  0  0  0  0  0  0  0  0  0
    6.7966   -0.7249    0.0000 H   0  0  0  0  0  0  0  0  0  0  0  0
    6.1426    1.1423    0.0000 H   0  0  0  0  0  0  0  0  0  0  0  0
    5.7441    1.8326    0.0000 H   0  0  0  0  0  0  0  0  0  0  0  0
    4.2675   -0.7249    0.0000 H   0  0  0  0  0  0  0  0  0  0  0  0
    5.0646   -0.7249    0.0000 H   0  0  0  0  0  0  0  0  0  0  0  0
    7.6626    0.7249    0.0000 H   0  0  0  0  0  0  0  0  0  0  0  0
    6.8656    0.7249    0.0000 H   0  0  0  0  0  0  0  0  0  0  0  0
    5.0646    2.2250    0.0000 H   0  0  0  0  0  0  0  0  0  0  0  0
    4.2675    2.2250    0.0000 H   0  0  0  0  0  0  0  0  0  0  0  0
    7.5196   -1.1423    0.0000 H   0  0  0  0  0  0  0  0  0  0  0  0
    7.9181   -1.8326    0.0000 H   0  0  0  0  0  0  0  0  0  0  0  0
    8.5976   -2.2250    0.0000 H   0  0  0  0  0  0  0  0  0  0  0  0
    9.3947   -2.2250    0.0000 H   0  0  0  0  0  0  0  0  0  0  0  0
    8.9962    0.8700    0.0000 H   0  0  0  0  0  0  0  0  0  0  0  0
    2.9132   -0.9046    0.0000 H   0  0  0  0  0  0  0  0  0  0  0  0
    2.9132    2.4046    0.0000 H   0  0  0  0  0  0  0  0  0  0  0  0
    1.4643   -0.0829    0.0000 H   0  0  0  0  0  0  0  0  0  0  0  0
    1.4643    1.5829    0.0000 H   0  0  0  0  0  0  0  0  0  0  0  0
   10.7490   -2.4046    0.0000 H   0  0  0  0  0  0  0  0  0  0  0  0
   10.7490    0.9046    0.0000 H   0  0  0  0  0  0  0  0  0  0  0  0
   12.1979   -1.5829    0.0000 H   0  0  0  0  0  0  0  0  0  0  0  0
   12.1979    0.0829    0.0000 H   0  0  0  0  0  0  0  0  0  0  0  0
  1  2  1  0  0  0  0
  1  3  1  0  0  0  0
  1  4  1  0  0  0  0
  2  5  1  0  0  0  0
  2 23  1  0  0  0  0
  2 24  1  0  0  0  0
  3  6  1  0  0  0  0
  3 25  1  0  0  0  0
  3 26  1  0  0  0  0
  4  7  1  0  0  0  0
  4 27  1  0  0  0  0
  4 28  1  0  0  0  0
  5  8  1  0  0  0  0
  5 29  1  0  0  0  0
  5 30  1  0  0  0  0
  6  9  1  0  0  0  0
  6 31  1  0  0  0  0
  6 32  1  0  0  0  0
  7  9  1  0  0  0  0
  7 15  2  0  0  0  0
  8 10  1  0  0  0  0
  8 12  2  0  0  0  0
  9 16  2  0  0  0  0
 10 11  1  0  0  0  0
 10 33  1  0  0  0  0
 10 34  1  0  0  0  0
 11 13  1  0  0  0  0
 11 35  1  0  0  0  0
 11 36  1  0  0  0  0
 12 14  1  0  0  0  0
 12 37  1  0  0  0  0
 13 14  1  0  0  0  0
 13 19  2  0  0  0  0
 14 20  2  0  0  0  0
 15 17  1  0  0  0  0
 15 38  1  0  0  0  0
 16 18  1  0  0  0  0
 16 39  1  0  0  0  0
 17 18  2  0  0  0  0
 17 40  1  0  0  0  0
 18 41  1  0  0  0  0
 19 21  1  0  0  0  0
 19 42  1  0  0  0  0
 20 22  1  0  0  0  0
 20 43  1  0  0  0  0
 21 22  2  0  0  0  0
 21 44  1  0  0  0  0
 22 45  1  0  0  0  0
M  END
> <PUBCHEM_COMPOUND_CID>
134154387

> <PUBCHEM_COMPOUND_CANONICALIZED>
1

> <PUBCHEM_CACTVS_COMPLEXITY>
399

> <PUBCHEM_CACTVS_HBOND_ACCEPTOR>
1

> <PUBCHEM_CACTVS_HBOND_DONOR>
0

> <PUBCHEM_CACTVS_ROTATABLE_BOND>
3

> <PUBCHEM_CACTVS_SUBSKEYS>
AAADceB6AAAAAAAAAAAAAAAAAAAAAAAAAAA8YIEAAAAAAACxQAAAHAAAAAAADADBGAQwAIMAAACAAiBCAACCAAAgAAAIiAAIBIgIICKAkRGEIAhggACIiAcQgMAOgAAAAAAQAAAAAAAAACAAAAAAAAAAAA==

> <PUBCHEM_IUPAC_OPENEYE_NAME>
2-[2-(3,4-dihydronaphthalen-2-yl)ethyl]-3,4-dihydro-1H-isoquinoline

> <PUBCHEM_IUPAC_CAS_NAME>
2-[2-(3,4-dihydronaphthalen-2-yl)ethyl]-3,4-dihydro-1H-isoquinoline

> <PUBCHEM_IUPAC_NAME_MARKUP>
2-[2-(3,4-dihydronaphthalen-2-yl)ethyl]-3,4-dihydro-1<I>H</I>-isoquinoline

> <PUBCHEM_IUPAC_NAME>
2-[2-(3,4-dihydronaphthalen-2-yl)ethyl]-3,4-dihydro-1H-isoquinoline

> <PUBCHEM_IUPAC_SYSTEMATIC_NAME>
2-[2-(3,4-dihydronaphthalen-2-yl)ethyl]-3,4-dihydro-1H-isoquinoline

> <PUBCHEM_IUPAC_TRADITIONAL_NAME>
2-[2-(3,4-dihydronaphthalen-2-yl)ethyl]-3,4-dihydro-1H-isoquinoline

> <PUBCHEM_IUPAC_INCHI>
InChI=1S/C21H23N/c1-3-7-20-15-17(9-10-18(20)5-1)11-13-22-14-12-19-6-2-4-8-21(19)16-22/h1-8,15H,9-14,16H2

> <PUBCHEM_IUPAC_INCHIKEY>
UXAXXXXPTUTANS-UHFFFAOYSA-N

> <PUBCHEM_XLOGP3_AA>
4.4

> <PUBCHEM_EXACT_MASS>
289.183049738

> <PUBCHEM_MOLECULAR_FORMULA>
C21H23N

> <PUBCHEM_MOLECULAR_WEIGHT>
289.4

> <PUBCHEM_OPENEYE_CAN_SMILES>
C1CC(=CC2=CC=CC=C21)CCN3CCC4=CC=CC=C4C3

> <PUBCHEM_OPENEYE_ISO_SMILES>
C1CC(=CC2=CC=CC=C21)CCN3CCC4=CC=CC=C4C3

> <PUBCHEM_CACTVS_TPSA>
3.2

> <PUBCHEM_MONOISOTOPIC_WEIGHT>
289.183049738

> <PUBCHEM_TOTAL_CHARGE>
0

> <PUBCHEM_HEAVY_ATOM_COUNT>
22

> <PUBCHEM_ATOM_DEF_STEREO_COUNT>
0

> <PUBCHEM_ATOM_UDEF_STEREO_COUNT>
0

> <PUBCHEM_BOND_DEF_STEREO_COUNT>
0

> <PUBCHEM_BOND_UDEF_STEREO_COUNT>
0

> <PUBCHEM_ISOTOPIC_ATOM_COUNT>
0

> <PUBCHEM_COMPONENT_COUNT>
1

> <PUBCHEM_CACTVS_TAUTO_COUNT>
-1

> <PUBCHEM_COORDINATE_TYPE>
1
5
255

> <PUBCHEM_BONDANNOTATIONS>
13  14  8
13  19  8
14  20  8
15  17  8
16  18  8
17  18  8
19  21  8
20  22  8
21  22  8
7  15  8
7  9  8
9  16  8

$$$$
