21073872
  -OEChem-09292322312D

 58 61  0     0  0  0  0  0  0999 V2000
   15.0583   -0.9671    0.0000 Cl  0  0  0  0  0  0  0  0  0  0  0  0
   16.7942    0.0262    0.0000 Cl  0  0  0  0  0  0  0  0  0  0  0  0
    2.0000   -1.4129    0.0000 O   0  0  0  0  0  0  0  0  0  0  0  0
   11.5942   -0.9537    0.0000 N   0  0  0  0  0  0  0  0  0  0  0  0
   13.3301    0.0396    0.0000 N   0  0  0  0  0  0  0  0  0  0  0  0
    5.4920   -1.4475    0.0000 N   0  0  0  0  0  0  0  0  0  0  0  0
    3.7320   -1.4129    0.0000 N   0  0  0  0  0  0  0  0  0  0  0  0
   12.4583   -1.4571    0.0000 C   0  0  0  0  0  0  0  0  0  0  0  0
   11.5981    0.0463    0.0000 C   0  0  0  0  0  0  0  0  0  0  0  0
   10.7263   -1.4504    0.0000 C   0  0  0  0  0  0  0  0  0  0  0  0
   13.3262   -0.9604    0.0000 C   0  0  0  0  0  0  0  0  0  0  0  0
   12.4660    0.5429    0.0000 C   0  0  0  0  0  0  0  0  0  0  0  0
    9.8622   -0.9471    0.0000 C   0  0  0  0  0  0  0  0  0  0  0  0
    8.9942   -1.4437    0.0000 C   0  0  0  0  0  0  0  0  0  0  0  0
    8.1301   -0.9404    0.0000 C   0  0  0  0  0  0  0  0  0  0  0  0
   14.1980    0.5362    0.0000 C   0  0  0  0  0  0  0  0  0  0  0  0
    7.2622   -1.4370    0.0000 C   0  0  0  0  0  0  0  0  0  0  0  0
    6.3981   -0.9337    0.0000 C   0  0  0  0  0  0  0  0  0  0  0  0
   15.0621    0.0329    0.0000 C   0  0  0  0  0  0  0  0  0  0  0  0
   14.2019    1.5362    0.0000 C   0  0  0  0  0  0  0  0  0  0  0  0
    4.5981    0.0871    0.0000 C   0  0  0  0  0  0  0  0  0  0  0  0
    3.7320    0.5871    0.0000 C   0  0  0  0  0  0  0  0  0  0  0  0
    4.5981   -0.9129    0.0000 C   0  0  0  0  0  0  0  0  0  0  0  0
    6.3981    0.1079    0.0000 C   0  0  0  0  0  0  0  0  0  0  0  0
    2.8660    0.0871    0.0000 C   0  0  0  0  0  0  0  0  0  0  0  0
    5.4920    0.6218    0.0000 C   0  0  0  0  0  0  0  0  0  0  0  0
   15.9301    0.5296    0.0000 C   0  0  0  0  0  0  0  0  0  0  0  0
   15.0698    2.0329    0.0000 C   0  0  0  0  0  0  0  0  0  0  0  0
   15.9339    1.5296    0.0000 C   0  0  0  0  0  0  0  0  0  0  0  0
    2.8660   -0.9129    0.0000 C   0  0  0  0  0  0  0  0  0  0  0  0
   12.0579   -1.9305    0.0000 H   0  0  0  0  0  0  0  0  0  0  0  0
   12.8550   -1.9336    0.0000 H   0  0  0  0  0  0  0  0  0  0  0  0
   11.3882    0.6297    0.0000 H   0  0  0  0  0  0  0  0  0  0  0  0
   10.9871   -0.0590    0.0000 H   0  0  0  0  0  0  0  0  0  0  0  0
   10.3259   -1.9238    0.0000 H   0  0  0  0  0  0  0  0  0  0  0  0
   11.1229   -1.9269    0.0000 H   0  0  0  0  0  0  0  0  0  0  0  0
   13.5360   -1.5438    0.0000 H   0  0  0  0  0  0  0  0  0  0  0  0
   13.9372   -0.8551    0.0000 H   0  0  0  0  0  0  0  0  0  0  0  0
   12.8664    1.0163    0.0000 H   0  0  0  0  0  0  0  0  0  0  0  0
   12.0693    1.0194    0.0000 H   0  0  0  0  0  0  0  0  0  0  0  0
   10.2625   -0.4736    0.0000 H   0  0  0  0  0  0  0  0  0  0  0  0
    9.4655   -0.4706    0.0000 H   0  0  0  0  0  0  0  0  0  0  0  0
    8.5939   -1.9171    0.0000 H   0  0  0  0  0  0  0  0  0  0  0  0
    9.3909   -1.9202    0.0000 H   0  0  0  0  0  0  0  0  0  0  0  0
    8.5305   -0.4670    0.0000 H   0  0  0  0  0  0  0  0  0  0  0  0
    7.7334   -0.4639    0.0000 H   0  0  0  0  0  0  0  0  0  0  0  0
    6.8618   -1.9104    0.0000 H   0  0  0  0  0  0  0  0  0  0  0  0
    7.6589   -1.9135    0.0000 H   0  0  0  0  0  0  0  0  0  0  0  0
   13.6662    1.8483    0.0000 H   0  0  0  0  0  0  0  0  0  0  0  0
    4.1306    1.0621    0.0000 H   0  0  0  0  0  0  0  0  0  0  0  0
    3.3335    1.0621    0.0000 H   0  0  0  0  0  0  0  0  0  0  0  0
    6.9338    0.4200    0.0000 H   0  0  0  0  0  0  0  0  0  0  0  0
    2.6540    0.6697    0.0000 H   0  0  0  0  0  0  0  0  0  0  0  0
    2.2554   -0.0206    0.0000 H   0  0  0  0  0  0  0  0  0  0  0  0
    5.4848    1.2417    0.0000 H   0  0  0  0  0  0  0  0  0  0  0  0
   15.0722    2.6529    0.0000 H   0  0  0  0  0  0  0  0  0  0  0  0
    3.7320   -2.0329    0.0000 H   0  0  0  0  0  0  0  0  0  0  0  0
   16.4721    1.8375    0.0000 H   0  0  0  0  0  0  0  0  0  0  0  0
  1 19  1  0  0  0  0
  2 27  1  0  0  0  0
  3 30  2  0  0  0  0
  4  8  1  0  0  0  0
  4  9  1  0  0  0  0
  4 10  1  0  0  0  0
  5 11  1  0  0  0  0
  5 12  1  0  0  0  0
  5 16  1  0  0  0  0
  6 18  2  0  0  0  0
  6 23  1  0  0  0  0
  7 23  1  0  0  0  0
  7 30  1  0  0  0  0
  7 57  1  0  0  0  0
  8 11  1  0  0  0  0
  8 31  1  0  0  0  0
  8 32  1  0  0  0  0
  9 12  1  0  0  0  0
  9 33  1  0  0  0  0
  9 34  1  0  0  0  0
 10 13  1  0  0  0  0
 10 35  1  0  0  0  0
 10 36  1  0  0  0  0
 11 37  1  0  0  0  0
 11 38  1  0  0  0  0
 12 39  1  0  0  0  0
 12 40  1  0  0  0  0
 13 14  1  0  0  0  0
 13 41  1  0  0  0  0
 13 42  1  0  0  0  0
 14 15  1  0  0  0  0
 14 43  1  0  0  0  0
 14 44  1  0  0  0  0
 15 17  1  0  0  0  0
 15 45  1  0  0  0  0
 15 46  1  0  0  0  0
 16 19  2  0  0  0  0
 16 20  1  0  0  0  0
 17 18  1  0  0  0  0
 17 47  1  0  0  0  0
 17 48  1  0  0  0  0
 18 24  1  0  0  0  0
 19 27  1  0  0  0  0
 20 28  2  0  0  0  0
 20 49  1  0  0  0  0
 21 22  1  0  0  0  0
 21 23  2  0  0  0  0
 21 26  1  0  0  0  0
 22 25  1  0  0  0  0
 22 50  1  0  0  0  0
 22 51  1  0  0  0  0
 24 26  2  0  0  0  0
 24 52  1  0  0  0  0
 25 30  1  0  0  0  0
 25 53  1  0  0  0  0
 25 54  1  0  0  0  0
 26 55  1  0  0  0  0
 27 29  2  0  0  0  0
 28 29  1  0  0  0  0
 28 56  1  0  0  0  0
 29 58  1  0  0  0  0
M  END
> <PUBCHEM_COMPOUND_CID>
21073872

> <PUBCHEM_COMPOUND_CANONICALIZED>
1

> <PUBCHEM_CACTVS_COMPLEXITY>
557

> <PUBCHEM_CACTVS_HBOND_ACCEPTOR>
4

> <PUBCHEM_CACTVS_HBOND_DONOR>
1

> <PUBCHEM_CACTVS_ROTATABLE_BOND>
7

> <PUBCHEM_CACTVS_SUBSKEYS>
AAADceB7oAAGAAAAAAAAAAAAAAAAAAAAAAA8WLEAAAAAAACxwAAAHgIQAAAADArBniQx8JPIEACoAydydACCgCkhByAJmmE4ZpiIYPLBm5HUIAholQLIyCcYicCOAAAAAAIAABQAAAAABAAAKAAAAAAAAA==

> <PUBCHEM_IUPAC_OPENEYE_NAME>
7-[5-[4-(2,3-dichlorophenyl)piperazin-1-yl]pentyl]-3,4-dihydro-1H-1,8-naphthyridin-2-one

> <PUBCHEM_IUPAC_CAS_NAME>
7-[5-[4-(2,3-dichlorophenyl)-1-piperazinyl]pentyl]-3,4-dihydro-1H-1,8-naphthyridin-2-one

> <PUBCHEM_IUPAC_NAME_MARKUP>
7-[5-[4-(2,3-dichlorophenyl)piperazin-1-yl]pentyl]-3,4-dihydro-1<I>H</I>-1,8-naphthyridin-2-one

> <PUBCHEM_IUPAC_NAME>
7-[5-[4-(2,3-dichlorophenyl)piperazin-1-yl]pentyl]-3,4-dihydro-1H-1,8-naphthyridin-2-one

> <PUBCHEM_IUPAC_SYSTEMATIC_NAME>
7-[5-[4-[2,3-bis(chloranyl)phenyl]piperazin-1-yl]pentyl]-3,4-dihydro-1H-1,8-naphthyridin-2-one

> <PUBCHEM_IUPAC_TRADITIONAL_NAME>
7-[5-[4-(2,3-dichlorophenyl)piperazino]pentyl]-3,4-dihydro-1H-1,8-naphthyridin-2-one

> <PUBCHEM_IUPAC_INCHI>
InChI=1S/C23H28Cl2N4O/c24-19-6-4-7-20(22(19)25)29-15-13-28(14-16-29)12-3-1-2-5-18-10-8-17-9-11-21(30)27-23(17)26-18/h4,6-8,10H,1-3,5,9,11-16H2,(H,26,27,30)

> <PUBCHEM_IUPAC_INCHIKEY>
PPTRNJJUIFECMW-UHFFFAOYSA-N

> <PUBCHEM_XLOGP3_AA>
4.6

> <PUBCHEM_EXACT_MASS>
446.1640169

> <PUBCHEM_MOLECULAR_FORMULA>
C23H28Cl2N4O

> <PUBCHEM_MOLECULAR_WEIGHT>
447.4

> <PUBCHEM_OPENEYE_CAN_SMILES>
C1CC(=O)NC2=C1C=CC(=N2)CCCCCN3CCN(CC3)C4=C(C(=CC=C4)Cl)Cl

> <PUBCHEM_OPENEYE_ISO_SMILES>
C1CC(=O)NC2=C1C=CC(=N2)CCCCCN3CCN(CC3)C4=C(C(=CC=C4)Cl)Cl

> <PUBCHEM_CACTVS_TPSA>
48.5

> <PUBCHEM_MONOISOTOPIC_WEIGHT>
446.1640169

> <PUBCHEM_TOTAL_CHARGE>
0

> <PUBCHEM_HEAVY_ATOM_COUNT>
30

> <PUBCHEM_ATOM_DEF_STEREO_COUNT>
0

> <PUBCHEM_ATOM_UDEF_STEREO_COUNT>
0

> <PUBCHEM_BOND_DEF_STEREO_COUNT>
0

> <PUBCHEM_BOND_UDEF_STEREO_COUNT>
0

> <PUBCHEM_ISOTOPIC_ATOM_COUNT>
0

> <PUBCHEM_COMPONENT_COUNT>
1

> <PUBCHEM_CACTVS_TAUTO_COUNT>
-1

> <PUBCHEM_COORDINATE_TYPE>
1
5
255

> <PUBCHEM_BONDANNOTATIONS>
16  19  8
16  20  8
18  24  8
19  27  8
20  28  8
21  23  8
21  26  8
24  26  8
27  29  8
28  29  8
6  18  8
6  23  8

$$$$
