21219173
  -OEChem-09292322502D

 45 48  0     0  0  0  0  0  0999 V2000
    4.5981   -0.7694    0.0000 N   0  0  0  0  0  0  0  0  0  0  0  0
    4.5981    2.2306    0.0000 N   0  0  0  0  0  0  0  0  0  0  0  0
    3.7891    2.8184    0.0000 N   0  0  0  0  0  0  0  0  0  0  0  0
    5.0981    3.7694    0.0000 N   0  0  0  0  0  0  0  0  0  0  0  0
    4.0981    3.7694    0.0000 N   0  0  0  0  0  0  0  0  0  0  0  0
    4.5981    1.2306    0.0000 C   0  0  0  0  0  0  0  0  0  0  0  0
    3.7320    0.7306    0.0000 C   0  0  0  0  0  0  0  0  0  0  0  0
    5.4641    0.7306    0.0000 C   0  0  0  0  0  0  0  0  0  0  0  0
    3.7320   -0.2694    0.0000 C   0  0  0  0  0  0  0  0  0  0  0  0
    5.4641   -0.2694    0.0000 C   0  0  0  0  0  0  0  0  0  0  0  0
    4.5981   -1.7694    0.0000 C   0  0  0  0  0  0  0  0  0  0  0  0
    5.4071    2.8184    0.0000 C   0  0  0  0  0  0  0  0  0  0  0  0
    3.7320   -2.2694    0.0000 C   0  0  0  0  0  0  0  0  0  0  0  0
    6.3582    2.5094    0.0000 C   0  0  0  0  0  0  0  0  0  0  0  0
    2.8660   -1.7694    0.0000 C   0  0  0  0  0  0  0  0  0  0  0  0
    3.7320   -3.2694    0.0000 C   0  0  0  0  0  0  0  0  0  0  0  0
    6.5661    1.5312    0.0000 C   0  0  0  0  0  0  0  0  0  0  0  0
    7.1013    3.1785    0.0000 C   0  0  0  0  0  0  0  0  0  0  0  0
    2.0000   -2.2694    0.0000 C   0  0  0  0  0  0  0  0  0  0  0  0
    2.8660   -3.7694    0.0000 C   0  0  0  0  0  0  0  0  0  0  0  0
    2.0000   -3.2694    0.0000 C   0  0  0  0  0  0  0  0  0  0  0  0
    7.5171    1.2222    0.0000 C   0  0  0  0  0  0  0  0  0  0  0  0
    8.0524    2.8695    0.0000 C   0  0  0  0  0  0  0  0  0  0  0  0
    8.2603    1.8913    0.0000 C   0  0  0  0  0  0  0  0  0  0  0  0
    5.1350    1.5406    0.0000 H   0  0  0  0  0  0  0  0  0  0  0  0
    3.5200    1.3132    0.0000 H   0  0  0  0  0  0  0  0  0  0  0  0
    3.1215    0.6229    0.0000 H   0  0  0  0  0  0  0  0  0  0  0  0
    6.0747    0.6229    0.0000 H   0  0  0  0  0  0  0  0  0  0  0  0
    5.6762    1.3132    0.0000 H   0  0  0  0  0  0  0  0  0  0  0  0
    3.1215   -0.1618    0.0000 H   0  0  0  0  0  0  0  0  0  0  0  0
    3.5200   -0.8520    0.0000 H   0  0  0  0  0  0  0  0  0  0  0  0
    5.6762   -0.8520    0.0000 H   0  0  0  0  0  0  0  0  0  0  0  0
    6.0747   -0.1618    0.0000 H   0  0  0  0  0  0  0  0  0  0  0  0
    4.8101   -2.3520    0.0000 H   0  0  0  0  0  0  0  0  0  0  0  0
    5.2087   -1.6618    0.0000 H   0  0  0  0  0  0  0  0  0  0  0  0
    2.8660   -1.1494    0.0000 H   0  0  0  0  0  0  0  0  0  0  0  0
    4.2690   -3.5794    0.0000 H   0  0  0  0  0  0  0  0  0  0  0  0
    6.1053    1.1163    0.0000 H   0  0  0  0  0  0  0  0  0  0  0  0
    6.9724    3.7849    0.0000 H   0  0  0  0  0  0  0  0  0  0  0  0
    1.4631   -1.9594    0.0000 H   0  0  0  0  0  0  0  0  0  0  0  0
    2.8660   -4.3894    0.0000 H   0  0  0  0  0  0  0  0  0  0  0  0
    1.4631   -3.5794    0.0000 H   0  0  0  0  0  0  0  0  0  0  0  0
    7.6460    0.6157    0.0000 H   0  0  0  0  0  0  0  0  0  0  0  0
    8.5131    3.2843    0.0000 H   0  0  0  0  0  0  0  0  0  0  0  0
    8.8499    1.6997    0.0000 H   0  0  0  0  0  0  0  0  0  0  0  0
  1  9  1  0  0  0  0
  1 10  1  0  0  0  0
  1 11  1  0  0  0  0
  2  3  1  0  0  0  0
  2  6  1  0  0  0  0
  2 12  1  0  0  0  0
  3  5  2  0  0  0  0
  4  5  1  0  0  0  0
  4 12  2  0  0  0  0
  6  7  1  0  0  0  0
  6  8  1  0  0  0  0
  6 25  1  0  0  0  0
  7  9  1  0  0  0  0
  7 26  1  0  0  0  0
  7 27  1  0  0  0  0
  8 10  1  0  0  0  0
  8 28  1  0  0  0  0
  8 29  1  0  0  0  0
  9 30  1  0  0  0  0
  9 31  1  0  0  0  0
 10 32  1  0  0  0  0
 10 33  1  0  0  0  0
 11 13  1  0  0  0  0
 11 34  1  0  0  0  0
 11 35  1  0  0  0  0
 12 14  1  0  0  0  0
 13 15  2  0  0  0  0
 13 16  1  0  0  0  0
 14 17  2  0  0  0  0
 14 18  1  0  0  0  0
 15 19  1  0  0  0  0
 15 36  1  0  0  0  0
 16 20  2  0  0  0  0
 16 37  1  0  0  0  0
 17 22  1  0  0  0  0
 17 38  1  0  0  0  0
 18 23  2  0  0  0  0
 18 39  1  0  0  0  0
 19 21  2  0  0  0  0
 19 40  1  0  0  0  0
 20 21  1  0  0  0  0
 20 41  1  0  0  0  0
 21 42  1  0  0  0  0
 22 24  2  0  0  0  0
 22 43  1  0  0  0  0
 23 24  1  0  0  0  0
 23 44  1  0  0  0  0
 24 45  1  0  0  0  0
M  END
> <PUBCHEM_COMPOUND_CID>
21219173

> <PUBCHEM_COMPOUND_CANONICALIZED>
1

> <PUBCHEM_CACTVS_COMPLEXITY>
370

> <PUBCHEM_CACTVS_HBOND_ACCEPTOR>
4

> <PUBCHEM_CACTVS_HBOND_DONOR>
0

> <PUBCHEM_CACTVS_ROTATABLE_BOND>
4

> <PUBCHEM_CACTVS_SUBSKEYS>
AAADceB7gAAAAAAAAAAAAAAAAAAAAWAAAAA8YIAAAAAAAAAB0AAAHAAIAAAADCjBGwQxEIcIAACiAiJiJACCAAMggIAdyCAoBJiIIKKA2RGEIAhggAKIiAcQgAAOAAAAAAAAAAAAAAAAAAAAAAAAAAAAAA==

> <PUBCHEM_IUPAC_OPENEYE_NAME>
1-benzyl-4-(5-phenyltetrazol-1-yl)piperidine

> <PUBCHEM_IUPAC_CAS_NAME>
1-(phenylmethyl)-4-(5-phenyl-1-tetrazolyl)piperidine

> <PUBCHEM_IUPAC_NAME_MARKUP>
1-benzyl-4-(5-phenyltetrazol-1-yl)piperidine

> <PUBCHEM_IUPAC_NAME>
1-benzyl-4-(5-phenyltetrazol-1-yl)piperidine

> <PUBCHEM_IUPAC_SYSTEMATIC_NAME>
1-(phenylmethyl)-4-(5-phenyl-1,2,3,4-tetrazol-1-yl)piperidine

> <PUBCHEM_IUPAC_TRADITIONAL_NAME>
1-benzyl-4-(5-phenyltetrazol-1-yl)piperidine

> <PUBCHEM_IUPAC_INCHI>
InChI=1S/C19H21N5/c1-3-7-16(8-4-1)15-23-13-11-18(12-14-23)24-19(20-21-22-24)17-9-5-2-6-10-17/h1-10,18H,11-15H2

> <PUBCHEM_IUPAC_INCHIKEY>
WRQPPYQGOCMHJN-UHFFFAOYSA-N

> <PUBCHEM_XLOGP3_AA>
3.2

> <PUBCHEM_EXACT_MASS>
319.17969569

> <PUBCHEM_MOLECULAR_FORMULA>
C19H21N5

> <PUBCHEM_MOLECULAR_WEIGHT>
319.4

> <PUBCHEM_OPENEYE_CAN_SMILES>
C1CN(CCC1N2C(=NN=N2)C3=CC=CC=C3)CC4=CC=CC=C4

> <PUBCHEM_OPENEYE_ISO_SMILES>
C1CN(CCC1N2C(=NN=N2)C3=CC=CC=C3)CC4=CC=CC=C4

> <PUBCHEM_CACTVS_TPSA>
46.8

> <PUBCHEM_MONOISOTOPIC_WEIGHT>
319.17969569

> <PUBCHEM_TOTAL_CHARGE>
0

> <PUBCHEM_HEAVY_ATOM_COUNT>
24

> <PUBCHEM_ATOM_DEF_STEREO_COUNT>
0

> <PUBCHEM_ATOM_UDEF_STEREO_COUNT>
0

> <PUBCHEM_BOND_DEF_STEREO_COUNT>
0

> <PUBCHEM_BOND_UDEF_STEREO_COUNT>
0

> <PUBCHEM_ISOTOPIC_ATOM_COUNT>
0

> <PUBCHEM_COMPONENT_COUNT>
1

> <PUBCHEM_CACTVS_TAUTO_COUNT>
-1

> <PUBCHEM_COORDINATE_TYPE>
1
5
255

> <PUBCHEM_BONDANNOTATIONS>
13  15  8
13  16  8
14  17  8
14  18  8
15  19  8
16  20  8
17  22  8
18  23  8
19  21  8
2  12  8
2  3  8
20  21  8
22  24  8
23  24  8
3  5  8
4  12  8
4  5  8

$$$$
