71574302
  -OEChem-09292322332D

 58 61  0     0  0  0  0  0  0999 V2000
    4.5981    1.5600    0.0000 Cl  0  0  0  0  0  0  0  0  0  0  0  0
    2.8660    2.5600    0.0000 Cl  0  0  0  0  0  0  0  0  0  0  0  0
   11.5263   -1.4400    0.0000 S   0  0  0  0  0  0  0  0  0  0  0  0
   11.0263   -0.5740    0.0000 O   0  0  0  0  0  0  0  0  0  0  0  0
   12.0263   -2.3060    0.0000 O   0  0  0  0  0  0  0  0  0  0  0  0
    6.3301   -1.4400    0.0000 N   0  0  0  0  0  0  0  0  0  0  0  0
    4.5981   -0.4400    0.0000 N   0  0  0  0  0  0  0  0  0  0  0  0
   10.6603   -1.9400    0.0000 N   0  0  0  0  0  0  0  0  0  0  0  0
   15.0183   -1.4747    0.0000 N   0  0  0  0  0  0  0  0  0  0  0  0
    6.3301   -0.4400    0.0000 C   0  0  0  0  0  0  0  0  0  0  0  0
    5.4641   -1.9400    0.0000 C   0  0  0  0  0  0  0  0  0  0  0  0
    5.4641    0.0600    0.0000 C   0  0  0  0  0  0  0  0  0  0  0  0
    4.5981   -1.4400    0.0000 C   0  0  0  0  0  0  0  0  0  0  0  0
    7.1962   -1.9400    0.0000 C   0  0  0  0  0  0  0  0  0  0  0  0
    8.0622   -1.4400    0.0000 C   0  0  0  0  0  0  0  0  0  0  0  0
    8.9282   -1.9400    0.0000 C   0  0  0  0  0  0  0  0  0  0  0  0
    3.7320    0.0600    0.0000 C   0  0  0  0  0  0  0  0  0  0  0  0
    9.7942   -1.4400    0.0000 C   0  0  0  0  0  0  0  0  0  0  0  0
    3.7320    1.0600    0.0000 C   0  0  0  0  0  0  0  0  0  0  0  0
    2.8660   -0.4400    0.0000 C   0  0  0  0  0  0  0  0  0  0  0  0
    2.8660    1.5600    0.0000 C   0  0  0  0  0  0  0  0  0  0  0  0
    2.0000    0.0600    0.0000 C   0  0  0  0  0  0  0  0  0  0  0  0
   12.3923   -0.9400    0.0000 C   0  0  0  0  0  0  0  0  0  0  0  0
    2.0000    1.0600    0.0000 C   0  0  0  0  0  0  0  0  0  0  0  0
   13.2583   -1.4400    0.0000 C   0  0  0  0  0  0  0  0  0  0  0  0
   12.3923    0.0600    0.0000 C   0  0  0  0  0  0  0  0  0  0  0  0
   14.1244   -0.9400    0.0000 C   0  0  0  0  0  0  0  0  0  0  0  0
   14.1244    0.0600    0.0000 C   0  0  0  0  0  0  0  0  0  0  0  0
   13.2583    0.5600    0.0000 C   0  0  0  0  0  0  0  0  0  0  0  0
   15.0183    0.5947    0.0000 C   0  0  0  0  0  0  0  0  0  0  0  0
   15.9244    0.0808    0.0000 C   0  0  0  0  0  0  0  0  0  0  0  0
   15.9244   -0.9608    0.0000 C   0  0  0  0  0  0  0  0  0  0  0  0
    6.9407   -0.5477    0.0000 H   0  0  0  0  0  0  0  0  0  0  0  0
    6.5422    0.1426    0.0000 H   0  0  0  0  0  0  0  0  0  0  0  0
    5.0656   -2.4150    0.0000 H   0  0  0  0  0  0  0  0  0  0  0  0
    5.8626   -2.4150    0.0000 H   0  0  0  0  0  0  0  0  0  0  0  0
    5.8626    0.5349    0.0000 H   0  0  0  0  0  0  0  0  0  0  0  0
    5.0656    0.5349    0.0000 H   0  0  0  0  0  0  0  0  0  0  0  0
    3.9875   -1.3323    0.0000 H   0  0  0  0  0  0  0  0  0  0  0  0
    4.3860   -2.0226    0.0000 H   0  0  0  0  0  0  0  0  0  0  0  0
    6.7976   -2.4150    0.0000 H   0  0  0  0  0  0  0  0  0  0  0  0
    7.5947   -2.4150    0.0000 H   0  0  0  0  0  0  0  0  0  0  0  0
    8.4607   -0.9651    0.0000 H   0  0  0  0  0  0  0  0  0  0  0  0
    7.6636   -0.9651    0.0000 H   0  0  0  0  0  0  0  0  0  0  0  0
    8.5297   -2.4150    0.0000 H   0  0  0  0  0  0  0  0  0  0  0  0
    9.3267   -2.4150    0.0000 H   0  0  0  0  0  0  0  0  0  0  0  0
   10.1928   -0.9651    0.0000 H   0  0  0  0  0  0  0  0  0  0  0  0
    9.3957   -0.9651    0.0000 H   0  0  0  0  0  0  0  0  0  0  0  0
    2.8660   -1.0600    0.0000 H   0  0  0  0  0  0  0  0  0  0  0  0
   10.6603   -2.5600    0.0000 H   0  0  0  0  0  0  0  0  0  0  0  0
    1.4631   -0.2500    0.0000 H   0  0  0  0  0  0  0  0  0  0  0  0
    1.4631    1.3700    0.0000 H   0  0  0  0  0  0  0  0  0  0  0  0
   13.2583   -2.0600    0.0000 H   0  0  0  0  0  0  0  0  0  0  0  0
   11.8554    0.3700    0.0000 H   0  0  0  0  0  0  0  0  0  0  0  0
   13.2583    1.1800    0.0000 H   0  0  0  0  0  0  0  0  0  0  0  0
   15.0111    1.2146    0.0000 H   0  0  0  0  0  0  0  0  0  0  0  0
   16.4601    0.3929    0.0000 H   0  0  0  0  0  0  0  0  0  0  0  0
   16.4601   -1.2729    0.0000 H   0  0  0  0  0  0  0  0  0  0  0  0
  1 19  1  0  0  0  0
  2 21  1  0  0  0  0
  3  4  2  0  0  0  0
  3  5  2  0  0  0  0
  3  8  1  0  0  0  0
  3 23  1  0  0  0  0
  6 10  1  0  0  0  0
  6 11  1  0  0  0  0
  6 14  1  0  0  0  0
  7 12  1  0  0  0  0
  7 13  1  0  0  0  0
  7 17  1  0  0  0  0
  8 18  1  0  0  0  0
  8 50  1  0  0  0  0
  9 27  1  0  0  0  0
  9 32  2  0  0  0  0
 10 12  1  0  0  0  0
 10 33  1  0  0  0  0
 10 34  1  0  0  0  0
 11 13  1  0  0  0  0
 11 35  1  0  0  0  0
 11 36  1  0  0  0  0
 12 37  1  0  0  0  0
 12 38  1  0  0  0  0
 13 39  1  0  0  0  0
 13 40  1  0  0  0  0
 14 15  1  0  0  0  0
 14 41  1  0  0  0  0
 14 42  1  0  0  0  0
 15 16  1  0  0  0  0
 15 43  1  0  0  0  0
 15 44  1  0  0  0  0
 16 18  1  0  0  0  0
 16 45  1  0  0  0  0
 16 46  1  0  0  0  0
 17 19  2  0  0  0  0
 17 20  1  0  0  0  0
 18 47  1  0  0  0  0
 18 48  1  0  0  0  0
 19 21  1  0  0  0  0
 20 22  2  0  0  0  0
 20 49  1  0  0  0  0
 21 24  2  0  0  0  0
 22 24  1  0  0  0  0
 22 51  1  0  0  0  0
 23 25  2  0  0  0  0
 23 26  1  0  0  0  0
 24 52  1  0  0  0  0
 25 27  1  0  0  0  0
 25 53  1  0  0  0  0
 26 29  2  0  0  0  0
 26 54  1  0  0  0  0
 27 28  2  0  0  0  0
 28 29  1  0  0  0  0
 28 30  1  0  0  0  0
 29 55  1  0  0  0  0
 30 31  2  0  0  0  0
 30 56  1  0  0  0  0
 31 32  1  0  0  0  0
 31 57  1  0  0  0  0
 32 58  1  0  0  0  0
M  END
> <PUBCHEM_COMPOUND_CID>
71574302

> <PUBCHEM_COMPOUND_CANONICALIZED>
1

> <PUBCHEM_CACTVS_COMPLEXITY>
684

> <PUBCHEM_CACTVS_HBOND_ACCEPTOR>
6

> <PUBCHEM_CACTVS_HBOND_DONOR>
1

> <PUBCHEM_CACTVS_ROTATABLE_BOND>
8

> <PUBCHEM_CACTVS_SUBSKEYS>
AAADceB7sABGAAAAAAAAAAAAAAAAAAAAAAA8eIEAAAAAAACx9AAAHAYQQAAADArBXiQ8wfNIEAKgAzRnRHDCgDAxByAI2vg4ZpgIYOLBk5HUIAxgkADIyAcQgIAOEAAAACICABQgAAAARAQAKAAAAAAAAA==

> <PUBCHEM_IUPAC_OPENEYE_NAME>
N-[4-[4-(2,3-dichlorophenyl)piperazin-1-yl]butyl]quinoline-7-sulfonamide

> <PUBCHEM_IUPAC_CAS_NAME>
N-[4-[4-(2,3-dichlorophenyl)-1-piperazinyl]butyl]-7-quinolinesulfonamide

> <PUBCHEM_IUPAC_NAME_MARKUP>
<I>N</I>-[4-[4-(2,3-dichlorophenyl)piperazin-1-yl]butyl]quinoline-7-sulfonamide

> <PUBCHEM_IUPAC_NAME>
N-[4-[4-(2,3-dichlorophenyl)piperazin-1-yl]butyl]quinoline-7-sulfonamide

> <PUBCHEM_IUPAC_SYSTEMATIC_NAME>
N-[4-[4-[2,3-bis(chloranyl)phenyl]piperazin-1-yl]butyl]quinoline-7-sulfonamide

> <PUBCHEM_IUPAC_TRADITIONAL_NAME>
N-[4-[4-(2,3-dichlorophenyl)piperazino]butyl]quinoline-7-sulfonamide

> <PUBCHEM_IUPAC_INCHI>
InChI=1S/C23H26Cl2N4O2S/c24-20-6-3-7-22(23(20)25)29-15-13-28(14-16-29)12-2-1-11-27-32(30,31)19-9-8-18-5-4-10-26-21(18)17-19/h3-10,17,27H,1-2,11-16H2

> <PUBCHEM_IUPAC_INCHIKEY>
PYWVMKQJDLHKMQ-UHFFFAOYSA-N

> <PUBCHEM_XLOGP3_AA>
4.8

> <PUBCHEM_EXACT_MASS>
492.1153526

> <PUBCHEM_MOLECULAR_FORMULA>
C23H26Cl2N4O2S

> <PUBCHEM_MOLECULAR_WEIGHT>
493.4

> <PUBCHEM_OPENEYE_CAN_SMILES>
C1CN(CCN1CCCCNS(=O)(=O)C2=CC3=C(C=CC=N3)C=C2)C4=C(C(=CC=C4)Cl)Cl

> <PUBCHEM_OPENEYE_ISO_SMILES>
C1CN(CCN1CCCCNS(=O)(=O)C2=CC3=C(C=CC=N3)C=C2)C4=C(C(=CC=C4)Cl)Cl

> <PUBCHEM_CACTVS_TPSA>
73.9

> <PUBCHEM_MONOISOTOPIC_WEIGHT>
492.1153526

> <PUBCHEM_TOTAL_CHARGE>
0

> <PUBCHEM_HEAVY_ATOM_COUNT>
32

> <PUBCHEM_ATOM_DEF_STEREO_COUNT>
0

> <PUBCHEM_ATOM_UDEF_STEREO_COUNT>
0

> <PUBCHEM_BOND_DEF_STEREO_COUNT>
0

> <PUBCHEM_BOND_UDEF_STEREO_COUNT>
0

> <PUBCHEM_ISOTOPIC_ATOM_COUNT>
0

> <PUBCHEM_COMPONENT_COUNT>
1

> <PUBCHEM_CACTVS_TAUTO_COUNT>
-1

> <PUBCHEM_COORDINATE_TYPE>
1
5
255

> <PUBCHEM_BONDANNOTATIONS>
17  19  8
17  20  8
19  21  8
20  22  8
21  24  8
22  24  8
23  25  8
23  26  8
25  27  8
26  29  8
27  28  8
28  29  8
28  30  8
30  31  8
31  32  8
9  27  8
9  32  8

$$$$
