138671055
  -OEChem-09292322452D

 67 71  0     1  0  0  0  0  0999 V2000
   14.7691   -0.6922    0.0000 S   0  0  0  0  0  0  0  0  0  0  0  0
    3.1284    1.1476    0.0000 S   0  0  0  0  0  0  0  0  0  0  0  0
   18.4815   -2.1856    0.0000 F   0  0  0  0  0  0  0  0  0  0  0  0
   18.4744   -0.7714    0.0000 F   0  0  0  0  0  0  0  0  0  0  0  0
    6.1234    1.0580    0.0000 O   0  0  0  0  0  0  0  0  0  0  0  0
   11.6362   -1.5126    0.0000 N   0  0  3  0  0  0  0  0  0  0  0  0
    6.1320   -0.6740    0.0000 N   0  0  0  0  0  0  0  0  0  0  0  0
   16.3567   -1.4890    0.0000 N   0  0  0  0  0  0  0  0  0  0  0  0
   14.7771   -2.3017    0.0000 N   0  0  0  0  0  0  0  0  0  0  0  0
    3.7791    2.6290    0.0000 N   0  0  0  0  0  0  0  0  0  0  0  0
    9.1320   -0.6590    0.0000 C   0  0  0  0  0  0  0  0  0  0  0  0
    8.6363   -1.5276    0.0000 C   0  0  0  0  0  0  0  0  0  0  0  0
    8.6276    0.2045    0.0000 C   0  0  0  0  0  0  0  0  0  0  0  0
    7.1320   -0.6690    0.0000 C   0  0  0  0  0  0  0  0  0  0  0  0
    7.6363   -1.5325    0.0000 C   0  0  0  0  0  0  0  0  0  0  0  0
    7.6277    0.1995    0.0000 C   0  0  0  0  0  0  0  0  0  0  0  0
   10.1319   -0.6541    0.0000 C   0  0  0  0  0  0  0  0  0  0  0  0
   10.6363   -1.5176    0.0000 C   0  0  0  0  0  0  0  0  0  0  0  0
   12.0656   -0.6095    0.0000 C   0  0  0  0  0  0  0  0  0  0  0  0
   12.0746   -2.4114    0.0000 C   0  0  0  0  0  0  0  0  0  0  0  0
   13.0394   -0.3821    0.0000 C   0  0  0  0  0  0  0  0  0  0  0  0
   13.0506   -2.6290    0.0000 C   0  0  0  0  0  0  0  0  0  0  0  0
   13.8244   -1.0017    0.0000 C   0  0  0  0  0  0  0  0  0  0  0  0
   13.8294   -2.0017    0.0000 C   0  0  0  0  0  0  0  0  0  0  0  0
   17.0602   -0.7784    0.0000 C   0  0  0  0  0  0  0  0  0  0  0  0
   17.0673   -2.1926    0.0000 C   0  0  0  0  0  0  0  0  0  0  0  0
   17.7709   -1.4820    0.0000 C   0  0  0  0  0  0  0  0  0  0  0  0
    5.6277    0.1895    0.0000 C   0  0  0  0  0  0  0  0  0  0  0  0
   15.3567   -1.4940    0.0000 C   0  0  0  0  0  0  0  0  0  0  0  0
    4.6277    0.1845    0.0000 C   0  0  0  0  0  0  0  0  0  0  0  0
    4.1234    1.0481    0.0000 C   0  0  0  0  0  0  0  0  0  0  0  0
    4.5256    1.9636    0.0000 C   0  0  0  0  0  0  0  0  0  0  0  0
    2.9156    2.1247    0.0000 C   0  0  0  0  0  0  0  0  0  0  0  0
    2.0000    2.5269    0.0000 C   0  0  0  0  0  0  0  0  0  0  0  0
    9.4393   -0.1206    0.0000 H   0  0  0  0  0  0  0  0  0  0  0  0
    8.5317   -2.1387    0.0000 H   0  0  0  0  0  0  0  0  0  0  0  0
    9.2199   -1.7367    0.0000 H   0  0  0  0  0  0  0  0  0  0  0  0
    9.2092    0.4194    0.0000 H   0  0  0  0  0  0  0  0  0  0  0  0
    8.5169    0.8145    0.0000 H   0  0  0  0  0  0  0  0  0  0  0  0
    6.8193   -0.1336    0.0000 H   0  0  0  0  0  0  0  0  0  0  0  0
    7.0548   -1.7475    0.0000 H   0  0  0  0  0  0  0  0  0  0  0  0
    7.7470   -2.1426    0.0000 H   0  0  0  0  0  0  0  0  0  0  0  0
    7.7323    0.8106    0.0000 H   0  0  0  0  0  0  0  0  0  0  0  0
    7.0440    0.4086    0.0000 H   0  0  0  0  0  0  0  0  0  0  0  0
   10.7135   -0.4391    0.0000 H   0  0  0  0  0  0  0  0  0  0  0  0
   10.0212   -0.0440    0.0000 H   0  0  0  0  0  0  0  0  0  0  0  0
   10.0547   -1.7325    0.0000 H   0  0  0  0  0  0  0  0  0  0  0  0
   10.7470   -2.1276    0.0000 H   0  0  0  0  0  0  0  0  0  0  0  0
    5.8247   -1.2125    0.0000 H   0  0  0  0  0  0  0  0  0  0  0  0
   12.0625    0.0105    0.0000 H   0  0  0  0  0  0  0  0  0  0  0  0
   11.4605   -0.4745    0.0000 H   0  0  0  0  0  0  0  0  0  0  0  0
   11.4709   -2.5524    0.0000 H   0  0  0  0  0  0  0  0  0  0  0  0
   12.0777   -3.0314    0.0000 H   0  0  0  0  0  0  0  0  0  0  0  0
   13.5222    0.0069    0.0000 H   0  0  0  0  0  0  0  0  0  0  0  0
   12.7676    0.1752    0.0000 H   0  0  0  0  0  0  0  0  0  0  0  0
   12.7844   -3.1890    0.0000 H   0  0  0  0  0  0  0  0  0  0  0  0
   13.5373   -3.0132    0.0000 H   0  0  0  0  0  0  0  0  0  0  0  0
   17.4964   -0.3378    0.0000 H   0  0  0  0  0  0  0  0  0  0  0  0
   16.6196   -0.3422    0.0000 H   0  0  0  0  0  0  0  0  0  0  0  0
   16.6311   -2.6332    0.0000 H   0  0  0  0  0  0  0  0  0  0  0  0
   17.5079   -2.6288    0.0000 H   0  0  0  0  0  0  0  0  0  0  0  0
    4.0462   -0.0304    0.0000 H   0  0  0  0  0  0  0  0  0  0  0  0
    4.7384   -0.4255    0.0000 H   0  0  0  0  0  0  0  0  0  0  0  0
    5.1314    2.0955    0.0000 H   0  0  0  0  0  0  0  0  0  0  0  0
    2.2494    3.0946    0.0000 H   0  0  0  0  0  0  0  0  0  0  0  0
    1.4324    2.7762    0.0000 H   0  0  0  0  0  0  0  0  0  0  0  0
    1.7506    1.9592    0.0000 H   0  0  0  0  0  0  0  0  0  0  0  0
  1 23  1  0  0  0  0
  1 29  1  0  0  0  0
  2 31  1  0  0  0  0
  2 33  1  0  0  0  0
  3 27  1  0  0  0  0
  4 27  1  0  0  0  0
  5 28  2  0  0  0  0
  6 18  1  0  0  0  0
  6 19  1  0  0  0  0
  6 20  1  0  0  0  0
  7 14  1  0  0  0  0
  7 28  1  0  0  0  0
  7 49  1  0  0  0  0
  8 25  1  0  0  0  0
  8 26  1  0  0  0  0
  8 29  1  0  0  0  0
  9 24  1  0  0  0  0
  9 29  2  0  0  0  0
 10 32  1  0  0  0  0
 10 33  2  0  0  0  0
 11 12  1  0  0  0  0
 11 13  1  0  0  0  0
 11 17  1  0  0  0  0
 11 35  1  0  0  0  0
 12 15  1  0  0  0  0
 12 36  1  0  0  0  0
 12 37  1  0  0  0  0
 13 16  1  0  0  0  0
 13 38  1  0  0  0  0
 13 39  1  0  0  0  0
 14 15  1  0  0  0  0
 14 16  1  0  0  0  0
 14 40  1  0  0  0  0
 15 41  1  0  0  0  0
 15 42  1  0  0  0  0
 16 43  1  0  0  0  0
 16 44  1  0  0  0  0
 17 18  1  0  0  0  0
 17 45  1  0  0  0  0
 17 46  1  0  0  0  0
 18 47  1  0  0  0  0
 18 48  1  0  0  0  0
 19 21  1  0  0  0  0
 19 50  1  0  0  0  0
 19 51  1  0  0  0  0
 20 22  1  0  0  0  0
 20 52  1  0  0  0  0
 20 53  1  0  0  0  0
 21 23  1  0  0  0  0
 21 54  1  0  0  0  0
 21 55  1  0  0  0  0
 22 24  1  0  0  0  0
 22 56  1  0  0  0  0
 22 57  1  0  0  0  0
 23 24  2  0  0  0  0
 25 27  1  0  0  0  0
 25 58  1  0  0  0  0
 25 59  1  0  0  0  0
 26 27  1  0  0  0  0
 26 60  1  0  0  0  0
 26 61  1  0  0  0  0
 28 30  1  0  0  0  0
 30 31  1  0  0  0  0
 30 62  1  0  0  0  0
 30 63  1  0  0  0  0
 31 32  2  0  0  0  0
 32 64  1  0  0  0  0
 33 34  1  0  0  0  0
 34 65  1  0  0  0  0
 34 66  1  0  0  0  0
 34 67  1  0  0  0  0
M  END
> <PUBCHEM_COMPOUND_CID>
138671055

> <PUBCHEM_COMPOUND_CANONICALIZED>
1

> <PUBCHEM_CACTVS_COMPLEXITY>
703

> <PUBCHEM_CACTVS_HBOND_ACCEPTOR>
9

> <PUBCHEM_CACTVS_HBOND_DONOR>
1

> <PUBCHEM_CACTVS_ROTATABLE_BOND>
7

> <PUBCHEM_CACTVS_SUBSKEYS>
AAADcfB7oYBgAAAAAAAAAAAAAABYAWLAAAAwAAAABYAAAACx4AAAHwQQAAAADSjB1hQvkRPIEAisARV3dAAA8KlxCDhBWJ04QAiAIBJgzQEEAAAoFgLoSCMUgIAOAAAAAAAAAAAQAAAAAAAAAAAAAAAAAA==

> <PUBCHEM_IUPAC_OPENEYE_NAME>
N-[4-[2-[2-(3,3-difluoroazetidin-1-yl)-4,5,7,8-tetrahydrothiazolo[4,5-d]azepin-6-yl]ethyl]cyclohexyl]-2-(2-methylthiazol-5-yl)acetamide

> <PUBCHEM_IUPAC_CAS_NAME>
N-[4-[2-[2-(3,3-difluoro-1-azetidinyl)-4,5,7,8-tetrahydrothiazolo[4,5-d]azepin-6-yl]ethyl]cyclohexyl]-2-(2-methyl-5-thiazolyl)acetamide

> <PUBCHEM_IUPAC_NAME_MARKUP>
<I>N</I>-[4-[2-[2-(3,3-difluoroazetidin-1-yl)-4,5,7,8-tetrahydro-[1,3]thiazolo[4,5-d]azepin-6-yl]ethyl]cyclohexyl]-2-(2-methyl-1,3-thiazol-5-yl)acetamide

> <PUBCHEM_IUPAC_NAME>
N-[4-[2-[2-(3,3-difluoroazetidin-1-yl)-4,5,7,8-tetrahydro-[1,3]thiazolo[4,5-d]azepin-6-yl]ethyl]cyclohexyl]-2-(2-methyl-1,3-thiazol-5-yl)acetamide

> <PUBCHEM_IUPAC_SYSTEMATIC_NAME>
N-[4-[2-[2-[3,3-bis(fluoranyl)azetidin-1-yl]-4,5,7,8-tetrahydro-[1,3]thiazolo[4,5-d]azepin-6-yl]ethyl]cyclohexyl]-2-(2-methyl-1,3-thiazol-5-yl)ethanamide

> <PUBCHEM_IUPAC_TRADITIONAL_NAME>
N-[4-[2-[2-(3,3-difluoroazetidin-1-yl)-4,5,7,8-tetrahydrothiazol[4,5-d]azepin-6-yl]ethyl]cyclohexyl]-2-(2-methylthiazol-5-yl)acetamide

> <PUBCHEM_IUPAC_INCHI>
InChI=1S/C24H33F2N5OS2/c1-16-27-13-19(33-16)12-22(32)28-18-4-2-17(3-5-18)6-9-30-10-7-20-21(8-11-30)34-23(29-20)31-14-24(25,26)15-31/h13,17-18H,2-12,14-15H2,1H3,(H,28,32)

> <PUBCHEM_IUPAC_INCHIKEY>
UJDMZTNXKXUXEA-UHFFFAOYSA-N

> <PUBCHEM_XLOGP3_AA>
4.5

> <PUBCHEM_EXACT_MASS>
509.20945936

> <PUBCHEM_MOLECULAR_FORMULA>
C24H33F2N5OS2

> <PUBCHEM_MOLECULAR_WEIGHT>
509.7

> <PUBCHEM_OPENEYE_CAN_SMILES>
CC1=NC=C(S1)CC(=O)NC2CCC(CC2)CCN3CCC4=C(CC3)SC(=N4)N5CC(C5)(F)F

> <PUBCHEM_OPENEYE_ISO_SMILES>
CC1=NC=C(S1)CC(=O)NC2CCC(CC2)CCN3CCC4=C(CC3)SC(=N4)N5CC(C5)(F)F

> <PUBCHEM_CACTVS_TPSA>
118

> <PUBCHEM_MONOISOTOPIC_WEIGHT>
509.20945936

> <PUBCHEM_TOTAL_CHARGE>
0

> <PUBCHEM_HEAVY_ATOM_COUNT>
34

> <PUBCHEM_ATOM_DEF_STEREO_COUNT>
0

> <PUBCHEM_ATOM_UDEF_STEREO_COUNT>
0

> <PUBCHEM_BOND_DEF_STEREO_COUNT>
0

> <PUBCHEM_BOND_UDEF_STEREO_COUNT>
0

> <PUBCHEM_ISOTOPIC_ATOM_COUNT>
0

> <PUBCHEM_COMPONENT_COUNT>
1

> <PUBCHEM_CACTVS_TAUTO_COUNT>
-1

> <PUBCHEM_COORDINATE_TYPE>
1
5
255

> <PUBCHEM_BONDANNOTATIONS>
1  23  8
1  29  8
10  32  8
10  33  8
2  31  8
2  33  8
23  24  8
31  32  8
9  24  8
9  29  8

$$$$
