155514774
  -OEChem-09292322402D

 61 65  0     0  0  0  0  0  0999 V2000
    4.6783   -2.4512    0.0000 S   0  0  0  0  0  0  0  0  0  0  0  0
   15.2917    0.4517    0.0000 S   0  0  0  0  0  0  0  0  0  0  0  0
    5.4883   -3.0375    0.0000 O   0  0  0  0  0  0  0  0  0  0  0  0
    4.3709   -3.4027    0.0000 O   0  0  0  0  0  0  0  0  0  0  0  0
    4.9889    0.1088    0.0000 O   0  0  0  0  0  0  0  0  0  0  0  0
   10.7619    0.9517    0.0000 N   0  0  0  0  0  0  0  0  0  0  0  0
   12.7619    0.9517    0.0000 N   0  0  0  0  0  0  0  0  0  0  0  0
    5.2619   -1.6464    0.0000 N   0  0  0  0  0  0  0  0  0  0  0  0
   14.3455    0.1469    0.0000 N   0  0  0  0  0  0  0  0  0  0  0  0
   11.2619    1.8177    0.0000 C   0  0  0  0  0  0  0  0  0  0  0  0
   11.2619    0.0856    0.0000 C   0  0  0  0  0  0  0  0  0  0  0  0
    9.7619    0.9517    0.0000 C   0  0  0  0  0  0  0  0  0  0  0  0
   12.2619    1.8177    0.0000 C   0  0  0  0  0  0  0  0  0  0  0  0
   12.2619    0.0856    0.0000 C   0  0  0  0  0  0  0  0  0  0  0  0
    9.2619    0.0856    0.0000 C   0  0  0  0  0  0  0  0  0  0  0  0
    8.2619    0.0856    0.0000 C   0  0  0  0  0  0  0  0  0  0  0  0
    7.7619   -0.7804    0.0000 C   0  0  0  0  0  0  0  0  0  0  0  0
    6.7619   -0.7804    0.0000 C   0  0  0  0  0  0  0  0  0  0  0  0
    6.2619   -1.6464    0.0000 C   0  0  0  0  0  0  0  0  0  0  0  0
   13.7619    0.9517    0.0000 C   0  0  0  0  0  0  0  0  0  0  0  0
    3.7320   -2.1464    0.0000 C   0  0  0  0  0  0  0  0  0  0  0  0
    4.6783   -0.8417    0.0000 C   0  0  0  0  0  0  0  0  0  0  0  0
   14.3455    1.7564    0.0000 C   0  0  0  0  0  0  0  0  0  0  0  0
    3.7320   -1.1464    0.0000 C   0  0  0  0  0  0  0  0  0  0  0  0
   15.2960    1.4457    0.0000 C   0  0  0  0  0  0  0  0  0  0  0  0
    2.8660   -2.6464    0.0000 C   0  0  0  0  0  0  0  0  0  0  0  0
    2.8660   -0.6464    0.0000 C   0  0  0  0  0  0  0  0  0  0  0  0
   14.1393    2.7349    0.0000 C   0  0  0  0  0  0  0  0  0  0  0  0
    2.0000   -2.1464    0.0000 C   0  0  0  0  0  0  0  0  0  0  0  0
    2.0000   -1.1464    0.0000 C   0  0  0  0  0  0  0  0  0  0  0  0
   16.0403    2.1136    0.0000 C   0  0  0  0  0  0  0  0  0  0  0  0
   14.8836    3.4027    0.0000 C   0  0  0  0  0  0  0  0  0  0  0  0
   15.8341    3.0921    0.0000 C   0  0  0  0  0  0  0  0  0  0  0  0
   11.3695    2.4283    0.0000 H   0  0  0  0  0  0  0  0  0  0  0  0
   10.6793    2.0297    0.0000 H   0  0  0  0  0  0  0  0  0  0  0  0
   10.6793   -0.1264    0.0000 H   0  0  0  0  0  0  0  0  0  0  0  0
   11.3695   -0.5249    0.0000 H   0  0  0  0  0  0  0  0  0  0  0  0
    9.8695    1.5622    0.0000 H   0  0  0  0  0  0  0  0  0  0  0  0
    9.1793    1.1637    0.0000 H   0  0  0  0  0  0  0  0  0  0  0  0
   12.8445    2.0297    0.0000 H   0  0  0  0  0  0  0  0  0  0  0  0
   12.1542    2.4283    0.0000 H   0  0  0  0  0  0  0  0  0  0  0  0
   12.1542   -0.5249    0.0000 H   0  0  0  0  0  0  0  0  0  0  0  0
   12.8445   -0.1264    0.0000 H   0  0  0  0  0  0  0  0  0  0  0  0
    9.1542   -0.5249    0.0000 H   0  0  0  0  0  0  0  0  0  0  0  0
    9.8445   -0.1264    0.0000 H   0  0  0  0  0  0  0  0  0  0  0  0
    8.3695    0.6962    0.0000 H   0  0  0  0  0  0  0  0  0  0  0  0
    7.6793    0.2977    0.0000 H   0  0  0  0  0  0  0  0  0  0  0  0
    7.6542   -1.3910    0.0000 H   0  0  0  0  0  0  0  0  0  0  0  0
    8.3445   -0.9924    0.0000 H   0  0  0  0  0  0  0  0  0  0  0  0
    6.8695   -0.1698    0.0000 H   0  0  0  0  0  0  0  0  0  0  0  0
    6.1793   -0.5683    0.0000 H   0  0  0  0  0  0  0  0  0  0  0  0
    6.1542   -2.2570    0.0000 H   0  0  0  0  0  0  0  0  0  0  0  0
    6.8445   -1.8585    0.0000 H   0  0  0  0  0  0  0  0  0  0  0  0
    2.8660   -3.2664    0.0000 H   0  0  0  0  0  0  0  0  0  0  0  0
    2.8660   -0.0264    0.0000 H   0  0  0  0  0  0  0  0  0  0  0  0
   13.5499    2.9275    0.0000 H   0  0  0  0  0  0  0  0  0  0  0  0
    1.4631   -2.4564    0.0000 H   0  0  0  0  0  0  0  0  0  0  0  0
    1.4631   -0.8364    0.0000 H   0  0  0  0  0  0  0  0  0  0  0  0
   16.6296    1.9210    0.0000 H   0  0  0  0  0  0  0  0  0  0  0  0
   14.7557    4.0094    0.0000 H   0  0  0  0  0  0  0  0  0  0  0  0
   16.2956    3.5061    0.0000 H   0  0  0  0  0  0  0  0  0  0  0  0
  1  3  2  0  0  0  0
  1  4  2  0  0  0  0
  1  8  1  0  0  0  0
  1 21  1  0  0  0  0
  2  9  1  0  0  0  0
  2 25  1  0  0  0  0
  5 22  2  0  0  0  0
  6 10  1  0  0  0  0
  6 11  1  0  0  0  0
  6 12  1  0  0  0  0
  7 13  1  0  0  0  0
  7 14  1  0  0  0  0
  7 20  1  0  0  0  0
  8 19  1  0  0  0  0
  8 22  1  0  0  0  0
  9 20  2  0  0  0  0
 10 13  1  0  0  0  0
 10 34  1  0  0  0  0
 10 35  1  0  0  0  0
 11 14  1  0  0  0  0
 11 36  1  0  0  0  0
 11 37  1  0  0  0  0
 12 15  1  0  0  0  0
 12 38  1  0  0  0  0
 12 39  1  0  0  0  0
 13 40  1  0  0  0  0
 13 41  1  0  0  0  0
 14 42  1  0  0  0  0
 14 43  1  0  0  0  0
 15 16  1  0  0  0  0
 15 44  1  0  0  0  0
 15 45  1  0  0  0  0
 16 17  1  0  0  0  0
 16 46  1  0  0  0  0
 16 47  1  0  0  0  0
 17 18  1  0  0  0  0
 17 48  1  0  0  0  0
 17 49  1  0  0  0  0
 18 19  1  0  0  0  0
 18 50  1  0  0  0  0
 18 51  1  0  0  0  0
 19 52  1  0  0  0  0
 19 53  1  0  0  0  0
 20 23  1  0  0  0  0
 21 24  1  0  0  0  0
 21 26  2  0  0  0  0
 22 24  1  0  0  0  0
 23 25  1  0  0  0  0
 23 28  2  0  0  0  0
 24 27  2  0  0  0  0
 25 31  2  0  0  0  0
 26 29  1  0  0  0  0
 26 54  1  0  0  0  0
 27 30  1  0  0  0  0
 27 55  1  0  0  0  0
 28 32  1  0  0  0  0
 28 56  1  0  0  0  0
 29 30  2  0  0  0  0
 29 57  1  0  0  0  0
 30 58  1  0  0  0  0
 31 33  1  0  0  0  0
 31 59  1  0  0  0  0
 32 33  2  0  0  0  0
 32 60  1  0  0  0  0
 33 61  1  0  0  0  0
M  END
> <PUBCHEM_COMPOUND_CID>
155514774

> <PUBCHEM_COMPOUND_CANONICALIZED>
1

> <PUBCHEM_CACTVS_COMPLEXITY>
781

> <PUBCHEM_CACTVS_HBOND_ACCEPTOR>
7

> <PUBCHEM_CACTVS_HBOND_DONOR>
0

> <PUBCHEM_CACTVS_ROTATABLE_BOND>
8

> <PUBCHEM_CACTVS_SUBSKEYS>
AAADceB7sABgAAAAAAAAAAAAAAAAAWLAAAA8YIAAAAAAAFgB9AAAHgQAQAAADADB2gQxsdMAAAKsAiNycHDDABAlAABJmDkoRNiIYLLAnZGUIQxghgLIyYcYiACOAAAAAAAEAAAAAAAAAAgAAAAAAAAAAA==

> <PUBCHEM_IUPAC_OPENEYE_NAME>
2-[6-[4-(1,2-benzothiazol-3-yl)piperazin-1-yl]hexyl]-1,1-dioxo-1,2-benzothiazol-3-one

> <PUBCHEM_IUPAC_CAS_NAME>
2-[6-[4-(1,2-benzothiazol-3-yl)-1-piperazinyl]hexyl]-1,1-dioxo-1,2-benzothiazol-3-one

> <PUBCHEM_IUPAC_NAME_MARKUP>
2-[6-[4-(1,2-benzothiazol-3-yl)piperazin-1-yl]hexyl]-1,1-dioxo-1,2-benzothiazol-3-one

> <PUBCHEM_IUPAC_NAME>
2-[6-[4-(1,2-benzothiazol-3-yl)piperazin-1-yl]hexyl]-1,1-dioxo-1,2-benzothiazol-3-one

> <PUBCHEM_IUPAC_SYSTEMATIC_NAME>
2-[6-[4-(1,2-benzothiazol-3-yl)piperazin-1-yl]hexyl]-1,1-bis(oxidanylidene)-1,2-benzothiazol-3-one

> <PUBCHEM_IUPAC_TRADITIONAL_NAME>
2-[6-[4-(1,2-benzothiazol-3-yl)piperazino]hexyl]-1,1-diketo-1,2-benzothiazol-3-one

> <PUBCHEM_IUPAC_INCHI>
InChI=1S/C24H28N4O3S2/c29-24-20-10-4-6-12-22(20)33(30,31)28(24)14-8-2-1-7-13-26-15-17-27(18-16-26)23-19-9-3-5-11-21(19)32-25-23/h3-6,9-12H,1-2,7-8,13-18H2

> <PUBCHEM_IUPAC_INCHIKEY>
RQRAPENOPIVCKK-UHFFFAOYSA-N

> <PUBCHEM_XLOGP3_AA>
4.4

> <PUBCHEM_EXACT_MASS>
484.16028312

> <PUBCHEM_MOLECULAR_FORMULA>
C24H28N4O3S2

> <PUBCHEM_MOLECULAR_WEIGHT>
484.6

> <PUBCHEM_OPENEYE_CAN_SMILES>
C1CN(CCN1CCCCCCN2C(=O)C3=CC=CC=C3S2(=O)=O)C4=NSC5=CC=CC=C54

> <PUBCHEM_OPENEYE_ISO_SMILES>
C1CN(CCN1CCCCCCN2C(=O)C3=CC=CC=C3S2(=O)=O)C4=NSC5=CC=CC=C54

> <PUBCHEM_CACTVS_TPSA>
110

> <PUBCHEM_MONOISOTOPIC_WEIGHT>
484.16028312

> <PUBCHEM_TOTAL_CHARGE>
0

> <PUBCHEM_HEAVY_ATOM_COUNT>
33

> <PUBCHEM_ATOM_DEF_STEREO_COUNT>
0

> <PUBCHEM_ATOM_UDEF_STEREO_COUNT>
0

> <PUBCHEM_BOND_DEF_STEREO_COUNT>
0

> <PUBCHEM_BOND_UDEF_STEREO_COUNT>
0

> <PUBCHEM_ISOTOPIC_ATOM_COUNT>
0

> <PUBCHEM_COMPONENT_COUNT>
1

> <PUBCHEM_CACTVS_TAUTO_COUNT>
-1

> <PUBCHEM_COORDINATE_TYPE>
1
5
255

> <PUBCHEM_BONDANNOTATIONS>
2  25  8
2  9  8
20  23  8
21  24  8
21  26  8
23  25  8
23  28  8
24  27  8
25  31  8
26  29  8
27  30  8
28  32  8
29  30  8
31  33  8
32  33  8
9  20  8

$$$$
