24758947
  -OEChem-09292322302D

 59 63  0     1  0  0  0  0  0999 V2000
    2.0000   -3.8083    0.0000 Cl  0  0  0  0  0  0  0  0  0  0  0  0
    7.9752    0.4502    0.0000 S   0  0  0  0  0  0  0  0  0  0  0  0
    9.4565    4.1071    0.0000 S   0  0  0  0  0  0  0  0  0  0  0  0
    6.5662   -2.7144    0.0000 N   0  0  3  0  0  0  0  0  0  0  0  0
    8.7842    2.0380    0.0000 N   0  0  0  0  0  0  0  0  0  0  0  0
    9.7353    0.7289    0.0000 N   0  0  0  0  0  0  0  0  0  0  0  0
   10.3230    1.5380    0.0000 N   0  0  0  0  0  0  0  0  0  0  0  0
   10.9953    4.6071    0.0000 N   0  0  0  0  0  0  0  0  0  0  0  0
    5.6152   -4.0235    0.0000 C   0  0  3  0  0  0  0  0  0  0  0  0
    5.0274   -3.2144    0.0000 C   0  0  0  0  0  0  0  0  0  0  0  0
    6.5662   -3.7144    0.0000 C   0  0  0  0  0  0  0  0  0  0  0  0
    6.2029   -4.8325    0.0000 C   0  0  0  0  0  0  0  0  0  0  0  0
    4.6641   -4.3325    0.0000 C   0  0  0  0  0  0  0  0  0  0  0  0
    5.6152   -2.4054    0.0000 C   0  0  0  0  0  0  0  0  0  0  0  0
    5.6152   -5.6415    0.0000 C   0  0  0  0  0  0  0  0  0  0  0  0
    4.6641   -5.3325    0.0000 C   0  0  0  0  0  0  0  0  0  0  0  0
    7.3752   -2.1266    0.0000 C   0  0  0  0  0  0  0  0  0  0  0  0
    3.7702   -3.7978    0.0000 C   0  0  0  0  0  0  0  0  0  0  0  0
    3.7702   -5.8671    0.0000 C   0  0  0  0  0  0  0  0  0  0  0  0
    7.2707   -1.1321    0.0000 C   0  0  0  0  0  0  0  0  0  0  0  0
    2.8641   -4.3116    0.0000 C   0  0  0  0  0  0  0  0  0  0  0  0
    2.8641   -5.3533    0.0000 C   0  0  0  0  0  0  0  0  0  0  0  0
    8.0797   -0.5443    0.0000 C   0  0  0  0  0  0  0  0  0  0  0  0
    8.7842    1.0380    0.0000 C   0  0  0  0  0  0  0  0  0  0  0  0
    9.7353    2.3470    0.0000 C   0  0  0  0  0  0  0  0  0  0  0  0
    7.9752    2.6258    0.0000 C   0  0  0  0  0  0  0  0  0  0  0  0
   10.0443    3.2980    0.0000 C   0  0  0  0  0  0  0  0  0  0  0  0
   10.9953    3.6071    0.0000 C   0  0  0  0  0  0  0  0  0  0  0  0
   10.0443    4.9161    0.0000 C   0  0  0  0  0  0  0  0  0  0  0  0
   11.8044    3.0193    0.0000 C   0  0  0  0  0  0  0  0  0  0  0  0
    9.7353    5.8671    0.0000 C   0  0  0  0  0  0  0  0  0  0  0  0
    4.5666   -2.7996    0.0000 H   0  0  0  0  0  0  0  0  0  0  0  0
    4.5666   -3.6293    0.0000 H   0  0  0  0  0  0  0  0  0  0  0  0
    6.6951   -4.3209    0.0000 H   0  0  0  0  0  0  0  0  0  0  0  0
    7.1828   -3.6496    0.0000 H   0  0  0  0  0  0  0  0  0  0  0  0
    6.6637   -5.2473    0.0000 H   0  0  0  0  0  0  0  0  0  0  0  0
    6.6637   -4.4176    0.0000 H   0  0  0  0  0  0  0  0  0  0  0  0
    5.8673   -1.8390    0.0000 H   0  0  0  0  0  0  0  0  0  0  0  0
    5.0782   -2.0954    0.0000 H   0  0  0  0  0  0  0  0  0  0  0  0
    5.3630   -6.2079    0.0000 H   0  0  0  0  0  0  0  0  0  0  0  0
    6.1521   -5.9515    0.0000 H   0  0  0  0  0  0  0  0  0  0  0  0
    7.6470   -2.6839    0.0000 H   0  0  0  0  0  0  0  0  0  0  0  0
    7.9712   -1.9558    0.0000 H   0  0  0  0  0  0  0  0  0  0  0  0
    3.7773   -3.1778    0.0000 H   0  0  0  0  0  0  0  0  0  0  0  0
    3.7773   -6.4871    0.0000 H   0  0  0  0  0  0  0  0  0  0  0  0
    6.9989   -0.5749    0.0000 H   0  0  0  0  0  0  0  0  0  0  0  0
    6.6747   -1.3030    0.0000 H   0  0  0  0  0  0  0  0  0  0  0  0
    2.3284   -5.6654    0.0000 H   0  0  0  0  0  0  0  0  0  0  0  0
    8.3515   -1.1016    0.0000 H   0  0  0  0  0  0  0  0  0  0  0  0
    8.6757   -0.3734    0.0000 H   0  0  0  0  0  0  0  0  0  0  0  0
    8.3396    3.1273    0.0000 H   0  0  0  0  0  0  0  0  0  0  0  0
    7.4736    2.9902    0.0000 H   0  0  0  0  0  0  0  0  0  0  0  0
    7.6108    2.1242    0.0000 H   0  0  0  0  0  0  0  0  0  0  0  0
   11.4399    2.5177    0.0000 H   0  0  0  0  0  0  0  0  0  0  0  0
   12.3059    2.6548    0.0000 H   0  0  0  0  0  0  0  0  0  0  0  0
   12.1688    3.5209    0.0000 H   0  0  0  0  0  0  0  0  0  0  0  0
   10.3249    6.0587    0.0000 H   0  0  0  0  0  0  0  0  0  0  0  0
    9.5437    6.4568    0.0000 H   0  0  0  0  0  0  0  0  0  0  0  0
    9.1456    5.6755    0.0000 H   0  0  0  0  0  0  0  0  0  0  0  0
  1 21  1  0  0  0  0
  2 23  1  0  0  0  0
  2 24  1  0  0  0  0
  3 27  1  0  0  0  0
  3 29  1  0  0  0  0
  4 11  1  0  0  0  0
  4 14  1  0  0  0  0
  4 17  1  0  0  0  0
  5 24  1  0  0  0  0
  5 25  1  0  0  0  0
  5 26  1  0  0  0  0
  6  7  1  0  0  0  0
  6 24  2  0  0  0  0
  7 25  2  0  0  0  0
  8 28  1  0  0  0  0
  8 29  2  0  0  0  0
  9 10  1  0  0  0  0
  9 11  1  0  0  0  0
  9 12  1  0  0  0  0
  9 13  1  0  0  0  0
 10 14  1  0  0  0  0
 10 32  1  0  0  0  0
 10 33  1  0  0  0  0
 11 34  1  0  0  0  0
 11 35  1  0  0  0  0
 12 15  1  0  0  0  0
 12 36  1  0  0  0  0
 12 37  1  0  0  0  0
 13 16  2  0  0  0  0
 13 18  1  0  0  0  0
 14 38  1  0  0  0  0
 14 39  1  0  0  0  0
 15 16  1  0  0  0  0
 15 40  1  0  0  0  0
 15 41  1  0  0  0  0
 16 19  1  0  0  0  0
 17 20  1  0  0  0  0
 17 42  1  0  0  0  0
 17 43  1  0  0  0  0
 18 21  2  0  0  0  0
 18 44  1  0  0  0  0
 19 22  2  0  0  0  0
 19 45  1  0  0  0  0
 20 23  1  0  0  0  0
 20 46  1  0  0  0  0
 20 47  1  0  0  0  0
 21 22  1  0  0  0  0
 22 48  1  0  0  0  0
 23 49  1  0  0  0  0
 23 50  1  0  0  0  0
 25 27  1  0  0  0  0
 26 51  1  0  0  0  0
 26 52  1  0  0  0  0
 26 53  1  0  0  0  0
 27 28  2  0  0  0  0
 28 30  1  0  0  0  0
 29 31  1  0  0  0  0
 30 54  1  0  0  0  0
 30 55  1  0  0  0  0
 30 56  1  0  0  0  0
 31 57  1  0  0  0  0
 31 58  1  0  0  0  0
 31 59  1  0  0  0  0
M  END
> <PUBCHEM_COMPOUND_CID>
24758947

> <PUBCHEM_COMPOUND_CANONICALIZED>
1

> <PUBCHEM_CACTVS_COMPLEXITY>
629

> <PUBCHEM_CACTVS_HBOND_ACCEPTOR>
6

> <PUBCHEM_CACTVS_HBOND_DONOR>
0

> <PUBCHEM_CACTVS_ROTATABLE_BOND>
6

> <PUBCHEM_CACTVS_SUBSKEYS>
AAADceB7gABkAAAAAAAAAAAAAAAAAeLFiAAwAAAAAAAAAGAB8AAAHAYIAAAADgrFXySzkZcMEAimAyZiZACS8KthDbgd2DQ4RpiIKCLh2xGEIAhgiALoiAcQgMAPhAAAIAAQAAAIAABAACAAAQAACAAAAA==

> <PUBCHEM_IUPAC_OPENEYE_NAME>
5-[5-[3-(6-chlorospiro[indane-1,3'-pyrrolidine]-1'-yl)propylsulfanyl]-4-methyl-1,2,4-triazol-3-yl]-2,4-dimethyl-thiazole

> <PUBCHEM_IUPAC_CAS_NAME>
5-[5-[3-(5-chloro-1'-spiro[1,2-dihydroindene-3,3'-pyrrolidine]yl)propylthio]-4-methyl-1,2,4-triazol-3-yl]-2,4-dimethylthiazole

> <PUBCHEM_IUPAC_NAME_MARKUP>
5-[5-[3-(5-chlorospiro[1,2-dihydroindene-3,3&apos;-pyrrolidine]-1&apos;-yl)propylsulfanyl]-4-methyl-1,2,4-triazol-3-yl]-2,4-dimethyl-1,3-thiazole

> <PUBCHEM_IUPAC_NAME>
5-[5-[3-(5-chlorospiro[1,2-dihydroindene-3,3'-pyrrolidine]-1'-yl)propylsulfanyl]-4-methyl-1,2,4-triazol-3-yl]-2,4-dimethyl-1,3-thiazole

> <PUBCHEM_IUPAC_SYSTEMATIC_NAME>
5-[5-[3-(5-chloranylspiro[1,2-dihydroindene-3,3'-pyrrolidine]-1'-yl)propylsulfanyl]-4-methyl-1,2,4-triazol-3-yl]-2,4-dimethyl-1,3-thiazole

> <PUBCHEM_IUPAC_TRADITIONAL_NAME>
5-[5-[3-(6-chlorospiro[indane-1,3'-pyrrolidine]-1'-yl)propylthio]-4-methyl-1,2,4-triazol-3-yl]-2,4-dimethyl-thiazole

> <PUBCHEM_IUPAC_INCHI>
InChI=1S/C23H28ClN5S2/c1-15-20(31-16(2)25-15)21-26-27-22(28(21)3)30-12-4-10-29-11-9-23(14-29)8-7-17-5-6-18(24)13-19(17)23/h5-6,13H,4,7-12,14H2,1-3H3

> <PUBCHEM_IUPAC_INCHIKEY>
HXLACIAZOWDZEP-UHFFFAOYSA-N

> <PUBCHEM_XLOGP3_AA>
5.1

> <PUBCHEM_EXACT_MASS>
473.1474660

> <PUBCHEM_MOLECULAR_FORMULA>
C23H28ClN5S2

> <PUBCHEM_MOLECULAR_WEIGHT>
474.1

> <PUBCHEM_OPENEYE_CAN_SMILES>
CC1=C(SC(=N1)C)C2=NN=C(N2C)SCCCN3CCC4(C3)CCC5=C4C=C(C=C5)Cl

> <PUBCHEM_OPENEYE_ISO_SMILES>
CC1=C(SC(=N1)C)C2=NN=C(N2C)SCCCN3CCC4(C3)CCC5=C4C=C(C=C5)Cl

> <PUBCHEM_CACTVS_TPSA>
100

> <PUBCHEM_MONOISOTOPIC_WEIGHT>
473.1474660

> <PUBCHEM_TOTAL_CHARGE>
0

> <PUBCHEM_HEAVY_ATOM_COUNT>
31

> <PUBCHEM_ATOM_DEF_STEREO_COUNT>
0

> <PUBCHEM_ATOM_UDEF_STEREO_COUNT>
1

> <PUBCHEM_BOND_DEF_STEREO_COUNT>
0

> <PUBCHEM_BOND_UDEF_STEREO_COUNT>
0

> <PUBCHEM_ISOTOPIC_ATOM_COUNT>
0

> <PUBCHEM_COMPONENT_COUNT>
1

> <PUBCHEM_CACTVS_TAUTO_COUNT>
-1

> <PUBCHEM_COORDINATE_TYPE>
1
5
255

> <PUBCHEM_BONDANNOTATIONS>
13  16  8
13  18  8
16  19  8
18  21  8
19  22  8
21  22  8
27  28  8
3  27  8
3  29  8
5  24  8
5  25  8
6  24  8
6  7  8
7  25  8
8  28  8
8  29  8
9  12  3

$$$$
