155532148
  -OEChem-09292322412D

 65 69  0     1  0  0  0  0  0999 V2000
    3.7320    2.2010    0.0000 O   0  0  0  0  0  0  0  0  0  0  0  0
    5.4641    1.2010    0.0000 O   0  0  0  0  0  0  0  0  0  0  0  0
    4.5981   -3.2990    0.0000 O   0  0  0  0  0  0  0  0  0  0  0  0
    2.8660   -0.2990    0.0000 N   0  0  0  0  0  0  0  0  0  0  0  0
    2.8660   -2.2990    0.0000 N   0  0  0  0  0  0  0  0  0  0  0  0
    3.7320    1.2010    0.0000 C   0  0  3  0  0  0  0  0  0  0  0  0
    2.8660    0.7010    0.0000 C   0  0  0  0  0  0  0  0  0  0  0  0
    4.5981    2.7010    0.0000 C   0  0  0  0  0  0  0  0  0  0  0  0
    2.0000   -0.7990    0.0000 C   0  0  0  0  0  0  0  0  0  0  0  0
    3.7320   -0.7990    0.0000 C   0  0  0  0  0  0  0  0  0  0  0  0
    2.0000   -1.7990    0.0000 C   0  0  0  0  0  0  0  0  0  0  0  0
    3.7320   -1.7990    0.0000 C   0  0  0  0  0  0  0  0  0  0  0  0
    4.5981    0.7010    0.0000 C   0  0  0  0  0  0  0  0  0  0  0  0
    5.4641    2.2010    0.0000 C   0  0  0  0  0  0  0  0  0  0  0  0
    5.5378    3.0430    0.0000 C   0  0  0  0  0  0  0  0  0  0  0  0
    4.0981    3.5670    0.0000 C   0  0  0  0  0  0  0  0  0  0  0  0
    2.8660   -3.2990    0.0000 C   0  0  0  0  0  0  0  0  0  0  0  0
    5.7114    4.0278    0.0000 C   0  0  0  0  0  0  0  0  0  0  0  0
    4.5981    4.4330    0.0000 C   0  0  0  0  0  0  0  0  0  0  0  0
    6.3038    2.4002    0.0000 C   0  0  0  0  0  0  0  0  0  0  0  0
    3.0981    3.5670    0.0000 C   0  0  0  0  0  0  0  0  0  0  0  0
    3.7320   -3.7990    0.0000 C   0  0  0  0  0  0  0  0  0  0  0  0
    2.0000   -3.7990    0.0000 C   0  0  0  0  0  0  0  0  0  0  0  0
    6.6511    4.3698    0.0000 C   0  0  0  0  0  0  0  0  0  0  0  0
    4.0981    5.2990    0.0000 C   0  0  0  0  0  0  0  0  0  0  0  0
    7.2435    2.7422    0.0000 C   0  0  0  0  0  0  0  0  0  0  0  0
    2.5981    4.4330    0.0000 C   0  0  0  0  0  0  0  0  0  0  0  0
    7.4172    3.7270    0.0000 C   0  0  0  0  0  0  0  0  0  0  0  0
    3.0981    5.2990    0.0000 C   0  0  0  0  0  0  0  0  0  0  0  0
    3.7320   -4.7990    0.0000 C   0  0  0  0  0  0  0  0  0  0  0  0
    2.0000   -4.7990    0.0000 C   0  0  0  0  0  0  0  0  0  0  0  0
    2.8660   -5.2990    0.0000 C   0  0  0  0  0  0  0  0  0  0  0  0
    5.4641   -3.7990    0.0000 C   0  0  0  0  0  0  0  0  0  0  0  0
    3.1951    1.5110    0.0000 H   0  0  0  0  0  0  0  0  0  0  0  0
    2.6540    1.2836    0.0000 H   0  0  0  0  0  0  0  0  0  0  0  0
    2.2554    0.5933    0.0000 H   0  0  0  0  0  0  0  0  0  0  0  0
    1.7880   -0.2164    0.0000 H   0  0  0  0  0  0  0  0  0  0  0  0
    1.3894   -0.9067    0.0000 H   0  0  0  0  0  0  0  0  0  0  0  0
    4.3426   -0.9067    0.0000 H   0  0  0  0  0  0  0  0  0  0  0  0
    3.9441   -0.2164    0.0000 H   0  0  0  0  0  0  0  0  0  0  0  0
    1.3894   -1.6914    0.0000 H   0  0  0  0  0  0  0  0  0  0  0  0
    1.7880   -2.3816    0.0000 H   0  0  0  0  0  0  0  0  0  0  0  0
    3.9441   -2.3816    0.0000 H   0  0  0  0  0  0  0  0  0  0  0  0
    4.3426   -1.6914    0.0000 H   0  0  0  0  0  0  0  0  0  0  0  0
    4.1996    0.2260    0.0000 H   0  0  0  0  0  0  0  0  0  0  0  0
    4.9966    0.2260    0.0000 H   0  0  0  0  0  0  0  0  0  0  0  0
    6.0747    2.0933    0.0000 H   0  0  0  0  0  0  0  0  0  0  0  0
    5.6762    2.7836    0.0000 H   0  0  0  0  0  0  0  0  0  0  0  0
    5.2365    4.4263    0.0000 H   0  0  0  0  0  0  0  0  0  0  0  0
    5.2181    4.4330    0.0000 H   0  0  0  0  0  0  0  0  0  0  0  0
    6.1962    1.7896    0.0000 H   0  0  0  0  0  0  0  0  0  0  0  0
    2.7881    3.0300    0.0000 H   0  0  0  0  0  0  0  0  0  0  0  0
    1.4631   -3.4890    0.0000 H   0  0  0  0  0  0  0  0  0  0  0  0
    6.7588    4.9804    0.0000 H   0  0  0  0  0  0  0  0  0  0  0  0
    4.4081    5.8360    0.0000 H   0  0  0  0  0  0  0  0  0  0  0  0
    7.7184    2.3437    0.0000 H   0  0  0  0  0  0  0  0  0  0  0  0
    1.9781    4.4330    0.0000 H   0  0  0  0  0  0  0  0  0  0  0  0
    7.9998    3.9391    0.0000 H   0  0  0  0  0  0  0  0  0  0  0  0
    2.7881    5.8360    0.0000 H   0  0  0  0  0  0  0  0  0  0  0  0
    4.2690   -5.1090    0.0000 H   0  0  0  0  0  0  0  0  0  0  0  0
    1.4631   -5.1090    0.0000 H   0  0  0  0  0  0  0  0  0  0  0  0
    2.8660   -5.9190    0.0000 H   0  0  0  0  0  0  0  0  0  0  0  0
    5.1541   -4.3360    0.0000 H   0  0  0  0  0  0  0  0  0  0  0  0
    6.0010   -4.1090    0.0000 H   0  0  0  0  0  0  0  0  0  0  0  0
    5.7741   -3.2621    0.0000 H   0  0  0  0  0  0  0  0  0  0  0  0
  1  6  1  0  0  0  0
  1  8  1  0  0  0  0
  2 13  1  0  0  0  0
  2 14  1  0  0  0  0
  3 22  1  0  0  0  0
  3 33  1  0  0  0  0
  4  7  1  0  0  0  0
  4  9  1  0  0  0  0
  4 10  1  0  0  0  0
  5 11  1  0  0  0  0
  5 12  1  0  0  0  0
  5 17  1  0  0  0  0
  6  7  1  0  0  0  0
  6 13  1  0  0  0  0
  6 34  1  0  0  0  0
  7 35  1  0  0  0  0
  7 36  1  0  0  0  0
  8 14  1  0  0  0  0
  8 15  1  0  0  0  0
  8 16  1  0  0  0  0
  9 11  1  0  0  0  0
  9 37  1  0  0  0  0
  9 38  1  0  0  0  0
 10 12  1  0  0  0  0
 10 39  1  0  0  0  0
 10 40  1  0  0  0  0
 11 41  1  0  0  0  0
 11 42  1  0  0  0  0
 12 43  1  0  0  0  0
 12 44  1  0  0  0  0
 13 45  1  0  0  0  0
 13 46  1  0  0  0  0
 14 47  1  0  0  0  0
 14 48  1  0  0  0  0
 15 18  2  0  0  0  0
 15 20  1  0  0  0  0
 16 19  2  0  0  0  0
 16 21  1  0  0  0  0
 17 22  1  0  0  0  0
 17 23  2  0  0  0  0
 18 24  1  0  0  0  0
 18 49  1  0  0  0  0
 19 25  1  0  0  0  0
 19 50  1  0  0  0  0
 20 26  2  0  0  0  0
 20 51  1  0  0  0  0
 21 27  2  0  0  0  0
 21 52  1  0  0  0  0
 22 30  2  0  0  0  0
 23 31  1  0  0  0  0
 23 53  1  0  0  0  0
 24 28  2  0  0  0  0
 24 54  1  0  0  0  0
 25 29  2  0  0  0  0
 25 55  1  0  0  0  0
 26 28  1  0  0  0  0
 26 56  1  0  0  0  0
 27 29  1  0  0  0  0
 27 57  1  0  0  0  0
 28 58  1  0  0  0  0
 29 59  1  0  0  0  0
 30 32  1  0  0  0  0
 30 60  1  0  0  0  0
 31 32  2  0  0  0  0
 31 61  1  0  0  0  0
 32 62  1  0  0  0  0
 33 63  1  0  0  0  0
 33 64  1  0  0  0  0
 33 65  1  0  0  0  0
M  END
> <PUBCHEM_COMPOUND_CID>
155532148

> <PUBCHEM_COMPOUND_CANONICALIZED>
1

> <PUBCHEM_CACTVS_COMPLEXITY>
564

> <PUBCHEM_CACTVS_HBOND_ACCEPTOR>
5

> <PUBCHEM_CACTVS_HBOND_DONOR>
0

> <PUBCHEM_CACTVS_ROTATABLE_BOND>
6

> <PUBCHEM_CACTVS_SUBSKEYS>
AAADcfB7MAAAAAAAAAAAAAAAAAAAAAAAAAA8aMECAAAAAAABUAAAHgAAAAAADFzhmAYyxoMABACAAiRCQACCCAAhIgAIiAAPbIgPZiLEsZuXMChmwBHa6AeQwOAOgAAAAAAAEAAAAAAAAAAgAAAAAAAAAA==

> <PUBCHEM_IUPAC_OPENEYE_NAME>
1-[(6,6-diphenyl-1,4-dioxan-2-yl)methyl]-4-(2-methoxyphenyl)piperazine

> <PUBCHEM_IUPAC_CAS_NAME>
1-[(6,6-diphenyl-1,4-dioxan-2-yl)methyl]-4-(2-methoxyphenyl)piperazine

> <PUBCHEM_IUPAC_NAME_MARKUP>
1-[(6,6-diphenyl-1,4-dioxan-2-yl)methyl]-4-(2-methoxyphenyl)piperazine

> <PUBCHEM_IUPAC_NAME>
1-[(6,6-diphenyl-1,4-dioxan-2-yl)methyl]-4-(2-methoxyphenyl)piperazine

> <PUBCHEM_IUPAC_SYSTEMATIC_NAME>
1-[(6,6-diphenyl-1,4-dioxan-2-yl)methyl]-4-(2-methoxyphenyl)piperazine

> <PUBCHEM_IUPAC_TRADITIONAL_NAME>
1-[(6,6-diphenyl-1,4-dioxan-2-yl)methyl]-4-(2-methoxyphenyl)piperazine

> <PUBCHEM_IUPAC_INCHI>
InChI=1S/C28H32N2O3/c1-31-27-15-9-8-14-26(27)30-18-16-29(17-19-30)20-25-21-32-22-28(33-25,23-10-4-2-5-11-23)24-12-6-3-7-13-24/h2-15,25H,16-22H2,1H3

> <PUBCHEM_IUPAC_INCHIKEY>
FBWZMWVPZRCOTO-UHFFFAOYSA-N

> <PUBCHEM_XLOGP3_AA>
4.4

> <PUBCHEM_EXACT_MASS>
444.24129289

> <PUBCHEM_MOLECULAR_FORMULA>
C28H32N2O3

> <PUBCHEM_MOLECULAR_WEIGHT>
444.6

> <PUBCHEM_OPENEYE_CAN_SMILES>
COC1=CC=CC=C1N2CCN(CC2)CC3COCC(O3)(C4=CC=CC=C4)C5=CC=CC=C5

> <PUBCHEM_OPENEYE_ISO_SMILES>
COC1=CC=CC=C1N2CCN(CC2)CC3COCC(O3)(C4=CC=CC=C4)C5=CC=CC=C5

> <PUBCHEM_CACTVS_TPSA>
34.2

> <PUBCHEM_MONOISOTOPIC_WEIGHT>
444.24129289

> <PUBCHEM_TOTAL_CHARGE>
0

> <PUBCHEM_HEAVY_ATOM_COUNT>
33

> <PUBCHEM_ATOM_DEF_STEREO_COUNT>
0

> <PUBCHEM_ATOM_UDEF_STEREO_COUNT>
1

> <PUBCHEM_BOND_DEF_STEREO_COUNT>
0

> <PUBCHEM_BOND_UDEF_STEREO_COUNT>
0

> <PUBCHEM_ISOTOPIC_ATOM_COUNT>
0

> <PUBCHEM_COMPONENT_COUNT>
1

> <PUBCHEM_CACTVS_TAUTO_COUNT>
-1

> <PUBCHEM_COORDINATE_TYPE>
1
5
255

> <PUBCHEM_BONDANNOTATIONS>
15  18  8
15  20  8
16  19  8
16  21  8
17  22  8
17  23  8
18  24  8
19  25  8
20  26  8
21  27  8
22  30  8
23  31  8
24  28  8
25  29  8
26  28  8
27  29  8
30  32  8
31  32  8
6  7  3

$$$$
