90178632
  -OEChem-09292322382D

 67 70  0     0  0  0  0  0  0999 V2000
    6.3301   -0.5000    0.0000 O   0  0  0  0  0  0  0  0  0  0  0  0
    8.9282    1.0000    0.0000 O   0  0  0  0  0  0  0  0  0  0  0  0
    5.4641   -3.0000    0.0000 N   0  0  0  0  0  0  0  0  0  0  0  0
    5.4641   -5.0000    0.0000 N   0  0  0  0  0  0  0  0  0  0  0  0
    8.0622    2.5000    0.0000 N   0  0  0  0  0  0  0  0  0  0  0  0
    8.9282    8.0000    0.0000 N   0  0  0  0  0  0  0  0  0  0  0  0
    4.5981   -3.5000    0.0000 C   0  0  0  0  0  0  0  0  0  0  0  0
    6.3301   -3.5000    0.0000 C   0  0  0  0  0  0  0  0  0  0  0  0
    4.5981   -4.5000    0.0000 C   0  0  0  0  0  0  0  0  0  0  0  0
    6.3301   -4.5000    0.0000 C   0  0  0  0  0  0  0  0  0  0  0  0
    5.4641   -2.0000    0.0000 C   0  0  0  0  0  0  0  0  0  0  0  0
    5.4641   -6.0000    0.0000 C   0  0  0  0  0  0  0  0  0  0  0  0
    6.3301   -1.5000    0.0000 C   0  0  0  0  0  0  0  0  0  0  0  0
    4.5981   -6.5000    0.0000 C   0  0  0  0  0  0  0  0  0  0  0  0
    6.3301   -6.5000    0.0000 C   0  0  0  0  0  0  0  0  0  0  0  0
    3.7320   -6.0000    0.0000 C   0  0  0  0  0  0  0  0  0  0  0  0
    4.5981   -7.5000    0.0000 C   0  0  0  0  0  0  0  0  0  0  0  0
    6.3301   -7.5000    0.0000 C   0  0  0  0  0  0  0  0  0  0  0  0
    5.4641   -8.0000    0.0000 C   0  0  0  0  0  0  0  0  0  0  0  0
    7.1962    0.0000    0.0000 C   0  0  0  0  0  0  0  0  0  0  0  0
    2.8660   -6.5000    0.0000 C   0  0  0  0  0  0  0  0  0  0  0  0
    3.7320   -5.0000    0.0000 C   0  0  0  0  0  0  0  0  0  0  0  0
    7.1962    1.0000    0.0000 C   0  0  0  0  0  0  0  0  0  0  0  0
    2.0000   -6.0000    0.0000 C   0  0  0  0  0  0  0  0  0  0  0  0
    2.8660   -4.5000    0.0000 C   0  0  0  0  0  0  0  0  0  0  0  0
    8.0622    1.5000    0.0000 C   0  0  0  0  0  0  0  0  0  0  0  0
    2.0000   -5.0000    0.0000 C   0  0  0  0  0  0  0  0  0  0  0  0
    8.9282    3.0000    0.0000 C   0  0  0  0  0  0  0  0  0  0  0  0
    8.9282    4.0000    0.0000 C   0  0  0  0  0  0  0  0  0  0  0  0
    9.7942    4.5000    0.0000 C   0  0  0  0  0  0  0  0  0  0  0  0
    8.0622    4.5000    0.0000 C   0  0  0  0  0  0  0  0  0  0  0  0
    9.7942    5.5000    0.0000 C   0  0  0  0  0  0  0  0  0  0  0  0
    8.0622    5.5000    0.0000 C   0  0  0  0  0  0  0  0  0  0  0  0
    8.9282    6.0000    0.0000 C   0  0  0  0  0  0  0  0  0  0  0  0
    8.9282    7.0000    0.0000 C   0  0  0  0  0  0  0  0  0  0  0  0
    4.3860   -2.9174    0.0000 H   0  0  0  0  0  0  0  0  0  0  0  0
    3.9875   -3.6077    0.0000 H   0  0  0  0  0  0  0  0  0  0  0  0
    6.9407   -3.6077    0.0000 H   0  0  0  0  0  0  0  0  0  0  0  0
    6.5422   -2.9174    0.0000 H   0  0  0  0  0  0  0  0  0  0  0  0
    3.9875   -4.3923    0.0000 H   0  0  0  0  0  0  0  0  0  0  0  0
    4.3860   -5.0826    0.0000 H   0  0  0  0  0  0  0  0  0  0  0  0
    6.5422   -5.0826    0.0000 H   0  0  0  0  0  0  0  0  0  0  0  0
    6.9407   -4.3923    0.0000 H   0  0  0  0  0  0  0  0  0  0  0  0
    5.2520   -1.4174    0.0000 H   0  0  0  0  0  0  0  0  0  0  0  0
    4.8535   -2.1077    0.0000 H   0  0  0  0  0  0  0  0  0  0  0  0
    6.5422   -2.0826    0.0000 H   0  0  0  0  0  0  0  0  0  0  0  0
    6.9407   -1.3923    0.0000 H   0  0  0  0  0  0  0  0  0  0  0  0
    6.8671   -6.1900    0.0000 H   0  0  0  0  0  0  0  0  0  0  0  0
    4.0611   -7.8100    0.0000 H   0  0  0  0  0  0  0  0  0  0  0  0
    6.8671   -7.8100    0.0000 H   0  0  0  0  0  0  0  0  0  0  0  0
    5.4641   -8.6200    0.0000 H   0  0  0  0  0  0  0  0  0  0  0  0
    7.4082   -0.5826    0.0000 H   0  0  0  0  0  0  0  0  0  0  0  0
    7.8067    0.1077    0.0000 H   0  0  0  0  0  0  0  0  0  0  0  0
    2.8660   -7.1200    0.0000 H   0  0  0  0  0  0  0  0  0  0  0  0
    4.2690   -4.6900    0.0000 H   0  0  0  0  0  0  0  0  0  0  0  0
    6.9841    1.5826    0.0000 H   0  0  0  0  0  0  0  0  0  0  0  0
    6.5856    0.8923    0.0000 H   0  0  0  0  0  0  0  0  0  0  0  0
    1.4631   -6.3100    0.0000 H   0  0  0  0  0  0  0  0  0  0  0  0
    2.8660   -3.8800    0.0000 H   0  0  0  0  0  0  0  0  0  0  0  0
    1.4631   -4.6900    0.0000 H   0  0  0  0  0  0  0  0  0  0  0  0
    7.5252    2.8100    0.0000 H   0  0  0  0  0  0  0  0  0  0  0  0
    9.1403    2.4174    0.0000 H   0  0  0  0  0  0  0  0  0  0  0  0
    9.5388    3.1077    0.0000 H   0  0  0  0  0  0  0  0  0  0  0  0
   10.3312    4.1900    0.0000 H   0  0  0  0  0  0  0  0  0  0  0  0
    7.5252    4.1900    0.0000 H   0  0  0  0  0  0  0  0  0  0  0  0
   10.3312    5.8100    0.0000 H   0  0  0  0  0  0  0  0  0  0  0  0
    7.5252    5.8100    0.0000 H   0  0  0  0  0  0  0  0  0  0  0  0
  1 13  1  0  0  0  0
  1 20  1  0  0  0  0
  2 26  2  0  0  0  0
  3  7  1  0  0  0  0
  3  8  1  0  0  0  0
  3 11  1  0  0  0  0
  4  9  1  0  0  0  0
  4 10  1  0  0  0  0
  4 12  1  0  0  0  0
  5 26  1  0  0  0  0
  5 28  1  0  0  0  0
  5 61  1  0  0  0  0
  6 35  3  0  0  0  0
  7  9  1  0  0  0  0
  7 36  1  0  0  0  0
  7 37  1  0  0  0  0
  8 10  1  0  0  0  0
  8 38  1  0  0  0  0
  8 39  1  0  0  0  0
  9 40  1  0  0  0  0
  9 41  1  0  0  0  0
 10 42  1  0  0  0  0
 10 43  1  0  0  0  0
 11 13  1  0  0  0  0
 11 44  1  0  0  0  0
 11 45  1  0  0  0  0
 12 14  1  0  0  0  0
 12 15  2  0  0  0  0
 13 46  1  0  0  0  0
 13 47  1  0  0  0  0
 14 16  1  0  0  0  0
 14 17  2  0  0  0  0
 15 18  1  0  0  0  0
 15 48  1  0  0  0  0
 16 21  2  0  0  0  0
 16 22  1  0  0  0  0
 17 19  1  0  0  0  0
 17 49  1  0  0  0  0
 18 19  2  0  0  0  0
 18 50  1  0  0  0  0
 19 51  1  0  0  0  0
 20 23  1  0  0  0  0
 20 52  1  0  0  0  0
 20 53  1  0  0  0  0
 21 24  1  0  0  0  0
 21 54  1  0  0  0  0
 22 25  2  0  0  0  0
 22 55  1  0  0  0  0
 23 26  1  0  0  0  0
 23 56  1  0  0  0  0
 23 57  1  0  0  0  0
 24 27  2  0  0  0  0
 24 58  1  0  0  0  0
 25 27  1  0  0  0  0
 25 59  1  0  0  0  0
 27 60  1  0  0  0  0
 28 29  1  0  0  0  0
 28 62  1  0  0  0  0
 28 63  1  0  0  0  0
 29 30  2  0  0  0  0
 29 31  1  0  0  0  0
 30 32  1  0  0  0  0
 30 64  1  0  0  0  0
 31 33  2  0  0  0  0
 31 65  1  0  0  0  0
 32 34  2  0  0  0  0
 32 66  1  0  0  0  0
 33 34  1  0  0  0  0
 33 67  1  0  0  0  0
 34 35  1  0  0  0  0
M  END
> <PUBCHEM_COMPOUND_CID>
90178632

> <PUBCHEM_COMPOUND_CANONICALIZED>
1

> <PUBCHEM_CACTVS_COMPLEXITY>
669

> <PUBCHEM_CACTVS_HBOND_ACCEPTOR>
5

> <PUBCHEM_CACTVS_HBOND_DONOR>
1

> <PUBCHEM_CACTVS_ROTATABLE_BOND>
10

> <PUBCHEM_CACTVS_SUBSKEYS>
AAADcfB7sAAAAAAAAAAAAAAAAAAAAAAAAAA8YMEAAAAAAAABUAAAHgAQAAAADAjhmAYwwIPABACYBiVSUACiAAAhAgAIiIEIZIgK4CbAkZGXIAhitgDYyA8QgMAOwAAAAAACAACAAAAAAAQAAAAAAAAAAA==

> <PUBCHEM_IUPAC_OPENEYE_NAME>
N-[(4-cyanophenyl)methyl]-3-[2-[4-(2-phenylphenyl)piperazin-1-yl]ethoxy]propanamide

> <PUBCHEM_IUPAC_CAS_NAME>
N-[(4-cyanophenyl)methyl]-3-[2-[4-(2-phenylphenyl)-1-piperazinyl]ethoxy]propanamide

> <PUBCHEM_IUPAC_NAME_MARKUP>
<I>N</I>-[(4-cyanophenyl)methyl]-3-[2-[4-(2-phenylphenyl)piperazin-1-yl]ethoxy]propanamide

> <PUBCHEM_IUPAC_NAME>
N-[(4-cyanophenyl)methyl]-3-[2-[4-(2-phenylphenyl)piperazin-1-yl]ethoxy]propanamide

> <PUBCHEM_IUPAC_SYSTEMATIC_NAME>
N-[(4-cyanophenyl)methyl]-3-[2-[4-(2-phenylphenyl)piperazin-1-yl]ethoxy]propanamide

> <PUBCHEM_IUPAC_TRADITIONAL_NAME>
N-(4-cyanobenzyl)-3-[2-[4-(2-phenylphenyl)piperazino]ethoxy]propionamide

> <PUBCHEM_IUPAC_INCHI>
InChI=1S/C29H32N4O2/c30-22-24-10-12-25(13-11-24)23-31-29(34)14-20-35-21-19-32-15-17-33(18-16-32)28-9-5-4-8-27(28)26-6-2-1-3-7-26/h1-13H,14-21,23H2,(H,31,34)

> <PUBCHEM_IUPAC_INCHIKEY>
BXKULJBQDCCBKR-UHFFFAOYSA-N

> <PUBCHEM_XLOGP3_AA>
3.8

> <PUBCHEM_EXACT_MASS>
468.25252628

> <PUBCHEM_MOLECULAR_FORMULA>
C29H32N4O2

> <PUBCHEM_MOLECULAR_WEIGHT>
468.6

> <PUBCHEM_OPENEYE_CAN_SMILES>
C1CN(CCN1CCOCCC(=O)NCC2=CC=C(C=C2)C#N)C3=CC=CC=C3C4=CC=CC=C4

> <PUBCHEM_OPENEYE_ISO_SMILES>
C1CN(CCN1CCOCCC(=O)NCC2=CC=C(C=C2)C#N)C3=CC=CC=C3C4=CC=CC=C4

> <PUBCHEM_CACTVS_TPSA>
68.6

> <PUBCHEM_MONOISOTOPIC_WEIGHT>
468.25252628

> <PUBCHEM_TOTAL_CHARGE>
0

> <PUBCHEM_HEAVY_ATOM_COUNT>
35

> <PUBCHEM_ATOM_DEF_STEREO_COUNT>
0

> <PUBCHEM_ATOM_UDEF_STEREO_COUNT>
0

> <PUBCHEM_BOND_DEF_STEREO_COUNT>
0

> <PUBCHEM_BOND_UDEF_STEREO_COUNT>
0

> <PUBCHEM_ISOTOPIC_ATOM_COUNT>
0

> <PUBCHEM_COMPONENT_COUNT>
1

> <PUBCHEM_CACTVS_TAUTO_COUNT>
-1

> <PUBCHEM_COORDINATE_TYPE>
1
5
255

> <PUBCHEM_BONDANNOTATIONS>
12  14  8
12  15  8
14  17  8
15  18  8
16  21  8
16  22  8
17  19  8
18  19  8
21  24  8
22  25  8
24  27  8
25  27  8
29  30  8
29  31  8
30  32  8
31  33  8
32  34  8
33  34  8

$$$$
