57326890
  -OEChem-09292322072D

140147  0     0  0  0  0  0  0999 V2000
    8.7204    9.3270    0.0000 Cl  0  0  0  0  0  0  0  0  0  0  0  0
   17.3805   -9.3271    0.0000 Cl  0  0  0  0  0  0  0  0  0  0  0  0
    4.0170    6.5000    0.0000 O   0  0  0  0  0  0  0  0  0  0  0  0
   14.4092   -6.5001    0.0000 O   0  0  0  0  0  0  0  0  0  0  0  0
    3.9491   11.0916    0.0000 N   0  0  0  0  0  0  0  0  0  0  0  0
   12.6092  -11.0917    0.0000 N   0  0  0  0  0  0  0  0  0  0  0  0
    3.0814   12.8936    0.0000 N   0  0  0  0  0  0  0  0  0  0  0  0
   11.7414  -12.8936    0.0000 N   0  0  0  0  0  0  0  0  0  0  0  0
    4.8830    8.0000    0.0000 N   0  0  0  0  0  0  0  0  0  0  0  0
   13.5431   -8.0000    0.0000 N   0  0  0  0  0  0  0  0  0  0  0  0
    5.3830   10.1907    0.0000 N   0  0  0  0  0  0  0  0  0  0  0  0
   14.0431  -10.1907    0.0000 N   0  0  0  0  0  0  0  0  0  0  0  0
    4.5125   11.9179    0.0000 C   0  0  0  0  0  0  0  0  0  0  0  0
    2.9519   11.1664    0.0000 C   0  0  0  0  0  0  0  0  0  0  0  0
   11.6120  -11.1664    0.0000 C   0  0  0  0  0  0  0  0  0  0  0  0
   13.1725  -11.9179    0.0000 C   0  0  0  0  0  0  0  0  0  0  0  0
    9.2131    0.5000    0.0000 C   0  0  0  0  0  0  0  0  0  0  0  0
    9.2131   -0.5000    0.0000 C   0  0  0  0  0  0  0  0  0  0  0  0
    8.3470    1.0000    0.0000 C   0  0  0  0  0  0  0  0  0  0  0  0
   10.0791   -1.0000    0.0000 C   0  0  0  0  0  0  0  0  0  0  0  0
    4.0786   12.8188    0.0000 C   0  0  0  0  0  0  0  0  0  0  0  0
    2.5180   12.0673    0.0000 C   0  0  0  0  0  0  0  0  0  0  0  0
   11.1781  -12.0673    0.0000 C   0  0  0  0  0  0  0  0  0  0  0  0
   12.7386  -12.8189    0.0000 C   0  0  0  0  0  0  0  0  0  0  0  0
    8.3470    2.0000    0.0000 C   0  0  0  0  0  0  0  0  0  0  0  0
   10.0791   -2.0000    0.0000 C   0  0  0  0  0  0  0  0  0  0  0  0
    7.4810    2.5000    0.0000 C   0  0  0  0  0  0  0  0  0  0  0  0
   10.9451   -2.5000    0.0000 C   0  0  0  0  0  0  0  0  0  0  0  0
    7.4810    3.5000    0.0000 C   0  0  0  0  0  0  0  0  0  0  0  0
   10.9451   -3.5000    0.0000 C   0  0  0  0  0  0  0  0  0  0  0  0
    6.6150    4.0000    0.0000 C   0  0  0  0  0  0  0  0  0  0  0  0
   11.8111   -4.0000    0.0000 C   0  0  0  0  0  0  0  0  0  0  0  0
    4.3830   10.1907    0.0000 C   0  0  0  0  0  0  0  0  0  0  0  0
   13.0431  -10.1907    0.0000 C   0  0  0  0  0  0  0  0  0  0  0  0
    6.6150    5.0000    0.0000 C   0  0  0  0  0  0  0  0  0  0  0  0
   11.8111   -5.0000    0.0000 C   0  0  0  0  0  0  0  0  0  0  0  0
    5.7490    5.5000    0.0000 C   0  0  0  0  0  0  0  0  0  0  0  0
   12.6771   -5.5000    0.0000 C   0  0  0  0  0  0  0  0  0  0  0  0
    3.7595    9.4088    0.0000 C   0  0  0  0  0  0  0  0  0  0  0  0
   12.4196   -9.4088    0.0000 C   0  0  0  0  0  0  0  0  0  0  0  0
    5.7490    6.5000    0.0000 C   0  0  0  0  0  0  0  0  0  0  0  0
   12.6771   -6.5000    0.0000 C   0  0  0  0  0  0  0  0  0  0  0  0
    3.9820    8.4339    0.0000 C   0  0  0  0  0  0  0  0  0  0  0  0
   12.6422   -8.4339    0.0000 C   0  0  0  0  0  0  0  0  0  0  0  0
    2.6475   13.7946    0.0000 C   0  0  0  0  0  0  0  0  0  0  0  0
   11.3075  -13.7946    0.0000 C   0  0  0  0  0  0  0  0  0  0  0  0
    4.8830    7.0000    0.0000 C   0  0  0  0  0  0  0  0  0  0  0  0
   13.5431   -7.0000    0.0000 C   0  0  0  0  0  0  0  0  0  0  0  0
    5.7840    8.4339    0.0000 C   0  0  0  0  0  0  0  0  0  0  0  0
   14.4441   -8.4339    0.0000 C   0  0  0  0  0  0  0  0  0  0  0  0
    6.0065    9.4088    0.0000 C   0  0  0  0  0  0  0  0  0  0  0  0
   14.6666   -9.4089    0.0000 C   0  0  0  0  0  0  0  0  0  0  0  0
    2.7690    9.7312    0.0000 C   0  0  0  0  0  0  0  0  0  0  0  0
   11.4291   -9.7312    0.0000 C   0  0  0  0  0  0  0  0  0  0  0  0
    3.2295    7.7137    0.0000 C   0  0  0  0  0  0  0  0  0  0  0  0
   11.8896   -7.7137    0.0000 C   0  0  0  0  0  0  0  0  0  0  0  0
    6.5365    7.7137    0.0000 C   0  0  0  0  0  0  0  0  0  0  0  0
   15.1967   -7.7138    0.0000 C   0  0  0  0  0  0  0  0  0  0  0  0
    2.0000    9.0286    0.0000 C   0  0  0  0  0  0  0  0  0  0  0  0
   10.6601   -9.0286    0.0000 C   0  0  0  0  0  0  0  0  0  0  0  0
    6.9970    9.7312    0.0000 C   0  0  0  0  0  0  0  0  0  0  0  0
   15.6571   -9.7312    0.0000 C   0  0  0  0  0  0  0  0  0  0  0  0
    2.2318    8.0131    0.0000 C   0  0  0  0  0  0  0  0  0  0  0  0
   10.8919   -8.0131    0.0000 C   0  0  0  0  0  0  0  0  0  0  0  0
    7.5342    8.0130    0.0000 C   0  0  0  0  0  0  0  0  0  0  0  0
   16.1943   -8.0131    0.0000 C   0  0  0  0  0  0  0  0  0  0  0  0
    7.7660    9.0286    0.0000 C   0  0  0  0  0  0  0  0  0  0  0  0
   16.4261   -9.0286    0.0000 C   0  0  0  0  0  0  0  0  0  0  0  0
    4.9563   11.4850    0.0000 H   0  0  0  0  0  0  0  0  0  0  0  0
    5.0159   12.2798    0.0000 H   0  0  0  0  0  0  0  0  0  0  0  0
    2.3551   10.9985    0.0000 H   0  0  0  0  0  0  0  0  0  0  0  0
    3.0137   10.5495    0.0000 H   0  0  0  0  0  0  0  0  0  0  0  0
   11.6738  -10.5495    0.0000 H   0  0  0  0  0  0  0  0  0  0  0  0
   11.0152  -10.9985    0.0000 H   0  0  0  0  0  0  0  0  0  0  0  0
   13.6759  -12.2798    0.0000 H   0  0  0  0  0  0  0  0  0  0  0  0
   13.6164  -11.4850    0.0000 H   0  0  0  0  0  0  0  0  0  0  0  0
    9.8236    0.3923    0.0000 H   0  0  0  0  0  0  0  0  0  0  0  0
    9.4251    1.0826    0.0000 H   0  0  0  0  0  0  0  0  0  0  0  0
    8.6025   -0.3923    0.0000 H   0  0  0  0  0  0  0  0  0  0  0  0
    9.0010   -1.0826    0.0000 H   0  0  0  0  0  0  0  0  0  0  0  0
    7.7365    1.1077    0.0000 H   0  0  0  0  0  0  0  0  0  0  0  0
    8.1350    0.4174    0.0000 H   0  0  0  0  0  0  0  0  0  0  0  0
   10.6897   -1.1077    0.0000 H   0  0  0  0  0  0  0  0  0  0  0  0
   10.2911   -0.4174    0.0000 H   0  0  0  0  0  0  0  0  0  0  0  0
    4.6754   12.9868    0.0000 H   0  0  0  0  0  0  0  0  0  0  0  0
    4.0168   13.4358    0.0000 H   0  0  0  0  0  0  0  0  0  0  0  0
    2.0742   12.5003    0.0000 H   0  0  0  0  0  0  0  0  0  0  0  0
    2.0146   11.7054    0.0000 H   0  0  0  0  0  0  0  0  0  0  0  0
   10.6747  -11.7054    0.0000 H   0  0  0  0  0  0  0  0  0  0  0  0
   10.7343  -12.5002    0.0000 H   0  0  0  0  0  0  0  0  0  0  0  0
   12.6769  -13.4358    0.0000 H   0  0  0  0  0  0  0  0  0  0  0  0
   13.3355  -12.9868    0.0000 H   0  0  0  0  0  0  0  0  0  0  0  0
    8.9576    1.8923    0.0000 H   0  0  0  0  0  0  0  0  0  0  0  0
    8.5591    2.5826    0.0000 H   0  0  0  0  0  0  0  0  0  0  0  0
    9.4685   -1.8924    0.0000 H   0  0  0  0  0  0  0  0  0  0  0  0
    9.8670   -2.5826    0.0000 H   0  0  0  0  0  0  0  0  0  0  0  0
    6.8704    2.6077    0.0000 H   0  0  0  0  0  0  0  0  0  0  0  0
    7.2690    1.9174    0.0000 H   0  0  0  0  0  0  0  0  0  0  0  0
   11.5557   -2.6077    0.0000 H   0  0  0  0  0  0  0  0  0  0  0  0
   11.1571   -1.9174    0.0000 H   0  0  0  0  0  0  0  0  0  0  0  0
    8.0916    3.3923    0.0000 H   0  0  0  0  0  0  0  0  0  0  0  0
    7.6931    4.0826    0.0000 H   0  0  0  0  0  0  0  0  0  0  0  0
   10.3345   -3.3924    0.0000 H   0  0  0  0  0  0  0  0  0  0  0  0
   10.7330   -4.0826    0.0000 H   0  0  0  0  0  0  0  0  0  0  0  0
    6.0044    4.1077    0.0000 H   0  0  0  0  0  0  0  0  0  0  0  0
    6.4030    3.4174    0.0000 H   0  0  0  0  0  0  0  0  0  0  0  0
   12.4217   -4.1077    0.0000 H   0  0  0  0  0  0  0  0  0  0  0  0
   12.0232   -3.4174    0.0000 H   0  0  0  0  0  0  0  0  0  0  0  0
    7.2256    4.8923    0.0000 H   0  0  0  0  0  0  0  0  0  0  0  0
    6.8271    5.5826    0.0000 H   0  0  0  0  0  0  0  0  0  0  0  0
   11.2005   -4.8924    0.0000 H   0  0  0  0  0  0  0  0  0  0  0  0
   11.5990   -5.5826    0.0000 H   0  0  0  0  0  0  0  0  0  0  0  0
    5.1384    5.6077    0.0000 H   0  0  0  0  0  0  0  0  0  0  0  0
    5.5369    4.9174    0.0000 H   0  0  0  0  0  0  0  0  0  0  0  0
   13.2877   -5.6077    0.0000 H   0  0  0  0  0  0  0  0  0  0  0  0
   12.8892   -4.9174    0.0000 H   0  0  0  0  0  0  0  0  0  0  0  0
    6.3596    6.3923    0.0000 H   0  0  0  0  0  0  0  0  0  0  0  0
    5.9611    7.0826    0.0000 H   0  0  0  0  0  0  0  0  0  0  0  0
   12.0665   -6.3924    0.0000 H   0  0  0  0  0  0  0  0  0  0  0  0
   12.4651   -7.0826    0.0000 H   0  0  0  0  0  0  0  0  0  0  0  0
    3.2061   14.0636    0.0000 H   0  0  0  0  0  0  0  0  0  0  0  0
    2.3785   14.3532    0.0000 H   0  0  0  0  0  0  0  0  0  0  0  0
    2.0889   13.5255    0.0000 H   0  0  0  0  0  0  0  0  0  0  0  0
   10.7490  -13.5255    0.0000 H   0  0  0  0  0  0  0  0  0  0  0  0
   11.0385  -14.3531    0.0000 H   0  0  0  0  0  0  0  0  0  0  0  0
   11.8661  -14.0636    0.0000 H   0  0  0  0  0  0  0  0  0  0  0  0
    2.6380   10.3372    0.0000 H   0  0  0  0  0  0  0  0  0  0  0  0
   11.2982  -10.3372    0.0000 H   0  0  0  0  0  0  0  0  0  0  0  0
    3.3744    7.1109    0.0000 H   0  0  0  0  0  0  0  0  0  0  0  0
   12.0346   -7.1109    0.0000 H   0  0  0  0  0  0  0  0  0  0  0  0
    6.3916    7.1109    0.0000 H   0  0  0  0  0  0  0  0  0  0  0  0
   15.0517   -7.1110    0.0000 H   0  0  0  0  0  0  0  0  0  0  0  0
    1.4083    9.2136    0.0000 H   0  0  0  0  0  0  0  0  0  0  0  0
   10.0684   -9.2136    0.0000 H   0  0  0  0  0  0  0  0  0  0  0  0
    7.1280   10.3372    0.0000 H   0  0  0  0  0  0  0  0  0  0  0  0
   15.7881  -10.3372    0.0000 H   0  0  0  0  0  0  0  0  0  0  0  0
    1.7789    7.5896    0.0000 H   0  0  0  0  0  0  0  0  0  0  0  0
   10.4391   -7.5896    0.0000 H   0  0  0  0  0  0  0  0  0  0  0  0
    7.9871    7.5896    0.0000 H   0  0  0  0  0  0  0  0  0  0  0  0
   16.6472   -7.5897    0.0000 H   0  0  0  0  0  0  0  0  0  0  0  0
  1 67  1  0  0  0  0
  2 68  1  0  0  0  0
  3 47  2  0  0  0  0
  4 48  2  0  0  0  0
  5 13  1  0  0  0  0
  5 14  1  0  0  0  0
  5 33  1  0  0  0  0
  6 15  1  0  0  0  0
  6 16  1  0  0  0  0
  6 34  1  0  0  0  0
  7 21  1  0  0  0  0
  7 22  1  0  0  0  0
  7 45  1  0  0  0  0
  8 23  1  0  0  0  0
  8 24  1  0  0  0  0
  8 46  1  0  0  0  0
  9 43  1  0  0  0  0
  9 47  1  0  0  0  0
  9 49  1  0  0  0  0
 10 44  1  0  0  0  0
 10 48  1  0  0  0  0
 10 50  1  0  0  0  0
 11 33  2  0  0  0  0
 11 51  1  0  0  0  0
 12 34  2  0  0  0  0
 12 52  1  0  0  0  0
 13 21  1  0  0  0  0
 13 69  1  0  0  0  0
 13 70  1  0  0  0  0
 14 22  1  0  0  0  0
 14 71  1  0  0  0  0
 14 72  1  0  0  0  0
 15 23  1  0  0  0  0
 15 73  1  0  0  0  0
 15 74  1  0  0  0  0
 16 24  1  0  0  0  0
 16 75  1  0  0  0  0
 16 76  1  0  0  0  0
 17 18  1  0  0  0  0
 17 19  1  0  0  0  0
 17 77  1  0  0  0  0
 17 78  1  0  0  0  0
 18 20  1  0  0  0  0
 18 79  1  0  0  0  0
 18 80  1  0  0  0  0
 19 25  1  0  0  0  0
 19 81  1  0  0  0  0
 19 82  1  0  0  0  0
 20 26  1  0  0  0  0
 20 83  1  0  0  0  0
 20 84  1  0  0  0  0
 21 85  1  0  0  0  0
 21 86  1  0  0  0  0
 22 87  1  0  0  0  0
 22 88  1  0  0  0  0
 23 89  1  0  0  0  0
 23 90  1  0  0  0  0
 24 91  1  0  0  0  0
 24 92  1  0  0  0  0
 25 27  1  0  0  0  0
 25 93  1  0  0  0  0
 25 94  1  0  0  0  0
 26 28  1  0  0  0  0
 26 95  1  0  0  0  0
 26 96  1  0  0  0  0
 27 29  1  0  0  0  0
 27 97  1  0  0  0  0
 27 98  1  0  0  0  0
 28 30  1  0  0  0  0
 28 99  1  0  0  0  0
 28100  1  0  0  0  0
 29 31  1  0  0  0  0
 29101  1  0  0  0  0
 29102  1  0  0  0  0
 30 32  1  0  0  0  0
 30103  1  0  0  0  0
 30104  1  0  0  0  0
 31 35  1  0  0  0  0
 31105  1  0  0  0  0
 31106  1  0  0  0  0
 32 36  1  0  0  0  0
 32107  1  0  0  0  0
 32108  1  0  0  0  0
 33 39  1  0  0  0  0
 34 40  1  0  0  0  0
 35 37  1  0  0  0  0
 35109  1  0  0  0  0
 35110  1  0  0  0  0
 36 38  1  0  0  0  0
 36111  1  0  0  0  0
 36112  1  0  0  0  0
 37 41  1  0  0  0  0
 37113  1  0  0  0  0
 37114  1  0  0  0  0
 38 42  1  0  0  0  0
 38115  1  0  0  0  0
 38116  1  0  0  0  0
 39 43  1  0  0  0  0
 39 53  2  0  0  0  0
 40 44  1  0  0  0  0
 40 54  2  0  0  0  0
 41 47  1  0  0  0  0
 41117  1  0  0  0  0
 41118  1  0  0  0  0
 42 48  1  0  0  0  0
 42119  1  0  0  0  0
 42120  1  0  0  0  0
 43 55  2  0  0  0  0
 44 56  2  0  0  0  0
 45121  1  0  0  0  0
 45122  1  0  0  0  0
 45123  1  0  0  0  0
 46124  1  0  0  0  0
 46125  1  0  0  0  0
 46126  1  0  0  0  0
 49 51  2  0  0  0  0
 49 57  1  0  0  0  0
 50 52  2  0  0  0  0
 50 58  1  0  0  0  0
 51 61  1  0  0  0  0
 52 62  1  0  0  0  0
 53 59  1  0  0  0  0
 53127  1  0  0  0  0
 54 60  1  0  0  0  0
 54128  1  0  0  0  0
 55 63  1  0  0  0  0
 55129  1  0  0  0  0
 56 64  1  0  0  0  0
 56130  1  0  0  0  0
 57 65  2  0  0  0  0
 57131  1  0  0  0  0
 58 66  2  0  0  0  0
 58132  1  0  0  0  0
 59 63  2  0  0  0  0
 59133  1  0  0  0  0
 60 64  2  0  0  0  0
 60134  1  0  0  0  0
 61 67  2  0  0  0  0
 61135  1  0  0  0  0
 62 68  2  0  0  0  0
 62136  1  0  0  0  0
 63137  1  0  0  0  0
 64138  1  0  0  0  0
 65 67  1  0  0  0  0
 65139  1  0  0  0  0
 66 68  1  0  0  0  0
 66140  1  0  0  0  0
M  END
> <PUBCHEM_COMPOUND_CID>
57326890

> <PUBCHEM_COMPOUND_CANONICALIZED>
1

> <PUBCHEM_CACTVS_COMPLEXITY>
1500

> <PUBCHEM_CACTVS_HBOND_ACCEPTOR>
6

> <PUBCHEM_CACTVS_HBOND_DONOR>
0

> <PUBCHEM_CACTVS_ROTATABLE_BOND>
21

> <PUBCHEM_CACTVS_SUBSKEYS>
AAADcfB/8AAGAAAAAAAAAAAAAAAAAAAAAAA8eMGCBAgAAAABVAAAHgIAAAAADArBmCQzwIMAAACoAidydACCAAEhBwAJiAEodpgIYPLB25GUIAhghADIyAcYiICOAABAAAICACAAAIAABAQAQAAAAAAAAA==

> <PUBCHEM_IUPAC_OPENEYE_NAME>
1,20-bis[3-chloro-6-(4-methylpiperazin-1-yl)benzo[b][1,4]benzodiazepin-11-yl]icosane-1,20-dione

> <PUBCHEM_IUPAC_CAS_NAME>
1,20-bis[3-chloro-6-(4-methyl-1-piperazinyl)-11-benzo[b][1,4]benzodiazepinyl]eicosane-1,20-dione

> <PUBCHEM_IUPAC_NAME_MARKUP>
1,20-bis[3-chloro-6-(4-methylpiperazin-1-yl)benzo[b][1,4]benzodiazepin-11-yl]icosane-1,20-dione

> <PUBCHEM_IUPAC_NAME>
1,20-bis[3-chloro-6-(4-methylpiperazin-1-yl)benzo[b][1,4]benzodiazepin-11-yl]icosane-1,20-dione

> <PUBCHEM_IUPAC_SYSTEMATIC_NAME>
1,20-bis[3-chloranyl-6-(4-methylpiperazin-1-yl)benzo[b][1,4]benzodiazepin-11-yl]icosane-1,20-dione

> <PUBCHEM_IUPAC_TRADITIONAL_NAME>
1,20-bis[3-chloro-6-(4-methylpiperazino)benzo[b][1,4]benzodiazepin-11-yl]eicosane-1,20-dione

> <PUBCHEM_IUPAC_INCHI>
InChI=1S/C56H72Cl2N8O2/c1-61-33-37-63(38-34-61)55-45-23-19-21-25-49(45)65(51-31-29-43(57)41-47(51)59-55)53(67)27-17-15-13-11-9-7-5-3-4-6-8-10-12-14-16-18-28-54(68)66-50-26-22-20-24-46(50)56(64-39-35-62(2)36-40-64)60-48-42-44(58)30-32-52(48)66/h19-26,29-32,41-42H,3-18,27-28,33-40H2,1-2H3

> <PUBCHEM_IUPAC_INCHIKEY>
ZEFYZPUKLTVHDT-UHFFFAOYSA-N

> <PUBCHEM_XLOGP3_AA>
12.8

> <PUBCHEM_EXACT_MASS>
958.5155290

> <PUBCHEM_MOLECULAR_FORMULA>
C56H72Cl2N8O2

> <PUBCHEM_MOLECULAR_WEIGHT>
960.1

> <PUBCHEM_OPENEYE_CAN_SMILES>
CN1CCN(CC1)C2=NC3=C(C=CC(=C3)Cl)N(C4=CC=CC=C42)C(=O)CCCCCCCCCCCCCCCCCCC(=O)N5C6=C(C=C(C=C6)Cl)N=C(C7=CC=CC=C75)N8CCN(CC8)C

> <PUBCHEM_OPENEYE_ISO_SMILES>
CN1CCN(CC1)C2=NC3=C(C=CC(=C3)Cl)N(C4=CC=CC=C42)C(=O)CCCCCCCCCCCCCCCCCCC(=O)N5C6=C(C=C(C=C6)Cl)N=C(C7=CC=CC=C75)N8CCN(CC8)C

> <PUBCHEM_CACTVS_TPSA>
78.3

> <PUBCHEM_MONOISOTOPIC_WEIGHT>
958.5155290

> <PUBCHEM_TOTAL_CHARGE>
0

> <PUBCHEM_HEAVY_ATOM_COUNT>
68

> <PUBCHEM_ATOM_DEF_STEREO_COUNT>
0

> <PUBCHEM_ATOM_UDEF_STEREO_COUNT>
0

> <PUBCHEM_BOND_DEF_STEREO_COUNT>
0

> <PUBCHEM_BOND_UDEF_STEREO_COUNT>
0

> <PUBCHEM_ISOTOPIC_ATOM_COUNT>
0

> <PUBCHEM_COMPONENT_COUNT>
1

> <PUBCHEM_CACTVS_TAUTO_COUNT>
-1

> <PUBCHEM_COORDINATE_TYPE>
1
5
255

> <PUBCHEM_BONDANNOTATIONS>
39  43  8
39  53  8
40  44  8
40  54  8
43  55  8
44  56  8
49  51  8
49  57  8
50  52  8
50  58  8
51  61  8
52  62  8
53  59  8
54  60  8
55  63  8
56  64  8
57  65  8
58  66  8
59  63  8
60  64  8
61  67  8
62  68  8
65  67  8
66  68  8

$$$$
