44582179
  -OEChem-09292322232D

 57 60  0     0  0  0  0  0  0999 V2000
   10.5284    0.8431    0.0000 O   0  0  0  0  0  0  0  0  0  0  0  0
    5.4828   -0.0068    0.0000 N   0  0  0  0  0  0  0  0  0  0  0  0
    4.2358   -1.5705    0.0000 N   0  0  0  0  0  0  0  0  0  0  0  0
    9.3309    2.0406    0.0000 N   0  0  0  0  0  0  0  0  0  0  0  0
    2.6235   -2.2033    0.0000 N   0  0  0  0  0  0  0  0  0  0  0  0
    3.9777   -3.2832    0.0000 N   0  0  0  0  0  0  0  0  0  0  0  0
    6.1063    0.7750    0.0000 C   0  0  0  0  0  0  0  0  0  0  0  0
    5.8481   -0.9377    0.0000 C   0  0  0  0  0  0  0  0  0  0  0  0
    4.4940    0.1422    0.0000 C   0  0  0  0  0  0  0  0  0  0  0  0
    7.0951    0.6260    0.0000 C   0  0  0  0  0  0  0  0  0  0  0  0
    5.2246   -1.7195    0.0000 C   0  0  0  0  0  0  0  0  0  0  0  0
    3.8705   -0.6396    0.0000 C   0  0  0  0  0  0  0  0  0  0  0  0
    7.7186    1.4078    0.0000 C   0  0  0  0  0  0  0  0  0  0  0  0
    8.7074    1.2587    0.0000 C   0  0  0  0  0  0  0  0  0  0  0  0
    8.8970    2.9415    0.0000 C   0  0  0  0  0  0  0  0  0  0  0  0
    9.3309    3.8425    0.0000 C   0  0  0  0  0  0  0  0  0  0  0  0
   10.3058    4.0650    0.0000 C   0  0  0  0  0  0  0  0  0  0  0  0
   10.3058    1.8180    0.0000 C   0  0  0  0  0  0  0  0  0  0  0  0
   11.0877    3.4415    0.0000 C   0  0  0  0  0  0  0  0  0  0  0  0
    3.6123   -2.3523    0.0000 C   0  0  0  0  0  0  0  0  0  0  0  0
   11.0877    2.4415    0.0000 C   0  0  0  0  0  0  0  0  0  0  0  0
   11.9816    3.9762    0.0000 C   0  0  0  0  0  0  0  0  0  0  0  0
   11.9816    1.9069    0.0000 C   0  0  0  0  0  0  0  0  0  0  0  0
   12.8877    3.4624    0.0000 C   0  0  0  0  0  0  0  0  0  0  0  0
   12.8877    2.4207    0.0000 C   0  0  0  0  0  0  0  0  0  0  0  0
    2.0000   -2.9851    0.0000 C   0  0  0  0  0  0  0  0  0  0  0  0
    3.3542   -4.0650    0.0000 C   0  0  0  0  0  0  0  0  0  0  0  0
    2.3653   -3.9160    0.0000 C   0  0  0  0  0  0  0  0  0  0  0  0
    6.3037    1.3627    0.0000 H   0  0  0  0  0  0  0  0  0  0  0  0
    5.5618    1.0715    0.0000 H   0  0  0  0  0  0  0  0  0  0  0  0
    6.2584   -1.4026    0.0000 H   0  0  0  0  0  0  0  0  0  0  0  0
    6.3772   -0.6144    0.0000 H   0  0  0  0  0  0  0  0  0  0  0  0
    4.6914    0.7299    0.0000 H   0  0  0  0  0  0  0  0  0  0  0  0
    3.9495    0.4387    0.0000 H   0  0  0  0  0  0  0  0  0  0  0  0
    6.8976    0.0382    0.0000 H   0  0  0  0  0  0  0  0  0  0  0  0
    7.6396    0.3294    0.0000 H   0  0  0  0  0  0  0  0  0  0  0  0
    5.0272   -2.3072    0.0000 H   0  0  0  0  0  0  0  0  0  0  0  0
    5.7691   -2.0161    0.0000 H   0  0  0  0  0  0  0  0  0  0  0  0
    3.4602   -0.1748    0.0000 H   0  0  0  0  0  0  0  0  0  0  0  0
    3.3414   -0.9629    0.0000 H   0  0  0  0  0  0  0  0  0  0  0  0
    7.9161    1.9955    0.0000 H   0  0  0  0  0  0  0  0  0  0  0  0
    7.1741    1.7043    0.0000 H   0  0  0  0  0  0  0  0  0  0  0  0
    8.5100    0.6710    0.0000 H   0  0  0  0  0  0  0  0  0  0  0  0
    9.2519    0.9622    0.0000 H   0  0  0  0  0  0  0  0  0  0  0  0
    8.4123    3.3281    0.0000 H   0  0  0  0  0  0  0  0  0  0  0  0
    8.4123    2.5550    0.0000 H   0  0  0  0  0  0  0  0  0  0  0  0
    9.3309    4.4625    0.0000 H   0  0  0  0  0  0  0  0  0  0  0  0
    8.7265    3.9805    0.0000 H   0  0  0  0  0  0  0  0  0  0  0  0
   10.7906    4.4516    0.0000 H   0  0  0  0  0  0  0  0  0  0  0  0
   10.0368    4.6236    0.0000 H   0  0  0  0  0  0  0  0  0  0  0  0
   11.9745    4.5962    0.0000 H   0  0  0  0  0  0  0  0  0  0  0  0
   11.9745    1.2869    0.0000 H   0  0  0  0  0  0  0  0  0  0  0  0
   13.4234    3.7744    0.0000 H   0  0  0  0  0  0  0  0  0  0  0  0
   13.4234    2.1087    0.0000 H   0  0  0  0  0  0  0  0  0  0  0  0
    1.3869   -2.8927    0.0000 H   0  0  0  0  0  0  0  0  0  0  0  0
    3.5807   -4.6422    0.0000 H   0  0  0  0  0  0  0  0  0  0  0  0
    1.9788   -4.4007    0.0000 H   0  0  0  0  0  0  0  0  0  0  0  0
  1 18  2  0  0  0  0
  2  7  1  0  0  0  0
  2  8  1  0  0  0  0
  2  9  1  0  0  0  0
  3 11  1  0  0  0  0
  3 12  1  0  0  0  0
  3 20  1  0  0  0  0
  4 14  1  0  0  0  0
  4 15  1  0  0  0  0
  4 18  1  0  0  0  0
  5 20  2  0  0  0  0
  5 26  1  0  0  0  0
  6 20  1  0  0  0  0
  6 27  2  0  0  0  0
  7 10  1  0  0  0  0
  7 29  1  0  0  0  0
  7 30  1  0  0  0  0
  8 11  1  0  0  0  0
  8 31  1  0  0  0  0
  8 32  1  0  0  0  0
  9 12  1  0  0  0  0
  9 33  1  0  0  0  0
  9 34  1  0  0  0  0
 10 13  1  0  0  0  0
 10 35  1  0  0  0  0
 10 36  1  0  0  0  0
 11 37  1  0  0  0  0
 11 38  1  0  0  0  0
 12 39  1  0  0  0  0
 12 40  1  0  0  0  0
 13 14  1  0  0  0  0
 13 41  1  0  0  0  0
 13 42  1  0  0  0  0
 14 43  1  0  0  0  0
 14 44  1  0  0  0  0
 15 16  1  0  0  0  0
 15 45  1  0  0  0  0
 15 46  1  0  0  0  0
 16 17  1  0  0  0  0
 16 47  1  0  0  0  0
 16 48  1  0  0  0  0
 17 19  1  0  0  0  0
 17 49  1  0  0  0  0
 17 50  1  0  0  0  0
 18 21  1  0  0  0  0
 19 21  1  0  0  0  0
 19 22  2  0  0  0  0
 21 23  2  0  0  0  0
 22 24  1  0  0  0  0
 22 51  1  0  0  0  0
 23 25  1  0  0  0  0
 23 52  1  0  0  0  0
 24 25  2  0  0  0  0
 24 53  1  0  0  0  0
 25 54  1  0  0  0  0
 26 28  2  0  0  0  0
 26 55  1  0  0  0  0
 27 28  1  0  0  0  0
 27 56  1  0  0  0  0
 28 57  1  0  0  0  0
M  END
> <PUBCHEM_COMPOUND_CID>
44582179

> <PUBCHEM_COMPOUND_CANONICALIZED>
1

> <PUBCHEM_CACTVS_COMPLEXITY>
487

> <PUBCHEM_CACTVS_HBOND_ACCEPTOR>
5

> <PUBCHEM_CACTVS_HBOND_DONOR>
0

> <PUBCHEM_CACTVS_ROTATABLE_BOND>
6

> <PUBCHEM_CACTVS_SUBSKEYS>
AAADceB7oAAAAAAAAAAAAAAAAAAAAAAAAAA8WIAABYAAAAABwAAAHgAAAAAADADBmgQ9kJcIEACoAjF3dACCgCk1AqAJ2CE4ZNiIaLLA3VGUJQhohgLIiacYiICOgAAAAAAQAAAAAAAAACAAAAAAAAAAAA==

> <PUBCHEM_IUPAC_OPENEYE_NAME>
2-[4-(4-pyrimidin-2-ylpiperazin-1-yl)butyl]-4,5-dihydro-3H-2-benzazepin-1-one

> <PUBCHEM_IUPAC_CAS_NAME>
2-[4-[4-(2-pyrimidinyl)-1-piperazinyl]butyl]-4,5-dihydro-3H-2-benzazepin-1-one

> <PUBCHEM_IUPAC_NAME_MARKUP>
2-[4-(4-pyrimidin-2-ylpiperazin-1-yl)butyl]-4,5-dihydro-3<I>H</I>-2-benzazepin-1-one

> <PUBCHEM_IUPAC_NAME>
2-[4-(4-pyrimidin-2-ylpiperazin-1-yl)butyl]-4,5-dihydro-3H-2-benzazepin-1-one

> <PUBCHEM_IUPAC_SYSTEMATIC_NAME>
2-[4-(4-pyrimidin-2-ylpiperazin-1-yl)butyl]-4,5-dihydro-3H-2-benzazepin-1-one

> <PUBCHEM_IUPAC_TRADITIONAL_NAME>
2-[4-[4-(2-pyrimidyl)piperazino]butyl]-4,5-dihydro-3H-2-benzazepin-1-one

> <PUBCHEM_IUPAC_INCHI>
InChI=1S/C22H29N5O/c28-21-20-9-2-1-7-19(20)8-5-14-26(21)13-4-3-12-25-15-17-27(18-16-25)22-23-10-6-11-24-22/h1-2,6-7,9-11H,3-5,8,12-18H2

> <PUBCHEM_IUPAC_INCHIKEY>
MWTBCJINTAEULL-UHFFFAOYSA-N

> <PUBCHEM_XLOGP3_AA>
2.7

> <PUBCHEM_EXACT_MASS>
379.23721057

> <PUBCHEM_MOLECULAR_FORMULA>
C22H29N5O

> <PUBCHEM_MOLECULAR_WEIGHT>
379.5

> <PUBCHEM_OPENEYE_CAN_SMILES>
C1CC2=CC=CC=C2C(=O)N(C1)CCCCN3CCN(CC3)C4=NC=CC=N4

> <PUBCHEM_OPENEYE_ISO_SMILES>
C1CC2=CC=CC=C2C(=O)N(C1)CCCCN3CCN(CC3)C4=NC=CC=N4

> <PUBCHEM_CACTVS_TPSA>
52.6

> <PUBCHEM_MONOISOTOPIC_WEIGHT>
379.23721057

> <PUBCHEM_TOTAL_CHARGE>
0

> <PUBCHEM_HEAVY_ATOM_COUNT>
28

> <PUBCHEM_ATOM_DEF_STEREO_COUNT>
0

> <PUBCHEM_ATOM_UDEF_STEREO_COUNT>
0

> <PUBCHEM_BOND_DEF_STEREO_COUNT>
0

> <PUBCHEM_BOND_UDEF_STEREO_COUNT>
0

> <PUBCHEM_ISOTOPIC_ATOM_COUNT>
0

> <PUBCHEM_COMPONENT_COUNT>
1

> <PUBCHEM_CACTVS_TAUTO_COUNT>
-1

> <PUBCHEM_COORDINATE_TYPE>
1
5
255

> <PUBCHEM_BONDANNOTATIONS>
19  21  8
19  22  8
21  23  8
22  24  8
23  25  8
24  25  8
26  28  8
27  28  8
5  20  8
5  26  8
6  20  8
6  27  8

$$$$
