57334553
  -OEChem-09292322052D

 60 64  0     0  0  0  0  0  0999 V2000
   14.5036   -2.0990    0.0000 Cl  0  0  0  0  0  0  0  0  0  0  0  0
    2.0000   -0.1227    0.0000 F   0  0  0  0  0  0  0  0  0  0  0  0
    4.7684    2.0990    0.0000 O   0  0  0  0  0  0  0  0  0  0  0  0
   12.7715   -1.0990    0.0000 O   0  0  0  0  0  0  0  0  0  0  0  0
   16.2635   -1.1336    0.0000 O   0  0  0  0  0  0  0  0  0  0  0  0
   18.0337   -1.1231    0.0000 O   0  0  0  0  0  0  0  0  0  0  0  0
    8.4414   -0.5990    0.0000 N   0  0  0  0  0  0  0  0  0  0  0  0
    5.7402    1.8898    0.0000 N   0  0  0  0  0  0  0  0  0  0  0  0
    6.7093    0.4010    0.0000 C   0  0  0  0  0  0  0  0  0  0  0  0
    7.5754    0.9010    0.0000 C   0  0  0  0  0  0  0  0  0  0  0  0
    6.7093   -0.5990    0.0000 C   0  0  0  0  0  0  0  0  0  0  0  0
    8.4414    0.4010    0.0000 C   0  0  0  0  0  0  0  0  0  0  0  0
    7.5754   -1.0990    0.0000 C   0  0  0  0  0  0  0  0  0  0  0  0
    9.3074   -1.0990    0.0000 C   0  0  0  0  0  0  0  0  0  0  0  0
    5.8433    0.9010    0.0000 C   0  0  0  0  0  0  0  0  0  0  0  0
   10.1734   -0.5990    0.0000 C   0  0  0  0  0  0  0  0  0  0  0  0
    4.9355    0.4959    0.0000 C   0  0  0  0  0  0  0  0  0  0  0  0
   11.0395   -1.0990    0.0000 C   0  0  0  0  0  0  0  0  0  0  0  0
    4.2677    1.2402    0.0000 C   0  0  0  0  0  0  0  0  0  0  0  0
   11.9055   -0.5990    0.0000 C   0  0  0  0  0  0  0  0  0  0  0  0
    4.6249   -0.4546    0.0000 C   0  0  0  0  0  0  0  0  0  0  0  0
    3.2892    1.0340    0.0000 C   0  0  0  0  0  0  0  0  0  0  0  0
    3.6464   -0.6608    0.0000 C   0  0  0  0  0  0  0  0  0  0  0  0
    2.9785    0.0835    0.0000 C   0  0  0  0  0  0  0  0  0  0  0  0
   13.6375   -0.5990    0.0000 C   0  0  0  0  0  0  0  0  0  0  0  0
   14.5036   -1.0990    0.0000 C   0  0  0  0  0  0  0  0  0  0  0  0
   13.6375    0.4010    0.0000 C   0  0  0  0  0  0  0  0  0  0  0  0
   15.3696    0.4010    0.0000 C   0  0  0  0  0  0  0  0  0  0  0  0
   15.3696   -0.5990    0.0000 C   0  0  0  0  0  0  0  0  0  0  0  0
   14.5036    0.9010    0.0000 C   0  0  0  0  0  0  0  0  0  0  0  0
   16.2635    0.9357    0.0000 C   0  0  0  0  0  0  0  0  0  0  0  0
   17.1696    0.4219    0.0000 C   0  0  0  0  0  0  0  0  0  0  0  0
   16.2520    1.9356    0.0000 C   0  0  0  0  0  0  0  0  0  0  0  0
   17.1696   -0.6198    0.0000 C   0  0  0  0  0  0  0  0  0  0  0  0
    6.7093    1.0210    0.0000 H   0  0  0  0  0  0  0  0  0  0  0  0
    7.9739    1.3760    0.0000 H   0  0  0  0  0  0  0  0  0  0  0  0
    7.1768    1.3760    0.0000 H   0  0  0  0  0  0  0  0  0  0  0  0
    6.0988   -0.4913    0.0000 H   0  0  0  0  0  0  0  0  0  0  0  0
    6.4973   -1.1816    0.0000 H   0  0  0  0  0  0  0  0  0  0  0  0
    9.0520    0.2934    0.0000 H   0  0  0  0  0  0  0  0  0  0  0  0
    8.6534    0.9836    0.0000 H   0  0  0  0  0  0  0  0  0  0  0  0
    7.1768   -1.5739    0.0000 H   0  0  0  0  0  0  0  0  0  0  0  0
    7.9739   -1.5739    0.0000 H   0  0  0  0  0  0  0  0  0  0  0  0
    8.9089   -1.5739    0.0000 H   0  0  0  0  0  0  0  0  0  0  0  0
    9.7059   -1.5739    0.0000 H   0  0  0  0  0  0  0  0  0  0  0  0
   10.5720   -0.1240    0.0000 H   0  0  0  0  0  0  0  0  0  0  0  0
    9.7749   -0.1240    0.0000 H   0  0  0  0  0  0  0  0  0  0  0  0
   10.6409   -1.5739    0.0000 H   0  0  0  0  0  0  0  0  0  0  0  0
   11.4380   -1.5739    0.0000 H   0  0  0  0  0  0  0  0  0  0  0  0
   12.3040   -0.1240    0.0000 H   0  0  0  0  0  0  0  0  0  0  0  0
   11.5070   -0.1240    0.0000 H   0  0  0  0  0  0  0  0  0  0  0  0
    5.0389   -0.9161    0.0000 H   0  0  0  0  0  0  0  0  0  0  0  0
    2.8751    1.4955    0.0000 H   0  0  0  0  0  0  0  0  0  0  0  0
    3.4537   -1.2501    0.0000 H   0  0  0  0  0  0  0  0  0  0  0  0
   13.1006    0.7110    0.0000 H   0  0  0  0  0  0  0  0  0  0  0  0
   14.5036    1.5210    0.0000 H   0  0  0  0  0  0  0  0  0  0  0  0
   17.7053    0.7339    0.0000 H   0  0  0  0  0  0  0  0  0  0  0  0
   16.8719    1.9428    0.0000 H   0  0  0  0  0  0  0  0  0  0  0  0
   16.2448    2.5556    0.0000 H   0  0  0  0  0  0  0  0  0  0  0  0
   15.6320    1.9285    0.0000 H   0  0  0  0  0  0  0  0  0  0  0  0
  1 26  1  0  0  0  0
  2 24  1  0  0  0  0
  3  8  1  0  0  0  0
  3 19  1  0  0  0  0
  4 20  1  0  0  0  0
  4 25  1  0  0  0  0
  5 29  1  0  0  0  0
  5 34  1  0  0  0  0
  6 34  2  0  0  0  0
  7 12  1  0  0  0  0
  7 13  1  0  0  0  0
  7 14  1  0  0  0  0
  8 15  2  0  0  0  0
  9 10  1  0  0  0  0
  9 11  1  0  0  0  0
  9 15  1  0  0  0  0
  9 35  1  0  0  0  0
 10 12  1  0  0  0  0
 10 36  1  0  0  0  0
 10 37  1  0  0  0  0
 11 13  1  0  0  0  0
 11 38  1  0  0  0  0
 11 39  1  0  0  0  0
 12 40  1  0  0  0  0
 12 41  1  0  0  0  0
 13 42  1  0  0  0  0
 13 43  1  0  0  0  0
 14 16  1  0  0  0  0
 14 44  1  0  0  0  0
 14 45  1  0  0  0  0
 15 17  1  0  0  0  0
 16 18  1  0  0  0  0
 16 46  1  0  0  0  0
 16 47  1  0  0  0  0
 17 19  2  0  0  0  0
 17 21  1  0  0  0  0
 18 20  1  0  0  0  0
 18 48  1  0  0  0  0
 18 49  1  0  0  0  0
 19 22  1  0  0  0  0
 20 50  1  0  0  0  0
 20 51  1  0  0  0  0
 21 23  2  0  0  0  0
 21 52  1  0  0  0  0
 22 24  2  0  0  0  0
 22 53  1  0  0  0  0
 23 24  1  0  0  0  0
 23 54  1  0  0  0  0
 25 26  2  0  0  0  0
 25 27  1  0  0  0  0
 26 29  1  0  0  0  0
 27 30  2  0  0  0  0
 27 55  1  0  0  0  0
 28 29  2  0  0  0  0
 28 30  1  0  0  0  0
 28 31  1  0  0  0  0
 30 56  1  0  0  0  0
 31 32  2  0  0  0  0
 31 33  1  0  0  0  0
 32 34  1  0  0  0  0
 32 57  1  0  0  0  0
 33 58  1  0  0  0  0
 33 59  1  0  0  0  0
 33 60  1  0  0  0  0
M  END
> <PUBCHEM_COMPOUND_CID>
57334553

> <PUBCHEM_COMPOUND_CANONICALIZED>
1

> <PUBCHEM_CACTVS_COMPLEXITY>
746

> <PUBCHEM_CACTVS_HBOND_ACCEPTOR>
7

> <PUBCHEM_CACTVS_HBOND_DONOR>
0

> <PUBCHEM_CACTVS_ROTATABLE_BOND>
7

> <PUBCHEM_CACTVS_SUBSKEYS>
AAADceB7OQAEAAAAAAAAAAAAAAAAAWAAAAA8YIEAAAAAAFiB9AAAHwIEAAAADQ7hni4yjtMQBACpA6TySgCCCAAkJEAomCE+T9oMJ7uFt5uGO6DnwB2I6ce46OyOIAAAKAAICABAAABQABAQAAAAAAAAAA==

> <PUBCHEM_IUPAC_OPENEYE_NAME>
8-chloro-7-[4-[4-(6-fluoro-1,2-benzoxazol-3-yl)-1-piperidyl]butoxy]-4-methyl-chromen-2-one

> <PUBCHEM_IUPAC_CAS_NAME>
8-chloro-7-[4-[4-(6-fluoro-1,2-benzoxazol-3-yl)-1-piperidinyl]butoxy]-4-methyl-1-benzopyran-2-one

> <PUBCHEM_IUPAC_NAME_MARKUP>
8-chloro-7-[4-[4-(6-fluoro-1,2-benzoxazol-3-yl)piperidin-1-yl]butoxy]-4-methylchromen-2-one

> <PUBCHEM_IUPAC_NAME>
8-chloro-7-[4-[4-(6-fluoro-1,2-benzoxazol-3-yl)piperidin-1-yl]butoxy]-4-methylchromen-2-one

> <PUBCHEM_IUPAC_SYSTEMATIC_NAME>
8-chloranyl-7-[4-[4-(6-fluoranyl-1,2-benzoxazol-3-yl)piperidin-1-yl]butoxy]-4-methyl-chromen-2-one

> <PUBCHEM_IUPAC_TRADITIONAL_NAME>
8-chloro-7-[4-[4-(6-fluoroindoxazen-3-yl)piperidino]butoxy]-4-methyl-coumarin

> <PUBCHEM_IUPAC_INCHI>
InChI=1S/C26H26ClFN2O4/c1-16-14-23(31)33-26-19(16)6-7-21(24(26)27)32-13-3-2-10-30-11-8-17(9-12-30)25-20-5-4-18(28)15-22(20)34-29-25/h4-7,14-15,17H,2-3,8-13H2,1H3

> <PUBCHEM_IUPAC_INCHIKEY>
QBXXUIOGPPBTJN-UHFFFAOYSA-N

> <PUBCHEM_XLOGP3_AA>
5.3

> <PUBCHEM_EXACT_MASS>
484.1565132

> <PUBCHEM_MOLECULAR_FORMULA>
C26H26ClFN2O4

> <PUBCHEM_MOLECULAR_WEIGHT>
484.9

> <PUBCHEM_OPENEYE_CAN_SMILES>
CC1=CC(=O)OC2=C1C=CC(=C2Cl)OCCCCN3CCC(CC3)C4=NOC5=C4C=CC(=C5)F

> <PUBCHEM_OPENEYE_ISO_SMILES>
CC1=CC(=O)OC2=C1C=CC(=C2Cl)OCCCCN3CCC(CC3)C4=NOC5=C4C=CC(=C5)F

> <PUBCHEM_CACTVS_TPSA>
64.8

> <PUBCHEM_MONOISOTOPIC_WEIGHT>
484.1565132

> <PUBCHEM_TOTAL_CHARGE>
0

> <PUBCHEM_HEAVY_ATOM_COUNT>
34

> <PUBCHEM_ATOM_DEF_STEREO_COUNT>
0

> <PUBCHEM_ATOM_UDEF_STEREO_COUNT>
0

> <PUBCHEM_BOND_DEF_STEREO_COUNT>
0

> <PUBCHEM_BOND_UDEF_STEREO_COUNT>
0

> <PUBCHEM_ISOTOPIC_ATOM_COUNT>
0

> <PUBCHEM_COMPONENT_COUNT>
1

> <PUBCHEM_CACTVS_TAUTO_COUNT>
-1

> <PUBCHEM_COORDINATE_TYPE>
1
5
255

> <PUBCHEM_BONDANNOTATIONS>
15  17  8
17  19  8
17  21  8
19  22  8
21  23  8
22  24  8
23  24  8
25  26  8
25  27  8
26  29  8
27  30  8
28  29  8
28  30  8
28  31  8
3  19  8
3  8  8
31  32  8
32  34  8
5  29  8
5  34  8
8  15  8

$$$$
