137635685
  -OEChem-09292322392D

 58 62  0     0  0  0  0  0  0999 V2000
    5.3351    3.6176    0.0000 O   0  0  0  0  0  0  0  0  0  0  0  0
    7.0671   -6.3824    0.0000 O   0  0  0  0  0  0  0  0  0  0  0  0
    7.0671   -0.3824    0.0000 N   0  0  0  0  0  0  0  0  0  0  0  0
    7.0671   -2.3824    0.0000 N   0  0  0  0  0  0  0  0  0  0  0  0
    8.8271   -5.4171    0.0000 N   0  0  0  0  0  0  0  0  0  0  0  0
    2.7370    5.1176    0.0000 N   0  0  0  0  0  0  0  0  0  0  0  0
    2.0000    5.7846    0.0000 N   0  0  0  0  0  0  0  0  0  0  0  0
    6.2011   -0.8824    0.0000 C   0  0  0  0  0  0  0  0  0  0  0  0
    7.9332   -0.8824    0.0000 C   0  0  0  0  0  0  0  0  0  0  0  0
    6.2011   -1.8824    0.0000 C   0  0  0  0  0  0  0  0  0  0  0  0
    7.9332   -1.8824    0.0000 C   0  0  0  0  0  0  0  0  0  0  0  0
    7.0671    0.6176    0.0000 C   0  0  0  0  0  0  0  0  0  0  0  0
    6.2011    1.1176    0.0000 C   0  0  0  0  0  0  0  0  0  0  0  0
    7.0671   -3.3824    0.0000 C   0  0  0  0  0  0  0  0  0  0  0  0
    6.2011    2.1176    0.0000 C   0  0  0  0  0  0  0  0  0  0  0  0
    7.9332   -3.8824    0.0000 C   0  0  0  0  0  0  0  0  0  0  0  0
    6.2011   -3.8824    0.0000 C   0  0  0  0  0  0  0  0  0  0  0  0
    5.3351    2.6176    0.0000 C   0  0  0  0  0  0  0  0  0  0  0  0
    7.9332   -4.8824    0.0000 C   0  0  0  0  0  0  0  0  0  0  0  0
    6.2011   -4.8824    0.0000 C   0  0  0  0  0  0  0  0  0  0  0  0
    8.8271   -3.3478    0.0000 C   0  0  0  0  0  0  0  0  0  0  0  0
    7.0671   -5.3824    0.0000 C   0  0  0  0  0  0  0  0  0  0  0  0
    9.7332   -3.8616    0.0000 C   0  0  0  0  0  0  0  0  0  0  0  0
    9.7332   -4.9032    0.0000 C   0  0  0  0  0  0  0  0  0  0  0  0
    4.4691    4.1176    0.0000 C   0  0  0  0  0  0  0  0  0  0  0  0
    4.4691    5.1176    0.0000 C   0  0  0  0  0  0  0  0  0  0  0  0
    3.6030    3.6176    0.0000 C   0  0  0  0  0  0  0  0  0  0  0  0
    3.6030    5.6176    0.0000 C   0  0  0  0  0  0  0  0  0  0  0  0
    2.7370    4.1176    0.0000 C   0  0  0  0  0  0  0  0  0  0  0  0
    3.3938    6.5894    0.0000 C   0  0  0  0  0  0  0  0  0  0  0  0
    2.4051    6.6924    0.0000 C   0  0  0  0  0  0  0  0  0  0  0  0
    5.9891   -0.2998    0.0000 H   0  0  0  0  0  0  0  0  0  0  0  0
    5.5905   -0.9901    0.0000 H   0  0  0  0  0  0  0  0  0  0  0  0
    8.5438   -0.9901    0.0000 H   0  0  0  0  0  0  0  0  0  0  0  0
    8.1452   -0.2998    0.0000 H   0  0  0  0  0  0  0  0  0  0  0  0
    5.5905   -1.7748    0.0000 H   0  0  0  0  0  0  0  0  0  0  0  0
    5.9891   -2.4650    0.0000 H   0  0  0  0  0  0  0  0  0  0  0  0
    8.1452   -2.4650    0.0000 H   0  0  0  0  0  0  0  0  0  0  0  0
    8.5438   -1.7748    0.0000 H   0  0  0  0  0  0  0  0  0  0  0  0
    7.6777    0.5099    0.0000 H   0  0  0  0  0  0  0  0  0  0  0  0
    7.2792    1.2002    0.0000 H   0  0  0  0  0  0  0  0  0  0  0  0
    5.5905    1.2252    0.0000 H   0  0  0  0  0  0  0  0  0  0  0  0
    5.9891    0.5350    0.0000 H   0  0  0  0  0  0  0  0  0  0  0  0
    6.8117    2.0099    0.0000 H   0  0  0  0  0  0  0  0  0  0  0  0
    6.4132    2.7002    0.0000 H   0  0  0  0  0  0  0  0  0  0  0  0
    5.6642   -3.5724    0.0000 H   0  0  0  0  0  0  0  0  0  0  0  0
    4.7245    2.7252    0.0000 H   0  0  0  0  0  0  0  0  0  0  0  0
    5.1230    2.0350    0.0000 H   0  0  0  0  0  0  0  0  0  0  0  0
    5.6642   -5.1924    0.0000 H   0  0  0  0  0  0  0  0  0  0  0  0
    8.8199   -2.7278    0.0000 H   0  0  0  0  0  0  0  0  0  0  0  0
   10.2689   -3.5496    0.0000 H   0  0  0  0  0  0  0  0  0  0  0  0
   10.2689   -5.2153    0.0000 H   0  0  0  0  0  0  0  0  0  0  0  0
    6.5302   -6.6924    0.0000 H   0  0  0  0  0  0  0  0  0  0  0  0
    5.0060    5.4276    0.0000 H   0  0  0  0  0  0  0  0  0  0  0  0
    3.6030    2.9976    0.0000 H   0  0  0  0  0  0  0  0  0  0  0  0
    2.2001    3.8076    0.0000 H   0  0  0  0  0  0  0  0  0  0  0  0
    3.8079    7.0508    0.0000 H   0  0  0  0  0  0  0  0  0  0  0  0
    2.0951    7.2294    0.0000 H   0  0  0  0  0  0  0  0  0  0  0  0
  1 18  1  0  0  0  0
  1 25  1  0  0  0  0
  2 22  1  0  0  0  0
  2 53  1  0  0  0  0
  3  8  1  0  0  0  0
  3  9  1  0  0  0  0
  3 12  1  0  0  0  0
  4 10  1  0  0  0  0
  4 11  1  0  0  0  0
  4 14  1  0  0  0  0
  5 19  1  0  0  0  0
  5 24  2  0  0  0  0
  6  7  1  0  0  0  0
  6 28  1  0  0  0  0
  6 29  1  0  0  0  0
  7 31  2  0  0  0  0
  8 10  1  0  0  0  0
  8 32  1  0  0  0  0
  8 33  1  0  0  0  0
  9 11  1  0  0  0  0
  9 34  1  0  0  0  0
  9 35  1  0  0  0  0
 10 36  1  0  0  0  0
 10 37  1  0  0  0  0
 11 38  1  0  0  0  0
 11 39  1  0  0  0  0
 12 13  1  0  0  0  0
 12 40  1  0  0  0  0
 12 41  1  0  0  0  0
 13 15  1  0  0  0  0
 13 42  1  0  0  0  0
 13 43  1  0  0  0  0
 14 16  2  0  0  0  0
 14 17  1  0  0  0  0
 15 18  1  0  0  0  0
 15 44  1  0  0  0  0
 15 45  1  0  0  0  0
 16 19  1  0  0  0  0
 16 21  1  0  0  0  0
 17 20  2  0  0  0  0
 17 46  1  0  0  0  0
 18 47  1  0  0  0  0
 18 48  1  0  0  0  0
 19 22  2  0  0  0  0
 20 22  1  0  0  0  0
 20 49  1  0  0  0  0
 21 23  2  0  0  0  0
 21 50  1  0  0  0  0
 23 24  1  0  0  0  0
 23 51  1  0  0  0  0
 24 52  1  0  0  0  0
 25 26  2  0  0  0  0
 25 27  1  0  0  0  0
 26 28  1  0  0  0  0
 26 54  1  0  0  0  0
 27 29  2  0  0  0  0
 27 55  1  0  0  0  0
 28 30  2  0  0  0  0
 29 56  1  0  0  0  0
 30 31  1  0  0  0  0
 30 57  1  0  0  0  0
 31 58  1  0  0  0  0
M  END
> <PUBCHEM_COMPOUND_CID>
137635685

> <PUBCHEM_COMPOUND_CANONICALIZED>
1

> <PUBCHEM_CACTVS_COMPLEXITY>
558

> <PUBCHEM_CACTVS_HBOND_ACCEPTOR>
6

> <PUBCHEM_CACTVS_HBOND_DONOR>
1

> <PUBCHEM_CACTVS_ROTATABLE_BOND>
7

> <PUBCHEM_CACTVS_SUBSKEYS>
AAADceB7sAAAAAAAAAAAAAAAAAAAAWAAAAA8WLEAAAAAAFix/gAAHgAICAAADAzhngY8xvMIFgCiAzRnRASSjCAx4iAY2CA/bJgOZuLW8duW/CjmyBnY+Aew0LAOAEABAAQCEAAAgAIACAQgAAAAAAAAAA==

> <PUBCHEM_IUPAC_OPENEYE_NAME>
5-[4-(4-pyrazolo[1,5-a]pyridin-5-yloxybutyl)piperazin-1-yl]quinolin-8-ol

> <PUBCHEM_IUPAC_CAS_NAME>
5-[4-[4-(5-pyrazolo[1,5-a]pyridinyloxy)butyl]-1-piperazinyl]-8-quinolinol

> <PUBCHEM_IUPAC_NAME_MARKUP>
5-[4-(4-pyrazolo[1,5-a]pyridin-5-yloxybutyl)piperazin-1-yl]quinolin-8-ol

> <PUBCHEM_IUPAC_NAME>
5-[4-(4-pyrazolo[1,5-a]pyridin-5-yloxybutyl)piperazin-1-yl]quinolin-8-ol

> <PUBCHEM_IUPAC_SYSTEMATIC_NAME>
5-[4-(4-pyrazolo[1,5-a]pyridin-5-yloxybutyl)piperazin-1-yl]quinolin-8-ol

> <PUBCHEM_IUPAC_TRADITIONAL_NAME>
5-[4-(4-pyrazolo[1,5-a]pyridin-5-yloxybutyl)piperazino]quinolin-8-ol

> <PUBCHEM_IUPAC_INCHI>
InChI=1S/C24H27N5O2/c30-23-6-5-22(21-4-3-9-25-24(21)23)28-15-13-27(14-16-28)11-1-2-17-31-20-8-12-29-19(18-20)7-10-26-29/h3-10,12,18,30H,1-2,11,13-17H2

> <PUBCHEM_IUPAC_INCHIKEY>
YRCMSWAPYVIAQO-UHFFFAOYSA-N

> <PUBCHEM_XLOGP3_AA>
3.3

> <PUBCHEM_EXACT_MASS>
417.21647512

> <PUBCHEM_MOLECULAR_FORMULA>
C24H27N5O2

> <PUBCHEM_MOLECULAR_WEIGHT>
417.5

> <PUBCHEM_OPENEYE_CAN_SMILES>
C1CN(CCN1CCCCOC2=CC3=CC=NN3C=C2)C4=C5C=CC=NC5=C(C=C4)O

> <PUBCHEM_OPENEYE_ISO_SMILES>
C1CN(CCN1CCCCOC2=CC3=CC=NN3C=C2)C4=C5C=CC=NC5=C(C=C4)O

> <PUBCHEM_CACTVS_TPSA>
66.1

> <PUBCHEM_MONOISOTOPIC_WEIGHT>
417.21647512

> <PUBCHEM_TOTAL_CHARGE>
0

> <PUBCHEM_HEAVY_ATOM_COUNT>
31

> <PUBCHEM_ATOM_DEF_STEREO_COUNT>
0

> <PUBCHEM_ATOM_UDEF_STEREO_COUNT>
0

> <PUBCHEM_BOND_DEF_STEREO_COUNT>
0

> <PUBCHEM_BOND_UDEF_STEREO_COUNT>
0

> <PUBCHEM_ISOTOPIC_ATOM_COUNT>
0

> <PUBCHEM_COMPONENT_COUNT>
1

> <PUBCHEM_CACTVS_TAUTO_COUNT>
-1

> <PUBCHEM_COORDINATE_TYPE>
1
5
255

> <PUBCHEM_BONDANNOTATIONS>
14  16  8
14  17  8
16  19  8
16  21  8
17  20  8
19  22  8
20  22  8
21  23  8
23  24  8
25  26  8
25  27  8
26  28  8
27  29  8
28  30  8
30  31  8
5  19  8
5  24  8
6  28  8
6  29  8
6  7  8
7  31  8

$$$$
