145993377
  -OEChem-09292322392D

 62 65  0     1  0  0  0  0  0999 V2000
    2.0000    2.0288    0.0000 O   0  0  0  0  0  0  0  0  0  0  0  0
    2.0000    0.0288    0.0000 O   0  0  0  0  0  0  0  0  0  0  0  0
   11.5981    1.4879    0.0000 O   0  0  0  0  0  0  0  0  0  0  0  0
    6.3981    0.5079    0.0000 N   0  0  3  0  0  0  0  0  0  0  0  0
   10.7263   -0.0087    0.0000 N   0  0  0  0  0  0  0  0  0  0  0  0
    6.3981    1.5496    0.0000 C   0  0  0  0  0  0  0  0  0  0  0  0
    5.4920   -0.0059    0.0000 C   0  0  0  0  0  0  0  0  0  0  0  0
    5.4920    2.0634    0.0000 C   0  0  0  0  0  0  0  0  0  0  0  0
    7.2622    0.0046    0.0000 C   0  0  0  0  0  0  0  0  0  0  0  0
    4.5981    0.5288    0.0000 C   0  0  0  0  0  0  0  0  0  0  0  0
    4.5981    1.5288    0.0000 C   0  0  0  0  0  0  0  0  0  0  0  0
    8.1301    0.5013    0.0000 C   0  0  0  0  0  0  0  0  0  0  0  0
    8.9942   -0.0021    0.0000 C   0  0  0  0  0  0  0  0  0  0  0  0
    3.7320    0.0288    0.0000 C   0  0  0  0  0  0  0  0  0  0  0  0
    3.7320    2.0288    0.0000 C   0  0  0  0  0  0  0  0  0  0  0  0
    9.8622    0.4946    0.0000 C   0  0  0  0  0  0  0  0  0  0  0  0
    2.8660    1.5288    0.0000 C   0  0  0  0  0  0  0  0  0  0  0  0
    2.8660    0.5288    0.0000 C   0  0  0  0  0  0  0  0  0  0  0  0
   11.5942    0.4879    0.0000 C   0  0  0  0  0  0  0  0  0  0  0  0
   12.4583   -0.0154    0.0000 C   0  0  0  0  0  0  0  0  0  0  0  0
    2.0000    3.0288    0.0000 C   0  0  0  0  0  0  0  0  0  0  0  0
   13.3262    0.4812    0.0000 C   0  0  0  0  0  0  0  0  0  0  0  0
   12.4544   -1.0154    0.0000 C   0  0  0  0  0  0  0  0  0  0  0  0
   14.1865   -1.0221    0.0000 C   0  0  0  0  0  0  0  0  0  0  0  0
   14.1903   -0.0221    0.0000 C   0  0  0  0  0  0  0  0  0  0  0  0
   13.3185   -1.5188    0.0000 C   0  0  0  0  0  0  0  0  0  0  0  0
   15.0506   -1.5254    0.0000 C   0  0  0  0  0  0  0  0  0  0  0  0
   15.9185   -1.0288    0.0000 C   0  0  0  0  0  0  0  0  0  0  0  0
   15.0467   -2.5254    0.0000 C   0  0  0  0  0  0  0  0  0  0  0  0
   16.7826   -1.5321    0.0000 C   0  0  0  0  0  0  0  0  0  0  0  0
   15.9108   -3.0288    0.0000 C   0  0  0  0  0  0  0  0  0  0  0  0
   16.7787   -2.5321    0.0000 C   0  0  0  0  0  0  0  0  0  0  0  0
    7.0089    1.4435    0.0000 H   0  0  0  0  0  0  0  0  0  0  0  0
    6.6071    2.1333    0.0000 H   0  0  0  0  0  0  0  0  0  0  0  0
    5.0874   -0.4757    0.0000 H   0  0  0  0  0  0  0  0  0  0  0  0
    5.8856   -0.4849    0.0000 H   0  0  0  0  0  0  0  0  0  0  0  0
    5.8856    2.5424    0.0000 H   0  0  0  0  0  0  0  0  0  0  0  0
    5.0874    2.5332    0.0000 H   0  0  0  0  0  0  0  0  0  0  0  0
    6.8618   -0.4688    0.0000 H   0  0  0  0  0  0  0  0  0  0  0  0
    7.6589   -0.4719    0.0000 H   0  0  0  0  0  0  0  0  0  0  0  0
    8.5305    0.9747    0.0000 H   0  0  0  0  0  0  0  0  0  0  0  0
    7.7334    0.9777    0.0000 H   0  0  0  0  0  0  0  0  0  0  0  0
    8.5939   -0.4755    0.0000 H   0  0  0  0  0  0  0  0  0  0  0  0
    9.3909   -0.4786    0.0000 H   0  0  0  0  0  0  0  0  0  0  0  0
    3.7320   -0.5912    0.0000 H   0  0  0  0  0  0  0  0  0  0  0  0
    3.7320    2.6488    0.0000 H   0  0  0  0  0  0  0  0  0  0  0  0
   10.2625    0.9680    0.0000 H   0  0  0  0  0  0  0  0  0  0  0  0
    9.4655    0.9711    0.0000 H   0  0  0  0  0  0  0  0  0  0  0  0
   10.7239   -0.6287    0.0000 H   0  0  0  0  0  0  0  0  0  0  0  0
    2.0000   -0.5912    0.0000 H   0  0  0  0  0  0  0  0  0  0  0  0
    2.6200    3.0288    0.0000 H   0  0  0  0  0  0  0  0  0  0  0  0
    2.0000    3.6488    0.0000 H   0  0  0  0  0  0  0  0  0  0  0  0
    1.3800    3.0288    0.0000 H   0  0  0  0  0  0  0  0  0  0  0  0
   13.3286    1.1012    0.0000 H   0  0  0  0  0  0  0  0  0  0  0  0
   11.9163   -1.3234    0.0000 H   0  0  0  0  0  0  0  0  0  0  0  0
   14.7285    0.2858    0.0000 H   0  0  0  0  0  0  0  0  0  0  0  0
   13.3161   -2.1388    0.0000 H   0  0  0  0  0  0  0  0  0  0  0  0
   15.9209   -0.4088    0.0000 H   0  0  0  0  0  0  0  0  0  0  0  0
   14.5086   -2.8333    0.0000 H   0  0  0  0  0  0  0  0  0  0  0  0
   17.3207   -1.2242    0.0000 H   0  0  0  0  0  0  0  0  0  0  0  0
   15.9084   -3.6488    0.0000 H   0  0  0  0  0  0  0  0  0  0  0  0
   17.3145   -2.8442    0.0000 H   0  0  0  0  0  0  0  0  0  0  0  0
  1 17  1  0  0  0  0
  1 21  1  0  0  0  0
  2 18  1  0  0  0  0
  2 50  1  0  0  0  0
  3 19  2  0  0  0  0
  4  6  1  0  0  0  0
  4  7  1  0  0  0  0
  4  9  1  0  0  0  0
  5 16  1  0  0  0  0
  5 19  1  0  0  0  0
  5 49  1  0  0  0  0
  6  8  1  0  0  0  0
  6 33  1  0  0  0  0
  6 34  1  0  0  0  0
  7 10  1  0  0  0  0
  7 35  1  0  0  0  0
  7 36  1  0  0  0  0
  8 11  1  0  0  0  0
  8 37  1  0  0  0  0
  8 38  1  0  0  0  0
  9 12  1  0  0  0  0
  9 39  1  0  0  0  0
  9 40  1  0  0  0  0
 10 11  1  0  0  0  0
 10 14  2  0  0  0  0
 11 15  2  0  0  0  0
 12 13  1  0  0  0  0
 12 41  1  0  0  0  0
 12 42  1  0  0  0  0
 13 16  1  0  0  0  0
 13 43  1  0  0  0  0
 13 44  1  0  0  0  0
 14 18  1  0  0  0  0
 14 45  1  0  0  0  0
 15 17  1  0  0  0  0
 15 46  1  0  0  0  0
 16 47  1  0  0  0  0
 16 48  1  0  0  0  0
 17 18  2  0  0  0  0
 19 20  1  0  0  0  0
 20 22  2  0  0  0  0
 20 23  1  0  0  0  0
 21 51  1  0  0  0  0
 21 52  1  0  0  0  0
 21 53  1  0  0  0  0
 22 25  1  0  0  0  0
 22 54  1  0  0  0  0
 23 26  2  0  0  0  0
 23 55  1  0  0  0  0
 24 25  2  0  0  0  0
 24 26  1  0  0  0  0
 24 27  1  0  0  0  0
 25 56  1  0  0  0  0
 26 57  1  0  0  0  0
 27 28  2  0  0  0  0
 27 29  1  0  0  0  0
 28 30  1  0  0  0  0
 28 58  1  0  0  0  0
 29 31  2  0  0  0  0
 29 59  1  0  0  0  0
 30 32  2  0  0  0  0
 30 60  1  0  0  0  0
 31 32  1  0  0  0  0
 31 61  1  0  0  0  0
 32 62  1  0  0  0  0
M  END
> <PUBCHEM_COMPOUND_CID>
145993377

> <PUBCHEM_COMPOUND_CANONICALIZED>
1

> <PUBCHEM_CACTVS_COMPLEXITY>
571

> <PUBCHEM_CACTVS_HBOND_ACCEPTOR>
4

> <PUBCHEM_CACTVS_HBOND_DONOR>
2

> <PUBCHEM_CACTVS_ROTATABLE_BOND>
8

> <PUBCHEM_CACTVS_SUBSKEYS>
AAADceB7MAAAAAAAAAAAAAAAAAAAAAAAAAA8YMEAAAAAAACxUAAAHgAQCAAADATBmAYyBoPABgCIAiFSEACCCAAkIAAIiIEOjMgNJjKGtRuEcStk1hGLuYe42PKO4AABAAAQQADAAAIAACCAAAAAAAAAAA==

> <PUBCHEM_IUPAC_OPENEYE_NAME>
N-[4-(7-hydroxy-6-methoxy-3,4-dihydro-1H-isoquinolin-2-yl)butyl]-4-phenyl-benzamide

> <PUBCHEM_IUPAC_CAS_NAME>
N-[4-(7-hydroxy-6-methoxy-3,4-dihydro-1H-isoquinolin-2-yl)butyl]-4-phenylbenzamide

> <PUBCHEM_IUPAC_NAME_MARKUP>
<I>N</I>-[4-(7-hydroxy-6-methoxy-3,4-dihydro-1<I>H</I>-isoquinolin-2-yl)butyl]-4-phenylbenzamide

> <PUBCHEM_IUPAC_NAME>
N-[4-(7-hydroxy-6-methoxy-3,4-dihydro-1H-isoquinolin-2-yl)butyl]-4-phenylbenzamide

> <PUBCHEM_IUPAC_SYSTEMATIC_NAME>
N-[4-(6-methoxy-7-oxidanyl-3,4-dihydro-1H-isoquinolin-2-yl)butyl]-4-phenyl-benzamide

> <PUBCHEM_IUPAC_TRADITIONAL_NAME>
N-[4-(7-hydroxy-6-methoxy-3,4-dihydro-1H-isoquinolin-2-yl)butyl]-4-phenyl-benzamide

> <PUBCHEM_IUPAC_INCHI>
InChI=1S/C27H30N2O3/c1-32-26-18-23-13-16-29(19-24(23)17-25(26)30)15-6-5-14-28-27(31)22-11-9-21(10-12-22)20-7-3-2-4-8-20/h2-4,7-12,17-18,30H,5-6,13-16,19H2,1H3,(H,28,31)

> <PUBCHEM_IUPAC_INCHIKEY>
WLGXAVSOEWKYQS-UHFFFAOYSA-N

> <PUBCHEM_XLOGP3_AA>
4.7

> <PUBCHEM_EXACT_MASS>
430.22564282

> <PUBCHEM_MOLECULAR_FORMULA>
C27H30N2O3

> <PUBCHEM_MOLECULAR_WEIGHT>
430.5

> <PUBCHEM_OPENEYE_CAN_SMILES>
COC1=C(C=C2CN(CCC2=C1)CCCCNC(=O)C3=CC=C(C=C3)C4=CC=CC=C4)O

> <PUBCHEM_OPENEYE_ISO_SMILES>
COC1=C(C=C2CN(CCC2=C1)CCCCNC(=O)C3=CC=C(C=C3)C4=CC=CC=C4)O

> <PUBCHEM_CACTVS_TPSA>
61.8

> <PUBCHEM_MONOISOTOPIC_WEIGHT>
430.22564282

> <PUBCHEM_TOTAL_CHARGE>
0

> <PUBCHEM_HEAVY_ATOM_COUNT>
32

> <PUBCHEM_ATOM_DEF_STEREO_COUNT>
0

> <PUBCHEM_ATOM_UDEF_STEREO_COUNT>
0

> <PUBCHEM_BOND_DEF_STEREO_COUNT>
0

> <PUBCHEM_BOND_UDEF_STEREO_COUNT>
0

> <PUBCHEM_ISOTOPIC_ATOM_COUNT>
0

> <PUBCHEM_COMPONENT_COUNT>
1

> <PUBCHEM_CACTVS_TAUTO_COUNT>
-1

> <PUBCHEM_COORDINATE_TYPE>
1
5
255

> <PUBCHEM_BONDANNOTATIONS>
10  11  8
10  14  8
11  15  8
14  18  8
15  17  8
17  18  8
20  22  8
20  23  8
22  25  8
23  26  8
24  25  8
24  26  8
27  28  8
27  29  8
28  30  8
29  31  8
30  32  8
31  32  8

$$$$
