44370139
  -OEChem-09292322192D

 60 63  0     1  0  0  0  0  0999 V2000
    5.4804   -1.3017    0.0000 O   0  0  0  0  0  0  0  0  0  0  0  0
    2.0000    1.7329    0.0000 O   0  0  0  0  0  0  0  0  0  0  0  0
    2.0000   -0.2671    0.0000 O   0  0  0  0  0  0  0  0  0  0  0  0
    9.8737   -1.7329    0.0000 O   0  0  0  0  0  0  0  0  0  0  0  0
    8.1301    1.2604    0.0000 N   0  0  0  0  0  0  0  0  0  0  0  0
    9.8660    0.2671    0.0000 N   0  0  0  0  0  0  0  0  0  0  0  0
    6.3981    1.2537    0.0000 C   0  0  3  0  0  0  0  0  0  0  0  0
    7.2622    1.7570    0.0000 C   0  0  0  0  0  0  0  0  0  0  0  0
    5.4920    1.7676    0.0000 C   0  0  0  0  0  0  0  0  0  0  0  0
    6.3981    0.2121    0.0000 C   0  0  0  0  0  0  0  0  0  0  0  0
    8.1340    0.2604    0.0000 C   0  0  0  0  0  0  0  0  0  0  0  0
    8.9942    1.7637    0.0000 C   0  0  0  0  0  0  0  0  0  0  0  0
    9.0019   -0.2363    0.0000 C   0  0  0  0  0  0  0  0  0  0  0  0
    9.8622    1.2671    0.0000 C   0  0  0  0  0  0  0  0  0  0  0  0
    4.5981    1.2329    0.0000 C   0  0  0  0  0  0  0  0  0  0  0  0
    5.4920   -0.3018    0.0000 C   0  0  0  0  0  0  0  0  0  0  0  0
    4.5981    0.2329    0.0000 C   0  0  0  0  0  0  0  0  0  0  0  0
   10.7340   -0.2296    0.0000 C   0  0  0  0  0  0  0  0  0  0  0  0
    3.7320    1.7329    0.0000 C   0  0  0  0  0  0  0  0  0  0  0  0
    3.7320   -0.2671    0.0000 C   0  0  0  0  0  0  0  0  0  0  0  0
    2.8660    1.2329    0.0000 C   0  0  0  0  0  0  0  0  0  0  0  0
    2.8660    0.2329    0.0000 C   0  0  0  0  0  0  0  0  0  0  0  0
   10.7378   -1.2296    0.0000 C   0  0  0  0  0  0  0  0  0  0  0  0
   11.5981    0.2738    0.0000 C   0  0  0  0  0  0  0  0  0  0  0  0
   11.6058   -1.7262    0.0000 C   0  0  0  0  0  0  0  0  0  0  0  0
   12.4660   -0.2229    0.0000 C   0  0  0  0  0  0  0  0  0  0  0  0
   12.4699   -1.2229    0.0000 C   0  0  0  0  0  0  0  0  0  0  0  0
    2.0000    2.7329    0.0000 C   0  0  0  0  0  0  0  0  0  0  0  0
    2.0000   -1.2671    0.0000 C   0  0  0  0  0  0  0  0  0  0  0  0
    9.8776   -2.7329    0.0000 C   0  0  0  0  0  0  0  0  0  0  0  0
    6.9356    0.9448    0.0000 H   0  0  0  0  0  0  0  0  0  0  0  0
    7.6589    2.2335    0.0000 H   0  0  0  0  0  0  0  0  0  0  0  0
    6.8618    2.2305    0.0000 H   0  0  0  0  0  0  0  0  0  0  0  0
    5.8856    2.2466    0.0000 H   0  0  0  0  0  0  0  0  0  0  0  0
    5.0874    2.2374    0.0000 H   0  0  0  0  0  0  0  0  0  0  0  0
    6.6071   -0.3716    0.0000 H   0  0  0  0  0  0  0  0  0  0  0  0
    7.0089    0.3182    0.0000 H   0  0  0  0  0  0  0  0  0  0  0  0
    7.5230    0.3657    0.0000 H   0  0  0  0  0  0  0  0  0  0  0  0
    7.9242   -0.3230    0.0000 H   0  0  0  0  0  0  0  0  0  0  0  0
    9.3909    2.2402    0.0000 H   0  0  0  0  0  0  0  0  0  0  0  0
    8.5939    2.2371    0.0000 H   0  0  0  0  0  0  0  0  0  0  0  0
    8.6052   -0.7127    0.0000 H   0  0  0  0  0  0  0  0  0  0  0  0
    9.4023   -0.7097    0.0000 H   0  0  0  0  0  0  0  0  0  0  0  0
   10.4732    1.1618    0.0000 H   0  0  0  0  0  0  0  0  0  0  0  0
   10.0720    1.8505    0.0000 H   0  0  0  0  0  0  0  0  0  0  0  0
    3.7320    2.3529    0.0000 H   0  0  0  0  0  0  0  0  0  0  0  0
    3.7320   -0.8871    0.0000 H   0  0  0  0  0  0  0  0  0  0  0  0
   11.5957    0.8937    0.0000 H   0  0  0  0  0  0  0  0  0  0  0  0
   11.6082   -2.3462    0.0000 H   0  0  0  0  0  0  0  0  0  0  0  0
   13.0017    0.0892    0.0000 H   0  0  0  0  0  0  0  0  0  0  0  0
   13.0080   -1.5308    0.0000 H   0  0  0  0  0  0  0  0  0  0  0  0
    2.6200    2.7329    0.0000 H   0  0  0  0  0  0  0  0  0  0  0  0
    2.0000    3.3529    0.0000 H   0  0  0  0  0  0  0  0  0  0  0  0
    1.3800    2.7329    0.0000 H   0  0  0  0  0  0  0  0  0  0  0  0
    1.3800   -1.2671    0.0000 H   0  0  0  0  0  0  0  0  0  0  0  0
    2.0000   -1.8871    0.0000 H   0  0  0  0  0  0  0  0  0  0  0  0
    2.6200   -1.2671    0.0000 H   0  0  0  0  0  0  0  0  0  0  0  0
    9.2576   -2.7353    0.0000 H   0  0  0  0  0  0  0  0  0  0  0  0
    9.8800   -3.3529    0.0000 H   0  0  0  0  0  0  0  0  0  0  0  0
   10.4976   -2.7305    0.0000 H   0  0  0  0  0  0  0  0  0  0  0  0
  1 16  2  0  0  0  0
  2 21  1  0  0  0  0
  2 28  1  0  0  0  0
  3 22  1  0  0  0  0
  3 29  1  0  0  0  0
  4 23  1  0  0  0  0
  4 30  1  0  0  0  0
  5  8  1  0  0  0  0
  5 11  1  0  0  0  0
  5 12  1  0  0  0  0
  6 13  1  0  0  0  0
  6 14  1  0  0  0  0
  6 18  1  0  0  0  0
  7  8  1  0  0  0  0
  7  9  1  0  0  0  0
  7 10  1  0  0  0  0
  7 31  1  0  0  0  0
  8 32  1  0  0  0  0
  8 33  1  0  0  0  0
  9 15  1  0  0  0  0
  9 34  1  0  0  0  0
  9 35  1  0  0  0  0
 10 16  1  0  0  0  0
 10 36  1  0  0  0  0
 10 37  1  0  0  0  0
 11 13  1  0  0  0  0
 11 38  1  0  0  0  0
 11 39  1  0  0  0  0
 12 14  1  0  0  0  0
 12 40  1  0  0  0  0
 12 41  1  0  0  0  0
 13 42  1  0  0  0  0
 13 43  1  0  0  0  0
 14 44  1  0  0  0  0
 14 45  1  0  0  0  0
 15 17  1  0  0  0  0
 15 19  2  0  0  0  0
 16 17  1  0  0  0  0
 17 20  2  0  0  0  0
 18 23  1  0  0  0  0
 18 24  2  0  0  0  0
 19 21  1  0  0  0  0
 19 46  1  0  0  0  0
 20 22  1  0  0  0  0
 20 47  1  0  0  0  0
 21 22  2  0  0  0  0
 23 25  2  0  0  0  0
 24 26  1  0  0  0  0
 24 48  1  0  0  0  0
 25 27  1  0  0  0  0
 25 49  1  0  0  0  0
 26 27  2  0  0  0  0
 26 50  1  0  0  0  0
 27 51  1  0  0  0  0
 28 52  1  0  0  0  0
 28 53  1  0  0  0  0
 28 54  1  0  0  0  0
 29 55  1  0  0  0  0
 29 56  1  0  0  0  0
 29 57  1  0  0  0  0
 30 58  1  0  0  0  0
 30 59  1  0  0  0  0
 30 60  1  0  0  0  0
M  END
> <PUBCHEM_COMPOUND_CID>
44370139

> <PUBCHEM_COMPOUND_CANONICALIZED>
1

> <PUBCHEM_CACTVS_COMPLEXITY>
565

> <PUBCHEM_CACTVS_HBOND_ACCEPTOR>
6

> <PUBCHEM_CACTVS_HBOND_DONOR>
0

> <PUBCHEM_CACTVS_ROTATABLE_BOND>
6

> <PUBCHEM_CACTVS_SUBSKEYS>
AAADceB7OAAAAAAAAAAAAAAAAAAAAAAAAAA8YMEAAAAAAADBQAAAHgAAAAAADQzBmAYyxoMABACIAqRSQACCCAAlIgAIiAEP7MgPZjLEtZuVMSpkwBHa6YeezPDOoAABAAAQUADAAAYAACCgAAAAAAAAAA==

> <PUBCHEM_IUPAC_OPENEYE_NAME>
6,7-dimethoxy-3-[[4-(2-methoxyphenyl)piperazin-1-yl]methyl]tetralin-1-one

> <PUBCHEM_IUPAC_CAS_NAME>
6,7-dimethoxy-3-[[4-(2-methoxyphenyl)-1-piperazinyl]methyl]-3,4-dihydro-2H-naphthalen-1-one

> <PUBCHEM_IUPAC_NAME_MARKUP>
6,7-dimethoxy-3-[[4-(2-methoxyphenyl)piperazin-1-yl]methyl]-3,4-dihydro-2<I>H</I>-naphthalen-1-one

> <PUBCHEM_IUPAC_NAME>
6,7-dimethoxy-3-[[4-(2-methoxyphenyl)piperazin-1-yl]methyl]-3,4-dihydro-2H-naphthalen-1-one

> <PUBCHEM_IUPAC_SYSTEMATIC_NAME>
6,7-dimethoxy-3-[[4-(2-methoxyphenyl)piperazin-1-yl]methyl]-3,4-dihydro-2H-naphthalen-1-one

> <PUBCHEM_IUPAC_TRADITIONAL_NAME>
6,7-dimethoxy-3-[[4-(2-methoxyphenyl)piperazino]methyl]tetralin-1-one

> <PUBCHEM_IUPAC_INCHI>
InChI=1S/C24H30N2O4/c1-28-22-7-5-4-6-20(22)26-10-8-25(9-11-26)16-17-12-18-14-23(29-2)24(30-3)15-19(18)21(27)13-17/h4-7,14-15,17H,8-13,16H2,1-3H3

> <PUBCHEM_IUPAC_INCHIKEY>
HOKRGWVLSKYIGL-UHFFFAOYSA-N

> <PUBCHEM_XLOGP3_AA>
3.5

> <PUBCHEM_EXACT_MASS>
410.22055744

> <PUBCHEM_MOLECULAR_FORMULA>
C24H30N2O4

> <PUBCHEM_MOLECULAR_WEIGHT>
410.5

> <PUBCHEM_OPENEYE_CAN_SMILES>
COC1=CC=CC=C1N2CCN(CC2)CC3CC4=CC(=C(C=C4C(=O)C3)OC)OC

> <PUBCHEM_OPENEYE_ISO_SMILES>
COC1=CC=CC=C1N2CCN(CC2)CC3CC4=CC(=C(C=C4C(=O)C3)OC)OC

> <PUBCHEM_CACTVS_TPSA>
51.2

> <PUBCHEM_MONOISOTOPIC_WEIGHT>
410.22055744

> <PUBCHEM_TOTAL_CHARGE>
0

> <PUBCHEM_HEAVY_ATOM_COUNT>
30

> <PUBCHEM_ATOM_DEF_STEREO_COUNT>
0

> <PUBCHEM_ATOM_UDEF_STEREO_COUNT>
1

> <PUBCHEM_BOND_DEF_STEREO_COUNT>
0

> <PUBCHEM_BOND_UDEF_STEREO_COUNT>
0

> <PUBCHEM_ISOTOPIC_ATOM_COUNT>
0

> <PUBCHEM_COMPONENT_COUNT>
1

> <PUBCHEM_CACTVS_TAUTO_COUNT>
-1

> <PUBCHEM_COORDINATE_TYPE>
1
5
255

> <PUBCHEM_BONDANNOTATIONS>
15  17  8
15  19  8
17  20  8
18  23  8
18  24  8
19  21  8
20  22  8
21  22  8
23  25  8
24  26  8
25  27  8
26  27  8
7  8  3

$$$$
