137633454
  -OEChem-09292322002D

 94 98  0     1  0  0  0  0  0999 V2000
    3.1444  -10.7410    0.0000 O   0  0  0  0  0  0  0  0  0  0  0  0
    6.6745   -9.7651    0.0000 O   0  0  0  0  0  0  0  0  0  0  0  0
    2.2589    0.5565    0.0000 O   0  0  0  0  0  0  0  0  0  0  0  0
    4.9916    4.2352    0.0000 O   0  0  0  0  0  0  0  0  0  0  0  0
    2.9972    4.0857    0.0000 O   0  0  0  0  0  0  0  0  0  0  0  0
    3.6444   -4.5504    0.0000 N   0  0  3  0  0  0  0  0  0  0  0  0
    3.1444   -6.7410    0.0000 N   0  0  3  0  0  0  0  0  0  0  0  0
    4.9044   -9.7757    0.0000 N   0  0  0  0  0  0  0  0  0  0  0  0
    3.8194   -0.1950    0.0000 N   0  0  0  0  0  0  0  0  0  0  0  0
    8.0710    7.7899    0.0000 N   0  0  0  0  0  0  0  0  0  0  0  0
    8.8377    6.3651    0.0000 N   0  0  0  0  0  0  0  0  0  0  0  0
    8.9720    7.3560    0.0000 N   0  0  0  0  0  0  0  0  0  0  0  0
    2.6444   -4.5504    0.0000 C   0  0  0  0  0  0  0  0  0  0  0  0
    4.2679   -5.3322    0.0000 C   0  0  0  0  0  0  0  0  0  0  0  0
    2.0209   -5.3322    0.0000 C   0  0  0  0  0  0  0  0  0  0  0  0
    4.0454   -6.3071    0.0000 C   0  0  0  0  0  0  0  0  0  0  0  0
    2.2434   -6.3071    0.0000 C   0  0  0  0  0  0  0  0  0  0  0  0
    4.0783   -3.6494    0.0000 C   0  0  0  0  0  0  0  0  0  0  0  0
    3.5150   -2.8231    0.0000 C   0  0  0  0  0  0  0  0  0  0  0  0
    3.1444   -7.7410    0.0000 C   0  0  0  0  0  0  0  0  0  0  0  0
    3.9488   -1.9222    0.0000 C   0  0  0  0  0  0  0  0  0  0  0  0
    4.0104   -8.2410    0.0000 C   0  0  0  0  0  0  0  0  0  0  0  0
    2.2784   -8.2410    0.0000 C   0  0  0  0  0  0  0  0  0  0  0  0
    3.3855   -1.0959    0.0000 C   0  0  0  0  0  0  0  0  0  0  0  0
    4.0104   -9.2410    0.0000 C   0  0  0  0  0  0  0  0  0  0  0  0
    2.2784   -9.2410    0.0000 C   0  0  0  0  0  0  0  0  0  0  0  0
    4.9044   -7.7063    0.0000 C   0  0  0  0  0  0  0  0  0  0  0  0
    3.1444   -9.7410    0.0000 C   0  0  0  0  0  0  0  0  0  0  0  0
    5.8104   -8.2202    0.0000 C   0  0  0  0  0  0  0  0  0  0  0  0
    5.8104   -9.2618    0.0000 C   0  0  0  0  0  0  0  0  0  0  0  0
    3.2561    0.6313    0.0000 C   0  0  0  0  0  0  0  0  0  0  0  0
    3.6900    1.5322    0.0000 C   0  0  0  0  0  0  0  0  0  0  0  0
    3.1266    2.3585    0.0000 C   0  0  0  0  0  0  0  0  0  0  0  0
    4.6872    1.6070    0.0000 C   0  0  0  0  0  0  0  0  0  0  0  0
    7.4199    5.2856    0.0000 C   0  0  0  0  0  0  0  0  0  0  0  0
    6.4227    5.2108    0.0000 C   0  0  0  0  0  0  0  0  0  0  0  0
    7.8924    8.7739    0.0000 C   0  0  0  0  0  0  0  0  0  0  0  0
    8.6552    9.4205    0.0000 C   0  0  0  0  0  0  0  0  0  0  0  0
    3.5605    3.2594    0.0000 C   0  0  0  0  0  0  0  0  0  0  0  0
    4.5577    3.3342    0.0000 C   0  0  0  0  0  0  0  0  0  0  0  0
    5.9888    4.3099    0.0000 C   0  0  0  0  0  0  0  0  0  0  0  0
    7.8538    6.1866    0.0000 C   0  0  0  0  0  0  0  0  0  0  0  0
    5.1210    2.5079    0.0000 C   0  0  0  0  0  0  0  0  0  0  0  0
    8.4767   10.4044    0.0000 C   0  0  0  0  0  0  0  0  0  0  0  0
    7.3799    7.0671    0.0000 C   0  0  0  0  0  0  0  0  0  0  0  0
    9.2395   11.0510    0.0000 C   0  0  0  0  0  0  0  0  0  0  0  0
    2.0000    4.0110    0.0000 C   0  0  0  0  0  0  0  0  0  0  0  0
    2.7824   -3.9459    0.0000 H   0  0  0  0  0  0  0  0  0  0  0  0
    2.0858   -4.2813    0.0000 H   0  0  0  0  0  0  0  0  0  0  0  0
    4.8265   -5.6012    0.0000 H   0  0  0  0  0  0  0  0  0  0  0  0
    4.6544   -4.8474    0.0000 H   0  0  0  0  0  0  0  0  0  0  0  0
    1.6343   -4.8474    0.0000 H   0  0  0  0  0  0  0  0  0  0  0  0
    1.4623   -5.6012    0.0000 H   0  0  0  0  0  0  0  0  0  0  0  0
    4.1833   -6.9116    0.0000 H   0  0  0  0  0  0  0  0  0  0  0  0
    4.6654   -6.3071    0.0000 H   0  0  0  0  0  0  0  0  0  0  0  0
    1.6234   -6.3071    0.0000 H   0  0  0  0  0  0  0  0  0  0  0  0
    2.1054   -6.9116    0.0000 H   0  0  0  0  0  0  0  0  0  0  0  0
    4.5817   -4.0113    0.0000 H   0  0  0  0  0  0  0  0  0  0  0  0
    4.5221   -3.2165    0.0000 H   0  0  0  0  0  0  0  0  0  0  0  0
    3.0116   -2.4612    0.0000 H   0  0  0  0  0  0  0  0  0  0  0  0
    3.0711   -3.2560    0.0000 H   0  0  0  0  0  0  0  0  0  0  0  0
    4.4522   -2.2841    0.0000 H   0  0  0  0  0  0  0  0  0  0  0  0
    4.3927   -1.4893    0.0000 H   0  0  0  0  0  0  0  0  0  0  0  0
    1.7414   -7.9310    0.0000 H   0  0  0  0  0  0  0  0  0  0  0  0
    2.8821   -0.7340    0.0000 H   0  0  0  0  0  0  0  0  0  0  0  0
    2.9417   -1.5288    0.0000 H   0  0  0  0  0  0  0  0  0  0  0  0
    1.7414   -9.5510    0.0000 H   0  0  0  0  0  0  0  0  0  0  0  0
    4.8972   -7.0864    0.0000 H   0  0  0  0  0  0  0  0  0  0  0  0
    4.8972  -10.3956    0.0000 H   0  0  0  0  0  0  0  0  0  0  0  0
    4.4377   -0.1486    0.0000 H   0  0  0  0  0  0  0  0  0  0  0  0
    6.3462   -7.9081    0.0000 H   0  0  0  0  0  0  0  0  0  0  0  0
    2.6074  -11.0510    0.0000 H   0  0  0  0  0  0  0  0  0  0  0  0
    2.5084    2.3122    0.0000 H   0  0  0  0  0  0  0  0  0  0  0  0
    5.0364    1.0947    0.0000 H   0  0  0  0  0  0  0  0  0  0  0  0
    7.3582    4.6687    0.0000 H   0  0  0  0  0  0  0  0  0  0  0  0
    8.0167    5.1177    0.0000 H   0  0  0  0  0  0  0  0  0  0  0  0
    6.4844    5.8278    0.0000 H   0  0  0  0  0  0  0  0  0  0  0  0
    5.8259    5.3788    0.0000 H   0  0  0  0  0  0  0  0  0  0  0  0
    7.5798    9.3092    0.0000 H   0  0  0  0  0  0  0  0  0  0  0  0
    7.3109    8.5589    0.0000 H   0  0  0  0  0  0  0  0  0  0  0  0
    8.9679    8.8851    0.0000 H   0  0  0  0  0  0  0  0  0  0  0  0
    9.2368    9.6354    0.0000 H   0  0  0  0  0  0  0  0  0  0  0  0
    5.9271    3.6930    0.0000 H   0  0  0  0  0  0  0  0  0  0  0  0
    6.5856    4.1420    0.0000 H   0  0  0  0  0  0  0  0  0  0  0  0
    5.7393    2.5543    0.0000 H   0  0  0  0  0  0  0  0  0  0  0  0
    8.1640   10.9398    0.0000 H   0  0  0  0  0  0  0  0  0  0  0  0
    7.8952   10.1894    0.0000 H   0  0  0  0  0  0  0  0  0  0  0  0
    6.7655    7.1504    0.0000 H   0  0  0  0  0  0  0  0  0  0  0  0
    9.6404   10.5780    0.0000 H   0  0  0  0  0  0  0  0  0  0  0  0
    9.7125   11.4519    0.0000 H   0  0  0  0  0  0  0  0  0  0  0  0
    8.8386   11.5239    0.0000 H   0  0  0  0  0  0  0  0  0  0  0  0
    1.9537    4.6292    0.0000 H   0  0  0  0  0  0  0  0  0  0  0  0
    1.3817    3.9646    0.0000 H   0  0  0  0  0  0  0  0  0  0  0  0
    2.0463    3.3927    0.0000 H   0  0  0  0  0  0  0  0  0  0  0  0
  1 28  1  0  0  0  0
  1 72  1  0  0  0  0
  2 30  2  0  0  0  0
  3 31  2  0  0  0  0
  4 40  1  0  0  0  0
  4 41  1  0  0  0  0
  5 39  1  0  0  0  0
  5 47  1  0  0  0  0
  6 13  1  0  0  0  0
  6 14  1  0  0  0  0
  6 18  1  0  0  0  0
  7 16  1  0  0  0  0
  7 17  1  0  0  0  0
  7 20  1  0  0  0  0
  8 25  1  0  0  0  0
  8 30  1  0  0  0  0
  8 69  1  0  0  0  0
  9 24  1  0  0  0  0
  9 31  1  0  0  0  0
  9 70  1  0  0  0  0
 10 12  1  0  0  0  0
 10 37  1  0  0  0  0
 10 45  1  0  0  0  0
 11 12  2  0  0  0  0
 11 42  1  0  0  0  0
 13 15  1  0  0  0  0
 13 48  1  0  0  0  0
 13 49  1  0  0  0  0
 14 16  1  0  0  0  0
 14 50  1  0  0  0  0
 14 51  1  0  0  0  0
 15 17  1  0  0  0  0
 15 52  1  0  0  0  0
 15 53  1  0  0  0  0
 16 54  1  0  0  0  0
 16 55  1  0  0  0  0
 17 56  1  0  0  0  0
 17 57  1  0  0  0  0
 18 19  1  0  0  0  0
 18 58  1  0  0  0  0
 18 59  1  0  0  0  0
 19 21  1  0  0  0  0
 19 60  1  0  0  0  0
 19 61  1  0  0  0  0
 20 22  2  0  0  0  0
 20 23  1  0  0  0  0
 21 24  1  0  0  0  0
 21 62  1  0  0  0  0
 21 63  1  0  0  0  0
 22 25  1  0  0  0  0
 22 27  1  0  0  0  0
 23 26  2  0  0  0  0
 23 64  1  0  0  0  0
 24 65  1  0  0  0  0
 24 66  1  0  0  0  0
 25 28  2  0  0  0  0
 26 28  1  0  0  0  0
 26 67  1  0  0  0  0
 27 29  2  0  0  0  0
 27 68  1  0  0  0  0
 29 30  1  0  0  0  0
 29 71  1  0  0  0  0
 31 32  1  0  0  0  0
 32 33  2  0  0  0  0
 32 34  1  0  0  0  0
 33 39  1  0  0  0  0
 33 73  1  0  0  0  0
 34 43  2  0  0  0  0
 34 74  1  0  0  0  0
 35 36  1  0  0  0  0
 35 42  1  0  0  0  0
 35 75  1  0  0  0  0
 35 76  1  0  0  0  0
 36 41  1  0  0  0  0
 36 77  1  0  0  0  0
 36 78  1  0  0  0  0
 37 38  1  0  0  0  0
 37 79  1  0  0  0  0
 37 80  1  0  0  0  0
 38 44  1  0  0  0  0
 38 81  1  0  0  0  0
 38 82  1  0  0  0  0
 39 40  2  0  0  0  0
 40 43  1  0  0  0  0
 41 83  1  0  0  0  0
 41 84  1  0  0  0  0
 42 45  2  0  0  0  0
 43 85  1  0  0  0  0
 44 46  1  0  0  0  0
 44 86  1  0  0  0  0
 44 87  1  0  0  0  0
 45 88  1  0  0  0  0
 46 89  1  0  0  0  0
 46 90  1  0  0  0  0
 46 91  1  0  0  0  0
 47 92  1  0  0  0  0
 47 93  1  0  0  0  0
 47 94  1  0  0  0  0
M  END
> <PUBCHEM_COMPOUND_CID>
137633454

> <PUBCHEM_COMPOUND_CANONICALIZED>
1

> <PUBCHEM_CACTVS_COMPLEXITY>
1000

> <PUBCHEM_CACTVS_HBOND_ACCEPTOR>
9

> <PUBCHEM_CACTVS_HBOND_DONOR>
3

> <PUBCHEM_CACTVS_ROTATABLE_BOND>
16

> <PUBCHEM_CACTVS_SUBSKEYS>
AAADcfB/uAAAAAAAAAAAAAAAAAAAAWAAAAAwYIAABYAAAACB0AAAHgAYCAAADAzhngY+xpPIBgCqAzV3VACCDAQ1sgAY2IE//MgPZjLW9duWeSrk1hHa+Ye63BLOIEABAAQCUABAgAIACASgAAAAAAAAAA==

> <PUBCHEM_IUPAC_OPENEYE_NAME>
4-[3-(1-butyltriazol-4-yl)propoxy]-N-[4-[4-(8-hydroxy-2-oxo-1H-quinolin-5-yl)-1,4-diazepan-1-yl]butyl]-3-methoxy-benzamide

> <PUBCHEM_IUPAC_CAS_NAME>
4-[3-(1-butyl-4-triazolyl)propoxy]-N-[4-[4-(8-hydroxy-2-oxo-1H-quinolin-5-yl)-1,4-diazepan-1-yl]butyl]-3-methoxybenzamide

> <PUBCHEM_IUPAC_NAME_MARKUP>
4-[3-(1-butyltriazol-4-yl)propoxy]-<I>N</I>-[4-[4-(8-hydroxy-2-oxo-1<I>H</I>-quinolin-5-yl)-1,4-diazepan-1-yl]butyl]-3-methoxybenzamide

> <PUBCHEM_IUPAC_NAME>
4-[3-(1-butyltriazol-4-yl)propoxy]-N-[4-[4-(8-hydroxy-2-oxo-1H-quinolin-5-yl)-1,4-diazepan-1-yl]butyl]-3-methoxybenzamide

> <PUBCHEM_IUPAC_SYSTEMATIC_NAME>
4-[3-(1-butyl-1,2,3-triazol-4-yl)propoxy]-3-methoxy-N-[4-[4-(8-oxidanyl-2-oxidanylidene-1H-quinolin-5-yl)-1,4-diazepan-1-yl]butyl]benzamide

> <PUBCHEM_IUPAC_TRADITIONAL_NAME>
4-[3-(1-butyltriazol-4-yl)propoxy]-N-[4-[4-(8-hydroxy-2-keto-1H-quinolin-5-yl)-1,4-diazepan-1-yl]butyl]-3-methoxy-benzamide

> <PUBCHEM_IUPAC_INCHI>
InChI=1S/C35H47N7O5/c1-3-4-20-42-25-27(38-39-42)9-7-23-47-31-14-10-26(24-32(31)46-2)35(45)36-16-5-6-17-40-18-8-19-41(22-21-40)29-12-13-30(43)34-28(29)11-15-33(44)37-34/h10-15,24-25,43H,3-9,16-23H2,1-2H3,(H,36,45)(H,37,44)

> <PUBCHEM_IUPAC_INCHIKEY>
QUFMZNYDEPSZLF-UHFFFAOYSA-N

> <PUBCHEM_XLOGP3_AA>
4.2

> <PUBCHEM_EXACT_MASS>
645.36386763

> <PUBCHEM_MOLECULAR_FORMULA>
C35H47N7O5

> <PUBCHEM_MOLECULAR_WEIGHT>
645.8

> <PUBCHEM_OPENEYE_CAN_SMILES>
CCCCN1C=C(N=N1)CCCOC2=C(C=C(C=C2)C(=O)NCCCCN3CCCN(CC3)C4=C5C=CC(=O)NC5=C(C=C4)O)OC

> <PUBCHEM_OPENEYE_ISO_SMILES>
CCCCN1C=C(N=N1)CCCOC2=C(C=C(C=C2)C(=O)NCCCCN3CCCN(CC3)C4=C5C=CC(=O)NC5=C(C=C4)O)OC

> <PUBCHEM_CACTVS_TPSA>
134

> <PUBCHEM_MONOISOTOPIC_WEIGHT>
645.36386763

> <PUBCHEM_TOTAL_CHARGE>
0

> <PUBCHEM_HEAVY_ATOM_COUNT>
47

> <PUBCHEM_ATOM_DEF_STEREO_COUNT>
0

> <PUBCHEM_ATOM_UDEF_STEREO_COUNT>
0

> <PUBCHEM_BOND_DEF_STEREO_COUNT>
0

> <PUBCHEM_BOND_UDEF_STEREO_COUNT>
0

> <PUBCHEM_ISOTOPIC_ATOM_COUNT>
0

> <PUBCHEM_COMPONENT_COUNT>
1

> <PUBCHEM_CACTVS_TAUTO_COUNT>
-1

> <PUBCHEM_COORDINATE_TYPE>
1
5
255

> <PUBCHEM_BONDANNOTATIONS>
10  12  8
10  45  8
11  12  8
11  42  8
20  22  8
20  23  8
22  25  8
22  27  8
23  26  8
25  28  8
26  28  8
27  29  8
29  30  8
32  33  8
32  34  8
33  39  8
34  43  8
39  40  8
40  43  8
42  45  8
8  25  8
8  30  8

$$$$
