25256815
  -OEChem-09292322232D

 56 59  0     0  0  0  0  0  0999 V2000
   13.3263    0.4827    0.0000 Cl  0  0  0  0  0  0  0  0  0  0  0  0
    4.6660   -0.5173    0.0000 O   0  0  0  0  0  0  0  0  0  0  0  0
    9.8622    0.4827    0.0000 N   0  0  0  0  0  0  0  0  0  0  0  0
   11.5942   -0.5173    0.0000 N   0  0  0  0  0  0  0  0  0  0  0  0
    5.5321    0.9827    0.0000 N   0  0  0  0  0  0  0  0  0  0  0  0
    9.8622   -0.5173    0.0000 C   0  0  0  0  0  0  0  0  0  0  0  0
   10.7282    0.9827    0.0000 C   0  0  0  0  0  0  0  0  0  0  0  0
    8.9962    0.9827    0.0000 C   0  0  0  0  0  0  0  0  0  0  0  0
   10.7282   -1.0173    0.0000 C   0  0  0  0  0  0  0  0  0  0  0  0
   11.5942    0.4827    0.0000 C   0  0  0  0  0  0  0  0  0  0  0  0
    8.1301    0.4827    0.0000 C   0  0  0  0  0  0  0  0  0  0  0  0
    7.2641    0.9827    0.0000 C   0  0  0  0  0  0  0  0  0  0  0  0
    6.3981    0.4827    0.0000 C   0  0  0  0  0  0  0  0  0  0  0  0
    5.5321    1.9827    0.0000 C   0  0  0  0  0  0  0  0  0  0  0  0
   12.4603   -1.0173    0.0000 C   0  0  0  0  0  0  0  0  0  0  0  0
    4.6660    2.4827    0.0000 C   0  0  0  0  0  0  0  0  0  0  0  0
    4.6660    0.4827    0.0000 C   0  0  0  0  0  0  0  0  0  0  0  0
    3.8000    1.9827    0.0000 C   0  0  0  0  0  0  0  0  0  0  0  0
    3.8000    0.9827    0.0000 C   0  0  0  0  0  0  0  0  0  0  0  0
   13.3263   -0.5173    0.0000 C   0  0  0  0  0  0  0  0  0  0  0  0
   12.4603   -2.0173    0.0000 C   0  0  0  0  0  0  0  0  0  0  0  0
    2.9061    2.5173    0.0000 C   0  0  0  0  0  0  0  0  0  0  0  0
    2.9061    0.4480    0.0000 C   0  0  0  0  0  0  0  0  0  0  0  0
   14.1923   -1.0173    0.0000 C   0  0  0  0  0  0  0  0  0  0  0  0
   13.3263   -2.5173    0.0000 C   0  0  0  0  0  0  0  0  0  0  0  0
    2.0000    2.0035    0.0000 C   0  0  0  0  0  0  0  0  0  0  0  0
    2.0000    0.9619    0.0000 C   0  0  0  0  0  0  0  0  0  0  0  0
   14.1923   -2.0173    0.0000 C   0  0  0  0  0  0  0  0  0  0  0  0
    9.2516   -0.4097    0.0000 H   0  0  0  0  0  0  0  0  0  0  0  0
    9.6501   -1.0999    0.0000 H   0  0  0  0  0  0  0  0  0  0  0  0
   11.1267    1.4576    0.0000 H   0  0  0  0  0  0  0  0  0  0  0  0
   10.3297    1.4576    0.0000 H   0  0  0  0  0  0  0  0  0  0  0  0
    9.3947    1.4576    0.0000 H   0  0  0  0  0  0  0  0  0  0  0  0
    8.5976    1.4576    0.0000 H   0  0  0  0  0  0  0  0  0  0  0  0
   10.3297   -1.4923    0.0000 H   0  0  0  0  0  0  0  0  0  0  0  0
   11.1267   -1.4923    0.0000 H   0  0  0  0  0  0  0  0  0  0  0  0
   12.2048    0.3750    0.0000 H   0  0  0  0  0  0  0  0  0  0  0  0
   11.8063    1.0653    0.0000 H   0  0  0  0  0  0  0  0  0  0  0  0
    7.7316    0.0077    0.0000 H   0  0  0  0  0  0  0  0  0  0  0  0
    8.5287    0.0077    0.0000 H   0  0  0  0  0  0  0  0  0  0  0  0
    7.6626    1.4576    0.0000 H   0  0  0  0  0  0  0  0  0  0  0  0
    6.8656    1.4576    0.0000 H   0  0  0  0  0  0  0  0  0  0  0  0
    5.9996    0.0077    0.0000 H   0  0  0  0  0  0  0  0  0  0  0  0
    6.7966    0.0077    0.0000 H   0  0  0  0  0  0  0  0  0  0  0  0
    6.1426    1.8750    0.0000 H   0  0  0  0  0  0  0  0  0  0  0  0
    5.7441    2.5653    0.0000 H   0  0  0  0  0  0  0  0  0  0  0  0
    5.0646    2.9576    0.0000 H   0  0  0  0  0  0  0  0  0  0  0  0
    4.2675    2.9576    0.0000 H   0  0  0  0  0  0  0  0  0  0  0  0
   11.9233   -2.3273    0.0000 H   0  0  0  0  0  0  0  0  0  0  0  0
    2.9132    3.1373    0.0000 H   0  0  0  0  0  0  0  0  0  0  0  0
    2.9132   -0.1720    0.0000 H   0  0  0  0  0  0  0  0  0  0  0  0
   14.7292   -0.7073    0.0000 H   0  0  0  0  0  0  0  0  0  0  0  0
   13.3263   -3.1373    0.0000 H   0  0  0  0  0  0  0  0  0  0  0  0
    1.4643    2.3156    0.0000 H   0  0  0  0  0  0  0  0  0  0  0  0
    1.4643    0.6498    0.0000 H   0  0  0  0  0  0  0  0  0  0  0  0
   14.7292   -2.3273    0.0000 H   0  0  0  0  0  0  0  0  0  0  0  0
  1 20  1  0  0  0  0
  2 17  2  0  0  0  0
  3  6  1  0  0  0  0
  3  7  1  0  0  0  0
  3  8  1  0  0  0  0
  4  9  1  0  0  0  0
  4 10  1  0  0  0  0
  4 15  1  0  0  0  0
  5 13  1  0  0  0  0
  5 14  1  0  0  0  0
  5 17  1  0  0  0  0
  6  9  1  0  0  0  0
  6 29  1  0  0  0  0
  6 30  1  0  0  0  0
  7 10  1  0  0  0  0
  7 31  1  0  0  0  0
  7 32  1  0  0  0  0
  8 11  1  0  0  0  0
  8 33  1  0  0  0  0
  8 34  1  0  0  0  0
  9 35  1  0  0  0  0
  9 36  1  0  0  0  0
 10 37  1  0  0  0  0
 10 38  1  0  0  0  0
 11 12  1  0  0  0  0
 11 39  1  0  0  0  0
 11 40  1  0  0  0  0
 12 13  1  0  0  0  0
 12 41  1  0  0  0  0
 12 42  1  0  0  0  0
 13 43  1  0  0  0  0
 13 44  1  0  0  0  0
 14 16  1  0  0  0  0
 14 45  1  0  0  0  0
 14 46  1  0  0  0  0
 15 20  1  0  0  0  0
 15 21  2  0  0  0  0
 16 18  1  0  0  0  0
 16 47  1  0  0  0  0
 16 48  1  0  0  0  0
 17 19  1  0  0  0  0
 18 19  1  0  0  0  0
 18 22  2  0  0  0  0
 19 23  2  0  0  0  0
 20 24  2  0  0  0  0
 21 25  1  0  0  0  0
 21 49  1  0  0  0  0
 22 26  1  0  0  0  0
 22 50  1  0  0  0  0
 23 27  1  0  0  0  0
 23 51  1  0  0  0  0
 24 28  1  0  0  0  0
 24 52  1  0  0  0  0
 25 28  2  0  0  0  0
 25 53  1  0  0  0  0
 26 27  2  0  0  0  0
 26 54  1  0  0  0  0
 27 55  1  0  0  0  0
 28 56  1  0  0  0  0
M  END
> <PUBCHEM_COMPOUND_CID>
25256815

> <PUBCHEM_COMPOUND_CANONICALIZED>
1

> <PUBCHEM_CACTVS_COMPLEXITY>
508

> <PUBCHEM_CACTVS_HBOND_ACCEPTOR>
3

> <PUBCHEM_CACTVS_HBOND_DONOR>
0

> <PUBCHEM_CACTVS_ROTATABLE_BOND>
6

> <PUBCHEM_CACTVS_SUBSKEYS>
AAADceB7IAAEAAAAAAAAAAAAAAAAAAAAAAA8eIEAAAAAAACxQAAAHgIAAAAADArBmCQwwIMAAACIAiVSUACCAAAlBwAIiAEIZsgIYDLBl5HUIQhghgDIyYcYiYCOgAAAAAAQABAAAAAAACAAIAAAAAAAAA==

> <PUBCHEM_IUPAC_OPENEYE_NAME>
2-[4-[4-(2-chlorophenyl)piperazin-1-yl]butyl]-3,4-dihydroisoquinolin-1-one

> <PUBCHEM_IUPAC_CAS_NAME>
2-[4-[4-(2-chlorophenyl)-1-piperazinyl]butyl]-3,4-dihydroisoquinolin-1-one

> <PUBCHEM_IUPAC_NAME_MARKUP>
2-[4-[4-(2-chlorophenyl)piperazin-1-yl]butyl]-3,4-dihydroisoquinolin-1-one

> <PUBCHEM_IUPAC_NAME>
2-[4-[4-(2-chlorophenyl)piperazin-1-yl]butyl]-3,4-dihydroisoquinolin-1-one

> <PUBCHEM_IUPAC_SYSTEMATIC_NAME>
2-[4-[4-(2-chlorophenyl)piperazin-1-yl]butyl]-3,4-dihydroisoquinolin-1-one

> <PUBCHEM_IUPAC_TRADITIONAL_NAME>
2-[4-[4-(2-chlorophenyl)piperazino]butyl]-3,4-dihydroisocarbostyril

> <PUBCHEM_IUPAC_INCHI>
InChI=1S/C23H28ClN3O/c24-21-9-3-4-10-22(21)26-17-15-25(16-18-26)12-5-6-13-27-14-11-19-7-1-2-8-20(19)23(27)28/h1-4,7-10H,5-6,11-18H2

> <PUBCHEM_IUPAC_INCHIKEY>
ICXGSSKPPOBXQR-UHFFFAOYSA-N

> <PUBCHEM_XLOGP3_AA>
4.4

> <PUBCHEM_EXACT_MASS>
397.1920902

> <PUBCHEM_MOLECULAR_FORMULA>
C23H28ClN3O

> <PUBCHEM_MOLECULAR_WEIGHT>
397.9

> <PUBCHEM_OPENEYE_CAN_SMILES>
C1CN(C(=O)C2=CC=CC=C21)CCCCN3CCN(CC3)C4=CC=CC=C4Cl

> <PUBCHEM_OPENEYE_ISO_SMILES>
C1CN(C(=O)C2=CC=CC=C21)CCCCN3CCN(CC3)C4=CC=CC=C4Cl

> <PUBCHEM_CACTVS_TPSA>
26.8

> <PUBCHEM_MONOISOTOPIC_WEIGHT>
397.1920902

> <PUBCHEM_TOTAL_CHARGE>
0

> <PUBCHEM_HEAVY_ATOM_COUNT>
28

> <PUBCHEM_ATOM_DEF_STEREO_COUNT>
0

> <PUBCHEM_ATOM_UDEF_STEREO_COUNT>
0

> <PUBCHEM_BOND_DEF_STEREO_COUNT>
0

> <PUBCHEM_BOND_UDEF_STEREO_COUNT>
0

> <PUBCHEM_ISOTOPIC_ATOM_COUNT>
0

> <PUBCHEM_COMPONENT_COUNT>
1

> <PUBCHEM_CACTVS_TAUTO_COUNT>
-1

> <PUBCHEM_COORDINATE_TYPE>
1
5
255

> <PUBCHEM_BONDANNOTATIONS>
15  20  8
15  21  8
18  19  8
18  22  8
19  23  8
20  24  8
21  25  8
22  26  8
23  27  8
24  28  8
25  28  8
26  27  8

$$$$
