44405466
  -OEChem-09292322272D

 52 55  0     1  0  0  0  0  0999 V2000
    4.0645   -5.2171    0.0000 S   0  0  0  0  0  0  0  0  0  0  0  0
    2.3894   -0.1294    0.0000 O   0  0  0  0  0  0  0  0  0  0  0  0
    2.4067    5.2546    0.0000 O   0  0  0  0  0  0  0  0  0  0  0  0
    4.6215    2.4095    0.0000 N   0  0  3  0  0  0  0  0  0  0  0  0
    4.1215   -0.1294    0.0000 N   0  0  0  0  0  0  0  0  0  0  0  0
    4.1215    0.8706    0.0000 C   0  0  1  0  0  0  0  0  0  0  0  0
    3.3124    1.4584    0.0000 C   0  0  0  0  0  0  0  0  0  0  0  0
    4.9305    1.4584    0.0000 C   0  0  0  0  0  0  0  0  0  0  0  0
    3.6215    2.4095    0.0000 C   0  0  0  0  0  0  0  0  0  0  0  0
    5.2092    3.2185    0.0000 C   0  0  0  0  0  0  0  0  0  0  0  0
    4.8025    4.1320    0.0000 C   0  0  0  0  0  0  0  0  0  0  0  0
    3.2554   -0.6294    0.0000 C   0  0  0  0  0  0  0  0  0  0  0  0
    3.8080    4.2366    0.0000 C   0  0  0  0  0  0  0  0  0  0  0  0
    5.3903    4.9411    0.0000 C   0  0  0  0  0  0  0  0  0  0  0  0
    3.2554   -1.6294    0.0000 C   0  0  0  0  0  0  0  0  0  0  0  0
    3.4013    5.1501    0.0000 C   0  0  0  0  0  0  0  0  0  0  0  0
    4.9836    5.8546    0.0000 C   0  0  0  0  0  0  0  0  0  0  0  0
    4.1215   -2.1294    0.0000 C   0  0  0  0  0  0  0  0  0  0  0  0
    2.3894   -2.1294    0.0000 C   0  0  0  0  0  0  0  0  0  0  0  0
    3.9890    5.9591    0.0000 C   0  0  0  0  0  0  0  0  0  0  0  0
    4.1215   -3.1294    0.0000 C   0  0  0  0  0  0  0  0  0  0  0  0
    2.3894   -3.1294    0.0000 C   0  0  0  0  0  0  0  0  0  0  0  0
    3.2554   -3.6294    0.0000 C   0  0  0  0  0  0  0  0  0  0  0  0
    3.2554   -4.6293    0.0000 C   0  0  0  0  0  0  0  0  0  0  0  0
    2.0000    6.1682    0.0000 C   0  0  0  0  0  0  0  0  0  0  0  0
    2.4464   -5.2171    0.0000 C   0  0  0  0  0  0  0  0  0  0  0  0
    2.7554   -6.1682    0.0000 C   0  0  0  0  0  0  0  0  0  0  0  0
    3.7554   -6.1682    0.0000 C   0  0  0  0  0  0  0  0  0  0  0  0
    4.6739    0.5892    0.0000 H   0  0  0  0  0  0  0  0  0  0  0  0
    2.7460    1.7106    0.0000 H   0  0  0  0  0  0  0  0  0  0  0  0
    3.0024    0.9215    0.0000 H   0  0  0  0  0  0  0  0  0  0  0  0
    5.2405    0.9215    0.0000 H   0  0  0  0  0  0  0  0  0  0  0  0
    5.4969    1.7106    0.0000 H   0  0  0  0  0  0  0  0  0  0  0  0
    3.6863    3.0261    0.0000 H   0  0  0  0  0  0  0  0  0  0  0  0
    3.0150    2.5384    0.0000 H   0  0  0  0  0  0  0  0  0  0  0  0
    5.6399    2.7725    0.0000 H   0  0  0  0  0  0  0  0  0  0  0  0
    5.7233    3.5652    0.0000 H   0  0  0  0  0  0  0  0  0  0  0  0
    4.6584   -0.4394    0.0000 H   0  0  0  0  0  0  0  0  0  0  0  0
    3.4436    3.7350    0.0000 H   0  0  0  0  0  0  0  0  0  0  0  0
    6.0069    4.8763    0.0000 H   0  0  0  0  0  0  0  0  0  0  0  0
    5.3480    6.3562    0.0000 H   0  0  0  0  0  0  0  0  0  0  0  0
    4.6584   -1.8194    0.0000 H   0  0  0  0  0  0  0  0  0  0  0  0
    1.8525   -1.8194    0.0000 H   0  0  0  0  0  0  0  0  0  0  0  0
    3.7369    6.5255    0.0000 H   0  0  0  0  0  0  0  0  0  0  0  0
    4.6584   -3.4394    0.0000 H   0  0  0  0  0  0  0  0  0  0  0  0
    1.8525   -3.4394    0.0000 H   0  0  0  0  0  0  0  0  0  0  0  0
    2.5664    6.4204    0.0000 H   0  0  0  0  0  0  0  0  0  0  0  0
    1.7478    6.7346    0.0000 H   0  0  0  0  0  0  0  0  0  0  0  0
    1.4336    5.9160    0.0000 H   0  0  0  0  0  0  0  0  0  0  0  0
    1.8568   -5.0256    0.0000 H   0  0  0  0  0  0  0  0  0  0  0  0
    2.3910   -6.6698    0.0000 H   0  0  0  0  0  0  0  0  0  0  0  0
    4.1199   -6.6698    0.0000 H   0  0  0  0  0  0  0  0  0  0  0  0
  1 24  1  0  0  0  0
  1 28  1  0  0  0  0
  2 12  2  0  0  0  0
  3 16  1  0  0  0  0
  3 25  1  0  0  0  0
  4  8  1  0  0  0  0
  4  9  1  0  0  0  0
  4 10  1  0  0  0  0
  6  5  1  1  0  0  0
  5 12  1  0  0  0  0
  5 38  1  0  0  0  0
  6  7  1  0  0  0  0
  6  8  1  0  0  0  0
  6 29  1  0  0  0  0
  7  9  1  0  0  0  0
  7 30  1  0  0  0  0
  7 31  1  0  0  0  0
  8 32  1  0  0  0  0
  8 33  1  0  0  0  0
  9 34  1  0  0  0  0
  9 35  1  0  0  0  0
 10 11  1  0  0  0  0
 10 36  1  0  0  0  0
 10 37  1  0  0  0  0
 11 13  2  0  0  0  0
 11 14  1  0  0  0  0
 12 15  1  0  0  0  0
 13 16  1  0  0  0  0
 13 39  1  0  0  0  0
 14 17  2  0  0  0  0
 14 40  1  0  0  0  0
 15 18  2  0  0  0  0
 15 19  1  0  0  0  0
 16 20  2  0  0  0  0
 17 20  1  0  0  0  0
 17 41  1  0  0  0  0
 18 21  1  0  0  0  0
 18 42  1  0  0  0  0
 19 22  2  0  0  0  0
 19 43  1  0  0  0  0
 20 44  1  0  0  0  0
 21 23  2  0  0  0  0
 21 45  1  0  0  0  0
 22 23  1  0  0  0  0
 22 46  1  0  0  0  0
 23 24  1  0  0  0  0
 24 26  2  0  0  0  0
 25 47  1  0  0  0  0
 25 48  1  0  0  0  0
 25 49  1  0  0  0  0
 26 27  1  0  0  0  0
 26 50  1  0  0  0  0
 27 28  2  0  0  0  0
 27 51  1  0  0  0  0
 28 52  1  0  0  0  0
M  END
> <PUBCHEM_COMPOUND_CID>
44405466

> <PUBCHEM_COMPOUND_CANONICALIZED>
1

> <PUBCHEM_CACTVS_COMPLEXITY>
509

> <PUBCHEM_CACTVS_HBOND_ACCEPTOR>
4

> <PUBCHEM_CACTVS_HBOND_DONOR>
1

> <PUBCHEM_CACTVS_ROTATABLE_BOND>
6

> <PUBCHEM_CACTVS_SUBSKEYS>
AAADceB7MABAAAAAAAAAAAAAAAAAAWJAAAAwYAAAAAAAAAAB0AAAHgQQAAAADCzF2AayB4PABAiMAiFSEACDCIAkKBBIiJkODMgMZjKk9RuUMShk1hGoqYe4yNCOQAABAAAAAACAAAIAAAAAAAAAAAAAAA==

> <PUBCHEM_IUPAC_OPENEYE_NAME>
N-[(3S)-1-[(3-methoxyphenyl)methyl]pyrrolidin-3-yl]-4-(2-thienyl)benzamide

> <PUBCHEM_IUPAC_CAS_NAME>
N-[(3S)-1-[(3-methoxyphenyl)methyl]-3-pyrrolidinyl]-4-thiophen-2-ylbenzamide

> <PUBCHEM_IUPAC_NAME_MARKUP>
<I>N</I>-[(3<I>S</I>)-1-[(3-methoxyphenyl)methyl]pyrrolidin-3-yl]-4-thiophen-2-ylbenzamide

> <PUBCHEM_IUPAC_NAME>
N-[(3S)-1-[(3-methoxyphenyl)methyl]pyrrolidin-3-yl]-4-thiophen-2-ylbenzamide

> <PUBCHEM_IUPAC_SYSTEMATIC_NAME>
N-[(3S)-1-[(3-methoxyphenyl)methyl]pyrrolidin-3-yl]-4-thiophen-2-yl-benzamide

> <PUBCHEM_IUPAC_TRADITIONAL_NAME>
N-[(3S)-1-m-anisylpyrrolidin-3-yl]-4-(2-thienyl)benzamide

> <PUBCHEM_IUPAC_INCHI>
InChI=1S/C23H24N2O2S/c1-27-21-5-2-4-17(14-21)15-25-12-11-20(16-25)24-23(26)19-9-7-18(8-10-19)22-6-3-13-28-22/h2-10,13-14,20H,11-12,15-16H2,1H3,(H,24,26)/t20-/m0/s1

> <PUBCHEM_IUPAC_INCHIKEY>
CIYMLKKXWWZEQT-FQEVSTJZSA-N

> <PUBCHEM_XLOGP3_AA>
4.2

> <PUBCHEM_EXACT_MASS>
392.15584919

> <PUBCHEM_MOLECULAR_FORMULA>
C23H24N2O2S

> <PUBCHEM_MOLECULAR_WEIGHT>
392.5

> <PUBCHEM_OPENEYE_CAN_SMILES>
COC1=CC=CC(=C1)CN2CCC(C2)NC(=O)C3=CC=C(C=C3)C4=CC=CS4

> <PUBCHEM_OPENEYE_ISO_SMILES>
COC1=CC=CC(=C1)CN2CC[C@@H](C2)NC(=O)C3=CC=C(C=C3)C4=CC=CS4

> <PUBCHEM_CACTVS_TPSA>
69.8

> <PUBCHEM_MONOISOTOPIC_WEIGHT>
392.15584919

> <PUBCHEM_TOTAL_CHARGE>
0

> <PUBCHEM_HEAVY_ATOM_COUNT>
28

> <PUBCHEM_ATOM_DEF_STEREO_COUNT>
1

> <PUBCHEM_ATOM_UDEF_STEREO_COUNT>
0

> <PUBCHEM_BOND_DEF_STEREO_COUNT>
0

> <PUBCHEM_BOND_UDEF_STEREO_COUNT>
0

> <PUBCHEM_ISOTOPIC_ATOM_COUNT>
0

> <PUBCHEM_COMPONENT_COUNT>
1

> <PUBCHEM_CACTVS_TAUTO_COUNT>
-1

> <PUBCHEM_COORDINATE_TYPE>
1
5
255

> <PUBCHEM_BONDANNOTATIONS>
1  24  8
1  28  8
11  13  8
11  14  8
13  16  8
14  17  8
15  18  8
15  19  8
16  20  8
17  20  8
18  21  8
19  22  8
21  23  8
22  23  8
24  26  8
26  27  8
27  28  8
6  5  5

$$$$
