57383414
  -OEChem-09292321582D

 50 53  0     1  0  0  0  0  0999 V2000
   11.2059   -0.7397    0.0000 S   0  0  2  0  0  0  0  0  0  0  0  0
   12.1398    2.3520    0.0000 O   0  0  0  0  0  0  0  0  0  0  0  0
   11.2059   -1.7396    0.0000 O   0  0  0  0  0  0  0  0  0  0  0  0
    7.1497    1.5632    0.0000 O   0  0  0  0  0  0  0  0  0  0  0  0
   10.7059    1.4510    0.0000 N   0  0  0  0  0  0  0  0  0  0  0  0
    6.6328   -0.0900    0.0000 N   0  0  0  0  0  0  0  0  0  0  0  0
    2.0000   -3.1782    0.0000 N   0  0  0  0  0  0  0  0  0  0  0  0
   10.0824    0.6692    0.0000 C   0  0  0  0  0  0  0  0  0  0  0  0
   10.3049   -0.3058    0.0000 C   0  0  0  0  0  0  0  0  0  0  0  0
   12.3294    0.6691    0.0000 C   0  0  0  0  0  0  0  0  0  0  0  0
   10.2720    2.3520    0.0000 C   0  0  0  0  0  0  0  0  0  0  0  0
   12.1069   -0.3058    0.0000 C   0  0  0  0  0  0  0  0  0  0  0  0
   11.7059    1.4510    0.0000 C   0  0  0  0  0  0  0  0  0  0  0  0
    9.0919    0.9915    0.0000 C   0  0  0  0  0  0  0  0  0  0  0  0
    8.3229    0.2889    0.0000 C   0  0  0  0  0  0  0  0  0  0  0  0
    9.5524   -1.0259    0.0000 C   0  0  0  0  0  0  0  0  0  0  0  0
    8.5547   -0.7266    0.0000 C   0  0  0  0  0  0  0  0  0  0  0  0
   13.3199    0.9915    0.0000 C   0  0  0  0  0  0  0  0  0  0  0  0
   12.8594   -1.0260    0.0000 C   0  0  0  0  0  0  0  0  0  0  0  0
   10.8354    3.1782    0.0000 C   0  0  0  0  0  0  0  0  0  0  0  0
    7.3685    0.5874    0.0000 C   0  0  0  0  0  0  0  0  0  0  0  0
   14.0889    0.2889    0.0000 C   0  0  0  0  0  0  0  0  0  0  0  0
   13.8571   -0.7266    0.0000 C   0  0  0  0  0  0  0  0  0  0  0  0
    5.6784    0.2085    0.0000 C   0  0  0  0  0  0  0  0  0  0  0  0
    4.9427   -0.4689    0.0000 C   0  0  0  0  0  0  0  0  0  0  0  0
    3.9883   -0.1704    0.0000 C   0  0  0  0  0  0  0  0  0  0  0  0
    5.1614   -1.4446    0.0000 C   0  0  0  0  0  0  0  0  0  0  0  0
    3.2526   -0.8477    0.0000 C   0  0  0  0  0  0  0  0  0  0  0  0
    4.4258   -2.1220    0.0000 C   0  0  0  0  0  0  0  0  0  0  0  0
    3.4714   -1.8235    0.0000 C   0  0  0  0  0  0  0  0  0  0  0  0
    2.7357   -2.5009    0.0000 C   0  0  0  0  0  0  0  0  0  0  0  0
    9.8282    2.7849    0.0000 H   0  0  0  0  0  0  0  0  0  0  0  0
    9.7686    1.9900    0.0000 H   0  0  0  0  0  0  0  0  0  0  0  0
    8.9610    1.5975    0.0000 H   0  0  0  0  0  0  0  0  0  0  0  0
    9.6973   -1.6288    0.0000 H   0  0  0  0  0  0  0  0  0  0  0  0
    8.1018   -1.1500    0.0000 H   0  0  0  0  0  0  0  0  0  0  0  0
   13.4509    1.5975    0.0000 H   0  0  0  0  0  0  0  0  0  0  0  0
   12.7145   -1.6288    0.0000 H   0  0  0  0  0  0  0  0  0  0  0  0
   11.3476    2.8289    0.0000 H   0  0  0  0  0  0  0  0  0  0  0  0
   11.1846    3.6905    0.0000 H   0  0  0  0  0  0  0  0  0  0  0  0
   10.3231    3.5275    0.0000 H   0  0  0  0  0  0  0  0  0  0  0  0
   14.6806    0.4739    0.0000 H   0  0  0  0  0  0  0  0  0  0  0  0
   14.3100   -1.1501    0.0000 H   0  0  0  0  0  0  0  0  0  0  0  0
    6.7684   -0.6949    0.0000 H   0  0  0  0  0  0  0  0  0  0  0  0
    5.9634    0.7591    0.0000 H   0  0  0  0  0  0  0  0  0  0  0  0
    5.1856    0.5847    0.0000 H   0  0  0  0  0  0  0  0  0  0  0  0
    3.8526    0.4346    0.0000 H   0  0  0  0  0  0  0  0  0  0  0  0
    5.7532   -1.6297    0.0000 H   0  0  0  0  0  0  0  0  0  0  0  0
    2.6608   -0.6627    0.0000 H   0  0  0  0  0  0  0  0  0  0  0  0
    4.5614   -2.7270    0.0000 H   0  0  0  0  0  0  0  0  0  0  0  0
  1  3  2  0  0  0  0
  1  9  1  6  0  0  0
  1 12  1  0  0  0  0
  2 13  2  0  0  0  0
  4 21  2  0  0  0  0
  5  8  1  0  0  0  0
  5 11  1  0  0  0  0
  5 13  1  0  0  0  0
  6 21  1  0  0  0  0
  6 24  1  0  0  0  0
  6 44  1  0  0  0  0
  7 31  3  0  0  0  0
  8  9  2  0  0  0  0
  8 14  1  0  0  0  0
  9 16  1  0  0  0  0
 10 12  1  0  0  0  0
 10 13  1  0  0  0  0
 10 18  2  0  0  0  0
 11 20  1  0  0  0  0
 11 32  1  0  0  0  0
 11 33  1  0  0  0  0
 12 19  2  0  0  0  0
 14 15  2  0  0  0  0
 14 34  1  0  0  0  0
 15 17  1  0  0  0  0
 15 21  1  0  0  0  0
 16 17  2  0  0  0  0
 16 35  1  0  0  0  0
 17 36  1  0  0  0  0
 18 22  1  0  0  0  0
 18 37  1  0  0  0  0
 19 23  1  0  0  0  0
 19 38  1  0  0  0  0
 20 39  1  0  0  0  0
 20 40  1  0  0  0  0
 20 41  1  0  0  0  0
 22 23  2  0  0  0  0
 22 42  1  0  0  0  0
 23 43  1  0  0  0  0
 24 25  1  0  0  0  0
 24 45  1  0  0  0  0
 24 46  1  0  0  0  0
 25 26  2  0  0  0  0
 25 27  1  0  0  0  0
 26 28  1  0  0  0  0
 26 47  1  0  0  0  0
 27 29  2  0  0  0  0
 27 48  1  0  0  0  0
 28 30  2  0  0  0  0
 28 49  1  0  0  0  0
 29 30  1  0  0  0  0
 29 50  1  0  0  0  0
 30 31  1  0  0  0  0
M  END
> <PUBCHEM_COMPOUND_CID>
57383414

> <PUBCHEM_COMPOUND_CANONICALIZED>
1

> <PUBCHEM_CACTVS_COMPLEXITY>
754

> <PUBCHEM_CACTVS_HBOND_ACCEPTOR>
5

> <PUBCHEM_CACTVS_HBOND_DONOR>
1

> <PUBCHEM_CACTVS_ROTATABLE_BOND>
4

> <PUBCHEM_CACTVS_SUBSKEYS>
AAADceB7MABAAAAAAAAAAAAAAAAAAAAAAAAwYMAABYAAAAABUAAAHgQQAAAADAjB2AQywYPAAAqYBiVSUEDiAAAlChAIiJ0IZMgIoDLglZGEIQhghgDoyY8ciACOUAAAQAAEAQCgAACAAAgCAAAAAAAAAA==

> <PUBCHEM_IUPAC_OPENEYE_NAME>
(11S)-N-[(4-cyanophenyl)methyl]-5-ethyl-6,11-dioxo-benzo[b][1,4]benzothiazepine-3-carboxamide

> <PUBCHEM_IUPAC_CAS_NAME>
(11S)-N-[(4-cyanophenyl)methyl]-5-ethyl-6,11-dioxo-3-benzo[b][1,4]benzothiazepinecarboxamide

> <PUBCHEM_IUPAC_NAME_MARKUP>
(11<I>S</I>)-<I>N</I>-[(4-cyanophenyl)methyl]-5-ethyl-6,11-dioxobenzo[b][1,4]benzothiazepine-3-carboxamide

> <PUBCHEM_IUPAC_NAME>
(11S)-N-[(4-cyanophenyl)methyl]-5-ethyl-6,11-dioxobenzo[b][1,4]benzothiazepine-3-carboxamide

> <PUBCHEM_IUPAC_SYSTEMATIC_NAME>
(11S)-N-[(4-cyanophenyl)methyl]-5-ethyl-6,11-bis(oxidanylidene)benzo[b][1,4]benzothiazepine-3-carboxamide

> <PUBCHEM_IUPAC_TRADITIONAL_NAME>
(11S)-N-(4-cyanobenzyl)-5-ethyl-6,11-diketo-benzo[b][1,4]benzothiazepine-3-carboxamide

> <PUBCHEM_IUPAC_INCHI>
InChI=1S/C24H19N3O3S/c1-2-27-20-13-18(23(28)26-15-17-9-7-16(14-25)8-10-17)11-12-22(20)31(30)21-6-4-3-5-19(21)24(27)29/h3-13H,2,15H2,1H3,(H,26,28)/t31-/m0/s1

> <PUBCHEM_IUPAC_INCHIKEY>
VUTNNUCTOQWFCV-HKBQPEDESA-N

> <PUBCHEM_XLOGP3_AA>
2.7

> <PUBCHEM_EXACT_MASS>
429.11471265

> <PUBCHEM_MOLECULAR_FORMULA>
C24H19N3O3S

> <PUBCHEM_MOLECULAR_WEIGHT>
429.5

> <PUBCHEM_OPENEYE_CAN_SMILES>
CCN1C2=C(C=CC(=C2)C(=O)NCC3=CC=C(C=C3)C#N)S(=O)C4=CC=CC=C4C1=O

> <PUBCHEM_OPENEYE_ISO_SMILES>
CCN1C2=C(C=CC(=C2)C(=O)NCC3=CC=C(C=C3)C#N)[S@@](=O)C4=CC=CC=C4C1=O

> <PUBCHEM_CACTVS_TPSA>
110

> <PUBCHEM_MONOISOTOPIC_WEIGHT>
429.11471265

> <PUBCHEM_TOTAL_CHARGE>
0

> <PUBCHEM_HEAVY_ATOM_COUNT>
31

> <PUBCHEM_ATOM_DEF_STEREO_COUNT>
1

> <PUBCHEM_ATOM_UDEF_STEREO_COUNT>
0

> <PUBCHEM_BOND_DEF_STEREO_COUNT>
0

> <PUBCHEM_BOND_UDEF_STEREO_COUNT>
0

> <PUBCHEM_ISOTOPIC_ATOM_COUNT>
0

> <PUBCHEM_COMPONENT_COUNT>
1

> <PUBCHEM_CACTVS_TAUTO_COUNT>
-1

> <PUBCHEM_COORDINATE_TYPE>
1
5
255

> <PUBCHEM_BONDANNOTATIONS>
1  9  6
10  12  8
10  18  8
12  19  8
14  15  8
15  17  8
16  17  8
18  22  8
19  23  8
22  23  8
25  26  8
25  27  8
26  28  8
27  29  8
28  30  8
29  30  8
8  14  8
8  9  8
9  16  8

$$$$
