155556665
  -OEChem-09292322462D

 52 54  0     0  0  0  0  0  0999 V2000
    4.6701   -0.3978    0.0000 S   0  0  0  0  0  0  0  0  0  0  0  0
    6.4021    2.6022    0.0000 N   0  0  0  0  0  0  0  0  0  0  0  0
    3.8611   -1.9856    0.0000 N   0  0  0  0  0  0  0  0  0  0  0  0
    5.4791   -1.9856    0.0000 N   0  0  0  0  0  0  0  0  0  0  0  0
    5.1701   -2.9366    0.0000 N   0  0  0  0  0  0  0  0  0  0  0  0
    6.4021    4.6022    0.0000 C   0  0  0  0  0  0  0  0  0  0  0  0
    5.5361    4.1022    0.0000 C   0  0  0  0  0  0  0  0  0  0  0  0
    7.2682    4.1022    0.0000 C   0  0  0  0  0  0  0  0  0  0  0  0
    5.5361    3.1022    0.0000 C   0  0  0  0  0  0  0  0  0  0  0  0
    7.2682    3.1022    0.0000 C   0  0  0  0  0  0  0  0  0  0  0  0
    6.9021    5.4682    0.0000 C   0  0  0  0  0  0  0  0  0  0  0  0
    5.9021    5.4682    0.0000 C   0  0  0  0  0  0  0  0  0  0  0  0
    6.4021    1.6022    0.0000 C   0  0  0  0  0  0  0  0  0  0  0  0
    5.5361    1.1022    0.0000 C   0  0  0  0  0  0  0  0  0  0  0  0
    5.5361    0.1022    0.0000 C   0  0  0  0  0  0  0  0  0  0  0  0
    4.6701   -1.3978    0.0000 C   0  0  0  0  0  0  0  0  0  0  0  0
    4.1701   -2.9366    0.0000 C   0  0  0  0  0  0  0  0  0  0  0  0
    2.9100   -1.6766    0.0000 C   0  0  0  0  0  0  0  0  0  0  0  0
    3.5823   -3.7457    0.0000 C   0  0  0  0  0  0  0  0  0  0  0  0
    3.9890   -4.6592    0.0000 C   0  0  0  0  0  0  0  0  0  0  0  0
    2.5878   -3.6411    0.0000 C   0  0  0  0  0  0  0  0  0  0  0  0
    3.4013   -5.4682    0.0000 C   0  0  0  0  0  0  0  0  0  0  0  0
    2.0000   -4.4502    0.0000 C   0  0  0  0  0  0  0  0  0  0  0  0
    2.4067   -5.3637    0.0000 C   0  0  0  0  0  0  0  0  0  0  0  0
    5.3241    4.6848    0.0000 H   0  0  0  0  0  0  0  0  0  0  0  0
    4.9255    3.9945    0.0000 H   0  0  0  0  0  0  0  0  0  0  0  0
    7.8788    3.9945    0.0000 H   0  0  0  0  0  0  0  0  0  0  0  0
    7.4802    4.6848    0.0000 H   0  0  0  0  0  0  0  0  0  0  0  0
    4.9255    3.2099    0.0000 H   0  0  0  0  0  0  0  0  0  0  0  0
    5.3241    2.5196    0.0000 H   0  0  0  0  0  0  0  0  0  0  0  0
    7.4802    2.5196    0.0000 H   0  0  0  0  0  0  0  0  0  0  0  0
    7.8788    3.2099    0.0000 H   0  0  0  0  0  0  0  0  0  0  0  0
    7.4391    5.1582    0.0000 H   0  0  0  0  0  0  0  0  0  0  0  0
    7.2121    6.0052    0.0000 H   0  0  0  0  0  0  0  0  0  0  0  0
    6.3652    5.7782    0.0000 H   0  0  0  0  0  0  0  0  0  0  0  0
    6.4391    5.7782    0.0000 H   0  0  0  0  0  0  0  0  0  0  0  0
    5.5921    6.0052    0.0000 H   0  0  0  0  0  0  0  0  0  0  0  0
    5.3652    5.1582    0.0000 H   0  0  0  0  0  0  0  0  0  0  0  0
    6.6142    1.0196    0.0000 H   0  0  0  0  0  0  0  0  0  0  0  0
    7.0127    1.7099    0.0000 H   0  0  0  0  0  0  0  0  0  0  0  0
    5.3241    1.6848    0.0000 H   0  0  0  0  0  0  0  0  0  0  0  0
    4.9255    0.9945    0.0000 H   0  0  0  0  0  0  0  0  0  0  0  0
    5.7482   -0.4804    0.0000 H   0  0  0  0  0  0  0  0  0  0  0  0
    6.1467    0.2099    0.0000 H   0  0  0  0  0  0  0  0  0  0  0  0
    3.1016   -1.0869    0.0000 H   0  0  0  0  0  0  0  0  0  0  0  0
    2.3204   -1.4850    0.0000 H   0  0  0  0  0  0  0  0  0  0  0  0
    2.7184   -2.2662    0.0000 H   0  0  0  0  0  0  0  0  0  0  0  0
    4.6056   -4.7240    0.0000 H   0  0  0  0  0  0  0  0  0  0  0  0
    2.3356   -3.0747    0.0000 H   0  0  0  0  0  0  0  0  0  0  0  0
    3.6534   -6.0346    0.0000 H   0  0  0  0  0  0  0  0  0  0  0  0
    1.3834   -4.3853    0.0000 H   0  0  0  0  0  0  0  0  0  0  0  0
    2.0423   -5.8653    0.0000 H   0  0  0  0  0  0  0  0  0  0  0  0
  1 15  1  0  0  0  0
  1 16  1  0  0  0  0
  2  9  1  0  0  0  0
  2 10  1  0  0  0  0
  2 13  1  0  0  0  0
  3 16  1  0  0  0  0
  3 17  1  0  0  0  0
  3 18  1  0  0  0  0
  4  5  1  0  0  0  0
  4 16  2  0  0  0  0
  5 17  2  0  0  0  0
  6  7  1  0  0  0  0
  6  8  1  0  0  0  0
  6 11  1  0  0  0  0
  6 12  1  0  0  0  0
  7  9  1  0  0  0  0
  7 25  1  0  0  0  0
  7 26  1  0  0  0  0
  8 10  1  0  0  0  0
  8 27  1  0  0  0  0
  8 28  1  0  0  0  0
  9 29  1  0  0  0  0
  9 30  1  0  0  0  0
 10 31  1  0  0  0  0
 10 32  1  0  0  0  0
 11 33  1  0  0  0  0
 11 34  1  0  0  0  0
 11 35  1  0  0  0  0
 12 36  1  0  0  0  0
 12 37  1  0  0  0  0
 12 38  1  0  0  0  0
 13 14  1  0  0  0  0
 13 39  1  0  0  0  0
 13 40  1  0  0  0  0
 14 15  1  0  0  0  0
 14 41  1  0  0  0  0
 14 42  1  0  0  0  0
 15 43  1  0  0  0  0
 15 44  1  0  0  0  0
 17 19  1  0  0  0  0
 18 45  1  0  0  0  0
 18 46  1  0  0  0  0
 18 47  1  0  0  0  0
 19 20  2  0  0  0  0
 19 21  1  0  0  0  0
 20 22  1  0  0  0  0
 20 48  1  0  0  0  0
 21 23  2  0  0  0  0
 21 49  1  0  0  0  0
 22 24  2  0  0  0  0
 22 50  1  0  0  0  0
 23 24  1  0  0  0  0
 23 51  1  0  0  0  0
 24 52  1  0  0  0  0
M  END
> <PUBCHEM_COMPOUND_CID>
155556665

> <PUBCHEM_COMPOUND_CANONICALIZED>
1

> <PUBCHEM_CACTVS_COMPLEXITY>
374

> <PUBCHEM_CACTVS_HBOND_ACCEPTOR>
4

> <PUBCHEM_CACTVS_HBOND_DONOR>
0

> <PUBCHEM_CACTVS_ROTATABLE_BOND>
6

> <PUBCHEM_CACTVS_SUBSKEYS>
AAADceB7gABAAAAAAAAAAAAAAAAAAWAAAAA8QAAAAAAAAAABwAAAHAQIAAAADgDFWwSzEIcMEAiiAiJiJACS0AtgALAdyCAoBJiIKKKgmRGEIAhgiAKIiAcQgAAPAAAAAAAAAAAAAAAAAAAAAAAAAAAAAA==

> <PUBCHEM_IUPAC_OPENEYE_NAME>
4,4-dimethyl-1-[3-[(4-methyl-5-phenyl-1,2,4-triazol-3-yl)sulfanyl]propyl]piperidine

> <PUBCHEM_IUPAC_CAS_NAME>
4,4-dimethyl-1-[3-[(4-methyl-5-phenyl-1,2,4-triazol-3-yl)thio]propyl]piperidine

> <PUBCHEM_IUPAC_NAME_MARKUP>
4,4-dimethyl-1-[3-[(4-methyl-5-phenyl-1,2,4-triazol-3-yl)sulfanyl]propyl]piperidine

> <PUBCHEM_IUPAC_NAME>
4,4-dimethyl-1-[3-[(4-methyl-5-phenyl-1,2,4-triazol-3-yl)sulfanyl]propyl]piperidine

> <PUBCHEM_IUPAC_SYSTEMATIC_NAME>
4,4-dimethyl-1-[3-[(4-methyl-5-phenyl-1,2,4-triazol-3-yl)sulfanyl]propyl]piperidine

> <PUBCHEM_IUPAC_TRADITIONAL_NAME>
4,4-dimethyl-1-[3-[(4-methyl-5-phenyl-1,2,4-triazol-3-yl)thio]propyl]piperidine

> <PUBCHEM_IUPAC_INCHI>
InChI=1S/C19H28N4S/c1-19(2)10-13-23(14-11-19)12-7-15-24-18-21-20-17(22(18)3)16-8-5-4-6-9-16/h4-6,8-9H,7,10-15H2,1-3H3

> <PUBCHEM_IUPAC_INCHIKEY>
KNJYSVPTKHXEGZ-UHFFFAOYSA-N

> <PUBCHEM_XLOGP3_AA>
4

> <PUBCHEM_EXACT_MASS>
344.20346808

> <PUBCHEM_MOLECULAR_FORMULA>
C19H28N4S

> <PUBCHEM_MOLECULAR_WEIGHT>
344.5

> <PUBCHEM_OPENEYE_CAN_SMILES>
CC1(CCN(CC1)CCCSC2=NN=C(N2C)C3=CC=CC=C3)C

> <PUBCHEM_OPENEYE_ISO_SMILES>
CC1(CCN(CC1)CCCSC2=NN=C(N2C)C3=CC=CC=C3)C

> <PUBCHEM_CACTVS_TPSA>
59.2

> <PUBCHEM_MONOISOTOPIC_WEIGHT>
344.20346808

> <PUBCHEM_TOTAL_CHARGE>
0

> <PUBCHEM_HEAVY_ATOM_COUNT>
24

> <PUBCHEM_ATOM_DEF_STEREO_COUNT>
0

> <PUBCHEM_ATOM_UDEF_STEREO_COUNT>
0

> <PUBCHEM_BOND_DEF_STEREO_COUNT>
0

> <PUBCHEM_BOND_UDEF_STEREO_COUNT>
0

> <PUBCHEM_ISOTOPIC_ATOM_COUNT>
0

> <PUBCHEM_COMPONENT_COUNT>
1

> <PUBCHEM_CACTVS_TAUTO_COUNT>
-1

> <PUBCHEM_COORDINATE_TYPE>
1
5
255

> <PUBCHEM_BONDANNOTATIONS>
19  20  8
19  21  8
20  22  8
21  23  8
22  24  8
23  24  8
3  16  8
3  17  8
4  16  8
4  5  8
5  17  8

$$$$
