11536995
  -OEChem-09292322272D

 44 46  0     1  0  0  0  0  0999 V2000
    4.6719   -2.0158    0.0000 O   0  0  0  0  0  0  0  0  0  0  0  0
    3.7841    2.5157    0.0000 N   0  0  3  0  0  0  0  0  0  0  0  0
    3.7841    1.5157    0.0000 C   0  0  0  0  0  0  0  0  0  0  0  0
    2.9180    1.0157    0.0000 C   0  0  0  0  0  0  0  0  0  0  0  0
    4.6501    3.0157    0.0000 C   0  0  0  0  0  0  0  0  0  0  0  0
    5.5161    2.5157    0.0000 C   0  0  0  0  0  0  0  0  0  0  0  0
    2.9180    0.0157    0.0000 C   0  0  0  0  0  0  0  0  0  0  0  0
    4.6501    0.0157    0.0000 C   0  0  0  0  0  0  0  0  0  0  0  0
    3.7841   -0.4843    0.0000 C   0  0  0  0  0  0  0  0  0  0  0  0
    5.5161    1.5157    0.0000 C   0  0  0  0  0  0  0  0  0  0  0  0
    4.6501    1.0157    0.0000 C   0  0  0  0  0  0  0  0  0  0  0  0
    3.8001   -1.5258    0.0000 C   0  0  0  0  0  0  0  0  0  0  0  0
    2.9180    3.0157    0.0000 C   0  0  0  0  0  0  0  0  0  0  0  0
    2.0080   -0.4911    0.0000 C   0  0  0  0  0  0  0  0  0  0  0  0
    6.9274    0.9386    0.0000 C   0  0  0  0  0  0  0  0  0  0  0  0
    4.4442   -0.4951    0.0000 C   0  0  0  0  0  0  0  0  0  0  0  0
    2.9021   -2.0536    0.0000 C   0  0  0  0  0  0  0  0  0  0  0  0
    2.0000   -1.5328    0.0000 C   0  0  0  0  0  0  0  0  0  0  0  0
    7.0306   -0.5827    0.0000 C   0  0  0  0  0  0  0  0  0  0  0  0
    5.7101   -1.3451    0.0000 C   0  0  0  0  0  0  0  0  0  0  0  0
    4.6834   -3.0157    0.0000 C   0  0  0  0  0  0  0  0  0  0  0  0
    3.9961    0.9331    0.0000 H   0  0  0  0  0  0  0  0  0  0  0  0
    4.3946    1.6234    0.0000 H   0  0  0  0  0  0  0  0  0  0  0  0
    2.7060    1.5983    0.0000 H   0  0  0  0  0  0  0  0  0  0  0  0
    2.3074    0.9080    0.0000 H   0  0  0  0  0  0  0  0  0  0  0  0
    5.0486    3.4906    0.0000 H   0  0  0  0  0  0  0  0  0  0  0  0
    4.2516    3.4906    0.0000 H   0  0  0  0  0  0  0  0  0  0  0  0
    6.1267    2.4080    0.0000 H   0  0  0  0  0  0  0  0  0  0  0  0
    5.7282    3.0983    0.0000 H   0  0  0  0  0  0  0  0  0  0  0  0
    4.8621   -0.5669    0.0000 H   0  0  0  0  0  0  0  0  0  0  0  0
    5.2607    0.1234    0.0000 H   0  0  0  0  0  0  0  0  0  0  0  0
    3.2280    3.5526    0.0000 H   0  0  0  0  0  0  0  0  0  0  0  0
    2.3811    3.3257    0.0000 H   0  0  0  0  0  0  0  0  0  0  0  0
    2.6080    2.4788    0.0000 H   0  0  0  0  0  0  0  0  0  0  0  0
    1.4747   -0.1750    0.0000 H   0  0  0  0  0  0  0  0  0  0  0  0
    7.4302    1.3014    0.0000 H   0  0  0  0  0  0  0  0  0  0  0  0
    3.8786   -0.7491    0.0000 H   0  0  0  0  0  0  0  0  0  0  0  0
    2.9045   -2.6736    0.0000 H   0  0  0  0  0  0  0  0  0  0  0  0
    1.4619   -1.8407    0.0000 H   0  0  0  0  0  0  0  0  0  0  0  0
    7.5777   -0.8743    0.0000 H   0  0  0  0  0  0  0  0  0  0  0  0
    5.6891   -1.9647    0.0000 H   0  0  0  0  0  0  0  0  0  0  0  0
    4.0635   -3.0229    0.0000 H   0  0  0  0  0  0  0  0  0  0  0  0
    4.6906   -3.6356    0.0000 H   0  0  0  0  0  0  0  0  0  0  0  0
    5.3034   -3.0085    0.0000 H   0  0  0  0  0  0  0  0  0  0  0  0
  1 12  1  0  0  0  0
  1 21  1  0  0  0  0
  2  3  1  0  0  0  0
  2  5  1  0  0  0  0
  2 13  1  0  0  0  0
  3  4  1  0  0  0  0
  3 22  1  0  0  0  0
  3 23  1  0  0  0  0
  4  7  1  0  0  0  0
  4 24  1  0  0  0  0
  4 25  1  0  0  0  0
  5  6  1  0  0  0  0
  5 26  1  0  0  0  0
  5 27  1  0  0  0  0
  6 10  1  0  0  0  0
  6 28  1  0  0  0  0
  6 29  1  0  0  0  0
  7  9  2  0  0  0  0
  7 14  1  0  0  0  0
  8  9  1  0  0  0  0
  8 11  1  0  0  0  0
  8 30  1  0  0  0  0
  8 31  1  0  0  0  0
  9 12  1  0  0  0  0
 10 11  1  0  0  0  0
 10 15  2  0  0  0  0
 11 16  2  0  0  0  0
 12 17  2  0  0  0  0
 13 32  1  0  0  0  0
 13 33  1  0  0  0  0
 13 34  1  0  0  0  0
 14 18  2  0  0  0  0
 14 35  1  0  0  0  0
 15 19  1  0  0  0  0
 15 36  1  0  0  0  0
 16 20  1  0  0  0  0
 16 37  1  0  0  0  0
 17 18  1  0  0  0  0
 17 38  1  0  0  0  0
 18 39  1  0  0  0  0
 19 20  2  0  0  0  0
 19 40  1  0  0  0  0
 20 41  1  0  0  0  0
 21 42  1  0  0  0  0
 21 43  1  0  0  0  0
 21 44  1  0  0  0  0
M  END
> <PUBCHEM_COMPOUND_CID>
11536995

> <PUBCHEM_COMPOUND_CANONICALIZED>
1

> <PUBCHEM_CACTVS_COMPLEXITY>
319

> <PUBCHEM_CACTVS_HBOND_ACCEPTOR>
2

> <PUBCHEM_CACTVS_HBOND_DONOR>
0

> <PUBCHEM_CACTVS_ROTATABLE_BOND>
1

> <PUBCHEM_CACTVS_SUBSKEYS>
AAADceB6IAAAAAAAAAAAAAAAAAAAAAAAAAAwYAAAAAAAAACxQAAAHgAAAAAADATBmAYyBoMABACAAiBCAAACCAAgIAAIiAAOCIgMJiKEsRuEMCAkwBGIqAeQ0PIOgAABAAAYAAAAAAIAADAAAAAAAAAAAA==

> <PUBCHEM_IUPAC_OPENEYE_NAME>
4-methoxy-11-methyl-11-azatricyclo[12.4.0.03,8]octadeca-1(18),3(8),4,6,14,16-hexaene

> <PUBCHEM_IUPAC_CAS_NAME>
4-methoxy-11-methyl-11-azatricyclo[12.4.0.03,8]octadeca-1(18),3(8),4,6,14,16-hexaene

> <PUBCHEM_IUPAC_NAME_MARKUP>
4-methoxy-11-methyl-11-azatricyclo[12.4.0.0<SUP>3,8</SUP>]octadeca-1(18),3(8),4,6,14,16-hexaene

> <PUBCHEM_IUPAC_NAME>
4-methoxy-11-methyl-11-azatricyclo[12.4.0.03,8]octadeca-1(18),3(8),4,6,14,16-hexaene

> <PUBCHEM_IUPAC_SYSTEMATIC_NAME>
4-methoxy-11-methyl-11-azatricyclo[12.4.0.03,8]octadeca-1(18),3(8),4,6,14,16-hexaene

> <PUBCHEM_IUPAC_TRADITIONAL_NAME>
4-methoxy-11-methyl-11-azatricyclo[12.4.0.03,8]octadeca-1(18),3(8),4,6,14,16-hexaene

> <PUBCHEM_IUPAC_INCHI>
InChI=1S/C19H23NO/c1-20-12-10-15-6-3-4-7-17(15)14-18-16(11-13-20)8-5-9-19(18)21-2/h3-9H,10-14H2,1-2H3

> <PUBCHEM_IUPAC_INCHIKEY>
REBWRBLHMGDWNT-UHFFFAOYSA-N

> <PUBCHEM_XLOGP3_AA>
4.1

> <PUBCHEM_EXACT_MASS>
281.177964357

> <PUBCHEM_MOLECULAR_FORMULA>
C19H23NO

> <PUBCHEM_MOLECULAR_WEIGHT>
281.4

> <PUBCHEM_OPENEYE_CAN_SMILES>
CN1CCC2=C(CC3=CC=CC=C3CC1)C(=CC=C2)OC

> <PUBCHEM_OPENEYE_ISO_SMILES>
CN1CCC2=C(CC3=CC=CC=C3CC1)C(=CC=C2)OC

> <PUBCHEM_CACTVS_TPSA>
12.5

> <PUBCHEM_MONOISOTOPIC_WEIGHT>
281.177964357

> <PUBCHEM_TOTAL_CHARGE>
0

> <PUBCHEM_HEAVY_ATOM_COUNT>
21

> <PUBCHEM_ATOM_DEF_STEREO_COUNT>
0

> <PUBCHEM_ATOM_UDEF_STEREO_COUNT>
0

> <PUBCHEM_BOND_DEF_STEREO_COUNT>
0

> <PUBCHEM_BOND_UDEF_STEREO_COUNT>
0

> <PUBCHEM_ISOTOPIC_ATOM_COUNT>
0

> <PUBCHEM_COMPONENT_COUNT>
1

> <PUBCHEM_CACTVS_TAUTO_COUNT>
-1

> <PUBCHEM_COORDINATE_TYPE>
1
5
255

> <PUBCHEM_BONDANNOTATIONS>
10  11  8
10  15  8
11  16  8
12  17  8
14  18  8
15  19  8
16  20  8
17  18  8
19  20  8
7  14  8
7  9  8
9  12  8

$$$$
