72699903
  -OEChem-09292322352D

 46 49  0     1  0  0  0  0  0999 V2000
    5.4820    5.1865    0.0000 Cl  0  0  0  0  0  0  0  0  0  0  0  0
    5.3871    1.6806    0.0000 S   0  0  0  0  0  0  0  0  0  0  0  0
    3.8372   -4.6832    0.0000 O   0  0  0  0  0  0  0  0  0  0  0  0
    5.6405   -3.6234    0.0000 O   0  0  0  0  0  0  0  0  0  0  0  0
    2.9180    0.0136    0.0000 N   0  0  3  0  0  0  0  0  0  0  0  0
    3.7841   -0.4864    0.0000 C   0  0  1  0  0  0  0  0  0  0  0  0
    4.6501    0.0136    0.0000 C   0  0  0  0  0  0  0  0  0  0  0  0
    2.0080   -0.4933    0.0000 C   0  0  0  0  0  0  0  0  0  0  0  0
    2.9180    1.0136    0.0000 C   0  0  0  0  0  0  0  0  0  0  0  0
    3.8001   -1.5280    0.0000 C   0  0  0  0  0  0  0  0  0  0  0  0
    2.0000   -1.5349    0.0000 C   0  0  0  0  0  0  0  0  0  0  0  0
    3.7841    1.5136    0.0000 C   0  0  0  0  0  0  0  0  0  0  0  0
    4.6501    1.0136    0.0000 C   0  0  0  0  0  0  0  0  0  0  0  0
    2.9021   -2.0557    0.0000 C   0  0  0  0  0  0  0  0  0  0  0  0
    3.9933    2.4854    0.0000 C   0  0  0  0  0  0  0  0  0  0  0  0
    4.7520   -2.0486    0.0000 C   0  0  0  0  0  0  0  0  0  0  0  0
    4.9820    2.5884    0.0000 C   0  0  0  0  0  0  0  0  0  0  0  0
    2.8937   -3.1407    0.0000 C   0  0  0  0  0  0  0  0  0  0  0  0
    4.7688   -3.1334    0.0000 C   0  0  0  0  0  0  0  0  0  0  0  0
    3.8334   -3.6832    0.0000 C   0  0  0  0  0  0  0  0  0  0  0  0
    5.4820    3.4544    0.0000 C   0  0  0  0  0  0  0  0  0  0  0  0
    4.9820    4.3205    0.0000 C   0  0  3  0  0  0  0  0  0  0  0  0
    3.9820    4.3205    0.0000 C   0  0  0  0  0  0  0  0  0  0  0  0
    2.9731   -5.1865    0.0000 C   0  0  0  0  0  0  0  0  0  0  0  0
    4.5234   -0.9058    0.0000 H   0  0  0  0  0  0  0  0  0  0  0  0
    4.8621   -0.5691    0.0000 H   0  0  0  0  0  0  0  0  0  0  0  0
    5.2607    0.1212    0.0000 H   0  0  0  0  0  0  0  0  0  0  0  0
    1.8035    0.0920    0.0000 H   0  0  0  0  0  0  0  0  0  0  0  0
    1.3964   -0.5947    0.0000 H   0  0  0  0  0  0  0  0  0  0  0  0
    2.7060    1.5962    0.0000 H   0  0  0  0  0  0  0  0  0  0  0  0
    2.3074    0.9059    0.0000 H   0  0  0  0  0  0  0  0  0  0  0  0
    1.3900   -1.4241    0.0000 H   0  0  0  0  0  0  0  0  0  0  0  0
    1.7864   -2.1170    0.0000 H   0  0  0  0  0  0  0  0  0  0  0  0
    3.5792    2.9468    0.0000 H   0  0  0  0  0  0  0  0  0  0  0  0
    5.2829   -1.7283    0.0000 H   0  0  0  0  0  0  0  0  0  0  0  0
    2.3556   -3.4486    0.0000 H   0  0  0  0  0  0  0  0  0  0  0  0
    5.9569    3.0559    0.0000 H   0  0  0  0  0  0  0  0  0  0  0  0
    5.9569    3.8530    0.0000 H   0  0  0  0  0  0  0  0  0  0  0  0
    4.6720    4.8574    0.0000 H   0  0  0  0  0  0  0  0  0  0  0  0
    6.1738   -3.3072    0.0000 H   0  0  0  0  0  0  0  0  0  0  0  0
    3.9820    4.9405    0.0000 H   0  0  0  0  0  0  0  0  0  0  0  0
    3.3620    4.3205    0.0000 H   0  0  0  0  0  0  0  0  0  0  0  0
    3.9820    3.7005    0.0000 H   0  0  0  0  0  0  0  0  0  0  0  0
    2.6610   -4.6508    0.0000 H   0  0  0  0  0  0  0  0  0  0  0  0
    2.4374   -5.4986    0.0000 H   0  0  0  0  0  0  0  0  0  0  0  0
    3.2852   -5.7222    0.0000 H   0  0  0  0  0  0  0  0  0  0  0  0
  1 22  1  0  0  0  0
  2 13  1  0  0  0  0
  2 17  1  0  0  0  0
  3 20  1  0  0  0  0
  3 24  1  0  0  0  0
  4 19  1  0  0  0  0
  4 40  1  0  0  0  0
  5  6  1  0  0  0  0
  5  8  1  0  0  0  0
  5  9  1  0  0  0  0
  6  7  1  0  0  0  0
  6 10  1  0  0  0  0
  6 25  1  6  0  0  0
  7 13  1  0  0  0  0
  7 26  1  0  0  0  0
  7 27  1  0  0  0  0
  8 11  1  0  0  0  0
  8 28  1  0  0  0  0
  8 29  1  0  0  0  0
  9 12  1  0  0  0  0
  9 30  1  0  0  0  0
  9 31  1  0  0  0  0
 10 14  1  0  0  0  0
 10 16  2  0  0  0  0
 11 14  1  0  0  0  0
 11 32  1  0  0  0  0
 11 33  1  0  0  0  0
 12 13  2  0  0  0  0
 12 15  1  0  0  0  0
 14 18  2  0  0  0  0
 15 17  2  0  0  0  0
 15 34  1  0  0  0  0
 16 19  1  0  0  0  0
 16 35  1  0  0  0  0
 17 21  1  0  0  0  0
 18 20  1  0  0  0  0
 18 36  1  0  0  0  0
 19 20  2  0  0  0  0
 21 22  1  0  0  0  0
 21 37  1  0  0  0  0
 21 38  1  0  0  0  0
 22 23  1  0  0  0  0
 22 39  1  0  0  0  0
 23 41  1  0  0  0  0
 23 42  1  0  0  0  0
 23 43  1  0  0  0  0
 24 44  1  0  0  0  0
 24 45  1  0  0  0  0
 24 46  1  0  0  0  0
M  END
> <PUBCHEM_COMPOUND_CID>
72699903

> <PUBCHEM_COMPOUND_CANONICALIZED>
1

> <PUBCHEM_CACTVS_COMPLEXITY>
453

> <PUBCHEM_CACTVS_HBOND_ACCEPTOR>
4

> <PUBCHEM_CACTVS_HBOND_DONOR>
1

> <PUBCHEM_CACTVS_ROTATABLE_BOND>
3

> <PUBCHEM_CACTVS_SUBSKEYS>
AAADceB6MABEAAAAAAAAAAAAAAAAASAAAAA8WIAAAAAAAFixwAAAHgYACAAADC/B2EYyB4MABgiEAiBCAACDCIAgKBBAiBgOjogNJiKnsRuEcCtkwBGruAew0PMOoAABAAAQQABAAAIAACCAAAAAAAAAAA==

> <PUBCHEM_IUPAC_OPENEYE_NAME>
(1S)-14-(2-chloropropyl)-5-methoxy-15-thia-10-azatetracyclo[8.7.0.02,7.012,16]heptadeca-2,4,6,12(16),13-pentaen-4-ol

> <PUBCHEM_IUPAC_CAS_NAME>
(1S)-14-(2-chloropropyl)-5-methoxy-15-thia-10-azatetracyclo[8.7.0.02,7.012,16]heptadeca-2,4,6,12(16),13-pentaen-4-ol

> <PUBCHEM_IUPAC_NAME_MARKUP>
(1<I>S</I>)-14-(2-chloropropyl)-5-methoxy-15-thia-10-azatetracyclo[8.7.0.0<SUP>2,7</SUP>.0<SUP>12,16</SUP>]heptadeca-2,4,6,12(16),13-pentaen-4-ol

> <PUBCHEM_IUPAC_NAME>
(1S)-14-(2-chloropropyl)-5-methoxy-15-thia-10-azatetracyclo[8.7.0.02,7.012,16]heptadeca-2,4,6,12(16),13-pentaen-4-ol

> <PUBCHEM_IUPAC_SYSTEMATIC_NAME>
(1S)-14-(2-chloranylpropyl)-5-methoxy-15-thia-10-azatetracyclo[8.7.0.02,7.012,16]heptadeca-2,4,6,12(16),13-pentaen-4-ol

> <PUBCHEM_IUPAC_TRADITIONAL_NAME>
(1S)-14-(2-chloropropyl)-5-methoxy-15-thia-10-azatetracyclo[8.7.0.02,7.012,16]heptadeca-2,4,6,12(16),13-pentaen-4-ol

> <PUBCHEM_IUPAC_INCHI>
InChI=1S/C19H22ClNO2S/c1-11(20)5-14-6-13-10-21-4-3-12-7-18(23-2)17(22)8-15(12)16(21)9-19(13)24-14/h6-8,11,16,22H,3-5,9-10H2,1-2H3/t11?,16-/m0/s1

> <PUBCHEM_IUPAC_INCHIKEY>
XIZKQKJWNKJOOA-NBFOKTCDSA-N

> <PUBCHEM_XLOGP3_AA>
4

> <PUBCHEM_EXACT_MASS>
363.1059778

> <PUBCHEM_MOLECULAR_FORMULA>
C19H22ClNO2S

> <PUBCHEM_MOLECULAR_WEIGHT>
363.9

> <PUBCHEM_OPENEYE_CAN_SMILES>
CC(CC1=CC2=C(S1)CC3C4=CC(=C(C=C4CCN3C2)OC)O)Cl

> <PUBCHEM_OPENEYE_ISO_SMILES>
CC(CC1=CC2=C(S1)C[C@H]3C4=CC(=C(C=C4CCN3C2)OC)O)Cl

> <PUBCHEM_CACTVS_TPSA>
60.9

> <PUBCHEM_MONOISOTOPIC_WEIGHT>
363.1059778

> <PUBCHEM_TOTAL_CHARGE>
0

> <PUBCHEM_HEAVY_ATOM_COUNT>
24

> <PUBCHEM_ATOM_DEF_STEREO_COUNT>
1

> <PUBCHEM_ATOM_UDEF_STEREO_COUNT>
1

> <PUBCHEM_BOND_DEF_STEREO_COUNT>
0

> <PUBCHEM_BOND_UDEF_STEREO_COUNT>
0

> <PUBCHEM_ISOTOPIC_ATOM_COUNT>
0

> <PUBCHEM_COMPONENT_COUNT>
1

> <PUBCHEM_CACTVS_TAUTO_COUNT>
-1

> <PUBCHEM_COORDINATE_TYPE>
1
5
255

> <PUBCHEM_BONDANNOTATIONS>
22  1  3
10  14  8
10  16  8
12  13  8
12  15  8
14  18  8
15  17  8
16  19  8
18  20  8
19  20  8
2  13  8
2  17  8
6  25  6

$$$$
