10527469
  -OEChem-09292322142D

 56 61  0     1  0  0  0  0  0999 V2000
    4.5274    1.3298    0.0000 S   0  0  0  0  0  0  0  0  0  0  0  0
   14.7046    0.4680    0.0000 O   0  0  0  0  0  0  0  0  0  0  0  0
    6.6498    1.9288    0.0000 O   0  0  0  0  0  0  0  0  0  0  0  0
    7.3991   -1.5308    0.0000 O   0  0  0  0  0  0  0  0  0  0  0  0
    9.6814   -0.1116    0.0000 N   0  0  3  0  0  0  0  0  0  0  0  0
    7.0547    0.2056    0.0000 N   0  0  0  0  0  0  0  0  0  0  0  0
    5.7123   -0.9938    0.0000 N   0  0  0  0  0  0  0  0  0  0  0  0
    3.3424   -0.9938    0.0000 N   0  0  0  0  0  0  0  0  0  0  0  0
   11.0707    0.7009    0.0000 C   0  0  2  0  0  0  0  0  0  0  0  0
   11.2824   -0.2765    0.0000 C   0  0  1  0  0  0  0  0  0  0  0  0
   10.0814    0.7984    0.0000 C   0  0  0  0  0  0  0  0  0  0  0  0
   10.4221   -0.7746    0.0000 C   0  0  0  0  0  0  0  0  0  0  0  0
   11.8113    1.3729    0.0000 C   0  0  0  0  0  0  0  0  0  0  0  0
   12.2346   -0.5818    0.0000 C   0  0  0  0  0  0  0  0  0  0  0  0
   12.7635    1.0675    0.0000 C   0  0  0  0  0  0  0  0  0  0  0  0
   12.9752    0.0902    0.0000 C   0  0  0  0  0  0  0  0  0  0  0  0
    8.7040   -0.3233    0.0000 C   0  0  0  0  0  0  0  0  0  0  0  0
   12.4394   -1.6031    0.0000 C   0  0  0  0  0  0  0  0  0  0  0  0
   13.9719   -0.2126    0.0000 C   0  0  0  0  0  0  0  0  0  0  0  0
    8.0321    0.4172    0.0000 C   0  0  0  0  0  0  0  0  0  0  0  0
   13.4288   -1.9288    0.0000 C   0  0  0  0  0  0  0  0  0  0  0  0
   14.2002   -1.2288    0.0000 C   0  0  0  0  0  0  0  0  0  0  0  0
    6.3518    0.9743    0.0000 C   0  0  0  0  0  0  0  0  0  0  0  0
    6.7328   -0.7851    0.0000 C   0  0  0  0  0  0  0  0  0  0  0  0
    5.3364    0.7420    0.0000 C   0  0  0  0  0  0  0  0  0  0  0  0
   15.6603    0.1736    0.0000 C   0  0  0  0  0  0  0  0  0  0  0  0
    5.0274   -0.2091    0.0000 C   0  0  0  0  0  0  0  0  0  0  0  0
    4.0274   -0.2091    0.0000 C   0  0  0  0  0  0  0  0  0  0  0  0
    3.7183    0.7420    0.0000 C   0  0  0  0  0  0  0  0  0  0  0  0
    2.7029    0.9743    0.0000 C   0  0  0  0  0  0  0  0  0  0  0  0
    2.0000    0.2056    0.0000 C   0  0  0  0  0  0  0  0  0  0  0  0
    2.3219   -0.7851    0.0000 C   0  0  0  0  0  0  0  0  0  0  0  0
   10.8039    1.5079    0.0000 H   0  0  0  0  0  0  0  0  0  0  0  0
   11.3734   -1.1216    0.0000 H   0  0  0  0  0  0  0  0  0  0  0  0
   10.2068    1.4056    0.0000 H   0  0  0  0  0  0  0  0  0  0  0  0
    9.4908    0.9869    0.0000 H   0  0  0  0  0  0  0  0  0  0  0  0
    9.9624   -1.1906    0.0000 H   0  0  0  0  0  0  0  0  0  0  0  0
   10.7875   -1.2755    0.0000 H   0  0  0  0  0  0  0  0  0  0  0  0
   12.1002    1.9214    0.0000 H   0  0  0  0  0  0  0  0  0  0  0  0
   11.3212    1.7527    0.0000 H   0  0  0  0  0  0  0  0  0  0  0  0
   13.3830    1.0915    0.0000 H   0  0  0  0  0  0  0  0  0  0  0  0
   12.8474    1.6818    0.0000 H   0  0  0  0  0  0  0  0  0  0  0  0
    8.1795   -0.6539    0.0000 H   0  0  0  0  0  0  0  0  0  0  0  0
    8.9385   -0.8973    0.0000 H   0  0  0  0  0  0  0  0  0  0  0  0
   11.9755   -2.0144    0.0000 H   0  0  0  0  0  0  0  0  0  0  0  0
    8.5566    0.7478    0.0000 H   0  0  0  0  0  0  0  0  0  0  0  0
    7.7976    0.9912    0.0000 H   0  0  0  0  0  0  0  0  0  0  0  0
   13.5577   -2.5353    0.0000 H   0  0  0  0  0  0  0  0  0  0  0  0
   14.7913   -1.4159    0.0000 H   0  0  0  0  0  0  0  0  0  0  0  0
   15.4778   -0.4189    0.0000 H   0  0  0  0  0  0  0  0  0  0  0  0
   16.2528   -0.0088    0.0000 H   0  0  0  0  0  0  0  0  0  0  0  0
   15.8428    0.7662    0.0000 H   0  0  0  0  0  0  0  0  0  0  0  0
    5.5139   -1.5812    0.0000 H   0  0  0  0  0  0  0  0  0  0  0  0
    2.5182    1.5661    0.0000 H   0  0  0  0  0  0  0  0  0  0  0  0
    1.3940    0.3368    0.0000 H   0  0  0  0  0  0  0  0  0  0  0  0
    1.9088   -1.2474    0.0000 H   0  0  0  0  0  0  0  0  0  0  0  0
  1 25  1  0  0  0  0
  1 29  1  0  0  0  0
  2 19  1  0  0  0  0
  2 26  1  0  0  0  0
  3 23  2  0  0  0  0
  4 24  2  0  0  0  0
  5 11  1  0  0  0  0
  5 12  1  0  0  0  0
  5 17  1  0  0  0  0
  6 20  1  0  0  0  0
  6 23  1  0  0  0  0
  6 24  1  0  0  0  0
  7 24  1  0  0  0  0
  7 27  1  0  0  0  0
  7 53  1  0  0  0  0
  8 28  1  0  0  0  0
  8 32  2  0  0  0  0
  9 10  1  0  0  0  0
  9 11  1  0  0  0  0
  9 13  1  0  0  0  0
  9 33  1  1  0  0  0
 10 12  1  0  0  0  0
 10 14  1  0  0  0  0
 10 34  1  1  0  0  0
 11 35  1  0  0  0  0
 11 36  1  0  0  0  0
 12 37  1  0  0  0  0
 12 38  1  0  0  0  0
 13 15  1  0  0  0  0
 13 39  1  0  0  0  0
 13 40  1  0  0  0  0
 14 16  2  0  0  0  0
 14 18  1  0  0  0  0
 15 16  1  0  0  0  0
 15 41  1  0  0  0  0
 15 42  1  0  0  0  0
 16 19  1  0  0  0  0
 17 20  1  0  0  0  0
 17 43  1  0  0  0  0
 17 44  1  0  0  0  0
 18 21  2  0  0  0  0
 18 45  1  0  0  0  0
 19 22  2  0  0  0  0
 20 46  1  0  0  0  0
 20 47  1  0  0  0  0
 21 22  1  0  0  0  0
 21 48  1  0  0  0  0
 22 49  1  0  0  0  0
 23 25  1  0  0  0  0
 25 27  2  0  0  0  0
 26 50  1  0  0  0  0
 26 51  1  0  0  0  0
 26 52  1  0  0  0  0
 27 28  1  0  0  0  0
 28 29  2  0  0  0  0
 29 30  1  0  0  0  0
 30 31  2  0  0  0  0
 30 54  1  0  0  0  0
 31 32  1  0  0  0  0
 31 55  1  0  0  0  0
 32 56  1  0  0  0  0
M  END
> <PUBCHEM_COMPOUND_CID>
10527469

> <PUBCHEM_COMPOUND_CANONICALIZED>
1

> <PUBCHEM_CACTVS_COMPLEXITY>
753

> <PUBCHEM_CACTVS_HBOND_ACCEPTOR>
6

> <PUBCHEM_CACTVS_HBOND_DONOR>
1

> <PUBCHEM_CACTVS_ROTATABLE_BOND>
4

> <PUBCHEM_CACTVS_SUBSKEYS>
AAADceB7sABAAAAAAAAAAAAAAAAAAWJAAAA8eIEAAAAAAFjB/AAAHgQQAAAADQzB3gY/x7PIFAisAzV3VACDqKA1OjBI2D0+fNiMZvrk9ZuUMaxsxzPo6Wec2PKOgAABAAAYAACAAAYAADAAAAAAAAAAAA==

> <PUBCHEM_IUPAC_OPENEYE_NAME>
5-[2-[(3aR,9bR)-6-methoxy-1,3,3a,4,5,9b-hexahydrobenzo[e]isoindol-2-yl]ethyl]-8-thia-3,5,13-triazatricyclo[7.4.0.02,7]trideca-1(9),2(7),10,12-tetraene-4,6-dione

> <PUBCHEM_IUPAC_CAS_NAME>
5-[2-[(3aR,9bR)-6-methoxy-1,3,3a,4,5,9b-hexahydrobenzo[e]isoindol-2-yl]ethyl]-8-thia-3,5,13-triazatricyclo[7.4.0.02,7]trideca-1(9),2(7),10,12-tetraene-4,6-dione

> <PUBCHEM_IUPAC_NAME_MARKUP>
5-[2-[(3<I>a</I><I>R</I>,9<I>b</I><I>R</I>)-6-methoxy-1,3,3<I>a</I>,4,5,9<I>b</I>-hexahydrobenzo[e]isoindol-2-yl]ethyl]-8-thia-3,5,13-triazatricyclo[7.4.0.0<SUP>2,7</SUP>]trideca-1(9),2(7),10,12-tetraene-4,6-dione

> <PUBCHEM_IUPAC_NAME>
5-[2-[(3aR,9bR)-6-methoxy-1,3,3a,4,5,9b-hexahydrobenzo[e]isoindol-2-yl]ethyl]-8-thia-3,5,13-triazatricyclo[7.4.0.02,7]trideca-1(9),2(7),10,12-tetraene-4,6-dione

> <PUBCHEM_IUPAC_SYSTEMATIC_NAME>
5-[2-[(3aR,9bR)-6-methoxy-1,3,3a,4,5,9b-hexahydrobenzo[e]isoindol-2-yl]ethyl]-8-thia-3,5,13-triazatricyclo[7.4.0.02,7]trideca-1(9),2(7),10,12-tetraene-4,6-dione

> <PUBCHEM_IUPAC_TRADITIONAL_NAME>
5-[2-[(3aR,9bR)-6-methoxy-1,3,3a,4,5,9b-hexahydrobenz[e]isoindol-2-yl]ethyl]-8-thia-3,5,13-triazatricyclo[7.4.0.02,7]trideca-1(9),2(7),10,12-tetraene-4,6-quinone

> <PUBCHEM_IUPAC_INCHI>
InChI=1S/C24H24N4O3S/c1-31-18-5-2-4-15-16(18)8-7-14-12-27(13-17(14)15)10-11-28-23(29)22-21(26-24(28)30)20-19(32-22)6-3-9-25-20/h2-6,9,14,17H,7-8,10-13H2,1H3,(H,26,30)/t14-,17+/m0/s1

> <PUBCHEM_IUPAC_INCHIKEY>
OLPQNRLJYOGSGV-WMLDXEAASA-N

> <PUBCHEM_XLOGP3_AA>
3.2

> <PUBCHEM_EXACT_MASS>
448.15691181

> <PUBCHEM_MOLECULAR_FORMULA>
C24H24N4O3S

> <PUBCHEM_MOLECULAR_WEIGHT>
448.5

> <PUBCHEM_OPENEYE_CAN_SMILES>
COC1=CC=CC2=C1CCC3C2CN(C3)CCN4C(=O)C5=C(C6=C(S5)C=CC=N6)NC4=O

> <PUBCHEM_OPENEYE_ISO_SMILES>
COC1=CC=CC2=C1CC[C@@H]3[C@H]2CN(C3)CCN4C(=O)C5=C(C6=C(S5)C=CC=N6)NC4=O

> <PUBCHEM_CACTVS_TPSA>
103

> <PUBCHEM_MONOISOTOPIC_WEIGHT>
448.15691181

> <PUBCHEM_TOTAL_CHARGE>
0

> <PUBCHEM_HEAVY_ATOM_COUNT>
32

> <PUBCHEM_ATOM_DEF_STEREO_COUNT>
2

> <PUBCHEM_ATOM_UDEF_STEREO_COUNT>
0

> <PUBCHEM_BOND_DEF_STEREO_COUNT>
0

> <PUBCHEM_BOND_UDEF_STEREO_COUNT>
0

> <PUBCHEM_ISOTOPIC_ATOM_COUNT>
0

> <PUBCHEM_COMPONENT_COUNT>
1

> <PUBCHEM_CACTVS_TAUTO_COUNT>
-1

> <PUBCHEM_COORDINATE_TYPE>
1
5
255

> <PUBCHEM_BONDANNOTATIONS>
1  25  8
1  29  8
10  34  5
14  16  8
14  18  8
16  19  8
18  21  8
19  22  8
21  22  8
23  25  8
25  27  8
27  28  8
28  29  8
29  30  8
30  31  8
31  32  8
6  23  8
6  24  8
7  24  8
7  27  8
8  28  8
8  32  8
9  33  5

$$$$
