10831786
  -OEChem-09292322132D

 47 50  0     1  0  0  0  0  0999 V2000
    2.0000    0.5817    0.0000 Cl  0  0  0  0  0  0  0  0  0  0  0  0
    9.2928    0.5000    0.0000 N   0  0  3  0  0  0  0  0  0  0  0  0
    7.4562   -0.4945    0.0000 N   0  0  0  0  0  0  0  0  0  0  0  0
    6.4781   -0.7024    0.0000 N   0  0  0  0  0  0  0  0  0  0  0  0
    8.4268    1.0000    0.0000 C   0  0  3  0  0  0  0  0  0  0  0  0
    8.4268    2.0000    0.0000 C   0  0  0  0  0  0  0  0  0  0  0  0
    9.2928    2.5000    0.0000 C   0  0  0  0  0  0  0  0  0  0  0  0
   10.1588    1.0000    0.0000 C   0  0  0  0  0  0  0  0  0  0  0  0
   10.1588    2.0000    0.0000 C   0  0  0  0  0  0  0  0  0  0  0  0
    7.5608    0.5000    0.0000 C   0  0  0  0  0  0  0  0  0  0  0  0
    9.2928   -0.5000    0.0000 C   0  0  0  0  0  0  0  0  0  0  0  0
    6.6472    0.9067    0.0000 C   0  0  0  0  0  0  0  0  0  0  0  0
   10.1588   -1.0000    0.0000 C   0  0  0  0  0  0  0  0  0  0  0  0
    5.9781    0.1636    0.0000 C   0  0  0  0  0  0  0  0  0  0  0  0
   10.1588   -2.0000    0.0000 C   0  0  0  0  0  0  0  0  0  0  0  0
   11.0249   -0.5000    0.0000 C   0  0  0  0  0  0  0  0  0  0  0  0
    4.9836    0.2681    0.0000 C   0  0  0  0  0  0  0  0  0  0  0  0
   11.0249   -2.5000    0.0000 C   0  0  0  0  0  0  0  0  0  0  0  0
   11.8909   -1.0000    0.0000 C   0  0  0  0  0  0  0  0  0  0  0  0
   11.8909   -2.0000    0.0000 C   0  0  0  0  0  0  0  0  0  0  0  0
    4.3958   -0.5409    0.0000 C   0  0  0  0  0  0  0  0  0  0  0  0
    4.5768    1.1817    0.0000 C   0  0  0  0  0  0  0  0  0  0  0  0
    3.4013   -0.4364    0.0000 C   0  0  0  0  0  0  0  0  0  0  0  0
    3.5823    1.2862    0.0000 C   0  0  0  0  0  0  0  0  0  0  0  0
    2.9945    0.4772    0.0000 C   0  0  0  0  0  0  0  0  0  0  0  0
    7.8898    1.3100    0.0000 H   0  0  0  0  0  0  0  0  0  0  0  0
    8.2147    2.5826    0.0000 H   0  0  0  0  0  0  0  0  0  0  0  0
    7.8162    1.8923    0.0000 H   0  0  0  0  0  0  0  0  0  0  0  0
    9.6913    2.9750    0.0000 H   0  0  0  0  0  0  0  0  0  0  0  0
    8.8943    2.9750    0.0000 H   0  0  0  0  0  0  0  0  0  0  0  0
   10.3709    0.4174    0.0000 H   0  0  0  0  0  0  0  0  0  0  0  0
   10.7694    1.1077    0.0000 H   0  0  0  0  0  0  0  0  0  0  0  0
   10.7694    1.8923    0.0000 H   0  0  0  0  0  0  0  0  0  0  0  0
   10.3709    2.5826    0.0000 H   0  0  0  0  0  0  0  0  0  0  0  0
    8.6822   -0.3923    0.0000 H   0  0  0  0  0  0  0  0  0  0  0  0
    9.0808   -1.0826    0.0000 H   0  0  0  0  0  0  0  0  0  0  0  0
    6.5183    1.5132    0.0000 H   0  0  0  0  0  0  0  0  0  0  0  0
    7.9170   -0.9094    0.0000 H   0  0  0  0  0  0  0  0  0  0  0  0
    9.6219   -2.3100    0.0000 H   0  0  0  0  0  0  0  0  0  0  0  0
   11.0249    0.1200    0.0000 H   0  0  0  0  0  0  0  0  0  0  0  0
   11.0249   -3.1200    0.0000 H   0  0  0  0  0  0  0  0  0  0  0  0
   12.4278   -0.6900    0.0000 H   0  0  0  0  0  0  0  0  0  0  0  0
   12.4278   -2.3100    0.0000 H   0  0  0  0  0  0  0  0  0  0  0  0
    4.6480   -1.1073    0.0000 H   0  0  0  0  0  0  0  0  0  0  0  0
    4.9413    1.6833    0.0000 H   0  0  0  0  0  0  0  0  0  0  0  0
    3.0368   -0.9380    0.0000 H   0  0  0  0  0  0  0  0  0  0  0  0
    3.3301    1.8526    0.0000 H   0  0  0  0  0  0  0  0  0  0  0  0
  1 25  1  0  0  0  0
  2  5  1  0  0  0  0
  2  8  1  0  0  0  0
  2 11  1  0  0  0  0
  3  4  1  0  0  0  0
  3 10  1  0  0  0  0
  3 38  1  0  0  0  0
  4 14  2  0  0  0  0
  5  6  1  0  0  0  0
  5 10  1  0  0  0  0
  5 26  1  0  0  0  0
  6  7  1  0  0  0  0
  6 27  1  0  0  0  0
  6 28  1  0  0  0  0
  7  9  1  0  0  0  0
  7 29  1  0  0  0  0
  7 30  1  0  0  0  0
  8  9  1  0  0  0  0
  8 31  1  0  0  0  0
  8 32  1  0  0  0  0
  9 33  1  0  0  0  0
  9 34  1  0  0  0  0
 10 12  2  0  0  0  0
 11 13  1  0  0  0  0
 11 35  1  0  0  0  0
 11 36  1  0  0  0  0
 12 14  1  0  0  0  0
 12 37  1  0  0  0  0
 13 15  2  0  0  0  0
 13 16  1  0  0  0  0
 14 17  1  0  0  0  0
 15 18  1  0  0  0  0
 15 39  1  0  0  0  0
 16 19  2  0  0  0  0
 16 40  1  0  0  0  0
 17 21  2  0  0  0  0
 17 22  1  0  0  0  0
 18 20  2  0  0  0  0
 18 41  1  0  0  0  0
 19 20  1  0  0  0  0
 19 42  1  0  0  0  0
 20 43  1  0  0  0  0
 21 23  1  0  0  0  0
 21 44  1  0  0  0  0
 22 24  2  0  0  0  0
 22 45  1  0  0  0  0
 23 25  2  0  0  0  0
 23 46  1  0  0  0  0
 24 25  1  0  0  0  0
 24 47  1  0  0  0  0
M  END
> <PUBCHEM_COMPOUND_CID>
10831786

> <PUBCHEM_COMPOUND_CANONICALIZED>
1

> <PUBCHEM_CACTVS_COMPLEXITY>
404

> <PUBCHEM_CACTVS_HBOND_ACCEPTOR>
2

> <PUBCHEM_CACTVS_HBOND_DONOR>
1

> <PUBCHEM_CACTVS_ROTATABLE_BOND>
4

> <PUBCHEM_CACTVS_SUBSKEYS>
AAADceB7AAAEAAAAAAAAAAAAAAAAAWAAAAA8YIAAAAAAAAAB0AAAHAIYAAAADCrBHiQwgJNjAACiAyRiQACSBAAgBwAYuSA4ZpgIYKKB09GUpAhgmACIyAcQgMAOBAAAAAAAAAAIAAAAAAAAAAAAAAAAAA==

> <PUBCHEM_IUPAC_OPENEYE_NAME>
1-benzyl-2-[3-(4-chlorophenyl)-1H-pyrazol-5-yl]piperidine

> <PUBCHEM_IUPAC_CAS_NAME>
2-[3-(4-chlorophenyl)-1H-pyrazol-5-yl]-1-(phenylmethyl)piperidine

> <PUBCHEM_IUPAC_NAME_MARKUP>
1-benzyl-2-[3-(4-chlorophenyl)-1<I>H</I>-pyrazol-5-yl]piperidine

> <PUBCHEM_IUPAC_NAME>
1-benzyl-2-[3-(4-chlorophenyl)-1H-pyrazol-5-yl]piperidine

> <PUBCHEM_IUPAC_SYSTEMATIC_NAME>
2-[3-(4-chlorophenyl)-1H-pyrazol-5-yl]-1-(phenylmethyl)piperidine

> <PUBCHEM_IUPAC_TRADITIONAL_NAME>
1-benzyl-2-[3-(4-chlorophenyl)-1H-pyrazol-5-yl]piperidine

> <PUBCHEM_IUPAC_INCHI>
InChI=1S/C21H22ClN3/c22-18-11-9-17(10-12-18)19-14-20(24-23-19)21-8-4-5-13-25(21)15-16-6-2-1-3-7-16/h1-3,6-7,9-12,14,21H,4-5,8,13,15H2,(H,23,24)

> <PUBCHEM_IUPAC_INCHIKEY>
HZAQPOKTYPPOTH-UHFFFAOYSA-N

> <PUBCHEM_XLOGP3_AA>
4.8

> <PUBCHEM_EXACT_MASS>
351.1502254

> <PUBCHEM_MOLECULAR_FORMULA>
C21H22ClN3

> <PUBCHEM_MOLECULAR_WEIGHT>
351.9

> <PUBCHEM_OPENEYE_CAN_SMILES>
C1CCN(C(C1)C2=CC(=NN2)C3=CC=C(C=C3)Cl)CC4=CC=CC=C4

> <PUBCHEM_OPENEYE_ISO_SMILES>
C1CCN(C(C1)C2=CC(=NN2)C3=CC=C(C=C3)Cl)CC4=CC=CC=C4

> <PUBCHEM_CACTVS_TPSA>
31.9

> <PUBCHEM_MONOISOTOPIC_WEIGHT>
351.1502254

> <PUBCHEM_TOTAL_CHARGE>
0

> <PUBCHEM_HEAVY_ATOM_COUNT>
25

> <PUBCHEM_ATOM_DEF_STEREO_COUNT>
0

> <PUBCHEM_ATOM_UDEF_STEREO_COUNT>
1

> <PUBCHEM_BOND_DEF_STEREO_COUNT>
0

> <PUBCHEM_BOND_UDEF_STEREO_COUNT>
0

> <PUBCHEM_ISOTOPIC_ATOM_COUNT>
0

> <PUBCHEM_COMPONENT_COUNT>
1

> <PUBCHEM_CACTVS_TAUTO_COUNT>
-1

> <PUBCHEM_COORDINATE_TYPE>
1
5
255

> <PUBCHEM_BONDANNOTATIONS>
10  12  8
12  14  8
13  15  8
13  16  8
15  18  8
16  19  8
17  21  8
17  22  8
18  20  8
19  20  8
21  23  8
22  24  8
23  25  8
24  25  8
3  10  8
3  4  8
4  14  8
5  10  3

$$$$
