122179562
  -OEChem-09292322002D

 86 87  0     1  0  0  0  0  0999 V2000
   10.5920   -1.5950    0.0000 O   0  0  0  0  0  0  0  0  0  0  0  0
    3.7320    6.4050    0.0000 O   0  0  0  0  0  0  0  0  0  0  0  0
   12.8759   -5.8700    0.0000 O   0  0  0  0  0  0  0  0  0  0  0  0
   11.2296   -6.4080    0.0000 O   0  0  0  0  0  0  0  0  0  0  0  0
    2.8660    4.9050    0.0000 O   0  0  0  0  0  0  0  0  0  0  0  0
    9.0084   -2.3998    0.0000 N   0  0  0  0  0  0  0  0  0  0  0  0
    6.3301    1.9050    0.0000 N   0  0  3  0  0  0  0  0  0  0  0  0
   11.5867   -4.7132    0.0000 N   0  0  0  0  0  0  0  0  0  0  0  0
    4.5981    4.9050    0.0000 N   0  0  0  0  0  0  0  0  0  0  0  0
    8.0622   -1.0950    0.0000 C   0  0  0  0  0  0  0  0  0  0  0  0
    7.1962   -0.5950    0.0000 C   0  0  0  0  0  0  0  0  0  0  0  0
    8.0622   -2.0950    0.0000 C   0  0  0  0  0  0  0  0  0  0  0  0
    7.1962    0.4050    0.0000 C   0  0  0  0  0  0  0  0  0  0  0  0
    9.0084   -0.7903    0.0000 C   0  0  0  0  0  0  0  0  0  0  0  0
    6.3301    0.9050    0.0000 C   0  0  0  0  0  0  0  0  0  0  0  0
    9.5920   -1.5950    0.0000 C   0  0  0  0  0  0  0  0  0  0  0  0
    9.3191   -3.3503    0.0000 C   0  0  0  0  0  0  0  0  0  0  0  0
    5.4641    2.4050    0.0000 C   0  0  0  0  0  0  0  0  0  0  0  0
    7.1962    2.4050    0.0000 C   0  0  0  0  0  0  0  0  0  0  0  0
    6.3301   -1.0950    0.0000 C   0  0  0  0  0  0  0  0  0  0  0  0
    7.1962   -2.5950    0.0000 C   0  0  0  0  0  0  0  0  0  0  0  0
   10.2976   -3.5565    0.0000 C   0  0  0  0  0  0  0  0  0  0  0  0
    5.4641    3.4050    0.0000 C   0  0  0  0  0  0  0  0  0  0  0  0
    6.3301   -2.0950    0.0000 C   0  0  0  0  0  0  0  0  0  0  0  0
    7.1962    3.4050    0.0000 C   0  0  0  0  0  0  0  0  0  0  0  0
   10.6082   -4.5070    0.0000 C   0  0  0  0  0  0  0  0  0  0  0  0
    4.5981    3.9050    0.0000 C   0  0  0  0  0  0  0  0  0  0  0  0
    8.0622    3.9050    0.0000 C   0  0  0  0  0  0  0  0  0  0  0  0
    2.8660    6.9050    0.0000 C   0  0  0  0  0  0  0  0  0  0  0  0
   13.1866   -6.8205    0.0000 C   0  0  0  0  0  0  0  0  0  0  0  0
   11.8974   -5.6638    0.0000 C   0  0  0  0  0  0  0  0  0  0  0  0
    3.7320    5.4050    0.0000 C   0  0  0  0  0  0  0  0  0  0  0  0
    2.0000    7.4050    0.0000 C   0  0  0  0  0  0  0  0  0  0  0  0
    3.3660    7.7710    0.0000 C   0  0  0  0  0  0  0  0  0  0  0  0
    2.3660    6.0390    0.0000 C   0  0  0  0  0  0  0  0  0  0  0  0
   13.4972   -7.7710    0.0000 C   0  0  0  0  0  0  0  0  0  0  0  0
   14.1371   -6.5098    0.0000 C   0  0  0  0  0  0  0  0  0  0  0  0
   12.2360   -7.1312    0.0000 C   0  0  0  0  0  0  0  0  0  0  0  0
    7.8067    0.2973    0.0000 H   0  0  0  0  0  0  0  0  0  0  0  0
    7.4082    0.9876    0.0000 H   0  0  0  0  0  0  0  0  0  0  0  0
    9.5458   -0.4811    0.0000 H   0  0  0  0  0  0  0  0  0  0  0  0
    8.7574   -0.2234    0.0000 H   0  0  0  0  0  0  0  0  0  0  0  0
    5.7196    1.0126    0.0000 H   0  0  0  0  0  0  0  0  0  0  0  0
    6.1181    0.3224    0.0000 H   0  0  0  0  0  0  0  0  0  0  0  0
    8.7052   -3.4376    0.0000 H   0  0  0  0  0  0  0  0  0  0  0  0
    9.2985   -3.9699    0.0000 H   0  0  0  0  0  0  0  0  0  0  0  0
    4.8535    2.5126    0.0000 H   0  0  0  0  0  0  0  0  0  0  0  0
    5.2520    1.8224    0.0000 H   0  0  0  0  0  0  0  0  0  0  0  0
    7.4082    1.8224    0.0000 H   0  0  0  0  0  0  0  0  0  0  0  0
    7.8067    2.5126    0.0000 H   0  0  0  0  0  0  0  0  0  0  0  0
    5.7932   -0.7850    0.0000 H   0  0  0  0  0  0  0  0  0  0  0  0
    7.1962   -3.2150    0.0000 H   0  0  0  0  0  0  0  0  0  0  0  0
   10.9114   -3.4691    0.0000 H   0  0  0  0  0  0  0  0  0  0  0  0
   10.3181   -2.9368    0.0000 H   0  0  0  0  0  0  0  0  0  0  0  0
    6.0747    3.2973    0.0000 H   0  0  0  0  0  0  0  0  0  0  0  0
    5.6762    3.9876    0.0000 H   0  0  0  0  0  0  0  0  0  0  0  0
    5.7932   -2.4050    0.0000 H   0  0  0  0  0  0  0  0  0  0  0  0
    6.9841    3.9876    0.0000 H   0  0  0  0  0  0  0  0  0  0  0  0
    6.5856    3.2973    0.0000 H   0  0  0  0  0  0  0  0  0  0  0  0
    9.9944   -4.5944    0.0000 H   0  0  0  0  0  0  0  0  0  0  0  0
   10.5877   -5.1267    0.0000 H   0  0  0  0  0  0  0  0  0  0  0  0
    3.9875    4.0126    0.0000 H   0  0  0  0  0  0  0  0  0  0  0  0
    4.3860    3.3224    0.0000 H   0  0  0  0  0  0  0  0  0  0  0  0
    8.3722    3.3680    0.0000 H   0  0  0  0  0  0  0  0  0  0  0  0
    8.5991    4.2150    0.0000 H   0  0  0  0  0  0  0  0  0  0  0  0
    7.7522    4.4419    0.0000 H   0  0  0  0  0  0  0  0  0  0  0  0
   12.0008   -4.2518    0.0000 H   0  0  0  0  0  0  0  0  0  0  0  0
    5.1350    5.2150    0.0000 H   0  0  0  0  0  0  0  0  0  0  0  0
    2.3100    7.9419    0.0000 H   0  0  0  0  0  0  0  0  0  0  0  0
    1.4631    7.7150    0.0000 H   0  0  0  0  0  0  0  0  0  0  0  0
    1.6900    6.8680    0.0000 H   0  0  0  0  0  0  0  0  0  0  0  0
    3.9030    7.4610    0.0000 H   0  0  0  0  0  0  0  0  0  0  0  0
    3.6760    8.3079    0.0000 H   0  0  0  0  0  0  0  0  0  0  0  0
    2.8291    8.0810    0.0000 H   0  0  0  0  0  0  0  0  0  0  0  0
    1.8291    6.3490    0.0000 H   0  0  0  0  0  0  0  0  0  0  0  0
    2.0560    5.5020    0.0000 H   0  0  0  0  0  0  0  0  0  0  0  0
    2.9030    5.7290    0.0000 H   0  0  0  0  0  0  0  0  0  0  0  0
   12.9079   -7.9636    0.0000 H   0  0  0  0  0  0  0  0  0  0  0  0
   13.6898   -8.3603    0.0000 H   0  0  0  0  0  0  0  0  0  0  0  0
   14.0865   -7.5784    0.0000 H   0  0  0  0  0  0  0  0  0  0  0  0
   14.3297   -7.0992    0.0000 H   0  0  0  0  0  0  0  0  0  0  0  0
   14.7264   -6.3172    0.0000 H   0  0  0  0  0  0  0  0  0  0  0  0
   13.9445   -5.9205    0.0000 H   0  0  0  0  0  0  0  0  0  0  0  0
   12.0434   -6.5418    0.0000 H   0  0  0  0  0  0  0  0  0  0  0  0
   11.6467   -7.3238    0.0000 H   0  0  0  0  0  0  0  0  0  0  0  0
   12.4287   -7.7205    0.0000 H   0  0  0  0  0  0  0  0  0  0  0  0
  1 16  2  0  0  0  0
  2 29  1  0  0  0  0
  2 32  1  0  0  0  0
  3 30  1  0  0  0  0
  3 31  1  0  0  0  0
  4 31  2  0  0  0  0
  5 32  2  0  0  0  0
  6 12  1  0  0  0  0
  6 16  1  0  0  0  0
  6 17  1  0  0  0  0
  7 15  1  0  0  0  0
  7 18  1  0  0  0  0
  7 19  1  0  0  0  0
  8 26  1  0  0  0  0
  8 31  1  0  0  0  0
  8 67  1  0  0  0  0
  9 27  1  0  0  0  0
  9 32  1  0  0  0  0
  9 68  1  0  0  0  0
 10 11  2  0  0  0  0
 10 12  1  0  0  0  0
 10 14  1  0  0  0  0
 11 13  1  0  0  0  0
 11 20  1  0  0  0  0
 12 21  2  0  0  0  0
 13 15  1  0  0  0  0
 13 39  1  0  0  0  0
 13 40  1  0  0  0  0
 14 16  1  0  0  0  0
 14 41  1  0  0  0  0
 14 42  1  0  0  0  0
 15 43  1  0  0  0  0
 15 44  1  0  0  0  0
 17 22  1  0  0  0  0
 17 45  1  0  0  0  0
 17 46  1  0  0  0  0
 18 23  1  0  0  0  0
 18 47  1  0  0  0  0
 18 48  1  0  0  0  0
 19 25  1  0  0  0  0
 19 49  1  0  0  0  0
 19 50  1  0  0  0  0
 20 24  2  0  0  0  0
 20 51  1  0  0  0  0
 21 24  1  0  0  0  0
 21 52  1  0  0  0  0
 22 26  1  0  0  0  0
 22 53  1  0  0  0  0
 22 54  1  0  0  0  0
 23 27  1  0  0  0  0
 23 55  1  0  0  0  0
 23 56  1  0  0  0  0
 24 57  1  0  0  0  0
 25 28  1  0  0  0  0
 25 58  1  0  0  0  0
 25 59  1  0  0  0  0
 26 60  1  0  0  0  0
 26 61  1  0  0  0  0
 27 62  1  0  0  0  0
 27 63  1  0  0  0  0
 28 64  1  0  0  0  0
 28 65  1  0  0  0  0
 28 66  1  0  0  0  0
 29 33  1  0  0  0  0
 29 34  1  0  0  0  0
 29 35  1  0  0  0  0
 30 36  1  0  0  0  0
 30 37  1  0  0  0  0
 30 38  1  0  0  0  0
 33 69  1  0  0  0  0
 33 70  1  0  0  0  0
 33 71  1  0  0  0  0
 34 72  1  0  0  0  0
 34 73  1  0  0  0  0
 34 74  1  0  0  0  0
 35 75  1  0  0  0  0
 35 76  1  0  0  0  0
 35 77  1  0  0  0  0
 36 78  1  0  0  0  0
 36 79  1  0  0  0  0
 36 80  1  0  0  0  0
 37 81  1  0  0  0  0
 37 82  1  0  0  0  0
 37 83  1  0  0  0  0
 38 84  1  0  0  0  0
 38 85  1  0  0  0  0
 38 86  1  0  0  0  0
M  END
> <PUBCHEM_COMPOUND_CID>
122179562

> <PUBCHEM_COMPOUND_CANONICALIZED>
1

> <PUBCHEM_CACTVS_COMPLEXITY>
761

> <PUBCHEM_CACTVS_HBOND_ACCEPTOR>
6

> <PUBCHEM_CACTVS_HBOND_DONOR>
2

> <PUBCHEM_CACTVS_ROTATABLE_BOND>
17

> <PUBCHEM_CACTVS_SUBSKEYS>
AAADcfB7uAAAAAAAAAAAAAAAAAAAAWAAAAAwAAAAAAAAAFgBAAAAHgAQAAAADEzBmAQyyIPABACIAiVSWACCAAAhAgAIiIEIZIkIIDLA1ZGMIAhglgDIyAcciICOgAAAQAASAAAAAACAACQAAAAAAAAAAA==

> <PUBCHEM_IUPAC_OPENEYE_NAME>
tert-butyl N-[3-[2-[1-[3-(tert-butoxycarbonylamino)propyl]-2-oxo-indolin-4-yl]ethyl-propyl-amino]propyl]carbamate

> <PUBCHEM_IUPAC_CAS_NAME>
N-[3-[2-[1-[3-[[(2-methylpropan-2-yl)oxy-oxomethyl]amino]propyl]-2-oxo-3H-indol-4-yl]ethyl-propylamino]propyl]carbamic acid tert-butyl ester

> <PUBCHEM_IUPAC_NAME_MARKUP>
<I>tert</I>-butyl <I>N</I>-[3-[2-[1-[3-[(2-methylpropan-2-yl)oxycarbonylamino]propyl]-2-oxo-3<I>H</I>-indol-4-yl]ethyl-propylamino]propyl]carbamate

> <PUBCHEM_IUPAC_NAME>
tert-butyl N-[3-[2-[1-[3-[(2-methylpropan-2-yl)oxycarbonylamino]propyl]-2-oxo-3H-indol-4-yl]ethyl-propylamino]propyl]carbamate

> <PUBCHEM_IUPAC_SYSTEMATIC_NAME>
tert-butyl N-[3-[2-[1-[3-[(2-methylpropan-2-yl)oxycarbonylamino]propyl]-2-oxidanylidene-3H-indol-4-yl]ethyl-propyl-amino]propyl]carbamate

> <PUBCHEM_IUPAC_TRADITIONAL_NAME>
N-[3-[2-[1-[3-(tert-butoxycarbonylamino)propyl]-2-keto-indolin-4-yl]ethyl-propyl-amino]propyl]carbamic acid tert-butyl ester

> <PUBCHEM_IUPAC_INCHI>
InChI=1S/C29H48N4O5/c1-8-17-32(18-10-15-30-26(35)37-28(2,3)4)20-14-22-12-9-13-24-23(22)21-25(34)33(24)19-11-16-31-27(36)38-29(5,6)7/h9,12-13H,8,10-11,14-21H2,1-7H3,(H,30,35)(H,31,36)

> <PUBCHEM_IUPAC_INCHIKEY>
QRCAJERBDVJCKJ-UHFFFAOYSA-N

> <PUBCHEM_XLOGP3_AA>
4.3

> <PUBCHEM_EXACT_MASS>
532.36247064

> <PUBCHEM_MOLECULAR_FORMULA>
C29H48N4O5

> <PUBCHEM_MOLECULAR_WEIGHT>
532.7

> <PUBCHEM_OPENEYE_CAN_SMILES>
CCCN(CCCNC(=O)OC(C)(C)C)CCC1=C2CC(=O)N(C2=CC=C1)CCCNC(=O)OC(C)(C)C

> <PUBCHEM_OPENEYE_ISO_SMILES>
CCCN(CCCNC(=O)OC(C)(C)C)CCC1=C2CC(=O)N(C2=CC=C1)CCCNC(=O)OC(C)(C)C

> <PUBCHEM_CACTVS_TPSA>
100

> <PUBCHEM_MONOISOTOPIC_WEIGHT>
532.36247064

> <PUBCHEM_TOTAL_CHARGE>
0

> <PUBCHEM_HEAVY_ATOM_COUNT>
38

> <PUBCHEM_ATOM_DEF_STEREO_COUNT>
0

> <PUBCHEM_ATOM_UDEF_STEREO_COUNT>
0

> <PUBCHEM_BOND_DEF_STEREO_COUNT>
0

> <PUBCHEM_BOND_UDEF_STEREO_COUNT>
0

> <PUBCHEM_ISOTOPIC_ATOM_COUNT>
0

> <PUBCHEM_COMPONENT_COUNT>
1

> <PUBCHEM_CACTVS_TAUTO_COUNT>
-1

> <PUBCHEM_COORDINATE_TYPE>
1
5
255

> <PUBCHEM_BONDANNOTATIONS>
10  11  8
10  12  8
11  20  8
12  21  8
20  24  8
21  24  8

$$$$
