137653034
  -OEChem-09292322002D

 73 77  0     1  0  0  0  0  0999 V2000
    4.8714    5.3679    0.0000 O   0  0  0  0  0  0  0  0  0  0  0  0
    9.8622   -2.3777    0.0000 O   0  0  0  0  0  0  0  0  0  0  0  0
    4.6660    3.6223    0.0000 N   0  0  0  0  0  0  0  0  0  0  0  0
    6.3981    1.6223    0.0000 N   0  0  3  0  0  0  0  0  0  0  0  0
    3.3073    4.5662    0.0000 N   0  0  0  0  0  0  0  0  0  0  0  0
    8.1301   -2.3777    0.0000 N   0  0  0  0  0  0  0  0  0  0  0  0
    8.1914   -4.4614    0.0000 N   0  0  0  0  0  0  0  0  0  0  0  0
    5.5321    2.1223    0.0000 C   0  0  1  0  0  0  0  0  0  0  0  0
    5.5321    3.1223    0.0000 C   0  0  0  0  0  0  0  0  0  0  0  0
    4.6660    1.6223    0.0000 C   0  0  0  0  0  0  0  0  0  0  0  0
    3.8000    3.1223    0.0000 C   0  0  0  0  0  0  0  0  0  0  0  0
    3.8000    2.1223    0.0000 C   0  0  0  0  0  0  0  0  0  0  0  0
    2.9061    3.6569    0.0000 C   0  0  0  0  0  0  0  0  0  0  0  0
    6.3981    0.6223    0.0000 C   0  0  0  0  0  0  0  0  0  0  0  0
    4.3009    4.5466    0.0000 C   0  0  0  0  0  0  0  0  0  0  0  0
    7.2641    2.1223    0.0000 C   0  0  0  0  0  0  0  0  0  0  0  0
    2.9061    1.5876    0.0000 C   0  0  0  0  0  0  0  0  0  0  0  0
    7.2641    0.1223    0.0000 C   0  0  0  0  0  0  0  0  0  0  0  0
    2.7696    5.4093    0.0000 C   0  0  0  0  0  0  0  0  0  0  0  0
    2.0000    3.1431    0.0000 C   0  0  0  0  0  0  0  0  0  0  0  0
    8.1301    1.6223    0.0000 C   0  0  0  0  0  0  0  0  0  0  0  0
    2.0000    2.1014    0.0000 C   0  0  0  0  0  0  0  0  0  0  0  0
    7.2641   -0.8777    0.0000 C   0  0  0  0  0  0  0  0  0  0  0  0
    3.2308    6.2965    0.0000 C   0  0  0  0  0  0  0  0  0  0  0  0
    8.9962    2.1223    0.0000 C   0  0  0  0  0  0  0  0  0  0  0  0
    8.1301   -1.3777    0.0000 C   0  0  0  0  0  0  0  0  0  0  0  0
    2.6931    7.1396    0.0000 C   0  0  0  0  0  0  0  0  0  0  0  0
    8.9962   -2.8777    0.0000 C   0  0  0  0  0  0  0  0  0  0  0  0
    8.9962   -3.8777    0.0000 C   0  0  0  0  0  0  0  0  0  0  0  0
    9.8009   -4.4614    0.0000 C   0  0  0  0  0  0  0  0  0  0  0  0
    8.4962   -5.4076    0.0000 C   0  0  0  0  0  0  0  0  0  0  0  0
    9.4962   -5.4076    0.0000 C   0  0  0  0  0  0  0  0  0  0  0  0
    7.9962   -6.2736    0.0000 C   0  0  0  0  0  0  0  0  0  0  0  0
    9.9962   -6.2736    0.0000 C   0  0  0  0  0  0  0  0  0  0  0  0
    8.4962   -7.1396    0.0000 C   0  0  0  0  0  0  0  0  0  0  0  0
    9.4962   -7.1396    0.0000 C   0  0  0  0  0  0  0  0  0  0  0  0
    5.5321    1.5023    0.0000 H   0  0  0  0  0  0  0  0  0  0  0  0
    6.1426    3.0146    0.0000 H   0  0  0  0  0  0  0  0  0  0  0  0
    5.7441    3.7049    0.0000 H   0  0  0  0  0  0  0  0  0  0  0  0
    4.2675    1.1473    0.0000 H   0  0  0  0  0  0  0  0  0  0  0  0
    5.0646    1.1473    0.0000 H   0  0  0  0  0  0  0  0  0  0  0  0
    5.7875    0.7299    0.0000 H   0  0  0  0  0  0  0  0  0  0  0  0
    6.1860    0.0397    0.0000 H   0  0  0  0  0  0  0  0  0  0  0  0
    7.6626    2.5972    0.0000 H   0  0  0  0  0  0  0  0  0  0  0  0
    6.8656    2.5972    0.0000 H   0  0  0  0  0  0  0  0  0  0  0  0
    2.9132    0.9676    0.0000 H   0  0  0  0  0  0  0  0  0  0  0  0
    7.8747    0.0146    0.0000 H   0  0  0  0  0  0  0  0  0  0  0  0
    7.4762    0.7049    0.0000 H   0  0  0  0  0  0  0  0  0  0  0  0
    2.2775    5.7864    0.0000 H   0  0  0  0  0  0  0  0  0  0  0  0
    2.3127    4.9902    0.0000 H   0  0  0  0  0  0  0  0  0  0  0  0
    1.4643    3.4551    0.0000 H   0  0  0  0  0  0  0  0  0  0  0  0
    7.7316    1.1473    0.0000 H   0  0  0  0  0  0  0  0  0  0  0  0
    8.5287    1.1473    0.0000 H   0  0  0  0  0  0  0  0  0  0  0  0
    1.4643    1.7894    0.0000 H   0  0  0  0  0  0  0  0  0  0  0  0
    6.6535   -0.7701    0.0000 H   0  0  0  0  0  0  0  0  0  0  0  0
    7.0521   -1.4604    0.0000 H   0  0  0  0  0  0  0  0  0  0  0  0
    3.7229    5.9193    0.0000 H   0  0  0  0  0  0  0  0  0  0  0  0
    3.6877    6.7156    0.0000 H   0  0  0  0  0  0  0  0  0  0  0  0
    9.3062    1.5853    0.0000 H   0  0  0  0  0  0  0  0  0  0  0  0
    9.5331    2.4323    0.0000 H   0  0  0  0  0  0  0  0  0  0  0  0
    8.6862    2.6592    0.0000 H   0  0  0  0  0  0  0  0  0  0  0  0
    8.7407   -1.4854    0.0000 H   0  0  0  0  0  0  0  0  0  0  0  0
    8.3422   -0.7951    0.0000 H   0  0  0  0  0  0  0  0  0  0  0  0
    3.2158    7.4730    0.0000 H   0  0  0  0  0  0  0  0  0  0  0  0
    2.3597    7.6623    0.0000 H   0  0  0  0  0  0  0  0  0  0  0  0
    2.1704    6.8062    0.0000 H   0  0  0  0  0  0  0  0  0  0  0  0
    7.5932   -2.6877    0.0000 H   0  0  0  0  0  0  0  0  0  0  0  0
    7.6021   -4.2687    0.0000 H   0  0  0  0  0  0  0  0  0  0  0  0
   10.3902   -4.2687    0.0000 H   0  0  0  0  0  0  0  0  0  0  0  0
    7.3762   -6.2736    0.0000 H   0  0  0  0  0  0  0  0  0  0  0  0
   10.6162   -6.2736    0.0000 H   0  0  0  0  0  0  0  0  0  0  0  0
    8.1862   -7.6766    0.0000 H   0  0  0  0  0  0  0  0  0  0  0  0
    9.8062   -7.6766    0.0000 H   0  0  0  0  0  0  0  0  0  0  0  0
  1 15  2  0  0  0  0
  2 28  2  0  0  0  0
  3  9  1  0  0  0  0
  3 11  1  0  0  0  0
  3 15  1  0  0  0  0
  8  4  1  6  0  0  0
  4 14  1  0  0  0  0
  4 16  1  0  0  0  0
  5 13  1  0  0  0  0
  5 15  1  0  0  0  0
  5 19  1  0  0  0  0
  6 26  1  0  0  0  0
  6 28  1  0  0  0  0
  6 67  1  0  0  0  0
  7 29  1  0  0  0  0
  7 31  1  0  0  0  0
  7 68  1  0  0  0  0
  8  9  1  0  0  0  0
  8 10  1  0  0  0  0
  8 37  1  0  0  0  0
  9 38  1  0  0  0  0
  9 39  1  0  0  0  0
 10 12  1  0  0  0  0
 10 40  1  0  0  0  0
 10 41  1  0  0  0  0
 11 12  2  0  0  0  0
 11 13  1  0  0  0  0
 12 17  1  0  0  0  0
 13 20  2  0  0  0  0
 14 18  1  0  0  0  0
 14 42  1  0  0  0  0
 14 43  1  0  0  0  0
 16 21  1  0  0  0  0
 16 44  1  0  0  0  0
 16 45  1  0  0  0  0
 17 22  2  0  0  0  0
 17 46  1  0  0  0  0
 18 23  1  0  0  0  0
 18 47  1  0  0  0  0
 18 48  1  0  0  0  0
 19 24  1  0  0  0  0
 19 49  1  0  0  0  0
 19 50  1  0  0  0  0
 20 22  1  0  0  0  0
 20 51  1  0  0  0  0
 21 25  1  0  0  0  0
 21 52  1  0  0  0  0
 21 53  1  0  0  0  0
 22 54  1  0  0  0  0
 23 26  1  0  0  0  0
 23 55  1  0  0  0  0
 23 56  1  0  0  0  0
 24 27  1  0  0  0  0
 24 57  1  0  0  0  0
 24 58  1  0  0  0  0
 25 59  1  0  0  0  0
 25 60  1  0  0  0  0
 25 61  1  0  0  0  0
 26 62  1  0  0  0  0
 26 63  1  0  0  0  0
 27 64  1  0  0  0  0
 27 65  1  0  0  0  0
 27 66  1  0  0  0  0
 28 29  1  0  0  0  0
 29 30  2  0  0  0  0
 30 32  1  0  0  0  0
 30 69  1  0  0  0  0
 31 32  1  0  0  0  0
 31 33  2  0  0  0  0
 32 34  2  0  0  0  0
 33 35  1  0  0  0  0
 33 70  1  0  0  0  0
 34 36  1  0  0  0  0
 34 71  1  0  0  0  0
 35 36  2  0  0  0  0
 35 72  1  0  0  0  0
 36 73  1  0  0  0  0
M  END
> <PUBCHEM_COMPOUND_CID>
137653034

> <PUBCHEM_COMPOUND_CANONICALIZED>
1

> <PUBCHEM_CACTVS_COMPLEXITY>
762

> <PUBCHEM_CACTVS_HBOND_ACCEPTOR>
3

> <PUBCHEM_CACTVS_HBOND_DONOR>
2

> <PUBCHEM_CACTVS_ROTATABLE_BOND>
11

> <PUBCHEM_CACTVS_SUBSKEYS>
AAADcfB7sAAAAAAAAAAAAAAAAAAAAWLAAAA8YIAAAAAAAFix9AAAHgAQAAAADCjBngQzwPPJkACoAyVyVACCgCAnAiAImaG4dNiIYPLAlbGUIQholgLIyacYiYCeAAAAQAACACAAAACAAAQAQAAAAAAAAA==

> <PUBCHEM_IUPAC_OPENEYE_NAME>
N-[4-[[(10R)-2-oxo-3-propyl-1,3-diazatricyclo[6.3.1.04,12]dodeca-4,6,8(12)-trien-10-yl]-propyl-amino]butyl]-1H-indole-2-carboxamide

> <PUBCHEM_IUPAC_CAS_NAME>
N-[4-[[(10R)-2-oxo-3-propyl-1,3-diazatricyclo[6.3.1.04,12]dodeca-4,6,8(12)-trien-10-yl]-propylamino]butyl]-1H-indole-2-carboxamide

> <PUBCHEM_IUPAC_NAME_MARKUP>
<I>N</I>-[4-[[(10<I>R</I>)-2-oxo-3-propyl-1,3-diazatricyclo[6.3.1.0<SUP>4,12</SUP>]dodeca-4,6,8(12)-trien-10-yl]-propylamino]butyl]-1<I>H</I>-indole-2-carboxamide

> <PUBCHEM_IUPAC_NAME>
N-[4-[[(10R)-2-oxo-3-propyl-1,3-diazatricyclo[6.3.1.04,12]dodeca-4,6,8(12)-trien-10-yl]-propylamino]butyl]-1H-indole-2-carboxamide

> <PUBCHEM_IUPAC_SYSTEMATIC_NAME>
N-[4-[[(10R)-2-oxidanylidene-3-propyl-1,3-diazatricyclo[6.3.1.04,12]dodeca-4,6,8(12)-trien-10-yl]-propyl-amino]butyl]-1H-indole-2-carboxamide

> <PUBCHEM_IUPAC_TRADITIONAL_NAME>
N-[4-[[(10R)-2-keto-3-propyl-1,3-diazatricyclo[6.3.1.04,12]dodeca-4,6,8(12)-trien-10-yl]-propyl-amino]butyl]-1H-indole-2-carboxamide

> <PUBCHEM_IUPAC_INCHI>
InChI=1S/C29H37N5O2/c1-3-15-32(17-8-7-14-30-28(35)25-19-21-10-5-6-12-24(21)31-25)23-18-22-11-9-13-26-27(22)34(20-23)29(36)33(26)16-4-2/h5-6,9-13,19,23,31H,3-4,7-8,14-18,20H2,1-2H3,(H,30,35)/t23-/m1/s1

> <PUBCHEM_IUPAC_INCHIKEY>
HHDJZPNFXJLNJK-HSZRJFAPSA-N

> <PUBCHEM_XLOGP3_AA>
5

> <PUBCHEM_EXACT_MASS>
487.29472544

> <PUBCHEM_MOLECULAR_FORMULA>
C29H37N5O2

> <PUBCHEM_MOLECULAR_WEIGHT>
487.6

> <PUBCHEM_OPENEYE_CAN_SMILES>
CCCN1C2=CC=CC3=C2N(C1=O)CC(C3)N(CCC)CCCCNC(=O)C4=CC5=CC=CC=C5N4

> <PUBCHEM_OPENEYE_ISO_SMILES>
CCCN1C2=CC=CC3=C2N(C1=O)C[C@@H](C3)N(CCC)CCCCNC(=O)C4=CC5=CC=CC=C5N4

> <PUBCHEM_CACTVS_TPSA>
71.7

> <PUBCHEM_MONOISOTOPIC_WEIGHT>
487.29472544

> <PUBCHEM_TOTAL_CHARGE>
0

> <PUBCHEM_HEAVY_ATOM_COUNT>
36

> <PUBCHEM_ATOM_DEF_STEREO_COUNT>
1

> <PUBCHEM_ATOM_UDEF_STEREO_COUNT>
0

> <PUBCHEM_BOND_DEF_STEREO_COUNT>
0

> <PUBCHEM_BOND_UDEF_STEREO_COUNT>
0

> <PUBCHEM_ISOTOPIC_ATOM_COUNT>
0

> <PUBCHEM_COMPONENT_COUNT>
1

> <PUBCHEM_CACTVS_TAUTO_COUNT>
-1

> <PUBCHEM_COORDINATE_TYPE>
1
5
255

> <PUBCHEM_BONDANNOTATIONS>
11  12  8
11  13  8
12  17  8
13  20  8
17  22  8
20  22  8
29  30  8
3  11  8
3  15  8
30  32  8
31  32  8
31  33  8
32  34  8
33  35  8
34  36  8
35  36  8
8  4  6
5  13  8
5  15  8
7  29  8
7  31  8

$$$$
