10502670
  -OEChem-09292322132D

 68 71  0     1  0  0  0  0  0999 V2000
    4.0724    3.9162    0.0000 F   0  0  0  0  0  0  0  0  0  0  0  0
    9.5693   -0.4521    0.0000 O   0  0  0  0  0  0  0  0  0  0  0  0
    9.5693   -3.9162    0.0000 O   0  0  0  0  0  0  0  0  0  0  0  0
    9.5693   -2.1841    0.0000 N   0  0  0  0  0  0  0  0  0  0  0  0
    5.5693   -0.4521    0.0000 N   0  0  3  0  0  0  0  0  0  0  0  0
   11.5693   -2.1841    0.0000 C   0  0  0  0  0  0  0  0  0  0  0  0
   12.1570   -1.3751    0.0000 C   0  0  0  0  0  0  0  0  0  0  0  0
   12.1570   -2.9932    0.0000 C   0  0  0  0  0  0  0  0  0  0  0  0
   13.1081   -1.6841    0.0000 C   0  0  0  0  0  0  0  0  0  0  0  0
   13.1081   -2.6841    0.0000 C   0  0  0  0  0  0  0  0  0  0  0  0
   11.0693   -1.3181    0.0000 C   0  0  0  0  0  0  0  0  0  0  0  0
   11.0693   -3.0502    0.0000 C   0  0  0  0  0  0  0  0  0  0  0  0
   10.0693   -1.3181    0.0000 C   0  0  0  0  0  0  0  0  0  0  0  0
   10.0693   -3.0502    0.0000 C   0  0  0  0  0  0  0  0  0  0  0  0
    8.5693   -2.1841    0.0000 C   0  0  0  0  0  0  0  0  0  0  0  0
    5.0693    0.4139    0.0000 C   0  0  2  0  0  0  0  0  0  0  0  0
    8.0693   -1.3181    0.0000 C   0  0  0  0  0  0  0  0  0  0  0  0
    7.0693   -1.3181    0.0000 C   0  0  0  0  0  0  0  0  0  0  0  0
    5.5693    1.2800    0.0000 C   0  0  0  0  0  0  0  0  0  0  0  0
    6.5693   -0.4521    0.0000 C   0  0  0  0  0  0  0  0  0  0  0  0
    4.0693    0.4139    0.0000 C   0  0  0  0  0  0  0  0  0  0  0  0
    5.0693    2.1460    0.0000 C   0  0  0  0  0  0  0  0  0  0  0  0
    3.5693    1.2800    0.0000 C   0  0  0  0  0  0  0  0  0  0  0  0
    5.0693   -1.3181    0.0000 C   0  0  0  0  0  0  0  0  0  0  0  0
    4.0693    2.1460    0.0000 C   0  0  0  0  0  0  0  0  0  0  0  0
    4.0693   -1.3181    0.0000 C   0  0  0  0  0  0  0  0  0  0  0  0
    2.5278    1.2639    0.0000 C   0  0  0  0  0  0  0  0  0  0  0  0
    3.5624    3.0560    0.0000 C   0  0  0  0  0  0  0  0  0  0  0  0
    2.0000    2.1620    0.0000 C   0  0  0  0  0  0  0  0  0  0  0  0
    2.5208    3.0640    0.0000 C   0  0  0  0  0  0  0  0  0  0  0  0
    3.5693   -2.1841    0.0000 C   0  0  0  0  0  0  0  0  0  0  0  0
   12.4092   -0.8087    0.0000 H   0  0  0  0  0  0  0  0  0  0  0  0
   11.6201   -1.0651    0.0000 H   0  0  0  0  0  0  0  0  0  0  0  0
   11.6201   -3.3032    0.0000 H   0  0  0  0  0  0  0  0  0  0  0  0
   12.4092   -3.5596    0.0000 H   0  0  0  0  0  0  0  0  0  0  0  0
   13.7247   -1.7489    0.0000 H   0  0  0  0  0  0  0  0  0  0  0  0
   13.2370   -1.0777    0.0000 H   0  0  0  0  0  0  0  0  0  0  0  0
   13.2370   -3.2906    0.0000 H   0  0  0  0  0  0  0  0  0  0  0  0
   13.7247   -2.6193    0.0000 H   0  0  0  0  0  0  0  0  0  0  0  0
   11.6519   -1.1060    0.0000 H   0  0  0  0  0  0  0  0  0  0  0  0
   10.9616   -0.7075    0.0000 H   0  0  0  0  0  0  0  0  0  0  0  0
   10.9616   -3.6607    0.0000 H   0  0  0  0  0  0  0  0  0  0  0  0
   11.6519   -3.2622    0.0000 H   0  0  0  0  0  0  0  0  0  0  0  0
    7.9866   -2.3962    0.0000 H   0  0  0  0  0  0  0  0  0  0  0  0
    8.6769   -2.7947    0.0000 H   0  0  0  0  0  0  0  0  0  0  0  0
    4.7593   -0.1230    0.0000 H   0  0  0  0  0  0  0  0  0  0  0  0
    8.6519   -1.1060    0.0000 H   0  0  0  0  0  0  0  0  0  0  0  0
    7.9616   -0.7075    0.0000 H   0  0  0  0  0  0  0  0  0  0  0  0
    6.0442    0.8814    0.0000 H   0  0  0  0  0  0  0  0  0  0  0  0
    6.0442    1.6785    0.0000 H   0  0  0  0  0  0  0  0  0  0  0  0
    6.4866   -1.5302    0.0000 H   0  0  0  0  0  0  0  0  0  0  0  0
    7.1769   -1.9287    0.0000 H   0  0  0  0  0  0  0  0  0  0  0  0
    7.1519   -0.2400    0.0000 H   0  0  0  0  0  0  0  0  0  0  0  0
    6.4616    0.1585    0.0000 H   0  0  0  0  0  0  0  0  0  0  0  0
    3.4866    0.2019    0.0000 H   0  0  0  0  0  0  0  0  0  0  0  0
    4.1769   -0.1966    0.0000 H   0  0  0  0  0  0  0  0  0  0  0  0
    5.6519    2.3580    0.0000 H   0  0  0  0  0  0  0  0  0  0  0  0
    4.9616    2.7566    0.0000 H   0  0  0  0  0  0  0  0  0  0  0  0
    4.9616   -1.9287    0.0000 H   0  0  0  0  0  0  0  0  0  0  0  0
    5.6519   -1.5302    0.0000 H   0  0  0  0  0  0  0  0  0  0  0  0
    4.1769   -0.7075    0.0000 H   0  0  0  0  0  0  0  0  0  0  0  0
    3.4866   -1.1060    0.0000 H   0  0  0  0  0  0  0  0  0  0  0  0
    2.2240    0.7234    0.0000 H   0  0  0  0  0  0  0  0  0  0  0  0
    1.3800    2.1596    0.0000 H   0  0  0  0  0  0  0  0  0  0  0  0
    2.2129    3.6022    0.0000 H   0  0  0  0  0  0  0  0  0  0  0  0
    3.0323   -1.8741    0.0000 H   0  0  0  0  0  0  0  0  0  0  0  0
    3.2593   -2.7211    0.0000 H   0  0  0  0  0  0  0  0  0  0  0  0
    4.1062   -2.4941    0.0000 H   0  0  0  0  0  0  0  0  0  0  0  0
  1 28  1  0  0  0  0
  2 13  2  0  0  0  0
  3 14  2  0  0  0  0
  4 13  1  0  0  0  0
  4 14  1  0  0  0  0
  4 15  1  0  0  0  0
 16  5  1  1  0  0  0
  5 20  1  0  0  0  0
  5 24  1  0  0  0  0
  6  7  1  0  0  0  0
  6  8  1  0  0  0  0
  6 11  1  0  0  0  0
  6 12  1  0  0  0  0
  7  9  1  0  0  0  0
  7 32  1  0  0  0  0
  7 33  1  0  0  0  0
  8 10  1  0  0  0  0
  8 34  1  0  0  0  0
  8 35  1  0  0  0  0
  9 10  1  0  0  0  0
  9 36  1  0  0  0  0
  9 37  1  0  0  0  0
 10 38  1  0  0  0  0
 10 39  1  0  0  0  0
 11 13  1  0  0  0  0
 11 40  1  0  0  0  0
 11 41  1  0  0  0  0
 12 14  1  0  0  0  0
 12 42  1  0  0  0  0
 12 43  1  0  0  0  0
 15 17  1  0  0  0  0
 15 44  1  0  0  0  0
 15 45  1  0  0  0  0
 16 19  1  0  0  0  0
 16 21  1  0  0  0  0
 16 46  1  0  0  0  0
 17 18  1  0  0  0  0
 17 47  1  0  0  0  0
 17 48  1  0  0  0  0
 18 20  1  0  0  0  0
 18 51  1  0  0  0  0
 18 52  1  0  0  0  0
 19 22  1  0  0  0  0
 19 49  1  0  0  0  0
 19 50  1  0  0  0  0
 20 53  1  0  0  0  0
 20 54  1  0  0  0  0
 21 23  1  0  0  0  0
 21 55  1  0  0  0  0
 21 56  1  0  0  0  0
 22 25  1  0  0  0  0
 22 57  1  0  0  0  0
 22 58  1  0  0  0  0
 23 25  2  0  0  0  0
 23 27  1  0  0  0  0
 24 26  1  0  0  0  0
 24 59  1  0  0  0  0
 24 60  1  0  0  0  0
 25 28  1  0  0  0  0
 26 31  1  0  0  0  0
 26 61  1  0  0  0  0
 26 62  1  0  0  0  0
 27 29  2  0  0  0  0
 27 63  1  0  0  0  0
 28 30  2  0  0  0  0
 29 30  1  0  0  0  0
 29 64  1  0  0  0  0
 30 65  1  0  0  0  0
 31 66  1  0  0  0  0
 31 67  1  0  0  0  0
 31 68  1  0  0  0  0
M  END
> <PUBCHEM_COMPOUND_CID>
10502670

> <PUBCHEM_COMPOUND_CANONICALIZED>
1

> <PUBCHEM_CACTVS_COMPLEXITY>
613

> <PUBCHEM_CACTVS_HBOND_ACCEPTOR>
4

> <PUBCHEM_CACTVS_HBOND_DONOR>
0

> <PUBCHEM_CACTVS_ROTATABLE_BOND>
8

> <PUBCHEM_CACTVS_SUBSKEYS>
AAADcfB7MQAAAAAAAAAAAAAAAAAAAYAAAAA8YIAAAAAAAADBAAAAHwAAAAAADijBmAwyAIMAAACIAiFSEAACAAAgAAAIiAEIAIgIIDKAkRGEIAAghiCIiAcYi4CPgAAAAAAQAAAQAACAACAAAAAAAAAAAA==

> <PUBCHEM_IUPAC_OPENEYE_NAME>
8-[4-[[(2R)-5-fluorotetralin-2-yl]-propyl-amino]butyl]-8-azaspiro[4.5]decane-7,9-dione

> <PUBCHEM_IUPAC_CAS_NAME>
8-[4-[[(2R)-5-fluoro-1,2,3,4-tetrahydronaphthalen-2-yl]-propylamino]butyl]-8-azaspiro[4.5]decane-7,9-dione

> <PUBCHEM_IUPAC_NAME_MARKUP>
8-[4-[[(2<I>R</I>)-5-fluoro-1,2,3,4-tetrahydronaphthalen-2-yl]-propylamino]butyl]-8-azaspiro[4.5]decane-7,9-dione

> <PUBCHEM_IUPAC_NAME>
8-[4-[[(2R)-5-fluoro-1,2,3,4-tetrahydronaphthalen-2-yl]-propylamino]butyl]-8-azaspiro[4.5]decane-7,9-dione

> <PUBCHEM_IUPAC_SYSTEMATIC_NAME>
8-[4-[[(2R)-5-fluoranyl-1,2,3,4-tetrahydronaphthalen-2-yl]-propyl-amino]butyl]-8-azaspiro[4.5]decane-7,9-dione

> <PUBCHEM_IUPAC_TRADITIONAL_NAME>
8-[4-[[(2R)-5-fluorotetralin-2-yl]-propyl-amino]butyl]-8-azaspiro[4.5]decane-7,9-quinone

> <PUBCHEM_IUPAC_INCHI>
InChI=1S/C26H37FN2O2/c1-2-14-28(21-10-11-22-20(17-21)8-7-9-23(22)27)15-5-6-16-29-24(30)18-26(19-25(29)31)12-3-4-13-26/h7-9,21H,2-6,10-19H2,1H3/t21-/m1/s1

> <PUBCHEM_IUPAC_INCHIKEY>
BYVRVQNZFICZEB-OAQYLSRUSA-N

> <PUBCHEM_XLOGP3_AA>
5.4

> <PUBCHEM_EXACT_MASS>
428.28390659

> <PUBCHEM_MOLECULAR_FORMULA>
C26H37FN2O2

> <PUBCHEM_MOLECULAR_WEIGHT>
428.6

> <PUBCHEM_OPENEYE_CAN_SMILES>
CCCN(CCCCN1C(=O)CC2(CCCC2)CC1=O)C3CCC4=C(C3)C=CC=C4F

> <PUBCHEM_OPENEYE_ISO_SMILES>
CCCN(CCCCN1C(=O)CC2(CCCC2)CC1=O)[C@@H]3CCC4=C(C3)C=CC=C4F

> <PUBCHEM_CACTVS_TPSA>
40.6

> <PUBCHEM_MONOISOTOPIC_WEIGHT>
428.28390659

> <PUBCHEM_TOTAL_CHARGE>
0

> <PUBCHEM_HEAVY_ATOM_COUNT>
31

> <PUBCHEM_ATOM_DEF_STEREO_COUNT>
1

> <PUBCHEM_ATOM_UDEF_STEREO_COUNT>
0

> <PUBCHEM_BOND_DEF_STEREO_COUNT>
0

> <PUBCHEM_BOND_UDEF_STEREO_COUNT>
0

> <PUBCHEM_ISOTOPIC_ATOM_COUNT>
0

> <PUBCHEM_COMPONENT_COUNT>
1

> <PUBCHEM_CACTVS_TAUTO_COUNT>
-1

> <PUBCHEM_COORDINATE_TYPE>
1
5
255

> <PUBCHEM_BONDANNOTATIONS>
23  25  8
23  27  8
25  28  8
27  29  8
28  30  8
29  30  8
16  5  5

$$$$
