60167452
  -OEChem-09292322322D

 60 64  0     1  0  0  0  0  0999 V2000
    3.0752   -1.6958    0.0000 S   0  0  0  0  0  0  0  0  0  0  0  0
   10.8427   -0.7547    0.0000 O   0  0  0  0  0  0  0  0  0  0  0  0
    4.0640    0.1394    0.0000 O   0  0  0  0  0  0  0  0  0  0  0  0
   11.1517    1.8144    0.0000 N   0  0  3  0  0  0  0  0  0  0  0  0
    8.5640    1.0054    0.0000 N   0  0  0  0  0  0  0  0  0  0  0  0
   12.1028    0.5054    0.0000 N   0  0  0  0  0  0  0  0  0  0  0  0
    4.4691   -2.5005    0.0000 N   0  0  0  0  0  0  0  0  0  0  0  0
   10.5640    1.0054    0.0000 C   0  0  0  0  0  0  0  0  0  0  0  0
   10.0640    1.8714    0.0000 C   0  0  0  0  0  0  0  0  0  0  0  0
   10.0640    0.1394    0.0000 C   0  0  0  0  0  0  0  0  0  0  0  0
    9.0640    1.8714    0.0000 C   0  0  0  0  0  0  0  0  0  0  0  0
    9.0640    0.1394    0.0000 C   0  0  0  0  0  0  0  0  0  0  0  0
   11.1517    0.1964    0.0000 C   0  0  0  0  0  0  0  0  0  0  0  0
   12.1028    1.5054    0.0000 C   0  0  0  0  0  0  0  0  0  0  0  0
    7.5640    1.0054    0.0000 C   0  0  0  0  0  0  0  0  0  0  0  0
   10.8427    2.7654    0.0000 C   0  0  0  0  0  0  0  0  0  0  0  0
    7.0640    0.1394    0.0000 C   0  0  0  0  0  0  0  0  0  0  0  0
    6.0640    0.1394    0.0000 C   0  0  0  0  0  0  0  0  0  0  0  0
    9.8646    2.9734    0.0000 C   0  0  0  0  0  0  0  0  0  0  0  0
   11.5119    3.5086    0.0000 C   0  0  0  0  0  0  0  0  0  0  0  0
    5.5640   -0.7267    0.0000 C   0  0  0  0  0  0  0  0  0  0  0  0
    9.5556    3.9244    0.0000 C   0  0  0  0  0  0  0  0  0  0  0  0
   11.2028    4.4596    0.0000 C   0  0  0  0  0  0  0  0  0  0  0  0
   10.2247    4.6676    0.0000 C   0  0  0  0  0  0  0  0  0  0  0  0
    4.5640   -0.7267    0.0000 C   0  0  0  0  0  0  0  0  0  0  0  0
    4.0640   -1.5927    0.0000 C   0  0  0  0  0  0  0  0  0  0  0  0
    2.8660   -2.6676    0.0000 C   0  0  0  0  0  0  0  0  0  0  0  0
    3.7320   -3.1676    0.0000 C   0  0  0  0  0  0  0  0  0  0  0  0
    2.0000   -3.1676    0.0000 C   0  0  0  0  0  0  0  0  0  0  0  0
    3.7320   -4.1676    0.0000 C   0  0  0  0  0  0  0  0  0  0  0  0
    2.0000   -4.1676    0.0000 C   0  0  0  0  0  0  0  0  0  0  0  0
    2.8660   -4.6676    0.0000 C   0  0  0  0  0  0  0  0  0  0  0  0
   10.6466    2.0835    0.0000 H   0  0  0  0  0  0  0  0  0  0  0  0
    9.9563    2.4820    0.0000 H   0  0  0  0  0  0  0  0  0  0  0  0
    9.9563   -0.4712    0.0000 H   0  0  0  0  0  0  0  0  0  0  0  0
   10.6466   -0.0727    0.0000 H   0  0  0  0  0  0  0  0  0  0  0  0
    9.1716    2.4820    0.0000 H   0  0  0  0  0  0  0  0  0  0  0  0
    8.4813    2.0835    0.0000 H   0  0  0  0  0  0  0  0  0  0  0  0
    8.4813   -0.0727    0.0000 H   0  0  0  0  0  0  0  0  0  0  0  0
    9.1716   -0.4712    0.0000 H   0  0  0  0  0  0  0  0  0  0  0  0
   12.7194    1.4406    0.0000 H   0  0  0  0  0  0  0  0  0  0  0  0
   12.2317    2.1118    0.0000 H   0  0  0  0  0  0  0  0  0  0  0  0
   12.6044    0.1410    0.0000 H   0  0  0  0  0  0  0  0  0  0  0  0
    7.6716    1.6160    0.0000 H   0  0  0  0  0  0  0  0  0  0  0  0
    6.9813    1.2174    0.0000 H   0  0  0  0  0  0  0  0  0  0  0  0
    6.9563   -0.4712    0.0000 H   0  0  0  0  0  0  0  0  0  0  0  0
    7.6466   -0.0727    0.0000 H   0  0  0  0  0  0  0  0  0  0  0  0
    6.1716    0.7499    0.0000 H   0  0  0  0  0  0  0  0  0  0  0  0
    5.4813    0.3514    0.0000 H   0  0  0  0  0  0  0  0  0  0  0  0
    9.4497    2.5126    0.0000 H   0  0  0  0  0  0  0  0  0  0  0  0
   12.1183    3.3797    0.0000 H   0  0  0  0  0  0  0  0  0  0  0  0
    5.4563   -1.3372    0.0000 H   0  0  0  0  0  0  0  0  0  0  0  0
    6.1466   -0.9387    0.0000 H   0  0  0  0  0  0  0  0  0  0  0  0
    8.9491    4.0533    0.0000 H   0  0  0  0  0  0  0  0  0  0  0  0
   11.6177    4.9204    0.0000 H   0  0  0  0  0  0  0  0  0  0  0  0
   10.0331    5.2572    0.0000 H   0  0  0  0  0  0  0  0  0  0  0  0
    1.4631   -2.8576    0.0000 H   0  0  0  0  0  0  0  0  0  0  0  0
    4.2690   -4.4776    0.0000 H   0  0  0  0  0  0  0  0  0  0  0  0
    1.4631   -4.4776    0.0000 H   0  0  0  0  0  0  0  0  0  0  0  0
    2.8660   -5.2876    0.0000 H   0  0  0  0  0  0  0  0  0  0  0  0
  1 26  1  0  0  0  0
  1 27  1  0  0  0  0
  2 13  2  0  0  0  0
  3 25  2  0  0  0  0
  4  8  1  0  0  0  0
  4 14  1  0  0  0  0
  4 16  1  0  0  0  0
  5 11  1  0  0  0  0
  5 12  1  0  0  0  0
  5 15  1  0  0  0  0
  6 13  1  0  0  0  0
  6 14  1  0  0  0  0
  6 43  1  0  0  0  0
  7 26  2  0  0  0  0
  7 28  1  0  0  0  0
  8  9  1  0  0  0  0
  8 10  1  0  0  0  0
  8 13  1  0  0  0  0
  9 11  1  0  0  0  0
  9 33  1  0  0  0  0
  9 34  1  0  0  0  0
 10 12  1  0  0  0  0
 10 35  1  0  0  0  0
 10 36  1  0  0  0  0
 11 37  1  0  0  0  0
 11 38  1  0  0  0  0
 12 39  1  0  0  0  0
 12 40  1  0  0  0  0
 14 41  1  0  0  0  0
 14 42  1  0  0  0  0
 15 17  1  0  0  0  0
 15 44  1  0  0  0  0
 15 45  1  0  0  0  0
 16 19  2  0  0  0  0
 16 20  1  0  0  0  0
 17 18  1  0  0  0  0
 17 46  1  0  0  0  0
 17 47  1  0  0  0  0
 18 21  1  0  0  0  0
 18 48  1  0  0  0  0
 18 49  1  0  0  0  0
 19 22  1  0  0  0  0
 19 50  1  0  0  0  0
 20 23  2  0  0  0  0
 20 51  1  0  0  0  0
 21 25  1  0  0  0  0
 21 52  1  0  0  0  0
 21 53  1  0  0  0  0
 22 24  2  0  0  0  0
 22 54  1  0  0  0  0
 23 24  1  0  0  0  0
 23 55  1  0  0  0  0
 24 56  1  0  0  0  0
 25 26  1  0  0  0  0
 27 28  1  0  0  0  0
 27 29  2  0  0  0  0
 28 30  2  0  0  0  0
 29 31  1  0  0  0  0
 29 57  1  0  0  0  0
 30 32  1  0  0  0  0
 30 58  1  0  0  0  0
 31 32  2  0  0  0  0
 31 59  1  0  0  0  0
 32 60  1  0  0  0  0
M  END
> <PUBCHEM_COMPOUND_CID>
60167452

> <PUBCHEM_COMPOUND_CANONICALIZED>
1

> <PUBCHEM_CACTVS_COMPLEXITY>
675

> <PUBCHEM_CACTVS_HBOND_ACCEPTOR>
6

> <PUBCHEM_CACTVS_HBOND_DONOR>
1

> <PUBCHEM_CACTVS_ROTATABLE_BOND>
7

> <PUBCHEM_CACTVS_SUBSKEYS>
AAADceB7sABAAAAAAAAAAAAAAAAAAWLAAAA8YIAAAAAAAFgB9AAAHgQQAAAADIzB1gQxwbPIEAisAaVyVACD8KBjCjhImL24ZJiIYLLg0bGUIAhogwLoyCccAQAKAAAAAAAAAQAAAAAAAAACAAAAAAAAAA==

> <PUBCHEM_IUPAC_OPENEYE_NAME>
8-[5-(1,3-benzothiazol-2-yl)-5-oxo-pentyl]-1-phenyl-1,3,8-triazaspiro[4.5]decan-4-one

> <PUBCHEM_IUPAC_CAS_NAME>
8-[5-(1,3-benzothiazol-2-yl)-5-oxopentyl]-1-phenyl-1,3,8-triazaspiro[4.5]decan-4-one

> <PUBCHEM_IUPAC_NAME_MARKUP>
8-[5-(1,3-benzothiazol-2-yl)-5-oxopentyl]-1-phenyl-1,3,8-triazaspiro[4.5]decan-4-one

> <PUBCHEM_IUPAC_NAME>
8-[5-(1,3-benzothiazol-2-yl)-5-oxopentyl]-1-phenyl-1,3,8-triazaspiro[4.5]decan-4-one

> <PUBCHEM_IUPAC_SYSTEMATIC_NAME>
8-[5-(1,3-benzothiazol-2-yl)-5-oxidanylidene-pentyl]-1-phenyl-1,3,8-triazaspiro[4.5]decan-4-one

> <PUBCHEM_IUPAC_TRADITIONAL_NAME>
8-[5-(1,3-benzothiazol-2-yl)-5-keto-pentyl]-1-phenyl-1,3,8-triazaspiro[4.5]decan-4-one

> <PUBCHEM_IUPAC_INCHI>
InChI=1S/C25H28N4O2S/c30-21(23-27-20-10-4-5-12-22(20)32-23)11-6-7-15-28-16-13-25(14-17-28)24(31)26-18-29(25)19-8-2-1-3-9-19/h1-5,8-10,12H,6-7,11,13-18H2,(H,26,31)

> <PUBCHEM_IUPAC_INCHIKEY>
OCZGPPRWTUONED-UHFFFAOYSA-N

> <PUBCHEM_XLOGP3_AA>
4.5

> <PUBCHEM_EXACT_MASS>
448.19329732

> <PUBCHEM_MOLECULAR_FORMULA>
C25H28N4O2S

> <PUBCHEM_MOLECULAR_WEIGHT>
448.6

> <PUBCHEM_OPENEYE_CAN_SMILES>
C1CN(CCC12C(=O)NCN2C3=CC=CC=C3)CCCCC(=O)C4=NC5=CC=CC=C5S4

> <PUBCHEM_OPENEYE_ISO_SMILES>
C1CN(CCC12C(=O)NCN2C3=CC=CC=C3)CCCCC(=O)C4=NC5=CC=CC=C5S4

> <PUBCHEM_CACTVS_TPSA>
93.8

> <PUBCHEM_MONOISOTOPIC_WEIGHT>
448.19329732

> <PUBCHEM_TOTAL_CHARGE>
0

> <PUBCHEM_HEAVY_ATOM_COUNT>
32

> <PUBCHEM_ATOM_DEF_STEREO_COUNT>
0

> <PUBCHEM_ATOM_UDEF_STEREO_COUNT>
0

> <PUBCHEM_BOND_DEF_STEREO_COUNT>
0

> <PUBCHEM_BOND_UDEF_STEREO_COUNT>
0

> <PUBCHEM_ISOTOPIC_ATOM_COUNT>
0

> <PUBCHEM_COMPONENT_COUNT>
1

> <PUBCHEM_CACTVS_TAUTO_COUNT>
-1

> <PUBCHEM_COORDINATE_TYPE>
1
5
255

> <PUBCHEM_BONDANNOTATIONS>
1  26  8
1  27  8
16  19  8
16  20  8
19  22  8
20  23  8
22  24  8
23  24  8
27  28  8
27  29  8
28  30  8
29  31  8
30  32  8
31  32  8
7  26  8
7  28  8

$$$$
