10438351
  -OEChem-09292322202D

 76 79  0     1  0  0  0  0  0999 V2000
   16.7329   -2.3372    0.0000 S   0  0  0  0  0  0  0  0  0  0  0  0
   18.4533   -3.3572    0.0000 F   0  0  0  0  0  0  0  0  0  0  0  0
   17.0832   -3.7074    0.0000 F   0  0  0  0  0  0  0  0  0  0  0  0
   18.1031   -1.9870    0.0000 F   0  0  0  0  0  0  0  0  0  0  0  0
   15.8728   -1.8272    0.0000 O   0  0  0  0  0  0  0  0  0  0  0  0
   16.2230   -3.1974    0.0000 O   0  0  0  0  0  0  0  0  0  0  0  0
   17.2429   -1.4770    0.0000 O   0  0  0  0  0  0  0  0  0  0  0  0
    7.1962    2.2074    0.0000 O   0  0  0  0  0  0  0  0  0  0  0  0
   12.3923    1.2074    0.0000 N   0  0  3  0  0  0  0  0  0  0  0  0
    8.0622    0.7074    0.0000 N   0  0  0  0  0  0  0  0  0  0  0  0
   13.2583    0.7074    0.0000 C   0  0  3  0  0  0  0  0  0  0  0  0
   13.2583   -0.2926    0.0000 C   0  0  0  0  0  0  0  0  0  0  0  0
   14.1244    1.2074    0.0000 C   0  0  0  0  0  0  0  0  0  0  0  0
   14.1244   -0.7926    0.0000 C   0  0  0  0  0  0  0  0  0  0  0  0
   14.9904    0.7074    0.0000 C   0  0  0  0  0  0  0  0  0  0  0  0
   14.9904   -0.2926    0.0000 C   0  0  0  0  0  0  0  0  0  0  0  0
   11.5263    0.7074    0.0000 C   0  0  0  0  0  0  0  0  0  0  0  0
   12.3923    2.2074    0.0000 C   0  0  0  0  0  0  0  0  0  0  0  0
   10.6603    1.2074    0.0000 C   0  0  0  0  0  0  0  0  0  0  0  0
   15.8843   -0.8273    0.0000 C   0  0  0  0  0  0  0  0  0  0  0  0
   11.5263    2.7074    0.0000 C   0  0  0  0  0  0  0  0  0  0  0  0
   15.8843    1.2420    0.0000 C   0  0  0  0  0  0  0  0  0  0  0  0
    9.7942    0.7074    0.0000 C   0  0  0  0  0  0  0  0  0  0  0  0
   16.7904   -0.3134    0.0000 C   0  0  0  0  0  0  0  0  0  0  0  0
   16.7904    0.7282    0.0000 C   0  0  0  0  0  0  0  0  0  0  0  0
   11.5263    3.7074    0.0000 C   0  0  0  0  0  0  0  0  0  0  0  0
    8.9282    1.2074    0.0000 C   0  0  0  0  0  0  0  0  0  0  0  0
   17.5931   -2.8472    0.0000 C   0  0  0  0  0  0  0  0  0  0  0  0
    7.1962    1.2074    0.0000 C   0  0  0  0  0  0  0  0  0  0  0  0
    6.3301    0.7074    0.0000 C   0  0  0  0  0  0  0  0  0  0  0  0
    5.4641    1.2074    0.0000 C   0  0  0  0  0  0  0  0  0  0  0  0
    6.3301   -0.2926    0.0000 C   0  0  0  0  0  0  0  0  0  0  0  0
    4.5981   -0.2926    0.0000 C   0  0  0  0  0  0  0  0  0  0  0  0
    4.5981    0.7074    0.0000 C   0  0  0  0  0  0  0  0  0  0  0  0
    5.4641   -0.7926    0.0000 C   0  0  0  0  0  0  0  0  0  0  0  0
    3.7320   -0.7926    0.0000 C   0  0  0  0  0  0  0  0  0  0  0  0
    3.7320   -1.7926    0.0000 C   0  0  0  0  0  0  0  0  0  0  0  0
    2.8660   -0.2926    0.0000 C   0  0  0  0  0  0  0  0  0  0  0  0
    2.8660   -2.2926    0.0000 C   0  0  0  0  0  0  0  0  0  0  0  0
    2.0000   -0.7926    0.0000 C   0  0  0  0  0  0  0  0  0  0  0  0
    2.0000   -1.7926    0.0000 C   0  0  0  0  0  0  0  0  0  0  0  0
   13.2583    1.3274    0.0000 H   0  0  0  0  0  0  0  0  0  0  0  0
   12.6477   -0.1850    0.0000 H   0  0  0  0  0  0  0  0  0  0  0  0
   13.0463   -0.8752    0.0000 H   0  0  0  0  0  0  0  0  0  0  0  0
   14.5229    1.6823    0.0000 H   0  0  0  0  0  0  0  0  0  0  0  0
   13.7258    1.6823    0.0000 H   0  0  0  0  0  0  0  0  0  0  0  0
   13.7258   -1.2676    0.0000 H   0  0  0  0  0  0  0  0  0  0  0  0
   14.5229   -1.2676    0.0000 H   0  0  0  0  0  0  0  0  0  0  0  0
   11.1278    0.2324    0.0000 H   0  0  0  0  0  0  0  0  0  0  0  0
   11.9248    0.2324    0.0000 H   0  0  0  0  0  0  0  0  0  0  0  0
   13.0029    2.0997    0.0000 H   0  0  0  0  0  0  0  0  0  0  0  0
   12.6044    2.7900    0.0000 H   0  0  0  0  0  0  0  0  0  0  0  0
   11.0588    1.6823    0.0000 H   0  0  0  0  0  0  0  0  0  0  0  0
   10.2617    1.6823    0.0000 H   0  0  0  0  0  0  0  0  0  0  0  0
   10.9157    2.8150    0.0000 H   0  0  0  0  0  0  0  0  0  0  0  0
   11.3142    2.1248    0.0000 H   0  0  0  0  0  0  0  0  0  0  0  0
   15.8772    1.8620    0.0000 H   0  0  0  0  0  0  0  0  0  0  0  0
    9.3957    0.2324    0.0000 H   0  0  0  0  0  0  0  0  0  0  0  0
   10.1928    0.2324    0.0000 H   0  0  0  0  0  0  0  0  0  0  0  0
   17.3261   -0.6255    0.0000 H   0  0  0  0  0  0  0  0  0  0  0  0
   17.3261    1.0402    0.0000 H   0  0  0  0  0  0  0  0  0  0  0  0
   12.1463    3.7074    0.0000 H   0  0  0  0  0  0  0  0  0  0  0  0
   11.5263    4.3274    0.0000 H   0  0  0  0  0  0  0  0  0  0  0  0
   10.9063    3.7074    0.0000 H   0  0  0  0  0  0  0  0  0  0  0  0
    9.3267    1.6823    0.0000 H   0  0  0  0  0  0  0  0  0  0  0  0
    8.5297    1.6823    0.0000 H   0  0  0  0  0  0  0  0  0  0  0  0
    8.0622    0.0874    0.0000 H   0  0  0  0  0  0  0  0  0  0  0  0
    5.4641    1.8274    0.0000 H   0  0  0  0  0  0  0  0  0  0  0  0
    6.8671   -0.6026    0.0000 H   0  0  0  0  0  0  0  0  0  0  0  0
    4.0611    1.0174    0.0000 H   0  0  0  0  0  0  0  0  0  0  0  0
    5.4641   -1.4126    0.0000 H   0  0  0  0  0  0  0  0  0  0  0  0
    4.2690   -2.1026    0.0000 H   0  0  0  0  0  0  0  0  0  0  0  0
    2.8660    0.3274    0.0000 H   0  0  0  0  0  0  0  0  0  0  0  0
    2.8660   -2.9126    0.0000 H   0  0  0  0  0  0  0  0  0  0  0  0
    1.4631   -0.4826    0.0000 H   0  0  0  0  0  0  0  0  0  0  0  0
    1.4631   -2.1026    0.0000 H   0  0  0  0  0  0  0  0  0  0  0  0
  1  5  1  0  0  0  0
  1  6  2  0  0  0  0
  1  7  2  0  0  0  0
  1 28  1  0  0  0  0
  2 28  1  0  0  0  0
  3 28  1  0  0  0  0
  4 28  1  0  0  0  0
  5 20  1  0  0  0  0
  8 29  2  0  0  0  0
  9 11  1  0  0  0  0
  9 17  1  0  0  0  0
  9 18  1  0  0  0  0
 10 27  1  0  0  0  0
 10 29  1  0  0  0  0
 10 67  1  0  0  0  0
 11 12  1  0  0  0  0
 11 13  1  0  0  0  0
 11 42  1  0  0  0  0
 12 14  1  0  0  0  0
 12 43  1  0  0  0  0
 12 44  1  0  0  0  0
 13 15  1  0  0  0  0
 13 45  1  0  0  0  0
 13 46  1  0  0  0  0
 14 16  1  0  0  0  0
 14 47  1  0  0  0  0
 14 48  1  0  0  0  0
 15 16  2  0  0  0  0
 15 22  1  0  0  0  0
 16 20  1  0  0  0  0
 17 19  1  0  0  0  0
 17 49  1  0  0  0  0
 17 50  1  0  0  0  0
 18 21  1  0  0  0  0
 18 51  1  0  0  0  0
 18 52  1  0  0  0  0
 19 23  1  0  0  0  0
 19 53  1  0  0  0  0
 19 54  1  0  0  0  0
 20 24  2  0  0  0  0
 21 26  1  0  0  0  0
 21 55  1  0  0  0  0
 21 56  1  0  0  0  0
 22 25  2  0  0  0  0
 22 57  1  0  0  0  0
 23 27  1  0  0  0  0
 23 58  1  0  0  0  0
 23 59  1  0  0  0  0
 24 25  1  0  0  0  0
 24 60  1  0  0  0  0
 25 61  1  0  0  0  0
 26 62  1  0  0  0  0
 26 63  1  0  0  0  0
 26 64  1  0  0  0  0
 27 65  1  0  0  0  0
 27 66  1  0  0  0  0
 29 30  1  0  0  0  0
 30 31  2  0  0  0  0
 30 32  1  0  0  0  0
 31 34  1  0  0  0  0
 31 68  1  0  0  0  0
 32 35  2  0  0  0  0
 32 69  1  0  0  0  0
 33 34  2  0  0  0  0
 33 35  1  0  0  0  0
 33 36  1  0  0  0  0
 34 70  1  0  0  0  0
 35 71  1  0  0  0  0
 36 37  2  0  0  0  0
 36 38  1  0  0  0  0
 37 39  1  0  0  0  0
 37 72  1  0  0  0  0
 38 40  2  0  0  0  0
 38 73  1  0  0  0  0
 39 41  2  0  0  0  0
 39 74  1  0  0  0  0
 40 41  1  0  0  0  0
 40 75  1  0  0  0  0
 41 76  1  0  0  0  0
M  END
> <PUBCHEM_COMPOUND_CID>
10438351

> <PUBCHEM_COMPOUND_CANONICALIZED>
1

> <PUBCHEM_CACTVS_COMPLEXITY>
911

> <PUBCHEM_CACTVS_HBOND_ACCEPTOR>
8

> <PUBCHEM_CACTVS_HBOND_DONOR>
1

> <PUBCHEM_CACTVS_ROTATABLE_BOND>
12

> <PUBCHEM_CACTVS_SUBSKEYS>
AAADcfB7OYBAAAAAAAAAAAAAAAAAAAAAAAAwYMGAAAAAAADBUAAAHwQQAAAADCzBmBQyBoPAAAKIAiFSEHCCAAAkIAAIiIEODMgIJjKAlROEMQhk1hGIiYeY2POOwAABAAAYAACQAAKAADAAAAAAAAAAAA==

> <PUBCHEM_IUPAC_OPENEYE_NAME>
[2-[4-[(4-phenylbenzoyl)amino]butyl-propyl-amino]tetralin-5-yl] trifluoromethanesulfonate

> <PUBCHEM_IUPAC_CAS_NAME>
trifluoromethanesulfonic acid [6-[4-[[oxo-(4-phenylphenyl)methyl]amino]butyl-propylamino]-5,6,7,8-tetrahydronaphthalen-1-yl] ester

> <PUBCHEM_IUPAC_NAME_MARKUP>
[6-[4-[(4-phenylbenzoyl)amino]butyl-propylamino]-5,6,7,8-tetrahydronaphthalen-1-yl] trifluoromethanesulfonate

> <PUBCHEM_IUPAC_NAME>
[6-[4-[(4-phenylbenzoyl)amino]butyl-propylamino]-5,6,7,8-tetrahydronaphthalen-1-yl] trifluoromethanesulfonate

> <PUBCHEM_IUPAC_SYSTEMATIC_NAME>
[6-[4-[(4-phenylphenyl)carbonylamino]butyl-propyl-amino]-5,6,7,8-tetrahydronaphthalen-1-yl] tris(fluoranyl)methanesulfonate

> <PUBCHEM_IUPAC_TRADITIONAL_NAME>
trifluoromethanesulfonic acid [2-[4-[(4-phenylbenzoyl)amino]butyl-propyl-amino]tetralin-5-yl] ester

> <PUBCHEM_IUPAC_INCHI>
InChI=1S/C31H35F3N2O4S/c1-2-20-36(27-17-18-28-26(22-27)11-8-12-29(28)40-41(38,39)31(32,33)34)21-7-6-19-35-30(37)25-15-13-24(14-16-25)23-9-4-3-5-10-23/h3-5,8-16,27H,2,6-7,17-22H2,1H3,(H,35,37)

> <PUBCHEM_IUPAC_INCHIKEY>
ASINOPIKMGWLQS-UHFFFAOYSA-N

> <PUBCHEM_XLOGP3_AA>
7.6

> <PUBCHEM_EXACT_MASS>
588.22696326

> <PUBCHEM_MOLECULAR_FORMULA>
C31H35F3N2O4S

> <PUBCHEM_MOLECULAR_WEIGHT>
588.7

> <PUBCHEM_OPENEYE_CAN_SMILES>
CCCN(CCCCNC(=O)C1=CC=C(C=C1)C2=CC=CC=C2)C3CCC4=C(C3)C=CC=C4OS(=O)(=O)C(F)(F)F

> <PUBCHEM_OPENEYE_ISO_SMILES>
CCCN(CCCCNC(=O)C1=CC=C(C=C1)C2=CC=CC=C2)C3CCC4=C(C3)C=CC=C4OS(=O)(=O)C(F)(F)F

> <PUBCHEM_CACTVS_TPSA>
84.1

> <PUBCHEM_MONOISOTOPIC_WEIGHT>
588.22696326

> <PUBCHEM_TOTAL_CHARGE>
0

> <PUBCHEM_HEAVY_ATOM_COUNT>
41

> <PUBCHEM_ATOM_DEF_STEREO_COUNT>
0

> <PUBCHEM_ATOM_UDEF_STEREO_COUNT>
1

> <PUBCHEM_BOND_DEF_STEREO_COUNT>
0

> <PUBCHEM_BOND_UDEF_STEREO_COUNT>
0

> <PUBCHEM_ISOTOPIC_ATOM_COUNT>
0

> <PUBCHEM_COMPONENT_COUNT>
1

> <PUBCHEM_CACTVS_TAUTO_COUNT>
-1

> <PUBCHEM_COORDINATE_TYPE>
1
5
255

> <PUBCHEM_BONDANNOTATIONS>
15  16  8
15  22  8
16  20  8
20  24  8
22  25  8
24  25  8
30  31  8
30  32  8
31  34  8
32  35  8
33  34  8
33  35  8
36  37  8
36  38  8
37  39  8
38  40  8
39  41  8
40  41  8
11  9  3

$$$$
