155542237
  -OEChem-09292322402D

 58 62  0     0  0  0  0  0  0999 V2000
    6.7210   -3.4127    0.0000 S   0  0  0  0  0  0  0  0  0  0  0  0
    7.6715   -3.1020    0.0000 O   0  0  0  0  0  0  0  0  0  0  0  0
    5.7705   -3.7233    0.0000 O   0  0  0  0  0  0  0  0  0  0  0  0
    2.8660   -0.6574    0.0000 O   0  0  0  0  0  0  0  0  0  0  0  0
    6.4103   -2.4621    0.0000 N   0  0  0  0  0  0  0  0  0  0  0  0
    7.6743    1.4052    0.0000 N   0  0  0  0  0  0  0  0  0  0  0  0
    6.1346    0.9079    0.0000 N   0  0  0  0  0  0  0  0  0  0  0  0
    6.4164    2.6675    0.0000 N   0  0  0  0  0  0  0  0  0  0  0  0
    6.4103   -0.8527    0.0000 C   0  0  0  0  0  0  0  0  0  0  0  0
    5.4641   -1.1574    0.0000 C   0  0  0  0  0  0  0  0  0  0  0  0
    5.4641   -2.1574    0.0000 C   0  0  0  0  0  0  0  0  0  0  0  0
    6.9939   -1.6574    0.0000 C   0  0  0  0  0  0  0  0  0  0  0  0
    6.7210    0.0978    0.0000 C   0  0  0  0  0  0  0  0  0  0  0  0
    4.5981   -0.6574    0.0000 C   0  0  0  0  0  0  0  0  0  0  0  0
    4.5981   -2.6574    0.0000 C   0  0  0  0  0  0  0  0  0  0  0  0
    7.6726    0.4052    0.0000 C   0  0  0  0  0  0  0  0  0  0  0  0
    7.0316   -4.3632    0.0000 C   0  0  0  0  0  0  0  0  0  0  0  0
    3.7320   -1.1574    0.0000 C   0  0  0  0  0  0  0  0  0  0  0  0
    3.7320   -2.1574    0.0000 C   0  0  0  0  0  0  0  0  0  0  0  0
    6.7238    1.7159    0.0000 C   0  0  0  0  0  0  0  0  0  0  0  0
    8.4806   -0.1840    0.0000 C   0  0  0  0  0  0  0  0  0  0  0  0
    8.0102   -4.5694    0.0000 C   0  0  0  0  0  0  0  0  0  0  0  0
    6.3638   -5.1075    0.0000 C   0  0  0  0  0  0  0  0  0  0  0  0
    7.0868    3.4094    0.0000 C   0  0  0  0  0  0  0  0  0  0  0  0
    8.3208   -5.5199    0.0000 C   0  0  0  0  0  0  0  0  0  0  0  0
    6.6745   -6.0580    0.0000 C   0  0  0  0  0  0  0  0  0  0  0  0
    6.7795    4.3610    0.0000 C   0  0  0  0  0  0  0  0  0  0  0  0
    7.6530   -6.2642    0.0000 C   0  0  0  0  0  0  0  0  0  0  0  0
    2.0000   -1.1574    0.0000 C   0  0  0  0  0  0  0  0  0  0  0  0
    5.8017    4.5706    0.0000 C   0  0  0  0  0  0  0  0  0  0  0  0
    7.4499    5.1030    0.0000 C   0  0  0  0  0  0  0  0  0  0  0  0
    5.4943    5.5222    0.0000 C   0  0  0  0  0  0  0  0  0  0  0  0
    7.1425    6.0546    0.0000 C   0  0  0  0  0  0  0  0  0  0  0  0
    6.1647    6.2642    0.0000 C   0  0  0  0  0  0  0  0  0  0  0  0
    7.6139   -1.6574    0.0000 H   0  0  0  0  0  0  0  0  0  0  0  0
    4.5981   -0.0374    0.0000 H   0  0  0  0  0  0  0  0  0  0  0  0
    4.5981   -3.2774    0.0000 H   0  0  0  0  0  0  0  0  0  0  0  0
    3.1951   -2.4674    0.0000 H   0  0  0  0  0  0  0  0  0  0  0  0
    8.1765    1.7688    0.0000 H   0  0  0  0  0  0  0  0  0  0  0  0
    8.1153   -0.6849    0.0000 H   0  0  0  0  0  0  0  0  0  0  0  0
    8.9815   -0.5493    0.0000 H   0  0  0  0  0  0  0  0  0  0  0  0
    8.8459    0.3170    0.0000 H   0  0  0  0  0  0  0  0  0  0  0  0
    5.8102    2.7974    0.0000 H   0  0  0  0  0  0  0  0  0  0  0  0
    8.4242   -4.1079    0.0000 H   0  0  0  0  0  0  0  0  0  0  0  0
    5.7571   -4.9796    0.0000 H   0  0  0  0  0  0  0  0  0  0  0  0
    7.4677    2.9202    0.0000 H   0  0  0  0  0  0  0  0  0  0  0  0
    7.6348    3.6996    0.0000 H   0  0  0  0  0  0  0  0  0  0  0  0
    8.9275   -5.6478    0.0000 H   0  0  0  0  0  0  0  0  0  0  0  0
    6.2604   -6.5195    0.0000 H   0  0  0  0  0  0  0  0  0  0  0  0
    7.8456   -6.8535    0.0000 H   0  0  0  0  0  0  0  0  0  0  0  0
    1.6900   -0.6205    0.0000 H   0  0  0  0  0  0  0  0  0  0  0  0
    1.4631   -1.4674    0.0000 H   0  0  0  0  0  0  0  0  0  0  0  0
    2.3100   -1.6943    0.0000 H   0  0  0  0  0  0  0  0  0  0  0  0
    5.3860    4.1106    0.0000 H   0  0  0  0  0  0  0  0  0  0  0  0
    8.0561    4.9731    0.0000 H   0  0  0  0  0  0  0  0  0  0  0  0
    4.8881    5.6522    0.0000 H   0  0  0  0  0  0  0  0  0  0  0  0
    7.5582    6.5146    0.0000 H   0  0  0  0  0  0  0  0  0  0  0  0
    5.9742    6.8542    0.0000 H   0  0  0  0  0  0  0  0  0  0  0  0
  1  2  2  0  0  0  0
  1  3  2  0  0  0  0
  1  5  1  0  0  0  0
  1 17  1  0  0  0  0
  4 18  1  0  0  0  0
  4 29  1  0  0  0  0
  5 11  1  0  0  0  0
  5 12  1  0  0  0  0
  6 16  1  0  0  0  0
  6 20  1  0  0  0  0
  6 39  1  0  0  0  0
  7 13  1  0  0  0  0
  7 20  2  0  0  0  0
  8 20  1  0  0  0  0
  8 24  1  0  0  0  0
  8 43  1  0  0  0  0
  9 10  1  0  0  0  0
  9 12  2  0  0  0  0
  9 13  1  0  0  0  0
 10 11  2  0  0  0  0
 10 14  1  0  0  0  0
 11 15  1  0  0  0  0
 12 35  1  0  0  0  0
 13 16  2  0  0  0  0
 14 18  2  0  0  0  0
 14 36  1  0  0  0  0
 15 19  2  0  0  0  0
 15 37  1  0  0  0  0
 16 21  1  0  0  0  0
 17 22  2  0  0  0  0
 17 23  1  0  0  0  0
 18 19  1  0  0  0  0
 19 38  1  0  0  0  0
 21 40  1  0  0  0  0
 21 41  1  0  0  0  0
 21 42  1  0  0  0  0
 22 25  1  0  0  0  0
 22 44  1  0  0  0  0
 23 26  2  0  0  0  0
 23 45  1  0  0  0  0
 24 27  1  0  0  0  0
 24 46  1  0  0  0  0
 24 47  1  0  0  0  0
 25 28  2  0  0  0  0
 25 48  1  0  0  0  0
 26 28  1  0  0  0  0
 26 49  1  0  0  0  0
 27 30  2  0  0  0  0
 27 31  1  0  0  0  0
 28 50  1  0  0  0  0
 29 51  1  0  0  0  0
 29 52  1  0  0  0  0
 29 53  1  0  0  0  0
 30 32  1  0  0  0  0
 30 54  1  0  0  0  0
 31 33  2  0  0  0  0
 31 55  1  0  0  0  0
 32 34  2  0  0  0  0
 32 56  1  0  0  0  0
 33 34  1  0  0  0  0
 33 57  1  0  0  0  0
 34 58  1  0  0  0  0
M  END
> <PUBCHEM_COMPOUND_CID>
155542237

> <PUBCHEM_COMPOUND_CANONICALIZED>
1

> <PUBCHEM_CACTVS_COMPLEXITY>
763

> <PUBCHEM_CACTVS_HBOND_ACCEPTOR>
5

> <PUBCHEM_CACTVS_HBOND_DONOR>
2

> <PUBCHEM_CACTVS_ROTATABLE_BOND>
7

> <PUBCHEM_CACTVS_SUBSKEYS>
AAADceB7sABAAAAAAAAAAAAAAAAAAWLAAAAwYMAAAAAAAFgB/AAAHgQQQAAADAzB3gY/1/bJlAKgAzRnZHDCiD2xMqAJ2bg+fJiMbuLE+ZuUMChs0BPI6Cew0PMOgEABAAACAAAAgAIAAAQAAAAAAAAAAA==

> <PUBCHEM_IUPAC_OPENEYE_NAME>
4-[1-(benzenesulfonyl)-5-methoxy-indol-3-yl]-N-benzyl-5-methyl-1H-imidazol-2-amine

> <PUBCHEM_IUPAC_CAS_NAME>
4-[1-(benzenesulfonyl)-5-methoxy-3-indolyl]-5-methyl-N-(phenylmethyl)-1H-imidazol-2-amine

> <PUBCHEM_IUPAC_NAME_MARKUP>
4-[1-(benzenesulfonyl)-5-methoxyindol-3-yl]-<I>N</I>-benzyl-5-methyl-1<I>H</I>-imidazol-2-amine

> <PUBCHEM_IUPAC_NAME>
4-[1-(benzenesulfonyl)-5-methoxyindol-3-yl]-N-benzyl-5-methyl-1H-imidazol-2-amine

> <PUBCHEM_IUPAC_SYSTEMATIC_NAME>
4-[5-methoxy-1-(phenylsulfonyl)indol-3-yl]-5-methyl-N-(phenylmethyl)-1H-imidazol-2-amine

> <PUBCHEM_IUPAC_TRADITIONAL_NAME>
benzyl-[4-(1-besyl-5-methoxy-indol-3-yl)-5-methyl-1H-imidazol-2-yl]amine

> <PUBCHEM_IUPAC_INCHI>
InChI=1S/C26H24N4O3S/c1-18-25(29-26(28-18)27-16-19-9-5-3-6-10-19)23-17-30(24-14-13-20(33-2)15-22(23)24)34(31,32)21-11-7-4-8-12-21/h3-15,17H,16H2,1-2H3,(H2,27,28,29)

> <PUBCHEM_IUPAC_INCHIKEY>
WKDOWEAWARBZNI-UHFFFAOYSA-N

> <PUBCHEM_XLOGP3_AA>
5.2

> <PUBCHEM_EXACT_MASS>
472.15691181

> <PUBCHEM_MOLECULAR_FORMULA>
C26H24N4O3S

> <PUBCHEM_MOLECULAR_WEIGHT>
472.6

> <PUBCHEM_OPENEYE_CAN_SMILES>
CC1=C(N=C(N1)NCC2=CC=CC=C2)C3=CN(C4=C3C=C(C=C4)OC)S(=O)(=O)C5=CC=CC=C5

> <PUBCHEM_OPENEYE_ISO_SMILES>
CC1=C(N=C(N1)NCC2=CC=CC=C2)C3=CN(C4=C3C=C(C=C4)OC)S(=O)(=O)C5=CC=CC=C5

> <PUBCHEM_CACTVS_TPSA>
97.4

> <PUBCHEM_MONOISOTOPIC_WEIGHT>
472.15691181

> <PUBCHEM_TOTAL_CHARGE>
0

> <PUBCHEM_HEAVY_ATOM_COUNT>
34

> <PUBCHEM_ATOM_DEF_STEREO_COUNT>
0

> <PUBCHEM_ATOM_UDEF_STEREO_COUNT>
0

> <PUBCHEM_BOND_DEF_STEREO_COUNT>
0

> <PUBCHEM_BOND_UDEF_STEREO_COUNT>
0

> <PUBCHEM_ISOTOPIC_ATOM_COUNT>
0

> <PUBCHEM_COMPONENT_COUNT>
1

> <PUBCHEM_CACTVS_TAUTO_COUNT>
-1

> <PUBCHEM_COORDINATE_TYPE>
1
5
255

> <PUBCHEM_BONDANNOTATIONS>
10  11  8
10  14  8
11  15  8
13  16  8
14  18  8
15  19  8
17  22  8
17  23  8
18  19  8
22  25  8
23  26  8
25  28  8
26  28  8
27  30  8
27  31  8
30  32  8
31  33  8
32  34  8
33  34  8
5  11  8
5  12  8
6  16  8
6  20  8
7  13  8
7  20  8
9  10  8
9  12  8

$$$$
