56944764
  -OEChem-09292322352D

 53 56  0     0  0  0  0  0  0999 V2000
    9.0546    2.8034    0.0000 S   0  0  0  0  0  0  0  0  0  0  0  0
    2.0000   -4.1664    0.0000 F   0  0  0  0  0  0  0  0  0  0  0  0
    5.5443   -3.9711    0.0000 O   0  0  0  0  0  0  0  0  0  0  0  0
    8.8484    3.7819    0.0000 O   0  0  0  0  0  0  0  0  0  0  0  0
    9.2608    1.8249    0.0000 O   0  0  0  0  0  0  0  0  0  0  0  0
    6.4763    0.4899    0.0000 N   0  0  0  0  0  0  0  0  0  0  0  0
    6.1279   -3.1664    0.0000 N   0  0  0  0  0  0  0  0  0  0  0  0
    8.0761    2.5972    0.0000 N   0  0  0  0  0  0  0  0  0  0  0  0
    5.8550   -1.4111    0.0000 C   0  0  0  0  0  0  0  0  0  0  0  0
    5.1871   -0.6668    0.0000 C   0  0  0  0  0  0  0  0  0  0  0  0
    6.8335   -1.2049    0.0000 C   0  0  0  0  0  0  0  0  0  0  0  0
    5.4978    0.2837    0.0000 C   0  0  0  0  0  0  0  0  0  0  0  0
    7.1441   -0.2544    0.0000 C   0  0  0  0  0  0  0  0  0  0  0  0
    6.7870    1.4404    0.0000 C   0  0  0  0  0  0  0  0  0  0  0  0
    5.5443   -2.3616    0.0000 C   0  0  0  0  0  0  0  0  0  0  0  0
    7.7654    1.6467    0.0000 C   0  0  0  0  0  0  0  0  0  0  0  0
    4.5981   -2.6664    0.0000 C   0  0  0  0  0  0  0  0  0  0  0  0
    4.5981   -3.6664    0.0000 C   0  0  0  0  0  0  0  0  0  0  0  0
    3.7320   -2.1664    0.0000 C   0  0  0  0  0  0  0  0  0  0  0  0
    3.7320   -4.1664    0.0000 C   0  0  0  0  0  0  0  0  0  0  0  0
    2.8660   -2.6664    0.0000 C   0  0  0  0  0  0  0  0  0  0  0  0
    2.8660   -3.6664    0.0000 C   0  0  0  0  0  0  0  0  0  0  0  0
   10.0331    3.0096    0.0000 C   0  0  0  0  0  0  0  0  0  0  0  0
   10.7010    2.2653    0.0000 C   0  0  0  0  0  0  0  0  0  0  0  0
   10.3438    3.9602    0.0000 C   0  0  0  0  0  0  0  0  0  0  0  0
   11.6795    2.4715    0.0000 C   0  0  0  0  0  0  0  0  0  0  0  0
   11.3223    4.1664    0.0000 C   0  0  0  0  0  0  0  0  0  0  0  0
   11.9901    3.4221    0.0000 C   0  0  0  0  0  0  0  0  0  0  0  0
   12.3473    1.7272    0.0000 C   0  0  0  0  0  0  0  0  0  0  0  0
    6.2690   -1.8726    0.0000 H   0  0  0  0  0  0  0  0  0  0  0  0
    4.6402   -0.3748    0.0000 H   0  0  0  0  0  0  0  0  0  0  0  0
    4.8046   -1.1547    0.0000 H   0  0  0  0  0  0  0  0  0  0  0  0
    6.8540   -1.8246    0.0000 H   0  0  0  0  0  0  0  0  0  0  0  0
    7.4473   -1.2922    0.0000 H   0  0  0  0  0  0  0  0  0  0  0  0
    5.4772    0.9034    0.0000 H   0  0  0  0  0  0  0  0  0  0  0  0
    4.8840    0.3711    0.0000 H   0  0  0  0  0  0  0  0  0  0  0  0
    7.6910   -0.5464    0.0000 H   0  0  0  0  0  0  0  0  0  0  0  0
    7.5267    0.2335    0.0000 H   0  0  0  0  0  0  0  0  0  0  0  0
    6.7664    2.0601    0.0000 H   0  0  0  0  0  0  0  0  0  0  0  0
    6.1731    1.5278    0.0000 H   0  0  0  0  0  0  0  0  0  0  0  0
    7.7860    1.0270    0.0000 H   0  0  0  0  0  0  0  0  0  0  0  0
    8.3793    1.5593    0.0000 H   0  0  0  0  0  0  0  0  0  0  0  0
    7.6620    3.0587    0.0000 H   0  0  0  0  0  0  0  0  0  0  0  0
    3.7320   -1.5464    0.0000 H   0  0  0  0  0  0  0  0  0  0  0  0
    3.7320   -4.7864    0.0000 H   0  0  0  0  0  0  0  0  0  0  0  0
    2.3291   -2.3564    0.0000 H   0  0  0  0  0  0  0  0  0  0  0  0
   10.5084    1.6760    0.0000 H   0  0  0  0  0  0  0  0  0  0  0  0
    9.9297    4.4216    0.0000 H   0  0  0  0  0  0  0  0  0  0  0  0
   11.5149    4.7557    0.0000 H   0  0  0  0  0  0  0  0  0  0  0  0
   12.5968    3.5499    0.0000 H   0  0  0  0  0  0  0  0  0  0  0  0
   11.8859    1.3132    0.0000 H   0  0  0  0  0  0  0  0  0  0  0  0
   12.7614    1.2658    0.0000 H   0  0  0  0  0  0  0  0  0  0  0  0
   12.8088    2.1413    0.0000 H   0  0  0  0  0  0  0  0  0  0  0  0
  1  4  2  0  0  0  0
  1  5  2  0  0  0  0
  1  8  1  0  0  0  0
  1 23  1  0  0  0  0
  2 22  1  0  0  0  0
  3  7  1  0  0  0  0
  3 18  1  0  0  0  0
  6 12  1  0  0  0  0
  6 13  1  0  0  0  0
  6 14  1  0  0  0  0
  7 15  2  0  0  0  0
  8 16  1  0  0  0  0
  8 43  1  0  0  0  0
  9 10  1  0  0  0  0
  9 11  1  0  0  0  0
  9 15  1  0  0  0  0
  9 30  1  0  0  0  0
 10 12  1  0  0  0  0
 10 31  1  0  0  0  0
 10 32  1  0  0  0  0
 11 13  1  0  0  0  0
 11 33  1  0  0  0  0
 11 34  1  0  0  0  0
 12 35  1  0  0  0  0
 12 36  1  0  0  0  0
 13 37  1  0  0  0  0
 13 38  1  0  0  0  0
 14 16  1  0  0  0  0
 14 39  1  0  0  0  0
 14 40  1  0  0  0  0
 15 17  1  0  0  0  0
 16 41  1  0  0  0  0
 16 42  1  0  0  0  0
 17 18  2  0  0  0  0
 17 19  1  0  0  0  0
 18 20  1  0  0  0  0
 19 21  2  0  0  0  0
 19 44  1  0  0  0  0
 20 22  2  0  0  0  0
 20 45  1  0  0  0  0
 21 22  1  0  0  0  0
 21 46  1  0  0  0  0
 23 24  1  0  0  0  0
 23 25  2  0  0  0  0
 24 26  2  0  0  0  0
 24 47  1  0  0  0  0
 25 27  1  0  0  0  0
 25 48  1  0  0  0  0
 26 28  1  0  0  0  0
 26 29  1  0  0  0  0
 27 28  2  0  0  0  0
 27 49  1  0  0  0  0
 28 50  1  0  0  0  0
 29 51  1  0  0  0  0
 29 52  1  0  0  0  0
 29 53  1  0  0  0  0
M  END
> <PUBCHEM_COMPOUND_CID>
56944764

> <PUBCHEM_COMPOUND_CANONICALIZED>
1

> <PUBCHEM_CACTVS_COMPLEXITY>
636

> <PUBCHEM_CACTVS_HBOND_ACCEPTOR>
7

> <PUBCHEM_CACTVS_HBOND_DONOR>
1

> <PUBCHEM_CACTVS_ROTATABLE_BOND>
6

> <PUBCHEM_CACTVS_SUBSKEYS>
AAADceB7MQBAAAAAAAAAAAAAAAAAAWAAAAA8YIAAAAAAAFgB9AAAHwQUQAAADQzB3gwyh9NQAAKpA6RyQnDCABAkIAAomLk+TNoIZrqAlZOUMYBm0BmIyceYyOCOAAAAgAAIAAAAAAEAABAAAAAAAAAAAA==

> <PUBCHEM_IUPAC_OPENEYE_NAME>
N-[2-[4-(6-fluoro-1,2-benzoxazol-3-yl)-1-piperidyl]ethyl]-3-methyl-benzenesulfonamide

> <PUBCHEM_IUPAC_CAS_NAME>
N-[2-[4-(6-fluoro-1,2-benzoxazol-3-yl)-1-piperidinyl]ethyl]-3-methylbenzenesulfonamide

> <PUBCHEM_IUPAC_NAME_MARKUP>
<I>N</I>-[2-[4-(6-fluoro-1,2-benzoxazol-3-yl)piperidin-1-yl]ethyl]-3-methylbenzenesulfonamide

> <PUBCHEM_IUPAC_NAME>
N-[2-[4-(6-fluoro-1,2-benzoxazol-3-yl)piperidin-1-yl]ethyl]-3-methylbenzenesulfonamide

> <PUBCHEM_IUPAC_SYSTEMATIC_NAME>
N-[2-[4-(6-fluoranyl-1,2-benzoxazol-3-yl)piperidin-1-yl]ethyl]-3-methyl-benzenesulfonamide

> <PUBCHEM_IUPAC_TRADITIONAL_NAME>
N-[2-[4-(6-fluoroindoxazen-3-yl)piperidino]ethyl]-3-methyl-benzenesulfonamide

> <PUBCHEM_IUPAC_INCHI>
InChI=1S/C21H24FN3O3S/c1-15-3-2-4-18(13-15)29(26,27)23-9-12-25-10-7-16(8-11-25)21-19-6-5-17(22)14-20(19)28-24-21/h2-6,13-14,16,23H,7-12H2,1H3

> <PUBCHEM_IUPAC_INCHIKEY>
KJWQBYGNNGUYBM-UHFFFAOYSA-N

> <PUBCHEM_XLOGP3_AA>
3.4

> <PUBCHEM_EXACT_MASS>
417.15224097

> <PUBCHEM_MOLECULAR_FORMULA>
C21H24FN3O3S

> <PUBCHEM_MOLECULAR_WEIGHT>
417.5

> <PUBCHEM_OPENEYE_CAN_SMILES>
CC1=CC(=CC=C1)S(=O)(=O)NCCN2CCC(CC2)C3=NOC4=C3C=CC(=C4)F

> <PUBCHEM_OPENEYE_ISO_SMILES>
CC1=CC(=CC=C1)S(=O)(=O)NCCN2CCC(CC2)C3=NOC4=C3C=CC(=C4)F

> <PUBCHEM_CACTVS_TPSA>
83.8

> <PUBCHEM_MONOISOTOPIC_WEIGHT>
417.15224097

> <PUBCHEM_TOTAL_CHARGE>
0

> <PUBCHEM_HEAVY_ATOM_COUNT>
29

> <PUBCHEM_ATOM_DEF_STEREO_COUNT>
0

> <PUBCHEM_ATOM_UDEF_STEREO_COUNT>
0

> <PUBCHEM_BOND_DEF_STEREO_COUNT>
0

> <PUBCHEM_BOND_UDEF_STEREO_COUNT>
0

> <PUBCHEM_ISOTOPIC_ATOM_COUNT>
0

> <PUBCHEM_COMPONENT_COUNT>
1

> <PUBCHEM_CACTVS_TAUTO_COUNT>
-1

> <PUBCHEM_COORDINATE_TYPE>
1
5
255

> <PUBCHEM_BONDANNOTATIONS>
15  17  8
17  18  8
17  19  8
18  20  8
19  21  8
20  22  8
21  22  8
23  24  8
23  25  8
24  26  8
25  27  8
26  28  8
27  28  8
3  18  8
3  7  8
7  15  8

$$$$
