2159
  -OEChem-09292322052D

 52 53  0     1  0  0  0  0  0999 V2000
    4.2690    1.5000    0.0000 S   0  0  0  0  0  0  0  0  0  0  0  0
    6.0010   -2.5000    0.0000 O   0  0  0  0  0  0  0  0  0  0  0  0
    4.2690   -2.5000    0.0000 O   0  0  0  0  0  0  0  0  0  0  0  0
    5.2690    1.5000    0.0000 O   0  0  0  0  0  0  0  0  0  0  0  0
    3.2690    1.5000    0.0000 O   0  0  0  0  0  0  0  0  0  0  0  0
    8.7036   -0.0055    0.0000 N   0  0  3  0  0  0  0  0  0  0  0  0
    6.8671   -1.0000    0.0000 N   0  0  0  0  0  0  0  0  0  0  0  0
    2.5369    0.5000    0.0000 N   0  0  0  0  0  0  0  0  0  0  0  0
    8.5991   -1.0000    0.0000 C   0  0  3  0  0  0  0  0  0  0  0  0
    9.5127   -1.4067    0.0000 C   0  0  0  0  0  0  0  0  0  0  0  0
   10.1818   -0.6636    0.0000 C   0  0  0  0  0  0  0  0  0  0  0  0
    9.6818    0.2024    0.0000 C   0  0  0  0  0  0  0  0  0  0  0  0
    7.7331   -1.5000    0.0000 C   0  0  0  0  0  0  0  0  0  0  0  0
    7.9605    0.6637    0.0000 C   0  0  0  0  0  0  0  0  0  0  0  0
    8.1684    1.6418    0.0000 C   0  0  0  0  0  0  0  0  0  0  0  0
    6.0010   -1.5000    0.0000 C   0  0  0  0  0  0  0  0  0  0  0  0
    5.1350   -1.0000    0.0000 C   0  0  0  0  0  0  0  0  0  0  0  0
    4.2690    0.5000    0.0000 C   0  0  0  0  0  0  0  0  0  0  0  0
    5.1350   -0.0000    0.0000 C   0  0  0  0  0  0  0  0  0  0  0  0
    4.2690   -1.5000    0.0000 C   0  0  0  0  0  0  0  0  0  0  0  0
    3.4030    0.0000    0.0000 C   0  0  0  0  0  0  0  0  0  0  0  0
    3.4030   -1.0000    0.0000 C   0  0  0  0  0  0  0  0  0  0  0  0
    4.2690    2.5000    0.0000 C   0  0  0  0  0  0  0  0  0  0  0  0
    5.1350    3.0000    0.0000 C   0  0  0  0  0  0  0  0  0  0  0  0
    3.4030   -3.0000    0.0000 C   0  0  0  0  0  0  0  0  0  0  0  0
    8.0791   -0.6623    0.0000 H   0  0  0  0  0  0  0  0  0  0  0  0
    9.2027   -1.9437    0.0000 H   0  0  0  0  0  0  0  0  0  0  0  0
   10.0142   -1.7712    0.0000 H   0  0  0  0  0  0  0  0  0  0  0  0
   10.5967   -1.1243    0.0000 H   0  0  0  0  0  0  0  0  0  0  0  0
   10.6834   -0.2992    0.0000 H   0  0  0  0  0  0  0  0  0  0  0  0
   10.2482    0.4546    0.0000 H   0  0  0  0  0  0  0  0  0  0  0  0
    9.4902    0.7921    0.0000 H   0  0  0  0  0  0  0  0  0  0  0  0
    7.3346   -1.9750    0.0000 H   0  0  0  0  0  0  0  0  0  0  0  0
    8.1316   -1.9750    0.0000 H   0  0  0  0  0  0  0  0  0  0  0  0
    7.3856    0.8959    0.0000 H   0  0  0  0  0  0  0  0  0  0  0  0
    7.6320    0.1379    0.0000 H   0  0  0  0  0  0  0  0  0  0  0  0
    6.8671   -0.3800    0.0000 H   0  0  0  0  0  0  0  0  0  0  0  0
    8.7749    1.5129    0.0000 H   0  0  0  0  0  0  0  0  0  0  0  0
    8.2973    2.2482    0.0000 H   0  0  0  0  0  0  0  0  0  0  0  0
    7.5620    1.7707    0.0000 H   0  0  0  0  0  0  0  0  0  0  0  0
    5.6720    0.3100    0.0000 H   0  0  0  0  0  0  0  0  0  0  0  0
    2.8660   -1.3100    0.0000 H   0  0  0  0  0  0  0  0  0  0  0  0
    4.0569    3.0826    0.0000 H   0  0  0  0  0  0  0  0  0  0  0  0
    3.6584    2.3923    0.0000 H   0  0  0  0  0  0  0  0  0  0  0  0
    5.4450    2.4631    0.0000 H   0  0  0  0  0  0  0  0  0  0  0  0
    5.6720    3.3100    0.0000 H   0  0  0  0  0  0  0  0  0  0  0  0
    4.8250    3.5369    0.0000 H   0  0  0  0  0  0  0  0  0  0  0  0
    2.0000    0.1900    0.0000 H   0  0  0  0  0  0  0  0  0  0  0  0
    2.5369    1.1200    0.0000 H   0  0  0  0  0  0  0  0  0  0  0  0
    3.0930   -2.4631    0.0000 H   0  0  0  0  0  0  0  0  0  0  0  0
    2.8660   -3.3100    0.0000 H   0  0  0  0  0  0  0  0  0  0  0  0
    3.7130   -3.5369    0.0000 H   0  0  0  0  0  0  0  0  0  0  0  0
  1  4  2  0  0  0  0
  1  5  2  0  0  0  0
  1 18  1  0  0  0  0
  1 23  1  0  0  0  0
  2 16  2  0  0  0  0
  3 20  1  0  0  0  0
  3 25  1  0  0  0  0
  6  9  1  0  0  0  0
  6 12  1  0  0  0  0
  6 14  1  0  0  0  0
  7 13  1  0  0  0  0
  7 16  1  0  0  0  0
  7 37  1  0  0  0  0
  8 21  1  0  0  0  0
  8 48  1  0  0  0  0
  8 49  1  0  0  0  0
  9 10  1  0  0  0  0
  9 13  1  0  0  0  0
  9 26  1  0  0  0  0
 10 11  1  0  0  0  0
 10 27  1  0  0  0  0
 10 28  1  0  0  0  0
 11 12  1  0  0  0  0
 11 29  1  0  0  0  0
 11 30  1  0  0  0  0
 12 31  1  0  0  0  0
 12 32  1  0  0  0  0
 13 33  1  0  0  0  0
 13 34  1  0  0  0  0
 14 15  1  0  0  0  0
 14 35  1  0  0  0  0
 14 36  1  0  0  0  0
 15 38  1  0  0  0  0
 15 39  1  0  0  0  0
 15 40  1  0  0  0  0
 16 17  1  0  0  0  0
 17 19  2  0  0  0  0
 17 20  1  0  0  0  0
 18 19  1  0  0  0  0
 18 21  2  0  0  0  0
 19 41  1  0  0  0  0
 20 22  2  0  0  0  0
 21 22  1  0  0  0  0
 22 42  1  0  0  0  0
 23 24  1  0  0  0  0
 23 43  1  0  0  0  0
 23 44  1  0  0  0  0
 24 45  1  0  0  0  0
 24 46  1  0  0  0  0
 24 47  1  0  0  0  0
 25 50  1  0  0  0  0
 25 51  1  0  0  0  0
 25 52  1  0  0  0  0
M  END
> <PUBCHEM_COMPOUND_CID>
2159

> <PUBCHEM_COMPOUND_CANONICALIZED>
1

> <PUBCHEM_CACTVS_COMPLEXITY>
549

> <PUBCHEM_CACTVS_HBOND_ACCEPTOR>
6

> <PUBCHEM_CACTVS_HBOND_DONOR>
2

> <PUBCHEM_CACTVS_ROTATABLE_BOND>
7

> <PUBCHEM_CACTVS_SUBSKEYS>
AAADceB7OABAAAAAAAAAAAAAAAAAAWAAAAAwAAAAAAAAAAABAAAAHgQQAAAADCzF2Aayx4PABAqIAiVSUHDCCAAkKhAAiJ0ObMgMZjaktJuUMWhm9hmo6YeY2SGeCIAAggAIAQARAAEEABACAAAAAAAAAA==

> <PUBCHEM_IUPAC_OPENEYE_NAME>
4-amino-N-[(1-ethylpyrrolidin-2-yl)methyl]-5-ethylsulfonyl-2-methoxy-benzamide

> <PUBCHEM_IUPAC_CAS_NAME>
4-amino-N-[(1-ethyl-2-pyrrolidinyl)methyl]-5-ethylsulfonyl-2-methoxybenzamide

> <PUBCHEM_IUPAC_NAME_MARKUP>
4-amino-<I>N</I>-[(1-ethylpyrrolidin-2-yl)methyl]-5-ethylsulfonyl-2-methoxybenzamide

> <PUBCHEM_IUPAC_NAME>
4-amino-N-[(1-ethylpyrrolidin-2-yl)methyl]-5-ethylsulfonyl-2-methoxybenzamide

> <PUBCHEM_IUPAC_SYSTEMATIC_NAME>
4-azanyl-N-[(1-ethylpyrrolidin-2-yl)methyl]-5-ethylsulfonyl-2-methoxy-benzamide

> <PUBCHEM_IUPAC_TRADITIONAL_NAME>
4-amino-5-esyl-N-[(1-ethylpyrrolidin-2-yl)methyl]-2-methoxy-benzamide

> <PUBCHEM_IUPAC_INCHI>
InChI=1S/C17H27N3O4S/c1-4-20-8-6-7-12(20)11-19-17(21)13-9-16(25(22,23)5-2)14(18)10-15(13)24-3/h9-10,12H,4-8,11,18H2,1-3H3,(H,19,21)

> <PUBCHEM_IUPAC_INCHIKEY>
NTJOBXMMWNYJFB-UHFFFAOYSA-N

> <PUBCHEM_XLOGP3>
1.5

> <PUBCHEM_EXACT_MASS>
369.17222752

> <PUBCHEM_MOLECULAR_FORMULA>
C17H27N3O4S

> <PUBCHEM_MOLECULAR_WEIGHT>
369.5

> <PUBCHEM_OPENEYE_CAN_SMILES>
CCN1CCCC1CNC(=O)C2=CC(=C(C=C2OC)N)S(=O)(=O)CC

> <PUBCHEM_OPENEYE_ISO_SMILES>
CCN1CCCC1CNC(=O)C2=CC(=C(C=C2OC)N)S(=O)(=O)CC

> <PUBCHEM_CACTVS_TPSA>
110

> <PUBCHEM_MONOISOTOPIC_WEIGHT>
369.17222752

> <PUBCHEM_TOTAL_CHARGE>
0

> <PUBCHEM_HEAVY_ATOM_COUNT>
25

> <PUBCHEM_ATOM_DEF_STEREO_COUNT>
0

> <PUBCHEM_ATOM_UDEF_STEREO_COUNT>
1

> <PUBCHEM_BOND_DEF_STEREO_COUNT>
0

> <PUBCHEM_BOND_UDEF_STEREO_COUNT>
0

> <PUBCHEM_ISOTOPIC_ATOM_COUNT>
0

> <PUBCHEM_COMPONENT_COUNT>
1

> <PUBCHEM_CACTVS_TAUTO_COUNT>
5

> <PUBCHEM_COORDINATE_TYPE>
1
5
255

> <PUBCHEM_BONDANNOTATIONS>
17  19  8
17  20  8
18  19  8
18  21  8
20  22  8
21  22  8
9  13  3

$$$$
