135339857
  -OEChem-09292322452D

 56 59  0     0  0  0  0  0  0999 V2000
    9.7884    0.4839    0.0000 O   0  0  0  0  0  0  0  0  0  0  0  0
   13.3185   -0.4919    0.0000 O   0  0  0  0  0  0  0  0  0  0  0  0
    6.3243    0.4706    0.0000 N   0  0  0  0  0  0  0  0  0  0  0  0
    4.5961   -0.5361    0.0000 N   0  0  0  0  0  0  0  0  0  0  0  0
   14.1845    1.0081    0.0000 N   0  0  0  0  0  0  0  0  0  0  0  0
    3.7359   -2.0394    0.0000 N   0  0  0  0  0  0  0  0  0  0  0  0
    6.3282   -0.5294    0.0000 C   0  0  0  0  0  0  0  0  0  0  0  0
    5.4564    0.9672    0.0000 C   0  0  0  0  0  0  0  0  0  0  0  0
    5.4641   -1.0327    0.0000 C   0  0  0  0  0  0  0  0  0  0  0  0
    4.5923    0.4639    0.0000 C   0  0  0  0  0  0  0  0  0  0  0  0
    7.1884    0.9739    0.0000 C   0  0  0  0  0  0  0  0  0  0  0  0
    8.0564    0.4773    0.0000 C   0  0  0  0  0  0  0  0  0  0  0  0
    3.7320   -1.0394    0.0000 C   0  0  0  0  0  0  0  0  0  0  0  0
    8.9204    0.9806    0.0000 C   0  0  0  0  0  0  0  0  0  0  0  0
   13.3185    2.5081    0.0000 C   0  0  0  0  0  0  0  0  0  0  0  0
   12.4525    2.0081    0.0000 C   0  0  0  0  0  0  0  0  0  0  0  0
   14.1845    2.0081    0.0000 C   0  0  0  0  0  0  0  0  0  0  0  0
   12.4525    1.0081    0.0000 C   0  0  0  0  0  0  0  0  0  0  0  0
   10.6525    0.9873    0.0000 C   0  0  0  0  0  0  0  0  0  0  0  0
    2.8641   -0.5428    0.0000 C   0  0  0  0  0  0  0  0  0  0  0  0
   13.3185    0.5081    0.0000 C   0  0  0  0  0  0  0  0  0  0  0  0
   11.5585    0.4734    0.0000 C   0  0  0  0  0  0  0  0  0  0  0  0
   11.5585    2.5428    0.0000 C   0  0  0  0  0  0  0  0  0  0  0  0
   10.6525    2.0289    0.0000 C   0  0  0  0  0  0  0  0  0  0  0  0
   15.0506    0.5081    0.0000 C   0  0  0  0  0  0  0  0  0  0  0  0
    2.0000   -1.0461    0.0000 C   0  0  0  0  0  0  0  0  0  0  0  0
    2.8718   -2.5428    0.0000 C   0  0  0  0  0  0  0  0  0  0  0  0
    2.0038   -2.0461    0.0000 C   0  0  0  0  0  0  0  0  0  0  0  0
    6.5425   -1.1112    0.0000 H   0  0  0  0  0  0  0  0  0  0  0  0
    6.9383   -0.4194    0.0000 H   0  0  0  0  0  0  0  0  0  0  0  0
    5.8531    1.4437    0.0000 H   0  0  0  0  0  0  0  0  0  0  0  0
    5.0560    1.4406    0.0000 H   0  0  0  0  0  0  0  0  0  0  0  0
    5.0674   -1.5092    0.0000 H   0  0  0  0  0  0  0  0  0  0  0  0
    5.8644   -1.5062    0.0000 H   0  0  0  0  0  0  0  0  0  0  0  0
    4.3780    1.0457    0.0000 H   0  0  0  0  0  0  0  0  0  0  0  0
    3.9821    0.3539    0.0000 H   0  0  0  0  0  0  0  0  0  0  0  0
    7.5851    1.4504    0.0000 H   0  0  0  0  0  0  0  0  0  0  0  0
    6.7880    1.4473    0.0000 H   0  0  0  0  0  0  0  0  0  0  0  0
    7.6597    0.0008    0.0000 H   0  0  0  0  0  0  0  0  0  0  0  0
    8.4567    0.0039    0.0000 H   0  0  0  0  0  0  0  0  0  0  0  0
    9.3171    1.4571    0.0000 H   0  0  0  0  0  0  0  0  0  0  0  0
    8.5201    1.4540    0.0000 H   0  0  0  0  0  0  0  0  0  0  0  0
   13.7170    2.9830    0.0000 H   0  0  0  0  0  0  0  0  0  0  0  0
   12.9200    2.9830    0.0000 H   0  0  0  0  0  0  0  0  0  0  0  0
   14.7951    1.9004    0.0000 H   0  0  0  0  0  0  0  0  0  0  0  0
   14.3966    2.5907    0.0000 H   0  0  0  0  0  0  0  0  0  0  0  0
    2.8617    0.0772    0.0000 H   0  0  0  0  0  0  0  0  0  0  0  0
   11.5657   -0.1465    0.0000 H   0  0  0  0  0  0  0  0  0  0  0  0
   11.5657    3.1627    0.0000 H   0  0  0  0  0  0  0  0  0  0  0  0
   10.1167    2.3410    0.0000 H   0  0  0  0  0  0  0  0  0  0  0  0
   14.7406   -0.0289    0.0000 H   0  0  0  0  0  0  0  0  0  0  0  0
   15.5875    0.1981    0.0000 H   0  0  0  0  0  0  0  0  0  0  0  0
   15.3606    1.0450    0.0000 H   0  0  0  0  0  0  0  0  0  0  0  0
    1.4619   -0.7382    0.0000 H   0  0  0  0  0  0  0  0  0  0  0  0
    2.8742   -3.1627    0.0000 H   0  0  0  0  0  0  0  0  0  0  0  0
    1.4681   -2.3582    0.0000 H   0  0  0  0  0  0  0  0  0  0  0  0
  1 14  1  0  0  0  0
  1 19  1  0  0  0  0
  2 21  2  0  0  0  0
  3  7  1  0  0  0  0
  3  8  1  0  0  0  0
  3 11  1  0  0  0  0
  4  9  1  0  0  0  0
  4 10  1  0  0  0  0
  4 13  1  0  0  0  0
  5 17  1  0  0  0  0
  5 21  1  0  0  0  0
  5 25  1  0  0  0  0
  6 13  1  0  0  0  0
  6 27  2  0  0  0  0
  7  9  1  0  0  0  0
  7 29  1  0  0  0  0
  7 30  1  0  0  0  0
  8 10  1  0  0  0  0
  8 31  1  0  0  0  0
  8 32  1  0  0  0  0
  9 33  1  0  0  0  0
  9 34  1  0  0  0  0
 10 35  1  0  0  0  0
 10 36  1  0  0  0  0
 11 12  1  0  0  0  0
 11 37  1  0  0  0  0
 11 38  1  0  0  0  0
 12 14  1  0  0  0  0
 12 39  1  0  0  0  0
 12 40  1  0  0  0  0
 13 20  2  0  0  0  0
 14 41  1  0  0  0  0
 14 42  1  0  0  0  0
 15 16  1  0  0  0  0
 15 17  1  0  0  0  0
 15 43  1  0  0  0  0
 15 44  1  0  0  0  0
 16 18  2  0  0  0  0
 16 23  1  0  0  0  0
 17 45  1  0  0  0  0
 17 46  1  0  0  0  0
 18 21  1  0  0  0  0
 18 22  1  0  0  0  0
 19 22  2  0  0  0  0
 19 24  1  0  0  0  0
 20 26  1  0  0  0  0
 20 47  1  0  0  0  0
 22 48  1  0  0  0  0
 23 24  2  0  0  0  0
 23 49  1  0  0  0  0
 24 50  1  0  0  0  0
 25 51  1  0  0  0  0
 25 52  1  0  0  0  0
 25 53  1  0  0  0  0
 26 28  2  0  0  0  0
 26 54  1  0  0  0  0
 27 28  1  0  0  0  0
 27 55  1  0  0  0  0
 28 56  1  0  0  0  0
M  END
> <PUBCHEM_COMPOUND_CID>
135339857

> <PUBCHEM_COMPOUND_CANONICALIZED>
1

> <PUBCHEM_CACTVS_COMPLEXITY>
509

> <PUBCHEM_CACTVS_HBOND_ACCEPTOR>
5

> <PUBCHEM_CACTVS_HBOND_DONOR>
0

> <PUBCHEM_CACTVS_ROTATABLE_BOND>
6

> <PUBCHEM_CACTVS_SUBSKEYS>
AAADceB7sAAAAAAAAAAAAAAAAAAAAAAAAAA8WLEAAAAAAACxwAAAHgAAAAAADAThmgY/tpMIFACoAjN3dACCiCk1IiAJ2CE+bNiMZvLEvZuWOSjuxhPI6ae6yZCOoAABAAAQAABAAAIAACAAAAAAAAAAAA==

> <PUBCHEM_IUPAC_OPENEYE_NAME>
2-methyl-7-[3-[4-(2-pyridyl)piperazin-1-yl]propoxy]-3,4-dihydroisoquinolin-1-one

> <PUBCHEM_IUPAC_CAS_NAME>
2-methyl-7-[3-[4-(2-pyridinyl)-1-piperazinyl]propoxy]-3,4-dihydroisoquinolin-1-one

> <PUBCHEM_IUPAC_NAME_MARKUP>
2-methyl-7-[3-(4-pyridin-2-ylpiperazin-1-yl)propoxy]-3,4-dihydroisoquinolin-1-one

> <PUBCHEM_IUPAC_NAME>
2-methyl-7-[3-(4-pyridin-2-ylpiperazin-1-yl)propoxy]-3,4-dihydroisoquinolin-1-one

> <PUBCHEM_IUPAC_SYSTEMATIC_NAME>
2-methyl-7-[3-(4-pyridin-2-ylpiperazin-1-yl)propoxy]-3,4-dihydroisoquinolin-1-one

> <PUBCHEM_IUPAC_TRADITIONAL_NAME>
2-methyl-7-[3-[4-(2-pyridyl)piperazino]propoxy]-3,4-dihydroisocarbostyril

> <PUBCHEM_IUPAC_INCHI>
InChI=1S/C22H28N4O2/c1-24-11-8-18-6-7-19(17-20(18)22(24)27)28-16-4-10-25-12-14-26(15-13-25)21-5-2-3-9-23-21/h2-3,5-7,9,17H,4,8,10-16H2,1H3

> <PUBCHEM_IUPAC_INCHIKEY>
JLHMEGWPLLZUIA-UHFFFAOYSA-N

> <PUBCHEM_XLOGP3_AA>
2.6

> <PUBCHEM_EXACT_MASS>
380.22122615

> <PUBCHEM_MOLECULAR_FORMULA>
C22H28N4O2

> <PUBCHEM_MOLECULAR_WEIGHT>
380.5

> <PUBCHEM_OPENEYE_CAN_SMILES>
CN1CCC2=C(C1=O)C=C(C=C2)OCCCN3CCN(CC3)C4=CC=CC=N4

> <PUBCHEM_OPENEYE_ISO_SMILES>
CN1CCC2=C(C1=O)C=C(C=C2)OCCCN3CCN(CC3)C4=CC=CC=N4

> <PUBCHEM_CACTVS_TPSA>
48.9

> <PUBCHEM_MONOISOTOPIC_WEIGHT>
380.22122615

> <PUBCHEM_TOTAL_CHARGE>
0

> <PUBCHEM_HEAVY_ATOM_COUNT>
28

> <PUBCHEM_ATOM_DEF_STEREO_COUNT>
0

> <PUBCHEM_ATOM_UDEF_STEREO_COUNT>
0

> <PUBCHEM_BOND_DEF_STEREO_COUNT>
0

> <PUBCHEM_BOND_UDEF_STEREO_COUNT>
0

> <PUBCHEM_ISOTOPIC_ATOM_COUNT>
0

> <PUBCHEM_COMPONENT_COUNT>
1

> <PUBCHEM_CACTVS_TAUTO_COUNT>
-1

> <PUBCHEM_COORDINATE_TYPE>
1
5
255

> <PUBCHEM_BONDANNOTATIONS>
13  20  8
16  18  8
16  23  8
18  22  8
19  22  8
19  24  8
20  26  8
23  24  8
26  28  8
27  28  8
6  13  8
6  27  8

$$$$
