90656854
  -OEChem-09292322352D

307314  0     1  0  0  0  0  0999 V2000
    7.1962    5.6493    0.0000 S   0  0  0  0  0  0  0  0  0  0  0  0
   31.3011  -14.6809    0.0000 Si  0  0  0  0  0  0  0  0  0  0  0  0
   32.1102  -14.0931    0.0000 F   0  0  0  0  0  0  0  0  0  0  0  0
   28.7689   -9.7222    0.0000 O   0  0  0  0  0  0  0  0  0  0  0  0
   38.3074   -9.5905    0.0000 O   0  0  0  0  0  0  0  0  0  0  0  0
   39.6398   -9.3073    0.0000 O   0  0  0  0  0  0  0  0  0  0  0  0
    3.7320   11.6493    0.0000 O   0  0  0  0  0  0  0  0  0  0  0  0
   34.7361   -9.0951    0.0000 O   0  0  0  0  0  0  0  0  0  0  0  0
    2.8660   10.1493    0.0000 O   0  0  0  0  0  0  0  0  0  0  0  0
   30.1702   -8.7042    0.0000 O   0  0  0  0  0  0  0  0  0  0  0  0
   43.2361   -9.0494    0.0000 O   0  0  0  0  0  0  0  0  0  0  0  0
    2.8660    8.1492    0.0000 O   0  0  0  0  0  0  0  0  0  0  0  0
   32.1592   -8.4951    0.0000 O   0  0  0  0  0  0  0  0  0  0  0  0
   38.6695  -13.0356    0.0000 O   0  0  0  0  0  0  0  0  0  0  0  0
   45.3461   -7.4532    0.0000 O   0  0  0  0  0  0  0  0  0  0  0  0
   44.1871   -8.7404    0.0000 O   0  0  0  0  0  0  0  0  0  0  0  0
   32.7917   -4.9455    0.0000 O   0  0  0  0  0  0  0  0  0  0  0  0
   30.0338   -2.6229    0.0000 O   0  0  0  0  0  0  0  0  0  0  0  0
    9.1836    6.5341    0.0000 O   0  0  0  0  0  0  0  0  0  0  0  0
    9.5516    3.0333    0.0000 O   0  0  0  0  0  0  0  0  0  0  0  0
   26.6435   -3.8501    0.0000 O   0  0  0  0  0  0  0  0  0  0  0  0
   24.8801   -1.4230    0.0000 O   0  0  0  0  0  0  0  0  0  0  0  0
   13.9850    1.7858    0.0000 O   0  0  0  0  0  0  0  0  0  0  0  0
   22.3033   -0.8231    0.0000 O   0  0  0  0  0  0  0  0  0  0  0  0
   17.5564    1.2904    0.0000 O   0  0  0  0  0  0  0  0  0  0  0  0
   20.1332    0.6904    0.0000 O   0  0  0  0  0  0  0  0  0  0  0  0
    6.4347   14.1438    0.0000 N   0  0  3  0  0  0  0  0  0  0  0  0
   29.3567  -10.5313    0.0000 N   0  0  0  0  0  0  0  0  0  0  0  0
   38.1264   -7.8680    0.0000 N   0  0  0  0  0  0  0  0  0  0  0  0
    5.4641   11.6493    0.0000 N   0  0  0  0  0  0  0  0  0  0  0  0
   40.7987   -8.0201    0.0000 N   0  0  0  0  0  0  0  0  0  0  0  0
   36.1373   -8.0770    0.0000 N   0  0  0  0  0  0  0  0  0  0  0  0
   33.5605   -7.4770    0.0000 N   0  0  0  0  0  0  0  0  0  0  0  0
   42.7008   -7.4021    0.0000 N   0  0  0  0  0  0  0  0  0  0  0  0
   28.5879   -7.9997    0.0000 N   0  0  0  0  0  0  0  0  0  0  0  0
   40.9181  -11.6237    0.0000 N   0  0  0  0  0  0  0  0  0  0  0  0
   31.3904   -5.9635    0.0000 N   0  0  0  0  0  0  0  0  0  0  0  0
   45.1199   -4.8549    0.0000 N   0  0  0  0  0  0  0  0  0  0  0  0
   30.2148   -4.3455    0.0000 N   0  0  0  0  0  0  0  0  0  0  0  0
    9.6448    4.8128    0.0000 N   0  0  0  0  0  0  0  0  0  0  0  0
   28.0448   -2.8320    0.0000 N   0  0  0  0  0  0  0  0  0  0  0  0
   41.4534  -13.2710    0.0000 N   0  0  0  0  0  0  0  0  0  0  0  0
   39.7592  -12.9109    0.0000 N   0  0  0  0  0  0  0  0  0  0  0  0
   46.4289   -5.8059    0.0000 N   0  0  0  0  0  0  0  0  0  0  0  0
   33.1106   -2.3569    0.0000 N   0  0  0  0  0  0  0  0  0  0  0  0
   34.1933   -3.5593    0.0000 N   0  0  0  0  0  0  0  0  0  0  0  0
   15.3863    2.8039    0.0000 N   0  0  0  0  0  0  0  0  0  0  0  0
   31.8889  -15.4899    0.0000 C   0  0  0  0  0  0  0  0  0  0  0  0
   30.4921  -15.2687    0.0000 C   0  0  0  0  0  0  0  0  0  0  0  0
   30.7134  -13.8719    0.0000 C   0  0  0  0  0  0  0  0  0  0  0  0
   32.4767  -16.2989    0.0000 C   0  0  0  0  0  0  0  0  0  0  0  0
   31.6470  -16.4602    0.0000 C   0  0  0  0  0  0  0  0  0  0  0  0
   32.6979  -14.9021    0.0000 C   0  0  0  0  0  0  0  0  0  0  0  0
   29.6831  -15.8564    0.0000 C   0  0  0  0  0  0  0  0  0  0  0  0
   31.0799  -16.0777    0.0000 C   0  0  0  0  0  0  0  0  0  0  0  0
   29.5218  -15.0267    0.0000 C   0  0  0  0  0  0  0  0  0  0  0  0
   31.1201  -12.9583    0.0000 C   0  0  0  0  0  0  0  0  0  0  0  0
   29.7188  -13.9764    0.0000 C   0  0  0  0  0  0  0  0  0  0  0  0
   30.5323  -12.1493    0.0000 C   0  0  0  0  0  0  0  0  0  0  0  0
   29.1310  -13.1674    0.0000 C   0  0  0  0  0  0  0  0  0  0  0  0
   29.5378  -12.2538    0.0000 C   0  0  0  0  0  0  0  0  0  0  0  0
    6.3301   13.1493    0.0000 C   0  0  1  0  0  0  0  0  0  0  0  0
   28.9500  -11.4448    0.0000 C   0  0  0  0  0  0  0  0  0  0  0  0
    7.2437   12.7425    0.0000 C   0  0  0  0  0  0  0  0  0  0  0  0
    7.9128   13.4857    0.0000 C   0  0  0  0  0  0  0  0  0  0  0  0
    7.4128   14.3517    0.0000 C   0  0  0  0  0  0  0  0  0  0  0  0
    5.4641   12.6493    0.0000 C   0  0  0  0  0  0  0  0  0  0  0  0
    5.6915   14.8129    0.0000 C   0  0  0  0  0  0  0  0  0  0  0  0
   39.1045   -7.6600    0.0000 C   0  0  1  0  0  0  0  0  0  0  0  0
   39.2091   -6.6655    0.0000 C   0  0  0  0  0  0  0  0  0  0  0  0
   38.2955   -6.2588    0.0000 C   0  0  0  0  0  0  0  0  0  0  0  0
   37.6264   -7.0019    0.0000 C   0  0  0  0  0  0  0  0  0  0  0  0
    5.8994   15.7911    0.0000 C   0  0  0  0  0  0  0  0  0  0  0  0
   37.7196   -8.7815    0.0000 C   0  0  0  0  0  0  0  0  0  0  0  0
   39.8477   -8.3292    0.0000 C   0  0  0  0  0  0  0  0  0  0  0  0
   36.7251   -8.8860    0.0000 C   0  0  2  0  0  0  0  0  0  0  0  0
    4.5981   11.1493    0.0000 C   0  0  0  0  0  0  0  0  0  0  0  0
   36.3184   -9.7996    0.0000 C   0  0  0  0  0  0  0  0  0  0  0  0
   41.5419   -8.6893    0.0000 C   0  0  1  0  0  0  0  0  0  0  0  0
    5.1563   16.4602    0.0000 C   0  0  0  0  0  0  0  0  0  0  0  0
    4.5981   10.1493    0.0000 C   0  0  0  0  0  0  0  0  0  0  0  0
   41.3340   -9.6674    0.0000 C   0  0  0  0  0  0  0  0  0  0  0  0
   34.5550   -7.3725    0.0000 C   0  0  2  0  0  0  0  0  0  0  0  0
   35.1428   -8.1815    0.0000 C   0  0  0  0  0  0  0  0  0  0  0  0
   34.9618   -6.4590    0.0000 C   0  0  2  0  0  0  0  0  0  0  0  0
   36.9062  -10.6086    0.0000 C   0  0  0  0  0  0  0  0  0  0  0  0
   29.1757   -8.8087    0.0000 C   0  0  0  0  0  0  0  0  0  0  0  0
   42.4929   -8.3803    0.0000 C   0  0  0  0  0  0  0  0  0  0  0  0
   42.0771  -10.3366    0.0000 C   0  0  0  0  0  0  0  0  0  0  0  0
    5.4641    9.6492    0.0000 C   0  0  0  0  0  0  0  0  0  0  0  0
    3.7320    9.6492    0.0000 C   0  0  0  0  0  0  0  0  0  0  0  0
   35.9563   -6.3544    0.0000 C   0  0  0  0  0  0  0  0  0  0  0  0
   34.3740   -5.6499    0.0000 C   0  0  0  0  0  0  0  0  0  0  0  0
    5.4641    8.6492    0.0000 C   0  0  0  0  0  0  0  0  0  0  0  0
   41.8692  -11.3147    0.0000 C   0  0  0  0  0  0  0  0  0  0  0  0
   37.9007  -10.5041    0.0000 C   0  0  0  0  0  0  0  0  0  0  0  0
   36.4994  -11.5221    0.0000 C   0  0  0  0  0  0  0  0  0  0  0  0
    3.7320    8.6492    0.0000 C   0  0  0  0  0  0  0  0  0  0  0  0
   43.6519   -7.0931    0.0000 C   0  0  1  0  0  0  0  0  0  0  0  0
    4.5981    8.1492    0.0000 C   0  0  0  0  0  0  0  0  0  0  0  0
    6.3301    8.1492    0.0000 C   0  0  0  0  0  0  0  0  0  0  0  0
   36.3630   -5.4409    0.0000 C   0  0  0  0  0  0  0  0  0  0  0  0
   32.5660   -7.5815    0.0000 C   0  0  0  0  0  0  0  0  0  0  0  0
   28.9946   -7.0861    0.0000 C   0  0  0  0  0  0  0  0  0  0  0  0
   38.4885  -11.3131    0.0000 C   0  0  0  0  0  0  0  0  0  0  0  0
   37.0872  -12.3311    0.0000 C   0  0  0  0  0  0  0  0  0  0  0  0
   31.9782   -6.7726    0.0000 C   0  0  2  0  0  0  0  0  0  0  0  0
   43.8598   -6.1150    0.0000 C   0  0  0  0  0  0  0  0  0  0  0  0
    6.3301    7.1493    0.0000 C   0  0  0  0  0  0  0  0  0  0  0  0
   38.0817  -12.2266    0.0000 C   0  0  0  0  0  0  0  0  0  0  0  0
   28.4069   -6.2771    0.0000 C   0  0  0  0  0  0  0  0  0  0  0  0
   28.8136   -5.3636    0.0000 C   0  0  0  0  0  0  0  0  0  0  0  0
   44.3950   -7.7622    0.0000 C   0  0  0  0  0  0  0  0  0  0  0  0
    7.1962    6.6493    0.0000 C   0  0  0  0  0  0  0  0  0  0  0  0
   44.8109   -5.8059    0.0000 C   0  0  0  0  0  0  0  0  0  0  0  0
   32.9727   -6.6680    0.0000 C   0  0  0  0  0  0  0  0  0  0  0  0
    2.0000    9.6492    0.0000 C   0  0  0  0  0  0  0  0  0  0  0  0
   28.2258   -4.5546    0.0000 C   0  0  0  0  0  0  0  0  0  0  0  0
   40.7102  -12.6019    0.0000 C   0  0  0  0  0  0  0  0  0  0  0  0
   28.6325   -3.6410    0.0000 C   0  0  1  0  0  0  0  0  0  0  0  0
   31.2094   -4.2410    0.0000 C   0  0  2  0  0  0  0  0  0  0  0  0
   31.7972   -5.0500    0.0000 C   0  0  0  0  0  0  0  0  0  0  0  0
    8.0622    5.1493    0.0000 C   0  0  3  0  0  0  0  0  0  0  0  0
    2.8660    7.1493    0.0000 C   0  0  0  0  0  0  0  0  0  0  0  0
   45.6199   -6.3937    0.0000 C   0  0  0  0  0  0  0  0  0  0  0  0
    8.1667    4.1547    0.0000 C   0  0  0  0  0  0  0  0  0  0  0  0
   29.6271   -3.5365    0.0000 C   0  0  0  0  0  0  0  0  0  0  0  0
   31.6161   -3.3274    0.0000 C   0  0  0  0  0  0  0  0  0  0  0  0
    8.9757    5.5560    0.0000 C   0  0  0  0  0  0  0  0  0  0  0  0
    9.1448    3.9468    0.0000 C   0  0  0  0  0  0  0  0  0  0  0  0
   46.1199   -4.8549    0.0000 C   0  0  0  0  0  0  0  0  0  0  0  0
   10.6394    4.9174    0.0000 C   0  0  0  0  0  0  0  0  0  0  0  0
   32.6106   -3.2229    0.0000 C   0  0  0  0  0  0  0  0  0  0  0  0
   11.2272    4.1084    0.0000 C   0  0  0  0  0  0  0  0  0  0  0  0
   27.0502   -2.9365    0.0000 C   0  0  0  0  0  0  0  0  0  0  0  0
   12.2217    4.2129    0.0000 C   0  0  0  0  0  0  0  0  0  0  0  0
   12.8095    3.4039    0.0000 C   0  0  0  0  0  0  0  0  0  0  0  0
   33.2798   -3.9660    0.0000 C   0  0  0  0  0  0  0  0  0  0  0  0
   26.4624   -2.1275    0.0000 C   0  0  0  0  0  0  0  0  0  0  0  0
   13.8040    3.5084    0.0000 C   0  0  0  0  0  0  0  0  0  0  0  0
   34.0888   -2.5648    0.0000 C   0  0  0  0  0  0  0  0  0  0  0  0
   25.4679   -2.2320    0.0000 C   0  0  0  0  0  0  0  0  0  0  0  0
   14.3918    2.6994    0.0000 C   0  0  0  0  0  0  0  0  0  0  0  0
   23.8856   -1.5276    0.0000 C   0  0  0  0  0  0  0  0  0  0  0  0
   15.9741    1.9949    0.0000 C   0  0  0  0  0  0  0  0  0  0  0  0
   23.2978   -0.7185    0.0000 C   0  0  0  0  0  0  0  0  0  0  0  0
   16.9686    2.0994    0.0000 C   0  0  0  0  0  0  0  0  0  0  0  0
   21.7155   -0.0140    0.0000 C   0  0  0  0  0  0  0  0  0  0  0  0
   18.5509    1.3949    0.0000 C   0  0  0  0  0  0  0  0  0  0  0  0
   20.7210   -0.1186    0.0000 C   0  0  0  0  0  0  0  0  0  0  0  0
   19.1387    0.5859    0.0000 C   0  0  0  0  0  0  0  0  0  0  0  0
   31.9751  -16.6633    0.0000 H   0  0  0  0  0  0  0  0  0  0  0  0
   32.8411  -16.8005    0.0000 H   0  0  0  0  0  0  0  0  0  0  0  0
   32.9783  -15.9345    0.0000 H   0  0  0  0  0  0  0  0  0  0  0  0
   31.0454  -16.3102    0.0000 H   0  0  0  0  0  0  0  0  0  0  0  0
   31.4970  -17.0618    0.0000 H   0  0  0  0  0  0  0  0  0  0  0  0
   32.2486  -16.6102    0.0000 H   0  0  0  0  0  0  0  0  0  0  0  0
   33.0624  -15.4037    0.0000 H   0  0  0  0  0  0  0  0  0  0  0  0
   33.1995  -14.5377    0.0000 H   0  0  0  0  0  0  0  0  0  0  0  0
   32.3335  -14.4005    0.0000 H   0  0  0  0  0  0  0  0  0  0  0  0
   29.3187  -15.3549    0.0000 H   0  0  0  0  0  0  0  0  0  0  0  0
   29.1815  -16.2209    0.0000 H   0  0  0  0  0  0  0  0  0  0  0  0
   30.0475  -16.3580    0.0000 H   0  0  0  0  0  0  0  0  0  0  0  0
   30.5783  -16.4421    0.0000 H   0  0  0  0  0  0  0  0  0  0  0  0
   31.4443  -16.5793    0.0000 H   0  0  0  0  0  0  0  0  0  0  0  0
   31.5815  -15.7133    0.0000 H   0  0  0  0  0  0  0  0  0  0  0  0
   29.6718  -14.4252    0.0000 H   0  0  0  0  0  0  0  0  0  0  0  0
   28.9202  -14.8768    0.0000 H   0  0  0  0  0  0  0  0  0  0  0  0
   29.3718  -15.6283    0.0000 H   0  0  0  0  0  0  0  0  0  0  0  0
   31.7367  -12.8935    0.0000 H   0  0  0  0  0  0  0  0  0  0  0  0
   29.4667  -14.5428    0.0000 H   0  0  0  0  0  0  0  0  0  0  0  0
   30.7845  -11.5829    0.0000 H   0  0  0  0  0  0  0  0  0  0  0  0
   28.5144  -13.2322    0.0000 H   0  0  0  0  0  0  0  0  0  0  0  0
    5.8102   13.4869    0.0000 H   0  0  0  0  0  0  0  0  0  0  0  0
   28.3334  -11.5096    0.0000 H   0  0  0  0  0  0  0  0  0  0  0  0
    6.9337   12.2056    0.0000 H   0  0  0  0  0  0  0  0  0  0  0  0
    7.7453   12.3781    0.0000 H   0  0  0  0  0  0  0  0  0  0  0  0
    8.3277   13.0249    0.0000 H   0  0  0  0  0  0  0  0  0  0  0  0
    8.4144   13.8501    0.0000 H   0  0  0  0  0  0  0  0  0  0  0  0
    7.9792   14.6039    0.0000 H   0  0  0  0  0  0  0  0  0  0  0  0
    7.2212   14.9413    0.0000 H   0  0  0  0  0  0  0  0  0  0  0  0
    5.2520   13.2319    0.0000 H   0  0  0  0  0  0  0  0  0  0  0  0
    4.8535   12.5416    0.0000 H   0  0  0  0  0  0  0  0  0  0  0  0
    5.1167   15.0452    0.0000 H   0  0  0  0  0  0  0  0  0  0  0  0
    5.3630   14.2871    0.0000 H   0  0  0  0  0  0  0  0  0  0  0  0
   38.9441   -8.2589    0.0000 H   0  0  0  0  0  0  0  0  0  0  0  0
   39.8155   -6.7944    0.0000 H   0  0  0  0  0  0  0  0  0  0  0  0
   39.4006   -6.0759    0.0000 H   0  0  0  0  0  0  0  0  0  0  0  0
   38.6055   -5.7218    0.0000 H   0  0  0  0  0  0  0  0  0  0  0  0
   37.7939   -5.8944    0.0000 H   0  0  0  0  0  0  0  0  0  0  0  0
   37.2115   -6.5412    0.0000 H   0  0  0  0  0  0  0  0  0  0  0  0
   37.1248   -7.3664    0.0000 H   0  0  0  0  0  0  0  0  0  0  0  0
    6.0010   11.3393    0.0000 H   0  0  0  0  0  0  0  0  0  0  0  0
    6.4891   15.9826    0.0000 H   0  0  0  0  0  0  0  0  0  0  0  0
   36.1085   -8.9508    0.0000 H   0  0  0  0  0  0  0  0  0  0  0  0
   40.9276   -7.4137    0.0000 H   0  0  0  0  0  0  0  0  0  0  0  0
   35.8044   -9.4529    0.0000 H   0  0  0  0  0  0  0  0  0  0  0  0
   35.8877  -10.2456    0.0000 H   0  0  0  0  0  0  0  0  0  0  0  0
   41.6708   -8.0828    0.0000 H   0  0  0  0  0  0  0  0  0  0  0  0
   36.3895   -7.5106    0.0000 H   0  0  0  0  0  0  0  0  0  0  0  0
    5.2852   17.0666    0.0000 H   0  0  0  0  0  0  0  0  0  0  0  0
    4.5666   16.2686    0.0000 H   0  0  0  0  0  0  0  0  0  0  0  0
   40.7591   -9.4352    0.0000 H   0  0  0  0  0  0  0  0  0  0  0  0
   41.0054  -10.1932    0.0000 H   0  0  0  0  0  0  0  0  0  0  0  0
   34.1906   -6.8709    0.0000 H   0  0  0  0  0  0  0  0  0  0  0  0
   35.2139   -5.8926    0.0000 H   0  0  0  0  0  0  0  0  0  0  0  0
   42.6520  -10.5688    0.0000 H   0  0  0  0  0  0  0  0  0  0  0  0
   42.4057   -9.8108    0.0000 H   0  0  0  0  0  0  0  0  0  0  0  0
    6.0010    9.9593    0.0000 H   0  0  0  0  0  0  0  0  0  0  0  0
   35.9130   -6.9729    0.0000 H   0  0  0  0  0  0  0  0  0  0  0  0
   36.5579   -6.5044    0.0000 H   0  0  0  0  0  0  0  0  0  0  0  0
   33.9250   -7.9786    0.0000 H   0  0  0  0  0  0  0  0  0  0  0  0
   34.8756   -5.2855    0.0000 H   0  0  0  0  0  0  0  0  0  0  0  0
   34.0096   -5.1484    0.0000 H   0  0  0  0  0  0  0  0  0  0  0  0
   33.8724   -6.0144    0.0000 H   0  0  0  0  0  0  0  0  0  0  0  0
   41.9555  -11.9287    0.0000 H   0  0  0  0  0  0  0  0  0  0  0  0
   42.4888  -11.3363    0.0000 H   0  0  0  0  0  0  0  0  0  0  0  0
   38.1529   -9.9377    0.0000 H   0  0  0  0  0  0  0  0  0  0  0  0
   35.8828  -11.5869    0.0000 H   0  0  0  0  0  0  0  0  0  0  0  0
   42.2401   -6.9872    0.0000 H   0  0  0  0  0  0  0  0  0  0  0  0
   27.9713   -8.0645    0.0000 H   0  0  0  0  0  0  0  0  0  0  0  0
   43.5230   -7.6996    0.0000 H   0  0  0  0  0  0  0  0  0  0  0  0
    4.5981    7.5292    0.0000 H   0  0  0  0  0  0  0  0  0  0  0  0
    6.9407    8.0416    0.0000 H   0  0  0  0  0  0  0  0  0  0  0  0
    6.5422    8.7319    0.0000 H   0  0  0  0  0  0  0  0  0  0  0  0
   36.9294   -5.6931    0.0000 H   0  0  0  0  0  0  0  0  0  0  0  0
   36.6152   -4.8745    0.0000 H   0  0  0  0  0  0  0  0  0  0  0  0
   35.7966   -5.1887    0.0000 H   0  0  0  0  0  0  0  0  0  0  0  0
   29.5086   -7.4328    0.0000 H   0  0  0  0  0  0  0  0  0  0  0  0
   29.4253   -6.6402    0.0000 H   0  0  0  0  0  0  0  0  0  0  0  0
   39.1051  -11.2483    0.0000 H   0  0  0  0  0  0  0  0  0  0  0  0
   36.8350  -12.8975    0.0000 H   0  0  0  0  0  0  0  0  0  0  0  0
   31.4766   -7.1370    0.0000 H   0  0  0  0  0  0  0  0  0  0  0  0
   43.7735   -5.5010    0.0000 H   0  0  0  0  0  0  0  0  0  0  0  0
   43.2402   -6.0933    0.0000 H   0  0  0  0  0  0  0  0  0  0  0  0
    5.7196    7.2569    0.0000 H   0  0  0  0  0  0  0  0  0  0  0  0
    6.1181    6.5666    0.0000 H   0  0  0  0  0  0  0  0  0  0  0  0
   40.4574  -11.2089    0.0000 H   0  0  0  0  0  0  0  0  0  0  0  0
   27.8928   -5.9304    0.0000 H   0  0  0  0  0  0  0  0  0  0  0  0
   27.9762   -6.7231    0.0000 H   0  0  0  0  0  0  0  0  0  0  0  0
   29.3276   -5.7103    0.0000 H   0  0  0  0  0  0  0  0  0  0  0  0
   29.2443   -4.9176    0.0000 H   0  0  0  0  0  0  0  0  0  0  0  0
    7.8067    6.5416    0.0000 H   0  0  0  0  0  0  0  0  0  0  0  0
    7.4082    7.2319    0.0000 H   0  0  0  0  0  0  0  0  0  0  0  0
   33.0375   -7.2846    0.0000 H   0  0  0  0  0  0  0  0  0  0  0  0
   33.5893   -6.6032    0.0000 H   0  0  0  0  0  0  0  0  0  0  0  0
   32.9079   -6.0514    0.0000 H   0  0  0  0  0  0  0  0  0  0  0  0
   30.7738   -6.0284    0.0000 H   0  0  0  0  0  0  0  0  0  0  0  0
    1.6900   10.1862    0.0000 H   0  0  0  0  0  0  0  0  0  0  0  0
    1.4631    9.3392    0.0000 H   0  0  0  0  0  0  0  0  0  0  0  0
    2.3100    9.1123    0.0000 H   0  0  0  0  0  0  0  0  0  0  0  0
   27.7118   -4.2079    0.0000 H   0  0  0  0  0  0  0  0  0  0  0  0
   27.7951   -5.0005    0.0000 H   0  0  0  0  0  0  0  0  0  0  0  0
   28.8847   -3.0746    0.0000 H   0  0  0  0  0  0  0  0  0  0  0  0
   30.8449   -3.7394    0.0000 H   0  0  0  0  0  0  0  0  0  0  0  0
    8.0946    5.7684    0.0000 H   0  0  0  0  0  0  0  0  0  0  0  0
    2.2460    7.1493    0.0000 H   0  0  0  0  0  0  0  0  0  0  0  0
    2.8660    6.5293    0.0000 H   0  0  0  0  0  0  0  0  0  0  0  0
    3.4860    7.1493    0.0000 H   0  0  0  0  0  0  0  0  0  0  0  0
   38.4174  -13.6020    0.0000 H   0  0  0  0  0  0  0  0  0  0  0  0
   44.7555   -4.3533    0.0000 H   0  0  0  0  0  0  0  0  0  0  0  0
   45.6199   -7.0137    0.0000 H   0  0  0  0  0  0  0  0  0  0  0  0
    7.5467    4.1547    0.0000 H   0  0  0  0  0  0  0  0  0  0  0  0
    8.1019    3.5381    0.0000 H   0  0  0  0  0  0  0  0  0  0  0  0
   29.9627   -4.9119    0.0000 H   0  0  0  0  0  0  0  0  0  0  0  0
   31.6594   -2.7089    0.0000 H   0  0  0  0  0  0  0  0  0  0  0  0
   31.0145   -3.1774    0.0000 H   0  0  0  0  0  0  0  0  0  0  0  0
   45.8069   -7.8681    0.0000 H   0  0  0  0  0  0  0  0  0  0  0  0
   28.2969   -2.2656    0.0000 H   0  0  0  0  0  0  0  0  0  0  0  0
   41.3245  -13.8775    0.0000 H   0  0  0  0  0  0  0  0  0  0  0  0
   42.0430  -13.0794    0.0000 H   0  0  0  0  0  0  0  0  0  0  0  0
   46.4843   -4.3533    0.0000 H   0  0  0  0  0  0  0  0  0  0  0  0
   11.1966    5.1892    0.0000 H   0  0  0  0  0  0  0  0  0  0  0  0
   10.4685    5.5134    0.0000 H   0  0  0  0  0  0  0  0  0  0  0  0
   39.6303  -13.5173    0.0000 H   0  0  0  0  0  0  0  0  0  0  0  0
   10.6699    3.8366    0.0000 H   0  0  0  0  0  0  0  0  0  0  0  0
   11.3981    3.5124    0.0000 H   0  0  0  0  0  0  0  0  0  0  0  0
   12.7789    4.4847    0.0000 H   0  0  0  0  0  0  0  0  0  0  0  0
   12.0508    4.8089    0.0000 H   0  0  0  0  0  0  0  0  0  0  0  0
   32.8585   -1.7905    0.0000 H   0  0  0  0  0  0  0  0  0  0  0  0
   12.2522    3.1321    0.0000 H   0  0  0  0  0  0  0  0  0  0  0  0
   12.9804    2.8079    0.0000 H   0  0  0  0  0  0  0  0  0  0  0  0
   33.1509   -4.5725    0.0000 H   0  0  0  0  0  0  0  0  0  0  0  0
   27.0197   -1.8557    0.0000 H   0  0  0  0  0  0  0  0  0  0  0  0
   26.2916   -1.5315    0.0000 H   0  0  0  0  0  0  0  0  0  0  0  0
   14.3612    3.7802    0.0000 H   0  0  0  0  0  0  0  0  0  0  0  0
   13.6331    4.1044    0.0000 H   0  0  0  0  0  0  0  0  0  0  0  0
   34.5495   -2.1499    0.0000 H   0  0  0  0  0  0  0  0  0  0  0  0
   24.9107   -2.5038    0.0000 H   0  0  0  0  0  0  0  0  0  0  0  0
   25.6388   -2.8280    0.0000 H   0  0  0  0  0  0  0  0  0  0  0  0
   15.6385    3.3703    0.0000 H   0  0  0  0  0  0  0  0  0  0  0  0
   23.3284   -1.7993    0.0000 H   0  0  0  0  0  0  0  0  0  0  0  0
   24.0565   -2.1235    0.0000 H   0  0  0  0  0  0  0  0  0  0  0  0
   15.4168    1.7231    0.0000 H   0  0  0  0  0  0  0  0  0  0  0  0
   16.1450    1.3989    0.0000 H   0  0  0  0  0  0  0  0  0  0  0  0
   23.8551   -0.4467    0.0000 H   0  0  0  0  0  0  0  0  0  0  0  0
   23.1269   -0.1226    0.0000 H   0  0  0  0  0  0  0  0  0  0  0  0
   17.5259    2.3712    0.0000 H   0  0  0  0  0  0  0  0  0  0  0  0
   16.7977    2.6954    0.0000 H   0  0  0  0  0  0  0  0  0  0  0  0
   22.2728    0.2577    0.0000 H   0  0  0  0  0  0  0  0  0  0  0  0
   21.5446    0.5819    0.0000 H   0  0  0  0  0  0  0  0  0  0  0  0
   19.1082    1.6667    0.0000 H   0  0  0  0  0  0  0  0  0  0  0  0
   18.3800    1.9909    0.0000 H   0  0  0  0  0  0  0  0  0  0  0  0
   20.1638   -0.3904    0.0000 H   0  0  0  0  0  0  0  0  0  0  0  0
   20.8919   -0.7146    0.0000 H   0  0  0  0  0  0  0  0  0  0  0  0
   18.5814    0.3141    0.0000 H   0  0  0  0  0  0  0  0  0  0  0  0
   19.3096   -0.0101    0.0000 H   0  0  0  0  0  0  0  0  0  0  0  0
  1114  1  0  0  0  0
  1123  1  0  0  0  0
  2  3  1  0  0  0  0
  2 48  1  0  0  0  0
  2 49  1  0  0  0  0
  2 50  1  0  0  0  0
  4 28  1  0  0  0  0
  4 87  1  0  0  0  0
  5 74  2  0  0  0  0
  6 75  2  0  0  0  0
  7 77  2  0  0  0  0
  8 84  2  0  0  0  0
  9 91  1  0  0  0  0
  9117  1  0  0  0  0
 10 87  2  0  0  0  0
 11 88  2  0  0  0  0
 12 98  1  0  0  0  0
 12124  1  0  0  0  0
 13103  2  0  0  0  0
 14110  1  0  0  0  0
 14260  1  0  0  0  0
 15113  1  0  0  0  0
 15268  1  0  0  0  0
 16113  2  0  0  0  0
 17122  2  0  0  0  0
 18127  2  0  0  0  0
 19129  2  0  0  0  0
 20130  2  0  0  0  0
 21135  2  0  0  0  0
 22142  1  0  0  0  0
 22144  1  0  0  0  0
 23143  2  0  0  0  0
 24146  1  0  0  0  0
 24148  1  0  0  0  0
 25147  1  0  0  0  0
 25149  1  0  0  0  0
 26150  1  0  0  0  0
 26151  1  0  0  0  0
 27 62  1  0  0  0  0
 27 66  1  0  0  0  0
 27 68  1  0  0  0  0
 28 63  2  0  0  0  0
 29 69  1  0  0  0  0
 29 72  1  0  0  0  0
 29 74  1  0  0  0  0
 30 67  1  0  0  0  0
 30 77  1  0  0  0  0
 30193  1  0  0  0  0
 31 75  1  0  0  0  0
 79 31  1  6  0  0  0
 31196  1  0  0  0  0
 76 32  1  6  0  0  0
 32 84  1  0  0  0  0
 32200  1  0  0  0  0
 83 33  1  1  0  0  0
 33103  1  0  0  0  0
 33212  1  0  0  0  0
 34 88  1  0  0  0  0
 99 34  1  1  0  0  0
 34220  1  0  0  0  0
 35 87  1  0  0  0  0
 35104  1  0  0  0  0
 35221  1  0  0  0  0
 36 95  1  0  0  0  0
 36119  1  0  0  0  0
 36238  1  0  0  0  0
107 37  1  1  0  0  0
 37122  1  0  0  0  0
 37248  1  0  0  0  0
 38115  1  0  0  0  0
 38131  1  0  0  0  0
 38261  1  0  0  0  0
121 39  1  1  0  0  0
 39127  1  0  0  0  0
 39265  1  0  0  0  0
 40129  1  0  0  0  0
 40130  1  0  0  0  0
 40132  1  0  0  0  0
120 41  1  6  0  0  0
 41135  1  0  0  0  0
 41269  1  0  0  0  0
 42119  1  0  0  0  0
 42270  1  0  0  0  0
 42271  1  0  0  0  0
 43119  2  0  0  0  0
 43275  1  0  0  0  0
 44125  1  0  0  0  0
 44131  2  0  0  0  0
 45133  1  0  0  0  0
 45141  1  0  0  0  0
 45280  1  0  0  0  0
 46138  1  0  0  0  0
 46141  2  0  0  0  0
 47143  1  0  0  0  0
 47145  1  0  0  0  0
 47291  1  0  0  0  0
 48 51  1  0  0  0  0
 48 52  1  0  0  0  0
 48 53  1  0  0  0  0
 49 54  1  0  0  0  0
 49 55  1  0  0  0  0
 49 56  1  0  0  0  0
 50 57  2  0  0  0  0
 50 58  1  0  0  0  0
 51152  1  0  0  0  0
 51153  1  0  0  0  0
 51154  1  0  0  0  0
 52155  1  0  0  0  0
 52156  1  0  0  0  0
 52157  1  0  0  0  0
 53158  1  0  0  0  0
 53159  1  0  0  0  0
 53160  1  0  0  0  0
 54161  1  0  0  0  0
 54162  1  0  0  0  0
 54163  1  0  0  0  0
 55164  1  0  0  0  0
 55165  1  0  0  0  0
 55166  1  0  0  0  0
 56167  1  0  0  0  0
 56168  1  0  0  0  0
 56169  1  0  0  0  0
 57 59  1  0  0  0  0
 57170  1  0  0  0  0
 58 60  2  0  0  0  0
 58171  1  0  0  0  0
 59 61  2  0  0  0  0
 59172  1  0  0  0  0
 60 61  1  0  0  0  0
 60173  1  0  0  0  0
 61 63  1  0  0  0  0
 62 64  1  0  0  0  0
 62 67  1  1  0  0  0
 62174  1  0  0  0  0
 63175  1  0  0  0  0
 64 65  1  0  0  0  0
 64176  1  0  0  0  0
 64177  1  0  0  0  0
 65 66  1  0  0  0  0
 65178  1  0  0  0  0
 65179  1  0  0  0  0
 66180  1  0  0  0  0
 66181  1  0  0  0  0
 67182  1  0  0  0  0
 67183  1  0  0  0  0
 68 73  1  0  0  0  0
 68184  1  0  0  0  0
 68185  1  0  0  0  0
 69 70  1  0  0  0  0
 69 75  1  1  0  0  0
 69186  1  0  0  0  0
 70 71  1  0  0  0  0
 70187  1  0  0  0  0
 70188  1  0  0  0  0
 71 72  1  0  0  0  0
 71189  1  0  0  0  0
 71190  1  0  0  0  0
 72191  1  0  0  0  0
 72192  1  0  0  0  0
 73 80  2  0  0  0  0
 73194  1  0  0  0  0
 74 76  1  0  0  0  0
 76 78  1  0  0  0  0
 76195  1  0  0  0  0
 77 81  1  0  0  0  0
 78 86  1  0  0  0  0
 78197  1  0  0  0  0
 78198  1  0  0  0  0
 79 82  1  0  0  0  0
 79 88  1  0  0  0  0
 79199  1  0  0  0  0
 80201  1  0  0  0  0
 80202  1  0  0  0  0
 81 90  1  0  0  0  0
 81 91  2  0  0  0  0
 82 89  1  0  0  0  0
 82203  1  0  0  0  0
 82204  1  0  0  0  0
 83 84  1  0  0  0  0
 83 85  1  0  0  0  0
 83205  1  0  0  0  0
 85 92  1  0  0  0  0
 85 93  1  1  0  0  0
 85206  1  0  0  0  0
 86 96  2  0  0  0  0
 86 97  1  0  0  0  0
 89 95  1  0  0  0  0
 89207  1  0  0  0  0
 89208  1  0  0  0  0
 90 94  2  0  0  0  0
 90209  1  0  0  0  0
 91 98  1  0  0  0  0
 92102  1  0  0  0  0
 92210  1  0  0  0  0
 92211  1  0  0  0  0
 93213  1  0  0  0  0
 93214  1  0  0  0  0
 93215  1  0  0  0  0
 94100  1  0  0  0  0
 94101  1  0  0  0  0
 95216  1  0  0  0  0
 95217  1  0  0  0  0
 96105  1  0  0  0  0
 96218  1  0  0  0  0
 97106  2  0  0  0  0
 97219  1  0  0  0  0
 98100  2  0  0  0  0
 99108  1  0  0  0  0
 99113  1  0  0  0  0
 99222  1  0  0  0  0
100223  1  0  0  0  0
101109  1  0  0  0  0
101224  1  0  0  0  0
101225  1  0  0  0  0
102226  1  0  0  0  0
102227  1  0  0  0  0
102228  1  0  0  0  0
103107  1  0  0  0  0
104111  1  0  0  0  0
104229  1  0  0  0  0
104230  1  0  0  0  0
105110  2  0  0  0  0
105231  1  0  0  0  0
106110  1  0  0  0  0
106232  1  0  0  0  0
107116  1  0  0  0  0
107233  1  0  0  0  0
108115  1  0  0  0  0
108234  1  0  0  0  0
108235  1  0  0  0  0
109114  1  0  0  0  0
109236  1  0  0  0  0
109237  1  0  0  0  0
111112  1  0  0  0  0
111239  1  0  0  0  0
111240  1  0  0  0  0
112118  1  0  0  0  0
112241  1  0  0  0  0
112242  1  0  0  0  0
114243  1  0  0  0  0
114244  1  0  0  0  0
115125  2  0  0  0  0
116245  1  0  0  0  0
116246  1  0  0  0  0
116247  1  0  0  0  0
117249  1  0  0  0  0
117250  1  0  0  0  0
117251  1  0  0  0  0
118120  1  0  0  0  0
118252  1  0  0  0  0
118253  1  0  0  0  0
120127  1  0  0  0  0
120254  1  0  0  0  0
121122  1  0  0  0  0
121128  1  0  0  0  0
121255  1  0  0  0  0
123126  1  0  0  0  0
123129  1  0  0  0  0
123256  1  0  0  0  0
124257  1  0  0  0  0
124258  1  0  0  0  0
124259  1  0  0  0  0
125262  1  0  0  0  0
126130  1  0  0  0  0
126263  1  0  0  0  0
126264  1  0  0  0  0
128133  1  0  0  0  0
128266  1  0  0  0  0
128267  1  0  0  0  0
131272  1  0  0  0  0
132134  1  0  0  0  0
132273  1  0  0  0  0
132274  1  0  0  0  0
133138  2  0  0  0  0
134136  1  0  0  0  0
134276  1  0  0  0  0
134277  1  0  0  0  0
135139  1  0  0  0  0
136137  1  0  0  0  0
136278  1  0  0  0  0
136279  1  0  0  0  0
137140  1  0  0  0  0
137281  1  0  0  0  0
137282  1  0  0  0  0
138283  1  0  0  0  0
139142  1  0  0  0  0
139284  1  0  0  0  0
139285  1  0  0  0  0
140143  1  0  0  0  0
140286  1  0  0  0  0
140287  1  0  0  0  0
141288  1  0  0  0  0
142289  1  0  0  0  0
142290  1  0  0  0  0
144146  1  0  0  0  0
144292  1  0  0  0  0
144293  1  0  0  0  0
145147  1  0  0  0  0
145294  1  0  0  0  0
145295  1  0  0  0  0
146296  1  0  0  0  0
146297  1  0  0  0  0
147298  1  0  0  0  0
147299  1  0  0  0  0
148150  1  0  0  0  0
148300  1  0  0  0  0
148301  1  0  0  0  0
149151  1  0  0  0  0
149302  1  0  0  0  0
149303  1  0  0  0  0
150304  1  0  0  0  0
150305  1  0  0  0  0
151306  1  0  0  0  0
151307  1  0  0  0  0
M  END
> <PUBCHEM_COMPOUND_CID>
90656854

> <PUBCHEM_COMPOUND_CANONICALIZED>
1

> <PUBCHEM_CACTVS_COMPLEXITY>
4310

> <PUBCHEM_CACTVS_HBOND_ACCEPTOR>
30

> <PUBCHEM_CACTVS_HBOND_DONOR>
17

> <PUBCHEM_CACTVS_ROTATABLE_BOND>
72

> <PUBCHEM_CACTVS_SUBSKEYS>
AAADcfB//whAAAAAAAAAAAAAAAAAAWLFixYwYMAAAAAAAAAB9AAAHhQUCAAADSzl/ga/npfZlgmoAzX3fACCiC21MrAJ2YG+/NmPbrbm/TuXcWpu9jP6+ae/2fKOIAADAAAIQABAAAYAABCAAAAAAAAAAA==

> <PUBCHEM_IUPAC_OPENEYE_NAME>
(2S)-2-[[(2S)-2-[[(2S)-1-[(2S)-2-[[(2S,3S)-2-[[(2S)-2-[[(2S)-2-[[(2S)-2-[3-[2-[2-[2-[2-[6-[3-[3-[3-[[(2S)-1-allylpyrrolidin-2-yl]methylcarbamoyl]-4,5-dimethoxy-phenyl]propylsulfanyl]-2,5-dioxo-pyrrolidin-1-yl]hexanoylamino]ethoxy]ethoxy]ethoxy]ethoxy]propanoylamino]-6-[[(E)-[4-[ditert-butyl(fluoro)silyl]phenyl]methyleneamino]oxycarbonylamino]hexanoyl]amino]-3-(1H-imidazol-5-yl)propanoyl]amino]propanoyl]amino]-3-methyl-pentanoyl]amino]-3-(4-hydroxyphenyl)propanoyl]pyrrolidine-2-carbonyl]amino]-5-guanidino-pentanoyl]amino]-3-(1H-imidazol-5-yl)propanoic acid

> <PUBCHEM_IUPAC_CAS_NAME>
(2S)-2-[[(2S)-5-carbamimidamido-2-[[[(2S)-1-[(2S)-2-[[(2S,3S)-2-[[(2S)-2-[[(2S)-2-[[(2S)-6-[[[(E)-[4-[ditert-butyl(fluoro)silyl]phenyl]methylideneamino]oxy-oxomethyl]amino]-2-[[3-[2-[2-[2-[2-[[6-[3-[3-[3,4-dimethoxy-5-[oxo-[[(2S)-1-prop-2-enyl-2-pyrrolidinyl]methylamino]methyl]phenyl]propylthio]-2,5-dioxo-1-pyrrolidinyl]-1-oxohexyl]amino]ethoxy]ethoxy]ethoxy]ethoxy]-1-oxopropyl]amino]-1-oxohexyl]amino]-3-(1H-imidazol-5-yl)-1-oxopropyl]amino]-1-oxopropyl]amino]-3-methyl-1-oxopentyl]amino]-3-(4-hydroxyphenyl)-1-oxopropyl]-2-pyrrolidinyl]-oxomethyl]amino]-1-oxopentyl]amino]-3-(1H-imidazol-5-yl)propanoic acid

> <PUBCHEM_IUPAC_NAME_MARKUP>
(2<I>S</I>)-2-[[(2<I>S</I>)-5-carbamimidamido-2-[[(2<I>S</I>)-1-[(2<I>S</I>)-2-[[(2<I>S</I>,3<I>S</I>)-2-[[(2<I>S</I>)-2-[[(2<I>S</I>)-2-[[(2<I>S</I>)-6-[[(<I>E</I>)-[4-[di<I>tert</I>-butyl(fluoro)silyl]phenyl]methylideneamino]oxycarbonylamino]-2-[3-[2-[2-[2-[2-[6-[3-[3-[3,4-dimethoxy-5-[[(2<I>S</I>)-1-prop-2-enylpyrrolidin-2-yl]methylcarbamoyl]phenyl]propylsulfanyl]-2,5-dioxopyrrolidin-1-yl]hexanoylamino]ethoxy]ethoxy]ethoxy]ethoxy]propanoylamino]hexanoyl]amino]-3-(1<I>H</I>-imidazol-5-yl)propanoyl]amino]propanoyl]amino]-3-methylpentanoyl]amino]-3-(4-hydroxyphenyl)propanoyl]pyrrolidine-2-carbonyl]amino]pentanoyl]amino]-3-(1<I>H</I>-imidazol-5-yl)propanoic acid

> <PUBCHEM_IUPAC_NAME>
(2S)-2-[[(2S)-5-carbamimidamido-2-[[(2S)-1-[(2S)-2-[[(2S,3S)-2-[[(2S)-2-[[(2S)-2-[[(2S)-6-[[(E)-[4-[ditert-butyl(fluoro)silyl]phenyl]methylideneamino]oxycarbonylamino]-2-[3-[2-[2-[2-[2-[6-[3-[3-[3,4-dimethoxy-5-[[(2S)-1-prop-2-enylpyrrolidin-2-yl]methylcarbamoyl]phenyl]propylsulfanyl]-2,5-dioxopyrrolidin-1-yl]hexanoylamino]ethoxy]ethoxy]ethoxy]ethoxy]propanoylamino]hexanoyl]amino]-3-(1H-imidazol-5-yl)propanoyl]amino]propanoyl]amino]-3-methylpentanoyl]amino]-3-(4-hydroxyphenyl)propanoyl]pyrrolidine-2-carbonyl]amino]pentanoyl]amino]-3-(1H-imidazol-5-yl)propanoic acid

> <PUBCHEM_IUPAC_SYSTEMATIC_NAME>
(2S)-2-[[(2S)-5-carbamimidamido-2-[[(2S)-1-[(2S)-2-[[(2S,3S)-2-[[(2S)-2-[[(2S)-2-[[(2S)-6-[[(E)-[4-[ditert-butyl(fluoranyl)silyl]phenyl]methylideneamino]oxycarbonylamino]-2-[3-[2-[2-[2-[2-[6-[3-[3-[3,4-dimethoxy-5-[[(2S)-1-prop-2-enylpyrrolidin-2-yl]methylcarbamoyl]phenyl]propylsulfanyl]-2,5-bis(oxidanylidene)pyrrolidin-1-yl]hexanoylamino]ethoxy]ethoxy]ethoxy]ethoxy]propanoylamino]hexanoyl]amino]-3-(1H-imidazol-5-yl)propanoyl]amino]propanoyl]amino]-3-methyl-pentanoyl]amino]-3-(4-hydroxyphenyl)propanoyl]pyrrolidin-2-yl]carbonylamino]pentanoyl]amino]-3-(1H-imidazol-5-yl)propanoic acid

> <PUBCHEM_IUPAC_TRADITIONAL_NAME>
(2S)-2-[[(2S)-2-[[(2S)-1-[(2S)-2-[[(2S,3S)-2-[[(2S)-2-[[(2S)-2-[[(2S)-2-[3-[2-[2-[2-[2-[6-[3-[3-[3-[[(2S)-1-allylpyrrolidin-2-yl]methylcarbamoyl]-4,5-dimethoxy-phenyl]propylthio]-2,5-diketo-pyrrolidino]hexanoylamino]ethoxy]ethoxy]ethoxy]ethoxy]propanoylamino]-6-[[(E)-[4-[ditert-butyl(fluoro)silyl]benzylidene]amino]oxycarbonylamino]hexanoyl]amino]-3-(1H-imidazol-5-yl)propanoyl]amino]propanoyl]amino]-3-methyl-pentanoyl]amino]-3-(4-hydroxyphenyl)propanoyl]prolyl]amino]-5-guanidino-pentanoyl]amino]-3-(1H-imidazol-5-yl)propionic acid

> <PUBCHEM_IUPAC_INCHI>
InChI=1S/C104H156FN21O23SSi/c1-13-42-124-43-21-25-74(124)64-113-92(132)77-55-71(57-84(143-11)90(77)144-12)24-23-54-150-85-60-88(130)126(99(85)139)44-19-15-16-29-86(128)110-41-47-146-49-51-148-53-52-147-50-48-145-46-38-87(129)118-78(26-17-18-39-112-102(142)149-116-61-70-32-36-76(37-33-70)151(105,103(5,6)7)104(8,9)10)93(133)120-80(58-72-62-108-65-114-72)95(135)117-68(4)91(131)123-89(67(3)14-2)97(137)121-81(56-69-30-34-75(127)35-31-69)98(138)125-45-22-28-83(125)96(136)119-79(27-20-40-111-101(106)107)94(134)122-82(100(140)141)59-73-63-109-66-115-73/h13,30-37,55,57,61-63,65-68,74,78-83,85,89,127H,1,14-29,38-54,56,58-60,64H2,2-12H3,(H,108,114)(H,109,115)(H,110,128)(H,112,142)(H,113,132)(H,117,135)(H,118,129)(H,119,136)(H,120,133)(H,121,137)(H,122,134)(H,123,131)(H,140,141)(H4,106,107,111)/b116-61+/t67-,68-,74-,78-,79-,80-,81-,82-,83-,85?,89-/m0/s1

> <PUBCHEM_IUPAC_INCHIKEY>
YMYUWKBPKXTFOI-WDNSJAFCSA-N

> <PUBCHEM_EXACT_MASS>
2147.11905101

> <PUBCHEM_MOLECULAR_FORMULA>
C104H156FN21O23SSi

> <PUBCHEM_MOLECULAR_WEIGHT>
2147.6

> <PUBCHEM_OPENEYE_CAN_SMILES>
CCC(C)C(C(=O)NC(CC1=CC=C(C=C1)O)C(=O)N2CCCC2C(=O)NC(CCCNC(=N)N)C(=O)NC(CC3=CN=CN3)C(=O)O)NC(=O)C(C)NC(=O)C(CC4=CN=CN4)NC(=O)C(CCCCNC(=O)ON=CC5=CC=C(C=C5)[Si](C(C)(C)C)(C(C)(C)C)F)NC(=O)CCOCCOCCOCCOCCNC(=O)CCCCCN6C(=O)CC(C6=O)SCCCC7=CC(=C(C(=C7)OC)OC)C(=O)NCC8CCCN8CC=C

> <PUBCHEM_OPENEYE_ISO_SMILES>
CC[C@H](C)[C@@H](C(=O)N[C@@H](CC1=CC=C(C=C1)O)C(=O)N2CCC[C@H]2C(=O)N[C@@H](CCCNC(=N)N)C(=O)N[C@@H](CC3=CN=CN3)C(=O)O)NC(=O)[C@H](C)NC(=O)[C@H](CC4=CN=CN4)NC(=O)[C@H](CCCCNC(=O)O/N=C/C5=CC=C(C=C5)[Si](C(C)(C)C)(C(C)(C)C)F)NC(=O)CCOCCOCCOCCOCCNC(=O)CCCCCN6C(=O)CC(C6=O)SCCCC7=CC(=C(C(=C7)OC)OC)C(=O)NC[C@@H]8CCCN8CC=C

> <PUBCHEM_CACTVS_TPSA>
631

> <PUBCHEM_MONOISOTOPIC_WEIGHT>
2146.11569618

> <PUBCHEM_TOTAL_CHARGE>
0

> <PUBCHEM_HEAVY_ATOM_COUNT>
151

> <PUBCHEM_ATOM_DEF_STEREO_COUNT>
10

> <PUBCHEM_ATOM_UDEF_STEREO_COUNT>
1

> <PUBCHEM_BOND_DEF_STEREO_COUNT>
1

> <PUBCHEM_BOND_UDEF_STEREO_COUNT>
0

> <PUBCHEM_ISOTOPIC_ATOM_COUNT>
0

> <PUBCHEM_COMPONENT_COUNT>
1

> <PUBCHEM_CACTVS_TAUTO_COUNT>
-1

> <PUBCHEM_COORDINATE_TYPE>
1
5
255

> <PUBCHEM_BONDANNOTATIONS>
123  1  3
105  110  8
106  110  8
115  125  8
133  138  8
79  31  6
76  32  6
83  33  5
99  34  5
107  37  5
38  115  8
38  131  8
121  39  5
120  41  6
44  125  8
44  131  8
45  133  8
45  141  8
46  138  8
46  141  8
50  57  8
50  58  8
57  59  8
58  60  8
59  61  8
60  61  8
62  67  5
69  75  5
81  90  8
81  91  8
85  93  5
86  96  8
86  97  8
90  94  8
91  98  8
94  100  8
96  105  8
97  106  8
98  100  8

$$$$
