164616373
  -OEChem-09292322432D

 55 57  0     1  0  0  0  0  0999 V2000
    6.0010   -4.2990    0.0000 Cl  0  0  0  0  0  0  0  0  0  0  0  0
    3.4030   -0.7990    0.0000 O   0  0  0  0  0  0  0  0  0  0  0  0
    6.0010   -2.2990    0.0000 O   0  0  0  0  0  0  0  0  0  0  0  0
    2.5369   -2.2990    0.0000 O   0  0  0  0  0  0  0  0  0  0  0  0
    6.1056    1.6955    0.0000 N   0  0  3  0  0  0  0  0  0  0  0  0
    5.1350   -0.7990    0.0000 N   0  0  0  0  0  0  0  0  0  0  0  0
    6.0010    0.7010    0.0000 C   0  0  1  0  0  0  0  0  0  0  0  0
    6.9146    0.2942    0.0000 C   0  0  0  0  0  0  0  0  0  0  0  0
    7.5837    1.0374    0.0000 C   0  0  0  0  0  0  0  0  0  0  0  0
    7.0837    1.9034    0.0000 C   0  0  0  0  0  0  0  0  0  0  0  0
    5.1350    0.2010    0.0000 C   0  0  0  0  0  0  0  0  0  0  0  0
    5.3624    2.3646    0.0000 C   0  0  0  0  0  0  0  0  0  0  0  0
    5.5703    3.3428    0.0000 C   0  0  0  0  0  0  0  0  0  0  0  0
    4.2690   -1.2990    0.0000 C   0  0  0  0  0  0  0  0  0  0  0  0
    4.8272    4.0119    0.0000 C   0  0  0  0  0  0  0  0  0  0  0  0
    6.5214    3.6518    0.0000 C   0  0  0  0  0  0  0  0  0  0  0  0
    4.2690   -2.2990    0.0000 C   0  0  0  0  0  0  0  0  0  0  0  0
    5.0351    4.9900    0.0000 C   0  0  0  0  0  0  0  0  0  0  0  0
    6.7293    4.6299    0.0000 C   0  0  0  0  0  0  0  0  0  0  0  0
    3.4030   -2.7990    0.0000 C   0  0  0  0  0  0  0  0  0  0  0  0
    5.9862    5.2990    0.0000 C   0  0  0  0  0  0  0  0  0  0  0  0
    5.1350   -2.7990    0.0000 C   0  0  0  0  0  0  0  0  0  0  0  0
    3.4030   -3.7990    0.0000 C   0  0  0  0  0  0  0  0  0  0  0  0
    5.1350   -3.7990    0.0000 C   0  0  0  0  0  0  0  0  0  0  0  0
    4.2690   -4.2990    0.0000 C   0  0  0  0  0  0  0  0  0  0  0  0
    2.5369   -4.2990    0.0000 C   0  0  0  0  0  0  0  0  0  0  0  0
    2.5369   -5.2990    0.0000 C   0  0  0  0  0  0  0  0  0  0  0  0
    6.8671   -2.7990    0.0000 C   0  0  0  0  0  0  0  0  0  0  0  0
    5.4811    1.0386    0.0000 H   0  0  0  0  0  0  0  0  0  0  0  0
    6.6046   -0.2427    0.0000 H   0  0  0  0  0  0  0  0  0  0  0  0
    7.4162   -0.0702    0.0000 H   0  0  0  0  0  0  0  0  0  0  0  0
    7.9986    0.5766    0.0000 H   0  0  0  0  0  0  0  0  0  0  0  0
    8.0853    1.4018    0.0000 H   0  0  0  0  0  0  0  0  0  0  0  0
    7.6501    2.1556    0.0000 H   0  0  0  0  0  0  0  0  0  0  0  0
    6.8921    2.4930    0.0000 H   0  0  0  0  0  0  0  0  0  0  0  0
    4.9230    0.7836    0.0000 H   0  0  0  0  0  0  0  0  0  0  0  0
    4.5244    0.0933    0.0000 H   0  0  0  0  0  0  0  0  0  0  0  0
    4.7876    2.5969    0.0000 H   0  0  0  0  0  0  0  0  0  0  0  0
    5.0339    1.8388    0.0000 H   0  0  0  0  0  0  0  0  0  0  0  0
    5.6720   -1.1091    0.0000 H   0  0  0  0  0  0  0  0  0  0  0  0
    4.2375    3.8203    0.0000 H   0  0  0  0  0  0  0  0  0  0  0  0
    6.9821    3.2369    0.0000 H   0  0  0  0  0  0  0  0  0  0  0  0
    4.5744    5.4049    0.0000 H   0  0  0  0  0  0  0  0  0  0  0  0
    7.3190    4.8215    0.0000 H   0  0  0  0  0  0  0  0  0  0  0  0
    6.1151    5.9055    0.0000 H   0  0  0  0  0  0  0  0  0  0  0  0
    2.3249   -3.7164    0.0000 H   0  0  0  0  0  0  0  0  0  0  0  0
    1.9264   -4.4067    0.0000 H   0  0  0  0  0  0  0  0  0  0  0  0
    4.2690   -4.9191    0.0000 H   0  0  0  0  0  0  0  0  0  0  0  0
    1.9169   -5.2990    0.0000 H   0  0  0  0  0  0  0  0  0  0  0  0
    2.5369   -5.9191    0.0000 H   0  0  0  0  0  0  0  0  0  0  0  0
    3.1569   -5.2990    0.0000 H   0  0  0  0  0  0  0  0  0  0  0  0
    2.0000   -2.6090    0.0000 H   0  0  0  0  0  0  0  0  0  0  0  0
    6.5571   -3.3360    0.0000 H   0  0  0  0  0  0  0  0  0  0  0  0
    7.4040   -3.1090    0.0000 H   0  0  0  0  0  0  0  0  0  0  0  0
    7.1771   -2.2621    0.0000 H   0  0  0  0  0  0  0  0  0  0  0  0
  1 24  1  0  0  0  0
  2 14  2  0  0  0  0
  3 22  1  0  0  0  0
  3 28  1  0  0  0  0
  4 20  1  0  0  0  0
  4 52  1  0  0  0  0
  5  7  1  0  0  0  0
  5 10  1  0  0  0  0
  5 12  1  0  0  0  0
  6 11  1  0  0  0  0
  6 14  1  0  0  0  0
  6 40  1  0  0  0  0
  7  8  1  0  0  0  0
  7 11  1  1  0  0  0
  7 29  1  0  0  0  0
  8  9  1  0  0  0  0
  8 30  1  0  0  0  0
  8 31  1  0  0  0  0
  9 10  1  0  0  0  0
  9 32  1  0  0  0  0
  9 33  1  0  0  0  0
 10 34  1  0  0  0  0
 10 35  1  0  0  0  0
 11 36  1  0  0  0  0
 11 37  1  0  0  0  0
 12 13  1  0  0  0  0
 12 38  1  0  0  0  0
 12 39  1  0  0  0  0
 13 15  2  0  0  0  0
 13 16  1  0  0  0  0
 14 17  1  0  0  0  0
 15 18  1  0  0  0  0
 15 41  1  0  0  0  0
 16 19  2  0  0  0  0
 16 42  1  0  0  0  0
 17 20  2  0  0  0  0
 17 22  1  0  0  0  0
 18 21  2  0  0  0  0
 18 43  1  0  0  0  0
 19 21  1  0  0  0  0
 19 44  1  0  0  0  0
 20 23  1  0  0  0  0
 21 45  1  0  0  0  0
 22 24  2  0  0  0  0
 23 25  2  0  0  0  0
 23 26  1  0  0  0  0
 24 25  1  0  0  0  0
 25 48  1  0  0  0  0
 26 27  1  0  0  0  0
 26 46  1  0  0  0  0
 26 47  1  0  0  0  0
 27 49  1  0  0  0  0
 27 50  1  0  0  0  0
 27 51  1  0  0  0  0
 28 53  1  0  0  0  0
 28 54  1  0  0  0  0
 28 55  1  0  0  0  0
M  END
> <PUBCHEM_COMPOUND_CID>
164616373

> <PUBCHEM_COMPOUND_CANONICALIZED>
1

> <PUBCHEM_CACTVS_COMPLEXITY>
500

> <PUBCHEM_CACTVS_HBOND_ACCEPTOR>
4

> <PUBCHEM_CACTVS_HBOND_DONOR>
2

> <PUBCHEM_CACTVS_ROTATABLE_BOND>
7

> <PUBCHEM_CACTVS_SUBSKEYS>
AAADceB7MAAEAAAAAAAAAAAAAAAAAWAAAAAwYAAAAAAAAAABQAAAHgIQCAAADC7BmCYyBoPABgCIAiFSEACCCAAkJUAIiIEMD8gMZzeHtxuUcWhn9hWIuQeY6OyOICACKAAICABAQARQABAQAAAAAAAAAA==

> <PUBCHEM_IUPAC_OPENEYE_NAME>
N-[[(2S)-1-benzylpyrrolidin-2-yl]methyl]-5-chloro-3-ethyl-2-hydroxy-6-methoxy-benzamide

> <PUBCHEM_IUPAC_CAS_NAME>
5-chloro-3-ethyl-2-hydroxy-6-methoxy-N-[[(2S)-1-(phenylmethyl)-2-pyrrolidinyl]methyl]benzamide

> <PUBCHEM_IUPAC_NAME_MARKUP>
<I>N</I>-[[(2<I>S</I>)-1-benzylpyrrolidin-2-yl]methyl]-5-chloro-3-ethyl-2-hydroxy-6-methoxybenzamide

> <PUBCHEM_IUPAC_NAME>
N-[[(2S)-1-benzylpyrrolidin-2-yl]methyl]-5-chloro-3-ethyl-2-hydroxy-6-methoxybenzamide

> <PUBCHEM_IUPAC_SYSTEMATIC_NAME>
3-chloranyl-5-ethyl-2-methoxy-6-oxidanyl-N-[[(2S)-1-(phenylmethyl)pyrrolidin-2-yl]methyl]benzamide

> <PUBCHEM_IUPAC_TRADITIONAL_NAME>
N-[[(2S)-1-benzylpyrrolidin-2-yl]methyl]-5-chloro-3-ethyl-2-hydroxy-6-methoxy-benzamide

> <PUBCHEM_IUPAC_INCHI>
InChI=1S/C22H27ClN2O3/c1-3-16-12-18(23)21(28-2)19(20(16)26)22(27)24-13-17-10-7-11-25(17)14-15-8-5-4-6-9-15/h4-6,8-9,12,17,26H,3,7,10-11,13-14H2,1-2H3,(H,24,27)/t17-/m0/s1

> <PUBCHEM_IUPAC_INCHIKEY>
YUYHUMKSDMTUIW-KRWDZBQOSA-N

> <PUBCHEM_XLOGP3_AA>
4.9

> <PUBCHEM_EXACT_MASS>
402.1710204

> <PUBCHEM_MOLECULAR_FORMULA>
C22H27ClN2O3

> <PUBCHEM_MOLECULAR_WEIGHT>
402.9

> <PUBCHEM_OPENEYE_CAN_SMILES>
CCC1=CC(=C(C(=C1O)C(=O)NCC2CCCN2CC3=CC=CC=C3)OC)Cl

> <PUBCHEM_OPENEYE_ISO_SMILES>
CCC1=CC(=C(C(=C1O)C(=O)NC[C@@H]2CCCN2CC3=CC=CC=C3)OC)Cl

> <PUBCHEM_CACTVS_TPSA>
61.8

> <PUBCHEM_MONOISOTOPIC_WEIGHT>
402.1710204

> <PUBCHEM_TOTAL_CHARGE>
0

> <PUBCHEM_HEAVY_ATOM_COUNT>
28

> <PUBCHEM_ATOM_DEF_STEREO_COUNT>
1

> <PUBCHEM_ATOM_UDEF_STEREO_COUNT>
0

> <PUBCHEM_BOND_DEF_STEREO_COUNT>
0

> <PUBCHEM_BOND_UDEF_STEREO_COUNT>
0

> <PUBCHEM_ISOTOPIC_ATOM_COUNT>
0

> <PUBCHEM_COMPONENT_COUNT>
1

> <PUBCHEM_CACTVS_TAUTO_COUNT>
-1

> <PUBCHEM_COORDINATE_TYPE>
1
5
255

> <PUBCHEM_BONDANNOTATIONS>
13  15  8
13  16  8
15  18  8
16  19  8
17  20  8
17  22  8
18  21  8
19  21  8
20  23  8
22  24  8
23  25  8
24  25  8
7  11  5

$$$$
