72164302
  -OEChem-09292322342D

 43 46  0     0  0  0  0  0  0999 V2000
    9.2601   -0.2861    0.0000 Cl  0  0  0  0  0  0  0  0  0  0  0  0
   11.2171    0.1263    0.0000 Cl  0  0  0  0  0  0  0  0  0  0  0  0
    5.9674    0.7901    0.0000 N   0  0  0  0  0  0  0  0  0  0  0  0
    7.9244    1.2025    0.0000 N   0  0  0  0  0  0  0  0  0  0  0  0
    4.6783   -1.9761    0.0000 N   0  0  0  0  0  0  0  0  0  0  0  0
    6.2781    1.7406    0.0000 C   0  0  0  0  0  0  0  0  0  0  0  0
    6.6353    0.0458    0.0000 C   0  0  0  0  0  0  0  0  0  0  0  0
    7.2566    1.9468    0.0000 C   0  0  0  0  0  0  0  0  0  0  0  0
    7.6138    0.2520    0.0000 C   0  0  0  0  0  0  0  0  0  0  0  0
    4.9889    0.5838    0.0000 C   0  0  0  0  0  0  0  0  0  0  0  0
    4.6783   -0.3667    0.0000 C   0  0  0  0  0  0  0  0  0  0  0  0
    8.9030    1.4087    0.0000 C   0  0  0  0  0  0  0  0  0  0  0  0
    3.7320   -0.6714    0.0000 C   0  0  0  0  0  0  0  0  0  0  0  0
    5.2619   -1.1714    0.0000 C   0  0  0  0  0  0  0  0  0  0  0  0
    3.7320   -1.6714    0.0000 C   0  0  0  0  0  0  0  0  0  0  0  0
    9.5708    0.6644    0.0000 C   0  0  0  0  0  0  0  0  0  0  0  0
    9.2136    2.3592    0.0000 C   0  0  0  0  0  0  0  0  0  0  0  0
    2.8660   -0.1714    0.0000 C   0  0  0  0  0  0  0  0  0  0  0  0
    2.8660   -2.1714    0.0000 C   0  0  0  0  0  0  0  0  0  0  0  0
   10.5493    0.8706    0.0000 C   0  0  0  0  0  0  0  0  0  0  0  0
   10.1921    2.5655    0.0000 C   0  0  0  0  0  0  0  0  0  0  0  0
    2.0000   -0.6714    0.0000 C   0  0  0  0  0  0  0  0  0  0  0  0
    2.0000   -1.6714    0.0000 C   0  0  0  0  0  0  0  0  0  0  0  0
   10.8600    1.8212    0.0000 C   0  0  0  0  0  0  0  0  0  0  0  0
    6.2575    2.3602    0.0000 H   0  0  0  0  0  0  0  0  0  0  0  0
    5.6643    1.8279    0.0000 H   0  0  0  0  0  0  0  0  0  0  0  0
    6.1089   -0.2819    0.0000 H   0  0  0  0  0  0  0  0  0  0  0  0
    6.8665   -0.5295    0.0000 H   0  0  0  0  0  0  0  0  0  0  0  0
    7.7830    2.2744    0.0000 H   0  0  0  0  0  0  0  0  0  0  0  0
    7.0254    2.5221    0.0000 H   0  0  0  0  0  0  0  0  0  0  0  0
    7.6344   -0.3677    0.0000 H   0  0  0  0  0  0  0  0  0  0  0  0
    8.2276    0.1646    0.0000 H   0  0  0  0  0  0  0  0  0  0  0  0
    4.9684    1.2035    0.0000 H   0  0  0  0  0  0  0  0  0  0  0  0
    4.3751    0.6712    0.0000 H   0  0  0  0  0  0  0  0  0  0  0  0
    5.8819   -1.1714    0.0000 H   0  0  0  0  0  0  0  0  0  0  0  0
    4.8709   -2.5655    0.0000 H   0  0  0  0  0  0  0  0  0  0  0  0
    8.7996    2.8207    0.0000 H   0  0  0  0  0  0  0  0  0  0  0  0
    2.8660    0.4486    0.0000 H   0  0  0  0  0  0  0  0  0  0  0  0
    2.8660   -2.7914    0.0000 H   0  0  0  0  0  0  0  0  0  0  0  0
   10.3847    3.1548    0.0000 H   0  0  0  0  0  0  0  0  0  0  0  0
    1.4631   -0.3614    0.0000 H   0  0  0  0  0  0  0  0  0  0  0  0
    1.4631   -1.9814    0.0000 H   0  0  0  0  0  0  0  0  0  0  0  0
   11.4666    1.9490    0.0000 H   0  0  0  0  0  0  0  0  0  0  0  0
  1 16  1  0  0  0  0
  2 20  1  0  0  0  0
  3  6  1  0  0  0  0
  3  7  1  0  0  0  0
  3 10  1  0  0  0  0
  4  8  1  0  0  0  0
  4  9  1  0  0  0  0
  4 12  1  0  0  0  0
  5 14  1  0  0  0  0
  5 15  1  0  0  0  0
  5 36  1  0  0  0  0
  6  8  1  0  0  0  0
  6 25  1  0  0  0  0
  6 26  1  0  0  0  0
  7  9  1  0  0  0  0
  7 27  1  0  0  0  0
  7 28  1  0  0  0  0
  8 29  1  0  0  0  0
  8 30  1  0  0  0  0
  9 31  1  0  0  0  0
  9 32  1  0  0  0  0
 10 11  1  0  0  0  0
 10 33  1  0  0  0  0
 10 34  1  0  0  0  0
 11 13  1  0  0  0  0
 11 14  2  0  0  0  0
 12 16  2  0  0  0  0
 12 17  1  0  0  0  0
 13 15  1  0  0  0  0
 13 18  2  0  0  0  0
 14 35  1  0  0  0  0
 15 19  2  0  0  0  0
 16 20  1  0  0  0  0
 17 21  2  0  0  0  0
 17 37  1  0  0  0  0
 18 22  1  0  0  0  0
 18 38  1  0  0  0  0
 19 23  1  0  0  0  0
 19 39  1  0  0  0  0
 20 24  2  0  0  0  0
 21 24  1  0  0  0  0
 21 40  1  0  0  0  0
 22 23  2  0  0  0  0
 22 41  1  0  0  0  0
 23 42  1  0  0  0  0
 24 43  1  0  0  0  0
M  END
> <PUBCHEM_COMPOUND_CID>
72164302

> <PUBCHEM_COMPOUND_CANONICALIZED>
1

> <PUBCHEM_CACTVS_COMPLEXITY>
413

> <PUBCHEM_CACTVS_HBOND_ACCEPTOR>
2

> <PUBCHEM_CACTVS_HBOND_DONOR>
1

> <PUBCHEM_CACTVS_ROTATABLE_BOND>
3

> <PUBCHEM_CACTVS_SUBSKEYS>
AAADceB7AAAGAAAAAAAAAAAAAAAAAWAAAAA8YIAAAAAAAFgB9AAAHAIQAAAADArBHiQ8wPPJkACgAzRnRACCgCAxByAI2+A4ZpgIYOLB05HUIAhgkADIyAcQgMAOgAAAAAICABQAAAAABAQAKAAAAAAAAA==

> <PUBCHEM_IUPAC_OPENEYE_NAME>
3-[[4-(2,3-dichlorophenyl)piperazin-1-yl]methyl]-1H-indole

> <PUBCHEM_IUPAC_CAS_NAME>
3-[[4-(2,3-dichlorophenyl)-1-piperazinyl]methyl]-1H-indole

> <PUBCHEM_IUPAC_NAME_MARKUP>
3-[[4-(2,3-dichlorophenyl)piperazin-1-yl]methyl]-1<I>H</I>-indole

> <PUBCHEM_IUPAC_NAME>
3-[[4-(2,3-dichlorophenyl)piperazin-1-yl]methyl]-1H-indole

> <PUBCHEM_IUPAC_SYSTEMATIC_NAME>
3-[[4-[2,3-bis(chloranyl)phenyl]piperazin-1-yl]methyl]-1H-indole

> <PUBCHEM_IUPAC_TRADITIONAL_NAME>
3-[[4-(2,3-dichlorophenyl)piperazino]methyl]-1H-indole

> <PUBCHEM_IUPAC_INCHI>
InChI=1S/C19H19Cl2N3/c20-16-5-3-7-18(19(16)21)24-10-8-23(9-11-24)13-14-12-22-17-6-2-1-4-15(14)17/h1-7,12,22H,8-11,13H2

> <PUBCHEM_IUPAC_INCHIKEY>
SVSNQBMLUDOWHS-UHFFFAOYSA-N

> <PUBCHEM_XLOGP3_AA>
4.7

> <PUBCHEM_EXACT_MASS>
359.0956030

> <PUBCHEM_MOLECULAR_FORMULA>
C19H19Cl2N3

> <PUBCHEM_MOLECULAR_WEIGHT>
360.3

> <PUBCHEM_OPENEYE_CAN_SMILES>
C1CN(CCN1CC2=CNC3=CC=CC=C32)C4=C(C(=CC=C4)Cl)Cl

> <PUBCHEM_OPENEYE_ISO_SMILES>
C1CN(CCN1CC2=CNC3=CC=CC=C32)C4=C(C(=CC=C4)Cl)Cl

> <PUBCHEM_CACTVS_TPSA>
22.3

> <PUBCHEM_MONOISOTOPIC_WEIGHT>
359.0956030

> <PUBCHEM_TOTAL_CHARGE>
0

> <PUBCHEM_HEAVY_ATOM_COUNT>
24

> <PUBCHEM_ATOM_DEF_STEREO_COUNT>
0

> <PUBCHEM_ATOM_UDEF_STEREO_COUNT>
0

> <PUBCHEM_BOND_DEF_STEREO_COUNT>
0

> <PUBCHEM_BOND_UDEF_STEREO_COUNT>
0

> <PUBCHEM_ISOTOPIC_ATOM_COUNT>
0

> <PUBCHEM_COMPONENT_COUNT>
1

> <PUBCHEM_CACTVS_TAUTO_COUNT>
-1

> <PUBCHEM_COORDINATE_TYPE>
1
5
255

> <PUBCHEM_BONDANNOTATIONS>
11  13  8
11  14  8
12  16  8
12  17  8
13  15  8
13  18  8
15  19  8
16  20  8
17  21  8
18  22  8
19  23  8
20  24  8
21  24  8
22  23  8
5  14  8
5  15  8

$$$$
