44336018
  -OEChem-09292322512D

 53 56  0     1  0  0  0  0  0999 V2000
    4.5387   -4.8704    0.0000 Cl  0  0  0  0  0  0  0  0  0  0  0  0
    4.3211    1.3708    0.0000 O   0  0  0  0  0  0  0  0  0  0  0  0
    6.8994   -0.9427    0.0000 N   0  0  3  0  0  0  0  0  0  0  0  0
    6.2781    0.9584    0.0000 N   0  0  3  0  0  0  0  0  0  0  0  0
    4.6783    3.0657    0.0000 N   0  0  0  0  0  0  0  0  0  0  0  0
    7.5673   -0.1984    0.0000 C   0  0  1  0  0  0  0  0  0  0  0  0
    7.2566    0.7522    0.0000 C   0  0  0  0  0  0  0  0  0  0  0  0
    5.9209   -0.7364    0.0000 C   0  0  0  0  0  0  0  0  0  0  0  0
    5.6103    0.2141    0.0000 C   0  0  0  0  0  0  0  0  0  0  0  0
    5.9674    1.9089    0.0000 C   0  0  0  0  0  0  0  0  0  0  0  0
    7.2101   -1.8932    0.0000 C   0  0  0  0  0  0  0  0  0  0  0  0
    8.5458   -0.4046    0.0000 C   0  0  0  0  0  0  0  0  0  0  0  0
    4.9889    2.1151    0.0000 C   0  0  0  0  0  0  0  0  0  0  0  0
    5.2619    3.8704    0.0000 C   0  0  0  0  0  0  0  0  0  0  0  0
    4.6783    4.6751    0.0000 C   0  0  0  0  0  0  0  0  0  0  0  0
    3.7320    3.3704    0.0000 C   0  0  0  0  0  0  0  0  0  0  0  0
    6.5422   -2.6375    0.0000 C   0  0  0  0  0  0  0  0  0  0  0  0
    3.7320    4.3704    0.0000 C   0  0  0  0  0  0  0  0  0  0  0  0
    2.8660    2.8704    0.0000 C   0  0  0  0  0  0  0  0  0  0  0  0
    2.8660    4.8704    0.0000 C   0  0  0  0  0  0  0  0  0  0  0  0
    5.5637   -2.4313    0.0000 C   0  0  0  0  0  0  0  0  0  0  0  0
    6.8529   -3.5880    0.0000 C   0  0  0  0  0  0  0  0  0  0  0  0
    2.0000    3.3704    0.0000 C   0  0  0  0  0  0  0  0  0  0  0  0
    2.0000    4.3704    0.0000 C   0  0  0  0  0  0  0  0  0  0  0  0
    4.8959   -3.1756    0.0000 C   0  0  0  0  0  0  0  0  0  0  0  0
    6.1851   -4.3323    0.0000 C   0  0  0  0  0  0  0  0  0  0  0  0
    5.2066   -4.1261    0.0000 C   0  0  0  0  0  0  0  0  0  0  0  0
    7.7599   -0.7877    0.0000 H   0  0  0  0  0  0  0  0  0  0  0  0
    7.8704    0.8395    0.0000 H   0  0  0  0  0  0  0  0  0  0  0  0
    7.2772    1.3718    0.0000 H   0  0  0  0  0  0  0  0  0  0  0  0
    5.3071   -0.8238    0.0000 H   0  0  0  0  0  0  0  0  0  0  0  0
    5.9004   -1.3561    0.0000 H   0  0  0  0  0  0  0  0  0  0  0  0
    5.2277    0.7020    0.0000 H   0  0  0  0  0  0  0  0  0  0  0  0
    5.0633   -0.0779    0.0000 H   0  0  0  0  0  0  0  0  0  0  0  0
    6.5812    1.9963    0.0000 H   0  0  0  0  0  0  0  0  0  0  0  0
    5.9880    2.5286    0.0000 H   0  0  0  0  0  0  0  0  0  0  0  0
    7.5926   -2.3811    0.0000 H   0  0  0  0  0  0  0  0  0  0  0  0
    7.7570   -1.6012    0.0000 H   0  0  0  0  0  0  0  0  0  0  0  0
    8.4179   -1.0112    0.0000 H   0  0  0  0  0  0  0  0  0  0  0  0
    9.1524   -0.5324    0.0000 H   0  0  0  0  0  0  0  0  0  0  0  0
    8.6736    0.2021    0.0000 H   0  0  0  0  0  0  0  0  0  0  0  0
    5.7227    3.4556    0.0000 H   0  0  0  0  0  0  0  0  0  0  0  0
    5.7227    4.2851    0.0000 H   0  0  0  0  0  0  0  0  0  0  0  0
    5.2156    4.9843    0.0000 H   0  0  0  0  0  0  0  0  0  0  0  0
    4.4272    5.2420    0.0000 H   0  0  0  0  0  0  0  0  0  0  0  0
    2.8660    2.2504    0.0000 H   0  0  0  0  0  0  0  0  0  0  0  0
    2.8660    5.4904    0.0000 H   0  0  0  0  0  0  0  0  0  0  0  0
    5.3711   -1.8419    0.0000 H   0  0  0  0  0  0  0  0  0  0  0  0
    7.4596   -3.7158    0.0000 H   0  0  0  0  0  0  0  0  0  0  0  0
    1.4631    3.0604    0.0000 H   0  0  0  0  0  0  0  0  0  0  0  0
    1.4631    4.6804    0.0000 H   0  0  0  0  0  0  0  0  0  0  0  0
    4.2892   -3.0477    0.0000 H   0  0  0  0  0  0  0  0  0  0  0  0
    6.3777   -4.9216    0.0000 H   0  0  0  0  0  0  0  0  0  0  0  0
  1 27  1  0  0  0  0
  2 13  2  0  0  0  0
  3  6  1  0  0  0  0
  3  8  1  0  0  0  0
  3 11  1  0  0  0  0
  4  7  1  0  0  0  0
  4  9  1  0  0  0  0
  4 10  1  0  0  0  0
  5 13  1  0  0  0  0
  5 14  1  0  0  0  0
  5 16  1  0  0  0  0
  6  7  1  0  0  0  0
  6 12  1  1  0  0  0
  6 28  1  0  0  0  0
  7 29  1  0  0  0  0
  7 30  1  0  0  0  0
  8  9  1  0  0  0  0
  8 31  1  0  0  0  0
  8 32  1  0  0  0  0
  9 33  1  0  0  0  0
  9 34  1  0  0  0  0
 10 13  1  0  0  0  0
 10 35  1  0  0  0  0
 10 36  1  0  0  0  0
 11 17  1  0  0  0  0
 11 37  1  0  0  0  0
 11 38  1  0  0  0  0
 12 39  1  0  0  0  0
 12 40  1  0  0  0  0
 12 41  1  0  0  0  0
 14 15  1  0  0  0  0
 14 42  1  0  0  0  0
 14 43  1  0  0  0  0
 15 18  1  0  0  0  0
 15 44  1  0  0  0  0
 15 45  1  0  0  0  0
 16 18  1  0  0  0  0
 16 19  2  0  0  0  0
 17 21  2  0  0  0  0
 17 22  1  0  0  0  0
 18 20  2  0  0  0  0
 19 23  1  0  0  0  0
 19 46  1  0  0  0  0
 20 24  1  0  0  0  0
 20 47  1  0  0  0  0
 21 25  1  0  0  0  0
 21 48  1  0  0  0  0
 22 26  2  0  0  0  0
 22 49  1  0  0  0  0
 23 24  2  0  0  0  0
 23 50  1  0  0  0  0
 24 51  1  0  0  0  0
 25 27  2  0  0  0  0
 25 52  1  0  0  0  0
 26 27  1  0  0  0  0
 26 53  1  0  0  0  0
M  END
> <PUBCHEM_COMPOUND_CID>
44336018

> <PUBCHEM_COMPOUND_CANONICALIZED>
1

> <PUBCHEM_CACTVS_COMPLEXITY>
508

> <PUBCHEM_CACTVS_HBOND_ACCEPTOR>
3

> <PUBCHEM_CACTVS_HBOND_DONOR>
0

> <PUBCHEM_CACTVS_ROTATABLE_BOND>
4

> <PUBCHEM_CACTVS_SUBSKEYS>
AAADceB7IAAEAAAAAAAAAAAAAAAAAWAAAAA8YIAAAAAAAFgBQAAAHgIAAAAADCrBmCQywIMAAACIAiVSUACCAAAhBwAIiACIZogIYCLBk7GUIAhghgDIyAcQgIAOBAAAAAACAAAIAAAAAAQAAAAAAAAAAA==

> <PUBCHEM_IUPAC_OPENEYE_NAME>
2-[(3R)-4-[(4-chlorophenyl)methyl]-3-methyl-piperazin-1-yl]-1-indolin-1-yl-ethanone

> <PUBCHEM_IUPAC_CAS_NAME>
2-[(3R)-4-[(4-chlorophenyl)methyl]-3-methyl-1-piperazinyl]-1-(2,3-dihydroindol-1-yl)ethanone

> <PUBCHEM_IUPAC_NAME_MARKUP>
2-[(3<I>R</I>)-4-[(4-chlorophenyl)methyl]-3-methylpiperazin-1-yl]-1-(2,3-dihydroindol-1-yl)ethanone

> <PUBCHEM_IUPAC_NAME>
2-[(3R)-4-[(4-chlorophenyl)methyl]-3-methylpiperazin-1-yl]-1-(2,3-dihydroindol-1-yl)ethanone

> <PUBCHEM_IUPAC_SYSTEMATIC_NAME>
2-[(3R)-4-[(4-chlorophenyl)methyl]-3-methyl-piperazin-1-yl]-1-(2,3-dihydroindol-1-yl)ethanone

> <PUBCHEM_IUPAC_TRADITIONAL_NAME>
2-[(3R)-4-(4-chlorobenzyl)-3-methyl-piperazino]-1-indolin-1-yl-ethanone

> <PUBCHEM_IUPAC_INCHI>
InChI=1S/C22H26ClN3O/c1-17-14-24(12-13-25(17)15-18-6-8-20(23)9-7-18)16-22(27)26-11-10-19-4-2-3-5-21(19)26/h2-9,17H,10-16H2,1H3/t17-/m1/s1

> <PUBCHEM_IUPAC_INCHIKEY>
QQBINOQKHPXQEW-QGZVFWFLSA-N

> <PUBCHEM_XLOGP3_AA>
3.8

> <PUBCHEM_EXACT_MASS>
383.1764402

> <PUBCHEM_MOLECULAR_FORMULA>
C22H26ClN3O

> <PUBCHEM_MOLECULAR_WEIGHT>
383.9

> <PUBCHEM_OPENEYE_CAN_SMILES>
CC1CN(CCN1CC2=CC=C(C=C2)Cl)CC(=O)N3CCC4=CC=CC=C43

> <PUBCHEM_OPENEYE_ISO_SMILES>
C[C@@H]1CN(CCN1CC2=CC=C(C=C2)Cl)CC(=O)N3CCC4=CC=CC=C43

> <PUBCHEM_CACTVS_TPSA>
26.8

> <PUBCHEM_MONOISOTOPIC_WEIGHT>
383.1764402

> <PUBCHEM_TOTAL_CHARGE>
0

> <PUBCHEM_HEAVY_ATOM_COUNT>
27

> <PUBCHEM_ATOM_DEF_STEREO_COUNT>
1

> <PUBCHEM_ATOM_UDEF_STEREO_COUNT>
0

> <PUBCHEM_BOND_DEF_STEREO_COUNT>
0

> <PUBCHEM_BOND_UDEF_STEREO_COUNT>
0

> <PUBCHEM_ISOTOPIC_ATOM_COUNT>
0

> <PUBCHEM_COMPONENT_COUNT>
1

> <PUBCHEM_CACTVS_TAUTO_COUNT>
-1

> <PUBCHEM_COORDINATE_TYPE>
1
5
255

> <PUBCHEM_BONDANNOTATIONS>
16  18  8
16  19  8
17  21  8
17  22  8
18  20  8
19  23  8
20  24  8
21  25  8
22  26  8
23  24  8
25  27  8
26  27  8
6  12  5

$$$$
