45271548
  -OEChem-09292322282D

 47 50  0     0  0  0  0  0  0999 V2000
    9.7152   -2.1635    0.0000 F   0  0  0  0  0  0  0  0  0  0  0  0
   10.6052   -3.2626    0.0000 F   0  0  0  0  0  0  0  0  0  0  0  0
   11.7042   -2.3726    0.0000 F   0  0  0  0  0  0  0  0  0  0  0  0
    8.0406   -0.3635    0.0000 O   0  0  0  0  0  0  0  0  0  0  0  0
    5.2619    2.2626    0.0000 N   0  0  0  0  0  0  0  0  0  0  0  0
    7.7619    1.3966    0.0000 N   0  0  0  0  0  0  0  0  0  0  0  0
    9.3007    0.8966    0.0000 N   0  0  0  0  0  0  0  0  0  0  0  0
    6.2619    2.2626    0.0000 C   0  0  0  0  0  0  0  0  0  0  0  0
    6.7619    1.3966    0.0000 C   0  0  0  0  0  0  0  0  0  0  0  0
    4.6783    1.4578    0.0000 C   0  0  0  0  0  0  0  0  0  0  0  0
    4.6783    3.0673    0.0000 C   0  0  0  0  0  0  0  0  0  0  0  0
    8.3497    2.2056    0.0000 C   0  0  0  0  0  0  0  0  0  0  0  0
    9.3007    1.8966    0.0000 C   0  0  0  0  0  0  0  0  0  0  0  0
    3.7320    1.7626    0.0000 C   0  0  0  0  0  0  0  0  0  0  0  0
    3.7320    2.7626    0.0000 C   0  0  0  0  0  0  0  0  0  0  0  0
    8.3497    0.5875    0.0000 C   0  0  0  0  0  0  0  0  0  0  0  0
   10.1097    0.3088    0.0000 C   0  0  0  0  0  0  0  0  0  0  0  0
    2.8660    1.2626    0.0000 C   0  0  0  0  0  0  0  0  0  0  0  0
    2.8660    3.2626    0.0000 C   0  0  0  0  0  0  0  0  0  0  0  0
    2.0000    1.7626    0.0000 C   0  0  0  0  0  0  0  0  0  0  0  0
    2.0000    2.7626    0.0000 C   0  0  0  0  0  0  0  0  0  0  0  0
   10.0052   -0.6858    0.0000 C   0  0  0  0  0  0  0  0  0  0  0  0
   11.0233    0.7155    0.0000 C   0  0  0  0  0  0  0  0  0  0  0  0
   10.8142   -1.2735    0.0000 C   0  0  0  0  0  0  0  0  0  0  0  0
   11.8323    0.1277    0.0000 C   0  0  0  0  0  0  0  0  0  0  0  0
   11.7278   -0.8668    0.0000 C   0  0  0  0  0  0  0  0  0  0  0  0
   10.7097   -2.2681    0.0000 C   0  0  0  0  0  0  0  0  0  0  0  0
    6.8445    2.4746    0.0000 H   0  0  0  0  0  0  0  0  0  0  0  0
    6.1542    2.8732    0.0000 H   0  0  0  0  0  0  0  0  0  0  0  0
    6.1793    1.1845    0.0000 H   0  0  0  0  0  0  0  0  0  0  0  0
    6.8695    0.7860    0.0000 H   0  0  0  0  0  0  0  0  0  0  0  0
    4.4272    0.8909    0.0000 H   0  0  0  0  0  0  0  0  0  0  0  0
    5.2156    1.1486    0.0000 H   0  0  0  0  0  0  0  0  0  0  0  0
    5.2156    3.3765    0.0000 H   0  0  0  0  0  0  0  0  0  0  0  0
    4.4272    3.6342    0.0000 H   0  0  0  0  0  0  0  0  0  0  0  0
    8.6018    2.7720    0.0000 H   0  0  0  0  0  0  0  0  0  0  0  0
    7.8127    2.5156    0.0000 H   0  0  0  0  0  0  0  0  0  0  0  0
    9.9173    1.8318    0.0000 H   0  0  0  0  0  0  0  0  0  0  0  0
    9.4296    2.5030    0.0000 H   0  0  0  0  0  0  0  0  0  0  0  0
    2.8660    0.6426    0.0000 H   0  0  0  0  0  0  0  0  0  0  0  0
    2.8660    3.8826    0.0000 H   0  0  0  0  0  0  0  0  0  0  0  0
    1.4631    1.4526    0.0000 H   0  0  0  0  0  0  0  0  0  0  0  0
    1.4631    3.0726    0.0000 H   0  0  0  0  0  0  0  0  0  0  0  0
    9.4388   -0.9379    0.0000 H   0  0  0  0  0  0  0  0  0  0  0  0
   11.0881    1.3321    0.0000 H   0  0  0  0  0  0  0  0  0  0  0  0
   12.3987    0.3799    0.0000 H   0  0  0  0  0  0  0  0  0  0  0  0
   12.2294   -1.2312    0.0000 H   0  0  0  0  0  0  0  0  0  0  0  0
  1 27  1  0  0  0  0
  2 27  1  0  0  0  0
  3 27  1  0  0  0  0
  4 16  2  0  0  0  0
  5  8  1  0  0  0  0
  5 10  1  0  0  0  0
  5 11  1  0  0  0  0
  6  9  1  0  0  0  0
  6 12  1  0  0  0  0
  6 16  1  0  0  0  0
  7 13  1  0  0  0  0
  7 16  1  0  0  0  0
  7 17  1  0  0  0  0
  8  9  1  0  0  0  0
  8 28  1  0  0  0  0
  8 29  1  0  0  0  0
  9 30  1  0  0  0  0
  9 31  1  0  0  0  0
 10 14  1  0  0  0  0
 10 32  1  0  0  0  0
 10 33  1  0  0  0  0
 11 15  1  0  0  0  0
 11 34  1  0  0  0  0
 11 35  1  0  0  0  0
 12 13  1  0  0  0  0
 12 36  1  0  0  0  0
 12 37  1  0  0  0  0
 13 38  1  0  0  0  0
 13 39  1  0  0  0  0
 14 15  1  0  0  0  0
 14 18  2  0  0  0  0
 15 19  2  0  0  0  0
 17 22  1  0  0  0  0
 17 23  2  0  0  0  0
 18 20  1  0  0  0  0
 18 40  1  0  0  0  0
 19 21  1  0  0  0  0
 19 41  1  0  0  0  0
 20 21  2  0  0  0  0
 20 42  1  0  0  0  0
 21 43  1  0  0  0  0
 22 24  2  0  0  0  0
 22 44  1  0  0  0  0
 23 25  1  0  0  0  0
 23 45  1  0  0  0  0
 24 26  1  0  0  0  0
 24 27  1  0  0  0  0
 25 26  2  0  0  0  0
 25 46  1  0  0  0  0
 26 47  1  0  0  0  0
M  END
> <PUBCHEM_COMPOUND_CID>
45271548

> <PUBCHEM_COMPOUND_CANONICALIZED>
1

> <PUBCHEM_CACTVS_COMPLEXITY>
527

> <PUBCHEM_CACTVS_HBOND_ACCEPTOR>
5

> <PUBCHEM_CACTVS_HBOND_DONOR>
0

> <PUBCHEM_CACTVS_ROTATABLE_BOND>
4

> <PUBCHEM_CACTVS_SUBSKEYS>
AAADceB7IYAAAAAAAAAAAAAAAAAAAWLAAAAwYAAAAAAAAFgBQAAAHwAAAAAADAjBGBQxwIMAAACIAiRCUACCAAAhAgAIiAAIZIiIYCLAkZGUIAhohgLIyCcQgIAOgAAAQAAQAAAAAACAACAAAAAAAAAAAA==

> <PUBCHEM_IUPAC_OPENEYE_NAME>
1-(2-isoindolin-2-ylethyl)-3-[3-(trifluoromethyl)phenyl]imidazolidin-2-one

> <PUBCHEM_IUPAC_CAS_NAME>
1-[2-(1,3-dihydroisoindol-2-yl)ethyl]-3-[3-(trifluoromethyl)phenyl]-2-imidazolidinone

> <PUBCHEM_IUPAC_NAME_MARKUP>
1-[2-(1,3-dihydroisoindol-2-yl)ethyl]-3-[3-(trifluoromethyl)phenyl]imidazolidin-2-one

> <PUBCHEM_IUPAC_NAME>
1-[2-(1,3-dihydroisoindol-2-yl)ethyl]-3-[3-(trifluoromethyl)phenyl]imidazolidin-2-one

> <PUBCHEM_IUPAC_SYSTEMATIC_NAME>
1-[2-(1,3-dihydroisoindol-2-yl)ethyl]-3-[3-(trifluoromethyl)phenyl]imidazolidin-2-one

> <PUBCHEM_IUPAC_TRADITIONAL_NAME>
1-(2-isoindolin-2-ylethyl)-3-[3-(trifluoromethyl)phenyl]-2-imidazolidinone

> <PUBCHEM_IUPAC_INCHI>
InChI=1S/C20H20F3N3O/c21-20(22,23)17-6-3-7-18(12-17)26-11-10-25(19(26)27)9-8-24-13-15-4-1-2-5-16(15)14-24/h1-7,12H,8-11,13-14H2

> <PUBCHEM_IUPAC_INCHIKEY>
JJRCKNMPBGKXPO-UHFFFAOYSA-N

> <PUBCHEM_XLOGP3_AA>
3.1

> <PUBCHEM_EXACT_MASS>
375.15584676

> <PUBCHEM_MOLECULAR_FORMULA>
C20H20F3N3O

> <PUBCHEM_MOLECULAR_WEIGHT>
375.4

> <PUBCHEM_OPENEYE_CAN_SMILES>
C1CN(C(=O)N1CCN2CC3=CC=CC=C3C2)C4=CC=CC(=C4)C(F)(F)F

> <PUBCHEM_OPENEYE_ISO_SMILES>
C1CN(C(=O)N1CCN2CC3=CC=CC=C3C2)C4=CC=CC(=C4)C(F)(F)F

> <PUBCHEM_CACTVS_TPSA>
26.8

> <PUBCHEM_MONOISOTOPIC_WEIGHT>
375.15584676

> <PUBCHEM_TOTAL_CHARGE>
0

> <PUBCHEM_HEAVY_ATOM_COUNT>
27

> <PUBCHEM_ATOM_DEF_STEREO_COUNT>
0

> <PUBCHEM_ATOM_UDEF_STEREO_COUNT>
0

> <PUBCHEM_BOND_DEF_STEREO_COUNT>
0

> <PUBCHEM_BOND_UDEF_STEREO_COUNT>
0

> <PUBCHEM_ISOTOPIC_ATOM_COUNT>
0

> <PUBCHEM_COMPONENT_COUNT>
1

> <PUBCHEM_CACTVS_TAUTO_COUNT>
-1

> <PUBCHEM_COORDINATE_TYPE>
1
5
255

> <PUBCHEM_BONDANNOTATIONS>
14  15  8
14  18  8
15  19  8
17  22  8
17  23  8
18  20  8
19  21  8
20  21  8
22  24  8
23  25  8
24  26  8
25  26  8

$$$$
