127027077
  -OEChem-09292322362D

 59 62  0     0  0  0  0  0  0999 V2000
    2.5369   -0.5173    0.0000 O   0  0  0  0  0  0  0  0  0  0  0  0
   12.9292   -0.5173    0.0000 O   0  0  0  0  0  0  0  0  0  0  0  0
    7.7331    0.4827    0.0000 N   0  0  0  0  0  0  0  0  0  0  0  0
    6.0010   -0.5173    0.0000 N   0  0  0  0  0  0  0  0  0  0  0  0
   12.0632    0.9827    0.0000 N   0  0  0  0  0  0  0  0  0  0  0  0
    6.8671    0.9827    0.0000 C   0  0  0  0  0  0  0  0  0  0  0  0
    7.7331   -0.5173    0.0000 C   0  0  0  0  0  0  0  0  0  0  0  0
    6.0010    0.4827    0.0000 C   0  0  0  0  0  0  0  0  0  0  0  0
    6.8671   -1.0173    0.0000 C   0  0  0  0  0  0  0  0  0  0  0  0
    8.5991    0.9827    0.0000 C   0  0  0  0  0  0  0  0  0  0  0  0
    9.4651    0.4827    0.0000 C   0  0  0  0  0  0  0  0  0  0  0  0
    5.1350   -1.0173    0.0000 C   0  0  0  0  0  0  0  0  0  0  0  0
   10.3312    0.9827    0.0000 C   0  0  0  0  0  0  0  0  0  0  0  0
   11.1972    0.4827    0.0000 C   0  0  0  0  0  0  0  0  0  0  0  0
    4.2690   -0.5173    0.0000 C   0  0  0  0  0  0  0  0  0  0  0  0
    5.1350   -2.0173    0.0000 C   0  0  0  0  0  0  0  0  0  0  0  0
    3.4030   -1.0173    0.0000 C   0  0  0  0  0  0  0  0  0  0  0  0
    4.2690   -2.5173    0.0000 C   0  0  0  0  0  0  0  0  0  0  0  0
    3.4030   -2.0173    0.0000 C   0  0  0  0  0  0  0  0  0  0  0  0
   12.9292    0.4827    0.0000 C   0  0  0  0  0  0  0  0  0  0  0  0
   13.7953    0.9827    0.0000 C   0  0  0  0  0  0  0  0  0  0  0  0
   14.6613    0.4827    0.0000 C   0  0  0  0  0  0  0  0  0  0  0  0
   15.5273    0.9827    0.0000 C   0  0  0  0  0  0  0  0  0  0  0  0
   13.7953    1.9827    0.0000 C   0  0  0  0  0  0  0  0  0  0  0  0
   15.5273    1.9827    0.0000 C   0  0  0  0  0  0  0  0  0  0  0  0
   14.6613    2.4827    0.0000 C   0  0  0  0  0  0  0  0  0  0  0  0
   16.4213    0.4480    0.0000 C   0  0  0  0  0  0  0  0  0  0  0  0
   16.4213    2.5173    0.0000 C   0  0  0  0  0  0  0  0  0  0  0  0
   17.3273    0.9619    0.0000 C   0  0  0  0  0  0  0  0  0  0  0  0
   17.3273    2.0035    0.0000 C   0  0  0  0  0  0  0  0  0  0  0  0
    7.2656    1.4576    0.0000 H   0  0  0  0  0  0  0  0  0  0  0  0
    6.4685    1.4576    0.0000 H   0  0  0  0  0  0  0  0  0  0  0  0
    7.9451   -1.0999    0.0000 H   0  0  0  0  0  0  0  0  0  0  0  0
    8.3437   -0.4097    0.0000 H   0  0  0  0  0  0  0  0  0  0  0  0
    5.7890    1.0653    0.0000 H   0  0  0  0  0  0  0  0  0  0  0  0
    5.3905    0.3750    0.0000 H   0  0  0  0  0  0  0  0  0  0  0  0
    6.4685   -1.4923    0.0000 H   0  0  0  0  0  0  0  0  0  0  0  0
    7.2656   -1.4923    0.0000 H   0  0  0  0  0  0  0  0  0  0  0  0
    8.9976    1.4576    0.0000 H   0  0  0  0  0  0  0  0  0  0  0  0
    8.2006    1.4576    0.0000 H   0  0  0  0  0  0  0  0  0  0  0  0
    9.0666    0.0077    0.0000 H   0  0  0  0  0  0  0  0  0  0  0  0
    9.8637    0.0077    0.0000 H   0  0  0  0  0  0  0  0  0  0  0  0
   10.7297    1.4576    0.0000 H   0  0  0  0  0  0  0  0  0  0  0  0
    9.9326    1.4576    0.0000 H   0  0  0  0  0  0  0  0  0  0  0  0
   10.7987    0.0077    0.0000 H   0  0  0  0  0  0  0  0  0  0  0  0
   11.5957    0.0077    0.0000 H   0  0  0  0  0  0  0  0  0  0  0  0
    4.2690    0.1027    0.0000 H   0  0  0  0  0  0  0  0  0  0  0  0
    5.6720   -2.3273    0.0000 H   0  0  0  0  0  0  0  0  0  0  0  0
   12.0632    1.6027    0.0000 H   0  0  0  0  0  0  0  0  0  0  0  0
    4.2690   -3.1373    0.0000 H   0  0  0  0  0  0  0  0  0  0  0  0
    2.8660   -2.3273    0.0000 H   0  0  0  0  0  0  0  0  0  0  0  0
   14.6613   -0.1373    0.0000 H   0  0  0  0  0  0  0  0  0  0  0  0
   13.2583    2.2927    0.0000 H   0  0  0  0  0  0  0  0  0  0  0  0
    2.0000   -0.8273    0.0000 H   0  0  0  0  0  0  0  0  0  0  0  0
   14.6613    3.1027    0.0000 H   0  0  0  0  0  0  0  0  0  0  0  0
   16.4141   -0.1720    0.0000 H   0  0  0  0  0  0  0  0  0  0  0  0
   16.4141    3.1373    0.0000 H   0  0  0  0  0  0  0  0  0  0  0  0
   17.8631    0.6498    0.0000 H   0  0  0  0  0  0  0  0  0  0  0  0
   17.8631    2.3156    0.0000 H   0  0  0  0  0  0  0  0  0  0  0  0
  1 17  1  0  0  0  0
  1 54  1  0  0  0  0
  2 20  2  0  0  0  0
  3  6  1  0  0  0  0
  3  7  1  0  0  0  0
  3 10  1  0  0  0  0
  4  8  1  0  0  0  0
  4  9  1  0  0  0  0
  4 12  1  0  0  0  0
  5 14  1  0  0  0  0
  5 20  1  0  0  0  0
  5 49  1  0  0  0  0
  6  8  1  0  0  0  0
  6 31  1  0  0  0  0
  6 32  1  0  0  0  0
  7  9  1  0  0  0  0
  7 33  1  0  0  0  0
  7 34  1  0  0  0  0
  8 35  1  0  0  0  0
  8 36  1  0  0  0  0
  9 37  1  0  0  0  0
  9 38  1  0  0  0  0
 10 11  1  0  0  0  0
 10 39  1  0  0  0  0
 10 40  1  0  0  0  0
 11 13  1  0  0  0  0
 11 41  1  0  0  0  0
 11 42  1  0  0  0  0
 12 15  2  0  0  0  0
 12 16  1  0  0  0  0
 13 14  1  0  0  0  0
 13 43  1  0  0  0  0
 13 44  1  0  0  0  0
 14 45  1  0  0  0  0
 14 46  1  0  0  0  0
 15 17  1  0  0  0  0
 15 47  1  0  0  0  0
 16 18  2  0  0  0  0
 16 48  1  0  0  0  0
 17 19  2  0  0  0  0
 18 19  1  0  0  0  0
 18 50  1  0  0  0  0
 19 51  1  0  0  0  0
 20 21  1  0  0  0  0
 21 22  2  0  0  0  0
 21 24  1  0  0  0  0
 22 23  1  0  0  0  0
 22 52  1  0  0  0  0
 23 25  1  0  0  0  0
 23 27  2  0  0  0  0
 24 26  2  0  0  0  0
 24 53  1  0  0  0  0
 25 26  1  0  0  0  0
 25 28  2  0  0  0  0
 26 55  1  0  0  0  0
 27 29  1  0  0  0  0
 27 56  1  0  0  0  0
 28 30  1  0  0  0  0
 28 57  1  0  0  0  0
 29 30  2  0  0  0  0
 29 58  1  0  0  0  0
 30 59  1  0  0  0  0
M  END
> <PUBCHEM_COMPOUND_CID>
127027077

> <PUBCHEM_COMPOUND_CANONICALIZED>
1

> <PUBCHEM_CACTVS_COMPLEXITY>
535

> <PUBCHEM_CACTVS_HBOND_ACCEPTOR>
4

> <PUBCHEM_CACTVS_HBOND_DONOR>
2

> <PUBCHEM_CACTVS_ROTATABLE_BOND>
7

> <PUBCHEM_CACTVS_SUBSKEYS>
AAADceB7MAAAAAAAAAAAAAAAAAAAAAAAAAA8YMEAAAAAAADBVAAAHgAQCAAADAzBmAQwxsPAAgCIAiVSUACCAAAlIgAIiIEObMgIZjLClZOUcQhm1hnI2YeY2MOOwAACAgAQAACAAAQEACAAAAAAAAAAAA==

> <PUBCHEM_IUPAC_OPENEYE_NAME>
N-[4-[4-(3-hydroxyphenyl)piperazin-1-yl]butyl]naphthalene-2-carboxamide

> <PUBCHEM_IUPAC_CAS_NAME>
N-[4-[4-(3-hydroxyphenyl)-1-piperazinyl]butyl]-2-naphthalenecarboxamide

> <PUBCHEM_IUPAC_NAME_MARKUP>
<I>N</I>-[4-[4-(3-hydroxyphenyl)piperazin-1-yl]butyl]naphthalene-2-carboxamide

> <PUBCHEM_IUPAC_NAME>
N-[4-[4-(3-hydroxyphenyl)piperazin-1-yl]butyl]naphthalene-2-carboxamide

> <PUBCHEM_IUPAC_SYSTEMATIC_NAME>
N-[4-[4-(3-hydroxyphenyl)piperazin-1-yl]butyl]naphthalene-2-carboxamide

> <PUBCHEM_IUPAC_TRADITIONAL_NAME>
N-[4-[4-(3-hydroxyphenyl)piperazino]butyl]-2-naphthamide

> <PUBCHEM_IUPAC_INCHI>
InChI=1S/C25H29N3O2/c29-24-9-5-8-23(19-24)28-16-14-27(15-17-28)13-4-3-12-26-25(30)22-11-10-20-6-1-2-7-21(20)18-22/h1-2,5-11,18-19,29H,3-4,12-17H2,(H,26,30)

> <PUBCHEM_IUPAC_INCHIKEY>
UYSUVIPTEFGQSA-UHFFFAOYSA-N

> <PUBCHEM_XLOGP3_AA>
4.4

> <PUBCHEM_EXACT_MASS>
403.22597718

> <PUBCHEM_MOLECULAR_FORMULA>
C25H29N3O2

> <PUBCHEM_MOLECULAR_WEIGHT>
403.5

> <PUBCHEM_OPENEYE_CAN_SMILES>
C1CN(CCN1CCCCNC(=O)C2=CC3=CC=CC=C3C=C2)C4=CC(=CC=C4)O

> <PUBCHEM_OPENEYE_ISO_SMILES>
C1CN(CCN1CCCCNC(=O)C2=CC3=CC=CC=C3C=C2)C4=CC(=CC=C4)O

> <PUBCHEM_CACTVS_TPSA>
55.8

> <PUBCHEM_MONOISOTOPIC_WEIGHT>
403.22597718

> <PUBCHEM_TOTAL_CHARGE>
0

> <PUBCHEM_HEAVY_ATOM_COUNT>
30

> <PUBCHEM_ATOM_DEF_STEREO_COUNT>
0

> <PUBCHEM_ATOM_UDEF_STEREO_COUNT>
0

> <PUBCHEM_BOND_DEF_STEREO_COUNT>
0

> <PUBCHEM_BOND_UDEF_STEREO_COUNT>
0

> <PUBCHEM_ISOTOPIC_ATOM_COUNT>
0

> <PUBCHEM_COMPONENT_COUNT>
1

> <PUBCHEM_CACTVS_TAUTO_COUNT>
-1

> <PUBCHEM_COORDINATE_TYPE>
1
5
255

> <PUBCHEM_BONDANNOTATIONS>
12  15  8
12  16  8
15  17  8
16  18  8
17  19  8
18  19  8
21  22  8
21  24  8
22  23  8
23  25  8
23  27  8
24  26  8
25  26  8
25  28  8
27  29  8
28  30  8
29  30  8

$$$$
