132247309
  -OEChem-09292322452D

 54 56  0     0  0  0  0  0  0999 V2000
    2.0000   -3.0981    0.0000 Cl  0  0  0  0  0  0  0  0  0  0  0  0
    4.9641    0.7679    0.0000 F   0  0  0  0  0  0  0  0  0  0  0  0
    2.0000   -5.0981    0.0000 F   0  0  0  0  0  0  0  0  0  0  0  0
   12.4641    5.0981    0.0000 F   0  0  0  0  0  0  0  0  0  0  0  0
   12.8301    3.7320    0.0000 F   0  0  0  0  0  0  0  0  0  0  0  0
   11.0981    4.7320    0.0000 F   0  0  0  0  0  0  0  0  0  0  0  0
    6.3301   -3.5981    0.0000 O   0  0  0  0  0  0  0  0  0  0  0  0
    8.9641    2.5000    0.0000 O   0  0  0  0  0  0  0  0  0  0  0  0
    5.4641   -2.0981    0.0000 N   0  0  0  0  0  0  0  0  0  0  0  0
    6.9641    0.7679    0.0000 N   0  0  0  0  0  0  0  0  0  0  0  0
    5.4641   -0.0981    0.0000 C   0  0  0  0  0  0  0  0  0  0  0  0
    4.5981   -0.5981    0.0000 C   0  0  0  0  0  0  0  0  0  0  0  0
    6.3301   -0.5981    0.0000 C   0  0  0  0  0  0  0  0  0  0  0  0
    4.5981   -1.5981    0.0000 C   0  0  0  0  0  0  0  0  0  0  0  0
    6.3301   -1.5981    0.0000 C   0  0  0  0  0  0  0  0  0  0  0  0
    5.9641    0.7679    0.0000 C   0  0  0  0  0  0  0  0  0  0  0  0
    5.4641   -3.0981    0.0000 C   0  0  0  0  0  0  0  0  0  0  0  0
    7.4641    1.6340    0.0000 C   0  0  0  0  0  0  0  0  0  0  0  0
    4.5981   -3.5981    0.0000 C   0  0  0  0  0  0  0  0  0  0  0  0
    8.4641    1.6340    0.0000 C   0  0  0  0  0  0  0  0  0  0  0  0
    3.7320   -3.0981    0.0000 C   0  0  0  0  0  0  0  0  0  0  0  0
    4.5981   -4.5981    0.0000 C   0  0  0  0  0  0  0  0  0  0  0  0
    2.8660   -3.5981    0.0000 C   0  0  0  0  0  0  0  0  0  0  0  0
    3.7320   -5.0981    0.0000 C   0  0  0  0  0  0  0  0  0  0  0  0
    2.8660   -4.5981    0.0000 C   0  0  0  0  0  0  0  0  0  0  0  0
    9.9641    2.5000    0.0000 C   0  0  0  0  0  0  0  0  0  0  0  0
   10.4641    3.3660    0.0000 C   0  0  0  0  0  0  0  0  0  0  0  0
   10.4641    1.6340    0.0000 C   0  0  0  0  0  0  0  0  0  0  0  0
   11.4641    3.3660    0.0000 C   0  0  0  0  0  0  0  0  0  0  0  0
   11.4641    1.6340    0.0000 C   0  0  0  0  0  0  0  0  0  0  0  0
   11.9641    2.5000    0.0000 C   0  0  0  0  0  0  0  0  0  0  0  0
   11.9641    4.2320    0.0000 C   0  0  0  0  0  0  0  0  0  0  0  0
    4.3860   -0.0155    0.0000 H   0  0  0  0  0  0  0  0  0  0  0  0
    3.9875   -0.7057    0.0000 H   0  0  0  0  0  0  0  0  0  0  0  0
    6.9407   -0.7057    0.0000 H   0  0  0  0  0  0  0  0  0  0  0  0
    6.5422   -0.0155    0.0000 H   0  0  0  0  0  0  0  0  0  0  0  0
    3.9875   -1.4904    0.0000 H   0  0  0  0  0  0  0  0  0  0  0  0
    4.3860   -2.1807    0.0000 H   0  0  0  0  0  0  0  0  0  0  0  0
    6.5422   -2.1807    0.0000 H   0  0  0  0  0  0  0  0  0  0  0  0
    6.9407   -1.4904    0.0000 H   0  0  0  0  0  0  0  0  0  0  0  0
    6.0718    1.3785    0.0000 H   0  0  0  0  0  0  0  0  0  0  0  0
    5.3815    0.9800    0.0000 H   0  0  0  0  0  0  0  0  0  0  0  0
    7.2741    0.2310    0.0000 H   0  0  0  0  0  0  0  0  0  0  0  0
    7.5718    2.2446    0.0000 H   0  0  0  0  0  0  0  0  0  0  0  0
    6.8815    1.8460    0.0000 H   0  0  0  0  0  0  0  0  0  0  0  0
    8.3564    1.0234    0.0000 H   0  0  0  0  0  0  0  0  0  0  0  0
    9.0467    1.4219    0.0000 H   0  0  0  0  0  0  0  0  0  0  0  0
    3.7320   -2.4781    0.0000 H   0  0  0  0  0  0  0  0  0  0  0  0
    5.1350   -4.9081    0.0000 H   0  0  0  0  0  0  0  0  0  0  0  0
    3.7320   -5.7181    0.0000 H   0  0  0  0  0  0  0  0  0  0  0  0
   10.1541    3.9030    0.0000 H   0  0  0  0  0  0  0  0  0  0  0  0
   10.1541    1.0970    0.0000 H   0  0  0  0  0  0  0  0  0  0  0  0
   11.7741    1.0970    0.0000 H   0  0  0  0  0  0  0  0  0  0  0  0
   12.5841    2.5000    0.0000 H   0  0  0  0  0  0  0  0  0  0  0  0
  1 23  1  0  0  0  0
  2 11  1  0  0  0  0
  3 25  1  0  0  0  0
  4 32  1  0  0  0  0
  5 32  1  0  0  0  0
  6 32  1  0  0  0  0
  7 17  2  0  0  0  0
  8 20  1  0  0  0  0
  8 26  1  0  0  0  0
  9 14  1  0  0  0  0
  9 15  1  0  0  0  0
  9 17  1  0  0  0  0
 10 16  1  0  0  0  0
 10 18  1  0  0  0  0
 10 43  1  0  0  0  0
 11 12  1  0  0  0  0
 11 13  1  0  0  0  0
 11 16  1  0  0  0  0
 12 14  1  0  0  0  0
 12 33  1  0  0  0  0
 12 34  1  0  0  0  0
 13 15  1  0  0  0  0
 13 35  1  0  0  0  0
 13 36  1  0  0  0  0
 14 37  1  0  0  0  0
 14 38  1  0  0  0  0
 15 39  1  0  0  0  0
 15 40  1  0  0  0  0
 16 41  1  0  0  0  0
 16 42  1  0  0  0  0
 17 19  1  0  0  0  0
 18 20  1  0  0  0  0
 18 44  1  0  0  0  0
 18 45  1  0  0  0  0
 19 21  2  0  0  0  0
 19 22  1  0  0  0  0
 20 46  1  0  0  0  0
 20 47  1  0  0  0  0
 21 23  1  0  0  0  0
 21 48  1  0  0  0  0
 22 24  2  0  0  0  0
 22 49  1  0  0  0  0
 23 25  2  0  0  0  0
 24 25  1  0  0  0  0
 24 50  1  0  0  0  0
 26 27  1  0  0  0  0
 26 28  2  0  0  0  0
 27 29  2  0  0  0  0
 27 51  1  0  0  0  0
 28 30  1  0  0  0  0
 28 52  1  0  0  0  0
 29 31  1  0  0  0  0
 29 32  1  0  0  0  0
 30 31  2  0  0  0  0
 30 53  1  0  0  0  0
 31 54  1  0  0  0  0
M  END
> <PUBCHEM_COMPOUND_CID>
132247309

> <PUBCHEM_COMPOUND_CANONICALIZED>
1

> <PUBCHEM_CACTVS_COMPLEXITY>
616

> <PUBCHEM_CACTVS_HBOND_ACCEPTOR>
8

> <PUBCHEM_CACTVS_HBOND_DONOR>
1

> <PUBCHEM_CACTVS_ROTATABLE_BOND>
7

> <PUBCHEM_CACTVS_SUBSKEYS>
AAADceB7McAEAAAAAAAAAAAAAAAAAAAAAAA8YIAAAAAAAAABQAAAHwIQAAAADAbhmD4wBoPABACIAiFSEACCCAAkJQAIiIEODsgOJjKFtxuHOSjk1hGYqYeYyBCOAAABIAAAAAAAAAJAAAAAAAAAAAAAAA==

> <PUBCHEM_IUPAC_OPENEYE_NAME>
(3-chloro-4-fluoro-phenyl)-[4-fluoro-4-[[2-[3-(trifluoromethyl)phenoxy]ethylamino]methyl]-1-piperidyl]methanone

> <PUBCHEM_IUPAC_CAS_NAME>
(3-chloro-4-fluorophenyl)-[4-fluoro-4-[[2-[3-(trifluoromethyl)phenoxy]ethylamino]methyl]-1-piperidinyl]methanone

> <PUBCHEM_IUPAC_NAME_MARKUP>
(3-chloro-4-fluorophenyl)-[4-fluoro-4-[[2-[3-(trifluoromethyl)phenoxy]ethylamino]methyl]piperidin-1-yl]methanone

> <PUBCHEM_IUPAC_NAME>
(3-chloro-4-fluorophenyl)-[4-fluoro-4-[[2-[3-(trifluoromethyl)phenoxy]ethylamino]methyl]piperidin-1-yl]methanone

> <PUBCHEM_IUPAC_SYSTEMATIC_NAME>
(3-chloranyl-4-fluoranyl-phenyl)-[4-fluoranyl-4-[[2-[3-(trifluoromethyl)phenoxy]ethylamino]methyl]piperidin-1-yl]methanone

> <PUBCHEM_IUPAC_TRADITIONAL_NAME>
(3-chloro-4-fluoro-phenyl)-[4-fluoro-4-[[2-[3-(trifluoromethyl)phenoxy]ethylamino]methyl]piperidino]methanone

> <PUBCHEM_IUPAC_INCHI>
InChI=1S/C22H22ClF5N2O2/c23-18-12-15(4-5-19(18)24)20(31)30-9-6-21(25,7-10-30)14-29-8-11-32-17-3-1-2-16(13-17)22(26,27)28/h1-5,12-13,29H,6-11,14H2

> <PUBCHEM_IUPAC_INCHIKEY>
BMEHLDKQUOMXTR-UHFFFAOYSA-N

> <PUBCHEM_XLOGP3_AA>
4.9

> <PUBCHEM_EXACT_MASS>
476.1289965

> <PUBCHEM_MOLECULAR_FORMULA>
C22H22ClF5N2O2

> <PUBCHEM_MOLECULAR_WEIGHT>
476.9

> <PUBCHEM_OPENEYE_CAN_SMILES>
C1CN(CCC1(CNCCOC2=CC=CC(=C2)C(F)(F)F)F)C(=O)C3=CC(=C(C=C3)F)Cl

> <PUBCHEM_OPENEYE_ISO_SMILES>
C1CN(CCC1(CNCCOC2=CC=CC(=C2)C(F)(F)F)F)C(=O)C3=CC(=C(C=C3)F)Cl

> <PUBCHEM_CACTVS_TPSA>
41.6

> <PUBCHEM_MONOISOTOPIC_WEIGHT>
476.1289965

> <PUBCHEM_TOTAL_CHARGE>
0

> <PUBCHEM_HEAVY_ATOM_COUNT>
32

> <PUBCHEM_ATOM_DEF_STEREO_COUNT>
0

> <PUBCHEM_ATOM_UDEF_STEREO_COUNT>
0

> <PUBCHEM_BOND_DEF_STEREO_COUNT>
0

> <PUBCHEM_BOND_UDEF_STEREO_COUNT>
0

> <PUBCHEM_ISOTOPIC_ATOM_COUNT>
0

> <PUBCHEM_COMPONENT_COUNT>
1

> <PUBCHEM_CACTVS_TAUTO_COUNT>
-1

> <PUBCHEM_COORDINATE_TYPE>
1
5
255

> <PUBCHEM_BONDANNOTATIONS>
19  21  8
19  22  8
21  23  8
22  24  8
23  25  8
24  25  8
26  27  8
26  28  8
27  29  8
28  30  8
29  31  8
30  31  8

$$$$
