155548677
  -OEChem-09292322402D

 52 55  0     0  0  0  0  0  0999 V2000
    8.7129    0.5992    0.0000 O   0  0  0  0  0  0  0  0  0  0  0  0
    2.8660   -3.2796    0.0000 O   0  0  0  0  0  0  0  0  0  0  0  0
    8.0726    5.2136    0.0000 O   0  0  0  0  0  0  0  0  0  0  0  0
    6.4103   -5.0843    0.0000 N   0  0  0  0  0  0  0  0  0  0  0  0
    8.0102   -1.3676    0.0000 N   0  0  0  0  0  0  0  0  0  0  0  0
    6.4103   -3.4748    0.0000 C   0  0  0  0  0  0  0  0  0  0  0  0
    6.7210   -2.5243    0.0000 C   0  0  0  0  0  0  0  0  0  0  0  0
    5.4641   -3.7796    0.0000 C   0  0  0  0  0  0  0  0  0  0  0  0
    6.9939   -4.2796    0.0000 C   0  0  0  0  0  0  0  0  0  0  0  0
    5.4641   -4.7796    0.0000 C   0  0  0  0  0  0  0  0  0  0  0  0
    7.6995   -2.3181    0.0000 C   0  0  0  0  0  0  0  0  0  0  0  0
    4.5981   -3.2796    0.0000 C   0  0  0  0  0  0  0  0  0  0  0  0
    4.5981   -5.2796    0.0000 C   0  0  0  0  0  0  0  0  0  0  0  0
    7.9939   -4.2796    0.0000 C   0  0  0  0  0  0  0  0  0  0  0  0
    8.9887   -1.1613    0.0000 C   0  0  0  0  0  0  0  0  0  0  0  0
    3.7320   -3.7796    0.0000 C   0  0  0  0  0  0  0  0  0  0  0  0
    3.7320   -4.7796    0.0000 C   0  0  0  0  0  0  0  0  0  0  0  0
    9.2993   -0.2108    0.0000 C   0  0  0  0  0  0  0  0  0  0  0  0
   10.2509    0.0966    0.0000 C   0  0  0  0  0  0  0  0  0  0  0  0
    9.3021    1.4072    0.0000 C   0  0  0  0  0  0  0  0  0  0  0  0
   10.2526    1.0966    0.0000 C   0  0  0  0  0  0  0  0  0  0  0  0
    8.9948    2.3588    0.0000 C   0  0  0  0  0  0  0  0  0  0  0  0
    9.6652    3.1008    0.0000 C   0  0  0  0  0  0  0  0  0  0  0  0
    8.0170    2.5684    0.0000 C   0  0  0  0  0  0  0  0  0  0  0  0
    2.0000   -3.7796    0.0000 C   0  0  0  0  0  0  0  0  0  0  0  0
    9.3578    4.0524    0.0000 C   0  0  0  0  0  0  0  0  0  0  0  0
    7.7096    3.5200    0.0000 C   0  0  0  0  0  0  0  0  0  0  0  0
    8.3800    4.2620    0.0000 C   0  0  0  0  0  0  0  0  0  0  0  0
    6.7004   -1.9046    0.0000 H   0  0  0  0  0  0  0  0  0  0  0  0
    6.1072   -2.4370    0.0000 H   0  0  0  0  0  0  0  0  0  0  0  0
    7.7201   -2.9377    0.0000 H   0  0  0  0  0  0  0  0  0  0  0  0
    8.3133   -2.4054    0.0000 H   0  0  0  0  0  0  0  0  0  0  0  0
    6.6029   -5.6736    0.0000 H   0  0  0  0  0  0  0  0  0  0  0  0
    4.5981   -2.6596    0.0000 H   0  0  0  0  0  0  0  0  0  0  0  0
    7.5961   -0.9061    0.0000 H   0  0  0  0  0  0  0  0  0  0  0  0
    4.5981   -5.8995    0.0000 H   0  0  0  0  0  0  0  0  0  0  0  0
    7.9939   -4.8995    0.0000 H   0  0  0  0  0  0  0  0  0  0  0  0
    8.6139   -4.2796    0.0000 H   0  0  0  0  0  0  0  0  0  0  0  0
    7.9939   -3.6596    0.0000 H   0  0  0  0  0  0  0  0  0  0  0  0
    9.0092   -1.7810    0.0000 H   0  0  0  0  0  0  0  0  0  0  0  0
    9.6025   -1.2487    0.0000 H   0  0  0  0  0  0  0  0  0  0  0  0
    3.1951   -5.0896    0.0000 H   0  0  0  0  0  0  0  0  0  0  0  0
   10.7519   -0.2687    0.0000 H   0  0  0  0  0  0  0  0  0  0  0  0
   10.7549    1.4601    0.0000 H   0  0  0  0  0  0  0  0  0  0  0  0
   10.2714    2.9708    0.0000 H   0  0  0  0  0  0  0  0  0  0  0  0
    7.6013    2.1084    0.0000 H   0  0  0  0  0  0  0  0  0  0  0  0
    1.6900   -3.2426    0.0000 H   0  0  0  0  0  0  0  0  0  0  0  0
    1.4631   -4.0896    0.0000 H   0  0  0  0  0  0  0  0  0  0  0  0
    2.3100   -4.3165    0.0000 H   0  0  0  0  0  0  0  0  0  0  0  0
    9.7734    4.5124    0.0000 H   0  0  0  0  0  0  0  0  0  0  0  0
    7.1034    3.6500    0.0000 H   0  0  0  0  0  0  0  0  0  0  0  0
    8.4883    5.6736    0.0000 H   0  0  0  0  0  0  0  0  0  0  0  0
  1 18  1  0  0  0  0
  1 20  1  0  0  0  0
  2 16  1  0  0  0  0
  2 25  1  0  0  0  0
  3 28  1  0  0  0  0
  3 52  1  0  0  0  0
  4  9  1  0  0  0  0
  4 10  1  0  0  0  0
  4 33  1  0  0  0  0
  5 11  1  0  0  0  0
  5 15  1  0  0  0  0
  5 35  1  0  0  0  0
  6  7  1  0  0  0  0
  6  8  1  0  0  0  0
  6  9  2  0  0  0  0
  7 11  1  0  0  0  0
  7 29  1  0  0  0  0
  7 30  1  0  0  0  0
  8 10  2  0  0  0  0
  8 12  1  0  0  0  0
  9 14  1  0  0  0  0
 10 13  1  0  0  0  0
 11 31  1  0  0  0  0
 11 32  1  0  0  0  0
 12 16  2  0  0  0  0
 12 34  1  0  0  0  0
 13 17  2  0  0  0  0
 13 36  1  0  0  0  0
 14 37  1  0  0  0  0
 14 38  1  0  0  0  0
 14 39  1  0  0  0  0
 15 18  1  0  0  0  0
 15 40  1  0  0  0  0
 15 41  1  0  0  0  0
 16 17  1  0  0  0  0
 17 42  1  0  0  0  0
 18 19  2  0  0  0  0
 19 21  1  0  0  0  0
 19 43  1  0  0  0  0
 20 21  2  0  0  0  0
 20 22  1  0  0  0  0
 21 44  1  0  0  0  0
 22 23  2  0  0  0  0
 22 24  1  0  0  0  0
 23 26  1  0  0  0  0
 23 45  1  0  0  0  0
 24 27  2  0  0  0  0
 24 46  1  0  0  0  0
 25 47  1  0  0  0  0
 25 48  1  0  0  0  0
 25 49  1  0  0  0  0
 26 28  2  0  0  0  0
 26 50  1  0  0  0  0
 27 28  1  0  0  0  0
 27 51  1  0  0  0  0
M  END
> <PUBCHEM_COMPOUND_CID>
155548677

> <PUBCHEM_COMPOUND_CANONICALIZED>
1

> <PUBCHEM_CACTVS_COMPLEXITY>
483

> <PUBCHEM_CACTVS_HBOND_ACCEPTOR>
4

> <PUBCHEM_CACTVS_HBOND_DONOR>
3

> <PUBCHEM_CACTVS_ROTATABLE_BOND>
7

> <PUBCHEM_CACTVS_SUBSKEYS>
AAADceB7MAAAAAAAAAAAAAAAAAAAAWJAAAAwYAAAAAAAAFgB/AAAHgAQCAAADAzBngYyxvLJlkCoA6RyRACCiCAlIiAImaG+bNgOJvLGtbuHeSjk0BHY+Ye4/f/OoEABAAACAABAgAIAAAQAAAAAAAAAAA==

> <PUBCHEM_IUPAC_OPENEYE_NAME>
4-[5-[[2-(5-methoxy-2-methyl-1H-indol-3-yl)ethylamino]methyl]-2-furyl]phenol

> <PUBCHEM_IUPAC_CAS_NAME>
4-[5-[[2-(5-methoxy-2-methyl-1H-indol-3-yl)ethylamino]methyl]-2-furanyl]phenol

> <PUBCHEM_IUPAC_NAME_MARKUP>
4-[5-[[2-(5-methoxy-2-methyl-1<I>H</I>-indol-3-yl)ethylamino]methyl]furan-2-yl]phenol

> <PUBCHEM_IUPAC_NAME>
4-[5-[[2-(5-methoxy-2-methyl-1H-indol-3-yl)ethylamino]methyl]furan-2-yl]phenol

> <PUBCHEM_IUPAC_SYSTEMATIC_NAME>
4-[5-[[2-(5-methoxy-2-methyl-1H-indol-3-yl)ethylamino]methyl]furan-2-yl]phenol

> <PUBCHEM_IUPAC_TRADITIONAL_NAME>
4-[5-[[2-(5-methoxy-2-methyl-1H-indol-3-yl)ethylamino]methyl]-2-furyl]phenol

> <PUBCHEM_IUPAC_INCHI>
InChI=1S/C23H24N2O3/c1-15-20(21-13-18(27-2)7-9-22(21)25-15)11-12-24-14-19-8-10-23(28-19)16-3-5-17(26)6-4-16/h3-10,13,24-26H,11-12,14H2,1-2H3

> <PUBCHEM_IUPAC_INCHIKEY>
YVYFBBDHUFSWDX-UHFFFAOYSA-N

> <PUBCHEM_XLOGP3_AA>
4.2

> <PUBCHEM_EXACT_MASS>
376.17869263

> <PUBCHEM_MOLECULAR_FORMULA>
C23H24N2O3

> <PUBCHEM_MOLECULAR_WEIGHT>
376.4

> <PUBCHEM_OPENEYE_CAN_SMILES>
CC1=C(C2=C(N1)C=CC(=C2)OC)CCNCC3=CC=C(O3)C4=CC=C(C=C4)O

> <PUBCHEM_OPENEYE_ISO_SMILES>
CC1=C(C2=C(N1)C=CC(=C2)OC)CCNCC3=CC=C(O3)C4=CC=C(C=C4)O

> <PUBCHEM_CACTVS_TPSA>
70.4

> <PUBCHEM_MONOISOTOPIC_WEIGHT>
376.17869263

> <PUBCHEM_TOTAL_CHARGE>
0

> <PUBCHEM_HEAVY_ATOM_COUNT>
28

> <PUBCHEM_ATOM_DEF_STEREO_COUNT>
0

> <PUBCHEM_ATOM_UDEF_STEREO_COUNT>
0

> <PUBCHEM_BOND_DEF_STEREO_COUNT>
0

> <PUBCHEM_BOND_UDEF_STEREO_COUNT>
0

> <PUBCHEM_ISOTOPIC_ATOM_COUNT>
0

> <PUBCHEM_COMPONENT_COUNT>
1

> <PUBCHEM_CACTVS_TAUTO_COUNT>
-1

> <PUBCHEM_COORDINATE_TYPE>
1
5
255

> <PUBCHEM_BONDANNOTATIONS>
1  18  8
1  20  8
10  13  8
12  16  8
13  17  8
16  17  8
18  19  8
19  21  8
20  21  8
22  23  8
22  24  8
23  26  8
24  27  8
26  28  8
27  28  8
4  10  8
4  9  8
6  8  8
6  9  8
8  10  8
8  12  8

$$$$
