9908125
  -OEChem-09292322102D

 44 47  0     0  0  0  0  0  0999 V2000
   12.9492    0.1263    0.0000 Cl  0  0  0  0  0  0  0  0  0  0  0  0
   13.5705    2.0274    0.0000 Cl  0  0  0  0  0  0  0  0  0  0  0  0
    7.6995    0.7901    0.0000 N   0  0  0  0  0  0  0  0  0  0  0  0
    9.6565    1.2025    0.0000 N   0  0  0  0  0  0  0  0  0  0  0  0
    6.4103   -1.9761    0.0000 N   0  0  0  0  0  0  0  0  0  0  0  0
    2.0000    0.3286    0.0000 N   0  0  0  0  0  0  0  0  0  0  0  0
    8.3673    0.0458    0.0000 C   0  0  0  0  0  0  0  0  0  0  0  0
    8.0102    1.7406    0.0000 C   0  0  0  0  0  0  0  0  0  0  0  0
    9.3458    0.2520    0.0000 C   0  0  0  0  0  0  0  0  0  0  0  0
    8.9887    1.9468    0.0000 C   0  0  0  0  0  0  0  0  0  0  0  0
    6.7210    0.5838    0.0000 C   0  0  0  0  0  0  0  0  0  0  0  0
    6.4103   -0.3667    0.0000 C   0  0  0  0  0  0  0  0  0  0  0  0
   10.6350    1.4087    0.0000 C   0  0  0  0  0  0  0  0  0  0  0  0
    5.4641   -0.6714    0.0000 C   0  0  0  0  0  0  0  0  0  0  0  0
    6.9939   -1.1714    0.0000 C   0  0  0  0  0  0  0  0  0  0  0  0
    5.4641   -1.6714    0.0000 C   0  0  0  0  0  0  0  0  0  0  0  0
   11.3029    0.6644    0.0000 C   0  0  0  0  0  0  0  0  0  0  0  0
   10.9457    2.3592    0.0000 C   0  0  0  0  0  0  0  0  0  0  0  0
    4.5981   -0.1714    0.0000 C   0  0  0  0  0  0  0  0  0  0  0  0
    4.5981   -2.1714    0.0000 C   0  0  0  0  0  0  0  0  0  0  0  0
    3.7320   -0.6714    0.0000 C   0  0  0  0  0  0  0  0  0  0  0  0
   12.2814    0.8706    0.0000 C   0  0  0  0  0  0  0  0  0  0  0  0
   11.9242    2.5655    0.0000 C   0  0  0  0  0  0  0  0  0  0  0  0
    3.7320   -1.6714    0.0000 C   0  0  0  0  0  0  0  0  0  0  0  0
   12.5920    1.8212    0.0000 C   0  0  0  0  0  0  0  0  0  0  0  0
    2.8660   -0.1714    0.0000 C   0  0  0  0  0  0  0  0  0  0  0  0
    7.8410   -0.2819    0.0000 H   0  0  0  0  0  0  0  0  0  0  0  0
    8.5986   -0.5295    0.0000 H   0  0  0  0  0  0  0  0  0  0  0  0
    7.9896    2.3602    0.0000 H   0  0  0  0  0  0  0  0  0  0  0  0
    7.3963    1.8279    0.0000 H   0  0  0  0  0  0  0  0  0  0  0  0
    9.3664   -0.3677    0.0000 H   0  0  0  0  0  0  0  0  0  0  0  0
    9.9597    0.1646    0.0000 H   0  0  0  0  0  0  0  0  0  0  0  0
    9.5150    2.2744    0.0000 H   0  0  0  0  0  0  0  0  0  0  0  0
    8.7574    2.5221    0.0000 H   0  0  0  0  0  0  0  0  0  0  0  0
    6.7004    1.2035    0.0000 H   0  0  0  0  0  0  0  0  0  0  0  0
    6.1072    0.6712    0.0000 H   0  0  0  0  0  0  0  0  0  0  0  0
    7.6139   -1.1714    0.0000 H   0  0  0  0  0  0  0  0  0  0  0  0
    6.6029   -2.5655    0.0000 H   0  0  0  0  0  0  0  0  0  0  0  0
   11.1102    0.0751    0.0000 H   0  0  0  0  0  0  0  0  0  0  0  0
   10.5316    2.8207    0.0000 H   0  0  0  0  0  0  0  0  0  0  0  0
    4.5981    0.4486    0.0000 H   0  0  0  0  0  0  0  0  0  0  0  0
    4.5981   -2.7914    0.0000 H   0  0  0  0  0  0  0  0  0  0  0  0
   12.1168    3.1548    0.0000 H   0  0  0  0  0  0  0  0  0  0  0  0
    3.1951   -1.9814    0.0000 H   0  0  0  0  0  0  0  0  0  0  0  0
  1 22  1  0  0  0  0
  2 25  1  0  0  0  0
  3  7  1  0  0  0  0
  3  8  1  0  0  0  0
  3 11  1  0  0  0  0
  4  9  1  0  0  0  0
  4 10  1  0  0  0  0
  4 13  1  0  0  0  0
  5 15  1  0  0  0  0
  5 16  1  0  0  0  0
  5 38  1  0  0  0  0
  6 26  3  0  0  0  0
  7  9  1  0  0  0  0
  7 27  1  0  0  0  0
  7 28  1  0  0  0  0
  8 10  1  0  0  0  0
  8 29  1  0  0  0  0
  8 30  1  0  0  0  0
  9 31  1  0  0  0  0
  9 32  1  0  0  0  0
 10 33  1  0  0  0  0
 10 34  1  0  0  0  0
 11 12  1  0  0  0  0
 11 35  1  0  0  0  0
 11 36  1  0  0  0  0
 12 14  1  0  0  0  0
 12 15  2  0  0  0  0
 13 17  2  0  0  0  0
 13 18  1  0  0  0  0
 14 16  2  0  0  0  0
 14 19  1  0  0  0  0
 15 37  1  0  0  0  0
 16 20  1  0  0  0  0
 17 22  1  0  0  0  0
 17 39  1  0  0  0  0
 18 23  2  0  0  0  0
 18 40  1  0  0  0  0
 19 21  2  0  0  0  0
 19 41  1  0  0  0  0
 20 24  2  0  0  0  0
 20 42  1  0  0  0  0
 21 24  1  0  0  0  0
 21 26  1  0  0  0  0
 22 25  2  0  0  0  0
 23 25  1  0  0  0  0
 23 43  1  0  0  0  0
 24 44  1  0  0  0  0
M  END
> <PUBCHEM_COMPOUND_CID>
9908125

> <PUBCHEM_COMPOUND_CANONICALIZED>
1

> <PUBCHEM_CACTVS_COMPLEXITY>
527

> <PUBCHEM_CACTVS_HBOND_ACCEPTOR>
3

> <PUBCHEM_CACTVS_HBOND_DONOR>
1

> <PUBCHEM_CACTVS_ROTATABLE_BOND>
3

> <PUBCHEM_CACTVS_SUBSKEYS>
AAADceB7gAAGAAAAAAAAAAAAAAAAAWAAAAA8YIAAAAAAAFgB9AAAHAIQAAAADArBHiQ8wPPJkACwBzRnRACigCAxByAI2+A4ZpgI4OLB05GUIAhgkADIyA8QgMAOiABCAAICAAQQAIQABAQACAAAAAAAAA==

> <PUBCHEM_IUPAC_OPENEYE_NAME>
3-[[4-(3,4-dichlorophenyl)piperazin-1-yl]methyl]-1H-indole-5-carbonitrile

> <PUBCHEM_IUPAC_CAS_NAME>
3-[[4-(3,4-dichlorophenyl)-1-piperazinyl]methyl]-1H-indole-5-carbonitrile

> <PUBCHEM_IUPAC_NAME_MARKUP>
3-[[4-(3,4-dichlorophenyl)piperazin-1-yl]methyl]-1<I>H</I>-indole-5-carbonitrile

> <PUBCHEM_IUPAC_NAME>
3-[[4-(3,4-dichlorophenyl)piperazin-1-yl]methyl]-1H-indole-5-carbonitrile

> <PUBCHEM_IUPAC_SYSTEMATIC_NAME>
3-[[4-(3,4-dichlorophenyl)piperazin-1-yl]methyl]-1H-indole-5-carbonitrile

> <PUBCHEM_IUPAC_TRADITIONAL_NAME>
3-[[4-(3,4-dichlorophenyl)piperazino]methyl]-1H-indole-5-carbonitrile

> <PUBCHEM_IUPAC_INCHI>
InChI=1S/C20H18Cl2N4/c21-18-3-2-16(10-19(18)22)26-7-5-25(6-8-26)13-15-12-24-20-4-1-14(11-23)9-17(15)20/h1-4,9-10,12,24H,5-8,13H2

> <PUBCHEM_IUPAC_INCHIKEY>
LLMBUJCYVGLEBH-UHFFFAOYSA-N

> <PUBCHEM_XLOGP3_AA>
4.5

> <PUBCHEM_EXACT_MASS>
384.0908520

> <PUBCHEM_MOLECULAR_FORMULA>
C20H18Cl2N4

> <PUBCHEM_MOLECULAR_WEIGHT>
385.3

> <PUBCHEM_OPENEYE_CAN_SMILES>
C1CN(CCN1CC2=CNC3=C2C=C(C=C3)C#N)C4=CC(=C(C=C4)Cl)Cl

> <PUBCHEM_OPENEYE_ISO_SMILES>
C1CN(CCN1CC2=CNC3=C2C=C(C=C3)C#N)C4=CC(=C(C=C4)Cl)Cl

> <PUBCHEM_CACTVS_TPSA>
46.1

> <PUBCHEM_MONOISOTOPIC_WEIGHT>
384.0908520

> <PUBCHEM_TOTAL_CHARGE>
0

> <PUBCHEM_HEAVY_ATOM_COUNT>
26

> <PUBCHEM_ATOM_DEF_STEREO_COUNT>
0

> <PUBCHEM_ATOM_UDEF_STEREO_COUNT>
0

> <PUBCHEM_BOND_DEF_STEREO_COUNT>
0

> <PUBCHEM_BOND_UDEF_STEREO_COUNT>
0

> <PUBCHEM_ISOTOPIC_ATOM_COUNT>
0

> <PUBCHEM_COMPONENT_COUNT>
1

> <PUBCHEM_CACTVS_TAUTO_COUNT>
-1

> <PUBCHEM_COORDINATE_TYPE>
1
5
255

> <PUBCHEM_BONDANNOTATIONS>
12  14  8
12  15  8
13  17  8
13  18  8
14  16  8
14  19  8
16  20  8
17  22  8
18  23  8
19  21  8
20  24  8
21  24  8
22  25  8
23  25  8
5  15  8
5  16  8

$$$$
