127038078
  -OEChem-09292322472D

 57 59  0     0  0  0  0  0  0999 V2000
    4.4766    0.0000    0.0000 Cl  0  0  0  0  0  0  0  0  0  0  0  0
    0.0000    7.2547    0.0000 Cl  0  0  0  0  0  0  0  0  0  0  0  0
    8.6574   10.8364    0.0000 O   0  0  0  0  0  0  0  0  0  0  0  0
    4.4766    6.0000    0.0000 N   0  0  0  0  0  0  0  0  0  0  0  0
    4.4766    4.0000    0.0000 N   0  0  0  0  0  0  0  0  0  0  0  0
    6.2087   10.0000    0.0000 N   0  0  0  0  0  0  0  0  0  0  0  0
    7.1792   11.4945    0.0000 N   0  0  0  0  0  0  0  0  0  0  0  0
    7.9882   10.0933    0.0000 N   0  0  0  0  0  0  0  0  0  0  0  0
    3.6106    5.5000    0.0000 C   0  0  0  0  0  0  0  0  0  0  0  0
    5.3426    5.5000    0.0000 C   0  0  0  0  0  0  0  0  0  0  0  0
    3.6106    4.5000    0.0000 C   0  0  0  0  0  0  0  0  0  0  0  0
    5.3426    4.5000    0.0000 C   0  0  0  0  0  0  0  0  0  0  0  0
    4.4766    7.0000    0.0000 C   0  0  0  0  0  0  0  0  0  0  0  0
    5.3426    7.5000    0.0000 C   0  0  0  0  0  0  0  0  0  0  0  0
    4.4766    3.0000    0.0000 C   0  0  0  0  0  0  0  0  0  0  0  0
    5.3426    8.5000    0.0000 C   0  0  0  0  0  0  0  0  0  0  0  0
    6.2087    9.0000    0.0000 C   0  0  0  0  0  0  0  0  0  0  0  0
    5.3426    2.5000    0.0000 C   0  0  0  0  0  0  0  0  0  0  0  0
    3.6106    2.5000    0.0000 C   0  0  0  0  0  0  0  0  0  0  0  0
    5.3426    1.5000    0.0000 C   0  0  0  0  0  0  0  0  0  0  0  0
    3.6106    1.5000    0.0000 C   0  0  0  0  0  0  0  0  0  0  0  0
    4.4766    1.0000    0.0000 C   0  0  0  0  0  0  0  0  0  0  0  0
    7.0747   10.5000    0.0000 C   0  0  0  0  0  0  0  0  0  0  0  0
    8.1574   11.7024    0.0000 C   0  0  0  0  0  0  0  0  0  0  0  0
    8.5641   12.6160    0.0000 C   0  0  0  0  0  0  0  0  0  0  0  0
    7.9763   13.4250    0.0000 C   0  0  0  0  0  0  0  0  0  0  0  0
    9.5586   12.7205    0.0000 C   0  0  0  0  0  0  0  0  0  0  0  0
    8.3831   14.3385    0.0000 C   0  0  0  0  0  0  0  0  0  0  0  0
    9.9654   13.6341    0.0000 C   0  0  0  0  0  0  0  0  0  0  0  0
    9.3776   14.4431    0.0000 C   0  0  0  0  0  0  0  0  0  0  0  0
    3.3985    6.0826    0.0000 H   0  0  0  0  0  0  0  0  0  0  0  0
    3.0000    5.3923    0.0000 H   0  0  0  0  0  0  0  0  0  0  0  0
    5.9532    5.3923    0.0000 H   0  0  0  0  0  0  0  0  0  0  0  0
    5.5547    6.0826    0.0000 H   0  0  0  0  0  0  0  0  0  0  0  0
    3.0000    4.6077    0.0000 H   0  0  0  0  0  0  0  0  0  0  0  0
    3.3985    3.9174    0.0000 H   0  0  0  0  0  0  0  0  0  0  0  0
    5.5547    3.9174    0.0000 H   0  0  0  0  0  0  0  0  0  0  0  0
    5.9532    4.6077    0.0000 H   0  0  0  0  0  0  0  0  0  0  0  0
    4.2646    7.5826    0.0000 H   0  0  0  0  0  0  0  0  0  0  0  0
    3.8660    6.8923    0.0000 H   0  0  0  0  0  0  0  0  0  0  0  0
    5.5547    6.9174    0.0000 H   0  0  0  0  0  0  0  0  0  0  0  0
    5.9532    7.6077    0.0000 H   0  0  0  0  0  0  0  0  0  0  0  0
    5.1306    9.0826    0.0000 H   0  0  0  0  0  0  0  0  0  0  0  0
    4.7320    8.3923    0.0000 H   0  0  0  0  0  0  0  0  0  0  0  0
    6.4207    8.4174    0.0000 H   0  0  0  0  0  0  0  0  0  0  0  0
    6.8192    9.1077    0.0000 H   0  0  0  0  0  0  0  0  0  0  0  0
    5.8796    2.8100    0.0000 H   0  0  0  0  0  0  0  0  0  0  0  0
    3.0737    2.8100    0.0000 H   0  0  0  0  0  0  0  0  0  0  0  0
    5.6717   10.3100    0.0000 H   0  0  0  0  0  0  0  0  0  0  0  0
    5.8796    1.1900    0.0000 H   0  0  0  0  0  0  0  0  0  0  0  0
    3.0737    1.1900    0.0000 H   0  0  0  0  0  0  0  0  0  0  0  0
    7.3597   13.3602    0.0000 H   0  0  0  0  0  0  0  0  0  0  0  0
    9.9230   12.2189    0.0000 H   0  0  0  0  0  0  0  0  0  0  0  0
    8.0186   14.8401    0.0000 H   0  0  0  0  0  0  0  0  0  0  0  0
   10.5820   13.6989    0.0000 H   0  0  0  0  0  0  0  0  0  0  0  0
    9.6297   15.0095    0.0000 H   0  0  0  0  0  0  0  0  0  0  0  0
    1.0000    7.2547    0.0000 H   0  0  0  0  0  0  0  0  0  0  0  0
  1 22  1  0  0  0  0
  2 57  1  0  0  0  0
  3  8  1  0  0  0  0
  3 24  1  0  0  0  0
  4  9  1  0  0  0  0
  4 10  1  0  0  0  0
  4 13  1  0  0  0  0
  5 11  1  0  0  0  0
  5 12  1  0  0  0  0
  5 15  1  0  0  0  0
  6 17  1  0  0  0  0
  6 23  1  0  0  0  0
  6 49  1  0  0  0  0
  7 23  1  0  0  0  0
  7 24  2  0  0  0  0
  8 23  2  0  0  0  0
  9 11  1  0  0  0  0
  9 31  1  0  0  0  0
  9 32  1  0  0  0  0
 10 12  1  0  0  0  0
 10 33  1  0  0  0  0
 10 34  1  0  0  0  0
 11 35  1  0  0  0  0
 11 36  1  0  0  0  0
 12 37  1  0  0  0  0
 12 38  1  0  0  0  0
 13 14  1  0  0  0  0
 13 39  1  0  0  0  0
 13 40  1  0  0  0  0
 14 16  1  0  0  0  0
 14 41  1  0  0  0  0
 14 42  1  0  0  0  0
 15 18  2  0  0  0  0
 15 19  1  0  0  0  0
 16 17  1  0  0  0  0
 16 43  1  0  0  0  0
 16 44  1  0  0  0  0
 17 45  1  0  0  0  0
 17 46  1  0  0  0  0
 18 20  1  0  0  0  0
 18 47  1  0  0  0  0
 19 21  2  0  0  0  0
 19 48  1  0  0  0  0
 20 22  2  0  0  0  0
 20 50  1  0  0  0  0
 21 22  1  0  0  0  0
 21 51  1  0  0  0  0
 24 25  1  0  0  0  0
 25 26  2  0  0  0  0
 25 27  1  0  0  0  0
 26 28  1  0  0  0  0
 26 52  1  0  0  0  0
 27 29  2  0  0  0  0
 27 53  1  0  0  0  0
 28 30  2  0  0  0  0
 28 54  1  0  0  0  0
 29 30  1  0  0  0  0
 29 55  1  0  0  0  0
 30 56  1  0  0  0  0
M  END
> <PUBCHEM_COMPOUND_CID>
127038078

> <PUBCHEM_COMPOUND_CANONICALIZED>
1

> <PUBCHEM_CACTVS_COMPLEXITY>
462

> <PUBCHEM_CACTVS_HBOND_ACCEPTOR>
6

> <PUBCHEM_CACTVS_HBOND_DONOR>
2

> <PUBCHEM_CACTVS_ROTATABLE_BOND>
8

> <PUBCHEM_CACTVS_SUBSKEYS>
AAADceB7oAAGAAAAAAAAAAAAAAAAAWAAAAA8YIAAAAAAAAAB0AAAHgIUAAAADArBmiQx0IfYEACpAiVydgCCgAklB6AJiKEobtiIbrLBn5GUMQhs0QPIyYeYyCCOAABAAAAAAAAAAIAAAAAAAAAAAAAAAA==

> <PUBCHEM_IUPAC_OPENEYE_NAME>
N-[4-[4-(4-chlorophenyl)piperazin-1-yl]butyl]-5-phenyl-1,2,4-oxadiazol-3-amine;hydrochloride

> <PUBCHEM_IUPAC_CAS_NAME>
N-[4-[4-(4-chlorophenyl)-1-piperazinyl]butyl]-5-phenyl-1,2,4-oxadiazol-3-amine;hydrochloride

> <PUBCHEM_IUPAC_NAME_MARKUP>
<I>N</I>-[4-[4-(4-chlorophenyl)piperazin-1-yl]butyl]-5-phenyl-1,2,4-oxadiazol-3-amine;hydrochloride

> <PUBCHEM_IUPAC_NAME>
N-[4-[4-(4-chlorophenyl)piperazin-1-yl]butyl]-5-phenyl-1,2,4-oxadiazol-3-amine;hydrochloride

> <PUBCHEM_IUPAC_SYSTEMATIC_NAME>
N-[4-[4-(4-chlorophenyl)piperazin-1-yl]butyl]-5-phenyl-1,2,4-oxadiazol-3-amine;hydrochloride

> <PUBCHEM_IUPAC_TRADITIONAL_NAME>
4-[4-(4-chlorophenyl)piperazino]butyl-(5-phenyl-1,2,4-oxadiazol-3-yl)amine;hydrochloride

> <PUBCHEM_IUPAC_INCHI>
InChI=1S/C22H26ClN5O.ClH/c23-19-8-10-20(11-9-19)28-16-14-27(15-17-28)13-5-4-12-24-22-25-21(29-26-22)18-6-2-1-3-7-18;/h1-3,6-11H,4-5,12-17H2,(H,24,26);1H

> <PUBCHEM_IUPAC_INCHIKEY>
IPLCAXSRUDGODP-UHFFFAOYSA-N

> <PUBCHEM_EXACT_MASS>
447.1592659

> <PUBCHEM_MOLECULAR_FORMULA>
C22H27Cl2N5O

> <PUBCHEM_MOLECULAR_WEIGHT>
448.4

> <PUBCHEM_OPENEYE_CAN_SMILES>
C1CN(CCN1CCCCNC2=NOC(=N2)C3=CC=CC=C3)C4=CC=C(C=C4)Cl.Cl

> <PUBCHEM_OPENEYE_ISO_SMILES>
C1CN(CCN1CCCCNC2=NOC(=N2)C3=CC=CC=C3)C4=CC=C(C=C4)Cl.Cl

> <PUBCHEM_CACTVS_TPSA>
57.4

> <PUBCHEM_MONOISOTOPIC_WEIGHT>
447.1592659

> <PUBCHEM_TOTAL_CHARGE>
0

> <PUBCHEM_HEAVY_ATOM_COUNT>
30

> <PUBCHEM_ATOM_DEF_STEREO_COUNT>
0

> <PUBCHEM_ATOM_UDEF_STEREO_COUNT>
0

> <PUBCHEM_BOND_DEF_STEREO_COUNT>
0

> <PUBCHEM_BOND_UDEF_STEREO_COUNT>
0

> <PUBCHEM_ISOTOPIC_ATOM_COUNT>
0

> <PUBCHEM_COMPONENT_COUNT>
2

> <PUBCHEM_CACTVS_TAUTO_COUNT>
-1

> <PUBCHEM_COORDINATE_TYPE>
1
5
255

> <PUBCHEM_BONDANNOTATIONS>
15  18  8
15  19  8
18  20  8
19  21  8
20  22  8
21  22  8
25  26  8
25  27  8
26  28  8
27  29  8
28  30  8
29  30  8
3  24  8
3  8  8
7  23  8
7  24  8
8  23  8

$$$$
