71456782
  -OEChem-09292322332D

 46 48  0     1  0  0  0  0  0999 V2000
    3.0000   -0.8783    0.0000 S   0  0  0  0  0  0  0  0  0  0  0  0
    3.0000   -4.8783    0.0000 F   0  0  0  0  0  0  0  0  0  0  0  0
    6.7567    3.7557    0.0000 O   0  0  0  0  0  0  0  0  0  0  0  0
    4.0000   -0.8783    0.0000 O   0  0  0  0  0  0  0  0  0  0  0  0
    2.0000   -0.8783    0.0000 O   0  0  0  0  0  0  0  0  0  0  0  0
    4.9487    1.8241    0.0000 N   0  0  3  0  0  0  0  0  0  0  0  0
    3.0000    0.1217    0.0000 N   0  0  0  0  0  0  0  0  0  0  0  0
    3.8660    0.6217    0.0000 C   0  0  3  0  0  0  0  0  0  0  0  0
    4.7796    0.2149    0.0000 C   0  0  0  0  0  0  0  0  0  0  0  0
    3.9706    1.6162    0.0000 C   0  0  0  0  0  0  0  0  0  0  0  0
    5.4487    0.9581    0.0000 C   0  0  0  0  0  0  0  0  0  0  0  0
    5.3554    2.7376    0.0000 C   0  0  0  0  0  0  0  0  0  0  0  0
    6.3500    2.8422    0.0000 C   0  0  0  0  0  0  0  0  0  0  0  0
    3.0000   -1.8783    0.0000 C   0  0  0  0  0  0  0  0  0  0  0  0
    3.8660   -2.3783    0.0000 C   0  0  0  0  0  0  0  0  0  0  0  0
    2.1340   -2.3783    0.0000 C   0  0  0  0  0  0  0  0  0  0  0  0
    7.7512    3.8602    0.0000 C   0  0  0  0  0  0  0  0  0  0  0  0
    3.8660   -3.3783    0.0000 C   0  0  0  0  0  0  0  0  0  0  0  0
    2.1340   -3.3783    0.0000 C   0  0  0  0  0  0  0  0  0  0  0  0
    3.0000   -3.8783    0.0000 C   0  0  0  0  0  0  0  0  0  0  0  0
    8.1580    4.7738    0.0000 C   0  0  0  0  0  0  0  0  0  0  0  0
    8.3390    3.0512    0.0000 C   0  0  0  0  0  0  0  0  0  0  0  0
    9.1525    4.8783    0.0000 C   0  0  0  0  0  0  0  0  0  0  0  0
    9.3335    3.1558    0.0000 C   0  0  0  0  0  0  0  0  0  0  0  0
    9.7403    4.0693    0.0000 C   0  0  0  0  0  0  0  0  0  0  0  0
    3.8985    0.0025    0.0000 H   0  0  0  0  0  0  0  0  0  0  0  0
    4.4696   -0.3220    0.0000 H   0  0  0  0  0  0  0  0  0  0  0  0
    5.2812   -0.1495    0.0000 H   0  0  0  0  0  0  0  0  0  0  0  0
    3.9058    2.2328    0.0000 H   0  0  0  0  0  0  0  0  0  0  0  0
    3.3506    1.6162    0.0000 H   0  0  0  0  0  0  0  0  0  0  0  0
    5.8636    0.4973    0.0000 H   0  0  0  0  0  0  0  0  0  0  0  0
    5.9503    1.3225    0.0000 H   0  0  0  0  0  0  0  0  0  0  0  0
    5.3987    3.3561    0.0000 H   0  0  0  0  0  0  0  0  0  0  0  0
    4.7538    2.8876    0.0000 H   0  0  0  0  0  0  0  0  0  0  0  0
    2.4631    0.4317    0.0000 H   0  0  0  0  0  0  0  0  0  0  0  0
    6.3067    2.2237    0.0000 H   0  0  0  0  0  0  0  0  0  0  0  0
    6.9515    2.6922    0.0000 H   0  0  0  0  0  0  0  0  0  0  0  0
    4.4030   -2.0683    0.0000 H   0  0  0  0  0  0  0  0  0  0  0  0
    1.5970   -2.0683    0.0000 H   0  0  0  0  0  0  0  0  0  0  0  0
    4.4030   -3.6883    0.0000 H   0  0  0  0  0  0  0  0  0  0  0  0
    1.5970   -3.6883    0.0000 H   0  0  0  0  0  0  0  0  0  0  0  0
    7.7935    5.2754    0.0000 H   0  0  0  0  0  0  0  0  0  0  0  0
    8.0868    2.4848    0.0000 H   0  0  0  0  0  0  0  0  0  0  0  0
    9.4046    5.4447    0.0000 H   0  0  0  0  0  0  0  0  0  0  0  0
    9.6980    2.6542    0.0000 H   0  0  0  0  0  0  0  0  0  0  0  0
   10.3569    4.1341    0.0000 H   0  0  0  0  0  0  0  0  0  0  0  0
  1  4  2  0  0  0  0
  1  5  2  0  0  0  0
  1  7  1  0  0  0  0
  1 14  1  0  0  0  0
  2 20  1  0  0  0  0
  3 13  1  0  0  0  0
  3 17  1  0  0  0  0
  6 10  1  0  0  0  0
  6 11  1  0  0  0  0
  6 12  1  0  0  0  0
  7  8  1  0  0  0  0
  7 35  1  0  0  0  0
  8  9  1  0  0  0  0
  8 10  1  0  0  0  0
  8 26  1  0  0  0  0
  9 11  1  0  0  0  0
  9 27  1  0  0  0  0
  9 28  1  0  0  0  0
 10 29  1  0  0  0  0
 10 30  1  0  0  0  0
 11 31  1  0  0  0  0
 11 32  1  0  0  0  0
 12 13  1  0  0  0  0
 12 33  1  0  0  0  0
 12 34  1  0  0  0  0
 13 36  1  0  0  0  0
 13 37  1  0  0  0  0
 14 15  2  0  0  0  0
 14 16  1  0  0  0  0
 15 18  1  0  0  0  0
 15 38  1  0  0  0  0
 16 19  2  0  0  0  0
 16 39  1  0  0  0  0
 17 21  2  0  0  0  0
 17 22  1  0  0  0  0
 18 20  2  0  0  0  0
 18 40  1  0  0  0  0
 19 20  1  0  0  0  0
 19 41  1  0  0  0  0
 21 23  1  0  0  0  0
 21 42  1  0  0  0  0
 22 24  2  0  0  0  0
 22 43  1  0  0  0  0
 23 25  2  0  0  0  0
 23 44  1  0  0  0  0
 24 25  1  0  0  0  0
 24 45  1  0  0  0  0
 25 46  1  0  0  0  0
M  END
> <PUBCHEM_COMPOUND_CID>
71456782

> <PUBCHEM_COMPOUND_CANONICALIZED>
1

> <PUBCHEM_CACTVS_COMPLEXITY>
497

> <PUBCHEM_CACTVS_HBOND_ACCEPTOR>
6

> <PUBCHEM_CACTVS_HBOND_DONOR>
1

> <PUBCHEM_CACTVS_ROTATABLE_BOND>
7

> <PUBCHEM_CACTVS_SUBSKEYS>
AAADceB7MQBAAAAAAAAAAAAAAAAAAWAAAAAwYAAAAAAAAAABQAAAHwQQQAAACCzh0A4wB4NABAKAACBCAHBCCBAgIAAIiJgOCIgOZiKE8RqXOCCk0BGYqAeAQAAAAAAAAAAAAAAAAAAAAAAAAAAAAAAAAA==

> <PUBCHEM_IUPAC_OPENEYE_NAME>
4-fluoro-N-[1-(2-phenoxyethyl)pyrrolidin-3-yl]benzenesulfonamide

> <PUBCHEM_IUPAC_CAS_NAME>
4-fluoro-N-[1-(2-phenoxyethyl)-3-pyrrolidinyl]benzenesulfonamide

> <PUBCHEM_IUPAC_NAME_MARKUP>
4-fluoro-<I>N</I>-[1-(2-phenoxyethyl)pyrrolidin-3-yl]benzenesulfonamide

> <PUBCHEM_IUPAC_NAME>
4-fluoro-N-[1-(2-phenoxyethyl)pyrrolidin-3-yl]benzenesulfonamide

> <PUBCHEM_IUPAC_SYSTEMATIC_NAME>
4-fluoranyl-N-[1-(2-phenoxyethyl)pyrrolidin-3-yl]benzenesulfonamide

> <PUBCHEM_IUPAC_TRADITIONAL_NAME>
4-fluoro-N-[1-(2-phenoxyethyl)pyrrolidin-3-yl]benzenesulfonamide

> <PUBCHEM_IUPAC_INCHI>
InChI=1S/C18H21FN2O3S/c19-15-6-8-18(9-7-15)25(22,23)20-16-10-11-21(14-16)12-13-24-17-4-2-1-3-5-17/h1-9,16,20H,10-14H2

> <PUBCHEM_IUPAC_INCHIKEY>
LHMHWJFZTBPLDP-UHFFFAOYSA-N

> <PUBCHEM_XLOGP3_AA>
2.9

> <PUBCHEM_EXACT_MASS>
364.12569187

> <PUBCHEM_MOLECULAR_FORMULA>
C18H21FN2O3S

> <PUBCHEM_MOLECULAR_WEIGHT>
364.4

> <PUBCHEM_OPENEYE_CAN_SMILES>
C1CN(CC1NS(=O)(=O)C2=CC=C(C=C2)F)CCOC3=CC=CC=C3

> <PUBCHEM_OPENEYE_ISO_SMILES>
C1CN(CC1NS(=O)(=O)C2=CC=C(C=C2)F)CCOC3=CC=CC=C3

> <PUBCHEM_CACTVS_TPSA>
67

> <PUBCHEM_MONOISOTOPIC_WEIGHT>
364.12569187

> <PUBCHEM_TOTAL_CHARGE>
0

> <PUBCHEM_HEAVY_ATOM_COUNT>
25

> <PUBCHEM_ATOM_DEF_STEREO_COUNT>
0

> <PUBCHEM_ATOM_UDEF_STEREO_COUNT>
1

> <PUBCHEM_BOND_DEF_STEREO_COUNT>
0

> <PUBCHEM_BOND_UDEF_STEREO_COUNT>
0

> <PUBCHEM_ISOTOPIC_ATOM_COUNT>
0

> <PUBCHEM_COMPONENT_COUNT>
1

> <PUBCHEM_CACTVS_TAUTO_COUNT>
-1

> <PUBCHEM_COORDINATE_TYPE>
1
5
255

> <PUBCHEM_BONDANNOTATIONS>
14  15  8
14  16  8
15  18  8
16  19  8
17  21  8
17  22  8
18  20  8
19  20  8
21  23  8
22  24  8
23  25  8
24  25  8
8  7  3

$$$$
