73355415
  -OEChem-09292322342D

 44 53  0     1  0  0  0  0  0999 V2000
    5.4127    0.2516    0.0000 N   0  0  0  0  0  0  0  0  0  0  0  0
    7.0857    0.7000    0.0000 C   0  0  0  0  0  0  0  0  0  0  0  0
    7.0857    1.7000    0.0000 C   0  0  0  0  0  0  0  0  0  0  0  0
    8.0857    0.7000    0.0000 C   0  0  0  0  0  0  0  0  0  0  0  0
    7.4857    1.1000    0.0000 C   0  0  0  0  0  0  0  0  0  0  0  0
    8.0857    1.7000    0.0000 C   0  0  0  0  0  0  0  0  0  0  0  0
    7.4857    2.1000    0.0000 C   0  0  0  0  0  0  0  0  0  0  0  0
    8.4857    1.1000    0.0000 C   0  0  0  0  0  0  0  0  0  0  0  0
    8.4857    2.1000    0.0000 C   0  0  0  0  0  0  0  0  0  0  0  0
    6.3786   -0.0072    0.0000 C   0  0  0  0  0  0  0  0  0  0  0  0
    4.0186   -1.4838    0.0000 C   0  0  3  0  0  0  0  0  0  0  0  0
    4.9854   -1.4996    0.0000 C   0  0  3  0  0  0  0  0  0  0  0  0
    3.5796   -2.1000    0.0000 C   0  0  3  0  0  0  0  0  0  0  0  0
    3.7024   -0.0528    0.0000 C   0  0  3  0  0  0  0  0  0  0  0  0
    4.7056   -0.4555    0.0000 C   0  0  2  0  0  0  0  0  0  0  0  0
    4.6402   -2.0810    0.0000 C   0  0  3  0  0  0  0  0  0  0  0  0
    3.3763   -0.9743    0.0000 C   0  0  3  0  0  0  0  0  0  0  0  0
    2.8676   -1.4028    0.0000 C   0  0  3  0  0  0  0  0  0  0  0  0
    3.0356   -0.4865    0.0000 C   0  0  3  0  0  0  0  0  0  0  0  0
    2.0000   -1.5104    0.0000 C   0  0  0  0  0  0  0  0  0  0  0  0
    4.2378   -0.9222    0.0000 C   0  0  0  0  0  0  0  0  0  0  0  0
    6.5129    1.9372    0.0000 H   0  0  0  0  0  0  0  0  0  0  0  0
    8.3230    0.1271    0.0000 H   0  0  0  0  0  0  0  0  0  0  0  0
    6.9129    1.3372    0.0000 H   0  0  0  0  0  0  0  0  0  0  0  0
    8.6585    1.4627    0.0000 H   0  0  0  0  0  0  0  0  0  0  0  0
    7.2485    2.6728    0.0000 H   0  0  0  0  0  0  0  0  0  0  0  0
    9.0585    0.8627    0.0000 H   0  0  0  0  0  0  0  0  0  0  0  0
    8.9241    2.5384    0.0000 H   0  0  0  0  0  0  0  0  0  0  0  0
    6.1166   -0.5691    0.0000 H   0  0  0  0  0  0  0  0  0  0  0  0
    6.8865   -0.3628    0.0000 H   0  0  0  0  0  0  0  0  0  0  0  0
    4.2275   -0.9000    0.0000 H   0  0  0  0  0  0  0  0  0  0  0  0
    5.5996   -1.5843    0.0000 H   0  0  0  0  0  0  0  0  0  0  0  0
    3.3505   -2.6761    0.0000 H   0  0  0  0  0  0  0  0  0  0  0  0
    3.6421    0.5643    0.0000 H   0  0  0  0  0  0  0  0  0  0  0  0
    5.3045   -0.6159    0.0000 H   0  0  0  0  0  0  0  0  0  0  0  0
    4.9517   -2.6171    0.0000 H   0  0  0  0  0  0  0  0  0  0  0  0
    3.2839   -1.5874    0.0000 H   0  0  0  0  0  0  0  0  0  0  0  0
    2.6692   -1.9902    0.0000 H   0  0  0  0  0  0  0  0  0  0  0  0
    2.5196   -0.1427    0.0000 H   0  0  0  0  0  0  0  0  0  0  0  0
    5.2522    0.8505    0.0000 H   0  0  0  0  0  0  0  0  0  0  0  0
    1.5499   -1.0840    0.0000 H   0  0  0  0  0  0  0  0  0  0  0  0
    1.8065   -2.0994    0.0000 H   0  0  0  0  0  0  0  0  0  0  0  0
    4.8543   -0.8561    0.0000 H   0  0  0  0  0  0  0  0  0  0  0  0
    4.3123   -0.3067    0.0000 H   0  0  0  0  0  0  0  0  0  0  0  0
  1 10  1  0  0  0  0
  1 15  1  0  0  0  0
  1 40  1  0  0  0  0
  2  3  1  0  0  0  0
  2  4  1  0  0  0  0
  2  5  1  0  0  0  0
  2 10  1  0  0  0  0
  3  6  1  0  0  0  0
  3  7  1  0  0  0  0
  3 22  1  0  0  0  0
  4  6  1  0  0  0  0
  4  8  1  0  0  0  0
  4 23  1  0  0  0  0
  5  7  1  0  0  0  0
  5  8  1  0  0  0  0
  5 24  1  0  0  0  0
  6  9  1  0  0  0  0
  6 25  1  0  0  0  0
  7  9  1  0  0  0  0
  7 26  1  0  0  0  0
  8  9  1  0  0  0  0
  8 27  1  0  0  0  0
  9 28  1  0  0  0  0
 10 29  1  0  0  0  0
 10 30  1  0  0  0  0
 11 12  1  0  0  0  0
 11 13  1  0  0  0  0
 11 17  1  0  0  0  0
 11 31  1  0  0  0  0
 12 15  1  0  0  0  0
 12 16  1  0  0  0  0
 12 32  1  0  0  0  0
 13 16  1  0  0  0  0
 13 18  1  0  0  0  0
 13 33  1  0  0  0  0
 14 15  1  0  0  0  0
 14 17  1  0  0  0  0
 14 19  1  0  0  0  0
 14 34  1  0  0  0  0
 15 35  1  0  0  0  0
 16 21  1  0  0  0  0
 16 36  1  0  0  0  0
 17 20  1  0  0  0  0
 17 37  1  0  0  0  0
 18 19  1  0  0  0  0
 18 20  1  0  0  0  0
 18 38  1  0  0  0  0
 19 21  1  0  0  0  0
 19 39  1  0  0  0  0
 20 41  1  0  0  0  0
 20 42  1  0  0  0  0
 21 43  1  0  0  0  0
 21 44  1  0  0  0  0
M  END
> <PUBCHEM_COMPOUND_CID>
73355415

> <PUBCHEM_COMPOUND_CANONICALIZED>
1

> <PUBCHEM_CACTVS_COMPLEXITY>
625

> <PUBCHEM_CACTVS_HBOND_ACCEPTOR>
1

> <PUBCHEM_CACTVS_HBOND_DONOR>
1

> <PUBCHEM_CACTVS_ROTATABLE_BOND>
3

> <PUBCHEM_CACTVS_SUBSKEYS>
AAADceB6AAAAAAAAAAAAAAAAAABgwYMGDAAwAAAAAAAAAAAAAAAAHAAQAAAADyjBAAQAAALAAAAAAAAAAAAAAAAAAAAAAIAIAAAAAAIAgAAEAAAAEACAAAEQgMAPgAAAAAAAAACAAASAACQAASAACQAAAA==

> <PUBCHEM_IUPAC_OPENEYE_NAME>
(8S)-N-(cuban-1-ylmethyl)pentacyclo[5.4.0.02,6.03,10.05,9]undecan-8-amine

> <PUBCHEM_IUPAC_CAS_NAME>
(8S)-N-(1-cubanylmethyl)-8-pentacyclo[5.4.0.02,6.03,10.05,9]undecanamine

> <PUBCHEM_IUPAC_NAME_MARKUP>
(8<I>S</I>)-<I>N</I>-(cuban-1-ylmethyl)pentacyclo[5.4.0.0<SUP>2,6</SUP>.0<SUP>3,10</SUP>.0<SUP>5,9</SUP>]undecan-8-amine

> <PUBCHEM_IUPAC_NAME>
(8S)-N-(cuban-1-ylmethyl)pentacyclo[5.4.0.02,6.03,10.05,9]undecan-8-amine

> <PUBCHEM_IUPAC_SYSTEMATIC_NAME>
(8S)-N-(cuban-1-ylmethyl)pentacyclo[5.4.0.02,6.03,10.05,9]undecan-8-amine

> <PUBCHEM_IUPAC_TRADITIONAL_NAME>
cuban-1-ylmethyl-[(8S)-8-pentacyclo[5.4.0.02,6.03,10.05,9]undecanyl]amine

> <PUBCHEM_IUPAC_INCHI>
InChI=1S/C20H23N/c1-4-5-2-6-8(4)10-7(1)9(5)19(11(6)10)21-3-20-16-13-12-14(16)18(20)15(12)17(13)20/h4-19,21H,1-3H2/t4?,5?,6?,7?,8?,9?,10?,11?,12?,13?,14?,15?,16?,17?,18?,19-,20?/m0/s1

> <PUBCHEM_IUPAC_INCHIKEY>
CHZUEGVOEFMIJH-ZKRSMWHSSA-N

> <PUBCHEM_XLOGP3_AA>
2.7

> <PUBCHEM_EXACT_MASS>
277.183049738

> <PUBCHEM_MOLECULAR_FORMULA>
C20H23N

> <PUBCHEM_MOLECULAR_WEIGHT>
277.4

> <PUBCHEM_OPENEYE_CAN_SMILES>
C1C2C3CC4C2C5C1C3C(C45)NCC67C8C9C6C1C9C8C71

> <PUBCHEM_OPENEYE_ISO_SMILES>
C1C2C3CC4C2[C@@H](C5C1C3C45)NCC67C8C9C6C1C9C8C71

> <PUBCHEM_CACTVS_TPSA>
12

> <PUBCHEM_MONOISOTOPIC_WEIGHT>
277.183049738

> <PUBCHEM_TOTAL_CHARGE>
0

> <PUBCHEM_HEAVY_ATOM_COUNT>
21

> <PUBCHEM_ATOM_DEF_STEREO_COUNT>
1

> <PUBCHEM_ATOM_UDEF_STEREO_COUNT>
8

> <PUBCHEM_BOND_DEF_STEREO_COUNT>
0

> <PUBCHEM_BOND_UDEF_STEREO_COUNT>
0

> <PUBCHEM_ISOTOPIC_ATOM_COUNT>
0

> <PUBCHEM_COMPONENT_COUNT>
1

> <PUBCHEM_CACTVS_TAUTO_COUNT>
-1

> <PUBCHEM_COORDINATE_TYPE>
1
5
255

> <PUBCHEM_BONDANNOTATIONS>
11  17  3
12  15  3
13  18  3
14  15  3
16  21  3
17  20  3
18  20  3
19  21  3

$$$$
