19871273
  -OEChem-09292322332D

 33 34  0     0  0  0  0  0  0999 V2000
    2.0000   -1.9050    0.0000 Cl  0  0  0  0  0  0  0  0  0  0  0  0
    2.0000   -3.9050    0.0000 Cl  0  0  0  0  0  0  0  0  0  0  0  0
    4.5981    3.5950    0.0000 O   0  0  0  0  0  0  0  0  0  0  0  0
    3.7320    1.0950    0.0000 N   0  0  0  0  0  0  0  0  0  0  0  0
    3.7320   -0.9050    0.0000 N   0  0  0  0  0  0  0  0  0  0  0  0
    2.8660    0.5950    0.0000 C   0  0  0  0  0  0  0  0  0  0  0  0
    4.5981    0.5950    0.0000 C   0  0  0  0  0  0  0  0  0  0  0  0
    2.8660   -0.4050    0.0000 C   0  0  0  0  0  0  0  0  0  0  0  0
    4.5981   -0.4050    0.0000 C   0  0  0  0  0  0  0  0  0  0  0  0
    3.7320    2.0950    0.0000 C   0  0  0  0  0  0  0  0  0  0  0  0
    3.7320   -1.9050    0.0000 C   0  0  0  0  0  0  0  0  0  0  0  0
    4.5981    2.5950    0.0000 C   0  0  0  0  0  0  0  0  0  0  0  0
    2.8660   -2.4050    0.0000 C   0  0  0  0  0  0  0  0  0  0  0  0
    4.5981   -2.4050    0.0000 C   0  0  0  0  0  0  0  0  0  0  0  0
    2.8660   -3.4050    0.0000 C   0  0  0  0  0  0  0  0  0  0  0  0
    4.5981   -3.4050    0.0000 C   0  0  0  0  0  0  0  0  0  0  0  0
    3.7320   -3.9050    0.0000 C   0  0  0  0  0  0  0  0  0  0  0  0
    2.6540    1.1776    0.0000 H   0  0  0  0  0  0  0  0  0  0  0  0
    2.2554    0.4873    0.0000 H   0  0  0  0  0  0  0  0  0  0  0  0
    5.2087    0.4873    0.0000 H   0  0  0  0  0  0  0  0  0  0  0  0
    4.8101    1.1776    0.0000 H   0  0  0  0  0  0  0  0  0  0  0  0
    2.2554   -0.2973    0.0000 H   0  0  0  0  0  0  0  0  0  0  0  0
    2.6540   -0.9876    0.0000 H   0  0  0  0  0  0  0  0  0  0  0  0
    4.8101   -0.9876    0.0000 H   0  0  0  0  0  0  0  0  0  0  0  0
    5.2087   -0.2973    0.0000 H   0  0  0  0  0  0  0  0  0  0  0  0
    3.5200    2.6776    0.0000 H   0  0  0  0  0  0  0  0  0  0  0  0
    3.1215    1.9873    0.0000 H   0  0  0  0  0  0  0  0  0  0  0  0
    4.8101    2.0124    0.0000 H   0  0  0  0  0  0  0  0  0  0  0  0
    5.2087    2.7027    0.0000 H   0  0  0  0  0  0  0  0  0  0  0  0
    5.1350   -2.0950    0.0000 H   0  0  0  0  0  0  0  0  0  0  0  0
    5.1350   -3.7150    0.0000 H   0  0  0  0  0  0  0  0  0  0  0  0
    3.7320   -4.5250    0.0000 H   0  0  0  0  0  0  0  0  0  0  0  0
    5.1350    3.9050    0.0000 H   0  0  0  0  0  0  0  0  0  0  0  0
  1 13  1  0  0  0  0
  2 15  1  0  0  0  0
  3 12  1  0  0  0  0
  3 33  1  0  0  0  0
  4  6  1  0  0  0  0
  4  7  1  0  0  0  0
  4 10  1  0  0  0  0
  5  8  1  0  0  0  0
  5  9  1  0  0  0  0
  5 11  1  0  0  0  0
  6  8  1  0  0  0  0
  6 18  1  0  0  0  0
  6 19  1  0  0  0  0
  7  9  1  0  0  0  0
  7 20  1  0  0  0  0
  7 21  1  0  0  0  0
  8 22  1  0  0  0  0
  8 23  1  0  0  0  0
  9 24  1  0  0  0  0
  9 25  1  0  0  0  0
 10 12  1  0  0  0  0
 10 26  1  0  0  0  0
 10 27  1  0  0  0  0
 11 13  2  0  0  0  0
 11 14  1  0  0  0  0
 12 28  1  0  0  0  0
 12 29  1  0  0  0  0
 13 15  1  0  0  0  0
 14 16  2  0  0  0  0
 14 30  1  0  0  0  0
 15 17  2  0  0  0  0
 16 17  1  0  0  0  0
 16 31  1  0  0  0  0
 17 32  1  0  0  0  0
M  END
> <PUBCHEM_COMPOUND_CID>
19871273

> <PUBCHEM_COMPOUND_CANONICALIZED>
1

> <PUBCHEM_CACTVS_COMPLEXITY>
235

> <PUBCHEM_CACTVS_HBOND_ACCEPTOR>
3

> <PUBCHEM_CACTVS_HBOND_DONOR>
1

> <PUBCHEM_CACTVS_ROTATABLE_BOND>
3

> <PUBCHEM_CACTVS_SUBSKEYS>
AAADceBzIAAGAAAAAAAAAAAAAAAAAAAAAAA8QAAAAAAAAAABAAAAHgIACAAACArhkCYwwIMAAgCAACRCQACCAAAhBwAIikAIZogKcCLBk5HUIAhggADYyAcQAAAAAAAAAAIAABQAAAAABAAAKAAAAAAAAA==

> <PUBCHEM_IUPAC_OPENEYE_NAME>
2-[4-(2,3-dichlorophenyl)piperazin-1-yl]ethanol

> <PUBCHEM_IUPAC_CAS_NAME>
2-[4-(2,3-dichlorophenyl)-1-piperazinyl]ethanol

> <PUBCHEM_IUPAC_NAME_MARKUP>
2-[4-(2,3-dichlorophenyl)piperazin-1-yl]ethanol

> <PUBCHEM_IUPAC_NAME>
2-[4-(2,3-dichlorophenyl)piperazin-1-yl]ethanol

> <PUBCHEM_IUPAC_SYSTEMATIC_NAME>
2-[4-[2,3-bis(chloranyl)phenyl]piperazin-1-yl]ethanol

> <PUBCHEM_IUPAC_TRADITIONAL_NAME>
2-[4-(2,3-dichlorophenyl)piperazino]ethanol

> <PUBCHEM_IUPAC_INCHI>
InChI=1S/C12H16Cl2N2O/c13-10-2-1-3-11(12(10)14)16-6-4-15(5-7-16)8-9-17/h1-3,17H,4-9H2

> <PUBCHEM_IUPAC_INCHIKEY>
HMSZCGYHVDSIIK-UHFFFAOYSA-N

> <PUBCHEM_XLOGP3_AA>
2.4

> <PUBCHEM_EXACT_MASS>
274.0639685

> <PUBCHEM_MOLECULAR_FORMULA>
C12H16Cl2N2O

> <PUBCHEM_MOLECULAR_WEIGHT>
275.17

> <PUBCHEM_OPENEYE_CAN_SMILES>
C1CN(CCN1CCO)C2=C(C(=CC=C2)Cl)Cl

> <PUBCHEM_OPENEYE_ISO_SMILES>
C1CN(CCN1CCO)C2=C(C(=CC=C2)Cl)Cl

> <PUBCHEM_CACTVS_TPSA>
26.7

> <PUBCHEM_MONOISOTOPIC_WEIGHT>
274.0639685

> <PUBCHEM_TOTAL_CHARGE>
0

> <PUBCHEM_HEAVY_ATOM_COUNT>
17

> <PUBCHEM_ATOM_DEF_STEREO_COUNT>
0

> <PUBCHEM_ATOM_UDEF_STEREO_COUNT>
0

> <PUBCHEM_BOND_DEF_STEREO_COUNT>
0

> <PUBCHEM_BOND_UDEF_STEREO_COUNT>
0

> <PUBCHEM_ISOTOPIC_ATOM_COUNT>
0

> <PUBCHEM_COMPONENT_COUNT>
1

> <PUBCHEM_CACTVS_TAUTO_COUNT>
-1

> <PUBCHEM_COORDINATE_TYPE>
1
5
255

> <PUBCHEM_BONDANNOTATIONS>
11  13  8
11  14  8
13  15  8
14  16  8
15  17  8
16  17  8

$$$$
