10624682
  -OEChem-09292322522D

 69 72  0     0  0  0  0  0  0999 V2000
    3.7320    6.3776    0.0000 F   0  0  0  0  0  0  0  0  0  0  0  0
    5.4641    3.3776    0.0000 O   0  0  0  0  0  0  0  0  0  0  0  0
    3.7320   -2.6224    0.0000 O   0  0  0  0  0  0  0  0  0  0  0  0
    3.7320    0.3776    0.0000 N   0  0  0  0  0  0  0  0  0  0  0  0
    3.7320    2.3776    0.0000 N   0  0  0  0  0  0  0  0  0  0  0  0
    5.4641   -2.6224    0.0000 N   0  0  0  0  0  0  0  0  0  0  0  0
    7.2764   -5.4271    0.0000 N   0  0  0  0  0  0  0  0  0  0  0  0
    5.4641   -5.6224    0.0000 N   0  0  0  0  0  0  0  0  0  0  0  0
    7.8600   -4.6224    0.0000 N   0  0  0  0  0  0  0  0  0  0  0  0
    2.8660   -4.1224    0.0000 N   0  0  0  0  0  0  0  0  0  0  0  0
    2.8660    0.8776    0.0000 C   0  0  0  0  0  0  0  0  0  0  0  0
    4.5981    0.8776    0.0000 C   0  0  0  0  0  0  0  0  0  0  0  0
    2.8660    1.8776    0.0000 C   0  0  0  0  0  0  0  0  0  0  0  0
    4.5981    1.8776    0.0000 C   0  0  0  0  0  0  0  0  0  0  0  0
    3.7320   -0.6224    0.0000 C   0  0  0  0  0  0  0  0  0  0  0  0
    4.5981   -1.1224    0.0000 C   0  0  0  0  0  0  0  0  0  0  0  0
    3.7320    3.3776    0.0000 C   0  0  0  0  0  0  0  0  0  0  0  0
    4.5981   -2.1224    0.0000 C   0  0  0  0  0  0  0  0  0  0  0  0
    4.5981    3.8776    0.0000 C   0  0  0  0  0  0  0  0  0  0  0  0
    2.8660    3.8776    0.0000 C   0  0  0  0  0  0  0  0  0  0  0  0
    5.4641   -3.6224    0.0000 C   0  0  0  0  0  0  0  0  0  0  0  0
    6.3301   -4.1224    0.0000 C   0  0  0  0  0  0  0  0  0  0  0  0
    4.5981    4.8776    0.0000 C   0  0  0  0  0  0  0  0  0  0  0  0
    4.5981   -4.1224    0.0000 C   0  0  0  0  0  0  0  0  0  0  0  0
    2.8660    4.8776    0.0000 C   0  0  0  0  0  0  0  0  0  0  0  0
    6.3301   -5.1224    0.0000 C   0  0  0  0  0  0  0  0  0  0  0  0
    7.2764   -3.8176    0.0000 C   0  0  0  0  0  0  0  0  0  0  0  0
    3.7320    5.3776    0.0000 C   0  0  0  0  0  0  0  0  0  0  0  0
    4.5981   -5.1224    0.0000 C   0  0  0  0  0  0  0  0  0  0  0  0
    3.7320   -3.6224    0.0000 C   0  0  0  0  0  0  0  0  0  0  0  0
    7.5870   -2.8671    0.0000 C   0  0  0  0  0  0  0  0  0  0  0  0
    7.5870   -6.3776    0.0000 C   0  0  0  0  0  0  0  0  0  0  0  0
    6.3301    3.8776    0.0000 C   0  0  0  0  0  0  0  0  0  0  0  0
    2.0000   -3.6224    0.0000 C   0  0  0  0  0  0  0  0  0  0  0  0
    2.8660   -5.1224    0.0000 C   0  0  0  0  0  0  0  0  0  0  0  0
    2.2554    0.9853    0.0000 H   0  0  0  0  0  0  0  0  0  0  0  0
    2.6540    0.2950    0.0000 H   0  0  0  0  0  0  0  0  0  0  0  0
    4.8101    0.2950    0.0000 H   0  0  0  0  0  0  0  0  0  0  0  0
    5.2087    0.9853    0.0000 H   0  0  0  0  0  0  0  0  0  0  0  0
    2.6540    2.4602    0.0000 H   0  0  0  0  0  0  0  0  0  0  0  0
    2.2554    1.7700    0.0000 H   0  0  0  0  0  0  0  0  0  0  0  0
    5.2087    1.7700    0.0000 H   0  0  0  0  0  0  0  0  0  0  0  0
    4.8101    2.4602    0.0000 H   0  0  0  0  0  0  0  0  0  0  0  0
    3.1215   -0.5147    0.0000 H   0  0  0  0  0  0  0  0  0  0  0  0
    3.5200   -1.2050    0.0000 H   0  0  0  0  0  0  0  0  0  0  0  0
    5.2087   -1.2300    0.0000 H   0  0  0  0  0  0  0  0  0  0  0  0
    4.8101   -0.5398    0.0000 H   0  0  0  0  0  0  0  0  0  0  0  0
    3.9875   -2.0147    0.0000 H   0  0  0  0  0  0  0  0  0  0  0  0
    4.3860   -2.7050    0.0000 H   0  0  0  0  0  0  0  0  0  0  0  0
    6.0010   -2.3124    0.0000 H   0  0  0  0  0  0  0  0  0  0  0  0
    2.3291    3.5676    0.0000 H   0  0  0  0  0  0  0  0  0  0  0  0
    5.1350    5.1876    0.0000 H   0  0  0  0  0  0  0  0  0  0  0  0
    2.3291    5.1876    0.0000 H   0  0  0  0  0  0  0  0  0  0  0  0
    4.0611   -5.4324    0.0000 H   0  0  0  0  0  0  0  0  0  0  0  0
    8.1763   -3.0597    0.0000 H   0  0  0  0  0  0  0  0  0  0  0  0
    7.7796   -2.2778    0.0000 H   0  0  0  0  0  0  0  0  0  0  0  0
    6.9977   -2.6745    0.0000 H   0  0  0  0  0  0  0  0  0  0  0  0
    6.9977   -6.5702    0.0000 H   0  0  0  0  0  0  0  0  0  0  0  0
    7.7796   -6.9670    0.0000 H   0  0  0  0  0  0  0  0  0  0  0  0
    8.1763   -6.1850    0.0000 H   0  0  0  0  0  0  0  0  0  0  0  0
    6.6401    3.3407    0.0000 H   0  0  0  0  0  0  0  0  0  0  0  0
    6.8671    4.1876    0.0000 H   0  0  0  0  0  0  0  0  0  0  0  0
    6.0201    4.4146    0.0000 H   0  0  0  0  0  0  0  0  0  0  0  0
    2.3100   -3.0854    0.0000 H   0  0  0  0  0  0  0  0  0  0  0  0
    1.4631   -3.3124    0.0000 H   0  0  0  0  0  0  0  0  0  0  0  0
    1.6900   -4.1593    0.0000 H   0  0  0  0  0  0  0  0  0  0  0  0
    2.2460   -5.1224    0.0000 H   0  0  0  0  0  0  0  0  0  0  0  0
    2.8660   -5.7424    0.0000 H   0  0  0  0  0  0  0  0  0  0  0  0
    3.4860   -5.1224    0.0000 H   0  0  0  0  0  0  0  0  0  0  0  0
  1 28  1  0  0  0  0
  2 19  1  0  0  0  0
  2 33  1  0  0  0  0
  3 30  2  0  0  0  0
  4 11  1  0  0  0  0
  4 12  1  0  0  0  0
  4 15  1  0  0  0  0
  5 13  1  0  0  0  0
  5 14  1  0  0  0  0
  5 17  1  0  0  0  0
  6 18  1  0  0  0  0
  6 21  1  0  0  0  0
  6 50  1  0  0  0  0
  7  9  1  0  0  0  0
  7 26  1  0  0  0  0
  7 32  1  0  0  0  0
  8 26  2  0  0  0  0
  8 29  1  0  0  0  0
  9 27  2  0  0  0  0
 10 30  1  0  0  0  0
 10 34  1  0  0  0  0
 10 35  1  0  0  0  0
 11 13  1  0  0  0  0
 11 36  1  0  0  0  0
 11 37  1  0  0  0  0
 12 14  1  0  0  0  0
 12 38  1  0  0  0  0
 12 39  1  0  0  0  0
 13 40  1  0  0  0  0
 13 41  1  0  0  0  0
 14 42  1  0  0  0  0
 14 43  1  0  0  0  0
 15 16  1  0  0  0  0
 15 44  1  0  0  0  0
 15 45  1  0  0  0  0
 16 18  1  0  0  0  0
 16 46  1  0  0  0  0
 16 47  1  0  0  0  0
 17 19  2  0  0  0  0
 17 20  1  0  0  0  0
 18 48  1  0  0  0  0
 18 49  1  0  0  0  0
 19 23  1  0  0  0  0
 20 25  2  0  0  0  0
 20 51  1  0  0  0  0
 21 22  2  0  0  0  0
 21 24  1  0  0  0  0
 22 26  1  0  0  0  0
 22 27  1  0  0  0  0
 23 28  2  0  0  0  0
 23 52  1  0  0  0  0
 24 29  2  0  0  0  0
 24 30  1  0  0  0  0
 25 28  1  0  0  0  0
 25 53  1  0  0  0  0
 27 31  1  0  0  0  0
 29 54  1  0  0  0  0
 31 55  1  0  0  0  0
 31 56  1  0  0  0  0
 31 57  1  0  0  0  0
 32 58  1  0  0  0  0
 32 59  1  0  0  0  0
 32 60  1  0  0  0  0
 33 61  1  0  0  0  0
 33 62  1  0  0  0  0
 33 63  1  0  0  0  0
 34 64  1  0  0  0  0
 34 65  1  0  0  0  0
 34 66  1  0  0  0  0
 35 67  1  0  0  0  0
 35 68  1  0  0  0  0
 35 69  1  0  0  0  0
M  END
> <PUBCHEM_COMPOUND_CID>
10624682

> <PUBCHEM_COMPOUND_CANONICALIZED>
1

> <PUBCHEM_CACTVS_COMPLEXITY>
693

> <PUBCHEM_CACTVS_HBOND_ACCEPTOR>
8

> <PUBCHEM_CACTVS_HBOND_DONOR>
1

> <PUBCHEM_CACTVS_ROTATABLE_BOND>
8

> <PUBCHEM_CACTVS_SUBSKEYS>
AAADcfB7sQAAAAAAAAAAAAAAAAAAAWAAAAA8WIAAAAAAAFgB/AAAHwAYAAAADAzBnw4/9t/IFACqAzd3dACSjCs1oqAd2KE/bNiObnrE/duVtahs2hPY6eeYSQAeAAAAAAAAEAAAAAAAAAAgAAAAAAAAAA==

> <PUBCHEM_IUPAC_OPENEYE_NAME>
4-[3-[4-(4-fluoro-2-methoxy-phenyl)piperazin-1-yl]propylamino]-N,N,1,3-tetramethyl-pyrazolo[3,4-b]pyridine-5-carboxamide

> <PUBCHEM_IUPAC_CAS_NAME>
4-[3-[4-(4-fluoro-2-methoxyphenyl)-1-piperazinyl]propylamino]-N,N,1,3-tetramethyl-5-pyrazolo[3,4-b]pyridinecarboxamide

> <PUBCHEM_IUPAC_NAME_MARKUP>
4-[3-[4-(4-fluoro-2-methoxyphenyl)piperazin-1-yl]propylamino]-<I>N</I>,<I>N</I>,1,3-tetramethylpyrazolo[3,4-b]pyridine-5-carboxamide

> <PUBCHEM_IUPAC_NAME>
4-[3-[4-(4-fluoro-2-methoxyphenyl)piperazin-1-yl]propylamino]-N,N,1,3-tetramethylpyrazolo[3,4-b]pyridine-5-carboxamide

> <PUBCHEM_IUPAC_SYSTEMATIC_NAME>
4-[3-[4-(4-fluoranyl-2-methoxy-phenyl)piperazin-1-yl]propylamino]-N,N,1,3-tetramethyl-pyrazolo[3,4-b]pyridine-5-carboxamide

> <PUBCHEM_IUPAC_TRADITIONAL_NAME>
4-[3-[4-(4-fluoro-2-methoxy-phenyl)piperazino]propylamino]-N,N,1,3-tetramethyl-pyrazolo[3,4-b]pyridine-5-carboxamide

> <PUBCHEM_IUPAC_INCHI>
InChI=1S/C25H34FN7O2/c1-17-22-23(19(25(34)30(2)3)16-28-24(22)31(4)29-17)27-9-6-10-32-11-13-33(14-12-32)20-8-7-18(26)15-21(20)35-5/h7-8,15-16H,6,9-14H2,1-5H3,(H,27,28)

> <PUBCHEM_IUPAC_INCHIKEY>
JEHYIUUKVDHKND-UHFFFAOYSA-N

> <PUBCHEM_XLOGP3_AA>
3.3

> <PUBCHEM_EXACT_MASS>
483.27580151

> <PUBCHEM_MOLECULAR_FORMULA>
C25H34FN7O2

> <PUBCHEM_MOLECULAR_WEIGHT>
483.6

> <PUBCHEM_OPENEYE_CAN_SMILES>
CC1=NN(C2=NC=C(C(=C12)NCCCN3CCN(CC3)C4=C(C=C(C=C4)F)OC)C(=O)N(C)C)C

> <PUBCHEM_OPENEYE_ISO_SMILES>
CC1=NN(C2=NC=C(C(=C12)NCCCN3CCN(CC3)C4=C(C=C(C=C4)F)OC)C(=O)N(C)C)C

> <PUBCHEM_CACTVS_TPSA>
78.8

> <PUBCHEM_MONOISOTOPIC_WEIGHT>
483.27580151

> <PUBCHEM_TOTAL_CHARGE>
0

> <PUBCHEM_HEAVY_ATOM_COUNT>
35

> <PUBCHEM_ATOM_DEF_STEREO_COUNT>
0

> <PUBCHEM_ATOM_UDEF_STEREO_COUNT>
0

> <PUBCHEM_BOND_DEF_STEREO_COUNT>
0

> <PUBCHEM_BOND_UDEF_STEREO_COUNT>
0

> <PUBCHEM_ISOTOPIC_ATOM_COUNT>
0

> <PUBCHEM_COMPONENT_COUNT>
1

> <PUBCHEM_CACTVS_TAUTO_COUNT>
-1

> <PUBCHEM_COORDINATE_TYPE>
1
5
255

> <PUBCHEM_BONDANNOTATIONS>
17  19  8
17  20  8
19  23  8
20  25  8
21  22  8
21  24  8
22  26  8
22  27  8
23  28  8
24  29  8
25  28  8
7  26  8
7  9  8
8  26  8
8  29  8
9  27  8

$$$$
