10115074
  -OEChem-09292322192D

 64 68  0     1  0  0  0  0  0999 V2000
    2.4378    5.4399    0.0000 Cl  0  0  0  0  0  0  0  0  0  0  0  0
    2.3161   -2.1777    0.0000 O   0  0  0  0  0  0  0  0  0  0  0  0
    4.1734    1.8360    0.0000 O   0  0  0  0  0  0  0  0  0  0  0  0
    3.5135   -3.3752    0.0000 N   0  0  0  0  0  0  0  0  0  0  0  0
    3.4806   -0.7175    0.0000 N   0  0  0  0  0  0  0  0  0  0  0  0
    2.6128    1.0845    0.0000 N   0  0  0  0  0  0  0  0  0  0  0  0
    2.8665   -4.1232    0.0000 C   0  0  0  0  0  0  0  0  0  0  0  0
    3.9145   -1.6184    0.0000 C   0  0  3  0  0  0  0  0  0  0  0  0
    3.3422   -4.9902    0.0000 C   0  0  0  0  0  0  0  0  0  0  0  0
    4.4145   -3.8091    0.0000 C   0  0  0  0  0  0  0  0  0  0  0  0
    4.3206   -4.8465    0.0000 C   0  0  0  0  0  0  0  0  0  0  0  0
    4.9145   -1.6184    0.0000 C   0  0  0  0  0  0  0  0  0  0  0  0
    3.2910   -2.4003    0.0000 C   0  0  0  0  0  0  0  0  0  0  0  0
    5.3154   -3.3752    0.0000 C   0  0  0  0  0  0  0  0  0  0  0  0
    5.5380   -2.4003    0.0000 C   0  0  0  0  0  0  0  0  0  0  0  0
    2.4834   -0.6427    0.0000 C   0  0  0  0  0  0  0  0  0  0  0  0
    4.0439    0.1088    0.0000 C   0  0  0  0  0  0  0  0  0  0  0  0
    2.0000   -4.6223    0.0000 C   0  0  0  0  0  0  0  0  0  0  0  0
    2.1240   -3.4533    0.0000 C   0  0  0  0  0  0  0  0  0  0  0  0
    2.0495    0.2582    0.0000 C   0  0  0  0  0  0  0  0  0  0  0  0
    3.6100    1.0097    0.0000 C   0  0  0  0  0  0  0  0  0  0  0  0
    5.1767   -5.4399    0.0000 C   0  0  0  0  0  0  0  0  0  0  0  0
    6.1850   -3.9486    0.0000 C   0  0  0  0  0  0  0  0  0  0  0  0
    6.1152   -4.9879    0.0000 C   0  0  0  0  0  0  0  0  0  0  0  0
    2.1790    1.9854    0.0000 C   0  0  0  0  0  0  0  0  0  0  0  0
    2.7423    2.8117    0.0000 C   0  0  0  0  0  0  0  0  0  0  0  0
    3.7395    2.7370    0.0000 C   0  0  0  0  0  0  0  0  0  0  0  0
    2.3084    3.7126    0.0000 C   0  0  0  0  0  0  0  0  0  0  0  0
    4.3028    3.5632    0.0000 C   0  0  0  0  0  0  0  0  0  0  0  0
    2.8717    4.5389    0.0000 C   0  0  0  0  0  0  0  0  0  0  0  0
    3.8689    4.4642    0.0000 C   0  0  0  0  0  0  0  0  0  0  0  0
    5.1706    1.7612    0.0000 C   0  0  0  0  0  0  0  0  0  0  0  0
    4.2443   -1.0935    0.0000 H   0  0  0  0  0  0  0  0  0  0  0  0
    2.7671   -5.2220    0.0000 H   0  0  0  0  0  0  0  0  0  0  0  0
    3.5043   -5.5887    0.0000 H   0  0  0  0  0  0  0  0  0  0  0  0
    5.4731   -1.3494    0.0000 H   0  0  0  0  0  0  0  0  0  0  0  0
    4.7765   -1.0140    0.0000 H   0  0  0  0  0  0  0  0  0  0  0  0
    6.0966   -2.6693    0.0000 H   0  0  0  0  0  0  0  0  0  0  0  0
    5.9245   -1.9155    0.0000 H   0  0  0  0  0  0  0  0  0  0  0  0
    1.8866   -0.8107    0.0000 H   0  0  0  0  0  0  0  0  0  0  0  0
    2.5451   -1.2596    0.0000 H   0  0  0  0  0  0  0  0  0  0  0  0
    4.4878   -0.3241    0.0000 H   0  0  0  0  0  0  0  0  0  0  0  0
    4.5473    0.4707    0.0000 H   0  0  0  0  0  0  0  0  0  0  0  0
    1.6905   -4.0851    0.0000 H   0  0  0  0  0  0  0  0  0  0  0  0
    1.4628   -4.9318    0.0000 H   0  0  0  0  0  0  0  0  0  0  0  0
    2.3095   -5.1595    0.0000 H   0  0  0  0  0  0  0  0  0  0  0  0
    2.5393   -2.9930    0.0000 H   0  0  0  0  0  0  0  0  0  0  0  0
    1.6637   -3.0380    0.0000 H   0  0  0  0  0  0  0  0  0  0  0  0
    1.7087   -3.9136    0.0000 H   0  0  0  0  0  0  0  0  0  0  0  0
    1.6057    0.6911    0.0000 H   0  0  0  0  0  0  0  0  0  0  0  0
    1.5461   -0.1037    0.0000 H   0  0  0  0  0  0  0  0  0  0  0  0
    4.2069    1.1777    0.0000 H   0  0  0  0  0  0  0  0  0  0  0  0
    3.5483    1.6267    0.0000 H   0  0  0  0  0  0  0  0  0  0  0  0
    5.1280   -6.0579    0.0000 H   0  0  0  0  0  0  0  0  0  0  0  0
    6.7405   -3.6732    0.0000 H   0  0  0  0  0  0  0  0  0  0  0  0
    6.6288   -5.3352    0.0000 H   0  0  0  0  0  0  0  0  0  0  0  0
    1.7351    2.4184    0.0000 H   0  0  0  0  0  0  0  0  0  0  0  0
    1.6756    1.6235    0.0000 H   0  0  0  0  0  0  0  0  0  0  0  0
    1.6901    3.7590    0.0000 H   0  0  0  0  0  0  0  0  0  0  0  0
    4.9211    3.5169    0.0000 H   0  0  0  0  0  0  0  0  0  0  0  0
    4.2182    4.9764    0.0000 H   0  0  0  0  0  0  0  0  0  0  0  0
    5.1242    1.1430    0.0000 H   0  0  0  0  0  0  0  0  0  0  0  0
    5.7888    1.7149    0.0000 H   0  0  0  0  0  0  0  0  0  0  0  0
    5.2169    2.3795    0.0000 H   0  0  0  0  0  0  0  0  0  0  0  0
  1 30  1  0  0  0  0
  2 13  2  0  0  0  0
  3 27  1  0  0  0  0
  3 32  1  0  0  0  0
  4  7  1  0  0  0  0
  4 10  1  0  0  0  0
  4 13  1  0  0  0  0
  5  8  1  0  0  0  0
  5 16  1  0  0  0  0
  5 17  1  0  0  0  0
  6 20  1  0  0  0  0
  6 21  1  0  0  0  0
  6 25  1  0  0  0  0
  7  9  1  0  0  0  0
  7 18  1  0  0  0  0
  7 19  1  0  0  0  0
  8 12  1  0  0  0  0
  8 13  1  0  0  0  0
  8 33  1  0  0  0  0
  9 11  1  0  0  0  0
  9 34  1  0  0  0  0
  9 35  1  0  0  0  0
 10 11  1  0  0  0  0
 10 14  2  0  0  0  0
 11 22  2  0  0  0  0
 12 15  1  0  0  0  0
 12 36  1  0  0  0  0
 12 37  1  0  0  0  0
 14 15  1  0  0  0  0
 14 23  1  0  0  0  0
 15 38  1  0  0  0  0
 15 39  1  0  0  0  0
 16 20  1  0  0  0  0
 16 40  1  0  0  0  0
 16 41  1  0  0  0  0
 17 21  1  0  0  0  0
 17 42  1  0  0  0  0
 17 43  1  0  0  0  0
 18 44  1  0  0  0  0
 18 45  1  0  0  0  0
 18 46  1  0  0  0  0
 19 47  1  0  0  0  0
 19 48  1  0  0  0  0
 19 49  1  0  0  0  0
 20 50  1  0  0  0  0
 20 51  1  0  0  0  0
 21 52  1  0  0  0  0
 21 53  1  0  0  0  0
 22 24  1  0  0  0  0
 22 54  1  0  0  0  0
 23 24  2  0  0  0  0
 23 55  1  0  0  0  0
 24 56  1  0  0  0  0
 25 26  1  0  0  0  0
 25 57  1  0  0  0  0
 25 58  1  0  0  0  0
 26 27  2  0  0  0  0
 26 28  1  0  0  0  0
 27 29  1  0  0  0  0
 28 30  2  0  0  0  0
 28 59  1  0  0  0  0
 29 31  2  0  0  0  0
 29 60  1  0  0  0  0
 30 31  1  0  0  0  0
 31 61  1  0  0  0  0
 32 62  1  0  0  0  0
 32 63  1  0  0  0  0
 32 64  1  0  0  0  0
M  END
> <PUBCHEM_COMPOUND_CID>
10115074

> <PUBCHEM_COMPOUND_CANONICALIZED>
1

> <PUBCHEM_CACTVS_COMPLEXITY>
680

> <PUBCHEM_CACTVS_HBOND_ACCEPTOR>
4

> <PUBCHEM_CACTVS_HBOND_DONOR>
0

> <PUBCHEM_CACTVS_ROTATABLE_BOND>
4

> <PUBCHEM_CACTVS_SUBSKEYS>
AAADcfB7MAAEAAAAAAAAAAAAAAAAAWAAAAA8YIAABYAAAFixQAAAHgIAAAAADK7BmCYyxoMABACIAiVSUACCCAAhJQAIiAGOTogMZjLFs7uUMChmxBHI6AeYyOCOACACIAAKAAAAQARAABQAAAAAAAAAAA==

> <PUBCHEM_IUPAC_OPENEYE_NAME>
11-[4-[(5-chloro-2-methoxy-phenyl)methyl]piperazin-1-yl]-2,2-dimethyl-1-azatricyclo[6.4.1.04,13]trideca-4,6,8(13)-trien-12-one

> <PUBCHEM_IUPAC_CAS_NAME>
11-[4-[(5-chloro-2-methoxyphenyl)methyl]-1-piperazinyl]-2,2-dimethyl-1-azatricyclo[6.4.1.04,13]trideca-4,6,8(13)-trien-12-one

> <PUBCHEM_IUPAC_NAME_MARKUP>
11-[4-[(5-chloro-2-methoxyphenyl)methyl]piperazin-1-yl]-2,2-dimethyl-1-azatricyclo[6.4.1.0<SUP>4,13</SUP>]trideca-4,6,8(13)-trien-12-one

> <PUBCHEM_IUPAC_NAME>
11-[4-[(5-chloro-2-methoxyphenyl)methyl]piperazin-1-yl]-2,2-dimethyl-1-azatricyclo[6.4.1.04,13]trideca-4,6,8(13)-trien-12-one

> <PUBCHEM_IUPAC_SYSTEMATIC_NAME>
11-[4-[(5-chloranyl-2-methoxy-phenyl)methyl]piperazin-1-yl]-2,2-dimethyl-1-azatricyclo[6.4.1.04,13]trideca-4,6,8(13)-trien-12-one

> <PUBCHEM_IUPAC_TRADITIONAL_NAME>
11-[4-(5-chloro-2-methoxy-benzyl)piperazino]-2,2-dimethyl-1-azatricyclo[6.4.1.04,13]trideca-4,6,8(13)-trien-12-one

> <PUBCHEM_IUPAC_INCHI>
InChI=1S/C26H32ClN3O2/c1-26(2)16-19-6-4-5-18-7-9-22(25(31)30(26)24(18)19)29-13-11-28(12-14-29)17-20-15-21(27)8-10-23(20)32-3/h4-6,8,10,15,22H,7,9,11-14,16-17H2,1-3H3

> <PUBCHEM_IUPAC_INCHIKEY>
BTFSLEXEAAFSHO-UHFFFAOYSA-N

> <PUBCHEM_XLOGP3_AA>
4.3

> <PUBCHEM_EXACT_MASS>
453.2183050

> <PUBCHEM_MOLECULAR_FORMULA>
C26H32ClN3O2

> <PUBCHEM_MOLECULAR_WEIGHT>
454.0

> <PUBCHEM_OPENEYE_CAN_SMILES>
CC1(CC2=CC=CC3=C2N1C(=O)C(CC3)N4CCN(CC4)CC5=C(C=CC(=C5)Cl)OC)C

> <PUBCHEM_OPENEYE_ISO_SMILES>
CC1(CC2=CC=CC3=C2N1C(=O)C(CC3)N4CCN(CC4)CC5=C(C=CC(=C5)Cl)OC)C

> <PUBCHEM_CACTVS_TPSA>
36

> <PUBCHEM_MONOISOTOPIC_WEIGHT>
453.2183050

> <PUBCHEM_TOTAL_CHARGE>
0

> <PUBCHEM_HEAVY_ATOM_COUNT>
32

> <PUBCHEM_ATOM_DEF_STEREO_COUNT>
0

> <PUBCHEM_ATOM_UDEF_STEREO_COUNT>
1

> <PUBCHEM_BOND_DEF_STEREO_COUNT>
0

> <PUBCHEM_BOND_UDEF_STEREO_COUNT>
0

> <PUBCHEM_ISOTOPIC_ATOM_COUNT>
0

> <PUBCHEM_COMPONENT_COUNT>
1

> <PUBCHEM_CACTVS_TAUTO_COUNT>
-1

> <PUBCHEM_COORDINATE_TYPE>
1
5
255

> <PUBCHEM_BONDANNOTATIONS>
10  11  8
10  14  8
11  22  8
14  23  8
22  24  8
23  24  8
26  27  8
26  28  8
27  29  8
28  30  8
29  31  8
30  31  8
8  5  3

$$$$
