25107516
  -OEChem-09292322232D

 71 74  0     0  0  0  0  0  0999 V2000
    6.3981   -0.5173    0.0000 O   0  0  0  0  0  0  0  0  0  0  0  0
   11.5942    0.4827    0.0000 N   0  0  0  0  0  0  0  0  0  0  0  0
   13.3263   -0.5173    0.0000 N   0  0  0  0  0  0  0  0  0  0  0  0
    5.5321    0.9827    0.0000 N   0  0  0  0  0  0  0  0  0  0  0  0
   11.5942   -0.5173    0.0000 C   0  0  0  0  0  0  0  0  0  0  0  0
   12.4603    0.9827    0.0000 C   0  0  0  0  0  0  0  0  0  0  0  0
   12.4603   -1.0173    0.0000 C   0  0  0  0  0  0  0  0  0  0  0  0
   13.3263    0.4827    0.0000 C   0  0  0  0  0  0  0  0  0  0  0  0
   10.7282    0.9827    0.0000 C   0  0  0  0  0  0  0  0  0  0  0  0
    9.8622    0.4827    0.0000 C   0  0  0  0  0  0  0  0  0  0  0  0
   14.1923   -1.0173    0.0000 C   0  0  0  0  0  0  0  0  0  0  0  0
    8.9962    0.9827    0.0000 C   0  0  0  0  0  0  0  0  0  0  0  0
    8.1301    0.4827    0.0000 C   0  0  0  0  0  0  0  0  0  0  0  0
   15.0583   -0.5173    0.0000 C   0  0  0  0  0  0  0  0  0  0  0  0
    7.2641    0.9827    0.0000 C   0  0  0  0  0  0  0  0  0  0  0  0
   15.0583    0.4827    0.0000 C   0  0  0  0  0  0  0  0  0  0  0  0
    5.5321    1.9827    0.0000 C   0  0  0  0  0  0  0  0  0  0  0  0
    4.6660    0.4827    0.0000 C   0  0  0  0  0  0  0  0  0  0  0  0
    4.6660    2.4827    0.0000 C   0  0  0  0  0  0  0  0  0  0  0  0
    6.3981    0.4827    0.0000 C   0  0  0  0  0  0  0  0  0  0  0  0
   14.1923   -2.0173    0.0000 C   0  0  0  0  0  0  0  0  0  0  0  0
    3.8000    0.9827    0.0000 C   0  0  0  0  0  0  0  0  0  0  0  0
    3.8000    1.9827    0.0000 C   0  0  0  0  0  0  0  0  0  0  0  0
   15.9244   -1.0173    0.0000 C   0  0  0  0  0  0  0  0  0  0  0  0
   15.9244    0.9827    0.0000 C   0  0  0  0  0  0  0  0  0  0  0  0
   14.1923    0.9827    0.0000 C   0  0  0  0  0  0  0  0  0  0  0  0
   15.0583   -2.5173    0.0000 C   0  0  0  0  0  0  0  0  0  0  0  0
   15.9244   -2.0173    0.0000 C   0  0  0  0  0  0  0  0  0  0  0  0
    2.9061    0.4480    0.0000 C   0  0  0  0  0  0  0  0  0  0  0  0
    2.9061    2.5173    0.0000 C   0  0  0  0  0  0  0  0  0  0  0  0
    2.0000    0.9619    0.0000 C   0  0  0  0  0  0  0  0  0  0  0  0
    2.0000    2.0035    0.0000 C   0  0  0  0  0  0  0  0  0  0  0  0
   10.9837   -0.4097    0.0000 H   0  0  0  0  0  0  0  0  0  0  0  0
   11.3822   -1.0999    0.0000 H   0  0  0  0  0  0  0  0  0  0  0  0
   12.8588    1.4576    0.0000 H   0  0  0  0  0  0  0  0  0  0  0  0
   12.0617    1.4576    0.0000 H   0  0  0  0  0  0  0  0  0  0  0  0
   12.0617   -1.4923    0.0000 H   0  0  0  0  0  0  0  0  0  0  0  0
   12.8588   -1.4923    0.0000 H   0  0  0  0  0  0  0  0  0  0  0  0
   13.9369    0.3750    0.0000 H   0  0  0  0  0  0  0  0  0  0  0  0
   13.5383    1.0653    0.0000 H   0  0  0  0  0  0  0  0  0  0  0  0
   11.1267    1.4576    0.0000 H   0  0  0  0  0  0  0  0  0  0  0  0
   10.3297    1.4576    0.0000 H   0  0  0  0  0  0  0  0  0  0  0  0
    9.4637    0.0077    0.0000 H   0  0  0  0  0  0  0  0  0  0  0  0
   10.2607    0.0077    0.0000 H   0  0  0  0  0  0  0  0  0  0  0  0
    9.3947    1.4576    0.0000 H   0  0  0  0  0  0  0  0  0  0  0  0
    8.5976    1.4576    0.0000 H   0  0  0  0  0  0  0  0  0  0  0  0
    7.7316    0.0077    0.0000 H   0  0  0  0  0  0  0  0  0  0  0  0
    8.5287    0.0077    0.0000 H   0  0  0  0  0  0  0  0  0  0  0  0
    7.6626    1.4576    0.0000 H   0  0  0  0  0  0  0  0  0  0  0  0
    6.8656    1.4576    0.0000 H   0  0  0  0  0  0  0  0  0  0  0  0
   15.5953    0.1727    0.0000 H   0  0  0  0  0  0  0  0  0  0  0  0
    6.1426    1.8750    0.0000 H   0  0  0  0  0  0  0  0  0  0  0  0
    5.7441    2.5653    0.0000 H   0  0  0  0  0  0  0  0  0  0  0  0
    4.2675    0.0077    0.0000 H   0  0  0  0  0  0  0  0  0  0  0  0
    5.0646    0.0077    0.0000 H   0  0  0  0  0  0  0  0  0  0  0  0
    5.0646    2.9576    0.0000 H   0  0  0  0  0  0  0  0  0  0  0  0
    4.2675    2.9576    0.0000 H   0  0  0  0  0  0  0  0  0  0  0  0
   13.6554   -2.3273    0.0000 H   0  0  0  0  0  0  0  0  0  0  0  0
   16.4613   -0.7073    0.0000 H   0  0  0  0  0  0  0  0  0  0  0  0
   16.2344    0.4457    0.0000 H   0  0  0  0  0  0  0  0  0  0  0  0
   16.4613    1.2927    0.0000 H   0  0  0  0  0  0  0  0  0  0  0  0
   15.6144    1.5196    0.0000 H   0  0  0  0  0  0  0  0  0  0  0  0
   14.5023    1.5196    0.0000 H   0  0  0  0  0  0  0  0  0  0  0  0
   13.6554    1.2927    0.0000 H   0  0  0  0  0  0  0  0  0  0  0  0
   13.8823    0.4457    0.0000 H   0  0  0  0  0  0  0  0  0  0  0  0
   15.0583   -3.1373    0.0000 H   0  0  0  0  0  0  0  0  0  0  0  0
   16.4613   -2.3273    0.0000 H   0  0  0  0  0  0  0  0  0  0  0  0
    2.9132   -0.1720    0.0000 H   0  0  0  0  0  0  0  0  0  0  0  0
    2.9132    3.1373    0.0000 H   0  0  0  0  0  0  0  0  0  0  0  0
    1.4643    0.6498    0.0000 H   0  0  0  0  0  0  0  0  0  0  0  0
    1.4643    2.3156    0.0000 H   0  0  0  0  0  0  0  0  0  0  0  0
  1 20  2  0  0  0  0
  2  5  1  0  0  0  0
  2  6  1  0  0  0  0
  2  9  1  0  0  0  0
  3  7  1  0  0  0  0
  3  8  1  0  0  0  0
  3 11  1  0  0  0  0
  4 17  1  0  0  0  0
  4 18  1  0  0  0  0
  4 20  1  0  0  0  0
  5  7  1  0  0  0  0
  5 33  1  0  0  0  0
  5 34  1  0  0  0  0
  6  8  1  0  0  0  0
  6 35  1  0  0  0  0
  6 36  1  0  0  0  0
  7 37  1  0  0  0  0
  7 38  1  0  0  0  0
  8 39  1  0  0  0  0
  8 40  1  0  0  0  0
  9 10  1  0  0  0  0
  9 41  1  0  0  0  0
  9 42  1  0  0  0  0
 10 12  1  0  0  0  0
 10 43  1  0  0  0  0
 10 44  1  0  0  0  0
 11 14  1  0  0  0  0
 11 21  2  0  0  0  0
 12 13  1  0  0  0  0
 12 45  1  0  0  0  0
 12 46  1  0  0  0  0
 13 15  1  0  0  0  0
 13 47  1  0  0  0  0
 13 48  1  0  0  0  0
 14 16  1  0  0  0  0
 14 24  2  0  0  0  0
 15 20  1  0  0  0  0
 15 49  1  0  0  0  0
 15 50  1  0  0  0  0
 16 25  1  0  0  0  0
 16 26  1  0  0  0  0
 16 51  1  0  0  0  0
 17 19  1  0  0  0  0
 17 52  1  0  0  0  0
 17 53  1  0  0  0  0
 18 22  1  0  0  0  0
 18 54  1  0  0  0  0
 18 55  1  0  0  0  0
 19 23  1  0  0  0  0
 19 56  1  0  0  0  0
 19 57  1  0  0  0  0
 21 27  1  0  0  0  0
 21 58  1  0  0  0  0
 22 23  1  0  0  0  0
 22 29  2  0  0  0  0
 23 30  2  0  0  0  0
 24 28  1  0  0  0  0
 24 59  1  0  0  0  0
 25 60  1  0  0  0  0
 25 61  1  0  0  0  0
 25 62  1  0  0  0  0
 26 63  1  0  0  0  0
 26 64  1  0  0  0  0
 26 65  1  0  0  0  0
 27 28  2  0  0  0  0
 27 66  1  0  0  0  0
 28 67  1  0  0  0  0
 29 31  1  0  0  0  0
 29 68  1  0  0  0  0
 30 32  1  0  0  0  0
 30 69  1  0  0  0  0
 31 32  2  0  0  0  0
 31 70  1  0  0  0  0
 32 71  1  0  0  0  0
M  END
> <PUBCHEM_COMPOUND_CID>
25107516

> <PUBCHEM_COMPOUND_CANONICALIZED>
1

> <PUBCHEM_CACTVS_COMPLEXITY>
571

> <PUBCHEM_CACTVS_HBOND_ACCEPTOR>
3

> <PUBCHEM_CACTVS_HBOND_DONOR>
0

> <PUBCHEM_CACTVS_ROTATABLE_BOND>
8

> <PUBCHEM_CACTVS_SUBSKEYS>
AAADcfB7IAAAAAAAAAAAAAAAAAAAAAAAAAA8eIEAAAAAAACxQAAAHgAAAAAADQjBmAQywIMAAACIAiVSUACCAAAhAgAIiAEIZIgIYDLAkZGUIAhghgDIyAcYiMAOgAAAAAASAAAAAAAAACQAAAAAAAAAAA==

> <PUBCHEM_IUPAC_OPENEYE_NAME>
1-(3,4-dihydro-1H-isoquinolin-2-yl)-6-[4-(2-isopropylphenyl)piperazin-1-yl]hexan-1-one

> <PUBCHEM_IUPAC_CAS_NAME>
1-(3,4-dihydro-1H-isoquinolin-2-yl)-6-[4-(2-propan-2-ylphenyl)-1-piperazinyl]-1-hexanone

> <PUBCHEM_IUPAC_NAME_MARKUP>
1-(3,4-dihydro-1<I>H</I>-isoquinolin-2-yl)-6-[4-(2-propan-2-ylphenyl)piperazin-1-yl]hexan-1-one

> <PUBCHEM_IUPAC_NAME>
1-(3,4-dihydro-1H-isoquinolin-2-yl)-6-[4-(2-propan-2-ylphenyl)piperazin-1-yl]hexan-1-one

> <PUBCHEM_IUPAC_SYSTEMATIC_NAME>
1-(3,4-dihydro-1H-isoquinolin-2-yl)-6-[4-(2-propan-2-ylphenyl)piperazin-1-yl]hexan-1-one

> <PUBCHEM_IUPAC_TRADITIONAL_NAME>
1-(3,4-dihydro-1H-isoquinolin-2-yl)-6-(4-o-cumenylpiperazino)hexan-1-one

> <PUBCHEM_IUPAC_INCHI>
InChI=1S/C28H39N3O/c1-23(2)26-12-7-8-13-27(26)30-20-18-29(19-21-30)16-9-3-4-14-28(32)31-17-15-24-10-5-6-11-25(24)22-31/h5-8,10-13,23H,3-4,9,14-22H2,1-2H3

> <PUBCHEM_IUPAC_INCHIKEY>
QDZRLBZZELBOIJ-UHFFFAOYSA-N

> <PUBCHEM_XLOGP3_AA>
5

> <PUBCHEM_EXACT_MASS>
433.309312876

> <PUBCHEM_MOLECULAR_FORMULA>
C28H39N3O

> <PUBCHEM_MOLECULAR_WEIGHT>
433.6

> <PUBCHEM_OPENEYE_CAN_SMILES>
CC(C)C1=CC=CC=C1N2CCN(CC2)CCCCCC(=O)N3CCC4=CC=CC=C4C3

> <PUBCHEM_OPENEYE_ISO_SMILES>
CC(C)C1=CC=CC=C1N2CCN(CC2)CCCCCC(=O)N3CCC4=CC=CC=C4C3

> <PUBCHEM_CACTVS_TPSA>
26.8

> <PUBCHEM_MONOISOTOPIC_WEIGHT>
433.309312876

> <PUBCHEM_TOTAL_CHARGE>
0

> <PUBCHEM_HEAVY_ATOM_COUNT>
32

> <PUBCHEM_ATOM_DEF_STEREO_COUNT>
0

> <PUBCHEM_ATOM_UDEF_STEREO_COUNT>
0

> <PUBCHEM_BOND_DEF_STEREO_COUNT>
0

> <PUBCHEM_BOND_UDEF_STEREO_COUNT>
0

> <PUBCHEM_ISOTOPIC_ATOM_COUNT>
0

> <PUBCHEM_COMPONENT_COUNT>
1

> <PUBCHEM_CACTVS_TAUTO_COUNT>
-1

> <PUBCHEM_COORDINATE_TYPE>
1
5
255

> <PUBCHEM_BONDANNOTATIONS>
11  14  8
11  21  8
14  24  8
21  27  8
22  23  8
22  29  8
23  30  8
24  28  8
27  28  8
29  31  8
30  32  8
31  32  8

$$$$
