9828617
  -OEChem-09292322102D

 74 78  0     1  0  0  0  0  0999 V2000
   17.9707    2.6034    0.0000 S   0  0  0  0  0  0  0  0  0  0  0  0
    7.6160   -1.0188    0.0000 O   0  0  0  0  0  0  0  0  0  0  0  0
   18.4741    1.7393    0.0000 O   0  0  0  0  0  0  0  0  0  0  0  0
   17.4674    3.4675    0.0000 O   0  0  0  0  0  0  0  0  0  0  0  0
    3.7796   -3.4675    0.0000 O   0  0  0  0  0  0  0  0  0  0  0  0
   13.1160    1.5793    0.0000 N   0  0  3  0  0  0  0  0  0  0  0  0
    7.6160    0.7132    0.0000 N   0  0  0  0  0  0  0  0  0  0  0  0
    3.1215   -1.9894    0.0000 N   0  0  0  0  0  0  0  0  0  0  0  0
    4.5227   -2.7984    0.0000 N   0  0  0  0  0  0  0  0  0  0  0  0
   10.6160    0.7132    0.0000 C   0  0  0  0  0  0  0  0  0  0  0  0
   10.1160   -0.1528    0.0000 C   0  0  0  0  0  0  0  0  0  0  0  0
   10.1160    1.5793    0.0000 C   0  0  0  0  0  0  0  0  0  0  0  0
    8.6160    0.7132    0.0000 C   0  0  0  0  0  0  0  0  0  0  0  0
    9.1160   -0.1528    0.0000 C   0  0  0  0  0  0  0  0  0  0  0  0
    9.1160    1.5793    0.0000 C   0  0  0  0  0  0  0  0  0  0  0  0
   11.6160    0.7132    0.0000 C   0  0  0  0  0  0  0  0  0  0  0  0
   12.1160    1.5793    0.0000 C   0  0  0  0  0  0  0  0  0  0  0  0
   13.5499    2.4802    0.0000 C   0  0  0  0  0  0  0  0  0  0  0  0
   13.5499    0.6783    0.0000 C   0  0  0  0  0  0  0  0  0  0  0  0
   14.5248    2.7028    0.0000 C   0  0  0  0  0  0  0  0  0  0  0  0
   14.5248    0.4558    0.0000 C   0  0  0  0  0  0  0  0  0  0  0  0
   15.3066    2.0793    0.0000 C   0  0  0  0  0  0  0  0  0  0  0  0
   15.3066    1.0793    0.0000 C   0  0  0  0  0  0  0  0  0  0  0  0
    7.1160   -0.1528    0.0000 C   0  0  0  0  0  0  0  0  0  0  0  0
   16.2006    2.6139    0.0000 C   0  0  0  0  0  0  0  0  0  0  0  0
   16.2006    0.5446    0.0000 C   0  0  0  0  0  0  0  0  0  0  0  0
    6.1160   -0.1528    0.0000 C   0  0  0  0  0  0  0  0  0  0  0  0
   17.1066    2.1001    0.0000 C   0  0  0  0  0  0  0  0  0  0  0  0
   17.1066    1.0584    0.0000 C   0  0  0  0  0  0  0  0  0  0  0  0
    5.6160   -1.0188    0.0000 C   0  0  0  0  0  0  0  0  0  0  0  0
    5.6160    0.7132    0.0000 C   0  0  0  0  0  0  0  0  0  0  0  0
   18.8348    3.1068    0.0000 C   0  0  0  0  0  0  0  0  0  0  0  0
    4.6160   -1.0188    0.0000 C   0  0  0  0  0  0  0  0  0  0  0  0
    4.6160    0.7132    0.0000 C   0  0  0  0  0  0  0  0  0  0  0  0
    4.1160   -0.1528    0.0000 C   0  0  0  0  0  0  0  0  0  0  0  0
    4.1160   -1.8848    0.0000 C   0  0  0  0  0  0  0  0  0  0  0  0
    2.9136   -2.9675    0.0000 C   0  0  0  0  0  0  0  0  0  0  0  0
    2.0000   -3.3742    0.0000 C   0  0  0  0  0  0  0  0  0  0  0  0
   10.9260    0.1763    0.0000 H   0  0  0  0  0  0  0  0  0  0  0  0
   10.0083   -0.7634    0.0000 H   0  0  0  0  0  0  0  0  0  0  0  0
   10.6986   -0.3648    0.0000 H   0  0  0  0  0  0  0  0  0  0  0  0
   10.6986    1.7913    0.0000 H   0  0  0  0  0  0  0  0  0  0  0  0
   10.0083    2.1898    0.0000 H   0  0  0  0  0  0  0  0  0  0  0  0
    8.3060    0.1763    0.0000 H   0  0  0  0  0  0  0  0  0  0  0  0
    8.5334   -0.3648    0.0000 H   0  0  0  0  0  0  0  0  0  0  0  0
    9.2236   -0.7634    0.0000 H   0  0  0  0  0  0  0  0  0  0  0  0
    9.2236    2.1898    0.0000 H   0  0  0  0  0  0  0  0  0  0  0  0
    8.5334    1.7913    0.0000 H   0  0  0  0  0  0  0  0  0  0  0  0
   11.5083    0.1027    0.0000 H   0  0  0  0  0  0  0  0  0  0  0  0
   12.1986    0.5012    0.0000 H   0  0  0  0  0  0  0  0  0  0  0  0
   12.2236    2.1898    0.0000 H   0  0  0  0  0  0  0  0  0  0  0  0
   11.5334    1.7913    0.0000 H   0  0  0  0  0  0  0  0  0  0  0  0
    7.3060    1.2502    0.0000 H   0  0  0  0  0  0  0  0  0  0  0  0
   13.5499    3.1002    0.0000 H   0  0  0  0  0  0  0  0  0  0  0  0
   12.9454    2.6182    0.0000 H   0  0  0  0  0  0  0  0  0  0  0  0
   12.9454    0.5403    0.0000 H   0  0  0  0  0  0  0  0  0  0  0  0
   13.5499    0.0583    0.0000 H   0  0  0  0  0  0  0  0  0  0  0  0
   15.0095    3.0893    0.0000 H   0  0  0  0  0  0  0  0  0  0  0  0
   14.2558    3.2614    0.0000 H   0  0  0  0  0  0  0  0  0  0  0  0
   14.2558   -0.1028    0.0000 H   0  0  0  0  0  0  0  0  0  0  0  0
   15.0095    0.0692    0.0000 H   0  0  0  0  0  0  0  0  0  0  0  0
   16.1934    3.2339    0.0000 H   0  0  0  0  0  0  0  0  0  0  0  0
   16.1934   -0.0754    0.0000 H   0  0  0  0  0  0  0  0  0  0  0  0
   17.6424    0.7464    0.0000 H   0  0  0  0  0  0  0  0  0  0  0  0
    5.9260   -1.5557    0.0000 H   0  0  0  0  0  0  0  0  0  0  0  0
    5.9260    1.2502    0.0000 H   0  0  0  0  0  0  0  0  0  0  0  0
   19.1469    2.5710    0.0000 H   0  0  0  0  0  0  0  0  0  0  0  0
   19.3706    3.4188    0.0000 H   0  0  0  0  0  0  0  0  0  0  0  0
   18.5227    3.6425    0.0000 H   0  0  0  0  0  0  0  0  0  0  0  0
    4.3060    1.2502    0.0000 H   0  0  0  0  0  0  0  0  0  0  0  0
    3.4960   -0.1528    0.0000 H   0  0  0  0  0  0  0  0  0  0  0  0
    1.7478   -2.8078    0.0000 H   0  0  0  0  0  0  0  0  0  0  0  0
    1.4336   -3.6264    0.0000 H   0  0  0  0  0  0  0  0  0  0  0  0
    2.2522   -3.9406    0.0000 H   0  0  0  0  0  0  0  0  0  0  0  0
  1  3  2  0  0  0  0
  1  4  2  0  0  0  0
  1 28  1  0  0  0  0
  1 32  1  0  0  0  0
  2 24  2  0  0  0  0
  5  9  1  0  0  0  0
  5 37  1  0  0  0  0
  6 17  1  0  0  0  0
  6 18  1  0  0  0  0
  6 19  1  0  0  0  0
  7 13  1  0  0  0  0
  7 24  1  0  0  0  0
  7 53  1  0  0  0  0
  8 36  1  0  0  0  0
  8 37  2  0  0  0  0
  9 36  2  0  0  0  0
 10 11  1  0  0  0  0
 10 12  1  0  0  0  0
 10 16  1  0  0  0  0
 10 39  1  0  0  0  0
 11 14  1  0  0  0  0
 11 40  1  0  0  0  0
 11 41  1  0  0  0  0
 12 15  1  0  0  0  0
 12 42  1  0  0  0  0
 12 43  1  0  0  0  0
 13 14  1  0  0  0  0
 13 15  1  0  0  0  0
 13 44  1  0  0  0  0
 14 45  1  0  0  0  0
 14 46  1  0  0  0  0
 15 47  1  0  0  0  0
 15 48  1  0  0  0  0
 16 17  1  0  0  0  0
 16 49  1  0  0  0  0
 16 50  1  0  0  0  0
 17 51  1  0  0  0  0
 17 52  1  0  0  0  0
 18 20  1  0  0  0  0
 18 54  1  0  0  0  0
 18 55  1  0  0  0  0
 19 21  1  0  0  0  0
 19 56  1  0  0  0  0
 19 57  1  0  0  0  0
 20 22  1  0  0  0  0
 20 58  1  0  0  0  0
 20 59  1  0  0  0  0
 21 23  1  0  0  0  0
 21 60  1  0  0  0  0
 21 61  1  0  0  0  0
 22 23  2  0  0  0  0
 22 25  1  0  0  0  0
 23 26  1  0  0  0  0
 24 27  1  0  0  0  0
 25 28  2  0  0  0  0
 25 62  1  0  0  0  0
 26 29  2  0  0  0  0
 26 63  1  0  0  0  0
 27 30  1  0  0  0  0
 27 31  2  0  0  0  0
 28 29  1  0  0  0  0
 29 64  1  0  0  0  0
 30 33  2  0  0  0  0
 30 65  1  0  0  0  0
 31 34  1  0  0  0  0
 31 66  1  0  0  0  0
 32 67  1  0  0  0  0
 32 68  1  0  0  0  0
 32 69  1  0  0  0  0
 33 35  1  0  0  0  0
 33 36  1  0  0  0  0
 34 35  2  0  0  0  0
 34 70  1  0  0  0  0
 35 71  1  0  0  0  0
 37 38  1  0  0  0  0
 38 72  1  0  0  0  0
 38 73  1  0  0  0  0
 38 74  1  0  0  0  0
M  END
> <PUBCHEM_COMPOUND_CID>
9828617

> <PUBCHEM_COMPOUND_CANONICALIZED>
1

> <PUBCHEM_CACTVS_COMPLEXITY>
888

> <PUBCHEM_CACTVS_HBOND_ACCEPTOR>
7

> <PUBCHEM_CACTVS_HBOND_DONOR>
1

> <PUBCHEM_CACTVS_ROTATABLE_BOND>
7

> <PUBCHEM_CACTVS_SUBSKEYS>
AAADcfB7uABAAAAAAAAAAAAAAAAAAWAAAAAwYMAABYAAAAAB0AAAHgQUAAAADSjB2wSzEYfYEAqpAiNyNnDCgAkkCLApiLk4BNiIKLKgnRGEIQhglwKIiYcYicCOkAACgAAQAAAwAAUAACAAAAAAAAAAAA==

> <PUBCHEM_IUPAC_OPENEYE_NAME>
3-(5-methyl-1,2,4-oxadiazol-3-yl)-N-[4-[2-(7-methylsulfonyl-1,2,4,5-tetrahydro-3-benzazepin-3-yl)ethyl]cyclohexyl]benzamide

> <PUBCHEM_IUPAC_CAS_NAME>
3-(5-methyl-1,2,4-oxadiazol-3-yl)-N-[4-[2-(7-methylsulfonyl-1,2,4,5-tetrahydro-3-benzazepin-3-yl)ethyl]cyclohexyl]benzamide

> <PUBCHEM_IUPAC_NAME_MARKUP>
3-(5-methyl-1,2,4-oxadiazol-3-yl)-<I>N</I>-[4-[2-(7-methylsulfonyl-1,2,4,5-tetrahydro-3-benzazepin-3-yl)ethyl]cyclohexyl]benzamide

> <PUBCHEM_IUPAC_NAME>
3-(5-methyl-1,2,4-oxadiazol-3-yl)-N-[4-[2-(7-methylsulfonyl-1,2,4,5-tetrahydro-3-benzazepin-3-yl)ethyl]cyclohexyl]benzamide

> <PUBCHEM_IUPAC_SYSTEMATIC_NAME>
3-(5-methyl-1,2,4-oxadiazol-3-yl)-N-[4-[2-(7-methylsulfonyl-1,2,4,5-tetrahydro-3-benzazepin-3-yl)ethyl]cyclohexyl]benzamide

> <PUBCHEM_IUPAC_TRADITIONAL_NAME>
N-[4-[2-(7-mesyl-1,2,4,5-tetrahydro-3-benzazepin-3-yl)ethyl]cyclohexyl]-3-(5-methyl-1,2,4-oxadiazol-3-yl)benzamide

> <PUBCHEM_IUPAC_INCHI>
InChI=1S/C29H36N4O4S/c1-20-30-28(32-37-20)24-4-3-5-25(18-24)29(34)31-26-9-6-21(7-10-26)12-15-33-16-13-22-8-11-27(38(2,35)36)19-23(22)14-17-33/h3-5,8,11,18-19,21,26H,6-7,9-10,12-17H2,1-2H3,(H,31,34)

> <PUBCHEM_IUPAC_INCHIKEY>
ZHQUFEJLPBTKSM-UHFFFAOYSA-N

> <PUBCHEM_XLOGP3_AA>
4.6

> <PUBCHEM_EXACT_MASS>
536.24572682

> <PUBCHEM_MOLECULAR_FORMULA>
C29H36N4O4S

> <PUBCHEM_MOLECULAR_WEIGHT>
536.7

> <PUBCHEM_OPENEYE_CAN_SMILES>
CC1=NC(=NO1)C2=CC(=CC=C2)C(=O)NC3CCC(CC3)CCN4CCC5=C(CC4)C=C(C=C5)S(=O)(=O)C

> <PUBCHEM_OPENEYE_ISO_SMILES>
CC1=NC(=NO1)C2=CC(=CC=C2)C(=O)NC3CCC(CC3)CCN4CCC5=C(CC4)C=C(C=C5)S(=O)(=O)C

> <PUBCHEM_CACTVS_TPSA>
114

> <PUBCHEM_MONOISOTOPIC_WEIGHT>
536.24572682

> <PUBCHEM_TOTAL_CHARGE>
0

> <PUBCHEM_HEAVY_ATOM_COUNT>
38

> <PUBCHEM_ATOM_DEF_STEREO_COUNT>
0

> <PUBCHEM_ATOM_UDEF_STEREO_COUNT>
0

> <PUBCHEM_BOND_DEF_STEREO_COUNT>
0

> <PUBCHEM_BOND_UDEF_STEREO_COUNT>
0

> <PUBCHEM_ISOTOPIC_ATOM_COUNT>
0

> <PUBCHEM_COMPONENT_COUNT>
1

> <PUBCHEM_CACTVS_TAUTO_COUNT>
-1

> <PUBCHEM_COORDINATE_TYPE>
1
5
255

> <PUBCHEM_BONDANNOTATIONS>
22  23  8
22  25  8
23  26  8
25  28  8
26  29  8
27  30  8
27  31  8
28  29  8
30  33  8
31  34  8
33  35  8
34  35  8
5  37  8
5  9  8
8  36  8
8  37  8
9  36  8

$$$$
