10942784
  -OEChem-09292322132D

 25 26  0     1  0  0  0  0  0999 V2000
    7.7991   -0.7315    0.0000 O   0  0  0  0  0  0  0  0  0  0  0  0
    2.5369   -0.7073    0.0000 N   0  0  0  0  0  0  0  0  0  0  0  0
    3.4030   -0.2073    0.0000 C   0  0  3  0  0  0  0  0  0  0  0  0
    3.4030    0.7927    0.0000 C   0  0  0  0  0  0  0  0  0  0  0  0
    4.2690   -0.7073    0.0000 C   0  0  0  0  0  0  0  0  0  0  0  0
    4.2690    1.2927    0.0000 C   0  0  0  0  0  0  0  0  0  0  0  0
    5.1350   -0.2073    0.0000 C   0  0  0  0  0  0  0  0  0  0  0  0
    5.1350    0.7927    0.0000 C   0  0  0  0  0  0  0  0  0  0  0  0
    6.0290   -0.7420    0.0000 C   0  0  0  0  0  0  0  0  0  0  0  0
    6.0290    1.3273    0.0000 C   0  0  0  0  0  0  0  0  0  0  0  0
    6.9350   -0.2281    0.0000 C   0  0  0  0  0  0  0  0  0  0  0  0
    6.9350    0.8135    0.0000 C   0  0  0  0  0  0  0  0  0  0  0  0
    3.4030   -0.8273    0.0000 H   0  0  0  0  0  0  0  0  0  0  0  0
    3.1909    1.3753    0.0000 H   0  0  0  0  0  0  0  0  0  0  0  0
    2.7924    0.6850    0.0000 H   0  0  0  0  0  0  0  0  0  0  0  0
    3.8705   -1.1823    0.0000 H   0  0  0  0  0  0  0  0  0  0  0  0
    4.6675   -1.1823    0.0000 H   0  0  0  0  0  0  0  0  0  0  0  0
    4.6675    1.7676    0.0000 H   0  0  0  0  0  0  0  0  0  0  0  0
    3.8705    1.7676    0.0000 H   0  0  0  0  0  0  0  0  0  0  0  0
    6.0218   -1.3620    0.0000 H   0  0  0  0  0  0  0  0  0  0  0  0
    6.0218    1.9473    0.0000 H   0  0  0  0  0  0  0  0  0  0  0  0
    2.0000   -0.3973    0.0000 H   0  0  0  0  0  0  0  0  0  0  0  0
    2.5369   -1.3273    0.0000 H   0  0  0  0  0  0  0  0  0  0  0  0
    7.4708    1.1256    0.0000 H   0  0  0  0  0  0  0  0  0  0  0  0
    8.3372   -0.4236    0.0000 H   0  0  0  0  0  0  0  0  0  0  0  0
  1 11  1  0  0  0  0
  1 25  1  0  0  0  0
  2  3  1  0  0  0  0
  2 22  1  0  0  0  0
  2 23  1  0  0  0  0
  3  4  1  0  0  0  0
  3  5  1  0  0  0  0
  3 13  1  0  0  0  0
  4  6  1  0  0  0  0
  4 14  1  0  0  0  0
  4 15  1  0  0  0  0
  5  7  1  0  0  0  0
  5 16  1  0  0  0  0
  5 17  1  0  0  0  0
  6  8  1  0  0  0  0
  6 18  1  0  0  0  0
  6 19  1  0  0  0  0
  7  8  2  0  0  0  0
  7  9  1  0  0  0  0
  8 10  1  0  0  0  0
  9 11  2  0  0  0  0
  9 20  1  0  0  0  0
 10 12  2  0  0  0  0
 10 21  1  0  0  0  0
 11 12  1  0  0  0  0
 12 24  1  0  0  0  0
M  END
> <PUBCHEM_COMPOUND_CID>
10942784

> <PUBCHEM_COMPOUND_CANONICALIZED>
1

> <PUBCHEM_CACTVS_COMPLEXITY>
160

> <PUBCHEM_CACTVS_HBOND_ACCEPTOR>
2

> <PUBCHEM_CACTVS_HBOND_DONOR>
2

> <PUBCHEM_CACTVS_ROTATABLE_BOND>
0

> <PUBCHEM_CACTVS_SUBSKEYS>
AAADccByIAAAAAAAAAAAAAAAAAAAAAAAAAAwYAAAAAAAAADBAAAAHgAQCAAADCzBmAQwBoBAAgCAAiBCAAACAAAgIAAIiIAGCIgIJiKCkROAcAAk0BEImAeQ0LEOoAABAAAQAABQAAKAACAAAAAAAAAAAA==

> <PUBCHEM_IUPAC_OPENEYE_NAME>
3-aminotetralin-6-ol

> <PUBCHEM_IUPAC_CAS_NAME>
7-amino-5,6,7,8-tetrahydronaphthalen-2-ol

> <PUBCHEM_IUPAC_NAME_MARKUP>
7-amino-5,6,7,8-tetrahydronaphthalen-2-ol

> <PUBCHEM_IUPAC_NAME>
7-amino-5,6,7,8-tetrahydronaphthalen-2-ol

> <PUBCHEM_IUPAC_SYSTEMATIC_NAME>
7-azanyl-5,6,7,8-tetrahydronaphthalen-2-ol

> <PUBCHEM_IUPAC_TRADITIONAL_NAME>
3-aminotetralin-6-ol

> <PUBCHEM_IUPAC_INCHI>
InChI=1S/C10H13NO/c11-9-3-1-7-2-4-10(12)6-8(7)5-9/h2,4,6,9,12H,1,3,5,11H2

> <PUBCHEM_IUPAC_INCHIKEY>
VIYAPIMIOKKYNF-UHFFFAOYSA-N

> <PUBCHEM_XLOGP3>
1.7

> <PUBCHEM_EXACT_MASS>
163.099714038

> <PUBCHEM_MOLECULAR_FORMULA>
C10H13NO

> <PUBCHEM_MOLECULAR_WEIGHT>
163.22

> <PUBCHEM_OPENEYE_CAN_SMILES>
C1CC2=C(CC1N)C=C(C=C2)O

> <PUBCHEM_OPENEYE_ISO_SMILES>
C1CC2=C(CC1N)C=C(C=C2)O

> <PUBCHEM_CACTVS_TPSA>
46.2

> <PUBCHEM_MONOISOTOPIC_WEIGHT>
163.099714038

> <PUBCHEM_TOTAL_CHARGE>
0

> <PUBCHEM_HEAVY_ATOM_COUNT>
12

> <PUBCHEM_ATOM_DEF_STEREO_COUNT>
0

> <PUBCHEM_ATOM_UDEF_STEREO_COUNT>
1

> <PUBCHEM_BOND_DEF_STEREO_COUNT>
0

> <PUBCHEM_BOND_UDEF_STEREO_COUNT>
0

> <PUBCHEM_ISOTOPIC_ATOM_COUNT>
0

> <PUBCHEM_COMPONENT_COUNT>
1

> <PUBCHEM_CACTVS_TAUTO_COUNT>
9

> <PUBCHEM_COORDINATE_TYPE>
1
5
255

> <PUBCHEM_BONDANNOTATIONS>
10  12  8
11  12  8
3  2  3
7  8  8
7  9  8
8  10  8
9  11  8

$$$$
