44277404
  -OEChem-09292322202D

 60 63  0     0  0  0  0  0  0999 V2000
   13.2583    3.0000    0.0000 Br  0  0  0  0  0  0  0  0  0  0  0  0
    2.8660   -3.0000    0.0000 O   0  0  0  0  0  0  0  0  0  0  0  0
   11.5263   -1.0000    0.0000 O   0  0  0  0  0  0  0  0  0  0  0  0
   13.2583   -1.0000    0.0000 O   0  0  0  0  0  0  0  0  0  0  0  0
    8.0622    0.0000    0.0000 N   0  0  0  0  0  0  0  0  0  0  0  0
    6.3301   -1.0000    0.0000 N   0  0  0  0  0  0  0  0  0  0  0  0
   10.6603    0.5000    0.0000 N   0  0  0  0  0  0  0  0  0  0  0  0
    7.1962    0.5000    0.0000 C   0  0  0  0  0  0  0  0  0  0  0  0
    8.0622   -1.0000    0.0000 C   0  0  0  0  0  0  0  0  0  0  0  0
    6.3301    0.0000    0.0000 C   0  0  0  0  0  0  0  0  0  0  0  0
    7.1962   -1.5000    0.0000 C   0  0  0  0  0  0  0  0  0  0  0  0
    8.9282    0.5000    0.0000 C   0  0  0  0  0  0  0  0  0  0  0  0
    5.4641   -1.5000    0.0000 C   0  0  0  0  0  0  0  0  0  0  0  0
    9.7942   -0.0000    0.0000 C   0  0  0  0  0  0  0  0  0  0  0  0
    4.5981   -1.0000    0.0000 C   0  0  0  0  0  0  0  0  0  0  0  0
    5.4641   -2.5000    0.0000 C   0  0  0  0  0  0  0  0  0  0  0  0
    3.7320   -1.5000    0.0000 C   0  0  0  0  0  0  0  0  0  0  0  0
    4.5981   -3.0000    0.0000 C   0  0  0  0  0  0  0  0  0  0  0  0
   11.5263   -0.0000    0.0000 C   0  0  0  0  0  0  0  0  0  0  0  0
    3.7320   -2.5000    0.0000 C   0  0  0  0  0  0  0  0  0  0  0  0
   12.3923    0.5000    0.0000 C   0  0  0  0  0  0  0  0  0  0  0  0
   13.2583   -0.0000    0.0000 C   0  0  0  0  0  0  0  0  0  0  0  0
   14.1244    0.5000    0.0000 C   0  0  0  0  0  0  0  0  0  0  0  0
   12.3923    1.5000    0.0000 C   0  0  0  0  0  0  0  0  0  0  0  0
   14.1244    1.5000    0.0000 C   0  0  0  0  0  0  0  0  0  0  0  0
   13.2583    2.0000    0.0000 C   0  0  0  0  0  0  0  0  0  0  0  0
   15.0183   -0.0347    0.0000 C   0  0  0  0  0  0  0  0  0  0  0  0
   15.0183    2.0347    0.0000 C   0  0  0  0  0  0  0  0  0  0  0  0
   15.9244    0.4792    0.0000 C   0  0  0  0  0  0  0  0  0  0  0  0
   15.9244    1.5208    0.0000 C   0  0  0  0  0  0  0  0  0  0  0  0
    2.0000   -2.5000    0.0000 C   0  0  0  0  0  0  0  0  0  0  0  0
   14.1244   -1.5000    0.0000 C   0  0  0  0  0  0  0  0  0  0  0  0
    7.5947    0.9749    0.0000 H   0  0  0  0  0  0  0  0  0  0  0  0
    6.7976    0.9749    0.0000 H   0  0  0  0  0  0  0  0  0  0  0  0
    8.2742   -1.5826    0.0000 H   0  0  0  0  0  0  0  0  0  0  0  0
    8.6728   -0.8923    0.0000 H   0  0  0  0  0  0  0  0  0  0  0  0
    6.1181    0.5826    0.0000 H   0  0  0  0  0  0  0  0  0  0  0  0
    5.7196   -0.1077    0.0000 H   0  0  0  0  0  0  0  0  0  0  0  0
    6.7976   -1.9750    0.0000 H   0  0  0  0  0  0  0  0  0  0  0  0
    7.5947   -1.9750    0.0000 H   0  0  0  0  0  0  0  0  0  0  0  0
    9.3267    0.9749    0.0000 H   0  0  0  0  0  0  0  0  0  0  0  0
    8.5297    0.9749    0.0000 H   0  0  0  0  0  0  0  0  0  0  0  0
    9.3957   -0.4749    0.0000 H   0  0  0  0  0  0  0  0  0  0  0  0
   10.1928   -0.4749    0.0000 H   0  0  0  0  0  0  0  0  0  0  0  0
    4.5981   -0.3800    0.0000 H   0  0  0  0  0  0  0  0  0  0  0  0
    6.0010   -2.8100    0.0000 H   0  0  0  0  0  0  0  0  0  0  0  0
   10.6603    1.1200    0.0000 H   0  0  0  0  0  0  0  0  0  0  0  0
    3.1951   -1.1900    0.0000 H   0  0  0  0  0  0  0  0  0  0  0  0
    4.5981   -3.6200    0.0000 H   0  0  0  0  0  0  0  0  0  0  0  0
   11.8554    1.8100    0.0000 H   0  0  0  0  0  0  0  0  0  0  0  0
   15.0111   -0.6546    0.0000 H   0  0  0  0  0  0  0  0  0  0  0  0
   15.0111    2.6546    0.0000 H   0  0  0  0  0  0  0  0  0  0  0  0
   16.4601    0.1671    0.0000 H   0  0  0  0  0  0  0  0  0  0  0  0
   16.4601    1.8329    0.0000 H   0  0  0  0  0  0  0  0  0  0  0  0
    2.3100   -1.9631    0.0000 H   0  0  0  0  0  0  0  0  0  0  0  0
    1.4631   -2.1900    0.0000 H   0  0  0  0  0  0  0  0  0  0  0  0
    1.6900   -3.0369    0.0000 H   0  0  0  0  0  0  0  0  0  0  0  0
   13.8144   -2.0369    0.0000 H   0  0  0  0  0  0  0  0  0  0  0  0
   14.6613   -1.8100    0.0000 H   0  0  0  0  0  0  0  0  0  0  0  0
   14.4344   -0.9631    0.0000 H   0  0  0  0  0  0  0  0  0  0  0  0
  1 26  1  0  0  0  0
  2 20  1  0  0  0  0
  2 31  1  0  0  0  0
  3 19  2  0  0  0  0
  4 22  1  0  0  0  0
  4 32  1  0  0  0  0
  5  8  1  0  0  0  0
  5  9  1  0  0  0  0
  5 12  1  0  0  0  0
  6 10  1  0  0  0  0
  6 11  1  0  0  0  0
  6 13  1  0  0  0  0
  7 14  1  0  0  0  0
  7 19  1  0  0  0  0
  7 47  1  0  0  0  0
  8 10  1  0  0  0  0
  8 33  1  0  0  0  0
  8 34  1  0  0  0  0
  9 11  1  0  0  0  0
  9 35  1  0  0  0  0
  9 36  1  0  0  0  0
 10 37  1  0  0  0  0
 10 38  1  0  0  0  0
 11 39  1  0  0  0  0
 11 40  1  0  0  0  0
 12 14  1  0  0  0  0
 12 41  1  0  0  0  0
 12 42  1  0  0  0  0
 13 15  2  0  0  0  0
 13 16  1  0  0  0  0
 14 43  1  0  0  0  0
 14 44  1  0  0  0  0
 15 17  1  0  0  0  0
 15 45  1  0  0  0  0
 16 18  2  0  0  0  0
 16 46  1  0  0  0  0
 17 20  2  0  0  0  0
 17 48  1  0  0  0  0
 18 20  1  0  0  0  0
 18 49  1  0  0  0  0
 19 21  1  0  0  0  0
 21 22  2  0  0  0  0
 21 24  1  0  0  0  0
 22 23  1  0  0  0  0
 23 25  1  0  0  0  0
 23 27  2  0  0  0  0
 24 26  2  0  0  0  0
 24 50  1  0  0  0  0
 25 26  1  0  0  0  0
 25 28  2  0  0  0  0
 27 29  1  0  0  0  0
 27 51  1  0  0  0  0
 28 30  1  0  0  0  0
 28 52  1  0  0  0  0
 29 30  2  0  0  0  0
 29 53  1  0  0  0  0
 30 54  1  0  0  0  0
 31 55  1  0  0  0  0
 31 56  1  0  0  0  0
 31 57  1  0  0  0  0
 32 58  1  0  0  0  0
 32 59  1  0  0  0  0
 32 60  1  0  0  0  0
M  END
> <PUBCHEM_COMPOUND_CID>
44277404

> <PUBCHEM_COMPOUND_CANONICALIZED>
1

> <PUBCHEM_CACTVS_COMPLEXITY>
593

> <PUBCHEM_CACTVS_HBOND_ACCEPTOR>
5

> <PUBCHEM_CACTVS_HBOND_DONOR>
1

> <PUBCHEM_CACTVS_ROTATABLE_BOND>
7

> <PUBCHEM_CACTVS_SUBSKEYS>
AAADceB7MAAAEAAAAAAAAAAAAAAAAAAAAAA8YMEAAAAAAADBVAAAHgBQAAABrAzBmAYyxsPABACIAiVSUACCCAAlIgQIiIEObOgMZjbEtZuUMWhm9hHI65e4yPCOwFADEAAYgACAoAYgADEAAAAAAAAAAA==

> <PUBCHEM_IUPAC_OPENEYE_NAME>
4-bromo-1-methoxy-N-[2-[4-(4-methoxyphenyl)piperazin-1-yl]ethyl]naphthalene-2-carboxamide

> <PUBCHEM_IUPAC_CAS_NAME>
4-bromo-1-methoxy-N-[2-[4-(4-methoxyphenyl)-1-piperazinyl]ethyl]-2-naphthalenecarboxamide

> <PUBCHEM_IUPAC_NAME_MARKUP>
4-bromo-1-methoxy-<I>N</I>-[2-[4-(4-methoxyphenyl)piperazin-1-yl]ethyl]naphthalene-2-carboxamide

> <PUBCHEM_IUPAC_NAME>
4-bromo-1-methoxy-N-[2-[4-(4-methoxyphenyl)piperazin-1-yl]ethyl]naphthalene-2-carboxamide

> <PUBCHEM_IUPAC_SYSTEMATIC_NAME>
4-bromanyl-1-methoxy-N-[2-[4-(4-methoxyphenyl)piperazin-1-yl]ethyl]naphthalene-2-carboxamide

> <PUBCHEM_IUPAC_TRADITIONAL_NAME>
4-bromo-1-methoxy-N-[2-[4-(4-methoxyphenyl)piperazino]ethyl]-2-naphthamide

> <PUBCHEM_IUPAC_INCHI>
InChI=1S/C25H28BrN3O3/c1-31-19-9-7-18(8-10-19)29-15-13-28(14-16-29)12-11-27-25(30)22-17-23(26)20-5-3-4-6-21(20)24(22)32-2/h3-10,17H,11-16H2,1-2H3,(H,27,30)

> <PUBCHEM_IUPAC_INCHIKEY>
NSSRPQDUVUJSBX-UHFFFAOYSA-N

> <PUBCHEM_XLOGP3_AA>
4.7

> <PUBCHEM_EXACT_MASS>
497.13140

> <PUBCHEM_MOLECULAR_FORMULA>
C25H28BrN3O3

> <PUBCHEM_MOLECULAR_WEIGHT>
498.4

> <PUBCHEM_OPENEYE_CAN_SMILES>
COC1=CC=C(C=C1)N2CCN(CC2)CCNC(=O)C3=C(C4=CC=CC=C4C(=C3)Br)OC

> <PUBCHEM_OPENEYE_ISO_SMILES>
COC1=CC=C(C=C1)N2CCN(CC2)CCNC(=O)C3=C(C4=CC=CC=C4C(=C3)Br)OC

> <PUBCHEM_CACTVS_TPSA>
54

> <PUBCHEM_MONOISOTOPIC_WEIGHT>
497.13140

> <PUBCHEM_TOTAL_CHARGE>
0

> <PUBCHEM_HEAVY_ATOM_COUNT>
32

> <PUBCHEM_ATOM_DEF_STEREO_COUNT>
0

> <PUBCHEM_ATOM_UDEF_STEREO_COUNT>
0

> <PUBCHEM_BOND_DEF_STEREO_COUNT>
0

> <PUBCHEM_BOND_UDEF_STEREO_COUNT>
0

> <PUBCHEM_ISOTOPIC_ATOM_COUNT>
0

> <PUBCHEM_COMPONENT_COUNT>
1

> <PUBCHEM_CACTVS_TAUTO_COUNT>
-1

> <PUBCHEM_COORDINATE_TYPE>
1
5
255

> <PUBCHEM_BONDANNOTATIONS>
13  15  8
13  16  8
15  17  8
16  18  8
17  20  8
18  20  8
21  22  8
21  24  8
22  23  8
23  25  8
23  27  8
24  26  8
25  26  8
25  28  8
27  29  8
28  30  8
29  30  8

$$$$
