146025822
  -OEChem-09292322022D

 56 59  0     1  0  0  0  0  0999 V2000
    5.4116    1.2744    0.0000 O   0  0  0  0  0  0  0  0  0  0  0  0
    3.6298    0.2640    0.0000 O   0  0  0  0  0  0  0  0  0  0  0  0
    3.6796    1.2944    0.0000 O   0  0  0  0  0  0  0  0  0  0  0  0
    2.0000   -0.3222    0.0000 O   0  0  0  0  0  0  0  0  0  0  0  0
    8.8842   -1.7571    0.0000 N   0  0  3  0  0  0  0  0  0  0  0  0
    8.0260   -1.2602    0.0000 C   0  0  1  0  0  0  0  0  0  0  0  0
    8.0260   -0.2602    0.0000 C   0  0  0  0  0  0  0  0  0  0  0  0
    7.1600   -1.7602    0.0000 C   0  0  0  0  0  0  0  0  0  0  0  0
    8.9360    0.2467    0.0000 C   0  0  0  0  0  0  0  0  0  0  0  0
    7.1600    0.2398    0.0000 C   0  0  0  0  0  0  0  0  0  0  0  0
    9.7497   -1.2729    0.0000 C   0  0  0  0  0  0  0  0  0  0  0  0
    6.2940   -1.2602    0.0000 C   0  0  0  0  0  0  0  0  0  0  0  0
    9.7753   -0.2816    0.0000 C   0  0  0  0  0  0  0  0  0  0  0  0
    6.2940   -0.2602    0.0000 C   0  0  0  0  0  0  0  0  0  0  0  0
    5.4000   -1.7948    0.0000 C   0  0  0  0  0  0  0  0  0  0  0  0
    8.8768   -2.7571    0.0000 C   0  0  0  0  0  0  0  0  0  0  0  0
    8.9440    1.2883    0.0000 C   0  0  0  0  0  0  0  0  0  0  0  0
    5.4000    0.2745    0.0000 C   0  0  0  0  0  0  0  0  0  0  0  0
    7.1439    1.2813    0.0000 C   0  0  0  0  0  0  0  0  0  0  0  0
    4.4940   -1.2810    0.0000 C   0  0  0  0  0  0  0  0  0  0  0  0
    4.4940   -0.2394    0.0000 C   0  0  0  0  0  0  0  0  0  0  0  0
    8.0420    1.8091    0.0000 C   0  0  0  0  0  0  0  0  0  0  0  0
    3.6298   -1.7843    0.0000 C   0  0  0  0  0  0  0  0  0  0  0  0
    3.6337   -2.7843    0.0000 C   0  0  0  0  0  0  0  0  0  0  0  0
    2.6457   -1.9618    0.0000 C   0  0  0  0  0  0  0  0  0  0  0  0
    4.5514    1.7844    0.0000 C   0  0  0  0  0  0  0  0  0  0  0  0
    2.6457    0.4414    0.0000 C   0  0  0  0  0  0  0  0  0  0  0  0
    4.5630    2.7843    0.0000 C   0  0  0  0  0  0  0  0  0  0  0  0
    2.3073    1.3824    0.0000 C   0  0  0  0  0  0  0  0  0  0  0  0
    8.0255   -2.1102    0.0000 H   0  0  0  0  0  0  0  0  0  0  0  0
    6.7614   -2.2351    0.0000 H   0  0  0  0  0  0  0  0  0  0  0  0
    7.5585   -2.2351    0.0000 H   0  0  0  0  0  0  0  0  0  0  0  0
    9.9514   -1.8592    0.0000 H   0  0  0  0  0  0  0  0  0  0  0  0
   10.3625   -1.1786    0.0000 H   0  0  0  0  0  0  0  0  0  0  0  0
   10.3824   -0.4075    0.0000 H   0  0  0  0  0  0  0  0  0  0  0  0
   10.0071    0.2935    0.0000 H   0  0  0  0  0  0  0  0  0  0  0  0
    5.4072   -2.4148    0.0000 H   0  0  0  0  0  0  0  0  0  0  0  0
    8.2568   -2.7525    0.0000 H   0  0  0  0  0  0  0  0  0  0  0  0
    8.8722   -3.3771    0.0000 H   0  0  0  0  0  0  0  0  0  0  0  0
    9.4968   -2.7617    0.0000 H   0  0  0  0  0  0  0  0  0  0  0  0
    9.4822    1.5962    0.0000 H   0  0  0  0  0  0  0  0  0  0  0  0
    6.6034    1.5851    0.0000 H   0  0  0  0  0  0  0  0  0  0  0  0
    8.0396    2.4291    0.0000 H   0  0  0  0  0  0  0  0  0  0  0  0
    3.4156   -1.2026    0.0000 H   0  0  0  0  0  0  0  0  0  0  0  0
    3.0137   -2.7867    0.0000 H   0  0  0  0  0  0  0  0  0  0  0  0
    3.6361   -3.4043    0.0000 H   0  0  0  0  0  0  0  0  0  0  0  0
    4.2537   -2.7819    0.0000 H   0  0  0  0  0  0  0  0  0  0  0  0
    2.5357   -1.3516    0.0000 H   0  0  0  0  0  0  0  0  0  0  0  0
    2.0356   -2.0718    0.0000 H   0  0  0  0  0  0  0  0  0  0  0  0
    2.7557   -2.5719    0.0000 H   0  0  0  0  0  0  0  0  0  0  0  0
    5.1829    2.7772    0.0000 H   0  0  0  0  0  0  0  0  0  0  0  0
    4.5701    3.4043    0.0000 H   0  0  0  0  0  0  0  0  0  0  0  0
    3.9430    2.7915    0.0000 H   0  0  0  0  0  0  0  0  0  0  0  0
    2.8908    1.5922    0.0000 H   0  0  0  0  0  0  0  0  0  0  0  0
    2.0975    1.9658    0.0000 H   0  0  0  0  0  0  0  0  0  0  0  0
    1.7239    1.1726    0.0000 H   0  0  0  0  0  0  0  0  0  0  0  0
  1 18  1  0  0  0  0
  1 26  1  0  0  0  0
  2 21  1  0  0  0  0
  2 27  1  0  0  0  0
  3 26  2  0  0  0  0
  4 27  2  0  0  0  0
  5  6  1  0  0  0  0
  5 11  1  0  0  0  0
  5 16  1  0  0  0  0
  6  7  1  0  0  0  0
  6  8  1  0  0  0  0
  6 30  1  1  0  0  0
  7  9  2  0  0  0  0
  7 10  1  0  0  0  0
  8 12  1  0  0  0  0
  8 31  1  0  0  0  0
  8 32  1  0  0  0  0
  9 13  1  0  0  0  0
  9 17  1  0  0  0  0
 10 14  1  0  0  0  0
 10 19  2  0  0  0  0
 11 13  1  0  0  0  0
 11 33  1  0  0  0  0
 11 34  1  0  0  0  0
 12 14  1  0  0  0  0
 12 15  2  0  0  0  0
 13 35  1  0  0  0  0
 13 36  1  0  0  0  0
 14 18  2  0  0  0  0
 15 20  1  0  0  0  0
 15 37  1  0  0  0  0
 16 38  1  0  0  0  0
 16 39  1  0  0  0  0
 16 40  1  0  0  0  0
 17 22  2  0  0  0  0
 17 41  1  0  0  0  0
 18 21  1  0  0  0  0
 19 22  1  0  0  0  0
 19 42  1  0  0  0  0
 20 21  2  0  0  0  0
 20 23  1  0  0  0  0
 22 43  1  0  0  0  0
 23 24  1  0  0  0  0
 23 25  1  0  0  0  0
 23 44  1  0  0  0  0
 24 45  1  0  0  0  0
 24 46  1  0  0  0  0
 24 47  1  0  0  0  0
 25 48  1  0  0  0  0
 25 49  1  0  0  0  0
 25 50  1  0  0  0  0
 26 28  1  0  0  0  0
 27 29  1  0  0  0  0
 28 51  1  0  0  0  0
 28 52  1  0  0  0  0
 28 53  1  0  0  0  0
 29 54  1  0  0  0  0
 29 55  1  0  0  0  0
 29 56  1  0  0  0  0
M  END
> <PUBCHEM_COMPOUND_CID>
146025822

> <PUBCHEM_COMPOUND_CANONICALIZED>
1

> <PUBCHEM_CACTVS_COMPLEXITY>
634

> <PUBCHEM_CACTVS_HBOND_ACCEPTOR>
5

> <PUBCHEM_CACTVS_HBOND_DONOR>
0

> <PUBCHEM_CACTVS_ROTATABLE_BOND>
5

> <PUBCHEM_CACTVS_SUBSKEYS>
AAADceB6OAAAAAAAAAAAAAAAAAAAAAAAAAA8YMEAAAAAAADxQAAAHgAAAAAADSzBmAQyDoMABACIAiDSCACCCAAgIAAIiAAMjIgNJiKEsRuGOirkwBGKqAeQ0PMO4AADAAAYQADQAAaAADSAAAAAAAAAAA==

> <PUBCHEM_IUPAC_OPENEYE_NAME>
[(6aR)-11-acetoxy-9-isopropyl-6-methyl-5,6,6a,7-tetrahydro-4H-dibenzo[de,g]quinolin-10-yl] acetate

> <PUBCHEM_IUPAC_CAS_NAME>
acetic acid [(6aR)-11-acetyloxy-6-methyl-9-propan-2-yl-5,6,6a,7-tetrahydro-4H-dibenzo[de,g]quinolin-10-yl] ester

> <PUBCHEM_IUPAC_NAME_MARKUP>
[(6<I>a</I><I>R</I>)-11-acetyloxy-6-methyl-9-propan-2-yl-5,6,6<I>a</I>,7-tetrahydro-4<I>H</I>-dibenzo[de,g]quinolin-10-yl] acetate

> <PUBCHEM_IUPAC_NAME>
[(6aR)-11-acetyloxy-6-methyl-9-propan-2-yl-5,6,6a,7-tetrahydro-4H-dibenzo[de,g]quinolin-10-yl] acetate

> <PUBCHEM_IUPAC_SYSTEMATIC_NAME>
[(6aR)-11-acetyloxy-6-methyl-9-propan-2-yl-5,6,6a,7-tetrahydro-4H-dibenzo[de,g]quinolin-10-yl] ethanoate

> <PUBCHEM_IUPAC_TRADITIONAL_NAME>
acetic acid [(6aR)-11-acetoxy-9-isopropyl-6-methyl-5,6,6a,7-tetrahydro-4H-dibenzo[de,g]quinolin-10-yl] ester

> <PUBCHEM_IUPAC_INCHI>
InChI=1S/C24H27NO4/c1-13(2)19-11-17-12-20-21-16(9-10-25(20)5)7-6-8-18(21)22(17)24(29-15(4)27)23(19)28-14(3)26/h6-8,11,13,20H,9-10,12H2,1-5H3/t20-/m1/s1

> <PUBCHEM_IUPAC_INCHIKEY>
KFEHEEITVOEJOF-HXUWFJFHSA-N

> <PUBCHEM_XLOGP3_AA>
4.1

> <PUBCHEM_EXACT_MASS>
393.19400834

> <PUBCHEM_MOLECULAR_FORMULA>
C24H27NO4

> <PUBCHEM_MOLECULAR_WEIGHT>
393.5

> <PUBCHEM_OPENEYE_CAN_SMILES>
CC(C)C1=C(C(=C2C(=C1)CC3C4=C(CCN3C)C=CC=C42)OC(=O)C)OC(=O)C

> <PUBCHEM_OPENEYE_ISO_SMILES>
CC(C)C1=C(C(=C2C(=C1)C[C@@H]3C4=C(CCN3C)C=CC=C42)OC(=O)C)OC(=O)C

> <PUBCHEM_CACTVS_TPSA>
55.8

> <PUBCHEM_MONOISOTOPIC_WEIGHT>
393.19400834

> <PUBCHEM_TOTAL_CHARGE>
0

> <PUBCHEM_HEAVY_ATOM_COUNT>
29

> <PUBCHEM_ATOM_DEF_STEREO_COUNT>
1

> <PUBCHEM_ATOM_UDEF_STEREO_COUNT>
0

> <PUBCHEM_BOND_DEF_STEREO_COUNT>
0

> <PUBCHEM_BOND_UDEF_STEREO_COUNT>
0

> <PUBCHEM_ISOTOPIC_ATOM_COUNT>
0

> <PUBCHEM_COMPONENT_COUNT>
1

> <PUBCHEM_CACTVS_TAUTO_COUNT>
-1

> <PUBCHEM_COORDINATE_TYPE>
1
5
255

> <PUBCHEM_BONDANNOTATIONS>
10  19  8
12  14  8
12  15  8
14  18  8
15  20  8
17  22  8
18  21  8
19  22  8
20  21  8
6  30  5
7  10  8
7  9  8
9  17  8

$$$$
