130431351
  -OEChem-09292322422D

 66 69  0     0  0  0  0  0  0999 V2000
   15.7619   -0.6020    0.0000 Cl  0  0  0  0  0  0  0  0  0  0  0  0
   13.7619   -0.6020    0.0000 O   0  0  0  0  0  0  0  0  0  0  0  0
    6.7619   -2.3341    0.0000 O   0  0  0  0  0  0  0  0  0  0  0  0
   10.7619    1.1300    0.0000 N   0  0  0  0  0  0  0  0  0  0  0  0
   12.7619    1.1300    0.0000 N   0  0  0  0  0  0  0  0  0  0  0  0
    6.7619   -0.6020    0.0000 N   0  0  0  0  0  0  0  0  0  0  0  0
    4.6783   -2.2728    0.0000 N   0  0  0  0  0  0  0  0  0  0  0  0
   11.2619    0.2640    0.0000 C   0  0  0  0  0  0  0  0  0  0  0  0
   11.2619    1.9961    0.0000 C   0  0  0  0  0  0  0  0  0  0  0  0
   12.2619    0.2640    0.0000 C   0  0  0  0  0  0  0  0  0  0  0  0
   12.2619    1.9961    0.0000 C   0  0  0  0  0  0  0  0  0  0  0  0
    9.7619    1.1300    0.0000 C   0  0  0  0  0  0  0  0  0  0  0  0
    9.2619    0.2640    0.0000 C   0  0  0  0  0  0  0  0  0  0  0  0
   13.7619    1.1300    0.0000 C   0  0  0  0  0  0  0  0  0  0  0  0
    8.2619    0.2640    0.0000 C   0  0  0  0  0  0  0  0  0  0  0  0
   14.2619    1.9961    0.0000 C   0  0  0  0  0  0  0  0  0  0  0  0
   14.2619    0.2640    0.0000 C   0  0  0  0  0  0  0  0  0  0  0  0
    7.7619   -0.6020    0.0000 C   0  0  0  0  0  0  0  0  0  0  0  0
   15.2619    1.9961    0.0000 C   0  0  0  0  0  0  0  0  0  0  0  0
   15.2619    0.2640    0.0000 C   0  0  0  0  0  0  0  0  0  0  0  0
   15.7619    1.1300    0.0000 C   0  0  0  0  0  0  0  0  0  0  0  0
   15.7619    2.8621    0.0000 C   0  0  0  0  0  0  0  0  0  0  0  0
    6.2619   -1.4680    0.0000 C   0  0  0  0  0  0  0  0  0  0  0  0
   16.7619    2.8621    0.0000 C   0  0  0  0  0  0  0  0  0  0  0  0
    5.2619   -1.4680    0.0000 C   0  0  0  0  0  0  0  0  0  0  0  0
   14.2619   -1.4680    0.0000 C   0  0  0  0  0  0  0  0  0  0  0  0
    4.6783   -0.6633    0.0000 C   0  0  0  0  0  0  0  0  0  0  0  0
    3.7320   -1.9680    0.0000 C   0  0  0  0  0  0  0  0  0  0  0  0
    3.7320   -0.9680    0.0000 C   0  0  0  0  0  0  0  0  0  0  0  0
    2.8660   -2.4680    0.0000 C   0  0  0  0  0  0  0  0  0  0  0  0
    2.8660   -0.4680    0.0000 C   0  0  0  0  0  0  0  0  0  0  0  0
    2.0000   -1.9680    0.0000 C   0  0  0  0  0  0  0  0  0  0  0  0
    2.0000   -0.9680    0.0000 C   0  0  0  0  0  0  0  0  0  0  0  0
   10.6793    0.0520    0.0000 H   0  0  0  0  0  0  0  0  0  0  0  0
   11.3695   -0.3466    0.0000 H   0  0  0  0  0  0  0  0  0  0  0  0
   11.3695    2.6066    0.0000 H   0  0  0  0  0  0  0  0  0  0  0  0
   10.6793    2.2081    0.0000 H   0  0  0  0  0  0  0  0  0  0  0  0
   12.1542   -0.3466    0.0000 H   0  0  0  0  0  0  0  0  0  0  0  0
   12.8445    0.0520    0.0000 H   0  0  0  0  0  0  0  0  0  0  0  0
   12.8445    2.2081    0.0000 H   0  0  0  0  0  0  0  0  0  0  0  0
   12.1542    2.6066    0.0000 H   0  0  0  0  0  0  0  0  0  0  0  0
    9.8695    1.7406    0.0000 H   0  0  0  0  0  0  0  0  0  0  0  0
    9.1793    1.3421    0.0000 H   0  0  0  0  0  0  0  0  0  0  0  0
    9.1542   -0.3466    0.0000 H   0  0  0  0  0  0  0  0  0  0  0  0
    9.8445    0.0520    0.0000 H   0  0  0  0  0  0  0  0  0  0  0  0
    8.3695    0.8746    0.0000 H   0  0  0  0  0  0  0  0  0  0  0  0
    7.6793    0.4761    0.0000 H   0  0  0  0  0  0  0  0  0  0  0  0
   13.9519    2.5330    0.0000 H   0  0  0  0  0  0  0  0  0  0  0  0
    7.6542   -1.2126    0.0000 H   0  0  0  0  0  0  0  0  0  0  0  0
    8.3445   -0.8141    0.0000 H   0  0  0  0  0  0  0  0  0  0  0  0
   16.3819    1.1300    0.0000 H   0  0  0  0  0  0  0  0  0  0  0  0
   15.8695    3.4727    0.0000 H   0  0  0  0  0  0  0  0  0  0  0  0
   15.1793    3.0741    0.0000 H   0  0  0  0  0  0  0  0  0  0  0  0
    6.4519   -0.0651    0.0000 H   0  0  0  0  0  0  0  0  0  0  0  0
   16.7619    2.2421    0.0000 H   0  0  0  0  0  0  0  0  0  0  0  0
   17.3819    2.8621    0.0000 H   0  0  0  0  0  0  0  0  0  0  0  0
   16.7619    3.4821    0.0000 H   0  0  0  0  0  0  0  0  0  0  0  0
   13.7249   -1.7780    0.0000 H   0  0  0  0  0  0  0  0  0  0  0  0
   14.5719   -2.0050    0.0000 H   0  0  0  0  0  0  0  0  0  0  0  0
   14.7988   -1.1580    0.0000 H   0  0  0  0  0  0  0  0  0  0  0  0
    4.8709   -2.8621    0.0000 H   0  0  0  0  0  0  0  0  0  0  0  0
    4.8709   -0.0740    0.0000 H   0  0  0  0  0  0  0  0  0  0  0  0
    2.8660   -3.0880    0.0000 H   0  0  0  0  0  0  0  0  0  0  0  0
    2.8660    0.1520    0.0000 H   0  0  0  0  0  0  0  0  0  0  0  0
    1.4631   -2.2780    0.0000 H   0  0  0  0  0  0  0  0  0  0  0  0
    1.4631   -0.6580    0.0000 H   0  0  0  0  0  0  0  0  0  0  0  0
  1 20  1  0  0  0  0
  2 17  1  0  0  0  0
  2 26  1  0  0  0  0
  3 23  2  0  0  0  0
  4  8  1  0  0  0  0
  4  9  1  0  0  0  0
  4 12  1  0  0  0  0
  5 10  1  0  0  0  0
  5 11  1  0  0  0  0
  5 14  1  0  0  0  0
  6 18  1  0  0  0  0
  6 23  1  0  0  0  0
  6 54  1  0  0  0  0
  7 25  1  0  0  0  0
  7 28  1  0  0  0  0
  7 61  1  0  0  0  0
  8 10  1  0  0  0  0
  8 34  1  0  0  0  0
  8 35  1  0  0  0  0
  9 11  1  0  0  0  0
  9 36  1  0  0  0  0
  9 37  1  0  0  0  0
 10 38  1  0  0  0  0
 10 39  1  0  0  0  0
 11 40  1  0  0  0  0
 11 41  1  0  0  0  0
 12 13  1  0  0  0  0
 12 42  1  0  0  0  0
 12 43  1  0  0  0  0
 13 15  1  0  0  0  0
 13 44  1  0  0  0  0
 13 45  1  0  0  0  0
 14 16  1  0  0  0  0
 14 17  2  0  0  0  0
 15 18  1  0  0  0  0
 15 46  1  0  0  0  0
 15 47  1  0  0  0  0
 16 19  2  0  0  0  0
 16 48  1  0  0  0  0
 17 20  1  0  0  0  0
 18 49  1  0  0  0  0
 18 50  1  0  0  0  0
 19 21  1  0  0  0  0
 19 22  1  0  0  0  0
 20 21  2  0  0  0  0
 21 51  1  0  0  0  0
 22 24  1  0  0  0  0
 22 52  1  0  0  0  0
 22 53  1  0  0  0  0
 23 25  1  0  0  0  0
 24 55  1  0  0  0  0
 24 56  1  0  0  0  0
 24 57  1  0  0  0  0
 25 27  2  0  0  0  0
 26 58  1  0  0  0  0
 26 59  1  0  0  0  0
 26 60  1  0  0  0  0
 27 29  1  0  0  0  0
 27 62  1  0  0  0  0
 28 29  1  0  0  0  0
 28 30  2  0  0  0  0
 29 31  2  0  0  0  0
 30 32  1  0  0  0  0
 30 63  1  0  0  0  0
 31 33  1  0  0  0  0
 31 64  1  0  0  0  0
 32 33  2  0  0  0  0
 32 65  1  0  0  0  0
 33 66  1  0  0  0  0
M  END
> <PUBCHEM_COMPOUND_CID>
130431351

> <PUBCHEM_COMPOUND_CANONICALIZED>
1

> <PUBCHEM_CACTVS_COMPLEXITY>
615

> <PUBCHEM_CACTVS_HBOND_ACCEPTOR>
4

> <PUBCHEM_CACTVS_HBOND_DONOR>
2

> <PUBCHEM_CACTVS_ROTATABLE_BOND>
9

> <PUBCHEM_CACTVS_SUBSKEYS>
AAADcfB7sAAEAAAAAAAAAAAAAAAAAWAAAAA8YIAAAAAAAFgB9AAAHgIQAAAADA7BniYyxvPJlACoAyVyVACCiCAnJ2AImaG9b9gOZvPFt7uVMShk1hHY6YeYyYCeIAAAYAICGABAAADABAQwAAAAAAAAAA==

> <PUBCHEM_IUPAC_OPENEYE_NAME>
N-[4-[4-(3-chloro-5-ethyl-2-methoxy-phenyl)piperazin-1-yl]butyl]-1H-indole-2-carboxamide

> <PUBCHEM_IUPAC_CAS_NAME>
N-[4-[4-(3-chloro-5-ethyl-2-methoxyphenyl)-1-piperazinyl]butyl]-1H-indole-2-carboxamide

> <PUBCHEM_IUPAC_NAME_MARKUP>
<I>N</I>-[4-[4-(3-chloro-5-ethyl-2-methoxyphenyl)piperazin-1-yl]butyl]-1<I>H</I>-indole-2-carboxamide

> <PUBCHEM_IUPAC_NAME>
N-[4-[4-(3-chloro-5-ethyl-2-methoxyphenyl)piperazin-1-yl]butyl]-1H-indole-2-carboxamide

> <PUBCHEM_IUPAC_SYSTEMATIC_NAME>
N-[4-[4-(3-chloranyl-5-ethyl-2-methoxy-phenyl)piperazin-1-yl]butyl]-1H-indole-2-carboxamide

> <PUBCHEM_IUPAC_TRADITIONAL_NAME>
N-[4-[4-(3-chloro-5-ethyl-2-methoxy-phenyl)piperazino]butyl]-1H-indole-2-carboxamide

> <PUBCHEM_IUPAC_INCHI>
InChI=1S/C26H33ClN4O2/c1-3-19-16-21(27)25(33-2)24(17-19)31-14-12-30(13-15-31)11-7-6-10-28-26(32)23-18-20-8-4-5-9-22(20)29-23/h4-5,8-9,16-18,29H,3,6-7,10-15H2,1-2H3,(H,28,32)

> <PUBCHEM_IUPAC_INCHIKEY>
KGNGZUOBKTUHGP-UHFFFAOYSA-N

> <PUBCHEM_XLOGP3_AA>
5.4

> <PUBCHEM_EXACT_MASS>
468.2292040

> <PUBCHEM_MOLECULAR_FORMULA>
C26H33ClN4O2

> <PUBCHEM_MOLECULAR_WEIGHT>
469.0

> <PUBCHEM_OPENEYE_CAN_SMILES>
CCC1=CC(=C(C(=C1)Cl)OC)N2CCN(CC2)CCCCNC(=O)C3=CC4=CC=CC=C4N3

> <PUBCHEM_OPENEYE_ISO_SMILES>
CCC1=CC(=C(C(=C1)Cl)OC)N2CCN(CC2)CCCCNC(=O)C3=CC4=CC=CC=C4N3

> <PUBCHEM_CACTVS_TPSA>
60.6

> <PUBCHEM_MONOISOTOPIC_WEIGHT>
468.2292040

> <PUBCHEM_TOTAL_CHARGE>
0

> <PUBCHEM_HEAVY_ATOM_COUNT>
33

> <PUBCHEM_ATOM_DEF_STEREO_COUNT>
0

> <PUBCHEM_ATOM_UDEF_STEREO_COUNT>
0

> <PUBCHEM_BOND_DEF_STEREO_COUNT>
0

> <PUBCHEM_BOND_UDEF_STEREO_COUNT>
0

> <PUBCHEM_ISOTOPIC_ATOM_COUNT>
0

> <PUBCHEM_COMPONENT_COUNT>
1

> <PUBCHEM_CACTVS_TAUTO_COUNT>
-1

> <PUBCHEM_COORDINATE_TYPE>
1
5
255

> <PUBCHEM_BONDANNOTATIONS>
14  16  8
14  17  8
16  19  8
17  20  8
19  21  8
20  21  8
25  27  8
27  29  8
28  29  8
28  30  8
29  31  8
30  32  8
31  33  8
32  33  8
7  25  8
7  28  8

$$$$
