129186527
  -OEChem-09292322062D

 61 65  0     1  0  0  0  0  0999 V2000
   13.4011   -0.7897    0.0000 S   0  0  0  0  0  0  0  0  0  0  0  0
    2.6200    2.9496    0.0000 O   0  0  0  0  0  0  0  0  0  0  0  0
    4.8699   -0.9568    0.0000 O   0  0  0  0  0  0  0  0  0  0  0  0
    4.0038    0.5432    0.0000 N   0  0  0  0  0  0  0  0  0  0  0  0
    8.3340    0.0432    0.0000 N   0  0  0  0  0  0  0  0  0  0  0  0
   10.0660   -0.9568    0.0000 N   0  0  0  0  0  0  0  0  0  0  0  0
    4.8699    2.0432    0.0000 N   0  0  0  0  0  0  0  0  0  0  0  0
    3.1099    2.0779    0.0000 C   0  0  3  0  0  0  0  0  0  0  0  0
    2.2038    1.5640    0.0000 C   0  0  0  0  0  0  0  0  0  0  0  0
    2.2038    0.5224    0.0000 C   0  0  0  0  0  0  0  0  0  0  0  0
    4.0038    1.5432    0.0000 C   0  0  0  0  0  0  0  0  0  0  0  0
    3.1099    0.0085    0.0000 C   0  0  0  0  0  0  0  0  0  0  0  0
    9.2000    0.5432    0.0000 C   0  0  0  0  0  0  0  0  0  0  0  0
    8.3340   -0.9568    0.0000 C   0  0  0  0  0  0  0  0  0  0  0  0
    7.4680    0.5432    0.0000 C   0  0  0  0  0  0  0  0  0  0  0  0
   10.0660    0.0432    0.0000 C   0  0  0  0  0  0  0  0  0  0  0  0
    9.2000   -1.4568    0.0000 C   0  0  0  0  0  0  0  0  0  0  0  0
    6.6019    0.0432    0.0000 C   0  0  0  0  0  0  0  0  0  0  0  0
    5.7359    0.5432    0.0000 C   0  0  0  0  0  0  0  0  0  0  0  0
    4.8699    0.0432    0.0000 C   0  0  0  0  0  0  0  0  0  0  0  0
    3.6199    2.9381    0.0000 C   0  0  0  0  0  0  0  0  0  0  0  0
    5.7359    1.5432    0.0000 C   0  0  0  0  0  0  0  0  0  0  0  0
   10.9321   -1.4568    0.0000 C   0  0  0  0  0  0  0  0  0  0  0  0
   11.7981   -0.9568    0.0000 C   0  0  0  0  0  0  0  0  0  0  0  0
    6.6019    2.0432    0.0000 C   0  0  0  0  0  0  0  0  0  0  0  0
   10.9321   -2.4568    0.0000 C   0  0  0  0  0  0  0  0  0  0  0  0
   12.6641   -1.4568    0.0000 C   0  0  0  0  0  0  0  0  0  0  0  0
   12.0073    0.0150    0.0000 C   0  0  0  0  0  0  0  0  0  0  0  0
   11.7981   -2.9568    0.0000 C   0  0  0  0  0  0  0  0  0  0  0  0
   12.6641   -2.4568    0.0000 C   0  0  0  0  0  0  0  0  0  0  0  0
   12.9960    0.1181    0.0000 C   0  0  0  0  0  0  0  0  0  0  0  0
    1.9948    2.1477    0.0000 H   0  0  0  0  0  0  0  0  0  0  0  0
    1.5930    1.4579    0.0000 H   0  0  0  0  0  0  0  0  0  0  0  0
    1.5930    0.6285    0.0000 H   0  0  0  0  0  0  0  0  0  0  0  0
    1.9948   -0.0613    0.0000 H   0  0  0  0  0  0  0  0  0  0  0  0
    2.7163   -0.4705    0.0000 H   0  0  0  0  0  0  0  0  0  0  0  0
    3.5145   -0.4612    0.0000 H   0  0  0  0  0  0  0  0  0  0  0  0
    9.5985    1.0182    0.0000 H   0  0  0  0  0  0  0  0  0  0  0  0
    8.8015    1.0182    0.0000 H   0  0  0  0  0  0  0  0  0  0  0  0
    7.7234   -0.8491    0.0000 H   0  0  0  0  0  0  0  0  0  0  0  0
    8.1219   -1.5394    0.0000 H   0  0  0  0  0  0  0  0  0  0  0  0
    7.8665    1.0182    0.0000 H   0  0  0  0  0  0  0  0  0  0  0  0
    7.0694    1.0182    0.0000 H   0  0  0  0  0  0  0  0  0  0  0  0
   10.6766   -0.0645    0.0000 H   0  0  0  0  0  0  0  0  0  0  0  0
   10.2781    0.6258    0.0000 H   0  0  0  0  0  0  0  0  0  0  0  0
    8.8015   -1.9317    0.0000 H   0  0  0  0  0  0  0  0  0  0  0  0
    9.5985   -1.9317    0.0000 H   0  0  0  0  0  0  0  0  0  0  0  0
    6.2034   -0.4317    0.0000 H   0  0  0  0  0  0  0  0  0  0  0  0
    7.0005   -0.4317    0.0000 H   0  0  0  0  0  0  0  0  0  0  0  0
    4.1532    2.6219    0.0000 H   0  0  0  0  0  0  0  0  0  0  0  0
    3.9361    3.4714    0.0000 H   0  0  0  0  0  0  0  0  0  0  0  0
    3.0866    3.2542    0.0000 H   0  0  0  0  0  0  0  0  0  0  0  0
    2.0000    2.9568    0.0000 H   0  0  0  0  0  0  0  0  0  0  0  0
    6.9119    1.5063    0.0000 H   0  0  0  0  0  0  0  0  0  0  0  0
    7.1389    2.3532    0.0000 H   0  0  0  0  0  0  0  0  0  0  0  0
    6.2919    2.5802    0.0000 H   0  0  0  0  0  0  0  0  0  0  0  0
   10.3951   -2.7668    0.0000 H   0  0  0  0  0  0  0  0  0  0  0  0
   11.5932    0.4765    0.0000 H   0  0  0  0  0  0  0  0  0  0  0  0
   11.7981   -3.5768    0.0000 H   0  0  0  0  0  0  0  0  0  0  0  0
   13.2010   -2.7668    0.0000 H   0  0  0  0  0  0  0  0  0  0  0  0
   13.3060    0.6550    0.0000 H   0  0  0  0  0  0  0  0  0  0  0  0
  1 27  1  0  0  0  0
  1 31  1  0  0  0  0
  2  8  1  0  0  0  0
  2 53  1  0  0  0  0
  3 20  2  0  0  0  0
  4 11  1  0  0  0  0
  4 12  1  0  0  0  0
  4 20  1  0  0  0  0
  5 13  1  0  0  0  0
  5 14  1  0  0  0  0
  5 15  1  0  0  0  0
  6 16  1  0  0  0  0
  6 17  1  0  0  0  0
  6 23  1  0  0  0  0
  7 11  2  0  0  0  0
  7 22  1  0  0  0  0
  8  9  1  0  0  0  0
  8 11  1  0  0  0  0
  8 21  1  0  0  0  0
  9 10  1  0  0  0  0
  9 32  1  0  0  0  0
  9 33  1  0  0  0  0
 10 12  1  0  0  0  0
 10 34  1  0  0  0  0
 10 35  1  0  0  0  0
 12 36  1  0  0  0  0
 12 37  1  0  0  0  0
 13 16  1  0  0  0  0
 13 38  1  0  0  0  0
 13 39  1  0  0  0  0
 14 17  1  0  0  0  0
 14 40  1  0  0  0  0
 14 41  1  0  0  0  0
 15 18  1  0  0  0  0
 15 42  1  0  0  0  0
 15 43  1  0  0  0  0
 16 44  1  0  0  0  0
 16 45  1  0  0  0  0
 17 46  1  0  0  0  0
 17 47  1  0  0  0  0
 18 19  1  0  0  0  0
 18 48  1  0  0  0  0
 18 49  1  0  0  0  0
 19 20  1  0  0  0  0
 19 22  2  0  0  0  0
 21 50  1  0  0  0  0
 21 51  1  0  0  0  0
 21 52  1  0  0  0  0
 22 25  1  0  0  0  0
 23 24  2  0  0  0  0
 23 26  1  0  0  0  0
 24 27  1  0  0  0  0
 24 28  1  0  0  0  0
 25 54  1  0  0  0  0
 25 55  1  0  0  0  0
 25 56  1  0  0  0  0
 26 29  2  0  0  0  0
 26 57  1  0  0  0  0
 27 30  2  0  0  0  0
 28 31  2  0  0  0  0
 28 58  1  0  0  0  0
 29 30  1  0  0  0  0
 29 59  1  0  0  0  0
 30 60  1  0  0  0  0
 31 61  1  0  0  0  0
M  END
> <PUBCHEM_COMPOUND_CID>
129186527

> <PUBCHEM_COMPOUND_CANONICALIZED>
1

> <PUBCHEM_CACTVS_COMPLEXITY>
776

> <PUBCHEM_CACTVS_HBOND_ACCEPTOR>
6

> <PUBCHEM_CACTVS_HBOND_DONOR>
1

> <PUBCHEM_CACTVS_ROTATABLE_BOND>
4

> <PUBCHEM_CACTVS_SUBSKEYS>
AAADceB7sABAAAAAAAAAAAAAAAAAASAAAAA8WIEAAAAAAEiB8AAAHgQACAAADEzF2ASzwcMAAgisAidydASDAIEhChBJiBkoZMgKYDLgmZGUYAxkhgD4yUc0gIAOAAAAACAGAAAAAAAAQAwAAAAAAAAAAA==

> <PUBCHEM_IUPAC_OPENEYE_NAME>
3-[2-[4-(benzothiophen-4-yl)piperazin-1-yl]ethyl]-9-hydroxy-2,9-dimethyl-7,8-dihydro-6H-pyrido[1,2-a]pyrimidin-4-one

> <PUBCHEM_IUPAC_CAS_NAME>
3-[2-[4-(1-benzothiophen-4-yl)-1-piperazinyl]ethyl]-9-hydroxy-2,9-dimethyl-7,8-dihydro-6H-pyrido[1,2-a]pyrimidin-4-one

> <PUBCHEM_IUPAC_NAME_MARKUP>
3-[2-[4-(1-benzothiophen-4-yl)piperazin-1-yl]ethyl]-9-hydroxy-2,9-dimethyl-7,8-dihydro-6<I>H</I>-pyrido[1,2-a]pyrimidin-4-one

> <PUBCHEM_IUPAC_NAME>
3-[2-[4-(1-benzothiophen-4-yl)piperazin-1-yl]ethyl]-9-hydroxy-2,9-dimethyl-7,8-dihydro-6H-pyrido[1,2-a]pyrimidin-4-one

> <PUBCHEM_IUPAC_SYSTEMATIC_NAME>
3-[2-[4-(1-benzothiophen-4-yl)piperazin-1-yl]ethyl]-2,9-dimethyl-9-oxidanyl-7,8-dihydro-6H-pyrido[1,2-a]pyrimidin-4-one

> <PUBCHEM_IUPAC_TRADITIONAL_NAME>
3-[2-[4-(benzothiophen-4-yl)piperazino]ethyl]-9-hydroxy-2,9-dimethyl-7,8-dihydro-6H-pyrido[1,2-a]pyrimidin-4-one

> <PUBCHEM_IUPAC_INCHI>
InChI=1S/C24H30N4O2S/c1-17-18(22(29)28-10-4-9-24(2,30)23(28)25-17)7-11-26-12-14-27(15-13-26)20-5-3-6-21-19(20)8-16-31-21/h3,5-6,8,16,30H,4,7,9-15H2,1-2H3

> <PUBCHEM_IUPAC_INCHIKEY>
FIIKFPYCOKYZNU-UHFFFAOYSA-N

> <PUBCHEM_XLOGP3_AA>
2.8

> <PUBCHEM_EXACT_MASS>
438.20894739

> <PUBCHEM_MOLECULAR_FORMULA>
C24H30N4O2S

> <PUBCHEM_MOLECULAR_WEIGHT>
438.6

> <PUBCHEM_OPENEYE_CAN_SMILES>
CC1=C(C(=O)N2CCCC(C2=N1)(C)O)CCN3CCN(CC3)C4=C5C=CSC5=CC=C4

> <PUBCHEM_OPENEYE_ISO_SMILES>
CC1=C(C(=O)N2CCCC(C2=N1)(C)O)CCN3CCN(CC3)C4=C5C=CSC5=CC=C4

> <PUBCHEM_CACTVS_TPSA>
87.6

> <PUBCHEM_MONOISOTOPIC_WEIGHT>
438.20894739

> <PUBCHEM_TOTAL_CHARGE>
0

> <PUBCHEM_HEAVY_ATOM_COUNT>
31

> <PUBCHEM_ATOM_DEF_STEREO_COUNT>
0

> <PUBCHEM_ATOM_UDEF_STEREO_COUNT>
1

> <PUBCHEM_BOND_DEF_STEREO_COUNT>
0

> <PUBCHEM_BOND_UDEF_STEREO_COUNT>
0

> <PUBCHEM_ISOTOPIC_ATOM_COUNT>
0

> <PUBCHEM_COMPONENT_COUNT>
1

> <PUBCHEM_CACTVS_TAUTO_COUNT>
-1

> <PUBCHEM_COORDINATE_TYPE>
1
5
255

> <PUBCHEM_BONDANNOTATIONS>
1  27  8
1  31  8
19  20  8
19  22  8
8  2  3
23  24  8
23  26  8
24  27  8
24  28  8
26  29  8
27  30  8
28  31  8
29  30  8
4  11  8
4  20  8
7  11  8
7  22  8

$$$$
