166626056
  -OEChem-09292322062D

 75 79  0     1  0  0  0  0  0999 V2000
    7.1962   -4.7673    0.0000 O   0  0  0  0  0  0  0  0  0  0  0  0
    4.5981    1.7327    0.0000 N   0  0  3  0  0  0  0  0  0  0  0  0
    5.4641    4.2327    0.0000 N   0  0  0  0  0  0  0  0  0  0  0  0
    7.1962   -1.7673    0.0000 N   0  0  3  0  0  0  0  0  0  0  0  0
    4.6420   -0.2742    0.0000 N   0  0  0  0  0  0  0  0  0  0  0  0
    8.0901    2.6980    0.0000 N   0  0  0  0  0  0  0  0  0  0  0  0
    3.7320    1.2327    0.0000 C   0  0  1  0  0  0  0  0  0  0  0  0
    4.5981    2.7327    0.0000 C   0  0  0  0  0  0  0  0  0  0  0  0
    2.8660    1.7327    0.0000 C   0  0  0  0  0  0  0  0  0  0  0  0
    5.4641    3.2327    0.0000 C   0  0  1  0  0  0  0  0  0  0  0  0
    5.4641    1.2327    0.0000 C   0  0  0  0  0  0  0  0  0  0  0  0
    2.0000    1.2327    0.0000 C   0  0  0  0  0  0  0  0  0  0  0  0
    3.7320    0.2327    0.0000 C   0  0  0  0  0  0  0  0  0  0  0  0
    5.4641    0.2327    0.0000 C   0  0  0  0  0  0  0  0  0  0  0  0
    2.0000    0.2327    0.0000 C   0  0  0  0  0  0  0  0  0  0  0  0
    2.8660   -0.2673    0.0000 C   0  0  0  0  0  0  0  0  0  0  0  0
    6.3301    2.7327    0.0000 C   0  0  0  0  0  0  0  0  0  0  0  0
    7.1962   -2.7673    0.0000 C   0  0  0  0  0  0  0  0  0  0  0  0
    6.3301   -0.2673    0.0000 C   0  0  0  0  0  0  0  0  0  0  0  0
    6.3301   -1.2673    0.0000 C   0  0  0  0  0  0  0  0  0  0  0  0
    8.0622   -3.2673    0.0000 C   0  0  0  0  0  0  0  0  0  0  0  0
    6.3301   -3.2673    0.0000 C   0  0  0  0  0  0  0  0  0  0  0  0
    6.3301    4.7327    0.0000 C   0  0  0  0  0  0  0  0  0  0  0  0
    7.1962    3.2327    0.0000 C   0  0  0  0  0  0  0  0  0  0  0  0
    7.1962    4.2327    0.0000 C   0  0  0  0  0  0  0  0  0  0  0  0
    2.8500   -1.3088    0.0000 C   0  0  0  0  0  0  0  0  0  0  0  0
    8.0622   -4.2673    0.0000 C   0  0  0  0  0  0  0  0  0  0  0  0
    6.3301   -4.2673    0.0000 C   0  0  0  0  0  0  0  0  0  0  0  0
    8.0622   -1.2673    0.0000 C   0  0  0  0  0  0  0  0  0  0  0  0
    3.7480   -1.8366    0.0000 C   0  0  0  0  0  0  0  0  0  0  0  0
    4.6501   -1.3158    0.0000 C   0  0  0  0  0  0  0  0  0  0  0  0
    8.0901    4.7673    0.0000 C   0  0  0  0  0  0  0  0  0  0  0  0
    8.9962    4.2535    0.0000 C   0  0  0  0  0  0  0  0  0  0  0  0
    8.9962    3.2118    0.0000 C   0  0  0  0  0  0  0  0  0  0  0  0
    3.7320    1.8527    0.0000 H   0  0  0  0  0  0  0  0  0  0  0  0
    4.3860    3.3153    0.0000 H   0  0  0  0  0  0  0  0  0  0  0  0
    3.9875    2.6250    0.0000 H   0  0  0  0  0  0  0  0  0  0  0  0
    3.2646    2.2076    0.0000 H   0  0  0  0  0  0  0  0  0  0  0  0
    2.4675    2.2076    0.0000 H   0  0  0  0  0  0  0  0  0  0  0  0
    4.9272    3.5427    0.0000 H   0  0  0  0  0  0  0  0  0  0  0  0
    6.0747    1.1250    0.0000 H   0  0  0  0  0  0  0  0  0  0  0  0
    5.6762    1.8153    0.0000 H   0  0  0  0  0  0  0  0  0  0  0  0
    1.7880    1.8153    0.0000 H   0  0  0  0  0  0  0  0  0  0  0  0
    1.3894    1.1250    0.0000 H   0  0  0  0  0  0  0  0  0  0  0  0
    4.8535    0.3403    0.0000 H   0  0  0  0  0  0  0  0  0  0  0  0
    5.2520   -0.3499    0.0000 H   0  0  0  0  0  0  0  0  0  0  0  0
    1.3894    0.3403    0.0000 H   0  0  0  0  0  0  0  0  0  0  0  0
    1.7880   -0.3499    0.0000 H   0  0  0  0  0  0  0  0  0  0  0  0
    5.9316    2.2577    0.0000 H   0  0  0  0  0  0  0  0  0  0  0  0
    6.7287    2.2577    0.0000 H   0  0  0  0  0  0  0  0  0  0  0  0
    6.6592   -2.4573    0.0000 H   0  0  0  0  0  0  0  0  0  0  0  0
    6.9407   -0.3750    0.0000 H   0  0  0  0  0  0  0  0  0  0  0  0
    6.5422    0.3153    0.0000 H   0  0  0  0  0  0  0  0  0  0  0  0
    5.7196   -1.1597    0.0000 H   0  0  0  0  0  0  0  0  0  0  0  0
    6.1181   -1.8499    0.0000 H   0  0  0  0  0  0  0  0  0  0  0  0
    4.9272    4.5427    0.0000 H   0  0  0  0  0  0  0  0  0  0  0  0
    8.6728   -3.3750    0.0000 H   0  0  0  0  0  0  0  0  0  0  0  0
    8.2742   -2.6847    0.0000 H   0  0  0  0  0  0  0  0  0  0  0  0
    6.1181   -2.6847    0.0000 H   0  0  0  0  0  0  0  0  0  0  0  0
    5.7196   -3.3750    0.0000 H   0  0  0  0  0  0  0  0  0  0  0  0
    6.7287    5.2076    0.0000 H   0  0  0  0  0  0  0  0  0  0  0  0
    5.9316    5.2076    0.0000 H   0  0  0  0  0  0  0  0  0  0  0  0
    8.2742   -4.8499    0.0000 H   0  0  0  0  0  0  0  0  0  0  0  0
    8.6728   -4.1597    0.0000 H   0  0  0  0  0  0  0  0  0  0  0  0
    5.7196   -4.1597    0.0000 H   0  0  0  0  0  0  0  0  0  0  0  0
    6.1181   -4.8499    0.0000 H   0  0  0  0  0  0  0  0  0  0  0  0
    2.3095   -1.6126    0.0000 H   0  0  0  0  0  0  0  0  0  0  0  0
    8.3722   -1.8043    0.0000 H   0  0  0  0  0  0  0  0  0  0  0  0
    8.5991   -0.9573    0.0000 H   0  0  0  0  0  0  0  0  0  0  0  0
    7.7522   -0.7304    0.0000 H   0  0  0  0  0  0  0  0  0  0  0  0
    3.7456   -2.4566    0.0000 H   0  0  0  0  0  0  0  0  0  0  0  0
    5.1882   -1.6237    0.0000 H   0  0  0  0  0  0  0  0  0  0  0  0
    8.0829    5.3873    0.0000 H   0  0  0  0  0  0  0  0  0  0  0  0
    9.5319    4.5656    0.0000 H   0  0  0  0  0  0  0  0  0  0  0  0
    9.5319    2.8998    0.0000 H   0  0  0  0  0  0  0  0  0  0  0  0
  1 27  1  0  0  0  0
  1 28  1  0  0  0  0
  7  2  1  6  0  0  0
  2  8  1  0  0  0  0
  2 11  1  0  0  0  0
  3 10  1  0  0  0  0
  3 23  1  0  0  0  0
  3 56  1  0  0  0  0
  4 18  1  0  0  0  0
  4 20  1  0  0  0  0
  4 29  1  0  0  0  0
  5 13  1  0  0  0  0
  5 31  2  0  0  0  0
  6 24  1  0  0  0  0
  6 34  2  0  0  0  0
  7  9  1  0  0  0  0
  7 13  1  0  0  0  0
  7 35  1  0  0  0  0
 10  8  1  6  0  0  0
  8 36  1  0  0  0  0
  8 37  1  0  0  0  0
  9 12  1  0  0  0  0
  9 38  1  0  0  0  0
  9 39  1  0  0  0  0
 10 17  1  0  0  0  0
 10 40  1  0  0  0  0
 11 14  1  0  0  0  0
 11 41  1  0  0  0  0
 11 42  1  0  0  0  0
 12 15  1  0  0  0  0
 12 43  1  0  0  0  0
 12 44  1  0  0  0  0
 13 16  2  0  0  0  0
 14 19  1  0  0  0  0
 14 45  1  0  0  0  0
 14 46  1  0  0  0  0
 15 16  1  0  0  0  0
 15 47  1  0  0  0  0
 15 48  1  0  0  0  0
 16 26  1  0  0  0  0
 17 24  1  0  0  0  0
 17 49  1  0  0  0  0
 17 50  1  0  0  0  0
 18 21  1  0  0  0  0
 18 22  1  0  0  0  0
 18 51  1  0  0  0  0
 19 20  1  0  0  0  0
 19 52  1  0  0  0  0
 19 53  1  0  0  0  0
 20 54  1  0  0  0  0
 20 55  1  0  0  0  0
 21 27  1  0  0  0  0
 21 57  1  0  0  0  0
 21 58  1  0  0  0  0
 22 28  1  0  0  0  0
 22 59  1  0  0  0  0
 22 60  1  0  0  0  0
 23 25  1  0  0  0  0
 23 61  1  0  0  0  0
 23 62  1  0  0  0  0
 24 25  2  0  0  0  0
 25 32  1  0  0  0  0
 26 30  2  0  0  0  0
 26 67  1  0  0  0  0
 27 63  1  0  0  0  0
 27 64  1  0  0  0  0
 28 65  1  0  0  0  0
 28 66  1  0  0  0  0
 29 68  1  0  0  0  0
 29 69  1  0  0  0  0
 29 70  1  0  0  0  0
 30 31  1  0  0  0  0
 30 71  1  0  0  0  0
 31 72  1  0  0  0  0
 32 33  2  0  0  0  0
 32 73  1  0  0  0  0
 33 34  1  0  0  0  0
 33 74  1  0  0  0  0
 34 75  1  0  0  0  0
M  END
> <PUBCHEM_COMPOUND_CID>
166626056

> <PUBCHEM_COMPOUND_CANONICALIZED>
1

> <PUBCHEM_CACTVS_COMPLEXITY>
599

> <PUBCHEM_CACTVS_HBOND_ACCEPTOR>
6

> <PUBCHEM_CACTVS_HBOND_DONOR>
1

> <PUBCHEM_CACTVS_ROTATABLE_BOND>
9

> <PUBCHEM_CACTVS_SUBSKEYS>
AAADcfB7oAAAAAAAAAAAAAAAAAAAAAAAAAA8WLEiAAAAAACx4AAAHgAQAAAADCjhngY+gJPIFACgAzRnRACCgCAxAiAI2KA4ZJgIYOLA0ZGWIAhmkADIyAeQgIAOAAAAAAAAAAAAAACAAAQAQAAAAAAAAA==

> <PUBCHEM_IUPAC_OPENEYE_NAME>
N-methyl-N'-[[(7R)-5,6,7,8-tetrahydro-1,6-naphthyridin-7-yl]methyl]-N-tetrahydropyran-4-yl-N'-[(8S)-5,6,7,8-tetrahydroquinolin-8-yl]butane-1,4-diamine

> <PUBCHEM_IUPAC_CAS_NAME>
N-methyl-N-(4-oxanyl)-N'-[[(7R)-5,6,7,8-tetrahydro-1,6-naphthyridin-7-yl]methyl]-N'-[(8S)-5,6,7,8-tetrahydroquinolin-8-yl]butane-1,4-diamine

> <PUBCHEM_IUPAC_NAME_MARKUP>
<I>N</I>-methyl-<I>N</I>-(oxan-4-yl)-<I>N</I>&apos;-[[(7<I>R</I>)-5,6,7,8-tetrahydro-1,6-naphthyridin-7-yl]methyl]-<I>N</I>&apos;-[(8<I>S</I>)-5,6,7,8-tetrahydroquinolin-8-yl]butane-1,4-diamine

> <PUBCHEM_IUPAC_NAME>
N-methyl-N-(oxan-4-yl)-N'-[[(7R)-5,6,7,8-tetrahydro-1,6-naphthyridin-7-yl]methyl]-N'-[(8S)-5,6,7,8-tetrahydroquinolin-8-yl]butane-1,4-diamine

> <PUBCHEM_IUPAC_SYSTEMATIC_NAME>
N-methyl-N-(oxan-4-yl)-N'-[[(7R)-5,6,7,8-tetrahydro-1,6-naphthyridin-7-yl]methyl]-N'-[(8S)-5,6,7,8-tetrahydroquinolin-8-yl]butane-1,4-diamine

> <PUBCHEM_IUPAC_TRADITIONAL_NAME>
methyl-[4-[[(7R)-5,6,7,8-tetrahydro-1,6-naphthyridin-7-yl]methyl-[(8S)-5,6,7,8-tetrahydroquinolin-8-yl]amino]butyl]-tetrahydropyran-4-yl-amine

> <PUBCHEM_IUPAC_INCHI>
InChI=1S/C28H41N5O/c1-32(25-11-17-34-18-12-25)15-2-3-16-33(27-10-4-7-22-8-5-14-30-28(22)27)21-24-19-26-23(20-31-24)9-6-13-29-26/h5-6,8-9,13-14,24-25,27,31H,2-4,7,10-12,15-21H2,1H3/t24-,27+/m1/s1

> <PUBCHEM_IUPAC_INCHIKEY>
IEQLWCFKWYLMAM-SQHAQQRYSA-N

> <PUBCHEM_XLOGP3_AA>
2.8

> <PUBCHEM_EXACT_MASS>
463.33111095

> <PUBCHEM_MOLECULAR_FORMULA>
C28H41N5O

> <PUBCHEM_MOLECULAR_WEIGHT>
463.7

> <PUBCHEM_OPENEYE_CAN_SMILES>
CN(CCCCN(CC1CC2=C(CN1)C=CC=N2)C3CCCC4=C3N=CC=C4)C5CCOCC5

> <PUBCHEM_OPENEYE_ISO_SMILES>
CN(CCCCN(C[C@H]1CC2=C(CN1)C=CC=N2)[C@H]3CCCC4=C3N=CC=C4)C5CCOCC5

> <PUBCHEM_CACTVS_TPSA>
53.5

> <PUBCHEM_MONOISOTOPIC_WEIGHT>
463.33111095

> <PUBCHEM_TOTAL_CHARGE>
0

> <PUBCHEM_HEAVY_ATOM_COUNT>
34

> <PUBCHEM_ATOM_DEF_STEREO_COUNT>
2

> <PUBCHEM_ATOM_UDEF_STEREO_COUNT>
0

> <PUBCHEM_BOND_DEF_STEREO_COUNT>
0

> <PUBCHEM_BOND_UDEF_STEREO_COUNT>
0

> <PUBCHEM_ISOTOPIC_ATOM_COUNT>
0

> <PUBCHEM_COMPONENT_COUNT>
1

> <PUBCHEM_CACTVS_TAUTO_COUNT>
-1

> <PUBCHEM_COORDINATE_TYPE>
1
5
255

> <PUBCHEM_BONDANNOTATIONS>
13  16  8
16  26  8
7  2  6
24  25  8
25  32  8
26  30  8
30  31  8
32  33  8
33  34  8
5  13  8
5  31  8
6  24  8
6  34  8
10  8  6

$$$$
