118710462
  -OEChem-09292322352D

 79 82  0     0  0  0  0  0  0999 V2000
    6.7619    2.9641    0.0000 O   0  0  0  0  0  0  0  0  0  0  0  0
   12.7619   -0.5000    0.0000 N   0  0  0  0  0  0  0  0  0  0  0  0
   10.7619   -0.5000    0.0000 N   0  0  0  0  0  0  0  0  0  0  0  0
    6.7619    1.2320    0.0000 N   0  0  0  0  0  0  0  0  0  0  0  0
    3.7320    2.5981    0.0000 N   0  0  0  0  0  0  0  0  0  0  0  0
    4.6783    1.2933    0.0000 N   0  0  0  0  0  0  0  0  0  0  0  0
   12.2619   -1.3660    0.0000 C   0  0  0  0  0  0  0  0  0  0  0  0
   12.2619    0.3660    0.0000 C   0  0  0  0  0  0  0  0  0  0  0  0
   11.2619   -1.3660    0.0000 C   0  0  0  0  0  0  0  0  0  0  0  0
   11.2619    0.3660    0.0000 C   0  0  0  0  0  0  0  0  0  0  0  0
   13.7619   -0.5000    0.0000 C   0  0  0  0  0  0  0  0  0  0  0  0
   15.7619    1.2320    0.0000 C   0  0  0  0  0  0  0  0  0  0  0  0
   15.7619   -2.2320    0.0000 C   0  0  0  0  0  0  0  0  0  0  0  0
    9.7619   -0.5000    0.0000 C   0  0  0  0  0  0  0  0  0  0  0  0
   15.2619    0.3660    0.0000 C   0  0  0  0  0  0  0  0  0  0  0  0
   15.2619   -1.3660    0.0000 C   0  0  0  0  0  0  0  0  0  0  0  0
   14.2619   -1.3660    0.0000 C   0  0  0  0  0  0  0  0  0  0  0  0
   14.2619    0.3660    0.0000 C   0  0  0  0  0  0  0  0  0  0  0  0
   15.7619   -0.5000    0.0000 C   0  0  0  0  0  0  0  0  0  0  0  0
    9.2619    0.3660    0.0000 C   0  0  0  0  0  0  0  0  0  0  0  0
   16.2619    2.0981    0.0000 C   0  0  0  0  0  0  0  0  0  0  0  0
   14.8959    1.7320    0.0000 C   0  0  0  0  0  0  0  0  0  0  0  0
   16.6279    0.7321    0.0000 C   0  0  0  0  0  0  0  0  0  0  0  0
   16.2619   -3.0981    0.0000 C   0  0  0  0  0  0  0  0  0  0  0  0
   16.6279   -1.7320    0.0000 C   0  0  0  0  0  0  0  0  0  0  0  0
   14.8959   -2.7320    0.0000 C   0  0  0  0  0  0  0  0  0  0  0  0
    8.2619    0.3660    0.0000 C   0  0  0  0  0  0  0  0  0  0  0  0
    7.7619    1.2320    0.0000 C   0  0  0  0  0  0  0  0  0  0  0  0
    6.2619    2.0981    0.0000 C   0  0  0  0  0  0  0  0  0  0  0  0
    5.2619    2.0981    0.0000 C   0  0  0  0  0  0  0  0  0  0  0  0
    4.6783    2.9028    0.0000 C   0  0  0  0  0  0  0  0  0  0  0  0
    3.7320    1.5981    0.0000 C   0  0  0  0  0  0  0  0  0  0  0  0
    2.8660    3.0981    0.0000 C   0  0  0  0  0  0  0  0  0  0  0  0
    2.8660    1.0981    0.0000 C   0  0  0  0  0  0  0  0  0  0  0  0
    2.0000    2.5981    0.0000 C   0  0  0  0  0  0  0  0  0  0  0  0
    2.0000    1.5981    0.0000 C   0  0  0  0  0  0  0  0  0  0  0  0
   12.1542   -1.9766    0.0000 H   0  0  0  0  0  0  0  0  0  0  0  0
   12.8445   -1.5781    0.0000 H   0  0  0  0  0  0  0  0  0  0  0  0
   12.8445    0.5781    0.0000 H   0  0  0  0  0  0  0  0  0  0  0  0
   12.1542    0.9766    0.0000 H   0  0  0  0  0  0  0  0  0  0  0  0
   10.6793   -1.5781    0.0000 H   0  0  0  0  0  0  0  0  0  0  0  0
   11.3695   -1.9766    0.0000 H   0  0  0  0  0  0  0  0  0  0  0  0
   11.3695    0.9766    0.0000 H   0  0  0  0  0  0  0  0  0  0  0  0
   10.6793    0.5781    0.0000 H   0  0  0  0  0  0  0  0  0  0  0  0
    9.1793   -0.7121    0.0000 H   0  0  0  0  0  0  0  0  0  0  0  0
    9.8695   -1.1106    0.0000 H   0  0  0  0  0  0  0  0  0  0  0  0
   13.9519   -1.9030    0.0000 H   0  0  0  0  0  0  0  0  0  0  0  0
   13.9519    0.9030    0.0000 H   0  0  0  0  0  0  0  0  0  0  0  0
   16.3819   -0.5000    0.0000 H   0  0  0  0  0  0  0  0  0  0  0  0
    9.8445    0.5781    0.0000 H   0  0  0  0  0  0  0  0  0  0  0  0
    9.1542    0.9766    0.0000 H   0  0  0  0  0  0  0  0  0  0  0  0
   16.7988    1.7881    0.0000 H   0  0  0  0  0  0  0  0  0  0  0  0
   16.5719    2.6350    0.0000 H   0  0  0  0  0  0  0  0  0  0  0  0
   15.7249    2.4081    0.0000 H   0  0  0  0  0  0  0  0  0  0  0  0
   15.2059    2.2690    0.0000 H   0  0  0  0  0  0  0  0  0  0  0  0
   14.3589    2.0420    0.0000 H   0  0  0  0  0  0  0  0  0  0  0  0
   14.5859    1.1951    0.0000 H   0  0  0  0  0  0  0  0  0  0  0  0
   16.3179    0.1951    0.0000 H   0  0  0  0  0  0  0  0  0  0  0  0
   17.1648    0.4221    0.0000 H   0  0  0  0  0  0  0  0  0  0  0  0
   16.9379    1.2690    0.0000 H   0  0  0  0  0  0  0  0  0  0  0  0
   15.7249   -3.4081    0.0000 H   0  0  0  0  0  0  0  0  0  0  0  0
   16.5719   -3.6350    0.0000 H   0  0  0  0  0  0  0  0  0  0  0  0
   16.7988   -2.7881    0.0000 H   0  0  0  0  0  0  0  0  0  0  0  0
   16.9379   -2.2690    0.0000 H   0  0  0  0  0  0  0  0  0  0  0  0
   17.1648   -1.4220    0.0000 H   0  0  0  0  0  0  0  0  0  0  0  0
   16.3179   -1.1951    0.0000 H   0  0  0  0  0  0  0  0  0  0  0  0
   14.5859   -2.1951    0.0000 H   0  0  0  0  0  0  0  0  0  0  0  0
   14.3589   -3.0420    0.0000 H   0  0  0  0  0  0  0  0  0  0  0  0
   15.2059   -3.2690    0.0000 H   0  0  0  0  0  0  0  0  0  0  0  0
    7.6793    0.1540    0.0000 H   0  0  0  0  0  0  0  0  0  0  0  0
    8.3695   -0.2446    0.0000 H   0  0  0  0  0  0  0  0  0  0  0  0
    8.3445    1.4441    0.0000 H   0  0  0  0  0  0  0  0  0  0  0  0
    7.6542    1.8426    0.0000 H   0  0  0  0  0  0  0  0  0  0  0  0
    6.4519    0.6951    0.0000 H   0  0  0  0  0  0  0  0  0  0  0  0
    4.8709    3.4921    0.0000 H   0  0  0  0  0  0  0  0  0  0  0  0
    2.8660    3.7181    0.0000 H   0  0  0  0  0  0  0  0  0  0  0  0
    2.8660    0.4781    0.0000 H   0  0  0  0  0  0  0  0  0  0  0  0
    1.4631    2.9081    0.0000 H   0  0  0  0  0  0  0  0  0  0  0  0
    1.4631    1.2881    0.0000 H   0  0  0  0  0  0  0  0  0  0  0  0
  1 29  2  0  0  0  0
  2  7  1  0  0  0  0
  2  8  1  0  0  0  0
  2 11  1  0  0  0  0
  3  9  1  0  0  0  0
  3 10  1  0  0  0  0
  3 14  1  0  0  0  0
  4 28  1  0  0  0  0
  4 29  1  0  0  0  0
  4 74  1  0  0  0  0
  5 31  1  0  0  0  0
  5 32  1  0  0  0  0
  5 33  1  0  0  0  0
  6 30  1  0  0  0  0
  6 32  2  0  0  0  0
  7  9  1  0  0  0  0
  7 37  1  0  0  0  0
  7 38  1  0  0  0  0
  8 10  1  0  0  0  0
  8 39  1  0  0  0  0
  8 40  1  0  0  0  0
  9 41  1  0  0  0  0
  9 42  1  0  0  0  0
 10 43  1  0  0  0  0
 10 44  1  0  0  0  0
 11 17  2  0  0  0  0
 11 18  1  0  0  0  0
 12 15  1  0  0  0  0
 12 21  1  0  0  0  0
 12 22  1  0  0  0  0
 12 23  1  0  0  0  0
 13 16  1  0  0  0  0
 13 24  1  0  0  0  0
 13 25  1  0  0  0  0
 13 26  1  0  0  0  0
 14 20  1  0  0  0  0
 14 45  1  0  0  0  0
 14 46  1  0  0  0  0
 15 18  2  0  0  0  0
 15 19  1  0  0  0  0
 16 17  1  0  0  0  0
 16 19  2  0  0  0  0
 17 47  1  0  0  0  0
 18 48  1  0  0  0  0
 19 49  1  0  0  0  0
 20 27  1  0  0  0  0
 20 50  1  0  0  0  0
 20 51  1  0  0  0  0
 21 52  1  0  0  0  0
 21 53  1  0  0  0  0
 21 54  1  0  0  0  0
 22 55  1  0  0  0  0
 22 56  1  0  0  0  0
 22 57  1  0  0  0  0
 23 58  1  0  0  0  0
 23 59  1  0  0  0  0
 23 60  1  0  0  0  0
 24 61  1  0  0  0  0
 24 62  1  0  0  0  0
 24 63  1  0  0  0  0
 25 64  1  0  0  0  0
 25 65  1  0  0  0  0
 25 66  1  0  0  0  0
 26 67  1  0  0  0  0
 26 68  1  0  0  0  0
 26 69  1  0  0  0  0
 27 28  1  0  0  0  0
 27 70  1  0  0  0  0
 27 71  1  0  0  0  0
 28 72  1  0  0  0  0
 28 73  1  0  0  0  0
 29 30  1  0  0  0  0
 30 31  2  0  0  0  0
 31 75  1  0  0  0  0
 32 34  1  0  0  0  0
 33 35  2  0  0  0  0
 33 76  1  0  0  0  0
 34 36  2  0  0  0  0
 34 77  1  0  0  0  0
 35 36  1  0  0  0  0
 35 78  1  0  0  0  0
 36 79  1  0  0  0  0
M  END
> <PUBCHEM_COMPOUND_CID>
118710462

> <PUBCHEM_COMPOUND_CANONICALIZED>
1

> <PUBCHEM_CACTVS_COMPLEXITY>
683

> <PUBCHEM_CACTVS_HBOND_ACCEPTOR>
4

> <PUBCHEM_CACTVS_HBOND_DONOR>
1

> <PUBCHEM_CACTVS_ROTATABLE_BOND>
9

> <PUBCHEM_CACTVS_SUBSKEYS>
AAADcfB7oAAAAAAAAAAAAAAAAAAAAWAAAAA8WIAAAAAAAFgB8AAAHgAQAAAADgjBnwQ/8J/MGACoAzd3dACCgC03EqAJ2KG4dNiIaOrA2bGUIIholgLIyOcQgMAPgAACQAAAAAAAAASAAAAAAAAAAAAAAA==

> <PUBCHEM_IUPAC_OPENEYE_NAME>
N-[4-[4-(3,5-ditert-butylphenyl)piperazin-1-yl]butyl]imidazo[1,2-a]pyridine-2-carboxamide

> <PUBCHEM_IUPAC_CAS_NAME>
N-[4-[4-(3,5-ditert-butylphenyl)-1-piperazinyl]butyl]-2-imidazo[1,2-a]pyridinecarboxamide

> <PUBCHEM_IUPAC_NAME_MARKUP>
<I>N</I>-[4-[4-(3,5-di<I>tert</I>-butylphenyl)piperazin-1-yl]butyl]imidazo[1,2-a]pyridine-2-carboxamide

> <PUBCHEM_IUPAC_NAME>
N-[4-[4-(3,5-ditert-butylphenyl)piperazin-1-yl]butyl]imidazo[1,2-a]pyridine-2-carboxamide

> <PUBCHEM_IUPAC_SYSTEMATIC_NAME>
N-[4-[4-(3,5-ditert-butylphenyl)piperazin-1-yl]butyl]imidazo[1,2-a]pyridine-2-carboxamide

> <PUBCHEM_IUPAC_TRADITIONAL_NAME>
N-[4-[4-(3,5-ditert-butylphenyl)piperazino]butyl]imidazo[1,2-a]pyridine-2-carboxamide

> <PUBCHEM_IUPAC_INCHI>
InChI=1S/C30H43N5O/c1-29(2,3)23-19-24(30(4,5)6)21-25(20-23)34-17-15-33(16-18-34)13-10-8-12-31-28(36)26-22-35-14-9-7-11-27(35)32-26/h7,9,11,14,19-22H,8,10,12-13,15-18H2,1-6H3,(H,31,36)

> <PUBCHEM_IUPAC_INCHIKEY>
QZCUWLCSQMYXFR-UHFFFAOYSA-N

> <PUBCHEM_XLOGP3_AA>
7.1

> <PUBCHEM_EXACT_MASS>
489.34676101

> <PUBCHEM_MOLECULAR_FORMULA>
C30H43N5O

> <PUBCHEM_MOLECULAR_WEIGHT>
489.7

> <PUBCHEM_OPENEYE_CAN_SMILES>
CC(C)(C)C1=CC(=CC(=C1)N2CCN(CC2)CCCCNC(=O)C3=CN4C=CC=CC4=N3)C(C)(C)C

> <PUBCHEM_OPENEYE_ISO_SMILES>
CC(C)(C)C1=CC(=CC(=C1)N2CCN(CC2)CCCCNC(=O)C3=CN4C=CC=CC4=N3)C(C)(C)C

> <PUBCHEM_CACTVS_TPSA>
52.9

> <PUBCHEM_MONOISOTOPIC_WEIGHT>
489.34676101

> <PUBCHEM_TOTAL_CHARGE>
0

> <PUBCHEM_HEAVY_ATOM_COUNT>
36

> <PUBCHEM_ATOM_DEF_STEREO_COUNT>
0

> <PUBCHEM_ATOM_UDEF_STEREO_COUNT>
0

> <PUBCHEM_BOND_DEF_STEREO_COUNT>
0

> <PUBCHEM_BOND_UDEF_STEREO_COUNT>
0

> <PUBCHEM_ISOTOPIC_ATOM_COUNT>
0

> <PUBCHEM_COMPONENT_COUNT>
1

> <PUBCHEM_CACTVS_TAUTO_COUNT>
-1

> <PUBCHEM_COORDINATE_TYPE>
1
5
255

> <PUBCHEM_BONDANNOTATIONS>
11  17  8
11  18  8
15  18  8
15  19  8
16  17  8
16  19  8
30  31  8
32  34  8
33  35  8
34  36  8
35  36  8
5  31  8
5  32  8
5  33  8
6  30  8
6  32  8

$$$$
