11663578
  -OEChem-09292322242D

 67 72  0     1  0  0  0  0  0999 V2000
    6.8867    1.9294    0.0000 S   0  0  0  0  0  0  0  0  0  0  0  0
   14.5064   -0.9697    0.0000 O   0  0  0  0  0  0  0  0  0  0  0  0
    3.5388    4.0172    0.0000 O   0  0  0  0  0  0  0  0  0  0  0  0
    9.8867    0.1974    0.0000 N   0  0  3  0  0  0  0  0  0  0  0  0
   13.1125   -1.7745    0.0000 N   0  0  0  0  0  0  0  0  0  0  0  0
   14.1945   -3.6571    0.0000 N   0  0  0  0  0  0  0  0  0  0  0  0
    5.2989    2.7384    0.0000 N   0  0  0  0  0  0  0  0  0  0  0  0
   14.9376   -4.3262    0.0000 N   0  0  0  0  0  0  0  0  0  0  0  0
    5.2989    1.1204    0.0000 N   0  0  0  0  0  0  0  0  0  0  0  0
    4.3479    1.4294    0.0000 N   0  0  0  0  0  0  0  0  0  0  0  0
    2.0000    3.5172    0.0000 N   0  0  0  0  0  0  0  0  0  0  0  0
   10.3111   -0.6869    0.0000 C   0  0  0  0  0  0  0  0  0  0  0  0
   10.3111    1.0816    0.0000 C   0  0  0  0  0  0  0  0  0  0  0  0
   11.2664   -0.9090    0.0000 C   0  0  0  0  0  0  0  0  0  0  0  0
   11.2664    1.3037    0.0000 C   0  0  0  0  0  0  0  0  0  0  0  0
   12.0373   -0.3026    0.0000 C   0  0  0  0  0  0  0  0  0  0  0  0
   12.0373    0.6974    0.0000 C   0  0  0  0  0  0  0  0  0  0  0  0
    8.8867    0.1974    0.0000 C   0  0  0  0  0  0  0  0  0  0  0  0
   12.9033   -0.8026    0.0000 C   0  0  0  0  0  0  0  0  0  0  0  0
    8.3867    1.0634    0.0000 C   0  0  0  0  0  0  0  0  0  0  0  0
   12.9033    1.1974    0.0000 C   0  0  0  0  0  0  0  0  0  0  0  0
   13.7693   -0.3026    0.0000 C   0  0  0  0  0  0  0  0  0  0  0  0
   13.7693    0.6974    0.0000 C   0  0  0  0  0  0  0  0  0  0  0  0
    7.3867    1.0634    0.0000 C   0  0  0  0  0  0  0  0  0  0  0  0
   14.1012   -1.8775    0.0000 C   0  0  0  0  0  0  0  0  0  0  0  0
   14.6012   -2.7435    0.0000 C   0  0  0  0  0  0  0  0  0  0  0  0
   15.5958   -2.8481    0.0000 C   0  0  0  0  0  0  0  0  0  0  0  0
    5.8867    1.9294    0.0000 C   0  0  0  0  0  0  0  0  0  0  0  0
   15.8037   -3.8262    0.0000 C   0  0  0  0  0  0  0  0  0  0  0  0
   13.2164   -3.8650    0.0000 C   0  0  0  0  0  0  0  0  0  0  0  0
    4.3479    2.4294    0.0000 C   0  0  0  0  0  0  0  0  0  0  0  0
   16.7172   -4.2330    0.0000 C   0  0  0  0  0  0  0  0  0  0  0  0
    5.6079    3.6895    0.0000 C   0  0  0  0  0  0  0  0  0  0  0  0
    3.5388    3.0172    0.0000 C   0  0  0  0  0  0  0  0  0  0  0  0
    2.5878    2.7082    0.0000 C   0  0  0  0  0  0  0  0  0  0  0  0
    2.2788    1.7571    0.0000 C   0  0  0  0  0  0  0  0  0  0  0  0
    2.5878    4.3262    0.0000 C   0  0  0  0  0  0  0  0  0  0  0  0
    9.7063   -0.8235    0.0000 H   0  0  0  0  0  0  0  0  0  0  0  0
   10.3091   -1.3069    0.0000 H   0  0  0  0  0  0  0  0  0  0  0  0
   10.3091    1.7016    0.0000 H   0  0  0  0  0  0  0  0  0  0  0  0
    9.7063    1.2182    0.0000 H   0  0  0  0  0  0  0  0  0  0  0  0
   10.9946   -1.4662    0.0000 H   0  0  0  0  0  0  0  0  0  0  0  0
   11.7488   -1.2984    0.0000 H   0  0  0  0  0  0  0  0  0  0  0  0
   11.7488    1.6931    0.0000 H   0  0  0  0  0  0  0  0  0  0  0  0
   10.9946    1.8610    0.0000 H   0  0  0  0  0  0  0  0  0  0  0  0
    8.3041   -0.0147    0.0000 H   0  0  0  0  0  0  0  0  0  0  0  0
    8.9944   -0.4132    0.0000 H   0  0  0  0  0  0  0  0  0  0  0  0
    8.9693    1.2754    0.0000 H   0  0  0  0  0  0  0  0  0  0  0  0
    8.2790    1.6740    0.0000 H   0  0  0  0  0  0  0  0  0  0  0  0
   12.9033    1.8174    0.0000 H   0  0  0  0  0  0  0  0  0  0  0  0
   14.3063    1.0074    0.0000 H   0  0  0  0  0  0  0  0  0  0  0  0
    6.8041    0.8513    0.0000 H   0  0  0  0  0  0  0  0  0  0  0  0
    7.4944    0.4528    0.0000 H   0  0  0  0  0  0  0  0  0  0  0  0
   16.0106   -2.3873    0.0000 H   0  0  0  0  0  0  0  0  0  0  0  0
   13.0875   -3.2585    0.0000 H   0  0  0  0  0  0  0  0  0  0  0  0
   12.6099   -3.9939    0.0000 H   0  0  0  0  0  0  0  0  0  0  0  0
   13.3453   -4.4714    0.0000 H   0  0  0  0  0  0  0  0  0  0  0  0
   16.4650   -4.7993    0.0000 H   0  0  0  0  0  0  0  0  0  0  0  0
   17.2836   -4.4851    0.0000 H   0  0  0  0  0  0  0  0  0  0  0  0
   16.9694   -3.6666    0.0000 H   0  0  0  0  0  0  0  0  0  0  0  0
    6.1976    3.4979    0.0000 H   0  0  0  0  0  0  0  0  0  0  0  0
    5.7995    4.2791    0.0000 H   0  0  0  0  0  0  0  0  0  0  0  0
    5.0183    3.8811    0.0000 H   0  0  0  0  0  0  0  0  0  0  0  0
    1.6891    1.9487    0.0000 H   0  0  0  0  0  0  0  0  0  0  0  0
    2.0872    1.1675    0.0000 H   0  0  0  0  0  0  0  0  0  0  0  0
    2.8684    1.5655    0.0000 H   0  0  0  0  0  0  0  0  0  0  0  0
    2.3962    4.9159    0.0000 H   0  0  0  0  0  0  0  0  0  0  0  0
  1 24  1  0  0  0  0
  1 28  1  0  0  0  0
  2 22  1  0  0  0  0
  2 25  1  0  0  0  0
  3 34  1  0  0  0  0
  3 37  1  0  0  0  0
  4 12  1  0  0  0  0
  4 13  1  0  0  0  0
  4 18  1  0  0  0  0
  5 19  1  0  0  0  0
  5 25  2  0  0  0  0
  6  8  1  0  0  0  0
  6 26  1  0  0  0  0
  6 30  1  0  0  0  0
  7 28  1  0  0  0  0
  7 31  1  0  0  0  0
  7 33  1  0  0  0  0
  8 29  2  0  0  0  0
  9 10  1  0  0  0  0
  9 28  2  0  0  0  0
 10 31  2  0  0  0  0
 11 35  1  0  0  0  0
 11 37  2  0  0  0  0
 12 14  1  0  0  0  0
 12 38  1  0  0  0  0
 12 39  1  0  0  0  0
 13 15  1  0  0  0  0
 13 40  1  0  0  0  0
 13 41  1  0  0  0  0
 14 16  1  0  0  0  0
 14 42  1  0  0  0  0
 14 43  1  0  0  0  0
 15 17  1  0  0  0  0
 15 44  1  0  0  0  0
 15 45  1  0  0  0  0
 16 17  2  0  0  0  0
 16 19  1  0  0  0  0
 17 21  1  0  0  0  0
 18 20  1  0  0  0  0
 18 46  1  0  0  0  0
 18 47  1  0  0  0  0
 19 22  2  0  0  0  0
 20 24  1  0  0  0  0
 20 48  1  0  0  0  0
 20 49  1  0  0  0  0
 21 23  2  0  0  0  0
 21 50  1  0  0  0  0
 22 23  1  0  0  0  0
 23 51  1  0  0  0  0
 24 52  1  0  0  0  0
 24 53  1  0  0  0  0
 25 26  1  0  0  0  0
 26 27  2  0  0  0  0
 27 29  1  0  0  0  0
 27 54  1  0  0  0  0
 29 32  1  0  0  0  0
 30 55  1  0  0  0  0
 30 56  1  0  0  0  0
 30 57  1  0  0  0  0
 31 34  1  0  0  0  0
 32 58  1  0  0  0  0
 32 59  1  0  0  0  0
 32 60  1  0  0  0  0
 33 61  1  0  0  0  0
 33 62  1  0  0  0  0
 33 63  1  0  0  0  0
 34 35  2  0  0  0  0
 35 36  1  0  0  0  0
 36 64  1  0  0  0  0
 36 65  1  0  0  0  0
 36 66  1  0  0  0  0
 37 67  1  0  0  0  0
M  END
> <PUBCHEM_COMPOUND_CID>
11663578

> <PUBCHEM_COMPOUND_CANONICALIZED>
1

> <PUBCHEM_CACTVS_COMPLEXITY>
768

> <PUBCHEM_CACTVS_HBOND_ACCEPTOR>
9

> <PUBCHEM_CACTVS_HBOND_DONOR>
0

> <PUBCHEM_CACTVS_ROTATABLE_BOND>
7

> <PUBCHEM_CACTVS_SUBSKEYS>
AAADceB78ABAAAAAAAAAAAAAAAAAAWLFiwAwAAAABYAAAFgB/gAAHgQIAAAADAzF3wa31rcMFEiqA6dz9ASS3Ct/4rAd2CG/bNiObrLk/fufvSjkzBPY6Ye82bKOoAABQAASEABAAAKAACQgAAAAAAAAAA==

> <PUBCHEM_IUPAC_OPENEYE_NAME>
2-(2,5-dimethylpyrazol-3-yl)-8-[3-[[4-methyl-5-(4-methyloxazol-5-yl)-1,2,4-triazol-3-yl]sulfanyl]propyl]-6,7,9,10-tetrahydrooxazolo[5,4-i][3]benzazepine

> <PUBCHEM_IUPAC_CAS_NAME>
2-(2,5-dimethyl-3-pyrazolyl)-8-[3-[[4-methyl-5-(4-methyl-5-oxazolyl)-1,2,4-triazol-3-yl]thio]propyl]-6,7,9,10-tetrahydrooxazolo[5,4-i][3]benzazepine

> <PUBCHEM_IUPAC_NAME_MARKUP>
2-(2,5-dimethylpyrazol-3-yl)-8-[3-[[4-methyl-5-(4-methyl-1,3-oxazol-5-yl)-1,2,4-triazol-3-yl]sulfanyl]propyl]-6,7,9,10-tetrahydro-[1,3]oxazolo[5,4-i][3]benzazepine

> <PUBCHEM_IUPAC_NAME>
2-(2,5-dimethylpyrazol-3-yl)-8-[3-[[4-methyl-5-(4-methyl-1,3-oxazol-5-yl)-1,2,4-triazol-3-yl]sulfanyl]propyl]-6,7,9,10-tetrahydro-[1,3]oxazolo[5,4-i][3]benzazepine

> <PUBCHEM_IUPAC_SYSTEMATIC_NAME>
2-(2,5-dimethylpyrazol-3-yl)-8-[3-[[4-methyl-5-(4-methyl-1,3-oxazol-5-yl)-1,2,4-triazol-3-yl]sulfanyl]propyl]-6,7,9,10-tetrahydro-[1,3]oxazolo[5,4-i][3]benzazepine

> <PUBCHEM_IUPAC_TRADITIONAL_NAME>
2-(2,5-dimethylpyrazol-3-yl)-8-[3-[[4-methyl-5-(4-methyloxazol-5-yl)-1,2,4-triazol-3-yl]thio]propyl]-6,7,9,10-tetrahydrooxazolo[5,4-i][3]benzazepine

> <PUBCHEM_IUPAC_INCHI>
InChI=1S/C26H30N8O2S/c1-16-14-20(33(4)31-16)25-28-22-19-9-12-34(11-8-18(19)6-7-21(22)36-25)10-5-13-37-26-30-29-24(32(26)3)23-17(2)27-15-35-23/h6-7,14-15H,5,8-13H2,1-4H3

> <PUBCHEM_IUPAC_INCHIKEY>
KHTUQDQSUXMHQA-UHFFFAOYSA-N

> <PUBCHEM_XLOGP3_AA>
3.4

> <PUBCHEM_EXACT_MASS>
518.22124340

> <PUBCHEM_MOLECULAR_FORMULA>
C26H30N8O2S

> <PUBCHEM_MOLECULAR_WEIGHT>
518.6

> <PUBCHEM_OPENEYE_CAN_SMILES>
CC1=NN(C(=C1)C2=NC3=C(O2)C=CC4=C3CCN(CC4)CCCSC5=NN=C(N5C)C6=C(N=CO6)C)C

> <PUBCHEM_OPENEYE_ISO_SMILES>
CC1=NN(C(=C1)C2=NC3=C(O2)C=CC4=C3CCN(CC4)CCCSC5=NN=C(N5C)C6=C(N=CO6)C)C

> <PUBCHEM_CACTVS_TPSA>
129

> <PUBCHEM_MONOISOTOPIC_WEIGHT>
518.22124340

> <PUBCHEM_TOTAL_CHARGE>
0

> <PUBCHEM_HEAVY_ATOM_COUNT>
37

> <PUBCHEM_ATOM_DEF_STEREO_COUNT>
0

> <PUBCHEM_ATOM_UDEF_STEREO_COUNT>
0

> <PUBCHEM_BOND_DEF_STEREO_COUNT>
0

> <PUBCHEM_BOND_UDEF_STEREO_COUNT>
0

> <PUBCHEM_ISOTOPIC_ATOM_COUNT>
0

> <PUBCHEM_COMPONENT_COUNT>
1

> <PUBCHEM_CACTVS_TAUTO_COUNT>
-1

> <PUBCHEM_COORDINATE_TYPE>
1
5
255

> <PUBCHEM_BONDANNOTATIONS>
10  31  8
11  35  8
11  37  8
16  17  8
16  19  8
17  21  8
19  22  8
2  22  8
2  25  8
21  23  8
22  23  8
26  27  8
27  29  8
3  34  8
3  37  8
34  35  8
5  19  8
5  25  8
6  26  8
6  8  8
7  28  8
7  31  8
8  29  8
9  10  8
9  28  8

$$$$
