166630817
  -OEChem-09292322442D

 66 70  0     1  0  0  0  0  0999 V2000
   10.4989    3.6560    0.0000 O   0  0  0  0  0  0  0  0  0  0  0  0
   13.6246   -1.9088    0.0000 O   0  0  0  0  0  0  0  0  0  0  0  0
    6.7619   -3.1604    0.0000 O   0  0  0  0  0  0  0  0  0  0  0  0
   10.7619    0.3037    0.0000 N   0  0  3  0  0  0  0  0  0  0  0  0
    6.7619   -1.4284    0.0000 N   0  0  0  0  0  0  0  0  0  0  0  0
    4.6783   -3.0991    0.0000 N   0  0  0  0  0  0  0  0  0  0  0  0
   12.3269    1.3030    0.0000 C   0  0  1  0  0  0  0  0  0  0  0  0
   11.3758    1.6120    0.0000 C   0  0  2  0  0  0  0  0  0  0  0  0
   10.9529    2.7650    0.0000 C   0  0  1  0  0  0  0  0  0  0  0  0
   13.7179    1.8556    0.0000 C   0  0  0  0  0  0  0  0  0  0  0  0
   12.3007   -0.1963    0.0000 C   0  0  0  0  0  0  0  0  0  0  0  0
   12.7442    3.1478    0.0000 C   0  0  0  0  0  0  0  0  0  0  0  0
   13.7005    2.8554    0.0000 C   0  0  0  0  0  0  0  0  0  0  0  0
   11.3497   -0.5053    0.0000 C   0  0  0  0  0  0  0  0  0  0  0  0
   13.1149    0.6874    0.0000 C   0  0  0  0  0  0  0  0  0  0  0  0
    9.7619    0.3037    0.0000 C   0  0  0  0  0  0  0  0  0  0  0  0
    9.2619   -0.5623    0.0000 C   0  0  0  0  0  0  0  0  0  0  0  0
   12.9757   -0.3029    0.0000 C   0  0  0  0  0  0  0  0  0  0  0  0
   14.0421    1.0620    0.0000 C   0  0  0  0  0  0  0  0  0  0  0  0
    8.2619   -0.5623    0.0000 C   0  0  0  0  0  0  0  0  0  0  0  0
   13.7637   -0.9186    0.0000 C   0  0  0  0  0  0  0  0  0  0  0  0
   14.8301    0.4463    0.0000 C   0  0  0  0  0  0  0  0  0  0  0  0
   14.6909   -0.5440    0.0000 C   0  0  0  0  0  0  0  0  0  0  0  0
    7.7619   -1.4284    0.0000 C   0  0  0  0  0  0  0  0  0  0  0  0
    6.2619   -2.2944    0.0000 C   0  0  0  0  0  0  0  0  0  0  0  0
    5.2619   -2.2944    0.0000 C   0  0  0  0  0  0  0  0  0  0  0  0
    4.6783   -1.4896    0.0000 C   0  0  0  0  0  0  0  0  0  0  0  0
    3.7320   -2.7944    0.0000 C   0  0  0  0  0  0  0  0  0  0  0  0
    3.7320   -1.7944    0.0000 C   0  0  0  0  0  0  0  0  0  0  0  0
    2.8660   -3.2944    0.0000 C   0  0  0  0  0  0  0  0  0  0  0  0
    2.8660   -1.2944    0.0000 C   0  0  0  0  0  0  0  0  0  0  0  0
    2.0000   -2.7944    0.0000 C   0  0  0  0  0  0  0  0  0  0  0  0
    2.0000   -1.7944    0.0000 C   0  0  0  0  0  0  0  0  0  0  0  0
   10.5674    1.8747    0.0000 H   0  0  0  0  0  0  0  0  0  0  0  0
   10.3847    2.5170    0.0000 H   0  0  0  0  0  0  0  0  0  0  0  0
   13.8760    1.2561    0.0000 H   0  0  0  0  0  0  0  0  0  0  0  0
   14.3320    1.9407    0.0000 H   0  0  0  0  0  0  0  0  0  0  0  0
   12.4261   -0.8035    0.0000 H   0  0  0  0  0  0  0  0  0  0  0  0
   12.9180   -0.1387    0.0000 H   0  0  0  0  0  0  0  0  0  0  0  0
   13.0085    3.7086    0.0000 H   0  0  0  0  0  0  0  0  0  0  0  0
   12.2269    3.4897    0.0000 H   0  0  0  0  0  0  0  0  0  0  0  0
   14.3181    2.8014    0.0000 H   0  0  0  0  0  0  0  0  0  0  0  0
   13.8188    3.4640    0.0000 H   0  0  0  0  0  0  0  0  0  0  0  0
   10.8127   -0.8153    0.0000 H   0  0  0  0  0  0  0  0  0  0  0  0
   11.6018   -1.0717    0.0000 H   0  0  0  0  0  0  0  0  0  0  0  0
    9.8695    0.9143    0.0000 H   0  0  0  0  0  0  0  0  0  0  0  0
    9.1793    0.5158    0.0000 H   0  0  0  0  0  0  0  0  0  0  0  0
    9.8798    3.6884    0.0000 H   0  0  0  0  0  0  0  0  0  0  0  0
    9.1542   -1.1729    0.0000 H   0  0  0  0  0  0  0  0  0  0  0  0
    9.8445   -0.7744    0.0000 H   0  0  0  0  0  0  0  0  0  0  0  0
   12.4009   -0.5352    0.0000 H   0  0  0  0  0  0  0  0  0  0  0  0
   14.1284    1.6759    0.0000 H   0  0  0  0  0  0  0  0  0  0  0  0
    8.3695    0.0483    0.0000 H   0  0  0  0  0  0  0  0  0  0  0  0
    7.6793   -0.3503    0.0000 H   0  0  0  0  0  0  0  0  0  0  0  0
   15.4049    0.6786    0.0000 H   0  0  0  0  0  0  0  0  0  0  0  0
   15.1795   -0.9257    0.0000 H   0  0  0  0  0  0  0  0  0  0  0  0
    7.6542   -2.0389    0.0000 H   0  0  0  0  0  0  0  0  0  0  0  0
    8.3445   -1.6404    0.0000 H   0  0  0  0  0  0  0  0  0  0  0  0
   14.1131   -2.2906    0.0000 H   0  0  0  0  0  0  0  0  0  0  0  0
    6.4519   -0.8914    0.0000 H   0  0  0  0  0  0  0  0  0  0  0  0
    4.8709   -3.6884    0.0000 H   0  0  0  0  0  0  0  0  0  0  0  0
    4.8709   -0.9003    0.0000 H   0  0  0  0  0  0  0  0  0  0  0  0
    2.8660   -3.9144    0.0000 H   0  0  0  0  0  0  0  0  0  0  0  0
    2.8660   -0.6744    0.0000 H   0  0  0  0  0  0  0  0  0  0  0  0
    1.4631   -3.1044    0.0000 H   0  0  0  0  0  0  0  0  0  0  0  0
    1.4631   -1.4844    0.0000 H   0  0  0  0  0  0  0  0  0  0  0  0
  9  1  1  1  0  0  0
  1 48  1  0  0  0  0
  2 21  1  0  0  0  0
  2 59  1  0  0  0  0
  3 25  2  0  0  0  0
  4  8  1  0  0  0  0
  4 14  1  0  0  0  0
  4 16  1  0  0  0  0
  5 24  1  0  0  0  0
  5 25  1  0  0  0  0
  5 60  1  0  0  0  0
  6 26  1  0  0  0  0
  6 28  1  0  0  0  0
  6 61  1  0  0  0  0
  7  9  1  0  0  0  0
  7 10  1  0  0  0  0
  7 11  1  0  0  0  0
  7 15  1  6  0  0  0
  8  9  1  0  0  0  0
  8 12  1  0  0  0  0
  8 34  1  1  0  0  0
  9 35  1  0  0  0  0
 10 13  1  0  0  0  0
 10 36  1  0  0  0  0
 10 37  1  0  0  0  0
 11 14  1  0  0  0  0
 11 38  1  0  0  0  0
 11 39  1  0  0  0  0
 12 13  1  0  0  0  0
 12 40  1  0  0  0  0
 12 41  1  0  0  0  0
 13 42  1  0  0  0  0
 13 43  1  0  0  0  0
 14 44  1  0  0  0  0
 14 45  1  0  0  0  0
 15 18  2  0  0  0  0
 15 19  1  0  0  0  0
 16 17  1  0  0  0  0
 16 46  1  0  0  0  0
 16 47  1  0  0  0  0
 17 20  1  0  0  0  0
 17 49  1  0  0  0  0
 17 50  1  0  0  0  0
 18 21  1  0  0  0  0
 18 51  1  0  0  0  0
 19 22  2  0  0  0  0
 19 52  1  0  0  0  0
 20 24  1  0  0  0  0
 20 53  1  0  0  0  0
 20 54  1  0  0  0  0
 21 23  2  0  0  0  0
 22 23  1  0  0  0  0
 22 55  1  0  0  0  0
 23 56  1  0  0  0  0
 24 57  1  0  0  0  0
 24 58  1  0  0  0  0
 25 26  1  0  0  0  0
 26 27  2  0  0  0  0
 27 29  1  0  0  0  0
 27 62  1  0  0  0  0
 28 29  1  0  0  0  0
 28 30  2  0  0  0  0
 29 31  2  0  0  0  0
 30 32  1  0  0  0  0
 30 63  1  0  0  0  0
 31 33  1  0  0  0  0
 31 64  1  0  0  0  0
 32 33  2  0  0  0  0
 32 65  1  0  0  0  0
 33 66  1  0  0  0  0
M  END
> <PUBCHEM_COMPOUND_CID>
166630817

> <PUBCHEM_COMPOUND_CANONICALIZED>
1

> <PUBCHEM_CACTVS_COMPLEXITY>
675

> <PUBCHEM_CACTVS_HBOND_ACCEPTOR>
4

> <PUBCHEM_CACTVS_HBOND_DONOR>
4

> <PUBCHEM_CACTVS_ROTATABLE_BOND>
7

> <PUBCHEM_CACTVS_SUBSKEYS>
AAADcfB7MAAAAAAAAAAAAAAAAAAAAWAAAAA8YMEAAAAWAFgB9AAAHgAQCAAADjzhngYwxvPJkgCoAyVyVACCgCAnIiAImaG+bNgKdvLClbOUcQhk1hHY2Ye46fSfgAABAAACAAAAAAKAABQgAAAAAAAAAA==

> <PUBCHEM_IUPAC_OPENEYE_NAME>
N-[4-[(1S,5S,9S)-9-hydroxy-5-(3-hydroxyphenyl)-2-azabicyclo[3.3.1]nonan-2-yl]butyl]-1H-indole-2-carboxamide

> <PUBCHEM_IUPAC_CAS_NAME>
N-[4-[(1S,5S,9S)-9-hydroxy-5-(3-hydroxyphenyl)-2-azabicyclo[3.3.1]nonan-2-yl]butyl]-1H-indole-2-carboxamide

> <PUBCHEM_IUPAC_NAME_MARKUP>
<I>N</I>-[4-[(1<I>S</I>,5<I>S</I>,9<I>S</I>)-9-hydroxy-5-(3-hydroxyphenyl)-2-azabicyclo[3.3.1]nonan-2-yl]butyl]-1<I>H</I>-indole-2-carboxamide

> <PUBCHEM_IUPAC_NAME>
N-[4-[(1S,5S,9S)-9-hydroxy-5-(3-hydroxyphenyl)-2-azabicyclo[3.3.1]nonan-2-yl]butyl]-1H-indole-2-carboxamide

> <PUBCHEM_IUPAC_SYSTEMATIC_NAME>
N-[4-[(1S,5S,9S)-5-(3-hydroxyphenyl)-9-oxidanyl-2-azabicyclo[3.3.1]nonan-2-yl]butyl]-1H-indole-2-carboxamide

> <PUBCHEM_IUPAC_TRADITIONAL_NAME>
N-[4-[(1S,5S,9S)-9-hydroxy-5-(3-hydroxyphenyl)-2-azabicyclo[3.3.1]nonan-2-yl]butyl]-1H-indole-2-carboxamide

> <PUBCHEM_IUPAC_INCHI>
InChI=1S/C27H33N3O3/c31-21-9-5-8-20(18-21)27-12-6-11-24(25(27)32)30(16-13-27)15-4-3-14-28-26(33)23-17-19-7-1-2-10-22(19)29-23/h1-2,5,7-10,17-18,24-25,29,31-32H,3-4,6,11-16H2,(H,28,33)/t24-,25+,27-/m0/s1

> <PUBCHEM_IUPAC_INCHIKEY>
VOALUBYHXLQXRI-WEWMWRJBSA-N

> <PUBCHEM_XLOGP3_AA>
4.2

> <PUBCHEM_EXACT_MASS>
447.25219192

> <PUBCHEM_MOLECULAR_FORMULA>
C27H33N3O3

> <PUBCHEM_MOLECULAR_WEIGHT>
447.6

> <PUBCHEM_OPENEYE_CAN_SMILES>
C1CC2C(C(C1)(CCN2CCCCNC(=O)C3=CC4=CC=CC=C4N3)C5=CC(=CC=C5)O)O

> <PUBCHEM_OPENEYE_ISO_SMILES>
C1C[C@H]2[C@H]([C@@](C1)(CCN2CCCCNC(=O)C3=CC4=CC=CC=C4N3)C5=CC(=CC=C5)O)O

> <PUBCHEM_CACTVS_TPSA>
88.6

> <PUBCHEM_MONOISOTOPIC_WEIGHT>
447.25219192

> <PUBCHEM_TOTAL_CHARGE>
0

> <PUBCHEM_HEAVY_ATOM_COUNT>
33

> <PUBCHEM_ATOM_DEF_STEREO_COUNT>
3

> <PUBCHEM_ATOM_UDEF_STEREO_COUNT>
0

> <PUBCHEM_BOND_DEF_STEREO_COUNT>
0

> <PUBCHEM_BOND_UDEF_STEREO_COUNT>
0

> <PUBCHEM_ISOTOPIC_ATOM_COUNT>
0

> <PUBCHEM_COMPONENT_COUNT>
1

> <PUBCHEM_CACTVS_TAUTO_COUNT>
-1

> <PUBCHEM_COORDINATE_TYPE>
1
5
255

> <PUBCHEM_BONDANNOTATIONS>
9  1  5
15  18  8
15  19  8
18  21  8
19  22  8
21  23  8
22  23  8
26  27  8
27  29  8
28  29  8
28  30  8
29  31  8
30  32  8
31  33  8
32  33  8
6  26  8
6  28  8
7  15  6
8  34  5

$$$$
