44439396
  -OEChem-09292322262D

 50 53  0     1  0  0  0  0  0999 V2000
   10.7446   -0.7797    0.0000 O   0  0  0  0  0  0  0  0  0  0  0  0
   12.4765   -0.7997    0.0000 O   0  0  0  0  0  0  0  0  0  0  0  0
    5.5321    0.2549    0.0000 N   0  0  0  0  0  0  0  0  0  0  0  0
    7.2641    0.2549    0.0000 N   0  0  0  0  0  0  0  0  0  0  0  0
   10.7561    0.2203    0.0000 C   0  0  3  0  0  0  0  0  0  0  0  0
   11.6622    0.7341    0.0000 C   0  0  0  0  0  0  0  0  0  0  0  0
   11.6622    1.7757    0.0000 C   0  0  0  0  0  0  0  0  0  0  0  0
   10.7561    2.2896    0.0000 C   0  0  0  0  0  0  0  0  0  0  0  0
    9.8622    0.7549    0.0000 C   0  0  0  0  0  0  0  0  0  0  0  0
    9.8622    1.7549    0.0000 C   0  0  0  0  0  0  0  0  0  0  0  0
    8.9962    0.2549    0.0000 C   0  0  0  0  0  0  0  0  0  0  0  0
    5.5321   -0.7451    0.0000 C   0  0  0  0  0  0  0  0  0  0  0  0
    4.6660   -1.2451    0.0000 C   0  0  0  0  0  0  0  0  0  0  0  0
    4.6660    0.7549    0.0000 C   0  0  0  0  0  0  0  0  0  0  0  0
    8.9962    2.2549    0.0000 C   0  0  0  0  0  0  0  0  0  0  0  0
    3.8000   -0.7451    0.0000 C   0  0  0  0  0  0  0  0  0  0  0  0
    3.8000    0.2549    0.0000 C   0  0  0  0  0  0  0  0  0  0  0  0
    8.1301    0.7549    0.0000 C   0  0  0  0  0  0  0  0  0  0  0  0
    8.1301    1.7549    0.0000 C   0  0  0  0  0  0  0  0  0  0  0  0
    6.3981    0.7549    0.0000 C   0  0  0  0  0  0  0  0  0  0  0  0
    2.9061   -1.2797    0.0000 C   0  0  0  0  0  0  0  0  0  0  0  0
    2.9061    0.7896    0.0000 C   0  0  0  0  0  0  0  0  0  0  0  0
   11.6048   -1.2896    0.0000 C   0  0  0  0  0  0  0  0  0  0  0  0
    2.0000   -0.7659    0.0000 C   0  0  0  0  0  0  0  0  0  0  0  0
    2.0000    0.2757    0.0000 C   0  0  0  0  0  0  0  0  0  0  0  0
   11.5932   -2.2896    0.0000 C   0  0  0  0  0  0  0  0  0  0  0  0
   10.2151   -0.0825    0.0000 H   0  0  0  0  0  0  0  0  0  0  0  0
   11.8713    0.1504    0.0000 H   0  0  0  0  0  0  0  0  0  0  0  0
   12.2731    0.8402    0.0000 H   0  0  0  0  0  0  0  0  0  0  0  0
   12.2731    1.6696    0.0000 H   0  0  0  0  0  0  0  0  0  0  0  0
   11.8713    2.3594    0.0000 H   0  0  0  0  0  0  0  0  0  0  0  0
   11.1498    2.7686    0.0000 H   0  0  0  0  0  0  0  0  0  0  0  0
   10.3515    2.7594    0.0000 H   0  0  0  0  0  0  0  0  0  0  0  0
    8.9962   -0.3651    0.0000 H   0  0  0  0  0  0  0  0  0  0  0  0
    5.7441   -1.3277    0.0000 H   0  0  0  0  0  0  0  0  0  0  0  0
    6.1426   -0.6374    0.0000 H   0  0  0  0  0  0  0  0  0  0  0  0
    4.2675   -1.7200    0.0000 H   0  0  0  0  0  0  0  0  0  0  0  0
    5.0646   -1.7200    0.0000 H   0  0  0  0  0  0  0  0  0  0  0  0
    5.0646    1.2299    0.0000 H   0  0  0  0  0  0  0  0  0  0  0  0
    4.2675    1.2299    0.0000 H   0  0  0  0  0  0  0  0  0  0  0  0
    8.9962    2.8749    0.0000 H   0  0  0  0  0  0  0  0  0  0  0  0
    7.5932    2.0649    0.0000 H   0  0  0  0  0  0  0  0  0  0  0  0
    6.3981    1.3749    0.0000 H   0  0  0  0  0  0  0  0  0  0  0  0
    2.9132   -1.8997    0.0000 H   0  0  0  0  0  0  0  0  0  0  0  0
    2.9132    1.4095    0.0000 H   0  0  0  0  0  0  0  0  0  0  0  0
    1.4643   -1.0780    0.0000 H   0  0  0  0  0  0  0  0  0  0  0  0
    1.4643    0.5878    0.0000 H   0  0  0  0  0  0  0  0  0  0  0  0
   10.9732   -2.2824    0.0000 H   0  0  0  0  0  0  0  0  0  0  0  0
   11.5860   -2.9095    0.0000 H   0  0  0  0  0  0  0  0  0  0  0  0
   12.2131   -2.2968    0.0000 H   0  0  0  0  0  0  0  0  0  0  0  0
  1  5  1  0  0  0  0
  1 23  1  0  0  0  0
  2 23  2  0  0  0  0
  3 12  1  0  0  0  0
  3 14  1  0  0  0  0
  3 20  1  0  0  0  0
  4 18  1  0  0  0  0
  4 20  2  0  0  0  0
  5  6  1  0  0  0  0
  5  9  1  0  0  0  0
  5 27  1  0  0  0  0
  6  7  1  0  0  0  0
  6 28  1  0  0  0  0
  6 29  1  0  0  0  0
  7  8  1  0  0  0  0
  7 30  1  0  0  0  0
  7 31  1  0  0  0  0
  8 10  1  0  0  0  0
  8 32  1  0  0  0  0
  8 33  1  0  0  0  0
  9 10  2  0  0  0  0
  9 11  1  0  0  0  0
 10 15  1  0  0  0  0
 11 18  2  0  0  0  0
 11 34  1  0  0  0  0
 12 13  1  0  0  0  0
 12 35  1  0  0  0  0
 12 36  1  0  0  0  0
 13 16  1  0  0  0  0
 13 37  1  0  0  0  0
 13 38  1  0  0  0  0
 14 17  1  0  0  0  0
 14 39  1  0  0  0  0
 14 40  1  0  0  0  0
 15 19  2  0  0  0  0
 15 41  1  0  0  0  0
 16 17  1  0  0  0  0
 16 21  2  0  0  0  0
 17 22  2  0  0  0  0
 18 19  1  0  0  0  0
 19 42  1  0  0  0  0
 20 43  1  0  0  0  0
 21 24  1  0  0  0  0
 21 44  1  0  0  0  0
 22 25  1  0  0  0  0
 22 45  1  0  0  0  0
 23 26  1  0  0  0  0
 24 25  2  0  0  0  0
 24 46  1  0  0  0  0
 25 47  1  0  0  0  0
 26 48  1  0  0  0  0
 26 49  1  0  0  0  0
 26 50  1  0  0  0  0
M  END
> <PUBCHEM_COMPOUND_CID>
44439396

> <PUBCHEM_COMPOUND_CANONICALIZED>
1

> <PUBCHEM_CACTVS_COMPLEXITY>
520

> <PUBCHEM_CACTVS_HBOND_ACCEPTOR>
3

> <PUBCHEM_CACTVS_HBOND_DONOR>
0

> <PUBCHEM_CACTVS_ROTATABLE_BOND>
4

> <PUBCHEM_CACTVS_SUBSKEYS>
AAADceB7MAAAAAAAAAAAAAAAAAAAAAAAAAA8YMEAAAAAAADxQAAAHgAAAAAADBzhmAYzyIMABACoAiTTbACCAAEgAgAJiAAIbIgIJiKAuZmGMAhkwAGI6AewwLAOiAAAQAAQAAAQAAKAADAAAAAAAAAAAA==

> <PUBCHEM_IUPAC_OPENEYE_NAME>
[7-(3,4-dihydro-1H-isoquinolin-2-ylmethyleneamino)tetralin-1-yl] acetate

> <PUBCHEM_IUPAC_CAS_NAME>
acetic acid [7-(3,4-dihydro-1H-isoquinolin-2-ylmethylideneamino)-1,2,3,4-tetrahydronaphthalen-1-yl] ester

> <PUBCHEM_IUPAC_NAME_MARKUP>
[7-(3,4-dihydro-1<I>H</I>-isoquinolin-2-ylmethylideneamino)-1,2,3,4-tetrahydronaphthalen-1-yl] acetate

> <PUBCHEM_IUPAC_NAME>
[7-(3,4-dihydro-1H-isoquinolin-2-ylmethylideneamino)-1,2,3,4-tetrahydronaphthalen-1-yl] acetate

> <PUBCHEM_IUPAC_SYSTEMATIC_NAME>
[7-(3,4-dihydro-1H-isoquinolin-2-ylmethylideneamino)-1,2,3,4-tetrahydronaphthalen-1-yl] ethanoate

> <PUBCHEM_IUPAC_TRADITIONAL_NAME>
acetic acid [7-(3,4-dihydro-1H-isoquinolin-2-ylmethyleneamino)tetralin-1-yl] ester

> <PUBCHEM_IUPAC_INCHI>
InChI=1S/C22H24N2O2/c1-16(25)26-22-8-4-7-18-9-10-20(13-21(18)22)23-15-24-12-11-17-5-2-3-6-19(17)14-24/h2-3,5-6,9-10,13,15,22H,4,7-8,11-12,14H2,1H3

> <PUBCHEM_IUPAC_INCHIKEY>
ASMHEURTLBOCKH-UHFFFAOYSA-N

> <PUBCHEM_XLOGP3_AA>
3.6

> <PUBCHEM_EXACT_MASS>
348.183778013

> <PUBCHEM_MOLECULAR_FORMULA>
C22H24N2O2

> <PUBCHEM_MOLECULAR_WEIGHT>
348.4

> <PUBCHEM_OPENEYE_CAN_SMILES>
CC(=O)OC1CCCC2=C1C=C(C=C2)N=CN3CCC4=CC=CC=C4C3

> <PUBCHEM_OPENEYE_ISO_SMILES>
CC(=O)OC1CCCC2=C1C=C(C=C2)N=CN3CCC4=CC=CC=C4C3

> <PUBCHEM_CACTVS_TPSA>
41.9

> <PUBCHEM_MONOISOTOPIC_WEIGHT>
348.183778013

> <PUBCHEM_TOTAL_CHARGE>
0

> <PUBCHEM_HEAVY_ATOM_COUNT>
26

> <PUBCHEM_ATOM_DEF_STEREO_COUNT>
0

> <PUBCHEM_ATOM_UDEF_STEREO_COUNT>
1

> <PUBCHEM_BOND_DEF_STEREO_COUNT>
0

> <PUBCHEM_BOND_UDEF_STEREO_COUNT>
0

> <PUBCHEM_ISOTOPIC_ATOM_COUNT>
0

> <PUBCHEM_COMPONENT_COUNT>
1

> <PUBCHEM_CACTVS_TAUTO_COUNT>
-1

> <PUBCHEM_COORDINATE_TYPE>
1
5
255

> <PUBCHEM_BONDANNOTATIONS>
5  1  3
10  15  8
11  18  8
15  19  8
16  17  8
16  21  8
17  22  8
18  19  8
21  24  8
22  25  8
24  25  8
9  10  8
9  11  8

$$$$
