72164181
  -OEChem-09292322472D

 37 39  0     0  0  0  0  0  0999 V2000
    6.0486    2.2420    0.0000 S   0  0  0  0  0  0  0  0  0  0  0  0
    2.5369   -1.8512    0.0000 O   0  0  0  0  0  0  0  0  0  0  0  0
    4.2690    1.1488    0.0000 N   0  0  0  0  0  0  0  0  0  0  0  0
    4.2690   -0.8512    0.0000 N   0  0  0  0  0  0  0  0  0  0  0  0
    5.1350    0.6488    0.0000 C   0  0  0  0  0  0  0  0  0  0  0  0
    3.4030    0.6488    0.0000 C   0  0  0  0  0  0  0  0  0  0  0  0
    5.1350   -0.3512    0.0000 C   0  0  0  0  0  0  0  0  0  0  0  0
    3.4030   -0.3512    0.0000 C   0  0  0  0  0  0  0  0  0  0  0  0
    4.2690    2.1488    0.0000 C   0  0  0  0  0  0  0  0  0  0  0  0
    4.2690   -1.8512    0.0000 C   0  0  0  0  0  0  0  0  0  0  0  0
    5.1350    2.6488    0.0000 C   0  0  0  0  0  0  0  0  0  0  0  0
    3.4030   -2.3512    0.0000 C   0  0  0  0  0  0  0  0  0  0  0  0
    5.1350   -2.3512    0.0000 C   0  0  0  0  0  0  0  0  0  0  0  0
    5.2395    3.6433    0.0000 C   0  0  0  0  0  0  0  0  0  0  0  0
    3.4030   -3.3512    0.0000 C   0  0  0  0  0  0  0  0  0  0  0  0
    5.1350   -3.3512    0.0000 C   0  0  0  0  0  0  0  0  0  0  0  0
    4.2690   -3.8512    0.0000 C   0  0  0  0  0  0  0  0  0  0  0  0
    6.2177    3.8512    0.0000 C   0  0  0  0  0  0  0  0  0  0  0  0
    6.7177    2.9852    0.0000 C   0  0  0  0  0  0  0  0  0  0  0  0
    5.7456    0.5411    0.0000 H   0  0  0  0  0  0  0  0  0  0  0  0
    5.3471    1.2314    0.0000 H   0  0  0  0  0  0  0  0  0  0  0  0
    3.1909    1.2314    0.0000 H   0  0  0  0  0  0  0  0  0  0  0  0
    2.7924    0.5411    0.0000 H   0  0  0  0  0  0  0  0  0  0  0  0
    5.3471   -0.9338    0.0000 H   0  0  0  0  0  0  0  0  0  0  0  0
    5.7456   -0.2436    0.0000 H   0  0  0  0  0  0  0  0  0  0  0  0
    2.7924   -0.2436    0.0000 H   0  0  0  0  0  0  0  0  0  0  0  0
    3.1909   -0.9338    0.0000 H   0  0  0  0  0  0  0  0  0  0  0  0
    4.0569    2.7314    0.0000 H   0  0  0  0  0  0  0  0  0  0  0  0
    3.6584    2.0411    0.0000 H   0  0  0  0  0  0  0  0  0  0  0  0
    5.6720   -2.0412    0.0000 H   0  0  0  0  0  0  0  0  0  0  0  0
    4.7788    4.0582    0.0000 H   0  0  0  0  0  0  0  0  0  0  0  0
    2.8660   -3.6612    0.0000 H   0  0  0  0  0  0  0  0  0  0  0  0
    5.6720   -3.6612    0.0000 H   0  0  0  0  0  0  0  0  0  0  0  0
    4.2690   -4.4712    0.0000 H   0  0  0  0  0  0  0  0  0  0  0  0
    6.4699    4.4176    0.0000 H   0  0  0  0  0  0  0  0  0  0  0  0
    7.3343    2.9204    0.0000 H   0  0  0  0  0  0  0  0  0  0  0  0
    2.0000   -2.1612    0.0000 H   0  0  0  0  0  0  0  0  0  0  0  0
  1 11  1  0  0  0  0
  1 19  1  0  0  0  0
  2 12  1  0  0  0  0
  2 37  1  0  0  0  0
  3  5  1  0  0  0  0
  3  6  1  0  0  0  0
  3  9  1  0  0  0  0
  4  7  1  0  0  0  0
  4  8  1  0  0  0  0
  4 10  1  0  0  0  0
  5  7  1  0  0  0  0
  5 20  1  0  0  0  0
  5 21  1  0  0  0  0
  6  8  1  0  0  0  0
  6 22  1  0  0  0  0
  6 23  1  0  0  0  0
  7 24  1  0  0  0  0
  7 25  1  0  0  0  0
  8 26  1  0  0  0  0
  8 27  1  0  0  0  0
  9 11  1  0  0  0  0
  9 28  1  0  0  0  0
  9 29  1  0  0  0  0
 10 12  1  0  0  0  0
 10 13  2  0  0  0  0
 11 14  2  0  0  0  0
 12 15  2  0  0  0  0
 13 16  1  0  0  0  0
 13 30  1  0  0  0  0
 14 18  1  0  0  0  0
 14 31  1  0  0  0  0
 15 17  1  0  0  0  0
 15 32  1  0  0  0  0
 16 17  2  0  0  0  0
 16 33  1  0  0  0  0
 17 34  1  0  0  0  0
 18 19  2  0  0  0  0
 18 35  1  0  0  0  0
 19 36  1  0  0  0  0
M  END
> <PUBCHEM_COMPOUND_CID>
72164181

> <PUBCHEM_COMPOUND_CANONICALIZED>
1

> <PUBCHEM_CACTVS_COMPLEXITY>
281

> <PUBCHEM_CACTVS_HBOND_ACCEPTOR>
4

> <PUBCHEM_CACTVS_HBOND_DONOR>
1

> <PUBCHEM_CACTVS_ROTATABLE_BOND>
3

> <PUBCHEM_CACTVS_SUBSKEYS>
AAADceBzIABAAAAAAAAAAAAAAAAAASAAAAA8QAAAAAAAAAABwAAAHgQACAAACAzF0ASwx4MAAgiEACRCQACDAIAhKhBIiBgPbIgKZiLykZOUcAhkwBH42AeQQAAAAAAAAAAAEAAAAAAAAAAgAAAAAAAAAA==

> <PUBCHEM_IUPAC_OPENEYE_NAME>
2-[4-(2-thienylmethyl)piperazin-1-yl]phenol

> <PUBCHEM_IUPAC_CAS_NAME>
2-[4-(thiophen-2-ylmethyl)-1-piperazinyl]phenol

> <PUBCHEM_IUPAC_NAME_MARKUP>
2-[4-(thiophen-2-ylmethyl)piperazin-1-yl]phenol

> <PUBCHEM_IUPAC_NAME>
2-[4-(thiophen-2-ylmethyl)piperazin-1-yl]phenol

> <PUBCHEM_IUPAC_SYSTEMATIC_NAME>
2-[4-(thiophen-2-ylmethyl)piperazin-1-yl]phenol

> <PUBCHEM_IUPAC_TRADITIONAL_NAME>
2-[4-(2-thenyl)piperazino]phenol

> <PUBCHEM_IUPAC_INCHI>
InChI=1S/C15H18N2OS/c18-15-6-2-1-5-14(15)17-9-7-16(8-10-17)12-13-4-3-11-19-13/h1-6,11,18H,7-10,12H2

> <PUBCHEM_IUPAC_INCHIKEY>
OCLCIUHCAHLFPM-UHFFFAOYSA-N

> <PUBCHEM_XLOGP3_AA>
2.7

> <PUBCHEM_EXACT_MASS>
274.11398438

> <PUBCHEM_MOLECULAR_FORMULA>
C15H18N2OS

> <PUBCHEM_MOLECULAR_WEIGHT>
274.4

> <PUBCHEM_OPENEYE_CAN_SMILES>
C1CN(CCN1CC2=CC=CS2)C3=CC=CC=C3O

> <PUBCHEM_OPENEYE_ISO_SMILES>
C1CN(CCN1CC2=CC=CS2)C3=CC=CC=C3O

> <PUBCHEM_CACTVS_TPSA>
55

> <PUBCHEM_MONOISOTOPIC_WEIGHT>
274.11398438

> <PUBCHEM_TOTAL_CHARGE>
0

> <PUBCHEM_HEAVY_ATOM_COUNT>
19

> <PUBCHEM_ATOM_DEF_STEREO_COUNT>
0

> <PUBCHEM_ATOM_UDEF_STEREO_COUNT>
0

> <PUBCHEM_BOND_DEF_STEREO_COUNT>
0

> <PUBCHEM_BOND_UDEF_STEREO_COUNT>
0

> <PUBCHEM_ISOTOPIC_ATOM_COUNT>
0

> <PUBCHEM_COMPONENT_COUNT>
1

> <PUBCHEM_CACTVS_TAUTO_COUNT>
-1

> <PUBCHEM_COORDINATE_TYPE>
1
5
255

> <PUBCHEM_BONDANNOTATIONS>
1  11  8
1  19  8
10  12  8
10  13  8
11  14  8
12  15  8
13  16  8
14  18  8
15  17  8
16  17  8
18  19  8

$$$$
