118736406
  -OEChem-09292322092D

100104  0     1  0  0  0  0  0999 V2000
    9.9622    3.5855    0.0000 O   0  0  0  0  0  0  0  0  0  0  0  0
   10.2339   -0.0098    0.0000 O   0  0  0  0  0  0  0  0  0  0  0  0
   13.4835   -1.5721    0.0000 O   0  0  0  0  0  0  0  0  0  0  0  0
   15.1696    1.6149    0.0000 O   0  0  0  0  0  0  0  0  0  0  0  0
   12.7763   -4.9633    0.0000 O   0  0  0  0  0  0  0  0  0  0  0  0
    6.9654    4.2329    0.0000 N   0  0  3  0  0  0  0  0  0  0  0  0
    4.5124    3.1154    0.0000 N   0  0  0  0  0  0  0  0  0  0  0  0
    9.6086    1.8899    0.0000 N   0  0  0  0  0  0  0  0  0  0  0  0
   11.8792    0.5318    0.0000 N   0  0  0  0  0  0  0  0  0  0  0  0
   13.8370    0.1235    0.0000 N   0  0  0  0  0  0  0  0  0  0  0  0
   16.4612    0.4609    0.0000 N   0  0  0  0  0  0  0  0  0  0  0  0
   17.7119   -3.3385    0.0000 N   0  0  0  0  0  0  0  0  0  0  0  0
    6.2962    3.4897    0.0000 C   0  0  2  0  0  0  0  0  0  0  0  0
    6.6028    2.4942    0.0000 C   0  0  0  0  0  0  0  0  0  0  0  0
    8.3170    3.0439    0.0000 C   0  0  2  0  0  0  0  0  0  0  0  0
    7.9875    4.0320    0.0000 C   0  0  0  0  0  0  0  0  0  0  0  0
    7.6200    2.2698    0.0000 C   0  0  0  0  0  0  0  0  0  0  0  0
    5.3181    3.6976    0.0000 C   0  0  0  0  0  0  0  0  0  0  0  0
    6.6564    5.1839    0.0000 C   0  0  0  0  0  0  0  0  0  0  0  0
    5.0091    4.6487    0.0000 C   0  0  0  0  0  0  0  0  0  0  0  0
    5.6782    5.3918    0.0000 C   0  0  0  0  0  0  0  0  0  0  0  0
    4.0150    4.6461    0.0000 C   0  0  0  0  0  0  0  0  0  0  0  0
    9.2959    2.8398    0.0000 C   0  0  0  0  0  0  0  0  0  0  0  0
    3.7086    3.7004    0.0000 C   0  0  0  0  0  0  0  0  0  0  0  0
    3.3334    5.4256    0.0000 C   0  0  0  0  0  0  0  0  0  0  0  0
    2.6994    3.4687    0.0000 C   0  0  0  0  0  0  0  0  0  0  0  0
   10.5875    1.6858    0.0000 C   0  0  1  0  0  0  0  0  0  0  0  0
    2.3191    5.2173    0.0000 C   0  0  0  0  0  0  0  0  0  0  0  0
    2.0000    4.2322    0.0000 C   0  0  0  0  0  0  0  0  0  0  0  0
   11.2538    2.4315    0.0000 C   0  0  0  0  0  0  0  0  0  0  0  0
   10.9002    0.7359    0.0000 C   0  0  0  0  0  0  0  0  0  0  0  0
   12.2327    2.2273    0.0000 C   0  0  0  0  0  0  0  0  0  0  0  0
   12.8990    2.9731    0.0000 C   0  0  0  0  0  0  0  0  0  0  0  0
   12.1918   -0.4181    0.0000 C   0  0  1  0  0  0  0  0  0  0  0  0
   11.5256   -1.1638    0.0000 C   0  0  0  0  0  0  0  0  0  0  0  0
   13.8779    2.7689    0.0000 C   0  0  0  0  0  0  0  0  0  0  0  0
   13.1708   -0.6222    0.0000 C   0  0  0  0  0  0  0  0  0  0  0  0
   14.8160   -0.0807    0.0000 C   0  0  1  0  0  0  0  0  0  0  0  0
   11.8383   -2.1137    0.0000 C   0  0  0  0  0  0  0  0  0  0  0  0
   15.1287   -1.0305    0.0000 C   0  0  0  0  0  0  0  0  0  0  0  0
   16.1076   -1.2347    0.0000 C   0  0  0  0  0  0  0  0  0  0  0  0
   12.8172   -2.3178    0.0000 C   0  0  0  0  0  0  0  0  0  0  0  0
   11.1720   -2.8594    0.0000 C   0  0  0  0  0  0  0  0  0  0  0  0
   16.4203   -2.1845    0.0000 C   0  0  0  0  0  0  0  0  0  0  0  0
   15.4822    0.6651    0.0000 C   0  0  0  0  0  0  0  0  0  0  0  0
   17.3992   -2.3887    0.0000 C   0  0  0  0  0  0  0  0  0  0  0  0
   13.1299   -3.2677    0.0000 C   0  0  0  0  0  0  0  0  0  0  0  0
   11.4847   -3.8093    0.0000 C   0  0  0  0  0  0  0  0  0  0  0  0
   12.4636   -4.0134    0.0000 C   0  0  0  0  0  0  0  0  0  0  0  0
    5.7226    2.8624    0.0000 H   0  0  0  0  0  0  0  0  0  0  0  0
    5.9878    2.4158    0.0000 H   0  0  0  0  0  0  0  0  0  0  0  0
    6.5748    1.8748    0.0000 H   0  0  0  0  0  0  0  0  0  0  0  0
    8.7292    3.5070    0.0000 H   0  0  0  0  0  0  0  0  0  0  0  0
    8.6005    4.1246    0.0000 H   0  0  0  0  0  0  0  0  0  0  0  0
    8.0011    4.6519    0.0000 H   0  0  0  0  0  0  0  0  0  0  0  0
    7.3848    1.6962    0.0000 H   0  0  0  0  0  0  0  0  0  0  0  0
    8.1449    1.9399    0.0000 H   0  0  0  0  0  0  0  0  0  0  0  0
    7.2703    5.2702    0.0000 H   0  0  0  0  0  0  0  0  0  0  0  0
    6.6780    5.8035    0.0000 H   0  0  0  0  0  0  0  0  0  0  0  0
    5.9105    5.9667    0.0000 H   0  0  0  0  0  0  0  0  0  0  0  0
    5.1524    5.7204    0.0000 H   0  0  0  0  0  0  0  0  0  0  0  0
    4.5113    2.4954    0.0000 H   0  0  0  0  0  0  0  0  0  0  0  0
    9.1955    1.4275    0.0000 H   0  0  0  0  0  0  0  0  0  0  0  0
    3.5313    6.0132    0.0000 H   0  0  0  0  0  0  0  0  0  0  0  0
    2.5152    2.8767    0.0000 H   0  0  0  0  0  0  0  0  0  0  0  0
   10.3937    2.2747    0.0000 H   0  0  0  0  0  0  0  0  0  0  0  0
    1.9056    5.6792    0.0000 H   0  0  0  0  0  0  0  0  0  0  0  0
    1.3942    4.1004    0.0000 H   0  0  0  0  0  0  0  0  0  0  0  0
   11.4838    3.0072    0.0000 H   0  0  0  0  0  0  0  0  0  0  0  0
   10.7267    2.7580    0.0000 H   0  0  0  0  0  0  0  0  0  0  0  0
   12.0027    1.6516    0.0000 H   0  0  0  0  0  0  0  0  0  0  0  0
   12.7598    1.9008    0.0000 H   0  0  0  0  0  0  0  0  0  0  0  0
   12.2922    0.9941    0.0000 H   0  0  0  0  0  0  0  0  0  0  0  0
   13.1290    3.5488    0.0000 H   0  0  0  0  0  0  0  0  0  0  0  0
   12.3719    3.2996    0.0000 H   0  0  0  0  0  0  0  0  0  0  0  0
   12.6049    0.0442    0.0000 H   0  0  0  0  0  0  0  0  0  0  0  0
   11.1420   -0.6767    0.0000 H   0  0  0  0  0  0  0  0  0  0  0  0
   10.9793   -1.4570    0.0000 H   0  0  0  0  0  0  0  0  0  0  0  0
   13.7514    2.1620    0.0000 H   0  0  0  0  0  0  0  0  0  0  0  0
   14.4849    2.6423    0.0000 H   0  0  0  0  0  0  0  0  0  0  0  0
   14.0045    3.3758    0.0000 H   0  0  0  0  0  0  0  0  0  0  0  0
   14.6221    0.5082    0.0000 H   0  0  0  0  0  0  0  0  0  0  0  0
   13.6432    0.7124    0.0000 H   0  0  0  0  0  0  0  0  0  0  0  0
   14.5150   -1.1192    0.0000 H   0  0  0  0  0  0  0  0  0  0  0  0
   15.1094   -1.6502    0.0000 H   0  0  0  0  0  0  0  0  0  0  0  0
   16.7212   -1.1460    0.0000 H   0  0  0  0  0  0  0  0  0  0  0  0
   16.1268   -0.6150    0.0000 H   0  0  0  0  0  0  0  0  0  0  0  0
   13.2303   -1.8555    0.0000 H   0  0  0  0  0  0  0  0  0  0  0  0
   10.5650   -2.7328    0.0000 H   0  0  0  0  0  0  0  0  0  0  0  0
   15.8067   -2.2732    0.0000 H   0  0  0  0  0  0  0  0  0  0  0  0
   16.4010   -2.8042    0.0000 H   0  0  0  0  0  0  0  0  0  0  0  0
   18.0128   -2.3000    0.0000 H   0  0  0  0  0  0  0  0  0  0  0  0
   17.4185   -1.7690    0.0000 H   0  0  0  0  0  0  0  0  0  0  0  0
   13.7368   -3.3942    0.0000 H   0  0  0  0  0  0  0  0  0  0  0  0
   11.0716   -4.2716    0.0000 H   0  0  0  0  0  0  0  0  0  0  0  0
   16.8743    0.9233    0.0000 H   0  0  0  0  0  0  0  0  0  0  0  0
   16.6550   -0.1280    0.0000 H   0  0  0  0  0  0  0  0  0  0  0  0
   18.3188   -3.4651    0.0000 H   0  0  0  0  0  0  0  0  0  0  0  0
   17.2988   -3.8009    0.0000 H   0  0  0  0  0  0  0  0  0  0  0  0
   12.3632   -5.4256    0.0000 H   0  0  0  0  0  0  0  0  0  0  0  0
  1 23  2  0  0  0  0
  2 31  2  0  0  0  0
  3 37  2  0  0  0  0
  4 45  2  0  0  0  0
  5 49  1  0  0  0  0
  5100  1  0  0  0  0
  6 13  1  0  0  0  0
  6 16  1  0  0  0  0
  6 19  1  0  0  0  0
  7 18  1  0  0  0  0
  7 24  1  0  0  0  0
  7 62  1  0  0  0  0
  8 23  1  0  0  0  0
 27  8  1  1  0  0  0
  8 63  1  0  0  0  0
  9 31  1  0  0  0  0
 34  9  1  6  0  0  0
  9 73  1  0  0  0  0
 10 37  1  0  0  0  0
 38 10  1  6  0  0  0
 10 83  1  0  0  0  0
 11 45  1  0  0  0  0
 11 96  1  0  0  0  0
 11 97  1  0  0  0  0
 12 46  1  0  0  0  0
 12 98  1  0  0  0  0
 12 99  1  0  0  0  0
 13 14  1  0  0  0  0
 13 18  1  0  0  0  0
 13 50  1  1  0  0  0
 14 17  1  0  0  0  0
 14 51  1  0  0  0  0
 14 52  1  0  0  0  0
 15 16  1  0  0  0  0
 15 17  1  0  0  0  0
 15 23  1  1  0  0  0
 15 53  1  0  0  0  0
 16 54  1  0  0  0  0
 16 55  1  0  0  0  0
 17 56  1  0  0  0  0
 17 57  1  0  0  0  0
 18 20  2  0  0  0  0
 19 21  1  0  0  0  0
 19 58  1  0  0  0  0
 19 59  1  0  0  0  0
 20 21  1  0  0  0  0
 20 22  1  0  0  0  0
 21 60  1  0  0  0  0
 21 61  1  0  0  0  0
 22 24  1  0  0  0  0
 22 25  2  0  0  0  0
 24 26  2  0  0  0  0
 25 28  1  0  0  0  0
 25 64  1  0  0  0  0
 26 29  1  0  0  0  0
 26 65  1  0  0  0  0
 27 30  1  0  0  0  0
 27 31  1  0  0  0  0
 27 66  1  0  0  0  0
 28 29  2  0  0  0  0
 28 67  1  0  0  0  0
 29 68  1  0  0  0  0
 30 32  1  0  0  0  0
 30 69  1  0  0  0  0
 30 70  1  0  0  0  0
 32 33  1  0  0  0  0
 32 71  1  0  0  0  0
 32 72  1  0  0  0  0
 33 36  1  0  0  0  0
 33 74  1  0  0  0  0
 33 75  1  0  0  0  0
 34 35  1  0  0  0  0
 34 37  1  0  0  0  0
 34 76  1  0  0  0  0
 35 39  1  0  0  0  0
 35 77  1  0  0  0  0
 35 78  1  0  0  0  0
 36 79  1  0  0  0  0
 36 80  1  0  0  0  0
 36 81  1  0  0  0  0
 38 40  1  0  0  0  0
 38 45  1  0  0  0  0
 38 82  1  0  0  0  0
 39 42  2  0  0  0  0
 39 43  1  0  0  0  0
 40 41  1  0  0  0  0
 40 84  1  0  0  0  0
 40 85  1  0  0  0  0
 41 44  1  0  0  0  0
 41 86  1  0  0  0  0
 41 87  1  0  0  0  0
 42 47  1  0  0  0  0
 42 88  1  0  0  0  0
 43 48  2  0  0  0  0
 43 89  1  0  0  0  0
 44 46  1  0  0  0  0
 44 90  1  0  0  0  0
 44 91  1  0  0  0  0
 46 92  1  0  0  0  0
 46 93  1  0  0  0  0
 47 49  2  0  0  0  0
 47 94  1  0  0  0  0
 48 49  1  0  0  0  0
 48 95  1  0  0  0  0
M  END
> <PUBCHEM_COMPOUND_CID>
118736406

> <PUBCHEM_COMPOUND_CANONICALIZED>
1

> <PUBCHEM_CACTVS_COMPLEXITY>
1120

> <PUBCHEM_CACTVS_HBOND_ACCEPTOR>
7

> <PUBCHEM_CACTVS_HBOND_DONOR>
7

> <PUBCHEM_CACTVS_ROTATABLE_BOND>
16

> <PUBCHEM_CACTVS_SUBSKEYS>
AAADcfB/uAAAAAAAAAAAAAAAAAAAAWAAAAA8eIEAAAAAAFix9AAAHgAQCAAADSzBngQyxvPJkgCoAyVyVACCgCAhIiAImaG+bJgIZvrC0bOUcAhk1hHI2AeYyeCeoAAAAAACAABAAAAAAAQAAAAAAAAAAA==

> <PUBCHEM_IUPAC_OPENEYE_NAME>
(3S,12bR)-N-[(1S)-1-[[(1S)-2-[[(1S)-5-amino-1-carbamoyl-pentyl]amino]-1-[(4-hydroxyphenyl)methyl]-2-oxo-ethyl]carbamoyl]pentyl]-1,2,3,4,6,7,12,12b-octahydroindolo[2,3-a]quinolizine-3-carboxamide

> <PUBCHEM_IUPAC_CAS_NAME>
(3S,12bR)-N-[(2S)-1-[[(2S)-1-[[(2S)-1,6-diamino-1-oxohexan-2-yl]amino]-3-(4-hydroxyphenyl)-1-oxopropan-2-yl]amino]-1-oxohexan-2-yl]-1,2,3,4,6,7,12,12b-octahydroindolo[2,3-a]quinolizine-3-carboxamide

> <PUBCHEM_IUPAC_NAME_MARKUP>
(3<I>S</I>,12<I>b</I><I>R</I>)-<I>N</I>-[(2<I>S</I>)-1-[[(2<I>S</I>)-1-[[(2<I>S</I>)-1,6-diamino-1-oxohexan-2-yl]amino]-3-(4-hydroxyphenyl)-1-oxopropan-2-yl]amino]-1-oxohexan-2-yl]-1,2,3,4,6,7,12,12<I>b</I>-octahydroindolo[2,3-a]quinolizine-3-carboxamide

> <PUBCHEM_IUPAC_NAME>
(3S,12bR)-N-[(2S)-1-[[(2S)-1-[[(2S)-1,6-diamino-1-oxohexan-2-yl]amino]-3-(4-hydroxyphenyl)-1-oxopropan-2-yl]amino]-1-oxohexan-2-yl]-1,2,3,4,6,7,12,12b-octahydroindolo[2,3-a]quinolizine-3-carboxamide

> <PUBCHEM_IUPAC_SYSTEMATIC_NAME>
(3S,12bR)-N-[(2S)-1-[[(2S)-1-[[(2S)-1,6-bis(azanyl)-1-oxidanylidene-hexan-2-yl]amino]-3-(4-hydroxyphenyl)-1-oxidanylidene-propan-2-yl]amino]-1-oxidanylidene-hexan-2-yl]-1,2,3,4,6,7,12,12b-octahydroindolo[2,3-a]quinolizine-3-carboxamide

> <PUBCHEM_IUPAC_TRADITIONAL_NAME>
(3S,12bR)-N-[(1S)-1-[[(1S)-2-[[(1S)-5-amino-1-carbamoyl-pentyl]amino]-1-(4-hydroxybenzyl)-2-keto-ethyl]carbamoyl]pentyl]-1,2,3,4,6,7,12,12b-octahydropyrido[2,1-a]beta-carboline-3-carboxamide

> <PUBCHEM_IUPAC_INCHI>
InChI=1S/C37H51N7O5/c1-2-3-9-30(42-35(47)24-14-17-32-33-27(18-20-44(32)22-24)26-8-4-5-10-28(26)40-33)36(48)43-31(21-23-12-15-25(45)16-13-23)37(49)41-29(34(39)46)11-6-7-19-38/h4-5,8,10,12-13,15-16,24,29-32,40,45H,2-3,6-7,9,11,14,17-22,38H2,1H3,(H2,39,46)(H,41,49)(H,42,47)(H,43,48)/t24-,29-,30-,31-,32+/m0/s1

> <PUBCHEM_IUPAC_INCHIKEY>
KMGVERQIRHTKMX-MAKWBINYSA-N

> <PUBCHEM_XLOGP3_AA>
3

> <PUBCHEM_EXACT_MASS>
673.39516775

> <PUBCHEM_MOLECULAR_FORMULA>
C37H51N7O5

> <PUBCHEM_MOLECULAR_WEIGHT>
673.8

> <PUBCHEM_OPENEYE_CAN_SMILES>
CCCCC(C(=O)NC(CC1=CC=C(C=C1)O)C(=O)NC(CCCCN)C(=O)N)NC(=O)C2CCC3C4=C(CCN3C2)C5=CC=CC=C5N4

> <PUBCHEM_OPENEYE_ISO_SMILES>
CCCC[C@@H](C(=O)N[C@@H](CC1=CC=C(C=C1)O)C(=O)N[C@@H](CCCCN)C(=O)N)NC(=O)[C@H]2CC[C@@H]3C4=C(CCN3C2)C5=CC=CC=C5N4

> <PUBCHEM_CACTVS_TPSA>
196

> <PUBCHEM_MONOISOTOPIC_WEIGHT>
673.39516775

> <PUBCHEM_TOTAL_CHARGE>
0

> <PUBCHEM_HEAVY_ATOM_COUNT>
49

> <PUBCHEM_ATOM_DEF_STEREO_COUNT>
5

> <PUBCHEM_ATOM_UDEF_STEREO_COUNT>
0

> <PUBCHEM_BOND_DEF_STEREO_COUNT>
0

> <PUBCHEM_BOND_UDEF_STEREO_COUNT>
0

> <PUBCHEM_ISOTOPIC_ATOM_COUNT>
0

> <PUBCHEM_COMPONENT_COUNT>
1

> <PUBCHEM_CACTVS_TAUTO_COUNT>
-1

> <PUBCHEM_COORDINATE_TYPE>
1
5
255

> <PUBCHEM_BONDANNOTATIONS>
38  10  6
13  50  5
15  23  5
18  20  8
20  22  8
22  24  8
22  25  8
24  26  8
25  28  8
26  29  8
28  29  8
39  42  8
39  43  8
42  47  8
43  48  8
47  49  8
48  49  8
7  18  8
7  24  8
27  8  5
34  9  6

$$$$
