9887092
  -OEChem-09292322512D

 56 59  0     1  0  0  0  0  0999 V2000
    7.5072    4.8143    0.0000 Cl  0  0  0  0  0  0  0  0  0  0  0  0
    6.2619   -2.3148    0.0000 O   0  0  0  0  0  0  0  0  0  0  0  0
    5.4883   -0.9236    0.0000 N   0  0  0  0  0  0  0  0  0  0  0  0
    4.6783   -3.1195    0.0000 N   0  0  0  0  0  0  0  0  0  0  0  0
    7.1084    0.2491    0.0000 N   0  0  0  0  0  0  0  0  0  0  0  0
    4.6783   -1.5100    0.0000 C   0  0  3  0  0  0  0  0  0  0  0  0
    3.7320   -1.8148    0.0000 C   0  0  0  0  0  0  0  0  0  0  0  0
    5.3855    0.0711    0.0000 C   0  0  0  0  0  0  0  0  0  0  0  0
    6.4011   -1.3320    0.0000 C   0  0  0  0  0  0  0  0  0  0  0  0
    4.3709   -0.5584    0.0000 C   0  0  0  0  0  0  0  0  0  0  0  0
    5.2619   -2.3148    0.0000 C   0  0  0  0  0  0  0  0  0  0  0  0
    6.1955    0.6574    0.0000 C   0  0  0  0  0  0  0  0  0  0  0  0
    7.2112   -0.7456    0.0000 C   0  0  0  0  0  0  0  0  0  0  0  0
    3.7320   -2.8148    0.0000 C   0  0  0  0  0  0  0  0  0  0  0  0
    2.8660   -1.3148    0.0000 C   0  0  0  0  0  0  0  0  0  0  0  0
    3.3931   -0.3488    0.0000 C   0  0  0  0  0  0  0  0  0  0  0  0
    4.9889   -4.0700    0.0000 C   0  0  0  0  0  0  0  0  0  0  0  0
    7.9184    0.8355    0.0000 C   0  0  0  0  0  0  0  0  0  0  0  0
    2.8660   -3.3148    0.0000 C   0  0  0  0  0  0  0  0  0  0  0  0
    2.0000   -1.8148    0.0000 C   0  0  0  0  0  0  0  0  0  0  0  0
    2.0000   -2.8148    0.0000 C   0  0  0  0  0  0  0  0  0  0  0  0
    7.8156    1.8302    0.0000 C   0  0  0  0  0  0  0  0  0  0  0  0
    4.3211   -4.8143    0.0000 C   0  0  0  0  0  0  0  0  0  0  0  0
    6.9028    2.2385    0.0000 C   0  0  0  0  0  0  0  0  0  0  0  0
    8.6256    2.4166    0.0000 C   0  0  0  0  0  0  0  0  0  0  0  0
    6.8000    3.2332    0.0000 C   0  0  0  0  0  0  0  0  0  0  0  0
    8.5228    3.4113    0.0000 C   0  0  0  0  0  0  0  0  0  0  0  0
    7.6100    3.8196    0.0000 C   0  0  0  0  0  0  0  0  0  0  0  0
    5.1147    0.6288    0.0000 H   0  0  0  0  0  0  0  0  0  0  0  0
    4.7892   -0.0988    0.0000 H   0  0  0  0  0  0  0  0  0  0  0  0
    6.0536   -1.8454    0.0000 H   0  0  0  0  0  0  0  0  0  0  0  0
    6.8464   -1.7634    0.0000 H   0  0  0  0  0  0  0  0  0  0  0  0
    4.9850   -0.4732    0.0000 H   0  0  0  0  0  0  0  0  0  0  0  0
    4.3936    0.0611    0.0000 H   0  0  0  0  0  0  0  0  0  0  0  0
    6.5431    1.1708    0.0000 H   0  0  0  0  0  0  0  0  0  0  0  0
    5.7503    1.0889    0.0000 H   0  0  0  0  0  0  0  0  0  0  0  0
    7.4820   -1.3033    0.0000 H   0  0  0  0  0  0  0  0  0  0  0  0
    7.8074   -0.5757    0.0000 H   0  0  0  0  0  0  0  0  0  0  0  0
    2.8660   -0.6948    0.0000 H   0  0  0  0  0  0  0  0  0  0  0  0
    3.5231    0.2574    0.0000 H   0  0  0  0  0  0  0  0  0  0  0  0
    2.7869   -0.2189    0.0000 H   0  0  0  0  0  0  0  0  0  0  0  0
    3.2632   -0.9551    0.0000 H   0  0  0  0  0  0  0  0  0  0  0  0
    5.3715   -4.5579    0.0000 H   0  0  0  0  0  0  0  0  0  0  0  0
    5.5359   -3.7780    0.0000 H   0  0  0  0  0  0  0  0  0  0  0  0
    8.1892    0.2778    0.0000 H   0  0  0  0  0  0  0  0  0  0  0  0
    8.5147    1.0054    0.0000 H   0  0  0  0  0  0  0  0  0  0  0  0
    2.8660   -3.9348    0.0000 H   0  0  0  0  0  0  0  0  0  0  0  0
    1.4631   -1.5048    0.0000 H   0  0  0  0  0  0  0  0  0  0  0  0
    1.4631   -3.1248    0.0000 H   0  0  0  0  0  0  0  0  0  0  0  0
    3.8596   -4.4002    0.0000 H   0  0  0  0  0  0  0  0  0  0  0  0
    3.9070   -5.2758    0.0000 H   0  0  0  0  0  0  0  0  0  0  0  0
    4.7826   -5.2284    0.0000 H   0  0  0  0  0  0  0  0  0  0  0  0
    6.4005    1.8750    0.0000 H   0  0  0  0  0  0  0  0  0  0  0  0
    9.1916    2.1634    0.0000 H   0  0  0  0  0  0  0  0  0  0  0  0
    6.2340    3.4864    0.0000 H   0  0  0  0  0  0  0  0  0  0  0  0
    9.0250    3.7748    0.0000 H   0  0  0  0  0  0  0  0  0  0  0  0
  1 28  1  0  0  0  0
  2 11  2  0  0  0  0
  3  6  1  0  0  0  0
  3  8  1  0  0  0  0
  3  9  1  0  0  0  0
  4 11  1  0  0  0  0
  4 14  1  0  0  0  0
  4 17  1  0  0  0  0
  5 12  1  0  0  0  0
  5 13  1  0  0  0  0
  5 18  1  0  0  0  0
  6  7  1  0  0  0  0
  6 10  1  0  0  0  0
  6 11  1  0  0  0  0
  7 14  1  0  0  0  0
  7 15  2  0  0  0  0
  8 12  1  0  0  0  0
  8 29  1  0  0  0  0
  8 30  1  0  0  0  0
  9 13  1  0  0  0  0
  9 31  1  0  0  0  0
  9 32  1  0  0  0  0
 10 16  1  0  0  0  0
 10 33  1  0  0  0  0
 10 34  1  0  0  0  0
 12 35  1  0  0  0  0
 12 36  1  0  0  0  0
 13 37  1  0  0  0  0
 13 38  1  0  0  0  0
 14 19  2  0  0  0  0
 15 20  1  0  0  0  0
 15 39  1  0  0  0  0
 16 40  1  0  0  0  0
 16 41  1  0  0  0  0
 16 42  1  0  0  0  0
 17 23  1  0  0  0  0
 17 43  1  0  0  0  0
 17 44  1  0  0  0  0
 18 22  1  0  0  0  0
 18 45  1  0  0  0  0
 18 46  1  0  0  0  0
 19 21  1  0  0  0  0
 19 47  1  0  0  0  0
 20 21  2  0  0  0  0
 20 48  1  0  0  0  0
 21 49  1  0  0  0  0
 22 24  2  0  0  0  0
 22 25  1  0  0  0  0
 23 50  1  0  0  0  0
 23 51  1  0  0  0  0
 23 52  1  0  0  0  0
 24 26  1  0  0  0  0
 24 53  1  0  0  0  0
 25 27  2  0  0  0  0
 25 54  1  0  0  0  0
 26 28  2  0  0  0  0
 26 55  1  0  0  0  0
 27 28  1  0  0  0  0
 27 56  1  0  0  0  0
M  END
> <PUBCHEM_COMPOUND_CID>
9887092

> <PUBCHEM_COMPOUND_CANONICALIZED>
1

> <PUBCHEM_CACTVS_COMPLEXITY>
542

> <PUBCHEM_CACTVS_HBOND_ACCEPTOR>
3

> <PUBCHEM_CACTVS_HBOND_DONOR>
0

> <PUBCHEM_CACTVS_ROTATABLE_BOND>
5

> <PUBCHEM_CACTVS_SUBSKEYS>
AAADceB7IAAEAAAAAAAAAAAAAAAAAWAAAAA8YIAAAAAAAFgBQAAAHgIAAAAADIrBmCQywIMAAACIAiVSUACCAAAhBwAIiAGIZogIYDLB17GUIAhghgDIyAcciMCOhAAAAAACAAAIAAAAAAQAAAAAAAAAAA==

> <PUBCHEM_IUPAC_OPENEYE_NAME>
3-[4-[(4-chlorophenyl)methyl]piperazin-1-yl]-1,3-diethyl-indolin-2-one

> <PUBCHEM_IUPAC_CAS_NAME>
3-[4-[(4-chlorophenyl)methyl]-1-piperazinyl]-1,3-diethyl-2-indolone

> <PUBCHEM_IUPAC_NAME_MARKUP>
3-[4-[(4-chlorophenyl)methyl]piperazin-1-yl]-1,3-diethylindol-2-one

> <PUBCHEM_IUPAC_NAME>
3-[4-[(4-chlorophenyl)methyl]piperazin-1-yl]-1,3-diethylindol-2-one

> <PUBCHEM_IUPAC_SYSTEMATIC_NAME>
3-[4-[(4-chlorophenyl)methyl]piperazin-1-yl]-1,3-diethyl-indol-2-one

> <PUBCHEM_IUPAC_TRADITIONAL_NAME>
3-[4-(4-chlorobenzyl)piperazino]-1,3-diethyl-oxindole

> <PUBCHEM_IUPAC_INCHI>
InChI=1S/C23H28ClN3O/c1-3-23(20-7-5-6-8-21(20)27(4-2)22(23)28)26-15-13-25(14-16-26)17-18-9-11-19(24)12-10-18/h5-12H,3-4,13-17H2,1-2H3

> <PUBCHEM_IUPAC_INCHIKEY>
UTXCMSKCFYPXAI-UHFFFAOYSA-N

> <PUBCHEM_XLOGP3_AA>
4.1

> <PUBCHEM_EXACT_MASS>
397.1920902

> <PUBCHEM_MOLECULAR_FORMULA>
C23H28ClN3O

> <PUBCHEM_MOLECULAR_WEIGHT>
397.9

> <PUBCHEM_OPENEYE_CAN_SMILES>
CCC1(C2=CC=CC=C2N(C1=O)CC)N3CCN(CC3)CC4=CC=C(C=C4)Cl

> <PUBCHEM_OPENEYE_ISO_SMILES>
CCC1(C2=CC=CC=C2N(C1=O)CC)N3CCN(CC3)CC4=CC=C(C=C4)Cl

> <PUBCHEM_CACTVS_TPSA>
26.8

> <PUBCHEM_MONOISOTOPIC_WEIGHT>
397.1920902

> <PUBCHEM_TOTAL_CHARGE>
0

> <PUBCHEM_HEAVY_ATOM_COUNT>
28

> <PUBCHEM_ATOM_DEF_STEREO_COUNT>
0

> <PUBCHEM_ATOM_UDEF_STEREO_COUNT>
1

> <PUBCHEM_BOND_DEF_STEREO_COUNT>
0

> <PUBCHEM_BOND_UDEF_STEREO_COUNT>
0

> <PUBCHEM_ISOTOPIC_ATOM_COUNT>
0

> <PUBCHEM_COMPONENT_COUNT>
1

> <PUBCHEM_CACTVS_TAUTO_COUNT>
-1

> <PUBCHEM_COORDINATE_TYPE>
1
5
255

> <PUBCHEM_BONDANNOTATIONS>
14  19  8
15  20  8
19  21  8
20  21  8
22  24  8
22  25  8
24  26  8
25  27  8
26  28  8
27  28  8
6  10  3
7  14  8
7  15  8

$$$$
