44210114
  -OEChem-09292322452D

 71 77  0     1  0  0  0  0  0999 V2000
    3.4128   -2.9906    0.0000 S   0  0  0  0  0  0  0  0  0  0  0  0
   12.1140   -1.1594    0.0000 O   0  0  0  0  0  0  0  0  0  0  0  0
   10.9133    2.1394    0.0000 O   0  0  0  0  0  0  0  0  0  0  0  0
   11.2572    0.3966    0.0000 N   0  0  0  0  0  0  0  0  0  0  0  0
    7.4984   -0.9714    0.0000 N   0  0  0  0  0  0  0  0  0  0  0  0
    5.6190   -1.6555    0.0000 N   0  0  0  0  0  0  0  0  0  0  0  0
    4.4061   -2.9533    0.0000 N   0  0  0  0  0  0  0  0  0  0  0  0
   14.2384    1.0420    0.0000 C   0  0  3  0  0  0  0  0  0  0  0  0
   14.4973    2.0080    0.0000 C   0  0  3  0  0  0  0  0  0  0  0  0
   12.8657    0.4500    0.0000 C   0  0  3  0  0  0  0  0  0  0  0  0
   12.5237    1.3897    0.0000 C   0  0  3  0  0  0  0  0  0  0  0  0
   13.7606    2.9906    0.0000 C   0  0  0  0  0  0  0  0  0  0  0  0
   15.6374    0.5332    0.0000 C   0  0  0  0  0  0  0  0  0  0  0  0
   15.8962    1.4992    0.0000 C   0  0  0  0  0  0  0  0  0  0  0  0
   12.0808   -0.1600    0.0000 C   0  0  0  0  0  0  0  0  0  0  0  0
   11.5303    1.3524    0.0000 C   0  0  0  0  0  0  0  0  0  0  0  0
   10.3175    0.0546    0.0000 C   0  0  0  0  0  0  0  0  0  0  0  0
   10.1438   -0.9302    0.0000 C   0  0  3  0  0  0  0  0  0  0  0  0
    9.2041   -1.2722    0.0000 C   0  0  3  0  0  0  0  0  0  0  0  0
   10.9099   -1.5730    0.0000 C   0  0  0  0  0  0  0  0  0  0  0  0
    9.0305   -2.2570    0.0000 C   0  0  0  0  0  0  0  0  0  0  0  0
   10.7362   -2.5578    0.0000 C   0  0  0  0  0  0  0  0  0  0  0  0
    8.4381   -0.6294    0.0000 C   0  0  0  0  0  0  0  0  0  0  0  0
    9.7965   -2.8998    0.0000 C   0  0  0  0  0  0  0  0  0  0  0  0
    6.7323   -0.3287    0.0000 C   0  0  0  0  0  0  0  0  0  0  0  0
    7.3247   -1.9562    0.0000 C   0  0  0  0  0  0  0  0  0  0  0  0
    5.7926   -0.6707    0.0000 C   0  0  0  0  0  0  0  0  0  0  0  0
    6.3850   -2.2983    0.0000 C   0  0  0  0  0  0  0  0  0  0  0  0
    4.6793   -1.9975    0.0000 C   0  0  0  0  0  0  0  0  0  0  0  0
    3.8557   -1.4409    0.0000 C   0  0  0  0  0  0  0  0  0  0  0  0
    3.0687   -2.0579    0.0000 C   0  0  0  0  0  0  0  0  0  0  0  0
    3.7148   -0.4509    0.0000 C   0  0  0  0  0  0  0  0  0  0  0  0
    2.1409   -1.6849    0.0000 C   0  0  0  0  0  0  0  0  0  0  0  0
    2.7869   -0.0779    0.0000 C   0  0  0  0  0  0  0  0  0  0  0  0
    2.0000   -0.6949    0.0000 C   0  0  0  0  0  0  0  0  0  0  0  0
   14.7000    1.4561    0.0000 H   0  0  0  0  0  0  0  0  0  0  0  0
   14.8666    2.5059    0.0000 H   0  0  0  0  0  0  0  0  0  0  0  0
   13.1813   -0.0837    0.0000 H   0  0  0  0  0  0  0  0  0  0  0  0
   12.4185    2.0007    0.0000 H   0  0  0  0  0  0  0  0  0  0  0  0
   14.0785    3.5229    0.0000 H   0  0  0  0  0  0  0  0  0  0  0  0
   13.1475    3.0825    0.0000 H   0  0  0  0  0  0  0  0  0  0  0  0
   15.4425   -0.0553    0.0000 H   0  0  0  0  0  0  0  0  0  0  0  0
   16.2313    0.3554    0.0000 H   0  0  0  0  0  0  0  0  0  0  0  0
   16.4902    1.3214    0.0000 H   0  0  0  0  0  0  0  0  0  0  0  0
   16.0911    2.0877    0.0000 H   0  0  0  0  0  0  0  0  0  0  0  0
   10.2098    0.6652    0.0000 H   0  0  0  0  0  0  0  0  0  0  0  0
    9.6975    0.0546    0.0000 H   0  0  0  0  0  0  0  0  0  0  0  0
   10.7264   -0.7181    0.0000 H   0  0  0  0  0  0  0  0  0  0  0  0
    9.3118   -0.6616    0.0000 H   0  0  0  0  0  0  0  0  0  0  0  0
   11.4925   -1.7850    0.0000 H   0  0  0  0  0  0  0  0  0  0  0  0
   11.2199   -1.0360    0.0000 H   0  0  0  0  0  0  0  0  0  0  0  0
    8.4479   -2.0450    0.0000 H   0  0  0  0  0  0  0  0  0  0  0  0
    8.7205   -2.7940    0.0000 H   0  0  0  0  0  0  0  0  0  0  0  0
   10.8439   -3.1684    0.0000 H   0  0  0  0  0  0  0  0  0  0  0  0
   11.3562   -2.5578    0.0000 H   0  0  0  0  0  0  0  0  0  0  0  0
    8.9130   -0.2309    0.0000 H   0  0  0  0  0  0  0  0  0  0  0  0
    8.1281   -0.0925    0.0000 H   0  0  0  0  0  0  0  0  0  0  0  0
    9.3216   -3.2983    0.0000 H   0  0  0  0  0  0  0  0  0  0  0  0
   10.1065   -3.4367    0.0000 H   0  0  0  0  0  0  0  0  0  0  0  0
    7.2073    0.0699    0.0000 H   0  0  0  0  0  0  0  0  0  0  0  0
    6.4223    0.2083    0.0000 H   0  0  0  0  0  0  0  0  0  0  0  0
    7.4324   -2.5668    0.0000 H   0  0  0  0  0  0  0  0  0  0  0  0
    7.9447   -1.9562    0.0000 H   0  0  0  0  0  0  0  0  0  0  0  0
    5.6850   -0.0601    0.0000 H   0  0  0  0  0  0  0  0  0  0  0  0
    5.1726   -0.6707    0.0000 H   0  0  0  0  0  0  0  0  0  0  0  0
    5.9101   -2.6968    0.0000 H   0  0  0  0  0  0  0  0  0  0  0  0
    6.6950   -2.8352    0.0000 H   0  0  0  0  0  0  0  0  0  0  0  0
    4.2027   -0.0683    0.0000 H   0  0  0  0  0  0  0  0  0  0  0  0
    1.6530   -2.0675    0.0000 H   0  0  0  0  0  0  0  0  0  0  0  0
    2.6996    0.5359    0.0000 H   0  0  0  0  0  0  0  0  0  0  0  0
    1.4247   -0.4636    0.0000 H   0  0  0  0  0  0  0  0  0  0  0  0
  1  7  1  0  0  0  0
  1 31  1  0  0  0  0
  2 15  2  0  0  0  0
  3 16  2  0  0  0  0
  4 15  1  0  0  0  0
  4 16  1  0  0  0  0
  4 17  1  0  0  0  0
  5 23  1  0  0  0  0
  5 25  1  0  0  0  0
  5 26  1  0  0  0  0
  6 27  1  0  0  0  0
  6 28  1  0  0  0  0
  6 29  1  0  0  0  0
  7 29  2  0  0  0  0
  8 10  1  0  0  0  0
  8 12  1  0  0  0  0
  8 13  1  0  0  0  0
  8 36  1  0  0  0  0
  9 11  1  0  0  0  0
  9 12  1  0  0  0  0
  9 14  1  0  0  0  0
  9 37  1  0  0  0  0
 10 11  1  0  0  0  0
 10 15  1  0  0  0  0
 10 38  1  0  0  0  0
 11 16  1  0  0  0  0
 11 39  1  0  0  0  0
 12 40  1  0  0  0  0
 12 41  1  0  0  0  0
 13 14  1  0  0  0  0
 13 42  1  0  0  0  0
 13 43  1  0  0  0  0
 14 44  1  0  0  0  0
 14 45  1  0  0  0  0
 17 18  1  0  0  0  0
 17 46  1  0  0  0  0
 17 47  1  0  0  0  0
 18 19  1  0  0  0  0
 18 20  1  0  0  0  0
 18 48  1  0  0  0  0
 19 21  1  0  0  0  0
 19 23  1  0  0  0  0
 19 49  1  0  0  0  0
 20 22  1  0  0  0  0
 20 50  1  0  0  0  0
 20 51  1  0  0  0  0
 21 24  1  0  0  0  0
 21 52  1  0  0  0  0
 21 53  1  0  0  0  0
 22 24  1  0  0  0  0
 22 54  1  0  0  0  0
 22 55  1  0  0  0  0
 23 56  1  0  0  0  0
 23 57  1  0  0  0  0
 24 58  1  0  0  0  0
 24 59  1  0  0  0  0
 25 27  1  0  0  0  0
 25 60  1  0  0  0  0
 25 61  1  0  0  0  0
 26 28  1  0  0  0  0
 26 62  1  0  0  0  0
 26 63  1  0  0  0  0
 27 64  1  0  0  0  0
 27 65  1  0  0  0  0
 28 66  1  0  0  0  0
 28 67  1  0  0  0  0
 29 30  1  0  0  0  0
 30 31  1  0  0  0  0
 30 32  2  0  0  0  0
 31 33  2  0  0  0  0
 32 34  1  0  0  0  0
 32 68  1  0  0  0  0
 33 35  1  0  0  0  0
 33 69  1  0  0  0  0
 34 35  2  0  0  0  0
 34 70  1  0  0  0  0
 35 71  1  0  0  0  0
M  END
> <PUBCHEM_COMPOUND_CID>
44210114

> <PUBCHEM_COMPOUND_CANONICALIZED>
1

> <PUBCHEM_CACTVS_COMPLEXITY>
804

> <PUBCHEM_CACTVS_HBOND_ACCEPTOR>
6

> <PUBCHEM_CACTVS_HBOND_DONOR>
0

> <PUBCHEM_CACTVS_ROTATABLE_BOND>
5

> <PUBCHEM_CACTVS_SUBSKEYS>
AAADcfB7sABAAAAAAAAAAAAAAAAAAePECAA8YMEAAAAWAFgB8AAAHgQAQAAADQDB2gQxsdMAAACsAiNycACDABAhAABJmDkoRJiIYLLAmZGUIAxghiLIyAcdiMCOgAAAAAAEAAAAAAQAACgAAQAACAAAAA==

> <PUBCHEM_IUPAC_OPENEYE_NAME>
4-[[2-[[4-(1,2-benzothiazol-3-yl)piperazin-1-yl]methyl]cyclohexyl]methyl]-4-azatricyclo[5.2.1.02,6]decane-3,5-dione

> <PUBCHEM_IUPAC_CAS_NAME>
4-[[2-[[4-(1,2-benzothiazol-3-yl)-1-piperazinyl]methyl]cyclohexyl]methyl]-4-azatricyclo[5.2.1.02,6]decane-3,5-dione

> <PUBCHEM_IUPAC_NAME_MARKUP>
4-[[2-[[4-(1,2-benzothiazol-3-yl)piperazin-1-yl]methyl]cyclohexyl]methyl]-4-azatricyclo[5.2.1.0<SUP>2,6</SUP>]decane-3,5-dione

> <PUBCHEM_IUPAC_NAME>
4-[[2-[[4-(1,2-benzothiazol-3-yl)piperazin-1-yl]methyl]cyclohexyl]methyl]-4-azatricyclo[5.2.1.02,6]decane-3,5-dione

> <PUBCHEM_IUPAC_SYSTEMATIC_NAME>
4-[[2-[[4-(1,2-benzothiazol-3-yl)piperazin-1-yl]methyl]cyclohexyl]methyl]-4-azatricyclo[5.2.1.02,6]decane-3,5-dione

> <PUBCHEM_IUPAC_TRADITIONAL_NAME>
4-[[2-[[4-(1,2-benzothiazol-3-yl)piperazino]methyl]cyclohexyl]methyl]-4-azatricyclo[5.2.1.02,6]decane-3,5-quinone

> <PUBCHEM_IUPAC_INCHI>
InChI=1S/C28H36N4O2S/c33-27-24-18-9-10-19(15-18)25(24)28(34)32(27)17-21-6-2-1-5-20(21)16-30-11-13-31(14-12-30)26-22-7-3-4-8-23(22)35-29-26/h3-4,7-8,18-21,24-25H,1-2,5-6,9-17H2

> <PUBCHEM_IUPAC_INCHIKEY>
PQXKDMSYBGKCJA-UHFFFAOYSA-N

> <PUBCHEM_XLOGP3_AA>
5.4

> <PUBCHEM_EXACT_MASS>
492.25589758

> <PUBCHEM_MOLECULAR_FORMULA>
C28H36N4O2S

> <PUBCHEM_MOLECULAR_WEIGHT>
492.7

> <PUBCHEM_OPENEYE_CAN_SMILES>
C1CCC(C(C1)CN2CCN(CC2)C3=NSC4=CC=CC=C43)CN5C(=O)C6C7CCC(C7)C6C5=O

> <PUBCHEM_OPENEYE_ISO_SMILES>
C1CCC(C(C1)CN2CCN(CC2)C3=NSC4=CC=CC=C43)CN5C(=O)C6C7CCC(C7)C6C5=O

> <PUBCHEM_CACTVS_TPSA>
85

> <PUBCHEM_MONOISOTOPIC_WEIGHT>
492.25589758

> <PUBCHEM_TOTAL_CHARGE>
0

> <PUBCHEM_HEAVY_ATOM_COUNT>
35

> <PUBCHEM_ATOM_DEF_STEREO_COUNT>
0

> <PUBCHEM_ATOM_UDEF_STEREO_COUNT>
6

> <PUBCHEM_BOND_DEF_STEREO_COUNT>
0

> <PUBCHEM_BOND_UDEF_STEREO_COUNT>
0

> <PUBCHEM_ISOTOPIC_ATOM_COUNT>
0

> <PUBCHEM_COMPONENT_COUNT>
1

> <PUBCHEM_CACTVS_TAUTO_COUNT>
1

> <PUBCHEM_COORDINATE_TYPE>
1
5
255

> <PUBCHEM_BONDANNOTATIONS>
1  31  8
1  7  8
10  15  3
11  16  3
18  17  3
19  23  3
29  30  8
30  31  8
30  32  8
31  33  8
32  34  8
33  35  8
34  35  8
7  29  8
8  13  3
9  14  3

$$$$
