134143778
  -OEChem-09292322382D

 61 65  0     0  0  0  0  0  0999 V2000
    4.6783   -5.6799    0.0000 S   0  0  0  0  0  0  0  0  0  0  0  0
    9.7884    3.2018    0.0000 O   0  0  0  0  0  0  0  0  0  0  0  0
    8.1421    3.7399    0.0000 N   0  0  0  0  0  0  0  0  0  0  0  0
    5.6103   -1.2189    0.0000 N   0  0  0  0  0  0  0  0  0  0  0  0
    4.9889   -3.1199    0.0000 N   0  0  0  0  0  0  0  0  0  0  0  0
    5.2619   -4.8752    0.0000 N   0  0  0  0  0  0  0  0  0  0  0  0
    7.2101    0.8884    0.0000 C   0  0  0  0  0  0  0  0  0  0  0  0
    7.8314    2.7894    0.0000 C   0  0  0  0  0  0  0  0  0  0  0  0
    6.5422    1.6327    0.0000 C   0  0  0  0  0  0  0  0  0  0  0  0
    8.1886    1.0946    0.0000 C   0  0  0  0  0  0  0  0  0  0  0  0
    6.8529    2.5832    0.0000 C   0  0  0  0  0  0  0  0  0  0  0  0
    8.4993    2.0451    0.0000 C   0  0  0  0  0  0  0  0  0  0  0  0
    9.4312    4.8967    0.0000 C   0  0  0  0  0  0  0  0  0  0  0  0
    6.8994   -0.0621    0.0000 C   0  0  0  0  0  0  0  0  0  0  0  0
   10.1755    5.5645    0.0000 C   0  0  0  0  0  0  0  0  0  0  0  0
    9.2250    5.8752    0.0000 C   0  0  0  0  0  0  0  0  0  0  0  0
    5.9209   -0.2684    0.0000 C   0  0  0  0  0  0  0  0  0  0  0  0
    9.1206    3.9462    0.0000 C   0  0  0  0  0  0  0  0  0  0  0  0
    4.6318   -1.4251    0.0000 C   0  0  0  0  0  0  0  0  0  0  0  0
    6.2781   -1.9632    0.0000 C   0  0  0  0  0  0  0  0  0  0  0  0
    4.3211   -2.3756    0.0000 C   0  0  0  0  0  0  0  0  0  0  0  0
    5.9674   -2.9137    0.0000 C   0  0  0  0  0  0  0  0  0  0  0  0
    4.6783   -4.0704    0.0000 C   0  0  0  0  0  0  0  0  0  0  0  0
    3.7320   -4.3752    0.0000 C   0  0  0  0  0  0  0  0  0  0  0  0
    3.7320   -5.3752    0.0000 C   0  0  0  0  0  0  0  0  0  0  0  0
    2.8660   -3.8752    0.0000 C   0  0  0  0  0  0  0  0  0  0  0  0
    2.8660   -5.8752    0.0000 C   0  0  0  0  0  0  0  0  0  0  0  0
    2.0000   -4.3752    0.0000 C   0  0  0  0  0  0  0  0  0  0  0  0
    2.0000   -5.3752    0.0000 C   0  0  0  0  0  0  0  0  0  0  0  0
    7.6242    0.4269    0.0000 H   0  0  0  0  0  0  0  0  0  0  0  0
    8.4381    2.9173    0.0000 H   0  0  0  0  0  0  0  0  0  0  0  0
    5.9953    1.9247    0.0000 H   0  0  0  0  0  0  0  0  0  0  0  0
    6.1597    1.1448    0.0000 H   0  0  0  0  0  0  0  0  0  0  0  0
    8.2092    0.4749    0.0000 H   0  0  0  0  0  0  0  0  0  0  0  0
    8.8024    1.0072    0.0000 H   0  0  0  0  0  0  0  0  0  0  0  0
    6.8323    3.2029    0.0000 H   0  0  0  0  0  0  0  0  0  0  0  0
    6.2391    2.6706    0.0000 H   0  0  0  0  0  0  0  0  0  0  0  0
    9.0462    1.7531    0.0000 H   0  0  0  0  0  0  0  0  0  0  0  0
    8.8818    2.5330    0.0000 H   0  0  0  0  0  0  0  0  0  0  0  0
    8.8122    4.9302    0.0000 H   0  0  0  0  0  0  0  0  0  0  0  0
    6.9200   -0.6818    0.0000 H   0  0  0  0  0  0  0  0  0  0  0  0
    7.5132   -0.1495    0.0000 H   0  0  0  0  0  0  0  0  0  0  0  0
   10.6635    5.1820    0.0000 H   0  0  0  0  0  0  0  0  0  0  0  0
   10.4676    6.1114    0.0000 H   0  0  0  0  0  0  0  0  0  0  0  0
    9.3124    6.4890    0.0000 H   0  0  0  0  0  0  0  0  0  0  0  0
    8.6054    5.8546    0.0000 H   0  0  0  0  0  0  0  0  0  0  0  0
    7.7280    4.2014    0.0000 H   0  0  0  0  0  0  0  0  0  0  0  0
    5.9004    0.3513    0.0000 H   0  0  0  0  0  0  0  0  0  0  0  0
    5.3071   -0.1810    0.0000 H   0  0  0  0  0  0  0  0  0  0  0  0
    4.6112   -0.8054    0.0000 H   0  0  0  0  0  0  0  0  0  0  0  0
    4.0179   -1.3378    0.0000 H   0  0  0  0  0  0  0  0  0  0  0  0
    6.8250   -2.2552    0.0000 H   0  0  0  0  0  0  0  0  0  0  0  0
    6.6607   -1.4753    0.0000 H   0  0  0  0  0  0  0  0  0  0  0  0
    3.7742   -2.0836    0.0000 H   0  0  0  0  0  0  0  0  0  0  0  0
    3.9385   -2.8635    0.0000 H   0  0  0  0  0  0  0  0  0  0  0  0
    5.9880   -3.5334    0.0000 H   0  0  0  0  0  0  0  0  0  0  0  0
    6.5812   -3.0011    0.0000 H   0  0  0  0  0  0  0  0  0  0  0  0
    2.8660   -3.2552    0.0000 H   0  0  0  0  0  0  0  0  0  0  0  0
    2.8660   -6.4952    0.0000 H   0  0  0  0  0  0  0  0  0  0  0  0
    1.4631   -4.0652    0.0000 H   0  0  0  0  0  0  0  0  0  0  0  0
    1.4631   -5.6852    0.0000 H   0  0  0  0  0  0  0  0  0  0  0  0
  1  6  1  0  0  0  0
  1 25  1  0  0  0  0
  2 18  2  0  0  0  0
  3  8  1  0  0  0  0
  3 18  1  0  0  0  0
  3 47  1  0  0  0  0
  4 17  1  0  0  0  0
  4 19  1  0  0  0  0
  4 20  1  0  0  0  0
  5 21  1  0  0  0  0
  5 22  1  0  0  0  0
  5 23  1  0  0  0  0
  6 23  2  0  0  0  0
  7  9  1  0  0  0  0
  7 10  1  0  0  0  0
  7 14  1  0  0  0  0
  7 30  1  0  0  0  0
  8 11  1  0  0  0  0
  8 12  1  0  0  0  0
  8 31  1  0  0  0  0
  9 11  1  0  0  0  0
  9 32  1  0  0  0  0
  9 33  1  0  0  0  0
 10 12  1  0  0  0  0
 10 34  1  0  0  0  0
 10 35  1  0  0  0  0
 11 36  1  0  0  0  0
 11 37  1  0  0  0  0
 12 38  1  0  0  0  0
 12 39  1  0  0  0  0
 13 15  1  0  0  0  0
 13 16  1  0  0  0  0
 13 18  1  0  0  0  0
 13 40  1  0  0  0  0
 14 17  1  0  0  0  0
 14 41  1  0  0  0  0
 14 42  1  0  0  0  0
 15 16  1  0  0  0  0
 15 43  1  0  0  0  0
 15 44  1  0  0  0  0
 16 45  1  0  0  0  0
 16 46  1  0  0  0  0
 17 48  1  0  0  0  0
 17 49  1  0  0  0  0
 19 21  1  0  0  0  0
 19 50  1  0  0  0  0
 19 51  1  0  0  0  0
 20 22  1  0  0  0  0
 20 52  1  0  0  0  0
 20 53  1  0  0  0  0
 21 54  1  0  0  0  0
 21 55  1  0  0  0  0
 22 56  1  0  0  0  0
 22 57  1  0  0  0  0
 23 24  1  0  0  0  0
 24 25  1  0  0  0  0
 24 26  2  0  0  0  0
 25 27  2  0  0  0  0
 26 28  1  0  0  0  0
 26 58  1  0  0  0  0
 27 29  1  0  0  0  0
 27 59  1  0  0  0  0
 28 29  2  0  0  0  0
 28 60  1  0  0  0  0
 29 61  1  0  0  0  0
M  END
> <PUBCHEM_COMPOUND_CID>
134143778

> <PUBCHEM_COMPOUND_CANONICALIZED>
1

> <PUBCHEM_CACTVS_COMPLEXITY>
555

> <PUBCHEM_CACTVS_HBOND_ACCEPTOR>
5

> <PUBCHEM_CACTVS_HBOND_DONOR>
1

> <PUBCHEM_CACTVS_ROTATABLE_BOND>
6

> <PUBCHEM_CACTVS_SUBSKEYS>
AAADcfB7oABAAAAAAAAAAAAAGAAAAWAAAAA8YIAAAAAAAFgB8AAAHgQQQAAADSjB2gQxsdPAAACsAiNycACDABAhAABJmLkoRJiIYLLAmZGUIAxglgLIyAcQgIAOAAAAAAAEAAAQAAAAAAgAAAAAAAAAAA==

> <PUBCHEM_IUPAC_OPENEYE_NAME>
N-[4-[2-[4-(1,2-benzothiazol-3-yl)piperazin-1-yl]ethyl]cyclohexyl]cyclopropanecarboxamide

> <PUBCHEM_IUPAC_CAS_NAME>
N-[4-[2-[4-(1,2-benzothiazol-3-yl)-1-piperazinyl]ethyl]cyclohexyl]cyclopropanecarboxamide

> <PUBCHEM_IUPAC_NAME_MARKUP>
<I>N</I>-[4-[2-[4-(1,2-benzothiazol-3-yl)piperazin-1-yl]ethyl]cyclohexyl]cyclopropanecarboxamide

> <PUBCHEM_IUPAC_NAME>
N-[4-[2-[4-(1,2-benzothiazol-3-yl)piperazin-1-yl]ethyl]cyclohexyl]cyclopropanecarboxamide

> <PUBCHEM_IUPAC_SYSTEMATIC_NAME>
N-[4-[2-[4-(1,2-benzothiazol-3-yl)piperazin-1-yl]ethyl]cyclohexyl]cyclopropanecarboxamide

> <PUBCHEM_IUPAC_TRADITIONAL_NAME>
N-[4-[2-[4-(1,2-benzothiazol-3-yl)piperazino]ethyl]cyclohexyl]cyclopropanecarboxamide

> <PUBCHEM_IUPAC_INCHI>
InChI=1S/C23H32N4OS/c28-23(18-7-8-18)24-19-9-5-17(6-10-19)11-12-26-13-15-27(16-14-26)22-20-3-1-2-4-21(20)29-25-22/h1-4,17-19H,5-16H2,(H,24,28)

> <PUBCHEM_IUPAC_INCHIKEY>
LBNGJZBDUWZGLH-UHFFFAOYSA-N

> <PUBCHEM_XLOGP3_AA>
4.2

> <PUBCHEM_EXACT_MASS>
412.22968283

> <PUBCHEM_MOLECULAR_FORMULA>
C23H32N4OS

> <PUBCHEM_MOLECULAR_WEIGHT>
412.6

> <PUBCHEM_OPENEYE_CAN_SMILES>
C1CC(CCC1CCN2CCN(CC2)C3=NSC4=CC=CC=C43)NC(=O)C5CC5

> <PUBCHEM_OPENEYE_ISO_SMILES>
C1CC(CCC1CCN2CCN(CC2)C3=NSC4=CC=CC=C43)NC(=O)C5CC5

> <PUBCHEM_CACTVS_TPSA>
76.7

> <PUBCHEM_MONOISOTOPIC_WEIGHT>
412.22968283

> <PUBCHEM_TOTAL_CHARGE>
0

> <PUBCHEM_HEAVY_ATOM_COUNT>
29

> <PUBCHEM_ATOM_DEF_STEREO_COUNT>
0

> <PUBCHEM_ATOM_UDEF_STEREO_COUNT>
0

> <PUBCHEM_BOND_DEF_STEREO_COUNT>
0

> <PUBCHEM_BOND_UDEF_STEREO_COUNT>
0

> <PUBCHEM_ISOTOPIC_ATOM_COUNT>
0

> <PUBCHEM_COMPONENT_COUNT>
1

> <PUBCHEM_CACTVS_TAUTO_COUNT>
-1

> <PUBCHEM_COORDINATE_TYPE>
1
5
255

> <PUBCHEM_BONDANNOTATIONS>
1  25  8
1  6  8
23  24  8
24  25  8
24  26  8
25  27  8
26  28  8
27  29  8
28  29  8
6  23  8

$$$$
