162651486
  -OEChem-09292322422D

 50 53  0     1  0  0  0  0  0999 V2000
   14.0341    1.2456    0.0000 Cl  0  0  0  0  0  0  0  0  0  0  0  0
   10.5884    0.8894    0.0000 S   0  0  0  0  0  0  0  0  0  0  0  0
   13.8285    3.2350    0.0000 F   0  0  0  0  0  0  0  0  0  0  0  0
   11.1747    0.0794    0.0000 O   0  0  0  0  0  0  0  0  0  0  0  0
   10.0020    1.6994    0.0000 O   0  0  0  0  0  0  0  0  0  0  0  0
    4.6783   -3.0397    0.0000 O   0  0  0  0  0  0  0  0  0  0  0  0
    7.2566    0.8833    0.0000 N   0  0  3  0  0  0  0  0  0  0  0  0
    9.7783    0.3030    0.0000 N   0  0  0  0  0  0  0  0  0  0  0  0
    5.2619   -2.2350    0.0000 N   0  0  0  0  0  0  0  0  0  0  0  0
    8.8655    0.7113    0.0000 C   0  0  2  0  0  0  0  0  0  0  0  0
    7.9986    0.2128    0.0000 C   0  0  0  0  0  0  0  0  0  0  0  0
    8.6593    1.6898    0.0000 C   0  0  0  0  0  0  0  0  0  0  0  0
    7.6649    1.7961    0.0000 C   0  0  0  0  0  0  0  0  0  0  0  0
    6.2781    0.6770    0.0000 C   0  0  0  0  0  0  0  0  0  0  0  0
    5.9674   -0.2735    0.0000 C   0  0  0  0  0  0  0  0  0  0  0  0
    4.9889   -0.4797    0.0000 C   0  0  0  0  0  0  0  0  0  0  0  0
   11.3984    1.4758    0.0000 C   0  0  0  0  0  0  0  0  0  0  0  0
    4.6783   -1.4302    0.0000 C   0  0  0  0  0  0  0  0  0  0  0  0
    3.7320   -1.7350    0.0000 C   0  0  0  0  0  0  0  0  0  0  0  0
   12.3112    1.0675    0.0000 C   0  0  0  0  0  0  0  0  0  0  0  0
   11.2956    2.4705    0.0000 C   0  0  0  0  0  0  0  0  0  0  0  0
    3.7320   -2.7350    0.0000 C   0  0  0  0  0  0  0  0  0  0  0  0
    2.8660   -1.2350    0.0000 C   0  0  0  0  0  0  0  0  0  0  0  0
   13.1213    1.6539    0.0000 C   0  0  0  0  0  0  0  0  0  0  0  0
   12.1056    3.0569    0.0000 C   0  0  0  0  0  0  0  0  0  0  0  0
    2.8660   -3.2350    0.0000 C   0  0  0  0  0  0  0  0  0  0  0  0
   13.0185    2.6486    0.0000 C   0  0  0  0  0  0  0  0  0  0  0  0
    2.0000   -1.7350    0.0000 C   0  0  0  0  0  0  0  0  0  0  0  0
    2.0000   -2.7350    0.0000 C   0  0  0  0  0  0  0  0  0  0  0  0
    9.3480    1.1007    0.0000 H   0  0  0  0  0  0  0  0  0  0  0  0
    7.5371   -0.2012    0.0000 H   0  0  0  0  0  0  0  0  0  0  0  0
    8.3622   -0.2894    0.0000 H   0  0  0  0  0  0  0  0  0  0  0  0
    9.2760    1.7536    0.0000 H   0  0  0  0  0  0  0  0  0  0  0  0
    8.6603    2.3098    0.0000 H   0  0  0  0  0  0  0  0  0  0  0  0
    7.7949    2.4023    0.0000 H   0  0  0  0  0  0  0  0  0  0  0  0
    7.0756    1.9887    0.0000 H   0  0  0  0  0  0  0  0  0  0  0  0
    6.2575    1.2967    0.0000 H   0  0  0  0  0  0  0  0  0  0  0  0
    5.6643    0.7644    0.0000 H   0  0  0  0  0  0  0  0  0  0  0  0
    9.8421   -0.3137    0.0000 H   0  0  0  0  0  0  0  0  0  0  0  0
    5.9880   -0.8931    0.0000 H   0  0  0  0  0  0  0  0  0  0  0  0
    6.5812   -0.3608    0.0000 H   0  0  0  0  0  0  0  0  0  0  0  0
    4.9684    0.1400    0.0000 H   0  0  0  0  0  0  0  0  0  0  0  0
    4.3751   -0.3923    0.0000 H   0  0  0  0  0  0  0  0  0  0  0  0
   12.3750    0.4508    0.0000 H   0  0  0  0  0  0  0  0  0  0  0  0
   10.7296    2.7236    0.0000 H   0  0  0  0  0  0  0  0  0  0  0  0
    2.8660   -0.6150    0.0000 H   0  0  0  0  0  0  0  0  0  0  0  0
   12.0419    3.6736    0.0000 H   0  0  0  0  0  0  0  0  0  0  0  0
    2.8660   -3.8550    0.0000 H   0  0  0  0  0  0  0  0  0  0  0  0
    1.4631   -1.4250    0.0000 H   0  0  0  0  0  0  0  0  0  0  0  0
    1.4631   -3.0450    0.0000 H   0  0  0  0  0  0  0  0  0  0  0  0
  1 24  1  0  0  0  0
  2  4  2  0  0  0  0
  2  5  2  0  0  0  0
  2  8  1  0  0  0  0
  2 17  1  0  0  0  0
  3 27  1  0  0  0  0
  6  9  1  0  0  0  0
  6 22  1  0  0  0  0
  7 11  1  0  0  0  0
  7 13  1  0  0  0  0
  7 14  1  0  0  0  0
 10  8  1  6  0  0  0
  8 39  1  0  0  0  0
  9 18  2  0  0  0  0
 10 11  1  0  0  0  0
 10 12  1  0  0  0  0
 10 30  1  0  0  0  0
 11 31  1  0  0  0  0
 11 32  1  0  0  0  0
 12 13  1  0  0  0  0
 12 33  1  0  0  0  0
 12 34  1  0  0  0  0
 13 35  1  0  0  0  0
 13 36  1  0  0  0  0
 14 15  1  0  0  0  0
 14 37  1  0  0  0  0
 14 38  1  0  0  0  0
 15 16  1  0  0  0  0
 15 40  1  0  0  0  0
 15 41  1  0  0  0  0
 16 18  1  0  0  0  0
 16 42  1  0  0  0  0
 16 43  1  0  0  0  0
 17 20  2  0  0  0  0
 17 21  1  0  0  0  0
 18 19  1  0  0  0  0
 19 22  1  0  0  0  0
 19 23  2  0  0  0  0
 20 24  1  0  0  0  0
 20 44  1  0  0  0  0
 21 25  2  0  0  0  0
 21 45  1  0  0  0  0
 22 26  2  0  0  0  0
 23 28  1  0  0  0  0
 23 46  1  0  0  0  0
 24 27  2  0  0  0  0
 25 27  1  0  0  0  0
 25 47  1  0  0  0  0
 26 29  1  0  0  0  0
 26 48  1  0  0  0  0
 28 29  2  0  0  0  0
 28 49  1  0  0  0  0
 29 50  1  0  0  0  0
M  END
> <PUBCHEM_COMPOUND_CID>
162651486

> <PUBCHEM_COMPOUND_CANONICALIZED>
1

> <PUBCHEM_CACTVS_COMPLEXITY>
649

> <PUBCHEM_CACTVS_HBOND_ACCEPTOR>
7

> <PUBCHEM_CACTVS_HBOND_DONOR>
1

> <PUBCHEM_CACTVS_ROTATABLE_BOND>
7

> <PUBCHEM_CACTVS_SUBSKEYS>
AAADceB7MQBEAAAAAAAAAAAAAAAAAWLAAAAwYAAAAAAAAFgB9AAAHwYUQAAADC7B3iwwh9NQAAKpA6RyQnDCABAkJQAomLk+TtoIZrqB15OUMYBm0BmIyceYyKCOAAAAABAIAAAAAAAAIBAAAAAAAAAAAA==

> <PUBCHEM_IUPAC_OPENEYE_NAME>
N-[(3S)-1-[3-(1,2-benzoxazol-3-yl)propyl]pyrrolidin-3-yl]-3-chloro-4-fluoro-benzenesulfonamide

> <PUBCHEM_IUPAC_CAS_NAME>
N-[(3S)-1-[3-(1,2-benzoxazol-3-yl)propyl]-3-pyrrolidinyl]-3-chloro-4-fluorobenzenesulfonamide

> <PUBCHEM_IUPAC_NAME_MARKUP>
<I>N</I>-[(3<I>S</I>)-1-[3-(1,2-benzoxazol-3-yl)propyl]pyrrolidin-3-yl]-3-chloro-4-fluorobenzenesulfonamide

> <PUBCHEM_IUPAC_NAME>
N-[(3S)-1-[3-(1,2-benzoxazol-3-yl)propyl]pyrrolidin-3-yl]-3-chloro-4-fluorobenzenesulfonamide

> <PUBCHEM_IUPAC_SYSTEMATIC_NAME>
N-[(3S)-1-[3-(1,2-benzoxazol-3-yl)propyl]pyrrolidin-3-yl]-3-chloranyl-4-fluoranyl-benzenesulfonamide

> <PUBCHEM_IUPAC_TRADITIONAL_NAME>
3-chloro-4-fluoro-N-[(3S)-1-(3-indoxazen-3-ylpropyl)pyrrolidin-3-yl]benzenesulfonamide

> <PUBCHEM_IUPAC_INCHI>
InChI=1S/C20H21ClFN3O3S/c21-17-12-15(7-8-18(17)22)29(26,27)24-14-9-11-25(13-14)10-3-5-19-16-4-1-2-6-20(16)28-23-19/h1-2,4,6-8,12,14,24H,3,5,9-11,13H2/t14-/m0/s1

> <PUBCHEM_IUPAC_INCHIKEY>
KGCZEOUXHSFHJT-AWEZNQCLSA-N

> <PUBCHEM_XLOGP3_AA>
4

> <PUBCHEM_EXACT_MASS>
437.0976186

> <PUBCHEM_MOLECULAR_FORMULA>
C20H21ClFN3O3S

> <PUBCHEM_MOLECULAR_WEIGHT>
437.9

> <PUBCHEM_OPENEYE_CAN_SMILES>
C1CN(CC1NS(=O)(=O)C2=CC(=C(C=C2)F)Cl)CCCC3=NOC4=CC=CC=C43

> <PUBCHEM_OPENEYE_ISO_SMILES>
C1CN(C[C@H]1NS(=O)(=O)C2=CC(=C(C=C2)F)Cl)CCCC3=NOC4=CC=CC=C43

> <PUBCHEM_CACTVS_TPSA>
83.8

> <PUBCHEM_MONOISOTOPIC_WEIGHT>
437.0976186

> <PUBCHEM_TOTAL_CHARGE>
0

> <PUBCHEM_HEAVY_ATOM_COUNT>
29

> <PUBCHEM_ATOM_DEF_STEREO_COUNT>
1

> <PUBCHEM_ATOM_UDEF_STEREO_COUNT>
0

> <PUBCHEM_BOND_DEF_STEREO_COUNT>
0

> <PUBCHEM_BOND_UDEF_STEREO_COUNT>
0

> <PUBCHEM_ISOTOPIC_ATOM_COUNT>
0

> <PUBCHEM_COMPONENT_COUNT>
1

> <PUBCHEM_CACTVS_TAUTO_COUNT>
-1

> <PUBCHEM_COORDINATE_TYPE>
1
5
255

> <PUBCHEM_BONDANNOTATIONS>
17  20  8
17  21  8
18  19  8
19  22  8
19  23  8
20  24  8
21  25  8
22  26  8
23  28  8
24  27  8
25  27  8
26  29  8
28  29  8
6  22  8
6  9  8
10  8  6
9  18  8

$$$$
