15115518
  -OEChem-09292322142D

 65 69  0     1  0  0  0  0  0999 V2000
   15.0067   -2.6092    0.0000 O   0  0  0  0  0  0  0  0  0  0  0  0
    3.4002   -2.6495    0.0000 O   0  0  0  0  0  0  0  0  0  0  0  0
    2.8660    1.4254    0.0000 O   0  5  0  0  0  0  0  0  0  0  0  0
    2.0000   -0.0746    0.0000 O   0  0  0  0  0  0  0  0  0  0  0  0
   11.5263    0.4254    0.0000 N   0  0  3  0  0  0  0  0  0  0  0  0
    6.3301   -1.5746    0.0000 N   0  0  0  0  0  0  0  0  0  0  0  0
    4.3889   -2.5464    0.0000 N   0  0  0  0  0  0  0  0  0  0  0  0
    2.9950   -1.7417    0.0000 N   0  0  0  0  0  0  0  0  0  0  0  0
    2.8660    0.4254    0.0000 N   0  3  0  0  0  0  0  0  0  0  0  0
   12.3923   -0.0746    0.0000 C   0  0  3  0  0  0  0  0  0  0  0  0
   12.3923   -1.0746    0.0000 C   0  0  0  0  0  0  0  0  0  0  0  0
   13.2583    0.4254    0.0000 C   0  0  0  0  0  0  0  0  0  0  0  0
   13.2583   -1.5746    0.0000 C   0  0  0  0  0  0  0  0  0  0  0  0
   14.1244   -0.0746    0.0000 C   0  0  0  0  0  0  0  0  0  0  0  0
   14.1244   -1.0746    0.0000 C   0  0  0  0  0  0  0  0  0  0  0  0
   10.6603   -0.0746    0.0000 C   0  0  0  0  0  0  0  0  0  0  0  0
   11.5263    1.4254    0.0000 C   0  0  0  0  0  0  0  0  0  0  0  0
    9.7942    0.4254    0.0000 C   0  0  0  0  0  0  0  0  0  0  0  0
   10.6603    1.9254    0.0000 C   0  0  0  0  0  0  0  0  0  0  0  0
   15.0183    0.4601    0.0000 C   0  0  0  0  0  0  0  0  0  0  0  0
   15.0183   -1.6093    0.0000 C   0  0  0  0  0  0  0  0  0  0  0  0
   15.9244   -0.0538    0.0000 C   0  0  0  0  0  0  0  0  0  0  0  0
   15.9244   -1.0954    0.0000 C   0  0  0  0  0  0  0  0  0  0  0  0
    8.9282   -0.0746    0.0000 C   0  0  0  0  0  0  0  0  0  0  0  0
   10.6603    2.9254    0.0000 C   0  0  0  0  0  0  0  0  0  0  0  0
    8.9282   -1.0746    0.0000 C   0  0  0  0  0  0  0  0  0  0  0  0
    8.0622    0.4254    0.0000 C   0  0  0  0  0  0  0  0  0  0  0  0
    8.0622   -1.5746    0.0000 C   0  0  0  0  0  0  0  0  0  0  0  0
    7.1962   -0.0746    0.0000 C   0  0  0  0  0  0  0  0  0  0  0  0
    7.1962   -1.0746    0.0000 C   0  0  0  0  0  0  0  0  0  0  0  0
    5.4641   -1.0746    0.0000 C   0  0  0  0  0  0  0  0  0  0  0  0
    4.5981   -1.5746    0.0000 C   0  0  0  0  0  0  0  0  0  0  0  0
    5.4641   -0.0746    0.0000 C   0  0  0  0  0  0  0  0  0  0  0  0
    3.7320   -1.0746    0.0000 C   0  0  0  0  0  0  0  0  0  0  0  0
    3.7320   -0.0746    0.0000 C   0  0  0  0  0  0  0  0  0  0  0  0
    4.5981    0.4254    0.0000 C   0  0  0  0  0  0  0  0  0  0  0  0
   11.8554   -0.3846    0.0000 H   0  0  0  0  0  0  0  0  0  0  0  0
   11.7817   -0.9669    0.0000 H   0  0  0  0  0  0  0  0  0  0  0  0
   12.1803   -1.6572    0.0000 H   0  0  0  0  0  0  0  0  0  0  0  0
   13.6569    0.9003    0.0000 H   0  0  0  0  0  0  0  0  0  0  0  0
   12.8598    0.9003    0.0000 H   0  0  0  0  0  0  0  0  0  0  0  0
   12.8598   -2.0496    0.0000 H   0  0  0  0  0  0  0  0  0  0  0  0
   13.6569   -2.0496    0.0000 H   0  0  0  0  0  0  0  0  0  0  0  0
   10.2617   -0.5496    0.0000 H   0  0  0  0  0  0  0  0  0  0  0  0
   11.0588   -0.5496    0.0000 H   0  0  0  0  0  0  0  0  0  0  0  0
   12.1369    1.3177    0.0000 H   0  0  0  0  0  0  0  0  0  0  0  0
   11.7383    2.0080    0.0000 H   0  0  0  0  0  0  0  0  0  0  0  0
   10.1928    0.9003    0.0000 H   0  0  0  0  0  0  0  0  0  0  0  0
    9.3957    0.9003    0.0000 H   0  0  0  0  0  0  0  0  0  0  0  0
   10.0497    2.0330    0.0000 H   0  0  0  0  0  0  0  0  0  0  0  0
   10.4482    1.3428    0.0000 H   0  0  0  0  0  0  0  0  0  0  0  0
   15.0111    1.0800    0.0000 H   0  0  0  0  0  0  0  0  0  0  0  0
   16.4601    0.2583    0.0000 H   0  0  0  0  0  0  0  0  0  0  0  0
   16.4601   -1.4075    0.0000 H   0  0  0  0  0  0  0  0  0  0  0  0
   11.2803    2.9254    0.0000 H   0  0  0  0  0  0  0  0  0  0  0  0
   10.6603    3.5454    0.0000 H   0  0  0  0  0  0  0  0  0  0  0  0
   10.0403    2.9254    0.0000 H   0  0  0  0  0  0  0  0  0  0  0  0
   15.5400   -2.9254    0.0000 H   0  0  0  0  0  0  0  0  0  0  0  0
    9.4651   -1.3846    0.0000 H   0  0  0  0  0  0  0  0  0  0  0  0
    8.0622    1.0454    0.0000 H   0  0  0  0  0  0  0  0  0  0  0  0
    8.0622   -2.1946    0.0000 H   0  0  0  0  0  0  0  0  0  0  0  0
    6.6592    0.2354    0.0000 H   0  0  0  0  0  0  0  0  0  0  0  0
    6.3301   -2.1946    0.0000 H   0  0  0  0  0  0  0  0  0  0  0  0
    6.0010    0.2354    0.0000 H   0  0  0  0  0  0  0  0  0  0  0  0
    4.5981    1.0454    0.0000 H   0  0  0  0  0  0  0  0  0  0  0  0
  1 21  1  0  0  0  0
  1 58  1  0  0  0  0
  2  7  1  0  0  0  0
  2  8  1  0  0  0  0
  3  9  1  0  0  0  0
  4  9  2  0  0  0  0
  5 10  1  0  0  0  0
  5 16  1  0  0  0  0
  5 17  1  0  0  0  0
  6 30  1  0  0  0  0
  6 31  1  0  0  0  0
  6 63  1  0  0  0  0
  7 32  2  0  0  0  0
  8 34  2  0  0  0  0
  9 35  1  0  0  0  0
 10 11  1  0  0  0  0
 10 12  1  0  0  0  0
 10 37  1  0  0  0  0
 11 13  1  0  0  0  0
 11 38  1  0  0  0  0
 11 39  1  0  0  0  0
 12 14  1  0  0  0  0
 12 40  1  0  0  0  0
 12 41  1  0  0  0  0
 13 15  1  0  0  0  0
 13 42  1  0  0  0  0
 13 43  1  0  0  0  0
 14 15  2  0  0  0  0
 14 20  1  0  0  0  0
 15 21  1  0  0  0  0
 16 18  1  0  0  0  0
 16 44  1  0  0  0  0
 16 45  1  0  0  0  0
 17 19  1  0  0  0  0
 17 46  1  0  0  0  0
 17 47  1  0  0  0  0
 18 24  1  0  0  0  0
 18 48  1  0  0  0  0
 18 49  1  0  0  0  0
 19 25  1  0  0  0  0
 19 50  1  0  0  0  0
 19 51  1  0  0  0  0
 20 22  2  0  0  0  0
 20 52  1  0  0  0  0
 21 23  2  0  0  0  0
 22 23  1  0  0  0  0
 22 53  1  0  0  0  0
 23 54  1  0  0  0  0
 24 26  2  0  0  0  0
 24 27  1  0  0  0  0
 25 55  1  0  0  0  0
 25 56  1  0  0  0  0
 25 57  1  0  0  0  0
 26 28  1  0  0  0  0
 26 59  1  0  0  0  0
 27 29  2  0  0  0  0
 27 60  1  0  0  0  0
 28 30  2  0  0  0  0
 28 61  1  0  0  0  0
 29 30  1  0  0  0  0
 29 62  1  0  0  0  0
 31 32  1  0  0  0  0
 31 33  2  0  0  0  0
 32 34  1  0  0  0  0
 33 36  1  0  0  0  0
 33 64  1  0  0  0  0
 34 35  1  0  0  0  0
 35 36  2  0  0  0  0
 36 65  1  0  0  0  0
M  CHG  2   3  -1   9   1
M  END
> <PUBCHEM_COMPOUND_CID>
15115518

> <PUBCHEM_COMPOUND_CANONICALIZED>
1

> <PUBCHEM_CACTVS_COMPLEXITY>
715

> <PUBCHEM_CACTVS_HBOND_ACCEPTOR>
8

> <PUBCHEM_CACTVS_HBOND_DONOR>
2

> <PUBCHEM_CACTVS_ROTATABLE_BOND>
8

> <PUBCHEM_CACTVS_SUBSKEYS>
AAADceB7uAAAAAAAAAAAAAAAAAAAAWAAAAAwYMGAAAAAAFjB9AAAHgAUCAAADCzBngQyxrPQQgChAyRiQwCCAAQhMgAomCAufJoIZuLC0dOUdAhk0JHI2AeQ0LMOiACBAAQYACAQAQKACDAAQAAAAAAAAA==

> <PUBCHEM_IUPAC_OPENEYE_NAME>
2-[2-[4-[(4-nitro-2,1,3-benzoxadiazol-7-yl)amino]phenyl]ethyl-propyl-amino]tetralin-5-ol

> <PUBCHEM_IUPAC_CAS_NAME>
6-[2-[4-[(4-nitro-2,1,3-benzoxadiazol-7-yl)amino]phenyl]ethyl-propylamino]-5,6,7,8-tetrahydronaphthalen-1-ol

> <PUBCHEM_IUPAC_NAME_MARKUP>
6-[2-[4-[(4-nitro-2,1,3-benzoxadiazol-7-yl)amino]phenyl]ethyl-propylamino]-5,6,7,8-tetrahydronaphthalen-1-ol

> <PUBCHEM_IUPAC_NAME>
6-[2-[4-[(4-nitro-2,1,3-benzoxadiazol-7-yl)amino]phenyl]ethyl-propylamino]-5,6,7,8-tetrahydronaphthalen-1-ol

> <PUBCHEM_IUPAC_SYSTEMATIC_NAME>
6-[2-[4-[(4-nitro-2,1,3-benzoxadiazol-7-yl)amino]phenyl]ethyl-propyl-amino]-5,6,7,8-tetrahydronaphthalen-1-ol

> <PUBCHEM_IUPAC_TRADITIONAL_NAME>
2-[2-[4-[(7-nitrobenzofurazan-4-yl)amino]phenyl]ethyl-propyl-amino]tetralin-5-ol

> <PUBCHEM_IUPAC_INCHI>
InChI=1S/C27H29N5O4/c1-2-15-31(21-10-11-22-19(17-21)4-3-5-25(22)33)16-14-18-6-8-20(9-7-18)28-23-12-13-24(32(34)35)27-26(23)29-36-30-27/h3-9,12-13,21,28,33H,2,10-11,14-17H2,1H3

> <PUBCHEM_IUPAC_INCHIKEY>
GAJLCVIQCPUCOK-UHFFFAOYSA-N

> <PUBCHEM_XLOGP3_AA>
5.8

> <PUBCHEM_EXACT_MASS>
487.22195442

> <PUBCHEM_MOLECULAR_FORMULA>
C27H29N5O4

> <PUBCHEM_MOLECULAR_WEIGHT>
487.5

> <PUBCHEM_OPENEYE_CAN_SMILES>
CCCN(CCC1=CC=C(C=C1)NC2=CC=C(C3=NON=C23)[N+](=O)[O-])C4CCC5=C(C4)C=CC=C5O

> <PUBCHEM_OPENEYE_ISO_SMILES>
CCCN(CCC1=CC=C(C=C1)NC2=CC=C(C3=NON=C23)[N+](=O)[O-])C4CCC5=C(C4)C=CC=C5O

> <PUBCHEM_CACTVS_TPSA>
120

> <PUBCHEM_MONOISOTOPIC_WEIGHT>
487.22195442

> <PUBCHEM_TOTAL_CHARGE>
0

> <PUBCHEM_HEAVY_ATOM_COUNT>
36

> <PUBCHEM_ATOM_DEF_STEREO_COUNT>
0

> <PUBCHEM_ATOM_UDEF_STEREO_COUNT>
1

> <PUBCHEM_BOND_DEF_STEREO_COUNT>
0

> <PUBCHEM_BOND_UDEF_STEREO_COUNT>
0

> <PUBCHEM_ISOTOPIC_ATOM_COUNT>
0

> <PUBCHEM_COMPONENT_COUNT>
1

> <PUBCHEM_CACTVS_TAUTO_COUNT>
-1

> <PUBCHEM_COORDINATE_TYPE>
1
5
255

> <PUBCHEM_BONDANNOTATIONS>
14  15  8
14  20  8
15  21  8
2  7  8
2  8  8
20  22  8
21  23  8
22  23  8
24  26  8
24  27  8
26  28  8
27  29  8
28  30  8
29  30  8
31  32  8
31  33  8
32  34  8
33  36  8
34  35  8
35  36  8
10  5  3
7  32  8
8  34  8

$$$$
