46889015
  -OEChem-09292322292D

 66 72  0     1  0  0  0  0  0999 V2000
    7.1719   -2.6494    0.0000 O   0  0  0  0  0  0  0  0  0  0  0  0
    5.3798   -1.6147    0.0000 O   0  0  0  0  0  0  0  0  0  0  0  0
   15.5857    3.7120    0.0000 O   0  0  0  0  0  0  0  0  0  0  0  0
    2.0000   -3.6562    0.0000 O   0  0  0  0  0  0  0  0  0  0  0  0
    8.0517   -0.1112    0.0000 N   0  0  0  0  0  0  0  0  0  0  0  0
   13.9235    3.1031    0.0000 N   0  0  0  0  0  0  0  0  0  0  0  0
    3.5836   -4.4610    0.0000 N   0  0  0  0  0  0  0  0  0  0  0  0
    9.6416    2.1314    0.0000 C   0  0  0  0  0  0  0  0  0  0  0  0
    7.6464    1.9217    0.0000 C   0  0  3  0  0  0  0  0  0  0  0  0
    8.4677    2.4921    0.0000 C   0  0  3  0  0  0  0  0  0  0  0  0
    6.6942    3.0659    0.0000 C   0  0  0  0  0  0  0  0  0  0  0  0
    7.5155    3.6363    0.0000 C   0  0  0  0  0  0  0  0  0  0  0  0
    7.2450    0.4797    0.0000 C   0  0  0  0  0  0  0  0  0  0  0  0
    8.8630    0.4735    0.0000 C   0  0  0  0  0  0  0  0  0  0  0  0
   10.6258    1.9540    0.0000 C   0  0  0  0  0  0  0  0  0  0  0  0
    8.0479   -1.1112    0.0000 C   0  0  0  0  0  0  0  0  0  0  0  0
   11.2715    2.7176    0.0000 C   0  0  0  0  0  0  0  0  0  0  0  0
    7.1799   -1.6078    0.0000 C   0  0  2  0  0  0  0  0  0  0  0  0
   12.2556    2.5401    0.0000 C   0  0  0  0  0  0  0  0  0  0  0  0
   10.9331    3.6586    0.0000 C   0  0  0  0  0  0  0  0  0  0  0  0
    6.2778   -1.0870    0.0000 C   0  0  0  0  0  0  0  0  0  0  0  0
   12.9014    3.3037    0.0000 C   0  0  0  0  0  0  0  0  0  0  0  0
   11.5788    4.4221    0.0000 C   0  0  0  0  0  0  0  0  0  0  0  0
   12.5630    4.2447    0.0000 C   0  0  0  0  0  0  0  0  0  0  0  0
    6.2619   -3.1562    0.0000 C   0  0  0  0  0  0  0  0  0  0  0  0
    5.3958   -2.6562    0.0000 C   0  0  0  0  0  0  0  0  0  0  0  0
   13.2232    5.0503    0.0000 C   0  0  0  0  0  0  0  0  0  0  0  0
    4.5298   -3.1562    0.0000 C   0  0  0  0  0  0  0  0  0  0  0  0
   14.2497    4.8734    0.0000 C   0  0  0  0  0  0  0  0  0  0  0  0
    6.2619   -4.1562    0.0000 C   0  0  0  0  0  0  0  0  0  0  0  0
   14.6022    3.8932    0.0000 C   0  0  0  0  0  0  0  0  0  0  0  0
    4.5298   -4.1562    0.0000 C   0  0  0  0  0  0  0  0  0  0  0  0
    3.5836   -2.8515    0.0000 C   0  0  0  0  0  0  0  0  0  0  0  0
    5.3958   -4.6562    0.0000 C   0  0  0  0  0  0  0  0  0  0  0  0
    3.0000   -3.6562    0.0000 C   0  0  0  0  0  0  0  0  0  0  0  0
    9.7879    2.7339    0.0000 H   0  0  0  0  0  0  0  0  0  0  0  0
    7.0402    1.7916    0.0000 H   0  0  0  0  0  0  0  0  0  0  0  0
    8.8113    3.0082    0.0000 H   0  0  0  0  0  0  0  0  0  0  0  0
    6.3259    3.5647    0.0000 H   0  0  0  0  0  0  0  0  0  0  0  0
    6.2063    2.6833    0.0000 H   0  0  0  0  0  0  0  0  0  0  0  0
    8.0034    4.0189    0.0000 H   0  0  0  0  0  0  0  0  0  0  0  0
    7.1472    4.1351    0.0000 H   0  0  0  0  0  0  0  0  0  0  0  0
    6.6719    0.7165    0.0000 H   0  0  0  0  0  0  0  0  0  0  0  0
    6.9412   -0.0608    0.0000 H   0  0  0  0  0  0  0  0  0  0  0  0
    9.1497   -0.0762    0.0000 H   0  0  0  0  0  0  0  0  0  0  0  0
    9.4481    0.6786    0.0000 H   0  0  0  0  0  0  0  0  0  0  0  0
   10.4115    1.3722    0.0000 H   0  0  0  0  0  0  0  0  0  0  0  0
   11.1615    1.6419    0.0000 H   0  0  0  0  0  0  0  0  0  0  0  0
    8.2577   -1.6946    0.0000 H   0  0  0  0  0  0  0  0  0  0  0  0
    8.6588   -1.0058    0.0000 H   0  0  0  0  0  0  0  0  0  0  0  0
    7.7150   -1.9209    0.0000 H   0  0  0  0  0  0  0  0  0  0  0  0
   12.4654    1.9567    0.0000 H   0  0  0  0  0  0  0  0  0  0  0  0
   10.3229    3.7686    0.0000 H   0  0  0  0  0  0  0  0  0  0  0  0
    6.6751   -0.6110    0.0000 H   0  0  0  0  0  0  0  0  0  0  0  0
    5.8769   -0.6141    0.0000 H   0  0  0  0  0  0  0  0  0  0  0  0
   11.3690    5.0056    0.0000 H   0  0  0  0  0  0  0  0  0  0  0  0
   13.4316    5.6343    0.0000 H   0  0  0  0  0  0  0  0  0  0  0  0
   12.6835    5.3555    0.0000 H   0  0  0  0  0  0  0  0  0  0  0  0
   14.1265    2.5173    0.0000 H   0  0  0  0  0  0  0  0  0  0  0  0
   14.8605    4.9803    0.0000 H   0  0  0  0  0  0  0  0  0  0  0  0
   14.2489    5.4934    0.0000 H   0  0  0  0  0  0  0  0  0  0  0  0
    6.7988   -4.4662    0.0000 H   0  0  0  0  0  0  0  0  0  0  0  0
    3.8346   -2.2846    0.0000 H   0  0  0  0  0  0  0  0  0  0  0  0
    3.0462   -2.5423    0.0000 H   0  0  0  0  0  0  0  0  0  0  0  0
    5.3958   -5.2762    0.0000 H   0  0  0  0  0  0  0  0  0  0  0  0
    3.3910   -5.0503    0.0000 H   0  0  0  0  0  0  0  0  0  0  0  0
  1 18  1  0  0  0  0
  1 25  1  0  0  0  0
  2 21  1  0  0  0  0
  2 26  1  0  0  0  0
  3 31  2  0  0  0  0
  4 35  2  0  0  0  0
  5 13  1  0  0  0  0
  5 14  1  0  0  0  0
  5 16  1  0  0  0  0
  6 22  1  0  0  0  0
  6 31  1  0  0  0  0
  6 59  1  0  0  0  0
  7 32  1  0  0  0  0
  7 35  1  0  0  0  0
  7 66  1  0  0  0  0
  8  9  1  0  0  0  0
  8 10  1  0  0  0  0
  8 15  1  0  0  0  0
  8 36  1  0  0  0  0
  9 11  1  0  0  0  0
  9 13  1  0  0  0  0
  9 37  1  0  0  0  0
 10 12  1  0  0  0  0
 10 14  1  0  0  0  0
 10 38  1  0  0  0  0
 11 12  1  0  0  0  0
 11 39  1  0  0  0  0
 11 40  1  0  0  0  0
 12 41  1  0  0  0  0
 12 42  1  0  0  0  0
 13 43  1  0  0  0  0
 13 44  1  0  0  0  0
 14 45  1  0  0  0  0
 14 46  1  0  0  0  0
 15 17  1  0  0  0  0
 15 47  1  0  0  0  0
 15 48  1  0  0  0  0
 18 16  1  1  0  0  0
 16 49  1  0  0  0  0
 16 50  1  0  0  0  0
 17 19  2  0  0  0  0
 17 20  1  0  0  0  0
 18 21  1  0  0  0  0
 18 51  1  0  0  0  0
 19 22  1  0  0  0  0
 19 52  1  0  0  0  0
 20 23  2  0  0  0  0
 20 53  1  0  0  0  0
 21 54  1  0  0  0  0
 21 55  1  0  0  0  0
 22 24  2  0  0  0  0
 23 24  1  0  0  0  0
 23 56  1  0  0  0  0
 24 27  1  0  0  0  0
 25 26  2  0  0  0  0
 25 30  1  0  0  0  0
 26 28  1  0  0  0  0
 27 29  1  0  0  0  0
 27 57  1  0  0  0  0
 27 58  1  0  0  0  0
 28 32  2  0  0  0  0
 28 33  1  0  0  0  0
 29 31  1  0  0  0  0
 29 60  1  0  0  0  0
 29 61  1  0  0  0  0
 30 34  2  0  0  0  0
 30 62  1  0  0  0  0
 32 34  1  0  0  0  0
 33 35  1  0  0  0  0
 33 63  1  0  0  0  0
 33 64  1  0  0  0  0
 34 65  1  0  0  0  0
M  END
> <PUBCHEM_COMPOUND_CID>
46889015

> <PUBCHEM_COMPOUND_CANONICALIZED>
1

> <PUBCHEM_CACTVS_COMPLEXITY>
823

> <PUBCHEM_CACTVS_HBOND_ACCEPTOR>
5

> <PUBCHEM_CACTVS_HBOND_DONOR>
2

> <PUBCHEM_CACTVS_ROTATABLE_BOND>
4

> <PUBCHEM_CACTVS_SUBSKEYS>
AAADceB7OAAAAAAAAAAAAAAAAAAAAeIAAAA8eJECBYAAAFixQAAAHgAQAAAADRzhmAYwxoPABACIAiVSUACCCAAhIgAIiAEO7IgPJjLEtZuHOCrm1Bna6Ae+3fPewEABQgAKQACAgAKEABSAAQAACAAAAA==

> <PUBCHEM_IUPAC_OPENEYE_NAME>
(3R)-3-[[8-[(2-oxo-3,4-dihydro-1H-quinolin-7-yl)methyl]-3-azabicyclo[3.2.1]octan-3-yl]methyl]-2,3,7,9-tetrahydro-[1,4]dioxino[2,3-e]indol-8-one

> <PUBCHEM_IUPAC_CAS_NAME>
(3R)-3-[[8-[(2-oxo-3,4-dihydro-1H-quinolin-7-yl)methyl]-3-azabicyclo[3.2.1]octan-3-yl]methyl]-2,3,7,9-tetrahydro-[1,4]dioxino[2,3-e]indol-8-one

> <PUBCHEM_IUPAC_NAME_MARKUP>
(3<I>R</I>)-3-[[8-[(2-oxo-3,4-dihydro-1<I>H</I>-quinolin-7-yl)methyl]-3-azabicyclo[3.2.1]octan-3-yl]methyl]-2,3,7,9-tetrahydro-[1,4]dioxino[2,3-e]indol-8-one

> <PUBCHEM_IUPAC_NAME>
(3R)-3-[[8-[(2-oxo-3,4-dihydro-1H-quinolin-7-yl)methyl]-3-azabicyclo[3.2.1]octan-3-yl]methyl]-2,3,7,9-tetrahydro-[1,4]dioxino[2,3-e]indol-8-one

> <PUBCHEM_IUPAC_SYSTEMATIC_NAME>
(3R)-3-[[8-[(2-oxidanylidene-3,4-dihydro-1H-quinolin-7-yl)methyl]-3-azabicyclo[3.2.1]octan-3-yl]methyl]-2,3,7,9-tetrahydro-[1,4]dioxino[2,3-e]indol-8-one

> <PUBCHEM_IUPAC_TRADITIONAL_NAME>
(3R)-3-[[8-[(2-keto-3,4-dihydro-1H-quinolin-7-yl)methyl]-3-azabicyclo[3.2.1]octan-3-yl]methyl]-2,3,7,9-tetrahydro-[1,4]dioxin[2,3-e]indol-8-one

> <PUBCHEM_IUPAC_INCHI>
InChI=1S/C28H31N3O4/c32-26-8-5-17-2-1-16(10-24(17)30-26)9-21-18-3-4-19(21)13-31(12-18)14-20-15-34-28-22-11-27(33)29-23(22)6-7-25(28)35-20/h1-2,6-7,10,18-21H,3-5,8-9,11-15H2,(H,29,33)(H,30,32)/t18?,19?,20-,21?/m1/s1

> <PUBCHEM_IUPAC_INCHIKEY>
OTEFKTISRAMNKM-WTLQVUHWSA-N

> <PUBCHEM_XLOGP3_AA>
2.7

> <PUBCHEM_EXACT_MASS>
473.23145648

> <PUBCHEM_MOLECULAR_FORMULA>
C28H31N3O4

> <PUBCHEM_MOLECULAR_WEIGHT>
473.6

> <PUBCHEM_OPENEYE_CAN_SMILES>
C1CC2CN(CC1C2CC3=CC4=C(CCC(=O)N4)C=C3)CC5COC6=C(O5)C=CC7=C6CC(=O)N7

> <PUBCHEM_OPENEYE_ISO_SMILES>
C1CC2CN(CC1C2CC3=CC4=C(CCC(=O)N4)C=C3)C[C@@H]5COC6=C(O5)C=CC7=C6CC(=O)N7

> <PUBCHEM_CACTVS_TPSA>
79.9

> <PUBCHEM_MONOISOTOPIC_WEIGHT>
473.23145648

> <PUBCHEM_TOTAL_CHARGE>
0

> <PUBCHEM_HEAVY_ATOM_COUNT>
35

> <PUBCHEM_ATOM_DEF_STEREO_COUNT>
1

> <PUBCHEM_ATOM_UDEF_STEREO_COUNT>
2

> <PUBCHEM_BOND_DEF_STEREO_COUNT>
0

> <PUBCHEM_BOND_UDEF_STEREO_COUNT>
0

> <PUBCHEM_ISOTOPIC_ATOM_COUNT>
0

> <PUBCHEM_COMPONENT_COUNT>
1

> <PUBCHEM_CACTVS_TAUTO_COUNT>
-1

> <PUBCHEM_COORDINATE_TYPE>
1
5
255

> <PUBCHEM_BONDANNOTATIONS>
10  12  3
18  16  5
17  19  8
17  20  8
19  22  8
20  23  8
22  24  8
23  24  8
25  26  8
25  30  8
26  28  8
28  32  8
30  34  8
32  34  8
9  11  3

$$$$
