45264556
  -OEChem-09292322192D

 53 55  0     0  0  0  0  0  0999 V2000
    6.0010    6.1200    0.0000 Cl  0  0  0  0  0  0  0  0  0  0  0  0
    2.5981    7.6200    0.0000 O   0  0  0  0  0  0  0  0  0  0  0  0
    0.0000    9.1200    0.0000 O   0  0  0  0  0  0  0  0  0  0  0  0
    1.7320    5.1200    0.0000 N   0  0  0  0  0  0  0  0  0  0  0  0
    1.7320    7.1200    0.0000 C   0  0  0  0  0  0  0  0  0  0  0  0
    0.8660    6.6200    0.0000 C   0  0  0  0  0  0  0  0  0  0  0  0
    2.5981    6.6200    0.0000 C   0  0  0  0  0  0  0  0  0  0  0  0
    0.8660    5.6200    0.0000 C   0  0  0  0  0  0  0  0  0  0  0  0
    2.5981    5.6200    0.0000 C   0  0  0  0  0  0  0  0  0  0  0  0
    0.8660    7.6200    0.0000 C   0  0  0  0  0  0  0  0  0  0  0  0
    1.7320    4.1200    0.0000 C   0  0  0  0  0  0  0  0  0  0  0  0
    0.8660    8.6200    0.0000 C   0  0  0  0  0  0  0  0  0  0  0  0
    1.7320    9.1200    0.0000 C   0  0  0  0  0  0  0  0  0  0  0  0
    2.5981    8.6200    0.0000 C   0  0  0  0  0  0  0  0  0  0  0  0
    2.5981    3.6200    0.0000 C   0  0  0  0  0  0  0  0  0  0  0  0
    1.7320   10.1200    0.0000 C   0  0  0  0  0  0  0  0  0  0  0  0
    2.5981    2.6200    0.0000 C   0  0  0  0  0  0  0  0  0  0  0  0
    0.8660   10.6200    0.0000 C   0  0  0  0  0  0  0  0  0  0  0  0
    2.5981   10.6200    0.0000 C   0  0  0  0  0  0  0  0  0  0  0  0
    1.7320    2.1200    0.0000 C   0  0  0  0  0  0  0  0  0  0  0  0
    3.4641    2.1200    0.0000 C   0  0  0  0  0  0  0  0  0  0  0  0
    0.8660   11.6200    0.0000 C   0  0  0  0  0  0  0  0  0  0  0  0
    2.5981   11.6200    0.0000 C   0  0  0  0  0  0  0  0  0  0  0  0
    1.7320    1.1200    0.0000 C   0  0  0  0  0  0  0  0  0  0  0  0
    3.4641    1.1200    0.0000 C   0  0  0  0  0  0  0  0  0  0  0  0
    2.5981    0.6200    0.0000 C   0  0  0  0  0  0  0  0  0  0  0  0
    1.7320   12.1200    0.0000 C   0  0  0  0  0  0  0  0  0  0  0  0
    0.6540    7.2026    0.0000 H   0  0  0  0  0  0  0  0  0  0  0  0
    0.2554    6.5123    0.0000 H   0  0  0  0  0  0  0  0  0  0  0  0
    3.2087    6.5123    0.0000 H   0  0  0  0  0  0  0  0  0  0  0  0
    2.8101    7.2026    0.0000 H   0  0  0  0  0  0  0  0  0  0  0  0
    0.2554    5.7277    0.0000 H   0  0  0  0  0  0  0  0  0  0  0  0
    0.6540    5.0374    0.0000 H   0  0  0  0  0  0  0  0  0  0  0  0
    2.8101    5.0374    0.0000 H   0  0  0  0  0  0  0  0  0  0  0  0
    3.2087    5.7277    0.0000 H   0  0  0  0  0  0  0  0  0  0  0  0
    0.2554    7.7277    0.0000 H   0  0  0  0  0  0  0  0  0  0  0  0
    0.6540    7.0374    0.0000 H   0  0  0  0  0  0  0  0  0  0  0  0
    1.1215    4.2277    0.0000 H   0  0  0  0  0  0  0  0  0  0  0  0
    1.5200    3.5374    0.0000 H   0  0  0  0  0  0  0  0  0  0  0  0
    3.1350    8.9300    0.0000 H   0  0  0  0  0  0  0  0  0  0  0  0
    3.2087    3.5123    0.0000 H   0  0  0  0  0  0  0  0  0  0  0  0
    2.8101    4.2026    0.0000 H   0  0  0  0  0  0  0  0  0  0  0  0
    0.3291   10.3100    0.0000 H   0  0  0  0  0  0  0  0  0  0  0  0
    3.1350   10.3100    0.0000 H   0  0  0  0  0  0  0  0  0  0  0  0
    1.1951    2.4300    0.0000 H   0  0  0  0  0  0  0  0  0  0  0  0
    4.0010    2.4300    0.0000 H   0  0  0  0  0  0  0  0  0  0  0  0
    1.1951    0.8100    0.0000 H   0  0  0  0  0  0  0  0  0  0  0  0
    4.0010    0.8100    0.0000 H   0  0  0  0  0  0  0  0  0  0  0  0
    0.3291   11.9300    0.0000 H   0  0  0  0  0  0  0  0  0  0  0  0
    3.1350   11.9300    0.0000 H   0  0  0  0  0  0  0  0  0  0  0  0
    2.5981    0.0000    0.0000 H   0  0  0  0  0  0  0  0  0  0  0  0
    1.7320   12.7400    0.0000 H   0  0  0  0  0  0  0  0  0  0  0  0
    7.0010    6.1200    0.0000 H   0  0  0  0  0  0  0  0  0  0  0  0
  1 53  1  0  0  0  0
  2  5  1  0  0  0  0
  2 14  1  0  0  0  0
  3 12  2  0  0  0  0
  4  8  1  0  0  0  0
  4  9  1  0  0  0  0
  4 11  1  0  0  0  0
  5  6  1  0  0  0  0
  5  7  1  0  0  0  0
  5 10  1  0  0  0  0
  6  8  1  0  0  0  0
  6 28  1  0  0  0  0
  6 29  1  0  0  0  0
  7  9  1  0  0  0  0
  7 30  1  0  0  0  0
  7 31  1  0  0  0  0
  8 32  1  0  0  0  0
  8 33  1  0  0  0  0
  9 34  1  0  0  0  0
  9 35  1  0  0  0  0
 10 12  1  0  0  0  0
 10 36  1  0  0  0  0
 10 37  1  0  0  0  0
 11 15  1  0  0  0  0
 11 38  1  0  0  0  0
 11 39  1  0  0  0  0
 12 13  1  0  0  0  0
 13 14  2  0  0  0  0
 13 16  1  0  0  0  0
 14 40  1  0  0  0  0
 15 17  1  0  0  0  0
 15 41  1  0  0  0  0
 15 42  1  0  0  0  0
 16 18  2  0  0  0  0
 16 19  1  0  0  0  0
 17 20  2  0  0  0  0
 17 21  1  0  0  0  0
 18 22  1  0  0  0  0
 18 43  1  0  0  0  0
 19 23  2  0  0  0  0
 19 44  1  0  0  0  0
 20 24  1  0  0  0  0
 20 45  1  0  0  0  0
 21 25  2  0  0  0  0
 21 46  1  0  0  0  0
 22 27  2  0  0  0  0
 22 49  1  0  0  0  0
 23 27  1  0  0  0  0
 23 50  1  0  0  0  0
 24 26  2  0  0  0  0
 24 47  1  0  0  0  0
 25 26  1  0  0  0  0
 25 48  1  0  0  0  0
 26 51  1  0  0  0  0
 27 52  1  0  0  0  0
M  END
> <PUBCHEM_COMPOUND_CID>
45264556

> <PUBCHEM_COMPOUND_CANONICALIZED>
1

> <PUBCHEM_CACTVS_COMPLEXITY>
506

> <PUBCHEM_CACTVS_HBOND_ACCEPTOR>
3

> <PUBCHEM_CACTVS_HBOND_DONOR>
1

> <PUBCHEM_CACTVS_ROTATABLE_BOND>
4

> <PUBCHEM_CACTVS_SUBSKEYS>
AAADceB6MAAEAAAAAAAAAAAAAAAAAAAAAAA8YIEAAAAAAAABQAAAHgAAAAAADEThmAYwAIMABACIAqBSAAACCAAgIAAIiAEIAMgIIDaAlRGEIAAmoACIiIeYyfCOAAAAAAAAAAAAAAAAAAAAAAAAAAAAAA==

> <PUBCHEM_IUPAC_OPENEYE_NAME>
3-phenyl-9-(2-phenylethyl)-1-oxa-9-azaspiro[5.5]undec-2-en-4-one;hydrochloride

> <PUBCHEM_IUPAC_CAS_NAME>
3-phenyl-9-(2-phenylethyl)-1-oxa-9-azaspiro[5.5]undec-2-en-4-one;hydrochloride

> <PUBCHEM_IUPAC_NAME_MARKUP>
3-phenyl-9-(2-phenylethyl)-1-oxa-9-azaspiro[5.5]undec-2-en-4-one;hydrochloride

> <PUBCHEM_IUPAC_NAME>
3-phenyl-9-(2-phenylethyl)-1-oxa-9-azaspiro[5.5]undec-2-en-4-one;hydrochloride

> <PUBCHEM_IUPAC_SYSTEMATIC_NAME>
3-phenyl-9-(2-phenylethyl)-1-oxa-9-azaspiro[5.5]undec-2-en-4-one;hydrochloride

> <PUBCHEM_IUPAC_TRADITIONAL_NAME>
9-phenethyl-3-phenyl-1-oxa-9-azaspiro[5.5]undec-2-en-4-one;hydrochloride

> <PUBCHEM_IUPAC_INCHI>
InChI=1S/C23H25NO2.ClH/c25-22-17-23(26-18-21(22)20-9-5-2-6-10-20)12-15-24(16-13-23)14-11-19-7-3-1-4-8-19;/h1-10,18H,11-17H2;1H

> <PUBCHEM_IUPAC_INCHIKEY>
MTATWNSCGBABRB-UHFFFAOYSA-N

> <PUBCHEM_EXACT_MASS>
383.1652068

> <PUBCHEM_MOLECULAR_FORMULA>
C23H26ClNO2

> <PUBCHEM_MOLECULAR_WEIGHT>
383.9

> <PUBCHEM_OPENEYE_CAN_SMILES>
C1CN(CCC12CC(=O)C(=CO2)C3=CC=CC=C3)CCC4=CC=CC=C4.Cl

> <PUBCHEM_OPENEYE_ISO_SMILES>
C1CN(CCC12CC(=O)C(=CO2)C3=CC=CC=C3)CCC4=CC=CC=C4.Cl

> <PUBCHEM_CACTVS_TPSA>
29.5

> <PUBCHEM_MONOISOTOPIC_WEIGHT>
383.1652068

> <PUBCHEM_TOTAL_CHARGE>
0

> <PUBCHEM_HEAVY_ATOM_COUNT>
27

> <PUBCHEM_ATOM_DEF_STEREO_COUNT>
0

> <PUBCHEM_ATOM_UDEF_STEREO_COUNT>
0

> <PUBCHEM_BOND_DEF_STEREO_COUNT>
0

> <PUBCHEM_BOND_UDEF_STEREO_COUNT>
0

> <PUBCHEM_ISOTOPIC_ATOM_COUNT>
0

> <PUBCHEM_COMPONENT_COUNT>
2

> <PUBCHEM_CACTVS_TAUTO_COUNT>
-1

> <PUBCHEM_COORDINATE_TYPE>
1
5
255

> <PUBCHEM_BONDANNOTATIONS>
16  18  8
16  19  8
17  20  8
17  21  8
18  22  8
19  23  8
20  24  8
21  25  8
22  27  8
23  27  8
24  26  8
25  26  8

$$$$
