145952711
  -OEChem-09292322382D

 73 76  0     1  0  0  0  0  0999 V2000
   12.4138   11.8224    0.0000 Cl  0  0  0  0  0  0  0  0  0  0  0  0
    0.0000    5.9712    0.0000 Cl  0  0  0  0  0  0  0  0  0  0  0  0
    7.8671    6.6200    0.0000 O   0  0  0  0  0  0  0  0  0  0  0  0
    7.2284   10.2837    0.0000 O   0  0  0  0  0  0  0  0  0  0  0  0
    8.9885    7.2351    0.0000 O   0  0  0  0  0  0  0  0  0  0  0  0
    6.1350    5.6200    0.0000 N   0  0  0  0  0  0  0  0  0  0  0  0
    6.1350    3.6200    0.0000 N   0  0  0  0  0  0  0  0  0  0  0  0
    7.8671    8.6200    0.0000 N   0  0  0  0  0  0  0  0  0  0  0  0
    9.4497    8.9564    0.0000 N   0  0  0  0  0  0  0  0  0  0  0  0
    5.2690    5.1200    0.0000 C   0  0  0  0  0  0  0  0  0  0  0  0
    7.0010    5.1200    0.0000 C   0  0  0  0  0  0  0  0  0  0  0  0
    5.2690    4.1200    0.0000 C   0  0  0  0  0  0  0  0  0  0  0  0
    7.0010    4.1200    0.0000 C   0  0  0  0  0  0  0  0  0  0  0  0
    6.1350    6.6200    0.0000 C   0  0  0  0  0  0  0  0  0  0  0  0
    6.1350    2.6200    0.0000 C   0  0  0  0  0  0  0  0  0  0  0  0
    7.0010    7.1200    0.0000 C   0  0  3  0  0  0  0  0  0  0  0  0
    7.0010    8.1200    0.0000 C   0  0  0  0  0  0  0  0  0  0  0  0
    8.9497    9.8224    0.0000 C   0  0  3  0  0  0  0  0  0  0  0  0
    5.2690    2.1200    0.0000 C   0  0  0  0  0  0  0  0  0  0  0  0
    7.0010    2.1200    0.0000 C   0  0  0  0  0  0  0  0  0  0  0  0
    7.9716    9.6145    0.0000 C   0  0  0  0  0  0  0  0  0  0  0  0
    8.7806    8.2133    0.0000 C   0  0  0  0  0  0  0  0  0  0  0  0
    9.8158   10.3224    0.0000 C   0  0  0  0  0  0  0  0  0  0  0  0
    8.7418   10.8006    0.0000 C   0  0  0  0  0  0  0  0  0  0  0  0
    5.2690    1.1200    0.0000 C   0  0  0  0  0  0  0  0  0  0  0  0
    7.8671    2.6200    0.0000 C   0  0  0  0  0  0  0  0  0  0  0  0
    4.4030    2.6200    0.0000 C   0  0  0  0  0  0  0  0  0  0  0  0
    7.0010    1.1200    0.0000 C   0  0  0  0  0  0  0  0  0  0  0  0
   10.6818    9.8224    0.0000 C   0  0  0  0  0  0  0  0  0  0  0  0
    9.8158   11.3224    0.0000 C   0  0  0  0  0  0  0  0  0  0  0  0
    4.4030    0.6200    0.0000 C   0  0  0  0  0  0  0  0  0  0  0  0
    8.7331    2.1200    0.0000 C   0  0  0  0  0  0  0  0  0  0  0  0
    3.5369    2.1200    0.0000 C   0  0  0  0  0  0  0  0  0  0  0  0
    7.8671    0.6200    0.0000 C   0  0  0  0  0  0  0  0  0  0  0  0
    3.5369    1.1200    0.0000 C   0  0  0  0  0  0  0  0  0  0  0  0
    8.7331    1.1200    0.0000 C   0  0  0  0  0  0  0  0  0  0  0  0
   11.5478   10.3224    0.0000 C   0  0  0  0  0  0  0  0  0  0  0  0
   10.6818   11.8224    0.0000 C   0  0  0  0  0  0  0  0  0  0  0  0
   11.5478   11.3224    0.0000 C   0  0  0  0  0  0  0  0  0  0  0  0
    5.0569    5.7026    0.0000 H   0  0  0  0  0  0  0  0  0  0  0  0
    4.6584    5.0123    0.0000 H   0  0  0  0  0  0  0  0  0  0  0  0
    7.6116    5.0123    0.0000 H   0  0  0  0  0  0  0  0  0  0  0  0
    7.2131    5.7026    0.0000 H   0  0  0  0  0  0  0  0  0  0  0  0
    4.6584    4.2277    0.0000 H   0  0  0  0  0  0  0  0  0  0  0  0
    5.0569    3.5374    0.0000 H   0  0  0  0  0  0  0  0  0  0  0  0
    7.2131    3.5374    0.0000 H   0  0  0  0  0  0  0  0  0  0  0  0
    7.6116    4.2277    0.0000 H   0  0  0  0  0  0  0  0  0  0  0  0
    5.9230    7.2026    0.0000 H   0  0  0  0  0  0  0  0  0  0  0  0
    5.5244    6.5123    0.0000 H   0  0  0  0  0  0  0  0  0  0  0  0
    6.1350    2.0000    0.0000 H   0  0  0  0  0  0  0  0  0  0  0  0
    7.0010    6.5000    0.0000 H   0  0  0  0  0  0  0  0  0  0  0  0
    6.7890    8.7026    0.0000 H   0  0  0  0  0  0  0  0  0  0  0  0
    6.3905    8.0123    0.0000 H   0  0  0  0  0  0  0  0  0  0  0  0
   10.0663    8.8916    0.0000 H   0  0  0  0  0  0  0  0  0  0  0  0
    9.3483   10.9295    0.0000 H   0  0  0  0  0  0  0  0  0  0  0  0
    8.6129   11.4070    0.0000 H   0  0  0  0  0  0  0  0  0  0  0  0
    8.1354   10.6717    0.0000 H   0  0  0  0  0  0  0  0  0  0  0  0
    8.4040    6.9300    0.0000 H   0  0  0  0  0  0  0  0  0  0  0  0
    5.8059    0.8100    0.0000 H   0  0  0  0  0  0  0  0  0  0  0  0
    7.8671    3.2400    0.0000 H   0  0  0  0  0  0  0  0  0  0  0  0
    4.4030    3.2400    0.0000 H   0  0  0  0  0  0  0  0  0  0  0  0
    6.4641    0.8100    0.0000 H   0  0  0  0  0  0  0  0  0  0  0  0
   10.6818    9.2024    0.0000 H   0  0  0  0  0  0  0  0  0  0  0  0
    9.2788   11.6324    0.0000 H   0  0  0  0  0  0  0  0  0  0  0  0
    4.4030    0.0000    0.0000 H   0  0  0  0  0  0  0  0  0  0  0  0
    9.2700    2.4300    0.0000 H   0  0  0  0  0  0  0  0  0  0  0  0
    3.0000    2.4300    0.0000 H   0  0  0  0  0  0  0  0  0  0  0  0
    7.8671    0.0000    0.0000 H   0  0  0  0  0  0  0  0  0  0  0  0
    3.0000    0.8100    0.0000 H   0  0  0  0  0  0  0  0  0  0  0  0
    9.2700    0.8100    0.0000 H   0  0  0  0  0  0  0  0  0  0  0  0
   12.0848   10.0124    0.0000 H   0  0  0  0  0  0  0  0  0  0  0  0
   10.6818   12.4424    0.0000 H   0  0  0  0  0  0  0  0  0  0  0  0
    1.0000    5.9712    0.0000 H   0  0  0  0  0  0  0  0  0  0  0  0
  1 39  1  0  0  0  0
  2 73  1  0  0  0  0
  3 16  1  0  0  0  0
  3 58  1  0  0  0  0
  4 21  2  0  0  0  0
  5 22  2  0  0  0  0
  6 10  1  0  0  0  0
  6 11  1  0  0  0  0
  6 14  1  0  0  0  0
  7 12  1  0  0  0  0
  7 13  1  0  0  0  0
  7 15  1  0  0  0  0
  8 17  1  0  0  0  0
  8 21  1  0  0  0  0
  8 22  1  0  0  0  0
  9 18  1  0  0  0  0
  9 22  1  0  0  0  0
  9 54  1  0  0  0  0
 10 12  1  0  0  0  0
 10 40  1  0  0  0  0
 10 41  1  0  0  0  0
 11 13  1  0  0  0  0
 11 42  1  0  0  0  0
 11 43  1  0  0  0  0
 12 44  1  0  0  0  0
 12 45  1  0  0  0  0
 13 46  1  0  0  0  0
 13 47  1  0  0  0  0
 14 16  1  0  0  0  0
 14 48  1  0  0  0  0
 14 49  1  0  0  0  0
 15 19  1  0  0  0  0
 15 20  1  0  0  0  0
 15 50  1  0  0  0  0
 16 17  1  0  0  0  0
 16 51  1  0  0  0  0
 17 52  1  0  0  0  0
 17 53  1  0  0  0  0
 18 21  1  0  0  0  0
 18 23  1  0  0  0  0
 18 24  1  0  0  0  0
 19 25  2  0  0  0  0
 19 27  1  0  0  0  0
 20 26  2  0  0  0  0
 20 28  1  0  0  0  0
 23 29  2  0  0  0  0
 23 30  1  0  0  0  0
 24 55  1  0  0  0  0
 24 56  1  0  0  0  0
 24 57  1  0  0  0  0
 25 31  1  0  0  0  0
 25 59  1  0  0  0  0
 26 32  1  0  0  0  0
 26 60  1  0  0  0  0
 27 33  2  0  0  0  0
 27 61  1  0  0  0  0
 28 34  2  0  0  0  0
 28 62  1  0  0  0  0
 29 37  1  0  0  0  0
 29 63  1  0  0  0  0
 30 38  2  0  0  0  0
 30 64  1  0  0  0  0
 31 35  2  0  0  0  0
 31 65  1  0  0  0  0
 32 36  2  0  0  0  0
 32 66  1  0  0  0  0
 33 35  1  0  0  0  0
 33 67  1  0  0  0  0
 34 36  1  0  0  0  0
 34 68  1  0  0  0  0
 35 69  1  0  0  0  0
 36 70  1  0  0  0  0
 37 39  2  0  0  0  0
 37 71  1  0  0  0  0
 38 39  1  0  0  0  0
 38 72  1  0  0  0  0
M  END
> <PUBCHEM_COMPOUND_CID>
145952711

> <PUBCHEM_COMPOUND_CANONICALIZED>
1

> <PUBCHEM_CACTVS_COMPLEXITY>
783

> <PUBCHEM_CACTVS_HBOND_ACCEPTOR>
5

> <PUBCHEM_CACTVS_HBOND_DONOR>
3

> <PUBCHEM_CACTVS_ROTATABLE_BOND>
8

> <PUBCHEM_CACTVS_SUBSKEYS>
AAADcfB7sAAGAAAAAAAAAAAAAAAAAWAAAAA8YMEAAAAAAAABUAAAHgIQCAAADL7hmCYzAIPAAgCIAiFSEACCAAAgBQAIiAGIBoiKcDKB1zGUIAholyKYiAcYiMCOhAAAAAAAAAAIAAAAAAAAAAAAAAAAAA==

> <PUBCHEM_IUPAC_OPENEYE_NAME>
3-[3-(4-benzhydrylpiperazin-1-yl)-2-hydroxy-propyl]-5-(4-chlorophenyl)-5-methyl-imidazolidine-2,4-dione;hydrochloride

> <PUBCHEM_IUPAC_CAS_NAME>
5-(4-chlorophenyl)-3-[3-[4-(diphenylmethyl)-1-piperazinyl]-2-hydroxypropyl]-5-methylimidazolidine-2,4-dione;hydrochloride

> <PUBCHEM_IUPAC_NAME_MARKUP>
3-[3-(4-benzhydrylpiperazin-1-yl)-2-hydroxypropyl]-5-(4-chlorophenyl)-5-methylimidazolidine-2,4-dione;hydrochloride

> <PUBCHEM_IUPAC_NAME>
3-[3-(4-benzhydrylpiperazin-1-yl)-2-hydroxypropyl]-5-(4-chlorophenyl)-5-methylimidazolidine-2,4-dione;hydrochloride

> <PUBCHEM_IUPAC_SYSTEMATIC_NAME>
5-(4-chlorophenyl)-3-[3-[4-(diphenylmethyl)piperazin-1-yl]-2-oxidanyl-propyl]-5-methyl-imidazolidine-2,4-dione;hydrochloride

> <PUBCHEM_IUPAC_TRADITIONAL_NAME>
3-[3-(4-benzhydrylpiperazino)-2-hydroxy-propyl]-5-(4-chlorophenyl)-5-methyl-hydantoin;hydrochloride

> <PUBCHEM_IUPAC_INCHI>
InChI=1S/C30H33ClN4O3.ClH/c1-30(24-12-14-25(31)15-13-24)28(37)35(29(38)32-30)21-26(36)20-33-16-18-34(19-17-33)27(22-8-4-2-5-9-22)23-10-6-3-7-11-23;/h2-15,26-27,36H,16-21H2,1H3,(H,32,38);1H

> <PUBCHEM_IUPAC_INCHIKEY>
WJPMIUWNSBWOKX-UHFFFAOYSA-N

> <PUBCHEM_EXACT_MASS>
568.2007963

> <PUBCHEM_MOLECULAR_FORMULA>
C30H34Cl2N4O3

> <PUBCHEM_MOLECULAR_WEIGHT>
569.5

> <PUBCHEM_OPENEYE_CAN_SMILES>
CC1(C(=O)N(C(=O)N1)CC(CN2CCN(CC2)C(C3=CC=CC=C3)C4=CC=CC=C4)O)C5=CC=C(C=C5)Cl.Cl

> <PUBCHEM_OPENEYE_ISO_SMILES>
CC1(C(=O)N(C(=O)N1)CC(CN2CCN(CC2)C(C3=CC=CC=C3)C4=CC=CC=C4)O)C5=CC=C(C=C5)Cl.Cl

> <PUBCHEM_CACTVS_TPSA>
76.1

> <PUBCHEM_MONOISOTOPIC_WEIGHT>
568.2007963

> <PUBCHEM_TOTAL_CHARGE>
0

> <PUBCHEM_HEAVY_ATOM_COUNT>
39

> <PUBCHEM_ATOM_DEF_STEREO_COUNT>
0

> <PUBCHEM_ATOM_UDEF_STEREO_COUNT>
2

> <PUBCHEM_BOND_DEF_STEREO_COUNT>
0

> <PUBCHEM_BOND_UDEF_STEREO_COUNT>
0

> <PUBCHEM_ISOTOPIC_ATOM_COUNT>
0

> <PUBCHEM_COMPONENT_COUNT>
2

> <PUBCHEM_CACTVS_TAUTO_COUNT>
-1

> <PUBCHEM_COORDINATE_TYPE>
1
5
255

> <PUBCHEM_BONDANNOTATIONS>
18  24  3
19  25  8
19  27  8
20  26  8
20  28  8
23  29  8
23  30  8
25  31  8
26  32  8
27  33  8
28  34  8
29  37  8
16  3  3
30  38  8
31  35  8
32  36  8
33  35  8
34  36  8
37  39  8
38  39  8

$$$$
