127031458
  -OEChem-09292322372D

 58 62  0     1  0  0  0  0  0999 V2000
    9.0771    3.2437    0.0000 S   0  0  0  0  0  0  0  0  0  0  0  0
    3.5962    0.7026    0.0000 N   0  0  3  0  0  0  0  0  0  0  0  0
    6.0771    1.5116    0.0000 N   0  0  3  0  0  0  0  0  0  0  0  0
   10.6649    2.4346    0.0000 N   0  0  0  0  0  0  0  0  0  0  0  0
   10.6649    4.0527    0.0000 N   0  0  0  0  0  0  0  0  0  0  0  0
   11.6159    3.7437    0.0000 N   0  0  0  0  0  0  0  0  0  0  0  0
    2.0511   -4.0527    0.0000 N   0  0  0  0  0  0  0  0  0  0  0  0
   13.3385    2.5626    0.0000 N   0  0  0  0  0  0  0  0  0  0  0  0
   13.1294    0.5736    0.0000 N   0  0  0  0  0  0  0  0  0  0  0  0
    4.5472    2.0116    0.0000 C   0  0  3  0  0  0  0  0  0  0  0  0
    4.5472    1.0116    0.0000 C   0  0  3  0  0  0  0  0  0  0  0  0
    5.4935    2.3164    0.0000 C   0  0  0  0  0  0  0  0  0  0  0  0
    3.5962    2.3206    0.0000 C   0  0  0  0  0  0  0  0  0  0  0  0
    5.4935    0.7069    0.0000 C   0  0  0  0  0  0  0  0  0  0  0  0
    3.0084    1.5116    0.0000 C   0  0  0  0  0  0  0  0  0  0  0  0
    7.0771    1.5116    0.0000 C   0  0  0  0  0  0  0  0  0  0  0  0
    3.2872   -0.2485    0.0000 C   0  0  0  0  0  0  0  0  0  0  0  0
    7.5771    2.3776    0.0000 C   0  0  0  0  0  0  0  0  0  0  0  0
    2.3090   -0.4564    0.0000 C   0  0  0  0  0  0  0  0  0  0  0  0
    3.9563   -0.9916    0.0000 C   0  0  0  0  0  0  0  0  0  0  0  0
    8.5771    2.3776    0.0000 C   0  0  0  0  0  0  0  0  0  0  0  0
    2.0000   -1.4074    0.0000 C   0  0  0  0  0  0  0  0  0  0  0  0
    3.6473   -1.9427    0.0000 C   0  0  0  0  0  0  0  0  0  0  0  0
    2.6691   -2.1506    0.0000 C   0  0  0  0  0  0  0  0  0  0  0  0
   10.0771    3.2437    0.0000 C   0  0  0  0  0  0  0  0  0  0  0  0
    2.3601   -3.1016    0.0000 C   0  0  0  0  0  0  0  0  0  0  0  0
   11.6159    2.7437    0.0000 C   0  0  0  0  0  0  0  0  0  0  0  0
   10.3558    1.4836    0.0000 C   0  0  0  0  0  0  0  0  0  0  0  0
   12.4249    2.1559    0.0000 C   0  0  0  0  0  0  0  0  0  0  0  0
   12.3204    1.1614    0.0000 C   0  0  0  0  0  0  0  0  0  0  0  0
   14.1475    1.9748    0.0000 C   0  0  0  0  0  0  0  0  0  0  0  0
   14.0430    0.9803    0.0000 C   0  0  0  0  0  0  0  0  0  0  0  0
    4.5480    2.6316    0.0000 H   0  0  0  0  0  0  0  0  0  0  0  0
    4.5480    0.3916    0.0000 H   0  0  0  0  0  0  0  0  0  0  0  0
    6.0308    2.6256    0.0000 H   0  0  0  0  0  0  0  0  0  0  0  0
    5.2424    2.8832    0.0000 H   0  0  0  0  0  0  0  0  0  0  0  0
    3.8484    2.8870    0.0000 H   0  0  0  0  0  0  0  0  0  0  0  0
    3.0592    2.6306    0.0000 H   0  0  0  0  0  0  0  0  0  0  0  0
    5.2424    0.1400    0.0000 H   0  0  0  0  0  0  0  0  0  0  0  0
    6.0308    0.3977    0.0000 H   0  0  0  0  0  0  0  0  0  0  0  0
    2.5476    1.9265    0.0000 H   0  0  0  0  0  0  0  0  0  0  0  0
    2.5476    1.0967    0.0000 H   0  0  0  0  0  0  0  0  0  0  0  0
    6.9694    0.9010    0.0000 H   0  0  0  0  0  0  0  0  0  0  0  0
    7.6597    1.2996    0.0000 H   0  0  0  0  0  0  0  0  0  0  0  0
    7.6847    2.9882    0.0000 H   0  0  0  0  0  0  0  0  0  0  0  0
    6.9945    2.5897    0.0000 H   0  0  0  0  0  0  0  0  0  0  0  0
    1.8942    0.0044    0.0000 H   0  0  0  0  0  0  0  0  0  0  0  0
    4.5628   -0.8627    0.0000 H   0  0  0  0  0  0  0  0  0  0  0  0
    8.4694    1.7671    0.0000 H   0  0  0  0  0  0  0  0  0  0  0  0
    9.1597    2.1656    0.0000 H   0  0  0  0  0  0  0  0  0  0  0  0
    1.3936   -1.5363    0.0000 H   0  0  0  0  0  0  0  0  0  0  0  0
    4.0621   -2.4034    0.0000 H   0  0  0  0  0  0  0  0  0  0  0  0
    9.7662    1.6752    0.0000 H   0  0  0  0  0  0  0  0  0  0  0  0
   10.1642    0.8939    0.0000 H   0  0  0  0  0  0  0  0  0  0  0  0
   10.9455    1.2920    0.0000 H   0  0  0  0  0  0  0  0  0  0  0  0
   11.7540    0.9092    0.0000 H   0  0  0  0  0  0  0  0  0  0  0  0
   14.7139    2.2270    0.0000 H   0  0  0  0  0  0  0  0  0  0  0  0
   14.5446    0.6159    0.0000 H   0  0  0  0  0  0  0  0  0  0  0  0
  1 21  1  0  0  0  0
  1 25  1  0  0  0  0
  2 11  1  0  0  0  0
  2 15  1  0  0  0  0
  2 17  1  0  0  0  0
  3 12  1  0  0  0  0
  3 14  1  0  0  0  0
  3 16  1  0  0  0  0
  4 25  1  0  0  0  0
  4 27  1  0  0  0  0
  4 28  1  0  0  0  0
  5  6  1  0  0  0  0
  5 25  2  0  0  0  0
  6 27  2  0  0  0  0
  7 26  3  0  0  0  0
  8 29  2  0  0  0  0
  8 31  1  0  0  0  0
  9 30  2  0  0  0  0
  9 32  1  0  0  0  0
 10 11  1  0  0  0  0
 10 12  1  0  0  0  0
 10 13  1  0  0  0  0
 10 33  1  0  0  0  0
 11 14  1  0  0  0  0
 11 34  1  0  0  0  0
 12 35  1  0  0  0  0
 12 36  1  0  0  0  0
 13 15  1  0  0  0  0
 13 37  1  0  0  0  0
 13 38  1  0  0  0  0
 14 39  1  0  0  0  0
 14 40  1  0  0  0  0
 15 41  1  0  0  0  0
 15 42  1  0  0  0  0
 16 18  1  0  0  0  0
 16 43  1  0  0  0  0
 16 44  1  0  0  0  0
 17 19  2  0  0  0  0
 17 20  1  0  0  0  0
 18 21  1  0  0  0  0
 18 45  1  0  0  0  0
 18 46  1  0  0  0  0
 19 22  1  0  0  0  0
 19 47  1  0  0  0  0
 20 23  2  0  0  0  0
 20 48  1  0  0  0  0
 21 49  1  0  0  0  0
 21 50  1  0  0  0  0
 22 24  2  0  0  0  0
 22 51  1  0  0  0  0
 23 24  1  0  0  0  0
 23 52  1  0  0  0  0
 24 26  1  0  0  0  0
 27 29  1  0  0  0  0
 28 53  1  0  0  0  0
 28 54  1  0  0  0  0
 28 55  1  0  0  0  0
 29 30  1  0  0  0  0
 30 56  1  0  0  0  0
 31 32  2  0  0  0  0
 31 57  1  0  0  0  0
 32 58  1  0  0  0  0
M  END
> <PUBCHEM_COMPOUND_CID>
127031458

> <PUBCHEM_COMPOUND_CANONICALIZED>
1

> <PUBCHEM_CACTVS_COMPLEXITY>
662

> <PUBCHEM_CACTVS_HBOND_ACCEPTOR>
8

> <PUBCHEM_CACTVS_HBOND_DONOR>
0

> <PUBCHEM_CACTVS_ROTATABLE_BOND>
7

> <PUBCHEM_CACTVS_SUBSKEYS>
AAADceB7wABAAAAAAAAAAAAAAAAAAWLFgAA8QAAAAAAWAAAB8AAAHAQIAAAADSjFXwS/0JcMEAiyBzZnZACy0C9xErAd2CA4dJiI6OLg2ZGUIAhgiALIyA8QgAAOCAAAAAAAAAAQAAAAAAAAAAAAAAAAAA==

> <PUBCHEM_IUPAC_OPENEYE_NAME>
4-[5-[3-[(4-methyl-5-pyrazin-2-yl-1,2,4-triazol-3-yl)sulfanyl]propyl]-2,3,3a,4,6,6a-hexahydropyrrolo[2,3-c]pyrrol-1-yl]benzonitrile

> <PUBCHEM_IUPAC_CAS_NAME>
4-[5-[3-[[4-methyl-5-(2-pyrazinyl)-1,2,4-triazol-3-yl]thio]propyl]-2,3,3a,4,6,6a-hexahydropyrrolo[2,3-c]pyrrol-1-yl]benzonitrile

> <PUBCHEM_IUPAC_NAME_MARKUP>
4-[5-[3-[(4-methyl-5-pyrazin-2-yl-1,2,4-triazol-3-yl)sulfanyl]propyl]-2,3,3<I>a</I>,4,6,6<I>a</I>-hexahydropyrrolo[2,3-c]pyrrol-1-yl]benzonitrile

> <PUBCHEM_IUPAC_NAME>
4-[5-[3-[(4-methyl-5-pyrazin-2-yl-1,2,4-triazol-3-yl)sulfanyl]propyl]-2,3,3a,4,6,6a-hexahydropyrrolo[2,3-c]pyrrol-1-yl]benzonitrile

> <PUBCHEM_IUPAC_SYSTEMATIC_NAME>
4-[5-[3-[(4-methyl-5-pyrazin-2-yl-1,2,4-triazol-3-yl)sulfanyl]propyl]-2,3,3a,4,6,6a-hexahydropyrrolo[2,3-c]pyrrol-1-yl]benzenecarbonitrile

> <PUBCHEM_IUPAC_TRADITIONAL_NAME>
4-[5-[3-[(4-methyl-5-pyrazin-2-yl-1,2,4-triazol-3-yl)thio]propyl]-2,3,3a,4,6,6a-hexahydropyrrolo[2,3-c]pyrrol-1-yl]benzonitrile

> <PUBCHEM_IUPAC_INCHI>
InChI=1S/C23H26N8S/c1-29-22(20-14-25-8-9-26-20)27-28-23(29)32-12-2-10-30-15-18-7-11-31(21(18)16-30)19-5-3-17(13-24)4-6-19/h3-6,8-9,14,18,21H,2,7,10-12,15-16H2,1H3

> <PUBCHEM_IUPAC_INCHIKEY>
ZKVBATRJUREUMS-UHFFFAOYSA-N

> <PUBCHEM_XLOGP3_AA>
2

> <PUBCHEM_EXACT_MASS>
446.20011404

> <PUBCHEM_MOLECULAR_FORMULA>
C23H26N8S

> <PUBCHEM_MOLECULAR_WEIGHT>
446.6

> <PUBCHEM_OPENEYE_CAN_SMILES>
CN1C(=NN=C1SCCCN2CC3CCN(C3C2)C4=CC=C(C=C4)C#N)C5=NC=CN=C5

> <PUBCHEM_OPENEYE_ISO_SMILES>
CN1C(=NN=C1SCCCN2CC3CCN(C3C2)C4=CC=C(C=C4)C#N)C5=NC=CN=C5

> <PUBCHEM_CACTVS_TPSA>
112

> <PUBCHEM_MONOISOTOPIC_WEIGHT>
446.20011404

> <PUBCHEM_TOTAL_CHARGE>
0

> <PUBCHEM_HEAVY_ATOM_COUNT>
32

> <PUBCHEM_ATOM_DEF_STEREO_COUNT>
0

> <PUBCHEM_ATOM_UDEF_STEREO_COUNT>
2

> <PUBCHEM_BOND_DEF_STEREO_COUNT>
0

> <PUBCHEM_BOND_UDEF_STEREO_COUNT>
0

> <PUBCHEM_ISOTOPIC_ATOM_COUNT>
0

> <PUBCHEM_COMPONENT_COUNT>
1

> <PUBCHEM_CACTVS_TAUTO_COUNT>
-1

> <PUBCHEM_COORDINATE_TYPE>
1
5
255

> <PUBCHEM_BONDANNOTATIONS>
10  13  3
11  14  3
17  19  8
17  20  8
19  22  8
20  23  8
22  24  8
23  24  8
29  30  8
31  32  8
4  25  8
4  27  8
5  25  8
5  6  8
6  27  8
8  29  8
8  31  8
9  30  8
9  32  8

$$$$
