127047900
  -OEChem-09292322372D

 60 63  0     0  0  0  0  0  0999 V2000
    8.4530   -1.8240    0.0000 S   0  0  0  0  0  0  0  0  0  0  0  0
    4.0981    2.7973    0.0000 F   0  0  0  0  0  0  0  0  0  0  0  0
    3.7320    1.4313    0.0000 F   0  0  0  0  0  0  0  0  0  0  0  0
    5.0981    1.0652    0.0000 F   0  0  0  0  0  0  0  0  0  0  0  0
    9.4035   -1.5133    0.0000 O   0  0  0  0  0  0  0  0  0  0  0  0
    7.5025   -2.1347    0.0000 O   0  0  0  0  0  0  0  0  0  0  0  0
    4.5981   -1.0687    0.0000 N   0  0  0  0  0  0  0  0  0  0  0  0
    2.8660   -2.0687    0.0000 N   0  0  0  0  0  0  0  0  0  0  0  0
    8.1424   -0.8735    0.0000 N   0  0  0  0  0  0  0  0  0  0  0  0
    6.3301   -1.0687    0.0000 N   0  0  0  0  0  0  0  0  0  0  0  0
    4.5981   -2.0687    0.0000 C   0  0  0  0  0  0  0  0  0  0  0  0
    3.7320   -0.5687    0.0000 C   0  0  0  0  0  0  0  0  0  0  0  0
    3.7320   -2.5687    0.0000 C   0  0  0  0  0  0  0  0  0  0  0  0
    2.8660   -1.0687    0.0000 C   0  0  0  0  0  0  0  0  0  0  0  0
    5.4641   -0.5687    0.0000 C   0  0  0  0  0  0  0  0  0  0  0  0
    7.1962   -0.5687    0.0000 C   0  0  0  0  0  0  0  0  0  0  0  0
    7.1962    0.4313    0.0000 C   0  0  0  0  0  0  0  0  0  0  0  0
    8.7637   -2.7745    0.0000 C   0  0  0  0  0  0  0  0  0  0  0  0
    6.3301    0.9313    0.0000 C   0  0  0  0  0  0  0  0  0  0  0  0
    5.4641    0.4313    0.0000 C   0  0  0  0  0  0  0  0  0  0  0  0
    9.7422   -2.9807    0.0000 C   0  0  0  0  0  0  0  0  0  0  0  0
    8.7260   -0.0687    0.0000 C   0  0  0  0  0  0  0  0  0  0  0  0
    8.1424    0.7360    0.0000 C   0  0  0  0  0  0  0  0  0  0  0  0
    2.0000   -2.5687    0.0000 C   0  0  0  0  0  0  0  0  0  0  0  0
    6.3301    1.9313    0.0000 C   0  0  0  0  0  0  0  0  0  0  0  0
   10.0529   -3.9313    0.0000 C   0  0  0  0  0  0  0  0  0  0  0  0
   10.4100   -2.2364    0.0000 C   0  0  0  0  0  0  0  0  0  0  0  0
    5.4641    2.4313    0.0000 C   0  0  0  0  0  0  0  0  0  0  0  0
    7.1962    2.4313    0.0000 C   0  0  0  0  0  0  0  0  0  0  0  0
    5.4641    3.4313    0.0000 C   0  0  0  0  0  0  0  0  0  0  0  0
    4.5981    1.9313    0.0000 C   0  0  0  0  0  0  0  0  0  0  0  0
    7.1962    3.4313    0.0000 C   0  0  0  0  0  0  0  0  0  0  0  0
    6.3301    3.9313    0.0000 C   0  0  0  0  0  0  0  0  0  0  0  0
    4.8101   -2.6514    0.0000 H   0  0  0  0  0  0  0  0  0  0  0  0
    5.2087   -1.9611    0.0000 H   0  0  0  0  0  0  0  0  0  0  0  0
    4.1306   -0.0938    0.0000 H   0  0  0  0  0  0  0  0  0  0  0  0
    3.3335   -0.0938    0.0000 H   0  0  0  0  0  0  0  0  0  0  0  0
    3.3335   -3.0437    0.0000 H   0  0  0  0  0  0  0  0  0  0  0  0
    4.1306   -3.0437    0.0000 H   0  0  0  0  0  0  0  0  0  0  0  0
    2.6540   -0.4861    0.0000 H   0  0  0  0  0  0  0  0  0  0  0  0
    2.2554   -1.1764    0.0000 H   0  0  0  0  0  0  0  0  0  0  0  0
    8.1499   -2.8619    0.0000 H   0  0  0  0  0  0  0  0  0  0  0  0
    8.7431   -3.3942    0.0000 H   0  0  0  0  0  0  0  0  0  0  0  0
    9.5496   -2.3914    0.0000 H   0  0  0  0  0  0  0  0  0  0  0  0
    4.9272    0.7413    0.0000 H   0  0  0  0  0  0  0  0  0  0  0  0
    9.3460   -0.0687    0.0000 H   0  0  0  0  0  0  0  0  0  0  0  0
    8.3350    1.3253    0.0000 H   0  0  0  0  0  0  0  0  0  0  0  0
    1.6900   -2.0318    0.0000 H   0  0  0  0  0  0  0  0  0  0  0  0
    1.4631   -2.8787    0.0000 H   0  0  0  0  0  0  0  0  0  0  0  0
    2.3100   -3.1057    0.0000 H   0  0  0  0  0  0  0  0  0  0  0  0
    9.4635   -4.1239    0.0000 H   0  0  0  0  0  0  0  0  0  0  0  0
   10.2455   -4.5206    0.0000 H   0  0  0  0  0  0  0  0  0  0  0  0
   10.6422   -3.7386    0.0000 H   0  0  0  0  0  0  0  0  0  0  0  0
   10.8715   -2.6505    0.0000 H   0  0  0  0  0  0  0  0  0  0  0  0
   10.8241   -1.7750    0.0000 H   0  0  0  0  0  0  0  0  0  0  0  0
    9.9486   -1.8224    0.0000 H   0  0  0  0  0  0  0  0  0  0  0  0
    7.7331    2.1213    0.0000 H   0  0  0  0  0  0  0  0  0  0  0  0
    4.9272    3.7413    0.0000 H   0  0  0  0  0  0  0  0  0  0  0  0
    7.7331    3.7413    0.0000 H   0  0  0  0  0  0  0  0  0  0  0  0
    6.3301    4.5513    0.0000 H   0  0  0  0  0  0  0  0  0  0  0  0
  1  5  2  0  0  0  0
  1  6  2  0  0  0  0
  1  9  1  0  0  0  0
  1 18  1  0  0  0  0
  2 31  1  0  0  0  0
  3 31  1  0  0  0  0
  4 31  1  0  0  0  0
  7 11  1  0  0  0  0
  7 12  1  0  0  0  0
  7 15  1  0  0  0  0
  8 13  1  0  0  0  0
  8 14  1  0  0  0  0
  8 24  1  0  0  0  0
  9 16  1  0  0  0  0
  9 22  1  0  0  0  0
 10 15  2  0  0  0  0
 10 16  1  0  0  0  0
 11 13  1  0  0  0  0
 11 34  1  0  0  0  0
 11 35  1  0  0  0  0
 12 14  1  0  0  0  0
 12 36  1  0  0  0  0
 12 37  1  0  0  0  0
 13 38  1  0  0  0  0
 13 39  1  0  0  0  0
 14 40  1  0  0  0  0
 14 41  1  0  0  0  0
 15 20  1  0  0  0  0
 16 17  2  0  0  0  0
 17 19  1  0  0  0  0
 17 23  1  0  0  0  0
 18 21  1  0  0  0  0
 18 42  1  0  0  0  0
 18 43  1  0  0  0  0
 19 20  2  0  0  0  0
 19 25  1  0  0  0  0
 20 45  1  0  0  0  0
 21 26  1  0  0  0  0
 21 27  1  0  0  0  0
 21 44  1  0  0  0  0
 22 23  2  0  0  0  0
 22 46  1  0  0  0  0
 23 47  1  0  0  0  0
 24 48  1  0  0  0  0
 24 49  1  0  0  0  0
 24 50  1  0  0  0  0
 25 28  1  0  0  0  0
 25 29  2  0  0  0  0
 26 51  1  0  0  0  0
 26 52  1  0  0  0  0
 26 53  1  0  0  0  0
 27 54  1  0  0  0  0
 27 55  1  0  0  0  0
 27 56  1  0  0  0  0
 28 30  2  0  0  0  0
 28 31  1  0  0  0  0
 29 32  1  0  0  0  0
 29 57  1  0  0  0  0
 30 33  1  0  0  0  0
 30 58  1  0  0  0  0
 32 33  2  0  0  0  0
 32 59  1  0  0  0  0
 33 60  1  0  0  0  0
M  END
> <PUBCHEM_COMPOUND_CID>
127047900

> <PUBCHEM_COMPOUND_CANONICALIZED>
1

> <PUBCHEM_CACTVS_COMPLEXITY>
765

> <PUBCHEM_CACTVS_HBOND_ACCEPTOR>
8

> <PUBCHEM_CACTVS_HBOND_DONOR>
0

> <PUBCHEM_CACTVS_ROTATABLE_BOND>
5

> <PUBCHEM_CACTVS_SUBSKEYS>
AAADceB7sYBAAAAAAAAAAAAAAAAAAWAAAAA8WIAAAAAAAFgB/AAAHQQAQAAADQDFWxS/sN8IEAKgAjJnZHDCgCkxAqAJ2CA4ZJiIaOLAmZGUIAhogALIyCcQgMAOgAAAAAAQAAAAAAAAACAAAAAAAAAAAA==

> <PUBCHEM_IUPAC_OPENEYE_NAME>
1-isobutylsulfonyl-6-(4-methylpiperazin-1-yl)-4-[2-(trifluoromethyl)phenyl]pyrrolo[2,3-b]pyridine

> <PUBCHEM_IUPAC_CAS_NAME>
6-(4-methyl-1-piperazinyl)-1-(2-methylpropylsulfonyl)-4-[2-(trifluoromethyl)phenyl]pyrrolo[2,3-b]pyridine

> <PUBCHEM_IUPAC_NAME_MARKUP>
6-(4-methylpiperazin-1-yl)-1-(2-methylpropylsulfonyl)-4-[2-(trifluoromethyl)phenyl]pyrrolo[2,3-b]pyridine

> <PUBCHEM_IUPAC_NAME>
6-(4-methylpiperazin-1-yl)-1-(2-methylpropylsulfonyl)-4-[2-(trifluoromethyl)phenyl]pyrrolo[2,3-b]pyridine

> <PUBCHEM_IUPAC_SYSTEMATIC_NAME>
6-(4-methylpiperazin-1-yl)-1-(2-methylpropylsulfonyl)-4-[2-(trifluoromethyl)phenyl]pyrrolo[2,3-b]pyridine

> <PUBCHEM_IUPAC_TRADITIONAL_NAME>
1-isobutylsulfonyl-6-(4-methylpiperazino)-4-[2-(trifluoromethyl)phenyl]pyrrolo[2,3-b]pyridine

> <PUBCHEM_IUPAC_INCHI>
InChI=1S/C23H27F3N4O2S/c1-16(2)15-33(31,32)30-9-8-18-19(17-6-4-5-7-20(17)23(24,25)26)14-21(27-22(18)30)29-12-10-28(3)11-13-29/h4-9,14,16H,10-13,15H2,1-3H3

> <PUBCHEM_IUPAC_INCHIKEY>
FTQFFUFTPXRJIA-UHFFFAOYSA-N

> <PUBCHEM_XLOGP3_AA>
5

> <PUBCHEM_EXACT_MASS>
480.18068178

> <PUBCHEM_MOLECULAR_FORMULA>
C23H27F3N4O2S

> <PUBCHEM_MOLECULAR_WEIGHT>
480.5

> <PUBCHEM_OPENEYE_CAN_SMILES>
CC(C)CS(=O)(=O)N1C=CC2=C1N=C(C=C2C3=CC=CC=C3C(F)(F)F)N4CCN(CC4)C

> <PUBCHEM_OPENEYE_ISO_SMILES>
CC(C)CS(=O)(=O)N1C=CC2=C1N=C(C=C2C3=CC=CC=C3C(F)(F)F)N4CCN(CC4)C

> <PUBCHEM_CACTVS_TPSA>
66.8

> <PUBCHEM_MONOISOTOPIC_WEIGHT>
480.18068178

> <PUBCHEM_TOTAL_CHARGE>
0

> <PUBCHEM_HEAVY_ATOM_COUNT>
33

> <PUBCHEM_ATOM_DEF_STEREO_COUNT>
0

> <PUBCHEM_ATOM_UDEF_STEREO_COUNT>
0

> <PUBCHEM_BOND_DEF_STEREO_COUNT>
0

> <PUBCHEM_BOND_UDEF_STEREO_COUNT>
0

> <PUBCHEM_ISOTOPIC_ATOM_COUNT>
0

> <PUBCHEM_COMPONENT_COUNT>
1

> <PUBCHEM_CACTVS_TAUTO_COUNT>
-1

> <PUBCHEM_COORDINATE_TYPE>
1
5
255

> <PUBCHEM_BONDANNOTATIONS>
10  15  8
10  16  8
15  20  8
16  17  8
17  19  8
17  23  8
19  20  8
22  23  8
25  28  8
25  29  8
28  30  8
29  32  8
30  33  8
32  33  8
9  16  8
9  22  8

$$$$
