10567430
  -OEChem-09292322102D

 44 47  0     0  0  0  0  0  0999 V2000
    8.4939   -0.9821    0.0000 N   0  0  0  0  0  0  0  0  0  0  0  0
    9.4939    0.7500    0.0000 N   0  0  0  0  0  0  0  0  0  0  0  0
    6.4103   -2.6528    0.0000 N   0  0  0  0  0  0  0  0  0  0  0  0
    2.0000   -3.3481    0.0000 N   0  0  0  0  0  0  0  0  0  0  0  0
    9.4939   -0.9821    0.0000 C   0  0  0  0  0  0  0  0  0  0  0  0
    7.9939   -0.1160    0.0000 C   0  0  0  0  0  0  0  0  0  0  0  0
    9.9939   -0.1160    0.0000 C   0  0  0  0  0  0  0  0  0  0  0  0
    8.4939    0.7500    0.0000 C   0  0  0  0  0  0  0  0  0  0  0  0
    7.9939   -1.8481    0.0000 C   0  0  0  0  0  0  0  0  0  0  0  0
    6.9939   -1.8481    0.0000 C   0  0  0  0  0  0  0  0  0  0  0  0
    9.9939    1.6160    0.0000 C   0  0  0  0  0  0  0  0  0  0  0  0
    6.4103   -1.0433    0.0000 C   0  0  0  0  0  0  0  0  0  0  0  0
    5.4641   -2.3481    0.0000 C   0  0  0  0  0  0  0  0  0  0  0  0
    5.4641   -1.3481    0.0000 C   0  0  0  0  0  0  0  0  0  0  0  0
    9.4939    2.4820    0.0000 C   0  0  0  0  0  0  0  0  0  0  0  0
   10.9939    1.6160    0.0000 C   0  0  0  0  0  0  0  0  0  0  0  0
    4.5981   -2.8481    0.0000 C   0  0  0  0  0  0  0  0  0  0  0  0
    4.5981   -0.8481    0.0000 C   0  0  0  0  0  0  0  0  0  0  0  0
    9.9939    3.3481    0.0000 C   0  0  0  0  0  0  0  0  0  0  0  0
   11.4939    2.4820    0.0000 C   0  0  0  0  0  0  0  0  0  0  0  0
    3.7320   -2.3481    0.0000 C   0  0  0  0  0  0  0  0  0  0  0  0
    3.7320   -1.3481    0.0000 C   0  0  0  0  0  0  0  0  0  0  0  0
   10.9939    3.3481    0.0000 C   0  0  0  0  0  0  0  0  0  0  0  0
    2.8660   -2.8481    0.0000 C   0  0  0  0  0  0  0  0  0  0  0  0
    9.3863   -1.5926    0.0000 H   0  0  0  0  0  0  0  0  0  0  0  0
   10.0765   -1.1941    0.0000 H   0  0  0  0  0  0  0  0  0  0  0  0
    7.5190    0.2825    0.0000 H   0  0  0  0  0  0  0  0  0  0  0  0
    7.5190   -0.5146    0.0000 H   0  0  0  0  0  0  0  0  0  0  0  0
   10.4689   -0.5146    0.0000 H   0  0  0  0  0  0  0  0  0  0  0  0
   10.4689    0.2825    0.0000 H   0  0  0  0  0  0  0  0  0  0  0  0
    8.6016    1.3606    0.0000 H   0  0  0  0  0  0  0  0  0  0  0  0
    7.9113    0.9621    0.0000 H   0  0  0  0  0  0  0  0  0  0  0  0
    7.8863   -2.4587    0.0000 H   0  0  0  0  0  0  0  0  0  0  0  0
    8.5765   -2.0601    0.0000 H   0  0  0  0  0  0  0  0  0  0  0  0
    6.6029   -3.2421    0.0000 H   0  0  0  0  0  0  0  0  0  0  0  0
    6.6029   -0.4540    0.0000 H   0  0  0  0  0  0  0  0  0  0  0  0
    8.8739    2.4820    0.0000 H   0  0  0  0  0  0  0  0  0  0  0  0
   11.3039    1.0791    0.0000 H   0  0  0  0  0  0  0  0  0  0  0  0
    4.5981   -3.4681    0.0000 H   0  0  0  0  0  0  0  0  0  0  0  0
    4.5981   -0.2281    0.0000 H   0  0  0  0  0  0  0  0  0  0  0  0
    9.6839    3.8850    0.0000 H   0  0  0  0  0  0  0  0  0  0  0  0
   12.1139    2.4820    0.0000 H   0  0  0  0  0  0  0  0  0  0  0  0
    3.1951   -1.0381    0.0000 H   0  0  0  0  0  0  0  0  0  0  0  0
   11.3039    3.8850    0.0000 H   0  0  0  0  0  0  0  0  0  0  0  0
  1  5  1  0  0  0  0
  1  6  1  0  0  0  0
  1  9  1  0  0  0  0
  2  7  1  0  0  0  0
  2  8  1  0  0  0  0
  2 11  1  0  0  0  0
  3 10  1  0  0  0  0
  3 13  1  0  0  0  0
  3 35  1  0  0  0  0
  4 24  3  0  0  0  0
  5  7  1  0  0  0  0
  5 25  1  0  0  0  0
  5 26  1  0  0  0  0
  6  8  1  0  0  0  0
  6 27  1  0  0  0  0
  6 28  1  0  0  0  0
  7 29  1  0  0  0  0
  7 30  1  0  0  0  0
  8 31  1  0  0  0  0
  8 32  1  0  0  0  0
  9 10  1  0  0  0  0
  9 33  1  0  0  0  0
  9 34  1  0  0  0  0
 10 12  2  0  0  0  0
 11 15  2  0  0  0  0
 11 16  1  0  0  0  0
 12 14  1  0  0  0  0
 12 36  1  0  0  0  0
 13 14  2  0  0  0  0
 13 17  1  0  0  0  0
 14 18  1  0  0  0  0
 15 19  1  0  0  0  0
 15 37  1  0  0  0  0
 16 20  2  0  0  0  0
 16 38  1  0  0  0  0
 17 21  2  0  0  0  0
 17 39  1  0  0  0  0
 18 22  2  0  0  0  0
 18 40  1  0  0  0  0
 19 23  2  0  0  0  0
 19 41  1  0  0  0  0
 20 23  1  0  0  0  0
 20 42  1  0  0  0  0
 21 22  1  0  0  0  0
 21 24  1  0  0  0  0
 22 43  1  0  0  0  0
 23 44  1  0  0  0  0
M  END
> <PUBCHEM_COMPOUND_CID>
10567430

> <PUBCHEM_COMPOUND_CANONICALIZED>
1

> <PUBCHEM_CACTVS_COMPLEXITY>
456

> <PUBCHEM_CACTVS_HBOND_ACCEPTOR>
3

> <PUBCHEM_CACTVS_HBOND_DONOR>
1

> <PUBCHEM_CACTVS_ROTATABLE_BOND>
3

> <PUBCHEM_CACTVS_SUBSKEYS>
AAADceB7gAAAAAAAAAAAAAAAAAAAAWAAAAA8YIAAAAAAAFgB9AAAHAAQAAAADAjBHgQwwPPJkACwByRiRACigCAhAiAImSA4ZJgI4OLAkZGUIAhgkADIyA8QgMAOQAAAQAACAACAAACAAAQAAAAAAAAAAA==

> <PUBCHEM_IUPAC_OPENEYE_NAME>
2-[(4-phenylpiperazin-1-yl)methyl]-1H-indole-6-carbonitrile

> <PUBCHEM_IUPAC_CAS_NAME>
2-[(4-phenyl-1-piperazinyl)methyl]-1H-indole-6-carbonitrile

> <PUBCHEM_IUPAC_NAME_MARKUP>
2-[(4-phenylpiperazin-1-yl)methyl]-1<I>H</I>-indole-6-carbonitrile

> <PUBCHEM_IUPAC_NAME>
2-[(4-phenylpiperazin-1-yl)methyl]-1H-indole-6-carbonitrile

> <PUBCHEM_IUPAC_SYSTEMATIC_NAME>
2-[(4-phenylpiperazin-1-yl)methyl]-1H-indole-6-carbonitrile

> <PUBCHEM_IUPAC_TRADITIONAL_NAME>
2-[(4-phenylpiperazino)methyl]-1H-indole-6-carbonitrile

> <PUBCHEM_IUPAC_INCHI>
InChI=1S/C20H20N4/c21-14-16-6-7-17-13-18(22-20(17)12-16)15-23-8-10-24(11-9-23)19-4-2-1-3-5-19/h1-7,12-13,22H,8-11,15H2

> <PUBCHEM_IUPAC_INCHIKEY>
MAVGNSNQMXBEHU-UHFFFAOYSA-N

> <PUBCHEM_XLOGP3_AA>
3.2

> <PUBCHEM_EXACT_MASS>
316.16879665

> <PUBCHEM_MOLECULAR_FORMULA>
C20H20N4

> <PUBCHEM_MOLECULAR_WEIGHT>
316.4

> <PUBCHEM_OPENEYE_CAN_SMILES>
C1CN(CCN1CC2=CC3=C(N2)C=C(C=C3)C#N)C4=CC=CC=C4

> <PUBCHEM_OPENEYE_ISO_SMILES>
C1CN(CCN1CC2=CC3=C(N2)C=C(C=C3)C#N)C4=CC=CC=C4

> <PUBCHEM_CACTVS_TPSA>
46.1

> <PUBCHEM_MONOISOTOPIC_WEIGHT>
316.16879665

> <PUBCHEM_TOTAL_CHARGE>
0

> <PUBCHEM_HEAVY_ATOM_COUNT>
24

> <PUBCHEM_ATOM_DEF_STEREO_COUNT>
0

> <PUBCHEM_ATOM_UDEF_STEREO_COUNT>
0

> <PUBCHEM_BOND_DEF_STEREO_COUNT>
0

> <PUBCHEM_BOND_UDEF_STEREO_COUNT>
0

> <PUBCHEM_ISOTOPIC_ATOM_COUNT>
0

> <PUBCHEM_COMPONENT_COUNT>
1

> <PUBCHEM_CACTVS_TAUTO_COUNT>
-1

> <PUBCHEM_COORDINATE_TYPE>
1
5
255

> <PUBCHEM_BONDANNOTATIONS>
10  12  8
11  15  8
11  16  8
12  14  8
13  14  8
13  17  8
14  18  8
15  19  8
16  20  8
17  21  8
18  22  8
19  23  8
20  23  8
21  22  8
3  10  8
3  13  8

$$$$
