60165801
  -OEChem-09292321592D

 67 71  0     1  0  0  0  0  0999 V2000
   14.6813    0.0547    0.0000 S   0  0  0  0  0  0  0  0  0  0  0  0
    5.9409   -2.7500    0.0000 O   0  0  0  0  0  0  0  0  0  0  0  0
   11.1370    0.2500    0.0000 N   0  0  3  0  0  0  0  0  0  0  0  0
    8.5390   -0.2500    0.0000 N   0  0  0  0  0  0  0  0  0  0  0  0
    6.8069   -1.2500    0.0000 N   0  0  0  0  0  0  0  0  0  0  0  0
   14.6813   -1.5547    0.0000 N   0  0  0  0  0  0  0  0  0  0  0  0
    4.1671   -1.6551    0.0000 N   0  0  0  0  0  0  0  0  0  0  0  0
   16.2650   -0.7500    0.0000 N   0  0  0  0  0  0  0  0  0  0  0  0
   12.0031   -0.2500    0.0000 C   0  0  3  0  0  0  0  0  0  0  0  0
   12.0031   -1.2500    0.0000 C   0  0  0  0  0  0  0  0  0  0  0  0
   12.8691    0.2500    0.0000 C   0  0  0  0  0  0  0  0  0  0  0  0
   10.2710   -0.2500    0.0000 C   0  0  0  0  0  0  0  0  0  0  0  0
    9.4050    0.2500    0.0000 C   0  0  0  0  0  0  0  0  0  0  0  0
   12.8691   -1.7500    0.0000 C   0  0  0  0  0  0  0  0  0  0  0  0
   11.1370    1.2500    0.0000 C   0  0  0  0  0  0  0  0  0  0  0  0
   13.7351   -0.2500    0.0000 C   0  0  0  0  0  0  0  0  0  0  0  0
    7.6730    0.2500    0.0000 C   0  0  0  0  0  0  0  0  0  0  0  0
    8.5390   -1.2500    0.0000 C   0  0  0  0  0  0  0  0  0  0  0  0
   13.7351   -1.2500    0.0000 C   0  0  0  0  0  0  0  0  0  0  0  0
    6.8069   -0.2500    0.0000 C   0  0  0  0  0  0  0  0  0  0  0  0
    7.6730   -1.7500    0.0000 C   0  0  0  0  0  0  0  0  0  0  0  0
   10.2710    1.7500    0.0000 C   0  0  0  0  0  0  0  0  0  0  0  0
    5.9409   -1.7500    0.0000 C   0  0  0  0  0  0  0  0  0  0  0  0
   15.2650   -0.7500    0.0000 C   0  0  0  0  0  0  0  0  0  0  0  0
   10.2710    2.7500    0.0000 C   0  0  0  0  0  0  0  0  0  0  0  0
    5.0749   -1.2500    0.0000 C   0  0  0  0  0  0  0  0  0  0  0  0
    4.9718   -0.2613    0.0000 C   0  0  0  0  0  0  0  0  0  0  0  0
    3.5000   -0.9181    0.0000 C   0  0  0  0  0  0  0  0  0  0  0  0
    4.0000   -0.0521    0.0000 C   0  0  0  0  0  0  0  0  0  0  0  0
    2.5000   -0.9181    0.0000 C   0  0  0  0  0  0  0  0  0  0  0  0
    3.5000    0.8140    0.0000 C   0  0  0  0  0  0  0  0  0  0  0  0
    2.0000   -0.0521    0.0000 C   0  0  0  0  0  0  0  0  0  0  0  0
    2.5000    0.8140    0.0000 C   0  0  0  0  0  0  0  0  0  0  0  0
   11.4661   -0.5600    0.0000 H   0  0  0  0  0  0  0  0  0  0  0  0
   11.3925   -1.1423    0.0000 H   0  0  0  0  0  0  0  0  0  0  0  0
   11.7910   -1.8326    0.0000 H   0  0  0  0  0  0  0  0  0  0  0  0
   13.2676    0.7249    0.0000 H   0  0  0  0  0  0  0  0  0  0  0  0
   12.4706    0.7249    0.0000 H   0  0  0  0  0  0  0  0  0  0  0  0
    9.8725   -0.7249    0.0000 H   0  0  0  0  0  0  0  0  0  0  0  0
   10.6696   -0.7249    0.0000 H   0  0  0  0  0  0  0  0  0  0  0  0
    9.8035    0.7249    0.0000 H   0  0  0  0  0  0  0  0  0  0  0  0
    9.0065    0.7249    0.0000 H   0  0  0  0  0  0  0  0  0  0  0  0
   12.4706   -2.2250    0.0000 H   0  0  0  0  0  0  0  0  0  0  0  0
   13.2676   -2.2250    0.0000 H   0  0  0  0  0  0  0  0  0  0  0  0
   11.7476    1.1423    0.0000 H   0  0  0  0  0  0  0  0  0  0  0  0
   11.3491    1.8326    0.0000 H   0  0  0  0  0  0  0  0  0  0  0  0
    8.0715    0.7249    0.0000 H   0  0  0  0  0  0  0  0  0  0  0  0
    7.2744    0.7249    0.0000 H   0  0  0  0  0  0  0  0  0  0  0  0
    8.7510   -1.8326    0.0000 H   0  0  0  0  0  0  0  0  0  0  0  0
    9.1496   -1.1423    0.0000 H   0  0  0  0  0  0  0  0  0  0  0  0
    6.5949    0.3326    0.0000 H   0  0  0  0  0  0  0  0  0  0  0  0
    6.1963   -0.3577    0.0000 H   0  0  0  0  0  0  0  0  0  0  0  0
    7.2744   -2.2250    0.0000 H   0  0  0  0  0  0  0  0  0  0  0  0
    8.0715   -2.2250    0.0000 H   0  0  0  0  0  0  0  0  0  0  0  0
    9.6604    1.8577    0.0000 H   0  0  0  0  0  0  0  0  0  0  0  0
   10.0590    1.1674    0.0000 H   0  0  0  0  0  0  0  0  0  0  0  0
   10.8910    2.7500    0.0000 H   0  0  0  0  0  0  0  0  0  0  0  0
   10.2710    3.3700    0.0000 H   0  0  0  0  0  0  0  0  0  0  0  0
    9.6510    2.7500    0.0000 H   0  0  0  0  0  0  0  0  0  0  0  0
    4.0392   -2.2618    0.0000 H   0  0  0  0  0  0  0  0  0  0  0  0
    5.4333    0.1528    0.0000 H   0  0  0  0  0  0  0  0  0  0  0  0
   16.5750   -1.2869    0.0000 H   0  0  0  0  0  0  0  0  0  0  0  0
   16.5750   -0.2131    0.0000 H   0  0  0  0  0  0  0  0  0  0  0  0
    2.1900   -1.4550    0.0000 H   0  0  0  0  0  0  0  0  0  0  0  0
    3.8100    1.3509    0.0000 H   0  0  0  0  0  0  0  0  0  0  0  0
    1.3800   -0.0521    0.0000 H   0  0  0  0  0  0  0  0  0  0  0  0
    2.1900    1.3509    0.0000 H   0  0  0  0  0  0  0  0  0  0  0  0
  1 16  1  0  0  0  0
  1 24  1  0  0  0  0
  2 23  2  0  0  0  0
  3  9  1  0  0  0  0
  3 12  1  0  0  0  0
  3 15  1  0  0  0  0
  4 13  1  0  0  0  0
  4 17  1  0  0  0  0
  4 18  1  0  0  0  0
  5 20  1  0  0  0  0
  5 21  1  0  0  0  0
  5 23  1  0  0  0  0
  6 19  1  0  0  0  0
  6 24  2  0  0  0  0
  7 26  1  0  0  0  0
  7 28  1  0  0  0  0
  7 60  1  0  0  0  0
  8 24  1  0  0  0  0
  8 62  1  0  0  0  0
  8 63  1  0  0  0  0
  9 10  1  0  0  0  0
  9 11  1  0  0  0  0
  9 34  1  0  0  0  0
 10 14  1  0  0  0  0
 10 35  1  0  0  0  0
 10 36  1  0  0  0  0
 11 16  1  0  0  0  0
 11 37  1  0  0  0  0
 11 38  1  0  0  0  0
 12 13  1  0  0  0  0
 12 39  1  0  0  0  0
 12 40  1  0  0  0  0
 13 41  1  0  0  0  0
 13 42  1  0  0  0  0
 14 19  1  0  0  0  0
 14 43  1  0  0  0  0
 14 44  1  0  0  0  0
 15 22  1  0  0  0  0
 15 45  1  0  0  0  0
 15 46  1  0  0  0  0
 16 19  2  0  0  0  0
 17 20  1  0  0  0  0
 17 47  1  0  0  0  0
 17 48  1  0  0  0  0
 18 21  1  0  0  0  0
 18 49  1  0  0  0  0
 18 50  1  0  0  0  0
 20 51  1  0  0  0  0
 20 52  1  0  0  0  0
 21 53  1  0  0  0  0
 21 54  1  0  0  0  0
 22 25  1  0  0  0  0
 22 55  1  0  0  0  0
 22 56  1  0  0  0  0
 23 26  1  0  0  0  0
 25 57  1  0  0  0  0
 25 58  1  0  0  0  0
 25 59  1  0  0  0  0
 26 27  2  0  0  0  0
 27 29  1  0  0  0  0
 27 61  1  0  0  0  0
 28 29  1  0  0  0  0
 28 30  2  0  0  0  0
 29 31  2  0  0  0  0
 30 32  1  0  0  0  0
 30 64  1  0  0  0  0
 31 33  1  0  0  0  0
 31 65  1  0  0  0  0
 32 33  2  0  0  0  0
 32 66  1  0  0  0  0
 33 67  1  0  0  0  0
M  END
> <PUBCHEM_COMPOUND_CID>
60165801

> <PUBCHEM_COMPOUND_CANONICALIZED>
1

> <PUBCHEM_CACTVS_COMPLEXITY>
659

> <PUBCHEM_CACTVS_HBOND_ACCEPTOR>
6

> <PUBCHEM_CACTVS_HBOND_DONOR>
2

> <PUBCHEM_CACTVS_ROTATABLE_BOND>
7

> <PUBCHEM_CACTVS_SUBSKEYS>
AAADcfB7oABAAAAAAAAAAAAAAAAAAWLAAAA8YIAAAAAAAFgB/AAAHgQQAAAADCjB3gQz0fPJkAisAyVydACC8KlnCjkImTW4ZNiIYPLglbGUIQhglgLIyacYiYCeAAAAAAACAAAAAQAAQAQCAAAAAAAAAA==

> <PUBCHEM_IUPAC_OPENEYE_NAME>
[4-[2-[(2-amino-4,5,6,7-tetrahydro-1,3-benzothiazol-6-yl)-propyl-amino]ethyl]piperazin-1-yl]-(1H-indol-2-yl)methanone

> <PUBCHEM_IUPAC_CAS_NAME>
[4-[2-[(2-amino-4,5,6,7-tetrahydro-1,3-benzothiazol-6-yl)-propylamino]ethyl]-1-piperazinyl]-(1H-indol-2-yl)methanone

> <PUBCHEM_IUPAC_NAME_MARKUP>
[4-[2-[(2-amino-4,5,6,7-tetrahydro-1,3-benzothiazol-6-yl)-propylamino]ethyl]piperazin-1-yl]-(1<I>H</I>-indol-2-yl)methanone

> <PUBCHEM_IUPAC_NAME>
[4-[2-[(2-amino-4,5,6,7-tetrahydro-1,3-benzothiazol-6-yl)-propylamino]ethyl]piperazin-1-yl]-(1H-indol-2-yl)methanone

> <PUBCHEM_IUPAC_SYSTEMATIC_NAME>
[4-[2-[(2-azanyl-4,5,6,7-tetrahydro-1,3-benzothiazol-6-yl)-propyl-amino]ethyl]piperazin-1-yl]-(1H-indol-2-yl)methanone

> <PUBCHEM_IUPAC_TRADITIONAL_NAME>
[4-[2-[(2-amino-4,5,6,7-tetrahydro-1,3-benzothiazol-6-yl)-propyl-amino]ethyl]piperazino]-(1H-indol-2-yl)methanone

> <PUBCHEM_IUPAC_INCHI>
InChI=1S/C25H34N6OS/c1-2-9-30(19-7-8-21-23(17-19)33-25(26)28-21)13-10-29-11-14-31(15-12-29)24(32)22-16-18-5-3-4-6-20(18)27-22/h3-6,16,19,27H,2,7-15,17H2,1H3,(H2,26,28)

> <PUBCHEM_IUPAC_INCHIKEY>
CPWJJWMVFFZCGJ-UHFFFAOYSA-N

> <PUBCHEM_XLOGP3_AA>
3.8

> <PUBCHEM_EXACT_MASS>
466.25148090

> <PUBCHEM_MOLECULAR_FORMULA>
C25H34N6OS

> <PUBCHEM_MOLECULAR_WEIGHT>
466.6

> <PUBCHEM_OPENEYE_CAN_SMILES>
CCCN(CCN1CCN(CC1)C(=O)C2=CC3=CC=CC=C3N2)C4CCC5=C(C4)SC(=N5)N

> <PUBCHEM_OPENEYE_ISO_SMILES>
CCCN(CCN1CCN(CC1)C(=O)C2=CC3=CC=CC=C3N2)C4CCC5=C(C4)SC(=N5)N

> <PUBCHEM_CACTVS_TPSA>
110

> <PUBCHEM_MONOISOTOPIC_WEIGHT>
466.25148090

> <PUBCHEM_TOTAL_CHARGE>
0

> <PUBCHEM_HEAVY_ATOM_COUNT>
33

> <PUBCHEM_ATOM_DEF_STEREO_COUNT>
0

> <PUBCHEM_ATOM_UDEF_STEREO_COUNT>
1

> <PUBCHEM_BOND_DEF_STEREO_COUNT>
0

> <PUBCHEM_BOND_UDEF_STEREO_COUNT>
0

> <PUBCHEM_ISOTOPIC_ATOM_COUNT>
0

> <PUBCHEM_COMPONENT_COUNT>
1

> <PUBCHEM_CACTVS_TAUTO_COUNT>
-1

> <PUBCHEM_COORDINATE_TYPE>
1
5
255

> <PUBCHEM_BONDANNOTATIONS>
1  16  8
1  24  8
16  19  8
26  27  8
27  29  8
28  29  8
28  30  8
29  31  8
9  3  3
30  32  8
31  33  8
32  33  8
6  19  8
6  24  8
7  26  8
7  28  8

$$$$
