9842124
  -OEChem-09292322102D

 54 58  0     1  0  0  0  0  0999 V2000
    4.6318    0.6241    0.0000 N   0  0  3  0  0  0  0  0  0  0  0  0
    4.6783   -3.6307    0.0000 N   0  0  0  0  0  0  0  0  0  0  0  0
    4.9889   -1.0707    0.0000 C   0  0  3  0  0  0  0  0  0  0  0  0
    5.9674   -0.8645    0.0000 C   0  0  0  0  0  0  0  0  0  0  0  0
    4.3211   -0.3264    0.0000 C   0  0  0  0  0  0  0  0  0  0  0  0
    6.2781    0.0861    0.0000 C   0  0  0  0  0  0  0  0  0  0  0  0
    5.6103    0.8304    0.0000 C   0  0  0  0  0  0  0  0  0  0  0  0
    4.6783   -2.0212    0.0000 C   0  0  0  0  0  0  0  0  0  0  0  0
    3.7320   -2.3259    0.0000 C   0  0  0  0  0  0  0  0  0  0  0  0
    3.9639    1.3684    0.0000 C   0  0  0  0  0  0  0  0  0  0  0  0
    5.2619   -2.8259    0.0000 C   0  0  0  0  0  0  0  0  0  0  0  0
    3.7320   -3.3259    0.0000 C   0  0  0  0  0  0  0  0  0  0  0  0
    4.2746    2.3190    0.0000 C   0  0  0  0  0  0  0  0  0  0  0  0
    6.2619   -2.8259    0.0000 C   0  0  0  0  0  0  0  0  0  0  0  0
    2.8660   -1.8259    0.0000 C   0  0  0  0  0  0  0  0  0  0  0  0
    2.8660   -3.8259    0.0000 C   0  0  0  0  0  0  0  0  0  0  0  0
    2.0000   -2.3259    0.0000 C   0  0  0  0  0  0  0  0  0  0  0  0
    2.0000   -3.3259    0.0000 C   0  0  0  0  0  0  0  0  0  0  0  0
    6.7619   -3.6920    0.0000 C   0  0  0  0  0  0  0  0  0  0  0  0
    6.7619   -1.9599    0.0000 C   0  0  0  0  0  0  0  0  0  0  0  0
    3.6067    3.0633    0.0000 C   0  0  0  0  0  0  0  0  0  0  0  0
    5.2531    2.5252    0.0000 C   0  0  0  0  0  0  0  0  0  0  0  0
    7.7619   -3.6920    0.0000 C   0  0  0  0  0  0  0  0  0  0  0  0
    7.7619   -1.9599    0.0000 C   0  0  0  0  0  0  0  0  0  0  0  0
    3.9174    4.0138    0.0000 C   0  0  0  0  0  0  0  0  0  0  0  0
    5.5637    3.4757    0.0000 C   0  0  0  0  0  0  0  0  0  0  0  0
    8.2619   -2.8259    0.0000 C   0  0  0  0  0  0  0  0  0  0  0  0
    4.8959    4.2200    0.0000 C   0  0  0  0  0  0  0  0  0  0  0  0
    5.4030   -1.5322    0.0000 H   0  0  0  0  0  0  0  0  0  0  0  0
    5.9880   -1.4841    0.0000 H   0  0  0  0  0  0  0  0  0  0  0  0
    6.5812   -0.9518    0.0000 H   0  0  0  0  0  0  0  0  0  0  0  0
    3.7742   -0.0344    0.0000 H   0  0  0  0  0  0  0  0  0  0  0  0
    3.9385   -0.8143    0.0000 H   0  0  0  0  0  0  0  0  0  0  0  0
    6.8250   -0.2060    0.0000 H   0  0  0  0  0  0  0  0  0  0  0  0
    6.6607    0.5740    0.0000 H   0  0  0  0  0  0  0  0  0  0  0  0
    6.1366    1.1580    0.0000 H   0  0  0  0  0  0  0  0  0  0  0  0
    5.3790    1.4056    0.0000 H   0  0  0  0  0  0  0  0  0  0  0  0
    3.4170    1.6604    0.0000 H   0  0  0  0  0  0  0  0  0  0  0  0
    3.5814    0.8805    0.0000 H   0  0  0  0  0  0  0  0  0  0  0  0
    4.8709   -4.2200    0.0000 H   0  0  0  0  0  0  0  0  0  0  0  0
    2.8660   -1.2059    0.0000 H   0  0  0  0  0  0  0  0  0  0  0  0
    2.8660   -4.4459    0.0000 H   0  0  0  0  0  0  0  0  0  0  0  0
    1.4631   -2.0159    0.0000 H   0  0  0  0  0  0  0  0  0  0  0  0
    1.4631   -3.6359    0.0000 H   0  0  0  0  0  0  0  0  0  0  0  0
    6.4519   -4.2289    0.0000 H   0  0  0  0  0  0  0  0  0  0  0  0
    6.4519   -1.4230    0.0000 H   0  0  0  0  0  0  0  0  0  0  0  0
    3.0000    2.9354    0.0000 H   0  0  0  0  0  0  0  0  0  0  0  0
    5.6671    2.0637    0.0000 H   0  0  0  0  0  0  0  0  0  0  0  0
    8.0719   -4.2289    0.0000 H   0  0  0  0  0  0  0  0  0  0  0  0
    8.0719   -1.4230    0.0000 H   0  0  0  0  0  0  0  0  0  0  0  0
    3.5033    4.4752    0.0000 H   0  0  0  0  0  0  0  0  0  0  0  0
    6.1704    3.6036    0.0000 H   0  0  0  0  0  0  0  0  0  0  0  0
    8.8819   -2.8259    0.0000 H   0  0  0  0  0  0  0  0  0  0  0  0
    5.0885    4.8093    0.0000 H   0  0  0  0  0  0  0  0  0  0  0  0
  1  5  1  0  0  0  0
  1  7  1  0  0  0  0
  1 10  1  0  0  0  0
  2 11  1  0  0  0  0
  2 12  1  0  0  0  0
  2 40  1  0  0  0  0
  3  4  1  0  0  0  0
  3  5  1  0  0  0  0
  3  8  1  0  0  0  0
  3 29  1  0  0  0  0
  4  6  1  0  0  0  0
  4 30  1  0  0  0  0
  4 31  1  0  0  0  0
  5 32  1  0  0  0  0
  5 33  1  0  0  0  0
  6  7  1  0  0  0  0
  6 34  1  0  0  0  0
  6 35  1  0  0  0  0
  7 36  1  0  0  0  0
  7 37  1  0  0  0  0
  8  9  1  0  0  0  0
  8 11  2  0  0  0  0
  9 12  1  0  0  0  0
  9 15  2  0  0  0  0
 10 13  1  0  0  0  0
 10 38  1  0  0  0  0
 10 39  1  0  0  0  0
 11 14  1  0  0  0  0
 12 16  2  0  0  0  0
 13 21  2  0  0  0  0
 13 22  1  0  0  0  0
 14 19  2  0  0  0  0
 14 20  1  0  0  0  0
 15 17  1  0  0  0  0
 15 41  1  0  0  0  0
 16 18  1  0  0  0  0
 16 42  1  0  0  0  0
 17 18  2  0  0  0  0
 17 43  1  0  0  0  0
 18 44  1  0  0  0  0
 19 23  1  0  0  0  0
 19 45  1  0  0  0  0
 20 24  2  0  0  0  0
 20 46  1  0  0  0  0
 21 25  1  0  0  0  0
 21 47  1  0  0  0  0
 22 26  2  0  0  0  0
 22 48  1  0  0  0  0
 23 27  2  0  0  0  0
 23 49  1  0  0  0  0
 24 27  1  0  0  0  0
 24 50  1  0  0  0  0
 25 28  2  0  0  0  0
 25 51  1  0  0  0  0
 26 28  1  0  0  0  0
 26 52  1  0  0  0  0
 27 53  1  0  0  0  0
 28 54  1  0  0  0  0
M  END
> <PUBCHEM_COMPOUND_CID>
9842124

> <PUBCHEM_COMPOUND_CANONICALIZED>
1

> <PUBCHEM_CACTVS_COMPLEXITY>
479

> <PUBCHEM_CACTVS_HBOND_ACCEPTOR>
1

> <PUBCHEM_CACTVS_HBOND_DONOR>
1

> <PUBCHEM_CACTVS_ROTATABLE_BOND>
4

> <PUBCHEM_CACTVS_SUBSKEYS>
AAADceB7AAAAAAAAAAAAAAAAAAAAAWAAAAA8YMEAAAAAAFgB9AAAHAAQAAAADQjBHgQwwPPJkACgAyRiRACCgCAhAiAImSA4ZJgIIOLAkZGEIAhgkADIyAcQgMAOgAAAAAACAAAAAAAAAAQAAAAAAAAAAA==

> <PUBCHEM_IUPAC_OPENEYE_NAME>
3-(1-benzyl-3-piperidyl)-2-phenyl-1H-indole

> <PUBCHEM_IUPAC_CAS_NAME>
2-phenyl-3-[1-(phenylmethyl)-3-piperidinyl]-1H-indole

> <PUBCHEM_IUPAC_NAME_MARKUP>
3-(1-benzylpiperidin-3-yl)-2-phenyl-1<I>H</I>-indole

> <PUBCHEM_IUPAC_NAME>
3-(1-benzylpiperidin-3-yl)-2-phenyl-1H-indole

> <PUBCHEM_IUPAC_SYSTEMATIC_NAME>
2-phenyl-3-[1-(phenylmethyl)piperidin-3-yl]-1H-indole

> <PUBCHEM_IUPAC_TRADITIONAL_NAME>
3-(1-benzyl-3-piperidyl)-2-phenyl-1H-indole

> <PUBCHEM_IUPAC_INCHI>
InChI=1S/C26H26N2/c1-3-10-20(11-4-1)18-28-17-9-14-22(19-28)25-23-15-7-8-16-24(23)27-26(25)21-12-5-2-6-13-21/h1-8,10-13,15-16,22,27H,9,14,17-19H2

> <PUBCHEM_IUPAC_INCHIKEY>
RXGPCIHYSMKIRI-UHFFFAOYSA-N

> <PUBCHEM_XLOGP3_AA>
5.8

> <PUBCHEM_EXACT_MASS>
366.209598838

> <PUBCHEM_MOLECULAR_FORMULA>
C26H26N2

> <PUBCHEM_MOLECULAR_WEIGHT>
366.5

> <PUBCHEM_OPENEYE_CAN_SMILES>
C1CC(CN(C1)CC2=CC=CC=C2)C3=C(NC4=CC=CC=C43)C5=CC=CC=C5

> <PUBCHEM_OPENEYE_ISO_SMILES>
C1CC(CN(C1)CC2=CC=CC=C2)C3=C(NC4=CC=CC=C43)C5=CC=CC=C5

> <PUBCHEM_CACTVS_TPSA>
19

> <PUBCHEM_MONOISOTOPIC_WEIGHT>
366.209598838

> <PUBCHEM_TOTAL_CHARGE>
0

> <PUBCHEM_HEAVY_ATOM_COUNT>
28

> <PUBCHEM_ATOM_DEF_STEREO_COUNT>
0

> <PUBCHEM_ATOM_UDEF_STEREO_COUNT>
1

> <PUBCHEM_BOND_DEF_STEREO_COUNT>
0

> <PUBCHEM_BOND_UDEF_STEREO_COUNT>
0

> <PUBCHEM_ISOTOPIC_ATOM_COUNT>
0

> <PUBCHEM_COMPONENT_COUNT>
1

> <PUBCHEM_CACTVS_TAUTO_COUNT>
-1

> <PUBCHEM_COORDINATE_TYPE>
1
5
255

> <PUBCHEM_BONDANNOTATIONS>
12  16  8
13  21  8
13  22  8
14  19  8
14  20  8
15  17  8
16  18  8
17  18  8
19  23  8
2  11  8
2  12  8
20  24  8
21  25  8
22  26  8
23  27  8
24  27  8
25  28  8
26  28  8
3  8  3
8  11  8
8  9  8
9  12  8
9  15  8

$$$$
