118736407
  -OEChem-09292322092D

117123  0     1  0  0  0  0  0999 V2000
    9.9622    5.1331    0.0000 O   0  0  0  0  0  0  0  0  0  0  0  0
   18.3373   -3.6906    0.0000 O   0  0  0  0  0  0  0  0  0  0  0  0
   18.6256   -5.0218    0.0000 O   0  0  0  0  0  0  0  0  0  0  0  0
   16.4203   -0.6369    0.0000 O   0  0  0  0  0  0  0  0  0  0  0  0
   12.8172   -0.7702    0.0000 O   0  0  0  0  0  0  0  0  0  0  0  0
    6.9654    5.7805    0.0000 N   0  0  3  0  0  0  0  0  0  0  0  0
    4.5124    4.6630    0.0000 N   0  0  0  0  0  0  0  0  0  0  0  0
    9.6086    3.4375    0.0000 N   0  0  0  0  0  0  0  0  0  0  0  0
   16.6921   -4.2322    0.0000 N   0  0  0  0  0  0  0  0  0  0  0  0
   14.3166   -5.2583    0.0000 N   0  0  0  0  0  0  0  0  0  0  0  0
   16.0667   -2.3325    0.0000 N   0  0  0  0  0  0  0  0  0  0  0  0
   17.9272   -6.6069    0.0000 N   0  0  0  0  0  0  0  0  0  0  0  0
   14.4624   -0.2286    0.0000 N   0  0  0  0  0  0  0  0  0  0  0  0
   20.0864   -2.7968    0.0000 N   0  0  0  0  0  0  0  0  0  0  0  0
    6.2962    5.0373    0.0000 C   0  0  2  0  0  0  0  0  0  0  0  0
    6.6028    4.0418    0.0000 C   0  0  0  0  0  0  0  0  0  0  0  0
    8.3170    4.5915    0.0000 C   0  0  2  0  0  0  0  0  0  0  0  0
    7.9875    5.5796    0.0000 C   0  0  0  0  0  0  0  0  0  0  0  0
    7.6200    3.8174    0.0000 C   0  0  0  0  0  0  0  0  0  0  0  0
    5.3181    5.2452    0.0000 C   0  0  0  0  0  0  0  0  0  0  0  0
    6.6564    6.7315    0.0000 C   0  0  0  0  0  0  0  0  0  0  0  0
    5.0091    6.1963    0.0000 C   0  0  0  0  0  0  0  0  0  0  0  0
    5.6782    6.9394    0.0000 C   0  0  0  0  0  0  0  0  0  0  0  0
    4.0150    6.1937    0.0000 C   0  0  0  0  0  0  0  0  0  0  0  0
    9.2959    4.3874    0.0000 C   0  0  0  0  0  0  0  0  0  0  0  0
    3.7086    5.2480    0.0000 C   0  0  0  0  0  0  0  0  0  0  0  0
    3.3334    6.9732    0.0000 C   0  0  0  0  0  0  0  0  0  0  0  0
    2.6994    5.0163    0.0000 C   0  0  0  0  0  0  0  0  0  0  0  0
   16.9037   -5.2095    0.0000 C   0  0  1  0  0  0  0  0  0  0  0  0
   15.2939   -5.0466    0.0000 C   0  0  1  0  0  0  0  0  0  0  0  0
    2.3191    6.7649    0.0000 C   0  0  0  0  0  0  0  0  0  0  0  0
   16.0396   -5.7129    0.0000 C   0  0  0  0  0  0  0  0  0  0  0  0
   10.5875    3.2334    0.0000 C   0  0  0  0  0  0  0  0  0  0  0  0
    2.0000    5.7798    0.0000 C   0  0  0  0  0  0  0  0  0  0  0  0
   15.6971   -4.1315    0.0000 C   0  0  0  0  0  0  0  0  0  0  0  0
   10.9002    2.2835    0.0000 C   0  0  0  0  0  0  0  0  0  0  0  0
   17.3583   -3.4865    0.0000 C   0  0  0  0  0  0  0  0  0  0  0  0
   17.0456   -2.5366    0.0000 C   0  0  2  0  0  0  0  0  0  0  0  0
   17.8188   -5.6128    0.0000 C   0  0  0  0  0  0  0  0  0  0  0  0
   11.8792    2.0794    0.0000 C   0  0  0  0  0  0  0  0  0  0  0  0
   17.7119   -1.7909    0.0000 C   0  0  0  0  0  0  0  0  0  0  0  0
   12.1918    1.1295    0.0000 C   0  0  0  0  0  0  0  0  0  0  0  0
   18.6908   -1.9950    0.0000 C   0  0  0  0  0  0  0  0  0  0  0  0
   14.7751   -1.1785    0.0000 C   0  0  2  0  0  0  0  0  0  0  0  0
   15.7540   -1.3826    0.0000 C   0  0  0  0  0  0  0  0  0  0  0  0
   13.1708    0.9254    0.0000 C   0  0  0  0  0  0  0  0  0  0  0  0
   19.4264   -1.3264    0.0000 C   0  0  0  0  0  0  0  0  0  0  0  0
   14.1088   -1.9242    0.0000 C   0  0  0  0  0  0  0  0  0  0  0  0
   19.0979   -2.9020    0.0000 C   0  0  0  0  0  0  0  0  0  0  0  0
   13.4835   -0.0245    0.0000 C   0  0  0  0  0  0  0  0  0  0  0  0
   20.2935   -1.8246    0.0000 C   0  0  0  0  0  0  0  0  0  0  0  0
   13.1299   -1.7201    0.0000 C   0  0  0  0  0  0  0  0  0  0  0  0
   19.4243   -0.3264    0.0000 C   0  0  0  0  0  0  0  0  0  0  0  0
   12.4636   -2.4658    0.0000 C   0  0  0  0  0  0  0  0  0  0  0  0
   21.1585   -1.3227    0.0000 C   0  0  0  0  0  0  0  0  0  0  0  0
   20.2893    0.1754    0.0000 C   0  0  0  0  0  0  0  0  0  0  0  0
   21.1564   -0.3227    0.0000 C   0  0  0  0  0  0  0  0  0  0  0  0
   11.4847   -2.2616    0.0000 C   0  0  0  0  0  0  0  0  0  0  0  0
    5.7226    4.4101    0.0000 H   0  0  0  0  0  0  0  0  0  0  0  0
    5.9878    3.9634    0.0000 H   0  0  0  0  0  0  0  0  0  0  0  0
    6.5748    3.4225    0.0000 H   0  0  0  0  0  0  0  0  0  0  0  0
    8.5097    4.0022    0.0000 H   0  0  0  0  0  0  0  0  0  0  0  0
    8.6005    5.6722    0.0000 H   0  0  0  0  0  0  0  0  0  0  0  0
    8.0011    6.1995    0.0000 H   0  0  0  0  0  0  0  0  0  0  0  0
    7.3848    3.2438    0.0000 H   0  0  0  0  0  0  0  0  0  0  0  0
    8.1449    3.4875    0.0000 H   0  0  0  0  0  0  0  0  0  0  0  0
    7.2703    6.8178    0.0000 H   0  0  0  0  0  0  0  0  0  0  0  0
    6.6780    7.3512    0.0000 H   0  0  0  0  0  0  0  0  0  0  0  0
    5.9105    7.5143    0.0000 H   0  0  0  0  0  0  0  0  0  0  0  0
    5.1524    7.2680    0.0000 H   0  0  0  0  0  0  0  0  0  0  0  0
    4.5113    4.0430    0.0000 H   0  0  0  0  0  0  0  0  0  0  0  0
    3.5313    7.5608    0.0000 H   0  0  0  0  0  0  0  0  0  0  0  0
    9.1955    2.9752    0.0000 H   0  0  0  0  0  0  0  0  0  0  0  0
    2.5152    4.4243    0.0000 H   0  0  0  0  0  0  0  0  0  0  0  0
   17.3841   -4.8175    0.0000 H   0  0  0  0  0  0  0  0  0  0  0  0
   14.9019   -4.5663    0.0000 H   0  0  0  0  0  0  0  0  0  0  0  0
   15.5805   -6.1295    0.0000 H   0  0  0  0  0  0  0  0  0  0  0  0
   16.4060   -6.2131    0.0000 H   0  0  0  0  0  0  0  0  0  0  0  0
    1.9056    7.2269    0.0000 H   0  0  0  0  0  0  0  0  0  0  0  0
   11.2012    3.3220    0.0000 H   0  0  0  0  0  0  0  0  0  0  0  0
   10.6068    3.8531    0.0000 H   0  0  0  0  0  0  0  0  0  0  0  0
   15.8237   -3.5246    0.0000 H   0  0  0  0  0  0  0  0  0  0  0  0
   15.1068   -3.9422    0.0000 H   0  0  0  0  0  0  0  0  0  0  0  0
    1.3942    5.6480    0.0000 H   0  0  0  0  0  0  0  0  0  0  0  0
   10.2866    2.1949    0.0000 H   0  0  0  0  0  0  0  0  0  0  0  0
   10.8810    1.6638    0.0000 H   0  0  0  0  0  0  0  0  0  0  0  0
   16.6326   -2.9990    0.0000 H   0  0  0  0  0  0  0  0  0  0  0  0
   12.4928    2.1680    0.0000 H   0  0  0  0  0  0  0  0  0  0  0  0
   11.8984    2.6991    0.0000 H   0  0  0  0  0  0  0  0  0  0  0  0
   14.1273   -5.8487    0.0000 H   0  0  0  0  0  0  0  0  0  0  0  0
   13.9000   -4.7992    0.0000 H   0  0  0  0  0  0  0  0  0  0  0  0
   17.9419   -1.2152    0.0000 H   0  0  0  0  0  0  0  0  0  0  0  0
   17.1849   -1.4644    0.0000 H   0  0  0  0  0  0  0  0  0  0  0  0
   11.5782    1.0409    0.0000 H   0  0  0  0  0  0  0  0  0  0  0  0
   12.1726    0.5098    0.0000 H   0  0  0  0  0  0  0  0  0  0  0  0
   15.6536   -2.7948    0.0000 H   0  0  0  0  0  0  0  0  0  0  0  0
   14.1681   -1.0519    0.0000 H   0  0  0  0  0  0  0  0  0  0  0  0
   13.7844    1.0140    0.0000 H   0  0  0  0  0  0  0  0  0  0  0  0
   13.1900    1.5451    0.0000 H   0  0  0  0  0  0  0  0  0  0  0  0
   18.4946   -6.8569    0.0000 H   0  0  0  0  0  0  0  0  0  0  0  0
   17.4270   -6.9732    0.0000 H   0  0  0  0  0  0  0  0  0  0  0  0
   13.8788   -2.5000    0.0000 H   0  0  0  0  0  0  0  0  0  0  0  0
   14.6359   -2.2507    0.0000 H   0  0  0  0  0  0  0  0  0  0  0  0
   14.8755    0.2337    0.0000 H   0  0  0  0  0  0  0  0  0  0  0  0
   18.7890   -3.4396    0.0000 H   0  0  0  0  0  0  0  0  0  0  0  0
   13.3599   -1.1443    0.0000 H   0  0  0  0  0  0  0  0  0  0  0  0
   12.6028   -1.3935    0.0000 H   0  0  0  0  0  0  0  0  0  0  0  0
   20.5014   -3.2574    0.0000 H   0  0  0  0  0  0  0  0  0  0  0  0
   18.8867   -0.0175    0.0000 H   0  0  0  0  0  0  0  0  0  0  0  0
   12.2336   -3.0415    0.0000 H   0  0  0  0  0  0  0  0  0  0  0  0
   12.9907   -2.7923    0.0000 H   0  0  0  0  0  0  0  0  0  0  0  0
   21.6961   -1.6316    0.0000 H   0  0  0  0  0  0  0  0  0  0  0  0
   20.2880    0.7954    0.0000 H   0  0  0  0  0  0  0  0  0  0  0  0
   21.6926   -0.0116    0.0000 H   0  0  0  0  0  0  0  0  0  0  0  0
   11.6112   -1.6547    0.0000 H   0  0  0  0  0  0  0  0  0  0  0  0
   10.8777   -2.1351    0.0000 H   0  0  0  0  0  0  0  0  0  0  0  0
   11.3581   -2.8686    0.0000 H   0  0  0  0  0  0  0  0  0  0  0  0
  1 25  2  0  0  0  0
  2 37  2  0  0  0  0
  3 39  2  0  0  0  0
  4 45  2  0  0  0  0
  5 50  2  0  0  0  0
  6 15  1  0  0  0  0
  6 18  1  0  0  0  0
  6 21  1  0  0  0  0
  7 20  1  0  0  0  0
  7 26  1  0  0  0  0
  7 71  1  0  0  0  0
  8 25  1  0  0  0  0
  8 33  1  0  0  0  0
  8 73  1  0  0  0  0
  9 29  1  0  0  0  0
  9 35  1  0  0  0  0
  9 37  1  0  0  0  0
 30 10  1  6  0  0  0
 10 90  1  0  0  0  0
 10 91  1  0  0  0  0
 38 11  1  1  0  0  0
 11 45  1  0  0  0  0
 11 96  1  0  0  0  0
 12 39  1  0  0  0  0
 12100  1  0  0  0  0
 12101  1  0  0  0  0
 44 13  1  6  0  0  0
 13 50  1  0  0  0  0
 13104  1  0  0  0  0
 14 49  1  0  0  0  0
 14 51  1  0  0  0  0
 14108  1  0  0  0  0
 15 16  1  0  0  0  0
 15 20  1  0  0  0  0
 15 59  1  1  0  0  0
 16 19  1  0  0  0  0
 16 60  1  0  0  0  0
 16 61  1  0  0  0  0
 17 18  1  0  0  0  0
 17 19  1  0  0  0  0
 17 25  1  1  0  0  0
 17 62  1  0  0  0  0
 18 63  1  0  0  0  0
 18 64  1  0  0  0  0
 19 65  1  0  0  0  0
 19 66  1  0  0  0  0
 20 22  2  0  0  0  0
 21 23  1  0  0  0  0
 21 67  1  0  0  0  0
 21 68  1  0  0  0  0
 22 23  1  0  0  0  0
 22 24  1  0  0  0  0
 23 69  1  0  0  0  0
 23 70  1  0  0  0  0
 24 26  1  0  0  0  0
 24 27  2  0  0  0  0
 26 28  2  0  0  0  0
 27 31  1  0  0  0  0
 27 72  1  0  0  0  0
 28 34  1  0  0  0  0
 28 74  1  0  0  0  0
 29 32  1  0  0  0  0
 29 39  1  6  0  0  0
 29 75  1  0  0  0  0
 30 32  1  0  0  0  0
 30 35  1  0  0  0  0
 30 76  1  0  0  0  0
 31 34  2  0  0  0  0
 31 79  1  0  0  0  0
 32 77  1  0  0  0  0
 32 78  1  0  0  0  0
 33 36  1  0  0  0  0
 33 80  1  0  0  0  0
 33 81  1  0  0  0  0
 34 84  1  0  0  0  0
 35 82  1  0  0  0  0
 35 83  1  0  0  0  0
 36 40  1  0  0  0  0
 36 85  1  0  0  0  0
 36 86  1  0  0  0  0
 37 38  1  0  0  0  0
 38 41  1  0  0  0  0
 38 87  1  0  0  0  0
 40 42  1  0  0  0  0
 40 88  1  0  0  0  0
 40 89  1  0  0  0  0
 41 43  1  0  0  0  0
 41 92  1  0  0  0  0
 41 93  1  0  0  0  0
 42 46  1  0  0  0  0
 42 94  1  0  0  0  0
 42 95  1  0  0  0  0
 43 47  1  0  0  0  0
 43 49  2  0  0  0  0
 44 45  1  0  0  0  0
 44 48  1  0  0  0  0
 44 97  1  0  0  0  0
 46 50  1  0  0  0  0
 46 98  1  0  0  0  0
 46 99  1  0  0  0  0
 47 51  1  0  0  0  0
 47 53  2  0  0  0  0
 48 52  1  0  0  0  0
 48102  1  0  0  0  0
 48103  1  0  0  0  0
 49105  1  0  0  0  0
 51 55  2  0  0  0  0
 52 54  1  0  0  0  0
 52106  1  0  0  0  0
 52107  1  0  0  0  0
 53 56  1  0  0  0  0
 53109  1  0  0  0  0
 54 58  1  0  0  0  0
 54110  1  0  0  0  0
 54111  1  0  0  0  0
 55 57  1  0  0  0  0
 55112  1  0  0  0  0
 56 57  2  0  0  0  0
 56113  1  0  0  0  0
 57114  1  0  0  0  0
 58115  1  0  0  0  0
 58116  1  0  0  0  0
 58117  1  0  0  0  0
M  END
> <PUBCHEM_COMPOUND_CID>
118736407

> <PUBCHEM_COMPOUND_CANONICALIZED>
1

> <PUBCHEM_CACTVS_COMPLEXITY>
1450

> <PUBCHEM_CACTVS_HBOND_ACCEPTOR>
7

> <PUBCHEM_CACTVS_HBOND_DONOR>
7

> <PUBCHEM_CACTVS_ROTATABLE_BOND>
17

> <PUBCHEM_CACTVS_SUBSKEYS>
AAADcfB/+AAAAAAAAAAAAAAAAAAAAWLFgAA8eIEAAAAAAFix/gAAHgAQAAAADSjBngQ+wPPJkACoAzV3VACCgCAxAiAI2aG4ZJgIYPrA0bGUIAhglgDIyAccicCegAAAAAACAAAAAAAAAAQAAAAAAAAAAA==

> <PUBCHEM_IUPAC_OPENEYE_NAME>
(3S,12bR)-N-[6-[[(1S)-1-[[(1S)-2-[(2S,4S)-4-amino-2-carbamoyl-pyrrolidin-1-yl]-1-(1H-indol-3-ylmethyl)-2-oxo-ethyl]carbamoyl]pentyl]amino]-6-oxo-hexyl]-1,2,3,4,6,7,12,12b-octahydroindolo[2,3-a]quinolizine-3-carboxamide

> <PUBCHEM_IUPAC_CAS_NAME>
(3S,12bR)-N-[6-[[(2S)-1-[[(2S)-1-[(2S,4S)-4-amino-2-carbamoyl-1-pyrrolidinyl]-3-(1H-indol-3-yl)-1-oxopropan-2-yl]amino]-1-oxohexan-2-yl]amino]-6-oxohexyl]-1,2,3,4,6,7,12,12b-octahydroindolo[2,3-a]quinolizine-3-carboxamide

> <PUBCHEM_IUPAC_NAME_MARKUP>
(3<I>S</I>,12<I>b</I><I>R</I>)-<I>N</I>-[6-[[(2<I>S</I>)-1-[[(2<I>S</I>)-1-[(2<I>S</I>,4<I>S</I>)-4-amino-2-carbamoylpyrrolidin-1-yl]-3-(1<I>H</I>-indol-3-yl)-1-oxopropan-2-yl]amino]-1-oxohexan-2-yl]amino]-6-oxohexyl]-1,2,3,4,6,7,12,12<I>b</I>-octahydroindolo[2,3-a]quinolizine-3-carboxamide

> <PUBCHEM_IUPAC_NAME>
(3S,12bR)-N-[6-[[(2S)-1-[[(2S)-1-[(2S,4S)-4-amino-2-carbamoylpyrrolidin-1-yl]-3-(1H-indol-3-yl)-1-oxopropan-2-yl]amino]-1-oxohexan-2-yl]amino]-6-oxohexyl]-1,2,3,4,6,7,12,12b-octahydroindolo[2,3-a]quinolizine-3-carboxamide

> <PUBCHEM_IUPAC_SYSTEMATIC_NAME>
(3S,12bR)-N-[6-[[(2S)-1-[[(2S)-1-[(2S,4S)-2-aminocarbonyl-4-azanyl-pyrrolidin-1-yl]-3-(1H-indol-3-yl)-1-oxidanylidene-propan-2-yl]amino]-1-oxidanylidene-hexan-2-yl]amino]-6-oxidanylidene-hexyl]-1,2,3,4,6,7,12,12b-octahydroindolo[2,3-a]quinolizine-3-carboxamide

> <PUBCHEM_IUPAC_TRADITIONAL_NAME>
(3S,12bR)-N-[6-[[(1S)-1-[[(1S)-2-[(2S,4S)-4-amino-2-carbamoyl-pyrrolidino]-1-(1H-indol-3-ylmethyl)-2-keto-ethyl]carbamoyl]pentyl]amino]-6-keto-hexyl]-1,2,3,4,6,7,12,12b-octahydropyrido[2,1-a]beta-carboline-3-carboxamide

> <PUBCHEM_IUPAC_INCHI>
InChI=1S/C44H59N9O5/c1-2-3-13-35(43(57)51-36(22-28-24-48-33-14-8-6-11-30(28)33)44(58)53-26-29(45)23-38(53)41(46)55)49-39(54)16-5-4-10-20-47-42(56)27-17-18-37-40-32(19-21-52(37)25-27)31-12-7-9-15-34(31)50-40/h6-9,11-12,14-15,24,27,29,35-38,48,50H,2-5,10,13,16-23,25-26,45H2,1H3,(H2,46,55)(H,47,56)(H,49,54)(H,51,57)/t27-,29-,35-,36-,37+,38-/m0/s1

> <PUBCHEM_IUPAC_INCHIKEY>
MWJBXTLFRLDENI-MYLNZVDJSA-N

> <PUBCHEM_XLOGP3_AA>
3.1

> <PUBCHEM_EXACT_MASS>
793.46391602

> <PUBCHEM_MOLECULAR_FORMULA>
C44H59N9O5

> <PUBCHEM_MOLECULAR_WEIGHT>
794.0

> <PUBCHEM_OPENEYE_CAN_SMILES>
CCCCC(C(=O)NC(CC1=CNC2=CC=CC=C21)C(=O)N3CC(CC3C(=O)N)N)NC(=O)CCCCCNC(=O)C4CCC5C6=C(CCN5C4)C7=CC=CC=C7N6

> <PUBCHEM_OPENEYE_ISO_SMILES>
CCCC[C@@H](C(=O)N[C@@H](CC1=CNC2=CC=CC=C21)C(=O)N3C[C@H](C[C@H]3C(=O)N)N)NC(=O)CCCCCNC(=O)[C@H]4CC[C@@H]5C6=C(CCN5C4)C7=CC=CC=C7N6

> <PUBCHEM_CACTVS_TPSA>
212

> <PUBCHEM_MONOISOTOPIC_WEIGHT>
793.46391602

> <PUBCHEM_TOTAL_CHARGE>
0

> <PUBCHEM_HEAVY_ATOM_COUNT>
58

> <PUBCHEM_ATOM_DEF_STEREO_COUNT>
6

> <PUBCHEM_ATOM_UDEF_STEREO_COUNT>
0

> <PUBCHEM_BOND_DEF_STEREO_COUNT>
0

> <PUBCHEM_BOND_UDEF_STEREO_COUNT>
0

> <PUBCHEM_ISOTOPIC_ATOM_COUNT>
0

> <PUBCHEM_COMPONENT_COUNT>
1

> <PUBCHEM_CACTVS_TAUTO_COUNT>
-1

> <PUBCHEM_COORDINATE_TYPE>
1
5
255

> <PUBCHEM_BONDANNOTATIONS>
30  10  6
38  11  5
44  13  6
14  49  8
14  51  8
15  59  5
17  25  5
20  22  8
22  24  8
24  26  8
24  27  8
26  28  8
27  31  8
28  34  8
29  39  6
31  34  8
43  47  8
43  49  8
47  51  8
47  53  8
51  55  8
53  56  8
55  57  8
56  57  8
7  20  8
7  26  8

$$$$
