11677768
  -OEChem-09292322242D

 60 64  0     1  0  0  0  0  0999 V2000
    7.7749    1.3439    0.0000 S   0  0  0  0  0  0  0  0  0  0  0  0
   15.9894   -4.1951    0.0000 F   0  0  0  0  0  0  0  0  0  0  0  0
   16.3555   -2.8290    0.0000 F   0  0  0  0  0  0  0  0  0  0  0  0
   14.6234   -3.8290    0.0000 F   0  0  0  0  0  0  0  0  0  0  0  0
   15.3946   -1.5552    0.0000 O   0  0  0  0  0  0  0  0  0  0  0  0
   10.7749   -0.3881    0.0000 N   0  0  3  0  0  0  0  0  0  0  0  0
   14.0007   -2.3600    0.0000 N   0  0  0  0  0  0  0  0  0  0  0  0
    6.1871    2.1529    0.0000 N   0  0  0  0  0  0  0  0  0  0  0  0
    6.1871    0.5349    0.0000 N   0  0  0  0  0  0  0  0  0  0  0  0
    5.2361    0.8439    0.0000 N   0  0  0  0  0  0  0  0  0  0  0  0
    3.7226    4.0140    0.0000 N   0  0  0  0  0  0  0  0  0  0  0  0
   11.1993   -1.2724    0.0000 C   0  0  0  0  0  0  0  0  0  0  0  0
   11.1993    0.4961    0.0000 C   0  0  0  0  0  0  0  0  0  0  0  0
   12.1546   -1.4945    0.0000 C   0  0  0  0  0  0  0  0  0  0  0  0
   12.1546    0.7182    0.0000 C   0  0  0  0  0  0  0  0  0  0  0  0
   12.9255   -0.8881    0.0000 C   0  0  0  0  0  0  0  0  0  0  0  0
   12.9255    0.1119    0.0000 C   0  0  0  0  0  0  0  0  0  0  0  0
    9.7749   -0.3881    0.0000 C   0  0  0  0  0  0  0  0  0  0  0  0
   13.7915   -1.3881    0.0000 C   0  0  0  0  0  0  0  0  0  0  0  0
    9.2749    0.4779    0.0000 C   0  0  0  0  0  0  0  0  0  0  0  0
   13.7915    0.6119    0.0000 C   0  0  0  0  0  0  0  0  0  0  0  0
   14.6575   -0.8881    0.0000 C   0  0  0  0  0  0  0  0  0  0  0  0
   14.6575    0.1119    0.0000 C   0  0  0  0  0  0  0  0  0  0  0  0
    8.2749    0.4779    0.0000 C   0  0  0  0  0  0  0  0  0  0  0  0
   14.9894   -2.4630    0.0000 C   0  0  0  0  0  0  0  0  0  0  0  0
   15.4894   -3.3290    0.0000 C   0  0  0  0  0  0  0  0  0  0  0  0
    6.7749    1.3439    0.0000 C   0  0  0  0  0  0  0  0  0  0  0  0
    5.2361    1.8439    0.0000 C   0  0  0  0  0  0  0  0  0  0  0  0
    6.4961    3.1040    0.0000 C   0  0  0  0  0  0  0  0  0  0  0  0
    4.4271    2.4317    0.0000 C   0  0  0  0  0  0  0  0  0  0  0  0
    3.5135    2.0250    0.0000 C   0  0  0  0  0  0  0  0  0  0  0  0
    4.5316    3.4262    0.0000 C   0  0  0  0  0  0  0  0  0  0  0  0
    2.7045    2.6128    0.0000 C   0  0  0  0  0  0  0  0  0  0  0  0
    2.8090    3.6073    0.0000 C   0  0  0  0  0  0  0  0  0  0  0  0
    2.0000    4.1951    0.0000 C   0  0  0  0  0  0  0  0  0  0  0  0
   10.5945   -1.4090    0.0000 H   0  0  0  0  0  0  0  0  0  0  0  0
   11.1973   -1.8924    0.0000 H   0  0  0  0  0  0  0  0  0  0  0  0
   11.1973    1.1161    0.0000 H   0  0  0  0  0  0  0  0  0  0  0  0
   10.5945    0.6327    0.0000 H   0  0  0  0  0  0  0  0  0  0  0  0
   11.8828   -2.0517    0.0000 H   0  0  0  0  0  0  0  0  0  0  0  0
   12.6371   -1.8839    0.0000 H   0  0  0  0  0  0  0  0  0  0  0  0
   12.6371    1.1076    0.0000 H   0  0  0  0  0  0  0  0  0  0  0  0
   11.8828    1.2755    0.0000 H   0  0  0  0  0  0  0  0  0  0  0  0
    9.1923   -0.6002    0.0000 H   0  0  0  0  0  0  0  0  0  0  0  0
    9.8826   -0.9987    0.0000 H   0  0  0  0  0  0  0  0  0  0  0  0
    9.8575    0.6899    0.0000 H   0  0  0  0  0  0  0  0  0  0  0  0
    9.1672    1.0885    0.0000 H   0  0  0  0  0  0  0  0  0  0  0  0
   13.7915    1.2319    0.0000 H   0  0  0  0  0  0  0  0  0  0  0  0
   15.1945    0.4219    0.0000 H   0  0  0  0  0  0  0  0  0  0  0  0
    7.6923    0.2658    0.0000 H   0  0  0  0  0  0  0  0  0  0  0  0
    8.3826   -0.1327    0.0000 H   0  0  0  0  0  0  0  0  0  0  0  0
    7.0858    2.9124    0.0000 H   0  0  0  0  0  0  0  0  0  0  0  0
    6.6877    3.6936    0.0000 H   0  0  0  0  0  0  0  0  0  0  0  0
    5.9065    3.2956    0.0000 H   0  0  0  0  0  0  0  0  0  0  0  0
    3.4487    1.4084    0.0000 H   0  0  0  0  0  0  0  0  0  0  0  0
    5.0980    3.6784    0.0000 H   0  0  0  0  0  0  0  0  0  0  0  0
    2.1381    2.3606    0.0000 H   0  0  0  0  0  0  0  0  0  0  0  0
    2.3644    4.6966    0.0000 H   0  0  0  0  0  0  0  0  0  0  0  0
    1.4984    4.5595    0.0000 H   0  0  0  0  0  0  0  0  0  0  0  0
    1.6356    3.6935    0.0000 H   0  0  0  0  0  0  0  0  0  0  0  0
  1 24  1  0  0  0  0
  1 27  1  0  0  0  0
  2 26  1  0  0  0  0
  3 26  1  0  0  0  0
  4 26  1  0  0  0  0
  5 22  1  0  0  0  0
  5 25  1  0  0  0  0
  6 12  1  0  0  0  0
  6 13  1  0  0  0  0
  6 18  1  0  0  0  0
  7 19  1  0  0  0  0
  7 25  2  0  0  0  0
  8 27  1  0  0  0  0
  8 28  1  0  0  0  0
  8 29  1  0  0  0  0
  9 10  1  0  0  0  0
  9 27  2  0  0  0  0
 10 28  2  0  0  0  0
 11 32  1  0  0  0  0
 11 34  2  0  0  0  0
 12 14  1  0  0  0  0
 12 36  1  0  0  0  0
 12 37  1  0  0  0  0
 13 15  1  0  0  0  0
 13 38  1  0  0  0  0
 13 39  1  0  0  0  0
 14 16  1  0  0  0  0
 14 40  1  0  0  0  0
 14 41  1  0  0  0  0
 15 17  1  0  0  0  0
 15 42  1  0  0  0  0
 15 43  1  0  0  0  0
 16 17  2  0  0  0  0
 16 19  1  0  0  0  0
 17 21  1  0  0  0  0
 18 20  1  0  0  0  0
 18 44  1  0  0  0  0
 18 45  1  0  0  0  0
 19 22  2  0  0  0  0
 20 24  1  0  0  0  0
 20 46  1  0  0  0  0
 20 47  1  0  0  0  0
 21 23  2  0  0  0  0
 21 48  1  0  0  0  0
 22 23  1  0  0  0  0
 23 49  1  0  0  0  0
 24 50  1  0  0  0  0
 24 51  1  0  0  0  0
 25 26  1  0  0  0  0
 28 30  1  0  0  0  0
 29 52  1  0  0  0  0
 29 53  1  0  0  0  0
 29 54  1  0  0  0  0
 30 31  1  0  0  0  0
 30 32  2  0  0  0  0
 31 33  2  0  0  0  0
 31 55  1  0  0  0  0
 32 56  1  0  0  0  0
 33 34  1  0  0  0  0
 33 57  1  0  0  0  0
 34 35  1  0  0  0  0
 35 58  1  0  0  0  0
 35 59  1  0  0  0  0
 35 60  1  0  0  0  0
M  END
> <PUBCHEM_COMPOUND_CID>
11677768

> <PUBCHEM_COMPOUND_CANONICALIZED>
1

> <PUBCHEM_CACTVS_COMPLEXITY>
705

> <PUBCHEM_CACTVS_HBOND_ACCEPTOR>
10

> <PUBCHEM_CACTVS_HBOND_DONOR>
0

> <PUBCHEM_CACTVS_ROTATABLE_BOND>
6

> <PUBCHEM_CACTVS_SUBSKEYS>
AAADceB7oYBAAAAAAAAAAAAAAAAAAWLAAAA8QAAABYAAAFgB/gAAHwQIAAAADAzF3xS/1rcMFEiqA7d3dASS2Ct/YrAd2CG/bNiOLvLk/buPOSjkzBPY6YeY2bKOoAABQAASEABAAAKAACQgAAAAAAAAAA==

> <PUBCHEM_IUPAC_OPENEYE_NAME>
8-[3-[[4-methyl-5-(6-methyl-3-pyridyl)-1,2,4-triazol-3-yl]sulfanyl]propyl]-2-(trifluoromethyl)-6,7,9,10-tetrahydrooxazolo[5,4-i][3]benzazepine

> <PUBCHEM_IUPAC_CAS_NAME>
8-[3-[[4-methyl-5-(6-methyl-3-pyridinyl)-1,2,4-triazol-3-yl]thio]propyl]-2-(trifluoromethyl)-6,7,9,10-tetrahydrooxazolo[5,4-i][3]benzazepine

> <PUBCHEM_IUPAC_NAME_MARKUP>
8-[3-[[4-methyl-5-(6-methylpyridin-3-yl)-1,2,4-triazol-3-yl]sulfanyl]propyl]-2-(trifluoromethyl)-6,7,9,10-tetrahydro-[1,3]oxazolo[5,4-i][3]benzazepine

> <PUBCHEM_IUPAC_NAME>
8-[3-[[4-methyl-5-(6-methylpyridin-3-yl)-1,2,4-triazol-3-yl]sulfanyl]propyl]-2-(trifluoromethyl)-6,7,9,10-tetrahydro-[1,3]oxazolo[5,4-i][3]benzazepine

> <PUBCHEM_IUPAC_SYSTEMATIC_NAME>
8-[3-[[4-methyl-5-(6-methylpyridin-3-yl)-1,2,4-triazol-3-yl]sulfanyl]propyl]-2-(trifluoromethyl)-6,7,9,10-tetrahydro-[1,3]oxazolo[5,4-i][3]benzazepine

> <PUBCHEM_IUPAC_TRADITIONAL_NAME>
8-[3-[[4-methyl-5-(6-methyl-3-pyridyl)-1,2,4-triazol-3-yl]thio]propyl]-2-(trifluoromethyl)-6,7,9,10-tetrahydrooxazolo[5,4-i][3]benzazepine

> <PUBCHEM_IUPAC_INCHI>
InChI=1S/C24H25F3N6OS/c1-15-4-5-17(14-28-15)21-30-31-23(32(21)2)35-13-3-10-33-11-8-16-6-7-19-20(18(16)9-12-33)29-22(34-19)24(25,26)27/h4-7,14H,3,8-13H2,1-2H3

> <PUBCHEM_IUPAC_INCHIKEY>
YROMCCIDISNCOF-UHFFFAOYSA-N

> <PUBCHEM_XLOGP3_AA>
4.4

> <PUBCHEM_EXACT_MASS>
502.17626510

> <PUBCHEM_MOLECULAR_FORMULA>
C24H25F3N6OS

> <PUBCHEM_MOLECULAR_WEIGHT>
502.6

> <PUBCHEM_OPENEYE_CAN_SMILES>
CC1=NC=C(C=C1)C2=NN=C(N2C)SCCCN3CCC4=C(CC3)C5=C(C=C4)OC(=N5)C(F)(F)F

> <PUBCHEM_OPENEYE_ISO_SMILES>
CC1=NC=C(C=C1)C2=NN=C(N2C)SCCCN3CCC4=C(CC3)C5=C(C=C4)OC(=N5)C(F)(F)F

> <PUBCHEM_CACTVS_TPSA>
98.2

> <PUBCHEM_MONOISOTOPIC_WEIGHT>
502.17626510

> <PUBCHEM_TOTAL_CHARGE>
0

> <PUBCHEM_HEAVY_ATOM_COUNT>
35

> <PUBCHEM_ATOM_DEF_STEREO_COUNT>
0

> <PUBCHEM_ATOM_UDEF_STEREO_COUNT>
0

> <PUBCHEM_BOND_DEF_STEREO_COUNT>
0

> <PUBCHEM_BOND_UDEF_STEREO_COUNT>
0

> <PUBCHEM_ISOTOPIC_ATOM_COUNT>
0

> <PUBCHEM_COMPONENT_COUNT>
1

> <PUBCHEM_CACTVS_TAUTO_COUNT>
-1

> <PUBCHEM_COORDINATE_TYPE>
1
5
255

> <PUBCHEM_BONDANNOTATIONS>
10  28  8
11  32  8
11  34  8
16  17  8
16  19  8
17  21  8
19  22  8
21  23  8
22  23  8
30  31  8
30  32  8
31  33  8
33  34  8
5  22  8
5  25  8
7  19  8
7  25  8
8  27  8
8  28  8
9  10  8
9  27  8

$$$$
