60148496
  -OEChem-09292321592D

 67 71  0     1  0  0  0  0  0999 V2000
   14.4713    0.0857    0.0000 S   0  0  0  0  0  0  0  0  0  0  0  0
    5.7308   -2.7191    0.0000 O   0  0  0  0  0  0  0  0  0  0  0  0
   10.9270    0.2809    0.0000 N   0  0  3  0  0  0  0  0  0  0  0  0
    8.3289   -0.2191    0.0000 N   0  0  0  0  0  0  0  0  0  0  0  0
    6.5968   -1.2191    0.0000 N   0  0  0  0  0  0  0  0  0  0  0  0
   14.4713   -1.5238    0.0000 N   0  0  0  0  0  0  0  0  0  0  0  0
   16.0549   -0.7191    0.0000 N   0  0  0  0  0  0  0  0  0  0  0  0
    3.7899   -0.0211    0.0000 N   0  0  0  0  0  0  0  0  0  0  0  0
   11.7930   -0.2191    0.0000 C   0  0  1  0  0  0  0  0  0  0  0  0
   11.7930   -1.2191    0.0000 C   0  0  0  0  0  0  0  0  0  0  0  0
   12.6590    0.2809    0.0000 C   0  0  0  0  0  0  0  0  0  0  0  0
   10.0610   -0.2191    0.0000 C   0  0  0  0  0  0  0  0  0  0  0  0
    9.1949    0.2809    0.0000 C   0  0  0  0  0  0  0  0  0  0  0  0
   12.6590   -1.7191    0.0000 C   0  0  0  0  0  0  0  0  0  0  0  0
   10.9270    1.2809    0.0000 C   0  0  0  0  0  0  0  0  0  0  0  0
   13.5251   -0.2191    0.0000 C   0  0  0  0  0  0  0  0  0  0  0  0
    7.4629    0.2809    0.0000 C   0  0  0  0  0  0  0  0  0  0  0  0
    8.3289   -1.2191    0.0000 C   0  0  0  0  0  0  0  0  0  0  0  0
   13.5251   -1.2191    0.0000 C   0  0  0  0  0  0  0  0  0  0  0  0
    6.5968   -0.2191    0.0000 C   0  0  0  0  0  0  0  0  0  0  0  0
    7.4629   -1.7191    0.0000 C   0  0  0  0  0  0  0  0  0  0  0  0
   10.0610    1.7809    0.0000 C   0  0  0  0  0  0  0  0  0  0  0  0
    5.7308   -1.7191    0.0000 C   0  0  0  0  0  0  0  0  0  0  0  0
   15.0549   -0.7191    0.0000 C   0  0  0  0  0  0  0  0  0  0  0  0
   10.0610    2.7809    0.0000 C   0  0  0  0  0  0  0  0  0  0  0  0
    4.8648   -1.2191    0.0000 C   0  0  0  0  0  0  0  0  0  0  0  0
    3.9570   -1.6242    0.0000 C   0  0  0  0  0  0  0  0  0  0  0  0
    4.7617   -0.2304    0.0000 C   0  0  0  0  0  0  0  0  0  0  0  0
    3.2892   -0.8799    0.0000 C   0  0  0  0  0  0  0  0  0  0  0  0
    3.6464   -2.5747    0.0000 C   0  0  0  0  0  0  0  0  0  0  0  0
    2.3107   -1.0861    0.0000 C   0  0  0  0  0  0  0  0  0  0  0  0
    2.6678   -2.7809    0.0000 C   0  0  0  0  0  0  0  0  0  0  0  0
    2.0000   -2.0366    0.0000 C   0  0  0  0  0  0  0  0  0  0  0  0
   11.2561   -0.5291    0.0000 H   0  0  0  0  0  0  0  0  0  0  0  0
   11.1824   -1.1114    0.0000 H   0  0  0  0  0  0  0  0  0  0  0  0
   11.5809   -1.8017    0.0000 H   0  0  0  0  0  0  0  0  0  0  0  0
   13.0576    0.7559    0.0000 H   0  0  0  0  0  0  0  0  0  0  0  0
   12.2605    0.7559    0.0000 H   0  0  0  0  0  0  0  0  0  0  0  0
    9.6624   -0.6940    0.0000 H   0  0  0  0  0  0  0  0  0  0  0  0
   10.4595   -0.6940    0.0000 H   0  0  0  0  0  0  0  0  0  0  0  0
    9.5934    0.7559    0.0000 H   0  0  0  0  0  0  0  0  0  0  0  0
    8.7964    0.7559    0.0000 H   0  0  0  0  0  0  0  0  0  0  0  0
   12.2605   -2.1940    0.0000 H   0  0  0  0  0  0  0  0  0  0  0  0
   13.0576   -2.1940    0.0000 H   0  0  0  0  0  0  0  0  0  0  0  0
   11.5376    1.1733    0.0000 H   0  0  0  0  0  0  0  0  0  0  0  0
   11.1390    1.8635    0.0000 H   0  0  0  0  0  0  0  0  0  0  0  0
    7.8614    0.7559    0.0000 H   0  0  0  0  0  0  0  0  0  0  0  0
    7.0644    0.7559    0.0000 H   0  0  0  0  0  0  0  0  0  0  0  0
    8.5410   -1.8017    0.0000 H   0  0  0  0  0  0  0  0  0  0  0  0
    8.9395   -1.1114    0.0000 H   0  0  0  0  0  0  0  0  0  0  0  0
    6.3848    0.3635    0.0000 H   0  0  0  0  0  0  0  0  0  0  0  0
    5.9863   -0.3267    0.0000 H   0  0  0  0  0  0  0  0  0  0  0  0
    7.0644   -2.1940    0.0000 H   0  0  0  0  0  0  0  0  0  0  0  0
    7.8614   -2.1940    0.0000 H   0  0  0  0  0  0  0  0  0  0  0  0
    9.4504    1.8886    0.0000 H   0  0  0  0  0  0  0  0  0  0  0  0
    9.8489    1.1983    0.0000 H   0  0  0  0  0  0  0  0  0  0  0  0
   10.6810    2.7809    0.0000 H   0  0  0  0  0  0  0  0  0  0  0  0
   10.0610    3.4009    0.0000 H   0  0  0  0  0  0  0  0  0  0  0  0
    9.4410    2.7809    0.0000 H   0  0  0  0  0  0  0  0  0  0  0  0
    5.2232    0.1837    0.0000 H   0  0  0  0  0  0  0  0  0  0  0  0
   16.3649   -1.2560    0.0000 H   0  0  0  0  0  0  0  0  0  0  0  0
   16.3649   -0.1821    0.0000 H   0  0  0  0  0  0  0  0  0  0  0  0
    3.5397    0.5461    0.0000 H   0  0  0  0  0  0  0  0  0  0  0  0
    4.0604   -3.0362    0.0000 H   0  0  0  0  0  0  0  0  0  0  0  0
    1.8966   -0.6246    0.0000 H   0  0  0  0  0  0  0  0  0  0  0  0
    2.4752   -3.3702    0.0000 H   0  0  0  0  0  0  0  0  0  0  0  0
    1.3933   -2.1645    0.0000 H   0  0  0  0  0  0  0  0  0  0  0  0
  1 16  1  0  0  0  0
  1 24  1  0  0  0  0
  2 23  2  0  0  0  0
  9  3  1  6  0  0  0
  3 12  1  0  0  0  0
  3 15  1  0  0  0  0
  4 13  1  0  0  0  0
  4 17  1  0  0  0  0
  4 18  1  0  0  0  0
  5 20  1  0  0  0  0
  5 21  1  0  0  0  0
  5 23  1  0  0  0  0
  6 19  1  0  0  0  0
  6 24  2  0  0  0  0
  7 24  1  0  0  0  0
  7 61  1  0  0  0  0
  7 62  1  0  0  0  0
  8 28  1  0  0  0  0
  8 29  1  0  0  0  0
  8 63  1  0  0  0  0
  9 10  1  0  0  0  0
  9 11  1  0  0  0  0
  9 34  1  0  0  0  0
 10 14  1  0  0  0  0
 10 35  1  0  0  0  0
 10 36  1  0  0  0  0
 11 16  1  0  0  0  0
 11 37  1  0  0  0  0
 11 38  1  0  0  0  0
 12 13  1  0  0  0  0
 12 39  1  0  0  0  0
 12 40  1  0  0  0  0
 13 41  1  0  0  0  0
 13 42  1  0  0  0  0
 14 19  1  0  0  0  0
 14 43  1  0  0  0  0
 14 44  1  0  0  0  0
 15 22  1  0  0  0  0
 15 45  1  0  0  0  0
 15 46  1  0  0  0  0
 16 19  2  0  0  0  0
 17 20  1  0  0  0  0
 17 47  1  0  0  0  0
 17 48  1  0  0  0  0
 18 21  1  0  0  0  0
 18 49  1  0  0  0  0
 18 50  1  0  0  0  0
 20 51  1  0  0  0  0
 20 52  1  0  0  0  0
 21 53  1  0  0  0  0
 21 54  1  0  0  0  0
 22 25  1  0  0  0  0
 22 55  1  0  0  0  0
 22 56  1  0  0  0  0
 23 26  1  0  0  0  0
 25 57  1  0  0  0  0
 25 58  1  0  0  0  0
 25 59  1  0  0  0  0
 26 27  1  0  0  0  0
 26 28  2  0  0  0  0
 27 29  1  0  0  0  0
 27 30  2  0  0  0  0
 28 60  1  0  0  0  0
 29 31  2  0  0  0  0
 30 32  1  0  0  0  0
 30 64  1  0  0  0  0
 31 33  1  0  0  0  0
 31 65  1  0  0  0  0
 32 33  2  0  0  0  0
 32 66  1  0  0  0  0
 33 67  1  0  0  0  0
M  END
> <PUBCHEM_COMPOUND_CID>
60148496

> <PUBCHEM_COMPOUND_CANONICALIZED>
1

> <PUBCHEM_CACTVS_COMPLEXITY>
659

> <PUBCHEM_CACTVS_HBOND_ACCEPTOR>
6

> <PUBCHEM_CACTVS_HBOND_DONOR>
2

> <PUBCHEM_CACTVS_ROTATABLE_BOND>
7

> <PUBCHEM_CACTVS_SUBSKEYS>
AAADcfB7oABAAAAAAAAAAAAAAAAAAWLAAAA8YIAAAAAAAFgB/AAAHgQQAAAADCjB3gQ/0fPJkAisAzV3dACC8Kl1CjkI2bU4ZNiIYPrg1ZGUIYhglgLIyecciMCOgAAAAAACAAAAAQAAQAQCAAAAAAAAAA==

> <PUBCHEM_IUPAC_OPENEYE_NAME>
[4-[2-[[(6S)-2-amino-4,5,6,7-tetrahydro-1,3-benzothiazol-6-yl]-propyl-amino]ethyl]piperazin-1-yl]-(1H-indol-3-yl)methanone

> <PUBCHEM_IUPAC_CAS_NAME>
[4-[2-[[(6S)-2-amino-4,5,6,7-tetrahydro-1,3-benzothiazol-6-yl]-propylamino]ethyl]-1-piperazinyl]-(1H-indol-3-yl)methanone

> <PUBCHEM_IUPAC_NAME_MARKUP>
[4-[2-[[(6<I>S</I>)-2-amino-4,5,6,7-tetrahydro-1,3-benzothiazol-6-yl]-propylamino]ethyl]piperazin-1-yl]-(1<I>H</I>-indol-3-yl)methanone

> <PUBCHEM_IUPAC_NAME>
[4-[2-[[(6S)-2-amino-4,5,6,7-tetrahydro-1,3-benzothiazol-6-yl]-propylamino]ethyl]piperazin-1-yl]-(1H-indol-3-yl)methanone

> <PUBCHEM_IUPAC_SYSTEMATIC_NAME>
[4-[2-[[(6S)-2-azanyl-4,5,6,7-tetrahydro-1,3-benzothiazol-6-yl]-propyl-amino]ethyl]piperazin-1-yl]-(1H-indol-3-yl)methanone

> <PUBCHEM_IUPAC_TRADITIONAL_NAME>
[4-[2-[[(6S)-2-amino-4,5,6,7-tetrahydro-1,3-benzothiazol-6-yl]-propyl-amino]ethyl]piperazino]-(1H-indol-3-yl)methanone

> <PUBCHEM_IUPAC_INCHI>
InChI=1S/C25H34N6OS/c1-2-9-30(18-7-8-22-23(16-18)33-25(26)28-22)13-10-29-11-14-31(15-12-29)24(32)20-17-27-21-6-4-3-5-19(20)21/h3-6,17-18,27H,2,7-16H2,1H3,(H2,26,28)/t18-/m0/s1

> <PUBCHEM_IUPAC_INCHIKEY>
SJIPQSFBLAVVRK-SFHVURJKSA-N

> <PUBCHEM_XLOGP3_AA>
3.4

> <PUBCHEM_EXACT_MASS>
466.25148090

> <PUBCHEM_MOLECULAR_FORMULA>
C25H34N6OS

> <PUBCHEM_MOLECULAR_WEIGHT>
466.6

> <PUBCHEM_OPENEYE_CAN_SMILES>
CCCN(CCN1CCN(CC1)C(=O)C2=CNC3=CC=CC=C32)C4CCC5=C(C4)SC(=N5)N

> <PUBCHEM_OPENEYE_ISO_SMILES>
CCCN(CCN1CCN(CC1)C(=O)C2=CNC3=CC=CC=C32)[C@H]4CCC5=C(C4)SC(=N5)N

> <PUBCHEM_CACTVS_TPSA>
110

> <PUBCHEM_MONOISOTOPIC_WEIGHT>
466.25148090

> <PUBCHEM_TOTAL_CHARGE>
0

> <PUBCHEM_HEAVY_ATOM_COUNT>
33

> <PUBCHEM_ATOM_DEF_STEREO_COUNT>
1

> <PUBCHEM_ATOM_UDEF_STEREO_COUNT>
0

> <PUBCHEM_BOND_DEF_STEREO_COUNT>
0

> <PUBCHEM_BOND_UDEF_STEREO_COUNT>
0

> <PUBCHEM_ISOTOPIC_ATOM_COUNT>
0

> <PUBCHEM_COMPONENT_COUNT>
1

> <PUBCHEM_CACTVS_TAUTO_COUNT>
-1

> <PUBCHEM_COORDINATE_TYPE>
1
5
255

> <PUBCHEM_BONDANNOTATIONS>
1  16  8
1  24  8
16  19  8
26  27  8
26  28  8
27  29  8
27  30  8
29  31  8
9  3  6
30  32  8
31  33  8
32  33  8
6  19  8
6  24  8
8  28  8
8  29  8

$$$$
