155567869
  -OEChem-09292322412D

 67 69  0     1  0  0  0  0  0999 V2000
    1.7320    2.1200    0.0000 Cl  0  0  0  0  0  0  0  0  0  0  0  0
    0.0000    3.1200    0.0000 Cl  0  0  0  0  0  0  0  0  0  0  0  0
    7.6631    7.7862    0.0000 Cl  0  0  0  0  0  0  0  0  0  0  0  0
   11.3923    2.1200    0.0000 O   0  0  0  0  0  0  0  0  0  0  0  0
    6.1962    3.1200    0.0000 N   0  0  3  0  0  0  0  0  0  0  0  0
   10.5263    3.6200    0.0000 N   0  0  0  0  0  0  0  0  0  0  0  0
    4.4641    3.1200    0.0000 C   0  0  3  0  0  0  0  0  0  0  0  0
    3.4641    3.1200    0.0000 C   0  0  3  0  0  0  0  0  0  0  0  0
    3.9641    2.2540    0.0000 C   0  0  0  0  0  0  0  0  0  0  0  0
    5.3301    3.6200    0.0000 C   0  0  0  0  0  0  0  0  0  0  0  0
    2.5981    3.6200    0.0000 C   0  0  0  0  0  0  0  0  0  0  0  0
    7.0622    3.6200    0.0000 C   0  0  0  0  0  0  0  0  0  0  0  0
    6.1962    2.1200    0.0000 C   0  0  0  0  0  0  0  0  0  0  0  0
    1.7320    3.1200    0.0000 C   0  0  0  0  0  0  0  0  0  0  0  0
    2.5981    4.6200    0.0000 C   0  0  0  0  0  0  0  0  0  0  0  0
    7.9282    3.1200    0.0000 C   0  0  0  0  0  0  0  0  0  0  0  0
    7.0622    1.6200    0.0000 C   0  0  0  0  0  0  0  0  0  0  0  0
    0.8660    3.6200    0.0000 C   0  0  0  0  0  0  0  0  0  0  0  0
    1.7320    5.1200    0.0000 C   0  0  0  0  0  0  0  0  0  0  0  0
    0.8660    4.6200    0.0000 C   0  0  0  0  0  0  0  0  0  0  0  0
    8.7942    3.6200    0.0000 C   0  0  0  0  0  0  0  0  0  0  0  0
    7.0622    0.6200    0.0000 C   0  0  0  0  0  0  0  0  0  0  0  0
    9.6602    3.1200    0.0000 C   0  0  0  0  0  0  0  0  0  0  0  0
   11.3923    3.1200    0.0000 C   0  0  0  0  0  0  0  0  0  0  0  0
   12.2583    3.6200    0.0000 C   0  0  0  0  0  0  0  0  0  0  0  0
   13.1244    3.1200    0.0000 C   0  0  0  0  0  0  0  0  0  0  0  0
   12.2583    4.6200    0.0000 C   0  0  0  0  0  0  0  0  0  0  0  0
   13.9904    3.6200    0.0000 C   0  0  0  0  0  0  0  0  0  0  0  0
   13.9904    4.6200    0.0000 C   0  0  0  0  0  0  0  0  0  0  0  0
   13.1244    5.1200    0.0000 C   0  0  0  0  0  0  0  0  0  0  0  0
   14.8843    3.0853    0.0000 C   0  0  0  0  0  0  0  0  0  0  0  0
   14.8843    5.1547    0.0000 C   0  0  0  0  0  0  0  0  0  0  0  0
   15.7904    3.5992    0.0000 C   0  0  0  0  0  0  0  0  0  0  0  0
   15.7904    4.6408    0.0000 C   0  0  0  0  0  0  0  0  0  0  0  0
    4.3036    3.7189    0.0000 H   0  0  0  0  0  0  0  0  0  0  0  0
    3.6246    3.7189    0.0000 H   0  0  0  0  0  0  0  0  0  0  0  0
    3.4892    1.8554    0.0000 H   0  0  0  0  0  0  0  0  0  0  0  0
    4.4390    1.8554    0.0000 H   0  0  0  0  0  0  0  0  0  0  0  0
    5.7287    4.0950    0.0000 H   0  0  0  0  0  0  0  0  0  0  0  0
    4.9316    4.0950    0.0000 H   0  0  0  0  0  0  0  0  0  0  0  0
    7.4607    4.0950    0.0000 H   0  0  0  0  0  0  0  0  0  0  0  0
    6.6636    4.0950    0.0000 H   0  0  0  0  0  0  0  0  0  0  0  0
    5.5856    2.2277    0.0000 H   0  0  0  0  0  0  0  0  0  0  0  0
    5.9841    1.5374    0.0000 H   0  0  0  0  0  0  0  0  0  0  0  0
    3.1350    4.9300    0.0000 H   0  0  0  0  0  0  0  0  0  0  0  0
    7.5297    2.6450    0.0000 H   0  0  0  0  0  0  0  0  0  0  0  0
    8.3267    2.6450    0.0000 H   0  0  0  0  0  0  0  0  0  0  0  0
    7.6728    1.5123    0.0000 H   0  0  0  0  0  0  0  0  0  0  0  0
    7.2742    2.2026    0.0000 H   0  0  0  0  0  0  0  0  0  0  0  0
    1.7320    5.7400    0.0000 H   0  0  0  0  0  0  0  0  0  0  0  0
    0.3291    4.9300    0.0000 H   0  0  0  0  0  0  0  0  0  0  0  0
    9.1928    4.0950    0.0000 H   0  0  0  0  0  0  0  0  0  0  0  0
    8.3957    4.0950    0.0000 H   0  0  0  0  0  0  0  0  0  0  0  0
    6.4422    0.6200    0.0000 H   0  0  0  0  0  0  0  0  0  0  0  0
    7.0622    0.0000    0.0000 H   0  0  0  0  0  0  0  0  0  0  0  0
    7.6822    0.6200    0.0000 H   0  0  0  0  0  0  0  0  0  0  0  0
    9.2617    2.6450    0.0000 H   0  0  0  0  0  0  0  0  0  0  0  0
   10.0588    2.6450    0.0000 H   0  0  0  0  0  0  0  0  0  0  0  0
   10.5263    4.2400    0.0000 H   0  0  0  0  0  0  0  0  0  0  0  0
   13.1244    2.5000    0.0000 H   0  0  0  0  0  0  0  0  0  0  0  0
   11.7214    4.9300    0.0000 H   0  0  0  0  0  0  0  0  0  0  0  0
   13.1244    5.7400    0.0000 H   0  0  0  0  0  0  0  0  0  0  0  0
   14.8772    2.4654    0.0000 H   0  0  0  0  0  0  0  0  0  0  0  0
   14.8772    5.7746    0.0000 H   0  0  0  0  0  0  0  0  0  0  0  0
   16.3261    3.2871    0.0000 H   0  0  0  0  0  0  0  0  0  0  0  0
   16.3261    4.9529    0.0000 H   0  0  0  0  0  0  0  0  0  0  0  0
    8.6631    7.7862    0.0000 H   0  0  0  0  0  0  0  0  0  0  0  0
  1 14  1  0  0  0  0
  2 18  1  0  0  0  0
  3 67  1  0  0  0  0
  4 24  2  0  0  0  0
  5 10  1  0  0  0  0
  5 12  1  0  0  0  0
  5 13  1  0  0  0  0
  6 23  1  0  0  0  0
  6 24  1  0  0  0  0
  6 59  1  0  0  0  0
  7  8  1  0  0  0  0
  7  9  1  0  0  0  0
  7 10  1  0  0  0  0
  7 35  1  0  0  0  0
  8  9  1  0  0  0  0
  8 11  1  0  0  0  0
  8 36  1  0  0  0  0
  9 37  1  0  0  0  0
  9 38  1  0  0  0  0
 10 39  1  0  0  0  0
 10 40  1  0  0  0  0
 11 14  2  0  0  0  0
 11 15  1  0  0  0  0
 12 16  1  0  0  0  0
 12 41  1  0  0  0  0
 12 42  1  0  0  0  0
 13 17  1  0  0  0  0
 13 43  1  0  0  0  0
 13 44  1  0  0  0  0
 14 18  1  0  0  0  0
 15 19  2  0  0  0  0
 15 45  1  0  0  0  0
 16 21  1  0  0  0  0
 16 46  1  0  0  0  0
 16 47  1  0  0  0  0
 17 22  1  0  0  0  0
 17 48  1  0  0  0  0
 17 49  1  0  0  0  0
 18 20  2  0  0  0  0
 19 20  1  0  0  0  0
 19 50  1  0  0  0  0
 20 51  1  0  0  0  0
 21 23  1  0  0  0  0
 21 52  1  0  0  0  0
 21 53  1  0  0  0  0
 22 54  1  0  0  0  0
 22 55  1  0  0  0  0
 22 56  1  0  0  0  0
 23 57  1  0  0  0  0
 23 58  1  0  0  0  0
 24 25  1  0  0  0  0
 25 26  2  0  0  0  0
 25 27  1  0  0  0  0
 26 28  1  0  0  0  0
 26 60  1  0  0  0  0
 27 30  2  0  0  0  0
 27 61  1  0  0  0  0
 28 29  1  0  0  0  0
 28 31  2  0  0  0  0
 29 30  1  0  0  0  0
 29 32  2  0  0  0  0
 30 62  1  0  0  0  0
 31 33  1  0  0  0  0
 31 63  1  0  0  0  0
 32 34  1  0  0  0  0
 32 64  1  0  0  0  0
 33 34  2  0  0  0  0
 33 65  1  0  0  0  0
 34 66  1  0  0  0  0
M  END
> <PUBCHEM_COMPOUND_CID>
155567869

> <PUBCHEM_COMPOUND_CANONICALIZED>
1

> <PUBCHEM_CACTVS_COMPLEXITY>
617

> <PUBCHEM_CACTVS_HBOND_ACCEPTOR>
2

> <PUBCHEM_CACTVS_HBOND_DONOR>
2

> <PUBCHEM_CACTVS_ROTATABLE_BOND>
11

> <PUBCHEM_CACTVS_SUBSKEYS>
AAADcfB7IAAGAAAAAAAAAAAAGAAAAAAAAAAwYMAAAAAAAADBVAAAHgIQAAAADQLBmCQyAMPAAACIAiFSEACCAAAkBQAIisEIBsgIIDKBlxGEIQhglgCIiYcYiMCOwAACIAARAASAAARAACIACAAAAAAAAA==

> <PUBCHEM_IUPAC_OPENEYE_NAME>
N-[4-[[2-(2,3-dichlorophenyl)cyclopropyl]methyl-propyl-amino]butyl]naphthalene-2-carboxamide;hydrochloride

> <PUBCHEM_IUPAC_CAS_NAME>
N-[4-[[2-(2,3-dichlorophenyl)cyclopropyl]methyl-propylamino]butyl]-2-naphthalenecarboxamide;hydrochloride

> <PUBCHEM_IUPAC_NAME_MARKUP>
<I>N</I>-[4-[[2-(2,3-dichlorophenyl)cyclopropyl]methyl-propylamino]butyl]naphthalene-2-carboxamide;hydrochloride

> <PUBCHEM_IUPAC_NAME>
N-[4-[[2-(2,3-dichlorophenyl)cyclopropyl]methyl-propylamino]butyl]naphthalene-2-carboxamide;hydrochloride

> <PUBCHEM_IUPAC_SYSTEMATIC_NAME>
N-[4-[[2-[2,3-bis(chloranyl)phenyl]cyclopropyl]methyl-propyl-amino]butyl]naphthalene-2-carboxamide;hydrochloride

> <PUBCHEM_IUPAC_TRADITIONAL_NAME>
N-[4-[[2-(2,3-dichlorophenyl)cyclopropyl]methyl-propyl-amino]butyl]-2-naphthamide;hydrochloride

> <PUBCHEM_IUPAC_INCHI>
InChI=1S/C28H32Cl2N2O.ClH/c1-2-15-32(19-23-18-25(23)24-10-7-11-26(29)27(24)30)16-6-5-14-31-28(33)22-13-12-20-8-3-4-9-21(20)17-22;/h3-4,7-13,17,23,25H,2,5-6,14-16,18-19H2,1H3,(H,31,33);1H

> <PUBCHEM_IUPAC_INCHIKEY>
FQLSPUQWENSFHP-UHFFFAOYSA-N

> <PUBCHEM_EXACT_MASS>
518.165847

> <PUBCHEM_MOLECULAR_FORMULA>
C28H33Cl3N2O

> <PUBCHEM_MOLECULAR_WEIGHT>
519.9

> <PUBCHEM_OPENEYE_CAN_SMILES>
CCCN(CCCCNC(=O)C1=CC2=CC=CC=C2C=C1)CC3CC3C4=C(C(=CC=C4)Cl)Cl.Cl

> <PUBCHEM_OPENEYE_ISO_SMILES>
CCCN(CCCCNC(=O)C1=CC2=CC=CC=C2C=C1)CC3CC3C4=C(C(=CC=C4)Cl)Cl.Cl

> <PUBCHEM_CACTVS_TPSA>
32.3

> <PUBCHEM_MONOISOTOPIC_WEIGHT>
518.165847

> <PUBCHEM_TOTAL_CHARGE>
0

> <PUBCHEM_HEAVY_ATOM_COUNT>
34

> <PUBCHEM_ATOM_DEF_STEREO_COUNT>
0

> <PUBCHEM_ATOM_UDEF_STEREO_COUNT>
2

> <PUBCHEM_BOND_DEF_STEREO_COUNT>
0

> <PUBCHEM_BOND_UDEF_STEREO_COUNT>
0

> <PUBCHEM_ISOTOPIC_ATOM_COUNT>
0

> <PUBCHEM_COMPONENT_COUNT>
2

> <PUBCHEM_CACTVS_TAUTO_COUNT>
-1

> <PUBCHEM_COORDINATE_TYPE>
1
5
255

> <PUBCHEM_BONDANNOTATIONS>
11  14  8
11  15  8
14  18  8
15  19  8
18  20  8
19  20  8
25  26  8
25  27  8
26  28  8
27  30  8
28  29  8
28  31  8
29  30  8
29  32  8
31  33  8
32  34  8
33  34  8
7  10  3
8  11  3

$$$$
