44323762
  -OEChem-09292322212D

 42 45  0     0  0  0  0  0  0999 V2000
    4.5981    1.1970    0.0000 N   0  0  0  0  0  0  0  0  0  0  0  0
    4.5981   -0.8030    0.0000 N   0  0  0  0  0  0  0  0  0  0  0  0
    6.4103   -1.9982    0.0000 N   0  0  0  0  0  0  0  0  0  0  0  0
    6.4103   -3.6077    0.0000 N   0  0  0  0  0  0  0  0  0  0  0  0
    3.7320    0.6970    0.0000 C   0  0  0  0  0  0  0  0  0  0  0  0
    5.4641    0.6970    0.0000 C   0  0  0  0  0  0  0  0  0  0  0  0
    3.7320   -0.3030    0.0000 C   0  0  0  0  0  0  0  0  0  0  0  0
    5.4641   -0.3030    0.0000 C   0  0  0  0  0  0  0  0  0  0  0  0
    4.5981    2.1970    0.0000 C   0  0  0  0  0  0  0  0  0  0  0  0
    4.5981   -1.8030    0.0000 C   0  0  0  0  0  0  0  0  0  0  0  0
    5.4641   -2.3030    0.0000 C   0  0  0  0  0  0  0  0  0  0  0  0
    3.7320    2.6970    0.0000 C   0  0  0  0  0  0  0  0  0  0  0  0
    3.7320   -2.3030    0.0000 C   0  0  0  0  0  0  0  0  0  0  0  0
    5.4641   -3.3030    0.0000 C   0  0  0  0  0  0  0  0  0  0  0  0
    3.7320   -3.3030    0.0000 C   0  0  0  0  0  0  0  0  0  0  0  0
    4.5981   -3.8030    0.0000 C   0  0  0  0  0  0  0  0  0  0  0  0
    3.7320    3.6970    0.0000 C   0  0  0  0  0  0  0  0  0  0  0  0
    2.8660    2.1970    0.0000 C   0  0  0  0  0  0  0  0  0  0  0  0
    6.9939   -2.8030    0.0000 C   0  0  0  0  0  0  0  0  0  0  0  0
    2.8660    4.1970    0.0000 C   0  0  0  0  0  0  0  0  0  0  0  0
    2.0000    2.6970    0.0000 C   0  0  0  0  0  0  0  0  0  0  0  0
    2.0000    3.6970    0.0000 C   0  0  0  0  0  0  0  0  0  0  0  0
    3.5200    1.2796    0.0000 H   0  0  0  0  0  0  0  0  0  0  0  0
    3.1215    0.5894    0.0000 H   0  0  0  0  0  0  0  0  0  0  0  0
    6.0747    0.5894    0.0000 H   0  0  0  0  0  0  0  0  0  0  0  0
    5.6762    1.2796    0.0000 H   0  0  0  0  0  0  0  0  0  0  0  0
    3.1215   -0.1953    0.0000 H   0  0  0  0  0  0  0  0  0  0  0  0
    3.5200   -0.8856    0.0000 H   0  0  0  0  0  0  0  0  0  0  0  0
    5.6762   -0.8856    0.0000 H   0  0  0  0  0  0  0  0  0  0  0  0
    6.0747   -0.1953    0.0000 H   0  0  0  0  0  0  0  0  0  0  0  0
    5.2087    2.0894    0.0000 H   0  0  0  0  0  0  0  0  0  0  0  0
    4.8101    2.7796    0.0000 H   0  0  0  0  0  0  0  0  0  0  0  0
    3.1951   -1.9930    0.0000 H   0  0  0  0  0  0  0  0  0  0  0  0
    3.1951   -3.6130    0.0000 H   0  0  0  0  0  0  0  0  0  0  0  0
    4.5981   -4.4230    0.0000 H   0  0  0  0  0  0  0  0  0  0  0  0
    4.2690    4.0070    0.0000 H   0  0  0  0  0  0  0  0  0  0  0  0
    2.8660    1.5770    0.0000 H   0  0  0  0  0  0  0  0  0  0  0  0
    6.6029   -4.1970    0.0000 H   0  0  0  0  0  0  0  0  0  0  0  0
    7.6139   -2.8030    0.0000 H   0  0  0  0  0  0  0  0  0  0  0  0
    2.8660    4.8170    0.0000 H   0  0  0  0  0  0  0  0  0  0  0  0
    1.4631    2.3870    0.0000 H   0  0  0  0  0  0  0  0  0  0  0  0
    1.4631    4.0070    0.0000 H   0  0  0  0  0  0  0  0  0  0  0  0
  1  5  1  0  0  0  0
  1  6  1  0  0  0  0
  1  9  1  0  0  0  0
  2  7  1  0  0  0  0
  2  8  1  0  0  0  0
  2 10  1  0  0  0  0
  3 11  1  0  0  0  0
  3 19  2  0  0  0  0
  4 14  1  0  0  0  0
  4 19  1  0  0  0  0
  4 38  1  0  0  0  0
  5  7  1  0  0  0  0
  5 23  1  0  0  0  0
  5 24  1  0  0  0  0
  6  8  1  0  0  0  0
  6 25  1  0  0  0  0
  6 26  1  0  0  0  0
  7 27  1  0  0  0  0
  7 28  1  0  0  0  0
  8 29  1  0  0  0  0
  8 30  1  0  0  0  0
  9 12  1  0  0  0  0
  9 31  1  0  0  0  0
  9 32  1  0  0  0  0
 10 11  1  0  0  0  0
 10 13  2  0  0  0  0
 11 14  2  0  0  0  0
 12 17  2  0  0  0  0
 12 18  1  0  0  0  0
 13 15  1  0  0  0  0
 13 33  1  0  0  0  0
 14 16  1  0  0  0  0
 15 16  2  0  0  0  0
 15 34  1  0  0  0  0
 16 35  1  0  0  0  0
 17 20  1  0  0  0  0
 17 36  1  0  0  0  0
 18 21  2  0  0  0  0
 18 37  1  0  0  0  0
 19 39  1  0  0  0  0
 20 22  2  0  0  0  0
 20 40  1  0  0  0  0
 21 22  1  0  0  0  0
 21 41  1  0  0  0  0
 22 42  1  0  0  0  0
M  END
> <PUBCHEM_COMPOUND_CID>
44323762

> <PUBCHEM_COMPOUND_CANONICALIZED>
1

> <PUBCHEM_CACTVS_COMPLEXITY>
347

> <PUBCHEM_CACTVS_HBOND_ACCEPTOR>
3

> <PUBCHEM_CACTVS_HBOND_DONOR>
1

> <PUBCHEM_CACTVS_ROTATABLE_BOND>
3

> <PUBCHEM_CACTVS_SUBSKEYS>
AAADceB7gAAAAAAAAAAAAAAAAAAAAWAAAAA8YIAAAAAAAFgB9AAAHAAQAAAADAjBHgQ10LfJkACgAyRjZACCgC2xEqAJ2aA4dJiIaKLA2dGUJAhokALIyCcQgAAOAAAAAAQAACAAAAAACAAAQAAAAAAAAA==

> <PUBCHEM_IUPAC_OPENEYE_NAME>
4-(4-benzylpiperazin-1-yl)-1H-benzimidazole

> <PUBCHEM_IUPAC_CAS_NAME>
4-[4-(phenylmethyl)-1-piperazinyl]-1H-benzimidazole

> <PUBCHEM_IUPAC_NAME_MARKUP>
4-(4-benzylpiperazin-1-yl)-1<I>H</I>-benzimidazole

> <PUBCHEM_IUPAC_NAME>
4-(4-benzylpiperazin-1-yl)-1H-benzimidazole

> <PUBCHEM_IUPAC_SYSTEMATIC_NAME>
4-[4-(phenylmethyl)piperazin-1-yl]-1H-benzimidazole

> <PUBCHEM_IUPAC_TRADITIONAL_NAME>
4-(4-benzylpiperazino)-1H-benzimidazole

> <PUBCHEM_IUPAC_INCHI>
InChI=1S/C18H20N4/c1-2-5-15(6-3-1)13-21-9-11-22(12-10-21)17-8-4-7-16-18(17)20-14-19-16/h1-8,14H,9-13H2,(H,19,20)

> <PUBCHEM_IUPAC_INCHIKEY>
ZNBOBGDGUIWKPE-UHFFFAOYSA-N

> <PUBCHEM_XLOGP3_AA>
2.9

> <PUBCHEM_EXACT_MASS>
292.16879665

> <PUBCHEM_MOLECULAR_FORMULA>
C18H20N4

> <PUBCHEM_MOLECULAR_WEIGHT>
292.4

> <PUBCHEM_OPENEYE_CAN_SMILES>
C1CN(CCN1CC2=CC=CC=C2)C3=CC=CC4=C3N=CN4

> <PUBCHEM_OPENEYE_ISO_SMILES>
C1CN(CCN1CC2=CC=CC=C2)C3=CC=CC4=C3N=CN4

> <PUBCHEM_CACTVS_TPSA>
35.2

> <PUBCHEM_MONOISOTOPIC_WEIGHT>
292.16879665

> <PUBCHEM_TOTAL_CHARGE>
0

> <PUBCHEM_HEAVY_ATOM_COUNT>
22

> <PUBCHEM_ATOM_DEF_STEREO_COUNT>
0

> <PUBCHEM_ATOM_UDEF_STEREO_COUNT>
0

> <PUBCHEM_BOND_DEF_STEREO_COUNT>
0

> <PUBCHEM_BOND_UDEF_STEREO_COUNT>
0

> <PUBCHEM_ISOTOPIC_ATOM_COUNT>
0

> <PUBCHEM_COMPONENT_COUNT>
1

> <PUBCHEM_CACTVS_TAUTO_COUNT>
-1

> <PUBCHEM_COORDINATE_TYPE>
1
5
255

> <PUBCHEM_BONDANNOTATIONS>
10  11  8
10  13  8
11  14  8
12  17  8
12  18  8
13  15  8
14  16  8
15  16  8
17  20  8
18  21  8
20  22  8
21  22  8
3  11  8
3  19  8
4  14  8
4  19  8

$$$$
