71734127
  -OEChem-09292322342D

 58 60  0     1  0  0  0  0  0999 V2000
    4.3211   -0.8327    0.0000 O   0  0  0  0  0  0  0  0  0  0  0  0
    8.8564    1.8932    0.0000 N   0  0  3  0  0  0  0  0  0  0  0  0
    5.9674   -1.3708    0.0000 N   0  0  0  0  0  0  0  0  0  0  0  0
    3.7320   -3.8323    0.0000 N   0  0  0  0  0  0  0  0  0  0  0  0
    4.6783   -4.1370    0.0000 N   0  0  0  0  0  0  0  0  0  0  0  0
    9.8349    2.0994    0.0000 C   0  0  1  0  0  0  0  0  0  0  0  0
   10.5028    1.3551    0.0000 C   0  0  0  0  0  0  0  0  0  0  0  0
   10.1456    3.0499    0.0000 C   0  0  0  0  0  0  0  0  0  0  0  0
    8.5458    0.9427    0.0000 C   0  0  0  0  0  0  0  0  0  0  0  0
   11.4813    1.5613    0.0000 C   0  0  0  0  0  0  0  0  0  0  0  0
    8.1886    2.6375    0.0000 C   0  0  0  0  0  0  0  0  0  0  0  0
    7.5673    0.7364    0.0000 C   0  0  0  0  0  0  0  0  0  0  0  0
   11.1241    3.2561    0.0000 C   0  0  0  0  0  0  0  0  0  0  0  0
   11.7920    2.5118    0.0000 C   0  0  0  0  0  0  0  0  0  0  0  0
    8.4993    3.5880    0.0000 C   0  0  0  0  0  0  0  0  0  0  0  0
    7.2566   -0.2141    0.0000 C   0  0  0  0  0  0  0  0  0  0  0  0
    6.2781   -0.4203    0.0000 C   0  0  0  0  0  0  0  0  0  0  0  0
    7.8314    4.3323    0.0000 C   0  0  0  0  0  0  0  0  0  0  0  0
   12.7705    2.7180    0.0000 C   0  0  0  0  0  0  0  0  0  0  0  0
    4.9889   -1.5770    0.0000 C   0  0  0  0  0  0  0  0  0  0  0  0
    4.6783   -2.5276    0.0000 C   0  0  0  0  0  0  0  0  0  0  0  0
   13.7490    2.9243    0.0000 C   0  0  0  0  0  0  0  0  0  0  0  0
    3.7320   -2.8323    0.0000 C   0  0  0  0  0  0  0  0  0  0  0  0
    5.2619   -3.3323    0.0000 C   0  0  0  0  0  0  0  0  0  0  0  0
    2.8660   -2.3323    0.0000 C   0  0  0  0  0  0  0  0  0  0  0  0
    2.8660   -4.3323    0.0000 C   0  0  0  0  0  0  0  0  0  0  0  0
    2.0000   -2.8323    0.0000 C   0  0  0  0  0  0  0  0  0  0  0  0
    2.0000   -3.8323    0.0000 C   0  0  0  0  0  0  0  0  0  0  0  0
    9.4209    2.5609    0.0000 H   0  0  0  0  0  0  0  0  0  0  0  0
    9.9764    1.0274    0.0000 H   0  0  0  0  0  0  0  0  0  0  0  0
   10.7340    0.7798    0.0000 H   0  0  0  0  0  0  0  0  0  0  0  0
   10.1250    3.6696    0.0000 H   0  0  0  0  0  0  0  0  0  0  0  0
    9.5318    3.1373    0.0000 H   0  0  0  0  0  0  0  0  0  0  0  0
    8.5663    0.3230    0.0000 H   0  0  0  0  0  0  0  0  0  0  0  0
    9.1596    0.8553    0.0000 H   0  0  0  0  0  0  0  0  0  0  0  0
   11.5019    0.9416    0.0000 H   0  0  0  0  0  0  0  0  0  0  0  0
   12.0951    1.4740    0.0000 H   0  0  0  0  0  0  0  0  0  0  0  0
    7.6417    2.9295    0.0000 H   0  0  0  0  0  0  0  0  0  0  0  0
    7.8060    2.1496    0.0000 H   0  0  0  0  0  0  0  0  0  0  0  0
    7.5467    1.3561    0.0000 H   0  0  0  0  0  0  0  0  0  0  0  0
    6.9534    0.8238    0.0000 H   0  0  0  0  0  0  0  0  0  0  0  0
   11.3167    3.8454    0.0000 H   0  0  0  0  0  0  0  0  0  0  0  0
    9.0462    3.2960    0.0000 H   0  0  0  0  0  0  0  0  0  0  0  0
    8.8818    4.0759    0.0000 H   0  0  0  0  0  0  0  0  0  0  0  0
    7.2772   -0.8337    0.0000 H   0  0  0  0  0  0  0  0  0  0  0  0
    7.8704   -0.3014    0.0000 H   0  0  0  0  0  0  0  0  0  0  0  0
    6.2575    0.1994    0.0000 H   0  0  0  0  0  0  0  0  0  0  0  0
    5.6643   -0.3330    0.0000 H   0  0  0  0  0  0  0  0  0  0  0  0
    8.2929    4.7464    0.0000 H   0  0  0  0  0  0  0  0  0  0  0  0
    7.4174    4.7938    0.0000 H   0  0  0  0  0  0  0  0  0  0  0  0
    7.3700    3.9182    0.0000 H   0  0  0  0  0  0  0  0  0  0  0  0
    6.3815   -1.8323    0.0000 H   0  0  0  0  0  0  0  0  0  0  0  0
   14.3556    3.0521    0.0000 H   0  0  0  0  0  0  0  0  0  0  0  0
    5.8819   -3.3323    0.0000 H   0  0  0  0  0  0  0  0  0  0  0  0
    2.8660   -1.7123    0.0000 H   0  0  0  0  0  0  0  0  0  0  0  0
    2.8660   -4.9523    0.0000 H   0  0  0  0  0  0  0  0  0  0  0  0
    1.4631   -2.5223    0.0000 H   0  0  0  0  0  0  0  0  0  0  0  0
    1.4631   -4.1423    0.0000 H   0  0  0  0  0  0  0  0  0  0  0  0
  1 20  2  0  0  0  0
  6  2  1  6  0  0  0
  2  9  1  0  0  0  0
  2 11  1  0  0  0  0
  3 17  1  0  0  0  0
  3 20  1  0  0  0  0
  3 52  1  0  0  0  0
  4  5  1  0  0  0  0
  4 23  1  0  0  0  0
  4 26  1  0  0  0  0
  5 24  2  0  0  0  0
  6  7  1  0  0  0  0
  6  8  1  0  0  0  0
  6 29  1  0  0  0  0
  7 10  1  0  0  0  0
  7 30  1  0  0  0  0
  7 31  1  0  0  0  0
  8 13  1  0  0  0  0
  8 32  1  0  0  0  0
  8 33  1  0  0  0  0
  9 12  1  0  0  0  0
  9 34  1  0  0  0  0
  9 35  1  0  0  0  0
 10 14  1  0  0  0  0
 10 36  1  0  0  0  0
 10 37  1  0  0  0  0
 11 15  1  0  0  0  0
 11 38  1  0  0  0  0
 11 39  1  0  0  0  0
 12 16  1  0  0  0  0
 12 40  1  0  0  0  0
 12 41  1  0  0  0  0
 13 14  2  0  0  0  0
 13 42  1  0  0  0  0
 14 19  1  0  0  0  0
 15 18  1  0  0  0  0
 15 43  1  0  0  0  0
 15 44  1  0  0  0  0
 16 17  1  0  0  0  0
 16 45  1  0  0  0  0
 16 46  1  0  0  0  0
 17 47  1  0  0  0  0
 17 48  1  0  0  0  0
 18 49  1  0  0  0  0
 18 50  1  0  0  0  0
 18 51  1  0  0  0  0
 19 22  3  0  0  0  0
 20 21  1  0  0  0  0
 21 23  2  0  0  0  0
 21 24  1  0  0  0  0
 22 53  1  0  0  0  0
 23 25  1  0  0  0  0
 24 54  1  0  0  0  0
 25 27  2  0  0  0  0
 25 55  1  0  0  0  0
 26 28  2  0  0  0  0
 26 56  1  0  0  0  0
 27 28  1  0  0  0  0
 27 57  1  0  0  0  0
 28 58  1  0  0  0  0
M  END
> <PUBCHEM_COMPOUND_CID>
71734127

> <PUBCHEM_COMPOUND_CANONICALIZED>
1

> <PUBCHEM_CACTVS_COMPLEXITY>
593

> <PUBCHEM_CACTVS_HBOND_ACCEPTOR>
3

> <PUBCHEM_CACTVS_HBOND_DONOR>
1

> <PUBCHEM_CACTVS_ROTATABLE_BOND>
10

> <PUBCHEM_CACTVS_SUBSKEYS>
AAADceB7oAAAAAAAAAAAAAAAAAAAAWAAAAAsQAAAAAAAAFgB4AAAHgAYAAAADCjBngQ+wLPIEADqGzV3VAiShCA1giAY2KE4ZNgIIPrA1dGEpYhgngDIyccYiECMAAAAAAAAAAAAAAAAAAAAAAAAAAAAAA==

> <PUBCHEM_IUPAC_OPENEYE_NAME>
N-[4-[[(1S)-4-ethynylcyclohex-3-en-1-yl]-propyl-amino]butyl]pyrazolo[1,5-a]pyridine-3-carboxamide

> <PUBCHEM_IUPAC_CAS_NAME>
N-[4-[[(1S)-4-ethynyl-1-cyclohex-3-enyl]-propylamino]butyl]-3-pyrazolo[1,5-a]pyridinecarboxamide

> <PUBCHEM_IUPAC_NAME_MARKUP>
<I>N</I>-[4-[[(1<I>S</I>)-4-ethynylcyclohex-3-en-1-yl]-propylamino]butyl]pyrazolo[1,5-a]pyridine-3-carboxamide

> <PUBCHEM_IUPAC_NAME>
N-[4-[[(1S)-4-ethynylcyclohex-3-en-1-yl]-propylamino]butyl]pyrazolo[1,5-a]pyridine-3-carboxamide

> <PUBCHEM_IUPAC_SYSTEMATIC_NAME>
N-[4-[[(1S)-4-ethynylcyclohex-3-en-1-yl]-propyl-amino]butyl]pyrazolo[1,5-a]pyridine-3-carboxamide

> <PUBCHEM_IUPAC_TRADITIONAL_NAME>
N-[4-[[(1S)-4-ethynylcyclohex-3-en-1-yl]-propyl-amino]butyl]pyrazolo[1,5-a]pyridine-3-carboxamide

> <PUBCHEM_IUPAC_INCHI>
InChI=1S/C23H30N4O/c1-3-15-26(20-12-10-19(4-2)11-13-20)16-8-6-14-24-23(28)21-18-25-27-17-7-5-9-22(21)27/h2,5,7,9-10,17-18,20H,3,6,8,11-16H2,1H3,(H,24,28)/t20-/m1/s1

> <PUBCHEM_IUPAC_INCHIKEY>
IDKIRFAIRCIGSS-HXUWFJFHSA-N

> <PUBCHEM_XLOGP3_AA>
3.4

> <PUBCHEM_EXACT_MASS>
378.24196159

> <PUBCHEM_MOLECULAR_FORMULA>
C23H30N4O

> <PUBCHEM_MOLECULAR_WEIGHT>
378.5

> <PUBCHEM_OPENEYE_CAN_SMILES>
CCCN(CCCCNC(=O)C1=C2C=CC=CN2N=C1)C3CCC(=CC3)C#C

> <PUBCHEM_OPENEYE_ISO_SMILES>
CCCN(CCCCNC(=O)C1=C2C=CC=CN2N=C1)[C@H]3CCC(=CC3)C#C

> <PUBCHEM_CACTVS_TPSA>
49.6

> <PUBCHEM_MONOISOTOPIC_WEIGHT>
378.24196159

> <PUBCHEM_TOTAL_CHARGE>
0

> <PUBCHEM_HEAVY_ATOM_COUNT>
28

> <PUBCHEM_ATOM_DEF_STEREO_COUNT>
1

> <PUBCHEM_ATOM_UDEF_STEREO_COUNT>
0

> <PUBCHEM_BOND_DEF_STEREO_COUNT>
0

> <PUBCHEM_BOND_UDEF_STEREO_COUNT>
0

> <PUBCHEM_ISOTOPIC_ATOM_COUNT>
0

> <PUBCHEM_COMPONENT_COUNT>
1

> <PUBCHEM_CACTVS_TAUTO_COUNT>
-1

> <PUBCHEM_COORDINATE_TYPE>
1
5
255

> <PUBCHEM_BONDANNOTATIONS>
6  2  6
21  23  8
21  24  8
23  25  8
25  27  8
26  28  8
27  28  8
4  23  8
4  26  8
4  5  8
5  24  8

$$$$
