118711255
  -OEChem-09292322472D

 53 56  0     1  0  0  0  0  0999 V2000
   11.3150   -2.0462    0.0000 Cl  0  0  0  0  0  0  0  0  0  0  0  0
    7.8547    1.0154    0.0000 O   0  0  0  0  0  0  0  0  0  0  0  0
    3.0000   -0.0087    0.0000 N   0  0  3  0  0  0  0  0  0  0  0  0
    7.8547   -1.0329    0.0000 N   0  0  0  0  0  0  0  0  0  0  0  0
    4.4088    1.1147    0.0000 C   0  0  3  0  0  0  0  0  0  0  0  0
    3.4339    0.8922    0.0000 C   0  0  0  0  0  0  0  0  0  0  0  0
    5.1906    0.4913    0.0000 C   0  0  0  0  0  0  0  0  0  0  0  0
    5.1906   -0.5087    0.0000 C   0  0  0  0  0  0  0  0  0  0  0  0
    4.4088   -1.1322    0.0000 C   0  0  0  0  0  0  0  0  0  0  0  0
    3.4339   -0.9097    0.0000 C   0  0  0  0  0  0  0  0  0  0  0  0
    4.6313    2.0897    0.0000 C   0  0  0  0  0  0  0  0  0  0  0  0
    6.0846    1.0259    0.0000 C   0  0  0  0  0  0  0  0  0  0  0  0
    6.0846   -1.0434    0.0000 C   0  0  0  0  0  0  0  0  0  0  0  0
    2.0000   -0.0087    0.0000 C   0  0  0  0  0  0  0  0  0  0  0  0
    6.9906   -0.5296    0.0000 C   0  0  0  0  0  0  0  0  0  0  0  0
    6.9906    0.5121    0.0000 C   0  0  0  0  0  0  0  0  0  0  0  0
    5.5869    2.3844    0.0000 C   0  0  0  0  0  0  0  0  0  0  0  0
    3.8983    2.7699    0.0000 C   0  0  0  0  0  0  0  0  0  0  0  0
    5.8094    3.3594    0.0000 C   0  0  0  0  0  0  0  0  0  0  0  0
    4.1208    3.7448    0.0000 C   0  0  0  0  0  0  0  0  0  0  0  0
    7.8509   -2.0329    0.0000 C   0  0  0  0  0  0  0  0  0  0  0  0
    5.0764    4.0395    0.0000 C   0  0  0  0  0  0  0  0  0  0  0  0
    8.7150   -2.5362    0.0000 C   0  0  0  0  0  0  0  0  0  0  0  0
    9.5829   -2.0396    0.0000 C   0  0  0  0  0  0  0  0  0  0  0  0
    8.7111   -3.5362    0.0000 C   0  0  0  0  0  0  0  0  0  0  0  0
   10.4470   -2.5429    0.0000 C   0  0  0  0  0  0  0  0  0  0  0  0
    9.5752   -4.0395    0.0000 C   0  0  0  0  0  0  0  0  0  0  0  0
   10.4432   -3.5429    0.0000 C   0  0  0  0  0  0  0  0  0  0  0  0
    3.9704    1.5532    0.0000 H   0  0  0  0  0  0  0  0  0  0  0  0
    3.4339    1.5122    0.0000 H   0  0  0  0  0  0  0  0  0  0  0  0
    2.8294    1.0302    0.0000 H   0  0  0  0  0  0  0  0  0  0  0  0
    4.1398   -1.6908    0.0000 H   0  0  0  0  0  0  0  0  0  0  0  0
    4.8936   -1.5188    0.0000 H   0  0  0  0  0  0  0  0  0  0  0  0
    2.8294   -1.0477    0.0000 H   0  0  0  0  0  0  0  0  0  0  0  0
    3.4339   -1.5297    0.0000 H   0  0  0  0  0  0  0  0  0  0  0  0
    6.0774    1.6459    0.0000 H   0  0  0  0  0  0  0  0  0  0  0  0
    6.0774   -1.6634    0.0000 H   0  0  0  0  0  0  0  0  0  0  0  0
    2.0000    0.6113    0.0000 H   0  0  0  0  0  0  0  0  0  0  0  0
    1.3800   -0.0087    0.0000 H   0  0  0  0  0  0  0  0  0  0  0  0
    2.0000   -0.6287    0.0000 H   0  0  0  0  0  0  0  0  0  0  0  0
    6.0414    1.9627    0.0000 H   0  0  0  0  0  0  0  0  0  0  0  0
    3.3058    2.5871    0.0000 H   0  0  0  0  0  0  0  0  0  0  0  0
    8.3929   -0.7250    0.0000 H   0  0  0  0  0  0  0  0  0  0  0  0
    6.4019    3.5421    0.0000 H   0  0  0  0  0  0  0  0  0  0  0  0
    3.6663    4.1665    0.0000 H   0  0  0  0  0  0  0  0  0  0  0  0
    7.2407   -1.9229    0.0000 H   0  0  0  0  0  0  0  0  0  0  0  0
    7.6366   -2.6147    0.0000 H   0  0  0  0  0  0  0  0  0  0  0  0
    5.2143    4.6440    0.0000 H   0  0  0  0  0  0  0  0  0  0  0  0
    7.8524    1.6354    0.0000 H   0  0  0  0  0  0  0  0  0  0  0  0
    9.5853   -1.4196    0.0000 H   0  0  0  0  0  0  0  0  0  0  0  0
    8.1730   -3.8441    0.0000 H   0  0  0  0  0  0  0  0  0  0  0  0
    9.5728   -4.6595    0.0000 H   0  0  0  0  0  0  0  0  0  0  0  0
   10.9789   -3.8550    0.0000 H   0  0  0  0  0  0  0  0  0  0  0  0
  1 26  1  0  0  0  0
  2 16  1  0  0  0  0
  2 49  1  0  0  0  0
  3  6  1  0  0  0  0
  3 10  1  0  0  0  0
  3 14  1  0  0  0  0
  4 15  1  0  0  0  0
  4 21  1  0  0  0  0
  4 43  1  0  0  0  0
  5  6  1  0  0  0  0
  5  7  1  0  0  0  0
  5 11  1  0  0  0  0
  5 29  1  0  0  0  0
  6 30  1  0  0  0  0
  6 31  1  0  0  0  0
  7  8  1  0  0  0  0
  7 12  2  0  0  0  0
  8  9  1  0  0  0  0
  8 13  2  0  0  0  0
  9 10  1  0  0  0  0
  9 32  1  0  0  0  0
  9 33  1  0  0  0  0
 10 34  1  0  0  0  0
 10 35  1  0  0  0  0
 11 17  2  0  0  0  0
 11 18  1  0  0  0  0
 12 16  1  0  0  0  0
 12 36  1  0  0  0  0
 13 15  1  0  0  0  0
 13 37  1  0  0  0  0
 14 38  1  0  0  0  0
 14 39  1  0  0  0  0
 14 40  1  0  0  0  0
 15 16  2  0  0  0  0
 17 19  1  0  0  0  0
 17 41  1  0  0  0  0
 18 20  2  0  0  0  0
 18 42  1  0  0  0  0
 19 22  2  0  0  0  0
 19 44  1  0  0  0  0
 20 22  1  0  0  0  0
 20 45  1  0  0  0  0
 21 23  1  0  0  0  0
 21 46  1  0  0  0  0
 21 47  1  0  0  0  0
 22 48  1  0  0  0  0
 23 24  2  0  0  0  0
 23 25  1  0  0  0  0
 24 26  1  0  0  0  0
 24 50  1  0  0  0  0
 25 27  2  0  0  0  0
 25 51  1  0  0  0  0
 26 28  2  0  0  0  0
 27 28  1  0  0  0  0
 27 52  1  0  0  0  0
 28 53  1  0  0  0  0
M  END
> <PUBCHEM_COMPOUND_CID>
118711255

> <PUBCHEM_COMPOUND_CANONICALIZED>
1

> <PUBCHEM_CACTVS_COMPLEXITY>
483

> <PUBCHEM_CACTVS_HBOND_ACCEPTOR>
3

> <PUBCHEM_CACTVS_HBOND_DONOR>
2

> <PUBCHEM_CACTVS_ROTATABLE_BOND>
4

> <PUBCHEM_CACTVS_SUBSKEYS>
AAADceB7IAAEAAAAAAAAAAAAAAAAAAAAAAAwYMAABYAAAAABUAAAHgIQCAAADQ7BmCQyxoPAAgCAAiRCQACCAAAhJwAIiIAPbogKJiLTk5OEcAhk0BHY2AeQ0PIOqAABYAAQEABQAALAACAgAAAAAAAAAA==

> <PUBCHEM_IUPAC_OPENEYE_NAME>
8-[(3-chlorophenyl)methylamino]-3-methyl-5-phenyl-1,2,4,5-tetrahydro-3-benzazepin-7-ol

> <PUBCHEM_IUPAC_CAS_NAME>
8-[(3-chlorophenyl)methylamino]-3-methyl-5-phenyl-1,2,4,5-tetrahydro-3-benzazepin-7-ol

> <PUBCHEM_IUPAC_NAME_MARKUP>
8-[(3-chlorophenyl)methylamino]-3-methyl-5-phenyl-1,2,4,5-tetrahydro-3-benzazepin-7-ol

> <PUBCHEM_IUPAC_NAME>
8-[(3-chlorophenyl)methylamino]-3-methyl-5-phenyl-1,2,4,5-tetrahydro-3-benzazepin-7-ol

> <PUBCHEM_IUPAC_SYSTEMATIC_NAME>
8-[(3-chlorophenyl)methylamino]-3-methyl-5-phenyl-1,2,4,5-tetrahydro-3-benzazepin-7-ol

> <PUBCHEM_IUPAC_TRADITIONAL_NAME>
8-[(3-chlorobenzyl)amino]-3-methyl-5-phenyl-1,2,4,5-tetrahydro-3-benzazepin-7-ol

> <PUBCHEM_IUPAC_INCHI>
InChI=1S/C24H25ClN2O/c1-27-11-10-19-13-23(26-15-17-6-5-9-20(25)12-17)24(28)14-21(19)22(16-27)18-7-3-2-4-8-18/h2-9,12-14,22,26,28H,10-11,15-16H2,1H3

> <PUBCHEM_IUPAC_INCHIKEY>
YHMQCSCPZGQBBF-UHFFFAOYSA-N

> <PUBCHEM_XLOGP3_AA>
5.5

> <PUBCHEM_EXACT_MASS>
392.1655411

> <PUBCHEM_MOLECULAR_FORMULA>
C24H25ClN2O

> <PUBCHEM_MOLECULAR_WEIGHT>
392.9

> <PUBCHEM_OPENEYE_CAN_SMILES>
CN1CCC2=CC(=C(C=C2C(C1)C3=CC=CC=C3)O)NCC4=CC(=CC=C4)Cl

> <PUBCHEM_OPENEYE_ISO_SMILES>
CN1CCC2=CC(=C(C=C2C(C1)C3=CC=CC=C3)O)NCC4=CC(=CC=C4)Cl

> <PUBCHEM_CACTVS_TPSA>
35.5

> <PUBCHEM_MONOISOTOPIC_WEIGHT>
392.1655411

> <PUBCHEM_TOTAL_CHARGE>
0

> <PUBCHEM_HEAVY_ATOM_COUNT>
28

> <PUBCHEM_ATOM_DEF_STEREO_COUNT>
0

> <PUBCHEM_ATOM_UDEF_STEREO_COUNT>
1

> <PUBCHEM_BOND_DEF_STEREO_COUNT>
0

> <PUBCHEM_BOND_UDEF_STEREO_COUNT>
0

> <PUBCHEM_ISOTOPIC_ATOM_COUNT>
0

> <PUBCHEM_COMPONENT_COUNT>
1

> <PUBCHEM_CACTVS_TAUTO_COUNT>
-1

> <PUBCHEM_COORDINATE_TYPE>
1
5
255

> <PUBCHEM_BONDANNOTATIONS>
11  17  8
11  18  8
12  16  8
13  15  8
15  16  8
17  19  8
18  20  8
19  22  8
20  22  8
23  24  8
23  25  8
24  26  8
25  27  8
26  28  8
27  28  8
5  11  3
7  12  8
7  8  8
8  13  8

$$$$
