45486879
  -OEChem-09292322292D

 55 60  0     1  0  0  0  0  0999 V2000
   14.8757    0.2289    0.0000 F   0  0  0  0  0  0  0  0  0  0  0  0
    5.1591    1.1240    0.0000 O   0  0  0  0  0  0  0  0  0  0  0  0
    5.7834   -0.8489    0.0000 O   0  0  0  0  0  0  0  0  0  0  0  0
    3.0616   -3.7095    0.0000 O   0  0  0  0  0  0  0  0  0  0  0  0
   12.0040    3.0895    0.0000 N   0  0  0  0  0  0  0  0  0  0  0  0
    7.8273    1.4364    0.0000 N   0  0  0  0  0  0  0  0  0  0  0  0
    2.6170   -1.9897    0.0000 N   0  0  0  0  0  0  0  0  0  0  0  0
    9.4766    1.9652    0.0000 C   0  0  3  0  0  0  0  0  0  0  0  0
    9.7985    0.9746    0.0000 C   0  0  0  0  0  0  0  0  0  0  0  0
   10.1796    2.7339    0.0000 C   0  0  0  0  0  0  0  0  0  0  0  0
   10.8190    0.7659    0.0000 C   0  0  0  0  0  0  0  0  0  0  0  0
   11.1950    2.5017    0.0000 C   0  0  0  0  0  0  0  0  0  0  0  0
   11.5040    1.5506    0.0000 C   0  0  0  0  0  0  0  0  0  0  0  0
    8.4993    2.1769    0.0000 C   0  0  0  0  0  0  0  0  0  0  0  0
   12.5040    1.5506    0.0000 C   0  0  0  0  0  0  0  0  0  0  0  0
   12.8130    2.5017    0.0000 C   0  0  0  0  0  0  0  0  0  0  0  0
    6.8500    1.6480    0.0000 C   0  0  0  0  0  0  0  0  0  0  0  0
    6.1780    0.9075    0.0000 C   0  0  1  0  0  0  0  0  0  0  0  0
   13.1889    0.7659    0.0000 C   0  0  0  0  0  0  0  0  0  0  0  0
    6.4922   -0.0856    0.0000 C   0  0  0  0  0  0  0  0  0  0  0  0
   13.8284    2.7339    0.0000 C   0  0  0  0  0  0  0  0  0  0  0  0
    4.7698   -0.6088    0.0000 C   0  0  0  0  0  0  0  0  0  0  0  0
    4.4681    0.3446    0.0000 C   0  0  0  0  0  0  0  0  0  0  0  0
    4.0949   -1.3468    0.0000 C   0  0  0  0  0  0  0  0  0  0  0  0
   14.2095    0.9746    0.0000 C   0  0  0  0  0  0  0  0  0  0  0  0
   14.5313    1.9652    0.0000 C   0  0  0  0  0  0  0  0  0  0  0  0
    3.1184   -1.1313    0.0000 C   0  0  0  0  0  0  0  0  0  0  0  0
    4.1886   -2.3364    0.0000 C   0  0  0  0  0  0  0  0  0  0  0  0
    3.4916    0.5601    0.0000 C   0  0  0  0  0  0  0  0  0  0  0  0
    2.8167   -0.1779    0.0000 C   0  0  0  0  0  0  0  0  0  0  0  0
    3.2771   -2.7329    0.0000 C   0  0  0  0  0  0  0  0  0  0  0  0
    9.2884    2.5560    0.0000 H   0  0  0  0  0  0  0  0  0  0  0  0
    9.1848    0.8867    0.0000 H   0  0  0  0  0  0  0  0  0  0  0  0
    9.7800    0.3549    0.0000 H   0  0  0  0  0  0  0  0  0  0  0  0
   10.4192    3.3058    0.0000 H   0  0  0  0  0  0  0  0  0  0  0  0
    9.6572    3.0679    0.0000 H   0  0  0  0  0  0  0  0  0  0  0  0
   10.5927    0.1887    0.0000 H   0  0  0  0  0  0  0  0  0  0  0  0
   11.3490    0.4441    0.0000 H   0  0  0  0  0  0  0  0  0  0  0  0
    8.7338    2.7509    0.0000 H   0  0  0  0  0  0  0  0  0  0  0  0
    7.9748    2.5075    0.0000 H   0  0  0  0  0  0  0  0  0  0  0  0
   12.0040    3.7095    0.0000 H   0  0  0  0  0  0  0  0  0  0  0  0
    8.0166    0.8460    0.0000 H   0  0  0  0  0  0  0  0  0  0  0  0
    7.0844    2.2220    0.0000 H   0  0  0  0  0  0  0  0  0  0  0  0
    6.3254    1.9786    0.0000 H   0  0  0  0  0  0  0  0  0  0  0  0
    5.9875    1.4975    0.0000 H   0  0  0  0  0  0  0  0  0  0  0  0
   12.9906    0.1785    0.0000 H   0  0  0  0  0  0  0  0  0  0  0  0
    6.8676   -0.5791    0.0000 H   0  0  0  0  0  0  0  0  0  0  0  0
    7.0426    0.1998    0.0000 H   0  0  0  0  0  0  0  0  0  0  0  0
   14.0132    3.3258    0.0000 H   0  0  0  0  0  0  0  0  0  0  0  0
   15.1373    2.0965    0.0000 H   0  0  0  0  0  0  0  0  0  0  0  0
    4.3748   -2.9278    0.0000 H   0  0  0  0  0  0  0  0  0  0  0  0
    4.7963   -2.2134    0.0000 H   0  0  0  0  0  0  0  0  0  0  0  0
    3.3045    1.1512    0.0000 H   0  0  0  0  0  0  0  0  0  0  0  0
    2.2113   -0.0443    0.0000 H   0  0  0  0  0  0  0  0  0  0  0  0
    2.0000   -2.0508    0.0000 H   0  0  0  0  0  0  0  0  0  0  0  0
  1 25  1  0  0  0  0
  2 18  1  0  0  0  0
  2 23  1  0  0  0  0
  3 20  1  0  0  0  0
  3 22  1  0  0  0  0
  4 31  2  0  0  0  0
  5 12  1  0  0  0  0
  5 16  1  0  0  0  0
  5 41  1  0  0  0  0
  6 14  1  0  0  0  0
  6 17  1  0  0  0  0
  6 42  1  0  0  0  0
  7 27  1  0  0  0  0
  7 31  1  0  0  0  0
  7 55  1  0  0  0  0
  8  9  1  0  0  0  0
  8 10  1  0  0  0  0
  8 14  1  0  0  0  0
  8 32  1  0  0  0  0
  9 11  1  0  0  0  0
  9 33  1  0  0  0  0
  9 34  1  0  0  0  0
 10 12  1  0  0  0  0
 10 35  1  0  0  0  0
 10 36  1  0  0  0  0
 11 13  1  0  0  0  0
 11 37  1  0  0  0  0
 11 38  1  0  0  0  0
 12 13  2  0  0  0  0
 13 15  1  0  0  0  0
 14 39  1  0  0  0  0
 14 40  1  0  0  0  0
 15 16  2  0  0  0  0
 15 19  1  0  0  0  0
 16 21  1  0  0  0  0
 18 17  1  1  0  0  0
 17 43  1  0  0  0  0
 17 44  1  0  0  0  0
 18 20  1  0  0  0  0
 18 45  1  0  0  0  0
 19 25  2  0  0  0  0
 19 46  1  0  0  0  0
 20 47  1  0  0  0  0
 20 48  1  0  0  0  0
 21 26  2  0  0  0  0
 21 49  1  0  0  0  0
 22 23  2  0  0  0  0
 22 24  1  0  0  0  0
 23 29  1  0  0  0  0
 24 27  2  0  0  0  0
 24 28  1  0  0  0  0
 25 26  1  0  0  0  0
 26 50  1  0  0  0  0
 27 30  1  0  0  0  0
 28 31  1  0  0  0  0
 28 51  1  0  0  0  0
 28 52  1  0  0  0  0
 29 30  2  0  0  0  0
 29 53  1  0  0  0  0
 30 54  1  0  0  0  0
M  END
> <PUBCHEM_COMPOUND_CID>
45486879

> <PUBCHEM_COMPOUND_CANONICALIZED>
1

> <PUBCHEM_CACTVS_COMPLEXITY>
681

> <PUBCHEM_CACTVS_HBOND_ACCEPTOR>
5

> <PUBCHEM_CACTVS_HBOND_DONOR>
3

> <PUBCHEM_CACTVS_ROTATABLE_BOND>
4

> <PUBCHEM_CACTVS_SUBSKEYS>
AAADceB7MQAAAAAAAAAAAAAAAAAAAWLAAAA0YMEAAAAAAFiR9AAAHwAQAAAADRzhng4wxvLJlACoAyVyVACCiCAhIiAImaE+7JgPJvLEtZuHOCrm1Bna6Ae+3PPOgEABAgAKQACAgAKEABSAAAAAAAAAAA==

> <PUBCHEM_IUPAC_OPENEYE_NAME>
(3S)-3-[[(6-fluoro-2,3,4,9-tetrahydro-1H-carbazol-2-yl)methylamino]methyl]-2,3,7,9-tetrahydro-[1,4]dioxino[2,3-e]indol-8-one

> <PUBCHEM_IUPAC_CAS_NAME>
(3S)-3-[[(6-fluoro-2,3,4,9-tetrahydro-1H-carbazol-2-yl)methylamino]methyl]-2,3,7,9-tetrahydro-[1,4]dioxino[2,3-e]indol-8-one

> <PUBCHEM_IUPAC_NAME_MARKUP>
(3<I>S</I>)-3-[[(6-fluoro-2,3,4,9-tetrahydro-1<I>H</I>-carbazol-2-yl)methylamino]methyl]-2,3,7,9-tetrahydro-[1,4]dioxino[2,3-e]indol-8-one

> <PUBCHEM_IUPAC_NAME>
(3S)-3-[[(6-fluoro-2,3,4,9-tetrahydro-1H-carbazol-2-yl)methylamino]methyl]-2,3,7,9-tetrahydro-[1,4]dioxino[2,3-e]indol-8-one

> <PUBCHEM_IUPAC_SYSTEMATIC_NAME>
(3S)-3-[[(6-fluoranyl-2,3,4,9-tetrahydro-1H-carbazol-2-yl)methylamino]methyl]-2,3,7,9-tetrahydro-[1,4]dioxino[2,3-e]indol-8-one

> <PUBCHEM_IUPAC_TRADITIONAL_NAME>
(3S)-3-[[(6-fluoro-2,3,4,9-tetrahydro-1H-carbazol-2-yl)methylamino]methyl]-2,3,7,9-tetrahydro-[1,4]dioxin[2,3-e]indol-8-one

> <PUBCHEM_IUPAC_INCHI>
InChI=1S/C24H24FN3O3/c25-14-2-4-19-17(8-14)16-3-1-13(7-21(16)27-19)10-26-11-15-12-30-24-18-9-23(29)28-20(18)5-6-22(24)31-15/h2,4-6,8,13,15,26-27H,1,3,7,9-12H2,(H,28,29)/t13?,15-/m0/s1

> <PUBCHEM_IUPAC_INCHIKEY>
STBOGIYRSOVWPV-WUJWULDRSA-N

> <PUBCHEM_XLOGP3_AA>
3

> <PUBCHEM_EXACT_MASS>
421.18016980

> <PUBCHEM_MOLECULAR_FORMULA>
C24H24FN3O3

> <PUBCHEM_MOLECULAR_WEIGHT>
421.5

> <PUBCHEM_OPENEYE_CAN_SMILES>
C1CC2=C(CC1CNCC3COC4=C(O3)C=CC5=C4CC(=O)N5)NC6=C2C=C(C=C6)F

> <PUBCHEM_OPENEYE_ISO_SMILES>
C1CC2=C(CC1CNC[C@H]3COC4=C(O3)C=CC5=C4CC(=O)N5)NC6=C2C=C(C=C6)F

> <PUBCHEM_CACTVS_TPSA>
75.4

> <PUBCHEM_MONOISOTOPIC_WEIGHT>
421.18016980

> <PUBCHEM_TOTAL_CHARGE>
0

> <PUBCHEM_HEAVY_ATOM_COUNT>
31

> <PUBCHEM_ATOM_DEF_STEREO_COUNT>
1

> <PUBCHEM_ATOM_UDEF_STEREO_COUNT>
1

> <PUBCHEM_BOND_DEF_STEREO_COUNT>
0

> <PUBCHEM_BOND_UDEF_STEREO_COUNT>
0

> <PUBCHEM_ISOTOPIC_ATOM_COUNT>
0

> <PUBCHEM_COMPONENT_COUNT>
1

> <PUBCHEM_CACTVS_TAUTO_COUNT>
-1

> <PUBCHEM_COORDINATE_TYPE>
1
5
255

> <PUBCHEM_BONDANNOTATIONS>
12  13  8
13  15  8
15  16  8
15  19  8
16  21  8
18  17  5
19  25  8
21  26  8
22  23  8
22  24  8
23  29  8
24  27  8
25  26  8
27  30  8
29  30  8
5  12  8
5  16  8
8  14  3

$$$$
