164626153
  -OEChem-09292322012D

 49 50  0     1  0  0  0  0  0999 V2000
    4.0281    3.5114    0.0000 S   0  0  0  0  0  0  0  0  0  0  0  0
    4.0756   -5.5818    0.0000 F   0  0  0  0  0  0  0  0  0  0  0  0
    5.8076   -0.5818    0.0000 O   0  0  0  0  0  0  0  0  0  0  0  0
    6.6737   -2.0818    0.0000 N   0  0  0  0  0  0  0  0  0  0  0  0
    6.6737    0.9182    0.0000 N   0  0  0  0  0  0  0  0  0  0  0  0
    3.8590    5.1206    0.0000 N   0  0  0  0  0  0  0  0  0  0  0  0
    7.5397   -0.5818    0.0000 N   0  0  0  0  0  0  0  0  0  0  0  0
    2.3644    4.1500    0.0000 N   0  0  0  0  0  0  0  0  0  0  0  0
    8.4057    0.9182    0.0000 N   0  0  0  0  0  0  0  0  0  0  0  0
    5.8076    3.4182    0.0000 C   0  0  0  0  0  0  0  0  0  0  0  0
    5.8076    2.4182    0.0000 C   0  0  0  0  0  0  0  0  0  0  0  0
    5.8076   -2.5818    0.0000 C   0  0  3  0  0  0  0  0  0  0  0  0
    4.9416    3.9182    0.0000 C   0  0  0  0  0  0  0  0  0  0  0  0
    5.8076   -3.5818    0.0000 C   0  0  0  0  0  0  0  0  0  0  0  0
    6.6737    1.9182    0.0000 C   0  0  0  0  0  0  0  0  0  0  0  0
    4.9416   -2.0818    0.0000 C   0  0  0  0  0  0  0  0  0  0  0  0
    4.8371    4.9127    0.0000 C   0  0  0  0  0  0  0  0  0  0  0  0
    4.9416   -4.0818    0.0000 C   0  0  0  0  0  0  0  0  0  0  0  0
    6.6737   -4.0818    0.0000 C   0  0  0  0  0  0  0  0  0  0  0  0
    6.6737   -1.0818    0.0000 C   0  0  0  0  0  0  0  0  0  0  0  0
    5.5802    5.5818    0.0000 C   0  0  0  0  0  0  0  0  0  0  0  0
    3.3590    4.2546    0.0000 C   0  0  0  0  0  0  0  0  0  0  0  0
    7.5397    0.4182    0.0000 C   0  0  0  0  0  0  0  0  0  0  0  0
    4.9416   -5.0818    0.0000 C   0  0  0  0  0  0  0  0  0  0  0  0
    6.6737   -5.0818    0.0000 C   0  0  0  0  0  0  0  0  0  0  0  0
    5.8076   -5.5818    0.0000 C   0  0  0  0  0  0  0  0  0  0  0  0
    6.4182    3.3105    0.0000 H   0  0  0  0  0  0  0  0  0  0  0  0
    6.0197    4.0008    0.0000 H   0  0  0  0  0  0  0  0  0  0  0  0
    5.1971    2.5258    0.0000 H   0  0  0  0  0  0  0  0  0  0  0  0
    5.5956    1.8356    0.0000 H   0  0  0  0  0  0  0  0  0  0  0  0
    5.8076   -1.9618    0.0000 H   0  0  0  0  0  0  0  0  0  0  0  0
    7.2843    1.8105    0.0000 H   0  0  0  0  0  0  0  0  0  0  0  0
    6.8857    2.5008    0.0000 H   0  0  0  0  0  0  0  0  0  0  0  0
    5.2516   -1.5449    0.0000 H   0  0  0  0  0  0  0  0  0  0  0  0
    4.4047   -1.7718    0.0000 H   0  0  0  0  0  0  0  0  0  0  0  0
    4.6316   -2.6188    0.0000 H   0  0  0  0  0  0  0  0  0  0  0  0
    7.2106   -2.3918    0.0000 H   0  0  0  0  0  0  0  0  0  0  0  0
    4.4047   -3.7718    0.0000 H   0  0  0  0  0  0  0  0  0  0  0  0
    7.2106   -3.7718    0.0000 H   0  0  0  0  0  0  0  0  0  0  0  0
    5.9951    5.1211    0.0000 H   0  0  0  0  0  0  0  0  0  0  0  0
    6.0410    5.9967    0.0000 H   0  0  0  0  0  0  0  0  0  0  0  0
    5.1654    6.0426    0.0000 H   0  0  0  0  0  0  0  0  0  0  0  0
    7.2106   -5.3918    0.0000 H   0  0  0  0  0  0  0  0  0  0  0  0
    8.0766   -0.8918    0.0000 H   0  0  0  0  0  0  0  0  0  0  0  0
    5.8076   -6.2018    0.0000 H   0  0  0  0  0  0  0  0  0  0  0  0
    2.0000    4.6516    0.0000 H   0  0  0  0  0  0  0  0  0  0  0  0
    2.1122    3.5837    0.0000 H   0  0  0  0  0  0  0  0  0  0  0  0
    8.4057    1.5382    0.0000 H   0  0  0  0  0  0  0  0  0  0  0  0
    8.9427    0.6082    0.0000 H   0  0  0  0  0  0  0  0  0  0  0  0
  1 13  1  0  0  0  0
  1 22  1  0  0  0  0
  2 24  1  0  0  0  0
  3 20  2  0  0  0  0
  4 12  1  0  0  0  0
  4 20  1  0  0  0  0
  4 37  1  0  0  0  0
  5 15  1  0  0  0  0
  5 23  2  0  0  0  0
  6 17  1  0  0  0  0
  6 22  2  0  0  0  0
  7 20  1  0  0  0  0
  7 23  1  0  0  0  0
  7 44  1  0  0  0  0
  8 22  1  0  0  0  0
  8 46  1  0  0  0  0
  8 47  1  0  0  0  0
  9 23  1  0  0  0  0
  9 48  1  0  0  0  0
  9 49  1  0  0  0  0
 10 11  1  0  0  0  0
 10 13  1  0  0  0  0
 10 27  1  0  0  0  0
 10 28  1  0  0  0  0
 11 15  1  0  0  0  0
 11 29  1  0  0  0  0
 11 30  1  0  0  0  0
 12 14  1  0  0  0  0
 12 16  1  0  0  0  0
 12 31  1  0  0  0  0
 13 17  2  0  0  0  0
 14 18  2  0  0  0  0
 14 19  1  0  0  0  0
 15 32  1  0  0  0  0
 15 33  1  0  0  0  0
 16 34  1  0  0  0  0
 16 35  1  0  0  0  0
 16 36  1  0  0  0  0
 17 21  1  0  0  0  0
 18 24  1  0  0  0  0
 18 38  1  0  0  0  0
 19 25  2  0  0  0  0
 19 39  1  0  0  0  0
 21 40  1  0  0  0  0
 21 41  1  0  0  0  0
 21 42  1  0  0  0  0
 24 26  2  0  0  0  0
 25 26  1  0  0  0  0
 25 43  1  0  0  0  0
 26 45  1  0  0  0  0
M  END
> <PUBCHEM_COMPOUND_CID>
164626153

> <PUBCHEM_COMPOUND_CANONICALIZED>
1

> <PUBCHEM_CACTVS_COMPLEXITY>
494

> <PUBCHEM_CACTVS_HBOND_ACCEPTOR>
6

> <PUBCHEM_CACTVS_HBOND_DONOR>
4

> <PUBCHEM_CACTVS_ROTATABLE_BOND>
7

> <PUBCHEM_CACTVS_SUBSKEYS>
AAADceB7oQBAAAAAAAAAAAAAAAAAAWAAAAAwAAAAAAAAAAABwAAAHwQQAAAADCjBXgwzkZLIEAisAyRidACC8KlhCDkJmJQ4RIiIICLgkRGEIAholwJIyCcQgIAOAAAAAAAAAAAAAAAAAAAAAAAAAAAAAA==

> <PUBCHEM_IUPAC_OPENEYE_NAME>
1-[N'-[3-(2-amino-4-methyl-thiazol-5-yl)propyl]carbamimidoyl]-3-[1-(3-fluorophenyl)ethyl]urea

> <PUBCHEM_IUPAC_CAS_NAME>
1-[amino-[3-(2-amino-4-methyl-5-thiazolyl)propylimino]methyl]-3-[1-(3-fluorophenyl)ethyl]urea

> <PUBCHEM_IUPAC_NAME_MARKUP>
1-[<I>N</I>&apos;-[3-(2-amino-4-methyl-1,3-thiazol-5-yl)propyl]carbamimidoyl]-3-[1-(3-fluorophenyl)ethyl]urea

> <PUBCHEM_IUPAC_NAME>
1-[N'-[3-(2-amino-4-methyl-1,3-thiazol-5-yl)propyl]carbamimidoyl]-3-[1-(3-fluorophenyl)ethyl]urea

> <PUBCHEM_IUPAC_SYSTEMATIC_NAME>
1-[N'-[3-(2-azanyl-4-methyl-1,3-thiazol-5-yl)propyl]carbamimidoyl]-3-[1-(3-fluorophenyl)ethyl]urea

> <PUBCHEM_IUPAC_TRADITIONAL_NAME>
1-[N'-[3-(2-amino-4-methyl-thiazol-5-yl)propyl]amidino]-3-[1-(3-fluorophenyl)ethyl]urea

> <PUBCHEM_IUPAC_INCHI>
InChI=1S/C17H23FN6OS/c1-10(12-5-3-6-13(18)9-12)23-17(25)24-15(19)21-8-4-7-14-11(2)22-16(20)26-14/h3,5-6,9-10H,4,7-8H2,1-2H3,(H2,20,22)(H4,19,21,23,24,25)

> <PUBCHEM_IUPAC_INCHIKEY>
FFKSIHLRCNTALR-UHFFFAOYSA-N

> <PUBCHEM_XLOGP3_AA>
2.7

> <PUBCHEM_EXACT_MASS>
378.16380871

> <PUBCHEM_MOLECULAR_FORMULA>
C17H23FN6OS

> <PUBCHEM_MOLECULAR_WEIGHT>
378.5

> <PUBCHEM_OPENEYE_CAN_SMILES>
CC1=C(SC(=N1)N)CCCN=C(N)NC(=O)NC(C)C2=CC(=CC=C2)F

> <PUBCHEM_OPENEYE_ISO_SMILES>
CC1=C(SC(=N1)N)CCCN=C(N)NC(=O)NC(C)C2=CC(=CC=C2)F

> <PUBCHEM_CACTVS_TPSA>
147

> <PUBCHEM_MONOISOTOPIC_WEIGHT>
378.16380871

> <PUBCHEM_TOTAL_CHARGE>
0

> <PUBCHEM_HEAVY_ATOM_COUNT>
26

> <PUBCHEM_ATOM_DEF_STEREO_COUNT>
0

> <PUBCHEM_ATOM_UDEF_STEREO_COUNT>
1

> <PUBCHEM_BOND_DEF_STEREO_COUNT>
0

> <PUBCHEM_BOND_UDEF_STEREO_COUNT>
0

> <PUBCHEM_ISOTOPIC_ATOM_COUNT>
0

> <PUBCHEM_COMPONENT_COUNT>
1

> <PUBCHEM_CACTVS_TAUTO_COUNT>
-1

> <PUBCHEM_COORDINATE_TYPE>
1
5
255

> <PUBCHEM_BONDANNOTATIONS>
1  13  8
1  22  8
12  16  3
13  17  8
14  18  8
14  19  8
18  24  8
19  25  8
24  26  8
25  26  8
6  17  8
6  22  8

$$$$
