46231993
  -OEChem-09292322292D

 52 56  0     1  0  0  0  0  0999 V2000
    2.1374    3.1460    0.0000 Cl  0  0  0  0  0  0  0  0  0  0  0  0
    8.1793   -4.0096    0.0000 F   0  0  0  0  0  0  0  0  0  0  0  0
    2.5932    1.1490    0.0000 O   0  0  0  0  0  0  0  0  0  0  0  0
    7.0983    3.2278    0.0000 N   0  0  3  0  0  0  0  0  0  0  0  0
    6.8758    2.2528    0.0000 C   0  0  2  0  0  0  0  0  0  0  0  0
    5.9748    1.8190    0.0000 C   0  0  2  0  0  0  0  0  0  0  0  0
    7.7453    1.6794    0.0000 C   0  0  0  0  0  0  0  0  0  0  0  0
    5.8810    0.7816    0.0000 C   0  0  0  0  0  0  0  0  0  0  0  0
    7.6755    0.6401    0.0000 C   0  0  0  0  0  0  0  0  0  0  0  0
    5.0738    2.2528    0.0000 C   0  0  0  0  0  0  0  0  0  0  0  0
    6.7370    0.1882    0.0000 C   0  0  0  0  0  0  0  0  0  0  0  0
    6.4748    4.0096    0.0000 C   0  0  0  0  0  0  0  0  0  0  0  0
    4.8513    3.2278    0.0000 C   0  0  0  0  0  0  0  0  0  0  0  0
    5.4748    4.0096    0.0000 C   0  0  0  0  0  0  0  0  0  0  0  0
    6.6643   -0.8944    0.0000 C   0  0  0  0  0  0  0  0  0  0  0  0
    8.0732    3.4503    0.0000 C   0  0  0  0  0  0  0  0  0  0  0  0
    4.8928    0.3335    0.0000 C   0  0  0  0  0  0  0  0  0  0  0  0
    4.3213    1.5327    0.0000 C   0  0  0  0  0  0  0  0  0  0  0  0
    3.8608    3.5501    0.0000 C   0  0  0  0  0  0  0  0  0  0  0  0
    5.6868   -1.3651    0.0000 C   0  0  0  0  0  0  0  0  0  0  0  0
    4.7950   -0.7470    0.0000 C   0  0  0  0  0  0  0  0  0  0  0  0
    3.3236    1.8320    0.0000 C   0  0  0  0  0  0  0  0  0  0  0  0
    7.4927   -1.4545    0.0000 C   0  0  0  0  0  0  0  0  0  0  0  0
    3.0918    2.8475    0.0000 C   0  0  0  0  0  0  0  0  0  0  0  0
    7.4218   -2.4520    0.0000 C   0  0  0  0  0  0  0  0  0  0  0  0
    8.3920   -1.0172    0.0000 C   0  0  0  0  0  0  0  0  0  0  0  0
    8.2502   -3.0121    0.0000 C   0  0  0  0  0  0  0  0  0  0  0  0
    9.2204   -1.5773    0.0000 C   0  0  0  0  0  0  0  0  0  0  0  0
    9.1495   -2.5748    0.0000 C   0  0  0  0  0  0  0  0  0  0  0  0
    7.6646    2.5695    0.0000 H   0  0  0  0  0  0  0  0  0  0  0  0
    5.2354    1.3996    0.0000 H   0  0  0  0  0  0  0  0  0  0  0  0
    8.3477    1.5326    0.0000 H   0  0  0  0  0  0  0  0  0  0  0  0
    7.9931    2.2478    0.0000 H   0  0  0  0  0  0  0  0  0  0  0  0
    7.8450    0.0437    0.0000 H   0  0  0  0  0  0  0  0  0  0  0  0
    8.2921    0.7050    0.0000 H   0  0  0  0  0  0  0  0  0  0  0  0
    7.0334    4.2786    0.0000 H   0  0  0  0  0  0  0  0  0  0  0  0
    6.3368    4.6141    0.0000 H   0  0  0  0  0  0  0  0  0  0  0  0
    5.6128    4.6141    0.0000 H   0  0  0  0  0  0  0  0  0  0  0  0
    4.9162    4.2786    0.0000 H   0  0  0  0  0  0  0  0  0  0  0  0
    8.2112    2.8458    0.0000 H   0  0  0  0  0  0  0  0  0  0  0  0
    8.6777    3.5883    0.0000 H   0  0  0  0  0  0  0  0  0  0  0  0
    7.9352    4.0548    0.0000 H   0  0  0  0  0  0  0  0  0  0  0  0
    4.3873    0.6926    0.0000 H   0  0  0  0  0  0  0  0  0  0  0  0
    4.4662    0.9298    0.0000 H   0  0  0  0  0  0  0  0  0  0  0  0
    3.7298    4.1561    0.0000 H   0  0  0  0  0  0  0  0  0  0  0  0
    5.6380   -1.9832    0.0000 H   0  0  0  0  0  0  0  0  0  0  0  0
    4.2334   -1.0096    0.0000 H   0  0  0  0  0  0  0  0  0  0  0  0
    6.8643   -2.7232    0.0000 H   0  0  0  0  0  0  0  0  0  0  0  0
    8.4359   -0.3987    0.0000 H   0  0  0  0  0  0  0  0  0  0  0  0
    2.0000    1.3295    0.0000 H   0  0  0  0  0  0  0  0  0  0  0  0
    9.7780   -1.3061    0.0000 H   0  0  0  0  0  0  0  0  0  0  0  0
    9.6631   -2.9220    0.0000 H   0  0  0  0  0  0  0  0  0  0  0  0
  1 24  1  0  0  0  0
  2 27  1  0  0  0  0
  3 22  1  0  0  0  0
  3 50  1  0  0  0  0
  4  5  1  0  0  0  0
  4 12  1  0  0  0  0
  4 16  1  0  0  0  0
  5  6  1  0  0  0  0
  5  7  1  0  0  0  0
  5 30  1  6  0  0  0
  6  8  1  0  0  0  0
  6 10  1  0  0  0  0
  6 31  1  1  0  0  0
  7  9  1  0  0  0  0
  7 32  1  0  0  0  0
  7 33  1  0  0  0  0
  8 11  1  0  0  0  0
  8 17  2  0  0  0  0
  9 11  1  0  0  0  0
  9 34  1  0  0  0  0
  9 35  1  0  0  0  0
 10 13  1  0  0  0  0
 10 18  2  0  0  0  0
 11 15  2  0  0  0  0
 12 14  1  0  0  0  0
 12 36  1  0  0  0  0
 12 37  1  0  0  0  0
 13 14  1  0  0  0  0
 13 19  2  0  0  0  0
 14 38  1  0  0  0  0
 14 39  1  0  0  0  0
 15 20  1  0  0  0  0
 15 23  1  0  0  0  0
 16 40  1  0  0  0  0
 16 41  1  0  0  0  0
 16 42  1  0  0  0  0
 17 21  1  0  0  0  0
 17 43  1  0  0  0  0
 18 22  1  0  0  0  0
 18 44  1  0  0  0  0
 19 24  1  0  0  0  0
 19 45  1  0  0  0  0
 20 21  2  0  0  0  0
 20 46  1  0  0  0  0
 21 47  1  0  0  0  0
 22 24  2  0  0  0  0
 23 25  2  0  0  0  0
 23 26  1  0  0  0  0
 25 27  1  0  0  0  0
 25 48  1  0  0  0  0
 26 28  2  0  0  0  0
 26 49  1  0  0  0  0
 27 29  2  0  0  0  0
 28 29  1  0  0  0  0
 28 51  1  0  0  0  0
 29 52  1  0  0  0  0
M  END
> <PUBCHEM_COMPOUND_CID>
46231993

> <PUBCHEM_COMPOUND_CANONICALIZED>
1

> <PUBCHEM_CACTVS_COMPLEXITY>
575

> <PUBCHEM_CACTVS_HBOND_ACCEPTOR>
3

> <PUBCHEM_CACTVS_HBOND_DONOR>
1

> <PUBCHEM_CACTVS_ROTATABLE_BOND>
1

> <PUBCHEM_CACTVS_SUBSKEYS>
AAADceB6IQAEAAAAAAAAAAAAAAAAAAAAAAAwYMGABYAAAADBUAAAHwIACAAADS7BmCwyBoMAAgCAAiBCAAACAAAgJUAIiAAOC4gIJiKDkxOEcAAkwBGImAeQ0PMOpAADIAAQCABYAAbAACQQAAAAAAAAAA==

> <PUBCHEM_IUPAC_OPENEYE_NAME>
(6aS,13bS)-11-chloro-4-(3-fluorophenyl)-7-methyl-5,6,6a,8,9,13b-hexahydronaphtho[1,2-a][3]benzazepin-12-ol

> <PUBCHEM_IUPAC_CAS_NAME>
(6aS,13bS)-11-chloro-4-(3-fluorophenyl)-7-methyl-5,6,6a,8,9,13b-hexahydronaphtho[1,2-a][3]benzazepin-12-ol

> <PUBCHEM_IUPAC_NAME_MARKUP>
(6<I>a</I><I>S</I>,13<I>b</I><I>S</I>)-11-chloro-4-(3-fluorophenyl)-7-methyl-5,6,6<I>a</I>,8,9,13<I>b</I>-hexahydronaphtho[1,2-a][3]benzazepin-12-ol

> <PUBCHEM_IUPAC_NAME>
(6aS,13bS)-11-chloro-4-(3-fluorophenyl)-7-methyl-5,6,6a,8,9,13b-hexahydronaphtho[1,2-a][3]benzazepin-12-ol

> <PUBCHEM_IUPAC_SYSTEMATIC_NAME>
(6aS,13bS)-11-chloranyl-4-(3-fluorophenyl)-7-methyl-5,6,6a,8,9,13b-hexahydronaphtho[1,2-a][3]benzazepin-12-ol

> <PUBCHEM_IUPAC_TRADITIONAL_NAME>
(6aS,13bS)-11-chloro-4-(3-fluorophenyl)-7-methyl-5,6,6a,8,9,13b-hexahydronaphtho[1,2-a][3]benzazepin-12-ol

> <PUBCHEM_IUPAC_INCHI>
InChI=1S/C25H23ClFNO/c1-28-11-10-16-13-22(26)24(29)14-21(16)25-20-7-3-6-18(19(20)8-9-23(25)28)15-4-2-5-17(27)12-15/h2-7,12-14,23,25,29H,8-11H2,1H3/t23-,25+/m0/s1

> <PUBCHEM_IUPAC_INCHIKEY>
ONKJNCWHGRFIII-UKILVPOCSA-N

> <PUBCHEM_XLOGP3_AA>
6.2

> <PUBCHEM_EXACT_MASS>
407.1452202

> <PUBCHEM_MOLECULAR_FORMULA>
C25H23ClFNO

> <PUBCHEM_MOLECULAR_WEIGHT>
407.9

> <PUBCHEM_OPENEYE_CAN_SMILES>
CN1CCC2=CC(=C(C=C2C3C1CCC4=C(C=CC=C34)C5=CC(=CC=C5)F)O)Cl

> <PUBCHEM_OPENEYE_ISO_SMILES>
CN1CCC2=CC(=C(C=C2[C@@H]3[C@@H]1CCC4=C(C=CC=C34)C5=CC(=CC=C5)F)O)Cl

> <PUBCHEM_CACTVS_TPSA>
23.5

> <PUBCHEM_MONOISOTOPIC_WEIGHT>
407.1452202

> <PUBCHEM_TOTAL_CHARGE>
0

> <PUBCHEM_HEAVY_ATOM_COUNT>
29

> <PUBCHEM_ATOM_DEF_STEREO_COUNT>
2

> <PUBCHEM_ATOM_UDEF_STEREO_COUNT>
0

> <PUBCHEM_BOND_DEF_STEREO_COUNT>
0

> <PUBCHEM_BOND_UDEF_STEREO_COUNT>
0

> <PUBCHEM_ISOTOPIC_ATOM_COUNT>
0

> <PUBCHEM_COMPONENT_COUNT>
1

> <PUBCHEM_CACTVS_TAUTO_COUNT>
-1

> <PUBCHEM_COORDINATE_TYPE>
1
5
255

> <PUBCHEM_BONDANNOTATIONS>
10  13  8
10  18  8
11  15  8
13  19  8
15  20  8
17  21  8
18  22  8
19  24  8
20  21  8
22  24  8
23  25  8
23  26  8
25  27  8
26  28  8
27  29  8
28  29  8
5  30  6
6  31  5
8  11  8
8  17  8

$$$$
