90656848
  -OEChem-09292322352D

271277  0     1  0  0  0  0  0999 V2000
   28.7356   17.1826    0.0000 S   0  0  0  0  0  0  0  0  0  0  0  0
    8.1892  -12.9356    0.0000 O   0  0  0  0  0  0  0  0  0  0  0  0
    8.9128  -15.7902    0.0000 O   0  0  0  0  0  0  0  0  0  0  0  0
   34.4419   15.3285    0.0000 O   0  0  0  0  0  0  0  0  0  0  0  0
    7.4460  -12.2665    0.0000 O   0  0  0  0  0  0  0  0  0  0  0  0
    6.3147  -13.2902    0.0000 O   0  0  0  0  0  0  0  0  0  0  0  0
   34.9772   16.9758    0.0000 O   0  0  0  0  0  0  0  0  0  0  0  0
   34.5613   18.9321    0.0000 O   0  0  0  0  0  0  0  0  0  0  0  0
    5.4245   -9.2809    0.0000 O   0  0  0  0  0  0  0  0  0  0  0  0
   11.1308   -7.4268    0.0000 O   0  0  0  0  0  0  0  0  0  0  0  0
    2.7166  -14.2902    0.0000 O   0  0  0  0  0  0  0  0  0  0  0  0
    3.5827  -15.7902    0.0000 O   0  0  0  0  0  0  0  0  0  0  0  0
    6.9993   -6.0375    0.0000 O   0  0  0  0  0  0  0  0  0  0  0  0
   26.9755   15.9038    0.0000 O   0  0  0  0  0  0  0  0  0  0  0  0
   25.8877   19.2517    0.0000 O   0  0  0  0  0  0  0  0  0  0  0  0
    7.2072   -5.0593    0.0000 O   0  0  0  0  0  0  0  0  0  0  0  0
    7.8309   -2.1249    0.0000 O   0  0  0  0  0  0  0  0  0  0  0  0
   23.4327   12.9610    0.0000 O   0  0  0  0  0  0  0  0  0  0  0  0
   20.3717   11.0558    0.0000 O   0  0  0  0  0  0  0  0  0  0  0  0
    9.9410   -0.5287    0.0000 O   0  0  0  0  0  0  0  0  0  0  0  0
   18.2616    9.4596    0.0000 O   0  0  0  0  0  0  0  0  0  0  0  0
   11.3078    1.7366    0.0000 O   0  0  0  0  0  0  0  0  0  0  0  0
   16.8948    7.1943    0.0000 O   0  0  0  0  0  0  0  0  0  0  0  0
   13.4179    3.3328    0.0000 O   0  0  0  0  0  0  0  0  0  0  0  0
   14.7847    5.5981    0.0000 O   0  0  0  0  0  0  0  0  0  0  0  0
   32.3170   12.3266    0.0000 N   0  0  3  0  0  0  0  0  0  0  0  0
    9.8834  -13.2957    0.0000 N   0  0  0  0  0  0  0  0  0  0  0  0
   32.7477   14.9684    0.0000 N   0  0  0  0  0  0  0  0  0  0  0  0
    8.0468  -14.2902    0.0000 N   0  0  0  0  0  0  0  0  0  0  0  0
    8.6050  -10.9793    0.0000 N   0  0  0  0  0  0  0  0  0  0  0  0
    7.1187   -9.6410    0.0000 N   0  0  0  0  0  0  0  0  0  0  0  0
    5.3147  -14.7902    0.0000 N   0  0  0  0  0  0  0  0  0  0  0  0
    5.4487  -17.7902    0.0000 N   0  0  0  0  0  0  0  0  0  0  0  0
    5.8403   -7.3246    0.0000 N   0  0  0  0  0  0  0  0  0  0  0  0
    3.4782  -11.7957    0.0000 N   0  0  0  0  0  0  0  0  0  0  0  0
   26.1665   17.4916    0.0000 N   0  0  0  0  0  0  0  0  0  0  0  0
    2.0000  -12.4538    0.0000 N   0  0  0  0  0  0  0  0  0  0  0  0
    4.5827  -19.2902    0.0000 N   0  0  0  0  0  0  0  0  0  0  0  0
    6.3147  -19.2902    0.0000 N   0  0  0  0  0  0  0  0  0  0  0  0
    5.5130   -4.6992    0.0000 N   0  0  0  0  0  0  0  0  0  0  0  0
    2.6327   -5.5251    0.0000 N   0  0  0  0  0  0  0  0  0  0  0  0
    2.8019   -3.9160    0.0000 N   0  0  0  0  0  0  0  0  0  0  0  0
   21.7385   13.3211    0.0000 N   0  0  0  0  0  0  0  0  0  0  0  0
   32.2125   13.3211    0.0000 C   0  0  1  0  0  0  0  0  0  0  0  0
   31.2344   13.5290    0.0000 C   0  0  0  0  0  0  0  0  0  0  0  0
   30.7344   12.6630    0.0000 C   0  0  0  0  0  0  0  0  0  0  0  0
   31.4035   11.9199    0.0000 C   0  0  0  0  0  0  0  0  0  0  0  0
   32.9556   13.9902    0.0000 C   0  0  0  0  0  0  0  0  0  0  0  0
   33.1831   11.8266    0.0000 C   0  0  0  0  0  0  0  0  0  0  0  0
    9.7788  -14.2902    0.0000 C   0  0  1  0  0  0  0  0  0  0  0  0
   10.6924  -14.6970    0.0000 C   0  0  0  0  0  0  0  0  0  0  0  0
   11.3615  -13.9538    0.0000 C   0  0  0  0  0  0  0  0  0  0  0  0
   10.8615  -13.0878    0.0000 C   0  0  0  0  0  0  0  0  0  0  0  0
    9.1402  -12.6266    0.0000 C   0  0  0  0  0  0  0  0  0  0  0  0
    8.9128  -14.7902    0.0000 C   0  0  0  0  0  0  0  0  0  0  0  0
   33.1831   10.8266    0.0000 C   0  0  0  0  0  0  0  0  0  0  0  0
    9.3481  -11.6484    0.0000 C   0  0  2  0  0  0  0  0  0  0  0  0
   33.4909   15.6375    0.0000 C   0  0  0  0  0  0  0  0  0  0  0  0
   10.2992  -11.3394    0.0000 C   0  0  0  0  0  0  0  0  0  0  0  0
    7.1808  -14.7902    0.0000 C   0  0  1  0  0  0  0  0  0  0  0  0
   34.0491   10.3266    0.0000 C   0  0  0  0  0  0  0  0  0  0  0  0
    7.1808  -15.7902    0.0000 C   0  0  0  0  0  0  0  0  0  0  0  0
    6.9108  -10.6192    0.0000 C   0  0  2  0  0  0  0  0  0  0  0  0
   33.2830   16.6157    0.0000 C   0  0  0  0  0  0  0  0  0  0  0  0
    7.6539  -11.2883    0.0000 C   0  0  0  0  0  0  0  0  0  0  0  0
    5.9597  -10.9282    0.0000 C   0  0  2  0  0  0  0  0  0  0  0  0
   10.5071  -10.3613    0.0000 C   0  0  0  0  0  0  0  0  0  0  0  0
    6.3147  -14.2902    0.0000 C   0  0  0  0  0  0  0  0  0  0  0  0
    6.3147  -16.2902    0.0000 C   0  0  0  0  0  0  0  0  0  0  0  0
    5.2166  -10.2591    0.0000 C   0  0  0  0  0  0  0  0  0  0  0  0
   32.3319   16.9247    0.0000 C   0  0  0  0  0  0  0  0  0  0  0  0
   34.0261   17.2848    0.0000 C   0  0  0  0  0  0  0  0  0  0  0  0
    5.7518  -11.9063    0.0000 C   0  0  0  0  0  0  0  0  0  0  0  0
    9.7640   -9.6921    0.0000 C   0  0  0  0  0  0  0  0  0  0  0  0
   11.4581  -10.0522    0.0000 C   0  0  0  0  0  0  0  0  0  0  0  0
   32.1240   17.9028    0.0000 C   0  0  0  0  0  0  0  0  0  0  0  0
    6.3147  -17.2902    0.0000 C   0  0  0  0  0  0  0  0  0  0  0  0
   33.8182   18.2629    0.0000 C   0  0  0  0  0  0  0  0  0  0  0  0
    4.4487  -14.2902    0.0000 C   0  0  1  0  0  0  0  0  0  0  0  0
    4.2655  -10.5681    0.0000 C   0  0  0  0  0  0  0  0  0  0  0  0
   32.8671   18.5720    0.0000 C   0  0  0  0  0  0  0  0  0  0  0  0
   31.1729   18.2118    0.0000 C   0  0  0  0  0  0  0  0  0  0  0  0
    6.3755   -8.9719    0.0000 C   0  0  0  0  0  0  0  0  0  0  0  0
    9.9719   -8.7140    0.0000 C   0  0  0  0  0  0  0  0  0  0  0  0
   11.6661   -9.0741    0.0000 C   0  0  0  0  0  0  0  0  0  0  0  0
    6.5835   -7.9938    0.0000 C   0  0  2  0  0  0  0  0  0  0  0  0
    4.4487  -13.2902    0.0000 C   0  0  0  0  0  0  0  0  0  0  0  0
   10.9229   -8.4050    0.0000 C   0  0  0  0  0  0  0  0  0  0  0  0
   30.4298   17.5427    0.0000 C   0  0  0  0  0  0  0  0  0  0  0  0
    3.5827  -14.7902    0.0000 C   0  0  0  0  0  0  0  0  0  0  0  0
   29.4787   17.8517    0.0000 C   0  0  0  0  0  0  0  0  0  0  0  0
    3.5827  -12.7902    0.0000 C   0  0  0  0  0  0  0  0  0  0  0  0
    7.5345   -7.6847    0.0000 C   0  0  0  0  0  0  0  0  0  0  0  0
   35.7203   17.6449    0.0000 C   0  0  0  0  0  0  0  0  0  0  0  0
   27.7845   17.4916    0.0000 C   0  0  3  0  0  0  0  0  0  0  0  0
    5.4487  -18.7902    0.0000 C   0  0  0  0  0  0  0  0  0  0  0  0
   34.3534   19.9102    0.0000 C   0  0  0  0  0  0  0  0  0  0  0  0
    6.0482   -6.3465    0.0000 C   0  0  0  0  0  0  0  0  0  0  0  0
   27.4755   18.4427    0.0000 C   0  0  0  0  0  0  0  0  0  0  0  0
    2.6691  -13.1970    0.0000 C   0  0  0  0  0  0  0  0  0  0  0  0
    5.3051   -5.6773    0.0000 C   0  0  2  0  0  0  0  0  0  0  0  0
   26.9755   16.9038    0.0000 C   0  0  0  0  0  0  0  0  0  0  0  0
   26.4755   18.4427    0.0000 C   0  0  0  0  0  0  0  0  0  0  0  0
   25.2154   17.1826    0.0000 C   0  0  0  0  0  0  0  0  0  0  0  0
    4.3540   -5.9864    0.0000 C   0  0  0  0  0  0  0  0  0  0  0  0
    2.5000  -11.5878    0.0000 C   0  0  0  0  0  0  0  0  0  0  0  0
   25.0075   16.2045    0.0000 C   0  0  0  0  0  0  0  0  0  0  0  0
   24.0565   15.8954    0.0000 C   0  0  0  0  0  0  0  0  0  0  0  0
    3.6109   -5.3172    0.0000 C   0  0  0  0  0  0  0  0  0  0  0  0
   23.8486   14.9173    0.0000 C   0  0  0  0  0  0  0  0  0  0  0  0
    6.4640   -4.3902    0.0000 C   0  0  0  0  0  0  0  0  0  0  0  0
   22.8975   14.6083    0.0000 C   0  0  0  0  0  0  0  0  0  0  0  0
    3.7154   -4.3227    0.0000 C   0  0  0  0  0  0  0  0  0  0  0  0
    6.6720   -3.4120    0.0000 C   0  0  0  0  0  0  0  0  0  0  0  0
    2.1327   -4.6591    0.0000 C   0  0  0  0  0  0  0  0  0  0  0  0
    7.6230   -3.1030    0.0000 C   0  0  0  0  0  0  0  0  0  0  0  0
   22.6896   13.6301    0.0000 C   0  0  0  0  0  0  0  0  0  0  0  0
   21.5306   12.3430    0.0000 C   0  0  0  0  0  0  0  0  0  0  0  0
    8.7820   -1.8158    0.0000 C   0  0  0  0  0  0  0  0  0  0  0  0
   20.5796   12.0339    0.0000 C   0  0  0  0  0  0  0  0  0  0  0  0
    8.9899   -0.8377    0.0000 C   0  0  0  0  0  0  0  0  0  0  0  0
   19.4206   10.7468    0.0000 C   0  0  0  0  0  0  0  0  0  0  0  0
   10.1489    0.4495    0.0000 C   0  0  0  0  0  0  0  0  0  0  0  0
   19.2127    9.7686    0.0000 C   0  0  0  0  0  0  0  0  0  0  0  0
   11.0999    0.7585    0.0000 C   0  0  0  0  0  0  0  0  0  0  0  0
   18.0537    8.4815    0.0000 C   0  0  0  0  0  0  0  0  0  0  0  0
   17.1027    8.1724    0.0000 C   0  0  0  0  0  0  0  0  0  0  0  0
   12.2589    2.0456    0.0000 C   0  0  0  0  0  0  0  0  0  0  0  0
   12.4668    3.0238    0.0000 C   0  0  0  0  0  0  0  0  0  0  0  0
   15.9437    6.8853    0.0000 C   0  0  0  0  0  0  0  0  0  0  0  0
   15.7358    5.9071    0.0000 C   0  0  0  0  0  0  0  0  0  0  0  0
   13.6258    4.3110    0.0000 C   0  0  0  0  0  0  0  0  0  0  0  0
   14.5768    4.6200    0.0000 C   0  0  0  0  0  0  0  0  0  0  0  0
   32.7913   13.0989    0.0000 H   0  0  0  0  0  0  0  0  0  0  0  0
   31.4259   14.1187    0.0000 H   0  0  0  0  0  0  0  0  0  0  0  0
   30.6680   13.7812    0.0000 H   0  0  0  0  0  0  0  0  0  0  0  0
   30.2328   13.0274    0.0000 H   0  0  0  0  0  0  0  0  0  0  0  0
   30.3195   12.2022    0.0000 H   0  0  0  0  0  0  0  0  0  0  0  0
   30.9019   11.5554    0.0000 H   0  0  0  0  0  0  0  0  0  0  0  0
   31.7135   11.3829    0.0000 H   0  0  0  0  0  0  0  0  0  0  0  0
   33.2842   13.4645    0.0000 H   0  0  0  0  0  0  0  0  0  0  0  0
   33.5305   14.2225    0.0000 H   0  0  0  0  0  0  0  0  0  0  0  0
   33.7936   11.7189    0.0000 H   0  0  0  0  0  0  0  0  0  0  0  0
   33.3951   12.4092    0.0000 H   0  0  0  0  0  0  0  0  0  0  0  0
    9.2588  -13.9525    0.0000 H   0  0  0  0  0  0  0  0  0  0  0  0
   10.3824  -15.2339    0.0000 H   0  0  0  0  0  0  0  0  0  0  0  0
   11.1940  -15.0614    0.0000 H   0  0  0  0  0  0  0  0  0  0  0  0
   11.7764  -14.4146    0.0000 H   0  0  0  0  0  0  0  0  0  0  0  0
   11.8631  -13.5894    0.0000 H   0  0  0  0  0  0  0  0  0  0  0  0
   11.4279  -12.8356    0.0000 H   0  0  0  0  0  0  0  0  0  0  0  0
   10.6699  -12.4981    0.0000 H   0  0  0  0  0  0  0  0  0  0  0  0
   32.1581   15.1600    0.0000 H   0  0  0  0  0  0  0  0  0  0  0  0
   32.6461   10.5166    0.0000 H   0  0  0  0  0  0  0  0  0  0  0  0
    9.4770  -11.0420    0.0000 H   0  0  0  0  0  0  0  0  0  0  0  0
    8.0468  -13.6702    0.0000 H   0  0  0  0  0  0  0  0  0  0  0  0
   10.3855  -11.9534    0.0000 H   0  0  0  0  0  0  0  0  0  0  0  0
   10.9188  -11.3610    0.0000 H   0  0  0  0  0  0  0  0  0  0  0  0
    7.7177  -15.1002    0.0000 H   0  0  0  0  0  0  0  0  0  0  0  0
    8.7339  -10.3728    0.0000 H   0  0  0  0  0  0  0  0  0  0  0  0
    7.3928  -16.3728    0.0000 H   0  0  0  0  0  0  0  0  0  0  0  0
    7.7913  -15.6826    0.0000 H   0  0  0  0  0  0  0  0  0  0  0  0
   34.0491    9.7066    0.0000 H   0  0  0  0  0  0  0  0  0  0  0  0
   34.5860   10.6366    0.0000 H   0  0  0  0  0  0  0  0  0  0  0  0
    6.4500  -10.2043    0.0000 H   0  0  0  0  0  0  0  0  0  0  0  0
    6.4205  -11.3431    0.0000 H   0  0  0  0  0  0  0  0  0  0  0  0
    6.1027  -15.7076    0.0000 H   0  0  0  0  0  0  0  0  0  0  0  0
    5.7042  -16.3979    0.0000 H   0  0  0  0  0  0  0  0  0  0  0  0
    5.7051   -9.8774    0.0000 H   0  0  0  0  0  0  0  0  0  0  0  0
    4.9255   -9.7116    0.0000 H   0  0  0  0  0  0  0  0  0  0  0  0
   31.8712   16.5098    0.0000 H   0  0  0  0  0  0  0  0  0  0  0  0
    7.7083   -9.4494    0.0000 H   0  0  0  0  0  0  0  0  0  0  0  0
    5.1454  -11.7774    0.0000 H   0  0  0  0  0  0  0  0  0  0  0  0
    5.6229  -12.5128    0.0000 H   0  0  0  0  0  0  0  0  0  0  0  0
    6.3583  -12.0352    0.0000 H   0  0  0  0  0  0  0  0  0  0  0  0
    9.1743   -9.8837    0.0000 H   0  0  0  0  0  0  0  0  0  0  0  0
   11.9189  -10.4671    0.0000 H   0  0  0  0  0  0  0  0  0  0  0  0
    5.8517  -15.1002    0.0000 H   0  0  0  0  0  0  0  0  0  0  0  0
    6.5268  -17.8728    0.0000 H   0  0  0  0  0  0  0  0  0  0  0  0
    6.9253  -17.1826    0.0000 H   0  0  0  0  0  0  0  0  0  0  0  0
    4.9856  -13.9802    0.0000 H   0  0  0  0  0  0  0  0  0  0  0  0
    4.0739   -9.9784    0.0000 H   0  0  0  0  0  0  0  0  0  0  0  0
    3.6759  -10.7597    0.0000 H   0  0  0  0  0  0  0  0  0  0  0  0
    4.4571  -11.1577    0.0000 H   0  0  0  0  0  0  0  0  0  0  0  0
   32.7382   19.1784    0.0000 H   0  0  0  0  0  0  0  0  0  0  0  0
   31.4640   18.7593    0.0000 H   0  0  0  0  0  0  0  0  0  0  0  0
   30.6844   18.5936    0.0000 H   0  0  0  0  0  0  0  0  0  0  0  0
    9.5111   -8.2991    0.0000 H   0  0  0  0  0  0  0  0  0  0  0  0
   12.2557   -8.8825    0.0000 H   0  0  0  0  0  0  0  0  0  0  0  0
    5.9938   -8.1853    0.0000 H   0  0  0  0  0  0  0  0  0  0  0  0
    5.0593  -13.3979    0.0000 H   0  0  0  0  0  0  0  0  0  0  0  0
    4.6608  -12.7076    0.0000 H   0  0  0  0  0  0  0  0  0  0  0  0
   30.1387   16.9953    0.0000 H   0  0  0  0  0  0  0  0  0  0  0  0
   30.9184   17.1610    0.0000 H   0  0  0  0  0  0  0  0  0  0  0  0
   29.7698   18.3992    0.0000 H   0  0  0  0  0  0  0  0  0  0  0  0
   28.9902   18.2334    0.0000 H   0  0  0  0  0  0  0  0  0  0  0  0
    7.7261   -8.2744    0.0000 H   0  0  0  0  0  0  0  0  0  0  0  0
    8.1242   -7.4931    0.0000 H   0  0  0  0  0  0  0  0  0  0  0  0
    7.3429   -7.0951    0.0000 H   0  0  0  0  0  0  0  0  0  0  0  0
    5.2507   -7.5162    0.0000 H   0  0  0  0  0  0  0  0  0  0  0  0
   36.1352   17.1842    0.0000 H   0  0  0  0  0  0  0  0  0  0  0  0
   36.1811   18.0598    0.0000 H   0  0  0  0  0  0  0  0  0  0  0  0
   35.3055   18.1057    0.0000 H   0  0  0  0  0  0  0  0  0  0  0  0
   27.8815   16.8793    0.0000 H   0  0  0  0  0  0  0  0  0  0  0  0
   11.7205   -7.2352    0.0000 H   0  0  0  0  0  0  0  0  0  0  0  0
   34.9599   20.0391    0.0000 H   0  0  0  0  0  0  0  0  0  0  0  0
   34.2245   20.5167    0.0000 H   0  0  0  0  0  0  0  0  0  0  0  0
   33.7470   19.7813    0.0000 H   0  0  0  0  0  0  0  0  0  0  0  0
   28.0820   18.5716    0.0000 H   0  0  0  0  0  0  0  0  0  0  0  0
   27.4107   19.0593    0.0000 H   0  0  0  0  0  0  0  0  0  0  0  0
    3.9389  -11.3808    0.0000 H   0  0  0  0  0  0  0  0  0  0  0  0
    2.5402  -13.8034    0.0000 H   0  0  0  0  0  0  0  0  0  0  0  0
    4.8443   -5.2625    0.0000 H   0  0  0  0  0  0  0  0  0  0  0  0
    2.1797  -14.6002    0.0000 H   0  0  0  0  0  0  0  0  0  0  0  0
   25.1292   17.7966    0.0000 H   0  0  0  0  0  0  0  0  0  0  0  0
   24.5958   17.2042    0.0000 H   0  0  0  0  0  0  0  0  0  0  0  0
    3.8654   -6.3681    0.0000 H   0  0  0  0  0  0  0  0  0  0  0  0
    4.6451   -6.5338    0.0000 H   0  0  0  0  0  0  0  0  0  0  0  0
    2.2478  -11.0214    0.0000 H   0  0  0  0  0  0  0  0  0  0  0  0
   25.0938   15.5905    0.0000 H   0  0  0  0  0  0  0  0  0  0  0  0
   25.6272   16.1828    0.0000 H   0  0  0  0  0  0  0  0  0  0  0  0
    4.5827  -19.9102    0.0000 H   0  0  0  0  0  0  0  0  0  0  0  0
    4.0457  -18.9802    0.0000 H   0  0  0  0  0  0  0  0  0  0  0  0
    6.3147  -19.9102    0.0000 H   0  0  0  0  0  0  0  0  0  0  0  0
    6.8517  -18.9802    0.0000 H   0  0  0  0  0  0  0  0  0  0  0  0
    5.0522   -4.2843    0.0000 H   0  0  0  0  0  0  0  0  0  0  0  0
   23.9702   16.5094    0.0000 H   0  0  0  0  0  0  0  0  0  0  0  0
   23.4369   15.9171    0.0000 H   0  0  0  0  0  0  0  0  0  0  0  0
   23.9349   14.3033    0.0000 H   0  0  0  0  0  0  0  0  0  0  0  0
   24.4682   14.8957    0.0000 H   0  0  0  0  0  0  0  0  0  0  0  0
   22.8112   15.2222    0.0000 H   0  0  0  0  0  0  0  0  0  0  0  0
   22.2779   14.6299    0.0000 H   0  0  0  0  0  0  0  0  0  0  0  0
    2.3806   -6.0915    0.0000 H   0  0  0  0  0  0  0  0  0  0  0  0
    4.2523   -4.0127    0.0000 H   0  0  0  0  0  0  0  0  0  0  0  0
    6.5857   -2.7981    0.0000 H   0  0  0  0  0  0  0  0  0  0  0  0
    6.0523   -3.3904    0.0000 H   0  0  0  0  0  0  0  0  0  0  0  0
    1.5161   -4.5943    0.0000 H   0  0  0  0  0  0  0  0  0  0  0  0
    7.7093   -3.7170    0.0000 H   0  0  0  0  0  0  0  0  0  0  0  0
    8.2426   -3.1246    0.0000 H   0  0  0  0  0  0  0  0  0  0  0  0
   21.2778   13.7360    0.0000 H   0  0  0  0  0  0  0  0  0  0  0  0
   21.6169   11.7290    0.0000 H   0  0  0  0  0  0  0  0  0  0  0  0
   22.1503   12.3213    0.0000 H   0  0  0  0  0  0  0  0  0  0  0  0
    8.8683   -2.4298    0.0000 H   0  0  0  0  0  0  0  0  0  0  0  0
    9.4016   -1.8375    0.0000 H   0  0  0  0  0  0  0  0  0  0  0  0
   20.4933   12.6479    0.0000 H   0  0  0  0  0  0  0  0  0  0  0  0
   19.9600   12.0556    0.0000 H   0  0  0  0  0  0  0  0  0  0  0  0
    8.9036   -0.2237    0.0000 H   0  0  0  0  0  0  0  0  0  0  0  0
    8.3703   -0.8161    0.0000 H   0  0  0  0  0  0  0  0  0  0  0  0
   19.3343   11.3607    0.0000 H   0  0  0  0  0  0  0  0  0  0  0  0
   18.8010   10.7684    0.0000 H   0  0  0  0  0  0  0  0  0  0  0  0
   10.0626    1.0634    0.0000 H   0  0  0  0  0  0  0  0  0  0  0  0
    9.5292    0.4711    0.0000 H   0  0  0  0  0  0  0  0  0  0  0  0
   19.2990    9.1547    0.0000 H   0  0  0  0  0  0  0  0  0  0  0  0
   19.8323    9.7470    0.0000 H   0  0  0  0  0  0  0  0  0  0  0  0
   11.1862    0.1445    0.0000 H   0  0  0  0  0  0  0  0  0  0  0  0
   11.7195    0.7368    0.0000 H   0  0  0  0  0  0  0  0  0  0  0  0
   18.1400    7.8675    0.0000 H   0  0  0  0  0  0  0  0  0  0  0  0
   18.6734    8.4598    0.0000 H   0  0  0  0  0  0  0  0  0  0  0  0
   17.0164    8.7864    0.0000 H   0  0  0  0  0  0  0  0  0  0  0  0
   16.4830    8.1941    0.0000 H   0  0  0  0  0  0  0  0  0  0  0  0
   12.3452    1.4317    0.0000 H   0  0  0  0  0  0  0  0  0  0  0  0
   12.8785    2.0240    0.0000 H   0  0  0  0  0  0  0  0  0  0  0  0
   12.3805    3.6378    0.0000 H   0  0  0  0  0  0  0  0  0  0  0  0
   11.8472    3.0454    0.0000 H   0  0  0  0  0  0  0  0  0  0  0  0
   15.8574    7.4992    0.0000 H   0  0  0  0  0  0  0  0  0  0  0  0
   15.3241    6.9069    0.0000 H   0  0  0  0  0  0  0  0  0  0  0  0
   15.8221    5.2932    0.0000 H   0  0  0  0  0  0  0  0  0  0  0  0
   16.3554    5.8855    0.0000 H   0  0  0  0  0  0  0  0  0  0  0  0
   13.5395    4.9249    0.0000 H   0  0  0  0  0  0  0  0  0  0  0  0
   13.0061    4.3326    0.0000 H   0  0  0  0  0  0  0  0  0  0  0  0
   14.6631    4.0060    0.0000 H   0  0  0  0  0  0  0  0  0  0  0  0
   15.1964    4.5983    0.0000 H   0  0  0  0  0  0  0  0  0  0  0  0
  1 91  1  0  0  0  0
  1 95  1  0  0  0  0
  2 54  2  0  0  0  0
  3 55  2  0  0  0  0
  4 58  2  0  0  0  0
  5 65  2  0  0  0  0
  6 68  2  0  0  0  0
  7 72  1  0  0  0  0
  7 94  1  0  0  0  0
  8 78  1  0  0  0  0
  8 97  1  0  0  0  0
  9 83  2  0  0  0  0
 10 88  1  0  0  0  0
 10204  1  0  0  0  0
 11 90  1  0  0  0  0
 11213  1  0  0  0  0
 12 90  2  0  0  0  0
 13 98  2  0  0  0  0
 14102  2  0  0  0  0
 15103  2  0  0  0  0
 16111  2  0  0  0  0
 17116  1  0  0  0  0
 17119  1  0  0  0  0
 18117  2  0  0  0  0
 19120  1  0  0  0  0
 19122  1  0  0  0  0
 20121  1  0  0  0  0
 20123  1  0  0  0  0
 21124  1  0  0  0  0
 21126  1  0  0  0  0
 22125  1  0  0  0  0
 22128  1  0  0  0  0
 23127  1  0  0  0  0
 23130  1  0  0  0  0
 24129  1  0  0  0  0
 24132  1  0  0  0  0
 25131  1  0  0  0  0
 25133  1  0  0  0  0
 26 44  1  0  0  0  0
 26 47  1  0  0  0  0
 26 49  1  0  0  0  0
 27 50  1  0  0  0  0
 27 53  1  0  0  0  0
 27 54  1  0  0  0  0
 28 48  1  0  0  0  0
 28 58  1  0  0  0  0
 28152  1  0  0  0  0
 29 55  1  0  0  0  0
 60 29  1  1  0  0  0
 29155  1  0  0  0  0
 57 30  1  1  0  0  0
 30 65  1  0  0  0  0
 30159  1  0  0  0  0
 63 31  1  6  0  0  0
 31 83  1  0  0  0  0
 31171  1  0  0  0  0
 32 68  1  0  0  0  0
 79 32  1  6  0  0  0
 32177  1  0  0  0  0
 33 77  1  0  0  0  0
 33 96  2  0  0  0  0
 86 34  1  1  0  0  0
 34 98  1  0  0  0  0
 34199  1  0  0  0  0
 35 92  1  0  0  0  0
 35106  1  0  0  0  0
 35210  1  0  0  0  0
 36102  1  0  0  0  0
 36103  1  0  0  0  0
 36104  1  0  0  0  0
 37100  1  0  0  0  0
 37106  2  0  0  0  0
 38 96  1  0  0  0  0
 38221  1  0  0  0  0
 38222  1  0  0  0  0
 39 96  1  0  0  0  0
 39223  1  0  0  0  0
 39224  1  0  0  0  0
101 40  1  6  0  0  0
 40111  1  0  0  0  0
 40225  1  0  0  0  0
 41109  1  0  0  0  0
 41115  1  0  0  0  0
 41232  1  0  0  0  0
 42113  1  0  0  0  0
 42115  2  0  0  0  0
 43117  1  0  0  0  0
 43118  1  0  0  0  0
 43239  1  0  0  0  0
 44 45  1  0  0  0  0
 44 48  1  1  0  0  0
 44134  1  0  0  0  0
 45 46  1  0  0  0  0
 45135  1  0  0  0  0
 45136  1  0  0  0  0
 46 47  1  0  0  0  0
 46137  1  0  0  0  0
 46138  1  0  0  0  0
 47139  1  0  0  0  0
 47140  1  0  0  0  0
 48141  1  0  0  0  0
 48142  1  0  0  0  0
 49 56  1  0  0  0  0
 49143  1  0  0  0  0
 49144  1  0  0  0  0
 50 51  1  0  0  0  0
 50 55  1  1  0  0  0
 50145  1  0  0  0  0
 51 52  1  0  0  0  0
 51146  1  0  0  0  0
 51147  1  0  0  0  0
 52 53  1  0  0  0  0
 52148  1  0  0  0  0
 52149  1  0  0  0  0
 53150  1  0  0  0  0
 53151  1  0  0  0  0
 54 57  1  0  0  0  0
 56 61  2  0  0  0  0
 56153  1  0  0  0  0
 57 59  1  0  0  0  0
 57154  1  0  0  0  0
 58 64  1  0  0  0  0
 59 67  1  0  0  0  0
 59156  1  0  0  0  0
 59157  1  0  0  0  0
 60 62  1  0  0  0  0
 60 68  1  0  0  0  0
 60158  1  0  0  0  0
 61162  1  0  0  0  0
 61163  1  0  0  0  0
 62 69  1  0  0  0  0
 62160  1  0  0  0  0
 62161  1  0  0  0  0
 63 65  1  0  0  0  0
 63 66  1  0  0  0  0
 63164  1  0  0  0  0
 64 71  1  0  0  0  0
 64 72  2  0  0  0  0
 66 70  1  0  0  0  0
 66 73  1  1  0  0  0
 66165  1  0  0  0  0
 67 74  2  0  0  0  0
 67 75  1  0  0  0  0
 69 77  1  0  0  0  0
 69166  1  0  0  0  0
 69167  1  0  0  0  0
 70 80  1  0  0  0  0
 70168  1  0  0  0  0
 70169  1  0  0  0  0
 71 76  2  0  0  0  0
 71170  1  0  0  0  0
 72 78  1  0  0  0  0
 73172  1  0  0  0  0
 73173  1  0  0  0  0
 73174  1  0  0  0  0
 74 84  1  0  0  0  0
 74175  1  0  0  0  0
 75 85  2  0  0  0  0
 75176  1  0  0  0  0
 76 81  1  0  0  0  0
 76 82  1  0  0  0  0
 77178  1  0  0  0  0
 77179  1  0  0  0  0
 78 81  2  0  0  0  0
 79 87  1  0  0  0  0
 79 90  1  0  0  0  0
 79180  1  0  0  0  0
 80181  1  0  0  0  0
 80182  1  0  0  0  0
 80183  1  0  0  0  0
 81184  1  0  0  0  0
 82 89  1  0  0  0  0
 82185  1  0  0  0  0
 82186  1  0  0  0  0
 83 86  1  0  0  0  0
 84 88  2  0  0  0  0
 84187  1  0  0  0  0
 85 88  1  0  0  0  0
 85188  1  0  0  0  0
 86 93  1  0  0  0  0
 86189  1  0  0  0  0
 87 92  1  0  0  0  0
 87190  1  0  0  0  0
 87191  1  0  0  0  0
 89 91  1  0  0  0  0
 89192  1  0  0  0  0
 89193  1  0  0  0  0
 91194  1  0  0  0  0
 91195  1  0  0  0  0
 92100  2  0  0  0  0
 93196  1  0  0  0  0
 93197  1  0  0  0  0
 93198  1  0  0  0  0
 94200  1  0  0  0  0
 94201  1  0  0  0  0
 94202  1  0  0  0  0
 95 99  1  0  0  0  0
 95102  1  0  0  0  0
 95203  1  0  0  0  0
 97205  1  0  0  0  0
 97206  1  0  0  0  0
 97207  1  0  0  0  0
 98101  1  0  0  0  0
 99103  1  0  0  0  0
 99208  1  0  0  0  0
 99209  1  0  0  0  0
100211  1  0  0  0  0
101105  1  0  0  0  0
101212  1  0  0  0  0
104107  1  0  0  0  0
104214  1  0  0  0  0
104215  1  0  0  0  0
105109  1  0  0  0  0
105216  1  0  0  0  0
105217  1  0  0  0  0
106218  1  0  0  0  0
107108  1  0  0  0  0
107219  1  0  0  0  0
107220  1  0  0  0  0
108110  1  0  0  0  0
108226  1  0  0  0  0
108227  1  0  0  0  0
109113  2  0  0  0  0
110112  1  0  0  0  0
110228  1  0  0  0  0
110229  1  0  0  0  0
111114  1  0  0  0  0
112117  1  0  0  0  0
112230  1  0  0  0  0
112231  1  0  0  0  0
113233  1  0  0  0  0
114116  1  0  0  0  0
114234  1  0  0  0  0
114235  1  0  0  0  0
115236  1  0  0  0  0
116237  1  0  0  0  0
116238  1  0  0  0  0
118120  1  0  0  0  0
118240  1  0  0  0  0
118241  1  0  0  0  0
119121  1  0  0  0  0
119242  1  0  0  0  0
119243  1  0  0  0  0
120244  1  0  0  0  0
120245  1  0  0  0  0
121246  1  0  0  0  0
121247  1  0  0  0  0
122124  1  0  0  0  0
122248  1  0  0  0  0
122249  1  0  0  0  0
123125  1  0  0  0  0
123250  1  0  0  0  0
123251  1  0  0  0  0
124252  1  0  0  0  0
124253  1  0  0  0  0
125254  1  0  0  0  0
125255  1  0  0  0  0
126127  1  0  0  0  0
126256  1  0  0  0  0
126257  1  0  0  0  0
127258  1  0  0  0  0
127259  1  0  0  0  0
128129  1  0  0  0  0
128260  1  0  0  0  0
128261  1  0  0  0  0
129262  1  0  0  0  0
129263  1  0  0  0  0
130131  1  0  0  0  0
130264  1  0  0  0  0
130265  1  0  0  0  0
131266  1  0  0  0  0
131267  1  0  0  0  0
132133  1  0  0  0  0
132268  1  0  0  0  0
132269  1  0  0  0  0
133270  1  0  0  0  0
133271  1  0  0  0  0
M  END
> <PUBCHEM_COMPOUND_CID>
90656848

> <PUBCHEM_COMPOUND_CANONICALIZED>
1

> <PUBCHEM_CACTVS_COMPLEXITY>
3540

> <PUBCHEM_CACTVS_HBOND_ACCEPTOR>
29

> <PUBCHEM_CACTVS_HBOND_DONOR>
14

> <PUBCHEM_CACTVS_ROTATABLE_BOND>
70

> <PUBCHEM_CACTVS_SUBSKEYS>
AAADcfB//gBAAAAAAAAAAAAAAAAAAWLFixYwYAAAAAAAAAAB9AAAHgQQCAAADSzl3ga/npfJlgioAzX3fACCiC21MrAJ2YG+/MiPbjbm/TuXcWpu9jP6+ae/2fKOIAADAAAIQABAAAYAABCAAAAAAAAAAA==

> <PUBCHEM_IUPAC_OPENEYE_NAME>
(2S)-2-[[(2S)-2-[[(2S)-1-[(2S)-2-[[(2S,3S)-2-[[(2S)-2-[[(2S)-2-[3-[2-[2-[2-[2-[2-[2-[2-[2-[6-[3-[3-[3-[[(2S)-1-allylpyrrolidin-2-yl]methylcarbamoyl]-4,5-dimethoxy-phenyl]propylsulfanyl]-2,5-dioxo-pyrrolidin-1-yl]hexanoylamino]ethoxy]ethoxy]ethoxy]ethoxy]ethoxy]ethoxy]ethoxy]ethoxy]propanoylamino]-3-(1H-imidazol-5-yl)propanoyl]amino]propanoyl]amino]-3-methyl-pentanoyl]amino]-3-(4-hydroxyphenyl)propanoyl]pyrrolidine-2-carbonyl]amino]-5-guanidino-pentanoyl]amino]-3-(1H-imidazol-5-yl)propanoic acid

> <PUBCHEM_IUPAC_CAS_NAME>
(2S)-2-[[(2S)-5-(diaminomethylideneamino)-2-[[[(2S)-1-[(2S)-2-[[(2S,3S)-2-[[(2S)-2-[[(2S)-2-[[3-[2-[2-[2-[2-[2-[2-[2-[2-[[6-[3-[3-[3,4-dimethoxy-5-[oxo-[[(2S)-1-prop-2-enyl-2-pyrrolidinyl]methylamino]methyl]phenyl]propylthio]-2,5-dioxo-1-pyrrolidinyl]-1-oxohexyl]amino]ethoxy]ethoxy]ethoxy]ethoxy]ethoxy]ethoxy]ethoxy]ethoxy]-1-oxopropyl]amino]-3-(1H-imidazol-5-yl)-1-oxopropyl]amino]-1-oxopropyl]amino]-3-methyl-1-oxopentyl]amino]-3-(4-hydroxyphenyl)-1-oxopropyl]-2-pyrrolidinyl]-oxomethyl]amino]-1-oxopentyl]amino]-3-(1H-imidazol-5-yl)propanoic acid

> <PUBCHEM_IUPAC_NAME_MARKUP>
(2<I>S</I>)-2-[[(2<I>S</I>)-5-(diaminomethylideneamino)-2-[[(2<I>S</I>)-1-[(2<I>S</I>)-2-[[(2<I>S</I>,3<I>S</I>)-2-[[(2<I>S</I>)-2-[[(2<I>S</I>)-2-[3-[2-[2-[2-[2-[2-[2-[2-[2-[6-[3-[3-[3,4-dimethoxy-5-[[(2<I>S</I>)-1-prop-2-enylpyrrolidin-2-yl]methylcarbamoyl]phenyl]propylsulfanyl]-2,5-dioxopyrrolidin-1-yl]hexanoylamino]ethoxy]ethoxy]ethoxy]ethoxy]ethoxy]ethoxy]ethoxy]ethoxy]propanoylamino]-3-(1<I>H</I>-imidazol-5-yl)propanoyl]amino]propanoyl]amino]-3-methylpentanoyl]amino]-3-(4-hydroxyphenyl)propanoyl]pyrrolidine-2-carbonyl]amino]pentanoyl]amino]-3-(1<I>H</I>-imidazol-5-yl)propanoic acid

> <PUBCHEM_IUPAC_NAME>
(2S)-2-[[(2S)-5-(diaminomethylideneamino)-2-[[(2S)-1-[(2S)-2-[[(2S,3S)-2-[[(2S)-2-[[(2S)-2-[3-[2-[2-[2-[2-[2-[2-[2-[2-[6-[3-[3-[3,4-dimethoxy-5-[[(2S)-1-prop-2-enylpyrrolidin-2-yl]methylcarbamoyl]phenyl]propylsulfanyl]-2,5-dioxopyrrolidin-1-yl]hexanoylamino]ethoxy]ethoxy]ethoxy]ethoxy]ethoxy]ethoxy]ethoxy]ethoxy]propanoylamino]-3-(1H-imidazol-5-yl)propanoyl]amino]propanoyl]amino]-3-methylpentanoyl]amino]-3-(4-hydroxyphenyl)propanoyl]pyrrolidine-2-carbonyl]amino]pentanoyl]amino]-3-(1H-imidazol-5-yl)propanoic acid

> <PUBCHEM_IUPAC_SYSTEMATIC_NAME>
(2S)-2-[[(2S)-5-[bis(azanyl)methylideneamino]-2-[[(2S)-1-[(2S)-2-[[(2S,3S)-2-[[(2S)-2-[[(2S)-2-[3-[2-[2-[2-[2-[2-[2-[2-[2-[6-[3-[3-[3,4-dimethoxy-5-[[(2S)-1-prop-2-enylpyrrolidin-2-yl]methylcarbamoyl]phenyl]propylsulfanyl]-2,5-bis(oxidanylidene)pyrrolidin-1-yl]hexanoylamino]ethoxy]ethoxy]ethoxy]ethoxy]ethoxy]ethoxy]ethoxy]ethoxy]propanoylamino]-3-(1H-imidazol-5-yl)propanoyl]amino]propanoyl]amino]-3-methyl-pentanoyl]amino]-3-(4-hydroxyphenyl)propanoyl]pyrrolidin-2-yl]carbonylamino]pentanoyl]amino]-3-(1H-imidazol-5-yl)propanoic acid

> <PUBCHEM_IUPAC_TRADITIONAL_NAME>
(2S)-2-[[(2S)-2-[[(2S)-1-[(2S)-2-[[(2S,3S)-2-[[(2S)-2-[[(2S)-2-[3-[2-[2-[2-[2-[2-[2-[2-[2-[6-[3-[3-[3-[[(2S)-1-allylpyrrolidin-2-yl]methylcarbamoyl]-4,5-dimethoxy-phenyl]propylthio]-2,5-diketo-pyrrolidino]hexanoylamino]ethoxy]ethoxy]ethoxy]ethoxy]ethoxy]ethoxy]ethoxy]ethoxy]propanoylamino]-3-(1H-imidazol-5-yl)propanoyl]amino]propanoyl]amino]-3-methyl-pentanoyl]amino]-3-(4-hydroxyphenyl)propanoyl]prolyl]amino]-5-guanidino-pentanoyl]amino]-3-(1H-imidazol-5-yl)propionic acid

> <PUBCHEM_IUPAC_INCHI>
InChI=1S/C90H138N18O24S/c1-7-28-106-29-13-17-66(106)57-97-82(114)68-49-63(51-74(123-5)80(68)124-6)16-15-48-133-75-54-78(112)108(88(75)120)30-11-9-10-20-76(110)95-27-33-126-35-37-128-39-41-130-43-45-132-47-46-131-44-42-129-40-38-127-36-34-125-32-25-77(111)101-70(52-64-55-93-58-98-64)84(116)100-61(4)81(113)105-79(60(3)8-2)86(118)103-71(50-62-21-23-67(109)24-22-62)87(119)107-31-14-19-73(107)85(117)102-69(18-12-26-96-90(91)92)83(115)104-72(89(121)122)53-65-56-94-59-99-65/h7,21-24,49,51,55-56,58-61,66,69-73,75,79,109H,1,8-20,25-48,50,52-54,57H2,2-6H3,(H,93,98)(H,94,99)(H,95,110)(H,97,114)(H,100,116)(H,101,111)(H,102,117)(H,103,118)(H,104,115)(H,105,113)(H,121,122)(H4,91,92,96)/t60-,61-,66-,69-,70-,71-,72-,73-,75?,79-/m0/s1

> <PUBCHEM_IUPAC_INCHIKEY>
FSYXFKAGLZZMPT-BURBDGKISA-N

> <PUBCHEM_XLOGP3_AA>
-1.5

> <PUBCHEM_EXACT_MASS>
1886.98520851

> <PUBCHEM_MOLECULAR_FORMULA>
C90H138N18O24S

> <PUBCHEM_MOLECULAR_WEIGHT>
1888.2

> <PUBCHEM_OPENEYE_CAN_SMILES>
CCC(C)C(C(=O)NC(CC1=CC=C(C=C1)O)C(=O)N2CCCC2C(=O)NC(CCCN=C(N)N)C(=O)NC(CC3=CN=CN3)C(=O)O)NC(=O)C(C)NC(=O)C(CC4=CN=CN4)NC(=O)CCOCCOCCOCCOCCOCCOCCOCCOCCNC(=O)CCCCCN5C(=O)CC(C5=O)SCCCC6=CC(=C(C(=C6)OC)OC)C(=O)NCC7CCCN7CC=C

> <PUBCHEM_OPENEYE_ISO_SMILES>
CC[C@H](C)[C@@H](C(=O)N[C@@H](CC1=CC=C(C=C1)O)C(=O)N2CCC[C@H]2C(=O)N[C@@H](CCCN=C(N)N)C(=O)N[C@@H](CC3=CN=CN3)C(=O)O)NC(=O)[C@H](C)NC(=O)[C@H](CC4=CN=CN4)NC(=O)CCOCCOCCOCCOCCOCCOCCOCCOCCNC(=O)CCCCCN5C(=O)CC(C5=O)SCCCC6=CC(=C(C(=C6)OC)OC)C(=O)NC[C@@H]7CCCN7CC=C

> <PUBCHEM_CACTVS_TPSA>
591

> <PUBCHEM_MONOISOTOPIC_WEIGHT>
1886.98520851

> <PUBCHEM_TOTAL_CHARGE>
0

> <PUBCHEM_HEAVY_ATOM_COUNT>
133

> <PUBCHEM_ATOM_DEF_STEREO_COUNT>
9

> <PUBCHEM_ATOM_UDEF_STEREO_COUNT>
1

> <PUBCHEM_BOND_DEF_STEREO_COUNT>
0

> <PUBCHEM_BOND_UDEF_STEREO_COUNT>
0

> <PUBCHEM_ISOTOPIC_ATOM_COUNT>
0

> <PUBCHEM_COMPONENT_COUNT>
1

> <PUBCHEM_CACTVS_TAUTO_COUNT>
-1

> <PUBCHEM_COORDINATE_TYPE>
1
5
255

> <PUBCHEM_BONDANNOTATIONS>
95  1  3
109  113  8
60  29  5
57  30  5
63  31  6
79  32  6
86  34  5
35  106  8
35  92  8
37  100  8
37  106  8
101  40  6
41  109  8
41  115  8
42  113  8
42  115  8
44  48  5
50  55  5
64  71  8
64  72  8
66  73  5
67  74  8
67  75  8
71  76  8
72  78  8
74  84  8
75  85  8
76  81  8
78  81  8
84  88  8
85  88  8
92  100  8

$$$$
