136020090
  -OEChem-09292322052D

 79 82  0     0  0  0  0  0  0999 V2000
    8.8112   -6.8550    0.0000 Cl  0  0  0  0  0  0  0  0  0  0  0  0
    2.0000    1.1417    0.0000 O   0  0  0  0  0  0  0  0  0  0  0  0
    3.1722   -3.2884    0.0000 N   0  0  0  0  0  0  0  0  0  0  0  0
    4.0399   -5.0904    0.0000 N   0  0  0  0  0  0  0  0  0  0  0  0
    3.4311    0.1660    0.0000 N   0  0  0  0  0  0  0  0  0  0  0  0
    5.4738   -5.9914    0.0000 N   0  0  0  0  0  0  0  0  0  0  0  0
    4.9738   -8.1820    0.0000 N   0  0  0  0  0  0  0  0  0  0  0  0
    2.6089   -4.1147    0.0000 C   0  0  0  0  0  0  0  0  0  0  0  0
    4.1694   -3.3632    0.0000 C   0  0  0  0  0  0  0  0  0  0  0  0
    3.0427   -5.0156    0.0000 C   0  0  0  0  0  0  0  0  0  0  0  0
    4.6033   -4.2642    0.0000 C   0  0  0  0  0  0  0  0  0  0  0  0
    2.7383   -2.3875    0.0000 C   0  0  0  0  0  0  0  0  0  0  0  0
    3.3016   -1.5612    0.0000 C   0  0  0  0  0  0  0  0  0  0  0  0
    4.4738   -5.9914    0.0000 C   0  0  0  0  0  0  0  0  0  0  0  0
    2.8678   -0.6603    0.0000 C   0  0  0  0  0  0  0  0  0  0  0  0
    3.8503   -6.7732    0.0000 C   0  0  0  0  0  0  0  0  0  0  0  0
    3.2561    4.5214    0.0000 C   0  0  0  0  0  0  0  0  0  0  0  0
    3.6900    3.6204    0.0000 C   0  0  0  0  0  0  0  0  0  0  0  0
    3.1266    2.7942    0.0000 C   0  0  0  0  0  0  0  0  0  0  0  0
    3.8194    5.3476    0.0000 C   0  0  0  0  0  0  0  0  0  0  0  0
    4.0728   -7.7481    0.0000 C   0  0  0  0  0  0  0  0  0  0  0  0
    3.5605    1.8932    0.0000 C   0  0  0  0  0  0  0  0  0  0  0  0
    3.3856    6.2486    0.0000 C   0  0  0  0  0  0  0  0  0  0  0  0
    2.9972    1.0669    0.0000 C   0  0  0  0  0  0  0  0  0  0  0  0
    6.0973   -6.7732    0.0000 C   0  0  0  0  0  0  0  0  0  0  0  0
    2.8598   -6.4508    0.0000 C   0  0  0  0  0  0  0  0  0  0  0  0
    3.9489    7.0748    0.0000 C   0  0  0  0  0  0  0  0  0  0  0  0
    5.8748   -7.7481    0.0000 C   0  0  0  0  0  0  0  0  0  0  0  0
    3.3203   -8.4683    0.0000 C   0  0  0  0  0  0  0  0  0  0  0  0
    3.5150    7.9758    0.0000 C   0  0  0  0  0  0  0  0  0  0  0  0
    2.0908   -7.1534    0.0000 C   0  0  0  0  0  0  0  0  0  0  0  0
    2.3226   -8.1689    0.0000 C   0  0  0  0  0  0  0  0  0  0  0  0
    7.0878   -6.4509    0.0000 C   0  0  0  0  0  0  0  0  0  0  0  0
    6.6273   -8.4683    0.0000 C   0  0  0  0  0  0  0  0  0  0  0  0
    4.0783    8.8020    0.0000 C   0  0  0  0  0  0  0  0  0  0  0  0
    7.8568   -7.1535    0.0000 C   0  0  0  0  0  0  0  0  0  0  0  0
    7.6250   -8.1690    0.0000 C   0  0  0  0  0  0  0  0  0  0  0  0
    2.1650   -3.6818    0.0000 H   0  0  0  0  0  0  0  0  0  0  0  0
    2.1054   -4.4766    0.0000 H   0  0  0  0  0  0  0  0  0  0  0  0
    4.7662   -3.1953    0.0000 H   0  0  0  0  0  0  0  0  0  0  0  0
    4.1077   -2.7463    0.0000 H   0  0  0  0  0  0  0  0  0  0  0  0
    2.4459   -5.1836    0.0000 H   0  0  0  0  0  0  0  0  0  0  0  0
    3.1045   -5.6326    0.0000 H   0  0  0  0  0  0  0  0  0  0  0  0
    5.0471   -4.6971    0.0000 H   0  0  0  0  0  0  0  0  0  0  0  0
    5.1067   -3.9022    0.0000 H   0  0  0  0  0  0  0  0  0  0  0  0
    2.2945   -1.9546    0.0000 H   0  0  0  0  0  0  0  0  0  0  0  0
    2.2349   -2.7494    0.0000 H   0  0  0  0  0  0  0  0  0  0  0  0
    3.7455   -1.9942    0.0000 H   0  0  0  0  0  0  0  0  0  0  0  0
    3.8050   -1.1993    0.0000 H   0  0  0  0  0  0  0  0  0  0  0  0
    2.4239   -0.2274    0.0000 H   0  0  0  0  0  0  0  0  0  0  0  0
    2.3644   -1.0222    0.0000 H   0  0  0  0  0  0  0  0  0  0  0  0
    2.8123    4.9543    0.0000 H   0  0  0  0  0  0  0  0  0  0  0  0
    2.7527    4.1594    0.0000 H   0  0  0  0  0  0  0  0  0  0  0  0
    4.1338    3.1875    0.0000 H   0  0  0  0  0  0  0  0  0  0  0  0
    4.1934    3.9823    0.0000 H   0  0  0  0  0  0  0  0  0  0  0  0
    4.2633    4.9147    0.0000 H   0  0  0  0  0  0  0  0  0  0  0  0
    4.3228    5.7095    0.0000 H   0  0  0  0  0  0  0  0  0  0  0  0
    2.6828    3.2271    0.0000 H   0  0  0  0  0  0  0  0  0  0  0  0
    2.6232    2.4322    0.0000 H   0  0  0  0  0  0  0  0  0  0  0  0
    4.0493    0.1196    0.0000 H   0  0  0  0  0  0  0  0  0  0  0  0
    4.0044    1.4603    0.0000 H   0  0  0  0  0  0  0  0  0  0  0  0
    4.0639    2.2551    0.0000 H   0  0  0  0  0  0  0  0  0  0  0  0
    2.9417    6.6815    0.0000 H   0  0  0  0  0  0  0  0  0  0  0  0
    2.8822    5.8867    0.0000 H   0  0  0  0  0  0  0  0  0  0  0  0
    2.7289   -5.8448    0.0000 H   0  0  0  0  0  0  0  0  0  0  0  0
    4.3927    6.6419    0.0000 H   0  0  0  0  0  0  0  0  0  0  0  0
    4.4523    7.4367    0.0000 H   0  0  0  0  0  0  0  0  0  0  0  0
    4.9738   -8.8020    0.0000 H   0  0  0  0  0  0  0  0  0  0  0  0
    3.4652   -9.0711    0.0000 H   0  0  0  0  0  0  0  0  0  0  0  0
    3.0712    8.4087    0.0000 H   0  0  0  0  0  0  0  0  0  0  0  0
    3.0116    7.6138    0.0000 H   0  0  0  0  0  0  0  0  0  0  0  0
    1.4991   -6.9684    0.0000 H   0  0  0  0  0  0  0  0  0  0  0  0
    1.8697   -8.5924    0.0000 H   0  0  0  0  0  0  0  0  0  0  0  0
    7.2188   -5.8449    0.0000 H   0  0  0  0  0  0  0  0  0  0  0  0
    6.4824   -9.0711    0.0000 H   0  0  0  0  0  0  0  0  0  0  0  0
    4.5906    8.4527    0.0000 H   0  0  0  0  0  0  0  0  0  0  0  0
    4.4276    9.3143    0.0000 H   0  0  0  0  0  0  0  0  0  0  0  0
    3.5661    9.1513    0.0000 H   0  0  0  0  0  0  0  0  0  0  0  0
    8.0779   -8.5924    0.0000 H   0  0  0  0  0  0  0  0  0  0  0  0
  1 36  1  0  0  0  0
  2 24  2  0  0  0  0
  3  8  1  0  0  0  0
  3  9  1  0  0  0  0
  3 12  1  0  0  0  0
  4 10  1  0  0  0  0
  4 11  1  0  0  0  0
  4 14  1  0  0  0  0
  5 15  1  0  0  0  0
  5 24  1  0  0  0  0
  5 60  1  0  0  0  0
  6 14  2  0  0  0  0
  6 25  1  0  0  0  0
  7 21  1  0  0  0  0
  7 28  1  0  0  0  0
  7 68  1  0  0  0  0
  8 10  1  0  0  0  0
  8 38  1  0  0  0  0
  8 39  1  0  0  0  0
  9 11  1  0  0  0  0
  9 40  1  0  0  0  0
  9 41  1  0  0  0  0
 10 42  1  0  0  0  0
 10 43  1  0  0  0  0
 11 44  1  0  0  0  0
 11 45  1  0  0  0  0
 12 13  1  0  0  0  0
 12 46  1  0  0  0  0
 12 47  1  0  0  0  0
 13 15  1  0  0  0  0
 13 48  1  0  0  0  0
 13 49  1  0  0  0  0
 14 16  1  0  0  0  0
 15 50  1  0  0  0  0
 15 51  1  0  0  0  0
 16 21  1  0  0  0  0
 16 26  2  0  0  0  0
 17 18  1  0  0  0  0
 17 20  1  0  0  0  0
 17 52  1  0  0  0  0
 17 53  1  0  0  0  0
 18 19  1  0  0  0  0
 18 54  1  0  0  0  0
 18 55  1  0  0  0  0
 19 22  1  0  0  0  0
 19 58  1  0  0  0  0
 19 59  1  0  0  0  0
 20 23  1  0  0  0  0
 20 56  1  0  0  0  0
 20 57  1  0  0  0  0
 21 29  2  0  0  0  0
 22 24  1  0  0  0  0
 22 61  1  0  0  0  0
 22 62  1  0  0  0  0
 23 27  1  0  0  0  0
 23 63  1  0  0  0  0
 23 64  1  0  0  0  0
 25 28  2  0  0  0  0
 25 33  1  0  0  0  0
 26 31  1  0  0  0  0
 26 65  1  0  0  0  0
 27 30  1  0  0  0  0
 27 66  1  0  0  0  0
 27 67  1  0  0  0  0
 28 34  1  0  0  0  0
 29 32  1  0  0  0  0
 29 69  1  0  0  0  0
 30 35  1  0  0  0  0
 30 70  1  0  0  0  0
 30 71  1  0  0  0  0
 31 32  2  0  0  0  0
 31 72  1  0  0  0  0
 32 73  1  0  0  0  0
 33 36  2  0  0  0  0
 33 74  1  0  0  0  0
 34 37  2  0  0  0  0
 34 75  1  0  0  0  0
 35 76  1  0  0  0  0
 35 77  1  0  0  0  0
 35 78  1  0  0  0  0
 36 37  1  0  0  0  0
 37 79  1  0  0  0  0
M  END
> <PUBCHEM_COMPOUND_CID>
136020090

> <PUBCHEM_COMPOUND_CANONICALIZED>
1

> <PUBCHEM_CACTVS_COMPLEXITY>
710

> <PUBCHEM_CACTVS_HBOND_ACCEPTOR>
4

> <PUBCHEM_CACTVS_HBOND_DONOR>
2

> <PUBCHEM_CACTVS_ROTATABLE_BOND>
13

> <PUBCHEM_CACTVS_SUBSKEYS>
AAADcfB7oAAEAAAAAAAAAAAAAAAAAAAAAAA8YIAABAAAAAABQAAAHgIQAAAADArBmCQzwIPAAACoAidydACCAAEhBwAJiIEodpgIYPLB25GUIAhglgDIyAcYiICOAABAAAICACAAAIAABAQAQAAAAAAAAA==

> <PUBCHEM_IUPAC_OPENEYE_NAME>
N-[3-[4-(3-chloro-11H-benzo[b][1,4]benzodiazepin-6-yl)piperazin-1-yl]propyl]decanamide

> <PUBCHEM_IUPAC_CAS_NAME>
N-[3-[4-(3-chloro-11H-benzo[b][1,4]benzodiazepin-6-yl)-1-piperazinyl]propyl]decanamide

> <PUBCHEM_IUPAC_NAME_MARKUP>
<I>N</I>-[3-[4-(3-chloro-11<I>H</I>-benzo[b][1,4]benzodiazepin-6-yl)piperazin-1-yl]propyl]decanamide

> <PUBCHEM_IUPAC_NAME>
N-[3-[4-(3-chloro-11H-benzo[b][1,4]benzodiazepin-6-yl)piperazin-1-yl]propyl]decanamide

> <PUBCHEM_IUPAC_SYSTEMATIC_NAME>
N-[3-[4-(3-chloranyl-11H-benzo[b][1,4]benzodiazepin-6-yl)piperazin-1-yl]propyl]decanamide

> <PUBCHEM_IUPAC_TRADITIONAL_NAME>
N-[3-[4-(3-chloro-11H-benzo[b][1,4]benzodiazepin-6-yl)piperazino]propyl]capramide

> <PUBCHEM_IUPAC_INCHI>
InChI=1S/C30H42ClN5O/c1-2-3-4-5-6-7-8-14-29(37)32-17-11-18-35-19-21-36(22-20-35)30-25-12-9-10-13-26(25)33-27-16-15-24(31)23-28(27)34-30/h9-10,12-13,15-16,23,33H,2-8,11,14,17-22H2,1H3,(H,32,37)

> <PUBCHEM_IUPAC_INCHIKEY>
YGRWOMWURHIOOO-UHFFFAOYSA-N

> <PUBCHEM_XLOGP3_AA>
6.8

> <PUBCHEM_EXACT_MASS>
523.3077887

> <PUBCHEM_MOLECULAR_FORMULA>
C30H42ClN5O

> <PUBCHEM_MOLECULAR_WEIGHT>
524.1

> <PUBCHEM_OPENEYE_CAN_SMILES>
CCCCCCCCCC(=O)NCCCN1CCN(CC1)C2=NC3=C(C=CC(=C3)Cl)NC4=CC=CC=C42

> <PUBCHEM_OPENEYE_ISO_SMILES>
CCCCCCCCCC(=O)NCCCN1CCN(CC1)C2=NC3=C(C=CC(=C3)Cl)NC4=CC=CC=C42

> <PUBCHEM_CACTVS_TPSA>
60

> <PUBCHEM_MONOISOTOPIC_WEIGHT>
523.3077887

> <PUBCHEM_TOTAL_CHARGE>
0

> <PUBCHEM_HEAVY_ATOM_COUNT>
37

> <PUBCHEM_ATOM_DEF_STEREO_COUNT>
0

> <PUBCHEM_ATOM_UDEF_STEREO_COUNT>
0

> <PUBCHEM_BOND_DEF_STEREO_COUNT>
0

> <PUBCHEM_BOND_UDEF_STEREO_COUNT>
0

> <PUBCHEM_ISOTOPIC_ATOM_COUNT>
0

> <PUBCHEM_COMPONENT_COUNT>
1

> <PUBCHEM_CACTVS_TAUTO_COUNT>
-1

> <PUBCHEM_COORDINATE_TYPE>
1
5
255

> <PUBCHEM_BONDANNOTATIONS>
16  21  8
16  26  8
21  29  8
25  28  8
25  33  8
26  31  8
28  34  8
29  32  8
31  32  8
33  36  8
34  37  8
36  37  8

$$$$
