25072946
  -OEChem-09292322352D

 54 57  0     0  0  0  0  0  0999 V2000
    3.7320   -2.3584    0.0000 Cl  0  0  0  0  0  0  0  0  0  0  0  0
    2.0000   -3.3584    0.0000 Cl  0  0  0  0  0  0  0  0  0  0  0  0
    9.7942    1.1416    0.0000 O   0  0  0  0  0  0  0  0  0  0  0  0
   12.8956    5.1031    0.0000 O   0  0  0  0  0  0  0  0  0  0  0  0
    7.1962   -2.3584    0.0000 N   0  0  0  0  0  0  0  0  0  0  0  0
    5.4641   -3.3584    0.0000 N   0  0  0  0  0  0  0  0  0  0  0  0
   10.6603    2.6416    0.0000 N   0  0  0  0  0  0  0  0  0  0  0  0
   11.6065    2.3369    0.0000 N   0  0  0  0  0  0  0  0  0  0  0  0
    6.3301   -1.8584    0.0000 C   0  0  0  0  0  0  0  0  0  0  0  0
    7.1962   -3.3584    0.0000 C   0  0  0  0  0  0  0  0  0  0  0  0
    5.4641   -2.3584    0.0000 C   0  0  0  0  0  0  0  0  0  0  0  0
    6.3301   -3.8584    0.0000 C   0  0  0  0  0  0  0  0  0  0  0  0
    8.0622   -1.8584    0.0000 C   0  0  0  0  0  0  0  0  0  0  0  0
    8.0622   -0.8584    0.0000 C   0  0  0  0  0  0  0  0  0  0  0  0
    4.5981   -3.8584    0.0000 C   0  0  0  0  0  0  0  0  0  0  0  0
    8.9282   -0.3584    0.0000 C   0  0  0  0  0  0  0  0  0  0  0  0
    8.9282    0.6416    0.0000 C   0  0  0  0  0  0  0  0  0  0  0  0
    3.7320   -3.3584    0.0000 C   0  0  0  0  0  0  0  0  0  0  0  0
    4.5981   -4.8584    0.0000 C   0  0  0  0  0  0  0  0  0  0  0  0
    2.8660   -3.8584    0.0000 C   0  0  0  0  0  0  0  0  0  0  0  0
    3.7320   -5.3584    0.0000 C   0  0  0  0  0  0  0  0  0  0  0  0
    2.8660   -4.8584    0.0000 C   0  0  0  0  0  0  0  0  0  0  0  0
    9.7942    2.1416    0.0000 C   0  0  0  0  0  0  0  0  0  0  0  0
   10.6603    3.6416    0.0000 C   0  0  0  0  0  0  0  0  0  0  0  0
    8.9282    2.6416    0.0000 C   0  0  0  0  0  0  0  0  0  0  0  0
   11.6065    3.9464    0.0000 C   0  0  0  0  0  0  0  0  0  0  0  0
    9.7942    4.1416    0.0000 C   0  0  0  0  0  0  0  0  0  0  0  0
    8.9282    3.6416    0.0000 C   0  0  0  0  0  0  0  0  0  0  0  0
   12.1901    3.1416    0.0000 C   0  0  0  0  0  0  0  0  0  0  0  0
   11.9171    4.8969    0.0000 C   0  0  0  0  0  0  0  0  0  0  0  0
    6.7287   -1.3834    0.0000 H   0  0  0  0  0  0  0  0  0  0  0  0
    5.9316   -1.3834    0.0000 H   0  0  0  0  0  0  0  0  0  0  0  0
    7.4082   -3.9410    0.0000 H   0  0  0  0  0  0  0  0  0  0  0  0
    7.8067   -3.2507    0.0000 H   0  0  0  0  0  0  0  0  0  0  0  0
    5.2520   -1.7758    0.0000 H   0  0  0  0  0  0  0  0  0  0  0  0
    4.8535   -2.4660    0.0000 H   0  0  0  0  0  0  0  0  0  0  0  0
    5.9316   -4.3333    0.0000 H   0  0  0  0  0  0  0  0  0  0  0  0
    6.7287   -4.3333    0.0000 H   0  0  0  0  0  0  0  0  0  0  0  0
    8.2742   -2.4410    0.0000 H   0  0  0  0  0  0  0  0  0  0  0  0
    8.6728   -1.7507    0.0000 H   0  0  0  0  0  0  0  0  0  0  0  0
    7.8501   -0.2758    0.0000 H   0  0  0  0  0  0  0  0  0  0  0  0
    7.4516   -0.9660    0.0000 H   0  0  0  0  0  0  0  0  0  0  0  0
    9.1403   -0.9410    0.0000 H   0  0  0  0  0  0  0  0  0  0  0  0
    9.5388   -0.2507    0.0000 H   0  0  0  0  0  0  0  0  0  0  0  0
    8.7162    1.2242    0.0000 H   0  0  0  0  0  0  0  0  0  0  0  0
    8.3176    0.5340    0.0000 H   0  0  0  0  0  0  0  0  0  0  0  0
    5.1350   -5.1684    0.0000 H   0  0  0  0  0  0  0  0  0  0  0  0
    3.7320   -5.9784    0.0000 H   0  0  0  0  0  0  0  0  0  0  0  0
    2.3291   -5.1684    0.0000 H   0  0  0  0  0  0  0  0  0  0  0  0
    8.3913    2.3316    0.0000 H   0  0  0  0  0  0  0  0  0  0  0  0
    9.7942    4.7616    0.0000 H   0  0  0  0  0  0  0  0  0  0  0  0
    8.3913    3.9516    0.0000 H   0  0  0  0  0  0  0  0  0  0  0  0
   12.8101    3.1416    0.0000 H   0  0  0  0  0  0  0  0  0  0  0  0
   11.5031    5.3584    0.0000 H   0  0  0  0  0  0  0  0  0  0  0  0
  1 18  1  0  0  0  0
  2 20  1  0  0  0  0
  3 17  1  0  0  0  0
  3 23  1  0  0  0  0
  4 30  2  0  0  0  0
  5  9  1  0  0  0  0
  5 10  1  0  0  0  0
  5 13  1  0  0  0  0
  6 11  1  0  0  0  0
  6 12  1  0  0  0  0
  6 15  1  0  0  0  0
  7  8  1  0  0  0  0
  7 23  1  0  0  0  0
  7 24  1  0  0  0  0
  8 29  2  0  0  0  0
  9 11  1  0  0  0  0
  9 31  1  0  0  0  0
  9 32  1  0  0  0  0
 10 12  1  0  0  0  0
 10 33  1  0  0  0  0
 10 34  1  0  0  0  0
 11 35  1  0  0  0  0
 11 36  1  0  0  0  0
 12 37  1  0  0  0  0
 12 38  1  0  0  0  0
 13 14  1  0  0  0  0
 13 39  1  0  0  0  0
 13 40  1  0  0  0  0
 14 16  1  0  0  0  0
 14 41  1  0  0  0  0
 14 42  1  0  0  0  0
 15 18  2  0  0  0  0
 15 19  1  0  0  0  0
 16 17  1  0  0  0  0
 16 43  1  0  0  0  0
 16 44  1  0  0  0  0
 17 45  1  0  0  0  0
 17 46  1  0  0  0  0
 18 20  1  0  0  0  0
 19 21  2  0  0  0  0
 19 47  1  0  0  0  0
 20 22  2  0  0  0  0
 21 22  1  0  0  0  0
 21 48  1  0  0  0  0
 22 49  1  0  0  0  0
 23 25  2  0  0  0  0
 24 26  2  0  0  0  0
 24 27  1  0  0  0  0
 25 28  1  0  0  0  0
 25 50  1  0  0  0  0
 26 29  1  0  0  0  0
 26 30  1  0  0  0  0
 27 28  2  0  0  0  0
 27 51  1  0  0  0  0
 28 52  1  0  0  0  0
 29 53  1  0  0  0  0
 30 54  1  0  0  0  0
M  END
> <PUBCHEM_COMPOUND_CID>
25072946

> <PUBCHEM_COMPOUND_CANONICALIZED>
1

> <PUBCHEM_CACTVS_COMPLEXITY>
549

> <PUBCHEM_CACTVS_HBOND_ACCEPTOR>
5

> <PUBCHEM_CACTVS_HBOND_DONOR>
0

> <PUBCHEM_CACTVS_ROTATABLE_BOND>
8

> <PUBCHEM_CACTVS_SUBSKEYS>
AAADceB7sAAGAAAAAAAAAAAAAAAAAWAAAAA8WIAAAAAAAFgB8AAAHgIIAAAADArhniY8xLMIFACqAzx3xACSjCAlpyAYmmE+btgMZvrF99vevajkyBHI6ce42GGMAAAAAAIAABQAAAAABAAAKAAAAAAAAA==

> <PUBCHEM_IUPAC_OPENEYE_NAME>
7-[4-[4-(2,3-dichlorophenyl)piperazin-1-yl]butoxy]pyrazolo[1,5-a]pyridine-3-carbaldehyde

> <PUBCHEM_IUPAC_CAS_NAME>
7-[4-[4-(2,3-dichlorophenyl)-1-piperazinyl]butoxy]-3-pyrazolo[1,5-a]pyridinecarboxaldehyde

> <PUBCHEM_IUPAC_NAME_MARKUP>
7-[4-[4-(2,3-dichlorophenyl)piperazin-1-yl]butoxy]pyrazolo[1,5-a]pyridine-3-carbaldehyde

> <PUBCHEM_IUPAC_NAME>
7-[4-[4-(2,3-dichlorophenyl)piperazin-1-yl]butoxy]pyrazolo[1,5-a]pyridine-3-carbaldehyde

> <PUBCHEM_IUPAC_SYSTEMATIC_NAME>
7-[4-[4-[2,3-bis(chloranyl)phenyl]piperazin-1-yl]butoxy]pyrazolo[1,5-a]pyridine-3-carbaldehyde

> <PUBCHEM_IUPAC_TRADITIONAL_NAME>
7-[4-[4-(2,3-dichlorophenyl)piperazino]butoxy]pyrazolo[1,5-a]pyridine-3-carbaldehyde

> <PUBCHEM_IUPAC_INCHI>
InChI=1S/C22H24Cl2N4O2/c23-18-5-3-7-20(22(18)24)27-12-10-26(11-13-27)9-1-2-14-30-21-8-4-6-19-17(16-29)15-25-28(19)21/h3-8,15-16H,1-2,9-14H2

> <PUBCHEM_IUPAC_INCHIKEY>
ZHLBCCKGUNFWNS-UHFFFAOYSA-N

> <PUBCHEM_XLOGP3_AA>
4.4

> <PUBCHEM_EXACT_MASS>
446.1276314

> <PUBCHEM_MOLECULAR_FORMULA>
C22H24Cl2N4O2

> <PUBCHEM_MOLECULAR_WEIGHT>
447.4

> <PUBCHEM_OPENEYE_CAN_SMILES>
C1CN(CCN1CCCCOC2=CC=CC3=C(C=NN32)C=O)C4=C(C(=CC=C4)Cl)Cl

> <PUBCHEM_OPENEYE_ISO_SMILES>
C1CN(CCN1CCCCOC2=CC=CC3=C(C=NN32)C=O)C4=C(C(=CC=C4)Cl)Cl

> <PUBCHEM_CACTVS_TPSA>
50.1

> <PUBCHEM_MONOISOTOPIC_WEIGHT>
446.1276314

> <PUBCHEM_TOTAL_CHARGE>
0

> <PUBCHEM_HEAVY_ATOM_COUNT>
30

> <PUBCHEM_ATOM_DEF_STEREO_COUNT>
0

> <PUBCHEM_ATOM_UDEF_STEREO_COUNT>
0

> <PUBCHEM_BOND_DEF_STEREO_COUNT>
0

> <PUBCHEM_BOND_UDEF_STEREO_COUNT>
0

> <PUBCHEM_ISOTOPIC_ATOM_COUNT>
0

> <PUBCHEM_COMPONENT_COUNT>
1

> <PUBCHEM_CACTVS_TAUTO_COUNT>
-1

> <PUBCHEM_COORDINATE_TYPE>
1
5
255

> <PUBCHEM_BONDANNOTATIONS>
15  18  8
15  19  8
18  20  8
19  21  8
20  22  8
21  22  8
23  25  8
24  26  8
24  27  8
25  28  8
26  29  8
27  28  8
7  23  8
7  24  8
7  8  8
8  29  8

$$$$
