58389169
  -OEChem-09292322012D

 71 76  0     1  0  0  0  0  0999 V2000
    5.4641    5.8776    0.0000 F   0  0  0  0  0  0  0  0  0  0  0  0
    2.0000    5.8776    0.0000 F   0  0  0  0  0  0  0  0  0  0  0  0
    8.9282   -2.1224    0.0000 O   0  0  0  0  0  0  0  0  0  0  0  0
   11.0511   -5.8776    0.0000 O   0  0  0  0  0  0  0  0  0  0  0  0
   12.3241   -2.3903    0.0000 O   0  0  0  0  0  0  0  0  0  0  0  0
   15.3241   -4.1224    0.0000 O   0  0  0  0  0  0  0  0  0  0  0  0
   11.3241   -4.1224    0.0000 N   0  0  0  0  0  0  0  0  0  0  0  0
    7.1962    2.8776    0.0000 N   0  0  0  0  0  0  0  0  0  0  0  0
    5.4641    3.8776    0.0000 N   0  0  0  0  0  0  0  0  0  0  0  0
   13.8241   -3.2564    0.0000 N   0  0  0  0  0  0  0  0  0  0  0  0
   12.3241   -4.1224    0.0000 C   0  0  3  0  0  0  0  0  0  0  0  0
    6.3301    2.3776    0.0000 C   0  0  0  0  0  0  0  0  0  0  0  0
    7.1962    3.8776    0.0000 C   0  0  0  0  0  0  0  0  0  0  0  0
    5.4641    2.8776    0.0000 C   0  0  0  0  0  0  0  0  0  0  0  0
    6.3301    4.3776    0.0000 C   0  0  0  0  0  0  0  0  0  0  0  0
   10.7404   -3.3176    0.0000 C   0  0  0  0  0  0  0  0  0  0  0  0
   12.8241   -4.9884    0.0000 C   0  0  0  0  0  0  0  0  0  0  0  0
    9.7942   -3.6224    0.0000 C   0  0  0  0  0  0  0  0  0  0  0  0
    8.0622    2.3776    0.0000 C   0  0  0  0  0  0  0  0  0  0  0  0
   10.7404   -4.9271    0.0000 C   0  0  0  0  0  0  0  0  0  0  0  0
    9.7942   -4.6224    0.0000 C   0  0  0  0  0  0  0  0  0  0  0  0
   13.8241   -4.9884    0.0000 C   0  0  0  0  0  0  0  0  0  0  0  0
   12.8241   -3.2564    0.0000 C   0  0  0  0  0  0  0  0  0  0  0  0
    4.5981    4.3776    0.0000 C   0  0  0  0  0  0  0  0  0  0  0  0
    8.9282   -3.1224    0.0000 C   0  0  0  0  0  0  0  0  0  0  0  0
    8.0622    1.3776    0.0000 C   0  0  0  0  0  0  0  0  0  0  0  0
   14.3241   -4.1224    0.0000 C   0  0  0  0  0  0  0  0  0  0  0  0
    8.9282   -5.1224    0.0000 C   0  0  0  0  0  0  0  0  0  0  0  0
    8.0622   -3.6224    0.0000 C   0  0  0  0  0  0  0  0  0  0  0  0
    8.0622   -4.6224    0.0000 C   0  0  0  0  0  0  0  0  0  0  0  0
    8.9282    0.8776    0.0000 C   0  0  0  0  0  0  0  0  0  0  0  0
    7.1962    0.8776    0.0000 C   0  0  0  0  0  0  0  0  0  0  0  0
    4.5981    5.3776    0.0000 C   0  0  0  0  0  0  0  0  0  0  0  0
    3.7320    3.8776    0.0000 C   0  0  0  0  0  0  0  0  0  0  0  0
    8.0622   -0.6224    0.0000 C   0  0  0  0  0  0  0  0  0  0  0  0
    8.0622   -1.6224    0.0000 C   0  0  0  0  0  0  0  0  0  0  0  0
    8.9282   -0.1224    0.0000 C   0  0  0  0  0  0  0  0  0  0  0  0
    7.1962   -0.1224    0.0000 C   0  0  0  0  0  0  0  0  0  0  0  0
    3.7320    5.8776    0.0000 C   0  0  0  0  0  0  0  0  0  0  0  0
    2.8660    4.3776    0.0000 C   0  0  0  0  0  0  0  0  0  0  0  0
    2.8660    5.3776    0.0000 C   0  0  0  0  0  0  0  0  0  0  0  0
   12.0141   -3.5854    0.0000 H   0  0  0  0  0  0  0  0  0  0  0  0
    5.9316    1.9027    0.0000 H   0  0  0  0  0  0  0  0  0  0  0  0
    6.7287    1.9027    0.0000 H   0  0  0  0  0  0  0  0  0  0  0  0
    7.8067    3.7700    0.0000 H   0  0  0  0  0  0  0  0  0  0  0  0
    7.4082    4.4602    0.0000 H   0  0  0  0  0  0  0  0  0  0  0  0
    4.8535    2.9853    0.0000 H   0  0  0  0  0  0  0  0  0  0  0  0
    5.2520    2.2950    0.0000 H   0  0  0  0  0  0  0  0  0  0  0  0
    6.7287    4.8526    0.0000 H   0  0  0  0  0  0  0  0  0  0  0  0
    5.9316    4.8526    0.0000 H   0  0  0  0  0  0  0  0  0  0  0  0
   11.2778   -3.0084    0.0000 H   0  0  0  0  0  0  0  0  0  0  0  0
   10.4894   -2.7507    0.0000 H   0  0  0  0  0  0  0  0  0  0  0  0
   12.2414   -5.2004    0.0000 H   0  0  0  0  0  0  0  0  0  0  0  0
   12.9317   -5.5990    0.0000 H   0  0  0  0  0  0  0  0  0  0  0  0
    8.6728    2.2700    0.0000 H   0  0  0  0  0  0  0  0  0  0  0  0
    8.2742    2.9602    0.0000 H   0  0  0  0  0  0  0  0  0  0  0  0
   13.7164   -5.5990    0.0000 H   0  0  0  0  0  0  0  0  0  0  0  0
   14.4067   -5.2004    0.0000 H   0  0  0  0  0  0  0  0  0  0  0  0
   14.1341   -2.7194    0.0000 H   0  0  0  0  0  0  0  0  0  0  0  0
    8.9282   -5.7424    0.0000 H   0  0  0  0  0  0  0  0  0  0  0  0
    7.5252   -3.3124    0.0000 H   0  0  0  0  0  0  0  0  0  0  0  0
    7.5252   -4.9324    0.0000 H   0  0  0  0  0  0  0  0  0  0  0  0
    9.4651    1.1876    0.0000 H   0  0  0  0  0  0  0  0  0  0  0  0
    6.6592    1.1876    0.0000 H   0  0  0  0  0  0  0  0  0  0  0  0
    3.7320    3.2576    0.0000 H   0  0  0  0  0  0  0  0  0  0  0  0
    7.4516   -1.5147    0.0000 H   0  0  0  0  0  0  0  0  0  0  0  0
    7.8501   -2.2050    0.0000 H   0  0  0  0  0  0  0  0  0  0  0  0
    9.4651   -0.4324    0.0000 H   0  0  0  0  0  0  0  0  0  0  0  0
    6.6592   -0.4324    0.0000 H   0  0  0  0  0  0  0  0  0  0  0  0
    3.7320    6.4976    0.0000 H   0  0  0  0  0  0  0  0  0  0  0  0
    2.3291    4.0676    0.0000 H   0  0  0  0  0  0  0  0  0  0  0  0
  1 33  1  0  0  0  0
  2 41  1  0  0  0  0
  3 25  1  0  0  0  0
  3 36  1  0  0  0  0
  4 20  2  0  0  0  0
  5 23  2  0  0  0  0
  6 27  2  0  0  0  0
  7 11  1  0  0  0  0
  7 16  1  0  0  0  0
  7 20  1  0  0  0  0
  8 12  1  0  0  0  0
  8 13  1  0  0  0  0
  8 19  1  0  0  0  0
  9 14  1  0  0  0  0
  9 15  1  0  0  0  0
  9 24  1  0  0  0  0
 10 23  1  0  0  0  0
 10 27  1  0  0  0  0
 10 59  1  0  0  0  0
 11 17  1  0  0  0  0
 11 23  1  0  0  0  0
 11 42  1  0  0  0  0
 12 14  1  0  0  0  0
 12 43  1  0  0  0  0
 12 44  1  0  0  0  0
 13 15  1  0  0  0  0
 13 45  1  0  0  0  0
 13 46  1  0  0  0  0
 14 47  1  0  0  0  0
 14 48  1  0  0  0  0
 15 49  1  0  0  0  0
 15 50  1  0  0  0  0
 16 18  1  0  0  0  0
 16 51  1  0  0  0  0
 16 52  1  0  0  0  0
 17 22  1  0  0  0  0
 17 53  1  0  0  0  0
 17 54  1  0  0  0  0
 18 21  2  0  0  0  0
 18 25  1  0  0  0  0
 19 26  1  0  0  0  0
 19 55  1  0  0  0  0
 19 56  1  0  0  0  0
 20 21  1  0  0  0  0
 21 28  1  0  0  0  0
 22 27  1  0  0  0  0
 22 57  1  0  0  0  0
 22 58  1  0  0  0  0
 24 33  2  0  0  0  0
 24 34  1  0  0  0  0
 25 29  2  0  0  0  0
 26 31  2  0  0  0  0
 26 32  1  0  0  0  0
 28 30  2  0  0  0  0
 28 60  1  0  0  0  0
 29 30  1  0  0  0  0
 29 61  1  0  0  0  0
 30 62  1  0  0  0  0
 31 37  1  0  0  0  0
 31 63  1  0  0  0  0
 32 38  2  0  0  0  0
 32 64  1  0  0  0  0
 33 39  1  0  0  0  0
 34 40  2  0  0  0  0
 34 65  1  0  0  0  0
 35 36  1  0  0  0  0
 35 37  2  0  0  0  0
 35 38  1  0  0  0  0
 36 66  1  0  0  0  0
 36 67  1  0  0  0  0
 37 68  1  0  0  0  0
 38 69  1  0  0  0  0
 39 41  2  0  0  0  0
 39 70  1  0  0  0  0
 40 41  1  0  0  0  0
 40 71  1  0  0  0  0
M  END
> <PUBCHEM_COMPOUND_CID>
58389169

> <PUBCHEM_COMPOUND_CANONICALIZED>
1

> <PUBCHEM_CACTVS_COMPLEXITY>
954

> <PUBCHEM_CACTVS_HBOND_ACCEPTOR>
8

> <PUBCHEM_CACTVS_HBOND_DONOR>
1

> <PUBCHEM_CACTVS_ROTATABLE_BOND>
7

> <PUBCHEM_CACTVS_SUBSKEYS>
AAADceB7uYAAAAAAAAAAAAAAAAAAAWAAAAA8eMECAAAAAFgBUAAAHwAQAAAADCzhmA4wxoPABACIAiVSUACCCAAlIgAIiAGObMgMZjLEtbuWOSjm1jHI6Ye+y7COwAABAAAYAACAAAIAADAAAAAAAAAAAA==

> <PUBCHEM_IUPAC_OPENEYE_NAME>
3-[4-[[4-[[4-(2,4-difluorophenyl)piperazin-1-yl]methyl]phenyl]methoxy]-1-oxo-isoindolin-2-yl]piperidine-2,6-dione

> <PUBCHEM_IUPAC_CAS_NAME>
3-[7-[[4-[[4-(2,4-difluorophenyl)-1-piperazinyl]methyl]phenyl]methoxy]-3-oxo-1H-isoindol-2-yl]piperidine-2,6-dione

> <PUBCHEM_IUPAC_NAME_MARKUP>
3-[7-[[4-[[4-(2,4-difluorophenyl)piperazin-1-yl]methyl]phenyl]methoxy]-3-oxo-1<I>H</I>-isoindol-2-yl]piperidine-2,6-dione

> <PUBCHEM_IUPAC_NAME>
3-[7-[[4-[[4-(2,4-difluorophenyl)piperazin-1-yl]methyl]phenyl]methoxy]-3-oxo-1H-isoindol-2-yl]piperidine-2,6-dione

> <PUBCHEM_IUPAC_SYSTEMATIC_NAME>
3-[7-[[4-[[4-[2,4-bis(fluoranyl)phenyl]piperazin-1-yl]methyl]phenyl]methoxy]-3-oxidanylidene-1H-isoindol-2-yl]piperidine-2,6-dione

> <PUBCHEM_IUPAC_TRADITIONAL_NAME>
3-[4-[4-[[4-(2,4-difluorophenyl)piperazino]methyl]benzyl]oxy-1-keto-isoindolin-2-yl]piperidine-2,6-quinone

> <PUBCHEM_IUPAC_INCHI>
InChI=1S/C31H30F2N4O4/c32-22-8-9-26(25(33)16-22)36-14-12-35(13-15-36)17-20-4-6-21(7-5-20)19-41-28-3-1-2-23-24(28)18-37(31(23)40)27-10-11-29(38)34-30(27)39/h1-9,16,27H,10-15,17-19H2,(H,34,38,39)

> <PUBCHEM_IUPAC_INCHIKEY>
VQDRNQBRRSNVOR-UHFFFAOYSA-N

> <PUBCHEM_XLOGP3_AA>
3.3

> <PUBCHEM_EXACT_MASS>
560.22351178

> <PUBCHEM_MOLECULAR_FORMULA>
C31H30F2N4O4

> <PUBCHEM_MOLECULAR_WEIGHT>
560.6

> <PUBCHEM_OPENEYE_CAN_SMILES>
C1CC(=O)NC(=O)C1N2CC3=C(C2=O)C=CC=C3OCC4=CC=C(C=C4)CN5CCN(CC5)C6=C(C=C(C=C6)F)F

> <PUBCHEM_OPENEYE_ISO_SMILES>
C1CC(=O)NC(=O)C1N2CC3=C(C2=O)C=CC=C3OCC4=CC=C(C=C4)CN5CCN(CC5)C6=C(C=C(C=C6)F)F

> <PUBCHEM_CACTVS_TPSA>
82.2

> <PUBCHEM_MONOISOTOPIC_WEIGHT>
560.22351178

> <PUBCHEM_TOTAL_CHARGE>
0

> <PUBCHEM_HEAVY_ATOM_COUNT>
41

> <PUBCHEM_ATOM_DEF_STEREO_COUNT>
0

> <PUBCHEM_ATOM_UDEF_STEREO_COUNT>
1

> <PUBCHEM_BOND_DEF_STEREO_COUNT>
0

> <PUBCHEM_BOND_UDEF_STEREO_COUNT>
0

> <PUBCHEM_ISOTOPIC_ATOM_COUNT>
0

> <PUBCHEM_COMPONENT_COUNT>
1

> <PUBCHEM_CACTVS_TAUTO_COUNT>
-1

> <PUBCHEM_COORDINATE_TYPE>
1
5
255

> <PUBCHEM_BONDANNOTATIONS>
18  21  8
18  25  8
21  28  8
24  33  8
24  34  8
25  29  8
26  31  8
26  32  8
28  30  8
29  30  8
31  37  8
32  38  8
33  39  8
34  40  8
35  37  8
35  38  8
39  41  8
40  41  8
11  7  3

$$$$
