44626527
  -OEChem-09292322302D

 57 61  0     1  0  0  0  0  0999 V2000
   13.1576    2.2705    0.0000 Cl  0  0  0  0  0  0  0  0  0  0  0  0
    6.8867   -2.9615    0.0000 S   0  0  0  0  0  0  0  0  0  0  0  0
   11.4255    3.2705    0.0000 O   0  0  0  0  0  0  0  0  0  0  0  0
    2.5878   -2.1828    0.0000 O   0  0  0  0  0  0  0  0  0  0  0  0
    9.8867   -1.2295    0.0000 N   0  0  3  0  0  0  0  0  0  0  0  0
    5.2989   -2.1525    0.0000 N   0  0  0  0  0  0  0  0  0  0  0  0
    5.2989   -3.7705    0.0000 N   0  0  0  0  0  0  0  0  0  0  0  0
    4.3479   -3.4615    0.0000 N   0  0  0  0  0  0  0  0  0  0  0  0
    2.5878   -0.5647    0.0000 N   0  0  0  0  0  0  0  0  0  0  0  0
   11.4255   -0.7295    0.0000 C   0  0  3  0  0  0  0  0  0  0  0  0
   11.4255   -1.7295    0.0000 C   0  0  3  0  0  0  0  0  0  0  0  0
   12.2921   -1.2295    0.0000 C   0  0  0  0  0  0  0  0  0  0  0  0
   10.4745   -0.4204    0.0000 C   0  0  0  0  0  0  0  0  0  0  0  0
   10.4745   -2.0385    0.0000 C   0  0  0  0  0  0  0  0  0  0  0  0
   11.4255    0.2705    0.0000 C   0  0  0  0  0  0  0  0  0  0  0  0
    8.8867   -1.2295    0.0000 C   0  0  0  0  0  0  0  0  0  0  0  0
   12.2916    0.7705    0.0000 C   0  0  0  0  0  0  0  0  0  0  0  0
   10.5595    0.7705    0.0000 C   0  0  0  0  0  0  0  0  0  0  0  0
    8.3867   -2.0955    0.0000 C   0  0  0  0  0  0  0  0  0  0  0  0
   12.2916    1.7705    0.0000 C   0  0  0  0  0  0  0  0  0  0  0  0
   10.5595    1.7705    0.0000 C   0  0  0  0  0  0  0  0  0  0  0  0
   11.4255    2.2705    0.0000 C   0  0  0  0  0  0  0  0  0  0  0  0
    7.3867   -2.0955    0.0000 C   0  0  0  0  0  0  0  0  0  0  0  0
    5.8867   -2.9615    0.0000 C   0  0  0  0  0  0  0  0  0  0  0  0
   10.5595    3.7705    0.0000 C   0  0  0  0  0  0  0  0  0  0  0  0
    4.3479   -2.4615    0.0000 C   0  0  0  0  0  0  0  0  0  0  0  0
    5.6079   -1.2014    0.0000 C   0  0  0  0  0  0  0  0  0  0  0  0
    3.5388   -1.8737    0.0000 C   0  0  0  0  0  0  0  0  0  0  0  0
    3.5388   -0.8737    0.0000 C   0  0  0  0  0  0  0  0  0  0  0  0
    4.3479   -0.2859    0.0000 C   0  0  0  0  0  0  0  0  0  0  0  0
    2.0000   -1.3737    0.0000 C   0  0  0  0  0  0  0  0  0  0  0  0
   11.6776   -2.2959    0.0000 H   0  0  0  0  0  0  0  0  0  0  0  0
   12.6906   -1.7044    0.0000 H   0  0  0  0  0  0  0  0  0  0  0  0
   12.6906   -0.7545    0.0000 H   0  0  0  0  0  0  0  0  0  0  0  0
   10.7267    0.1459    0.0000 H   0  0  0  0  0  0  0  0  0  0  0  0
    9.9376   -0.1104    0.0000 H   0  0  0  0  0  0  0  0  0  0  0  0
    9.9376   -2.3485    0.0000 H   0  0  0  0  0  0  0  0  0  0  0  0
   10.7267   -2.6049    0.0000 H   0  0  0  0  0  0  0  0  0  0  0  0
    8.9944   -0.6189    0.0000 H   0  0  0  0  0  0  0  0  0  0  0  0
    8.3041   -1.0174    0.0000 H   0  0  0  0  0  0  0  0  0  0  0  0
   12.8285    0.4605    0.0000 H   0  0  0  0  0  0  0  0  0  0  0  0
   10.0226    0.4605    0.0000 H   0  0  0  0  0  0  0  0  0  0  0  0
    8.2790   -2.7061    0.0000 H   0  0  0  0  0  0  0  0  0  0  0  0
    8.9693   -2.3075    0.0000 H   0  0  0  0  0  0  0  0  0  0  0  0
   10.0226    2.0805    0.0000 H   0  0  0  0  0  0  0  0  0  0  0  0
    7.4944   -1.4849    0.0000 H   0  0  0  0  0  0  0  0  0  0  0  0
    6.8041   -1.8834    0.0000 H   0  0  0  0  0  0  0  0  0  0  0  0
   10.8695    4.3075    0.0000 H   0  0  0  0  0  0  0  0  0  0  0  0
   10.0226    4.0805    0.0000 H   0  0  0  0  0  0  0  0  0  0  0  0
   10.2495    3.2336    0.0000 H   0  0  0  0  0  0  0  0  0  0  0  0
    6.1976   -1.3930    0.0000 H   0  0  0  0  0  0  0  0  0  0  0  0
    5.7995   -0.6118    0.0000 H   0  0  0  0  0  0  0  0  0  0  0  0
    5.0183   -1.0098    0.0000 H   0  0  0  0  0  0  0  0  0  0  0  0
    4.7123   -0.7875    0.0000 H   0  0  0  0  0  0  0  0  0  0  0  0
    4.8494    0.0785    0.0000 H   0  0  0  0  0  0  0  0  0  0  0  0
    3.9834    0.2156    0.0000 H   0  0  0  0  0  0  0  0  0  0  0  0
    1.3800   -1.3737    0.0000 H   0  0  0  0  0  0  0  0  0  0  0  0
  1 20  1  0  0  0  0
  2 23  1  0  0  0  0
  2 24  1  0  0  0  0
  3 22  1  0  0  0  0
  3 25  1  0  0  0  0
  4 28  1  0  0  0  0
  4 31  1  0  0  0  0
  5 13  1  0  0  0  0
  5 14  1  0  0  0  0
  5 16  1  0  0  0  0
  6 24  1  0  0  0  0
  6 26  1  0  0  0  0
  6 27  1  0  0  0  0
  7  8  1  0  0  0  0
  7 24  2  0  0  0  0
  8 26  2  0  0  0  0
  9 29  1  0  0  0  0
  9 31  2  0  0  0  0
 10 11  1  0  0  0  0
 10 12  1  0  0  0  0
 10 13  1  0  0  0  0
 10 15  1  0  0  0  0
 11 12  1  0  0  0  0
 11 14  1  0  0  0  0
 11 32  1  0  0  0  0
 12 33  1  0  0  0  0
 12 34  1  0  0  0  0
 13 35  1  0  0  0  0
 13 36  1  0  0  0  0
 14 37  1  0  0  0  0
 14 38  1  0  0  0  0
 15 17  2  0  0  0  0
 15 18  1  0  0  0  0
 16 19  1  0  0  0  0
 16 39  1  0  0  0  0
 16 40  1  0  0  0  0
 17 20  1  0  0  0  0
 17 41  1  0  0  0  0
 18 21  2  0  0  0  0
 18 42  1  0  0  0  0
 19 23  1  0  0  0  0
 19 43  1  0  0  0  0
 19 44  1  0  0  0  0
 20 22  2  0  0  0  0
 21 22  1  0  0  0  0
 21 45  1  0  0  0  0
 23 46  1  0  0  0  0
 23 47  1  0  0  0  0
 25 48  1  0  0  0  0
 25 49  1  0  0  0  0
 25 50  1  0  0  0  0
 26 28  1  0  0  0  0
 27 51  1  0  0  0  0
 27 52  1  0  0  0  0
 27 53  1  0  0  0  0
 28 29  2  0  0  0  0
 29 30  1  0  0  0  0
 30 54  1  0  0  0  0
 30 55  1  0  0  0  0
 30 56  1  0  0  0  0
 31 57  1  0  0  0  0
M  END
> <PUBCHEM_COMPOUND_CID>
44626527

> <PUBCHEM_COMPOUND_CANONICALIZED>
1

> <PUBCHEM_CACTVS_COMPLEXITY>
635

> <PUBCHEM_CACTVS_HBOND_ACCEPTOR>
7

> <PUBCHEM_CACTVS_HBOND_DONOR>
0

> <PUBCHEM_CACTVS_ROTATABLE_BOND>
8

> <PUBCHEM_CACTVS_SUBSKEYS>
AAADceB7sABEAAAAAAAAAAAAGAAAAWLFgAA8QAAAAAAAAAAB8AAAHgYIAAAADw7F3ya3lpcMFEiqA6Zz9ASS2Ct7ZfAd2CG/T5iOLiPl+zuNMChkzBPYqAeQwPAPoAAAIAAACABAAABAAAAQAAAAAAAAAA==

> <PUBCHEM_IUPAC_OPENEYE_NAME>
5-[5-[3-[1-(3-chloro-4-methoxy-phenyl)-3-azabicyclo[3.1.0]hexan-3-yl]propylsulfanyl]-4-methyl-1,2,4-triazol-3-yl]-4-methyl-oxazole

> <PUBCHEM_IUPAC_CAS_NAME>
5-[5-[3-[1-(3-chloro-4-methoxyphenyl)-3-azabicyclo[3.1.0]hexan-3-yl]propylthio]-4-methyl-1,2,4-triazol-3-yl]-4-methyloxazole

> <PUBCHEM_IUPAC_NAME_MARKUP>
5-[5-[3-[1-(3-chloro-4-methoxyphenyl)-3-azabicyclo[3.1.0]hexan-3-yl]propylsulfanyl]-4-methyl-1,2,4-triazol-3-yl]-4-methyl-1,3-oxazole

> <PUBCHEM_IUPAC_NAME>
5-[5-[3-[1-(3-chloro-4-methoxyphenyl)-3-azabicyclo[3.1.0]hexan-3-yl]propylsulfanyl]-4-methyl-1,2,4-triazol-3-yl]-4-methyl-1,3-oxazole

> <PUBCHEM_IUPAC_SYSTEMATIC_NAME>
5-[5-[3-[1-(3-chloranyl-4-methoxy-phenyl)-3-azabicyclo[3.1.0]hexan-3-yl]propylsulfanyl]-4-methyl-1,2,4-triazol-3-yl]-4-methyl-1,3-oxazole

> <PUBCHEM_IUPAC_TRADITIONAL_NAME>
5-[5-[3-[1-(3-chloro-4-methoxy-phenyl)-3-azabicyclo[3.1.0]hexan-3-yl]propylthio]-4-methyl-1,2,4-triazol-3-yl]-4-methyl-oxazole

> <PUBCHEM_IUPAC_INCHI>
InChI=1S/C22H26ClN5O2S/c1-14-19(30-13-24-14)20-25-26-21(27(20)2)31-8-4-7-28-11-16-10-22(16,12-28)15-5-6-18(29-3)17(23)9-15/h5-6,9,13,16H,4,7-8,10-12H2,1-3H3

> <PUBCHEM_IUPAC_INCHIKEY>
DHOZKKHZCBDGEK-UHFFFAOYSA-N

> <PUBCHEM_XLOGP3_AA>
3.7

> <PUBCHEM_EXACT_MASS>
459.1495740

> <PUBCHEM_MOLECULAR_FORMULA>
C22H26ClN5O2S

> <PUBCHEM_MOLECULAR_WEIGHT>
460.0

> <PUBCHEM_OPENEYE_CAN_SMILES>
CC1=C(OC=N1)C2=NN=C(N2C)SCCCN3CC4CC4(C3)C5=CC(=C(C=C5)OC)Cl

> <PUBCHEM_OPENEYE_ISO_SMILES>
CC1=C(OC=N1)C2=NN=C(N2C)SCCCN3CC4CC4(C3)C5=CC(=C(C=C5)OC)Cl

> <PUBCHEM_CACTVS_TPSA>
94.5

> <PUBCHEM_MONOISOTOPIC_WEIGHT>
459.1495740

> <PUBCHEM_TOTAL_CHARGE>
0

> <PUBCHEM_HEAVY_ATOM_COUNT>
31

> <PUBCHEM_ATOM_DEF_STEREO_COUNT>
0

> <PUBCHEM_ATOM_UDEF_STEREO_COUNT>
2

> <PUBCHEM_BOND_DEF_STEREO_COUNT>
0

> <PUBCHEM_BOND_UDEF_STEREO_COUNT>
0

> <PUBCHEM_ISOTOPIC_ATOM_COUNT>
0

> <PUBCHEM_COMPONENT_COUNT>
1

> <PUBCHEM_CACTVS_TAUTO_COUNT>
-1

> <PUBCHEM_COORDINATE_TYPE>
1
5
255

> <PUBCHEM_BONDANNOTATIONS>
10  15  3
11  12  3
15  17  8
15  18  8
17  20  8
18  21  8
20  22  8
21  22  8
28  29  8
4  28  8
4  31  8
6  24  8
6  26  8
7  24  8
7  8  8
8  26  8
9  29  8
9  31  8

$$$$
