44406886
  -OEChem-09292322272D

 75 78  0     0  0  0  0  0  0999 V2000
    3.3660   -7.4330    0.0000 F   0  0  0  0  0  0  0  0  0  0  0  0
    2.0000   -7.0670    0.0000 F   0  0  0  0  0  0  0  0  0  0  0  0
    2.3660   -5.7010    0.0000 F   0  0  0  0  0  0  0  0  0  0  0  0
    8.0622    2.4330    0.0000 O   0  0  0  0  0  0  0  0  0  0  0  0
    4.5981   -1.5670    0.0000 N   0  0  0  0  0  0  0  0  0  0  0  0
    4.5981   -3.5670    0.0000 N   0  0  0  0  0  0  0  0  0  0  0  0
    6.3301    5.4330    0.0000 N   0  0  0  0  0  0  0  0  0  0  0  0
    6.3301    2.4330    0.0000 N   0  0  0  0  0  0  0  0  0  0  0  0
    5.4641   -5.0670    0.0000 N   0  0  0  0  0  0  0  0  0  0  0  0
    7.1962    3.9330    0.0000 N   0  0  0  0  0  0  0  0  0  0  0  0
    4.5981   -6.5670    0.0000 N   0  0  0  0  0  0  0  0  0  0  0  0
    5.4641   -2.0670    0.0000 C   0  0  0  0  0  0  0  0  0  0  0  0
    3.7320   -2.0670    0.0000 C   0  0  0  0  0  0  0  0  0  0  0  0
    5.4641   -3.0670    0.0000 C   0  0  0  0  0  0  0  0  0  0  0  0
    3.7320   -3.0670    0.0000 C   0  0  0  0  0  0  0  0  0  0  0  0
    4.5981   -0.5670    0.0000 C   0  0  0  0  0  0  0  0  0  0  0  0
    5.4641   -0.0670    0.0000 C   0  0  0  0  0  0  0  0  0  0  0  0
    5.4641    0.9330    0.0000 C   0  0  0  0  0  0  0  0  0  0  0  0
    6.3301    7.4330    0.0000 C   0  0  0  0  0  0  0  0  0  0  0  0
    7.1962    6.9330    0.0000 C   0  0  0  0  0  0  0  0  0  0  0  0
    5.4641    6.9330    0.0000 C   0  0  0  0  0  0  0  0  0  0  0  0
    7.1962    5.9330    0.0000 C   0  0  0  0  0  0  0  0  0  0  0  0
    5.4641    5.9330    0.0000 C   0  0  0  0  0  0  0  0  0  0  0  0
    4.5981   -4.5670    0.0000 C   0  0  0  0  0  0  0  0  0  0  0  0
    6.3301    1.4330    0.0000 C   0  0  0  0  0  0  0  0  0  0  0  0
    6.3301   -6.5670    0.0000 C   0  0  0  0  0  0  0  0  0  0  0  0
    6.3301    4.4330    0.0000 C   0  0  0  0  0  0  0  0  0  0  0  0
    5.4641   -6.0670    0.0000 C   0  0  0  0  0  0  0  0  0  0  0  0
    3.7320   -5.0670    0.0000 C   0  0  0  0  0  0  0  0  0  0  0  0
    5.4641    3.9330    0.0000 C   0  0  0  0  0  0  0  0  0  0  0  0
    5.4641    2.9330    0.0000 C   0  0  0  0  0  0  0  0  0  0  0  0
    3.7320   -6.0670    0.0000 C   0  0  0  0  0  0  0  0  0  0  0  0
    7.1962    2.9330    0.0000 C   0  0  0  0  0  0  0  0  0  0  0  0
    7.1962   -7.0670    0.0000 C   0  0  0  0  0  0  0  0  0  0  0  0
    5.8301   -7.4330    0.0000 C   0  0  0  0  0  0  0  0  0  0  0  0
    6.8301   -5.7010    0.0000 C   0  0  0  0  0  0  0  0  0  0  0  0
    2.8660   -6.5670    0.0000 C   0  0  0  0  0  0  0  0  0  0  0  0
    6.0747   -2.1747    0.0000 H   0  0  0  0  0  0  0  0  0  0  0  0
    5.6762   -1.4844    0.0000 H   0  0  0  0  0  0  0  0  0  0  0  0
    3.5200   -1.4844    0.0000 H   0  0  0  0  0  0  0  0  0  0  0  0
    3.1215   -2.1747    0.0000 H   0  0  0  0  0  0  0  0  0  0  0  0
    5.6762   -3.6496    0.0000 H   0  0  0  0  0  0  0  0  0  0  0  0
    6.0747   -2.9593    0.0000 H   0  0  0  0  0  0  0  0  0  0  0  0
    3.1215   -2.9593    0.0000 H   0  0  0  0  0  0  0  0  0  0  0  0
    3.5200   -3.6496    0.0000 H   0  0  0  0  0  0  0  0  0  0  0  0
    4.3860    0.0156    0.0000 H   0  0  0  0  0  0  0  0  0  0  0  0
    3.9875   -0.6746    0.0000 H   0  0  0  0  0  0  0  0  0  0  0  0
    5.6762   -0.6496    0.0000 H   0  0  0  0  0  0  0  0  0  0  0  0
    6.0747    0.0407    0.0000 H   0  0  0  0  0  0  0  0  0  0  0  0
    5.2520    1.5156    0.0000 H   0  0  0  0  0  0  0  0  0  0  0  0
    4.8535    0.8254    0.0000 H   0  0  0  0  0  0  0  0  0  0  0  0
    6.7287    7.9080    0.0000 H   0  0  0  0  0  0  0  0  0  0  0  0
    5.9316    7.9080    0.0000 H   0  0  0  0  0  0  0  0  0  0  0  0
    7.8067    6.8254    0.0000 H   0  0  0  0  0  0  0  0  0  0  0  0
    7.4082    7.5156    0.0000 H   0  0  0  0  0  0  0  0  0  0  0  0
    5.2520    7.5156    0.0000 H   0  0  0  0  0  0  0  0  0  0  0  0
    4.8535    6.8254    0.0000 H   0  0  0  0  0  0  0  0  0  0  0  0
    7.4082    5.3504    0.0000 H   0  0  0  0  0  0  0  0  0  0  0  0
    7.8067    6.0407    0.0000 H   0  0  0  0  0  0  0  0  0  0  0  0
    4.8535    6.0407    0.0000 H   0  0  0  0  0  0  0  0  0  0  0  0
    5.2520    5.3504    0.0000 H   0  0  0  0  0  0  0  0  0  0  0  0
    6.5422    0.8504    0.0000 H   0  0  0  0  0  0  0  0  0  0  0  0
    6.9407    1.5407    0.0000 H   0  0  0  0  0  0  0  0  0  0  0  0
    3.1951   -4.7570    0.0000 H   0  0  0  0  0  0  0  0  0  0  0  0
    4.9272    4.2430    0.0000 H   0  0  0  0  0  0  0  0  0  0  0  0
    4.9272    2.6230    0.0000 H   0  0  0  0  0  0  0  0  0  0  0  0
    6.8862   -7.6039    0.0000 H   0  0  0  0  0  0  0  0  0  0  0  0
    7.7331   -7.3770    0.0000 H   0  0  0  0  0  0  0  0  0  0  0  0
    7.5062   -6.5300    0.0000 H   0  0  0  0  0  0  0  0  0  0  0  0
    5.2932   -7.1230    0.0000 H   0  0  0  0  0  0  0  0  0  0  0  0
    5.5201   -7.9700    0.0000 H   0  0  0  0  0  0  0  0  0  0  0  0
    6.3671   -7.7430    0.0000 H   0  0  0  0  0  0  0  0  0  0  0  0
    7.3671   -6.0110    0.0000 H   0  0  0  0  0  0  0  0  0  0  0  0
    7.1401   -5.1640    0.0000 H   0  0  0  0  0  0  0  0  0  0  0  0
    6.2932   -5.3910    0.0000 H   0  0  0  0  0  0  0  0  0  0  0  0
  1 37  1  0  0  0  0
  2 37  1  0  0  0  0
  3 37  1  0  0  0  0
  4 33  2  0  0  0  0
  5 12  1  0  0  0  0
  5 13  1  0  0  0  0
  5 16  1  0  0  0  0
  6 14  1  0  0  0  0
  6 15  1  0  0  0  0
  6 24  1  0  0  0  0
  7 22  1  0  0  0  0
  7 23  1  0  0  0  0
  7 27  1  0  0  0  0
  8 25  1  0  0  0  0
  8 31  1  0  0  0  0
  8 33  1  0  0  0  0
  9 24  2  0  0  0  0
  9 28  1  0  0  0  0
 10 27  2  0  0  0  0
 10 33  1  0  0  0  0
 11 28  2  0  0  0  0
 11 32  1  0  0  0  0
 12 14  1  0  0  0  0
 12 38  1  0  0  0  0
 12 39  1  0  0  0  0
 13 15  1  0  0  0  0
 13 40  1  0  0  0  0
 13 41  1  0  0  0  0
 14 42  1  0  0  0  0
 14 43  1  0  0  0  0
 15 44  1  0  0  0  0
 15 45  1  0  0  0  0
 16 17  1  0  0  0  0
 16 46  1  0  0  0  0
 16 47  1  0  0  0  0
 17 18  1  0  0  0  0
 17 48  1  0  0  0  0
 17 49  1  0  0  0  0
 18 25  1  0  0  0  0
 18 50  1  0  0  0  0
 18 51  1  0  0  0  0
 19 20  1  0  0  0  0
 19 21  1  0  0  0  0
 19 52  1  0  0  0  0
 19 53  1  0  0  0  0
 20 22  1  0  0  0  0
 20 54  1  0  0  0  0
 20 55  1  0  0  0  0
 21 23  1  0  0  0  0
 21 56  1  0  0  0  0
 21 57  1  0  0  0  0
 22 58  1  0  0  0  0
 22 59  1  0  0  0  0
 23 60  1  0  0  0  0
 23 61  1  0  0  0  0
 24 29  1  0  0  0  0
 25 62  1  0  0  0  0
 25 63  1  0  0  0  0
 26 28  1  0  0  0  0
 26 34  1  0  0  0  0
 26 35  1  0  0  0  0
 26 36  1  0  0  0  0
 27 30  1  0  0  0  0
 29 32  2  0  0  0  0
 29 64  1  0  0  0  0
 30 31  2  0  0  0  0
 30 65  1  0  0  0  0
 31 66  1  0  0  0  0
 32 37  1  0  0  0  0
 34 67  1  0  0  0  0
 34 68  1  0  0  0  0
 34 69  1  0  0  0  0
 35 70  1  0  0  0  0
 35 71  1  0  0  0  0
 35 72  1  0  0  0  0
 36 73  1  0  0  0  0
 36 74  1  0  0  0  0
 36 75  1  0  0  0  0
M  END
> <PUBCHEM_COMPOUND_CID>
44406886

> <PUBCHEM_COMPOUND_CANONICALIZED>
1

> <PUBCHEM_CACTVS_COMPLEXITY>
827

> <PUBCHEM_CACTVS_HBOND_ACCEPTOR>
8

> <PUBCHEM_CACTVS_HBOND_DONOR>
0

> <PUBCHEM_CACTVS_ROTATABLE_BOND>
8

> <PUBCHEM_CACTVS_SUBSKEYS>
AAADcfB7oYAAAAAAAAAAAAAAAAAAAAAAAAAsWLEAAAAAAAABgAAAHwAAAAAADgjBFxQzsJcIEACoASZmdACAgCkhAqAJGCA4ZBiAaAJAyMAUBAhIBgLAQCAQAAAAAAAAAAAAAAAAAAAAAAAAAAAAAAAAAA==

> <PUBCHEM_IUPAC_OPENEYE_NAME>
1-[4-[4-[2-tert-butyl-6-(trifluoromethyl)pyrimidin-4-yl]piperazin-1-yl]butyl]-4-(1-piperidyl)pyrimidin-2-one

> <PUBCHEM_IUPAC_CAS_NAME>
1-[4-[4-[2-tert-butyl-6-(trifluoromethyl)-4-pyrimidinyl]-1-piperazinyl]butyl]-4-(1-piperidinyl)-2-pyrimidinone

> <PUBCHEM_IUPAC_NAME_MARKUP>
1-[4-[4-[2-<I>tert</I>-butyl-6-(trifluoromethyl)pyrimidin-4-yl]piperazin-1-yl]butyl]-4-piperidin-1-ylpyrimidin-2-one

> <PUBCHEM_IUPAC_NAME>
1-[4-[4-[2-tert-butyl-6-(trifluoromethyl)pyrimidin-4-yl]piperazin-1-yl]butyl]-4-piperidin-1-ylpyrimidin-2-one

> <PUBCHEM_IUPAC_SYSTEMATIC_NAME>
1-[4-[4-[2-tert-butyl-6-(trifluoromethyl)pyrimidin-4-yl]piperazin-1-yl]butyl]-4-piperidin-1-yl-pyrimidin-2-one

> <PUBCHEM_IUPAC_TRADITIONAL_NAME>
1-[4-[4-[2-tert-butyl-6-(trifluoromethyl)pyrimidin-4-yl]piperazino]butyl]-4-piperidino-pyrimidin-2-one

> <PUBCHEM_IUPAC_INCHI>
InChI=1S/C26H38F3N7O/c1-25(2,3)23-30-20(26(27,28)29)19-22(31-23)35-17-15-33(16-18-35)10-7-8-13-36-14-9-21(32-24(36)37)34-11-5-4-6-12-34/h9,14,19H,4-8,10-13,15-18H2,1-3H3

> <PUBCHEM_IUPAC_INCHIKEY>
WZWWBVCSJDIKCC-UHFFFAOYSA-N

> <PUBCHEM_XLOGP3_AA>
3.9

> <PUBCHEM_EXACT_MASS>
521.30899335

> <PUBCHEM_MOLECULAR_FORMULA>
C26H38F3N7O

> <PUBCHEM_MOLECULAR_WEIGHT>
521.6

> <PUBCHEM_OPENEYE_CAN_SMILES>
CC(C)(C)C1=NC(=CC(=N1)N2CCN(CC2)CCCCN3C=CC(=NC3=O)N4CCCCC4)C(F)(F)F

> <PUBCHEM_OPENEYE_ISO_SMILES>
CC(C)(C)C1=NC(=CC(=N1)N2CCN(CC2)CCCCN3C=CC(=NC3=O)N4CCCCC4)C(F)(F)F

> <PUBCHEM_CACTVS_TPSA>
68.2

> <PUBCHEM_MONOISOTOPIC_WEIGHT>
521.30899335

> <PUBCHEM_TOTAL_CHARGE>
0

> <PUBCHEM_HEAVY_ATOM_COUNT>
37

> <PUBCHEM_ATOM_DEF_STEREO_COUNT>
0

> <PUBCHEM_ATOM_UDEF_STEREO_COUNT>
0

> <PUBCHEM_BOND_DEF_STEREO_COUNT>
0

> <PUBCHEM_BOND_UDEF_STEREO_COUNT>
0

> <PUBCHEM_ISOTOPIC_ATOM_COUNT>
0

> <PUBCHEM_COMPONENT_COUNT>
1

> <PUBCHEM_CACTVS_TAUTO_COUNT>
-1

> <PUBCHEM_COORDINATE_TYPE>
1
5
255

> <PUBCHEM_BONDANNOTATIONS>
10  27  8
10  33  8
11  28  8
11  32  8
24  29  8
27  30  8
29  32  8
30  31  8
8  31  8
8  33  8
9  24  8
9  28  8

$$$$
