138691314
  -OEChem-09292322412D

 29 31  0     0  0  0  0  0  0999 V2000
    2.0000   -0.0199    0.0000 I   0  0  0  0  0  0  0  0  0  0  0  0
    5.2686    1.5454    0.0000 N   0  0  0  0  0  0  0  0  0  0  0  0
    5.5443   -1.8247    0.0000 N   0  0  0  0  0  0  0  0  0  0  0  0
    6.8083    2.0427    0.0000 N   0  0  0  0  0  0  0  0  0  0  0  0
    5.5443   -0.2152    0.0000 C   0  0  0  0  0  0  0  0  0  0  0  0
    5.8550    0.7353    0.0000 C   0  0  0  0  0  0  0  0  0  0  0  0
    4.5981   -0.5199    0.0000 C   0  0  0  0  0  0  0  0  0  0  0  0
    4.5981   -1.5199    0.0000 C   0  0  0  0  0  0  0  0  0  0  0  0
    6.1279   -1.0199    0.0000 C   0  0  0  0  0  0  0  0  0  0  0  0
    4.2686    1.5471    0.0000 C   0  0  0  0  0  0  0  0  0  0  0  0
    3.7320   -0.0199    0.0000 C   0  0  0  0  0  0  0  0  0  0  0  0
    6.8066    1.0427    0.0000 C   0  0  0  0  0  0  0  0  0  0  0  0
    5.8578    2.3534    0.0000 C   0  0  0  0  0  0  0  0  0  0  0  0
    3.7320   -2.0199    0.0000 C   0  0  0  0  0  0  0  0  0  0  0  0
    3.7701    2.4140    0.0000 C   0  0  0  0  0  0  0  0  0  0  0  0
    2.8660   -0.5199    0.0000 C   0  0  0  0  0  0  0  0  0  0  0  0
    2.8660   -1.5199    0.0000 C   0  0  0  0  0  0  0  0  0  0  0  0
    6.7479   -1.0199    0.0000 H   0  0  0  0  0  0  0  0  0  0  0  0
    3.6856    1.3360    0.0000 H   0  0  0  0  0  0  0  0  0  0  0  0
    4.3752    0.9363    0.0000 H   0  0  0  0  0  0  0  0  0  0  0  0
    5.7369   -2.4140    0.0000 H   0  0  0  0  0  0  0  0  0  0  0  0
    3.7320    0.6001    0.0000 H   0  0  0  0  0  0  0  0  0  0  0  0
    7.3075    0.6774    0.0000 H   0  0  0  0  0  0  0  0  0  0  0  0
    5.6672    2.9433    0.0000 H   0  0  0  0  0  0  0  0  0  0  0  0
    3.7320   -2.6399    0.0000 H   0  0  0  0  0  0  0  0  0  0  0  0
    4.3076    2.7231    0.0000 H   0  0  0  0  0  0  0  0  0  0  0  0
    3.4610    2.9514    0.0000 H   0  0  0  0  0  0  0  0  0  0  0  0
    3.2326    2.1049    0.0000 H   0  0  0  0  0  0  0  0  0  0  0  0
    2.3291   -1.8299    0.0000 H   0  0  0  0  0  0  0  0  0  0  0  0
  1 16  1  0  0  0  0
  2  6  1  0  0  0  0
  2 10  1  0  0  0  0
  2 13  1  0  0  0  0
  3  8  1  0  0  0  0
  3  9  1  0  0  0  0
  3 21  1  0  0  0  0
  4 12  1  0  0  0  0
  4 13  2  0  0  0  0
  5  6  1  0  0  0  0
  5  7  1  0  0  0  0
  5  9  2  0  0  0  0
  6 12  2  0  0  0  0
  7  8  2  0  0  0  0
  7 11  1  0  0  0  0
  8 14  1  0  0  0  0
  9 18  1  0  0  0  0
 10 15  1  0  0  0  0
 10 19  1  0  0  0  0
 10 20  1  0  0  0  0
 11 16  2  0  0  0  0
 11 22  1  0  0  0  0
 12 23  1  0  0  0  0
 13 24  1  0  0  0  0
 14 17  2  0  0  0  0
 14 25  1  0  0  0  0
 15 26  1  0  0  0  0
 15 27  1  0  0  0  0
 15 28  1  0  0  0  0
 16 17  1  0  0  0  0
 17 29  1  0  0  0  0
M  END
> <PUBCHEM_COMPOUND_CID>
138691314

> <PUBCHEM_COMPOUND_CANONICALIZED>
1

> <PUBCHEM_CACTVS_COMPLEXITY>
273

> <PUBCHEM_CACTVS_HBOND_ACCEPTOR>
1

> <PUBCHEM_CACTVS_HBOND_DONOR>
1

> <PUBCHEM_CACTVS_ROTATABLE_BOND>
2

> <PUBCHEM_CACTVS_SUBSKEYS>
AAADccBzAAAAAgAAAAAAAAAAAAAAAWLAAAAwAAAAAAAAAFgB/AAAHAAwAAAADAjDHgQ/0PfNkACgAzRnZACCgC0xEqAJ2aA4dJiIaOLA2ZGUIAhokALIyCcQgMAOgAAAAAACAAAAAAAAAAQAAAAAAAAAAA==

> <PUBCHEM_IUPAC_OPENEYE_NAME>
3-(3-ethylimidazol-4-yl)-5-iodo-1H-indole

> <PUBCHEM_IUPAC_CAS_NAME>
3-(3-ethyl-4-imidazolyl)-5-iodo-1H-indole

> <PUBCHEM_IUPAC_NAME_MARKUP>
3-(3-ethylimidazol-4-yl)-5-iodo-1<I>H</I>-indole

> <PUBCHEM_IUPAC_NAME>
3-(3-ethylimidazol-4-yl)-5-iodo-1H-indole

> <PUBCHEM_IUPAC_SYSTEMATIC_NAME>
3-(3-ethylimidazol-4-yl)-5-iodanyl-1H-indole

> <PUBCHEM_IUPAC_TRADITIONAL_NAME>
3-(3-ethylimidazol-4-yl)-5-iodo-1H-indole

> <PUBCHEM_IUPAC_INCHI>
InChI=1S/C13H12IN3/c1-2-17-8-15-7-13(17)11-6-16-12-4-3-9(14)5-10(11)12/h3-8,16H,2H2,1H3

> <PUBCHEM_IUPAC_INCHIKEY>
JLCILCCDUVFIRF-UHFFFAOYSA-N

> <PUBCHEM_XLOGP3_AA>
2.8

> <PUBCHEM_EXACT_MASS>
337.00759

> <PUBCHEM_MOLECULAR_FORMULA>
C13H12IN3

> <PUBCHEM_MOLECULAR_WEIGHT>
337.16

> <PUBCHEM_OPENEYE_CAN_SMILES>
CCN1C=NC=C1C2=CNC3=C2C=C(C=C3)I

> <PUBCHEM_OPENEYE_ISO_SMILES>
CCN1C=NC=C1C2=CNC3=C2C=C(C=C3)I

> <PUBCHEM_CACTVS_TPSA>
33.6

> <PUBCHEM_MONOISOTOPIC_WEIGHT>
337.00759

> <PUBCHEM_TOTAL_CHARGE>
0

> <PUBCHEM_HEAVY_ATOM_COUNT>
17

> <PUBCHEM_ATOM_DEF_STEREO_COUNT>
0

> <PUBCHEM_ATOM_UDEF_STEREO_COUNT>
0

> <PUBCHEM_BOND_DEF_STEREO_COUNT>
0

> <PUBCHEM_BOND_UDEF_STEREO_COUNT>
0

> <PUBCHEM_ISOTOPIC_ATOM_COUNT>
0

> <PUBCHEM_COMPONENT_COUNT>
1

> <PUBCHEM_CACTVS_TAUTO_COUNT>
-1

> <PUBCHEM_COORDINATE_TYPE>
1
5
255

> <PUBCHEM_BONDANNOTATIONS>
11  16  8
14  17  8
16  17  8
2  13  8
2  6  8
3  8  8
3  9  8
4  12  8
4  13  8
5  7  8
5  9  8
6  12  8
7  11  8
7  8  8
8  14  8

$$$$
