10713670
  -OEChem-09292322102D

 47 51  0     1  0  0  0  0  0999 V2000
    2.2660    0.7694    0.0000 F   0  0  0  0  0  0  0  0  0  0  0  0
    2.0000   -3.1870    0.0000 F   0  0  0  0  0  0  0  0  0  0  0  0
    4.4990    2.7729    0.0000 N   0  0  0  0  0  0  0  0  0  0  0  0
    4.9718   -1.2458    0.0000 N   0  0  0  0  0  0  0  0  0  0  0  0
    3.9609    1.1266    0.0000 C   0  0  2  0  0  0  0  0  0  0  0  0
    3.0104    1.4373    0.0000 C   0  0  1  0  0  0  0  0  0  0  0  0
    4.1671    0.1481    0.0000 C   0  0  0  0  0  0  0  0  0  0  0  0
    4.7052    1.7944    0.0000 C   0  0  0  0  0  0  0  0  0  0  0  0
    2.8041    2.4158    0.0000 C   0  0  0  0  0  0  0  0  0  0  0  0
    3.5484    3.0836    0.0000 C   0  0  0  0  0  0  0  0  0  0  0  0
    5.0749   -0.2570    0.0000 C   0  0  0  0  0  0  0  0  0  0  0  0
    3.5000   -0.5889    0.0000 C   0  0  0  0  0  0  0  0  0  0  0  0
    4.0000   -1.4550    0.0000 C   0  0  0  0  0  0  0  0  0  0  0  0
    5.9409    0.2430    0.0000 C   0  0  0  0  0  0  0  0  0  0  0  0
    2.5000   -0.5889    0.0000 C   0  0  0  0  0  0  0  0  0  0  0  0
    3.5000   -2.3210    0.0000 C   0  0  0  0  0  0  0  0  0  0  0  0
    6.8069   -0.2570    0.0000 C   0  0  0  0  0  0  0  0  0  0  0  0
    5.9409    1.2430    0.0000 C   0  0  0  0  0  0  0  0  0  0  0  0
    2.0000   -1.4550    0.0000 C   0  0  0  0  0  0  0  0  0  0  0  0
    2.5000   -2.3210    0.0000 C   0  0  0  0  0  0  0  0  0  0  0  0
    7.6730    0.2430    0.0000 C   0  0  0  0  0  0  0  0  0  0  0  0
    7.6730    1.2430    0.0000 C   0  0  0  0  0  0  0  0  0  0  0  0
    6.8069    1.7430    0.0000 C   0  0  0  0  0  0  0  0  0  0  0  0
    8.5669   -0.2917    0.0000 C   0  0  0  0  0  0  0  0  0  0  0  0
    8.5669    1.7776    0.0000 C   0  0  0  0  0  0  0  0  0  0  0  0
    9.4730    0.2222    0.0000 C   0  0  0  0  0  0  0  0  0  0  0  0
    9.4730    1.2638    0.0000 C   0  0  0  0  0  0  0  0  0  0  0  0
    4.7688    0.8625    0.0000 H   0  0  0  0  0  0  0  0  0  0  0  0
    3.1382    0.8306    0.0000 H   0  0  0  0  0  0  0  0  0  0  0  0
    5.0328    1.2681    0.0000 H   0  0  0  0  0  0  0  0  0  0  0  0
    5.2804    2.0257    0.0000 H   0  0  0  0  0  0  0  0  0  0  0  0
    2.4765    2.9421    0.0000 H   0  0  0  0  0  0  0  0  0  0  0  0
    2.2289    2.1845    0.0000 H   0  0  0  0  0  0  0  0  0  0  0  0
    3.8404    3.6305    0.0000 H   0  0  0  0  0  0  0  0  0  0  0  0
    3.0605    3.4662    0.0000 H   0  0  0  0  0  0  0  0  0  0  0  0
    4.9604    3.1870    0.0000 H   0  0  0  0  0  0  0  0  0  0  0  0
    5.4333   -1.6598    0.0000 H   0  0  0  0  0  0  0  0  0  0  0  0
    2.1900   -0.0520    0.0000 H   0  0  0  0  0  0  0  0  0  0  0  0
    3.8100   -2.8579    0.0000 H   0  0  0  0  0  0  0  0  0  0  0  0
    6.8069   -0.8770    0.0000 H   0  0  0  0  0  0  0  0  0  0  0  0
    5.4040    1.5530    0.0000 H   0  0  0  0  0  0  0  0  0  0  0  0
    1.3800   -1.4550    0.0000 H   0  0  0  0  0  0  0  0  0  0  0  0
    6.8069    2.3630    0.0000 H   0  0  0  0  0  0  0  0  0  0  0  0
    8.5597   -0.9116    0.0000 H   0  0  0  0  0  0  0  0  0  0  0  0
    8.5597    2.3976    0.0000 H   0  0  0  0  0  0  0  0  0  0  0  0
   10.0087   -0.0899    0.0000 H   0  0  0  0  0  0  0  0  0  0  0  0
   10.0087    1.5759    0.0000 H   0  0  0  0  0  0  0  0  0  0  0  0
  6  1  1  6  0  0  0
  2 20  1  0  0  0  0
  3  8  1  0  0  0  0
  3 10  1  0  0  0  0
  3 36  1  0  0  0  0
  4 11  1  0  0  0  0
  4 13  1  0  0  0  0
  4 37  1  0  0  0  0
  5  6  1  0  0  0  0
  5  7  1  0  0  0  0
  5  8  1  0  0  0  0
  5 28  1  6  0  0  0
  6  9  1  0  0  0  0
  6 29  1  0  0  0  0
  7 11  2  0  0  0  0
  7 12  1  0  0  0  0
  8 30  1  0  0  0  0
  8 31  1  0  0  0  0
  9 10  1  0  0  0  0
  9 32  1  0  0  0  0
  9 33  1  0  0  0  0
 10 34  1  0  0  0  0
 10 35  1  0  0  0  0
 11 14  1  0  0  0  0
 12 13  2  0  0  0  0
 12 15  1  0  0  0  0
 13 16  1  0  0  0  0
 14 17  2  0  0  0  0
 14 18  1  0  0  0  0
 15 19  2  0  0  0  0
 15 38  1  0  0  0  0
 16 20  2  0  0  0  0
 16 39  1  0  0  0  0
 17 21  1  0  0  0  0
 17 40  1  0  0  0  0
 18 23  2  0  0  0  0
 18 41  1  0  0  0  0
 19 20  1  0  0  0  0
 19 42  1  0  0  0  0
 21 22  1  0  0  0  0
 21 24  2  0  0  0  0
 22 23  1  0  0  0  0
 22 25  2  0  0  0  0
 23 43  1  0  0  0  0
 24 26  1  0  0  0  0
 24 44  1  0  0  0  0
 25 27  1  0  0  0  0
 25 45  1  0  0  0  0
 26 27  2  0  0  0  0
 26 46  1  0  0  0  0
 27 47  1  0  0  0  0
M  END
> <PUBCHEM_COMPOUND_CID>
10713670

> <PUBCHEM_COMPOUND_CANONICALIZED>
1

> <PUBCHEM_CACTVS_COMPLEXITY>
515

> <PUBCHEM_CACTVS_HBOND_ACCEPTOR>
3

> <PUBCHEM_CACTVS_HBOND_DONOR>
2

> <PUBCHEM_CACTVS_ROTATABLE_BOND>
2

> <PUBCHEM_CACTVS_SUBSKEYS>
AAADceB7AYAAAAAAAAAAAAAAAAAAAWAAAAA8YMEAAAAAAFjB9AAAHQAQAAAADQjBHgwwwPLJkACgAyRiRACCgCAhAiAImaA4ZJgIIOLAkZGEIAhgkADIyAcQgMAOwAACAAASAACAAAQAACQAAAAAAAAAAA==

> <PUBCHEM_IUPAC_OPENEYE_NAME>
6-fluoro-3-[(3R,4R)-4-fluoro-3-piperidyl]-2-(2-naphthyl)-1H-indole

> <PUBCHEM_IUPAC_CAS_NAME>
6-fluoro-3-[(3R,4R)-4-fluoro-3-piperidinyl]-2-(2-naphthalenyl)-1H-indole

> <PUBCHEM_IUPAC_NAME_MARKUP>
6-fluoro-3-[(3<I>R</I>,4<I>R</I>)-4-fluoropiperidin-3-yl]-2-naphthalen-2-yl-1<I>H</I>-indole

> <PUBCHEM_IUPAC_NAME>
6-fluoro-3-[(3R,4R)-4-fluoropiperidin-3-yl]-2-naphthalen-2-yl-1H-indole

> <PUBCHEM_IUPAC_SYSTEMATIC_NAME>
6-fluoranyl-3-[(3R,4R)-4-fluoranylpiperidin-3-yl]-2-naphthalen-2-yl-1H-indole

> <PUBCHEM_IUPAC_TRADITIONAL_NAME>
6-fluoro-3-[(3R,4R)-4-fluoro-3-piperidyl]-2-(2-naphthyl)-1H-indole

> <PUBCHEM_IUPAC_INCHI>
InChI=1S/C23H20F2N2/c24-17-7-8-18-21(12-17)27-23(22(18)19-13-26-10-9-20(19)25)16-6-5-14-3-1-2-4-15(14)11-16/h1-8,11-12,19-20,26-27H,9-10,13H2/t19-,20-/m1/s1

> <PUBCHEM_IUPAC_INCHIKEY>
DAUSNPVLXKKGNQ-WOJBJXKFSA-N

> <PUBCHEM_XLOGP3_AA>
5.2

> <PUBCHEM_EXACT_MASS>
362.15945497

> <PUBCHEM_MOLECULAR_FORMULA>
C23H20F2N2

> <PUBCHEM_MOLECULAR_WEIGHT>
362.4

> <PUBCHEM_OPENEYE_CAN_SMILES>
C1CNCC(C1F)C2=C(NC3=C2C=CC(=C3)F)C4=CC5=CC=CC=C5C=C4

> <PUBCHEM_OPENEYE_ISO_SMILES>
C1CNC[C@H]([C@@H]1F)C2=C(NC3=C2C=CC(=C3)F)C4=CC5=CC=CC=C5C=C4

> <PUBCHEM_CACTVS_TPSA>
27.8

> <PUBCHEM_MONOISOTOPIC_WEIGHT>
362.15945497

> <PUBCHEM_TOTAL_CHARGE>
0

> <PUBCHEM_HEAVY_ATOM_COUNT>
27

> <PUBCHEM_ATOM_DEF_STEREO_COUNT>
2

> <PUBCHEM_ATOM_UDEF_STEREO_COUNT>
0

> <PUBCHEM_BOND_DEF_STEREO_COUNT>
0

> <PUBCHEM_BOND_UDEF_STEREO_COUNT>
0

> <PUBCHEM_ISOTOPIC_ATOM_COUNT>
0

> <PUBCHEM_COMPONENT_COUNT>
1

> <PUBCHEM_CACTVS_TAUTO_COUNT>
-1

> <PUBCHEM_COORDINATE_TYPE>
1
5
255

> <PUBCHEM_BONDANNOTATIONS>
6  1  6
12  13  8
12  15  8
13  16  8
14  17  8
14  18  8
15  19  8
16  20  8
17  21  8
18  23  8
19  20  8
21  22  8
21  24  8
22  23  8
22  25  8
24  26  8
25  27  8
26  27  8
4  11  8
4  13  8
5  28  6
7  11  8
7  12  8

$$$$
