126533453
  -OEChem-09292322372D

 61 65  0     1  0  0  0  0  0999 V2000
   10.6732    3.3612    0.0000 S   0  0  0  0  0  0  0  0  0  0  0  0
    2.0000   -3.4000    0.0000 F   0  0  0  0  0  0  0  0  0  0  0  0
    3.1861   -4.1702    0.0000 F   0  0  0  0  0  0  0  0  0  0  0  0
    2.7702   -2.2139    0.0000 F   0  0  0  0  0  0  0  0  0  0  0  0
    3.9563   -2.9841    0.0000 O   0  0  0  0  0  0  0  0  0  0  0  0
    5.1924    0.8201    0.0000 N   0  0  3  0  0  0  0  0  0  0  0  0
    7.6732    1.6291    0.0000 N   0  0  3  0  0  0  0  0  0  0  0  0
   12.2610    2.5522    0.0000 N   0  0  0  0  0  0  0  0  0  0  0  0
   12.2610    4.1702    0.0000 N   0  0  0  0  0  0  0  0  0  0  0  0
   13.2121    3.8612    0.0000 N   0  0  0  0  0  0  0  0  0  0  0  0
   14.9347    2.6801    0.0000 N   0  0  0  0  0  0  0  0  0  0  0  0
   14.7256    0.6911    0.0000 N   0  0  0  0  0  0  0  0  0  0  0  0
    6.1434    2.1291    0.0000 C   0  0  3  0  0  0  0  0  0  0  0  0
    6.1434    1.1291    0.0000 C   0  0  3  0  0  0  0  0  0  0  0  0
    7.0896    2.4338    0.0000 C   0  0  0  0  0  0  0  0  0  0  0  0
    5.1924    2.4381    0.0000 C   0  0  0  0  0  0  0  0  0  0  0  0
    7.0896    0.8244    0.0000 C   0  0  0  0  0  0  0  0  0  0  0  0
    4.6046    1.6291    0.0000 C   0  0  0  0  0  0  0  0  0  0  0  0
    8.6732    1.6291    0.0000 C   0  0  0  0  0  0  0  0  0  0  0  0
    4.8834   -0.1310    0.0000 C   0  0  0  0  0  0  0  0  0  0  0  0
    9.1732    2.4951    0.0000 C   0  0  0  0  0  0  0  0  0  0  0  0
    5.5525   -0.8741    0.0000 C   0  0  0  0  0  0  0  0  0  0  0  0
    3.9052   -0.3389    0.0000 C   0  0  0  0  0  0  0  0  0  0  0  0
   10.1732    2.4951    0.0000 C   0  0  0  0  0  0  0  0  0  0  0  0
    5.2435   -1.8252    0.0000 C   0  0  0  0  0  0  0  0  0  0  0  0
    3.5962   -1.2899    0.0000 C   0  0  0  0  0  0  0  0  0  0  0  0
    4.2653   -2.0331    0.0000 C   0  0  0  0  0  0  0  0  0  0  0  0
   11.6732    3.3612    0.0000 C   0  0  0  0  0  0  0  0  0  0  0  0
    2.9782   -3.1920    0.0000 C   0  0  0  0  0  0  0  0  0  0  0  0
   13.2121    2.8612    0.0000 C   0  0  0  0  0  0  0  0  0  0  0  0
   11.9520    1.6011    0.0000 C   0  0  0  0  0  0  0  0  0  0  0  0
   14.0211    2.2734    0.0000 C   0  0  0  0  0  0  0  0  0  0  0  0
   13.9166    1.2789    0.0000 C   0  0  0  0  0  0  0  0  0  0  0  0
   15.7437    2.0923    0.0000 C   0  0  0  0  0  0  0  0  0  0  0  0
   15.6391    1.0978    0.0000 C   0  0  0  0  0  0  0  0  0  0  0  0
    6.1442    2.7491    0.0000 H   0  0  0  0  0  0  0  0  0  0  0  0
    6.1442    0.5091    0.0000 H   0  0  0  0  0  0  0  0  0  0  0  0
    7.6270    2.7431    0.0000 H   0  0  0  0  0  0  0  0  0  0  0  0
    6.8386    3.0008    0.0000 H   0  0  0  0  0  0  0  0  0  0  0  0
    5.4445    3.0045    0.0000 H   0  0  0  0  0  0  0  0  0  0  0  0
    4.6554    2.7481    0.0000 H   0  0  0  0  0  0  0  0  0  0  0  0
    6.8386    0.2575    0.0000 H   0  0  0  0  0  0  0  0  0  0  0  0
    7.6270    0.5152    0.0000 H   0  0  0  0  0  0  0  0  0  0  0  0
    4.1438    2.0440    0.0000 H   0  0  0  0  0  0  0  0  0  0  0  0
    4.1438    1.2143    0.0000 H   0  0  0  0  0  0  0  0  0  0  0  0
    8.5656    1.0185    0.0000 H   0  0  0  0  0  0  0  0  0  0  0  0
    9.2559    1.4171    0.0000 H   0  0  0  0  0  0  0  0  0  0  0  0
    9.2809    3.1057    0.0000 H   0  0  0  0  0  0  0  0  0  0  0  0
    8.5906    2.7072    0.0000 H   0  0  0  0  0  0  0  0  0  0  0  0
    6.1589   -0.7452    0.0000 H   0  0  0  0  0  0  0  0  0  0  0  0
    3.4903    0.1219    0.0000 H   0  0  0  0  0  0  0  0  0  0  0  0
   10.0656    1.8846    0.0000 H   0  0  0  0  0  0  0  0  0  0  0  0
   10.7559    2.2831    0.0000 H   0  0  0  0  0  0  0  0  0  0  0  0
    5.6583   -2.2859    0.0000 H   0  0  0  0  0  0  0  0  0  0  0  0
    2.9897   -1.4188    0.0000 H   0  0  0  0  0  0  0  0  0  0  0  0
   11.3624    1.7927    0.0000 H   0  0  0  0  0  0  0  0  0  0  0  0
   11.7604    1.0114    0.0000 H   0  0  0  0  0  0  0  0  0  0  0  0
   12.5417    1.4095    0.0000 H   0  0  0  0  0  0  0  0  0  0  0  0
   13.3502    1.0267    0.0000 H   0  0  0  0  0  0  0  0  0  0  0  0
   16.3101    2.3445    0.0000 H   0  0  0  0  0  0  0  0  0  0  0  0
   16.1407    0.7334    0.0000 H   0  0  0  0  0  0  0  0  0  0  0  0
  1 24  1  0  0  0  0
  1 28  1  0  0  0  0
  2 29  1  0  0  0  0
  3 29  1  0  0  0  0
  4 29  1  0  0  0  0
  5 27  1  0  0  0  0
  5 29  1  0  0  0  0
  6 14  1  0  0  0  0
  6 18  1  0  0  0  0
  6 20  1  0  0  0  0
  7 15  1  0  0  0  0
  7 17  1  0  0  0  0
  7 19  1  0  0  0  0
  8 28  1  0  0  0  0
  8 30  1  0  0  0  0
  8 31  1  0  0  0  0
  9 10  1  0  0  0  0
  9 28  2  0  0  0  0
 10 30  2  0  0  0  0
 11 32  2  0  0  0  0
 11 34  1  0  0  0  0
 12 33  2  0  0  0  0
 12 35  1  0  0  0  0
 13 14  1  0  0  0  0
 13 15  1  0  0  0  0
 13 16  1  0  0  0  0
 13 36  1  0  0  0  0
 14 17  1  0  0  0  0
 14 37  1  0  0  0  0
 15 38  1  0  0  0  0
 15 39  1  0  0  0  0
 16 18  1  0  0  0  0
 16 40  1  0  0  0  0
 16 41  1  0  0  0  0
 17 42  1  0  0  0  0
 17 43  1  0  0  0  0
 18 44  1  0  0  0  0
 18 45  1  0  0  0  0
 19 21  1  0  0  0  0
 19 46  1  0  0  0  0
 19 47  1  0  0  0  0
 20 22  2  0  0  0  0
 20 23  1  0  0  0  0
 21 24  1  0  0  0  0
 21 48  1  0  0  0  0
 21 49  1  0  0  0  0
 22 25  1  0  0  0  0
 22 50  1  0  0  0  0
 23 26  2  0  0  0  0
 23 51  1  0  0  0  0
 24 52  1  0  0  0  0
 24 53  1  0  0  0  0
 25 27  2  0  0  0  0
 25 54  1  0  0  0  0
 26 27  1  0  0  0  0
 26 55  1  0  0  0  0
 30 32  1  0  0  0  0
 31 56  1  0  0  0  0
 31 57  1  0  0  0  0
 31 58  1  0  0  0  0
 32 33  1  0  0  0  0
 33 59  1  0  0  0  0
 34 35  2  0  0  0  0
 34 60  1  0  0  0  0
 35 61  1  0  0  0  0
M  END
> <PUBCHEM_COMPOUND_CID>
126533453

> <PUBCHEM_COMPOUND_CANONICALIZED>
1

> <PUBCHEM_CACTVS_COMPLEXITY>
684

> <PUBCHEM_CACTVS_HBOND_ACCEPTOR>
11

> <PUBCHEM_CACTVS_HBOND_DONOR>
0

> <PUBCHEM_CACTVS_ROTATABLE_BOND>
8

> <PUBCHEM_CACTVS_SUBSKEYS>
AAADceB7oYBAAAAAAAAAAAAAAAAAAWLFgAA8QAAAAAAWAAAB8AAAHwQIAAAADSzF1xS/1pcMFAiiATZnZACS2C9xMrAd2CA+fJiMbuLk+ZuUMChkyBPI6AewQAAKAEAAAAAAAAAAgAAAAAAAAAAAAAAAAA==

> <PUBCHEM_IUPAC_OPENEYE_NAME>
5-[3-[(4-methyl-5-pyrazin-2-yl-1,2,4-triazol-3-yl)sulfanyl]propyl]-1-[4-(trifluoromethoxy)phenyl]-2,3,3a,4,6,6a-hexahydropyrrolo[2,3-c]pyrrole

> <PUBCHEM_IUPAC_CAS_NAME>
5-[3-[[4-methyl-5-(2-pyrazinyl)-1,2,4-triazol-3-yl]thio]propyl]-1-[4-(trifluoromethoxy)phenyl]-2,3,3a,4,6,6a-hexahydropyrrolo[2,3-c]pyrrole

> <PUBCHEM_IUPAC_NAME_MARKUP>
5-[3-[(4-methyl-5-pyrazin-2-yl-1,2,4-triazol-3-yl)sulfanyl]propyl]-1-[4-(trifluoromethoxy)phenyl]-2,3,3<I>a</I>,4,6,6<I>a</I>-hexahydropyrrolo[2,3-c]pyrrole

> <PUBCHEM_IUPAC_NAME>
5-[3-[(4-methyl-5-pyrazin-2-yl-1,2,4-triazol-3-yl)sulfanyl]propyl]-1-[4-(trifluoromethoxy)phenyl]-2,3,3a,4,6,6a-hexahydropyrrolo[2,3-c]pyrrole

> <PUBCHEM_IUPAC_SYSTEMATIC_NAME>
5-[3-[(4-methyl-5-pyrazin-2-yl-1,2,4-triazol-3-yl)sulfanyl]propyl]-1-[4-(trifluoromethyloxy)phenyl]-2,3,3a,4,6,6a-hexahydropyrrolo[2,3-c]pyrrole

> <PUBCHEM_IUPAC_TRADITIONAL_NAME>
5-[3-[(4-methyl-5-pyrazin-2-yl-1,2,4-triazol-3-yl)thio]propyl]-1-[4-(trifluoromethoxy)phenyl]-2,3,3a,4,6,6a-hexahydropyrrolo[2,3-c]pyrrole

> <PUBCHEM_IUPAC_INCHI>
InChI=1S/C23H26F3N7OS/c1-31-21(19-13-27-8-9-28-19)29-30-22(31)35-12-2-10-32-14-16-7-11-33(20(16)15-32)17-3-5-18(6-4-17)34-23(24,25)26/h3-6,8-9,13,16,20H,2,7,10-12,14-15H2,1H3

> <PUBCHEM_IUPAC_INCHIKEY>
KNAFTDDIPPEGMH-UHFFFAOYSA-N

> <PUBCHEM_XLOGP3_AA>
3.5

> <PUBCHEM_EXACT_MASS>
505.18716414

> <PUBCHEM_MOLECULAR_FORMULA>
C23H26F3N7OS

> <PUBCHEM_MOLECULAR_WEIGHT>
505.6

> <PUBCHEM_OPENEYE_CAN_SMILES>
CN1C(=NN=C1SCCCN2CC3CCN(C3C2)C4=CC=C(C=C4)OC(F)(F)F)C5=NC=CN=C5

> <PUBCHEM_OPENEYE_ISO_SMILES>
CN1C(=NN=C1SCCCN2CC3CCN(C3C2)C4=CC=C(C=C4)OC(F)(F)F)C5=NC=CN=C5

> <PUBCHEM_CACTVS_TPSA>
97.5

> <PUBCHEM_MONOISOTOPIC_WEIGHT>
505.18716414

> <PUBCHEM_TOTAL_CHARGE>
0

> <PUBCHEM_HEAVY_ATOM_COUNT>
35

> <PUBCHEM_ATOM_DEF_STEREO_COUNT>
0

> <PUBCHEM_ATOM_UDEF_STEREO_COUNT>
2

> <PUBCHEM_BOND_DEF_STEREO_COUNT>
0

> <PUBCHEM_BOND_UDEF_STEREO_COUNT>
0

> <PUBCHEM_ISOTOPIC_ATOM_COUNT>
0

> <PUBCHEM_COMPONENT_COUNT>
1

> <PUBCHEM_CACTVS_TAUTO_COUNT>
-1

> <PUBCHEM_COORDINATE_TYPE>
1
5
255

> <PUBCHEM_BONDANNOTATIONS>
10  30  8
11  32  8
11  34  8
12  33  8
12  35  8
13  16  3
14  17  3
20  22  8
20  23  8
22  25  8
23  26  8
25  27  8
26  27  8
32  33  8
34  35  8
8  28  8
8  30  8
9  10  8
9  28  8

$$$$
