44431599
  -OEChem-09292322242D

 70 73  0     0  0  0  0  0  0999 V2000
    2.0000   -4.0000    0.0000 Cl  0  0  0  0  0  0  0  0  0  0  0  0
    3.7320   -1.0000    0.0000 S   0  0  0  0  0  0  0  0  0  0  0  0
    4.7320   -1.0000    0.0000 O   0  0  0  0  0  0  0  0  0  0  0  0
    2.7320   -1.0000    0.0000 O   0  0  0  0  0  0  0  0  0  0  0  0
   10.6603    2.0000    0.0000 O   0  0  0  0  0  0  0  0  0  0  0  0
    7.1962    2.0000    0.0000 N   0  0  0  0  0  0  0  0  0  0  0  0
    8.9282    3.0000    0.0000 N   0  0  0  0  0  0  0  0  0  0  0  0
    3.7320    0.0000    0.0000 N   0  0  0  0  0  0  0  0  0  0  0  0
    6.3301    1.5000    0.0000 C   0  0  0  0  0  0  0  0  0  0  0  0
    6.3301    0.5000    0.0000 C   0  0  0  0  0  0  0  0  0  0  0  0
    5.4641    2.0000    0.0000 C   0  0  0  0  0  0  0  0  0  0  0  0
    4.5981    0.5000    0.0000 C   0  0  0  0  0  0  0  0  0  0  0  0
    5.4641    0.0000    0.0000 C   0  0  0  0  0  0  0  0  0  0  0  0
    4.5981    1.5000    0.0000 C   0  0  0  0  0  0  0  0  0  0  0  0
    8.0622    1.5000    0.0000 C   0  0  0  0  0  0  0  0  0  0  0  0
    7.1962    3.0000    0.0000 C   0  0  0  0  0  0  0  0  0  0  0  0
    8.9282    2.0000    0.0000 C   0  0  0  0  0  0  0  0  0  0  0  0
    8.0622    3.5000    0.0000 C   0  0  0  0  0  0  0  0  0  0  0  0
    9.7942    3.5000    0.0000 C   0  0  0  0  0  0  0  0  0  0  0  0
    3.7320   -2.0000    0.0000 C   0  0  0  0  0  0  0  0  0  0  0  0
   10.6603    3.0000    0.0000 C   0  0  0  0  0  0  0  0  0  0  0  0
    9.7942    4.5000    0.0000 C   0  0  0  0  0  0  0  0  0  0  0  0
   11.5263    3.5000    0.0000 C   0  0  0  0  0  0  0  0  0  0  0  0
    2.8660   -2.5000    0.0000 C   0  0  0  0  0  0  0  0  0  0  0  0
    4.5981   -2.5000    0.0000 C   0  0  0  0  0  0  0  0  0  0  0  0
   10.6603    5.0000    0.0000 C   0  0  0  0  0  0  0  0  0  0  0  0
   11.5263    4.5000    0.0000 C   0  0  0  0  0  0  0  0  0  0  0  0
   11.5263    1.5000    0.0000 C   0  0  0  0  0  0  0  0  0  0  0  0
    2.8660   -3.5000    0.0000 C   0  0  0  0  0  0  0  0  0  0  0  0
    4.5981   -3.5000    0.0000 C   0  0  0  0  0  0  0  0  0  0  0  0
    3.7320   -4.0000    0.0000 C   0  0  0  0  0  0  0  0  0  0  0  0
   11.5263    0.5000    0.0000 C   0  0  0  0  0  0  0  0  0  0  0  0
   12.3923    2.0000    0.0000 C   0  0  0  0  0  0  0  0  0  0  0  0
    3.7320   -5.0000    0.0000 C   0  0  0  0  0  0  0  0  0  0  0  0
    6.8671    1.1900    0.0000 H   0  0  0  0  0  0  0  0  0  0  0  0
    6.5422   -0.0826    0.0000 H   0  0  0  0  0  0  0  0  0  0  0  0
    6.9407    0.6077    0.0000 H   0  0  0  0  0  0  0  0  0  0  0  0
    5.8626    2.4750    0.0000 H   0  0  0  0  0  0  0  0  0  0  0  0
    5.0656    2.4750    0.0000 H   0  0  0  0  0  0  0  0  0  0  0  0
    4.5981   -0.1200    0.0000 H   0  0  0  0  0  0  0  0  0  0  0  0
    5.0656   -0.4749    0.0000 H   0  0  0  0  0  0  0  0  0  0  0  0
    5.8626   -0.4749    0.0000 H   0  0  0  0  0  0  0  0  0  0  0  0
    4.3860    2.0826    0.0000 H   0  0  0  0  0  0  0  0  0  0  0  0
    3.9875    1.3923    0.0000 H   0  0  0  0  0  0  0  0  0  0  0  0
    7.6636    1.0250    0.0000 H   0  0  0  0  0  0  0  0  0  0  0  0
    8.4607    1.0250    0.0000 H   0  0  0  0  0  0  0  0  0  0  0  0
    6.9841    3.5826    0.0000 H   0  0  0  0  0  0  0  0  0  0  0  0
    6.5856    2.8923    0.0000 H   0  0  0  0  0  0  0  0  0  0  0  0
    9.1403    1.4174    0.0000 H   0  0  0  0  0  0  0  0  0  0  0  0
    9.5388    2.1077    0.0000 H   0  0  0  0  0  0  0  0  0  0  0  0
    8.4607    3.9750    0.0000 H   0  0  0  0  0  0  0  0  0  0  0  0
    7.6636    3.9750    0.0000 H   0  0  0  0  0  0  0  0  0  0  0  0
    3.1951    0.3100    0.0000 H   0  0  0  0  0  0  0  0  0  0  0  0
    9.2573    4.8100    0.0000 H   0  0  0  0  0  0  0  0  0  0  0  0
   12.0632    3.1900    0.0000 H   0  0  0  0  0  0  0  0  0  0  0  0
    2.3291   -2.1900    0.0000 H   0  0  0  0  0  0  0  0  0  0  0  0
    5.1350   -2.1900    0.0000 H   0  0  0  0  0  0  0  0  0  0  0  0
   10.6603    5.6200    0.0000 H   0  0  0  0  0  0  0  0  0  0  0  0
   12.0632    4.8100    0.0000 H   0  0  0  0  0  0  0  0  0  0  0  0
   10.9893    1.1900    0.0000 H   0  0  0  0  0  0  0  0  0  0  0  0
    5.1350   -3.8100    0.0000 H   0  0  0  0  0  0  0  0  0  0  0  0
   10.9063    0.5000    0.0000 H   0  0  0  0  0  0  0  0  0  0  0  0
   11.5263   -0.1200    0.0000 H   0  0  0  0  0  0  0  0  0  0  0  0
   12.1463    0.5000    0.0000 H   0  0  0  0  0  0  0  0  0  0  0  0
   12.7023    1.4631    0.0000 H   0  0  0  0  0  0  0  0  0  0  0  0
   12.9292    2.3100    0.0000 H   0  0  0  0  0  0  0  0  0  0  0  0
   12.0823    2.5369    0.0000 H   0  0  0  0  0  0  0  0  0  0  0  0
    3.1120   -5.0000    0.0000 H   0  0  0  0  0  0  0  0  0  0  0  0
    3.7320   -5.6200    0.0000 H   0  0  0  0  0  0  0  0  0  0  0  0
    4.3520   -5.0000    0.0000 H   0  0  0  0  0  0  0  0  0  0  0  0
  1 29  1  0  0  0  0
  2  3  2  0  0  0  0
  2  4  2  0  0  0  0
  2  8  1  0  0  0  0
  2 20  1  0  0  0  0
  5 21  1  0  0  0  0
  5 28  1  0  0  0  0
  6  9  1  0  0  0  0
  6 15  1  0  0  0  0
  6 16  1  0  0  0  0
  7 17  1  0  0  0  0
  7 18  1  0  0  0  0
  7 19  1  0  0  0  0
  8 12  1  0  0  0  0
  8 53  1  0  0  0  0
  9 10  1  0  0  0  0
  9 11  1  0  0  0  0
  9 35  1  0  0  0  0
 10 13  1  0  0  0  0
 10 36  1  0  0  0  0
 10 37  1  0  0  0  0
 11 14  1  0  0  0  0
 11 38  1  0  0  0  0
 11 39  1  0  0  0  0
 12 13  1  0  0  0  0
 12 14  1  0  0  0  0
 12 40  1  0  0  0  0
 13 41  1  0  0  0  0
 13 42  1  0  0  0  0
 14 43  1  0  0  0  0
 14 44  1  0  0  0  0
 15 17  1  0  0  0  0
 15 45  1  0  0  0  0
 15 46  1  0  0  0  0
 16 18  1  0  0  0  0
 16 47  1  0  0  0  0
 16 48  1  0  0  0  0
 17 49  1  0  0  0  0
 17 50  1  0  0  0  0
 18 51  1  0  0  0  0
 18 52  1  0  0  0  0
 19 21  1  0  0  0  0
 19 22  2  0  0  0  0
 20 24  2  0  0  0  0
 20 25  1  0  0  0  0
 21 23  2  0  0  0  0
 22 26  1  0  0  0  0
 22 54  1  0  0  0  0
 23 27  1  0  0  0  0
 23 55  1  0  0  0  0
 24 29  1  0  0  0  0
 24 56  1  0  0  0  0
 25 30  2  0  0  0  0
 25 57  1  0  0  0  0
 26 27  2  0  0  0  0
 26 58  1  0  0  0  0
 27 59  1  0  0  0  0
 28 32  1  0  0  0  0
 28 33  1  0  0  0  0
 28 60  1  0  0  0  0
 29 31  2  0  0  0  0
 30 31  1  0  0  0  0
 30 61  1  0  0  0  0
 31 34  1  0  0  0  0
 32 62  1  0  0  0  0
 32 63  1  0  0  0  0
 32 64  1  0  0  0  0
 33 65  1  0  0  0  0
 33 66  1  0  0  0  0
 33 67  1  0  0  0  0
 34 68  1  0  0  0  0
 34 69  1  0  0  0  0
 34 70  1  0  0  0  0
M  END
> <PUBCHEM_COMPOUND_CID>
44431599

> <PUBCHEM_COMPOUND_CANONICALIZED>
1

> <PUBCHEM_CACTVS_COMPLEXITY>
730

> <PUBCHEM_CACTVS_HBOND_ACCEPTOR>
6

> <PUBCHEM_CACTVS_HBOND_DONOR>
1

> <PUBCHEM_CACTVS_ROTATABLE_BOND>
7

> <PUBCHEM_CACTVS_SUBSKEYS>
AAADcfB7MABEAAAAAAAAAAAAAAAAAAAAAAA8YMEAAAAAAAABQAAAHgYQQAAADD7h2CYyx4NABAKAAiRCQHDCCBAhJwAIiJgPbogOZiLFs5uXOCjk0BHY6AeQwAAOEAAAABABEAAgAQAAIAIgAAAAAAAAAA==

> <PUBCHEM_IUPAC_OPENEYE_NAME>
3-chloro-N-[4-[4-(2-isopropoxyphenyl)piperazin-1-yl]cyclohexyl]-4-methyl-benzenesulfonamide

> <PUBCHEM_IUPAC_CAS_NAME>
3-chloro-4-methyl-N-[4-[4-(2-propan-2-yloxyphenyl)-1-piperazinyl]cyclohexyl]benzenesulfonamide

> <PUBCHEM_IUPAC_NAME_MARKUP>
3-chloro-4-methyl-<I>N</I>-[4-[4-(2-propan-2-yloxyphenyl)piperazin-1-yl]cyclohexyl]benzenesulfonamide

> <PUBCHEM_IUPAC_NAME>
3-chloro-4-methyl-N-[4-[4-(2-propan-2-yloxyphenyl)piperazin-1-yl]cyclohexyl]benzenesulfonamide

> <PUBCHEM_IUPAC_SYSTEMATIC_NAME>
3-chloranyl-4-methyl-N-[4-[4-(2-propan-2-yloxyphenyl)piperazin-1-yl]cyclohexyl]benzenesulfonamide

> <PUBCHEM_IUPAC_TRADITIONAL_NAME>
3-chloro-N-[4-[4-(2-isopropoxyphenyl)piperazino]cyclohexyl]-4-methyl-benzenesulfonamide

> <PUBCHEM_IUPAC_INCHI>
InChI=1S/C26H36ClN3O3S/c1-19(2)33-26-7-5-4-6-25(26)30-16-14-29(15-17-30)22-11-9-21(10-12-22)28-34(31,32)23-13-8-20(3)24(27)18-23/h4-8,13,18-19,21-22,28H,9-12,14-17H2,1-3H3

> <PUBCHEM_IUPAC_INCHIKEY>
PNMMHGYXIWNCEE-UHFFFAOYSA-N

> <PUBCHEM_XLOGP3_AA>
5.6

> <PUBCHEM_EXACT_MASS>
505.2165909

> <PUBCHEM_MOLECULAR_FORMULA>
C26H36ClN3O3S

> <PUBCHEM_MOLECULAR_WEIGHT>
506.1

> <PUBCHEM_OPENEYE_CAN_SMILES>
CC1=C(C=C(C=C1)S(=O)(=O)NC2CCC(CC2)N3CCN(CC3)C4=CC=CC=C4OC(C)C)Cl

> <PUBCHEM_OPENEYE_ISO_SMILES>
CC1=C(C=C(C=C1)S(=O)(=O)NC2CCC(CC2)N3CCN(CC3)C4=CC=CC=C4OC(C)C)Cl

> <PUBCHEM_CACTVS_TPSA>
70.3

> <PUBCHEM_MONOISOTOPIC_WEIGHT>
505.2165909

> <PUBCHEM_TOTAL_CHARGE>
0

> <PUBCHEM_HEAVY_ATOM_COUNT>
34

> <PUBCHEM_ATOM_DEF_STEREO_COUNT>
0

> <PUBCHEM_ATOM_UDEF_STEREO_COUNT>
0

> <PUBCHEM_BOND_DEF_STEREO_COUNT>
0

> <PUBCHEM_BOND_UDEF_STEREO_COUNT>
0

> <PUBCHEM_ISOTOPIC_ATOM_COUNT>
0

> <PUBCHEM_COMPONENT_COUNT>
1

> <PUBCHEM_CACTVS_TAUTO_COUNT>
-1

> <PUBCHEM_COORDINATE_TYPE>
1
5
255

> <PUBCHEM_BONDANNOTATIONS>
19  21  8
19  22  8
20  24  8
20  25  8
21  23  8
22  26  8
23  27  8
24  29  8
25  30  8
26  27  8
29  31  8
30  31  8

$$$$
