86342098
  -OEChem-09292322382D

 69 73  0     0  0  0  0  0  0999 V2000
    4.6783   -6.7196    0.0000 S   0  0  0  0  0  0  0  0  0  0  0  0
    9.7884    2.1622    0.0000 O   0  0  0  0  0  0  0  0  0  0  0  0
    5.6103   -2.2585    0.0000 N   0  0  0  0  0  0  0  0  0  0  0  0
    8.1421    2.7003    0.0000 N   0  0  0  0  0  0  0  0  0  0  0  0
    4.9889   -4.1596    0.0000 N   0  0  0  0  0  0  0  0  0  0  0  0
    9.4312    3.8570    0.0000 N   0  0  0  0  0  0  0  0  0  0  0  0
    5.2619   -5.9148    0.0000 N   0  0  0  0  0  0  0  0  0  0  0  0
    7.2101   -0.1513    0.0000 C   0  0  0  0  0  0  0  0  0  0  0  0
    6.5422    0.5930    0.0000 C   0  0  0  0  0  0  0  0  0  0  0  0
    8.1886    0.0550    0.0000 C   0  0  0  0  0  0  0  0  0  0  0  0
    7.8314    1.7498    0.0000 C   0  0  0  0  0  0  0  0  0  0  0  0
    6.8529    1.5436    0.0000 C   0  0  0  0  0  0  0  0  0  0  0  0
    8.4993    1.0055    0.0000 C   0  0  0  0  0  0  0  0  0  0  0  0
    6.8994   -1.1018    0.0000 C   0  0  0  0  0  0  0  0  0  0  0  0
    5.9209   -1.3080    0.0000 C   0  0  0  0  0  0  0  0  0  0  0  0
    4.6318   -2.4647    0.0000 C   0  0  0  0  0  0  0  0  0  0  0  0
    6.2781   -3.0028    0.0000 C   0  0  0  0  0  0  0  0  0  0  0  0
    4.3211   -3.4153    0.0000 C   0  0  0  0  0  0  0  0  0  0  0  0
    5.9674   -3.9533    0.0000 C   0  0  0  0  0  0  0  0  0  0  0  0
    9.1206    2.9065    0.0000 C   0  0  0  0  0  0  0  0  0  0  0  0
    4.6783   -5.1101    0.0000 C   0  0  0  0  0  0  0  0  0  0  0  0
    3.7320   -5.4148    0.0000 C   0  0  0  0  0  0  0  0  0  0  0  0
    3.7320   -6.4148    0.0000 C   0  0  0  0  0  0  0  0  0  0  0  0
   10.4097    4.0633    0.0000 C   0  0  0  0  0  0  0  0  0  0  0  0
    2.8660   -4.9148    0.0000 C   0  0  0  0  0  0  0  0  0  0  0  0
    2.8660   -6.9148    0.0000 C   0  0  0  0  0  0  0  0  0  0  0  0
    2.0000   -5.4148    0.0000 C   0  0  0  0  0  0  0  0  0  0  0  0
   10.7204    5.0138    0.0000 C   0  0  0  0  0  0  0  0  0  0  0  0
    2.0000   -6.4148    0.0000 C   0  0  0  0  0  0  0  0  0  0  0  0
   10.0526    5.7581    0.0000 C   0  0  0  0  0  0  0  0  0  0  0  0
   11.6989    5.2200    0.0000 C   0  0  0  0  0  0  0  0  0  0  0  0
   10.3632    6.7086    0.0000 C   0  0  0  0  0  0  0  0  0  0  0  0
   12.0096    6.1705    0.0000 C   0  0  0  0  0  0  0  0  0  0  0  0
   11.3417    6.9148    0.0000 C   0  0  0  0  0  0  0  0  0  0  0  0
    7.6242   -0.6127    0.0000 H   0  0  0  0  0  0  0  0  0  0  0  0
    5.9953    0.8851    0.0000 H   0  0  0  0  0  0  0  0  0  0  0  0
    6.1597    0.1051    0.0000 H   0  0  0  0  0  0  0  0  0  0  0  0
    8.2092   -0.5647    0.0000 H   0  0  0  0  0  0  0  0  0  0  0  0
    8.8024   -0.0324    0.0000 H   0  0  0  0  0  0  0  0  0  0  0  0
    8.4381    1.8776    0.0000 H   0  0  0  0  0  0  0  0  0  0  0  0
    6.8323    2.1632    0.0000 H   0  0  0  0  0  0  0  0  0  0  0  0
    6.2391    1.6309    0.0000 H   0  0  0  0  0  0  0  0  0  0  0  0
    9.0462    0.7135    0.0000 H   0  0  0  0  0  0  0  0  0  0  0  0
    8.8818    1.4934    0.0000 H   0  0  0  0  0  0  0  0  0  0  0  0
    6.9200   -1.7214    0.0000 H   0  0  0  0  0  0  0  0  0  0  0  0
    7.5132   -1.1891    0.0000 H   0  0  0  0  0  0  0  0  0  0  0  0
    5.9004   -0.6883    0.0000 H   0  0  0  0  0  0  0  0  0  0  0  0
    5.3071   -1.2206    0.0000 H   0  0  0  0  0  0  0  0  0  0  0  0
    4.6112   -1.8451    0.0000 H   0  0  0  0  0  0  0  0  0  0  0  0
    4.0179   -2.3774    0.0000 H   0  0  0  0  0  0  0  0  0  0  0  0
    6.8250   -3.2948    0.0000 H   0  0  0  0  0  0  0  0  0  0  0  0
    6.6607   -2.5149    0.0000 H   0  0  0  0  0  0  0  0  0  0  0  0
    7.7280    3.1618    0.0000 H   0  0  0  0  0  0  0  0  0  0  0  0
    3.7742   -3.1232    0.0000 H   0  0  0  0  0  0  0  0  0  0  0  0
    3.9385   -3.9032    0.0000 H   0  0  0  0  0  0  0  0  0  0  0  0
    5.9880   -4.5730    0.0000 H   0  0  0  0  0  0  0  0  0  0  0  0
    6.5812   -4.0407    0.0000 H   0  0  0  0  0  0  0  0  0  0  0  0
    9.0172    4.3185    0.0000 H   0  0  0  0  0  0  0  0  0  0  0  0
   10.4303    3.4436    0.0000 H   0  0  0  0  0  0  0  0  0  0  0  0
   11.0236    3.9759    0.0000 H   0  0  0  0  0  0  0  0  0  0  0  0
    2.8660   -4.2948    0.0000 H   0  0  0  0  0  0  0  0  0  0  0  0
    2.8660   -7.5348    0.0000 H   0  0  0  0  0  0  0  0  0  0  0  0
    1.4631   -5.1048    0.0000 H   0  0  0  0  0  0  0  0  0  0  0  0
    1.4631   -6.7248    0.0000 H   0  0  0  0  0  0  0  0  0  0  0  0
    9.4459    5.6302    0.0000 H   0  0  0  0  0  0  0  0  0  0  0  0
   12.1130    4.7585    0.0000 H   0  0  0  0  0  0  0  0  0  0  0  0
    9.9492    7.1701    0.0000 H   0  0  0  0  0  0  0  0  0  0  0  0
   12.6163    6.2984    0.0000 H   0  0  0  0  0  0  0  0  0  0  0  0
   11.5343    7.5041    0.0000 H   0  0  0  0  0  0  0  0  0  0  0  0
  1  7  1  0  0  0  0
  1 23  1  0  0  0  0
  2 20  2  0  0  0  0
  3 15  1  0  0  0  0
  3 16  1  0  0  0  0
  3 17  1  0  0  0  0
  4 11  1  0  0  0  0
  4 20  1  0  0  0  0
  4 53  1  0  0  0  0
  5 18  1  0  0  0  0
  5 19  1  0  0  0  0
  5 21  1  0  0  0  0
  6 20  1  0  0  0  0
  6 24  1  0  0  0  0
  6 58  1  0  0  0  0
  7 21  2  0  0  0  0
  8  9  1  0  0  0  0
  8 10  1  0  0  0  0
  8 14  1  0  0  0  0
  8 35  1  0  0  0  0
  9 12  1  0  0  0  0
  9 36  1  0  0  0  0
  9 37  1  0  0  0  0
 10 13  1  0  0  0  0
 10 38  1  0  0  0  0
 10 39  1  0  0  0  0
 11 12  1  0  0  0  0
 11 13  1  0  0  0  0
 11 40  1  0  0  0  0
 12 41  1  0  0  0  0
 12 42  1  0  0  0  0
 13 43  1  0  0  0  0
 13 44  1  0  0  0  0
 14 15  1  0  0  0  0
 14 45  1  0  0  0  0
 14 46  1  0  0  0  0
 15 47  1  0  0  0  0
 15 48  1  0  0  0  0
 16 18  1  0  0  0  0
 16 49  1  0  0  0  0
 16 50  1  0  0  0  0
 17 19  1  0  0  0  0
 17 51  1  0  0  0  0
 17 52  1  0  0  0  0
 18 54  1  0  0  0  0
 18 55  1  0  0  0  0
 19 56  1  0  0  0  0
 19 57  1  0  0  0  0
 21 22  1  0  0  0  0
 22 23  1  0  0  0  0
 22 25  2  0  0  0  0
 23 26  2  0  0  0  0
 24 28  1  0  0  0  0
 24 59  1  0  0  0  0
 24 60  1  0  0  0  0
 25 27  1  0  0  0  0
 25 61  1  0  0  0  0
 26 29  1  0  0  0  0
 26 62  1  0  0  0  0
 27 29  2  0  0  0  0
 27 63  1  0  0  0  0
 28 30  2  0  0  0  0
 28 31  1  0  0  0  0
 29 64  1  0  0  0  0
 30 32  1  0  0  0  0
 30 65  1  0  0  0  0
 31 33  2  0  0  0  0
 31 66  1  0  0  0  0
 32 34  2  0  0  0  0
 32 67  1  0  0  0  0
 33 34  1  0  0  0  0
 33 68  1  0  0  0  0
 34 69  1  0  0  0  0
M  END
> <PUBCHEM_COMPOUND_CID>
86342098

> <PUBCHEM_COMPOUND_CANONICALIZED>
1

> <PUBCHEM_CACTVS_COMPLEXITY>
629

> <PUBCHEM_CACTVS_HBOND_ACCEPTOR>
5

> <PUBCHEM_CACTVS_HBOND_DONOR>
2

> <PUBCHEM_CACTVS_ROTATABLE_BOND>
7

> <PUBCHEM_CACTVS_SUBSKEYS>
AAADcfB7oABAAAAAAAAAAAAAAAAAAWAAAAA8YMEAAAAAAFgB9AAAHgQQQAAADSjBWgQxsdPAAACsAiJicACDABAhAABJmLgoRJiIYKLAmZGUIAxolgLIyAcQgIAOAAAAAAAEAAAQAAAAAAgAAAAAAAAAAA==

> <PUBCHEM_IUPAC_OPENEYE_NAME>
1-[4-[2-[4-(1,2-benzothiazol-3-yl)piperazin-1-yl]ethyl]cyclohexyl]-3-benzyl-urea

> <PUBCHEM_IUPAC_CAS_NAME>
1-[4-[2-[4-(1,2-benzothiazol-3-yl)-1-piperazinyl]ethyl]cyclohexyl]-3-(phenylmethyl)urea

> <PUBCHEM_IUPAC_NAME_MARKUP>
1-[4-[2-[4-(1,2-benzothiazol-3-yl)piperazin-1-yl]ethyl]cyclohexyl]-3-benzylurea

> <PUBCHEM_IUPAC_NAME>
1-[4-[2-[4-(1,2-benzothiazol-3-yl)piperazin-1-yl]ethyl]cyclohexyl]-3-benzylurea

> <PUBCHEM_IUPAC_SYSTEMATIC_NAME>
1-[4-[2-[4-(1,2-benzothiazol-3-yl)piperazin-1-yl]ethyl]cyclohexyl]-3-(phenylmethyl)urea

> <PUBCHEM_IUPAC_TRADITIONAL_NAME>
1-[4-[2-[4-(1,2-benzothiazol-3-yl)piperazino]ethyl]cyclohexyl]-3-benzyl-urea

> <PUBCHEM_IUPAC_INCHI>
InChI=1S/C27H35N5OS/c33-27(28-20-22-6-2-1-3-7-22)29-23-12-10-21(11-13-23)14-15-31-16-18-32(19-17-31)26-24-8-4-5-9-25(24)34-30-26/h1-9,21,23H,10-20H2,(H2,28,29,33)

> <PUBCHEM_IUPAC_INCHIKEY>
HTHHKXUTDJTRGL-UHFFFAOYSA-N

> <PUBCHEM_XLOGP3_AA>
5.1

> <PUBCHEM_EXACT_MASS>
477.25623193

> <PUBCHEM_MOLECULAR_FORMULA>
C27H35N5OS

> <PUBCHEM_MOLECULAR_WEIGHT>
477.7

> <PUBCHEM_OPENEYE_CAN_SMILES>
C1CC(CCC1CCN2CCN(CC2)C3=NSC4=CC=CC=C43)NC(=O)NCC5=CC=CC=C5

> <PUBCHEM_OPENEYE_ISO_SMILES>
C1CC(CCC1CCN2CCN(CC2)C3=NSC4=CC=CC=C43)NC(=O)NCC5=CC=CC=C5

> <PUBCHEM_CACTVS_TPSA>
88.7

> <PUBCHEM_MONOISOTOPIC_WEIGHT>
477.25623193

> <PUBCHEM_TOTAL_CHARGE>
0

> <PUBCHEM_HEAVY_ATOM_COUNT>
34

> <PUBCHEM_ATOM_DEF_STEREO_COUNT>
0

> <PUBCHEM_ATOM_UDEF_STEREO_COUNT>
0

> <PUBCHEM_BOND_DEF_STEREO_COUNT>
0

> <PUBCHEM_BOND_UDEF_STEREO_COUNT>
0

> <PUBCHEM_ISOTOPIC_ATOM_COUNT>
0

> <PUBCHEM_COMPONENT_COUNT>
1

> <PUBCHEM_CACTVS_TAUTO_COUNT>
-1

> <PUBCHEM_COORDINATE_TYPE>
1
5
255

> <PUBCHEM_BONDANNOTATIONS>
1  23  8
1  7  8
21  22  8
22  23  8
22  25  8
23  26  8
25  27  8
26  29  8
27  29  8
28  30  8
28  31  8
30  32  8
31  33  8
32  34  8
33  34  8
7  21  8

$$$$
