122189391
  -OEChem-09292322002D

 57 61  0     0  0  0  0  0  0999 V2000
    2.9945    2.3193    0.0000 O   0  0  0  0  0  0  0  0  0  0  0  0
   13.5212   -1.8894    0.0000 O   0  0  0  0  0  0  0  0  0  0  0  0
    5.7970    0.2832    0.0000 N   0  0  0  0  0  0  0  0  0  0  0  0
    4.9836    2.1102    0.0000 N   0  0  0  0  0  0  0  0  0  0  0  0
    8.6877   -2.8509    0.0000 N   0  0  0  0  0  0  0  0  0  0  0  0
    7.1050   -2.5145    0.0000 N   0  0  0  0  0  0  0  0  0  0  0  0
    7.7742   -3.2576    0.0000 N   0  0  0  0  0  0  0  0  0  0  0  0
   11.2858   -4.3509    0.0000 N   0  0  0  0  0  0  0  0  0  0  0  0
   12.2320   -4.6556    0.0000 N   0  0  0  0  0  0  0  0  0  0  0  0
    6.3848    1.0922    0.0000 C   0  0  0  0  0  0  0  0  0  0  0  0
    4.8025    0.3877    0.0000 C   0  0  0  0  0  0  0  0  0  0  0  0
    5.9781    2.0057    0.0000 C   0  0  0  0  0  0  0  0  0  0  0  0
    4.3958    1.3012    0.0000 C   0  0  0  0  0  0  0  0  0  0  0  0
    6.2038   -0.6304    0.0000 C   0  0  0  0  0  0  0  0  0  0  0  0
    7.1983   -0.7349    0.0000 C   0  0  0  0  0  0  0  0  0  0  0  0
    4.5768    3.0238    0.0000 C   0  0  0  0  0  0  0  0  0  0  0  0
    7.6050   -1.6485    0.0000 C   0  0  0  0  0  0  0  0  0  0  0  0
    3.5823    3.1283    0.0000 C   0  0  0  0  0  0  0  0  0  0  0  0
    5.1646    3.8328    0.0000 C   0  0  0  0  0  0  0  0  0  0  0  0
    8.5832   -1.8564    0.0000 C   0  0  0  0  0  0  0  0  0  0  0  0
    3.1756    4.0419    0.0000 C   0  0  0  0  0  0  0  0  0  0  0  0
    4.7579    4.7464    0.0000 C   0  0  0  0  0  0  0  0  0  0  0  0
    3.7634    4.8509    0.0000 C   0  0  0  0  0  0  0  0  0  0  0  0
    9.5537   -3.3509    0.0000 C   0  0  0  0  0  0  0  0  0  0  0  0
   10.4198   -2.8509    0.0000 C   0  0  0  0  0  0  0  0  0  0  0  0
   11.2858   -3.3509    0.0000 C   0  0  0  0  0  0  0  0  0  0  0  0
    9.5537   -4.3509    0.0000 C   0  0  0  0  0  0  0  0  0  0  0  0
   10.4198   -4.8509    0.0000 C   0  0  0  0  0  0  0  0  0  0  0  0
    2.0000    2.4238    0.0000 C   0  0  0  0  0  0  0  0  0  0  0  0
   12.2320   -3.0462    0.0000 C   0  0  0  0  0  0  0  0  0  0  0  0
   12.8156   -3.8509    0.0000 C   0  0  0  0  0  0  0  0  0  0  0  0
   12.5427   -2.0956    0.0000 C   0  0  0  0  0  0  0  0  0  0  0  0
    6.8155    0.6462    0.0000 H   0  0  0  0  0  0  0  0  0  0  0  0
    6.8988    1.4389    0.0000 H   0  0  0  0  0  0  0  0  0  0  0  0
    4.2009    0.2377    0.0000 H   0  0  0  0  0  0  0  0  0  0  0  0
    4.8458   -0.2308    0.0000 H   0  0  0  0  0  0  0  0  0  0  0  0
    6.5797    2.1557    0.0000 H   0  0  0  0  0  0  0  0  0  0  0  0
    5.9348    2.6242    0.0000 H   0  0  0  0  0  0  0  0  0  0  0  0
    3.9651    1.7472    0.0000 H   0  0  0  0  0  0  0  0  0  0  0  0
    3.8818    0.9545    0.0000 H   0  0  0  0  0  0  0  0  0  0  0  0
    5.6022   -0.7804    0.0000 H   0  0  0  0  0  0  0  0  0  0  0  0
    6.2470   -1.2489    0.0000 H   0  0  0  0  0  0  0  0  0  0  0  0
    7.7999   -0.5849    0.0000 H   0  0  0  0  0  0  0  0  0  0  0  0
    7.1550   -0.1164    0.0000 H   0  0  0  0  0  0  0  0  0  0  0  0
    5.7812    3.7680    0.0000 H   0  0  0  0  0  0  0  0  0  0  0  0
    9.0439   -1.4415    0.0000 H   0  0  0  0  0  0  0  0  0  0  0  0
    2.5590    4.1067    0.0000 H   0  0  0  0  0  0  0  0  0  0  0  0
    5.1223    5.2480    0.0000 H   0  0  0  0  0  0  0  0  0  0  0  0
    3.5112    5.4173    0.0000 H   0  0  0  0  0  0  0  0  0  0  0  0
   10.4198   -2.2309    0.0000 H   0  0  0  0  0  0  0  0  0  0  0  0
    9.0168   -4.6609    0.0000 H   0  0  0  0  0  0  0  0  0  0  0  0
   10.4198   -5.4709    0.0000 H   0  0  0  0  0  0  0  0  0  0  0  0
    2.0648    3.0404    0.0000 H   0  0  0  0  0  0  0  0  0  0  0  0
    1.3834    2.4886    0.0000 H   0  0  0  0  0  0  0  0  0  0  0  0
    1.9352    1.8072    0.0000 H   0  0  0  0  0  0  0  0  0  0  0  0
   13.4356   -3.8509    0.0000 H   0  0  0  0  0  0  0  0  0  0  0  0
   12.1286   -1.6342    0.0000 H   0  0  0  0  0  0  0  0  0  0  0  0
  1 18  1  0  0  0  0
  1 29  1  0  0  0  0
  2 32  2  0  0  0  0
  3 10  1  0  0  0  0
  3 11  1  0  0  0  0
  3 14  1  0  0  0  0
  4 12  1  0  0  0  0
  4 13  1  0  0  0  0
  4 16  1  0  0  0  0
  5  7  1  0  0  0  0
  5 20  1  0  0  0  0
  5 24  1  0  0  0  0
  6  7  2  0  0  0  0
  6 17  1  0  0  0  0
  8  9  1  0  0  0  0
  8 26  1  0  0  0  0
  8 28  1  0  0  0  0
  9 31  2  0  0  0  0
 10 12  1  0  0  0  0
 10 33  1  0  0  0  0
 10 34  1  0  0  0  0
 11 13  1  0  0  0  0
 11 35  1  0  0  0  0
 11 36  1  0  0  0  0
 12 37  1  0  0  0  0
 12 38  1  0  0  0  0
 13 39  1  0  0  0  0
 13 40  1  0  0  0  0
 14 15  1  0  0  0  0
 14 41  1  0  0  0  0
 14 42  1  0  0  0  0
 15 17  1  0  0  0  0
 15 43  1  0  0  0  0
 15 44  1  0  0  0  0
 16 18  1  0  0  0  0
 16 19  2  0  0  0  0
 17 20  2  0  0  0  0
 18 21  2  0  0  0  0
 19 22  1  0  0  0  0
 19 45  1  0  0  0  0
 20 46  1  0  0  0  0
 21 23  1  0  0  0  0
 21 47  1  0  0  0  0
 22 23  2  0  0  0  0
 22 48  1  0  0  0  0
 23 49  1  0  0  0  0
 24 25  2  0  0  0  0
 24 27  1  0  0  0  0
 25 26  1  0  0  0  0
 25 50  1  0  0  0  0
 26 30  2  0  0  0  0
 27 28  2  0  0  0  0
 27 51  1  0  0  0  0
 28 52  1  0  0  0  0
 29 53  1  0  0  0  0
 29 54  1  0  0  0  0
 29 55  1  0  0  0  0
 30 31  1  0  0  0  0
 30 32  1  0  0  0  0
 31 56  1  0  0  0  0
 32 57  1  0  0  0  0
M  END
> <PUBCHEM_COMPOUND_CID>
122189391

> <PUBCHEM_COMPOUND_CANONICALIZED>
1

> <PUBCHEM_CACTVS_COMPLEXITY>
617

> <PUBCHEM_CACTVS_HBOND_ACCEPTOR>
7

> <PUBCHEM_CACTVS_HBOND_DONOR>
0

> <PUBCHEM_CACTVS_ROTATABLE_BOND>
7

> <PUBCHEM_CACTVS_SUBSKEYS>
AAADceB7sAAAAAAAAAAAAAAAAAAAAWLAAAA8WIAAAAAAAFgB/AAAHgAIAAAADAzhngY+xrMIFACqAzx3xACSjCQ1siAY2CE/fNgOZvrE9duVtahkyBHY6ceYyUCcAAAAAAAAEAAAAAAAAAAgAAAAAAAAAA==

> <PUBCHEM_IUPAC_OPENEYE_NAME>
5-[4-[2-[4-(2-methoxyphenyl)piperazin-1-yl]ethyl]triazol-1-yl]pyrazolo[1,5-a]pyridine-3-carbaldehyde

> <PUBCHEM_IUPAC_CAS_NAME>
5-[4-[2-[4-(2-methoxyphenyl)-1-piperazinyl]ethyl]-1-triazolyl]-3-pyrazolo[1,5-a]pyridinecarboxaldehyde

> <PUBCHEM_IUPAC_NAME_MARKUP>
5-[4-[2-[4-(2-methoxyphenyl)piperazin-1-yl]ethyl]triazol-1-yl]pyrazolo[1,5-a]pyridine-3-carbaldehyde

> <PUBCHEM_IUPAC_NAME>
5-[4-[2-[4-(2-methoxyphenyl)piperazin-1-yl]ethyl]triazol-1-yl]pyrazolo[1,5-a]pyridine-3-carbaldehyde

> <PUBCHEM_IUPAC_SYSTEMATIC_NAME>
5-[4-[2-[4-(2-methoxyphenyl)piperazin-1-yl]ethyl]-1,2,3-triazol-1-yl]pyrazolo[1,5-a]pyridine-3-carbaldehyde

> <PUBCHEM_IUPAC_TRADITIONAL_NAME>
5-[4-[2-[4-(2-methoxyphenyl)piperazino]ethyl]triazol-1-yl]pyrazolo[1,5-a]pyridine-3-carbaldehyde

> <PUBCHEM_IUPAC_INCHI>
InChI=1S/C23H25N7O2/c1-32-23-5-3-2-4-21(23)28-12-10-27(11-13-28)8-6-19-16-30(26-25-19)20-7-9-29-22(14-20)18(17-31)15-24-29/h2-5,7,9,14-17H,6,8,10-13H2,1H3

> <PUBCHEM_IUPAC_INCHIKEY>
UHYDZQALANMGBP-UHFFFAOYSA-N

> <PUBCHEM_XLOGP3_AA>
1.8

> <PUBCHEM_EXACT_MASS>
431.20697307

> <PUBCHEM_MOLECULAR_FORMULA>
C23H25N7O2

> <PUBCHEM_MOLECULAR_WEIGHT>
431.5

> <PUBCHEM_OPENEYE_CAN_SMILES>
COC1=CC=CC=C1N2CCN(CC2)CCC3=CN(N=N3)C4=CC5=C(C=NN5C=C4)C=O

> <PUBCHEM_OPENEYE_ISO_SMILES>
COC1=CC=CC=C1N2CCN(CC2)CCC3=CN(N=N3)C4=CC5=C(C=NN5C=C4)C=O

> <PUBCHEM_CACTVS_TPSA>
80.8

> <PUBCHEM_MONOISOTOPIC_WEIGHT>
431.20697307

> <PUBCHEM_TOTAL_CHARGE>
0

> <PUBCHEM_HEAVY_ATOM_COUNT>
32

> <PUBCHEM_ATOM_DEF_STEREO_COUNT>
0

> <PUBCHEM_ATOM_UDEF_STEREO_COUNT>
0

> <PUBCHEM_BOND_DEF_STEREO_COUNT>
0

> <PUBCHEM_BOND_UDEF_STEREO_COUNT>
0

> <PUBCHEM_ISOTOPIC_ATOM_COUNT>
0

> <PUBCHEM_COMPONENT_COUNT>
1

> <PUBCHEM_CACTVS_TAUTO_COUNT>
-1

> <PUBCHEM_COORDINATE_TYPE>
1
5
255

> <PUBCHEM_BONDANNOTATIONS>
16  18  8
16  19  8
17  20  8
18  21  8
19  22  8
21  23  8
22  23  8
24  25  8
24  27  8
25  26  8
26  30  8
27  28  8
30  31  8
5  20  8
5  7  8
6  17  8
6  7  8
8  26  8
8  28  8
8  9  8
9  31  8

$$$$
