118710470
  -OEChem-09292322052D

 80 83  0     0  0  0  0  0  0999 V2000
   14.8959   -3.9571    0.0000 F   0  0  0  0  0  0  0  0  0  0  0  0
   16.2619   -4.3231    0.0000 F   0  0  0  0  0  0  0  0  0  0  0  0
   16.6279   -2.9571    0.0000 F   0  0  0  0  0  0  0  0  0  0  0  0
    6.7619    1.7391    0.0000 O   0  0  0  0  0  0  0  0  0  0  0  0
   10.7619   -1.7250    0.0000 N   0  0  0  0  0  0  0  0  0  0  0  0
   12.7619   -1.7250    0.0000 N   0  0  0  0  0  0  0  0  0  0  0  0
   14.2619   -0.8590    0.0000 N   0  0  0  0  0  0  0  0  0  0  0  0
    6.7619    0.0070    0.0000 N   0  0  0  0  0  0  0  0  0  0  0  0
   15.7619   -1.7250    0.0000 N   0  0  0  0  0  0  0  0  0  0  0  0
    4.6783    0.0683    0.0000 N   0  0  0  0  0  0  0  0  0  0  0  0
    4.3211    3.3726    0.0000 N   0  0  0  0  0  0  0  0  0  0  0  0
   11.2619   -2.5911    0.0000 C   0  0  0  0  0  0  0  0  0  0  0  0
   11.2619   -0.8590    0.0000 C   0  0  0  0  0  0  0  0  0  0  0  0
   12.2619   -2.5911    0.0000 C   0  0  0  0  0  0  0  0  0  0  0  0
   12.2619   -0.8590    0.0000 C   0  0  0  0  0  0  0  0  0  0  0  0
    9.7619   -1.7250    0.0000 C   0  0  0  0  0  0  0  0  0  0  0  0
    9.2619   -0.8590    0.0000 C   0  0  0  0  0  0  0  0  0  0  0  0
   13.7619   -1.7250    0.0000 C   0  0  0  0  0  0  0  0  0  0  0  0
    8.2619   -0.8590    0.0000 C   0  0  0  0  0  0  0  0  0  0  0  0
   15.7619    0.0070    0.0000 C   0  0  0  0  0  0  0  0  0  0  0  0
    7.7619    0.0070    0.0000 C   0  0  0  0  0  0  0  0  0  0  0  0
   15.2619   -0.8590    0.0000 C   0  0  0  0  0  0  0  0  0  0  0  0
   14.2619   -2.5911    0.0000 C   0  0  0  0  0  0  0  0  0  0  0  0
   15.2619   -2.5911    0.0000 C   0  0  0  0  0  0  0  0  0  0  0  0
   16.2619    0.8730    0.0000 C   0  0  0  0  0  0  0  0  0  0  0  0
   16.6279   -0.4930    0.0000 C   0  0  0  0  0  0  0  0  0  0  0  0
   14.8959    0.5070    0.0000 C   0  0  0  0  0  0  0  0  0  0  0  0
    5.2619    0.8730    0.0000 C   0  0  0  0  0  0  0  0  0  0  0  0
    4.6783    1.6778    0.0000 C   0  0  0  0  0  0  0  0  0  0  0  0
    6.2619    0.8730    0.0000 C   0  0  0  0  0  0  0  0  0  0  0  0
    3.7320    1.3730    0.0000 C   0  0  0  0  0  0  0  0  0  0  0  0
    3.7320    0.3730    0.0000 C   0  0  0  0  0  0  0  0  0  0  0  0
    4.9889    2.6283    0.0000 C   0  0  0  0  0  0  0  0  0  0  0  0
   15.7619   -3.4571    0.0000 C   0  0  0  0  0  0  0  0  0  0  0  0
    2.8660    1.8730    0.0000 C   0  0  0  0  0  0  0  0  0  0  0  0
    2.8660   -0.1270    0.0000 C   0  0  0  0  0  0  0  0  0  0  0  0
    2.0000    1.3730    0.0000 C   0  0  0  0  0  0  0  0  0  0  0  0
    2.0000    0.3730    0.0000 C   0  0  0  0  0  0  0  0  0  0  0  0
    4.6318    4.3231    0.0000 C   0  0  0  0  0  0  0  0  0  0  0  0
    3.3426    3.1664    0.0000 C   0  0  0  0  0  0  0  0  0  0  0  0
   10.6793   -2.8031    0.0000 H   0  0  0  0  0  0  0  0  0  0  0  0
   11.3695   -3.2016    0.0000 H   0  0  0  0  0  0  0  0  0  0  0  0
   11.3695   -0.2484    0.0000 H   0  0  0  0  0  0  0  0  0  0  0  0
   10.6793   -0.6470    0.0000 H   0  0  0  0  0  0  0  0  0  0  0  0
   12.1542   -3.2016    0.0000 H   0  0  0  0  0  0  0  0  0  0  0  0
   12.8445   -2.8031    0.0000 H   0  0  0  0  0  0  0  0  0  0  0  0
   12.8445   -0.6470    0.0000 H   0  0  0  0  0  0  0  0  0  0  0  0
   12.1542   -0.2484    0.0000 H   0  0  0  0  0  0  0  0  0  0  0  0
    9.1793   -1.9371    0.0000 H   0  0  0  0  0  0  0  0  0  0  0  0
    9.8695   -2.3356    0.0000 H   0  0  0  0  0  0  0  0  0  0  0  0
    9.8445   -0.6470    0.0000 H   0  0  0  0  0  0  0  0  0  0  0  0
    9.1542   -0.2484    0.0000 H   0  0  0  0  0  0  0  0  0  0  0  0
    7.6793   -1.0711    0.0000 H   0  0  0  0  0  0  0  0  0  0  0  0
    8.3695   -1.4696    0.0000 H   0  0  0  0  0  0  0  0  0  0  0  0
    8.3445    0.2191    0.0000 H   0  0  0  0  0  0  0  0  0  0  0  0
    7.6542    0.6176    0.0000 H   0  0  0  0  0  0  0  0  0  0  0  0
   13.9519   -3.1280    0.0000 H   0  0  0  0  0  0  0  0  0  0  0  0
   16.7988    0.5630    0.0000 H   0  0  0  0  0  0  0  0  0  0  0  0
   16.5719    1.4100    0.0000 H   0  0  0  0  0  0  0  0  0  0  0  0
   15.7249    1.1830    0.0000 H   0  0  0  0  0  0  0  0  0  0  0  0
   16.3179   -1.0299    0.0000 H   0  0  0  0  0  0  0  0  0  0  0  0
   17.1648   -0.8030    0.0000 H   0  0  0  0  0  0  0  0  0  0  0  0
   16.9379    0.0439    0.0000 H   0  0  0  0  0  0  0  0  0  0  0  0
   15.2059    1.0440    0.0000 H   0  0  0  0  0  0  0  0  0  0  0  0
   14.3589    0.8170    0.0000 H   0  0  0  0  0  0  0  0  0  0  0  0
   14.5859   -0.0299    0.0000 H   0  0  0  0  0  0  0  0  0  0  0  0
    6.4519   -0.5299    0.0000 H   0  0  0  0  0  0  0  0  0  0  0  0
    5.5359    2.3363    0.0000 H   0  0  0  0  0  0  0  0  0  0  0  0
    5.3715    3.1162    0.0000 H   0  0  0  0  0  0  0  0  0  0  0  0
    4.8709   -0.5210    0.0000 H   0  0  0  0  0  0  0  0  0  0  0  0
    2.8660    2.4930    0.0000 H   0  0  0  0  0  0  0  0  0  0  0  0
    2.8660   -0.7470    0.0000 H   0  0  0  0  0  0  0  0  0  0  0  0
    1.4631    1.6830    0.0000 H   0  0  0  0  0  0  0  0  0  0  0  0
    1.4631    0.0630    0.0000 H   0  0  0  0  0  0  0  0  0  0  0  0
    5.2211    4.1305    0.0000 H   0  0  0  0  0  0  0  0  0  0  0  0
    4.8244    4.9124    0.0000 H   0  0  0  0  0  0  0  0  0  0  0  0
    4.0424    4.5157    0.0000 H   0  0  0  0  0  0  0  0  0  0  0  0
    3.2147    3.7730    0.0000 H   0  0  0  0  0  0  0  0  0  0  0  0
    2.7359    3.0385    0.0000 H   0  0  0  0  0  0  0  0  0  0  0  0
    3.4704    2.5597    0.0000 H   0  0  0  0  0  0  0  0  0  0  0  0
  1 34  1  0  0  0  0
  2 34  1  0  0  0  0
  3 34  1  0  0  0  0
  4 30  2  0  0  0  0
  5 12  1  0  0  0  0
  5 13  1  0  0  0  0
  5 16  1  0  0  0  0
  6 14  1  0  0  0  0
  6 15  1  0  0  0  0
  6 18  1  0  0  0  0
  7 18  2  0  0  0  0
  7 22  1  0  0  0  0
  8 21  1  0  0  0  0
  8 30  1  0  0  0  0
  8 67  1  0  0  0  0
  9 22  2  0  0  0  0
  9 24  1  0  0  0  0
 10 28  1  0  0  0  0
 10 32  1  0  0  0  0
 10 70  1  0  0  0  0
 11 33  1  0  0  0  0
 11 39  1  0  0  0  0
 11 40  1  0  0  0  0
 12 14  1  0  0  0  0
 12 41  1  0  0  0  0
 12 42  1  0  0  0  0
 13 15  1  0  0  0  0
 13 43  1  0  0  0  0
 13 44  1  0  0  0  0
 14 45  1  0  0  0  0
 14 46  1  0  0  0  0
 15 47  1  0  0  0  0
 15 48  1  0  0  0  0
 16 17  1  0  0  0  0
 16 49  1  0  0  0  0
 16 50  1  0  0  0  0
 17 19  1  0  0  0  0
 17 51  1  0  0  0  0
 17 52  1  0  0  0  0
 18 23  1  0  0  0  0
 19 21  1  0  0  0  0
 19 53  1  0  0  0  0
 19 54  1  0  0  0  0
 20 22  1  0  0  0  0
 20 25  1  0  0  0  0
 20 26  1  0  0  0  0
 20 27  1  0  0  0  0
 21 55  1  0  0  0  0
 21 56  1  0  0  0  0
 23 24  2  0  0  0  0
 23 57  1  0  0  0  0
 24 34  1  0  0  0  0
 25 58  1  0  0  0  0
 25 59  1  0  0  0  0
 25 60  1  0  0  0  0
 26 61  1  0  0  0  0
 26 62  1  0  0  0  0
 26 63  1  0  0  0  0
 27 64  1  0  0  0  0
 27 65  1  0  0  0  0
 27 66  1  0  0  0  0
 28 29  2  0  0  0  0
 28 30  1  0  0  0  0
 29 31  1  0  0  0  0
 29 33  1  0  0  0  0
 31 32  1  0  0  0  0
 31 35  2  0  0  0  0
 32 36  2  0  0  0  0
 33 68  1  0  0  0  0
 33 69  1  0  0  0  0
 35 37  1  0  0  0  0
 35 71  1  0  0  0  0
 36 38  1  0  0  0  0
 36 72  1  0  0  0  0
 37 38  2  0  0  0  0
 37 73  1  0  0  0  0
 38 74  1  0  0  0  0
 39 75  1  0  0  0  0
 39 76  1  0  0  0  0
 39 77  1  0  0  0  0
 40 78  1  0  0  0  0
 40 79  1  0  0  0  0
 40 80  1  0  0  0  0
M  END
> <PUBCHEM_COMPOUND_CID>
118710470

> <PUBCHEM_COMPOUND_CANONICALIZED>
1

> <PUBCHEM_CACTVS_COMPLEXITY>
812

> <PUBCHEM_CACTVS_HBOND_ACCEPTOR>
9

> <PUBCHEM_CACTVS_HBOND_DONOR>
2

> <PUBCHEM_CACTVS_ROTATABLE_BOND>
10

> <PUBCHEM_CACTVS_SUBSKEYS>
AAADcfB7oYAAAAAAAAAAAAAAAAAAAWAAAAA8WIAAAAAAAFgB/AAAHwAQAAAADgjBnxQz8PfJkACoAydydACCgCknAqAJmaG4ZNiIaPLA3fGUJQholgLIySccicCegAAAAAACAAAAAAAAAAQAAAAAAAAAAA==

> <PUBCHEM_IUPAC_OPENEYE_NAME>
N-[4-[4-[2-tert-butyl-6-(trifluoromethyl)pyrimidin-4-yl]piperazin-1-yl]butyl]-3-[(dimethylamino)methyl]-1H-indole-2-carboxamide

> <PUBCHEM_IUPAC_CAS_NAME>
N-[4-[4-[2-tert-butyl-6-(trifluoromethyl)-4-pyrimidinyl]-1-piperazinyl]butyl]-3-[(dimethylamino)methyl]-1H-indole-2-carboxamide

> <PUBCHEM_IUPAC_NAME_MARKUP>
<I>N</I>-[4-[4-[2-<I>tert</I>-butyl-6-(trifluoromethyl)pyrimidin-4-yl]piperazin-1-yl]butyl]-3-[(dimethylamino)methyl]-1<I>H</I>-indole-2-carboxamide

> <PUBCHEM_IUPAC_NAME>
N-[4-[4-[2-tert-butyl-6-(trifluoromethyl)pyrimidin-4-yl]piperazin-1-yl]butyl]-3-[(dimethylamino)methyl]-1H-indole-2-carboxamide

> <PUBCHEM_IUPAC_SYSTEMATIC_NAME>
N-[4-[4-[2-tert-butyl-6-(trifluoromethyl)pyrimidin-4-yl]piperazin-1-yl]butyl]-3-[(dimethylamino)methyl]-1H-indole-2-carboxamide

> <PUBCHEM_IUPAC_TRADITIONAL_NAME>
N-[4-[4-[2-tert-butyl-6-(trifluoromethyl)pyrimidin-4-yl]piperazino]butyl]-3-[(dimethylamino)methyl]-1H-indole-2-carboxamide

> <PUBCHEM_IUPAC_INCHI>
InChI=1S/C29H40F3N7O/c1-28(2,3)27-35-23(29(30,31)32)18-24(36-27)39-16-14-38(15-17-39)13-9-8-12-33-26(40)25-21(19-37(4)5)20-10-6-7-11-22(20)34-25/h6-7,10-11,18,34H,8-9,12-17,19H2,1-5H3,(H,33,40)

> <PUBCHEM_IUPAC_INCHIKEY>
DKBPQSXNYNGHQK-UHFFFAOYSA-N

> <PUBCHEM_XLOGP3_AA>
5.1

> <PUBCHEM_EXACT_MASS>
559.32464341

> <PUBCHEM_MOLECULAR_FORMULA>
C29H40F3N7O

> <PUBCHEM_MOLECULAR_WEIGHT>
559.7

> <PUBCHEM_OPENEYE_CAN_SMILES>
CC(C)(C)C1=NC(=CC(=N1)N2CCN(CC2)CCCCNC(=O)C3=C(C4=CC=CC=C4N3)CN(C)C)C(F)(F)F

> <PUBCHEM_OPENEYE_ISO_SMILES>
CC(C)(C)C1=NC(=CC(=N1)N2CCN(CC2)CCCCNC(=O)C3=C(C4=CC=CC=C4N3)CN(C)C)C(F)(F)F

> <PUBCHEM_CACTVS_TPSA>
80.4

> <PUBCHEM_MONOISOTOPIC_WEIGHT>
559.32464341

> <PUBCHEM_TOTAL_CHARGE>
0

> <PUBCHEM_HEAVY_ATOM_COUNT>
40

> <PUBCHEM_ATOM_DEF_STEREO_COUNT>
0

> <PUBCHEM_ATOM_UDEF_STEREO_COUNT>
0

> <PUBCHEM_BOND_DEF_STEREO_COUNT>
0

> <PUBCHEM_BOND_UDEF_STEREO_COUNT>
0

> <PUBCHEM_ISOTOPIC_ATOM_COUNT>
0

> <PUBCHEM_COMPONENT_COUNT>
1

> <PUBCHEM_CACTVS_TAUTO_COUNT>
-1

> <PUBCHEM_COORDINATE_TYPE>
1
5
255

> <PUBCHEM_BONDANNOTATIONS>
10  28  8
10  32  8
18  23  8
23  24  8
28  29  8
29  31  8
31  32  8
31  35  8
32  36  8
35  37  8
36  38  8
37  38  8
7  18  8
7  22  8
9  22  8
9  24  8

$$$$
