10385855
  -OEChem-09292322082D

 57 60  0     0  0  0  0  0  0999 V2000
    8.9282    0.5633    0.0000 O   0  0  0  0  0  0  0  0  0  0  0  0
    7.1962    1.5633    0.0000 O   0  0  0  0  0  0  0  0  0  0  0  0
    4.5981   -0.9367    0.0000 N   0  0  0  0  0  0  0  0  0  0  0  0
    6.3301    0.0633    0.0000 N   0  0  0  0  0  0  0  0  0  0  0  0
   12.4725   -1.2415    0.0000 N   0  0  0  0  0  0  0  0  0  0  0  0
   14.0723    2.4753    0.0000 N   0  0  0  0  0  0  0  0  0  0  0  0
    4.5981    0.0633    0.0000 C   0  0  0  0  0  0  0  0  0  0  0  0
    5.4641   -1.4367    0.0000 C   0  0  0  0  0  0  0  0  0  0  0  0
    5.4641    0.5633    0.0000 C   0  0  0  0  0  0  0  0  0  0  0  0
    6.3301   -0.9367    0.0000 C   0  0  0  0  0  0  0  0  0  0  0  0
    3.7320   -1.4367    0.0000 C   0  0  0  0  0  0  0  0  0  0  0  0
    7.1962    0.5633    0.0000 C   0  0  0  0  0  0  0  0  0  0  0  0
    2.8660   -0.9367    0.0000 C   0  0  0  0  0  0  0  0  0  0  0  0
    8.0622    0.0633    0.0000 C   0  0  0  0  0  0  0  0  0  0  0  0
    3.7320   -2.4367    0.0000 C   0  0  0  0  0  0  0  0  0  0  0  0
   11.5263    0.0633    0.0000 C   0  0  0  0  0  0  0  0  0  0  0  0
   12.4725    0.3680    0.0000 C   0  0  0  0  0  0  0  0  0  0  0  0
    2.0000   -1.4367    0.0000 C   0  0  0  0  0  0  0  0  0  0  0  0
   11.5263   -0.9367    0.0000 C   0  0  0  0  0  0  0  0  0  0  0  0
    2.8660    0.0633    0.0000 C   0  0  0  0  0  0  0  0  0  0  0  0
    2.8660   -2.9367    0.0000 C   0  0  0  0  0  0  0  0  0  0  0  0
    9.7942    0.0633    0.0000 C   0  0  0  0  0  0  0  0  0  0  0  0
   12.7832    1.3185    0.0000 C   0  0  0  0  0  0  0  0  0  0  0  0
   10.6603    0.5633    0.0000 C   0  0  0  0  0  0  0  0  0  0  0  0
    2.0000   -2.4367    0.0000 C   0  0  0  0  0  0  0  0  0  0  0  0
   13.0561   -0.4367    0.0000 C   0  0  0  0  0  0  0  0  0  0  0  0
   10.6603   -1.4367    0.0000 C   0  0  0  0  0  0  0  0  0  0  0  0
    9.7942   -0.9367    0.0000 C   0  0  0  0  0  0  0  0  0  0  0  0
   13.7617    1.5247    0.0000 C   0  0  0  0  0  0  0  0  0  0  0  0
    4.3860    0.6459    0.0000 H   0  0  0  0  0  0  0  0  0  0  0  0
    3.9875   -0.0444    0.0000 H   0  0  0  0  0  0  0  0  0  0  0  0
    5.0656   -1.9117    0.0000 H   0  0  0  0  0  0  0  0  0  0  0  0
    5.8626   -1.9117    0.0000 H   0  0  0  0  0  0  0  0  0  0  0  0
    5.8626    1.0382    0.0000 H   0  0  0  0  0  0  0  0  0  0  0  0
    5.0656    1.0382    0.0000 H   0  0  0  0  0  0  0  0  0  0  0  0
    6.5422   -1.5193    0.0000 H   0  0  0  0  0  0  0  0  0  0  0  0
    6.9407   -0.8291    0.0000 H   0  0  0  0  0  0  0  0  0  0  0  0
    7.6636   -0.4117    0.0000 H   0  0  0  0  0  0  0  0  0  0  0  0
    8.4607   -0.4117    0.0000 H   0  0  0  0  0  0  0  0  0  0  0  0
    4.2690   -2.7467    0.0000 H   0  0  0  0  0  0  0  0  0  0  0  0
    1.4631   -1.1267    0.0000 H   0  0  0  0  0  0  0  0  0  0  0  0
    3.4860    0.0633    0.0000 H   0  0  0  0  0  0  0  0  0  0  0  0
    2.8660    0.6833    0.0000 H   0  0  0  0  0  0  0  0  0  0  0  0
    2.2460    0.0633    0.0000 H   0  0  0  0  0  0  0  0  0  0  0  0
    2.8660   -3.5567    0.0000 H   0  0  0  0  0  0  0  0  0  0  0  0
   12.7626    1.9382    0.0000 H   0  0  0  0  0  0  0  0  0  0  0  0
   12.1693    1.4059    0.0000 H   0  0  0  0  0  0  0  0  0  0  0  0
   10.6603    1.1833    0.0000 H   0  0  0  0  0  0  0  0  0  0  0  0
    1.4631   -2.7467    0.0000 H   0  0  0  0  0  0  0  0  0  0  0  0
   13.6761   -0.4367    0.0000 H   0  0  0  0  0  0  0  0  0  0  0  0
   12.6651   -1.8308    0.0000 H   0  0  0  0  0  0  0  0  0  0  0  0
   10.6603   -2.0567    0.0000 H   0  0  0  0  0  0  0  0  0  0  0  0
    9.2573   -1.2467    0.0000 H   0  0  0  0  0  0  0  0  0  0  0  0
   13.7822    0.9051    0.0000 H   0  0  0  0  0  0  0  0  0  0  0  0
   14.3755    1.4374    0.0000 H   0  0  0  0  0  0  0  0  0  0  0  0
   14.6790    2.6031    0.0000 H   0  0  0  0  0  0  0  0  0  0  0  0
   13.6583    2.9367    0.0000 H   0  0  0  0  0  0  0  0  0  0  0  0
  1 14  1  0  0  0  0
  1 22  1  0  0  0  0
  2 12  2  0  0  0  0
  3  7  1  0  0  0  0
  3  8  1  0  0  0  0
  3 11  1  0  0  0  0
  4  9  1  0  0  0  0
  4 10  1  0  0  0  0
  4 12  1  0  0  0  0
  5 19  1  0  0  0  0
  5 26  1  0  0  0  0
  5 51  1  0  0  0  0
  6 29  1  0  0  0  0
  6 56  1  0  0  0  0
  6 57  1  0  0  0  0
  7  9  1  0  0  0  0
  7 30  1  0  0  0  0
  7 31  1  0  0  0  0
  8 10  1  0  0  0  0
  8 32  1  0  0  0  0
  8 33  1  0  0  0  0
  9 34  1  0  0  0  0
  9 35  1  0  0  0  0
 10 36  1  0  0  0  0
 10 37  1  0  0  0  0
 11 13  1  0  0  0  0
 11 15  2  0  0  0  0
 12 14  1  0  0  0  0
 13 18  2  0  0  0  0
 13 20  1  0  0  0  0
 14 38  1  0  0  0  0
 14 39  1  0  0  0  0
 15 21  1  0  0  0  0
 15 40  1  0  0  0  0
 16 17  1  0  0  0  0
 16 19  2  0  0  0  0
 16 24  1  0  0  0  0
 17 23  1  0  0  0  0
 17 26  2  0  0  0  0
 18 25  1  0  0  0  0
 18 41  1  0  0  0  0
 19 27  1  0  0  0  0
 20 42  1  0  0  0  0
 20 43  1  0  0  0  0
 20 44  1  0  0  0  0
 21 25  2  0  0  0  0
 21 45  1  0  0  0  0
 22 24  2  0  0  0  0
 22 28  1  0  0  0  0
 23 29  1  0  0  0  0
 23 46  1  0  0  0  0
 23 47  1  0  0  0  0
 24 48  1  0  0  0  0
 25 49  1  0  0  0  0
 26 50  1  0  0  0  0
 27 28  2  0  0  0  0
 27 52  1  0  0  0  0
 28 53  1  0  0  0  0
 29 54  1  0  0  0  0
 29 55  1  0  0  0  0
M  END
> <PUBCHEM_COMPOUND_CID>
10385855

> <PUBCHEM_COMPOUND_CANONICALIZED>
1

> <PUBCHEM_CACTVS_COMPLEXITY>
537

> <PUBCHEM_CACTVS_HBOND_ACCEPTOR>
4

> <PUBCHEM_CACTVS_HBOND_DONOR>
2

> <PUBCHEM_CACTVS_ROTATABLE_BOND>
6

> <PUBCHEM_CACTVS_SUBSKEYS>
AAADceB7sAAAAAAAAAAAAAAAAAAAAWAAAAA8YIAAAAAAAFgB9AAAHgAQAAAADAzhngY+xvPJlACoAzV3VAKCiCAxIiAI2aB+bJgOZuLEsZ+XOCjk1hHY6Aew0PIOgEABAAACAAAAgAIAAAQAAAAAAAAAAA==

> <PUBCHEM_IUPAC_OPENEYE_NAME>
2-[[3-(2-aminoethyl)-1H-indol-5-yl]oxy]-1-[4-(o-tolyl)piperazin-1-yl]ethanone

> <PUBCHEM_IUPAC_CAS_NAME>
2-[[3-(2-aminoethyl)-1H-indol-5-yl]oxy]-1-[4-(2-methylphenyl)-1-piperazinyl]ethanone

> <PUBCHEM_IUPAC_NAME_MARKUP>
2-[[3-(2-aminoethyl)-1<I>H</I>-indol-5-yl]oxy]-1-[4-(2-methylphenyl)piperazin-1-yl]ethanone

> <PUBCHEM_IUPAC_NAME>
2-[[3-(2-aminoethyl)-1H-indol-5-yl]oxy]-1-[4-(2-methylphenyl)piperazin-1-yl]ethanone

> <PUBCHEM_IUPAC_SYSTEMATIC_NAME>
2-[[3-(2-azanylethyl)-1H-indol-5-yl]oxy]-1-[4-(2-methylphenyl)piperazin-1-yl]ethanone

> <PUBCHEM_IUPAC_TRADITIONAL_NAME>
2-[[3-(2-aminoethyl)-1H-indol-5-yl]oxy]-1-[4-(o-tolyl)piperazino]ethanone

> <PUBCHEM_IUPAC_INCHI>
InChI=1S/C23H28N4O2/c1-17-4-2-3-5-22(17)26-10-12-27(13-11-26)23(28)16-29-19-6-7-21-20(14-19)18(8-9-24)15-25-21/h2-7,14-15,25H,8-13,16,24H2,1H3

> <PUBCHEM_IUPAC_INCHIKEY>
DWSOZYFSYVOVOC-UHFFFAOYSA-N

> <PUBCHEM_XLOGP3_AA>
2.8

> <PUBCHEM_EXACT_MASS>
392.22122615

> <PUBCHEM_MOLECULAR_FORMULA>
C23H28N4O2

> <PUBCHEM_MOLECULAR_WEIGHT>
392.5

> <PUBCHEM_OPENEYE_CAN_SMILES>
CC1=CC=CC=C1N2CCN(CC2)C(=O)COC3=CC4=C(C=C3)NC=C4CCN

> <PUBCHEM_OPENEYE_ISO_SMILES>
CC1=CC=CC=C1N2CCN(CC2)C(=O)COC3=CC4=C(C=C3)NC=C4CCN

> <PUBCHEM_CACTVS_TPSA>
74.6

> <PUBCHEM_MONOISOTOPIC_WEIGHT>
392.22122615

> <PUBCHEM_TOTAL_CHARGE>
0

> <PUBCHEM_HEAVY_ATOM_COUNT>
29

> <PUBCHEM_ATOM_DEF_STEREO_COUNT>
0

> <PUBCHEM_ATOM_UDEF_STEREO_COUNT>
0

> <PUBCHEM_BOND_DEF_STEREO_COUNT>
0

> <PUBCHEM_BOND_UDEF_STEREO_COUNT>
0

> <PUBCHEM_ISOTOPIC_ATOM_COUNT>
0

> <PUBCHEM_COMPONENT_COUNT>
1

> <PUBCHEM_CACTVS_TAUTO_COUNT>
-1

> <PUBCHEM_COORDINATE_TYPE>
1
5
255

> <PUBCHEM_BONDANNOTATIONS>
11  13  8
11  15  8
13  18  8
15  21  8
16  17  8
16  19  8
16  24  8
17  26  8
18  25  8
19  27  8
21  25  8
22  24  8
22  28  8
27  28  8
5  19  8
5  26  8

$$$$
