127027080
  -OEChem-09292322362D

 62 66  0     0  0  0  0  0  0999 V2000
    2.5118    1.4236    0.0000 O   0  0  0  0  0  0  0  0  0  0  0  0
   12.8700   -0.5173    0.0000 O   0  0  0  0  0  0  0  0  0  0  0  0
    7.6738    0.4827    0.0000 N   0  0  0  0  0  0  0  0  0  0  0  0
    5.9418   -0.5173    0.0000 N   0  0  0  0  0  0  0  0  0  0  0  0
    4.0005    0.4545    0.0000 N   0  0  0  0  0  0  0  0  0  0  0  0
    2.6067   -0.3502    0.0000 N   0  0  0  0  0  0  0  0  0  0  0  0
   12.0039    0.9827    0.0000 N   0  0  0  0  0  0  0  0  0  0  0  0
    6.8078    0.9827    0.0000 C   0  0  0  0  0  0  0  0  0  0  0  0
    7.6738   -0.5173    0.0000 C   0  0  0  0  0  0  0  0  0  0  0  0
    5.9418    0.4827    0.0000 C   0  0  0  0  0  0  0  0  0  0  0  0
    6.8078   -1.0173    0.0000 C   0  0  0  0  0  0  0  0  0  0  0  0
    8.5398    0.9827    0.0000 C   0  0  0  0  0  0  0  0  0  0  0  0
    9.4059    0.4827    0.0000 C   0  0  0  0  0  0  0  0  0  0  0  0
    5.0757   -1.0173    0.0000 C   0  0  0  0  0  0  0  0  0  0  0  0
   10.2719    0.9827    0.0000 C   0  0  0  0  0  0  0  0  0  0  0  0
    4.2097   -0.5173    0.0000 C   0  0  0  0  0  0  0  0  0  0  0  0
    5.0757   -2.0173    0.0000 C   0  0  0  0  0  0  0  0  0  0  0  0
    3.3437   -1.0173    0.0000 C   0  0  0  0  0  0  0  0  0  0  0  0
   11.1379    0.4827    0.0000 C   0  0  0  0  0  0  0  0  0  0  0  0
    4.2097   -2.5173    0.0000 C   0  0  0  0  0  0  0  0  0  0  0  0
    3.3437   -2.0173    0.0000 C   0  0  0  0  0  0  0  0  0  0  0  0
    3.0118    0.5575    0.0000 C   0  0  0  0  0  0  0  0  0  0  0  0
   12.8700    0.4827    0.0000 C   0  0  0  0  0  0  0  0  0  0  0  0
   13.7360    0.9827    0.0000 C   0  0  0  0  0  0  0  0  0  0  0  0
   14.6020    0.4827    0.0000 C   0  0  0  0  0  0  0  0  0  0  0  0
   15.4680    0.9827    0.0000 C   0  0  0  0  0  0  0  0  0  0  0  0
   13.7360    1.9827    0.0000 C   0  0  0  0  0  0  0  0  0  0  0  0
   15.4680    1.9827    0.0000 C   0  0  0  0  0  0  0  0  0  0  0  0
   14.6020    2.4827    0.0000 C   0  0  0  0  0  0  0  0  0  0  0  0
   16.3620    0.4480    0.0000 C   0  0  0  0  0  0  0  0  0  0  0  0
   16.3620    2.5173    0.0000 C   0  0  0  0  0  0  0  0  0  0  0  0
   17.2681    0.9619    0.0000 C   0  0  0  0  0  0  0  0  0  0  0  0
   17.2681    2.0035    0.0000 C   0  0  0  0  0  0  0  0  0  0  0  0
    7.2063    1.4576    0.0000 H   0  0  0  0  0  0  0  0  0  0  0  0
    6.4093    1.4576    0.0000 H   0  0  0  0  0  0  0  0  0  0  0  0
    7.8859   -1.0999    0.0000 H   0  0  0  0  0  0  0  0  0  0  0  0
    8.2844   -0.4097    0.0000 H   0  0  0  0  0  0  0  0  0  0  0  0
    5.7297    1.0653    0.0000 H   0  0  0  0  0  0  0  0  0  0  0  0
    5.3312    0.3750    0.0000 H   0  0  0  0  0  0  0  0  0  0  0  0
    6.4093   -1.4923    0.0000 H   0  0  0  0  0  0  0  0  0  0  0  0
    7.2063   -1.4923    0.0000 H   0  0  0  0  0  0  0  0  0  0  0  0
    8.9384    1.4576    0.0000 H   0  0  0  0  0  0  0  0  0  0  0  0
    8.1413    1.4576    0.0000 H   0  0  0  0  0  0  0  0  0  0  0  0
    9.0073    0.0077    0.0000 H   0  0  0  0  0  0  0  0  0  0  0  0
    9.8044    0.0077    0.0000 H   0  0  0  0  0  0  0  0  0  0  0  0
   10.6704    1.4576    0.0000 H   0  0  0  0  0  0  0  0  0  0  0  0
    9.8734    1.4576    0.0000 H   0  0  0  0  0  0  0  0  0  0  0  0
    5.6127   -2.3273    0.0000 H   0  0  0  0  0  0  0  0  0  0  0  0
   10.7394    0.0077    0.0000 H   0  0  0  0  0  0  0  0  0  0  0  0
   11.5364    0.0077    0.0000 H   0  0  0  0  0  0  0  0  0  0  0  0
    4.4146    0.9160    0.0000 H   0  0  0  0  0  0  0  0  0  0  0  0
    4.2097   -3.1373    0.0000 H   0  0  0  0  0  0  0  0  0  0  0  0
    2.8068   -2.3273    0.0000 H   0  0  0  0  0  0  0  0  0  0  0  0
    2.0000   -0.4781    0.0000 H   0  0  0  0  0  0  0  0  0  0  0  0
   12.0039    1.6027    0.0000 H   0  0  0  0  0  0  0  0  0  0  0  0
   14.6020   -0.1373    0.0000 H   0  0  0  0  0  0  0  0  0  0  0  0
   13.1991    2.2927    0.0000 H   0  0  0  0  0  0  0  0  0  0  0  0
   14.6020    3.1027    0.0000 H   0  0  0  0  0  0  0  0  0  0  0  0
   16.3548   -0.1720    0.0000 H   0  0  0  0  0  0  0  0  0  0  0  0
   16.3548    3.1373    0.0000 H   0  0  0  0  0  0  0  0  0  0  0  0
   17.8038    0.6498    0.0000 H   0  0  0  0  0  0  0  0  0  0  0  0
   17.8038    2.3156    0.0000 H   0  0  0  0  0  0  0  0  0  0  0  0
  1 22  2  0  0  0  0
  2 23  2  0  0  0  0
  3  8  1  0  0  0  0
  3  9  1  0  0  0  0
  3 12  1  0  0  0  0
  4 10  1  0  0  0  0
  4 11  1  0  0  0  0
  4 14  1  0  0  0  0
  5 16  1  0  0  0  0
  5 22  1  0  0  0  0
  5 51  1  0  0  0  0
  6 18  1  0  0  0  0
  6 22  1  0  0  0  0
  6 54  1  0  0  0  0
  7 19  1  0  0  0  0
  7 23  1  0  0  0  0
  7 55  1  0  0  0  0
  8 10  1  0  0  0  0
  8 34  1  0  0  0  0
  8 35  1  0  0  0  0
  9 11  1  0  0  0  0
  9 36  1  0  0  0  0
  9 37  1  0  0  0  0
 10 38  1  0  0  0  0
 10 39  1  0  0  0  0
 11 40  1  0  0  0  0
 11 41  1  0  0  0  0
 12 13  1  0  0  0  0
 12 42  1  0  0  0  0
 12 43  1  0  0  0  0
 13 15  1  0  0  0  0
 13 44  1  0  0  0  0
 13 45  1  0  0  0  0
 14 16  1  0  0  0  0
 14 17  2  0  0  0  0
 15 19  1  0  0  0  0
 15 46  1  0  0  0  0
 15 47  1  0  0  0  0
 16 18  2  0  0  0  0
 17 20  1  0  0  0  0
 17 48  1  0  0  0  0
 18 21  1  0  0  0  0
 19 49  1  0  0  0  0
 19 50  1  0  0  0  0
 20 21  2  0  0  0  0
 20 52  1  0  0  0  0
 21 53  1  0  0  0  0
 23 24  1  0  0  0  0
 24 25  2  0  0  0  0
 24 27  1  0  0  0  0
 25 26  1  0  0  0  0
 25 56  1  0  0  0  0
 26 28  1  0  0  0  0
 26 30  2  0  0  0  0
 27 29  2  0  0  0  0
 27 57  1  0  0  0  0
 28 29  1  0  0  0  0
 28 31  2  0  0  0  0
 29 58  1  0  0  0  0
 30 32  1  0  0  0  0
 30 59  1  0  0  0  0
 31 33  1  0  0  0  0
 31 60  1  0  0  0  0
 32 33  2  0  0  0  0
 32 61  1  0  0  0  0
 33 62  1  0  0  0  0
M  END
> <PUBCHEM_COMPOUND_CID>
127027080

> <PUBCHEM_COMPOUND_CANONICALIZED>
1

> <PUBCHEM_CACTVS_COMPLEXITY>
680

> <PUBCHEM_CACTVS_HBOND_ACCEPTOR>
4

> <PUBCHEM_CACTVS_HBOND_DONOR>
3

> <PUBCHEM_CACTVS_ROTATABLE_BOND>
7

> <PUBCHEM_CACTVS_SUBSKEYS>
AAADceB7sAAAAAAAAAAAAAAAAAAAAWAAAAA8YMEAAAAAAFjBVAAAHgAQAAAADAjBmAQxwMPAAACIAiVSUACCAAAlAgAIiIEIdMiIYDLA1dGUIQholgLIyacYiMCOwAACAAQQACCAAAQACCAAQAAAAAAAAA==

> <PUBCHEM_IUPAC_OPENEYE_NAME>
N-[4-[4-(2-oxo-1,3-dihydrobenzimidazol-4-yl)piperazin-1-yl]butyl]naphthalene-2-carboxamide

> <PUBCHEM_IUPAC_CAS_NAME>
N-[4-[4-(2-oxo-1,3-dihydrobenzimidazol-4-yl)-1-piperazinyl]butyl]-2-naphthalenecarboxamide

> <PUBCHEM_IUPAC_NAME_MARKUP>
<I>N</I>-[4-[4-(2-oxo-1,3-dihydrobenzimidazol-4-yl)piperazin-1-yl]butyl]naphthalene-2-carboxamide

> <PUBCHEM_IUPAC_NAME>
N-[4-[4-(2-oxo-1,3-dihydrobenzimidazol-4-yl)piperazin-1-yl]butyl]naphthalene-2-carboxamide

> <PUBCHEM_IUPAC_SYSTEMATIC_NAME>
N-[4-[4-(2-oxidanylidene-1,3-dihydrobenzimidazol-4-yl)piperazin-1-yl]butyl]naphthalene-2-carboxamide

> <PUBCHEM_IUPAC_TRADITIONAL_NAME>
N-[4-[4-(2-keto-1,3-dihydrobenzimidazol-4-yl)piperazino]butyl]-2-naphthamide

> <PUBCHEM_IUPAC_INCHI>
InChI=1S/C26H29N5O2/c32-25(21-11-10-19-6-1-2-7-20(19)18-21)27-12-3-4-13-30-14-16-31(17-15-30)23-9-5-8-22-24(23)29-26(33)28-22/h1-2,5-11,18H,3-4,12-17H2,(H,27,32)(H2,28,29,33)

> <PUBCHEM_IUPAC_INCHIKEY>
DCZHKWLSZWKCQB-UHFFFAOYSA-N

> <PUBCHEM_XLOGP3_AA>
3.4

> <PUBCHEM_EXACT_MASS>
443.23212518

> <PUBCHEM_MOLECULAR_FORMULA>
C26H29N5O2

> <PUBCHEM_MOLECULAR_WEIGHT>
443.5

> <PUBCHEM_OPENEYE_CAN_SMILES>
C1CN(CCN1CCCCNC(=O)C2=CC3=CC=CC=C3C=C2)C4=CC=CC5=C4NC(=O)N5

> <PUBCHEM_OPENEYE_ISO_SMILES>
C1CN(CCN1CCCCNC(=O)C2=CC3=CC=CC=C3C=C2)C4=CC=CC5=C4NC(=O)N5

> <PUBCHEM_CACTVS_TPSA>
76.7

> <PUBCHEM_MONOISOTOPIC_WEIGHT>
443.23212518

> <PUBCHEM_TOTAL_CHARGE>
0

> <PUBCHEM_HEAVY_ATOM_COUNT>
33

> <PUBCHEM_ATOM_DEF_STEREO_COUNT>
0

> <PUBCHEM_ATOM_UDEF_STEREO_COUNT>
0

> <PUBCHEM_BOND_DEF_STEREO_COUNT>
0

> <PUBCHEM_BOND_UDEF_STEREO_COUNT>
0

> <PUBCHEM_ISOTOPIC_ATOM_COUNT>
0

> <PUBCHEM_COMPONENT_COUNT>
1

> <PUBCHEM_CACTVS_TAUTO_COUNT>
-1

> <PUBCHEM_COORDINATE_TYPE>
1
5
255

> <PUBCHEM_BONDANNOTATIONS>
14  16  8
14  17  8
16  18  8
17  20  8
18  21  8
20  21  8
24  25  8
24  27  8
25  26  8
26  28  8
26  30  8
27  29  8
28  29  8
28  31  8
30  32  8
31  33  8
32  33  8
5  16  8
5  22  8
6  18  8
6  22  8

$$$$
