27039365
  -OEChem-09292322462D

 31 32  0     0  0  0  0  0  0999 V2000
    3.9538    1.3559    0.0000 S   0  0  0  0  0  0  0  0  0  0  0  0
    3.6750   -0.4042    0.0000 N   0  0  0  0  0  0  0  0  0  0  0  0
    2.0570   -0.4042    0.0000 N   0  0  0  0  0  0  0  0  0  0  0  0
    2.3660    0.5469    0.0000 N   0  0  0  0  0  0  0  0  0  0  0  0
    2.8660   -0.9920    0.0000 C   0  0  0  0  0  0  0  0  0  0  0  0
    3.3660    0.5469    0.0000 C   0  0  0  0  0  0  0  0  0  0  0  0
    2.8660   -1.9920    0.0000 C   0  0  0  0  0  0  0  0  0  0  0  0
    3.5471    2.2694    0.0000 C   0  0  0  0  0  0  0  0  0  0  0  0
    4.1349    3.0784    0.0000 C   0  0  0  0  0  0  0  0  0  0  0  0
    4.6261   -0.7132    0.0000 C   0  0  0  0  0  0  0  0  0  0  0  0
    3.7320   -2.4920    0.0000 C   0  0  0  0  0  0  0  0  0  0  0  0
    2.0000   -2.4920    0.0000 C   0  0  0  0  0  0  0  0  0  0  0  0
    3.7281    3.9920    0.0000 C   0  0  0  0  0  0  0  0  0  0  0  0
    3.7320   -3.4920    0.0000 C   0  0  0  0  0  0  0  0  0  0  0  0
    2.0000   -3.4920    0.0000 C   0  0  0  0  0  0  0  0  0  0  0  0
    2.8660   -3.9920    0.0000 C   0  0  0  0  0  0  0  0  0  0  0  0
    3.1164    2.7154    0.0000 H   0  0  0  0  0  0  0  0  0  0  0  0
    3.0331    1.9227    0.0000 H   0  0  0  0  0  0  0  0  0  0  0  0
    4.5656    2.6324    0.0000 H   0  0  0  0  0  0  0  0  0  0  0  0
    4.6489    3.4251    0.0000 H   0  0  0  0  0  0  0  0  0  0  0  0
    4.4345   -1.3029    0.0000 H   0  0  0  0  0  0  0  0  0  0  0  0
    5.2158   -0.9048    0.0000 H   0  0  0  0  0  0  0  0  0  0  0  0
    4.8177   -0.1236    0.0000 H   0  0  0  0  0  0  0  0  0  0  0  0
    4.2690   -2.1820    0.0000 H   0  0  0  0  0  0  0  0  0  0  0  0
    1.4631   -2.1820    0.0000 H   0  0  0  0  0  0  0  0  0  0  0  0
    4.2945    4.2442    0.0000 H   0  0  0  0  0  0  0  0  0  0  0  0
    3.4760    4.5584    0.0000 H   0  0  0  0  0  0  0  0  0  0  0  0
    3.1617    3.7398    0.0000 H   0  0  0  0  0  0  0  0  0  0  0  0
    4.2690   -3.8020    0.0000 H   0  0  0  0  0  0  0  0  0  0  0  0
    1.4631   -3.8020    0.0000 H   0  0  0  0  0  0  0  0  0  0  0  0
    2.8660   -4.6120    0.0000 H   0  0  0  0  0  0  0  0  0  0  0  0
  1  6  1  0  0  0  0
  1  8  1  0  0  0  0
  2  5  1  0  0  0  0
  2  6  1  0  0  0  0
  2 10  1  0  0  0  0
  3  4  1  0  0  0  0
  3  5  2  0  0  0  0
  4  6  2  0  0  0  0
  5  7  1  0  0  0  0
  7 11  2  0  0  0  0
  7 12  1  0  0  0  0
  8  9  1  0  0  0  0
  8 17  1  0  0  0  0
  8 18  1  0  0  0  0
  9 13  1  0  0  0  0
  9 19  1  0  0  0  0
  9 20  1  0  0  0  0
 10 21  1  0  0  0  0
 10 22  1  0  0  0  0
 10 23  1  0  0  0  0
 11 14  1  0  0  0  0
 11 24  1  0  0  0  0
 12 15  2  0  0  0  0
 12 25  1  0  0  0  0
 13 26  1  0  0  0  0
 13 27  1  0  0  0  0
 13 28  1  0  0  0  0
 14 16  2  0  0  0  0
 14 29  1  0  0  0  0
 15 16  1  0  0  0  0
 15 30  1  0  0  0  0
 16 31  1  0  0  0  0
M  END
> <PUBCHEM_COMPOUND_CID>
27039365

> <PUBCHEM_COMPOUND_CANONICALIZED>
1

> <PUBCHEM_CACTVS_COMPLEXITY>
206

> <PUBCHEM_CACTVS_HBOND_ACCEPTOR>
3

> <PUBCHEM_CACTVS_HBOND_DONOR>
0

> <PUBCHEM_CACTVS_ROTATABLE_BOND>
4

> <PUBCHEM_CACTVS_SUBSKEYS>
AAADccBzAABAAAAAAAAAAAAAAAAAAWAAAAAwAAAAAAAAAAABwAAAHAQIAAAADACFWwSzEIcMEAiiAiJiJACS0AtgALAdyCAoBJiIKKKgmRGEIAhgiAIIiAcQgAAOAAAAAAAAAAAAAAAAAAAAAAAAAAAAAA==

> <PUBCHEM_IUPAC_OPENEYE_NAME>
4-methyl-3-phenyl-5-propylsulfanyl-1,2,4-triazole

> <PUBCHEM_IUPAC_CAS_NAME>
4-methyl-3-phenyl-5-(propylthio)-1,2,4-triazole

> <PUBCHEM_IUPAC_NAME_MARKUP>
4-methyl-3-phenyl-5-propylsulfanyl-1,2,4-triazole

> <PUBCHEM_IUPAC_NAME>
4-methyl-3-phenyl-5-propylsulfanyl-1,2,4-triazole

> <PUBCHEM_IUPAC_SYSTEMATIC_NAME>
4-methyl-3-phenyl-5-propylsulfanyl-1,2,4-triazole

> <PUBCHEM_IUPAC_TRADITIONAL_NAME>
4-methyl-3-phenyl-5-(propylthio)-1,2,4-triazole

> <PUBCHEM_IUPAC_INCHI>
InChI=1S/C12H15N3S/c1-3-9-16-12-14-13-11(15(12)2)10-7-5-4-6-8-10/h4-8H,3,9H2,1-2H3

> <PUBCHEM_IUPAC_INCHIKEY>
CBFQPELWTJSDFA-UHFFFAOYSA-N

> <PUBCHEM_XLOGP3_AA>
2.8

> <PUBCHEM_EXACT_MASS>
233.09866866

> <PUBCHEM_MOLECULAR_FORMULA>
C12H15N3S

> <PUBCHEM_MOLECULAR_WEIGHT>
233.33

> <PUBCHEM_OPENEYE_CAN_SMILES>
CCCSC1=NN=C(N1C)C2=CC=CC=C2

> <PUBCHEM_OPENEYE_ISO_SMILES>
CCCSC1=NN=C(N1C)C2=CC=CC=C2

> <PUBCHEM_CACTVS_TPSA>
56

> <PUBCHEM_MONOISOTOPIC_WEIGHT>
233.09866866

> <PUBCHEM_TOTAL_CHARGE>
0

> <PUBCHEM_HEAVY_ATOM_COUNT>
16

> <PUBCHEM_ATOM_DEF_STEREO_COUNT>
0

> <PUBCHEM_ATOM_UDEF_STEREO_COUNT>
0

> <PUBCHEM_BOND_DEF_STEREO_COUNT>
0

> <PUBCHEM_BOND_UDEF_STEREO_COUNT>
0

> <PUBCHEM_ISOTOPIC_ATOM_COUNT>
0

> <PUBCHEM_COMPONENT_COUNT>
1

> <PUBCHEM_CACTVS_TAUTO_COUNT>
-1

> <PUBCHEM_COORDINATE_TYPE>
1
5
255

> <PUBCHEM_BONDANNOTATIONS>
11  14  8
12  15  8
14  16  8
15  16  8
2  5  8
2  6  8
3  4  8
3  5  8
4  6  8
7  11  8
7  12  8

$$$$
