164624917
  -OEChem-09292322022D

 64 67  0     1  0  0  0  0  0999 V2000
    4.5981   -4.7003    0.0000 O   0  0  0  0  0  0  0  0  0  0  0  0
    8.0622    0.2997    0.0000 N   0  0  0  0  0  0  0  0  0  0  0  0
    3.7320   -3.2003    0.0000 N   0  0  0  0  0  0  0  0  0  0  0  0
    2.8660   -4.7003    0.0000 N   0  0  0  0  0  0  0  0  0  0  0  0
    8.9282    1.7997    0.0000 C   0  0  3  0  0  0  0  0  0  0  0  0
    9.4282    2.6657    0.0000 C   0  0  3  0  0  0  0  0  0  0  0  0
    9.9282    1.7997    0.0000 C   0  0  0  0  0  0  0  0  0  0  0  0
    8.0622    1.2997    0.0000 C   0  0  0  0  0  0  0  0  0  0  0  0
    9.4282    3.6657    0.0000 C   0  0  0  0  0  0  0  0  0  0  0  0
    6.3301   -1.7003    0.0000 C   0  0  0  0  0  0  0  0  0  0  0  0
    7.1962   -1.2003    0.0000 C   0  0  0  0  0  0  0  0  0  0  0  0
    7.1962   -0.2003    0.0000 C   0  0  0  0  0  0  0  0  0  0  0  0
    6.3301   -2.7003    0.0000 C   0  0  0  0  0  0  0  0  0  0  0  0
    5.4641   -1.2003    0.0000 C   0  0  0  0  0  0  0  0  0  0  0  0
    4.5981   -2.7003    0.0000 C   0  0  0  0  0  0  0  0  0  0  0  0
   10.2942    4.1657    0.0000 C   0  0  0  0  0  0  0  0  0  0  0  0
    5.4641   -3.2003    0.0000 C   0  0  0  0  0  0  0  0  0  0  0  0
    4.5981   -1.7003    0.0000 C   0  0  0  0  0  0  0  0  0  0  0  0
    8.5622    4.1657    0.0000 C   0  0  0  0  0  0  0  0  0  0  0  0
   10.2942    5.1657    0.0000 C   0  0  0  0  0  0  0  0  0  0  0  0
    8.5622    5.1657    0.0000 C   0  0  0  0  0  0  0  0  0  0  0  0
   11.1882    3.6310    0.0000 C   0  0  0  0  0  0  0  0  0  0  0  0
    9.4282    5.6657    0.0000 C   0  0  0  0  0  0  0  0  0  0  0  0
   11.1882    5.7003    0.0000 C   0  0  0  0  0  0  0  0  0  0  0  0
   12.0942    4.1449    0.0000 C   0  0  0  0  0  0  0  0  0  0  0  0
    3.7320   -4.2003    0.0000 C   0  0  0  0  0  0  0  0  0  0  0  0
   12.0942    5.1865    0.0000 C   0  0  0  0  0  0  0  0  0  0  0  0
    2.8660   -5.7003    0.0000 C   0  0  0  0  0  0  0  0  0  0  0  0
    2.0000   -4.2003    0.0000 C   0  0  0  0  0  0  0  0  0  0  0  0
    9.0887    1.2008    0.0000 H   0  0  0  0  0  0  0  0  0  0  0  0
   10.0271    2.8262    0.0000 H   0  0  0  0  0  0  0  0  0  0  0  0
   10.0359    1.1891    0.0000 H   0  0  0  0  0  0  0  0  0  0  0  0
   10.5108    2.0117    0.0000 H   0  0  0  0  0  0  0  0  0  0  0  0
    7.8501    1.8823    0.0000 H   0  0  0  0  0  0  0  0  0  0  0  0
    7.4516    1.1920    0.0000 H   0  0  0  0  0  0  0  0  0  0  0  0
    6.8671   -2.0103    0.0000 H   0  0  0  0  0  0  0  0  0  0  0  0
    8.5991   -0.0103    0.0000 H   0  0  0  0  0  0  0  0  0  0  0  0
    7.4082   -1.7830    0.0000 H   0  0  0  0  0  0  0  0  0  0  0  0
    7.8067   -1.0927    0.0000 H   0  0  0  0  0  0  0  0  0  0  0  0
    6.9841    0.3823    0.0000 H   0  0  0  0  0  0  0  0  0  0  0  0
    6.5856   -0.3080    0.0000 H   0  0  0  0  0  0  0  0  0  0  0  0
    6.5422   -3.2830    0.0000 H   0  0  0  0  0  0  0  0  0  0  0  0
    6.9407   -2.5927    0.0000 H   0  0  0  0  0  0  0  0  0  0  0  0
    5.8626   -0.7254    0.0000 H   0  0  0  0  0  0  0  0  0  0  0  0
    5.0656   -0.7254    0.0000 H   0  0  0  0  0  0  0  0  0  0  0  0
    4.5981   -3.3203    0.0000 H   0  0  0  0  0  0  0  0  0  0  0  0
    5.0656   -3.6753    0.0000 H   0  0  0  0  0  0  0  0  0  0  0  0
    5.8626   -3.6753    0.0000 H   0  0  0  0  0  0  0  0  0  0  0  0
    4.3860   -1.1177    0.0000 H   0  0  0  0  0  0  0  0  0  0  0  0
    3.9875   -1.8080    0.0000 H   0  0  0  0  0  0  0  0  0  0  0  0
    8.0252    3.8557    0.0000 H   0  0  0  0  0  0  0  0  0  0  0  0
    8.0252    5.4757    0.0000 H   0  0  0  0  0  0  0  0  0  0  0  0
    3.1951   -2.8903    0.0000 H   0  0  0  0  0  0  0  0  0  0  0  0
   11.1810    3.0111    0.0000 H   0  0  0  0  0  0  0  0  0  0  0  0
    9.4282    6.2857    0.0000 H   0  0  0  0  0  0  0  0  0  0  0  0
   11.1810    6.3203    0.0000 H   0  0  0  0  0  0  0  0  0  0  0  0
   12.6300    3.8328    0.0000 H   0  0  0  0  0  0  0  0  0  0  0  0
   12.6300    5.4986    0.0000 H   0  0  0  0  0  0  0  0  0  0  0  0
    2.2460   -5.7003    0.0000 H   0  0  0  0  0  0  0  0  0  0  0  0
    2.8660   -6.3203    0.0000 H   0  0  0  0  0  0  0  0  0  0  0  0
    3.4860   -5.7003    0.0000 H   0  0  0  0  0  0  0  0  0  0  0  0
    2.3100   -3.6634    0.0000 H   0  0  0  0  0  0  0  0  0  0  0  0
    1.4631   -3.8903    0.0000 H   0  0  0  0  0  0  0  0  0  0  0  0
    1.6900   -4.7373    0.0000 H   0  0  0  0  0  0  0  0  0  0  0  0
  1 26  2  0  0  0  0
  2  8  1  0  0  0  0
  2 12  1  0  0  0  0
  2 37  1  0  0  0  0
  3 15  1  0  0  0  0
  3 26  1  0  0  0  0
  3 53  1  0  0  0  0
  4 26  1  0  0  0  0
  4 28  1  0  0  0  0
  4 29  1  0  0  0  0
  5  6  1  0  0  0  0
  5  7  1  0  0  0  0
  5  8  1  0  0  0  0
  5 30  1  0  0  0  0
  6  7  1  0  0  0  0
  6  9  1  0  0  0  0
  6 31  1  0  0  0  0
  7 32  1  0  0  0  0
  7 33  1  0  0  0  0
  8 34  1  0  0  0  0
  8 35  1  0  0  0  0
  9 16  1  0  0  0  0
  9 19  2  0  0  0  0
 10 11  1  0  0  0  0
 10 13  1  0  0  0  0
 10 14  1  0  0  0  0
 10 36  1  0  0  0  0
 11 12  1  0  0  0  0
 11 38  1  0  0  0  0
 11 39  1  0  0  0  0
 12 40  1  0  0  0  0
 12 41  1  0  0  0  0
 13 17  1  0  0  0  0
 13 42  1  0  0  0  0
 13 43  1  0  0  0  0
 14 18  1  0  0  0  0
 14 44  1  0  0  0  0
 14 45  1  0  0  0  0
 15 17  1  0  0  0  0
 15 18  1  0  0  0  0
 15 46  1  0  0  0  0
 16 20  1  0  0  0  0
 16 22  2  0  0  0  0
 17 47  1  0  0  0  0
 17 48  1  0  0  0  0
 18 49  1  0  0  0  0
 18 50  1  0  0  0  0
 19 21  1  0  0  0  0
 19 51  1  0  0  0  0
 20 23  1  0  0  0  0
 20 24  2  0  0  0  0
 21 23  2  0  0  0  0
 21 52  1  0  0  0  0
 22 25  1  0  0  0  0
 22 54  1  0  0  0  0
 23 55  1  0  0  0  0
 24 27  1  0  0  0  0
 24 56  1  0  0  0  0
 25 27  2  0  0  0  0
 25 57  1  0  0  0  0
 27 58  1  0  0  0  0
 28 59  1  0  0  0  0
 28 60  1  0  0  0  0
 28 61  1  0  0  0  0
 29 62  1  0  0  0  0
 29 63  1  0  0  0  0
 29 64  1  0  0  0  0
M  END
> <PUBCHEM_COMPOUND_CID>
164624917

> <PUBCHEM_COMPOUND_CANONICALIZED>
1

> <PUBCHEM_CACTVS_COMPLEXITY>
528

> <PUBCHEM_CACTVS_HBOND_ACCEPTOR>
2

> <PUBCHEM_CACTVS_HBOND_DONOR>
2

> <PUBCHEM_CACTVS_ROTATABLE_BOND>
7

> <PUBCHEM_CACTVS_SUBSKEYS>
AAADcfB7IAAAAAAAAAAAAAAAGAAAAAAAAAAwYMAAAAAAAADBUAAAHgAQAAAADSjBGAQzAMPAAACIAiBCEAACAAAgAAAIiIAIAIiIICKAkRCEIAAolgKIiAcQgMAOgAACAAAQAAAQAAQAACAAAAAAAAAAAA==

> <PUBCHEM_IUPAC_OPENEYE_NAME>
1,1-dimethyl-3-[4-[2-[[2-(1-naphthyl)cyclopropyl]methylamino]ethyl]cyclohexyl]urea

> <PUBCHEM_IUPAC_CAS_NAME>
1,1-dimethyl-3-[4-[2-[[2-(1-naphthalenyl)cyclopropyl]methylamino]ethyl]cyclohexyl]urea

> <PUBCHEM_IUPAC_NAME_MARKUP>
1,1-dimethyl-3-[4-[2-[(2-naphthalen-1-ylcyclopropyl)methylamino]ethyl]cyclohexyl]urea

> <PUBCHEM_IUPAC_NAME>
1,1-dimethyl-3-[4-[2-[(2-naphthalen-1-ylcyclopropyl)methylamino]ethyl]cyclohexyl]urea

> <PUBCHEM_IUPAC_SYSTEMATIC_NAME>
1,1-dimethyl-3-[4-[2-[(2-naphthalen-1-ylcyclopropyl)methylamino]ethyl]cyclohexyl]urea

> <PUBCHEM_IUPAC_TRADITIONAL_NAME>
1,1-dimethyl-3-[4-[2-[[2-(1-naphthyl)cyclopropyl]methylamino]ethyl]cyclohexyl]urea

> <PUBCHEM_IUPAC_INCHI>
InChI=1S/C25H35N3O/c1-28(2)25(29)27-21-12-10-18(11-13-21)14-15-26-17-20-16-24(20)23-9-5-7-19-6-3-4-8-22(19)23/h3-9,18,20-21,24,26H,10-17H2,1-2H3,(H,27,29)

> <PUBCHEM_IUPAC_INCHIKEY>
IHASGYIIIJIUCC-UHFFFAOYSA-N

> <PUBCHEM_XLOGP3_AA>
4.4

> <PUBCHEM_EXACT_MASS>
393.278012748

> <PUBCHEM_MOLECULAR_FORMULA>
C25H35N3O

> <PUBCHEM_MOLECULAR_WEIGHT>
393.6

> <PUBCHEM_OPENEYE_CAN_SMILES>
CN(C)C(=O)NC1CCC(CC1)CCNCC2CC2C3=CC=CC4=CC=CC=C43

> <PUBCHEM_OPENEYE_ISO_SMILES>
CN(C)C(=O)NC1CCC(CC1)CCNCC2CC2C3=CC=CC4=CC=CC=C43

> <PUBCHEM_CACTVS_TPSA>
44.4

> <PUBCHEM_MONOISOTOPIC_WEIGHT>
393.278012748

> <PUBCHEM_TOTAL_CHARGE>
0

> <PUBCHEM_HEAVY_ATOM_COUNT>
29

> <PUBCHEM_ATOM_DEF_STEREO_COUNT>
0

> <PUBCHEM_ATOM_UDEF_STEREO_COUNT>
2

> <PUBCHEM_BOND_DEF_STEREO_COUNT>
0

> <PUBCHEM_BOND_UDEF_STEREO_COUNT>
0

> <PUBCHEM_ISOTOPIC_ATOM_COUNT>
0

> <PUBCHEM_COMPONENT_COUNT>
1

> <PUBCHEM_CACTVS_TAUTO_COUNT>
-1

> <PUBCHEM_COORDINATE_TYPE>
1
5
255

> <PUBCHEM_BONDANNOTATIONS>
16  20  8
16  22  8
19  21  8
20  23  8
20  24  8
21  23  8
22  25  8
24  27  8
25  27  8
5  8  3
6  9  3
9  16  8
9  19  8

$$$$
