90656855
  -OEChem-09292322352D

317324  0     1  0  0  0  0  0999 V2000
   24.1646   13.8672    0.0000 S   0  0  0  0  0  0  0  0  0  0  0  0
   10.2220  -13.1727    0.0000 O   0  0  0  0  0  0  0  0  0  0  0  0
   10.9457  -16.0273    0.0000 O   0  0  0  0  0  0  0  0  0  0  0  0
   28.6235   17.8820    0.0000 O   0  0  0  0  0  0  0  0  0  0  0  0
    9.4789  -12.5036    0.0000 O   0  0  0  0  0  0  0  0  0  0  0  0
   27.4645   19.1692    0.0000 O   0  0  0  0  0  0  0  0  0  0  0  0
    8.3476  -13.5273    0.0000 O   0  0  0  0  0  0  0  0  0  0  0  0
   25.5624   19.7872    0.0000 O   0  0  0  0  0  0  0  0  0  0  0  0
    7.4574   -9.5180    0.0000 O   0  0  0  0  0  0  0  0  0  0  0  0
   13.1637   -7.6639    0.0000 O   0  0  0  0  0  0  0  0  0  0  0  0
    4.7495  -14.5273    0.0000 O   0  0  0  0  0  0  0  0  0  0  0  0
    5.6155  -16.0273    0.0000 O   0  0  0  0  0  0  0  0  0  0  0  0
    9.0321   -6.2746    0.0000 O   0  0  0  0  0  0  0  0  0  0  0  0
   24.3920   11.7036    0.0000 O   0  0  0  0  0  0  0  0  0  0  0  0
   20.9488   12.4355    0.0000 O   0  0  0  0  0  0  0  0  0  0  0  0
    9.2400   -5.2964    0.0000 O   0  0  0  0  0  0  0  0  0  0  0  0
    8.0502    1.6017    0.0000 O   0  0  0  0  0  0  0  0  0  0  0  0
    2.2669    5.8109    0.0000 O   0  0  0  0  0  0  0  0  0  0  0  0
   11.0377    4.9521    0.0000 O   0  0  0  0  0  0  0  0  0  0  0  0
    5.9626    9.1541    0.0000 O   0  0  0  0  0  0  0  0  0  0  0  0
    3.8302    6.5565    0.0000 O   0  0  0  0  0  0  0  0  0  0  0  0
    9.9128    6.2692    0.0000 O   0  0  0  0  0  0  0  0  0  0  0  0
    7.5058    8.3677    0.0000 O   0  0  0  0  0  0  0  0  0  0  0  0
    9.1206   -1.6928    0.0000 O   0  0  0  0  0  0  0  0  0  0  0  0
   11.9738   -0.7658    0.0000 O   0  0  0  0  0  0  0  0  0  0  0  0
   18.3924    8.6045    0.0000 O   0  0  0  0  0  0  0  0  0  0  0  0
   16.8176    5.3610    0.0000 O   0  0  0  0  0  0  0  0  0  0  0  0
   13.3407    1.4995    0.0000 O   0  0  0  0  0  0  0  0  0  0  0  0
   15.4507    3.0957    0.0000 O   0  0  0  0  0  0  0  0  0  0  0  0
   28.5781   14.2044    0.0000 N   0  0  3  0  0  0  0  0  0  0  0  0
   11.9162  -13.5328    0.0000 N   0  0  0  0  0  0  0  0  0  0  0  0
   28.0882   16.2347    0.0000 N   0  0  0  0  0  0  0  0  0  0  0  0
   10.0796  -14.5273    0.0000 N   0  0  0  0  0  0  0  0  0  0  0  0
   10.6378  -11.2164    0.0000 N   0  0  0  0  0  0  0  0  0  0  0  0
    9.1516   -9.8781    0.0000 N   0  0  0  0  0  0  0  0  0  0  0  0
    7.3476  -15.0273    0.0000 N   0  0  0  0  0  0  0  0  0  0  0  0
    7.4816  -18.0273    0.0000 N   0  0  0  0  0  0  0  0  0  0  0  0
    7.8732   -7.5617    0.0000 N   0  0  0  0  0  0  0  0  0  0  0  0
    5.5110  -12.0328    0.0000 N   0  0  0  0  0  0  0  0  0  0  0  0
    6.5639    2.9400    0.0000 N   0  0  0  0  0  0  0  0  0  0  0  0
   22.6124   11.7968    0.0000 N   0  0  0  0  0  0  0  0  0  0  0  0
    4.6913    4.7514    0.0000 N   0  0  3  0  0  0  0  0  0  0  0  0
    8.3920    4.9703    0.0000 N   0  0  3  0  0  0  0  0  0  0  0  0
    6.5979    6.5857    0.0000 N   0  0  0  0  0  0  0  0  0  0  0  0
    6.6155  -19.5273    0.0000 N   0  0  0  0  0  0  0  0  0  0  0  0
    7.5458   -4.9363    0.0000 N   0  0  0  0  0  0  0  0  0  0  0  0
    8.3476  -19.5273    0.0000 N   0  0  0  0  0  0  0  0  0  0  0  0
    4.0329  -12.6909    0.0000 N   0  0  0  0  0  0  0  0  0  0  0  0
    6.8912    0.3146    0.0000 N   0  0  0  0  0  0  0  0  0  0  0  0
    9.6559   -3.3401    0.0000 N   0  0  0  0  0  0  0  0  0  0  0  0
    4.6656   -5.7622    0.0000 N   0  0  0  0  0  0  0  0  0  0  0  0
    4.8347   -4.1531    0.0000 N   0  0  0  0  0  0  0  0  0  0  0  0
   18.9276    6.9572    0.0000 N   0  0  0  0  0  0  0  0  0  0  0  0
   29.2472   14.9476    0.0000 C   0  0  1  0  0  0  0  0  0  0  0  0
   30.1607   14.5408    0.0000 C   0  0  0  0  0  0  0  0  0  0  0  0
   30.0562   13.5463    0.0000 C   0  0  0  0  0  0  0  0  0  0  0  0
   29.0781   13.3384    0.0000 C   0  0  0  0  0  0  0  0  0  0  0  0
   29.0393   15.9257    0.0000 C   0  0  0  0  0  0  0  0  0  0  0  0
   27.5835   14.3090    0.0000 C   0  0  0  0  0  0  0  0  0  0  0  0
   11.8117  -14.5273    0.0000 C   0  0  1  0  0  0  0  0  0  0  0  0
   12.7252  -14.9341    0.0000 C   0  0  0  0  0  0  0  0  0  0  0  0
   13.3944  -14.1909    0.0000 C   0  0  0  0  0  0  0  0  0  0  0  0
   12.8944  -13.3249    0.0000 C   0  0  0  0  0  0  0  0  0  0  0  0
   26.9958   13.4999    0.0000 C   0  0  0  0  0  0  0  0  0  0  0  0
   11.1731  -12.8637    0.0000 C   0  0  0  0  0  0  0  0  0  0  0  0
   10.9457  -15.0273    0.0000 C   0  0  0  0  0  0  0  0  0  0  0  0
   11.3810  -11.8855    0.0000 C   0  0  2  0  0  0  0  0  0  0  0  0
   27.8803   17.2129    0.0000 C   0  0  0  0  0  0  0  0  0  0  0  0
   12.3320  -11.5765    0.0000 C   0  0  0  0  0  0  0  0  0  0  0  0
    9.2136  -15.0273    0.0000 C   0  0  1  0  0  0  0  0  0  0  0  0
   27.4025   12.5864    0.0000 C   0  0  0  0  0  0  0  0  0  0  0  0
   26.9293   17.5219    0.0000 C   0  0  0  0  0  0  0  0  0  0  0  0
    9.2136  -16.0273    0.0000 C   0  0  0  0  0  0  0  0  0  0  0  0
    8.9436  -10.8563    0.0000 C   0  0  2  0  0  0  0  0  0  0  0  0
    9.6868  -11.5254    0.0000 C   0  0  0  0  0  0  0  0  0  0  0  0
    7.9926  -11.1653    0.0000 C   0  0  2  0  0  0  0  0  0  0  0  0
   12.5400  -10.5984    0.0000 C   0  0  0  0  0  0  0  0  0  0  0  0
    8.3476  -14.5273    0.0000 C   0  0  0  0  0  0  0  0  0  0  0  0
    8.3476  -16.5273    0.0000 C   0  0  0  0  0  0  0  0  0  0  0  0
   26.1861   16.8528    0.0000 C   0  0  0  0  0  0  0  0  0  0  0  0
   26.7214   18.5000    0.0000 C   0  0  0  0  0  0  0  0  0  0  0  0
    7.2494  -10.4962    0.0000 C   0  0  0  0  0  0  0  0  0  0  0  0
   25.2351   17.1618    0.0000 C   0  0  0  0  0  0  0  0  0  0  0  0
    7.7847  -12.1434    0.0000 C   0  0  0  0  0  0  0  0  0  0  0  0
    8.3476  -17.5273    0.0000 C   0  0  0  0  0  0  0  0  0  0  0  0
   11.7968   -9.9292    0.0000 C   0  0  0  0  0  0  0  0  0  0  0  0
   13.4910  -10.2893    0.0000 C   0  0  0  0  0  0  0  0  0  0  0  0
   25.7703   18.8091    0.0000 C   0  0  0  0  0  0  0  0  0  0  0  0
   25.0272   18.1399    0.0000 C   0  0  0  0  0  0  0  0  0  0  0  0
    6.4816  -14.5273    0.0000 C   0  0  1  0  0  0  0  0  0  0  0  0
   24.4919   16.4927    0.0000 C   0  0  0  0  0  0  0  0  0  0  0  0
    6.2984  -10.8052    0.0000 C   0  0  0  0  0  0  0  0  0  0  0  0
    8.4084   -9.2090    0.0000 C   0  0  0  0  0  0  0  0  0  0  0  0
   12.0047   -8.9511    0.0000 C   0  0  0  0  0  0  0  0  0  0  0  0
   13.6989   -9.3112    0.0000 C   0  0  0  0  0  0  0  0  0  0  0  0
   24.6998   15.5145    0.0000 C   0  0  0  0  0  0  0  0  0  0  0  0
    8.6163   -8.2309    0.0000 C   0  0  2  0  0  0  0  0  0  0  0  0
    6.4816  -13.5273    0.0000 C   0  0  0  0  0  0  0  0  0  0  0  0
   12.9558   -8.6421    0.0000 C   0  0  0  0  0  0  0  0  0  0  0  0
    5.6155  -15.0273    0.0000 C   0  0  0  0  0  0  0  0  0  0  0  0
   23.9567   14.8454    0.0000 C   0  0  0  0  0  0  0  0  0  0  0  0
   27.2566   20.1473    0.0000 C   0  0  0  0  0  0  0  0  0  0  0  0
    5.6155  -13.0273    0.0000 C   0  0  0  0  0  0  0  0  0  0  0  0
    9.5674   -7.9218    0.0000 C   0  0  0  0  0  0  0  0  0  0  0  0
    7.4816  -19.0273    0.0000 C   0  0  0  0  0  0  0  0  0  0  0  0
   23.4215   13.1981    0.0000 C   0  0  3  0  0  0  0  0  0  0  0  0
   24.6113   20.0962    0.0000 C   0  0  0  0  0  0  0  0  0  0  0  0
    8.0811   -6.5836    0.0000 C   0  0  0  0  0  0  0  0  0  0  0  0
    7.3379   -5.9145    0.0000 C   0  0  2  0  0  0  0  0  0  0  0  0
    4.7020  -13.4341    0.0000 C   0  0  0  0  0  0  0  0  0  0  0  0
   22.4433   13.4060    0.0000 C   0  0  0  0  0  0  0  0  0  0  0  0
   23.5260   12.2036    0.0000 C   0  0  0  0  0  0  0  0  0  0  0  0
    5.8207    3.6091    0.0000 C   0  0  0  0  0  0  0  0  0  0  0  0
    7.5149    3.2490    0.0000 C   0  0  0  0  0  0  0  0  0  0  0  0
    5.0003    3.8003    0.0000 C   0  0  0  0  0  0  0  0  0  0  0  0
    7.7228    4.2271    0.0000 C   0  0  0  0  0  0  0  0  0  0  0  0
    5.1452    5.6424    0.0000 C   0  0  0  0  0  0  0  0  0  0  0  0
    8.3396    5.9689    0.0000 C   0  0  0  0  0  0  0  0  0  0  0  0
    6.1439    5.6947    0.0000 C   0  0  0  0  0  0  0  0  0  0  0  0
    7.5965    6.6380    0.0000 C   0  0  0  0  0  0  0  0  0  0  0  0
    6.3869   -6.2235    0.0000 C   0  0  0  0  0  0  0  0  0  0  0  0
   21.9433   12.5400    0.0000 C   0  0  0  0  0  0  0  0  0  0  0  0
    4.5329  -11.8249    0.0000 C   0  0  0  0  0  0  0  0  0  0  0  0
   22.4045   10.8187    0.0000 C   0  0  0  0  0  0  0  0  0  0  0  0
    6.3560    1.9618    0.0000 C   0  0  0  0  0  0  0  0  0  0  0  0
    8.7048   -3.6491    0.0000 C   0  0  2  0  0  0  0  0  0  0  0  0
    3.6944    4.8298    0.0000 C   0  0  0  0  0  0  0  0  0  0  0  0
    9.3346    4.6365    0.0000 C   0  0  0  0  0  0  0  0  0  0  0  0
    6.0532    7.4244    0.0000 C   0  0  0  0  0  0  0  0  0  0  0  0
   21.4535   10.5097    0.0000 C   0  0  0  0  0  0  0  0  0  0  0  0
    8.4969   -4.6273    0.0000 C   0  0  0  0  0  0  0  0  0  0  0  0
    7.9617   -2.9800    0.0000 C   0  0  0  0  0  0  0  0  0  0  0  0
    5.6437   -5.5543    0.0000 C   0  0  0  0  0  0  0  0  0  0  0  0
    8.1696   -2.0019    0.0000 C   0  0  0  0  0  0  0  0  0  0  0  0
    7.4264   -1.3327    0.0000 C   0  0  0  0  0  0  0  0  0  0  0  0
    7.0991    1.2927    0.0000 C   0  0  0  0  0  0  0  0  0  0  0  0
   21.2456    9.5315    0.0000 C   0  0  0  0  0  0  0  0  0  0  0  0
    7.6344   -0.3546    0.0000 C   0  0  0  0  0  0  0  0  0  0  0  0
   20.2945    9.2225    0.0000 C   0  0  0  0  0  0  0  0  0  0  0  0
    3.2638    5.7324    0.0000 C   0  0  0  0  0  0  0  0  0  0  0  0
   10.0950    5.2859    0.0000 C   0  0  0  0  0  0  0  0  0  0  0  0
    6.5072    8.3154    0.0000 C   0  0  0  0  0  0  0  0  0  0  0  0
    5.7483   -4.5598    0.0000 C   0  0  0  0  0  0  0  0  0  0  0  0
   20.0866    8.2444    0.0000 C   0  0  0  0  0  0  0  0  0  0  0  0
    9.8638   -2.3620    0.0000 C   0  0  0  0  0  0  0  0  0  0  0  0
    4.1656   -4.8962    0.0000 C   0  0  0  0  0  0  0  0  0  0  0  0
   10.8148   -2.0530    0.0000 C   0  0  0  0  0  0  0  0  0  0  0  0
   19.1355    7.9354    0.0000 C   0  0  0  0  0  0  0  0  0  0  0  0
   11.0228   -1.0748    0.0000 C   0  0  0  0  0  0  0  0  0  0  0  0
   17.9766    6.6482    0.0000 C   0  0  0  0  0  0  0  0  0  0  0  0
   12.1817    0.2124    0.0000 C   0  0  0  0  0  0  0  0  0  0  0  0
   17.7687    5.6700    0.0000 C   0  0  0  0  0  0  0  0  0  0  0  0
   13.1328    0.5214    0.0000 C   0  0  0  0  0  0  0  0  0  0  0  0
   16.6097    4.3829    0.0000 C   0  0  0  0  0  0  0  0  0  0  0  0
   14.2917    1.8085    0.0000 C   0  0  0  0  0  0  0  0  0  0  0  0
   15.6586    4.0738    0.0000 C   0  0  0  0  0  0  0  0  0  0  0  0
   14.4997    2.7867    0.0000 C   0  0  0  0  0  0  0  0  0  0  0  0
   28.6483   15.1080    0.0000 H   0  0  0  0  0  0  0  0  0  0  0  0
   30.7672   14.4119    0.0000 H   0  0  0  0  0  0  0  0  0  0  0  0
   30.3523   15.1305    0.0000 H   0  0  0  0  0  0  0  0  0  0  0  0
   30.1210   12.9297    0.0000 H   0  0  0  0  0  0  0  0  0  0  0  0
   30.6762   13.5463    0.0000 H   0  0  0  0  0  0  0  0  0  0  0  0
   28.5117   13.0862    0.0000 H   0  0  0  0  0  0  0  0  0  0  0  0
   29.2697   12.7487    0.0000 H   0  0  0  0  0  0  0  0  0  0  0  0
   29.6589   15.9474    0.0000 H   0  0  0  0  0  0  0  0  0  0  0  0
   29.1256   16.5397    0.0000 H   0  0  0  0  0  0  0  0  0  0  0  0
   27.7544   14.9049    0.0000 H   0  0  0  0  0  0  0  0  0  0  0  0
   27.0263   14.5807    0.0000 H   0  0  0  0  0  0  0  0  0  0  0  0
   11.2917  -14.1896    0.0000 H   0  0  0  0  0  0  0  0  0  0  0  0
   12.4152  -15.4710    0.0000 H   0  0  0  0  0  0  0  0  0  0  0  0
   13.2268  -15.2985    0.0000 H   0  0  0  0  0  0  0  0  0  0  0  0
   13.8092  -14.6517    0.0000 H   0  0  0  0  0  0  0  0  0  0  0  0
   13.8960  -13.8265    0.0000 H   0  0  0  0  0  0  0  0  0  0  0  0
   13.4608  -13.0727    0.0000 H   0  0  0  0  0  0  0  0  0  0  0  0
   12.7028  -12.7352    0.0000 H   0  0  0  0  0  0  0  0  0  0  0  0
   27.6275   15.8199    0.0000 H   0  0  0  0  0  0  0  0  0  0  0  0
   26.3792   13.5647    0.0000 H   0  0  0  0  0  0  0  0  0  0  0  0
   11.5099  -11.2791    0.0000 H   0  0  0  0  0  0  0  0  0  0  0  0
   10.0796  -13.9073    0.0000 H   0  0  0  0  0  0  0  0  0  0  0  0
   12.4183  -12.1905    0.0000 H   0  0  0  0  0  0  0  0  0  0  0  0
   12.9517  -11.5981    0.0000 H   0  0  0  0  0  0  0  0  0  0  0  0
    9.7506  -15.3373    0.0000 H   0  0  0  0  0  0  0  0  0  0  0  0
   10.7667  -10.6099    0.0000 H   0  0  0  0  0  0  0  0  0  0  0  0
   27.0381   12.0848    0.0000 H   0  0  0  0  0  0  0  0  0  0  0  0
   28.0191   12.5216    0.0000 H   0  0  0  0  0  0  0  0  0  0  0  0
    9.4257  -16.6099    0.0000 H   0  0  0  0  0  0  0  0  0  0  0  0
    9.8242  -15.9197    0.0000 H   0  0  0  0  0  0  0  0  0  0  0  0
    9.5333  -10.6647    0.0000 H   0  0  0  0  0  0  0  0  0  0  0  0
    7.4029  -11.3569    0.0000 H   0  0  0  0  0  0  0  0  0  0  0  0
    8.1355  -15.9447    0.0000 H   0  0  0  0  0  0  0  0  0  0  0  0
    7.7370  -16.6350    0.0000 H   0  0  0  0  0  0  0  0  0  0  0  0
   26.3150   16.2463    0.0000 H   0  0  0  0  0  0  0  0  0  0  0  0
    7.7380  -10.1145    0.0000 H   0  0  0  0  0  0  0  0  0  0  0  0
    6.9584   -9.9487    0.0000 H   0  0  0  0  0  0  0  0  0  0  0  0
    9.7412   -9.6865    0.0000 H   0  0  0  0  0  0  0  0  0  0  0  0
    7.1782  -12.0145    0.0000 H   0  0  0  0  0  0  0  0  0  0  0  0
    7.6558  -12.7499    0.0000 H   0  0  0  0  0  0  0  0  0  0  0  0
    8.3911  -12.2724    0.0000 H   0  0  0  0  0  0  0  0  0  0  0  0
    8.5596  -18.1099    0.0000 H   0  0  0  0  0  0  0  0  0  0  0  0
    8.9582  -17.4197    0.0000 H   0  0  0  0  0  0  0  0  0  0  0  0
   11.2072  -10.1208    0.0000 H   0  0  0  0  0  0  0  0  0  0  0  0
   13.9518  -10.7042    0.0000 H   0  0  0  0  0  0  0  0  0  0  0  0
    7.8845  -15.3373    0.0000 H   0  0  0  0  0  0  0  0  0  0  0  0
   24.4375   18.3315    0.0000 H   0  0  0  0  0  0  0  0  0  0  0  0
    6.4816  -15.1473    0.0000 H   0  0  0  0  0  0  0  0  0  0  0  0
   24.1634   17.0184    0.0000 H   0  0  0  0  0  0  0  0  0  0  0  0
   23.9171   16.2604    0.0000 H   0  0  0  0  0  0  0  0  0  0  0  0
    6.1068  -10.2155    0.0000 H   0  0  0  0  0  0  0  0  0  0  0  0
    5.7087  -10.9968    0.0000 H   0  0  0  0  0  0  0  0  0  0  0  0
    6.4900  -11.3948    0.0000 H   0  0  0  0  0  0  0  0  0  0  0  0
   11.5440   -8.5362    0.0000 H   0  0  0  0  0  0  0  0  0  0  0  0
   14.2886   -9.1196    0.0000 H   0  0  0  0  0  0  0  0  0  0  0  0
   25.0284   14.9887    0.0000 H   0  0  0  0  0  0  0  0  0  0  0  0
   25.2747   15.7468    0.0000 H   0  0  0  0  0  0  0  0  0  0  0  0
    8.0267   -8.4224    0.0000 H   0  0  0  0  0  0  0  0  0  0  0  0
    7.0921  -13.6350    0.0000 H   0  0  0  0  0  0  0  0  0  0  0  0
    6.6936  -12.9447    0.0000 H   0  0  0  0  0  0  0  0  0  0  0  0
    6.9446  -17.7173    0.0000 H   0  0  0  0  0  0  0  0  0  0  0  0
   23.6281   15.3712    0.0000 H   0  0  0  0  0  0  0  0  0  0  0  0
   23.3818   14.6131    0.0000 H   0  0  0  0  0  0  0  0  0  0  0  0
   27.8630   20.2762    0.0000 H   0  0  0  0  0  0  0  0  0  0  0  0
   27.1277   20.7538    0.0000 H   0  0  0  0  0  0  0  0  0  0  0  0
   26.6501   20.0184    0.0000 H   0  0  0  0  0  0  0  0  0  0  0  0
    9.7590   -8.5115    0.0000 H   0  0  0  0  0  0  0  0  0  0  0  0
   10.1570   -7.7302    0.0000 H   0  0  0  0  0  0  0  0  0  0  0  0
    9.3758   -7.3322    0.0000 H   0  0  0  0  0  0  0  0  0  0  0  0
    7.2835   -7.7533    0.0000 H   0  0  0  0  0  0  0  0  0  0  0  0
   24.0003   12.9759    0.0000 H   0  0  0  0  0  0  0  0  0  0  0  0
   24.8029   20.6859    0.0000 H   0  0  0  0  0  0  0  0  0  0  0  0
   24.0217   20.2878    0.0000 H   0  0  0  0  0  0  0  0  0  0  0  0
   24.4197   19.5066    0.0000 H   0  0  0  0  0  0  0  0  0  0  0  0
   13.7533   -7.4723    0.0000 H   0  0  0  0  0  0  0  0  0  0  0  0
    6.8772   -5.4996    0.0000 H   0  0  0  0  0  0  0  0  0  0  0  0
    5.9718  -11.6179    0.0000 H   0  0  0  0  0  0  0  0  0  0  0  0
    4.5731  -14.0405    0.0000 H   0  0  0  0  0  0  0  0  0  0  0  0
   22.6349   13.9957    0.0000 H   0  0  0  0  0  0  0  0  0  0  0  0
   21.8769   13.6582    0.0000 H   0  0  0  0  0  0  0  0  0  0  0  0
    4.2126  -14.8373    0.0000 H   0  0  0  0  0  0  0  0  0  0  0  0
    6.3700    3.8966    0.0000 H   0  0  0  0  0  0  0  0  0  0  0  0
    5.5339    3.0595    0.0000 H   0  0  0  0  0  0  0  0  0  0  0  0
    7.6012    2.6350    0.0000 H   0  0  0  0  0  0  0  0  0  0  0  0
    8.1346    3.2274    0.0000 H   0  0  0  0  0  0  0  0  0  0  0  0
    4.3858    3.7180    0.0000 H   0  0  0  0  0  0  0  0  0  0  0  0
    4.9706    3.1810    0.0000 H   0  0  0  0  0  0  0  0  0  0  0  0
    7.4318    4.7746    0.0000 H   0  0  0  0  0  0  0  0  0  0  0  0
    8.2753    3.9457    0.0000 H   0  0  0  0  0  0  0  0  0  0  0  0
    5.2208    6.2578    0.0000 H   0  0  0  0  0  0  0  0  0  0  0  0
    4.5523    5.8236    0.0000 H   0  0  0  0  0  0  0  0  0  0  0  0
    8.9461    5.8400    0.0000 H   0  0  0  0  0  0  0  0  0  0  0  0
    8.6211    6.5213    0.0000 H   0  0  0  0  0  0  0  0  0  0  0  0
    6.0683    5.0793    0.0000 H   0  0  0  0  0  0  0  0  0  0  0  0
    6.7368    5.5134    0.0000 H   0  0  0  0  0  0  0  0  0  0  0  0
    8.1165    6.9757    0.0000 H   0  0  0  0  0  0  0  0  0  0  0  0
    7.4049    7.2277    0.0000 H   0  0  0  0  0  0  0  0  0  0  0  0
    5.8983   -6.6052    0.0000 H   0  0  0  0  0  0  0  0  0  0  0  0
    6.6780   -6.7709    0.0000 H   0  0  0  0  0  0  0  0  0  0  0  0
    6.6155  -20.1473    0.0000 H   0  0  0  0  0  0  0  0  0  0  0  0
    6.0786  -19.2173    0.0000 H   0  0  0  0  0  0  0  0  0  0  0  0
    4.2807  -11.2585    0.0000 H   0  0  0  0  0  0  0  0  0  0  0  0
    7.0851   -4.5214    0.0000 H   0  0  0  0  0  0  0  0  0  0  0  0
   22.4908   10.2047    0.0000 H   0  0  0  0  0  0  0  0  0  0  0  0
   23.0241   10.7971    0.0000 H   0  0  0  0  0  0  0  0  0  0  0  0
    5.7811    2.1941    0.0000 H   0  0  0  0  0  0  0  0  0  0  0  0
    6.0274    1.4360    0.0000 H   0  0  0  0  0  0  0  0  0  0  0  0
    8.3476  -20.1473    0.0000 H   0  0  0  0  0  0  0  0  0  0  0  0
    9.1656   -4.0640    0.0000 H   0  0  0  0  0  0  0  0  0  0  0  0
    3.0969    4.6641    0.0000 H   0  0  0  0  0  0  0  0  0  0  0  0
    3.7538    4.2127    0.0000 H   0  0  0  0  0  0  0  0  0  0  0  0
    9.0293    4.0969    0.0000 H   0  0  0  0  0  0  0  0  0  0  0  0
    9.8130    4.2421    0.0000 H   0  0  0  0  0  0  0  0  0  0  0  0
    5.5581    7.7975    0.0000 H   0  0  0  0  0  0  0  0  0  0  0  0
    5.5998    7.0015    0.0000 H   0  0  0  0  0  0  0  0  0  0  0  0
   21.3672   11.1236    0.0000 H   0  0  0  0  0  0  0  0  0  0  0  0
   20.8338   10.5313    0.0000 H   0  0  0  0  0  0  0  0  0  0  0  0
    7.3868   -2.7478    0.0000 H   0  0  0  0  0  0  0  0  0  0  0  0
    7.6331   -3.5058    0.0000 H   0  0  0  0  0  0  0  0  0  0  0  0
    8.7444   -2.2341    0.0000 H   0  0  0  0  0  0  0  0  0  0  0  0
    8.4981   -1.4761    0.0000 H   0  0  0  0  0  0  0  0  0  0  0  0
    6.8516   -1.1005    0.0000 H   0  0  0  0  0  0  0  0  0  0  0  0
    7.0979   -1.8585    0.0000 H   0  0  0  0  0  0  0  0  0  0  0  0
   21.3318    8.9176    0.0000 H   0  0  0  0  0  0  0  0  0  0  0  0
   21.8652    9.5099    0.0000 H   0  0  0  0  0  0  0  0  0  0  0  0
    8.2092   -0.5868    0.0000 H   0  0  0  0  0  0  0  0  0  0  0  0
    7.9629    0.1712    0.0000 H   0  0  0  0  0  0  0  0  0  0  0  0
    6.3016    0.1230    0.0000 H   0  0  0  0  0  0  0  0  0  0  0  0
   10.1166   -3.7550    0.0000 H   0  0  0  0  0  0  0  0  0  0  0  0
   20.2082    9.8365    0.0000 H   0  0  0  0  0  0  0  0  0  0  0  0
   19.6749    9.2442    0.0000 H   0  0  0  0  0  0  0  0  0  0  0  0
    4.4134   -6.3286    0.0000 H   0  0  0  0  0  0  0  0  0  0  0  0
    6.2852   -4.2498    0.0000 H   0  0  0  0  0  0  0  0  0  0  0  0
   20.1729    7.6304    0.0000 H   0  0  0  0  0  0  0  0  0  0  0  0
   20.7062    8.2227    0.0000 H   0  0  0  0  0  0  0  0  0  0  0  0
    3.5490   -4.8314    0.0000 H   0  0  0  0  0  0  0  0  0  0  0  0
   10.9011   -2.6669    0.0000 H   0  0  0  0  0  0  0  0  0  0  0  0
   11.4345   -2.0746    0.0000 H   0  0  0  0  0  0  0  0  0  0  0  0
    2.0000    6.3705    0.0000 H   0  0  0  0  0  0  0  0  0  0  0  0
   11.5091    5.3548    0.0000 H   0  0  0  0  0  0  0  0  0  0  0  0
    6.2441    9.7065    0.0000 H   0  0  0  0  0  0  0  0  0  0  0  0
   10.9365   -0.4608    0.0000 H   0  0  0  0  0  0  0  0  0  0  0  0
   10.4031   -1.0532    0.0000 H   0  0  0  0  0  0  0  0  0  0  0  0
   19.3884    6.5423    0.0000 H   0  0  0  0  0  0  0  0  0  0  0  0
   17.8903    7.2622    0.0000 H   0  0  0  0  0  0  0  0  0  0  0  0
   17.3569    6.6698    0.0000 H   0  0  0  0  0  0  0  0  0  0  0  0
   12.0954    0.8263    0.0000 H   0  0  0  0  0  0  0  0  0  0  0  0
   11.5621    0.2340    0.0000 H   0  0  0  0  0  0  0  0  0  0  0  0
   17.8549    5.0561    0.0000 H   0  0  0  0  0  0  0  0  0  0  0  0
   18.3883    5.6484    0.0000 H   0  0  0  0  0  0  0  0  0  0  0  0
   13.2191   -0.0926    0.0000 H   0  0  0  0  0  0  0  0  0  0  0  0
   13.7524    0.4997    0.0000 H   0  0  0  0  0  0  0  0  0  0  0  0
   16.6960    3.7689    0.0000 H   0  0  0  0  0  0  0  0  0  0  0  0
   17.2293    4.3612    0.0000 H   0  0  0  0  0  0  0  0  0  0  0  0
   14.3780    1.1946    0.0000 H   0  0  0  0  0  0  0  0  0  0  0  0
   14.9114    1.7869    0.0000 H   0  0  0  0  0  0  0  0  0  0  0  0
   15.5723    4.6878    0.0000 H   0  0  0  0  0  0  0  0  0  0  0  0
   15.0390    4.0955    0.0000 H   0  0  0  0  0  0  0  0  0  0  0  0
   14.4134    3.4006    0.0000 H   0  0  0  0  0  0  0  0  0  0  0  0
   13.8800    2.8083    0.0000 H   0  0  0  0  0  0  0  0  0  0  0  0
  1101  1  0  0  0  0
  1106  1  0  0  0  0
  2 65  2  0  0  0  0
  3 66  2  0  0  0  0
  4 68  2  0  0  0  0
  5 75  2  0  0  0  0
  6 81  1  0  0  0  0
  6102  1  0  0  0  0
  7 78  2  0  0  0  0
  8 88  1  0  0  0  0
  8107  1  0  0  0  0
  9 93  2  0  0  0  0
 10 99  1  0  0  0  0
 10232  1  0  0  0  0
 11100  1  0  0  0  0
 11238  1  0  0  0  0
 12100  2  0  0  0  0
 13108  2  0  0  0  0
 14112  2  0  0  0  0
 15122  2  0  0  0  0
 16131  2  0  0  0  0
 17136  2  0  0  0  0
 18140  1  0  0  0  0
 18296  1  0  0  0  0
 19141  1  0  0  0  0
 19297  1  0  0  0  0
 20142  1  0  0  0  0
 20298  1  0  0  0  0
 21140  2  0  0  0  0
 22141  2  0  0  0  0
 23142  2  0  0  0  0
 24145  2  0  0  0  0
 25149  1  0  0  0  0
 25151  1  0  0  0  0
 26148  2  0  0  0  0
 27152  1  0  0  0  0
 27154  1  0  0  0  0
 28153  1  0  0  0  0
 28155  1  0  0  0  0
 29156  1  0  0  0  0
 29157  1  0  0  0  0
 30 54  1  0  0  0  0
 30 57  1  0  0  0  0
 30 59  1  0  0  0  0
 31 60  1  0  0  0  0
 31 63  1  0  0  0  0
 31 65  1  0  0  0  0
 32 58  1  0  0  0  0
 32 68  1  0  0  0  0
 32176  1  0  0  0  0
 33 66  1  0  0  0  0
 70 33  1  1  0  0  0
 33179  1  0  0  0  0
 67 34  1  1  0  0  0
 34 75  1  0  0  0  0
 34183  1  0  0  0  0
 74 35  1  6  0  0  0
 35 93  1  0  0  0  0
 35195  1  0  0  0  0
 36 78  1  0  0  0  0
 90 36  1  6  0  0  0
 36203  1  0  0  0  0
 37 85  1  0  0  0  0
 37105  1  0  0  0  0
 37218  1  0  0  0  0
 97 38  1  1  0  0  0
 38108  1  0  0  0  0
 38227  1  0  0  0  0
 39103  1  0  0  0  0
 39123  1  0  0  0  0
 39234  1  0  0  0  0
 40113  1  0  0  0  0
 40114  1  0  0  0  0
 40125  1  0  0  0  0
 41112  1  0  0  0  0
 41122  1  0  0  0  0
 41124  1  0  0  0  0
 42115  1  0  0  0  0
 42117  1  0  0  0  0
 42127  1  0  0  0  0
 43116  1  0  0  0  0
 43118  1  0  0  0  0
 43128  1  0  0  0  0
 44119  1  0  0  0  0
 44120  1  0  0  0  0
 44129  1  0  0  0  0
 45105  1  0  0  0  0
 45257  1  0  0  0  0
 45258  1  0  0  0  0
109 46  1  6  0  0  0
 46131  1  0  0  0  0
 46260  1  0  0  0  0
 47105  2  0  0  0  0
 47265  1  0  0  0  0
 48110  1  0  0  0  0
 48123  2  0  0  0  0
 49136  1  0  0  0  0
 49138  1  0  0  0  0
 49285  1  0  0  0  0
126 50  1  6  0  0  0
 50145  1  0  0  0  0
 50286  1  0  0  0  0
 51133  1  0  0  0  0
 51146  1  0  0  0  0
 51289  1  0  0  0  0
 52143  1  0  0  0  0
 52146  2  0  0  0  0
 53148  1  0  0  0  0
 53150  1  0  0  0  0
 53301  1  0  0  0  0
 54 55  1  0  0  0  0
 54 58  1  6  0  0  0
 54158  1  0  0  0  0
 55 56  1  0  0  0  0
 55159  1  0  0  0  0
 55160  1  0  0  0  0
 56 57  1  0  0  0  0
 56161  1  0  0  0  0
 56162  1  0  0  0  0
 57163  1  0  0  0  0
 57164  1  0  0  0  0
 58165  1  0  0  0  0
 58166  1  0  0  0  0
 59 64  1  0  0  0  0
 59167  1  0  0  0  0
 59168  1  0  0  0  0
 60 61  1  0  0  0  0
 60 66  1  1  0  0  0
 60169  1  0  0  0  0
 61 62  1  0  0  0  0
 61170  1  0  0  0  0
 61171  1  0  0  0  0
 62 63  1  0  0  0  0
 62172  1  0  0  0  0
 62173  1  0  0  0  0
 63174  1  0  0  0  0
 63175  1  0  0  0  0
 64 71  2  0  0  0  0
 64177  1  0  0  0  0
 65 67  1  0  0  0  0
 67 69  1  0  0  0  0
 67178  1  0  0  0  0
 68 72  1  0  0  0  0
 69 77  1  0  0  0  0
 69180  1  0  0  0  0
 69181  1  0  0  0  0
 70 73  1  0  0  0  0
 70 78  1  0  0  0  0
 70182  1  0  0  0  0
 71184  1  0  0  0  0
 71185  1  0  0  0  0
 72 80  1  0  0  0  0
 72 81  2  0  0  0  0
 73 79  1  0  0  0  0
 73186  1  0  0  0  0
 73187  1  0  0  0  0
 74 75  1  0  0  0  0
 74 76  1  0  0  0  0
 74188  1  0  0  0  0
 76 82  1  0  0  0  0
 76 84  1  1  0  0  0
 76189  1  0  0  0  0
 77 86  2  0  0  0  0
 77 87  1  0  0  0  0
 79 85  1  0  0  0  0
 79190  1  0  0  0  0
 79191  1  0  0  0  0
 80 83  2  0  0  0  0
 80192  1  0  0  0  0
 81 88  1  0  0  0  0
 82 92  1  0  0  0  0
 82193  1  0  0  0  0
 82194  1  0  0  0  0
 83 89  1  0  0  0  0
 83 91  1  0  0  0  0
 84196  1  0  0  0  0
 84197  1  0  0  0  0
 84198  1  0  0  0  0
 85199  1  0  0  0  0
 85200  1  0  0  0  0
 86 94  1  0  0  0  0
 86201  1  0  0  0  0
 87 95  2  0  0  0  0
 87202  1  0  0  0  0
 88 89  2  0  0  0  0
 89204  1  0  0  0  0
 90 98  1  0  0  0  0
 90100  1  0  0  0  0
 90205  1  0  0  0  0
 91 96  1  0  0  0  0
 91206  1  0  0  0  0
 91207  1  0  0  0  0
 92208  1  0  0  0  0
 92209  1  0  0  0  0
 92210  1  0  0  0  0
 93 97  1  0  0  0  0
 94 99  2  0  0  0  0
 94211  1  0  0  0  0
 95 99  1  0  0  0  0
 95212  1  0  0  0  0
 96101  1  0  0  0  0
 96213  1  0  0  0  0
 96214  1  0  0  0  0
 97104  1  0  0  0  0
 97215  1  0  0  0  0
 98103  1  0  0  0  0
 98216  1  0  0  0  0
 98217  1  0  0  0  0
101219  1  0  0  0  0
101220  1  0  0  0  0
102221  1  0  0  0  0
102222  1  0  0  0  0
102223  1  0  0  0  0
103110  2  0  0  0  0
104224  1  0  0  0  0
104225  1  0  0  0  0
104226  1  0  0  0  0
106111  1  0  0  0  0
106112  1  0  0  0  0
106228  1  0  0  0  0
107229  1  0  0  0  0
107230  1  0  0  0  0
107231  1  0  0  0  0
108109  1  0  0  0  0
109121  1  0  0  0  0
109233  1  0  0  0  0
110235  1  0  0  0  0
111122  1  0  0  0  0
111236  1  0  0  0  0
111237  1  0  0  0  0
113115  1  0  0  0  0
113239  1  0  0  0  0
113240  1  0  0  0  0
114116  1  0  0  0  0
114241  1  0  0  0  0
114242  1  0  0  0  0
115243  1  0  0  0  0
115244  1  0  0  0  0
116245  1  0  0  0  0
116246  1  0  0  0  0
117119  1  0  0  0  0
117247  1  0  0  0  0
117248  1  0  0  0  0
118120  1  0  0  0  0
118249  1  0  0  0  0
118250  1  0  0  0  0
119251  1  0  0  0  0
119252  1  0  0  0  0
120253  1  0  0  0  0
120254  1  0  0  0  0
121133  1  0  0  0  0
121255  1  0  0  0  0
121256  1  0  0  0  0
123259  1  0  0  0  0
124130  1  0  0  0  0
124261  1  0  0  0  0
124262  1  0  0  0  0
125136  1  0  0  0  0
125263  1  0  0  0  0
125264  1  0  0  0  0
126131  1  0  0  0  0
126132  1  0  0  0  0
126266  1  0  0  0  0
127140  1  0  0  0  0
127267  1  0  0  0  0
127268  1  0  0  0  0
128141  1  0  0  0  0
128269  1  0  0  0  0
128270  1  0  0  0  0
129142  1  0  0  0  0
129271  1  0  0  0  0
129272  1  0  0  0  0
130137  1  0  0  0  0
130273  1  0  0  0  0
130274  1  0  0  0  0
132134  1  0  0  0  0
132275  1  0  0  0  0
132276  1  0  0  0  0
133143  2  0  0  0  0
134135  1  0  0  0  0
134277  1  0  0  0  0
134278  1  0  0  0  0
135138  1  0  0  0  0
135279  1  0  0  0  0
135280  1  0  0  0  0
137139  1  0  0  0  0
137281  1  0  0  0  0
137282  1  0  0  0  0
138283  1  0  0  0  0
138284  1  0  0  0  0
139144  1  0  0  0  0
139287  1  0  0  0  0
139288  1  0  0  0  0
143290  1  0  0  0  0
144148  1  0  0  0  0
144291  1  0  0  0  0
144292  1  0  0  0  0
145147  1  0  0  0  0
146293  1  0  0  0  0
147149  1  0  0  0  0
147294  1  0  0  0  0
147295  1  0  0  0  0
149299  1  0  0  0  0
149300  1  0  0  0  0
150152  1  0  0  0  0
150302  1  0  0  0  0
150303  1  0  0  0  0
151153  1  0  0  0  0
151304  1  0  0  0  0
151305  1  0  0  0  0
152306  1  0  0  0  0
152307  1  0  0  0  0
153308  1  0  0  0  0
153309  1  0  0  0  0
154156  1  0  0  0  0
154310  1  0  0  0  0
154311  1  0  0  0  0
155157  1  0  0  0  0
155312  1  0  0  0  0
155313  1  0  0  0  0
156314  1  0  0  0  0
156315  1  0  0  0  0
157316  1  0  0  0  0
157317  1  0  0  0  0
M  END
> <PUBCHEM_COMPOUND_CID>
90656855

> <PUBCHEM_COMPOUND_CANONICALIZED>
1

> <PUBCHEM_CACTVS_COMPLEXITY>
4470

> <PUBCHEM_CACTVS_HBOND_ACCEPTOR>
37

> <PUBCHEM_CACTVS_HBOND_DONOR>
20

> <PUBCHEM_CACTVS_ROTATABLE_BOND>
74

> <PUBCHEM_CACTVS_SUBSKEYS>
AAADcfB//gBAAAAAAAAAAAAAAAAAAWLFixYwYAAAAAAAAAAB9AAAHgQQCAAADSzl3ga/npfJlgioAzX3fACCiC21MrAJ2YG+/MiPbjbm/TuXcWpu9jP6+ae/2fKOIAADAAAIQABAAAYAABCAAAAAAAAAAA==

> <PUBCHEM_IUPAC_OPENEYE_NAME>
(2S)-2-[[(2S)-2-[[(2S)-1-[(2S)-2-[[(2S,3S)-2-[[(2S)-2-[[(2S)-2-[[(2S)-2-[3-[2-[2-[2-[2-[6-[3-[3-[3-[[(2S)-1-allylpyrrolidin-2-yl]methylcarbamoyl]-4,5-dimethoxy-phenyl]propylsulfanyl]-2,5-dioxo-pyrrolidin-1-yl]hexanoylamino]ethoxy]ethoxy]ethoxy]ethoxy]propanoylamino]-6-[[2-[4,7,10-tris(carboxymethyl)-1,4,7,10-tetrazacyclododec-1-yl]acetyl]amino]hexanoyl]amino]-3-(1H-imidazol-5-yl)propanoyl]amino]propanoyl]amino]-3-methyl-pentanoyl]amino]-3-(4-hydroxyphenyl)propanoyl]pyrrolidine-2-carbonyl]amino]-5-guanidino-pentanoyl]amino]-3-(1H-imidazol-5-yl)propanoic acid

> <PUBCHEM_IUPAC_CAS_NAME>
(2S)-2-[[(2S)-5-carbamimidamido-2-[[[(2S)-1-[(2S)-2-[[(2S,3S)-2-[[(2S)-2-[[(2S)-2-[[(2S)-2-[[3-[2-[2-[2-[2-[[6-[3-[3-[3,4-dimethoxy-5-[oxo-[[(2S)-1-prop-2-enyl-2-pyrrolidinyl]methylamino]methyl]phenyl]propylthio]-2,5-dioxo-1-pyrrolidinyl]-1-oxohexyl]amino]ethoxy]ethoxy]ethoxy]ethoxy]-1-oxopropyl]amino]-1-oxo-6-[[1-oxo-2-[4,7,10-tris(carboxymethyl)-1,4,7,10-tetrazacyclododec-1-yl]ethyl]amino]hexyl]amino]-3-(1H-imidazol-5-yl)-1-oxopropyl]amino]-1-oxopropyl]amino]-3-methyl-1-oxopentyl]amino]-3-(4-hydroxyphenyl)-1-oxopropyl]-2-pyrrolidinyl]-oxomethyl]amino]-1-oxopentyl]amino]-3-(1H-imidazol-5-yl)propanoic acid

> <PUBCHEM_IUPAC_NAME_MARKUP>
(2<I>S</I>)-2-[[(2<I>S</I>)-5-carbamimidamido-2-[[(2<I>S</I>)-1-[(2<I>S</I>)-2-[[(2<I>S</I>,3<I>S</I>)-2-[[(2<I>S</I>)-2-[[(2<I>S</I>)-2-[[(2<I>S</I>)-2-[3-[2-[2-[2-[2-[6-[3-[3-[3,4-dimethoxy-5-[[(2<I>S</I>)-1-prop-2-enylpyrrolidin-2-yl]methylcarbamoyl]phenyl]propylsulfanyl]-2,5-dioxopyrrolidin-1-yl]hexanoylamino]ethoxy]ethoxy]ethoxy]ethoxy]propanoylamino]-6-[[2-[4,7,10-tris(carboxymethyl)-1,4,7,10-tetrazacyclododec-1-yl]acetyl]amino]hexanoyl]amino]-3-(1<I>H</I>-imidazol-5-yl)propanoyl]amino]propanoyl]amino]-3-methylpentanoyl]amino]-3-(4-hydroxyphenyl)propanoyl]pyrrolidine-2-carbonyl]amino]pentanoyl]amino]-3-(1<I>H</I>-imidazol-5-yl)propanoic acid

> <PUBCHEM_IUPAC_NAME>
(2S)-2-[[(2S)-5-carbamimidamido-2-[[(2S)-1-[(2S)-2-[[(2S,3S)-2-[[(2S)-2-[[(2S)-2-[[(2S)-2-[3-[2-[2-[2-[2-[6-[3-[3-[3,4-dimethoxy-5-[[(2S)-1-prop-2-enylpyrrolidin-2-yl]methylcarbamoyl]phenyl]propylsulfanyl]-2,5-dioxopyrrolidin-1-yl]hexanoylamino]ethoxy]ethoxy]ethoxy]ethoxy]propanoylamino]-6-[[2-[4,7,10-tris(carboxymethyl)-1,4,7,10-tetrazacyclododec-1-yl]acetyl]amino]hexanoyl]amino]-3-(1H-imidazol-5-yl)propanoyl]amino]propanoyl]amino]-3-methylpentanoyl]amino]-3-(4-hydroxyphenyl)propanoyl]pyrrolidine-2-carbonyl]amino]pentanoyl]amino]-3-(1H-imidazol-5-yl)propanoic acid

> <PUBCHEM_IUPAC_SYSTEMATIC_NAME>
(2S)-2-[[(2S)-5-carbamimidamido-2-[[(2S)-1-[(2S)-2-[[(2S,3S)-2-[[(2S)-2-[[(2S)-2-[[(2S)-2-[3-[2-[2-[2-[2-[6-[3-[3-[3,4-dimethoxy-5-[[(2S)-1-prop-2-enylpyrrolidin-2-yl]methylcarbamoyl]phenyl]propylsulfanyl]-2,5-bis(oxidanylidene)pyrrolidin-1-yl]hexanoylamino]ethoxy]ethoxy]ethoxy]ethoxy]propanoylamino]-6-[2-[4,7,10-tris(2-hydroxy-2-oxoethyl)-1,4,7,10-tetrazacyclododec-1-yl]ethanoylamino]hexanoyl]amino]-3-(1H-imidazol-5-yl)propanoyl]amino]propanoyl]amino]-3-methyl-pentanoyl]amino]-3-(4-hydroxyphenyl)propanoyl]pyrrolidin-2-yl]carbonylamino]pentanoyl]amino]-3-(1H-imidazol-5-yl)propanoic acid

> <PUBCHEM_IUPAC_TRADITIONAL_NAME>
(2S)-2-[[(2S)-2-[[(2S)-1-[(2S)-2-[[(2S,3S)-2-[[(2S)-2-[[(2S)-2-[[(2S)-2-[3-[2-[2-[2-[2-[6-[3-[3-[3-[[(2S)-1-allylpyrrolidin-2-yl]methylcarbamoyl]-4,5-dimethoxy-phenyl]propylthio]-2,5-diketo-pyrrolidino]hexanoylamino]ethoxy]ethoxy]ethoxy]ethoxy]propanoylamino]-6-[[2-[4,7,10-tris(carboxymethyl)-1,4,7,10-tetrazacyclododec-1-yl]acetyl]amino]hexanoyl]amino]-3-(1H-imidazol-5-yl)propanoyl]amino]propanoyl]amino]-3-methyl-pentanoyl]amino]-3-(4-hydroxyphenyl)propanoyl]prolyl]amino]-5-guanidino-pentanoyl]amino]-3-(1H-imidazol-5-yl)propionic acid

> <PUBCHEM_IUPAC_INCHI>
InChI=1S/C104H160N24O28S/c1-7-32-126-33-15-19-74(126)61-112-95(141)76-53-71(55-83(151-5)93(76)152-6)18-17-52-157-84-58-88(133)128(102(84)148)34-13-9-10-23-85(130)110-31-45-154-47-49-156-51-50-155-48-46-153-44-28-86(131)116-77(20-11-12-29-109-87(132)62-122-36-38-123(63-89(134)135)40-42-125(65-91(138)139)43-41-124(39-37-122)64-90(136)137)96(142)118-79(56-72-59-107-66-113-72)98(144)115-69(4)94(140)121-92(68(3)8-2)100(146)119-80(54-70-24-26-75(129)27-25-70)101(147)127-35-16-22-82(127)99(145)117-78(21-14-30-111-104(105)106)97(143)120-81(103(149)150)57-73-60-108-67-114-73/h7,24-27,53,55,59-60,66-69,74,77-82,84,92,129H,1,8-23,28-52,54,56-58,61-65H2,2-6H3,(H,107,113)(H,108,114)(H,109,132)(H,110,130)(H,112,141)(H,115,144)(H,116,131)(H,117,145)(H,118,142)(H,119,146)(H,120,143)(H,121,140)(H,134,135)(H,136,137)(H,138,139)(H,149,150)(H4,105,106,111)/t68-,69-,74-,77-,78-,79-,80-,81-,82-,84?,92-/m0/s1

> <PUBCHEM_IUPAC_INCHIKEY>
QLIYIWFCLGFWMD-SQAMFPIWSA-N

> <PUBCHEM_XLOGP3_AA>
-8.9

> <PUBCHEM_EXACT_MASS>
2226.1588166

> <PUBCHEM_MOLECULAR_FORMULA>
C104H160N24O28S

> <PUBCHEM_MOLECULAR_WEIGHT>
2226.6

> <PUBCHEM_OPENEYE_CAN_SMILES>
CCC(C)C(C(=O)NC(CC1=CC=C(C=C1)O)C(=O)N2CCCC2C(=O)NC(CCCNC(=N)N)C(=O)NC(CC3=CN=CN3)C(=O)O)NC(=O)C(C)NC(=O)C(CC4=CN=CN4)NC(=O)C(CCCCNC(=O)CN5CCN(CCN(CCN(CC5)CC(=O)O)CC(=O)O)CC(=O)O)NC(=O)CCOCCOCCOCCOCCNC(=O)CCCCCN6C(=O)CC(C6=O)SCCCC7=CC(=C(C(=C7)OC)OC)C(=O)NCC8CCCN8CC=C

> <PUBCHEM_OPENEYE_ISO_SMILES>
CC[C@H](C)[C@@H](C(=O)N[C@@H](CC1=CC=C(C=C1)O)C(=O)N2CCC[C@H]2C(=O)N[C@@H](CCCNC(=N)N)C(=O)N[C@@H](CC3=CN=CN3)C(=O)O)NC(=O)[C@H](C)NC(=O)[C@H](CC4=CN=CN4)NC(=O)[C@H](CCCCNC(=O)CN5CCN(CCN(CCN(CC5)CC(=O)O)CC(=O)O)CC(=O)O)NC(=O)CCOCCOCCOCCOCCNC(=O)CCCCCN6C(=O)CC(C6=O)SCCCC7=CC(=C(C(=C7)OC)OC)C(=O)NC[C@@H]8CCCN8CC=C

> <PUBCHEM_CACTVS_TPSA>
734

> <PUBCHEM_MONOISOTOPIC_WEIGHT>
2225.1554617

> <PUBCHEM_TOTAL_CHARGE>
0

> <PUBCHEM_HEAVY_ATOM_COUNT>
157

> <PUBCHEM_ATOM_DEF_STEREO_COUNT>
10

> <PUBCHEM_ATOM_UDEF_STEREO_COUNT>
1

> <PUBCHEM_BOND_DEF_STEREO_COUNT>
0

> <PUBCHEM_BOND_UDEF_STEREO_COUNT>
0

> <PUBCHEM_ISOTOPIC_ATOM_COUNT>
0

> <PUBCHEM_COMPONENT_COUNT>
1

> <PUBCHEM_CACTVS_TAUTO_COUNT>
-1

> <PUBCHEM_COORDINATE_TYPE>
1
5
255

> <PUBCHEM_BONDANNOTATIONS>
106  1  3
103  110  8
133  143  8
70  33  5
67  34  5
74  35  6
90  36  6
97  38  5
39  103  8
39  123  8
109  46  6
48  110  8
48  123  8
126  50  6
51  133  8
51  146  8
52  143  8
52  146  8
54  58  6
60  66  5
72  80  8
72  81  8
76  84  5
77  86  8
77  87  8
80  83  8
81  88  8
83  89  8
86  94  8
87  95  8
88  89  8
94  99  8
95  99  8

$$$$
