71717830
  -OEChem-09292322032D

 58 61  0     1  0  0  0  0  0999 V2000
    5.1350   -2.7738    0.0000 O   0  0  0  0  0  0  0  0  0  0  0  0
    6.8671   -2.7738    0.0000 O   0  0  0  0  0  0  0  0  0  0  0  0
    5.1350   -5.7738    0.0000 O   0  0  0  0  0  0  0  0  0  0  0  0
    3.4030   -4.7738    0.0000 O   0  0  0  0  0  0  0  0  0  0  0  0
    6.8671   -4.7738    0.0000 O   0  0  0  0  0  0  0  0  0  0  0  0
    2.5369   -3.2738    0.0000 O   0  0  0  0  0  0  0  0  0  0  0  0
    5.9820    4.7477    0.0000 O   0  0  0  0  0  0  0  0  0  0  0  0
    7.7024    5.7676    0.0000 O   0  0  0  0  0  0  0  0  0  0  0  0
    8.6372    1.2089    0.0000 N   0  0  0  0  0  0  0  0  0  0  0  0
    5.1350   -4.7738    0.0000 C   0  0  2  0  0  0  0  0  0  0  0  0
    4.2690   -4.2738    0.0000 C   0  0  2  0  0  0  0  0  0  0  0  0
    6.0010   -4.2738    0.0000 C   0  0  2  0  0  0  0  0  0  0  0  0
    4.2690   -3.2738    0.0000 C   0  0  1  0  0  0  0  0  0  0  0  0
    6.0010   -3.2738    0.0000 C   0  0  2  0  0  0  0  0  0  0  0  0
    7.7331    1.7262    0.0000 C   0  0  3  0  0  0  0  0  0  0  0  0
    7.7371    2.7678    0.0000 C   0  0  0  0  0  0  0  0  0  0  0  0
    6.8671    1.2262    0.0000 C   0  0  0  0  0  0  0  0  0  0  0  0
    3.4030   -2.7738    0.0000 C   0  0  0  0  0  0  0  0  0  0  0  0
    8.5973    3.2778    0.0000 C   0  0  0  0  0  0  0  0  0  0  0  0
    9.5131    2.7815    0.0000 C   0  0  0  0  0  0  0  0  0  0  0  0
    9.5332    1.7401    0.0000 C   0  0  0  0  0  0  0  0  0  0  0  0
    6.8671    0.2262    0.0000 C   0  0  0  0  0  0  0  0  0  0  0  0
    6.8654    3.2578    0.0000 C   0  0  0  0  0  0  0  0  0  0  0  0
    6.8671   -1.7738    0.0000 C   0  0  0  0  0  0  0  0  0  0  0  0
    8.5857    4.2777    0.0000 C   0  0  0  0  0  0  0  0  0  0  0  0
    7.7331   -0.2738    0.0000 C   0  0  0  0  0  0  0  0  0  0  0  0
    6.0010   -0.2738    0.0000 C   0  0  0  0  0  0  0  0  0  0  0  0
    7.7331   -1.2738    0.0000 C   0  0  0  0  0  0  0  0  0  0  0  0
    6.0010   -1.2738    0.0000 C   0  0  0  0  0  0  0  0  0  0  0  0
    6.8538    4.2577    0.0000 C   0  0  0  0  0  0  0  0  0  0  0  0
    7.7140    4.7677    0.0000 C   0  0  0  0  0  0  0  0  0  0  0  0
    4.5981   -5.0838    0.0000 H   0  0  0  0  0  0  0  0  0  0  0  0
    4.2690   -4.8938    0.0000 H   0  0  0  0  0  0  0  0  0  0  0  0
    6.0010   -4.8938    0.0000 H   0  0  0  0  0  0  0  0  0  0  0  0
    4.2690   -2.6538    0.0000 H   0  0  0  0  0  0  0  0  0  0  0  0
    6.0010   -2.6538    0.0000 H   0  0  0  0  0  0  0  0  0  0  0  0
    7.7343    1.1062    0.0000 H   0  0  0  0  0  0  0  0  0  0  0  0
    6.6550    1.8088    0.0000 H   0  0  0  0  0  0  0  0  0  0  0  0
    6.2565    1.1185    0.0000 H   0  0  0  0  0  0  0  0  0  0  0  0
    3.8015   -2.2989    0.0000 H   0  0  0  0  0  0  0  0  0  0  0  0
    3.0044   -2.2989    0.0000 H   0  0  0  0  0  0  0  0  0  0  0  0
   10.1259    2.6872    0.0000 H   0  0  0  0  0  0  0  0  0  0  0  0
    9.7109    3.3691    0.0000 H   0  0  0  0  0  0  0  0  0  0  0  0
    9.7534    1.1605    0.0000 H   0  0  0  0  0  0  0  0  0  0  0  0
   10.1419    1.8579    0.0000 H   0  0  0  0  0  0  0  0  0  0  0  0
    8.6420    0.5889    0.0000 H   0  0  0  0  0  0  0  0  0  0  0  0
    5.6720   -6.0838    0.0000 H   0  0  0  0  0  0  0  0  0  0  0  0
    3.4030   -5.3938    0.0000 H   0  0  0  0  0  0  0  0  0  0  0  0
    7.4040   -4.4638    0.0000 H   0  0  0  0  0  0  0  0  0  0  0  0
    6.3320    2.9416    0.0000 H   0  0  0  0  0  0  0  0  0  0  0  0
    9.1190    4.5939    0.0000 H   0  0  0  0  0  0  0  0  0  0  0  0
    8.2700    0.0362    0.0000 H   0  0  0  0  0  0  0  0  0  0  0  0
    5.4641    0.0362    0.0000 H   0  0  0  0  0  0  0  0  0  0  0  0
    8.2700   -1.5838    0.0000 H   0  0  0  0  0  0  0  0  0  0  0  0
    5.4641   -1.5838    0.0000 H   0  0  0  0  0  0  0  0  0  0  0  0
    2.0000   -2.9638    0.0000 H   0  0  0  0  0  0  0  0  0  0  0  0
    5.9749    5.3676    0.0000 H   0  0  0  0  0  0  0  0  0  0  0  0
    8.2357    6.0838    0.0000 H   0  0  0  0  0  0  0  0  0  0  0  0
  1 13  1  0  0  0  0
  1 14  1  0  0  0  0
 14  2  1  6  0  0  0
  2 24  1  0  0  0  0
 10  3  1  6  0  0  0
  3 47  1  0  0  0  0
 11  4  1  1  0  0  0
  4 48  1  0  0  0  0
 12  5  1  6  0  0  0
  5 49  1  0  0  0  0
  6 18  1  0  0  0  0
  6 56  1  0  0  0  0
  7 30  1  0  0  0  0
  7 57  1  0  0  0  0
  8 31  1  0  0  0  0
  8 58  1  0  0  0  0
  9 15  1  0  0  0  0
  9 21  1  0  0  0  0
  9 46  1  0  0  0  0
 10 11  1  0  0  0  0
 10 12  1  0  0  0  0
 10 32  1  0  0  0  0
 11 13  1  0  0  0  0
 11 33  1  0  0  0  0
 12 14  1  0  0  0  0
 12 34  1  0  0  0  0
 13 18  1  1  0  0  0
 13 35  1  0  0  0  0
 14 36  1  0  0  0  0
 15 16  1  0  0  0  0
 15 17  1  0  0  0  0
 15 37  1  0  0  0  0
 16 19  1  0  0  0  0
 16 23  2  0  0  0  0
 17 22  1  0  0  0  0
 17 38  1  0  0  0  0
 17 39  1  0  0  0  0
 18 40  1  0  0  0  0
 18 41  1  0  0  0  0
 19 20  1  0  0  0  0
 19 25  2  0  0  0  0
 20 21  1  0  0  0  0
 20 42  1  0  0  0  0
 20 43  1  0  0  0  0
 21 44  1  0  0  0  0
 21 45  1  0  0  0  0
 22 26  2  0  0  0  0
 22 27  1  0  0  0  0
 23 30  1  0  0  0  0
 23 50  1  0  0  0  0
 24 28  2  0  0  0  0
 24 29  1  0  0  0  0
 25 31  1  0  0  0  0
 25 51  1  0  0  0  0
 26 28  1  0  0  0  0
 26 52  1  0  0  0  0
 27 29  2  0  0  0  0
 27 53  1  0  0  0  0
 28 54  1  0  0  0  0
 29 55  1  0  0  0  0
 30 31  2  0  0  0  0
M  END
> <PUBCHEM_COMPOUND_CID>
71717830

> <PUBCHEM_COMPOUND_CANONICALIZED>
1

> <PUBCHEM_CACTVS_COMPLEXITY>
574

> <PUBCHEM_CACTVS_HBOND_ACCEPTOR>
9

> <PUBCHEM_CACTVS_HBOND_DONOR>
7

> <PUBCHEM_CACTVS_ROTATABLE_BOND>
5

> <PUBCHEM_CACTVS_SUBSKEYS>
AAADceB6PAAAAAAAAAAAAAAAAAAAAAAAAAA8aIEAAAAAAACxQAAAHgAQCAAADDzxmAcwDoLABgCAAiBCAACCCAAgIAAIiIAOjIgdNiKGsRumeCnl0BGPuAfw8P8OoAABAAAQQABAAAIAACCAAAAAAAAAAA==

> <PUBCHEM_IUPAC_OPENEYE_NAME>
(2R,3R,4R,5R,6R)-2-[4-[(6,7-dihydroxy-1,2,3,4-tetrahydroisoquinolin-1-yl)methyl]phenoxy]-6-(hydroxymethyl)tetrahydropyran-3,4,5-triol

> <PUBCHEM_IUPAC_CAS_NAME>
(2R,3R,4R,5R,6R)-2-[4-[(6,7-dihydroxy-1,2,3,4-tetrahydroisoquinolin-1-yl)methyl]phenoxy]-6-(hydroxymethyl)oxane-3,4,5-triol

> <PUBCHEM_IUPAC_NAME_MARKUP>
(2<I>R</I>,3<I>R</I>,4<I>R</I>,5<I>R</I>,6<I>R</I>)-2-[4-[(6,7-dihydroxy-1,2,3,4-tetrahydroisoquinolin-1-yl)methyl]phenoxy]-6-(hydroxymethyl)oxane-3,4,5-triol

> <PUBCHEM_IUPAC_NAME>
(2R,3R,4R,5R,6R)-2-[4-[(6,7-dihydroxy-1,2,3,4-tetrahydroisoquinolin-1-yl)methyl]phenoxy]-6-(hydroxymethyl)oxane-3,4,5-triol

> <PUBCHEM_IUPAC_SYSTEMATIC_NAME>
(2R,3R,4R,5R,6R)-2-[4-[[6,7-bis(oxidanyl)-1,2,3,4-tetrahydroisoquinolin-1-yl]methyl]phenoxy]-6-(hydroxymethyl)oxane-3,4,5-triol

> <PUBCHEM_IUPAC_TRADITIONAL_NAME>
(2R,3R,4R,5R,6R)-2-[4-[(6,7-dihydroxy-1,2,3,4-tetrahydroisoquinolin-1-yl)methyl]phenoxy]-6-methylol-tetrahydropyran-3,4,5-triol

> <PUBCHEM_IUPAC_INCHI>
InChI=1S/C22H27NO8/c24-10-18-19(27)20(28)21(29)22(31-18)30-13-3-1-11(2-4-13)7-15-14-9-17(26)16(25)8-12(14)5-6-23-15/h1-4,8-9,15,18-29H,5-7,10H2/t15?,18-,19+,20-,21-,22+/m1/s1

> <PUBCHEM_IUPAC_INCHIKEY>
OEUGQYOMKCJJLJ-LCSWDSHXSA-N

> <PUBCHEM_XLOGP3_AA>
0.4

> <PUBCHEM_EXACT_MASS>
433.17366682

> <PUBCHEM_MOLECULAR_FORMULA>
C22H27NO8

> <PUBCHEM_MOLECULAR_WEIGHT>
433.5

> <PUBCHEM_OPENEYE_CAN_SMILES>
C1CNC(C2=CC(=C(C=C21)O)O)CC3=CC=C(C=C3)OC4C(C(C(C(O4)CO)O)O)O

> <PUBCHEM_OPENEYE_ISO_SMILES>
C1CNC(C2=CC(=C(C=C21)O)O)CC3=CC=C(C=C3)O[C@@H]4[C@@H]([C@@H]([C@H]([C@H](O4)CO)O)O)O

> <PUBCHEM_CACTVS_TPSA>
152

> <PUBCHEM_MONOISOTOPIC_WEIGHT>
433.17366682

> <PUBCHEM_TOTAL_CHARGE>
0

> <PUBCHEM_HEAVY_ATOM_COUNT>
31

> <PUBCHEM_ATOM_DEF_STEREO_COUNT>
5

> <PUBCHEM_ATOM_UDEF_STEREO_COUNT>
1

> <PUBCHEM_BOND_DEF_STEREO_COUNT>
0

> <PUBCHEM_BOND_UDEF_STEREO_COUNT>
0

> <PUBCHEM_ISOTOPIC_ATOM_COUNT>
0

> <PUBCHEM_COMPONENT_COUNT>
1

> <PUBCHEM_CACTVS_TAUTO_COUNT>
-1

> <PUBCHEM_COORDINATE_TYPE>
1
5
255

> <PUBCHEM_BONDANNOTATIONS>
13  18  5
15  17  3
16  19  8
16  23  8
19  25  8
14  2  6
22  26  8
22  27  8
23  30  8
24  28  8
24  29  8
25  31  8
26  28  8
27  29  8
10  3  6
30  31  8
11  4  5
12  5  6

$$$$
