11616435
  -OEChem-09292322492D

 45 49  0     1  0  0  0  0  0999 V2000
    6.9654   -0.1426    0.0000 N   0  0  3  0  0  0  0  0  0  0  0  0
    4.5124   -1.2600    0.0000 N   0  0  0  0  0  0  0  0  0  0  0  0
    6.2962   -0.8857    0.0000 C   0  0  3  0  0  0  0  0  0  0  0  0
    7.9875   -0.3434    0.0000 C   0  0  3  0  0  0  0  0  0  0  0  0
    6.6028   -1.8812    0.0000 C   0  0  0  0  0  0  0  0  0  0  0  0
    5.3181   -0.6778    0.0000 C   0  0  0  0  0  0  0  0  0  0  0  0
    8.3170   -1.3316    0.0000 C   0  0  0  0  0  0  0  0  0  0  0  0
    6.6564    0.8085    0.0000 C   0  0  0  0  0  0  0  0  0  0  0  0
    7.6200   -2.1056    0.0000 C   0  0  0  0  0  0  0  0  0  0  0  0
    5.0091    0.2732    0.0000 C   0  0  0  0  0  0  0  0  0  0  0  0
    5.6782    1.0164    0.0000 C   0  0  0  0  0  0  0  0  0  0  0  0
    8.6480    0.4074    0.0000 C   0  0  0  0  0  0  0  0  0  0  0  0
    4.0150    0.2706    0.0000 C   0  0  0  0  0  0  0  0  0  0  0  0
    3.7086   -0.6750    0.0000 C   0  0  0  0  0  0  0  0  0  0  0  0
    9.6284    0.2108    0.0000 C   0  0  0  0  0  0  0  0  0  0  0  0
    8.3280    1.3548    0.0000 C   0  0  0  0  0  0  0  0  0  0  0  0
    3.3334    1.0502    0.0000 C   0  0  0  0  0  0  0  0  0  0  0  0
    2.6994   -0.9068    0.0000 C   0  0  0  0  0  0  0  0  0  0  0  0
    2.3191    0.8418    0.0000 C   0  0  0  0  0  0  0  0  0  0  0  0
    2.0000   -0.1433    0.0000 C   0  0  0  0  0  0  0  0  0  0  0  0
   10.2889    0.9616    0.0000 C   0  0  0  0  0  0  0  0  0  0  0  0
    8.9884    2.1056    0.0000 C   0  0  0  0  0  0  0  0  0  0  0  0
    9.9689    1.9091    0.0000 C   0  0  0  0  0  0  0  0  0  0  0  0
    5.8778   -1.3433    0.0000 H   0  0  0  0  0  0  0  0  0  0  0  0
    8.5951   -0.4665    0.0000 H   0  0  0  0  0  0  0  0  0  0  0  0
    5.9878   -1.9596    0.0000 H   0  0  0  0  0  0  0  0  0  0  0  0
    6.5748   -2.5006    0.0000 H   0  0  0  0  0  0  0  0  0  0  0  0
    8.6999   -1.8192    0.0000 H   0  0  0  0  0  0  0  0  0  0  0  0
    8.8629   -1.0377    0.0000 H   0  0  0  0  0  0  0  0  0  0  0  0
    7.2703    0.8947    0.0000 H   0  0  0  0  0  0  0  0  0  0  0  0
    6.6780    1.4281    0.0000 H   0  0  0  0  0  0  0  0  0  0  0  0
    7.3848   -2.6793    0.0000 H   0  0  0  0  0  0  0  0  0  0  0  0
    8.1449   -2.4356    0.0000 H   0  0  0  0  0  0  0  0  0  0  0  0
    5.9105    1.5912    0.0000 H   0  0  0  0  0  0  0  0  0  0  0  0
    5.1524    1.3449    0.0000 H   0  0  0  0  0  0  0  0  0  0  0  0
    4.5113   -1.8800    0.0000 H   0  0  0  0  0  0  0  0  0  0  0  0
    9.8268   -0.3766    0.0000 H   0  0  0  0  0  0  0  0  0  0  0  0
    7.7200    1.4767    0.0000 H   0  0  0  0  0  0  0  0  0  0  0  0
    3.5313    1.6377    0.0000 H   0  0  0  0  0  0  0  0  0  0  0  0
    2.5152   -1.4988    0.0000 H   0  0  0  0  0  0  0  0  0  0  0  0
    1.9056    1.3038    0.0000 H   0  0  0  0  0  0  0  0  0  0  0  0
    1.3942   -0.2750    0.0000 H   0  0  0  0  0  0  0  0  0  0  0  0
   10.8968    0.8398    0.0000 H   0  0  0  0  0  0  0  0  0  0  0  0
    8.7901    2.6930    0.0000 H   0  0  0  0  0  0  0  0  0  0  0  0
   10.3784    2.3746    0.0000 H   0  0  0  0  0  0  0  0  0  0  0  0
  1  3  1  0  0  0  0
  1  4  1  0  0  0  0
  1  8  1  0  0  0  0
  2  6  1  0  0  0  0
  2 14  1  0  0  0  0
  2 36  1  0  0  0  0
  3  5  1  0  0  0  0
  3  6  1  0  0  0  0
  3 24  1  0  0  0  0
  4  7  1  0  0  0  0
  4 12  1  0  0  0  0
  4 25  1  0  0  0  0
  5  9  1  0  0  0  0
  5 26  1  0  0  0  0
  5 27  1  0  0  0  0
  6 10  2  0  0  0  0
  7  9  1  0  0  0  0
  7 28  1  0  0  0  0
  7 29  1  0  0  0  0
  8 11  1  0  0  0  0
  8 30  1  0  0  0  0
  8 31  1  0  0  0  0
  9 32  1  0  0  0  0
  9 33  1  0  0  0  0
 10 11  1  0  0  0  0
 10 13  1  0  0  0  0
 11 34  1  0  0  0  0
 11 35  1  0  0  0  0
 12 15  2  0  0  0  0
 12 16  1  0  0  0  0
 13 14  1  0  0  0  0
 13 17  2  0  0  0  0
 14 18  2  0  0  0  0
 15 21  1  0  0  0  0
 15 37  1  0  0  0  0
 16 22  2  0  0  0  0
 16 38  1  0  0  0  0
 17 19  1  0  0  0  0
 17 39  1  0  0  0  0
 18 20  1  0  0  0  0
 18 40  1  0  0  0  0
 19 20  2  0  0  0  0
 19 41  1  0  0  0  0
 20 42  1  0  0  0  0
 21 23  2  0  0  0  0
 21 43  1  0  0  0  0
 22 23  1  0  0  0  0
 22 44  1  0  0  0  0
 23 45  1  0  0  0  0
M  END
> <PUBCHEM_COMPOUND_CID>
11616435

> <PUBCHEM_COMPOUND_CANONICALIZED>
1

> <PUBCHEM_CACTVS_COMPLEXITY>
416

> <PUBCHEM_CACTVS_HBOND_ACCEPTOR>
1

> <PUBCHEM_CACTVS_HBOND_DONOR>
1

> <PUBCHEM_CACTVS_ROTATABLE_BOND>
1

> <PUBCHEM_CACTVS_SUBSKEYS>
AAADceB7AAAAAAAAAAAAAAAAAAAAAWAAAAA8eIEAAAAAAFix9AAAHAAQAAAADCjBHgQwwPPJkACgAyRiRACCgCAhAiAImSA4ZJgIYOLAkZGUIAhgkADIyAcQgMAOgAAAAAACAAAAAAAAAAQAAAAAAAAAAA==

> <PUBCHEM_IUPAC_OPENEYE_NAME>
4-phenyl-1,2,3,4,6,7,12,12b-octahydroindolo[2,3-a]quinolizine

> <PUBCHEM_IUPAC_CAS_NAME>
4-phenyl-1,2,3,4,6,7,12,12b-octahydroindolo[2,3-a]quinolizine

> <PUBCHEM_IUPAC_NAME_MARKUP>
4-phenyl-1,2,3,4,6,7,12,12<I>b</I>-octahydroindolo[2,3-a]quinolizine

> <PUBCHEM_IUPAC_NAME>
4-phenyl-1,2,3,4,6,7,12,12b-octahydroindolo[2,3-a]quinolizine

> <PUBCHEM_IUPAC_SYSTEMATIC_NAME>
4-phenyl-1,2,3,4,6,7,12,12b-octahydroindolo[2,3-a]quinolizine

> <PUBCHEM_IUPAC_TRADITIONAL_NAME>
4-phenyl-1,2,3,4,6,7,12,12b-octahydropyrido[2,1-a]beta-carboline

> <PUBCHEM_IUPAC_INCHI>
InChI=1S/C21H22N2/c1-2-7-15(8-3-1)19-11-6-12-20-21-17(13-14-23(19)20)16-9-4-5-10-18(16)22-21/h1-5,7-10,19-20,22H,6,11-14H2

> <PUBCHEM_IUPAC_INCHIKEY>
ZPEMCDCOAWNLMW-UHFFFAOYSA-N

> <PUBCHEM_XLOGP3_AA>
4.4

> <PUBCHEM_EXACT_MASS>
302.178298710

> <PUBCHEM_MOLECULAR_FORMULA>
C21H22N2

> <PUBCHEM_MOLECULAR_WEIGHT>
302.4

> <PUBCHEM_OPENEYE_CAN_SMILES>
C1CC(N2CCC3=C(C2C1)NC4=CC=CC=C34)C5=CC=CC=C5

> <PUBCHEM_OPENEYE_ISO_SMILES>
C1CC(N2CCC3=C(C2C1)NC4=CC=CC=C34)C5=CC=CC=C5

> <PUBCHEM_CACTVS_TPSA>
19

> <PUBCHEM_MONOISOTOPIC_WEIGHT>
302.178298710

> <PUBCHEM_TOTAL_CHARGE>
0

> <PUBCHEM_HEAVY_ATOM_COUNT>
23

> <PUBCHEM_ATOM_DEF_STEREO_COUNT>
0

> <PUBCHEM_ATOM_UDEF_STEREO_COUNT>
2

> <PUBCHEM_BOND_DEF_STEREO_COUNT>
0

> <PUBCHEM_BOND_UDEF_STEREO_COUNT>
0

> <PUBCHEM_ISOTOPIC_ATOM_COUNT>
0

> <PUBCHEM_COMPONENT_COUNT>
1

> <PUBCHEM_CACTVS_TAUTO_COUNT>
-1

> <PUBCHEM_COORDINATE_TYPE>
1
5
255

> <PUBCHEM_BONDANNOTATIONS>
10  13  8
12  15  8
12  16  8
13  14  8
13  17  8
14  18  8
15  21  8
16  22  8
17  19  8
18  20  8
19  20  8
2  14  8
2  6  8
21  23  8
22  23  8
3  5  3
4  12  3
6  10  8

$$$$
