10052433
  -OEChem-09292322202D

 72 75  0     0  0  0  0  0  0999 V2000
    7.1962    7.7500    0.0000 S   0  0  0  0  0  0  0  0  0  0  0  0
    2.8660   -6.7500    0.0000 O   0  0  0  0  0  0  0  0  0  0  0  0
    8.0622    0.2500    0.0000 O   0  0  0  0  0  0  0  0  0  0  0  0
    8.1962    7.7500    0.0000 O   0  0  0  0  0  0  0  0  0  0  0  0
    6.1962    7.7500    0.0000 O   0  0  0  0  0  0  0  0  0  0  0  0
    4.5981   -3.7500    0.0000 N   0  0  0  0  0  0  0  0  0  0  0  0
    4.5981   -5.7500    0.0000 N   0  0  0  0  0  0  0  0  0  0  0  0
    6.3301    0.2500    0.0000 N   0  0  0  0  0  0  0  0  0  0  0  0
    3.7320   -4.2500    0.0000 C   0  0  0  0  0  0  0  0  0  0  0  0
    5.4641   -4.2500    0.0000 C   0  0  0  0  0  0  0  0  0  0  0  0
    3.7320   -5.2500    0.0000 C   0  0  0  0  0  0  0  0  0  0  0  0
    5.4641   -5.2500    0.0000 C   0  0  0  0  0  0  0  0  0  0  0  0
    4.5981   -2.7500    0.0000 C   0  0  0  0  0  0  0  0  0  0  0  0
    5.4641   -2.2500    0.0000 C   0  0  0  0  0  0  0  0  0  0  0  0
    4.5981   -6.7500    0.0000 C   0  0  0  0  0  0  0  0  0  0  0  0
    5.4641   -1.2500    0.0000 C   0  0  0  0  0  0  0  0  0  0  0  0
    6.3301   -0.7500    0.0000 C   0  0  0  0  0  0  0  0  0  0  0  0
    3.7320   -7.2500    0.0000 C   0  0  0  0  0  0  0  0  0  0  0  0
    5.4641   -7.2500    0.0000 C   0  0  0  0  0  0  0  0  0  0  0  0
    3.7320   -8.2500    0.0000 C   0  0  0  0  0  0  0  0  0  0  0  0
    5.4641   -8.2500    0.0000 C   0  0  0  0  0  0  0  0  0  0  0  0
    4.5981   -8.7500    0.0000 C   0  0  0  0  0  0  0  0  0  0  0  0
    7.1962    0.7500    0.0000 C   0  0  0  0  0  0  0  0  0  0  0  0
    7.1962    1.7500    0.0000 C   0  0  0  0  0  0  0  0  0  0  0  0
    2.0000   -7.2500    0.0000 C   0  0  0  0  0  0  0  0  0  0  0  0
    6.3301    2.2500    0.0000 C   0  0  0  0  0  0  0  0  0  0  0  0
    8.0622    2.2500    0.0000 C   0  0  0  0  0  0  0  0  0  0  0  0
    7.1962    3.7500    0.0000 C   0  0  0  0  0  0  0  0  0  0  0  0
    6.3301    3.2500    0.0000 C   0  0  0  0  0  0  0  0  0  0  0  0
    8.0622    3.2500    0.0000 C   0  0  0  0  0  0  0  0  0  0  0  0
    7.1962    4.7500    0.0000 C   0  0  0  0  0  0  0  0  0  0  0  0
    7.1962    6.7500    0.0000 C   0  0  0  0  0  0  0  0  0  0  0  0
    8.0622    5.2500    0.0000 C   0  0  0  0  0  0  0  0  0  0  0  0
    6.3301    5.2500    0.0000 C   0  0  0  0  0  0  0  0  0  0  0  0
    8.0622    6.2500    0.0000 C   0  0  0  0  0  0  0  0  0  0  0  0
    6.3301    6.2500    0.0000 C   0  0  0  0  0  0  0  0  0  0  0  0
    7.1962    8.7500    0.0000 C   0  0  0  0  0  0  0  0  0  0  0  0
    3.5200   -3.6674    0.0000 H   0  0  0  0  0  0  0  0  0  0  0  0
    3.1215   -4.3577    0.0000 H   0  0  0  0  0  0  0  0  0  0  0  0
    6.0747   -4.3577    0.0000 H   0  0  0  0  0  0  0  0  0  0  0  0
    5.6762   -3.6674    0.0000 H   0  0  0  0  0  0  0  0  0  0  0  0
    3.1215   -5.1423    0.0000 H   0  0  0  0  0  0  0  0  0  0  0  0
    3.5200   -5.8326    0.0000 H   0  0  0  0  0  0  0  0  0  0  0  0
    5.6762   -5.8326    0.0000 H   0  0  0  0  0  0  0  0  0  0  0  0
    6.0747   -5.1423    0.0000 H   0  0  0  0  0  0  0  0  0  0  0  0
    4.3860   -2.1674    0.0000 H   0  0  0  0  0  0  0  0  0  0  0  0
    3.9875   -2.8577    0.0000 H   0  0  0  0  0  0  0  0  0  0  0  0
    5.6762   -2.8326    0.0000 H   0  0  0  0  0  0  0  0  0  0  0  0
    6.0747   -2.1423    0.0000 H   0  0  0  0  0  0  0  0  0  0  0  0
    5.2520   -0.6674    0.0000 H   0  0  0  0  0  0  0  0  0  0  0  0
    4.8535   -1.3577    0.0000 H   0  0  0  0  0  0  0  0  0  0  0  0
    6.5422   -1.3326    0.0000 H   0  0  0  0  0  0  0  0  0  0  0  0
    6.9407   -0.6423    0.0000 H   0  0  0  0  0  0  0  0  0  0  0  0
    6.0010   -6.9400    0.0000 H   0  0  0  0  0  0  0  0  0  0  0  0
    3.1951   -8.5600    0.0000 H   0  0  0  0  0  0  0  0  0  0  0  0
    6.0010   -8.5600    0.0000 H   0  0  0  0  0  0  0  0  0  0  0  0
    5.7932    0.5600    0.0000 H   0  0  0  0  0  0  0  0  0  0  0  0
    4.5981   -9.3700    0.0000 H   0  0  0  0  0  0  0  0  0  0  0  0
    1.6900   -6.7131    0.0000 H   0  0  0  0  0  0  0  0  0  0  0  0
    1.4631   -7.5600    0.0000 H   0  0  0  0  0  0  0  0  0  0  0  0
    2.3100   -7.7869    0.0000 H   0  0  0  0  0  0  0  0  0  0  0  0
    5.7932    1.9400    0.0000 H   0  0  0  0  0  0  0  0  0  0  0  0
    8.5991    1.9400    0.0000 H   0  0  0  0  0  0  0  0  0  0  0  0
    5.7932    3.5600    0.0000 H   0  0  0  0  0  0  0  0  0  0  0  0
    8.5991    3.5600    0.0000 H   0  0  0  0  0  0  0  0  0  0  0  0
    8.5991    4.9400    0.0000 H   0  0  0  0  0  0  0  0  0  0  0  0
    5.7932    4.9400    0.0000 H   0  0  0  0  0  0  0  0  0  0  0  0
    8.5991    6.5600    0.0000 H   0  0  0  0  0  0  0  0  0  0  0  0
    5.7932    6.5600    0.0000 H   0  0  0  0  0  0  0  0  0  0  0  0
    7.8162    8.7500    0.0000 H   0  0  0  0  0  0  0  0  0  0  0  0
    7.1962    9.3700    0.0000 H   0  0  0  0  0  0  0  0  0  0  0  0
    6.5762    8.7500    0.0000 H   0  0  0  0  0  0  0  0  0  0  0  0
  1  4  2  0  0  0  0
  1  5  2  0  0  0  0
  1 32  1  0  0  0  0
  1 37  1  0  0  0  0
  2 18  1  0  0  0  0
  2 25  1  0  0  0  0
  3 23  2  0  0  0  0
  6  9  1  0  0  0  0
  6 10  1  0  0  0  0
  6 13  1  0  0  0  0
  7 11  1  0  0  0  0
  7 12  1  0  0  0  0
  7 15  1  0  0  0  0
  8 17  1  0  0  0  0
  8 23  1  0  0  0  0
  8 57  1  0  0  0  0
  9 11  1  0  0  0  0
  9 38  1  0  0  0  0
  9 39  1  0  0  0  0
 10 12  1  0  0  0  0
 10 40  1  0  0  0  0
 10 41  1  0  0  0  0
 11 42  1  0  0  0  0
 11 43  1  0  0  0  0
 12 44  1  0  0  0  0
 12 45  1  0  0  0  0
 13 14  1  0  0  0  0
 13 46  1  0  0  0  0
 13 47  1  0  0  0  0
 14 16  1  0  0  0  0
 14 48  1  0  0  0  0
 14 49  1  0  0  0  0
 15 18  1  0  0  0  0
 15 19  2  0  0  0  0
 16 17  1  0  0  0  0
 16 50  1  0  0  0  0
 16 51  1  0  0  0  0
 17 52  1  0  0  0  0
 17 53  1  0  0  0  0
 18 20  2  0  0  0  0
 19 21  1  0  0  0  0
 19 54  1  0  0  0  0
 20 22  1  0  0  0  0
 20 55  1  0  0  0  0
 21 22  2  0  0  0  0
 21 56  1  0  0  0  0
 22 58  1  0  0  0  0
 23 24  1  0  0  0  0
 24 26  2  0  0  0  0
 24 27  1  0  0  0  0
 25 59  1  0  0  0  0
 25 60  1  0  0  0  0
 25 61  1  0  0  0  0
 26 29  1  0  0  0  0
 26 62  1  0  0  0  0
 27 30  2  0  0  0  0
 27 63  1  0  0  0  0
 28 29  2  0  0  0  0
 28 30  1  0  0  0  0
 28 31  1  0  0  0  0
 29 64  1  0  0  0  0
 30 65  1  0  0  0  0
 31 33  2  0  0  0  0
 31 34  1  0  0  0  0
 32 35  2  0  0  0  0
 32 36  1  0  0  0  0
 33 35  1  0  0  0  0
 33 66  1  0  0  0  0
 34 36  2  0  0  0  0
 34 67  1  0  0  0  0
 35 68  1  0  0  0  0
 36 69  1  0  0  0  0
 37 70  1  0  0  0  0
 37 71  1  0  0  0  0
 37 72  1  0  0  0  0
M  END
> <PUBCHEM_COMPOUND_CID>
10052433

> <PUBCHEM_COMPOUND_CANONICALIZED>
1

> <PUBCHEM_CACTVS_COMPLEXITY>
793

> <PUBCHEM_CACTVS_HBOND_ACCEPTOR>
6

> <PUBCHEM_CACTVS_HBOND_DONOR>
1

> <PUBCHEM_CACTVS_ROTATABLE_BOND>
10

> <PUBCHEM_CACTVS_SUBSKEYS>
AAADcfB7OABAAAAAAAAAAAAAAAAAAAAAAAA8YMEAAAAAAAABUAAAHgQQAAAADAzB2Aayx4PABAqIAiVSUHDCCAAlKhAIiJkPbMgOZjLktZuVMShk1hHY6YeYyMCO0AAAAAAAEACgAAAAAAAgAAAAAAAAAA==

> <PUBCHEM_IUPAC_OPENEYE_NAME>
N-[4-[4-(2-methoxyphenyl)piperazin-1-yl]butyl]-4-(4-methylsulfonylphenyl)benzamide

> <PUBCHEM_IUPAC_CAS_NAME>
N-[4-[4-(2-methoxyphenyl)-1-piperazinyl]butyl]-4-(4-methylsulfonylphenyl)benzamide

> <PUBCHEM_IUPAC_NAME_MARKUP>
<I>N</I>-[4-[4-(2-methoxyphenyl)piperazin-1-yl]butyl]-4-(4-methylsulfonylphenyl)benzamide

> <PUBCHEM_IUPAC_NAME>
N-[4-[4-(2-methoxyphenyl)piperazin-1-yl]butyl]-4-(4-methylsulfonylphenyl)benzamide

> <PUBCHEM_IUPAC_SYSTEMATIC_NAME>
N-[4-[4-(2-methoxyphenyl)piperazin-1-yl]butyl]-4-(4-methylsulfonylphenyl)benzamide

> <PUBCHEM_IUPAC_TRADITIONAL_NAME>
4-(4-mesylphenyl)-N-[4-[4-(2-methoxyphenyl)piperazino]butyl]benzamide

> <PUBCHEM_IUPAC_INCHI>
InChI=1S/C29H35N3O4S/c1-36-28-8-4-3-7-27(28)32-21-19-31(20-22-32)18-6-5-17-30-29(33)25-11-9-23(10-12-25)24-13-15-26(16-14-24)37(2,34)35/h3-4,7-16H,5-6,17-22H2,1-2H3,(H,30,33)

> <PUBCHEM_IUPAC_INCHIKEY>
CWADTSDGYTVLDK-UHFFFAOYSA-N

> <PUBCHEM_XLOGP3_AA>
4.4

> <PUBCHEM_EXACT_MASS>
521.23482778

> <PUBCHEM_MOLECULAR_FORMULA>
C29H35N3O4S

> <PUBCHEM_MOLECULAR_WEIGHT>
521.7

> <PUBCHEM_OPENEYE_CAN_SMILES>
COC1=CC=CC=C1N2CCN(CC2)CCCCNC(=O)C3=CC=C(C=C3)C4=CC=C(C=C4)S(=O)(=O)C

> <PUBCHEM_OPENEYE_ISO_SMILES>
COC1=CC=CC=C1N2CCN(CC2)CCCCNC(=O)C3=CC=C(C=C3)C4=CC=C(C=C4)S(=O)(=O)C

> <PUBCHEM_CACTVS_TPSA>
87.3

> <PUBCHEM_MONOISOTOPIC_WEIGHT>
521.23482778

> <PUBCHEM_TOTAL_CHARGE>
0

> <PUBCHEM_HEAVY_ATOM_COUNT>
37

> <PUBCHEM_ATOM_DEF_STEREO_COUNT>
0

> <PUBCHEM_ATOM_UDEF_STEREO_COUNT>
0

> <PUBCHEM_BOND_DEF_STEREO_COUNT>
0

> <PUBCHEM_BOND_UDEF_STEREO_COUNT>
0

> <PUBCHEM_ISOTOPIC_ATOM_COUNT>
0

> <PUBCHEM_COMPONENT_COUNT>
1

> <PUBCHEM_CACTVS_TAUTO_COUNT>
-1

> <PUBCHEM_COORDINATE_TYPE>
1
5
255

> <PUBCHEM_BONDANNOTATIONS>
15  18  8
15  19  8
18  20  8
19  21  8
20  22  8
21  22  8
24  26  8
24  27  8
26  29  8
27  30  8
28  29  8
28  30  8
31  33  8
31  34  8
32  35  8
32  36  8
33  35  8
34  36  8

$$$$
