10479822
  -OEChem-09292322242D

 57 60  0     0  0  0  0  0  0999 V2000
   15.4939   -0.1160    0.0000 Cl  0  0  0  0  0  0  0  0  0  0  0  0
   17.4939   -0.1160    0.0000 Cl  0  0  0  0  0  0  0  0  0  0  0  0
    8.4939   -1.8481    0.0000 O   0  0  0  0  0  0  0  0  0  0  0  0
   12.4939    1.6160    0.0000 N   0  0  0  0  0  0  0  0  0  0  0  0
   14.4939    1.6160    0.0000 N   0  0  0  0  0  0  0  0  0  0  0  0
    8.4939   -0.1160    0.0000 N   0  0  0  0  0  0  0  0  0  0  0  0
    6.4103   -1.7868    0.0000 N   0  0  0  0  0  0  0  0  0  0  0  0
    2.0000   -2.4820    0.0000 N   0  0  0  0  0  0  0  0  0  0  0  0
   12.9939    0.7500    0.0000 C   0  0  0  0  0  0  0  0  0  0  0  0
   12.9939    2.4820    0.0000 C   0  0  0  0  0  0  0  0  0  0  0  0
   13.9939    0.7500    0.0000 C   0  0  0  0  0  0  0  0  0  0  0  0
   13.9939    2.4820    0.0000 C   0  0  0  0  0  0  0  0  0  0  0  0
   11.4939    1.6160    0.0000 C   0  0  0  0  0  0  0  0  0  0  0  0
   10.9939    0.7500    0.0000 C   0  0  0  0  0  0  0  0  0  0  0  0
    9.9939    0.7500    0.0000 C   0  0  0  0  0  0  0  0  0  0  0  0
   15.4939    1.6160    0.0000 C   0  0  0  0  0  0  0  0  0  0  0  0
    9.4939   -0.1160    0.0000 C   0  0  0  0  0  0  0  0  0  0  0  0
   15.9939    0.7500    0.0000 C   0  0  0  0  0  0  0  0  0  0  0  0
   15.9939    2.4820    0.0000 C   0  0  0  0  0  0  0  0  0  0  0  0
   16.9939    0.7500    0.0000 C   0  0  0  0  0  0  0  0  0  0  0  0
   16.9939    2.4820    0.0000 C   0  0  0  0  0  0  0  0  0  0  0  0
    7.9939   -0.9821    0.0000 C   0  0  0  0  0  0  0  0  0  0  0  0
   17.4939    1.6160    0.0000 C   0  0  0  0  0  0  0  0  0  0  0  0
    6.9939   -0.9821    0.0000 C   0  0  0  0  0  0  0  0  0  0  0  0
    5.4641   -1.4820    0.0000 C   0  0  0  0  0  0  0  0  0  0  0  0
    5.4641   -0.4821    0.0000 C   0  0  0  0  0  0  0  0  0  0  0  0
    6.4103   -0.1773    0.0000 C   0  0  0  0  0  0  0  0  0  0  0  0
    4.5981   -1.9820    0.0000 C   0  0  0  0  0  0  0  0  0  0  0  0
    4.5981    0.0179    0.0000 C   0  0  0  0  0  0  0  0  0  0  0  0
    3.7320   -1.4820    0.0000 C   0  0  0  0  0  0  0  0  0  0  0  0
    3.7320   -0.4821    0.0000 C   0  0  0  0  0  0  0  0  0  0  0  0
    2.8660   -1.9820    0.0000 C   0  0  0  0  0  0  0  0  0  0  0  0
   12.4113    0.5379    0.0000 H   0  0  0  0  0  0  0  0  0  0  0  0
   13.1016    0.1394    0.0000 H   0  0  0  0  0  0  0  0  0  0  0  0
   13.1016    3.0926    0.0000 H   0  0  0  0  0  0  0  0  0  0  0  0
   12.4113    2.6941    0.0000 H   0  0  0  0  0  0  0  0  0  0  0  0
   13.8863    0.1394    0.0000 H   0  0  0  0  0  0  0  0  0  0  0  0
   14.5765    0.5379    0.0000 H   0  0  0  0  0  0  0  0  0  0  0  0
   14.5765    2.6941    0.0000 H   0  0  0  0  0  0  0  0  0  0  0  0
   13.8863    3.0926    0.0000 H   0  0  0  0  0  0  0  0  0  0  0  0
   11.6016    2.2266    0.0000 H   0  0  0  0  0  0  0  0  0  0  0  0
   10.9113    1.8281    0.0000 H   0  0  0  0  0  0  0  0  0  0  0  0
   10.8863    0.1394    0.0000 H   0  0  0  0  0  0  0  0  0  0  0  0
   11.5765    0.5379    0.0000 H   0  0  0  0  0  0  0  0  0  0  0  0
   10.1016    1.3606    0.0000 H   0  0  0  0  0  0  0  0  0  0  0  0
    9.4113    0.9621    0.0000 H   0  0  0  0  0  0  0  0  0  0  0  0
    9.3863   -0.7266    0.0000 H   0  0  0  0  0  0  0  0  0  0  0  0
   10.0765   -0.3281    0.0000 H   0  0  0  0  0  0  0  0  0  0  0  0
   15.6839    3.0190    0.0000 H   0  0  0  0  0  0  0  0  0  0  0  0
    8.1839    0.4209    0.0000 H   0  0  0  0  0  0  0  0  0  0  0  0
   17.3039    3.0190    0.0000 H   0  0  0  0  0  0  0  0  0  0  0  0
   18.1139    1.6160    0.0000 H   0  0  0  0  0  0  0  0  0  0  0  0
    6.6029   -2.3761    0.0000 H   0  0  0  0  0  0  0  0  0  0  0  0
    6.6029    0.4120    0.0000 H   0  0  0  0  0  0  0  0  0  0  0  0
    4.5981   -2.6021    0.0000 H   0  0  0  0  0  0  0  0  0  0  0  0
    4.5981    0.6379    0.0000 H   0  0  0  0  0  0  0  0  0  0  0  0
    3.1951   -0.1721    0.0000 H   0  0  0  0  0  0  0  0  0  0  0  0
  1 18  1  0  0  0  0
  2 20  1  0  0  0  0
  3 22  2  0  0  0  0
  4  9  1  0  0  0  0
  4 10  1  0  0  0  0
  4 13  1  0  0  0  0
  5 11  1  0  0  0  0
  5 12  1  0  0  0  0
  5 16  1  0  0  0  0
  6 17  1  0  0  0  0
  6 22  1  0  0  0  0
  6 50  1  0  0  0  0
  7 24  1  0  0  0  0
  7 25  1  0  0  0  0
  7 53  1  0  0  0  0
  8 32  3  0  0  0  0
  9 11  1  0  0  0  0
  9 33  1  0  0  0  0
  9 34  1  0  0  0  0
 10 12  1  0  0  0  0
 10 35  1  0  0  0  0
 10 36  1  0  0  0  0
 11 37  1  0  0  0  0
 11 38  1  0  0  0  0
 12 39  1  0  0  0  0
 12 40  1  0  0  0  0
 13 14  1  0  0  0  0
 13 41  1  0  0  0  0
 13 42  1  0  0  0  0
 14 15  1  0  0  0  0
 14 43  1  0  0  0  0
 14 44  1  0  0  0  0
 15 17  1  0  0  0  0
 15 45  1  0  0  0  0
 15 46  1  0  0  0  0
 16 18  2  0  0  0  0
 16 19  1  0  0  0  0
 17 47  1  0  0  0  0
 17 48  1  0  0  0  0
 18 20  1  0  0  0  0
 19 21  2  0  0  0  0
 19 49  1  0  0  0  0
 20 23  2  0  0  0  0
 21 23  1  0  0  0  0
 21 51  1  0  0  0  0
 22 24  1  0  0  0  0
 23 52  1  0  0  0  0
 24 27  2  0  0  0  0
 25 26  2  0  0  0  0
 25 28  1  0  0  0  0
 26 27  1  0  0  0  0
 26 29  1  0  0  0  0
 27 54  1  0  0  0  0
 28 30  2  0  0  0  0
 28 55  1  0  0  0  0
 29 31  2  0  0  0  0
 29 56  1  0  0  0  0
 30 31  1  0  0  0  0
 30 32  1  0  0  0  0
 31 57  1  0  0  0  0
M  END
> <PUBCHEM_COMPOUND_CID>
10479822

> <PUBCHEM_COMPOUND_CANONICALIZED>
1

> <PUBCHEM_CACTVS_COMPLEXITY>
677

> <PUBCHEM_CACTVS_HBOND_ACCEPTOR>
4

> <PUBCHEM_CACTVS_HBOND_DONOR>
2

> <PUBCHEM_CACTVS_ROTATABLE_BOND>
7

> <PUBCHEM_CACTVS_SUBSKEYS>
AAADceB7oAAGAAAAAAAAAAAAAAAAAWAAAAA8YIAAAAAAAFgB9AAAHgIQAAAADArBniQwwPPJkAC4ByVyVACigCAnByAIm+G4ZtgI4PLBl7HUIQhglgDIyY8YicCeQAAAQAICABSAAACABAQAKAAAAAAAAA==

> <PUBCHEM_IUPAC_OPENEYE_NAME>
6-cyano-N-[4-[4-(2,3-dichlorophenyl)piperazin-1-yl]butyl]-1H-indole-2-carboxamide

> <PUBCHEM_IUPAC_CAS_NAME>
6-cyano-N-[4-[4-(2,3-dichlorophenyl)-1-piperazinyl]butyl]-1H-indole-2-carboxamide

> <PUBCHEM_IUPAC_NAME_MARKUP>
6-cyano-<I>N</I>-[4-[4-(2,3-dichlorophenyl)piperazin-1-yl]butyl]-1<I>H</I>-indole-2-carboxamide

> <PUBCHEM_IUPAC_NAME>
6-cyano-N-[4-[4-(2,3-dichlorophenyl)piperazin-1-yl]butyl]-1H-indole-2-carboxamide

> <PUBCHEM_IUPAC_SYSTEMATIC_NAME>
N-[4-[4-[2,3-bis(chloranyl)phenyl]piperazin-1-yl]butyl]-6-cyano-1H-indole-2-carboxamide

> <PUBCHEM_IUPAC_TRADITIONAL_NAME>
6-cyano-N-[4-[4-(2,3-dichlorophenyl)piperazino]butyl]-1H-indole-2-carboxamide

> <PUBCHEM_IUPAC_INCHI>
InChI=1S/C24H25Cl2N5O/c25-19-4-3-5-22(23(19)26)31-12-10-30(11-13-31)9-2-1-8-28-24(32)21-15-18-7-6-17(16-27)14-20(18)29-21/h3-7,14-15,29H,1-2,8-13H2,(H,28,32)

> <PUBCHEM_IUPAC_INCHIKEY>
AUBVMUJWPOHAEW-UHFFFAOYSA-N

> <PUBCHEM_XLOGP3_AA>
5

> <PUBCHEM_EXACT_MASS>
469.1436158

> <PUBCHEM_MOLECULAR_FORMULA>
C24H25Cl2N5O

> <PUBCHEM_MOLECULAR_WEIGHT>
470.4

> <PUBCHEM_OPENEYE_CAN_SMILES>
C1CN(CCN1CCCCNC(=O)C2=CC3=C(N2)C=C(C=C3)C#N)C4=C(C(=CC=C4)Cl)Cl

> <PUBCHEM_OPENEYE_ISO_SMILES>
C1CN(CCN1CCCCNC(=O)C2=CC3=C(N2)C=C(C=C3)C#N)C4=C(C(=CC=C4)Cl)Cl

> <PUBCHEM_CACTVS_TPSA>
75.2

> <PUBCHEM_MONOISOTOPIC_WEIGHT>
469.1436158

> <PUBCHEM_TOTAL_CHARGE>
0

> <PUBCHEM_HEAVY_ATOM_COUNT>
32

> <PUBCHEM_ATOM_DEF_STEREO_COUNT>
0

> <PUBCHEM_ATOM_UDEF_STEREO_COUNT>
0

> <PUBCHEM_BOND_DEF_STEREO_COUNT>
0

> <PUBCHEM_BOND_UDEF_STEREO_COUNT>
0

> <PUBCHEM_ISOTOPIC_ATOM_COUNT>
0

> <PUBCHEM_COMPONENT_COUNT>
1

> <PUBCHEM_CACTVS_TAUTO_COUNT>
-1

> <PUBCHEM_COORDINATE_TYPE>
1
5
255

> <PUBCHEM_BONDANNOTATIONS>
16  18  8
16  19  8
18  20  8
19  21  8
20  23  8
21  23  8
24  27  8
25  26  8
25  28  8
26  27  8
26  29  8
28  30  8
29  31  8
30  31  8
7  24  8
7  25  8

$$$$
