155529568
  -OEChem-09292322402D

 52 54  0     0  0  0  0  0  0999 V2000
    7.1962    6.7500    0.0000 F   0  0  0  0  0  0  0  0  0  0  0  0
    2.8660   -4.7500    0.0000 O   0  0  0  0  0  0  0  0  0  0  0  0
    7.1962    0.7500    0.0000 O   0  0  0  0  0  0  0  0  0  0  0  0
    4.5981   -1.7500    0.0000 N   0  0  0  0  0  0  0  0  0  0  0  0
    4.5981   -3.7500    0.0000 N   0  0  0  0  0  0  0  0  0  0  0  0
    5.4641    0.7500    0.0000 N   0  0  0  0  0  0  0  0  0  0  0  0
    6.3301    2.2500    0.0000 N   0  0  0  0  0  0  0  0  0  0  0  0
    7.1962    2.7500    0.0000 N   0  0  0  0  0  0  0  0  0  0  0  0
    5.4641   -2.2500    0.0000 C   0  0  0  0  0  0  0  0  0  0  0  0
    3.7320   -2.2500    0.0000 C   0  0  0  0  0  0  0  0  0  0  0  0
    5.4641   -3.2500    0.0000 C   0  0  0  0  0  0  0  0  0  0  0  0
    3.7320   -3.2500    0.0000 C   0  0  0  0  0  0  0  0  0  0  0  0
    4.5981   -0.7500    0.0000 C   0  0  0  0  0  0  0  0  0  0  0  0
    4.5981   -4.7500    0.0000 C   0  0  0  0  0  0  0  0  0  0  0  0
    5.4641   -0.2500    0.0000 C   0  0  0  0  0  0  0  0  0  0  0  0
    3.7320   -5.2500    0.0000 C   0  0  0  0  0  0  0  0  0  0  0  0
    5.4641   -5.2500    0.0000 C   0  0  0  0  0  0  0  0  0  0  0  0
    3.7320   -6.2500    0.0000 C   0  0  0  0  0  0  0  0  0  0  0  0
    5.4641   -6.2500    0.0000 C   0  0  0  0  0  0  0  0  0  0  0  0
    4.5981   -6.7500    0.0000 C   0  0  0  0  0  0  0  0  0  0  0  0
    6.3301    1.2500    0.0000 C   0  0  0  0  0  0  0  0  0  0  0  0
    2.0000   -5.2500    0.0000 C   0  0  0  0  0  0  0  0  0  0  0  0
    7.1962    3.7500    0.0000 C   0  0  0  0  0  0  0  0  0  0  0  0
    8.0622    4.2500    0.0000 C   0  0  0  0  0  0  0  0  0  0  0  0
    6.3301    4.2500    0.0000 C   0  0  0  0  0  0  0  0  0  0  0  0
    8.0622    5.2500    0.0000 C   0  0  0  0  0  0  0  0  0  0  0  0
    6.3301    5.2500    0.0000 C   0  0  0  0  0  0  0  0  0  0  0  0
    7.1962    5.7500    0.0000 C   0  0  0  0  0  0  0  0  0  0  0  0
    6.0747   -2.3577    0.0000 H   0  0  0  0  0  0  0  0  0  0  0  0
    5.6762   -1.6674    0.0000 H   0  0  0  0  0  0  0  0  0  0  0  0
    3.5200   -1.6674    0.0000 H   0  0  0  0  0  0  0  0  0  0  0  0
    3.1215   -2.3577    0.0000 H   0  0  0  0  0  0  0  0  0  0  0  0
    5.6762   -3.8326    0.0000 H   0  0  0  0  0  0  0  0  0  0  0  0
    6.0747   -3.1423    0.0000 H   0  0  0  0  0  0  0  0  0  0  0  0
    3.1215   -3.1423    0.0000 H   0  0  0  0  0  0  0  0  0  0  0  0
    3.5200   -3.8326    0.0000 H   0  0  0  0  0  0  0  0  0  0  0  0
    4.3860   -0.1674    0.0000 H   0  0  0  0  0  0  0  0  0  0  0  0
    3.9875   -0.8577    0.0000 H   0  0  0  0  0  0  0  0  0  0  0  0
    5.6762   -0.8326    0.0000 H   0  0  0  0  0  0  0  0  0  0  0  0
    6.0747   -0.1423    0.0000 H   0  0  0  0  0  0  0  0  0  0  0  0
    6.0010   -4.9400    0.0000 H   0  0  0  0  0  0  0  0  0  0  0  0
    4.9272    1.0600    0.0000 H   0  0  0  0  0  0  0  0  0  0  0  0
    3.1951   -6.5600    0.0000 H   0  0  0  0  0  0  0  0  0  0  0  0
    6.0010   -6.5600    0.0000 H   0  0  0  0  0  0  0  0  0  0  0  0
    4.5981   -7.3700    0.0000 H   0  0  0  0  0  0  0  0  0  0  0  0
    1.6900   -4.7131    0.0000 H   0  0  0  0  0  0  0  0  0  0  0  0
    1.4631   -5.5600    0.0000 H   0  0  0  0  0  0  0  0  0  0  0  0
    2.3100   -5.7869    0.0000 H   0  0  0  0  0  0  0  0  0  0  0  0
    8.5991    3.9400    0.0000 H   0  0  0  0  0  0  0  0  0  0  0  0
    5.7932    3.9400    0.0000 H   0  0  0  0  0  0  0  0  0  0  0  0
    8.5991    5.5600    0.0000 H   0  0  0  0  0  0  0  0  0  0  0  0
    5.7932    5.5600    0.0000 H   0  0  0  0  0  0  0  0  0  0  0  0
  1 28  1  0  0  0  0
  2 16  1  0  0  0  0
  2 22  1  0  0  0  0
  3 21  2  0  0  0  0
  4  9  1  0  0  0  0
  4 10  1  0  0  0  0
  4 13  1  0  0  0  0
  5 11  1  0  0  0  0
  5 12  1  0  0  0  0
  5 14  1  0  0  0  0
  6 15  1  0  0  0  0
  6 21  1  0  0  0  0
  6 42  1  0  0  0  0
  7  8  2  0  0  0  0
  7 21  1  0  0  0  0
  8 23  1  0  0  0  0
  9 11  1  0  0  0  0
  9 29  1  0  0  0  0
  9 30  1  0  0  0  0
 10 12  1  0  0  0  0
 10 31  1  0  0  0  0
 10 32  1  0  0  0  0
 11 33  1  0  0  0  0
 11 34  1  0  0  0  0
 12 35  1  0  0  0  0
 12 36  1  0  0  0  0
 13 15  1  0  0  0  0
 13 37  1  0  0  0  0
 13 38  1  0  0  0  0
 14 16  1  0  0  0  0
 14 17  2  0  0  0  0
 15 39  1  0  0  0  0
 15 40  1  0  0  0  0
 16 18  2  0  0  0  0
 17 19  1  0  0  0  0
 17 41  1  0  0  0  0
 18 20  1  0  0  0  0
 18 43  1  0  0  0  0
 19 20  2  0  0  0  0
 19 44  1  0  0  0  0
 20 45  1  0  0  0  0
 22 46  1  0  0  0  0
 22 47  1  0  0  0  0
 22 48  1  0  0  0  0
 23 24  2  0  0  0  0
 23 25  1  0  0  0  0
 24 26  1  0  0  0  0
 24 49  1  0  0  0  0
 25 27  2  0  0  0  0
 25 50  1  0  0  0  0
 26 28  2  0  0  0  0
 26 51  1  0  0  0  0
 27 28  1  0  0  0  0
 27 52  1  0  0  0  0
M  END
> <PUBCHEM_COMPOUND_CID>
155529568

> <PUBCHEM_COMPOUND_CANONICALIZED>
1

> <PUBCHEM_CACTVS_COMPLEXITY>
505

> <PUBCHEM_CACTVS_HBOND_ACCEPTOR>
6

> <PUBCHEM_CACTVS_HBOND_DONOR>
1

> <PUBCHEM_CACTVS_ROTATABLE_BOND>
6

> <PUBCHEM_CACTVS_SUBSKEYS>
AAADceB7sQAAAAAAAAAAAAAAAAAAAAAAAAA8YIAAAAAAAAABQAAAHwAYAAAACAzBkA4zxoPABACKACRCUACCCAAhIgAIiIAPbIiOZiLEsZuVMChk1hPY6AeQQAAAAAAAAAAAEAAAAAAAAAAgAAAAAAAAAA==

> <PUBCHEM_IUPAC_OPENEYE_NAME>
1-(4-fluorophenyl)imino-3-[2-[4-(2-methoxyphenyl)piperazin-1-yl]ethyl]urea

> <PUBCHEM_IUPAC_CAS_NAME>
1-(4-fluorophenyl)imino-3-[2-[4-(2-methoxyphenyl)-1-piperazinyl]ethyl]urea

> <PUBCHEM_IUPAC_NAME_MARKUP>
1-(4-fluorophenyl)imino-3-[2-[4-(2-methoxyphenyl)piperazin-1-yl]ethyl]urea

> <PUBCHEM_IUPAC_NAME>
1-(4-fluorophenyl)imino-3-[2-[4-(2-methoxyphenyl)piperazin-1-yl]ethyl]urea

> <PUBCHEM_IUPAC_SYSTEMATIC_NAME>
1-(4-fluorophenyl)imino-3-[2-[4-(2-methoxyphenyl)piperazin-1-yl]ethyl]urea

> <PUBCHEM_IUPAC_TRADITIONAL_NAME>
1-(4-fluorophenyl)imino-3-[2-[4-(2-methoxyphenyl)piperazino]ethyl]urea

> <PUBCHEM_IUPAC_INCHI>
InChI=1S/C20H24FN5O2/c1-28-19-5-3-2-4-18(19)26-14-12-25(13-15-26)11-10-22-20(27)24-23-17-8-6-16(21)7-9-17/h2-9H,10-15H2,1H3,(H,22,27)

> <PUBCHEM_IUPAC_INCHIKEY>
OTKMHDVPFOECAQ-UHFFFAOYSA-N

> <PUBCHEM_XLOGP3_AA>
3.5

> <PUBCHEM_EXACT_MASS>
385.19140319

> <PUBCHEM_MOLECULAR_FORMULA>
C20H24FN5O2

> <PUBCHEM_MOLECULAR_WEIGHT>
385.4

> <PUBCHEM_OPENEYE_CAN_SMILES>
COC1=CC=CC=C1N2CCN(CC2)CCNC(=O)N=NC3=CC=C(C=C3)F

> <PUBCHEM_OPENEYE_ISO_SMILES>
COC1=CC=CC=C1N2CCN(CC2)CCNC(=O)N=NC3=CC=C(C=C3)F

> <PUBCHEM_CACTVS_TPSA>
69.5

> <PUBCHEM_MONOISOTOPIC_WEIGHT>
385.19140319

> <PUBCHEM_TOTAL_CHARGE>
0

> <PUBCHEM_HEAVY_ATOM_COUNT>
28

> <PUBCHEM_ATOM_DEF_STEREO_COUNT>
0

> <PUBCHEM_ATOM_UDEF_STEREO_COUNT>
0

> <PUBCHEM_BOND_DEF_STEREO_COUNT>
0

> <PUBCHEM_BOND_UDEF_STEREO_COUNT>
0

> <PUBCHEM_ISOTOPIC_ATOM_COUNT>
0

> <PUBCHEM_COMPONENT_COUNT>
1

> <PUBCHEM_CACTVS_TAUTO_COUNT>
-1

> <PUBCHEM_COORDINATE_TYPE>
1
5
255

> <PUBCHEM_BONDANNOTATIONS>
14  16  8
14  17  8
16  18  8
17  19  8
18  20  8
19  20  8
23  24  8
23  25  8
24  26  8
25  27  8
26  28  8
27  28  8

$$$$
