45261738
  -OEChem-09292322132D

 60 62  0     0  0  0  0  0  0999 V2000
    9.2031    5.0444    0.0000 Cl  0  0  0  0  0  0  0  0  0  0  0  0
    0.5901    6.4030    0.0000 O   0  0  0  0  0  0  0  0  0  0  0  0
    2.3222    4.4030    0.0000 N   0  0  0  0  0  0  0  0  0  0  0  0
    2.3222    6.4030    0.0000 C   0  0  0  0  0  0  0  0  0  0  0  0
    1.4562    5.9030    0.0000 C   0  0  0  0  0  0  0  0  0  0  0  0
    3.1882    5.9030    0.0000 C   0  0  0  0  0  0  0  0  0  0  0  0
    3.1882    6.9030    0.0000 C   0  0  0  0  0  0  0  0  0  0  0  0
    1.4562    4.9030    0.0000 C   0  0  0  0  0  0  0  0  0  0  0  0
    3.1882    4.9030    0.0000 C   0  0  0  0  0  0  0  0  0  0  0  0
    1.4562    6.9030    0.0000 C   0  0  0  0  0  0  0  0  0  0  0  0
    3.1882    7.9030    0.0000 C   0  0  0  0  0  0  0  0  0  0  0  0
    1.4562    7.9030    0.0000 C   0  0  0  0  0  0  0  0  0  0  0  0
    2.3222    8.4030    0.0000 C   0  0  0  0  0  0  0  0  0  0  0  0
    2.3222    3.4030    0.0000 C   0  0  0  0  0  0  0  0  0  0  0  0
    0.5462    8.4098    0.0000 C   0  0  0  0  0  0  0  0  0  0  0  0
    2.3382    9.4445    0.0000 C   0  0  0  0  0  0  0  0  0  0  0  0
    3.1882    2.9030    0.0000 C   0  0  0  0  0  0  0  0  0  0  0  0
    0.5381    9.4514    0.0000 C   0  0  0  0  0  0  0  0  0  0  0  0
    1.4402    9.9722    0.0000 C   0  0  0  0  0  0  0  0  0  0  0  0
    3.1882    1.9030    0.0000 C   0  0  0  0  0  0  0  0  0  0  0  0
    4.0542    3.4030    0.0000 C   0  0  0  0  0  0  0  0  0  0  0  0
    5.7863    1.4030    0.0000 C   0  0  0  0  0  0  0  0  0  0  0  0
    4.9203    1.9030    0.0000 C   0  0  0  0  0  0  0  0  0  0  0  0
    4.0542    1.4030    0.0000 C   0  0  0  0  0  0  0  0  0  0  0  0
    4.9203    2.9030    0.0000 C   0  0  0  0  0  0  0  0  0  0  0  0
    6.6523    0.9030    0.0000 C   0  0  0  0  0  0  0  0  0  0  0  0
    5.2863    0.5369    0.0000 C   0  0  0  0  0  0  0  0  0  0  0  0
    6.2863    2.2690    0.0000 C   0  0  0  0  0  0  0  0  0  0  0  0
    1.2441    6.4856    0.0000 H   0  0  0  0  0  0  0  0  0  0  0  0
    0.8456    5.7953    0.0000 H   0  0  0  0  0  0  0  0  0  0  0  0
    3.7988    5.7953    0.0000 H   0  0  0  0  0  0  0  0  0  0  0  0
    3.4003    6.4856    0.0000 H   0  0  0  0  0  0  0  0  0  0  0  0
    3.4003    6.3204    0.0000 H   0  0  0  0  0  0  0  0  0  0  0  0
    3.7988    7.0106    0.0000 H   0  0  0  0  0  0  0  0  0  0  0  0
    0.8456    5.0106    0.0000 H   0  0  0  0  0  0  0  0  0  0  0  0
    1.2441    4.3204    0.0000 H   0  0  0  0  0  0  0  0  0  0  0  0
    3.4003    4.3204    0.0000 H   0  0  0  0  0  0  0  0  0  0  0  0
    3.7988    5.0106    0.0000 H   0  0  0  0  0  0  0  0  0  0  0  0
    3.7988    7.7953    0.0000 H   0  0  0  0  0  0  0  0  0  0  0  0
    3.4003    8.4856    0.0000 H   0  0  0  0  0  0  0  0  0  0  0  0
    1.7116    3.5106    0.0000 H   0  0  0  0  0  0  0  0  0  0  0  0
    2.1101    2.8204    0.0000 H   0  0  0  0  0  0  0  0  0  0  0  0
    0.0128    8.0936    0.0000 H   0  0  0  0  0  0  0  0  0  0  0  0
    2.8787    9.7482    0.0000 H   0  0  0  0  0  0  0  0  0  0  0  0
    0.0000    9.7593    0.0000 H   0  0  0  0  0  0  0  0  0  0  0  0
    1.4426   10.5922    0.0000 H   0  0  0  0  0  0  0  0  0  0  0  0
    2.6513    1.5930    0.0000 H   0  0  0  0  0  0  0  0  0  0  0  0
    4.0542    4.0230    0.0000 H   0  0  0  0  0  0  0  0  0  0  0  0
    4.0542    0.7830    0.0000 H   0  0  0  0  0  0  0  0  0  0  0  0
    5.4572    3.2130    0.0000 H   0  0  0  0  0  0  0  0  0  0  0  0
    6.3423    0.3660    0.0000 H   0  0  0  0  0  0  0  0  0  0  0  0
    7.1892    0.5930    0.0000 H   0  0  0  0  0  0  0  0  0  0  0  0
    6.9623    1.4399    0.0000 H   0  0  0  0  0  0  0  0  0  0  0  0
    4.7494    0.8469    0.0000 H   0  0  0  0  0  0  0  0  0  0  0  0
    4.9763    0.0000    0.0000 H   0  0  0  0  0  0  0  0  0  0  0  0
    5.8232    0.2269    0.0000 H   0  0  0  0  0  0  0  0  0  0  0  0
    6.8232    1.9590    0.0000 H   0  0  0  0  0  0  0  0  0  0  0  0
    6.5963    2.8059    0.0000 H   0  0  0  0  0  0  0  0  0  0  0  0
    5.7494    2.5790    0.0000 H   0  0  0  0  0  0  0  0  0  0  0  0
   10.2031    5.0444    0.0000 H   0  0  0  0  0  0  0  0  0  0  0  0
  1 60  1  0  0  0  0
  2 10  2  0  0  0  0
  3  8  1  0  0  0  0
  3  9  1  0  0  0  0
  3 14  1  0  0  0  0
  4  5  1  0  0  0  0
  4  6  1  0  0  0  0
  4  7  1  0  0  0  0
  4 10  1  0  0  0  0
  5  8  1  0  0  0  0
  5 29  1  0  0  0  0
  5 30  1  0  0  0  0
  6  9  1  0  0  0  0
  6 31  1  0  0  0  0
  6 32  1  0  0  0  0
  7 11  1  0  0  0  0
  7 33  1  0  0  0  0
  7 34  1  0  0  0  0
  8 35  1  0  0  0  0
  8 36  1  0  0  0  0
  9 37  1  0  0  0  0
  9 38  1  0  0  0  0
 10 12  1  0  0  0  0
 11 13  1  0  0  0  0
 11 39  1  0  0  0  0
 11 40  1  0  0  0  0
 12 13  1  0  0  0  0
 12 15  2  0  0  0  0
 13 16  2  0  0  0  0
 14 17  1  0  0  0  0
 14 41  1  0  0  0  0
 14 42  1  0  0  0  0
 15 18  1  0  0  0  0
 15 43  1  0  0  0  0
 16 19  1  0  0  0  0
 16 44  1  0  0  0  0
 17 20  2  0  0  0  0
 17 21  1  0  0  0  0
 18 19  2  0  0  0  0
 18 45  1  0  0  0  0
 19 46  1  0  0  0  0
 20 24  1  0  0  0  0
 20 47  1  0  0  0  0
 21 25  2  0  0  0  0
 21 48  1  0  0  0  0
 22 23  1  0  0  0  0
 22 26  1  0  0  0  0
 22 27  1  0  0  0  0
 22 28  1  0  0  0  0
 23 24  2  0  0  0  0
 23 25  1  0  0  0  0
 24 49  1  0  0  0  0
 25 50  1  0  0  0  0
 26 51  1  0  0  0  0
 26 52  1  0  0  0  0
 26 53  1  0  0  0  0
 27 54  1  0  0  0  0
 27 55  1  0  0  0  0
 27 56  1  0  0  0  0
 28 57  1  0  0  0  0
 28 58  1  0  0  0  0
 28 59  1  0  0  0  0
M  END
> <PUBCHEM_COMPOUND_CID>
45261738

> <PUBCHEM_COMPOUND_CANONICALIZED>
1

> <PUBCHEM_CACTVS_COMPLEXITY>
517

> <PUBCHEM_CACTVS_HBOND_ACCEPTOR>
2

> <PUBCHEM_CACTVS_HBOND_DONOR>
1

> <PUBCHEM_CACTVS_ROTATABLE_BOND>
3

> <PUBCHEM_CACTVS_SUBSKEYS>
AAADcfB6IAAEAAAAAAAAAAAAAAAAAAAAAAA8YMEAAAAAAADBQAAAHgAAAAAADgTBmAQyAIMAAACIAqBSAACCAAAkAAAIiAEIBMgIIDKAlRGEIQhggACIiYcciMCPwAAAAAAQAACAAAQAACAAAAAAAAAAAA==

> <PUBCHEM_IUPAC_OPENEYE_NAME>
1-[(4-tert-butylphenyl)methyl]spiro[piperidine-4,2'-tetralin]-1'-one;hydrochloride

> <PUBCHEM_IUPAC_CAS_NAME>
1'-[(4-tert-butylphenyl)methyl]-1-spiro[3,4-dihydronaphthalene-2,4'-piperidine]one;hydrochloride

> <PUBCHEM_IUPAC_NAME_MARKUP>
1&apos;-[(4-<I>tert</I>-butylphenyl)methyl]spiro[3,4-dihydronaphthalene-2,4&apos;-piperidine]-1-one;hydrochloride

> <PUBCHEM_IUPAC_NAME>
1'-[(4-tert-butylphenyl)methyl]spiro[3,4-dihydronaphthalene-2,4'-piperidine]-1-one;hydrochloride

> <PUBCHEM_IUPAC_SYSTEMATIC_NAME>
1'-[(4-tert-butylphenyl)methyl]spiro[3,4-dihydronaphthalene-2,4'-piperidine]-1-one;hydrochloride

> <PUBCHEM_IUPAC_TRADITIONAL_NAME>
1-(4-tert-butylbenzyl)spiro[piperidine-4,2'-tetralin]-1'-one;hydrochloride

> <PUBCHEM_IUPAC_INCHI>
InChI=1S/C25H31NO.ClH/c1-24(2,3)21-10-8-19(9-11-21)18-26-16-14-25(15-17-26)13-12-20-6-4-5-7-22(20)23(25)27;/h4-11H,12-18H2,1-3H3;1H

> <PUBCHEM_IUPAC_INCHIKEY>
RMNALUXJWOCIAE-UHFFFAOYSA-N

> <PUBCHEM_EXACT_MASS>
397.2172423

> <PUBCHEM_MOLECULAR_FORMULA>
C25H32ClNO

> <PUBCHEM_MOLECULAR_WEIGHT>
398.0

> <PUBCHEM_OPENEYE_CAN_SMILES>
CC(C)(C)C1=CC=C(C=C1)CN2CCC3(CCC4=CC=CC=C4C3=O)CC2.Cl

> <PUBCHEM_OPENEYE_ISO_SMILES>
CC(C)(C)C1=CC=C(C=C1)CN2CCC3(CCC4=CC=CC=C4C3=O)CC2.Cl

> <PUBCHEM_CACTVS_TPSA>
20.3

> <PUBCHEM_MONOISOTOPIC_WEIGHT>
397.2172423

> <PUBCHEM_TOTAL_CHARGE>
0

> <PUBCHEM_HEAVY_ATOM_COUNT>
28

> <PUBCHEM_ATOM_DEF_STEREO_COUNT>
0

> <PUBCHEM_ATOM_UDEF_STEREO_COUNT>
0

> <PUBCHEM_BOND_DEF_STEREO_COUNT>
0

> <PUBCHEM_BOND_UDEF_STEREO_COUNT>
0

> <PUBCHEM_ISOTOPIC_ATOM_COUNT>
0

> <PUBCHEM_COMPONENT_COUNT>
2

> <PUBCHEM_CACTVS_TAUTO_COUNT>
-1

> <PUBCHEM_COORDINATE_TYPE>
1
5
255

> <PUBCHEM_BONDANNOTATIONS>
12  13  8
12  15  8
13  16  8
15  18  8
16  19  8
17  20  8
17  21  8
18  19  8
20  24  8
21  25  8
23  24  8
23  25  8

$$$$
