24829343
  -OEChem-09292322242D

 59 62  0     1  0  0  0  0  0999 V2000
   12.6290    4.7328    0.0000 Cl  0  0  0  0  0  0  0  0  0  0  0  0
    2.0000   -4.3388    0.0000 F   0  0  0  0  0  0  0  0  0  0  0  0
    7.1279   -3.3388    0.0000 O   0  0  0  0  0  0  0  0  0  0  0  0
    7.7688    1.2145    0.0000 N   0  0  0  0  0  0  0  0  0  0  0  0
    5.5443   -4.1435    0.0000 N   0  0  0  0  0  0  0  0  0  0  0  0
    9.3888    2.3873    0.0000 N   0  0  0  0  0  0  0  0  0  0  0  0
    5.5443   -2.5340    0.0000 C   0  0  3  0  0  0  0  0  0  0  0  0
    6.3543   -1.9476    0.0000 C   0  0  0  0  0  0  0  0  0  0  0  0
    6.2515   -0.9530    0.0000 C   0  0  0  0  0  0  0  0  0  0  0  0
    4.5981   -2.8388    0.0000 C   0  0  0  0  0  0  0  0  0  0  0  0
    5.2369   -1.5824    0.0000 C   0  0  0  0  0  0  0  0  0  0  0  0
    7.0616   -0.3666    0.0000 C   0  0  0  0  0  0  0  0  0  0  0  0
    6.1279   -3.3388    0.0000 C   0  0  0  0  0  0  0  0  0  0  0  0
    6.9588    0.6281    0.0000 C   0  0  0  0  0  0  0  0  0  0  0  0
    4.5981   -3.8388    0.0000 C   0  0  0  0  0  0  0  0  0  0  0  0
    8.6816    0.8062    0.0000 C   0  0  0  0  0  0  0  0  0  0  0  0
    7.6660    2.2092    0.0000 C   0  0  0  0  0  0  0  0  0  0  0  0
    9.4916    1.3926    0.0000 C   0  0  0  0  0  0  0  0  0  0  0  0
    8.4760    2.7956    0.0000 C   0  0  0  0  0  0  0  0  0  0  0  0
    4.2591   -1.3728    0.0000 C   0  0  0  0  0  0  0  0  0  0  0  0
    3.7320   -2.3388    0.0000 C   0  0  0  0  0  0  0  0  0  0  0  0
    3.7320   -4.3388    0.0000 C   0  0  0  0  0  0  0  0  0  0  0  0
    2.8660   -2.8388    0.0000 C   0  0  0  0  0  0  0  0  0  0  0  0
   10.1989    2.9737    0.0000 C   0  0  0  0  0  0  0  0  0  0  0  0
    2.8660   -3.8388    0.0000 C   0  0  0  0  0  0  0  0  0  0  0  0
   10.0961    3.9684    0.0000 C   0  0  0  0  0  0  0  0  0  0  0  0
   11.1117    2.5654    0.0000 C   0  0  0  0  0  0  0  0  0  0  0  0
   10.9061    4.5548    0.0000 C   0  0  0  0  0  0  0  0  0  0  0  0
   11.9218    3.1517    0.0000 C   0  0  0  0  0  0  0  0  0  0  0  0
   11.8189    4.1464    0.0000 C   0  0  0  0  0  0  0  0  0  0  0  0
    6.6252   -2.5054    0.0000 H   0  0  0  0  0  0  0  0  0  0  0  0
    6.9506   -1.7778    0.0000 H   0  0  0  0  0  0  0  0  0  0  0  0
    5.9807   -0.3952    0.0000 H   0  0  0  0  0  0  0  0  0  0  0  0
    5.6552   -1.1228    0.0000 H   0  0  0  0  0  0  0  0  0  0  0  0
    5.8510   -1.4972    0.0000 H   0  0  0  0  0  0  0  0  0  0  0  0
    5.2596   -0.9629    0.0000 H   0  0  0  0  0  0  0  0  0  0  0  0
    7.3324   -0.9243    0.0000 H   0  0  0  0  0  0  0  0  0  0  0  0
    7.6578   -0.1967    0.0000 H   0  0  0  0  0  0  0  0  0  0  0  0
    6.6879    1.1859    0.0000 H   0  0  0  0  0  0  0  0  0  0  0  0
    6.3625    0.4583    0.0000 H   0  0  0  0  0  0  0  0  0  0  0  0
    8.3340    0.2928    0.0000 H   0  0  0  0  0  0  0  0  0  0  0  0
    9.1269    0.3747    0.0000 H   0  0  0  0  0  0  0  0  0  0  0  0
    7.3952    2.7669    0.0000 H   0  0  0  0  0  0  0  0  0  0  0  0
    7.0697    2.0394    0.0000 H   0  0  0  0  0  0  0  0  0  0  0  0
    5.7369   -4.7328    0.0000 H   0  0  0  0  0  0  0  0  0  0  0  0
    9.7625    0.8349    0.0000 H   0  0  0  0  0  0  0  0  0  0  0  0
   10.0879    1.5624    0.0000 H   0  0  0  0  0  0  0  0  0  0  0  0
    8.8236    3.3090    0.0000 H   0  0  0  0  0  0  0  0  0  0  0  0
    8.0308    3.2271    0.0000 H   0  0  0  0  0  0  0  0  0  0  0  0
    4.3891   -0.7666    0.0000 H   0  0  0  0  0  0  0  0  0  0  0  0
    3.6529   -1.2429    0.0000 H   0  0  0  0  0  0  0  0  0  0  0  0
    4.1292   -1.9791    0.0000 H   0  0  0  0  0  0  0  0  0  0  0  0
    3.7320   -1.7188    0.0000 H   0  0  0  0  0  0  0  0  0  0  0  0
    3.7320   -4.9588    0.0000 H   0  0  0  0  0  0  0  0  0  0  0  0
    2.3291   -2.5288    0.0000 H   0  0  0  0  0  0  0  0  0  0  0  0
    9.5301    4.2215    0.0000 H   0  0  0  0  0  0  0  0  0  0  0  0
   11.1755    1.9486    0.0000 H   0  0  0  0  0  0  0  0  0  0  0  0
   10.8424    5.1715    0.0000 H   0  0  0  0  0  0  0  0  0  0  0  0
   12.4877    2.8986    0.0000 H   0  0  0  0  0  0  0  0  0  0  0  0
  1 30  1  0  0  0  0
  2 25  1  0  0  0  0
  3 13  2  0  0  0  0
  4 14  1  0  0  0  0
  4 16  1  0  0  0  0
  4 17  1  0  0  0  0
  5 13  1  0  0  0  0
  5 15  1  0  0  0  0
  5 45  1  0  0  0  0
  6 18  1  0  0  0  0
  6 19  1  0  0  0  0
  6 24  1  0  0  0  0
  7  8  1  0  0  0  0
  7 10  1  0  0  0  0
  7 11  1  0  0  0  0
  7 13  1  0  0  0  0
  8  9  1  0  0  0  0
  8 31  1  0  0  0  0
  8 32  1  0  0  0  0
  9 12  1  0  0  0  0
  9 33  1  0  0  0  0
  9 34  1  0  0  0  0
 10 15  2  0  0  0  0
 10 21  1  0  0  0  0
 11 20  1  0  0  0  0
 11 35  1  0  0  0  0
 11 36  1  0  0  0  0
 12 14  1  0  0  0  0
 12 37  1  0  0  0  0
 12 38  1  0  0  0  0
 14 39  1  0  0  0  0
 14 40  1  0  0  0  0
 15 22  1  0  0  0  0
 16 18  1  0  0  0  0
 16 41  1  0  0  0  0
 16 42  1  0  0  0  0
 17 19  1  0  0  0  0
 17 43  1  0  0  0  0
 17 44  1  0  0  0  0
 18 46  1  0  0  0  0
 18 47  1  0  0  0  0
 19 48  1  0  0  0  0
 19 49  1  0  0  0  0
 20 50  1  0  0  0  0
 20 51  1  0  0  0  0
 20 52  1  0  0  0  0
 21 23  2  0  0  0  0
 21 53  1  0  0  0  0
 22 25  2  0  0  0  0
 22 54  1  0  0  0  0
 23 25  1  0  0  0  0
 23 55  1  0  0  0  0
 24 26  2  0  0  0  0
 24 27  1  0  0  0  0
 26 28  1  0  0  0  0
 26 56  1  0  0  0  0
 27 29  2  0  0  0  0
 27 57  1  0  0  0  0
 28 30  2  0  0  0  0
 28 58  1  0  0  0  0
 29 30  1  0  0  0  0
 29 59  1  0  0  0  0
M  END
> <PUBCHEM_COMPOUND_CID>
24829343

> <PUBCHEM_COMPOUND_CANONICALIZED>
1

> <PUBCHEM_CACTVS_COMPLEXITY>
577

> <PUBCHEM_CACTVS_HBOND_ACCEPTOR>
4

> <PUBCHEM_CACTVS_HBOND_DONOR>
1

> <PUBCHEM_CACTVS_ROTATABLE_BOND>
7

> <PUBCHEM_CACTVS_SUBSKEYS>
AAADceB7IQAEAAAAAAAAAAAAAAAAAWAAAAA8YIAAAAAAAFgBQAAAHwIQAAAADgrBmCwywIPAAACIAiVSUACCAAAhBwAIiAEIZogIYDLBl5GUIAhglADIyAcciMCPgABAAAACAAAAAIAAAAQAAAAAAAAAAA==

> <PUBCHEM_IUPAC_OPENEYE_NAME>
3-[4-[4-(4-chlorophenyl)piperazin-1-yl]butyl]-3-ethyl-6-fluoro-indolin-2-one

> <PUBCHEM_IUPAC_CAS_NAME>
3-[4-[4-(4-chlorophenyl)-1-piperazinyl]butyl]-3-ethyl-6-fluoro-1H-indol-2-one

> <PUBCHEM_IUPAC_NAME_MARKUP>
3-[4-[4-(4-chlorophenyl)piperazin-1-yl]butyl]-3-ethyl-6-fluoro-1<I>H</I>-indol-2-one

> <PUBCHEM_IUPAC_NAME>
3-[4-[4-(4-chlorophenyl)piperazin-1-yl]butyl]-3-ethyl-6-fluoro-1H-indol-2-one

> <PUBCHEM_IUPAC_SYSTEMATIC_NAME>
3-[4-[4-(4-chlorophenyl)piperazin-1-yl]butyl]-3-ethyl-6-fluoranyl-1H-indol-2-one

> <PUBCHEM_IUPAC_TRADITIONAL_NAME>
3-[4-[4-(4-chlorophenyl)piperazino]butyl]-3-ethyl-6-fluoro-oxindole

> <PUBCHEM_IUPAC_INCHI>
InChI=1S/C24H29ClFN3O/c1-2-24(21-10-7-19(26)17-22(21)27-23(24)30)11-3-4-12-28-13-15-29(16-14-28)20-8-5-18(25)6-9-20/h5-10,17H,2-4,11-16H2,1H3,(H,27,30)

> <PUBCHEM_IUPAC_INCHIKEY>
QFHWIGIQQPTXBG-UHFFFAOYSA-N

> <PUBCHEM_XLOGP3_AA>
5

> <PUBCHEM_EXACT_MASS>
429.1983184

> <PUBCHEM_MOLECULAR_FORMULA>
C24H29ClFN3O

> <PUBCHEM_MOLECULAR_WEIGHT>
430.0

> <PUBCHEM_OPENEYE_CAN_SMILES>
CCC1(C2=C(C=C(C=C2)F)NC1=O)CCCCN3CCN(CC3)C4=CC=C(C=C4)Cl

> <PUBCHEM_OPENEYE_ISO_SMILES>
CCC1(C2=C(C=C(C=C2)F)NC1=O)CCCCN3CCN(CC3)C4=CC=C(C=C4)Cl

> <PUBCHEM_CACTVS_TPSA>
35.6

> <PUBCHEM_MONOISOTOPIC_WEIGHT>
429.1983184

> <PUBCHEM_TOTAL_CHARGE>
0

> <PUBCHEM_HEAVY_ATOM_COUNT>
30

> <PUBCHEM_ATOM_DEF_STEREO_COUNT>
0

> <PUBCHEM_ATOM_UDEF_STEREO_COUNT>
1

> <PUBCHEM_BOND_DEF_STEREO_COUNT>
0

> <PUBCHEM_BOND_UDEF_STEREO_COUNT>
0

> <PUBCHEM_ISOTOPIC_ATOM_COUNT>
0

> <PUBCHEM_COMPONENT_COUNT>
1

> <PUBCHEM_CACTVS_TAUTO_COUNT>
-1

> <PUBCHEM_COORDINATE_TYPE>
1
5
255

> <PUBCHEM_BONDANNOTATIONS>
10  15  8
10  21  8
15  22  8
21  23  8
22  25  8
23  25  8
24  26  8
24  27  8
26  28  8
27  29  8
28  30  8
29  30  8
7  11  3

$$$$
