90469115
  -OEChem-09292322432D

 48 52  0     0  0  0  0  0  0999 V2000
    3.5998    1.4928    0.0000 S   0  0  0  0  0  0  0  0  0  0  0  0
    4.3142    4.8825    0.0000 F   0  0  0  0  0  0  0  0  0  0  0  0
    2.6493    1.1821    0.0000 O   0  0  0  0  0  0  0  0  0  0  0  0
    4.5504    1.8035    0.0000 O   0  0  0  0  0  0  0  0  0  0  0  0
    5.7227   -2.2624    0.0000 N   0  0  0  0  0  0  0  0  0  0  0  0
    3.9105    0.5423    0.0000 N   0  0  0  0  0  0  0  0  0  0  0  0
    5.7227   -4.2624    0.0000 N   0  0  0  0  0  0  0  0  0  0  0  0
    6.5888   -0.7624    0.0000 N   0  0  0  0  0  0  0  0  0  0  0  0
    4.8567   -2.7624    0.0000 C   0  0  0  0  0  0  0  0  0  0  0  0
    6.5888   -2.7624    0.0000 C   0  0  0  0  0  0  0  0  0  0  0  0
    5.7227   -1.2624    0.0000 C   0  0  0  0  0  0  0  0  0  0  0  0
    4.8567   -0.7624    0.0000 C   0  0  0  0  0  0  0  0  0  0  0  0
    4.8567    0.2376    0.0000 C   0  0  0  0  0  0  0  0  0  0  0  0
    4.8567   -3.7624    0.0000 C   0  0  0  0  0  0  0  0  0  0  0  0
    6.5888   -3.7624    0.0000 C   0  0  0  0  0  0  0  0  0  0  0  0
    5.7227    0.7376    0.0000 C   0  0  0  0  0  0  0  0  0  0  0  0
    3.9105   -1.0672    0.0000 C   0  0  0  0  0  0  0  0  0  0  0  0
    6.5888    0.2376    0.0000 C   0  0  0  0  0  0  0  0  0  0  0  0
    3.3269   -0.2624    0.0000 C   0  0  0  0  0  0  0  0  0  0  0  0
    5.7067    1.7791    0.0000 C   0  0  0  0  0  0  0  0  0  0  0  0
    3.2892    2.4433    0.0000 C   0  0  0  0  0  0  0  0  0  0  0  0
    7.4988    0.7444    0.0000 C   0  0  0  0  0  0  0  0  0  0  0  0
    6.6047    2.3068    0.0000 C   0  0  0  0  0  0  0  0  0  0  0  0
    7.5068    1.7860    0.0000 C   0  0  0  0  0  0  0  0  0  0  0  0
    3.9570    3.1876    0.0000 C   0  0  0  0  0  0  0  0  0  0  0  0
    2.3107    2.6495    0.0000 C   0  0  0  0  0  0  0  0  0  0  0  0
    3.6464    4.1382    0.0000 C   0  0  0  0  0  0  0  0  0  0  0  0
    2.0000    3.6001    0.0000 C   0  0  0  0  0  0  0  0  0  0  0  0
    2.6678    4.3444    0.0000 C   0  0  0  0  0  0  0  0  0  0  0  0
    4.6447   -2.1798    0.0000 H   0  0  0  0  0  0  0  0  0  0  0  0
    4.2461   -2.8701    0.0000 H   0  0  0  0  0  0  0  0  0  0  0  0
    7.1993   -2.8701    0.0000 H   0  0  0  0  0  0  0  0  0  0  0  0
    6.8008   -2.1798    0.0000 H   0  0  0  0  0  0  0  0  0  0  0  0
    4.2461   -3.6548    0.0000 H   0  0  0  0  0  0  0  0  0  0  0  0
    4.6447   -4.3451    0.0000 H   0  0  0  0  0  0  0  0  0  0  0  0
    6.8008   -4.3451    0.0000 H   0  0  0  0  0  0  0  0  0  0  0  0
    7.1993   -3.6548    0.0000 H   0  0  0  0  0  0  0  0  0  0  0  0
    5.7227   -4.8825    0.0000 H   0  0  0  0  0  0  0  0  0  0  0  0
    3.7179   -1.6565    0.0000 H   0  0  0  0  0  0  0  0  0  0  0  0
    2.7069   -0.2624    0.0000 H   0  0  0  0  0  0  0  0  0  0  0  0
    5.1662    2.0828    0.0000 H   0  0  0  0  0  0  0  0  0  0  0  0
    8.0321    0.4282    0.0000 H   0  0  0  0  0  0  0  0  0  0  0  0
    6.6023    2.9268    0.0000 H   0  0  0  0  0  0  0  0  0  0  0  0
    8.0449    2.0939    0.0000 H   0  0  0  0  0  0  0  0  0  0  0  0
    4.5637    3.0598    0.0000 H   0  0  0  0  0  0  0  0  0  0  0  0
    1.8966    2.1881    0.0000 H   0  0  0  0  0  0  0  0  0  0  0  0
    1.3933    3.7279    0.0000 H   0  0  0  0  0  0  0  0  0  0  0  0
    2.4752    4.9337    0.0000 H   0  0  0  0  0  0  0  0  0  0  0  0
  1  3  2  0  0  0  0
  1  4  2  0  0  0  0
  1  6  1  0  0  0  0
  1 21  1  0  0  0  0
  2 27  1  0  0  0  0
  5  9  1  0  0  0  0
  5 10  1  0  0  0  0
  5 11  1  0  0  0  0
  6 13  1  0  0  0  0
  6 19  1  0  0  0  0
  7 14  1  0  0  0  0
  7 15  1  0  0  0  0
  7 38  1  0  0  0  0
  8 11  2  0  0  0  0
  8 18  1  0  0  0  0
  9 14  1  0  0  0  0
  9 30  1  0  0  0  0
  9 31  1  0  0  0  0
 10 15  1  0  0  0  0
 10 32  1  0  0  0  0
 10 33  1  0  0  0  0
 11 12  1  0  0  0  0
 12 13  2  0  0  0  0
 12 17  1  0  0  0  0
 13 16  1  0  0  0  0
 14 34  1  0  0  0  0
 14 35  1  0  0  0  0
 15 36  1  0  0  0  0
 15 37  1  0  0  0  0
 16 18  1  0  0  0  0
 16 20  2  0  0  0  0
 17 19  2  0  0  0  0
 17 39  1  0  0  0  0
 18 22  2  0  0  0  0
 19 40  1  0  0  0  0
 20 23  1  0  0  0  0
 20 41  1  0  0  0  0
 21 25  1  0  0  0  0
 21 26  2  0  0  0  0
 22 24  1  0  0  0  0
 22 42  1  0  0  0  0
 23 24  2  0  0  0  0
 23 43  1  0  0  0  0
 24 44  1  0  0  0  0
 25 27  2  0  0  0  0
 25 45  1  0  0  0  0
 26 28  1  0  0  0  0
 26 46  1  0  0  0  0
 27 29  1  0  0  0  0
 28 29  2  0  0  0  0
 28 47  1  0  0  0  0
 29 48  1  0  0  0  0
M  END
> <PUBCHEM_COMPOUND_CID>
90469115

> <PUBCHEM_COMPOUND_CANONICALIZED>
1

> <PUBCHEM_CACTVS_COMPLEXITY>
681

> <PUBCHEM_CACTVS_HBOND_ACCEPTOR>
6

> <PUBCHEM_CACTVS_HBOND_DONOR>
1

> <PUBCHEM_CACTVS_ROTATABLE_BOND>
3

> <PUBCHEM_CACTVS_SUBSKEYS>
AAADceB7sQBAAAAAAAAAAAAAAAAAAWAAAAA8eIEAAAAAAFix/gAAHQQQQAAADAjBXgw98fPIEAKgAzZnZHDCgDkxAiAJ2Lg4ZJiIYOLA2dGUJAhokALIyCcQgMAOAAAAAAACAAAAAAAAAAQAAAAAAAAAAA==

> <PUBCHEM_IUPAC_OPENEYE_NAME>
1-(3-fluorophenyl)sulfonyl-4-piperazin-1-yl-pyrrolo[3,2-c]quinoline

> <PUBCHEM_IUPAC_CAS_NAME>
1-(3-fluorophenyl)sulfonyl-4-(1-piperazinyl)pyrrolo[3,2-c]quinoline

> <PUBCHEM_IUPAC_NAME_MARKUP>
1-(3-fluorophenyl)sulfonyl-4-piperazin-1-ylpyrrolo[3,2-c]quinoline

> <PUBCHEM_IUPAC_NAME>
1-(3-fluorophenyl)sulfonyl-4-piperazin-1-ylpyrrolo[3,2-c]quinoline

> <PUBCHEM_IUPAC_SYSTEMATIC_NAME>
1-(3-fluorophenyl)sulfonyl-4-piperazin-1-yl-pyrrolo[3,2-c]quinoline

> <PUBCHEM_IUPAC_TRADITIONAL_NAME>
1-(3-fluorophenyl)sulfonyl-4-piperazino-pyrrolo[3,2-c]quinoline

> <PUBCHEM_IUPAC_INCHI>
InChI=1S/C21H19FN4O2S/c22-15-4-3-5-16(14-15)29(27,28)26-11-8-18-20(26)17-6-1-2-7-19(17)24-21(18)25-12-9-23-10-13-25/h1-8,11,14,23H,9-10,12-13H2

> <PUBCHEM_IUPAC_INCHIKEY>
QNKGTIWNFNPEJL-UHFFFAOYSA-N

> <PUBCHEM_XLOGP3_AA>
3.4

> <PUBCHEM_EXACT_MASS>
410.12127520

> <PUBCHEM_MOLECULAR_FORMULA>
C21H19FN4O2S

> <PUBCHEM_MOLECULAR_WEIGHT>
410.5

> <PUBCHEM_OPENEYE_CAN_SMILES>
C1CN(CCN1)C2=NC3=CC=CC=C3C4=C2C=CN4S(=O)(=O)C5=CC=CC(=C5)F

> <PUBCHEM_OPENEYE_ISO_SMILES>
C1CN(CCN1)C2=NC3=CC=CC=C3C4=C2C=CN4S(=O)(=O)C5=CC=CC(=C5)F

> <PUBCHEM_CACTVS_TPSA>
75.6

> <PUBCHEM_MONOISOTOPIC_WEIGHT>
410.12127520

> <PUBCHEM_TOTAL_CHARGE>
0

> <PUBCHEM_HEAVY_ATOM_COUNT>
29

> <PUBCHEM_ATOM_DEF_STEREO_COUNT>
0

> <PUBCHEM_ATOM_UDEF_STEREO_COUNT>
0

> <PUBCHEM_BOND_DEF_STEREO_COUNT>
0

> <PUBCHEM_BOND_UDEF_STEREO_COUNT>
0

> <PUBCHEM_ISOTOPIC_ATOM_COUNT>
0

> <PUBCHEM_COMPONENT_COUNT>
1

> <PUBCHEM_CACTVS_TAUTO_COUNT>
-1

> <PUBCHEM_COORDINATE_TYPE>
1
5
255

> <PUBCHEM_BONDANNOTATIONS>
11  12  8
12  13  8
12  17  8
13  16  8
16  18  8
16  20  8
17  19  8
18  22  8
20  23  8
21  25  8
21  26  8
22  24  8
23  24  8
25  27  8
26  28  8
27  29  8
28  29  8
6  13  8
6  19  8
8  11  8
8  18  8

$$$$
