156019370
  -OEChem-09292322422D

 60 63  0     0  0  0  0  0  0999 V2000
    4.6783   -5.8721    0.0000 S   0  0  0  0  0  0  0  0  0  0  0  0
   11.4348    2.4715    0.0000 O   0  0  0  0  0  0  0  0  0  0  0  0
    5.6103   -1.4111    0.0000 N   0  0  0  0  0  0  0  0  0  0  0  0
    4.9889   -3.3122    0.0000 N   0  0  0  0  0  0  0  0  0  0  0  0
    5.2619   -5.0674    0.0000 N   0  0  0  0  0  0  0  0  0  0  0  0
    9.7884    3.0096    0.0000 N   0  0  0  0  0  0  0  0  0  0  0  0
    6.2781   -2.1554    0.0000 C   0  0  0  0  0  0  0  0  0  0  0  0
    4.6318   -1.6173    0.0000 C   0  0  0  0  0  0  0  0  0  0  0  0
    5.9674   -3.1059    0.0000 C   0  0  0  0  0  0  0  0  0  0  0  0
    4.3211   -2.5678    0.0000 C   0  0  0  0  0  0  0  0  0  0  0  0
    5.9209   -0.4606    0.0000 C   0  0  0  0  0  0  0  0  0  0  0  0
    6.8994   -0.2544    0.0000 C   0  0  0  0  0  0  0  0  0  0  0  0
    7.2101    0.6961    0.0000 C   0  0  0  0  0  0  0  0  0  0  0  0
    4.6783   -4.2627    0.0000 C   0  0  0  0  0  0  0  0  0  0  0  0
    8.1886    0.9024    0.0000 C   0  0  0  0  0  0  0  0  0  0  0  0
    8.4993    1.8529    0.0000 C   0  0  0  0  0  0  0  0  0  0  0  0
    3.7320   -4.5674    0.0000 C   0  0  0  0  0  0  0  0  0  0  0  0
    9.4778    2.0591    0.0000 C   0  0  0  0  0  0  0  0  0  0  0  0
    3.7320   -5.5674    0.0000 C   0  0  0  0  0  0  0  0  0  0  0  0
    2.8660   -4.0674    0.0000 C   0  0  0  0  0  0  0  0  0  0  0  0
    2.8660   -6.0674    0.0000 C   0  0  0  0  0  0  0  0  0  0  0  0
    2.0000   -4.5674    0.0000 C   0  0  0  0  0  0  0  0  0  0  0  0
    2.0000   -5.5674    0.0000 C   0  0  0  0  0  0  0  0  0  0  0  0
   10.7669    3.2158    0.0000 C   0  0  0  0  0  0  0  0  0  0  0  0
   11.0776    4.1664    0.0000 C   0  0  0  0  0  0  0  0  0  0  0  0
   12.0561    4.3726    0.0000 C   0  0  0  0  0  0  0  0  0  0  0  0
   10.4097    4.9107    0.0000 C   0  0  0  0  0  0  0  0  0  0  0  0
   12.3668    5.3231    0.0000 C   0  0  0  0  0  0  0  0  0  0  0  0
   10.7204    5.8612    0.0000 C   0  0  0  0  0  0  0  0  0  0  0  0
   11.6989    6.0674    0.0000 C   0  0  0  0  0  0  0  0  0  0  0  0
    6.8250   -2.4474    0.0000 H   0  0  0  0  0  0  0  0  0  0  0  0
    6.6607   -1.6675    0.0000 H   0  0  0  0  0  0  0  0  0  0  0  0
    4.6112   -0.9977    0.0000 H   0  0  0  0  0  0  0  0  0  0  0  0
    4.0179   -1.5300    0.0000 H   0  0  0  0  0  0  0  0  0  0  0  0
    5.9880   -3.7256    0.0000 H   0  0  0  0  0  0  0  0  0  0  0  0
    6.5812   -3.1933    0.0000 H   0  0  0  0  0  0  0  0  0  0  0  0
    3.7742   -2.2758    0.0000 H   0  0  0  0  0  0  0  0  0  0  0  0
    3.9385   -3.0558    0.0000 H   0  0  0  0  0  0  0  0  0  0  0  0
    5.9004    0.1591    0.0000 H   0  0  0  0  0  0  0  0  0  0  0  0
    5.3071   -0.3732    0.0000 H   0  0  0  0  0  0  0  0  0  0  0  0
    6.9200   -0.8740    0.0000 H   0  0  0  0  0  0  0  0  0  0  0  0
    7.5132   -0.3417    0.0000 H   0  0  0  0  0  0  0  0  0  0  0  0
    7.1895    1.3158    0.0000 H   0  0  0  0  0  0  0  0  0  0  0  0
    6.5963    0.7835    0.0000 H   0  0  0  0  0  0  0  0  0  0  0  0
    8.2092    0.2827    0.0000 H   0  0  0  0  0  0  0  0  0  0  0  0
    8.8024    0.8150    0.0000 H   0  0  0  0  0  0  0  0  0  0  0  0
    8.4787    2.4726    0.0000 H   0  0  0  0  0  0  0  0  0  0  0  0
    7.8854    1.9402    0.0000 H   0  0  0  0  0  0  0  0  0  0  0  0
    9.4983    1.4394    0.0000 H   0  0  0  0  0  0  0  0  0  0  0  0
   10.0916    1.9718    0.0000 H   0  0  0  0  0  0  0  0  0  0  0  0
    2.8660   -3.4474    0.0000 H   0  0  0  0  0  0  0  0  0  0  0  0
    2.8660   -6.6874    0.0000 H   0  0  0  0  0  0  0  0  0  0  0  0
    9.3744    3.4711    0.0000 H   0  0  0  0  0  0  0  0  0  0  0  0
    1.4631   -4.2574    0.0000 H   0  0  0  0  0  0  0  0  0  0  0  0
    1.4631   -5.8774    0.0000 H   0  0  0  0  0  0  0  0  0  0  0  0
   12.4702    3.9111    0.0000 H   0  0  0  0  0  0  0  0  0  0  0  0
    9.8031    4.7828    0.0000 H   0  0  0  0  0  0  0  0  0  0  0  0
   12.9734    5.4510    0.0000 H   0  0  0  0  0  0  0  0  0  0  0  0
   10.3063    6.3226    0.0000 H   0  0  0  0  0  0  0  0  0  0  0  0
   11.8915    6.6567    0.0000 H   0  0  0  0  0  0  0  0  0  0  0  0
  1  5  1  0  0  0  0
  1 19  1  0  0  0  0
  2 24  2  0  0  0  0
  3  7  1  0  0  0  0
  3  8  1  0  0  0  0
  3 11  1  0  0  0  0
  4  9  1  0  0  0  0
  4 10  1  0  0  0  0
  4 14  1  0  0  0  0
  5 14  2  0  0  0  0
  6 18  1  0  0  0  0
  6 24  1  0  0  0  0
  6 53  1  0  0  0  0
  7  9  1  0  0  0  0
  7 31  1  0  0  0  0
  7 32  1  0  0  0  0
  8 10  1  0  0  0  0
  8 33  1  0  0  0  0
  8 34  1  0  0  0  0
  9 35  1  0  0  0  0
  9 36  1  0  0  0  0
 10 37  1  0  0  0  0
 10 38  1  0  0  0  0
 11 12  1  0  0  0  0
 11 39  1  0  0  0  0
 11 40  1  0  0  0  0
 12 13  1  0  0  0  0
 12 41  1  0  0  0  0
 12 42  1  0  0  0  0
 13 15  1  0  0  0  0
 13 43  1  0  0  0  0
 13 44  1  0  0  0  0
 14 17  1  0  0  0  0
 15 16  1  0  0  0  0
 15 45  1  0  0  0  0
 15 46  1  0  0  0  0
 16 18  1  0  0  0  0
 16 47  1  0  0  0  0
 16 48  1  0  0  0  0
 17 19  1  0  0  0  0
 17 20  2  0  0  0  0
 18 49  1  0  0  0  0
 18 50  1  0  0  0  0
 19 21  2  0  0  0  0
 20 22  1  0  0  0  0
 20 51  1  0  0  0  0
 21 23  1  0  0  0  0
 21 52  1  0  0  0  0
 22 23  2  0  0  0  0
 22 54  1  0  0  0  0
 23 55  1  0  0  0  0
 24 25  1  0  0  0  0
 25 26  2  0  0  0  0
 25 27  1  0  0  0  0
 26 28  1  0  0  0  0
 26 56  1  0  0  0  0
 27 29  2  0  0  0  0
 27 57  1  0  0  0  0
 28 30  2  0  0  0  0
 28 58  1  0  0  0  0
 29 30  1  0  0  0  0
 29 59  1  0  0  0  0
 30 60  1  0  0  0  0
M  END
> <PUBCHEM_COMPOUND_CID>
156019370

> <PUBCHEM_COMPOUND_CANONICALIZED>
1

> <PUBCHEM_CACTVS_COMPLEXITY>
519

> <PUBCHEM_CACTVS_HBOND_ACCEPTOR>
5

> <PUBCHEM_CACTVS_HBOND_DONOR>
1

> <PUBCHEM_CACTVS_ROTATABLE_BOND>
9

> <PUBCHEM_CACTVS_SUBSKEYS>
AAADceB7oABAAAAAAAAAAAAAAAAAAWAAAAA8YIAAAAAAAFgB9AAAHgQQQAAADADB2gQxsdPAAACsAiNycACDABAlAABJmLkoRNiIYLLAnZGUIQxglgLIyYcYiACOAAAAAAAEAAAAAAAAAAgAAAAAAAAAAA==

> <PUBCHEM_IUPAC_OPENEYE_NAME>
N-[6-[4-(1,2-benzothiazol-3-yl)piperazin-1-yl]hexyl]benzamide

> <PUBCHEM_IUPAC_CAS_NAME>
N-[6-[4-(1,2-benzothiazol-3-yl)-1-piperazinyl]hexyl]benzamide

> <PUBCHEM_IUPAC_NAME_MARKUP>
<I>N</I>-[6-[4-(1,2-benzothiazol-3-yl)piperazin-1-yl]hexyl]benzamide

> <PUBCHEM_IUPAC_NAME>
N-[6-[4-(1,2-benzothiazol-3-yl)piperazin-1-yl]hexyl]benzamide

> <PUBCHEM_IUPAC_SYSTEMATIC_NAME>
N-[6-[4-(1,2-benzothiazol-3-yl)piperazin-1-yl]hexyl]benzamide

> <PUBCHEM_IUPAC_TRADITIONAL_NAME>
N-[6-[4-(1,2-benzothiazol-3-yl)piperazino]hexyl]benzamide

> <PUBCHEM_IUPAC_INCHI>
InChI=1S/C24H30N4OS/c29-24(20-10-4-3-5-11-20)25-14-8-1-2-9-15-27-16-18-28(19-17-27)23-21-12-6-7-13-22(21)30-26-23/h3-7,10-13H,1-2,8-9,14-19H2,(H,25,29)

> <PUBCHEM_IUPAC_INCHIKEY>
MBEOKTTWXVWRIU-UHFFFAOYSA-N

> <PUBCHEM_XLOGP3_AA>
5

> <PUBCHEM_EXACT_MASS>
422.21403277

> <PUBCHEM_MOLECULAR_FORMULA>
C24H30N4OS

> <PUBCHEM_MOLECULAR_WEIGHT>
422.6

> <PUBCHEM_OPENEYE_CAN_SMILES>
C1CN(CCN1CCCCCCNC(=O)C2=CC=CC=C2)C3=NSC4=CC=CC=C43

> <PUBCHEM_OPENEYE_ISO_SMILES>
C1CN(CCN1CCCCCCNC(=O)C2=CC=CC=C2)C3=NSC4=CC=CC=C43

> <PUBCHEM_CACTVS_TPSA>
76.7

> <PUBCHEM_MONOISOTOPIC_WEIGHT>
422.21403277

> <PUBCHEM_TOTAL_CHARGE>
0

> <PUBCHEM_HEAVY_ATOM_COUNT>
30

> <PUBCHEM_ATOM_DEF_STEREO_COUNT>
0

> <PUBCHEM_ATOM_UDEF_STEREO_COUNT>
0

> <PUBCHEM_BOND_DEF_STEREO_COUNT>
0

> <PUBCHEM_BOND_UDEF_STEREO_COUNT>
0

> <PUBCHEM_ISOTOPIC_ATOM_COUNT>
0

> <PUBCHEM_COMPONENT_COUNT>
1

> <PUBCHEM_CACTVS_TAUTO_COUNT>
-1

> <PUBCHEM_COORDINATE_TYPE>
1
5
255

> <PUBCHEM_BONDANNOTATIONS>
1  19  8
1  5  8
14  17  8
17  19  8
17  20  8
19  21  8
20  22  8
21  23  8
22  23  8
25  26  8
25  27  8
26  28  8
27  29  8
28  30  8
29  30  8
5  14  8

$$$$
