45486891
  -OEChem-09292322292D

 61 66  0     1  0  0  0  0  0999 V2000
   16.5250    0.4933    0.0000 F   0  0  0  0  0  0  0  0  0  0  0  0
    5.1591    0.8596    0.0000 O   0  0  0  0  0  0  0  0  0  0  0  0
    5.7834   -1.1133    0.0000 O   0  0  0  0  0  0  0  0  0  0  0  0
    3.0616   -3.9739    0.0000 O   0  0  0  0  0  0  0  0  0  0  0  0
   13.6533    3.3539    0.0000 N   0  0  0  0  0  0  0  0  0  0  0  0
    7.8273    1.1719    0.0000 N   0  0  0  0  0  0  0  0  0  0  0  0
    2.6170   -2.2541    0.0000 N   0  0  0  0  0  0  0  0  0  0  0  0
   11.1259    2.2297    0.0000 C   0  0  3  0  0  0  0  0  0  0  0  0
   11.4478    1.2390    0.0000 C   0  0  0  0  0  0  0  0  0  0  0  0
   11.8289    2.9984    0.0000 C   0  0  0  0  0  0  0  0  0  0  0  0
   12.4683    1.0303    0.0000 C   0  0  0  0  0  0  0  0  0  0  0  0
   10.1486    2.4414    0.0000 C   0  0  0  0  0  0  0  0  0  0  0  0
   12.8443    2.7661    0.0000 C   0  0  0  0  0  0  0  0  0  0  0  0
   13.1533    1.8151    0.0000 C   0  0  0  0  0  0  0  0  0  0  0  0
    9.4766    1.7008    0.0000 C   0  0  0  0  0  0  0  0  0  0  0  0
   14.1533    1.8151    0.0000 C   0  0  0  0  0  0  0  0  0  0  0  0
   14.4623    2.7661    0.0000 C   0  0  0  0  0  0  0  0  0  0  0  0
    8.4993    1.9125    0.0000 C   0  0  0  0  0  0  0  0  0  0  0  0
   14.8383    1.0303    0.0000 C   0  0  0  0  0  0  0  0  0  0  0  0
   15.4777    2.9984    0.0000 C   0  0  0  0  0  0  0  0  0  0  0  0
    6.8500    1.3836    0.0000 C   0  0  0  0  0  0  0  0  0  0  0  0
    6.1780    0.6430    0.0000 C   0  0  1  0  0  0  0  0  0  0  0  0
   15.8588    1.2390    0.0000 C   0  0  0  0  0  0  0  0  0  0  0  0
    6.4922   -0.3501    0.0000 C   0  0  0  0  0  0  0  0  0  0  0  0
   16.1807    2.2297    0.0000 C   0  0  0  0  0  0  0  0  0  0  0  0
    4.7698   -0.8732    0.0000 C   0  0  0  0  0  0  0  0  0  0  0  0
    4.0949   -1.6112    0.0000 C   0  0  0  0  0  0  0  0  0  0  0  0
    4.4681    0.0802    0.0000 C   0  0  0  0  0  0  0  0  0  0  0  0
    3.1184   -1.3958    0.0000 C   0  0  0  0  0  0  0  0  0  0  0  0
    4.1886   -2.6009    0.0000 C   0  0  0  0  0  0  0  0  0  0  0  0
    3.4916    0.2956    0.0000 C   0  0  0  0  0  0  0  0  0  0  0  0
    2.8167   -0.4423    0.0000 C   0  0  0  0  0  0  0  0  0  0  0  0
    3.2771   -2.9974    0.0000 C   0  0  0  0  0  0  0  0  0  0  0  0
   10.7102    1.7697    0.0000 H   0  0  0  0  0  0  0  0  0  0  0  0
   10.8341    1.1512    0.0000 H   0  0  0  0  0  0  0  0  0  0  0  0
   11.4294    0.6193    0.0000 H   0  0  0  0  0  0  0  0  0  0  0  0
   12.0685    3.5702    0.0000 H   0  0  0  0  0  0  0  0  0  0  0  0
   11.3065    3.3323    0.0000 H   0  0  0  0  0  0  0  0  0  0  0  0
   10.3831    3.0153    0.0000 H   0  0  0  0  0  0  0  0  0  0  0  0
    9.6241    2.7719    0.0000 H   0  0  0  0  0  0  0  0  0  0  0  0
   12.2420    0.4531    0.0000 H   0  0  0  0  0  0  0  0  0  0  0  0
   12.9983    0.7086    0.0000 H   0  0  0  0  0  0  0  0  0  0  0  0
    9.2422    1.1268    0.0000 H   0  0  0  0  0  0  0  0  0  0  0  0
   10.0011    1.3702    0.0000 H   0  0  0  0  0  0  0  0  0  0  0  0
   13.6533    3.9739    0.0000 H   0  0  0  0  0  0  0  0  0  0  0  0
    8.7338    2.4864    0.0000 H   0  0  0  0  0  0  0  0  0  0  0  0
    7.9748    2.2431    0.0000 H   0  0  0  0  0  0  0  0  0  0  0  0
   14.6399    0.4429    0.0000 H   0  0  0  0  0  0  0  0  0  0  0  0
    8.0166    0.5815    0.0000 H   0  0  0  0  0  0  0  0  0  0  0  0
    7.0844    1.9576    0.0000 H   0  0  0  0  0  0  0  0  0  0  0  0
    6.3254    1.7142    0.0000 H   0  0  0  0  0  0  0  0  0  0  0  0
   15.6625    3.5902    0.0000 H   0  0  0  0  0  0  0  0  0  0  0  0
    5.9875    1.2331    0.0000 H   0  0  0  0  0  0  0  0  0  0  0  0
    6.8676   -0.8435    0.0000 H   0  0  0  0  0  0  0  0  0  0  0  0
    7.0426   -0.0646    0.0000 H   0  0  0  0  0  0  0  0  0  0  0  0
   16.7866    2.3609    0.0000 H   0  0  0  0  0  0  0  0  0  0  0  0
    4.3748   -3.1922    0.0000 H   0  0  0  0  0  0  0  0  0  0  0  0
    4.7963   -2.4779    0.0000 H   0  0  0  0  0  0  0  0  0  0  0  0
    3.3045    0.8867    0.0000 H   0  0  0  0  0  0  0  0  0  0  0  0
    2.2113   -0.3088    0.0000 H   0  0  0  0  0  0  0  0  0  0  0  0
    2.0000   -2.3152    0.0000 H   0  0  0  0  0  0  0  0  0  0  0  0
  1 23  1  0  0  0  0
  2 22  1  0  0  0  0
  2 28  1  0  0  0  0
  3 24  1  0  0  0  0
  3 26  1  0  0  0  0
  4 33  2  0  0  0  0
  5 13  1  0  0  0  0
  5 17  1  0  0  0  0
  5 45  1  0  0  0  0
  6 18  1  0  0  0  0
  6 21  1  0  0  0  0
  6 49  1  0  0  0  0
  7 29  1  0  0  0  0
  7 33  1  0  0  0  0
  7 61  1  0  0  0  0
  8  9  1  0  0  0  0
  8 10  1  0  0  0  0
  8 12  1  0  0  0  0
  8 34  1  0  0  0  0
  9 11  1  0  0  0  0
  9 35  1  0  0  0  0
  9 36  1  0  0  0  0
 10 13  1  0  0  0  0
 10 37  1  0  0  0  0
 10 38  1  0  0  0  0
 11 14  1  0  0  0  0
 11 41  1  0  0  0  0
 11 42  1  0  0  0  0
 12 15  1  0  0  0  0
 12 39  1  0  0  0  0
 12 40  1  0  0  0  0
 13 14  2  0  0  0  0
 14 16  1  0  0  0  0
 15 18  1  0  0  0  0
 15 43  1  0  0  0  0
 15 44  1  0  0  0  0
 16 17  2  0  0  0  0
 16 19  1  0  0  0  0
 17 20  1  0  0  0  0
 18 46  1  0  0  0  0
 18 47  1  0  0  0  0
 19 23  2  0  0  0  0
 19 48  1  0  0  0  0
 20 25  2  0  0  0  0
 20 52  1  0  0  0  0
 22 21  1  1  0  0  0
 21 50  1  0  0  0  0
 21 51  1  0  0  0  0
 22 24  1  0  0  0  0
 22 53  1  0  0  0  0
 23 25  1  0  0  0  0
 24 54  1  0  0  0  0
 24 55  1  0  0  0  0
 25 56  1  0  0  0  0
 26 27  1  0  0  0  0
 26 28  2  0  0  0  0
 27 29  2  0  0  0  0
 27 30  1  0  0  0  0
 28 31  1  0  0  0  0
 29 32  1  0  0  0  0
 30 33  1  0  0  0  0
 30 57  1  0  0  0  0
 30 58  1  0  0  0  0
 31 32  2  0  0  0  0
 31 59  1  0  0  0  0
 32 60  1  0  0  0  0
M  END
> <PUBCHEM_COMPOUND_CID>
45486891

> <PUBCHEM_COMPOUND_CANONICALIZED>
1

> <PUBCHEM_CACTVS_COMPLEXITY>
710

> <PUBCHEM_CACTVS_HBOND_ACCEPTOR>
5

> <PUBCHEM_CACTVS_HBOND_DONOR>
3

> <PUBCHEM_CACTVS_ROTATABLE_BOND>
6

> <PUBCHEM_CACTVS_SUBSKEYS>
AAADceB7MQAAAAAAAAAAAAAAAAAAAWLAAAA0YMEAAAAAAFiR9AAAHwAQAAAADRzhng4wxvLJlACoAyVyVACCiCAhIiAImaE+7JgPJvLEtZuHOCrm1Bna6Ae+3PPOgEABAgAKQACAgAKEABSAAAAAAAAAAA==

> <PUBCHEM_IUPAC_OPENEYE_NAME>
(3S)-3-[[3-(6-fluoro-2,3,4,9-tetrahydro-1H-carbazol-2-yl)propylamino]methyl]-2,3,7,9-tetrahydro-[1,4]dioxino[2,3-e]indol-8-one

> <PUBCHEM_IUPAC_CAS_NAME>
(3S)-3-[[3-(6-fluoro-2,3,4,9-tetrahydro-1H-carbazol-2-yl)propylamino]methyl]-2,3,7,9-tetrahydro-[1,4]dioxino[2,3-e]indol-8-one

> <PUBCHEM_IUPAC_NAME_MARKUP>
(3<I>S</I>)-3-[[3-(6-fluoro-2,3,4,9-tetrahydro-1<I>H</I>-carbazol-2-yl)propylamino]methyl]-2,3,7,9-tetrahydro-[1,4]dioxino[2,3-e]indol-8-one

> <PUBCHEM_IUPAC_NAME>
(3S)-3-[[3-(6-fluoro-2,3,4,9-tetrahydro-1H-carbazol-2-yl)propylamino]methyl]-2,3,7,9-tetrahydro-[1,4]dioxino[2,3-e]indol-8-one

> <PUBCHEM_IUPAC_SYSTEMATIC_NAME>
(3S)-3-[[3-(6-fluoranyl-2,3,4,9-tetrahydro-1H-carbazol-2-yl)propylamino]methyl]-2,3,7,9-tetrahydro-[1,4]dioxino[2,3-e]indol-8-one

> <PUBCHEM_IUPAC_TRADITIONAL_NAME>
(3S)-3-[[3-(6-fluoro-2,3,4,9-tetrahydro-1H-carbazol-2-yl)propylamino]methyl]-2,3,7,9-tetrahydro-[1,4]dioxin[2,3-e]indol-8-one

> <PUBCHEM_IUPAC_INCHI>
InChI=1S/C26H28FN3O3/c27-16-4-6-21-19(11-16)18-5-3-15(10-23(18)29-21)2-1-9-28-13-17-14-32-26-20-12-25(31)30-22(20)7-8-24(26)33-17/h4,6-8,11,15,17,28-29H,1-3,5,9-10,12-14H2,(H,30,31)/t15?,17-/m0/s1

> <PUBCHEM_IUPAC_INCHIKEY>
OTCAUALNGZOKLN-LWKPJOBUSA-N

> <PUBCHEM_XLOGP3_AA>
3.9

> <PUBCHEM_EXACT_MASS>
449.21146993

> <PUBCHEM_MOLECULAR_FORMULA>
C26H28FN3O3

> <PUBCHEM_MOLECULAR_WEIGHT>
449.5

> <PUBCHEM_OPENEYE_CAN_SMILES>
C1CC2=C(CC1CCCNCC3COC4=C(O3)C=CC5=C4CC(=O)N5)NC6=C2C=C(C=C6)F

> <PUBCHEM_OPENEYE_ISO_SMILES>
C1CC2=C(CC1CCCNC[C@H]3COC4=C(O3)C=CC5=C4CC(=O)N5)NC6=C2C=C(C=C6)F

> <PUBCHEM_CACTVS_TPSA>
75.4

> <PUBCHEM_MONOISOTOPIC_WEIGHT>
449.21146993

> <PUBCHEM_TOTAL_CHARGE>
0

> <PUBCHEM_HEAVY_ATOM_COUNT>
33

> <PUBCHEM_ATOM_DEF_STEREO_COUNT>
1

> <PUBCHEM_ATOM_UDEF_STEREO_COUNT>
1

> <PUBCHEM_BOND_DEF_STEREO_COUNT>
0

> <PUBCHEM_BOND_UDEF_STEREO_COUNT>
0

> <PUBCHEM_ISOTOPIC_ATOM_COUNT>
0

> <PUBCHEM_COMPONENT_COUNT>
1

> <PUBCHEM_CACTVS_TAUTO_COUNT>
-1

> <PUBCHEM_COORDINATE_TYPE>
1
5
255

> <PUBCHEM_BONDANNOTATIONS>
13  14  8
14  16  8
16  17  8
16  19  8
17  20  8
19  23  8
20  25  8
22  21  5
23  25  8
26  27  8
26  28  8
27  29  8
28  31  8
29  32  8
31  32  8
5  13  8
5  17  8
8  12  3

$$$$
