13051898
  -OEChem-09292322142D

 38 39  0     1  0  0  0  0  0999 V2000
    3.6930    0.0000    0.0000 Br  0  0  0  0  0  0  0  0  0  0  0  0
    2.5064    8.7062    0.0000 Br  0  0  0  0  0  0  0  0  0  0  0  0
    5.4747    3.0587    0.0000 O   0  0  0  0  0  0  0  0  0  0  0  0
    5.4747    1.0104    0.0000 O   0  0  0  0  0  0  0  0  0  0  0  0
    0.6200    2.0346    0.0000 N   0  0  0  0  0  0  0  0  0  0  0  0
    2.0288    3.1581    0.0000 C   0  0  3  0  0  0  0  0  0  0  0  0
    2.8106    2.5346    0.0000 C   0  0  0  0  0  0  0  0  0  0  0  0
    1.0539    2.9356    0.0000 C   0  0  0  0  0  0  0  0  0  0  0  0
    2.8106    1.5346    0.0000 C   0  0  0  0  0  0  0  0  0  0  0  0
    2.0288    0.9111    0.0000 C   0  0  0  0  0  0  0  0  0  0  0  0
    1.0539    1.1336    0.0000 C   0  0  0  0  0  0  0  0  0  0  0  0
    2.2513    4.1330    0.0000 C   0  0  0  0  0  0  0  0  0  0  0  0
    3.7046    3.0693    0.0000 C   0  0  0  0  0  0  0  0  0  0  0  0
    3.7046    0.9999    0.0000 C   0  0  0  0  0  0  0  0  0  0  0  0
    4.6106    2.5554    0.0000 C   0  0  0  0  0  0  0  0  0  0  0  0
    4.6106    1.5138    0.0000 C   0  0  0  0  0  0  0  0  0  0  0  0
    3.2069    4.4278    0.0000 C   0  0  0  0  0  0  0  0  0  0  0  0
    1.5183    4.8132    0.0000 C   0  0  0  0  0  0  0  0  0  0  0  0
    3.4294    5.4027    0.0000 C   0  0  0  0  0  0  0  0  0  0  0  0
    1.7408    5.7881    0.0000 C   0  0  0  0  0  0  0  0  0  0  0  0
    2.6964    6.0829    0.0000 C   0  0  0  0  0  0  0  0  0  0  0  0
    1.5904    3.5965    0.0000 H   0  0  0  0  0  0  0  0  0  0  0  0
    1.0539    3.5556    0.0000 H   0  0  0  0  0  0  0  0  0  0  0  0
    0.4494    3.0735    0.0000 H   0  0  0  0  0  0  0  0  0  0  0  0
    1.7598    0.3525    0.0000 H   0  0  0  0  0  0  0  0  0  0  0  0
    2.5136    0.5245    0.0000 H   0  0  0  0  0  0  0  0  0  0  0  0
    0.4494    0.9957    0.0000 H   0  0  0  0  0  0  0  0  0  0  0  0
    1.0539    0.5136    0.0000 H   0  0  0  0  0  0  0  0  0  0  0  0
    0.0000    2.0346    0.0000 H   0  0  0  0  0  0  0  0  0  0  0  0
    3.6974    3.6892    0.0000 H   0  0  0  0  0  0  0  0  0  0  0  0
    3.6614    4.0061    0.0000 H   0  0  0  0  0  0  0  0  0  0  0  0
    0.9258    4.6304    0.0000 H   0  0  0  0  0  0  0  0  0  0  0  0
    4.0219    5.5854    0.0000 H   0  0  0  0  0  0  0  0  0  0  0  0
    1.2863    6.2098    0.0000 H   0  0  0  0  0  0  0  0  0  0  0  0
    2.8343    6.6873    0.0000 H   0  0  0  0  0  0  0  0  0  0  0  0
    5.4723    3.6787    0.0000 H   0  0  0  0  0  0  0  0  0  0  0  0
    6.0129    1.3184    0.0000 H   0  0  0  0  0  0  0  0  0  0  0  0
    3.5064    8.7062    0.0000 H   0  0  0  0  0  0  0  0  0  0  0  0
  1 14  1  0  0  0  0
  2 38  1  0  0  0  0
  3 15  1  0  0  0  0
  3 36  1  0  0  0  0
  4 16  1  0  0  0  0
  4 37  1  0  0  0  0
  5  8  1  0  0  0  0
  5 11  1  0  0  0  0
  5 29  1  0  0  0  0
  6  7  1  0  0  0  0
  6  8  1  0  0  0  0
  6 12  1  0  0  0  0
  6 22  1  0  0  0  0
  7  9  1  0  0  0  0
  7 13  2  0  0  0  0
  8 23  1  0  0  0  0
  8 24  1  0  0  0  0
  9 10  1  0  0  0  0
  9 14  2  0  0  0  0
 10 11  1  0  0  0  0
 10 25  1  0  0  0  0
 10 26  1  0  0  0  0
 11 27  1  0  0  0  0
 11 28  1  0  0  0  0
 12 17  2  0  0  0  0
 12 18  1  0  0  0  0
 13 15  1  0  0  0  0
 13 30  1  0  0  0  0
 14 16  1  0  0  0  0
 15 16  2  0  0  0  0
 17 19  1  0  0  0  0
 17 31  1  0  0  0  0
 18 20  2  0  0  0  0
 18 32  1  0  0  0  0
 19 21  2  0  0  0  0
 19 33  1  0  0  0  0
 20 21  1  0  0  0  0
 20 34  1  0  0  0  0
 21 35  1  0  0  0  0
M  END
> <PUBCHEM_COMPOUND_CID>
13051898

> <PUBCHEM_COMPOUND_CANONICALIZED>
1

> <PUBCHEM_CACTVS_COMPLEXITY>
322

> <PUBCHEM_CACTVS_HBOND_ACCEPTOR>
3

> <PUBCHEM_CACTVS_HBOND_DONOR>
4

> <PUBCHEM_CACTVS_ROTATABLE_BOND>
1

> <PUBCHEM_CACTVS_SUBSKEYS>
AAADceB6MAAAGAAAAAAAAAAAAAAAAAAAAAAwYAAABYAAAAABQAAAHgBQCAABrQTBmAQwBoLAAgCAAiBCAAACAAAgIAQIiIAOiKgJJiKCkROEcAEk0BGJmheQ0PIOoAABEIAQxABAAAIhACGIAAAAAAAAAA==

> <PUBCHEM_IUPAC_OPENEYE_NAME>
9-bromo-5-phenyl-2,3,4,5-tetrahydro-1H-3-benzazepine-7,8-diol;hydrobromide

> <PUBCHEM_IUPAC_CAS_NAME>
9-bromo-5-phenyl-2,3,4,5-tetrahydro-1H-3-benzazepine-7,8-diol;hydrobromide

> <PUBCHEM_IUPAC_NAME_MARKUP>
9-bromo-5-phenyl-2,3,4,5-tetrahydro-1<I>H</I>-3-benzazepine-7,8-diol;hydrobromide

> <PUBCHEM_IUPAC_NAME>
9-bromo-5-phenyl-2,3,4,5-tetrahydro-1H-3-benzazepine-7,8-diol;hydrobromide

> <PUBCHEM_IUPAC_SYSTEMATIC_NAME>
9-bromanyl-5-phenyl-2,3,4,5-tetrahydro-1H-3-benzazepine-7,8-diol;hydrobromide

> <PUBCHEM_IUPAC_TRADITIONAL_NAME>
9-bromo-5-phenyl-2,3,4,5-tetrahydro-1H-3-benzazepine-7,8-diol;hydrobromide

> <PUBCHEM_IUPAC_INCHI>
InChI=1S/C16H16BrNO2.BrH/c17-15-11-6-7-18-9-13(10-4-2-1-3-5-10)12(11)8-14(19)16(15)20;/h1-5,8,13,18-20H,6-7,9H2;1H

> <PUBCHEM_IUPAC_INCHIKEY>
NYAMJPQXUKPMIX-UHFFFAOYSA-N

> <PUBCHEM_EXACT_MASS>
414.96055

> <PUBCHEM_MOLECULAR_FORMULA>
C16H17Br2NO2

> <PUBCHEM_MOLECULAR_WEIGHT>
415.12

> <PUBCHEM_OPENEYE_CAN_SMILES>
C1CNCC(C2=CC(=C(C(=C21)Br)O)O)C3=CC=CC=C3.Br

> <PUBCHEM_OPENEYE_ISO_SMILES>
C1CNCC(C2=CC(=C(C(=C21)Br)O)O)C3=CC=CC=C3.Br

> <PUBCHEM_CACTVS_TPSA>
52.5

> <PUBCHEM_MONOISOTOPIC_WEIGHT>
412.96260

> <PUBCHEM_TOTAL_CHARGE>
0

> <PUBCHEM_HEAVY_ATOM_COUNT>
21

> <PUBCHEM_ATOM_DEF_STEREO_COUNT>
0

> <PUBCHEM_ATOM_UDEF_STEREO_COUNT>
1

> <PUBCHEM_BOND_DEF_STEREO_COUNT>
0

> <PUBCHEM_BOND_UDEF_STEREO_COUNT>
0

> <PUBCHEM_ISOTOPIC_ATOM_COUNT>
0

> <PUBCHEM_COMPONENT_COUNT>
2

> <PUBCHEM_CACTVS_TAUTO_COUNT>
-1

> <PUBCHEM_COORDINATE_TYPE>
1
5
255

> <PUBCHEM_BONDANNOTATIONS>
12  17  8
12  18  8
13  15  8
14  16  8
15  16  8
17  19  8
18  20  8
19  21  8
20  21  8
6  12  3
7  13  8
7  9  8
9  14  8

$$$$
