45264088
  -OEChem-09292322152D

 62 64  0     0  0  0  0  0  0999 V2000
    9.6286    7.0045    0.0000 Cl  0  0  0  0  0  0  0  0  0  0  0  0
    1.6111   11.2020    0.0000 O   0  0  0  0  0  0  0  0  0  0  0  0
    6.7256    5.5388    0.0000 O   0  0  0  0  0  0  0  0  0  0  0  0
    4.4936    0.0000    0.0000 O   0  5  0  0  0  0  0  0  0  0  0  0
    3.6276    1.5000    0.0000 O   0  0  0  0  0  0  0  0  0  0  0  0
    4.7757    9.7930    0.0000 N   0  0  0  0  0  0  0  0  0  0  0  0
    3.6002   11.4110    0.0000 N   0  0  0  0  0  0  0  0  0  0  0  0
    7.0346    4.5878    0.0000 N   0  0  0  0  0  0  0  0  0  0  0  0
    4.4936    1.0000    0.0000 N   0  3  0  0  0  0  0  0  0  0  0  0
    3.7812    9.6885    0.0000 C   0  0  0  0  0  0  0  0  0  0  0  0
    5.1825   10.7065    0.0000 C   0  0  0  0  0  0  0  0  0  0  0  0
    3.1934   10.4975    0.0000 C   0  0  0  0  0  0  0  0  0  0  0  0
    4.5947   11.5155    0.0000 C   0  0  0  0  0  0  0  0  0  0  0  0
    5.3635    8.9840    0.0000 C   0  0  0  0  0  0  0  0  0  0  0  0
    4.9568    8.0704    0.0000 C   0  0  0  0  0  0  0  0  0  0  0  0
    3.0124   12.2200    0.0000 C   0  0  0  0  0  0  0  0  0  0  0  0
    5.5446    7.2614    0.0000 C   0  0  0  0  0  0  0  0  0  0  0  0
    5.1378    6.3479    0.0000 C   0  0  0  0  0  0  0  0  0  0  0  0
    2.0179   12.1155    0.0000 C   0  0  0  0  0  0  0  0  0  0  0  0
    3.4191   13.1336    0.0000 C   0  0  0  0  0  0  0  0  0  0  0  0
    5.7256    5.5388    0.0000 C   0  0  0  0  0  0  0  0  0  0  0  0
    1.4301   12.9245    0.0000 C   0  0  0  0  0  0  0  0  0  0  0  0
    2.8313   13.9426    0.0000 C   0  0  0  0  0  0  0  0  0  0  0  0
    1.8368   13.8381    0.0000 C   0  0  0  0  0  0  0  0  0  0  0  0
    5.4166    4.5878    0.0000 C   0  0  0  0  0  0  0  0  0  0  0  0
    6.2256    4.0000    0.0000 C   0  0  0  0  0  0  0  0  0  0  0  0
    0.6166   11.0974    0.0000 C   0  0  0  0  0  0  0  0  0  0  0  0
    6.2256    3.0000    0.0000 C   0  0  0  0  0  0  0  0  0  0  0  0
    5.3596    2.5000    0.0000 C   0  0  0  0  0  0  0  0  0  0  0  0
    7.0916    2.5000    0.0000 C   0  0  0  0  0  0  0  0  0  0  0  0
    5.3596    1.5000    0.0000 C   0  0  0  0  0  0  0  0  0  0  0  0
    7.0916    1.5000    0.0000 C   0  0  0  0  0  0  0  0  0  0  0  0
    6.2256    1.0000    0.0000 C   0  0  0  0  0  0  0  0  0  0  0  0
    3.2240    9.4167    0.0000 H   0  0  0  0  0  0  0  0  0  0  0  0
    3.9521    9.0925    0.0000 H   0  0  0  0  0  0  0  0  0  0  0  0
    5.6965   10.3598    0.0000 H   0  0  0  0  0  0  0  0  0  0  0  0
    5.6132   11.1525    0.0000 H   0  0  0  0  0  0  0  0  0  0  0  0
    2.6794   10.8442    0.0000 H   0  0  0  0  0  0  0  0  0  0  0  0
    2.7627   10.0515    0.0000 H   0  0  0  0  0  0  0  0  0  0  0  0
    5.1519   11.7873    0.0000 H   0  0  0  0  0  0  0  0  0  0  0  0
    4.4238   12.1115    0.0000 H   0  0  0  0  0  0  0  0  0  0  0  0
    5.8775    8.6373    0.0000 H   0  0  0  0  0  0  0  0  0  0  0  0
    5.7942    9.4300    0.0000 H   0  0  0  0  0  0  0  0  0  0  0  0
    4.4428    8.4171    0.0000 H   0  0  0  0  0  0  0  0  0  0  0  0
    4.5261    7.6244    0.0000 H   0  0  0  0  0  0  0  0  0  0  0  0
    6.0586    6.9147    0.0000 H   0  0  0  0  0  0  0  0  0  0  0  0
    5.9753    7.7074    0.0000 H   0  0  0  0  0  0  0  0  0  0  0  0
    4.6238    6.6946    0.0000 H   0  0  0  0  0  0  0  0  0  0  0  0
    4.7072    5.9019    0.0000 H   0  0  0  0  0  0  0  0  0  0  0  0
    4.0357   13.1984    0.0000 H   0  0  0  0  0  0  0  0  0  0  0  0
    0.8135   12.8597    0.0000 H   0  0  0  0  0  0  0  0  0  0  0  0
    3.0835   14.5090    0.0000 H   0  0  0  0  0  0  0  0  0  0  0  0
    1.4724   14.3397    0.0000 H   0  0  0  0  0  0  0  0  0  0  0  0
    4.8270    4.3962    0.0000 H   0  0  0  0  0  0  0  0  0  0  0  0
    0.5518   11.7140    0.0000 H   0  0  0  0  0  0  0  0  0  0  0  0
    0.0000   11.0326    0.0000 H   0  0  0  0  0  0  0  0  0  0  0  0
    0.6814   10.4808    0.0000 H   0  0  0  0  0  0  0  0  0  0  0  0
    4.8227    2.8100    0.0000 H   0  0  0  0  0  0  0  0  0  0  0  0
    7.6286    2.8100    0.0000 H   0  0  0  0  0  0  0  0  0  0  0  0
    7.6286    1.1900    0.0000 H   0  0  0  0  0  0  0  0  0  0  0  0
    6.2256    0.3800    0.0000 H   0  0  0  0  0  0  0  0  0  0  0  0
   10.6286    7.0045    0.0000 H   0  0  0  0  0  0  0  0  0  0  0  0
  1 62  1  0  0  0  0
  2 19  1  0  0  0  0
  2 27  1  0  0  0  0
  3  8  1  0  0  0  0
  3 21  1  0  0  0  0
  4  9  1  0  0  0  0
  5  9  2  0  0  0  0
  6 10  1  0  0  0  0
  6 11  1  0  0  0  0
  6 14  1  0  0  0  0
  7 12  1  0  0  0  0
  7 13  1  0  0  0  0
  7 16  1  0  0  0  0
  8 26  2  0  0  0  0
  9 31  1  0  0  0  0
 10 12  1  0  0  0  0
 10 34  1  0  0  0  0
 10 35  1  0  0  0  0
 11 13  1  0  0  0  0
 11 36  1  0  0  0  0
 11 37  1  0  0  0  0
 12 38  1  0  0  0  0
 12 39  1  0  0  0  0
 13 40  1  0  0  0  0
 13 41  1  0  0  0  0
 14 15  1  0  0  0  0
 14 42  1  0  0  0  0
 14 43  1  0  0  0  0
 15 17  1  0  0  0  0
 15 44  1  0  0  0  0
 15 45  1  0  0  0  0
 16 19  1  0  0  0  0
 16 20  2  0  0  0  0
 17 18  1  0  0  0  0
 17 46  1  0  0  0  0
 17 47  1  0  0  0  0
 18 21  1  0  0  0  0
 18 48  1  0  0  0  0
 18 49  1  0  0  0  0
 19 22  2  0  0  0  0
 20 23  1  0  0  0  0
 20 50  1  0  0  0  0
 21 25  2  0  0  0  0
 22 24  1  0  0  0  0
 22 51  1  0  0  0  0
 23 24  2  0  0  0  0
 23 52  1  0  0  0  0
 24 53  1  0  0  0  0
 25 26  1  0  0  0  0
 25 54  1  0  0  0  0
 26 28  1  0  0  0  0
 27 55  1  0  0  0  0
 27 56  1  0  0  0  0
 27 57  1  0  0  0  0
 28 29  2  0  0  0  0
 28 30  1  0  0  0  0
 29 31  1  0  0  0  0
 29 58  1  0  0  0  0
 30 32  2  0  0  0  0
 30 59  1  0  0  0  0
 31 33  2  0  0  0  0
 32 33  1  0  0  0  0
 32 60  1  0  0  0  0
 33 61  1  0  0  0  0
M  CHG  2   4  -1   9   1
M  END
> <PUBCHEM_COMPOUND_CID>
45264088

> <PUBCHEM_COMPOUND_CANONICALIZED>
1

> <PUBCHEM_CACTVS_COMPLEXITY>
581

> <PUBCHEM_CACTVS_HBOND_ACCEPTOR>
7

> <PUBCHEM_CACTVS_HBOND_DONOR>
1

> <PUBCHEM_CACTVS_ROTATABLE_BOND>
8

> <PUBCHEM_CACTVS_SUBSKEYS>
AAADceB7uAAEAAAAAAAAAAAAAAAAAWAAAAA8YIAAAAAAAAAB0AAAHgAEAAAADAzBngYyxpMQRACpA6RyQwCCCAAlIgAomCE/bNoOZrrEsZuVMahmwBnY6UeY2eKOAAAAQAAAEAAAAACAAAAgAAAAAAAAAA==

> <PUBCHEM_IUPAC_OPENEYE_NAME>
5-[4-[4-(2-methoxyphenyl)piperazin-1-yl]butyl]-3-(3-nitrophenyl)isoxazole;hydrochloride

> <PUBCHEM_IUPAC_CAS_NAME>
5-[4-[4-(2-methoxyphenyl)-1-piperazinyl]butyl]-3-(3-nitrophenyl)isoxazole;hydrochloride

> <PUBCHEM_IUPAC_NAME_MARKUP>
5-[4-[4-(2-methoxyphenyl)piperazin-1-yl]butyl]-3-(3-nitrophenyl)-1,2-oxazole;hydrochloride

> <PUBCHEM_IUPAC_NAME>
5-[4-[4-(2-methoxyphenyl)piperazin-1-yl]butyl]-3-(3-nitrophenyl)-1,2-oxazole;hydrochloride

> <PUBCHEM_IUPAC_SYSTEMATIC_NAME>
5-[4-[4-(2-methoxyphenyl)piperazin-1-yl]butyl]-3-(3-nitrophenyl)-1,2-oxazole;hydrochloride

> <PUBCHEM_IUPAC_TRADITIONAL_NAME>
5-[4-[4-(2-methoxyphenyl)piperazino]butyl]-3-(3-nitrophenyl)isoxazole;hydrochloride

> <PUBCHEM_IUPAC_INCHI>
InChI=1S/C24H28N4O4.ClH/c1-31-24-11-3-2-10-23(24)27-15-13-26(14-16-27)12-5-4-9-21-18-22(25-32-21)19-7-6-8-20(17-19)28(29)30;/h2-3,6-8,10-11,17-18H,4-5,9,12-16H2,1H3;1H

> <PUBCHEM_IUPAC_INCHIKEY>
BZEBYZHJUBJXBK-UHFFFAOYSA-N

> <PUBCHEM_EXACT_MASS>
472.1877331

> <PUBCHEM_MOLECULAR_FORMULA>
C24H29ClN4O4

> <PUBCHEM_MOLECULAR_WEIGHT>
473.0

> <PUBCHEM_OPENEYE_CAN_SMILES>
COC1=CC=CC=C1N2CCN(CC2)CCCCC3=CC(=NO3)C4=CC(=CC=C4)[N+](=O)[O-].Cl

> <PUBCHEM_OPENEYE_ISO_SMILES>
COC1=CC=CC=C1N2CCN(CC2)CCCCC3=CC(=NO3)C4=CC(=CC=C4)[N+](=O)[O-].Cl

> <PUBCHEM_CACTVS_TPSA>
87.6

> <PUBCHEM_MONOISOTOPIC_WEIGHT>
472.1877331

> <PUBCHEM_TOTAL_CHARGE>
0

> <PUBCHEM_HEAVY_ATOM_COUNT>
33

> <PUBCHEM_ATOM_DEF_STEREO_COUNT>
0

> <PUBCHEM_ATOM_UDEF_STEREO_COUNT>
0

> <PUBCHEM_BOND_DEF_STEREO_COUNT>
0

> <PUBCHEM_BOND_UDEF_STEREO_COUNT>
0

> <PUBCHEM_ISOTOPIC_ATOM_COUNT>
0

> <PUBCHEM_COMPONENT_COUNT>
2

> <PUBCHEM_CACTVS_TAUTO_COUNT>
-1

> <PUBCHEM_COORDINATE_TYPE>
1
5
255

> <PUBCHEM_BONDANNOTATIONS>
16  19  8
16  20  8
19  22  8
20  23  8
21  25  8
22  24  8
23  24  8
25  26  8
28  29  8
28  30  8
29  31  8
3  21  8
3  8  8
30  32  8
31  33  8
32  33  8
8  26  8

$$$$
