164614142
  -OEChem-09292322432D

 69 71  0     1  0  0  0  0  0999 V2000
    6.0010   -4.4385    0.0000 Cl  0  0  0  0  0  0  0  0  0  0  0  0
    8.5782    0.7934    0.0000 O   0  0  0  0  0  0  0  0  0  0  0  0
    3.4030   -0.9385    0.0000 O   0  0  0  0  0  0  0  0  0  0  0  0
   12.3306    3.0114    0.0000 O   0  0  0  0  0  0  0  0  0  0  0  0
    6.0010   -2.4385    0.0000 O   0  0  0  0  0  0  0  0  0  0  0  0
    2.5369   -2.4385    0.0000 O   0  0  0  0  0  0  0  0  0  0  0  0
    6.1056    1.5561    0.0000 N   0  0  0  0  0  0  0  0  0  0  0  0
    5.1350   -0.9385    0.0000 N   0  0  0  0  0  0  0  0  0  0  0  0
    6.0010    0.5615    0.0000 C   0  0  1  0  0  0  0  0  0  0  0  0
    6.9146    0.1548    0.0000 C   0  0  0  0  0  0  0  0  0  0  0  0
    7.5837    0.8979    0.0000 C   0  0  2  0  0  0  0  0  0  0  0  0
    7.0837    1.7640    0.0000 C   0  0  0  0  0  0  0  0  0  0  0  0
    5.1350    0.0615    0.0000 C   0  0  0  0  0  0  0  0  0  0  0  0
    9.1660    1.6024    0.0000 C   0  0  0  0  0  0  0  0  0  0  0  0
   10.1605    1.4979    0.0000 C   0  0  0  0  0  0  0  0  0  0  0  0
   10.7483    2.3069    0.0000 C   0  0  0  0  0  0  0  0  0  0  0  0
    4.2690   -1.4385    0.0000 C   0  0  0  0  0  0  0  0  0  0  0  0
    4.2690   -2.4385    0.0000 C   0  0  0  0  0  0  0  0  0  0  0  0
   11.7428    2.2024    0.0000 C   0  0  0  0  0  0  0  0  0  0  0  0
    3.4030   -2.9385    0.0000 C   0  0  0  0  0  0  0  0  0  0  0  0
    5.1350   -2.9385    0.0000 C   0  0  0  0  0  0  0  0  0  0  0  0
    3.4030   -3.9385    0.0000 C   0  0  0  0  0  0  0  0  0  0  0  0
    5.1350   -3.9385    0.0000 C   0  0  0  0  0  0  0  0  0  0  0  0
    4.2690   -4.4385    0.0000 C   0  0  0  0  0  0  0  0  0  0  0  0
    2.5369   -4.4385    0.0000 C   0  0  0  0  0  0  0  0  0  0  0  0
   13.3252    2.9069    0.0000 C   0  0  0  0  0  0  0  0  0  0  0  0
    2.5369   -5.4385    0.0000 C   0  0  0  0  0  0  0  0  0  0  0  0
   13.9129    3.7159    0.0000 C   0  0  0  0  0  0  0  0  0  0  0  0
    6.8671   -2.9385    0.0000 C   0  0  0  0  0  0  0  0  0  0  0  0
   13.5062    4.6294    0.0000 C   0  0  0  0  0  0  0  0  0  0  0  0
   14.9075    3.6114    0.0000 C   0  0  0  0  0  0  0  0  0  0  0  0
   14.0940    5.4385    0.0000 C   0  0  0  0  0  0  0  0  0  0  0  0
   15.4952    4.4204    0.0000 C   0  0  0  0  0  0  0  0  0  0  0  0
   15.0885    5.3339    0.0000 C   0  0  0  0  0  0  0  0  0  0  0  0
    5.4811    0.8992    0.0000 H   0  0  0  0  0  0  0  0  0  0  0  0
    6.6046   -0.3821    0.0000 H   0  0  0  0  0  0  0  0  0  0  0  0
    7.4162   -0.2096    0.0000 H   0  0  0  0  0  0  0  0  0  0  0  0
    7.8059    0.3191    0.0000 H   0  0  0  0  0  0  0  0  0  0  0  0
    7.6501    2.0162    0.0000 H   0  0  0  0  0  0  0  0  0  0  0  0
    6.8921    2.3536    0.0000 H   0  0  0  0  0  0  0  0  0  0  0  0
    5.6448    1.9709    0.0000 H   0  0  0  0  0  0  0  0  0  0  0  0
    4.9230    0.6441    0.0000 H   0  0  0  0  0  0  0  0  0  0  0  0
    4.5244   -0.0461    0.0000 H   0  0  0  0  0  0  0  0  0  0  0  0
    9.3369    2.1984    0.0000 H   0  0  0  0  0  0  0  0  0  0  0  0
    8.6088    1.8742    0.0000 H   0  0  0  0  0  0  0  0  0  0  0  0
    5.6720   -1.2485    0.0000 H   0  0  0  0  0  0  0  0  0  0  0  0
    9.9896    0.9019    0.0000 H   0  0  0  0  0  0  0  0  0  0  0  0
   10.7178    1.2261    0.0000 H   0  0  0  0  0  0  0  0  0  0  0  0
   10.9192    2.9029    0.0000 H   0  0  0  0  0  0  0  0  0  0  0  0
   10.1911    2.5787    0.0000 H   0  0  0  0  0  0  0  0  0  0  0  0
   11.5720    1.6064    0.0000 H   0  0  0  0  0  0  0  0  0  0  0  0
   12.3001    1.9306    0.0000 H   0  0  0  0  0  0  0  0  0  0  0  0
    4.2690   -5.0585    0.0000 H   0  0  0  0  0  0  0  0  0  0  0  0
    2.3249   -3.8558    0.0000 H   0  0  0  0  0  0  0  0  0  0  0  0
    1.9264   -4.5461    0.0000 H   0  0  0  0  0  0  0  0  0  0  0  0
   13.1543    2.3109    0.0000 H   0  0  0  0  0  0  0  0  0  0  0  0
   13.8824    2.6351    0.0000 H   0  0  0  0  0  0  0  0  0  0  0  0
    2.0000   -2.7485    0.0000 H   0  0  0  0  0  0  0  0  0  0  0  0
    1.9169   -5.4385    0.0000 H   0  0  0  0  0  0  0  0  0  0  0  0
    2.5369   -6.0585    0.0000 H   0  0  0  0  0  0  0  0  0  0  0  0
    3.1569   -5.4385    0.0000 H   0  0  0  0  0  0  0  0  0  0  0  0
    6.5571   -3.4754    0.0000 H   0  0  0  0  0  0  0  0  0  0  0  0
    7.4040   -3.2485    0.0000 H   0  0  0  0  0  0  0  0  0  0  0  0
    7.1771   -2.4015    0.0000 H   0  0  0  0  0  0  0  0  0  0  0  0
   12.8896    4.6942    0.0000 H   0  0  0  0  0  0  0  0  0  0  0  0
   15.1596    3.0450    0.0000 H   0  0  0  0  0  0  0  0  0  0  0  0
   13.8418    6.0049    0.0000 H   0  0  0  0  0  0  0  0  0  0  0  0
   16.1119    4.3556    0.0000 H   0  0  0  0  0  0  0  0  0  0  0  0
   15.4529    5.8355    0.0000 H   0  0  0  0  0  0  0  0  0  0  0  0
  1 23  1  0  0  0  0
 11  2  1  6  0  0  0
  2 14  1  0  0  0  0
  3 17  2  0  0  0  0
  4 19  1  0  0  0  0
  4 26  1  0  0  0  0
  5 21  1  0  0  0  0
  5 29  1  0  0  0  0
  6 20  1  0  0  0  0
  6 58  1  0  0  0  0
  7  9  1  0  0  0  0
  7 12  1  0  0  0  0
  7 41  1  0  0  0  0
  8 13  1  0  0  0  0
  8 17  1  0  0  0  0
  8 46  1  0  0  0  0
  9 10  1  0  0  0  0
  9 13  1  1  0  0  0
  9 35  1  0  0  0  0
 10 11  1  0  0  0  0
 10 36  1  0  0  0  0
 10 37  1  0  0  0  0
 11 12  1  0  0  0  0
 11 38  1  0  0  0  0
 12 39  1  0  0  0  0
 12 40  1  0  0  0  0
 13 42  1  0  0  0  0
 13 43  1  0  0  0  0
 14 15  1  0  0  0  0
 14 44  1  0  0  0  0
 14 45  1  0  0  0  0
 15 16  1  0  0  0  0
 15 47  1  0  0  0  0
 15 48  1  0  0  0  0
 16 19  1  0  0  0  0
 16 49  1  0  0  0  0
 16 50  1  0  0  0  0
 17 18  1  0  0  0  0
 18 20  2  0  0  0  0
 18 21  1  0  0  0  0
 19 51  1  0  0  0  0
 19 52  1  0  0  0  0
 20 22  1  0  0  0  0
 21 23  2  0  0  0  0
 22 24  2  0  0  0  0
 22 25  1  0  0  0  0
 23 24  1  0  0  0  0
 24 53  1  0  0  0  0
 25 27  1  0  0  0  0
 25 54  1  0  0  0  0
 25 55  1  0  0  0  0
 26 28  1  0  0  0  0
 26 56  1  0  0  0  0
 26 57  1  0  0  0  0
 27 59  1  0  0  0  0
 27 60  1  0  0  0  0
 27 61  1  0  0  0  0
 28 30  2  0  0  0  0
 28 31  1  0  0  0  0
 29 62  1  0  0  0  0
 29 63  1  0  0  0  0
 29 64  1  0  0  0  0
 30 32  1  0  0  0  0
 30 65  1  0  0  0  0
 31 33  2  0  0  0  0
 31 66  1  0  0  0  0
 32 34  2  0  0  0  0
 32 67  1  0  0  0  0
 33 34  1  0  0  0  0
 33 68  1  0  0  0  0
 34 69  1  0  0  0  0
M  END
> <PUBCHEM_COMPOUND_CID>
164614142

> <PUBCHEM_COMPOUND_CANONICALIZED>
1

> <PUBCHEM_CACTVS_COMPLEXITY>
592

> <PUBCHEM_CACTVS_HBOND_ACCEPTOR>
6

> <PUBCHEM_CACTVS_HBOND_DONOR>
3

> <PUBCHEM_CACTVS_ROTATABLE_BOND>
13

> <PUBCHEM_CACTVS_SUBSKEYS>
AAADcfB7OAAEAAAAAAAAAAAAAAAAAWAAAAAwYAAAAAAAAAABQAAAHgIQCAAADD7hmCYyBoLABgCIAiFSEACCCAAkJUAIiIEMD8gOZzeHtxuXcWhn9hWYuQf46OyOICACKAAICABAQARQABAQAAAAAAAAAA==

> <PUBCHEM_IUPAC_OPENEYE_NAME>
N-[[(2S,4R)-4-(4-benzyloxybutoxy)pyrrolidin-2-yl]methyl]-5-chloro-3-ethyl-2-hydroxy-6-methoxy-benzamide

> <PUBCHEM_IUPAC_CAS_NAME>
5-chloro-3-ethyl-2-hydroxy-6-methoxy-N-[[(2S,4R)-4-(4-phenylmethoxybutoxy)-2-pyrrolidinyl]methyl]benzamide

> <PUBCHEM_IUPAC_NAME_MARKUP>
5-chloro-3-ethyl-2-hydroxy-6-methoxy-<I>N</I>-[[(2<I>S</I>,4<I>R</I>)-4-(4-phenylmethoxybutoxy)pyrrolidin-2-yl]methyl]benzamide

> <PUBCHEM_IUPAC_NAME>
5-chloro-3-ethyl-2-hydroxy-6-methoxy-N-[[(2S,4R)-4-(4-phenylmethoxybutoxy)pyrrolidin-2-yl]methyl]benzamide

> <PUBCHEM_IUPAC_SYSTEMATIC_NAME>
3-chloranyl-5-ethyl-2-methoxy-6-oxidanyl-N-[[(2S,4R)-4-(4-phenylmethoxybutoxy)pyrrolidin-2-yl]methyl]benzamide

> <PUBCHEM_IUPAC_TRADITIONAL_NAME>
N-[[(2S,4R)-4-(4-benzoxybutoxy)pyrrolidin-2-yl]methyl]-5-chloro-3-ethyl-2-hydroxy-6-methoxy-benzamide

> <PUBCHEM_IUPAC_INCHI>
InChI=1S/C26H35ClN2O5/c1-3-19-13-22(27)25(32-2)23(24(19)30)26(31)29-15-20-14-21(16-28-20)34-12-8-7-11-33-17-18-9-5-4-6-10-18/h4-6,9-10,13,20-21,28,30H,3,7-8,11-12,14-17H2,1-2H3,(H,29,31)/t20-,21+/m0/s1

> <PUBCHEM_IUPAC_INCHIKEY>
KRHWCJYTVWDZJO-LEWJYISDSA-N

> <PUBCHEM_XLOGP3_AA>
4.5

> <PUBCHEM_EXACT_MASS>
490.2234499

> <PUBCHEM_MOLECULAR_FORMULA>
C26H35ClN2O5

> <PUBCHEM_MOLECULAR_WEIGHT>
491.0

> <PUBCHEM_OPENEYE_CAN_SMILES>
CCC1=CC(=C(C(=C1O)C(=O)NCC2CC(CN2)OCCCCOCC3=CC=CC=C3)OC)Cl

> <PUBCHEM_OPENEYE_ISO_SMILES>
CCC1=CC(=C(C(=C1O)C(=O)NC[C@@H]2C[C@H](CN2)OCCCCOCC3=CC=CC=C3)OC)Cl

> <PUBCHEM_CACTVS_TPSA>
89

> <PUBCHEM_MONOISOTOPIC_WEIGHT>
490.2234499

> <PUBCHEM_TOTAL_CHARGE>
0

> <PUBCHEM_HEAVY_ATOM_COUNT>
34

> <PUBCHEM_ATOM_DEF_STEREO_COUNT>
2

> <PUBCHEM_ATOM_UDEF_STEREO_COUNT>
0

> <PUBCHEM_BOND_DEF_STEREO_COUNT>
0

> <PUBCHEM_BOND_UDEF_STEREO_COUNT>
0

> <PUBCHEM_ISOTOPIC_ATOM_COUNT>
0

> <PUBCHEM_COMPONENT_COUNT>
1

> <PUBCHEM_CACTVS_TAUTO_COUNT>
-1

> <PUBCHEM_COORDINATE_TYPE>
1
5
255

> <PUBCHEM_BONDANNOTATIONS>
18  20  8
18  21  8
11  2  6
20  22  8
21  23  8
22  24  8
23  24  8
28  30  8
28  31  8
30  32  8
31  33  8
32  34  8
33  34  8
9  13  5

$$$$
