22376257
  -OEChem-09292322222D

 36 38  0     1  0  0  0  0  0999 V2000
    7.7619   -2.2846    0.0000 O   0  0  0  0  0  0  0  0  0  0  0  0
    4.5000   -1.7846    0.0000 N   0  0  3  0  0  0  0  0  0  0  0  0
    7.7701    2.7846    0.0000 N   0  0  0  0  0  0  0  0  0  0  0  0
    6.0298   -2.2846    0.0000 C   0  0  3  0  0  0  0  0  0  0  0  0
    6.0298   -1.2846    0.0000 C   0  0  3  0  0  0  0  0  0  0  0  0
    5.0836   -2.5894    0.0000 C   0  0  0  0  0  0  0  0  0  0  0  0
    5.0836   -0.9799    0.0000 C   0  0  0  0  0  0  0  0  0  0  0  0
    6.8958   -2.7846    0.0000 C   0  0  0  0  0  0  0  0  0  0  0  0
    6.8958   -0.7846    0.0000 C   0  0  0  0  0  0  0  0  0  0  0  0
    3.5000   -1.7846    0.0000 C   0  0  0  0  0  0  0  0  0  0  0  0
    7.7619   -1.2846    0.0000 C   0  0  0  0  0  0  0  0  0  0  0  0
    6.8798    0.2569    0.0000 C   0  0  0  0  0  0  0  0  0  0  0  0
    3.0000   -2.6506    0.0000 C   0  0  0  0  0  0  0  0  0  0  0  0
    8.6719   -0.7778    0.0000 C   0  0  0  0  0  0  0  0  0  0  0  0
    7.7778    0.7846    0.0000 C   0  0  0  0  0  0  0  0  0  0  0  0
    8.6799    0.2638    0.0000 C   0  0  0  0  0  0  0  0  0  0  0  0
    2.0000   -2.6506    0.0000 C   0  0  0  0  0  0  0  0  0  0  0  0
    7.7740    1.7846    0.0000 C   0  0  0  0  0  0  0  0  0  0  0  0
    5.9642   -2.9011    0.0000 H   0  0  0  0  0  0  0  0  0  0  0  0
    5.9642   -0.6681    0.0000 H   0  0  0  0  0  0  0  0  0  0  0  0
    4.5462   -2.8986    0.0000 H   0  0  0  0  0  0  0  0  0  0  0  0
    5.3346   -3.1563    0.0000 H   0  0  0  0  0  0  0  0  0  0  0  0
    5.3346   -0.4130    0.0000 H   0  0  0  0  0  0  0  0  0  0  0  0
    4.5462   -0.6707    0.0000 H   0  0  0  0  0  0  0  0  0  0  0  0
    6.4973   -3.2596    0.0000 H   0  0  0  0  0  0  0  0  0  0  0  0
    7.2944   -3.2596    0.0000 H   0  0  0  0  0  0  0  0  0  0  0  0
    3.6077   -1.1740    0.0000 H   0  0  0  0  0  0  0  0  0  0  0  0
    2.9174   -1.5726    0.0000 H   0  0  0  0  0  0  0  0  0  0  0  0
    6.3393    0.5607    0.0000 H   0  0  0  0  0  0  0  0  0  0  0  0
    2.8923   -3.2612    0.0000 H   0  0  0  0  0  0  0  0  0  0  0  0
    3.5826   -2.8627    0.0000 H   0  0  0  0  0  0  0  0  0  0  0  0
    9.2052   -1.0940    0.0000 H   0  0  0  0  0  0  0  0  0  0  0  0
    9.2180    0.5718    0.0000 H   0  0  0  0  0  0  0  0  0  0  0  0
    2.0000   -2.0306    0.0000 H   0  0  0  0  0  0  0  0  0  0  0  0
    1.3800   -2.6506    0.0000 H   0  0  0  0  0  0  0  0  0  0  0  0
    2.0000   -3.2706    0.0000 H   0  0  0  0  0  0  0  0  0  0  0  0
  1  8  1  0  0  0  0
  1 11  1  0  0  0  0
  2  6  1  0  0  0  0
  2  7  1  0  0  0  0
  2 10  1  0  0  0  0
  3 18  3  0  0  0  0
  4  5  1  0  0  0  0
  4  6  1  0  0  0  0
  4  8  1  0  0  0  0
  4 19  1  0  0  0  0
  5  7  1  0  0  0  0
  5  9  1  0  0  0  0
  5 20  1  0  0  0  0
  6 21  1  0  0  0  0
  6 22  1  0  0  0  0
  7 23  1  0  0  0  0
  7 24  1  0  0  0  0
  8 25  1  0  0  0  0
  8 26  1  0  0  0  0
  9 11  2  0  0  0  0
  9 12  1  0  0  0  0
 10 13  1  0  0  0  0
 10 27  1  0  0  0  0
 10 28  1  0  0  0  0
 11 14  1  0  0  0  0
 12 15  2  0  0  0  0
 12 29  1  0  0  0  0
 13 17  1  0  0  0  0
 13 30  1  0  0  0  0
 13 31  1  0  0  0  0
 14 16  2  0  0  0  0
 14 32  1  0  0  0  0
 15 16  1  0  0  0  0
 15 18  1  0  0  0  0
 16 33  1  0  0  0  0
 17 34  1  0  0  0  0
 17 35  1  0  0  0  0
 17 36  1  0  0  0  0
M  END
> <PUBCHEM_COMPOUND_CID>
22376257

> <PUBCHEM_COMPOUND_CANONICALIZED>
1

> <PUBCHEM_CACTVS_COMPLEXITY>
348

> <PUBCHEM_CACTVS_HBOND_ACCEPTOR>
3

> <PUBCHEM_CACTVS_HBOND_DONOR>
0

> <PUBCHEM_CACTVS_ROTATABLE_BOND>
2

> <PUBCHEM_CACTVS_SUBSKEYS>
AAADceBzIAAAAAAAAAAAAAAAAAAAAWAAAAA0QAAAAAAAAFiRAAAAHgAAAAAADQThmAYyBoMABACQBiBCAAAiCAAgIAAIiAAOCIgMpiKEsRuGOCCmwBGIqA+w0OIOoAACAAAIAABAAAQAABAAAAAAAAAAAA==

> <PUBCHEM_IUPAC_OPENEYE_NAME>
2-propyl-3,3a,4,9b-tetrahydro-1H-chromeno[3,4-c]pyrrole-8-carbonitrile

> <PUBCHEM_IUPAC_CAS_NAME>
2-propyl-3,3a,4,9b-tetrahydro-1H-[1]benzopyrano[3,4-c]pyrrole-8-carbonitrile

> <PUBCHEM_IUPAC_NAME_MARKUP>
2-propyl-3,3<I>a</I>,4,9<I>b</I>-tetrahydro-1<I>H</I>-chromeno[3,4-c]pyrrole-8-carbonitrile

> <PUBCHEM_IUPAC_NAME>
2-propyl-3,3a,4,9b-tetrahydro-1H-chromeno[3,4-c]pyrrole-8-carbonitrile

> <PUBCHEM_IUPAC_SYSTEMATIC_NAME>
2-propyl-3,3a,4,9b-tetrahydro-1H-chromeno[3,4-c]pyrrole-8-carbonitrile

> <PUBCHEM_IUPAC_TRADITIONAL_NAME>
2-propyl-3,3a,4,9b-tetrahydro-1H-chromeno[3,4-c]pyrrole-8-carbonitrile

> <PUBCHEM_IUPAC_INCHI>
InChI=1S/C15H18N2O/c1-2-5-17-8-12-10-18-15-4-3-11(7-16)6-13(15)14(12)9-17/h3-4,6,12,14H,2,5,8-10H2,1H3

> <PUBCHEM_IUPAC_INCHIKEY>
GDYQVHUWFCXMBW-UHFFFAOYSA-N

> <PUBCHEM_XLOGP3_AA>
2.4

> <PUBCHEM_EXACT_MASS>
242.141913202

> <PUBCHEM_MOLECULAR_FORMULA>
C15H18N2O

> <PUBCHEM_MOLECULAR_WEIGHT>
242.32

> <PUBCHEM_OPENEYE_CAN_SMILES>
CCCN1CC2COC3=C(C2C1)C=C(C=C3)C#N

> <PUBCHEM_OPENEYE_ISO_SMILES>
CCCN1CC2COC3=C(C2C1)C=C(C=C3)C#N

> <PUBCHEM_CACTVS_TPSA>
36.3

> <PUBCHEM_MONOISOTOPIC_WEIGHT>
242.141913202

> <PUBCHEM_TOTAL_CHARGE>
0

> <PUBCHEM_HEAVY_ATOM_COUNT>
18

> <PUBCHEM_ATOM_DEF_STEREO_COUNT>
0

> <PUBCHEM_ATOM_UDEF_STEREO_COUNT>
2

> <PUBCHEM_BOND_DEF_STEREO_COUNT>
0

> <PUBCHEM_BOND_UDEF_STEREO_COUNT>
0

> <PUBCHEM_ISOTOPIC_ATOM_COUNT>
0

> <PUBCHEM_COMPONENT_COUNT>
1

> <PUBCHEM_CACTVS_TAUTO_COUNT>
-1

> <PUBCHEM_COORDINATE_TYPE>
1
5
255

> <PUBCHEM_BONDANNOTATIONS>
11  14  8
12  15  8
14  16  8
15  16  8
4  6  3
5  7  3
9  11  8
9  12  8

$$$$
