71455001
  -OEChem-09292322332D

 46 48  0     1  0  0  0  0  0999 V2000
    3.7320   -0.8783    0.0000 S   0  0  0  0  0  0  0  0  0  0  0  0
    2.0000   -3.8783    0.0000 F   0  0  0  0  0  0  0  0  0  0  0  0
    3.7320   -4.8783    0.0000 F   0  0  0  0  0  0  0  0  0  0  0  0
   10.6534    2.3468    0.0000 F   0  0  0  0  0  0  0  0  0  0  0  0
    7.4888    3.7557    0.0000 O   0  0  0  0  0  0  0  0  0  0  0  0
    4.7320   -0.8783    0.0000 O   0  0  0  0  0  0  0  0  0  0  0  0
    2.7320   -0.8783    0.0000 O   0  0  0  0  0  0  0  0  0  0  0  0
    5.6808    1.8241    0.0000 N   0  0  3  0  0  0  0  0  0  0  0  0
    3.7320    0.1217    0.0000 N   0  0  0  0  0  0  0  0  0  0  0  0
    4.5981    0.6217    0.0000 C   0  0  3  0  0  0  0  0  0  0  0  0
    5.5116    0.2149    0.0000 C   0  0  0  0  0  0  0  0  0  0  0  0
    4.7026    1.6162    0.0000 C   0  0  0  0  0  0  0  0  0  0  0  0
    6.1808    0.9581    0.0000 C   0  0  0  0  0  0  0  0  0  0  0  0
    6.0875    2.7376    0.0000 C   0  0  0  0  0  0  0  0  0  0  0  0
    7.0820    2.8422    0.0000 C   0  0  0  0  0  0  0  0  0  0  0  0
    3.7320   -1.8783    0.0000 C   0  0  0  0  0  0  0  0  0  0  0  0
    2.8660   -2.3783    0.0000 C   0  0  0  0  0  0  0  0  0  0  0  0
    4.5981   -2.3783    0.0000 C   0  0  0  0  0  0  0  0  0  0  0  0
    8.4833    3.8602    0.0000 C   0  0  0  0  0  0  0  0  0  0  0  0
    2.8660   -3.3783    0.0000 C   0  0  0  0  0  0  0  0  0  0  0  0
    4.5981   -3.3783    0.0000 C   0  0  0  0  0  0  0  0  0  0  0  0
    3.7320   -3.8783    0.0000 C   0  0  0  0  0  0  0  0  0  0  0  0
    9.0710    3.0512    0.0000 C   0  0  0  0  0  0  0  0  0  0  0  0
    8.8900    4.7738    0.0000 C   0  0  0  0  0  0  0  0  0  0  0  0
   10.0656    3.1558    0.0000 C   0  0  0  0  0  0  0  0  0  0  0  0
    9.8845    4.8783    0.0000 C   0  0  0  0  0  0  0  0  0  0  0  0
   10.4723    4.0693    0.0000 C   0  0  0  0  0  0  0  0  0  0  0  0
    4.0781    0.9593    0.0000 H   0  0  0  0  0  0  0  0  0  0  0  0
    5.2016   -0.3220    0.0000 H   0  0  0  0  0  0  0  0  0  0  0  0
    6.0132   -0.1495    0.0000 H   0  0  0  0  0  0  0  0  0  0  0  0
    4.6378    2.2328    0.0000 H   0  0  0  0  0  0  0  0  0  0  0  0
    4.0826    1.6162    0.0000 H   0  0  0  0  0  0  0  0  0  0  0  0
    6.5956    0.4973    0.0000 H   0  0  0  0  0  0  0  0  0  0  0  0
    6.6823    1.3225    0.0000 H   0  0  0  0  0  0  0  0  0  0  0  0
    6.1307    3.3561    0.0000 H   0  0  0  0  0  0  0  0  0  0  0  0
    5.4859    2.8876    0.0000 H   0  0  0  0  0  0  0  0  0  0  0  0
    3.1951    0.4317    0.0000 H   0  0  0  0  0  0  0  0  0  0  0  0
    7.0388    2.2237    0.0000 H   0  0  0  0  0  0  0  0  0  0  0  0
    7.6836    2.6922    0.0000 H   0  0  0  0  0  0  0  0  0  0  0  0
    2.3291   -2.0683    0.0000 H   0  0  0  0  0  0  0  0  0  0  0  0
    5.1350   -2.0683    0.0000 H   0  0  0  0  0  0  0  0  0  0  0  0
    5.1350   -3.6883    0.0000 H   0  0  0  0  0  0  0  0  0  0  0  0
    8.8189    2.4848    0.0000 H   0  0  0  0  0  0  0  0  0  0  0  0
    8.5256    5.2754    0.0000 H   0  0  0  0  0  0  0  0  0  0  0  0
   10.1367    5.4447    0.0000 H   0  0  0  0  0  0  0  0  0  0  0  0
   11.0889    4.1341    0.0000 H   0  0  0  0  0  0  0  0  0  0  0  0
  1  6  2  0  0  0  0
  1  7  2  0  0  0  0
  1  9  1  0  0  0  0
  1 16  1  0  0  0  0
  2 20  1  0  0  0  0
  3 22  1  0  0  0  0
  4 25  1  0  0  0  0
  5 15  1  0  0  0  0
  5 19  1  0  0  0  0
  8 12  1  0  0  0  0
  8 13  1  0  0  0  0
  8 14  1  0  0  0  0
  9 10  1  0  0  0  0
  9 37  1  0  0  0  0
 10 11  1  0  0  0  0
 10 12  1  0  0  0  0
 10 28  1  0  0  0  0
 11 13  1  0  0  0  0
 11 29  1  0  0  0  0
 11 30  1  0  0  0  0
 12 31  1  0  0  0  0
 12 32  1  0  0  0  0
 13 33  1  0  0  0  0
 13 34  1  0  0  0  0
 14 15  1  0  0  0  0
 14 35  1  0  0  0  0
 14 36  1  0  0  0  0
 15 38  1  0  0  0  0
 15 39  1  0  0  0  0
 16 17  2  0  0  0  0
 16 18  1  0  0  0  0
 17 20  1  0  0  0  0
 17 40  1  0  0  0  0
 18 21  2  0  0  0  0
 18 41  1  0  0  0  0
 19 23  2  0  0  0  0
 19 24  1  0  0  0  0
 20 22  2  0  0  0  0
 21 22  1  0  0  0  0
 21 42  1  0  0  0  0
 23 25  1  0  0  0  0
 23 43  1  0  0  0  0
 24 26  2  0  0  0  0
 24 44  1  0  0  0  0
 25 27  2  0  0  0  0
 26 27  1  0  0  0  0
 26 45  1  0  0  0  0
 27 46  1  0  0  0  0
M  END
> <PUBCHEM_COMPOUND_CID>
71455001

> <PUBCHEM_COMPOUND_CANONICALIZED>
1

> <PUBCHEM_CACTVS_COMPLEXITY>
575

> <PUBCHEM_CACTVS_HBOND_ACCEPTOR>
8

> <PUBCHEM_CACTVS_HBOND_DONOR>
1

> <PUBCHEM_CACTVS_ROTATABLE_BOND>
7

> <PUBCHEM_CACTVS_SUBSKEYS>
AAADceB7MYBAAAAAAAAAAAAAAAAAAWAAAAAwYAAAAAAAAAABQAAAHwQQQAAACCzh0A4wB4NABAKAACBCAHBCCBAgIAAIiJgOCIgOZiKE8RqXOCCk0BGYqAeAQAAAAAAAAAAAAAAAAAAAAAAAAAAAAAAAAA==

> <PUBCHEM_IUPAC_OPENEYE_NAME>
3,4-difluoro-N-[1-[2-(3-fluorophenoxy)ethyl]pyrrolidin-3-yl]benzenesulfonamide

> <PUBCHEM_IUPAC_CAS_NAME>
3,4-difluoro-N-[1-[2-(3-fluorophenoxy)ethyl]-3-pyrrolidinyl]benzenesulfonamide

> <PUBCHEM_IUPAC_NAME_MARKUP>
3,4-difluoro-<I>N</I>-[1-[2-(3-fluorophenoxy)ethyl]pyrrolidin-3-yl]benzenesulfonamide

> <PUBCHEM_IUPAC_NAME>
3,4-difluoro-N-[1-[2-(3-fluorophenoxy)ethyl]pyrrolidin-3-yl]benzenesulfonamide

> <PUBCHEM_IUPAC_SYSTEMATIC_NAME>
3,4-bis(fluoranyl)-N-[1-[2-(3-fluoranylphenoxy)ethyl]pyrrolidin-3-yl]benzenesulfonamide

> <PUBCHEM_IUPAC_TRADITIONAL_NAME>
3,4-difluoro-N-[1-[2-(3-fluorophenoxy)ethyl]pyrrolidin-3-yl]benzenesulfonamide

> <PUBCHEM_IUPAC_INCHI>
InChI=1S/C18H19F3N2O3S/c19-13-2-1-3-15(10-13)26-9-8-23-7-6-14(12-23)22-27(24,25)16-4-5-17(20)18(21)11-16/h1-5,10-11,14,22H,6-9,12H2

> <PUBCHEM_IUPAC_INCHIKEY>
KGMNPYRERCCGKH-UHFFFAOYSA-N

> <PUBCHEM_XLOGP3_AA>
3.1

> <PUBCHEM_EXACT_MASS>
400.10684813

> <PUBCHEM_MOLECULAR_FORMULA>
C18H19F3N2O3S

> <PUBCHEM_MOLECULAR_WEIGHT>
400.4

> <PUBCHEM_OPENEYE_CAN_SMILES>
C1CN(CC1NS(=O)(=O)C2=CC(=C(C=C2)F)F)CCOC3=CC(=CC=C3)F

> <PUBCHEM_OPENEYE_ISO_SMILES>
C1CN(CC1NS(=O)(=O)C2=CC(=C(C=C2)F)F)CCOC3=CC(=CC=C3)F

> <PUBCHEM_CACTVS_TPSA>
67

> <PUBCHEM_MONOISOTOPIC_WEIGHT>
400.10684813

> <PUBCHEM_TOTAL_CHARGE>
0

> <PUBCHEM_HEAVY_ATOM_COUNT>
27

> <PUBCHEM_ATOM_DEF_STEREO_COUNT>
0

> <PUBCHEM_ATOM_UDEF_STEREO_COUNT>
1

> <PUBCHEM_BOND_DEF_STEREO_COUNT>
0

> <PUBCHEM_BOND_UDEF_STEREO_COUNT>
0

> <PUBCHEM_ISOTOPIC_ATOM_COUNT>
0

> <PUBCHEM_COMPONENT_COUNT>
1

> <PUBCHEM_CACTVS_TAUTO_COUNT>
-1

> <PUBCHEM_COORDINATE_TYPE>
1
5
255

> <PUBCHEM_BONDANNOTATIONS>
16  17  8
16  18  8
17  20  8
18  21  8
19  23  8
19  24  8
20  22  8
21  22  8
23  25  8
24  26  8
25  27  8
26  27  8
10  9  3

$$$$
