56926586
  -OEChem-09292322322D

 46 49  0     0  0  0  0  0  0999 V2000
    2.0000    0.5427    0.0000 F   0  0  0  0  0  0  0  0  0  0  0  0
   11.5542    0.0080    0.0000 O   0  0  0  0  0  0  0  0  0  0  0  0
   11.5542    2.0773    0.0000 O   0  0  0  0  0  0  0  0  0  0  0  0
    2.0000   -1.4573    0.0000 O   0  0  0  0  0  0  0  0  0  0  0  0
    6.3301   -0.9573    0.0000 N   0  0  0  0  0  0  0  0  0  0  0  0
    8.0622    0.0427    0.0000 N   0  0  0  0  0  0  0  0  0  0  0  0
    7.1962   -1.4573    0.0000 C   0  0  0  0  0  0  0  0  0  0  0  0
    6.3301    0.0427    0.0000 C   0  0  0  0  0  0  0  0  0  0  0  0
    8.0622   -0.9573    0.0000 C   0  0  0  0  0  0  0  0  0  0  0  0
    7.1962    0.5427    0.0000 C   0  0  0  0  0  0  0  0  0  0  0  0
    5.4641   -1.4573    0.0000 C   0  0  0  0  0  0  0  0  0  0  0  0
    8.9282    0.5427    0.0000 C   0  0  0  0  0  0  0  0  0  0  0  0
    4.5981   -0.9573    0.0000 C   0  0  0  0  0  0  0  0  0  0  0  0
    9.7942    0.0427    0.0000 C   0  0  0  0  0  0  0  0  0  0  0  0
    8.9282    1.5427    0.0000 C   0  0  0  0  0  0  0  0  0  0  0  0
   10.6603    0.5427    0.0000 C   0  0  0  0  0  0  0  0  0  0  0  0
   10.6603    1.5427    0.0000 C   0  0  0  0  0  0  0  0  0  0  0  0
    9.7942    2.0427    0.0000 C   0  0  0  0  0  0  0  0  0  0  0  0
    3.7320   -1.4573    0.0000 C   0  0  0  0  0  0  0  0  0  0  0  0
    4.5981    0.0427    0.0000 C   0  0  0  0  0  0  0  0  0  0  0  0
   12.4603    0.5219    0.0000 C   0  0  0  0  0  0  0  0  0  0  0  0
   12.4603    1.5635    0.0000 C   0  0  0  0  0  0  0  0  0  0  0  0
    2.8660   -0.9573    0.0000 C   0  0  0  0  0  0  0  0  0  0  0  0
    3.7320    0.5427    0.0000 C   0  0  0  0  0  0  0  0  0  0  0  0
    2.8660    0.0427    0.0000 C   0  0  0  0  0  0  0  0  0  0  0  0
    6.7976   -1.9323    0.0000 H   0  0  0  0  0  0  0  0  0  0  0  0
    7.5947   -1.9323    0.0000 H   0  0  0  0  0  0  0  0  0  0  0  0
    6.1181    0.6253    0.0000 H   0  0  0  0  0  0  0  0  0  0  0  0
    5.7196   -0.0650    0.0000 H   0  0  0  0  0  0  0  0  0  0  0  0
    8.2742   -1.5399    0.0000 H   0  0  0  0  0  0  0  0  0  0  0  0
    8.6728   -0.8497    0.0000 H   0  0  0  0  0  0  0  0  0  0  0  0
    7.5947    1.0176    0.0000 H   0  0  0  0  0  0  0  0  0  0  0  0
    6.7976    1.0176    0.0000 H   0  0  0  0  0  0  0  0  0  0  0  0
    5.0656   -1.9323    0.0000 H   0  0  0  0  0  0  0  0  0  0  0  0
    5.8626   -1.9323    0.0000 H   0  0  0  0  0  0  0  0  0  0  0  0
    9.7942   -0.5773    0.0000 H   0  0  0  0  0  0  0  0  0  0  0  0
    8.3913    1.8527    0.0000 H   0  0  0  0  0  0  0  0  0  0  0  0
    9.7942    2.6627    0.0000 H   0  0  0  0  0  0  0  0  0  0  0  0
    3.7320   -2.0773    0.0000 H   0  0  0  0  0  0  0  0  0  0  0  0
    5.1350    0.3527    0.0000 H   0  0  0  0  0  0  0  0  0  0  0  0
   12.6693   -0.0618    0.0000 H   0  0  0  0  0  0  0  0  0  0  0  0
   13.0711    0.6279    0.0000 H   0  0  0  0  0  0  0  0  0  0  0  0
   13.0711    1.4574    0.0000 H   0  0  0  0  0  0  0  0  0  0  0  0
   12.6693    2.1472    0.0000 H   0  0  0  0  0  0  0  0  0  0  0  0
    3.7320    1.1627    0.0000 H   0  0  0  0  0  0  0  0  0  0  0  0
    2.0000   -2.0773    0.0000 H   0  0  0  0  0  0  0  0  0  0  0  0
  1 25  1  0  0  0  0
  2 16  1  0  0  0  0
  2 21  1  0  0  0  0
  3 17  1  0  0  0  0
  3 22  1  0  0  0  0
  4 23  1  0  0  0  0
  4 46  1  0  0  0  0
  5  7  1  0  0  0  0
  5  8  1  0  0  0  0
  5 11  1  0  0  0  0
  6  9  1  0  0  0  0
  6 10  1  0  0  0  0
  6 12  1  0  0  0  0
  7  9  1  0  0  0  0
  7 26  1  0  0  0  0
  7 27  1  0  0  0  0
  8 10  1  0  0  0  0
  8 28  1  0  0  0  0
  8 29  1  0  0  0  0
  9 30  1  0  0  0  0
  9 31  1  0  0  0  0
 10 32  1  0  0  0  0
 10 33  1  0  0  0  0
 11 13  1  0  0  0  0
 11 34  1  0  0  0  0
 11 35  1  0  0  0  0
 12 14  2  0  0  0  0
 12 15  1  0  0  0  0
 13 19  2  0  0  0  0
 13 20  1  0  0  0  0
 14 16  1  0  0  0  0
 14 36  1  0  0  0  0
 15 18  2  0  0  0  0
 15 37  1  0  0  0  0
 16 17  2  0  0  0  0
 17 18  1  0  0  0  0
 18 38  1  0  0  0  0
 19 23  1  0  0  0  0
 19 39  1  0  0  0  0
 20 24  2  0  0  0  0
 20 40  1  0  0  0  0
 21 22  1  0  0  0  0
 21 41  1  0  0  0  0
 21 42  1  0  0  0  0
 22 43  1  0  0  0  0
 22 44  1  0  0  0  0
 23 25  2  0  0  0  0
 24 25  1  0  0  0  0
 24 45  1  0  0  0  0
M  END
> <PUBCHEM_COMPOUND_CID>
56926586

> <PUBCHEM_COMPOUND_CANONICALIZED>
1

> <PUBCHEM_CACTVS_COMPLEXITY>
433

> <PUBCHEM_CACTVS_HBOND_ACCEPTOR>
6

> <PUBCHEM_CACTVS_HBOND_DONOR>
1

> <PUBCHEM_CACTVS_ROTATABLE_BOND>
3

> <PUBCHEM_CACTVS_SUBSKEYS>
AAADceB7MQAAAAAAAAAAAAAAAAAAAAAAAAA8aIEAAAAAAACRQAAAHwAACAAADAzhmA4wxoMABgCAAiRCQACCCAAhIgAIiAAO7IgNZiLGsZuWeCrmwBnK+Aew0BMOAEABAgAAQAAAgAIEAACAAAAAAAAAAA==

> <PUBCHEM_IUPAC_OPENEYE_NAME>
5-[[4-(2,3-dihydro-1,4-benzodioxin-6-yl)piperazin-1-yl]methyl]-2-fluoro-phenol

> <PUBCHEM_IUPAC_CAS_NAME>
5-[[4-(2,3-dihydro-1,4-benzodioxin-6-yl)-1-piperazinyl]methyl]-2-fluorophenol

> <PUBCHEM_IUPAC_NAME_MARKUP>
5-[[4-(2,3-dihydro-1,4-benzodioxin-6-yl)piperazin-1-yl]methyl]-2-fluorophenol

> <PUBCHEM_IUPAC_NAME>
5-[[4-(2,3-dihydro-1,4-benzodioxin-6-yl)piperazin-1-yl]methyl]-2-fluorophenol

> <PUBCHEM_IUPAC_SYSTEMATIC_NAME>
5-[[4-(2,3-dihydro-1,4-benzodioxin-6-yl)piperazin-1-yl]methyl]-2-fluoranyl-phenol

> <PUBCHEM_IUPAC_TRADITIONAL_NAME>
5-[[4-(2,3-dihydro-1,4-benzodioxin-6-yl)piperazino]methyl]-2-fluoro-phenol

> <PUBCHEM_IUPAC_INCHI>
InChI=1S/C19H21FN2O3/c20-16-3-1-14(11-17(16)23)13-21-5-7-22(8-6-21)15-2-4-18-19(12-15)25-10-9-24-18/h1-4,11-12,23H,5-10,13H2

> <PUBCHEM_IUPAC_INCHIKEY>
SXICCGPFVRVNMD-UHFFFAOYSA-N

> <PUBCHEM_XLOGP3_AA>
2.8

> <PUBCHEM_EXACT_MASS>
344.15362070

> <PUBCHEM_MOLECULAR_FORMULA>
C19H21FN2O3

> <PUBCHEM_MOLECULAR_WEIGHT>
344.4

> <PUBCHEM_OPENEYE_CAN_SMILES>
C1CN(CCN1CC2=CC(=C(C=C2)F)O)C3=CC4=C(C=C3)OCCO4

> <PUBCHEM_OPENEYE_ISO_SMILES>
C1CN(CCN1CC2=CC(=C(C=C2)F)O)C3=CC4=C(C=C3)OCCO4

> <PUBCHEM_CACTVS_TPSA>
45.2

> <PUBCHEM_MONOISOTOPIC_WEIGHT>
344.15362070

> <PUBCHEM_TOTAL_CHARGE>
0

> <PUBCHEM_HEAVY_ATOM_COUNT>
25

> <PUBCHEM_ATOM_DEF_STEREO_COUNT>
0

> <PUBCHEM_ATOM_UDEF_STEREO_COUNT>
0

> <PUBCHEM_BOND_DEF_STEREO_COUNT>
0

> <PUBCHEM_BOND_UDEF_STEREO_COUNT>
0

> <PUBCHEM_ISOTOPIC_ATOM_COUNT>
0

> <PUBCHEM_COMPONENT_COUNT>
1

> <PUBCHEM_CACTVS_TAUTO_COUNT>
-1

> <PUBCHEM_COORDINATE_TYPE>
1
5
255

> <PUBCHEM_BONDANNOTATIONS>
12  14  8
12  15  8
13  19  8
13  20  8
14  16  8
15  18  8
16  17  8
17  18  8
19  23  8
20  24  8
23  25  8
24  25  8

$$$$
