46882458
  -OEChem-09292322292D

 61 64  0     1  0  0  0  0  0999 V2000
   10.4251    0.9298    0.0000 S   0  0  0  0  0  0  0  0  0  0  0  0
   10.9218    1.7977    0.0000 O   0  0  0  0  0  0  0  0  0  0  0  0
    9.9285    0.0618    0.0000 O   0  0  0  0  0  0  0  0  0  0  0  0
    4.7024    0.4023    0.0000 N   0  0  3  0  0  0  0  0  0  0  0  0
    9.5572    1.4264    0.0000 N   0  0  0  0  0  0  0  0  0  0  0  0
    3.6092   -1.3773    0.0000 N   0  0  0  0  0  0  0  0  0  0  0  0
    2.8660   -2.0464    0.0000 N   0  0  0  0  0  0  0  0  0  0  0  0
    5.1363    1.3032    0.0000 C   0  0  0  0  0  0  0  0  0  0  0  0
    5.1363   -0.4987    0.0000 C   0  0  0  0  0  0  0  0  0  0  0  0
    6.1112    1.5258    0.0000 C   0  0  0  0  0  0  0  0  0  0  0  0
    6.1112   -0.7212    0.0000 C   0  0  0  0  0  0  0  0  0  0  0  0
    6.8931    0.9023    0.0000 C   0  0  0  0  0  0  0  0  0  0  0  0
    6.8931   -0.0977    0.0000 C   0  0  0  0  0  0  0  0  0  0  0  0
    3.7024    0.4023    0.0000 C   0  0  0  0  0  0  0  0  0  0  0  0
    7.7870    1.4369    0.0000 C   0  0  0  0  0  0  0  0  0  0  0  0
    7.7870   -0.6324    0.0000 C   0  0  0  0  0  0  0  0  0  0  0  0
    8.6931    0.9231    0.0000 C   0  0  0  0  0  0  0  0  0  0  0  0
    3.2024   -0.4637    0.0000 C   0  0  0  0  0  0  0  0  0  0  0  0
    8.6931   -0.1185    0.0000 C   0  0  0  0  0  0  0  0  0  0  0  0
    2.2079   -0.5683    0.0000 C   0  0  0  0  0  0  0  0  0  0  0  0
   11.2931    0.4331    0.0000 C   0  0  0  0  0  0  0  0  0  0  0  0
   13.8969   -1.0569    0.0000 C   0  0  0  0  0  0  0  0  0  0  0  0
   13.0290   -0.5602    0.0000 C   0  0  0  0  0  0  0  0  0  0  0  0
   14.7610   -0.5535    0.0000 C   0  0  0  0  0  0  0  0  0  0  0  0
   12.1572    0.9364    0.0000 C   0  0  0  0  0  0  0  0  0  0  0  0
   11.2969   -0.5669    0.0000 C   0  0  0  0  0  0  0  0  0  0  0  0
    2.0000   -1.5464    0.0000 C   0  0  0  0  0  0  0  0  0  0  0  0
   13.0251    0.4398    0.0000 C   0  0  0  0  0  0  0  0  0  0  0  0
   12.1649   -1.0635    0.0000 C   0  0  0  0  0  0  0  0  0  0  0  0
   15.6289   -1.0502    0.0000 C   0  0  0  0  0  0  0  0  0  0  0  0
   16.4930   -0.5469    0.0000 C   0  0  0  0  0  0  0  0  0  0  0  0
    5.1363    1.9232    0.0000 H   0  0  0  0  0  0  0  0  0  0  0  0
    4.5319    1.4412    0.0000 H   0  0  0  0  0  0  0  0  0  0  0  0
    4.5319   -0.6367    0.0000 H   0  0  0  0  0  0  0  0  0  0  0  0
    5.1363   -1.1187    0.0000 H   0  0  0  0  0  0  0  0  0  0  0  0
    6.5960    1.9123    0.0000 H   0  0  0  0  0  0  0  0  0  0  0  0
    5.8422    2.0844    0.0000 H   0  0  0  0  0  0  0  0  0  0  0  0
    5.8422   -1.2798    0.0000 H   0  0  0  0  0  0  0  0  0  0  0  0
    6.5960   -1.1078    0.0000 H   0  0  0  0  0  0  0  0  0  0  0  0
    3.8101    1.0129    0.0000 H   0  0  0  0  0  0  0  0  0  0  0  0
    3.1198    0.6143    0.0000 H   0  0  0  0  0  0  0  0  0  0  0  0
    7.7798    2.0569    0.0000 H   0  0  0  0  0  0  0  0  0  0  0  0
    7.7798   -1.2523    0.0000 H   0  0  0  0  0  0  0  0  0  0  0  0
    9.2288   -0.4306    0.0000 H   0  0  0  0  0  0  0  0  0  0  0  0
    9.5548    2.0464    0.0000 H   0  0  0  0  0  0  0  0  0  0  0  0
    1.7930   -0.1075    0.0000 H   0  0  0  0  0  0  0  0  0  0  0  0
    4.2156   -1.5062    0.0000 H   0  0  0  0  0  0  0  0  0  0  0  0
   13.5002   -1.5333    0.0000 H   0  0  0  0  0  0  0  0  0  0  0  0
   14.2973   -1.5303    0.0000 H   0  0  0  0  0  0  0  0  0  0  0  0
   15.1577   -0.0770    0.0000 H   0  0  0  0  0  0  0  0  0  0  0  0
   14.3606   -0.0801    0.0000 H   0  0  0  0  0  0  0  0  0  0  0  0
   12.1548    1.5564    0.0000 H   0  0  0  0  0  0  0  0  0  0  0  0
   10.7612   -0.8789    0.0000 H   0  0  0  0  0  0  0  0  0  0  0  0
    1.4336   -1.7986    0.0000 H   0  0  0  0  0  0  0  0  0  0  0  0
   13.5608    0.7519    0.0000 H   0  0  0  0  0  0  0  0  0  0  0  0
   12.1673   -1.6835    0.0000 H   0  0  0  0  0  0  0  0  0  0  0  0
   15.2323   -1.5267    0.0000 H   0  0  0  0  0  0  0  0  0  0  0  0
   16.0293   -1.5236    0.0000 H   0  0  0  0  0  0  0  0  0  0  0  0
   16.8051   -1.0826    0.0000 H   0  0  0  0  0  0  0  0  0  0  0  0
   17.0288   -0.2348    0.0000 H   0  0  0  0  0  0  0  0  0  0  0  0
   16.1810   -0.0111    0.0000 H   0  0  0  0  0  0  0  0  0  0  0  0
  1  2  2  0  0  0  0
  1  3  2  0  0  0  0
  1  5  1  0  0  0  0
  1 21  1  0  0  0  0
  4  8  1  0  0  0  0
  4  9  1  0  0  0  0
  4 14  1  0  0  0  0
  5 17  1  0  0  0  0
  5 45  1  0  0  0  0
  6  7  1  0  0  0  0
  6 18  1  0  0  0  0
  6 47  1  0  0  0  0
  7 27  2  0  0  0  0
  8 10  1  0  0  0  0
  8 32  1  0  0  0  0
  8 33  1  0  0  0  0
  9 11  1  0  0  0  0
  9 34  1  0  0  0  0
  9 35  1  0  0  0  0
 10 12  1  0  0  0  0
 10 36  1  0  0  0  0
 10 37  1  0  0  0  0
 11 13  1  0  0  0  0
 11 38  1  0  0  0  0
 11 39  1  0  0  0  0
 12 13  2  0  0  0  0
 12 15  1  0  0  0  0
 13 16  1  0  0  0  0
 14 18  1  0  0  0  0
 14 40  1  0  0  0  0
 14 41  1  0  0  0  0
 15 17  2  0  0  0  0
 15 42  1  0  0  0  0
 16 19  2  0  0  0  0
 16 43  1  0  0  0  0
 17 19  1  0  0  0  0
 18 20  2  0  0  0  0
 19 44  1  0  0  0  0
 20 27  1  0  0  0  0
 20 46  1  0  0  0  0
 21 25  2  0  0  0  0
 21 26  1  0  0  0  0
 22 23  1  0  0  0  0
 22 24  1  0  0  0  0
 22 48  1  0  0  0  0
 22 49  1  0  0  0  0
 23 28  2  0  0  0  0
 23 29  1  0  0  0  0
 24 30  1  0  0  0  0
 24 50  1  0  0  0  0
 24 51  1  0  0  0  0
 25 28  1  0  0  0  0
 25 52  1  0  0  0  0
 26 29  2  0  0  0  0
 26 53  1  0  0  0  0
 27 54  1  0  0  0  0
 28 55  1  0  0  0  0
 29 56  1  0  0  0  0
 30 31  1  0  0  0  0
 30 57  1  0  0  0  0
 30 58  1  0  0  0  0
 31 59  1  0  0  0  0
 31 60  1  0  0  0  0
 31 61  1  0  0  0  0
M  END
> <PUBCHEM_COMPOUND_CID>
46882458

> <PUBCHEM_COMPOUND_CANONICALIZED>
1

> <PUBCHEM_CACTVS_COMPLEXITY>
645

> <PUBCHEM_CACTVS_HBOND_ACCEPTOR>
5

> <PUBCHEM_CACTVS_HBOND_DONOR>
2

> <PUBCHEM_CACTVS_ROTATABLE_BOND>
8

> <PUBCHEM_CACTVS_SUBSKEYS>
AAADceB7sABAAAAAAAAAAAAAAAAAAWAAAAAwYAAABYAAAAAB0AAAHAQYQAAADAjBXgQ+wZNjAAKiAzRnQHDSBBAgggAYuTg4ZJgIYKKA0dGUpAhgmACIyAcQgIAOmAAAQAAQAAAwAACAACAAAAAAAAAAAA==

> <PUBCHEM_IUPAC_OPENEYE_NAME>
4-butyl-N-[3-(1H-pyrazol-5-ylmethyl)-1,2,4,5-tetrahydro-3-benzazepin-7-yl]benzenesulfonamide

> <PUBCHEM_IUPAC_CAS_NAME>
4-butyl-N-[3-(1H-pyrazol-5-ylmethyl)-1,2,4,5-tetrahydro-3-benzazepin-7-yl]benzenesulfonamide

> <PUBCHEM_IUPAC_NAME_MARKUP>
4-butyl-<I>N</I>-[3-(1<I>H</I>-pyrazol-5-ylmethyl)-1,2,4,5-tetrahydro-3-benzazepin-7-yl]benzenesulfonamide

> <PUBCHEM_IUPAC_NAME>
4-butyl-N-[3-(1H-pyrazol-5-ylmethyl)-1,2,4,5-tetrahydro-3-benzazepin-7-yl]benzenesulfonamide

> <PUBCHEM_IUPAC_SYSTEMATIC_NAME>
4-butyl-N-[3-(1H-pyrazol-5-ylmethyl)-1,2,4,5-tetrahydro-3-benzazepin-7-yl]benzenesulfonamide

> <PUBCHEM_IUPAC_TRADITIONAL_NAME>
4-butyl-N-[3-(1H-pyrazol-5-ylmethyl)-1,2,4,5-tetrahydro-3-benzazepin-7-yl]benzenesulfonamide

> <PUBCHEM_IUPAC_INCHI>
InChI=1S/C24H30N4O2S/c1-2-3-4-19-5-9-24(10-6-19)31(29,30)27-22-8-7-20-12-15-28(16-13-21(20)17-22)18-23-11-14-25-26-23/h5-11,14,17,27H,2-4,12-13,15-16,18H2,1H3,(H,25,26)

> <PUBCHEM_IUPAC_INCHIKEY>
QCDCMDPVHPUROA-UHFFFAOYSA-N

> <PUBCHEM_XLOGP3_AA>
4.5

> <PUBCHEM_EXACT_MASS>
438.20894739

> <PUBCHEM_MOLECULAR_FORMULA>
C24H30N4O2S

> <PUBCHEM_MOLECULAR_WEIGHT>
438.6

> <PUBCHEM_OPENEYE_CAN_SMILES>
CCCCC1=CC=C(C=C1)S(=O)(=O)NC2=CC3=C(CCN(CC3)CC4=CC=NN4)C=C2

> <PUBCHEM_OPENEYE_ISO_SMILES>
CCCCC1=CC=C(C=C1)S(=O)(=O)NC2=CC3=C(CCN(CC3)CC4=CC=NN4)C=C2

> <PUBCHEM_CACTVS_TPSA>
86.5

> <PUBCHEM_MONOISOTOPIC_WEIGHT>
438.20894739

> <PUBCHEM_TOTAL_CHARGE>
0

> <PUBCHEM_HEAVY_ATOM_COUNT>
31

> <PUBCHEM_ATOM_DEF_STEREO_COUNT>
0

> <PUBCHEM_ATOM_UDEF_STEREO_COUNT>
0

> <PUBCHEM_BOND_DEF_STEREO_COUNT>
0

> <PUBCHEM_BOND_UDEF_STEREO_COUNT>
0

> <PUBCHEM_ISOTOPIC_ATOM_COUNT>
0

> <PUBCHEM_COMPONENT_COUNT>
1

> <PUBCHEM_CACTVS_TAUTO_COUNT>
-1

> <PUBCHEM_COORDINATE_TYPE>
1
5
255

> <PUBCHEM_BONDANNOTATIONS>
12  13  8
12  15  8
13  16  8
15  17  8
16  19  8
17  19  8
18  20  8
20  27  8
21  25  8
21  26  8
23  28  8
23  29  8
25  28  8
26  29  8
6  18  8
6  7  8
7  27  8

$$$$
