11005810
  -OEChem-09292322032D

 71 74  0     0  0  0  0  0  0999 V2000
    2.0000   -1.7500    0.0000 F   0  0  0  0  0  0  0  0  0  0  0  0
    5.4641   -7.7500    0.0000 F   0  0  0  0  0  0  0  0  0  0  0  0
    8.0622    3.7500    0.0000 O   0  0  0  0  0  0  0  0  0  0  0  0
    8.9282    2.2500    0.0000 O   0  0  0  0  0  0  0  0  0  0  0  0
    7.1962   -0.7500    0.0000 N   0  0  0  0  0  0  0  0  0  0  0  0
    7.1962    2.2500    0.0000 N   0  0  0  0  0  0  0  0  0  0  0  0
   13.2583    7.7500    0.0000 N   0  0  0  0  0  0  0  0  0  0  0  0
    7.1962    1.2500    0.0000 C   0  0  0  0  0  0  0  0  0  0  0  0
    6.3301    0.7500    0.0000 C   0  0  0  0  0  0  0  0  0  0  0  0
    8.0622    0.7500    0.0000 C   0  0  0  0  0  0  0  0  0  0  0  0
    6.3301   -0.2500    0.0000 C   0  0  0  0  0  0  0  0  0  0  0  0
    8.0622   -0.2500    0.0000 C   0  0  0  0  0  0  0  0  0  0  0  0
    7.1962   -1.7500    0.0000 C   0  0  0  0  0  0  0  0  0  0  0  0
    6.3301   -2.2500    0.0000 C   0  0  0  0  0  0  0  0  0  0  0  0
    6.3301   -3.2500    0.0000 C   0  0  0  0  0  0  0  0  0  0  0  0
    5.4641   -3.7500    0.0000 C   0  0  0  0  0  0  0  0  0  0  0  0
    4.5981   -3.2500    0.0000 C   0  0  0  0  0  0  0  0  0  0  0  0
    5.4641   -4.7500    0.0000 C   0  0  0  0  0  0  0  0  0  0  0  0
    8.0622    2.7500    0.0000 C   0  0  0  0  0  0  0  0  0  0  0  0
    3.7320   -3.7500    0.0000 C   0  0  0  0  0  0  0  0  0  0  0  0
    6.3301   -5.2500    0.0000 C   0  0  0  0  0  0  0  0  0  0  0  0
    4.5981   -2.2500    0.0000 C   0  0  0  0  0  0  0  0  0  0  0  0
    4.5981   -5.2500    0.0000 C   0  0  0  0  0  0  0  0  0  0  0  0
    2.8660   -3.2500    0.0000 C   0  0  0  0  0  0  0  0  0  0  0  0
    6.3301   -6.2500    0.0000 C   0  0  0  0  0  0  0  0  0  0  0  0
    3.7320   -1.7500    0.0000 C   0  0  0  0  0  0  0  0  0  0  0  0
    4.5981   -6.2500    0.0000 C   0  0  0  0  0  0  0  0  0  0  0  0
    8.9282    4.2500    0.0000 C   0  0  0  0  0  0  0  0  0  0  0  0
    2.8660   -2.2500    0.0000 C   0  0  0  0  0  0  0  0  0  0  0  0
    5.4641   -6.7500    0.0000 C   0  0  0  0  0  0  0  0  0  0  0  0
    8.9282    5.2500    0.0000 C   0  0  0  0  0  0  0  0  0  0  0  0
    9.7942    5.7500    0.0000 C   0  0  0  0  0  0  0  0  0  0  0  0
    9.7942    6.7500    0.0000 C   0  0  0  0  0  0  0  0  0  0  0  0
   10.6603    5.2500    0.0000 C   0  0  0  0  0  0  0  0  0  0  0  0
   10.6603    7.2500    0.0000 C   0  0  0  0  0  0  0  0  0  0  0  0
   11.5263    5.7500    0.0000 C   0  0  0  0  0  0  0  0  0  0  0  0
   11.5263    6.7500    0.0000 C   0  0  0  0  0  0  0  0  0  0  0  0
   12.3923    7.2500    0.0000 C   0  0  0  0  0  0  0  0  0  0  0  0
    6.6592    1.5600    0.0000 H   0  0  0  0  0  0  0  0  0  0  0  0
    6.1181    1.3326    0.0000 H   0  0  0  0  0  0  0  0  0  0  0  0
    5.7196    0.6423    0.0000 H   0  0  0  0  0  0  0  0  0  0  0  0
    8.6728    0.6423    0.0000 H   0  0  0  0  0  0  0  0  0  0  0  0
    8.2742    1.3326    0.0000 H   0  0  0  0  0  0  0  0  0  0  0  0
    5.7196   -0.1423    0.0000 H   0  0  0  0  0  0  0  0  0  0  0  0
    6.1181   -0.8326    0.0000 H   0  0  0  0  0  0  0  0  0  0  0  0
    8.2742   -0.8326    0.0000 H   0  0  0  0  0  0  0  0  0  0  0  0
    8.6728   -0.1423    0.0000 H   0  0  0  0  0  0  0  0  0  0  0  0
    7.4082   -2.3326    0.0000 H   0  0  0  0  0  0  0  0  0  0  0  0
    7.8067   -1.6423    0.0000 H   0  0  0  0  0  0  0  0  0  0  0  0
    6.1181   -1.6674    0.0000 H   0  0  0  0  0  0  0  0  0  0  0  0
    5.7196   -2.3577    0.0000 H   0  0  0  0  0  0  0  0  0  0  0  0
    6.5422   -3.8326    0.0000 H   0  0  0  0  0  0  0  0  0  0  0  0
    6.9407   -3.1423    0.0000 H   0  0  0  0  0  0  0  0  0  0  0  0
    6.6592    2.5600    0.0000 H   0  0  0  0  0  0  0  0  0  0  0  0
    5.4641   -3.1300    0.0000 H   0  0  0  0  0  0  0  0  0  0  0  0
    3.7320   -4.3700    0.0000 H   0  0  0  0  0  0  0  0  0  0  0  0
    6.8671   -4.9400    0.0000 H   0  0  0  0  0  0  0  0  0  0  0  0
    5.1350   -1.9400    0.0000 H   0  0  0  0  0  0  0  0  0  0  0  0
    4.0611   -4.9400    0.0000 H   0  0  0  0  0  0  0  0  0  0  0  0
    2.3291   -3.5600    0.0000 H   0  0  0  0  0  0  0  0  0  0  0  0
    6.8671   -6.5600    0.0000 H   0  0  0  0  0  0  0  0  0  0  0  0
    3.7320   -1.1300    0.0000 H   0  0  0  0  0  0  0  0  0  0  0  0
    4.0611   -6.5600    0.0000 H   0  0  0  0  0  0  0  0  0  0  0  0
    9.1403    3.6674    0.0000 H   0  0  0  0  0  0  0  0  0  0  0  0
    9.5388    4.3577    0.0000 H   0  0  0  0  0  0  0  0  0  0  0  0
    8.7162    5.8326    0.0000 H   0  0  0  0  0  0  0  0  0  0  0  0
    8.3176    5.1423    0.0000 H   0  0  0  0  0  0  0  0  0  0  0  0
    9.2573    7.0600    0.0000 H   0  0  0  0  0  0  0  0  0  0  0  0
   10.6603    4.6300    0.0000 H   0  0  0  0  0  0  0  0  0  0  0  0
   10.6603    7.8700    0.0000 H   0  0  0  0  0  0  0  0  0  0  0  0
   12.0632    5.4400    0.0000 H   0  0  0  0  0  0  0  0  0  0  0  0
  1 29  1  0  0  0  0
  2 30  1  0  0  0  0
  3 19  1  0  0  0  0
  3 28  1  0  0  0  0
  4 19  2  0  0  0  0
  5 11  1  0  0  0  0
  5 12  1  0  0  0  0
  5 13  1  0  0  0  0
  6  8  1  0  0  0  0
  6 19  1  0  0  0  0
  6 54  1  0  0  0  0
  7 38  3  0  0  0  0
  8  9  1  0  0  0  0
  8 10  1  0  0  0  0
  8 39  1  0  0  0  0
  9 11  1  0  0  0  0
  9 40  1  0  0  0  0
  9 41  1  0  0  0  0
 10 12  1  0  0  0  0
 10 42  1  0  0  0  0
 10 43  1  0  0  0  0
 11 44  1  0  0  0  0
 11 45  1  0  0  0  0
 12 46  1  0  0  0  0
 12 47  1  0  0  0  0
 13 14  1  0  0  0  0
 13 48  1  0  0  0  0
 13 49  1  0  0  0  0
 14 15  1  0  0  0  0
 14 50  1  0  0  0  0
 14 51  1  0  0  0  0
 15 16  1  0  0  0  0
 15 52  1  0  0  0  0
 15 53  1  0  0  0  0
 16 17  1  0  0  0  0
 16 18  1  0  0  0  0
 16 55  1  0  0  0  0
 17 20  2  0  0  0  0
 17 22  1  0  0  0  0
 18 21  2  0  0  0  0
 18 23  1  0  0  0  0
 20 24  1  0  0  0  0
 20 56  1  0  0  0  0
 21 25  1  0  0  0  0
 21 57  1  0  0  0  0
 22 26  2  0  0  0  0
 22 58  1  0  0  0  0
 23 27  2  0  0  0  0
 23 59  1  0  0  0  0
 24 29  2  0  0  0  0
 24 60  1  0  0  0  0
 25 30  2  0  0  0  0
 25 61  1  0  0  0  0
 26 29  1  0  0  0  0
 26 62  1  0  0  0  0
 27 30  1  0  0  0  0
 27 63  1  0  0  0  0
 28 31  1  0  0  0  0
 28 64  1  0  0  0  0
 28 65  1  0  0  0  0
 31 32  1  0  0  0  0
 31 66  1  0  0  0  0
 31 67  1  0  0  0  0
 32 33  2  0  0  0  0
 32 34  1  0  0  0  0
 33 35  1  0  0  0  0
 33 68  1  0  0  0  0
 34 36  2  0  0  0  0
 34 69  1  0  0  0  0
 35 37  2  0  0  0  0
 35 70  1  0  0  0  0
 36 37  1  0  0  0  0
 36 71  1  0  0  0  0
 37 38  1  0  0  0  0
M  END
> <PUBCHEM_COMPOUND_CID>
11005810

> <PUBCHEM_COMPOUND_CANONICALIZED>
1

> <PUBCHEM_CACTVS_COMPLEXITY>
720

> <PUBCHEM_CACTVS_HBOND_ACCEPTOR>
6

> <PUBCHEM_CACTVS_HBOND_DONOR>
1

> <PUBCHEM_CACTVS_ROTATABLE_BOND>
11

> <PUBCHEM_CACTVS_SUBSKEYS>
AAADcfB7MYAAAAAAAAAAAAAAAAAAAAAAAAA8YMEAAAAAAAABUAAAHwAQAAAADSjhmA4wCIPABACYBiBCGAAiAAAgAAAIiIAIAIkIoCKA0RCMIAAk1gGIiA+QwOAOwAAAAAAAAACAAAAAAAAAAAAAAAAAAA==

> <PUBCHEM_IUPAC_OPENEYE_NAME>
2-(4-cyanophenyl)ethyl N-[1-[4,4-bis(4-fluorophenyl)butyl]-4-piperidyl]carbamate

> <PUBCHEM_IUPAC_CAS_NAME>
N-[1-[4,4-bis(4-fluorophenyl)butyl]-4-piperidinyl]carbamic acid 2-(4-cyanophenyl)ethyl ester

> <PUBCHEM_IUPAC_NAME_MARKUP>
2-(4-cyanophenyl)ethyl <I>N</I>-[1-[4,4-bis(4-fluorophenyl)butyl]piperidin-4-yl]carbamate

> <PUBCHEM_IUPAC_NAME>
2-(4-cyanophenyl)ethyl N-[1-[4,4-bis(4-fluorophenyl)butyl]piperidin-4-yl]carbamate

> <PUBCHEM_IUPAC_SYSTEMATIC_NAME>
2-(4-cyanophenyl)ethyl N-[1-[4,4-bis(4-fluorophenyl)butyl]piperidin-4-yl]carbamate

> <PUBCHEM_IUPAC_TRADITIONAL_NAME>
N-[1-[4,4-bis(4-fluorophenyl)butyl]-4-piperidyl]carbamic acid 2-(4-cyanophenyl)ethyl ester

> <PUBCHEM_IUPAC_INCHI>
InChI=1S/C31H33F2N3O2/c32-27-11-7-25(8-12-27)30(26-9-13-28(33)14-10-26)2-1-18-36-19-15-29(16-20-36)35-31(37)38-21-17-23-3-5-24(22-34)6-4-23/h3-14,29-30H,1-2,15-21H2,(H,35,37)

> <PUBCHEM_IUPAC_INCHIKEY>
GALCSZPFCCZIBC-UHFFFAOYSA-N

> <PUBCHEM_XLOGP3_AA>
6.5

> <PUBCHEM_EXACT_MASS>
517.25408363

> <PUBCHEM_MOLECULAR_FORMULA>
C31H33F2N3O2

> <PUBCHEM_MOLECULAR_WEIGHT>
517.6

> <PUBCHEM_OPENEYE_CAN_SMILES>
C1CN(CCC1NC(=O)OCCC2=CC=C(C=C2)C#N)CCCC(C3=CC=C(C=C3)F)C4=CC=C(C=C4)F

> <PUBCHEM_OPENEYE_ISO_SMILES>
C1CN(CCC1NC(=O)OCCC2=CC=C(C=C2)C#N)CCCC(C3=CC=C(C=C3)F)C4=CC=C(C=C4)F

> <PUBCHEM_CACTVS_TPSA>
65.4

> <PUBCHEM_MONOISOTOPIC_WEIGHT>
517.25408363

> <PUBCHEM_TOTAL_CHARGE>
0

> <PUBCHEM_HEAVY_ATOM_COUNT>
38

> <PUBCHEM_ATOM_DEF_STEREO_COUNT>
0

> <PUBCHEM_ATOM_UDEF_STEREO_COUNT>
0

> <PUBCHEM_BOND_DEF_STEREO_COUNT>
0

> <PUBCHEM_BOND_UDEF_STEREO_COUNT>
0

> <PUBCHEM_ISOTOPIC_ATOM_COUNT>
0

> <PUBCHEM_COMPONENT_COUNT>
1

> <PUBCHEM_CACTVS_TAUTO_COUNT>
-1

> <PUBCHEM_COORDINATE_TYPE>
1
5
255

> <PUBCHEM_BONDANNOTATIONS>
17  20  8
17  22  8
18  21  8
18  23  8
20  24  8
21  25  8
22  26  8
23  27  8
24  29  8
25  30  8
26  29  8
27  30  8
32  33  8
32  34  8
33  35  8
34  36  8
35  37  8
36  37  8

$$$$
