44589130
  -OEChem-09292322232D

 63 66  0     0  0  0  0  0  0999 V2000
    2.0000   -7.0194    0.0000 O   0  0  0  0  0  0  0  0  0  0  0  0
    7.1962    1.9806    0.0000 O   0  0  0  0  0  0  0  0  0  0  0  0
    3.7320   -2.0194    0.0000 N   0  0  0  0  0  0  0  0  0  0  0  0
    3.7320   -4.0194    0.0000 N   0  0  0  0  0  0  0  0  0  0  0  0
    5.4641    1.9806    0.0000 N   0  0  0  0  0  0  0  0  0  0  0  0
    6.3301    6.4806    0.0000 N   0  0  0  0  0  0  0  0  0  0  0  0
    5.8301    8.0194    0.0000 N   0  0  0  0  0  0  0  0  0  0  0  0
    4.5981   -2.5194    0.0000 C   0  0  0  0  0  0  0  0  0  0  0  0
    2.8660   -2.5194    0.0000 C   0  0  0  0  0  0  0  0  0  0  0  0
    4.5981   -3.5194    0.0000 C   0  0  0  0  0  0  0  0  0  0  0  0
    2.8660   -3.5194    0.0000 C   0  0  0  0  0  0  0  0  0  0  0  0
    3.7320   -1.0194    0.0000 C   0  0  0  0  0  0  0  0  0  0  0  0
    4.5981   -0.5194    0.0000 C   0  0  0  0  0  0  0  0  0  0  0  0
    3.7320   -5.0194    0.0000 C   0  0  0  0  0  0  0  0  0  0  0  0
    4.5981    0.4806    0.0000 C   0  0  0  0  0  0  0  0  0  0  0  0
    5.4641    0.9806    0.0000 C   0  0  0  0  0  0  0  0  0  0  0  0
    2.8660   -5.5194    0.0000 C   0  0  0  0  0  0  0  0  0  0  0  0
    4.5981   -5.5194    0.0000 C   0  0  0  0  0  0  0  0  0  0  0  0
    2.8660   -6.5194    0.0000 C   0  0  0  0  0  0  0  0  0  0  0  0
    4.5981   -6.5194    0.0000 C   0  0  0  0  0  0  0  0  0  0  0  0
    3.7320   -7.0194    0.0000 C   0  0  0  0  0  0  0  0  0  0  0  0
    6.3301    2.4806    0.0000 C   0  0  0  0  0  0  0  0  0  0  0  0
    6.3301    3.4806    0.0000 C   0  0  0  0  0  0  0  0  0  0  0  0
    7.1962    3.9806    0.0000 C   0  0  0  0  0  0  0  0  0  0  0  0
    5.4641    3.9806    0.0000 C   0  0  0  0  0  0  0  0  0  0  0  0
    2.0000   -8.0194    0.0000 C   0  0  0  0  0  0  0  0  0  0  0  0
    6.3301    5.4806    0.0000 C   0  0  0  0  0  0  0  0  0  0  0  0
    7.1962    4.9806    0.0000 C   0  0  0  0  0  0  0  0  0  0  0  0
    5.4641    4.9806    0.0000 C   0  0  0  0  0  0  0  0  0  0  0  0
    7.1391    7.0684    0.0000 C   0  0  0  0  0  0  0  0  0  0  0  0
    5.5211    7.0684    0.0000 C   0  0  0  0  0  0  0  0  0  0  0  0
    6.8301    8.0194    0.0000 C   0  0  0  0  0  0  0  0  0  0  0  0
    5.2087   -2.6271    0.0000 H   0  0  0  0  0  0  0  0  0  0  0  0
    4.8101   -1.9368    0.0000 H   0  0  0  0  0  0  0  0  0  0  0  0
    2.6540   -1.9368    0.0000 H   0  0  0  0  0  0  0  0  0  0  0  0
    2.2554   -2.6271    0.0000 H   0  0  0  0  0  0  0  0  0  0  0  0
    4.8101   -4.1020    0.0000 H   0  0  0  0  0  0  0  0  0  0  0  0
    5.2087   -3.4118    0.0000 H   0  0  0  0  0  0  0  0  0  0  0  0
    2.2554   -3.4118    0.0000 H   0  0  0  0  0  0  0  0  0  0  0  0
    2.6540   -4.1020    0.0000 H   0  0  0  0  0  0  0  0  0  0  0  0
    3.5200   -0.4368    0.0000 H   0  0  0  0  0  0  0  0  0  0  0  0
    3.1215   -1.1271    0.0000 H   0  0  0  0  0  0  0  0  0  0  0  0
    4.8101   -1.1020    0.0000 H   0  0  0  0  0  0  0  0  0  0  0  0
    5.2087   -0.4118    0.0000 H   0  0  0  0  0  0  0  0  0  0  0  0
    4.3860    1.0632    0.0000 H   0  0  0  0  0  0  0  0  0  0  0  0
    3.9875    0.3729    0.0000 H   0  0  0  0  0  0  0  0  0  0  0  0
    5.6762    0.3980    0.0000 H   0  0  0  0  0  0  0  0  0  0  0  0
    6.0747    1.0882    0.0000 H   0  0  0  0  0  0  0  0  0  0  0  0
    2.3291   -5.2094    0.0000 H   0  0  0  0  0  0  0  0  0  0  0  0
    5.1350   -5.2094    0.0000 H   0  0  0  0  0  0  0  0  0  0  0  0
    4.9272    2.2906    0.0000 H   0  0  0  0  0  0  0  0  0  0  0  0
    5.1350   -6.8294    0.0000 H   0  0  0  0  0  0  0  0  0  0  0  0
    3.7320   -7.6394    0.0000 H   0  0  0  0  0  0  0  0  0  0  0  0
    7.7331    3.6706    0.0000 H   0  0  0  0  0  0  0  0  0  0  0  0
    4.9272    3.6706    0.0000 H   0  0  0  0  0  0  0  0  0  0  0  0
    1.3800   -8.0194    0.0000 H   0  0  0  0  0  0  0  0  0  0  0  0
    2.0000   -8.6394    0.0000 H   0  0  0  0  0  0  0  0  0  0  0  0
    2.6200   -8.0194    0.0000 H   0  0  0  0  0  0  0  0  0  0  0  0
    7.7331    5.2906    0.0000 H   0  0  0  0  0  0  0  0  0  0  0  0
    4.9272    5.2906    0.0000 H   0  0  0  0  0  0  0  0  0  0  0  0
    7.7288    6.8768    0.0000 H   0  0  0  0  0  0  0  0  0  0  0  0
    4.9315    6.8768    0.0000 H   0  0  0  0  0  0  0  0  0  0  0  0
    7.1946    8.5210    0.0000 H   0  0  0  0  0  0  0  0  0  0  0  0
  1 19  1  0  0  0  0
  1 26  1  0  0  0  0
  2 22  2  0  0  0  0
  3  8  1  0  0  0  0
  3  9  1  0  0  0  0
  3 12  1  0  0  0  0
  4 10  1  0  0  0  0
  4 11  1  0  0  0  0
  4 14  1  0  0  0  0
  5 16  1  0  0  0  0
  5 22  1  0  0  0  0
  5 51  1  0  0  0  0
  6 27  1  0  0  0  0
  6 30  1  0  0  0  0
  6 31  1  0  0  0  0
  7 31  2  0  0  0  0
  7 32  1  0  0  0  0
  8 10  1  0  0  0  0
  8 33  1  0  0  0  0
  8 34  1  0  0  0  0
  9 11  1  0  0  0  0
  9 35  1  0  0  0  0
  9 36  1  0  0  0  0
 10 37  1  0  0  0  0
 10 38  1  0  0  0  0
 11 39  1  0  0  0  0
 11 40  1  0  0  0  0
 12 13  1  0  0  0  0
 12 41  1  0  0  0  0
 12 42  1  0  0  0  0
 13 15  1  0  0  0  0
 13 43  1  0  0  0  0
 13 44  1  0  0  0  0
 14 17  2  0  0  0  0
 14 18  1  0  0  0  0
 15 16  1  0  0  0  0
 15 45  1  0  0  0  0
 15 46  1  0  0  0  0
 16 47  1  0  0  0  0
 16 48  1  0  0  0  0
 17 19  1  0  0  0  0
 17 49  1  0  0  0  0
 18 20  2  0  0  0  0
 18 50  1  0  0  0  0
 19 21  2  0  0  0  0
 20 21  1  0  0  0  0
 20 52  1  0  0  0  0
 21 53  1  0  0  0  0
 22 23  1  0  0  0  0
 23 24  2  0  0  0  0
 23 25  1  0  0  0  0
 24 28  1  0  0  0  0
 24 54  1  0  0  0  0
 25 29  2  0  0  0  0
 25 55  1  0  0  0  0
 26 56  1  0  0  0  0
 26 57  1  0  0  0  0
 26 58  1  0  0  0  0
 27 28  2  0  0  0  0
 27 29  1  0  0  0  0
 28 59  1  0  0  0  0
 29 60  1  0  0  0  0
 30 32  2  0  0  0  0
 30 61  1  0  0  0  0
 31 62  1  0  0  0  0
 32 63  1  0  0  0  0
M  END
> <PUBCHEM_COMPOUND_CID>
44589130

> <PUBCHEM_COMPOUND_CANONICALIZED>
1

> <PUBCHEM_CACTVS_COMPLEXITY>
561

> <PUBCHEM_CACTVS_HBOND_ACCEPTOR>
5

> <PUBCHEM_CACTVS_HBOND_DONOR>
1

> <PUBCHEM_CACTVS_ROTATABLE_BOND>
9

> <PUBCHEM_CACTVS_SUBSKEYS>
AAADceB7sAAAAAAAAAAAAAAAAAAAAWAAAAA8YIAAAAAAAAAB0AAAHgAQAAAADAzBmgY/1pfMFACoAjV3dACCiC01MqAJyIEefMiMbnLEvZuUMShu1hvI6aeY2QOeCAAAAgAAAAAQAAAEAAAAAAAAAAAAAA==

> <PUBCHEM_IUPAC_OPENEYE_NAME>
4-imidazol-1-yl-N-[4-[4-(3-methoxyphenyl)piperazin-1-yl]butyl]benzamide

> <PUBCHEM_IUPAC_CAS_NAME>
4-(1-imidazolyl)-N-[4-[4-(3-methoxyphenyl)-1-piperazinyl]butyl]benzamide

> <PUBCHEM_IUPAC_NAME_MARKUP>
4-imidazol-1-yl-<I>N</I>-[4-[4-(3-methoxyphenyl)piperazin-1-yl]butyl]benzamide

> <PUBCHEM_IUPAC_NAME>
4-imidazol-1-yl-N-[4-[4-(3-methoxyphenyl)piperazin-1-yl]butyl]benzamide

> <PUBCHEM_IUPAC_SYSTEMATIC_NAME>
4-imidazol-1-yl-N-[4-[4-(3-methoxyphenyl)piperazin-1-yl]butyl]benzamide

> <PUBCHEM_IUPAC_TRADITIONAL_NAME>
4-imidazol-1-yl-N-[4-[4-(3-methoxyphenyl)piperazino]butyl]benzamide

> <PUBCHEM_IUPAC_INCHI>
InChI=1S/C25H31N5O2/c1-32-24-6-4-5-23(19-24)29-17-15-28(16-18-29)13-3-2-11-27-25(31)21-7-9-22(10-8-21)30-14-12-26-20-30/h4-10,12,14,19-20H,2-3,11,13,15-18H2,1H3,(H,27,31)

> <PUBCHEM_IUPAC_INCHIKEY>
QSHZDFROGASVTB-UHFFFAOYSA-N

> <PUBCHEM_XLOGP3_AA>
3.3

> <PUBCHEM_EXACT_MASS>
433.24777525

> <PUBCHEM_MOLECULAR_FORMULA>
C25H31N5O2

> <PUBCHEM_MOLECULAR_WEIGHT>
433.5

> <PUBCHEM_OPENEYE_CAN_SMILES>
COC1=CC=CC(=C1)N2CCN(CC2)CCCCNC(=O)C3=CC=C(C=C3)N4C=CN=C4

> <PUBCHEM_OPENEYE_ISO_SMILES>
COC1=CC=CC(=C1)N2CCN(CC2)CCCCNC(=O)C3=CC=C(C=C3)N4C=CN=C4

> <PUBCHEM_CACTVS_TPSA>
62.6

> <PUBCHEM_MONOISOTOPIC_WEIGHT>
433.24777525

> <PUBCHEM_TOTAL_CHARGE>
0

> <PUBCHEM_HEAVY_ATOM_COUNT>
32

> <PUBCHEM_ATOM_DEF_STEREO_COUNT>
0

> <PUBCHEM_ATOM_UDEF_STEREO_COUNT>
0

> <PUBCHEM_BOND_DEF_STEREO_COUNT>
0

> <PUBCHEM_BOND_UDEF_STEREO_COUNT>
0

> <PUBCHEM_ISOTOPIC_ATOM_COUNT>
0

> <PUBCHEM_COMPONENT_COUNT>
1

> <PUBCHEM_CACTVS_TAUTO_COUNT>
-1

> <PUBCHEM_COORDINATE_TYPE>
1
5
255

> <PUBCHEM_BONDANNOTATIONS>
14  17  8
14  18  8
17  19  8
18  20  8
19  21  8
20  21  8
23  24  8
23  25  8
24  28  8
25  29  8
27  28  8
27  29  8
30  32  8
6  30  8
6  31  8
7  31  8
7  32  8

$$$$
