164609650
  -OEChem-09292322432D

 47 50  0     1  0  0  0  0  0999 V2000
    2.0000   -1.0116    0.0000 Cl  0  0  0  0  0  0  0  0  0  0  0  0
    2.0000    0.9884    0.0000 Cl  0  0  0  0  0  0  0  0  0  0  0  0
    5.8550    1.7436    0.0000 O   0  0  0  0  0  0  0  0  0  0  0  0
    8.6279   -0.8776    0.0000 N   0  0  0  0  0  0  0  0  0  0  0  0
   10.6279   -0.8776    0.0000 N   0  0  0  0  0  0  0  0  0  0  0  0
   12.1279   -1.7436    0.0000 N   0  0  0  0  0  0  0  0  0  0  0  0
    6.1279   -0.0116    0.0000 C   0  0  3  0  0  0  0  0  0  0  0  0
    7.1279   -0.0116    0.0000 C   0  0  0  0  0  0  0  0  0  0  0  0
    7.6279   -0.8776    0.0000 C   0  0  0  0  0  0  0  0  0  0  0  0
    5.5443   -0.8163    0.0000 C   0  0  0  0  0  0  0  0  0  0  0  0
    9.1279   -0.0116    0.0000 C   0  0  0  0  0  0  0  0  0  0  0  0
    9.1279   -1.7436    0.0000 C   0  0  0  0  0  0  0  0  0  0  0  0
   10.1279   -0.0116    0.0000 C   0  0  0  0  0  0  0  0  0  0  0  0
   10.1279   -1.7436    0.0000 C   0  0  0  0  0  0  0  0  0  0  0  0
    5.5443    0.7931    0.0000 C   0  0  0  0  0  0  0  0  0  0  0  0
    4.5981   -0.5116    0.0000 C   0  0  0  0  0  0  0  0  0  0  0  0
    4.5981    0.4884    0.0000 C   0  0  0  0  0  0  0  0  0  0  0  0
    3.7320   -1.0116    0.0000 C   0  0  0  0  0  0  0  0  0  0  0  0
   11.6279   -0.8776    0.0000 C   0  0  0  0  0  0  0  0  0  0  0  0
    3.7320    0.9884    0.0000 C   0  0  0  0  0  0  0  0  0  0  0  0
    2.8660   -0.5116    0.0000 C   0  0  0  0  0  0  0  0  0  0  0  0
    2.8660    0.4884    0.0000 C   0  0  0  0  0  0  0  0  0  0  0  0
   12.1279   -0.0116    0.0000 C   0  0  0  0  0  0  0  0  0  0  0  0
   13.1279   -0.0116    0.0000 C   0  0  0  0  0  0  0  0  0  0  0  0
   13.1279   -1.7436    0.0000 C   0  0  0  0  0  0  0  0  0  0  0  0
   13.6279   -0.8776    0.0000 C   0  0  0  0  0  0  0  0  0  0  0  0
    6.4096   -0.5639    0.0000 H   0  0  0  0  0  0  0  0  0  0  0  0
    7.7105    0.2005    0.0000 H   0  0  0  0  0  0  0  0  0  0  0  0
    7.0202    0.5990    0.0000 H   0  0  0  0  0  0  0  0  0  0  0  0
    7.0453   -1.0897    0.0000 H   0  0  0  0  0  0  0  0  0  0  0  0
    7.7356   -1.4882    0.0000 H   0  0  0  0  0  0  0  0  0  0  0  0
    5.2933   -1.3832    0.0000 H   0  0  0  0  0  0  0  0  0  0  0  0
    6.0817   -1.1256    0.0000 H   0  0  0  0  0  0  0  0  0  0  0  0
    9.2356    0.5990    0.0000 H   0  0  0  0  0  0  0  0  0  0  0  0
    8.5453    0.2005    0.0000 H   0  0  0  0  0  0  0  0  0  0  0  0
    8.5453   -1.9557    0.0000 H   0  0  0  0  0  0  0  0  0  0  0  0
    9.2356   -2.3542    0.0000 H   0  0  0  0  0  0  0  0  0  0  0  0
   10.7105    0.2005    0.0000 H   0  0  0  0  0  0  0  0  0  0  0  0
   10.0202    0.5990    0.0000 H   0  0  0  0  0  0  0  0  0  0  0  0
   10.0202   -2.3542    0.0000 H   0  0  0  0  0  0  0  0  0  0  0  0
   10.7105   -1.9557    0.0000 H   0  0  0  0  0  0  0  0  0  0  0  0
    3.7320   -1.6316    0.0000 H   0  0  0  0  0  0  0  0  0  0  0  0
    3.7320    1.6084    0.0000 H   0  0  0  0  0  0  0  0  0  0  0  0
   11.8179    0.5253    0.0000 H   0  0  0  0  0  0  0  0  0  0  0  0
   13.4379    0.5253    0.0000 H   0  0  0  0  0  0  0  0  0  0  0  0
   13.4379   -2.2806    0.0000 H   0  0  0  0  0  0  0  0  0  0  0  0
   14.2479   -0.8776    0.0000 H   0  0  0  0  0  0  0  0  0  0  0  0
  1 21  1  0  0  0  0
  2 22  1  0  0  0  0
  3 15  2  0  0  0  0
  4  9  1  0  0  0  0
  4 11  1  0  0  0  0
  4 12  1  0  0  0  0
  5 13  1  0  0  0  0
  5 14  1  0  0  0  0
  5 19  1  0  0  0  0
  6 19  1  0  0  0  0
  6 25  2  0  0  0  0
  7  8  1  0  0  0  0
  7 10  1  0  0  0  0
  7 15  1  0  0  0  0
  7 27  1  0  0  0  0
  8  9  1  0  0  0  0
  8 28  1  0  0  0  0
  8 29  1  0  0  0  0
  9 30  1  0  0  0  0
  9 31  1  0  0  0  0
 10 16  1  0  0  0  0
 10 32  1  0  0  0  0
 10 33  1  0  0  0  0
 11 13  1  0  0  0  0
 11 34  1  0  0  0  0
 11 35  1  0  0  0  0
 12 14  1  0  0  0  0
 12 36  1  0  0  0  0
 12 37  1  0  0  0  0
 13 38  1  0  0  0  0
 13 39  1  0  0  0  0
 14 40  1  0  0  0  0
 14 41  1  0  0  0  0
 15 17  1  0  0  0  0
 16 17  1  0  0  0  0
 16 18  2  0  0  0  0
 17 20  2  0  0  0  0
 18 21  1  0  0  0  0
 18 42  1  0  0  0  0
 19 23  2  0  0  0  0
 20 22  1  0  0  0  0
 20 43  1  0  0  0  0
 21 22  2  0  0  0  0
 23 24  1  0  0  0  0
 23 44  1  0  0  0  0
 24 26  2  0  0  0  0
 24 45  1  0  0  0  0
 25 26  1  0  0  0  0
 25 46  1  0  0  0  0
 26 47  1  0  0  0  0
M  END
> <PUBCHEM_COMPOUND_CID>
164609650

> <PUBCHEM_COMPOUND_CANONICALIZED>
1

> <PUBCHEM_CACTVS_COMPLEXITY>
497

> <PUBCHEM_CACTVS_HBOND_ACCEPTOR>
4

> <PUBCHEM_CACTVS_HBOND_DONOR>
0

> <PUBCHEM_CACTVS_ROTATABLE_BOND>
4

> <PUBCHEM_CACTVS_SUBSKEYS>
AAADceB7IAAGAAAAAAAAAAAAAAAAAYAAAAA8WIAAAAAAAGABwAAAHgIAAAAADQbBmiQ9sJMIEACoArJ3ZACCgCk1ByAJ2mE4ZtiIYPLBn5GUIQhogALIyacciMCOhAAAIAAQAAQIAABAACAACQAACAAAAA==

> <PUBCHEM_IUPAC_OPENEYE_NAME>
5,6-dichloro-2-[2-[4-(2-pyridyl)piperazin-1-yl]ethyl]indan-1-one

> <PUBCHEM_IUPAC_CAS_NAME>
5,6-dichloro-2-[2-[4-(2-pyridinyl)-1-piperazinyl]ethyl]-2,3-dihydroinden-1-one

> <PUBCHEM_IUPAC_NAME_MARKUP>
5,6-dichloro-2-[2-(4-pyridin-2-ylpiperazin-1-yl)ethyl]-2,3-dihydroinden-1-one

> <PUBCHEM_IUPAC_NAME>
5,6-dichloro-2-[2-(4-pyridin-2-ylpiperazin-1-yl)ethyl]-2,3-dihydroinden-1-one

> <PUBCHEM_IUPAC_SYSTEMATIC_NAME>
5,6-bis(chloranyl)-2-[2-(4-pyridin-2-ylpiperazin-1-yl)ethyl]-2,3-dihydroinden-1-one

> <PUBCHEM_IUPAC_TRADITIONAL_NAME>
5,6-dichloro-2-[2-[4-(2-pyridyl)piperazino]ethyl]indan-1-one

> <PUBCHEM_IUPAC_INCHI>
InChI=1S/C20H21Cl2N3O/c21-17-12-15-11-14(20(26)16(15)13-18(17)22)4-6-24-7-9-25(10-8-24)19-3-1-2-5-23-19/h1-3,5,12-14H,4,6-11H2

> <PUBCHEM_IUPAC_INCHIKEY>
PKODMLACMGNJDC-UHFFFAOYSA-N

> <PUBCHEM_XLOGP3_AA>
4.2

> <PUBCHEM_EXACT_MASS>
389.1061677

> <PUBCHEM_MOLECULAR_FORMULA>
C20H21Cl2N3O

> <PUBCHEM_MOLECULAR_WEIGHT>
390.3

> <PUBCHEM_OPENEYE_CAN_SMILES>
C1CN(CCN1CCC2CC3=CC(=C(C=C3C2=O)Cl)Cl)C4=CC=CC=N4

> <PUBCHEM_OPENEYE_ISO_SMILES>
C1CN(CCN1CCC2CC3=CC(=C(C=C3C2=O)Cl)Cl)C4=CC=CC=N4

> <PUBCHEM_CACTVS_TPSA>
36.4

> <PUBCHEM_MONOISOTOPIC_WEIGHT>
389.1061677

> <PUBCHEM_TOTAL_CHARGE>
0

> <PUBCHEM_HEAVY_ATOM_COUNT>
26

> <PUBCHEM_ATOM_DEF_STEREO_COUNT>
0

> <PUBCHEM_ATOM_UDEF_STEREO_COUNT>
1

> <PUBCHEM_BOND_DEF_STEREO_COUNT>
0

> <PUBCHEM_BOND_UDEF_STEREO_COUNT>
0

> <PUBCHEM_ISOTOPIC_ATOM_COUNT>
0

> <PUBCHEM_COMPONENT_COUNT>
1

> <PUBCHEM_CACTVS_TAUTO_COUNT>
-1

> <PUBCHEM_COORDINATE_TYPE>
1
5
255

> <PUBCHEM_BONDANNOTATIONS>
16  17  8
16  18  8
17  20  8
18  21  8
19  23  8
20  22  8
21  22  8
23  24  8
24  26  8
25  26  8
6  19  8
6  25  8
7  8  3

$$$$
