71458069
  -OEChem-09292322102D

 61 66  0     1  0  0  0  0  0999 V2000
    7.1906    1.3553    0.0000 N   0  0  0  0  0  0  0  0  0  0  0  0
    4.6783   -2.8509    0.0000 N   0  0  0  0  0  0  0  0  0  0  0  0
    6.1840    2.0589    0.0000 C   0  0  2  0  0  0  0  0  0  0  0  0
    5.2272    1.7682    0.0000 C   0  0  1  0  0  0  0  0  0  0  0  0
    4.9889   -0.2909    0.0000 C   0  0  0  0  0  0  0  0  0  0  0  0
    5.9405    0.0165    0.0000 C   0  0  0  0  0  0  0  0  0  0  0  0
    4.4026    0.5191    0.0000 C   0  0  0  0  0  0  0  0  0  0  0  0
    5.6291    3.4402    0.0000 C   0  0  0  0  0  0  0  0  0  0  0  0
    4.6723    3.1495    0.0000 C   0  0  0  0  0  0  0  0  0  0  0  0
    8.0727    0.8843    0.0000 C   0  0  0  0  0  0  0  0  0  0  0  0
    4.6783   -1.2414    0.0000 C   0  0  0  0  0  0  0  0  0  0  0  0
    8.9216    1.4128    0.0000 C   0  0  0  0  0  0  0  0  0  0  0  0
    3.7320   -1.5462    0.0000 C   0  0  0  0  0  0  0  0  0  0  0  0
    5.2619   -2.0462    0.0000 C   0  0  0  0  0  0  0  0  0  0  0  0
    3.7320   -2.5462    0.0000 C   0  0  0  0  0  0  0  0  0  0  0  0
    9.8038    0.9418    0.0000 C   0  0  0  0  0  0  0  0  0  0  0  0
    6.2619   -2.0462    0.0000 C   0  0  0  0  0  0  0  0  0  0  0  0
    2.8660   -1.0462    0.0000 C   0  0  0  0  0  0  0  0  0  0  0  0
    2.8660   -3.0462    0.0000 C   0  0  0  0  0  0  0  0  0  0  0  0
    2.0000   -1.5462    0.0000 C   0  0  0  0  0  0  0  0  0  0  0  0
   10.6527    1.4702    0.0000 C   0  0  0  0  0  0  0  0  0  0  0  0
    9.8370   -0.0577    0.0000 C   0  0  0  0  0  0  0  0  0  0  0  0
    2.0000   -2.5462    0.0000 C   0  0  0  0  0  0  0  0  0  0  0  0
    6.7619   -1.1801    0.0000 C   0  0  0  0  0  0  0  0  0  0  0  0
    6.7619   -2.9122    0.0000 C   0  0  0  0  0  0  0  0  0  0  0  0
   11.5349    0.9992    0.0000 C   0  0  0  0  0  0  0  0  0  0  0  0
   10.7191   -0.5287    0.0000 C   0  0  0  0  0  0  0  0  0  0  0  0
    7.7619   -1.1801    0.0000 C   0  0  0  0  0  0  0  0  0  0  0  0
    7.7619   -2.9122    0.0000 C   0  0  0  0  0  0  0  0  0  0  0  0
   11.5680   -0.0002    0.0000 C   0  0  0  0  0  0  0  0  0  0  0  0
    8.2619   -2.0462    0.0000 C   0  0  0  0  0  0  0  0  0  0  0  0
    6.9973    2.3060    0.0000 H   0  0  0  0  0  0  0  0  0  0  0  0
    4.4139    1.5211    0.0000 H   0  0  0  0  0  0  0  0  0  0  0  0
    5.4266   -0.7301    0.0000 H   0  0  0  0  0  0  0  0  0  0  0  0
    6.0446   -0.5947    0.0000 H   0  0  0  0  0  0  0  0  0  0  0  0
    6.5603    0.0320    0.0000 H   0  0  0  0  0  0  0  0  0  0  0  0
    3.9298    0.9203    0.0000 H   0  0  0  0  0  0  0  0  0  0  0  0
    3.9476    0.0980    0.0000 H   0  0  0  0  0  0  0  0  0  0  0  0
    6.2109    3.6546    0.0000 H   0  0  0  0  0  0  0  0  0  0  0  0
    5.4317    4.0280    0.0000 H   0  0  0  0  0  0  0  0  0  0  0  0
    4.4749    3.7372    0.0000 H   0  0  0  0  0  0  0  0  0  0  0  0
    4.0905    2.9351    0.0000 H   0  0  0  0  0  0  0  0  0  0  0  0
    7.6901    0.3964    0.0000 H   0  0  0  0  0  0  0  0  0  0  0  0
    8.4868    0.4228    0.0000 H   0  0  0  0  0  0  0  0  0  0  0  0
    9.3042    1.9007    0.0000 H   0  0  0  0  0  0  0  0  0  0  0  0
    8.5076    1.8742    0.0000 H   0  0  0  0  0  0  0  0  0  0  0  0
    4.8709   -3.4402    0.0000 H   0  0  0  0  0  0  0  0  0  0  0  0
    2.8660   -0.4262    0.0000 H   0  0  0  0  0  0  0  0  0  0  0  0
    2.8660   -3.6662    0.0000 H   0  0  0  0  0  0  0  0  0  0  0  0
    1.4631   -1.2362    0.0000 H   0  0  0  0  0  0  0  0  0  0  0  0
   10.6322    2.0899    0.0000 H   0  0  0  0  0  0  0  0  0  0  0  0
    9.3106   -0.3853    0.0000 H   0  0  0  0  0  0  0  0  0  0  0  0
    1.4631   -2.8562    0.0000 H   0  0  0  0  0  0  0  0  0  0  0  0
    6.4519   -0.6432    0.0000 H   0  0  0  0  0  0  0  0  0  0  0  0
    6.4519   -3.4491    0.0000 H   0  0  0  0  0  0  0  0  0  0  0  0
   12.0612    1.3268    0.0000 H   0  0  0  0  0  0  0  0  0  0  0  0
   10.7396   -1.1484    0.0000 H   0  0  0  0  0  0  0  0  0  0  0  0
    8.0719   -0.6432    0.0000 H   0  0  0  0  0  0  0  0  0  0  0  0
    8.0719   -3.4491    0.0000 H   0  0  0  0  0  0  0  0  0  0  0  0
   12.1150   -0.2923    0.0000 H   0  0  0  0  0  0  0  0  0  0  0  0
    8.8819   -2.0462    0.0000 H   0  0  0  0  0  0  0  0  0  0  0  0
  1  3  1  0  0  0  0
  1  4  1  0  0  0  0
  1 10  1  0  0  0  0
  2 14  1  0  0  0  0
  2 15  1  0  0  0  0
  2 47  1  0  0  0  0
  3  6  1  0  0  0  0
  3  8  1  0  0  0  0
  3 32  1  1  0  0  0
  4  7  1  0  0  0  0
  4  9  1  0  0  0  0
  4 33  1  6  0  0  0
  5  6  1  0  0  0  0
  5  7  1  0  0  0  0
  5 11  1  0  0  0  0
  5 34  1  0  0  0  0
  6 35  1  0  0  0  0
  6 36  1  0  0  0  0
  7 37  1  0  0  0  0
  7 38  1  0  0  0  0
  8  9  1  0  0  0  0
  8 39  1  0  0  0  0
  8 40  1  0  0  0  0
  9 41  1  0  0  0  0
  9 42  1  0  0  0  0
 10 12  1  0  0  0  0
 10 43  1  0  0  0  0
 10 44  1  0  0  0  0
 11 13  1  0  0  0  0
 11 14  2  0  0  0  0
 12 16  1  0  0  0  0
 12 45  1  0  0  0  0
 12 46  1  0  0  0  0
 13 15  1  0  0  0  0
 13 18  2  0  0  0  0
 14 17  1  0  0  0  0
 15 19  2  0  0  0  0
 16 21  2  0  0  0  0
 16 22  1  0  0  0  0
 17 24  2  0  0  0  0
 17 25  1  0  0  0  0
 18 20  1  0  0  0  0
 18 48  1  0  0  0  0
 19 23  1  0  0  0  0
 19 49  1  0  0  0  0
 20 23  2  0  0  0  0
 20 50  1  0  0  0  0
 21 26  1  0  0  0  0
 21 51  1  0  0  0  0
 22 27  2  0  0  0  0
 22 52  1  0  0  0  0
 23 53  1  0  0  0  0
 24 28  1  0  0  0  0
 24 54  1  0  0  0  0
 25 29  2  0  0  0  0
 25 55  1  0  0  0  0
 26 30  2  0  0  0  0
 26 56  1  0  0  0  0
 27 30  1  0  0  0  0
 27 57  1  0  0  0  0
 28 31  2  0  0  0  0
 28 58  1  0  0  0  0
 29 31  1  0  0  0  0
 29 59  1  0  0  0  0
 30 60  1  0  0  0  0
 31 61  1  0  0  0  0
M  END
> <PUBCHEM_COMPOUND_CID>
71458069

> <PUBCHEM_COMPOUND_CANONICALIZED>
1

> <PUBCHEM_CACTVS_COMPLEXITY>
563

> <PUBCHEM_CACTVS_HBOND_ACCEPTOR>
1

> <PUBCHEM_CACTVS_HBOND_DONOR>
1

> <PUBCHEM_CACTVS_ROTATABLE_BOND>
5

> <PUBCHEM_CACTVS_SUBSKEYS>
AAADceB7AAAAAAAAAAAAAAAAAAAAAWLAAAA8YMEABgAAAFgB9AAAHAAQAAAADSjBHgQwwPPJkACgAyRiRACCgCAhAiAImSA4ZJgIIOLAkZGEIAhgkADIyAcQgMAOgAAAAAACAAAAAAAAAAQAAAAAAAAAAA==

> <PUBCHEM_IUPAC_OPENEYE_NAME>
2-phenyl-3-[(1S,5R)-8-(2-phenylethyl)-8-azabicyclo[3.2.1]octan-3-yl]-1H-indole

> <PUBCHEM_IUPAC_CAS_NAME>
2-phenyl-3-[(1S,5R)-8-(2-phenylethyl)-8-azabicyclo[3.2.1]octan-3-yl]-1H-indole

> <PUBCHEM_IUPAC_NAME_MARKUP>
2-phenyl-3-[(1<I>S</I>,5<I>R</I>)-8-(2-phenylethyl)-8-azabicyclo[3.2.1]octan-3-yl]-1<I>H</I>-indole

> <PUBCHEM_IUPAC_NAME>
2-phenyl-3-[(1S,5R)-8-(2-phenylethyl)-8-azabicyclo[3.2.1]octan-3-yl]-1H-indole

> <PUBCHEM_IUPAC_SYSTEMATIC_NAME>
2-phenyl-3-[(1S,5R)-8-(2-phenylethyl)-8-azabicyclo[3.2.1]octan-3-yl]-1H-indole

> <PUBCHEM_IUPAC_TRADITIONAL_NAME>
3-[(1S,5R)-8-phenethyl-8-azabicyclo[3.2.1]octan-3-yl]-2-phenyl-1H-indole

> <PUBCHEM_IUPAC_INCHI>
InChI=1S/C29H30N2/c1-3-9-21(10-4-1)17-18-31-24-15-16-25(31)20-23(19-24)28-26-13-7-8-14-27(26)30-29(28)22-11-5-2-6-12-22/h1-14,23-25,30H,15-20H2/t23?,24-,25+

> <PUBCHEM_IUPAC_INCHIKEY>
QOUVFTQPYVSKEQ-QILAJZQNSA-N

> <PUBCHEM_XLOGP3_AA>
6.9

> <PUBCHEM_EXACT_MASS>
406.240898965

> <PUBCHEM_MOLECULAR_FORMULA>
C29H30N2

> <PUBCHEM_MOLECULAR_WEIGHT>
406.6

> <PUBCHEM_OPENEYE_CAN_SMILES>
C1CC2CC(CC1N2CCC3=CC=CC=C3)C4=C(NC5=CC=CC=C54)C6=CC=CC=C6

> <PUBCHEM_OPENEYE_ISO_SMILES>
C1C[C@H]2CC(C[C@@H]1N2CCC3=CC=CC=C3)C4=C(NC5=CC=CC=C54)C6=CC=CC=C6

> <PUBCHEM_CACTVS_TPSA>
19

> <PUBCHEM_MONOISOTOPIC_WEIGHT>
406.240898965

> <PUBCHEM_TOTAL_CHARGE>
0

> <PUBCHEM_HEAVY_ATOM_COUNT>
31

> <PUBCHEM_ATOM_DEF_STEREO_COUNT>
2

> <PUBCHEM_ATOM_UDEF_STEREO_COUNT>
0

> <PUBCHEM_BOND_DEF_STEREO_COUNT>
0

> <PUBCHEM_BOND_UDEF_STEREO_COUNT>
0

> <PUBCHEM_ISOTOPIC_ATOM_COUNT>
0

> <PUBCHEM_COMPONENT_COUNT>
1

> <PUBCHEM_CACTVS_TAUTO_COUNT>
-1

> <PUBCHEM_COORDINATE_TYPE>
1
5
255

> <PUBCHEM_BONDANNOTATIONS>
11  13  8
11  14  8
13  15  8
13  18  8
15  19  8
16  21  8
16  22  8
17  24  8
17  25  8
18  20  8
19  23  8
2  14  8
2  15  8
20  23  8
21  26  8
22  27  8
24  28  8
25  29  8
26  30  8
27  30  8
28  31  8
29  31  8
3  32  5
4  33  6

$$$$
