127052468
  -OEChem-09292322372D

 46 48  0     1  0  0  0  0  0999 V2000
    4.8704    0.0000    0.0000 Cl  0  0  0  0  0  0  0  0  0  0  0  0
   10.7407    3.9214    0.0000 F   0  0  0  0  0  0  0  0  0  0  0  0
    4.0678    5.6193    0.0000 N   0  0  3  0  0  0  0  0  0  0  0  0
    6.6659    5.1193    0.0000 C   0  0  3  0  0  0  0  0  0  0  0  0
    5.7998    5.6193    0.0000 C   0  0  0  0  0  0  0  0  0  0  0  0
    7.5737    5.5244    0.0000 C   0  0  0  0  0  0  0  0  0  0  0  0
    6.7689    4.1306    0.0000 C   0  0  0  0  0  0  0  0  0  0  0  0
    4.9338    5.1193    0.0000 C   0  0  0  0  0  0  0  0  0  0  0  0
    8.2407    4.7874    0.0000 C   0  0  0  0  0  0  0  0  0  0  0  0
    7.7407    3.9214    0.0000 C   0  0  0  0  0  0  0  0  0  0  0  0
    4.0678    6.6193    0.0000 C   0  0  0  0  0  0  0  0  0  0  0  0
    3.2018    5.1193    0.0000 C   0  0  0  0  0  0  0  0  0  0  0  0
    3.2018    7.1193    0.0000 C   0  0  0  0  0  0  0  0  0  0  0  0
    2.3358    5.6193    0.0000 C   0  0  0  0  0  0  0  0  0  0  0  0
    2.3358    6.6193    0.0000 C   0  0  0  0  0  0  0  0  0  0  0  0
    9.2407    4.7874    0.0000 C   0  0  0  0  0  0  0  0  0  0  0  0
    8.2407    3.0554    0.0000 C   0  0  0  0  0  0  0  0  0  0  0  0
    9.7407    3.9214    0.0000 C   0  0  0  0  0  0  0  0  0  0  0  0
    9.2407    3.0554    0.0000 C   0  0  0  0  0  0  0  0  0  0  0  0
    1.4418    5.0847    0.0000 C   0  0  0  0  0  0  0  0  0  0  0  0
    1.4418    7.1540    0.0000 C   0  0  0  0  0  0  0  0  0  0  0  0
    0.5357    5.5985    0.0000 C   0  0  0  0  0  0  0  0  0  0  0  0
    0.5357    6.6402    0.0000 C   0  0  0  0  0  0  0  0  0  0  0  0
    6.1457    4.7819    0.0000 H   0  0  0  0  0  0  0  0  0  0  0  0
    6.1984    6.0943    0.0000 H   0  0  0  0  0  0  0  0  0  0  0  0
    5.4013    6.0943    0.0000 H   0  0  0  0  0  0  0  0  0  0  0  0
    8.0745    5.8899    0.0000 H   0  0  0  0  0  0  0  0  0  0  0  0
    7.2629    6.0609    0.0000 H   0  0  0  0  0  0  0  0  0  0  0  0
    6.1489    4.1315    0.0000 H   0  0  0  0  0  0  0  0  0  0  0  0
    6.7029    3.5141    0.0000 H   0  0  0  0  0  0  0  0  0  0  0  0
    4.5353    4.6444    0.0000 H   0  0  0  0  0  0  0  0  0  0  0  0
    5.3324    4.6444    0.0000 H   0  0  0  0  0  0  0  0  0  0  0  0
    4.6784    6.5117    0.0000 H   0  0  0  0  0  0  0  0  0  0  0  0
    4.2798    7.2020    0.0000 H   0  0  0  0  0  0  0  0  0  0  0  0
    2.8032    4.6444    0.0000 H   0  0  0  0  0  0  0  0  0  0  0  0
    3.6003    4.6444    0.0000 H   0  0  0  0  0  0  0  0  0  0  0  0
    3.6003    7.5943    0.0000 H   0  0  0  0  0  0  0  0  0  0  0  0
    2.8032    7.5943    0.0000 H   0  0  0  0  0  0  0  0  0  0  0  0
    9.5507    5.3244    0.0000 H   0  0  0  0  0  0  0  0  0  0  0  0
    7.9307    2.5184    0.0000 H   0  0  0  0  0  0  0  0  0  0  0  0
    9.5507    2.5184    0.0000 H   0  0  0  0  0  0  0  0  0  0  0  0
    1.4490    4.4647    0.0000 H   0  0  0  0  0  0  0  0  0  0  0  0
    1.4490    7.7740    0.0000 H   0  0  0  0  0  0  0  0  0  0  0  0
    0.0000    5.2864    0.0000 H   0  0  0  0  0  0  0  0  0  0  0  0
    0.0000    6.9522    0.0000 H   0  0  0  0  0  0  0  0  0  0  0  0
    5.8704    0.0000    0.0000 H   0  0  0  0  0  0  0  0  0  0  0  0
  1 46  1  0  0  0  0
  2 18  1  0  0  0  0
  3  8  1  0  0  0  0
  3 11  1  0  0  0  0
  3 12  1  0  0  0  0
  4  5  1  0  0  0  0
  4  6  1  0  0  0  0
  4  7  1  0  0  0  0
  4 24  1  0  0  0  0
  5  8  1  0  0  0  0
  5 25  1  0  0  0  0
  5 26  1  0  0  0  0
  6  9  1  0  0  0  0
  6 27  1  0  0  0  0
  6 28  1  0  0  0  0
  7 10  1  0  0  0  0
  7 29  1  0  0  0  0
  7 30  1  0  0  0  0
  8 31  1  0  0  0  0
  8 32  1  0  0  0  0
  9 10  2  0  0  0  0
  9 16  1  0  0  0  0
 10 17  1  0  0  0  0
 11 13  1  0  0  0  0
 11 33  1  0  0  0  0
 11 34  1  0  0  0  0
 12 14  1  0  0  0  0
 12 35  1  0  0  0  0
 12 36  1  0  0  0  0
 13 15  1  0  0  0  0
 13 37  1  0  0  0  0
 13 38  1  0  0  0  0
 14 15  1  0  0  0  0
 14 20  2  0  0  0  0
 15 21  2  0  0  0  0
 16 18  2  0  0  0  0
 16 39  1  0  0  0  0
 17 19  2  0  0  0  0
 17 40  1  0  0  0  0
 18 19  1  0  0  0  0
 19 41  1  0  0  0  0
 20 22  1  0  0  0  0
 20 42  1  0  0  0  0
 21 23  1  0  0  0  0
 21 43  1  0  0  0  0
 22 23  2  0  0  0  0
 22 44  1  0  0  0  0
 23 45  1  0  0  0  0
M  END
> <PUBCHEM_COMPOUND_CID>
127052468

> <PUBCHEM_COMPOUND_CANONICALIZED>
1

> <PUBCHEM_CACTVS_COMPLEXITY>
371

> <PUBCHEM_CACTVS_HBOND_ACCEPTOR>
2

> <PUBCHEM_CACTVS_HBOND_DONOR>
1

> <PUBCHEM_CACTVS_ROTATABLE_BOND>
3

> <PUBCHEM_CACTVS_SUBSKEYS>
AAADceB6AQAEAAAAAAAAAAAAAAAAAYAAAAA8YIAAAAAAAGCxQAAAHQAAAAAADQDBGAwwAIMAAACAAiBCAACCAAAgAAAIiAAIBIgIICKAkRGEIAhggACIiAcQgMAOgAAAAAAQAAAAAAAAACAAAQAACAAAAA==

> <PUBCHEM_IUPAC_OPENEYE_NAME>
2-[2-(5-fluoroindan-2-yl)ethyl]-3,4-dihydro-1H-isoquinoline;hydrochloride

> <PUBCHEM_IUPAC_CAS_NAME>
2-[2-(5-fluoro-2,3-dihydro-1H-inden-2-yl)ethyl]-3,4-dihydro-1H-isoquinoline;hydrochloride

> <PUBCHEM_IUPAC_NAME_MARKUP>
2-[2-(5-fluoro-2,3-dihydro-1<I>H</I>-inden-2-yl)ethyl]-3,4-dihydro-1<I>H</I>-isoquinoline;hydrochloride

> <PUBCHEM_IUPAC_NAME>
2-[2-(5-fluoro-2,3-dihydro-1H-inden-2-yl)ethyl]-3,4-dihydro-1H-isoquinoline;hydrochloride

> <PUBCHEM_IUPAC_SYSTEMATIC_NAME>
2-[2-(5-fluoranyl-2,3-dihydro-1H-inden-2-yl)ethyl]-3,4-dihydro-1H-isoquinoline;hydrochloride

> <PUBCHEM_IUPAC_TRADITIONAL_NAME>
2-[2-(5-fluoroindan-2-yl)ethyl]-3,4-dihydro-1H-isoquinoline;hydrochloride

> <PUBCHEM_IUPAC_INCHI>
InChI=1S/C20H22FN.ClH/c21-20-6-5-17-11-15(12-19(17)13-20)7-9-22-10-8-16-3-1-2-4-18(16)14-22;/h1-6,13,15H,7-12,14H2;1H

> <PUBCHEM_IUPAC_INCHIKEY>
CPKFIRXOQTXZFK-UHFFFAOYSA-N

> <PUBCHEM_EXACT_MASS>
331.1503056

> <PUBCHEM_MOLECULAR_FORMULA>
C20H23ClFN

> <PUBCHEM_MOLECULAR_WEIGHT>
331.9

> <PUBCHEM_OPENEYE_CAN_SMILES>
C1CN(CC2=CC=CC=C21)CCC3CC4=C(C3)C=C(C=C4)F.Cl

> <PUBCHEM_OPENEYE_ISO_SMILES>
C1CN(CC2=CC=CC=C21)CCC3CC4=C(C3)C=C(C=C4)F.Cl

> <PUBCHEM_CACTVS_TPSA>
3.2

> <PUBCHEM_MONOISOTOPIC_WEIGHT>
331.1503056

> <PUBCHEM_TOTAL_CHARGE>
0

> <PUBCHEM_HEAVY_ATOM_COUNT>
23

> <PUBCHEM_ATOM_DEF_STEREO_COUNT>
0

> <PUBCHEM_ATOM_UDEF_STEREO_COUNT>
1

> <PUBCHEM_BOND_DEF_STEREO_COUNT>
0

> <PUBCHEM_BOND_UDEF_STEREO_COUNT>
0

> <PUBCHEM_ISOTOPIC_ATOM_COUNT>
0

> <PUBCHEM_COMPONENT_COUNT>
2

> <PUBCHEM_CACTVS_TAUTO_COUNT>
-1

> <PUBCHEM_COORDINATE_TYPE>
1
5
255

> <PUBCHEM_BONDANNOTATIONS>
10  17  8
14  15  8
14  20  8
15  21  8
16  18  8
17  19  8
18  19  8
20  22  8
21  23  8
22  23  8
4  5  3
9  10  8
9  16  8

$$$$
