44409721
  -OEChem-09292322272D

 65 67  0     0  0  0  0  0  0999 V2000
    3.3660   -6.4330    0.0000 F   0  0  0  0  0  0  0  0  0  0  0  0
    2.0000   -6.0670    0.0000 F   0  0  0  0  0  0  0  0  0  0  0  0
    2.3660   -4.7010    0.0000 F   0  0  0  0  0  0  0  0  0  0  0  0
    8.0622    3.4330    0.0000 O   0  0  0  0  0  0  0  0  0  0  0  0
    8.0622    5.4330    0.0000 O   0  0  0  0  0  0  0  0  0  0  0  0
    4.5981   -0.5670    0.0000 N   0  0  0  0  0  0  0  0  0  0  0  0
    4.5981   -2.5670    0.0000 N   0  0  0  0  0  0  0  0  0  0  0  0
    5.4641   -4.0670    0.0000 N   0  0  0  0  0  0  0  0  0  0  0  0
    6.3301    3.4330    0.0000 N   0  0  0  0  0  0  0  0  0  0  0  0
    4.5981   -5.5670    0.0000 N   0  0  0  0  0  0  0  0  0  0  0  0
    5.4641   -1.0670    0.0000 C   0  0  0  0  0  0  0  0  0  0  0  0
    3.7320   -1.0670    0.0000 C   0  0  0  0  0  0  0  0  0  0  0  0
    5.4641   -2.0670    0.0000 C   0  0  0  0  0  0  0  0  0  0  0  0
    3.7320   -2.0670    0.0000 C   0  0  0  0  0  0  0  0  0  0  0  0
    4.5981    0.4330    0.0000 C   0  0  0  0  0  0  0  0  0  0  0  0
    5.4641    0.9330    0.0000 C   0  0  0  0  0  0  0  0  0  0  0  0
    4.5981   -3.5670    0.0000 C   0  0  0  0  0  0  0  0  0  0  0  0
    5.4641    1.9330    0.0000 C   0  0  0  0  0  0  0  0  0  0  0  0
    6.3301   -5.5670    0.0000 C   0  0  0  0  0  0  0  0  0  0  0  0
    6.3301    2.4330    0.0000 C   0  0  0  0  0  0  0  0  0  0  0  0
    5.4641   -5.0670    0.0000 C   0  0  0  0  0  0  0  0  0  0  0  0
    3.7320   -4.0670    0.0000 C   0  0  0  0  0  0  0  0  0  0  0  0
    3.7320   -5.0670    0.0000 C   0  0  0  0  0  0  0  0  0  0  0  0
    7.1962   -6.0670    0.0000 C   0  0  0  0  0  0  0  0  0  0  0  0
    5.8301   -6.4330    0.0000 C   0  0  0  0  0  0  0  0  0  0  0  0
    6.8301   -4.7010    0.0000 C   0  0  0  0  0  0  0  0  0  0  0  0
    2.8660   -5.5670    0.0000 C   0  0  0  0  0  0  0  0  0  0  0  0
    7.1962    3.9330    0.0000 C   0  0  0  0  0  0  0  0  0  0  0  0
    5.4641    3.9330    0.0000 C   0  0  0  0  0  0  0  0  0  0  0  0
    7.1962    4.9330    0.0000 C   0  0  0  0  0  0  0  0  0  0  0  0
    5.4641    4.9330    0.0000 C   0  0  0  0  0  0  0  0  0  0  0  0
    6.3301    5.4330    0.0000 C   0  0  0  0  0  0  0  0  0  0  0  0
    8.0622    6.4330    0.0000 C   0  0  0  0  0  0  0  0  0  0  0  0
    6.0747   -1.1746    0.0000 H   0  0  0  0  0  0  0  0  0  0  0  0
    5.6762   -0.4844    0.0000 H   0  0  0  0  0  0  0  0  0  0  0  0
    3.5200   -0.4844    0.0000 H   0  0  0  0  0  0  0  0  0  0  0  0
    3.1215   -1.1746    0.0000 H   0  0  0  0  0  0  0  0  0  0  0  0
    5.6762   -2.6496    0.0000 H   0  0  0  0  0  0  0  0  0  0  0  0
    6.0747   -1.9593    0.0000 H   0  0  0  0  0  0  0  0  0  0  0  0
    3.1215   -1.9593    0.0000 H   0  0  0  0  0  0  0  0  0  0  0  0
    3.5200   -2.6496    0.0000 H   0  0  0  0  0  0  0  0  0  0  0  0
    4.3860    1.0156    0.0000 H   0  0  0  0  0  0  0  0  0  0  0  0
    3.9875    0.3254    0.0000 H   0  0  0  0  0  0  0  0  0  0  0  0
    5.6762    0.3504    0.0000 H   0  0  0  0  0  0  0  0  0  0  0  0
    6.0747    1.0407    0.0000 H   0  0  0  0  0  0  0  0  0  0  0  0
    5.2520    2.5156    0.0000 H   0  0  0  0  0  0  0  0  0  0  0  0
    4.8535    1.8254    0.0000 H   0  0  0  0  0  0  0  0  0  0  0  0
    6.5422    1.8504    0.0000 H   0  0  0  0  0  0  0  0  0  0  0  0
    6.9407    2.5407    0.0000 H   0  0  0  0  0  0  0  0  0  0  0  0
    3.1951   -3.7570    0.0000 H   0  0  0  0  0  0  0  0  0  0  0  0
    6.8862   -6.6039    0.0000 H   0  0  0  0  0  0  0  0  0  0  0  0
    7.7331   -6.3770    0.0000 H   0  0  0  0  0  0  0  0  0  0  0  0
    7.5062   -5.5300    0.0000 H   0  0  0  0  0  0  0  0  0  0  0  0
    5.2932   -6.1230    0.0000 H   0  0  0  0  0  0  0  0  0  0  0  0
    5.5201   -6.9700    0.0000 H   0  0  0  0  0  0  0  0  0  0  0  0
    6.3671   -6.7430    0.0000 H   0  0  0  0  0  0  0  0  0  0  0  0
    7.3671   -5.0110    0.0000 H   0  0  0  0  0  0  0  0  0  0  0  0
    7.1401   -4.1640    0.0000 H   0  0  0  0  0  0  0  0  0  0  0  0
    6.2932   -4.3910    0.0000 H   0  0  0  0  0  0  0  0  0  0  0  0
    4.9272    3.6230    0.0000 H   0  0  0  0  0  0  0  0  0  0  0  0
    4.9272    5.2430    0.0000 H   0  0  0  0  0  0  0  0  0  0  0  0
    6.3301    6.0530    0.0000 H   0  0  0  0  0  0  0  0  0  0  0  0
    8.6822    6.4330    0.0000 H   0  0  0  0  0  0  0  0  0  0  0  0
    8.0622    7.0530    0.0000 H   0  0  0  0  0  0  0  0  0  0  0  0
    7.4422    6.4330    0.0000 H   0  0  0  0  0  0  0  0  0  0  0  0
  1 27  1  0  0  0  0
  2 27  1  0  0  0  0
  3 27  1  0  0  0  0
  4 28  2  0  0  0  0
  5 30  1  0  0  0  0
  5 33  1  0  0  0  0
  6 11  1  0  0  0  0
  6 12  1  0  0  0  0
  6 15  1  0  0  0  0
  7 13  1  0  0  0  0
  7 14  1  0  0  0  0
  7 17  1  0  0  0  0
  8 17  2  0  0  0  0
  8 21  1  0  0  0  0
  9 20  1  0  0  0  0
  9 28  1  0  0  0  0
  9 29  1  0  0  0  0
 10 21  2  0  0  0  0
 10 23  1  0  0  0  0
 11 13  1  0  0  0  0
 11 34  1  0  0  0  0
 11 35  1  0  0  0  0
 12 14  1  0  0  0  0
 12 36  1  0  0  0  0
 12 37  1  0  0  0  0
 13 38  1  0  0  0  0
 13 39  1  0  0  0  0
 14 40  1  0  0  0  0
 14 41  1  0  0  0  0
 15 16  1  0  0  0  0
 15 42  1  0  0  0  0
 15 43  1  0  0  0  0
 16 18  1  0  0  0  0
 16 44  1  0  0  0  0
 16 45  1  0  0  0  0
 17 22  1  0  0  0  0
 18 20  1  0  0  0  0
 18 46  1  0  0  0  0
 18 47  1  0  0  0  0
 19 21  1  0  0  0  0
 19 24  1  0  0  0  0
 19 25  1  0  0  0  0
 19 26  1  0  0  0  0
 20 48  1  0  0  0  0
 20 49  1  0  0  0  0
 22 23  2  0  0  0  0
 22 50  1  0  0  0  0
 23 27  1  0  0  0  0
 24 51  1  0  0  0  0
 24 52  1  0  0  0  0
 24 53  1  0  0  0  0
 25 54  1  0  0  0  0
 25 55  1  0  0  0  0
 25 56  1  0  0  0  0
 26 57  1  0  0  0  0
 26 58  1  0  0  0  0
 26 59  1  0  0  0  0
 28 30  1  0  0  0  0
 29 31  2  0  0  0  0
 29 60  1  0  0  0  0
 30 32  2  0  0  0  0
 31 32  1  0  0  0  0
 31 61  1  0  0  0  0
 32 62  1  0  0  0  0
 33 63  1  0  0  0  0
 33 64  1  0  0  0  0
 33 65  1  0  0  0  0
M  END
> <PUBCHEM_COMPOUND_CID>
44409721

> <PUBCHEM_COMPOUND_CANONICALIZED>
1

> <PUBCHEM_CACTVS_COMPLEXITY>
727

> <PUBCHEM_CACTVS_HBOND_ACCEPTOR>
9

> <PUBCHEM_CACTVS_HBOND_DONOR>
0

> <PUBCHEM_CACTVS_ROTATABLE_BOND>
8

> <PUBCHEM_CACTVS_SUBSKEYS>
AAADcfB7sYAAAAAAAAAAAAAAAAAAAAAAAAAsWIAAAAAAAAABgAAAHwAAAAAADgzBlxYzsJcIFACoASd2dAKAiCkhIqAJGCB4ZFiKaABAycQVBAhIBgLQwaAAAAAAAAAAAAAAAAAAAAAAAAAAAAAAAAAAAA==

> <PUBCHEM_IUPAC_OPENEYE_NAME>
1-[4-[4-[2-tert-butyl-6-(trifluoromethyl)pyrimidin-4-yl]piperazin-1-yl]butyl]-3-methoxy-pyridin-2-one

> <PUBCHEM_IUPAC_CAS_NAME>
1-[4-[4-[2-tert-butyl-6-(trifluoromethyl)-4-pyrimidinyl]-1-piperazinyl]butyl]-3-methoxy-2-pyridinone

> <PUBCHEM_IUPAC_NAME_MARKUP>
1-[4-[4-[2-<I>tert</I>-butyl-6-(trifluoromethyl)pyrimidin-4-yl]piperazin-1-yl]butyl]-3-methoxypyridin-2-one

> <PUBCHEM_IUPAC_NAME>
1-[4-[4-[2-tert-butyl-6-(trifluoromethyl)pyrimidin-4-yl]piperazin-1-yl]butyl]-3-methoxypyridin-2-one

> <PUBCHEM_IUPAC_SYSTEMATIC_NAME>
1-[4-[4-[2-tert-butyl-6-(trifluoromethyl)pyrimidin-4-yl]piperazin-1-yl]butyl]-3-methoxy-pyridin-2-one

> <PUBCHEM_IUPAC_TRADITIONAL_NAME>
1-[4-[4-[2-tert-butyl-6-(trifluoromethyl)pyrimidin-4-yl]piperazino]butyl]-3-methoxy-2-pyridone

> <PUBCHEM_IUPAC_INCHI>
InChI=1S/C23H32F3N5O2/c1-22(2,3)21-27-18(23(24,25)26)16-19(28-21)30-14-12-29(13-15-30)9-5-6-10-31-11-7-8-17(33-4)20(31)32/h7-8,11,16H,5-6,9-10,12-15H2,1-4H3

> <PUBCHEM_IUPAC_INCHIKEY>
LMYNSVJAWVGIBW-UHFFFAOYSA-N

> <PUBCHEM_XLOGP3_AA>
4.2

> <PUBCHEM_EXACT_MASS>
467.25080977

> <PUBCHEM_MOLECULAR_FORMULA>
C23H32F3N5O2

> <PUBCHEM_MOLECULAR_WEIGHT>
467.5

> <PUBCHEM_OPENEYE_CAN_SMILES>
CC(C)(C)C1=NC(=CC(=N1)N2CCN(CC2)CCCCN3C=CC=C(C3=O)OC)C(F)(F)F

> <PUBCHEM_OPENEYE_ISO_SMILES>
CC(C)(C)C1=NC(=CC(=N1)N2CCN(CC2)CCCCN3C=CC=C(C3=O)OC)C(F)(F)F

> <PUBCHEM_CACTVS_TPSA>
61.8

> <PUBCHEM_MONOISOTOPIC_WEIGHT>
467.25080977

> <PUBCHEM_TOTAL_CHARGE>
0

> <PUBCHEM_HEAVY_ATOM_COUNT>
33

> <PUBCHEM_ATOM_DEF_STEREO_COUNT>
0

> <PUBCHEM_ATOM_UDEF_STEREO_COUNT>
0

> <PUBCHEM_BOND_DEF_STEREO_COUNT>
0

> <PUBCHEM_BOND_UDEF_STEREO_COUNT>
0

> <PUBCHEM_ISOTOPIC_ATOM_COUNT>
0

> <PUBCHEM_COMPONENT_COUNT>
1

> <PUBCHEM_CACTVS_TAUTO_COUNT>
-1

> <PUBCHEM_COORDINATE_TYPE>
1
5
255

> <PUBCHEM_BONDANNOTATIONS>
10  21  8
10  23  8
17  22  8
22  23  8
28  30  8
29  31  8
30  32  8
31  32  8
8  17  8
8  21  8
9  28  8
9  29  8

$$$$
