53327181
  -OEChem-09292322352D

 34 37  0     1  0  0  0  0  0999 V2000
    2.9180    0.0647    0.0000 N   0  0  3  0  0  0  0  0  0  0  0  0
    2.9021    2.1340    0.0000 N   0  0  3  0  0  0  0  0  0  0  0  0
    4.7881   -2.5839    0.0000 N   0  0  0  0  0  0  0  0  0  0  0  0
    3.7841    0.5647    0.0000 C   0  0  3  0  0  0  0  0  0  0  0  0
    4.6501    0.0647    0.0000 C   0  0  0  0  0  0  0  0  0  0  0  0
    3.8001    1.6062    0.0000 C   0  0  0  0  0  0  0  0  0  0  0  0
    2.0080    0.5716    0.0000 C   0  0  0  0  0  0  0  0  0  0  0  0
    2.9180   -0.9353    0.0000 C   0  0  0  0  0  0  0  0  0  0  0  0
    4.6501   -0.9353    0.0000 C   0  0  0  0  0  0  0  0  0  0  0  0
    2.0000    1.6132    0.0000 C   0  0  0  0  0  0  0  0  0  0  0  0
    3.7841   -1.4352    0.0000 C   0  0  0  0  0  0  0  0  0  0  0  0
    3.8001   -2.4768    0.0000 C   0  0  0  0  0  0  0  0  0  0  0  0
    5.2680   -1.7136    0.0000 C   0  0  0  0  0  0  0  0  0  0  0  0
    2.0080   -1.4421    0.0000 C   0  0  0  0  0  0  0  0  0  0  0  0
    2.9059    3.1340    0.0000 C   0  0  0  0  0  0  0  0  0  0  0  0
    2.9021   -3.0045    0.0000 C   0  0  0  0  0  0  0  0  0  0  0  0
    2.0000   -2.4837    0.0000 C   0  0  0  0  0  0  0  0  0  0  0  0
    4.3234    0.8706    0.0000 H   0  0  0  0  0  0  0  0  0  0  0  0
    5.2607   -0.0429    0.0000 H   0  0  0  0  0  0  0  0  0  0  0  0
    4.8621    0.6474    0.0000 H   0  0  0  0  0  0  0  0  0  0  0  0
    4.4093    1.4908    0.0000 H   0  0  0  0  0  0  0  0  0  0  0  0
    4.0182    2.1867    0.0000 H   0  0  0  0  0  0  0  0  0  0  0  0
    1.3964    0.6730    0.0000 H   0  0  0  0  0  0  0  0  0  0  0  0
    1.8035   -0.0137    0.0000 H   0  0  0  0  0  0  0  0  0  0  0  0
    1.7864    2.1952    0.0000 H   0  0  0  0  0  0  0  0  0  0  0  0
    1.3900    1.5024    0.0000 H   0  0  0  0  0  0  0  0  0  0  0  0
    5.8858   -1.6619    0.0000 H   0  0  0  0  0  0  0  0  0  0  0  0
    1.4747   -1.1259    0.0000 H   0  0  0  0  0  0  0  0  0  0  0  0
    3.5259    3.1316    0.0000 H   0  0  0  0  0  0  0  0  0  0  0  0
    2.9083    3.7540    0.0000 H   0  0  0  0  0  0  0  0  0  0  0  0
    2.2859    3.1364    0.0000 H   0  0  0  0  0  0  0  0  0  0  0  0
    5.0741   -3.1340    0.0000 H   0  0  0  0  0  0  0  0  0  0  0  0
    2.9045   -3.6245    0.0000 H   0  0  0  0  0  0  0  0  0  0  0  0
    1.4619   -2.7916    0.0000 H   0  0  0  0  0  0  0  0  0  0  0  0
  1  4  1  0  0  0  0
  1  7  1  0  0  0  0
  1  8  1  0  0  0  0
  2  6  1  0  0  0  0
  2 10  1  0  0  0  0
  2 15  1  0  0  0  0
  3 12  1  0  0  0  0
  3 13  1  0  0  0  0
  3 32  1  0  0  0  0
  4  5  1  0  0  0  0
  4  6  1  0  0  0  0
  4 18  1  0  0  0  0
  5  9  1  0  0  0  0
  5 19  1  0  0  0  0
  5 20  1  0  0  0  0
  6 21  1  0  0  0  0
  6 22  1  0  0  0  0
  7 10  1  0  0  0  0
  7 23  1  0  0  0  0
  7 24  1  0  0  0  0
  8 11  1  0  0  0  0
  8 14  2  0  0  0  0
  9 11  1  0  0  0  0
  9 13  2  0  0  0  0
 10 25  1  0  0  0  0
 10 26  1  0  0  0  0
 11 12  2  0  0  0  0
 12 16  1  0  0  0  0
 13 27  1  0  0  0  0
 14 17  1  0  0  0  0
 14 28  1  0  0  0  0
 15 29  1  0  0  0  0
 15 30  1  0  0  0  0
 15 31  1  0  0  0  0
 16 17  2  0  0  0  0
 16 33  1  0  0  0  0
 17 34  1  0  0  0  0
M  END
> <PUBCHEM_COMPOUND_CID>
53327181

> <PUBCHEM_COMPOUND_CANONICALIZED>
1

> <PUBCHEM_CACTVS_COMPLEXITY>
306

> <PUBCHEM_CACTVS_HBOND_ACCEPTOR>
2

> <PUBCHEM_CACTVS_HBOND_DONOR>
1

> <PUBCHEM_CACTVS_ROTATABLE_BOND>
0

> <PUBCHEM_CACTVS_SUBSKEYS>
AAADceBzAAAAAAAAAAAAAAAAAAAAAWAAAAA8WIAAAAAAAFix8AAAHAAQAAAADCjBHgQ+wPPJkACgAzRnRACCgCAxAiAI2aA4ZJgIYOLA0dGUJAhgkADIyAcQgMAOgAAAAAQCAAAAAAAACAQAAAAAAAAAAA==

> <PUBCHEM_IUPAC_OPENEYE_NAME>
5-methyl-2,5,11-triazatetracyclo[7.6.1.02,7.012,16]hexadeca-1(15),9,12(16),13-tetraene

> <PUBCHEM_IUPAC_CAS_NAME>
5-methyl-2,5,11-triazatetracyclo[7.6.1.02,7.012,16]hexadeca-1(15),9,12(16),13-tetraene

> <PUBCHEM_IUPAC_NAME_MARKUP>
5-methyl-2,5,11-triazatetracyclo[7.6.1.0<SUP>2,7</SUP>.0<SUP>12,16</SUP>]hexadeca-1(15),9,12(16),13-tetraene

> <PUBCHEM_IUPAC_NAME>
5-methyl-2,5,11-triazatetracyclo[7.6.1.02,7.012,16]hexadeca-1(15),9,12(16),13-tetraene

> <PUBCHEM_IUPAC_SYSTEMATIC_NAME>
5-methyl-2,5,11-triazatetracyclo[7.6.1.02,7.012,16]hexadeca-1(15),9,12(16),13-tetraene

> <PUBCHEM_IUPAC_TRADITIONAL_NAME>
5-methyl-2,5,11-triazatetracyclo[7.6.1.02,7.012,16]hexadeca-1(15),9,12(16),13-tetraene

> <PUBCHEM_IUPAC_INCHI>
InChI=1S/C14H17N3/c1-16-5-6-17-11(9-16)7-10-8-15-12-3-2-4-13(17)14(10)12/h2-4,8,11,15H,5-7,9H2,1H3

> <PUBCHEM_IUPAC_INCHIKEY>
SLMGXVGSOPZIFZ-UHFFFAOYSA-N

> <PUBCHEM_XLOGP3_AA>
2.1

> <PUBCHEM_EXACT_MASS>
227.142247555

> <PUBCHEM_MOLECULAR_FORMULA>
C14H17N3

> <PUBCHEM_MOLECULAR_WEIGHT>
227.30

> <PUBCHEM_OPENEYE_CAN_SMILES>
CN1CCN2C(C1)CC3=CNC4=C3C2=CC=C4

> <PUBCHEM_OPENEYE_ISO_SMILES>
CN1CCN2C(C1)CC3=CNC4=C3C2=CC=C4

> <PUBCHEM_CACTVS_TPSA>
22.3

> <PUBCHEM_MONOISOTOPIC_WEIGHT>
227.142247555

> <PUBCHEM_TOTAL_CHARGE>
0

> <PUBCHEM_HEAVY_ATOM_COUNT>
17

> <PUBCHEM_ATOM_DEF_STEREO_COUNT>
0

> <PUBCHEM_ATOM_UDEF_STEREO_COUNT>
1

> <PUBCHEM_BOND_DEF_STEREO_COUNT>
0

> <PUBCHEM_BOND_UDEF_STEREO_COUNT>
0

> <PUBCHEM_ISOTOPIC_ATOM_COUNT>
0

> <PUBCHEM_COMPONENT_COUNT>
1

> <PUBCHEM_CACTVS_TAUTO_COUNT>
-1

> <PUBCHEM_COORDINATE_TYPE>
1
5
255

> <PUBCHEM_BONDANNOTATIONS>
11  12  8
12  16  8
14  17  8
16  17  8
3  12  8
3  13  8
4  5  3
8  11  8
8  14  8
9  11  8
9  13  8

$$$$
