71458651
  -OEChem-09292322332D

 60 63  0     1  0  0  0  0  0999 V2000
    8.7403    1.3610    0.0000 S   0  0  0  0  0  0  0  0  0  0  0  0
    4.9836   -3.2731    0.0000 O   0  0  0  0  0  0  0  0  0  0  0  0
    7.7403    1.3610    0.0000 O   0  0  0  0  0  0  0  0  0  0  0  0
    9.7403    1.3610    0.0000 O   0  0  0  0  0  0  0  0  0  0  0  0
    6.7916   -1.3414    0.0000 N   0  0  3  0  0  0  0  0  0  0  0  0
    8.7403    0.3610    0.0000 N   0  0  0  0  0  0  0  0  0  0  0  0
   10.5002    2.3263    0.0000 N   0  0  0  0  0  0  0  0  0  0  0  0
    7.8742   -0.1390    0.0000 C   0  0  3  0  0  0  0  0  0  0  0  0
    6.9607    0.2677    0.0000 C   0  0  0  0  0  0  0  0  0  0  0  0
    7.7697   -1.1335    0.0000 C   0  0  0  0  0  0  0  0  0  0  0  0
    6.2916   -0.4754    0.0000 C   0  0  0  0  0  0  0  0  0  0  0  0
    6.3848   -2.2550    0.0000 C   0  0  0  0  0  0  0  0  0  0  0  0
    5.3903   -2.3595    0.0000 C   0  0  0  0  0  0  0  0  0  0  0  0
    8.7403    2.3610    0.0000 C   0  0  0  0  0  0  0  0  0  0  0  0
    9.6063    2.8610    0.0000 C   0  0  0  0  0  0  0  0  0  0  0  0
    7.8742    2.8610    0.0000 C   0  0  0  0  0  0  0  0  0  0  0  0
    3.9890   -3.3776    0.0000 C   0  0  0  0  0  0  0  0  0  0  0  0
    3.4013   -2.5686    0.0000 C   0  0  0  0  0  0  0  0  0  0  0  0
    9.6063    3.8610    0.0000 C   0  0  0  0  0  0  0  0  0  0  0  0
    3.8080   -1.6550    0.0000 C   0  0  0  0  0  0  0  0  0  0  0  0
    7.8742    3.8610    0.0000 C   0  0  0  0  0  0  0  0  0  0  0  0
    8.7403    4.3610    0.0000 C   0  0  0  0  0  0  0  0  0  0  0  0
    3.5823   -4.2911    0.0000 C   0  0  0  0  0  0  0  0  0  0  0  0
    2.4067   -2.6731    0.0000 C   0  0  0  0  0  0  0  0  0  0  0  0
   10.5002    4.3957    0.0000 C   0  0  0  0  0  0  0  0  0  0  0  0
    3.2202   -0.8460    0.0000 C   0  0  0  0  0  0  0  0  0  0  0  0
    4.8025   -1.5505    0.0000 C   0  0  0  0  0  0  0  0  0  0  0  0
    2.5878   -4.3957    0.0000 C   0  0  0  0  0  0  0  0  0  0  0  0
    2.0000   -3.5866    0.0000 C   0  0  0  0  0  0  0  0  0  0  0  0
   11.4063    2.8402    0.0000 C   0  0  0  0  0  0  0  0  0  0  0  0
   11.4063    3.8818    0.0000 C   0  0  0  0  0  0  0  0  0  0  0  0
    8.3942   -0.4767    0.0000 H   0  0  0  0  0  0  0  0  0  0  0  0
    7.2707    0.8047    0.0000 H   0  0  0  0  0  0  0  0  0  0  0  0
    6.4591    0.6322    0.0000 H   0  0  0  0  0  0  0  0  0  0  0  0
    7.8345   -1.7501    0.0000 H   0  0  0  0  0  0  0  0  0  0  0  0
    8.3897   -1.1335    0.0000 H   0  0  0  0  0  0  0  0  0  0  0  0
    5.8767   -0.0147    0.0000 H   0  0  0  0  0  0  0  0  0  0  0  0
    5.7900   -0.8398    0.0000 H   0  0  0  0  0  0  0  0  0  0  0  0
    6.3416   -2.8735    0.0000 H   0  0  0  0  0  0  0  0  0  0  0  0
    6.9864   -2.4050    0.0000 H   0  0  0  0  0  0  0  0  0  0  0  0
    9.2772    0.0510    0.0000 H   0  0  0  0  0  0  0  0  0  0  0  0
    5.4336   -1.7410    0.0000 H   0  0  0  0  0  0  0  0  0  0  0  0
    4.7887   -2.2095    0.0000 H   0  0  0  0  0  0  0  0  0  0  0  0
    7.3373    2.5510    0.0000 H   0  0  0  0  0  0  0  0  0  0  0  0
    3.1914   -1.7198    0.0000 H   0  0  0  0  0  0  0  0  0  0  0  0
    7.3373    4.1710    0.0000 H   0  0  0  0  0  0  0  0  0  0  0  0
    8.7403    4.9810    0.0000 H   0  0  0  0  0  0  0  0  0  0  0  0
    3.9467   -4.7927    0.0000 H   0  0  0  0  0  0  0  0  0  0  0  0
    2.0423   -2.1715    0.0000 H   0  0  0  0  0  0  0  0  0  0  0  0
    3.7218   -0.4816    0.0000 H   0  0  0  0  0  0  0  0  0  0  0  0
    2.8558   -0.3444    0.0000 H   0  0  0  0  0  0  0  0  0  0  0  0
    2.7186   -1.2104    0.0000 H   0  0  0  0  0  0  0  0  0  0  0  0
    4.8673   -2.1671    0.0000 H   0  0  0  0  0  0  0  0  0  0  0  0
    5.4191   -1.4857    0.0000 H   0  0  0  0  0  0  0  0  0  0  0  0
    4.7377   -0.9339    0.0000 H   0  0  0  0  0  0  0  0  0  0  0  0
   10.4931    5.0156    0.0000 H   0  0  0  0  0  0  0  0  0  0  0  0
    2.3356   -4.9621    0.0000 H   0  0  0  0  0  0  0  0  0  0  0  0
    1.3834   -3.6514    0.0000 H   0  0  0  0  0  0  0  0  0  0  0  0
   11.9420    2.5281    0.0000 H   0  0  0  0  0  0  0  0  0  0  0  0
   11.9420    4.1939    0.0000 H   0  0  0  0  0  0  0  0  0  0  0  0
  1  3  2  0  0  0  0
  1  4  2  0  0  0  0
  1  6  1  0  0  0  0
  1 14  1  0  0  0  0
  2 13  1  0  0  0  0
  2 17  1  0  0  0  0
  5 10  1  0  0  0  0
  5 11  1  0  0  0  0
  5 12  1  0  0  0  0
  6  8  1  0  0  0  0
  6 41  1  0  0  0  0
  7 15  1  0  0  0  0
  7 30  2  0  0  0  0
  8  9  1  0  0  0  0
  8 10  1  0  0  0  0
  8 32  1  0  0  0  0
  9 11  1  0  0  0  0
  9 33  1  0  0  0  0
  9 34  1  0  0  0  0
 10 35  1  0  0  0  0
 10 36  1  0  0  0  0
 11 37  1  0  0  0  0
 11 38  1  0  0  0  0
 12 13  1  0  0  0  0
 12 39  1  0  0  0  0
 12 40  1  0  0  0  0
 13 42  1  0  0  0  0
 13 43  1  0  0  0  0
 14 15  1  0  0  0  0
 14 16  2  0  0  0  0
 15 19  2  0  0  0  0
 16 21  1  0  0  0  0
 16 44  1  0  0  0  0
 17 18  1  0  0  0  0
 17 23  2  0  0  0  0
 18 20  1  0  0  0  0
 18 24  2  0  0  0  0
 19 22  1  0  0  0  0
 19 25  1  0  0  0  0
 20 26  1  0  0  0  0
 20 27  1  0  0  0  0
 20 45  1  0  0  0  0
 21 22  2  0  0  0  0
 21 46  1  0  0  0  0
 22 47  1  0  0  0  0
 23 28  1  0  0  0  0
 23 48  1  0  0  0  0
 24 29  1  0  0  0  0
 24 49  1  0  0  0  0
 25 31  2  0  0  0  0
 25 56  1  0  0  0  0
 26 50  1  0  0  0  0
 26 51  1  0  0  0  0
 26 52  1  0  0  0  0
 27 53  1  0  0  0  0
 27 54  1  0  0  0  0
 27 55  1  0  0  0  0
 28 29  2  0  0  0  0
 28 57  1  0  0  0  0
 29 58  1  0  0  0  0
 30 31  1  0  0  0  0
 30 59  1  0  0  0  0
 31 60  1  0  0  0  0
M  END
> <PUBCHEM_COMPOUND_CID>
71458651

> <PUBCHEM_COMPOUND_CANONICALIZED>
1

> <PUBCHEM_CACTVS_COMPLEXITY>
666

> <PUBCHEM_CACTVS_HBOND_ACCEPTOR>
6

> <PUBCHEM_CACTVS_HBOND_DONOR>
1

> <PUBCHEM_CACTVS_ROTATABLE_BOND>
8

> <PUBCHEM_CACTVS_SUBSKEYS>
AAADceB7MABAAAAAAAAAAAAAAAAAAWAAAAA8YIAAAAAAAACx9AAAHgQQQAAADSzh3gY+x/NIFAKgAzRnRHDCiDAxIiAI2Lw+bJgOZuLE8ZuXOCjk0BHY6AeQwOAOgAAAgAAKAQAAAAEAABQCAAAAAAAAAA==

> <PUBCHEM_IUPAC_OPENEYE_NAME>
N-[1-[2-(2-isopropylphenoxy)ethyl]pyrrolidin-3-yl]quinoline-8-sulfonamide

> <PUBCHEM_IUPAC_CAS_NAME>
N-[1-[2-(2-propan-2-ylphenoxy)ethyl]-3-pyrrolidinyl]-8-quinolinesulfonamide

> <PUBCHEM_IUPAC_NAME_MARKUP>
<I>N</I>-[1-[2-(2-propan-2-ylphenoxy)ethyl]pyrrolidin-3-yl]quinoline-8-sulfonamide

> <PUBCHEM_IUPAC_NAME>
N-[1-[2-(2-propan-2-ylphenoxy)ethyl]pyrrolidin-3-yl]quinoline-8-sulfonamide

> <PUBCHEM_IUPAC_SYSTEMATIC_NAME>
N-[1-[2-(2-propan-2-ylphenoxy)ethyl]pyrrolidin-3-yl]quinoline-8-sulfonamide

> <PUBCHEM_IUPAC_TRADITIONAL_NAME>
N-[1-[2-(2-isopropylphenoxy)ethyl]pyrrolidin-3-yl]quinoline-8-sulfonamide

> <PUBCHEM_IUPAC_INCHI>
InChI=1S/C24H29N3O3S/c1-18(2)21-9-3-4-10-22(21)30-16-15-27-14-12-20(17-27)26-31(28,29)23-11-5-7-19-8-6-13-25-24(19)23/h3-11,13,18,20,26H,12,14-17H2,1-2H3

> <PUBCHEM_IUPAC_INCHIKEY>
NWTFCLNCCNYNPB-UHFFFAOYSA-N

> <PUBCHEM_XLOGP3_AA>
4.2

> <PUBCHEM_EXACT_MASS>
439.19296297

> <PUBCHEM_MOLECULAR_FORMULA>
C24H29N3O3S

> <PUBCHEM_MOLECULAR_WEIGHT>
439.6

> <PUBCHEM_OPENEYE_CAN_SMILES>
CC(C)C1=CC=CC=C1OCCN2CCC(C2)NS(=O)(=O)C3=CC=CC4=C3N=CC=C4

> <PUBCHEM_OPENEYE_ISO_SMILES>
CC(C)C1=CC=CC=C1OCCN2CCC(C2)NS(=O)(=O)C3=CC=CC4=C3N=CC=C4

> <PUBCHEM_CACTVS_TPSA>
79.9

> <PUBCHEM_MONOISOTOPIC_WEIGHT>
439.19296297

> <PUBCHEM_TOTAL_CHARGE>
0

> <PUBCHEM_HEAVY_ATOM_COUNT>
31

> <PUBCHEM_ATOM_DEF_STEREO_COUNT>
0

> <PUBCHEM_ATOM_UDEF_STEREO_COUNT>
1

> <PUBCHEM_BOND_DEF_STEREO_COUNT>
0

> <PUBCHEM_BOND_UDEF_STEREO_COUNT>
0

> <PUBCHEM_ISOTOPIC_ATOM_COUNT>
0

> <PUBCHEM_COMPONENT_COUNT>
1

> <PUBCHEM_CACTVS_TAUTO_COUNT>
-1

> <PUBCHEM_COORDINATE_TYPE>
1
5
255

> <PUBCHEM_BONDANNOTATIONS>
14  15  8
14  16  8
15  19  8
16  21  8
17  18  8
17  23  8
18  24  8
19  22  8
19  25  8
21  22  8
23  28  8
24  29  8
25  31  8
28  29  8
30  31  8
8  6  3
7  15  8
7  30  8

$$$$
