44273715
  -OEChem-09292322202D

 51 52  0     0  0  0  0  0  0999 V2000
    2.8660   -6.0000    0.0000 Cl  0  0  0  0  0  0  0  0  0  0  0  0
    6.3301    4.0000    0.0000 O   0  0  0  0  0  0  0  0  0  0  0  0
    2.8660   -0.0000    0.0000 N   0  0  0  0  0  0  0  0  0  0  0  0
    2.8660   -2.0000    0.0000 N   0  0  0  0  0  0  0  0  0  0  0  0
    4.5981    4.0000    0.0000 N   0  0  0  0  0  0  0  0  0  0  0  0
    3.7320   -0.5000    0.0000 C   0  0  0  0  0  0  0  0  0  0  0  0
    2.0000   -0.5000    0.0000 C   0  0  0  0  0  0  0  0  0  0  0  0
    3.7320   -1.5000    0.0000 C   0  0  0  0  0  0  0  0  0  0  0  0
    2.0000   -1.5000    0.0000 C   0  0  0  0  0  0  0  0  0  0  0  0
    2.8660    1.0000    0.0000 C   0  0  0  0  0  0  0  0  0  0  0  0
    3.7320    1.5000    0.0000 C   0  0  0  0  0  0  0  0  0  0  0  0
    3.7320    2.5000    0.0000 C   0  0  0  0  0  0  0  0  0  0  0  0
    2.8660   -3.0000    0.0000 C   0  0  0  0  0  0  0  0  0  0  0  0
    4.5981    3.0000    0.0000 C   0  0  0  0  0  0  0  0  0  0  0  0
    2.0000   -3.5000    0.0000 C   0  0  0  0  0  0  0  0  0  0  0  0
    3.7320   -3.5000    0.0000 C   0  0  0  0  0  0  0  0  0  0  0  0
    2.0000   -4.5000    0.0000 C   0  0  0  0  0  0  0  0  0  0  0  0
    3.7320   -4.5000    0.0000 C   0  0  0  0  0  0  0  0  0  0  0  0
    5.4641    4.5000    0.0000 C   0  0  0  0  0  0  0  0  0  0  0  0
    5.4641    5.5000    0.0000 C   0  0  0  0  0  0  0  0  0  0  0  0
    2.8660   -5.0000    0.0000 C   0  0  0  0  0  0  0  0  0  0  0  0
    6.3301    6.0000    0.0000 C   0  0  0  0  0  0  0  0  0  0  0  0
    4.5981    6.0000    0.0000 C   0  0  0  0  0  0  0  0  0  0  0  0
    4.3426   -0.6077    0.0000 H   0  0  0  0  0  0  0  0  0  0  0  0
    3.9441    0.0826    0.0000 H   0  0  0  0  0  0  0  0  0  0  0  0
    1.7880    0.0826    0.0000 H   0  0  0  0  0  0  0  0  0  0  0  0
    1.3894   -0.6077    0.0000 H   0  0  0  0  0  0  0  0  0  0  0  0
    3.9441   -2.0826    0.0000 H   0  0  0  0  0  0  0  0  0  0  0  0
    4.3426   -1.3923    0.0000 H   0  0  0  0  0  0  0  0  0  0  0  0
    1.3894   -1.3923    0.0000 H   0  0  0  0  0  0  0  0  0  0  0  0
    1.7880   -2.0826    0.0000 H   0  0  0  0  0  0  0  0  0  0  0  0
    2.6540    1.5826    0.0000 H   0  0  0  0  0  0  0  0  0  0  0  0
    2.2554    0.8923    0.0000 H   0  0  0  0  0  0  0  0  0  0  0  0
    3.9441    0.9174    0.0000 H   0  0  0  0  0  0  0  0  0  0  0  0
    4.3426    1.6077    0.0000 H   0  0  0  0  0  0  0  0  0  0  0  0
    3.5200    3.0826    0.0000 H   0  0  0  0  0  0  0  0  0  0  0  0
    3.1215    2.3923    0.0000 H   0  0  0  0  0  0  0  0  0  0  0  0
    4.8101    2.4174    0.0000 H   0  0  0  0  0  0  0  0  0  0  0  0
    5.2087    3.1077    0.0000 H   0  0  0  0  0  0  0  0  0  0  0  0
    1.4631   -3.1900    0.0000 H   0  0  0  0  0  0  0  0  0  0  0  0
    4.2690   -3.1900    0.0000 H   0  0  0  0  0  0  0  0  0  0  0  0
    4.0611    4.3100    0.0000 H   0  0  0  0  0  0  0  0  0  0  0  0
    1.4631   -4.8100    0.0000 H   0  0  0  0  0  0  0  0  0  0  0  0
    4.2690   -4.8100    0.0000 H   0  0  0  0  0  0  0  0  0  0  0  0
    5.4641    6.1200    0.0000 H   0  0  0  0  0  0  0  0  0  0  0  0
    6.6401    5.4631    0.0000 H   0  0  0  0  0  0  0  0  0  0  0  0
    6.8671    6.3100    0.0000 H   0  0  0  0  0  0  0  0  0  0  0  0
    6.0201    6.5369    0.0000 H   0  0  0  0  0  0  0  0  0  0  0  0
    4.9081    6.5369    0.0000 H   0  0  0  0  0  0  0  0  0  0  0  0
    4.0611    6.3100    0.0000 H   0  0  0  0  0  0  0  0  0  0  0  0
    4.2881    5.4631    0.0000 H   0  0  0  0  0  0  0  0  0  0  0  0
  1 21  1  0  0  0  0
  2 19  2  0  0  0  0
  3  6  1  0  0  0  0
  3  7  1  0  0  0  0
  3 10  1  0  0  0  0
  4  8  1  0  0  0  0
  4  9  1  0  0  0  0
  4 13  1  0  0  0  0
  5 14  1  0  0  0  0
  5 19  1  0  0  0  0
  5 42  1  0  0  0  0
  6  8  1  0  0  0  0
  6 24  1  0  0  0  0
  6 25  1  0  0  0  0
  7  9  1  0  0  0  0
  7 26  1  0  0  0  0
  7 27  1  0  0  0  0
  8 28  1  0  0  0  0
  8 29  1  0  0  0  0
  9 30  1  0  0  0  0
  9 31  1  0  0  0  0
 10 11  1  0  0  0  0
 10 32  1  0  0  0  0
 10 33  1  0  0  0  0
 11 12  1  0  0  0  0
 11 34  1  0  0  0  0
 11 35  1  0  0  0  0
 12 14  1  0  0  0  0
 12 36  1  0  0  0  0
 12 37  1  0  0  0  0
 13 15  2  0  0  0  0
 13 16  1  0  0  0  0
 14 38  1  0  0  0  0
 14 39  1  0  0  0  0
 15 17  1  0  0  0  0
 15 40  1  0  0  0  0
 16 18  2  0  0  0  0
 16 41  1  0  0  0  0
 17 21  2  0  0  0  0
 17 43  1  0  0  0  0
 18 21  1  0  0  0  0
 18 44  1  0  0  0  0
 19 20  1  0  0  0  0
 20 22  1  0  0  0  0
 20 23  1  0  0  0  0
 20 45  1  0  0  0  0
 22 46  1  0  0  0  0
 22 47  1  0  0  0  0
 22 48  1  0  0  0  0
 23 49  1  0  0  0  0
 23 50  1  0  0  0  0
 23 51  1  0  0  0  0
M  END
> <PUBCHEM_COMPOUND_CID>
44273715

> <PUBCHEM_COMPOUND_CANONICALIZED>
1

> <PUBCHEM_CACTVS_COMPLEXITY>
348

> <PUBCHEM_CACTVS_HBOND_ACCEPTOR>
3

> <PUBCHEM_CACTVS_HBOND_DONOR>
1

> <PUBCHEM_CACTVS_ROTATABLE_BOND>
7

> <PUBCHEM_CACTVS_SUBSKEYS>
AAADceB7IAAEAAAAAAAAAAAAAAAAAAAAAAA8QAAAAAAAAAABAAAAHgIQAAAADQrBkCQywIPAAACIACVSUACCAAAhBwAIiIEIZogIYCLBk5GUIAhglgDIyAcQAAAAAABAAAAAAAAAAIAAAAAAAAAAAAAAAA==

> <PUBCHEM_IUPAC_OPENEYE_NAME>
N-[4-[4-(4-chlorophenyl)piperazin-1-yl]butyl]-2-methyl-propanamide

> <PUBCHEM_IUPAC_CAS_NAME>
N-[4-[4-(4-chlorophenyl)-1-piperazinyl]butyl]-2-methylpropanamide

> <PUBCHEM_IUPAC_NAME_MARKUP>
<I>N</I>-[4-[4-(4-chlorophenyl)piperazin-1-yl]butyl]-2-methylpropanamide

> <PUBCHEM_IUPAC_NAME>
N-[4-[4-(4-chlorophenyl)piperazin-1-yl]butyl]-2-methylpropanamide

> <PUBCHEM_IUPAC_SYSTEMATIC_NAME>
N-[4-[4-(4-chlorophenyl)piperazin-1-yl]butyl]-2-methyl-propanamide

> <PUBCHEM_IUPAC_TRADITIONAL_NAME>
N-[4-[4-(4-chlorophenyl)piperazino]butyl]-2-methyl-propionamide

> <PUBCHEM_IUPAC_INCHI>
InChI=1S/C18H28ClN3O/c1-15(2)18(23)20-9-3-4-10-21-11-13-22(14-12-21)17-7-5-16(19)6-8-17/h5-8,15H,3-4,9-14H2,1-2H3,(H,20,23)

> <PUBCHEM_IUPAC_INCHIKEY>
YIABLPRBQVUUAI-UHFFFAOYSA-N

> <PUBCHEM_XLOGP3_AA>
3.6

> <PUBCHEM_EXACT_MASS>
337.1920902

> <PUBCHEM_MOLECULAR_FORMULA>
C18H28ClN3O

> <PUBCHEM_MOLECULAR_WEIGHT>
337.9

> <PUBCHEM_OPENEYE_CAN_SMILES>
CC(C)C(=O)NCCCCN1CCN(CC1)C2=CC=C(C=C2)Cl

> <PUBCHEM_OPENEYE_ISO_SMILES>
CC(C)C(=O)NCCCCN1CCN(CC1)C2=CC=C(C=C2)Cl

> <PUBCHEM_CACTVS_TPSA>
35.6

> <PUBCHEM_MONOISOTOPIC_WEIGHT>
337.1920902

> <PUBCHEM_TOTAL_CHARGE>
0

> <PUBCHEM_HEAVY_ATOM_COUNT>
23

> <PUBCHEM_ATOM_DEF_STEREO_COUNT>
0

> <PUBCHEM_ATOM_UDEF_STEREO_COUNT>
0

> <PUBCHEM_BOND_DEF_STEREO_COUNT>
0

> <PUBCHEM_BOND_UDEF_STEREO_COUNT>
0

> <PUBCHEM_ISOTOPIC_ATOM_COUNT>
0

> <PUBCHEM_COMPONENT_COUNT>
1

> <PUBCHEM_CACTVS_TAUTO_COUNT>
-1

> <PUBCHEM_COORDINATE_TYPE>
1
5
255

> <PUBCHEM_BONDANNOTATIONS>
13  15  8
13  16  8
15  17  8
16  18  8
17  21  8
18  21  8

$$$$
