17895587
  -OEChem-09292322222D

 71 74  0     1  0  0  0  0  0999 V2000
    3.7320    2.2631    0.0000 S   0  0  0  0  0  0  0  0  0  0  0  0
    2.0000    3.2631    0.0000 F   0  0  0  0  0  0  0  0  0  0  0  0
    2.3660    1.8971    0.0000 F   0  0  0  0  0  0  0  0  0  0  0  0
    3.3660    3.6291    0.0000 F   0  0  0  0  0  0  0  0  0  0  0  0
    4.5981    1.7631    0.0000 O   0  0  0  0  0  0  0  0  0  0  0  0
   14.1961    3.2222    0.0000 O   0  0  0  0  0  0  0  0  0  0  0  0
    3.2320    1.3971    0.0000 O   0  0  0  0  0  0  0  0  0  0  0  0
    4.2320    3.1291    0.0000 O   0  0  0  0  0  0  0  0  0  0  0  0
   17.6371   -2.7911    0.0000 O   0  0  0  0  0  0  0  0  0  0  0  0
    8.9962    2.2423    0.0000 N   0  0  3  0  0  0  0  0  0  0  0  0
   13.3243    1.7256    0.0000 N   0  0  0  0  0  0  0  0  0  0  0  0
   19.3691   -2.7978    0.0000 N   0  0  0  0  0  0  0  0  0  0  0  0
    8.9962    3.2839    0.0000 C   0  0  0  0  0  0  0  0  0  0  0  0
    8.0901    1.7284    0.0000 C   0  0  0  0  0  0  0  0  0  0  0  0
    8.0901    3.7977    0.0000 C   0  0  0  0  0  0  0  0  0  0  0  0
    9.8602    1.7389    0.0000 C   0  0  0  0  0  0  0  0  0  0  0  0
    7.1962    2.2631    0.0000 C   0  0  0  0  0  0  0  0  0  0  0  0
    7.1962    3.2631    0.0000 C   0  0  0  0  0  0  0  0  0  0  0  0
   10.7282    2.2356    0.0000 C   0  0  0  0  0  0  0  0  0  0  0  0
   11.5923    1.7323    0.0000 C   0  0  0  0  0  0  0  0  0  0  0  0
    6.3301    1.7631    0.0000 C   0  0  0  0  0  0  0  0  0  0  0  0
    6.3301    3.7631    0.0000 C   0  0  0  0  0  0  0  0  0  0  0  0
    5.4641    2.2631    0.0000 C   0  0  0  0  0  0  0  0  0  0  0  0
   12.4602    2.2289    0.0000 C   0  0  0  0  0  0  0  0  0  0  0  0
    5.4641    3.2631    0.0000 C   0  0  0  0  0  0  0  0  0  0  0  0
   14.1923    2.2222    0.0000 C   0  0  0  0  0  0  0  0  0  0  0  0
   15.0564    1.7189    0.0000 C   0  0  0  0  0  0  0  0  0  0  0  0
    2.8660    2.7631    0.0000 C   0  0  0  0  0  0  0  0  0  0  0  0
   15.0525    0.7189    0.0000 C   0  0  0  0  0  0  0  0  0  0  0  0
   15.9243    2.2156    0.0000 C   0  0  0  0  0  0  0  0  0  0  0  0
   16.7845    0.7122    0.0000 C   0  0  0  0  0  0  0  0  0  0  0  0
   15.9166    0.2156    0.0000 C   0  0  0  0  0  0  0  0  0  0  0  0
   16.7884    1.7122    0.0000 C   0  0  0  0  0  0  0  0  0  0  0  0
   17.6486    0.2089    0.0000 C   0  0  0  0  0  0  0  0  0  0  0  0
   17.6448   -0.7911    0.0000 C   0  0  0  0  0  0  0  0  0  0  0  0
   18.5166    0.7056    0.0000 C   0  0  0  0  0  0  0  0  0  0  0  0
   18.5089   -1.2944    0.0000 C   0  0  0  0  0  0  0  0  0  0  0  0
   19.3807    0.2022    0.0000 C   0  0  0  0  0  0  0  0  0  0  0  0
   19.3768   -0.7978    0.0000 C   0  0  0  0  0  0  0  0  0  0  0  0
   18.5050   -2.2944    0.0000 C   0  0  0  0  0  0  0  0  0  0  0  0
   19.3653   -3.7977    0.0000 C   0  0  0  0  0  0  0  0  0  0  0  0
    9.6070    3.1778    0.0000 H   0  0  0  0  0  0  0  0  0  0  0  0
    9.2052    3.8676    0.0000 H   0  0  0  0  0  0  0  0  0  0  0  0
    7.6855    1.2586    0.0000 H   0  0  0  0  0  0  0  0  0  0  0  0
    8.4837    1.2494    0.0000 H   0  0  0  0  0  0  0  0  0  0  0  0
    8.4837    4.2768    0.0000 H   0  0  0  0  0  0  0  0  0  0  0  0
    7.6855    4.2675    0.0000 H   0  0  0  0  0  0  0  0  0  0  0  0
    9.4599    1.2655    0.0000 H   0  0  0  0  0  0  0  0  0  0  0  0
   10.2569    1.2624    0.0000 H   0  0  0  0  0  0  0  0  0  0  0  0
   11.1286    2.7090    0.0000 H   0  0  0  0  0  0  0  0  0  0  0  0
   10.3315    2.7121    0.0000 H   0  0  0  0  0  0  0  0  0  0  0  0
   11.1919    1.2588    0.0000 H   0  0  0  0  0  0  0  0  0  0  0  0
   11.9890    1.2558    0.0000 H   0  0  0  0  0  0  0  0  0  0  0  0
    6.3301    1.1431    0.0000 H   0  0  0  0  0  0  0  0  0  0  0  0
    6.3301    4.3831    0.0000 H   0  0  0  0  0  0  0  0  0  0  0  0
   12.8606    2.7023    0.0000 H   0  0  0  0  0  0  0  0  0  0  0  0
   12.0635    2.7054    0.0000 H   0  0  0  0  0  0  0  0  0  0  0  0
    4.9272    3.5731    0.0000 H   0  0  0  0  0  0  0  0  0  0  0  0
   13.3219    1.1056    0.0000 H   0  0  0  0  0  0  0  0  0  0  0  0
   14.5144    0.4110    0.0000 H   0  0  0  0  0  0  0  0  0  0  0  0
   15.9267    2.8356    0.0000 H   0  0  0  0  0  0  0  0  0  0  0  0
   15.9142   -0.4044    0.0000 H   0  0  0  0  0  0  0  0  0  0  0  0
   17.3265    2.0202    0.0000 H   0  0  0  0  0  0  0  0  0  0  0  0
   17.1067   -1.0990    0.0000 H   0  0  0  0  0  0  0  0  0  0  0  0
   18.5190    1.3256    0.0000 H   0  0  0  0  0  0  0  0  0  0  0  0
   19.9188    0.5102    0.0000 H   0  0  0  0  0  0  0  0  0  0  0  0
   19.9126   -1.1098    0.0000 H   0  0  0  0  0  0  0  0  0  0  0  0
   19.9072   -2.4898    0.0000 H   0  0  0  0  0  0  0  0  0  0  0  0
   18.7453   -3.7954    0.0000 H   0  0  0  0  0  0  0  0  0  0  0  0
   19.3629   -4.4177    0.0000 H   0  0  0  0  0  0  0  0  0  0  0  0
   19.9853   -3.8001    0.0000 H   0  0  0  0  0  0  0  0  0  0  0  0
  1  5  1  0  0  0  0
  1  7  2  0  0  0  0
  1  8  2  0  0  0  0
  1 28  1  0  0  0  0
  2 28  1  0  0  0  0
  3 28  1  0  0  0  0
  4 28  1  0  0  0  0
  5 23  1  0  0  0  0
  6 26  2  0  0  0  0
  9 40  2  0  0  0  0
 10 13  1  0  0  0  0
 10 14  1  0  0  0  0
 10 16  1  0  0  0  0
 11 24  1  0  0  0  0
 11 26  1  0  0  0  0
 11 59  1  0  0  0  0
 12 40  1  0  0  0  0
 12 41  1  0  0  0  0
 12 68  1  0  0  0  0
 13 15  1  0  0  0  0
 13 42  1  0  0  0  0
 13 43  1  0  0  0  0
 14 17  1  0  0  0  0
 14 44  1  0  0  0  0
 14 45  1  0  0  0  0
 15 18  1  0  0  0  0
 15 46  1  0  0  0  0
 15 47  1  0  0  0  0
 16 19  1  0  0  0  0
 16 48  1  0  0  0  0
 16 49  1  0  0  0  0
 17 18  2  0  0  0  0
 17 21  1  0  0  0  0
 18 22  1  0  0  0  0
 19 20  1  0  0  0  0
 19 50  1  0  0  0  0
 19 51  1  0  0  0  0
 20 24  1  0  0  0  0
 20 52  1  0  0  0  0
 20 53  1  0  0  0  0
 21 23  2  0  0  0  0
 21 54  1  0  0  0  0
 22 25  2  0  0  0  0
 22 55  1  0  0  0  0
 23 25  1  0  0  0  0
 24 56  1  0  0  0  0
 24 57  1  0  0  0  0
 25 58  1  0  0  0  0
 26 27  1  0  0  0  0
 27 29  2  0  0  0  0
 27 30  1  0  0  0  0
 29 32  1  0  0  0  0
 29 60  1  0  0  0  0
 30 33  2  0  0  0  0
 30 61  1  0  0  0  0
 31 32  2  0  0  0  0
 31 33  1  0  0  0  0
 31 34  1  0  0  0  0
 32 62  1  0  0  0  0
 33 63  1  0  0  0  0
 34 35  2  0  0  0  0
 34 36  1  0  0  0  0
 35 37  1  0  0  0  0
 35 64  1  0  0  0  0
 36 38  2  0  0  0  0
 36 65  1  0  0  0  0
 37 39  2  0  0  0  0
 37 40  1  0  0  0  0
 38 39  1  0  0  0  0
 38 66  1  0  0  0  0
 39 67  1  0  0  0  0
 41 69  1  0  0  0  0
 41 70  1  0  0  0  0
 41 71  1  0  0  0  0
M  END
> <PUBCHEM_COMPOUND_CID>
17895587

> <PUBCHEM_COMPOUND_CANONICALIZED>
1

> <PUBCHEM_CACTVS_COMPLEXITY>
981

> <PUBCHEM_CACTVS_HBOND_ACCEPTOR>
9

> <PUBCHEM_CACTVS_HBOND_DONOR>
2

> <PUBCHEM_CACTVS_ROTATABLE_BOND>
10

> <PUBCHEM_CACTVS_SUBSKEYS>
AAADceB7OYBAAAAAAAAAAAAAAAAAAAAAAAA8YMEAAAAAAACxUAAAHwQQAAAADATBmBQyBoPAAAKIAiFSEHCCAAAkIAAIiIEODMgIJjKAlROEMQhk1hGIiYe4yNCO4AADAAAQAADAAAYAACAAAAAAAAAAAA==

> <PUBCHEM_IUPAC_OPENEYE_NAME>
[2-[4-[[4-[3-(methylcarbamoyl)phenyl]benzoyl]amino]butyl]-3,4-dihydro-1H-isoquinolin-7-yl] trifluoromethanesulfonate

> <PUBCHEM_IUPAC_CAS_NAME>
trifluoromethanesulfonic acid [2-[4-[[[4-[3-(methylcarbamoyl)phenyl]phenyl]-oxomethyl]amino]butyl]-3,4-dihydro-1H-isoquinolin-7-yl] ester

> <PUBCHEM_IUPAC_NAME_MARKUP>
[2-[4-[[4-[3-(methylcarbamoyl)phenyl]benzoyl]amino]butyl]-3,4-dihydro-1<I>H</I>-isoquinolin-7-yl] trifluoromethanesulfonate

> <PUBCHEM_IUPAC_NAME>
[2-[4-[[4-[3-(methylcarbamoyl)phenyl]benzoyl]amino]butyl]-3,4-dihydro-1H-isoquinolin-7-yl] trifluoromethanesulfonate

> <PUBCHEM_IUPAC_SYSTEMATIC_NAME>
[2-[4-[[4-[3-(methylcarbamoyl)phenyl]phenyl]carbonylamino]butyl]-3,4-dihydro-1H-isoquinolin-7-yl] tris(fluoranyl)methanesulfonate

> <PUBCHEM_IUPAC_TRADITIONAL_NAME>
trifluoromethanesulfonic acid [2-[4-[[4-[3-(methylcarbamoyl)phenyl]benzoyl]amino]butyl]-3,4-dihydro-1H-isoquinolin-7-yl] ester

> <PUBCHEM_IUPAC_INCHI>
InChI=1S/C29H30F3N3O5S/c1-33-27(36)24-6-4-5-23(17-24)20-7-9-22(10-8-20)28(37)34-14-2-3-15-35-16-13-21-11-12-26(18-25(21)19-35)40-41(38,39)29(30,31)32/h4-12,17-18H,2-3,13-16,19H2,1H3,(H,33,36)(H,34,37)

> <PUBCHEM_IUPAC_INCHIKEY>
OYCWFOLWJZRICL-UHFFFAOYSA-N

> <PUBCHEM_XLOGP3_AA>
5.1

> <PUBCHEM_EXACT_MASS>
589.18582673

> <PUBCHEM_MOLECULAR_FORMULA>
C29H30F3N3O5S

> <PUBCHEM_MOLECULAR_WEIGHT>
589.6

> <PUBCHEM_OPENEYE_CAN_SMILES>
CNC(=O)C1=CC=CC(=C1)C2=CC=C(C=C2)C(=O)NCCCCN3CCC4=C(C3)C=C(C=C4)OS(=O)(=O)C(F)(F)F

> <PUBCHEM_OPENEYE_ISO_SMILES>
CNC(=O)C1=CC=CC(=C1)C2=CC=C(C=C2)C(=O)NCCCCN3CCC4=C(C3)C=C(C=C4)OS(=O)(=O)C(F)(F)F

> <PUBCHEM_CACTVS_TPSA>
113

> <PUBCHEM_MONOISOTOPIC_WEIGHT>
589.18582673

> <PUBCHEM_TOTAL_CHARGE>
0

> <PUBCHEM_HEAVY_ATOM_COUNT>
41

> <PUBCHEM_ATOM_DEF_STEREO_COUNT>
0

> <PUBCHEM_ATOM_UDEF_STEREO_COUNT>
0

> <PUBCHEM_BOND_DEF_STEREO_COUNT>
0

> <PUBCHEM_BOND_UDEF_STEREO_COUNT>
0

> <PUBCHEM_ISOTOPIC_ATOM_COUNT>
0

> <PUBCHEM_COMPONENT_COUNT>
1

> <PUBCHEM_CACTVS_TAUTO_COUNT>
-1

> <PUBCHEM_COORDINATE_TYPE>
1
5
255

> <PUBCHEM_BONDANNOTATIONS>
17  18  8
17  21  8
18  22  8
21  23  8
22  25  8
23  25  8
27  29  8
27  30  8
29  32  8
30  33  8
31  32  8
31  33  8
34  35  8
34  36  8
35  37  8
36  38  8
37  39  8
38  39  8

$$$$
