162654074
  -OEChem-09292322422D

 56 60  0     1  0  0  0  0  0999 V2000
    8.8957    2.1294    0.0000 S   0  0  0  0  0  0  0  0  0  0  0  0
    7.8957    2.1294    0.0000 O   0  0  0  0  0  0  0  0  0  0  0  0
    9.8957    2.1294    0.0000 O   0  0  0  0  0  0  0  0  0  0  0  0
    2.5708   -2.2718    0.0000 O   0  0  0  0  0  0  0  0  0  0  0  0
    6.9470   -0.5730    0.0000 N   0  0  3  0  0  0  0  0  0  0  0  0
    8.8957    1.1294    0.0000 N   0  0  0  0  0  0  0  0  0  0  0  0
    3.4800   -1.8698    0.0000 N   0  0  0  0  0  0  0  0  0  0  0  0
    8.0297    0.6294    0.0000 C   0  0  1  0  0  0  0  0  0  0  0  0
    7.9252   -0.3651    0.0000 C   0  0  0  0  0  0  0  0  0  0  0  0
    7.1161    1.0361    0.0000 C   0  0  0  0  0  0  0  0  0  0  0  0
    6.4470    0.2930    0.0000 C   0  0  0  0  0  0  0  0  0  0  0  0
    6.5403   -1.4866    0.0000 C   0  0  0  0  0  0  0  0  0  0  0  0
    5.5458   -1.5911    0.0000 C   0  0  0  0  0  0  0  0  0  0  0  0
    5.1390   -2.5046    0.0000 C   0  0  0  0  0  0  0  0  0  0  0  0
    8.8957    3.1294    0.0000 C   0  0  0  0  0  0  0  0  0  0  0  0
    4.1445   -2.6092    0.0000 C   0  0  0  0  0  0  0  0  0  0  0  0
    9.7617    3.6294    0.0000 C   0  0  0  0  0  0  0  0  0  0  0  0
    8.0297    3.6294    0.0000 C   0  0  0  0  0  0  0  0  0  0  0  0
    3.6482   -3.4705    0.0000 C   0  0  0  0  0  0  0  0  0  0  0  0
    9.7617    4.6294    0.0000 C   0  0  0  0  0  0  0  0  0  0  0  0
   10.6557    3.0948    0.0000 C   0  0  0  0  0  0  0  0  0  0  0  0
    8.0297    4.6294    0.0000 C   0  0  0  0  0  0  0  0  0  0  0  0
    2.6704   -3.2609    0.0000 C   0  0  0  0  0  0  0  0  0  0  0  0
    8.8957    5.1294    0.0000 C   0  0  0  0  0  0  0  0  0  0  0  0
   10.6557    5.1641    0.0000 C   0  0  0  0  0  0  0  0  0  0  0  0
    3.9556   -4.4221    0.0000 C   0  0  0  0  0  0  0  0  0  0  0  0
   11.5617    3.6086    0.0000 C   0  0  0  0  0  0  0  0  0  0  0  0
   11.5617    4.6502    0.0000 C   0  0  0  0  0  0  0  0  0  0  0  0
    2.0000   -4.0029    0.0000 C   0  0  0  0  0  0  0  0  0  0  0  0
    3.2852   -5.1641    0.0000 C   0  0  0  0  0  0  0  0  0  0  0  0
    2.3074   -4.9545    0.0000 C   0  0  0  0  0  0  0  0  0  0  0  0
    8.5497    0.2917    0.0000 H   0  0  0  0  0  0  0  0  0  0  0  0
    7.9900   -0.9817    0.0000 H   0  0  0  0  0  0  0  0  0  0  0  0
    8.5452   -0.3651    0.0000 H   0  0  0  0  0  0  0  0  0  0  0  0
    7.4261    1.5731    0.0000 H   0  0  0  0  0  0  0  0  0  0  0  0
    6.6146    1.4006    0.0000 H   0  0  0  0  0  0  0  0  0  0  0  0
    6.0322    0.7538    0.0000 H   0  0  0  0  0  0  0  0  0  0  0  0
    5.9454   -0.0714    0.0000 H   0  0  0  0  0  0  0  0  0  0  0  0
    6.4970   -2.1051    0.0000 H   0  0  0  0  0  0  0  0  0  0  0  0
    7.1419   -1.6366    0.0000 H   0  0  0  0  0  0  0  0  0  0  0  0
    9.4326    0.8194    0.0000 H   0  0  0  0  0  0  0  0  0  0  0  0
    5.5890   -0.9726    0.0000 H   0  0  0  0  0  0  0  0  0  0  0  0
    4.9442   -1.4411    0.0000 H   0  0  0  0  0  0  0  0  0  0  0  0
    5.0958   -3.1231    0.0000 H   0  0  0  0  0  0  0  0  0  0  0  0
    5.7406   -2.6546    0.0000 H   0  0  0  0  0  0  0  0  0  0  0  0
    7.4928    3.3194    0.0000 H   0  0  0  0  0  0  0  0  0  0  0  0
   10.6485    2.4748    0.0000 H   0  0  0  0  0  0  0  0  0  0  0  0
    7.4928    4.9394    0.0000 H   0  0  0  0  0  0  0  0  0  0  0  0
    8.8957    5.7494    0.0000 H   0  0  0  0  0  0  0  0  0  0  0  0
   10.6485    5.7840    0.0000 H   0  0  0  0  0  0  0  0  0  0  0  0
    4.5618   -4.5520    0.0000 H   0  0  0  0  0  0  0  0  0  0  0  0
   12.0975    3.2965    0.0000 H   0  0  0  0  0  0  0  0  0  0  0  0
   12.0975    4.9623    0.0000 H   0  0  0  0  0  0  0  0  0  0  0  0
    1.3938   -3.8729    0.0000 H   0  0  0  0  0  0  0  0  0  0  0  0
    3.4757   -5.7541    0.0000 H   0  0  0  0  0  0  0  0  0  0  0  0
    1.8917   -5.4145    0.0000 H   0  0  0  0  0  0  0  0  0  0  0  0
  1  2  2  0  0  0  0
  1  3  2  0  0  0  0
  1  6  1  0  0  0  0
  1 15  1  0  0  0  0
  4  7  1  0  0  0  0
  4 23  1  0  0  0  0
  5  9  1  0  0  0  0
  5 11  1  0  0  0  0
  5 12  1  0  0  0  0
  8  6  1  1  0  0  0
  6 41  1  0  0  0  0
  7 16  2  0  0  0  0
  8  9  1  0  0  0  0
  8 10  1  0  0  0  0
  8 32  1  0  0  0  0
  9 33  1  0  0  0  0
  9 34  1  0  0  0  0
 10 11  1  0  0  0  0
 10 35  1  0  0  0  0
 10 36  1  0  0  0  0
 11 37  1  0  0  0  0
 11 38  1  0  0  0  0
 12 13  1  0  0  0  0
 12 39  1  0  0  0  0
 12 40  1  0  0  0  0
 13 14  1  0  0  0  0
 13 42  1  0  0  0  0
 13 43  1  0  0  0  0
 14 16  1  0  0  0  0
 14 44  1  0  0  0  0
 14 45  1  0  0  0  0
 15 17  1  0  0  0  0
 15 18  2  0  0  0  0
 16 19  1  0  0  0  0
 17 20  1  0  0  0  0
 17 21  2  0  0  0  0
 18 22  1  0  0  0  0
 18 46  1  0  0  0  0
 19 23  1  0  0  0  0
 19 26  2  0  0  0  0
 20 24  1  0  0  0  0
 20 25  2  0  0  0  0
 21 27  1  0  0  0  0
 21 47  1  0  0  0  0
 22 24  2  0  0  0  0
 22 48  1  0  0  0  0
 23 29  2  0  0  0  0
 24 49  1  0  0  0  0
 25 28  1  0  0  0  0
 25 50  1  0  0  0  0
 26 30  1  0  0  0  0
 26 51  1  0  0  0  0
 27 28  2  0  0  0  0
 27 52  1  0  0  0  0
 28 53  1  0  0  0  0
 29 31  1  0  0  0  0
 29 54  1  0  0  0  0
 30 31  2  0  0  0  0
 30 55  1  0  0  0  0
 31 56  1  0  0  0  0
M  END
> <PUBCHEM_COMPOUND_CID>
162654074

> <PUBCHEM_COMPOUND_CANONICALIZED>
1

> <PUBCHEM_CACTVS_COMPLEXITY>
697

> <PUBCHEM_CACTVS_HBOND_ACCEPTOR>
6

> <PUBCHEM_CACTVS_HBOND_DONOR>
1

> <PUBCHEM_CACTVS_ROTATABLE_BOND>
7

> <PUBCHEM_CACTVS_SUBSKEYS>
AAADceB7MABAAAAAAAAAAAAAAAAAAWLAAAAwYMAAAAAAAFjB9AAAHgQUQAAADCzB3gQwh9NQAAKpA6RyQnDCABAkIAAomLk+TNoIZrqA1ZOUMYBm0BmIyceYyKCOgAAAgAAcAAAAAAEAADgAAAAAAAAAAA==

> <PUBCHEM_IUPAC_OPENEYE_NAME>
N-[(3R)-1-[3-(1,2-benzoxazol-3-yl)propyl]pyrrolidin-3-yl]naphthalene-1-sulfonamide

> <PUBCHEM_IUPAC_CAS_NAME>
N-[(3R)-1-[3-(1,2-benzoxazol-3-yl)propyl]-3-pyrrolidinyl]-1-naphthalenesulfonamide

> <PUBCHEM_IUPAC_NAME_MARKUP>
<I>N</I>-[(3<I>R</I>)-1-[3-(1,2-benzoxazol-3-yl)propyl]pyrrolidin-3-yl]naphthalene-1-sulfonamide

> <PUBCHEM_IUPAC_NAME>
N-[(3R)-1-[3-(1,2-benzoxazol-3-yl)propyl]pyrrolidin-3-yl]naphthalene-1-sulfonamide

> <PUBCHEM_IUPAC_SYSTEMATIC_NAME>
N-[(3R)-1-[3-(1,2-benzoxazol-3-yl)propyl]pyrrolidin-3-yl]naphthalene-1-sulfonamide

> <PUBCHEM_IUPAC_TRADITIONAL_NAME>
N-[(3R)-1-(3-indoxazen-3-ylpropyl)pyrrolidin-3-yl]naphthalene-1-sulfonamide

> <PUBCHEM_IUPAC_INCHI>
InChI=1S/C24H25N3O3S/c28-31(29,24-13-5-8-18-7-1-2-9-20(18)24)26-19-14-16-27(17-19)15-6-11-22-21-10-3-4-12-23(21)30-25-22/h1-5,7-10,12-13,19,26H,6,11,14-17H2/t19-/m1/s1

> <PUBCHEM_IUPAC_INCHIKEY>
PUHAZBKUVIJPMC-LJQANCHMSA-N

> <PUBCHEM_XLOGP3_AA>
4.5

> <PUBCHEM_EXACT_MASS>
435.16166284

> <PUBCHEM_MOLECULAR_FORMULA>
C24H25N3O3S

> <PUBCHEM_MOLECULAR_WEIGHT>
435.5

> <PUBCHEM_OPENEYE_CAN_SMILES>
C1CN(CC1NS(=O)(=O)C2=CC=CC3=CC=CC=C32)CCCC4=NOC5=CC=CC=C54

> <PUBCHEM_OPENEYE_ISO_SMILES>
C1CN(C[C@@H]1NS(=O)(=O)C2=CC=CC3=CC=CC=C32)CCCC4=NOC5=CC=CC=C54

> <PUBCHEM_CACTVS_TPSA>
83.8

> <PUBCHEM_MONOISOTOPIC_WEIGHT>
435.16166284

> <PUBCHEM_TOTAL_CHARGE>
0

> <PUBCHEM_HEAVY_ATOM_COUNT>
31

> <PUBCHEM_ATOM_DEF_STEREO_COUNT>
1

> <PUBCHEM_ATOM_UDEF_STEREO_COUNT>
0

> <PUBCHEM_BOND_DEF_STEREO_COUNT>
0

> <PUBCHEM_BOND_UDEF_STEREO_COUNT>
0

> <PUBCHEM_ISOTOPIC_ATOM_COUNT>
0

> <PUBCHEM_COMPONENT_COUNT>
1

> <PUBCHEM_CACTVS_TAUTO_COUNT>
-1

> <PUBCHEM_COORDINATE_TYPE>
1
5
255

> <PUBCHEM_BONDANNOTATIONS>
15  17  8
15  18  8
16  19  8
17  20  8
17  21  8
18  22  8
19  23  8
19  26  8
20  24  8
20  25  8
21  27  8
22  24  8
23  29  8
25  28  8
26  30  8
27  28  8
29  31  8
30  31  8
4  23  8
4  7  8
8  6  5
7  16  8

$$$$
