44336006
  -OEChem-09292322162D

 48 51  0     0  0  0  0  0  0999 V2000
   11.1241    3.5252    0.0000 Cl  0  0  0  0  0  0  0  0  0  0  0  0
    4.6783   -3.8680    0.0000 S   0  0  0  0  0  0  0  0  0  0  0  0
    6.2619   -3.0633    0.0000 O   0  0  0  0  0  0  0  0  0  0  0  0
    6.2781   -0.1513    0.0000 N   0  0  0  0  0  0  0  0  0  0  0  0
    6.8994    1.7498    0.0000 N   0  0  0  0  0  0  0  0  0  0  0  0
    4.6783   -2.2585    0.0000 N   0  0  0  0  0  0  0  0  0  0  0  0
    5.6103    0.5930    0.0000 C   0  0  0  0  0  0  0  0  0  0  0  0
    7.2566    0.0550    0.0000 C   0  0  0  0  0  0  0  0  0  0  0  0
    5.9209    1.5436    0.0000 C   0  0  0  0  0  0  0  0  0  0  0  0
    7.5673    1.0055    0.0000 C   0  0  0  0  0  0  0  0  0  0  0  0
    5.9674   -1.1018    0.0000 C   0  0  0  0  0  0  0  0  0  0  0  0
    7.2101    2.7003    0.0000 C   0  0  0  0  0  0  0  0  0  0  0  0
    4.9889   -1.3080    0.0000 C   0  0  0  0  0  0  0  0  0  0  0  0
    8.1886    2.9065    0.0000 C   0  0  0  0  0  0  0  0  0  0  0  0
    3.7320   -2.5633    0.0000 C   0  0  0  0  0  0  0  0  0  0  0  0
    5.2619   -3.0633    0.0000 C   0  0  0  0  0  0  0  0  0  0  0  0
    3.7320   -3.5633    0.0000 C   0  0  0  0  0  0  0  0  0  0  0  0
    8.8564    2.1622    0.0000 C   0  0  0  0  0  0  0  0  0  0  0  0
    8.4993    3.8570    0.0000 C   0  0  0  0  0  0  0  0  0  0  0  0
    2.8660   -2.0633    0.0000 C   0  0  0  0  0  0  0  0  0  0  0  0
    2.8660   -4.0633    0.0000 C   0  0  0  0  0  0  0  0  0  0  0  0
    9.8349    2.3684    0.0000 C   0  0  0  0  0  0  0  0  0  0  0  0
    9.4778    4.0633    0.0000 C   0  0  0  0  0  0  0  0  0  0  0  0
    2.0000   -2.5633    0.0000 C   0  0  0  0  0  0  0  0  0  0  0  0
   10.1456    3.3190    0.0000 C   0  0  0  0  0  0  0  0  0  0  0  0
    2.0000   -3.5633    0.0000 C   0  0  0  0  0  0  0  0  0  0  0  0
    5.0633    0.8851    0.0000 H   0  0  0  0  0  0  0  0  0  0  0  0
    5.2277    0.1051    0.0000 H   0  0  0  0  0  0  0  0  0  0  0  0
    7.2772   -0.5647    0.0000 H   0  0  0  0  0  0  0  0  0  0  0  0
    7.8704   -0.0324    0.0000 H   0  0  0  0  0  0  0  0  0  0  0  0
    5.9004    2.1632    0.0000 H   0  0  0  0  0  0  0  0  0  0  0  0
    5.3071    1.6309    0.0000 H   0  0  0  0  0  0  0  0  0  0  0  0
    8.1142    0.7135    0.0000 H   0  0  0  0  0  0  0  0  0  0  0  0
    7.9498    1.4934    0.0000 H   0  0  0  0  0  0  0  0  0  0  0  0
    5.9880   -1.7214    0.0000 H   0  0  0  0  0  0  0  0  0  0  0  0
    6.5812   -1.1891    0.0000 H   0  0  0  0  0  0  0  0  0  0  0  0
    7.1895    3.3200    0.0000 H   0  0  0  0  0  0  0  0  0  0  0  0
    6.5963    2.7877    0.0000 H   0  0  0  0  0  0  0  0  0  0  0  0
    4.9684   -0.6883    0.0000 H   0  0  0  0  0  0  0  0  0  0  0  0
    4.3751   -1.2206    0.0000 H   0  0  0  0  0  0  0  0  0  0  0  0
    8.6638    1.5729    0.0000 H   0  0  0  0  0  0  0  0  0  0  0  0
    8.0852    4.3185    0.0000 H   0  0  0  0  0  0  0  0  0  0  0  0
    2.8660   -1.4433    0.0000 H   0  0  0  0  0  0  0  0  0  0  0  0
    2.8660   -4.6833    0.0000 H   0  0  0  0  0  0  0  0  0  0  0  0
   10.2490    1.9070    0.0000 H   0  0  0  0  0  0  0  0  0  0  0  0
    9.6704    4.6526    0.0000 H   0  0  0  0  0  0  0  0  0  0  0  0
    1.4631   -2.2533    0.0000 H   0  0  0  0  0  0  0  0  0  0  0  0
    1.4631   -3.8733    0.0000 H   0  0  0  0  0  0  0  0  0  0  0  0
  1 25  1  0  0  0  0
  2 16  1  0  0  0  0
  2 17  1  0  0  0  0
  3 16  2  0  0  0  0
  4  7  1  0  0  0  0
  4  8  1  0  0  0  0
  4 11  1  0  0  0  0
  5  9  1  0  0  0  0
  5 10  1  0  0  0  0
  5 12  1  0  0  0  0
  6 13  1  0  0  0  0
  6 15  1  0  0  0  0
  6 16  1  0  0  0  0
  7  9  1  0  0  0  0
  7 27  1  0  0  0  0
  7 28  1  0  0  0  0
  8 10  1  0  0  0  0
  8 29  1  0  0  0  0
  8 30  1  0  0  0  0
  9 31  1  0  0  0  0
  9 32  1  0  0  0  0
 10 33  1  0  0  0  0
 10 34  1  0  0  0  0
 11 13  1  0  0  0  0
 11 35  1  0  0  0  0
 11 36  1  0  0  0  0
 12 14  1  0  0  0  0
 12 37  1  0  0  0  0
 12 38  1  0  0  0  0
 13 39  1  0  0  0  0
 13 40  1  0  0  0  0
 14 18  2  0  0  0  0
 14 19  1  0  0  0  0
 15 17  1  0  0  0  0
 15 20  2  0  0  0  0
 17 21  2  0  0  0  0
 18 22  1  0  0  0  0
 18 41  1  0  0  0  0
 19 23  2  0  0  0  0
 19 42  1  0  0  0  0
 20 24  1  0  0  0  0
 20 43  1  0  0  0  0
 21 26  1  0  0  0  0
 21 44  1  0  0  0  0
 22 25  2  0  0  0  0
 22 45  1  0  0  0  0
 23 25  1  0  0  0  0
 23 46  1  0  0  0  0
 24 26  2  0  0  0  0
 24 47  1  0  0  0  0
 26 48  1  0  0  0  0
M  END
> <PUBCHEM_COMPOUND_CID>
44336006

> <PUBCHEM_COMPOUND_CANONICALIZED>
1

> <PUBCHEM_CACTVS_COMPLEXITY>
478

> <PUBCHEM_CACTVS_HBOND_ACCEPTOR>
4

> <PUBCHEM_CACTVS_HBOND_DONOR>
0

> <PUBCHEM_CACTVS_ROTATABLE_BOND>
5

> <PUBCHEM_CACTVS_SUBSKEYS>
AAADceB7IABEAAAAAAAAAAAAAAAAAWAAAAA8YIAAAAAAAFgBQAAAHgYAAAAADArBWCQwwYMAAAiIAiRCUACCAABhDxAIiBwIZogIYCLhk5GUIAhghgDIyAcQgAAOBAAAAAAAAQAIAAAAAAACAAAAAAAAAA==

> <PUBCHEM_IUPAC_OPENEYE_NAME>
3-[2-[4-[(4-chlorophenyl)methyl]piperazin-1-yl]ethyl]-1,3-benzothiazol-2-one

> <PUBCHEM_IUPAC_CAS_NAME>
3-[2-[4-[(4-chlorophenyl)methyl]-1-piperazinyl]ethyl]-1,3-benzothiazol-2-one

> <PUBCHEM_IUPAC_NAME_MARKUP>
3-[2-[4-[(4-chlorophenyl)methyl]piperazin-1-yl]ethyl]-1,3-benzothiazol-2-one

> <PUBCHEM_IUPAC_NAME>
3-[2-[4-[(4-chlorophenyl)methyl]piperazin-1-yl]ethyl]-1,3-benzothiazol-2-one

> <PUBCHEM_IUPAC_SYSTEMATIC_NAME>
3-[2-[4-[(4-chlorophenyl)methyl]piperazin-1-yl]ethyl]-1,3-benzothiazol-2-one

> <PUBCHEM_IUPAC_TRADITIONAL_NAME>
3-[2-[4-(4-chlorobenzyl)piperazino]ethyl]-1,3-benzothiazol-2-one

> <PUBCHEM_IUPAC_INCHI>
InChI=1S/C20H22ClN3OS/c21-17-7-5-16(6-8-17)15-23-11-9-22(10-12-23)13-14-24-18-3-1-2-4-19(18)26-20(24)25/h1-8H,9-15H2

> <PUBCHEM_IUPAC_INCHIKEY>
ITCMJTMRLFGAKW-UHFFFAOYSA-N

> <PUBCHEM_XLOGP3_AA>
3.8

> <PUBCHEM_EXACT_MASS>
387.1172112

> <PUBCHEM_MOLECULAR_FORMULA>
C20H22ClN3OS

> <PUBCHEM_MOLECULAR_WEIGHT>
387.9

> <PUBCHEM_OPENEYE_CAN_SMILES>
C1CN(CCN1CCN2C3=CC=CC=C3SC2=O)CC4=CC=C(C=C4)Cl

> <PUBCHEM_OPENEYE_ISO_SMILES>
C1CN(CCN1CCN2C3=CC=CC=C3SC2=O)CC4=CC=C(C=C4)Cl

> <PUBCHEM_CACTVS_TPSA>
52.1

> <PUBCHEM_MONOISOTOPIC_WEIGHT>
387.1172112

> <PUBCHEM_TOTAL_CHARGE>
0

> <PUBCHEM_HEAVY_ATOM_COUNT>
26

> <PUBCHEM_ATOM_DEF_STEREO_COUNT>
0

> <PUBCHEM_ATOM_UDEF_STEREO_COUNT>
0

> <PUBCHEM_BOND_DEF_STEREO_COUNT>
0

> <PUBCHEM_BOND_UDEF_STEREO_COUNT>
0

> <PUBCHEM_ISOTOPIC_ATOM_COUNT>
0

> <PUBCHEM_COMPONENT_COUNT>
1

> <PUBCHEM_CACTVS_TAUTO_COUNT>
-1

> <PUBCHEM_COORDINATE_TYPE>
1
5
255

> <PUBCHEM_BONDANNOTATIONS>
14  18  8
14  19  8
15  17  8
15  20  8
17  21  8
18  22  8
19  23  8
2  16  8
2  17  8
20  24  8
21  26  8
22  25  8
23  25  8
24  26  8
6  15  8
6  16  8

$$$$
