49860796
  -OEChem-09292322032D

 47 49  0     1  0  0  0  0  0999 V2000
    6.2456    5.5530    0.0000 Cl  0  0  0  0  0  0  0  0  0  0  0  0
    1.4766    5.6200    0.0000 N   0  0  0  0  0  0  0  0  0  0  0  0
    1.4766    3.6200    0.0000 N   0  0  0  0  0  0  0  0  0  0  0  0
    0.6106    2.1200    0.0000 N   0  0  0  0  0  0  0  0  0  0  0  0
    2.3426    7.1200    0.0000 C   0  0  2  0  0  0  0  0  0  0  0  0
    2.8426    7.9860    0.0000 C   0  0  2  0  0  0  0  0  0  0  0  0
    3.3426    7.1200    0.0000 C   0  0  0  0  0  0  0  0  0  0  0  0
    1.4766    6.6200    0.0000 C   0  0  0  0  0  0  0  0  0  0  0  0
    2.8426    8.9860    0.0000 C   0  0  0  0  0  0  0  0  0  0  0  0
    2.3426    5.1200    0.0000 C   0  0  0  0  0  0  0  0  0  0  0  0
    0.6106    5.1200    0.0000 C   0  0  0  0  0  0  0  0  0  0  0  0
    2.3426    4.1200    0.0000 C   0  0  0  0  0  0  0  0  0  0  0  0
    0.6106    4.1200    0.0000 C   0  0  0  0  0  0  0  0  0  0  0  0
    1.9766    9.4860    0.0000 C   0  0  0  0  0  0  0  0  0  0  0  0
    3.7087    9.4860    0.0000 C   0  0  0  0  0  0  0  0  0  0  0  0
    1.9766   10.4860    0.0000 C   0  0  0  0  0  0  0  0  0  0  0  0
    3.7087   10.4860    0.0000 C   0  0  0  0  0  0  0  0  0  0  0  0
    1.4766    2.6200    0.0000 C   0  0  0  0  0  0  0  0  0  0  0  0
    2.8426   10.9860    0.0000 C   0  0  0  0  0  0  0  0  0  0  0  0
    2.3426    2.1200    0.0000 C   0  0  0  0  0  0  0  0  0  0  0  0
    2.3426    1.1200    0.0000 C   0  0  0  0  0  0  0  0  0  0  0  0
    0.6106    1.1200    0.0000 C   0  0  0  0  0  0  0  0  0  0  0  0
    1.4766    0.6200    0.0000 C   0  0  0  0  0  0  0  0  0  0  0  0
    2.5031    6.5211    0.0000 H   0  0  0  0  0  0  0  0  0  0  0  0
    3.4415    8.1465    0.0000 H   0  0  0  0  0  0  0  0  0  0  0  0
    3.4503    6.5094    0.0000 H   0  0  0  0  0  0  0  0  0  0  0  0
    3.9252    7.3320    0.0000 H   0  0  0  0  0  0  0  0  0  0  0  0
    1.2646    7.2026    0.0000 H   0  0  0  0  0  0  0  0  0  0  0  0
    0.8660    6.5123    0.0000 H   0  0  0  0  0  0  0  0  0  0  0  0
    2.9532    5.0123    0.0000 H   0  0  0  0  0  0  0  0  0  0  0  0
    2.5547    5.7026    0.0000 H   0  0  0  0  0  0  0  0  0  0  0  0
    0.3985    5.7026    0.0000 H   0  0  0  0  0  0  0  0  0  0  0  0
    0.0000    5.0123    0.0000 H   0  0  0  0  0  0  0  0  0  0  0  0
    2.5547    3.5374    0.0000 H   0  0  0  0  0  0  0  0  0  0  0  0
    2.9532    4.2277    0.0000 H   0  0  0  0  0  0  0  0  0  0  0  0
    0.0000    4.2277    0.0000 H   0  0  0  0  0  0  0  0  0  0  0  0
    0.3985    3.5374    0.0000 H   0  0  0  0  0  0  0  0  0  0  0  0
    1.4397    9.1760    0.0000 H   0  0  0  0  0  0  0  0  0  0  0  0
    4.2456    9.1760    0.0000 H   0  0  0  0  0  0  0  0  0  0  0  0
    1.4397   10.7960    0.0000 H   0  0  0  0  0  0  0  0  0  0  0  0
    4.2456   10.7960    0.0000 H   0  0  0  0  0  0  0  0  0  0  0  0
    2.8426   11.6060    0.0000 H   0  0  0  0  0  0  0  0  0  0  0  0
    2.8796    2.4300    0.0000 H   0  0  0  0  0  0  0  0  0  0  0  0
    2.8796    0.8100    0.0000 H   0  0  0  0  0  0  0  0  0  0  0  0
    0.0736    0.8100    0.0000 H   0  0  0  0  0  0  0  0  0  0  0  0
    1.4766    0.0000    0.0000 H   0  0  0  0  0  0  0  0  0  0  0  0
    7.2456    5.5530    0.0000 H   0  0  0  0  0  0  0  0  0  0  0  0
  1 47  1  0  0  0  0
  2  8  1  0  0  0  0
  2 10  1  0  0  0  0
  2 11  1  0  0  0  0
  3 12  1  0  0  0  0
  3 13  1  0  0  0  0
  3 18  1  0  0  0  0
  4 18  1  0  0  0  0
  4 22  2  0  0  0  0
  5  6  1  0  0  0  0
  5  7  1  0  0  0  0
  5  8  1  6  0  0  0
  5 24  1  0  0  0  0
  6  7  1  0  0  0  0
  6  9  1  1  0  0  0
  6 25  1  0  0  0  0
  7 26  1  0  0  0  0
  7 27  1  0  0  0  0
  8 28  1  0  0  0  0
  8 29  1  0  0  0  0
  9 14  2  0  0  0  0
  9 15  1  0  0  0  0
 10 12  1  0  0  0  0
 10 30  1  0  0  0  0
 10 31  1  0  0  0  0
 11 13  1  0  0  0  0
 11 32  1  0  0  0  0
 11 33  1  0  0  0  0
 12 34  1  0  0  0  0
 12 35  1  0  0  0  0
 13 36  1  0  0  0  0
 13 37  1  0  0  0  0
 14 16  1  0  0  0  0
 14 38  1  0  0  0  0
 15 17  2  0  0  0  0
 15 39  1  0  0  0  0
 16 19  2  0  0  0  0
 16 40  1  0  0  0  0
 17 19  1  0  0  0  0
 17 41  1  0  0  0  0
 18 20  2  0  0  0  0
 19 42  1  0  0  0  0
 20 21  1  0  0  0  0
 20 43  1  0  0  0  0
 21 23  2  0  0  0  0
 21 44  1  0  0  0  0
 22 23  1  0  0  0  0
 22 45  1  0  0  0  0
 23 46  1  0  0  0  0
M  END
> <PUBCHEM_COMPOUND_CID>
49860796

> <PUBCHEM_COMPOUND_CANONICALIZED>
1

> <PUBCHEM_CACTVS_COMPLEXITY>
345

> <PUBCHEM_CACTVS_HBOND_ACCEPTOR>
3

> <PUBCHEM_CACTVS_HBOND_DONOR>
1

> <PUBCHEM_CACTVS_ROTATABLE_BOND>
4

> <PUBCHEM_CACTVS_SUBSKEYS>
AAADceB7AAAEAAAAAAAAAAAAGAAAAAAAAAA8WIAAAAAAAAABwAAAHAAAAAAADQDBGgQ9sJMIEACgAjJnZACCgCkxAiAJ2CA4ZJiIYOLAmZGUIAhogALIyCcQgMAOgAAAAAAAAAAAAAAAAAAAAAAAAAAAAA==

> <PUBCHEM_IUPAC_OPENEYE_NAME>
1-[[(1S,2S)-2-phenylcyclopropyl]methyl]-4-(2-pyridyl)piperazine;hydrochloride

> <PUBCHEM_IUPAC_CAS_NAME>
1-[[(1S,2S)-2-phenylcyclopropyl]methyl]-4-(2-pyridinyl)piperazine;hydrochloride

> <PUBCHEM_IUPAC_NAME_MARKUP>
1-[[(1<I>S</I>,2<I>S</I>)-2-phenylcyclopropyl]methyl]-4-pyridin-2-ylpiperazine;hydrochloride

> <PUBCHEM_IUPAC_NAME>
1-[[(1S,2S)-2-phenylcyclopropyl]methyl]-4-pyridin-2-ylpiperazine;hydrochloride

> <PUBCHEM_IUPAC_SYSTEMATIC_NAME>
1-[[(1S,2S)-2-phenylcyclopropyl]methyl]-4-pyridin-2-yl-piperazine;hydrochloride

> <PUBCHEM_IUPAC_TRADITIONAL_NAME>
1-[[(1S,2S)-2-phenylcyclopropyl]methyl]-4-(2-pyridyl)piperazine;hydrochloride

> <PUBCHEM_IUPAC_INCHI>
InChI=1S/C19H23N3.ClH/c1-2-6-16(7-3-1)18-14-17(18)15-21-10-12-22(13-11-21)19-8-4-5-9-20-19;/h1-9,17-18H,10-15H2;1H/t17-,18-;/m1./s1

> <PUBCHEM_IUPAC_INCHIKEY>
QWRKEBNZXSGCAZ-JAXOOIEVSA-N

> <PUBCHEM_EXACT_MASS>
329.1658755

> <PUBCHEM_MOLECULAR_FORMULA>
C19H24ClN3

> <PUBCHEM_MOLECULAR_WEIGHT>
329.9

> <PUBCHEM_OPENEYE_CAN_SMILES>
C1CN(CCN1CC2CC2C3=CC=CC=C3)C4=CC=CC=N4.Cl

> <PUBCHEM_OPENEYE_ISO_SMILES>
C1CN(CCN1C[C@H]2C[C@@H]2C3=CC=CC=C3)C4=CC=CC=N4.Cl

> <PUBCHEM_CACTVS_TPSA>
19.4

> <PUBCHEM_MONOISOTOPIC_WEIGHT>
329.1658755

> <PUBCHEM_TOTAL_CHARGE>
0

> <PUBCHEM_HEAVY_ATOM_COUNT>
23

> <PUBCHEM_ATOM_DEF_STEREO_COUNT>
2

> <PUBCHEM_ATOM_UDEF_STEREO_COUNT>
0

> <PUBCHEM_BOND_DEF_STEREO_COUNT>
0

> <PUBCHEM_BOND_UDEF_STEREO_COUNT>
0

> <PUBCHEM_ISOTOPIC_ATOM_COUNT>
0

> <PUBCHEM_COMPONENT_COUNT>
2

> <PUBCHEM_CACTVS_TAUTO_COUNT>
-1

> <PUBCHEM_COORDINATE_TYPE>
1
5
255

> <PUBCHEM_BONDANNOTATIONS>
14  16  8
15  17  8
16  19  8
17  19  8
18  20  8
20  21  8
21  23  8
22  23  8
4  18  8
4  22  8
5  8  6
6  9  5
9  14  8
9  15  8

$$$$
