127052487
  -OEChem-09292322372D

 57 61  0     0  0  0  0  0  0999 V2000
    2.0000   -4.8625    0.0000 Cl  0  0  0  0  0  0  0  0  0  0  0  0
    7.1279   -3.8625    0.0000 O   0  0  0  0  0  0  0  0  0  0  0  0
    6.4763   -0.2062    0.0000 N   0  0  0  0  0  0  0  0  0  0  0  0
    5.5443   -3.0578    0.0000 N   0  0  0  0  0  0  0  0  0  0  0  0
    5.5443   -4.6672    0.0000 N   0  0  0  0  0  0  0  0  0  0  0  0
    9.3653    4.6672    0.0000 N   0  0  0  0  0  0  0  0  0  0  0  0
    5.8550   -2.1073    0.0000 C   0  0  0  0  0  0  0  0  0  0  0  0
    6.8335   -1.9010    0.0000 C   0  0  0  0  0  0  0  0  0  0  0  0
    5.1871   -1.3630    0.0000 C   0  0  0  0  0  0  0  0  0  0  0  0
    7.1441   -0.9505    0.0000 C   0  0  0  0  0  0  0  0  0  0  0  0
    5.4978   -0.4124    0.0000 C   0  0  0  0  0  0  0  0  0  0  0  0
    6.7870    0.7443    0.0000 C   0  0  0  0  0  0  0  0  0  0  0  0
    7.7654    0.9505    0.0000 C   0  0  0  0  0  0  0  0  0  0  0  0
    4.5981   -3.3625    0.0000 C   0  0  0  0  0  0  0  0  0  0  0  0
    6.1279   -3.8625    0.0000 C   0  0  0  0  0  0  0  0  0  0  0  0
    8.0761    1.9010    0.0000 C   0  0  0  0  0  0  0  0  0  0  0  0
    4.5981   -4.3625    0.0000 C   0  0  0  0  0  0  0  0  0  0  0  0
    9.0546    2.1073    0.0000 C   0  0  0  0  0  0  0  0  0  0  0  0
    3.7320   -2.8625    0.0000 C   0  0  0  0  0  0  0  0  0  0  0  0
    9.3653    3.0578    0.0000 C   0  0  0  0  0  0  0  0  0  0  0  0
    3.7320   -4.8625    0.0000 C   0  0  0  0  0  0  0  0  0  0  0  0
    2.8660   -3.3625    0.0000 C   0  0  0  0  0  0  0  0  0  0  0  0
   10.3115    3.3625    0.0000 C   0  0  0  0  0  0  0  0  0  0  0  0
    2.8660   -4.3625    0.0000 C   0  0  0  0  0  0  0  0  0  0  0  0
    8.7817    3.8625    0.0000 C   0  0  0  0  0  0  0  0  0  0  0  0
   10.3115    4.3625    0.0000 C   0  0  0  0  0  0  0  0  0  0  0  0
   11.1775    2.8625    0.0000 C   0  0  0  0  0  0  0  0  0  0  0  0
   11.1775    4.8625    0.0000 C   0  0  0  0  0  0  0  0  0  0  0  0
   12.0436    3.3625    0.0000 C   0  0  0  0  0  0  0  0  0  0  0  0
   12.0436    4.3625    0.0000 C   0  0  0  0  0  0  0  0  0  0  0  0
    6.2690   -2.5687    0.0000 H   0  0  0  0  0  0  0  0  0  0  0  0
    6.8540   -2.5207    0.0000 H   0  0  0  0  0  0  0  0  0  0  0  0
    7.4473   -1.9884    0.0000 H   0  0  0  0  0  0  0  0  0  0  0  0
    4.6402   -1.0709    0.0000 H   0  0  0  0  0  0  0  0  0  0  0  0
    4.8046   -1.8509    0.0000 H   0  0  0  0  0  0  0  0  0  0  0  0
    7.6910   -1.2425    0.0000 H   0  0  0  0  0  0  0  0  0  0  0  0
    7.5267   -0.4626    0.0000 H   0  0  0  0  0  0  0  0  0  0  0  0
    5.4772    0.2072    0.0000 H   0  0  0  0  0  0  0  0  0  0  0  0
    4.8840   -0.3251    0.0000 H   0  0  0  0  0  0  0  0  0  0  0  0
    6.7664    1.3640    0.0000 H   0  0  0  0  0  0  0  0  0  0  0  0
    6.1731    0.8317    0.0000 H   0  0  0  0  0  0  0  0  0  0  0  0
    7.7860    0.3309    0.0000 H   0  0  0  0  0  0  0  0  0  0  0  0
    8.3793    0.8632    0.0000 H   0  0  0  0  0  0  0  0  0  0  0  0
    8.0556    2.5207    0.0000 H   0  0  0  0  0  0  0  0  0  0  0  0
    7.4623    1.9884    0.0000 H   0  0  0  0  0  0  0  0  0  0  0  0
    5.7369   -5.2566    0.0000 H   0  0  0  0  0  0  0  0  0  0  0  0
    9.0752    1.4876    0.0000 H   0  0  0  0  0  0  0  0  0  0  0  0
    9.6684    2.0199    0.0000 H   0  0  0  0  0  0  0  0  0  0  0  0
    3.7320   -2.2425    0.0000 H   0  0  0  0  0  0  0  0  0  0  0  0
    3.7320   -5.4825    0.0000 H   0  0  0  0  0  0  0  0  0  0  0  0
    2.3291   -3.0525    0.0000 H   0  0  0  0  0  0  0  0  0  0  0  0
    8.1617    3.8625    0.0000 H   0  0  0  0  0  0  0  0  0  0  0  0
    9.1727    5.2566    0.0000 H   0  0  0  0  0  0  0  0  0  0  0  0
   11.1775    2.2425    0.0000 H   0  0  0  0  0  0  0  0  0  0  0  0
   11.1775    5.4825    0.0000 H   0  0  0  0  0  0  0  0  0  0  0  0
   12.5805    3.0525    0.0000 H   0  0  0  0  0  0  0  0  0  0  0  0
   12.5805    4.6725    0.0000 H   0  0  0  0  0  0  0  0  0  0  0  0
  1 24  1  0  0  0  0
  2 15  2  0  0  0  0
  3 10  1  0  0  0  0
  3 11  1  0  0  0  0
  3 12  1  0  0  0  0
  4  7  1  0  0  0  0
  4 14  1  0  0  0  0
  4 15  1  0  0  0  0
  5 15  1  0  0  0  0
  5 17  1  0  0  0  0
  5 46  1  0  0  0  0
  6 25  1  0  0  0  0
  6 26  1  0  0  0  0
  6 53  1  0  0  0  0
  7  8  1  0  0  0  0
  7  9  1  0  0  0  0
  7 31  1  0  0  0  0
  8 10  1  0  0  0  0
  8 32  1  0  0  0  0
  8 33  1  0  0  0  0
  9 11  1  0  0  0  0
  9 34  1  0  0  0  0
  9 35  1  0  0  0  0
 10 36  1  0  0  0  0
 10 37  1  0  0  0  0
 11 38  1  0  0  0  0
 11 39  1  0  0  0  0
 12 13  1  0  0  0  0
 12 40  1  0  0  0  0
 12 41  1  0  0  0  0
 13 16  1  0  0  0  0
 13 42  1  0  0  0  0
 13 43  1  0  0  0  0
 14 17  2  0  0  0  0
 14 19  1  0  0  0  0
 16 18  1  0  0  0  0
 16 44  1  0  0  0  0
 16 45  1  0  0  0  0
 17 21  1  0  0  0  0
 18 20  1  0  0  0  0
 18 47  1  0  0  0  0
 18 48  1  0  0  0  0
 19 22  2  0  0  0  0
 19 49  1  0  0  0  0
 20 23  1  0  0  0  0
 20 25  2  0  0  0  0
 21 24  2  0  0  0  0
 21 50  1  0  0  0  0
 22 24  1  0  0  0  0
 22 51  1  0  0  0  0
 23 26  1  0  0  0  0
 23 27  2  0  0  0  0
 25 52  1  0  0  0  0
 26 28  2  0  0  0  0
 27 29  1  0  0  0  0
 27 54  1  0  0  0  0
 28 30  1  0  0  0  0
 28 55  1  0  0  0  0
 29 30  2  0  0  0  0
 29 56  1  0  0  0  0
 30 57  1  0  0  0  0
M  END
> <PUBCHEM_COMPOUND_CID>
127052487

> <PUBCHEM_COMPOUND_CANONICALIZED>
1

> <PUBCHEM_CACTVS_COMPLEXITY>
596

> <PUBCHEM_CACTVS_HBOND_ACCEPTOR>
2

> <PUBCHEM_CACTVS_HBOND_DONOR>
2

> <PUBCHEM_CACTVS_ROTATABLE_BOND>
6

> <PUBCHEM_CACTVS_SUBSKEYS>
AAADceB7oAAEAAAAAAAAAAAAAAAAAWLAAAA8YIAAAAAAAFgB9AAAHgIQAAAADCrBHiQ9wPPJkACoAzRnVACCgCAxByAI2aA4dpiIYOLB05GUIAholgLIyCcQgMAOgABAAAICACAAAIAABAQAQAAAAAAAAA==

> <PUBCHEM_IUPAC_OPENEYE_NAME>
6-chloro-3-[1-[4-(1H-indol-3-yl)butyl]-4-piperidyl]-1H-benzimidazol-2-one

> <PUBCHEM_IUPAC_CAS_NAME>
6-chloro-3-[1-[4-(1H-indol-3-yl)butyl]-4-piperidinyl]-1H-benzimidazol-2-one

> <PUBCHEM_IUPAC_NAME_MARKUP>
6-chloro-3-[1-[4-(1<I>H</I>-indol-3-yl)butyl]piperidin-4-yl]-1<I>H</I>-benzimidazol-2-one

> <PUBCHEM_IUPAC_NAME>
6-chloro-3-[1-[4-(1H-indol-3-yl)butyl]piperidin-4-yl]-1H-benzimidazol-2-one

> <PUBCHEM_IUPAC_SYSTEMATIC_NAME>
6-chloranyl-3-[1-[4-(1H-indol-3-yl)butyl]piperidin-4-yl]-1H-benzimidazol-2-one

> <PUBCHEM_IUPAC_TRADITIONAL_NAME>
6-chloro-3-[1-[4-(1H-indol-3-yl)butyl]-4-piperidyl]-1H-benzimidazol-2-one

> <PUBCHEM_IUPAC_INCHI>
InChI=1S/C24H27ClN4O/c25-18-8-9-23-22(15-18)27-24(30)29(23)19-10-13-28(14-11-19)12-4-3-5-17-16-26-21-7-2-1-6-20(17)21/h1-2,6-9,15-16,19,26H,3-5,10-14H2,(H,27,30)

> <PUBCHEM_IUPAC_INCHIKEY>
ADUYXHYSTCIMEO-UHFFFAOYSA-N

> <PUBCHEM_XLOGP3_AA>
4.8

> <PUBCHEM_EXACT_MASS>
422.1873392

> <PUBCHEM_MOLECULAR_FORMULA>
C24H27ClN4O

> <PUBCHEM_MOLECULAR_WEIGHT>
422.9

> <PUBCHEM_OPENEYE_CAN_SMILES>
C1CN(CCC1N2C3=C(C=C(C=C3)Cl)NC2=O)CCCCC4=CNC5=CC=CC=C54

> <PUBCHEM_OPENEYE_ISO_SMILES>
C1CN(CCC1N2C3=C(C=C(C=C3)Cl)NC2=O)CCCCC4=CNC5=CC=CC=C54

> <PUBCHEM_CACTVS_TPSA>
51.4

> <PUBCHEM_MONOISOTOPIC_WEIGHT>
422.1873392

> <PUBCHEM_TOTAL_CHARGE>
0

> <PUBCHEM_HEAVY_ATOM_COUNT>
30

> <PUBCHEM_ATOM_DEF_STEREO_COUNT>
0

> <PUBCHEM_ATOM_UDEF_STEREO_COUNT>
0

> <PUBCHEM_BOND_DEF_STEREO_COUNT>
0

> <PUBCHEM_BOND_UDEF_STEREO_COUNT>
0

> <PUBCHEM_ISOTOPIC_ATOM_COUNT>
0

> <PUBCHEM_COMPONENT_COUNT>
1

> <PUBCHEM_CACTVS_TAUTO_COUNT>
-1

> <PUBCHEM_COORDINATE_TYPE>
1
5
255

> <PUBCHEM_BONDANNOTATIONS>
14  17  8
14  19  8
17  21  8
19  22  8
20  23  8
20  25  8
21  24  8
22  24  8
23  26  8
23  27  8
26  28  8
27  29  8
28  30  8
29  30  8
4  14  8
4  15  8
5  15  8
5  17  8
6  25  8
6  26  8

$$$$
