155529141
  -OEChem-09292322082D

 52 54  0     0  0  0  0  0  0999 V2000
    9.0084    0.1953    0.0000 S   0  0  0  0  0  0  0  0  0  0  0  0
    2.0000   -4.0000    0.0000 O   0  0  0  0  0  0  0  0  0  0  0  0
    3.7320   -3.0000    0.0000 N   0  0  0  0  0  0  0  0  0  0  0  0
    7.1962    3.0000    0.0000 N   0  0  0  0  0  0  0  0  0  0  0  0
    6.3301    1.5000    0.0000 N   0  0  0  0  0  0  0  0  0  0  0  0
    7.1962    0.0000    0.0000 N   0  0  0  0  0  0  0  0  0  0  0  0
    4.5981   -2.5000    0.0000 C   0  0  0  0  0  0  0  0  0  0  0  0
    4.5981   -1.5000    0.0000 C   0  0  0  0  0  0  0  0  0  0  0  0
    3.7320   -4.0000    0.0000 C   0  0  0  0  0  0  0  0  0  0  0  0
    2.8660   -2.5000    0.0000 C   0  0  0  0  0  0  0  0  0  0  0  0
    5.4641   -1.0000    0.0000 C   0  0  0  0  0  0  0  0  0  0  0  0
    2.8660   -4.5000    0.0000 C   0  0  0  0  0  0  0  0  0  0  0  0
    2.0000   -3.0000    0.0000 C   0  0  0  0  0  0  0  0  0  0  0  0
    5.4641    0.0000    0.0000 C   0  0  0  0  0  0  0  0  0  0  0  0
    6.3301    0.5000    0.0000 C   0  0  0  0  0  0  0  0  0  0  0  0
    7.1962    2.0000    0.0000 C   0  0  0  0  0  0  0  0  0  0  0  0
    8.0622    1.5000    0.0000 C   0  0  0  0  0  0  0  0  0  0  0  0
    8.0622    0.5000    0.0000 C   0  0  0  0  0  0  0  0  0  0  0  0
    6.3301    3.5000    0.0000 C   0  0  0  0  0  0  0  0  0  0  0  0
    8.0622    3.5000    0.0000 C   0  0  0  0  0  0  0  0  0  0  0  0
    9.0084    1.8047    0.0000 C   0  0  0  0  0  0  0  0  0  0  0  0
    6.3301    4.5000    0.0000 C   0  0  0  0  0  0  0  0  0  0  0  0
    8.0622    4.5000    0.0000 C   0  0  0  0  0  0  0  0  0  0  0  0
    9.5920    1.0000    0.0000 C   0  0  0  0  0  0  0  0  0  0  0  0
    4.8101   -3.0826    0.0000 H   0  0  0  0  0  0  0  0  0  0  0  0
    5.2087   -2.3923    0.0000 H   0  0  0  0  0  0  0  0  0  0  0  0
    4.3860   -0.9174    0.0000 H   0  0  0  0  0  0  0  0  0  0  0  0
    3.9875   -1.6077    0.0000 H   0  0  0  0  0  0  0  0  0  0  0  0
    3.9441   -4.5826    0.0000 H   0  0  0  0  0  0  0  0  0  0  0  0
    4.3426   -3.8923    0.0000 H   0  0  0  0  0  0  0  0  0  0  0  0
    3.2646   -2.0250    0.0000 H   0  0  0  0  0  0  0  0  0  0  0  0
    2.4675   -2.0250    0.0000 H   0  0  0  0  0  0  0  0  0  0  0  0
    5.6762   -1.5826    0.0000 H   0  0  0  0  0  0  0  0  0  0  0  0
    6.0747   -0.8923    0.0000 H   0  0  0  0  0  0  0  0  0  0  0  0
    2.4675   -4.9750    0.0000 H   0  0  0  0  0  0  0  0  0  0  0  0
    3.2646   -4.9750    0.0000 H   0  0  0  0  0  0  0  0  0  0  0  0
    1.7880   -2.4174    0.0000 H   0  0  0  0  0  0  0  0  0  0  0  0
    1.3894   -3.1077    0.0000 H   0  0  0  0  0  0  0  0  0  0  0  0
    5.2520    0.5826    0.0000 H   0  0  0  0  0  0  0  0  0  0  0  0
    4.8535   -0.1077    0.0000 H   0  0  0  0  0  0  0  0  0  0  0  0
    5.7196    3.6077    0.0000 H   0  0  0  0  0  0  0  0  0  0  0  0
    6.1181    2.9174    0.0000 H   0  0  0  0  0  0  0  0  0  0  0  0
    8.2742    2.9174    0.0000 H   0  0  0  0  0  0  0  0  0  0  0  0
    8.6728    3.6077    0.0000 H   0  0  0  0  0  0  0  0  0  0  0  0
    9.2010    2.3940    0.0000 H   0  0  0  0  0  0  0  0  0  0  0  0
    6.9501    4.5000    0.0000 H   0  0  0  0  0  0  0  0  0  0  0  0
    6.3301    5.1200    0.0000 H   0  0  0  0  0  0  0  0  0  0  0  0
    5.7101    4.5000    0.0000 H   0  0  0  0  0  0  0  0  0  0  0  0
    8.6822    4.5000    0.0000 H   0  0  0  0  0  0  0  0  0  0  0  0
    8.0622    5.1200    0.0000 H   0  0  0  0  0  0  0  0  0  0  0  0
    7.4422    4.5000    0.0000 H   0  0  0  0  0  0  0  0  0  0  0  0
   10.2120    1.0000    0.0000 H   0  0  0  0  0  0  0  0  0  0  0  0
  1 18  1  0  0  0  0
  1 24  1  0  0  0  0
  2 12  1  0  0  0  0
  2 13  1  0  0  0  0
  3  7  1  0  0  0  0
  3  9  1  0  0  0  0
  3 10  1  0  0  0  0
  4 16  1  0  0  0  0
  4 19  1  0  0  0  0
  4 20  1  0  0  0  0
  5 15  2  0  0  0  0
  5 16  1  0  0  0  0
  6 15  1  0  0  0  0
  6 18  2  0  0  0  0
  7  8  1  0  0  0  0
  7 25  1  0  0  0  0
  7 26  1  0  0  0  0
  8 11  1  0  0  0  0
  8 27  1  0  0  0  0
  8 28  1  0  0  0  0
  9 12  1  0  0  0  0
  9 29  1  0  0  0  0
  9 30  1  0  0  0  0
 10 13  1  0  0  0  0
 10 31  1  0  0  0  0
 10 32  1  0  0  0  0
 11 14  1  0  0  0  0
 11 33  1  0  0  0  0
 11 34  1  0  0  0  0
 12 35  1  0  0  0  0
 12 36  1  0  0  0  0
 13 37  1  0  0  0  0
 13 38  1  0  0  0  0
 14 15  1  0  0  0  0
 14 39  1  0  0  0  0
 14 40  1  0  0  0  0
 16 17  2  0  0  0  0
 17 18  1  0  0  0  0
 17 21  1  0  0  0  0
 19 22  1  0  0  0  0
 19 41  1  0  0  0  0
 19 42  1  0  0  0  0
 20 23  1  0  0  0  0
 20 43  1  0  0  0  0
 20 44  1  0  0  0  0
 21 24  2  0  0  0  0
 21 45  1  0  0  0  0
 22 46  1  0  0  0  0
 22 47  1  0  0  0  0
 22 48  1  0  0  0  0
 23 49  1  0  0  0  0
 23 50  1  0  0  0  0
 23 51  1  0  0  0  0
 24 52  1  0  0  0  0
M  END
> <PUBCHEM_COMPOUND_CID>
155529141

> <PUBCHEM_COMPOUND_CANONICALIZED>
1

> <PUBCHEM_CACTVS_COMPLEXITY>
363

> <PUBCHEM_CACTVS_HBOND_ACCEPTOR>
6

> <PUBCHEM_CACTVS_HBOND_DONOR>
0

> <PUBCHEM_CACTVS_ROTATABLE_BOND>
8

> <PUBCHEM_CACTVS_SUBSKEYS>
AAADceB7oABAAAAAAAAAAAAAAAAAASAAAAAsWAAAAAAAAFgB+AAAHgQAAAAADADl2wazsdcIFAikAiJiZACD0KlhCLhJmDg4RJiKKIJgyMEHBAxIAALwQCAQAAAIAAAAAAAAAAAAAAAAAAAAAAAAAAAAAA==

> <PUBCHEM_IUPAC_OPENEYE_NAME>
N,N-diethyl-2-(4-morpholinobutyl)thieno[2,3-d]pyrimidin-4-amine

> <PUBCHEM_IUPAC_CAS_NAME>
N,N-diethyl-2-[4-(4-morpholinyl)butyl]-4-thieno[2,3-d]pyrimidinamine

> <PUBCHEM_IUPAC_NAME_MARKUP>
<I>N</I>,<I>N</I>-diethyl-2-(4-morpholin-4-ylbutyl)thieno[2,3-d]pyrimidin-4-amine

> <PUBCHEM_IUPAC_NAME>
N,N-diethyl-2-(4-morpholin-4-ylbutyl)thieno[2,3-d]pyrimidin-4-amine

> <PUBCHEM_IUPAC_SYSTEMATIC_NAME>
N,N-diethyl-2-(4-morpholin-4-ylbutyl)thieno[2,3-d]pyrimidin-4-amine

> <PUBCHEM_IUPAC_TRADITIONAL_NAME>
diethyl-[2-(4-morpholinobutyl)thieno[2,3-d]pyrimidin-4-yl]amine

> <PUBCHEM_IUPAC_INCHI>
InChI=1S/C18H28N4OS/c1-3-22(4-2)17-15-8-14-24-18(15)20-16(19-17)7-5-6-9-21-10-12-23-13-11-21/h8,14H,3-7,9-13H2,1-2H3

> <PUBCHEM_IUPAC_INCHIKEY>
HUZBOEOADAGCGJ-UHFFFAOYSA-N

> <PUBCHEM_XLOGP3_AA>
3.4

> <PUBCHEM_EXACT_MASS>
348.19838270

> <PUBCHEM_MOLECULAR_FORMULA>
C18H28N4OS

> <PUBCHEM_MOLECULAR_WEIGHT>
348.5

> <PUBCHEM_OPENEYE_CAN_SMILES>
CCN(CC)C1=C2C=CSC2=NC(=N1)CCCCN3CCOCC3

> <PUBCHEM_OPENEYE_ISO_SMILES>
CCN(CC)C1=C2C=CSC2=NC(=N1)CCCCN3CCOCC3

> <PUBCHEM_CACTVS_TPSA>
69.7

> <PUBCHEM_MONOISOTOPIC_WEIGHT>
348.19838270

> <PUBCHEM_TOTAL_CHARGE>
0

> <PUBCHEM_HEAVY_ATOM_COUNT>
24

> <PUBCHEM_ATOM_DEF_STEREO_COUNT>
0

> <PUBCHEM_ATOM_UDEF_STEREO_COUNT>
0

> <PUBCHEM_BOND_DEF_STEREO_COUNT>
0

> <PUBCHEM_BOND_UDEF_STEREO_COUNT>
0

> <PUBCHEM_ISOTOPIC_ATOM_COUNT>
0

> <PUBCHEM_COMPONENT_COUNT>
1

> <PUBCHEM_CACTVS_TAUTO_COUNT>
-1

> <PUBCHEM_COORDINATE_TYPE>
1
5
255

> <PUBCHEM_BONDANNOTATIONS>
1  18  8
1  24  8
16  17  8
17  18  8
17  21  8
21  24  8
5  15  8
5  16  8
6  15  8
6  18  8

$$$$
