72191065
  -OEChem-09292322342D

 62 65  0     0  0  0  0  0  0999 V2000
    2.8660   -5.3442    0.0000 O   0  0  0  0  0  0  0  0  0  0  0  0
    9.1813    6.4307    0.0000 O   0  0  0  0  0  0  0  0  0  0  0  0
    4.5981   -2.3442    0.0000 N   0  0  0  0  0  0  0  0  0  0  0  0
    4.5981   -4.3442    0.0000 N   0  0  0  0  0  0  0  0  0  0  0  0
    6.3301    1.6558    0.0000 N   0  0  0  0  0  0  0  0  0  0  0  0
    5.5211    2.2436    0.0000 N   0  0  0  0  0  0  0  0  0  0  0  0
    5.8301    3.1946    0.0000 N   0  0  0  0  0  0  0  0  0  0  0  0
    3.7320   -2.8442    0.0000 C   0  0  0  0  0  0  0  0  0  0  0  0
    5.4641   -2.8442    0.0000 C   0  0  0  0  0  0  0  0  0  0  0  0
    3.7320   -3.8442    0.0000 C   0  0  0  0  0  0  0  0  0  0  0  0
    5.4641   -3.8442    0.0000 C   0  0  0  0  0  0  0  0  0  0  0  0
    4.5981   -1.3442    0.0000 C   0  0  0  0  0  0  0  0  0  0  0  0
    5.4641   -0.8442    0.0000 C   0  0  0  0  0  0  0  0  0  0  0  0
    5.4641    0.1558    0.0000 C   0  0  0  0  0  0  0  0  0  0  0  0
    4.5981   -5.3442    0.0000 C   0  0  0  0  0  0  0  0  0  0  0  0
    6.3301    0.6558    0.0000 C   0  0  0  0  0  0  0  0  0  0  0  0
    3.7320   -5.8442    0.0000 C   0  0  0  0  0  0  0  0  0  0  0  0
    5.4641   -5.8442    0.0000 C   0  0  0  0  0  0  0  0  0  0  0  0
    3.7320   -6.8442    0.0000 C   0  0  0  0  0  0  0  0  0  0  0  0
    5.4641   -6.8442    0.0000 C   0  0  0  0  0  0  0  0  0  0  0  0
    4.5981   -7.3442    0.0000 C   0  0  0  0  0  0  0  0  0  0  0  0
    7.1391    2.2436    0.0000 C   0  0  0  0  0  0  0  0  0  0  0  0
    6.8301    3.1946    0.0000 C   0  0  0  0  0  0  0  0  0  0  0  0
    2.0000   -5.8442    0.0000 C   0  0  0  0  0  0  0  0  0  0  0  0
    7.4179    4.0036    0.0000 C   0  0  0  0  0  0  0  0  0  0  0  0
    8.4124    3.8991    0.0000 C   0  0  0  0  0  0  0  0  0  0  0  0
    7.0112    4.9172    0.0000 C   0  0  0  0  0  0  0  0  0  0  0  0
    9.0002    4.7081    0.0000 C   0  0  0  0  0  0  0  0  0  0  0  0
    7.5990    5.7262    0.0000 C   0  0  0  0  0  0  0  0  0  0  0  0
    8.5935    5.6217    0.0000 C   0  0  0  0  0  0  0  0  0  0  0  0
    8.7745    7.3442    0.0000 C   0  0  0  0  0  0  0  0  0  0  0  0
    3.5200   -2.2616    0.0000 H   0  0  0  0  0  0  0  0  0  0  0  0
    3.1215   -2.9519    0.0000 H   0  0  0  0  0  0  0  0  0  0  0  0
    6.0747   -2.9519    0.0000 H   0  0  0  0  0  0  0  0  0  0  0  0
    5.6762   -2.2616    0.0000 H   0  0  0  0  0  0  0  0  0  0  0  0
    3.1215   -3.7366    0.0000 H   0  0  0  0  0  0  0  0  0  0  0  0
    3.5200   -4.4268    0.0000 H   0  0  0  0  0  0  0  0  0  0  0  0
    5.6762   -4.4268    0.0000 H   0  0  0  0  0  0  0  0  0  0  0  0
    6.0747   -3.7366    0.0000 H   0  0  0  0  0  0  0  0  0  0  0  0
    4.3860   -0.7616    0.0000 H   0  0  0  0  0  0  0  0  0  0  0  0
    3.9875   -1.4519    0.0000 H   0  0  0  0  0  0  0  0  0  0  0  0
    5.6762   -1.4268    0.0000 H   0  0  0  0  0  0  0  0  0  0  0  0
    6.0747   -0.7366    0.0000 H   0  0  0  0  0  0  0  0  0  0  0  0
    5.2520    0.7384    0.0000 H   0  0  0  0  0  0  0  0  0  0  0  0
    4.8535    0.0481    0.0000 H   0  0  0  0  0  0  0  0  0  0  0  0
    6.5422    0.0732    0.0000 H   0  0  0  0  0  0  0  0  0  0  0  0
    6.9407    0.7634    0.0000 H   0  0  0  0  0  0  0  0  0  0  0  0
    6.0010   -5.5342    0.0000 H   0  0  0  0  0  0  0  0  0  0  0  0
    3.1951   -7.1542    0.0000 H   0  0  0  0  0  0  0  0  0  0  0  0
    6.0010   -7.1542    0.0000 H   0  0  0  0  0  0  0  0  0  0  0  0
    4.5981   -7.9642    0.0000 H   0  0  0  0  0  0  0  0  0  0  0  0
    7.7288    2.0520    0.0000 H   0  0  0  0  0  0  0  0  0  0  0  0
    1.6900   -5.3073    0.0000 H   0  0  0  0  0  0  0  0  0  0  0  0
    1.4631   -6.1542    0.0000 H   0  0  0  0  0  0  0  0  0  0  0  0
    2.3100   -6.3812    0.0000 H   0  0  0  0  0  0  0  0  0  0  0  0
    8.6646    3.3327    0.0000 H   0  0  0  0  0  0  0  0  0  0  0  0
    6.3946    4.9820    0.0000 H   0  0  0  0  0  0  0  0  0  0  0  0
    9.6168    4.6433    0.0000 H   0  0  0  0  0  0  0  0  0  0  0  0
    7.3468    6.2926    0.0000 H   0  0  0  0  0  0  0  0  0  0  0  0
    9.3409    7.5964    0.0000 H   0  0  0  0  0  0  0  0  0  0  0  0
    8.5224    7.9106    0.0000 H   0  0  0  0  0  0  0  0  0  0  0  0
    8.2081    7.0920    0.0000 H   0  0  0  0  0  0  0  0  0  0  0  0
  1 17  1  0  0  0  0
  1 24  1  0  0  0  0
  2 30  1  0  0  0  0
  2 31  1  0  0  0  0
  3  8  1  0  0  0  0
  3  9  1  0  0  0  0
  3 12  1  0  0  0  0
  4 10  1  0  0  0  0
  4 11  1  0  0  0  0
  4 15  1  0  0  0  0
  5  6  1  0  0  0  0
  5 16  1  0  0  0  0
  5 22  1  0  0  0  0
  6  7  2  0  0  0  0
  7 23  1  0  0  0  0
  8 10  1  0  0  0  0
  8 32  1  0  0  0  0
  8 33  1  0  0  0  0
  9 11  1  0  0  0  0
  9 34  1  0  0  0  0
  9 35  1  0  0  0  0
 10 36  1  0  0  0  0
 10 37  1  0  0  0  0
 11 38  1  0  0  0  0
 11 39  1  0  0  0  0
 12 13  1  0  0  0  0
 12 40  1  0  0  0  0
 12 41  1  0  0  0  0
 13 14  1  0  0  0  0
 13 42  1  0  0  0  0
 13 43  1  0  0  0  0
 14 16  1  0  0  0  0
 14 44  1  0  0  0  0
 14 45  1  0  0  0  0
 15 17  1  0  0  0  0
 15 18  2  0  0  0  0
 16 46  1  0  0  0  0
 16 47  1  0  0  0  0
 17 19  2  0  0  0  0
 18 20  1  0  0  0  0
 18 48  1  0  0  0  0
 19 21  1  0  0  0  0
 19 49  1  0  0  0  0
 20 21  2  0  0  0  0
 20 50  1  0  0  0  0
 21 51  1  0  0  0  0
 22 23  2  0  0  0  0
 22 52  1  0  0  0  0
 23 25  1  0  0  0  0
 24 53  1  0  0  0  0
 24 54  1  0  0  0  0
 24 55  1  0  0  0  0
 25 26  2  0  0  0  0
 25 27  1  0  0  0  0
 26 28  1  0  0  0  0
 26 56  1  0  0  0  0
 27 29  2  0  0  0  0
 27 57  1  0  0  0  0
 28 30  2  0  0  0  0
 28 58  1  0  0  0  0
 29 30  1  0  0  0  0
 29 59  1  0  0  0  0
 31 60  1  0  0  0  0
 31 61  1  0  0  0  0
 31 62  1  0  0  0  0
M  END
> <PUBCHEM_COMPOUND_CID>
72191065

> <PUBCHEM_COMPOUND_CANONICALIZED>
1

> <PUBCHEM_CACTVS_COMPLEXITY>
508

> <PUBCHEM_CACTVS_HBOND_ACCEPTOR>
6

> <PUBCHEM_CACTVS_HBOND_DONOR>
0

> <PUBCHEM_CACTVS_ROTATABLE_BOND>
9

> <PUBCHEM_CACTVS_SUBSKEYS>
AAADceB7sAAAAAAAAAAAAAAAAAAAAWAAAAA8YIAAAAAAAAAB0AAAHgAIAAAADAzBngY+xpMIBACiAzRnRACCDAQxsgAY2CA/fJgOZqLEsZuVMChkwBHY6AeQ0IEOIAAAAAAAEABAAAAAAAAgAAAAAAAAAA==

> <PUBCHEM_IUPAC_OPENEYE_NAME>
1-(2-methoxyphenyl)-4-[4-[4-(4-methoxyphenyl)triazol-1-yl]butyl]piperazine

> <PUBCHEM_IUPAC_CAS_NAME>
1-(2-methoxyphenyl)-4-[4-[4-(4-methoxyphenyl)-1-triazolyl]butyl]piperazine

> <PUBCHEM_IUPAC_NAME_MARKUP>
1-(2-methoxyphenyl)-4-[4-[4-(4-methoxyphenyl)triazol-1-yl]butyl]piperazine

> <PUBCHEM_IUPAC_NAME>
1-(2-methoxyphenyl)-4-[4-[4-(4-methoxyphenyl)triazol-1-yl]butyl]piperazine

> <PUBCHEM_IUPAC_SYSTEMATIC_NAME>
1-(2-methoxyphenyl)-4-[4-[4-(4-methoxyphenyl)-1,2,3-triazol-1-yl]butyl]piperazine

> <PUBCHEM_IUPAC_TRADITIONAL_NAME>
1-(2-methoxyphenyl)-4-[4-[4-(4-methoxyphenyl)triazol-1-yl]butyl]piperazine

> <PUBCHEM_IUPAC_INCHI>
InChI=1S/C24H31N5O2/c1-30-21-11-9-20(10-12-21)22-19-29(26-25-22)14-6-5-13-27-15-17-28(18-16-27)23-7-3-4-8-24(23)31-2/h3-4,7-12,19H,5-6,13-18H2,1-2H3

> <PUBCHEM_IUPAC_INCHIKEY>
HJOOPOPFMHOXPP-UHFFFAOYSA-N

> <PUBCHEM_XLOGP3_AA>
3.6

> <PUBCHEM_EXACT_MASS>
421.24777525

> <PUBCHEM_MOLECULAR_FORMULA>
C24H31N5O2

> <PUBCHEM_MOLECULAR_WEIGHT>
421.5

> <PUBCHEM_OPENEYE_CAN_SMILES>
COC1=CC=C(C=C1)C2=CN(N=N2)CCCCN3CCN(CC3)C4=CC=CC=C4OC

> <PUBCHEM_OPENEYE_ISO_SMILES>
COC1=CC=C(C=C1)C2=CN(N=N2)CCCCN3CCN(CC3)C4=CC=CC=C4OC

> <PUBCHEM_CACTVS_TPSA>
55.6

> <PUBCHEM_MONOISOTOPIC_WEIGHT>
421.24777525

> <PUBCHEM_TOTAL_CHARGE>
0

> <PUBCHEM_HEAVY_ATOM_COUNT>
31

> <PUBCHEM_ATOM_DEF_STEREO_COUNT>
0

> <PUBCHEM_ATOM_UDEF_STEREO_COUNT>
0

> <PUBCHEM_BOND_DEF_STEREO_COUNT>
0

> <PUBCHEM_BOND_UDEF_STEREO_COUNT>
0

> <PUBCHEM_ISOTOPIC_ATOM_COUNT>
0

> <PUBCHEM_COMPONENT_COUNT>
1

> <PUBCHEM_CACTVS_TAUTO_COUNT>
-1

> <PUBCHEM_COORDINATE_TYPE>
1
5
255

> <PUBCHEM_BONDANNOTATIONS>
15  17  8
15  18  8
17  19  8
18  20  8
19  21  8
20  21  8
22  23  8
25  26  8
25  27  8
26  28  8
27  29  8
28  30  8
29  30  8
5  22  8
5  6  8
6  7  8
7  23  8

$$$$
