51003586
  -OEChem-09292322072D

 62 66  0     1  0  0  0  0  0999 V2000
    4.6660   -1.2326    0.0000 S   0  0  0  0  0  0  0  0  0  0  0  0
    4.6660    2.7674    0.0000 O   0  0  0  0  0  0  0  0  0  0  0  0
    5.6660   -1.2326    0.0000 O   0  0  0  0  0  0  0  0  0  0  0  0
    3.6660   -1.2326    0.0000 O   0  0  0  0  0  0  0  0  0  0  0  0
    4.6660   -0.2326    0.0000 N   0  0  3  0  0  0  0  0  0  0  0  0
    2.9176    2.8020    0.0000 N   0  0  0  0  0  0  0  0  0  0  0  0
    2.9408    4.8019    0.0000 N   0  0  0  0  0  0  0  0  0  0  0  0
    5.5321    0.2674    0.0000 C   0  0  3  0  0  0  0  0  0  0  0  0
    5.5321    1.2674    0.0000 C   0  0  0  0  0  0  0  0  0  0  0  0
    3.8000    1.2674    0.0000 C   0  0  0  0  0  0  0  0  0  0  0  0
    3.8000    0.2674    0.0000 C   0  0  0  0  0  0  0  0  0  0  0  0
    2.9061    1.8021    0.0000 C   0  0  0  0  0  0  0  0  0  0  0  0
    6.3981   -0.2326    0.0000 C   0  0  0  0  0  0  0  0  0  0  0  0
    4.6660    1.7674    0.0000 C   0  0  0  0  0  0  0  0  0  0  0  0
    2.0574    3.3120    0.0000 C   0  0  0  0  0  0  0  0  0  0  0  0
    3.7894    3.2920    0.0000 C   0  0  0  0  0  0  0  0  0  0  0  0
    2.0690    4.3119    0.0000 C   0  0  0  0  0  0  0  0  0  0  0  0
    3.8009    4.2919    0.0000 C   0  0  0  0  0  0  0  0  0  0  0  0
    2.9061   -0.2672    0.0000 C   0  0  0  0  0  0  0  0  0  0  0  0
    2.0000    1.2882    0.0000 C   0  0  0  0  0  0  0  0  0  0  0  0
    4.6660   -2.2326    0.0000 C   0  0  0  0  0  0  0  0  0  0  0  0
    7.2641    0.2674    0.0000 C   0  0  0  0  0  0  0  0  0  0  0  0
    2.0000    0.2466    0.0000 C   0  0  0  0  0  0  0  0  0  0  0  0
    2.9523    5.8018    0.0000 C   0  0  0  0  0  0  0  0  0  0  0  0
    5.5321   -2.7326    0.0000 C   0  0  0  0  0  0  0  0  0  0  0  0
    3.8000   -2.7326    0.0000 C   0  0  0  0  0  0  0  0  0  0  0  0
    5.5321   -3.7326    0.0000 C   0  0  0  0  0  0  0  0  0  0  0  0
    4.6660   -4.2326    0.0000 C   0  0  0  0  0  0  0  0  0  0  0  0
    3.8000   -3.7326    0.0000 C   0  0  0  0  0  0  0  0  0  0  0  0
    6.4421   -4.2394    0.0000 C   0  0  0  0  0  0  0  0  0  0  0  0
    4.6500   -5.2741    0.0000 C   0  0  0  0  0  0  0  0  0  0  0  0
    6.4501   -5.2810    0.0000 C   0  0  0  0  0  0  0  0  0  0  0  0
    5.5480   -5.8018    0.0000 C   0  0  0  0  0  0  0  0  0  0  0  0
    5.5321   -0.3526    0.0000 H   0  0  0  0  0  0  0  0  0  0  0  0
    6.1426    1.1598    0.0000 H   0  0  0  0  0  0  0  0  0  0  0  0
    5.7441    1.8500    0.0000 H   0  0  0  0  0  0  0  0  0  0  0  0
    5.9996   -0.7075    0.0000 H   0  0  0  0  0  0  0  0  0  0  0  0
    6.7966   -0.7075    0.0000 H   0  0  0  0  0  0  0  0  0  0  0  0
    1.4482    3.4267    0.0000 H   0  0  0  0  0  0  0  0  0  0  0  0
    1.8387    2.7319    0.0000 H   0  0  0  0  0  0  0  0  0  0  0  0
    3.9947    2.7070    0.0000 H   0  0  0  0  0  0  0  0  0  0  0  0
    4.4012    3.3926    0.0000 H   0  0  0  0  0  0  0  0  0  0  0  0
    1.8637    4.8970    0.0000 H   0  0  0  0  0  0  0  0  0  0  0  0
    1.4572    4.2114    0.0000 H   0  0  0  0  0  0  0  0  0  0  0  0
    4.4102    4.1772    0.0000 H   0  0  0  0  0  0  0  0  0  0  0  0
    4.0197    4.8720    0.0000 H   0  0  0  0  0  0  0  0  0  0  0  0
    2.9132   -0.8872    0.0000 H   0  0  0  0  0  0  0  0  0  0  0  0
    1.4643    1.6003    0.0000 H   0  0  0  0  0  0  0  0  0  0  0  0
    7.5741   -0.2695    0.0000 H   0  0  0  0  0  0  0  0  0  0  0  0
    7.8010    0.5774    0.0000 H   0  0  0  0  0  0  0  0  0  0  0  0
    6.9541    0.8044    0.0000 H   0  0  0  0  0  0  0  0  0  0  0  0
    1.4643   -0.0654    0.0000 H   0  0  0  0  0  0  0  0  0  0  0  0
    3.5723    5.7947    0.0000 H   0  0  0  0  0  0  0  0  0  0  0  0
    2.9595    6.4218    0.0000 H   0  0  0  0  0  0  0  0  0  0  0  0
    2.3324    5.8090    0.0000 H   0  0  0  0  0  0  0  0  0  0  0  0
    6.0690   -2.4226    0.0000 H   0  0  0  0  0  0  0  0  0  0  0  0
    3.2631   -2.4226    0.0000 H   0  0  0  0  0  0  0  0  0  0  0  0
    3.2631   -4.0426    0.0000 H   0  0  0  0  0  0  0  0  0  0  0  0
    6.9754   -3.9232    0.0000 H   0  0  0  0  0  0  0  0  0  0  0  0
    4.1095   -5.5778    0.0000 H   0  0  0  0  0  0  0  0  0  0  0  0
    6.9882   -5.5889    0.0000 H   0  0  0  0  0  0  0  0  0  0  0  0
    5.5456   -6.4218    0.0000 H   0  0  0  0  0  0  0  0  0  0  0  0
  1  3  2  0  0  0  0
  1  4  2  0  0  0  0
  1  5  1  0  0  0  0
  1 21  1  0  0  0  0
  2 14  2  0  0  0  0
  5  8  1  0  0  0  0
  5 11  1  0  0  0  0
  6 12  1  0  0  0  0
  6 15  1  0  0  0  0
  6 16  1  0  0  0  0
  7 17  1  0  0  0  0
  7 18  1  0  0  0  0
  7 24  1  0  0  0  0
  8  9  1  0  0  0  0
  8 13  1  0  0  0  0
  8 34  1  0  0  0  0
  9 14  1  0  0  0  0
  9 35  1  0  0  0  0
  9 36  1  0  0  0  0
 10 11  1  0  0  0  0
 10 12  2  0  0  0  0
 10 14  1  0  0  0  0
 11 19  2  0  0  0  0
 12 20  1  0  0  0  0
 13 22  1  0  0  0  0
 13 37  1  0  0  0  0
 13 38  1  0  0  0  0
 15 17  1  0  0  0  0
 15 39  1  0  0  0  0
 15 40  1  0  0  0  0
 16 18  1  0  0  0  0
 16 41  1  0  0  0  0
 16 42  1  0  0  0  0
 17 43  1  0  0  0  0
 17 44  1  0  0  0  0
 18 45  1  0  0  0  0
 18 46  1  0  0  0  0
 19 23  1  0  0  0  0
 19 47  1  0  0  0  0
 20 23  2  0  0  0  0
 20 48  1  0  0  0  0
 21 25  2  0  0  0  0
 21 26  1  0  0  0  0
 22 49  1  0  0  0  0
 22 50  1  0  0  0  0
 22 51  1  0  0  0  0
 23 52  1  0  0  0  0
 24 53  1  0  0  0  0
 24 54  1  0  0  0  0
 24 55  1  0  0  0  0
 25 27  1  0  0  0  0
 25 56  1  0  0  0  0
 26 29  2  0  0  0  0
 26 57  1  0  0  0  0
 27 28  1  0  0  0  0
 27 30  2  0  0  0  0
 28 29  1  0  0  0  0
 28 31  2  0  0  0  0
 29 58  1  0  0  0  0
 30 32  1  0  0  0  0
 30 59  1  0  0  0  0
 31 33  1  0  0  0  0
 31 60  1  0  0  0  0
 32 33  2  0  0  0  0
 32 61  1  0  0  0  0
 33 62  1  0  0  0  0
M  END
> <PUBCHEM_COMPOUND_CID>
51003586

> <PUBCHEM_COMPOUND_CANONICALIZED>
1

> <PUBCHEM_CACTVS_COMPLEXITY>
804

> <PUBCHEM_CACTVS_HBOND_ACCEPTOR>
6

> <PUBCHEM_CACTVS_HBOND_DONOR>
0

> <PUBCHEM_CACTVS_ROTATABLE_BOND>
4

> <PUBCHEM_CACTVS_SUBSKEYS>
AAADceB7MABAAAAAAAAAAAAAAAAAAAAAAAA8eMECAAAAAADxVAAAHgQAQAAADCzB2AQywcMAAAKIAqRSQHDCABAlAgAIiBkIZMgIYDrA1dGUIYhggADIyUcYiMCOkAAAgAQSAAAgAAEACCQAAAAAAAAAAA==

> <PUBCHEM_IUPAC_OPENEYE_NAME>
2-ethyl-5-(4-methylpiperazin-1-yl)-1-(2-naphthylsulfonyl)-2,3-dihydroquinolin-4-one

> <PUBCHEM_IUPAC_CAS_NAME>
2-ethyl-5-(4-methyl-1-piperazinyl)-1-(2-naphthalenylsulfonyl)-2,3-dihydroquinolin-4-one

> <PUBCHEM_IUPAC_NAME_MARKUP>
2-ethyl-5-(4-methylpiperazin-1-yl)-1-naphthalen-2-ylsulfonyl-2,3-dihydroquinolin-4-one

> <PUBCHEM_IUPAC_NAME>
2-ethyl-5-(4-methylpiperazin-1-yl)-1-naphthalen-2-ylsulfonyl-2,3-dihydroquinolin-4-one

> <PUBCHEM_IUPAC_SYSTEMATIC_NAME>
2-ethyl-5-(4-methylpiperazin-1-yl)-1-naphthalen-2-ylsulfonyl-2,3-dihydroquinolin-4-one

> <PUBCHEM_IUPAC_TRADITIONAL_NAME>
2-ethyl-5-(4-methylpiperazino)-1-(2-naphthylsulfonyl)-2,3-dihydroquinolin-4-one

> <PUBCHEM_IUPAC_INCHI>
InChI=1S/C26H29N3O3S/c1-3-21-18-25(30)26-23(28-15-13-27(2)14-16-28)9-6-10-24(26)29(21)33(31,32)22-12-11-19-7-4-5-8-20(19)17-22/h4-12,17,21H,3,13-16,18H2,1-2H3

> <PUBCHEM_IUPAC_INCHIKEY>
PXEURUZEVKVPGJ-UHFFFAOYSA-N

> <PUBCHEM_XLOGP3_AA>
4.3

> <PUBCHEM_EXACT_MASS>
463.19296297

> <PUBCHEM_MOLECULAR_FORMULA>
C26H29N3O3S

> <PUBCHEM_MOLECULAR_WEIGHT>
463.6

> <PUBCHEM_OPENEYE_CAN_SMILES>
CCC1CC(=O)C2=C(C=CC=C2N1S(=O)(=O)C3=CC4=CC=CC=C4C=C3)N5CCN(CC5)C

> <PUBCHEM_OPENEYE_ISO_SMILES>
CCC1CC(=O)C2=C(C=CC=C2N1S(=O)(=O)C3=CC4=CC=CC=C4C=C3)N5CCN(CC5)C

> <PUBCHEM_CACTVS_TPSA>
69.3

> <PUBCHEM_MONOISOTOPIC_WEIGHT>
463.19296297

> <PUBCHEM_TOTAL_CHARGE>
0

> <PUBCHEM_HEAVY_ATOM_COUNT>
33

> <PUBCHEM_ATOM_DEF_STEREO_COUNT>
0

> <PUBCHEM_ATOM_UDEF_STEREO_COUNT>
1

> <PUBCHEM_BOND_DEF_STEREO_COUNT>
0

> <PUBCHEM_BOND_UDEF_STEREO_COUNT>
0

> <PUBCHEM_ISOTOPIC_ATOM_COUNT>
0

> <PUBCHEM_COMPONENT_COUNT>
1

> <PUBCHEM_CACTVS_TAUTO_COUNT>
-1

> <PUBCHEM_COORDINATE_TYPE>
1
5
255

> <PUBCHEM_BONDANNOTATIONS>
10  11  8
10  12  8
11  19  8
12  20  8
19  23  8
20  23  8
21  25  8
21  26  8
25  27  8
26  29  8
27  28  8
27  30  8
28  29  8
28  31  8
30  32  8
31  33  8
32  33  8
8  13  3

$$$$
