121304654
  -OEChem-09292322372D

 66 70  0     1  0  0  0  0  0999 V2000
    4.4908    0.6241    0.0000 S   0  0  0  0  0  0  0  0  0  0  0  0
   10.1830   -7.7259    0.0000 F   0  0  0  0  0  0  0  0  0  0  0  0
    8.8170   -8.0919    0.0000 F   0  0  0  0  0  0  0  0  0  0  0  0
    9.8170   -6.3599    0.0000 F   0  0  0  0  0  0  0  0  0  0  0  0
    4.2690    7.4719    0.0000 O   0  0  0  0  0  0  0  0  0  0  0  0
    4.8528   -2.8210    0.0000 N   0  0  3  0  0  0  0  0  0  0  0  0
    4.2120    2.3842    0.0000 N   0  0  0  0  0  0  0  0  0  0  0  0
    2.9030    1.4331    0.0000 N   0  0  0  0  0  0  0  0  0  0  0  0
    2.5939    2.3842    0.0000 N   0  0  0  0  0  0  0  0  0  0  0  0
    4.2690    5.4719    0.0000 N   0  0  0  0  0  0  0  0  0  0  0  0
    2.5369    7.4719    0.0000 N   0  0  0  0  0  0  0  0  0  0  0  0
    5.3528   -4.3599    0.0000 C   0  0  2  0  0  0  0  0  0  0  0  0
    5.8528   -5.2259    0.0000 C   0  0  2  0  0  0  0  0  0  0  0  0
    4.8528   -5.2259    0.0000 C   0  0  0  0  0  0  0  0  0  0  0  0
    6.1619   -3.7721    0.0000 C   0  0  0  0  0  0  0  0  0  0  0  0
    4.5438   -3.7721    0.0000 C   0  0  0  0  0  0  0  0  0  0  0  0
    5.8528   -2.8210    0.0000 C   0  0  0  0  0  0  0  0  0  0  0  0
    6.7189   -5.7259    0.0000 C   0  0  0  0  0  0  0  0  0  0  0  0
    4.2651   -2.0120    0.0000 C   0  0  0  0  0  0  0  0  0  0  0  0
    7.5849   -5.2259    0.0000 C   0  0  0  0  0  0  0  0  0  0  0  0
    6.7189   -6.7259    0.0000 C   0  0  0  0  0  0  0  0  0  0  0  0
    4.6718   -1.0985    0.0000 C   0  0  0  0  0  0  0  0  0  0  0  0
    8.4509   -5.7259    0.0000 C   0  0  0  0  0  0  0  0  0  0  0  0
    7.5849   -7.2259    0.0000 C   0  0  0  0  0  0  0  0  0  0  0  0
    8.4509   -6.7259    0.0000 C   0  0  0  0  0  0  0  0  0  0  0  0
    4.0840   -0.2895    0.0000 C   0  0  0  0  0  0  0  0  0  0  0  0
    9.3170   -7.2259    0.0000 C   0  0  0  0  0  0  0  0  0  0  0  0
    3.9030    1.4331    0.0000 C   0  0  0  0  0  0  0  0  0  0  0  0
    3.4030    2.9719    0.0000 C   0  0  0  0  0  0  0  0  0  0  0  0
    5.1630    2.6932    0.0000 C   0  0  0  0  0  0  0  0  0  0  0  0
    3.4030    3.9719    0.0000 C   0  0  0  0  0  0  0  0  0  0  0  0
    4.2690    4.4719    0.0000 C   0  0  0  0  0  0  0  0  0  0  0  0
    2.5369    4.4719    0.0000 C   0  0  0  0  0  0  0  0  0  0  0  0
    2.5369    5.4719    0.0000 C   0  0  0  0  0  0  0  0  0  0  0  0
    5.1350    3.9719    0.0000 C   0  0  0  0  0  0  0  0  0  0  0  0
    3.4030    5.9719    0.0000 C   0  0  0  0  0  0  0  0  0  0  0  0
    3.4030    6.9719    0.0000 C   0  0  0  0  0  0  0  0  0  0  0  0
    5.6924   -5.8248    0.0000 H   0  0  0  0  0  0  0  0  0  0  0  0
    4.2702   -5.0139    0.0000 H   0  0  0  0  0  0  0  0  0  0  0  0
    4.7452   -5.8365    0.0000 H   0  0  0  0  0  0  0  0  0  0  0  0
    6.4719   -4.3090    0.0000 H   0  0  0  0  0  0  0  0  0  0  0  0
    6.7283   -3.5199    0.0000 H   0  0  0  0  0  0  0  0  0  0  0  0
    3.9774   -3.5199    0.0000 H   0  0  0  0  0  0  0  0  0  0  0  0
    4.2338   -4.3090    0.0000 H   0  0  0  0  0  0  0  0  0  0  0  0
    6.4593   -2.6921    0.0000 H   0  0  0  0  0  0  0  0  0  0  0  0
    5.7880   -2.2044    0.0000 H   0  0  0  0  0  0  0  0  0  0  0  0
    3.7511   -1.6653    0.0000 H   0  0  0  0  0  0  0  0  0  0  0  0
    3.8344   -2.4580    0.0000 H   0  0  0  0  0  0  0  0  0  0  0  0
    7.5849   -4.6059    0.0000 H   0  0  0  0  0  0  0  0  0  0  0  0
    6.1819   -7.0359    0.0000 H   0  0  0  0  0  0  0  0  0  0  0  0
    5.1858   -1.4452    0.0000 H   0  0  0  0  0  0  0  0  0  0  0  0
    5.1025   -0.6525    0.0000 H   0  0  0  0  0  0  0  0  0  0  0  0
    8.9879   -5.4159    0.0000 H   0  0  0  0  0  0  0  0  0  0  0  0
    7.5849   -7.8459    0.0000 H   0  0  0  0  0  0  0  0  0  0  0  0
    3.5700    0.0572    0.0000 H   0  0  0  0  0  0  0  0  0  0  0  0
    3.6533   -0.7355    0.0000 H   0  0  0  0  0  0  0  0  0  0  0  0
    5.3546    2.1035    0.0000 H   0  0  0  0  0  0  0  0  0  0  0  0
    5.7527    2.8848    0.0000 H   0  0  0  0  0  0  0  0  0  0  0  0
    4.9714    3.2828    0.0000 H   0  0  0  0  0  0  0  0  0  0  0  0
    2.0000    4.1619    0.0000 H   0  0  0  0  0  0  0  0  0  0  0  0
    2.0000    5.7819    0.0000 H   0  0  0  0  0  0  0  0  0  0  0  0
    4.8250    3.4350    0.0000 H   0  0  0  0  0  0  0  0  0  0  0  0
    5.6720    3.6619    0.0000 H   0  0  0  0  0  0  0  0  0  0  0  0
    5.4450    4.5089    0.0000 H   0  0  0  0  0  0  0  0  0  0  0  0
    2.5369    8.0919    0.0000 H   0  0  0  0  0  0  0  0  0  0  0  0
    2.0000    7.1619    0.0000 H   0  0  0  0  0  0  0  0  0  0  0  0
  1 26  1  0  0  0  0
  1 28  1  0  0  0  0
  2 27  1  0  0  0  0
  3 27  1  0  0  0  0
  4 27  1  0  0  0  0
  5 37  2  0  0  0  0
  6 16  1  0  0  0  0
  6 17  1  0  0  0  0
  6 19  1  0  0  0  0
  7 28  1  0  0  0  0
  7 29  1  0  0  0  0
  7 30  1  0  0  0  0
  8  9  1  0  0  0  0
  8 28  2  0  0  0  0
  9 29  2  0  0  0  0
 10 32  1  0  0  0  0
 10 36  2  0  0  0  0
 11 37  1  0  0  0  0
 11 65  1  0  0  0  0
 11 66  1  0  0  0  0
 12 13  1  0  0  0  0
 12 14  1  6  0  0  0
 12 15  1  0  0  0  0
 12 16  1  0  0  0  0
 13 14  1  0  0  0  0
 13 18  1  1  0  0  0
 13 38  1  0  0  0  0
 14 39  1  0  0  0  0
 14 40  1  0  0  0  0
 15 17  1  0  0  0  0
 15 41  1  0  0  0  0
 15 42  1  0  0  0  0
 16 43  1  0  0  0  0
 16 44  1  0  0  0  0
 17 45  1  0  0  0  0
 17 46  1  0  0  0  0
 18 20  2  0  0  0  0
 18 21  1  0  0  0  0
 19 22  1  0  0  0  0
 19 47  1  0  0  0  0
 19 48  1  0  0  0  0
 20 23  1  0  0  0  0
 20 49  1  0  0  0  0
 21 24  2  0  0  0  0
 21 50  1  0  0  0  0
 22 26  1  0  0  0  0
 22 51  1  0  0  0  0
 22 52  1  0  0  0  0
 23 25  2  0  0  0  0
 23 53  1  0  0  0  0
 24 25  1  0  0  0  0
 24 54  1  0  0  0  0
 25 27  1  0  0  0  0
 26 55  1  0  0  0  0
 26 56  1  0  0  0  0
 29 31  1  0  0  0  0
 30 57  1  0  0  0  0
 30 58  1  0  0  0  0
 30 59  1  0  0  0  0
 31 32  2  0  0  0  0
 31 33  1  0  0  0  0
 32 35  1  0  0  0  0
 33 34  2  0  0  0  0
 33 60  1  0  0  0  0
 34 36  1  0  0  0  0
 34 61  1  0  0  0  0
 35 62  1  0  0  0  0
 35 63  1  0  0  0  0
 35 64  1  0  0  0  0
 36 37  1  0  0  0  0
M  END
> <PUBCHEM_COMPOUND_CID>
121304654

> <PUBCHEM_COMPOUND_CANONICALIZED>
1

> <PUBCHEM_CACTVS_COMPLEXITY>
812

> <PUBCHEM_CACTVS_HBOND_ACCEPTOR>
9

> <PUBCHEM_CACTVS_HBOND_DONOR>
1

> <PUBCHEM_CACTVS_ROTATABLE_BOND>
8

> <PUBCHEM_CACTVS_SUBSKEYS>
AAADceB7oYBAAAAAAAAAAAAAGAAAAWLAAAA8QAAAAAAAAAAB8AAAHwQYAAAADwjF3xSzkJdMEAiqAydydACS0CtnArAd2CG4ZNiIaPLg3bGUIQhgiALIyYcYiMCPwAAAAAAAAACAAAAAAAAAAAAAAAAAAA==

> <PUBCHEM_IUPAC_OPENEYE_NAME>
6-methyl-5-[4-methyl-5-[3-[(2R,3S)-2-[4-(trifluoromethyl)phenyl]-5-azaspiro[2.4]heptan-5-yl]propylsulfanyl]-1,2,4-triazol-3-yl]pyridine-2-carboxamide

> <PUBCHEM_IUPAC_CAS_NAME>
6-methyl-5-[4-methyl-5-[3-[(2R,3S)-2-[4-(trifluoromethyl)phenyl]-5-azaspiro[2.4]heptan-5-yl]propylthio]-1,2,4-triazol-3-yl]-2-pyridinecarboxamide

> <PUBCHEM_IUPAC_NAME_MARKUP>
6-methyl-5-[4-methyl-5-[3-[(2<I>R</I>,3<I>S</I>)-2-[4-(trifluoromethyl)phenyl]-5-azaspiro[2.4]heptan-5-yl]propylsulfanyl]-1,2,4-triazol-3-yl]pyridine-2-carboxamide

> <PUBCHEM_IUPAC_NAME>
6-methyl-5-[4-methyl-5-[3-[(2R,3S)-2-[4-(trifluoromethyl)phenyl]-5-azaspiro[2.4]heptan-5-yl]propylsulfanyl]-1,2,4-triazol-3-yl]pyridine-2-carboxamide

> <PUBCHEM_IUPAC_SYSTEMATIC_NAME>
6-methyl-5-[4-methyl-5-[3-[(2R,3S)-2-[4-(trifluoromethyl)phenyl]-5-azaspiro[2.4]heptan-5-yl]propylsulfanyl]-1,2,4-triazol-3-yl]pyridine-2-carboxamide

> <PUBCHEM_IUPAC_TRADITIONAL_NAME>
6-methyl-5-[4-methyl-5-[3-[(2R,3S)-2-[4-(trifluoromethyl)phenyl]-5-azaspiro[2.4]heptan-5-yl]propylthio]-1,2,4-triazol-3-yl]picolinamide

> <PUBCHEM_IUPAC_INCHI>
InChI=1S/C26H29F3N6OS/c1-16-19(8-9-21(31-16)22(30)36)23-32-33-24(34(23)2)37-13-3-11-35-12-10-25(15-35)14-20(25)17-4-6-18(7-5-17)26(27,28)29/h4-9,20H,3,10-15H2,1-2H3,(H2,30,36)/t20-,25+/m1/s1

> <PUBCHEM_IUPAC_INCHIKEY>
WEEBXSDEOQNZPK-NLFFAJNJSA-N

> <PUBCHEM_XLOGP3_AA>
3.9

> <PUBCHEM_EXACT_MASS>
530.20756523

> <PUBCHEM_MOLECULAR_FORMULA>
C26H29F3N6OS

> <PUBCHEM_MOLECULAR_WEIGHT>
530.6

> <PUBCHEM_OPENEYE_CAN_SMILES>
CC1=C(C=CC(=N1)C(=O)N)C2=NN=C(N2C)SCCCN3CCC4(C3)CC4C5=CC=C(C=C5)C(F)(F)F

> <PUBCHEM_OPENEYE_ISO_SMILES>
CC1=C(C=CC(=N1)C(=O)N)C2=NN=C(N2C)SCCCN3CC[C@@]4(C3)C[C@@H]4C5=CC=C(C=C5)C(F)(F)F

> <PUBCHEM_CACTVS_TPSA>
115

> <PUBCHEM_MONOISOTOPIC_WEIGHT>
530.20756523

> <PUBCHEM_TOTAL_CHARGE>
0

> <PUBCHEM_HEAVY_ATOM_COUNT>
37

> <PUBCHEM_ATOM_DEF_STEREO_COUNT>
2

> <PUBCHEM_ATOM_UDEF_STEREO_COUNT>
0

> <PUBCHEM_BOND_DEF_STEREO_COUNT>
0

> <PUBCHEM_BOND_UDEF_STEREO_COUNT>
0

> <PUBCHEM_ISOTOPIC_ATOM_COUNT>
0

> <PUBCHEM_COMPONENT_COUNT>
1

> <PUBCHEM_CACTVS_TAUTO_COUNT>
-1

> <PUBCHEM_COORDINATE_TYPE>
1
5
255

> <PUBCHEM_BONDANNOTATIONS>
10  32  8
10  36  8
12  14  6
13  18  5
18  20  8
18  21  8
20  23  8
21  24  8
23  25  8
24  25  8
31  32  8
31  33  8
33  34  8
34  36  8
7  28  8
7  29  8
8  28  8
8  9  8
9  29  8

$$$$
