4723431
  -OEChem-09292322402D

 44 47  0     0  0  0  0  0  0999 V2000
    6.9809    1.3050    0.0000 O   0  0  0  0  0  0  0  0  0  0  0  0
    6.2781   -0.6617    0.0000 N   0  0  0  0  0  0  0  0  0  0  0  0
    4.6783   -4.3785    0.0000 N   0  0  0  0  0  0  0  0  0  0  0  0
    4.9889   -1.8185    0.0000 C   0  0  0  0  0  0  0  0  0  0  0  0
    4.6783   -2.7690    0.0000 C   0  0  0  0  0  0  0  0  0  0  0  0
    3.7320   -3.0737    0.0000 C   0  0  0  0  0  0  0  0  0  0  0  0
    5.9674   -1.6123    0.0000 C   0  0  0  0  0  0  0  0  0  0  0  0
    3.7320   -4.0737    0.0000 C   0  0  0  0  0  0  0  0  0  0  0  0
    5.2619   -3.5737    0.0000 C   0  0  0  0  0  0  0  0  0  0  0  0
    7.2566   -0.4555    0.0000 C   0  0  0  0  0  0  0  0  0  0  0  0
    2.8660   -2.5737    0.0000 C   0  0  0  0  0  0  0  0  0  0  0  0
    7.5673    0.4950    0.0000 C   0  0  0  0  0  0  0  0  0  0  0  0
    2.8660   -4.5737    0.0000 C   0  0  0  0  0  0  0  0  0  0  0  0
    2.0000   -3.0737    0.0000 C   0  0  0  0  0  0  0  0  0  0  0  0
    2.0000   -4.0737    0.0000 C   0  0  0  0  0  0  0  0  0  0  0  0
    7.5701    2.1130    0.0000 C   0  0  0  0  0  0  0  0  0  0  0  0
    8.5189    0.8024    0.0000 C   0  0  0  0  0  0  0  0  0  0  0  0
    8.5206    1.8024    0.0000 C   0  0  0  0  0  0  0  0  0  0  0  0
    7.2627    3.0646    0.0000 C   0  0  0  0  0  0  0  0  0  0  0  0
    6.2849    3.2742    0.0000 C   0  0  0  0  0  0  0  0  0  0  0  0
    7.9331    3.8066    0.0000 C   0  0  0  0  0  0  0  0  0  0  0  0
    5.9775    4.2258    0.0000 C   0  0  0  0  0  0  0  0  0  0  0  0
    7.6257    4.7582    0.0000 C   0  0  0  0  0  0  0  0  0  0  0  0
    6.6480    4.9678    0.0000 C   0  0  0  0  0  0  0  0  0  0  0  0
    4.9684   -1.1988    0.0000 H   0  0  0  0  0  0  0  0  0  0  0  0
    4.3751   -1.7311    0.0000 H   0  0  0  0  0  0  0  0  0  0  0  0
    5.9880   -2.2319    0.0000 H   0  0  0  0  0  0  0  0  0  0  0  0
    6.5812   -1.6996    0.0000 H   0  0  0  0  0  0  0  0  0  0  0  0
    5.8819   -3.5737    0.0000 H   0  0  0  0  0  0  0  0  0  0  0  0
    5.8640   -0.2003    0.0000 H   0  0  0  0  0  0  0  0  0  0  0  0
    4.8709   -4.9678    0.0000 H   0  0  0  0  0  0  0  0  0  0  0  0
    7.2772   -1.0752    0.0000 H   0  0  0  0  0  0  0  0  0  0  0  0
    7.8704   -0.5429    0.0000 H   0  0  0  0  0  0  0  0  0  0  0  0
    2.8660   -1.9537    0.0000 H   0  0  0  0  0  0  0  0  0  0  0  0
    2.8660   -5.1937    0.0000 H   0  0  0  0  0  0  0  0  0  0  0  0
    1.4631   -2.7637    0.0000 H   0  0  0  0  0  0  0  0  0  0  0  0
    1.4631   -4.3837    0.0000 H   0  0  0  0  0  0  0  0  0  0  0  0
    9.0198    0.4371    0.0000 H   0  0  0  0  0  0  0  0  0  0  0  0
    9.0228    2.1659    0.0000 H   0  0  0  0  0  0  0  0  0  0  0  0
    5.8692    2.8142    0.0000 H   0  0  0  0  0  0  0  0  0  0  0  0
    8.5393    3.6766    0.0000 H   0  0  0  0  0  0  0  0  0  0  0  0
    5.3713    4.3558    0.0000 H   0  0  0  0  0  0  0  0  0  0  0  0
    8.0414    5.2182    0.0000 H   0  0  0  0  0  0  0  0  0  0  0  0
    6.4574    5.5578    0.0000 H   0  0  0  0  0  0  0  0  0  0  0  0
  1 12  1  0  0  0  0
  1 16  1  0  0  0  0
  2  7  1  0  0  0  0
  2 10  1  0  0  0  0
  2 30  1  0  0  0  0
  3  8  1  0  0  0  0
  3  9  1  0  0  0  0
  3 31  1  0  0  0  0
  4  5  1  0  0  0  0
  4  7  1  0  0  0  0
  4 25  1  0  0  0  0
  4 26  1  0  0  0  0
  5  6  1  0  0  0  0
  5  9  2  0  0  0  0
  6  8  1  0  0  0  0
  6 11  2  0  0  0  0
  7 27  1  0  0  0  0
  7 28  1  0  0  0  0
  8 13  2  0  0  0  0
  9 29  1  0  0  0  0
 10 12  1  0  0  0  0
 10 32  1  0  0  0  0
 10 33  1  0  0  0  0
 11 14  1  0  0  0  0
 11 34  1  0  0  0  0
 12 17  2  0  0  0  0
 13 15  1  0  0  0  0
 13 35  1  0  0  0  0
 14 15  2  0  0  0  0
 14 36  1  0  0  0  0
 15 37  1  0  0  0  0
 16 18  2  0  0  0  0
 16 19  1  0  0  0  0
 17 18  1  0  0  0  0
 17 38  1  0  0  0  0
 18 39  1  0  0  0  0
 19 20  2  0  0  0  0
 19 21  1  0  0  0  0
 20 22  1  0  0  0  0
 20 40  1  0  0  0  0
 21 23  2  0  0  0  0
 21 41  1  0  0  0  0
 22 24  2  0  0  0  0
 22 42  1  0  0  0  0
 23 24  1  0  0  0  0
 23 43  1  0  0  0  0
 24 44  1  0  0  0  0
M  END
> <PUBCHEM_COMPOUND_CID>
4723431

> <PUBCHEM_COMPOUND_CANONICALIZED>
1

> <PUBCHEM_CACTVS_COMPLEXITY>
382

> <PUBCHEM_CACTVS_HBOND_ACCEPTOR>
2

> <PUBCHEM_CACTVS_HBOND_DONOR>
2

> <PUBCHEM_CACTVS_ROTATABLE_BOND>
6

> <PUBCHEM_CACTVS_SUBSKEYS>
AAADceB7IAAAAAAAAAAAAAAAAAAAAWJAAAAwYAAAAAAAAFgB/AAAHgAQAAAADAzBngQ8xPLJlECoA7R3RACCiCA1IiAI2aG+bNgOJvLEtbuHOSjk0BHY6YeY2fKOgAAAAAACAAAAAAAAAAQAAAAAAAAAAA==

> <PUBCHEM_IUPAC_OPENEYE_NAME>
2-(1H-indol-3-yl)-N-[(5-phenyl-2-furyl)methyl]ethanamine

> <PUBCHEM_IUPAC_CAS_NAME>
2-(1H-indol-3-yl)-N-[(5-phenyl-2-furanyl)methyl]ethanamine

> <PUBCHEM_IUPAC_NAME_MARKUP>
2-(1<I>H</I>-indol-3-yl)-<I>N</I>-[(5-phenylfuran-2-yl)methyl]ethanamine

> <PUBCHEM_IUPAC_NAME>
2-(1H-indol-3-yl)-N-[(5-phenylfuran-2-yl)methyl]ethanamine

> <PUBCHEM_IUPAC_SYSTEMATIC_NAME>
2-(1H-indol-3-yl)-N-[(5-phenylfuran-2-yl)methyl]ethanamine

> <PUBCHEM_IUPAC_TRADITIONAL_NAME>
2-(1H-indol-3-yl)ethyl-[(5-phenyl-2-furyl)methyl]amine

> <PUBCHEM_IUPAC_INCHI>
InChI=1S/C21H20N2O/c1-2-6-16(7-3-1)21-11-10-18(24-21)15-22-13-12-17-14-23-20-9-5-4-8-19(17)20/h1-11,14,22-23H,12-13,15H2

> <PUBCHEM_IUPAC_INCHIKEY>
ZMHSNTLJQRUNNJ-UHFFFAOYSA-N

> <PUBCHEM_XLOGP3>
4.3

> <PUBCHEM_EXACT_MASS>
316.157563266

> <PUBCHEM_MOLECULAR_FORMULA>
C21H20N2O

> <PUBCHEM_MOLECULAR_WEIGHT>
316.4

> <PUBCHEM_OPENEYE_CAN_SMILES>
C1=CC=C(C=C1)C2=CC=C(O2)CNCCC3=CNC4=CC=CC=C43

> <PUBCHEM_OPENEYE_ISO_SMILES>
C1=CC=C(C=C1)C2=CC=C(O2)CNCCC3=CNC4=CC=CC=C43

> <PUBCHEM_CACTVS_TPSA>
41

> <PUBCHEM_MONOISOTOPIC_WEIGHT>
316.157563266

> <PUBCHEM_TOTAL_CHARGE>
0

> <PUBCHEM_HEAVY_ATOM_COUNT>
24

> <PUBCHEM_ATOM_DEF_STEREO_COUNT>
0

> <PUBCHEM_ATOM_UDEF_STEREO_COUNT>
0

> <PUBCHEM_BOND_DEF_STEREO_COUNT>
0

> <PUBCHEM_BOND_UDEF_STEREO_COUNT>
0

> <PUBCHEM_ISOTOPIC_ATOM_COUNT>
0

> <PUBCHEM_COMPONENT_COUNT>
1

> <PUBCHEM_CACTVS_TAUTO_COUNT>
1

> <PUBCHEM_COORDINATE_TYPE>
1
5
255

> <PUBCHEM_BONDANNOTATIONS>
1  12  8
1  16  8
11  14  8
12  17  8
13  15  8
14  15  8
16  18  8
17  18  8
19  20  8
19  21  8
20  22  8
21  23  8
22  24  8
23  24  8
3  8  8
3  9  8
5  6  8
5  9  8
6  11  8
6  8  8
8  13  8

$$$$
