164609508
  -OEChem-09292322432D

 78 81  0     1  0  0  0  0  0999 V2000
    7.0306   -2.2546    0.0000 Cl  0  0  0  0  0  0  0  0  0  0  0  0
   10.7619    2.2278    0.0000 O   0  0  0  0  0  0  0  0  0  0  0  0
   11.2847   -3.2044    0.0000 O   0  0  0  0  0  0  0  0  0  0  0  0
    8.8576   -1.4411    0.0000 O   0  0  0  0  0  0  0  0  0  0  0  0
   10.2666   -4.6057    0.0000 O   0  0  0  0  0  0  0  0  0  0  0  0
    4.6783    4.0212    0.0000 O   0  0  0  0  0  0  0  0  0  0  0  0
    6.7619    5.6919    0.0000 O   0  0  0  0  0  0  0  0  0  0  0  0
   12.4643    0.2791    0.0000 N   0  0  3  0  0  0  0  0  0  0  0  0
   10.5802   -1.6221    0.0000 N   0  0  0  0  0  0  0  0  0  0  0  0
    6.7619    3.9599    0.0000 N   0  0  0  0  0  0  0  0  0  0  0  0
   11.5983   -0.2209    0.0000 C   0  0  1  0  0  0  0  0  0  0  0  0
   10.8551    0.4483    0.0000 C   0  0  0  0  0  0  0  0  0  0  0  0
   11.2619    1.3618    0.0000 C   0  0  2  0  0  0  0  0  0  0  0  0
   12.2564    1.2573    0.0000 C   0  0  0  0  0  0  0  0  0  0  0  0
   11.4938   -1.2154    0.0000 C   0  0  0  0  0  0  0  0  0  0  0  0
   13.3779   -0.1276    0.0000 C   0  0  0  0  0  0  0  0  0  0  0  0
   14.1869    0.4602    0.0000 C   0  0  0  0  0  0  0  0  0  0  0  0
    9.7619    2.2278    0.0000 C   0  0  0  0  0  0  0  0  0  0  0  0
    9.2619    3.0939    0.0000 C   0  0  0  0  0  0  0  0  0  0  0  0
   10.4757   -2.6166    0.0000 C   0  0  0  0  0  0  0  0  0  0  0  0
    8.2619    3.0939    0.0000 C   0  0  0  0  0  0  0  0  0  0  0  0
    9.5621   -3.0234    0.0000 C   0  0  0  0  0  0  0  0  0  0  0  0
    7.7619    3.9599    0.0000 C   0  0  0  0  0  0  0  0  0  0  0  0
    9.4576   -4.0179    0.0000 C   0  0  0  0  0  0  0  0  0  0  0  0
    8.7531   -2.4356    0.0000 C   0  0  0  0  0  0  0  0  0  0  0  0
    8.5441   -4.4246    0.0000 C   0  0  0  0  0  0  0  0  0  0  0  0
    7.8396   -2.8423    0.0000 C   0  0  0  0  0  0  0  0  0  0  0  0
    7.7350   -3.8369    0.0000 C   0  0  0  0  0  0  0  0  0  0  0  0
    8.4395   -5.4192    0.0000 C   0  0  0  0  0  0  0  0  0  0  0  0
    6.2619    4.8259    0.0000 C   0  0  0  0  0  0  0  0  0  0  0  0
    5.2619    4.8259    0.0000 C   0  0  0  0  0  0  0  0  0  0  0  0
    7.5260   -5.8259    0.0000 C   0  0  0  0  0  0  0  0  0  0  0  0
    8.0486   -0.8533    0.0000 C   0  0  0  0  0  0  0  0  0  0  0  0
    4.6783    5.6306    0.0000 C   0  0  0  0  0  0  0  0  0  0  0  0
    3.7320    5.3259    0.0000 C   0  0  0  0  0  0  0  0  0  0  0  0
    3.7320    4.3259    0.0000 C   0  0  0  0  0  0  0  0  0  0  0  0
    2.8660    5.8259    0.0000 C   0  0  0  0  0  0  0  0  0  0  0  0
    2.8660    3.8259    0.0000 C   0  0  0  0  0  0  0  0  0  0  0  0
    2.0000    5.3259    0.0000 C   0  0  0  0  0  0  0  0  0  0  0  0
    2.0000    4.3259    0.0000 C   0  0  0  0  0  0  0  0  0  0  0  0
   12.1183   -0.5585    0.0000 H   0  0  0  0  0  0  0  0  0  0  0  0
   10.3182    0.7583    0.0000 H   0  0  0  0  0  0  0  0  0  0  0  0
   10.4907   -0.0533    0.0000 H   0  0  0  0  0  0  0  0  0  0  0  0
   11.5996    1.8818    0.0000 H   0  0  0  0  0  0  0  0  0  0  0  0
   12.8730    1.3221    0.0000 H   0  0  0  0  0  0  0  0  0  0  0  0
   12.2564    1.8773    0.0000 H   0  0  0  0  0  0  0  0  0  0  0  0
   11.6438   -1.8170    0.0000 H   0  0  0  0  0  0  0  0  0  0  0  0
   12.1122   -1.1721    0.0000 H   0  0  0  0  0  0  0  0  0  0  0  0
   13.0312   -0.6416    0.0000 H   0  0  0  0  0  0  0  0  0  0  0  0
   13.8238   -0.5583    0.0000 H   0  0  0  0  0  0  0  0  0  0  0  0
   10.0786   -1.2577    0.0000 H   0  0  0  0  0  0  0  0  0  0  0  0
   14.5513   -0.0414    0.0000 H   0  0  0  0  0  0  0  0  0  0  0  0
   14.6885    0.8246    0.0000 H   0  0  0  0  0  0  0  0  0  0  0  0
   13.8224    0.9618    0.0000 H   0  0  0  0  0  0  0  0  0  0  0  0
    9.1793    2.0158    0.0000 H   0  0  0  0  0  0  0  0  0  0  0  0
    9.8695    1.6172    0.0000 H   0  0  0  0  0  0  0  0  0  0  0  0
    9.8445    3.3059    0.0000 H   0  0  0  0  0  0  0  0  0  0  0  0
    9.1542    3.7044    0.0000 H   0  0  0  0  0  0  0  0  0  0  0  0
    7.6793    2.8818    0.0000 H   0  0  0  0  0  0  0  0  0  0  0  0
    8.3695    2.4833    0.0000 H   0  0  0  0  0  0  0  0  0  0  0  0
    8.3445    4.1719    0.0000 H   0  0  0  0  0  0  0  0  0  0  0  0
    7.6542    4.5705    0.0000 H   0  0  0  0  0  0  0  0  0  0  0  0
    6.4519    3.4229    0.0000 H   0  0  0  0  0  0  0  0  0  0  0  0
    7.1686   -4.0890    0.0000 H   0  0  0  0  0  0  0  0  0  0  0  0
    8.5895   -6.0207    0.0000 H   0  0  0  0  0  0  0  0  0  0  0  0
    9.0580   -5.3759    0.0000 H   0  0  0  0  0  0  0  0  0  0  0  0
   10.2018   -5.2223    0.0000 H   0  0  0  0  0  0  0  0  0  0  0  0
    7.2738   -5.2595    0.0000 H   0  0  0  0  0  0  0  0  0  0  0  0
    6.9596   -6.0781    0.0000 H   0  0  0  0  0  0  0  0  0  0  0  0
    7.7782   -6.3923    0.0000 H   0  0  0  0  0  0  0  0  0  0  0  0
    8.4131   -0.3517    0.0000 H   0  0  0  0  0  0  0  0  0  0  0  0
    7.5470   -0.4889    0.0000 H   0  0  0  0  0  0  0  0  0  0  0  0
    7.6842   -1.3549    0.0000 H   0  0  0  0  0  0  0  0  0  0  0  0
    4.8709    6.2200    0.0000 H   0  0  0  0  0  0  0  0  0  0  0  0
    2.8660    6.4459    0.0000 H   0  0  0  0  0  0  0  0  0  0  0  0
    2.8660    3.2059    0.0000 H   0  0  0  0  0  0  0  0  0  0  0  0
    1.4631    5.6359    0.0000 H   0  0  0  0  0  0  0  0  0  0  0  0
    1.4631    4.0159    0.0000 H   0  0  0  0  0  0  0  0  0  0  0  0
  1 27  1  0  0  0  0
 13  2  1  1  0  0  0
  2 18  1  0  0  0  0
  3 20  2  0  0  0  0
  4 25  1  0  0  0  0
  4 33  1  0  0  0  0
  5 24  1  0  0  0  0
  5 67  1  0  0  0  0
  6 31  1  0  0  0  0
  6 36  1  0  0  0  0
  7 30  2  0  0  0  0
  8 11  1  0  0  0  0
  8 14  1  0  0  0  0
  8 16  1  0  0  0  0
  9 15  1  0  0  0  0
  9 20  1  0  0  0  0
  9 51  1  0  0  0  0
 10 23  1  0  0  0  0
 10 30  1  0  0  0  0
 10 63  1  0  0  0  0
 11 12  1  0  0  0  0
 11 15  1  6  0  0  0
 11 41  1  0  0  0  0
 12 13  1  0  0  0  0
 12 42  1  0  0  0  0
 12 43  1  0  0  0  0
 13 14  1  0  0  0  0
 13 44  1  0  0  0  0
 14 45  1  0  0  0  0
 14 46  1  0  0  0  0
 15 47  1  0  0  0  0
 15 48  1  0  0  0  0
 16 17  1  0  0  0  0
 16 49  1  0  0  0  0
 16 50  1  0  0  0  0
 17 52  1  0  0  0  0
 17 53  1  0  0  0  0
 17 54  1  0  0  0  0
 18 19  1  0  0  0  0
 18 55  1  0  0  0  0
 18 56  1  0  0  0  0
 19 21  1  0  0  0  0
 19 57  1  0  0  0  0
 19 58  1  0  0  0  0
 20 22  1  0  0  0  0
 21 23  1  0  0  0  0
 21 59  1  0  0  0  0
 21 60  1  0  0  0  0
 22 24  2  0  0  0  0
 22 25  1  0  0  0  0
 23 61  1  0  0  0  0
 23 62  1  0  0  0  0
 24 26  1  0  0  0  0
 25 27  2  0  0  0  0
 26 28  2  0  0  0  0
 26 29  1  0  0  0  0
 27 28  1  0  0  0  0
 28 64  1  0  0  0  0
 29 32  1  0  0  0  0
 29 65  1  0  0  0  0
 29 66  1  0  0  0  0
 30 31  1  0  0  0  0
 31 34  2  0  0  0  0
 32 68  1  0  0  0  0
 32 69  1  0  0  0  0
 32 70  1  0  0  0  0
 33 71  1  0  0  0  0
 33 72  1  0  0  0  0
 33 73  1  0  0  0  0
 34 35  1  0  0  0  0
 34 74  1  0  0  0  0
 35 36  1  0  0  0  0
 35 37  2  0  0  0  0
 36 38  2  0  0  0  0
 37 39  1  0  0  0  0
 37 75  1  0  0  0  0
 38 40  1  0  0  0  0
 38 76  1  0  0  0  0
 39 40  2  0  0  0  0
 39 77  1  0  0  0  0
 40 78  1  0  0  0  0
M  END
> <PUBCHEM_COMPOUND_CID>
164609508

> <PUBCHEM_COMPOUND_CANONICALIZED>
1

> <PUBCHEM_CACTVS_COMPLEXITY>
820

> <PUBCHEM_CACTVS_HBOND_ACCEPTOR>
7

> <PUBCHEM_CACTVS_HBOND_DONOR>
3

> <PUBCHEM_CACTVS_ROTATABLE_BOND>
13

> <PUBCHEM_CACTVS_SUBSKEYS>
AAADcfB7OAAEAAAAAAAAAAAAAAAAAWJAAAAwYAAAAAAAAEgB9AAAHgIQCAAADD7hmCYyBsPABkCIAqFSEAKCCAAkJUAIiIHOD8gOZzeHtz+XeWjn9hWYuYe4/+7uICACKAAICABAQARQABAQAAAAAAAAAA==

> <PUBCHEM_IUPAC_OPENEYE_NAME>
N-[4-[(3R,5S)-5-[[(5-chloro-3-ethyl-2-hydroxy-6-methoxy-benzoyl)amino]methyl]-1-ethyl-pyrrolidin-3-yl]oxybutyl]benzofuran-2-carboxamide

> <PUBCHEM_IUPAC_CAS_NAME>
N-[4-[[(3R,5S)-5-[[[(5-chloro-3-ethyl-2-hydroxy-6-methoxyphenyl)-oxomethyl]amino]methyl]-1-ethyl-3-pyrrolidinyl]oxy]butyl]-2-benzofurancarboxamide

> <PUBCHEM_IUPAC_NAME_MARKUP>
<I>N</I>-[4-[(3<I>R</I>,5<I>S</I>)-5-[[(5-chloro-3-ethyl-2-hydroxy-6-methoxybenzoyl)amino]methyl]-1-ethylpyrrolidin-3-yl]oxybutyl]-1-benzofuran-2-carboxamide

> <PUBCHEM_IUPAC_NAME>
N-[4-[(3R,5S)-5-[[(5-chloro-3-ethyl-2-hydroxy-6-methoxybenzoyl)amino]methyl]-1-ethylpyrrolidin-3-yl]oxybutyl]-1-benzofuran-2-carboxamide

> <PUBCHEM_IUPAC_SYSTEMATIC_NAME>
N-[4-[(3R,5S)-5-[[(3-chloranyl-5-ethyl-2-methoxy-6-oxidanyl-phenyl)carbonylamino]methyl]-1-ethyl-pyrrolidin-3-yl]oxybutyl]-1-benzofuran-2-carboxamide

> <PUBCHEM_IUPAC_TRADITIONAL_NAME>
N-[4-[(3R,5S)-5-[[(5-chloro-3-ethyl-2-hydroxy-6-methoxy-benzoyl)amino]methyl]-1-ethyl-pyrrolidin-3-yl]oxybutyl]coumarilamide

> <PUBCHEM_IUPAC_INCHI>
InChI=1S/C30H38ClN3O6/c1-4-19-14-23(31)28(38-3)26(27(19)35)30(37)33-17-21-16-22(18-34(21)5-2)39-13-9-8-12-32-29(36)25-15-20-10-6-7-11-24(20)40-25/h6-7,10-11,14-15,21-22,35H,4-5,8-9,12-13,16-18H2,1-3H3,(H,32,36)(H,33,37)/t21-,22+/m0/s1

> <PUBCHEM_IUPAC_INCHIKEY>
QEQTYRYMOSHBTB-FCHUYYIVSA-N

> <PUBCHEM_XLOGP3_AA>
5.7

> <PUBCHEM_EXACT_MASS>
571.2449136

> <PUBCHEM_MOLECULAR_FORMULA>
C30H38ClN3O6

> <PUBCHEM_MOLECULAR_WEIGHT>
572.1

> <PUBCHEM_OPENEYE_CAN_SMILES>
CCC1=CC(=C(C(=C1O)C(=O)NCC2CC(CN2CC)OCCCCNC(=O)C3=CC4=CC=CC=C4O3)OC)Cl

> <PUBCHEM_OPENEYE_ISO_SMILES>
CCC1=CC(=C(C(=C1O)C(=O)NC[C@@H]2C[C@H](CN2CC)OCCCCNC(=O)C3=CC4=CC=CC=C4O3)OC)Cl

> <PUBCHEM_CACTVS_TPSA>
113

> <PUBCHEM_MONOISOTOPIC_WEIGHT>
571.2449136

> <PUBCHEM_TOTAL_CHARGE>
0

> <PUBCHEM_HEAVY_ATOM_COUNT>
40

> <PUBCHEM_ATOM_DEF_STEREO_COUNT>
2

> <PUBCHEM_ATOM_UDEF_STEREO_COUNT>
0

> <PUBCHEM_BOND_DEF_STEREO_COUNT>
0

> <PUBCHEM_BOND_UDEF_STEREO_COUNT>
0

> <PUBCHEM_ISOTOPIC_ATOM_COUNT>
0

> <PUBCHEM_COMPONENT_COUNT>
1

> <PUBCHEM_CACTVS_TAUTO_COUNT>
-1

> <PUBCHEM_COORDINATE_TYPE>
1
5
255

> <PUBCHEM_BONDANNOTATIONS>
11  15  6
13  2  5
22  24  8
22  25  8
24  26  8
25  27  8
26  28  8
27  28  8
31  34  8
34  35  8
35  36  8
35  37  8
36  38  8
37  39  8
38  40  8
39  40  8
6  31  8
6  36  8

$$$$
