163791103
  -OEChem-09292322442D

 60 63  0     0  0  0  0  0  0999 V2000
    2.0000   -4.9386    0.0000 F   0  0  0  0  0  0  0  0  0  0  0  0
    8.9528    4.9386    0.0000 O   0  0  0  0  0  0  0  0  0  0  0  0
   10.0331    2.2373    0.0000 O   0  0  0  0  0  0  0  0  0  0  0  0
    5.5443   -4.7434    0.0000 O   0  0  0  0  0  0  0  0  0  0  0  0
    9.7225    1.2868    0.0000 O   0  0  0  0  0  0  0  0  0  0  0  0
    6.4763   -0.2824    0.0000 N   0  0  0  0  0  0  0  0  0  0  0  0
    8.0761    1.8249    0.0000 N   0  0  0  0  0  0  0  0  0  0  0  0
    6.1279   -3.9386    0.0000 N   0  0  0  0  0  0  0  0  0  0  0  0
    5.8550   -2.1834    0.0000 C   0  0  0  0  0  0  0  0  0  0  0  0
    5.1871   -1.4391    0.0000 C   0  0  0  0  0  0  0  0  0  0  0  0
    6.8335   -1.9772    0.0000 C   0  0  0  0  0  0  0  0  0  0  0  0
    5.4978   -0.4886    0.0000 C   0  0  0  0  0  0  0  0  0  0  0  0
    7.1441   -1.0267    0.0000 C   0  0  0  0  0  0  0  0  0  0  0  0
    6.7870    0.6682    0.0000 C   0  0  0  0  0  0  0  0  0  0  0  0
    9.3653    2.9816    0.0000 C   0  0  0  0  0  0  0  0  0  0  0  0
    7.7654    0.8744    0.0000 C   0  0  0  0  0  0  0  0  0  0  0  0
    5.5443   -3.1339    0.0000 C   0  0  0  0  0  0  0  0  0  0  0  0
    8.4148    3.2923    0.0000 C   0  0  0  0  0  0  0  0  0  0  0  0
   10.1096    3.6495    0.0000 C   0  0  0  0  0  0  0  0  0  0  0  0
    9.0546    2.0311    0.0000 C   0  0  0  0  0  0  0  0  0  0  0  0
    8.2085    4.2708    0.0000 C   0  0  0  0  0  0  0  0  0  0  0  0
    9.9034    4.6280    0.0000 C   0  0  0  0  0  0  0  0  0  0  0  0
    4.5981   -3.4386    0.0000 C   0  0  0  0  0  0  0  0  0  0  0  0
    7.4083    2.5692    0.0000 C   0  0  0  0  0  0  0  0  0  0  0  0
    4.5981   -4.4386    0.0000 C   0  0  0  0  0  0  0  0  0  0  0  0
    3.7320   -2.9386    0.0000 C   0  0  0  0  0  0  0  0  0  0  0  0
    6.4298    2.3630    0.0000 C   0  0  0  0  0  0  0  0  0  0  0  0
    3.7320   -4.9386    0.0000 C   0  0  0  0  0  0  0  0  0  0  0  0
    2.8660   -3.4386    0.0000 C   0  0  0  0  0  0  0  0  0  0  0  0
    2.8660   -4.4386    0.0000 C   0  0  0  0  0  0  0  0  0  0  0  0
    6.2690   -2.6449    0.0000 H   0  0  0  0  0  0  0  0  0  0  0  0
    4.6402   -1.1471    0.0000 H   0  0  0  0  0  0  0  0  0  0  0  0
    4.8046   -1.9270    0.0000 H   0  0  0  0  0  0  0  0  0  0  0  0
    6.8540   -2.5968    0.0000 H   0  0  0  0  0  0  0  0  0  0  0  0
    7.4473   -2.0645    0.0000 H   0  0  0  0  0  0  0  0  0  0  0  0
    5.4772    0.1311    0.0000 H   0  0  0  0  0  0  0  0  0  0  0  0
    4.8840   -0.4012    0.0000 H   0  0  0  0  0  0  0  0  0  0  0  0
    7.6910   -1.3187    0.0000 H   0  0  0  0  0  0  0  0  0  0  0  0
    7.5267   -0.5388    0.0000 H   0  0  0  0  0  0  0  0  0  0  0  0
    6.7664    1.2878    0.0000 H   0  0  0  0  0  0  0  0  0  0  0  0
    6.1731    0.7555    0.0000 H   0  0  0  0  0  0  0  0  0  0  0  0
    7.7860    0.2547    0.0000 H   0  0  0  0  0  0  0  0  0  0  0  0
    8.3793    0.7870    0.0000 H   0  0  0  0  0  0  0  0  0  0  0  0
    7.7951    3.2717    0.0000 H   0  0  0  0  0  0  0  0  0  0  0  0
    8.3274    2.6785    0.0000 H   0  0  0  0  0  0  0  0  0  0  0  0
   10.4372    3.1231    0.0000 H   0  0  0  0  0  0  0  0  0  0  0  0
   10.6848    3.8807    0.0000 H   0  0  0  0  0  0  0  0  0  0  0  0
    7.8809    4.7972    0.0000 H   0  0  0  0  0  0  0  0  0  0  0  0
    7.6333    4.0396    0.0000 H   0  0  0  0  0  0  0  0  0  0  0  0
   10.5230    4.6486    0.0000 H   0  0  0  0  0  0  0  0  0  0  0  0
    9.9907    5.2418    0.0000 H   0  0  0  0  0  0  0  0  0  0  0  0
    7.9346    2.8968    0.0000 H   0  0  0  0  0  0  0  0  0  0  0  0
    7.1770    3.1445    0.0000 H   0  0  0  0  0  0  0  0  0  0  0  0
   10.6398    2.3652    0.0000 H   0  0  0  0  0  0  0  0  0  0  0  0
    3.7320   -2.3186    0.0000 H   0  0  0  0  0  0  0  0  0  0  0  0
    6.3019    2.9697    0.0000 H   0  0  0  0  0  0  0  0  0  0  0  0
    5.8231    2.2351    0.0000 H   0  0  0  0  0  0  0  0  0  0  0  0
    6.5576    1.7563    0.0000 H   0  0  0  0  0  0  0  0  0  0  0  0
    3.7320   -5.5586    0.0000 H   0  0  0  0  0  0  0  0  0  0  0  0
    2.3291   -3.1286    0.0000 H   0  0  0  0  0  0  0  0  0  0  0  0
  1 30  1  0  0  0  0
  2 21  1  0  0  0  0
  2 22  1  0  0  0  0
  3 15  1  0  0  0  0
  3 54  1  0  0  0  0
  4  8  1  0  0  0  0
  4 25  1  0  0  0  0
  5 20  2  0  0  0  0
  6 12  1  0  0  0  0
  6 13  1  0  0  0  0
  6 14  1  0  0  0  0
  7 16  1  0  0  0  0
  7 20  1  0  0  0  0
  7 24  1  0  0  0  0
  8 17  2  0  0  0  0
  9 10  1  0  0  0  0
  9 11  1  0  0  0  0
  9 17  1  0  0  0  0
  9 31  1  0  0  0  0
 10 12  1  0  0  0  0
 10 32  1  0  0  0  0
 10 33  1  0  0  0  0
 11 13  1  0  0  0  0
 11 34  1  0  0  0  0
 11 35  1  0  0  0  0
 12 36  1  0  0  0  0
 12 37  1  0  0  0  0
 13 38  1  0  0  0  0
 13 39  1  0  0  0  0
 14 16  1  0  0  0  0
 14 40  1  0  0  0  0
 14 41  1  0  0  0  0
 15 18  1  0  0  0  0
 15 19  1  0  0  0  0
 15 20  1  0  0  0  0
 16 42  1  0  0  0  0
 16 43  1  0  0  0  0
 17 23  1  0  0  0  0
 18 21  1  0  0  0  0
 18 44  1  0  0  0  0
 18 45  1  0  0  0  0
 19 22  1  0  0  0  0
 19 46  1  0  0  0  0
 19 47  1  0  0  0  0
 21 48  1  0  0  0  0
 21 49  1  0  0  0  0
 22 50  1  0  0  0  0
 22 51  1  0  0  0  0
 23 25  2  0  0  0  0
 23 26  1  0  0  0  0
 24 27  1  0  0  0  0
 24 52  1  0  0  0  0
 24 53  1  0  0  0  0
 25 28  1  0  0  0  0
 26 29  2  0  0  0  0
 26 55  1  0  0  0  0
 27 56  1  0  0  0  0
 27 57  1  0  0  0  0
 27 58  1  0  0  0  0
 28 30  2  0  0  0  0
 28 59  1  0  0  0  0
 29 30  1  0  0  0  0
 29 60  1  0  0  0  0
M  END
> <PUBCHEM_COMPOUND_CID>
163791103

> <PUBCHEM_COMPOUND_CANONICALIZED>
1

> <PUBCHEM_CACTVS_COMPLEXITY>
581

> <PUBCHEM_CACTVS_HBOND_ACCEPTOR>
7

> <PUBCHEM_CACTVS_HBOND_DONOR>
1

> <PUBCHEM_CACTVS_ROTATABLE_BOND>
6

> <PUBCHEM_CACTVS_SUBSKEYS>
AAADceB7OQAAAAAAAAAAAAAAAAAAAWAAAAA8SIAAAAAAAFgB8AAAHwAECAAADUzhng4yhtMQBgCpA6VyUgKCAAAkIAAomCF+TNoKZrqAlZOWcYBnxhmYyce6yOCOAAAAAAAIAAAAAAAAABAAAAAAAAAAAA==

> <PUBCHEM_IUPAC_OPENEYE_NAME>
N-ethyl-N-[2-[4-(6-fluoro-1,2-benzoxazol-3-yl)-1-piperidyl]ethyl]-4-hydroxy-tetrahydropyran-4-carboxamide

> <PUBCHEM_IUPAC_CAS_NAME>
N-ethyl-N-[2-[4-(6-fluoro-1,2-benzoxazol-3-yl)-1-piperidinyl]ethyl]-4-hydroxy-4-oxanecarboxamide

> <PUBCHEM_IUPAC_NAME_MARKUP>
<I>N</I>-ethyl-<I>N</I>-[2-[4-(6-fluoro-1,2-benzoxazol-3-yl)piperidin-1-yl]ethyl]-4-hydroxyoxane-4-carboxamide

> <PUBCHEM_IUPAC_NAME>
N-ethyl-N-[2-[4-(6-fluoro-1,2-benzoxazol-3-yl)piperidin-1-yl]ethyl]-4-hydroxyoxane-4-carboxamide

> <PUBCHEM_IUPAC_SYSTEMATIC_NAME>
N-ethyl-N-[2-[4-(6-fluoranyl-1,2-benzoxazol-3-yl)piperidin-1-yl]ethyl]-4-oxidanyl-oxane-4-carboxamide

> <PUBCHEM_IUPAC_TRADITIONAL_NAME>
N-ethyl-N-[2-[4-(6-fluoroindoxazen-3-yl)piperidino]ethyl]-4-hydroxy-tetrahydropyran-4-carboxamide

> <PUBCHEM_IUPAC_INCHI>
InChI=1S/C22H30FN3O4/c1-2-26(21(27)22(28)7-13-29-14-8-22)12-11-25-9-5-16(6-10-25)20-18-4-3-17(23)15-19(18)30-24-20/h3-4,15-16,28H,2,5-14H2,1H3

> <PUBCHEM_IUPAC_INCHIKEY>
MWUUTPCYIHCLOP-UHFFFAOYSA-N

> <PUBCHEM_XLOGP3_AA>
1.8

> <PUBCHEM_EXACT_MASS>
419.22203461

> <PUBCHEM_MOLECULAR_FORMULA>
C22H30FN3O4

> <PUBCHEM_MOLECULAR_WEIGHT>
419.5

> <PUBCHEM_OPENEYE_CAN_SMILES>
CCN(CCN1CCC(CC1)C2=NOC3=C2C=CC(=C3)F)C(=O)C4(CCOCC4)O

> <PUBCHEM_OPENEYE_ISO_SMILES>
CCN(CCN1CCC(CC1)C2=NOC3=C2C=CC(=C3)F)C(=O)C4(CCOCC4)O

> <PUBCHEM_CACTVS_TPSA>
79

> <PUBCHEM_MONOISOTOPIC_WEIGHT>
419.22203461

> <PUBCHEM_TOTAL_CHARGE>
0

> <PUBCHEM_HEAVY_ATOM_COUNT>
30

> <PUBCHEM_ATOM_DEF_STEREO_COUNT>
0

> <PUBCHEM_ATOM_UDEF_STEREO_COUNT>
0

> <PUBCHEM_BOND_DEF_STEREO_COUNT>
0

> <PUBCHEM_BOND_UDEF_STEREO_COUNT>
0

> <PUBCHEM_ISOTOPIC_ATOM_COUNT>
0

> <PUBCHEM_COMPONENT_COUNT>
1

> <PUBCHEM_CACTVS_TAUTO_COUNT>
-1

> <PUBCHEM_COORDINATE_TYPE>
1
5
255

> <PUBCHEM_BONDANNOTATIONS>
17  23  8
23  25  8
23  26  8
25  28  8
26  29  8
28  30  8
29  30  8
4  25  8
4  8  8
8  17  8

$$$$
