127040696
  -OEChem-09292322362D

 63 66  0     1  0  0  0  0  0999 V2000
    5.7567    2.5285    0.0000 S   0  0  0  0  0  0  0  0  0  0  0  0
    8.3548   -6.9715    0.0000 F   0  0  0  0  0  0  0  0  0  0  0  0
    7.3548   -5.9715    0.0000 F   0  0  0  0  0  0  0  0  0  0  0  0
    9.3548   -5.9715    0.0000 F   0  0  0  0  0  0  0  0  0  0  0  0
    9.2208   -1.4715    0.0000 O   0  0  0  0  0  0  0  0  0  0  0  0
    7.4888   -0.4715    0.0000 N   0  0  3  0  0  0  0  0  0  0  0  0
    4.7861    4.0230    0.0000 N   0  0  0  0  0  0  0  0  0  0  0  0
    3.3080    3.3649    0.0000 N   0  0  0  0  0  0  0  0  0  0  0  0
    3.9771    2.6217    0.0000 N   0  0  0  0  0  0  0  0  0  0  0  0
    3.4013    5.1444    0.0000 C   0  0  0  0  0  0  0  0  0  0  0  0
    3.9890    5.9535    0.0000 C   0  0  0  0  0  0  0  0  0  0  0  0
    2.4067    5.2490    0.0000 C   0  0  0  0  0  0  0  0  0  0  0  0
    3.5823    6.8670    0.0000 C   0  0  0  0  0  0  0  0  0  0  0  0
    2.0000    6.1625    0.0000 C   0  0  0  0  0  0  0  0  0  0  0  0
    2.5878    6.9715    0.0000 C   0  0  0  0  0  0  0  0  0  0  0  0
    3.8080    4.2309    0.0000 C   0  0  0  0  0  0  0  0  0  0  0  0
    7.4888   -1.4715    0.0000 C   0  0  0  0  0  0  0  0  0  0  0  0
    8.3548   -1.9715    0.0000 C   0  0  3  0  0  0  0  0  0  0  0  0
    8.3548    0.0285    0.0000 C   0  0  0  0  0  0  0  0  0  0  0  0
    6.6227    0.0285    0.0000 C   0  0  0  0  0  0  0  0  0  0  0  0
    9.2208   -0.4715    0.0000 C   0  0  0  0  0  0  0  0  0  0  0  0
    6.6227    1.0285    0.0000 C   0  0  0  0  0  0  0  0  0  0  0  0
    4.8907    3.0285    0.0000 C   0  0  0  0  0  0  0  0  0  0  0  0
    8.3548   -2.9715    0.0000 C   0  0  0  0  0  0  0  0  0  0  0  0
    5.7567    1.5285    0.0000 C   0  0  0  0  0  0  0  0  0  0  0  0
    5.5293    4.6921    0.0000 C   0  0  0  0  0  0  0  0  0  0  0  0
    9.2208   -3.4715    0.0000 C   0  0  0  0  0  0  0  0  0  0  0  0
    7.4888   -3.4715    0.0000 C   0  0  0  0  0  0  0  0  0  0  0  0
    9.2208   -4.4715    0.0000 C   0  0  0  0  0  0  0  0  0  0  0  0
    7.4888   -4.4715    0.0000 C   0  0  0  0  0  0  0  0  0  0  0  0
    8.3548   -4.9715    0.0000 C   0  0  0  0  0  0  0  0  0  0  0  0
    8.3548   -5.9715    0.0000 C   0  0  0  0  0  0  0  0  0  0  0  0
    4.0179    5.0796    0.0000 H   0  0  0  0  0  0  0  0  0  0  0  0
    4.4197    5.5075    0.0000 H   0  0  0  0  0  0  0  0  0  0  0  0
    4.5030    6.3002    0.0000 H   0  0  0  0  0  0  0  0  0  0  0  0
    1.8052    5.0990    0.0000 H   0  0  0  0  0  0  0  0  0  0  0  0
    2.4500    4.6305    0.0000 H   0  0  0  0  0  0  0  0  0  0  0  0
    4.1839    7.0170    0.0000 H   0  0  0  0  0  0  0  0  0  0  0  0
    3.5391    7.4855    0.0000 H   0  0  0  0  0  0  0  0  0  0  0  0
    1.5693    6.6085    0.0000 H   0  0  0  0  0  0  0  0  0  0  0  0
    1.4860    5.8158    0.0000 H   0  0  0  0  0  0  0  0  0  0  0  0
    2.7587    7.5675    0.0000 H   0  0  0  0  0  0  0  0  0  0  0  0
    2.0305    7.2433    0.0000 H   0  0  0  0  0  0  0  0  0  0  0  0
    6.8782   -1.3639    0.0000 H   0  0  0  0  0  0  0  0  0  0  0  0
    7.2767   -2.0541    0.0000 H   0  0  0  0  0  0  0  0  0  0  0  0
    7.8178   -2.2815    0.0000 H   0  0  0  0  0  0  0  0  0  0  0  0
    8.7533    0.5034    0.0000 H   0  0  0  0  0  0  0  0  0  0  0  0
    7.9562    0.5034    0.0000 H   0  0  0  0  0  0  0  0  0  0  0  0
    6.0121    0.1361    0.0000 H   0  0  0  0  0  0  0  0  0  0  0  0
    6.4107   -0.5541    0.0000 H   0  0  0  0  0  0  0  0  0  0  0  0
    9.8314   -0.5792    0.0000 H   0  0  0  0  0  0  0  0  0  0  0  0
    9.4328    0.1111    0.0000 H   0  0  0  0  0  0  0  0  0  0  0  0
    7.2333    0.9208    0.0000 H   0  0  0  0  0  0  0  0  0  0  0  0
    6.8348    1.6111    0.0000 H   0  0  0  0  0  0  0  0  0  0  0  0
    5.1461    1.6361    0.0000 H   0  0  0  0  0  0  0  0  0  0  0  0
    5.5446    0.9459    0.0000 H   0  0  0  0  0  0  0  0  0  0  0  0
    5.9441    4.2314    0.0000 H   0  0  0  0  0  0  0  0  0  0  0  0
    5.9900    5.1070    0.0000 H   0  0  0  0  0  0  0  0  0  0  0  0
    5.1144    5.1529    0.0000 H   0  0  0  0  0  0  0  0  0  0  0  0
    9.7577   -3.1615    0.0000 H   0  0  0  0  0  0  0  0  0  0  0  0
    6.9518   -3.1615    0.0000 H   0  0  0  0  0  0  0  0  0  0  0  0
    9.7577   -4.7815    0.0000 H   0  0  0  0  0  0  0  0  0  0  0  0
    6.9518   -4.7815    0.0000 H   0  0  0  0  0  0  0  0  0  0  0  0
  1 23  1  0  0  0  0
  1 25  1  0  0  0  0
  2 32  1  0  0  0  0
  3 32  1  0  0  0  0
  4 32  1  0  0  0  0
  5 18  1  0  0  0  0
  5 21  1  0  0  0  0
  6 17  1  0  0  0  0
  6 19  1  0  0  0  0
  6 20  1  0  0  0  0
  7 16  1  0  0  0  0
  7 23  1  0  0  0  0
  7 26  1  0  0  0  0
  8  9  1  0  0  0  0
  8 16  2  0  0  0  0
  9 23  2  0  0  0  0
 10 11  1  0  0  0  0
 10 12  1  0  0  0  0
 10 16  1  0  0  0  0
 10 33  1  0  0  0  0
 11 13  1  0  0  0  0
 11 34  1  0  0  0  0
 11 35  1  0  0  0  0
 12 14  1  0  0  0  0
 12 36  1  0  0  0  0
 12 37  1  0  0  0  0
 13 15  1  0  0  0  0
 13 38  1  0  0  0  0
 13 39  1  0  0  0  0
 14 15  1  0  0  0  0
 14 40  1  0  0  0  0
 14 41  1  0  0  0  0
 15 42  1  0  0  0  0
 15 43  1  0  0  0  0
 17 18  1  0  0  0  0
 17 44  1  0  0  0  0
 17 45  1  0  0  0  0
 18 24  1  0  0  0  0
 18 46  1  0  0  0  0
 19 21  1  0  0  0  0
 19 47  1  0  0  0  0
 19 48  1  0  0  0  0
 20 22  1  0  0  0  0
 20 49  1  0  0  0  0
 20 50  1  0  0  0  0
 21 51  1  0  0  0  0
 21 52  1  0  0  0  0
 22 25  1  0  0  0  0
 22 53  1  0  0  0  0
 22 54  1  0  0  0  0
 24 27  2  0  0  0  0
 24 28  1  0  0  0  0
 25 55  1  0  0  0  0
 25 56  1  0  0  0  0
 26 57  1  0  0  0  0
 26 58  1  0  0  0  0
 26 59  1  0  0  0  0
 27 29  1  0  0  0  0
 27 60  1  0  0  0  0
 28 30  2  0  0  0  0
 28 61  1  0  0  0  0
 29 31  2  0  0  0  0
 29 62  1  0  0  0  0
 30 31  1  0  0  0  0
 30 63  1  0  0  0  0
 31 32  1  0  0  0  0
M  END
> <PUBCHEM_COMPOUND_CID>
127040696

> <PUBCHEM_COMPOUND_CANONICALIZED>
1

> <PUBCHEM_CACTVS_COMPLEXITY>
570

> <PUBCHEM_CACTVS_HBOND_ACCEPTOR>
8

> <PUBCHEM_CACTVS_HBOND_DONOR>
0

> <PUBCHEM_CACTVS_ROTATABLE_BOND>
7

> <PUBCHEM_CACTVS_SUBSKEYS>
AAADceB7oYBAAAAAAAAAAAAAAAAAAWAAAAA8YIAAAAAAAAABwAAAHwQIAAAADRTl2xazEIcMFAiiAiJiJAAS0AtgALAdyAA4CIiKLiKguRmHMAAkyAOYqAeQwPAOQAAAAAAAAACAAAAAAAAAAAAAAAAAAA==

> <PUBCHEM_IUPAC_OPENEYE_NAME>
4-[3-[(5-cyclohexyl-4-methyl-1,2,4-triazol-3-yl)sulfanyl]propyl]-2-[4-(trifluoromethyl)phenyl]morpholine

> <PUBCHEM_IUPAC_CAS_NAME>
4-[3-[(5-cyclohexyl-4-methyl-1,2,4-triazol-3-yl)thio]propyl]-2-[4-(trifluoromethyl)phenyl]morpholine

> <PUBCHEM_IUPAC_NAME_MARKUP>
4-[3-[(5-cyclohexyl-4-methyl-1,2,4-triazol-3-yl)sulfanyl]propyl]-2-[4-(trifluoromethyl)phenyl]morpholine

> <PUBCHEM_IUPAC_NAME>
4-[3-[(5-cyclohexyl-4-methyl-1,2,4-triazol-3-yl)sulfanyl]propyl]-2-[4-(trifluoromethyl)phenyl]morpholine

> <PUBCHEM_IUPAC_SYSTEMATIC_NAME>
4-[3-[(5-cyclohexyl-4-methyl-1,2,4-triazol-3-yl)sulfanyl]propyl]-2-[4-(trifluoromethyl)phenyl]morpholine

> <PUBCHEM_IUPAC_TRADITIONAL_NAME>
4-[3-[(5-cyclohexyl-4-methyl-1,2,4-triazol-3-yl)thio]propyl]-2-[4-(trifluoromethyl)phenyl]morpholine

> <PUBCHEM_IUPAC_INCHI>
InChI=1S/C23H31F3N4OS/c1-29-21(18-6-3-2-4-7-18)27-28-22(29)32-15-5-12-30-13-14-31-20(16-30)17-8-10-19(11-9-17)23(24,25)26/h8-11,18,20H,2-7,12-16H2,1H3

> <PUBCHEM_IUPAC_INCHIKEY>
SNOYXNAOKVYMSM-UHFFFAOYSA-N

> <PUBCHEM_XLOGP3_AA>
4.9

> <PUBCHEM_EXACT_MASS>
468.21706728

> <PUBCHEM_MOLECULAR_FORMULA>
C23H31F3N4OS

> <PUBCHEM_MOLECULAR_WEIGHT>
468.6

> <PUBCHEM_OPENEYE_CAN_SMILES>
CN1C(=NN=C1SCCCN2CCOC(C2)C3=CC=C(C=C3)C(F)(F)F)C4CCCCC4

> <PUBCHEM_OPENEYE_ISO_SMILES>
CN1C(=NN=C1SCCCN2CCOC(C2)C3=CC=C(C=C3)C(F)(F)F)C4CCCCC4

> <PUBCHEM_CACTVS_TPSA>
68.5

> <PUBCHEM_MONOISOTOPIC_WEIGHT>
468.21706728

> <PUBCHEM_TOTAL_CHARGE>
0

> <PUBCHEM_HEAVY_ATOM_COUNT>
32

> <PUBCHEM_ATOM_DEF_STEREO_COUNT>
0

> <PUBCHEM_ATOM_UDEF_STEREO_COUNT>
1

> <PUBCHEM_BOND_DEF_STEREO_COUNT>
0

> <PUBCHEM_BOND_UDEF_STEREO_COUNT>
0

> <PUBCHEM_ISOTOPIC_ATOM_COUNT>
0

> <PUBCHEM_COMPONENT_COUNT>
1

> <PUBCHEM_CACTVS_TAUTO_COUNT>
-1

> <PUBCHEM_COORDINATE_TYPE>
1
5
255

> <PUBCHEM_BONDANNOTATIONS>
18  24  3
24  27  8
24  28  8
27  29  8
28  30  8
29  31  8
30  31  8
7  16  8
7  23  8
8  16  8
8  9  8
9  23  8

$$$$
