16717791
  -OEChem-09292322022D

 56 59  0     0  0  0  0  0  0999 V2000
    8.3069   -4.7430    0.0000 O   0  0  0  0  0  0  0  0  0  0  0  0
   11.8370   -3.7672    0.0000 O   0  0  0  0  0  0  0  0  0  0  0  0
    7.4409    0.7570    0.0000 N   0  0  0  0  0  0  0  0  0  0  0  0
   10.0669   -3.7777    0.0000 N   0  0  0  0  0  0  0  0  0  0  0  0
    6.5749    1.2570    0.0000 C   0  0  0  0  0  0  0  0  0  0  0  0
    6.4718    2.2457    0.0000 C   0  0  0  0  0  0  0  0  0  0  0  0
    5.6671    0.8519    0.0000 C   0  0  0  0  0  0  0  0  0  0  0  0
    5.5000    2.4549    0.0000 C   0  0  0  0  0  0  0  0  0  0  0  0
    5.0000    1.5889    0.0000 C   0  0  0  0  0  0  0  0  0  0  0  0
    5.0000    3.3210    0.0000 C   0  0  0  0  0  0  0  0  0  0  0  0
    4.0000    1.5889    0.0000 C   0  0  0  0  0  0  0  0  0  0  0  0
    4.0000    3.3210    0.0000 C   0  0  0  0  0  0  0  0  0  0  0  0
    3.5000    2.4549    0.0000 C   0  0  0  0  0  0  0  0  0  0  0  0
    7.4409   -0.2430    0.0000 C   0  0  0  0  0  0  0  0  0  0  0  0
    8.3069   -0.7430    0.0000 C   0  0  0  0  0  0  0  0  0  0  0  0
    3.5000    4.1870    0.0000 C   0  0  0  0  0  0  0  0  0  0  0  0
    2.5000    2.4549    0.0000 C   0  0  0  0  0  0  0  0  0  0  0  0
    8.3069   -1.7430    0.0000 C   0  0  0  0  0  0  0  0  0  0  0  0
    4.0000    5.0530    0.0000 C   0  0  0  0  0  0  0  0  0  0  0  0
    2.0000    1.5889    0.0000 C   0  0  0  0  0  0  0  0  0  0  0  0
    9.1730   -2.2430    0.0000 C   0  0  0  0  0  0  0  0  0  0  0  0
    7.4409   -2.2430    0.0000 C   0  0  0  0  0  0  0  0  0  0  0  0
    9.1730   -3.2430    0.0000 C   0  0  0  0  0  0  0  0  0  0  0  0
   10.0669   -1.7083    0.0000 C   0  0  0  0  0  0  0  0  0  0  0  0
    7.4409   -3.2430    0.0000 C   0  0  0  0  0  0  0  0  0  0  0  0
    8.3069   -3.7430    0.0000 C   0  0  0  0  0  0  0  0  0  0  0  0
   10.9730   -2.2222    0.0000 C   0  0  0  0  0  0  0  0  0  0  0  0
   10.9730   -3.2638    0.0000 C   0  0  0  0  0  0  0  0  0  0  0  0
    6.5427    0.6378    0.0000 H   0  0  0  0  0  0  0  0  0  0  0  0
    7.0918    2.2448    0.0000 H   0  0  0  0  0  0  0  0  0  0  0  0
    6.5379    2.8622    0.0000 H   0  0  0  0  0  0  0  0  0  0  0  0
    5.1662    0.4864    0.0000 H   0  0  0  0  0  0  0  0  0  0  0  0
    5.9779    0.3154    0.0000 H   0  0  0  0  0  0  0  0  0  0  0  0
    7.9778    1.0670    0.0000 H   0  0  0  0  0  0  0  0  0  0  0  0
    5.3100    3.8579    0.0000 H   0  0  0  0  0  0  0  0  0  0  0  0
    3.6900    1.0520    0.0000 H   0  0  0  0  0  0  0  0  0  0  0  0
    6.8303   -0.1353    0.0000 H   0  0  0  0  0  0  0  0  0  0  0  0
    7.2288   -0.8256    0.0000 H   0  0  0  0  0  0  0  0  0  0  0  0
    8.9175   -0.8507    0.0000 H   0  0  0  0  0  0  0  0  0  0  0  0
    8.5190   -0.1604    0.0000 H   0  0  0  0  0  0  0  0  0  0  0  0
    3.0250    4.5855    0.0000 H   0  0  0  0  0  0  0  0  0  0  0  0
    3.0250    3.7884    0.0000 H   0  0  0  0  0  0  0  0  0  0  0  0
    2.6077    3.0655    0.0000 H   0  0  0  0  0  0  0  0  0  0  0  0
    1.9174    2.6670    0.0000 H   0  0  0  0  0  0  0  0  0  0  0  0
    4.5369    4.7430    0.0000 H   0  0  0  0  0  0  0  0  0  0  0  0
    4.3100    5.5899    0.0000 H   0  0  0  0  0  0  0  0  0  0  0  0
    3.4631    5.3630    0.0000 H   0  0  0  0  0  0  0  0  0  0  0  0
    1.4631    1.8989    0.0000 H   0  0  0  0  0  0  0  0  0  0  0  0
    1.6900    1.0520    0.0000 H   0  0  0  0  0  0  0  0  0  0  0  0
    2.5369    1.2789    0.0000 H   0  0  0  0  0  0  0  0  0  0  0  0
    6.9040   -1.9330    0.0000 H   0  0  0  0  0  0  0  0  0  0  0  0
   10.0597   -1.0884    0.0000 H   0  0  0  0  0  0  0  0  0  0  0  0
    6.9040   -3.5530    0.0000 H   0  0  0  0  0  0  0  0  0  0  0  0
   10.0597   -4.3976    0.0000 H   0  0  0  0  0  0  0  0  0  0  0  0
   11.5087   -1.9101    0.0000 H   0  0  0  0  0  0  0  0  0  0  0  0
    7.7700   -5.0530    0.0000 H   0  0  0  0  0  0  0  0  0  0  0  0
  1 26  1  0  0  0  0
  1 56  1  0  0  0  0
  2 28  2  0  0  0  0
  3  5  1  0  0  0  0
  3 14  1  0  0  0  0
  3 34  1  0  0  0  0
  4 23  1  0  0  0  0
  4 28  1  0  0  0  0
  4 54  1  0  0  0  0
  5  6  1  0  0  0  0
  5  7  1  0  0  0  0
  5 29  1  0  0  0  0
  6  8  1  0  0  0  0
  6 30  1  0  0  0  0
  6 31  1  0  0  0  0
  7  9  1  0  0  0  0
  7 32  1  0  0  0  0
  7 33  1  0  0  0  0
  8  9  1  0  0  0  0
  8 10  2  0  0  0  0
  9 11  2  0  0  0  0
 10 12  1  0  0  0  0
 10 35  1  0  0  0  0
 11 13  1  0  0  0  0
 11 36  1  0  0  0  0
 12 13  2  0  0  0  0
 12 16  1  0  0  0  0
 13 17  1  0  0  0  0
 14 15  1  0  0  0  0
 14 37  1  0  0  0  0
 14 38  1  0  0  0  0
 15 18  1  0  0  0  0
 15 39  1  0  0  0  0
 15 40  1  0  0  0  0
 16 19  1  0  0  0  0
 16 41  1  0  0  0  0
 16 42  1  0  0  0  0
 17 20  1  0  0  0  0
 17 43  1  0  0  0  0
 17 44  1  0  0  0  0
 18 21  2  0  0  0  0
 18 22  1  0  0  0  0
 19 45  1  0  0  0  0
 19 46  1  0  0  0  0
 19 47  1  0  0  0  0
 20 48  1  0  0  0  0
 20 49  1  0  0  0  0
 20 50  1  0  0  0  0
 21 23  1  0  0  0  0
 21 24  1  0  0  0  0
 22 25  2  0  0  0  0
 22 51  1  0  0  0  0
 23 26  2  0  0  0  0
 24 27  2  0  0  0  0
 24 52  1  0  0  0  0
 25 26  1  0  0  0  0
 25 53  1  0  0  0  0
 27 28  1  0  0  0  0
 27 55  1  0  0  0  0
M  END
> <PUBCHEM_COMPOUND_CID>
16717791

> <PUBCHEM_COMPOUND_CANONICALIZED>
1

> <PUBCHEM_CACTVS_COMPLEXITY>
557

> <PUBCHEM_CACTVS_HBOND_ACCEPTOR>
3

> <PUBCHEM_CACTVS_HBOND_DONOR>
3

> <PUBCHEM_CACTVS_ROTATABLE_BOND>
6

> <PUBCHEM_CACTVS_SUBSKEYS>
AAADceB7MAAAAAAAAAAAAAAAAAAAAYAAAAAwYIAAAAAAAGCBQAAAHgAQCAAADCzBmAQyxoLAAgCIAiVSUACCAAAhIAAIiIAPTMgKJiLSkZOEcAhk1BHY2YeQwNAO4AADQAASEADAAAaAACQgACAACAAAAA==

> <PUBCHEM_IUPAC_OPENEYE_NAME>
5-[2-[(5,6-diethylindan-2-yl)amino]ethyl]-8-hydroxy-1H-quinolin-2-one

> <PUBCHEM_IUPAC_CAS_NAME>
5-[2-[(5,6-diethyl-2,3-dihydro-1H-inden-2-yl)amino]ethyl]-8-hydroxy-1H-quinolin-2-one

> <PUBCHEM_IUPAC_NAME_MARKUP>
5-[2-[(5,6-diethyl-2,3-dihydro-1<I>H</I>-inden-2-yl)amino]ethyl]-8-hydroxy-1<I>H</I>-quinolin-2-one

> <PUBCHEM_IUPAC_NAME>
5-[2-[(5,6-diethyl-2,3-dihydro-1H-inden-2-yl)amino]ethyl]-8-hydroxy-1H-quinolin-2-one

> <PUBCHEM_IUPAC_SYSTEMATIC_NAME>
5-[2-[(5,6-diethyl-2,3-dihydro-1H-inden-2-yl)amino]ethyl]-8-oxidanyl-1H-quinolin-2-one

> <PUBCHEM_IUPAC_TRADITIONAL_NAME>
5-[2-[(5,6-diethylindan-2-yl)amino]ethyl]-8-hydroxy-carbostyril

> <PUBCHEM_IUPAC_INCHI>
InChI=1S/C24H28N2O2/c1-3-15-11-18-13-20(14-19(18)12-16(15)4-2)25-10-9-17-5-7-22(27)24-21(17)6-8-23(28)26-24/h5-8,11-12,20,25,27H,3-4,9-10,13-14H2,1-2H3,(H,26,28)

> <PUBCHEM_IUPAC_INCHIKEY>
ZQWNZUAMWNPQGR-UHFFFAOYSA-N

> <PUBCHEM_XLOGP3_AA>
4.5

> <PUBCHEM_EXACT_MASS>
376.215078140

> <PUBCHEM_MOLECULAR_FORMULA>
C24H28N2O2

> <PUBCHEM_MOLECULAR_WEIGHT>
376.5

> <PUBCHEM_OPENEYE_CAN_SMILES>
CCC1=C(C=C2CC(CC2=C1)NCCC3=C4C=CC(=O)NC4=C(C=C3)O)CC

> <PUBCHEM_OPENEYE_ISO_SMILES>
CCC1=C(C=C2CC(CC2=C1)NCCC3=C4C=CC(=O)NC4=C(C=C3)O)CC

> <PUBCHEM_CACTVS_TPSA>
61.4

> <PUBCHEM_MONOISOTOPIC_WEIGHT>
376.215078140

> <PUBCHEM_TOTAL_CHARGE>
0

> <PUBCHEM_HEAVY_ATOM_COUNT>
28

> <PUBCHEM_ATOM_DEF_STEREO_COUNT>
0

> <PUBCHEM_ATOM_UDEF_STEREO_COUNT>
0

> <PUBCHEM_BOND_DEF_STEREO_COUNT>
0

> <PUBCHEM_BOND_UDEF_STEREO_COUNT>
0

> <PUBCHEM_ISOTOPIC_ATOM_COUNT>
0

> <PUBCHEM_COMPONENT_COUNT>
1

> <PUBCHEM_CACTVS_TAUTO_COUNT>
-1

> <PUBCHEM_COORDINATE_TYPE>
1
5
255

> <PUBCHEM_BONDANNOTATIONS>
10  12  8
11  13  8
12  13  8
18  21  8
18  22  8
21  23  8
21  24  8
22  25  8
23  26  8
24  27  8
25  26  8
27  28  8
4  23  8
4  28  8
8  10  8
8  9  8
9  11  8

$$$$
