44407346
  -OEChem-09292322272D

 79 82  0     0  0  0  0  0  0999 V2000
    6.4051   -4.2906    0.0000 F   0  0  0  0  0  0  0  0  0  0  0  0
    7.0659   -5.5409    0.0000 F   0  0  0  0  0  0  0  0  0  0  0  0
    5.8156   -6.2018    0.0000 F   0  0  0  0  0  0  0  0  0  0  0  0
    2.5092    2.9689    0.0000 O   0  0  0  0  0  0  0  0  0  0  0  0
    4.3301    6.7501    0.0000 O   0  0  0  0  0  0  0  0  0  0  0  0
    7.5535    3.6275    0.0000 O   0  0  0  0  0  0  0  0  0  0  0  0
    7.5535    5.6758    0.0000 O   0  0  0  0  0  0  0  0  0  0  0  0
    3.3091   -0.7570    0.0000 N   0  0  0  0  0  0  0  0  0  0  0  0
    3.7541   -2.7068    0.0000 N   0  0  0  0  0  0  0  0  0  0  0  0
    4.1076    3.5282    0.0000 N   0  0  0  0  0  0  0  0  0  0  0  0
    3.2436   -4.3619    0.0000 N   0  0  0  0  0  0  0  0  0  0  0  0
    4.4217   -5.6316    0.0000 N   0  0  0  0  0  0  0  0  0  0  0  0
    2.5760   -1.4371    0.0000 C   0  0  0  0  0  0  0  0  0  0  0  0
    4.2646   -1.0517    0.0000 C   0  0  0  0  0  0  0  0  0  0  0  0
    2.7985   -2.4121    0.0000 C   0  0  0  0  0  0  0  0  0  0  0  0
    4.4872   -2.0266    0.0000 C   0  0  0  0  0  0  0  0  0  0  0  0
    3.0866    0.2180    0.0000 C   0  0  0  0  0  0  0  0  0  0  0  0
    3.8196    0.8981    0.0000 C   0  0  0  0  0  0  0  0  0  0  0  0
    3.5971    1.8731    0.0000 C   0  0  0  0  0  0  0  0  0  0  0  0
    3.9766   -3.6818    0.0000 C   0  0  0  0  0  0  0  0  0  0  0  0
    4.3301    2.5532    0.0000 C   0  0  0  0  0  0  0  0  0  0  0  0
    2.7330   -6.0170    0.0000 C   0  0  0  0  0  0  0  0  0  0  0  0
    3.4661   -5.3368    0.0000 C   0  0  0  0  0  0  0  0  0  0  0  0
    4.9322   -3.9765    0.0000 C   0  0  0  0  0  0  0  0  0  0  0  0
    4.8894    4.1517    0.0000 C   0  0  0  0  0  0  0  0  0  0  0  0
    3.1327    3.7507    0.0000 C   0  0  0  0  0  0  0  0  0  0  0  0
    2.6988    4.6517    0.0000 C   0  0  0  0  0  0  0  0  0  0  0  0
    5.1547   -4.9514    0.0000 C   0  0  0  0  0  0  0  0  0  0  0  0
    4.8894    5.1517    0.0000 C   0  0  0  0  0  0  0  0  0  0  0  0
    3.1327    5.5526    0.0000 C   0  0  0  0  0  0  0  0  0  0  0  0
    2.0000   -6.6972    0.0000 C   0  0  0  0  0  0  0  0  0  0  0  0
    3.4132   -6.7501    0.0000 C   0  0  0  0  0  0  0  0  0  0  0  0
    2.0529   -5.2840    0.0000 C   0  0  0  0  0  0  0  0  0  0  0  0
    4.1076    5.7752    0.0000 C   0  0  0  0  0  0  0  0  0  0  0  0
    5.7834    3.6170    0.0000 C   0  0  0  0  0  0  0  0  0  0  0  0
    5.7834    5.6863    0.0000 C   0  0  0  0  0  0  0  0  0  0  0  0
    6.1103   -5.2462    0.0000 C   0  0  0  0  0  0  0  0  0  0  0  0
    6.6894    4.1308    0.0000 C   0  0  0  0  0  0  0  0  0  0  0  0
    6.6894    5.1725    0.0000 C   0  0  0  0  0  0  0  0  0  0  0  0
    7.5497    2.6275    0.0000 C   0  0  0  0  0  0  0  0  0  0  0  0
    7.5497    6.6758    0.0000 C   0  0  0  0  0  0  0  0  0  0  0  0
    2.2396   -0.9163    0.0000 H   0  0  0  0  0  0  0  0  0  0  0  0
    2.0047   -1.6780    0.0000 H   0  0  0  0  0  0  0  0  0  0  0  0
    4.8839   -1.0208    0.0000 H   0  0  0  0  0  0  0  0  0  0  0  0
    4.3417   -0.4365    0.0000 H   0  0  0  0  0  0  0  0  0  0  0  0
    2.1793   -2.4430    0.0000 H   0  0  0  0  0  0  0  0  0  0  0  0
    2.7214   -3.0272    0.0000 H   0  0  0  0  0  0  0  0  0  0  0  0
    4.8235   -2.5475    0.0000 H   0  0  0  0  0  0  0  0  0  0  0  0
    5.0585   -1.7858    0.0000 H   0  0  0  0  0  0  0  0  0  0  0  0
    2.7502    0.7388    0.0000 H   0  0  0  0  0  0  0  0  0  0  0  0
    2.5152   -0.0229    0.0000 H   0  0  0  0  0  0  0  0  0  0  0  0
    4.1560    0.3773    0.0000 H   0  0  0  0  0  0  0  0  0  0  0  0
    4.3909    1.1390    0.0000 H   0  0  0  0  0  0  0  0  0  0  0  0
    3.2607    2.3939    0.0000 H   0  0  0  0  0  0  0  0  0  0  0  0
    3.0258    1.6322    0.0000 H   0  0  0  0  0  0  0  0  0  0  0  0
    4.6665    2.0324    0.0000 H   0  0  0  0  0  0  0  0  0  0  0  0
    4.9014    2.7941    0.0000 H   0  0  0  0  0  0  0  0  0  0  0  0
    5.3867   -3.5548    0.0000 H   0  0  0  0  0  0  0  0  0  0  0  0
    2.2141    5.0382    0.0000 H   0  0  0  0  0  0  0  0  0  0  0  0
    2.2141    4.2651    0.0000 H   0  0  0  0  0  0  0  0  0  0  0  0
    3.1327    6.1726    0.0000 H   0  0  0  0  0  0  0  0  0  0  0  0
    2.5282    5.6906    0.0000 H   0  0  0  0  0  0  0  0  0  0  0  0
    1.5783   -6.2427    0.0000 H   0  0  0  0  0  0  0  0  0  0  0  0
    1.5455   -7.1189    0.0000 H   0  0  0  0  0  0  0  0  0  0  0  0
    2.4217   -7.1517    0.0000 H   0  0  0  0  0  0  0  0  0  0  0  0
    2.9587   -7.1718    0.0000 H   0  0  0  0  0  0  0  0  0  0  0  0
    3.8349   -7.2046    0.0000 H   0  0  0  0  0  0  0  0  0  0  0  0
    3.8677   -6.3284    0.0000 H   0  0  0  0  0  0  0  0  0  0  0  0
    2.5074   -4.8623    0.0000 H   0  0  0  0  0  0  0  0  0  0  0  0
    1.6312   -4.8295    0.0000 H   0  0  0  0  0  0  0  0  0  0  0  0
    1.5984   -5.7057    0.0000 H   0  0  0  0  0  0  0  0  0  0  0  0
    5.7762    2.9970    0.0000 H   0  0  0  0  0  0  0  0  0  0  0  0
    5.7762    6.3063    0.0000 H   0  0  0  0  0  0  0  0  0  0  0  0
    6.9297    2.6299    0.0000 H   0  0  0  0  0  0  0  0  0  0  0  0
    7.5473    2.0075    0.0000 H   0  0  0  0  0  0  0  0  0  0  0  0
    8.1697    2.6251    0.0000 H   0  0  0  0  0  0  0  0  0  0  0  0
    8.1697    6.6782    0.0000 H   0  0  0  0  0  0  0  0  0  0  0  0
    7.5473    7.2958    0.0000 H   0  0  0  0  0  0  0  0  0  0  0  0
    6.9297    6.6734    0.0000 H   0  0  0  0  0  0  0  0  0  0  0  0
  1 37  1  0  0  0  0
  2 37  1  0  0  0  0
  3 37  1  0  0  0  0
  4 26  2  0  0  0  0
  5 34  2  0  0  0  0
  6 38  1  0  0  0  0
  6 40  1  0  0  0  0
  7 39  1  0  0  0  0
  7 41  1  0  0  0  0
  8 13  1  0  0  0  0
  8 14  1  0  0  0  0
  8 17  1  0  0  0  0
  9 15  1  0  0  0  0
  9 16  1  0  0  0  0
  9 20  1  0  0  0  0
 10 21  1  0  0  0  0
 10 25  1  0  0  0  0
 10 26  1  0  0  0  0
 11 20  2  0  0  0  0
 11 23  1  0  0  0  0
 12 23  2  0  0  0  0
 12 28  1  0  0  0  0
 13 15  1  0  0  0  0
 13 42  1  0  0  0  0
 13 43  1  0  0  0  0
 14 16  1  0  0  0  0
 14 44  1  0  0  0  0
 14 45  1  0  0  0  0
 15 46  1  0  0  0  0
 15 47  1  0  0  0  0
 16 48  1  0  0  0  0
 16 49  1  0  0  0  0
 17 18  1  0  0  0  0
 17 50  1  0  0  0  0
 17 51  1  0  0  0  0
 18 19  1  0  0  0  0
 18 52  1  0  0  0  0
 18 53  1  0  0  0  0
 19 21  1  0  0  0  0
 19 54  1  0  0  0  0
 19 55  1  0  0  0  0
 20 24  1  0  0  0  0
 21 56  1  0  0  0  0
 21 57  1  0  0  0  0
 22 23  1  0  0  0  0
 22 31  1  0  0  0  0
 22 32  1  0  0  0  0
 22 33  1  0  0  0  0
 24 28  2  0  0  0  0
 24 58  1  0  0  0  0
 25 29  1  0  0  0  0
 25 35  2  0  0  0  0
 26 27  1  0  0  0  0
 27 30  1  0  0  0  0
 27 59  1  0  0  0  0
 27 60  1  0  0  0  0
 28 37  1  0  0  0  0
 29 34  1  0  0  0  0
 29 36  2  0  0  0  0
 30 34  1  0  0  0  0
 30 61  1  0  0  0  0
 30 62  1  0  0  0  0
 31 63  1  0  0  0  0
 31 64  1  0  0  0  0
 31 65  1  0  0  0  0
 32 66  1  0  0  0  0
 32 67  1  0  0  0  0
 32 68  1  0  0  0  0
 33 69  1  0  0  0  0
 33 70  1  0  0  0  0
 33 71  1  0  0  0  0
 35 38  1  0  0  0  0
 35 72  1  0  0  0  0
 36 39  1  0  0  0  0
 36 73  1  0  0  0  0
 38 39  2  0  0  0  0
 40 74  1  0  0  0  0
 40 75  1  0  0  0  0
 40 76  1  0  0  0  0
 41 77  1  0  0  0  0
 41 78  1  0  0  0  0
 41 79  1  0  0  0  0
M  END
> <PUBCHEM_COMPOUND_CID>
44407346

> <PUBCHEM_COMPOUND_CANONICALIZED>
1

> <PUBCHEM_CACTVS_COMPLEXITY>
893

> <PUBCHEM_CACTVS_HBOND_ACCEPTOR>
11

> <PUBCHEM_CACTVS_HBOND_DONOR>
0

> <PUBCHEM_CACTVS_ROTATABLE_BOND>
9

> <PUBCHEM_CACTVS_SUBSKEYS>
AAADcfB7uYAAAAAAAAAAAAAAAAAAAAAAAAA8WIAABYAAAAABwAAAHwAAAAAADgzBnxYz9pcIFACoA6dydACCiCklIqABmCE+7NiNbjrE/NuUNapuxhvK6ee/3LPOIEABAgACQABAgAIEAASAAAAAAAAAAA==

> <PUBCHEM_IUPAC_OPENEYE_NAME>
1-[4-[4-[2-tert-butyl-6-(trifluoromethyl)pyrimidin-4-yl]piperazin-1-yl]butyl]-7,8-dimethoxy-3,4-dihydro-1-benzazepine-2,5-dione

> <PUBCHEM_IUPAC_CAS_NAME>
1-[4-[4-[2-tert-butyl-6-(trifluoromethyl)-4-pyrimidinyl]-1-piperazinyl]butyl]-7,8-dimethoxy-3,4-dihydro-1-benzazepine-2,5-dione

> <PUBCHEM_IUPAC_NAME_MARKUP>
1-[4-[4-[2-<I>tert</I>-butyl-6-(trifluoromethyl)pyrimidin-4-yl]piperazin-1-yl]butyl]-7,8-dimethoxy-3,4-dihydro-1-benzazepine-2,5-dione

> <PUBCHEM_IUPAC_NAME>
1-[4-[4-[2-tert-butyl-6-(trifluoromethyl)pyrimidin-4-yl]piperazin-1-yl]butyl]-7,8-dimethoxy-3,4-dihydro-1-benzazepine-2,5-dione

> <PUBCHEM_IUPAC_SYSTEMATIC_NAME>
1-[4-[4-[2-tert-butyl-6-(trifluoromethyl)pyrimidin-4-yl]piperazin-1-yl]butyl]-7,8-dimethoxy-3,4-dihydro-1-benzazepine-2,5-dione

> <PUBCHEM_IUPAC_TRADITIONAL_NAME>
1-[4-[4-[2-tert-butyl-6-(trifluoromethyl)pyrimidin-4-yl]piperazino]butyl]-7,8-dimethoxy-3,4-dihydro-1-benzazepine-2,5-quinone

> <PUBCHEM_IUPAC_INCHI>
InChI=1S/C29H38F3N5O4/c1-28(2,3)27-33-24(29(30,31)32)18-25(34-27)36-14-12-35(13-15-36)10-6-7-11-37-20-17-23(41-5)22(40-4)16-19(20)21(38)8-9-26(37)39/h16-18H,6-15H2,1-5H3

> <PUBCHEM_IUPAC_INCHIKEY>
KTJXBGFKGUUNHP-UHFFFAOYSA-N

> <PUBCHEM_XLOGP3_AA>
4.2

> <PUBCHEM_EXACT_MASS>
577.28758920

> <PUBCHEM_MOLECULAR_FORMULA>
C29H38F3N5O4

> <PUBCHEM_MOLECULAR_WEIGHT>
577.6

> <PUBCHEM_OPENEYE_CAN_SMILES>
CC(C)(C)C1=NC(=CC(=N1)N2CCN(CC2)CCCCN3C(=O)CCC(=O)C4=CC(=C(C=C43)OC)OC)C(F)(F)F

> <PUBCHEM_OPENEYE_ISO_SMILES>
CC(C)(C)C1=NC(=CC(=N1)N2CCN(CC2)CCCCN3C(=O)CCC(=O)C4=CC(=C(C=C43)OC)OC)C(F)(F)F

> <PUBCHEM_CACTVS_TPSA>
88.1

> <PUBCHEM_MONOISOTOPIC_WEIGHT>
577.28758920

> <PUBCHEM_TOTAL_CHARGE>
0

> <PUBCHEM_HEAVY_ATOM_COUNT>
41

> <PUBCHEM_ATOM_DEF_STEREO_COUNT>
0

> <PUBCHEM_ATOM_UDEF_STEREO_COUNT>
0

> <PUBCHEM_BOND_DEF_STEREO_COUNT>
0

> <PUBCHEM_BOND_UDEF_STEREO_COUNT>
0

> <PUBCHEM_ISOTOPIC_ATOM_COUNT>
0

> <PUBCHEM_COMPONENT_COUNT>
1

> <PUBCHEM_CACTVS_TAUTO_COUNT>
-1

> <PUBCHEM_COORDINATE_TYPE>
1
5
255

> <PUBCHEM_BONDANNOTATIONS>
11  20  8
11  23  8
12  23  8
12  28  8
20  24  8
24  28  8
25  29  8
25  35  8
29  36  8
35  38  8
36  39  8
38  39  8

$$$$
