44387740
  -OEChem-09292322522D

 45 47  0     0  0  0  0  0  0999 V2000
    4.5981    2.7500    0.0000 S   0  0  0  0  0  0  0  0  0  0  0  0
    2.0000   -2.7500    0.0000 F   0  0  0  0  0  0  0  0  0  0  0  0
    3.7320   -5.7500    0.0000 F   0  0  0  0  0  0  0  0  0  0  0  0
    5.5981    2.7500    0.0000 O   0  0  0  0  0  0  0  0  0  0  0  0
    3.5981    2.7500    0.0000 O   0  0  0  0  0  0  0  0  0  0  0  0
    2.8660   -1.2500    0.0000 O   0  0  0  0  0  0  0  0  0  0  0  0
    4.5981   -0.2500    0.0000 N   0  0  0  0  0  0  0  0  0  0  0  0
    4.5981    1.7500    0.0000 C   0  0  0  0  0  0  0  0  0  0  0  0
    5.4641    1.2500    0.0000 C   0  0  0  0  0  0  0  0  0  0  0  0
    3.7320    1.2500    0.0000 C   0  0  0  0  0  0  0  0  0  0  0  0
    5.4641    0.2500    0.0000 C   0  0  0  0  0  0  0  0  0  0  0  0
    3.7320    0.2500    0.0000 C   0  0  0  0  0  0  0  0  0  0  0  0
    4.5981   -1.2500    0.0000 C   0  0  0  0  0  0  0  0  0  0  0  0
    4.5981    3.7500    0.0000 C   0  0  0  0  0  0  0  0  0  0  0  0
    3.7320   -1.7500    0.0000 C   0  0  0  0  0  0  0  0  0  0  0  0
    5.4641    4.2500    0.0000 C   0  0  0  0  0  0  0  0  0  0  0  0
    3.7320    4.2500    0.0000 C   0  0  0  0  0  0  0  0  0  0  0  0
    3.7320   -2.7500    0.0000 C   0  0  0  0  0  0  0  0  0  0  0  0
    5.4641    5.2500    0.0000 C   0  0  0  0  0  0  0  0  0  0  0  0
    3.7320    5.2500    0.0000 C   0  0  0  0  0  0  0  0  0  0  0  0
    4.5981    5.7500    0.0000 C   0  0  0  0  0  0  0  0  0  0  0  0
    2.8660   -3.2500    0.0000 C   0  0  0  0  0  0  0  0  0  0  0  0
    4.5981   -3.2500    0.0000 C   0  0  0  0  0  0  0  0  0  0  0  0
    2.8660   -4.2500    0.0000 C   0  0  0  0  0  0  0  0  0  0  0  0
    4.5981   -4.2500    0.0000 C   0  0  0  0  0  0  0  0  0  0  0  0
    3.7320   -4.7500    0.0000 C   0  0  0  0  0  0  0  0  0  0  0  0
    5.1350    2.0600    0.0000 H   0  0  0  0  0  0  0  0  0  0  0  0
    6.0747    1.1423    0.0000 H   0  0  0  0  0  0  0  0  0  0  0  0
    5.6762    1.8326    0.0000 H   0  0  0  0  0  0  0  0  0  0  0  0
    3.5200    1.8326    0.0000 H   0  0  0  0  0  0  0  0  0  0  0  0
    3.1215    1.1423    0.0000 H   0  0  0  0  0  0  0  0  0  0  0  0
    5.6762   -0.3326    0.0000 H   0  0  0  0  0  0  0  0  0  0  0  0
    6.0747    0.3577    0.0000 H   0  0  0  0  0  0  0  0  0  0  0  0
    3.1215    0.3577    0.0000 H   0  0  0  0  0  0  0  0  0  0  0  0
    3.5200   -0.3326    0.0000 H   0  0  0  0  0  0  0  0  0  0  0  0
    4.8101   -1.8326    0.0000 H   0  0  0  0  0  0  0  0  0  0  0  0
    5.2087   -1.1423    0.0000 H   0  0  0  0  0  0  0  0  0  0  0  0
    6.0010    3.9400    0.0000 H   0  0  0  0  0  0  0  0  0  0  0  0
    3.1951    3.9400    0.0000 H   0  0  0  0  0  0  0  0  0  0  0  0
    6.0010    5.5600    0.0000 H   0  0  0  0  0  0  0  0  0  0  0  0
    3.1951    5.5600    0.0000 H   0  0  0  0  0  0  0  0  0  0  0  0
    4.5981    6.3700    0.0000 H   0  0  0  0  0  0  0  0  0  0  0  0
    5.1350   -2.9400    0.0000 H   0  0  0  0  0  0  0  0  0  0  0  0
    2.3291   -4.5600    0.0000 H   0  0  0  0  0  0  0  0  0  0  0  0
    5.1350   -4.5600    0.0000 H   0  0  0  0  0  0  0  0  0  0  0  0
  1  4  2  0  0  0  0
  1  5  2  0  0  0  0
  1  8  1  0  0  0  0
  1 14  1  0  0  0  0
  2 22  1  0  0  0  0
  3 26  1  0  0  0  0
  6 15  2  0  0  0  0
  7 11  1  0  0  0  0
  7 12  1  0  0  0  0
  7 13  1  0  0  0  0
  8  9  1  0  0  0  0
  8 10  1  0  0  0  0
  8 27  1  0  0  0  0
  9 11  1  0  0  0  0
  9 28  1  0  0  0  0
  9 29  1  0  0  0  0
 10 12  1  0  0  0  0
 10 30  1  0  0  0  0
 10 31  1  0  0  0  0
 11 32  1  0  0  0  0
 11 33  1  0  0  0  0
 12 34  1  0  0  0  0
 12 35  1  0  0  0  0
 13 15  1  0  0  0  0
 13 36  1  0  0  0  0
 13 37  1  0  0  0  0
 14 16  2  0  0  0  0
 14 17  1  0  0  0  0
 15 18  1  0  0  0  0
 16 19  1  0  0  0  0
 16 38  1  0  0  0  0
 17 20  2  0  0  0  0
 17 39  1  0  0  0  0
 18 22  2  0  0  0  0
 18 23  1  0  0  0  0
 19 21  2  0  0  0  0
 19 40  1  0  0  0  0
 20 21  1  0  0  0  0
 20 41  1  0  0  0  0
 21 42  1  0  0  0  0
 22 24  1  0  0  0  0
 23 25  2  0  0  0  0
 23 43  1  0  0  0  0
 24 26  2  0  0  0  0
 24 44  1  0  0  0  0
 25 26  1  0  0  0  0
 25 45  1  0  0  0  0
M  END
> <PUBCHEM_COMPOUND_CID>
44387740

> <PUBCHEM_COMPOUND_CANONICALIZED>
1

> <PUBCHEM_CACTVS_COMPLEXITY>
578

> <PUBCHEM_CACTVS_HBOND_ACCEPTOR>
6

> <PUBCHEM_CACTVS_HBOND_DONOR>
0

> <PUBCHEM_CACTVS_ROTATABLE_BOND>
5

> <PUBCHEM_CACTVS_SUBSKEYS>
AAADceB6MYBAAAAAAAAAAAAAAAAAAAAAAAA8YIAAAAAAAAABQAAAHwQAAAAADATF2AywAYMAAAqIAqBSAHBCAAAkCBAIiBmIAMgIIDKglTGEIQAggACoiYcYiICOAAAAAAAAAAAAAAAAAAAAAAAAAAAAAA==

> <PUBCHEM_IUPAC_OPENEYE_NAME>
2-[4-(benzenesulfonyl)-1-piperidyl]-1-(2,4-difluorophenyl)ethanone

> <PUBCHEM_IUPAC_CAS_NAME>
2-[4-(benzenesulfonyl)-1-piperidinyl]-1-(2,4-difluorophenyl)ethanone

> <PUBCHEM_IUPAC_NAME_MARKUP>
2-[4-(benzenesulfonyl)piperidin-1-yl]-1-(2,4-difluorophenyl)ethanone

> <PUBCHEM_IUPAC_NAME>
2-[4-(benzenesulfonyl)piperidin-1-yl]-1-(2,4-difluorophenyl)ethanone

> <PUBCHEM_IUPAC_SYSTEMATIC_NAME>
1-[2,4-bis(fluoranyl)phenyl]-2-[4-(phenylsulfonyl)piperidin-1-yl]ethanone

> <PUBCHEM_IUPAC_TRADITIONAL_NAME>
2-(4-besylpiperidino)-1-(2,4-difluorophenyl)ethanone

> <PUBCHEM_IUPAC_INCHI>
InChI=1S/C19H19F2NO3S/c20-14-6-7-17(18(21)12-14)19(23)13-22-10-8-16(9-11-22)26(24,25)15-4-2-1-3-5-15/h1-7,12,16H,8-11,13H2

> <PUBCHEM_IUPAC_INCHIKEY>
LMNQDRKEXMRDPO-UHFFFAOYSA-N

> <PUBCHEM_XLOGP3_AA>
3.4

> <PUBCHEM_EXACT_MASS>
379.10537097

> <PUBCHEM_MOLECULAR_FORMULA>
C19H19F2NO3S

> <PUBCHEM_MOLECULAR_WEIGHT>
379.4

> <PUBCHEM_OPENEYE_CAN_SMILES>
C1CN(CCC1S(=O)(=O)C2=CC=CC=C2)CC(=O)C3=C(C=C(C=C3)F)F

> <PUBCHEM_OPENEYE_ISO_SMILES>
C1CN(CCC1S(=O)(=O)C2=CC=CC=C2)CC(=O)C3=C(C=C(C=C3)F)F

> <PUBCHEM_CACTVS_TPSA>
62.8

> <PUBCHEM_MONOISOTOPIC_WEIGHT>
379.10537097

> <PUBCHEM_TOTAL_CHARGE>
0

> <PUBCHEM_HEAVY_ATOM_COUNT>
26

> <PUBCHEM_ATOM_DEF_STEREO_COUNT>
0

> <PUBCHEM_ATOM_UDEF_STEREO_COUNT>
0

> <PUBCHEM_BOND_DEF_STEREO_COUNT>
0

> <PUBCHEM_BOND_UDEF_STEREO_COUNT>
0

> <PUBCHEM_ISOTOPIC_ATOM_COUNT>
0

> <PUBCHEM_COMPONENT_COUNT>
1

> <PUBCHEM_CACTVS_TAUTO_COUNT>
-1

> <PUBCHEM_COORDINATE_TYPE>
1
5
255

> <PUBCHEM_BONDANNOTATIONS>
14  16  8
14  17  8
16  19  8
17  20  8
18  22  8
18  23  8
19  21  8
20  21  8
22  24  8
23  25  8
24  26  8
25  26  8

$$$$
