53320009
  -OEChem-09292322072D

 56 60  0     1  0  0  0  0  0999 V2000
    8.1224    0.2846    0.0000 S   0  0  0  0  0  0  0  0  0  0  0  0
    9.1224    0.2846    0.0000 O   0  0  0  0  0  0  0  0  0  0  0  0
    7.1224    0.2846    0.0000 O   0  0  0  0  0  0  0  0  0  0  0  0
    8.1224    4.2846    0.0000 O   0  0  0  0  0  0  0  0  0  0  0  0
    4.5923    1.2605    0.0000 N   0  0  0  0  0  0  0  0  0  0  0  0
    2.8641    0.2538    0.0000 N   0  0  0  0  0  0  0  0  0  0  0  0
    8.1224    1.2846    0.0000 N   0  0  3  0  0  0  0  0  0  0  0  0
    3.7243    1.7571    0.0000 C   0  0  0  0  0  0  0  0  0  0  0  0
    4.5961    0.2605    0.0000 C   0  0  0  0  0  0  0  0  0  0  0  0
    2.8602    1.2538    0.0000 C   0  0  0  0  0  0  0  0  0  0  0  0
    3.7320   -0.2428    0.0000 C   0  0  0  0  0  0  0  0  0  0  0  0
    5.4564    1.7638    0.0000 C   0  0  0  0  0  0  0  0  0  0  0  0
    7.2564    1.7846    0.0000 C   0  0  0  0  0  0  0  0  0  0  0  0
    8.9884    1.7846    0.0000 C   0  0  0  0  0  0  0  0  0  0  0  0
    7.2564    2.7846    0.0000 C   0  0  0  0  0  0  0  0  0  0  0  0
    6.3624    1.2500    0.0000 C   0  0  0  0  0  0  0  0  0  0  0  0
    8.9884    2.7846    0.0000 C   0  0  0  0  0  0  0  0  0  0  0  0
    8.1224    3.2846    0.0000 C   0  0  0  0  0  0  0  0  0  0  0  0
    5.4564    2.8054    0.0000 C   0  0  0  0  0  0  0  0  0  0  0  0
    6.3624    3.3193    0.0000 C   0  0  0  0  0  0  0  0  0  0  0  0
    2.0000   -0.2495    0.0000 C   0  0  0  0  0  0  0  0  0  0  0  0
    8.1224   -0.7154    0.0000 C   0  0  0  0  0  0  0  0  0  0  0  0
    8.9884   -1.2154    0.0000 C   0  0  0  0  0  0  0  0  0  0  0  0
    7.2564   -1.2154    0.0000 C   0  0  0  0  0  0  0  0  0  0  0  0
    8.9884   -2.2154    0.0000 C   0  0  0  0  0  0  0  0  0  0  0  0
    8.1224   -2.7154    0.0000 C   0  0  0  0  0  0  0  0  0  0  0  0
    7.2564   -2.2154    0.0000 C   0  0  0  0  0  0  0  0  0  0  0  0
    9.8984   -2.7222    0.0000 C   0  0  0  0  0  0  0  0  0  0  0  0
    8.1063   -3.7569    0.0000 C   0  0  0  0  0  0  0  0  0  0  0  0
    9.9065   -3.7638    0.0000 C   0  0  0  0  0  0  0  0  0  0  0  0
    9.0044   -4.2846    0.0000 C   0  0  0  0  0  0  0  0  0  0  0  0
    4.1210    2.2336    0.0000 H   0  0  0  0  0  0  0  0  0  0  0  0
    3.3240    2.2306    0.0000 H   0  0  0  0  0  0  0  0  0  0  0  0
    4.8104   -0.3213    0.0000 H   0  0  0  0  0  0  0  0  0  0  0  0
    5.2063    0.3705    0.0000 H   0  0  0  0  0  0  0  0  0  0  0  0
    2.6459    1.8356    0.0000 H   0  0  0  0  0  0  0  0  0  0  0  0
    2.2501    1.1438    0.0000 H   0  0  0  0  0  0  0  0  0  0  0  0
    3.3353   -0.7193    0.0000 H   0  0  0  0  0  0  0  0  0  0  0  0
    4.1324   -0.7163    0.0000 H   0  0  0  0  0  0  0  0  0  0  0  0
    9.2005    1.2020    0.0000 H   0  0  0  0  0  0  0  0  0  0  0  0
    9.5990    1.8923    0.0000 H   0  0  0  0  0  0  0  0  0  0  0  0
    6.3696    0.6300    0.0000 H   0  0  0  0  0  0  0  0  0  0  0  0
    9.5990    2.6770    0.0000 H   0  0  0  0  0  0  0  0  0  0  0  0
    9.2005    3.3672    0.0000 H   0  0  0  0  0  0  0  0  0  0  0  0
    4.9206    3.1175    0.0000 H   0  0  0  0  0  0  0  0  0  0  0  0
    6.3696    3.9392    0.0000 H   0  0  0  0  0  0  0  0  0  0  0  0
    1.6879    0.2862    0.0000 H   0  0  0  0  0  0  0  0  0  0  0  0
    1.4643   -0.5616    0.0000 H   0  0  0  0  0  0  0  0  0  0  0  0
    2.3121   -0.7853    0.0000 H   0  0  0  0  0  0  0  0  0  0  0  0
    9.5254   -0.9054    0.0000 H   0  0  0  0  0  0  0  0  0  0  0  0
    6.7194   -0.9054    0.0000 H   0  0  0  0  0  0  0  0  0  0  0  0
    6.7194   -2.5254    0.0000 H   0  0  0  0  0  0  0  0  0  0  0  0
   10.4317   -2.4060    0.0000 H   0  0  0  0  0  0  0  0  0  0  0  0
    7.5659   -4.0606    0.0000 H   0  0  0  0  0  0  0  0  0  0  0  0
   10.4446   -4.0717    0.0000 H   0  0  0  0  0  0  0  0  0  0  0  0
    9.0020   -4.9046    0.0000 H   0  0  0  0  0  0  0  0  0  0  0  0
  1  2  2  0  0  0  0
  1  3  2  0  0  0  0
  1  7  1  0  0  0  0
  1 22  1  0  0  0  0
  4 18  2  0  0  0  0
  5  8  1  0  0  0  0
  5  9  1  0  0  0  0
  5 12  1  0  0  0  0
  6 10  1  0  0  0  0
  6 11  1  0  0  0  0
  6 21  1  0  0  0  0
  7 13  1  0  0  0  0
  7 14  1  0  0  0  0
  8 10  1  0  0  0  0
  8 32  1  0  0  0  0
  8 33  1  0  0  0  0
  9 11  1  0  0  0  0
  9 34  1  0  0  0  0
  9 35  1  0  0  0  0
 10 36  1  0  0  0  0
 10 37  1  0  0  0  0
 11 38  1  0  0  0  0
 11 39  1  0  0  0  0
 12 16  2  0  0  0  0
 12 19  1  0  0  0  0
 13 15  2  0  0  0  0
 13 16  1  0  0  0  0
 14 17  1  0  0  0  0
 14 40  1  0  0  0  0
 14 41  1  0  0  0  0
 15 18  1  0  0  0  0
 15 20  1  0  0  0  0
 16 42  1  0  0  0  0
 17 18  1  0  0  0  0
 17 43  1  0  0  0  0
 17 44  1  0  0  0  0
 19 20  2  0  0  0  0
 19 45  1  0  0  0  0
 20 46  1  0  0  0  0
 21 47  1  0  0  0  0
 21 48  1  0  0  0  0
 21 49  1  0  0  0  0
 22 23  2  0  0  0  0
 22 24  1  0  0  0  0
 23 25  1  0  0  0  0
 23 50  1  0  0  0  0
 24 27  2  0  0  0  0
 24 51  1  0  0  0  0
 25 26  1  0  0  0  0
 25 28  2  0  0  0  0
 26 27  1  0  0  0  0
 26 29  2  0  0  0  0
 27 52  1  0  0  0  0
 28 30  1  0  0  0  0
 28 53  1  0  0  0  0
 29 31  1  0  0  0  0
 29 54  1  0  0  0  0
 30 31  2  0  0  0  0
 30 55  1  0  0  0  0
 31 56  1  0  0  0  0
M  END
> <PUBCHEM_COMPOUND_CID>
53320009

> <PUBCHEM_COMPOUND_CANONICALIZED>
1

> <PUBCHEM_CACTVS_COMPLEXITY>
759

> <PUBCHEM_CACTVS_HBOND_ACCEPTOR>
6

> <PUBCHEM_CACTVS_HBOND_DONOR>
0

> <PUBCHEM_CACTVS_ROTATABLE_BOND>
3

> <PUBCHEM_CACTVS_SUBSKEYS>
AAADceB7MABAAAAAAAAAAAAAAAAAAAAAAAA8eMECAAAAAADxVAAAHgQAQAAADAzB2AQywcMAAAKIAqRSQHDCABAlAgAIiBkIZMgIYDrA1dGUIYhggADIyccYiYCemAAAgAQSAAAwAAEACCQAAAAAAAAAAA==

> <PUBCHEM_IUPAC_OPENEYE_NAME>
7-(4-methylpiperazin-1-yl)-1-(2-naphthylsulfonyl)-2,3-dihydroquinolin-4-one

> <PUBCHEM_IUPAC_CAS_NAME>
7-(4-methyl-1-piperazinyl)-1-(2-naphthalenylsulfonyl)-2,3-dihydroquinolin-4-one

> <PUBCHEM_IUPAC_NAME_MARKUP>
7-(4-methylpiperazin-1-yl)-1-naphthalen-2-ylsulfonyl-2,3-dihydroquinolin-4-one

> <PUBCHEM_IUPAC_NAME>
7-(4-methylpiperazin-1-yl)-1-naphthalen-2-ylsulfonyl-2,3-dihydroquinolin-4-one

> <PUBCHEM_IUPAC_SYSTEMATIC_NAME>
7-(4-methylpiperazin-1-yl)-1-naphthalen-2-ylsulfonyl-2,3-dihydroquinolin-4-one

> <PUBCHEM_IUPAC_TRADITIONAL_NAME>
7-(4-methylpiperazino)-1-(2-naphthylsulfonyl)-2,3-dihydroquinolin-4-one

> <PUBCHEM_IUPAC_INCHI>
InChI=1S/C24H25N3O3S/c1-25-12-14-26(15-13-25)20-7-9-22-23(17-20)27(11-10-24(22)28)31(29,30)21-8-6-18-4-2-3-5-19(18)16-21/h2-9,16-17H,10-15H2,1H3

> <PUBCHEM_IUPAC_INCHIKEY>
YLSBAGZHIBFNRL-UHFFFAOYSA-N

> <PUBCHEM_XLOGP3_AA>
3.3

> <PUBCHEM_EXACT_MASS>
435.16166284

> <PUBCHEM_MOLECULAR_FORMULA>
C24H25N3O3S

> <PUBCHEM_MOLECULAR_WEIGHT>
435.5

> <PUBCHEM_OPENEYE_CAN_SMILES>
CN1CCN(CC1)C2=CC3=C(C=C2)C(=O)CCN3S(=O)(=O)C4=CC5=CC=CC=C5C=C4

> <PUBCHEM_OPENEYE_ISO_SMILES>
CN1CCN(CC1)C2=CC3=C(C=C2)C(=O)CCN3S(=O)(=O)C4=CC5=CC=CC=C5C=C4

> <PUBCHEM_CACTVS_TPSA>
69.3

> <PUBCHEM_MONOISOTOPIC_WEIGHT>
435.16166284

> <PUBCHEM_TOTAL_CHARGE>
0

> <PUBCHEM_HEAVY_ATOM_COUNT>
31

> <PUBCHEM_ATOM_DEF_STEREO_COUNT>
0

> <PUBCHEM_ATOM_UDEF_STEREO_COUNT>
0

> <PUBCHEM_BOND_DEF_STEREO_COUNT>
0

> <PUBCHEM_BOND_UDEF_STEREO_COUNT>
0

> <PUBCHEM_ISOTOPIC_ATOM_COUNT>
0

> <PUBCHEM_COMPONENT_COUNT>
1

> <PUBCHEM_CACTVS_TAUTO_COUNT>
-1

> <PUBCHEM_COORDINATE_TYPE>
1
5
255

> <PUBCHEM_BONDANNOTATIONS>
12  16  8
12  19  8
13  15  8
13  16  8
15  20  8
19  20  8
22  23  8
22  24  8
23  25  8
24  27  8
25  26  8
25  28  8
26  27  8
26  29  8
28  30  8
29  31  8
30  31  8

$$$$
