45273211
  -OEChem-09292321592D

 70 74  0     1  0  0  0  0  0999 V2000
   14.8045   -2.6092    0.0000 O   0  0  0  0  0  0  0  0  0  0  0  0
    6.1279   -2.5746    0.0000 O   0  0  0  0  0  0  0  0  0  0  0  0
   11.3241    0.4254    0.0000 N   0  0  3  0  0  0  0  0  0  0  0  0
    8.7260   -0.0746    0.0000 N   0  0  0  0  0  0  0  0  0  0  0  0
    6.9939   -1.0746    0.0000 N   0  0  0  0  0  0  0  0  0  0  0  0
    2.5836    0.2301    0.0000 N   0  0  0  0  0  0  0  0  0  0  0  0
   12.1901   -0.0746    0.0000 C   0  0  1  0  0  0  0  0  0  0  0  0
   12.1901   -1.0746    0.0000 C   0  0  0  0  0  0  0  0  0  0  0  0
   13.0561    0.4254    0.0000 C   0  0  0  0  0  0  0  0  0  0  0  0
   10.4580   -0.0746    0.0000 C   0  0  0  0  0  0  0  0  0  0  0  0
   13.0561   -1.5746    0.0000 C   0  0  0  0  0  0  0  0  0  0  0  0
    9.5920    0.4254    0.0000 C   0  0  0  0  0  0  0  0  0  0  0  0
   13.9221   -0.0746    0.0000 C   0  0  0  0  0  0  0  0  0  0  0  0
   13.9221   -1.0746    0.0000 C   0  0  0  0  0  0  0  0  0  0  0  0
   11.3241    1.4254    0.0000 C   0  0  0  0  0  0  0  0  0  0  0  0
    7.8600    0.4254    0.0000 C   0  0  0  0  0  0  0  0  0  0  0  0
    8.7260   -1.0746    0.0000 C   0  0  0  0  0  0  0  0  0  0  0  0
    6.9939   -0.0746    0.0000 C   0  0  0  0  0  0  0  0  0  0  0  0
    7.8600   -1.5746    0.0000 C   0  0  0  0  0  0  0  0  0  0  0  0
   10.4580    1.9254    0.0000 C   0  0  0  0  0  0  0  0  0  0  0  0
   14.8161    0.4601    0.0000 C   0  0  0  0  0  0  0  0  0  0  0  0
   14.8161   -1.6093    0.0000 C   0  0  0  0  0  0  0  0  0  0  0  0
   15.7221   -0.0538    0.0000 C   0  0  0  0  0  0  0  0  0  0  0  0
   15.7221   -1.0954    0.0000 C   0  0  0  0  0  0  0  0  0  0  0  0
   10.4580    2.9254    0.0000 C   0  0  0  0  0  0  0  0  0  0  0  0
    6.1279   -1.5746    0.0000 C   0  0  0  0  0  0  0  0  0  0  0  0
    5.2619   -1.0746    0.0000 C   0  0  0  0  0  0  0  0  0  0  0  0
    4.3958   -1.5746    0.0000 C   0  0  0  0  0  0  0  0  0  0  0  0
    5.2619   -0.0746    0.0000 C   0  0  0  0  0  0  0  0  0  0  0  0
    3.5298   -1.0746    0.0000 C   0  0  0  0  0  0  0  0  0  0  0  0
    3.5298   -0.0746    0.0000 C   0  0  0  0  0  0  0  0  0  0  0  0
    4.3958    0.4254    0.0000 C   0  0  0  0  0  0  0  0  0  0  0  0
    2.5836   -1.3793    0.0000 C   0  0  0  0  0  0  0  0  0  0  0  0
    2.0000   -0.5746    0.0000 C   0  0  0  0  0  0  0  0  0  0  0  0
   11.6531   -0.3846    0.0000 H   0  0  0  0  0  0  0  0  0  0  0  0
   11.5795   -0.9669    0.0000 H   0  0  0  0  0  0  0  0  0  0  0  0
   11.9780   -1.6572    0.0000 H   0  0  0  0  0  0  0  0  0  0  0  0
   13.4546    0.9003    0.0000 H   0  0  0  0  0  0  0  0  0  0  0  0
   12.6576    0.9003    0.0000 H   0  0  0  0  0  0  0  0  0  0  0  0
   10.0595   -0.5496    0.0000 H   0  0  0  0  0  0  0  0  0  0  0  0
   10.8566   -0.5496    0.0000 H   0  0  0  0  0  0  0  0  0  0  0  0
   12.6576   -2.0496    0.0000 H   0  0  0  0  0  0  0  0  0  0  0  0
   13.4546   -2.0496    0.0000 H   0  0  0  0  0  0  0  0  0  0  0  0
    9.9905    0.9003    0.0000 H   0  0  0  0  0  0  0  0  0  0  0  0
    9.1935    0.9003    0.0000 H   0  0  0  0  0  0  0  0  0  0  0  0
   11.9346    1.3177    0.0000 H   0  0  0  0  0  0  0  0  0  0  0  0
   11.5361    2.0080    0.0000 H   0  0  0  0  0  0  0  0  0  0  0  0
    8.2585    0.9003    0.0000 H   0  0  0  0  0  0  0  0  0  0  0  0
    7.4614    0.9003    0.0000 H   0  0  0  0  0  0  0  0  0  0  0  0
    8.9380   -1.6572    0.0000 H   0  0  0  0  0  0  0  0  0  0  0  0
    9.3366   -0.9669    0.0000 H   0  0  0  0  0  0  0  0  0  0  0  0
    6.7819    0.5080    0.0000 H   0  0  0  0  0  0  0  0  0  0  0  0
    6.3834   -0.1823    0.0000 H   0  0  0  0  0  0  0  0  0  0  0  0
    7.4614   -2.0496    0.0000 H   0  0  0  0  0  0  0  0  0  0  0  0
    8.2585   -2.0496    0.0000 H   0  0  0  0  0  0  0  0  0  0  0  0
    9.8474    2.0330    0.0000 H   0  0  0  0  0  0  0  0  0  0  0  0
   10.2460    1.3428    0.0000 H   0  0  0  0  0  0  0  0  0  0  0  0
   14.8089    1.0800    0.0000 H   0  0  0  0  0  0  0  0  0  0  0  0
   16.2579    0.2583    0.0000 H   0  0  0  0  0  0  0  0  0  0  0  0
   16.2579   -1.4075    0.0000 H   0  0  0  0  0  0  0  0  0  0  0  0
   11.0780    2.9254    0.0000 H   0  0  0  0  0  0  0  0  0  0  0  0
   10.4580    3.5454    0.0000 H   0  0  0  0  0  0  0  0  0  0  0  0
    9.8380    2.9254    0.0000 H   0  0  0  0  0  0  0  0  0  0  0  0
   15.3378   -2.9254    0.0000 H   0  0  0  0  0  0  0  0  0  0  0  0
    4.3958   -2.1946    0.0000 H   0  0  0  0  0  0  0  0  0  0  0  0
    5.7988    0.2354    0.0000 H   0  0  0  0  0  0  0  0  0  0  0  0
    4.3958    1.0454    0.0000 H   0  0  0  0  0  0  0  0  0  0  0  0
    2.3910   -1.9687    0.0000 H   0  0  0  0  0  0  0  0  0  0  0  0
    2.3910    0.8194    0.0000 H   0  0  0  0  0  0  0  0  0  0  0  0
    1.3800   -0.5746    0.0000 H   0  0  0  0  0  0  0  0  0  0  0  0
  1 22  1  0  0  0  0
  1 64  1  0  0  0  0
  2 26  2  0  0  0  0
  7  3  1  6  0  0  0
  3 10  1  0  0  0  0
  3 15  1  0  0  0  0
  4 12  1  0  0  0  0
  4 16  1  0  0  0  0
  4 17  1  0  0  0  0
  5 18  1  0  0  0  0
  5 19  1  0  0  0  0
  5 26  1  0  0  0  0
  6 31  1  0  0  0  0
  6 34  1  0  0  0  0
  6 69  1  0  0  0  0
  7  8  1  0  0  0  0
  7  9  1  0  0  0  0
  7 35  1  0  0  0  0
  8 11  1  0  0  0  0
  8 36  1  0  0  0  0
  8 37  1  0  0  0  0
  9 13  1  0  0  0  0
  9 38  1  0  0  0  0
  9 39  1  0  0  0  0
 10 12  1  0  0  0  0
 10 40  1  0  0  0  0
 10 41  1  0  0  0  0
 11 14  1  0  0  0  0
 11 42  1  0  0  0  0
 11 43  1  0  0  0  0
 12 44  1  0  0  0  0
 12 45  1  0  0  0  0
 13 14  2  0  0  0  0
 13 21  1  0  0  0  0
 14 22  1  0  0  0  0
 15 20  1  0  0  0  0
 15 46  1  0  0  0  0
 15 47  1  0  0  0  0
 16 18  1  0  0  0  0
 16 48  1  0  0  0  0
 16 49  1  0  0  0  0
 17 19  1  0  0  0  0
 17 50  1  0  0  0  0
 17 51  1  0  0  0  0
 18 52  1  0  0  0  0
 18 53  1  0  0  0  0
 19 54  1  0  0  0  0
 19 55  1  0  0  0  0
 20 25  1  0  0  0  0
 20 56  1  0  0  0  0
 20 57  1  0  0  0  0
 21 23  2  0  0  0  0
 21 58  1  0  0  0  0
 22 24  2  0  0  0  0
 23 24  1  0  0  0  0
 23 59  1  0  0  0  0
 24 60  1  0  0  0  0
 25 61  1  0  0  0  0
 25 62  1  0  0  0  0
 25 63  1  0  0  0  0
 26 27  1  0  0  0  0
 27 28  2  0  0  0  0
 27 29  1  0  0  0  0
 28 30  1  0  0  0  0
 28 65  1  0  0  0  0
 29 32  2  0  0  0  0
 29 66  1  0  0  0  0
 30 31  2  0  0  0  0
 30 33  1  0  0  0  0
 31 32  1  0  0  0  0
 32 67  1  0  0  0  0
 33 34  2  0  0  0  0
 33 68  1  0  0  0  0
 34 70  1  0  0  0  0
M  END
> <PUBCHEM_COMPOUND_CID>
45273211

> <PUBCHEM_COMPOUND_CANONICALIZED>
1

> <PUBCHEM_CACTVS_COMPLEXITY>
667

> <PUBCHEM_CACTVS_HBOND_ACCEPTOR>
4

> <PUBCHEM_CACTVS_HBOND_DONOR>
2

> <PUBCHEM_CACTVS_ROTATABLE_BOND>
7

> <PUBCHEM_CACTVS_SUBSKEYS>
AAADcfB7sAAAAAAAAAAAAAAAAAAAAWAAAAA8YMEAAAAAAFjB9AAAHgAQCAAADCzBngQ+xvPJkgCoAzV3VACCgCA1IiAI2aE+bNgIZvLClZOUcQhk1hHI2YeY2fOeiAADAAAaAAAQAAaAADQAAAAAAAAAAA==

> <PUBCHEM_IUPAC_OPENEYE_NAME>
[4-[2-[[(2S)-5-hydroxytetralin-2-yl]-propyl-amino]ethyl]piperazin-1-yl]-(1H-indol-5-yl)methanone

> <PUBCHEM_IUPAC_CAS_NAME>
[4-[2-[[(2S)-5-hydroxy-1,2,3,4-tetrahydronaphthalen-2-yl]-propylamino]ethyl]-1-piperazinyl]-(1H-indol-5-yl)methanone

> <PUBCHEM_IUPAC_NAME_MARKUP>
[4-[2-[[(2<I>S</I>)-5-hydroxy-1,2,3,4-tetrahydronaphthalen-2-yl]-propylamino]ethyl]piperazin-1-yl]-(1<I>H</I>-indol-5-yl)methanone

> <PUBCHEM_IUPAC_NAME>
[4-[2-[[(2S)-5-hydroxy-1,2,3,4-tetrahydronaphthalen-2-yl]-propylamino]ethyl]piperazin-1-yl]-(1H-indol-5-yl)methanone

> <PUBCHEM_IUPAC_SYSTEMATIC_NAME>
1H-indol-5-yl-[4-[2-[[(2S)-5-oxidanyl-1,2,3,4-tetrahydronaphthalen-2-yl]-propyl-amino]ethyl]piperazin-1-yl]methanone

> <PUBCHEM_IUPAC_TRADITIONAL_NAME>
[4-[2-[[(2S)-5-hydroxytetralin-2-yl]-propyl-amino]ethyl]piperazino]-(1H-indol-5-yl)methanone

> <PUBCHEM_IUPAC_INCHI>
InChI=1S/C28H36N4O2/c1-2-12-31(24-7-8-25-21(20-24)4-3-5-27(25)33)16-13-30-14-17-32(18-15-30)28(34)23-6-9-26-22(19-23)10-11-29-26/h3-6,9-11,19,24,29,33H,2,7-8,12-18,20H2,1H3/t24-/m0/s1

> <PUBCHEM_IUPAC_INCHIKEY>
HMYBAZWTOQSPCY-DEOSSOPVSA-N

> <PUBCHEM_XLOGP3_AA>
4.3

> <PUBCHEM_EXACT_MASS>
460.28382640

> <PUBCHEM_MOLECULAR_FORMULA>
C28H36N4O2

> <PUBCHEM_MOLECULAR_WEIGHT>
460.6

> <PUBCHEM_OPENEYE_CAN_SMILES>
CCCN(CCN1CCN(CC1)C(=O)C2=CC3=C(C=C2)NC=C3)C4CCC5=C(C4)C=CC=C5O

> <PUBCHEM_OPENEYE_ISO_SMILES>
CCCN(CCN1CCN(CC1)C(=O)C2=CC3=C(C=C2)NC=C3)[C@H]4CCC5=C(C4)C=CC=C5O

> <PUBCHEM_CACTVS_TPSA>
62.8

> <PUBCHEM_MONOISOTOPIC_WEIGHT>
460.28382640

> <PUBCHEM_TOTAL_CHARGE>
0

> <PUBCHEM_HEAVY_ATOM_COUNT>
34

> <PUBCHEM_ATOM_DEF_STEREO_COUNT>
1

> <PUBCHEM_ATOM_UDEF_STEREO_COUNT>
0

> <PUBCHEM_BOND_DEF_STEREO_COUNT>
0

> <PUBCHEM_BOND_UDEF_STEREO_COUNT>
0

> <PUBCHEM_ISOTOPIC_ATOM_COUNT>
0

> <PUBCHEM_COMPONENT_COUNT>
1

> <PUBCHEM_CACTVS_TAUTO_COUNT>
-1

> <PUBCHEM_COORDINATE_TYPE>
1
5
255

> <PUBCHEM_BONDANNOTATIONS>
13  14  8
13  21  8
14  22  8
21  23  8
22  24  8
23  24  8
27  28  8
27  29  8
28  30  8
29  32  8
7  3  6
30  31  8
30  33  8
31  32  8
33  34  8
6  31  8
6  34  8

$$$$
