44182375
  -OEChem-09292322052D

 31 33  0     1  0  0  0  0  0999 V2000
    3.8936   -0.8047    0.0000 S   0  0  0  0  0  0  0  0  0  0  0  0
    9.1017   -0.0000    0.0000 N   0  0  0  0  0  0  0  0  0  0  0  0
    3.8936    0.8047    0.0000 N   0  0  0  0  0  0  0  0  0  0  0  0
    2.3100   -0.0000    0.0000 N   0  0  0  0  0  0  0  0  0  0  0  0
    8.1017   -0.0000    0.0000 C   0  0  1  0  0  0  0  0  0  0  0  0
    7.5181   -0.8047    0.0000 C   0  0  0  0  0  0  0  0  0  0  0  0
    7.5181    0.8047    0.0000 C   0  0  0  0  0  0  0  0  0  0  0  0
    6.5719   -0.5000    0.0000 C   0  0  0  0  0  0  0  0  0  0  0  0
    6.5719    0.5000    0.0000 C   0  0  0  0  0  0  0  0  0  0  0  0
    5.7058   -1.0000    0.0000 C   0  0  0  0  0  0  0  0  0  0  0  0
    5.7058    1.0000    0.0000 C   0  0  0  0  0  0  0  0  0  0  0  0
    4.8398   -0.5000    0.0000 C   0  0  0  0  0  0  0  0  0  0  0  0
    4.8398    0.5000    0.0000 C   0  0  0  0  0  0  0  0  0  0  0  0
    9.6017   -0.8660    0.0000 C   0  0  0  0  0  0  0  0  0  0  0  0
   10.6017   -0.8660    0.0000 C   0  0  0  0  0  0  0  0  0  0  0  0
    3.3100   -0.0000    0.0000 C   0  0  0  0  0  0  0  0  0  0  0  0
    8.3834    0.5523    0.0000 H   0  0  0  0  0  0  0  0  0  0  0  0
    7.2671   -1.3716    0.0000 H   0  0  0  0  0  0  0  0  0  0  0  0
    8.0555   -1.1140    0.0000 H   0  0  0  0  0  0  0  0  0  0  0  0
    8.0555    1.1140    0.0000 H   0  0  0  0  0  0  0  0  0  0  0  0
    7.2671    1.3716    0.0000 H   0  0  0  0  0  0  0  0  0  0  0  0
    9.4117    0.5369    0.0000 H   0  0  0  0  0  0  0  0  0  0  0  0
    5.7058   -1.6200    0.0000 H   0  0  0  0  0  0  0  0  0  0  0  0
    5.7058    1.6200    0.0000 H   0  0  0  0  0  0  0  0  0  0  0  0
    9.0191   -1.0781    0.0000 H   0  0  0  0  0  0  0  0  0  0  0  0
    9.7094   -1.4766    0.0000 H   0  0  0  0  0  0  0  0  0  0  0  0
   10.6017   -1.4860    0.0000 H   0  0  0  0  0  0  0  0  0  0  0  0
   11.2217   -0.8660    0.0000 H   0  0  0  0  0  0  0  0  0  0  0  0
   10.6017   -0.2460    0.0000 H   0  0  0  0  0  0  0  0  0  0  0  0
    2.0000    0.5369    0.0000 H   0  0  0  0  0  0  0  0  0  0  0  0
    2.0000   -0.5369    0.0000 H   0  0  0  0  0  0  0  0  0  0  0  0
  1 12  1  0  0  0  0
  1 16  1  0  0  0  0
  5  2  1  1  0  0  0
  2 14  1  0  0  0  0
  2 22  1  0  0  0  0
  3 13  1  0  0  0  0
  3 16  2  0  0  0  0
  4 16  1  0  0  0  0
  4 30  1  0  0  0  0
  4 31  1  0  0  0  0
  5  6  1  0  0  0  0
  5  7  1  0  0  0  0
  5 17  1  0  0  0  0
  6  8  1  0  0  0  0
  6 18  1  0  0  0  0
  6 19  1  0  0  0  0
  7  9  1  0  0  0  0
  7 20  1  0  0  0  0
  7 21  1  0  0  0  0
  8  9  1  0  0  0  0
  8 10  2  0  0  0  0
  9 11  2  0  0  0  0
 10 12  1  0  0  0  0
 10 23  1  0  0  0  0
 11 13  1  0  0  0  0
 11 24  1  0  0  0  0
 12 13  2  0  0  0  0
 14 15  1  0  0  0  0
 14 25  1  0  0  0  0
 14 26  1  0  0  0  0
 15 27  1  0  0  0  0
 15 28  1  0  0  0  0
 15 29  1  0  0  0  0
M  END
> <PUBCHEM_COMPOUND_CID>
44182375

> <PUBCHEM_COMPOUND_CANONICALIZED>
1

> <PUBCHEM_CACTVS_COMPLEXITY>
261

> <PUBCHEM_CACTVS_HBOND_ACCEPTOR>
4

> <PUBCHEM_CACTVS_HBOND_DONOR>
2

> <PUBCHEM_CACTVS_ROTATABLE_BOND>
2

> <PUBCHEM_CACTVS_SUBSKEYS>
AAADccBzAABAAAAAAAAAAAAAAAAAAeIAAAAwAAAAAAAAAHgB8AAAHAQQAAAADCjBXgQz0bLIEAikAyRiZACD8KlhCjlAmLw4ZJiIIKLgkZGEIAhgkALIyCcQgIAOmAAAwAAQAQAwAAGAACACACAACAAAAA==

> <PUBCHEM_IUPAC_OPENEYE_NAME>
(6R)-N6-ethyl-6,7-dihydro-5H-cyclopenta[f][1,3]benzothiazole-2,6-diamine

> <PUBCHEM_IUPAC_CAS_NAME>
(6R)-N6-ethyl-6,7-dihydro-5H-cyclopenta[f][1,3]benzothiazole-2,6-diamine

> <PUBCHEM_IUPAC_NAME_MARKUP>
(6<I>R</I>)-6-<I>N</I>-ethyl-6,7-dihydro-5<I>H</I>-cyclopenta[f][1,3]benzothiazole-2,6-diamine

> <PUBCHEM_IUPAC_NAME>
(6R)-6-N-ethyl-6,7-dihydro-5H-cyclopenta[f][1,3]benzothiazole-2,6-diamine

> <PUBCHEM_IUPAC_SYSTEMATIC_NAME>
(6R)-N6-ethyl-6,7-dihydro-5H-cyclopenta[f][1,3]benzothiazole-2,6-diamine

> <PUBCHEM_IUPAC_TRADITIONAL_NAME>
[(6R)-2-amino-6,7-dihydro-5H-cyclopenta[f][1,3]benzothiazol-6-yl]-ethyl-amine

> <PUBCHEM_IUPAC_INCHI>
InChI=1S/C12H15N3S/c1-2-14-9-3-7-5-10-11(6-8(7)4-9)16-12(13)15-10/h5-6,9,14H,2-4H2,1H3,(H2,13,15)/t9-/m1/s1

> <PUBCHEM_IUPAC_INCHIKEY>
GTXFOEHPKNATLV-SECBINFHSA-N

> <PUBCHEM_XLOGP3_AA>
2.3

> <PUBCHEM_EXACT_MASS>
233.09866866

> <PUBCHEM_MOLECULAR_FORMULA>
C12H15N3S

> <PUBCHEM_MOLECULAR_WEIGHT>
233.33

> <PUBCHEM_OPENEYE_CAN_SMILES>
CCNC1CC2=CC3=C(C=C2C1)SC(=N3)N

> <PUBCHEM_OPENEYE_ISO_SMILES>
CCN[C@@H]1CC2=CC3=C(C=C2C1)SC(=N3)N

> <PUBCHEM_CACTVS_TPSA>
79.2

> <PUBCHEM_MONOISOTOPIC_WEIGHT>
233.09866866

> <PUBCHEM_TOTAL_CHARGE>
0

> <PUBCHEM_HEAVY_ATOM_COUNT>
16

> <PUBCHEM_ATOM_DEF_STEREO_COUNT>
1

> <PUBCHEM_ATOM_UDEF_STEREO_COUNT>
0

> <PUBCHEM_BOND_DEF_STEREO_COUNT>
0

> <PUBCHEM_BOND_UDEF_STEREO_COUNT>
0

> <PUBCHEM_ISOTOPIC_ATOM_COUNT>
0

> <PUBCHEM_COMPONENT_COUNT>
1

> <PUBCHEM_CACTVS_TAUTO_COUNT>
-1

> <PUBCHEM_COORDINATE_TYPE>
1
5
255

> <PUBCHEM_BONDANNOTATIONS>
1  12  8
1  16  8
10  12  8
11  13  8
12  13  8
5  2  5
3  13  8
3  16  8
8  10  8
8  9  8
9  11  8

$$$$
