25130509
  -OEChem-09292322232D

 48 52  0     1  0  0  0  0  0999 V2000
    9.5993    3.5649    0.0000 Cl  0  0  0  0  0  0  0  0  0  0  0  0
    8.0254    4.7989    0.0000 Cl  0  0  0  0  0  0  0  0  0  0  0  0
    2.0000   -2.7989    0.0000 F   0  0  0  0  0  0  0  0  0  0  0  0
    6.6749    1.4558    0.0000 O   0  0  0  0  0  0  0  0  0  0  0  0
    5.5443   -4.6036    0.0000 O   0  0  0  0  0  0  0  0  0  0  0  0
    6.8335   -1.8374    0.0000 N   0  0  0  0  0  0  0  0  0  0  0  0
    8.6029   -0.8917    0.0000 C   0  0  2  0  0  0  0  0  0  0  0  0
    8.0568   -1.7295    0.0000 C   0  0  1  0  0  0  0  0  0  0  0  0
    7.4618    0.8388    0.0000 C   0  0  0  0  0  0  0  0  0  0  0  0
    8.4317    0.5952    0.0000 C   0  0  0  0  0  0  0  0  0  0  0  0
    6.9305   -0.0083    0.0000 C   0  0  0  0  0  0  0  0  0  0  0  0
    9.9158   -1.5932    0.0000 C   0  0  0  0  0  0  0  0  0  0  0  0
    9.3698   -2.4309    0.0000 C   0  0  0  0  0  0  0  0  0  0  0  0
    5.8550   -2.0436    0.0000 C   0  0  0  0  0  0  0  0  0  0  0  0
    7.6027    1.8288    0.0000 C   0  0  0  0  0  0  0  0  0  0  0  0
    5.5443   -2.9942    0.0000 C   0  0  0  0  0  0  0  0  0  0  0  0
    8.5306    2.2018    0.0000 C   0  0  0  0  0  0  0  0  0  0  0  0
    6.8158    2.4458    0.0000 C   0  0  0  0  0  0  0  0  0  0  0  0
    4.5981   -3.2989    0.0000 C   0  0  0  0  0  0  0  0  0  0  0  0
    6.1279   -3.7989    0.0000 C   0  0  0  0  0  0  0  0  0  0  0  0
    8.6714    3.1918    0.0000 C   0  0  0  0  0  0  0  0  0  0  0  0
    6.9567    3.4359    0.0000 C   0  0  0  0  0  0  0  0  0  0  0  0
    4.5981   -4.2989    0.0000 C   0  0  0  0  0  0  0  0  0  0  0  0
    7.8845    3.8089    0.0000 C   0  0  0  0  0  0  0  0  0  0  0  0
    3.7320   -2.7989    0.0000 C   0  0  0  0  0  0  0  0  0  0  0  0
    3.7320   -4.7989    0.0000 C   0  0  0  0  0  0  0  0  0  0  0  0
    2.8660   -3.2989    0.0000 C   0  0  0  0  0  0  0  0  0  0  0  0
    2.8660   -4.2989    0.0000 C   0  0  0  0  0  0  0  0  0  0  0  0
    9.0670   -0.1797    0.0000 H   0  0  0  0  0  0  0  0  0  0  0  0
    7.5926   -2.4415    0.0000 H   0  0  0  0  0  0  0  0  0  0  0  0
    9.0517    0.5917    0.0000 H   0  0  0  0  0  0  0  0  0  0  0  0
    8.5095    1.2103    0.0000 H   0  0  0  0  0  0  0  0  0  0  0  0
    6.4578    0.3929    0.0000 H   0  0  0  0  0  0  0  0  0  0  0  0
    6.4656   -0.4186    0.0000 H   0  0  0  0  0  0  0  0  0  0  0  0
   10.4448   -1.9165    0.0000 H   0  0  0  0  0  0  0  0  0  0  0  0
   10.2237   -1.0550    0.0000 H   0  0  0  0  0  0  0  0  0  0  0  0
    9.0619   -2.9690    0.0000 H   0  0  0  0  0  0  0  0  0  0  0  0
    9.8988   -2.7542    0.0000 H   0  0  0  0  0  0  0  0  0  0  0  0
    5.8344   -1.4240    0.0000 H   0  0  0  0  0  0  0  0  0  0  0  0
    5.2411   -1.9563    0.0000 H   0  0  0  0  0  0  0  0  0  0  0  0
    6.0996    1.2246    0.0000 H   0  0  0  0  0  0  0  0  0  0  0  0
    9.0185    1.8193    0.0000 H   0  0  0  0  0  0  0  0  0  0  0  0
    6.2405    2.2146    0.0000 H   0  0  0  0  0  0  0  0  0  0  0  0
    6.7479   -3.7989    0.0000 H   0  0  0  0  0  0  0  0  0  0  0  0
    6.4688    3.8184    0.0000 H   0  0  0  0  0  0  0  0  0  0  0  0
    3.7320   -2.1789    0.0000 H   0  0  0  0  0  0  0  0  0  0  0  0
    3.7320   -5.4189    0.0000 H   0  0  0  0  0  0  0  0  0  0  0  0
    2.3291   -4.6089    0.0000 H   0  0  0  0  0  0  0  0  0  0  0  0
  1 21  1  0  0  0  0
  2 24  1  0  0  0  0
  3 27  1  0  0  0  0
  4  9  1  0  0  0  0
  4 41  1  0  0  0  0
  5 20  1  0  0  0  0
  5 23  1  0  0  0  0
  6  7  1  0  0  0  0
  6  8  1  0  0  0  0
  6 14  1  0  0  0  0
  7 10  1  0  0  0  0
  7 12  1  0  0  0  0
  7 29  1  1  0  0  0
  8 11  1  0  0  0  0
  8 13  1  0  0  0  0
  8 30  1  6  0  0  0
  9 10  1  0  0  0  0
  9 11  1  0  0  0  0
  9 15  1  0  0  0  0
 10 31  1  0  0  0  0
 10 32  1  0  0  0  0
 11 33  1  0  0  0  0
 11 34  1  0  0  0  0
 12 13  1  0  0  0  0
 12 35  1  0  0  0  0
 12 36  1  0  0  0  0
 13 37  1  0  0  0  0
 13 38  1  0  0  0  0
 14 16  1  0  0  0  0
 14 39  1  0  0  0  0
 14 40  1  0  0  0  0
 15 17  2  0  0  0  0
 15 18  1  0  0  0  0
 16 19  1  0  0  0  0
 16 20  2  0  0  0  0
 17 21  1  0  0  0  0
 17 42  1  0  0  0  0
 18 22  2  0  0  0  0
 18 43  1  0  0  0  0
 19 23  2  0  0  0  0
 19 25  1  0  0  0  0
 20 44  1  0  0  0  0
 21 24  2  0  0  0  0
 22 24  1  0  0  0  0
 22 45  1  0  0  0  0
 23 26  1  0  0  0  0
 25 27  2  0  0  0  0
 25 46  1  0  0  0  0
 26 28  2  0  0  0  0
 26 47  1  0  0  0  0
 27 28  1  0  0  0  0
 28 48  1  0  0  0  0
M  END
> <PUBCHEM_COMPOUND_CID>
25130509

> <PUBCHEM_COMPOUND_CANONICALIZED>
1

> <PUBCHEM_CACTVS_COMPLEXITY>
567

> <PUBCHEM_CACTVS_HBOND_ACCEPTOR>
4

> <PUBCHEM_CACTVS_HBOND_DONOR>
1

> <PUBCHEM_CACTVS_ROTATABLE_BOND>
3

> <PUBCHEM_CACTVS_SUBSKEYS>
AAADceB6MQAGAAAAAAAAAAAAAAAAAWJAAAA8YIAABgAAAEgB9AAAHwIACAAADG7hmC4wBsMABkCIAqhSgACCCAAkJQAIikEODsgMJjqFtxuGeSjmwBGIuYe8yOCOhAAAIAAIAAQIAABAABAACAAAAAAAAA==

> <PUBCHEM_IUPAC_OPENEYE_NAME>
(1S,5R)-3-(3,4-dichlorophenyl)-8-[(5-fluorobenzofuran-3-yl)methyl]-8-azabicyclo[3.2.1]octan-3-ol

> <PUBCHEM_IUPAC_CAS_NAME>
(1S,5R)-3-(3,4-dichlorophenyl)-8-[(5-fluoro-3-benzofuranyl)methyl]-8-azabicyclo[3.2.1]octan-3-ol

> <PUBCHEM_IUPAC_NAME_MARKUP>
(1<I>S</I>,5<I>R</I>)-3-(3,4-dichlorophenyl)-8-[(5-fluoro-1-benzofuran-3-yl)methyl]-8-azabicyclo[3.2.1]octan-3-ol

> <PUBCHEM_IUPAC_NAME>
(1S,5R)-3-(3,4-dichlorophenyl)-8-[(5-fluoro-1-benzofuran-3-yl)methyl]-8-azabicyclo[3.2.1]octan-3-ol

> <PUBCHEM_IUPAC_SYSTEMATIC_NAME>
(1S,5R)-3-(3,4-dichlorophenyl)-8-[(5-fluoranyl-1-benzofuran-3-yl)methyl]-8-azabicyclo[3.2.1]octan-3-ol

> <PUBCHEM_IUPAC_TRADITIONAL_NAME>
(1S,5R)-3-(3,4-dichlorophenyl)-8-[(5-fluorobenzofuran-3-yl)methyl]-8-azabicyclo[3.2.1]octan-3-ol

> <PUBCHEM_IUPAC_INCHI>
InChI=1S/C22H20Cl2FNO2/c23-19-5-1-14(7-20(19)24)22(27)9-16-3-4-17(10-22)26(16)11-13-12-28-21-6-2-15(25)8-18(13)21/h1-2,5-8,12,16-17,27H,3-4,9-11H2/t16-,17+,22?

> <PUBCHEM_IUPAC_INCHIKEY>
CYOBJTAQBGDFGU-AQKKSAQBSA-N

> <PUBCHEM_XLOGP3_AA>
5.3

> <PUBCHEM_EXACT_MASS>
419.0855124

> <PUBCHEM_MOLECULAR_FORMULA>
C22H20Cl2FNO2

> <PUBCHEM_MOLECULAR_WEIGHT>
420.3

> <PUBCHEM_OPENEYE_CAN_SMILES>
C1CC2CC(CC1N2CC3=COC4=C3C=C(C=C4)F)(C5=CC(=C(C=C5)Cl)Cl)O

> <PUBCHEM_OPENEYE_ISO_SMILES>
C1C[C@H]2CC(C[C@@H]1N2CC3=COC4=C3C=C(C=C4)F)(C5=CC(=C(C=C5)Cl)Cl)O

> <PUBCHEM_CACTVS_TPSA>
36.6

> <PUBCHEM_MONOISOTOPIC_WEIGHT>
419.0855124

> <PUBCHEM_TOTAL_CHARGE>
0

> <PUBCHEM_HEAVY_ATOM_COUNT>
28

> <PUBCHEM_ATOM_DEF_STEREO_COUNT>
2

> <PUBCHEM_ATOM_UDEF_STEREO_COUNT>
0

> <PUBCHEM_BOND_DEF_STEREO_COUNT>
0

> <PUBCHEM_BOND_UDEF_STEREO_COUNT>
0

> <PUBCHEM_ISOTOPIC_ATOM_COUNT>
0

> <PUBCHEM_COMPONENT_COUNT>
1

> <PUBCHEM_CACTVS_TAUTO_COUNT>
-1

> <PUBCHEM_COORDINATE_TYPE>
1
5
255

> <PUBCHEM_BONDANNOTATIONS>
15  17  8
15  18  8
16  19  8
16  20  8
17  21  8
18  22  8
19  23  8
19  25  8
21  24  8
22  24  8
23  26  8
25  27  8
26  28  8
27  28  8
5  20  8
5  23  8
7  29  5
8  30  6

$$$$
