45140376
  -OEChem-09292321592D

 70 74  0     1  0  0  0  0  0999 V2000
    8.1422    6.5540    0.0000 O   0  0  0  0  0  0  0  0  0  0  0  0
    2.9176   -6.5499    0.0000 O   0  0  0  0  0  0  0  0  0  0  0  0
    5.5321    1.9847    0.0000 N   0  0  3  0  0  0  0  0  0  0  0  0
    4.6660   -0.5153    0.0000 N   0  0  0  0  0  0  0  0  0  0  0  0
    4.6660   -2.5153    0.0000 N   0  0  0  0  0  0  0  0  0  0  0  0
    4.6660   -5.5153    0.0000 N   0  0  0  0  0  0  0  0  0  0  0  0
    6.3981    2.4847    0.0000 C   0  0  3  0  0  0  0  0  0  0  0  0
    7.2641    1.9847    0.0000 C   0  0  0  0  0  0  0  0  0  0  0  0
    6.3981    3.4847    0.0000 C   0  0  0  0  0  0  0  0  0  0  0  0
    5.5321    0.9847    0.0000 C   0  0  0  0  0  0  0  0  0  0  0  0
    8.1301    2.4847    0.0000 C   0  0  0  0  0  0  0  0  0  0  0  0
    4.6660    0.4847    0.0000 C   0  0  0  0  0  0  0  0  0  0  0  0
    7.2641    3.9847    0.0000 C   0  0  0  0  0  0  0  0  0  0  0  0
    4.6660    2.4847    0.0000 C   0  0  0  0  0  0  0  0  0  0  0  0
    8.1301    3.4847    0.0000 C   0  0  0  0  0  0  0  0  0  0  0  0
    3.8000   -1.0153    0.0000 C   0  0  0  0  0  0  0  0  0  0  0  0
    5.5321   -1.0153    0.0000 C   0  0  0  0  0  0  0  0  0  0  0  0
    3.8000   -2.0153    0.0000 C   0  0  0  0  0  0  0  0  0  0  0  0
    5.5321   -2.0153    0.0000 C   0  0  0  0  0  0  0  0  0  0  0  0
    4.6660    3.4847    0.0000 C   0  0  0  0  0  0  0  0  0  0  0  0
    7.2480    5.0262    0.0000 C   0  0  0  0  0  0  0  0  0  0  0  0
    9.0401    3.9916    0.0000 C   0  0  0  0  0  0  0  0  0  0  0  0
    4.6660   -3.5153    0.0000 C   0  0  0  0  0  0  0  0  0  0  0  0
    8.1461    5.5540    0.0000 C   0  0  0  0  0  0  0  0  0  0  0  0
    9.0482    5.0332    0.0000 C   0  0  0  0  0  0  0  0  0  0  0  0
    3.8000    3.9847    0.0000 C   0  0  0  0  0  0  0  0  0  0  0  0
    3.8000   -4.0153    0.0000 C   0  0  0  0  0  0  0  0  0  0  0  0
    5.5321   -4.0153    0.0000 C   0  0  0  0  0  0  0  0  0  0  0  0
    3.8000   -5.0153    0.0000 C   0  0  0  0  0  0  0  0  0  0  0  0
    2.9061   -3.4806    0.0000 C   0  0  0  0  0  0  0  0  0  0  0  0
    5.5321   -5.0153    0.0000 C   0  0  0  0  0  0  0  0  0  0  0  0
    2.9061   -5.5499    0.0000 C   0  0  0  0  0  0  0  0  0  0  0  0
    2.0000   -3.9944    0.0000 C   0  0  0  0  0  0  0  0  0  0  0  0
    2.0000   -5.0361    0.0000 C   0  0  0  0  0  0  0  0  0  0  0  0
    6.3981    1.8647    0.0000 H   0  0  0  0  0  0  0  0  0  0  0  0
    6.8656    1.5098    0.0000 H   0  0  0  0  0  0  0  0  0  0  0  0
    7.6626    1.5098    0.0000 H   0  0  0  0  0  0  0  0  0  0  0  0
    6.1860    4.0673    0.0000 H   0  0  0  0  0  0  0  0  0  0  0  0
    5.7875    3.3771    0.0000 H   0  0  0  0  0  0  0  0  0  0  0  0
    5.7441    0.4021    0.0000 H   0  0  0  0  0  0  0  0  0  0  0  0
    6.1426    1.0924    0.0000 H   0  0  0  0  0  0  0  0  0  0  0  0
    8.3422    1.9021    0.0000 H   0  0  0  0  0  0  0  0  0  0  0  0
    8.7407    2.5924    0.0000 H   0  0  0  0  0  0  0  0  0  0  0  0
    4.4540    1.0673    0.0000 H   0  0  0  0  0  0  0  0  0  0  0  0
    4.0555    0.3771    0.0000 H   0  0  0  0  0  0  0  0  0  0  0  0
    4.0555    2.5924    0.0000 H   0  0  0  0  0  0  0  0  0  0  0  0
    4.4540    1.9021    0.0000 H   0  0  0  0  0  0  0  0  0  0  0  0
    3.5880   -0.4327    0.0000 H   0  0  0  0  0  0  0  0  0  0  0  0
    3.1894   -1.1229    0.0000 H   0  0  0  0  0  0  0  0  0  0  0  0
    6.1426   -1.1229    0.0000 H   0  0  0  0  0  0  0  0  0  0  0  0
    5.7441   -0.4327    0.0000 H   0  0  0  0  0  0  0  0  0  0  0  0
    3.1894   -1.9076    0.0000 H   0  0  0  0  0  0  0  0  0  0  0  0
    3.5880   -2.5979    0.0000 H   0  0  0  0  0  0  0  0  0  0  0  0
    5.7441   -2.5979    0.0000 H   0  0  0  0  0  0  0  0  0  0  0  0
    6.1426   -1.9076    0.0000 H   0  0  0  0  0  0  0  0  0  0  0  0
    5.2766    3.3771    0.0000 H   0  0  0  0  0  0  0  0  0  0  0  0
    4.8781    4.0673    0.0000 H   0  0  0  0  0  0  0  0  0  0  0  0
    6.7076    5.3300    0.0000 H   0  0  0  0  0  0  0  0  0  0  0  0
    9.5734    3.6754    0.0000 H   0  0  0  0  0  0  0  0  0  0  0  0
    9.5863    5.3411    0.0000 H   0  0  0  0  0  0  0  0  0  0  0  0
    4.1100    4.5217    0.0000 H   0  0  0  0  0  0  0  0  0  0  0  0
    3.2631    4.2947    0.0000 H   0  0  0  0  0  0  0  0  0  0  0  0
    3.4900    3.4478    0.0000 H   0  0  0  0  0  0  0  0  0  0  0  0
    6.0690   -3.7053    0.0000 H   0  0  0  0  0  0  0  0  0  0  0  0
    2.9132   -2.8606    0.0000 H   0  0  0  0  0  0  0  0  0  0  0  0
    6.0690   -5.3253    0.0000 H   0  0  0  0  0  0  0  0  0  0  0  0
    8.6780    6.8660    0.0000 H   0  0  0  0  0  0  0  0  0  0  0  0
    1.4643   -3.6824    0.0000 H   0  0  0  0  0  0  0  0  0  0  0  0
    1.4643   -5.3482    0.0000 H   0  0  0  0  0  0  0  0  0  0  0  0
    2.3843   -6.8660    0.0000 H   0  0  0  0  0  0  0  0  0  0  0  0
  1 24  1  0  0  0  0
  1 67  1  0  0  0  0
  2 32  1  0  0  0  0
  2 70  1  0  0  0  0
  3  7  1  0  0  0  0
  3 10  1  0  0  0  0
  3 14  1  0  0  0  0
  4 12  1  0  0  0  0
  4 16  1  0  0  0  0
  4 17  1  0  0  0  0
  5 18  1  0  0  0  0
  5 19  1  0  0  0  0
  5 23  1  0  0  0  0
  6 29  2  0  0  0  0
  6 31  1  0  0  0  0
  7  8  1  0  0  0  0
  7  9  1  0  0  0  0
  7 35  1  0  0  0  0
  8 11  1  0  0  0  0
  8 36  1  0  0  0  0
  8 37  1  0  0  0  0
  9 13  1  0  0  0  0
  9 38  1  0  0  0  0
  9 39  1  0  0  0  0
 10 12  1  0  0  0  0
 10 40  1  0  0  0  0
 10 41  1  0  0  0  0
 11 15  1  0  0  0  0
 11 42  1  0  0  0  0
 11 43  1  0  0  0  0
 12 44  1  0  0  0  0
 12 45  1  0  0  0  0
 13 15  2  0  0  0  0
 13 21  1  0  0  0  0
 14 20  1  0  0  0  0
 14 46  1  0  0  0  0
 14 47  1  0  0  0  0
 15 22  1  0  0  0  0
 16 18  1  0  0  0  0
 16 48  1  0  0  0  0
 16 49  1  0  0  0  0
 17 19  1  0  0  0  0
 17 50  1  0  0  0  0
 17 51  1  0  0  0  0
 18 52  1  0  0  0  0
 18 53  1  0  0  0  0
 19 54  1  0  0  0  0
 19 55  1  0  0  0  0
 20 26  1  0  0  0  0
 20 56  1  0  0  0  0
 20 57  1  0  0  0  0
 21 24  2  0  0  0  0
 21 58  1  0  0  0  0
 22 25  2  0  0  0  0
 22 59  1  0  0  0  0
 23 27  2  0  0  0  0
 23 28  1  0  0  0  0
 24 25  1  0  0  0  0
 25 60  1  0  0  0  0
 26 61  1  0  0  0  0
 26 62  1  0  0  0  0
 26 63  1  0  0  0  0
 27 29  1  0  0  0  0
 27 30  1  0  0  0  0
 28 31  2  0  0  0  0
 28 64  1  0  0  0  0
 29 32  1  0  0  0  0
 30 33  2  0  0  0  0
 30 65  1  0  0  0  0
 31 66  1  0  0  0  0
 32 34  2  0  0  0  0
 33 34  1  0  0  0  0
 33 68  1  0  0  0  0
 34 69  1  0  0  0  0
M  END
> <PUBCHEM_COMPOUND_CID>
45140376

> <PUBCHEM_COMPOUND_CANONICALIZED>
1

> <PUBCHEM_CACTVS_COMPLEXITY>
628

> <PUBCHEM_CACTVS_HBOND_ACCEPTOR>
6

> <PUBCHEM_CACTVS_HBOND_DONOR>
2

> <PUBCHEM_CACTVS_ROTATABLE_BOND>
7

> <PUBCHEM_CACTVS_SUBSKEYS>
AAADcfB7sAAAAAAAAAAAAAAAAAAAAAAAAAA8eMECAAAAAADx9AAAHgAACAAADCzBngQ+xvMIEgCgAzRnRASCgCAxYiAI2CA/bJgKZuLS0dOUdAhkwBHY2Aew0LMOoAABAAASEABQAAKAACQgAAAAAAAAAA==

> <PUBCHEM_IUPAC_OPENEYE_NAME>
4-[4-[2-[(7-hydroxytetralin-2-yl)-propyl-amino]ethyl]piperazin-1-yl]quinolin-8-ol

> <PUBCHEM_IUPAC_CAS_NAME>
4-[4-[2-[(7-hydroxy-1,2,3,4-tetrahydronaphthalen-2-yl)-propylamino]ethyl]-1-piperazinyl]-8-quinolinol

> <PUBCHEM_IUPAC_NAME_MARKUP>
4-[4-[2-[(7-hydroxy-1,2,3,4-tetrahydronaphthalen-2-yl)-propylamino]ethyl]piperazin-1-yl]quinolin-8-ol

> <PUBCHEM_IUPAC_NAME>
4-[4-[2-[(7-hydroxy-1,2,3,4-tetrahydronaphthalen-2-yl)-propylamino]ethyl]piperazin-1-yl]quinolin-8-ol

> <PUBCHEM_IUPAC_SYSTEMATIC_NAME>
4-[4-[2-[(7-oxidanyl-1,2,3,4-tetrahydronaphthalen-2-yl)-propyl-amino]ethyl]piperazin-1-yl]quinolin-8-ol

> <PUBCHEM_IUPAC_TRADITIONAL_NAME>
4-[4-[2-[(7-hydroxytetralin-2-yl)-propyl-amino]ethyl]piperazino]quinolin-8-ol

> <PUBCHEM_IUPAC_INCHI>
InChI=1S/C28H36N4O2/c1-2-12-31(23-8-6-21-7-9-24(33)20-22(21)19-23)16-13-30-14-17-32(18-15-30)26-10-11-29-28-25(26)4-3-5-27(28)34/h3-5,7,9-11,20,23,33-34H,2,6,8,12-19H2,1H3

> <PUBCHEM_IUPAC_INCHIKEY>
XNAZWCRZSGGAMO-UHFFFAOYSA-N

> <PUBCHEM_XLOGP3_AA>
4.8

> <PUBCHEM_EXACT_MASS>
460.28382640

> <PUBCHEM_MOLECULAR_FORMULA>
C28H36N4O2

> <PUBCHEM_MOLECULAR_WEIGHT>
460.6

> <PUBCHEM_OPENEYE_CAN_SMILES>
CCCN(CCN1CCN(CC1)C2=C3C=CC=C(C3=NC=C2)O)C4CCC5=C(C4)C=C(C=C5)O

> <PUBCHEM_OPENEYE_ISO_SMILES>
CCCN(CCN1CCN(CC1)C2=C3C=CC=C(C3=NC=C2)O)C4CCC5=C(C4)C=C(C=C5)O

> <PUBCHEM_CACTVS_TPSA>
63.1

> <PUBCHEM_MONOISOTOPIC_WEIGHT>
460.28382640

> <PUBCHEM_TOTAL_CHARGE>
0

> <PUBCHEM_HEAVY_ATOM_COUNT>
34

> <PUBCHEM_ATOM_DEF_STEREO_COUNT>
0

> <PUBCHEM_ATOM_UDEF_STEREO_COUNT>
1

> <PUBCHEM_BOND_DEF_STEREO_COUNT>
0

> <PUBCHEM_BOND_UDEF_STEREO_COUNT>
0

> <PUBCHEM_ISOTOPIC_ATOM_COUNT>
0

> <PUBCHEM_COMPONENT_COUNT>
1

> <PUBCHEM_CACTVS_TAUTO_COUNT>
-1

> <PUBCHEM_COORDINATE_TYPE>
1
5
255

> <PUBCHEM_BONDANNOTATIONS>
13  15  8
13  21  8
15  22  8
21  24  8
22  25  8
23  27  8
23  28  8
24  25  8
27  29  8
27  30  8
28  31  8
29  32  8
7  3  3
30  33  8
32  34  8
33  34  8
6  29  8
6  31  8

$$$$
