164618028
  -OEChem-09292322432D

 54 56  0     0  0  0  0  0  0999 V2000
    6.3301    5.2500    0.0000 O   0  0  0  0  0  0  0  0  0  0  0  0
    2.8660   -1.7500    0.0000 N   0  0  0  0  0  0  0  0  0  0  0  0
    2.8660   -3.7500    0.0000 N   0  0  0  0  0  0  0  0  0  0  0  0
    3.7320   -5.2500    0.0000 N   0  0  0  0  0  0  0  0  0  0  0  0
    4.5981    5.2500    0.0000 N   0  0  0  0  0  0  0  0  0  0  0  0
    3.7320   -2.2500    0.0000 C   0  0  0  0  0  0  0  0  0  0  0  0
    2.0000   -2.2500    0.0000 C   0  0  0  0  0  0  0  0  0  0  0  0
    3.7320   -3.2500    0.0000 C   0  0  0  0  0  0  0  0  0  0  0  0
    2.0000   -3.2500    0.0000 C   0  0  0  0  0  0  0  0  0  0  0  0
    2.8660   -0.7500    0.0000 C   0  0  0  0  0  0  0  0  0  0  0  0
    3.7320   -0.2500    0.0000 C   0  0  0  0  0  0  0  0  0  0  0  0
    3.7320    0.7500    0.0000 C   0  0  0  0  0  0  0  0  0  0  0  0
    2.8660   -4.7500    0.0000 C   0  0  0  0  0  0  0  0  0  0  0  0
    4.5981    1.2500    0.0000 C   0  0  0  0  0  0  0  0  0  0  0  0
    4.5981    2.2500    0.0000 C   0  0  0  0  0  0  0  0  0  0  0  0
    2.0000   -5.2500    0.0000 C   0  0  0  0  0  0  0  0  0  0  0  0
    5.4641    2.7500    0.0000 C   0  0  0  0  0  0  0  0  0  0  0  0
    3.7320    2.7500    0.0000 C   0  0  0  0  0  0  0  0  0  0  0  0
    2.0000   -6.2500    0.0000 C   0  0  0  0  0  0  0  0  0  0  0  0
    3.7320   -6.2500    0.0000 C   0  0  0  0  0  0  0  0  0  0  0  0
    2.8660   -6.7500    0.0000 C   0  0  0  0  0  0  0  0  0  0  0  0
    5.4641    3.7500    0.0000 C   0  0  0  0  0  0  0  0  0  0  0  0
    3.7320    3.7500    0.0000 C   0  0  0  0  0  0  0  0  0  0  0  0
    4.5981    4.2500    0.0000 C   0  0  0  0  0  0  0  0  0  0  0  0
    5.4641    5.7500    0.0000 C   0  0  0  0  0  0  0  0  0  0  0  0
    5.4641    6.7500    0.0000 C   0  0  0  0  0  0  0  0  0  0  0  0
    4.3426   -2.3577    0.0000 H   0  0  0  0  0  0  0  0  0  0  0  0
    3.9441   -1.6674    0.0000 H   0  0  0  0  0  0  0  0  0  0  0  0
    1.7880   -1.6674    0.0000 H   0  0  0  0  0  0  0  0  0  0  0  0
    1.3894   -2.3577    0.0000 H   0  0  0  0  0  0  0  0  0  0  0  0
    3.9441   -3.8326    0.0000 H   0  0  0  0  0  0  0  0  0  0  0  0
    4.3426   -3.1423    0.0000 H   0  0  0  0  0  0  0  0  0  0  0  0
    1.3894   -3.1423    0.0000 H   0  0  0  0  0  0  0  0  0  0  0  0
    1.7880   -3.8326    0.0000 H   0  0  0  0  0  0  0  0  0  0  0  0
    2.6540   -0.1674    0.0000 H   0  0  0  0  0  0  0  0  0  0  0  0
    2.2554   -0.8577    0.0000 H   0  0  0  0  0  0  0  0  0  0  0  0
    3.9441   -0.8326    0.0000 H   0  0  0  0  0  0  0  0  0  0  0  0
    4.3426   -0.1423    0.0000 H   0  0  0  0  0  0  0  0  0  0  0  0
    3.5200    1.3326    0.0000 H   0  0  0  0  0  0  0  0  0  0  0  0
    3.1215    0.6423    0.0000 H   0  0  0  0  0  0  0  0  0  0  0  0
    4.8101    0.6674    0.0000 H   0  0  0  0  0  0  0  0  0  0  0  0
    5.2087    1.3577    0.0000 H   0  0  0  0  0  0  0  0  0  0  0  0
    1.4631   -4.9400    0.0000 H   0  0  0  0  0  0  0  0  0  0  0  0
    6.0010    2.4400    0.0000 H   0  0  0  0  0  0  0  0  0  0  0  0
    3.1951    2.4400    0.0000 H   0  0  0  0  0  0  0  0  0  0  0  0
    1.4631   -6.5600    0.0000 H   0  0  0  0  0  0  0  0  0  0  0  0
    4.2690   -6.5600    0.0000 H   0  0  0  0  0  0  0  0  0  0  0  0
    2.8660   -7.3700    0.0000 H   0  0  0  0  0  0  0  0  0  0  0  0
    6.0010    4.0600    0.0000 H   0  0  0  0  0  0  0  0  0  0  0  0
    3.1951    4.0600    0.0000 H   0  0  0  0  0  0  0  0  0  0  0  0
    4.0611    5.5600    0.0000 H   0  0  0  0  0  0  0  0  0  0  0  0
    6.0841    6.7500    0.0000 H   0  0  0  0  0  0  0  0  0  0  0  0
    5.4641    7.3700    0.0000 H   0  0  0  0  0  0  0  0  0  0  0  0
    4.8441    6.7500    0.0000 H   0  0  0  0  0  0  0  0  0  0  0  0
  1 25  2  0  0  0  0
  2  6  1  0  0  0  0
  2  7  1  0  0  0  0
  2 10  1  0  0  0  0
  3  8  1  0  0  0  0
  3  9  1  0  0  0  0
  3 13  1  0  0  0  0
  4 13  1  0  0  0  0
  4 20  2  0  0  0  0
  5 24  1  0  0  0  0
  5 25  1  0  0  0  0
  5 51  1  0  0  0  0
  6  8  1  0  0  0  0
  6 27  1  0  0  0  0
  6 28  1  0  0  0  0
  7  9  1  0  0  0  0
  7 29  1  0  0  0  0
  7 30  1  0  0  0  0
  8 31  1  0  0  0  0
  8 32  1  0  0  0  0
  9 33  1  0  0  0  0
  9 34  1  0  0  0  0
 10 11  1  0  0  0  0
 10 35  1  0  0  0  0
 10 36  1  0  0  0  0
 11 12  1  0  0  0  0
 11 37  1  0  0  0  0
 11 38  1  0  0  0  0
 12 14  1  0  0  0  0
 12 39  1  0  0  0  0
 12 40  1  0  0  0  0
 13 16  2  0  0  0  0
 14 15  1  0  0  0  0
 14 41  1  0  0  0  0
 14 42  1  0  0  0  0
 15 17  2  0  0  0  0
 15 18  1  0  0  0  0
 16 19  1  0  0  0  0
 16 43  1  0  0  0  0
 17 22  1  0  0  0  0
 17 44  1  0  0  0  0
 18 23  2  0  0  0  0
 18 45  1  0  0  0  0
 19 21  2  0  0  0  0
 19 46  1  0  0  0  0
 20 21  1  0  0  0  0
 20 47  1  0  0  0  0
 21 48  1  0  0  0  0
 22 24  2  0  0  0  0
 22 49  1  0  0  0  0
 23 24  1  0  0  0  0
 23 50  1  0  0  0  0
 25 26  1  0  0  0  0
 26 52  1  0  0  0  0
 26 53  1  0  0  0  0
 26 54  1  0  0  0  0
M  END
> <PUBCHEM_COMPOUND_CID>
164618028

> <PUBCHEM_COMPOUND_CANONICALIZED>
1

> <PUBCHEM_CACTVS_COMPLEXITY>
414

> <PUBCHEM_CACTVS_HBOND_ACCEPTOR>
4

> <PUBCHEM_CACTVS_HBOND_DONOR>
1

> <PUBCHEM_CACTVS_ROTATABLE_BOND>
7

> <PUBCHEM_CACTVS_SUBSKEYS>
AAADceB7oAAAAAAAAAAAAAAAAAAAAAAAAAA8WIAAAAAAAAABwAAAHgAQAAAADAjBmgQ/8JPIEACoAjd3dACCgCkxAiAJ2CA4ZJiIYOLAmZGUIAholALIyCcQgIAOCAAAAAAAAAAQAAAAAAAAAAAAAAAAAA==

> <PUBCHEM_IUPAC_OPENEYE_NAME>
N-[4-[4-[4-(2-pyridyl)piperazin-1-yl]butyl]phenyl]acetamide

> <PUBCHEM_IUPAC_CAS_NAME>
N-[4-[4-[4-(2-pyridinyl)-1-piperazinyl]butyl]phenyl]acetamide

> <PUBCHEM_IUPAC_NAME_MARKUP>
<I>N</I>-[4-[4-(4-pyridin-2-ylpiperazin-1-yl)butyl]phenyl]acetamide

> <PUBCHEM_IUPAC_NAME>
N-[4-[4-(4-pyridin-2-ylpiperazin-1-yl)butyl]phenyl]acetamide

> <PUBCHEM_IUPAC_SYSTEMATIC_NAME>
N-[4-[4-(4-pyridin-2-ylpiperazin-1-yl)butyl]phenyl]ethanamide

> <PUBCHEM_IUPAC_TRADITIONAL_NAME>
N-[4-[4-[4-(2-pyridyl)piperazino]butyl]phenyl]acetamide

> <PUBCHEM_IUPAC_INCHI>
InChI=1S/C21H28N4O/c1-18(26)23-20-10-8-19(9-11-20)6-3-5-13-24-14-16-25(17-15-24)21-7-2-4-12-22-21/h2,4,7-12H,3,5-6,13-17H2,1H3,(H,23,26)

> <PUBCHEM_IUPAC_INCHIKEY>
KQZXADGECOXBKU-UHFFFAOYSA-N

> <PUBCHEM_XLOGP3_AA>
3

> <PUBCHEM_EXACT_MASS>
352.22631153

> <PUBCHEM_MOLECULAR_FORMULA>
C21H28N4O

> <PUBCHEM_MOLECULAR_WEIGHT>
352.5

> <PUBCHEM_OPENEYE_CAN_SMILES>
CC(=O)NC1=CC=C(C=C1)CCCCN2CCN(CC2)C3=CC=CC=N3

> <PUBCHEM_OPENEYE_ISO_SMILES>
CC(=O)NC1=CC=C(C=C1)CCCCN2CCN(CC2)C3=CC=CC=N3

> <PUBCHEM_CACTVS_TPSA>
48.5

> <PUBCHEM_MONOISOTOPIC_WEIGHT>
352.22631153

> <PUBCHEM_TOTAL_CHARGE>
0

> <PUBCHEM_HEAVY_ATOM_COUNT>
26

> <PUBCHEM_ATOM_DEF_STEREO_COUNT>
0

> <PUBCHEM_ATOM_UDEF_STEREO_COUNT>
0

> <PUBCHEM_BOND_DEF_STEREO_COUNT>
0

> <PUBCHEM_BOND_UDEF_STEREO_COUNT>
0

> <PUBCHEM_ISOTOPIC_ATOM_COUNT>
0

> <PUBCHEM_COMPONENT_COUNT>
1

> <PUBCHEM_CACTVS_TAUTO_COUNT>
-1

> <PUBCHEM_COORDINATE_TYPE>
1
5
255

> <PUBCHEM_BONDANNOTATIONS>
13  16  8
15  17  8
15  18  8
16  19  8
17  22  8
18  23  8
19  21  8
20  21  8
22  24  8
23  24  8
4  13  8
4  20  8

$$$$
