44287035
  -OEChem-09292322222D

 54 56  0     1  0  0  0  0  0999 V2000
    4.6660    0.0222    0.0000 O   0  0  0  0  0  0  0  0  0  0  0  0
    2.9523   -4.0122    0.0000 O   0  0  0  0  0  0  0  0  0  0  0  0
    6.3981    2.0222    0.0000 N   0  0  0  0  0  0  0  0  0  0  0  0
    5.5321    1.5222    0.0000 C   0  0  3  0  0  0  0  0  0  0  0  0
    4.6660    2.0222    0.0000 C   0  0  0  0  0  0  0  0  0  0  0  0
    5.5321    0.5222    0.0000 C   0  0  0  0  0  0  0  0  0  0  0  0
    3.8000    1.5222    0.0000 C   0  0  0  0  0  0  0  0  0  0  0  0
    7.2641    1.5222    0.0000 C   0  0  0  0  0  0  0  0  0  0  0  0
    6.3981    3.0222    0.0000 C   0  0  0  0  0  0  0  0  0  0  0  0
    3.8000    0.5222    0.0000 C   0  0  0  0  0  0  0  0  0  0  0  0
    8.1301    2.0222    0.0000 C   0  0  0  0  0  0  0  0  0  0  0  0
    7.2641    3.5222    0.0000 C   0  0  0  0  0  0  0  0  0  0  0  0
    2.9061   -0.0125    0.0000 C   0  0  0  0  0  0  0  0  0  0  0  0
    2.9061    2.0568    0.0000 C   0  0  0  0  0  0  0  0  0  0  0  0
    2.0000    0.5014    0.0000 C   0  0  0  0  0  0  0  0  0  0  0  0
    2.0000    1.5430    0.0000 C   0  0  0  0  0  0  0  0  0  0  0  0
    8.9962    1.5222    0.0000 C   0  0  0  0  0  0  0  0  0  0  0  0
    7.2641    4.5222    0.0000 C   0  0  0  0  0  0  0  0  0  0  0  0
    2.9176   -1.0124    0.0000 C   0  0  0  0  0  0  0  0  0  0  0  0
    2.0574   -1.5224    0.0000 C   0  0  0  0  0  0  0  0  0  0  0  0
    3.7894   -1.5024    0.0000 C   0  0  0  0  0  0  0  0  0  0  0  0
    2.0690   -2.5223    0.0000 C   0  0  0  0  0  0  0  0  0  0  0  0
    3.8009   -2.5023    0.0000 C   0  0  0  0  0  0  0  0  0  0  0  0
    2.9408   -3.0123    0.0000 C   0  0  0  0  0  0  0  0  0  0  0  0
    2.0921   -4.5222    0.0000 C   0  0  0  0  0  0  0  0  0  0  0  0
    5.5321    2.1422    0.0000 H   0  0  0  0  0  0  0  0  0  0  0  0
    5.0646    2.4971    0.0000 H   0  0  0  0  0  0  0  0  0  0  0  0
    4.2675    2.4971    0.0000 H   0  0  0  0  0  0  0  0  0  0  0  0
    5.7441   -0.0604    0.0000 H   0  0  0  0  0  0  0  0  0  0  0  0
    6.1426    0.6298    0.0000 H   0  0  0  0  0  0  0  0  0  0  0  0
    6.8656    1.0472    0.0000 H   0  0  0  0  0  0  0  0  0  0  0  0
    7.6626    1.0472    0.0000 H   0  0  0  0  0  0  0  0  0  0  0  0
    6.1860    3.6048    0.0000 H   0  0  0  0  0  0  0  0  0  0  0  0
    5.7875    2.9145    0.0000 H   0  0  0  0  0  0  0  0  0  0  0  0
    8.5287    2.4971    0.0000 H   0  0  0  0  0  0  0  0  0  0  0  0
    7.7316    2.4971    0.0000 H   0  0  0  0  0  0  0  0  0  0  0  0
    7.4762    2.9396    0.0000 H   0  0  0  0  0  0  0  0  0  0  0  0
    7.8747    3.6298    0.0000 H   0  0  0  0  0  0  0  0  0  0  0  0
    2.9132    2.6768    0.0000 H   0  0  0  0  0  0  0  0  0  0  0  0
    1.4643    0.1893    0.0000 H   0  0  0  0  0  0  0  0  0  0  0  0
    1.4643    1.8551    0.0000 H   0  0  0  0  0  0  0  0  0  0  0  0
    8.6862    0.9853    0.0000 H   0  0  0  0  0  0  0  0  0  0  0  0
    9.5331    1.2122    0.0000 H   0  0  0  0  0  0  0  0  0  0  0  0
    9.3062    2.0591    0.0000 H   0  0  0  0  0  0  0  0  0  0  0  0
    7.8841    4.5222    0.0000 H   0  0  0  0  0  0  0  0  0  0  0  0
    7.2641    5.1422    0.0000 H   0  0  0  0  0  0  0  0  0  0  0  0
    6.6441    4.5222    0.0000 H   0  0  0  0  0  0  0  0  0  0  0  0
    1.5170   -1.2186    0.0000 H   0  0  0  0  0  0  0  0  0  0  0  0
    4.3227   -1.1862    0.0000 H   0  0  0  0  0  0  0  0  0  0  0  0
    1.5357   -2.8385    0.0000 H   0  0  0  0  0  0  0  0  0  0  0  0
    4.3414   -2.8061    0.0000 H   0  0  0  0  0  0  0  0  0  0  0  0
    1.7760   -3.9889    0.0000 H   0  0  0  0  0  0  0  0  0  0  0  0
    1.5588   -4.8384    0.0000 H   0  0  0  0  0  0  0  0  0  0  0  0
    2.4083   -5.0555    0.0000 H   0  0  0  0  0  0  0  0  0  0  0  0
  1  6  1  0  0  0  0
  1 10  1  0  0  0  0
  2 24  1  0  0  0  0
  2 25  1  0  0  0  0
  3  4  1  0  0  0  0
  3  8  1  0  0  0  0
  3  9  1  0  0  0  0
  4  5  1  0  0  0  0
  4  6  1  0  0  0  0
  4 26  1  0  0  0  0
  5  7  1  0  0  0  0
  5 27  1  0  0  0  0
  5 28  1  0  0  0  0
  6 29  1  0  0  0  0
  6 30  1  0  0  0  0
  7 10  2  0  0  0  0
  7 14  1  0  0  0  0
  8 11  1  0  0  0  0
  8 31  1  0  0  0  0
  8 32  1  0  0  0  0
  9 12  1  0  0  0  0
  9 33  1  0  0  0  0
  9 34  1  0  0  0  0
 10 13  1  0  0  0  0
 11 17  1  0  0  0  0
 11 35  1  0  0  0  0
 11 36  1  0  0  0  0
 12 18  1  0  0  0  0
 12 37  1  0  0  0  0
 12 38  1  0  0  0  0
 13 15  2  0  0  0  0
 13 19  1  0  0  0  0
 14 16  2  0  0  0  0
 14 39  1  0  0  0  0
 15 16  1  0  0  0  0
 15 40  1  0  0  0  0
 16 41  1  0  0  0  0
 17 42  1  0  0  0  0
 17 43  1  0  0  0  0
 17 44  1  0  0  0  0
 18 45  1  0  0  0  0
 18 46  1  0  0  0  0
 18 47  1  0  0  0  0
 19 20  2  0  0  0  0
 19 21  1  0  0  0  0
 20 22  1  0  0  0  0
 20 48  1  0  0  0  0
 21 23  2  0  0  0  0
 21 49  1  0  0  0  0
 22 24  2  0  0  0  0
 22 50  1  0  0  0  0
 23 24  1  0  0  0  0
 23 51  1  0  0  0  0
 25 52  1  0  0  0  0
 25 53  1  0  0  0  0
 25 54  1  0  0  0  0
M  END
> <PUBCHEM_COMPOUND_CID>
44287035

> <PUBCHEM_COMPOUND_CANONICALIZED>
1

> <PUBCHEM_CACTVS_COMPLEXITY>
374

> <PUBCHEM_CACTVS_HBOND_ACCEPTOR>
3

> <PUBCHEM_CACTVS_HBOND_DONOR>
0

> <PUBCHEM_CACTVS_ROTATABLE_BOND>
7

> <PUBCHEM_CACTVS_SUBSKEYS>
AAADceB6MAAAAAAAAAAAAAAAAAAAAAAAAAA0YIAAAAAAAACRQAAAHgAAAAAADCzhmAYyBoMABACAAiBCAAACCAAgIAAIiAAOCIgOJiKEsRuHOCCkwBGYqAewwPAOoAACAAAIAABAAAQAABAAAAAAAAAAAA==

> <PUBCHEM_IUPAC_OPENEYE_NAME>
8-(4-methoxyphenyl)-N,N-dipropyl-chroman-3-amine

> <PUBCHEM_IUPAC_CAS_NAME>
8-(4-methoxyphenyl)-N,N-dipropyl-3,4-dihydro-2H-1-benzopyran-3-amine

> <PUBCHEM_IUPAC_NAME_MARKUP>
8-(4-methoxyphenyl)-<I>N</I>,<I>N</I>-dipropyl-3,4-dihydro-2<I>H</I>-chromen-3-amine

> <PUBCHEM_IUPAC_NAME>
8-(4-methoxyphenyl)-N,N-dipropyl-3,4-dihydro-2H-chromen-3-amine

> <PUBCHEM_IUPAC_SYSTEMATIC_NAME>
8-(4-methoxyphenyl)-N,N-dipropyl-3,4-dihydro-2H-chromen-3-amine

> <PUBCHEM_IUPAC_TRADITIONAL_NAME>
[8-(4-methoxyphenyl)chroman-3-yl]-dipropyl-amine

> <PUBCHEM_IUPAC_INCHI>
InChI=1S/C22H29NO2/c1-4-13-23(14-5-2)19-15-18-7-6-8-21(22(18)25-16-19)17-9-11-20(24-3)12-10-17/h6-12,19H,4-5,13-16H2,1-3H3

> <PUBCHEM_IUPAC_INCHIKEY>
QWKYFMXJKILTAJ-UHFFFAOYSA-N

> <PUBCHEM_XLOGP3_AA>
5.4

> <PUBCHEM_EXACT_MASS>
339.219829168

> <PUBCHEM_MOLECULAR_FORMULA>
C22H29NO2

> <PUBCHEM_MOLECULAR_WEIGHT>
339.5

> <PUBCHEM_OPENEYE_CAN_SMILES>
CCCN(CCC)C1CC2=C(C(=CC=C2)C3=CC=C(C=C3)OC)OC1

> <PUBCHEM_OPENEYE_ISO_SMILES>
CCCN(CCC)C1CC2=C(C(=CC=C2)C3=CC=C(C=C3)OC)OC1

> <PUBCHEM_CACTVS_TPSA>
21.7

> <PUBCHEM_MONOISOTOPIC_WEIGHT>
339.219829168

> <PUBCHEM_TOTAL_CHARGE>
0

> <PUBCHEM_HEAVY_ATOM_COUNT>
25

> <PUBCHEM_ATOM_DEF_STEREO_COUNT>
0

> <PUBCHEM_ATOM_UDEF_STEREO_COUNT>
1

> <PUBCHEM_BOND_DEF_STEREO_COUNT>
0

> <PUBCHEM_BOND_UDEF_STEREO_COUNT>
0

> <PUBCHEM_ISOTOPIC_ATOM_COUNT>
0

> <PUBCHEM_COMPONENT_COUNT>
1

> <PUBCHEM_CACTVS_TAUTO_COUNT>
-1

> <PUBCHEM_COORDINATE_TYPE>
1
5
255

> <PUBCHEM_BONDANNOTATIONS>
10  13  8
13  15  8
14  16  8
15  16  8
19  20  8
19  21  8
20  22  8
21  23  8
22  24  8
23  24  8
4  3  3
7  10  8
7  14  8

$$$$
