164627774
  -OEChem-09292322432D

 44 46  0     1  0  0  0  0  0999 V2000
   12.4725    0.0547    0.0000 S   0  0  0  0  0  0  0  0  0  0  0  0
    6.3301   -1.2500    0.0000 O   0  0  0  0  0  0  0  0  0  0  0  0
    8.9282    0.2500    0.0000 N   0  0  0  0  0  0  0  0  0  0  0  0
   12.4725   -1.5547    0.0000 N   0  0  0  0  0  0  0  0  0  0  0  0
   14.0561   -0.7500    0.0000 N   0  0  0  0  0  0  0  0  0  0  0  0
    7.1962    0.2500    0.0000 N   0  0  0  0  0  0  0  0  0  0  0  0
    8.0622   -1.2500    0.0000 N   0  0  0  0  0  0  0  0  0  0  0  0
    5.4641    0.2500    0.0000 N   0  0  0  0  0  0  0  0  0  0  0  0
    9.7942   -0.2500    0.0000 C   0  0  3  0  0  0  0  0  0  0  0  0
    9.7942   -1.2500    0.0000 C   0  0  0  0  0  0  0  0  0  0  0  0
   10.6603    0.2500    0.0000 C   0  0  0  0  0  0  0  0  0  0  0  0
   10.6603   -1.7500    0.0000 C   0  0  0  0  0  0  0  0  0  0  0  0
   11.5263   -0.2500    0.0000 C   0  0  0  0  0  0  0  0  0  0  0  0
   11.5263   -1.2500    0.0000 C   0  0  0  0  0  0  0  0  0  0  0  0
   13.0561   -0.7500    0.0000 C   0  0  0  0  0  0  0  0  0  0  0  0
    8.0622   -0.2500    0.0000 C   0  0  0  0  0  0  0  0  0  0  0  0
    6.3301   -0.2500    0.0000 C   0  0  0  0  0  0  0  0  0  0  0  0
    4.5981   -0.2500    0.0000 C   0  0  0  0  0  0  0  0  0  0  0  0
    3.7320    0.2500    0.0000 C   0  0  0  0  0  0  0  0  0  0  0  0
    2.8660   -0.2500    0.0000 C   0  0  0  0  0  0  0  0  0  0  0  0
    3.7320    1.2500    0.0000 C   0  0  0  0  0  0  0  0  0  0  0  0
    2.0000    0.2500    0.0000 C   0  0  0  0  0  0  0  0  0  0  0  0
    2.8660    1.7500    0.0000 C   0  0  0  0  0  0  0  0  0  0  0  0
    2.0000    1.2500    0.0000 C   0  0  0  0  0  0  0  0  0  0  0  0
    9.2573   -0.5600    0.0000 H   0  0  0  0  0  0  0  0  0  0  0  0
    9.1836   -1.1423    0.0000 H   0  0  0  0  0  0  0  0  0  0  0  0
    9.5822   -1.8326    0.0000 H   0  0  0  0  0  0  0  0  0  0  0  0
   11.0588    0.7249    0.0000 H   0  0  0  0  0  0  0  0  0  0  0  0
   10.2617    0.7249    0.0000 H   0  0  0  0  0  0  0  0  0  0  0  0
   10.2617   -2.2250    0.0000 H   0  0  0  0  0  0  0  0  0  0  0  0
   11.0588   -2.2250    0.0000 H   0  0  0  0  0  0  0  0  0  0  0  0
    7.1962    0.8700    0.0000 H   0  0  0  0  0  0  0  0  0  0  0  0
   14.3661   -1.2869    0.0000 H   0  0  0  0  0  0  0  0  0  0  0  0
   14.3661   -0.2131    0.0000 H   0  0  0  0  0  0  0  0  0  0  0  0
    7.5252   -1.5600    0.0000 H   0  0  0  0  0  0  0  0  0  0  0  0
    8.5991   -1.5600    0.0000 H   0  0  0  0  0  0  0  0  0  0  0  0
    4.1996   -0.7249    0.0000 H   0  0  0  0  0  0  0  0  0  0  0  0
    4.9966   -0.7249    0.0000 H   0  0  0  0  0  0  0  0  0  0  0  0
    5.4641    0.8700    0.0000 H   0  0  0  0  0  0  0  0  0  0  0  0
    2.8660   -0.8700    0.0000 H   0  0  0  0  0  0  0  0  0  0  0  0
    4.2690    1.5600    0.0000 H   0  0  0  0  0  0  0  0  0  0  0  0
    1.4631   -0.0600    0.0000 H   0  0  0  0  0  0  0  0  0  0  0  0
    2.8660    2.3700    0.0000 H   0  0  0  0  0  0  0  0  0  0  0  0
    1.4631    1.5600    0.0000 H   0  0  0  0  0  0  0  0  0  0  0  0
  1 13  1  0  0  0  0
  1 15  1  0  0  0  0
  2 17  2  0  0  0  0
  3  9  1  0  0  0  0
  3 16  2  0  0  0  0
  4 14  1  0  0  0  0
  4 15  2  0  0  0  0
  5 15  1  0  0  0  0
  5 33  1  0  0  0  0
  5 34  1  0  0  0  0
  6 16  1  0  0  0  0
  6 17  1  0  0  0  0
  6 32  1  0  0  0  0
  7 16  1  0  0  0  0
  7 35  1  0  0  0  0
  7 36  1  0  0  0  0
  8 17  1  0  0  0  0
  8 18  1  0  0  0  0
  8 39  1  0  0  0  0
  9 10  1  0  0  0  0
  9 11  1  0  0  0  0
  9 25  1  0  0  0  0
 10 12  1  0  0  0  0
 10 26  1  0  0  0  0
 10 27  1  0  0  0  0
 11 13  1  0  0  0  0
 11 28  1  0  0  0  0
 11 29  1  0  0  0  0
 12 14  1  0  0  0  0
 12 30  1  0  0  0  0
 12 31  1  0  0  0  0
 13 14  2  0  0  0  0
 18 19  1  0  0  0  0
 18 37  1  0  0  0  0
 18 38  1  0  0  0  0
 19 20  2  0  0  0  0
 19 21  1  0  0  0  0
 20 22  1  0  0  0  0
 20 40  1  0  0  0  0
 21 23  2  0  0  0  0
 21 41  1  0  0  0  0
 22 24  2  0  0  0  0
 22 42  1  0  0  0  0
 23 24  1  0  0  0  0
 23 43  1  0  0  0  0
 24 44  1  0  0  0  0
M  END
> <PUBCHEM_COMPOUND_CID>
164627774

> <PUBCHEM_COMPOUND_CANONICALIZED>
1

> <PUBCHEM_CACTVS_COMPLEXITY>
468

> <PUBCHEM_CACTVS_HBOND_ACCEPTOR>
5

> <PUBCHEM_CACTVS_HBOND_DONOR>
4

> <PUBCHEM_CACTVS_ROTATABLE_BOND>
4

> <PUBCHEM_CACTVS_SUBSKEYS>
AAADceB7oABAAAAAAAAAAAAAAAAAAWAAAAAwYAAAAAAAAFgBwAAAHgQQAAAADCjBXgQxkZLIEAisAyRidACC8KlhCDkJmJQ4RIiIICLgkRGEIAhohwJIyCcQgAAOAAAAAAAAAAAAAQAAQAACAAAAAAAAAA==

> <PUBCHEM_IUPAC_OPENEYE_NAME>
1-[N'-(2-amino-4,5,6,7-tetrahydro-1,3-benzothiazol-6-yl)carbamimidoyl]-3-benzyl-urea

> <PUBCHEM_IUPAC_CAS_NAME>
1-[amino-[(2-amino-4,5,6,7-tetrahydro-1,3-benzothiazol-6-yl)imino]methyl]-3-(phenylmethyl)urea

> <PUBCHEM_IUPAC_NAME_MARKUP>
1-[<I>N</I>&apos;-(2-amino-4,5,6,7-tetrahydro-1,3-benzothiazol-6-yl)carbamimidoyl]-3-benzylurea

> <PUBCHEM_IUPAC_NAME>
1-[N'-(2-amino-4,5,6,7-tetrahydro-1,3-benzothiazol-6-yl)carbamimidoyl]-3-benzylurea

> <PUBCHEM_IUPAC_SYSTEMATIC_NAME>
1-[N'-(2-azanyl-4,5,6,7-tetrahydro-1,3-benzothiazol-6-yl)carbamimidoyl]-3-(phenylmethyl)urea

> <PUBCHEM_IUPAC_TRADITIONAL_NAME>
1-[N'-(2-amino-4,5,6,7-tetrahydro-1,3-benzothiazol-6-yl)amidino]-3-benzyl-urea

> <PUBCHEM_IUPAC_INCHI>
InChI=1S/C16H20N6OS/c17-14(22-16(23)19-9-10-4-2-1-3-5-10)20-11-6-7-12-13(8-11)24-15(18)21-12/h1-5,11H,6-9H2,(H2,18,21)(H4,17,19,20,22,23)

> <PUBCHEM_IUPAC_INCHIKEY>
KOIIIBWVKNCMBP-UHFFFAOYSA-N

> <PUBCHEM_XLOGP3_AA>
1.9

> <PUBCHEM_EXACT_MASS>
344.14193046

> <PUBCHEM_MOLECULAR_FORMULA>
C16H20N6OS

> <PUBCHEM_MOLECULAR_WEIGHT>
344.4

> <PUBCHEM_OPENEYE_CAN_SMILES>
C1CC2=C(CC1N=C(N)NC(=O)NCC3=CC=CC=C3)SC(=N2)N

> <PUBCHEM_OPENEYE_ISO_SMILES>
C1CC2=C(CC1N=C(N)NC(=O)NCC3=CC=CC=C3)SC(=N2)N

> <PUBCHEM_CACTVS_TPSA>
147

> <PUBCHEM_MONOISOTOPIC_WEIGHT>
344.14193046

> <PUBCHEM_TOTAL_CHARGE>
0

> <PUBCHEM_HEAVY_ATOM_COUNT>
24

> <PUBCHEM_ATOM_DEF_STEREO_COUNT>
0

> <PUBCHEM_ATOM_UDEF_STEREO_COUNT>
1

> <PUBCHEM_BOND_DEF_STEREO_COUNT>
0

> <PUBCHEM_BOND_UDEF_STEREO_COUNT>
0

> <PUBCHEM_ISOTOPIC_ATOM_COUNT>
0

> <PUBCHEM_COMPONENT_COUNT>
1

> <PUBCHEM_CACTVS_TAUTO_COUNT>
-1

> <PUBCHEM_COORDINATE_TYPE>
1
5
255

> <PUBCHEM_BONDANNOTATIONS>
1  13  8
1  15  8
13  14  8
19  20  8
19  21  8
20  22  8
21  23  8
22  24  8
23  24  8
9  3  3
4  14  8
4  15  8

$$$$
