28390601
  -OEChem-09292322402D

 55 59  0     1  0  0  0  0  0999 V2000
    5.0772    0.0022    0.0000 O   0  0  0  0  0  0  0  0  0  0  0  0
    3.0827   -1.8344    0.0000 O   0  0  0  0  0  0  0  0  0  0  0  0
    9.6240   -0.2003    0.0000 N   0  0  0  0  0  0  0  0  0  0  0  0
    7.8919   -1.2003    0.0000 N   0  0  0  0  0  0  0  0  0  0  0  0
    5.2463   -1.6070    0.0000 N   0  0  0  0  0  0  0  0  0  0  0  0
   10.4900    0.2997    0.0000 C   0  0  2  0  0  0  0  0  0  0  0  0
   10.4900    1.2997    0.0000 C   0  0  0  0  0  0  0  0  0  0  0  0
   11.3560   -0.2003    0.0000 C   0  0  0  0  0  0  0  0  0  0  0  0
    9.6240   -1.2003    0.0000 C   0  0  0  0  0  0  0  0  0  0  0  0
    8.7579    0.2997    0.0000 C   0  0  0  0  0  0  0  0  0  0  0  0
    8.7579   -1.7003    0.0000 C   0  0  0  0  0  0  0  0  0  0  0  0
    7.8919   -0.2003    0.0000 C   0  0  0  0  0  0  0  0  0  0  0  0
   11.3560    1.7997    0.0000 C   0  0  0  0  0  0  0  0  0  0  0  0
   12.2221    0.2997    0.0000 C   0  0  0  0  0  0  0  0  0  0  0  0
   12.2221    1.2997    0.0000 C   0  0  0  0  0  0  0  0  0  0  0  0
    7.0259   -1.7003    0.0000 C   0  0  0  0  0  0  0  0  0  0  0  0
   13.1160   -0.2349    0.0000 C   0  0  0  0  0  0  0  0  0  0  0  0
   13.1160    1.8344    0.0000 C   0  0  0  0  0  0  0  0  0  0  0  0
    6.1599   -1.2003    0.0000 C   0  0  0  0  0  0  0  0  0  0  0  0
   14.0221    0.2789    0.0000 C   0  0  0  0  0  0  0  0  0  0  0  0
   14.0221    1.3206    0.0000 C   0  0  0  0  0  0  0  0  0  0  0  0
    6.0554   -0.2057    0.0000 C   0  0  0  0  0  0  0  0  0  0  0  0
    4.5772   -0.8638    0.0000 C   0  0  0  0  0  0  0  0  0  0  0  0
    6.7985    0.4634    0.0000 C   0  0  0  0  0  0  0  0  0  0  0  0
    3.5827   -0.9684    0.0000 C   0  0  0  0  0  0  0  0  0  0  0  0
    2.9136   -0.2252    0.0000 C   0  0  0  0  0  0  0  0  0  0  0  0
    2.0000   -0.6320    0.0000 C   0  0  0  0  0  0  0  0  0  0  0  0
    2.1045   -1.6265    0.0000 C   0  0  0  0  0  0  0  0  0  0  0  0
    9.9531    0.6097    0.0000 H   0  0  0  0  0  0  0  0  0  0  0  0
   10.2779    1.8824    0.0000 H   0  0  0  0  0  0  0  0  0  0  0  0
    9.8794    1.1921    0.0000 H   0  0  0  0  0  0  0  0  0  0  0  0
   10.9575   -0.6752    0.0000 H   0  0  0  0  0  0  0  0  0  0  0  0
   11.7546   -0.6752    0.0000 H   0  0  0  0  0  0  0  0  0  0  0  0
    9.8360   -1.7829    0.0000 H   0  0  0  0  0  0  0  0  0  0  0  0
   10.2346   -1.0926    0.0000 H   0  0  0  0  0  0  0  0  0  0  0  0
    9.1565    0.7747    0.0000 H   0  0  0  0  0  0  0  0  0  0  0  0
    8.3594    0.7747    0.0000 H   0  0  0  0  0  0  0  0  0  0  0  0
    8.3594   -2.1752    0.0000 H   0  0  0  0  0  0  0  0  0  0  0  0
    9.1565   -2.1752    0.0000 H   0  0  0  0  0  0  0  0  0  0  0  0
    7.6799    0.3824    0.0000 H   0  0  0  0  0  0  0  0  0  0  0  0
    7.2813   -0.3079    0.0000 H   0  0  0  0  0  0  0  0  0  0  0  0
   11.7546    2.2747    0.0000 H   0  0  0  0  0  0  0  0  0  0  0  0
   10.9575    2.2747    0.0000 H   0  0  0  0  0  0  0  0  0  0  0  0
    6.6274   -2.1752    0.0000 H   0  0  0  0  0  0  0  0  0  0  0  0
    7.4244   -2.1752    0.0000 H   0  0  0  0  0  0  0  0  0  0  0  0
   13.1088   -0.8549    0.0000 H   0  0  0  0  0  0  0  0  0  0  0  0
   13.1088    2.4544    0.0000 H   0  0  0  0  0  0  0  0  0  0  0  0
   14.5578   -0.0331    0.0000 H   0  0  0  0  0  0  0  0  0  0  0  0
   14.5578    1.6326    0.0000 H   0  0  0  0  0  0  0  0  0  0  0  0
    7.2134    0.0026    0.0000 H   0  0  0  0  0  0  0  0  0  0  0  0
    7.2592    0.8783    0.0000 H   0  0  0  0  0  0  0  0  0  0  0  0
    6.3836    0.9241    0.0000 H   0  0  0  0  0  0  0  0  0  0  0  0
    3.0424    0.3812    0.0000 H   0  0  0  0  0  0  0  0  0  0  0  0
    1.4631   -0.3220    0.0000 H   0  0  0  0  0  0  0  0  0  0  0  0
    1.6438   -2.0414    0.0000 H   0  0  0  0  0  0  0  0  0  0  0  0
  1 22  1  0  0  0  0
  1 23  1  0  0  0  0
  2 25  1  0  0  0  0
  2 28  1  0  0  0  0
  6  3  1  6  0  0  0
  3  9  1  0  0  0  0
  3 10  1  0  0  0  0
  4 11  1  0  0  0  0
  4 12  1  0  0  0  0
  4 16  1  0  0  0  0
  5 19  1  0  0  0  0
  5 23  2  0  0  0  0
  6  7  1  0  0  0  0
  6  8  1  0  0  0  0
  6 29  1  0  0  0  0
  7 13  1  0  0  0  0
  7 30  1  0  0  0  0
  7 31  1  0  0  0  0
  8 14  1  0  0  0  0
  8 32  1  0  0  0  0
  8 33  1  0  0  0  0
  9 11  1  0  0  0  0
  9 34  1  0  0  0  0
  9 35  1  0  0  0  0
 10 12  1  0  0  0  0
 10 36  1  0  0  0  0
 10 37  1  0  0  0  0
 11 38  1  0  0  0  0
 11 39  1  0  0  0  0
 12 40  1  0  0  0  0
 12 41  1  0  0  0  0
 13 15  1  0  0  0  0
 13 42  1  0  0  0  0
 13 43  1  0  0  0  0
 14 15  1  0  0  0  0
 14 17  2  0  0  0  0
 15 18  2  0  0  0  0
 16 19  1  0  0  0  0
 16 44  1  0  0  0  0
 16 45  1  0  0  0  0
 17 20  1  0  0  0  0
 17 46  1  0  0  0  0
 18 21  1  0  0  0  0
 18 47  1  0  0  0  0
 19 22  2  0  0  0  0
 20 21  2  0  0  0  0
 20 48  1  0  0  0  0
 21 49  1  0  0  0  0
 22 24  1  0  0  0  0
 23 25  1  0  0  0  0
 24 50  1  0  0  0  0
 24 51  1  0  0  0  0
 24 52  1  0  0  0  0
 25 26  2  0  0  0  0
 26 27  1  0  0  0  0
 26 53  1  0  0  0  0
 27 28  2  0  0  0  0
 27 54  1  0  0  0  0
 28 55  1  0  0  0  0
M  END
> <PUBCHEM_COMPOUND_CID>
28390601

> <PUBCHEM_COMPOUND_CANONICALIZED>
1

> <PUBCHEM_CACTVS_COMPLEXITY>
510

> <PUBCHEM_CACTVS_HBOND_ACCEPTOR>
5

> <PUBCHEM_CACTVS_HBOND_DONOR>
0

> <PUBCHEM_CACTVS_ROTATABLE_BOND>
4

> <PUBCHEM_CACTVS_SUBSKEYS>
AAADceB7MAAAAAAAAAAAAAAAAAAAAWJAAAA8YIAAAAAAAADB8AAAHgAAAAAADCzhngYyhJMIFECoA61y1AaCiCAvYCAImCH/TNgPZrrEtT+fOSjmxBHaqYeYt4oOgAAAAAAQAAAQAACAACAAAAAAAAAAAA==

> <PUBCHEM_IUPAC_OPENEYE_NAME>
2-(2-furyl)-5-methyl-4-[[4-[(2R)-tetralin-2-yl]piperazin-1-yl]methyl]oxazole

> <PUBCHEM_IUPAC_CAS_NAME>
2-(2-furanyl)-5-methyl-4-[[4-[(2R)-1,2,3,4-tetrahydronaphthalen-2-yl]-1-piperazinyl]methyl]oxazole

> <PUBCHEM_IUPAC_NAME_MARKUP>
2-(furan-2-yl)-5-methyl-4-[[4-[(2<I>R</I>)-1,2,3,4-tetrahydronaphthalen-2-yl]piperazin-1-yl]methyl]-1,3-oxazole

> <PUBCHEM_IUPAC_NAME>
2-(furan-2-yl)-5-methyl-4-[[4-[(2R)-1,2,3,4-tetrahydronaphthalen-2-yl]piperazin-1-yl]methyl]-1,3-oxazole

> <PUBCHEM_IUPAC_SYSTEMATIC_NAME>
2-(furan-2-yl)-5-methyl-4-[[4-[(2R)-1,2,3,4-tetrahydronaphthalen-2-yl]piperazin-1-yl]methyl]-1,3-oxazole

> <PUBCHEM_IUPAC_TRADITIONAL_NAME>
2-(2-furyl)-5-methyl-4-[[4-[(2R)-tetralin-2-yl]piperazino]methyl]oxazole

> <PUBCHEM_IUPAC_INCHI>
InChI=1S/C23H27N3O2/c1-17-21(24-23(28-17)22-7-4-14-27-22)16-25-10-12-26(13-11-25)20-9-8-18-5-2-3-6-19(18)15-20/h2-7,14,20H,8-13,15-16H2,1H3/t20-/m1/s1

> <PUBCHEM_IUPAC_INCHIKEY>
XPRWZTNAGMLCGT-HXUWFJFHSA-N

> <PUBCHEM_XLOGP3_AA>
3.6

> <PUBCHEM_EXACT_MASS>
377.21032711

> <PUBCHEM_MOLECULAR_FORMULA>
C23H27N3O2

> <PUBCHEM_MOLECULAR_WEIGHT>
377.5

> <PUBCHEM_OPENEYE_CAN_SMILES>
CC1=C(N=C(O1)C2=CC=CO2)CN3CCN(CC3)C4CCC5=CC=CC=C5C4

> <PUBCHEM_OPENEYE_ISO_SMILES>
CC1=C(N=C(O1)C2=CC=CO2)CN3CCN(CC3)[C@@H]4CCC5=CC=CC=C5C4

> <PUBCHEM_CACTVS_TPSA>
45.6

> <PUBCHEM_MONOISOTOPIC_WEIGHT>
377.21032711

> <PUBCHEM_TOTAL_CHARGE>
0

> <PUBCHEM_HEAVY_ATOM_COUNT>
28

> <PUBCHEM_ATOM_DEF_STEREO_COUNT>
1

> <PUBCHEM_ATOM_UDEF_STEREO_COUNT>
0

> <PUBCHEM_BOND_DEF_STEREO_COUNT>
0

> <PUBCHEM_BOND_UDEF_STEREO_COUNT>
0

> <PUBCHEM_ISOTOPIC_ATOM_COUNT>
0

> <PUBCHEM_COMPONENT_COUNT>
1

> <PUBCHEM_CACTVS_TAUTO_COUNT>
-1

> <PUBCHEM_COORDINATE_TYPE>
1
5
255

> <PUBCHEM_BONDANNOTATIONS>
1  22  8
1  23  8
14  15  8
14  17  8
15  18  8
17  20  8
18  21  8
19  22  8
2  25  8
2  28  8
20  21  8
25  26  8
26  27  8
27  28  8
6  3  6
5  19  8
5  23  8

$$$$
