137647674
  -OEChem-09292322062D

 74 77  0     1  0  0  0  0  0999 V2000
    5.3040    0.0000    0.0000 Cl  0  0  0  0  0  0  0  0  0  0  0  0
    8.4730    7.1330    0.0000 S   0  0  0  0  0  0  0  0  0  0  0  0
    1.5285   13.1676    0.0000 O   0  0  0  0  0  0  0  0  0  0  0  0
    3.2769    9.1330    0.0000 O   0  0  0  0  0  0  0  0  0  0  0  0
    6.7410   10.1330    0.0000 N   0  0  0  0  0  0  0  0  0  0  0  0
    8.4730    9.1330    0.0000 N   0  0  0  0  0  0  0  0  0  0  0  0
    2.4109   10.6330    0.0000 N   0  0  0  0  0  0  0  0  0  0  0  0
    3.2769   12.1330    0.0000 N   0  0  0  0  0  0  0  0  0  0  0  0
    7.6070   10.6330    0.0000 C   0  0  0  0  0  0  0  0  0  0  0  0
    6.7410    9.1330    0.0000 C   0  0  0  0  0  0  0  0  0  0  0  0
    5.8750   10.6330    0.0000 C   0  0  0  0  0  0  0  0  0  0  0  0
    8.4730   10.1330    0.0000 C   0  0  0  0  0  0  0  0  0  0  0  0
    7.6070    8.6330    0.0000 C   0  0  0  0  0  0  0  0  0  0  0  0
    5.0089   10.1330    0.0000 C   0  0  0  0  0  0  0  0  0  0  0  0
    1.5169   10.0983    0.0000 C   0  0  0  0  0  0  0  0  0  0  0  0
    1.5169   12.1677    0.0000 C   0  0  3  0  0  0  0  0  0  0  0  0
    0.6109   10.6122    0.0000 C   0  0  0  0  0  0  0  0  0  0  0  0
    0.6109   11.6538    0.0000 C   0  0  0  0  0  0  0  0  0  0  0  0
    4.1429   10.6330    0.0000 C   0  0  0  0  0  0  0  0  0  0  0  0
    2.4109   11.6330    0.0000 C   0  0  0  0  0  0  0  0  0  0  0  0
    3.2769   10.1330    0.0000 C   0  0  0  0  0  0  0  0  0  0  0  0
    9.3391    8.6330    0.0000 C   0  0  0  0  0  0  0  0  0  0  0  0
    4.1429   11.6330    0.0000 C   0  0  0  0  0  0  0  0  0  0  0  0
    9.3391    7.6330    0.0000 C   0  0  0  0  0  0  0  0  0  0  0  0
    5.0089   12.1330    0.0000 C   0  0  0  0  0  0  0  0  0  0  0  0
   10.2051    9.1330    0.0000 C   0  0  0  0  0  0  0  0  0  0  0  0
   10.2051    7.1330    0.0000 C   0  0  0  0  0  0  0  0  0  0  0  0
   11.0711    8.6330    0.0000 C   0  0  0  0  0  0  0  0  0  0  0  0
   11.0711    7.6330    0.0000 C   0  0  0  0  0  0  0  0  0  0  0  0
    8.4730    6.1330    0.0000 C   0  0  0  0  0  0  0  0  0  0  0  0
    7.6070    5.6330    0.0000 C   0  0  0  0  0  0  0  0  0  0  0  0
    9.3391    5.6330    0.0000 C   0  0  0  0  0  0  0  0  0  0  0  0
    7.6070    4.6330    0.0000 C   0  0  0  0  0  0  0  0  0  0  0  0
    8.4730    4.1330    0.0000 C   0  0  0  0  0  0  0  0  0  0  0  0
    9.3391    4.6330    0.0000 C   0  0  0  0  0  0  0  0  0  0  0  0
    6.7410    6.1330    0.0000 C   0  0  0  0  0  0  0  0  0  0  0  0
    8.4730    3.1330    0.0000 C   0  0  0  0  0  0  0  0  0  0  0  0
    8.0055   11.1080    0.0000 H   0  0  0  0  0  0  0  0  0  0  0  0
    7.2085   11.1080    0.0000 H   0  0  0  0  0  0  0  0  0  0  0  0
    6.1304    9.2407    0.0000 H   0  0  0  0  0  0  0  0  0  0  0  0
    6.5289    8.5504    0.0000 H   0  0  0  0  0  0  0  0  0  0  0  0
    6.2735   11.1080    0.0000 H   0  0  0  0  0  0  0  0  0  0  0  0
    5.4764   11.1080    0.0000 H   0  0  0  0  0  0  0  0  0  0  0  0
    9.0836   10.0253    0.0000 H   0  0  0  0  0  0  0  0  0  0  0  0
    8.6851   10.7156    0.0000 H   0  0  0  0  0  0  0  0  0  0  0  0
    7.2085    8.1581    0.0000 H   0  0  0  0  0  0  0  0  0  0  0  0
    8.0055    8.1581    0.0000 H   0  0  0  0  0  0  0  0  0  0  0  0
    4.6104    9.6581    0.0000 H   0  0  0  0  0  0  0  0  0  0  0  0
    5.4075    9.6581    0.0000 H   0  0  0  0  0  0  0  0  0  0  0  0
    1.1233    9.6193    0.0000 H   0  0  0  0  0  0  0  0  0  0  0  0
    1.9215    9.6286    0.0000 H   0  0  0  0  0  0  0  0  0  0  0  0
    0.9830   12.4828    0.0000 H   0  0  0  0  0  0  0  0  0  0  0  0
    0.0000   10.7183    0.0000 H   0  0  0  0  0  0  0  0  0  0  0  0
    0.4018   10.0285    0.0000 H   0  0  0  0  0  0  0  0  0  0  0  0
    0.4018   12.2375    0.0000 H   0  0  0  0  0  0  0  0  0  0  0  0
    0.0000   11.5477    0.0000 H   0  0  0  0  0  0  0  0  0  0  0  0
    5.3189   11.5961    0.0000 H   0  0  0  0  0  0  0  0  0  0  0  0
    5.5459   12.4430    0.0000 H   0  0  0  0  0  0  0  0  0  0  0  0
    4.6989   12.6699    0.0000 H   0  0  0  0  0  0  0  0  0  0  0  0
   10.2051    9.7530    0.0000 H   0  0  0  0  0  0  0  0  0  0  0  0
    0.9952   13.4838    0.0000 H   0  0  0  0  0  0  0  0  0  0  0  0
   10.2051    6.5130    0.0000 H   0  0  0  0  0  0  0  0  0  0  0  0
   11.6081    8.9430    0.0000 H   0  0  0  0  0  0  0  0  0  0  0  0
   11.6081    7.3230    0.0000 H   0  0  0  0  0  0  0  0  0  0  0  0
    9.8760    5.9430    0.0000 H   0  0  0  0  0  0  0  0  0  0  0  0
    7.0701    4.3230    0.0000 H   0  0  0  0  0  0  0  0  0  0  0  0
    9.8760    4.3230    0.0000 H   0  0  0  0  0  0  0  0  0  0  0  0
    7.0510    6.6700    0.0000 H   0  0  0  0  0  0  0  0  0  0  0  0
    6.2041    6.4430    0.0000 H   0  0  0  0  0  0  0  0  0  0  0  0
    6.4310    5.5961    0.0000 H   0  0  0  0  0  0  0  0  0  0  0  0
    7.8530    3.1330    0.0000 H   0  0  0  0  0  0  0  0  0  0  0  0
    8.4730    2.5130    0.0000 H   0  0  0  0  0  0  0  0  0  0  0  0
    9.0930    3.1330    0.0000 H   0  0  0  0  0  0  0  0  0  0  0  0
    6.3040    0.0000    0.0000 H   0  0  0  0  0  0  0  0  0  0  0  0
  1 74  1  0  0  0  0
  2 24  1  0  0  0  0
  2 30  1  0  0  0  0
  3 16  1  0  0  0  0
  3 61  1  0  0  0  0
  4 21  2  0  0  0  0
  5  9  1  0  0  0  0
  5 10  1  0  0  0  0
  5 11  1  0  0  0  0
  6 12  1  0  0  0  0
  6 13  1  0  0  0  0
  6 22  1  0  0  0  0
  7 15  1  0  0  0  0
  7 20  1  0  0  0  0
  7 21  1  0  0  0  0
  8 20  2  0  0  0  0
  8 23  1  0  0  0  0
  9 12  1  0  0  0  0
  9 38  1  0  0  0  0
  9 39  1  0  0  0  0
 10 13  1  0  0  0  0
 10 40  1  0  0  0  0
 10 41  1  0  0  0  0
 11 14  1  0  0  0  0
 11 42  1  0  0  0  0
 11 43  1  0  0  0  0
 12 44  1  0  0  0  0
 12 45  1  0  0  0  0
 13 46  1  0  0  0  0
 13 47  1  0  0  0  0
 14 19  1  0  0  0  0
 14 48  1  0  0  0  0
 14 49  1  0  0  0  0
 15 17  1  0  0  0  0
 15 50  1  0  0  0  0
 15 51  1  0  0  0  0
 16 18  1  0  0  0  0
 16 20  1  0  0  0  0
 16 52  1  0  0  0  0
 17 18  1  0  0  0  0
 17 53  1  0  0  0  0
 17 54  1  0  0  0  0
 18 55  1  0  0  0  0
 18 56  1  0  0  0  0
 19 21  1  0  0  0  0
 19 23  2  0  0  0  0
 22 24  1  0  0  0  0
 22 26  2  0  0  0  0
 23 25  1  0  0  0  0
 24 27  2  0  0  0  0
 25 57  1  0  0  0  0
 25 58  1  0  0  0  0
 25 59  1  0  0  0  0
 26 28  1  0  0  0  0
 26 60  1  0  0  0  0
 27 29  1  0  0  0  0
 27 62  1  0  0  0  0
 28 29  2  0  0  0  0
 28 63  1  0  0  0  0
 29 64  1  0  0  0  0
 30 31  2  0  0  0  0
 30 32  1  0  0  0  0
 31 33  1  0  0  0  0
 31 36  1  0  0  0  0
 32 35  2  0  0  0  0
 32 65  1  0  0  0  0
 33 34  2  0  0  0  0
 33 66  1  0  0  0  0
 34 35  1  0  0  0  0
 34 37  1  0  0  0  0
 35 67  1  0  0  0  0
 36 68  1  0  0  0  0
 36 69  1  0  0  0  0
 36 70  1  0  0  0  0
 37 71  1  0  0  0  0
 37 72  1  0  0  0  0
 37 73  1  0  0  0  0
M  END
> <PUBCHEM_COMPOUND_CID>
137647674

> <PUBCHEM_COMPOUND_CANONICALIZED>
1

> <PUBCHEM_CACTVS_COMPLEXITY>
852

> <PUBCHEM_CACTVS_HBOND_ACCEPTOR>
6

> <PUBCHEM_CACTVS_HBOND_DONOR>
2

> <PUBCHEM_CACTVS_ROTATABLE_BOND>
6

> <PUBCHEM_CACTVS_SUBSKEYS>
AAADcfB7sABEAAAAAAAAAAAAAAAAAAAAAAA8eIECAAAAAACBQAAAHgQACAAADBzh2AYzwYMAAgioAidydASCAAEhChAJiB04ZMgKcDLgmZGUYAhkhgD4yUc0gEAOEAACAAAEAQAgAAQAAAgCAAAAAAAAAA==

> <PUBCHEM_IUPAC_OPENEYE_NAME>
3-[2-[4-[2-(2,4-dimethylphenyl)sulfanylphenyl]piperazin-1-yl]ethyl]-9-hydroxy-2-methyl-6,7,8,9-tetrahydropyrido[1,2-a]pyrimidin-4-one;hydrochloride

> <PUBCHEM_IUPAC_CAS_NAME>
3-[2-[4-[2-[(2,4-dimethylphenyl)thio]phenyl]-1-piperazinyl]ethyl]-9-hydroxy-2-methyl-6,7,8,9-tetrahydropyrido[1,2-a]pyrimidin-4-one;hydrochloride

> <PUBCHEM_IUPAC_NAME_MARKUP>
3-[2-[4-[2-(2,4-dimethylphenyl)sulfanylphenyl]piperazin-1-yl]ethyl]-9-hydroxy-2-methyl-6,7,8,9-tetrahydropyrido[1,2-a]pyrimidin-4-one;hydrochloride

> <PUBCHEM_IUPAC_NAME>
3-[2-[4-[2-(2,4-dimethylphenyl)sulfanylphenyl]piperazin-1-yl]ethyl]-9-hydroxy-2-methyl-6,7,8,9-tetrahydropyrido[1,2-a]pyrimidin-4-one;hydrochloride

> <PUBCHEM_IUPAC_SYSTEMATIC_NAME>
3-[2-[4-[2-(2,4-dimethylphenyl)sulfanylphenyl]piperazin-1-yl]ethyl]-2-methyl-9-oxidanyl-6,7,8,9-tetrahydropyrido[1,2-a]pyrimidin-4-one;hydrochloride

> <PUBCHEM_IUPAC_TRADITIONAL_NAME>
3-[2-[4-[2-[(2,4-dimethylphenyl)thio]phenyl]piperazino]ethyl]-9-hydroxy-2-methyl-6,7,8,9-tetrahydropyrido[1,2-a]pyrimidin-4-one;hydrochloride

> <PUBCHEM_IUPAC_INCHI>
InChI=1S/C29H36N4O2S.ClH/c1-20-10-11-26(21(2)19-20)36-27-9-5-4-7-24(27)32-17-15-31(16-18-32)14-12-23-22(3)30-28-25(34)8-6-13-33(28)29(23)35;/h4-5,7,9-11,19,25,34H,6,8,12-18H2,1-3H3;1H

> <PUBCHEM_IUPAC_INCHIKEY>
BVHJKISMBSDSFW-UHFFFAOYSA-N

> <PUBCHEM_EXACT_MASS>
540.2325753

> <PUBCHEM_MOLECULAR_FORMULA>
C29H37ClN4O2S

> <PUBCHEM_MOLECULAR_WEIGHT>
541.1

> <PUBCHEM_OPENEYE_CAN_SMILES>
CC1=CC(=C(C=C1)SC2=CC=CC=C2N3CCN(CC3)CCC4=C(N=C5C(CCCN5C4=O)O)C)C.Cl

> <PUBCHEM_OPENEYE_ISO_SMILES>
CC1=CC(=C(C=C1)SC2=CC=CC=C2N3CCN(CC3)CCC4=C(N=C5C(CCCN5C4=O)O)C)C.Cl

> <PUBCHEM_CACTVS_TPSA>
84.7

> <PUBCHEM_MONOISOTOPIC_WEIGHT>
540.2325753

> <PUBCHEM_TOTAL_CHARGE>
0

> <PUBCHEM_HEAVY_ATOM_COUNT>
37

> <PUBCHEM_ATOM_DEF_STEREO_COUNT>
0

> <PUBCHEM_ATOM_UDEF_STEREO_COUNT>
1

> <PUBCHEM_BOND_DEF_STEREO_COUNT>
0

> <PUBCHEM_BOND_UDEF_STEREO_COUNT>
0

> <PUBCHEM_ISOTOPIC_ATOM_COUNT>
0

> <PUBCHEM_COMPONENT_COUNT>
2

> <PUBCHEM_CACTVS_TAUTO_COUNT>
-1

> <PUBCHEM_COORDINATE_TYPE>
1
5
255

> <PUBCHEM_BONDANNOTATIONS>
19  21  8
19  23  8
22  24  8
22  26  8
24  27  8
26  28  8
27  29  8
28  29  8
16  3  3
30  31  8
30  32  8
31  33  8
32  35  8
33  34  8
34  35  8
7  20  8
7  21  8
8  20  8
8  23  8

$$$$
