137639125
  -OEChem-09292322392D

 64 67  0     1  0  0  0  0  0999 V2000
    8.9282    2.2010    0.0000 O   0  0  0  0  0  0  0  0  0  0  0  0
   10.6603    1.2010    0.0000 O   0  0  0  0  0  0  0  0  0  0  0  0
    6.3301   -2.2990    0.0000 O   0  0  0  0  0  0  0  0  0  0  0  0
    4.5981   -3.2990    0.0000 O   0  0  0  0  0  0  0  0  0  0  0  0
    2.8660   -3.2990    0.0000 O   0  0  0  0  0  0  0  0  0  0  0  0
    8.0622   -0.2990    0.0000 N   0  0  0  0  0  0  0  0  0  0  0  0
    9.7942    2.7010    0.0000 C   0  0  0  0  0  0  0  0  0  0  0  0
    8.9282    1.2010    0.0000 C   0  0  3  0  0  0  0  0  0  0  0  0
   10.6603    2.2010    0.0000 C   0  0  0  0  0  0  0  0  0  0  0  0
    9.7942    0.7010    0.0000 C   0  0  0  0  0  0  0  0  0  0  0  0
   10.7339    3.0430    0.0000 C   0  0  0  0  0  0  0  0  0  0  0  0
    9.2942    3.5670    0.0000 C   0  0  0  0  0  0  0  0  0  0  0  0
    8.0622    0.7010    0.0000 C   0  0  0  0  0  0  0  0  0  0  0  0
   10.9076    4.0278    0.0000 C   0  0  0  0  0  0  0  0  0  0  0  0
    8.2942    3.5670    0.0000 C   0  0  0  0  0  0  0  0  0  0  0  0
   11.5000    2.4002    0.0000 C   0  0  0  0  0  0  0  0  0  0  0  0
    9.7942    4.4330    0.0000 C   0  0  0  0  0  0  0  0  0  0  0  0
    7.1962   -0.7990    0.0000 C   0  0  0  0  0  0  0  0  0  0  0  0
   11.8473    4.3698    0.0000 C   0  0  0  0  0  0  0  0  0  0  0  0
    7.7942    4.4330    0.0000 C   0  0  0  0  0  0  0  0  0  0  0  0
   12.4397    2.7422    0.0000 C   0  0  0  0  0  0  0  0  0  0  0  0
    9.2942    5.2990    0.0000 C   0  0  0  0  0  0  0  0  0  0  0  0
   12.6133    3.7270    0.0000 C   0  0  0  0  0  0  0  0  0  0  0  0
    8.2942    5.2990    0.0000 C   0  0  0  0  0  0  0  0  0  0  0  0
    7.1962   -1.7990    0.0000 C   0  0  0  0  0  0  0  0  0  0  0  0
    6.3301   -3.2990    0.0000 C   0  0  0  0  0  0  0  0  0  0  0  0
    5.4641   -3.7990    0.0000 C   0  0  0  0  0  0  0  0  0  0  0  0
    7.1962   -3.7990    0.0000 C   0  0  0  0  0  0  0  0  0  0  0  0
    5.4641   -4.7990    0.0000 C   0  0  0  0  0  0  0  0  0  0  0  0
    7.1962   -4.7990    0.0000 C   0  0  0  0  0  0  0  0  0  0  0  0
    6.3301   -5.2990    0.0000 C   0  0  0  0  0  0  0  0  0  0  0  0
    3.7320   -3.7990    0.0000 C   0  0  0  0  0  0  0  0  0  0  0  0
    2.0000   -3.7990    0.0000 C   0  0  0  0  0  0  0  0  0  0  0  0
    8.3913    1.5110    0.0000 H   0  0  0  0  0  0  0  0  0  0  0  0
   11.2708    2.0933    0.0000 H   0  0  0  0  0  0  0  0  0  0  0  0
   10.8723    2.7836    0.0000 H   0  0  0  0  0  0  0  0  0  0  0  0
    9.3957    0.2260    0.0000 H   0  0  0  0  0  0  0  0  0  0  0  0
   10.1928    0.2260    0.0000 H   0  0  0  0  0  0  0  0  0  0  0  0
    7.8501    1.2836    0.0000 H   0  0  0  0  0  0  0  0  0  0  0  0
    7.4516    0.5933    0.0000 H   0  0  0  0  0  0  0  0  0  0  0  0
    8.5991   -0.6090    0.0000 H   0  0  0  0  0  0  0  0  0  0  0  0
   10.4326    4.4263    0.0000 H   0  0  0  0  0  0  0  0  0  0  0  0
    7.9842    3.0300    0.0000 H   0  0  0  0  0  0  0  0  0  0  0  0
   11.3923    1.7896    0.0000 H   0  0  0  0  0  0  0  0  0  0  0  0
   10.4142    4.4330    0.0000 H   0  0  0  0  0  0  0  0  0  0  0  0
    6.9841   -0.2164    0.0000 H   0  0  0  0  0  0  0  0  0  0  0  0
    6.5856   -0.9067    0.0000 H   0  0  0  0  0  0  0  0  0  0  0  0
   11.9549    4.9804    0.0000 H   0  0  0  0  0  0  0  0  0  0  0  0
    7.1742    4.4330    0.0000 H   0  0  0  0  0  0  0  0  0  0  0  0
   12.9146    2.3437    0.0000 H   0  0  0  0  0  0  0  0  0  0  0  0
    9.6042    5.8360    0.0000 H   0  0  0  0  0  0  0  0  0  0  0  0
   13.1959    3.9391    0.0000 H   0  0  0  0  0  0  0  0  0  0  0  0
    7.9842    5.8360    0.0000 H   0  0  0  0  0  0  0  0  0  0  0  0
    7.4082   -2.3816    0.0000 H   0  0  0  0  0  0  0  0  0  0  0  0
    7.8067   -1.6914    0.0000 H   0  0  0  0  0  0  0  0  0  0  0  0
    7.7331   -3.4890    0.0000 H   0  0  0  0  0  0  0  0  0  0  0  0
    4.9272   -5.1090    0.0000 H   0  0  0  0  0  0  0  0  0  0  0  0
    7.7331   -5.1090    0.0000 H   0  0  0  0  0  0  0  0  0  0  0  0
    6.3301   -5.9190    0.0000 H   0  0  0  0  0  0  0  0  0  0  0  0
    3.3335   -4.2740    0.0000 H   0  0  0  0  0  0  0  0  0  0  0  0
    4.1306   -4.2740    0.0000 H   0  0  0  0  0  0  0  0  0  0  0  0
    1.6900   -3.2621    0.0000 H   0  0  0  0  0  0  0  0  0  0  0  0
    1.4631   -4.1090    0.0000 H   0  0  0  0  0  0  0  0  0  0  0  0
    2.3100   -4.3360    0.0000 H   0  0  0  0  0  0  0  0  0  0  0  0
  1  7  1  0  0  0  0
  1  8  1  0  0  0  0
  2  9  1  0  0  0  0
  2 10  1  0  0  0  0
  3 25  1  0  0  0  0
  3 26  1  0  0  0  0
  4 27  1  0  0  0  0
  4 32  1  0  0  0  0
  5 32  1  0  0  0  0
  5 33  1  0  0  0  0
  6 13  1  0  0  0  0
  6 18  1  0  0  0  0
  6 41  1  0  0  0  0
  7  9  1  0  0  0  0
  7 11  1  0  0  0  0
  7 12  1  0  0  0  0
  8 10  1  0  0  0  0
  8 13  1  0  0  0  0
  8 34  1  0  0  0  0
  9 35  1  0  0  0  0
  9 36  1  0  0  0  0
 10 37  1  0  0  0  0
 10 38  1  0  0  0  0
 11 14  2  0  0  0  0
 11 16  1  0  0  0  0
 12 15  2  0  0  0  0
 12 17  1  0  0  0  0
 13 39  1  0  0  0  0
 13 40  1  0  0  0  0
 14 19  1  0  0  0  0
 14 42  1  0  0  0  0
 15 20  1  0  0  0  0
 15 43  1  0  0  0  0
 16 21  2  0  0  0  0
 16 44  1  0  0  0  0
 17 22  2  0  0  0  0
 17 45  1  0  0  0  0
 18 25  1  0  0  0  0
 18 46  1  0  0  0  0
 18 47  1  0  0  0  0
 19 23  2  0  0  0  0
 19 48  1  0  0  0  0
 20 24  2  0  0  0  0
 20 49  1  0  0  0  0
 21 23  1  0  0  0  0
 21 50  1  0  0  0  0
 22 24  1  0  0  0  0
 22 51  1  0  0  0  0
 23 52  1  0  0  0  0
 24 53  1  0  0  0  0
 25 54  1  0  0  0  0
 25 55  1  0  0  0  0
 26 27  1  0  0  0  0
 26 28  2  0  0  0  0
 27 29  2  0  0  0  0
 28 30  1  0  0  0  0
 28 56  1  0  0  0  0
 29 31  1  0  0  0  0
 29 57  1  0  0  0  0
 30 31  2  0  0  0  0
 30 58  1  0  0  0  0
 31 59  1  0  0  0  0
 32 60  1  0  0  0  0
 32 61  1  0  0  0  0
 33 62  1  0  0  0  0
 33 63  1  0  0  0  0
 33 64  1  0  0  0  0
M  END
> <PUBCHEM_COMPOUND_CID>
137639125

> <PUBCHEM_COMPOUND_CANONICALIZED>
1

> <PUBCHEM_CACTVS_COMPLEXITY>
517

> <PUBCHEM_CACTVS_HBOND_ACCEPTOR>
6

> <PUBCHEM_CACTVS_HBOND_DONOR>
1

> <PUBCHEM_CACTVS_ROTATABLE_BOND>
11

> <PUBCHEM_CACTVS_SUBSKEYS>
AAADceB6OAAAAAAAAAAAAAAAAAAAAAAAAAA0YMEAAAAAAAABUAAAHgAQAAAADFThmAcyDoLABACAAiBCAAACCAAgIAAIiIAOiIgfJiKEMRqnOCKm0BGeqAeAwOAOgAAAAAAAQAAAAAAAAACAAAAAAAAAAA==

> <PUBCHEM_IUPAC_OPENEYE_NAME>
N-[(6,6-diphenyl-1,4-dioxan-2-yl)methyl]-2-[2-(methoxymethoxy)phenoxy]ethanamine

> <PUBCHEM_IUPAC_CAS_NAME>
N-[(6,6-diphenyl-1,4-dioxan-2-yl)methyl]-2-[2-(methoxymethoxy)phenoxy]ethanamine

> <PUBCHEM_IUPAC_NAME_MARKUP>
<I>N</I>-[(6,6-diphenyl-1,4-dioxan-2-yl)methyl]-2-[2-(methoxymethoxy)phenoxy]ethanamine

> <PUBCHEM_IUPAC_NAME>
N-[(6,6-diphenyl-1,4-dioxan-2-yl)methyl]-2-[2-(methoxymethoxy)phenoxy]ethanamine

> <PUBCHEM_IUPAC_SYSTEMATIC_NAME>
N-[(6,6-diphenyl-1,4-dioxan-2-yl)methyl]-2-[2-(methoxymethoxy)phenoxy]ethanamine

> <PUBCHEM_IUPAC_TRADITIONAL_NAME>
(6,6-diphenyl-1,4-dioxan-2-yl)methyl-[2-[2-(methoxymethoxy)phenoxy]ethyl]amine

> <PUBCHEM_IUPAC_INCHI>
InChI=1S/C27H31NO5/c1-29-21-32-26-15-9-8-14-25(26)31-17-16-28-18-24-19-30-20-27(33-24,22-10-4-2-5-11-22)23-12-6-3-7-13-23/h2-15,24,28H,16-21H2,1H3

> <PUBCHEM_IUPAC_INCHIKEY>
RTQVMPUWTJFEJK-UHFFFAOYSA-N

> <PUBCHEM_XLOGP3_AA>
3.9

> <PUBCHEM_EXACT_MASS>
449.22022309

> <PUBCHEM_MOLECULAR_FORMULA>
C27H31NO5

> <PUBCHEM_MOLECULAR_WEIGHT>
449.5

> <PUBCHEM_OPENEYE_CAN_SMILES>
COCOC1=CC=CC=C1OCCNCC2COCC(O2)(C3=CC=CC=C3)C4=CC=CC=C4

> <PUBCHEM_OPENEYE_ISO_SMILES>
COCOC1=CC=CC=C1OCCNCC2COCC(O2)(C3=CC=CC=C3)C4=CC=CC=C4

> <PUBCHEM_CACTVS_TPSA>
58.2

> <PUBCHEM_MONOISOTOPIC_WEIGHT>
449.22022309

> <PUBCHEM_TOTAL_CHARGE>
0

> <PUBCHEM_HEAVY_ATOM_COUNT>
33

> <PUBCHEM_ATOM_DEF_STEREO_COUNT>
0

> <PUBCHEM_ATOM_UDEF_STEREO_COUNT>
1

> <PUBCHEM_BOND_DEF_STEREO_COUNT>
0

> <PUBCHEM_BOND_UDEF_STEREO_COUNT>
0

> <PUBCHEM_ISOTOPIC_ATOM_COUNT>
0

> <PUBCHEM_COMPONENT_COUNT>
1

> <PUBCHEM_CACTVS_TAUTO_COUNT>
-1

> <PUBCHEM_COORDINATE_TYPE>
1
5
255

> <PUBCHEM_BONDANNOTATIONS>
11  14  8
11  16  8
12  15  8
12  17  8
14  19  8
15  20  8
16  21  8
17  22  8
19  23  8
20  24  8
21  23  8
22  24  8
26  27  8
26  28  8
27  29  8
28  30  8
29  31  8
30  31  8
8  13  3

$$$$
