44337675
  -OEChem-09292322112D

 60 64  0     1  0  0  0  0  0999 V2000
   10.9339   -4.4303    0.0000 O   0  0  0  0  0  0  0  0  0  0  0  0
    8.0622   -1.5697    0.0000 N   0  0  0  0  0  0  0  0  0  0  0  0
    6.3301    1.4303    0.0000 N   0  0  0  0  0  0  0  0  0  0  0  0
    4.5981    2.4303    0.0000 N   0  0  0  0  0  0  0  0  0  0  0  0
    8.8712   -2.1575    0.0000 C   0  0  0  0  0  0  0  0  0  0  0  0
    8.5622   -3.1086    0.0000 C   0  0  0  0  0  0  0  0  0  0  0  0
    9.8866   -1.9252    0.0000 C   0  0  0  0  0  0  0  0  0  0  0  0
    9.2472   -3.8933    0.0000 C   0  0  0  0  0  0  0  0  0  0  0  0
   10.2677   -3.6846    0.0000 C   0  0  3  0  0  0  0  0  0  0  0  0
   10.5895   -2.6939    0.0000 C   0  0  0  0  0  0  0  0  0  0  0  0
    8.0622   -0.5697    0.0000 C   0  0  0  0  0  0  0  0  0  0  0  0
    7.5622   -3.1086    0.0000 C   0  0  0  0  0  0  0  0  0  0  0  0
    7.2532   -2.1575    0.0000 C   0  0  0  0  0  0  0  0  0  0  0  0
    7.1962   -0.0697    0.0000 C   0  0  0  0  0  0  0  0  0  0  0  0
    7.1962    0.9303    0.0000 C   0  0  0  0  0  0  0  0  0  0  0  0
    6.3301    2.4303    0.0000 C   0  0  0  0  0  0  0  0  0  0  0  0
    5.4641    0.9303    0.0000 C   0  0  0  0  0  0  0  0  0  0  0  0
    5.4641    2.9303    0.0000 C   0  0  0  0  0  0  0  0  0  0  0  0
    4.5981    1.4303    0.0000 C   0  0  0  0  0  0  0  0  0  0  0  0
    6.8772   -3.8933    0.0000 C   0  0  0  0  0  0  0  0  0  0  0  0
    6.2378   -1.9252    0.0000 C   0  0  0  0  0  0  0  0  0  0  0  0
    3.7320    2.9303    0.0000 C   0  0  0  0  0  0  0  0  0  0  0  0
    5.8567   -3.6846    0.0000 C   0  0  0  0  0  0  0  0  0  0  0  0
    5.5348   -2.6939    0.0000 C   0  0  0  0  0  0  0  0  0  0  0  0
    2.8660    2.4303    0.0000 C   0  0  0  0  0  0  0  0  0  0  0  0
    3.7320    3.9303    0.0000 C   0  0  0  0  0  0  0  0  0  0  0  0
    2.0000    2.9303    0.0000 C   0  0  0  0  0  0  0  0  0  0  0  0
    2.8660    4.4303    0.0000 C   0  0  0  0  0  0  0  0  0  0  0  0
    2.0000    3.9303    0.0000 C   0  0  0  0  0  0  0  0  0  0  0  0
   10.4090   -1.5913    0.0000 H   0  0  0  0  0  0  0  0  0  0  0  0
    9.6470   -1.3534    0.0000 H   0  0  0  0  0  0  0  0  0  0  0  0
    8.7172   -4.2150    0.0000 H   0  0  0  0  0  0  0  0  0  0  0  0
    9.4735   -4.4705    0.0000 H   0  0  0  0  0  0  0  0  0  0  0  0
   10.0727   -4.2731    0.0000 H   0  0  0  0  0  0  0  0  0  0  0  0
   11.1377   -2.9836    0.0000 H   0  0  0  0  0  0  0  0  0  0  0  0
   10.9687   -2.2034    0.0000 H   0  0  0  0  0  0  0  0  0  0  0  0
    8.6728   -0.6774    0.0000 H   0  0  0  0  0  0  0  0  0  0  0  0
    8.2742    0.0129    0.0000 H   0  0  0  0  0  0  0  0  0  0  0  0
    6.5856    0.0380    0.0000 H   0  0  0  0  0  0  0  0  0  0  0  0
    6.9841   -0.6523    0.0000 H   0  0  0  0  0  0  0  0  0  0  0  0
    7.8067    0.8226    0.0000 H   0  0  0  0  0  0  0  0  0  0  0  0
    7.4082    1.5129    0.0000 H   0  0  0  0  0  0  0  0  0  0  0  0
    6.9407    2.3226    0.0000 H   0  0  0  0  0  0  0  0  0  0  0  0
    6.5422    3.0129    0.0000 H   0  0  0  0  0  0  0  0  0  0  0  0
    5.0656    0.4553    0.0000 H   0  0  0  0  0  0  0  0  0  0  0  0
    5.8626    0.4553    0.0000 H   0  0  0  0  0  0  0  0  0  0  0  0
    5.8626    3.4052    0.0000 H   0  0  0  0  0  0  0  0  0  0  0  0
    5.0656    3.4052    0.0000 H   0  0  0  0  0  0  0  0  0  0  0  0
    3.9875    1.5380    0.0000 H   0  0  0  0  0  0  0  0  0  0  0  0
    4.3860    0.8477    0.0000 H   0  0  0  0  0  0  0  0  0  0  0  0
    7.0756   -4.4807    0.0000 H   0  0  0  0  0  0  0  0  0  0  0  0
    6.0530   -1.3334    0.0000 H   0  0  0  0  0  0  0  0  0  0  0  0
   11.5409   -4.3037    0.0000 H   0  0  0  0  0  0  0  0  0  0  0  0
    5.4436   -4.1469    0.0000 H   0  0  0  0  0  0  0  0  0  0  0  0
    4.9289   -2.5627    0.0000 H   0  0  0  0  0  0  0  0  0  0  0  0
    2.8660    1.8103    0.0000 H   0  0  0  0  0  0  0  0  0  0  0  0
    4.2690    4.2403    0.0000 H   0  0  0  0  0  0  0  0  0  0  0  0
    1.4631    2.6203    0.0000 H   0  0  0  0  0  0  0  0  0  0  0  0
    2.8660    5.0503    0.0000 H   0  0  0  0  0  0  0  0  0  0  0  0
    1.4631    4.2403    0.0000 H   0  0  0  0  0  0  0  0  0  0  0  0
  1  9  1  0  0  0  0
  1 53  1  0  0  0  0
  2  5  1  0  0  0  0
  2 11  1  0  0  0  0
  2 13  1  0  0  0  0
  3 15  1  0  0  0  0
  3 16  1  0  0  0  0
  3 17  1  0  0  0  0
  4 18  1  0  0  0  0
  4 19  1  0  0  0  0
  4 22  1  0  0  0  0
  5  6  2  0  0  0  0
  5  7  1  0  0  0  0
  6  8  1  0  0  0  0
  6 12  1  0  0  0  0
  7 10  1  0  0  0  0
  7 30  1  0  0  0  0
  7 31  1  0  0  0  0
  8  9  1  0  0  0  0
  8 32  1  0  0  0  0
  8 33  1  0  0  0  0
  9 10  1  0  0  0  0
  9 34  1  0  0  0  0
 10 35  1  0  0  0  0
 10 36  1  0  0  0  0
 11 14  1  0  0  0  0
 11 37  1  0  0  0  0
 11 38  1  0  0  0  0
 12 13  1  0  0  0  0
 12 20  2  0  0  0  0
 13 21  2  0  0  0  0
 14 15  1  0  0  0  0
 14 39  1  0  0  0  0
 14 40  1  0  0  0  0
 15 41  1  0  0  0  0
 15 42  1  0  0  0  0
 16 18  1  0  0  0  0
 16 43  1  0  0  0  0
 16 44  1  0  0  0  0
 17 19  1  0  0  0  0
 17 45  1  0  0  0  0
 17 46  1  0  0  0  0
 18 47  1  0  0  0  0
 18 48  1  0  0  0  0
 19 49  1  0  0  0  0
 19 50  1  0  0  0  0
 20 23  1  0  0  0  0
 20 51  1  0  0  0  0
 21 24  1  0  0  0  0
 21 52  1  0  0  0  0
 22 25  2  0  0  0  0
 22 26  1  0  0  0  0
 23 24  2  0  0  0  0
 23 54  1  0  0  0  0
 24 55  1  0  0  0  0
 25 27  1  0  0  0  0
 25 56  1  0  0  0  0
 26 28  2  0  0  0  0
 26 57  1  0  0  0  0
 27 29  2  0  0  0  0
 27 58  1  0  0  0  0
 28 29  1  0  0  0  0
 28 59  1  0  0  0  0
 29 60  1  0  0  0  0
M  END
> <PUBCHEM_COMPOUND_CID>
44337675

> <PUBCHEM_COMPOUND_CANONICALIZED>
1

> <PUBCHEM_CACTVS_COMPLEXITY>
514

> <PUBCHEM_CACTVS_HBOND_ACCEPTOR>
3

> <PUBCHEM_CACTVS_HBOND_DONOR>
1

> <PUBCHEM_CACTVS_ROTATABLE_BOND>
5

> <PUBCHEM_CACTVS_SUBSKEYS>
AAADceB7IAAAAAAAAAAAAAAAAAAAAWAAAAA8YMEAAAAAAFgB9AAAHgAACAAADBzhngYwwPMMEgCgAyRiRACCgCAhAiAI2CA4ZJgIcOLA0ZGUYAhkwAHIyAew0PMOgAAAAAACAAAAgAIAAAQAAAAAAAAAAA==

> <PUBCHEM_IUPAC_OPENEYE_NAME>
9-[3-(4-phenylpiperazin-1-yl)propyl]-1,2,3,4-tetrahydrocarbazol-3-ol

> <PUBCHEM_IUPAC_CAS_NAME>
9-[3-(4-phenyl-1-piperazinyl)propyl]-1,2,3,4-tetrahydrocarbazol-3-ol

> <PUBCHEM_IUPAC_NAME_MARKUP>
9-[3-(4-phenylpiperazin-1-yl)propyl]-1,2,3,4-tetrahydrocarbazol-3-ol

> <PUBCHEM_IUPAC_NAME>
9-[3-(4-phenylpiperazin-1-yl)propyl]-1,2,3,4-tetrahydrocarbazol-3-ol

> <PUBCHEM_IUPAC_SYSTEMATIC_NAME>
9-[3-(4-phenylpiperazin-1-yl)propyl]-1,2,3,4-tetrahydrocarbazol-3-ol

> <PUBCHEM_IUPAC_TRADITIONAL_NAME>
9-[3-(4-phenylpiperazino)propyl]-1,2,3,4-tetrahydrocarbazol-3-ol

> <PUBCHEM_IUPAC_INCHI>
InChI=1S/C25H31N3O/c29-21-11-12-25-23(19-21)22-9-4-5-10-24(22)28(25)14-6-13-26-15-17-27(18-16-26)20-7-2-1-3-8-20/h1-5,7-10,21,29H,6,11-19H2

> <PUBCHEM_IUPAC_INCHIKEY>
FEMKPVDHFCRPKA-UHFFFAOYSA-N

> <PUBCHEM_XLOGP3_AA>
4

> <PUBCHEM_EXACT_MASS>
389.246712621

> <PUBCHEM_MOLECULAR_FORMULA>
C25H31N3O

> <PUBCHEM_MOLECULAR_WEIGHT>
389.5

> <PUBCHEM_OPENEYE_CAN_SMILES>
C1CC2=C(CC1O)C3=CC=CC=C3N2CCCN4CCN(CC4)C5=CC=CC=C5

> <PUBCHEM_OPENEYE_ISO_SMILES>
C1CC2=C(CC1O)C3=CC=CC=C3N2CCCN4CCN(CC4)C5=CC=CC=C5

> <PUBCHEM_CACTVS_TPSA>
31.6

> <PUBCHEM_MONOISOTOPIC_WEIGHT>
389.246712621

> <PUBCHEM_TOTAL_CHARGE>
0

> <PUBCHEM_HEAVY_ATOM_COUNT>
29

> <PUBCHEM_ATOM_DEF_STEREO_COUNT>
0

> <PUBCHEM_ATOM_UDEF_STEREO_COUNT>
1

> <PUBCHEM_BOND_DEF_STEREO_COUNT>
0

> <PUBCHEM_BOND_UDEF_STEREO_COUNT>
0

> <PUBCHEM_ISOTOPIC_ATOM_COUNT>
0

> <PUBCHEM_COMPONENT_COUNT>
1

> <PUBCHEM_CACTVS_TAUTO_COUNT>
-1

> <PUBCHEM_COORDINATE_TYPE>
1
5
255

> <PUBCHEM_BONDANNOTATIONS>
9  1  3
12  13  8
12  20  8
13  21  8
2  13  8
2  5  8
20  23  8
21  24  8
22  25  8
22  26  8
23  24  8
25  27  8
26  28  8
27  29  8
28  29  8
5  6  8
6  12  8

$$$$
