122180624
  -OEChem-09292322472D

 61 65  0     1  0  0  0  0  0999 V2000
    4.9836   -3.9024    0.0000 Cl  0  0  0  0  0  0  0  0  0  0  0  0
    4.1701   -5.7295    0.0000 Cl  0  0  0  0  0  0  0  0  0  0  0  0
    6.6105   -0.2482    0.0000 O   0  0  0  0  0  0  0  0  0  0  0  0
    4.6215   -0.4573    0.0000 N   0  0  0  0  0  0  0  0  0  0  0  0
    3.8080   -2.2844    0.0000 N   0  0  0  0  0  0  0  0  0  0  0  0
    7.8307    2.4924    0.0000 N   0  0  0  0  0  0  0  0  0  0  0  0
    7.3307    3.3584    0.0000 N   0  0  0  0  0  0  0  0  0  0  0  0
    7.9998    4.1016    0.0000 N   0  0  0  0  0  0  0  0  0  0  0  0
    3.6270   -0.5618    0.0000 C   0  0  0  0  0  0  0  0  0  0  0  0
    5.2092   -1.2663    0.0000 C   0  0  0  0  0  0  0  0  0  0  0  0
    5.0282    0.4563    0.0000 C   0  0  0  0  0  0  0  0  0  0  0  0
    3.2202   -1.4754    0.0000 C   0  0  0  0  0  0  0  0  0  0  0  0
    4.8025   -2.1798    0.0000 C   0  0  0  0  0  0  0  0  0  0  0  0
    6.0227    0.5608    0.0000 C   0  0  3  0  0  0  0  0  0  0  0  0
    6.4295    1.4743    0.0000 C   0  0  0  0  0  0  0  0  0  0  0  0
    3.4013   -3.1979    0.0000 C   0  0  0  0  0  0  0  0  0  0  0  0
    7.4240    1.5789    0.0000 C   0  0  0  0  0  0  0  0  0  0  0  0
    3.9890   -4.0069    0.0000 C   0  0  0  0  0  0  0  0  0  0  0  0
    2.4067   -3.3024    0.0000 C   0  0  0  0  0  0  0  0  0  0  0  0
    3.5823   -4.9205    0.0000 C   0  0  0  0  0  0  0  0  0  0  0  0
    2.0000   -4.2160    0.0000 C   0  0  0  0  0  0  0  0  0  0  0  0
    8.8089    2.7003    0.0000 C   0  0  0  0  0  0  0  0  0  0  0  0
    2.5878   -5.0250    0.0000 C   0  0  0  0  0  0  0  0  0  0  0  0
    8.9134    3.6948    0.0000 C   0  0  0  0  0  0  0  0  0  0  0  0
    9.7794    4.1948    0.0000 C   0  0  0  0  0  0  0  0  0  0  0  0
   10.6454    3.6948    0.0000 C   0  0  0  0  0  0  0  0  0  0  0  0
   11.5115    4.1948    0.0000 C   0  0  0  0  0  0  0  0  0  0  0  0
    9.7794    5.1948    0.0000 C   0  0  0  0  0  0  0  0  0  0  0  0
   11.5115    5.1948    0.0000 C   0  0  0  0  0  0  0  0  0  0  0  0
   10.6454    5.6948    0.0000 C   0  0  0  0  0  0  0  0  0  0  0  0
   12.4054    3.6602    0.0000 C   0  0  0  0  0  0  0  0  0  0  0  0
   12.4054    5.7295    0.0000 C   0  0  0  0  0  0  0  0  0  0  0  0
   13.3115    4.1740    0.0000 C   0  0  0  0  0  0  0  0  0  0  0  0
   13.3115    5.2157    0.0000 C   0  0  0  0  0  0  0  0  0  0  0  0
    3.6702    0.0567    0.0000 H   0  0  0  0  0  0  0  0  0  0  0  0
    3.0254   -0.4118    0.0000 H   0  0  0  0  0  0  0  0  0  0  0  0
    5.7233   -1.6130    0.0000 H   0  0  0  0  0  0  0  0  0  0  0  0
    5.6399   -0.8203    0.0000 H   0  0  0  0  0  0  0  0  0  0  0  0
    5.0714    1.0748    0.0000 H   0  0  0  0  0  0  0  0  0  0  0  0
    4.4266    0.6063    0.0000 H   0  0  0  0  0  0  0  0  0  0  0  0
    2.7062   -1.1287    0.0000 H   0  0  0  0  0  0  0  0  0  0  0  0
    2.7895   -1.9214    0.0000 H   0  0  0  0  0  0  0  0  0  0  0  0
    4.7593   -2.7983    0.0000 H   0  0  0  0  0  0  0  0  0  0  0  0
    5.4041   -2.3298    0.0000 H   0  0  0  0  0  0  0  0  0  0  0  0
    5.7706   -0.0056    0.0000 H   0  0  0  0  0  0  0  0  0  0  0  0
    6.4727    2.0928    0.0000 H   0  0  0  0  0  0  0  0  0  0  0  0
    5.8279    1.6243    0.0000 H   0  0  0  0  0  0  0  0  0  0  0  0
    7.3807    0.9604    0.0000 H   0  0  0  0  0  0  0  0  0  0  0  0
    8.0256    1.4289    0.0000 H   0  0  0  0  0  0  0  0  0  0  0  0
    7.2271   -0.1834    0.0000 H   0  0  0  0  0  0  0  0  0  0  0  0
    2.0423   -2.8009    0.0000 H   0  0  0  0  0  0  0  0  0  0  0  0
    1.3834   -4.2808    0.0000 H   0  0  0  0  0  0  0  0  0  0  0  0
    9.2696    2.2855    0.0000 H   0  0  0  0  0  0  0  0  0  0  0  0
    2.3356   -5.5914    0.0000 H   0  0  0  0  0  0  0  0  0  0  0  0
   10.6454    3.0748    0.0000 H   0  0  0  0  0  0  0  0  0  0  0  0
    9.2425    5.5048    0.0000 H   0  0  0  0  0  0  0  0  0  0  0  0
   10.6454    6.3148    0.0000 H   0  0  0  0  0  0  0  0  0  0  0  0
   12.3982    3.0402    0.0000 H   0  0  0  0  0  0  0  0  0  0  0  0
   12.3982    6.3495    0.0000 H   0  0  0  0  0  0  0  0  0  0  0  0
   13.8472    3.8620    0.0000 H   0  0  0  0  0  0  0  0  0  0  0  0
   13.8472    5.5277    0.0000 H   0  0  0  0  0  0  0  0  0  0  0  0
  1 18  1  0  0  0  0
  2 20  1  0  0  0  0
  3 14  1  0  0  0  0
  3 50  1  0  0  0  0
  4  9  1  0  0  0  0
  4 10  1  0  0  0  0
  4 11  1  0  0  0  0
  5 12  1  0  0  0  0
  5 13  1  0  0  0  0
  5 16  1  0  0  0  0
  6  7  1  0  0  0  0
  6 17  1  0  0  0  0
  6 22  1  0  0  0  0
  7  8  2  0  0  0  0
  8 24  1  0  0  0  0
  9 12  1  0  0  0  0
  9 35  1  0  0  0  0
  9 36  1  0  0  0  0
 10 13  1  0  0  0  0
 10 37  1  0  0  0  0
 10 38  1  0  0  0  0
 11 14  1  0  0  0  0
 11 39  1  0  0  0  0
 11 40  1  0  0  0  0
 12 41  1  0  0  0  0
 12 42  1  0  0  0  0
 13 43  1  0  0  0  0
 13 44  1  0  0  0  0
 14 15  1  0  0  0  0
 14 45  1  0  0  0  0
 15 17  1  0  0  0  0
 15 46  1  0  0  0  0
 15 47  1  0  0  0  0
 16 18  2  0  0  0  0
 16 19  1  0  0  0  0
 17 48  1  0  0  0  0
 17 49  1  0  0  0  0
 18 20  1  0  0  0  0
 19 21  2  0  0  0  0
 19 51  1  0  0  0  0
 20 23  2  0  0  0  0
 21 23  1  0  0  0  0
 21 52  1  0  0  0  0
 22 24  2  0  0  0  0
 22 53  1  0  0  0  0
 23 54  1  0  0  0  0
 24 25  1  0  0  0  0
 25 26  2  0  0  0  0
 25 28  1  0  0  0  0
 26 27  1  0  0  0  0
 26 55  1  0  0  0  0
 27 29  1  0  0  0  0
 27 31  2  0  0  0  0
 28 30  2  0  0  0  0
 28 56  1  0  0  0  0
 29 30  1  0  0  0  0
 29 32  2  0  0  0  0
 30 57  1  0  0  0  0
 31 33  1  0  0  0  0
 31 58  1  0  0  0  0
 32 34  1  0  0  0  0
 32 59  1  0  0  0  0
 33 34  2  0  0  0  0
 33 60  1  0  0  0  0
 34 61  1  0  0  0  0
M  END
> <PUBCHEM_COMPOUND_CID>
122180624

> <PUBCHEM_COMPOUND_CANONICALIZED>
1

> <PUBCHEM_CACTVS_COMPLEXITY>
636

> <PUBCHEM_CACTVS_HBOND_ACCEPTOR>
5

> <PUBCHEM_CACTVS_HBOND_DONOR>
1

> <PUBCHEM_CACTVS_ROTATABLE_BOND>
7

> <PUBCHEM_CACTVS_SUBSKEYS>
AAADceB7oAAGAAAAAAAAAAAAAAAAAWAAAAA8YMEAAAAAAADB1AAAHgIICAAADB7hniY8wNMIAgCiAzRnRACCBAQxlwAY2mA4dpgKcKLBk5HUYAhigADYyAcQgMAOwAACAAIQABSAAAQABCAAKAAAAAAAAA==

> <PUBCHEM_IUPAC_OPENEYE_NAME>
1-[4-(2,3-dichlorophenyl)piperazin-1-yl]-4-[4-(2-naphthyl)triazol-1-yl]butan-2-ol

> <PUBCHEM_IUPAC_CAS_NAME>
1-[4-(2,3-dichlorophenyl)-1-piperazinyl]-4-[4-(2-naphthalenyl)-1-triazolyl]-2-butanol

> <PUBCHEM_IUPAC_NAME_MARKUP>
1-[4-(2,3-dichlorophenyl)piperazin-1-yl]-4-(4-naphthalen-2-yltriazol-1-yl)butan-2-ol

> <PUBCHEM_IUPAC_NAME>
1-[4-(2,3-dichlorophenyl)piperazin-1-yl]-4-(4-naphthalen-2-yltriazol-1-yl)butan-2-ol

> <PUBCHEM_IUPAC_SYSTEMATIC_NAME>
1-[4-[2,3-bis(chloranyl)phenyl]piperazin-1-yl]-4-(4-naphthalen-2-yl-1,2,3-triazol-1-yl)butan-2-ol

> <PUBCHEM_IUPAC_TRADITIONAL_NAME>
1-[4-(2,3-dichlorophenyl)piperazino]-4-[4-(2-naphthyl)triazol-1-yl]butan-2-ol

> <PUBCHEM_IUPAC_INCHI>
InChI=1S/C26H27Cl2N5O/c27-23-6-3-7-25(26(23)28)32-14-12-31(13-15-32)17-22(34)10-11-33-18-24(29-30-33)21-9-8-19-4-1-2-5-20(19)16-21/h1-9,16,18,22,34H,10-15,17H2

> <PUBCHEM_IUPAC_INCHIKEY>
NABRVDOPGSXUEG-UHFFFAOYSA-N

> <PUBCHEM_XLOGP3_AA>
5.2

> <PUBCHEM_EXACT_MASS>
495.1592659

> <PUBCHEM_MOLECULAR_FORMULA>
C26H27Cl2N5O

> <PUBCHEM_MOLECULAR_WEIGHT>
496.4

> <PUBCHEM_OPENEYE_CAN_SMILES>
C1CN(CCN1CC(CCN2C=C(N=N2)C3=CC4=CC=CC=C4C=C3)O)C5=C(C(=CC=C5)Cl)Cl

> <PUBCHEM_OPENEYE_ISO_SMILES>
C1CN(CCN1CC(CCN2C=C(N=N2)C3=CC4=CC=CC=C4C=C3)O)C5=C(C(=CC=C5)Cl)Cl

> <PUBCHEM_CACTVS_TPSA>
57.4

> <PUBCHEM_MONOISOTOPIC_WEIGHT>
495.1592659

> <PUBCHEM_TOTAL_CHARGE>
0

> <PUBCHEM_HEAVY_ATOM_COUNT>
34

> <PUBCHEM_ATOM_DEF_STEREO_COUNT>
0

> <PUBCHEM_ATOM_UDEF_STEREO_COUNT>
1

> <PUBCHEM_BOND_DEF_STEREO_COUNT>
0

> <PUBCHEM_BOND_UDEF_STEREO_COUNT>
0

> <PUBCHEM_ISOTOPIC_ATOM_COUNT>
0

> <PUBCHEM_COMPONENT_COUNT>
1

> <PUBCHEM_CACTVS_TAUTO_COUNT>
-1

> <PUBCHEM_COORDINATE_TYPE>
1
5
255

> <PUBCHEM_BONDANNOTATIONS>
16  18  8
16  19  8
18  20  8
19  21  8
20  23  8
21  23  8
22  24  8
25  26  8
25  28  8
26  27  8
27  29  8
27  31  8
28  30  8
29  30  8
29  32  8
14  3  3
31  33  8
32  34  8
33  34  8
6  22  8
6  7  8
7  8  8
8  24  8

$$$$
