70687957
  -OEChem-09292322482D

 34 36  0     0  0  0  0  0  0999 V2000
    4.0000   -0.8948    0.0000 N   0  0  0  0  0  0  0  0  0  0  0  0
    4.7366   -1.8774    0.0000 C   0  0  0  0  0  0  0  0  0  0  0  0
    4.4778   -2.8433    0.0000 C   0  0  0  0  0  0  0  0  0  0  0  0
    5.8767   -3.3521    0.0000 C   0  0  0  0  0  0  0  0  0  0  0  0
    6.1356   -2.3862    0.0000 C   0  0  0  0  0  0  0  0  0  0  0  0
    3.1051   -3.4353    0.0000 C   0  0  0  0  0  0  0  0  0  0  0  0
    2.7631   -2.4956    0.0000 C   0  0  0  0  0  0  0  0  0  0  0  0
    3.5000   -0.0288    0.0000 C   0  0  0  0  0  0  0  0  0  0  0  0
    4.0000    0.8373    0.0000 C   0  0  0  0  0  0  0  0  0  0  0  0
    3.5000    1.7033    0.0000 C   0  0  0  0  0  0  0  0  0  0  0  0
    4.0000    2.5693    0.0000 C   0  0  0  0  0  0  0  0  0  0  0  0
    2.5000    1.7033    0.0000 C   0  0  0  0  0  0  0  0  0  0  0  0
    3.5000    3.4353    0.0000 C   0  0  0  0  0  0  0  0  0  0  0  0
    2.0000    2.5693    0.0000 C   0  0  0  0  0  0  0  0  0  0  0  0
    2.5000    3.4353    0.0000 C   0  0  0  0  0  0  0  0  0  0  0  0
    4.7226   -2.4972    0.0000 H   0  0  0  0  0  0  0  0  0  0  0  0
    4.4959   -3.4631    0.0000 H   0  0  0  0  0  0  0  0  0  0  0  0
    6.4707   -3.5299    0.0000 H   0  0  0  0  0  0  0  0  0  0  0  0
    5.6818   -3.9407    0.0000 H   0  0  0  0  0  0  0  0  0  0  0  0
    3.3396   -4.0093    0.0000 H   0  0  0  0  0  0  0  0  0  0  0  0
    2.5267   -3.6586    0.0000 H   0  0  0  0  0  0  0  0  0  0  0  0
    6.7295   -2.5640    0.0000 H   0  0  0  0  0  0  0  0  0  0  0  0
    6.3305   -1.7977    0.0000 H   0  0  0  0  0  0  0  0  0  0  0  0
    2.5688   -1.9069    0.0000 H   0  0  0  0  0  0  0  0  0  0  0  0
    2.1773   -2.6989    0.0000 H   0  0  0  0  0  0  0  0  0  0  0  0
    3.0250    0.3698    0.0000 H   0  0  0  0  0  0  0  0  0  0  0  0
    3.0250   -0.4273    0.0000 H   0  0  0  0  0  0  0  0  0  0  0  0
    4.4750    0.4387    0.0000 H   0  0  0  0  0  0  0  0  0  0  0  0
    4.4750    1.2358    0.0000 H   0  0  0  0  0  0  0  0  0  0  0  0
    4.6200    2.5693    0.0000 H   0  0  0  0  0  0  0  0  0  0  0  0
    2.1900    1.1664    0.0000 H   0  0  0  0  0  0  0  0  0  0  0  0
    3.8100    3.9723    0.0000 H   0  0  0  0  0  0  0  0  0  0  0  0
    1.3800    2.5693    0.0000 H   0  0  0  0  0  0  0  0  0  0  0  0
    2.1900    3.9723    0.0000 H   0  0  0  0  0  0  0  0  0  0  0  0
  1  2  1  0  0  0  0
  1  3  1  0  0  0  0
  1  8  1  0  0  0  0
  2  5  1  0  0  0  0
  2  7  1  0  0  0  0
  2 16  1  0  0  0  0
  3  4  1  0  0  0  0
  3  6  1  0  0  0  0
  3 17  1  0  0  0  0
  4  5  1  0  0  0  0
  4 18  1  0  0  0  0
  4 19  1  0  0  0  0
  5 22  1  0  0  0  0
  5 23  1  0  0  0  0
  6  7  1  0  0  0  0
  6 20  1  0  0  0  0
  6 21  1  0  0  0  0
  7 24  1  0  0  0  0
  7 25  1  0  0  0  0
  8  9  1  0  0  0  0
  8 26  1  0  0  0  0
  8 27  1  0  0  0  0
  9 10  1  0  0  0  0
  9 28  1  0  0  0  0
  9 29  1  0  0  0  0
 10 11  2  0  0  0  0
 10 12  1  0  0  0  0
 11 13  1  0  0  0  0
 11 30  1  0  0  0  0
 12 14  2  0  0  0  0
 12 31  1  0  0  0  0
 13 15  2  0  0  0  0
 13 32  1  0  0  0  0
 14 15  1  0  0  0  0
 14 33  1  0  0  0  0
 15 34  1  0  0  0  0
M  END
> <PUBCHEM_COMPOUND_CID>
70687957

> <PUBCHEM_COMPOUND_CANONICALIZED>
1

> <PUBCHEM_CACTVS_COMPLEXITY>
187

> <PUBCHEM_CACTVS_HBOND_ACCEPTOR>
1

> <PUBCHEM_CACTVS_HBOND_DONOR>
0

> <PUBCHEM_CACTVS_ROTATABLE_BOND>
3

> <PUBCHEM_CACTVS_SUBSKEYS>
AAADceByAAAAAAAAAAAAAAAAAAAAAWLAAAAwYAAAAAAAAAABAAAAHAAAAAAADCjBGAQwAIMAAACAAiBCAAACAAAgAAAIiAAIAIgIICKAkRGEIAAggACIiAcQgIAOAAAAAAAAAAAAAAAAAAAAAAAAAAAAAA==

> <PUBCHEM_IUPAC_OPENEYE_NAME>
7-(2-phenylethyl)-7-azabicyclo[2.2.1]heptane

> <PUBCHEM_IUPAC_CAS_NAME>
7-(2-phenylethyl)-7-azabicyclo[2.2.1]heptane

> <PUBCHEM_IUPAC_NAME_MARKUP>
7-(2-phenylethyl)-7-azabicyclo[2.2.1]heptane

> <PUBCHEM_IUPAC_NAME>
7-(2-phenylethyl)-7-azabicyclo[2.2.1]heptane

> <PUBCHEM_IUPAC_SYSTEMATIC_NAME>
7-(2-phenylethyl)-7-azabicyclo[2.2.1]heptane

> <PUBCHEM_IUPAC_TRADITIONAL_NAME>
7-phenethyl-7-azabicyclo[2.2.1]heptane

> <PUBCHEM_IUPAC_INCHI>
InChI=1S/C14H19N/c1-2-4-12(5-3-1)10-11-15-13-6-7-14(15)9-8-13/h1-5,13-14H,6-11H2

> <PUBCHEM_IUPAC_INCHIKEY>
JJTSIVODPMDGBG-UHFFFAOYSA-N

> <PUBCHEM_XLOGP3_AA>
3.3

> <PUBCHEM_EXACT_MASS>
201.151749610

> <PUBCHEM_MOLECULAR_FORMULA>
C14H19N

> <PUBCHEM_MOLECULAR_WEIGHT>
201.31

> <PUBCHEM_OPENEYE_CAN_SMILES>
C1CC2CCC1N2CCC3=CC=CC=C3

> <PUBCHEM_OPENEYE_ISO_SMILES>
C1CC2CCC1N2CCC3=CC=CC=C3

> <PUBCHEM_CACTVS_TPSA>
3.2

> <PUBCHEM_MONOISOTOPIC_WEIGHT>
201.151749610

> <PUBCHEM_TOTAL_CHARGE>
0

> <PUBCHEM_HEAVY_ATOM_COUNT>
15

> <PUBCHEM_ATOM_DEF_STEREO_COUNT>
0

> <PUBCHEM_ATOM_UDEF_STEREO_COUNT>
0

> <PUBCHEM_BOND_DEF_STEREO_COUNT>
0

> <PUBCHEM_BOND_UDEF_STEREO_COUNT>
0

> <PUBCHEM_ISOTOPIC_ATOM_COUNT>
0

> <PUBCHEM_COMPONENT_COUNT>
1

> <PUBCHEM_CACTVS_TAUTO_COUNT>
-1

> <PUBCHEM_COORDINATE_TYPE>
1
5
255

> <PUBCHEM_BONDANNOTATIONS>
10  11  8
10  12  8
11  13  8
12  14  8
13  15  8
14  15  8

$$$$
