45267492
  -OEChem-09292322282D

 57 61  0     1  0  0  0  0  0999 V2000
    3.5925    2.4321    0.0000 Cl  0  0  0  0  0  0  0  0  0  0  0  0
    5.8115    0.0181    0.0000 O   0  0  0  0  0  0  0  0  0  0  0  0
    8.3461   -1.4298    0.0000 N   0  0  3  0  0  0  0  0  0  0  0  0
    5.7213   -1.7617    0.0000 N   0  0  0  0  0  0  0  0  0  0  0  0
    4.3186   -0.9551    0.0000 N   0  0  0  0  0  0  0  0  0  0  0  0
    9.9492   -1.2627    0.0000 C   0  0  2  0  0  0  0  0  0  0  0  0
    9.5832   -0.2627    0.0000 C   0  0  0  0  0  0  0  0  0  0  0  0
    9.0832   -0.7627    0.0000 C   0  0  3  0  0  0  0  0  0  0  0  0
    9.9492    0.7373    0.0000 C   0  0  1  0  0  0  0  0  0  0  0  0
    9.0832    0.2373    0.0000 C   0  0  0  0  0  0  0  0  0  0  0  0
   10.8152   -0.7627    0.0000 C   0  0  0  0  0  0  0  0  0  0  0  0
   10.8152    0.2373    0.0000 C   0  0  0  0  0  0  0  0  0  0  0  0
    9.7400   -2.2345    0.0000 C   0  0  0  0  0  0  0  0  0  0  0  0
    8.7512   -2.3376    0.0000 C   0  0  0  0  0  0  0  0  0  0  0  0
    9.3049    0.8531    0.0000 C   0  0  0  0  0  0  0  0  0  0  0  0
    8.5886   -0.3672    0.0000 C   0  0  0  0  0  0  0  0  0  0  0  0
    7.3676   -1.2236    0.0000 C   0  0  0  0  0  0  0  0  0  0  0  0
    6.6998   -1.9679    0.0000 C   0  0  0  0  0  0  0  0  0  0  0  0
    4.9793   -2.4321    0.0000 C   0  0  0  0  0  0  0  0  0  0  0  0
    5.3130   -0.8488    0.0000 C   0  0  0  0  0  0  0  0  0  0  0  0
    4.1124   -1.9336    0.0000 C   0  0  0  0  0  0  0  0  0  0  0  0
    3.6482   -0.2131    0.0000 C   0  0  0  0  0  0  0  0  0  0  0  0
    3.9556    0.7385    0.0000 C   0  0  0  0  0  0  0  0  0  0  0  0
    2.6704   -0.4227    0.0000 C   0  0  0  0  0  0  0  0  0  0  0  0
    3.2852    1.4805    0.0000 C   0  0  0  0  0  0  0  0  0  0  0  0
    2.0000    0.3193    0.0000 C   0  0  0  0  0  0  0  0  0  0  0  0
    2.3074    1.2709    0.0000 C   0  0  0  0  0  0  0  0  0  0  0  0
    8.5164   -0.5113    0.0000 H   0  0  0  0  0  0  0  0  0  0  0  0
    9.9492    1.5873    0.0000 H   0  0  0  0  0  0  0  0  0  0  0  0
    8.8711    0.8199    0.0000 H   0  0  0  0  0  0  0  0  0  0  0  0
    8.4726    0.1296    0.0000 H   0  0  0  0  0  0  0  0  0  0  0  0
   11.0272   -1.3453    0.0000 H   0  0  0  0  0  0  0  0  0  0  0  0
   11.4258   -0.6551    0.0000 H   0  0  0  0  0  0  0  0  0  0  0  0
   11.4258    0.1296    0.0000 H   0  0  0  0  0  0  0  0  0  0  0  0
   11.0272    0.8199    0.0000 H   0  0  0  0  0  0  0  0  0  0  0  0
    9.7391   -2.8545    0.0000 H   0  0  0  0  0  0  0  0  0  0  0  0
   10.3564   -2.3006    0.0000 H   0  0  0  0  0  0  0  0  0  0  0  0
    8.1616   -2.5294    0.0000 H   0  0  0  0  0  0  0  0  0  0  0  0
    8.8800   -2.9441    0.0000 H   0  0  0  0  0  0  0  0  0  0  0  0
    9.9065    1.0031    0.0000 H   0  0  0  0  0  0  0  0  0  0  0  0
    9.1549    1.4547    0.0000 H   0  0  0  0  0  0  0  0  0  0  0  0
    8.7034    0.7031    0.0000 H   0  0  0  0  0  0  0  0  0  0  0  0
    8.5238    0.2494    0.0000 H   0  0  0  0  0  0  0  0  0  0  0  0
    7.9720   -0.4320    0.0000 H   0  0  0  0  0  0  0  0  0  0  0  0
    8.6534   -0.9838    0.0000 H   0  0  0  0  0  0  0  0  0  0  0  0
    7.5989   -0.6483    0.0000 H   0  0  0  0  0  0  0  0  0  0  0  0
    6.8413   -0.8959    0.0000 H   0  0  0  0  0  0  0  0  0  0  0  0
    6.4685   -2.5431    0.0000 H   0  0  0  0  0  0  0  0  0  0  0  0
    7.2261   -2.2955    0.0000 H   0  0  0  0  0  0  0  0  0  0  0  0
    4.6157   -2.9343    0.0000 H   0  0  0  0  0  0  0  0  0  0  0  0
    5.4408   -2.8461    0.0000 H   0  0  0  0  0  0  0  0  0  0  0  0
    3.5224   -1.7430    0.0000 H   0  0  0  0  0  0  0  0  0  0  0  0
    3.8612   -2.5004    0.0000 H   0  0  0  0  0  0  0  0  0  0  0  0
    4.5618    0.8685    0.0000 H   0  0  0  0  0  0  0  0  0  0  0  0
    2.4798   -1.0127    0.0000 H   0  0  0  0  0  0  0  0  0  0  0  0
    1.3938    0.1893    0.0000 H   0  0  0  0  0  0  0  0  0  0  0  0
    1.8917    1.7309    0.0000 H   0  0  0  0  0  0  0  0  0  0  0  0
  1 25  1  0  0  0  0
  2 20  2  0  0  0  0
  3  8  1  0  0  0  0
  3 14  1  0  0  0  0
  3 17  1  0  0  0  0
  4 18  1  0  0  0  0
  4 19  1  0  0  0  0
  4 20  1  0  0  0  0
  5 20  1  0  0  0  0
  5 21  1  0  0  0  0
  5 22  1  0  0  0  0
  6  7  1  0  0  0  0
  6  8  1  0  0  0  0
  6 11  1  0  0  0  0
  6 13  1  6  0  0  0
  7  9  1  0  0  0  0
  7 15  1  0  0  0  0
  7 16  1  0  0  0  0
  8 10  1  0  0  0  0
  8 28  1  0  0  0  0
  9 10  1  0  0  0  0
  9 12  1  0  0  0  0
  9 29  1  6  0  0  0
 10 30  1  0  0  0  0
 10 31  1  0  0  0  0
 11 12  1  0  0  0  0
 11 32  1  0  0  0  0
 11 33  1  0  0  0  0
 12 34  1  0  0  0  0
 12 35  1  0  0  0  0
 13 14  1  0  0  0  0
 13 36  1  0  0  0  0
 13 37  1  0  0  0  0
 14 38  1  0  0  0  0
 14 39  1  0  0  0  0
 15 40  1  0  0  0  0
 15 41  1  0  0  0  0
 15 42  1  0  0  0  0
 16 43  1  0  0  0  0
 16 44  1  0  0  0  0
 16 45  1  0  0  0  0
 17 18  1  0  0  0  0
 17 46  1  0  0  0  0
 17 47  1  0  0  0  0
 18 48  1  0  0  0  0
 18 49  1  0  0  0  0
 19 21  1  0  0  0  0
 19 50  1  0  0  0  0
 19 51  1  0  0  0  0
 21 52  1  0  0  0  0
 21 53  1  0  0  0  0
 22 23  2  0  0  0  0
 22 24  1  0  0  0  0
 23 25  1  0  0  0  0
 23 54  1  0  0  0  0
 24 26  2  0  0  0  0
 24 55  1  0  0  0  0
 25 27  2  0  0  0  0
 26 27  1  0  0  0  0
 26 56  1  0  0  0  0
 27 57  1  0  0  0  0
M  END
> <PUBCHEM_COMPOUND_CID>
45267492

> <PUBCHEM_COMPOUND_CANONICALIZED>
1

> <PUBCHEM_CACTVS_COMPLEXITY>
610

> <PUBCHEM_CACTVS_HBOND_ACCEPTOR>
2

> <PUBCHEM_CACTVS_HBOND_DONOR>
0

> <PUBCHEM_CACTVS_ROTATABLE_BOND>
4

> <PUBCHEM_CACTVS_SUBSKEYS>
AAADceB7IAAEAAAAAAAAAAAAAAAAAePECAAwYAAAAAAWAFgBAAAAHgIAAAAADyrBECQzwIMAAACIACRCUACCAAAhBwAIiAAIZoiIYCLBk5GUIAhohgLIyCcQgMAPgAAAAAIAAACAAACABAQAASAACQAAAA==

> <PUBCHEM_IUPAC_OPENEYE_NAME>
1-(3-chlorophenyl)-3-[2-[(1S,7R)-10,10-dimethyl-4-azatricyclo[5.2.1.01,5]decan-4-yl]ethyl]imidazolidin-2-one

> <PUBCHEM_IUPAC_CAS_NAME>
1-(3-chlorophenyl)-3-[2-[(1S,7R)-10,10-dimethyl-4-azatricyclo[5.2.1.01,5]decan-4-yl]ethyl]-2-imidazolidinone

> <PUBCHEM_IUPAC_NAME_MARKUP>
1-(3-chlorophenyl)-3-[2-[(1<I>S</I>,7<I>R</I>)-10,10-dimethyl-4-azatricyclo[5.2.1.0<SUP>1,5</SUP>]decan-4-yl]ethyl]imidazolidin-2-one

> <PUBCHEM_IUPAC_NAME>
1-(3-chlorophenyl)-3-[2-[(1S,7R)-10,10-dimethyl-4-azatricyclo[5.2.1.01,5]decan-4-yl]ethyl]imidazolidin-2-one

> <PUBCHEM_IUPAC_SYSTEMATIC_NAME>
1-(3-chlorophenyl)-3-[2-[(1S,7R)-10,10-dimethyl-4-azatricyclo[5.2.1.01,5]decan-4-yl]ethyl]imidazolidin-2-one

> <PUBCHEM_IUPAC_TRADITIONAL_NAME>
1-(3-chlorophenyl)-3-[2-[(1S,7R)-10,10-dimethyl-4-azatricyclo[5.2.1.01,5]decan-4-yl]ethyl]-2-imidazolidinone

> <PUBCHEM_IUPAC_INCHI>
InChI=1S/C22H30ClN3O/c1-21(2)16-6-7-22(21)8-9-24(19(22)14-16)10-11-25-12-13-26(20(25)27)18-5-3-4-17(23)15-18/h3-5,15-16,19H,6-14H2,1-2H3/t16-,19?,22-/m1/s1

> <PUBCHEM_IUPAC_INCHIKEY>
BLMDJHOZZKURJN-ZDUIXAHXSA-N

> <PUBCHEM_XLOGP3_AA>
4.3

> <PUBCHEM_EXACT_MASS>
387.2077403

> <PUBCHEM_MOLECULAR_FORMULA>
C22H30ClN3O

> <PUBCHEM_MOLECULAR_WEIGHT>
387.9

> <PUBCHEM_OPENEYE_CAN_SMILES>
CC1(C2CCC13CCN(C3C2)CCN4CCN(C4=O)C5=CC(=CC=C5)Cl)C

> <PUBCHEM_OPENEYE_ISO_SMILES>
CC1([C@@H]2CC[C@]13CCN(C3C2)CCN4CCN(C4=O)C5=CC(=CC=C5)Cl)C

> <PUBCHEM_CACTVS_TPSA>
26.8

> <PUBCHEM_MONOISOTOPIC_WEIGHT>
387.2077403

> <PUBCHEM_TOTAL_CHARGE>
0

> <PUBCHEM_HEAVY_ATOM_COUNT>
27

> <PUBCHEM_ATOM_DEF_STEREO_COUNT>
2

> <PUBCHEM_ATOM_UDEF_STEREO_COUNT>
1

> <PUBCHEM_BOND_DEF_STEREO_COUNT>
0

> <PUBCHEM_BOND_UDEF_STEREO_COUNT>
0

> <PUBCHEM_ISOTOPIC_ATOM_COUNT>
0

> <PUBCHEM_COMPONENT_COUNT>
1

> <PUBCHEM_CACTVS_TAUTO_COUNT>
-1

> <PUBCHEM_COORDINATE_TYPE>
1
5
255

> <PUBCHEM_BONDANNOTATIONS>
22  23  8
22  24  8
23  25  8
24  26  8
25  27  8
26  27  8
6  13  6
8  10  3
9  29  6

$$$$
