44340661
  -OEChem-09292322212D

 68 71  0     1  0  0  0  0  0999 V2000
   11.8594   -2.9556    0.0000 S   0  0  0  0  0  0  0  0  0  0  0  0
    2.7818    1.7006    0.0000 O   0  0  0  0  0  0  0  0  0  0  0  0
    7.8813   -2.5375    0.0000 O   0  0  0  0  0  0  0  0  0  0  0  0
   11.7549   -3.9501    0.0000 O   0  0  0  0  0  0  0  0  0  0  0  0
   11.9640   -1.9610    0.0000 O   0  0  0  0  0  0  0  0  0  0  0  0
    7.1082    1.7830    0.0000 N   0  0  3  0  0  0  0  0  0  0  0  0
    8.0788   -0.7115    0.0000 N   0  0  0  0  0  0  0  0  0  0  0  0
    6.2072    2.2169    0.0000 C   0  0  3  0  0  0  0  0  0  0  0  0
    5.9847    3.1918    0.0000 C   0  0  0  0  0  0  0  0  0  0  0  0
    8.0092    2.2169    0.0000 C   0  0  0  0  0  0  0  0  0  0  0  0
    6.6082    3.9736    0.0000 C   0  0  0  0  0  0  0  0  0  0  0  0
    8.2317    3.1918    0.0000 C   0  0  0  0  0  0  0  0  0  0  0  0
    7.6082    3.9736    0.0000 C   0  0  0  0  0  0  0  0  0  0  0  0
    7.1082    0.7830    0.0000 C   0  0  0  0  0  0  0  0  0  0  0  0
    5.4254    1.5934    0.0000 C   0  0  0  0  0  0  0  0  0  0  0  0
    7.9742    0.2830    0.0000 C   0  0  0  0  0  0  0  0  0  0  0  0
    4.4945    1.9587    0.0000 C   0  0  0  0  0  0  0  0  0  0  0  0
    5.5744    0.6046    0.0000 C   0  0  0  0  0  0  0  0  0  0  0  0
    8.8878    0.6897    0.0000 C   0  0  0  0  0  0  0  0  0  0  0  0
    9.0569   -0.9194    0.0000 C   0  0  0  0  0  0  0  0  0  0  0  0
    3.7127    1.3352    0.0000 C   0  0  0  0  0  0  0  0  0  0  0  0
    9.5569   -0.0534    0.0000 C   0  0  0  0  0  0  0  0  0  0  0  0
    4.7926   -0.0189    0.0000 C   0  0  0  0  0  0  0  0  0  0  0  0
    3.8618    0.3464    0.0000 C   0  0  0  0  0  0  0  0  0  0  0  0
    9.4636   -1.8330    0.0000 C   0  0  0  0  0  0  0  0  0  0  0  0
   10.4582   -1.9375    0.0000 C   0  0  0  0  0  0  0  0  0  0  0  0
    8.8759   -2.6420    0.0000 C   0  0  0  0  0  0  0  0  0  0  0  0
   10.8649   -2.8510    0.0000 C   0  0  0  0  0  0  0  0  0  0  0  0
    9.2826   -3.5555    0.0000 C   0  0  0  0  0  0  0  0  0  0  0  0
   10.2771   -3.6601    0.0000 C   0  0  0  0  0  0  0  0  0  0  0  0
   12.8540   -3.0601    0.0000 C   0  0  0  0  0  0  0  0  0  0  0  0
    2.0000    1.0771    0.0000 C   0  0  0  0  0  0  0  0  0  0  0  0
   13.2607   -3.9736    0.0000 C   0  0  0  0  0  0  0  0  0  0  0  0
    7.2936   -3.3465    0.0000 C   0  0  0  0  0  0  0  0  0  0  0  0
    6.2767    1.6008    0.0000 H   0  0  0  0  0  0  0  0  0  0  0  0
    5.5982    3.6766    0.0000 H   0  0  0  0  0  0  0  0  0  0  0  0
    5.4261    2.9228    0.0000 H   0  0  0  0  0  0  0  0  0  0  0  0
    8.1471    1.6124    0.0000 H   0  0  0  0  0  0  0  0  0  0  0  0
    8.6292    2.2169    0.0000 H   0  0  0  0  0  0  0  0  0  0  0  0
    6.7462    4.5781    0.0000 H   0  0  0  0  0  0  0  0  0  0  0  0
    6.0496    4.2427    0.0000 H   0  0  0  0  0  0  0  0  0  0  0  0
    8.7903    2.9228    0.0000 H   0  0  0  0  0  0  0  0  0  0  0  0
    8.6183    3.6766    0.0000 H   0  0  0  0  0  0  0  0  0  0  0  0
    8.1668    4.2427    0.0000 H   0  0  0  0  0  0  0  0  0  0  0  0
    7.4702    4.5781    0.0000 H   0  0  0  0  0  0  0  0  0  0  0  0
    6.4976    0.8907    0.0000 H   0  0  0  0  0  0  0  0  0  0  0  0
    6.8962    0.2004    0.0000 H   0  0  0  0  0  0  0  0  0  0  0  0
    4.4021    2.5718    0.0000 H   0  0  0  0  0  0  0  0  0  0  0  0
    6.1516    0.3781    0.0000 H   0  0  0  0  0  0  0  0  0  0  0  0
    7.6180   -1.1264    0.0000 H   0  0  0  0  0  0  0  0  0  0  0  0
    9.0167    1.2962    0.0000 H   0  0  0  0  0  0  0  0  0  0  0  0
   10.1735    0.0114    0.0000 H   0  0  0  0  0  0  0  0  0  0  0  0
    4.8850   -0.6320    0.0000 H   0  0  0  0  0  0  0  0  0  0  0  0
    3.3770   -0.0401    0.0000 H   0  0  0  0  0  0  0  0  0  0  0  0
   10.8226   -1.4359    0.0000 H   0  0  0  0  0  0  0  0  0  0  0  0
    8.9182   -4.0571    0.0000 H   0  0  0  0  0  0  0  0  0  0  0  0
   10.5293   -4.2265    0.0000 H   0  0  0  0  0  0  0  0  0  0  0  0
   13.4555   -2.9101    0.0000 H   0  0  0  0  0  0  0  0  0  0  0  0
   12.8107   -2.4416    0.0000 H   0  0  0  0  0  0  0  0  0  0  0  0
    1.6134    1.5618    0.0000 H   0  0  0  0  0  0  0  0  0  0  0  0
    1.5153    0.6905    0.0000 H   0  0  0  0  0  0  0  0  0  0  0  0
    2.3866    0.5924    0.0000 H   0  0  0  0  0  0  0  0  0  0  0  0
   12.6943   -4.2258    0.0000 H   0  0  0  0  0  0  0  0  0  0  0  0
   13.5129   -4.5400    0.0000 H   0  0  0  0  0  0  0  0  0  0  0  0
   13.8271   -3.7215    0.0000 H   0  0  0  0  0  0  0  0  0  0  0  0
    6.7920   -2.9820    0.0000 H   0  0  0  0  0  0  0  0  0  0  0  0
    6.9291   -3.8481    0.0000 H   0  0  0  0  0  0  0  0  0  0  0  0
    7.7952   -3.7109    0.0000 H   0  0  0  0  0  0  0  0  0  0  0  0
  1  4  2  0  0  0  0
  1  5  2  0  0  0  0
  1 28  1  0  0  0  0
  1 31  1  0  0  0  0
  2 21  1  0  0  0  0
  2 32  1  0  0  0  0
  3 27  1  0  0  0  0
  3 34  1  0  0  0  0
  6  8  1  0  0  0  0
  6 10  1  0  0  0  0
  6 14  1  0  0  0  0
  7 16  1  0  0  0  0
  7 20  1  0  0  0  0
  7 50  1  0  0  0  0
  8  9  1  0  0  0  0
  8 15  1  0  0  0  0
  8 35  1  0  0  0  0
  9 11  1  0  0  0  0
  9 36  1  0  0  0  0
  9 37  1  0  0  0  0
 10 12  1  0  0  0  0
 10 38  1  0  0  0  0
 10 39  1  0  0  0  0
 11 13  1  0  0  0  0
 11 40  1  0  0  0  0
 11 41  1  0  0  0  0
 12 13  1  0  0  0  0
 12 42  1  0  0  0  0
 12 43  1  0  0  0  0
 13 44  1  0  0  0  0
 13 45  1  0  0  0  0
 14 16  1  0  0  0  0
 14 46  1  0  0  0  0
 14 47  1  0  0  0  0
 15 17  2  0  0  0  0
 15 18  1  0  0  0  0
 16 19  2  0  0  0  0
 17 21  1  0  0  0  0
 17 48  1  0  0  0  0
 18 23  2  0  0  0  0
 18 49  1  0  0  0  0
 19 22  1  0  0  0  0
 19 51  1  0  0  0  0
 20 22  2  0  0  0  0
 20 25  1  0  0  0  0
 21 24  2  0  0  0  0
 22 52  1  0  0  0  0
 23 24  1  0  0  0  0
 23 53  1  0  0  0  0
 24 54  1  0  0  0  0
 25 26  1  0  0  0  0
 25 27  2  0  0  0  0
 26 28  2  0  0  0  0
 26 55  1  0  0  0  0
 27 29  1  0  0  0  0
 28 30  1  0  0  0  0
 29 30  2  0  0  0  0
 29 56  1  0  0  0  0
 30 57  1  0  0  0  0
 31 33  1  0  0  0  0
 31 58  1  0  0  0  0
 31 59  1  0  0  0  0
 32 60  1  0  0  0  0
 32 61  1  0  0  0  0
 32 62  1  0  0  0  0
 33 63  1  0  0  0  0
 33 64  1  0  0  0  0
 33 65  1  0  0  0  0
 34 66  1  0  0  0  0
 34 67  1  0  0  0  0
 34 68  1  0  0  0  0
M  END
> <PUBCHEM_COMPOUND_CID>
44340661

> <PUBCHEM_COMPOUND_CANONICALIZED>
1

> <PUBCHEM_CACTVS_COMPLEXITY>
727

> <PUBCHEM_CACTVS_HBOND_ACCEPTOR>
5

> <PUBCHEM_CACTVS_HBOND_DONOR>
1

> <PUBCHEM_CACTVS_ROTATABLE_BOND>
8

> <PUBCHEM_CACTVS_SUBSKEYS>
AAADcfB7OABAAAAAAAAAAAAAAAAAAWAAAAAwYAAABYAAAAAB0AAAHgQQAAAADCzF3gayh5PJlAqgAyRiRHDCiCAhKjAImTg+bJgMZuLksZuUMChm0BHo6AewwPAOAIABgAAIAAABAAMAABAAAAAAAAAAAA==

> <PUBCHEM_IUPAC_OPENEYE_NAME>
1-[[5-(5-ethylsulfonyl-2-methoxy-phenyl)-1H-pyrrol-2-yl]methyl]-2-(3-methoxyphenyl)azepane

> <PUBCHEM_IUPAC_CAS_NAME>
1-[[5-(5-ethylsulfonyl-2-methoxyphenyl)-1H-pyrrol-2-yl]methyl]-2-(3-methoxyphenyl)azepane

> <PUBCHEM_IUPAC_NAME_MARKUP>
1-[[5-(5-ethylsulfonyl-2-methoxyphenyl)-1<I>H</I>-pyrrol-2-yl]methyl]-2-(3-methoxyphenyl)azepane

> <PUBCHEM_IUPAC_NAME>
1-[[5-(5-ethylsulfonyl-2-methoxyphenyl)-1H-pyrrol-2-yl]methyl]-2-(3-methoxyphenyl)azepane

> <PUBCHEM_IUPAC_SYSTEMATIC_NAME>
1-[[5-(5-ethylsulfonyl-2-methoxy-phenyl)-1H-pyrrol-2-yl]methyl]-2-(3-methoxyphenyl)azepane

> <PUBCHEM_IUPAC_TRADITIONAL_NAME>
1-[[5-(5-esyl-2-methoxy-phenyl)-1H-pyrrol-2-yl]methyl]-2-(3-methoxyphenyl)azepane

> <PUBCHEM_IUPAC_INCHI>
InChI=1S/C27H34N2O4S/c1-4-34(30,31)23-13-15-27(33-3)24(18-23)25-14-12-21(28-25)19-29-16-7-5-6-11-26(29)20-9-8-10-22(17-20)32-2/h8-10,12-15,17-18,26,28H,4-7,11,16,19H2,1-3H3

> <PUBCHEM_IUPAC_INCHIKEY>
XDGZSVPHADAZSU-UHFFFAOYSA-N

> <PUBCHEM_XLOGP3_AA>
4.5

> <PUBCHEM_EXACT_MASS>
482.22392874

> <PUBCHEM_MOLECULAR_FORMULA>
C27H34N2O4S

> <PUBCHEM_MOLECULAR_WEIGHT>
482.6

> <PUBCHEM_OPENEYE_CAN_SMILES>
CCS(=O)(=O)C1=CC(=C(C=C1)OC)C2=CC=C(N2)CN3CCCCCC3C4=CC(=CC=C4)OC

> <PUBCHEM_OPENEYE_ISO_SMILES>
CCS(=O)(=O)C1=CC(=C(C=C1)OC)C2=CC=C(N2)CN3CCCCCC3C4=CC(=CC=C4)OC

> <PUBCHEM_CACTVS_TPSA>
80

> <PUBCHEM_MONOISOTOPIC_WEIGHT>
482.22392874

> <PUBCHEM_TOTAL_CHARGE>
0

> <PUBCHEM_HEAVY_ATOM_COUNT>
34

> <PUBCHEM_ATOM_DEF_STEREO_COUNT>
0

> <PUBCHEM_ATOM_UDEF_STEREO_COUNT>
1

> <PUBCHEM_BOND_DEF_STEREO_COUNT>
0

> <PUBCHEM_BOND_UDEF_STEREO_COUNT>
0

> <PUBCHEM_ISOTOPIC_ATOM_COUNT>
0

> <PUBCHEM_COMPONENT_COUNT>
1

> <PUBCHEM_CACTVS_TAUTO_COUNT>
-1

> <PUBCHEM_COORDINATE_TYPE>
1
5
255

> <PUBCHEM_BONDANNOTATIONS>
15  17  8
15  18  8
16  19  8
17  21  8
18  23  8
19  22  8
20  22  8
21  24  8
23  24  8
25  26  8
25  27  8
26  28  8
27  29  8
28  30  8
29  30  8
7  16  8
7  20  8
8  15  3

$$$$
