10067306
  -OEChem-09292322042D

 42 44  0     0  0  0  0  0  0999 V2000
    7.5673    3.5935    0.0000 Cl  0  0  0  0  0  0  0  0  0  0  0  0
    4.9889    1.2800    0.0000 S   0  0  0  0  0  0  0  0  0  0  0  0
    5.9394    0.9693    0.0000 O   0  0  0  0  0  0  0  0  0  0  0  0
    4.0384    1.5906    0.0000 O   0  0  0  0  0  0  0  0  0  0  0  0
    4.6783   -1.2800    0.0000 N   0  0  0  0  0  0  0  0  0  0  0  0
    6.2781   -3.3872    0.0000 N   0  0  0  0  0  0  0  0  0  0  0  0
    2.8660   -1.4753    0.0000 N   0  0  0  0  0  0  0  0  0  0  0  0
    4.6783    0.3295    0.0000 C   0  0  0  0  0  0  0  0  0  0  0  0
    4.9889   -2.2305    0.0000 C   0  0  0  0  0  0  0  0  0  0  0  0
    3.7320    0.0247    0.0000 C   0  0  0  0  0  0  0  0  0  0  0  0
    3.7320   -0.9753    0.0000 C   0  0  0  0  0  0  0  0  0  0  0  0
    5.2619   -0.4753    0.0000 C   0  0  0  0  0  0  0  0  0  0  0  0
    5.9674   -2.4367    0.0000 C   0  0  0  0  0  0  0  0  0  0  0  0
    2.8660    0.5247    0.0000 C   0  0  0  0  0  0  0  0  0  0  0  0
    5.2996    2.2305    0.0000 C   0  0  0  0  0  0  0  0  0  0  0  0
    2.0000    0.0247    0.0000 C   0  0  0  0  0  0  0  0  0  0  0  0
    2.0000   -0.9753    0.0000 C   0  0  0  0  0  0  0  0  0  0  0  0
    7.2566   -3.5935    0.0000 C   0  0  0  0  0  0  0  0  0  0  0  0
    5.6103   -4.1316    0.0000 C   0  0  0  0  0  0  0  0  0  0  0  0
    6.2781    2.4367    0.0000 C   0  0  0  0  0  0  0  0  0  0  0  0
    4.6318    2.9748    0.0000 C   0  0  0  0  0  0  0  0  0  0  0  0
    6.5888    3.3872    0.0000 C   0  0  0  0  0  0  0  0  0  0  0  0
    4.9424    3.9253    0.0000 C   0  0  0  0  0  0  0  0  0  0  0  0
    5.9209    4.1316    0.0000 C   0  0  0  0  0  0  0  0  0  0  0  0
    4.3751   -2.3179    0.0000 H   0  0  0  0  0  0  0  0  0  0  0  0
    4.9684   -2.8502    0.0000 H   0  0  0  0  0  0  0  0  0  0  0  0
    5.8819   -0.4753    0.0000 H   0  0  0  0  0  0  0  0  0  0  0  0
    6.5812   -2.3494    0.0000 H   0  0  0  0  0  0  0  0  0  0  0  0
    5.9880   -1.8171    0.0000 H   0  0  0  0  0  0  0  0  0  0  0  0
    2.8660    1.1447    0.0000 H   0  0  0  0  0  0  0  0  0  0  0  0
    1.4631    0.3347    0.0000 H   0  0  0  0  0  0  0  0  0  0  0  0
    1.4631   -1.2853    0.0000 H   0  0  0  0  0  0  0  0  0  0  0  0
    7.1288   -4.2001    0.0000 H   0  0  0  0  0  0  0  0  0  0  0  0
    7.8633   -3.7213    0.0000 H   0  0  0  0  0  0  0  0  0  0  0  0
    7.3845   -2.9868    0.0000 H   0  0  0  0  0  0  0  0  0  0  0  0
    5.1488   -3.7175    0.0000 H   0  0  0  0  0  0  0  0  0  0  0  0
    5.1962   -4.5930    0.0000 H   0  0  0  0  0  0  0  0  0  0  0  0
    6.0717   -4.5456    0.0000 H   0  0  0  0  0  0  0  0  0  0  0  0
    6.6922    1.9753    0.0000 H   0  0  0  0  0  0  0  0  0  0  0  0
    4.0251    2.8470    0.0000 H   0  0  0  0  0  0  0  0  0  0  0  0
    4.5284    4.3868    0.0000 H   0  0  0  0  0  0  0  0  0  0  0  0
    6.1135    4.7209    0.0000 H   0  0  0  0  0  0  0  0  0  0  0  0
  1 22  1  0  0  0  0
  2  3  2  0  0  0  0
  2  4  2  0  0  0  0
  2  8  1  0  0  0  0
  2 15  1  0  0  0  0
  5  9  1  0  0  0  0
  5 11  1  0  0  0  0
  5 12  1  0  0  0  0
  6 13  1  0  0  0  0
  6 18  1  0  0  0  0
  6 19  1  0  0  0  0
  7 11  1  0  0  0  0
  7 17  2  0  0  0  0
  8 10  1  0  0  0  0
  8 12  2  0  0  0  0
  9 13  1  0  0  0  0
  9 25  1  0  0  0  0
  9 26  1  0  0  0  0
 10 11  2  0  0  0  0
 10 14  1  0  0  0  0
 12 27  1  0  0  0  0
 13 28  1  0  0  0  0
 13 29  1  0  0  0  0
 14 16  2  0  0  0  0
 14 30  1  0  0  0  0
 15 20  2  0  0  0  0
 15 21  1  0  0  0  0
 16 17  1  0  0  0  0
 16 31  1  0  0  0  0
 17 32  1  0  0  0  0
 18 33  1  0  0  0  0
 18 34  1  0  0  0  0
 18 35  1  0  0  0  0
 19 36  1  0  0  0  0
 19 37  1  0  0  0  0
 19 38  1  0  0  0  0
 20 22  1  0  0  0  0
 20 39  1  0  0  0  0
 21 23  2  0  0  0  0
 21 40  1  0  0  0  0
 22 24  2  0  0  0  0
 23 24  1  0  0  0  0
 23 41  1  0  0  0  0
 24 42  1  0  0  0  0
M  END
> <PUBCHEM_COMPOUND_CID>
10067306

> <PUBCHEM_COMPOUND_CANONICALIZED>
1

> <PUBCHEM_CACTVS_COMPLEXITY>
522

> <PUBCHEM_CACTVS_HBOND_ACCEPTOR>
4

> <PUBCHEM_CACTVS_HBOND_DONOR>
0

> <PUBCHEM_CACTVS_ROTATABLE_BOND>
5

> <PUBCHEM_CACTVS_SUBSKEYS>
AAADceB7MABEAAAAAAAAAAAAAAAAAWAAAAA8QAAAAAAAAFgB/AAAHAYAAAAADALBWyQ/sd8MEAqgAjJnZHDCgCkxD7AJ2Dw4ZpiIaOLhm5GUIAxogALoyCcQAAAOAAAAABAAAAAAAAAAIAAAAAAAAAAAAA==

> <PUBCHEM_IUPAC_OPENEYE_NAME>
2-[3-(3-chlorophenyl)sulfonylpyrrolo[2,3-b]pyridin-1-yl]-N,N-dimethyl-ethanamine

> <PUBCHEM_IUPAC_CAS_NAME>
2-[3-(3-chlorophenyl)sulfonyl-1-pyrrolo[2,3-b]pyridinyl]-N,N-dimethylethanamine

> <PUBCHEM_IUPAC_NAME_MARKUP>
2-[3-(3-chlorophenyl)sulfonylpyrrolo[2,3-b]pyridin-1-yl]-<I>N</I>,<I>N</I>-dimethylethanamine

> <PUBCHEM_IUPAC_NAME>
2-[3-(3-chlorophenyl)sulfonylpyrrolo[2,3-b]pyridin-1-yl]-N,N-dimethylethanamine

> <PUBCHEM_IUPAC_SYSTEMATIC_NAME>
2-[3-(3-chlorophenyl)sulfonylpyrrolo[2,3-b]pyridin-1-yl]-N,N-dimethyl-ethanamine

> <PUBCHEM_IUPAC_TRADITIONAL_NAME>
2-[3-(3-chlorophenyl)sulfonylpyrrolo[2,3-b]pyridin-1-yl]ethyl-dimethyl-amine

> <PUBCHEM_IUPAC_INCHI>
InChI=1S/C17H18ClN3O2S/c1-20(2)9-10-21-12-16(15-7-4-8-19-17(15)21)24(22,23)14-6-3-5-13(18)11-14/h3-8,11-12H,9-10H2,1-2H3

> <PUBCHEM_IUPAC_INCHIKEY>
QFJMKWALUAWNKC-UHFFFAOYSA-N

> <PUBCHEM_XLOGP3_AA>
2.7

> <PUBCHEM_EXACT_MASS>
363.0808257

> <PUBCHEM_MOLECULAR_FORMULA>
C17H18ClN3O2S

> <PUBCHEM_MOLECULAR_WEIGHT>
363.9

> <PUBCHEM_OPENEYE_CAN_SMILES>
CN(C)CCN1C=C(C2=C1N=CC=C2)S(=O)(=O)C3=CC(=CC=C3)Cl

> <PUBCHEM_OPENEYE_ISO_SMILES>
CN(C)CCN1C=C(C2=C1N=CC=C2)S(=O)(=O)C3=CC(=CC=C3)Cl

> <PUBCHEM_CACTVS_TPSA>
63.6

> <PUBCHEM_MONOISOTOPIC_WEIGHT>
363.0808257

> <PUBCHEM_TOTAL_CHARGE>
0

> <PUBCHEM_HEAVY_ATOM_COUNT>
24

> <PUBCHEM_ATOM_DEF_STEREO_COUNT>
0

> <PUBCHEM_ATOM_UDEF_STEREO_COUNT>
0

> <PUBCHEM_BOND_DEF_STEREO_COUNT>
0

> <PUBCHEM_BOND_UDEF_STEREO_COUNT>
0

> <PUBCHEM_ISOTOPIC_ATOM_COUNT>
0

> <PUBCHEM_COMPONENT_COUNT>
1

> <PUBCHEM_CACTVS_TAUTO_COUNT>
-1

> <PUBCHEM_COORDINATE_TYPE>
1
5
255

> <PUBCHEM_BONDANNOTATIONS>
10  11  8
10  14  8
14  16  8
15  20  8
15  21  8
16  17  8
20  22  8
21  23  8
22  24  8
23  24  8
5  11  8
5  12  8
7  11  8
7  17  8
8  10  8
8  12  8

$$$$
