90645293
  -OEChem-09292322352D

 57 58  0     0  0  0  0  0  0999 V2000
    8.3301    6.1651    0.0000 Cl  0  0  0  0  0  0  0  0  0  0  0  0
    5.8301    3.5670    0.0000 O   0  0  0  0  0  0  0  0  0  0  0  0
    3.7320   -4.7990    0.0000 O   0  0  0  0  0  0  0  0  0  0  0  0
    2.8660   -3.2990    0.0000 O   0  0  0  0  0  0  0  0  0  0  0  0
    6.3301    0.7010    0.0000 N   0  0  0  0  0  0  0  0  0  0  0  0
    4.5981   -3.2990    0.0000 N   0  0  0  0  0  0  0  0  0  0  0  0
    6.3301    2.7010    0.0000 C   0  0  0  0  0  0  0  0  0  0  0  0
    7.1962    2.2010    0.0000 C   0  0  0  0  0  0  0  0  0  0  0  0
    5.4641    2.2010    0.0000 C   0  0  0  0  0  0  0  0  0  0  0  0
    7.1962    1.2010    0.0000 C   0  0  0  0  0  0  0  0  0  0  0  0
    5.4641    1.2010    0.0000 C   0  0  0  0  0  0  0  0  0  0  0  0
    6.3301   -0.2990    0.0000 C   0  0  0  0  0  0  0  0  0  0  0  0
    6.8301    3.5670    0.0000 C   0  0  0  0  0  0  0  0  0  0  0  0
    5.4641   -0.7990    0.0000 C   0  0  0  0  0  0  0  0  0  0  0  0
    5.4641   -1.7990    0.0000 C   0  0  0  0  0  0  0  0  0  0  0  0
    7.8301    3.5670    0.0000 C   0  0  0  0  0  0  0  0  0  0  0  0
    6.3301    4.4330    0.0000 C   0  0  0  0  0  0  0  0  0  0  0  0
    4.5981   -2.2990    0.0000 C   0  0  0  0  0  0  0  0  0  0  0  0
    8.3301    4.4330    0.0000 C   0  0  0  0  0  0  0  0  0  0  0  0
    6.8301    5.2990    0.0000 C   0  0  0  0  0  0  0  0  0  0  0  0
    7.8301    5.2990    0.0000 C   0  0  0  0  0  0  0  0  0  0  0  0
    2.8660   -5.2990    0.0000 C   0  0  0  0  0  0  0  0  0  0  0  0
    3.7320   -3.7990    0.0000 C   0  0  0  0  0  0  0  0  0  0  0  0
    2.0000   -5.7990    0.0000 C   0  0  0  0  0  0  0  0  0  0  0  0
    3.3660   -6.1651    0.0000 C   0  0  0  0  0  0  0  0  0  0  0  0
    2.3660   -4.4330    0.0000 C   0  0  0  0  0  0  0  0  0  0  0  0
    7.8067    2.0933    0.0000 H   0  0  0  0  0  0  0  0  0  0  0  0
    7.4082    2.7836    0.0000 H   0  0  0  0  0  0  0  0  0  0  0  0
    5.2520    2.7836    0.0000 H   0  0  0  0  0  0  0  0  0  0  0  0
    4.8535    2.0933    0.0000 H   0  0  0  0  0  0  0  0  0  0  0  0
    7.4082    0.6184    0.0000 H   0  0  0  0  0  0  0  0  0  0  0  0
    7.8067    1.3086    0.0000 H   0  0  0  0  0  0  0  0  0  0  0  0
    4.8535    1.3086    0.0000 H   0  0  0  0  0  0  0  0  0  0  0  0
    5.2520    0.6184    0.0000 H   0  0  0  0  0  0  0  0  0  0  0  0
    6.5422   -0.8816    0.0000 H   0  0  0  0  0  0  0  0  0  0  0  0
    6.9407   -0.1914    0.0000 H   0  0  0  0  0  0  0  0  0  0  0  0
    5.2520   -0.2164    0.0000 H   0  0  0  0  0  0  0  0  0  0  0  0
    4.8535   -0.9067    0.0000 H   0  0  0  0  0  0  0  0  0  0  0  0
    5.2101    3.5670    0.0000 H   0  0  0  0  0  0  0  0  0  0  0  0
    5.6762   -2.3816    0.0000 H   0  0  0  0  0  0  0  0  0  0  0  0
    6.0747   -1.6914    0.0000 H   0  0  0  0  0  0  0  0  0  0  0  0
    8.1401    3.0300    0.0000 H   0  0  0  0  0  0  0  0  0  0  0  0
    5.7101    4.4330    0.0000 H   0  0  0  0  0  0  0  0  0  0  0  0
    4.3860   -1.7164    0.0000 H   0  0  0  0  0  0  0  0  0  0  0  0
    3.9875   -2.4067    0.0000 H   0  0  0  0  0  0  0  0  0  0  0  0
    8.9501    4.4330    0.0000 H   0  0  0  0  0  0  0  0  0  0  0  0
    6.5201    5.8360    0.0000 H   0  0  0  0  0  0  0  0  0  0  0  0
    5.1350   -3.6090    0.0000 H   0  0  0  0  0  0  0  0  0  0  0  0
    1.6900   -5.2621    0.0000 H   0  0  0  0  0  0  0  0  0  0  0  0
    1.4631   -6.1090    0.0000 H   0  0  0  0  0  0  0  0  0  0  0  0
    2.3100   -6.3360    0.0000 H   0  0  0  0  0  0  0  0  0  0  0  0
    2.8291   -6.4751    0.0000 H   0  0  0  0  0  0  0  0  0  0  0  0
    3.6760   -6.7020    0.0000 H   0  0  0  0  0  0  0  0  0  0  0  0
    3.9030   -5.8551    0.0000 H   0  0  0  0  0  0  0  0  0  0  0  0
    2.9030   -4.1230    0.0000 H   0  0  0  0  0  0  0  0  0  0  0  0
    2.0560   -3.8961    0.0000 H   0  0  0  0  0  0  0  0  0  0  0  0
    1.8291   -4.7430    0.0000 H   0  0  0  0  0  0  0  0  0  0  0  0
  1 21  1  0  0  0  0
  2  7  1  0  0  0  0
  2 39  1  0  0  0  0
  3 22  1  0  0  0  0
  3 23  1  0  0  0  0
  4 23  2  0  0  0  0
  5 10  1  0  0  0  0
  5 11  1  0  0  0  0
  5 12  1  0  0  0  0
  6 18  1  0  0  0  0
  6 23  1  0  0  0  0
  6 48  1  0  0  0  0
  7  8  1  0  0  0  0
  7  9  1  0  0  0  0
  7 13  1  0  0  0  0
  8 10  1  0  0  0  0
  8 27  1  0  0  0  0
  8 28  1  0  0  0  0
  9 11  1  0  0  0  0
  9 29  1  0  0  0  0
  9 30  1  0  0  0  0
 10 31  1  0  0  0  0
 10 32  1  0  0  0  0
 11 33  1  0  0  0  0
 11 34  1  0  0  0  0
 12 14  1  0  0  0  0
 12 35  1  0  0  0  0
 12 36  1  0  0  0  0
 13 16  2  0  0  0  0
 13 17  1  0  0  0  0
 14 15  1  0  0  0  0
 14 37  1  0  0  0  0
 14 38  1  0  0  0  0
 15 18  1  0  0  0  0
 15 40  1  0  0  0  0
 15 41  1  0  0  0  0
 16 19  1  0  0  0  0
 16 42  1  0  0  0  0
 17 20  2  0  0  0  0
 17 43  1  0  0  0  0
 18 44  1  0  0  0  0
 18 45  1  0  0  0  0
 19 21  2  0  0  0  0
 19 46  1  0  0  0  0
 20 21  1  0  0  0  0
 20 47  1  0  0  0  0
 22 24  1  0  0  0  0
 22 25  1  0  0  0  0
 22 26  1  0  0  0  0
 24 49  1  0  0  0  0
 24 50  1  0  0  0  0
 24 51  1  0  0  0  0
 25 52  1  0  0  0  0
 25 53  1  0  0  0  0
 25 54  1  0  0  0  0
 26 55  1  0  0  0  0
 26 56  1  0  0  0  0
 26 57  1  0  0  0  0
M  END
> <PUBCHEM_COMPOUND_CID>
90645293

> <PUBCHEM_COMPOUND_CANONICALIZED>
1

> <PUBCHEM_CACTVS_COMPLEXITY>
437

> <PUBCHEM_CACTVS_HBOND_ACCEPTOR>
4

> <PUBCHEM_CACTVS_HBOND_DONOR>
2

> <PUBCHEM_CACTVS_ROTATABLE_BOND>
8

> <PUBCHEM_CACTVS_SUBSKEYS>
AAADceB7MAAEAAAAAAAAAAAAAAAAAAAAAAA8QAAAAAAAAAABAAAAHgIQCAAADEbBmCQyCIPABgCIAiBCGAACAAAgBQAIiIAICokIJiKBkxCMcAAm1gGImAeQwOAOhAAAAAAAAAAIAAAAAAAAAAAAAAAAAA==

> <PUBCHEM_IUPAC_OPENEYE_NAME>
tert-butyl N-[4-[4-(4-chlorophenyl)-4-hydroxy-1-piperidyl]butyl]carbamate

> <PUBCHEM_IUPAC_CAS_NAME>
N-[4-[4-(4-chlorophenyl)-4-hydroxy-1-piperidinyl]butyl]carbamic acid tert-butyl ester

> <PUBCHEM_IUPAC_NAME_MARKUP>
<I>tert</I>-butyl <I>N</I>-[4-[4-(4-chlorophenyl)-4-hydroxypiperidin-1-yl]butyl]carbamate

> <PUBCHEM_IUPAC_NAME>
tert-butyl N-[4-[4-(4-chlorophenyl)-4-hydroxypiperidin-1-yl]butyl]carbamate

> <PUBCHEM_IUPAC_SYSTEMATIC_NAME>
tert-butyl N-[4-[4-(4-chlorophenyl)-4-oxidanyl-piperidin-1-yl]butyl]carbamate

> <PUBCHEM_IUPAC_TRADITIONAL_NAME>
N-[4-[4-(4-chlorophenyl)-4-hydroxy-piperidino]butyl]carbamic acid tert-butyl ester

> <PUBCHEM_IUPAC_INCHI>
InChI=1S/C20H31ClN2O3/c1-19(2,3)26-18(24)22-12-4-5-13-23-14-10-20(25,11-15-23)16-6-8-17(21)9-7-16/h6-9,25H,4-5,10-15H2,1-3H3,(H,22,24)

> <PUBCHEM_IUPAC_INCHIKEY>
WQIQKJZEKYFKAS-UHFFFAOYSA-N

> <PUBCHEM_XLOGP3_AA>
3.5

> <PUBCHEM_EXACT_MASS>
382.2023205

> <PUBCHEM_MOLECULAR_FORMULA>
C20H31ClN2O3

> <PUBCHEM_MOLECULAR_WEIGHT>
382.9

> <PUBCHEM_OPENEYE_CAN_SMILES>
CC(C)(C)OC(=O)NCCCCN1CCC(CC1)(C2=CC=C(C=C2)Cl)O

> <PUBCHEM_OPENEYE_ISO_SMILES>
CC(C)(C)OC(=O)NCCCCN1CCC(CC1)(C2=CC=C(C=C2)Cl)O

> <PUBCHEM_CACTVS_TPSA>
61.8

> <PUBCHEM_MONOISOTOPIC_WEIGHT>
382.2023205

> <PUBCHEM_TOTAL_CHARGE>
0

> <PUBCHEM_HEAVY_ATOM_COUNT>
26

> <PUBCHEM_ATOM_DEF_STEREO_COUNT>
0

> <PUBCHEM_ATOM_UDEF_STEREO_COUNT>
0

> <PUBCHEM_BOND_DEF_STEREO_COUNT>
0

> <PUBCHEM_BOND_UDEF_STEREO_COUNT>
0

> <PUBCHEM_ISOTOPIC_ATOM_COUNT>
0

> <PUBCHEM_COMPONENT_COUNT>
1

> <PUBCHEM_CACTVS_TAUTO_COUNT>
-1

> <PUBCHEM_COORDINATE_TYPE>
1
5
255

> <PUBCHEM_BONDANNOTATIONS>
13  16  8
13  17  8
16  19  8
17  20  8
19  21  8
20  21  8

$$$$
