164622652
  -OEChem-09292322432D

 67 71  0     1  0  0  0  0  0999 V2000
    5.4176    4.7804    0.0000 O   0  0  0  0  0  0  0  0  0  0  0  0
    8.0436    3.2457    0.0000 O   0  0  0  0  0  0  0  0  0  0  0  0
    8.0557    7.3150    0.0000 O   0  0  0  0  0  0  0  0  0  0  0  0
    2.0000   -1.3287    0.0000 O   0  0  0  0  0  0  0  0  0  0  0  0
    5.4176    2.7110    0.0000 N   0  0  3  0  0  0  0  0  0  0  0  0
    3.7319   -1.3087    0.0000 N   0  0  0  0  0  0  0  0  0  0  0  0
    6.3116    3.2457    0.0000 C   0  0  1  0  0  0  0  0  0  0  0  0
    6.3116    4.2457    0.0000 C   0  0  1  0  0  0  0  0  0  0  0  0
    4.5116    3.2249    0.0000 C   0  0  0  0  0  0  0  0  0  0  0  0
    7.1776    2.7457    0.0000 C   0  0  0  0  0  0  0  0  0  0  0  0
    5.4292    1.7111    0.0000 C   0  0  0  0  0  0  0  0  0  0  0  0
    7.1776    4.7457    0.0000 C   0  0  0  0  0  0  0  0  0  0  0  0
    4.5116    4.2665    0.0000 C   0  0  0  0  0  0  0  0  0  0  0  0
    4.5690    1.2011    0.0000 C   0  0  0  0  0  0  0  0  0  0  0  0
    8.0436    4.2457    0.0000 C   0  0  0  0  0  0  0  0  0  0  0  0
    7.1615    5.7872    0.0000 C   0  0  0  0  0  0  0  0  0  0  0  0
    4.5806    0.2012    0.0000 C   0  0  0  0  0  0  0  0  0  0  0  0
    8.9536    4.7526    0.0000 C   0  0  0  0  0  0  0  0  0  0  0  0
    8.0596    6.3150    0.0000 C   0  0  0  0  0  0  0  0  0  0  0  0
    3.7204   -0.3088    0.0000 C   0  0  0  0  0  0  0  0  0  0  0  0
    8.9616    5.7942    0.0000 C   0  0  0  0  0  0  0  0  0  0  0  0
    2.8718   -1.8187    0.0000 C   0  0  0  0  0  0  0  0  0  0  0  0
    8.9198    7.8183    0.0000 C   0  0  0  0  0  0  0  0  0  0  0  0
    2.8833   -2.8186    0.0000 C   0  0  0  0  0  0  0  0  0  0  0  0
    3.7551   -3.3086    0.0000 C   0  0  0  0  0  0  0  0  0  0  0  0
    2.0231   -3.3286    0.0000 C   0  0  0  0  0  0  0  0  0  0  0  0
    2.9064   -4.8185    0.0000 C   0  0  0  0  0  0  0  0  0  0  0  0
    3.7666   -4.3085    0.0000 C   0  0  0  0  0  0  0  0  0  0  0  0
    2.0347   -4.3285    0.0000 C   0  0  0  0  0  0  0  0  0  0  0  0
    2.9180   -5.8184    0.0000 C   0  0  0  0  0  0  0  0  0  0  0  0
    3.7898   -6.3084    0.0000 C   0  0  0  0  0  0  0  0  0  0  0  0
    2.0578   -6.3284    0.0000 C   0  0  0  0  0  0  0  0  0  0  0  0
    3.8013   -7.3083    0.0000 C   0  0  0  0  0  0  0  0  0  0  0  0
    2.0694   -7.3283    0.0000 C   0  0  0  0  0  0  0  0  0  0  0  0
    2.9411   -7.8183    0.0000 C   0  0  0  0  0  0  0  0  0  0  0  0
    6.3181    2.3957    0.0000 H   0  0  0  0  0  0  0  0  0  0  0  0
    6.3181    5.0957    0.0000 H   0  0  0  0  0  0  0  0  0  0  0  0
    3.9007    3.3310    0.0000 H   0  0  0  0  0  0  0  0  0  0  0  0
    4.3025    2.6412    0.0000 H   0  0  0  0  0  0  0  0  0  0  0  0
    6.7791    2.2708    0.0000 H   0  0  0  0  0  0  0  0  0  0  0  0
    7.5761    2.2708    0.0000 H   0  0  0  0  0  0  0  0  0  0  0  0
    5.6480    1.1310    0.0000 H   0  0  0  0  0  0  0  0  0  0  0  0
    6.0385    1.8258    0.0000 H   0  0  0  0  0  0  0  0  0  0  0  0
    4.3025    4.8502    0.0000 H   0  0  0  0  0  0  0  0  0  0  0  0
    3.9007    4.1604    0.0000 H   0  0  0  0  0  0  0  0  0  0  0  0
    4.3502    1.7812    0.0000 H   0  0  0  0  0  0  0  0  0  0  0  0
    3.9597    1.0864    0.0000 H   0  0  0  0  0  0  0  0  0  0  0  0
    6.6210    6.0910    0.0000 H   0  0  0  0  0  0  0  0  0  0  0  0
    4.7993   -0.3789    0.0000 H   0  0  0  0  0  0  0  0  0  0  0  0
    5.1898    0.3159    0.0000 H   0  0  0  0  0  0  0  0  0  0  0  0
    9.4869    4.4364    0.0000 H   0  0  0  0  0  0  0  0  0  0  0  0
    3.5016    0.2713    0.0000 H   0  0  0  0  0  0  0  0  0  0  0  0
    3.1111   -0.4235    0.0000 H   0  0  0  0  0  0  0  0  0  0  0  0
    9.4998    6.1021    0.0000 H   0  0  0  0  0  0  0  0  0  0  0  0
    4.2724   -1.6125    0.0000 H   0  0  0  0  0  0  0  0  0  0  0  0
    9.2319    7.2826    0.0000 H   0  0  0  0  0  0  0  0  0  0  0  0
    9.4555    8.1304    0.0000 H   0  0  0  0  0  0  0  0  0  0  0  0
    8.6077    8.3540    0.0000 H   0  0  0  0  0  0  0  0  0  0  0  0
    4.2884   -2.9924    0.0000 H   0  0  0  0  0  0  0  0  0  0  0  0
    1.4826   -3.0248    0.0000 H   0  0  0  0  0  0  0  0  0  0  0  0
    4.3071   -4.6123    0.0000 H   0  0  0  0  0  0  0  0  0  0  0  0
    1.5014   -4.6447    0.0000 H   0  0  0  0  0  0  0  0  0  0  0  0
    4.3231   -5.9922    0.0000 H   0  0  0  0  0  0  0  0  0  0  0  0
    1.5173   -6.0246    0.0000 H   0  0  0  0  0  0  0  0  0  0  0  0
    4.3418   -7.6121    0.0000 H   0  0  0  0  0  0  0  0  0  0  0  0
    1.5361   -7.6445    0.0000 H   0  0  0  0  0  0  0  0  0  0  0  0
    2.9483   -8.4382    0.0000 H   0  0  0  0  0  0  0  0  0  0  0  0
  1  8  1  0  0  0  0
  1 13  1  0  0  0  0
  2 10  1  0  0  0  0
  2 15  1  0  0  0  0
  3 19  1  0  0  0  0
  3 23  1  0  0  0  0
  4 22  2  0  0  0  0
  5  7  1  0  0  0  0
  5  9  1  0  0  0  0
  5 11  1  0  0  0  0
  6 20  1  0  0  0  0
  6 22  1  0  0  0  0
  6 55  1  0  0  0  0
  7  8  1  0  0  0  0
  7 10  1  0  0  0  0
  7 36  1  6  0  0  0
  8 12  1  0  0  0  0
  8 37  1  1  0  0  0
  9 13  1  0  0  0  0
  9 38  1  0  0  0  0
  9 39  1  0  0  0  0
 10 40  1  0  0  0  0
 10 41  1  0  0  0  0
 11 14  1  0  0  0  0
 11 42  1  0  0  0  0
 11 43  1  0  0  0  0
 12 15  2  0  0  0  0
 12 16  1  0  0  0  0
 13 44  1  0  0  0  0
 13 45  1  0  0  0  0
 14 17  1  0  0  0  0
 14 46  1  0  0  0  0
 14 47  1  0  0  0  0
 15 18  1  0  0  0  0
 16 19  2  0  0  0  0
 16 48  1  0  0  0  0
 17 20  1  0  0  0  0
 17 49  1  0  0  0  0
 17 50  1  0  0  0  0
 18 21  2  0  0  0  0
 18 51  1  0  0  0  0
 19 21  1  0  0  0  0
 20 52  1  0  0  0  0
 20 53  1  0  0  0  0
 21 54  1  0  0  0  0
 22 24  1  0  0  0  0
 23 56  1  0  0  0  0
 23 57  1  0  0  0  0
 23 58  1  0  0  0  0
 24 25  2  0  0  0  0
 24 26  1  0  0  0  0
 25 28  1  0  0  0  0
 25 59  1  0  0  0  0
 26 29  2  0  0  0  0
 26 60  1  0  0  0  0
 27 28  2  0  0  0  0
 27 29  1  0  0  0  0
 27 30  1  0  0  0  0
 28 61  1  0  0  0  0
 29 62  1  0  0  0  0
 30 31  2  0  0  0  0
 30 32  1  0  0  0  0
 31 33  1  0  0  0  0
 31 63  1  0  0  0  0
 32 34  2  0  0  0  0
 32 64  1  0  0  0  0
 33 35  2  0  0  0  0
 33 65  1  0  0  0  0
 34 35  1  0  0  0  0
 34 66  1  0  0  0  0
 35 67  1  0  0  0  0
M  END
> <PUBCHEM_COMPOUND_CID>
164622652

> <PUBCHEM_COMPOUND_CANONICALIZED>
1

> <PUBCHEM_CACTVS_COMPLEXITY>
661

> <PUBCHEM_CACTVS_HBOND_ACCEPTOR>
5

> <PUBCHEM_CACTVS_HBOND_DONOR>
1

> <PUBCHEM_CACTVS_ROTATABLE_BOND>
8

> <PUBCHEM_CACTVS_SUBSKEYS>
AAADcfB7OAAAAAAAAAAAAAAAAAAAAAAAAAA8aMECAAAAAACxUAAAHgAQAAAADDzhmAYyBoPABACIAiFSEACCCAAkIAAIiIEODMgOJzKEtRuHOSjl1hGYqYf42POOwQABAAAIAACCAAIAABAAAAAAAAAAAA==

> <PUBCHEM_IUPAC_OPENEYE_NAME>
N-[4-[(4aR,10bR)-9-methoxy-3,4a,5,10b-tetrahydro-2H-chromeno[4,3-b][1,4]oxazin-4-yl]butyl]-4-phenyl-benzamide

> <PUBCHEM_IUPAC_CAS_NAME>
N-[4-[(4aR,10bR)-9-methoxy-3,4a,5,10b-tetrahydro-2H-[1]benzopyrano[4,3-b][1,4]oxazin-4-yl]butyl]-4-phenylbenzamide

> <PUBCHEM_IUPAC_NAME_MARKUP>
<I>N</I>-[4-[(4<I>a</I><I>R</I>,10<I>b</I><I>R</I>)-9-methoxy-3,4<I>a</I>,5,10<I>b</I>-tetrahydro-2<I>H</I>-chromeno[4,3-b][1,4]oxazin-4-yl]butyl]-4-phenylbenzamide

> <PUBCHEM_IUPAC_NAME>
N-[4-[(4aR,10bR)-9-methoxy-3,4a,5,10b-tetrahydro-2H-chromeno[4,3-b][1,4]oxazin-4-yl]butyl]-4-phenylbenzamide

> <PUBCHEM_IUPAC_SYSTEMATIC_NAME>
N-[4-[(4aR,10bR)-9-methoxy-3,4a,5,10b-tetrahydro-2H-chromeno[4,3-b][1,4]oxazin-4-yl]butyl]-4-phenyl-benzamide

> <PUBCHEM_IUPAC_TRADITIONAL_NAME>
N-[4-[(4aR,10bR)-9-methoxy-3,4a,5,10b-tetrahydro-2H-chromeno[4,3-b][1,4]oxazin-4-yl]butyl]-4-phenyl-benzamide

> <PUBCHEM_IUPAC_INCHI>
InChI=1S/C29H32N2O4/c1-33-24-13-14-27-25(19-24)28-26(20-35-27)31(17-18-34-28)16-6-5-15-30-29(32)23-11-9-22(10-12-23)21-7-3-2-4-8-21/h2-4,7-14,19,26,28H,5-6,15-18,20H2,1H3,(H,30,32)/t26-,28-/m1/s1

> <PUBCHEM_IUPAC_INCHIKEY>
WYIBJRJIELMSTK-IXCJQBJRSA-N

> <PUBCHEM_XLOGP3>
4.7

> <PUBCHEM_EXACT_MASS>
472.23620751

> <PUBCHEM_MOLECULAR_FORMULA>
C29H32N2O4

> <PUBCHEM_MOLECULAR_WEIGHT>
472.6

> <PUBCHEM_OPENEYE_CAN_SMILES>
COC1=CC2=C(C=C1)OCC3C2OCCN3CCCCNC(=O)C4=CC=C(C=C4)C5=CC=CC=C5

> <PUBCHEM_OPENEYE_ISO_SMILES>
COC1=CC2=C(C=C1)OC[C@@H]3[C@@H]2OCCN3CCCCNC(=O)C4=CC=C(C=C4)C5=CC=CC=C5

> <PUBCHEM_CACTVS_TPSA>
60

> <PUBCHEM_MONOISOTOPIC_WEIGHT>
472.23620751

> <PUBCHEM_TOTAL_CHARGE>
0

> <PUBCHEM_HEAVY_ATOM_COUNT>
35

> <PUBCHEM_ATOM_DEF_STEREO_COUNT>
2

> <PUBCHEM_ATOM_UDEF_STEREO_COUNT>
0

> <PUBCHEM_BOND_DEF_STEREO_COUNT>
0

> <PUBCHEM_BOND_UDEF_STEREO_COUNT>
0

> <PUBCHEM_ISOTOPIC_ATOM_COUNT>
0

> <PUBCHEM_COMPONENT_COUNT>
1

> <PUBCHEM_CACTVS_TAUTO_COUNT>
-1

> <PUBCHEM_COORDINATE_TYPE>
1
5
255

> <PUBCHEM_BONDANNOTATIONS>
12  15  8
12  16  8
15  18  8
16  19  8
18  21  8
19  21  8
24  25  8
24  26  8
25  28  8
26  29  8
27  28  8
27  29  8
30  31  8
30  32  8
31  33  8
32  34  8
33  35  8
34  35  8
7  36  6
8  37  5

$$$$
