44405980
  -OEChem-09292322272D

 60 64  0     0  0  0  0  0  0999 V2000
    2.8660    0.2990    0.0000 Cl  0  0  0  0  0  0  0  0  0  0  0  0
    9.7942    1.2990    0.0000 O   0  0  0  0  0  0  0  0  0  0  0  0
    8.0622   -1.7010    0.0000 O   0  0  0  0  0  0  0  0  0  0  0  0
   13.1901   -2.4330    0.0000 O   0  0  0  0  0  0  0  0  0  0  0  0
    6.3301    0.2990    0.0000 N   0  0  0  0  0  0  0  0  0  0  0  0
    4.5981    1.2990    0.0000 N   0  0  0  0  0  0  0  0  0  0  0  0
    8.9282   -0.2010    0.0000 N   0  0  0  0  0  0  0  0  0  0  0  0
    9.7942   -1.7010    0.0000 N   0  0  0  0  0  0  0  0  0  0  0  0
   11.6065   -1.5057    0.0000 N   0  0  0  0  0  0  0  0  0  0  0  0
    6.3301    1.2990    0.0000 C   0  0  0  0  0  0  0  0  0  0  0  0
    5.4641   -0.2010    0.0000 C   0  0  0  0  0  0  0  0  0  0  0  0
    5.4641    1.7990    0.0000 C   0  0  0  0  0  0  0  0  0  0  0  0
    4.5981    0.2990    0.0000 C   0  0  0  0  0  0  0  0  0  0  0  0
    7.1962   -0.2010    0.0000 C   0  0  0  0  0  0  0  0  0  0  0  0
    8.0622    0.2990    0.0000 C   0  0  0  0  0  0  0  0  0  0  0  0
    3.7320    1.7990    0.0000 C   0  0  0  0  0  0  0  0  0  0  0  0
    9.7942    0.2990    0.0000 C   0  0  0  0  0  0  0  0  0  0  0  0
   10.6603   -0.2010    0.0000 C   0  0  0  0  0  0  0  0  0  0  0  0
    8.9282   -1.2010    0.0000 C   0  0  0  0  0  0  0  0  0  0  0  0
   10.6603   -1.2010    0.0000 C   0  0  0  0  0  0  0  0  0  0  0  0
    2.8660    1.2990    0.0000 C   0  0  0  0  0  0  0  0  0  0  0  0
    3.7320    2.7990    0.0000 C   0  0  0  0  0  0  0  0  0  0  0  0
   11.6065    0.1038    0.0000 C   0  0  0  0  0  0  0  0  0  0  0  0
   12.1901   -0.7010    0.0000 C   0  0  0  0  0  0  0  0  0  0  0  0
    2.0000    1.7990    0.0000 C   0  0  0  0  0  0  0  0  0  0  0  0
    2.8660    3.2990    0.0000 C   0  0  0  0  0  0  0  0  0  0  0  0
   13.1901   -0.7010    0.0000 C   0  0  0  0  0  0  0  0  0  0  0  0
    2.0000    2.7990    0.0000 C   0  0  0  0  0  0  0  0  0  0  0  0
   13.6901   -1.5670    0.0000 C   0  0  0  0  0  0  0  0  0  0  0  0
   13.6901    0.1651    0.0000 C   0  0  0  0  0  0  0  0  0  0  0  0
   14.6901   -1.5670    0.0000 C   0  0  0  0  0  0  0  0  0  0  0  0
   14.6901    0.1651    0.0000 C   0  0  0  0  0  0  0  0  0  0  0  0
   15.1901   -0.7010    0.0000 C   0  0  0  0  0  0  0  0  0  0  0  0
   13.6901   -3.2990    0.0000 C   0  0  0  0  0  0  0  0  0  0  0  0
    6.9407    1.1914    0.0000 H   0  0  0  0  0  0  0  0  0  0  0  0
    6.5422    1.8816    0.0000 H   0  0  0  0  0  0  0  0  0  0  0  0
    5.0656   -0.6759    0.0000 H   0  0  0  0  0  0  0  0  0  0  0  0
    5.8626   -0.6759    0.0000 H   0  0  0  0  0  0  0  0  0  0  0  0
    5.8626    2.2740    0.0000 H   0  0  0  0  0  0  0  0  0  0  0  0
    5.0656    2.2740    0.0000 H   0  0  0  0  0  0  0  0  0  0  0  0
    3.9875    0.4067    0.0000 H   0  0  0  0  0  0  0  0  0  0  0  0
    4.3860   -0.2836    0.0000 H   0  0  0  0  0  0  0  0  0  0  0  0
    6.7976   -0.6759    0.0000 H   0  0  0  0  0  0  0  0  0  0  0  0
    7.5947   -0.6759    0.0000 H   0  0  0  0  0  0  0  0  0  0  0  0
    8.4607    0.7740    0.0000 H   0  0  0  0  0  0  0  0  0  0  0  0
    7.6636    0.7740    0.0000 H   0  0  0  0  0  0  0  0  0  0  0  0
    4.2690    3.1090    0.0000 H   0  0  0  0  0  0  0  0  0  0  0  0
    9.7942   -2.3210    0.0000 H   0  0  0  0  0  0  0  0  0  0  0  0
   11.7991    0.6931    0.0000 H   0  0  0  0  0  0  0  0  0  0  0  0
   11.7991   -2.0950    0.0000 H   0  0  0  0  0  0  0  0  0  0  0  0
    1.4631    1.4890    0.0000 H   0  0  0  0  0  0  0  0  0  0  0  0
    2.8660    3.9190    0.0000 H   0  0  0  0  0  0  0  0  0  0  0  0
    1.4631    3.1090    0.0000 H   0  0  0  0  0  0  0  0  0  0  0  0
   13.3801    0.7020    0.0000 H   0  0  0  0  0  0  0  0  0  0  0  0
   15.0001   -2.1039    0.0000 H   0  0  0  0  0  0  0  0  0  0  0  0
   15.0001    0.7020    0.0000 H   0  0  0  0  0  0  0  0  0  0  0  0
   15.8101   -0.7010    0.0000 H   0  0  0  0  0  0  0  0  0  0  0  0
   13.1531   -3.6090    0.0000 H   0  0  0  0  0  0  0  0  0  0  0  0
   14.0001   -3.8360    0.0000 H   0  0  0  0  0  0  0  0  0  0  0  0
   14.2270   -2.9890    0.0000 H   0  0  0  0  0  0  0  0  0  0  0  0
  1 21  1  0  0  0  0
  2 17  2  0  0  0  0
  3 19  2  0  0  0  0
  4 29  1  0  0  0  0
  4 34  1  0  0  0  0
  5 10  1  0  0  0  0
  5 11  1  0  0  0  0
  5 14  1  0  0  0  0
  6 12  1  0  0  0  0
  6 13  1  0  0  0  0
  6 16  1  0  0  0  0
  7 15  1  0  0  0  0
  7 17  1  0  0  0  0
  7 19  1  0  0  0  0
  8 19  1  0  0  0  0
  8 20  1  0  0  0  0
  8 48  1  0  0  0  0
  9 20  1  0  0  0  0
  9 24  1  0  0  0  0
  9 50  1  0  0  0  0
 10 12  1  0  0  0  0
 10 35  1  0  0  0  0
 10 36  1  0  0  0  0
 11 13  1  0  0  0  0
 11 37  1  0  0  0  0
 11 38  1  0  0  0  0
 12 39  1  0  0  0  0
 12 40  1  0  0  0  0
 13 41  1  0  0  0  0
 13 42  1  0  0  0  0
 14 15  1  0  0  0  0
 14 43  1  0  0  0  0
 14 44  1  0  0  0  0
 15 45  1  0  0  0  0
 15 46  1  0  0  0  0
 16 21  1  0  0  0  0
 16 22  2  0  0  0  0
 17 18  1  0  0  0  0
 18 20  2  0  0  0  0
 18 23  1  0  0  0  0
 21 25  2  0  0  0  0
 22 26  1  0  0  0  0
 22 47  1  0  0  0  0
 23 24  2  0  0  0  0
 23 49  1  0  0  0  0
 24 27  1  0  0  0  0
 25 28  1  0  0  0  0
 25 51  1  0  0  0  0
 26 28  2  0  0  0  0
 26 52  1  0  0  0  0
 27 29  1  0  0  0  0
 27 30  2  0  0  0  0
 28 53  1  0  0  0  0
 29 31  2  0  0  0  0
 30 32  1  0  0  0  0
 30 54  1  0  0  0  0
 31 33  1  0  0  0  0
 31 55  1  0  0  0  0
 32 33  2  0  0  0  0
 32 56  1  0  0  0  0
 33 57  1  0  0  0  0
 34 58  1  0  0  0  0
 34 59  1  0  0  0  0
 34 60  1  0  0  0  0
M  END
> <PUBCHEM_COMPOUND_CID>
44405980

> <PUBCHEM_COMPOUND_CANONICALIZED>
1

> <PUBCHEM_CACTVS_COMPLEXITY>
733

> <PUBCHEM_CACTVS_HBOND_ACCEPTOR>
5

> <PUBCHEM_CACTVS_HBOND_DONOR>
2

> <PUBCHEM_CACTVS_ROTATABLE_BOND>
6

> <PUBCHEM_CACTVS_SUBSKEYS>
AAADceB7sAAEAAAAAAAAAAAAAAAAAWAAAAA8eIEAAAAAAFgB0AAAHgIQAAAADA7BniYz9pPJlACoAydydACCiCmlJyAJmSE+btiMZvrF95vUMahu1zPI6eecyPCOAAAAAAAIABAAAAAAABAAIAAAAAAAAA==

> <PUBCHEM_IUPAC_OPENEYE_NAME>
3-[2-[4-(2-chlorophenyl)piperazin-1-yl]ethyl]-6-(2-methoxyphenyl)-1,7-dihydropyrrolo[2,3-d]pyrimidine-2,4-dione

> <PUBCHEM_IUPAC_CAS_NAME>
3-[2-[4-(2-chlorophenyl)-1-piperazinyl]ethyl]-6-(2-methoxyphenyl)-1,7-dihydropyrrolo[2,3-d]pyrimidine-2,4-dione

> <PUBCHEM_IUPAC_NAME_MARKUP>
3-[2-[4-(2-chlorophenyl)piperazin-1-yl]ethyl]-6-(2-methoxyphenyl)-1,7-dihydropyrrolo[2,3-d]pyrimidine-2,4-dione

> <PUBCHEM_IUPAC_NAME>
3-[2-[4-(2-chlorophenyl)piperazin-1-yl]ethyl]-6-(2-methoxyphenyl)-1,7-dihydropyrrolo[2,3-d]pyrimidine-2,4-dione

> <PUBCHEM_IUPAC_SYSTEMATIC_NAME>
3-[2-[4-(2-chlorophenyl)piperazin-1-yl]ethyl]-6-(2-methoxyphenyl)-1,7-dihydropyrrolo[2,3-d]pyrimidine-2,4-dione

> <PUBCHEM_IUPAC_TRADITIONAL_NAME>
3-[2-[4-(2-chlorophenyl)piperazino]ethyl]-6-(2-methoxyphenyl)-1,7-dihydropyrrolo[2,3-d]pyrimidine-2,4-quinone

> <PUBCHEM_IUPAC_INCHI>
InChI=1S/C25H26ClN5O3/c1-34-22-9-5-2-6-17(22)20-16-18-23(27-20)28-25(33)31(24(18)32)15-12-29-10-13-30(14-11-29)21-8-4-3-7-19(21)26/h2-9,16,27H,10-15H2,1H3,(H,28,33)

> <PUBCHEM_IUPAC_INCHIKEY>
BBIXFEYHANJCTO-UHFFFAOYSA-N

> <PUBCHEM_XLOGP3_AA>
3.6

> <PUBCHEM_EXACT_MASS>
479.1724174

> <PUBCHEM_MOLECULAR_FORMULA>
C25H26ClN5O3

> <PUBCHEM_MOLECULAR_WEIGHT>
480.0

> <PUBCHEM_OPENEYE_CAN_SMILES>
COC1=CC=CC=C1C2=CC3=C(N2)NC(=O)N(C3=O)CCN4CCN(CC4)C5=CC=CC=C5Cl

> <PUBCHEM_OPENEYE_ISO_SMILES>
COC1=CC=CC=C1C2=CC3=C(N2)NC(=O)N(C3=O)CCN4CCN(CC4)C5=CC=CC=C5Cl

> <PUBCHEM_CACTVS_TPSA>
80.9

> <PUBCHEM_MONOISOTOPIC_WEIGHT>
479.1724174

> <PUBCHEM_TOTAL_CHARGE>
0

> <PUBCHEM_HEAVY_ATOM_COUNT>
34

> <PUBCHEM_ATOM_DEF_STEREO_COUNT>
0

> <PUBCHEM_ATOM_UDEF_STEREO_COUNT>
0

> <PUBCHEM_BOND_DEF_STEREO_COUNT>
0

> <PUBCHEM_BOND_UDEF_STEREO_COUNT>
0

> <PUBCHEM_ISOTOPIC_ATOM_COUNT>
0

> <PUBCHEM_COMPONENT_COUNT>
1

> <PUBCHEM_CACTVS_TAUTO_COUNT>
-1

> <PUBCHEM_COORDINATE_TYPE>
1
5
255

> <PUBCHEM_BONDANNOTATIONS>
16  21  8
16  22  8
17  18  8
18  20  8
18  23  8
21  25  8
22  26  8
23  24  8
25  28  8
26  28  8
27  29  8
27  30  8
29  31  8
30  32  8
31  33  8
32  33  8
7  17  8
7  19  8
8  19  8
8  20  8
9  20  8
9  24  8

$$$$
