130431314
  -OEChem-09292322412D

 63 66  0     1  0  0  0  0  0999 V2000
   13.7619   -0.1690    0.0000 Cl  0  0  0  0  0  0  0  0  0  0  0  0
    9.7619   -0.1690    0.0000 O   0  0  0  0  0  0  0  0  0  0  0  0
    6.7619   -1.9010    0.0000 O   0  0  0  0  0  0  0  0  0  0  0  0
   10.7619    1.5630    0.0000 N   0  0  0  0  0  0  0  0  0  0  0  0
   12.7619    1.5630    0.0000 N   0  0  0  0  0  0  0  0  0  0  0  0
    6.7619   -0.1690    0.0000 N   0  0  0  0  0  0  0  0  0  0  0  0
    4.6783   -1.8398    0.0000 N   0  0  0  0  0  0  0  0  0  0  0  0
   11.2619    2.4291    0.0000 C   0  0  0  0  0  0  0  0  0  0  0  0
   11.2619    0.6970    0.0000 C   0  0  0  0  0  0  0  0  0  0  0  0
   12.2619    2.4291    0.0000 C   0  0  0  0  0  0  0  0  0  0  0  0
   12.2619    0.6970    0.0000 C   0  0  0  0  0  0  0  0  0  0  0  0
    9.7619    1.5630    0.0000 C   0  0  0  0  0  0  0  0  0  0  0  0
    9.2619    0.6970    0.0000 C   0  0  1  0  0  0  0  0  0  0  0  0
   13.7619    1.5630    0.0000 C   0  0  0  0  0  0  0  0  0  0  0  0
    8.2619    0.6970    0.0000 C   0  0  0  0  0  0  0  0  0  0  0  0
    7.7619   -0.1690    0.0000 C   0  0  0  0  0  0  0  0  0  0  0  0
   14.2619    0.6970    0.0000 C   0  0  0  0  0  0  0  0  0  0  0  0
   14.2619    2.4291    0.0000 C   0  0  0  0  0  0  0  0  0  0  0  0
   15.2619    0.6970    0.0000 C   0  0  0  0  0  0  0  0  0  0  0  0
   15.2619    2.4291    0.0000 C   0  0  0  0  0  0  0  0  0  0  0  0
   15.7619    1.5630    0.0000 C   0  0  0  0  0  0  0  0  0  0  0  0
   15.7619   -0.1690    0.0000 C   0  0  0  0  0  0  0  0  0  0  0  0
    6.2619   -1.0350    0.0000 C   0  0  0  0  0  0  0  0  0  0  0  0
    5.2619   -1.0350    0.0000 C   0  0  0  0  0  0  0  0  0  0  0  0
   16.7619   -0.1690    0.0000 C   0  0  0  0  0  0  0  0  0  0  0  0
    4.6783   -0.2303    0.0000 C   0  0  0  0  0  0  0  0  0  0  0  0
    3.7320   -1.5350    0.0000 C   0  0  0  0  0  0  0  0  0  0  0  0
    3.7320   -0.5350    0.0000 C   0  0  0  0  0  0  0  0  0  0  0  0
    2.8660   -2.0350    0.0000 C   0  0  0  0  0  0  0  0  0  0  0  0
    2.8660   -0.0350    0.0000 C   0  0  0  0  0  0  0  0  0  0  0  0
    2.0000   -1.5350    0.0000 C   0  0  0  0  0  0  0  0  0  0  0  0
    2.0000   -0.5350    0.0000 C   0  0  0  0  0  0  0  0  0  0  0  0
   11.3695    3.0397    0.0000 H   0  0  0  0  0  0  0  0  0  0  0  0
   10.6793    2.6411    0.0000 H   0  0  0  0  0  0  0  0  0  0  0  0
   10.6793    0.4850    0.0000 H   0  0  0  0  0  0  0  0  0  0  0  0
   11.3695    0.0864    0.0000 H   0  0  0  0  0  0  0  0  0  0  0  0
   12.8445    2.6411    0.0000 H   0  0  0  0  0  0  0  0  0  0  0  0
   12.1542    3.0397    0.0000 H   0  0  0  0  0  0  0  0  0  0  0  0
   12.1542    0.0864    0.0000 H   0  0  0  0  0  0  0  0  0  0  0  0
   12.8445    0.4850    0.0000 H   0  0  0  0  0  0  0  0  0  0  0  0
    9.8695    2.1736    0.0000 H   0  0  0  0  0  0  0  0  0  0  0  0
    9.1793    1.7751    0.0000 H   0  0  0  0  0  0  0  0  0  0  0  0
    9.8819    0.6970    0.0000 H   0  0  0  0  0  0  0  0  0  0  0  0
    8.3695    1.3076    0.0000 H   0  0  0  0  0  0  0  0  0  0  0  0
    7.6793    0.9091    0.0000 H   0  0  0  0  0  0  0  0  0  0  0  0
    7.6542   -0.7796    0.0000 H   0  0  0  0  0  0  0  0  0  0  0  0
    8.3445   -0.3811    0.0000 H   0  0  0  0  0  0  0  0  0  0  0  0
   13.9519    2.9660    0.0000 H   0  0  0  0  0  0  0  0  0  0  0  0
    9.4519   -0.7059    0.0000 H   0  0  0  0  0  0  0  0  0  0  0  0
    6.4519    0.3679    0.0000 H   0  0  0  0  0  0  0  0  0  0  0  0
   15.5719    2.9660    0.0000 H   0  0  0  0  0  0  0  0  0  0  0  0
   16.3819    1.5630    0.0000 H   0  0  0  0  0  0  0  0  0  0  0  0
   15.1793   -0.3810    0.0000 H   0  0  0  0  0  0  0  0  0  0  0  0
   15.8695   -0.7796    0.0000 H   0  0  0  0  0  0  0  0  0  0  0  0
   16.7619   -0.7890    0.0000 H   0  0  0  0  0  0  0  0  0  0  0  0
   17.3819   -0.1690    0.0000 H   0  0  0  0  0  0  0  0  0  0  0  0
   16.7619    0.4510    0.0000 H   0  0  0  0  0  0  0  0  0  0  0  0
    4.8709   -2.4291    0.0000 H   0  0  0  0  0  0  0  0  0  0  0  0
    4.8709    0.3590    0.0000 H   0  0  0  0  0  0  0  0  0  0  0  0
    2.8660   -2.6550    0.0000 H   0  0  0  0  0  0  0  0  0  0  0  0
    2.8660    0.5850    0.0000 H   0  0  0  0  0  0  0  0  0  0  0  0
    1.4631   -1.8450    0.0000 H   0  0  0  0  0  0  0  0  0  0  0  0
    1.4631   -0.2250    0.0000 H   0  0  0  0  0  0  0  0  0  0  0  0
  1 17  1  0  0  0  0
 13  2  1  6  0  0  0
  2 49  1  0  0  0  0
  3 23  2  0  0  0  0
  4  8  1  0  0  0  0
  4  9  1  0  0  0  0
  4 12  1  0  0  0  0
  5 10  1  0  0  0  0
  5 11  1  0  0  0  0
  5 14  1  0  0  0  0
  6 16  1  0  0  0  0
  6 23  1  0  0  0  0
  6 50  1  0  0  0  0
  7 24  1  0  0  0  0
  7 27  1  0  0  0  0
  7 58  1  0  0  0  0
  8 10  1  0  0  0  0
  8 33  1  0  0  0  0
  8 34  1  0  0  0  0
  9 11  1  0  0  0  0
  9 35  1  0  0  0  0
  9 36  1  0  0  0  0
 10 37  1  0  0  0  0
 10 38  1  0  0  0  0
 11 39  1  0  0  0  0
 11 40  1  0  0  0  0
 12 13  1  0  0  0  0
 12 41  1  0  0  0  0
 12 42  1  0  0  0  0
 13 15  1  0  0  0  0
 13 43  1  0  0  0  0
 14 17  1  0  0  0  0
 14 18  2  0  0  0  0
 15 16  1  0  0  0  0
 15 44  1  0  0  0  0
 15 45  1  0  0  0  0
 16 46  1  0  0  0  0
 16 47  1  0  0  0  0
 17 19  2  0  0  0  0
 18 20  1  0  0  0  0
 18 48  1  0  0  0  0
 19 21  1  0  0  0  0
 19 22  1  0  0  0  0
 20 21  2  0  0  0  0
 20 51  1  0  0  0  0
 21 52  1  0  0  0  0
 22 25  1  0  0  0  0
 22 53  1  0  0  0  0
 22 54  1  0  0  0  0
 23 24  1  0  0  0  0
 24 26  2  0  0  0  0
 25 55  1  0  0  0  0
 25 56  1  0  0  0  0
 25 57  1  0  0  0  0
 26 28  1  0  0  0  0
 26 59  1  0  0  0  0
 27 28  1  0  0  0  0
 27 29  2  0  0  0  0
 28 30  2  0  0  0  0
 29 31  1  0  0  0  0
 29 60  1  0  0  0  0
 30 32  1  0  0  0  0
 30 61  1  0  0  0  0
 31 32  2  0  0  0  0
 31 62  1  0  0  0  0
 32 63  1  0  0  0  0
M  END
> <PUBCHEM_COMPOUND_CID>
130431314

> <PUBCHEM_COMPOUND_CANONICALIZED>
1

> <PUBCHEM_CACTVS_COMPLEXITY>
601

> <PUBCHEM_CACTVS_HBOND_ACCEPTOR>
4

> <PUBCHEM_CACTVS_HBOND_DONOR>
3

> <PUBCHEM_CACTVS_ROTATABLE_BOND>
8

> <PUBCHEM_CACTVS_SUBSKEYS>
AAADceB7sAAEAAAAAAAAAAAAAAAAAWAAAAA8YIAAAAAAAFgB9AAAHgIQCAAADB7hniYywPPJkgCoAyVyVACCgCAnBiAImaG4ZtgKcPLBl7HUYQhilgDYyYcYiYCeAAAAQAADABAAAACAAAYAIAAAAAAAAA==

> <PUBCHEM_IUPAC_OPENEYE_NAME>
N-[(3R)-4-[4-(2-chloro-3-ethyl-phenyl)piperazin-1-yl]-3-hydroxy-butyl]-1H-indole-2-carboxamide

> <PUBCHEM_IUPAC_CAS_NAME>
N-[(3R)-4-[4-(2-chloro-3-ethylphenyl)-1-piperazinyl]-3-hydroxybutyl]-1H-indole-2-carboxamide

> <PUBCHEM_IUPAC_NAME_MARKUP>
<I>N</I>-[(3<I>R</I>)-4-[4-(2-chloro-3-ethylphenyl)piperazin-1-yl]-3-hydroxybutyl]-1<I>H</I>-indole-2-carboxamide

> <PUBCHEM_IUPAC_NAME>
N-[(3R)-4-[4-(2-chloro-3-ethylphenyl)piperazin-1-yl]-3-hydroxybutyl]-1H-indole-2-carboxamide

> <PUBCHEM_IUPAC_SYSTEMATIC_NAME>
N-[(3R)-4-[4-(2-chloranyl-3-ethyl-phenyl)piperazin-1-yl]-3-oxidanyl-butyl]-1H-indole-2-carboxamide

> <PUBCHEM_IUPAC_TRADITIONAL_NAME>
N-[(3R)-4-[4-(2-chloro-3-ethyl-phenyl)piperazino]-3-hydroxy-butyl]-1H-indole-2-carboxamide

> <PUBCHEM_IUPAC_INCHI>
InChI=1S/C25H31ClN4O2/c1-2-18-7-5-9-23(24(18)26)30-14-12-29(13-15-30)17-20(31)10-11-27-25(32)22-16-19-6-3-4-8-21(19)28-22/h3-9,16,20,28,31H,2,10-15,17H2,1H3,(H,27,32)/t20-/m1/s1

> <PUBCHEM_IUPAC_INCHIKEY>
OIRZLTZLOKARTG-HXUWFJFHSA-N

> <PUBCHEM_XLOGP3_AA>
4.5

> <PUBCHEM_EXACT_MASS>
454.2135539

> <PUBCHEM_MOLECULAR_FORMULA>
C25H31ClN4O2

> <PUBCHEM_MOLECULAR_WEIGHT>
455.0

> <PUBCHEM_OPENEYE_CAN_SMILES>
CCC1=C(C(=CC=C1)N2CCN(CC2)CC(CCNC(=O)C3=CC4=CC=CC=C4N3)O)Cl

> <PUBCHEM_OPENEYE_ISO_SMILES>
CCC1=C(C(=CC=C1)N2CCN(CC2)C[C@@H](CCNC(=O)C3=CC4=CC=CC=C4N3)O)Cl

> <PUBCHEM_CACTVS_TPSA>
71.6

> <PUBCHEM_MONOISOTOPIC_WEIGHT>
454.2135539

> <PUBCHEM_TOTAL_CHARGE>
0

> <PUBCHEM_HEAVY_ATOM_COUNT>
32

> <PUBCHEM_ATOM_DEF_STEREO_COUNT>
1

> <PUBCHEM_ATOM_UDEF_STEREO_COUNT>
0

> <PUBCHEM_BOND_DEF_STEREO_COUNT>
0

> <PUBCHEM_BOND_UDEF_STEREO_COUNT>
0

> <PUBCHEM_ISOTOPIC_ATOM_COUNT>
0

> <PUBCHEM_COMPONENT_COUNT>
1

> <PUBCHEM_CACTVS_TAUTO_COUNT>
-1

> <PUBCHEM_COORDINATE_TYPE>
1
5
255

> <PUBCHEM_BONDANNOTATIONS>
14  17  8
14  18  8
17  19  8
18  20  8
19  21  8
13  2  6
20  21  8
24  26  8
26  28  8
27  28  8
27  29  8
28  30  8
29  31  8
30  32  8
31  32  8
7  24  8
7  27  8

$$$$
