137646281
  -OEChem-09292322012D

 59 62  0     0  0  0  0  0  0999 V2000
    4.6701    1.4648    0.0000 S   0  0  0  0  0  0  0  0  0  0  0  0
    8.1342   -4.5352    0.0000 O   0  0  0  0  0  0  0  0  0  0  0  0
    6.4021   -1.5352    0.0000 N   0  0  0  0  0  0  0  0  0  0  0  0
    6.4021   -3.5352    0.0000 N   0  0  0  0  0  0  0  0  0  0  0  0
    3.8611    3.0526    0.0000 N   0  0  0  0  0  0  0  0  0  0  0  0
    5.4791    3.0526    0.0000 N   0  0  0  0  0  0  0  0  0  0  0  0
    5.1701    4.0036    0.0000 N   0  0  0  0  0  0  0  0  0  0  0  0
    7.2682   -2.0352    0.0000 C   0  0  0  0  0  0  0  0  0  0  0  0
    5.5361   -2.0352    0.0000 C   0  0  0  0  0  0  0  0  0  0  0  0
    7.2682   -3.0352    0.0000 C   0  0  0  0  0  0  0  0  0  0  0  0
    5.5361   -3.0352    0.0000 C   0  0  0  0  0  0  0  0  0  0  0  0
    6.4021   -0.5352    0.0000 C   0  0  0  0  0  0  0  0  0  0  0  0
    5.5361   -0.0352    0.0000 C   0  0  0  0  0  0  0  0  0  0  0  0
    6.4021   -4.5352    0.0000 C   0  0  0  0  0  0  0  0  0  0  0  0
    5.5361    0.9648    0.0000 C   0  0  0  0  0  0  0  0  0  0  0  0
    7.2682   -5.0352    0.0000 C   0  0  0  0  0  0  0  0  0  0  0  0
    5.5361   -5.0352    0.0000 C   0  0  0  0  0  0  0  0  0  0  0  0
    7.2682   -6.0352    0.0000 C   0  0  0  0  0  0  0  0  0  0  0  0
    5.5361   -6.0352    0.0000 C   0  0  0  0  0  0  0  0  0  0  0  0
    6.4021   -6.5352    0.0000 C   0  0  0  0  0  0  0  0  0  0  0  0
    4.6701    2.4648    0.0000 C   0  0  0  0  0  0  0  0  0  0  0  0
    9.0002   -5.0352    0.0000 C   0  0  0  0  0  0  0  0  0  0  0  0
    4.1701    4.0036    0.0000 C   0  0  0  0  0  0  0  0  0  0  0  0
    2.9100    2.7436    0.0000 C   0  0  0  0  0  0  0  0  0  0  0  0
    3.5823    4.8126    0.0000 C   0  0  0  0  0  0  0  0  0  0  0  0
    2.5878    4.7081    0.0000 C   0  0  0  0  0  0  0  0  0  0  0  0
    3.9890    5.7262    0.0000 C   0  0  0  0  0  0  0  0  0  0  0  0
    2.0000    5.5171    0.0000 C   0  0  0  0  0  0  0  0  0  0  0  0
    3.4013    6.5352    0.0000 C   0  0  0  0  0  0  0  0  0  0  0  0
    2.4067    6.4307    0.0000 C   0  0  0  0  0  0  0  0  0  0  0  0
    7.8788   -2.1429    0.0000 H   0  0  0  0  0  0  0  0  0  0  0  0
    7.4802   -1.4526    0.0000 H   0  0  0  0  0  0  0  0  0  0  0  0
    5.3241   -1.4526    0.0000 H   0  0  0  0  0  0  0  0  0  0  0  0
    4.9255   -2.1429    0.0000 H   0  0  0  0  0  0  0  0  0  0  0  0
    7.4802   -3.6178    0.0000 H   0  0  0  0  0  0  0  0  0  0  0  0
    7.8788   -2.9276    0.0000 H   0  0  0  0  0  0  0  0  0  0  0  0
    4.9255   -2.9276    0.0000 H   0  0  0  0  0  0  0  0  0  0  0  0
    5.3241   -3.6178    0.0000 H   0  0  0  0  0  0  0  0  0  0  0  0
    7.0127   -0.6429    0.0000 H   0  0  0  0  0  0  0  0  0  0  0  0
    6.6142    0.0474    0.0000 H   0  0  0  0  0  0  0  0  0  0  0  0
    4.9255    0.0725    0.0000 H   0  0  0  0  0  0  0  0  0  0  0  0
    5.3241   -0.6178    0.0000 H   0  0  0  0  0  0  0  0  0  0  0  0
    6.1467    0.8571    0.0000 H   0  0  0  0  0  0  0  0  0  0  0  0
    5.7482    1.5474    0.0000 H   0  0  0  0  0  0  0  0  0  0  0  0
    4.9992   -4.7252    0.0000 H   0  0  0  0  0  0  0  0  0  0  0  0
    7.8051   -6.3452    0.0000 H   0  0  0  0  0  0  0  0  0  0  0  0
    4.9992   -6.3452    0.0000 H   0  0  0  0  0  0  0  0  0  0  0  0
    6.4021   -7.1552    0.0000 H   0  0  0  0  0  0  0  0  0  0  0  0
    8.6902   -5.5722    0.0000 H   0  0  0  0  0  0  0  0  0  0  0  0
    9.5372   -5.3452    0.0000 H   0  0  0  0  0  0  0  0  0  0  0  0
    9.3102   -4.4983    0.0000 H   0  0  0  0  0  0  0  0  0  0  0  0
    2.7184    3.3332    0.0000 H   0  0  0  0  0  0  0  0  0  0  0  0
    2.3204    2.5520    0.0000 H   0  0  0  0  0  0  0  0  0  0  0  0
    3.1016    2.1539    0.0000 H   0  0  0  0  0  0  0  0  0  0  0  0
    2.3356    4.1417    0.0000 H   0  0  0  0  0  0  0  0  0  0  0  0
    4.6056    5.7910    0.0000 H   0  0  0  0  0  0  0  0  0  0  0  0
    1.3834    5.4523    0.0000 H   0  0  0  0  0  0  0  0  0  0  0  0
    3.6534    7.1016    0.0000 H   0  0  0  0  0  0  0  0  0  0  0  0
    2.0423    6.9323    0.0000 H   0  0  0  0  0  0  0  0  0  0  0  0
  1 15  1  0  0  0  0
  1 21  1  0  0  0  0
  2 16  1  0  0  0  0
  2 22  1  0  0  0  0
  3  8  1  0  0  0  0
  3  9  1  0  0  0  0
  3 12  1  0  0  0  0
  4 10  1  0  0  0  0
  4 11  1  0  0  0  0
  4 14  1  0  0  0  0
  5 21  1  0  0  0  0
  5 23  1  0  0  0  0
  5 24  1  0  0  0  0
  6  7  1  0  0  0  0
  6 21  2  0  0  0  0
  7 23  2  0  0  0  0
  8 10  1  0  0  0  0
  8 31  1  0  0  0  0
  8 32  1  0  0  0  0
  9 11  1  0  0  0  0
  9 33  1  0  0  0  0
  9 34  1  0  0  0  0
 10 35  1  0  0  0  0
 10 36  1  0  0  0  0
 11 37  1  0  0  0  0
 11 38  1  0  0  0  0
 12 13  1  0  0  0  0
 12 39  1  0  0  0  0
 12 40  1  0  0  0  0
 13 15  1  0  0  0  0
 13 41  1  0  0  0  0
 13 42  1  0  0  0  0
 14 16  1  0  0  0  0
 14 17  2  0  0  0  0
 15 43  1  0  0  0  0
 15 44  1  0  0  0  0
 16 18  2  0  0  0  0
 17 19  1  0  0  0  0
 17 45  1  0  0  0  0
 18 20  1  0  0  0  0
 18 46  1  0  0  0  0
 19 20  2  0  0  0  0
 19 47  1  0  0  0  0
 20 48  1  0  0  0  0
 22 49  1  0  0  0  0
 22 50  1  0  0  0  0
 22 51  1  0  0  0  0
 23 25  1  0  0  0  0
 24 52  1  0  0  0  0
 24 53  1  0  0  0  0
 24 54  1  0  0  0  0
 25 26  2  0  0  0  0
 25 27  1  0  0  0  0
 26 28  1  0  0  0  0
 26 55  1  0  0  0  0
 27 29  2  0  0  0  0
 27 56  1  0  0  0  0
 28 30  2  0  0  0  0
 28 57  1  0  0  0  0
 29 30  1  0  0  0  0
 29 58  1  0  0  0  0
 30 59  1  0  0  0  0
M  END
> <PUBCHEM_COMPOUND_CID>
137646281

> <PUBCHEM_COMPOUND_CANONICALIZED>
1

> <PUBCHEM_CACTVS_COMPLEXITY>
498

> <PUBCHEM_CACTVS_HBOND_ACCEPTOR>
6

> <PUBCHEM_CACTVS_HBOND_DONOR>
0

> <PUBCHEM_CACTVS_ROTATABLE_BOND>
8

> <PUBCHEM_CACTVS_SUBSKEYS>
AAADceB7oABAAAAAAAAAAAAAAAAAAWAAAAA8YIAAAAAAAAAB0AAAHgQIAAAADAzF2waz1ocMFAiiAiZiZACS2AthIrAdyCAvbJiObqLkuZuVMChkyBPY6AeQwAAOAAAAAAAAEAAAAAAAAAAgAAAAAAAAAA==

> <PUBCHEM_IUPAC_OPENEYE_NAME>
1-(2-methoxyphenyl)-4-[3-[(4-methyl-5-phenyl-1,2,4-triazol-3-yl)sulfanyl]propyl]piperazine

> <PUBCHEM_IUPAC_CAS_NAME>
1-(2-methoxyphenyl)-4-[3-[(4-methyl-5-phenyl-1,2,4-triazol-3-yl)thio]propyl]piperazine

> <PUBCHEM_IUPAC_NAME_MARKUP>
1-(2-methoxyphenyl)-4-[3-[(4-methyl-5-phenyl-1,2,4-triazol-3-yl)sulfanyl]propyl]piperazine

> <PUBCHEM_IUPAC_NAME>
1-(2-methoxyphenyl)-4-[3-[(4-methyl-5-phenyl-1,2,4-triazol-3-yl)sulfanyl]propyl]piperazine

> <PUBCHEM_IUPAC_SYSTEMATIC_NAME>
1-(2-methoxyphenyl)-4-[3-[(4-methyl-5-phenyl-1,2,4-triazol-3-yl)sulfanyl]propyl]piperazine

> <PUBCHEM_IUPAC_TRADITIONAL_NAME>
1-(2-methoxyphenyl)-4-[3-[(4-methyl-5-phenyl-1,2,4-triazol-3-yl)thio]propyl]piperazine

> <PUBCHEM_IUPAC_INCHI>
InChI=1S/C23H29N5OS/c1-26-22(19-9-4-3-5-10-19)24-25-23(26)30-18-8-13-27-14-16-28(17-15-27)20-11-6-7-12-21(20)29-2/h3-7,9-12H,8,13-18H2,1-2H3

> <PUBCHEM_IUPAC_INCHIKEY>
RRTCFJGKAMKAIY-UHFFFAOYSA-N

> <PUBCHEM_XLOGP3_AA>
3.9

> <PUBCHEM_EXACT_MASS>
423.20928174

> <PUBCHEM_MOLECULAR_FORMULA>
C23H29N5OS

> <PUBCHEM_MOLECULAR_WEIGHT>
423.6

> <PUBCHEM_OPENEYE_CAN_SMILES>
CN1C(=NN=C1SCCCN2CCN(CC2)C3=CC=CC=C3OC)C4=CC=CC=C4

> <PUBCHEM_OPENEYE_ISO_SMILES>
CN1C(=NN=C1SCCCN2CCN(CC2)C3=CC=CC=C3OC)C4=CC=CC=C4

> <PUBCHEM_CACTVS_TPSA>
71.7

> <PUBCHEM_MONOISOTOPIC_WEIGHT>
423.20928174

> <PUBCHEM_TOTAL_CHARGE>
0

> <PUBCHEM_HEAVY_ATOM_COUNT>
30

> <PUBCHEM_ATOM_DEF_STEREO_COUNT>
0

> <PUBCHEM_ATOM_UDEF_STEREO_COUNT>
0

> <PUBCHEM_BOND_DEF_STEREO_COUNT>
0

> <PUBCHEM_BOND_UDEF_STEREO_COUNT>
0

> <PUBCHEM_ISOTOPIC_ATOM_COUNT>
0

> <PUBCHEM_COMPONENT_COUNT>
1

> <PUBCHEM_CACTVS_TAUTO_COUNT>
-1

> <PUBCHEM_COORDINATE_TYPE>
1
5
255

> <PUBCHEM_BONDANNOTATIONS>
14  16  8
14  17  8
16  18  8
17  19  8
18  20  8
19  20  8
25  26  8
25  27  8
26  28  8
27  29  8
28  30  8
29  30  8
5  21  8
5  23  8
6  21  8
6  7  8
7  23  8

$$$$
