118719804
  -OEChem-09292322362D

 62 65  0     0  0  0  0  0  0999 V2000
    8.1342   -4.6397    0.0000 O   0  0  0  0  0  0  0  0  0  0  0  0
    4.9836    5.7262    0.0000 O   0  0  0  0  0  0  0  0  0  0  0  0
    6.4021   -1.6397    0.0000 N   0  0  0  0  0  0  0  0  0  0  0  0
    6.4021   -3.6397    0.0000 N   0  0  0  0  0  0  0  0  0  0  0  0
    4.1701    3.8991    0.0000 N   0  0  0  0  0  0  0  0  0  0  0  0
    5.4791    2.9480    0.0000 N   0  0  0  0  0  0  0  0  0  0  0  0
    5.1701    3.8991    0.0000 N   0  0  0  0  0  0  0  0  0  0  0  0
    7.2682   -2.1397    0.0000 C   0  0  0  0  0  0  0  0  0  0  0  0
    5.5361   -2.1397    0.0000 C   0  0  0  0  0  0  0  0  0  0  0  0
    7.2682   -3.1397    0.0000 C   0  0  0  0  0  0  0  0  0  0  0  0
    5.5361   -3.1397    0.0000 C   0  0  0  0  0  0  0  0  0  0  0  0
    6.4021   -0.6397    0.0000 C   0  0  0  0  0  0  0  0  0  0  0  0
    5.5361   -0.1397    0.0000 C   0  0  0  0  0  0  0  0  0  0  0  0
    5.5361    0.8603    0.0000 C   0  0  0  0  0  0  0  0  0  0  0  0
    6.4021   -4.6397    0.0000 C   0  0  0  0  0  0  0  0  0  0  0  0
    4.6701    1.3603    0.0000 C   0  0  0  0  0  0  0  0  0  0  0  0
    7.2682   -5.1397    0.0000 C   0  0  0  0  0  0  0  0  0  0  0  0
    5.5361   -5.1397    0.0000 C   0  0  0  0  0  0  0  0  0  0  0  0
    4.6701    2.3603    0.0000 C   0  0  0  0  0  0  0  0  0  0  0  0
    7.2682   -6.1397    0.0000 C   0  0  0  0  0  0  0  0  0  0  0  0
    5.5361   -6.1397    0.0000 C   0  0  0  0  0  0  0  0  0  0  0  0
    6.4021   -6.6397    0.0000 C   0  0  0  0  0  0  0  0  0  0  0  0
    3.8611    2.9480    0.0000 C   0  0  0  0  0  0  0  0  0  0  0  0
    3.5823    4.7081    0.0000 C   0  0  0  0  0  0  0  0  0  0  0  0
    9.0002   -5.1397    0.0000 C   0  0  0  0  0  0  0  0  0  0  0  0
    3.9890    5.6217    0.0000 C   0  0  0  0  0  0  0  0  0  0  0  0
    2.5878    4.6036    0.0000 C   0  0  0  0  0  0  0  0  0  0  0  0
    3.4013    6.4307    0.0000 C   0  0  0  0  0  0  0  0  0  0  0  0
    2.0000    5.4126    0.0000 C   0  0  0  0  0  0  0  0  0  0  0  0
    2.4067    6.3262    0.0000 C   0  0  0  0  0  0  0  0  0  0  0  0
    5.3903    6.6397    0.0000 C   0  0  0  0  0  0  0  0  0  0  0  0
    7.8788   -2.2474    0.0000 H   0  0  0  0  0  0  0  0  0  0  0  0
    7.4802   -1.5571    0.0000 H   0  0  0  0  0  0  0  0  0  0  0  0
    5.3241   -1.5571    0.0000 H   0  0  0  0  0  0  0  0  0  0  0  0
    4.9255   -2.2474    0.0000 H   0  0  0  0  0  0  0  0  0  0  0  0
    7.4802   -3.7224    0.0000 H   0  0  0  0  0  0  0  0  0  0  0  0
    7.8788   -3.0321    0.0000 H   0  0  0  0  0  0  0  0  0  0  0  0
    4.9255   -3.0321    0.0000 H   0  0  0  0  0  0  0  0  0  0  0  0
    5.3241   -3.7224    0.0000 H   0  0  0  0  0  0  0  0  0  0  0  0
    7.0127   -0.7474    0.0000 H   0  0  0  0  0  0  0  0  0  0  0  0
    6.6142   -0.0571    0.0000 H   0  0  0  0  0  0  0  0  0  0  0  0
    4.9255   -0.0321    0.0000 H   0  0  0  0  0  0  0  0  0  0  0  0
    5.3241   -0.7223    0.0000 H   0  0  0  0  0  0  0  0  0  0  0  0
    6.1467    0.7526    0.0000 H   0  0  0  0  0  0  0  0  0  0  0  0
    5.7482    1.4429    0.0000 H   0  0  0  0  0  0  0  0  0  0  0  0
    4.0595    1.4679    0.0000 H   0  0  0  0  0  0  0  0  0  0  0  0
    4.4580    0.7777    0.0000 H   0  0  0  0  0  0  0  0  0  0  0  0
    4.9992   -4.8297    0.0000 H   0  0  0  0  0  0  0  0  0  0  0  0
    7.8051   -6.4497    0.0000 H   0  0  0  0  0  0  0  0  0  0  0  0
    4.9992   -6.4497    0.0000 H   0  0  0  0  0  0  0  0  0  0  0  0
    6.4021   -7.2597    0.0000 H   0  0  0  0  0  0  0  0  0  0  0  0
    3.2714    2.7565    0.0000 H   0  0  0  0  0  0  0  0  0  0  0  0
    8.6902   -5.6767    0.0000 H   0  0  0  0  0  0  0  0  0  0  0  0
    9.5372   -5.4497    0.0000 H   0  0  0  0  0  0  0  0  0  0  0  0
    9.3102   -4.6028    0.0000 H   0  0  0  0  0  0  0  0  0  0  0  0
    2.3356    4.0372    0.0000 H   0  0  0  0  0  0  0  0  0  0  0  0
    3.6534    6.9971    0.0000 H   0  0  0  0  0  0  0  0  0  0  0  0
    1.3834    5.3478    0.0000 H   0  0  0  0  0  0  0  0  0  0  0  0
    2.0423    6.8277    0.0000 H   0  0  0  0  0  0  0  0  0  0  0  0
    5.9567    6.3876    0.0000 H   0  0  0  0  0  0  0  0  0  0  0  0
    5.6425    7.2061    0.0000 H   0  0  0  0  0  0  0  0  0  0  0  0
    4.8239    6.8919    0.0000 H   0  0  0  0  0  0  0  0  0  0  0  0
  1 17  1  0  0  0  0
  1 25  1  0  0  0  0
  2 26  1  0  0  0  0
  2 31  1  0  0  0  0
  3  8  1  0  0  0  0
  3  9  1  0  0  0  0
  3 12  1  0  0  0  0
  4 10  1  0  0  0  0
  4 11  1  0  0  0  0
  4 15  1  0  0  0  0
  5  7  1  0  0  0  0
  5 23  1  0  0  0  0
  5 24  1  0  0  0  0
  6  7  2  0  0  0  0
  6 19  1  0  0  0  0
  8 10  1  0  0  0  0
  8 32  1  0  0  0  0
  8 33  1  0  0  0  0
  9 11  1  0  0  0  0
  9 34  1  0  0  0  0
  9 35  1  0  0  0  0
 10 36  1  0  0  0  0
 10 37  1  0  0  0  0
 11 38  1  0  0  0  0
 11 39  1  0  0  0  0
 12 13  1  0  0  0  0
 12 40  1  0  0  0  0
 12 41  1  0  0  0  0
 13 14  1  0  0  0  0
 13 42  1  0  0  0  0
 13 43  1  0  0  0  0
 14 16  1  0  0  0  0
 14 44  1  0  0  0  0
 14 45  1  0  0  0  0
 15 17  1  0  0  0  0
 15 18  2  0  0  0  0
 16 19  1  0  0  0  0
 16 46  1  0  0  0  0
 16 47  1  0  0  0  0
 17 20  2  0  0  0  0
 18 21  1  0  0  0  0
 18 48  1  0  0  0  0
 19 23  2  0  0  0  0
 20 22  1  0  0  0  0
 20 49  1  0  0  0  0
 21 22  2  0  0  0  0
 21 50  1  0  0  0  0
 22 51  1  0  0  0  0
 23 52  1  0  0  0  0
 24 26  1  0  0  0  0
 24 27  2  0  0  0  0
 25 53  1  0  0  0  0
 25 54  1  0  0  0  0
 25 55  1  0  0  0  0
 26 28  2  0  0  0  0
 27 29  1  0  0  0  0
 27 56  1  0  0  0  0
 28 30  1  0  0  0  0
 28 57  1  0  0  0  0
 29 30  2  0  0  0  0
 29 58  1  0  0  0  0
 30 59  1  0  0  0  0
 31 60  1  0  0  0  0
 31 61  1  0  0  0  0
 31 62  1  0  0  0  0
M  END
> <PUBCHEM_COMPOUND_CID>
118719804

> <PUBCHEM_COMPOUND_CANONICALIZED>
1

> <PUBCHEM_CACTVS_COMPLEXITY>
516

> <PUBCHEM_CACTVS_HBOND_ACCEPTOR>
6

> <PUBCHEM_CACTVS_HBOND_DONOR>
0

> <PUBCHEM_CACTVS_ROTATABLE_BOND>
9

> <PUBCHEM_CACTVS_SUBSKEYS>
AAADceB7sAAAAAAAAAAAAAAAAAAAAWAAAAA8YIAAAAAAAAAB0AAAHgAIAAAACAzBlgY+xpMIBACiATRnRACCDCQxsgAYmAA/fIgOZmLEsZuVMChkwBHY6AeQQAAAAAAAAAAAEAAAAAAAAAAgAAAAAAAAAA==

> <PUBCHEM_IUPAC_OPENEYE_NAME>
1-(2-methoxyphenyl)-4-[4-[1-(2-methoxyphenyl)triazol-4-yl]butyl]piperazine

> <PUBCHEM_IUPAC_CAS_NAME>
1-(2-methoxyphenyl)-4-[4-[1-(2-methoxyphenyl)-4-triazolyl]butyl]piperazine

> <PUBCHEM_IUPAC_NAME_MARKUP>
1-(2-methoxyphenyl)-4-[4-[1-(2-methoxyphenyl)triazol-4-yl]butyl]piperazine

> <PUBCHEM_IUPAC_NAME>
1-(2-methoxyphenyl)-4-[4-[1-(2-methoxyphenyl)triazol-4-yl]butyl]piperazine

> <PUBCHEM_IUPAC_SYSTEMATIC_NAME>
1-(2-methoxyphenyl)-4-[4-[1-(2-methoxyphenyl)-1,2,3-triazol-4-yl]butyl]piperazine

> <PUBCHEM_IUPAC_TRADITIONAL_NAME>
1-(2-methoxyphenyl)-4-[4-[1-(2-methoxyphenyl)triazol-4-yl]butyl]piperazine

> <PUBCHEM_IUPAC_INCHI>
InChI=1S/C24H31N5O2/c1-30-23-12-5-3-10-21(23)28-17-15-27(16-18-28)14-8-7-9-20-19-29(26-25-20)22-11-4-6-13-24(22)31-2/h3-6,10-13,19H,7-9,14-18H2,1-2H3

> <PUBCHEM_IUPAC_INCHIKEY>
UCFHTPVUEFOLHG-UHFFFAOYSA-N

> <PUBCHEM_XLOGP3_AA>
3.9

> <PUBCHEM_EXACT_MASS>
421.24777525

> <PUBCHEM_MOLECULAR_FORMULA>
C24H31N5O2

> <PUBCHEM_MOLECULAR_WEIGHT>
421.5

> <PUBCHEM_OPENEYE_CAN_SMILES>
COC1=CC=CC=C1N2CCN(CC2)CCCCC3=CN(N=N3)C4=CC=CC=C4OC

> <PUBCHEM_OPENEYE_ISO_SMILES>
COC1=CC=CC=C1N2CCN(CC2)CCCCC3=CN(N=N3)C4=CC=CC=C4OC

> <PUBCHEM_CACTVS_TPSA>
55.6

> <PUBCHEM_MONOISOTOPIC_WEIGHT>
421.24777525

> <PUBCHEM_TOTAL_CHARGE>
0

> <PUBCHEM_HEAVY_ATOM_COUNT>
31

> <PUBCHEM_ATOM_DEF_STEREO_COUNT>
0

> <PUBCHEM_ATOM_UDEF_STEREO_COUNT>
0

> <PUBCHEM_BOND_DEF_STEREO_COUNT>
0

> <PUBCHEM_BOND_UDEF_STEREO_COUNT>
0

> <PUBCHEM_ISOTOPIC_ATOM_COUNT>
0

> <PUBCHEM_COMPONENT_COUNT>
1

> <PUBCHEM_CACTVS_TAUTO_COUNT>
-1

> <PUBCHEM_COORDINATE_TYPE>
1
5
255

> <PUBCHEM_BONDANNOTATIONS>
15  17  8
15  18  8
17  20  8
18  21  8
19  23  8
20  22  8
21  22  8
24  26  8
24  27  8
26  28  8
27  29  8
28  30  8
29  30  8
5  23  8
5  7  8
6  19  8
6  7  8

$$$$
