137652044
  -OEChem-09292322392D

 65 69  0     0  0  0  0  0  0999 V2000
    4.6660   -3.7327    0.0000 S   0  0  0  0  0  0  0  0  0  0  0  0
    5.6660   -3.7327    0.0000 O   0  0  0  0  0  0  0  0  0  0  0  0
    3.6660   -3.7327    0.0000 O   0  0  0  0  0  0  0  0  0  0  0  0
    4.6660   -2.7327    0.0000 N   0  0  0  0  0  0  0  0  0  0  0  0
    5.5321    1.7673    0.0000 N   0  0  0  0  0  0  0  0  0  0  0  0
    5.5321    3.7673    0.0000 N   0  0  0  0  0  0  0  0  0  0  0  0
    5.5321   -6.2327    0.0000 N   0  0  0  0  0  0  0  0  0  0  0  0
    4.6660   -0.7327    0.0000 C   0  0  0  0  0  0  0  0  0  0  0  0
    5.5321   -1.2327    0.0000 C   0  0  0  0  0  0  0  0  0  0  0  0
    3.8000   -1.2327    0.0000 C   0  0  0  0  0  0  0  0  0  0  0  0
    4.6660    0.2673    0.0000 C   0  0  0  0  0  0  0  0  0  0  0  0
    5.5321   -2.2327    0.0000 C   0  0  0  0  0  0  0  0  0  0  0  0
    3.8000   -2.2327    0.0000 C   0  0  0  0  0  0  0  0  0  0  0  0
    5.5321    0.7673    0.0000 C   0  0  0  0  0  0  0  0  0  0  0  0
    6.3981    2.2673    0.0000 C   0  0  0  0  0  0  0  0  0  0  0  0
    4.6660    2.2673    0.0000 C   0  0  0  0  0  0  0  0  0  0  0  0
    6.3981    3.2673    0.0000 C   0  0  0  0  0  0  0  0  0  0  0  0
    4.6660    3.2673    0.0000 C   0  0  0  0  0  0  0  0  0  0  0  0
    4.6660   -4.7327    0.0000 C   0  0  0  0  0  0  0  0  0  0  0  0
    5.5321    4.7673    0.0000 C   0  0  0  0  0  0  0  0  0  0  0  0
    3.8000   -5.2327    0.0000 C   0  0  0  0  0  0  0  0  0  0  0  0
    5.5321   -5.2327    0.0000 C   0  0  0  0  0  0  0  0  0  0  0  0
    4.6660    5.2673    0.0000 C   0  0  0  0  0  0  0  0  0  0  0  0
    6.3981    5.2673    0.0000 C   0  0  0  0  0  0  0  0  0  0  0  0
    3.8000   -6.2327    0.0000 C   0  0  0  0  0  0  0  0  0  0  0  0
    2.9061   -4.6980    0.0000 C   0  0  0  0  0  0  0  0  0  0  0  0
    4.6660   -6.7327    0.0000 C   0  0  0  0  0  0  0  0  0  0  0  0
    4.6660    6.2673    0.0000 C   0  0  0  0  0  0  0  0  0  0  0  0
    6.3981    6.2673    0.0000 C   0  0  0  0  0  0  0  0  0  0  0  0
    2.9061   -6.7673    0.0000 C   0  0  0  0  0  0  0  0  0  0  0  0
    2.0000   -5.2118    0.0000 C   0  0  0  0  0  0  0  0  0  0  0  0
    5.5321    6.7673    0.0000 C   0  0  0  0  0  0  0  0  0  0  0  0
    2.0000   -6.2535    0.0000 C   0  0  0  0  0  0  0  0  0  0  0  0
    5.2030   -0.4227    0.0000 H   0  0  0  0  0  0  0  0  0  0  0  0
    6.1426   -1.3403    0.0000 H   0  0  0  0  0  0  0  0  0  0  0  0
    5.7441   -0.6501    0.0000 H   0  0  0  0  0  0  0  0  0  0  0  0
    3.5880   -0.6501    0.0000 H   0  0  0  0  0  0  0  0  0  0  0  0
    3.1894   -1.3403    0.0000 H   0  0  0  0  0  0  0  0  0  0  0  0
    4.4540    0.8499    0.0000 H   0  0  0  0  0  0  0  0  0  0  0  0
    4.0555    0.1597    0.0000 H   0  0  0  0  0  0  0  0  0  0  0  0
    5.7441   -2.8153    0.0000 H   0  0  0  0  0  0  0  0  0  0  0  0
    6.1426   -2.1250    0.0000 H   0  0  0  0  0  0  0  0  0  0  0  0
    3.1894   -2.1250    0.0000 H   0  0  0  0  0  0  0  0  0  0  0  0
    3.5880   -2.8153    0.0000 H   0  0  0  0  0  0  0  0  0  0  0  0
    5.7441    0.1847    0.0000 H   0  0  0  0  0  0  0  0  0  0  0  0
    6.1426    0.8750    0.0000 H   0  0  0  0  0  0  0  0  0  0  0  0
    6.6101    1.6847    0.0000 H   0  0  0  0  0  0  0  0  0  0  0  0
    7.0087    2.3750    0.0000 H   0  0  0  0  0  0  0  0  0  0  0  0
    4.0555    2.3750    0.0000 H   0  0  0  0  0  0  0  0  0  0  0  0
    4.4540    1.6847    0.0000 H   0  0  0  0  0  0  0  0  0  0  0  0
    7.0087    3.1597    0.0000 H   0  0  0  0  0  0  0  0  0  0  0  0
    6.6101    3.8499    0.0000 H   0  0  0  0  0  0  0  0  0  0  0  0
    4.4540    3.8499    0.0000 H   0  0  0  0  0  0  0  0  0  0  0  0
    4.0555    3.1597    0.0000 H   0  0  0  0  0  0  0  0  0  0  0  0
    6.0690   -4.9227    0.0000 H   0  0  0  0  0  0  0  0  0  0  0  0
    4.1291    4.9573    0.0000 H   0  0  0  0  0  0  0  0  0  0  0  0
    6.9350    4.9573    0.0000 H   0  0  0  0  0  0  0  0  0  0  0  0
    2.9132   -4.0780    0.0000 H   0  0  0  0  0  0  0  0  0  0  0  0
    4.6660   -7.3527    0.0000 H   0  0  0  0  0  0  0  0  0  0  0  0
    4.1291    6.5773    0.0000 H   0  0  0  0  0  0  0  0  0  0  0  0
    6.9350    6.5773    0.0000 H   0  0  0  0  0  0  0  0  0  0  0  0
    2.9132   -7.3873    0.0000 H   0  0  0  0  0  0  0  0  0  0  0  0
    1.4643   -4.8998    0.0000 H   0  0  0  0  0  0  0  0  0  0  0  0
    5.5321    7.3873    0.0000 H   0  0  0  0  0  0  0  0  0  0  0  0
    1.4643   -6.5656    0.0000 H   0  0  0  0  0  0  0  0  0  0  0  0
  1  2  2  0  0  0  0
  1  3  2  0  0  0  0
  1  4  1  0  0  0  0
  1 19  1  0  0  0  0
  4 12  1  0  0  0  0
  4 13  1  0  0  0  0
  5 14  1  0  0  0  0
  5 15  1  0  0  0  0
  5 16  1  0  0  0  0
  6 17  1  0  0  0  0
  6 18  1  0  0  0  0
  6 20  1  0  0  0  0
  7 22  1  0  0  0  0
  7 27  2  0  0  0  0
  8  9  1  0  0  0  0
  8 10  1  0  0  0  0
  8 11  1  0  0  0  0
  8 34  1  0  0  0  0
  9 12  1  0  0  0  0
  9 35  1  0  0  0  0
  9 36  1  0  0  0  0
 10 13  1  0  0  0  0
 10 37  1  0  0  0  0
 10 38  1  0  0  0  0
 11 14  1  0  0  0  0
 11 39  1  0  0  0  0
 11 40  1  0  0  0  0
 12 41  1  0  0  0  0
 12 42  1  0  0  0  0
 13 43  1  0  0  0  0
 13 44  1  0  0  0  0
 14 45  1  0  0  0  0
 14 46  1  0  0  0  0
 15 17  1  0  0  0  0
 15 47  1  0  0  0  0
 15 48  1  0  0  0  0
 16 18  1  0  0  0  0
 16 49  1  0  0  0  0
 16 50  1  0  0  0  0
 17 51  1  0  0  0  0
 17 52  1  0  0  0  0
 18 53  1  0  0  0  0
 18 54  1  0  0  0  0
 19 21  1  0  0  0  0
 19 22  2  0  0  0  0
 20 23  2  0  0  0  0
 20 24  1  0  0  0  0
 21 25  1  0  0  0  0
 21 26  2  0  0  0  0
 22 55  1  0  0  0  0
 23 28  1  0  0  0  0
 23 56  1  0  0  0  0
 24 29  2  0  0  0  0
 24 57  1  0  0  0  0
 25 27  1  0  0  0  0
 25 30  2  0  0  0  0
 26 31  1  0  0  0  0
 26 58  1  0  0  0  0
 27 59  1  0  0  0  0
 28 32  2  0  0  0  0
 28 60  1  0  0  0  0
 29 32  1  0  0  0  0
 29 61  1  0  0  0  0
 30 33  1  0  0  0  0
 30 62  1  0  0  0  0
 31 33  2  0  0  0  0
 31 63  1  0  0  0  0
 32 64  1  0  0  0  0
 33 65  1  0  0  0  0
M  END
> <PUBCHEM_COMPOUND_CID>
137652044

> <PUBCHEM_COMPOUND_CANONICALIZED>
1

> <PUBCHEM_CACTVS_COMPLEXITY>
704

> <PUBCHEM_CACTVS_HBOND_ACCEPTOR>
6

> <PUBCHEM_CACTVS_HBOND_DONOR>
0

> <PUBCHEM_CACTVS_ROTATABLE_BOND>
6

> <PUBCHEM_CACTVS_SUBSKEYS>
AAADcfB7sABAAAAAAAAAAAAAAAAAAAAAAAA8eLECAAAAAACx9AAAHAQAQAAADQjBWgQ8wdMIEAKgAjRnRHDCgDAxAiAI2DwoZJgIYOLAkZGUIAhggADIyAcQgIAOgAAAAAAQAAAAAAAAACAAAAAAAAAAAA==

> <PUBCHEM_IUPAC_OPENEYE_NAME>
4-[[4-[2-(4-phenylpiperazin-1-yl)ethyl]-1-piperidyl]sulfonyl]isoquinoline

> <PUBCHEM_IUPAC_CAS_NAME>
4-[[4-[2-(4-phenyl-1-piperazinyl)ethyl]-1-piperidinyl]sulfonyl]isoquinoline

> <PUBCHEM_IUPAC_NAME_MARKUP>
4-[4-[2-(4-phenylpiperazin-1-yl)ethyl]piperidin-1-yl]sulfonylisoquinoline

> <PUBCHEM_IUPAC_NAME>
4-[4-[2-(4-phenylpiperazin-1-yl)ethyl]piperidin-1-yl]sulfonylisoquinoline

> <PUBCHEM_IUPAC_SYSTEMATIC_NAME>
4-[4-[2-(4-phenylpiperazin-1-yl)ethyl]piperidin-1-yl]sulfonylisoquinoline

> <PUBCHEM_IUPAC_TRADITIONAL_NAME>
4-[4-[2-(4-phenylpiperazino)ethyl]piperidino]sulfonylisoquinoline

> <PUBCHEM_IUPAC_INCHI>
InChI=1S/C26H32N4O2S/c31-33(32,26-21-27-20-23-6-4-5-9-25(23)26)30-14-11-22(12-15-30)10-13-28-16-18-29(19-17-28)24-7-2-1-3-8-24/h1-9,20-22H,10-19H2

> <PUBCHEM_IUPAC_INCHIKEY>
RNDTWASJYWHUOI-UHFFFAOYSA-N

> <PUBCHEM_XLOGP3_AA>
4

> <PUBCHEM_EXACT_MASS>
464.22459745

> <PUBCHEM_MOLECULAR_FORMULA>
C26H32N4O2S

> <PUBCHEM_MOLECULAR_WEIGHT>
464.6

> <PUBCHEM_OPENEYE_CAN_SMILES>
C1CN(CCC1CCN2CCN(CC2)C3=CC=CC=C3)S(=O)(=O)C4=CN=CC5=CC=CC=C54

> <PUBCHEM_OPENEYE_ISO_SMILES>
C1CN(CCC1CCN2CCN(CC2)C3=CC=CC=C3)S(=O)(=O)C4=CN=CC5=CC=CC=C54

> <PUBCHEM_CACTVS_TPSA>
65.1

> <PUBCHEM_MONOISOTOPIC_WEIGHT>
464.22459745

> <PUBCHEM_TOTAL_CHARGE>
0

> <PUBCHEM_HEAVY_ATOM_COUNT>
33

> <PUBCHEM_ATOM_DEF_STEREO_COUNT>
0

> <PUBCHEM_ATOM_UDEF_STEREO_COUNT>
0

> <PUBCHEM_BOND_DEF_STEREO_COUNT>
0

> <PUBCHEM_BOND_UDEF_STEREO_COUNT>
0

> <PUBCHEM_ISOTOPIC_ATOM_COUNT>
0

> <PUBCHEM_COMPONENT_COUNT>
1

> <PUBCHEM_CACTVS_TAUTO_COUNT>
-1

> <PUBCHEM_COORDINATE_TYPE>
1
5
255

> <PUBCHEM_BONDANNOTATIONS>
19  21  8
19  22  8
20  23  8
20  24  8
21  25  8
21  26  8
23  28  8
24  29  8
25  27  8
25  30  8
26  31  8
28  32  8
29  32  8
30  33  8
31  33  8
7  22  8
7  27  8

$$$$
