44297323
  -OEChem-09292322222D

 63 66  0     1  0  0  0  0  0999 V2000
    3.7320    0.2805    0.0000 S   0  0  0  0  0  0  0  0  0  0  0  0
    2.0000    1.2805    0.0000 F   0  0  0  0  0  0  0  0  0  0  0  0
    2.3660   -0.0855    0.0000 F   0  0  0  0  0  0  0  0  0  0  0  0
    3.3660    1.6465    0.0000 F   0  0  0  0  0  0  0  0  0  0  0  0
    4.5981   -0.2195    0.0000 O   0  0  0  0  0  0  0  0  0  0  0  0
    3.2320   -0.5855    0.0000 O   0  0  0  0  0  0  0  0  0  0  0  0
    4.2320    1.1465    0.0000 O   0  0  0  0  0  0  0  0  0  0  0  0
   14.1961    1.2396    0.0000 O   0  0  0  0  0  0  0  0  0  0  0  0
    8.9962    0.2597    0.0000 N   0  0  3  0  0  0  0  0  0  0  0  0
   13.3243   -0.2570    0.0000 N   0  0  0  0  0  0  0  0  0  0  0  0
   19.4085   -1.8151    0.0000 N   0  0  0  0  0  0  0  0  0  0  0  0
    8.9962    1.3013    0.0000 C   0  0  0  0  0  0  0  0  0  0  0  0
    8.0901   -0.2542    0.0000 C   0  0  0  0  0  0  0  0  0  0  0  0
    8.0901    1.8151    0.0000 C   0  0  0  0  0  0  0  0  0  0  0  0
    9.8602   -0.2437    0.0000 C   0  0  0  0  0  0  0  0  0  0  0  0
    7.1962    0.2805    0.0000 C   0  0  0  0  0  0  0  0  0  0  0  0
    7.1962    1.2805    0.0000 C   0  0  0  0  0  0  0  0  0  0  0  0
   10.7282    0.2530    0.0000 C   0  0  0  0  0  0  0  0  0  0  0  0
   11.5923   -0.2503    0.0000 C   0  0  0  0  0  0  0  0  0  0  0  0
    6.3301   -0.2195    0.0000 C   0  0  0  0  0  0  0  0  0  0  0  0
    6.3301    1.7805    0.0000 C   0  0  0  0  0  0  0  0  0  0  0  0
    5.4641    0.2805    0.0000 C   0  0  0  0  0  0  0  0  0  0  0  0
   12.4602    0.2463    0.0000 C   0  0  0  0  0  0  0  0  0  0  0  0
    5.4641    1.2805    0.0000 C   0  0  0  0  0  0  0  0  0  0  0  0
   14.1923    0.2396    0.0000 C   0  0  0  0  0  0  0  0  0  0  0  0
    2.8660    0.7805    0.0000 C   0  0  0  0  0  0  0  0  0  0  0  0
   15.0564   -0.2637    0.0000 C   0  0  0  0  0  0  0  0  0  0  0  0
   15.9243    0.2330    0.0000 C   0  0  0  0  0  0  0  0  0  0  0  0
   16.7884   -0.2704    0.0000 C   0  0  0  0  0  0  0  0  0  0  0  0
   18.5204   -0.2770    0.0000 C   0  0  0  0  0  0  0  0  0  0  0  0
   17.6564    0.2263    0.0000 C   0  0  0  0  0  0  0  0  0  0  0  0
   16.7845   -1.2704    0.0000 C   0  0  0  0  0  0  0  0  0  0  0  0
   18.5166   -1.2770    0.0000 C   0  0  0  0  0  0  0  0  0  0  0  0
   17.6486   -1.7737    0.0000 C   0  0  0  0  0  0  0  0  0  0  0  0
   19.4164    0.2542    0.0000 C   0  0  0  0  0  0  0  0  0  0  0  0
   20.3205   -0.2632    0.0000 C   0  0  0  0  0  0  0  0  0  0  0  0
   20.3165   -1.3048    0.0000 C   0  0  0  0  0  0  0  0  0  0  0  0
    9.6070    1.1952    0.0000 H   0  0  0  0  0  0  0  0  0  0  0  0
    9.2052    1.8850    0.0000 H   0  0  0  0  0  0  0  0  0  0  0  0
    7.6855   -0.7240    0.0000 H   0  0  0  0  0  0  0  0  0  0  0  0
    8.4837   -0.7332    0.0000 H   0  0  0  0  0  0  0  0  0  0  0  0
    8.4837    2.2942    0.0000 H   0  0  0  0  0  0  0  0  0  0  0  0
    7.6855    2.2849    0.0000 H   0  0  0  0  0  0  0  0  0  0  0  0
    9.4599   -0.7171    0.0000 H   0  0  0  0  0  0  0  0  0  0  0  0
   10.2569   -0.7201    0.0000 H   0  0  0  0  0  0  0  0  0  0  0  0
   11.1286    0.7264    0.0000 H   0  0  0  0  0  0  0  0  0  0  0  0
   10.3315    0.7295    0.0000 H   0  0  0  0  0  0  0  0  0  0  0  0
   11.1919   -0.7238    0.0000 H   0  0  0  0  0  0  0  0  0  0  0  0
   11.9890   -0.7268    0.0000 H   0  0  0  0  0  0  0  0  0  0  0  0
    6.3301   -0.8395    0.0000 H   0  0  0  0  0  0  0  0  0  0  0  0
    6.3301    2.4005    0.0000 H   0  0  0  0  0  0  0  0  0  0  0  0
   12.8606    0.7197    0.0000 H   0  0  0  0  0  0  0  0  0  0  0  0
   12.0635    0.7228    0.0000 H   0  0  0  0  0  0  0  0  0  0  0  0
    4.9272    1.5905    0.0000 H   0  0  0  0  0  0  0  0  0  0  0  0
   13.3219   -0.8770    0.0000 H   0  0  0  0  0  0  0  0  0  0  0  0
   15.0540   -0.8837    0.0000 H   0  0  0  0  0  0  0  0  0  0  0  0
   15.9267    0.8530    0.0000 H   0  0  0  0  0  0  0  0  0  0  0  0
   17.6587    0.8463    0.0000 H   0  0  0  0  0  0  0  0  0  0  0  0
   16.2464   -1.5783    0.0000 H   0  0  0  0  0  0  0  0  0  0  0  0
   17.6463   -2.3937    0.0000 H   0  0  0  0  0  0  0  0  0  0  0  0
   19.4117    0.8741    0.0000 H   0  0  0  0  0  0  0  0  0  0  0  0
   20.8575    0.0468    0.0000 H   0  0  0  0  0  0  0  0  0  0  0  0
   20.8510   -1.6189    0.0000 H   0  0  0  0  0  0  0  0  0  0  0  0
  1  5  1  0  0  0  0
  1  6  2  0  0  0  0
  1  7  2  0  0  0  0
  1 26  1  0  0  0  0
  2 26  1  0  0  0  0
  3 26  1  0  0  0  0
  4 26  1  0  0  0  0
  5 22  1  0  0  0  0
  8 25  2  0  0  0  0
  9 12  1  0  0  0  0
  9 13  1  0  0  0  0
  9 15  1  0  0  0  0
 10 23  1  0  0  0  0
 10 25  1  0  0  0  0
 10 55  1  0  0  0  0
 11 33  1  0  0  0  0
 11 37  2  0  0  0  0
 12 14  1  0  0  0  0
 12 38  1  0  0  0  0
 12 39  1  0  0  0  0
 13 16  1  0  0  0  0
 13 40  1  0  0  0  0
 13 41  1  0  0  0  0
 14 17  1  0  0  0  0
 14 42  1  0  0  0  0
 14 43  1  0  0  0  0
 15 18  1  0  0  0  0
 15 44  1  0  0  0  0
 15 45  1  0  0  0  0
 16 17  2  0  0  0  0
 16 20  1  0  0  0  0
 17 21  1  0  0  0  0
 18 19  1  0  0  0  0
 18 46  1  0  0  0  0
 18 47  1  0  0  0  0
 19 23  1  0  0  0  0
 19 48  1  0  0  0  0
 19 49  1  0  0  0  0
 20 22  2  0  0  0  0
 20 50  1  0  0  0  0
 21 24  2  0  0  0  0
 21 51  1  0  0  0  0
 22 24  1  0  0  0  0
 23 52  1  0  0  0  0
 23 53  1  0  0  0  0
 24 54  1  0  0  0  0
 25 27  1  0  0  0  0
 27 28  2  0  0  0  0
 27 56  1  0  0  0  0
 28 29  1  0  0  0  0
 28 57  1  0  0  0  0
 29 31  2  0  0  0  0
 29 32  1  0  0  0  0
 30 31  1  0  0  0  0
 30 33  2  0  0  0  0
 30 35  1  0  0  0  0
 31 58  1  0  0  0  0
 32 34  2  0  0  0  0
 32 59  1  0  0  0  0
 33 34  1  0  0  0  0
 34 60  1  0  0  0  0
 35 36  2  0  0  0  0
 35 61  1  0  0  0  0
 36 37  1  0  0  0  0
 36 62  1  0  0  0  0
 37 63  1  0  0  0  0
M  END
> <PUBCHEM_COMPOUND_CID>
44297323

> <PUBCHEM_COMPOUND_CANONICALIZED>
1

> <PUBCHEM_CACTVS_COMPLEXITY>
893

> <PUBCHEM_CACTVS_HBOND_ACCEPTOR>
9

> <PUBCHEM_CACTVS_HBOND_DONOR>
1

> <PUBCHEM_CACTVS_ROTATABLE_BOND>
9

> <PUBCHEM_CACTVS_SUBSKEYS>
AAADceB7OYBAAAAAAAAAAAAAAAAAAAAAAAA8eIEAAAAAAACx9AAAHwQQAAAADAzBnhQ8xvPIEAKoAzV3VHCCgCAxIiAI2KA+bNgIJuLAkZOEMAhk1hHIyYewwNAOqAADAAASAABQAAYAACQAAAAAAAAAAA==

> <PUBCHEM_IUPAC_OPENEYE_NAME>
[2-[4-[[(E)-3-(6-quinolyl)prop-2-enoyl]amino]butyl]-3,4-dihydro-1H-isoquinolin-7-yl] trifluoromethanesulfonate

> <PUBCHEM_IUPAC_CAS_NAME>
trifluoromethanesulfonic acid [2-[4-[[(E)-1-oxo-3-(6-quinolinyl)prop-2-enyl]amino]butyl]-3,4-dihydro-1H-isoquinolin-7-yl] ester

> <PUBCHEM_IUPAC_NAME_MARKUP>
[2-[4-[[(<I>E</I>)-3-quinolin-6-ylprop-2-enoyl]amino]butyl]-3,4-dihydro-1<I>H</I>-isoquinolin-7-yl] trifluoromethanesulfonate

> <PUBCHEM_IUPAC_NAME>
[2-[4-[[(E)-3-quinolin-6-ylprop-2-enoyl]amino]butyl]-3,4-dihydro-1H-isoquinolin-7-yl] trifluoromethanesulfonate

> <PUBCHEM_IUPAC_SYSTEMATIC_NAME>
[2-[4-[[(E)-3-quinolin-6-ylprop-2-enoyl]amino]butyl]-3,4-dihydro-1H-isoquinolin-7-yl] tris(fluoranyl)methanesulfonate

> <PUBCHEM_IUPAC_TRADITIONAL_NAME>
trifluoromethanesulfonic acid [2-[4-[[(E)-3-(6-quinolyl)acryloyl]amino]butyl]-3,4-dihydro-1H-isoquinolin-7-yl] ester

> <PUBCHEM_IUPAC_INCHI>
InChI=1S/C26H26F3N3O4S/c27-26(28,29)37(34,35)36-23-8-7-20-11-15-32(18-22(20)17-23)14-2-1-12-31-25(33)10-6-19-5-9-24-21(16-19)4-3-13-30-24/h3-10,13,16-17H,1-2,11-12,14-15,18H2,(H,31,33)/b10-6+

> <PUBCHEM_IUPAC_INCHIKEY>
PCVICCVMMOFTLF-UXBLZVDNSA-N

> <PUBCHEM_XLOGP3_AA>
4.9

> <PUBCHEM_EXACT_MASS>
533.15961198

> <PUBCHEM_MOLECULAR_FORMULA>
C26H26F3N3O4S

> <PUBCHEM_MOLECULAR_WEIGHT>
533.6

> <PUBCHEM_OPENEYE_CAN_SMILES>
C1CN(CC2=C1C=CC(=C2)OS(=O)(=O)C(F)(F)F)CCCCNC(=O)C=CC3=CC4=C(C=C3)N=CC=C4

> <PUBCHEM_OPENEYE_ISO_SMILES>
C1CN(CC2=C1C=CC(=C2)OS(=O)(=O)C(F)(F)F)CCCCNC(=O)/C=C/C3=CC4=C(C=C3)N=CC=C4

> <PUBCHEM_CACTVS_TPSA>
97

> <PUBCHEM_MONOISOTOPIC_WEIGHT>
533.15961198

> <PUBCHEM_TOTAL_CHARGE>
0

> <PUBCHEM_HEAVY_ATOM_COUNT>
37

> <PUBCHEM_ATOM_DEF_STEREO_COUNT>
0

> <PUBCHEM_ATOM_UDEF_STEREO_COUNT>
0

> <PUBCHEM_BOND_DEF_STEREO_COUNT>
1

> <PUBCHEM_BOND_UDEF_STEREO_COUNT>
0

> <PUBCHEM_ISOTOPIC_ATOM_COUNT>
0

> <PUBCHEM_COMPONENT_COUNT>
1

> <PUBCHEM_CACTVS_TAUTO_COUNT>
-1

> <PUBCHEM_COORDINATE_TYPE>
1
5
255

> <PUBCHEM_BONDANNOTATIONS>
11  33  8
11  37  8
16  17  8
16  20  8
17  21  8
20  22  8
21  24  8
22  24  8
29  31  8
29  32  8
30  31  8
30  33  8
30  35  8
32  34  8
33  34  8
35  36  8
36  37  8

$$$$
