9865858
  -OEChem-09292322102D

 55 58  0     1  0  0  0  0  0999 V2000
    2.0000   -1.7568    0.0000 Cl  0  0  0  0  0  0  0  0  0  0  0  0
    5.5301   -1.7327    0.0000 O   0  0  0  0  0  0  0  0  0  0  0  0
    5.5301    0.2673    0.0000 O   0  0  0  0  0  0  0  0  0  0  0  0
   13.3244   -1.2327    0.0000 O   0  0  0  0  0  0  0  0  0  0  0  0
   11.5923   -0.2327    0.0000 N   0  0  0  0  0  0  0  0  0  0  0  0
    8.1282   -1.2327    0.0000 N   0  0  0  0  0  0  0  0  0  0  0  0
    9.8602   -1.2327    0.0000 C   0  0  0  0  0  0  0  0  0  0  0  0
    9.8602   -0.2327    0.0000 C   0  0  0  0  0  0  0  0  0  0  0  0
   10.7263   -1.7327    0.0000 C   0  0  0  0  0  0  0  0  0  0  0  0
   10.7263    0.2673    0.0000 C   0  0  0  0  0  0  0  0  0  0  0  0
   11.5923   -1.2327    0.0000 C   0  0  0  0  0  0  0  0  0  0  0  0
    8.9942   -1.7327    0.0000 C   0  0  0  0  0  0  0  0  0  0  0  0
   12.4583    0.2673    0.0000 C   0  0  0  0  0  0  0  0  0  0  0  0
    7.2622   -1.7327    0.0000 C   0  0  0  0  0  0  0  0  0  0  0  0
    6.3961   -1.2327    0.0000 C   0  0  3  0  0  0  0  0  0  0  0  0
   13.3244   -0.2327    0.0000 C   0  0  0  0  0  0  0  0  0  0  0  0
   12.4583    1.2673    0.0000 C   0  0  0  0  0  0  0  0  0  0  0  0
    6.3961   -0.2327    0.0000 C   0  0  0  0  0  0  0  0  0  0  0  0
   14.1904    0.2673    0.0000 C   0  0  0  0  0  0  0  0  0  0  0  0
   13.3244    1.7673    0.0000 C   0  0  0  0  0  0  0  0  0  0  0  0
    4.6641   -1.2327    0.0000 C   0  0  0  0  0  0  0  0  0  0  0  0
    4.6641   -0.2327    0.0000 C   0  0  0  0  0  0  0  0  0  0  0  0
   14.1904    1.2673    0.0000 C   0  0  0  0  0  0  0  0  0  0  0  0
    3.7702   -1.7673    0.0000 C   0  0  0  0  0  0  0  0  0  0  0  0
    3.7702    0.3020    0.0000 C   0  0  0  0  0  0  0  0  0  0  0  0
   14.1904   -1.7327    0.0000 C   0  0  0  0  0  0  0  0  0  0  0  0
    2.8641   -1.2535    0.0000 C   0  0  0  0  0  0  0  0  0  0  0  0
    2.8641   -0.2119    0.0000 C   0  0  0  0  0  0  0  0  0  0  0  0
    9.8602   -1.8527    0.0000 H   0  0  0  0  0  0  0  0  0  0  0  0
    9.6482    0.3499    0.0000 H   0  0  0  0  0  0  0  0  0  0  0  0
    9.2497   -0.3403    0.0000 H   0  0  0  0  0  0  0  0  0  0  0  0
   10.3278   -2.2076    0.0000 H   0  0  0  0  0  0  0  0  0  0  0  0
   11.1248   -2.2076    0.0000 H   0  0  0  0  0  0  0  0  0  0  0  0
   11.1248    0.7423    0.0000 H   0  0  0  0  0  0  0  0  0  0  0  0
   10.3278    0.7423    0.0000 H   0  0  0  0  0  0  0  0  0  0  0  0
   11.8044   -1.8153    0.0000 H   0  0  0  0  0  0  0  0  0  0  0  0
   12.2029   -1.1250    0.0000 H   0  0  0  0  0  0  0  0  0  0  0  0
    8.5957   -2.2076    0.0000 H   0  0  0  0  0  0  0  0  0  0  0  0
    9.3928   -2.2076    0.0000 H   0  0  0  0  0  0  0  0  0  0  0  0
    8.1282   -0.6127    0.0000 H   0  0  0  0  0  0  0  0  0  0  0  0
    6.8636   -2.2076    0.0000 H   0  0  0  0  0  0  0  0  0  0  0  0
    7.6607   -2.2076    0.0000 H   0  0  0  0  0  0  0  0  0  0  0  0
    6.3961   -1.8527    0.0000 H   0  0  0  0  0  0  0  0  0  0  0  0
   11.9214    1.5773    0.0000 H   0  0  0  0  0  0  0  0  0  0  0  0
    7.0067   -0.3403    0.0000 H   0  0  0  0  0  0  0  0  0  0  0  0
    6.6082    0.3499    0.0000 H   0  0  0  0  0  0  0  0  0  0  0  0
   14.7273   -0.0427    0.0000 H   0  0  0  0  0  0  0  0  0  0  0  0
   13.3244    2.3873    0.0000 H   0  0  0  0  0  0  0  0  0  0  0  0
   14.7273    1.5773    0.0000 H   0  0  0  0  0  0  0  0  0  0  0  0
    3.7773   -2.3873    0.0000 H   0  0  0  0  0  0  0  0  0  0  0  0
    3.7773    0.9220    0.0000 H   0  0  0  0  0  0  0  0  0  0  0  0
   13.8804   -2.2696    0.0000 H   0  0  0  0  0  0  0  0  0  0  0  0
   14.7273   -2.0427    0.0000 H   0  0  0  0  0  0  0  0  0  0  0  0
   14.5004   -1.1957    0.0000 H   0  0  0  0  0  0  0  0  0  0  0  0
    2.3284    0.1002    0.0000 H   0  0  0  0  0  0  0  0  0  0  0  0
  1 27  1  0  0  0  0
  2 15  1  0  0  0  0
  2 21  1  0  0  0  0
  3 18  1  0  0  0  0
  3 22  1  0  0  0  0
  4 16  1  0  0  0  0
  4 26  1  0  0  0  0
  5 10  1  0  0  0  0
  5 11  1  0  0  0  0
  5 13  1  0  0  0  0
  6 12  1  0  0  0  0
  6 14  1  0  0  0  0
  6 40  1  0  0  0  0
  7  8  1  0  0  0  0
  7  9  1  0  0  0  0
  7 12  1  0  0  0  0
  7 29  1  0  0  0  0
  8 10  1  0  0  0  0
  8 30  1  0  0  0  0
  8 31  1  0  0  0  0
  9 11  1  0  0  0  0
  9 32  1  0  0  0  0
  9 33  1  0  0  0  0
 10 34  1  0  0  0  0
 10 35  1  0  0  0  0
 11 36  1  0  0  0  0
 11 37  1  0  0  0  0
 12 38  1  0  0  0  0
 12 39  1  0  0  0  0
 13 16  1  0  0  0  0
 13 17  2  0  0  0  0
 14 15  1  0  0  0  0
 14 41  1  0  0  0  0
 14 42  1  0  0  0  0
 15 18  1  0  0  0  0
 15 43  1  0  0  0  0
 16 19  2  0  0  0  0
 17 20  1  0  0  0  0
 17 44  1  0  0  0  0
 18 45  1  0  0  0  0
 18 46  1  0  0  0  0
 19 23  1  0  0  0  0
 19 47  1  0  0  0  0
 20 23  2  0  0  0  0
 20 48  1  0  0  0  0
 21 22  2  0  0  0  0
 21 24  1  0  0  0  0
 22 25  1  0  0  0  0
 23 49  1  0  0  0  0
 24 27  2  0  0  0  0
 24 50  1  0  0  0  0
 25 28  2  0  0  0  0
 25 51  1  0  0  0  0
 26 52  1  0  0  0  0
 26 53  1  0  0  0  0
 26 54  1  0  0  0  0
 27 28  1  0  0  0  0
 28 55  1  0  0  0  0
M  END
> <PUBCHEM_COMPOUND_CID>
9865858

> <PUBCHEM_COMPOUND_CANONICALIZED>
1

> <PUBCHEM_CACTVS_COMPLEXITY>
475

> <PUBCHEM_CACTVS_HBOND_ACCEPTOR>
5

> <PUBCHEM_CACTVS_HBOND_DONOR>
1

> <PUBCHEM_CACTVS_ROTATABLE_BOND>
6

> <PUBCHEM_CACTVS_SUBSKEYS>
AAADceB7MAAEAAAAAAAAAAAAAAAAAAAAAAA8aIEAAAAAAACRQAAAHgIQAAAADR7hkCYyxoPABACAACRCQACCCAAhJwAIiIAP7ogPJiLFs5uHOCrm0BHa6AeQQAAKACAAAQAAUAAAQAACAACgAAAAAAAAAA==

> <PUBCHEM_IUPAC_OPENEYE_NAME>
N-[(6-chloro-2,3-dihydro-1,4-benzodioxin-3-yl)methyl]-1-[1-(2-methoxyphenyl)-4-piperidyl]methanamine

> <PUBCHEM_IUPAC_CAS_NAME>
N-[(6-chloro-2,3-dihydro-1,4-benzodioxin-3-yl)methyl]-1-[1-(2-methoxyphenyl)-4-piperidinyl]methanamine

> <PUBCHEM_IUPAC_NAME_MARKUP>
<I>N</I>-[(6-chloro-2,3-dihydro-1,4-benzodioxin-3-yl)methyl]-1-[1-(2-methoxyphenyl)piperidin-4-yl]methanamine

> <PUBCHEM_IUPAC_NAME>
N-[(6-chloro-2,3-dihydro-1,4-benzodioxin-3-yl)methyl]-1-[1-(2-methoxyphenyl)piperidin-4-yl]methanamine

> <PUBCHEM_IUPAC_SYSTEMATIC_NAME>
N-[(6-chloranyl-2,3-dihydro-1,4-benzodioxin-3-yl)methyl]-1-[1-(2-methoxyphenyl)piperidin-4-yl]methanamine

> <PUBCHEM_IUPAC_TRADITIONAL_NAME>
(6-chloro-2,3-dihydro-1,4-benzodioxin-3-yl)methyl-[[1-(2-methoxyphenyl)-4-piperidyl]methyl]amine

> <PUBCHEM_IUPAC_INCHI>
InChI=1S/C22H27ClN2O3/c1-26-20-5-3-2-4-19(20)25-10-8-16(9-11-25)13-24-14-18-15-27-21-7-6-17(23)12-22(21)28-18/h2-7,12,16,18,24H,8-11,13-15H2,1H3

> <PUBCHEM_IUPAC_INCHIKEY>
QHLRKDSRGUZHSH-UHFFFAOYSA-N

> <PUBCHEM_XLOGP3_AA>
4.4

> <PUBCHEM_EXACT_MASS>
402.1710204

> <PUBCHEM_MOLECULAR_FORMULA>
C22H27ClN2O3

> <PUBCHEM_MOLECULAR_WEIGHT>
402.9

> <PUBCHEM_OPENEYE_CAN_SMILES>
COC1=CC=CC=C1N2CCC(CC2)CNCC3COC4=C(O3)C=C(C=C4)Cl

> <PUBCHEM_OPENEYE_ISO_SMILES>
COC1=CC=CC=C1N2CCC(CC2)CNCC3COC4=C(O3)C=C(C=C4)Cl

> <PUBCHEM_CACTVS_TPSA>
43

> <PUBCHEM_MONOISOTOPIC_WEIGHT>
402.1710204

> <PUBCHEM_TOTAL_CHARGE>
0

> <PUBCHEM_HEAVY_ATOM_COUNT>
28

> <PUBCHEM_ATOM_DEF_STEREO_COUNT>
0

> <PUBCHEM_ATOM_UDEF_STEREO_COUNT>
1

> <PUBCHEM_BOND_DEF_STEREO_COUNT>
0

> <PUBCHEM_BOND_UDEF_STEREO_COUNT>
0

> <PUBCHEM_ISOTOPIC_ATOM_COUNT>
0

> <PUBCHEM_COMPONENT_COUNT>
1

> <PUBCHEM_CACTVS_TAUTO_COUNT>
-1

> <PUBCHEM_COORDINATE_TYPE>
1
5
255

> <PUBCHEM_BONDANNOTATIONS>
13  16  8
13  17  8
15  14  3
16  19  8
17  20  8
19  23  8
20  23  8
21  22  8
21  24  8
22  25  8
24  27  8
25  28  8
27  28  8

$$$$
