44627351
  -OEChem-09292322302D

 56 60  0     1  0  0  0  0  0999 V2000
    6.8867   -2.7115    0.0000 S   0  0  0  0  0  0  0  0  0  0  0  0
   11.4255    3.5205    0.0000 F   0  0  0  0  0  0  0  0  0  0  0  0
   14.0236    3.0205    0.0000 F   0  0  0  0  0  0  0  0  0  0  0  0
   13.6576    1.6545    0.0000 F   0  0  0  0  0  0  0  0  0  0  0  0
   12.6576    3.3866    0.0000 F   0  0  0  0  0  0  0  0  0  0  0  0
    2.5878   -1.9328    0.0000 O   0  0  0  0  0  0  0  0  0  0  0  0
    9.8867   -0.9795    0.0000 N   0  0  3  0  0  0  0  0  0  0  0  0
    5.2989   -1.9025    0.0000 N   0  0  0  0  0  0  0  0  0  0  0  0
    5.2989   -3.5205    0.0000 N   0  0  0  0  0  0  0  0  0  0  0  0
    4.3479   -3.2115    0.0000 N   0  0  0  0  0  0  0  0  0  0  0  0
    2.5878   -0.3147    0.0000 N   0  0  0  0  0  0  0  0  0  0  0  0
   11.4255   -0.4795    0.0000 C   0  0  3  0  0  0  0  0  0  0  0  0
   11.4255   -1.4795    0.0000 C   0  0  3  0  0  0  0  0  0  0  0  0
   12.2921   -0.9795    0.0000 C   0  0  0  0  0  0  0  0  0  0  0  0
   10.4745   -0.1704    0.0000 C   0  0  0  0  0  0  0  0  0  0  0  0
   10.4745   -1.7885    0.0000 C   0  0  0  0  0  0  0  0  0  0  0  0
   11.4255    0.5205    0.0000 C   0  0  0  0  0  0  0  0  0  0  0  0
    8.8867   -0.9795    0.0000 C   0  0  0  0  0  0  0  0  0  0  0  0
   12.2916    1.0205    0.0000 C   0  0  0  0  0  0  0  0  0  0  0  0
   10.5595    1.0205    0.0000 C   0  0  0  0  0  0  0  0  0  0  0  0
    8.3867   -1.8455    0.0000 C   0  0  0  0  0  0  0  0  0  0  0  0
   12.2916    2.0205    0.0000 C   0  0  0  0  0  0  0  0  0  0  0  0
   10.5595    2.0205    0.0000 C   0  0  0  0  0  0  0  0  0  0  0  0
   11.4255    2.5205    0.0000 C   0  0  0  0  0  0  0  0  0  0  0  0
    7.3867   -1.8455    0.0000 C   0  0  0  0  0  0  0  0  0  0  0  0
   13.1576    2.5205    0.0000 C   0  0  0  0  0  0  0  0  0  0  0  0
    5.8867   -2.7115    0.0000 C   0  0  0  0  0  0  0  0  0  0  0  0
    4.3479   -2.2115    0.0000 C   0  0  0  0  0  0  0  0  0  0  0  0
    5.6079   -0.9514    0.0000 C   0  0  0  0  0  0  0  0  0  0  0  0
    3.5388   -1.6237    0.0000 C   0  0  0  0  0  0  0  0  0  0  0  0
    3.5388   -0.6237    0.0000 C   0  0  0  0  0  0  0  0  0  0  0  0
    4.3479   -0.0359    0.0000 C   0  0  0  0  0  0  0  0  0  0  0  0
    2.0000   -1.1237    0.0000 C   0  0  0  0  0  0  0  0  0  0  0  0
   11.6776   -2.0459    0.0000 H   0  0  0  0  0  0  0  0  0  0  0  0
   12.6906   -1.4544    0.0000 H   0  0  0  0  0  0  0  0  0  0  0  0
   12.6906   -0.5045    0.0000 H   0  0  0  0  0  0  0  0  0  0  0  0
   10.7267    0.3959    0.0000 H   0  0  0  0  0  0  0  0  0  0  0  0
    9.9376    0.1396    0.0000 H   0  0  0  0  0  0  0  0  0  0  0  0
    9.9376   -2.0985    0.0000 H   0  0  0  0  0  0  0  0  0  0  0  0
   10.7267   -2.3549    0.0000 H   0  0  0  0  0  0  0  0  0  0  0  0
    8.9944   -0.3689    0.0000 H   0  0  0  0  0  0  0  0  0  0  0  0
    8.3041   -0.7674    0.0000 H   0  0  0  0  0  0  0  0  0  0  0  0
   12.8285    0.7105    0.0000 H   0  0  0  0  0  0  0  0  0  0  0  0
   10.0226    0.7105    0.0000 H   0  0  0  0  0  0  0  0  0  0  0  0
    8.2790   -2.4561    0.0000 H   0  0  0  0  0  0  0  0  0  0  0  0
    8.9693   -2.0575    0.0000 H   0  0  0  0  0  0  0  0  0  0  0  0
   10.0226    2.3305    0.0000 H   0  0  0  0  0  0  0  0  0  0  0  0
    7.4944   -1.2349    0.0000 H   0  0  0  0  0  0  0  0  0  0  0  0
    6.8041   -1.6334    0.0000 H   0  0  0  0  0  0  0  0  0  0  0  0
    6.1976   -1.1430    0.0000 H   0  0  0  0  0  0  0  0  0  0  0  0
    5.7995   -0.3618    0.0000 H   0  0  0  0  0  0  0  0  0  0  0  0
    5.0183   -0.7599    0.0000 H   0  0  0  0  0  0  0  0  0  0  0  0
    4.7123   -0.5375    0.0000 H   0  0  0  0  0  0  0  0  0  0  0  0
    4.8494    0.3285    0.0000 H   0  0  0  0  0  0  0  0  0  0  0  0
    3.9834    0.4656    0.0000 H   0  0  0  0  0  0  0  0  0  0  0  0
    1.3800   -1.1237    0.0000 H   0  0  0  0  0  0  0  0  0  0  0  0
  1 25  1  0  0  0  0
  1 27  1  0  0  0  0
  2 24  1  0  0  0  0
  3 26  1  0  0  0  0
  4 26  1  0  0  0  0
  5 26  1  0  0  0  0
  6 30  1  0  0  0  0
  6 33  1  0  0  0  0
  7 15  1  0  0  0  0
  7 16  1  0  0  0  0
  7 18  1  0  0  0  0
  8 27  1  0  0  0  0
  8 28  1  0  0  0  0
  8 29  1  0  0  0  0
  9 10  1  0  0  0  0
  9 27  2  0  0  0  0
 10 28  2  0  0  0  0
 11 31  1  0  0  0  0
 11 33  2  0  0  0  0
 12 13  1  0  0  0  0
 12 14  1  0  0  0  0
 12 15  1  0  0  0  0
 12 17  1  0  0  0  0
 13 14  1  0  0  0  0
 13 16  1  0  0  0  0
 13 34  1  0  0  0  0
 14 35  1  0  0  0  0
 14 36  1  0  0  0  0
 15 37  1  0  0  0  0
 15 38  1  0  0  0  0
 16 39  1  0  0  0  0
 16 40  1  0  0  0  0
 17 19  2  0  0  0  0
 17 20  1  0  0  0  0
 18 21  1  0  0  0  0
 18 41  1  0  0  0  0
 18 42  1  0  0  0  0
 19 22  1  0  0  0  0
 19 43  1  0  0  0  0
 20 23  2  0  0  0  0
 20 44  1  0  0  0  0
 21 25  1  0  0  0  0
 21 45  1  0  0  0  0
 21 46  1  0  0  0  0
 22 24  2  0  0  0  0
 22 26  1  0  0  0  0
 23 24  1  0  0  0  0
 23 47  1  0  0  0  0
 25 48  1  0  0  0  0
 25 49  1  0  0  0  0
 28 30  1  0  0  0  0
 29 50  1  0  0  0  0
 29 51  1  0  0  0  0
 29 52  1  0  0  0  0
 30 31  2  0  0  0  0
 31 32  1  0  0  0  0
 32 53  1  0  0  0  0
 32 54  1  0  0  0  0
 32 55  1  0  0  0  0
 33 56  1  0  0  0  0
M  END
> <PUBCHEM_COMPOUND_CID>
44627351

> <PUBCHEM_COMPOUND_CANONICALIZED>
1

> <PUBCHEM_CACTVS_COMPLEXITY>
704

> <PUBCHEM_CACTVS_HBOND_ACCEPTOR>
10

> <PUBCHEM_CACTVS_HBOND_DONOR>
0

> <PUBCHEM_CACTVS_ROTATABLE_BOND>
7

> <PUBCHEM_CACTVS_SUBSKEYS>
AAADceB7ocBAAAAAAAAAAAAAGAAAAWLFgAA8QAAAAAAAAAAB8AAAHwQIAAAADwzF3x63lJcMFEiqA6Zz9ASS2Ct7YLAd2CG9RJiOKCLk2TGNIChgjALYiAcQgMAPgAACAAAAAAAAAAQAAAAAAAAAAAAAAA==

> <PUBCHEM_IUPAC_OPENEYE_NAME>
5-[5-[3-[1-[4-fluoro-3-(trifluoromethyl)phenyl]-3-azabicyclo[3.1.0]hexan-3-yl]propylsulfanyl]-4-methyl-1,2,4-triazol-3-yl]-4-methyl-oxazole

> <PUBCHEM_IUPAC_CAS_NAME>
5-[5-[3-[1-[4-fluoro-3-(trifluoromethyl)phenyl]-3-azabicyclo[3.1.0]hexan-3-yl]propylthio]-4-methyl-1,2,4-triazol-3-yl]-4-methyloxazole

> <PUBCHEM_IUPAC_NAME_MARKUP>
5-[5-[3-[1-[4-fluoro-3-(trifluoromethyl)phenyl]-3-azabicyclo[3.1.0]hexan-3-yl]propylsulfanyl]-4-methyl-1,2,4-triazol-3-yl]-4-methyl-1,3-oxazole

> <PUBCHEM_IUPAC_NAME>
5-[5-[3-[1-[4-fluoro-3-(trifluoromethyl)phenyl]-3-azabicyclo[3.1.0]hexan-3-yl]propylsulfanyl]-4-methyl-1,2,4-triazol-3-yl]-4-methyl-1,3-oxazole

> <PUBCHEM_IUPAC_SYSTEMATIC_NAME>
5-[5-[3-[1-[4-fluoranyl-3-(trifluoromethyl)phenyl]-3-azabicyclo[3.1.0]hexan-3-yl]propylsulfanyl]-4-methyl-1,2,4-triazol-3-yl]-4-methyl-1,3-oxazole

> <PUBCHEM_IUPAC_TRADITIONAL_NAME>
5-[5-[3-[1-[4-fluoro-3-(trifluoromethyl)phenyl]-3-azabicyclo[3.1.0]hexan-3-yl]propylthio]-4-methyl-1,2,4-triazol-3-yl]-4-methyl-oxazole

> <PUBCHEM_IUPAC_INCHI>
InChI=1S/C22H23F4N5OS/c1-13-18(32-12-27-13)19-28-29-20(30(19)2)33-7-3-6-31-10-15-9-21(15,11-31)14-4-5-17(23)16(8-14)22(24,25)26/h4-5,8,12,15H,3,6-7,9-11H2,1-2H3

> <PUBCHEM_IUPAC_INCHIKEY>
BYFBIHGWAJPFIB-UHFFFAOYSA-N

> <PUBCHEM_XLOGP3_AA>
4.1

> <PUBCHEM_EXACT_MASS>
481.15594420

> <PUBCHEM_MOLECULAR_FORMULA>
C22H23F4N5OS

> <PUBCHEM_MOLECULAR_WEIGHT>
481.5

> <PUBCHEM_OPENEYE_CAN_SMILES>
CC1=C(OC=N1)C2=NN=C(N2C)SCCCN3CC4CC4(C3)C5=CC(=C(C=C5)F)C(F)(F)F

> <PUBCHEM_OPENEYE_ISO_SMILES>
CC1=C(OC=N1)C2=NN=C(N2C)SCCCN3CC4CC4(C3)C5=CC(=C(C=C5)F)C(F)(F)F

> <PUBCHEM_CACTVS_TPSA>
85.3

> <PUBCHEM_MONOISOTOPIC_WEIGHT>
481.15594420

> <PUBCHEM_TOTAL_CHARGE>
0

> <PUBCHEM_HEAVY_ATOM_COUNT>
33

> <PUBCHEM_ATOM_DEF_STEREO_COUNT>
0

> <PUBCHEM_ATOM_UDEF_STEREO_COUNT>
2

> <PUBCHEM_BOND_DEF_STEREO_COUNT>
0

> <PUBCHEM_BOND_UDEF_STEREO_COUNT>
0

> <PUBCHEM_ISOTOPIC_ATOM_COUNT>
0

> <PUBCHEM_COMPONENT_COUNT>
1

> <PUBCHEM_CACTVS_TAUTO_COUNT>
-1

> <PUBCHEM_COORDINATE_TYPE>
1
5
255

> <PUBCHEM_BONDANNOTATIONS>
10  28  8
11  31  8
11  33  8
12  17  3
13  14  3
17  19  8
17  20  8
19  22  8
20  23  8
22  24  8
23  24  8
30  31  8
6  30  8
6  33  8
8  27  8
8  28  8
9  10  8
9  27  8

$$$$
