153287553
  -OEChem-09292322462D

 40 43  0     1  0  0  0  0  0999 V2000
    2.5836   -0.8394    0.0000 N   0  0  0  0  0  0  0  0  0  0  0  0
    5.2619   -0.5346    0.0000 N   0  0  0  0  0  0  0  0  0  0  0  0
    3.5298   -0.5346    0.0000 C   0  0  1  0  0  0  0  0  0  0  0  0
    3.5298    0.4654    0.0000 C   0  0  1  0  0  0  0  0  0  0  0  0
    2.5836    0.7701    0.0000 C   0  0  0  0  0  0  0  0  0  0  0  0
    4.3958   -1.0346    0.0000 C   0  0  0  0  0  0  0  0  0  0  0  0
    2.0000   -0.0346    0.0000 C   0  0  0  0  0  0  0  0  0  0  0  0
    4.3958    0.9654    0.0000 C   0  0  0  0  0  0  0  0  0  0  0  0
    3.5298   -1.5346    0.0000 C   0  0  0  0  0  0  0  0  0  0  0  0
    5.2619    0.4654    0.0000 C   0  0  0  0  0  0  0  0  0  0  0  0
    4.3798    2.0069    0.0000 C   0  0  0  0  0  0  0  0  0  0  0  0
    6.1279   -1.0346    0.0000 C   0  0  0  0  0  0  0  0  0  0  0  0
    6.1719    0.9722    0.0000 C   0  0  0  0  0  0  0  0  0  0  0  0
    5.2778    2.5346    0.0000 C   0  0  0  0  0  0  0  0  0  0  0  0
    6.1799    2.0138    0.0000 C   0  0  0  0  0  0  0  0  0  0  0  0
    6.1279   -2.0346    0.0000 C   0  0  0  0  0  0  0  0  0  0  0  0
    6.9939   -0.5346    0.0000 C   0  0  0  0  0  0  0  0  0  0  0  0
    6.9939   -2.5346    0.0000 C   0  0  0  0  0  0  0  0  0  0  0  0
    7.8600   -1.0346    0.0000 C   0  0  0  0  0  0  0  0  0  0  0  0
    7.8600   -2.0346    0.0000 C   0  0  0  0  0  0  0  0  0  0  0  0
    3.4399    1.3106    0.0000 H   0  0  0  0  0  0  0  0  0  0  0  0
    2.8346    1.3370    0.0000 H   0  0  0  0  0  0  0  0  0  0  0  0
    2.0462    1.0793    0.0000 H   0  0  0  0  0  0  0  0  0  0  0  0
    3.9973   -1.5096    0.0000 H   0  0  0  0  0  0  0  0  0  0  0  0
    4.7944   -1.5096    0.0000 H   0  0  0  0  0  0  0  0  0  0  0  0
    2.3910   -1.4287    0.0000 H   0  0  0  0  0  0  0  0  0  0  0  0
    1.5391    0.3801    0.0000 H   0  0  0  0  0  0  0  0  0  0  0  0
    1.5391   -0.4494    0.0000 H   0  0  0  0  0  0  0  0  0  0  0  0
    2.9098   -1.5346    0.0000 H   0  0  0  0  0  0  0  0  0  0  0  0
    3.5298   -2.1546    0.0000 H   0  0  0  0  0  0  0  0  0  0  0  0
    4.1498   -1.5346    0.0000 H   0  0  0  0  0  0  0  0  0  0  0  0
    3.8393    2.3106    0.0000 H   0  0  0  0  0  0  0  0  0  0  0  0
    6.7052    0.6560    0.0000 H   0  0  0  0  0  0  0  0  0  0  0  0
    5.2754    3.1546    0.0000 H   0  0  0  0  0  0  0  0  0  0  0  0
    6.7180    2.3217    0.0000 H   0  0  0  0  0  0  0  0  0  0  0  0
    5.5910   -2.3446    0.0000 H   0  0  0  0  0  0  0  0  0  0  0  0
    6.9939    0.0854    0.0000 H   0  0  0  0  0  0  0  0  0  0  0  0
    6.9939   -3.1546    0.0000 H   0  0  0  0  0  0  0  0  0  0  0  0
    8.3969   -0.7246    0.0000 H   0  0  0  0  0  0  0  0  0  0  0  0
    8.3969   -2.3446    0.0000 H   0  0  0  0  0  0  0  0  0  0  0  0
  1  3  1  0  0  0  0
  1  7  1  0  0  0  0
  1 26  1  0  0  0  0
  2  6  1  0  0  0  0
  2 10  1  0  0  0  0
  2 12  1  0  0  0  0
  3  4  1  0  0  0  0
  3  6  1  0  0  0  0
  3  9  1  6  0  0  0
  4  5  1  0  0  0  0
  4  8  1  0  0  0  0
  4 21  1  6  0  0  0
  5  7  1  0  0  0  0
  5 22  1  0  0  0  0
  5 23  1  0  0  0  0
  6 24  1  0  0  0  0
  6 25  1  0  0  0  0
  7 27  1  0  0  0  0
  7 28  1  0  0  0  0
  8 10  1  0  0  0  0
  8 11  2  0  0  0  0
  9 29  1  0  0  0  0
  9 30  1  0  0  0  0
  9 31  1  0  0  0  0
 10 13  2  0  0  0  0
 11 14  1  0  0  0  0
 11 32  1  0  0  0  0
 12 16  2  0  0  0  0
 12 17  1  0  0  0  0
 13 15  1  0  0  0  0
 13 33  1  0  0  0  0
 14 15  2  0  0  0  0
 14 34  1  0  0  0  0
 15 35  1  0  0  0  0
 16 18  1  0  0  0  0
 16 36  1  0  0  0  0
 17 19  2  0  0  0  0
 17 37  1  0  0  0  0
 18 20  2  0  0  0  0
 18 38  1  0  0  0  0
 19 20  1  0  0  0  0
 19 39  1  0  0  0  0
 20 40  1  0  0  0  0
M  END
> <PUBCHEM_COMPOUND_CID>
153287553

> <PUBCHEM_COMPOUND_CANONICALIZED>
1

> <PUBCHEM_CACTVS_COMPLEXITY>
349

> <PUBCHEM_CACTVS_HBOND_ACCEPTOR>
2

> <PUBCHEM_CACTVS_HBOND_DONOR>
1

> <PUBCHEM_CACTVS_ROTATABLE_BOND>
1

> <PUBCHEM_CACTVS_SUBSKEYS>
AAADceB7AAAAAAAAAAAAAAAAAAAAAWAAAAA8YIAAAAAAAFixQAAAHAAQAAAADYjBGAQywIPAAACAAiRCQACCAAAhAgAIiIAIZIgIYGLAkZGUIAhgkADIyAcQgMAOgAAAAAACAAAAAAAAAAQAAAAAAAAAAA==

> <PUBCHEM_IUPAC_OPENEYE_NAME>
(3aS,9bS)-3a-methyl-5-phenyl-2,3,4,9b-tetrahydro-1H-pyrrolo[2,3-c]quinoline

> <PUBCHEM_IUPAC_CAS_NAME>
(3aS,9bS)-3a-methyl-5-phenyl-2,3,4,9b-tetrahydro-1H-pyrrolo[2,3-c]quinoline

> <PUBCHEM_IUPAC_NAME_MARKUP>
(3<I>a</I><I>S</I>,9<I>b</I><I>S</I>)-3<I>a</I>-methyl-5-phenyl-2,3,4,9<I>b</I>-tetrahydro-1<I>H</I>-pyrrolo[2,3-c]quinoline

> <PUBCHEM_IUPAC_NAME>
(3aS,9bS)-3a-methyl-5-phenyl-2,3,4,9b-tetrahydro-1H-pyrrolo[2,3-c]quinoline

> <PUBCHEM_IUPAC_SYSTEMATIC_NAME>
(3aS,9bS)-3a-methyl-5-phenyl-2,3,4,9b-tetrahydro-1H-pyrrolo[2,3-c]quinoline

> <PUBCHEM_IUPAC_TRADITIONAL_NAME>
(3aS,9bS)-3a-methyl-5-phenyl-2,3,4,9b-tetrahydro-1H-pyrrolo[2,3-c]quinoline

> <PUBCHEM_IUPAC_INCHI>
InChI=1S/C18H20N2/c1-18-13-20(14-7-3-2-4-8-14)17-10-6-5-9-15(17)16(18)11-12-19-18/h2-10,16,19H,11-13H2,1H3/t16-,18+/m0/s1

> <PUBCHEM_IUPAC_INCHIKEY>
OHCPINQLTJGNRS-FUHWJXTLSA-N

> <PUBCHEM_XLOGP3_AA>
3.4

> <PUBCHEM_EXACT_MASS>
264.162648646

> <PUBCHEM_MOLECULAR_FORMULA>
C18H20N2

> <PUBCHEM_MOLECULAR_WEIGHT>
264.4

> <PUBCHEM_OPENEYE_CAN_SMILES>
CC12CN(C3=CC=CC=C3C1CCN2)C4=CC=CC=C4

> <PUBCHEM_OPENEYE_ISO_SMILES>
C[C@@]12CN(C3=CC=CC=C3[C@@H]1CCN2)C4=CC=CC=C4

> <PUBCHEM_CACTVS_TPSA>
15.3

> <PUBCHEM_MONOISOTOPIC_WEIGHT>
264.162648646

> <PUBCHEM_TOTAL_CHARGE>
0

> <PUBCHEM_HEAVY_ATOM_COUNT>
20

> <PUBCHEM_ATOM_DEF_STEREO_COUNT>
2

> <PUBCHEM_ATOM_UDEF_STEREO_COUNT>
0

> <PUBCHEM_BOND_DEF_STEREO_COUNT>
0

> <PUBCHEM_BOND_UDEF_STEREO_COUNT>
0

> <PUBCHEM_ISOTOPIC_ATOM_COUNT>
0

> <PUBCHEM_COMPONENT_COUNT>
1

> <PUBCHEM_CACTVS_TAUTO_COUNT>
-1

> <PUBCHEM_COORDINATE_TYPE>
1
5
255

> <PUBCHEM_BONDANNOTATIONS>
10  13  8
11  14  8
12  16  8
12  17  8
13  15  8
14  15  8
16  18  8
17  19  8
18  20  8
19  20  8
3  9  6
4  21  6
8  10  8
8  11  8

$$$$
