11451022
  -OEChem-09292322342D

 49 52  0     0  0  0  0  0  0999 V2000
    4.6783   -2.1732    0.0000 S   0  0  0  0  0  0  0  0  0  0  0  0
    9.2601   -0.4831    0.0000 O   0  0  0  0  0  0  0  0  0  0  0  0
    5.9674    0.5930    0.0000 N   0  0  0  0  0  0  0  0  0  0  0  0
    7.9244    1.0055    0.0000 N   0  0  0  0  0  0  0  0  0  0  0  0
    6.2781    1.5436    0.0000 C   0  0  0  0  0  0  0  0  0  0  0  0
    6.6353   -0.1513    0.0000 C   0  0  0  0  0  0  0  0  0  0  0  0
    7.2566    1.7498    0.0000 C   0  0  0  0  0  0  0  0  0  0  0  0
    7.6138    0.0550    0.0000 C   0  0  0  0  0  0  0  0  0  0  0  0
    4.9889    0.3868    0.0000 C   0  0  0  0  0  0  0  0  0  0  0  0
    8.9030    1.2117    0.0000 C   0  0  0  0  0  0  0  0  0  0  0  0
    4.6783   -0.5637    0.0000 C   0  0  0  0  0  0  0  0  0  0  0  0
    3.7320   -0.8684    0.0000 C   0  0  0  0  0  0  0  0  0  0  0  0
    9.5708    0.4674    0.0000 C   0  0  0  0  0  0  0  0  0  0  0  0
    9.2136    2.1622    0.0000 C   0  0  0  0  0  0  0  0  0  0  0  0
    5.2619   -1.3684    0.0000 C   0  0  0  0  0  0  0  0  0  0  0  0
    3.7320   -1.8684    0.0000 C   0  0  0  0  0  0  0  0  0  0  0  0
    2.8660   -0.3684    0.0000 C   0  0  0  0  0  0  0  0  0  0  0  0
   10.5493    0.6736    0.0000 C   0  0  0  0  0  0  0  0  0  0  0  0
   10.1921    2.3684    0.0000 C   0  0  0  0  0  0  0  0  0  0  0  0
   10.8600    1.6241    0.0000 C   0  0  0  0  0  0  0  0  0  0  0  0
    2.8660   -2.3684    0.0000 C   0  0  0  0  0  0  0  0  0  0  0  0
    2.0000   -0.8684    0.0000 C   0  0  0  0  0  0  0  0  0  0  0  0
    2.0000   -1.8684    0.0000 C   0  0  0  0  0  0  0  0  0  0  0  0
    9.9280   -1.2274    0.0000 C   0  0  0  0  0  0  0  0  0  0  0  0
    9.6173   -2.1780    0.0000 C   0  0  0  0  0  0  0  0  0  0  0  0
    6.2575    2.1632    0.0000 H   0  0  0  0  0  0  0  0  0  0  0  0
    5.6643    1.6309    0.0000 H   0  0  0  0  0  0  0  0  0  0  0  0
    6.1089   -0.4789    0.0000 H   0  0  0  0  0  0  0  0  0  0  0  0
    6.8665   -0.7265    0.0000 H   0  0  0  0  0  0  0  0  0  0  0  0
    7.7830    2.0774    0.0000 H   0  0  0  0  0  0  0  0  0  0  0  0
    7.0254    2.3250    0.0000 H   0  0  0  0  0  0  0  0  0  0  0  0
    7.6344   -0.5647    0.0000 H   0  0  0  0  0  0  0  0  0  0  0  0
    8.2276   -0.0324    0.0000 H   0  0  0  0  0  0  0  0  0  0  0  0
    4.9684    1.0065    0.0000 H   0  0  0  0  0  0  0  0  0  0  0  0
    4.3751    0.4742    0.0000 H   0  0  0  0  0  0  0  0  0  0  0  0
    8.7996    2.6237    0.0000 H   0  0  0  0  0  0  0  0  0  0  0  0
    5.8819   -1.3684    0.0000 H   0  0  0  0  0  0  0  0  0  0  0  0
    2.8660    0.2516    0.0000 H   0  0  0  0  0  0  0  0  0  0  0  0
   10.9634    0.2121    0.0000 H   0  0  0  0  0  0  0  0  0  0  0  0
   10.3847    2.9578    0.0000 H   0  0  0  0  0  0  0  0  0  0  0  0
   11.4666    1.7520    0.0000 H   0  0  0  0  0  0  0  0  0  0  0  0
    2.8660   -2.9884    0.0000 H   0  0  0  0  0  0  0  0  0  0  0  0
    1.4631   -0.5584    0.0000 H   0  0  0  0  0  0  0  0  0  0  0  0
    1.4631   -2.1784    0.0000 H   0  0  0  0  0  0  0  0  0  0  0  0
   10.4749   -1.5194    0.0000 H   0  0  0  0  0  0  0  0  0  0  0  0
   10.3105   -0.7395    0.0000 H   0  0  0  0  0  0  0  0  0  0  0  0
    9.0280   -1.9853    0.0000 H   0  0  0  0  0  0  0  0  0  0  0  0
    9.4247   -2.7673    0.0000 H   0  0  0  0  0  0  0  0  0  0  0  0
   10.2066   -2.3706    0.0000 H   0  0  0  0  0  0  0  0  0  0  0  0
  1 15  1  0  0  0  0
  1 16  1  0  0  0  0
  2 13  1  0  0  0  0
  2 24  1  0  0  0  0
  3  5  1  0  0  0  0
  3  6  1  0  0  0  0
  3  9  1  0  0  0  0
  4  7  1  0  0  0  0
  4  8  1  0  0  0  0
  4 10  1  0  0  0  0
  5  7  1  0  0  0  0
  5 26  1  0  0  0  0
  5 27  1  0  0  0  0
  6  8  1  0  0  0  0
  6 28  1  0  0  0  0
  6 29  1  0  0  0  0
  7 30  1  0  0  0  0
  7 31  1  0  0  0  0
  8 32  1  0  0  0  0
  8 33  1  0  0  0  0
  9 11  1  0  0  0  0
  9 34  1  0  0  0  0
  9 35  1  0  0  0  0
 10 13  1  0  0  0  0
 10 14  2  0  0  0  0
 11 12  1  0  0  0  0
 11 15  2  0  0  0  0
 12 16  1  0  0  0  0
 12 17  2  0  0  0  0
 13 18  2  0  0  0  0
 14 19  1  0  0  0  0
 14 36  1  0  0  0  0
 15 37  1  0  0  0  0
 16 21  2  0  0  0  0
 17 22  1  0  0  0  0
 17 38  1  0  0  0  0
 18 20  1  0  0  0  0
 18 39  1  0  0  0  0
 19 20  2  0  0  0  0
 19 40  1  0  0  0  0
 20 41  1  0  0  0  0
 21 23  1  0  0  0  0
 21 42  1  0  0  0  0
 22 23  2  0  0  0  0
 22 43  1  0  0  0  0
 23 44  1  0  0  0  0
 24 25  1  0  0  0  0
 24 45  1  0  0  0  0
 24 46  1  0  0  0  0
 25 47  1  0  0  0  0
 25 48  1  0  0  0  0
 25 49  1  0  0  0  0
M  END
> <PUBCHEM_COMPOUND_CID>
11451022

> <PUBCHEM_COMPOUND_CANONICALIZED>
1

> <PUBCHEM_CACTVS_COMPLEXITY>
413

> <PUBCHEM_CACTVS_HBOND_ACCEPTOR>
4

> <PUBCHEM_CACTVS_HBOND_DONOR>
0

> <PUBCHEM_CACTVS_ROTATABLE_BOND>
5

> <PUBCHEM_CACTVS_SUBSKEYS>
AAADceB7IABAAAAAAAAAAAAAAAAAASAAAAA8YIAAAAAAAEgB9AAAHgQAAAAADAzl2Aayx8MABAiEAiRCQACDCIAhKhBIiBgPbIgOZiLksZuXOCjkwBH46AeQwMAOgAAAAAAEEAAAAAAAAAggAAAAAAAAAA==

> <PUBCHEM_IUPAC_OPENEYE_NAME>
1-(benzothiophen-3-ylmethyl)-4-(2-ethoxyphenyl)piperazine

> <PUBCHEM_IUPAC_CAS_NAME>
1-(1-benzothiophen-3-ylmethyl)-4-(2-ethoxyphenyl)piperazine

> <PUBCHEM_IUPAC_NAME_MARKUP>
1-(1-benzothiophen-3-ylmethyl)-4-(2-ethoxyphenyl)piperazine

> <PUBCHEM_IUPAC_NAME>
1-(1-benzothiophen-3-ylmethyl)-4-(2-ethoxyphenyl)piperazine

> <PUBCHEM_IUPAC_SYSTEMATIC_NAME>
1-(1-benzothiophen-3-ylmethyl)-4-(2-ethoxyphenyl)piperazine

> <PUBCHEM_IUPAC_TRADITIONAL_NAME>
1-(benzothiophen-3-ylmethyl)-4-o-phenetyl-piperazine

> <PUBCHEM_IUPAC_INCHI>
InChI=1S/C21H24N2OS/c1-2-24-20-9-5-4-8-19(20)23-13-11-22(12-14-23)15-17-16-25-21-10-6-3-7-18(17)21/h3-10,16H,2,11-15H2,1H3

> <PUBCHEM_IUPAC_INCHIKEY>
IQRVICMQFUJBJE-UHFFFAOYSA-N

> <PUBCHEM_XLOGP3_AA>
4.7

> <PUBCHEM_EXACT_MASS>
352.16093457

> <PUBCHEM_MOLECULAR_FORMULA>
C21H24N2OS

> <PUBCHEM_MOLECULAR_WEIGHT>
352.5

> <PUBCHEM_OPENEYE_CAN_SMILES>
CCOC1=CC=CC=C1N2CCN(CC2)CC3=CSC4=CC=CC=C43

> <PUBCHEM_OPENEYE_ISO_SMILES>
CCOC1=CC=CC=C1N2CCN(CC2)CC3=CSC4=CC=CC=C43

> <PUBCHEM_CACTVS_TPSA>
44

> <PUBCHEM_MONOISOTOPIC_WEIGHT>
352.16093457

> <PUBCHEM_TOTAL_CHARGE>
0

> <PUBCHEM_HEAVY_ATOM_COUNT>
25

> <PUBCHEM_ATOM_DEF_STEREO_COUNT>
0

> <PUBCHEM_ATOM_UDEF_STEREO_COUNT>
0

> <PUBCHEM_BOND_DEF_STEREO_COUNT>
0

> <PUBCHEM_BOND_UDEF_STEREO_COUNT>
0

> <PUBCHEM_ISOTOPIC_ATOM_COUNT>
0

> <PUBCHEM_COMPONENT_COUNT>
1

> <PUBCHEM_CACTVS_TAUTO_COUNT>
-1

> <PUBCHEM_COORDINATE_TYPE>
1
5
255

> <PUBCHEM_BONDANNOTATIONS>
1  15  8
1  16  8
10  13  8
10  14  8
11  12  8
11  15  8
12  16  8
12  17  8
13  18  8
14  19  8
16  21  8
17  22  8
18  20  8
19  20  8
21  23  8
22  23  8

$$$$
