72198756
  -OEChem-09292322072D

 65 69  0     0  0  0  0  0  0999 V2000
   12.8959    0.1795    0.0000 Cl  0  0  0  0  0  0  0  0  0  0  0  0
   10.7729    3.9347    0.0000 O   0  0  0  0  0  0  0  0  0  0  0  0
    3.0000   -2.1507    0.0000 O   0  0  0  0  0  0  0  0  0  0  0  0
    6.0000   -0.4186    0.0000 N   0  0  0  0  0  0  0  0  0  0  0  0
    5.0000   -2.1507    0.0000 N   0  0  0  0  0  0  0  0  0  0  0  0
   10.5000    2.1795    0.0000 N   0  0  0  0  0  0  0  0  0  0  0  0
   13.7619    1.6795    0.0000 N   0  0  0  0  0  0  0  0  0  0  0  0
    5.0000   -0.4186    0.0000 C   0  0  0  0  0  0  0  0  0  0  0  0
    6.5000   -1.2846    0.0000 C   0  0  0  0  0  0  0  0  0  0  0  0
    6.5000    0.4474    0.0000 C   0  0  0  0  0  0  0  0  0  0  0  0
    4.5000   -1.2846    0.0000 C   0  0  0  0  0  0  0  0  0  0  0  0
    6.0000   -2.1507    0.0000 C   0  0  0  0  0  0  0  0  0  0  0  0
    7.5000    0.4474    0.0000 C   0  0  0  0  0  0  0  0  0  0  0  0
    8.0000    1.3134    0.0000 C   0  0  0  0  0  0  0  0  0  0  0  0
    9.0000    1.3134    0.0000 C   0  0  0  0  0  0  0  0  0  0  0  0
    9.5000    2.1795    0.0000 C   0  0  0  0  0  0  0  0  0  0  0  0
    4.5000   -3.0167    0.0000 C   0  0  0  0  0  0  0  0  0  0  0  0
   11.0836    1.3747    0.0000 C   0  0  0  0  0  0  0  0  0  0  0  0
   12.0298    1.6795    0.0000 C   0  0  0  0  0  0  0  0  0  0  0  0
   12.0298    2.6795    0.0000 C   0  0  0  0  0  0  0  0  0  0  0  0
   11.0836    2.9842    0.0000 C   0  0  0  0  0  0  0  0  0  0  0  0
   12.8959    3.1795    0.0000 C   0  0  0  0  0  0  0  0  0  0  0  0
    3.5000   -3.0167    0.0000 C   0  0  0  0  0  0  0  0  0  0  0  0
    5.0000   -3.8827    0.0000 C   0  0  0  0  0  0  0  0  0  0  0  0
   12.8959    1.1795    0.0000 C   0  0  0  0  0  0  0  0  0  0  0  0
   13.7619    2.6795    0.0000 C   0  0  0  0  0  0  0  0  0  0  0  0
    3.0000   -3.8827    0.0000 C   0  0  0  0  0  0  0  0  0  0  0  0
    4.5000   -4.7487    0.0000 C   0  0  0  0  0  0  0  0  0  0  0  0
   12.8798    4.2210    0.0000 C   0  0  0  0  0  0  0  0  0  0  0  0
    3.5000   -4.7487    0.0000 C   0  0  0  0  0  0  0  0  0  0  0  0
   14.6719    3.1863    0.0000 C   0  0  0  0  0  0  0  0  0  0  0  0
   13.7778    4.7487    0.0000 C   0  0  0  0  0  0  0  0  0  0  0  0
   14.6799    4.2279    0.0000 C   0  0  0  0  0  0  0  0  0  0  0  0
    2.0000   -2.1507    0.0000 C   0  0  0  0  0  0  0  0  0  0  0  0
    5.1077    0.1920    0.0000 H   0  0  0  0  0  0  0  0  0  0  0  0
    4.4174   -0.2066    0.0000 H   0  0  0  0  0  0  0  0  0  0  0  0
    6.9750   -1.6832    0.0000 H   0  0  0  0  0  0  0  0  0  0  0  0
    6.9750   -0.8861    0.0000 H   0  0  0  0  0  0  0  0  0  0  0  0
    6.6077    1.0580    0.0000 H   0  0  0  0  0  0  0  0  0  0  0  0
    5.9174    0.6595    0.0000 H   0  0  0  0  0  0  0  0  0  0  0  0
    4.0250   -0.8861    0.0000 H   0  0  0  0  0  0  0  0  0  0  0  0
    4.0250   -1.6832    0.0000 H   0  0  0  0  0  0  0  0  0  0  0  0
    5.8923   -2.7612    0.0000 H   0  0  0  0  0  0  0  0  0  0  0  0
    6.5826   -2.3627    0.0000 H   0  0  0  0  0  0  0  0  0  0  0  0
    7.3923   -0.1632    0.0000 H   0  0  0  0  0  0  0  0  0  0  0  0
    8.0826    0.2354    0.0000 H   0  0  0  0  0  0  0  0  0  0  0  0
    8.1077    1.9240    0.0000 H   0  0  0  0  0  0  0  0  0  0  0  0
    7.4174    1.5255    0.0000 H   0  0  0  0  0  0  0  0  0  0  0  0
    8.8923    0.7029    0.0000 H   0  0  0  0  0  0  0  0  0  0  0  0
    9.5826    1.1014    0.0000 H   0  0  0  0  0  0  0  0  0  0  0  0
    9.6077    2.7900    0.0000 H   0  0  0  0  0  0  0  0  0  0  0  0
    8.9174    2.3915    0.0000 H   0  0  0  0  0  0  0  0  0  0  0  0
   10.5462    1.0655    0.0000 H   0  0  0  0  0  0  0  0  0  0  0  0
   11.3346    0.8078    0.0000 H   0  0  0  0  0  0  0  0  0  0  0  0
    5.6200   -3.8827    0.0000 H   0  0  0  0  0  0  0  0  0  0  0  0
    2.3800   -3.8827    0.0000 H   0  0  0  0  0  0  0  0  0  0  0  0
   12.3393    4.5248    0.0000 H   0  0  0  0  0  0  0  0  0  0  0  0
    4.8100   -5.2857    0.0000 H   0  0  0  0  0  0  0  0  0  0  0  0
    3.1900   -5.2857    0.0000 H   0  0  0  0  0  0  0  0  0  0  0  0
   15.2052    2.8701    0.0000 H   0  0  0  0  0  0  0  0  0  0  0  0
   13.7754    5.3687    0.0000 H   0  0  0  0  0  0  0  0  0  0  0  0
   15.2180    4.5358    0.0000 H   0  0  0  0  0  0  0  0  0  0  0  0
    2.0000   -1.5307    0.0000 H   0  0  0  0  0  0  0  0  0  0  0  0
    1.3800   -2.1507    0.0000 H   0  0  0  0  0  0  0  0  0  0  0  0
    2.0000   -2.7707    0.0000 H   0  0  0  0  0  0  0  0  0  0  0  0
  1 25  1  0  0  0  0
  2 21  2  0  0  0  0
  3 23  1  0  0  0  0
  3 34  1  0  0  0  0
  4  8  1  0  0  0  0
  4  9  1  0  0  0  0
  4 10  1  0  0  0  0
  5 11  1  0  0  0  0
  5 12  1  0  0  0  0
  5 17  1  0  0  0  0
  6 16  1  0  0  0  0
  6 18  1  0  0  0  0
  6 21  1  0  0  0  0
  7 25  2  0  0  0  0
  7 26  1  0  0  0  0
  8 11  1  0  0  0  0
  8 35  1  0  0  0  0
  8 36  1  0  0  0  0
  9 12  1  0  0  0  0
  9 37  1  0  0  0  0
  9 38  1  0  0  0  0
 10 13  1  0  0  0  0
 10 39  1  0  0  0  0
 10 40  1  0  0  0  0
 11 41  1  0  0  0  0
 11 42  1  0  0  0  0
 12 43  1  0  0  0  0
 12 44  1  0  0  0  0
 13 14  1  0  0  0  0
 13 45  1  0  0  0  0
 13 46  1  0  0  0  0
 14 15  1  0  0  0  0
 14 47  1  0  0  0  0
 14 48  1  0  0  0  0
 15 16  1  0  0  0  0
 15 49  1  0  0  0  0
 15 50  1  0  0  0  0
 16 51  1  0  0  0  0
 16 52  1  0  0  0  0
 17 23  1  0  0  0  0
 17 24  2  0  0  0  0
 18 19  1  0  0  0  0
 18 53  1  0  0  0  0
 18 54  1  0  0  0  0
 19 20  2  0  0  0  0
 19 25  1  0  0  0  0
 20 21  1  0  0  0  0
 20 22  1  0  0  0  0
 22 26  1  0  0  0  0
 22 29  2  0  0  0  0
 23 27  2  0  0  0  0
 24 28  1  0  0  0  0
 24 55  1  0  0  0  0
 26 31  2  0  0  0  0
 27 30  1  0  0  0  0
 27 56  1  0  0  0  0
 28 30  2  0  0  0  0
 28 58  1  0  0  0  0
 29 32  1  0  0  0  0
 29 57  1  0  0  0  0
 30 59  1  0  0  0  0
 31 33  1  0  0  0  0
 31 60  1  0  0  0  0
 32 33  2  0  0  0  0
 32 61  1  0  0  0  0
 33 62  1  0  0  0  0
 34 63  1  0  0  0  0
 34 64  1  0  0  0  0
 34 65  1  0  0  0  0
M  END
> <PUBCHEM_COMPOUND_CID>
72198756

> <PUBCHEM_COMPOUND_CANONICALIZED>
1

> <PUBCHEM_CACTVS_COMPLEXITY>
673

> <PUBCHEM_CACTVS_HBOND_ACCEPTOR>
5

> <PUBCHEM_CACTVS_HBOND_DONOR>
0

> <PUBCHEM_CACTVS_ROTATABLE_BOND>
8

> <PUBCHEM_CACTVS_SUBSKEYS>
AAADceB7sAAEAAAAAAAAAAAAAAAAAWAAAAA8eIEAAAAAAFix9AAAHgIAAAAADA7BniYyxvMIFACoAyVyVACCiCAlJiAImCE/btgOZvLF95uVMShkxhHY6QecyMCOgAAAAAACEAAAAAAAAAQgAAAAAAAAAA==

> <PUBCHEM_IUPAC_OPENEYE_NAME>
4-chloro-2-[5-[4-(2-methoxyphenyl)piperazin-1-yl]pentyl]-3H-pyrrolo[3,4-c]quinolin-1-one

> <PUBCHEM_IUPAC_CAS_NAME>
4-chloro-2-[5-[4-(2-methoxyphenyl)-1-piperazinyl]pentyl]-3H-pyrrolo[3,4-c]quinolin-1-one

> <PUBCHEM_IUPAC_NAME_MARKUP>
4-chloro-2-[5-[4-(2-methoxyphenyl)piperazin-1-yl]pentyl]-3<I>H</I>-pyrrolo[3,4-c]quinolin-1-one

> <PUBCHEM_IUPAC_NAME>
4-chloro-2-[5-[4-(2-methoxyphenyl)piperazin-1-yl]pentyl]-3H-pyrrolo[3,4-c]quinolin-1-one

> <PUBCHEM_IUPAC_SYSTEMATIC_NAME>
4-chloranyl-2-[5-[4-(2-methoxyphenyl)piperazin-1-yl]pentyl]-3H-pyrrolo[3,4-c]quinolin-1-one

> <PUBCHEM_IUPAC_TRADITIONAL_NAME>
4-chloro-2-[5-[4-(2-methoxyphenyl)piperazino]pentyl]-3H-pyrrolo[3,4-c]quinolin-1-one

> <PUBCHEM_IUPAC_INCHI>
InChI=1S/C27H31ClN4O2/c1-34-24-12-6-5-11-23(24)31-17-15-30(16-18-31)13-7-2-8-14-32-19-21-25(27(32)33)20-9-3-4-10-22(20)29-26(21)28/h3-6,9-12H,2,7-8,13-19H2,1H3

> <PUBCHEM_IUPAC_INCHIKEY>
UPKRQORUWZHUIP-UHFFFAOYSA-N

> <PUBCHEM_XLOGP3_AA>
4.9

> <PUBCHEM_EXACT_MASS>
478.2135539

> <PUBCHEM_MOLECULAR_FORMULA>
C27H31ClN4O2

> <PUBCHEM_MOLECULAR_WEIGHT>
479.0

> <PUBCHEM_OPENEYE_CAN_SMILES>
COC1=CC=CC=C1N2CCN(CC2)CCCCCN3CC4=C(C3=O)C5=CC=CC=C5N=C4Cl

> <PUBCHEM_OPENEYE_ISO_SMILES>
COC1=CC=CC=C1N2CCN(CC2)CCCCCN3CC4=C(C3=O)C5=CC=CC=C5N=C4Cl

> <PUBCHEM_CACTVS_TPSA>
48.9

> <PUBCHEM_MONOISOTOPIC_WEIGHT>
478.2135539

> <PUBCHEM_TOTAL_CHARGE>
0

> <PUBCHEM_HEAVY_ATOM_COUNT>
34

> <PUBCHEM_ATOM_DEF_STEREO_COUNT>
0

> <PUBCHEM_ATOM_UDEF_STEREO_COUNT>
0

> <PUBCHEM_BOND_DEF_STEREO_COUNT>
0

> <PUBCHEM_BOND_UDEF_STEREO_COUNT>
0

> <PUBCHEM_ISOTOPIC_ATOM_COUNT>
0

> <PUBCHEM_COMPONENT_COUNT>
1

> <PUBCHEM_CACTVS_TAUTO_COUNT>
-1

> <PUBCHEM_COORDINATE_TYPE>
1
5
255

> <PUBCHEM_BONDANNOTATIONS>
17  23  8
17  24  8
19  20  8
19  25  8
20  22  8
22  26  8
22  29  8
23  27  8
24  28  8
26  31  8
27  30  8
28  30  8
29  32  8
31  33  8
32  33  8
7  25  8
7  26  8

$$$$
