9887091
  -OEChem-09292322152D

 56 59  0     0  0  0  0  0  0999 V2000
    2.8924   -5.1394    0.0000 Cl  0  0  0  0  0  0  0  0  0  0  0  0
    5.9674    2.1780    0.0000 O   0  0  0  0  0  0  0  0  0  0  0  0
    4.6783    3.3347    0.0000 N   0  0  0  0  0  0  0  0  0  0  0  0
    4.6318    0.6893    0.0000 N   0  0  0  0  0  0  0  0  0  0  0  0
    5.2531   -1.2117    0.0000 N   0  0  0  0  0  0  0  0  0  0  0  0
    5.2619    4.1394    0.0000 C   0  0  0  0  0  0  0  0  0  0  0  0
    4.6783    4.9441    0.0000 C   0  0  0  0  0  0  0  0  0  0  0  0
    3.7320    4.6394    0.0000 C   0  0  0  0  0  0  0  0  0  0  0  0
    3.7320    3.6394    0.0000 C   0  0  0  0  0  0  0  0  0  0  0  0
    6.0709    4.7272    0.0000 C   0  0  0  0  0  0  0  0  0  0  0  0
    6.0709    3.5516    0.0000 C   0  0  0  0  0  0  0  0  0  0  0  0
    4.3211    1.6399    0.0000 C   0  0  0  0  0  0  0  0  0  0  0  0
    4.9889    2.3842    0.0000 C   0  0  0  0  0  0  0  0  0  0  0  0
    5.6103    0.4831    0.0000 C   0  0  0  0  0  0  0  0  0  0  0  0
    3.9639   -0.0550    0.0000 C   0  0  0  0  0  0  0  0  0  0  0  0
    5.9209   -0.4674    0.0000 C   0  0  0  0  0  0  0  0  0  0  0  0
    4.2746   -1.0055    0.0000 C   0  0  0  0  0  0  0  0  0  0  0  0
    2.8660    5.1394    0.0000 C   0  0  0  0  0  0  0  0  0  0  0  0
    2.8660    3.1394    0.0000 C   0  0  0  0  0  0  0  0  0  0  0  0
    5.5637   -2.1622    0.0000 C   0  0  0  0  0  0  0  0  0  0  0  0
    2.0000    4.6394    0.0000 C   0  0  0  0  0  0  0  0  0  0  0  0
    2.0000    3.6394    0.0000 C   0  0  0  0  0  0  0  0  0  0  0  0
    4.8959   -2.9065    0.0000 C   0  0  0  0  0  0  0  0  0  0  0  0
    3.9174   -2.7003    0.0000 C   0  0  0  0  0  0  0  0  0  0  0  0
    5.2066   -3.8570    0.0000 C   0  0  0  0  0  0  0  0  0  0  0  0
    3.2496   -3.4446    0.0000 C   0  0  0  0  0  0  0  0  0  0  0  0
    4.5387   -4.6013    0.0000 C   0  0  0  0  0  0  0  0  0  0  0  0
    3.5602   -4.3951    0.0000 C   0  0  0  0  0  0  0  0  0  0  0  0
    5.2156    5.2534    0.0000 H   0  0  0  0  0  0  0  0  0  0  0  0
    4.4272    5.5111    0.0000 H   0  0  0  0  0  0  0  0  0  0  0  0
    6.4353    4.2256    0.0000 H   0  0  0  0  0  0  0  0  0  0  0  0
    6.5725    5.0916    0.0000 H   0  0  0  0  0  0  0  0  0  0  0  0
    5.7065    5.2288    0.0000 H   0  0  0  0  0  0  0  0  0  0  0  0
    5.7065    3.0500    0.0000 H   0  0  0  0  0  0  0  0  0  0  0  0
    6.5725    3.1872    0.0000 H   0  0  0  0  0  0  0  0  0  0  0  0
    6.4353    4.0532    0.0000 H   0  0  0  0  0  0  0  0  0  0  0  0
    3.9385    2.1278    0.0000 H   0  0  0  0  0  0  0  0  0  0  0  0
    3.7742    1.3478    0.0000 H   0  0  0  0  0  0  0  0  0  0  0  0
    6.2241    0.5705    0.0000 H   0  0  0  0  0  0  0  0  0  0  0  0
    5.6308    1.1028    0.0000 H   0  0  0  0  0  0  0  0  0  0  0  0
    3.5814    0.4330    0.0000 H   0  0  0  0  0  0  0  0  0  0  0  0
    3.4170   -0.3470    0.0000 H   0  0  0  0  0  0  0  0  0  0  0  0
    6.3035   -0.9553    0.0000 H   0  0  0  0  0  0  0  0  0  0  0  0
    6.4678   -0.1754    0.0000 H   0  0  0  0  0  0  0  0  0  0  0  0
    3.6608   -1.0928    0.0000 H   0  0  0  0  0  0  0  0  0  0  0  0
    4.2540   -1.6251    0.0000 H   0  0  0  0  0  0  0  0  0  0  0  0
    2.8660    5.7594    0.0000 H   0  0  0  0  0  0  0  0  0  0  0  0
    2.8660    2.5194    0.0000 H   0  0  0  0  0  0  0  0  0  0  0  0
    5.9463   -2.6501    0.0000 H   0  0  0  0  0  0  0  0  0  0  0  0
    6.1107   -1.8702    0.0000 H   0  0  0  0  0  0  0  0  0  0  0  0
    1.4631    4.9494    0.0000 H   0  0  0  0  0  0  0  0  0  0  0  0
    1.4631    3.3294    0.0000 H   0  0  0  0  0  0  0  0  0  0  0  0
    3.7248   -2.1110    0.0000 H   0  0  0  0  0  0  0  0  0  0  0  0
    5.8132   -3.9849    0.0000 H   0  0  0  0  0  0  0  0  0  0  0  0
    2.6429   -3.3167    0.0000 H   0  0  0  0  0  0  0  0  0  0  0  0
    4.7313   -5.1907    0.0000 H   0  0  0  0  0  0  0  0  0  0  0  0
  1 28  1  0  0  0  0
  2 13  2  0  0  0  0
  3  6  1  0  0  0  0
  3  9  1  0  0  0  0
  3 13  1  0  0  0  0
  4 12  1  0  0  0  0
  4 14  1  0  0  0  0
  4 15  1  0  0  0  0
  5 16  1  0  0  0  0
  5 17  1  0  0  0  0
  5 20  1  0  0  0  0
  6  7  1  0  0  0  0
  6 10  1  0  0  0  0
  6 11  1  0  0  0  0
  7  8  1  0  0  0  0
  7 29  1  0  0  0  0
  7 30  1  0  0  0  0
  8  9  1  0  0  0  0
  8 18  2  0  0  0  0
  9 19  2  0  0  0  0
 10 31  1  0  0  0  0
 10 32  1  0  0  0  0
 10 33  1  0  0  0  0
 11 34  1  0  0  0  0
 11 35  1  0  0  0  0
 11 36  1  0  0  0  0
 12 13  1  0  0  0  0
 12 37  1  0  0  0  0
 12 38  1  0  0  0  0
 14 16  1  0  0  0  0
 14 39  1  0  0  0  0
 14 40  1  0  0  0  0
 15 17  1  0  0  0  0
 15 41  1  0  0  0  0
 15 42  1  0  0  0  0
 16 43  1  0  0  0  0
 16 44  1  0  0  0  0
 17 45  1  0  0  0  0
 17 46  1  0  0  0  0
 18 21  1  0  0  0  0
 18 47  1  0  0  0  0
 19 22  1  0  0  0  0
 19 48  1  0  0  0  0
 20 23  1  0  0  0  0
 20 49  1  0  0  0  0
 20 50  1  0  0  0  0
 21 22  2  0  0  0  0
 21 51  1  0  0  0  0
 22 52  1  0  0  0  0
 23 24  2  0  0  0  0
 23 25  1  0  0  0  0
 24 26  1  0  0  0  0
 24 53  1  0  0  0  0
 25 27  2  0  0  0  0
 25 54  1  0  0  0  0
 26 28  2  0  0  0  0
 26 55  1  0  0  0  0
 27 28  1  0  0  0  0
 27 56  1  0  0  0  0
M  END
> <PUBCHEM_COMPOUND_CID>
9887091

> <PUBCHEM_COMPOUND_CANONICALIZED>
1

> <PUBCHEM_CACTVS_COMPLEXITY>
538

> <PUBCHEM_CACTVS_HBOND_ACCEPTOR>
3

> <PUBCHEM_CACTVS_HBOND_DONOR>
0

> <PUBCHEM_CACTVS_ROTATABLE_BOND>
4

> <PUBCHEM_CACTVS_SUBSKEYS>
AAADceB7IAAEAAAAAAAAAAAAAAAAAWAAAAA8YIAAAAAAAFgBQAAAHgIAAAAADIrBmCQywIMAAACIAiVSUACCAAAhBwAIiACIZogIYCLBk7GUIAhghADIyAcQgMAOBAAAAAACAAAIAAAAAAQAAAAAAAAAAA==

> <PUBCHEM_IUPAC_OPENEYE_NAME>
2-[4-[(4-chlorophenyl)methyl]piperazin-1-yl]-1-(2,2-dimethylindolin-1-yl)ethanone

> <PUBCHEM_IUPAC_CAS_NAME>
2-[4-[(4-chlorophenyl)methyl]-1-piperazinyl]-1-(2,2-dimethyl-3H-indol-1-yl)ethanone

> <PUBCHEM_IUPAC_NAME_MARKUP>
2-[4-[(4-chlorophenyl)methyl]piperazin-1-yl]-1-(2,2-dimethyl-3<I>H</I>-indol-1-yl)ethanone

> <PUBCHEM_IUPAC_NAME>
2-[4-[(4-chlorophenyl)methyl]piperazin-1-yl]-1-(2,2-dimethyl-3H-indol-1-yl)ethanone

> <PUBCHEM_IUPAC_SYSTEMATIC_NAME>
2-[4-[(4-chlorophenyl)methyl]piperazin-1-yl]-1-(2,2-dimethyl-3H-indol-1-yl)ethanone

> <PUBCHEM_IUPAC_TRADITIONAL_NAME>
2-[4-(4-chlorobenzyl)piperazino]-1-(2,2-dimethylindolin-1-yl)ethanone

> <PUBCHEM_IUPAC_INCHI>
InChI=1S/C23H28ClN3O/c1-23(2)15-19-5-3-4-6-21(19)27(23)22(28)17-26-13-11-25(12-14-26)16-18-7-9-20(24)10-8-18/h3-10H,11-17H2,1-2H3

> <PUBCHEM_IUPAC_INCHIKEY>
MRQPAQHCUBEBQD-UHFFFAOYSA-N

> <PUBCHEM_XLOGP3_AA>
3.9

> <PUBCHEM_EXACT_MASS>
397.1920902

> <PUBCHEM_MOLECULAR_FORMULA>
C23H28ClN3O

> <PUBCHEM_MOLECULAR_WEIGHT>
397.9

> <PUBCHEM_OPENEYE_CAN_SMILES>
CC1(CC2=CC=CC=C2N1C(=O)CN3CCN(CC3)CC4=CC=C(C=C4)Cl)C

> <PUBCHEM_OPENEYE_ISO_SMILES>
CC1(CC2=CC=CC=C2N1C(=O)CN3CCN(CC3)CC4=CC=C(C=C4)Cl)C

> <PUBCHEM_CACTVS_TPSA>
26.8

> <PUBCHEM_MONOISOTOPIC_WEIGHT>
397.1920902

> <PUBCHEM_TOTAL_CHARGE>
0

> <PUBCHEM_HEAVY_ATOM_COUNT>
28

> <PUBCHEM_ATOM_DEF_STEREO_COUNT>
0

> <PUBCHEM_ATOM_UDEF_STEREO_COUNT>
0

> <PUBCHEM_BOND_DEF_STEREO_COUNT>
0

> <PUBCHEM_BOND_UDEF_STEREO_COUNT>
0

> <PUBCHEM_ISOTOPIC_ATOM_COUNT>
0

> <PUBCHEM_COMPONENT_COUNT>
1

> <PUBCHEM_CACTVS_TAUTO_COUNT>
-1

> <PUBCHEM_COORDINATE_TYPE>
1
5
255

> <PUBCHEM_BONDANNOTATIONS>
18  21  8
19  22  8
21  22  8
23  24  8
23  25  8
24  26  8
25  27  8
26  28  8
27  28  8
8  18  8
8  9  8
9  19  8

$$$$
