44350871
  -OEChem-09292322112D

 70 72  0     0  0  0  0  0  0999 V2000
    7.0856    2.6200    0.0000 O   0  0  0  0  0  0  0  0  0  0  0  0
    9.6837   10.1200    0.0000 O   0  0  0  0  0  0  0  0  0  0  0  0
    3.1350    6.6373    0.0000 O   0  0  0  0  0  0  0  0  0  0  0  0
    0.5369    7.1373    0.0000 O   0  0  0  0  0  0  0  0  0  0  0  0
    2.2690    8.1373    0.0000 O   0  0  0  0  0  0  0  0  0  0  0  0
    1.4030    5.6373    0.0000 O   0  0  0  0  0  0  0  0  0  0  0  0
    8.8176    5.6200    0.0000 N   0  0  0  0  0  0  0  0  0  0  0  0
    8.8176    3.6200    0.0000 N   0  0  0  0  0  0  0  0  0  0  0  0
   10.5497    8.6200    0.0000 N   0  0  0  0  0  0  0  0  0  0  0  0
    7.9516    5.1200    0.0000 C   0  0  0  0  0  0  0  0  0  0  0  0
    9.6837    5.1200    0.0000 C   0  0  0  0  0  0  0  0  0  0  0  0
    7.9516    4.1200    0.0000 C   0  0  0  0  0  0  0  0  0  0  0  0
    9.6837    4.1200    0.0000 C   0  0  0  0  0  0  0  0  0  0  0  0
    8.8176    6.6200    0.0000 C   0  0  0  0  0  0  0  0  0  0  0  0
    9.6837    7.1200    0.0000 C   0  0  0  0  0  0  0  0  0  0  0  0
    8.8176    2.6200    0.0000 C   0  0  0  0  0  0  0  0  0  0  0  0
    9.6837    8.1200    0.0000 C   0  0  0  0  0  0  0  0  0  0  0  0
    7.9516    2.1200    0.0000 C   0  0  0  0  0  0  0  0  0  0  0  0
    9.6837    2.1200    0.0000 C   0  0  0  0  0  0  0  0  0  0  0  0
    7.9516    1.1200    0.0000 C   0  0  0  0  0  0  0  0  0  0  0  0
    9.6837    1.1200    0.0000 C   0  0  0  0  0  0  0  0  0  0  0  0
    8.8176    0.6200    0.0000 C   0  0  0  0  0  0  0  0  0  0  0  0
   10.5497    9.6200    0.0000 C   0  0  0  0  0  0  0  0  0  0  0  0
   11.4157   10.1200    0.0000 C   0  0  0  0  0  0  0  0  0  0  0  0
   11.4157   11.1200    0.0000 C   0  0  0  0  0  0  0  0  0  0  0  0
   12.2817   11.6200    0.0000 C   0  0  0  0  0  0  0  0  0  0  0  0
    6.2196    2.1200    0.0000 C   0  0  0  0  0  0  0  0  0  0  0  0
   12.2817   12.6200    0.0000 C   0  0  0  0  0  0  0  0  0  0  0  0
   10.5497   11.6200    0.0000 C   0  0  0  0  0  0  0  0  0  0  0  0
   13.1757   11.0853    0.0000 C   0  0  0  0  0  0  0  0  0  0  0  0
   11.4157   13.1200    0.0000 C   0  0  0  0  0  0  0  0  0  0  0  0
   10.5497   12.6200    0.0000 C   0  0  0  0  0  0  0  0  0  0  0  0
   13.1757   13.1547    0.0000 C   0  0  0  0  0  0  0  0  0  0  0  0
   14.0817   11.5992    0.0000 C   0  0  0  0  0  0  0  0  0  0  0  0
   14.0817   12.6408    0.0000 C   0  0  0  0  0  0  0  0  0  0  0  0
    2.2690    7.1373    0.0000 C   0  0  0  0  0  0  0  0  0  0  0  0
    1.4030    6.6373    0.0000 C   0  0  0  0  0  0  0  0  0  0  0  0
    7.7396    5.7026    0.0000 H   0  0  0  0  0  0  0  0  0  0  0  0
    7.3410    5.0123    0.0000 H   0  0  0  0  0  0  0  0  0  0  0  0
   10.2942    5.0123    0.0000 H   0  0  0  0  0  0  0  0  0  0  0  0
    9.8957    5.7026    0.0000 H   0  0  0  0  0  0  0  0  0  0  0  0
    7.3410    4.2277    0.0000 H   0  0  0  0  0  0  0  0  0  0  0  0
    7.7396    3.5374    0.0000 H   0  0  0  0  0  0  0  0  0  0  0  0
    9.8957    3.5374    0.0000 H   0  0  0  0  0  0  0  0  0  0  0  0
   10.2942    4.2277    0.0000 H   0  0  0  0  0  0  0  0  0  0  0  0
    8.6056    7.2026    0.0000 H   0  0  0  0  0  0  0  0  0  0  0  0
    8.2070    6.5123    0.0000 H   0  0  0  0  0  0  0  0  0  0  0  0
    9.8957    6.5374    0.0000 H   0  0  0  0  0  0  0  0  0  0  0  0
   10.2942    7.2277    0.0000 H   0  0  0  0  0  0  0  0  0  0  0  0
    9.4716    8.7026    0.0000 H   0  0  0  0  0  0  0  0  0  0  0  0
    9.0731    8.0123    0.0000 H   0  0  0  0  0  0  0  0  0  0  0  0
   10.2206    2.4300    0.0000 H   0  0  0  0  0  0  0  0  0  0  0  0
   11.0866    8.3100    0.0000 H   0  0  0  0  0  0  0  0  0  0  0  0
    7.4147    0.8100    0.0000 H   0  0  0  0  0  0  0  0  0  0  0  0
   10.2206    0.8100    0.0000 H   0  0  0  0  0  0  0  0  0  0  0  0
    8.8176    0.0000    0.0000 H   0  0  0  0  0  0  0  0  0  0  0  0
   11.6278    9.5374    0.0000 H   0  0  0  0  0  0  0  0  0  0  0  0
   12.0263   10.2277    0.0000 H   0  0  0  0  0  0  0  0  0  0  0  0
    5.9096    2.6569    0.0000 H   0  0  0  0  0  0  0  0  0  0  0  0
    5.6826    1.8100    0.0000 H   0  0  0  0  0  0  0  0  0  0  0  0
    6.5296    1.5831    0.0000 H   0  0  0  0  0  0  0  0  0  0  0  0
   10.0127   11.3100    0.0000 H   0  0  0  0  0  0  0  0  0  0  0  0
   13.1685   10.4654    0.0000 H   0  0  0  0  0  0  0  0  0  0  0  0
   11.4157   13.7400    0.0000 H   0  0  0  0  0  0  0  0  0  0  0  0
   10.0127   12.9300    0.0000 H   0  0  0  0  0  0  0  0  0  0  0  0
   13.1685   13.7746    0.0000 H   0  0  0  0  0  0  0  0  0  0  0  0
   14.6175   11.2871    0.0000 H   0  0  0  0  0  0  0  0  0  0  0  0
   14.6175   12.9529    0.0000 H   0  0  0  0  0  0  0  0  0  0  0  0
    3.6720    6.9473    0.0000 H   0  0  0  0  0  0  0  0  0  0  0  0
    0.0000    6.8273    0.0000 H   0  0  0  0  0  0  0  0  0  0  0  0
  1 18  1  0  0  0  0
  1 27  1  0  0  0  0
  2 23  2  0  0  0  0
  3 36  1  0  0  0  0
  3 69  1  0  0  0  0
  4 37  1  0  0  0  0
  4 70  1  0  0  0  0
  5 36  2  0  0  0  0
  6 37  2  0  0  0  0
  7 10  1  0  0  0  0
  7 11  1  0  0  0  0
  7 14  1  0  0  0  0
  8 12  1  0  0  0  0
  8 13  1  0  0  0  0
  8 16  1  0  0  0  0
  9 17  1  0  0  0  0
  9 23  1  0  0  0  0
  9 53  1  0  0  0  0
 10 12  1  0  0  0  0
 10 38  1  0  0  0  0
 10 39  1  0  0  0  0
 11 13  1  0  0  0  0
 11 40  1  0  0  0  0
 11 41  1  0  0  0  0
 12 42  1  0  0  0  0
 12 43  1  0  0  0  0
 13 44  1  0  0  0  0
 13 45  1  0  0  0  0
 14 15  1  0  0  0  0
 14 46  1  0  0  0  0
 14 47  1  0  0  0  0
 15 17  1  0  0  0  0
 15 48  1  0  0  0  0
 15 49  1  0  0  0  0
 16 18  1  0  0  0  0
 16 19  2  0  0  0  0
 17 50  1  0  0  0  0
 17 51  1  0  0  0  0
 18 20  2  0  0  0  0
 19 21  1  0  0  0  0
 19 52  1  0  0  0  0
 20 22  1  0  0  0  0
 20 54  1  0  0  0  0
 21 22  2  0  0  0  0
 21 55  1  0  0  0  0
 22 56  1  0  0  0  0
 23 24  1  0  0  0  0
 24 25  1  0  0  0  0
 24 57  1  0  0  0  0
 24 58  1  0  0  0  0
 25 26  1  0  0  0  0
 25 29  2  0  0  0  0
 26 28  1  0  0  0  0
 26 30  2  0  0  0  0
 27 59  1  0  0  0  0
 27 60  1  0  0  0  0
 27 61  1  0  0  0  0
 28 31  1  0  0  0  0
 28 33  2  0  0  0  0
 29 32  1  0  0  0  0
 29 62  1  0  0  0  0
 30 34  1  0  0  0  0
 30 63  1  0  0  0  0
 31 32  2  0  0  0  0
 31 64  1  0  0  0  0
 32 65  1  0  0  0  0
 33 35  1  0  0  0  0
 33 66  1  0  0  0  0
 34 35  2  0  0  0  0
 34 67  1  0  0  0  0
 35 68  1  0  0  0  0
 36 37  1  0  0  0  0
M  END
> <PUBCHEM_COMPOUND_CID>
44350871

> <PUBCHEM_COMPOUND_CANONICALIZED>
1

> <PUBCHEM_CACTVS_COMPLEXITY>
620

> <PUBCHEM_CACTVS_HBOND_ACCEPTOR>
8

> <PUBCHEM_CACTVS_HBOND_DONOR>
3

> <PUBCHEM_CACTVS_ROTATABLE_BOND>
9

> <PUBCHEM_CACTVS_SUBSKEYS>
AAADcfB7OAAAAAAAAAAAAAAAAAAAAAAAAAA8YMEAAAAAAADBVAAAHgAQCAAADAzBmAYyzsPABgCIAiXSWAKCCAAhIgAIiIFPbIgPZjLE9ZuVMChk1hHZ6AeYyMCOgAACAAAQEAAAAAQAACAgAAAAAAAAAA==

> <PUBCHEM_IUPAC_OPENEYE_NAME>
N-[3-[4-(2-methoxyphenyl)piperazin-1-yl]propyl]-2-(1-naphthyl)acetamide;oxalic acid

> <PUBCHEM_IUPAC_CAS_NAME>
N-[3-[4-(2-methoxyphenyl)-1-piperazinyl]propyl]-2-(1-naphthalenyl)acetamide;oxalic acid

> <PUBCHEM_IUPAC_NAME_MARKUP>
<I>N</I>-[3-[4-(2-methoxyphenyl)piperazin-1-yl]propyl]-2-naphthalen-1-ylacetamide;oxalic acid

> <PUBCHEM_IUPAC_NAME>
N-[3-[4-(2-methoxyphenyl)piperazin-1-yl]propyl]-2-naphthalen-1-ylacetamide;oxalic acid

> <PUBCHEM_IUPAC_SYSTEMATIC_NAME>
ethanedioic acid;N-[3-[4-(2-methoxyphenyl)piperazin-1-yl]propyl]-2-naphthalen-1-yl-ethanamide

> <PUBCHEM_IUPAC_TRADITIONAL_NAME>
N-[3-[4-(2-methoxyphenyl)piperazino]propyl]-2-(1-naphthyl)acetamide;oxalic acid

> <PUBCHEM_IUPAC_INCHI>
InChI=1S/C26H31N3O2.C2H2O4/c1-31-25-13-5-4-12-24(25)29-18-16-28(17-19-29)15-7-14-27-26(30)20-22-10-6-9-21-8-2-3-11-23(21)22;3-1(4)2(5)6/h2-6,8-13H,7,14-20H2,1H3,(H,27,30);(H,3,4)(H,5,6)

> <PUBCHEM_IUPAC_INCHIKEY>
LRGZWDARPJAFMU-UHFFFAOYSA-N

> <PUBCHEM_EXACT_MASS>
507.23693578

> <PUBCHEM_MOLECULAR_FORMULA>
C28H33N3O6

> <PUBCHEM_MOLECULAR_WEIGHT>
507.6

> <PUBCHEM_OPENEYE_CAN_SMILES>
COC1=CC=CC=C1N2CCN(CC2)CCCNC(=O)CC3=CC=CC4=CC=CC=C43.C(=O)(C(=O)O)O

> <PUBCHEM_OPENEYE_ISO_SMILES>
COC1=CC=CC=C1N2CCN(CC2)CCCNC(=O)CC3=CC=CC4=CC=CC=C43.C(=O)(C(=O)O)O

> <PUBCHEM_CACTVS_TPSA>
119

> <PUBCHEM_MONOISOTOPIC_WEIGHT>
507.23693578

> <PUBCHEM_TOTAL_CHARGE>
0

> <PUBCHEM_HEAVY_ATOM_COUNT>
37

> <PUBCHEM_ATOM_DEF_STEREO_COUNT>
0

> <PUBCHEM_ATOM_UDEF_STEREO_COUNT>
0

> <PUBCHEM_BOND_DEF_STEREO_COUNT>
0

> <PUBCHEM_BOND_UDEF_STEREO_COUNT>
0

> <PUBCHEM_ISOTOPIC_ATOM_COUNT>
0

> <PUBCHEM_COMPONENT_COUNT>
2

> <PUBCHEM_CACTVS_TAUTO_COUNT>
-1

> <PUBCHEM_COORDINATE_TYPE>
1
5
255

> <PUBCHEM_BONDANNOTATIONS>
16  18  8
16  19  8
18  20  8
19  21  8
20  22  8
21  22  8
25  26  8
25  29  8
26  28  8
26  30  8
28  31  8
28  33  8
29  32  8
30  34  8
31  32  8
33  35  8
34  35  8

$$$$
