57532
  -OEChem-09292322342D

 41 42  0     1  0  0  0  0  0999 V2000
    7.6407    3.7677    0.0000 Cl  0  0  0  0  0  0  0  0  0  0  0  0
    1.5169    5.1991    0.0000 O   0  0  0  0  0  0  0  0  0  0  0  0
    4.1550    7.7337    0.0000 O   0  0  0  0  0  0  0  0  0  0  0  0
    1.5169    3.1298    0.0000 N   0  0  3  0  0  0  0  0  0  0  0  0
    2.4109    3.6645    0.0000 C   0  0  1  0  0  0  0  0  0  0  0  0
    2.4109    4.6645    0.0000 C   0  0  1  0  0  0  0  0  0  0  0  0
    3.2769    3.1645    0.0000 C   0  0  0  0  0  0  0  0  0  0  0  0
    4.1429    3.6645    0.0000 C   0  0  0  0  0  0  0  0  0  0  0  0
    3.2769    5.1645    0.0000 C   0  0  0  0  0  0  0  0  0  0  0  0
    0.6109    3.6436    0.0000 C   0  0  0  0  0  0  0  0  0  0  0  0
    4.1429    4.6645    0.0000 C   0  0  0  0  0  0  0  0  0  0  0  0
    0.6109    4.6853    0.0000 C   0  0  0  0  0  0  0  0  0  0  0  0
    1.5285    2.1299    0.0000 C   0  0  0  0  0  0  0  0  0  0  0  0
    3.2608    6.2060    0.0000 C   0  0  0  0  0  0  0  0  0  0  0  0
    0.6683    1.6199    0.0000 C   0  0  0  0  0  0  0  0  0  0  0  0
    5.0529    5.1713    0.0000 C   0  0  0  0  0  0  0  0  0  0  0  0
    4.1589    6.7337    0.0000 C   0  0  0  0  0  0  0  0  0  0  0  0
    5.0610    6.2129    0.0000 C   0  0  0  0  0  0  0  0  0  0  0  0
    0.6799    0.6200    0.0000 C   0  0  0  0  0  0  0  0  0  0  0  0
    2.4174    2.8145    0.0000 H   0  0  0  0  0  0  0  0  0  0  0  0
    2.4174    5.5144    0.0000 H   0  0  0  0  0  0  0  0  0  0  0  0
    2.8784    2.6895    0.0000 H   0  0  0  0  0  0  0  0  0  0  0  0
    3.6754    2.6895    0.0000 H   0  0  0  0  0  0  0  0  0  0  0  0
    4.3550    3.0819    0.0000 H   0  0  0  0  0  0  0  0  0  0  0  0
    4.7535    3.7721    0.0000 H   0  0  0  0  0  0  0  0  0  0  0  0
    0.0000    3.7497    0.0000 H   0  0  0  0  0  0  0  0  0  0  0  0
    0.4018    3.0600    0.0000 H   0  0  0  0  0  0  0  0  0  0  0  0
    0.4018    5.2690    0.0000 H   0  0  0  0  0  0  0  0  0  0  0  0
    0.0000    4.5792    0.0000 H   0  0  0  0  0  0  0  0  0  0  0  0
    1.7473    1.5498    0.0000 H   0  0  0  0  0  0  0  0  0  0  0  0
    2.1378    2.2446    0.0000 H   0  0  0  0  0  0  0  0  0  0  0  0
    2.7204    6.5097    0.0000 H   0  0  0  0  0  0  0  0  0  0  0  0
    0.4495    2.2000    0.0000 H   0  0  0  0  0  0  0  0  0  0  0  0
    0.0590    1.5052    0.0000 H   0  0  0  0  0  0  0  0  0  0  0  0
    5.5862    4.8551    0.0000 H   0  0  0  0  0  0  0  0  0  0  0  0
    5.5991    6.5208    0.0000 H   0  0  0  0  0  0  0  0  0  0  0  0
    0.0599    0.6128    0.0000 H   0  0  0  0  0  0  0  0  0  0  0  0
    0.6870    0.0000    0.0000 H   0  0  0  0  0  0  0  0  0  0  0  0
    1.2998    0.6271    0.0000 H   0  0  0  0  0  0  0  0  0  0  0  0
    4.6908    8.0458    0.0000 H   0  0  0  0  0  0  0  0  0  0  0  0
    8.6407    3.7677    0.0000 H   0  0  0  0  0  0  0  0  0  0  0  0
  1 41  1  0  0  0  0
  2  6  1  0  0  0  0
  2 12  1  0  0  0  0
  3 17  1  0  0  0  0
  3 40  1  0  0  0  0
  4  5  1  0  0  0  0
  4 10  1  0  0  0  0
  4 13  1  0  0  0  0
  5  6  1  0  0  0  0
  5  7  1  0  0  0  0
  5 20  1  6  0  0  0
  6  9  1  0  0  0  0
  6 21  1  1  0  0  0
  7  8  1  0  0  0  0
  7 22  1  0  0  0  0
  7 23  1  0  0  0  0
  8 11  1  0  0  0  0
  8 24  1  0  0  0  0
  8 25  1  0  0  0  0
  9 11  2  0  0  0  0
  9 14  1  0  0  0  0
 10 12  1  0  0  0  0
 10 26  1  0  0  0  0
 10 27  1  0  0  0  0
 11 16  1  0  0  0  0
 12 28  1  0  0  0  0
 12 29  1  0  0  0  0
 13 15  1  0  0  0  0
 13 30  1  0  0  0  0
 13 31  1  0  0  0  0
 14 17  2  0  0  0  0
 14 32  1  0  0  0  0
 15 19  1  0  0  0  0
 15 33  1  0  0  0  0
 15 34  1  0  0  0  0
 16 18  2  0  0  0  0
 16 35  1  0  0  0  0
 17 18  1  0  0  0  0
 18 36  1  0  0  0  0
 19 37  1  0  0  0  0
 19 38  1  0  0  0  0
 19 39  1  0  0  0  0
M  END
> <PUBCHEM_COMPOUND_CID>
57532

> <PUBCHEM_COMPOUND_CANONICALIZED>
1

> <PUBCHEM_CACTVS_COMPLEXITY>
284

> <PUBCHEM_CACTVS_HBOND_ACCEPTOR>
3

> <PUBCHEM_CACTVS_HBOND_DONOR>
2

> <PUBCHEM_CACTVS_ROTATABLE_BOND>
2

> <PUBCHEM_CACTVS_SUBSKEYS>
AAADceByMAAEAAAAAAAAAAAAAAAAAAAAAAA8YIAAAAAAAADxAAAAHgAACAAADDzhmAYyBoMABgCAAiBCAAACAAAgIAAIiAAOCIgKJiKCsRuHcAAkwBGYuAfQ0LMOoAABAAAQAABQAAKAADAgAAAAAAAAAA==

> <PUBCHEM_IUPAC_OPENEYE_NAME>
(4aR,10bR)-4-propyl-2,3,4a,5,6,10b-hexahydrobenzo[h][1,4]benzoxazin-9-ol;hydrochloride

> <PUBCHEM_IUPAC_CAS_NAME>
(4aR,10bR)-4-propyl-2,3,4a,5,6,10b-hexahydrobenzo[h][1,4]benzoxazin-9-ol;hydrochloride

> <PUBCHEM_IUPAC_NAME_MARKUP>
(4<I>a</I><I>R</I>,10<I>b</I><I>R</I>)-4-propyl-2,3,4<I>a</I>,5,6,10<I>b</I>-hexahydrobenzo[h][1,4]benzoxazin-9-ol;hydrochloride

> <PUBCHEM_IUPAC_NAME>
(4aR,10bR)-4-propyl-2,3,4a,5,6,10b-hexahydrobenzo[h][1,4]benzoxazin-9-ol;hydrochloride

> <PUBCHEM_IUPAC_SYSTEMATIC_NAME>
(4aR,10bR)-4-propyl-2,3,4a,5,6,10b-hexahydrobenzo[h][1,4]benzoxazin-9-ol;hydrochloride

> <PUBCHEM_IUPAC_TRADITIONAL_NAME>
(4aR,10bR)-4-propyl-2,3,4a,5,6,10b-hexahydrobenzo[h][1,4]benzoxazin-9-ol;hydrochloride

> <PUBCHEM_IUPAC_INCHI>
InChI=1S/C15H21NO2.ClH/c1-2-7-16-8-9-18-15-13-10-12(17)5-3-11(13)4-6-14(15)16;/h3,5,10,14-15,17H,2,4,6-9H2,1H3;1H/t14-,15-;/m1./s1

> <PUBCHEM_IUPAC_INCHIKEY>
NNEACMQMRLNNIL-CTHHTMFSSA-N

> <PUBCHEM_EXACT_MASS>
283.1339066

> <PUBCHEM_MOLECULAR_FORMULA>
C15H22ClNO2

> <PUBCHEM_MOLECULAR_WEIGHT>
283.79

> <PUBCHEM_OPENEYE_CAN_SMILES>
CCCN1CCOC2C1CCC3=C2C=C(C=C3)O.Cl

> <PUBCHEM_OPENEYE_ISO_SMILES>
CCCN1CCO[C@H]2[C@H]1CCC3=C2C=C(C=C3)O.Cl

> <PUBCHEM_CACTVS_TPSA>
32.7

> <PUBCHEM_MONOISOTOPIC_WEIGHT>
283.1339066

> <PUBCHEM_TOTAL_CHARGE>
0

> <PUBCHEM_HEAVY_ATOM_COUNT>
19

> <PUBCHEM_ATOM_DEF_STEREO_COUNT>
2

> <PUBCHEM_ATOM_UDEF_STEREO_COUNT>
0

> <PUBCHEM_BOND_DEF_STEREO_COUNT>
0

> <PUBCHEM_BOND_UDEF_STEREO_COUNT>
0

> <PUBCHEM_ISOTOPIC_ATOM_COUNT>
0

> <PUBCHEM_COMPONENT_COUNT>
2

> <PUBCHEM_CACTVS_TAUTO_COUNT>
3

> <PUBCHEM_COORDINATE_TYPE>
1
5
255

> <PUBCHEM_BONDANNOTATIONS>
11  16  8
14  17  8
16  18  8
17  18  8
5  20  6
6  21  5
9  11  8
9  14  8

$$$$
