90644059
  -OEChem-09292322472D

 48 51  0     1  0  0  0  0  0999 V2000
   13.7619   -0.8776    0.0000 Cl  0  0  0  0  0  0  0  0  0  0  0  0
    4.9889    1.7436    0.0000 O   0  0  0  0  0  0  0  0  0  0  0  0
    7.7619   -0.8776    0.0000 N   0  0  0  0  0  0  0  0  0  0  0  0
    9.7619   -0.8776    0.0000 N   0  0  0  0  0  0  0  0  0  0  0  0
    5.2619   -0.0116    0.0000 C   0  0  3  0  0  0  0  0  0  0  0  0
    6.2619   -0.0116    0.0000 C   0  0  0  0  0  0  0  0  0  0  0  0
    6.7619   -0.8776    0.0000 C   0  0  0  0  0  0  0  0  0  0  0  0
    8.2619   -0.0116    0.0000 C   0  0  0  0  0  0  0  0  0  0  0  0
    8.2619   -1.7436    0.0000 C   0  0  0  0  0  0  0  0  0  0  0  0
    4.6783   -0.8163    0.0000 C   0  0  0  0  0  0  0  0  0  0  0  0
    9.2619   -0.0116    0.0000 C   0  0  0  0  0  0  0  0  0  0  0  0
    9.2619   -1.7436    0.0000 C   0  0  0  0  0  0  0  0  0  0  0  0
    4.6783    0.7931    0.0000 C   0  0  0  0  0  0  0  0  0  0  0  0
    3.7320   -0.5116    0.0000 C   0  0  0  0  0  0  0  0  0  0  0  0
    3.7320    0.4884    0.0000 C   0  0  0  0  0  0  0  0  0  0  0  0
   10.7619   -0.8776    0.0000 C   0  0  0  0  0  0  0  0  0  0  0  0
    2.8660   -1.0116    0.0000 C   0  0  0  0  0  0  0  0  0  0  0  0
    2.8660    0.9884    0.0000 C   0  0  0  0  0  0  0  0  0  0  0  0
    2.0000   -0.5116    0.0000 C   0  0  0  0  0  0  0  0  0  0  0  0
    2.0000    0.4884    0.0000 C   0  0  0  0  0  0  0  0  0  0  0  0
   11.2619   -0.0116    0.0000 C   0  0  0  0  0  0  0  0  0  0  0  0
   11.2619   -1.7436    0.0000 C   0  0  0  0  0  0  0  0  0  0  0  0
   12.2619   -0.0116    0.0000 C   0  0  0  0  0  0  0  0  0  0  0  0
   12.2619   -1.7436    0.0000 C   0  0  0  0  0  0  0  0  0  0  0  0
   12.7619   -0.8776    0.0000 C   0  0  0  0  0  0  0  0  0  0  0  0
    5.5436   -0.5639    0.0000 H   0  0  0  0  0  0  0  0  0  0  0  0
    6.8445    0.2005    0.0000 H   0  0  0  0  0  0  0  0  0  0  0  0
    6.1542    0.5990    0.0000 H   0  0  0  0  0  0  0  0  0  0  0  0
    6.1793   -1.0897    0.0000 H   0  0  0  0  0  0  0  0  0  0  0  0
    6.8695   -1.4882    0.0000 H   0  0  0  0  0  0  0  0  0  0  0  0
    8.3695    0.5990    0.0000 H   0  0  0  0  0  0  0  0  0  0  0  0
    7.6793    0.2005    0.0000 H   0  0  0  0  0  0  0  0  0  0  0  0
    7.6793   -1.9557    0.0000 H   0  0  0  0  0  0  0  0  0  0  0  0
    8.3695   -2.3542    0.0000 H   0  0  0  0  0  0  0  0  0  0  0  0
    4.4272   -1.3832    0.0000 H   0  0  0  0  0  0  0  0  0  0  0  0
    5.2156   -1.1256    0.0000 H   0  0  0  0  0  0  0  0  0  0  0  0
    9.8445    0.2005    0.0000 H   0  0  0  0  0  0  0  0  0  0  0  0
    9.1542    0.5990    0.0000 H   0  0  0  0  0  0  0  0  0  0  0  0
    9.1542   -2.3542    0.0000 H   0  0  0  0  0  0  0  0  0  0  0  0
    9.8445   -1.9557    0.0000 H   0  0  0  0  0  0  0  0  0  0  0  0
    2.8660   -1.6316    0.0000 H   0  0  0  0  0  0  0  0  0  0  0  0
    2.8660    1.6084    0.0000 H   0  0  0  0  0  0  0  0  0  0  0  0
    1.4631   -0.8216    0.0000 H   0  0  0  0  0  0  0  0  0  0  0  0
    1.4631    0.7984    0.0000 H   0  0  0  0  0  0  0  0  0  0  0  0
   10.9519    0.5253    0.0000 H   0  0  0  0  0  0  0  0  0  0  0  0
   10.9519   -2.2806    0.0000 H   0  0  0  0  0  0  0  0  0  0  0  0
   12.5719    0.5253    0.0000 H   0  0  0  0  0  0  0  0  0  0  0  0
   12.5719   -2.2806    0.0000 H   0  0  0  0  0  0  0  0  0  0  0  0
  1 25  1  0  0  0  0
  2 13  2  0  0  0  0
  3  7  1  0  0  0  0
  3  8  1  0  0  0  0
  3  9  1  0  0  0  0
  4 11  1  0  0  0  0
  4 12  1  0  0  0  0
  4 16  1  0  0  0  0
  5  6  1  0  0  0  0
  5 10  1  0  0  0  0
  5 13  1  0  0  0  0
  5 26  1  0  0  0  0
  6  7  1  0  0  0  0
  6 27  1  0  0  0  0
  6 28  1  0  0  0  0
  7 29  1  0  0  0  0
  7 30  1  0  0  0  0
  8 11  1  0  0  0  0
  8 31  1  0  0  0  0
  8 32  1  0  0  0  0
  9 12  1  0  0  0  0
  9 33  1  0  0  0  0
  9 34  1  0  0  0  0
 10 14  1  0  0  0  0
 10 35  1  0  0  0  0
 10 36  1  0  0  0  0
 11 37  1  0  0  0  0
 11 38  1  0  0  0  0
 12 39  1  0  0  0  0
 12 40  1  0  0  0  0
 13 15  1  0  0  0  0
 14 15  1  0  0  0  0
 14 17  2  0  0  0  0
 15 18  2  0  0  0  0
 16 21  2  0  0  0  0
 16 22  1  0  0  0  0
 17 19  1  0  0  0  0
 17 41  1  0  0  0  0
 18 20  1  0  0  0  0
 18 42  1  0  0  0  0
 19 20  2  0  0  0  0
 19 43  1  0  0  0  0
 20 44  1  0  0  0  0
 21 23  1  0  0  0  0
 21 45  1  0  0  0  0
 22 24  2  0  0  0  0
 22 46  1  0  0  0  0
 23 25  2  0  0  0  0
 23 47  1  0  0  0  0
 24 25  1  0  0  0  0
 24 48  1  0  0  0  0
M  END
> <PUBCHEM_COMPOUND_CID>
90644059

> <PUBCHEM_COMPOUND_CANONICALIZED>
1

> <PUBCHEM_CACTVS_COMPLEXITY>
455

> <PUBCHEM_CACTVS_HBOND_ACCEPTOR>
3

> <PUBCHEM_CACTVS_HBOND_DONOR>
0

> <PUBCHEM_CACTVS_ROTATABLE_BOND>
4

> <PUBCHEM_CACTVS_SUBSKEYS>
AAADceB7IAAEAAAAAAAAAAAAAAAAAYAAAAA8YIAAAAAAAGABQAAAHgIAAAAADQ7BmCQwwIMAAACIAqRSQACCAAAlBwAIiAEIZsgIYDLBl5GUIQhggADIyYcciMCOgABAAAAQAAAAAIAAACAAAQAACAAAAA==

> <PUBCHEM_IUPAC_OPENEYE_NAME>
2-[2-[4-(4-chlorophenyl)piperazin-1-yl]ethyl]indan-1-one

> <PUBCHEM_IUPAC_CAS_NAME>
2-[2-[4-(4-chlorophenyl)-1-piperazinyl]ethyl]-2,3-dihydroinden-1-one

> <PUBCHEM_IUPAC_NAME_MARKUP>
2-[2-[4-(4-chlorophenyl)piperazin-1-yl]ethyl]-2,3-dihydroinden-1-one

> <PUBCHEM_IUPAC_NAME>
2-[2-[4-(4-chlorophenyl)piperazin-1-yl]ethyl]-2,3-dihydroinden-1-one

> <PUBCHEM_IUPAC_SYSTEMATIC_NAME>
2-[2-[4-(4-chlorophenyl)piperazin-1-yl]ethyl]-2,3-dihydroinden-1-one

> <PUBCHEM_IUPAC_TRADITIONAL_NAME>
2-[2-[4-(4-chlorophenyl)piperazino]ethyl]indan-1-one

> <PUBCHEM_IUPAC_INCHI>
InChI=1S/C21H23ClN2O/c22-18-5-7-19(8-6-18)24-13-11-23(12-14-24)10-9-17-15-16-3-1-2-4-20(16)21(17)25/h1-8,17H,9-15H2

> <PUBCHEM_IUPAC_INCHIKEY>
CPFAMVVFLCOFSK-UHFFFAOYSA-N

> <PUBCHEM_XLOGP3_AA>
4.3

> <PUBCHEM_EXACT_MASS>
354.1498911

> <PUBCHEM_MOLECULAR_FORMULA>
C21H23ClN2O

> <PUBCHEM_MOLECULAR_WEIGHT>
354.9

> <PUBCHEM_OPENEYE_CAN_SMILES>
C1CN(CCN1CCC2CC3=CC=CC=C3C2=O)C4=CC=C(C=C4)Cl

> <PUBCHEM_OPENEYE_ISO_SMILES>
C1CN(CCN1CCC2CC3=CC=CC=C3C2=O)C4=CC=C(C=C4)Cl

> <PUBCHEM_CACTVS_TPSA>
23.6

> <PUBCHEM_MONOISOTOPIC_WEIGHT>
354.1498911

> <PUBCHEM_TOTAL_CHARGE>
0

> <PUBCHEM_HEAVY_ATOM_COUNT>
25

> <PUBCHEM_ATOM_DEF_STEREO_COUNT>
0

> <PUBCHEM_ATOM_UDEF_STEREO_COUNT>
1

> <PUBCHEM_BOND_DEF_STEREO_COUNT>
0

> <PUBCHEM_BOND_UDEF_STEREO_COUNT>
0

> <PUBCHEM_ISOTOPIC_ATOM_COUNT>
0

> <PUBCHEM_COMPONENT_COUNT>
1

> <PUBCHEM_CACTVS_TAUTO_COUNT>
-1

> <PUBCHEM_COORDINATE_TYPE>
1
5
255

> <PUBCHEM_BONDANNOTATIONS>
14  15  8
14  17  8
15  18  8
16  21  8
16  22  8
17  19  8
18  20  8
19  20  8
21  23  8
22  24  8
23  25  8
24  25  8
5  6  3

$$$$
