137638973
  -OEChem-09292322002D

 64 67  0     1  0  0  0  0  0999 V2000
   15.5614   -3.1291    0.0000 O   0  0  0  0  0  0  0  0  0  0  0  0
    7.7508   -0.5945    0.0000 O   0  0  0  0  0  0  0  0  0  0  0  0
    2.6067    3.3175    0.0000 O   0  0  0  0  0  0  0  0  0  0  0  0
   12.0809   -0.0945    0.0000 N   0  0  3  0  0  0  0  0  0  0  0  0
    5.1527   -0.0945    0.0000 N   0  0  0  0  0  0  0  0  0  0  0  0
    4.2065   -0.3993    0.0000 N   0  0  0  0  0  0  0  0  0  0  0  0
    2.9173    2.3669    0.0000 N   0  0  0  0  0  0  0  0  0  0  0  0
   12.9470   -0.5945    0.0000 C   0  0  1  0  0  0  0  0  0  0  0  0
   12.9470   -1.5945    0.0000 C   0  0  0  0  0  0  0  0  0  0  0  0
   13.8130   -0.0945    0.0000 C   0  0  0  0  0  0  0  0  0  0  0  0
   13.8130   -2.0945    0.0000 C   0  0  0  0  0  0  0  0  0  0  0  0
   14.6790   -0.5945    0.0000 C   0  0  0  0  0  0  0  0  0  0  0  0
   14.6790   -1.5945    0.0000 C   0  0  0  0  0  0  0  0  0  0  0  0
   11.2149   -0.5945    0.0000 C   0  0  0  0  0  0  0  0  0  0  0  0
   12.0809    0.9055    0.0000 C   0  0  0  0  0  0  0  0  0  0  0  0
   10.3489   -0.0945    0.0000 C   0  0  0  0  0  0  0  0  0  0  0  0
   11.2149    1.4055    0.0000 C   0  0  0  0  0  0  0  0  0  0  0  0
   15.5729   -0.0599    0.0000 C   0  0  0  0  0  0  0  0  0  0  0  0
   15.5729   -2.1292    0.0000 C   0  0  0  0  0  0  0  0  0  0  0  0
    9.4828   -0.5945    0.0000 C   0  0  0  0  0  0  0  0  0  0  0  0
   16.4790   -0.5737    0.0000 C   0  0  0  0  0  0  0  0  0  0  0  0
   16.4790   -1.6154    0.0000 C   0  0  0  0  0  0  0  0  0  0  0  0
   11.2149    2.4055    0.0000 C   0  0  0  0  0  0  0  0  0  0  0  0
    8.6168   -0.0945    0.0000 C   0  0  0  0  0  0  0  0  0  0  0  0
    6.8848   -0.0945    0.0000 C   0  0  0  0  0  0  0  0  0  0  0  0
    6.0188   -0.5945    0.0000 C   0  0  0  0  0  0  0  0  0  0  0  0
    6.8848    0.9055    0.0000 C   0  0  0  0  0  0  0  0  0  0  0  0
    5.1527    0.9055    0.0000 C   0  0  0  0  0  0  0  0  0  0  0  0
    6.0188    1.4055    0.0000 C   0  0  0  0  0  0  0  0  0  0  0  0
    4.2065    1.2102    0.0000 C   0  0  0  0  0  0  0  0  0  0  0  0
    3.6229    0.4055    0.0000 C   0  0  0  0  0  0  0  0  0  0  0  0
    3.8958    2.1607    0.0000 C   0  0  0  0  0  0  0  0  0  0  0  0
   12.9470    0.0255    0.0000 H   0  0  0  0  0  0  0  0  0  0  0  0
   12.3364   -1.4869    0.0000 H   0  0  0  0  0  0  0  0  0  0  0  0
   12.7349   -2.1771    0.0000 H   0  0  0  0  0  0  0  0  0  0  0  0
   14.2115    0.3804    0.0000 H   0  0  0  0  0  0  0  0  0  0  0  0
   13.4144    0.3804    0.0000 H   0  0  0  0  0  0  0  0  0  0  0  0
   13.4144   -2.5695    0.0000 H   0  0  0  0  0  0  0  0  0  0  0  0
   14.2115   -2.5695    0.0000 H   0  0  0  0  0  0  0  0  0  0  0  0
   10.8164   -1.0695    0.0000 H   0  0  0  0  0  0  0  0  0  0  0  0
   11.6134   -1.0695    0.0000 H   0  0  0  0  0  0  0  0  0  0  0  0
   12.6915    0.7978    0.0000 H   0  0  0  0  0  0  0  0  0  0  0  0
   12.2930    1.4881    0.0000 H   0  0  0  0  0  0  0  0  0  0  0  0
   10.7474    0.3804    0.0000 H   0  0  0  0  0  0  0  0  0  0  0  0
    9.9504    0.3804    0.0000 H   0  0  0  0  0  0  0  0  0  0  0  0
   10.6043    1.5131    0.0000 H   0  0  0  0  0  0  0  0  0  0  0  0
   11.0028    0.8229    0.0000 H   0  0  0  0  0  0  0  0  0  0  0  0
   15.5658    0.5601    0.0000 H   0  0  0  0  0  0  0  0  0  0  0  0
    9.0843   -1.0695    0.0000 H   0  0  0  0  0  0  0  0  0  0  0  0
    9.8814   -1.0695    0.0000 H   0  0  0  0  0  0  0  0  0  0  0  0
   17.0147   -0.2616    0.0000 H   0  0  0  0  0  0  0  0  0  0  0  0
   17.0147   -1.9274    0.0000 H   0  0  0  0  0  0  0  0  0  0  0  0
   11.8349    2.4055    0.0000 H   0  0  0  0  0  0  0  0  0  0  0  0
   11.2149    3.0255    0.0000 H   0  0  0  0  0  0  0  0  0  0  0  0
   10.5949    2.4055    0.0000 H   0  0  0  0  0  0  0  0  0  0  0  0
    9.0154    0.3804    0.0000 H   0  0  0  0  0  0  0  0  0  0  0  0
    8.2183    0.3804    0.0000 H   0  0  0  0  0  0  0  0  0  0  0  0
   16.0947   -3.4453    0.0000 H   0  0  0  0  0  0  0  0  0  0  0  0
    6.0188   -1.2145    0.0000 H   0  0  0  0  0  0  0  0  0  0  0  0
    7.4217    1.2155    0.0000 H   0  0  0  0  0  0  0  0  0  0  0  0
    6.0188    2.0255    0.0000 H   0  0  0  0  0  0  0  0  0  0  0  0
    3.0029    0.4055    0.0000 H   0  0  0  0  0  0  0  0  0  0  0  0
    4.3099    2.6222    0.0000 H   0  0  0  0  0  0  0  0  0  0  0  0
    2.0000    3.4453    0.0000 H   0  0  0  0  0  0  0  0  0  0  0  0
  1 19  1  0  0  0  0
  1 58  1  0  0  0  0
  2 24  1  0  0  0  0
  2 25  1  0  0  0  0
  3  7  1  0  0  0  0
  3 64  1  0  0  0  0
  8  4  1  6  0  0  0
  4 14  1  0  0  0  0
  4 15  1  0  0  0  0
  5  6  1  0  0  0  0
  5 26  1  0  0  0  0
  5 28  1  0  0  0  0
  6 31  2  0  0  0  0
  7 32  2  0  0  0  0
  8  9  1  0  0  0  0
  8 10  1  0  0  0  0
  8 33  1  0  0  0  0
  9 11  1  0  0  0  0
  9 34  1  0  0  0  0
  9 35  1  0  0  0  0
 10 12  1  0  0  0  0
 10 36  1  0  0  0  0
 10 37  1  0  0  0  0
 11 13  1  0  0  0  0
 11 38  1  0  0  0  0
 11 39  1  0  0  0  0
 12 13  2  0  0  0  0
 12 18  1  0  0  0  0
 13 19  1  0  0  0  0
 14 16  1  0  0  0  0
 14 40  1  0  0  0  0
 14 41  1  0  0  0  0
 15 17  1  0  0  0  0
 15 42  1  0  0  0  0
 15 43  1  0  0  0  0
 16 20  1  0  0  0  0
 16 44  1  0  0  0  0
 16 45  1  0  0  0  0
 17 23  1  0  0  0  0
 17 46  1  0  0  0  0
 17 47  1  0  0  0  0
 18 21  2  0  0  0  0
 18 48  1  0  0  0  0
 19 22  2  0  0  0  0
 20 24  1  0  0  0  0
 20 49  1  0  0  0  0
 20 50  1  0  0  0  0
 21 22  1  0  0  0  0
 21 51  1  0  0  0  0
 22 52  1  0  0  0  0
 23 53  1  0  0  0  0
 23 54  1  0  0  0  0
 23 55  1  0  0  0  0
 24 56  1  0  0  0  0
 24 57  1  0  0  0  0
 25 26  2  0  0  0  0
 25 27  1  0  0  0  0
 26 59  1  0  0  0  0
 27 29  2  0  0  0  0
 27 60  1  0  0  0  0
 28 29  1  0  0  0  0
 28 30  2  0  0  0  0
 29 61  1  0  0  0  0
 30 31  1  0  0  0  0
 30 32  1  0  0  0  0
 31 62  1  0  0  0  0
 32 63  1  0  0  0  0
M  END
> <PUBCHEM_COMPOUND_CID>
137638973

> <PUBCHEM_COMPOUND_CANONICALIZED>
1

> <PUBCHEM_CACTVS_COMPLEXITY>
592

> <PUBCHEM_CACTVS_HBOND_ACCEPTOR>
6

> <PUBCHEM_CACTVS_HBOND_DONOR>
2

> <PUBCHEM_CACTVS_ROTATABLE_BOND>
10

> <PUBCHEM_CACTVS_SUBSKEYS>
AAADcfB7sAAAAAAAAAAAAAAAAAAAAWAAAAA8YIAAAAAAAFjB8AAAHgAMCAAADCzhngY+xrMYFgCiAzRnRASSjCAx4iAY2CA/bJgOJuLG8duH/CjkyBHY+Aew0PMOgAABAAAYAAAQAAKAADAAAAAAAAAAAA==

> <PUBCHEM_IUPAC_OPENEYE_NAME>
(3E)-6-[4-[[(2S)-5-hydroxytetralin-2-yl]-propyl-amino]butoxy]pyrazolo[1,5-a]pyridine-3-carbaldehyde oxime

> <PUBCHEM_IUPAC_CAS_NAME>
(3E)-6-[4-[[(2S)-5-hydroxy-1,2,3,4-tetrahydronaphthalen-2-yl]-propylamino]butoxy]-3-pyrazolo[1,5-a]pyridinecarboxaldehyde oxime

> <PUBCHEM_IUPAC_NAME_MARKUP>
(6<I>S</I>)-6-[4-[3-[(<I>E</I>)-hydroxyiminomethyl]pyrazolo[1,5-a]pyridin-6-yl]oxybutyl-propylamino]-5,6,7,8-tetrahydronaphthalen-1-ol

> <PUBCHEM_IUPAC_NAME>
(6S)-6-[4-[3-[(E)-hydroxyiminomethyl]pyrazolo[1,5-a]pyridin-6-yl]oxybutyl-propylamino]-5,6,7,8-tetrahydronaphthalen-1-ol

> <PUBCHEM_IUPAC_SYSTEMATIC_NAME>
(6S)-6-[4-[3-[(E)-hydroxyiminomethyl]pyrazolo[1,5-a]pyridin-6-yl]oxybutyl-propyl-amino]-5,6,7,8-tetrahydronaphthalen-1-ol

> <PUBCHEM_IUPAC_TRADITIONAL_NAME>
(3E)-6-[4-[[(2S)-5-hydroxytetralin-2-yl]-propyl-amino]butoxy]pyrazolo[1,5-a]pyridine-3-carbaldehyde oxime

> <PUBCHEM_IUPAC_INCHI>
InChI=1S/C25H32N4O3/c1-2-12-28(21-8-10-23-19(15-21)6-5-7-25(23)30)13-3-4-14-32-22-9-11-24-20(17-27-31)16-26-29(24)18-22/h5-7,9,11,16-18,21,30-31H,2-4,8,10,12-15H2,1H3/b27-17+/t21-/m0/s1

> <PUBCHEM_IUPAC_INCHIKEY>
HBUKKEFQANLSNF-XLKFHUSGSA-N

> <PUBCHEM_XLOGP3_AA>
4.5

> <PUBCHEM_EXACT_MASS>
436.24744090

> <PUBCHEM_MOLECULAR_FORMULA>
C25H32N4O3

> <PUBCHEM_MOLECULAR_WEIGHT>
436.5

> <PUBCHEM_OPENEYE_CAN_SMILES>
CCCN(CCCCOC1=CN2C(=C(C=N2)C=NO)C=C1)C3CCC4=C(C3)C=CC=C4O

> <PUBCHEM_OPENEYE_ISO_SMILES>
CCCN(CCCCOC1=CN2C(=C(C=N2)/C=N/O)C=C1)[C@H]3CCC4=C(C3)C=CC=C4O

> <PUBCHEM_CACTVS_TPSA>
82.6

> <PUBCHEM_MONOISOTOPIC_WEIGHT>
436.24744090

> <PUBCHEM_TOTAL_CHARGE>
0

> <PUBCHEM_HEAVY_ATOM_COUNT>
32

> <PUBCHEM_ATOM_DEF_STEREO_COUNT>
1

> <PUBCHEM_ATOM_UDEF_STEREO_COUNT>
0

> <PUBCHEM_BOND_DEF_STEREO_COUNT>
1

> <PUBCHEM_BOND_UDEF_STEREO_COUNT>
0

> <PUBCHEM_ISOTOPIC_ATOM_COUNT>
0

> <PUBCHEM_COMPONENT_COUNT>
1

> <PUBCHEM_CACTVS_TAUTO_COUNT>
-1

> <PUBCHEM_COORDINATE_TYPE>
1
5
255

> <PUBCHEM_BONDANNOTATIONS>
12  13  8
12  18  8
13  19  8
18  21  8
19  22  8
21  22  8
25  26  8
25  27  8
27  29  8
28  29  8
28  30  8
30  31  8
8  4  6
5  26  8
5  28  8
5  6  8
6  31  8

$$$$
