10425024
  -OEChem-09292321582D

 45 47  0     1  0  0  0  0  0999 V2000
    3.7320    1.4050    0.0000 N   0  0  3  0  0  0  0  0  0  0  0  0
    2.8660   -6.0950    0.0000 N   0  0  0  0  0  0  0  0  0  0  0  0
    2.8660    1.9050    0.0000 C   0  0  0  0  0  0  0  0  0  0  0  0
    2.8660    2.9050    0.0000 C   0  0  0  0  0  0  0  0  0  0  0  0
    4.5981    1.9050    0.0000 C   0  0  0  0  0  0  0  0  0  0  0  0
    3.7320    3.4050    0.0000 C   0  0  0  0  0  0  0  0  0  0  0  0
    3.7320    0.4050    0.0000 C   0  0  0  0  0  0  0  0  0  0  0  0
    4.5981    2.9050    0.0000 C   0  0  0  0  0  0  0  0  0  0  0  0
    3.7320    4.4050    0.0000 C   0  0  0  0  0  0  0  0  0  0  0  0
    2.8660   -0.0950    0.0000 C   0  0  0  0  0  0  0  0  0  0  0  0
    2.8660    4.9050    0.0000 C   0  0  0  0  0  0  0  0  0  0  0  0
    4.5981    4.9050    0.0000 C   0  0  0  0  0  0  0  0  0  0  0  0
    2.8660   -1.0950    0.0000 C   0  0  0  0  0  0  0  0  0  0  0  0
    2.8660    5.9050    0.0000 C   0  0  0  0  0  0  0  0  0  0  0  0
    4.5981    5.9050    0.0000 C   0  0  0  0  0  0  0  0  0  0  0  0
    3.7320    6.4050    0.0000 C   0  0  0  0  0  0  0  0  0  0  0  0
    2.8660   -2.0950    0.0000 C   0  0  0  0  0  0  0  0  0  0  0  0
    2.8660   -3.0950    0.0000 C   0  0  0  0  0  0  0  0  0  0  0  0
    3.7320   -3.5950    0.0000 C   0  0  0  0  0  0  0  0  0  0  0  0
    2.0000   -3.5950    0.0000 C   0  0  0  0  0  0  0  0  0  0  0  0
    3.7320   -4.5950    0.0000 C   0  0  0  0  0  0  0  0  0  0  0  0
    2.0000   -4.5950    0.0000 C   0  0  0  0  0  0  0  0  0  0  0  0
    2.8660   -5.0950    0.0000 C   0  0  0  0  0  0  0  0  0  0  0  0
    2.2554    2.0127    0.0000 H   0  0  0  0  0  0  0  0  0  0  0  0
    2.6540    1.3224    0.0000 H   0  0  0  0  0  0  0  0  0  0  0  0
    2.6540    3.4876    0.0000 H   0  0  0  0  0  0  0  0  0  0  0  0
    2.2554    2.7973    0.0000 H   0  0  0  0  0  0  0  0  0  0  0  0
    4.8101    1.3224    0.0000 H   0  0  0  0  0  0  0  0  0  0  0  0
    5.2087    2.0127    0.0000 H   0  0  0  0  0  0  0  0  0  0  0  0
    3.9441   -0.1776    0.0000 H   0  0  0  0  0  0  0  0  0  0  0  0
    4.3426    0.5127    0.0000 H   0  0  0  0  0  0  0  0  0  0  0  0
    5.1350    3.2150    0.0000 H   0  0  0  0  0  0  0  0  0  0  0  0
    2.6540    0.4876    0.0000 H   0  0  0  0  0  0  0  0  0  0  0  0
    2.2554   -0.2027    0.0000 H   0  0  0  0  0  0  0  0  0  0  0  0
    2.3291    4.5950    0.0000 H   0  0  0  0  0  0  0  0  0  0  0  0
    5.1350    4.5950    0.0000 H   0  0  0  0  0  0  0  0  0  0  0  0
    2.3291    6.2150    0.0000 H   0  0  0  0  0  0  0  0  0  0  0  0
    5.1350    6.2150    0.0000 H   0  0  0  0  0  0  0  0  0  0  0  0
    3.7320    7.0250    0.0000 H   0  0  0  0  0  0  0  0  0  0  0  0
    4.2690   -3.2850    0.0000 H   0  0  0  0  0  0  0  0  0  0  0  0
    1.4631   -3.2850    0.0000 H   0  0  0  0  0  0  0  0  0  0  0  0
    4.2690   -4.9050    0.0000 H   0  0  0  0  0  0  0  0  0  0  0  0
    1.4631   -4.9050    0.0000 H   0  0  0  0  0  0  0  0  0  0  0  0
    2.3291   -6.4050    0.0000 H   0  0  0  0  0  0  0  0  0  0  0  0
    3.4030   -6.4050    0.0000 H   0  0  0  0  0  0  0  0  0  0  0  0
  1  3  1  0  0  0  0
  1  5  1  0  0  0  0
  1  7  1  0  0  0  0
  2 23  1  0  0  0  0
  2 44  1  0  0  0  0
  2 45  1  0  0  0  0
  3  4  1  0  0  0  0
  3 24  1  0  0  0  0
  3 25  1  0  0  0  0
  4  6  1  0  0  0  0
  4 26  1  0  0  0  0
  4 27  1  0  0  0  0
  5  8  1  0  0  0  0
  5 28  1  0  0  0  0
  5 29  1  0  0  0  0
  6  8  2  0  0  0  0
  6  9  1  0  0  0  0
  7 10  1  0  0  0  0
  7 30  1  0  0  0  0
  7 31  1  0  0  0  0
  8 32  1  0  0  0  0
  9 11  2  0  0  0  0
  9 12  1  0  0  0  0
 10 13  1  0  0  0  0
 10 33  1  0  0  0  0
 10 34  1  0  0  0  0
 11 14  1  0  0  0  0
 11 35  1  0  0  0  0
 12 15  2  0  0  0  0
 12 36  1  0  0  0  0
 13 17  3  0  0  0  0
 14 16  2  0  0  0  0
 14 37  1  0  0  0  0
 15 16  1  0  0  0  0
 15 38  1  0  0  0  0
 16 39  1  0  0  0  0
 17 18  1  0  0  0  0
 18 19  2  0  0  0  0
 18 20  1  0  0  0  0
 19 21  1  0  0  0  0
 19 40  1  0  0  0  0
 20 22  2  0  0  0  0
 20 41  1  0  0  0  0
 21 23  2  0  0  0  0
 21 42  1  0  0  0  0
 22 23  1  0  0  0  0
 22 43  1  0  0  0  0
M  END
> <PUBCHEM_COMPOUND_CID>
10425024

> <PUBCHEM_COMPOUND_CANONICALIZED>
1

> <PUBCHEM_CACTVS_COMPLEXITY>
453

> <PUBCHEM_CACTVS_HBOND_ACCEPTOR>
2

> <PUBCHEM_CACTVS_HBOND_DONOR>
1

> <PUBCHEM_CACTVS_ROTATABLE_BOND>
4

> <PUBCHEM_CACTVS_SUBSKEYS>
AAADceB7AAAAAAAAAAAAAAAAAAAAAAAAAAAwYIAAAAAAAAABQAAAHAAQAAAADAjBGAQwwINAAADAEiRCQAiCAAAgAgAIiAAIZIgIICKAkZGEIABgkACIyAcQgIAOCAAAAAAAAAAQAAAAAAAAAAAAAAAAAA==

> <PUBCHEM_IUPAC_OPENEYE_NAME>
4-[4-(4-phenyl-3,6-dihydro-2H-pyridin-1-yl)but-1-ynyl]aniline

> <PUBCHEM_IUPAC_CAS_NAME>
4-[4-(4-phenyl-3,6-dihydro-2H-pyridin-1-yl)but-1-ynyl]aniline

> <PUBCHEM_IUPAC_NAME_MARKUP>
4-[4-(4-phenyl-3,6-dihydro-2<I>H</I>-pyridin-1-yl)but-1-ynyl]aniline

> <PUBCHEM_IUPAC_NAME>
4-[4-(4-phenyl-3,6-dihydro-2H-pyridin-1-yl)but-1-ynyl]aniline

> <PUBCHEM_IUPAC_SYSTEMATIC_NAME>
4-[4-(4-phenyl-3,6-dihydro-2H-pyridin-1-yl)but-1-ynyl]aniline

> <PUBCHEM_IUPAC_TRADITIONAL_NAME>
[4-[4-(4-phenyl-3,6-dihydro-2H-pyridin-1-yl)but-1-ynyl]phenyl]amine

> <PUBCHEM_IUPAC_INCHI>
InChI=1S/C21H22N2/c22-21-11-9-18(10-12-21)6-4-5-15-23-16-13-20(14-17-23)19-7-2-1-3-8-19/h1-3,7-13H,5,14-17,22H2

> <PUBCHEM_IUPAC_INCHIKEY>
STFIELBPKGAKNX-UHFFFAOYSA-N

> <PUBCHEM_XLOGP3>
4.5

> <PUBCHEM_EXACT_MASS>
302.178298710

> <PUBCHEM_MOLECULAR_FORMULA>
C21H22N2

> <PUBCHEM_MOLECULAR_WEIGHT>
302.4

> <PUBCHEM_OPENEYE_CAN_SMILES>
C1CN(CC=C1C2=CC=CC=C2)CCC#CC3=CC=C(C=C3)N

> <PUBCHEM_OPENEYE_ISO_SMILES>
C1CN(CC=C1C2=CC=CC=C2)CCC#CC3=CC=C(C=C3)N

> <PUBCHEM_CACTVS_TPSA>
29.3

> <PUBCHEM_MONOISOTOPIC_WEIGHT>
302.178298710

> <PUBCHEM_TOTAL_CHARGE>
0

> <PUBCHEM_HEAVY_ATOM_COUNT>
23

> <PUBCHEM_ATOM_DEF_STEREO_COUNT>
0

> <PUBCHEM_ATOM_UDEF_STEREO_COUNT>
0

> <PUBCHEM_BOND_DEF_STEREO_COUNT>
0

> <PUBCHEM_BOND_UDEF_STEREO_COUNT>
0

> <PUBCHEM_ISOTOPIC_ATOM_COUNT>
0

> <PUBCHEM_COMPONENT_COUNT>
1

> <PUBCHEM_CACTVS_TAUTO_COUNT>
-1

> <PUBCHEM_COORDINATE_TYPE>
1
5
255

> <PUBCHEM_BONDANNOTATIONS>
11  14  8
12  15  8
14  16  8
15  16  8
18  19  8
18  20  8
19  21  8
20  22  8
21  23  8
22  23  8
9  11  8
9  12  8

$$$$
