155534152
  -OEChem-09292322402D

 46 48  0     0  0  0  0  0  0999 V2000
    7.8536    4.4811    0.0000 Cl  0  0  0  0  0  0  0  0  0  0  0  0
    3.5259    3.4409    0.0000 S   0  0  0  0  0  0  0  0  0  0  0  0
    4.4764    3.7516    0.0000 O   0  0  0  0  0  0  0  0  0  0  0  0
    2.5753    3.1302    0.0000 O   0  0  0  0  0  0  0  0  0  0  0  0
    3.2152    4.3914    0.0000 N   0  0  0  0  0  0  0  0  0  0  0  0
    3.5287    8.5694    0.0000 N   0  0  0  0  0  0  0  0  0  0  0  0
    4.4775    7.2588    0.0000 N   0  0  0  0  0  0  0  0  0  0  0  0
    5.2892    8.8451    0.0000 N   0  0  0  0  0  0  0  0  0  0  0  0
    3.2152    6.0009    0.0000 C   0  0  0  0  0  0  0  0  0  0  0  0
    2.2690    4.6961    0.0000 C   0  0  0  0  0  0  0  0  0  0  0  0
    2.2690    5.6961    0.0000 C   0  0  0  0  0  0  0  0  0  0  0  0
    3.7988    5.1961    0.0000 C   0  0  0  0  0  0  0  0  0  0  0  0
    3.5259    6.9514    0.0000 C   0  0  0  0  0  0  0  0  0  0  0  0
    2.9395    7.7614    0.0000 C   0  0  0  0  0  0  0  0  0  0  0  0
    1.4030    4.1961    0.0000 C   0  0  0  0  0  0  0  0  0  0  0  0
    1.4030    6.1961    0.0000 C   0  0  0  0  0  0  0  0  0  0  0  0
    3.8365    2.4904    0.0000 C   0  0  0  0  0  0  0  0  0  0  0  0
    1.9395    7.7632    0.0000 C   0  0  0  0  0  0  0  0  0  0  0  0
    0.5369    4.6961    0.0000 C   0  0  0  0  0  0  0  0  0  0  0  0
    0.5369    5.6961    0.0000 C   0  0  0  0  0  0  0  0  0  0  0  0
    4.4792    8.2588    0.0000 C   0  0  0  0  0  0  0  0  0  0  0  0
    4.8150    2.2841    0.0000 C   0  0  0  0  0  0  0  0  0  0  0  0
    3.1687    1.7461    0.0000 C   0  0  0  0  0  0  0  0  0  0  0  0
    1.4410    8.6300    0.0000 C   0  0  0  0  0  0  0  0  0  0  0  0
    5.1257    1.3336    0.0000 C   0  0  0  0  0  0  0  0  0  0  0  0
    3.4794    0.7955    0.0000 C   0  0  0  0  0  0  0  0  0  0  0  0
    4.4579    0.5893    0.0000 C   0  0  0  0  0  0  0  0  0  0  0  0
    4.4188    5.1961    0.0000 H   0  0  0  0  0  0  0  0  0  0  0  0
    1.4030    3.5761    0.0000 H   0  0  0  0  0  0  0  0  0  0  0  0
    1.4030    6.8161    0.0000 H   0  0  0  0  0  0  0  0  0  0  0  0
    1.3565    7.5521    0.0000 H   0  0  0  0  0  0  0  0  0  0  0  0
    2.0461    7.1524    0.0000 H   0  0  0  0  0  0  0  0  0  0  0  0
    3.3381    9.1594    0.0000 H   0  0  0  0  0  0  0  0  0  0  0  0
    0.0000    4.3861    0.0000 H   0  0  0  0  0  0  0  0  0  0  0  0
    0.0000    6.0061    0.0000 H   0  0  0  0  0  0  0  0  0  0  0  0
    5.2291    2.7456    0.0000 H   0  0  0  0  0  0  0  0  0  0  0  0
    2.5620    1.8739    0.0000 H   0  0  0  0  0  0  0  0  0  0  0  0
    1.9785    8.9391    0.0000 H   0  0  0  0  0  0  0  0  0  0  0  0
    1.1319    9.1675    0.0000 H   0  0  0  0  0  0  0  0  0  0  0  0
    0.9035    8.3210    0.0000 H   0  0  0  0  0  0  0  0  0  0  0  0
    5.7324    1.2058    0.0000 H   0  0  0  0  0  0  0  0  0  0  0  0
    3.0653    0.3341    0.0000 H   0  0  0  0  0  0  0  0  0  0  0  0
    5.8552    8.5920    0.0000 H   0  0  0  0  0  0  0  0  0  0  0  0
    5.2255    9.4619    0.0000 H   0  0  0  0  0  0  0  0  0  0  0  0
    4.6505    0.0000    0.0000 H   0  0  0  0  0  0  0  0  0  0  0  0
    8.8536    4.4811    0.0000 H   0  0  0  0  0  0  0  0  0  0  0  0
  1 46  1  0  0  0  0
  2  3  2  0  0  0  0
  2  4  2  0  0  0  0
  2  5  1  0  0  0  0
  2 17  1  0  0  0  0
  5 10  1  0  0  0  0
  5 12  1  0  0  0  0
  6 14  1  0  0  0  0
  6 21  1  0  0  0  0
  6 33  1  0  0  0  0
  7 13  1  0  0  0  0
  7 21  2  0  0  0  0
  8 21  1  0  0  0  0
  8 43  1  0  0  0  0
  8 44  1  0  0  0  0
  9 11  1  0  0  0  0
  9 12  2  0  0  0  0
  9 13  1  0  0  0  0
 10 11  1  0  0  0  0
 10 15  2  0  0  0  0
 11 16  2  0  0  0  0
 12 28  1  0  0  0  0
 13 14  2  0  0  0  0
 14 18  1  0  0  0  0
 15 19  1  0  0  0  0
 15 29  1  0  0  0  0
 16 20  1  0  0  0  0
 16 30  1  0  0  0  0
 17 22  2  0  0  0  0
 17 23  1  0  0  0  0
 18 24  1  0  0  0  0
 18 31  1  0  0  0  0
 18 32  1  0  0  0  0
 19 20  2  0  0  0  0
 19 34  1  0  0  0  0
 20 35  1  0  0  0  0
 22 25  1  0  0  0  0
 22 36  1  0  0  0  0
 23 26  2  0  0  0  0
 23 37  1  0  0  0  0
 24 38  1  0  0  0  0
 24 39  1  0  0  0  0
 24 40  1  0  0  0  0
 25 27  2  0  0  0  0
 25 41  1  0  0  0  0
 26 27  1  0  0  0  0
 26 42  1  0  0  0  0
 27 45  1  0  0  0  0
M  END
> <PUBCHEM_COMPOUND_CID>
155534152

> <PUBCHEM_COMPOUND_CANONICALIZED>
1

> <PUBCHEM_CACTVS_COMPLEXITY>
587

> <PUBCHEM_CACTVS_HBOND_ACCEPTOR>
4

> <PUBCHEM_CACTVS_HBOND_DONOR>
3

> <PUBCHEM_CACTVS_ROTATABLE_BOND>
4

> <PUBCHEM_CACTVS_SUBSKEYS>
AAADceB7sABEAAAAAAAAAAAAAAAAAWLAAAAwYAAAAAAAAFgB/AAAHAQQQAAADAjBXgQ/0fbJkAKgAzRnZHDCgD2xEqAJ2Tg4dJiIaOLA2ZGUIAhokALIyCcQgMAOgAAAAAACAAAAAAAAAAQAAAAAAAAAAA==

> <PUBCHEM_IUPAC_OPENEYE_NAME>
4-[1-(benzenesulfonyl)indol-3-yl]-5-ethyl-1H-imidazol-2-amine;hydrochloride

> <PUBCHEM_IUPAC_CAS_NAME>
4-[1-(benzenesulfonyl)-3-indolyl]-5-ethyl-1H-imidazol-2-amine;hydrochloride

> <PUBCHEM_IUPAC_NAME_MARKUP>
4-[1-(benzenesulfonyl)indol-3-yl]-5-ethyl-1<I>H</I>-imidazol-2-amine;hydrochloride

> <PUBCHEM_IUPAC_NAME>
4-[1-(benzenesulfonyl)indol-3-yl]-5-ethyl-1H-imidazol-2-amine;hydrochloride

> <PUBCHEM_IUPAC_SYSTEMATIC_NAME>
5-ethyl-4-[1-(phenylsulfonyl)indol-3-yl]-1H-imidazol-2-amine;hydrochloride

> <PUBCHEM_IUPAC_TRADITIONAL_NAME>
[4-(1-besylindol-3-yl)-5-ethyl-1H-imidazol-2-yl]amine;hydrochloride

> <PUBCHEM_IUPAC_INCHI>
InChI=1S/C19H18N4O2S.ClH/c1-2-16-18(22-19(20)21-16)15-12-23(17-11-7-6-10-14(15)17)26(24,25)13-8-4-3-5-9-13;/h3-12H,2H2,1H3,(H3,20,21,22);1H

> <PUBCHEM_IUPAC_INCHIKEY>
CHDARNNFQGZMGX-UHFFFAOYSA-N

> <PUBCHEM_EXACT_MASS>
402.0917247

> <PUBCHEM_MOLECULAR_FORMULA>
C19H19ClN4O2S

> <PUBCHEM_MOLECULAR_WEIGHT>
402.9

> <PUBCHEM_OPENEYE_CAN_SMILES>
CCC1=C(N=C(N1)N)C2=CN(C3=CC=CC=C32)S(=O)(=O)C4=CC=CC=C4.Cl

> <PUBCHEM_OPENEYE_ISO_SMILES>
CCC1=C(N=C(N1)N)C2=CN(C3=CC=CC=C32)S(=O)(=O)C4=CC=CC=C4.Cl

> <PUBCHEM_CACTVS_TPSA>
102

> <PUBCHEM_MONOISOTOPIC_WEIGHT>
402.0917247

> <PUBCHEM_TOTAL_CHARGE>
0

> <PUBCHEM_HEAVY_ATOM_COUNT>
27

> <PUBCHEM_ATOM_DEF_STEREO_COUNT>
0

> <PUBCHEM_ATOM_UDEF_STEREO_COUNT>
0

> <PUBCHEM_BOND_DEF_STEREO_COUNT>
0

> <PUBCHEM_BOND_UDEF_STEREO_COUNT>
0

> <PUBCHEM_ISOTOPIC_ATOM_COUNT>
0

> <PUBCHEM_COMPONENT_COUNT>
2

> <PUBCHEM_CACTVS_TAUTO_COUNT>
-1

> <PUBCHEM_COORDINATE_TYPE>
1
5
255

> <PUBCHEM_BONDANNOTATIONS>
10  11  8
10  15  8
11  16  8
13  14  8
15  19  8
16  20  8
17  22  8
17  23  8
19  20  8
22  25  8
23  26  8
25  27  8
26  27  8
5  10  8
5  12  8
6  14  8
6  21  8
7  13  8
7  21  8
9  11  8
9  12  8

$$$$
