62705175
  -OEChem-09292322322D

 57 61  0     0  0  0  0  0  0999 V2000
    3.0772   -0.4388    0.0000 O   0  0  0  0  0  0  0  0  0  0  0  0
    6.7893    2.6776    0.0000 O   0  0  0  0  0  0  0  0  0  0  0  0
    6.7893   -0.3224    0.0000 N   0  0  0  0  0  0  0  0  0  0  0  0
    4.1912   -1.8224    0.0000 N   0  0  0  0  0  0  0  0  0  0  0  0
    2.6164   -2.1544    0.0000 N   0  0  0  0  0  0  0  0  0  0  0  0
    8.5214    2.6776    0.0000 N   0  0  0  0  0  0  0  0  0  0  0  0
   10.2813    2.6429    0.0000 N   0  0  0  0  0  0  0  0  0  0  0  0
    5.0573   -1.3224    0.0000 C   0  0  0  0  0  0  0  0  0  0  0  0
    5.0573   -0.3224    0.0000 C   0  0  0  0  0  0  0  0  0  0  0  0
    5.9233   -1.8224    0.0000 C   0  0  0  0  0  0  0  0  0  0  0  0
    5.9233    0.1776    0.0000 C   0  0  0  0  0  0  0  0  0  0  0  0
    6.7893   -1.3224    0.0000 C   0  0  0  0  0  0  0  0  0  0  0  0
    7.6554    0.1776    0.0000 C   0  0  0  0  0  0  0  0  0  0  0  0
    7.6554    1.1776    0.0000 C   0  0  0  0  0  0  0  0  0  0  0  0
    4.0882   -2.8112    0.0000 C   0  0  0  0  0  0  0  0  0  0  0  0
    3.2835   -1.4173    0.0000 C   0  0  0  0  0  0  0  0  0  0  0  0
    8.5214    1.6776    0.0000 C   0  0  0  0  0  0  0  0  0  0  0  0
    3.1097   -3.0174    0.0000 C   0  0  0  0  0  0  0  0  0  0  0  0
    4.7560   -3.5555    0.0000 C   0  0  0  0  0  0  0  0  0  0  0  0
    9.3874    3.1776    0.0000 C   0  0  0  0  0  0  0  0  0  0  0  0
    7.6554    3.1776    0.0000 C   0  0  0  0  0  0  0  0  0  0  0  0
    2.7990   -3.9679    0.0000 C   0  0  0  0  0  0  0  0  0  0  0  0
    7.6554    4.1776    0.0000 C   0  0  0  0  0  0  0  0  0  0  0  0
    8.5214    4.6776    0.0000 C   0  0  0  0  0  0  0  0  0  0  0  0
    9.3874    4.1776    0.0000 C   0  0  0  0  0  0  0  0  0  0  0  0
    4.4454   -4.5060    0.0000 C   0  0  0  0  0  0  0  0  0  0  0  0
    3.4669   -4.7122    0.0000 C   0  0  0  0  0  0  0  0  0  0  0  0
   10.2813    4.7122    0.0000 C   0  0  0  0  0  0  0  0  0  0  0  0
   11.1874    4.1984    0.0000 C   0  0  0  0  0  0  0  0  0  0  0  0
   11.1874    3.1567    0.0000 C   0  0  0  0  0  0  0  0  0  0  0  0
    5.0573   -1.9424    0.0000 H   0  0  0  0  0  0  0  0  0  0  0  0
    4.8452    0.2602    0.0000 H   0  0  0  0  0  0  0  0  0  0  0  0
    4.4467   -0.4301    0.0000 H   0  0  0  0  0  0  0  0  0  0  0  0
    5.5248   -2.2974    0.0000 H   0  0  0  0  0  0  0  0  0  0  0  0
    6.3218   -2.2974    0.0000 H   0  0  0  0  0  0  0  0  0  0  0  0
    6.3218    0.6525    0.0000 H   0  0  0  0  0  0  0  0  0  0  0  0
    5.5248    0.6525    0.0000 H   0  0  0  0  0  0  0  0  0  0  0  0
    7.0014   -1.9051    0.0000 H   0  0  0  0  0  0  0  0  0  0  0  0
    7.3999   -1.2148    0.0000 H   0  0  0  0  0  0  0  0  0  0  0  0
    7.8674   -0.4051    0.0000 H   0  0  0  0  0  0  0  0  0  0  0  0
    8.2659    0.2852    0.0000 H   0  0  0  0  0  0  0  0  0  0  0  0
    7.4433    1.7602    0.0000 H   0  0  0  0  0  0  0  0  0  0  0  0
    7.0448    1.0699    0.0000 H   0  0  0  0  0  0  0  0  0  0  0  0
    8.7334    1.0949    0.0000 H   0  0  0  0  0  0  0  0  0  0  0  0
    9.1320    1.7852    0.0000 H   0  0  0  0  0  0  0  0  0  0  0  0
    2.0000   -2.0874    0.0000 H   0  0  0  0  0  0  0  0  0  0  0  0
    5.3627   -3.4276    0.0000 H   0  0  0  0  0  0  0  0  0  0  0  0
    2.1923   -4.0958    0.0000 H   0  0  0  0  0  0  0  0  0  0  0  0
    7.4433    4.7602    0.0000 H   0  0  0  0  0  0  0  0  0  0  0  0
    7.0448    4.0699    0.0000 H   0  0  0  0  0  0  0  0  0  0  0  0
    8.9199    5.1525    0.0000 H   0  0  0  0  0  0  0  0  0  0  0  0
    8.1228    5.1525    0.0000 H   0  0  0  0  0  0  0  0  0  0  0  0
    4.8594   -4.9675    0.0000 H   0  0  0  0  0  0  0  0  0  0  0  0
    3.2743   -5.3015    0.0000 H   0  0  0  0  0  0  0  0  0  0  0  0
   10.2742    5.3322    0.0000 H   0  0  0  0  0  0  0  0  0  0  0  0
   11.7231    4.5104    0.0000 H   0  0  0  0  0  0  0  0  0  0  0  0
   11.7231    2.8447    0.0000 H   0  0  0  0  0  0  0  0  0  0  0  0
  1 16  2  0  0  0  0
  2 21  2  0  0  0  0
  3 11  1  0  0  0  0
  3 12  1  0  0  0  0
  3 13  1  0  0  0  0
  4  8  1  0  0  0  0
  4 15  1  0  0  0  0
  4 16  1  0  0  0  0
  5 16  1  0  0  0  0
  5 18  1  0  0  0  0
  5 46  1  0  0  0  0
  6 17  1  0  0  0  0
  6 20  1  0  0  0  0
  6 21  1  0  0  0  0
  7 20  1  0  0  0  0
  7 30  2  0  0  0  0
  8  9  1  0  0  0  0
  8 10  1  0  0  0  0
  8 31  1  0  0  0  0
  9 11  1  0  0  0  0
  9 32  1  0  0  0  0
  9 33  1  0  0  0  0
 10 12  1  0  0  0  0
 10 34  1  0  0  0  0
 10 35  1  0  0  0  0
 11 36  1  0  0  0  0
 11 37  1  0  0  0  0
 12 38  1  0  0  0  0
 12 39  1  0  0  0  0
 13 14  1  0  0  0  0
 13 40  1  0  0  0  0
 13 41  1  0  0  0  0
 14 17  1  0  0  0  0
 14 42  1  0  0  0  0
 14 43  1  0  0  0  0
 15 18  1  0  0  0  0
 15 19  2  0  0  0  0
 17 44  1  0  0  0  0
 17 45  1  0  0  0  0
 18 22  2  0  0  0  0
 19 26  1  0  0  0  0
 19 47  1  0  0  0  0
 20 25  2  0  0  0  0
 21 23  1  0  0  0  0
 22 27  1  0  0  0  0
 22 48  1  0  0  0  0
 23 24  1  0  0  0  0
 23 49  1  0  0  0  0
 23 50  1  0  0  0  0
 24 25  1  0  0  0  0
 24 51  1  0  0  0  0
 24 52  1  0  0  0  0
 25 28  1  0  0  0  0
 26 27  2  0  0  0  0
 26 53  1  0  0  0  0
 27 54  1  0  0  0  0
 28 29  2  0  0  0  0
 28 55  1  0  0  0  0
 29 30  1  0  0  0  0
 29 56  1  0  0  0  0
 30 57  1  0  0  0  0
M  END
> <PUBCHEM_COMPOUND_CID>
62705175

> <PUBCHEM_COMPOUND_CANONICALIZED>
1

> <PUBCHEM_CACTVS_COMPLEXITY>
635

> <PUBCHEM_CACTVS_HBOND_ACCEPTOR>
4

> <PUBCHEM_CACTVS_HBOND_DONOR>
1

> <PUBCHEM_CACTVS_ROTATABLE_BOND>
5

> <PUBCHEM_CACTVS_SUBSKEYS>
AAADceB7sAAAAAAAAAAAAAAAAAAAAWAAAAA8WLEAAAAAAFixwAAAHgAQAAAADCjBmgQ98JPIEACoAjd3dACCgCkxAiAJ2CE4dJiIYPLA2ZGUIAholwLIyCcYiQCOAAAAAAAAACAAAAAAAAAAQAAAAAAAAA==

> <PUBCHEM_IUPAC_OPENEYE_NAME>
1-[3-[4-(2-oxo-3H-benzimidazol-1-yl)-1-piperidyl]propyl]-3,4-dihydro-1,8-naphthyridin-2-one

> <PUBCHEM_IUPAC_CAS_NAME>
1-[3-[4-(2-oxo-3H-benzimidazol-1-yl)-1-piperidinyl]propyl]-3,4-dihydro-1,8-naphthyridin-2-one

> <PUBCHEM_IUPAC_NAME_MARKUP>
1-[3-[4-(2-oxo-3<I>H</I>-benzimidazol-1-yl)piperidin-1-yl]propyl]-3,4-dihydro-1,8-naphthyridin-2-one

> <PUBCHEM_IUPAC_NAME>
1-[3-[4-(2-oxo-3H-benzimidazol-1-yl)piperidin-1-yl]propyl]-3,4-dihydro-1,8-naphthyridin-2-one

> <PUBCHEM_IUPAC_SYSTEMATIC_NAME>
1-[3-[4-(2-oxidanylidene-3H-benzimidazol-1-yl)piperidin-1-yl]propyl]-3,4-dihydro-1,8-naphthyridin-2-one

> <PUBCHEM_IUPAC_TRADITIONAL_NAME>
1-[3-[4-(2-keto-3H-benzimidazol-1-yl)piperidino]propyl]-3,4-dihydro-1,8-naphthyridin-2-one

> <PUBCHEM_IUPAC_INCHI>
InChI=1S/C23H27N5O2/c29-21-9-8-17-5-3-12-24-22(17)27(21)14-4-13-26-15-10-18(11-16-26)28-20-7-2-1-6-19(20)25-23(28)30/h1-3,5-7,12,18H,4,8-11,13-16H2,(H,25,30)

> <PUBCHEM_IUPAC_INCHIKEY>
PNQNPKIDRYQUHE-UHFFFAOYSA-N

> <PUBCHEM_XLOGP3_AA>
2

> <PUBCHEM_EXACT_MASS>
405.21647512

> <PUBCHEM_MOLECULAR_FORMULA>
C23H27N5O2

> <PUBCHEM_MOLECULAR_WEIGHT>
405.5

> <PUBCHEM_OPENEYE_CAN_SMILES>
C1CN(CCC1N2C3=CC=CC=C3NC2=O)CCCN4C(=O)CCC5=C4N=CC=C5

> <PUBCHEM_OPENEYE_ISO_SMILES>
C1CN(CCC1N2C3=CC=CC=C3NC2=O)CCCN4C(=O)CCC5=C4N=CC=C5

> <PUBCHEM_CACTVS_TPSA>
68.8

> <PUBCHEM_MONOISOTOPIC_WEIGHT>
405.21647512

> <PUBCHEM_TOTAL_CHARGE>
0

> <PUBCHEM_HEAVY_ATOM_COUNT>
30

> <PUBCHEM_ATOM_DEF_STEREO_COUNT>
0

> <PUBCHEM_ATOM_UDEF_STEREO_COUNT>
0

> <PUBCHEM_BOND_DEF_STEREO_COUNT>
0

> <PUBCHEM_BOND_UDEF_STEREO_COUNT>
0

> <PUBCHEM_ISOTOPIC_ATOM_COUNT>
0

> <PUBCHEM_COMPONENT_COUNT>
1

> <PUBCHEM_CACTVS_TAUTO_COUNT>
-1

> <PUBCHEM_COORDINATE_TYPE>
1
5
255

> <PUBCHEM_BONDANNOTATIONS>
15  18  8
15  19  8
18  22  8
19  26  8
20  25  8
22  27  8
25  28  8
26  27  8
28  29  8
29  30  8
4  15  8
4  16  8
5  16  8
5  18  8
7  20  8
7  30  8

$$$$
