10826543
  -OEChem-09292322132D

 42 45  0     1  0  0  0  0  0999 V2000
    4.6497    1.7484    0.0000 O   0  0  0  0  0  0  0  0  0  0  0  0
    8.1223   -1.2831    0.0000 N   0  0  3  0  0  0  0  0  0  0  0  0
    7.2641   -0.7862    0.0000 C   0  0  1  0  0  0  0  0  0  0  0  0
    7.2641    0.2138    0.0000 C   0  0  0  0  0  0  0  0  0  0  0  0
    6.3981   -1.2862    0.0000 C   0  0  0  0  0  0  0  0  0  0  0  0
    8.1741    0.7207    0.0000 C   0  0  0  0  0  0  0  0  0  0  0  0
    8.9878   -0.7989    0.0000 C   0  0  0  0  0  0  0  0  0  0  0  0
    6.3981    0.7138    0.0000 C   0  0  0  0  0  0  0  0  0  0  0  0
    9.0134    0.1924    0.0000 C   0  0  0  0  0  0  0  0  0  0  0  0
    5.5320   -0.7862    0.0000 C   0  0  0  0  0  0  0  0  0  0  0  0
    5.5320    0.2138    0.0000 C   0  0  0  0  0  0  0  0  0  0  0  0
    8.1149   -2.2831    0.0000 C   0  0  0  0  0  0  0  0  0  0  0  0
    8.1821    1.7623    0.0000 C   0  0  0  0  0  0  0  0  0  0  0  0
    6.3820    1.7553    0.0000 C   0  0  0  0  0  0  0  0  0  0  0  0
    4.6381    0.7485    0.0000 C   0  0  0  0  0  0  0  0  0  0  0  0
    4.6381   -1.3208    0.0000 C   0  0  0  0  0  0  0  0  0  0  0  0
    7.2800    2.2831    0.0000 C   0  0  0  0  0  0  0  0  0  0  0  0
    3.7320    0.2346    0.0000 C   0  0  0  0  0  0  0  0  0  0  0  0
    3.7320   -0.8070    0.0000 C   0  0  0  0  0  0  0  0  0  0  0  0
    2.8680    0.7380    0.0000 C   0  0  0  0  0  0  0  0  0  0  0  0
    2.0000    0.2413    0.0000 C   0  0  0  0  0  0  0  0  0  0  0  0
    7.2636   -1.6362    0.0000 H   0  0  0  0  0  0  0  0  0  0  0  0
    5.9995   -1.7611    0.0000 H   0  0  0  0  0  0  0  0  0  0  0  0
    6.7966   -1.7611    0.0000 H   0  0  0  0  0  0  0  0  0  0  0  0
    9.1895   -1.3852    0.0000 H   0  0  0  0  0  0  0  0  0  0  0  0
    9.6006   -0.7046    0.0000 H   0  0  0  0  0  0  0  0  0  0  0  0
    9.6205    0.0665    0.0000 H   0  0  0  0  0  0  0  0  0  0  0  0
    9.2452    0.7675    0.0000 H   0  0  0  0  0  0  0  0  0  0  0  0
    7.4949   -2.2785    0.0000 H   0  0  0  0  0  0  0  0  0  0  0  0
    8.1103   -2.9031    0.0000 H   0  0  0  0  0  0  0  0  0  0  0  0
    8.7349   -2.2877    0.0000 H   0  0  0  0  0  0  0  0  0  0  0  0
    8.7203    2.0702    0.0000 H   0  0  0  0  0  0  0  0  0  0  0  0
    5.8415    2.0591    0.0000 H   0  0  0  0  0  0  0  0  0  0  0  0
    4.6453   -1.9408    0.0000 H   0  0  0  0  0  0  0  0  0  0  0  0
    7.2777    2.9031    0.0000 H   0  0  0  0  0  0  0  0  0  0  0  0
    3.1963   -1.1191    0.0000 H   0  0  0  0  0  0  0  0  0  0  0  0
    3.2683    1.2114    0.0000 H   0  0  0  0  0  0  0  0  0  0  0  0
    2.4712    1.2144    0.0000 H   0  0  0  0  0  0  0  0  0  0  0  0
    4.1164    2.0646    0.0000 H   0  0  0  0  0  0  0  0  0  0  0  0
    1.6921    0.7794    0.0000 H   0  0  0  0  0  0  0  0  0  0  0  0
    1.4619   -0.0666    0.0000 H   0  0  0  0  0  0  0  0  0  0  0  0
    2.3079   -0.2968    0.0000 H   0  0  0  0  0  0  0  0  0  0  0  0
  1 15  1  0  0  0  0
  1 39  1  0  0  0  0
  2  3  1  0  0  0  0
  2  7  1  0  0  0  0
  2 12  1  0  0  0  0
  3  4  1  0  0  0  0
  3  5  1  0  0  0  0
  3 22  1  1  0  0  0
  4  6  2  0  0  0  0
  4  8  1  0  0  0  0
  5 10  1  0  0  0  0
  5 23  1  0  0  0  0
  5 24  1  0  0  0  0
  6  9  1  0  0  0  0
  6 13  1  0  0  0  0
  7  9  1  0  0  0  0
  7 25  1  0  0  0  0
  7 26  1  0  0  0  0
  8 11  1  0  0  0  0
  8 14  2  0  0  0  0
  9 27  1  0  0  0  0
  9 28  1  0  0  0  0
 10 11  2  0  0  0  0
 10 16  1  0  0  0  0
 11 15  1  0  0  0  0
 12 29  1  0  0  0  0
 12 30  1  0  0  0  0
 12 31  1  0  0  0  0
 13 17  2  0  0  0  0
 13 32  1  0  0  0  0
 14 17  1  0  0  0  0
 14 33  1  0  0  0  0
 15 18  2  0  0  0  0
 16 19  2  0  0  0  0
 16 34  1  0  0  0  0
 17 35  1  0  0  0  0
 18 19  1  0  0  0  0
 18 20  1  0  0  0  0
 19 36  1  0  0  0  0
 20 21  1  0  0  0  0
 20 37  1  0  0  0  0
 20 38  1  0  0  0  0
 21 40  1  0  0  0  0
 21 41  1  0  0  0  0
 21 42  1  0  0  0  0
M  END
> <PUBCHEM_COMPOUND_CID>
10826543

> <PUBCHEM_COMPOUND_CANONICALIZED>
1

> <PUBCHEM_CACTVS_COMPLEXITY>
384

> <PUBCHEM_CACTVS_HBOND_ACCEPTOR>
2

> <PUBCHEM_CACTVS_HBOND_DONOR>
1

> <PUBCHEM_CACTVS_ROTATABLE_BOND>
1

> <PUBCHEM_CACTVS_SUBSKEYS>
AAADceB6IAAAAAAAAAAAAAAAAAAAAAAAAAA8YMEAAAAAAADxQAAAHgAACAAADCzBmAQyBoMAAgCAAiBCAACCAAAgIAAIiAAMDIgIJiKCkROEcAhkwBGImAeQ0PMOwAADAAAYAACQAAaAADQAAAAAAAAAAA==

> <PUBCHEM_IUPAC_OPENEYE_NAME>
(6aR)-10-ethyl-6-methyl-5,6,6a,7-tetrahydro-4H-dibenzo[de,g]quinolin-11-ol

> <PUBCHEM_IUPAC_CAS_NAME>
(6aR)-10-ethyl-6-methyl-5,6,6a,7-tetrahydro-4H-dibenzo[de,g]quinolin-11-ol

> <PUBCHEM_IUPAC_NAME_MARKUP>
(6<I>a</I><I>R</I>)-10-ethyl-6-methyl-5,6,6<I>a</I>,7-tetrahydro-4<I>H</I>-dibenzo[de,g]quinolin-11-ol

> <PUBCHEM_IUPAC_NAME>
(6aR)-10-ethyl-6-methyl-5,6,6a,7-tetrahydro-4H-dibenzo[de,g]quinolin-11-ol

> <PUBCHEM_IUPAC_SYSTEMATIC_NAME>
(6aR)-10-ethyl-6-methyl-5,6,6a,7-tetrahydro-4H-dibenzo[de,g]quinolin-11-ol

> <PUBCHEM_IUPAC_TRADITIONAL_NAME>
(6aR)-10-ethyl-6-methyl-5,6,6a,7-tetrahydro-4H-dibenzo[de,g]quinolin-11-ol

> <PUBCHEM_IUPAC_INCHI>
InChI=1S/C19H21NO/c1-3-12-7-8-14-11-16-17-13(9-10-20(16)2)5-4-6-15(17)18(14)19(12)21/h4-8,16,21H,3,9-11H2,1-2H3/t16-/m1/s1

> <PUBCHEM_IUPAC_INCHIKEY>
IUPVUCISWBWELZ-MRXNPFEDSA-N

> <PUBCHEM_XLOGP3>
3.5

> <PUBCHEM_EXACT_MASS>
279.162314293

> <PUBCHEM_MOLECULAR_FORMULA>
C19H21NO

> <PUBCHEM_MOLECULAR_WEIGHT>
279.4

> <PUBCHEM_OPENEYE_CAN_SMILES>
CCC1=C(C2=C(CC3C4=C(CCN3C)C=CC=C42)C=C1)O

> <PUBCHEM_OPENEYE_ISO_SMILES>
CCC1=C(C2=C(C[C@@H]3C4=C(CCN3C)C=CC=C42)C=C1)O

> <PUBCHEM_CACTVS_TPSA>
23.5

> <PUBCHEM_MONOISOTOPIC_WEIGHT>
279.162314293

> <PUBCHEM_TOTAL_CHARGE>
0

> <PUBCHEM_HEAVY_ATOM_COUNT>
21

> <PUBCHEM_ATOM_DEF_STEREO_COUNT>
1

> <PUBCHEM_ATOM_UDEF_STEREO_COUNT>
0

> <PUBCHEM_BOND_DEF_STEREO_COUNT>
0

> <PUBCHEM_BOND_UDEF_STEREO_COUNT>
0

> <PUBCHEM_ISOTOPIC_ATOM_COUNT>
0

> <PUBCHEM_COMPONENT_COUNT>
1

> <PUBCHEM_CACTVS_TAUTO_COUNT>
-1

> <PUBCHEM_COORDINATE_TYPE>
1
5
255

> <PUBCHEM_BONDANNOTATIONS>
10  11  8
10  16  8
11  15  8
13  17  8
14  17  8
15  18  8
16  19  8
18  19  8
3  22  5
4  6  8
4  8  8
6  13  8
8  14  8

$$$$
