49782601
  -OEChem-09292322312D

 69 73  0     0  0  0  0  0  0999 V2000
    6.8049    5.8693    0.0000 Cl  0  0  0  0  0  0  0  0  0  0  0  0
    7.0500    2.2721    0.0000 O   0  0  0  0  0  0  0  0  0  0  0  0
    5.2081   -3.1871    0.0000 O   0  0  0  0  0  0  0  0  0  0  0  0
    4.8248    0.3980    0.0000 N   0  0  0  0  0  0  0  0  0  0  0  0
    6.1104    1.9301    0.0000 C   0  0  0  0  0  0  0  0  0  0  0  0
    6.4524    0.9904    0.0000 C   0  0  0  0  0  0  0  0  0  0  0  0
    5.1255    2.1037    0.0000 C   0  0  0  0  0  0  0  0  0  0  0  0
    5.8096    0.2244    0.0000 C   0  0  0  0  0  0  0  0  0  0  0  0
    4.4828    1.3377    0.0000 C   0  0  0  0  0  0  0  0  0  0  0  0
    4.1820   -0.3680    0.0000 C   0  0  0  0  0  0  0  0  0  0  0  0
    6.2840    2.9149    0.0000 C   0  0  0  0  0  0  0  0  0  0  0  0
    4.5240   -1.3077    0.0000 C   0  0  0  0  0  0  0  0  0  0  0  0
    3.8812   -2.0738    0.0000 C   0  0  0  0  0  0  0  0  0  0  0  0
    5.5180    3.5577    0.0000 C   0  0  0  0  0  0  0  0  0  0  0  0
    7.2237    3.2569    0.0000 C   0  0  0  0  0  0  0  0  0  0  0  0
    4.2232   -3.0135    0.0000 C   0  0  0  0  0  0  0  0  0  0  0  0
    5.6916    4.5425    0.0000 C   0  0  0  0  0  0  0  0  0  0  0  0
    7.3973    4.2417    0.0000 C   0  0  0  0  0  0  0  0  0  0  0  0
    3.7232   -3.8795    0.0000 C   0  0  0  0  0  0  0  0  0  0  0  0
    2.8616   -3.3820    0.0000 C   0  0  0  0  0  0  0  0  0  0  0  0
    6.6313    4.8845    0.0000 C   0  0  0  0  0  0  0  0  0  0  0  0
    3.7232   -2.8846    0.0000 C   0  0  0  0  0  0  0  0  0  0  0  0
    3.7232   -4.8744    0.0000 C   0  0  0  0  0  0  0  0  0  0  0  0
    2.8616   -5.3719    0.0000 C   0  0  0  0  0  0  0  0  0  0  0  0
    4.7637   -2.8625    0.0000 C   0  0  0  0  0  0  0  0  0  0  0  0
    3.7232   -5.8693    0.0000 C   0  0  0  0  0  0  0  0  0  0  0  0
    2.0000   -3.8795    0.0000 C   0  0  0  0  0  0  0  0  0  0  0  0
    4.7637   -5.8472    0.0000 C   0  0  0  0  0  0  0  0  0  0  0  0
    2.0000   -4.8744    0.0000 C   0  0  0  0  0  0  0  0  0  0  0  0
    5.6253   -3.3599    0.0000 C   0  0  0  0  0  0  0  0  0  0  0  0
    5.6253   -5.3498    0.0000 C   0  0  0  0  0  0  0  0  0  0  0  0
    4.7637   -3.8574    0.0000 C   0  0  0  0  0  0  0  0  0  0  0  0
    6.4869   -3.8574    0.0000 C   0  0  0  0  0  0  0  0  0  0  0  0
    4.7637   -4.8523    0.0000 C   0  0  0  0  0  0  0  0  0  0  0  0
    6.4869   -4.8523    0.0000 C   0  0  0  0  0  0  0  0  0  0  0  0
    6.8509    0.5155    0.0000 H   0  0  0  0  0  0  0  0  0  0  0  0
    6.9893    1.3004    0.0000 H   0  0  0  0  0  0  0  0  0  0  0  0
    5.3376    2.6864    0.0000 H   0  0  0  0  0  0  0  0  0  0  0  0
    4.5886    2.4138    0.0000 H   0  0  0  0  0  0  0  0  0  0  0  0
    5.5975   -0.3582    0.0000 H   0  0  0  0  0  0  0  0  0  0  0  0
    6.3465   -0.0856    0.0000 H   0  0  0  0  0  0  0  0  0  0  0  0
    4.0842    1.8126    0.0000 H   0  0  0  0  0  0  0  0  0  0  0  0
    3.9458    1.0277    0.0000 H   0  0  0  0  0  0  0  0  0  0  0  0
    3.7835    0.1069    0.0000 H   0  0  0  0  0  0  0  0  0  0  0  0
    3.6451   -0.6780    0.0000 H   0  0  0  0  0  0  0  0  0  0  0  0
    4.9225   -1.7827    0.0000 H   0  0  0  0  0  0  0  0  0  0  0  0
    5.0610   -0.9977    0.0000 H   0  0  0  0  0  0  0  0  0  0  0  0
    7.5250    1.8736    0.0000 H   0  0  0  0  0  0  0  0  0  0  0  0
    3.4827   -1.5988    0.0000 H   0  0  0  0  0  0  0  0  0  0  0  0
    3.3443   -2.3838    0.0000 H   0  0  0  0  0  0  0  0  0  0  0  0
    4.9354    3.3456    0.0000 H   0  0  0  0  0  0  0  0  0  0  0  0
    7.6986    2.8584    0.0000 H   0  0  0  0  0  0  0  0  0  0  0  0
    5.2166    4.9410    0.0000 H   0  0  0  0  0  0  0  0  0  0  0  0
    7.9800    4.4538    0.0000 H   0  0  0  0  0  0  0  0  0  0  0  0
    3.9270   -2.2990    0.0000 H   0  0  0  0  0  0  0  0  0  0  0  0
    3.8901   -3.4817    0.0000 H   0  0  0  0  0  0  0  0  0  0  0  0
    4.2602   -5.1844    0.0000 H   0  0  0  0  0  0  0  0  0  0  0  0
    5.2358   -2.4606    0.0000 H   0  0  0  0  0  0  0  0  0  0  0  0
    4.6096   -3.4630    0.0000 H   0  0  0  0  0  0  0  0  0  0  0  0
    3.2511   -6.2712    0.0000 H   0  0  0  0  0  0  0  0  0  0  0  0
    3.8774   -5.2688    0.0000 H   0  0  0  0  0  0  0  0  0  0  0  0
    1.4631   -3.5695    0.0000 H   0  0  0  0  0  0  0  0  0  0  0  0
    4.5599   -6.4328    0.0000 H   0  0  0  0  0  0  0  0  0  0  0  0
    4.5968   -5.2501    0.0000 H   0  0  0  0  0  0  0  0  0  0  0  0
    1.4631   -5.1844    0.0000 H   0  0  0  0  0  0  0  0  0  0  0  0
    4.2267   -3.5474    0.0000 H   0  0  0  0  0  0  0  0  0  0  0  0
    7.0238   -3.5474    0.0000 H   0  0  0  0  0  0  0  0  0  0  0  0
    4.2267   -5.1623    0.0000 H   0  0  0  0  0  0  0  0  0  0  0  0
    7.0238   -5.1623    0.0000 H   0  0  0  0  0  0  0  0  0  0  0  0
  1 21  1  0  0  0  0
  2  5  1  0  0  0  0
  2 48  1  0  0  0  0
  3 16  2  0  0  0  0
  4  8  1  0  0  0  0
  4  9  1  0  0  0  0
  4 10  1  0  0  0  0
  5  6  1  0  0  0  0
  5  7  1  0  0  0  0
  5 11  1  0  0  0  0
  6  8  1  0  0  0  0
  6 36  1  0  0  0  0
  6 37  1  0  0  0  0
  7  9  1  0  0  0  0
  7 38  1  0  0  0  0
  7 39  1  0  0  0  0
  8 40  1  0  0  0  0
  8 41  1  0  0  0  0
  9 42  1  0  0  0  0
  9 43  1  0  0  0  0
 10 12  1  0  0  0  0
 10 44  1  0  0  0  0
 10 45  1  0  0  0  0
 11 14  2  0  0  0  0
 11 15  1  0  0  0  0
 12 13  1  0  0  0  0
 12 46  1  0  0  0  0
 12 47  1  0  0  0  0
 13 16  1  0  0  0  0
 13 49  1  0  0  0  0
 13 50  1  0  0  0  0
 14 17  1  0  0  0  0
 14 51  1  0  0  0  0
 15 18  2  0  0  0  0
 15 52  1  0  0  0  0
 16 19  1  0  0  0  0
 17 21  2  0  0  0  0
 17 53  1  0  0  0  0
 18 21  1  0  0  0  0
 18 54  1  0  0  0  0
 19 20  2  0  0  0  0
 19 23  1  0  0  0  0
 20 22  1  0  0  0  0
 20 27  1  0  0  0  0
 22 25  1  0  0  0  0
 22 55  1  0  0  0  0
 22 56  1  0  0  0  0
 23 24  2  0  0  0  0
 23 57  1  0  0  0  0
 24 26  1  0  0  0  0
 24 29  1  0  0  0  0
 25 30  1  0  0  0  0
 25 58  1  0  0  0  0
 25 59  1  0  0  0  0
 26 28  1  0  0  0  0
 26 60  1  0  0  0  0
 26 61  1  0  0  0  0
 27 29  2  0  0  0  0
 27 62  1  0  0  0  0
 28 31  1  0  0  0  0
 28 63  1  0  0  0  0
 28 64  1  0  0  0  0
 29 65  1  0  0  0  0
 30 32  2  0  0  0  0
 30 33  1  0  0  0  0
 31 34  2  0  0  0  0
 31 35  1  0  0  0  0
 32 34  1  0  0  0  0
 32 66  1  0  0  0  0
 33 35  2  0  0  0  0
 33 67  1  0  0  0  0
 34 68  1  0  0  0  0
 35 69  1  0  0  0  0
M  END
> <PUBCHEM_COMPOUND_CID>
49782601

> <PUBCHEM_COMPOUND_CANONICALIZED>
1

> <PUBCHEM_CACTVS_COMPLEXITY>
674

> <PUBCHEM_CACTVS_HBOND_ACCEPTOR>
3

> <PUBCHEM_CACTVS_HBOND_DONOR>
1

> <PUBCHEM_CACTVS_ROTATABLE_BOND>
6

> <PUBCHEM_CACTVS_SUBSKEYS>
AAADcfB6MAAEAAAAAAAAAAAAAAAAAAAAAAA8YMEAAAAAAAABUAAAHgIACAAADEbBmCQwAIMAAgCIAqBSAAACAAAkBQAIiAEICsgIJjKBlxCEcQAmwAGImYecyOCOxAACAAAQAACIAAQAACAAAAAAAAAAAA==

> <PUBCHEM_IUPAC_OPENEYE_NAME>
4-[4-(4-chlorophenyl)-4-hydroxy-1-piperidyl]-1-(5-tricyclo[8.2.2.24,7]hexadeca-1(13),4,6,10(14),11,15-hexaenyl)butan-1-one

> <PUBCHEM_IUPAC_CAS_NAME>
4-[4-(4-chlorophenyl)-4-hydroxy-1-piperidinyl]-1-(5-tricyclo[8.2.2.24,7]hexadeca-1(13),4,6,10(14),11,15-hexaenyl)-1-butanone

> <PUBCHEM_IUPAC_NAME_MARKUP>
4-[4-(4-chlorophenyl)-4-hydroxypiperidin-1-yl]-1-(5-tricyclo[8.2.2.2<SUP>4,7</SUP>]hexadeca-1(13),4,6,10(14),11,15-hexaenyl)butan-1-one

> <PUBCHEM_IUPAC_NAME>
4-[4-(4-chlorophenyl)-4-hydroxypiperidin-1-yl]-1-(5-tricyclo[8.2.2.24,7]hexadeca-1(13),4,6,10(14),11,15-hexaenyl)butan-1-one

> <PUBCHEM_IUPAC_SYSTEMATIC_NAME>
4-[4-(4-chlorophenyl)-4-oxidanyl-piperidin-1-yl]-1-(5-tricyclo[8.2.2.24,7]hexadeca-1(13),4,6,10(14),11,15-hexaenyl)butan-1-one

> <PUBCHEM_IUPAC_TRADITIONAL_NAME>
4-[4-(4-chlorophenyl)-4-hydroxy-piperidino]-1-(5-tricyclo[8.2.2.24,7]hexadeca-1(13),4,6,10(14),11,15-hexaenyl)butan-1-one

> <PUBCHEM_IUPAC_INCHI>
InChI=1S/C31H34ClNO2/c32-28-15-13-27(14-16-28)31(35)17-20-33(21-18-31)19-1-2-30(34)29-22-25-8-7-23-3-5-24(6-4-23)9-11-26(29)12-10-25/h3-6,10,12-16,22,35H,1-2,7-9,11,17-21H2

> <PUBCHEM_IUPAC_INCHIKEY>
SBJOJKQLHNFZTE-UHFFFAOYSA-N

> <PUBCHEM_XLOGP3_AA>
6.2

> <PUBCHEM_EXACT_MASS>
487.2278070

> <PUBCHEM_MOLECULAR_FORMULA>
C31H34ClNO2

> <PUBCHEM_MOLECULAR_WEIGHT>
488.1

> <PUBCHEM_OPENEYE_CAN_SMILES>
C1CC2=CC(=C(CCC3=CC=C1C=C3)C=C2)C(=O)CCCN4CCC(CC4)(C5=CC=C(C=C5)Cl)O

> <PUBCHEM_OPENEYE_ISO_SMILES>
C1CC2=CC(=C(CCC3=CC=C1C=C3)C=C2)C(=O)CCCN4CCC(CC4)(C5=CC=C(C=C5)Cl)O

> <PUBCHEM_CACTVS_TPSA>
40.5

> <PUBCHEM_MONOISOTOPIC_WEIGHT>
487.2278070

> <PUBCHEM_TOTAL_CHARGE>
0

> <PUBCHEM_HEAVY_ATOM_COUNT>
35

> <PUBCHEM_ATOM_DEF_STEREO_COUNT>
0

> <PUBCHEM_ATOM_UDEF_STEREO_COUNT>
0

> <PUBCHEM_BOND_DEF_STEREO_COUNT>
0

> <PUBCHEM_BOND_UDEF_STEREO_COUNT>
0

> <PUBCHEM_ISOTOPIC_ATOM_COUNT>
0

> <PUBCHEM_COMPONENT_COUNT>
1

> <PUBCHEM_CACTVS_TAUTO_COUNT>
-1

> <PUBCHEM_COORDINATE_TYPE>
1
5
255

> <PUBCHEM_BONDANNOTATIONS>
11  14  8
11  15  8
14  17  8
15  18  8
17  21  8
18  21  8
19  20  8
19  23  8
20  27  8
23  24  8
24  29  8
27  29  8
30  32  8
30  33  8
31  34  8
31  35  8
32  34  8
33  35  8

$$$$
