71725049
  -OEChem-09292322062D

 52 55  0     0  0  0  0  0  0999 V2000
   13.7619    2.4291    0.0000 Cl  0  0  0  0  0  0  0  0  0  0  0  0
    9.7619    2.4291    0.0000 O   0  0  0  0  0  0  0  0  0  0  0  0
    6.7619   -2.7671    0.0000 O   0  0  0  0  0  0  0  0  0  0  0  0
    7.7619    0.6970    0.0000 N   0  0  0  0  0  0  0  0  0  0  0  0
    6.7619   -1.0350    0.0000 N   0  0  0  0  0  0  0  0  0  0  0  0
    4.6783   -2.7058    0.0000 N   0  0  0  0  0  0  0  0  0  0  0  0
    6.7619    0.6970    0.0000 C   0  0  0  0  0  0  0  0  0  0  0  0
    8.2619   -0.1690    0.0000 C   0  0  0  0  0  0  0  0  0  0  0  0
    6.2619   -0.1690    0.0000 C   0  0  0  0  0  0  0  0  0  0  0  0
    7.7619   -1.0350    0.0000 C   0  0  0  0  0  0  0  0  0  0  0  0
    8.2619    1.5630    0.0000 C   0  0  0  0  0  0  0  0  0  0  0  0
    6.2619   -1.9010    0.0000 C   0  0  0  0  0  0  0  0  0  0  0  0
    9.2619    1.5630    0.0000 C   0  0  0  0  0  0  0  0  0  0  0  0
    5.2619   -1.9010    0.0000 C   0  0  0  0  0  0  0  0  0  0  0  0
    4.6783   -1.0963    0.0000 C   0  0  0  0  0  0  0  0  0  0  0  0
    3.7320   -2.4010    0.0000 C   0  0  0  0  0  0  0  0  0  0  0  0
    3.7320   -1.4010    0.0000 C   0  0  0  0  0  0  0  0  0  0  0  0
    2.8660   -2.9010    0.0000 C   0  0  0  0  0  0  0  0  0  0  0  0
    2.8660   -0.9010    0.0000 C   0  0  0  0  0  0  0  0  0  0  0  0
   10.7619    2.4291    0.0000 C   0  0  0  0  0  0  0  0  0  0  0  0
    2.0000   -2.4010    0.0000 C   0  0  0  0  0  0  0  0  0  0  0  0
    2.0000   -1.4010    0.0000 C   0  0  0  0  0  0  0  0  0  0  0  0
   11.2619    1.5630    0.0000 C   0  0  0  0  0  0  0  0  0  0  0  0
   11.2619    3.2951    0.0000 C   0  0  0  0  0  0  0  0  0  0  0  0
   12.2619    1.5630    0.0000 C   0  0  0  0  0  0  0  0  0  0  0  0
   12.2619    3.2951    0.0000 C   0  0  0  0  0  0  0  0  0  0  0  0
   12.7619    2.4291    0.0000 C   0  0  0  0  0  0  0  0  0  0  0  0
   12.7619    0.6970    0.0000 C   0  0  0  0  0  0  0  0  0  0  0  0
    6.8695    1.3076    0.0000 H   0  0  0  0  0  0  0  0  0  0  0  0
    6.1793    0.9091    0.0000 H   0  0  0  0  0  0  0  0  0  0  0  0
    8.7368   -0.5675    0.0000 H   0  0  0  0  0  0  0  0  0  0  0  0
    8.7368    0.2295    0.0000 H   0  0  0  0  0  0  0  0  0  0  0  0
    5.7869    0.2295    0.0000 H   0  0  0  0  0  0  0  0  0  0  0  0
    5.7869   -0.5675    0.0000 H   0  0  0  0  0  0  0  0  0  0  0  0
    7.6542   -1.6456    0.0000 H   0  0  0  0  0  0  0  0  0  0  0  0
    8.3445   -1.2471    0.0000 H   0  0  0  0  0  0  0  0  0  0  0  0
    8.3695    2.1736    0.0000 H   0  0  0  0  0  0  0  0  0  0  0  0
    7.6793    1.7751    0.0000 H   0  0  0  0  0  0  0  0  0  0  0  0
    9.1542    0.9525    0.0000 H   0  0  0  0  0  0  0  0  0  0  0  0
    9.8445    1.3510    0.0000 H   0  0  0  0  0  0  0  0  0  0  0  0
    4.8709   -3.2951    0.0000 H   0  0  0  0  0  0  0  0  0  0  0  0
    4.8709   -0.5070    0.0000 H   0  0  0  0  0  0  0  0  0  0  0  0
    2.8660   -3.5210    0.0000 H   0  0  0  0  0  0  0  0  0  0  0  0
    2.8660   -0.2810    0.0000 H   0  0  0  0  0  0  0  0  0  0  0  0
    1.4631   -2.7110    0.0000 H   0  0  0  0  0  0  0  0  0  0  0  0
    1.4631   -1.0910    0.0000 H   0  0  0  0  0  0  0  0  0  0  0  0
   10.9519    1.0261    0.0000 H   0  0  0  0  0  0  0  0  0  0  0  0
   10.9519    3.8320    0.0000 H   0  0  0  0  0  0  0  0  0  0  0  0
   12.5719    3.8320    0.0000 H   0  0  0  0  0  0  0  0  0  0  0  0
   12.2249    0.3870    0.0000 H   0  0  0  0  0  0  0  0  0  0  0  0
   13.0719    0.1601    0.0000 H   0  0  0  0  0  0  0  0  0  0  0  0
   13.2988    1.0070    0.0000 H   0  0  0  0  0  0  0  0  0  0  0  0
  1 27  1  0  0  0  0
  2 13  1  0  0  0  0
  2 20  1  0  0  0  0
  3 12  2  0  0  0  0
  4  7  1  0  0  0  0
  4  8  1  0  0  0  0
  4 11  1  0  0  0  0
  5  9  1  0  0  0  0
  5 10  1  0  0  0  0
  5 12  1  0  0  0  0
  6 14  1  0  0  0  0
  6 16  1  0  0  0  0
  6 41  1  0  0  0  0
  7  9  1  0  0  0  0
  7 29  1  0  0  0  0
  7 30  1  0  0  0  0
  8 10  1  0  0  0  0
  8 31  1  0  0  0  0
  8 32  1  0  0  0  0
  9 33  1  0  0  0  0
  9 34  1  0  0  0  0
 10 35  1  0  0  0  0
 10 36  1  0  0  0  0
 11 13  1  0  0  0  0
 11 37  1  0  0  0  0
 11 38  1  0  0  0  0
 12 14  1  0  0  0  0
 13 39  1  0  0  0  0
 13 40  1  0  0  0  0
 14 15  2  0  0  0  0
 15 17  1  0  0  0  0
 15 42  1  0  0  0  0
 16 17  1  0  0  0  0
 16 18  2  0  0  0  0
 17 19  2  0  0  0  0
 18 21  1  0  0  0  0
 18 43  1  0  0  0  0
 19 22  1  0  0  0  0
 19 44  1  0  0  0  0
 20 23  2  0  0  0  0
 20 24  1  0  0  0  0
 21 22  2  0  0  0  0
 21 45  1  0  0  0  0
 22 46  1  0  0  0  0
 23 25  1  0  0  0  0
 23 47  1  0  0  0  0
 24 26  2  0  0  0  0
 24 48  1  0  0  0  0
 25 27  2  0  0  0  0
 25 28  1  0  0  0  0
 26 27  1  0  0  0  0
 26 49  1  0  0  0  0
 28 50  1  0  0  0  0
 28 51  1  0  0  0  0
 28 52  1  0  0  0  0
M  END
> <PUBCHEM_COMPOUND_CID>
71725049

> <PUBCHEM_COMPOUND_CANONICALIZED>
1

> <PUBCHEM_CACTVS_COMPLEXITY>
526

> <PUBCHEM_CACTVS_HBOND_ACCEPTOR>
3

> <PUBCHEM_CACTVS_HBOND_DONOR>
1

> <PUBCHEM_CACTVS_ROTATABLE_BOND>
5

> <PUBCHEM_CACTVS_SUBSKEYS>
AAADceB7MAAEAAAAAAAAAAAAAAAAAWAAAAA8YIAAAAAAAFgB9AAAHgIQAAAADA7hniYyxvPJlACoAyVyVACCiCAnJyAImSG+btgOZvLFt7uXOSjk1hHY6YeYyZCeACABAAADAAAAQAIAAAYAAAAAAAAAAA==

> <PUBCHEM_IUPAC_OPENEYE_NAME>
[4-[2-(4-chloro-3-methyl-phenoxy)ethyl]piperazin-1-yl]-(1H-indol-2-yl)methanone

> <PUBCHEM_IUPAC_CAS_NAME>
[4-[2-(4-chloro-3-methylphenoxy)ethyl]-1-piperazinyl]-(1H-indol-2-yl)methanone

> <PUBCHEM_IUPAC_NAME_MARKUP>
[4-[2-(4-chloro-3-methylphenoxy)ethyl]piperazin-1-yl]-(1<I>H</I>-indol-2-yl)methanone

> <PUBCHEM_IUPAC_NAME>
[4-[2-(4-chloro-3-methylphenoxy)ethyl]piperazin-1-yl]-(1H-indol-2-yl)methanone

> <PUBCHEM_IUPAC_SYSTEMATIC_NAME>
[4-[2-(4-chloranyl-3-methyl-phenoxy)ethyl]piperazin-1-yl]-(1H-indol-2-yl)methanone

> <PUBCHEM_IUPAC_TRADITIONAL_NAME>
[4-[2-(4-chloro-3-methyl-phenoxy)ethyl]piperazino]-(1H-indol-2-yl)methanone

> <PUBCHEM_IUPAC_INCHI>
InChI=1S/C22H24ClN3O2/c1-16-14-18(6-7-19(16)23)28-13-12-25-8-10-26(11-9-25)22(27)21-15-17-4-2-3-5-20(17)24-21/h2-7,14-15,24H,8-13H2,1H3

> <PUBCHEM_IUPAC_INCHIKEY>
LRGIFVDEYMWDOX-UHFFFAOYSA-N

> <PUBCHEM_XLOGP3_AA>
4.3

> <PUBCHEM_EXACT_MASS>
397.1557047

> <PUBCHEM_MOLECULAR_FORMULA>
C22H24ClN3O2

> <PUBCHEM_MOLECULAR_WEIGHT>
397.9

> <PUBCHEM_OPENEYE_CAN_SMILES>
CC1=C(C=CC(=C1)OCCN2CCN(CC2)C(=O)C3=CC4=CC=CC=C4N3)Cl

> <PUBCHEM_OPENEYE_ISO_SMILES>
CC1=C(C=CC(=C1)OCCN2CCN(CC2)C(=O)C3=CC4=CC=CC=C4N3)Cl

> <PUBCHEM_CACTVS_TPSA>
48.6

> <PUBCHEM_MONOISOTOPIC_WEIGHT>
397.1557047

> <PUBCHEM_TOTAL_CHARGE>
0

> <PUBCHEM_HEAVY_ATOM_COUNT>
28

> <PUBCHEM_ATOM_DEF_STEREO_COUNT>
0

> <PUBCHEM_ATOM_UDEF_STEREO_COUNT>
0

> <PUBCHEM_BOND_DEF_STEREO_COUNT>
0

> <PUBCHEM_BOND_UDEF_STEREO_COUNT>
0

> <PUBCHEM_ISOTOPIC_ATOM_COUNT>
0

> <PUBCHEM_COMPONENT_COUNT>
1

> <PUBCHEM_CACTVS_TAUTO_COUNT>
-1

> <PUBCHEM_COORDINATE_TYPE>
1
5
255

> <PUBCHEM_BONDANNOTATIONS>
14  15  8
15  17  8
16  17  8
16  18  8
17  19  8
18  21  8
19  22  8
20  23  8
20  24  8
21  22  8
23  25  8
24  26  8
25  27  8
26  27  8
6  14  8
6  16  8

$$$$
