11026289
  -OEChem-09292322112D

 59 63  0     0  0  0  0  0  0999 V2000
    4.4118    1.7170    0.0000 O   0  0  0  0  0  0  0  0  0  0  0  0
    4.5274    6.1845    0.0000 O   0  0  0  0  0  0  0  0  0  0  0  0
    6.7338   -2.2338    0.0000 N   0  0  0  0  0  0  0  0  0  0  0  0
    8.0548   -3.7355    0.0000 N   0  0  0  0  0  0  0  0  0  0  0  0
    6.0528    1.1627    0.0000 N   0  0  0  0  0  0  0  0  0  0  0  0
    6.4138   -3.1812    0.0000 C   0  0  0  0  0  0  0  0  0  0  0  0
    7.7143   -2.0372    0.0000 C   0  0  0  0  0  0  0  0  0  0  0  0
    7.0743   -3.9320    0.0000 C   0  0  0  0  0  0  0  0  0  0  0  0
    8.3748   -2.7880    0.0000 C   0  0  0  0  0  0  0  0  0  0  0  0
    6.0733   -1.4830    0.0000 C   0  0  0  0  0  0  0  0  0  0  0  0
    6.3933   -0.5355    0.0000 C   0  0  0  0  0  0  0  0  0  0  0  0
    8.7153   -4.4863    0.0000 C   0  0  0  0  0  0  0  0  0  0  0  0
    5.7328    0.2153    0.0000 C   0  0  0  0  0  0  0  0  0  0  0  0
    8.3953   -5.4337    0.0000 C   0  0  0  0  0  0  0  0  0  0  0  0
    9.6958   -4.2897    0.0000 C   0  0  0  0  0  0  0  0  0  0  0  0
    5.0274    3.6457    0.0000 C   0  0  0  0  0  0  0  0  0  0  0  0
    5.7123    2.8610    0.0000 C   0  0  0  0  0  0  0  0  0  0  0  0
    4.0274    3.6457    0.0000 C   0  0  0  0  0  0  0  0  0  0  0  0
    5.3364    4.5968    0.0000 C   0  0  0  0  0  0  0  0  0  0  0  0
    5.3923    1.9135    0.0000 C   0  0  0  0  0  0  0  0  0  0  0  0
    3.7183    4.5968    0.0000 C   0  0  0  0  0  0  0  0  0  0  0  0
    4.5274    5.1845    0.0000 C   0  0  0  0  0  0  0  0  0  0  0  0
    9.0558   -6.1845    0.0000 C   0  0  0  0  0  0  0  0  0  0  0  0
   10.3563   -5.0405    0.0000 C   0  0  0  0  0  0  0  0  0  0  0  0
    6.7328    3.0697    0.0000 C   0  0  0  0  0  0  0  0  0  0  0  0
    6.3518    4.8290    0.0000 C   0  0  0  0  0  0  0  0  0  0  0  0
   10.0363   -5.9880    0.0000 C   0  0  0  0  0  0  0  0  0  0  0  0
    3.3424    2.8610    0.0000 C   0  0  0  0  0  0  0  0  0  0  0  0
    7.0547    4.0603    0.0000 C   0  0  0  0  0  0  0  0  0  0  0  0
    2.7029    4.8290    0.0000 C   0  0  0  0  0  0  0  0  0  0  0  0
    2.3219    3.0697    0.0000 C   0  0  0  0  0  0  0  0  0  0  0  0
    2.0000    4.0603    0.0000 C   0  0  0  0  0  0  0  0  0  0  0  0
    5.8698   -2.8838    0.0000 H   0  0  0  0  0  0  0  0  0  0  0  0
    6.0265   -3.6653    0.0000 H   0  0  0  0  0  0  0  0  0  0  0  0
    8.2439   -1.7148    0.0000 H   0  0  0  0  0  0  0  0  0  0  0  0
    7.4887   -1.4597    0.0000 H   0  0  0  0  0  0  0  0  0  0  0  0
    6.5448   -4.2545    0.0000 H   0  0  0  0  0  0  0  0  0  0  0  0
    7.2999   -4.5096    0.0000 H   0  0  0  0  0  0  0  0  0  0  0  0
    8.9188   -3.0854    0.0000 H   0  0  0  0  0  0  0  0  0  0  0  0
    8.7621   -2.3039    0.0000 H   0  0  0  0  0  0  0  0  0  0  0  0
    5.5293   -1.1856    0.0000 H   0  0  0  0  0  0  0  0  0  0  0  0
    5.6860   -1.9671    0.0000 H   0  0  0  0  0  0  0  0  0  0  0  0
    6.9374   -0.8329    0.0000 H   0  0  0  0  0  0  0  0  0  0  0  0
    6.7807   -0.0514    0.0000 H   0  0  0  0  0  0  0  0  0  0  0  0
    5.1888    0.5127    0.0000 H   0  0  0  0  0  0  0  0  0  0  0  0
    5.3455   -0.2688    0.0000 H   0  0  0  0  0  0  0  0  0  0  0  0
    6.6607    1.2846    0.0000 H   0  0  0  0  0  0  0  0  0  0  0  0
    7.7874   -5.5556    0.0000 H   0  0  0  0  0  0  0  0  0  0  0  0
    9.8942   -3.7023    0.0000 H   0  0  0  0  0  0  0  0  0  0  0  0
    8.8574   -6.7719    0.0000 H   0  0  0  0  0  0  0  0  0  0  0  0
   10.9642   -4.9187    0.0000 H   0  0  0  0  0  0  0  0  0  0  0  0
    7.1459    2.6073    0.0000 H   0  0  0  0  0  0  0  0  0  0  0  0
    6.5365    5.4208    0.0000 H   0  0  0  0  0  0  0  0  0  0  0  0
    3.5408    2.2736    0.0000 H   0  0  0  0  0  0  0  0  0  0  0  0
   10.4458   -6.4535    0.0000 H   0  0  0  0  0  0  0  0  0  0  0  0
    7.6607    4.1916    0.0000 H   0  0  0  0  0  0  0  0  0  0  0  0
    2.5182    5.4208    0.0000 H   0  0  0  0  0  0  0  0  0  0  0  0
    1.9088    2.6073    0.0000 H   0  0  0  0  0  0  0  0  0  0  0  0
    1.3940    4.1916    0.0000 H   0  0  0  0  0  0  0  0  0  0  0  0
  1 20  2  0  0  0  0
  2 22  2  0  0  0  0
  3  6  1  0  0  0  0
  3  7  1  0  0  0  0
  3 10  1  0  0  0  0
  4  8  1  0  0  0  0
  4  9  1  0  0  0  0
  4 12  1  0  0  0  0
  5 13  1  0  0  0  0
  5 20  1  0  0  0  0
  5 47  1  0  0  0  0
  6  8  1  0  0  0  0
  6 33  1  0  0  0  0
  6 34  1  0  0  0  0
  7  9  1  0  0  0  0
  7 35  1  0  0  0  0
  7 36  1  0  0  0  0
  8 37  1  0  0  0  0
  8 38  1  0  0  0  0
  9 39  1  0  0  0  0
  9 40  1  0  0  0  0
 10 11  1  0  0  0  0
 10 41  1  0  0  0  0
 10 42  1  0  0  0  0
 11 13  1  0  0  0  0
 11 43  1  0  0  0  0
 11 44  1  0  0  0  0
 12 14  2  0  0  0  0
 12 15  1  0  0  0  0
 13 45  1  0  0  0  0
 13 46  1  0  0  0  0
 14 23  1  0  0  0  0
 14 48  1  0  0  0  0
 15 24  2  0  0  0  0
 15 49  1  0  0  0  0
 16 17  1  0  0  0  0
 16 18  1  0  0  0  0
 16 19  2  0  0  0  0
 17 20  1  0  0  0  0
 17 25  2  0  0  0  0
 18 21  1  0  0  0  0
 18 28  2  0  0  0  0
 19 22  1  0  0  0  0
 19 26  1  0  0  0  0
 21 22  1  0  0  0  0
 21 30  2  0  0  0  0
 23 27  2  0  0  0  0
 23 50  1  0  0  0  0
 24 27  1  0  0  0  0
 24 51  1  0  0  0  0
 25 29  1  0  0  0  0
 25 52  1  0  0  0  0
 26 29  2  0  0  0  0
 26 53  1  0  0  0  0
 27 55  1  0  0  0  0
 28 31  1  0  0  0  0
 28 54  1  0  0  0  0
 29 56  1  0  0  0  0
 30 32  1  0  0  0  0
 30 57  1  0  0  0  0
 31 32  2  0  0  0  0
 31 58  1  0  0  0  0
 32 59  1  0  0  0  0
M  END
> <PUBCHEM_COMPOUND_CID>
11026289

> <PUBCHEM_COMPOUND_CANONICALIZED>
1

> <PUBCHEM_CACTVS_COMPLEXITY>
653

> <PUBCHEM_CACTVS_HBOND_ACCEPTOR>
4

> <PUBCHEM_CACTVS_HBOND_DONOR>
1

> <PUBCHEM_CACTVS_ROTATABLE_BOND>
6

> <PUBCHEM_CACTVS_SUBSKEYS>
AAADceB7MAAAAAAAAAAAAAAAAAAAAYAAAAA8YMEAAAAAAGABUAAAHgAQAAAADAzBmAQwwIPAAACIAqVSUACCAAAlAgAIiIEIZMgIYDLA1ZGUIQhglgDIyYcYi8CugAACAAAQAAAAAAQAACAAAQAACAAAAA==

> <PUBCHEM_IUPAC_OPENEYE_NAME>
9-oxo-N-[3-(4-phenylpiperazin-1-yl)propyl]fluorene-4-carboxamide

> <PUBCHEM_IUPAC_CAS_NAME>
9-oxo-N-[3-(4-phenyl-1-piperazinyl)propyl]-4-fluorenecarboxamide

> <PUBCHEM_IUPAC_NAME_MARKUP>
9-oxo-<I>N</I>-[3-(4-phenylpiperazin-1-yl)propyl]fluorene-4-carboxamide

> <PUBCHEM_IUPAC_NAME>
9-oxo-N-[3-(4-phenylpiperazin-1-yl)propyl]fluorene-4-carboxamide

> <PUBCHEM_IUPAC_SYSTEMATIC_NAME>
9-oxidanylidene-N-[3-(4-phenylpiperazin-1-yl)propyl]fluorene-4-carboxamide

> <PUBCHEM_IUPAC_TRADITIONAL_NAME>
9-keto-N-[3-(4-phenylpiperazino)propyl]fluorene-4-carboxamide

> <PUBCHEM_IUPAC_INCHI>
InChI=1S/C27H27N3O2/c31-26-22-11-5-4-10-21(22)25-23(26)12-6-13-24(25)27(32)28-14-7-15-29-16-18-30(19-17-29)20-8-2-1-3-9-20/h1-6,8-13H,7,14-19H2,(H,28,32)

> <PUBCHEM_IUPAC_INCHIKEY>
QRUCJPHVVJRIMC-UHFFFAOYSA-N

> <PUBCHEM_XLOGP3_AA>
4.3

> <PUBCHEM_EXACT_MASS>
425.21032711

> <PUBCHEM_MOLECULAR_FORMULA>
C27H27N3O2

> <PUBCHEM_MOLECULAR_WEIGHT>
425.5

> <PUBCHEM_OPENEYE_CAN_SMILES>
C1CN(CCN1CCCNC(=O)C2=CC=CC3=C2C4=CC=CC=C4C3=O)C5=CC=CC=C5

> <PUBCHEM_OPENEYE_ISO_SMILES>
C1CN(CCN1CCCNC(=O)C2=CC=CC3=C2C4=CC=CC=C4C3=O)C5=CC=CC=C5

> <PUBCHEM_CACTVS_TPSA>
52.6

> <PUBCHEM_MONOISOTOPIC_WEIGHT>
425.21032711

> <PUBCHEM_TOTAL_CHARGE>
0

> <PUBCHEM_HEAVY_ATOM_COUNT>
32

> <PUBCHEM_ATOM_DEF_STEREO_COUNT>
0

> <PUBCHEM_ATOM_UDEF_STEREO_COUNT>
0

> <PUBCHEM_BOND_DEF_STEREO_COUNT>
0

> <PUBCHEM_BOND_UDEF_STEREO_COUNT>
0

> <PUBCHEM_ISOTOPIC_ATOM_COUNT>
0

> <PUBCHEM_COMPONENT_COUNT>
1

> <PUBCHEM_CACTVS_TAUTO_COUNT>
-1

> <PUBCHEM_COORDINATE_TYPE>
1
5
255

> <PUBCHEM_BONDANNOTATIONS>
12  14  8
12  15  8
14  23  8
15  24  8
16  17  8
16  19  8
17  25  8
18  21  8
18  28  8
19  26  8
21  30  8
23  27  8
24  27  8
25  29  8
26  29  8
28  31  8
30  32  8
31  32  8

$$$$
