10249573
  -OEChem-09292322102D

 57 60  0     1  0  0  0  0  0999 V2000
    8.3074   -0.2479    0.0000 S   0  0  0  0  0  0  0  0  0  0  0  0
    7.3074   -0.2479    0.0000 O   0  0  0  0  0  0  0  0  0  0  0  0
    9.3074   -0.2479    0.0000 O   0  0  0  0  0  0  0  0  0  0  0  0
    8.3074   -1.2479    0.0000 N   0  0  3  0  0  0  0  0  0  0  0  0
    4.8532   -1.8868    0.0000 N   0  0  0  0  0  0  0  0  0  0  0  0
    7.4984   -1.8357    0.0000 C   0  0  2  0  0  0  0  0  0  0  0  0
    7.8074   -2.7868    0.0000 C   0  0  0  0  0  0  0  0  0  0  0  0
    6.5474   -1.5267    0.0000 C   0  0  0  0  0  0  0  0  0  0  0  0
    8.8074   -2.7868    0.0000 C   0  0  0  0  0  0  0  0  0  0  0  0
    9.1165   -1.8357    0.0000 C   0  0  0  0  0  0  0  0  0  0  0  0
    5.8042   -2.1958    0.0000 C   0  0  0  0  0  0  0  0  0  0  0  0
    2.9511   -1.2688    0.0000 C   0  0  0  0  0  0  0  0  0  0  0  0
    4.6453   -0.9086    0.0000 C   0  0  0  0  0  0  0  0  0  0  0  0
    4.1100   -2.5559    0.0000 C   0  0  0  0  0  0  0  0  0  0  0  0
    3.6942   -0.5996    0.0000 C   0  0  0  0  0  0  0  0  0  0  0  0
    3.1590   -2.2469    0.0000 C   0  0  0  0  0  0  0  0  0  0  0  0
    2.0000   -0.9597    0.0000 C   0  0  0  0  0  0  0  0  0  0  0  0
    8.3074    0.7521    0.0000 C   0  0  0  0  0  0  0  0  0  0  0  0
    9.1735    1.2521    0.0000 C   0  0  0  0  0  0  0  0  0  0  0  0
    7.4414    1.2521    0.0000 C   0  0  0  0  0  0  0  0  0  0  0  0
    9.1735    2.2521    0.0000 C   0  0  0  0  0  0  0  0  0  0  0  0
    7.4414    2.2521    0.0000 C   0  0  0  0  0  0  0  0  0  0  0  0
   10.0674    0.7174    0.0000 C   0  0  0  0  0  0  0  0  0  0  0  0
    8.3074    2.7521    0.0000 C   0  0  0  0  0  0  0  0  0  0  0  0
   10.0674    2.7868    0.0000 C   0  0  0  0  0  0  0  0  0  0  0  0
   10.9735    1.2313    0.0000 C   0  0  0  0  0  0  0  0  0  0  0  0
   10.9735    2.2729    0.0000 C   0  0  0  0  0  0  0  0  0  0  0  0
    7.4014   -1.2233    0.0000 H   0  0  0  0  0  0  0  0  0  0  0  0
    7.2010   -2.9157    0.0000 H   0  0  0  0  0  0  0  0  0  0  0  0
    7.8722   -3.4034    0.0000 H   0  0  0  0  0  0  0  0  0  0  0  0
    6.8384   -0.9792    0.0000 H   0  0  0  0  0  0  0  0  0  0  0  0
    6.0588   -1.1450    0.0000 H   0  0  0  0  0  0  0  0  0  0  0  0
    8.7426   -3.4034    0.0000 H   0  0  0  0  0  0  0  0  0  0  0  0
    9.4139   -2.9157    0.0000 H   0  0  0  0  0  0  0  0  0  0  0  0
    9.6829   -2.0879    0.0000 H   0  0  0  0  0  0  0  0  0  0  0  0
    9.4265   -1.2988    0.0000 H   0  0  0  0  0  0  0  0  0  0  0  0
    5.5132   -2.7432    0.0000 H   0  0  0  0  0  0  0  0  0  0  0  0
    6.2928   -2.5775    0.0000 H   0  0  0  0  0  0  0  0  0  0  0  0
    2.8222   -0.6623    0.0000 H   0  0  0  0  0  0  0  0  0  0  0  0
    5.2649   -0.8870    0.0000 H   0  0  0  0  0  0  0  0  0  0  0  0
    4.7316   -0.2947    0.0000 H   0  0  0  0  0  0  0  0  0  0  0  0
    3.8190   -3.1034    0.0000 H   0  0  0  0  0  0  0  0  0  0  0  0
    4.5986   -2.9376    0.0000 H   0  0  0  0  0  0  0  0  0  0  0  0
    3.9853   -0.0522    0.0000 H   0  0  0  0  0  0  0  0  0  0  0  0
    3.2056   -0.2179    0.0000 H   0  0  0  0  0  0  0  0  0  0  0  0
    2.5394   -2.2685    0.0000 H   0  0  0  0  0  0  0  0  0  0  0  0
    3.0727   -2.8609    0.0000 H   0  0  0  0  0  0  0  0  0  0  0  0
    2.1916   -0.3701    0.0000 H   0  0  0  0  0  0  0  0  0  0  0  0
    1.4103   -0.7682    0.0000 H   0  0  0  0  0  0  0  0  0  0  0  0
    1.8084   -1.5494    0.0000 H   0  0  0  0  0  0  0  0  0  0  0  0
    6.9045    0.9421    0.0000 H   0  0  0  0  0  0  0  0  0  0  0  0
    6.9045    2.5621    0.0000 H   0  0  0  0  0  0  0  0  0  0  0  0
   10.0602    0.0975    0.0000 H   0  0  0  0  0  0  0  0  0  0  0  0
    8.3074    3.3721    0.0000 H   0  0  0  0  0  0  0  0  0  0  0  0
   10.0602    3.4067    0.0000 H   0  0  0  0  0  0  0  0  0  0  0  0
   11.5092    0.9192    0.0000 H   0  0  0  0  0  0  0  0  0  0  0  0
   11.5092    2.5850    0.0000 H   0  0  0  0  0  0  0  0  0  0  0  0
  1  2  2  0  0  0  0
  1  3  2  0  0  0  0
  1  4  1  0  0  0  0
  1 18  1  0  0  0  0
  4  6  1  0  0  0  0
  4 10  1  0  0  0  0
  5 11  1  0  0  0  0
  5 13  1  0  0  0  0
  5 14  1  0  0  0  0
  6  7  1  0  0  0  0
  6  8  1  6  0  0  0
  6 28  1  0  0  0  0
  7  9  1  0  0  0  0
  7 29  1  0  0  0  0
  7 30  1  0  0  0  0
  8 11  1  0  0  0  0
  8 31  1  0  0  0  0
  8 32  1  0  0  0  0
  9 10  1  0  0  0  0
  9 33  1  0  0  0  0
  9 34  1  0  0  0  0
 10 35  1  0  0  0  0
 10 36  1  0  0  0  0
 11 37  1  0  0  0  0
 11 38  1  0  0  0  0
 12 15  1  0  0  0  0
 12 16  1  0  0  0  0
 12 17  1  0  0  0  0
 12 39  1  0  0  0  0
 13 15  1  0  0  0  0
 13 40  1  0  0  0  0
 13 41  1  0  0  0  0
 14 16  1  0  0  0  0
 14 42  1  0  0  0  0
 14 43  1  0  0  0  0
 15 44  1  0  0  0  0
 15 45  1  0  0  0  0
 16 46  1  0  0  0  0
 16 47  1  0  0  0  0
 17 48  1  0  0  0  0
 17 49  1  0  0  0  0
 17 50  1  0  0  0  0
 18 19  1  0  0  0  0
 18 20  2  0  0  0  0
 19 21  1  0  0  0  0
 19 23  2  0  0  0  0
 20 22  1  0  0  0  0
 20 51  1  0  0  0  0
 21 24  1  0  0  0  0
 21 25  2  0  0  0  0
 22 24  2  0  0  0  0
 22 52  1  0  0  0  0
 23 26  1  0  0  0  0
 23 53  1  0  0  0  0
 24 54  1  0  0  0  0
 25 27  1  0  0  0  0
 25 55  1  0  0  0  0
 26 27  2  0  0  0  0
 26 56  1  0  0  0  0
 27 57  1  0  0  0  0
M  END
> <PUBCHEM_COMPOUND_CID>
10249573

> <PUBCHEM_COMPOUND_CANONICALIZED>
1

> <PUBCHEM_CACTVS_COMPLEXITY>
580

> <PUBCHEM_CACTVS_HBOND_ACCEPTOR>
4

> <PUBCHEM_CACTVS_HBOND_DONOR>
0

> <PUBCHEM_CACTVS_ROTATABLE_BOND>
5

> <PUBCHEM_CACTVS_SUBSKEYS>
AAADceB7MABAAAAAAAAAAAAAAAAAAWAAAAA8YIAAAAAAAADBUAAAHAQAQAAADSjBWAQyAcMAAAKAAiBCAHBCABAgAAAIiBgIAIgIICKA0RCEIAAggACIiAcQgIAOgAAAgAAUAAAAAAEAACgAAAAAAAAAAA==

> <PUBCHEM_IUPAC_OPENEYE_NAME>
4-methyl-1-[2-[(2R)-1-(1-naphthylsulfonyl)pyrrolidin-2-yl]ethyl]piperidine

> <PUBCHEM_IUPAC_CAS_NAME>
4-methyl-1-[2-[(2R)-1-(1-naphthalenylsulfonyl)-2-pyrrolidinyl]ethyl]piperidine

> <PUBCHEM_IUPAC_NAME_MARKUP>
4-methyl-1-[2-[(2<I>R</I>)-1-naphthalen-1-ylsulfonylpyrrolidin-2-yl]ethyl]piperidine

> <PUBCHEM_IUPAC_NAME>
4-methyl-1-[2-[(2R)-1-naphthalen-1-ylsulfonylpyrrolidin-2-yl]ethyl]piperidine

> <PUBCHEM_IUPAC_SYSTEMATIC_NAME>
4-methyl-1-[2-[(2R)-1-naphthalen-1-ylsulfonylpyrrolidin-2-yl]ethyl]piperidine

> <PUBCHEM_IUPAC_TRADITIONAL_NAME>
4-methyl-1-[2-[(2R)-1-(1-naphthylsulfonyl)pyrrolidin-2-yl]ethyl]piperidine

> <PUBCHEM_IUPAC_INCHI>
InChI=1S/C22H30N2O2S/c1-18-11-15-23(16-12-18)17-13-20-8-5-14-24(20)27(25,26)22-10-4-7-19-6-2-3-9-21(19)22/h2-4,6-7,9-10,18,20H,5,8,11-17H2,1H3/t20-/m1/s1

> <PUBCHEM_IUPAC_INCHIKEY>
VCFMMDVFGUQTHR-HXUWFJFHSA-N

> <PUBCHEM_XLOGP3_AA>
4.6

> <PUBCHEM_EXACT_MASS>
386.20279938

> <PUBCHEM_MOLECULAR_FORMULA>
C22H30N2O2S

> <PUBCHEM_MOLECULAR_WEIGHT>
386.6

> <PUBCHEM_OPENEYE_CAN_SMILES>
CC1CCN(CC1)CCC2CCCN2S(=O)(=O)C3=CC=CC4=CC=CC=C43

> <PUBCHEM_OPENEYE_ISO_SMILES>
CC1CCN(CC1)CC[C@H]2CCCN2S(=O)(=O)C3=CC=CC4=CC=CC=C43

> <PUBCHEM_CACTVS_TPSA>
49

> <PUBCHEM_MONOISOTOPIC_WEIGHT>
386.20279938

> <PUBCHEM_TOTAL_CHARGE>
0

> <PUBCHEM_HEAVY_ATOM_COUNT>
27

> <PUBCHEM_ATOM_DEF_STEREO_COUNT>
1

> <PUBCHEM_ATOM_UDEF_STEREO_COUNT>
0

> <PUBCHEM_BOND_DEF_STEREO_COUNT>
0

> <PUBCHEM_BOND_UDEF_STEREO_COUNT>
0

> <PUBCHEM_ISOTOPIC_ATOM_COUNT>
0

> <PUBCHEM_COMPONENT_COUNT>
1

> <PUBCHEM_CACTVS_TAUTO_COUNT>
-1

> <PUBCHEM_COORDINATE_TYPE>
1
5
255

> <PUBCHEM_BONDANNOTATIONS>
18  19  8
18  20  8
19  21  8
19  23  8
20  22  8
21  24  8
21  25  8
22  24  8
23  26  8
25  27  8
26  27  8
6  8  6

$$$$
