20267107
  -OEChem-09292322512D

 46 49  0     1  0  0  0  0  0999 V2000
    3.6972    1.8662    0.0000 O   0  0  0  0  0  0  0  0  0  0  0  0
    6.3353    4.4008    0.0000 O   0  0  0  0  0  0  0  0  0  0  0  0
    3.6972   -0.2031    0.0000 N   0  0  3  0  0  0  0  0  0  0  0  0
    4.5912    0.3315    0.0000 C   0  0  3  0  0  0  0  0  0  0  0  0
    4.5912    1.3315    0.0000 C   0  0  3  0  0  0  0  0  0  0  0  0
    5.4572   -0.1685    0.0000 C   0  0  0  0  0  0  0  0  0  0  0  0
    6.3232    0.3315    0.0000 C   0  0  0  0  0  0  0  0  0  0  0  0
    5.4572    1.8315    0.0000 C   0  0  0  0  0  0  0  0  0  0  0  0
    2.7912    0.3107    0.0000 C   0  0  0  0  0  0  0  0  0  0  0  0
    6.3232    1.3315    0.0000 C   0  0  0  0  0  0  0  0  0  0  0  0
    3.7088   -1.2031    0.0000 C   0  0  0  0  0  0  0  0  0  0  0  0
    2.7912    1.3523    0.0000 C   0  0  0  0  0  0  0  0  0  0  0  0
    5.4412    2.8730    0.0000 C   0  0  0  0  0  0  0  0  0  0  0  0
    2.8486   -1.7130    0.0000 C   0  0  0  0  0  0  0  0  0  0  0  0
    7.2332    1.8384    0.0000 C   0  0  0  0  0  0  0  0  0  0  0  0
    6.3392    3.4008    0.0000 C   0  0  0  0  0  0  0  0  0  0  0  0
    7.2413    2.8800    0.0000 C   0  0  0  0  0  0  0  0  0  0  0  0
    2.8602   -2.7130    0.0000 C   0  0  0  0  0  0  0  0  0  0  0  0
    2.0000   -3.2230    0.0000 C   0  0  0  0  0  0  0  0  0  0  0  0
    3.7319   -3.2029    0.0000 C   0  0  0  0  0  0  0  0  0  0  0  0
    2.0116   -4.2229    0.0000 C   0  0  0  0  0  0  0  0  0  0  0  0
    3.7435   -4.2029    0.0000 C   0  0  0  0  0  0  0  0  0  0  0  0
    2.8833   -4.7129    0.0000 C   0  0  0  0  0  0  0  0  0  0  0  0
    4.5960   -0.2885    0.0000 H   0  0  0  0  0  0  0  0  0  0  0  0
    4.5960    1.9515    0.0000 H   0  0  0  0  0  0  0  0  0  0  0  0
    5.0587   -0.6434    0.0000 H   0  0  0  0  0  0  0  0  0  0  0  0
    5.8557   -0.6434    0.0000 H   0  0  0  0  0  0  0  0  0  0  0  0
    6.5353   -0.2511    0.0000 H   0  0  0  0  0  0  0  0  0  0  0  0
    6.9338    0.4392    0.0000 H   0  0  0  0  0  0  0  0  0  0  0  0
    2.1803    0.4168    0.0000 H   0  0  0  0  0  0  0  0  0  0  0  0
    2.5821   -0.2730    0.0000 H   0  0  0  0  0  0  0  0  0  0  0  0
    3.9276   -1.7832    0.0000 H   0  0  0  0  0  0  0  0  0  0  0  0
    4.3181   -1.0884    0.0000 H   0  0  0  0  0  0  0  0  0  0  0  0
    2.5821    1.9360    0.0000 H   0  0  0  0  0  0  0  0  0  0  0  0
    2.1803    1.2462    0.0000 H   0  0  0  0  0  0  0  0  0  0  0  0
    4.9007    3.1768    0.0000 H   0  0  0  0  0  0  0  0  0  0  0  0
    2.6298   -1.1329    0.0000 H   0  0  0  0  0  0  0  0  0  0  0  0
    2.2393   -1.8278    0.0000 H   0  0  0  0  0  0  0  0  0  0  0  0
    7.7666    1.5222    0.0000 H   0  0  0  0  0  0  0  0  0  0  0  0
    7.7794    3.1879    0.0000 H   0  0  0  0  0  0  0  0  0  0  0  0
    1.4595   -2.9192    0.0000 H   0  0  0  0  0  0  0  0  0  0  0  0
    4.2652   -2.8868    0.0000 H   0  0  0  0  0  0  0  0  0  0  0  0
    6.8711    4.7129    0.0000 H   0  0  0  0  0  0  0  0  0  0  0  0
    1.4782   -4.5391    0.0000 H   0  0  0  0  0  0  0  0  0  0  0  0
    4.2840   -4.5066    0.0000 H   0  0  0  0  0  0  0  0  0  0  0  0
    2.8905   -5.3328    0.0000 H   0  0  0  0  0  0  0  0  0  0  0  0
  1  5  1  0  0  0  0
  1 12  1  0  0  0  0
  2 16  1  0  0  0  0
  2 43  1  0  0  0  0
  3  4  1  0  0  0  0
  3  9  1  0  0  0  0
  3 11  1  0  0  0  0
  4  5  1  0  0  0  0
  4  6  1  0  0  0  0
  4 24  1  0  0  0  0
  5  8  1  0  0  0  0
  5 25  1  0  0  0  0
  6  7  1  0  0  0  0
  6 26  1  0  0  0  0
  6 27  1  0  0  0  0
  7 10  1  0  0  0  0
  7 28  1  0  0  0  0
  7 29  1  0  0  0  0
  8 10  2  0  0  0  0
  8 13  1  0  0  0  0
  9 12  1  0  0  0  0
  9 30  1  0  0  0  0
  9 31  1  0  0  0  0
 10 15  1  0  0  0  0
 11 14  1  0  0  0  0
 11 32  1  0  0  0  0
 11 33  1  0  0  0  0
 12 34  1  0  0  0  0
 12 35  1  0  0  0  0
 13 16  2  0  0  0  0
 13 36  1  0  0  0  0
 14 18  1  0  0  0  0
 14 37  1  0  0  0  0
 14 38  1  0  0  0  0
 15 17  2  0  0  0  0
 15 39  1  0  0  0  0
 16 17  1  0  0  0  0
 17 40  1  0  0  0  0
 18 19  2  0  0  0  0
 18 20  1  0  0  0  0
 19 21  1  0  0  0  0
 19 41  1  0  0  0  0
 20 22  2  0  0  0  0
 20 42  1  0  0  0  0
 21 23  2  0  0  0  0
 21 44  1  0  0  0  0
 22 23  1  0  0  0  0
 22 45  1  0  0  0  0
 23 46  1  0  0  0  0
M  END
> <PUBCHEM_COMPOUND_CID>
20267107

> <PUBCHEM_COMPOUND_CANONICALIZED>
1

> <PUBCHEM_CACTVS_COMPLEXITY>
382

> <PUBCHEM_CACTVS_HBOND_ACCEPTOR>
3

> <PUBCHEM_CACTVS_HBOND_DONOR>
1

> <PUBCHEM_CACTVS_ROTATABLE_BOND>
3

> <PUBCHEM_CACTVS_SUBSKEYS>
AAADceB6MAAAAAAAAAAAAAAAAAAAAAAAAAA8YMEAAAAAAADxQAAAHgAACAAADDzhmAYwBoMABgCAAiBCAAACAAAgIAAIiAAOCIgKJiKCsRuHcAAkwBGYuAfQ0LMOoAABAAAQAABQAAKAADAgAAAAAAAAAA==

> <PUBCHEM_IUPAC_OPENEYE_NAME>
4-(2-phenylethyl)-2,3,4a,5,6,10b-hexahydrobenzo[h][1,4]benzoxazin-9-ol

> <PUBCHEM_IUPAC_CAS_NAME>
4-(2-phenylethyl)-2,3,4a,5,6,10b-hexahydrobenzo[h][1,4]benzoxazin-9-ol

> <PUBCHEM_IUPAC_NAME_MARKUP>
4-(2-phenylethyl)-2,3,4<I>a</I>,5,6,10<I>b</I>-hexahydrobenzo[h][1,4]benzoxazin-9-ol

> <PUBCHEM_IUPAC_NAME>
4-(2-phenylethyl)-2,3,4a,5,6,10b-hexahydrobenzo[h][1,4]benzoxazin-9-ol

> <PUBCHEM_IUPAC_SYSTEMATIC_NAME>
4-(2-phenylethyl)-2,3,4a,5,6,10b-hexahydrobenzo[h][1,4]benzoxazin-9-ol

> <PUBCHEM_IUPAC_TRADITIONAL_NAME>
4-phenethyl-2,3,4a,5,6,10b-hexahydrobenzo[h][1,4]benzoxazin-9-ol

> <PUBCHEM_IUPAC_INCHI>
InChI=1S/C20H23NO2/c22-17-8-6-16-7-9-19-20(18(16)14-17)23-13-12-21(19)11-10-15-4-2-1-3-5-15/h1-6,8,14,19-20,22H,7,9-13H2

> <PUBCHEM_IUPAC_INCHIKEY>
BTBOPEIOYRBCDM-UHFFFAOYSA-N

> <PUBCHEM_XLOGP3>
3.5

> <PUBCHEM_EXACT_MASS>
309.172878976

> <PUBCHEM_MOLECULAR_FORMULA>
C20H23NO2

> <PUBCHEM_MOLECULAR_WEIGHT>
309.4

> <PUBCHEM_OPENEYE_CAN_SMILES>
C1CC2=C(C=C(C=C2)O)C3C1N(CCO3)CCC4=CC=CC=C4

> <PUBCHEM_OPENEYE_ISO_SMILES>
C1CC2=C(C=C(C=C2)O)C3C1N(CCO3)CCC4=CC=CC=C4

> <PUBCHEM_CACTVS_TPSA>
32.7

> <PUBCHEM_MONOISOTOPIC_WEIGHT>
309.172878976

> <PUBCHEM_TOTAL_CHARGE>
0

> <PUBCHEM_HEAVY_ATOM_COUNT>
23

> <PUBCHEM_ATOM_DEF_STEREO_COUNT>
0

> <PUBCHEM_ATOM_UDEF_STEREO_COUNT>
2

> <PUBCHEM_BOND_DEF_STEREO_COUNT>
0

> <PUBCHEM_BOND_UDEF_STEREO_COUNT>
0

> <PUBCHEM_ISOTOPIC_ATOM_COUNT>
0

> <PUBCHEM_COMPONENT_COUNT>
1

> <PUBCHEM_CACTVS_TAUTO_COUNT>
-1

> <PUBCHEM_COORDINATE_TYPE>
1
5
255

> <PUBCHEM_BONDANNOTATIONS>
5  1  3
10  15  8
13  16  8
15  17  8
16  17  8
18  19  8
18  20  8
19  21  8
20  22  8
21  23  8
22  23  8
4  6  3
8  10  8
8  13  8

$$$$
