44305165
  -OEChem-09292322122D

 51 53  0     1  0  0  0  0  0999 V2000
    3.6464    0.4086    0.0000 O   0  0  0  0  0  0  0  0  0  0  0  0
    5.9795    1.4783    0.0000 N   0  0  0  0  0  0  0  0  0  0  0  0
    3.2892   -2.8957    0.0000 N   0  0  0  0  0  0  0  0  0  0  0  0
    5.9834    0.4783    0.0000 C   0  0  1  0  0  0  0  0  0  0  0  0
    5.0854   -0.0494    0.0000 C   0  0  0  0  0  0  0  0  0  0  0  0
    6.8855   -0.0425    0.0000 C   0  0  0  0  0  0  0  0  0  0  0  0
    5.1014   -1.0909    0.0000 C   0  0  0  0  0  0  0  0  0  0  0  0
    6.8774   -1.0841    0.0000 C   0  0  0  0  0  0  0  0  0  0  0  0
    5.9674   -1.5909    0.0000 C   0  0  0  0  0  0  0  0  0  0  0  0
    4.2354   -1.5909    0.0000 C   0  0  0  0  0  0  0  0  0  0  0  0
    6.8436    1.9817    0.0000 C   0  0  0  0  0  0  0  0  0  0  0  0
    5.1116    1.9750    0.0000 C   0  0  0  0  0  0  0  0  0  0  0  0
    4.2354   -2.5909    0.0000 C   0  0  0  0  0  0  0  0  0  0  0  0
    5.9674   -2.5909    0.0000 C   0  0  0  0  0  0  0  0  0  0  0  0
    3.2892   -1.2862    0.0000 C   0  0  0  0  0  0  0  0  0  0  0  0
    6.8398    2.9816    0.0000 C   0  0  0  0  0  0  0  0  0  0  0  0
    5.1077    2.9750    0.0000 C   0  0  0  0  0  0  0  0  0  0  0  0
    5.1014   -3.0909    0.0000 C   0  0  0  0  0  0  0  0  0  0  0  0
    2.7056   -2.0909    0.0000 C   0  0  0  0  0  0  0  0  0  0  0  0
    7.7039    3.4850    0.0000 C   0  0  0  0  0  0  0  0  0  0  0  0
    4.2398    3.4716    0.0000 C   0  0  0  0  0  0  0  0  0  0  0  0
    2.9785   -0.3357    0.0000 C   0  0  0  0  0  0  0  0  0  0  0  0
    2.0000   -0.1295    0.0000 C   0  0  0  0  0  0  0  0  0  0  0  0
    6.5197    0.7894    0.0000 H   0  0  0  0  0  0  0  0  0  0  0  0
    4.8673    0.5310    0.0000 H   0  0  0  0  0  0  0  0  0  0  0  0
    4.4762   -0.1649    0.0000 H   0  0  0  0  0  0  0  0  0  0  0  0
    7.4955   -0.1533    0.0000 H   0  0  0  0  0  0  0  0  0  0  0  0
    7.0990    0.5396    0.0000 H   0  0  0  0  0  0  0  0  0  0  0  0
    7.0820   -1.6694    0.0000 H   0  0  0  0  0  0  0  0  0  0  0  0
    7.4891   -0.9827    0.0000 H   0  0  0  0  0  0  0  0  0  0  0  0
    7.0579    1.3999    0.0000 H   0  0  0  0  0  0  0  0  0  0  0  0
    7.4538    2.0917    0.0000 H   0  0  0  0  0  0  0  0  0  0  0  0
    4.5006    2.0803    0.0000 H   0  0  0  0  0  0  0  0  0  0  0  0
    4.9018    1.3916    0.0000 H   0  0  0  0  0  0  0  0  0  0  0  0
    6.5044   -2.9009    0.0000 H   0  0  0  0  0  0  0  0  0  0  0  0
    6.6255    3.5634    0.0000 H   0  0  0  0  0  0  0  0  0  0  0  0
    6.2296    2.8716    0.0000 H   0  0  0  0  0  0  0  0  0  0  0  0
    5.7187    2.8697    0.0000 H   0  0  0  0  0  0  0  0  0  0  0  0
    5.3175    3.5584    0.0000 H   0  0  0  0  0  0  0  0  0  0  0  0
    5.1014   -3.7109    0.0000 H   0  0  0  0  0  0  0  0  0  0  0  0
    3.0966   -3.4850    0.0000 H   0  0  0  0  0  0  0  0  0  0  0  0
    2.0856   -2.0909    0.0000 H   0  0  0  0  0  0  0  0  0  0  0  0
    8.0159    2.9492    0.0000 H   0  0  0  0  0  0  0  0  0  0  0  0
    8.2396    3.7970    0.0000 H   0  0  0  0  0  0  0  0  0  0  0  0
    7.3918    4.0207    0.0000 H   0  0  0  0  0  0  0  0  0  0  0  0
    4.5477    4.0098    0.0000 H   0  0  0  0  0  0  0  0  0  0  0  0
    3.7017    3.7796    0.0000 H   0  0  0  0  0  0  0  0  0  0  0  0
    3.9319    2.9335    0.0000 H   0  0  0  0  0  0  0  0  0  0  0  0
    2.1279    0.4772    0.0000 H   0  0  0  0  0  0  0  0  0  0  0  0
    1.3933   -0.0016    0.0000 H   0  0  0  0  0  0  0  0  0  0  0  0
    1.8721   -0.7361    0.0000 H   0  0  0  0  0  0  0  0  0  0  0  0
  1 22  2  0  0  0  0
  4  2  1  6  0  0  0
  2 11  1  0  0  0  0
  2 12  1  0  0  0  0
  3 13  1  0  0  0  0
  3 19  1  0  0  0  0
  3 41  1  0  0  0  0
  4  5  1  0  0  0  0
  4  6  1  0  0  0  0
  4 24  1  0  0  0  0
  5  7  1  0  0  0  0
  5 25  1  0  0  0  0
  5 26  1  0  0  0  0
  6  8  1  0  0  0  0
  6 27  1  0  0  0  0
  6 28  1  0  0  0  0
  7  9  2  0  0  0  0
  7 10  1  0  0  0  0
  8  9  1  0  0  0  0
  8 29  1  0  0  0  0
  8 30  1  0  0  0  0
  9 14  1  0  0  0  0
 10 13  2  0  0  0  0
 10 15  1  0  0  0  0
 11 16  1  0  0  0  0
 11 31  1  0  0  0  0
 11 32  1  0  0  0  0
 12 17  1  0  0  0  0
 12 33  1  0  0  0  0
 12 34  1  0  0  0  0
 13 18  1  0  0  0  0
 14 18  2  0  0  0  0
 14 35  1  0  0  0  0
 15 19  2  0  0  0  0
 15 22  1  0  0  0  0
 16 20  1  0  0  0  0
 16 36  1  0  0  0  0
 16 37  1  0  0  0  0
 17 21  1  0  0  0  0
 17 38  1  0  0  0  0
 17 39  1  0  0  0  0
 18 40  1  0  0  0  0
 19 42  1  0  0  0  0
 20 43  1  0  0  0  0
 20 44  1  0  0  0  0
 20 45  1  0  0  0  0
 21 46  1  0  0  0  0
 21 47  1  0  0  0  0
 21 48  1  0  0  0  0
 22 23  1  0  0  0  0
 23 49  1  0  0  0  0
 23 50  1  0  0  0  0
 23 51  1  0  0  0  0
M  END
> <PUBCHEM_COMPOUND_CID>
44305165

> <PUBCHEM_COMPOUND_CANONICALIZED>
1

> <PUBCHEM_CACTVS_COMPLEXITY>
404

> <PUBCHEM_CACTVS_HBOND_ACCEPTOR>
2

> <PUBCHEM_CACTVS_HBOND_DONOR>
1

> <PUBCHEM_CACTVS_ROTATABLE_BOND>
6

> <PUBCHEM_CACTVS_SUBSKEYS>
AAADceB7IAAAAAAAAAAAAAAAAAAAAWAAAAAwYAAAAAAAAFjB8AAAHgAQAAAADCzBngQ+wPPJkACoA7R3RACCgCA1AiAI2aE4ZNgIIPrAlZGEIYhgkADIyccciMCOiAACQAASAAAQAASAACQAAAAAAAAAAA==

> <PUBCHEM_IUPAC_OPENEYE_NAME>
1-[(8R)-8-(dipropylamino)-6,7,8,9-tetrahydro-3H-benzo[e]indol-1-yl]ethanone

> <PUBCHEM_IUPAC_CAS_NAME>
1-[(8R)-8-(dipropylamino)-6,7,8,9-tetrahydro-3H-benzo[e]indol-1-yl]ethanone

> <PUBCHEM_IUPAC_NAME_MARKUP>
1-[(8<I>R</I>)-8-(dipropylamino)-6,7,8,9-tetrahydro-3<I>H</I>-benzo[e]indol-1-yl]ethanone

> <PUBCHEM_IUPAC_NAME>
1-[(8R)-8-(dipropylamino)-6,7,8,9-tetrahydro-3H-benzo[e]indol-1-yl]ethanone

> <PUBCHEM_IUPAC_SYSTEMATIC_NAME>
1-[(8R)-8-(dipropylamino)-6,7,8,9-tetrahydro-3H-benzo[e]indol-1-yl]ethanone

> <PUBCHEM_IUPAC_TRADITIONAL_NAME>
1-[(8R)-8-(dipropylamino)-6,7,8,9-tetrahydro-3H-benz[e]indol-1-yl]ethanone

> <PUBCHEM_IUPAC_INCHI>
InChI=1S/C20H28N2O/c1-4-10-22(11-5-2)16-8-6-15-7-9-19-20(17(15)12-16)18(13-21-19)14(3)23/h7,9,13,16,21H,4-6,8,10-12H2,1-3H3/t16-/m1/s1

> <PUBCHEM_IUPAC_INCHIKEY>
VMXHWDJFMZJHSQ-MRXNPFEDSA-N

> <PUBCHEM_XLOGP3_AA>
4.3

> <PUBCHEM_EXACT_MASS>
312.220163521

> <PUBCHEM_MOLECULAR_FORMULA>
C20H28N2O

> <PUBCHEM_MOLECULAR_WEIGHT>
312.4

> <PUBCHEM_OPENEYE_CAN_SMILES>
CCCN(CCC)C1CCC2=C(C1)C3=C(C=C2)NC=C3C(=O)C

> <PUBCHEM_OPENEYE_ISO_SMILES>
CCCN(CCC)[C@@H]1CCC2=C(C1)C3=C(C=C2)NC=C3C(=O)C

> <PUBCHEM_CACTVS_TPSA>
36.1

> <PUBCHEM_MONOISOTOPIC_WEIGHT>
312.220163521

> <PUBCHEM_TOTAL_CHARGE>
0

> <PUBCHEM_HEAVY_ATOM_COUNT>
23

> <PUBCHEM_ATOM_DEF_STEREO_COUNT>
1

> <PUBCHEM_ATOM_UDEF_STEREO_COUNT>
0

> <PUBCHEM_BOND_DEF_STEREO_COUNT>
0

> <PUBCHEM_BOND_UDEF_STEREO_COUNT>
0

> <PUBCHEM_ISOTOPIC_ATOM_COUNT>
0

> <PUBCHEM_COMPONENT_COUNT>
1

> <PUBCHEM_CACTVS_TAUTO_COUNT>
-1

> <PUBCHEM_COORDINATE_TYPE>
1
5
255

> <PUBCHEM_BONDANNOTATIONS>
10  13  8
10  15  8
13  18  8
14  18  8
15  19  8
4  2  6
3  13  8
3  19  8
7  10  8
7  9  8
9  14  8

$$$$
