16123349
  -OEChem-09292322482D

 43 46  0     1  0  0  0  0  0999 V2000
    5.0249    1.4715    0.0000 S   0  0  0  0  0  0  0  0  0  0  0  0
    9.3550    3.9715    0.0000 F   0  0  0  0  0  0  0  0  0  0  0  0
    7.9890    4.3375    0.0000 F   0  0  0  0  0  0  0  0  0  0  0  0
    8.9890    2.6055    0.0000 F   0  0  0  0  0  0  0  0  0  0  0  0
    4.5249    2.3375    0.0000 O   0  0  0  0  0  0  0  0  0  0  0  0
    5.5249    0.6055    0.0000 O   0  0  0  0  0  0  0  0  0  0  0  0
    2.6200   -3.5285    0.0000 N   0  0  0  0  0  0  0  0  0  0  0  0
    4.1588    0.9715    0.0000 N   0  0  0  0  0  0  0  0  0  0  0  0
    4.1588   -3.0285    0.0000 C   0  0  1  0  0  0  0  0  0  0  0  0
    4.1588   -4.0285    0.0000 C   0  0  2  0  0  0  0  0  0  0  0  0
    5.0254   -3.5285    0.0000 C   0  0  0  0  0  0  0  0  0  0  0  0
    3.2078   -2.7195    0.0000 C   0  0  0  0  0  0  0  0  0  0  0  0
    3.2078   -4.3375    0.0000 C   0  0  0  0  0  0  0  0  0  0  0  0
    4.1588   -2.0285    0.0000 C   0  0  0  0  0  0  0  0  0  0  0  0
    3.2928   -1.5285    0.0000 C   0  0  0  0  0  0  0  0  0  0  0  0
    5.0249   -1.5285    0.0000 C   0  0  0  0  0  0  0  0  0  0  0  0
    3.2928   -0.5285    0.0000 C   0  0  0  0  0  0  0  0  0  0  0  0
    5.0249   -0.5285    0.0000 C   0  0  0  0  0  0  0  0  0  0  0  0
    4.1588   -0.0285    0.0000 C   0  0  0  0  0  0  0  0  0  0  0  0
    5.8909    1.9715    0.0000 C   0  0  0  0  0  0  0  0  0  0  0  0
    5.8909    2.9715    0.0000 C   0  0  0  0  0  0  0  0  0  0  0  0
    6.7569    1.4715    0.0000 C   0  0  0  0  0  0  0  0  0  0  0  0
    6.7569    3.4715    0.0000 C   0  0  0  0  0  0  0  0  0  0  0  0
    7.6229    1.9715    0.0000 C   0  0  0  0  0  0  0  0  0  0  0  0
    7.6229    2.9715    0.0000 C   0  0  0  0  0  0  0  0  0  0  0  0
    8.4890    3.4715    0.0000 C   0  0  0  0  0  0  0  0  0  0  0  0
    4.5045   -4.8051    0.0000 H   0  0  0  0  0  0  0  0  0  0  0  0
    5.4239   -4.0035    0.0000 H   0  0  0  0  0  0  0  0  0  0  0  0
    5.4239   -3.0535    0.0000 H   0  0  0  0  0  0  0  0  0  0  0  0
    3.4600   -2.1531    0.0000 H   0  0  0  0  0  0  0  0  0  0  0  0
    2.6708   -2.4095    0.0000 H   0  0  0  0  0  0  0  0  0  0  0  0
    2.6708   -4.6475    0.0000 H   0  0  0  0  0  0  0  0  0  0  0  0
    3.4600   -4.9039    0.0000 H   0  0  0  0  0  0  0  0  0  0  0  0
    2.0000   -3.5285    0.0000 H   0  0  0  0  0  0  0  0  0  0  0  0
    2.7559   -1.8385    0.0000 H   0  0  0  0  0  0  0  0  0  0  0  0
    5.5618   -1.8385    0.0000 H   0  0  0  0  0  0  0  0  0  0  0  0
    2.7559   -0.2185    0.0000 H   0  0  0  0  0  0  0  0  0  0  0  0
    5.5618   -0.2185    0.0000 H   0  0  0  0  0  0  0  0  0  0  0  0
    3.6219    1.2815    0.0000 H   0  0  0  0  0  0  0  0  0  0  0  0
    5.3540    3.2815    0.0000 H   0  0  0  0  0  0  0  0  0  0  0  0
    6.7569    0.8515    0.0000 H   0  0  0  0  0  0  0  0  0  0  0  0
    6.7569    4.0915    0.0000 H   0  0  0  0  0  0  0  0  0  0  0  0
    8.1599    1.6615    0.0000 H   0  0  0  0  0  0  0  0  0  0  0  0
  1  5  2  0  0  0  0
  1  6  2  0  0  0  0
  1  8  1  0  0  0  0
  1 20  1  0  0  0  0
  2 26  1  0  0  0  0
  3 26  1  0  0  0  0
  4 26  1  0  0  0  0
  7 12  1  0  0  0  0
  7 13  1  0  0  0  0
  7 34  1  0  0  0  0
  8 19  1  0  0  0  0
  8 39  1  0  0  0  0
  9 10  1  0  0  0  0
  9 11  1  0  0  0  0
  9 12  1  0  0  0  0
  9 14  1  1  0  0  0
 10 11  1  0  0  0  0
 10 13  1  0  0  0  0
 10 27  1  1  0  0  0
 11 28  1  0  0  0  0
 11 29  1  0  0  0  0
 12 30  1  0  0  0  0
 12 31  1  0  0  0  0
 13 32  1  0  0  0  0
 13 33  1  0  0  0  0
 14 15  2  0  0  0  0
 14 16  1  0  0  0  0
 15 17  1  0  0  0  0
 15 35  1  0  0  0  0
 16 18  2  0  0  0  0
 16 36  1  0  0  0  0
 17 19  2  0  0  0  0
 17 37  1  0  0  0  0
 18 19  1  0  0  0  0
 18 38  1  0  0  0  0
 20 21  2  0  0  0  0
 20 22  1  0  0  0  0
 21 23  1  0  0  0  0
 21 40  1  0  0  0  0
 22 24  2  0  0  0  0
 22 41  1  0  0  0  0
 23 25  2  0  0  0  0
 23 42  1  0  0  0  0
 24 25  1  0  0  0  0
 24 43  1  0  0  0  0
 25 26  1  0  0  0  0
M  END
> <PUBCHEM_COMPOUND_CID>
16123349

> <PUBCHEM_COMPOUND_CANONICALIZED>
1

> <PUBCHEM_CACTVS_COMPLEXITY>
617

> <PUBCHEM_CACTVS_HBOND_ACCEPTOR>
7

> <PUBCHEM_CACTVS_HBOND_DONOR>
2

> <PUBCHEM_CACTVS_ROTATABLE_BOND>
4

> <PUBCHEM_CACTVS_SUBSKEYS>
AAADceB7MYBAAAAAAAAAAAAAGAAAAWAAAAA8YIAAAAAAAAABQAAAHQQQQAAADwjBWBQwwYLAAAKAAiRCQHDCABAgAgAIiJgIZIgIICKAkZGEIABgkACIyAcQgMAPmAAAAAAAAAAwAAAAAAAAAAAAAAAAAA==

> <PUBCHEM_IUPAC_OPENEYE_NAME>
N-[4-[(1R,5S)-3-azabicyclo[3.1.0]hexan-1-yl]phenyl]-4-(trifluoromethyl)benzenesulfonamide

> <PUBCHEM_IUPAC_CAS_NAME>
N-[4-[(1R,5S)-3-azabicyclo[3.1.0]hexan-1-yl]phenyl]-4-(trifluoromethyl)benzenesulfonamide

> <PUBCHEM_IUPAC_NAME_MARKUP>
<I>N</I>-[4-[(1<I>R</I>,5<I>S</I>)-3-azabicyclo[3.1.0]hexan-1-yl]phenyl]-4-(trifluoromethyl)benzenesulfonamide

> <PUBCHEM_IUPAC_NAME>
N-[4-[(1R,5S)-3-azabicyclo[3.1.0]hexan-1-yl]phenyl]-4-(trifluoromethyl)benzenesulfonamide

> <PUBCHEM_IUPAC_SYSTEMATIC_NAME>
N-[4-[(1R,5S)-3-azabicyclo[3.1.0]hexan-1-yl]phenyl]-4-(trifluoromethyl)benzenesulfonamide

> <PUBCHEM_IUPAC_TRADITIONAL_NAME>
N-[4-[(1R,5S)-3-azabicyclo[3.1.0]hexan-1-yl]phenyl]-4-(trifluoromethyl)benzenesulfonamide

> <PUBCHEM_IUPAC_INCHI>
InChI=1S/C18H17F3N2O2S/c19-18(20,21)13-3-7-16(8-4-13)26(24,25)23-15-5-1-12(2-6-15)17-9-14(17)10-22-11-17/h1-8,14,22-23H,9-11H2/t14-,17+/m1/s1

> <PUBCHEM_IUPAC_INCHIKEY>
CGYKRSBZMBLFJC-PBHICJAKSA-N

> <PUBCHEM_XLOGP3_AA>
3.1

> <PUBCHEM_EXACT_MASS>
382.09628345

> <PUBCHEM_MOLECULAR_FORMULA>
C18H17F3N2O2S

> <PUBCHEM_MOLECULAR_WEIGHT>
382.4

> <PUBCHEM_OPENEYE_CAN_SMILES>
C1C2C1(CNC2)C3=CC=C(C=C3)NS(=O)(=O)C4=CC=C(C=C4)C(F)(F)F

> <PUBCHEM_OPENEYE_ISO_SMILES>
C1[C@H]2[C@@]1(CNC2)C3=CC=C(C=C3)NS(=O)(=O)C4=CC=C(C=C4)C(F)(F)F

> <PUBCHEM_CACTVS_TPSA>
66.6

> <PUBCHEM_MONOISOTOPIC_WEIGHT>
382.09628345

> <PUBCHEM_TOTAL_CHARGE>
0

> <PUBCHEM_HEAVY_ATOM_COUNT>
26

> <PUBCHEM_ATOM_DEF_STEREO_COUNT>
2

> <PUBCHEM_ATOM_UDEF_STEREO_COUNT>
0

> <PUBCHEM_BOND_DEF_STEREO_COUNT>
0

> <PUBCHEM_BOND_UDEF_STEREO_COUNT>
0

> <PUBCHEM_ISOTOPIC_ATOM_COUNT>
0

> <PUBCHEM_COMPONENT_COUNT>
1

> <PUBCHEM_CACTVS_TAUTO_COUNT>
-1

> <PUBCHEM_COORDINATE_TYPE>
1
5
255

> <PUBCHEM_BONDANNOTATIONS>
10  27  5
14  15  8
14  16  8
15  17  8
16  18  8
17  19  8
18  19  8
20  21  8
20  22  8
21  23  8
22  24  8
23  25  8
24  25  8
9  14  5

$$$$
