155541566
  -OEChem-09292322082D

 38 41  0     0  0  0  0  0  0999 V2000
    5.1998    2.3298    0.0000 S   0  0  0  0  0  0  0  0  0  0  0  0
    3.9770   -0.8249    0.0000 N   0  0  0  0  0  0  0  0  0  0  0  0
    5.7410   -0.6775    0.0000 N   0  0  0  0  0  0  0  0  0  0  0  0
    6.4668    0.9698    0.0000 N   0  0  0  0  0  0  0  0  0  0  0  0
    4.0700   -1.8206    0.0000 C   0  0  0  0  0  0  0  0  0  0  0  0
    3.4317   -2.5904    0.0000 C   0  0  0  0  0  0  0  0  0  0  0  0
    4.8398   -2.4588    0.0000 C   0  0  0  0  0  0  0  0  0  0  0  0
    4.2016   -3.2287    0.0000 C   0  0  0  0  0  0  0  0  0  0  0  0
    3.8908    1.3787    0.0000 C   0  0  0  0  0  0  0  0  0  0  0  0
    4.6998    0.7910    0.0000 C   0  0  0  0  0  0  0  0  0  0  0  0
    2.9703    1.0403    0.0000 C   0  0  0  0  0  0  0  0  0  0  0  0
    4.7927   -0.2465    0.0000 C   0  0  0  0  0  0  0  0  0  0  0  0
    2.1304    1.5467    0.0000 C   0  0  0  0  0  0  0  0  0  0  0  0
    4.1998    2.3298    0.0000 C   0  0  0  0  0  0  0  0  0  0  0  0
    2.0000    2.5188    0.0000 C   0  0  0  0  0  0  0  0  0  0  0  0
    3.6540    3.1447    0.0000 C   0  0  0  0  0  0  0  0  0  0  0  0
    2.6768    3.2287    0.0000 C   0  0  0  0  0  0  0  0  0  0  0  0
    5.5088    1.3787    0.0000 C   0  0  0  0  0  0  0  0  0  0  0  0
    6.5837   -0.0653    0.0000 C   0  0  0  0  0  0  0  0  0  0  0  0
    4.6182   -1.5311    0.0000 H   0  0  0  0  0  0  0  0  0  0  0  0
    2.9544   -2.1947    0.0000 H   0  0  0  0  0  0  0  0  0  0  0  0
    3.0360   -3.0677    0.0000 H   0  0  0  0  0  0  0  0  0  0  0  0
    5.3171   -2.8546    0.0000 H   0  0  0  0  0  0  0  0  0  0  0  0
    5.2355   -1.9816    0.0000 H   0  0  0  0  0  0  0  0  0  0  0  0
    3.8058   -3.7060    0.0000 H   0  0  0  0  0  0  0  0  0  0  0  0
    4.6788   -3.6244    0.0000 H   0  0  0  0  0  0  0  0  0  0  0  0
    3.4135   -0.5662    0.0000 H   0  0  0  0  0  0  0  0  0  0  0  0
    2.5396    0.5943    0.0000 H   0  0  0  0  0  0  0  0  0  0  0  0
    3.3088    0.5209    0.0000 H   0  0  0  0  0  0  0  0  0  0  0  0
    1.5130    1.6037    0.0000 H   0  0  0  0  0  0  0  0  0  0  0  0
    1.9369    0.9577    0.0000 H   0  0  0  0  0  0  0  0  0  0  0  0
    1.6582    3.0361    0.0000 H   0  0  0  0  0  0  0  0  0  0  0  0
    1.4194    2.3012    0.0000 H   0  0  0  0  0  0  0  0  0  0  0  0
    4.2332    3.3659    0.0000 H   0  0  0  0  0  0  0  0  0  0  0  0
    3.5678    3.7587    0.0000 H   0  0  0  0  0  0  0  0  0  0  0  0
    2.8666    3.8189    0.0000 H   0  0  0  0  0  0  0  0  0  0  0  0
    2.1439    3.5455    0.0000 H   0  0  0  0  0  0  0  0  0  0  0  0
    7.1511   -0.3153    0.0000 H   0  0  0  0  0  0  0  0  0  0  0  0
  1 14  1  0  0  0  0
  1 18  1  0  0  0  0
  2  5  1  0  0  0  0
  2 12  1  0  0  0  0
  2 27  1  0  0  0  0
  3 12  1  0  0  0  0
  3 19  2  0  0  0  0
  4 18  2  0  0  0  0
  4 19  1  0  0  0  0
  5  6  1  0  0  0  0
  5  7  1  0  0  0  0
  5 20  1  0  0  0  0
  6  8  1  0  0  0  0
  6 21  1  0  0  0  0
  6 22  1  0  0  0  0
  7  8  1  0  0  0  0
  7 23  1  0  0  0  0
  7 24  1  0  0  0  0
  8 25  1  0  0  0  0
  8 26  1  0  0  0  0
  9 10  1  0  0  0  0
  9 11  1  0  0  0  0
  9 14  2  0  0  0  0
 10 12  2  0  0  0  0
 10 18  1  0  0  0  0
 11 13  1  0  0  0  0
 11 28  1  0  0  0  0
 11 29  1  0  0  0  0
 13 15  1  0  0  0  0
 13 30  1  0  0  0  0
 13 31  1  0  0  0  0
 14 16  1  0  0  0  0
 15 17  1  0  0  0  0
 15 32  1  0  0  0  0
 15 33  1  0  0  0  0
 16 17  1  0  0  0  0
 16 34  1  0  0  0  0
 16 35  1  0  0  0  0
 17 36  1  0  0  0  0
 17 37  1  0  0  0  0
 19 38  1  0  0  0  0
M  END
> <PUBCHEM_COMPOUND_CID>
155541566

> <PUBCHEM_COMPOUND_CANONICALIZED>
1

> <PUBCHEM_CACTVS_COMPLEXITY>
321

> <PUBCHEM_CACTVS_HBOND_ACCEPTOR>
4

> <PUBCHEM_CACTVS_HBOND_DONOR>
1

> <PUBCHEM_CACTVS_ROTATABLE_BOND>
2

> <PUBCHEM_CACTVS_SUBSKEYS>
AAADceBzAABAAAAAAAAAAAAAAABgASAAAAAsAAAABgAAAFiR+AAAHAQQAAAADCjBWgQFsdbIEAikAgJhZACD0KlxCLgB2LAoRJiIKCLg2NGEBAxokALoyCcQgMAOgAAAAAAAAAAAAAAAAAAAAAAAAAAAAA==

> <PUBCHEM_IUPAC_OPENEYE_NAME>
N-cyclobutyl-8-thia-4,6-diazatricyclo[7.5.0.02,7]tetradeca-1(9),2,4,6-tetraen-3-amine

> <PUBCHEM_IUPAC_CAS_NAME>
N-cyclobutyl-8-thia-4,6-diazatricyclo[7.5.0.02,7]tetradeca-1(9),2,4,6-tetraen-3-amine

> <PUBCHEM_IUPAC_NAME_MARKUP>
<I>N</I>-cyclobutyl-8-thia-4,6-diazatricyclo[7.5.0.0<SUP>2,7</SUP>]tetradeca-1(9),2,4,6-tetraen-3-amine

> <PUBCHEM_IUPAC_NAME>
N-cyclobutyl-8-thia-4,6-diazatricyclo[7.5.0.02,7]tetradeca-1(9),2,4,6-tetraen-3-amine

> <PUBCHEM_IUPAC_SYSTEMATIC_NAME>
N-cyclobutyl-8-thia-4,6-diazatricyclo[7.5.0.02,7]tetradeca-1(9),2,4,6-tetraen-3-amine

> <PUBCHEM_IUPAC_TRADITIONAL_NAME>
cyclobutyl(8-thia-4,6-diazatricyclo[7.5.0.02,7]tetradeca-1(9),2,4,6-tetraen-3-yl)amine

> <PUBCHEM_IUPAC_INCHI>
InChI=1S/C15H19N3S/c1-2-7-11-12(8-3-1)19-15-13(11)14(16-9-17-15)18-10-5-4-6-10/h9-10H,1-8H2,(H,16,17,18)

> <PUBCHEM_IUPAC_INCHIKEY>
CGBSEHIKEQDWKF-UHFFFAOYSA-N

> <PUBCHEM_XLOGP3_AA>
4.6

> <PUBCHEM_EXACT_MASS>
273.12996879

> <PUBCHEM_MOLECULAR_FORMULA>
C15H19N3S

> <PUBCHEM_MOLECULAR_WEIGHT>
273.4

> <PUBCHEM_OPENEYE_CAN_SMILES>
C1CCC2=C(CC1)SC3=NC=NC(=C23)NC4CCC4

> <PUBCHEM_OPENEYE_ISO_SMILES>
C1CCC2=C(CC1)SC3=NC=NC(=C23)NC4CCC4

> <PUBCHEM_CACTVS_TPSA>
66

> <PUBCHEM_MONOISOTOPIC_WEIGHT>
273.12996879

> <PUBCHEM_TOTAL_CHARGE>
0

> <PUBCHEM_HEAVY_ATOM_COUNT>
19

> <PUBCHEM_ATOM_DEF_STEREO_COUNT>
0

> <PUBCHEM_ATOM_UDEF_STEREO_COUNT>
0

> <PUBCHEM_BOND_DEF_STEREO_COUNT>
0

> <PUBCHEM_BOND_UDEF_STEREO_COUNT>
0

> <PUBCHEM_ISOTOPIC_ATOM_COUNT>
0

> <PUBCHEM_COMPONENT_COUNT>
1

> <PUBCHEM_CACTVS_TAUTO_COUNT>
-1

> <PUBCHEM_COORDINATE_TYPE>
1
5
255

> <PUBCHEM_BONDANNOTATIONS>
1  14  8
1  18  8
10  12  8
10  18  8
3  12  8
3  19  8
4  18  8
4  19  8
9  10  8
9  14  8

$$$$
