57391102
  -OEChem-09292322072D

 58 60  0     1  0  0  0  0  0999 V2000
    7.1962   -4.0000    0.0000 O   0  0  0  0  0  0  0  0  0  0  0  0
    5.4641   -4.0000    0.0000 O   0  0  0  0  0  0  0  0  0  0  0  0
    5.4641    4.0000    0.0000 O   0  0  0  0  0  0  0  0  0  0  0  0
    6.3301    0.5000    0.0000 N   0  0  3  0  0  0  0  0  0  0  0  0
    6.3301   -2.5000    0.0000 N   0  0  0  0  0  0  0  0  0  0  0  0
    4.5981    2.5000    0.0000 N   0  0  0  0  0  0  0  0  0  0  0  0
    6.3301   -0.5000    0.0000 C   0  0  0  0  0  0  0  0  0  0  0  0
    5.4641    1.0000    0.0000 C   0  0  0  0  0  0  0  0  0  0  0  0
    5.4641    2.0000    0.0000 C   0  0  1  0  0  0  0  0  0  0  0  0
    7.1962   -1.0000    0.0000 C   0  0  0  0  0  0  0  0  0  0  0  0
    5.4641   -1.0000    0.0000 C   0  0  0  0  0  0  0  0  0  0  0  0
    7.1962    1.0000    0.0000 C   0  0  0  0  0  0  0  0  0  0  0  0
    6.3301    2.5000    0.0000 C   0  0  0  0  0  0  0  0  0  0  0  0
    7.1962    2.0000    0.0000 C   0  0  0  0  0  0  0  0  0  0  0  0
    7.1962   -2.0000    0.0000 C   0  0  0  0  0  0  0  0  0  0  0  0
    5.4641   -2.0000    0.0000 C   0  0  0  0  0  0  0  0  0  0  0  0
    6.3301   -3.5000    0.0000 C   0  0  0  0  0  0  0  0  0  0  0  0
    4.5981    3.5000    0.0000 C   0  0  0  0  0  0  0  0  0  0  0  0
    3.7320    4.0000    0.0000 C   0  0  0  0  0  0  0  0  0  0  0  0
    3.7320    5.0000    0.0000 C   0  0  0  0  0  0  0  0  0  0  0  0
    7.1962   -5.0000    0.0000 C   0  0  0  0  0  0  0  0  0  0  0  0
    2.8660    3.5000    0.0000 C   0  0  0  0  0  0  0  0  0  0  0  0
    2.8660    5.5000    0.0000 C   0  0  0  0  0  0  0  0  0  0  0  0
    4.5981    5.5000    0.0000 C   0  0  0  0  0  0  0  0  0  0  0  0
    2.0000    4.0000    0.0000 C   0  0  0  0  0  0  0  0  0  0  0  0
    8.0622   -5.5000    0.0000 C   0  0  0  0  0  0  0  0  0  0  0  0
    2.0000    5.0000    0.0000 C   0  0  0  0  0  0  0  0  0  0  0  0
    6.8671   -0.1900    0.0000 H   0  0  0  0  0  0  0  0  0  0  0  0
    4.8535    1.1077    0.0000 H   0  0  0  0  0  0  0  0  0  0  0  0
    5.2520    0.4174    0.0000 H   0  0  0  0  0  0  0  0  0  0  0  0
    5.4641    2.6200    0.0000 H   0  0  0  0  0  0  0  0  0  0  0  0
    7.8067   -1.1077    0.0000 H   0  0  0  0  0  0  0  0  0  0  0  0
    7.4082   -0.4174    0.0000 H   0  0  0  0  0  0  0  0  0  0  0  0
    5.2520   -0.4174    0.0000 H   0  0  0  0  0  0  0  0  0  0  0  0
    4.8535   -1.1077    0.0000 H   0  0  0  0  0  0  0  0  0  0  0  0
    7.4082    0.4174    0.0000 H   0  0  0  0  0  0  0  0  0  0  0  0
    7.8067    1.1077    0.0000 H   0  0  0  0  0  0  0  0  0  0  0  0
    6.7287    2.9750    0.0000 H   0  0  0  0  0  0  0  0  0  0  0  0
    5.9316    2.9750    0.0000 H   0  0  0  0  0  0  0  0  0  0  0  0
    7.8067    1.8923    0.0000 H   0  0  0  0  0  0  0  0  0  0  0  0
    7.4082    2.5826    0.0000 H   0  0  0  0  0  0  0  0  0  0  0  0
    7.4082   -2.5826    0.0000 H   0  0  0  0  0  0  0  0  0  0  0  0
    7.8067   -1.8923    0.0000 H   0  0  0  0  0  0  0  0  0  0  0  0
    4.8535   -1.8923    0.0000 H   0  0  0  0  0  0  0  0  0  0  0  0
    5.2520   -2.5826    0.0000 H   0  0  0  0  0  0  0  0  0  0  0  0
    4.0611    2.1900    0.0000 H   0  0  0  0  0  0  0  0  0  0  0  0
    6.5856   -4.8923    0.0000 H   0  0  0  0  0  0  0  0  0  0  0  0
    6.9841   -5.5826    0.0000 H   0  0  0  0  0  0  0  0  0  0  0  0
    2.8660    2.8800    0.0000 H   0  0  0  0  0  0  0  0  0  0  0  0
    2.8660    6.1200    0.0000 H   0  0  0  0  0  0  0  0  0  0  0  0
    4.9081    4.9631    0.0000 H   0  0  0  0  0  0  0  0  0  0  0  0
    5.1350    5.8100    0.0000 H   0  0  0  0  0  0  0  0  0  0  0  0
    4.2881    6.0369    0.0000 H   0  0  0  0  0  0  0  0  0  0  0  0
    1.4631    3.6900    0.0000 H   0  0  0  0  0  0  0  0  0  0  0  0
    7.7522   -6.0369    0.0000 H   0  0  0  0  0  0  0  0  0  0  0  0
    8.5991   -5.8100    0.0000 H   0  0  0  0  0  0  0  0  0  0  0  0
    8.3722   -4.9631    0.0000 H   0  0  0  0  0  0  0  0  0  0  0  0
    1.4631    5.3100    0.0000 H   0  0  0  0  0  0  0  0  0  0  0  0
  1 17  1  0  0  0  0
  1 21  1  0  0  0  0
  2 17  2  0  0  0  0
  3 18  2  0  0  0  0
  4  7  1  0  0  0  0
  4  8  1  0  0  0  0
  4 12  1  0  0  0  0
  5 15  1  0  0  0  0
  5 16  1  0  0  0  0
  5 17  1  0  0  0  0
  9  6  1  6  0  0  0
  6 18  1  0  0  0  0
  6 46  1  0  0  0  0
  7 10  1  0  0  0  0
  7 11  1  0  0  0  0
  7 28  1  0  0  0  0
  8  9  1  0  0  0  0
  8 29  1  0  0  0  0
  8 30  1  0  0  0  0
  9 13  1  0  0  0  0
  9 31  1  0  0  0  0
 10 15  1  0  0  0  0
 10 32  1  0  0  0  0
 10 33  1  0  0  0  0
 11 16  1  0  0  0  0
 11 34  1  0  0  0  0
 11 35  1  0  0  0  0
 12 14  1  0  0  0  0
 12 36  1  0  0  0  0
 12 37  1  0  0  0  0
 13 14  1  0  0  0  0
 13 38  1  0  0  0  0
 13 39  1  0  0  0  0
 14 40  1  0  0  0  0
 14 41  1  0  0  0  0
 15 42  1  0  0  0  0
 15 43  1  0  0  0  0
 16 44  1  0  0  0  0
 16 45  1  0  0  0  0
 18 19  1  0  0  0  0
 19 20  1  0  0  0  0
 19 22  2  0  0  0  0
 20 23  2  0  0  0  0
 20 24  1  0  0  0  0
 21 26  1  0  0  0  0
 21 47  1  0  0  0  0
 21 48  1  0  0  0  0
 22 25  1  0  0  0  0
 22 49  1  0  0  0  0
 23 27  1  0  0  0  0
 23 50  1  0  0  0  0
 24 51  1  0  0  0  0
 24 52  1  0  0  0  0
 24 53  1  0  0  0  0
 25 27  2  0  0  0  0
 25 54  1  0  0  0  0
 26 55  1  0  0  0  0
 26 56  1  0  0  0  0
 26 57  1  0  0  0  0
 27 58  1  0  0  0  0
M  END
> <PUBCHEM_COMPOUND_CID>
57391102

> <PUBCHEM_COMPOUND_CANONICALIZED>
1

> <PUBCHEM_CACTVS_COMPLEXITY>
505

> <PUBCHEM_CACTVS_HBOND_ACCEPTOR>
4

> <PUBCHEM_CACTVS_HBOND_DONOR>
1

> <PUBCHEM_CACTVS_ROTATABLE_BOND>
5

> <PUBCHEM_CACTVS_SUBSKEYS>
AAADceB7MAAAAAAAAAAAAAAAAAAAAAAAAAA8WIAAAAAAAAABAAAAHgAQAAAADCjhmAYyCIPABACIAiFSGACCAAAkAAAIiIEIBMgIYDKA1RGcIQhglgCIiYcYiICOgAAAAAAQAAAAAAAAACAAAAAAAAAAAA==

> <PUBCHEM_IUPAC_OPENEYE_NAME>
ethyl 4-[(3R)-3-[(2-methylbenzoyl)amino]-1-piperidyl]piperidine-1-carboxylate

> <PUBCHEM_IUPAC_CAS_NAME>
4-[(3R)-3-[[(2-methylphenyl)-oxomethyl]amino]-1-piperidinyl]-1-piperidinecarboxylic acid ethyl ester

> <PUBCHEM_IUPAC_NAME_MARKUP>
ethyl 4-[(3<I>R</I>)-3-[(2-methylbenzoyl)amino]piperidin-1-yl]piperidine-1-carboxylate

> <PUBCHEM_IUPAC_NAME>
ethyl 4-[(3R)-3-[(2-methylbenzoyl)amino]piperidin-1-yl]piperidine-1-carboxylate

> <PUBCHEM_IUPAC_SYSTEMATIC_NAME>
ethyl 4-[(3R)-3-[(2-methylphenyl)carbonylamino]piperidin-1-yl]piperidine-1-carboxylate

> <PUBCHEM_IUPAC_TRADITIONAL_NAME>
4-[(3R)-3-(o-toluoylamino)piperidino]piperidine-1-carboxylic acid ethyl ester

> <PUBCHEM_IUPAC_INCHI>
InChI=1S/C21H31N3O3/c1-3-27-21(26)23-13-10-18(11-14-23)24-12-6-8-17(15-24)22-20(25)19-9-5-4-7-16(19)2/h4-5,7,9,17-18H,3,6,8,10-15H2,1-2H3,(H,22,25)/t17-/m1/s1

> <PUBCHEM_IUPAC_INCHIKEY>
NYDGEZQQIMDHCY-QGZVFWFLSA-N

> <PUBCHEM_XLOGP3_AA>
3

> <PUBCHEM_EXACT_MASS>
373.23654186

> <PUBCHEM_MOLECULAR_FORMULA>
C21H31N3O3

> <PUBCHEM_MOLECULAR_WEIGHT>
373.5

> <PUBCHEM_OPENEYE_CAN_SMILES>
CCOC(=O)N1CCC(CC1)N2CCCC(C2)NC(=O)C3=CC=CC=C3C

> <PUBCHEM_OPENEYE_ISO_SMILES>
CCOC(=O)N1CCC(CC1)N2CCC[C@H](C2)NC(=O)C3=CC=CC=C3C

> <PUBCHEM_CACTVS_TPSA>
61.9

> <PUBCHEM_MONOISOTOPIC_WEIGHT>
373.23654186

> <PUBCHEM_TOTAL_CHARGE>
0

> <PUBCHEM_HEAVY_ATOM_COUNT>
27

> <PUBCHEM_ATOM_DEF_STEREO_COUNT>
1

> <PUBCHEM_ATOM_UDEF_STEREO_COUNT>
0

> <PUBCHEM_BOND_DEF_STEREO_COUNT>
0

> <PUBCHEM_BOND_UDEF_STEREO_COUNT>
0

> <PUBCHEM_ISOTOPIC_ATOM_COUNT>
0

> <PUBCHEM_COMPONENT_COUNT>
1

> <PUBCHEM_CACTVS_TAUTO_COUNT>
7

> <PUBCHEM_COORDINATE_TYPE>
1
5
255

> <PUBCHEM_BONDANNOTATIONS>
19  20  8
19  22  8
20  23  8
22  25  8
23  27  8
25  27  8
9  6  6

$$$$
