162645987
  -OEChem-09292322422D

 67 69  0     1  0  0  0  0  0999 V2000
   15.3547    1.2740    0.0000 Cl  0  0  0  0  0  0  0  0  0  0  0  0
    5.0000   -2.3482    0.0000 O   0  0  0  0  0  0  0  0  0  0  0  0
   10.5000    0.2498    0.0000 N   0  0  3  0  0  0  0  0  0  0  0  0
    5.0000   -0.6162    0.0000 N   0  0  0  0  0  0  0  0  0  0  0  0
    3.5000   -1.4822    0.0000 N   0  0  0  0  0  0  0  0  0  0  0  0
    8.0000   -0.6162    0.0000 C   0  0  0  0  0  0  0  0  0  0  0  0
    7.5000   -1.4822    0.0000 C   0  0  0  0  0  0  0  0  0  0  0  0
    7.5000    0.2498    0.0000 C   0  0  0  0  0  0  0  0  0  0  0  0
    6.0000   -0.6162    0.0000 C   0  0  0  0  0  0  0  0  0  0  0  0
    6.5000   -1.4822    0.0000 C   0  0  0  0  0  0  0  0  0  0  0  0
    6.5000    0.2498    0.0000 C   0  0  0  0  0  0  0  0  0  0  0  0
    9.0000   -0.6162    0.0000 C   0  0  0  0  0  0  0  0  0  0  0  0
    9.5000    0.2498    0.0000 C   0  0  0  0  0  0  0  0  0  0  0  0
   10.9339    1.1508    0.0000 C   0  0  0  0  0  0  0  0  0  0  0  0
   10.9339   -0.6511    0.0000 C   0  0  0  0  0  0  0  0  0  0  0  0
   11.9088    1.3733    0.0000 C   0  0  1  0  0  0  0  0  0  0  0  0
   11.9088   -0.8737    0.0000 C   0  0  0  0  0  0  0  0  0  0  0  0
   12.6906    0.7498    0.0000 C   0  0  0  0  0  0  0  0  0  0  0  0
   12.6906   -0.2502    0.0000 C   0  0  0  0  0  0  0  0  0  0  0  0
   12.1313    2.3482    0.0000 C   0  0  0  0  0  0  0  0  0  0  0  0
    4.5000   -1.4822    0.0000 C   0  0  0  0  0  0  0  0  0  0  0  0
   13.5846    1.2845    0.0000 C   0  0  0  0  0  0  0  0  0  0  0  0
   13.5846   -0.7848    0.0000 C   0  0  0  0  0  0  0  0  0  0  0  0
   14.4907    0.7706    0.0000 C   0  0  0  0  0  0  0  0  0  0  0  0
   14.4907   -0.2710    0.0000 C   0  0  0  0  0  0  0  0  0  0  0  0
    3.0000   -2.3482    0.0000 C   0  0  0  0  0  0  0  0  0  0  0  0
    3.0000   -0.6162    0.0000 C   0  0  0  0  0  0  0  0  0  0  0  0
    2.0000   -2.3482    0.0000 C   0  0  0  0  0  0  0  0  0  0  0  0
    2.0000   -0.6162    0.0000 C   0  0  0  0  0  0  0  0  0  0  0  0
    8.3100   -0.0793    0.0000 H   0  0  0  0  0  0  0  0  0  0  0  0
    7.3923   -2.0928    0.0000 H   0  0  0  0  0  0  0  0  0  0  0  0
    8.0826   -1.6943    0.0000 H   0  0  0  0  0  0  0  0  0  0  0  0
    8.0826    0.4619    0.0000 H   0  0  0  0  0  0  0  0  0  0  0  0
    7.3923    0.8604    0.0000 H   0  0  0  0  0  0  0  0  0  0  0  0
    5.6900   -0.0793    0.0000 H   0  0  0  0  0  0  0  0  0  0  0  0
    5.9174   -1.6943    0.0000 H   0  0  0  0  0  0  0  0  0  0  0  0
    6.6077   -2.0928    0.0000 H   0  0  0  0  0  0  0  0  0  0  0  0
    6.6077    0.8604    0.0000 H   0  0  0  0  0  0  0  0  0  0  0  0
    5.9174    0.4619    0.0000 H   0  0  0  0  0  0  0  0  0  0  0  0
    8.8923   -1.2268    0.0000 H   0  0  0  0  0  0  0  0  0  0  0  0
    9.5826   -0.8282    0.0000 H   0  0  0  0  0  0  0  0  0  0  0  0
    9.6077    0.8604    0.0000 H   0  0  0  0  0  0  0  0  0  0  0  0
    8.9174    0.4619    0.0000 H   0  0  0  0  0  0  0  0  0  0  0  0
   10.9339    1.7708    0.0000 H   0  0  0  0  0  0  0  0  0  0  0  0
   10.3294    1.2888    0.0000 H   0  0  0  0  0  0  0  0  0  0  0  0
    4.6900   -0.0793    0.0000 H   0  0  0  0  0  0  0  0  0  0  0  0
   10.3294   -0.7891    0.0000 H   0  0  0  0  0  0  0  0  0  0  0  0
   10.9339   -1.2711    0.0000 H   0  0  0  0  0  0  0  0  0  0  0  0
   12.4940    1.5781    0.0000 H   0  0  0  0  0  0  0  0  0  0  0  0
   11.6398   -1.4323    0.0000 H   0  0  0  0  0  0  0  0  0  0  0  0
   12.3935   -1.2602    0.0000 H   0  0  0  0  0  0  0  0  0  0  0  0
   12.7358    2.2103    0.0000 H   0  0  0  0  0  0  0  0  0  0  0  0
   12.2693    2.9527    0.0000 H   0  0  0  0  0  0  0  0  0  0  0  0
   11.5269    2.4862    0.0000 H   0  0  0  0  0  0  0  0  0  0  0  0
   13.5774    1.9044    0.0000 H   0  0  0  0  0  0  0  0  0  0  0  0
   13.5774   -1.4048    0.0000 H   0  0  0  0  0  0  0  0  0  0  0  0
   15.0264   -0.5831    0.0000 H   0  0  0  0  0  0  0  0  0  0  0  0
    2.8923   -2.9588    0.0000 H   0  0  0  0  0  0  0  0  0  0  0  0
    3.5826   -2.5603    0.0000 H   0  0  0  0  0  0  0  0  0  0  0  0
    3.5826   -0.4041    0.0000 H   0  0  0  0  0  0  0  0  0  0  0  0
    2.8923   -0.0056    0.0000 H   0  0  0  0  0  0  0  0  0  0  0  0
    2.0000   -1.7282    0.0000 H   0  0  0  0  0  0  0  0  0  0  0  0
    1.3800   -2.3482    0.0000 H   0  0  0  0  0  0  0  0  0  0  0  0
    2.0000   -2.9682    0.0000 H   0  0  0  0  0  0  0  0  0  0  0  0
    2.0000    0.0038    0.0000 H   0  0  0  0  0  0  0  0  0  0  0  0
    1.3800   -0.6162    0.0000 H   0  0  0  0  0  0  0  0  0  0  0  0
    2.0000   -1.2362    0.0000 H   0  0  0  0  0  0  0  0  0  0  0  0
  1 24  1  0  0  0  0
  2 21  2  0  0  0  0
  3 13  1  0  0  0  0
  3 14  1  0  0  0  0
  3 15  1  0  0  0  0
  4  9  1  0  0  0  0
  4 21  1  0  0  0  0
  4 46  1  0  0  0  0
  5 21  1  0  0  0  0
  5 26  1  0  0  0  0
  5 27  1  0  0  0  0
  6  7  1  0  0  0  0
  6  8  1  0  0  0  0
  6 12  1  0  0  0  0
  6 30  1  0  0  0  0
  7 10  1  0  0  0  0
  7 31  1  0  0  0  0
  7 32  1  0  0  0  0
  8 11  1  0  0  0  0
  8 33  1  0  0  0  0
  8 34  1  0  0  0  0
  9 10  1  0  0  0  0
  9 11  1  0  0  0  0
  9 35  1  0  0  0  0
 10 36  1  0  0  0  0
 10 37  1  0  0  0  0
 11 38  1  0  0  0  0
 11 39  1  0  0  0  0
 12 13  1  0  0  0  0
 12 40  1  0  0  0  0
 12 41  1  0  0  0  0
 13 42  1  0  0  0  0
 13 43  1  0  0  0  0
 14 16  1  0  0  0  0
 14 44  1  0  0  0  0
 14 45  1  0  0  0  0
 15 17  1  0  0  0  0
 15 47  1  0  0  0  0
 15 48  1  0  0  0  0
 16 18  1  0  0  0  0
 16 20  1  6  0  0  0
 16 49  1  0  0  0  0
 17 19  1  0  0  0  0
 17 50  1  0  0  0  0
 17 51  1  0  0  0  0
 18 19  2  0  0  0  0
 18 22  1  0  0  0  0
 19 23  1  0  0  0  0
 20 52  1  0  0  0  0
 20 53  1  0  0  0  0
 20 54  1  0  0  0  0
 22 24  2  0  0  0  0
 22 55  1  0  0  0  0
 23 25  2  0  0  0  0
 23 56  1  0  0  0  0
 24 25  1  0  0  0  0
 25 57  1  0  0  0  0
 26 28  1  0  0  0  0
 26 58  1  0  0  0  0
 26 59  1  0  0  0  0
 27 29  1  0  0  0  0
 27 60  1  0  0  0  0
 27 61  1  0  0  0  0
 28 62  1  0  0  0  0
 28 63  1  0  0  0  0
 28 64  1  0  0  0  0
 29 65  1  0  0  0  0
 29 66  1  0  0  0  0
 29 67  1  0  0  0  0
M  END
> <PUBCHEM_COMPOUND_CID>
162645987

> <PUBCHEM_COMPOUND_CANONICALIZED>
1

> <PUBCHEM_CACTVS_COMPLEXITY>
504

> <PUBCHEM_CACTVS_HBOND_ACCEPTOR>
2

> <PUBCHEM_CACTVS_HBOND_DONOR>
1

> <PUBCHEM_CACTVS_ROTATABLE_BOND>
6

> <PUBCHEM_CACTVS_SUBSKEYS>
AAADcfB7IAAEAAAAAAAAAAAAAAAAAAAAAAAwYAAABYAAAAABAAAAHgIQAAAADSrBGCQzAIPAAACIAiBCEAACAAAgBQAIiIAIAoiIICKBkxGEIAAolgKIiAcQgMAOhAAAIAAQAAAYAABAACAAAAAAAAAAAA==

> <PUBCHEM_IUPAC_OPENEYE_NAME>
3-[4-[2-[(5R)-7-chloro-5-methyl-1,2,4,5-tetrahydro-3-benzazepin-3-yl]ethyl]cyclohexyl]-1,1-diethyl-urea

> <PUBCHEM_IUPAC_CAS_NAME>
3-[4-[2-[(5R)-7-chloro-5-methyl-1,2,4,5-tetrahydro-3-benzazepin-3-yl]ethyl]cyclohexyl]-1,1-diethylurea

> <PUBCHEM_IUPAC_NAME_MARKUP>
3-[4-[2-[(5<I>R</I>)-7-chloro-5-methyl-1,2,4,5-tetrahydro-3-benzazepin-3-yl]ethyl]cyclohexyl]-1,1-diethylurea

> <PUBCHEM_IUPAC_NAME>
3-[4-[2-[(5R)-7-chloro-5-methyl-1,2,4,5-tetrahydro-3-benzazepin-3-yl]ethyl]cyclohexyl]-1,1-diethylurea

> <PUBCHEM_IUPAC_SYSTEMATIC_NAME>
3-[4-[2-[(5R)-7-chloranyl-5-methyl-1,2,4,5-tetrahydro-3-benzazepin-3-yl]ethyl]cyclohexyl]-1,1-diethyl-urea

> <PUBCHEM_IUPAC_TRADITIONAL_NAME>
3-[4-[2-[(5R)-7-chloro-5-methyl-1,2,4,5-tetrahydro-3-benzazepin-3-yl]ethyl]cyclohexyl]-1,1-diethyl-urea

> <PUBCHEM_IUPAC_INCHI>
InChI=1S/C24H38ClN3O/c1-4-28(5-2)24(29)26-22-10-6-19(7-11-22)12-14-27-15-13-20-8-9-21(25)16-23(20)18(3)17-27/h8-9,16,18-19,22H,4-7,10-15,17H2,1-3H3,(H,26,29)/t18-,19?,22?/m0/s1

> <PUBCHEM_IUPAC_INCHIKEY>
CRTXNNNIYVQHEB-PGFLUOATSA-N

> <PUBCHEM_XLOGP3_AA>
5.2

> <PUBCHEM_EXACT_MASS>
419.2703405

> <PUBCHEM_MOLECULAR_FORMULA>
C24H38ClN3O

> <PUBCHEM_MOLECULAR_WEIGHT>
420.0

> <PUBCHEM_OPENEYE_CAN_SMILES>
CCN(CC)C(=O)NC1CCC(CC1)CCN2CCC3=C(C=C(C=C3)Cl)C(C2)C

> <PUBCHEM_OPENEYE_ISO_SMILES>
CCN(CC)C(=O)NC1CCC(CC1)CCN2CCC3=C(C=C(C=C3)Cl)[C@H](C2)C

> <PUBCHEM_CACTVS_TPSA>
35.6

> <PUBCHEM_MONOISOTOPIC_WEIGHT>
419.2703405

> <PUBCHEM_TOTAL_CHARGE>
0

> <PUBCHEM_HEAVY_ATOM_COUNT>
29

> <PUBCHEM_ATOM_DEF_STEREO_COUNT>
1

> <PUBCHEM_ATOM_UDEF_STEREO_COUNT>
0

> <PUBCHEM_BOND_DEF_STEREO_COUNT>
0

> <PUBCHEM_BOND_UDEF_STEREO_COUNT>
0

> <PUBCHEM_ISOTOPIC_ATOM_COUNT>
0

> <PUBCHEM_COMPONENT_COUNT>
1

> <PUBCHEM_CACTVS_TAUTO_COUNT>
-1

> <PUBCHEM_COORDINATE_TYPE>
1
5
255

> <PUBCHEM_BONDANNOTATIONS>
16  20  6
18  19  8
18  22  8
19  23  8
22  24  8
23  25  8
24  25  8

$$$$
