11497680
  -OEChem-09292322242D

 66 71  0     1  0  0  0  0  0999 V2000
    9.0604    1.4344    0.0000 S   0  0  0  0  0  0  0  0  0  0  0  0
   17.2749   -4.1045    0.0000 F   0  0  0  0  0  0  0  0  0  0  0  0
   17.6410   -2.7385    0.0000 F   0  0  0  0  0  0  0  0  0  0  0  0
   15.9089   -3.7385    0.0000 F   0  0  0  0  0  0  0  0  0  0  0  0
   16.6800   -1.4647    0.0000 O   0  0  0  0  0  0  0  0  0  0  0  0
   12.0604   -0.2976    0.0000 N   0  0  3  0  0  0  0  0  0  0  0  0
   15.2862   -2.2694    0.0000 N   0  0  0  0  0  0  0  0  0  0  0  0
    7.4726    2.2435    0.0000 N   0  0  0  0  0  0  0  0  0  0  0  0
    7.4726    0.6254    0.0000 N   0  0  0  0  0  0  0  0  0  0  0  0
    6.5215    0.9344    0.0000 N   0  0  0  0  0  0  0  0  0  0  0  0
    3.0320    2.2943    0.0000 N   0  0  0  0  0  0  0  0  0  0  0  0
   12.4847   -1.1818    0.0000 C   0  0  0  0  0  0  0  0  0  0  0  0
   12.4847    0.5866    0.0000 C   0  0  0  0  0  0  0  0  0  0  0  0
   13.4401   -1.4040    0.0000 C   0  0  0  0  0  0  0  0  0  0  0  0
   13.4401    0.8087    0.0000 C   0  0  0  0  0  0  0  0  0  0  0  0
   14.2110   -0.7976    0.0000 C   0  0  0  0  0  0  0  0  0  0  0  0
   14.2110    0.2024    0.0000 C   0  0  0  0  0  0  0  0  0  0  0  0
   11.0604   -0.2976    0.0000 C   0  0  0  0  0  0  0  0  0  0  0  0
   15.0770   -1.2976    0.0000 C   0  0  0  0  0  0  0  0  0  0  0  0
   10.5604    0.5684    0.0000 C   0  0  0  0  0  0  0  0  0  0  0  0
   15.0770    0.7024    0.0000 C   0  0  0  0  0  0  0  0  0  0  0  0
   15.9430   -0.7976    0.0000 C   0  0  0  0  0  0  0  0  0  0  0  0
   15.9430    0.2024    0.0000 C   0  0  0  0  0  0  0  0  0  0  0  0
    9.5604    0.5684    0.0000 C   0  0  0  0  0  0  0  0  0  0  0  0
   16.2749   -2.3725    0.0000 C   0  0  0  0  0  0  0  0  0  0  0  0
   16.7749   -3.2385    0.0000 C   0  0  0  0  0  0  0  0  0  0  0  0
    8.0604    1.4344    0.0000 C   0  0  0  0  0  0  0  0  0  0  0  0
    6.5215    1.9344    0.0000 C   0  0  0  0  0  0  0  0  0  0  0  0
    5.7125    2.5222    0.0000 C   0  0  0  0  0  0  0  0  0  0  0  0
    4.7990    2.1155    0.0000 C   0  0  0  0  0  0  0  0  0  0  0  0
    7.7816    3.1945    0.0000 C   0  0  0  0  0  0  0  0  0  0  0  0
    3.9900    2.7033    0.0000 C   0  0  0  0  0  0  0  0  0  0  0  0
    5.8171    3.5168    0.0000 C   0  0  0  0  0  0  0  0  0  0  0  0
    4.7061    1.0780    0.0000 C   0  0  0  0  0  0  0  0  0  0  0  0
    4.0945    3.6978    0.0000 C   0  0  0  0  0  0  0  0  0  0  0  0
    5.0080    4.1045    0.0000 C   0  0  0  0  0  0  0  0  0  0  0  0
    3.7578    0.6470    0.0000 C   0  0  0  0  0  0  0  0  0  0  0  0
    2.9151    1.2593    0.0000 C   0  0  0  0  0  0  0  0  0  0  0  0
    2.0000    0.8561    0.0000 C   0  0  0  0  0  0  0  0  0  0  0  0
   11.8800   -1.3184    0.0000 H   0  0  0  0  0  0  0  0  0  0  0  0
   12.4828   -1.8018    0.0000 H   0  0  0  0  0  0  0  0  0  0  0  0
   12.4828    1.2066    0.0000 H   0  0  0  0  0  0  0  0  0  0  0  0
   11.8800    0.7232    0.0000 H   0  0  0  0  0  0  0  0  0  0  0  0
   13.1683   -1.9612    0.0000 H   0  0  0  0  0  0  0  0  0  0  0  0
   13.9225   -1.7933    0.0000 H   0  0  0  0  0  0  0  0  0  0  0  0
   13.9225    1.1981    0.0000 H   0  0  0  0  0  0  0  0  0  0  0  0
   13.1683    1.3660    0.0000 H   0  0  0  0  0  0  0  0  0  0  0  0
   10.4778   -0.5097    0.0000 H   0  0  0  0  0  0  0  0  0  0  0  0
   11.1680   -0.9082    0.0000 H   0  0  0  0  0  0  0  0  0  0  0  0
   11.1430    0.7805    0.0000 H   0  0  0  0  0  0  0  0  0  0  0  0
   10.4527    1.1790    0.0000 H   0  0  0  0  0  0  0  0  0  0  0  0
   15.0770    1.3224    0.0000 H   0  0  0  0  0  0  0  0  0  0  0  0
   16.4800    0.5124    0.0000 H   0  0  0  0  0  0  0  0  0  0  0  0
    8.9778    0.3564    0.0000 H   0  0  0  0  0  0  0  0  0  0  0  0
    9.6680   -0.0422    0.0000 H   0  0  0  0  0  0  0  0  0  0  0  0
    8.3713    3.0029    0.0000 H   0  0  0  0  0  0  0  0  0  0  0  0
    7.9732    3.7842    0.0000 H   0  0  0  0  0  0  0  0  0  0  0  0
    7.1920    3.3861    0.0000 H   0  0  0  0  0  0  0  0  0  0  0  0
    6.3834    3.7689    0.0000 H   0  0  0  0  0  0  0  0  0  0  0  0
    5.2119    0.7194    0.0000 H   0  0  0  0  0  0  0  0  0  0  0  0
    3.5929    4.0622    0.0000 H   0  0  0  0  0  0  0  0  0  0  0  0
    5.0728    4.7211    0.0000 H   0  0  0  0  0  0  0  0  0  0  0  0
    3.6954    0.0302    0.0000 H   0  0  0  0  0  0  0  0  0  0  0  0
    1.7500    1.4234    0.0000 H   0  0  0  0  0  0  0  0  0  0  0  0
    1.4326    0.6061    0.0000 H   0  0  0  0  0  0  0  0  0  0  0  0
    2.2500    0.2887    0.0000 H   0  0  0  0  0  0  0  0  0  0  0  0
  1 24  1  0  0  0  0
  1 27  1  0  0  0  0
  2 26  1  0  0  0  0
  3 26  1  0  0  0  0
  4 26  1  0  0  0  0
  5 22  1  0  0  0  0
  5 25  1  0  0  0  0
  6 12  1  0  0  0  0
  6 13  1  0  0  0  0
  6 18  1  0  0  0  0
  7 19  1  0  0  0  0
  7 25  2  0  0  0  0
  8 27  1  0  0  0  0
  8 28  1  0  0  0  0
  8 31  1  0  0  0  0
  9 10  1  0  0  0  0
  9 27  2  0  0  0  0
 10 28  2  0  0  0  0
 11 32  1  0  0  0  0
 11 38  2  0  0  0  0
 12 14  1  0  0  0  0
 12 40  1  0  0  0  0
 12 41  1  0  0  0  0
 13 15  1  0  0  0  0
 13 42  1  0  0  0  0
 13 43  1  0  0  0  0
 14 16  1  0  0  0  0
 14 44  1  0  0  0  0
 14 45  1  0  0  0  0
 15 17  1  0  0  0  0
 15 46  1  0  0  0  0
 15 47  1  0  0  0  0
 16 17  2  0  0  0  0
 16 19  1  0  0  0  0
 17 21  1  0  0  0  0
 18 20  1  0  0  0  0
 18 48  1  0  0  0  0
 18 49  1  0  0  0  0
 19 22  2  0  0  0  0
 20 24  1  0  0  0  0
 20 50  1  0  0  0  0
 20 51  1  0  0  0  0
 21 23  2  0  0  0  0
 21 52  1  0  0  0  0
 22 23  1  0  0  0  0
 23 53  1  0  0  0  0
 24 54  1  0  0  0  0
 24 55  1  0  0  0  0
 25 26  1  0  0  0  0
 28 29  1  0  0  0  0
 29 30  2  0  0  0  0
 29 33  1  0  0  0  0
 30 32  1  0  0  0  0
 30 34  1  0  0  0  0
 31 56  1  0  0  0  0
 31 57  1  0  0  0  0
 31 58  1  0  0  0  0
 32 35  2  0  0  0  0
 33 36  2  0  0  0  0
 33 59  1  0  0  0  0
 34 37  2  0  0  0  0
 34 60  1  0  0  0  0
 35 36  1  0  0  0  0
 35 61  1  0  0  0  0
 36 62  1  0  0  0  0
 37 38  1  0  0  0  0
 37 63  1  0  0  0  0
 38 39  1  0  0  0  0
 39 64  1  0  0  0  0
 39 65  1  0  0  0  0
 39 66  1  0  0  0  0
M  END
> <PUBCHEM_COMPOUND_CID>
11497680

> <PUBCHEM_COMPOUND_CANONICALIZED>
1

> <PUBCHEM_CACTVS_COMPLEXITY>
825

> <PUBCHEM_CACTVS_HBOND_ACCEPTOR>
10

> <PUBCHEM_CACTVS_HBOND_DONOR>
0

> <PUBCHEM_CACTVS_ROTATABLE_BOND>
6

> <PUBCHEM_CACTVS_SUBSKEYS>
AAADceB7oYBAAAAAAAAAAAAAAAAAAWLAAAA8YIAABYAAAFix/gAAHwQIAAAADAzF3xSz1vcMFEiqA6dydASS2CtvYrAd2CG/bNiOLvLkvbuPOSjkzBPY6YeY2fKOoAABQAASEABAAAKAACQgAAAAAAAAAA==

> <PUBCHEM_IUPAC_OPENEYE_NAME>
8-[3-[[4-methyl-5-(2-methyl-5-quinolyl)-1,2,4-triazol-3-yl]sulfanyl]propyl]-2-(trifluoromethyl)-6,7,9,10-tetrahydrooxazolo[5,4-i][3]benzazepine

> <PUBCHEM_IUPAC_CAS_NAME>
8-[3-[[4-methyl-5-(2-methyl-5-quinolinyl)-1,2,4-triazol-3-yl]thio]propyl]-2-(trifluoromethyl)-6,7,9,10-tetrahydrooxazolo[5,4-i][3]benzazepine

> <PUBCHEM_IUPAC_NAME_MARKUP>
8-[3-[[4-methyl-5-(2-methylquinolin-5-yl)-1,2,4-triazol-3-yl]sulfanyl]propyl]-2-(trifluoromethyl)-6,7,9,10-tetrahydro-[1,3]oxazolo[5,4-i][3]benzazepine

> <PUBCHEM_IUPAC_NAME>
8-[3-[[4-methyl-5-(2-methylquinolin-5-yl)-1,2,4-triazol-3-yl]sulfanyl]propyl]-2-(trifluoromethyl)-6,7,9,10-tetrahydro-[1,3]oxazolo[5,4-i][3]benzazepine

> <PUBCHEM_IUPAC_SYSTEMATIC_NAME>
8-[3-[[4-methyl-5-(2-methylquinolin-5-yl)-1,2,4-triazol-3-yl]sulfanyl]propyl]-2-(trifluoromethyl)-6,7,9,10-tetrahydro-[1,3]oxazolo[5,4-i][3]benzazepine

> <PUBCHEM_IUPAC_TRADITIONAL_NAME>
8-[3-[[4-methyl-5-(2-methyl-5-quinolyl)-1,2,4-triazol-3-yl]thio]propyl]-2-(trifluoromethyl)-6,7,9,10-tetrahydrooxazolo[5,4-i][3]benzazepine

> <PUBCHEM_IUPAC_INCHI>
InChI=1S/C28H27F3N6OS/c1-17-7-9-20-21(5-3-6-22(20)32-17)25-34-35-27(36(25)2)39-16-4-13-37-14-11-18-8-10-23-24(19(18)12-15-37)33-26(38-23)28(29,30)31/h3,5-10H,4,11-16H2,1-2H3

> <PUBCHEM_IUPAC_INCHIKEY>
SUTBGEJWOOOUFT-UHFFFAOYSA-N

> <PUBCHEM_XLOGP3_AA>
5.7

> <PUBCHEM_EXACT_MASS>
552.19191517

> <PUBCHEM_MOLECULAR_FORMULA>
C28H27F3N6OS

> <PUBCHEM_MOLECULAR_WEIGHT>
552.6

> <PUBCHEM_OPENEYE_CAN_SMILES>
CC1=NC2=CC=CC(=C2C=C1)C3=NN=C(N3C)SCCCN4CCC5=C(CC4)C6=C(C=C5)OC(=N6)C(F)(F)F

> <PUBCHEM_OPENEYE_ISO_SMILES>
CC1=NC2=CC=CC(=C2C=C1)C3=NN=C(N3C)SCCCN4CCC5=C(CC4)C6=C(C=C5)OC(=N6)C(F)(F)F

> <PUBCHEM_CACTVS_TPSA>
98.2

> <PUBCHEM_MONOISOTOPIC_WEIGHT>
552.19191517

> <PUBCHEM_TOTAL_CHARGE>
0

> <PUBCHEM_HEAVY_ATOM_COUNT>
39

> <PUBCHEM_ATOM_DEF_STEREO_COUNT>
0

> <PUBCHEM_ATOM_UDEF_STEREO_COUNT>
0

> <PUBCHEM_BOND_DEF_STEREO_COUNT>
0

> <PUBCHEM_BOND_UDEF_STEREO_COUNT>
0

> <PUBCHEM_ISOTOPIC_ATOM_COUNT>
0

> <PUBCHEM_COMPONENT_COUNT>
1

> <PUBCHEM_CACTVS_TAUTO_COUNT>
-1

> <PUBCHEM_COORDINATE_TYPE>
1
5
255

> <PUBCHEM_BONDANNOTATIONS>
10  28  8
11  32  8
11  38  8
16  17  8
16  19  8
17  21  8
19  22  8
21  23  8
22  23  8
29  30  8
29  33  8
30  32  8
30  34  8
32  35  8
33  36  8
34  37  8
35  36  8
37  38  8
5  22  8
5  25  8
7  19  8
7  25  8
8  27  8
8  28  8
9  10  8
9  27  8

$$$$
