219050
  -OEChem-09292321582D

 52 55  0     1  0  0  0  0  0999 V2000
    2.5369   -2.7136    0.0000 O   0  0  0  0  0  0  0  0  0  0  0  0
    8.9702    0.3551    0.0000 N   0  0  3  0  0  0  0  0  0  0  0  0
    6.0812   -4.5184    0.0000 N   0  0  0  0  0  0  0  0  0  0  0  0
    8.6596   -0.5954    0.0000 C   0  0  0  0  0  0  0  0  0  0  0  0
    8.3024    1.0994    0.0000 C   0  0  0  0  0  0  0  0  0  0  0  0
    7.6811   -0.8016    0.0000 C   0  0  0  0  0  0  0  0  0  0  0  0
    9.9487    0.5613    0.0000 C   0  0  0  0  0  0  0  0  0  0  0  0
    8.6130    2.0499    0.0000 C   0  0  0  0  0  0  0  0  0  0  0  0
    7.3704   -1.7522    0.0000 C   0  0  0  0  0  0  0  0  0  0  0  0
    9.5916    2.2561    0.0000 C   0  0  0  0  0  0  0  0  0  0  0  0
    6.3919   -1.9584    0.0000 C   0  0  0  0  0  0  0  0  0  0  0  0
   10.2594    1.5118    0.0000 C   0  0  0  0  0  0  0  0  0  0  0  0
    6.0812   -2.9089    0.0000 C   0  0  0  0  0  0  0  0  0  0  0  0
    5.1350   -3.2136    0.0000 C   0  0  0  0  0  0  0  0  0  0  0  0
    9.9022    3.2066    0.0000 C   0  0  0  0  0  0  0  0  0  0  0  0
    5.1350   -4.2136    0.0000 C   0  0  0  0  0  0  0  0  0  0  0  0
    6.6648   -3.7136    0.0000 C   0  0  0  0  0  0  0  0  0  0  0  0
    4.2690   -2.7136    0.0000 C   0  0  0  0  0  0  0  0  0  0  0  0
   10.8807    3.4129    0.0000 C   0  0  0  0  0  0  0  0  0  0  0  0
    9.2344    3.9510    0.0000 C   0  0  0  0  0  0  0  0  0  0  0  0
    4.2690   -4.7136    0.0000 C   0  0  0  0  0  0  0  0  0  0  0  0
    3.4030   -3.2136    0.0000 C   0  0  0  0  0  0  0  0  0  0  0  0
    3.4030   -4.2136    0.0000 C   0  0  0  0  0  0  0  0  0  0  0  0
   11.1914    4.3634    0.0000 C   0  0  0  0  0  0  0  0  0  0  0  0
    9.5450    4.9015    0.0000 C   0  0  0  0  0  0  0  0  0  0  0  0
   10.5235    5.1077    0.0000 C   0  0  0  0  0  0  0  0  0  0  0  0
    8.6801   -1.2151    0.0000 H   0  0  0  0  0  0  0  0  0  0  0  0
    9.2734   -0.6828    0.0000 H   0  0  0  0  0  0  0  0  0  0  0  0
    7.7555    1.3914    0.0000 H   0  0  0  0  0  0  0  0  0  0  0  0
    7.9198    0.6115    0.0000 H   0  0  0  0  0  0  0  0  0  0  0  0
    7.6605   -0.1820    0.0000 H   0  0  0  0  0  0  0  0  0  0  0  0
    7.0672   -0.7143    0.0000 H   0  0  0  0  0  0  0  0  0  0  0  0
    9.9693   -0.0583    0.0000 H   0  0  0  0  0  0  0  0  0  0  0  0
   10.5626    0.4740    0.0000 H   0  0  0  0  0  0  0  0  0  0  0  0
    8.5925    2.6696    0.0000 H   0  0  0  0  0  0  0  0  0  0  0  0
    7.9992    2.1373    0.0000 H   0  0  0  0  0  0  0  0  0  0  0  0
    7.3910   -2.3718    0.0000 H   0  0  0  0  0  0  0  0  0  0  0  0
    7.9842   -1.8395    0.0000 H   0  0  0  0  0  0  0  0  0  0  0  0
    6.3713   -1.3387    0.0000 H   0  0  0  0  0  0  0  0  0  0  0  0
    5.7781   -1.8710    0.0000 H   0  0  0  0  0  0  0  0  0  0  0  0
   10.8661    1.6397    0.0000 H   0  0  0  0  0  0  0  0  0  0  0  0
    7.2848   -3.7136    0.0000 H   0  0  0  0  0  0  0  0  0  0  0  0
    6.2738   -5.1077    0.0000 H   0  0  0  0  0  0  0  0  0  0  0  0
    4.2690   -2.0936    0.0000 H   0  0  0  0  0  0  0  0  0  0  0  0
   11.2948    2.9514    0.0000 H   0  0  0  0  0  0  0  0  0  0  0  0
    8.6277    3.8231    0.0000 H   0  0  0  0  0  0  0  0  0  0  0  0
    4.2690   -5.3336    0.0000 H   0  0  0  0  0  0  0  0  0  0  0  0
    2.8660   -4.5236    0.0000 H   0  0  0  0  0  0  0  0  0  0  0  0
   11.7981    4.4912    0.0000 H   0  0  0  0  0  0  0  0  0  0  0  0
    9.1310    5.3629    0.0000 H   0  0  0  0  0  0  0  0  0  0  0  0
   10.7162    5.6970    0.0000 H   0  0  0  0  0  0  0  0  0  0  0  0
    2.0000   -3.0236    0.0000 H   0  0  0  0  0  0  0  0  0  0  0  0
  1 22  1  0  0  0  0
  1 52  1  0  0  0  0
  2  4  1  0  0  0  0
  2  5  1  0  0  0  0
  2  7  1  0  0  0  0
  3 16  1  0  0  0  0
  3 17  1  0  0  0  0
  3 43  1  0  0  0  0
  4  6  1  0  0  0  0
  4 27  1  0  0  0  0
  4 28  1  0  0  0  0
  5  8  1  0  0  0  0
  5 29  1  0  0  0  0
  5 30  1  0  0  0  0
  6  9  1  0  0  0  0
  6 31  1  0  0  0  0
  6 32  1  0  0  0  0
  7 12  1  0  0  0  0
  7 33  1  0  0  0  0
  7 34  1  0  0  0  0
  8 10  1  0  0  0  0
  8 35  1  0  0  0  0
  8 36  1  0  0  0  0
  9 11  1  0  0  0  0
  9 37  1  0  0  0  0
  9 38  1  0  0  0  0
 10 12  2  0  0  0  0
 10 15  1  0  0  0  0
 11 13  1  0  0  0  0
 11 39  1  0  0  0  0
 11 40  1  0  0  0  0
 12 41  1  0  0  0  0
 13 14  1  0  0  0  0
 13 17  2  0  0  0  0
 14 16  2  0  0  0  0
 14 18  1  0  0  0  0
 15 19  2  0  0  0  0
 15 20  1  0  0  0  0
 16 21  1  0  0  0  0
 17 42  1  0  0  0  0
 18 22  2  0  0  0  0
 18 44  1  0  0  0  0
 19 24  1  0  0  0  0
 19 45  1  0  0  0  0
 20 25  2  0  0  0  0
 20 46  1  0  0  0  0
 21 23  2  0  0  0  0
 21 47  1  0  0  0  0
 22 23  1  0  0  0  0
 23 48  1  0  0  0  0
 24 26  2  0  0  0  0
 24 49  1  0  0  0  0
 25 26  1  0  0  0  0
 25 50  1  0  0  0  0
 26 51  1  0  0  0  0
M  END
> <PUBCHEM_COMPOUND_CID>
219050

> <PUBCHEM_COMPOUND_CANONICALIZED>
1

> <PUBCHEM_CACTVS_COMPLEXITY>
471

> <PUBCHEM_CACTVS_HBOND_ACCEPTOR>
2

> <PUBCHEM_CACTVS_HBOND_DONOR>
2

> <PUBCHEM_CACTVS_ROTATABLE_BOND>
6

> <PUBCHEM_CACTVS_SUBSKEYS>
AAADceB7IAAAAAAAAAAAAAAAAAAAAWAAAAAwYIAAAAAAAFgB9AAAHgAQCAAADAzBngQ8xvPJkgCgAzRnRACCgCAxIiAI2aA+bJgIJuLCkZOEcAhk0BHI2Aew0PIOgEABAAACAAAAgAIAAAQAAAAAAAAAAA==

> <PUBCHEM_IUPAC_OPENEYE_NAME>
3-[4-(4-phenyl-3,6-dihydro-2H-pyridin-1-yl)butyl]-1H-indol-5-ol

> <PUBCHEM_IUPAC_CAS_NAME>
3-[4-(4-phenyl-3,6-dihydro-2H-pyridin-1-yl)butyl]-1H-indol-5-ol

> <PUBCHEM_IUPAC_NAME_MARKUP>
3-[4-(4-phenyl-3,6-dihydro-2<I>H</I>-pyridin-1-yl)butyl]-1<I>H</I>-indol-5-ol

> <PUBCHEM_IUPAC_NAME>
3-[4-(4-phenyl-3,6-dihydro-2H-pyridin-1-yl)butyl]-1H-indol-5-ol

> <PUBCHEM_IUPAC_SYSTEMATIC_NAME>
3-[4-(4-phenyl-3,6-dihydro-2H-pyridin-1-yl)butyl]-1H-indol-5-ol

> <PUBCHEM_IUPAC_TRADITIONAL_NAME>
3-[4-(4-phenyl-3,6-dihydro-2H-pyridin-1-yl)butyl]-1H-indol-5-ol

> <PUBCHEM_IUPAC_INCHI>
InChI=1S/C23H26N2O/c26-21-9-10-23-22(16-21)20(17-24-23)8-4-5-13-25-14-11-19(12-15-25)18-6-2-1-3-7-18/h1-3,6-7,9-11,16-17,24,26H,4-5,8,12-15H2

> <PUBCHEM_IUPAC_INCHIKEY>
HGEYJZMMUGWEOT-UHFFFAOYSA-N

> <PUBCHEM_XLOGP3_AA>
4.6

> <PUBCHEM_EXACT_MASS>
346.204513457

> <PUBCHEM_MOLECULAR_FORMULA>
C23H26N2O

> <PUBCHEM_MOLECULAR_WEIGHT>
346.5

> <PUBCHEM_OPENEYE_CAN_SMILES>
C1CN(CC=C1C2=CC=CC=C2)CCCCC3=CNC4=C3C=C(C=C4)O

> <PUBCHEM_OPENEYE_ISO_SMILES>
C1CN(CC=C1C2=CC=CC=C2)CCCCC3=CNC4=C3C=C(C=C4)O

> <PUBCHEM_CACTVS_TPSA>
39.3

> <PUBCHEM_MONOISOTOPIC_WEIGHT>
346.204513457

> <PUBCHEM_TOTAL_CHARGE>
0

> <PUBCHEM_HEAVY_ATOM_COUNT>
26

> <PUBCHEM_ATOM_DEF_STEREO_COUNT>
0

> <PUBCHEM_ATOM_UDEF_STEREO_COUNT>
0

> <PUBCHEM_BOND_DEF_STEREO_COUNT>
0

> <PUBCHEM_BOND_UDEF_STEREO_COUNT>
0

> <PUBCHEM_ISOTOPIC_ATOM_COUNT>
0

> <PUBCHEM_COMPONENT_COUNT>
1

> <PUBCHEM_CACTVS_TAUTO_COUNT>
-1

> <PUBCHEM_COORDINATE_TYPE>
1
5
255

> <PUBCHEM_BONDANNOTATIONS>
13  14  8
13  17  8
14  16  8
14  18  8
15  19  8
15  20  8
16  21  8
18  22  8
19  24  8
20  25  8
21  23  8
22  23  8
24  26  8
25  26  8
3  16  8
3  17  8

$$$$
