25256817
  -OEChem-09292322232D

 59 62  0     0  0  0  0  0  0999 V2000
    4.9665   -2.9668    0.0000 Cl  0  0  0  0  0  0  0  0  0  0  0  0
    3.7195   -4.5305    0.0000 Cl  0  0  0  0  0  0  0  0  0  0  0  0
   10.5284    1.3086    0.0000 O   0  0  0  0  0  0  0  0  0  0  0  0
    5.4828    0.4586    0.0000 N   0  0  0  0  0  0  0  0  0  0  0  0
    4.2358   -1.1051    0.0000 N   0  0  0  0  0  0  0  0  0  0  0  0
    9.3309    2.5060    0.0000 N   0  0  0  0  0  0  0  0  0  0  0  0
    5.8481   -0.4723    0.0000 C   0  0  0  0  0  0  0  0  0  0  0  0
    4.4940    0.6076    0.0000 C   0  0  0  0  0  0  0  0  0  0  0  0
    6.1063    1.2404    0.0000 C   0  0  0  0  0  0  0  0  0  0  0  0
    5.2246   -1.2541    0.0000 C   0  0  0  0  0  0  0  0  0  0  0  0
    3.8705   -0.1742    0.0000 C   0  0  0  0  0  0  0  0  0  0  0  0
    7.0951    1.0914    0.0000 C   0  0  0  0  0  0  0  0  0  0  0  0
    7.7186    1.8732    0.0000 C   0  0  0  0  0  0  0  0  0  0  0  0
    8.7074    1.7242    0.0000 C   0  0  0  0  0  0  0  0  0  0  0  0
    8.8970    3.4070    0.0000 C   0  0  0  0  0  0  0  0  0  0  0  0
    3.6123   -1.8869    0.0000 C   0  0  0  0  0  0  0  0  0  0  0  0
    9.3309    4.3080    0.0000 C   0  0  0  0  0  0  0  0  0  0  0  0
   10.3058    4.5305    0.0000 C   0  0  0  0  0  0  0  0  0  0  0  0
   10.3058    2.2835    0.0000 C   0  0  0  0  0  0  0  0  0  0  0  0
   11.0877    3.9070    0.0000 C   0  0  0  0  0  0  0  0  0  0  0  0
   11.0877    2.9070    0.0000 C   0  0  0  0  0  0  0  0  0  0  0  0
    3.9777   -2.8178    0.0000 C   0  0  0  0  0  0  0  0  0  0  0  0
    2.6235   -1.7378    0.0000 C   0  0  0  0  0  0  0  0  0  0  0  0
   11.9816    4.4416    0.0000 C   0  0  0  0  0  0  0  0  0  0  0  0
   11.9816    2.3723    0.0000 C   0  0  0  0  0  0  0  0  0  0  0  0
    3.3542   -3.5996    0.0000 C   0  0  0  0  0  0  0  0  0  0  0  0
    2.0000   -2.5197    0.0000 C   0  0  0  0  0  0  0  0  0  0  0  0
   12.8877    3.9278    0.0000 C   0  0  0  0  0  0  0  0  0  0  0  0
   12.8877    2.8862    0.0000 C   0  0  0  0  0  0  0  0  0  0  0  0
    2.3653   -3.4506    0.0000 C   0  0  0  0  0  0  0  0  0  0  0  0
    6.2584   -0.9371    0.0000 H   0  0  0  0  0  0  0  0  0  0  0  0
    6.3772   -0.1490    0.0000 H   0  0  0  0  0  0  0  0  0  0  0  0
    4.6914    1.1954    0.0000 H   0  0  0  0  0  0  0  0  0  0  0  0
    3.9495    0.9042    0.0000 H   0  0  0  0  0  0  0  0  0  0  0  0
    6.3037    1.8282    0.0000 H   0  0  0  0  0  0  0  0  0  0  0  0
    5.5618    1.5370    0.0000 H   0  0  0  0  0  0  0  0  0  0  0  0
    5.0272   -1.8418    0.0000 H   0  0  0  0  0  0  0  0  0  0  0  0
    5.7691   -1.5506    0.0000 H   0  0  0  0  0  0  0  0  0  0  0  0
    3.4602    0.2907    0.0000 H   0  0  0  0  0  0  0  0  0  0  0  0
    3.3414   -0.4975    0.0000 H   0  0  0  0  0  0  0  0  0  0  0  0
    6.8976    0.5037    0.0000 H   0  0  0  0  0  0  0  0  0  0  0  0
    7.6396    0.7949    0.0000 H   0  0  0  0  0  0  0  0  0  0  0  0
    7.9161    2.4609    0.0000 H   0  0  0  0  0  0  0  0  0  0  0  0
    7.1741    2.1697    0.0000 H   0  0  0  0  0  0  0  0  0  0  0  0
    8.5100    1.1365    0.0000 H   0  0  0  0  0  0  0  0  0  0  0  0
    9.2519    1.4277    0.0000 H   0  0  0  0  0  0  0  0  0  0  0  0
    8.4123    3.7936    0.0000 H   0  0  0  0  0  0  0  0  0  0  0  0
    8.4123    3.0204    0.0000 H   0  0  0  0  0  0  0  0  0  0  0  0
    9.3309    4.9280    0.0000 H   0  0  0  0  0  0  0  0  0  0  0  0
    8.7265    4.4459    0.0000 H   0  0  0  0  0  0  0  0  0  0  0  0
   10.7906    4.9170    0.0000 H   0  0  0  0  0  0  0  0  0  0  0  0
   10.0368    5.0891    0.0000 H   0  0  0  0  0  0  0  0  0  0  0  0
    2.3970   -1.1607    0.0000 H   0  0  0  0  0  0  0  0  0  0  0  0
   11.9745    5.0616    0.0000 H   0  0  0  0  0  0  0  0  0  0  0  0
   11.9745    1.7524    0.0000 H   0  0  0  0  0  0  0  0  0  0  0  0
    1.3869   -2.4273    0.0000 H   0  0  0  0  0  0  0  0  0  0  0  0
   13.4234    4.2399    0.0000 H   0  0  0  0  0  0  0  0  0  0  0  0
   13.4234    2.5741    0.0000 H   0  0  0  0  0  0  0  0  0  0  0  0
    1.9788   -3.9353    0.0000 H   0  0  0  0  0  0  0  0  0  0  0  0
  1 22  1  0  0  0  0
  2 26  1  0  0  0  0
  3 19  2  0  0  0  0
  4  7  1  0  0  0  0
  4  8  1  0  0  0  0
  4  9  1  0  0  0  0
  5 10  1  0  0  0  0
  5 11  1  0  0  0  0
  5 16  1  0  0  0  0
  6 14  1  0  0  0  0
  6 15  1  0  0  0  0
  6 19  1  0  0  0  0
  7 10  1  0  0  0  0
  7 31  1  0  0  0  0
  7 32  1  0  0  0  0
  8 11  1  0  0  0  0
  8 33  1  0  0  0  0
  8 34  1  0  0  0  0
  9 12  1  0  0  0  0
  9 35  1  0  0  0  0
  9 36  1  0  0  0  0
 10 37  1  0  0  0  0
 10 38  1  0  0  0  0
 11 39  1  0  0  0  0
 11 40  1  0  0  0  0
 12 13  1  0  0  0  0
 12 41  1  0  0  0  0
 12 42  1  0  0  0  0
 13 14  1  0  0  0  0
 13 43  1  0  0  0  0
 13 44  1  0  0  0  0
 14 45  1  0  0  0  0
 14 46  1  0  0  0  0
 15 17  1  0  0  0  0
 15 47  1  0  0  0  0
 15 48  1  0  0  0  0
 16 22  2  0  0  0  0
 16 23  1  0  0  0  0
 17 18  1  0  0  0  0
 17 49  1  0  0  0  0
 17 50  1  0  0  0  0
 18 20  1  0  0  0  0
 18 51  1  0  0  0  0
 18 52  1  0  0  0  0
 19 21  1  0  0  0  0
 20 21  1  0  0  0  0
 20 24  2  0  0  0  0
 21 25  2  0  0  0  0
 22 26  1  0  0  0  0
 23 27  2  0  0  0  0
 23 53  1  0  0  0  0
 24 28  1  0  0  0  0
 24 54  1  0  0  0  0
 25 29  1  0  0  0  0
 25 55  1  0  0  0  0
 26 30  2  0  0  0  0
 27 30  1  0  0  0  0
 27 56  1  0  0  0  0
 28 29  2  0  0  0  0
 28 57  1  0  0  0  0
 29 58  1  0  0  0  0
 30 59  1  0  0  0  0
M  END
> <PUBCHEM_COMPOUND_CID>
25256817

> <PUBCHEM_COMPOUND_CANONICALIZED>
1

> <PUBCHEM_CACTVS_COMPLEXITY>
555

> <PUBCHEM_CACTVS_HBOND_ACCEPTOR>
3

> <PUBCHEM_CACTVS_HBOND_DONOR>
0

> <PUBCHEM_CACTVS_ROTATABLE_BOND>
6

> <PUBCHEM_CACTVS_SUBSKEYS>
AAADceB7IAAGAAAAAAAAAAAAAAAAAAAAAAA8YIAABYAAAAABQAAAHgIAAAAADArBmCQwwIMAAACIAiVSUACCAAAlBwAIikEIZsgIYDLBl5HUIQhghgDIyYcYiICOgAAAAAIQABQAAAAABCAAKAAAAAAAAA==

> <PUBCHEM_IUPAC_OPENEYE_NAME>
2-[4-[4-(2,3-dichlorophenyl)piperazin-1-yl]butyl]-4,5-dihydro-3H-2-benzazepin-1-one

> <PUBCHEM_IUPAC_CAS_NAME>
2-[4-[4-(2,3-dichlorophenyl)-1-piperazinyl]butyl]-4,5-dihydro-3H-2-benzazepin-1-one

> <PUBCHEM_IUPAC_NAME_MARKUP>
2-[4-[4-(2,3-dichlorophenyl)piperazin-1-yl]butyl]-4,5-dihydro-3<I>H</I>-2-benzazepin-1-one

> <PUBCHEM_IUPAC_NAME>
2-[4-[4-(2,3-dichlorophenyl)piperazin-1-yl]butyl]-4,5-dihydro-3H-2-benzazepin-1-one

> <PUBCHEM_IUPAC_SYSTEMATIC_NAME>
2-[4-[4-[2,3-bis(chloranyl)phenyl]piperazin-1-yl]butyl]-4,5-dihydro-3H-2-benzazepin-1-one

> <PUBCHEM_IUPAC_TRADITIONAL_NAME>
2-[4-[4-(2,3-dichlorophenyl)piperazino]butyl]-4,5-dihydro-3H-2-benzazepin-1-one

> <PUBCHEM_IUPAC_INCHI>
InChI=1S/C24H29Cl2N3O/c25-21-10-5-11-22(23(21)26)28-17-15-27(16-18-28)12-3-4-13-29-14-6-8-19-7-1-2-9-20(19)24(29)30/h1-2,5,7,9-11H,3-4,6,8,12-18H2

> <PUBCHEM_IUPAC_INCHIKEY>
UIFDNPUSYCXLPI-UHFFFAOYSA-N

> <PUBCHEM_XLOGP3_AA>
5.4

> <PUBCHEM_EXACT_MASS>
445.1687679

> <PUBCHEM_MOLECULAR_FORMULA>
C24H29Cl2N3O

> <PUBCHEM_MOLECULAR_WEIGHT>
446.4

> <PUBCHEM_OPENEYE_CAN_SMILES>
C1CC2=CC=CC=C2C(=O)N(C1)CCCCN3CCN(CC3)C4=C(C(=CC=C4)Cl)Cl

> <PUBCHEM_OPENEYE_ISO_SMILES>
C1CC2=CC=CC=C2C(=O)N(C1)CCCCN3CCN(CC3)C4=C(C(=CC=C4)Cl)Cl

> <PUBCHEM_CACTVS_TPSA>
26.8

> <PUBCHEM_MONOISOTOPIC_WEIGHT>
445.1687679

> <PUBCHEM_TOTAL_CHARGE>
0

> <PUBCHEM_HEAVY_ATOM_COUNT>
30

> <PUBCHEM_ATOM_DEF_STEREO_COUNT>
0

> <PUBCHEM_ATOM_UDEF_STEREO_COUNT>
0

> <PUBCHEM_BOND_DEF_STEREO_COUNT>
0

> <PUBCHEM_BOND_UDEF_STEREO_COUNT>
0

> <PUBCHEM_ISOTOPIC_ATOM_COUNT>
0

> <PUBCHEM_COMPONENT_COUNT>
1

> <PUBCHEM_CACTVS_TAUTO_COUNT>
-1

> <PUBCHEM_COORDINATE_TYPE>
1
5
255

> <PUBCHEM_BONDANNOTATIONS>
16  22  8
16  23  8
20  21  8
20  24  8
21  25  8
22  26  8
23  27  8
24  28  8
25  29  8
26  30  8
27  30  8
28  29  8

$$$$
