71459660
  -OEChem-09292321592D

 96 99  0     1  0  0  0  0  0999 V2000
   19.4048   -2.7846    0.0000 O   0  0  0  0  0  0  0  0  0  0  0  0
    2.9176    2.7846    0.0000 O   0  0  0  0  0  0  0  0  0  0  0  0
   15.9244    0.2500    0.0000 N   0  0  3  0  0  0  0  0  0  0  0  0
    6.3981   -0.2500    0.0000 N   0  0  3  0  0  0  0  0  0  0  0  0
   16.7904   -0.2500    0.0000 C   0  0  1  0  0  0  0  0  0  0  0  0
    5.5321    0.2500    0.0000 C   0  0  1  0  0  0  0  0  0  0  0  0
   16.7904   -1.2500    0.0000 C   0  0  0  0  0  0  0  0  0  0  0  0
    5.5321    1.2500    0.0000 C   0  0  0  0  0  0  0  0  0  0  0  0
   17.6564    0.2500    0.0000 C   0  0  0  0  0  0  0  0  0  0  0  0
    4.6660   -0.2500    0.0000 C   0  0  0  0  0  0  0  0  0  0  0  0
   17.6564   -1.7500    0.0000 C   0  0  0  0  0  0  0  0  0  0  0  0
    4.6660    1.7500    0.0000 C   0  0  0  0  0  0  0  0  0  0  0  0
   15.0583   -0.2500    0.0000 C   0  0  0  0  0  0  0  0  0  0  0  0
    7.2641    0.2500    0.0000 C   0  0  0  0  0  0  0  0  0  0  0  0
   18.5224   -0.2500    0.0000 C   0  0  0  0  0  0  0  0  0  0  0  0
    3.8000    0.2500    0.0000 C   0  0  0  0  0  0  0  0  0  0  0  0
   18.5224   -1.2500    0.0000 C   0  0  0  0  0  0  0  0  0  0  0  0
    3.8000    1.2500    0.0000 C   0  0  0  0  0  0  0  0  0  0  0  0
   15.9244    1.2500    0.0000 C   0  0  0  0  0  0  0  0  0  0  0  0
    6.3981   -1.2500    0.0000 C   0  0  0  0  0  0  0  0  0  0  0  0
   14.1923    0.2500    0.0000 C   0  0  0  0  0  0  0  0  0  0  0  0
    8.1301   -0.2500    0.0000 C   0  0  0  0  0  0  0  0  0  0  0  0
   13.3263   -0.2500    0.0000 C   0  0  0  0  0  0  0  0  0  0  0  0
    8.9962    0.2500    0.0000 C   0  0  0  0  0  0  0  0  0  0  0  0
   12.4603    0.2500    0.0000 C   0  0  0  0  0  0  0  0  0  0  0  0
    9.8622   -0.2500    0.0000 C   0  0  0  0  0  0  0  0  0  0  0  0
   11.5942   -0.2500    0.0000 C   0  0  0  0  0  0  0  0  0  0  0  0
   10.7282    0.2500    0.0000 C   0  0  0  0  0  0  0  0  0  0  0  0
   15.0583    1.7500    0.0000 C   0  0  0  0  0  0  0  0  0  0  0  0
    7.2641   -1.7500    0.0000 C   0  0  0  0  0  0  0  0  0  0  0  0
   19.4164    0.2847    0.0000 C   0  0  0  0  0  0  0  0  0  0  0  0
    2.9061   -0.2847    0.0000 C   0  0  0  0  0  0  0  0  0  0  0  0
   19.4164   -1.7847    0.0000 C   0  0  0  0  0  0  0  0  0  0  0  0
    2.9061    1.7847    0.0000 C   0  0  0  0  0  0  0  0  0  0  0  0
   20.3224   -0.2292    0.0000 C   0  0  0  0  0  0  0  0  0  0  0  0
    2.0000    0.2292    0.0000 C   0  0  0  0  0  0  0  0  0  0  0  0
   20.3224   -1.2708    0.0000 C   0  0  0  0  0  0  0  0  0  0  0  0
    2.0000    1.2708    0.0000 C   0  0  0  0  0  0  0  0  0  0  0  0
   15.0583    2.7500    0.0000 C   0  0  0  0  0  0  0  0  0  0  0  0
    7.2641   -2.7500    0.0000 C   0  0  0  0  0  0  0  0  0  0  0  0
   16.7904    0.3700    0.0000 H   0  0  0  0  0  0  0  0  0  0  0  0
    5.5321   -0.3700    0.0000 H   0  0  0  0  0  0  0  0  0  0  0  0
   16.1798   -1.1423    0.0000 H   0  0  0  0  0  0  0  0  0  0  0  0
   16.5783   -1.8326    0.0000 H   0  0  0  0  0  0  0  0  0  0  0  0
    6.1426    1.1423    0.0000 H   0  0  0  0  0  0  0  0  0  0  0  0
    5.7441    1.8326    0.0000 H   0  0  0  0  0  0  0  0  0  0  0  0
   18.0549    0.7249    0.0000 H   0  0  0  0  0  0  0  0  0  0  0  0
   17.2579    0.7249    0.0000 H   0  0  0  0  0  0  0  0  0  0  0  0
    4.2675   -0.7249    0.0000 H   0  0  0  0  0  0  0  0  0  0  0  0
    5.0646   -0.7249    0.0000 H   0  0  0  0  0  0  0  0  0  0  0  0
   17.2579   -2.2250    0.0000 H   0  0  0  0  0  0  0  0  0  0  0  0
   18.0549   -2.2250    0.0000 H   0  0  0  0  0  0  0  0  0  0  0  0
    5.0646    2.2250    0.0000 H   0  0  0  0  0  0  0  0  0  0  0  0
    4.2675    2.2250    0.0000 H   0  0  0  0  0  0  0  0  0  0  0  0
   14.6598   -0.7249    0.0000 H   0  0  0  0  0  0  0  0  0  0  0  0
   15.4569   -0.7249    0.0000 H   0  0  0  0  0  0  0  0  0  0  0  0
    7.6626    0.7249    0.0000 H   0  0  0  0  0  0  0  0  0  0  0  0
    6.8656    0.7249    0.0000 H   0  0  0  0  0  0  0  0  0  0  0  0
   16.5349    1.1423    0.0000 H   0  0  0  0  0  0  0  0  0  0  0  0
   16.1364    1.8326    0.0000 H   0  0  0  0  0  0  0  0  0  0  0  0
    5.7875   -1.1423    0.0000 H   0  0  0  0  0  0  0  0  0  0  0  0
    6.1860   -1.8326    0.0000 H   0  0  0  0  0  0  0  0  0  0  0  0
   14.5908    0.7249    0.0000 H   0  0  0  0  0  0  0  0  0  0  0  0
   13.7938    0.7249    0.0000 H   0  0  0  0  0  0  0  0  0  0  0  0
    7.7316   -0.7249    0.0000 H   0  0  0  0  0  0  0  0  0  0  0  0
    8.5287   -0.7249    0.0000 H   0  0  0  0  0  0  0  0  0  0  0  0
   12.9278   -0.7249    0.0000 H   0  0  0  0  0  0  0  0  0  0  0  0
   13.7248   -0.7249    0.0000 H   0  0  0  0  0  0  0  0  0  0  0  0
    9.3947    0.7249    0.0000 H   0  0  0  0  0  0  0  0  0  0  0  0
    8.5976    0.7249    0.0000 H   0  0  0  0  0  0  0  0  0  0  0  0
   12.8588    0.7249    0.0000 H   0  0  0  0  0  0  0  0  0  0  0  0
   12.0617    0.7249    0.0000 H   0  0  0  0  0  0  0  0  0  0  0  0
    9.4637   -0.7249    0.0000 H   0  0  0  0  0  0  0  0  0  0  0  0
   10.2607   -0.7249    0.0000 H   0  0  0  0  0  0  0  0  0  0  0  0
   11.1957   -0.7249    0.0000 H   0  0  0  0  0  0  0  0  0  0  0  0
   11.9928   -0.7249    0.0000 H   0  0  0  0  0  0  0  0  0  0  0  0
   11.1267    0.7249    0.0000 H   0  0  0  0  0  0  0  0  0  0  0  0
   10.3297    0.7249    0.0000 H   0  0  0  0  0  0  0  0  0  0  0  0
   14.4478    1.8577    0.0000 H   0  0  0  0  0  0  0  0  0  0  0  0
   14.8463    1.1674    0.0000 H   0  0  0  0  0  0  0  0  0  0  0  0
    7.8747   -1.8577    0.0000 H   0  0  0  0  0  0  0  0  0  0  0  0
    7.4762   -1.1674    0.0000 H   0  0  0  0  0  0  0  0  0  0  0  0
   19.4092    0.9046    0.0000 H   0  0  0  0  0  0  0  0  0  0  0  0
    2.9132   -0.9046    0.0000 H   0  0  0  0  0  0  0  0  0  0  0  0
   20.8582    0.0829    0.0000 H   0  0  0  0  0  0  0  0  0  0  0  0
    1.4643   -0.0829    0.0000 H   0  0  0  0  0  0  0  0  0  0  0  0
   20.8582   -1.5829    0.0000 H   0  0  0  0  0  0  0  0  0  0  0  0
    1.4643    1.5829    0.0000 H   0  0  0  0  0  0  0  0  0  0  0  0
   15.6783    2.7500    0.0000 H   0  0  0  0  0  0  0  0  0  0  0  0
   15.0583    3.3700    0.0000 H   0  0  0  0  0  0  0  0  0  0  0  0
   14.4383    2.7500    0.0000 H   0  0  0  0  0  0  0  0  0  0  0  0
    6.6441   -2.7500    0.0000 H   0  0  0  0  0  0  0  0  0  0  0  0
    7.2641   -3.3700    0.0000 H   0  0  0  0  0  0  0  0  0  0  0  0
    7.8841   -2.7500    0.0000 H   0  0  0  0  0  0  0  0  0  0  0  0
   19.9381   -3.1008    0.0000 H   0  0  0  0  0  0  0  0  0  0  0  0
    2.3843    3.1008    0.0000 H   0  0  0  0  0  0  0  0  0  0  0  0
  1 33  1  0  0  0  0
  1 95  1  0  0  0  0
  2 34  1  0  0  0  0
  2 96  1  0  0  0  0
  5  3  1  6  0  0  0
  3 13  1  0  0  0  0
  3 19  1  0  0  0  0
  6  4  1  6  0  0  0
  4 14  1  0  0  0  0
  4 20  1  0  0  0  0
  5  7  1  0  0  0  0
  5  9  1  0  0  0  0
  5 41  1  0  0  0  0
  6  8  1  0  0  0  0
  6 10  1  0  0  0  0
  6 42  1  0  0  0  0
  7 11  1  0  0  0  0
  7 43  1  0  0  0  0
  7 44  1  0  0  0  0
  8 12  1  0  0  0  0
  8 45  1  0  0  0  0
  8 46  1  0  0  0  0
  9 15  1  0  0  0  0
  9 47  1  0  0  0  0
  9 48  1  0  0  0  0
 10 16  1  0  0  0  0
 10 49  1  0  0  0  0
 10 50  1  0  0  0  0
 11 17  1  0  0  0  0
 11 51  1  0  0  0  0
 11 52  1  0  0  0  0
 12 18  1  0  0  0  0
 12 53  1  0  0  0  0
 12 54  1  0  0  0  0
 13 21  1  0  0  0  0
 13 55  1  0  0  0  0
 13 56  1  0  0  0  0
 14 22  1  0  0  0  0
 14 57  1  0  0  0  0
 14 58  1  0  0  0  0
 15 17  2  0  0  0  0
 15 31  1  0  0  0  0
 16 18  2  0  0  0  0
 16 32  1  0  0  0  0
 17 33  1  0  0  0  0
 18 34  1  0  0  0  0
 19 29  1  0  0  0  0
 19 59  1  0  0  0  0
 19 60  1  0  0  0  0
 20 30  1  0  0  0  0
 20 61  1  0  0  0  0
 20 62  1  0  0  0  0
 21 23  1  0  0  0  0
 21 63  1  0  0  0  0
 21 64  1  0  0  0  0
 22 24  1  0  0  0  0
 22 65  1  0  0  0  0
 22 66  1  0  0  0  0
 23 25  1  0  0  0  0
 23 67  1  0  0  0  0
 23 68  1  0  0  0  0
 24 26  1  0  0  0  0
 24 69  1  0  0  0  0
 24 70  1  0  0  0  0
 25 27  1  0  0  0  0
 25 71  1  0  0  0  0
 25 72  1  0  0  0  0
 26 28  1  0  0  0  0
 26 73  1  0  0  0  0
 26 74  1  0  0  0  0
 27 28  1  0  0  0  0
 27 75  1  0  0  0  0
 27 76  1  0  0  0  0
 28 77  1  0  0  0  0
 28 78  1  0  0  0  0
 29 39  1  0  0  0  0
 29 79  1  0  0  0  0
 29 80  1  0  0  0  0
 30 40  1  0  0  0  0
 30 81  1  0  0  0  0
 30 82  1  0  0  0  0
 31 35  2  0  0  0  0
 31 83  1  0  0  0  0
 32 36  2  0  0  0  0
 32 84  1  0  0  0  0
 33 37  2  0  0  0  0
 34 38  2  0  0  0  0
 35 37  1  0  0  0  0
 35 85  1  0  0  0  0
 36 38  1  0  0  0  0
 36 86  1  0  0  0  0
 37 87  1  0  0  0  0
 38 88  1  0  0  0  0
 39 89  1  0  0  0  0
 39 90  1  0  0  0  0
 39 91  1  0  0  0  0
 40 92  1  0  0  0  0
 40 93  1  0  0  0  0
 40 94  1  0  0  0  0
M  END
> <PUBCHEM_COMPOUND_CID>
71459660

> <PUBCHEM_COMPOUND_CANONICALIZED>
1

> <PUBCHEM_CACTVS_COMPLEXITY>
617

> <PUBCHEM_CACTVS_HBOND_ACCEPTOR>
4

> <PUBCHEM_CACTVS_HBOND_DONOR>
2

> <PUBCHEM_CACTVS_ROTATABLE_BOND>
17

> <PUBCHEM_CACTVS_SUBSKEYS>
AAADcfB/MAAAAAAAAAAAAAAAAAAAAAAAAAAwYMGAAAAAAADBQAAAHgAACAAADCzBmAQyBoMAAgCAAiBCAAACAAAgIAAIiAAOCIgIJiKCkROEcAAkwBGImAeQ0LMOgAABAAAYAAAQAAKAADAAAAAAAAAAAA==

> <PUBCHEM_IUPAC_OPENEYE_NAME>
(2S)-2-[10-[[(2S)-5-hydroxytetralin-2-yl]-propyl-amino]decyl-propyl-amino]tetralin-5-ol

> <PUBCHEM_IUPAC_CAS_NAME>
(6S)-6-[10-[[(2S)-5-hydroxy-1,2,3,4-tetrahydronaphthalen-2-yl]-propylamino]decyl-propylamino]-5,6,7,8-tetrahydronaphthalen-1-ol

> <PUBCHEM_IUPAC_NAME_MARKUP>
(6<I>S</I>)-6-[10-[[(2<I>S</I>)-5-hydroxy-1,2,3,4-tetrahydronaphthalen-2-yl]-propylamino]decyl-propylamino]-5,6,7,8-tetrahydronaphthalen-1-ol

> <PUBCHEM_IUPAC_NAME>
(6S)-6-[10-[[(2S)-5-hydroxy-1,2,3,4-tetrahydronaphthalen-2-yl]-propylamino]decyl-propylamino]-5,6,7,8-tetrahydronaphthalen-1-ol

> <PUBCHEM_IUPAC_SYSTEMATIC_NAME>
(6S)-6-[10-[[(2S)-5-oxidanyl-1,2,3,4-tetrahydronaphthalen-2-yl]-propyl-amino]decyl-propyl-amino]-5,6,7,8-tetrahydronaphthalen-1-ol

> <PUBCHEM_IUPAC_TRADITIONAL_NAME>
(2S)-2-[10-[[(2S)-5-hydroxytetralin-2-yl]-propyl-amino]decyl-propyl-amino]tetralin-5-ol

> <PUBCHEM_IUPAC_INCHI>
InChI=1S/C36H56N2O2/c1-3-23-37(31-19-21-33-29(27-31)15-13-17-35(33)39)25-11-9-7-5-6-8-10-12-26-38(24-4-2)32-20-22-34-30(28-32)16-14-18-36(34)40/h13-18,31-32,39-40H,3-12,19-28H2,1-2H3/t31-,32-/m0/s1

> <PUBCHEM_IUPAC_INCHIKEY>
SQYZBSPQNGOKJY-ACHIHNKUSA-N

> <PUBCHEM_XLOGP3_AA>
9.8

> <PUBCHEM_EXACT_MASS>
548.43417903

> <PUBCHEM_MOLECULAR_FORMULA>
C36H56N2O2

> <PUBCHEM_MOLECULAR_WEIGHT>
548.8

> <PUBCHEM_OPENEYE_CAN_SMILES>
CCCN(CCCCCCCCCCN(CCC)C1CCC2=C(C1)C=CC=C2O)C3CCC4=C(C3)C=CC=C4O

> <PUBCHEM_OPENEYE_ISO_SMILES>
CCCN(CCCCCCCCCCN(CCC)[C@H]1CCC2=C(C1)C=CC=C2O)[C@H]3CCC4=C(C3)C=CC=C4O

> <PUBCHEM_CACTVS_TPSA>
46.9

> <PUBCHEM_MONOISOTOPIC_WEIGHT>
548.43417903

> <PUBCHEM_TOTAL_CHARGE>
0

> <PUBCHEM_HEAVY_ATOM_COUNT>
40

> <PUBCHEM_ATOM_DEF_STEREO_COUNT>
2

> <PUBCHEM_ATOM_UDEF_STEREO_COUNT>
0

> <PUBCHEM_BOND_DEF_STEREO_COUNT>
0

> <PUBCHEM_BOND_UDEF_STEREO_COUNT>
0

> <PUBCHEM_ISOTOPIC_ATOM_COUNT>
0

> <PUBCHEM_COMPONENT_COUNT>
1

> <PUBCHEM_CACTVS_TAUTO_COUNT>
-1

> <PUBCHEM_COORDINATE_TYPE>
1
5
255

> <PUBCHEM_BONDANNOTATIONS>
15  17  8
15  31  8
16  18  8
16  32  8
17  33  8
18  34  8
5  3  6
31  35  8
32  36  8
33  37  8
34  38  8
35  37  8
36  38  8
6  4  6

$$$$
