10042602
  -OEChem-09292322092D

 50 53  0     0  0  0  0  0  0999 V2000
    6.3301   -1.0000    0.0000 N   0  0  0  0  0  0  0  0  0  0  0  0
    4.5981   -0.0000    0.0000 N   0  0  0  0  0  0  0  0  0  0  0  0
   11.6065   -1.1953    0.0000 N   0  0  0  0  0  0  0  0  0  0  0  0
   11.6065   -2.8047    0.0000 N   0  0  0  0  0  0  0  0  0  0  0  0
   12.1901   -2.0000    0.0000 N   0  0  0  0  0  0  0  0  0  0  0  0
    6.3301    0.0000    0.0000 C   0  0  0  0  0  0  0  0  0  0  0  0
    5.4641   -1.5000    0.0000 C   0  0  0  0  0  0  0  0  0  0  0  0
    5.4641    0.5000    0.0000 C   0  0  0  0  0  0  0  0  0  0  0  0
    4.5981   -1.0000    0.0000 C   0  0  0  0  0  0  0  0  0  0  0  0
    7.1962   -1.5000    0.0000 C   0  0  0  0  0  0  0  0  0  0  0  0
    3.7320    0.5000    0.0000 C   0  0  0  0  0  0  0  0  0  0  0  0
    8.0622   -1.0000    0.0000 C   0  0  0  0  0  0  0  0  0  0  0  0
    3.7320    1.5000    0.0000 C   0  0  0  0  0  0  0  0  0  0  0  0
    8.9282   -1.5000    0.0000 C   0  0  0  0  0  0  0  0  0  0  0  0
    2.8660   -0.0000    0.0000 C   0  0  0  0  0  0  0  0  0  0  0  0
    2.8660    2.0000    0.0000 C   0  0  0  0  0  0  0  0  0  0  0  0
    4.5981    2.0000    0.0000 C   0  0  0  0  0  0  0  0  0  0  0  0
    2.0000    0.5000    0.0000 C   0  0  0  0  0  0  0  0  0  0  0  0
    2.0000    1.5000    0.0000 C   0  0  0  0  0  0  0  0  0  0  0  0
    9.7942   -1.0000    0.0000 C   0  0  0  0  0  0  0  0  0  0  0  0
    8.9282   -2.5000    0.0000 C   0  0  0  0  0  0  0  0  0  0  0  0
    2.8660    3.0000    0.0000 C   0  0  0  0  0  0  0  0  0  0  0  0
   10.6603   -1.5000    0.0000 C   0  0  0  0  0  0  0  0  0  0  0  0
    9.7942   -3.0000    0.0000 C   0  0  0  0  0  0  0  0  0  0  0  0
   10.6603   -2.5000    0.0000 C   0  0  0  0  0  0  0  0  0  0  0  0
    6.9407   -0.1077    0.0000 H   0  0  0  0  0  0  0  0  0  0  0  0
    6.5422    0.5826    0.0000 H   0  0  0  0  0  0  0  0  0  0  0  0
    5.0656   -1.9750    0.0000 H   0  0  0  0  0  0  0  0  0  0  0  0
    5.8626   -1.9750    0.0000 H   0  0  0  0  0  0  0  0  0  0  0  0
    5.8626    0.9749    0.0000 H   0  0  0  0  0  0  0  0  0  0  0  0
    5.0656    0.9749    0.0000 H   0  0  0  0  0  0  0  0  0  0  0  0
    3.9875   -0.8923    0.0000 H   0  0  0  0  0  0  0  0  0  0  0  0
    4.3860   -1.5826    0.0000 H   0  0  0  0  0  0  0  0  0  0  0  0
    6.7976   -1.9750    0.0000 H   0  0  0  0  0  0  0  0  0  0  0  0
    7.5947   -1.9750    0.0000 H   0  0  0  0  0  0  0  0  0  0  0  0
    8.4607   -0.5251    0.0000 H   0  0  0  0  0  0  0  0  0  0  0  0
    7.6636   -0.5251    0.0000 H   0  0  0  0  0  0  0  0  0  0  0  0
    2.8660   -0.6200    0.0000 H   0  0  0  0  0  0  0  0  0  0  0  0
    4.9081    1.4631    0.0000 H   0  0  0  0  0  0  0  0  0  0  0  0
    5.1350    2.3100    0.0000 H   0  0  0  0  0  0  0  0  0  0  0  0
    4.2881    2.5369    0.0000 H   0  0  0  0  0  0  0  0  0  0  0  0
    1.4631    0.1900    0.0000 H   0  0  0  0  0  0  0  0  0  0  0  0
    1.4631    1.8100    0.0000 H   0  0  0  0  0  0  0  0  0  0  0  0
    9.7942   -0.3800    0.0000 H   0  0  0  0  0  0  0  0  0  0  0  0
    8.3913   -2.8100    0.0000 H   0  0  0  0  0  0  0  0  0  0  0  0
    3.4860    3.0000    0.0000 H   0  0  0  0  0  0  0  0  0  0  0  0
    2.8660    3.6200    0.0000 H   0  0  0  0  0  0  0  0  0  0  0  0
    2.2460    3.0000    0.0000 H   0  0  0  0  0  0  0  0  0  0  0  0
    9.7942   -3.6200    0.0000 H   0  0  0  0  0  0  0  0  0  0  0  0
   12.8101   -2.0000    0.0000 H   0  0  0  0  0  0  0  0  0  0  0  0
  1  6  1  0  0  0  0
  1  7  1  0  0  0  0
  1 10  1  0  0  0  0
  2  8  1  0  0  0  0
  2  9  1  0  0  0  0
  2 11  1  0  0  0  0
  3  5  1  0  0  0  0
  3 23  2  0  0  0  0
  4  5  1  0  0  0  0
  4 25  2  0  0  0  0
  5 50  1  0  0  0  0
  6  8  1  0  0  0  0
  6 26  1  0  0  0  0
  6 27  1  0  0  0  0
  7  9  1  0  0  0  0
  7 28  1  0  0  0  0
  7 29  1  0  0  0  0
  8 30  1  0  0  0  0
  8 31  1  0  0  0  0
  9 32  1  0  0  0  0
  9 33  1  0  0  0  0
 10 12  1  0  0  0  0
 10 34  1  0  0  0  0
 10 35  1  0  0  0  0
 11 13  1  0  0  0  0
 11 15  2  0  0  0  0
 12 14  1  0  0  0  0
 12 36  1  0  0  0  0
 12 37  1  0  0  0  0
 13 16  2  0  0  0  0
 13 17  1  0  0  0  0
 14 20  2  0  0  0  0
 14 21  1  0  0  0  0
 15 18  1  0  0  0  0
 15 38  1  0  0  0  0
 16 19  1  0  0  0  0
 16 22  1  0  0  0  0
 17 39  1  0  0  0  0
 17 40  1  0  0  0  0
 17 41  1  0  0  0  0
 18 19  2  0  0  0  0
 18 42  1  0  0  0  0
 19 43  1  0  0  0  0
 20 23  1  0  0  0  0
 20 44  1  0  0  0  0
 21 24  2  0  0  0  0
 21 45  1  0  0  0  0
 22 46  1  0  0  0  0
 22 47  1  0  0  0  0
 22 48  1  0  0  0  0
 23 25  1  0  0  0  0
 24 25  1  0  0  0  0
 24 49  1  0  0  0  0
M  END
> <PUBCHEM_COMPOUND_CID>
10042602

> <PUBCHEM_COMPOUND_CANONICALIZED>
1

> <PUBCHEM_CACTVS_COMPLEXITY>
422

> <PUBCHEM_CACTVS_HBOND_ACCEPTOR>
4

> <PUBCHEM_CACTVS_HBOND_DONOR>
1

> <PUBCHEM_CACTVS_ROTATABLE_BOND>
4

> <PUBCHEM_CACTVS_SUBSKEYS>
AAADceB7gAAAAAAAAAAAAAAAAAAAAWAAAAA8YIAAAAAAAFgB9AAAHAAYAAAADAjBHgQywLMCAACiAyRiQACCBAQhEgAYuCA4dJgIYKLAkZGUIAhggADIyAcQgIAOiAAAQAASACAQAACAACQAQAAAAAAAAA==

> <PUBCHEM_IUPAC_OPENEYE_NAME>
5-[2-[4-(2,3-dimethylphenyl)piperazin-1-yl]ethyl]-2H-benzotriazole

> <PUBCHEM_IUPAC_CAS_NAME>
5-[2-[4-(2,3-dimethylphenyl)-1-piperazinyl]ethyl]-2H-benzotriazole

> <PUBCHEM_IUPAC_NAME_MARKUP>
5-[2-[4-(2,3-dimethylphenyl)piperazin-1-yl]ethyl]-2<I>H</I>-benzotriazole

> <PUBCHEM_IUPAC_NAME>
5-[2-[4-(2,3-dimethylphenyl)piperazin-1-yl]ethyl]-2H-benzotriazole

> <PUBCHEM_IUPAC_SYSTEMATIC_NAME>
5-[2-[4-(2,3-dimethylphenyl)piperazin-1-yl]ethyl]-2H-benzotriazole

> <PUBCHEM_IUPAC_TRADITIONAL_NAME>
5-[2-[4-(2,3-dimethylphenyl)piperazino]ethyl]-2H-benzotriazole

> <PUBCHEM_IUPAC_INCHI>
InChI=1S/C20H25N5/c1-15-4-3-5-20(16(15)2)25-12-10-24(11-13-25)9-8-17-6-7-18-19(14-17)22-23-21-18/h3-7,14H,8-13H2,1-2H3,(H,21,22,23)

> <PUBCHEM_IUPAC_INCHIKEY>
IOUSMYRYFCYRJU-UHFFFAOYSA-N

> <PUBCHEM_XLOGP3_AA>
3.6

> <PUBCHEM_EXACT_MASS>
335.21099582

> <PUBCHEM_MOLECULAR_FORMULA>
C20H25N5

> <PUBCHEM_MOLECULAR_WEIGHT>
335.4

> <PUBCHEM_OPENEYE_CAN_SMILES>
CC1=C(C(=CC=C1)N2CCN(CC2)CCC3=CC4=NNN=C4C=C3)C

> <PUBCHEM_OPENEYE_ISO_SMILES>
CC1=C(C(=CC=C1)N2CCN(CC2)CCC3=CC4=NNN=C4C=C3)C

> <PUBCHEM_CACTVS_TPSA>
48

> <PUBCHEM_MONOISOTOPIC_WEIGHT>
335.21099582

> <PUBCHEM_TOTAL_CHARGE>
0

> <PUBCHEM_HEAVY_ATOM_COUNT>
25

> <PUBCHEM_ATOM_DEF_STEREO_COUNT>
0

> <PUBCHEM_ATOM_UDEF_STEREO_COUNT>
0

> <PUBCHEM_BOND_DEF_STEREO_COUNT>
0

> <PUBCHEM_BOND_UDEF_STEREO_COUNT>
0

> <PUBCHEM_ISOTOPIC_ATOM_COUNT>
0

> <PUBCHEM_COMPONENT_COUNT>
1

> <PUBCHEM_CACTVS_TAUTO_COUNT>
-1

> <PUBCHEM_COORDINATE_TYPE>
1
5
255

> <PUBCHEM_BONDANNOTATIONS>
11  13  8
11  15  8
13  16  8
14  20  8
14  21  8
15  18  8
16  19  8
18  19  8
20  23  8
21  24  8
23  25  8
24  25  8
3  23  8
3  5  8
4  25  8
4  5  8

$$$$
