45267480
  -OEChem-09292322282D

 57 61  0     1  0  0  0  0  0999 V2000
    7.8004   -4.3798    0.0000 Cl  0  0  0  0  0  0  0  0  0  0  0  0
    8.1153   -1.1160    0.0000 O   0  0  0  0  0  0  0  0  0  0  0  0
    7.5001    1.7374    0.0000 N   0  0  3  0  0  0  0  0  0  0  0  0
    9.5001    0.0054    0.0000 N   0  0  0  0  0  0  0  0  0  0  0  0
    9.8366   -1.5773    0.0000 N   0  0  0  0  0  0  0  0  0  0  0  0
    6.1012    2.2463    0.0000 C   0  0  1  0  0  0  0  0  0  0  0  0
    6.3600    3.2122    0.0000 C   0  0  2  0  0  0  0  0  0  0  0  0
    7.7590    2.7034    0.0000 C   0  0  0  0  0  0  0  0  0  0  0  0
    5.1234    4.0608    0.0000 C   0  0  0  0  0  0  0  0  0  0  0  0
    5.9894    4.5608    0.0000 C   0  0  0  0  0  0  0  0  0  0  0  0
    5.0254    1.2302    0.0000 C   0  0  0  0  0  0  0  0  0  0  0  0
    4.3414    3.1096    0.0000 C   0  0  0  0  0  0  0  0  0  0  0  0
    8.0001    0.8714    0.0000 C   0  0  0  0  0  0  0  0  0  0  0  0
    4.0406    1.4039    0.0000 C   0  0  0  0  0  0  0  0  0  0  0  0
    3.6986    2.3436    0.0000 C   0  0  0  0  0  0  0  0  0  0  0  0
    9.0001    0.8714    0.0000 C   0  0  0  0  0  0  0  0  0  0  0  0
    3.3834    0.5957    0.0000 C   0  0  0  0  0  0  0  0  0  0  0  0
    2.6757    2.5402    0.0000 C   0  0  0  0  0  0  0  0  0  0  0  0
   10.4947   -0.0991    0.0000 C   0  0  0  0  0  0  0  0  0  0  0  0
   10.7026   -1.0773    0.0000 C   0  0  0  0  0  0  0  0  0  0  0  0
    9.0934   -0.9081    0.0000 C   0  0  0  0  0  0  0  0  0  0  0  0
    2.3563    0.7687    0.0000 C   0  0  0  0  0  0  0  0  0  0  0  0
    2.0000    1.7475    0.0000 C   0  0  0  0  0  0  0  0  0  0  0  0
    9.7320   -2.5718    0.0000 C   0  0  0  0  0  0  0  0  0  0  0  0
    8.8185   -2.9785    0.0000 C   0  0  0  0  0  0  0  0  0  0  0  0
   10.5410   -3.1596    0.0000 C   0  0  0  0  0  0  0  0  0  0  0  0
    8.7140   -3.9730    0.0000 C   0  0  0  0  0  0  0  0  0  0  0  0
   10.4365   -4.1541    0.0000 C   0  0  0  0  0  0  0  0  0  0  0  0
    9.5230   -4.5608    0.0000 C   0  0  0  0  0  0  0  0  0  0  0  0
    5.8812    1.4252    0.0000 H   0  0  0  0  0  0  0  0  0  0  0  0
    6.5800    4.0332    0.0000 H   0  0  0  0  0  0  0  0  0  0  0  0
    8.3529    2.5256    0.0000 H   0  0  0  0  0  0  0  0  0  0  0  0
    7.9539    3.2919    0.0000 H   0  0  0  0  0  0  0  0  0  0  0  0
    4.8187    4.6008    0.0000 H   0  0  0  0  0  0  0  0  0  0  0  0
    4.5805    3.7614    0.0000 H   0  0  0  0  0  0  0  0  0  0  0  0
    6.5711    4.7754    0.0000 H   0  0  0  0  0  0  0  0  0  0  0  0
    5.7262    5.1222    0.0000 H   0  0  0  0  0  0  0  0  0  0  0  0
    4.7910    0.6562    0.0000 H   0  0  0  0  0  0  0  0  0  0  0  0
    5.5368    0.8797    0.0000 H   0  0  0  0  0  0  0  0  0  0  0  0
    4.4638    3.7174    0.0000 H   0  0  0  0  0  0  0  0  0  0  0  0
    3.7827    3.3784    0.0000 H   0  0  0  0  0  0  0  0  0  0  0  0
    7.4175    0.6594    0.0000 H   0  0  0  0  0  0  0  0  0  0  0  0
    8.1078    0.2608    0.0000 H   0  0  0  0  0  0  0  0  0  0  0  0
    9.5828    1.0835    0.0000 H   0  0  0  0  0  0  0  0  0  0  0  0
    8.8925    1.4820    0.0000 H   0  0  0  0  0  0  0  0  0  0  0  0
    3.6022    0.0156    0.0000 H   0  0  0  0  0  0  0  0  0  0  0  0
    2.4704    3.1253    0.0000 H   0  0  0  0  0  0  0  0  0  0  0  0
   11.1113   -0.0343    0.0000 H   0  0  0  0  0  0  0  0  0  0  0  0
   10.4947    0.5209    0.0000 H   0  0  0  0  0  0  0  0  0  0  0  0
   10.9548   -1.6437    0.0000 H   0  0  0  0  0  0  0  0  0  0  0  0
   11.2922   -0.8857    0.0000 H   0  0  0  0  0  0  0  0  0  0  0  0
    1.9596    0.2922    0.0000 H   0  0  0  0  0  0  0  0  0  0  0  0
    1.3898    1.8575    0.0000 H   0  0  0  0  0  0  0  0  0  0  0  0
    8.3169   -2.6141    0.0000 H   0  0  0  0  0  0  0  0  0  0  0  0
   11.1074   -2.9074    0.0000 H   0  0  0  0  0  0  0  0  0  0  0  0
   10.9381   -4.5185    0.0000 H   0  0  0  0  0  0  0  0  0  0  0  0
    9.4582   -5.1774    0.0000 H   0  0  0  0  0  0  0  0  0  0  0  0
  1 27  1  0  0  0  0
  2 21  2  0  0  0  0
  3  6  1  0  0  0  0
  3  8  1  0  0  0  0
  3 13  1  0  0  0  0
  4 16  1  0  0  0  0
  4 19  1  0  0  0  0
  4 21  1  0  0  0  0
  5 20  1  0  0  0  0
  5 21  1  0  0  0  0
  5 24  1  0  0  0  0
  6  9  1  0  0  0  0
  6 11  1  0  0  0  0
  6 30  1  1  0  0  0
  7  8  1  0  0  0  0
  7 10  1  0  0  0  0
  7 12  1  0  0  0  0
  7 31  1  6  0  0  0
  8 32  1  0  0  0  0
  8 33  1  0  0  0  0
  9 10  1  0  0  0  0
  9 34  1  0  0  0  0
  9 35  1  0  0  0  0
 10 36  1  0  0  0  0
 10 37  1  0  0  0  0
 11 14  1  0  0  0  0
 11 38  1  0  0  0  0
 11 39  1  0  0  0  0
 12 15  1  0  0  0  0
 12 40  1  0  0  0  0
 12 41  1  0  0  0  0
 13 16  1  0  0  0  0
 13 42  1  0  0  0  0
 13 43  1  0  0  0  0
 14 15  1  0  0  0  0
 14 17  2  0  0  0  0
 15 18  2  0  0  0  0
 16 44  1  0  0  0  0
 16 45  1  0  0  0  0
 17 22  1  0  0  0  0
 17 46  1  0  0  0  0
 18 23  1  0  0  0  0
 18 47  1  0  0  0  0
 19 20  1  0  0  0  0
 19 48  1  0  0  0  0
 19 49  1  0  0  0  0
 20 50  1  0  0  0  0
 20 51  1  0  0  0  0
 22 23  2  0  0  0  0
 22 52  1  0  0  0  0
 23 53  1  0  0  0  0
 24 25  2  0  0  0  0
 24 26  1  0  0  0  0
 25 27  1  0  0  0  0
 25 54  1  0  0  0  0
 26 28  2  0  0  0  0
 26 55  1  0  0  0  0
 27 29  2  0  0  0  0
 28 29  1  0  0  0  0
 28 56  1  0  0  0  0
 29 57  1  0  0  0  0
M  END
> <PUBCHEM_COMPOUND_CID>
45267480

> <PUBCHEM_COMPOUND_CANONICALIZED>
1

> <PUBCHEM_CACTVS_COMPLEXITY>
587

> <PUBCHEM_CACTVS_HBOND_ACCEPTOR>
2

> <PUBCHEM_CACTVS_HBOND_DONOR>
0

> <PUBCHEM_CACTVS_ROTATABLE_BOND>
4

> <PUBCHEM_CACTVS_SUBSKEYS>
AAADceB7IAAEAAAAAAAAAAAAAAAAAWAAAAA8YIAAAAAeIAABQAAAHgIAAAAADSrBGCQxwIMAAACIAiRCUACCAAAhBwAIiAAIZoiIYCLBk5GUIAhohgLIyCcQgMAOgAAAAAIQAAAAAAAABCAAAAAAAAAAAA==

> <PUBCHEM_IUPAC_OPENEYE_NAME>
1-[2-[(1R,10S)-11-azatricyclo[8.2.2.03,8]tetradeca-3,5,7-trien-11-yl]ethyl]-3-(3-chlorophenyl)imidazolidin-2-one

> <PUBCHEM_IUPAC_CAS_NAME>
1-[2-[(1R,10S)-11-azatricyclo[8.2.2.03,8]tetradeca-3,5,7-trien-11-yl]ethyl]-3-(3-chlorophenyl)-2-imidazolidinone

> <PUBCHEM_IUPAC_NAME_MARKUP>
1-[2-[(1<I>R</I>,10<I>S</I>)-11-azatricyclo[8.2.2.0<SUP>3,8</SUP>]tetradeca-3,5,7-trien-11-yl]ethyl]-3-(3-chlorophenyl)imidazolidin-2-one

> <PUBCHEM_IUPAC_NAME>
1-[2-[(1R,10S)-11-azatricyclo[8.2.2.03,8]tetradeca-3,5,7-trien-11-yl]ethyl]-3-(3-chlorophenyl)imidazolidin-2-one

> <PUBCHEM_IUPAC_SYSTEMATIC_NAME>
1-[2-[(1R,10S)-11-azatricyclo[8.2.2.03,8]tetradeca-3,5,7-trien-11-yl]ethyl]-3-(3-chlorophenyl)imidazolidin-2-one

> <PUBCHEM_IUPAC_TRADITIONAL_NAME>
1-[2-[(1R,10S)-11-azatricyclo[8.2.2.03,8]tetradeca-3,5,7-trien-11-yl]ethyl]-3-(3-chlorophenyl)-2-imidazolidinone

> <PUBCHEM_IUPAC_INCHI>
InChI=1S/C24H28ClN3O/c25-21-6-3-7-23(16-21)28-13-12-26(24(28)29)10-11-27-17-18-8-9-22(27)15-20-5-2-1-4-19(20)14-18/h1-7,16,18,22H,8-15,17H2/t18-,22+/m1/s1

> <PUBCHEM_IUPAC_INCHIKEY>
IMFBORACXDJQCD-GCJKJVERSA-N

> <PUBCHEM_XLOGP3_AA>
4.5

> <PUBCHEM_EXACT_MASS>
409.1920902

> <PUBCHEM_MOLECULAR_FORMULA>
C24H28ClN3O

> <PUBCHEM_MOLECULAR_WEIGHT>
409.9

> <PUBCHEM_OPENEYE_CAN_SMILES>
C1CC2CC3=CC=CC=C3CC1CN2CCN4CCN(C4=O)C5=CC(=CC=C5)Cl

> <PUBCHEM_OPENEYE_ISO_SMILES>
C1C[C@H]2CC3=CC=CC=C3C[C@@H]1CN2CCN4CCN(C4=O)C5=CC(=CC=C5)Cl

> <PUBCHEM_CACTVS_TPSA>
26.8

> <PUBCHEM_MONOISOTOPIC_WEIGHT>
409.1920902

> <PUBCHEM_TOTAL_CHARGE>
0

> <PUBCHEM_HEAVY_ATOM_COUNT>
29

> <PUBCHEM_ATOM_DEF_STEREO_COUNT>
2

> <PUBCHEM_ATOM_UDEF_STEREO_COUNT>
0

> <PUBCHEM_BOND_DEF_STEREO_COUNT>
0

> <PUBCHEM_BOND_UDEF_STEREO_COUNT>
0

> <PUBCHEM_ISOTOPIC_ATOM_COUNT>
0

> <PUBCHEM_COMPONENT_COUNT>
1

> <PUBCHEM_CACTVS_TAUTO_COUNT>
-1

> <PUBCHEM_COORDINATE_TYPE>
1
5
255

> <PUBCHEM_BONDANNOTATIONS>
14  15  8
14  17  8
15  18  8
17  22  8
18  23  8
22  23  8
24  25  8
24  26  8
25  27  8
26  28  8
27  29  8
28  29  8
6  30  5
7  31  6

$$$$
