11812838
  -OEChem-09292322112D

 60 64  0     0  0  0  0  0  0999 V2000
   10.5895    1.9118    0.0000 Cl  0  0  0  0  0  0  0  0  0  0  0  0
   12.3216    2.9118    0.0000 Cl  0  0  0  0  0  0  0  0  0  0  0  0
    3.6613   -1.0882    0.0000 O   0  0  0  0  0  0  0  0  0  0  0  0
    7.1254    1.9118    0.0000 N   0  0  0  0  0  0  0  0  0  0  0  0
    8.8575    2.9118    0.0000 N   0  0  0  0  0  0  0  0  0  0  0  0
    5.3934   -1.0882    0.0000 N   0  0  0  0  0  0  0  0  0  0  0  0
    7.9915    1.4118    0.0000 C   0  0  0  0  0  0  0  0  0  0  0  0
    7.1254    2.9118    0.0000 C   0  0  0  0  0  0  0  0  0  0  0  0
    8.8575    1.9118    0.0000 C   0  0  0  0  0  0  0  0  0  0  0  0
    7.9915    3.4118    0.0000 C   0  0  0  0  0  0  0  0  0  0  0  0
    6.2594    1.4118    0.0000 C   0  0  0  0  0  0  0  0  0  0  0  0
    6.2594    0.4118    0.0000 C   0  0  0  0  0  0  0  0  0  0  0  0
    4.5274   -2.5882    0.0000 C   0  0  0  0  0  0  0  0  0  0  0  0
    5.3934   -0.0882    0.0000 C   0  0  0  0  0  0  0  0  0  0  0  0
    5.3364   -3.1760    0.0000 C   0  0  0  0  0  0  0  0  0  0  0  0
    3.7183   -3.1760    0.0000 C   0  0  0  0  0  0  0  0  0  0  0  0
    9.7235    3.4118    0.0000 C   0  0  0  0  0  0  0  0  0  0  0  0
    5.0274   -4.1270    0.0000 C   0  0  0  0  0  0  0  0  0  0  0  0
    4.0274   -4.1270    0.0000 C   0  0  0  0  0  0  0  0  0  0  0  0
    4.5274   -1.5882    0.0000 C   0  0  0  0  0  0  0  0  0  0  0  0
    6.3518   -2.9438    0.0000 C   0  0  0  0  0  0  0  0  0  0  0  0
    2.7029   -2.9438    0.0000 C   0  0  0  0  0  0  0  0  0  0  0  0
    5.7123   -4.9118    0.0000 C   0  0  0  0  0  0  0  0  0  0  0  0
    3.3424   -4.9118    0.0000 C   0  0  0  0  0  0  0  0  0  0  0  0
   10.5895    2.9118    0.0000 C   0  0  0  0  0  0  0  0  0  0  0  0
    9.7235    4.4118    0.0000 C   0  0  0  0  0  0  0  0  0  0  0  0
    7.0547   -3.7124    0.0000 C   0  0  0  0  0  0  0  0  0  0  0  0
    2.0000   -3.7124    0.0000 C   0  0  0  0  0  0  0  0  0  0  0  0
    6.7328   -4.7031    0.0000 C   0  0  0  0  0  0  0  0  0  0  0  0
    2.3219   -4.7031    0.0000 C   0  0  0  0  0  0  0  0  0  0  0  0
   11.4556    3.4118    0.0000 C   0  0  0  0  0  0  0  0  0  0  0  0
   10.5895    4.9118    0.0000 C   0  0  0  0  0  0  0  0  0  0  0  0
   11.4556    4.4118    0.0000 C   0  0  0  0  0  0  0  0  0  0  0  0
    7.5929    0.9368    0.0000 H   0  0  0  0  0  0  0  0  0  0  0  0
    8.3900    0.9368    0.0000 H   0  0  0  0  0  0  0  0  0  0  0  0
    6.9134    3.4944    0.0000 H   0  0  0  0  0  0  0  0  0  0  0  0
    6.5148    2.8041    0.0000 H   0  0  0  0  0  0  0  0  0  0  0  0
    9.0695    1.3292    0.0000 H   0  0  0  0  0  0  0  0  0  0  0  0
    9.4681    2.0194    0.0000 H   0  0  0  0  0  0  0  0  0  0  0  0
    8.3900    3.8867    0.0000 H   0  0  0  0  0  0  0  0  0  0  0  0
    7.5929    3.8867    0.0000 H   0  0  0  0  0  0  0  0  0  0  0  0
    6.0474    1.9944    0.0000 H   0  0  0  0  0  0  0  0  0  0  0  0
    5.6488    1.3041    0.0000 H   0  0  0  0  0  0  0  0  0  0  0  0
    6.4715   -0.1708    0.0000 H   0  0  0  0  0  0  0  0  0  0  0  0
    6.8700    0.5195    0.0000 H   0  0  0  0  0  0  0  0  0  0  0  0
    5.0798   -2.3067    0.0000 H   0  0  0  0  0  0  0  0  0  0  0  0
    5.1813    0.4944    0.0000 H   0  0  0  0  0  0  0  0  0  0  0  0
    4.7828   -0.1959    0.0000 H   0  0  0  0  0  0  0  0  0  0  0  0
    5.9303   -1.3982    0.0000 H   0  0  0  0  0  0  0  0  0  0  0  0
    6.5365   -2.3519    0.0000 H   0  0  0  0  0  0  0  0  0  0  0  0
    2.5182   -2.3519    0.0000 H   0  0  0  0  0  0  0  0  0  0  0  0
    5.5139   -5.4992    0.0000 H   0  0  0  0  0  0  0  0  0  0  0  0
    3.5408   -5.4992    0.0000 H   0  0  0  0  0  0  0  0  0  0  0  0
    9.1866    4.7218    0.0000 H   0  0  0  0  0  0  0  0  0  0  0  0
    7.6607   -3.5812    0.0000 H   0  0  0  0  0  0  0  0  0  0  0  0
    1.3940   -3.5812    0.0000 H   0  0  0  0  0  0  0  0  0  0  0  0
    7.1459   -5.1654    0.0000 H   0  0  0  0  0  0  0  0  0  0  0  0
    1.9088   -5.1654    0.0000 H   0  0  0  0  0  0  0  0  0  0  0  0
   10.5895    5.5318    0.0000 H   0  0  0  0  0  0  0  0  0  0  0  0
   11.9925    4.7218    0.0000 H   0  0  0  0  0  0  0  0  0  0  0  0
  1 25  1  0  0  0  0
  2 31  1  0  0  0  0
  3 20  2  0  0  0  0
  4  7  1  0  0  0  0
  4  8  1  0  0  0  0
  4 11  1  0  0  0  0
  5  9  1  0  0  0  0
  5 10  1  0  0  0  0
  5 17  1  0  0  0  0
  6 14  1  0  0  0  0
  6 20  1  0  0  0  0
  6 49  1  0  0  0  0
  7  9  1  0  0  0  0
  7 34  1  0  0  0  0
  7 35  1  0  0  0  0
  8 10  1  0  0  0  0
  8 36  1  0  0  0  0
  8 37  1  0  0  0  0
  9 38  1  0  0  0  0
  9 39  1  0  0  0  0
 10 40  1  0  0  0  0
 10 41  1  0  0  0  0
 11 12  1  0  0  0  0
 11 42  1  0  0  0  0
 11 43  1  0  0  0  0
 12 14  1  0  0  0  0
 12 44  1  0  0  0  0
 12 45  1  0  0  0  0
 13 15  1  0  0  0  0
 13 16  1  0  0  0  0
 13 20  1  0  0  0  0
 13 46  1  0  0  0  0
 14 47  1  0  0  0  0
 14 48  1  0  0  0  0
 15 18  1  0  0  0  0
 15 21  2  0  0  0  0
 16 19  1  0  0  0  0
 16 22  2  0  0  0  0
 17 25  2  0  0  0  0
 17 26  1  0  0  0  0
 18 19  1  0  0  0  0
 18 23  2  0  0  0  0
 19 24  2  0  0  0  0
 21 27  1  0  0  0  0
 21 50  1  0  0  0  0
 22 28  1  0  0  0  0
 22 51  1  0  0  0  0
 23 29  1  0  0  0  0
 23 52  1  0  0  0  0
 24 30  1  0  0  0  0
 24 53  1  0  0  0  0
 25 31  1  0  0  0  0
 26 32  2  0  0  0  0
 26 54  1  0  0  0  0
 27 29  2  0  0  0  0
 27 55  1  0  0  0  0
 28 30  2  0  0  0  0
 28 56  1  0  0  0  0
 29 57  1  0  0  0  0
 30 58  1  0  0  0  0
 31 33  2  0  0  0  0
 32 33  1  0  0  0  0
 32 59  1  0  0  0  0
 33 60  1  0  0  0  0
M  END
> <PUBCHEM_COMPOUND_CID>
11812838

> <PUBCHEM_COMPOUND_CANONICALIZED>
1

> <PUBCHEM_CACTVS_COMPLEXITY>
633

> <PUBCHEM_CACTVS_HBOND_ACCEPTOR>
3

> <PUBCHEM_CACTVS_HBOND_DONOR>
1

> <PUBCHEM_CACTVS_ROTATABLE_BOND>
6

> <PUBCHEM_CACTVS_SUBSKEYS>
AAADceB7IAAGAAAAAAAAAAAAAAAAAYAAAAA8YMEAAAAAAGABUAAAHgIQAAAADQrBmCQwwIPAAACIAiVSUACCAAAhBwAIisEIZogIYDLB15HUIAhglgDIyAcYiMCOgAAAAAIQABQAAAAABCAAKQAACAAAAA==

> <PUBCHEM_IUPAC_OPENEYE_NAME>
N-[3-[4-(2,3-dichlorophenyl)piperazin-1-yl]propyl]-9H-fluorene-9-carboxamide

> <PUBCHEM_IUPAC_CAS_NAME>
N-[3-[4-(2,3-dichlorophenyl)-1-piperazinyl]propyl]-9H-fluorene-9-carboxamide

> <PUBCHEM_IUPAC_NAME_MARKUP>
<I>N</I>-[3-[4-(2,3-dichlorophenyl)piperazin-1-yl]propyl]-9<I>H</I>-fluorene-9-carboxamide

> <PUBCHEM_IUPAC_NAME>
N-[3-[4-(2,3-dichlorophenyl)piperazin-1-yl]propyl]-9H-fluorene-9-carboxamide

> <PUBCHEM_IUPAC_SYSTEMATIC_NAME>
N-[3-[4-[2,3-bis(chloranyl)phenyl]piperazin-1-yl]propyl]-9H-fluorene-9-carboxamide

> <PUBCHEM_IUPAC_TRADITIONAL_NAME>
N-[3-[4-(2,3-dichlorophenyl)piperazino]propyl]-9H-fluorene-9-carboxamide

> <PUBCHEM_IUPAC_INCHI>
InChI=1S/C27H27Cl2N3O/c28-23-11-5-12-24(26(23)29)32-17-15-31(16-18-32)14-6-13-30-27(33)25-21-9-3-1-7-19(21)20-8-2-4-10-22(20)25/h1-5,7-12,25H,6,13-18H2,(H,30,33)

> <PUBCHEM_IUPAC_INCHIKEY>
LIOYKDHOQLNTTQ-UHFFFAOYSA-N

> <PUBCHEM_XLOGP3_AA>
5.8

> <PUBCHEM_EXACT_MASS>
479.1531179

> <PUBCHEM_MOLECULAR_FORMULA>
C27H27Cl2N3O

> <PUBCHEM_MOLECULAR_WEIGHT>
480.4

> <PUBCHEM_OPENEYE_CAN_SMILES>
C1CN(CCN1CCCNC(=O)C2C3=CC=CC=C3C4=CC=CC=C24)C5=C(C(=CC=C5)Cl)Cl

> <PUBCHEM_OPENEYE_ISO_SMILES>
C1CN(CCN1CCCNC(=O)C2C3=CC=CC=C3C4=CC=CC=C24)C5=C(C(=CC=C5)Cl)Cl

> <PUBCHEM_CACTVS_TPSA>
35.6

> <PUBCHEM_MONOISOTOPIC_WEIGHT>
479.1531179

> <PUBCHEM_TOTAL_CHARGE>
0

> <PUBCHEM_HEAVY_ATOM_COUNT>
33

> <PUBCHEM_ATOM_DEF_STEREO_COUNT>
0

> <PUBCHEM_ATOM_UDEF_STEREO_COUNT>
0

> <PUBCHEM_BOND_DEF_STEREO_COUNT>
0

> <PUBCHEM_BOND_UDEF_STEREO_COUNT>
0

> <PUBCHEM_ISOTOPIC_ATOM_COUNT>
0

> <PUBCHEM_COMPONENT_COUNT>
1

> <PUBCHEM_CACTVS_TAUTO_COUNT>
-1

> <PUBCHEM_COORDINATE_TYPE>
1
5
255

> <PUBCHEM_BONDANNOTATIONS>
15  18  8
15  21  8
16  19  8
16  22  8
17  25  8
17  26  8
18  23  8
19  24  8
21  27  8
22  28  8
23  29  8
24  30  8
25  31  8
26  32  8
27  29  8
28  30  8
31  33  8
32  33  8

$$$$
