137635734
  -OEChem-09292322402D

 59 62  0     0  0  0  0  0  0999 V2000
    6.3981    2.7327    0.0000 O   0  0  0  0  0  0  0  0  0  0  0  0
    6.3981   -0.2673    0.0000 N   0  0  0  0  0  0  0  0  0  0  0  0
    8.1301   -1.2673    0.0000 N   0  0  0  0  0  0  0  0  0  0  0  0
    4.6660    2.7327    0.0000 N   0  0  0  0  0  0  0  0  0  0  0  0
    7.2641    0.2327    0.0000 C   0  0  0  0  0  0  0  0  0  0  0  0
    6.3981   -1.2673    0.0000 C   0  0  0  0  0  0  0  0  0  0  0  0
    8.1301   -0.2673    0.0000 C   0  0  0  0  0  0  0  0  0  0  0  0
    7.2641   -1.7673    0.0000 C   0  0  0  0  0  0  0  0  0  0  0  0
    5.5321    0.2327    0.0000 C   0  0  0  0  0  0  0  0  0  0  0  0
    5.5321    1.2327    0.0000 C   0  0  0  0  0  0  0  0  0  0  0  0
    8.9962   -1.7673    0.0000 C   0  0  0  0  0  0  0  0  0  0  0  0
    4.6660    1.7327    0.0000 C   0  0  0  0  0  0  0  0  0  0  0  0
    8.9962   -2.7673    0.0000 C   0  0  0  0  0  0  0  0  0  0  0  0
    3.8000    3.2327    0.0000 C   0  0  0  0  0  0  0  0  0  0  0  0
    4.6660    4.7327    0.0000 C   0  0  0  0  0  0  0  0  0  0  0  0
    3.8000    4.2327    0.0000 C   0  0  0  0  0  0  0  0  0  0  0  0
    5.5321    4.2327    0.0000 C   0  0  0  0  0  0  0  0  0  0  0  0
    5.5321    3.2327    0.0000 C   0  0  0  0  0  0  0  0  0  0  0  0
    9.8622   -3.2673    0.0000 C   0  0  0  0  0  0  0  0  0  0  0  0
    2.9061    2.6980    0.0000 C   0  0  0  0  0  0  0  0  0  0  0  0
    2.9061    4.7673    0.0000 C   0  0  0  0  0  0  0  0  0  0  0  0
    2.0000    3.2118    0.0000 C   0  0  0  0  0  0  0  0  0  0  0  0
    9.8622   -4.2673    0.0000 C   0  0  0  0  0  0  0  0  0  0  0  0
   10.7282   -2.7673    0.0000 C   0  0  0  0  0  0  0  0  0  0  0  0
    2.0000    4.2535    0.0000 C   0  0  0  0  0  0  0  0  0  0  0  0
   10.7282   -4.7673    0.0000 C   0  0  0  0  0  0  0  0  0  0  0  0
   11.5942   -3.2673    0.0000 C   0  0  0  0  0  0  0  0  0  0  0  0
   11.5942   -4.2673    0.0000 C   0  0  0  0  0  0  0  0  0  0  0  0
    7.6626    0.7076    0.0000 H   0  0  0  0  0  0  0  0  0  0  0  0
    6.8656    0.7076    0.0000 H   0  0  0  0  0  0  0  0  0  0  0  0
    5.7875   -1.1597    0.0000 H   0  0  0  0  0  0  0  0  0  0  0  0
    6.1860   -1.8499    0.0000 H   0  0  0  0  0  0  0  0  0  0  0  0
    8.7407   -0.3750    0.0000 H   0  0  0  0  0  0  0  0  0  0  0  0
    8.3422    0.3153    0.0000 H   0  0  0  0  0  0  0  0  0  0  0  0
    6.8656   -2.2423    0.0000 H   0  0  0  0  0  0  0  0  0  0  0  0
    7.6626   -2.2423    0.0000 H   0  0  0  0  0  0  0  0  0  0  0  0
    4.9215    0.3403    0.0000 H   0  0  0  0  0  0  0  0  0  0  0  0
    5.3200   -0.3499    0.0000 H   0  0  0  0  0  0  0  0  0  0  0  0
    6.1426    1.1250    0.0000 H   0  0  0  0  0  0  0  0  0  0  0  0
    5.7441    1.8153    0.0000 H   0  0  0  0  0  0  0  0  0  0  0  0
    9.6067   -1.8750    0.0000 H   0  0  0  0  0  0  0  0  0  0  0  0
    9.2082   -1.1847    0.0000 H   0  0  0  0  0  0  0  0  0  0  0  0
    4.0555    1.8403    0.0000 H   0  0  0  0  0  0  0  0  0  0  0  0
    4.4540    1.1501    0.0000 H   0  0  0  0  0  0  0  0  0  0  0  0
    8.3856   -2.6597    0.0000 H   0  0  0  0  0  0  0  0  0  0  0  0
    8.7841   -3.3499    0.0000 H   0  0  0  0  0  0  0  0  0  0  0  0
    5.0646    5.2076    0.0000 H   0  0  0  0  0  0  0  0  0  0  0  0
    4.2675    5.2076    0.0000 H   0  0  0  0  0  0  0  0  0  0  0  0
    6.1426    4.1250    0.0000 H   0  0  0  0  0  0  0  0  0  0  0  0
    5.7441    4.8153    0.0000 H   0  0  0  0  0  0  0  0  0  0  0  0
    2.9132    2.0780    0.0000 H   0  0  0  0  0  0  0  0  0  0  0  0
    2.9132    5.3873    0.0000 H   0  0  0  0  0  0  0  0  0  0  0  0
    1.4643    2.8998    0.0000 H   0  0  0  0  0  0  0  0  0  0  0  0
    9.3252   -4.5773    0.0000 H   0  0  0  0  0  0  0  0  0  0  0  0
   10.7282   -2.1473    0.0000 H   0  0  0  0  0  0  0  0  0  0  0  0
    1.4643    4.5656    0.0000 H   0  0  0  0  0  0  0  0  0  0  0  0
   10.7282   -5.3873    0.0000 H   0  0  0  0  0  0  0  0  0  0  0  0
   12.1312   -2.9573    0.0000 H   0  0  0  0  0  0  0  0  0  0  0  0
   12.1312   -4.5773    0.0000 H   0  0  0  0  0  0  0  0  0  0  0  0
  1 18  2  0  0  0  0
  2  5  1  0  0  0  0
  2  6  1  0  0  0  0
  2  9  1  0  0  0  0
  3  7  1  0  0  0  0
  3  8  1  0  0  0  0
  3 11  1  0  0  0  0
  4 12  1  0  0  0  0
  4 14  1  0  0  0  0
  4 18  1  0  0  0  0
  5  7  1  0  0  0  0
  5 29  1  0  0  0  0
  5 30  1  0  0  0  0
  6  8  1  0  0  0  0
  6 31  1  0  0  0  0
  6 32  1  0  0  0  0
  7 33  1  0  0  0  0
  7 34  1  0  0  0  0
  8 35  1  0  0  0  0
  8 36  1  0  0  0  0
  9 10  1  0  0  0  0
  9 37  1  0  0  0  0
  9 38  1  0  0  0  0
 10 12  1  0  0  0  0
 10 39  1  0  0  0  0
 10 40  1  0  0  0  0
 11 13  1  0  0  0  0
 11 41  1  0  0  0  0
 11 42  1  0  0  0  0
 12 43  1  0  0  0  0
 12 44  1  0  0  0  0
 13 19  1  0  0  0  0
 13 45  1  0  0  0  0
 13 46  1  0  0  0  0
 14 16  1  0  0  0  0
 14 20  2  0  0  0  0
 15 16  1  0  0  0  0
 15 17  1  0  0  0  0
 15 47  1  0  0  0  0
 15 48  1  0  0  0  0
 16 21  2  0  0  0  0
 17 18  1  0  0  0  0
 17 49  1  0  0  0  0
 17 50  1  0  0  0  0
 19 23  2  0  0  0  0
 19 24  1  0  0  0  0
 20 22  1  0  0  0  0
 20 51  1  0  0  0  0
 21 25  1  0  0  0  0
 21 52  1  0  0  0  0
 22 25  2  0  0  0  0
 22 53  1  0  0  0  0
 23 26  1  0  0  0  0
 23 54  1  0  0  0  0
 24 27  2  0  0  0  0
 24 55  1  0  0  0  0
 25 56  1  0  0  0  0
 26 28  2  0  0  0  0
 26 57  1  0  0  0  0
 27 28  1  0  0  0  0
 27 58  1  0  0  0  0
 28 59  1  0  0  0  0
M  END
> <PUBCHEM_COMPOUND_CID>
137635734

> <PUBCHEM_COMPOUND_CANONICALIZED>
1

> <PUBCHEM_CACTVS_COMPLEXITY>
482

> <PUBCHEM_CACTVS_HBOND_ACCEPTOR>
3

> <PUBCHEM_CACTVS_HBOND_DONOR>
0

> <PUBCHEM_CACTVS_ROTATABLE_BOND>
7

> <PUBCHEM_CACTVS_SUBSKEYS>
AAADceB7IAAAAAAAAAAAAAAAAAAAAAAAAAA8eIEAAAAAAACxQAAAHgAAAAAADAjBmAQwwIMAAACIAiVSUACCAAAhAgAIiAEIZIgIYDLA0ZGUIAhghgDIyAcYiYCeAAAAAAACAAAAAAAAAAQAAAAAAAAAAA==

> <PUBCHEM_IUPAC_OPENEYE_NAME>
1-[3-[4-(2-phenylethyl)piperazin-1-yl]propyl]-3,4-dihydroquinolin-2-one

> <PUBCHEM_IUPAC_CAS_NAME>
1-[3-[4-(2-phenylethyl)-1-piperazinyl]propyl]-3,4-dihydroquinolin-2-one

> <PUBCHEM_IUPAC_NAME_MARKUP>
1-[3-[4-(2-phenylethyl)piperazin-1-yl]propyl]-3,4-dihydroquinolin-2-one

> <PUBCHEM_IUPAC_NAME>
1-[3-[4-(2-phenylethyl)piperazin-1-yl]propyl]-3,4-dihydroquinolin-2-one

> <PUBCHEM_IUPAC_SYSTEMATIC_NAME>
1-[3-[4-(2-phenylethyl)piperazin-1-yl]propyl]-3,4-dihydroquinolin-2-one

> <PUBCHEM_IUPAC_TRADITIONAL_NAME>
1-[3-(4-phenethylpiperazino)propyl]-3,4-dihydrocarbostyril

> <PUBCHEM_IUPAC_INCHI>
InChI=1S/C24H31N3O/c28-24-12-11-22-9-4-5-10-23(22)27(24)15-6-14-25-17-19-26(20-18-25)16-13-21-7-2-1-3-8-21/h1-5,7-10H,6,11-20H2

> <PUBCHEM_IUPAC_INCHIKEY>
YFKULYYWSYOHDZ-UHFFFAOYSA-N

> <PUBCHEM_XLOGP3_AA>
3.4

> <PUBCHEM_EXACT_MASS>
377.246712621

> <PUBCHEM_MOLECULAR_FORMULA>
C24H31N3O

> <PUBCHEM_MOLECULAR_WEIGHT>
377.5

> <PUBCHEM_OPENEYE_CAN_SMILES>
C1CC(=O)N(C2=CC=CC=C21)CCCN3CCN(CC3)CCC4=CC=CC=C4

> <PUBCHEM_OPENEYE_ISO_SMILES>
C1CC(=O)N(C2=CC=CC=C21)CCCN3CCN(CC3)CCC4=CC=CC=C4

> <PUBCHEM_CACTVS_TPSA>
26.8

> <PUBCHEM_MONOISOTOPIC_WEIGHT>
377.246712621

> <PUBCHEM_TOTAL_CHARGE>
0

> <PUBCHEM_HEAVY_ATOM_COUNT>
28

> <PUBCHEM_ATOM_DEF_STEREO_COUNT>
0

> <PUBCHEM_ATOM_UDEF_STEREO_COUNT>
0

> <PUBCHEM_BOND_DEF_STEREO_COUNT>
0

> <PUBCHEM_BOND_UDEF_STEREO_COUNT>
0

> <PUBCHEM_ISOTOPIC_ATOM_COUNT>
0

> <PUBCHEM_COMPONENT_COUNT>
1

> <PUBCHEM_CACTVS_TAUTO_COUNT>
-1

> <PUBCHEM_COORDINATE_TYPE>
1
5
255

> <PUBCHEM_BONDANNOTATIONS>
14  16  8
14  20  8
16  21  8
19  23  8
19  24  8
20  22  8
21  25  8
22  25  8
23  26  8
24  27  8
26  28  8
27  28  8

$$$$
