118719926
  -OEChem-09292322392D

 60 62  0     0  0  0  0  0  0999 V2000
    6.3981    3.3877    0.0000 O   0  0  0  0  0  0  0  0  0  0  0  0
   10.7282   -5.1123    0.0000 O   0  0  0  0  0  0  0  0  0  0  0  0
    6.3981    0.3877    0.0000 N   0  0  0  0  0  0  0  0  0  0  0  0
    4.6660    3.3877    0.0000 N   0  0  0  0  0  0  0  0  0  0  0  0
    8.1301   -0.6123    0.0000 C   0  0  0  0  0  0  0  0  0  0  0  0
    8.1301    0.3877    0.0000 C   0  0  0  0  0  0  0  0  0  0  0  0
    7.2641   -1.1123    0.0000 C   0  0  0  0  0  0  0  0  0  0  0  0
    7.2641    0.8877    0.0000 C   0  0  0  0  0  0  0  0  0  0  0  0
    6.3981   -0.6123    0.0000 C   0  0  0  0  0  0  0  0  0  0  0  0
    8.9962   -1.1123    0.0000 C   0  0  0  0  0  0  0  0  0  0  0  0
    5.5321    0.8877    0.0000 C   0  0  0  0  0  0  0  0  0  0  0  0
    8.9962   -2.1123    0.0000 C   0  0  0  0  0  0  0  0  0  0  0  0
    5.5321    1.8877    0.0000 C   0  0  0  0  0  0  0  0  0  0  0  0
    9.8622   -2.6123    0.0000 C   0  0  0  0  0  0  0  0  0  0  0  0
    4.6660    2.3877    0.0000 C   0  0  0  0  0  0  0  0  0  0  0  0
    9.8622   -3.6123    0.0000 C   0  0  0  0  0  0  0  0  0  0  0  0
    3.8000    3.8877    0.0000 C   0  0  0  0  0  0  0  0  0  0  0  0
    5.5321    3.8877    0.0000 C   0  0  0  0  0  0  0  0  0  0  0  0
    5.5321    4.8877    0.0000 C   0  0  0  0  0  0  0  0  0  0  0  0
    3.8000    4.8877    0.0000 C   0  0  0  0  0  0  0  0  0  0  0  0
    4.6660    5.3877    0.0000 C   0  0  0  0  0  0  0  0  0  0  0  0
   10.7282   -4.1123    0.0000 C   0  0  0  0  0  0  0  0  0  0  0  0
    2.9061    3.3530    0.0000 C   0  0  0  0  0  0  0  0  0  0  0  0
    2.9061    5.4223    0.0000 C   0  0  0  0  0  0  0  0  0  0  0  0
    2.0000    3.8668    0.0000 C   0  0  0  0  0  0  0  0  0  0  0  0
    2.0000    4.9085    0.0000 C   0  0  0  0  0  0  0  0  0  0  0  0
    8.1301   -1.2323    0.0000 H   0  0  0  0  0  0  0  0  0  0  0  0
    8.7407    0.2800    0.0000 H   0  0  0  0  0  0  0  0  0  0  0  0
    8.3422    0.9703    0.0000 H   0  0  0  0  0  0  0  0  0  0  0  0
    6.8656   -1.5873    0.0000 H   0  0  0  0  0  0  0  0  0  0  0  0
    7.6626   -1.5873    0.0000 H   0  0  0  0  0  0  0  0  0  0  0  0
    7.6626    1.3626    0.0000 H   0  0  0  0  0  0  0  0  0  0  0  0
    6.8656    1.3626    0.0000 H   0  0  0  0  0  0  0  0  0  0  0  0
    5.7875   -0.5047    0.0000 H   0  0  0  0  0  0  0  0  0  0  0  0
    6.1860   -1.1949    0.0000 H   0  0  0  0  0  0  0  0  0  0  0  0
    9.6067   -1.2200    0.0000 H   0  0  0  0  0  0  0  0  0  0  0  0
    9.2082   -0.5297    0.0000 H   0  0  0  0  0  0  0  0  0  0  0  0
    4.9215    0.9953    0.0000 H   0  0  0  0  0  0  0  0  0  0  0  0
    5.3200    0.3051    0.0000 H   0  0  0  0  0  0  0  0  0  0  0  0
    8.3856   -2.0047    0.0000 H   0  0  0  0  0  0  0  0  0  0  0  0
    8.7841   -2.6949    0.0000 H   0  0  0  0  0  0  0  0  0  0  0  0
    6.1426    1.7800    0.0000 H   0  0  0  0  0  0  0  0  0  0  0  0
    5.7441    2.4703    0.0000 H   0  0  0  0  0  0  0  0  0  0  0  0
   10.4728   -2.7200    0.0000 H   0  0  0  0  0  0  0  0  0  0  0  0
   10.0742   -2.0297    0.0000 H   0  0  0  0  0  0  0  0  0  0  0  0
    4.0555    2.4953    0.0000 H   0  0  0  0  0  0  0  0  0  0  0  0
    4.4540    1.8051    0.0000 H   0  0  0  0  0  0  0  0  0  0  0  0
    9.2516   -3.5047    0.0000 H   0  0  0  0  0  0  0  0  0  0  0  0
    9.6501   -4.1949    0.0000 H   0  0  0  0  0  0  0  0  0  0  0  0
    6.1426    4.7800    0.0000 H   0  0  0  0  0  0  0  0  0  0  0  0
    5.7441    5.4703    0.0000 H   0  0  0  0  0  0  0  0  0  0  0  0
    5.0646    5.8626    0.0000 H   0  0  0  0  0  0  0  0  0  0  0  0
    4.2675    5.8626    0.0000 H   0  0  0  0  0  0  0  0  0  0  0  0
   11.3388   -4.2200    0.0000 H   0  0  0  0  0  0  0  0  0  0  0  0
   10.9403   -3.5297    0.0000 H   0  0  0  0  0  0  0  0  0  0  0  0
    2.9132    2.7330    0.0000 H   0  0  0  0  0  0  0  0  0  0  0  0
    2.9132    6.0423    0.0000 H   0  0  0  0  0  0  0  0  0  0  0  0
    1.4643    3.5548    0.0000 H   0  0  0  0  0  0  0  0  0  0  0  0
    1.4643    5.2206    0.0000 H   0  0  0  0  0  0  0  0  0  0  0  0
   11.2651   -5.4223    0.0000 H   0  0  0  0  0  0  0  0  0  0  0  0
  1 18  2  0  0  0  0
  2 22  1  0  0  0  0
  2 60  1  0  0  0  0
  3  8  1  0  0  0  0
  3  9  1  0  0  0  0
  3 11  1  0  0  0  0
  4 15  1  0  0  0  0
  4 17  1  0  0  0  0
  4 18  1  0  0  0  0
  5  6  1  0  0  0  0
  5  7  1  0  0  0  0
  5 10  1  0  0  0  0
  5 27  1  0  0  0  0
  6  8  1  0  0  0  0
  6 28  1  0  0  0  0
  6 29  1  0  0  0  0
  7  9  1  0  0  0  0
  7 30  1  0  0  0  0
  7 31  1  0  0  0  0
  8 32  1  0  0  0  0
  8 33  1  0  0  0  0
  9 34  1  0  0  0  0
  9 35  1  0  0  0  0
 10 12  1  0  0  0  0
 10 36  1  0  0  0  0
 10 37  1  0  0  0  0
 11 13  1  0  0  0  0
 11 38  1  0  0  0  0
 11 39  1  0  0  0  0
 12 14  1  0  0  0  0
 12 40  1  0  0  0  0
 12 41  1  0  0  0  0
 13 15  1  0  0  0  0
 13 42  1  0  0  0  0
 13 43  1  0  0  0  0
 14 16  1  0  0  0  0
 14 44  1  0  0  0  0
 14 45  1  0  0  0  0
 15 46  1  0  0  0  0
 15 47  1  0  0  0  0
 16 22  1  0  0  0  0
 16 48  1  0  0  0  0
 16 49  1  0  0  0  0
 17 20  1  0  0  0  0
 17 23  2  0  0  0  0
 18 19  1  0  0  0  0
 19 21  1  0  0  0  0
 19 50  1  0  0  0  0
 19 51  1  0  0  0  0
 20 21  1  0  0  0  0
 20 24  2  0  0  0  0
 21 52  1  0  0  0  0
 21 53  1  0  0  0  0
 22 54  1  0  0  0  0
 22 55  1  0  0  0  0
 23 25  1  0  0  0  0
 23 56  1  0  0  0  0
 24 26  1  0  0  0  0
 24 57  1  0  0  0  0
 25 26  2  0  0  0  0
 25 58  1  0  0  0  0
 26 59  1  0  0  0  0
M  END
> <PUBCHEM_COMPOUND_CID>
118719926

> <PUBCHEM_COMPOUND_CANONICALIZED>
1

> <PUBCHEM_CACTVS_COMPLEXITY>
420

> <PUBCHEM_CACTVS_HBOND_ACCEPTOR>
3

> <PUBCHEM_CACTVS_HBOND_DONOR>
1

> <PUBCHEM_CACTVS_ROTATABLE_BOND>
9

> <PUBCHEM_CACTVS_SUBSKEYS>
AAADcfB7MAAAAAAAAAAAAAAAAAAAAAAAAAA8WIAAAAAAAACxAAAAHgAACAAADQjhmAYwwIMAAgCIAiVSUACCAAAhAgAIiAEIZIgIMDLA0ZGEYAhkhgDIyAeYyeCeAAAAAAACAAAAAAAAAAQAAAAAAAAAAA==

> <PUBCHEM_IUPAC_OPENEYE_NAME>
1-[3-[4-(5-hydroxypentyl)-1-piperidyl]propyl]-3,4-dihydroquinolin-2-one

> <PUBCHEM_IUPAC_CAS_NAME>
1-[3-[4-(5-hydroxypentyl)-1-piperidinyl]propyl]-3,4-dihydroquinolin-2-one

> <PUBCHEM_IUPAC_NAME_MARKUP>
1-[3-[4-(5-hydroxypentyl)piperidin-1-yl]propyl]-3,4-dihydroquinolin-2-one

> <PUBCHEM_IUPAC_NAME>
1-[3-[4-(5-hydroxypentyl)piperidin-1-yl]propyl]-3,4-dihydroquinolin-2-one

> <PUBCHEM_IUPAC_SYSTEMATIC_NAME>
1-[3-[4-(5-oxidanylpentyl)piperidin-1-yl]propyl]-3,4-dihydroquinolin-2-one

> <PUBCHEM_IUPAC_TRADITIONAL_NAME>
1-[3-[4-(5-hydroxypentyl)piperidino]propyl]-3,4-dihydrocarbostyril

> <PUBCHEM_IUPAC_INCHI>
InChI=1S/C22H34N2O2/c25-18-5-1-2-7-19-12-16-23(17-13-19)14-6-15-24-21-9-4-3-8-20(21)10-11-22(24)26/h3-4,8-9,19,25H,1-2,5-7,10-18H2

> <PUBCHEM_IUPAC_INCHIKEY>
QKTOQRPNKITPLN-UHFFFAOYSA-N

> <PUBCHEM_XLOGP3_AA>
3.5

> <PUBCHEM_EXACT_MASS>
358.262028332

> <PUBCHEM_MOLECULAR_FORMULA>
C22H34N2O2

> <PUBCHEM_MOLECULAR_WEIGHT>
358.5

> <PUBCHEM_OPENEYE_CAN_SMILES>
C1CN(CCC1CCCCCO)CCCN2C(=O)CCC3=CC=CC=C32

> <PUBCHEM_OPENEYE_ISO_SMILES>
C1CN(CCC1CCCCCO)CCCN2C(=O)CCC3=CC=CC=C32

> <PUBCHEM_CACTVS_TPSA>
43.8

> <PUBCHEM_MONOISOTOPIC_WEIGHT>
358.262028332

> <PUBCHEM_TOTAL_CHARGE>
0

> <PUBCHEM_HEAVY_ATOM_COUNT>
26

> <PUBCHEM_ATOM_DEF_STEREO_COUNT>
0

> <PUBCHEM_ATOM_UDEF_STEREO_COUNT>
0

> <PUBCHEM_BOND_DEF_STEREO_COUNT>
0

> <PUBCHEM_BOND_UDEF_STEREO_COUNT>
0

> <PUBCHEM_ISOTOPIC_ATOM_COUNT>
0

> <PUBCHEM_COMPONENT_COUNT>
1

> <PUBCHEM_CACTVS_TAUTO_COUNT>
-1

> <PUBCHEM_COORDINATE_TYPE>
1
5
255

> <PUBCHEM_BONDANNOTATIONS>
17  20  8
17  23  8
20  24  8
23  25  8
24  26  8
25  26  8

$$$$
