138672083
  -OEChem-09292322452D

 72 76  0     1  0  0  0  0  0999 V2000
    4.3291    4.7192    0.0000 S   0  0  0  0  0  0  0  0  0  0  0  0
    2.3818    8.3091    0.0000 F   0  0  0  0  0  0  0  0  0  0  0  0
    3.7435    7.9273    0.0000 F   0  0  0  0  0  0  0  0  0  0  0  0
    7.0383   -3.7845    0.0000 O   0  0  0  0  0  0  0  0  0  0  0  0
    2.8517    5.7054    0.0000 O   0  0  0  0  0  0  0  0  0  0  0  0
    7.9149   -8.3091    0.0000 O   0  0  0  0  0  0  0  0  0  0  0  0
    4.5040    1.7451    0.0000 N   0  0  3  0  0  0  0  0  0  0  0  0
    5.3063   -3.7645    0.0000 N   0  0  0  0  0  0  0  0  0  0  0  0
    2.9261    3.9306    0.0000 N   0  0  0  0  0  0  0  0  0  0  0  0
    8.7810   -6.8091    0.0000 N   0  0  0  0  0  0  0  0  0  0  0  0
    5.3410   -0.7647    0.0000 C   0  0  0  0  0  0  0  0  0  0  0  0
    6.2012   -1.2747    0.0000 C   0  0  0  0  0  0  0  0  0  0  0  0
    4.4693   -1.2547    0.0000 C   0  0  0  0  0  0  0  0  0  0  0  0
    5.3179   -2.7646    0.0000 C   0  0  0  0  0  0  0  0  0  0  0  0
    6.1896   -2.2746    0.0000 C   0  0  0  0  0  0  0  0  0  0  0  0
    4.4577   -2.2546    0.0000 C   0  0  0  0  0  0  0  0  0  0  0  0
    5.3526    0.2352    0.0000 C   0  0  0  0  0  0  0  0  0  0  0  0
    4.4924    0.7452    0.0000 C   0  0  0  0  0  0  0  0  0  0  0  0
    5.3757    2.2351    0.0000 C   0  0  0  0  0  0  0  0  0  0  0  0
    3.6438    2.2551    0.0000 C   0  0  0  0  0  0  0  0  0  0  0  0
    5.3873    3.2350    0.0000 C   0  0  0  0  0  0  0  0  0  0  0  0
    3.6553    3.2551    0.0000 C   0  0  0  0  0  0  0  0  0  0  0  0
    6.1665   -4.2745    0.0000 C   0  0  0  0  0  0  0  0  0  0  0  0
    4.5271    3.7450    0.0000 C   0  0  0  0  0  0  0  0  0  0  0  0
    6.1550   -5.2744    0.0000 C   0  0  0  0  0  0  0  0  0  0  0  0
    3.3417    4.8336    0.0000 C   0  0  0  0  0  0  0  0  0  0  0  0
    7.0489   -5.8091    0.0000 C   0  0  0  0  0  0  0  0  0  0  0  0
    5.2489   -5.7883    0.0000 C   0  0  0  0  0  0  0  0  0  0  0  0
    7.0489   -6.8091    0.0000 C   0  0  0  0  0  0  0  0  0  0  0  0
    7.9149   -5.3091    0.0000 C   0  0  0  0  0  0  0  0  0  0  0  0
    5.2489   -6.8299    0.0000 C   0  0  0  0  0  0  0  0  0  0  0  0
    6.1550   -7.3438    0.0000 C   0  0  0  0  0  0  0  0  0  0  0  0
    7.9149   -7.3091    0.0000 C   0  0  0  0  0  0  0  0  0  0  0  0
    8.7810   -5.8091    0.0000 C   0  0  0  0  0  0  0  0  0  0  0  0
    3.3617    6.5656    0.0000 C   0  0  0  0  0  0  0  0  0  0  0  0
    2.8718    7.4373    0.0000 C   0  0  0  0  0  0  0  0  0  0  0  0
    9.6470   -7.3091    0.0000 C   0  0  0  0  0  0  0  0  0  0  0  0
    2.0000    6.9474    0.0000 C   0  0  0  0  0  0  0  0  0  0  0  0
    4.8077   -0.4485    0.0000 H   0  0  0  0  0  0  0  0  0  0  0  0
    6.8105   -1.3894    0.0000 H   0  0  0  0  0  0  0  0  0  0  0  0
    6.4200   -0.6946    0.0000 H   0  0  0  0  0  0  0  0  0  0  0  0
    4.2640   -0.6696    0.0000 H   0  0  0  0  0  0  0  0  0  0  0  0
    3.8575   -1.3553    0.0000 H   0  0  0  0  0  0  0  0  0  0  0  0
    4.7774   -3.0684    0.0000 H   0  0  0  0  0  0  0  0  0  0  0  0
    6.3950   -2.8596    0.0000 H   0  0  0  0  0  0  0  0  0  0  0  0
    6.8014   -2.1740    0.0000 H   0  0  0  0  0  0  0  0  0  0  0  0
    3.8484   -2.1399    0.0000 H   0  0  0  0  0  0  0  0  0  0  0  0
    4.2389   -2.8347    0.0000 H   0  0  0  0  0  0  0  0  0  0  0  0
    5.9619    0.1205    0.0000 H   0  0  0  0  0  0  0  0  0  0  0  0
    5.5714    0.8153    0.0000 H   0  0  0  0  0  0  0  0  0  0  0  0
    3.8831    0.8599    0.0000 H   0  0  0  0  0  0  0  0  0  0  0  0
    4.2736    0.1651    0.0000 H   0  0  0  0  0  0  0  0  0  0  0  0
    4.7658   -4.0683    0.0000 H   0  0  0  0  0  0  0  0  0  0  0  0
    5.5810    1.6501    0.0000 H   0  0  0  0  0  0  0  0  0  0  0  0
    5.9875    2.3357    0.0000 H   0  0  0  0  0  0  0  0  0  0  0  0
    3.0345    2.3698    0.0000 H   0  0  0  0  0  0  0  0  0  0  0  0
    3.4250    1.6750    0.0000 H   0  0  0  0  0  0  0  0  0  0  0  0
    5.9966    3.1203    0.0000 H   0  0  0  0  0  0  0  0  0  0  0  0
    5.6060    3.8151    0.0000 H   0  0  0  0  0  0  0  0  0  0  0  0
    4.7132   -5.4762    0.0000 H   0  0  0  0  0  0  0  0  0  0  0  0
    7.9149   -4.6891    0.0000 H   0  0  0  0  0  0  0  0  0  0  0  0
    4.7132   -7.1420    0.0000 H   0  0  0  0  0  0  0  0  0  0  0  0
    6.1621   -7.9637    0.0000 H   0  0  0  0  0  0  0  0  0  0  0  0
    9.3179   -5.4991    0.0000 H   0  0  0  0  0  0  0  0  0  0  0  0
    3.8320    6.1616    0.0000 H   0  0  0  0  0  0  0  0  0  0  0  0
    3.8412    6.9586    0.0000 H   0  0  0  0  0  0  0  0  0  0  0  0
    9.3370   -7.8460    0.0000 H   0  0  0  0  0  0  0  0  0  0  0  0
   10.1839   -7.6191    0.0000 H   0  0  0  0  0  0  0  0  0  0  0  0
    9.9570   -6.7722    0.0000 H   0  0  0  0  0  0  0  0  0  0  0  0
    1.6962    7.4879    0.0000 H   0  0  0  0  0  0  0  0  0  0  0  0
    1.4595    6.6436    0.0000 H   0  0  0  0  0  0  0  0  0  0  0  0
    2.3038    6.4069    0.0000 H   0  0  0  0  0  0  0  0  0  0  0  0
  1 24  1  0  0  0  0
  1 26  1  0  0  0  0
  2 36  1  0  0  0  0
  3 36  1  0  0  0  0
  4 23  2  0  0  0  0
  5 26  1  0  0  0  0
  5 35  1  0  0  0  0
  6 33  2  0  0  0  0
  7 18  1  0  0  0  0
  7 19  1  0  0  0  0
  7 20  1  0  0  0  0
  8 14  1  0  0  0  0
  8 23  1  0  0  0  0
  8 53  1  0  0  0  0
  9 22  1  0  0  0  0
  9 26  2  0  0  0  0
 10 33  1  0  0  0  0
 10 34  1  0  0  0  0
 10 37  1  0  0  0  0
 11 12  1  0  0  0  0
 11 13  1  0  0  0  0
 11 17  1  0  0  0  0
 11 39  1  0  0  0  0
 12 15  1  0  0  0  0
 12 40  1  0  0  0  0
 12 41  1  0  0  0  0
 13 16  1  0  0  0  0
 13 42  1  0  0  0  0
 13 43  1  0  0  0  0
 14 15  1  0  0  0  0
 14 16  1  0  0  0  0
 14 44  1  0  0  0  0
 15 45  1  0  0  0  0
 15 46  1  0  0  0  0
 16 47  1  0  0  0  0
 16 48  1  0  0  0  0
 17 18  1  0  0  0  0
 17 49  1  0  0  0  0
 17 50  1  0  0  0  0
 18 51  1  0  0  0  0
 18 52  1  0  0  0  0
 19 21  1  0  0  0  0
 19 54  1  0  0  0  0
 19 55  1  0  0  0  0
 20 22  1  0  0  0  0
 20 56  1  0  0  0  0
 20 57  1  0  0  0  0
 21 24  1  0  0  0  0
 21 58  1  0  0  0  0
 21 59  1  0  0  0  0
 22 24  2  0  0  0  0
 23 25  1  0  0  0  0
 25 27  1  0  0  0  0
 25 28  2  0  0  0  0
 27 29  2  0  0  0  0
 27 30  1  0  0  0  0
 28 31  1  0  0  0  0
 28 60  1  0  0  0  0
 29 32  1  0  0  0  0
 29 33  1  0  0  0  0
 30 34  2  0  0  0  0
 30 61  1  0  0  0  0
 31 32  2  0  0  0  0
 31 62  1  0  0  0  0
 32 63  1  0  0  0  0
 34 64  1  0  0  0  0
 35 36  1  0  0  0  0
 35 65  1  0  0  0  0
 35 66  1  0  0  0  0
 36 38  1  0  0  0  0
 37 67  1  0  0  0  0
 37 68  1  0  0  0  0
 37 69  1  0  0  0  0
 38 70  1  0  0  0  0
 38 71  1  0  0  0  0
 38 72  1  0  0  0  0
M  END
> <PUBCHEM_COMPOUND_CID>
138672083

> <PUBCHEM_COMPOUND_CANONICALIZED>
1

> <PUBCHEM_CACTVS_COMPLEXITY>
884

> <PUBCHEM_CACTVS_HBOND_ACCEPTOR>
8

> <PUBCHEM_CACTVS_HBOND_DONOR>
1

> <PUBCHEM_CACTVS_ROTATABLE_BOND>
8

> <PUBCHEM_CACTVS_SUBSKEYS>
AAADcfB7sYBAAAAAAAAAAAAAAAAAAWAAAAA8YIEAAAAAAFiBwAAAHwQQAAAADSjh3hYygZPIFAisAyV2VACC8KBlCjgImJU4RMgIYDLglRGcIQhglgDIyYcYi8COgAACAAAQAAAQAAQAACAAAAAAAAAAAA==

> <PUBCHEM_IUPAC_OPENEYE_NAME>
N-[4-[2-[2-(2,2-difluoropropoxy)-6,7-dihydro-4H-thiazolo[4,5-c]pyridin-5-yl]ethyl]cyclohexyl]-2-methyl-1-oxo-isoquinoline-5-carboxamide

> <PUBCHEM_IUPAC_CAS_NAME>
N-[4-[2-[2-(2,2-difluoropropoxy)-6,7-dihydro-4H-thiazolo[4,5-c]pyridin-5-yl]ethyl]cyclohexyl]-2-methyl-1-oxo-5-isoquinolinecarboxamide

> <PUBCHEM_IUPAC_NAME_MARKUP>
<I>N</I>-[4-[2-[2-(2,2-difluoropropoxy)-6,7-dihydro-4<I>H</I>-[1,3]thiazolo[4,5-c]pyridin-5-yl]ethyl]cyclohexyl]-2-methyl-1-oxoisoquinoline-5-carboxamide

> <PUBCHEM_IUPAC_NAME>
N-[4-[2-[2-(2,2-difluoropropoxy)-6,7-dihydro-4H-[1,3]thiazolo[4,5-c]pyridin-5-yl]ethyl]cyclohexyl]-2-methyl-1-oxoisoquinoline-5-carboxamide

> <PUBCHEM_IUPAC_SYSTEMATIC_NAME>
N-[4-[2-[2-[2,2-bis(fluoranyl)propoxy]-6,7-dihydro-4H-[1,3]thiazolo[4,5-c]pyridin-5-yl]ethyl]cyclohexyl]-2-methyl-1-oxidanylidene-isoquinoline-5-carboxamide

> <PUBCHEM_IUPAC_TRADITIONAL_NAME>
N-[4-[2-[2-(2,2-difluoropropoxy)-6,7-dihydro-4H-thiazolo[4,5-c]pyridin-5-yl]ethyl]cyclohexyl]-1-keto-2-methyl-isoquinoline-5-carboxamide

> <PUBCHEM_IUPAC_INCHI>
InChI=1S/C28H34F2N4O3S/c1-28(29,30)17-37-27-32-23-16-34(15-12-24(23)38-27)14-10-18-6-8-19(9-7-18)31-25(35)21-4-3-5-22-20(21)11-13-33(2)26(22)36/h3-5,11,13,18-19H,6-10,12,14-17H2,1-2H3,(H,31,35)

> <PUBCHEM_IUPAC_INCHIKEY>
BVCCYDFGXLDTIH-UHFFFAOYSA-N

> <PUBCHEM_XLOGP3_AA>
4.7

> <PUBCHEM_EXACT_MASS>
544.23196846

> <PUBCHEM_MOLECULAR_FORMULA>
C28H34F2N4O3S

> <PUBCHEM_MOLECULAR_WEIGHT>
544.7

> <PUBCHEM_OPENEYE_CAN_SMILES>
CC(COC1=NC2=C(S1)CCN(C2)CCC3CCC(CC3)NC(=O)C4=CC=CC5=C4C=CN(C5=O)C)(F)F

> <PUBCHEM_OPENEYE_ISO_SMILES>
CC(COC1=NC2=C(S1)CCN(C2)CCC3CCC(CC3)NC(=O)C4=CC=CC5=C4C=CN(C5=O)C)(F)F

> <PUBCHEM_CACTVS_TPSA>
103

> <PUBCHEM_MONOISOTOPIC_WEIGHT>
544.23196846

> <PUBCHEM_TOTAL_CHARGE>
0

> <PUBCHEM_HEAVY_ATOM_COUNT>
38

> <PUBCHEM_ATOM_DEF_STEREO_COUNT>
0

> <PUBCHEM_ATOM_UDEF_STEREO_COUNT>
0

> <PUBCHEM_BOND_DEF_STEREO_COUNT>
0

> <PUBCHEM_BOND_UDEF_STEREO_COUNT>
0

> <PUBCHEM_ISOTOPIC_ATOM_COUNT>
0

> <PUBCHEM_COMPONENT_COUNT>
1

> <PUBCHEM_CACTVS_TAUTO_COUNT>
-1

> <PUBCHEM_COORDINATE_TYPE>
1
5
255

> <PUBCHEM_BONDANNOTATIONS>
1  24  8
1  26  8
10  33  8
10  34  8
22  24  8
25  27  8
25  28  8
27  29  8
27  30  8
28  31  8
29  32  8
29  33  8
30  34  8
31  32  8
9  22  8
9  26  8

$$$$
