10620139
  -OEChem-09292322512D

 47 50  0     1  0  0  0  0  0999 V2000
    9.0655    4.2846    0.0000 Cl  0  0  0  0  0  0  0  0  0  0  0  0
    6.3981   -3.2605    0.0000 O   0  0  0  0  0  0  0  0  0  0  0  0
    8.1301   -3.2605    0.0000 O   0  0  0  0  0  0  0  0  0  0  0  0
    2.8680   -1.2363    0.0000 O   0  0  0  0  0  0  0  0  0  0  0  0
    2.8680   -3.2846    0.0000 O   0  0  0  0  0  0  0  0  0  0  0  0
    8.1821   -0.2120    0.0000 N   0  0  3  0  0  0  0  0  0  0  0  0
    7.2800    0.3088    0.0000 C   0  0  0  0  0  0  0  0  0  0  0  0
    6.3820   -0.2190    0.0000 C   0  0  0  0  0  0  0  0  0  0  0  0
    6.3981   -1.2605    0.0000 C   0  0  0  0  0  0  0  0  0  0  0  0
    8.1741   -1.2536    0.0000 C   0  0  0  0  0  0  0  0  0  0  0  0
    7.2641   -1.7605    0.0000 C   0  0  0  0  0  0  0  0  0  0  0  0
    9.0501    0.2846    0.0000 C   0  0  0  0  0  0  0  0  0  0  0  0
    5.5320   -1.7605    0.0000 C   0  0  0  0  0  0  0  0  0  0  0  0
    7.2641   -2.7605    0.0000 C   0  0  0  0  0  0  0  0  0  0  0  0
    5.5320   -2.7605    0.0000 C   0  0  0  0  0  0  0  0  0  0  0  0
    9.0539    1.2846    0.0000 C   0  0  0  0  0  0  0  0  0  0  0  0
    4.6381   -1.2258    0.0000 C   0  0  0  0  0  0  0  0  0  0  0  0
    4.6381   -3.2951    0.0000 C   0  0  0  0  0  0  0  0  0  0  0  0
    3.7320   -1.7396    0.0000 C   0  0  0  0  0  0  0  0  0  0  0  0
    3.7320   -2.7813    0.0000 C   0  0  0  0  0  0  0  0  0  0  0  0
    8.1898    1.7880    0.0000 C   0  0  0  0  0  0  0  0  0  0  0  0
    9.9219    1.7813    0.0000 C   0  0  0  0  0  0  0  0  0  0  0  0
    8.1937    2.7880    0.0000 C   0  0  0  0  0  0  0  0  0  0  0  0
    9.9257    2.7813    0.0000 C   0  0  0  0  0  0  0  0  0  0  0  0
    9.0616    3.2846    0.0000 C   0  0  0  0  0  0  0  0  0  0  0  0
    2.0000   -1.7330    0.0000 C   0  0  0  0  0  0  0  0  0  0  0  0
    2.8718   -4.2846    0.0000 C   0  0  0  0  0  0  0  0  0  0  0  0
    7.6774    0.7848    0.0000 H   0  0  0  0  0  0  0  0  0  0  0  0
    6.8791    0.7817    0.0000 H   0  0  0  0  0  0  0  0  0  0  0  0
    6.1640    0.3614    0.0000 H   0  0  0  0  0  0  0  0  0  0  0  0
    5.7729   -0.3345    0.0000 H   0  0  0  0  0  0  0  0  0  0  0  0
    8.3786   -1.8389    0.0000 H   0  0  0  0  0  0  0  0  0  0  0  0
    8.7858   -1.1522    0.0000 H   0  0  0  0  0  0  0  0  0  0  0  0
    9.2599   -0.2988    0.0000 H   0  0  0  0  0  0  0  0  0  0  0  0
    9.6611    0.3899    0.0000 H   0  0  0  0  0  0  0  0  0  0  0  0
    4.6453   -0.6058    0.0000 H   0  0  0  0  0  0  0  0  0  0  0  0
    4.6453   -3.9151    0.0000 H   0  0  0  0  0  0  0  0  0  0  0  0
    7.6517    1.4800    0.0000 H   0  0  0  0  0  0  0  0  0  0  0  0
   10.4576    1.4692    0.0000 H   0  0  0  0  0  0  0  0  0  0  0  0
    7.6580    3.1000    0.0000 H   0  0  0  0  0  0  0  0  0  0  0  0
   10.4639    3.0892    0.0000 H   0  0  0  0  0  0  0  0  0  0  0  0
    1.6921   -1.1948    0.0000 H   0  0  0  0  0  0  0  0  0  0  0  0
    1.4619   -2.0409    0.0000 H   0  0  0  0  0  0  0  0  0  0  0  0
    2.3079   -2.2711    0.0000 H   0  0  0  0  0  0  0  0  0  0  0  0
    2.2518   -4.2870    0.0000 H   0  0  0  0  0  0  0  0  0  0  0  0
    2.8742   -4.9046    0.0000 H   0  0  0  0  0  0  0  0  0  0  0  0
    3.4918   -4.2822    0.0000 H   0  0  0  0  0  0  0  0  0  0  0  0
  1 25  1  0  0  0  0
  2 14  1  0  0  0  0
  2 15  1  0  0  0  0
  3 14  2  0  0  0  0
  4 19  1  0  0  0  0
  4 26  1  0  0  0  0
  5 20  1  0  0  0  0
  5 27  1  0  0  0  0
  6  7  1  0  0  0  0
  6 10  1  0  0  0  0
  6 12  1  0  0  0  0
  7  8  1  0  0  0  0
  7 28  1  0  0  0  0
  7 29  1  0  0  0  0
  8  9  1  0  0  0  0
  8 30  1  0  0  0  0
  8 31  1  0  0  0  0
  9 11  2  0  0  0  0
  9 13  1  0  0  0  0
 10 11  1  0  0  0  0
 10 32  1  0  0  0  0
 10 33  1  0  0  0  0
 11 14  1  0  0  0  0
 12 16  1  0  0  0  0
 12 34  1  0  0  0  0
 12 35  1  0  0  0  0
 13 15  1  0  0  0  0
 13 17  2  0  0  0  0
 15 18  2  0  0  0  0
 16 21  2  0  0  0  0
 16 22  1  0  0  0  0
 17 19  1  0  0  0  0
 17 36  1  0  0  0  0
 18 20  1  0  0  0  0
 18 37  1  0  0  0  0
 19 20  2  0  0  0  0
 21 23  1  0  0  0  0
 21 38  1  0  0  0  0
 22 24  2  0  0  0  0
 22 39  1  0  0  0  0
 23 25  2  0  0  0  0
 23 40  1  0  0  0  0
 24 25  1  0  0  0  0
 24 41  1  0  0  0  0
 26 42  1  0  0  0  0
 26 43  1  0  0  0  0
 26 44  1  0  0  0  0
 27 45  1  0  0  0  0
 27 46  1  0  0  0  0
 27 47  1  0  0  0  0
M  END
> <PUBCHEM_COMPOUND_CID>
10620139

> <PUBCHEM_COMPOUND_CANONICALIZED>
1

> <PUBCHEM_CACTVS_COMPLEXITY>
587

> <PUBCHEM_CACTVS_HBOND_ACCEPTOR>
5

> <PUBCHEM_CACTVS_HBOND_DONOR>
0

> <PUBCHEM_CACTVS_ROTATABLE_BOND>
4

> <PUBCHEM_CACTVS_SUBSKEYS>
AAADceB6OAAEAAAAAAAAAAAAAAAAAAAAAAAwYIEAAAAAAACxQAAAHgIAAAAADAbBmCYyDoMABACIAiDSCACCCAAgJQAIiAEOjsgNJyqFsxuGOirnwBWKqQfQ8L4OJQABCAAIQABKAAIQABCAAAAAAAAAAA==

> <PUBCHEM_IUPAC_OPENEYE_NAME>
3-[(4-chlorophenyl)methyl]-8,9-dimethoxy-2,4-dihydro-1H-chromeno[3,4-c]pyridin-5-one

> <PUBCHEM_IUPAC_CAS_NAME>
3-[(4-chlorophenyl)methyl]-8,9-dimethoxy-2,4-dihydro-1H-[1]benzopyrano[3,4-c]pyridin-5-one

> <PUBCHEM_IUPAC_NAME_MARKUP>
3-[(4-chlorophenyl)methyl]-8,9-dimethoxy-2,4-dihydro-1<I>H</I>-chromeno[3,4-c]pyridin-5-one

> <PUBCHEM_IUPAC_NAME>
3-[(4-chlorophenyl)methyl]-8,9-dimethoxy-2,4-dihydro-1H-chromeno[3,4-c]pyridin-5-one

> <PUBCHEM_IUPAC_SYSTEMATIC_NAME>
3-[(4-chlorophenyl)methyl]-8,9-dimethoxy-2,4-dihydro-1H-chromeno[3,4-c]pyridin-5-one

> <PUBCHEM_IUPAC_TRADITIONAL_NAME>
3-(4-chlorobenzyl)-8,9-dimethoxy-2,4-dihydro-1H-chromeno[3,4-c]pyridin-5-one

> <PUBCHEM_IUPAC_INCHI>
InChI=1S/C21H20ClNO4/c1-25-19-9-16-15-7-8-23(11-13-3-5-14(22)6-4-13)12-17(15)21(24)27-18(16)10-20(19)26-2/h3-6,9-10H,7-8,11-12H2,1-2H3

> <PUBCHEM_IUPAC_INCHIKEY>
VEPYYOGIARRSSX-UHFFFAOYSA-N

> <PUBCHEM_XLOGP3_AA>
3.4

> <PUBCHEM_EXACT_MASS>
385.1080858

> <PUBCHEM_MOLECULAR_FORMULA>
C21H20ClNO4

> <PUBCHEM_MOLECULAR_WEIGHT>
385.8

> <PUBCHEM_OPENEYE_CAN_SMILES>
COC1=C(C=C2C(=C1)C3=C(CN(CC3)CC4=CC=C(C=C4)Cl)C(=O)O2)OC

> <PUBCHEM_OPENEYE_ISO_SMILES>
COC1=C(C=C2C(=C1)C3=C(CN(CC3)CC4=CC=C(C=C4)Cl)C(=O)O2)OC

> <PUBCHEM_CACTVS_TPSA>
48

> <PUBCHEM_MONOISOTOPIC_WEIGHT>
385.1080858

> <PUBCHEM_TOTAL_CHARGE>
0

> <PUBCHEM_HEAVY_ATOM_COUNT>
27

> <PUBCHEM_ATOM_DEF_STEREO_COUNT>
0

> <PUBCHEM_ATOM_UDEF_STEREO_COUNT>
0

> <PUBCHEM_BOND_DEF_STEREO_COUNT>
0

> <PUBCHEM_BOND_UDEF_STEREO_COUNT>
0

> <PUBCHEM_ISOTOPIC_ATOM_COUNT>
0

> <PUBCHEM_COMPONENT_COUNT>
1

> <PUBCHEM_CACTVS_TAUTO_COUNT>
-1

> <PUBCHEM_COORDINATE_TYPE>
1
5
255

> <PUBCHEM_BONDANNOTATIONS>
11  14  8
13  15  8
13  17  8
15  18  8
16  21  8
16  22  8
17  19  8
18  20  8
19  20  8
2  14  8
2  15  8
21  23  8
22  24  8
23  25  8
24  25  8
9  11  8
9  13  8

$$$$
