155546189
  -OEChem-09292322412D

 65 68  0     1  0  0  0  0  0999 V2000
    5.3396    0.0000    0.0000 Cl  0  0  0  0  0  0  0  0  0  0  0  0
    9.9111    6.0918    0.0000 S   0  0  0  0  0  0  0  0  0  0  0  0
    3.6165   12.8120    0.0000 F   0  0  0  0  0  0  0  0  0  0  0  0
    9.8899    7.0915    0.0000 O   0  0  0  0  0  0  0  0  0  0  0  0
   10.8554    6.4208    0.0000 O   0  0  0  0  0  0  0  0  0  0  0  0
    3.7694    9.3513    0.0000 N   0  0  0  0  0  0  0  0  0  0  0  0
    8.9175    6.1113    0.0000 N   0  0  3  0  0  0  0  0  0  0  0  0
    2.6939   11.0375    0.0000 N   0  0  0  0  0  0  0  0  0  0  0  0
    4.3072    8.5082    0.0000 C   0  0  0  0  0  0  0  0  0  0  0  0
    4.2307   10.2386    0.0000 C   0  0  0  0  0  0  0  0  0  0  0  0
    2.7704    9.3072    0.0000 C   0  0  0  0  0  0  0  0  0  0  0  0
    5.3062    8.5523    0.0000 C   0  0  0  0  0  0  0  0  0  0  0  0
    3.6929   11.0817    0.0000 C   0  0  0  0  0  0  0  0  0  0  0  0
    2.2326   10.1503    0.0000 C   0  0  0  0  0  0  0  0  0  0  0  0
    5.8439    7.7092    0.0000 C   0  0  0  0  0  0  0  0  0  0  0  0
    8.3797    6.9544    0.0000 C   0  0  0  0  0  0  0  0  0  0  0  0
    6.8430    7.7534    0.0000 C   0  0  0  0  0  0  0  0  0  0  0  0
    7.3807    6.9103    0.0000 C   0  0  0  0  0  0  0  0  0  0  0  0
    8.5162    5.2021    0.0000 C   0  0  0  0  0  0  0  0  0  0  0  0
    9.4102    4.6674    0.0000 C   0  0  0  0  0  0  0  0  0  0  0  0
   10.2762    5.1674    0.0000 C   0  0  0  0  0  0  0  0  0  0  0  0
    9.4102    3.6674    0.0000 C   0  0  0  0  0  0  0  0  0  0  0  0
    2.1562   11.8806    0.0000 C   0  0  0  0  0  0  0  0  0  0  0  0
    7.6102    4.6882    0.0000 C   0  0  0  0  0  0  0  0  0  0  0  0
   11.1422    4.6674    0.0000 C   0  0  0  0  0  0  0  0  0  0  0  0
    8.5162    3.1328    0.0000 C   0  0  0  0  0  0  0  0  0  0  0  0
   10.2762    3.1674    0.0000 C   0  0  0  0  0  0  0  0  0  0  0  0
    7.6102    3.6466    0.0000 C   0  0  0  0  0  0  0  0  0  0  0  0
   11.1422    3.6674    0.0000 C   0  0  0  0  0  0  0  0  0  0  0  0
    2.6174   12.7679    0.0000 C   0  0  0  0  0  0  0  0  0  0  0  0
    1.1571   11.8365    0.0000 C   0  0  0  0  0  0  0  0  0  0  0  0
    2.0797   13.6110    0.0000 C   0  0  0  0  0  0  0  0  0  0  0  0
    0.6194   12.6796    0.0000 C   0  0  0  0  0  0  0  0  0  0  0  0
    1.0807   13.5668    0.0000 C   0  0  0  0  0  0  0  0  0  0  0  0
    3.7345    8.2706    0.0000 H   0  0  0  0  0  0  0  0  0  0  0  0
    4.4417    7.9030    0.0000 H   0  0  0  0  0  0  0  0  0  0  0  0
    4.7228    9.8614    0.0000 H   0  0  0  0  0  0  0  0  0  0  0  0
    4.6876   10.6577    0.0000 H   0  0  0  0  0  0  0  0  0  0  0  0
    2.1977    9.0696    0.0000 H   0  0  0  0  0  0  0  0  0  0  0  0
    2.9049    8.7019    0.0000 H   0  0  0  0  0  0  0  0  0  0  0  0
    5.8789    8.7899    0.0000 H   0  0  0  0  0  0  0  0  0  0  0  0
    5.1717    9.1576    0.0000 H   0  0  0  0  0  0  0  0  0  0  0  0
    4.2656   11.3192    0.0000 H   0  0  0  0  0  0  0  0  0  0  0  0
    3.5584   11.6869    0.0000 H   0  0  0  0  0  0  0  0  0  0  0  0
    1.7406   10.5274    0.0000 H   0  0  0  0  0  0  0  0  0  0  0  0
    1.7757    9.7312    0.0000 H   0  0  0  0  0  0  0  0  0  0  0  0
    5.2712    7.4717    0.0000 H   0  0  0  0  0  0  0  0  0  0  0  0
    5.9784    7.1040    0.0000 H   0  0  0  0  0  0  0  0  0  0  0  0
    8.9524    7.1920    0.0000 H   0  0  0  0  0  0  0  0  0  0  0  0
    8.2452    7.5597    0.0000 H   0  0  0  0  0  0  0  0  0  0  0  0
    7.4156    7.9910    0.0000 H   0  0  0  0  0  0  0  0  0  0  0  0
    6.7084    8.3586    0.0000 H   0  0  0  0  0  0  0  0  0  0  0  0
    6.8080    6.6727    0.0000 H   0  0  0  0  0  0  0  0  0  0  0  0
    7.5152    6.3050    0.0000 H   0  0  0  0  0  0  0  0  0  0  0  0
    7.0744    5.0003    0.0000 H   0  0  0  0  0  0  0  0  0  0  0  0
   11.6792    4.9774    0.0000 H   0  0  0  0  0  0  0  0  0  0  0  0
    8.5234    2.5128    0.0000 H   0  0  0  0  0  0  0  0  0  0  0  0
   10.2762    2.5474    0.0000 H   0  0  0  0  0  0  0  0  0  0  0  0
    7.0744    3.3346    0.0000 H   0  0  0  0  0  0  0  0  0  0  0  0
   11.6792    3.3574    0.0000 H   0  0  0  0  0  0  0  0  0  0  0  0
    0.8711   11.2864    0.0000 H   0  0  0  0  0  0  0  0  0  0  0  0
    2.3657   14.1611    0.0000 H   0  0  0  0  0  0  0  0  0  0  0  0
    0.0000   12.6522    0.0000 H   0  0  0  0  0  0  0  0  0  0  0  0
    0.7473   14.0896    0.0000 H   0  0  0  0  0  0  0  0  0  0  0  0
    6.3396    0.0000    0.0000 H   0  0  0  0  0  0  0  0  0  0  0  0
  1 65  1  0  0  0  0
  2  4  2  0  0  0  0
  2  5  2  0  0  0  0
  2  7  1  0  0  0  0
  2 21  1  0  0  0  0
  3 30  1  0  0  0  0
  6  9  1  0  0  0  0
  6 10  1  0  0  0  0
  6 11  1  0  0  0  0
  7 16  1  0  0  0  0
  7 19  1  0  0  0  0
  8 13  1  0  0  0  0
  8 14  1  0  0  0  0
  8 23  1  0  0  0  0
  9 12  1  0  0  0  0
  9 35  1  0  0  0  0
  9 36  1  0  0  0  0
 10 13  1  0  0  0  0
 10 37  1  0  0  0  0
 10 38  1  0  0  0  0
 11 14  1  0  0  0  0
 11 39  1  0  0  0  0
 11 40  1  0  0  0  0
 12 15  1  0  0  0  0
 12 41  1  0  0  0  0
 12 42  1  0  0  0  0
 13 43  1  0  0  0  0
 13 44  1  0  0  0  0
 14 45  1  0  0  0  0
 14 46  1  0  0  0  0
 15 17  1  0  0  0  0
 15 47  1  0  0  0  0
 15 48  1  0  0  0  0
 16 18  1  0  0  0  0
 16 49  1  0  0  0  0
 16 50  1  0  0  0  0
 17 18  1  0  0  0  0
 17 51  1  0  0  0  0
 17 52  1  0  0  0  0
 18 53  1  0  0  0  0
 18 54  1  0  0  0  0
 19 20  1  0  0  0  0
 19 24  2  0  0  0  0
 20 21  1  0  0  0  0
 20 22  2  0  0  0  0
 21 25  2  0  0  0  0
 22 26  1  0  0  0  0
 22 27  1  0  0  0  0
 23 30  1  0  0  0  0
 23 31  2  0  0  0  0
 24 28  1  0  0  0  0
 24 55  1  0  0  0  0
 25 29  1  0  0  0  0
 25 56  1  0  0  0  0
 26 28  2  0  0  0  0
 26 57  1  0  0  0  0
 27 29  2  0  0  0  0
 27 58  1  0  0  0  0
 28 59  1  0  0  0  0
 29 60  1  0  0  0  0
 30 32  2  0  0  0  0
 31 33  1  0  0  0  0
 31 61  1  0  0  0  0
 32 34  1  0  0  0  0
 32 62  1  0  0  0  0
 33 34  2  0  0  0  0
 33 63  1  0  0  0  0
 34 64  1  0  0  0  0
M  END
> <PUBCHEM_COMPOUND_CID>
155546189

> <PUBCHEM_COMPOUND_CANONICALIZED>
1

> <PUBCHEM_CACTVS_COMPLEXITY>
736

> <PUBCHEM_CACTVS_HBOND_ACCEPTOR>
6

> <PUBCHEM_CACTVS_HBOND_DONOR>
1

> <PUBCHEM_CACTVS_ROTATABLE_BOND>
8

> <PUBCHEM_CACTVS_SUBSKEYS>
AAADceB7MQBEAAAAAAAAAAAAAAAAAWAAAAA8YMEAAAAAAFjBVAAAHQQAQAAADAjBWAwwwcMAAAKAAiRCQHDCABAhAgAIiBgIZIgIYCLAkZGUIAxggADIyAcQgIAOgAAAwAAWAAAAAAGAACwAAAAAAAAAAA==

> <PUBCHEM_IUPAC_OPENEYE_NAME>
3-[6-[4-(2-fluorophenyl)piperazin-1-yl]hexyl]-2lambda6-thia-3-azatricyclo[6.3.1.04,12]dodeca-1(11),4,6,8(12),9-pentaene 2,2-dioxide;hydrochloride

> <PUBCHEM_IUPAC_CAS_NAME>
3-[6-[4-(2-fluorophenyl)-1-piperazinyl]hexyl]-2lambda6-thia-3-azatricyclo[6.3.1.04,12]dodeca-1(11),4,6,8(12),9-pentaene 2,2-dioxide;hydrochloride

> <PUBCHEM_IUPAC_NAME_MARKUP>
3-[6-[4-(2-fluorophenyl)piperazin-1-yl]hexyl]-2&lambda;<SUP>6</SUP>-thia-3-azatricyclo[6.3.1.0<SUP>4,12</SUP>]dodeca-1(11),4,6,8(12),9-pentaene 2,2-dioxide;hydrochloride

> <PUBCHEM_IUPAC_NAME>
3-[6-[4-(2-fluorophenyl)piperazin-1-yl]hexyl]-2lambda6-thia-3-azatricyclo[6.3.1.04,12]dodeca-1(11),4,6,8(12),9-pentaene 2,2-dioxide;hydrochloride

> <PUBCHEM_IUPAC_SYSTEMATIC_NAME>
3-[6-[4-(2-fluorophenyl)piperazin-1-yl]hexyl]-2lambda6-thia-3-azatricyclo[6.3.1.04,12]dodeca-1(11),4,6,8(12),9-pentaene 2,2-dioxide;hydrochloride

> <PUBCHEM_IUPAC_TRADITIONAL_NAME>
3-[6-[4-(2-fluorophenyl)piperazino]hexyl]-2lambda6-thia-3-azatricyclo[6.3.1.04,12]dodeca-1(11),4,6,8(12),9-pentaene 2,2-dioxide;hydrochloride

> <PUBCHEM_IUPAC_INCHI>
InChI=1S/C26H30FN3O2S.ClH/c27-22-11-3-4-12-23(22)29-19-17-28(18-20-29)15-5-1-2-6-16-30-24-13-7-9-21-10-8-14-25(26(21)24)33(30,31)32;/h3-4,7-14H,1-2,5-6,15-20H2;1H

> <PUBCHEM_IUPAC_INCHIKEY>
GBCLDFHUSDVERP-UHFFFAOYSA-N

> <PUBCHEM_EXACT_MASS>
503.1809543

> <PUBCHEM_MOLECULAR_FORMULA>
C26H31ClFN3O2S

> <PUBCHEM_MOLECULAR_WEIGHT>
504.1

> <PUBCHEM_OPENEYE_CAN_SMILES>
C1CN(CCN1CCCCCCN2C3=CC=CC4=C3C(=CC=C4)S2(=O)=O)C5=CC=CC=C5F.Cl

> <PUBCHEM_OPENEYE_ISO_SMILES>
C1CN(CCN1CCCCCCN2C3=CC=CC4=C3C(=CC=C4)S2(=O)=O)C5=CC=CC=C5F.Cl

> <PUBCHEM_CACTVS_TPSA>
52.2

> <PUBCHEM_MONOISOTOPIC_WEIGHT>
503.1809543

> <PUBCHEM_TOTAL_CHARGE>
0

> <PUBCHEM_HEAVY_ATOM_COUNT>
34

> <PUBCHEM_ATOM_DEF_STEREO_COUNT>
0

> <PUBCHEM_ATOM_UDEF_STEREO_COUNT>
0

> <PUBCHEM_BOND_DEF_STEREO_COUNT>
0

> <PUBCHEM_BOND_UDEF_STEREO_COUNT>
0

> <PUBCHEM_ISOTOPIC_ATOM_COUNT>
0

> <PUBCHEM_COMPONENT_COUNT>
2

> <PUBCHEM_CACTVS_TAUTO_COUNT>
-1

> <PUBCHEM_COORDINATE_TYPE>
1
5
255

> <PUBCHEM_BONDANNOTATIONS>
19  20  8
19  24  8
20  21  8
20  22  8
21  25  8
22  26  8
22  27  8
23  30  8
23  31  8
24  28  8
25  29  8
26  28  8
27  29  8
30  32  8
31  33  8
32  34  8
33  34  8

$$$$
