145981408
  -OEChem-09292322062D

 60 65  0     1  0  0  0  0  0999 V2000
    3.5124    0.6193    0.0000 S   0  0  0  0  0  0  0  0  0  0  0  0
   12.3428   -1.8063    0.0000 O   0  0  0  0  0  0  0  0  0  0  0  0
   11.1421    1.4925    0.0000 O   0  0  0  0  0  0  0  0  0  0  0  0
   11.4860   -0.2503    0.0000 N   0  0  0  0  0  0  0  0  0  0  0  0
    7.1348    0.0092    0.0000 N   0  0  0  0  0  0  0  0  0  0  0  0
    5.2554   -0.6748    0.0000 N   0  0  0  0  0  0  0  0  0  0  0  0
   13.0945   -0.1969    0.0000 C   0  0  1  0  0  0  0  0  0  0  0  0
   12.7525    0.7428    0.0000 C   0  0  2  0  0  0  0  0  0  0  0  0
   14.4672    0.3951    0.0000 C   0  0  2  0  0  0  0  0  0  0  0  0
   14.7261    1.3611    0.0000 C   0  0  1  0  0  0  0  0  0  0  0  0
   13.9895    2.3437    0.0000 C   0  0  0  0  0  0  0  0  0  0  0  0
   15.8662   -0.1137    0.0000 C   0  0  0  0  0  0  0  0  0  0  0  0
   16.1250    0.8522    0.0000 C   0  0  0  0  0  0  0  0  0  0  0  0
   12.3096   -0.8069    0.0000 C   0  0  0  0  0  0  0  0  0  0  0  0
   11.7591    0.7055    0.0000 C   0  0  0  0  0  0  0  0  0  0  0  0
   10.5463   -0.5923    0.0000 C   0  0  0  0  0  0  0  0  0  0  0  0
    9.7802    0.0505    0.0000 C   0  0  0  0  0  0  0  0  0  0  0  0
    8.8405   -0.2915    0.0000 C   0  0  0  0  0  0  0  0  0  0  0  0
    8.0745    0.3512    0.0000 C   0  0  0  0  0  0  0  0  0  0  0  0
    6.3688    0.6520    0.0000 C   0  0  0  0  0  0  0  0  0  0  0  0
    6.9612   -0.9756    0.0000 C   0  0  0  0  0  0  0  0  0  0  0  0
    5.4291    0.3100    0.0000 C   0  0  0  0  0  0  0  0  0  0  0  0
    6.0215   -1.3176    0.0000 C   0  0  0  0  0  0  0  0  0  0  0  0
    4.3157   -1.0168    0.0000 C   0  0  0  0  0  0  0  0  0  0  0  0
    3.5497   -0.3740    0.0000 C   0  0  0  0  0  0  0  0  0  0  0  0
    4.1421   -2.0016    0.0000 C   0  0  0  0  0  0  0  0  0  0  0  0
    2.6100   -0.7161    0.0000 C   0  0  0  0  0  0  0  0  0  0  0  0
    3.2024   -2.3437    0.0000 C   0  0  0  0  0  0  0  0  0  0  0  0
    2.4363   -1.7009    0.0000 C   0  0  0  0  0  0  0  0  0  0  0  0
    2.0000    0.0689    0.0000 C   0  0  0  0  0  0  0  0  0  0  0  0
    2.5566    0.8925    0.0000 C   0  0  0  0  0  0  0  0  0  0  0  0
   13.3853   -0.9956    0.0000 H   0  0  0  0  0  0  0  0  0  0  0  0
   12.4618    1.5415    0.0000 H   0  0  0  0  0  0  0  0  0  0  0  0
   14.2473   -0.4259    0.0000 H   0  0  0  0  0  0  0  0  0  0  0  0
   14.9461    2.1821    0.0000 H   0  0  0  0  0  0  0  0  0  0  0  0
   14.3073    2.8760    0.0000 H   0  0  0  0  0  0  0  0  0  0  0  0
   13.3763    2.4356    0.0000 H   0  0  0  0  0  0  0  0  0  0  0  0
   16.1525   -0.6636    0.0000 H   0  0  0  0  0  0  0  0  0  0  0  0
   16.6749    1.1386    0.0000 H   0  0  0  0  0  0  0  0  0  0  0  0
   10.0713   -0.9908    0.0000 H   0  0  0  0  0  0  0  0  0  0  0  0
   10.8563   -1.1292    0.0000 H   0  0  0  0  0  0  0  0  0  0  0  0
   10.2552    0.4490    0.0000 H   0  0  0  0  0  0  0  0  0  0  0  0
    9.4702    0.5874    0.0000 H   0  0  0  0  0  0  0  0  0  0  0  0
    8.3656   -0.6901    0.0000 H   0  0  0  0  0  0  0  0  0  0  0  0
    9.1505   -0.8285    0.0000 H   0  0  0  0  0  0  0  0  0  0  0  0
    8.5494    0.7498    0.0000 H   0  0  0  0  0  0  0  0  0  0  0  0
    7.7645    0.8882    0.0000 H   0  0  0  0  0  0  0  0  0  0  0  0
    6.8437    1.0505    0.0000 H   0  0  0  0  0  0  0  0  0  0  0  0
    6.0588    1.1890    0.0000 H   0  0  0  0  0  0  0  0  0  0  0  0
    7.0688   -1.5862    0.0000 H   0  0  0  0  0  0  0  0  0  0  0  0
    7.5812   -0.9756    0.0000 H   0  0  0  0  0  0  0  0  0  0  0  0
    5.3214    0.9206    0.0000 H   0  0  0  0  0  0  0  0  0  0  0  0
    4.8091    0.3100    0.0000 H   0  0  0  0  0  0  0  0  0  0  0  0
    5.5465   -1.7161    0.0000 H   0  0  0  0  0  0  0  0  0  0  0  0
    6.3315   -1.8545    0.0000 H   0  0  0  0  0  0  0  0  0  0  0  0
    4.6170   -2.4002    0.0000 H   0  0  0  0  0  0  0  0  0  0  0  0
    3.0947   -2.9542    0.0000 H   0  0  0  0  0  0  0  0  0  0  0  0
    1.8537   -1.9129    0.0000 H   0  0  0  0  0  0  0  0  0  0  0  0
    1.3803    0.0483    0.0000 H   0  0  0  0  0  0  0  0  0  0  0  0
    2.3445    1.4751    0.0000 H   0  0  0  0  0  0  0  0  0  0  0  0
  1 25  1  0  0  0  0
  1 31  1  0  0  0  0
  2 14  2  0  0  0  0
  3 15  2  0  0  0  0
  4 14  1  0  0  0  0
  4 15  1  0  0  0  0
  4 16  1  0  0  0  0
  5 19  1  0  0  0  0
  5 20  1  0  0  0  0
  5 21  1  0  0  0  0
  6 22  1  0  0  0  0
  6 23  1  0  0  0  0
  6 24  1  0  0  0  0
  7  8  1  0  0  0  0
  7  9  1  0  0  0  0
  7 14  1  0  0  0  0
  7 32  1  6  0  0  0
  8 10  1  0  0  0  0
  8 15  1  0  0  0  0
  8 33  1  6  0  0  0
  9 11  1  0  0  0  0
  9 12  1  0  0  0  0
  9 34  1  1  0  0  0
 10 11  1  0  0  0  0
 10 13  1  0  0  0  0
 10 35  1  6  0  0  0
 11 36  1  0  0  0  0
 11 37  1  0  0  0  0
 12 13  2  0  0  0  0
 12 38  1  0  0  0  0
 13 39  1  0  0  0  0
 16 17  1  0  0  0  0
 16 40  1  0  0  0  0
 16 41  1  0  0  0  0
 17 18  1  0  0  0  0
 17 42  1  0  0  0  0
 17 43  1  0  0  0  0
 18 19  1  0  0  0  0
 18 44  1  0  0  0  0
 18 45  1  0  0  0  0
 19 46  1  0  0  0  0
 19 47  1  0  0  0  0
 20 22  1  0  0  0  0
 20 48  1  0  0  0  0
 20 49  1  0  0  0  0
 21 23  1  0  0  0  0
 21 50  1  0  0  0  0
 21 51  1  0  0  0  0
 22 52  1  0  0  0  0
 22 53  1  0  0  0  0
 23 54  1  0  0  0  0
 23 55  1  0  0  0  0
 24 25  1  0  0  0  0
 24 26  2  0  0  0  0
 25 27  2  0  0  0  0
 26 28  1  0  0  0  0
 26 56  1  0  0  0  0
 27 29  1  0  0  0  0
 27 30  1  0  0  0  0
 28 29  2  0  0  0  0
 28 57  1  0  0  0  0
 29 58  1  0  0  0  0
 30 31  2  0  0  0  0
 30 59  1  0  0  0  0
 31 60  1  0  0  0  0
M  END
> <PUBCHEM_COMPOUND_CID>
145981408

> <PUBCHEM_COMPOUND_CANONICALIZED>
1

> <PUBCHEM_CACTVS_COMPLEXITY>
719

> <PUBCHEM_CACTVS_HBOND_ACCEPTOR>
5

> <PUBCHEM_CACTVS_HBOND_DONOR>
0

> <PUBCHEM_CACTVS_ROTATABLE_BOND>
6

> <PUBCHEM_CACTVS_SUBSKEYS>
AAADceB7MABAAAAAAAAAAAAAAAAAAeJECAA8QIAAAAAWAEgB8AAAHgQAAAAADQjF2ASwwcMAAAiMAiVSUACDAIAhChBIiB0IZIgIYDLgkZGUIAhghiDoyAcdiICOgAAAQAAEAQAAAACAAAgCAQAACAAAAA==

> <PUBCHEM_IUPAC_OPENEYE_NAME>
(1R,2R,6S,7S)-4-[4-[4-(benzothiophen-7-yl)piperazin-1-yl]butyl]-4-azatricyclo[5.2.1.02,6]dec-8-ene-3,5-dione

> <PUBCHEM_IUPAC_CAS_NAME>
(1R,2R,6S,7S)-4-[4-[4-(1-benzothiophen-7-yl)-1-piperazinyl]butyl]-4-azatricyclo[5.2.1.02,6]dec-8-ene-3,5-dione

> <PUBCHEM_IUPAC_NAME_MARKUP>
(1<I>R</I>,2<I>R</I>,6<I>S</I>,7<I>S</I>)-4-[4-[4-(1-benzothiophen-7-yl)piperazin-1-yl]butyl]-4-azatricyclo[5.2.1.0<SUP>2,6</SUP>]dec-8-ene-3,5-dione

> <PUBCHEM_IUPAC_NAME>
(1R,2R,6S,7S)-4-[4-[4-(1-benzothiophen-7-yl)piperazin-1-yl]butyl]-4-azatricyclo[5.2.1.02,6]dec-8-ene-3,5-dione

> <PUBCHEM_IUPAC_SYSTEMATIC_NAME>
(1R,2R,6S,7S)-4-[4-[4-(1-benzothiophen-7-yl)piperazin-1-yl]butyl]-4-azatricyclo[5.2.1.02,6]dec-8-ene-3,5-dione

> <PUBCHEM_IUPAC_TRADITIONAL_NAME>
(1R,2R,6S,7S)-4-[4-[4-(benzothiophen-7-yl)piperazino]butyl]-4-azatricyclo[5.2.1.02,6]dec-8-ene-3,5-quinone

> <PUBCHEM_IUPAC_INCHI>
InChI=1S/C25H29N3O2S/c29-24-21-18-6-7-19(16-18)22(21)25(30)28(24)10-2-1-9-26-11-13-27(14-12-26)20-5-3-4-17-8-15-31-23(17)20/h3-8,15,18-19,21-22H,1-2,9-14,16H2/t18-,19+,21+,22-

> <PUBCHEM_IUPAC_INCHIKEY>
MBWYSJMSOMZNFK-KNGAYFSHSA-N

> <PUBCHEM_XLOGP3_AA>
3.6

> <PUBCHEM_EXACT_MASS>
435.19804835

> <PUBCHEM_MOLECULAR_FORMULA>
C25H29N3O2S

> <PUBCHEM_MOLECULAR_WEIGHT>
435.6

> <PUBCHEM_OPENEYE_CAN_SMILES>
C1CN(CCN1CCCCN2C(=O)C3C4CC(C3C2=O)C=C4)C5=CC=CC6=C5SC=C6

> <PUBCHEM_OPENEYE_ISO_SMILES>
C1CN(CCN1CCCCN2C(=O)[C@@H]3[C@@H]4C[C@H]([C@@H]3C2=O)C=C4)C5=CC=CC6=C5SC=C6

> <PUBCHEM_CACTVS_TPSA>
72.1

> <PUBCHEM_MONOISOTOPIC_WEIGHT>
435.19804835

> <PUBCHEM_TOTAL_CHARGE>
0

> <PUBCHEM_HEAVY_ATOM_COUNT>
31

> <PUBCHEM_ATOM_DEF_STEREO_COUNT>
4

> <PUBCHEM_ATOM_UDEF_STEREO_COUNT>
0

> <PUBCHEM_BOND_DEF_STEREO_COUNT>
0

> <PUBCHEM_BOND_UDEF_STEREO_COUNT>
0

> <PUBCHEM_ISOTOPIC_ATOM_COUNT>
0

> <PUBCHEM_COMPONENT_COUNT>
1

> <PUBCHEM_CACTVS_TAUTO_COUNT>
-1

> <PUBCHEM_COORDINATE_TYPE>
1
5
255

> <PUBCHEM_BONDANNOTATIONS>
1  25  8
1  31  8
10  35  6
24  25  8
24  26  8
25  27  8
26  28  8
27  29  8
27  30  8
28  29  8
30  31  8
7  32  6
8  33  6
9  34  5

$$$$
