10757141
  -OEChem-09292322132D

 48 51  0     1  0  0  0  0  0999 V2000
    3.7817    2.5016    0.0000 O   0  0  0  0  0  0  0  0  0  0  0  0
    7.2544   -0.5299    0.0000 N   0  0  3  0  0  0  0  0  0  0  0  0
    6.3961   -0.0330    0.0000 C   0  0  1  0  0  0  0  0  0  0  0  0
    6.3961    0.9670    0.0000 C   0  0  0  0  0  0  0  0  0  0  0  0
    5.5301   -0.5330    0.0000 C   0  0  0  0  0  0  0  0  0  0  0  0
    8.1198   -0.0458    0.0000 C   0  0  0  0  0  0  0  0  0  0  0  0
    7.3062    1.4739    0.0000 C   0  0  0  0  0  0  0  0  0  0  0  0
    8.1455    0.9456    0.0000 C   0  0  0  0  0  0  0  0  0  0  0  0
    5.5301    1.4670    0.0000 C   0  0  0  0  0  0  0  0  0  0  0  0
    4.6641   -0.0330    0.0000 C   0  0  0  0  0  0  0  0  0  0  0  0
    4.6641    0.9670    0.0000 C   0  0  0  0  0  0  0  0  0  0  0  0
    7.2470   -1.5299    0.0000 C   0  0  0  0  0  0  0  0  0  0  0  0
    7.3142    2.5154    0.0000 C   0  0  0  0  0  0  0  0  0  0  0  0
    5.5141    2.5085    0.0000 C   0  0  0  0  0  0  0  0  0  0  0  0
    8.1093   -2.0363    0.0000 C   0  0  0  0  0  0  0  0  0  0  0  0
    3.7702    1.5017    0.0000 C   0  0  0  0  0  0  0  0  0  0  0  0
    3.7702   -0.5677    0.0000 C   0  0  0  0  0  0  0  0  0  0  0  0
    6.4121    3.0363    0.0000 C   0  0  0  0  0  0  0  0  0  0  0  0
    2.8641    0.9878    0.0000 C   0  0  0  0  0  0  0  0  0  0  0  0
    2.8641   -0.0538    0.0000 C   0  0  0  0  0  0  0  0  0  0  0  0
    8.1019   -3.0363    0.0000 C   0  0  0  0  0  0  0  0  0  0  0  0
    2.0000    1.4912    0.0000 C   0  0  0  0  0  0  0  0  0  0  0  0
    2.9215    3.0116    0.0000 C   0  0  0  0  0  0  0  0  0  0  0  0
    6.3956   -0.8830    0.0000 H   0  0  0  0  0  0  0  0  0  0  0  0
    5.1316   -1.0079    0.0000 H   0  0  0  0  0  0  0  0  0  0  0  0
    5.9286   -1.0079    0.0000 H   0  0  0  0  0  0  0  0  0  0  0  0
    8.3216   -0.6320    0.0000 H   0  0  0  0  0  0  0  0  0  0  0  0
    8.7326    0.0486    0.0000 H   0  0  0  0  0  0  0  0  0  0  0  0
    8.7526    0.8197    0.0000 H   0  0  0  0  0  0  0  0  0  0  0  0
    8.3772    1.5207    0.0000 H   0  0  0  0  0  0  0  0  0  0  0  0
    6.6372   -1.4177    0.0000 H   0  0  0  0  0  0  0  0  0  0  0  0
    7.0306   -2.1109    0.0000 H   0  0  0  0  0  0  0  0  0  0  0  0
    7.8523    2.8234    0.0000 H   0  0  0  0  0  0  0  0  0  0  0  0
    4.9736    2.8123    0.0000 H   0  0  0  0  0  0  0  0  0  0  0  0
    8.7190   -2.1485    0.0000 H   0  0  0  0  0  0  0  0  0  0  0  0
    8.3256   -1.4553    0.0000 H   0  0  0  0  0  0  0  0  0  0  0  0
    3.7773   -1.1876    0.0000 H   0  0  0  0  0  0  0  0  0  0  0  0
    6.4097    3.6563    0.0000 H   0  0  0  0  0  0  0  0  0  0  0  0
    2.3284   -0.3659    0.0000 H   0  0  0  0  0  0  0  0  0  0  0  0
    7.4819   -3.0317    0.0000 H   0  0  0  0  0  0  0  0  0  0  0  0
    8.0973   -3.6562    0.0000 H   0  0  0  0  0  0  0  0  0  0  0  0
    8.7218   -3.0408    0.0000 H   0  0  0  0  0  0  0  0  0  0  0  0
    2.3121    2.0269    0.0000 H   0  0  0  0  0  0  0  0  0  0  0  0
    1.4643    1.8032    0.0000 H   0  0  0  0  0  0  0  0  0  0  0  0
    1.6879    0.9554    0.0000 H   0  0  0  0  0  0  0  0  0  0  0  0
    3.2377    3.5449    0.0000 H   0  0  0  0  0  0  0  0  0  0  0  0
    2.3882    3.3278    0.0000 H   0  0  0  0  0  0  0  0  0  0  0  0
    2.6054    2.4783    0.0000 H   0  0  0  0  0  0  0  0  0  0  0  0
  1 16  1  0  0  0  0
  1 23  1  0  0  0  0
  2  3  1  0  0  0  0
  2  6  1  0  0  0  0
  2 12  1  0  0  0  0
  3  4  1  0  0  0  0
  3  5  1  0  0  0  0
  3 24  1  1  0  0  0
  4  7  2  0  0  0  0
  4  9  1  0  0  0  0
  5 10  1  0  0  0  0
  5 25  1  0  0  0  0
  5 26  1  0  0  0  0
  6  8  1  0  0  0  0
  6 27  1  0  0  0  0
  6 28  1  0  0  0  0
  7  8  1  0  0  0  0
  7 13  1  0  0  0  0
  8 29  1  0  0  0  0
  8 30  1  0  0  0  0
  9 11  1  0  0  0  0
  9 14  2  0  0  0  0
 10 11  2  0  0  0  0
 10 17  1  0  0  0  0
 11 16  1  0  0  0  0
 12 15  1  0  0  0  0
 12 31  1  0  0  0  0
 12 32  1  0  0  0  0
 13 18  2  0  0  0  0
 13 33  1  0  0  0  0
 14 18  1  0  0  0  0
 14 34  1  0  0  0  0
 15 21  1  0  0  0  0
 15 35  1  0  0  0  0
 15 36  1  0  0  0  0
 16 19  2  0  0  0  0
 17 20  2  0  0  0  0
 17 37  1  0  0  0  0
 18 38  1  0  0  0  0
 19 20  1  0  0  0  0
 19 22  1  0  0  0  0
 20 39  1  0  0  0  0
 21 40  1  0  0  0  0
 21 41  1  0  0  0  0
 21 42  1  0  0  0  0
 22 43  1  0  0  0  0
 22 44  1  0  0  0  0
 22 45  1  0  0  0  0
 23 46  1  0  0  0  0
 23 47  1  0  0  0  0
 23 48  1  0  0  0  0
M  END
> <PUBCHEM_COMPOUND_CID>
10757141

> <PUBCHEM_COMPOUND_CANONICALIZED>
1

> <PUBCHEM_CACTVS_COMPLEXITY>
411

> <PUBCHEM_CACTVS_HBOND_ACCEPTOR>
2

> <PUBCHEM_CACTVS_HBOND_DONOR>
0

> <PUBCHEM_CACTVS_ROTATABLE_BOND>
3

> <PUBCHEM_CACTVS_SUBSKEYS>
AAADceB6IAAAAAAAAAAAAAAAAAAAAAAAAAA8YMEAAAAAAADxQAAAHgAAAAAADCzBmAYyBoMABACAAiBCAACCCAAgIAAIiAAMDIgMJiKEsRuEMChkwBGIqAeQ0PMOwAADAAAYAACQAAaAADQAAAAAAAAAAA==

> <PUBCHEM_IUPAC_OPENEYE_NAME>
(6aR)-11-methoxy-10-methyl-6-propyl-5,6,6a,7-tetrahydro-4H-dibenzo[de,g]quinoline

> <PUBCHEM_IUPAC_CAS_NAME>
(6aR)-11-methoxy-10-methyl-6-propyl-5,6,6a,7-tetrahydro-4H-dibenzo[de,g]quinoline

> <PUBCHEM_IUPAC_NAME_MARKUP>
(6<I>a</I><I>R</I>)-11-methoxy-10-methyl-6-propyl-5,6,6<I>a</I>,7-tetrahydro-4<I>H</I>-dibenzo[de,g]quinoline

> <PUBCHEM_IUPAC_NAME>
(6aR)-11-methoxy-10-methyl-6-propyl-5,6,6a,7-tetrahydro-4H-dibenzo[de,g]quinoline

> <PUBCHEM_IUPAC_SYSTEMATIC_NAME>
(6aR)-11-methoxy-10-methyl-6-propyl-5,6,6a,7-tetrahydro-4H-dibenzo[de,g]quinoline

> <PUBCHEM_IUPAC_TRADITIONAL_NAME>
(6aR)-11-methoxy-10-methyl-6-propyl-5,6,6a,7-tetrahydro-4H-dibenzo[de,g]quinoline

> <PUBCHEM_IUPAC_INCHI>
InChI=1S/C21H25NO/c1-4-11-22-12-10-15-6-5-7-17-19(15)18(22)13-16-9-8-14(2)21(23-3)20(16)17/h5-9,18H,4,10-13H2,1-3H3/t18-/m1/s1

> <PUBCHEM_IUPAC_INCHIKEY>
SCCGREHYRSZMPG-GOSISDBHSA-N

> <PUBCHEM_XLOGP3_AA>
4.7

> <PUBCHEM_EXACT_MASS>
307.193614421

> <PUBCHEM_MOLECULAR_FORMULA>
C21H25NO

> <PUBCHEM_MOLECULAR_WEIGHT>
307.4

> <PUBCHEM_OPENEYE_CAN_SMILES>
CCCN1CCC2=C3C1CC4=C(C3=CC=C2)C(=C(C=C4)C)OC

> <PUBCHEM_OPENEYE_ISO_SMILES>
CCCN1CCC2=C3[C@H]1CC4=C(C3=CC=C2)C(=C(C=C4)C)OC

> <PUBCHEM_CACTVS_TPSA>
12.5

> <PUBCHEM_MONOISOTOPIC_WEIGHT>
307.193614421

> <PUBCHEM_TOTAL_CHARGE>
0

> <PUBCHEM_HEAVY_ATOM_COUNT>
23

> <PUBCHEM_ATOM_DEF_STEREO_COUNT>
1

> <PUBCHEM_ATOM_UDEF_STEREO_COUNT>
0

> <PUBCHEM_BOND_DEF_STEREO_COUNT>
0

> <PUBCHEM_BOND_UDEF_STEREO_COUNT>
0

> <PUBCHEM_ISOTOPIC_ATOM_COUNT>
0

> <PUBCHEM_COMPONENT_COUNT>
1

> <PUBCHEM_CACTVS_TAUTO_COUNT>
-1

> <PUBCHEM_COORDINATE_TYPE>
1
5
255

> <PUBCHEM_BONDANNOTATIONS>
10  11  8
10  17  8
11  16  8
13  18  8
14  18  8
16  19  8
17  20  8
19  20  8
3  24  5
4  7  8
4  9  8
7  13  8
9  14  8

$$$$
