44427829
  -OEChem-09292322252D

 64 68  0     1  0  0  0  0  0999 V2000
   16.2787   -1.7983    0.0000 Cl  0  0  0  0  0  0  0  0  0  0  0  0
   18.2334   -1.3750    0.0000 Cl  0  0  0  0  0  0  0  0  0  0  0  0
   11.6361    0.7406    0.0000 O   0  0  0  0  0  0  0  0  0  0  0  0
    8.3374    1.7983    0.0000 O   0  0  0  0  0  0  0  0  0  0  0  0
   12.9800   -0.7406    0.0000 N   0  0  0  0  0  0  0  0  0  0  0  0
   14.9347   -0.3172    0.0000 N   0  0  0  0  0  0  0  0  0  0  0  0
    8.7040    0.1055    0.0000 N   0  0  0  0  0  0  0  0  0  0  0  0
   13.2854    0.2117    0.0000 C   0  0  0  0  0  0  0  0  0  0  0  0
   13.6520   -1.4811    0.0000 C   0  0  0  0  0  0  0  0  0  0  0  0
   14.2627    0.4234    0.0000 C   0  0  0  0  0  0  0  0  0  0  0  0
   14.6294   -1.2694    0.0000 C   0  0  0  0  0  0  0  0  0  0  0  0
   12.0027   -0.9522    0.0000 C   0  0  0  0  0  0  0  0  0  0  0  0
   11.3307   -0.2117    0.0000 C   0  0  3  0  0  0  0  0  0  0  0  0
   10.3534   -0.4234    0.0000 C   0  0  0  0  0  0  0  0  0  0  0  0
   15.9121   -0.1055    0.0000 C   0  0  0  0  0  0  0  0  0  0  0  0
    9.6814    0.3172    0.0000 C   0  0  0  0  0  0  0  0  0  0  0  0
    5.3364    1.1708    0.0000 C   0  0  0  0  0  0  0  0  0  0  0  0
    4.5274    1.7586    0.0000 C   0  0  0  0  0  0  0  0  0  0  0  0
    5.0274    0.2198    0.0000 C   0  0  0  0  0  0  0  0  0  0  0  0
   16.5841   -0.8461    0.0000 C   0  0  0  0  0  0  0  0  0  0  0  0
   16.2174    0.8467    0.0000 C   0  0  0  0  0  0  0  0  0  0  0  0
    3.7183    1.1708    0.0000 C   0  0  0  0  0  0  0  0  0  0  0  0
    4.0274    0.2198    0.0000 C   0  0  0  0  0  0  0  0  0  0  0  0
    7.0547    0.6344    0.0000 C   0  0  0  0  0  0  0  0  0  0  0  0
    6.3518    1.4031    0.0000 C   0  0  0  0  0  0  0  0  0  0  0  0
    8.0321    0.8461    0.0000 C   0  0  0  0  0  0  0  0  0  0  0  0
    5.7123   -0.5650    0.0000 C   0  0  0  0  0  0  0  0  0  0  0  0
    6.7328   -0.3563    0.0000 C   0  0  0  0  0  0  0  0  0  0  0  0
   17.5614   -0.6344    0.0000 C   0  0  0  0  0  0  0  0  0  0  0  0
   17.1947    1.0584    0.0000 C   0  0  0  0  0  0  0  0  0  0  0  0
    2.7029    1.4031    0.0000 C   0  0  0  0  0  0  0  0  0  0  0  0
    3.3424   -0.5650    0.0000 C   0  0  0  0  0  0  0  0  0  0  0  0
   17.8667    0.3178    0.0000 C   0  0  0  0  0  0  0  0  0  0  0  0
    2.0000    0.6344    0.0000 C   0  0  0  0  0  0  0  0  0  0  0  0
    2.3219   -0.3563    0.0000 C   0  0  0  0  0  0  0  0  0  0  0  0
   13.2614    0.8312    0.0000 H   0  0  0  0  0  0  0  0  0  0  0  0
   12.6711    0.2956    0.0000 H   0  0  0  0  0  0  0  0  0  0  0  0
   13.1275   -1.8117    0.0000 H   0  0  0  0  0  0  0  0  0  0  0  0
   13.8865   -2.0551    0.0000 H   0  0  0  0  0  0  0  0  0  0  0  0
   14.7873    0.7539    0.0000 H   0  0  0  0  0  0  0  0  0  0  0  0
   14.0283    0.9973    0.0000 H   0  0  0  0  0  0  0  0  0  0  0  0
   14.6534   -1.8890    0.0000 H   0  0  0  0  0  0  0  0  0  0  0  0
   15.2437   -1.3534    0.0000 H   0  0  0  0  0  0  0  0  0  0  0  0
   11.4782   -1.2828    0.0000 H   0  0  0  0  0  0  0  0  0  0  0  0
   12.2372   -1.5262    0.0000 H   0  0  0  0  0  0  0  0  0  0  0  0
   11.9367   -0.0804    0.0000 H   0  0  0  0  0  0  0  0  0  0  0  0
    9.8289   -0.7539    0.0000 H   0  0  0  0  0  0  0  0  0  0  0  0
   10.5878   -0.9973    0.0000 H   0  0  0  0  0  0  0  0  0  0  0  0
   10.2059    0.6478    0.0000 H   0  0  0  0  0  0  0  0  0  0  0  0
    9.4469    0.8912    0.0000 H   0  0  0  0  0  0  0  0  0  0  0  0
    4.9422    2.2194    0.0000 H   0  0  0  0  0  0  0  0  0  0  0  0
    4.1125    2.2194    0.0000 H   0  0  0  0  0  0  0  0  0  0  0  0
   11.2194    1.1997    0.0000 H   0  0  0  0  0  0  0  0  0  0  0  0
   15.8008    1.3059    0.0000 H   0  0  0  0  0  0  0  0  0  0  0  0
    8.5147   -0.4849    0.0000 H   0  0  0  0  0  0  0  0  0  0  0  0
    6.5365    1.9949    0.0000 H   0  0  0  0  0  0  0  0  0  0  0  0
    5.5139   -1.1524    0.0000 H   0  0  0  0  0  0  0  0  0  0  0  0
    7.1459   -0.8186    0.0000 H   0  0  0  0  0  0  0  0  0  0  0  0
   17.3841    1.6488    0.0000 H   0  0  0  0  0  0  0  0  0  0  0  0
    2.5182    1.9949    0.0000 H   0  0  0  0  0  0  0  0  0  0  0  0
    3.5408   -1.1524    0.0000 H   0  0  0  0  0  0  0  0  0  0  0  0
   18.4727    0.4491    0.0000 H   0  0  0  0  0  0  0  0  0  0  0  0
    1.3940    0.7656    0.0000 H   0  0  0  0  0  0  0  0  0  0  0  0
    1.9088   -0.8186    0.0000 H   0  0  0  0  0  0  0  0  0  0  0  0
  1 20  1  0  0  0  0
  2 29  1  0  0  0  0
  3 13  1  0  0  0  0
  3 53  1  0  0  0  0
  4 26  2  0  0  0  0
  5  8  1  0  0  0  0
  5  9  1  0  0  0  0
  5 12  1  0  0  0  0
  6 10  1  0  0  0  0
  6 11  1  0  0  0  0
  6 15  1  0  0  0  0
  7 16  1  0  0  0  0
  7 26  1  0  0  0  0
  7 55  1  0  0  0  0
  8 10  1  0  0  0  0
  8 36  1  0  0  0  0
  8 37  1  0  0  0  0
  9 11  1  0  0  0  0
  9 38  1  0  0  0  0
  9 39  1  0  0  0  0
 10 40  1  0  0  0  0
 10 41  1  0  0  0  0
 11 42  1  0  0  0  0
 11 43  1  0  0  0  0
 12 13  1  0  0  0  0
 12 44  1  0  0  0  0
 12 45  1  0  0  0  0
 13 14  1  0  0  0  0
 13 46  1  0  0  0  0
 14 16  1  0  0  0  0
 14 47  1  0  0  0  0
 14 48  1  0  0  0  0
 15 20  2  0  0  0  0
 15 21  1  0  0  0  0
 16 49  1  0  0  0  0
 16 50  1  0  0  0  0
 17 18  1  0  0  0  0
 17 19  2  0  0  0  0
 17 25  1  0  0  0  0
 18 22  1  0  0  0  0
 18 51  1  0  0  0  0
 18 52  1  0  0  0  0
 19 23  1  0  0  0  0
 19 27  1  0  0  0  0
 20 29  1  0  0  0  0
 21 30  2  0  0  0  0
 21 54  1  0  0  0  0
 22 23  1  0  0  0  0
 22 31  2  0  0  0  0
 23 32  2  0  0  0  0
 24 25  2  0  0  0  0
 24 26  1  0  0  0  0
 24 28  1  0  0  0  0
 25 56  1  0  0  0  0
 27 28  2  0  0  0  0
 27 57  1  0  0  0  0
 28 58  1  0  0  0  0
 29 33  2  0  0  0  0
 30 33  1  0  0  0  0
 30 59  1  0  0  0  0
 31 34  1  0  0  0  0
 31 60  1  0  0  0  0
 32 35  1  0  0  0  0
 32 61  1  0  0  0  0
 33 62  1  0  0  0  0
 34 35  2  0  0  0  0
 34 63  1  0  0  0  0
 35 64  1  0  0  0  0
M  END
> <PUBCHEM_COMPOUND_CID>
44427829

> <PUBCHEM_COMPOUND_CANONICALIZED>
1

> <PUBCHEM_CACTVS_COMPLEXITY>
704

> <PUBCHEM_CACTVS_HBOND_ACCEPTOR>
4

> <PUBCHEM_CACTVS_HBOND_DONOR>
2

> <PUBCHEM_CACTVS_ROTATABLE_BOND>
7

> <PUBCHEM_CACTVS_SUBSKEYS>
AAADceB7MAAGAAAAAAAAAAAAAAAAAYAAAAA8YMEAAAAAAGABUAAAHgIQCAAADB7hmCYwwIPAAgCIAiVSUACCAAAlBwAIisEIZsgKcDLBl5HUYQhilgDYyYcYiMCOwAACAAIQABSAAAQABCAAKQAACAAAAA==

> <PUBCHEM_IUPAC_OPENEYE_NAME>
N-[4-[4-(2,3-dichlorophenyl)piperazin-1-yl]-3-hydroxy-butyl]-9H-fluorene-2-carboxamide

> <PUBCHEM_IUPAC_CAS_NAME>
N-[4-[4-(2,3-dichlorophenyl)-1-piperazinyl]-3-hydroxybutyl]-9H-fluorene-2-carboxamide

> <PUBCHEM_IUPAC_NAME_MARKUP>
<I>N</I>-[4-[4-(2,3-dichlorophenyl)piperazin-1-yl]-3-hydroxybutyl]-9<I>H</I>-fluorene-2-carboxamide

> <PUBCHEM_IUPAC_NAME>
N-[4-[4-(2,3-dichlorophenyl)piperazin-1-yl]-3-hydroxybutyl]-9H-fluorene-2-carboxamide

> <PUBCHEM_IUPAC_SYSTEMATIC_NAME>
N-[4-[4-[2,3-bis(chloranyl)phenyl]piperazin-1-yl]-3-oxidanyl-butyl]-9H-fluorene-2-carboxamide

> <PUBCHEM_IUPAC_TRADITIONAL_NAME>
N-[4-[4-(2,3-dichlorophenyl)piperazino]-3-hydroxy-butyl]-9H-fluorene-2-carboxamide

> <PUBCHEM_IUPAC_INCHI>
InChI=1S/C28H29Cl2N3O2/c29-25-6-3-7-26(27(25)30)33-14-12-32(13-15-33)18-22(34)10-11-31-28(35)20-8-9-24-21(17-20)16-19-4-1-2-5-23(19)24/h1-9,17,22,34H,10-16,18H2,(H,31,35)

> <PUBCHEM_IUPAC_INCHIKEY>
RJAHNHBPWHWZAB-UHFFFAOYSA-N

> <PUBCHEM_XLOGP3_AA>
5.4

> <PUBCHEM_EXACT_MASS>
509.1636826

> <PUBCHEM_MOLECULAR_FORMULA>
C28H29Cl2N3O2

> <PUBCHEM_MOLECULAR_WEIGHT>
510.5

> <PUBCHEM_OPENEYE_CAN_SMILES>
C1CN(CCN1CC(CCNC(=O)C2=CC3=C(C=C2)C4=CC=CC=C4C3)O)C5=C(C(=CC=C5)Cl)Cl

> <PUBCHEM_OPENEYE_ISO_SMILES>
C1CN(CCN1CC(CCNC(=O)C2=CC3=C(C=C2)C4=CC=CC=C4C3)O)C5=C(C(=CC=C5)Cl)Cl

> <PUBCHEM_CACTVS_TPSA>
55.8

> <PUBCHEM_MONOISOTOPIC_WEIGHT>
509.1636826

> <PUBCHEM_TOTAL_CHARGE>
0

> <PUBCHEM_HEAVY_ATOM_COUNT>
35

> <PUBCHEM_ATOM_DEF_STEREO_COUNT>
0

> <PUBCHEM_ATOM_UDEF_STEREO_COUNT>
1

> <PUBCHEM_BOND_DEF_STEREO_COUNT>
0

> <PUBCHEM_BOND_UDEF_STEREO_COUNT>
0

> <PUBCHEM_ISOTOPIC_ATOM_COUNT>
0

> <PUBCHEM_COMPONENT_COUNT>
1

> <PUBCHEM_CACTVS_TAUTO_COUNT>
-1

> <PUBCHEM_COORDINATE_TYPE>
1
5
255

> <PUBCHEM_BONDANNOTATIONS>
15  20  8
15  21  8
17  19  8
17  25  8
19  27  8
20  29  8
21  30  8
22  23  8
22  31  8
23  32  8
24  25  8
24  28  8
27  28  8
29  33  8
13  3  3
30  33  8
31  34  8
32  35  8
34  35  8

$$$$
