44216196
  -OEChem-09292322092D

 47 49  0     0  0  0  0  0  0999 V2000
    5.0981    2.0180    0.0000 S   0  0  0  0  0  0  0  0  0  0  0  0
    3.7320    1.6519    0.0000 F   0  0  0  0  0  0  0  0  0  0  0  0
    2.0000   -3.3481    0.0000 F   0  0  0  0  0  0  0  0  0  0  0  0
    3.7320   -6.3481    0.0000 F   0  0  0  0  0  0  0  0  0  0  0  0
    5.9641    1.5180    0.0000 O   0  0  0  0  0  0  0  0  0  0  0  0
    4.2320    2.5180    0.0000 O   0  0  0  0  0  0  0  0  0  0  0  0
    4.5981   -0.8481    0.0000 N   0  0  0  0  0  0  0  0  0  0  0  0
    7.5981    6.3481    0.0000 N   0  0  0  0  0  0  0  0  0  0  0  0
    4.5981    1.1519    0.0000 C   0  0  0  0  0  0  0  0  0  0  0  0
    5.4641    0.6519    0.0000 C   0  0  0  0  0  0  0  0  0  0  0  0
    3.7320    0.6519    0.0000 C   0  0  0  0  0  0  0  0  0  0  0  0
    5.4641   -0.3481    0.0000 C   0  0  0  0  0  0  0  0  0  0  0  0
    3.7320   -0.3481    0.0000 C   0  0  0  0  0  0  0  0  0  0  0  0
    4.5981   -1.8481    0.0000 C   0  0  0  0  0  0  0  0  0  0  0  0
    5.5981    2.8840    0.0000 C   0  0  0  0  0  0  0  0  0  0  0  0
    3.7320   -2.3481    0.0000 C   0  0  0  0  0  0  0  0  0  0  0  0
    3.7320   -3.3481    0.0000 C   0  0  0  0  0  0  0  0  0  0  0  0
    6.5981    2.8840    0.0000 C   0  0  0  0  0  0  0  0  0  0  0  0
    5.0981    3.7500    0.0000 C   0  0  0  0  0  0  0  0  0  0  0  0
    7.0981    3.7500    0.0000 C   0  0  0  0  0  0  0  0  0  0  0  0
    5.5981    4.6160    0.0000 C   0  0  0  0  0  0  0  0  0  0  0  0
    2.8660   -3.8481    0.0000 C   0  0  0  0  0  0  0  0  0  0  0  0
    4.5981   -3.8481    0.0000 C   0  0  0  0  0  0  0  0  0  0  0  0
    6.5981    4.6160    0.0000 C   0  0  0  0  0  0  0  0  0  0  0  0
    2.8660   -4.8481    0.0000 C   0  0  0  0  0  0  0  0  0  0  0  0
    4.5981   -4.8481    0.0000 C   0  0  0  0  0  0  0  0  0  0  0  0
    3.7320   -5.3481    0.0000 C   0  0  0  0  0  0  0  0  0  0  0  0
    7.0981    5.4820    0.0000 C   0  0  0  0  0  0  0  0  0  0  0  0
    6.0747    0.5443    0.0000 H   0  0  0  0  0  0  0  0  0  0  0  0
    5.6762    1.2345    0.0000 H   0  0  0  0  0  0  0  0  0  0  0  0
    3.5200    1.2345    0.0000 H   0  0  0  0  0  0  0  0  0  0  0  0
    3.1215    0.5443    0.0000 H   0  0  0  0  0  0  0  0  0  0  0  0
    5.6762   -0.9307    0.0000 H   0  0  0  0  0  0  0  0  0  0  0  0
    6.0747   -0.2404    0.0000 H   0  0  0  0  0  0  0  0  0  0  0  0
    3.1215   -0.2404    0.0000 H   0  0  0  0  0  0  0  0  0  0  0  0
    3.5200   -0.9307    0.0000 H   0  0  0  0  0  0  0  0  0  0  0  0
    4.8101   -2.4307    0.0000 H   0  0  0  0  0  0  0  0  0  0  0  0
    5.2087   -1.7404    0.0000 H   0  0  0  0  0  0  0  0  0  0  0  0
    3.5200   -1.7655    0.0000 H   0  0  0  0  0  0  0  0  0  0  0  0
    3.1215   -2.4557    0.0000 H   0  0  0  0  0  0  0  0  0  0  0  0
    6.9081    2.3470    0.0000 H   0  0  0  0  0  0  0  0  0  0  0  0
    4.4781    3.7500    0.0000 H   0  0  0  0  0  0  0  0  0  0  0  0
    7.7181    3.7500    0.0000 H   0  0  0  0  0  0  0  0  0  0  0  0
    5.2881    5.1530    0.0000 H   0  0  0  0  0  0  0  0  0  0  0  0
    5.1350   -3.5381    0.0000 H   0  0  0  0  0  0  0  0  0  0  0  0
    2.3291   -5.1581    0.0000 H   0  0  0  0  0  0  0  0  0  0  0  0
    5.1350   -5.1581    0.0000 H   0  0  0  0  0  0  0  0  0  0  0  0
  1  5  2  0  0  0  0
  1  6  2  0  0  0  0
  1  9  1  0  0  0  0
  1 15  1  0  0  0  0
  2  9  1  0  0  0  0
  3 22  1  0  0  0  0
  4 27  1  0  0  0  0
  7 12  1  0  0  0  0
  7 13  1  0  0  0  0
  7 14  1  0  0  0  0
  8 28  3  0  0  0  0
  9 10  1  0  0  0  0
  9 11  1  0  0  0  0
 10 12  1  0  0  0  0
 10 29  1  0  0  0  0
 10 30  1  0  0  0  0
 11 13  1  0  0  0  0
 11 31  1  0  0  0  0
 11 32  1  0  0  0  0
 12 33  1  0  0  0  0
 12 34  1  0  0  0  0
 13 35  1  0  0  0  0
 13 36  1  0  0  0  0
 14 16  1  0  0  0  0
 14 37  1  0  0  0  0
 14 38  1  0  0  0  0
 15 18  2  0  0  0  0
 15 19  1  0  0  0  0
 16 17  1  0  0  0  0
 16 39  1  0  0  0  0
 16 40  1  0  0  0  0
 17 22  2  0  0  0  0
 17 23  1  0  0  0  0
 18 20  1  0  0  0  0
 18 41  1  0  0  0  0
 19 21  2  0  0  0  0
 19 42  1  0  0  0  0
 20 24  2  0  0  0  0
 20 43  1  0  0  0  0
 21 24  1  0  0  0  0
 21 44  1  0  0  0  0
 22 25  1  0  0  0  0
 23 26  2  0  0  0  0
 23 45  1  0  0  0  0
 24 28  1  0  0  0  0
 25 27  2  0  0  0  0
 25 46  1  0  0  0  0
 26 27  1  0  0  0  0
 26 47  1  0  0  0  0
M  END
> <PUBCHEM_COMPOUND_CID>
44216196

> <PUBCHEM_COMPOUND_CANONICALIZED>
1

> <PUBCHEM_CACTVS_COMPLEXITY>
671

> <PUBCHEM_CACTVS_HBOND_ACCEPTOR>
7

> <PUBCHEM_CACTVS_HBOND_DONOR>
0

> <PUBCHEM_CACTVS_ROTATABLE_BOND>
5

> <PUBCHEM_CACTVS_SUBSKEYS>
AAADceB7MYBAAAAAAAAAAAAAAAAAAAAAAAA8YIAAAAAAAAABQAAAHQQAAAAADADBWAwwAYMAAAqQBiBCAHBiAAAgCBAIiBgIAIgIoCKgkRGEIAAggACoiA8QgIAOEAAAAAAAAAAgAAAAAAAAAAAAAAAAAA==

> <PUBCHEM_IUPAC_OPENEYE_NAME>
4-[[1-[2-(2,4-difluorophenyl)ethyl]-4-fluoro-4-piperidyl]sulfonyl]benzonitrile

> <PUBCHEM_IUPAC_CAS_NAME>
4-[[1-[2-(2,4-difluorophenyl)ethyl]-4-fluoro-4-piperidinyl]sulfonyl]benzonitrile

> <PUBCHEM_IUPAC_NAME_MARKUP>
4-[1-[2-(2,4-difluorophenyl)ethyl]-4-fluoropiperidin-4-yl]sulfonylbenzonitrile

> <PUBCHEM_IUPAC_NAME>
4-[1-[2-(2,4-difluorophenyl)ethyl]-4-fluoropiperidin-4-yl]sulfonylbenzonitrile

> <PUBCHEM_IUPAC_SYSTEMATIC_NAME>
4-[1-[2-[2,4-bis(fluoranyl)phenyl]ethyl]-4-fluoranyl-piperidin-4-yl]sulfonylbenzenecarbonitrile

> <PUBCHEM_IUPAC_TRADITIONAL_NAME>
4-[[1-[2-(2,4-difluorophenyl)ethyl]-4-fluoro-4-piperidyl]sulfonyl]benzonitrile

> <PUBCHEM_IUPAC_INCHI>
InChI=1S/C20H19F3N2O2S/c21-17-4-3-16(19(22)13-17)7-10-25-11-8-20(23,9-12-25)28(26,27)18-5-1-15(14-24)2-6-18/h1-6,13H,7-12H2

> <PUBCHEM_IUPAC_INCHIKEY>
RPBDTRSLAXVOEM-UHFFFAOYSA-N

> <PUBCHEM_XLOGP3_AA>
3.9

> <PUBCHEM_EXACT_MASS>
408.11193351

> <PUBCHEM_MOLECULAR_FORMULA>
C20H19F3N2O2S

> <PUBCHEM_MOLECULAR_WEIGHT>
408.4

> <PUBCHEM_OPENEYE_CAN_SMILES>
C1CN(CCC1(F)S(=O)(=O)C2=CC=C(C=C2)C#N)CCC3=C(C=C(C=C3)F)F

> <PUBCHEM_OPENEYE_ISO_SMILES>
C1CN(CCC1(F)S(=O)(=O)C2=CC=C(C=C2)C#N)CCC3=C(C=C(C=C3)F)F

> <PUBCHEM_CACTVS_TPSA>
69.6

> <PUBCHEM_MONOISOTOPIC_WEIGHT>
408.11193351

> <PUBCHEM_TOTAL_CHARGE>
0

> <PUBCHEM_HEAVY_ATOM_COUNT>
28

> <PUBCHEM_ATOM_DEF_STEREO_COUNT>
0

> <PUBCHEM_ATOM_UDEF_STEREO_COUNT>
0

> <PUBCHEM_BOND_DEF_STEREO_COUNT>
0

> <PUBCHEM_BOND_UDEF_STEREO_COUNT>
0

> <PUBCHEM_ISOTOPIC_ATOM_COUNT>
0

> <PUBCHEM_COMPONENT_COUNT>
1

> <PUBCHEM_CACTVS_TAUTO_COUNT>
-1

> <PUBCHEM_COORDINATE_TYPE>
1
5
255

> <PUBCHEM_BONDANNOTATIONS>
15  18  8
15  19  8
17  22  8
17  23  8
18  20  8
19  21  8
20  24  8
21  24  8
22  25  8
23  26  8
25  27  8
26  27  8

$$$$
