53317494
  -OEChem-09292322312D

 72 73  0     0  0  0  0  0  0999 V2000
    5.6720    2.1200    0.0000 F   0  0  0  0  0  0  0  0  0  0  0  0
   14.3322   16.1200    0.0000 F   0  0  0  0  0  0  0  0  0  0  0  0
    8.2700    2.6200    0.0000 O   0  0  0  0  0  0  0  0  0  0  0  0
   13.4662    9.6200    0.0000 O   0  0  0  0  0  0  0  0  0  0  0  0
   12.6002   14.1200    0.0000 O   0  0  0  0  0  0  0  0  0  0  0  0
    0.5369    8.3513    0.0000 O   0  0  0  0  0  0  0  0  0  0  0  0
    3.1350    7.8513    0.0000 O   0  0  0  0  0  0  0  0  0  0  0  0
    1.4030    6.8513    0.0000 O   0  0  0  0  0  0  0  0  0  0  0  0
    2.2690    9.3513    0.0000 O   0  0  0  0  0  0  0  0  0  0  0  0
   10.0021    5.6200    0.0000 N   0  0  0  0  0  0  0  0  0  0  0  0
   10.0021    3.6200    0.0000 N   0  0  0  0  0  0  0  0  0  0  0  0
   11.7341    9.6200    0.0000 N   0  0  0  0  0  0  0  0  0  0  0  0
    9.1360    5.1200    0.0000 C   0  0  0  0  0  0  0  0  0  0  0  0
   10.8681    5.1200    0.0000 C   0  0  0  0  0  0  0  0  0  0  0  0
    9.1360    4.1200    0.0000 C   0  0  0  0  0  0  0  0  0  0  0  0
   10.8681    4.1200    0.0000 C   0  0  0  0  0  0  0  0  0  0  0  0
   10.0021    6.6200    0.0000 C   0  0  0  0  0  0  0  0  0  0  0  0
   10.0021    2.6200    0.0000 C   0  0  0  0  0  0  0  0  0  0  0  0
    9.1360    2.1200    0.0000 C   0  0  0  0  0  0  0  0  0  0  0  0
   10.8681    7.1200    0.0000 C   0  0  0  0  0  0  0  0  0  0  0  0
   10.8681    2.1200    0.0000 C   0  0  0  0  0  0  0  0  0  0  0  0
    9.1360    1.1200    0.0000 C   0  0  0  0  0  0  0  0  0  0  0  0
   10.8681    1.1200    0.0000 C   0  0  0  0  0  0  0  0  0  0  0  0
   10.8681    8.1200    0.0000 C   0  0  0  0  0  0  0  0  0  0  0  0
   10.0021    0.6200    0.0000 C   0  0  0  0  0  0  0  0  0  0  0  0
   11.7341    8.6200    0.0000 C   0  0  0  0  0  0  0  0  0  0  0  0
    7.4040    2.1200    0.0000 C   0  0  0  0  0  0  0  0  0  0  0  0
    6.5380    2.6200    0.0000 C   0  0  0  0  0  0  0  0  0  0  0  0
   12.6002   10.1200    0.0000 C   0  0  0  0  0  0  0  0  0  0  0  0
   12.6002   11.1200    0.0000 C   0  0  0  0  0  0  0  0  0  0  0  0
   13.4662   11.6200    0.0000 C   0  0  0  0  0  0  0  0  0  0  0  0
   11.7341   11.6200    0.0000 C   0  0  0  0  0  0  0  0  0  0  0  0
   13.4662   12.6200    0.0000 C   0  0  0  0  0  0  0  0  0  0  0  0
   11.7341   12.6200    0.0000 C   0  0  0  0  0  0  0  0  0  0  0  0
   12.6002   13.1200    0.0000 C   0  0  0  0  0  0  0  0  0  0  0  0
   13.4662   14.6200    0.0000 C   0  0  0  0  0  0  0  0  0  0  0  0
   13.4662   15.6200    0.0000 C   0  0  0  0  0  0  0  0  0  0  0  0
    1.4030    7.8513    0.0000 C   0  0  0  0  0  0  0  0  0  0  0  0
    2.2690    8.3513    0.0000 C   0  0  0  0  0  0  0  0  0  0  0  0
    8.9240    5.7026    0.0000 H   0  0  0  0  0  0  0  0  0  0  0  0
    8.5255    5.0123    0.0000 H   0  0  0  0  0  0  0  0  0  0  0  0
   11.4787    5.0123    0.0000 H   0  0  0  0  0  0  0  0  0  0  0  0
   11.0802    5.7026    0.0000 H   0  0  0  0  0  0  0  0  0  0  0  0
    8.5255    4.2277    0.0000 H   0  0  0  0  0  0  0  0  0  0  0  0
    8.9240    3.5374    0.0000 H   0  0  0  0  0  0  0  0  0  0  0  0
   11.0802    3.5374    0.0000 H   0  0  0  0  0  0  0  0  0  0  0  0
   11.4787    4.2277    0.0000 H   0  0  0  0  0  0  0  0  0  0  0  0
    9.7900    7.2026    0.0000 H   0  0  0  0  0  0  0  0  0  0  0  0
    9.3915    6.5123    0.0000 H   0  0  0  0  0  0  0  0  0  0  0  0
   11.4050    6.8100    0.0000 H   0  0  0  0  0  0  0  0  0  0  0  0
   11.4050    2.4300    0.0000 H   0  0  0  0  0  0  0  0  0  0  0  0
    8.5991    0.8100    0.0000 H   0  0  0  0  0  0  0  0  0  0  0  0
   11.4050    0.8100    0.0000 H   0  0  0  0  0  0  0  0  0  0  0  0
   10.3312    8.4300    0.0000 H   0  0  0  0  0  0  0  0  0  0  0  0
   10.0021    0.0000    0.0000 H   0  0  0  0  0  0  0  0  0  0  0  0
   11.9462    8.0374    0.0000 H   0  0  0  0  0  0  0  0  0  0  0  0
   12.3447    8.7277    0.0000 H   0  0  0  0  0  0  0  0  0  0  0  0
    7.0055    1.6450    0.0000 H   0  0  0  0  0  0  0  0  0  0  0  0
    7.8025    1.6450    0.0000 H   0  0  0  0  0  0  0  0  0  0  0  0
   11.1972    9.9300    0.0000 H   0  0  0  0  0  0  0  0  0  0  0  0
    6.9365    3.0950    0.0000 H   0  0  0  0  0  0  0  0  0  0  0  0
    6.1394    3.0950    0.0000 H   0  0  0  0  0  0  0  0  0  0  0  0
   14.0031   11.3100    0.0000 H   0  0  0  0  0  0  0  0  0  0  0  0
   11.1972   11.3100    0.0000 H   0  0  0  0  0  0  0  0  0  0  0  0
   14.0031   12.9300    0.0000 H   0  0  0  0  0  0  0  0  0  0  0  0
   11.1972   12.9300    0.0000 H   0  0  0  0  0  0  0  0  0  0  0  0
   13.6782   14.0374    0.0000 H   0  0  0  0  0  0  0  0  0  0  0  0
   14.0768   14.7277    0.0000 H   0  0  0  0  0  0  0  0  0  0  0  0
   13.2541   16.2026    0.0000 H   0  0  0  0  0  0  0  0  0  0  0  0
   12.8556   15.5123    0.0000 H   0  0  0  0  0  0  0  0  0  0  0  0
    0.0000    8.0413    0.0000 H   0  0  0  0  0  0  0  0  0  0  0  0
    3.6720    8.1613    0.0000 H   0  0  0  0  0  0  0  0  0  0  0  0
  1 28  1  0  0  0  0
  2 37  1  0  0  0  0
  3 19  1  0  0  0  0
  3 27  1  0  0  0  0
  4 29  2  0  0  0  0
  5 35  1  0  0  0  0
  5 36  1  0  0  0  0
  6 38  1  0  0  0  0
  6 71  1  0  0  0  0
  7 39  1  0  0  0  0
  7 72  1  0  0  0  0
  8 38  2  0  0  0  0
  9 39  2  0  0  0  0
 10 13  1  0  0  0  0
 10 14  1  0  0  0  0
 10 17  1  0  0  0  0
 11 15  1  0  0  0  0
 11 16  1  0  0  0  0
 11 18  1  0  0  0  0
 12 26  1  0  0  0  0
 12 29  1  0  0  0  0
 12 60  1  0  0  0  0
 13 15  1  0  0  0  0
 13 40  1  0  0  0  0
 13 41  1  0  0  0  0
 14 16  1  0  0  0  0
 14 42  1  0  0  0  0
 14 43  1  0  0  0  0
 15 44  1  0  0  0  0
 15 45  1  0  0  0  0
 16 46  1  0  0  0  0
 16 47  1  0  0  0  0
 17 20  1  0  0  0  0
 17 48  1  0  0  0  0
 17 49  1  0  0  0  0
 18 19  1  0  0  0  0
 18 21  2  0  0  0  0
 19 22  2  0  0  0  0
 20 24  2  0  0  0  0
 20 50  1  0  0  0  0
 21 23  1  0  0  0  0
 21 51  1  0  0  0  0
 22 25  1  0  0  0  0
 22 52  1  0  0  0  0
 23 25  2  0  0  0  0
 23 53  1  0  0  0  0
 24 26  1  0  0  0  0
 24 54  1  0  0  0  0
 25 55  1  0  0  0  0
 26 56  1  0  0  0  0
 26 57  1  0  0  0  0
 27 28  1  0  0  0  0
 27 58  1  0  0  0  0
 27 59  1  0  0  0  0
 28 61  1  0  0  0  0
 28 62  1  0  0  0  0
 29 30  1  0  0  0  0
 30 31  2  0  0  0  0
 30 32  1  0  0  0  0
 31 33  1  0  0  0  0
 31 63  1  0  0  0  0
 32 34  2  0  0  0  0
 32 64  1  0  0  0  0
 33 35  2  0  0  0  0
 33 65  1  0  0  0  0
 34 35  1  0  0  0  0
 34 66  1  0  0  0  0
 36 37  1  0  0  0  0
 36 67  1  0  0  0  0
 36 68  1  0  0  0  0
 37 69  1  0  0  0  0
 37 70  1  0  0  0  0
 38 39  1  0  0  0  0
M  END
> <PUBCHEM_COMPOUND_CID>
53317494

> <PUBCHEM_COMPOUND_CANONICALIZED>
1

> <PUBCHEM_CACTVS_COMPLEXITY>
651

> <PUBCHEM_CACTVS_HBOND_ACCEPTOR>
11

> <PUBCHEM_CACTVS_HBOND_DONOR>
3

> <PUBCHEM_CACTVS_ROTATABLE_BOND>
13

> <PUBCHEM_CACTVS_SUBSKEYS>
AAADcfB7OYAAAAAAAAAAAAAAAAAAAAAAAAA8YIAAAAAAAAABQAAAHwAQCAAADAzhmAYwzoPABgCIAiXSWAKCCAAlIgAIiIFPbMgPZjLEtZuXOSjk1hHZ6YeY3ALOIAAAAAAAEABAAAAAAAAgAAAAAAAAAA==

> <PUBCHEM_IUPAC_OPENEYE_NAME>
4-(2-fluoroethoxy)-N-[(E)-4-[4-[2-(2-fluoroethoxy)phenyl]piperazin-1-yl]but-2-enyl]benzamide;oxalic acid

> <PUBCHEM_IUPAC_CAS_NAME>
4-(2-fluoroethoxy)-N-[(E)-4-[4-[2-(2-fluoroethoxy)phenyl]-1-piperazinyl]but-2-enyl]benzamide;oxalic acid

> <PUBCHEM_IUPAC_NAME_MARKUP>
4-(2-fluoroethoxy)-<I>N</I>-[(<I>E</I>)-4-[4-[2-(2-fluoroethoxy)phenyl]piperazin-1-yl]but-2-enyl]benzamide;oxalic acid

> <PUBCHEM_IUPAC_NAME>
4-(2-fluoroethoxy)-N-[(E)-4-[4-[2-(2-fluoroethoxy)phenyl]piperazin-1-yl]but-2-enyl]benzamide;oxalic acid

> <PUBCHEM_IUPAC_SYSTEMATIC_NAME>
ethanedioic acid;4-(2-fluoranylethoxy)-N-[(E)-4-[4-[2-(2-fluoranylethoxy)phenyl]piperazin-1-yl]but-2-enyl]benzamide

> <PUBCHEM_IUPAC_TRADITIONAL_NAME>
4-(2-fluoroethoxy)-N-[(E)-4-[4-[2-(2-fluoroethoxy)phenyl]piperazino]but-2-enyl]benzamide;oxalic acid

> <PUBCHEM_IUPAC_INCHI>
InChI=1S/C25H31F2N3O3.C2H2O4/c26-11-19-32-22-9-7-21(8-10-22)25(31)28-13-3-4-14-29-15-17-30(18-16-29)23-5-1-2-6-24(23)33-20-12-27;3-1(4)2(5)6/h1-10H,11-20H2,(H,28,31);(H,3,4)(H,5,6)/b4-3+;

> <PUBCHEM_IUPAC_INCHIKEY>
HVRXBIUTOCOANE-BJILWQEISA-N

> <PUBCHEM_EXACT_MASS>
549.22865672

> <PUBCHEM_MOLECULAR_FORMULA>
C27H33F2N3O7

> <PUBCHEM_MOLECULAR_WEIGHT>
549.6

> <PUBCHEM_OPENEYE_CAN_SMILES>
C1CN(CCN1CC=CCNC(=O)C2=CC=C(C=C2)OCCF)C3=CC=CC=C3OCCF.C(=O)(C(=O)O)O

> <PUBCHEM_OPENEYE_ISO_SMILES>
C1CN(CCN1C/C=C/CNC(=O)C2=CC=C(C=C2)OCCF)C3=CC=CC=C3OCCF.C(=O)(C(=O)O)O

> <PUBCHEM_CACTVS_TPSA>
129

> <PUBCHEM_MONOISOTOPIC_WEIGHT>
549.22865672

> <PUBCHEM_TOTAL_CHARGE>
0

> <PUBCHEM_HEAVY_ATOM_COUNT>
39

> <PUBCHEM_ATOM_DEF_STEREO_COUNT>
0

> <PUBCHEM_ATOM_UDEF_STEREO_COUNT>
0

> <PUBCHEM_BOND_DEF_STEREO_COUNT>
1

> <PUBCHEM_BOND_UDEF_STEREO_COUNT>
0

> <PUBCHEM_ISOTOPIC_ATOM_COUNT>
0

> <PUBCHEM_COMPONENT_COUNT>
2

> <PUBCHEM_CACTVS_TAUTO_COUNT>
-1

> <PUBCHEM_COORDINATE_TYPE>
1
5
255

> <PUBCHEM_BONDANNOTATIONS>
18  19  8
18  21  8
19  22  8
21  23  8
22  25  8
23  25  8
30  31  8
30  32  8
31  33  8
32  34  8
33  35  8
34  35  8

$$$$
