44591135
  -OEChem-09292322232D

 74 78  0     1  0  0  0  0  0999 V2000
   14.1904   -4.2085    0.0000 Cl  0  0  0  0  0  0  0  0  0  0  0  0
   10.6603   -6.2327    0.0000 S   0  0  0  0  0  0  0  0  0  0  0  0
    5.4641    1.7673    0.0000 O   0  0  0  0  0  0  0  0  0  0  0  0
    3.7320    4.7673    0.0000 N   0  0  0  0  0  0  0  0  0  0  0  0
    8.9282   -1.2327    0.0000 N   0  0  3  0  0  0  0  0  0  0  0  0
    3.7320    5.7673    0.0000 C   0  0  0  0  0  0  0  0  0  0  0  0
    2.8660    4.2673    0.0000 C   0  0  0  0  0  0  0  0  0  0  0  0
    2.8660    6.2673    0.0000 C   0  0  0  0  0  0  0  0  0  0  0  0
    2.0000    4.7673    0.0000 C   0  0  0  0  0  0  0  0  0  0  0  0
    2.0000    5.7673    0.0000 C   0  0  0  0  0  0  0  0  0  0  0  0
    4.5981    4.2673    0.0000 C   0  0  0  0  0  0  0  0  0  0  0  0
    4.5981    3.2673    0.0000 C   0  0  0  0  0  0  0  0  0  0  0  0
    5.4641    2.7673    0.0000 C   0  0  0  0  0  0  0  0  0  0  0  0
    9.7942   -1.7327    0.0000 C   0  0  0  0  0  0  0  0  0  0  0  0
    6.3301    1.2673    0.0000 C   0  0  0  0  0  0  0  0  0  0  0  0
    8.9282   -0.2327    0.0000 C   0  0  0  0  0  0  0  0  0  0  0  0
    9.7942   -2.7327    0.0000 C   0  0  0  0  0  0  0  0  0  0  0  0
    8.0622    0.2673    0.0000 C   0  0  0  0  0  0  0  0  0  0  0  0
   10.6603   -4.2327    0.0000 C   0  0  0  0  0  0  0  0  0  0  0  0
   10.6603   -3.2327    0.0000 C   0  0  0  0  0  0  0  0  0  0  0  0
   11.5263   -4.7327    0.0000 C   0  0  0  0  0  0  0  0  0  0  0  0
    9.7942   -4.7327    0.0000 C   0  0  0  0  0  0  0  0  0  0  0  0
    6.3301    0.2673    0.0000 C   0  0  0  0  0  0  0  0  0  0  0  0
    7.1962    1.7673    0.0000 C   0  0  0  0  0  0  0  0  0  0  0  0
    7.1962   -0.2327    0.0000 C   0  0  0  0  0  0  0  0  0  0  0  0
    8.0622    1.2673    0.0000 C   0  0  0  0  0  0  0  0  0  0  0  0
    8.0622   -1.7327    0.0000 C   0  0  0  0  0  0  0  0  0  0  0  0
   11.5263   -5.7327    0.0000 C   0  0  0  0  0  0  0  0  0  0  0  0
    9.7942   -5.7327    0.0000 C   0  0  0  0  0  0  0  0  0  0  0  0
   12.4202   -4.1980    0.0000 C   0  0  0  0  0  0  0  0  0  0  0  0
    8.9003   -4.1980    0.0000 C   0  0  0  0  0  0  0  0  0  0  0  0
   12.4202   -6.2673    0.0000 C   0  0  0  0  0  0  0  0  0  0  0  0
    8.9003   -6.2673    0.0000 C   0  0  0  0  0  0  0  0  0  0  0  0
   13.3263   -4.7118    0.0000 C   0  0  0  0  0  0  0  0  0  0  0  0
    7.9942   -4.7118    0.0000 C   0  0  0  0  0  0  0  0  0  0  0  0
   13.3263   -5.7535    0.0000 C   0  0  0  0  0  0  0  0  0  0  0  0
    7.9942   -5.7535    0.0000 C   0  0  0  0  0  0  0  0  0  0  0  0
    4.3426    5.6597    0.0000 H   0  0  0  0  0  0  0  0  0  0  0  0
    3.9441    6.3499    0.0000 H   0  0  0  0  0  0  0  0  0  0  0  0
    2.4675    3.7924    0.0000 H   0  0  0  0  0  0  0  0  0  0  0  0
    3.2646    3.7924    0.0000 H   0  0  0  0  0  0  0  0  0  0  0  0
    3.2646    6.7423    0.0000 H   0  0  0  0  0  0  0  0  0  0  0  0
    2.4675    6.7423    0.0000 H   0  0  0  0  0  0  0  0  0  0  0  0
    1.3894    4.8750    0.0000 H   0  0  0  0  0  0  0  0  0  0  0  0
    1.7880    4.1847    0.0000 H   0  0  0  0  0  0  0  0  0  0  0  0
    1.7880    6.3499    0.0000 H   0  0  0  0  0  0  0  0  0  0  0  0
    1.3894    5.6597    0.0000 H   0  0  0  0  0  0  0  0  0  0  0  0
    5.2087    4.1597    0.0000 H   0  0  0  0  0  0  0  0  0  0  0  0
    4.8101    4.8499    0.0000 H   0  0  0  0  0  0  0  0  0  0  0  0
    3.9875    3.3750    0.0000 H   0  0  0  0  0  0  0  0  0  0  0  0
    4.3860    2.6847    0.0000 H   0  0  0  0  0  0  0  0  0  0  0  0
    6.0747    2.6597    0.0000 H   0  0  0  0  0  0  0  0  0  0  0  0
    5.6762    3.3499    0.0000 H   0  0  0  0  0  0  0  0  0  0  0  0
   10.4048   -1.8403    0.0000 H   0  0  0  0  0  0  0  0  0  0  0  0
   10.0063   -1.1501    0.0000 H   0  0  0  0  0  0  0  0  0  0  0  0
    9.5388   -0.3403    0.0000 H   0  0  0  0  0  0  0  0  0  0  0  0
    9.1403    0.3499    0.0000 H   0  0  0  0  0  0  0  0  0  0  0  0
    9.1836   -2.6250    0.0000 H   0  0  0  0  0  0  0  0  0  0  0  0
    9.5822   -3.3153    0.0000 H   0  0  0  0  0  0  0  0  0  0  0  0
   11.1972   -2.9227    0.0000 H   0  0  0  0  0  0  0  0  0  0  0  0
    5.7932   -0.0427    0.0000 H   0  0  0  0  0  0  0  0  0  0  0  0
    7.1962    2.3873    0.0000 H   0  0  0  0  0  0  0  0  0  0  0  0
    7.1962   -0.8527    0.0000 H   0  0  0  0  0  0  0  0  0  0  0  0
    8.5991    1.5773    0.0000 H   0  0  0  0  0  0  0  0  0  0  0  0
    7.7522   -1.1957    0.0000 H   0  0  0  0  0  0  0  0  0  0  0  0
    7.5252   -2.0427    0.0000 H   0  0  0  0  0  0  0  0  0  0  0  0
    8.3722   -2.2696    0.0000 H   0  0  0  0  0  0  0  0  0  0  0  0
   12.4131   -3.5780    0.0000 H   0  0  0  0  0  0  0  0  0  0  0  0
    8.9075   -3.5780    0.0000 H   0  0  0  0  0  0  0  0  0  0  0  0
   12.4131   -6.8873    0.0000 H   0  0  0  0  0  0  0  0  0  0  0  0
    8.9075   -6.8873    0.0000 H   0  0  0  0  0  0  0  0  0  0  0  0
    7.4585   -4.3998    0.0000 H   0  0  0  0  0  0  0  0  0  0  0  0
   13.8620   -6.0656    0.0000 H   0  0  0  0  0  0  0  0  0  0  0  0
    7.4585   -6.0656    0.0000 H   0  0  0  0  0  0  0  0  0  0  0  0
  1 34  1  0  0  0  0
  2 28  1  0  0  0  0
  2 29  1  0  0  0  0
  3 13  1  0  0  0  0
  3 15  1  0  0  0  0
  4  6  1  0  0  0  0
  4  7  1  0  0  0  0
  4 11  1  0  0  0  0
  5 14  1  0  0  0  0
  5 16  1  0  0  0  0
  5 27  1  0  0  0  0
  6  8  1  0  0  0  0
  6 38  1  0  0  0  0
  6 39  1  0  0  0  0
  7  9  1  0  0  0  0
  7 40  1  0  0  0  0
  7 41  1  0  0  0  0
  8 10  1  0  0  0  0
  8 42  1  0  0  0  0
  8 43  1  0  0  0  0
  9 10  1  0  0  0  0
  9 44  1  0  0  0  0
  9 45  1  0  0  0  0
 10 46  1  0  0  0  0
 10 47  1  0  0  0  0
 11 12  1  0  0  0  0
 11 48  1  0  0  0  0
 11 49  1  0  0  0  0
 12 13  1  0  0  0  0
 12 50  1  0  0  0  0
 12 51  1  0  0  0  0
 13 52  1  0  0  0  0
 13 53  1  0  0  0  0
 14 17  1  0  0  0  0
 14 54  1  0  0  0  0
 14 55  1  0  0  0  0
 15 23  2  0  0  0  0
 15 24  1  0  0  0  0
 16 18  1  0  0  0  0
 16 56  1  0  0  0  0
 16 57  1  0  0  0  0
 17 20  1  0  0  0  0
 17 58  1  0  0  0  0
 17 59  1  0  0  0  0
 18 25  2  0  0  0  0
 18 26  1  0  0  0  0
 19 20  2  0  0  0  0
 19 21  1  0  0  0  0
 19 22  1  0  0  0  0
 20 60  1  0  0  0  0
 21 28  2  0  0  0  0
 21 30  1  0  0  0  0
 22 29  1  0  0  0  0
 22 31  2  0  0  0  0
 23 25  1  0  0  0  0
 23 61  1  0  0  0  0
 24 26  2  0  0  0  0
 24 62  1  0  0  0  0
 25 63  1  0  0  0  0
 26 64  1  0  0  0  0
 27 65  1  0  0  0  0
 27 66  1  0  0  0  0
 27 67  1  0  0  0  0
 28 32  1  0  0  0  0
 29 33  2  0  0  0  0
 30 34  2  0  0  0  0
 30 68  1  0  0  0  0
 31 35  1  0  0  0  0
 31 69  1  0  0  0  0
 32 36  2  0  0  0  0
 32 70  1  0  0  0  0
 33 37  1  0  0  0  0
 33 71  1  0  0  0  0
 34 36  1  0  0  0  0
 35 37  2  0  0  0  0
 35 72  1  0  0  0  0
 36 73  1  0  0  0  0
 37 74  1  0  0  0  0
M  END
> <PUBCHEM_COMPOUND_CID>
44591135

> <PUBCHEM_COMPOUND_CANONICALIZED>
1

> <PUBCHEM_CACTVS_COMPLEXITY>
705

> <PUBCHEM_CACTVS_HBOND_ACCEPTOR>
4

> <PUBCHEM_CACTVS_HBOND_DONOR>
0

> <PUBCHEM_CACTVS_ROTATABLE_BOND>
10

> <PUBCHEM_CACTVS_SUBSKEYS>
AAADcfB/IABEAAAAAAAAAAAAAAAAAAAAAAA8aMECAAAAAACRUAAAHgYAAAAADAbh2CYyB4MABAiAAiBCAACCCAAgLRAIiBgODogMJiKlsxuGOCjmwBGoqAeQ0MIOIAIAIAAEAABABABAAAgAAAAAAAAAAA==

> <PUBCHEM_IUPAC_OPENEYE_NAME>
(3E)-3-(2-chlorothioxanthen-9-ylidene)-N-methyl-N-[[4-[3-(1-piperidyl)propoxy]phenyl]methyl]propan-1-amine

> <PUBCHEM_IUPAC_CAS_NAME>
(3E)-3-(2-chloro-9-thioxanthenylidene)-N-methyl-N-[[4-[3-(1-piperidinyl)propoxy]phenyl]methyl]-1-propanamine

> <PUBCHEM_IUPAC_NAME_MARKUP>
(3<I>E</I>)-3-(2-chlorothioxanthen-9-ylidene)-<I>N</I>-methyl-<I>N</I>-[[4-(3-piperidin-1-ylpropoxy)phenyl]methyl]propan-1-amine

> <PUBCHEM_IUPAC_NAME>
(3E)-3-(2-chlorothioxanthen-9-ylidene)-N-methyl-N-[[4-(3-piperidin-1-ylpropoxy)phenyl]methyl]propan-1-amine

> <PUBCHEM_IUPAC_SYSTEMATIC_NAME>
(3E)-3-(2-chloranylthioxanthen-9-ylidene)-N-methyl-N-[[4-(3-piperidin-1-ylpropoxy)phenyl]methyl]propan-1-amine

> <PUBCHEM_IUPAC_TRADITIONAL_NAME>
[(3E)-3-(2-chlorothioxanthen-9-ylidene)propyl]-methyl-[4-(3-piperidinopropoxy)benzyl]amine

> <PUBCHEM_IUPAC_INCHI>
InChI=1S/C32H37ClN2OS/c1-34(24-25-12-15-27(16-13-25)36-22-8-21-35-19-5-2-6-20-35)18-7-10-28-29-9-3-4-11-31(29)37-32-17-14-26(33)23-30(28)32/h3-4,9-17,23H,2,5-8,18-22,24H2,1H3/b28-10+

> <PUBCHEM_IUPAC_INCHIKEY>
DSRXHDAICZGTCK-ORBVJSQLSA-N

> <PUBCHEM_XLOGP3>
7.9

> <PUBCHEM_EXACT_MASS>
532.2315127

> <PUBCHEM_MOLECULAR_FORMULA>
C32H37ClN2OS

> <PUBCHEM_MOLECULAR_WEIGHT>
533.2

> <PUBCHEM_OPENEYE_CAN_SMILES>
CN(CCC=C1C2=CC=CC=C2SC3=C1C=C(C=C3)Cl)CC4=CC=C(C=C4)OCCCN5CCCCC5

> <PUBCHEM_OPENEYE_ISO_SMILES>
CN(CC/C=C/1\C2=CC=CC=C2SC3=C1C=C(C=C3)Cl)CC4=CC=C(C=C4)OCCCN5CCCCC5

> <PUBCHEM_CACTVS_TPSA>
41

> <PUBCHEM_MONOISOTOPIC_WEIGHT>
532.2315127

> <PUBCHEM_TOTAL_CHARGE>
0

> <PUBCHEM_HEAVY_ATOM_COUNT>
37

> <PUBCHEM_ATOM_DEF_STEREO_COUNT>
0

> <PUBCHEM_ATOM_UDEF_STEREO_COUNT>
0

> <PUBCHEM_BOND_DEF_STEREO_COUNT>
1

> <PUBCHEM_BOND_UDEF_STEREO_COUNT>
0

> <PUBCHEM_ISOTOPIC_ATOM_COUNT>
0

> <PUBCHEM_COMPONENT_COUNT>
1

> <PUBCHEM_CACTVS_TAUTO_COUNT>
-1

> <PUBCHEM_COORDINATE_TYPE>
1
5
255

> <PUBCHEM_BONDANNOTATIONS>
15  23  8
15  24  8
18  25  8
18  26  8
21  28  8
21  30  8
22  29  8
22  31  8
23  25  8
24  26  8
28  32  8
29  33  8
30  34  8
31  35  8
32  36  8
33  37  8
34  36  8
35  37  8

$$$$
