24754330
  -OEChem-09292322262D

 65 68  0     1  0  0  0  0  0999 V2000
    8.9282   -0.5000    0.0000 N   0  0  3  0  0  0  0  0  0  0  0  0
    6.3301    0.0000    0.0000 N   0  0  0  0  0  0  0  0  0  0  0  0
    4.5981    1.0000    0.0000 N   0  0  0  0  0  0  0  0  0  0  0  0
   14.1904   -0.5242    0.0000 N   0  0  0  0  0  0  0  0  0  0  0  0
    9.7942   -0.0000    0.0000 C   0  0  3  0  0  0  0  0  0  0  0  0
    9.7942    1.0000    0.0000 C   0  0  0  0  0  0  0  0  0  0  0  0
   10.6603   -0.5000    0.0000 C   0  0  0  0  0  0  0  0  0  0  0  0
    8.0622   -0.0000    0.0000 C   0  0  0  0  0  0  0  0  0  0  0  0
   10.6603    1.5000    0.0000 C   0  0  0  0  0  0  0  0  0  0  0  0
    7.1962   -0.5000    0.0000 C   0  0  0  0  0  0  0  0  0  0  0  0
   11.5263   -0.0000    0.0000 C   0  0  0  0  0  0  0  0  0  0  0  0
    8.9282   -1.5000    0.0000 C   0  0  0  0  0  0  0  0  0  0  0  0
   11.5263    1.0000    0.0000 C   0  0  0  0  0  0  0  0  0  0  0  0
    6.3301    1.0000    0.0000 C   0  0  0  0  0  0  0  0  0  0  0  0
    5.4641   -0.5000    0.0000 C   0  0  0  0  0  0  0  0  0  0  0  0
    5.4641    1.5000    0.0000 C   0  0  0  0  0  0  0  0  0  0  0  0
    4.5981    0.0000    0.0000 C   0  0  0  0  0  0  0  0  0  0  0  0
    8.0622   -2.0000    0.0000 C   0  0  0  0  0  0  0  0  0  0  0  0
   12.4202   -0.5347    0.0000 C   0  0  0  0  0  0  0  0  0  0  0  0
   12.4202    1.5347    0.0000 C   0  0  0  0  0  0  0  0  0  0  0  0
   13.3263   -0.0208    0.0000 C   0  0  0  0  0  0  0  0  0  0  0  0
    3.7320    1.5000    0.0000 C   0  0  0  0  0  0  0  0  0  0  0  0
   13.3263    1.0208    0.0000 C   0  0  0  0  0  0  0  0  0  0  0  0
    8.0622   -3.0000    0.0000 C   0  0  0  0  0  0  0  0  0  0  0  0
    2.8660    1.0000    0.0000 C   0  0  0  0  0  0  0  0  0  0  0  0
    3.7320    2.5000    0.0000 C   0  0  0  0  0  0  0  0  0  0  0  0
    2.0000    1.5000    0.0000 C   0  0  0  0  0  0  0  0  0  0  0  0
    2.8660    3.0000    0.0000 C   0  0  0  0  0  0  0  0  0  0  0  0
    2.0000    2.5000    0.0000 C   0  0  0  0  0  0  0  0  0  0  0  0
    9.2573    0.3100    0.0000 H   0  0  0  0  0  0  0  0  0  0  0  0
    9.5822    1.5826    0.0000 H   0  0  0  0  0  0  0  0  0  0  0  0
    9.1836    0.8923    0.0000 H   0  0  0  0  0  0  0  0  0  0  0  0
   10.2617   -0.9749    0.0000 H   0  0  0  0  0  0  0  0  0  0  0  0
   11.0588   -0.9749    0.0000 H   0  0  0  0  0  0  0  0  0  0  0  0
    8.4607    0.4749    0.0000 H   0  0  0  0  0  0  0  0  0  0  0  0
    7.6636    0.4749    0.0000 H   0  0  0  0  0  0  0  0  0  0  0  0
   11.0588    1.9750    0.0000 H   0  0  0  0  0  0  0  0  0  0  0  0
   10.2617    1.9750    0.0000 H   0  0  0  0  0  0  0  0  0  0  0  0
    6.7976   -0.9749    0.0000 H   0  0  0  0  0  0  0  0  0  0  0  0
    7.5947   -0.9749    0.0000 H   0  0  0  0  0  0  0  0  0  0  0  0
    9.1403   -2.0826    0.0000 H   0  0  0  0  0  0  0  0  0  0  0  0
    9.5388   -1.3923    0.0000 H   0  0  0  0  0  0  0  0  0  0  0  0
    6.9407    0.8923    0.0000 H   0  0  0  0  0  0  0  0  0  0  0  0
    6.5422    1.5826    0.0000 H   0  0  0  0  0  0  0  0  0  0  0  0
    5.0656   -0.9749    0.0000 H   0  0  0  0  0  0  0  0  0  0  0  0
    5.8626   -0.9749    0.0000 H   0  0  0  0  0  0  0  0  0  0  0  0
    5.8626    1.9750    0.0000 H   0  0  0  0  0  0  0  0  0  0  0  0
    5.0656    1.9750    0.0000 H   0  0  0  0  0  0  0  0  0  0  0  0
    3.9875    0.1077    0.0000 H   0  0  0  0  0  0  0  0  0  0  0  0
    4.3860   -0.5826    0.0000 H   0  0  0  0  0  0  0  0  0  0  0  0
    7.8501   -1.4174    0.0000 H   0  0  0  0  0  0  0  0  0  0  0  0
    7.4516   -2.1077    0.0000 H   0  0  0  0  0  0  0  0  0  0  0  0
   12.4131   -1.1546    0.0000 H   0  0  0  0  0  0  0  0  0  0  0  0
   12.4131    2.1546    0.0000 H   0  0  0  0  0  0  0  0  0  0  0  0
   13.8620    1.3329    0.0000 H   0  0  0  0  0  0  0  0  0  0  0  0
    7.4422   -3.0000    0.0000 H   0  0  0  0  0  0  0  0  0  0  0  0
    8.0622   -3.6200    0.0000 H   0  0  0  0  0  0  0  0  0  0  0  0
    8.6822   -3.0000    0.0000 H   0  0  0  0  0  0  0  0  0  0  0  0
    2.8660    0.3800    0.0000 H   0  0  0  0  0  0  0  0  0  0  0  0
    4.2690    2.8100    0.0000 H   0  0  0  0  0  0  0  0  0  0  0  0
   14.7285   -0.2162    0.0000 H   0  0  0  0  0  0  0  0  0  0  0  0
   14.1880   -1.1442    0.0000 H   0  0  0  0  0  0  0  0  0  0  0  0
    1.4631    1.1900    0.0000 H   0  0  0  0  0  0  0  0  0  0  0  0
    2.8660    3.6200    0.0000 H   0  0  0  0  0  0  0  0  0  0  0  0
    1.4631    2.8100    0.0000 H   0  0  0  0  0  0  0  0  0  0  0  0
  1  5  1  0  0  0  0
  1  8  1  0  0  0  0
  1 12  1  0  0  0  0
  2 10  1  0  0  0  0
  2 14  1  0  0  0  0
  2 15  1  0  0  0  0
  3 16  1  0  0  0  0
  3 17  1  0  0  0  0
  3 22  1  0  0  0  0
  4 21  1  0  0  0  0
  4 61  1  0  0  0  0
  4 62  1  0  0  0  0
  5  6  1  0  0  0  0
  5  7  1  0  0  0  0
  5 30  1  0  0  0  0
  6  9  1  0  0  0  0
  6 31  1  0  0  0  0
  6 32  1  0  0  0  0
  7 11  1  0  0  0  0
  7 33  1  0  0  0  0
  7 34  1  0  0  0  0
  8 10  1  0  0  0  0
  8 35  1  0  0  0  0
  8 36  1  0  0  0  0
  9 13  1  0  0  0  0
  9 37  1  0  0  0  0
  9 38  1  0  0  0  0
 10 39  1  0  0  0  0
 10 40  1  0  0  0  0
 11 13  2  0  0  0  0
 11 19  1  0  0  0  0
 12 18  1  0  0  0  0
 12 41  1  0  0  0  0
 12 42  1  0  0  0  0
 13 20  1  0  0  0  0
 14 16  1  0  0  0  0
 14 43  1  0  0  0  0
 14 44  1  0  0  0  0
 15 17  1  0  0  0  0
 15 45  1  0  0  0  0
 15 46  1  0  0  0  0
 16 47  1  0  0  0  0
 16 48  1  0  0  0  0
 17 49  1  0  0  0  0
 17 50  1  0  0  0  0
 18 24  1  0  0  0  0
 18 51  1  0  0  0  0
 18 52  1  0  0  0  0
 19 21  2  0  0  0  0
 19 53  1  0  0  0  0
 20 23  2  0  0  0  0
 20 54  1  0  0  0  0
 21 23  1  0  0  0  0
 22 25  2  0  0  0  0
 22 26  1  0  0  0  0
 23 55  1  0  0  0  0
 24 56  1  0  0  0  0
 24 57  1  0  0  0  0
 24 58  1  0  0  0  0
 25 27  1  0  0  0  0
 25 59  1  0  0  0  0
 26 28  2  0  0  0  0
 26 60  1  0  0  0  0
 27 29  2  0  0  0  0
 27 63  1  0  0  0  0
 28 29  1  0  0  0  0
 28 64  1  0  0  0  0
 29 65  1  0  0  0  0
M  END
> <PUBCHEM_COMPOUND_CID>
24754330

> <PUBCHEM_COMPOUND_CANONICALIZED>
1

> <PUBCHEM_CACTVS_COMPLEXITY>
469

> <PUBCHEM_CACTVS_HBOND_ACCEPTOR>
4

> <PUBCHEM_CACTVS_HBOND_DONOR>
1

> <PUBCHEM_CACTVS_ROTATABLE_BOND>
7

> <PUBCHEM_CACTVS_SUBSKEYS>
AAADcfB7gAAAAAAAAAAAAAAAAAAAAAAAAAA8YMEAAAAAAADBQAAAHAAQAAAADCjBGAQywINAAACAAiRCQACCAAAhAgAIiAAIZIgIYCLAkZGUIAhgkADIyAcQgIAOiAAAQAAQAAAQAACAACAAAAAAAAAAAA==

> <PUBCHEM_IUPAC_OPENEYE_NAME>
N2-[2-(4-phenylpiperazin-1-yl)ethyl]-N2-propyl-tetralin-2,7-diamine

> <PUBCHEM_IUPAC_CAS_NAME>
N2-[2-(4-phenyl-1-piperazinyl)ethyl]-N2-propyl-1,2,3,4-tetrahydronaphthalene-2,7-diamine

> <PUBCHEM_IUPAC_NAME_MARKUP>
2-<I>N</I>-[2-(4-phenylpiperazin-1-yl)ethyl]-2-<I>N</I>-propyl-1,2,3,4-tetrahydronaphthalene-2,7-diamine

> <PUBCHEM_IUPAC_NAME>
2-N-[2-(4-phenylpiperazin-1-yl)ethyl]-2-N-propyl-1,2,3,4-tetrahydronaphthalene-2,7-diamine

> <PUBCHEM_IUPAC_SYSTEMATIC_NAME>
N2-[2-(4-phenylpiperazin-1-yl)ethyl]-N2-propyl-1,2,3,4-tetrahydronaphthalene-2,7-diamine

> <PUBCHEM_IUPAC_TRADITIONAL_NAME>
(7-aminotetralin-2-yl)-[2-(4-phenylpiperazino)ethyl]-propyl-amine

> <PUBCHEM_IUPAC_INCHI>
InChI=1S/C25H36N4/c1-2-12-28(25-11-9-21-8-10-23(26)19-22(21)20-25)16-13-27-14-17-29(18-15-27)24-6-4-3-5-7-24/h3-8,10,19,25H,2,9,11-18,20,26H2,1H3

> <PUBCHEM_IUPAC_INCHIKEY>
FJXRWQLSUYHSFX-UHFFFAOYSA-N

> <PUBCHEM_XLOGP3_AA>
4.5

> <PUBCHEM_EXACT_MASS>
392.29399717

> <PUBCHEM_MOLECULAR_FORMULA>
C25H36N4

> <PUBCHEM_MOLECULAR_WEIGHT>
392.6

> <PUBCHEM_OPENEYE_CAN_SMILES>
CCCN(CCN1CCN(CC1)C2=CC=CC=C2)C3CCC4=C(C3)C=C(C=C4)N

> <PUBCHEM_OPENEYE_ISO_SMILES>
CCCN(CCN1CCN(CC1)C2=CC=CC=C2)C3CCC4=C(C3)C=C(C=C4)N

> <PUBCHEM_CACTVS_TPSA>
35.7

> <PUBCHEM_MONOISOTOPIC_WEIGHT>
392.29399717

> <PUBCHEM_TOTAL_CHARGE>
0

> <PUBCHEM_HEAVY_ATOM_COUNT>
29

> <PUBCHEM_ATOM_DEF_STEREO_COUNT>
0

> <PUBCHEM_ATOM_UDEF_STEREO_COUNT>
1

> <PUBCHEM_BOND_DEF_STEREO_COUNT>
0

> <PUBCHEM_BOND_UDEF_STEREO_COUNT>
0

> <PUBCHEM_ISOTOPIC_ATOM_COUNT>
0

> <PUBCHEM_COMPONENT_COUNT>
1

> <PUBCHEM_CACTVS_TAUTO_COUNT>
-1

> <PUBCHEM_COORDINATE_TYPE>
1
5
255

> <PUBCHEM_BONDANNOTATIONS>
5  1  3
11  13  8
11  19  8
13  20  8
19  21  8
20  23  8
21  23  8
22  25  8
22  26  8
25  27  8
26  28  8
27  29  8
28  29  8

$$$$
