72703894
  -OEChem-10012300292D

 53 57  0     0  0  0  0  0  0999 V2000
    4.4511   -0.1392    0.0000 O   0  0  0  0  0  0  0  0  0  0  0  0
    5.3171    1.3608    0.0000 N   0  0  0  0  0  0  0  0  0  0  0  0
    6.1831   -2.1392    0.0000 N   0  0  0  0  0  0  0  0  0  0  0  0
    5.3171   -3.6392    0.0000 N   0  0  0  0  0  0  0  0  0  0  0  0
    7.0492   -3.6392    0.0000 N   0  0  0  0  0  0  0  0  0  0  0  0
    4.9511    4.3906    0.0000 N   0  0  0  0  0  0  0  0  0  0  0  0
    6.1831   -0.1392    0.0000 C   0  0  0  0  0  0  0  0  0  0  0  0
    7.0492    0.3608    0.0000 C   0  0  0  0  0  0  0  0  0  0  0  0
    5.3171   -0.6392    0.0000 C   0  0  0  0  0  0  0  0  0  0  0  0
    7.0492   -0.6392    0.0000 C   0  0  0  0  0  0  0  0  0  0  0  0
    5.3171    0.3608    0.0000 C   0  0  0  0  0  0  0  0  0  0  0  0
    7.0492    1.3608    0.0000 C   0  0  0  0  0  0  0  0  0  0  0  0
    5.3171   -1.6392    0.0000 C   0  0  0  0  0  0  0  0  0  0  0  0
    7.0492   -1.6392    0.0000 C   0  0  0  0  0  0  0  0  0  0  0  0
    6.1831    1.8608    0.0000 C   0  0  0  0  0  0  0  0  0  0  0  0
    4.4511    1.8608    0.0000 C   0  0  0  0  0  0  0  0  0  0  0  0
    6.1831   -3.1392    0.0000 C   0  0  0  0  0  0  0  0  0  0  0  0
    4.4511    2.8608    0.0000 C   0  0  0  0  0  0  0  0  0  0  0  0
    3.6464    3.4444    0.0000 C   0  0  0  0  0  0  0  0  0  0  0  0
    5.2558    3.4444    0.0000 C   0  0  0  0  0  0  0  0  0  0  0  0
    3.9570    4.3949    0.0000 C   0  0  0  0  0  0  0  0  0  0  0  0
    2.6678    3.2382    0.0000 C   0  0  0  0  0  0  0  0  0  0  0  0
    5.3171   -4.6392    0.0000 C   0  0  0  0  0  0  0  0  0  0  0  0
    7.0492   -4.6392    0.0000 C   0  0  0  0  0  0  0  0  0  0  0  0
    3.2892    5.1392    0.0000 C   0  0  0  0  0  0  0  0  0  0  0  0
    6.1831   -5.1392    0.0000 C   0  0  0  0  0  0  0  0  0  0  0  0
    2.0000    3.9825    0.0000 C   0  0  0  0  0  0  0  0  0  0  0  0
    2.3107    4.9330    0.0000 C   0  0  0  0  0  0  0  0  0  0  0  0
    7.2612   -0.2218    0.0000 H   0  0  0  0  0  0  0  0  0  0  0  0
    7.6597    0.4684    0.0000 H   0  0  0  0  0  0  0  0  0  0  0  0
    5.1050   -0.0566    0.0000 H   0  0  0  0  0  0  0  0  0  0  0  0
    4.7065   -0.7469    0.0000 H   0  0  0  0  0  0  0  0  0  0  0  0
    7.6597   -0.7469    0.0000 H   0  0  0  0  0  0  0  0  0  0  0  0
    7.2612   -0.0566    0.0000 H   0  0  0  0  0  0  0  0  0  0  0  0
    7.6597    1.2531    0.0000 H   0  0  0  0  0  0  0  0  0  0  0  0
    7.2612    1.9434    0.0000 H   0  0  0  0  0  0  0  0  0  0  0  0
    4.7065   -1.5316    0.0000 H   0  0  0  0  0  0  0  0  0  0  0  0
    5.1050   -2.2218    0.0000 H   0  0  0  0  0  0  0  0  0  0  0  0
    7.2612   -2.2218    0.0000 H   0  0  0  0  0  0  0  0  0  0  0  0
    7.6597   -1.5316    0.0000 H   0  0  0  0  0  0  0  0  0  0  0  0
    6.5817    2.3357    0.0000 H   0  0  0  0  0  0  0  0  0  0  0  0
    5.7846    2.3357    0.0000 H   0  0  0  0  0  0  0  0  0  0  0  0
    3.8405    1.9684    0.0000 H   0  0  0  0  0  0  0  0  0  0  0  0
    4.2390    1.2782    0.0000 H   0  0  0  0  0  0  0  0  0  0  0  0
    5.8451    3.2518    0.0000 H   0  0  0  0  0  0  0  0  0  0  0  0
    5.3172    4.8909    0.0000 H   0  0  0  0  0  0  0  0  0  0  0  0
    2.4752    2.6488    0.0000 H   0  0  0  0  0  0  0  0  0  0  0  0
    4.7802   -4.9492    0.0000 H   0  0  0  0  0  0  0  0  0  0  0  0
    7.5861   -4.9492    0.0000 H   0  0  0  0  0  0  0  0  0  0  0  0
    3.4818    5.7285    0.0000 H   0  0  0  0  0  0  0  0  0  0  0  0
    6.1831   -5.7592    0.0000 H   0  0  0  0  0  0  0  0  0  0  0  0
    1.3933    3.8546    0.0000 H   0  0  0  0  0  0  0  0  0  0  0  0
    1.8966    5.3945    0.0000 H   0  0  0  0  0  0  0  0  0  0  0  0
  1 11  2  0  0  0  0
  2 11  1  0  0  0  0
  2 15  1  0  0  0  0
  2 16  1  0  0  0  0
  3 13  1  0  0  0  0
  3 14  1  0  0  0  0
  3 17  1  0  0  0  0
  4 17  2  0  0  0  0
  4 23  1  0  0  0  0
  5 17  1  0  0  0  0
  5 24  2  0  0  0  0
  6 20  1  0  0  0  0
  6 21  1  0  0  0  0
  6 46  1  0  0  0  0
  7  8  1  0  0  0  0
  7  9  1  0  0  0  0
  7 10  1  0  0  0  0
  7 11  1  0  0  0  0
  8 12  1  0  0  0  0
  8 29  1  0  0  0  0
  8 30  1  0  0  0  0
  9 13  1  0  0  0  0
  9 31  1  0  0  0  0
  9 32  1  0  0  0  0
 10 14  1  0  0  0  0
 10 33  1  0  0  0  0
 10 34  1  0  0  0  0
 12 15  1  0  0  0  0
 12 35  1  0  0  0  0
 12 36  1  0  0  0  0
 13 37  1  0  0  0  0
 13 38  1  0  0  0  0
 14 39  1  0  0  0  0
 14 40  1  0  0  0  0
 15 41  1  0  0  0  0
 15 42  1  0  0  0  0
 16 18  1  0  0  0  0
 16 43  1  0  0  0  0
 16 44  1  0  0  0  0
 18 19  1  0  0  0  0
 18 20  2  0  0  0  0
 19 21  1  0  0  0  0
 19 22  2  0  0  0  0
 20 45  1  0  0  0  0
 21 25  2  0  0  0  0
 22 27  1  0  0  0  0
 22 47  1  0  0  0  0
 23 26  2  0  0  0  0
 23 48  1  0  0  0  0
 24 26  1  0  0  0  0
 24 49  1  0  0  0  0
 25 28  1  0  0  0  0
 25 50  1  0  0  0  0
 26 51  1  0  0  0  0
 27 28  2  0  0  0  0
 27 52  1  0  0  0  0
 28 53  1  0  0  0  0
M  END
> <PUBCHEM_COMPOUND_CID>
72703894

> <PUBCHEM_COMPOUND_CANONICALIZED>
1

> <PUBCHEM_CACTVS_COMPLEXITY>
555

> <PUBCHEM_CACTVS_HBOND_ACCEPTOR>
4

> <PUBCHEM_CACTVS_HBOND_DONOR>
1

> <PUBCHEM_CACTVS_ROTATABLE_BOND>
3

> <PUBCHEM_CACTVS_SUBSKEYS>
AAADceB7oAAAAAAAAAAAAAAAAAAAAWAAAAA8WLEAAAAAAFgB/AAAHgAQAAAADgjBngQ90PfJkACoAzV3dACCgCkxAqAJ2aE4ZJiIKPLA2dGEJAholgLIyCccgcAPgAAAAAACAAAAAAAAAAQAAAAAAAAAAA==

> <PUBCHEM_IUPAC_OPENEYE_NAME>
2-(1H-indol-3-ylmethyl)-9-pyrimidin-2-yl-2,9-diazaspiro[5.5]undecan-1-one

> <PUBCHEM_IUPAC_CAS_NAME>
2-(1H-indol-3-ylmethyl)-9-(2-pyrimidinyl)-2,9-diazaspiro[5.5]undecan-1-one

> <PUBCHEM_IUPAC_NAME_MARKUP>
2-(1<I>H</I>-indol-3-ylmethyl)-9-pyrimidin-2-yl-2,9-diazaspiro[5.5]undecan-1-one

> <PUBCHEM_IUPAC_NAME>
2-(1H-indol-3-ylmethyl)-9-pyrimidin-2-yl-2,9-diazaspiro[5.5]undecan-1-one

> <PUBCHEM_IUPAC_SYSTEMATIC_NAME>
2-(1H-indol-3-ylmethyl)-9-pyrimidin-2-yl-2,9-diazaspiro[5.5]undecan-1-one

> <PUBCHEM_IUPAC_TRADITIONAL_NAME>
2-(1H-indol-3-ylmethyl)-9-(2-pyrimidyl)-2,9-diazaspiro[5.5]undecan-1-one

> <PUBCHEM_IUPAC_INCHI>
InChI=1S/C22H25N5O/c28-20-22(8-13-26(14-9-22)21-23-10-4-11-24-21)7-3-12-27(20)16-17-15-25-19-6-2-1-5-18(17)19/h1-2,4-6,10-11,15,25H,3,7-9,12-14,16H2

> <PUBCHEM_IUPAC_INCHIKEY>
WNAFZMXHGYEVGT-UHFFFAOYSA-N

> <PUBCHEM_XLOGP3_AA>
2.5

> <PUBCHEM_EXACT_MASS>
375.20591044

> <PUBCHEM_MOLECULAR_FORMULA>
C22H25N5O

> <PUBCHEM_MOLECULAR_WEIGHT>
375.5

> <PUBCHEM_OPENEYE_CAN_SMILES>
C1CC2(CCN(CC2)C3=NC=CC=N3)C(=O)N(C1)CC4=CNC5=CC=CC=C54

> <PUBCHEM_OPENEYE_ISO_SMILES>
C1CC2(CCN(CC2)C3=NC=CC=N3)C(=O)N(C1)CC4=CNC5=CC=CC=C54

> <PUBCHEM_CACTVS_TPSA>
65.1

> <PUBCHEM_MONOISOTOPIC_WEIGHT>
375.20591044

> <PUBCHEM_TOTAL_CHARGE>
0

> <PUBCHEM_HEAVY_ATOM_COUNT>
28

> <PUBCHEM_ATOM_DEF_STEREO_COUNT>
0

> <PUBCHEM_ATOM_UDEF_STEREO_COUNT>
0

> <PUBCHEM_BOND_DEF_STEREO_COUNT>
0

> <PUBCHEM_BOND_UDEF_STEREO_COUNT>
0

> <PUBCHEM_ISOTOPIC_ATOM_COUNT>
0

> <PUBCHEM_COMPONENT_COUNT>
1

> <PUBCHEM_CACTVS_TAUTO_COUNT>
-1

> <PUBCHEM_COORDINATE_TYPE>
1
5
255

> <PUBCHEM_BONDANNOTATIONS>
18  19  8
18  20  8
19  21  8
19  22  8
21  25  8
22  27  8
23  26  8
24  26  8
25  28  8
27  28  8
4  17  8
4  23  8
5  17  8
5  24  8
6  20  8
6  21  8

$$$$
