137634397
  -OEChem-09292322002D

 63 67  0     0  0  0  0  0  0999 V2000
    8.8271   -4.8105    0.0000 O   0  0  0  0  0  0  0  0  0  0  0  0
    5.3351    2.1549    0.0000 O   0  0  0  0  0  0  0  0  0  0  0  0
    7.0671   -7.8451    0.0000 O   0  0  0  0  0  0  0  0  0  0  0  0
   10.5973   -6.8693    0.0000 O   0  0  0  0  0  0  0  0  0  0  0  0
    4.4189    7.5658    0.0000 O   0  0  0  0  0  0  0  0  0  0  0  0
    7.0671   -1.8451    0.0000 N   0  0  0  0  0  0  0  0  0  0  0  0
    7.0671   -3.8451    0.0000 N   0  0  0  0  0  0  0  0  0  0  0  0
    8.8271   -6.8798    0.0000 N   0  0  0  0  0  0  0  0  0  0  0  0
    2.7370    3.6549    0.0000 N   0  0  0  0  0  0  0  0  0  0  0  0
    2.0000    4.3220    0.0000 N   0  0  0  0  0  0  0  0  0  0  0  0
    3.7510    6.8215    0.0000 N   0  0  0  0  0  0  0  0  0  0  0  0
    7.9332   -2.3451    0.0000 C   0  0  0  0  0  0  0  0  0  0  0  0
    6.2011   -2.3451    0.0000 C   0  0  0  0  0  0  0  0  0  0  0  0
    7.9332   -3.3451    0.0000 C   0  0  0  0  0  0  0  0  0  0  0  0
    6.2011   -3.3451    0.0000 C   0  0  0  0  0  0  0  0  0  0  0  0
    7.0671   -0.8451    0.0000 C   0  0  0  0  0  0  0  0  0  0  0  0
    6.2011   -0.3451    0.0000 C   0  0  0  0  0  0  0  0  0  0  0  0
    7.0671   -4.8451    0.0000 C   0  0  0  0  0  0  0  0  0  0  0  0
    6.2011    0.6549    0.0000 C   0  0  0  0  0  0  0  0  0  0  0  0
    7.9332   -5.3451    0.0000 C   0  0  0  0  0  0  0  0  0  0  0  0
    6.2011   -5.3451    0.0000 C   0  0  0  0  0  0  0  0  0  0  0  0
    7.9332   -6.3451    0.0000 C   0  0  0  0  0  0  0  0  0  0  0  0
    5.3351    1.1549    0.0000 C   0  0  0  0  0  0  0  0  0  0  0  0
    6.2011   -6.3451    0.0000 C   0  0  0  0  0  0  0  0  0  0  0  0
    7.0671   -6.8451    0.0000 C   0  0  0  0  0  0  0  0  0  0  0  0
    9.7332   -5.3243    0.0000 C   0  0  0  0  0  0  0  0  0  0  0  0
    9.7332   -6.3660    0.0000 C   0  0  0  0  0  0  0  0  0  0  0  0
    4.4691    2.6549    0.0000 C   0  0  0  0  0  0  0  0  0  0  0  0
    4.4691    3.6549    0.0000 C   0  0  0  0  0  0  0  0  0  0  0  0
    3.6030    4.1549    0.0000 C   0  0  0  0  0  0  0  0  0  0  0  0
    3.6030    2.1549    0.0000 C   0  0  0  0  0  0  0  0  0  0  0  0
    2.7370    2.6549    0.0000 C   0  0  0  0  0  0  0  0  0  0  0  0
    3.3938    5.1267    0.0000 C   0  0  0  0  0  0  0  0  0  0  0  0
    2.4051    5.2297    0.0000 C   0  0  0  0  0  0  0  0  0  0  0  0
    4.0617    5.8710    0.0000 C   0  0  0  0  0  0  0  0  0  0  0  0
    8.5438   -2.4528    0.0000 H   0  0  0  0  0  0  0  0  0  0  0  0
    8.1452   -1.7625    0.0000 H   0  0  0  0  0  0  0  0  0  0  0  0
    5.9891   -1.7625    0.0000 H   0  0  0  0  0  0  0  0  0  0  0  0
    5.5905   -2.4528    0.0000 H   0  0  0  0  0  0  0  0  0  0  0  0
    8.1452   -3.9277    0.0000 H   0  0  0  0  0  0  0  0  0  0  0  0
    8.5438   -3.2375    0.0000 H   0  0  0  0  0  0  0  0  0  0  0  0
    5.5905   -3.2375    0.0000 H   0  0  0  0  0  0  0  0  0  0  0  0
    5.9891   -3.9277    0.0000 H   0  0  0  0  0  0  0  0  0  0  0  0
    7.6777   -0.9528    0.0000 H   0  0  0  0  0  0  0  0  0  0  0  0
    7.2792   -0.2625    0.0000 H   0  0  0  0  0  0  0  0  0  0  0  0
    5.5905   -0.2375    0.0000 H   0  0  0  0  0  0  0  0  0  0  0  0
    5.9891   -0.9277    0.0000 H   0  0  0  0  0  0  0  0  0  0  0  0
    6.8117    0.5472    0.0000 H   0  0  0  0  0  0  0  0  0  0  0  0
    6.4132    1.2375    0.0000 H   0  0  0  0  0  0  0  0  0  0  0  0
    5.6642   -5.0351    0.0000 H   0  0  0  0  0  0  0  0  0  0  0  0
    4.7245    1.2625    0.0000 H   0  0  0  0  0  0  0  0  0  0  0  0
    5.1230    0.5723    0.0000 H   0  0  0  0  0  0  0  0  0  0  0  0
    5.6642   -6.6551    0.0000 H   0  0  0  0  0  0  0  0  0  0  0  0
    8.8199   -7.4998    0.0000 H   0  0  0  0  0  0  0  0  0  0  0  0
   10.3440   -5.4304    0.0000 H   0  0  0  0  0  0  0  0  0  0  0  0
    9.9422   -4.7406    0.0000 H   0  0  0  0  0  0  0  0  0  0  0  0
    6.5302   -8.1551    0.0000 H   0  0  0  0  0  0  0  0  0  0  0  0
    5.0060    3.9649    0.0000 H   0  0  0  0  0  0  0  0  0  0  0  0
    3.6030    1.5349    0.0000 H   0  0  0  0  0  0  0  0  0  0  0  0
    2.2001    2.3449    0.0000 H   0  0  0  0  0  0  0  0  0  0  0  0
    2.0951    5.7667    0.0000 H   0  0  0  0  0  0  0  0  0  0  0  0
    4.6684    5.7431    0.0000 H   0  0  0  0  0  0  0  0  0  0  0  0
    4.2262    8.1551    0.0000 H   0  0  0  0  0  0  0  0  0  0  0  0
  1 20  1  0  0  0  0
  1 26  1  0  0  0  0
  2 23  1  0  0  0  0
  2 28  1  0  0  0  0
  3 25  1  0  0  0  0
  3 57  1  0  0  0  0
  4 27  2  0  0  0  0
  5 11  1  0  0  0  0
  5 63  1  0  0  0  0
  6 12  1  0  0  0  0
  6 13  1  0  0  0  0
  6 16  1  0  0  0  0
  7 14  1  0  0  0  0
  7 15  1  0  0  0  0
  7 18  1  0  0  0  0
  8 22  1  0  0  0  0
  8 27  1  0  0  0  0
  8 54  1  0  0  0  0
  9 10  1  0  0  0  0
  9 30  1  0  0  0  0
  9 32  1  0  0  0  0
 10 34  2  0  0  0  0
 11 35  2  0  0  0  0
 12 14  1  0  0  0  0
 12 36  1  0  0  0  0
 12 37  1  0  0  0  0
 13 15  1  0  0  0  0
 13 38  1  0  0  0  0
 13 39  1  0  0  0  0
 14 40  1  0  0  0  0
 14 41  1  0  0  0  0
 15 42  1  0  0  0  0
 15 43  1  0  0  0  0
 16 17  1  0  0  0  0
 16 44  1  0  0  0  0
 16 45  1  0  0  0  0
 17 19  1  0  0  0  0
 17 46  1  0  0  0  0
 17 47  1  0  0  0  0
 18 20  2  0  0  0  0
 18 21  1  0  0  0  0
 19 23  1  0  0  0  0
 19 48  1  0  0  0  0
 19 49  1  0  0  0  0
 20 22  1  0  0  0  0
 21 24  2  0  0  0  0
 21 50  1  0  0  0  0
 22 25  2  0  0  0  0
 23 51  1  0  0  0  0
 23 52  1  0  0  0  0
 24 25  1  0  0  0  0
 24 53  1  0  0  0  0
 26 27  1  0  0  0  0
 26 55  1  0  0  0  0
 26 56  1  0  0  0  0
 28 29  2  0  0  0  0
 28 31  1  0  0  0  0
 29 30  1  0  0  0  0
 29 58  1  0  0  0  0
 30 33  2  0  0  0  0
 31 32  2  0  0  0  0
 31 59  1  0  0  0  0
 32 60  1  0  0  0  0
 33 34  1  0  0  0  0
 33 35  1  0  0  0  0
 34 61  1  0  0  0  0
 35 62  1  0  0  0  0
M  END
> <PUBCHEM_COMPOUND_CID>
137634397

> <PUBCHEM_COMPOUND_CANONICALIZED>
1

> <PUBCHEM_CACTVS_COMPLEXITY>
735

> <PUBCHEM_CACTVS_HBOND_ACCEPTOR>
9

> <PUBCHEM_CACTVS_HBOND_DONOR>
3

> <PUBCHEM_CACTVS_ROTATABLE_BOND>
8

> <PUBCHEM_CACTVS_SUBSKEYS>
AAADceB7uAAAAAAAAAAAAAAAAAAAAWAAAAA8WLEAAAAAAFix8AAAHgAcCAAADAzhngY8xrPYFgCqAzV3VAKSjCAxoiAY2CB/bJgOZ+LW8d+X/Cjn3B3Y+Aew8EwMAEAACAQAEAAAgAAQCAAgAAAAAAAAAA==

> <PUBCHEM_IUPAC_OPENEYE_NAME>
(3E)-5-[4-[4-(5-hydroxy-3-oxo-4H-1,4-benzoxazin-8-yl)piperazin-1-yl]butoxy]pyrazolo[1,5-a]pyridine-3-carbaldehyde oxime

> <PUBCHEM_IUPAC_CAS_NAME>
(3E)-5-[4-[4-(5-hydroxy-3-oxo-4H-1,4-benzoxazin-8-yl)-1-piperazinyl]butoxy]-3-pyrazolo[1,5-a]pyridinecarboxaldehyde oxime

> <PUBCHEM_IUPAC_NAME_MARKUP>
5-hydroxy-8-[4-[4-[3-[(<I>E</I>)-hydroxyiminomethyl]pyrazolo[1,5-a]pyridin-5-yl]oxybutyl]piperazin-1-yl]-4<I>H</I>-1,4-benzoxazin-3-one

> <PUBCHEM_IUPAC_NAME>
5-hydroxy-8-[4-[4-[3-[(E)-hydroxyiminomethyl]pyrazolo[1,5-a]pyridin-5-yl]oxybutyl]piperazin-1-yl]-4H-1,4-benzoxazin-3-one

> <PUBCHEM_IUPAC_SYSTEMATIC_NAME>
8-[4-[4-[3-[(E)-hydroxyiminomethyl]pyrazolo[1,5-a]pyridin-5-yl]oxybutyl]piperazin-1-yl]-5-oxidanyl-4H-1,4-benzoxazin-3-one

> <PUBCHEM_IUPAC_TRADITIONAL_NAME>
(3E)-5-[4-[4-(5-hydroxy-3-keto-4H-1,4-benzoxazin-8-yl)piperazino]butoxy]pyrazolo[1,5-a]pyridine-3-carbaldehyde oxime

> <PUBCHEM_IUPAC_INCHI>
InChI=1S/C24H28N6O5/c31-21-4-3-19(24-23(21)27-22(32)16-35-24)29-10-8-28(9-11-29)6-1-2-12-34-18-5-7-30-20(13-18)17(14-25-30)15-26-33/h3-5,7,13-15,31,33H,1-2,6,8-12,16H2,(H,27,32)/b26-15+

> <PUBCHEM_IUPAC_INCHIKEY>
AQCPIJGBSDFUKW-CVKSISIWSA-N

> <PUBCHEM_XLOGP3_AA>
1.7

> <PUBCHEM_EXACT_MASS>
480.21211801

> <PUBCHEM_MOLECULAR_FORMULA>
C24H28N6O5

> <PUBCHEM_MOLECULAR_WEIGHT>
480.5

> <PUBCHEM_OPENEYE_CAN_SMILES>
C1CN(CCN1CCCCOC2=CC3=C(C=NN3C=C2)C=NO)C4=C5C(=C(C=C4)O)NC(=O)CO5

> <PUBCHEM_OPENEYE_ISO_SMILES>
C1CN(CCN1CCCCOC2=CC3=C(C=NN3C=C2)/C=N/O)C4=C5C(=C(C=C4)O)NC(=O)CO5

> <PUBCHEM_CACTVS_TPSA>
124

> <PUBCHEM_MONOISOTOPIC_WEIGHT>
480.21211801

> <PUBCHEM_TOTAL_CHARGE>
0

> <PUBCHEM_HEAVY_ATOM_COUNT>
35

> <PUBCHEM_ATOM_DEF_STEREO_COUNT>
0

> <PUBCHEM_ATOM_UDEF_STEREO_COUNT>
0

> <PUBCHEM_BOND_DEF_STEREO_COUNT>
1

> <PUBCHEM_BOND_UDEF_STEREO_COUNT>
0

> <PUBCHEM_ISOTOPIC_ATOM_COUNT>
0

> <PUBCHEM_COMPONENT_COUNT>
1

> <PUBCHEM_CACTVS_TAUTO_COUNT>
-1

> <PUBCHEM_COORDINATE_TYPE>
1
5
255

> <PUBCHEM_BONDANNOTATIONS>
10  34  8
18  20  8
18  21  8
20  22  8
21  24  8
22  25  8
24  25  8
28  29  8
28  31  8
29  30  8
30  33  8
31  32  8
33  34  8
9  10  8
9  30  8
9  32  8

$$$$
