11518546
  -OEChem-09292322482D

 63 67  0     0  0  0  0  0  0999 V2000
   13.1691    2.1600    0.0000 O   0  0  0  0  0  0  0  0  0  0  0  0
   10.6723    5.2560    0.0000 O   0  0  0  0  0  0  0  0  0  0  0  0
    7.2641   -4.6718    0.0000 O   0  0  0  0  0  0  0  0  0  0  0  0
    4.6660   -6.1718    0.0000 O   0  0  0  0  0  0  0  0  0  0  0  0
    6.3981   -6.1718    0.0000 O   0  0  0  0  0  0  0  0  0  0  0  0
    8.9962    0.3281    0.0000 N   0  0  0  0  0  0  0  0  0  0  0  0
   10.7282    1.3282    0.0000 N   0  0  0  0  0  0  0  0  0  0  0  0
   12.5020    1.4230    0.0000 N   0  0  0  0  0  0  0  0  0  0  0  0
    6.3981   -3.1718    0.0000 N   0  0  0  0  0  0  0  0  0  0  0  0
    9.8622   -0.1719    0.0000 C   0  0  0  0  0  0  0  0  0  0  0  0
    8.9962    1.3282    0.0000 C   0  0  0  0  0  0  0  0  0  0  0  0
   10.7282    0.3281    0.0000 C   0  0  0  0  0  0  0  0  0  0  0  0
    9.8622    1.8282    0.0000 C   0  0  0  0  0  0  0  0  0  0  0  0
    8.1301   -0.1719    0.0000 C   0  0  0  0  0  0  0  0  0  0  0  0
    8.1301   -1.1718    0.0000 C   0  0  0  0  0  0  0  0  0  0  0  0
   11.5942    1.8282    0.0000 C   0  0  0  0  0  0  0  0  0  0  0  0
    7.2641   -1.6718    0.0000 C   0  0  0  0  0  0  0  0  0  0  0  0
   11.6973    2.8169    0.0000 C   0  0  0  0  0  0  0  0  0  0  0  0
    7.2641   -2.6718    0.0000 C   0  0  0  0  0  0  0  0  0  0  0  0
   12.6758    3.0231    0.0000 C   0  0  0  0  0  0  0  0  0  0  0  0
   11.0294    3.5612    0.0000 C   0  0  0  0  0  0  0  0  0  0  0  0
   12.9865    3.9736    0.0000 C   0  0  0  0  0  0  0  0  0  0  0  0
   11.3401    4.5117    0.0000 C   0  0  0  0  0  0  0  0  0  0  0  0
   12.3186    4.7179    0.0000 C   0  0  0  0  0  0  0  0  0  0  0  0
    6.3981   -4.1718    0.0000 C   0  0  0  0  0  0  0  0  0  0  0  0
    5.5321   -4.6718    0.0000 C   0  0  0  0  0  0  0  0  0  0  0  0
    4.6660   -4.1718    0.0000 C   0  0  0  0  0  0  0  0  0  0  0  0
    3.8000   -4.6718    0.0000 C   0  0  0  0  0  0  0  0  0  0  0  0
    5.5321   -5.6718    0.0000 C   0  0  0  0  0  0  0  0  0  0  0  0
    3.8000   -5.6718    0.0000 C   0  0  0  0  0  0  0  0  0  0  0  0
   10.9829    6.2065    0.0000 C   0  0  0  0  0  0  0  0  0  0  0  0
    2.9061   -4.1372    0.0000 C   0  0  0  0  0  0  0  0  0  0  0  0
    2.9061   -6.2065    0.0000 C   0  0  0  0  0  0  0  0  0  0  0  0
    2.0000   -4.6510    0.0000 C   0  0  0  0  0  0  0  0  0  0  0  0
    2.0000   -5.6927    0.0000 C   0  0  0  0  0  0  0  0  0  0  0  0
    9.4637   -0.6468    0.0000 H   0  0  0  0  0  0  0  0  0  0  0  0
   10.2607   -0.6468    0.0000 H   0  0  0  0  0  0  0  0  0  0  0  0
    8.7841    1.9108    0.0000 H   0  0  0  0  0  0  0  0  0  0  0  0
    8.3856    1.2205    0.0000 H   0  0  0  0  0  0  0  0  0  0  0  0
   10.9403   -0.2545    0.0000 H   0  0  0  0  0  0  0  0  0  0  0  0
   11.3388    0.4358    0.0000 H   0  0  0  0  0  0  0  0  0  0  0  0
   10.2607    2.3031    0.0000 H   0  0  0  0  0  0  0  0  0  0  0  0
    9.4637    2.3031    0.0000 H   0  0  0  0  0  0  0  0  0  0  0  0
    7.9181    0.4108    0.0000 H   0  0  0  0  0  0  0  0  0  0  0  0
    7.5196   -0.2795    0.0000 H   0  0  0  0  0  0  0  0  0  0  0  0
    8.3422   -1.7545    0.0000 H   0  0  0  0  0  0  0  0  0  0  0  0
    8.7407   -1.0642    0.0000 H   0  0  0  0  0  0  0  0  0  0  0  0
    7.0521   -1.0892    0.0000 H   0  0  0  0  0  0  0  0  0  0  0  0
    6.6535   -1.7795    0.0000 H   0  0  0  0  0  0  0  0  0  0  0  0
    7.4762   -3.2545    0.0000 H   0  0  0  0  0  0  0  0  0  0  0  0
    7.8747   -2.5642    0.0000 H   0  0  0  0  0  0  0  0  0  0  0  0
   10.4228    3.4333    0.0000 H   0  0  0  0  0  0  0  0  0  0  0  0
    5.8612   -2.8618    0.0000 H   0  0  0  0  0  0  0  0  0  0  0  0
   13.5931    4.1015    0.0000 H   0  0  0  0  0  0  0  0  0  0  0  0
   12.5112    5.3072    0.0000 H   0  0  0  0  0  0  0  0  0  0  0  0
    4.6660   -3.5518    0.0000 H   0  0  0  0  0  0  0  0  0  0  0  0
   11.5723    6.0139    0.0000 H   0  0  0  0  0  0  0  0  0  0  0  0
   11.1755    6.7958    0.0000 H   0  0  0  0  0  0  0  0  0  0  0  0
   10.3936    6.3991    0.0000 H   0  0  0  0  0  0  0  0  0  0  0  0
    2.9132   -3.5172    0.0000 H   0  0  0  0  0  0  0  0  0  0  0  0
    2.9132   -6.8265    0.0000 H   0  0  0  0  0  0  0  0  0  0  0  0
    1.4643   -4.3390    0.0000 H   0  0  0  0  0  0  0  0  0  0  0  0
    1.4643   -6.0047    0.0000 H   0  0  0  0  0  0  0  0  0  0  0  0
  1  8  1  0  0  0  0
  1 20  1  0  0  0  0
  2 23  1  0  0  0  0
  2 31  1  0  0  0  0
  3 25  2  0  0  0  0
  4 29  1  0  0  0  0
  4 30  1  0  0  0  0
  5 29  2  0  0  0  0
  6 10  1  0  0  0  0
  6 11  1  0  0  0  0
  6 14  1  0  0  0  0
  7 12  1  0  0  0  0
  7 13  1  0  0  0  0
  7 16  1  0  0  0  0
  8 16  2  0  0  0  0
  9 19  1  0  0  0  0
  9 25  1  0  0  0  0
  9 53  1  0  0  0  0
 10 12  1  0  0  0  0
 10 36  1  0  0  0  0
 10 37  1  0  0  0  0
 11 13  1  0  0  0  0
 11 38  1  0  0  0  0
 11 39  1  0  0  0  0
 12 40  1  0  0  0  0
 12 41  1  0  0  0  0
 13 42  1  0  0  0  0
 13 43  1  0  0  0  0
 14 15  1  0  0  0  0
 14 44  1  0  0  0  0
 14 45  1  0  0  0  0
 15 17  1  0  0  0  0
 15 46  1  0  0  0  0
 15 47  1  0  0  0  0
 16 18  1  0  0  0  0
 17 19  1  0  0  0  0
 17 48  1  0  0  0  0
 17 49  1  0  0  0  0
 18 20  2  0  0  0  0
 18 21  1  0  0  0  0
 19 50  1  0  0  0  0
 19 51  1  0  0  0  0
 20 22  1  0  0  0  0
 21 23  2  0  0  0  0
 21 52  1  0  0  0  0
 22 24  2  0  0  0  0
 22 54  1  0  0  0  0
 23 24  1  0  0  0  0
 24 55  1  0  0  0  0
 25 26  1  0  0  0  0
 26 27  2  0  0  0  0
 26 29  1  0  0  0  0
 27 28  1  0  0  0  0
 27 56  1  0  0  0  0
 28 30  1  0  0  0  0
 28 32  2  0  0  0  0
 30 33  2  0  0  0  0
 31 57  1  0  0  0  0
 31 58  1  0  0  0  0
 31 59  1  0  0  0  0
 32 34  1  0  0  0  0
 32 60  1  0  0  0  0
 33 35  1  0  0  0  0
 33 61  1  0  0  0  0
 34 35  2  0  0  0  0
 34 62  1  0  0  0  0
 35 63  1  0  0  0  0
M  END
> <PUBCHEM_COMPOUND_CID>
11518546

> <PUBCHEM_COMPOUND_CANONICALIZED>
1

> <PUBCHEM_CACTVS_COMPLEXITY>
784

> <PUBCHEM_CACTVS_HBOND_ACCEPTOR>
8

> <PUBCHEM_CACTVS_HBOND_DONOR>
1

> <PUBCHEM_CACTVS_ROTATABLE_BOND>
8

> <PUBCHEM_CACTVS_SUBSKEYS>
AAADceB7uAAAAAAAAAAAAAAAAAAAAWAAAAA8YIEAAAAAAFiB9AAAHgAUAAAADATBmgYzvtPQBACpAqPyegCCCAAlIAApmKEuTNqMZr7MvZuWO6jm9hvI6cf6yDCOAQABAAAIAAACAAIAABAAAAAAAAAAAA==

> <PUBCHEM_IUPAC_OPENEYE_NAME>
N-[4-[4-(5-methoxy-1,2-benzoxazol-3-yl)piperazin-1-yl]butyl]-2-oxo-chromene-3-carboxamide

> <PUBCHEM_IUPAC_CAS_NAME>
N-[4-[4-(5-methoxy-1,2-benzoxazol-3-yl)-1-piperazinyl]butyl]-2-oxo-1-benzopyran-3-carboxamide

> <PUBCHEM_IUPAC_NAME_MARKUP>
<I>N</I>-[4-[4-(5-methoxy-1,2-benzoxazol-3-yl)piperazin-1-yl]butyl]-2-oxochromene-3-carboxamide

> <PUBCHEM_IUPAC_NAME>
N-[4-[4-(5-methoxy-1,2-benzoxazol-3-yl)piperazin-1-yl]butyl]-2-oxochromene-3-carboxamide

> <PUBCHEM_IUPAC_SYSTEMATIC_NAME>
N-[4-[4-(5-methoxy-1,2-benzoxazol-3-yl)piperazin-1-yl]butyl]-2-oxidanylidene-chromene-3-carboxamide

> <PUBCHEM_IUPAC_TRADITIONAL_NAME>
2-keto-N-[4-[4-(5-methoxyindoxazen-3-yl)piperazino]butyl]chromene-3-carboxamide

> <PUBCHEM_IUPAC_INCHI>
InChI=1S/C26H28N4O5/c1-33-19-8-9-23-20(17-19)24(28-35-23)30-14-12-29(13-15-30)11-5-4-10-27-25(31)21-16-18-6-2-3-7-22(18)34-26(21)32/h2-3,6-9,16-17H,4-5,10-15H2,1H3,(H,27,31)

> <PUBCHEM_IUPAC_INCHIKEY>
HNQJFNMZAOAKHB-UHFFFAOYSA-N

> <PUBCHEM_XLOGP3_AA>
4.4

> <PUBCHEM_EXACT_MASS>
476.20597001

> <PUBCHEM_MOLECULAR_FORMULA>
C26H28N4O5

> <PUBCHEM_MOLECULAR_WEIGHT>
476.5

> <PUBCHEM_OPENEYE_CAN_SMILES>
COC1=CC2=C(C=C1)ON=C2N3CCN(CC3)CCCCNC(=O)C4=CC5=CC=CC=C5OC4=O

> <PUBCHEM_OPENEYE_ISO_SMILES>
COC1=CC2=C(C=C1)ON=C2N3CCN(CC3)CCCCNC(=O)C4=CC5=CC=CC=C5OC4=O

> <PUBCHEM_CACTVS_TPSA>
97.1

> <PUBCHEM_MONOISOTOPIC_WEIGHT>
476.20597001

> <PUBCHEM_TOTAL_CHARGE>
0

> <PUBCHEM_HEAVY_ATOM_COUNT>
35

> <PUBCHEM_ATOM_DEF_STEREO_COUNT>
0

> <PUBCHEM_ATOM_UDEF_STEREO_COUNT>
0

> <PUBCHEM_BOND_DEF_STEREO_COUNT>
0

> <PUBCHEM_BOND_UDEF_STEREO_COUNT>
0

> <PUBCHEM_ISOTOPIC_ATOM_COUNT>
0

> <PUBCHEM_COMPONENT_COUNT>
1

> <PUBCHEM_CACTVS_TAUTO_COUNT>
-1

> <PUBCHEM_COORDINATE_TYPE>
1
5
255

> <PUBCHEM_BONDANNOTATIONS>
1  20  8
1  8  8
16  18  8
18  20  8
18  21  8
20  22  8
21  23  8
22  24  8
23  24  8
26  27  8
26  29  8
27  28  8
28  30  8
28  32  8
30  33  8
32  34  8
33  35  8
34  35  8
4  29  8
4  30  8
8  16  8

$$$$
