45264551
  -OEChem-09292322192D

 50 52  0     1  0  0  0  0  0999 V2000
    6.8671    5.5600    0.0000 Cl  0  0  0  0  0  0  0  0  0  0  0  0
    1.7320   11.6200    0.0000 F   0  0  0  0  0  0  0  0  0  0  0  0
    2.5981    6.1200    0.0000 O   0  0  0  0  0  0  0  0  0  0  0  0
    0.0000    7.6200    0.0000 O   0  0  0  0  0  0  0  0  0  0  0  0
    2.5981    4.1200    0.0000 N   0  0  3  0  0  0  0  0  0  0  0  0
    1.7320    5.6200    0.0000 C   0  0  3  0  0  0  0  0  0  0  0  0
    0.8660    5.1200    0.0000 C   0  0  0  0  0  0  0  0  0  0  0  0
    2.5981    5.1200    0.0000 C   0  0  0  0  0  0  0  0  0  0  0  0
    0.8660    4.1200    0.0000 C   0  0  0  0  0  0  0  0  0  0  0  0
    1.7320    3.6200    0.0000 C   0  0  0  0  0  0  0  0  0  0  0  0
    0.8660    6.1200    0.0000 C   0  0  0  0  0  0  0  0  0  0  0  0
    3.4641    3.6200    0.0000 C   0  0  0  0  0  0  0  0  0  0  0  0
    0.8660    7.1200    0.0000 C   0  0  0  0  0  0  0  0  0  0  0  0
    1.7320    7.6200    0.0000 C   0  0  0  0  0  0  0  0  0  0  0  0
    2.5981    7.1200    0.0000 C   0  0  0  0  0  0  0  0  0  0  0  0
    3.4641    2.6200    0.0000 C   0  0  0  0  0  0  0  0  0  0  0  0
    1.7320    8.6200    0.0000 C   0  0  0  0  0  0  0  0  0  0  0  0
    4.3301    2.1200    0.0000 C   0  0  0  0  0  0  0  0  0  0  0  0
    2.5981    2.1200    0.0000 C   0  0  0  0  0  0  0  0  0  0  0  0
    0.8660    9.1200    0.0000 C   0  0  0  0  0  0  0  0  0  0  0  0
    2.5981    9.1200    0.0000 C   0  0  0  0  0  0  0  0  0  0  0  0
    4.3301    1.1200    0.0000 C   0  0  0  0  0  0  0  0  0  0  0  0
    2.5981    1.1200    0.0000 C   0  0  0  0  0  0  0  0  0  0  0  0
    3.4641    0.6200    0.0000 C   0  0  0  0  0  0  0  0  0  0  0  0
    0.8660   10.1200    0.0000 C   0  0  0  0  0  0  0  0  0  0  0  0
    2.5981   10.1200    0.0000 C   0  0  0  0  0  0  0  0  0  0  0  0
    1.7320   10.6200    0.0000 C   0  0  0  0  0  0  0  0  0  0  0  0
    0.6540    5.7026    0.0000 H   0  0  0  0  0  0  0  0  0  0  0  0
    0.2554    5.0123    0.0000 H   0  0  0  0  0  0  0  0  0  0  0  0
    3.2087    5.0123    0.0000 H   0  0  0  0  0  0  0  0  0  0  0  0
    2.8101    5.7026    0.0000 H   0  0  0  0  0  0  0  0  0  0  0  0
    0.2554    4.2277    0.0000 H   0  0  0  0  0  0  0  0  0  0  0  0
    0.6540    3.5374    0.0000 H   0  0  0  0  0  0  0  0  0  0  0  0
    1.3335    3.1450    0.0000 H   0  0  0  0  0  0  0  0  0  0  0  0
    2.1306    3.1450    0.0000 H   0  0  0  0  0  0  0  0  0  0  0  0
    0.2554    6.2277    0.0000 H   0  0  0  0  0  0  0  0  0  0  0  0
    0.6540    5.5374    0.0000 H   0  0  0  0  0  0  0  0  0  0  0  0
    4.0747    3.5123    0.0000 H   0  0  0  0  0  0  0  0  0  0  0  0
    3.6762    4.2026    0.0000 H   0  0  0  0  0  0  0  0  0  0  0  0
    3.1350    7.4300    0.0000 H   0  0  0  0  0  0  0  0  0  0  0  0
    4.8671    2.4300    0.0000 H   0  0  0  0  0  0  0  0  0  0  0  0
    2.0611    2.4300    0.0000 H   0  0  0  0  0  0  0  0  0  0  0  0
    0.3291    8.8100    0.0000 H   0  0  0  0  0  0  0  0  0  0  0  0
    3.1350    8.8100    0.0000 H   0  0  0  0  0  0  0  0  0  0  0  0
    4.8671    0.8100    0.0000 H   0  0  0  0  0  0  0  0  0  0  0  0
    2.0611    0.8100    0.0000 H   0  0  0  0  0  0  0  0  0  0  0  0
    3.4641    0.0000    0.0000 H   0  0  0  0  0  0  0  0  0  0  0  0
    0.3291   10.4300    0.0000 H   0  0  0  0  0  0  0  0  0  0  0  0
    3.1350   10.4300    0.0000 H   0  0  0  0  0  0  0  0  0  0  0  0
    7.8671    5.5600    0.0000 H   0  0  0  0  0  0  0  0  0  0  0  0
  1 50  1  0  0  0  0
  2 27  1  0  0  0  0
  3  6  1  0  0  0  0
  3 15  1  0  0  0  0
  4 13  2  0  0  0  0
  5  8  1  0  0  0  0
  5 10  1  0  0  0  0
  5 12  1  0  0  0  0
  6  7  1  0  0  0  0
  6  8  1  0  0  0  0
  6 11  1  0  0  0  0
  7  9  1  0  0  0  0
  7 28  1  0  0  0  0
  7 29  1  0  0  0  0
  8 30  1  0  0  0  0
  8 31  1  0  0  0  0
  9 10  1  0  0  0  0
  9 32  1  0  0  0  0
  9 33  1  0  0  0  0
 10 34  1  0  0  0  0
 10 35  1  0  0  0  0
 11 13  1  0  0  0  0
 11 36  1  0  0  0  0
 11 37  1  0  0  0  0
 12 16  1  0  0  0  0
 12 38  1  0  0  0  0
 12 39  1  0  0  0  0
 13 14  1  0  0  0  0
 14 15  2  0  0  0  0
 14 17  1  0  0  0  0
 15 40  1  0  0  0  0
 16 18  2  0  0  0  0
 16 19  1  0  0  0  0
 17 20  2  0  0  0  0
 17 21  1  0  0  0  0
 18 22  1  0  0  0  0
 18 41  1  0  0  0  0
 19 23  2  0  0  0  0
 19 42  1  0  0  0  0
 20 25  1  0  0  0  0
 20 43  1  0  0  0  0
 21 26  2  0  0  0  0
 21 44  1  0  0  0  0
 22 24  2  0  0  0  0
 22 45  1  0  0  0  0
 23 24  1  0  0  0  0
 23 46  1  0  0  0  0
 24 47  1  0  0  0  0
 25 27  2  0  0  0  0
 25 48  1  0  0  0  0
 26 27  1  0  0  0  0
 26 49  1  0  0  0  0
M  END
> <PUBCHEM_COMPOUND_CID>
45264551

> <PUBCHEM_COMPOUND_CANONICALIZED>
1

> <PUBCHEM_CACTVS_COMPLEXITY>
534

> <PUBCHEM_CACTVS_HBOND_ACCEPTOR>
4

> <PUBCHEM_CACTVS_HBOND_DONOR>
1

> <PUBCHEM_CACTVS_ROTATABLE_BOND>
3

> <PUBCHEM_CACTVS_SUBSKEYS>
AAADceB6MQAEAAAAAAAAAAAAAAAAAAAAAAA8YIEAAAAAAAABQAAAHwAAAAAADEThmA4wAIMABACIAqBSAACCCAAgIAAIiAEIBMgKIDaAlRGFIAhkoACYiIe8yPCOAAAAAAAAAAAAAAAAAAAAAAAAAAAAAA==

> <PUBCHEM_IUPAC_OPENEYE_NAME>
8-benzyl-3-(4-fluorophenyl)-1-oxa-8-azaspiro[5.5]undec-2-en-4-one;hydrochloride

> <PUBCHEM_IUPAC_CAS_NAME>
3-(4-fluorophenyl)-8-(phenylmethyl)-1-oxa-8-azaspiro[5.5]undec-2-en-4-one;hydrochloride

> <PUBCHEM_IUPAC_NAME_MARKUP>
8-benzyl-3-(4-fluorophenyl)-1-oxa-8-azaspiro[5.5]undec-2-en-4-one;hydrochloride

> <PUBCHEM_IUPAC_NAME>
8-benzyl-3-(4-fluorophenyl)-1-oxa-8-azaspiro[5.5]undec-2-en-4-one;hydrochloride

> <PUBCHEM_IUPAC_SYSTEMATIC_NAME>
3-(4-fluorophenyl)-8-(phenylmethyl)-1-oxa-8-azaspiro[5.5]undec-2-en-4-one;hydrochloride

> <PUBCHEM_IUPAC_TRADITIONAL_NAME>
8-benzyl-3-(4-fluorophenyl)-1-oxa-8-azaspiro[5.5]undec-2-en-4-one;hydrochloride

> <PUBCHEM_IUPAC_INCHI>
InChI=1S/C22H22FNO2.ClH/c23-19-9-7-18(8-10-19)20-15-26-22(13-21(20)25)11-4-12-24(16-22)14-17-5-2-1-3-6-17;/h1-3,5-10,15H,4,11-14,16H2;1H

> <PUBCHEM_IUPAC_INCHIKEY>
MAWHLNSDWQFZDR-UHFFFAOYSA-N

> <PUBCHEM_EXACT_MASS>
387.1401348

> <PUBCHEM_MOLECULAR_FORMULA>
C22H23ClFNO2

> <PUBCHEM_MOLECULAR_WEIGHT>
387.9

> <PUBCHEM_OPENEYE_CAN_SMILES>
C1CC2(CC(=O)C(=CO2)C3=CC=C(C=C3)F)CN(C1)CC4=CC=CC=C4.Cl

> <PUBCHEM_OPENEYE_ISO_SMILES>
C1CC2(CC(=O)C(=CO2)C3=CC=C(C=C3)F)CN(C1)CC4=CC=CC=C4.Cl

> <PUBCHEM_CACTVS_TPSA>
29.5

> <PUBCHEM_MONOISOTOPIC_WEIGHT>
387.1401348

> <PUBCHEM_TOTAL_CHARGE>
0

> <PUBCHEM_HEAVY_ATOM_COUNT>
27

> <PUBCHEM_ATOM_DEF_STEREO_COUNT>
0

> <PUBCHEM_ATOM_UDEF_STEREO_COUNT>
1

> <PUBCHEM_BOND_DEF_STEREO_COUNT>
0

> <PUBCHEM_BOND_UDEF_STEREO_COUNT>
0

> <PUBCHEM_ISOTOPIC_ATOM_COUNT>
0

> <PUBCHEM_COMPONENT_COUNT>
2

> <PUBCHEM_CACTVS_TAUTO_COUNT>
-1

> <PUBCHEM_COORDINATE_TYPE>
1
5
255

> <PUBCHEM_BONDANNOTATIONS>
16  18  8
16  19  8
17  20  8
17  21  8
18  22  8
19  23  8
20  25  8
21  26  8
22  24  8
23  24  8
25  27  8
26  27  8
6  7  3

$$$$
