134142146
  -OEChem-09292322382D

 58 61  0     0  0  0  0  0  0999 V2000
    4.6783   -5.2938    0.0000 S   0  0  0  0  0  0  0  0  0  0  0  0
    9.1206    4.3323    0.0000 O   0  0  0  0  0  0  0  0  0  0  0  0
    7.4742    4.8704    0.0000 O   0  0  0  0  0  0  0  0  0  0  0  0
    5.6103   -0.8327    0.0000 N   0  0  0  0  0  0  0  0  0  0  0  0
    7.8314    3.1756    0.0000 N   0  0  0  0  0  0  0  0  0  0  0  0
    4.9889   -2.7338    0.0000 N   0  0  0  0  0  0  0  0  0  0  0  0
    5.2619   -4.4890    0.0000 N   0  0  0  0  0  0  0  0  0  0  0  0
    7.2101    1.2745    0.0000 C   0  0  0  0  0  0  0  0  0  0  0  0
    6.8994    0.3240    0.0000 C   0  0  0  0  0  0  0  0  0  0  0  0
    8.1886    1.4807    0.0000 C   0  0  0  0  0  0  0  0  0  0  0  0
    6.5422    2.0188    0.0000 C   0  0  0  0  0  0  0  0  0  0  0  0
    5.9209    0.1178    0.0000 C   0  0  0  0  0  0  0  0  0  0  0  0
    8.4993    2.4313    0.0000 C   0  0  0  0  0  0  0  0  0  0  0  0
    6.8529    2.9693    0.0000 C   0  0  0  0  0  0  0  0  0  0  0  0
    4.6318   -1.0390    0.0000 C   0  0  0  0  0  0  0  0  0  0  0  0
    6.2781   -1.5770    0.0000 C   0  0  0  0  0  0  0  0  0  0  0  0
    4.3211   -1.9895    0.0000 C   0  0  0  0  0  0  0  0  0  0  0  0
    5.9674   -2.5276    0.0000 C   0  0  0  0  0  0  0  0  0  0  0  0
    8.1421    4.1261    0.0000 C   0  0  0  0  0  0  0  0  0  0  0  0
    4.6783   -3.6843    0.0000 C   0  0  0  0  0  0  0  0  0  0  0  0
    3.7320   -3.9890    0.0000 C   0  0  0  0  0  0  0  0  0  0  0  0
    3.7320   -4.9890    0.0000 C   0  0  0  0  0  0  0  0  0  0  0  0
    2.8660   -3.4890    0.0000 C   0  0  0  0  0  0  0  0  0  0  0  0
    9.4312    5.2828    0.0000 C   0  0  0  0  0  0  0  0  0  0  0  0
    2.8660   -5.4890    0.0000 C   0  0  0  0  0  0  0  0  0  0  0  0
    2.0000   -3.9890    0.0000 C   0  0  0  0  0  0  0  0  0  0  0  0
    2.0000   -4.9890    0.0000 C   0  0  0  0  0  0  0  0  0  0  0  0
   10.4097    5.4890    0.0000 C   0  0  0  0  0  0  0  0  0  0  0  0
    7.6242    0.8131    0.0000 H   0  0  0  0  0  0  0  0  0  0  0  0
    6.9200   -0.2957    0.0000 H   0  0  0  0  0  0  0  0  0  0  0  0
    7.5132    0.2366    0.0000 H   0  0  0  0  0  0  0  0  0  0  0  0
    8.2092    0.8611    0.0000 H   0  0  0  0  0  0  0  0  0  0  0  0
    8.8024    1.3934    0.0000 H   0  0  0  0  0  0  0  0  0  0  0  0
    5.9953    2.3108    0.0000 H   0  0  0  0  0  0  0  0  0  0  0  0
    6.1597    1.5309    0.0000 H   0  0  0  0  0  0  0  0  0  0  0  0
    5.9004    0.7374    0.0000 H   0  0  0  0  0  0  0  0  0  0  0  0
    5.3071    0.2051    0.0000 H   0  0  0  0  0  0  0  0  0  0  0  0
    9.0462    2.1392    0.0000 H   0  0  0  0  0  0  0  0  0  0  0  0
    8.8818    2.9192    0.0000 H   0  0  0  0  0  0  0  0  0  0  0  0
    6.8323    3.5890    0.0000 H   0  0  0  0  0  0  0  0  0  0  0  0
    6.2391    3.0567    0.0000 H   0  0  0  0  0  0  0  0  0  0  0  0
    4.6112   -0.4193    0.0000 H   0  0  0  0  0  0  0  0  0  0  0  0
    4.0179   -0.9516    0.0000 H   0  0  0  0  0  0  0  0  0  0  0  0
    6.8250   -1.8691    0.0000 H   0  0  0  0  0  0  0  0  0  0  0  0
    6.6607   -1.0891    0.0000 H   0  0  0  0  0  0  0  0  0  0  0  0
    3.7742   -1.6975    0.0000 H   0  0  0  0  0  0  0  0  0  0  0  0
    3.9385   -2.4774    0.0000 H   0  0  0  0  0  0  0  0  0  0  0  0
    5.9880   -3.1472    0.0000 H   0  0  0  0  0  0  0  0  0  0  0  0
    6.5812   -2.6149    0.0000 H   0  0  0  0  0  0  0  0  0  0  0  0
    2.8660   -2.8690    0.0000 H   0  0  0  0  0  0  0  0  0  0  0  0
    9.4107    5.9025    0.0000 H   0  0  0  0  0  0  0  0  0  0  0  0
    8.8174    5.3702    0.0000 H   0  0  0  0  0  0  0  0  0  0  0  0
    2.8660   -6.1090    0.0000 H   0  0  0  0  0  0  0  0  0  0  0  0
    1.4631   -3.6790    0.0000 H   0  0  0  0  0  0  0  0  0  0  0  0
    1.4631   -5.2990    0.0000 H   0  0  0  0  0  0  0  0  0  0  0  0
   10.5376    4.8824    0.0000 H   0  0  0  0  0  0  0  0  0  0  0  0
   11.0164    5.6169    0.0000 H   0  0  0  0  0  0  0  0  0  0  0  0
   10.2819    6.0957    0.0000 H   0  0  0  0  0  0  0  0  0  0  0  0
  1  7  1  0  0  0  0
  1 22  1  0  0  0  0
  2 19  1  0  0  0  0
  2 24  1  0  0  0  0
  3 19  2  0  0  0  0
  4 12  1  0  0  0  0
  4 15  1  0  0  0  0
  4 16  1  0  0  0  0
  5 13  1  0  0  0  0
  5 14  1  0  0  0  0
  5 19  1  0  0  0  0
  6 17  1  0  0  0  0
  6 18  1  0  0  0  0
  6 20  1  0  0  0  0
  7 20  2  0  0  0  0
  8  9  1  0  0  0  0
  8 10  1  0  0  0  0
  8 11  1  0  0  0  0
  8 29  1  0  0  0  0
  9 12  1  0  0  0  0
  9 30  1  0  0  0  0
  9 31  1  0  0  0  0
 10 13  1  0  0  0  0
 10 32  1  0  0  0  0
 10 33  1  0  0  0  0
 11 14  1  0  0  0  0
 11 34  1  0  0  0  0
 11 35  1  0  0  0  0
 12 36  1  0  0  0  0
 12 37  1  0  0  0  0
 13 38  1  0  0  0  0
 13 39  1  0  0  0  0
 14 40  1  0  0  0  0
 14 41  1  0  0  0  0
 15 17  1  0  0  0  0
 15 42  1  0  0  0  0
 15 43  1  0  0  0  0
 16 18  1  0  0  0  0
 16 44  1  0  0  0  0
 16 45  1  0  0  0  0
 17 46  1  0  0  0  0
 17 47  1  0  0  0  0
 18 48  1  0  0  0  0
 18 49  1  0  0  0  0
 20 21  1  0  0  0  0
 21 22  1  0  0  0  0
 21 23  2  0  0  0  0
 22 25  2  0  0  0  0
 23 26  1  0  0  0  0
 23 50  1  0  0  0  0
 24 28  1  0  0  0  0
 24 51  1  0  0  0  0
 24 52  1  0  0  0  0
 25 27  1  0  0  0  0
 25 53  1  0  0  0  0
 26 27  2  0  0  0  0
 26 54  1  0  0  0  0
 27 55  1  0  0  0  0
 28 56  1  0  0  0  0
 28 57  1  0  0  0  0
 28 58  1  0  0  0  0
M  END
> <PUBCHEM_COMPOUND_CID>
134142146

> <PUBCHEM_COMPOUND_CANONICALIZED>
1

> <PUBCHEM_CACTVS_COMPLEXITY>
507

> <PUBCHEM_CACTVS_HBOND_ACCEPTOR>
6

> <PUBCHEM_CACTVS_HBOND_DONOR>
0

> <PUBCHEM_CACTVS_ROTATABLE_BOND>
6

> <PUBCHEM_CACTVS_SUBSKEYS>
AAADceB7sABAAAAAAAAAAAAAAAAAAWAAAAA8WIAAAAAAAFgB8AAAHgQAQAAADQDh2gYzudMABACsAiJieACDABAhAABJmDgoRJiIYKLAmZGcIAxghgLIyAcQgAAOAAAAAAAEAAAAAAAAAAgAAAAAAAAAAA==

> <PUBCHEM_IUPAC_OPENEYE_NAME>
ethyl 4-[2-[4-(1,2-benzothiazol-3-yl)piperazin-1-yl]ethyl]piperidine-1-carboxylate

> <PUBCHEM_IUPAC_CAS_NAME>
4-[2-[4-(1,2-benzothiazol-3-yl)-1-piperazinyl]ethyl]-1-piperidinecarboxylic acid ethyl ester

> <PUBCHEM_IUPAC_NAME_MARKUP>
ethyl 4-[2-[4-(1,2-benzothiazol-3-yl)piperazin-1-yl]ethyl]piperidine-1-carboxylate

> <PUBCHEM_IUPAC_NAME>
ethyl 4-[2-[4-(1,2-benzothiazol-3-yl)piperazin-1-yl]ethyl]piperidine-1-carboxylate

> <PUBCHEM_IUPAC_SYSTEMATIC_NAME>
ethyl 4-[2-[4-(1,2-benzothiazol-3-yl)piperazin-1-yl]ethyl]piperidine-1-carboxylate

> <PUBCHEM_IUPAC_TRADITIONAL_NAME>
4-[2-[4-(1,2-benzothiazol-3-yl)piperazino]ethyl]piperidine-1-carboxylic acid ethyl ester

> <PUBCHEM_IUPAC_INCHI>
InChI=1S/C21H30N4O2S/c1-2-27-21(26)25-11-8-17(9-12-25)7-10-23-13-15-24(16-14-23)20-18-5-3-4-6-19(18)28-22-20/h3-6,17H,2,7-16H2,1H3

> <PUBCHEM_IUPAC_INCHIKEY>
FQEKHPKAOCFEHM-UHFFFAOYSA-N

> <PUBCHEM_XLOGP3_AA>
4

> <PUBCHEM_EXACT_MASS>
402.20894739

> <PUBCHEM_MOLECULAR_FORMULA>
C21H30N4O2S

> <PUBCHEM_MOLECULAR_WEIGHT>
402.6

> <PUBCHEM_OPENEYE_CAN_SMILES>
CCOC(=O)N1CCC(CC1)CCN2CCN(CC2)C3=NSC4=CC=CC=C43

> <PUBCHEM_OPENEYE_ISO_SMILES>
CCOC(=O)N1CCC(CC1)CCN2CCN(CC2)C3=NSC4=CC=CC=C43

> <PUBCHEM_CACTVS_TPSA>
77.2

> <PUBCHEM_MONOISOTOPIC_WEIGHT>
402.20894739

> <PUBCHEM_TOTAL_CHARGE>
0

> <PUBCHEM_HEAVY_ATOM_COUNT>
28

> <PUBCHEM_ATOM_DEF_STEREO_COUNT>
0

> <PUBCHEM_ATOM_UDEF_STEREO_COUNT>
0

> <PUBCHEM_BOND_DEF_STEREO_COUNT>
0

> <PUBCHEM_BOND_UDEF_STEREO_COUNT>
0

> <PUBCHEM_ISOTOPIC_ATOM_COUNT>
0

> <PUBCHEM_COMPONENT_COUNT>
1

> <PUBCHEM_CACTVS_TAUTO_COUNT>
-1

> <PUBCHEM_COORDINATE_TYPE>
1
5
255

> <PUBCHEM_BONDANNOTATIONS>
1  22  8
1  7  8
20  21  8
21  22  8
21  23  8
22  25  8
23  26  8
25  27  8
26  27  8
7  20  8

$$$$
