90656845
  -OEChem-09292322352D

239245  0     1  0  0  0  0  0999 V2000
   20.6228   12.6775    0.0000 S   0  0  0  0  0  0  0  0  0  0  0  0
    8.1892   -8.4305    0.0000 O   0  0  0  0  0  0  0  0  0  0  0  0
    8.9128  -11.2851    0.0000 O   0  0  0  0  0  0  0  0  0  0  0  0
   26.3292   10.8234    0.0000 O   0  0  0  0  0  0  0  0  0  0  0  0
    7.4460   -7.7614    0.0000 O   0  0  0  0  0  0  0  0  0  0  0  0
    6.3147   -8.7852    0.0000 O   0  0  0  0  0  0  0  0  0  0  0  0
   26.8644   12.4707    0.0000 O   0  0  0  0  0  0  0  0  0  0  0  0
   26.4486   14.4270    0.0000 O   0  0  0  0  0  0  0  0  0  0  0  0
    5.4245   -4.7758    0.0000 O   0  0  0  0  0  0  0  0  0  0  0  0
   11.1308   -2.9217    0.0000 O   0  0  0  0  0  0  0  0  0  0  0  0
    2.7166   -9.7852    0.0000 O   0  0  0  0  0  0  0  0  0  0  0  0
    3.5827  -11.2851    0.0000 O   0  0  0  0  0  0  0  0  0  0  0  0
    6.9993   -1.5324    0.0000 O   0  0  0  0  0  0  0  0  0  0  0  0
   18.8627   11.3988    0.0000 O   0  0  0  0  0  0  0  0  0  0  0  0
   17.7750   14.7466    0.0000 O   0  0  0  0  0  0  0  0  0  0  0  0
    7.2072   -0.5542    0.0000 O   0  0  0  0  0  0  0  0  0  0  0  0
    7.8309    2.3802    0.0000 O   0  0  0  0  0  0  0  0  0  0  0  0
   15.3200    8.4559    0.0000 O   0  0  0  0  0  0  0  0  0  0  0  0
   11.3078    6.2417    0.0000 O   0  0  0  0  0  0  0  0  0  0  0  0
    9.9410    3.9764    0.0000 O   0  0  0  0  0  0  0  0  0  0  0  0
   23.1216    9.0239    0.0000 N   0  0  3  0  0  0  0  0  0  0  0  0
    9.8834   -8.7906    0.0000 N   0  0  0  0  0  0  0  0  0  0  0  0
   24.6350   10.4633    0.0000 N   0  0  0  0  0  0  0  0  0  0  0  0
    8.0468   -9.7852    0.0000 N   0  0  0  0  0  0  0  0  0  0  0  0
    8.6050   -6.4742    0.0000 N   0  0  0  0  0  0  0  0  0  0  0  0
    7.1187   -5.1360    0.0000 N   0  0  0  0  0  0  0  0  0  0  0  0
    5.3147  -10.2851    0.0000 N   0  0  0  0  0  0  0  0  0  0  0  0
    5.4487  -13.2851    0.0000 N   0  0  0  0  0  0  0  0  0  0  0  0
    5.8403   -2.8196    0.0000 N   0  0  0  0  0  0  0  0  0  0  0  0
   18.0537   12.9865    0.0000 N   0  0  0  0  0  0  0  0  0  0  0  0
    3.4782   -7.2906    0.0000 N   0  0  0  0  0  0  0  0  0  0  0  0
    2.0000   -7.9487    0.0000 N   0  0  0  0  0  0  0  0  0  0  0  0
    4.5827  -14.7851    0.0000 N   0  0  0  0  0  0  0  0  0  0  0  0
    6.3147  -14.7851    0.0000 N   0  0  0  0  0  0  0  0  0  0  0  0
    5.5130   -0.1941    0.0000 N   0  0  0  0  0  0  0  0  0  0  0  0
    2.6327   -1.0201    0.0000 N   0  0  0  0  0  0  0  0  0  0  0  0
    2.8019    0.5891    0.0000 N   0  0  0  0  0  0  0  0  0  0  0  0
   13.6258    8.8160    0.0000 N   0  0  0  0  0  0  0  0  0  0  0  0
   24.0997    8.8160    0.0000 C   0  0  1  0  0  0  0  0  0  0  0  0
   24.2043    7.8215    0.0000 C   0  0  0  0  0  0  0  0  0  0  0  0
   23.2907    7.4148    0.0000 C   0  0  0  0  0  0  0  0  0  0  0  0
   22.6216    8.1579    0.0000 C   0  0  0  0  0  0  0  0  0  0  0  0
   24.8429    9.4852    0.0000 C   0  0  0  0  0  0  0  0  0  0  0  0
    9.7788   -9.7852    0.0000 C   0  0  1  0  0  0  0  0  0  0  0  0
   22.7148    9.9375    0.0000 C   0  0  0  0  0  0  0  0  0  0  0  0
   10.6924  -10.1919    0.0000 C   0  0  0  0  0  0  0  0  0  0  0  0
   11.3615   -9.4487    0.0000 C   0  0  0  0  0  0  0  0  0  0  0  0
   10.8615   -8.5827    0.0000 C   0  0  0  0  0  0  0  0  0  0  0  0
    9.1402   -8.1215    0.0000 C   0  0  0  0  0  0  0  0  0  0  0  0
    8.9128  -10.2851    0.0000 C   0  0  0  0  0  0  0  0  0  0  0  0
    9.3481   -7.1434    0.0000 C   0  0  2  0  0  0  0  0  0  0  0  0
   21.7203   10.0420    0.0000 C   0  0  0  0  0  0  0  0  0  0  0  0
   10.2992   -6.8343    0.0000 C   0  0  0  0  0  0  0  0  0  0  0  0
    7.1808  -10.2851    0.0000 C   0  0  1  0  0  0  0  0  0  0  0  0
   25.3781   11.1324    0.0000 C   0  0  0  0  0  0  0  0  0  0  0  0
    6.9108   -6.1141    0.0000 C   0  0  2  0  0  0  0  0  0  0  0  0
    7.1808  -11.2851    0.0000 C   0  0  0  0  0  0  0  0  0  0  0  0
    7.6539   -6.7832    0.0000 C   0  0  0  0  0  0  0  0  0  0  0  0
    5.9597   -6.4231    0.0000 C   0  0  2  0  0  0  0  0  0  0  0  0
   21.1325    9.2330    0.0000 C   0  0  0  0  0  0  0  0  0  0  0  0
   10.5071   -5.8562    0.0000 C   0  0  0  0  0  0  0  0  0  0  0  0
   25.1702   12.1106    0.0000 C   0  0  0  0  0  0  0  0  0  0  0  0
    6.3147   -9.7852    0.0000 C   0  0  0  0  0  0  0  0  0  0  0  0
    6.3147  -11.7851    0.0000 C   0  0  0  0  0  0  0  0  0  0  0  0
    5.2166   -5.7540    0.0000 C   0  0  0  0  0  0  0  0  0  0  0  0
    5.7518   -7.4013    0.0000 C   0  0  0  0  0  0  0  0  0  0  0  0
   24.2191   12.4196    0.0000 C   0  0  0  0  0  0  0  0  0  0  0  0
   25.9133   12.7797    0.0000 C   0  0  0  0  0  0  0  0  0  0  0  0
    9.7640   -5.1870    0.0000 C   0  0  0  0  0  0  0  0  0  0  0  0
   11.4581   -5.5472    0.0000 C   0  0  0  0  0  0  0  0  0  0  0  0
    6.3147  -12.7851    0.0000 C   0  0  0  0  0  0  0  0  0  0  0  0
   24.0112   13.3978    0.0000 C   0  0  0  0  0  0  0  0  0  0  0  0
    4.4487   -9.7852    0.0000 C   0  0  1  0  0  0  0  0  0  0  0  0
    4.2655   -6.0630    0.0000 C   0  0  0  0  0  0  0  0  0  0  0  0
   25.7054   13.7579    0.0000 C   0  0  0  0  0  0  0  0  0  0  0  0
    6.3755   -4.4668    0.0000 C   0  0  0  0  0  0  0  0  0  0  0  0
   24.7544   14.0669    0.0000 C   0  0  0  0  0  0  0  0  0  0  0  0
   23.0602   13.7068    0.0000 C   0  0  0  0  0  0  0  0  0  0  0  0
    9.9719   -4.2089    0.0000 C   0  0  0  0  0  0  0  0  0  0  0  0
   11.6661   -4.5690    0.0000 C   0  0  0  0  0  0  0  0  0  0  0  0
    6.5835   -3.4887    0.0000 C   0  0  2  0  0  0  0  0  0  0  0  0
    4.4487   -8.7852    0.0000 C   0  0  0  0  0  0  0  0  0  0  0  0
   10.9229   -3.8999    0.0000 C   0  0  0  0  0  0  0  0  0  0  0  0
   22.3170   13.0376    0.0000 C   0  0  0  0  0  0  0  0  0  0  0  0
    3.5827  -10.2851    0.0000 C   0  0  0  0  0  0  0  0  0  0  0  0
   21.3660   13.3467    0.0000 C   0  0  0  0  0  0  0  0  0  0  0  0
    7.5345   -3.1797    0.0000 C   0  0  0  0  0  0  0  0  0  0  0  0
    3.5827   -8.2852    0.0000 C   0  0  0  0  0  0  0  0  0  0  0  0
   27.6075   13.1398    0.0000 C   0  0  0  0  0  0  0  0  0  0  0  0
   19.6718   12.9865    0.0000 C   0  0  3  0  0  0  0  0  0  0  0  0
    5.4487  -14.2851    0.0000 C   0  0  0  0  0  0  0  0  0  0  0  0
    6.0482   -1.8414    0.0000 C   0  0  0  0  0  0  0  0  0  0  0  0
   19.3627   13.9376    0.0000 C   0  0  0  0  0  0  0  0  0  0  0  0
   26.2407   15.4051    0.0000 C   0  0  0  0  0  0  0  0  0  0  0  0
   18.8627   12.3988    0.0000 C   0  0  0  0  0  0  0  0  0  0  0  0
    5.3051   -1.1723    0.0000 C   0  0  2  0  0  0  0  0  0  0  0  0
    2.6691   -8.6919    0.0000 C   0  0  0  0  0  0  0  0  0  0  0  0
   18.3627   13.9376    0.0000 C   0  0  0  0  0  0  0  0  0  0  0  0
   17.1027   12.6775    0.0000 C   0  0  0  0  0  0  0  0  0  0  0  0
   16.8948   11.6994    0.0000 C   0  0  0  0  0  0  0  0  0  0  0  0
    4.3540   -1.4813    0.0000 C   0  0  0  0  0  0  0  0  0  0  0  0
    2.5000   -7.0827    0.0000 C   0  0  0  0  0  0  0  0  0  0  0  0
   15.9437   11.3904    0.0000 C   0  0  0  0  0  0  0  0  0  0  0  0
   15.7358   10.4122    0.0000 C   0  0  0  0  0  0  0  0  0  0  0  0
    3.6109   -0.8122    0.0000 C   0  0  0  0  0  0  0  0  0  0  0  0
   14.7847   10.1032    0.0000 C   0  0  0  0  0  0  0  0  0  0  0  0
    6.4640    0.1149    0.0000 C   0  0  0  0  0  0  0  0  0  0  0  0
    3.7154    0.1824    0.0000 C   0  0  0  0  0  0  0  0  0  0  0  0
    6.6720    1.0930    0.0000 C   0  0  0  0  0  0  0  0  0  0  0  0
   14.5768    9.1250    0.0000 C   0  0  0  0  0  0  0  0  0  0  0  0
    2.1327   -0.1540    0.0000 C   0  0  0  0  0  0  0  0  0  0  0  0
    7.6230    1.4021    0.0000 C   0  0  0  0  0  0  0  0  0  0  0  0
   13.4179    7.8379    0.0000 C   0  0  0  0  0  0  0  0  0  0  0  0
   12.4668    7.5289    0.0000 C   0  0  0  0  0  0  0  0  0  0  0  0
    8.7820    2.6892    0.0000 C   0  0  0  0  0  0  0  0  0  0  0  0
   12.2589    6.5507    0.0000 C   0  0  0  0  0  0  0  0  0  0  0  0
    8.9899    3.6674    0.0000 C   0  0  0  0  0  0  0  0  0  0  0  0
   11.0999    5.2636    0.0000 C   0  0  0  0  0  0  0  0  0  0  0  0
   10.1489    4.9545    0.0000 C   0  0  0  0  0  0  0  0  0  0  0  0
   23.9393    9.4149    0.0000 H   0  0  0  0  0  0  0  0  0  0  0  0
   24.3958    7.2319    0.0000 H   0  0  0  0  0  0  0  0  0  0  0  0
   24.8107    7.9504    0.0000 H   0  0  0  0  0  0  0  0  0  0  0  0
   22.7891    7.0504    0.0000 H   0  0  0  0  0  0  0  0  0  0  0  0
   23.6007    6.8778    0.0000 H   0  0  0  0  0  0  0  0  0  0  0  0
   22.1200    8.5224    0.0000 H   0  0  0  0  0  0  0  0  0  0  0  0
   22.2067    7.6972    0.0000 H   0  0  0  0  0  0  0  0  0  0  0  0
   25.1714    8.9594    0.0000 H   0  0  0  0  0  0  0  0  0  0  0  0
   25.4177    9.7174    0.0000 H   0  0  0  0  0  0  0  0  0  0  0  0
    9.2588   -9.4475    0.0000 H   0  0  0  0  0  0  0  0  0  0  0  0
   23.3164   10.0875    0.0000 H   0  0  0  0  0  0  0  0  0  0  0  0
   22.6716   10.5560    0.0000 H   0  0  0  0  0  0  0  0  0  0  0  0
   10.3824  -10.7288    0.0000 H   0  0  0  0  0  0  0  0  0  0  0  0
   11.1940  -10.5563    0.0000 H   0  0  0  0  0  0  0  0  0  0  0  0
   11.7764   -9.9095    0.0000 H   0  0  0  0  0  0  0  0  0  0  0  0
   11.8631   -9.0843    0.0000 H   0  0  0  0  0  0  0  0  0  0  0  0
   11.4279   -8.3305    0.0000 H   0  0  0  0  0  0  0  0  0  0  0  0
   10.6699   -7.9931    0.0000 H   0  0  0  0  0  0  0  0  0  0  0  0
   24.0453   10.6549    0.0000 H   0  0  0  0  0  0  0  0  0  0  0  0
    9.4770   -6.5369    0.0000 H   0  0  0  0  0  0  0  0  0  0  0  0
   21.4681   10.6084    0.0000 H   0  0  0  0  0  0  0  0  0  0  0  0
    8.0468   -9.1652    0.0000 H   0  0  0  0  0  0  0  0  0  0  0  0
   10.3855   -7.4483    0.0000 H   0  0  0  0  0  0  0  0  0  0  0  0
   10.9188   -6.8560    0.0000 H   0  0  0  0  0  0  0  0  0  0  0  0
    7.7177  -10.5951    0.0000 H   0  0  0  0  0  0  0  0  0  0  0  0
    8.7339   -5.8678    0.0000 H   0  0  0  0  0  0  0  0  0  0  0  0
    6.4500   -5.6992    0.0000 H   0  0  0  0  0  0  0  0  0  0  0  0
    7.3928  -11.8678    0.0000 H   0  0  0  0  0  0  0  0  0  0  0  0
    7.7913  -11.1775    0.0000 H   0  0  0  0  0  0  0  0  0  0  0  0
    5.3701   -6.6147    0.0000 H   0  0  0  0  0  0  0  0  0  0  0  0
   20.5159    9.2978    0.0000 H   0  0  0  0  0  0  0  0  0  0  0  0
   21.3847    8.6666    0.0000 H   0  0  0  0  0  0  0  0  0  0  0  0
    6.1027  -11.2025    0.0000 H   0  0  0  0  0  0  0  0  0  0  0  0
    5.7042  -11.8928    0.0000 H   0  0  0  0  0  0  0  0  0  0  0  0
    5.7051   -5.3723    0.0000 H   0  0  0  0  0  0  0  0  0  0  0  0
    4.9255   -5.2066    0.0000 H   0  0  0  0  0  0  0  0  0  0  0  0
    7.7083   -4.9444    0.0000 H   0  0  0  0  0  0  0  0  0  0  0  0
    5.1454   -7.2724    0.0000 H   0  0  0  0  0  0  0  0  0  0  0  0
    5.6229   -8.0077    0.0000 H   0  0  0  0  0  0  0  0  0  0  0  0
    6.3583   -7.5302    0.0000 H   0  0  0  0  0  0  0  0  0  0  0  0
   23.7584   12.0047    0.0000 H   0  0  0  0  0  0  0  0  0  0  0  0
    9.1743   -5.3786    0.0000 H   0  0  0  0  0  0  0  0  0  0  0  0
   11.9189   -5.9620    0.0000 H   0  0  0  0  0  0  0  0  0  0  0  0
    5.8517  -10.5951    0.0000 H   0  0  0  0  0  0  0  0  0  0  0  0
    6.5268  -13.3678    0.0000 H   0  0  0  0  0  0  0  0  0  0  0  0
    6.9253  -12.6775    0.0000 H   0  0  0  0  0  0  0  0  0  0  0  0
    4.4487  -10.4051    0.0000 H   0  0  0  0  0  0  0  0  0  0  0  0
    4.0739   -5.4734    0.0000 H   0  0  0  0  0  0  0  0  0  0  0  0
    3.6759   -6.2546    0.0000 H   0  0  0  0  0  0  0  0  0  0  0  0
    4.4571   -6.6527    0.0000 H   0  0  0  0  0  0  0  0  0  0  0  0
   24.6255   14.6733    0.0000 H   0  0  0  0  0  0  0  0  0  0  0  0
   23.3512   14.2542    0.0000 H   0  0  0  0  0  0  0  0  0  0  0  0
   22.5716   14.0885    0.0000 H   0  0  0  0  0  0  0  0  0  0  0  0
    9.5111   -3.7940    0.0000 H   0  0  0  0  0  0  0  0  0  0  0  0
   12.2557   -4.3774    0.0000 H   0  0  0  0  0  0  0  0  0  0  0  0
    5.9938   -3.6803    0.0000 H   0  0  0  0  0  0  0  0  0  0  0  0
    5.0593   -8.8928    0.0000 H   0  0  0  0  0  0  0  0  0  0  0  0
    4.6608   -8.2025    0.0000 H   0  0  0  0  0  0  0  0  0  0  0  0
   22.0259   12.4902    0.0000 H   0  0  0  0  0  0  0  0  0  0  0  0
   22.8056   12.6559    0.0000 H   0  0  0  0  0  0  0  0  0  0  0  0
   21.6570   13.8941    0.0000 H   0  0  0  0  0  0  0  0  0  0  0  0
   20.8774   13.7284    0.0000 H   0  0  0  0  0  0  0  0  0  0  0  0
    7.7261   -3.7693    0.0000 H   0  0  0  0  0  0  0  0  0  0  0  0
    8.1242   -2.9881    0.0000 H   0  0  0  0  0  0  0  0  0  0  0  0
    7.3429   -2.5900    0.0000 H   0  0  0  0  0  0  0  0  0  0  0  0
    5.2507   -3.0111    0.0000 H   0  0  0  0  0  0  0  0  0  0  0  0
   28.0224   12.6791    0.0000 H   0  0  0  0  0  0  0  0  0  0  0  0
   28.0683   13.5547    0.0000 H   0  0  0  0  0  0  0  0  0  0  0  0
   27.1927   13.6006    0.0000 H   0  0  0  0  0  0  0  0  0  0  0  0
   20.1102   13.4249    0.0000 H   0  0  0  0  0  0  0  0  0  0  0  0
   11.7205   -2.7302    0.0000 H   0  0  0  0  0  0  0  0  0  0  0  0
   19.9692   14.0665    0.0000 H   0  0  0  0  0  0  0  0  0  0  0  0
   19.2979   14.5542    0.0000 H   0  0  0  0  0  0  0  0  0  0  0  0
    3.9389   -6.8758    0.0000 H   0  0  0  0  0  0  0  0  0  0  0  0
    4.8443   -0.7574    0.0000 H   0  0  0  0  0  0  0  0  0  0  0  0
   26.8471   15.5340    0.0000 H   0  0  0  0  0  0  0  0  0  0  0  0
   26.1118   16.0116    0.0000 H   0  0  0  0  0  0  0  0  0  0  0  0
   25.6342   15.2762    0.0000 H   0  0  0  0  0  0  0  0  0  0  0  0
    2.5402   -9.2983    0.0000 H   0  0  0  0  0  0  0  0  0  0  0  0
   17.0164   13.2915    0.0000 H   0  0  0  0  0  0  0  0  0  0  0  0
   16.4830   12.6992    0.0000 H   0  0  0  0  0  0  0  0  0  0  0  0
    2.1797  -10.0951    0.0000 H   0  0  0  0  0  0  0  0  0  0  0  0
   16.9810   11.0854    0.0000 H   0  0  0  0  0  0  0  0  0  0  0  0
   17.5144   11.6777    0.0000 H   0  0  0  0  0  0  0  0  0  0  0  0
    3.8654   -1.8630    0.0000 H   0  0  0  0  0  0  0  0  0  0  0  0
    4.6451   -2.0287    0.0000 H   0  0  0  0  0  0  0  0  0  0  0  0
    2.2478   -6.5163    0.0000 H   0  0  0  0  0  0  0  0  0  0  0  0
   15.8574   12.0043    0.0000 H   0  0  0  0  0  0  0  0  0  0  0  0
   15.3241   11.4120    0.0000 H   0  0  0  0  0  0  0  0  0  0  0  0
    4.5827  -15.4051    0.0000 H   0  0  0  0  0  0  0  0  0  0  0  0
    4.0457  -14.4751    0.0000 H   0  0  0  0  0  0  0  0  0  0  0  0
    6.3147  -15.4051    0.0000 H   0  0  0  0  0  0  0  0  0  0  0  0
    6.8517  -14.4751    0.0000 H   0  0  0  0  0  0  0  0  0  0  0  0
    5.0522    0.2207    0.0000 H   0  0  0  0  0  0  0  0  0  0  0  0
   15.8221    9.7982    0.0000 H   0  0  0  0  0  0  0  0  0  0  0  0
   16.3554   10.3906    0.0000 H   0  0  0  0  0  0  0  0  0  0  0  0
   14.6984   10.7172    0.0000 H   0  0  0  0  0  0  0  0  0  0  0  0
   14.1651   10.1248    0.0000 H   0  0  0  0  0  0  0  0  0  0  0  0
    2.3806   -1.5865    0.0000 H   0  0  0  0  0  0  0  0  0  0  0  0
    4.2523    0.4924    0.0000 H   0  0  0  0  0  0  0  0  0  0  0  0
    6.5857    1.7070    0.0000 H   0  0  0  0  0  0  0  0  0  0  0  0
    6.0523    1.1147    0.0000 H   0  0  0  0  0  0  0  0  0  0  0  0
    1.5161   -0.0892    0.0000 H   0  0  0  0  0  0  0  0  0  0  0  0
    7.7093    0.7881    0.0000 H   0  0  0  0  0  0  0  0  0  0  0  0
    8.2426    1.3804    0.0000 H   0  0  0  0  0  0  0  0  0  0  0  0
   13.1650    9.2309    0.0000 H   0  0  0  0  0  0  0  0  0  0  0  0
   13.5041    7.2239    0.0000 H   0  0  0  0  0  0  0  0  0  0  0  0
   14.0375    7.8162    0.0000 H   0  0  0  0  0  0  0  0  0  0  0  0
   12.3805    8.1428    0.0000 H   0  0  0  0  0  0  0  0  0  0  0  0
   11.8472    7.5505    0.0000 H   0  0  0  0  0  0  0  0  0  0  0  0
   12.3452    5.9368    0.0000 H   0  0  0  0  0  0  0  0  0  0  0  0
   12.8785    6.5291    0.0000 H   0  0  0  0  0  0  0  0  0  0  0  0
    8.8683    2.0753    0.0000 H   0  0  0  0  0  0  0  0  0  0  0  0
    9.4016    2.6676    0.0000 H   0  0  0  0  0  0  0  0  0  0  0  0
    8.9036    4.2813    0.0000 H   0  0  0  0  0  0  0  0  0  0  0  0
    8.3703    3.6890    0.0000 H   0  0  0  0  0  0  0  0  0  0  0  0
   11.1862    4.6496    0.0000 H   0  0  0  0  0  0  0  0  0  0  0  0
   11.7195    5.2419    0.0000 H   0  0  0  0  0  0  0  0  0  0  0  0
   10.0626    5.5685    0.0000 H   0  0  0  0  0  0  0  0  0  0  0  0
    9.5292    4.9762    0.0000 H   0  0  0  0  0  0  0  0  0  0  0  0
  1 86  1  0  0  0  0
  1 90  1  0  0  0  0
  2 49  2  0  0  0  0
  3 50  2  0  0  0  0
  4 55  2  0  0  0  0
  5 58  2  0  0  0  0
  6 63  2  0  0  0  0
  7 68  1  0  0  0  0
  7 89  1  0  0  0  0
  8 75  1  0  0  0  0
  8 94  1  0  0  0  0
  9 76  2  0  0  0  0
 10 83  1  0  0  0  0
 10190  1  0  0  0  0
 11 85  1  0  0  0  0
 11201  1  0  0  0  0
 12 85  2  0  0  0  0
 13 92  2  0  0  0  0
 14 95  2  0  0  0  0
 15 98  2  0  0  0  0
 16107  2  0  0  0  0
 17112  1  0  0  0  0
 17115  1  0  0  0  0
 18110  2  0  0  0  0
 19116  1  0  0  0  0
 19118  1  0  0  0  0
 20117  1  0  0  0  0
 20119  1  0  0  0  0
 21 39  1  0  0  0  0
 21 42  1  0  0  0  0
 21 45  1  0  0  0  0
 22 44  1  0  0  0  0
 22 48  1  0  0  0  0
 22 49  1  0  0  0  0
 23 43  1  0  0  0  0
 23 55  1  0  0  0  0
 23138  1  0  0  0  0
 24 50  1  0  0  0  0
 54 24  1  1  0  0  0
 24141  1  0  0  0  0
 51 25  1  1  0  0  0
 25 58  1  0  0  0  0
 25145  1  0  0  0  0
 56 26  1  6  0  0  0
 26 76  1  0  0  0  0
 26156  1  0  0  0  0
 27 63  1  0  0  0  0
 73 27  1  6  0  0  0
 27163  1  0  0  0  0
 28 71  1  0  0  0  0
 28 91  2  0  0  0  0
 81 29  1  1  0  0  0
 29 92  1  0  0  0  0
 29185  1  0  0  0  0
 30 95  1  0  0  0  0
 30 98  1  0  0  0  0
 30 99  1  0  0  0  0
 31 88  1  0  0  0  0
 31102  1  0  0  0  0
 31193  1  0  0  0  0
 32 97  1  0  0  0  0
 32102  2  0  0  0  0
 33 91  1  0  0  0  0
 33209  1  0  0  0  0
 33210  1  0  0  0  0
 34 91  1  0  0  0  0
 34211  1  0  0  0  0
 34212  1  0  0  0  0
 96 35  1  6  0  0  0
 35107  1  0  0  0  0
 35213  1  0  0  0  0
 36105  1  0  0  0  0
 36111  1  0  0  0  0
 36218  1  0  0  0  0
 37108  1  0  0  0  0
 37111  2  0  0  0  0
 38110  1  0  0  0  0
 38113  1  0  0  0  0
 38225  1  0  0  0  0
 39 40  1  0  0  0  0
 39 43  1  6  0  0  0
 39120  1  0  0  0  0
 40 41  1  0  0  0  0
 40121  1  0  0  0  0
 40122  1  0  0  0  0
 41 42  1  0  0  0  0
 41123  1  0  0  0  0
 41124  1  0  0  0  0
 42125  1  0  0  0  0
 42126  1  0  0  0  0
 43127  1  0  0  0  0
 43128  1  0  0  0  0
 44 46  1  0  0  0  0
 44 50  1  1  0  0  0
 44129  1  0  0  0  0
 45 52  1  0  0  0  0
 45130  1  0  0  0  0
 45131  1  0  0  0  0
 46 47  1  0  0  0  0
 46132  1  0  0  0  0
 46133  1  0  0  0  0
 47 48  1  0  0  0  0
 47134  1  0  0  0  0
 47135  1  0  0  0  0
 48136  1  0  0  0  0
 48137  1  0  0  0  0
 49 51  1  0  0  0  0
 51 53  1  0  0  0  0
 51139  1  0  0  0  0
 52 60  2  0  0  0  0
 52140  1  0  0  0  0
 53 61  1  0  0  0  0
 53142  1  0  0  0  0
 53143  1  0  0  0  0
 54 57  1  0  0  0  0
 54 63  1  0  0  0  0
 54144  1  0  0  0  0
 55 62  1  0  0  0  0
 56 58  1  0  0  0  0
 56 59  1  0  0  0  0
 56146  1  0  0  0  0
 57 64  1  0  0  0  0
 57147  1  0  0  0  0
 57148  1  0  0  0  0
 59 65  1  0  0  0  0
 59 66  1  1  0  0  0
 59149  1  0  0  0  0
 60150  1  0  0  0  0
 60151  1  0  0  0  0
 61 69  2  0  0  0  0
 61 70  1  0  0  0  0
 62 67  1  0  0  0  0
 62 68  2  0  0  0  0
 64 71  1  0  0  0  0
 64152  1  0  0  0  0
 64153  1  0  0  0  0
 65 74  1  0  0  0  0
 65154  1  0  0  0  0
 65155  1  0  0  0  0
 66157  1  0  0  0  0
 66158  1  0  0  0  0
 66159  1  0  0  0  0
 67 72  2  0  0  0  0
 67160  1  0  0  0  0
 68 75  1  0  0  0  0
 69 79  1  0  0  0  0
 69161  1  0  0  0  0
 70 80  2  0  0  0  0
 70162  1  0  0  0  0
 71164  1  0  0  0  0
 71165  1  0  0  0  0
 72 77  1  0  0  0  0
 72 78  1  0  0  0  0
 73 82  1  0  0  0  0
 73 85  1  0  0  0  0
 73166  1  0  0  0  0
 74167  1  0  0  0  0
 74168  1  0  0  0  0
 74169  1  0  0  0  0
 75 77  2  0  0  0  0
 76 81  1  0  0  0  0
 77170  1  0  0  0  0
 78 84  1  0  0  0  0
 78171  1  0  0  0  0
 78172  1  0  0  0  0
 79 83  2  0  0  0  0
 79173  1  0  0  0  0
 80 83  1  0  0  0  0
 80174  1  0  0  0  0
 81 87  1  0  0  0  0
 81175  1  0  0  0  0
 82 88  1  0  0  0  0
 82176  1  0  0  0  0
 82177  1  0  0  0  0
 84 86  1  0  0  0  0
 84178  1  0  0  0  0
 84179  1  0  0  0  0
 86180  1  0  0  0  0
 86181  1  0  0  0  0
 87182  1  0  0  0  0
 87183  1  0  0  0  0
 87184  1  0  0  0  0
 88 97  2  0  0  0  0
 89186  1  0  0  0  0
 89187  1  0  0  0  0
 89188  1  0  0  0  0
 90 93  1  0  0  0  0
 90 95  1  0  0  0  0
 90189  1  0  0  0  0
 92 96  1  0  0  0  0
 93 98  1  0  0  0  0
 93191  1  0  0  0  0
 93192  1  0  0  0  0
 94195  1  0  0  0  0
 94196  1  0  0  0  0
 94197  1  0  0  0  0
 96101  1  0  0  0  0
 96194  1  0  0  0  0
 97198  1  0  0  0  0
 99100  1  0  0  0  0
 99199  1  0  0  0  0
 99200  1  0  0  0  0
100103  1  0  0  0  0
100202  1  0  0  0  0
100203  1  0  0  0  0
101105  1  0  0  0  0
101204  1  0  0  0  0
101205  1  0  0  0  0
102206  1  0  0  0  0
103104  1  0  0  0  0
103207  1  0  0  0  0
103208  1  0  0  0  0
104106  1  0  0  0  0
104214  1  0  0  0  0
104215  1  0  0  0  0
105108  2  0  0  0  0
106110  1  0  0  0  0
106216  1  0  0  0  0
106217  1  0  0  0  0
107109  1  0  0  0  0
108219  1  0  0  0  0
109112  1  0  0  0  0
109220  1  0  0  0  0
109221  1  0  0  0  0
111222  1  0  0  0  0
112223  1  0  0  0  0
112224  1  0  0  0  0
113114  1  0  0  0  0
113226  1  0  0  0  0
113227  1  0  0  0  0
114116  1  0  0  0  0
114228  1  0  0  0  0
114229  1  0  0  0  0
115117  1  0  0  0  0
115232  1  0  0  0  0
115233  1  0  0  0  0
116230  1  0  0  0  0
116231  1  0  0  0  0
117234  1  0  0  0  0
117235  1  0  0  0  0
118119  1  0  0  0  0
118236  1  0  0  0  0
118237  1  0  0  0  0
119238  1  0  0  0  0
119239  1  0  0  0  0
M  END
> <PUBCHEM_COMPOUND_CID>
90656845

> <PUBCHEM_COMPOUND_CANONICALIZED>
1

> <PUBCHEM_CACTVS_COMPLEXITY>
3270

> <PUBCHEM_CACTVS_HBOND_ACCEPTOR>
24

> <PUBCHEM_CACTVS_HBOND_DONOR>
14

> <PUBCHEM_CACTVS_ROTATABLE_BOND>
56

> <PUBCHEM_CACTVS_SUBSKEYS>
AAADcfB//gBAAAAAAAAAAAAAAAAAAWLFixYwYAAAAAAAAAAB9AAAHgQQCAAADSzl3ga/npfJlgioAzX3fACCiC21MrAJ2YG+/MiPbjbm/TuWcWpu9jP6+ae/2fKOIAADAAAIQABAAAYAABCAAAAAAAAAAA==

> <PUBCHEM_IUPAC_OPENEYE_NAME>
(2S)-2-[[(2S)-2-[[(2S)-1-[(2S)-2-[[(2S,3S)-2-[[(2S)-2-[[(2S)-2-[3-[2-[2-[3-[6-[3-[3-[3-[[(2S)-1-allylpyrrolidin-2-yl]methylcarbamoyl]-4,5-dimethoxy-phenyl]propylsulfanyl]-2,5-dioxo-pyrrolidin-1-yl]hexanoylamino]propoxy]ethoxy]ethoxy]propanoylamino]-3-(1H-imidazol-5-yl)propanoyl]amino]propanoyl]amino]-3-methyl-pentanoyl]amino]-3-(4-hydroxyphenyl)propanoyl]pyrrolidine-2-carbonyl]amino]-5-guanidino-pentanoyl]amino]-3-(1H-imidazol-5-yl)propanoic acid

> <PUBCHEM_IUPAC_CAS_NAME>
(2S)-2-[[(2S)-5-(diaminomethylideneamino)-2-[[[(2S)-1-[(2S)-2-[[(2S,3S)-2-[[(2S)-2-[[(2S)-2-[[3-[2-[2-[3-[[6-[3-[3-[3,4-dimethoxy-5-[oxo-[[(2S)-1-prop-2-enyl-2-pyrrolidinyl]methylamino]methyl]phenyl]propylthio]-2,5-dioxo-1-pyrrolidinyl]-1-oxohexyl]amino]propoxy]ethoxy]ethoxy]-1-oxopropyl]amino]-3-(1H-imidazol-5-yl)-1-oxopropyl]amino]-1-oxopropyl]amino]-3-methyl-1-oxopentyl]amino]-3-(4-hydroxyphenyl)-1-oxopropyl]-2-pyrrolidinyl]-oxomethyl]amino]-1-oxopentyl]amino]-3-(1H-imidazol-5-yl)propanoic acid

> <PUBCHEM_IUPAC_NAME_MARKUP>
(2<I>S</I>)-2-[[(2<I>S</I>)-5-(diaminomethylideneamino)-2-[[(2<I>S</I>)-1-[(2<I>S</I>)-2-[[(2<I>S</I>,3<I>S</I>)-2-[[(2<I>S</I>)-2-[[(2<I>S</I>)-2-[3-[2-[2-[3-[6-[3-[3-[3,4-dimethoxy-5-[[(2<I>S</I>)-1-prop-2-enylpyrrolidin-2-yl]methylcarbamoyl]phenyl]propylsulfanyl]-2,5-dioxopyrrolidin-1-yl]hexanoylamino]propoxy]ethoxy]ethoxy]propanoylamino]-3-(1<I>H</I>-imidazol-5-yl)propanoyl]amino]propanoyl]amino]-3-methylpentanoyl]amino]-3-(4-hydroxyphenyl)propanoyl]pyrrolidine-2-carbonyl]amino]pentanoyl]amino]-3-(1<I>H</I>-imidazol-5-yl)propanoic acid

> <PUBCHEM_IUPAC_NAME>
(2S)-2-[[(2S)-5-(diaminomethylideneamino)-2-[[(2S)-1-[(2S)-2-[[(2S,3S)-2-[[(2S)-2-[[(2S)-2-[3-[2-[2-[3-[6-[3-[3-[3,4-dimethoxy-5-[[(2S)-1-prop-2-enylpyrrolidin-2-yl]methylcarbamoyl]phenyl]propylsulfanyl]-2,5-dioxopyrrolidin-1-yl]hexanoylamino]propoxy]ethoxy]ethoxy]propanoylamino]-3-(1H-imidazol-5-yl)propanoyl]amino]propanoyl]amino]-3-methylpentanoyl]amino]-3-(4-hydroxyphenyl)propanoyl]pyrrolidine-2-carbonyl]amino]pentanoyl]amino]-3-(1H-imidazol-5-yl)propanoic acid

> <PUBCHEM_IUPAC_SYSTEMATIC_NAME>
(2S)-2-[[(2S)-5-[bis(azanyl)methylideneamino]-2-[[(2S)-1-[(2S)-2-[[(2S,3S)-2-[[(2S)-2-[[(2S)-2-[3-[2-[2-[3-[6-[3-[3-[3,4-dimethoxy-5-[[(2S)-1-prop-2-enylpyrrolidin-2-yl]methylcarbamoyl]phenyl]propylsulfanyl]-2,5-bis(oxidanylidene)pyrrolidin-1-yl]hexanoylamino]propoxy]ethoxy]ethoxy]propanoylamino]-3-(1H-imidazol-5-yl)propanoyl]amino]propanoyl]amino]-3-methyl-pentanoyl]amino]-3-(4-hydroxyphenyl)propanoyl]pyrrolidin-2-yl]carbonylamino]pentanoyl]amino]-3-(1H-imidazol-5-yl)propanoic acid

> <PUBCHEM_IUPAC_TRADITIONAL_NAME>
(2S)-2-[[(2S)-2-[[(2S)-1-[(2S)-2-[[(2S,3S)-2-[[(2S)-2-[[(2S)-2-[3-[2-[2-[3-[6-[3-[3-[3-[[(2S)-1-allylpyrrolidin-2-yl]methylcarbamoyl]-4,5-dimethoxy-phenyl]propylthio]-2,5-diketo-pyrrolidino]hexanoylamino]propoxy]ethoxy]ethoxy]propanoylamino]-3-(1H-imidazol-5-yl)propanoyl]amino]propanoyl]amino]-3-methyl-pentanoyl]amino]-3-(4-hydroxyphenyl)propanoyl]prolyl]amino]-5-guanidino-pentanoyl]amino]-3-(1H-imidazol-5-yl)propionic acid

> <PUBCHEM_IUPAC_INCHI>
InChI=1S/C81H120N18O19S/c1-7-29-97-30-13-18-57(97)48-88-73(105)59-40-54(42-65(114-5)71(59)115-6)17-15-39-119-66-45-69(103)99(79(66)111)31-11-9-10-21-67(101)86-28-16-33-116-35-37-118-38-36-117-34-26-68(102)92-61(43-55-46-84-49-89-55)75(107)91-52(4)72(104)96-70(51(3)8-2)77(109)94-62(41-53-22-24-58(100)25-23-53)78(110)98-32-14-20-64(98)76(108)93-60(19-12-27-87-81(82)83)74(106)95-63(80(112)113)44-56-47-85-50-90-56/h7,22-25,40,42,46-47,49-52,57,60-64,66,70,100H,1,8-21,26-39,41,43-45,48H2,2-6H3,(H,84,89)(H,85,90)(H,86,101)(H,88,105)(H,91,107)(H,92,102)(H,93,108)(H,94,109)(H,95,106)(H,96,104)(H,112,113)(H4,82,83,87)/t51-,52-,57-,60-,61-,62-,63-,64-,66?,70-/m0/s1

> <PUBCHEM_IUPAC_INCHIKEY>
LKASSMVPOODRNL-PBFRATGOSA-N

> <PUBCHEM_XLOGP3_AA>
-0.4

> <PUBCHEM_EXACT_MASS>
1680.86978484

> <PUBCHEM_MOLECULAR_FORMULA>
C81H120N18O19S

> <PUBCHEM_MOLECULAR_WEIGHT>
1682.0

> <PUBCHEM_OPENEYE_CAN_SMILES>
CCC(C)C(C(=O)NC(CC1=CC=C(C=C1)O)C(=O)N2CCCC2C(=O)NC(CCCN=C(N)N)C(=O)NC(CC3=CN=CN3)C(=O)O)NC(=O)C(C)NC(=O)C(CC4=CN=CN4)NC(=O)CCOCCOCCOCCCNC(=O)CCCCCN5C(=O)CC(C5=O)SCCCC6=CC(=C(C(=C6)OC)OC)C(=O)NCC7CCCN7CC=C

> <PUBCHEM_OPENEYE_ISO_SMILES>
CC[C@H](C)[C@@H](C(=O)N[C@@H](CC1=CC=C(C=C1)O)C(=O)N2CCC[C@H]2C(=O)N[C@@H](CCCN=C(N)N)C(=O)N[C@@H](CC3=CN=CN3)C(=O)O)NC(=O)[C@H](C)NC(=O)[C@H](CC4=CN=CN4)NC(=O)CCOCCOCCOCCCNC(=O)CCCCCN5C(=O)CC(C5=O)SCCCC6=CC(=C(C(=C6)OC)OC)C(=O)NC[C@@H]7CCCN7CC=C

> <PUBCHEM_CACTVS_TPSA>
545

> <PUBCHEM_MONOISOTOPIC_WEIGHT>
1680.86978484

> <PUBCHEM_TOTAL_CHARGE>
0

> <PUBCHEM_HEAVY_ATOM_COUNT>
119

> <PUBCHEM_ATOM_DEF_STEREO_COUNT>
9

> <PUBCHEM_ATOM_UDEF_STEREO_COUNT>
1

> <PUBCHEM_BOND_DEF_STEREO_COUNT>
0

> <PUBCHEM_BOND_UDEF_STEREO_COUNT>
0

> <PUBCHEM_ISOTOPIC_ATOM_COUNT>
0

> <PUBCHEM_COMPONENT_COUNT>
1

> <PUBCHEM_CACTVS_TAUTO_COUNT>
-1

> <PUBCHEM_COORDINATE_TYPE>
1
5
255

> <PUBCHEM_BONDANNOTATIONS>
90  1  3
105  108  8
54  24  5
51  25  5
56  26  6
73  27  6
81  29  5
31  102  8
31  88  8
32  102  8
32  97  8
96  35  6
36  105  8
36  111  8
37  108  8
37  111  8
39  43  6
44  50  5
59  66  5
61  69  8
61  70  8
62  67  8
62  68  8
67  72  8
68  75  8
69  79  8
70  80  8
72  77  8
75  77  8
79  83  8
80  83  8
88  97  8

$$$$
