44415600
  -OEChem-09292322282D

 61 65  0     0  0  0  0  0  0999 V2000
    8.7204    0.6797    0.0000 Cl  0  0  0  0  0  0  0  0  0  0  0  0
    4.0169   -3.1473    0.0000 O   0  0  0  0  0  0  0  0  0  0  0  0
    3.9491    2.4444    0.0000 N   0  0  0  0  0  0  0  0  0  0  0  0
    3.0814    4.2463    0.0000 N   0  0  0  0  0  0  0  0  0  0  0  0
    4.8830   -0.6473    0.0000 N   0  0  0  0  0  0  0  0  0  0  0  0
    5.3830    1.5434    0.0000 N   0  0  0  0  0  0  0  0  0  0  0  0
    4.8830   -1.6473    0.0000 N   0  0  0  0  0  0  0  0  0  0  0  0
    2.9519    2.5191    0.0000 C   0  0  0  0  0  0  0  0  0  0  0  0
    4.5125    3.2706    0.0000 C   0  0  0  0  0  0  0  0  0  0  0  0
    2.5180    3.4201    0.0000 C   0  0  0  0  0  0  0  0  0  0  0  0
    4.0786    4.1716    0.0000 C   0  0  0  0  0  0  0  0  0  0  0  0
    4.3830    1.5434    0.0000 C   0  0  0  0  0  0  0  0  0  0  0  0
    3.7595    0.7616    0.0000 C   0  0  0  0  0  0  0  0  0  0  0  0
    2.6475    5.1473    0.0000 C   0  0  0  0  0  0  0  0  0  0  0  0
    3.9820   -0.2134    0.0000 C   0  0  0  0  0  0  0  0  0  0  0  0
    5.7840   -0.2134    0.0000 C   0  0  0  0  0  0  0  0  0  0  0  0
    6.0065    0.7615    0.0000 C   0  0  0  0  0  0  0  0  0  0  0  0
    2.7690    1.0839    0.0000 C   0  0  0  0  0  0  0  0  0  0  0  0
    3.2295   -0.9335    0.0000 C   0  0  0  0  0  0  0  0  0  0  0  0
    2.0000    0.3813    0.0000 C   0  0  0  0  0  0  0  0  0  0  0  0
    6.5365   -0.9336    0.0000 C   0  0  0  0  0  0  0  0  0  0  0  0
    6.9970    1.0839    0.0000 C   0  0  0  0  0  0  0  0  0  0  0  0
    5.7490   -2.1473    0.0000 C   0  0  0  0  0  0  0  0  0  0  0  0
    2.2318   -0.6342    0.0000 C   0  0  0  0  0  0  0  0  0  0  0  0
    7.5342   -0.6342    0.0000 C   0  0  0  0  0  0  0  0  0  0  0  0
    7.7660    0.3813    0.0000 C   0  0  0  0  0  0  0  0  0  0  0  0
    5.7490   -3.1473    0.0000 C   0  0  0  0  0  0  0  0  0  0  0  0
    4.8830   -3.6473    0.0000 C   0  0  0  0  0  0  0  0  0  0  0  0
    6.6150   -3.6473    0.0000 C   0  0  0  0  0  0  0  0  0  0  0  0
    4.8830   -4.6473    0.0000 C   0  0  0  0  0  0  0  0  0  0  0  0
    6.6150   -4.6473    0.0000 C   0  0  0  0  0  0  0  0  0  0  0  0
    5.7490   -5.1473    0.0000 C   0  0  0  0  0  0  0  0  0  0  0  0
    3.1509   -3.6472    0.0000 C   0  0  0  0  0  0  0  0  0  0  0  0
    2.3551    2.3512    0.0000 H   0  0  0  0  0  0  0  0  0  0  0  0
    3.0137    1.9022    0.0000 H   0  0  0  0  0  0  0  0  0  0  0  0
    4.9563    2.8377    0.0000 H   0  0  0  0  0  0  0  0  0  0  0  0
    5.0159    3.6325    0.0000 H   0  0  0  0  0  0  0  0  0  0  0  0
    2.0742    3.8530    0.0000 H   0  0  0  0  0  0  0  0  0  0  0  0
    2.0146    3.0582    0.0000 H   0  0  0  0  0  0  0  0  0  0  0  0
    4.6754    4.3395    0.0000 H   0  0  0  0  0  0  0  0  0  0  0  0
    4.0168    4.7885    0.0000 H   0  0  0  0  0  0  0  0  0  0  0  0
    3.2061    5.4163    0.0000 H   0  0  0  0  0  0  0  0  0  0  0  0
    2.3785    5.7059    0.0000 H   0  0  0  0  0  0  0  0  0  0  0  0
    2.0889    4.8783    0.0000 H   0  0  0  0  0  0  0  0  0  0  0  0
    2.6380    1.6899    0.0000 H   0  0  0  0  0  0  0  0  0  0  0  0
    3.3744   -1.5364    0.0000 H   0  0  0  0  0  0  0  0  0  0  0  0
    4.3460   -1.9573    0.0000 H   0  0  0  0  0  0  0  0  0  0  0  0
    1.4083    0.5664    0.0000 H   0  0  0  0  0  0  0  0  0  0  0  0
    6.3916   -1.5364    0.0000 H   0  0  0  0  0  0  0  0  0  0  0  0
    6.3596   -2.2549    0.0000 H   0  0  0  0  0  0  0  0  0  0  0  0
    5.9611   -1.5647    0.0000 H   0  0  0  0  0  0  0  0  0  0  0  0
    7.1280    1.6899    0.0000 H   0  0  0  0  0  0  0  0  0  0  0  0
    1.7789   -1.0576    0.0000 H   0  0  0  0  0  0  0  0  0  0  0  0
    7.9871   -1.0577    0.0000 H   0  0  0  0  0  0  0  0  0  0  0  0
    7.1520   -3.3373    0.0000 H   0  0  0  0  0  0  0  0  0  0  0  0
    4.3460   -4.9573    0.0000 H   0  0  0  0  0  0  0  0  0  0  0  0
    7.1520   -4.9573    0.0000 H   0  0  0  0  0  0  0  0  0  0  0  0
    5.7490   -5.7673    0.0000 H   0  0  0  0  0  0  0  0  0  0  0  0
    2.8409   -3.1103    0.0000 H   0  0  0  0  0  0  0  0  0  0  0  0
    2.6140   -3.9572    0.0000 H   0  0  0  0  0  0  0  0  0  0  0  0
    3.4609   -4.1842    0.0000 H   0  0  0  0  0  0  0  0  0  0  0  0
  1 26  1  0  0  0  0
  2 28  1  0  0  0  0
  2 33  1  0  0  0  0
  3  8  1  0  0  0  0
  3  9  1  0  0  0  0
  3 12  1  0  0  0  0
  4 10  1  0  0  0  0
  4 11  1  0  0  0  0
  4 14  1  0  0  0  0
  5  7  1  0  0  0  0
  5 15  1  0  0  0  0
  5 16  1  0  0  0  0
  6 12  2  0  0  0  0
  6 17  1  0  0  0  0
  7 23  1  0  0  0  0
  7 47  1  0  0  0  0
  8 10  1  0  0  0  0
  8 34  1  0  0  0  0
  8 35  1  0  0  0  0
  9 11  1  0  0  0  0
  9 36  1  0  0  0  0
  9 37  1  0  0  0  0
 10 38  1  0  0  0  0
 10 39  1  0  0  0  0
 11 40  1  0  0  0  0
 11 41  1  0  0  0  0
 12 13  1  0  0  0  0
 13 15  1  0  0  0  0
 13 18  2  0  0  0  0
 14 42  1  0  0  0  0
 14 43  1  0  0  0  0
 14 44  1  0  0  0  0
 15 19  2  0  0  0  0
 16 17  2  0  0  0  0
 16 21  1  0  0  0  0
 17 22  1  0  0  0  0
 18 20  1  0  0  0  0
 18 45  1  0  0  0  0
 19 24  1  0  0  0  0
 19 46  1  0  0  0  0
 20 24  2  0  0  0  0
 20 48  1  0  0  0  0
 21 25  2  0  0  0  0
 21 49  1  0  0  0  0
 22 26  2  0  0  0  0
 22 52  1  0  0  0  0
 23 27  1  0  0  0  0
 23 50  1  0  0  0  0
 23 51  1  0  0  0  0
 24 53  1  0  0  0  0
 25 26  1  0  0  0  0
 25 54  1  0  0  0  0
 27 28  1  0  0  0  0
 27 29  2  0  0  0  0
 28 30  2  0  0  0  0
 29 31  1  0  0  0  0
 29 55  1  0  0  0  0
 30 32  1  0  0  0  0
 30 56  1  0  0  0  0
 31 32  2  0  0  0  0
 31 57  1  0  0  0  0
 32 58  1  0  0  0  0
 33 59  1  0  0  0  0
 33 60  1  0  0  0  0
 33 61  1  0  0  0  0
M  END
> <PUBCHEM_COMPOUND_CID>
44415600

> <PUBCHEM_COMPOUND_CANONICALIZED>
1

> <PUBCHEM_CACTVS_COMPLEXITY>
669

> <PUBCHEM_CACTVS_HBOND_ACCEPTOR>
5

> <PUBCHEM_CACTVS_HBOND_DONOR>
1

> <PUBCHEM_CACTVS_ROTATABLE_BOND>
5

> <PUBCHEM_CACTVS_SUBSKEYS>
AAADceB7oAAEAAAAAAAAAAAAAAAAAAAAAAA8YMEABAAAAAABUAAAHgIYAAAADA7BmCYzxoNiBACgAiZiZACCDAEhJwAZqIAufpgMZuLF+5uUMChmwBHI6AeQwCAOAABAAAIKACAAAIAABBQAQAAAAAAAAA==

> <PUBCHEM_IUPAC_OPENEYE_NAME>
3-chloro-N-[(2-methoxyphenyl)methyl]-6-(4-methylpiperazin-1-yl)benzo[b][1,4]benzodiazepin-11-amine

> <PUBCHEM_IUPAC_CAS_NAME>
3-chloro-N-[(2-methoxyphenyl)methyl]-6-(4-methyl-1-piperazinyl)-11-benzo[b][1,4]benzodiazepinamine

> <PUBCHEM_IUPAC_NAME_MARKUP>
3-chloro-<I>N</I>-[(2-methoxyphenyl)methyl]-6-(4-methylpiperazin-1-yl)benzo[b][1,4]benzodiazepin-11-amine

> <PUBCHEM_IUPAC_NAME>
3-chloro-N-[(2-methoxyphenyl)methyl]-6-(4-methylpiperazin-1-yl)benzo[b][1,4]benzodiazepin-11-amine

> <PUBCHEM_IUPAC_SYSTEMATIC_NAME>
3-chloranyl-N-[(2-methoxyphenyl)methyl]-6-(4-methylpiperazin-1-yl)benzo[b][1,4]benzodiazepin-11-amine

> <PUBCHEM_IUPAC_TRADITIONAL_NAME>
[3-chloro-6-(4-methylpiperazino)benzo[b][1,4]benzodiazepin-11-yl]-o-anisyl-amine

> <PUBCHEM_IUPAC_INCHI>
InChI=1S/C26H28ClN5O/c1-30-13-15-31(16-14-30)26-21-8-4-5-9-23(21)32(24-12-11-20(27)17-22(24)29-26)28-18-19-7-3-6-10-25(19)33-2/h3-12,17,28H,13-16,18H2,1-2H3

> <PUBCHEM_IUPAC_INCHIKEY>
METGQDKTGGXZGK-UHFFFAOYSA-N

> <PUBCHEM_XLOGP3_AA>
4.4

> <PUBCHEM_EXACT_MASS>
461.1982382

> <PUBCHEM_MOLECULAR_FORMULA>
C26H28ClN5O

> <PUBCHEM_MOLECULAR_WEIGHT>
462.0

> <PUBCHEM_OPENEYE_CAN_SMILES>
CN1CCN(CC1)C2=NC3=C(C=CC(=C3)Cl)N(C4=CC=CC=C42)NCC5=CC=CC=C5OC

> <PUBCHEM_OPENEYE_ISO_SMILES>
CN1CCN(CC1)C2=NC3=C(C=CC(=C3)Cl)N(C4=CC=CC=C42)NCC5=CC=CC=C5OC

> <PUBCHEM_CACTVS_TPSA>
43.3

> <PUBCHEM_MONOISOTOPIC_WEIGHT>
461.1982382

> <PUBCHEM_TOTAL_CHARGE>
0

> <PUBCHEM_HEAVY_ATOM_COUNT>
33

> <PUBCHEM_ATOM_DEF_STEREO_COUNT>
0

> <PUBCHEM_ATOM_UDEF_STEREO_COUNT>
0

> <PUBCHEM_BOND_DEF_STEREO_COUNT>
0

> <PUBCHEM_BOND_UDEF_STEREO_COUNT>
0

> <PUBCHEM_ISOTOPIC_ATOM_COUNT>
0

> <PUBCHEM_COMPONENT_COUNT>
1

> <PUBCHEM_CACTVS_TAUTO_COUNT>
-1

> <PUBCHEM_COORDINATE_TYPE>
1
5
255

> <PUBCHEM_BONDANNOTATIONS>
13  15  8
13  18  8
15  19  8
16  17  8
16  21  8
17  22  8
18  20  8
19  24  8
20  24  8
21  25  8
22  26  8
25  26  8
27  28  8
27  29  8
28  30  8
29  31  8
30  32  8
31  32  8

$$$$
