10024832
  -OEChem-09292322202D

 56 59  0     1  0  0  0  0  0999 V2000
    4.0070   -4.8498    0.0000 Cl  0  0  0  0  0  0  0  0  0  0  0  0
    6.9998   -2.8389    0.0000 O   0  0  0  0  0  0  0  0  0  0  0  0
    4.7016   -0.9106    0.0000 O   0  0  0  0  0  0  0  0  0  0  0  0
    8.9193    1.3857    0.0000 N   0  0  0  0  0  0  0  0  0  0  0  0
    6.4074   -1.2113    0.0000 N   0  0  0  0  0  0  0  0  0  0  0  0
    3.5883   -2.2374    0.0000 N   0  0  0  0  0  0  0  0  0  0  0  0
    2.4750   -3.5642    0.0000 N   0  0  0  0  0  0  0  0  0  0  0  0
    9.3971   -0.5628    0.0000 C   0  0  3  0  0  0  0  0  0  0  0  0
    9.6559    0.4031    0.0000 C   0  0  3  0  0  0  0  0  0  0  0  0
    8.1761   -1.4285    0.0000 C   0  0  0  0  0  0  0  0  0  0  0  0
    7.6227    0.0919    0.0000 C   0  0  0  0  0  0  0  0  0  0  0  0
    7.3471   -0.8693    0.0000 C   0  0  0  0  0  0  0  0  0  0  0  0
   10.6688   -1.3575    0.0000 C   0  0  0  0  0  0  0  0  0  0  0  0
   11.0876    0.2054    0.0000 C   0  0  0  0  0  0  0  0  0  0  0  0
   11.4459   -0.7282    0.0000 C   0  0  0  0  0  0  0  0  0  0  0  0
    8.4193    2.2517    0.0000 C   0  0  0  0  0  0  0  0  0  0  0  0
    8.9193    3.1178    0.0000 C   0  0  0  0  0  0  0  0  0  0  0  0
    6.2337   -2.1961    0.0000 C   0  0  0  0  0  0  0  0  0  0  0  0
    8.4193    3.9838    0.0000 C   0  0  0  0  0  0  0  0  0  0  0  0
    9.9193    3.1178    0.0000 C   0  0  0  0  0  0  0  0  0  0  0  0
    5.2940   -2.5382    0.0000 C   0  0  0  0  0  0  0  0  0  0  0  0
    8.9193    4.8498    0.0000 C   0  0  0  0  0  0  0  0  0  0  0  0
   10.4193    3.9838    0.0000 C   0  0  0  0  0  0  0  0  0  0  0  0
    9.9193    4.8498    0.0000 C   0  0  0  0  0  0  0  0  0  0  0  0
    4.5280   -1.8954    0.0000 C   0  0  0  0  0  0  0  0  0  0  0  0
    5.1204   -3.5230    0.0000 C   0  0  0  0  0  0  0  0  0  0  0  0
    4.1807   -3.8650    0.0000 C   0  0  0  0  0  0  0  0  0  0  0  0
    3.4146   -3.2222    0.0000 C   0  0  0  0  0  0  0  0  0  0  0  0
    3.9356   -0.2678    0.0000 C   0  0  0  0  0  0  0  0  0  0  0  0
    9.4152   -1.1826    0.0000 H   0  0  0  0  0  0  0  0  0  0  0  0
    9.6605   -0.2169    0.0000 H   0  0  0  0  0  0  0  0  0  0  0  0
    7.7702   -1.8972    0.0000 H   0  0  0  0  0  0  0  0  0  0  0  0
    8.5928   -1.8876    0.0000 H   0  0  0  0  0  0  0  0  0  0  0  0
    7.6176    0.7119    0.0000 H   0  0  0  0  0  0  0  0  0  0  0  0
    7.0084    0.1757    0.0000 H   0  0  0  0  0  0  0  0  0  0  0  0
    6.8936   -0.4465    0.0000 H   0  0  0  0  0  0  0  0  0  0  0  0
   10.2843   -1.8438    0.0000 H   0  0  0  0  0  0  0  0  0  0  0  0
   11.1098   -1.7933    0.0000 H   0  0  0  0  0  0  0  0  0  0  0  0
   11.6954    0.3277    0.0000 H   0  0  0  0  0  0  0  0  0  0  0  0
   11.0685    0.8251    0.0000 H   0  0  0  0  0  0  0  0  0  0  0  0
   11.7836   -1.2481    0.0000 H   0  0  0  0  0  0  0  0  0  0  0  0
   11.9984   -0.4467    0.0000 H   0  0  0  0  0  0  0  0  0  0  0  0
    7.9444    2.6503    0.0000 H   0  0  0  0  0  0  0  0  0  0  0  0
    7.9444    1.8532    0.0000 H   0  0  0  0  0  0  0  0  0  0  0  0
    5.9324   -0.8128    0.0000 H   0  0  0  0  0  0  0  0  0  0  0  0
    7.7993    3.9838    0.0000 H   0  0  0  0  0  0  0  0  0  0  0  0
   10.2293    2.5808    0.0000 H   0  0  0  0  0  0  0  0  0  0  0  0
    8.6093    5.3867    0.0000 H   0  0  0  0  0  0  0  0  0  0  0  0
   11.0393    3.9838    0.0000 H   0  0  0  0  0  0  0  0  0  0  0  0
   10.2293    5.3867    0.0000 H   0  0  0  0  0  0  0  0  0  0  0  0
    5.5953   -3.9215    0.0000 H   0  0  0  0  0  0  0  0  0  0  0  0
    4.3341    0.2072    0.0000 H   0  0  0  0  0  0  0  0  0  0  0  0
    3.4606    0.1308    0.0000 H   0  0  0  0  0  0  0  0  0  0  0  0
    3.5371   -0.7427    0.0000 H   0  0  0  0  0  0  0  0  0  0  0  0
    2.0000   -3.1657    0.0000 H   0  0  0  0  0  0  0  0  0  0  0  0
    2.3673   -4.1748    0.0000 H   0  0  0  0  0  0  0  0  0  0  0  0
  1 27  1  0  0  0  0
  2 18  2  0  0  0  0
  3 25  1  0  0  0  0
  3 29  1  0  0  0  0
  4  8  1  0  0  0  0
  4  9  1  0  0  0  0
  4 16  1  0  0  0  0
  5 12  1  0  0  0  0
  5 18  1  0  0  0  0
  5 45  1  0  0  0  0
  6 25  2  0  0  0  0
  6 28  1  0  0  0  0
  7 28  1  0  0  0  0
  7 55  1  0  0  0  0
  7 56  1  0  0  0  0
  8 10  1  0  0  0  0
  8 13  1  0  0  0  0
  8 30  1  0  0  0  0
  9 11  1  0  0  0  0
  9 14  1  0  0  0  0
  9 31  1  0  0  0  0
 10 12  1  0  0  0  0
 10 32  1  0  0  0  0
 10 33  1  0  0  0  0
 11 12  1  0  0  0  0
 11 34  1  0  0  0  0
 11 35  1  0  0  0  0
 12 36  1  0  0  0  0
 13 15  1  0  0  0  0
 13 37  1  0  0  0  0
 13 38  1  0  0  0  0
 14 15  1  0  0  0  0
 14 39  1  0  0  0  0
 14 40  1  0  0  0  0
 15 41  1  0  0  0  0
 15 42  1  0  0  0  0
 16 17  1  0  0  0  0
 16 43  1  0  0  0  0
 16 44  1  0  0  0  0
 17 19  2  0  0  0  0
 17 20  1  0  0  0  0
 18 21  1  0  0  0  0
 19 22  1  0  0  0  0
 19 46  1  0  0  0  0
 20 23  2  0  0  0  0
 20 47  1  0  0  0  0
 21 25  1  0  0  0  0
 21 26  2  0  0  0  0
 22 24  2  0  0  0  0
 22 48  1  0  0  0  0
 23 24  1  0  0  0  0
 23 49  1  0  0  0  0
 24 50  1  0  0  0  0
 26 27  1  0  0  0  0
 26 51  1  0  0  0  0
 27 28  2  0  0  0  0
 29 52  1  0  0  0  0
 29 53  1  0  0  0  0
 29 54  1  0  0  0  0
M  END
> <PUBCHEM_COMPOUND_CID>
10024832

> <PUBCHEM_COMPOUND_CANONICALIZED>
1

> <PUBCHEM_CACTVS_COMPLEXITY>
545

> <PUBCHEM_CACTVS_HBOND_ACCEPTOR>
5

> <PUBCHEM_CACTVS_HBOND_DONOR>
2

> <PUBCHEM_CACTVS_ROTATABLE_BOND>
5

> <PUBCHEM_CACTVS_SUBSKEYS>
AAADceB7sAAEAAAAAAAAAAAAAAAAAAAAAAA8WLEAAAAYAAABwAAAHgIQAAAADCrBmiYztJPIFACoAiNydACCiCklJSAImKEsTtiMJv7F95vEMehm9hPI6eeYkYAOAAAAAAAAAAAAAAAAAAAAAAAAAAAAAA==

> <PUBCHEM_IUPAC_OPENEYE_NAME>
6-amino-N-(9-benzyl-9-azabicyclo[3.3.1]nonan-3-yl)-5-chloro-2-methoxy-pyridine-3-carboxamide

> <PUBCHEM_IUPAC_CAS_NAME>
6-amino-5-chloro-2-methoxy-N-[9-(phenylmethyl)-9-azabicyclo[3.3.1]nonan-3-yl]-3-pyridinecarboxamide

> <PUBCHEM_IUPAC_NAME_MARKUP>
6-amino-<I>N</I>-(9-benzyl-9-azabicyclo[3.3.1]nonan-3-yl)-5-chloro-2-methoxypyridine-3-carboxamide

> <PUBCHEM_IUPAC_NAME>
6-amino-N-(9-benzyl-9-azabicyclo[3.3.1]nonan-3-yl)-5-chloro-2-methoxypyridine-3-carboxamide

> <PUBCHEM_IUPAC_SYSTEMATIC_NAME>
6-azanyl-5-chloranyl-2-methoxy-N-[9-(phenylmethyl)-9-azabicyclo[3.3.1]nonan-3-yl]pyridine-3-carboxamide

> <PUBCHEM_IUPAC_TRADITIONAL_NAME>
6-amino-N-(9-benzyl-9-azabicyclo[3.3.1]nonan-3-yl)-5-chloro-2-methoxy-nicotinamide

> <PUBCHEM_IUPAC_INCHI>
InChI=1S/C22H27ClN4O2/c1-29-22-18(12-19(23)20(24)26-22)21(28)25-15-10-16-8-5-9-17(11-15)27(16)13-14-6-3-2-4-7-14/h2-4,6-7,12,15-17H,5,8-11,13H2,1H3,(H2,24,26)(H,25,28)

> <PUBCHEM_IUPAC_INCHIKEY>
FUOUCUSWOTUMGM-UHFFFAOYSA-N

> <PUBCHEM_XLOGP3_AA>
3.8

> <PUBCHEM_EXACT_MASS>
414.1822538

> <PUBCHEM_MOLECULAR_FORMULA>
C22H27ClN4O2

> <PUBCHEM_MOLECULAR_WEIGHT>
414.9

> <PUBCHEM_OPENEYE_CAN_SMILES>
COC1=NC(=C(C=C1C(=O)NC2CC3CCCC(C2)N3CC4=CC=CC=C4)Cl)N

> <PUBCHEM_OPENEYE_ISO_SMILES>
COC1=NC(=C(C=C1C(=O)NC2CC3CCCC(C2)N3CC4=CC=CC=C4)Cl)N

> <PUBCHEM_CACTVS_TPSA>
80.5

> <PUBCHEM_MONOISOTOPIC_WEIGHT>
414.1822538

> <PUBCHEM_TOTAL_CHARGE>
0

> <PUBCHEM_HEAVY_ATOM_COUNT>
29

> <PUBCHEM_ATOM_DEF_STEREO_COUNT>
0

> <PUBCHEM_ATOM_UDEF_STEREO_COUNT>
2

> <PUBCHEM_BOND_DEF_STEREO_COUNT>
0

> <PUBCHEM_BOND_UDEF_STEREO_COUNT>
0

> <PUBCHEM_ISOTOPIC_ATOM_COUNT>
0

> <PUBCHEM_COMPONENT_COUNT>
1

> <PUBCHEM_CACTVS_TAUTO_COUNT>
-1

> <PUBCHEM_COORDINATE_TYPE>
1
5
255

> <PUBCHEM_BONDANNOTATIONS>
17  19  8
17  20  8
19  22  8
20  23  8
21  25  8
21  26  8
22  24  8
23  24  8
26  27  8
27  28  8
6  25  8
6  28  8
8  13  3
9  14  3

$$$$
