10353207
  -OEChem-09292322122D

 34 35  0     1  0  0  0  0  0999 V2000
    5.4641   -2.0000    0.0000 N   0  0  3  0  0  0  0  0  0  0  0  0
    2.8660    3.5000    0.0000 N   0  0  0  0  0  0  0  0  0  0  0  0
    4.5981   -0.5000    0.0000 C   0  0  2  0  0  0  0  0  0  0  0  0
    5.4641    0.0000    0.0000 C   0  0  0  0  0  0  0  0  0  0  0  0
    4.5981   -1.5000    0.0000 C   0  0  0  0  0  0  0  0  0  0  0  0
    6.3301   -0.5000    0.0000 C   0  0  0  0  0  0  0  0  0  0  0  0
    6.3301   -1.5000    0.0000 C   0  0  0  0  0  0  0  0  0  0  0  0
    3.7320    0.0000    0.0000 C   0  0  0  0  0  0  0  0  0  0  0  0
    5.4641   -3.0000    0.0000 C   0  0  0  0  0  0  0  0  0  0  0  0
    3.7320    1.0000    0.0000 C   0  0  0  0  0  0  0  0  0  0  0  0
    2.8660   -0.5000    0.0000 C   0  0  0  0  0  0  0  0  0  0  0  0
    6.3301   -3.5000    0.0000 C   0  0  0  0  0  0  0  0  0  0  0  0
    2.8660    1.5000    0.0000 C   0  0  0  0  0  0  0  0  0  0  0  0
    2.0000    0.0000    0.0000 C   0  0  0  0  0  0  0  0  0  0  0  0
    2.0000    1.0000    0.0000 C   0  0  0  0  0  0  0  0  0  0  0  0
    2.8660    2.5000    0.0000 C   0  0  0  0  0  0  0  0  0  0  0  0
    4.5981    0.1200    0.0000 H   0  0  0  0  0  0  0  0  0  0  0  0
    5.8626    0.4749    0.0000 H   0  0  0  0  0  0  0  0  0  0  0  0
    5.0656    0.4749    0.0000 H   0  0  0  0  0  0  0  0  0  0  0  0
    3.9875   -1.3923    0.0000 H   0  0  0  0  0  0  0  0  0  0  0  0
    4.3860   -2.0826    0.0000 H   0  0  0  0  0  0  0  0  0  0  0  0
    6.9407   -0.6077    0.0000 H   0  0  0  0  0  0  0  0  0  0  0  0
    6.5422    0.0826    0.0000 H   0  0  0  0  0  0  0  0  0  0  0  0
    6.5422   -2.0826    0.0000 H   0  0  0  0  0  0  0  0  0  0  0  0
    6.9407   -1.3923    0.0000 H   0  0  0  0  0  0  0  0  0  0  0  0
    4.8535   -2.8923    0.0000 H   0  0  0  0  0  0  0  0  0  0  0  0
    5.2520   -3.5826    0.0000 H   0  0  0  0  0  0  0  0  0  0  0  0
    4.2690    1.3100    0.0000 H   0  0  0  0  0  0  0  0  0  0  0  0
    2.8660   -1.1200    0.0000 H   0  0  0  0  0  0  0  0  0  0  0  0
    6.0201   -4.0369    0.0000 H   0  0  0  0  0  0  0  0  0  0  0  0
    6.8671   -3.8100    0.0000 H   0  0  0  0  0  0  0  0  0  0  0  0
    6.6401   -2.9631    0.0000 H   0  0  0  0  0  0  0  0  0  0  0  0
    1.4631   -0.3100    0.0000 H   0  0  0  0  0  0  0  0  0  0  0  0
    1.4631    1.3100    0.0000 H   0  0  0  0  0  0  0  0  0  0  0  0
  1  5  1  0  0  0  0
  1  7  1  0  0  0  0
  1  9  1  0  0  0  0
  2 16  3  0  0  0  0
  3  4  1  0  0  0  0
  3  5  1  0  0  0  0
  3  8  1  6  0  0  0
  3 17  1  0  0  0  0
  4  6  1  0  0  0  0
  4 18  1  0  0  0  0
  4 19  1  0  0  0  0
  5 20  1  0  0  0  0
  5 21  1  0  0  0  0
  6  7  1  0  0  0  0
  6 22  1  0  0  0  0
  6 23  1  0  0  0  0
  7 24  1  0  0  0  0
  7 25  1  0  0  0  0
  8 10  1  0  0  0  0
  8 11  2  0  0  0  0
  9 12  1  0  0  0  0
  9 26  1  0  0  0  0
  9 27  1  0  0  0  0
 10 13  2  0  0  0  0
 10 28  1  0  0  0  0
 11 14  1  0  0  0  0
 11 29  1  0  0  0  0
 12 30  1  0  0  0  0
 12 31  1  0  0  0  0
 12 32  1  0  0  0  0
 13 15  1  0  0  0  0
 13 16  1  0  0  0  0
 14 15  2  0  0  0  0
 14 33  1  0  0  0  0
 15 34  1  0  0  0  0
M  END
> <PUBCHEM_COMPOUND_CID>
10353207

> <PUBCHEM_COMPOUND_CANONICALIZED>
1

> <PUBCHEM_CACTVS_COMPLEXITY>
265

> <PUBCHEM_CACTVS_HBOND_ACCEPTOR>
2

> <PUBCHEM_CACTVS_HBOND_DONOR>
0

> <PUBCHEM_CACTVS_ROTATABLE_BOND>
2

> <PUBCHEM_CACTVS_SUBSKEYS>
AAADceBzAAAAAAAAAAAAAAAAAAAAAAAAAAA8QAAAAAAAAAABAAAAHAAAAAAADQDBGAQyAIMAAACQBiBCAAAiAAAgAAAIiAAIAIgIoCKAkRGEIAAggACIiA8QgMAOgAACAAAAAAAAAAQAAAAAAAAAAAAAAA==

> <PUBCHEM_IUPAC_OPENEYE_NAME>
3-[(3S)-1-ethyl-3-piperidyl]benzonitrile

> <PUBCHEM_IUPAC_CAS_NAME>
3-[(3S)-1-ethyl-3-piperidinyl]benzonitrile

> <PUBCHEM_IUPAC_NAME_MARKUP>
3-[(3<I>S</I>)-1-ethylpiperidin-3-yl]benzonitrile

> <PUBCHEM_IUPAC_NAME>
3-[(3S)-1-ethylpiperidin-3-yl]benzonitrile

> <PUBCHEM_IUPAC_SYSTEMATIC_NAME>
3-[(3S)-1-ethylpiperidin-3-yl]benzenecarbonitrile

> <PUBCHEM_IUPAC_TRADITIONAL_NAME>
3-[(3S)-1-ethyl-3-piperidyl]benzonitrile

> <PUBCHEM_IUPAC_INCHI>
InChI=1S/C14H18N2/c1-2-16-8-4-7-14(11-16)13-6-3-5-12(9-13)10-15/h3,5-6,9,14H,2,4,7-8,11H2,1H3/t14-/m1/s1

> <PUBCHEM_IUPAC_INCHIKEY>
OPZKYIOCNPKDBN-CQSZACIVSA-N

> <PUBCHEM_XLOGP3_AA>
2.6

> <PUBCHEM_EXACT_MASS>
214.146998583

> <PUBCHEM_MOLECULAR_FORMULA>
C14H18N2

> <PUBCHEM_MOLECULAR_WEIGHT>
214.31

> <PUBCHEM_OPENEYE_CAN_SMILES>
CCN1CCCC(C1)C2=CC=CC(=C2)C#N

> <PUBCHEM_OPENEYE_ISO_SMILES>
CCN1CCC[C@H](C1)C2=CC=CC(=C2)C#N

> <PUBCHEM_CACTVS_TPSA>
27

> <PUBCHEM_MONOISOTOPIC_WEIGHT>
214.146998583

> <PUBCHEM_TOTAL_CHARGE>
0

> <PUBCHEM_HEAVY_ATOM_COUNT>
16

> <PUBCHEM_ATOM_DEF_STEREO_COUNT>
1

> <PUBCHEM_ATOM_UDEF_STEREO_COUNT>
0

> <PUBCHEM_BOND_DEF_STEREO_COUNT>
0

> <PUBCHEM_BOND_UDEF_STEREO_COUNT>
0

> <PUBCHEM_ISOTOPIC_ATOM_COUNT>
0

> <PUBCHEM_COMPONENT_COUNT>
1

> <PUBCHEM_CACTVS_TAUTO_COUNT>
-1

> <PUBCHEM_COORDINATE_TYPE>
1
5
255

> <PUBCHEM_BONDANNOTATIONS>
10  13  8
11  14  8
13  15  8
14  15  8
3  8  6
8  10  8
8  11  8

$$$$
