127035830
  -OEChem-09292322472D

 49 52  0     0  0  0  0  0  0999 V2000
    6.1445    3.2327    0.0000 S   0  0  0  0  0  0  0  0  0  0  0  0
    6.0176   -2.5102    0.0000 O   0  0  0  0  0  0  0  0  0  0  0  0
    4.3445   -2.0619    0.0000 O   0  0  0  0  0  0  0  0  0  0  0  0
    5.5693   -0.8372    0.0000 N   0  0  0  0  0  0  0  0  0  0  0  0
    6.8013    1.7609    0.0000 C   0  0  0  0  0  0  0  0  0  0  0  0
    6.8013    0.7609    0.0000 C   0  0  0  0  0  0  0  0  0  0  0  0
    6.4353   -0.3372    0.0000 C   0  0  0  0  0  0  0  0  0  0  0  0
    5.9353    2.2609    0.0000 C   0  0  0  0  0  0  0  0  0  0  0  0
    5.0693    1.7609    0.0000 C   0  0  0  0  0  0  0  0  0  0  0  0
    5.0693    0.0288    0.0000 C   0  0  0  0  0  0  0  0  0  0  0  0
    4.0693    0.0288    0.0000 C   0  0  0  0  0  0  0  0  0  0  0  0
    4.0693    1.7609    0.0000 C   0  0  0  0  0  0  0  0  0  0  0  0
    7.5383    2.4280    0.0000 C   0  0  0  0  0  0  0  0  0  0  0  0
    3.5693    0.8949    0.0000 C   0  0  0  0  0  0  0  0  0  0  0  0
    7.1332    3.3358    0.0000 C   0  0  0  0  0  0  0  0  0  0  0  0
    3.5624    2.6709    0.0000 C   0  0  0  0  0  0  0  0  0  0  0  0
    2.5278    0.8788    0.0000 C   0  0  0  0  0  0  0  0  0  0  0  0
    8.5664    2.3048    0.0000 C   0  0  0  0  0  0  0  0  0  0  0  0
    5.3104   -1.8031    0.0000 C   0  0  0  0  0  0  0  0  0  0  0  0
    7.7281    4.1833    0.0000 C   0  0  0  0  0  0  0  0  0  0  0  0
    2.5208    2.6789    0.0000 C   0  0  0  0  0  0  0  0  0  0  0  0
    2.0000    1.7768    0.0000 C   0  0  0  0  0  0  0  0  0  0  0  0
    9.1808    3.1383    0.0000 C   0  0  0  0  0  0  0  0  0  0  0  0
    8.7588    4.0839    0.0000 C   0  0  0  0  0  0  0  0  0  0  0  0
    5.7587   -3.4762    0.0000 C   0  0  0  0  0  0  0  0  0  0  0  0
    6.4658   -4.1833    0.0000 C   0  0  0  0  0  0  0  0  0  0  0  0
    7.2600    0.3437    0.0000 H   0  0  0  0  0  0  0  0  0  0  0  0
    6.1893    0.8602    0.0000 H   0  0  0  0  0  0  0  0  0  0  0  0
    6.5838   -0.9392    0.0000 H   0  0  0  0  0  0  0  0  0  0  0  0
    7.0548   -0.3620    0.0000 H   0  0  0  0  0  0  0  0  0  0  0  0
    4.8572    1.1783    0.0000 H   0  0  0  0  0  0  0  0  0  0  0  0
    4.9088    2.3598    0.0000 H   0  0  0  0  0  0  0  0  0  0  0  0
    5.6519    0.2409    0.0000 H   0  0  0  0  0  0  0  0  0  0  0  0
    4.9616    0.6394    0.0000 H   0  0  0  0  0  0  0  0  0  0  0  0
    3.4866   -0.1832    0.0000 H   0  0  0  0  0  0  0  0  0  0  0  0
    4.1769   -0.5818    0.0000 H   0  0  0  0  0  0  0  0  0  0  0  0
    3.8786    3.2042    0.0000 H   0  0  0  0  0  0  0  0  0  0  0  0
    2.2240    0.3383    0.0000 H   0  0  0  0  0  0  0  0  0  0  0  0
    8.8125    1.7357    0.0000 H   0  0  0  0  0  0  0  0  0  0  0  0
    7.4689    4.7465    0.0000 H   0  0  0  0  0  0  0  0  0  0  0  0
    2.2129    3.2170    0.0000 H   0  0  0  0  0  0  0  0  0  0  0  0
    1.3800    1.7744    0.0000 H   0  0  0  0  0  0  0  0  0  0  0  0
    9.7972    3.0716    0.0000 H   0  0  0  0  0  0  0  0  0  0  0  0
    9.1209    4.5872    0.0000 H   0  0  0  0  0  0  0  0  0  0  0  0
    5.1968   -3.2141    0.0000 H   0  0  0  0  0  0  0  0  0  0  0  0
    5.4031   -3.9840    0.0000 H   0  0  0  0  0  0  0  0  0  0  0  0
    6.0274   -4.6217    0.0000 H   0  0  0  0  0  0  0  0  0  0  0  0
    6.9042   -4.6217    0.0000 H   0  0  0  0  0  0  0  0  0  0  0  0
    6.9042   -3.7448    0.0000 H   0  0  0  0  0  0  0  0  0  0  0  0
  1  8  1  0  0  0  0
  1 15  1  0  0  0  0
  2 19  1  0  0  0  0
  2 25  1  0  0  0  0
  3 19  2  0  0  0  0
  4  7  1  0  0  0  0
  4 10  1  0  0  0  0
  4 19  1  0  0  0  0
  5  6  1  0  0  0  0
  5  8  2  0  0  0  0
  5 13  1  0  0  0  0
  6  7  1  0  0  0  0
  6 27  1  0  0  0  0
  6 28  1  0  0  0  0
  7 29  1  0  0  0  0
  7 30  1  0  0  0  0
  8  9  1  0  0  0  0
  9 12  1  0  0  0  0
  9 31  1  0  0  0  0
  9 32  1  0  0  0  0
 10 11  1  0  0  0  0
 10 33  1  0  0  0  0
 10 34  1  0  0  0  0
 11 14  1  0  0  0  0
 11 35  1  0  0  0  0
 11 36  1  0  0  0  0
 12 14  1  0  0  0  0
 12 16  2  0  0  0  0
 13 15  1  0  0  0  0
 13 18  2  0  0  0  0
 14 17  2  0  0  0  0
 15 20  2  0  0  0  0
 16 21  1  0  0  0  0
 16 37  1  0  0  0  0
 17 22  1  0  0  0  0
 17 38  1  0  0  0  0
 18 23  1  0  0  0  0
 18 39  1  0  0  0  0
 20 24  1  0  0  0  0
 20 40  1  0  0  0  0
 21 22  2  0  0  0  0
 21 41  1  0  0  0  0
 22 42  1  0  0  0  0
 23 24  2  0  0  0  0
 23 43  1  0  0  0  0
 24 44  1  0  0  0  0
 25 26  1  0  0  0  0
 25 45  1  0  0  0  0
 25 46  1  0  0  0  0
 26 47  1  0  0  0  0
 26 48  1  0  0  0  0
 26 49  1  0  0  0  0
M  END
> <PUBCHEM_COMPOUND_CID>
127035830

> <PUBCHEM_COMPOUND_CANONICALIZED>
1

> <PUBCHEM_CACTVS_COMPLEXITY>
485

> <PUBCHEM_CACTVS_HBOND_ACCEPTOR>
3

> <PUBCHEM_CACTVS_HBOND_DONOR>
0

> <PUBCHEM_CACTVS_ROTATABLE_BOND>
2

> <PUBCHEM_CACTVS_SUBSKEYS>
AAADceB6MABAAAAAAAAAAAAAAAAAASAAAAAwYAAAAAAAAEix9AAAHgQAAAAADADh2AYyCcMABAiMAiBCGAADAIAgCBBIiBgIAIgIICKgkRGMIAAghgCoiAcQgMAOgAAAAAAUAAAAAAAAACgAAAAAAAAAAA==

> <PUBCHEM_IUPAC_OPENEYE_NAME>
ethyl 21-thia-11-azatetracyclo[12.7.0.03,8.015,20]henicosa-1(14),3,5,7,15,17,19-heptaene-11-carboxylate

> <PUBCHEM_IUPAC_CAS_NAME>
21-thia-11-azatetracyclo[12.7.0.03,8.015,20]heneicosa-1(14),3,5,7,15,17,19-heptaene-11-carboxylic acid ethyl ester

> <PUBCHEM_IUPAC_NAME_MARKUP>
ethyl 21-thia-11-azatetracyclo[12.7.0.0<SUP>3,8</SUP>.0<SUP>15,20</SUP>]henicosa-1(14),3,5,7,15,17,19-heptaene-11-carboxylate

> <PUBCHEM_IUPAC_NAME>
ethyl 21-thia-11-azatetracyclo[12.7.0.03,8.015,20]henicosa-1(14),3,5,7,15,17,19-heptaene-11-carboxylate

> <PUBCHEM_IUPAC_SYSTEMATIC_NAME>
ethyl 21-thia-11-azatetracyclo[12.7.0.03,8.015,20]henicosa-1(14),3,5,7,15,17,19-heptaene-11-carboxylate

> <PUBCHEM_IUPAC_TRADITIONAL_NAME>
21-thia-11-azatetracyclo[12.7.0.03,8.015,20]heneicosa-1(14),3,5,7,15,17,19-heptaene-11-carboxylic acid ethyl ester

> <PUBCHEM_IUPAC_INCHI>
InChI=1S/C22H23NO2S/c1-2-25-22(24)23-13-11-16-7-3-4-8-17(16)15-21-19(12-14-23)18-9-5-6-10-20(18)26-21/h3-10H,2,11-15H2,1H3

> <PUBCHEM_IUPAC_INCHIKEY>
ZBPNGKUYZAIANH-UHFFFAOYSA-N

> <PUBCHEM_XLOGP3_AA>
5.5

> <PUBCHEM_EXACT_MASS>
365.14495015

> <PUBCHEM_MOLECULAR_FORMULA>
C22H23NO2S

> <PUBCHEM_MOLECULAR_WEIGHT>
365.5

> <PUBCHEM_OPENEYE_CAN_SMILES>
CCOC(=O)N1CCC2=CC=CC=C2CC3=C(CC1)C4=CC=CC=C4S3

> <PUBCHEM_OPENEYE_ISO_SMILES>
CCOC(=O)N1CCC2=CC=CC=C2CC3=C(CC1)C4=CC=CC=C4S3

> <PUBCHEM_CACTVS_TPSA>
57.8

> <PUBCHEM_MONOISOTOPIC_WEIGHT>
365.14495015

> <PUBCHEM_TOTAL_CHARGE>
0

> <PUBCHEM_HEAVY_ATOM_COUNT>
26

> <PUBCHEM_ATOM_DEF_STEREO_COUNT>
0

> <PUBCHEM_ATOM_UDEF_STEREO_COUNT>
0

> <PUBCHEM_BOND_DEF_STEREO_COUNT>
0

> <PUBCHEM_BOND_UDEF_STEREO_COUNT>
0

> <PUBCHEM_ISOTOPIC_ATOM_COUNT>
0

> <PUBCHEM_COMPONENT_COUNT>
1

> <PUBCHEM_CACTVS_TAUTO_COUNT>
-1

> <PUBCHEM_COORDINATE_TYPE>
1
5
255

> <PUBCHEM_BONDANNOTATIONS>
1  15  8
1  8  8
12  14  8
12  16  8
13  15  8
13  18  8
14  17  8
15  20  8
16  21  8
17  22  8
18  23  8
20  24  8
21  22  8
23  24  8
5  13  8
5  8  8

$$$$
