138671986
  -OEChem-09292322452D

 73 77  0     1  0  0  0  0  0999 V2000
   17.0834   -3.5114    0.0000 F   0  0  0  0  0  0  0  0  0  0  0  0
   18.4509   -3.1506    0.0000 F   0  0  0  0  0  0  0  0  0  0  0  0
   18.0901   -1.7832    0.0000 F   0  0  0  0  0  0  0  0  0  0  0  0
   10.0000    0.1156    0.0000 O   0  0  0  0  0  0  0  0  0  0  0  0
    5.5000    0.9816    0.0000 O   0  0  0  0  0  0  0  0  0  0  0  0
   15.8547   -2.6406    0.0000 O   0  0  0  0  0  0  0  0  0  0  0  0
   11.0000   -1.6165    0.0000 N   0  0  3  0  0  0  0  0  0  0  0  0
    5.5000   -0.7505    0.0000 N   0  0  0  0  0  0  0  0  0  0  0  0
   14.0846   -2.6512    0.0000 N   0  0  0  0  0  0  0  0  0  0  0  0
    3.0000    2.5114    0.0000 N   0  0  0  0  0  0  0  0  0  0  0  0
    2.1953    1.9278    0.0000 N   0  0  0  0  0  0  0  0  0  0  0  0
    8.5000   -0.7505    0.0000 C   0  0  0  0  0  0  0  0  0  0  0  0
    8.0000   -1.6165    0.0000 C   0  0  0  0  0  0  0  0  0  0  0  0
    8.0000    0.1156    0.0000 C   0  0  0  0  0  0  0  0  0  0  0  0
    6.5000   -0.7505    0.0000 C   0  0  0  0  0  0  0  0  0  0  0  0
    7.0000   -1.6165    0.0000 C   0  0  0  0  0  0  0  0  0  0  0  0
    7.0000    0.1156    0.0000 C   0  0  0  0  0  0  0  0  0  0  0  0
    9.5000   -0.7505    0.0000 C   0  0  3  0  0  0  0  0  0  0  0  0
   10.0000   -1.6165    0.0000 C   0  0  0  0  0  0  0  0  0  0  0  0
   11.4339   -0.7155    0.0000 C   0  0  0  0  0  0  0  0  0  0  0  0
   11.4339   -2.5175    0.0000 C   0  0  0  0  0  0  0  0  0  0  0  0
   12.4088   -0.4930    0.0000 C   0  0  0  0  0  0  0  0  0  0  0  0
   12.4088   -2.7400    0.0000 C   0  0  0  0  0  0  0  0  0  0  0  0
    5.0000    0.1156    0.0000 C   0  0  0  0  0  0  0  0  0  0  0  0
   13.1906   -1.1165    0.0000 C   0  0  0  0  0  0  0  0  0  0  0  0
   13.1906   -2.1165    0.0000 C   0  0  0  0  0  0  0  0  0  0  0  0
    4.0000    0.1156    0.0000 C   0  0  0  0  0  0  0  0  0  0  0  0
   14.0846   -0.5818    0.0000 C   0  0  0  0  0  0  0  0  0  0  0  0
    3.5000    0.9816    0.0000 C   0  0  0  0  0  0  0  0  0  0  0  0
   14.9907   -1.0957    0.0000 C   0  0  0  0  0  0  0  0  0  0  0  0
    3.5000   -0.7505    0.0000 C   0  0  0  0  0  0  0  0  0  0  0  0
   14.9907   -2.1373    0.0000 C   0  0  0  0  0  0  0  0  0  0  0  0
    2.5000    0.9816    0.0000 C   0  0  0  0  0  0  0  0  0  0  0  0
    3.8047    1.9278    0.0000 C   0  0  0  0  0  0  0  0  0  0  0  0
    2.5000   -0.7505    0.0000 C   0  0  0  0  0  0  0  0  0  0  0  0
    2.0000    0.1156    0.0000 C   0  0  0  0  0  0  0  0  0  0  0  0
   16.7227   -2.1440    0.0000 C   0  0  0  0  0  0  0  0  0  0  0  0
    3.0000    3.5114    0.0000 C   0  0  0  0  0  0  0  0  0  0  0  0
   17.5868   -2.6473    0.0000 C   0  0  0  0  0  0  0  0  0  0  0  0
    8.8100   -0.2135    0.0000 H   0  0  0  0  0  0  0  0  0  0  0  0
    7.8923   -2.2271    0.0000 H   0  0  0  0  0  0  0  0  0  0  0  0
    8.5826   -1.8286    0.0000 H   0  0  0  0  0  0  0  0  0  0  0  0
    8.5826    0.3276    0.0000 H   0  0  0  0  0  0  0  0  0  0  0  0
    7.8923    0.7261    0.0000 H   0  0  0  0  0  0  0  0  0  0  0  0
    6.1900   -0.2135    0.0000 H   0  0  0  0  0  0  0  0  0  0  0  0
    6.4174   -1.8286    0.0000 H   0  0  0  0  0  0  0  0  0  0  0  0
    7.1077   -2.2271    0.0000 H   0  0  0  0  0  0  0  0  0  0  0  0
    7.1077    0.7261    0.0000 H   0  0  0  0  0  0  0  0  0  0  0  0
    6.4174    0.3276    0.0000 H   0  0  0  0  0  0  0  0  0  0  0  0
   10.1200   -0.7505    0.0000 H   0  0  0  0  0  0  0  0  0  0  0  0
    9.4174   -1.8286    0.0000 H   0  0  0  0  0  0  0  0  0  0  0  0
   10.1077   -2.2271    0.0000 H   0  0  0  0  0  0  0  0  0  0  0  0
    5.1900   -1.2874    0.0000 H   0  0  0  0  0  0  0  0  0  0  0  0
   11.4339   -0.0955    0.0000 H   0  0  0  0  0  0  0  0  0  0  0  0
   10.8294   -0.5776    0.0000 H   0  0  0  0  0  0  0  0  0  0  0  0
   10.8294   -2.6554    0.0000 H   0  0  0  0  0  0  0  0  0  0  0  0
   11.4339   -3.1375    0.0000 H   0  0  0  0  0  0  0  0  0  0  0  0
    9.6900    0.6525    0.0000 H   0  0  0  0  0  0  0  0  0  0  0  0
   12.8935   -0.1064    0.0000 H   0  0  0  0  0  0  0  0  0  0  0  0
   12.1398    0.0656    0.0000 H   0  0  0  0  0  0  0  0  0  0  0  0
   12.1398   -3.2986    0.0000 H   0  0  0  0  0  0  0  0  0  0  0  0
   12.8935   -3.1266    0.0000 H   0  0  0  0  0  0  0  0  0  0  0  0
   14.0774    0.0381    0.0000 H   0  0  0  0  0  0  0  0  0  0  0  0
   15.5264   -0.7836    0.0000 H   0  0  0  0  0  0  0  0  0  0  0  0
    3.8100   -1.2874    0.0000 H   0  0  0  0  0  0  0  0  0  0  0  0
    4.3940    2.1204    0.0000 H   0  0  0  0  0  0  0  0  0  0  0  0
    2.1900   -1.2874    0.0000 H   0  0  0  0  0  0  0  0  0  0  0  0
    1.3800    0.1156    0.0000 H   0  0  0  0  0  0  0  0  0  0  0  0
   17.1230   -1.6706    0.0000 H   0  0  0  0  0  0  0  0  0  0  0  0
   16.3260   -1.6675    0.0000 H   0  0  0  0  0  0  0  0  0  0  0  0
    3.6200    3.5114    0.0000 H   0  0  0  0  0  0  0  0  0  0  0  0
    3.0000    4.1314    0.0000 H   0  0  0  0  0  0  0  0  0  0  0  0
    2.3800    3.5114    0.0000 H   0  0  0  0  0  0  0  0  0  0  0  0
  1 39  1  0  0  0  0
  2 39  1  0  0  0  0
  3 39  1  0  0  0  0
  4 18  1  0  0  0  0
  4 58  1  0  0  0  0
  5 24  2  0  0  0  0
  6 32  1  0  0  0  0
  6 37  1  0  0  0  0
  7 19  1  0  0  0  0
  7 20  1  0  0  0  0
  7 21  1  0  0  0  0
  8 15  1  0  0  0  0
  8 24  1  0  0  0  0
  8 53  1  0  0  0  0
  9 26  1  0  0  0  0
  9 32  2  0  0  0  0
 10 11  1  0  0  0  0
 10 34  1  0  0  0  0
 10 38  1  0  0  0  0
 11 33  2  0  0  0  0
 12 13  1  0  0  0  0
 12 14  1  0  0  0  0
 12 18  1  0  0  0  0
 12 40  1  0  0  0  0
 13 16  1  0  0  0  0
 13 41  1  0  0  0  0
 13 42  1  0  0  0  0
 14 17  1  0  0  0  0
 14 43  1  0  0  0  0
 14 44  1  0  0  0  0
 15 16  1  0  0  0  0
 15 17  1  0  0  0  0
 15 45  1  0  0  0  0
 16 46  1  0  0  0  0
 16 47  1  0  0  0  0
 17 48  1  0  0  0  0
 17 49  1  0  0  0  0
 18 19  1  0  0  0  0
 18 50  1  0  0  0  0
 19 51  1  0  0  0  0
 19 52  1  0  0  0  0
 20 22  1  0  0  0  0
 20 54  1  0  0  0  0
 20 55  1  0  0  0  0
 21 23  1  0  0  0  0
 21 56  1  0  0  0  0
 21 57  1  0  0  0  0
 22 25  1  0  0  0  0
 22 59  1  0  0  0  0
 22 60  1  0  0  0  0
 23 26  1  0  0  0  0
 23 61  1  0  0  0  0
 23 62  1  0  0  0  0
 24 27  1  0  0  0  0
 25 26  2  0  0  0  0
 25 28  1  0  0  0  0
 27 29  1  0  0  0  0
 27 31  2  0  0  0  0
 28 30  2  0  0  0  0
 28 63  1  0  0  0  0
 29 33  1  0  0  0  0
 29 34  2  0  0  0  0
 30 32  1  0  0  0  0
 30 64  1  0  0  0  0
 31 35  1  0  0  0  0
 31 65  1  0  0  0  0
 33 36  1  0  0  0  0
 34 66  1  0  0  0  0
 35 36  2  0  0  0  0
 35 67  1  0  0  0  0
 36 68  1  0  0  0  0
 37 39  1  0  0  0  0
 37 69  1  0  0  0  0
 37 70  1  0  0  0  0
 38 71  1  0  0  0  0
 38 72  1  0  0  0  0
 38 73  1  0  0  0  0
M  END
> <PUBCHEM_COMPOUND_CID>
138671986

> <PUBCHEM_COMPOUND_CANONICALIZED>
1

> <PUBCHEM_CACTVS_COMPLEXITY>
812

> <PUBCHEM_CACTVS_HBOND_ACCEPTOR>
9

> <PUBCHEM_CACTVS_HBOND_DONOR>
2

> <PUBCHEM_CACTVS_ROTATABLE_BOND>
7

> <PUBCHEM_CACTVS_SUBSKEYS>
AAADcfB7sYAAAAAAAAAAAAAAAAAAAWAAAAA8YIAABYAAAFgB/AAAHwAYCAAADTzhnhY+xPPIFgCqAzV3VACSjCA1oiAY2KE+bNgONvLE9duO/Sjk3hHY6Yec2KOOgAAAQAASAAAQAACAACQAAAAAAAAAAA==

> <PUBCHEM_IUPAC_OPENEYE_NAME>
N-[4-[1-hydroxy-2-[2-(2,2,2-trifluoroethoxy)-5,6,8,9-tetrahydropyrido[2,3-d]azepin-7-yl]ethyl]cyclohexyl]-2-methyl-indazole-4-carboxamide

> <PUBCHEM_IUPAC_CAS_NAME>
N-[4-[1-hydroxy-2-[2-(2,2,2-trifluoroethoxy)-5,6,8,9-tetrahydropyrido[2,3-d]azepin-7-yl]ethyl]cyclohexyl]-2-methyl-4-indazolecarboxamide

> <PUBCHEM_IUPAC_NAME_MARKUP>
<I>N</I>-[4-[1-hydroxy-2-[2-(2,2,2-trifluoroethoxy)-5,6,8,9-tetrahydropyrido[2,3-d]azepin-7-yl]ethyl]cyclohexyl]-2-methylindazole-4-carboxamide

> <PUBCHEM_IUPAC_NAME>
N-[4-[1-hydroxy-2-[2-(2,2,2-trifluoroethoxy)-5,6,8,9-tetrahydropyrido[2,3-d]azepin-7-yl]ethyl]cyclohexyl]-2-methylindazole-4-carboxamide

> <PUBCHEM_IUPAC_SYSTEMATIC_NAME>
2-methyl-N-[4-[1-oxidanyl-2-[2-[2,2,2-tris(fluoranyl)ethoxy]-5,6,8,9-tetrahydropyrido[2,3-d]azepin-7-yl]ethyl]cyclohexyl]indazole-4-carboxamide

> <PUBCHEM_IUPAC_TRADITIONAL_NAME>
N-[4-[1-hydroxy-2-[2-(2,2,2-trifluoroethoxy)-5,6,8,9-tetrahydropyrid[2,3-d]azepin-7-yl]ethyl]cyclohexyl]-2-methyl-indazole-4-carboxamide

> <PUBCHEM_IUPAC_INCHI>
InChI=1S/C28H34F3N5O3/c1-35-15-22-21(3-2-4-24(22)34-35)27(38)32-20-8-5-19(6-9-20)25(37)16-36-13-11-18-7-10-26(33-23(18)12-14-36)39-17-28(29,30)31/h2-4,7,10,15,19-20,25,37H,5-6,8-9,11-14,16-17H2,1H3,(H,32,38)

> <PUBCHEM_IUPAC_INCHIKEY>
IDACJXRLCWWYDT-UHFFFAOYSA-N

> <PUBCHEM_XLOGP3_AA>
4.2

> <PUBCHEM_EXACT_MASS>
545.26137445

> <PUBCHEM_MOLECULAR_FORMULA>
C28H34F3N5O3

> <PUBCHEM_MOLECULAR_WEIGHT>
545.6

> <PUBCHEM_OPENEYE_CAN_SMILES>
CN1C=C2C(=N1)C=CC=C2C(=O)NC3CCC(CC3)C(CN4CCC5=C(CC4)N=C(C=C5)OCC(F)(F)F)O

> <PUBCHEM_OPENEYE_ISO_SMILES>
CN1C=C2C(=N1)C=CC=C2C(=O)NC3CCC(CC3)C(CN4CCC5=C(CC4)N=C(C=C5)OCC(F)(F)F)O

> <PUBCHEM_CACTVS_TPSA>
92.5

> <PUBCHEM_MONOISOTOPIC_WEIGHT>
545.26137445

> <PUBCHEM_TOTAL_CHARGE>
0

> <PUBCHEM_HEAVY_ATOM_COUNT>
39

> <PUBCHEM_ATOM_DEF_STEREO_COUNT>
0

> <PUBCHEM_ATOM_UDEF_STEREO_COUNT>
1

> <PUBCHEM_BOND_DEF_STEREO_COUNT>
0

> <PUBCHEM_BOND_UDEF_STEREO_COUNT>
0

> <PUBCHEM_ISOTOPIC_ATOM_COUNT>
0

> <PUBCHEM_COMPONENT_COUNT>
1

> <PUBCHEM_CACTVS_TAUTO_COUNT>
-1

> <PUBCHEM_COORDINATE_TYPE>
1
5
255

> <PUBCHEM_BONDANNOTATIONS>
10  11  8
10  34  8
11  33  8
25  26  8
25  28  8
27  29  8
27  31  8
28  30  8
29  33  8
29  34  8
30  32  8
31  35  8
33  36  8
35  36  8
18  4  3
9  26  8
9  32  8

$$$$
