10711404
  -OEChem-09292322512D

 41 44  0     1  0  0  0  0  0999 V2000
    2.0000   -0.1311    0.0000 Cl  0  0  0  0  0  0  0  0  0  0  0  0
    4.2086    1.1622    0.0000 F   0  0  0  0  0  0  0  0  0  0  0  0
    7.1441    1.7809    0.0000 N   0  0  0  0  0  0  0  0  0  0  0  0
    5.5443   -1.9358    0.0000 N   0  0  0  0  0  0  0  0  0  0  0  0
    5.8550    0.6241    0.0000 C   0  0  1  0  0  0  0  0  0  0  0  0
    5.1871    1.3684    0.0000 C   0  0  1  0  0  0  0  0  0  0  0  0
    6.8335    0.8304    0.0000 C   0  0  0  0  0  0  0  0  0  0  0  0
    5.5443   -0.3264    0.0000 C   0  0  0  0  0  0  0  0  0  0  0  0
    5.4978    2.3190    0.0000 C   0  0  0  0  0  0  0  0  0  0  0  0
    6.4763    2.5252    0.0000 C   0  0  0  0  0  0  0  0  0  0  0  0
    4.5981   -0.6311    0.0000 C   0  0  0  0  0  0  0  0  0  0  0  0
    6.1279   -1.1311    0.0000 C   0  0  0  0  0  0  0  0  0  0  0  0
    4.5981   -1.6311    0.0000 C   0  0  0  0  0  0  0  0  0  0  0  0
    7.1279   -1.1311    0.0000 C   0  0  0  0  0  0  0  0  0  0  0  0
    3.7320   -0.1311    0.0000 C   0  0  0  0  0  0  0  0  0  0  0  0
    3.7320   -2.1311    0.0000 C   0  0  0  0  0  0  0  0  0  0  0  0
    2.8660   -0.6311    0.0000 C   0  0  0  0  0  0  0  0  0  0  0  0
    2.8660   -1.6311    0.0000 C   0  0  0  0  0  0  0  0  0  0  0  0
    7.6279   -0.2651    0.0000 C   0  0  0  0  0  0  0  0  0  0  0  0
    7.6279   -1.9971    0.0000 C   0  0  0  0  0  0  0  0  0  0  0  0
    8.6279   -0.2651    0.0000 C   0  0  0  0  0  0  0  0  0  0  0  0
    8.6279   -1.9971    0.0000 C   0  0  0  0  0  0  0  0  0  0  0  0
    9.1279   -1.1311    0.0000 C   0  0  0  0  0  0  0  0  0  0  0  0
    6.4226   -0.0085    0.0000 H   0  0  0  0  0  0  0  0  0  0  0  0
    4.9945    0.7791    0.0000 H   0  0  0  0  0  0  0  0  0  0  0  0
    6.8540    0.2107    0.0000 H   0  0  0  0  0  0  0  0  0  0  0  0
    7.4473    0.7430    0.0000 H   0  0  0  0  0  0  0  0  0  0  0  0
    5.4772    2.9386    0.0000 H   0  0  0  0  0  0  0  0  0  0  0  0
    4.8840    2.4063    0.0000 H   0  0  0  0  0  0  0  0  0  0  0  0
    7.0026    2.8528    0.0000 H   0  0  0  0  0  0  0  0  0  0  0  0
    6.2450    3.1004    0.0000 H   0  0  0  0  0  0  0  0  0  0  0  0
    7.7508    1.9087    0.0000 H   0  0  0  0  0  0  0  0  0  0  0  0
    5.7369   -2.5252    0.0000 H   0  0  0  0  0  0  0  0  0  0  0  0
    3.7320    0.4889    0.0000 H   0  0  0  0  0  0  0  0  0  0  0  0
    3.7320   -2.7511    0.0000 H   0  0  0  0  0  0  0  0  0  0  0  0
    2.3291   -1.9411    0.0000 H   0  0  0  0  0  0  0  0  0  0  0  0
    7.3179    0.2718    0.0000 H   0  0  0  0  0  0  0  0  0  0  0  0
    7.3179   -2.5341    0.0000 H   0  0  0  0  0  0  0  0  0  0  0  0
    8.9379    0.2718    0.0000 H   0  0  0  0  0  0  0  0  0  0  0  0
    8.9379   -2.5341    0.0000 H   0  0  0  0  0  0  0  0  0  0  0  0
    9.7479   -1.1311    0.0000 H   0  0  0  0  0  0  0  0  0  0  0  0
  1 17  1  0  0  0  0
  6  2  1  6  0  0  0
  3  7  1  0  0  0  0
  3 10  1  0  0  0  0
  3 32  1  0  0  0  0
  4 12  1  0  0  0  0
  4 13  1  0  0  0  0
  4 33  1  0  0  0  0
  5  6  1  0  0  0  0
  5  7  1  0  0  0  0
  5  8  1  0  0  0  0
  5 24  1  6  0  0  0
  6  9  1  0  0  0  0
  6 25  1  0  0  0  0
  7 26  1  0  0  0  0
  7 27  1  0  0  0  0
  8 11  1  0  0  0  0
  8 12  2  0  0  0  0
  9 10  1  0  0  0  0
  9 28  1  0  0  0  0
  9 29  1  0  0  0  0
 10 30  1  0  0  0  0
 10 31  1  0  0  0  0
 11 13  2  0  0  0  0
 11 15  1  0  0  0  0
 12 14  1  0  0  0  0
 13 16  1  0  0  0  0
 14 19  2  0  0  0  0
 14 20  1  0  0  0  0
 15 17  2  0  0  0  0
 15 34  1  0  0  0  0
 16 18  2  0  0  0  0
 16 35  1  0  0  0  0
 17 18  1  0  0  0  0
 18 36  1  0  0  0  0
 19 21  1  0  0  0  0
 19 37  1  0  0  0  0
 20 22  2  0  0  0  0
 20 38  1  0  0  0  0
 21 23  2  0  0  0  0
 21 39  1  0  0  0  0
 22 23  1  0  0  0  0
 22 40  1  0  0  0  0
 23 41  1  0  0  0  0
M  END
> <PUBCHEM_COMPOUND_CID>
10711404

> <PUBCHEM_COMPOUND_CANONICALIZED>
1

> <PUBCHEM_CACTVS_COMPLEXITY>
401

> <PUBCHEM_CACTVS_HBOND_ACCEPTOR>
2

> <PUBCHEM_CACTVS_HBOND_DONOR>
2

> <PUBCHEM_CACTVS_ROTATABLE_BOND>
2

> <PUBCHEM_CACTVS_SUBSKEYS>
AAADceB7AQAEAAAAAAAAAAAAAAAAAWAAAAA8YIAAAAAAAFgB9AAAHQIQAAAADQrBHiQwwPLJkACgAyRiRACCgCAhByAImaA4ZpgIIOLBk5GEIAhgkADIyAcQgMAOgABAIAACAAAAAIBAAAQAAAAAAAAAAA==

> <PUBCHEM_IUPAC_OPENEYE_NAME>
5-chloro-3-[(3R,4R)-4-fluoro-3-piperidyl]-2-phenyl-1H-indole

> <PUBCHEM_IUPAC_CAS_NAME>
5-chloro-3-[(3R,4R)-4-fluoro-3-piperidinyl]-2-phenyl-1H-indole

> <PUBCHEM_IUPAC_NAME_MARKUP>
5-chloro-3-[(3<I>R</I>,4<I>R</I>)-4-fluoropiperidin-3-yl]-2-phenyl-1<I>H</I>-indole

> <PUBCHEM_IUPAC_NAME>
5-chloro-3-[(3R,4R)-4-fluoropiperidin-3-yl]-2-phenyl-1H-indole

> <PUBCHEM_IUPAC_SYSTEMATIC_NAME>
5-chloranyl-3-[(3R,4R)-4-fluoranylpiperidin-3-yl]-2-phenyl-1H-indole

> <PUBCHEM_IUPAC_TRADITIONAL_NAME>
5-chloro-3-[(3R,4R)-4-fluoro-3-piperidyl]-2-phenyl-1H-indole

> <PUBCHEM_IUPAC_INCHI>
InChI=1S/C19H18ClFN2/c20-13-6-7-17-14(10-13)18(15-11-22-9-8-16(15)21)19(23-17)12-4-2-1-3-5-12/h1-7,10,15-16,22-23H,8-9,11H2/t15-,16-/m1/s1

> <PUBCHEM_IUPAC_INCHIKEY>
PAVYFSUMGRBRPZ-HZPDHXFCSA-N

> <PUBCHEM_XLOGP3_AA>
4.5

> <PUBCHEM_EXACT_MASS>
328.1142544

> <PUBCHEM_MOLECULAR_FORMULA>
C19H18ClFN2

> <PUBCHEM_MOLECULAR_WEIGHT>
328.8

> <PUBCHEM_OPENEYE_CAN_SMILES>
C1CNCC(C1F)C2=C(NC3=C2C=C(C=C3)Cl)C4=CC=CC=C4

> <PUBCHEM_OPENEYE_ISO_SMILES>
C1CNC[C@H]([C@@H]1F)C2=C(NC3=C2C=C(C=C3)Cl)C4=CC=CC=C4

> <PUBCHEM_CACTVS_TPSA>
27.8

> <PUBCHEM_MONOISOTOPIC_WEIGHT>
328.1142544

> <PUBCHEM_TOTAL_CHARGE>
0

> <PUBCHEM_HEAVY_ATOM_COUNT>
23

> <PUBCHEM_ATOM_DEF_STEREO_COUNT>
2

> <PUBCHEM_ATOM_UDEF_STEREO_COUNT>
0

> <PUBCHEM_BOND_DEF_STEREO_COUNT>
0

> <PUBCHEM_BOND_UDEF_STEREO_COUNT>
0

> <PUBCHEM_ISOTOPIC_ATOM_COUNT>
0

> <PUBCHEM_COMPONENT_COUNT>
1

> <PUBCHEM_CACTVS_TAUTO_COUNT>
-1

> <PUBCHEM_COORDINATE_TYPE>
1
5
255

> <PUBCHEM_BONDANNOTATIONS>
11  13  8
11  15  8
13  16  8
14  19  8
14  20  8
15  17  8
16  18  8
17  18  8
19  21  8
6  2  6
20  22  8
21  23  8
22  23  8
4  12  8
4  13  8
5  24  6
8  11  8
8  12  8

$$$$
