44376230
  -OEChem-09292322212D

 60 63  0     1  0  0  0  0  0999 V2000
    6.3205   -0.0750    0.0000 O   0  0  0  0  0  0  0  0  0  0  0  0
    9.8525   -0.0475    0.0000 N   0  0  3  0  0  0  0  0  0  0  0  0
   11.5846    0.9525    0.0000 N   0  0  3  0  0  0  0  0  0  0  0  0
   12.4506    2.4525    0.0000 N   0  0  0  0  0  0  0  0  0  0  0  0
   13.3166    0.9525    0.0000 N   0  0  0  0  0  0  0  0  0  0  0  0
    9.8525    0.9525    0.0000 C   0  0  1  0  0  0  0  0  0  0  0  0
    8.0525   -0.0684    0.0000 C   0  0  1  0  0  0  0  0  0  0  0  0
    8.9586    1.4871    0.0000 C   0  0  0  0  0  0  0  0  0  0  0  0
    8.9586   -0.5822    0.0000 C   0  0  0  0  0  0  0  0  0  0  0  0
    8.0525    0.9733    0.0000 C   0  0  0  0  0  0  0  0  0  0  0  0
   10.7185    1.4525    0.0000 C   0  0  0  0  0  0  0  0  0  0  0  0
   10.7185   -0.5475    0.0000 C   0  0  0  0  0  0  0  0  0  0  0  0
   11.5846   -0.0475    0.0000 C   0  0  0  0  0  0  0  0  0  0  0  0
    7.1884   -0.5717    0.0000 C   0  0  0  0  0  0  0  0  0  0  0  0
   12.4506    1.4525    0.0000 C   0  0  0  0  0  0  0  0  0  0  0  0
    5.4564   -0.5784    0.0000 C   0  0  0  0  0  0  0  0  0  0  0  0
    2.8641   -2.0884    0.0000 C   0  0  0  0  0  0  0  0  0  0  0  0
    3.7282   -1.5850    0.0000 C   0  0  0  0  0  0  0  0  0  0  0  0
    5.4602   -1.5784    0.0000 C   0  0  0  0  0  0  0  0  0  0  0  0
    4.5884   -0.0817    0.0000 C   0  0  0  0  0  0  0  0  0  0  0  0
   13.3166    2.9525    0.0000 C   0  0  0  0  0  0  0  0  0  0  0  0
   14.1826    1.4525    0.0000 C   0  0  0  0  0  0  0  0  0  0  0  0
    4.5961   -2.0817    0.0000 C   0  0  0  0  0  0  0  0  0  0  0  0
    3.7243   -0.5850    0.0000 C   0  0  0  0  0  0  0  0  0  0  0  0
    2.0000   -2.5917    0.0000 C   0  0  0  0  0  0  0  0  0  0  0  0
    2.3608   -1.2243    0.0000 C   0  0  0  0  0  0  0  0  0  0  0  0
    3.3674   -2.9525    0.0000 C   0  0  0  0  0  0  0  0  0  0  0  0
   14.1826    2.4525    0.0000 C   0  0  0  0  0  0  0  0  0  0  0  0
    9.8591    1.8024    0.0000 H   0  0  0  0  0  0  0  0  0  0  0  0
    8.0561   -0.6883    0.0000 H   0  0  0  0  0  0  0  0  0  0  0  0
    9.3632    1.9569    0.0000 H   0  0  0  0  0  0  0  0  0  0  0  0
    8.5649    1.9661    0.0000 H   0  0  0  0  0  0  0  0  0  0  0  0
    8.5649   -1.0612    0.0000 H   0  0  0  0  0  0  0  0  0  0  0  0
    9.3632   -1.0520    0.0000 H   0  0  0  0  0  0  0  0  0  0  0  0
    7.8434    1.5570    0.0000 H   0  0  0  0  0  0  0  0  0  0  0  0
    7.4416    0.8672    0.0000 H   0  0  0  0  0  0  0  0  0  0  0  0
   11.1171    1.9274    0.0000 H   0  0  0  0  0  0  0  0  0  0  0  0
   10.3200    1.9274    0.0000 H   0  0  0  0  0  0  0  0  0  0  0  0
   10.3200   -1.0225    0.0000 H   0  0  0  0  0  0  0  0  0  0  0  0
   11.1171   -1.0225    0.0000 H   0  0  0  0  0  0  0  0  0  0  0  0
   11.7966   -0.6301    0.0000 H   0  0  0  0  0  0  0  0  0  0  0  0
   12.1951    0.0601    0.0000 H   0  0  0  0  0  0  0  0  0  0  0  0
    6.7917   -1.0482    0.0000 H   0  0  0  0  0  0  0  0  0  0  0  0
    7.5888   -1.0451    0.0000 H   0  0  0  0  0  0  0  0  0  0  0  0
    5.9984   -1.8863    0.0000 H   0  0  0  0  0  0  0  0  0  0  0  0
    4.5860    0.5383    0.0000 H   0  0  0  0  0  0  0  0  0  0  0  0
    4.5985   -2.7017    0.0000 H   0  0  0  0  0  0  0  0  0  0  0  0
    3.1862   -0.2771    0.0000 H   0  0  0  0  0  0  0  0  0  0  0  0
   13.3166    3.5725    0.0000 H   0  0  0  0  0  0  0  0  0  0  0  0
   14.7196    1.1425    0.0000 H   0  0  0  0  0  0  0  0  0  0  0  0
    1.6879   -2.0560    0.0000 H   0  0  0  0  0  0  0  0  0  0  0  0
    1.4643   -2.9038    0.0000 H   0  0  0  0  0  0  0  0  0  0  0  0
    2.3121   -3.1274    0.0000 H   0  0  0  0  0  0  0  0  0  0  0  0
    2.8965   -0.9122    0.0000 H   0  0  0  0  0  0  0  0  0  0  0  0
    2.0487   -0.6885    0.0000 H   0  0  0  0  0  0  0  0  0  0  0  0
    1.8250   -1.5363    0.0000 H   0  0  0  0  0  0  0  0  0  0  0  0
    2.8317   -3.2645    0.0000 H   0  0  0  0  0  0  0  0  0  0  0  0
    3.6795   -3.4882    0.0000 H   0  0  0  0  0  0  0  0  0  0  0  0
    3.9032   -2.6404    0.0000 H   0  0  0  0  0  0  0  0  0  0  0  0
   14.7196    2.7625    0.0000 H   0  0  0  0  0  0  0  0  0  0  0  0
  1 14  1  0  0  0  0
  1 16  1  0  0  0  0
  2  6  1  0  0  0  0
  2  9  1  0  0  0  0
  2 12  1  0  0  0  0
  3 11  1  0  0  0  0
  3 13  1  0  0  0  0
  3 15  1  0  0  0  0
  4 15  2  0  0  0  0
  4 21  1  0  0  0  0
  5 15  1  0  0  0  0
  5 22  2  0  0  0  0
  6  8  1  0  0  0  0
  6 11  1  0  0  0  0
  6 29  1  6  0  0  0
  7  9  1  0  0  0  0
  7 10  1  0  0  0  0
  7 14  1  6  0  0  0
  7 30  1  0  0  0  0
  8 10  1  0  0  0  0
  8 31  1  0  0  0  0
  8 32  1  0  0  0  0
  9 33  1  0  0  0  0
  9 34  1  0  0  0  0
 10 35  1  0  0  0  0
 10 36  1  0  0  0  0
 11 37  1  0  0  0  0
 11 38  1  0  0  0  0
 12 13  1  0  0  0  0
 12 39  1  0  0  0  0
 12 40  1  0  0  0  0
 13 41  1  0  0  0  0
 13 42  1  0  0  0  0
 14 43  1  0  0  0  0
 14 44  1  0  0  0  0
 16 19  2  0  0  0  0
 16 20  1  0  0  0  0
 17 18  1  0  0  0  0
 17 25  1  0  0  0  0
 17 26  1  0  0  0  0
 17 27  1  0  0  0  0
 18 23  2  0  0  0  0
 18 24  1  0  0  0  0
 19 23  1  0  0  0  0
 19 45  1  0  0  0  0
 20 24  2  0  0  0  0
 20 46  1  0  0  0  0
 21 28  2  0  0  0  0
 21 49  1  0  0  0  0
 22 28  1  0  0  0  0
 22 50  1  0  0  0  0
 23 47  1  0  0  0  0
 24 48  1  0  0  0  0
 25 51  1  0  0  0  0
 25 52  1  0  0  0  0
 25 53  1  0  0  0  0
 26 54  1  0  0  0  0
 26 55  1  0  0  0  0
 26 56  1  0  0  0  0
 27 57  1  0  0  0  0
 27 58  1  0  0  0  0
 27 59  1  0  0  0  0
 28 60  1  0  0  0  0
M  END
> <PUBCHEM_COMPOUND_CID>
44376230

> <PUBCHEM_COMPOUND_CANONICALIZED>
1

> <PUBCHEM_CACTVS_COMPLEXITY>
480

> <PUBCHEM_CACTVS_HBOND_ACCEPTOR>
5

> <PUBCHEM_CACTVS_HBOND_DONOR>
0

> <PUBCHEM_CACTVS_ROTATABLE_BOND>
5

> <PUBCHEM_CACTVS_SUBSKEYS>
AAADcfB7oAAAAAAAAAAAAAAAAAAAAAAAAAA8WLEAAAAAAACxwAAAHgAAAAAADyzhmgY/lpcIFACgAjBnZACCiCkxIqAJ2CA+bJiMbqLE+VqWPCiuwBPIqCeQ0NMPoAAAAAAAAABAAAAAAAAAAAAAAAAAAA==

> <PUBCHEM_IUPAC_OPENEYE_NAME>
(7R,9aS)-7-[(4-tert-butylphenoxy)methyl]-2-pyrimidin-2-yl-1,3,4,6,7,8,9,9a-octahydropyrido[1,2-a]pyrazine

> <PUBCHEM_IUPAC_CAS_NAME>
(7R,9aS)-7-[(4-tert-butylphenoxy)methyl]-2-(2-pyrimidinyl)-1,3,4,6,7,8,9,9a-octahydropyrido[1,2-a]pyrazine

> <PUBCHEM_IUPAC_NAME_MARKUP>
(7<I>R</I>,9<I>a</I><I>S</I>)-7-[(4-<I>tert</I>-butylphenoxy)methyl]-2-pyrimidin-2-yl-1,3,4,6,7,8,9,9<I>a</I>-octahydropyrido[1,2-a]pyrazine

> <PUBCHEM_IUPAC_NAME>
(7R,9aS)-7-[(4-tert-butylphenoxy)methyl]-2-pyrimidin-2-yl-1,3,4,6,7,8,9,9a-octahydropyrido[1,2-a]pyrazine

> <PUBCHEM_IUPAC_SYSTEMATIC_NAME>
(7R,9aS)-7-[(4-tert-butylphenoxy)methyl]-2-pyrimidin-2-yl-1,3,4,6,7,8,9,9a-octahydropyrido[1,2-a]pyrazine

> <PUBCHEM_IUPAC_TRADITIONAL_NAME>
(7R,9aS)-7-[(4-tert-butylphenoxy)methyl]-2-(2-pyrimidyl)-1,3,4,6,7,8,9,9a-octahydropyrido[1,2-a]pyrazine

> <PUBCHEM_IUPAC_INCHI>
InChI=1S/C23H32N4O/c1-23(2,3)19-6-9-21(10-7-19)28-17-18-5-8-20-16-27(14-13-26(20)15-18)22-24-11-4-12-25-22/h4,6-7,9-12,18,20H,5,8,13-17H2,1-3H3/t18-,20+/m1/s1

> <PUBCHEM_IUPAC_INCHIKEY>
GSVGUZSCTGJZJV-QUCCMNQESA-N

> <PUBCHEM_XLOGP3_AA>
4.6

> <PUBCHEM_EXACT_MASS>
380.25761166

> <PUBCHEM_MOLECULAR_FORMULA>
C23H32N4O

> <PUBCHEM_MOLECULAR_WEIGHT>
380.5

> <PUBCHEM_OPENEYE_CAN_SMILES>
CC(C)(C)C1=CC=C(C=C1)OCC2CCC3CN(CCN3C2)C4=NC=CC=N4

> <PUBCHEM_OPENEYE_ISO_SMILES>
CC(C)(C)C1=CC=C(C=C1)OC[C@@H]2CC[C@H]3CN(CCN3C2)C4=NC=CC=N4

> <PUBCHEM_CACTVS_TPSA>
41.5

> <PUBCHEM_MONOISOTOPIC_WEIGHT>
380.25761166

> <PUBCHEM_TOTAL_CHARGE>
0

> <PUBCHEM_HEAVY_ATOM_COUNT>
28

> <PUBCHEM_ATOM_DEF_STEREO_COUNT>
2

> <PUBCHEM_ATOM_UDEF_STEREO_COUNT>
0

> <PUBCHEM_BOND_DEF_STEREO_COUNT>
0

> <PUBCHEM_BOND_UDEF_STEREO_COUNT>
0

> <PUBCHEM_ISOTOPIC_ATOM_COUNT>
0

> <PUBCHEM_COMPONENT_COUNT>
1

> <PUBCHEM_CACTVS_TAUTO_COUNT>
-1

> <PUBCHEM_COORDINATE_TYPE>
1
5
255

> <PUBCHEM_BONDANNOTATIONS>
16  19  8
16  20  8
18  23  8
18  24  8
19  23  8
20  24  8
21  28  8
22  28  8
4  15  8
4  21  8
5  15  8
5  22  8
6  29  6
7  14  6

$$$$
