11605088
  -OEChem-09292322482D

 62 66  0     0  0  0  0  0  0999 V2000
    6.4103   -5.9438    0.0000 O   0  0  0  0  0  0  0  0  0  0  0  0
    2.8660   -4.1391    0.0000 O   0  0  0  0  0  0  0  0  0  0  0  0
   11.8777    1.2431    0.0000 O   0  0  0  0  0  0  0  0  0  0  0  0
   13.2856    5.8317    0.0000 O   0  0  0  0  0  0  0  0  0  0  0  0
    7.3423   -1.4828    0.0000 N   0  0  0  0  0  0  0  0  0  0  0  0
    6.7210   -3.3838    0.0000 N   0  0  0  0  0  0  0  0  0  0  0  0
    6.9939   -5.1391    0.0000 N   0  0  0  0  0  0  0  0  0  0  0  0
   10.2313    1.7812    0.0000 N   0  0  0  0  0  0  0  0  0  0  0  0
   10.9341    3.7480    0.0000 N   0  0  0  0  0  0  0  0  0  0  0  0
   11.5233    4.5560    0.0000 N   0  0  0  0  0  0  0  0  0  0  0  0
    6.3638   -1.6890    0.0000 C   0  0  0  0  0  0  0  0  0  0  0  0
    8.0102   -2.2271    0.0000 C   0  0  0  0  0  0  0  0  0  0  0  0
    6.0531   -2.6395    0.0000 C   0  0  0  0  0  0  0  0  0  0  0  0
    7.6995   -3.1776    0.0000 C   0  0  0  0  0  0  0  0  0  0  0  0
    7.6530   -0.5323    0.0000 C   0  0  0  0  0  0  0  0  0  0  0  0
    8.6315   -0.3260    0.0000 C   0  0  0  0  0  0  0  0  0  0  0  0
    6.4103   -4.3343    0.0000 C   0  0  0  0  0  0  0  0  0  0  0  0
    8.9421    0.6245    0.0000 C   0  0  0  0  0  0  0  0  0  0  0  0
    5.4641   -4.6391    0.0000 C   0  0  0  0  0  0  0  0  0  0  0  0
    9.9206    0.8307    0.0000 C   0  0  0  0  0  0  0  0  0  0  0  0
    5.4641   -5.6391    0.0000 C   0  0  0  0  0  0  0  0  0  0  0  0
    4.5981   -4.1391    0.0000 C   0  0  0  0  0  0  0  0  0  0  0  0
    4.5981   -6.1391    0.0000 C   0  0  0  0  0  0  0  0  0  0  0  0
    3.7320   -4.6391    0.0000 C   0  0  0  0  0  0  0  0  0  0  0  0
    3.7320   -5.6391    0.0000 C   0  0  0  0  0  0  0  0  0  0  0  0
   11.2098    1.9874    0.0000 C   0  0  0  0  0  0  0  0  0  0  0  0
   11.5205    2.9380    0.0000 C   0  0  0  0  0  0  0  0  0  0  0  0
   12.4721    3.2453    0.0000 C   0  0  0  0  0  0  0  0  0  0  0  0
   12.4738    4.2453    0.0000 C   0  0  0  0  0  0  0  0  0  0  0  0
    2.0000   -4.6391    0.0000 C   0  0  0  0  0  0  0  0  0  0  0  0
   13.2838    4.8317    0.0000 C   0  0  0  0  0  0  0  0  0  0  0  0
   14.2343    4.5210    0.0000 C   0  0  0  0  0  0  0  0  0  0  0  0
   14.8235    5.3290    0.0000 C   0  0  0  0  0  0  0  0  0  0  0  0
   14.2371    6.1391    0.0000 C   0  0  0  0  0  0  0  0  0  0  0  0
    6.3432   -1.0693    0.0000 H   0  0  0  0  0  0  0  0  0  0  0  0
    5.7500   -1.6016    0.0000 H   0  0  0  0  0  0  0  0  0  0  0  0
    8.5571   -2.5191    0.0000 H   0  0  0  0  0  0  0  0  0  0  0  0
    8.3927   -1.7392    0.0000 H   0  0  0  0  0  0  0  0  0  0  0  0
    5.5062   -2.3475    0.0000 H   0  0  0  0  0  0  0  0  0  0  0  0
    5.6706   -3.1274    0.0000 H   0  0  0  0  0  0  0  0  0  0  0  0
    7.7201   -3.7973    0.0000 H   0  0  0  0  0  0  0  0  0  0  0  0
    8.3133   -3.2650    0.0000 H   0  0  0  0  0  0  0  0  0  0  0  0
    7.6324    0.0874    0.0000 H   0  0  0  0  0  0  0  0  0  0  0  0
    7.0392   -0.4449    0.0000 H   0  0  0  0  0  0  0  0  0  0  0  0
    8.6520   -0.9457    0.0000 H   0  0  0  0  0  0  0  0  0  0  0  0
    9.2453   -0.4134    0.0000 H   0  0  0  0  0  0  0  0  0  0  0  0
    8.9216    1.2441    0.0000 H   0  0  0  0  0  0  0  0  0  0  0  0
    8.3283    0.7118    0.0000 H   0  0  0  0  0  0  0  0  0  0  0  0
    9.9412    0.2110    0.0000 H   0  0  0  0  0  0  0  0  0  0  0  0
   10.5345    0.7433    0.0000 H   0  0  0  0  0  0  0  0  0  0  0  0
    4.5981   -3.5191    0.0000 H   0  0  0  0  0  0  0  0  0  0  0  0
    9.8172    2.2427    0.0000 H   0  0  0  0  0  0  0  0  0  0  0  0
    4.5981   -6.7591    0.0000 H   0  0  0  0  0  0  0  0  0  0  0  0
    3.1951   -5.9491    0.0000 H   0  0  0  0  0  0  0  0  0  0  0  0
   12.9730    2.8800    0.0000 H   0  0  0  0  0  0  0  0  0  0  0  0
    1.6900   -4.1021    0.0000 H   0  0  0  0  0  0  0  0  0  0  0  0
    1.4631   -4.9491    0.0000 H   0  0  0  0  0  0  0  0  0  0  0  0
    2.3100   -5.1760    0.0000 H   0  0  0  0  0  0  0  0  0  0  0  0
   11.3327    5.1460    0.0000 H   0  0  0  0  0  0  0  0  0  0  0  0
   14.4249    3.9311    0.0000 H   0  0  0  0  0  0  0  0  0  0  0  0
   15.4435    5.3280    0.0000 H   0  0  0  0  0  0  0  0  0  0  0  0
   14.4298    6.7284    0.0000 H   0  0  0  0  0  0  0  0  0  0  0  0
  1  7  1  0  0  0  0
  1 21  1  0  0  0  0
  2 24  1  0  0  0  0
  2 30  1  0  0  0  0
  3 26  2  0  0  0  0
  4 31  1  0  0  0  0
  4 34  1  0  0  0  0
  5 11  1  0  0  0  0
  5 12  1  0  0  0  0
  5 15  1  0  0  0  0
  6 13  1  0  0  0  0
  6 14  1  0  0  0  0
  6 17  1  0  0  0  0
  7 17  2  0  0  0  0
  8 20  1  0  0  0  0
  8 26  1  0  0  0  0
  8 52  1  0  0  0  0
  9 10  1  0  0  0  0
  9 27  2  0  0  0  0
 10 29  1  0  0  0  0
 10 59  1  0  0  0  0
 11 13  1  0  0  0  0
 11 35  1  0  0  0  0
 11 36  1  0  0  0  0
 12 14  1  0  0  0  0
 12 37  1  0  0  0  0
 12 38  1  0  0  0  0
 13 39  1  0  0  0  0
 13 40  1  0  0  0  0
 14 41  1  0  0  0  0
 14 42  1  0  0  0  0
 15 16  1  0  0  0  0
 15 43  1  0  0  0  0
 15 44  1  0  0  0  0
 16 18  1  0  0  0  0
 16 45  1  0  0  0  0
 16 46  1  0  0  0  0
 17 19  1  0  0  0  0
 18 20  1  0  0  0  0
 18 47  1  0  0  0  0
 18 48  1  0  0  0  0
 19 21  2  0  0  0  0
 19 22  1  0  0  0  0
 20 49  1  0  0  0  0
 20 50  1  0  0  0  0
 21 23  1  0  0  0  0
 22 24  2  0  0  0  0
 22 51  1  0  0  0  0
 23 25  2  0  0  0  0
 23 53  1  0  0  0  0
 24 25  1  0  0  0  0
 25 54  1  0  0  0  0
 26 27  1  0  0  0  0
 27 28  1  0  0  0  0
 28 29  2  0  0  0  0
 28 55  1  0  0  0  0
 29 31  1  0  0  0  0
 30 56  1  0  0  0  0
 30 57  1  0  0  0  0
 30 58  1  0  0  0  0
 31 32  2  0  0  0  0
 32 33  1  0  0  0  0
 32 60  1  0  0  0  0
 33 34  2  0  0  0  0
 33 61  1  0  0  0  0
 34 62  1  0  0  0  0
M  END
> <PUBCHEM_COMPOUND_CID>
11605088

> <PUBCHEM_COMPOUND_CANONICALIZED>
1

> <PUBCHEM_CACTVS_COMPLEXITY>
663

> <PUBCHEM_CACTVS_HBOND_ACCEPTOR>
8

> <PUBCHEM_CACTVS_HBOND_DONOR>
2

> <PUBCHEM_CACTVS_ROTATABLE_BOND>
9

> <PUBCHEM_CACTVS_SUBSKEYS>
AAADceB7uAAAAAAAAAAAAAAAAAAAAWLEgAA8QAAAAAAAAFgB/gAAHgAcAAAADAzhngYzttPzBECrA69y8gSSDAAnIgA5uaG+bNqOZrrE/duXvajm3hvI6cf+37P+AQABAAAIAAACAAIAABAAAAAAAAAAAA==

> <PUBCHEM_IUPAC_OPENEYE_NAME>
5-(2-furyl)-N-[4-[4-(5-methoxy-1,2-benzoxazol-3-yl)piperazin-1-yl]butyl]-1H-pyrazole-3-carboxamide

> <PUBCHEM_IUPAC_CAS_NAME>
5-(2-furanyl)-N-[4-[4-(5-methoxy-1,2-benzoxazol-3-yl)-1-piperazinyl]butyl]-1H-pyrazole-3-carboxamide

> <PUBCHEM_IUPAC_NAME_MARKUP>
5-(furan-2-yl)-<I>N</I>-[4-[4-(5-methoxy-1,2-benzoxazol-3-yl)piperazin-1-yl]butyl]-1<I>H</I>-pyrazole-3-carboxamide

> <PUBCHEM_IUPAC_NAME>
5-(furan-2-yl)-N-[4-[4-(5-methoxy-1,2-benzoxazol-3-yl)piperazin-1-yl]butyl]-1H-pyrazole-3-carboxamide

> <PUBCHEM_IUPAC_SYSTEMATIC_NAME>
5-(furan-2-yl)-N-[4-[4-(5-methoxy-1,2-benzoxazol-3-yl)piperazin-1-yl]butyl]-1H-pyrazole-3-carboxamide

> <PUBCHEM_IUPAC_TRADITIONAL_NAME>
5-(2-furyl)-N-[4-[4-(5-methoxyindoxazen-3-yl)piperazino]butyl]-1H-pyrazole-3-carboxamide

> <PUBCHEM_IUPAC_INCHI>
InChI=1S/C24H28N6O4/c1-32-17-6-7-21-18(15-17)23(28-34-21)30-12-10-29(11-13-30)9-3-2-8-25-24(31)20-16-19(26-27-20)22-5-4-14-33-22/h4-7,14-16H,2-3,8-13H2,1H3,(H,25,31)(H,26,27)

> <PUBCHEM_IUPAC_INCHIKEY>
MQCABDUKZLMPQP-UHFFFAOYSA-N

> <PUBCHEM_XLOGP3_AA>
3

> <PUBCHEM_EXACT_MASS>
464.21720340

> <PUBCHEM_MOLECULAR_FORMULA>
C24H28N6O4

> <PUBCHEM_MOLECULAR_WEIGHT>
464.5

> <PUBCHEM_OPENEYE_CAN_SMILES>
COC1=CC2=C(C=C1)ON=C2N3CCN(CC3)CCCCNC(=O)C4=NNC(=C4)C5=CC=CO5

> <PUBCHEM_OPENEYE_ISO_SMILES>
COC1=CC2=C(C=C1)ON=C2N3CCN(CC3)CCCCNC(=O)C4=NNC(=C4)C5=CC=CO5

> <PUBCHEM_CACTVS_TPSA>
113

> <PUBCHEM_MONOISOTOPIC_WEIGHT>
464.21720340

> <PUBCHEM_TOTAL_CHARGE>
0

> <PUBCHEM_HEAVY_ATOM_COUNT>
34

> <PUBCHEM_ATOM_DEF_STEREO_COUNT>
0

> <PUBCHEM_ATOM_UDEF_STEREO_COUNT>
0

> <PUBCHEM_BOND_DEF_STEREO_COUNT>
0

> <PUBCHEM_BOND_UDEF_STEREO_COUNT>
0

> <PUBCHEM_ISOTOPIC_ATOM_COUNT>
0

> <PUBCHEM_COMPONENT_COUNT>
1

> <PUBCHEM_CACTVS_TAUTO_COUNT>
-1

> <PUBCHEM_COORDINATE_TYPE>
1
5
255

> <PUBCHEM_BONDANNOTATIONS>
1  21  8
1  7  8
10  29  8
17  19  8
19  21  8
19  22  8
21  23  8
22  24  8
23  25  8
24  25  8
27  28  8
28  29  8
31  32  8
32  33  8
33  34  8
4  31  8
4  34  8
7  17  8
9  10  8
9  27  8

$$$$
