10591665
  -OEChem-09292322522D

 53 54  0     1  0  0  0  0  0999 V2000
    5.4572   -2.5099    0.0000 O   0  0  0  0  0  0  0  0  0  0  0  0
    4.5806    1.0146    0.0000 O   0  0  0  0  0  0  0  0  0  0  0  0
    7.1893   -0.5099    0.0000 N   0  0  0  0  0  0  0  0  0  0  0  0
    2.8486    1.0347    0.0000 N   0  0  0  0  0  0  0  0  0  0  0  0
    6.3232   -1.0099    0.0000 C   0  0  2  0  0  0  0  0  0  0  0  0
    5.4572   -0.5099    0.0000 C   0  0  0  0  0  0  0  0  0  0  0  0
    6.3232   -2.0099    0.0000 C   0  0  0  0  0  0  0  0  0  0  0  0
    4.5912   -1.0099    0.0000 C   0  0  0  0  0  0  0  0  0  0  0  0
    8.0553   -1.0099    0.0000 C   0  0  0  0  0  0  0  0  0  0  0  0
    7.1893    0.4901    0.0000 C   0  0  0  0  0  0  0  0  0  0  0  0
    4.5912   -2.0099    0.0000 C   0  0  0  0  0  0  0  0  0  0  0  0
    8.9213   -0.5099    0.0000 C   0  0  0  0  0  0  0  0  0  0  0  0
    8.0553    0.9901    0.0000 C   0  0  0  0  0  0  0  0  0  0  0  0
    3.6972   -0.4753    0.0000 C   0  0  0  0  0  0  0  0  0  0  0  0
    3.6972   -2.5446    0.0000 C   0  0  0  0  0  0  0  0  0  0  0  0
    2.7912   -0.9891    0.0000 C   0  0  0  0  0  0  0  0  0  0  0  0
    9.7873   -1.0099    0.0000 C   0  0  0  0  0  0  0  0  0  0  0  0
    8.0553    1.9901    0.0000 C   0  0  0  0  0  0  0  0  0  0  0  0
    3.7088    0.5247    0.0000 C   0  0  0  0  0  0  0  0  0  0  0  0
    2.7912   -2.0307    0.0000 C   0  0  0  0  0  0  0  0  0  0  0  0
    2.8602    2.0346    0.0000 C   0  0  0  0  0  0  0  0  0  0  0  0
    2.0000    2.5446    0.0000 C   0  0  0  0  0  0  0  0  0  0  0  0
    3.7319    2.5246    0.0000 C   0  0  0  0  0  0  0  0  0  0  0  0
    6.3232   -0.3899    0.0000 H   0  0  0  0  0  0  0  0  0  0  0  0
    5.8557   -0.0350    0.0000 H   0  0  0  0  0  0  0  0  0  0  0  0
    5.0587   -0.0350    0.0000 H   0  0  0  0  0  0  0  0  0  0  0  0
    6.5353   -2.5925    0.0000 H   0  0  0  0  0  0  0  0  0  0  0  0
    6.9338   -1.9022    0.0000 H   0  0  0  0  0  0  0  0  0  0  0  0
    7.6568   -1.4849    0.0000 H   0  0  0  0  0  0  0  0  0  0  0  0
    8.4538   -1.4849    0.0000 H   0  0  0  0  0  0  0  0  0  0  0  0
    6.9772    1.0727    0.0000 H   0  0  0  0  0  0  0  0  0  0  0  0
    6.5787    0.3824    0.0000 H   0  0  0  0  0  0  0  0  0  0  0  0
    9.3198   -0.0350    0.0000 H   0  0  0  0  0  0  0  0  0  0  0  0
    8.5228   -0.0350    0.0000 H   0  0  0  0  0  0  0  0  0  0  0  0
    8.2673    0.4075    0.0000 H   0  0  0  0  0  0  0  0  0  0  0  0
    8.6659    1.0978    0.0000 H   0  0  0  0  0  0  0  0  0  0  0  0
    3.7044   -3.1645    0.0000 H   0  0  0  0  0  0  0  0  0  0  0  0
    2.2554   -0.6770    0.0000 H   0  0  0  0  0  0  0  0  0  0  0  0
    9.4773   -1.5468    0.0000 H   0  0  0  0  0  0  0  0  0  0  0  0
   10.3243   -1.3199    0.0000 H   0  0  0  0  0  0  0  0  0  0  0  0
   10.0973   -0.4730    0.0000 H   0  0  0  0  0  0  0  0  0  0  0  0
    8.6753    1.9901    0.0000 H   0  0  0  0  0  0  0  0  0  0  0  0
    8.0553    2.6101    0.0000 H   0  0  0  0  0  0  0  0  0  0  0  0
    7.4353    1.9901    0.0000 H   0  0  0  0  0  0  0  0  0  0  0  0
    2.2554   -2.3428    0.0000 H   0  0  0  0  0  0  0  0  0  0  0  0
    2.3081    0.7309    0.0000 H   0  0  0  0  0  0  0  0  0  0  0  0
    2.3197    1.7308    0.0000 H   0  0  0  0  0  0  0  0  0  0  0  0
    2.3162    3.0779    0.0000 H   0  0  0  0  0  0  0  0  0  0  0  0
    1.4667    2.8608    0.0000 H   0  0  0  0  0  0  0  0  0  0  0  0
    1.6838    2.0113    0.0000 H   0  0  0  0  0  0  0  0  0  0  0  0
    4.0357    1.9841    0.0000 H   0  0  0  0  0  0  0  0  0  0  0  0
    4.2724    2.8283    0.0000 H   0  0  0  0  0  0  0  0  0  0  0  0
    3.4282    3.0650    0.0000 H   0  0  0  0  0  0  0  0  0  0  0  0
  1  7  1  0  0  0  0
  1 11  1  0  0  0  0
  2 19  2  0  0  0  0
  5  3  1  1  0  0  0
  3  9  1  0  0  0  0
  3 10  1  0  0  0  0
  4 19  1  0  0  0  0
  4 21  1  0  0  0  0
  4 46  1  0  0  0  0
  5  6  1  0  0  0  0
  5  7  1  0  0  0  0
  5 24  1  0  0  0  0
  6  8  1  0  0  0  0
  6 25  1  0  0  0  0
  6 26  1  0  0  0  0
  7 27  1  0  0  0  0
  7 28  1  0  0  0  0
  8 11  1  0  0  0  0
  8 14  2  0  0  0  0
  9 12  1  0  0  0  0
  9 29  1  0  0  0  0
  9 30  1  0  0  0  0
 10 13  1  0  0  0  0
 10 31  1  0  0  0  0
 10 32  1  0  0  0  0
 11 15  2  0  0  0  0
 12 17  1  0  0  0  0
 12 33  1  0  0  0  0
 12 34  1  0  0  0  0
 13 18  1  0  0  0  0
 13 35  1  0  0  0  0
 13 36  1  0  0  0  0
 14 16  1  0  0  0  0
 14 19  1  0  0  0  0
 15 20  1  0  0  0  0
 15 37  1  0  0  0  0
 16 20  2  0  0  0  0
 16 38  1  0  0  0  0
 17 39  1  0  0  0  0
 17 40  1  0  0  0  0
 17 41  1  0  0  0  0
 18 42  1  0  0  0  0
 18 43  1  0  0  0  0
 18 44  1  0  0  0  0
 20 45  1  0  0  0  0
 21 22  1  0  0  0  0
 21 23  1  0  0  0  0
 21 47  1  0  0  0  0
 22 48  1  0  0  0  0
 22 49  1  0  0  0  0
 22 50  1  0  0  0  0
 23 51  1  0  0  0  0
 23 52  1  0  0  0  0
 23 53  1  0  0  0  0
M  END
> <PUBCHEM_COMPOUND_CID>
10591665

> <PUBCHEM_COMPOUND_CANONICALIZED>
1

> <PUBCHEM_CACTVS_COMPLEXITY>
366

> <PUBCHEM_CACTVS_HBOND_ACCEPTOR>
3

> <PUBCHEM_CACTVS_HBOND_DONOR>
1

> <PUBCHEM_CACTVS_ROTATABLE_BOND>
7

> <PUBCHEM_CACTVS_SUBSKEYS>
AAADceB7MAAAAAAAAAAAAAAAAAAAAAAAAAA0QAAAAAAAAACRAAAAHgAQAAAADCzhmAYyBoPABACIAiFSEACCCAAkIAAIiIEODMgOJjKEtRuHOSjk1hGYqYe6ybCegAABAAAYAAAAAAIAADAAAAAAAAAAAA==

> <PUBCHEM_IUPAC_OPENEYE_NAME>
(3R)-3-(dipropylamino)-N-isopropyl-chromane-5-carboxamide

> <PUBCHEM_IUPAC_CAS_NAME>
(3R)-3-(dipropylamino)-N-propan-2-yl-3,4-dihydro-2H-1-benzopyran-5-carboxamide

> <PUBCHEM_IUPAC_NAME_MARKUP>
(3<I>R</I>)-3-(dipropylamino)-<I>N</I>-propan-2-yl-3,4-dihydro-2<I>H</I>-chromene-5-carboxamide

> <PUBCHEM_IUPAC_NAME>
(3R)-3-(dipropylamino)-N-propan-2-yl-3,4-dihydro-2H-chromene-5-carboxamide

> <PUBCHEM_IUPAC_SYSTEMATIC_NAME>
(3R)-3-(dipropylamino)-N-propan-2-yl-3,4-dihydro-2H-chromene-5-carboxamide

> <PUBCHEM_IUPAC_TRADITIONAL_NAME>
(3R)-3-(dipropylamino)-N-isopropyl-chroman-5-carboxamide

> <PUBCHEM_IUPAC_INCHI>
InChI=1S/C19H30N2O2/c1-5-10-21(11-6-2)15-12-17-16(19(22)20-14(3)4)8-7-9-18(17)23-13-15/h7-9,14-15H,5-6,10-13H2,1-4H3,(H,20,22)/t15-/m1/s1

> <PUBCHEM_IUPAC_INCHIKEY>
ZHZCEXHTNIXXPU-OAHLLOKOSA-N

> <PUBCHEM_XLOGP3_AA>
3.9

> <PUBCHEM_EXACT_MASS>
318.230728204

> <PUBCHEM_MOLECULAR_FORMULA>
C19H30N2O2

> <PUBCHEM_MOLECULAR_WEIGHT>
318.5

> <PUBCHEM_OPENEYE_CAN_SMILES>
CCCN(CCC)C1CC2=C(C=CC=C2OC1)C(=O)NC(C)C

> <PUBCHEM_OPENEYE_ISO_SMILES>
CCCN(CCC)[C@@H]1CC2=C(C=CC=C2OC1)C(=O)NC(C)C

> <PUBCHEM_CACTVS_TPSA>
41.6

> <PUBCHEM_MONOISOTOPIC_WEIGHT>
318.230728204

> <PUBCHEM_TOTAL_CHARGE>
0

> <PUBCHEM_HEAVY_ATOM_COUNT>
23

> <PUBCHEM_ATOM_DEF_STEREO_COUNT>
1

> <PUBCHEM_ATOM_UDEF_STEREO_COUNT>
0

> <PUBCHEM_BOND_DEF_STEREO_COUNT>
0

> <PUBCHEM_BOND_UDEF_STEREO_COUNT>
0

> <PUBCHEM_ISOTOPIC_ATOM_COUNT>
0

> <PUBCHEM_COMPONENT_COUNT>
1

> <PUBCHEM_CACTVS_TAUTO_COUNT>
-1

> <PUBCHEM_COORDINATE_TYPE>
1
5
255

> <PUBCHEM_BONDANNOTATIONS>
11  15  8
14  16  8
15  20  8
16  20  8
5  3  5
8  11  8
8  14  8

$$$$
