155519891
  -OEChem-09292322462D

 37 39  0     1  0  0  0  0  0999 V2000
    5.2619   -1.5157    0.0000 O   0  0  0  0  0  0  0  0  0  0  0  0
    3.5080    1.5158    0.0000 O   0  0  0  0  0  0  0  0  0  0  0  0
    7.0479    1.5294    0.0000 O   0  0  0  0  0  0  0  0  0  0  0  0
    2.5836   -1.8204    0.0000 N   0  0  0  0  0  0  0  0  0  0  0  0
    3.5298   -1.5157    0.0000 C   0  0  1  0  0  0  0  0  0  0  0  0
    3.5298   -0.5157    0.0000 C   0  0  1  0  0  0  0  0  0  0  0  0
    2.5836   -0.2110    0.0000 C   0  0  0  0  0  0  0  0  0  0  0  0
    2.0000   -1.0157    0.0000 C   0  0  0  0  0  0  0  0  0  0  0  0
    4.3958   -2.0157    0.0000 C   0  0  0  0  0  0  0  0  0  0  0  0
    4.3958   -0.0157    0.0000 C   0  0  0  0  0  0  0  0  0  0  0  0
    3.5298   -2.5157    0.0000 C   0  0  0  0  0  0  0  0  0  0  0  0
    5.2619   -0.5157    0.0000 C   0  0  0  0  0  0  0  0  0  0  0  0
    4.3798    1.0258    0.0000 C   0  0  0  0  0  0  0  0  0  0  0  0
    6.1719   -0.0089    0.0000 C   0  0  0  0  0  0  0  0  0  0  0  0
    5.2778    1.5536    0.0000 C   0  0  0  0  0  0  0  0  0  0  0  0
    6.1799    1.0328    0.0000 C   0  0  0  0  0  0  0  0  0  0  0  0
    3.4965    2.5157    0.0000 C   0  0  0  0  0  0  0  0  0  0  0  0
    7.9120    1.0261    0.0000 C   0  0  0  0  0  0  0  0  0  0  0  0
    3.4399    0.3295    0.0000 H   0  0  0  0  0  0  0  0  0  0  0  0
    2.8346    0.3559    0.0000 H   0  0  0  0  0  0  0  0  0  0  0  0
    2.0462    0.0983    0.0000 H   0  0  0  0  0  0  0  0  0  0  0  0
    2.3910   -2.4098    0.0000 H   0  0  0  0  0  0  0  0  0  0  0  0
    1.5391   -0.6010    0.0000 H   0  0  0  0  0  0  0  0  0  0  0  0
    1.5391   -1.4304    0.0000 H   0  0  0  0  0  0  0  0  0  0  0  0
    3.9973   -2.4906    0.0000 H   0  0  0  0  0  0  0  0  0  0  0  0
    4.7944   -2.4906    0.0000 H   0  0  0  0  0  0  0  0  0  0  0  0
    2.9098   -2.5157    0.0000 H   0  0  0  0  0  0  0  0  0  0  0  0
    3.5298   -3.1357    0.0000 H   0  0  0  0  0  0  0  0  0  0  0  0
    4.1498   -2.5157    0.0000 H   0  0  0  0  0  0  0  0  0  0  0  0
    6.7052   -0.3250    0.0000 H   0  0  0  0  0  0  0  0  0  0  0  0
    5.2754    2.1736    0.0000 H   0  0  0  0  0  0  0  0  0  0  0  0
    4.1164    2.5229    0.0000 H   0  0  0  0  0  0  0  0  0  0  0  0
    3.4893    3.1356    0.0000 H   0  0  0  0  0  0  0  0  0  0  0  0
    2.8765    2.5085    0.0000 H   0  0  0  0  0  0  0  0  0  0  0  0
    7.5999    0.4903    0.0000 H   0  0  0  0  0  0  0  0  0  0  0  0
    8.4477    0.7140    0.0000 H   0  0  0  0  0  0  0  0  0  0  0  0
    8.2240    1.5618    0.0000 H   0  0  0  0  0  0  0  0  0  0  0  0
  1  9  1  0  0  0  0
  1 12  1  0  0  0  0
  2 13  1  0  0  0  0
  2 17  1  0  0  0  0
  3 16  1  0  0  0  0
  3 18  1  0  0  0  0
  4  5  1  0  0  0  0
  4  8  1  0  0  0  0
  4 22  1  0  0  0  0
  5  6  1  0  0  0  0
  5  9  1  0  0  0  0
  5 11  1  6  0  0  0
  6  7  1  0  0  0  0
  6 10  1  0  0  0  0
  6 19  1  6  0  0  0
  7  8  1  0  0  0  0
  7 20  1  0  0  0  0
  7 21  1  0  0  0  0
  8 23  1  0  0  0  0
  8 24  1  0  0  0  0
  9 25  1  0  0  0  0
  9 26  1  0  0  0  0
 10 12  2  0  0  0  0
 10 13  1  0  0  0  0
 11 27  1  0  0  0  0
 11 28  1  0  0  0  0
 11 29  1  0  0  0  0
 12 14  1  0  0  0  0
 13 15  2  0  0  0  0
 14 16  2  0  0  0  0
 14 30  1  0  0  0  0
 15 16  1  0  0  0  0
 15 31  1  0  0  0  0
 17 32  1  0  0  0  0
 17 33  1  0  0  0  0
 17 34  1  0  0  0  0
 18 35  1  0  0  0  0
 18 36  1  0  0  0  0
 18 37  1  0  0  0  0
M  END
> <PUBCHEM_COMPOUND_CID>
155519891

> <PUBCHEM_COMPOUND_CANONICALIZED>
1

> <PUBCHEM_CACTVS_COMPLEXITY>
311

> <PUBCHEM_CACTVS_HBOND_ACCEPTOR>
4

> <PUBCHEM_CACTVS_HBOND_DONOR>
1

> <PUBCHEM_CACTVS_ROTATABLE_BOND>
2

> <PUBCHEM_CACTVS_SUBSKEYS>
AAADceByMAAAAAAAAAAAAAAAAAAAAWAAAAA0QAAAAAAAAFiRAAAAHgAQAAAADYzhmAYyBoLABACAAiBCAAACCAAgIAAAiIAOCIgOJyKEsRuHOCCl0BWYqAew8P4OoAAACAAIAABAAAAQABAAAAAAAAAAAA==

> <PUBCHEM_IUPAC_OPENEYE_NAME>
(3aS,9bS)-7,9-dimethoxy-3a-methyl-2,3,4,9b-tetrahydro-1H-chromeno[3,4-b]pyrrole

> <PUBCHEM_IUPAC_CAS_NAME>
(3aS,9bS)-7,9-dimethoxy-3a-methyl-2,3,4,9b-tetrahydro-1H-[1]benzopyrano[3,4-b]pyrrole

> <PUBCHEM_IUPAC_NAME_MARKUP>
(3<I>a</I><I>S</I>,9<I>b</I><I>S</I>)-7,9-dimethoxy-3<I>a</I>-methyl-2,3,4,9<I>b</I>-tetrahydro-1<I>H</I>-chromeno[3,4-b]pyrrole

> <PUBCHEM_IUPAC_NAME>
(3aS,9bS)-7,9-dimethoxy-3a-methyl-2,3,4,9b-tetrahydro-1H-chromeno[3,4-b]pyrrole

> <PUBCHEM_IUPAC_SYSTEMATIC_NAME>
(3aS,9bS)-7,9-dimethoxy-3a-methyl-2,3,4,9b-tetrahydro-1H-chromeno[3,4-b]pyrrole

> <PUBCHEM_IUPAC_TRADITIONAL_NAME>
(3aS,9bS)-7,9-dimethoxy-3a-methyl-2,3,4,9b-tetrahydro-1H-chromeno[3,4-b]pyrrole

> <PUBCHEM_IUPAC_INCHI>
InChI=1S/C14H19NO3/c1-14-8-18-12-7-9(16-2)6-11(17-3)13(12)10(14)4-5-15-14/h6-7,10,15H,4-5,8H2,1-3H3/t10-,14+/m0/s1

> <PUBCHEM_IUPAC_INCHIKEY>
NYBQQHJGLBCUBL-IINYFYTJSA-N

> <PUBCHEM_XLOGP3_AA>
1.6

> <PUBCHEM_EXACT_MASS>
249.13649347

> <PUBCHEM_MOLECULAR_FORMULA>
C14H19NO3

> <PUBCHEM_MOLECULAR_WEIGHT>
249.30

> <PUBCHEM_OPENEYE_CAN_SMILES>
CC12COC3=C(C1CCN2)C(=CC(=C3)OC)OC

> <PUBCHEM_OPENEYE_ISO_SMILES>
C[C@@]12COC3=C([C@@H]1CCN2)C(=CC(=C3)OC)OC

> <PUBCHEM_CACTVS_TPSA>
39.7

> <PUBCHEM_MONOISOTOPIC_WEIGHT>
249.13649347

> <PUBCHEM_TOTAL_CHARGE>
0

> <PUBCHEM_HEAVY_ATOM_COUNT>
18

> <PUBCHEM_ATOM_DEF_STEREO_COUNT>
2

> <PUBCHEM_ATOM_UDEF_STEREO_COUNT>
0

> <PUBCHEM_BOND_DEF_STEREO_COUNT>
0

> <PUBCHEM_BOND_UDEF_STEREO_COUNT>
0

> <PUBCHEM_ISOTOPIC_ATOM_COUNT>
0

> <PUBCHEM_COMPONENT_COUNT>
1

> <PUBCHEM_CACTVS_TAUTO_COUNT>
-1

> <PUBCHEM_COORDINATE_TYPE>
1
5
255

> <PUBCHEM_BONDANNOTATIONS>
10  12  8
10  13  8
12  14  8
13  15  8
14  16  8
15  16  8
5  11  6
6  19  6

$$$$
