145985718
  -OEChem-09292322392D

 67 72  0     1  0  0  0  0  0999 V2000
    3.0000    0.0173    0.0000 S   0  0  0  0  0  0  0  0  0  0  0  0
   10.1370   -1.6806    0.0000 S   0  0  0  0  0  0  0  0  0  0  0  0
    2.0000    0.0173    0.0000 O   0  0  0  0  0  0  0  0  0  0  0  0
    4.0000    0.0173    0.0000 O   0  0  0  0  0  0  0  0  0  0  0  0
    3.0000    1.0173    0.0000 N   0  0  3  0  0  0  0  0  0  0  0  0
    6.4641    1.0173    0.0000 N   0  0  0  0  0  0  0  0  0  0  0  0
    8.1962    0.0173    0.0000 N   0  0  0  0  0  0  0  0  0  0  0  0
    9.1652   -1.4714    0.0000 N   0  0  0  0  0  0  0  0  0  0  0  0
    4.7600   -3.0173    0.0000 N   0  0  0  0  0  0  0  0  0  0  0  0
    3.8660    1.5173    0.0000 C   0  0  2  0  0  0  0  0  0  0  0  0
    3.8660    2.5173    0.0000 C   0  0  0  0  0  0  0  0  0  0  0  0
    4.7320    1.0173    0.0000 C   0  0  0  0  0  0  0  0  0  0  0  0
    3.0000    3.0173    0.0000 C   0  0  0  0  0  0  0  0  0  0  0  0
    2.1340    1.5173    0.0000 C   0  0  0  0  0  0  0  0  0  0  0  0
    2.1340    2.5173    0.0000 C   0  0  0  0  0  0  0  0  0  0  0  0
    5.5981    1.5173    0.0000 C   0  0  0  0  0  0  0  0  0  0  0  0
    6.4641    0.0173    0.0000 C   0  0  0  0  0  0  0  0  0  0  0  0
    7.3301    1.5173    0.0000 C   0  0  0  0  0  0  0  0  0  0  0  0
    7.3301   -0.4827    0.0000 C   0  0  0  0  0  0  0  0  0  0  0  0
    8.1962    1.0173    0.0000 C   0  0  0  0  0  0  0  0  0  0  0  0
    3.0000   -0.9827    0.0000 C   0  0  0  0  0  0  0  0  0  0  0  0
    9.0622   -0.4827    0.0000 C   0  0  0  0  0  0  0  0  0  0  0  0
    3.8660   -1.4827    0.0000 C   0  0  0  0  0  0  0  0  0  0  0  0
    2.1340   -1.4827    0.0000 C   0  0  0  0  0  0  0  0  0  0  0  0
    9.9700   -0.0776    0.0000 C   0  0  0  0  0  0  0  0  0  0  0  0
    3.8660   -2.4827    0.0000 C   0  0  0  0  0  0  0  0  0  0  0  0
    2.1340   -2.4827    0.0000 C   0  0  0  0  0  0  0  0  0  0  0  0
    4.7600   -0.9480    0.0000 C   0  0  0  0  0  0  0  0  0  0  0  0
   10.6378   -0.8219    0.0000 C   0  0  0  0  0  0  0  0  0  0  0  0
    3.0000   -2.9827    0.0000 C   0  0  0  0  0  0  0  0  0  0  0  0
   10.2806    0.8730    0.0000 C   0  0  0  0  0  0  0  0  0  0  0  0
    5.6660   -1.4619    0.0000 C   0  0  0  0  0  0  0  0  0  0  0  0
   11.6163   -0.6156    0.0000 C   0  0  0  0  0  0  0  0  0  0  0  0
    5.6660   -2.5035    0.0000 C   0  0  0  0  0  0  0  0  0  0  0  0
   11.2591    1.0792    0.0000 C   0  0  0  0  0  0  0  0  0  0  0  0
   11.9270    0.3349    0.0000 C   0  0  0  0  0  0  0  0  0  0  0  0
    3.8660    0.8973    0.0000 H   0  0  0  0  0  0  0  0  0  0  0  0
    4.4766    2.4097    0.0000 H   0  0  0  0  0  0  0  0  0  0  0  0
    4.0781    3.0999    0.0000 H   0  0  0  0  0  0  0  0  0  0  0  0
    4.3335    0.5424    0.0000 H   0  0  0  0  0  0  0  0  0  0  0  0
    5.1306    0.5424    0.0000 H   0  0  0  0  0  0  0  0  0  0  0  0
    3.3985    3.4923    0.0000 H   0  0  0  0  0  0  0  0  0  0  0  0
    2.6015    3.4923    0.0000 H   0  0  0  0  0  0  0  0  0  0  0  0
    1.5234    1.6250    0.0000 H   0  0  0  0  0  0  0  0  0  0  0  0
    1.9219    0.9347    0.0000 H   0  0  0  0  0  0  0  0  0  0  0  0
    1.9219    3.0999    0.0000 H   0  0  0  0  0  0  0  0  0  0  0  0
    1.5234    2.4097    0.0000 H   0  0  0  0  0  0  0  0  0  0  0  0
    5.9966    1.9923    0.0000 H   0  0  0  0  0  0  0  0  0  0  0  0
    5.1996    1.9923    0.0000 H   0  0  0  0  0  0  0  0  0  0  0  0
    5.8535    0.1250    0.0000 H   0  0  0  0  0  0  0  0  0  0  0  0
    6.2520   -0.5653    0.0000 H   0  0  0  0  0  0  0  0  0  0  0  0
    7.7287    1.9923    0.0000 H   0  0  0  0  0  0  0  0  0  0  0  0
    6.9316    1.9923    0.0000 H   0  0  0  0  0  0  0  0  0  0  0  0
    6.9316   -0.9576    0.0000 H   0  0  0  0  0  0  0  0  0  0  0  0
    7.7287   -0.9576    0.0000 H   0  0  0  0  0  0  0  0  0  0  0  0
    8.8067    0.9097    0.0000 H   0  0  0  0  0  0  0  0  0  0  0  0
    8.4082    1.5999    0.0000 H   0  0  0  0  0  0  0  0  0  0  0  0
    1.5970   -1.1727    0.0000 H   0  0  0  0  0  0  0  0  0  0  0  0
    1.5970   -2.7927    0.0000 H   0  0  0  0  0  0  0  0  0  0  0  0
    4.7528   -0.3280    0.0000 H   0  0  0  0  0  0  0  0  0  0  0  0
    3.0000   -3.6027    0.0000 H   0  0  0  0  0  0  0  0  0  0  0  0
    9.8666    1.3344    0.0000 H   0  0  0  0  0  0  0  0  0  0  0  0
    6.2018   -1.1498    0.0000 H   0  0  0  0  0  0  0  0  0  0  0  0
   12.0304   -1.0771    0.0000 H   0  0  0  0  0  0  0  0  0  0  0  0
    6.2018   -2.8156    0.0000 H   0  0  0  0  0  0  0  0  0  0  0  0
   11.4517    1.6685    0.0000 H   0  0  0  0  0  0  0  0  0  0  0  0
   12.5336    0.4627    0.0000 H   0  0  0  0  0  0  0  0  0  0  0  0
  1  3  2  0  0  0  0
  1  4  2  0  0  0  0
  1  5  1  0  0  0  0
  1 21  1  0  0  0  0
  2  8  1  0  0  0  0
  2 29  1  0  0  0  0
  5 10  1  0  0  0  0
  5 14  1  0  0  0  0
  6 16  1  0  0  0  0
  6 17  1  0  0  0  0
  6 18  1  0  0  0  0
  7 19  1  0  0  0  0
  7 20  1  0  0  0  0
  7 22  1  0  0  0  0
  8 22  2  0  0  0  0
  9 26  1  0  0  0  0
  9 34  2  0  0  0  0
 10 11  1  0  0  0  0
 10 12  1  6  0  0  0
 10 37  1  0  0  0  0
 11 13  1  0  0  0  0
 11 38  1  0  0  0  0
 11 39  1  0  0  0  0
 12 16  1  0  0  0  0
 12 40  1  0  0  0  0
 12 41  1  0  0  0  0
 13 15  1  0  0  0  0
 13 42  1  0  0  0  0
 13 43  1  0  0  0  0
 14 15  1  0  0  0  0
 14 44  1  0  0  0  0
 14 45  1  0  0  0  0
 15 46  1  0  0  0  0
 15 47  1  0  0  0  0
 16 48  1  0  0  0  0
 16 49  1  0  0  0  0
 17 19  1  0  0  0  0
 17 50  1  0  0  0  0
 17 51  1  0  0  0  0
 18 20  1  0  0  0  0
 18 52  1  0  0  0  0
 18 53  1  0  0  0  0
 19 54  1  0  0  0  0
 19 55  1  0  0  0  0
 20 56  1  0  0  0  0
 20 57  1  0  0  0  0
 21 23  1  0  0  0  0
 21 24  2  0  0  0  0
 22 25  1  0  0  0  0
 23 26  2  0  0  0  0
 23 28  1  0  0  0  0
 24 27  1  0  0  0  0
 24 58  1  0  0  0  0
 25 29  1  0  0  0  0
 25 31  2  0  0  0  0
 26 30  1  0  0  0  0
 27 30  2  0  0  0  0
 27 59  1  0  0  0  0
 28 32  2  0  0  0  0
 28 60  1  0  0  0  0
 29 33  2  0  0  0  0
 30 61  1  0  0  0  0
 31 35  1  0  0  0  0
 31 62  1  0  0  0  0
 32 34  1  0  0  0  0
 32 63  1  0  0  0  0
 33 36  1  0  0  0  0
 33 64  1  0  0  0  0
 34 65  1  0  0  0  0
 35 36  2  0  0  0  0
 35 66  1  0  0  0  0
 36 67  1  0  0  0  0
M  END
> <PUBCHEM_COMPOUND_CID>
145985718

> <PUBCHEM_COMPOUND_CANONICALIZED>
1

> <PUBCHEM_CACTVS_COMPLEXITY>
831

> <PUBCHEM_CACTVS_HBOND_ACCEPTOR>
8

> <PUBCHEM_CACTVS_HBOND_DONOR>
0

> <PUBCHEM_CACTVS_ROTATABLE_BOND>
6

> <PUBCHEM_CACTVS_SUBSKEYS>
AAADceB7sABgAAAAAAAAAAAAAAAAAWAAAAA8eLECAAAAAFix/gAAHAQAQAAADCjBXgQ98fMIEAKkAzZnZHDDgDAxAiBJ2Dg4ZJiIYOLA2ZGUIAxggALIyAcQgIAOAAAAACAGAAAAAAAAQAwAAAAAAAAAAA==

> <PUBCHEM_IUPAC_OPENEYE_NAME>
3-[4-[2-[(2R)-1-(5-quinolylsulfonyl)-2-piperidyl]ethyl]piperazin-1-yl]-1,2-benzothiazole

> <PUBCHEM_IUPAC_CAS_NAME>
3-[4-[2-[(2R)-1-(5-quinolinylsulfonyl)-2-piperidinyl]ethyl]-1-piperazinyl]-1,2-benzothiazole

> <PUBCHEM_IUPAC_NAME_MARKUP>
3-[4-[2-[(2<I>R</I>)-1-quinolin-5-ylsulfonylpiperidin-2-yl]ethyl]piperazin-1-yl]-1,2-benzothiazole

> <PUBCHEM_IUPAC_NAME>
3-[4-[2-[(2R)-1-quinolin-5-ylsulfonylpiperidin-2-yl]ethyl]piperazin-1-yl]-1,2-benzothiazole

> <PUBCHEM_IUPAC_SYSTEMATIC_NAME>
3-[4-[2-[(2R)-1-quinolin-5-ylsulfonylpiperidin-2-yl]ethyl]piperazin-1-yl]-1,2-benzothiazole

> <PUBCHEM_IUPAC_TRADITIONAL_NAME>
3-[4-[2-[(2R)-1-(5-quinolylsulfonyl)-2-piperidyl]ethyl]piperazino]-1,2-benzothiazole

> <PUBCHEM_IUPAC_INCHI>
InChI=1S/C27H31N5O2S2/c33-36(34,26-12-5-10-24-22(26)9-6-14-28-24)32-15-4-3-7-21(32)13-16-30-17-19-31(20-18-30)27-23-8-1-2-11-25(23)35-29-27/h1-2,5-6,8-12,14,21H,3-4,7,13,15-20H2/t21-/m1/s1

> <PUBCHEM_IUPAC_INCHIKEY>
GGVSMYIRKIXVCG-OAQYLSRUSA-N

> <PUBCHEM_XLOGP3_AA>
5

> <PUBCHEM_EXACT_MASS>
521.19191760

> <PUBCHEM_MOLECULAR_FORMULA>
C27H31N5O2S2

> <PUBCHEM_MOLECULAR_WEIGHT>
521.7

> <PUBCHEM_OPENEYE_CAN_SMILES>
C1CCN(C(C1)CCN2CCN(CC2)C3=NSC4=CC=CC=C43)S(=O)(=O)C5=CC=CC6=C5C=CC=N6

> <PUBCHEM_OPENEYE_ISO_SMILES>
C1CCN([C@H](C1)CCN2CCN(CC2)C3=NSC4=CC=CC=C43)S(=O)(=O)C5=CC=CC6=C5C=CC=N6

> <PUBCHEM_CACTVS_TPSA>
106

> <PUBCHEM_MONOISOTOPIC_WEIGHT>
521.19191760

> <PUBCHEM_TOTAL_CHARGE>
0

> <PUBCHEM_HEAVY_ATOM_COUNT>
36

> <PUBCHEM_ATOM_DEF_STEREO_COUNT>
1

> <PUBCHEM_ATOM_UDEF_STEREO_COUNT>
0

> <PUBCHEM_BOND_DEF_STEREO_COUNT>
0

> <PUBCHEM_BOND_UDEF_STEREO_COUNT>
0

> <PUBCHEM_ISOTOPIC_ATOM_COUNT>
0

> <PUBCHEM_COMPONENT_COUNT>
1

> <PUBCHEM_CACTVS_TAUTO_COUNT>
-1

> <PUBCHEM_COORDINATE_TYPE>
1
5
255

> <PUBCHEM_BONDANNOTATIONS>
10  12  6
2  29  8
2  8  8
21  23  8
21  24  8
22  25  8
23  26  8
23  28  8
24  27  8
25  29  8
25  31  8
26  30  8
27  30  8
28  32  8
29  33  8
31  35  8
32  34  8
33  36  8
35  36  8
8  22  8
9  26  8
9  34  8

$$$$
