45261755
  -OEChem-09292322132D

 51 53  0     0  0  0  0  0  0999 V2000
    6.6066    5.4027    0.0000 Cl  0  0  0  0  0  0  0  0  0  0  0  0
    0.5901    7.1200    0.0000 O   0  0  0  0  0  0  0  0  0  0  0  0
    2.3222    5.1200    0.0000 N   0  0  0  0  0  0  0  0  0  0  0  0
    2.3222    7.1200    0.0000 C   0  0  0  0  0  0  0  0  0  0  0  0
    1.4562    6.6200    0.0000 C   0  0  0  0  0  0  0  0  0  0  0  0
    3.1882    6.6200    0.0000 C   0  0  0  0  0  0  0  0  0  0  0  0
    3.1882    7.6200    0.0000 C   0  0  0  0  0  0  0  0  0  0  0  0
    1.4562    5.6200    0.0000 C   0  0  0  0  0  0  0  0  0  0  0  0
    3.1882    5.6200    0.0000 C   0  0  0  0  0  0  0  0  0  0  0  0
    1.4562    7.6200    0.0000 C   0  0  0  0  0  0  0  0  0  0  0  0
    3.1882    8.6200    0.0000 C   0  0  0  0  0  0  0  0  0  0  0  0
    1.4562    8.6200    0.0000 C   0  0  0  0  0  0  0  0  0  0  0  0
    2.3222    9.1200    0.0000 C   0  0  0  0  0  0  0  0  0  0  0  0
    2.3222    4.1200    0.0000 C   0  0  0  0  0  0  0  0  0  0  0  0
    3.1882    3.6200    0.0000 C   0  0  0  0  0  0  0  0  0  0  0  0
    0.5462    9.1268    0.0000 C   0  0  0  0  0  0  0  0  0  0  0  0
    2.3382   10.1615    0.0000 C   0  0  0  0  0  0  0  0  0  0  0  0
    0.5381   10.1684    0.0000 C   0  0  0  0  0  0  0  0  0  0  0  0
    1.4402   10.6893    0.0000 C   0  0  0  0  0  0  0  0  0  0  0  0
    3.1882    2.6200    0.0000 C   0  0  0  0  0  0  0  0  0  0  0  0
    2.3222    2.1200    0.0000 C   0  0  0  0  0  0  0  0  0  0  0  0
    4.0542    2.1200    0.0000 C   0  0  0  0  0  0  0  0  0  0  0  0
    2.3222    1.1200    0.0000 C   0  0  0  0  0  0  0  0  0  0  0  0
    4.0542    1.1200    0.0000 C   0  0  0  0  0  0  0  0  0  0  0  0
    3.1882    0.6200    0.0000 C   0  0  0  0  0  0  0  0  0  0  0  0
    1.2441    7.2026    0.0000 H   0  0  0  0  0  0  0  0  0  0  0  0
    0.8456    6.5123    0.0000 H   0  0  0  0  0  0  0  0  0  0  0  0
    3.7988    6.5123    0.0000 H   0  0  0  0  0  0  0  0  0  0  0  0
    3.4003    7.2026    0.0000 H   0  0  0  0  0  0  0  0  0  0  0  0
    3.4003    7.0374    0.0000 H   0  0  0  0  0  0  0  0  0  0  0  0
    3.7988    7.7277    0.0000 H   0  0  0  0  0  0  0  0  0  0  0  0
    0.8456    5.7277    0.0000 H   0  0  0  0  0  0  0  0  0  0  0  0
    1.2441    5.0374    0.0000 H   0  0  0  0  0  0  0  0  0  0  0  0
    3.4003    5.0374    0.0000 H   0  0  0  0  0  0  0  0  0  0  0  0
    3.7988    5.7277    0.0000 H   0  0  0  0  0  0  0  0  0  0  0  0
    3.7988    8.5123    0.0000 H   0  0  0  0  0  0  0  0  0  0  0  0
    3.4003    9.2026    0.0000 H   0  0  0  0  0  0  0  0  0  0  0  0
    1.7116    4.2277    0.0000 H   0  0  0  0  0  0  0  0  0  0  0  0
    2.1101    3.5374    0.0000 H   0  0  0  0  0  0  0  0  0  0  0  0
    3.7988    3.5123    0.0000 H   0  0  0  0  0  0  0  0  0  0  0  0
    3.4003    4.2026    0.0000 H   0  0  0  0  0  0  0  0  0  0  0  0
    0.0128    8.8107    0.0000 H   0  0  0  0  0  0  0  0  0  0  0  0
    2.8787   10.4653    0.0000 H   0  0  0  0  0  0  0  0  0  0  0  0
    0.0000   10.4764    0.0000 H   0  0  0  0  0  0  0  0  0  0  0  0
    1.4426   11.3093    0.0000 H   0  0  0  0  0  0  0  0  0  0  0  0
    1.7852    2.4300    0.0000 H   0  0  0  0  0  0  0  0  0  0  0  0
    4.5912    2.4300    0.0000 H   0  0  0  0  0  0  0  0  0  0  0  0
    1.7852    0.8100    0.0000 H   0  0  0  0  0  0  0  0  0  0  0  0
    4.5912    0.8100    0.0000 H   0  0  0  0  0  0  0  0  0  0  0  0
    3.1882    0.0000    0.0000 H   0  0  0  0  0  0  0  0  0  0  0  0
    7.6066    5.4027    0.0000 H   0  0  0  0  0  0  0  0  0  0  0  0
  1 51  1  0  0  0  0
  2 10  2  0  0  0  0
  3  8  1  0  0  0  0
  3  9  1  0  0  0  0
  3 14  1  0  0  0  0
  4  5  1  0  0  0  0
  4  6  1  0  0  0  0
  4  7  1  0  0  0  0
  4 10  1  0  0  0  0
  5  8  1  0  0  0  0
  5 26  1  0  0  0  0
  5 27  1  0  0  0  0
  6  9  1  0  0  0  0
  6 28  1  0  0  0  0
  6 29  1  0  0  0  0
  7 11  1  0  0  0  0
  7 30  1  0  0  0  0
  7 31  1  0  0  0  0
  8 32  1  0  0  0  0
  8 33  1  0  0  0  0
  9 34  1  0  0  0  0
  9 35  1  0  0  0  0
 10 12  1  0  0  0  0
 11 13  1  0  0  0  0
 11 36  1  0  0  0  0
 11 37  1  0  0  0  0
 12 13  1  0  0  0  0
 12 16  2  0  0  0  0
 13 17  2  0  0  0  0
 14 15  1  0  0  0  0
 14 38  1  0  0  0  0
 14 39  1  0  0  0  0
 15 20  1  0  0  0  0
 15 40  1  0  0  0  0
 15 41  1  0  0  0  0
 16 18  1  0  0  0  0
 16 42  1  0  0  0  0
 17 19  1  0  0  0  0
 17 43  1  0  0  0  0
 18 19  2  0  0  0  0
 18 44  1  0  0  0  0
 19 45  1  0  0  0  0
 20 21  2  0  0  0  0
 20 22  1  0  0  0  0
 21 23  1  0  0  0  0
 21 46  1  0  0  0  0
 22 24  2  0  0  0  0
 22 47  1  0  0  0  0
 23 25  2  0  0  0  0
 23 48  1  0  0  0  0
 24 25  1  0  0  0  0
 24 49  1  0  0  0  0
 25 50  1  0  0  0  0
M  END
> <PUBCHEM_COMPOUND_CID>
45261755

> <PUBCHEM_COMPOUND_CANONICALIZED>
1

> <PUBCHEM_CACTVS_COMPLEXITY>
431

> <PUBCHEM_CACTVS_HBOND_ACCEPTOR>
2

> <PUBCHEM_CACTVS_HBOND_DONOR>
1

> <PUBCHEM_CACTVS_ROTATABLE_BOND>
3

> <PUBCHEM_CACTVS_SUBSKEYS>
AAADceB6IAAEAAAAAAAAAAAAAAAAAAAAAAA8YMEAAAAAAADBQAAAHgAAAAAADgTBmAQwAIMAAACIAqBSAAACAAAkAAAIiAEIAMgIIDKAlRGEIQAggACIiYcciMCPgAAAAAAQAACAAAQAACAAAAAAAAAAAA==

> <PUBCHEM_IUPAC_OPENEYE_NAME>
1-(2-phenylethyl)spiro[piperidine-4,2'-tetralin]-1'-one;hydrochloride

> <PUBCHEM_IUPAC_CAS_NAME>
1'-(2-phenylethyl)-1-spiro[3,4-dihydronaphthalene-2,4'-piperidine]one;hydrochloride

> <PUBCHEM_IUPAC_NAME_MARKUP>
1&apos;-(2-phenylethyl)spiro[3,4-dihydronaphthalene-2,4&apos;-piperidine]-1-one;hydrochloride

> <PUBCHEM_IUPAC_NAME>
1'-(2-phenylethyl)spiro[3,4-dihydronaphthalene-2,4'-piperidine]-1-one;hydrochloride

> <PUBCHEM_IUPAC_SYSTEMATIC_NAME>
1'-(2-phenylethyl)spiro[3,4-dihydronaphthalene-2,4'-piperidine]-1-one;hydrochloride

> <PUBCHEM_IUPAC_TRADITIONAL_NAME>
1-phenethylspiro[piperidine-4,2'-tetralin]-1'-one;hydrochloride

> <PUBCHEM_IUPAC_INCHI>
InChI=1S/C22H25NO.ClH/c24-21-20-9-5-4-8-19(20)10-12-22(21)13-16-23(17-14-22)15-11-18-6-2-1-3-7-18;/h1-9H,10-17H2;1H

> <PUBCHEM_IUPAC_INCHIKEY>
QHPXVDMSJUUIHL-UHFFFAOYSA-N

> <PUBCHEM_EXACT_MASS>
355.1702921

> <PUBCHEM_MOLECULAR_FORMULA>
C22H26ClNO

> <PUBCHEM_MOLECULAR_WEIGHT>
355.9

> <PUBCHEM_OPENEYE_CAN_SMILES>
C1CC2(CCN(CC2)CCC3=CC=CC=C3)C(=O)C4=CC=CC=C41.Cl

> <PUBCHEM_OPENEYE_ISO_SMILES>
C1CC2(CCN(CC2)CCC3=CC=CC=C3)C(=O)C4=CC=CC=C41.Cl

> <PUBCHEM_CACTVS_TPSA>
20.3

> <PUBCHEM_MONOISOTOPIC_WEIGHT>
355.1702921

> <PUBCHEM_TOTAL_CHARGE>
0

> <PUBCHEM_HEAVY_ATOM_COUNT>
25

> <PUBCHEM_ATOM_DEF_STEREO_COUNT>
0

> <PUBCHEM_ATOM_UDEF_STEREO_COUNT>
0

> <PUBCHEM_BOND_DEF_STEREO_COUNT>
0

> <PUBCHEM_BOND_UDEF_STEREO_COUNT>
0

> <PUBCHEM_ISOTOPIC_ATOM_COUNT>
0

> <PUBCHEM_COMPONENT_COUNT>
2

> <PUBCHEM_CACTVS_TAUTO_COUNT>
-1

> <PUBCHEM_COORDINATE_TYPE>
1
5
255

> <PUBCHEM_BONDANNOTATIONS>
12  13  8
12  16  8
13  17  8
16  18  8
17  19  8
18  19  8
20  21  8
20  22  8
21  23  8
22  24  8
23  25  8
24  25  8

$$$$
