137645501
  -OEChem-09292322392D

 68 72  0     0  0  0  0  0  0999 V2000
    5.4641   -4.1657    0.0000 S   0  0  0  0  0  0  0  0  0  0  0  0
    2.0000    6.8343    0.0000 F   0  0  0  0  0  0  0  0  0  0  0  0
    3.3660    7.2003    0.0000 F   0  0  0  0  0  0  0  0  0  0  0  0
    2.3660    5.4683    0.0000 F   0  0  0  0  0  0  0  0  0  0  0  0
    4.4641   -4.1657    0.0000 O   0  0  0  0  0  0  0  0  0  0  0  0
    6.4641   -4.1657    0.0000 O   0  0  0  0  0  0  0  0  0  0  0  0
    5.4641   -3.1657    0.0000 N   0  0  0  0  0  0  0  0  0  0  0  0
    4.5981    1.3343    0.0000 N   0  0  0  0  0  0  0  0  0  0  0  0
    4.5981    3.3343    0.0000 N   0  0  0  0  0  0  0  0  0  0  0  0
    7.2241   -7.2003    0.0000 N   0  0  0  0  0  0  0  0  0  0  0  0
    5.4641   -1.1657    0.0000 C   0  0  0  0  0  0  0  0  0  0  0  0
    6.3301   -1.6657    0.0000 C   0  0  0  0  0  0  0  0  0  0  0  0
    4.5981   -1.6657    0.0000 C   0  0  0  0  0  0  0  0  0  0  0  0
    5.4641   -0.1657    0.0000 C   0  0  0  0  0  0  0  0  0  0  0  0
    6.3301   -2.6657    0.0000 C   0  0  0  0  0  0  0  0  0  0  0  0
    4.5981   -2.6657    0.0000 C   0  0  0  0  0  0  0  0  0  0  0  0
    4.5981    0.3343    0.0000 C   0  0  0  0  0  0  0  0  0  0  0  0
    5.4641    1.8343    0.0000 C   0  0  0  0  0  0  0  0  0  0  0  0
    3.7320    1.8343    0.0000 C   0  0  0  0  0  0  0  0  0  0  0  0
    5.4641    2.8343    0.0000 C   0  0  0  0  0  0  0  0  0  0  0  0
    3.7320    2.8343    0.0000 C   0  0  0  0  0  0  0  0  0  0  0  0
    5.4641   -5.1657    0.0000 C   0  0  0  0  0  0  0  0  0  0  0  0
    4.5981    4.3343    0.0000 C   0  0  0  0  0  0  0  0  0  0  0  0
    6.3301   -5.6657    0.0000 C   0  0  0  0  0  0  0  0  0  0  0  0
    4.5981   -5.6657    0.0000 C   0  0  0  0  0  0  0  0  0  0  0  0
    3.7320    4.8343    0.0000 C   0  0  0  0  0  0  0  0  0  0  0  0
    5.4641    4.8343    0.0000 C   0  0  0  0  0  0  0  0  0  0  0  0
    6.3301   -6.6657    0.0000 C   0  0  0  0  0  0  0  0  0  0  0  0
    4.5981   -6.6657    0.0000 C   0  0  0  0  0  0  0  0  0  0  0  0
    7.2241   -5.1310    0.0000 C   0  0  0  0  0  0  0  0  0  0  0  0
    3.7320    5.8343    0.0000 C   0  0  0  0  0  0  0  0  0  0  0  0
    5.4641   -7.1657    0.0000 C   0  0  0  0  0  0  0  0  0  0  0  0
    5.4641    5.8343    0.0000 C   0  0  0  0  0  0  0  0  0  0  0  0
    4.5981    6.3343    0.0000 C   0  0  0  0  0  0  0  0  0  0  0  0
    8.1301   -5.6449    0.0000 C   0  0  0  0  0  0  0  0  0  0  0  0
    2.8660    6.3343    0.0000 C   0  0  0  0  0  0  0  0  0  0  0  0
    8.1301   -6.6865    0.0000 C   0  0  0  0  0  0  0  0  0  0  0  0
    6.0010   -0.8557    0.0000 H   0  0  0  0  0  0  0  0  0  0  0  0
    6.9407   -1.7733    0.0000 H   0  0  0  0  0  0  0  0  0  0  0  0
    6.5422   -1.0831    0.0000 H   0  0  0  0  0  0  0  0  0  0  0  0
    4.3860   -1.0831    0.0000 H   0  0  0  0  0  0  0  0  0  0  0  0
    3.9875   -1.7733    0.0000 H   0  0  0  0  0  0  0  0  0  0  0  0
    6.0747   -0.2733    0.0000 H   0  0  0  0  0  0  0  0  0  0  0  0
    5.6762    0.4169    0.0000 H   0  0  0  0  0  0  0  0  0  0  0  0
    6.5422   -3.2483    0.0000 H   0  0  0  0  0  0  0  0  0  0  0  0
    6.9407   -2.5580    0.0000 H   0  0  0  0  0  0  0  0  0  0  0  0
    3.9875   -2.5580    0.0000 H   0  0  0  0  0  0  0  0  0  0  0  0
    4.3860   -3.2483    0.0000 H   0  0  0  0  0  0  0  0  0  0  0  0
    3.9875    0.4420    0.0000 H   0  0  0  0  0  0  0  0  0  0  0  0
    4.3860   -0.2483    0.0000 H   0  0  0  0  0  0  0  0  0  0  0  0
    5.6762    1.2517    0.0000 H   0  0  0  0  0  0  0  0  0  0  0  0
    6.0747    1.9420    0.0000 H   0  0  0  0  0  0  0  0  0  0  0  0
    3.1215    1.9420    0.0000 H   0  0  0  0  0  0  0  0  0  0  0  0
    3.5200    1.2517    0.0000 H   0  0  0  0  0  0  0  0  0  0  0  0
    6.0747    2.7267    0.0000 H   0  0  0  0  0  0  0  0  0  0  0  0
    5.6762    3.4169    0.0000 H   0  0  0  0  0  0  0  0  0  0  0  0
    3.5200    3.4169    0.0000 H   0  0  0  0  0  0  0  0  0  0  0  0
    3.1215    2.7267    0.0000 H   0  0  0  0  0  0  0  0  0  0  0  0
    4.0611   -5.3557    0.0000 H   0  0  0  0  0  0  0  0  0  0  0  0
    3.1951    4.5243    0.0000 H   0  0  0  0  0  0  0  0  0  0  0  0
    6.0010    4.5243    0.0000 H   0  0  0  0  0  0  0  0  0  0  0  0
    4.0611   -6.9757    0.0000 H   0  0  0  0  0  0  0  0  0  0  0  0
    7.2169   -4.5111    0.0000 H   0  0  0  0  0  0  0  0  0  0  0  0
    5.4641   -7.7857    0.0000 H   0  0  0  0  0  0  0  0  0  0  0  0
    6.0010    6.1443    0.0000 H   0  0  0  0  0  0  0  0  0  0  0  0
    4.5981    6.9543    0.0000 H   0  0  0  0  0  0  0  0  0  0  0  0
    8.6659   -5.3328    0.0000 H   0  0  0  0  0  0  0  0  0  0  0  0
    8.6659   -6.9986    0.0000 H   0  0  0  0  0  0  0  0  0  0  0  0
  1  5  2  0  0  0  0
  1  6  2  0  0  0  0
  1  7  1  0  0  0  0
  1 22  1  0  0  0  0
  2 36  1  0  0  0  0
  3 36  1  0  0  0  0
  4 36  1  0  0  0  0
  7 15  1  0  0  0  0
  7 16  1  0  0  0  0
  8 17  1  0  0  0  0
  8 18  1  0  0  0  0
  8 19  1  0  0  0  0
  9 20  1  0  0  0  0
  9 21  1  0  0  0  0
  9 23  1  0  0  0  0
 10 28  1  0  0  0  0
 10 37  2  0  0  0  0
 11 12  1  0  0  0  0
 11 13  1  0  0  0  0
 11 14  1  0  0  0  0
 11 38  1  0  0  0  0
 12 15  1  0  0  0  0
 12 39  1  0  0  0  0
 12 40  1  0  0  0  0
 13 16  1  0  0  0  0
 13 41  1  0  0  0  0
 13 42  1  0  0  0  0
 14 17  1  0  0  0  0
 14 43  1  0  0  0  0
 14 44  1  0  0  0  0
 15 45  1  0  0  0  0
 15 46  1  0  0  0  0
 16 47  1  0  0  0  0
 16 48  1  0  0  0  0
 17 49  1  0  0  0  0
 17 50  1  0  0  0  0
 18 20  1  0  0  0  0
 18 51  1  0  0  0  0
 18 52  1  0  0  0  0
 19 21  1  0  0  0  0
 19 53  1  0  0  0  0
 19 54  1  0  0  0  0
 20 55  1  0  0  0  0
 20 56  1  0  0  0  0
 21 57  1  0  0  0  0
 21 58  1  0  0  0  0
 22 24  1  0  0  0  0
 22 25  2  0  0  0  0
 23 26  1  0  0  0  0
 23 27  2  0  0  0  0
 24 28  2  0  0  0  0
 24 30  1  0  0  0  0
 25 29  1  0  0  0  0
 25 59  1  0  0  0  0
 26 31  2  0  0  0  0
 26 60  1  0  0  0  0
 27 33  1  0  0  0  0
 27 61  1  0  0  0  0
 28 32  1  0  0  0  0
 29 32  2  0  0  0  0
 29 62  1  0  0  0  0
 30 35  2  0  0  0  0
 30 63  1  0  0  0  0
 31 34  1  0  0  0  0
 31 36  1  0  0  0  0
 32 64  1  0  0  0  0
 33 34  2  0  0  0  0
 33 65  1  0  0  0  0
 34 66  1  0  0  0  0
 35 37  1  0  0  0  0
 35 67  1  0  0  0  0
 37 68  1  0  0  0  0
M  END
> <PUBCHEM_COMPOUND_CID>
137645501

> <PUBCHEM_COMPOUND_CANONICALIZED>
1

> <PUBCHEM_CACTVS_COMPLEXITY>
836

> <PUBCHEM_CACTVS_HBOND_ACCEPTOR>
9

> <PUBCHEM_CACTVS_HBOND_DONOR>
0

> <PUBCHEM_CACTVS_ROTATABLE_BOND>
6

> <PUBCHEM_CACTVS_SUBSKEYS>
AAADceB7sYBAAAAAAAAAAAAAAAAAAAAAAAA8eLECAAAAAACx9AAAHQQAQAAADQjBXhQ8wfMIEAKgAzRnRHDCgDAxAiAI2Dg4ZJgIYOLAkZGUIAxggADIyAcQgIAOAAAAQCAGAAAAAACAQAwAAAAAAAAAAA==

> <PUBCHEM_IUPAC_OPENEYE_NAME>
5-[[4-[2-[4-[3-(trifluoromethyl)phenyl]piperazin-1-yl]ethyl]-1-piperidyl]sulfonyl]quinoline

> <PUBCHEM_IUPAC_CAS_NAME>
5-[[4-[2-[4-[3-(trifluoromethyl)phenyl]-1-piperazinyl]ethyl]-1-piperidinyl]sulfonyl]quinoline

> <PUBCHEM_IUPAC_NAME_MARKUP>
5-[4-[2-[4-[3-(trifluoromethyl)phenyl]piperazin-1-yl]ethyl]piperidin-1-yl]sulfonylquinoline

> <PUBCHEM_IUPAC_NAME>
5-[4-[2-[4-[3-(trifluoromethyl)phenyl]piperazin-1-yl]ethyl]piperidin-1-yl]sulfonylquinoline

> <PUBCHEM_IUPAC_SYSTEMATIC_NAME>
5-[4-[2-[4-[3-(trifluoromethyl)phenyl]piperazin-1-yl]ethyl]piperidin-1-yl]sulfonylquinoline

> <PUBCHEM_IUPAC_TRADITIONAL_NAME>
5-[4-[2-[4-[3-(trifluoromethyl)phenyl]piperazino]ethyl]piperidino]sulfonylquinoline

> <PUBCHEM_IUPAC_INCHI>
InChI=1S/C27H31F3N4O2S/c28-27(29,30)22-4-1-5-23(20-22)33-18-16-32(17-19-33)13-9-21-10-14-34(15-11-21)37(35,36)26-8-2-7-25-24(26)6-3-12-31-25/h1-8,12,20-21H,9-11,13-19H2

> <PUBCHEM_IUPAC_INCHIKEY>
GWDIEKMJVLZAJF-UHFFFAOYSA-N

> <PUBCHEM_XLOGP3_AA>
5

> <PUBCHEM_EXACT_MASS>
532.21198190

> <PUBCHEM_MOLECULAR_FORMULA>
C27H31F3N4O2S

> <PUBCHEM_MOLECULAR_WEIGHT>
532.6

> <PUBCHEM_OPENEYE_CAN_SMILES>
C1CN(CCC1CCN2CCN(CC2)C3=CC=CC(=C3)C(F)(F)F)S(=O)(=O)C4=CC=CC5=C4C=CC=N5

> <PUBCHEM_OPENEYE_ISO_SMILES>
C1CN(CCC1CCN2CCN(CC2)C3=CC=CC(=C3)C(F)(F)F)S(=O)(=O)C4=CC=CC5=C4C=CC=N5

> <PUBCHEM_CACTVS_TPSA>
65.1

> <PUBCHEM_MONOISOTOPIC_WEIGHT>
532.21198190

> <PUBCHEM_TOTAL_CHARGE>
0

> <PUBCHEM_HEAVY_ATOM_COUNT>
37

> <PUBCHEM_ATOM_DEF_STEREO_COUNT>
0

> <PUBCHEM_ATOM_UDEF_STEREO_COUNT>
0

> <PUBCHEM_BOND_DEF_STEREO_COUNT>
0

> <PUBCHEM_BOND_UDEF_STEREO_COUNT>
0

> <PUBCHEM_ISOTOPIC_ATOM_COUNT>
0

> <PUBCHEM_COMPONENT_COUNT>
1

> <PUBCHEM_CACTVS_TAUTO_COUNT>
-1

> <PUBCHEM_COORDINATE_TYPE>
1
5
255

> <PUBCHEM_BONDANNOTATIONS>
10  28  8
10  37  8
22  24  8
22  25  8
23  26  8
23  27  8
24  28  8
24  30  8
25  29  8
26  31  8
27  33  8
28  32  8
29  32  8
30  35  8
31  34  8
33  34  8
35  37  8

$$$$
