156011936
  -OEChem-09292322422D

 60 64  0     0  0  0  0  0  0999 V2000
    9.7884    5.4426    0.0000 S   0  0  0  0  0  0  0  0  0  0  0  0
    6.2619   -4.2438    0.0000 O   0  0  0  0  0  0  0  0  0  0  0  0
    8.8564    0.9816    0.0000 N   0  0  0  0  0  0  0  0  0  0  0  0
    9.4778    2.8827    0.0000 N   0  0  0  0  0  0  0  0  0  0  0  0
    4.6783   -3.4391    0.0000 N   0  0  0  0  0  0  0  0  0  0  0  0
    9.2048    4.6379    0.0000 N   0  0  0  0  0  0  0  0  0  0  0  0
    4.6783   -5.0486    0.0000 N   0  0  0  0  0  0  0  0  0  0  0  0
    9.8349    1.1878    0.0000 C   0  0  0  0  0  0  0  0  0  0  0  0
    8.1886    1.7259    0.0000 C   0  0  0  0  0  0  0  0  0  0  0  0
    8.5458    0.0311    0.0000 C   0  0  0  0  0  0  0  0  0  0  0  0
   10.1456    2.1384    0.0000 C   0  0  0  0  0  0  0  0  0  0  0  0
    8.4993    2.6764    0.0000 C   0  0  0  0  0  0  0  0  0  0  0  0
    7.5673   -0.1751    0.0000 C   0  0  0  0  0  0  0  0  0  0  0  0
    7.2566   -1.1256    0.0000 C   0  0  0  0  0  0  0  0  0  0  0  0
    6.2781   -1.3319    0.0000 C   0  0  0  0  0  0  0  0  0  0  0  0
    9.7884    3.8332    0.0000 C   0  0  0  0  0  0  0  0  0  0  0  0
    5.9674   -2.2824    0.0000 C   0  0  0  0  0  0  0  0  0  0  0  0
    4.9889   -2.4886    0.0000 C   0  0  0  0  0  0  0  0  0  0  0  0
   10.7346    4.1379    0.0000 C   0  0  0  0  0  0  0  0  0  0  0  0
    3.7320   -3.7438    0.0000 C   0  0  0  0  0  0  0  0  0  0  0  0
   10.7346    5.1379    0.0000 C   0  0  0  0  0  0  0  0  0  0  0  0
    5.2619   -4.2438    0.0000 C   0  0  0  0  0  0  0  0  0  0  0  0
    3.7320   -4.7438    0.0000 C   0  0  0  0  0  0  0  0  0  0  0  0
   11.6007    3.6379    0.0000 C   0  0  0  0  0  0  0  0  0  0  0  0
    2.8660   -3.2438    0.0000 C   0  0  0  0  0  0  0  0  0  0  0  0
   11.6007    5.6379    0.0000 C   0  0  0  0  0  0  0  0  0  0  0  0
    2.8660   -5.2438    0.0000 C   0  0  0  0  0  0  0  0  0  0  0  0
   12.4667    4.1379    0.0000 C   0  0  0  0  0  0  0  0  0  0  0  0
   12.4667    5.1379    0.0000 C   0  0  0  0  0  0  0  0  0  0  0  0
    2.0000   -3.7438    0.0000 C   0  0  0  0  0  0  0  0  0  0  0  0
    2.0000   -4.7438    0.0000 C   0  0  0  0  0  0  0  0  0  0  0  0
    9.8555    0.5682    0.0000 H   0  0  0  0  0  0  0  0  0  0  0  0
   10.4488    1.1005    0.0000 H   0  0  0  0  0  0  0  0  0  0  0  0
    7.6417    2.0179    0.0000 H   0  0  0  0  0  0  0  0  0  0  0  0
    7.8060    1.2380    0.0000 H   0  0  0  0  0  0  0  0  0  0  0  0
    8.5663   -0.5886    0.0000 H   0  0  0  0  0  0  0  0  0  0  0  0
    9.1596   -0.0563    0.0000 H   0  0  0  0  0  0  0  0  0  0  0  0
   10.6925    1.8463    0.0000 H   0  0  0  0  0  0  0  0  0  0  0  0
   10.5282    2.6263    0.0000 H   0  0  0  0  0  0  0  0  0  0  0  0
    8.4787    3.2961    0.0000 H   0  0  0  0  0  0  0  0  0  0  0  0
    7.8854    2.7638    0.0000 H   0  0  0  0  0  0  0  0  0  0  0  0
    7.5467    0.4445    0.0000 H   0  0  0  0  0  0  0  0  0  0  0  0
    6.9534   -0.0878    0.0000 H   0  0  0  0  0  0  0  0  0  0  0  0
    7.2772   -1.7453    0.0000 H   0  0  0  0  0  0  0  0  0  0  0  0
    7.8704   -1.2130    0.0000 H   0  0  0  0  0  0  0  0  0  0  0  0
    6.2575   -0.7122    0.0000 H   0  0  0  0  0  0  0  0  0  0  0  0
    5.6643   -1.2445    0.0000 H   0  0  0  0  0  0  0  0  0  0  0  0
    5.9880   -2.9020    0.0000 H   0  0  0  0  0  0  0  0  0  0  0  0
    6.5812   -2.3697    0.0000 H   0  0  0  0  0  0  0  0  0  0  0  0
    4.9684   -1.8689    0.0000 H   0  0  0  0  0  0  0  0  0  0  0  0
    4.3751   -2.4012    0.0000 H   0  0  0  0  0  0  0  0  0  0  0  0
   11.6007    3.0179    0.0000 H   0  0  0  0  0  0  0  0  0  0  0  0
    4.8709   -5.6379    0.0000 H   0  0  0  0  0  0  0  0  0  0  0  0
    2.8660   -2.6238    0.0000 H   0  0  0  0  0  0  0  0  0  0  0  0
   11.6007    6.2579    0.0000 H   0  0  0  0  0  0  0  0  0  0  0  0
    2.8660   -5.8638    0.0000 H   0  0  0  0  0  0  0  0  0  0  0  0
   13.0036    3.8279    0.0000 H   0  0  0  0  0  0  0  0  0  0  0  0
   13.0036    5.4479    0.0000 H   0  0  0  0  0  0  0  0  0  0  0  0
    1.4631   -3.4338    0.0000 H   0  0  0  0  0  0  0  0  0  0  0  0
    1.4631   -5.0538    0.0000 H   0  0  0  0  0  0  0  0  0  0  0  0
  1  6  1  0  0  0  0
  1 21  1  0  0  0  0
  2 22  2  0  0  0  0
  3  8  1  0  0  0  0
  3  9  1  0  0  0  0
  3 10  1  0  0  0  0
  4 11  1  0  0  0  0
  4 12  1  0  0  0  0
  4 16  1  0  0  0  0
  5 18  1  0  0  0  0
  5 20  1  0  0  0  0
  5 22  1  0  0  0  0
  6 16  2  0  0  0  0
  7 22  1  0  0  0  0
  7 23  1  0  0  0  0
  7 53  1  0  0  0  0
  8 11  1  0  0  0  0
  8 32  1  0  0  0  0
  8 33  1  0  0  0  0
  9 12  1  0  0  0  0
  9 34  1  0  0  0  0
  9 35  1  0  0  0  0
 10 13  1  0  0  0  0
 10 36  1  0  0  0  0
 10 37  1  0  0  0  0
 11 38  1  0  0  0  0
 11 39  1  0  0  0  0
 12 40  1  0  0  0  0
 12 41  1  0  0  0  0
 13 14  1  0  0  0  0
 13 42  1  0  0  0  0
 13 43  1  0  0  0  0
 14 15  1  0  0  0  0
 14 44  1  0  0  0  0
 14 45  1  0  0  0  0
 15 17  1  0  0  0  0
 15 46  1  0  0  0  0
 15 47  1  0  0  0  0
 16 19  1  0  0  0  0
 17 18  1  0  0  0  0
 17 48  1  0  0  0  0
 17 49  1  0  0  0  0
 18 50  1  0  0  0  0
 18 51  1  0  0  0  0
 19 21  1  0  0  0  0
 19 24  2  0  0  0  0
 20 23  1  0  0  0  0
 20 25  2  0  0  0  0
 21 26  2  0  0  0  0
 23 27  2  0  0  0  0
 24 28  1  0  0  0  0
 24 52  1  0  0  0  0
 25 30  1  0  0  0  0
 25 54  1  0  0  0  0
 26 29  1  0  0  0  0
 26 55  1  0  0  0  0
 27 31  1  0  0  0  0
 27 56  1  0  0  0  0
 28 29  2  0  0  0  0
 28 57  1  0  0  0  0
 29 58  1  0  0  0  0
 30 31  2  0  0  0  0
 30 59  1  0  0  0  0
 31 60  1  0  0  0  0
M  END
> <PUBCHEM_COMPOUND_CID>
156011936

> <PUBCHEM_COMPOUND_CANONICALIZED>
1

> <PUBCHEM_CACTVS_COMPLEXITY>
599

> <PUBCHEM_CACTVS_HBOND_ACCEPTOR>
5

> <PUBCHEM_CACTVS_HBOND_DONOR>
1

> <PUBCHEM_CACTVS_ROTATABLE_BOND>
8

> <PUBCHEM_CACTVS_SUBSKEYS>
AAADceB7oABAAAAAAAAAAAAAAAAAAWLAAAA8YIAAAAAAAFgB9AAAHgQQQAAADAjBWgQx8dPAAACsAiZicACDABAhAgBJmDgodJiIYKLAmZGUIAxolgLIyCcQgAAOAAAAAAAEACAAAAAAAAgAQAAAAAAAAA==

> <PUBCHEM_IUPAC_OPENEYE_NAME>
3-[6-[4-(1,2-benzothiazol-3-yl)piperazin-1-yl]hexyl]-1H-benzimidazol-2-one

> <PUBCHEM_IUPAC_CAS_NAME>
3-[6-[4-(1,2-benzothiazol-3-yl)-1-piperazinyl]hexyl]-1H-benzimidazol-2-one

> <PUBCHEM_IUPAC_NAME_MARKUP>
3-[6-[4-(1,2-benzothiazol-3-yl)piperazin-1-yl]hexyl]-1<I>H</I>-benzimidazol-2-one

> <PUBCHEM_IUPAC_NAME>
3-[6-[4-(1,2-benzothiazol-3-yl)piperazin-1-yl]hexyl]-1H-benzimidazol-2-one

> <PUBCHEM_IUPAC_SYSTEMATIC_NAME>
3-[6-[4-(1,2-benzothiazol-3-yl)piperazin-1-yl]hexyl]-1H-benzimidazol-2-one

> <PUBCHEM_IUPAC_TRADITIONAL_NAME>
3-[6-[4-(1,2-benzothiazol-3-yl)piperazino]hexyl]-1H-benzimidazol-2-one

> <PUBCHEM_IUPAC_INCHI>
InChI=1S/C24H29N5OS/c30-24-25-20-10-4-5-11-21(20)29(24)14-8-2-1-7-13-27-15-17-28(18-16-27)23-19-9-3-6-12-22(19)31-26-23/h3-6,9-12H,1-2,7-8,13-18H2,(H,25,30)

> <PUBCHEM_IUPAC_INCHIKEY>
WAAARZOJVXERQD-UHFFFAOYSA-N

> <PUBCHEM_XLOGP3_AA>
4.5

> <PUBCHEM_EXACT_MASS>
435.20928174

> <PUBCHEM_MOLECULAR_FORMULA>
C24H29N5OS

> <PUBCHEM_MOLECULAR_WEIGHT>
435.6

> <PUBCHEM_OPENEYE_CAN_SMILES>
C1CN(CCN1CCCCCCN2C3=CC=CC=C3NC2=O)C4=NSC5=CC=CC=C54

> <PUBCHEM_OPENEYE_ISO_SMILES>
C1CN(CCN1CCCCCCN2C3=CC=CC=C3NC2=O)C4=NSC5=CC=CC=C54

> <PUBCHEM_CACTVS_TPSA>
80

> <PUBCHEM_MONOISOTOPIC_WEIGHT>
435.20928174

> <PUBCHEM_TOTAL_CHARGE>
0

> <PUBCHEM_HEAVY_ATOM_COUNT>
31

> <PUBCHEM_ATOM_DEF_STEREO_COUNT>
0

> <PUBCHEM_ATOM_UDEF_STEREO_COUNT>
0

> <PUBCHEM_BOND_DEF_STEREO_COUNT>
0

> <PUBCHEM_BOND_UDEF_STEREO_COUNT>
0

> <PUBCHEM_ISOTOPIC_ATOM_COUNT>
0

> <PUBCHEM_COMPONENT_COUNT>
1

> <PUBCHEM_CACTVS_TAUTO_COUNT>
-1

> <PUBCHEM_COORDINATE_TYPE>
1
5
255

> <PUBCHEM_BONDANNOTATIONS>
1  21  8
1  6  8
16  19  8
19  21  8
19  24  8
20  23  8
20  25  8
21  26  8
23  27  8
24  28  8
25  30  8
26  29  8
27  31  8
28  29  8
30  31  8
5  20  8
5  22  8
6  16  8
7  22  8
7  23  8

$$$$
