10247701
  -OEChem-09292322342D

 51 55  0     0  0  0  0  0  0999 V2000
    5.0757    0.2701    0.0000 N   0  0  0  0  0  0  0  0  0  0  0  0
    5.0757    2.2701    0.0000 N   0  0  0  0  0  0  0  0  0  0  0  0
    2.6067   -4.3970    0.0000 N   0  0  0  0  0  0  0  0  0  0  0  0
    4.0005   -5.2017    0.0000 N   0  0  0  0  0  0  0  0  0  0  0  0
    5.9418    0.7701    0.0000 C   0  0  0  0  0  0  0  0  0  0  0  0
    4.2097    0.7701    0.0000 C   0  0  0  0  0  0  0  0  0  0  0  0
    5.9418    1.7701    0.0000 C   0  0  0  0  0  0  0  0  0  0  0  0
    4.2097    1.7701    0.0000 C   0  0  0  0  0  0  0  0  0  0  0  0
    5.0757   -0.7299    0.0000 C   0  0  0  0  0  0  0  0  0  0  0  0
    5.0757    3.2701    0.0000 C   0  0  0  0  0  0  0  0  0  0  0  0
    4.2097   -1.2299    0.0000 C   0  0  0  0  0  0  0  0  0  0  0  0
    5.9418    3.7701    0.0000 C   0  0  0  0  0  0  0  0  0  0  0  0
    4.2097   -2.2299    0.0000 C   0  0  0  0  0  0  0  0  0  0  0  0
    4.2097    3.7701    0.0000 C   0  0  0  0  0  0  0  0  0  0  0  0
    5.9418    4.7701    0.0000 C   0  0  0  0  0  0  0  0  0  0  0  0
    3.3437   -2.7299    0.0000 C   0  0  0  0  0  0  0  0  0  0  0  0
    6.8357    3.2354    0.0000 C   0  0  0  0  0  0  0  0  0  0  0  0
    4.2097    4.7701    0.0000 C   0  0  0  0  0  0  0  0  0  0  0  0
    5.0757   -2.7299    0.0000 C   0  0  0  0  0  0  0  0  0  0  0  0
    5.0757    5.2701    0.0000 C   0  0  0  0  0  0  0  0  0  0  0  0
    3.3437   -3.7299    0.0000 C   0  0  0  0  0  0  0  0  0  0  0  0
    6.8357    5.3048    0.0000 C   0  0  0  0  0  0  0  0  0  0  0  0
    4.2097   -4.2299    0.0000 C   0  0  0  0  0  0  0  0  0  0  0  0
    5.0757   -3.7299    0.0000 C   0  0  0  0  0  0  0  0  0  0  0  0
    7.7418    3.7493    0.0000 C   0  0  0  0  0  0  0  0  0  0  0  0
    7.7418    4.7909    0.0000 C   0  0  0  0  0  0  0  0  0  0  0  0
    3.0118   -5.3048    0.0000 C   0  0  0  0  0  0  0  0  0  0  0  0
    6.1538    0.1875    0.0000 H   0  0  0  0  0  0  0  0  0  0  0  0
    6.5524    0.8778    0.0000 H   0  0  0  0  0  0  0  0  0  0  0  0
    3.5991    0.8778    0.0000 H   0  0  0  0  0  0  0  0  0  0  0  0
    3.9977    0.1875    0.0000 H   0  0  0  0  0  0  0  0  0  0  0  0
    6.5524    1.6624    0.0000 H   0  0  0  0  0  0  0  0  0  0  0  0
    6.1538    2.3527    0.0000 H   0  0  0  0  0  0  0  0  0  0  0  0
    3.9977    2.3527    0.0000 H   0  0  0  0  0  0  0  0  0  0  0  0
    3.5991    1.6624    0.0000 H   0  0  0  0  0  0  0  0  0  0  0  0
    5.2878   -1.3125    0.0000 H   0  0  0  0  0  0  0  0  0  0  0  0
    5.6863   -0.6222    0.0000 H   0  0  0  0  0  0  0  0  0  0  0  0
    3.9977   -0.6473    0.0000 H   0  0  0  0  0  0  0  0  0  0  0  0
    3.5991   -1.3376    0.0000 H   0  0  0  0  0  0  0  0  0  0  0  0
    3.6728    3.4601    0.0000 H   0  0  0  0  0  0  0  0  0  0  0  0
    2.8068   -2.4199    0.0000 H   0  0  0  0  0  0  0  0  0  0  0  0
    6.8285    2.6155    0.0000 H   0  0  0  0  0  0  0  0  0  0  0  0
    3.6728    5.0801    0.0000 H   0  0  0  0  0  0  0  0  0  0  0  0
    5.6127   -2.4199    0.0000 H   0  0  0  0  0  0  0  0  0  0  0  0
    5.0757    5.8901    0.0000 H   0  0  0  0  0  0  0  0  0  0  0  0
    6.8285    5.9247    0.0000 H   0  0  0  0  0  0  0  0  0  0  0  0
    5.6127   -4.0399    0.0000 H   0  0  0  0  0  0  0  0  0  0  0  0
    8.2775    3.4372    0.0000 H   0  0  0  0  0  0  0  0  0  0  0  0
    8.2775    5.1030    0.0000 H   0  0  0  0  0  0  0  0  0  0  0  0
    2.0000   -4.2691    0.0000 H   0  0  0  0  0  0  0  0  0  0  0  0
    2.7018   -5.8417    0.0000 H   0  0  0  0  0  0  0  0  0  0  0  0
  1  5  1  0  0  0  0
  1  6  1  0  0  0  0
  1  9  1  0  0  0  0
  2  7  1  0  0  0  0
  2  8  1  0  0  0  0
  2 10  1  0  0  0  0
  3 21  1  0  0  0  0
  3 27  1  0  0  0  0
  3 50  1  0  0  0  0
  4 23  1  0  0  0  0
  4 27  2  0  0  0  0
  5  7  1  0  0  0  0
  5 28  1  0  0  0  0
  5 29  1  0  0  0  0
  6  8  1  0  0  0  0
  6 30  1  0  0  0  0
  6 31  1  0  0  0  0
  7 32  1  0  0  0  0
  7 33  1  0  0  0  0
  8 34  1  0  0  0  0
  8 35  1  0  0  0  0
  9 11  1  0  0  0  0
  9 36  1  0  0  0  0
  9 37  1  0  0  0  0
 10 12  1  0  0  0  0
 10 14  2  0  0  0  0
 11 13  1  0  0  0  0
 11 38  1  0  0  0  0
 11 39  1  0  0  0  0
 12 15  1  0  0  0  0
 12 17  2  0  0  0  0
 13 16  2  0  0  0  0
 13 19  1  0  0  0  0
 14 18  1  0  0  0  0
 14 40  1  0  0  0  0
 15 20  1  0  0  0  0
 15 22  2  0  0  0  0
 16 21  1  0  0  0  0
 16 41  1  0  0  0  0
 17 25  1  0  0  0  0
 17 42  1  0  0  0  0
 18 20  2  0  0  0  0
 18 43  1  0  0  0  0
 19 24  2  0  0  0  0
 19 44  1  0  0  0  0
 20 45  1  0  0  0  0
 21 23  2  0  0  0  0
 22 26  1  0  0  0  0
 22 46  1  0  0  0  0
 23 24  1  0  0  0  0
 24 47  1  0  0  0  0
 25 26  2  0  0  0  0
 25 48  1  0  0  0  0
 26 49  1  0  0  0  0
 27 51  1  0  0  0  0
M  END
> <PUBCHEM_COMPOUND_CID>
10247701

> <PUBCHEM_COMPOUND_CANONICALIZED>
1

> <PUBCHEM_CACTVS_COMPLEXITY>
475

> <PUBCHEM_CACTVS_HBOND_ACCEPTOR>
3

> <PUBCHEM_CACTVS_HBOND_DONOR>
1

> <PUBCHEM_CACTVS_ROTATABLE_BOND>
4

> <PUBCHEM_CACTVS_SUBSKEYS>
AAADceB7gAAAAAAAAAAAAAAAAAAAAWAAAAA8YMEAAAAAAFjB9AAAHAAQAAAADAjBHgQ10PfJkACgAyRjZACCgC2xEqAJ2aA4dJiIaKLAmZGUIAhokALIyCcQgIAOiAAAQAASACAQAACAACQAQAAAAAAAAA==

> <PUBCHEM_IUPAC_OPENEYE_NAME>
6-[2-[4-(1-naphthyl)piperazin-1-yl]ethyl]-1H-benzimidazole

> <PUBCHEM_IUPAC_CAS_NAME>
6-[2-[4-(1-naphthalenyl)-1-piperazinyl]ethyl]-1H-benzimidazole

> <PUBCHEM_IUPAC_NAME_MARKUP>
6-[2-(4-naphthalen-1-ylpiperazin-1-yl)ethyl]-1<I>H</I>-benzimidazole

> <PUBCHEM_IUPAC_NAME>
6-[2-(4-naphthalen-1-ylpiperazin-1-yl)ethyl]-1H-benzimidazole

> <PUBCHEM_IUPAC_SYSTEMATIC_NAME>
6-[2-(4-naphthalen-1-ylpiperazin-1-yl)ethyl]-1H-benzimidazole

> <PUBCHEM_IUPAC_TRADITIONAL_NAME>
6-[2-[4-(1-naphthyl)piperazino]ethyl]-1H-benzimidazole

> <PUBCHEM_IUPAC_INCHI>
InChI=1S/C23H24N4/c1-2-6-20-19(4-1)5-3-7-23(20)27-14-12-26(13-15-27)11-10-18-8-9-21-22(16-18)25-17-24-21/h1-9,16-17H,10-15H2,(H,24,25)

> <PUBCHEM_IUPAC_INCHIKEY>
OTPPYWCIUOIPCN-UHFFFAOYSA-N

> <PUBCHEM_XLOGP3_AA>
4.6

> <PUBCHEM_EXACT_MASS>
356.20009678

> <PUBCHEM_MOLECULAR_FORMULA>
C23H24N4

> <PUBCHEM_MOLECULAR_WEIGHT>
356.5

> <PUBCHEM_OPENEYE_CAN_SMILES>
C1CN(CCN1CCC2=CC3=C(C=C2)N=CN3)C4=CC=CC5=CC=CC=C54

> <PUBCHEM_OPENEYE_ISO_SMILES>
C1CN(CCN1CCC2=CC3=C(C=C2)N=CN3)C4=CC=CC5=CC=CC=C54

> <PUBCHEM_CACTVS_TPSA>
35.2

> <PUBCHEM_MONOISOTOPIC_WEIGHT>
356.20009678

> <PUBCHEM_TOTAL_CHARGE>
0

> <PUBCHEM_HEAVY_ATOM_COUNT>
27

> <PUBCHEM_ATOM_DEF_STEREO_COUNT>
0

> <PUBCHEM_ATOM_UDEF_STEREO_COUNT>
0

> <PUBCHEM_BOND_DEF_STEREO_COUNT>
0

> <PUBCHEM_BOND_UDEF_STEREO_COUNT>
0

> <PUBCHEM_ISOTOPIC_ATOM_COUNT>
0

> <PUBCHEM_COMPONENT_COUNT>
1

> <PUBCHEM_CACTVS_TAUTO_COUNT>
-1

> <PUBCHEM_COORDINATE_TYPE>
1
5
255

> <PUBCHEM_BONDANNOTATIONS>
10  12  8
10  14  8
12  15  8
12  17  8
13  16  8
13  19  8
14  18  8
15  20  8
15  22  8
16  21  8
17  25  8
18  20  8
19  24  8
21  23  8
22  26  8
23  24  8
25  26  8
3  21  8
3  27  8
4  23  8
4  27  8

$$$$
