23025506
  -OEChem-09292322462D

 30 32  0     0  0  0  0  0  0999 V2000
    6.7619   -1.5350    0.0000 O   0  0  0  0  0  0  0  0  0  0  0  0
    6.7619    0.1970    0.0000 N   0  0  0  0  0  0  0  0  0  0  0  0
    4.6783   -1.4737    0.0000 N   0  0  0  0  0  0  0  0  0  0  0  0
    8.2619    1.0630    0.0000 C   0  0  0  0  0  0  0  0  0  0  0  0
    9.1279    1.5630    0.0000 C   0  0  0  0  0  0  0  0  0  0  0  0
    8.2619    2.0630    0.0000 C   0  0  0  0  0  0  0  0  0  0  0  0
    7.7619    0.1970    0.0000 C   0  0  0  0  0  0  0  0  0  0  0  0
    6.2619   -0.6690    0.0000 C   0  0  0  0  0  0  0  0  0  0  0  0
    5.2619   -0.6690    0.0000 C   0  0  0  0  0  0  0  0  0  0  0  0
    3.7320   -1.1690    0.0000 C   0  0  0  0  0  0  0  0  0  0  0  0
    3.7320   -0.1690    0.0000 C   0  0  0  0  0  0  0  0  0  0  0  0
    4.6783    0.1357    0.0000 C   0  0  0  0  0  0  0  0  0  0  0  0
    2.8660   -1.6690    0.0000 C   0  0  0  0  0  0  0  0  0  0  0  0
    2.8660    0.3310    0.0000 C   0  0  0  0  0  0  0  0  0  0  0  0
    2.0000   -1.1690    0.0000 C   0  0  0  0  0  0  0  0  0  0  0  0
    2.0000   -0.1690    0.0000 C   0  0  0  0  0  0  0  0  0  0  0  0
    8.7003    0.6246    0.0000 H   0  0  0  0  0  0  0  0  0  0  0  0
    9.5264    1.0881    0.0000 H   0  0  0  0  0  0  0  0  0  0  0  0
    9.5264    2.0380    0.0000 H   0  0  0  0  0  0  0  0  0  0  0  0
    8.4739    2.6457    0.0000 H   0  0  0  0  0  0  0  0  0  0  0  0
    7.6513    2.1707    0.0000 H   0  0  0  0  0  0  0  0  0  0  0  0
    7.6542   -0.4136    0.0000 H   0  0  0  0  0  0  0  0  0  0  0  0
    8.3445   -0.0150    0.0000 H   0  0  0  0  0  0  0  0  0  0  0  0
    6.4519    0.7340    0.0000 H   0  0  0  0  0  0  0  0  0  0  0  0
    4.8709   -2.0630    0.0000 H   0  0  0  0  0  0  0  0  0  0  0  0
    4.8709    0.7251    0.0000 H   0  0  0  0  0  0  0  0  0  0  0  0
    2.8660   -2.2890    0.0000 H   0  0  0  0  0  0  0  0  0  0  0  0
    2.8660    0.9510    0.0000 H   0  0  0  0  0  0  0  0  0  0  0  0
    1.4631   -1.4790    0.0000 H   0  0  0  0  0  0  0  0  0  0  0  0
    1.4631    0.1410    0.0000 H   0  0  0  0  0  0  0  0  0  0  0  0
  1  8  2  0  0  0  0
  2  7  1  0  0  0  0
  2  8  1  0  0  0  0
  2 24  1  0  0  0  0
  3  9  1  0  0  0  0
  3 10  1  0  0  0  0
  3 25  1  0  0  0  0
  4  5  1  0  0  0  0
  4  6  1  0  0  0  0
  4  7  1  0  0  0  0
  4 17  1  0  0  0  0
  5  6  1  0  0  0  0
  5 18  1  0  0  0  0
  5 19  1  0  0  0  0
  6 20  1  0  0  0  0
  6 21  1  0  0  0  0
  7 22  1  0  0  0  0
  7 23  1  0  0  0  0
  8  9  1  0  0  0  0
  9 12  2  0  0  0  0
 10 11  1  0  0  0  0
 10 13  2  0  0  0  0
 11 12  1  0  0  0  0
 11 14  2  0  0  0  0
 12 26  1  0  0  0  0
 13 15  1  0  0  0  0
 13 27  1  0  0  0  0
 14 16  1  0  0  0  0
 14 28  1  0  0  0  0
 15 16  2  0  0  0  0
 15 29  1  0  0  0  0
 16 30  1  0  0  0  0
M  END
> <PUBCHEM_COMPOUND_CID>
23025506

> <PUBCHEM_COMPOUND_CANONICALIZED>
1

> <PUBCHEM_CACTVS_COMPLEXITY>
275

> <PUBCHEM_CACTVS_HBOND_ACCEPTOR>
1

> <PUBCHEM_CACTVS_HBOND_DONOR>
2

> <PUBCHEM_CACTVS_ROTATABLE_BOND>
3

> <PUBCHEM_CACTVS_SUBSKEYS>
AAADccBzIAAAAAAAAAAAAAAAGAAAAWAAAAAwAAAAAAAAAFgB8AAAHgAQAAAADQjBngQwwPLJkACoAyVyVACCgCAnAiAImaG4ZNgIYPLAlbGUIQhglgDIyYcYiYCeAAAAAAACAAAAAAAAAAQAAAAAAAAAAA==

> <PUBCHEM_IUPAC_OPENEYE_NAME>
N-(cyclopropylmethyl)-1H-indole-2-carboxamide

> <PUBCHEM_IUPAC_CAS_NAME>
N-(cyclopropylmethyl)-1H-indole-2-carboxamide

> <PUBCHEM_IUPAC_NAME_MARKUP>
<I>N</I>-(cyclopropylmethyl)-1<I>H</I>-indole-2-carboxamide

> <PUBCHEM_IUPAC_NAME>
N-(cyclopropylmethyl)-1H-indole-2-carboxamide

> <PUBCHEM_IUPAC_SYSTEMATIC_NAME>
N-(cyclopropylmethyl)-1H-indole-2-carboxamide

> <PUBCHEM_IUPAC_TRADITIONAL_NAME>
N-(cyclopropylmethyl)-1H-indole-2-carboxamide

> <PUBCHEM_IUPAC_INCHI>
InChI=1S/C13H14N2O/c16-13(14-8-9-5-6-9)12-7-10-3-1-2-4-11(10)15-12/h1-4,7,9,15H,5-6,8H2,(H,14,16)

> <PUBCHEM_IUPAC_INCHIKEY>
HVPPFHLGPGKQQS-UHFFFAOYSA-N

> <PUBCHEM_XLOGP3>
2.8

> <PUBCHEM_EXACT_MASS>
214.110613074

> <PUBCHEM_MOLECULAR_FORMULA>
C13H14N2O

> <PUBCHEM_MOLECULAR_WEIGHT>
214.26

> <PUBCHEM_OPENEYE_CAN_SMILES>
C1CC1CNC(=O)C2=CC3=CC=CC=C3N2

> <PUBCHEM_OPENEYE_ISO_SMILES>
C1CC1CNC(=O)C2=CC3=CC=CC=C3N2

> <PUBCHEM_CACTVS_TPSA>
44.9

> <PUBCHEM_MONOISOTOPIC_WEIGHT>
214.110613074

> <PUBCHEM_TOTAL_CHARGE>
0

> <PUBCHEM_HEAVY_ATOM_COUNT>
16

> <PUBCHEM_ATOM_DEF_STEREO_COUNT>
0

> <PUBCHEM_ATOM_UDEF_STEREO_COUNT>
0

> <PUBCHEM_BOND_DEF_STEREO_COUNT>
0

> <PUBCHEM_BOND_UDEF_STEREO_COUNT>
0

> <PUBCHEM_ISOTOPIC_ATOM_COUNT>
0

> <PUBCHEM_COMPONENT_COUNT>
1

> <PUBCHEM_CACTVS_TAUTO_COUNT>
-1

> <PUBCHEM_COORDINATE_TYPE>
1
5
255

> <PUBCHEM_BONDANNOTATIONS>
10  11  8
10  13  8
11  12  8
11  14  8
13  15  8
14  16  8
15  16  8
3  10  8
3  9  8
9  12  8

$$$$
