46231772
  -OEChem-09292322292D

 54 57  0     1  0  0  0  0  0999 V2000
    2.1374    3.4260    0.0000 Cl  0  0  0  0  0  0  0  0  0  0  0  0
    2.5932    1.4291    0.0000 O   0  0  0  0  0  0  0  0  0  0  0  0
    6.5225   -2.6093    0.0000 O   0  0  0  0  0  0  0  0  0  0  0  0
    7.0983    3.5078    0.0000 N   0  0  3  0  0  0  0  0  0  0  0  0
    7.4927   -1.1744    0.0000 N   0  0  0  0  0  0  0  0  0  0  0  0
    8.2502   -2.7321    0.0000 N   0  0  0  0  0  0  0  0  0  0  0  0
    6.8758    2.5329    0.0000 C   0  0  2  0  0  0  0  0  0  0  0  0
    5.9748    2.0990    0.0000 C   0  0  2  0  0  0  0  0  0  0  0  0
    7.7453    1.9595    0.0000 C   0  0  0  0  0  0  0  0  0  0  0  0
    5.8810    1.0616    0.0000 C   0  0  0  0  0  0  0  0  0  0  0  0
    7.6755    0.9202    0.0000 C   0  0  0  0  0  0  0  0  0  0  0  0
    5.0738    2.5329    0.0000 C   0  0  0  0  0  0  0  0  0  0  0  0
    6.7370    0.4682    0.0000 C   0  0  0  0  0  0  0  0  0  0  0  0
    6.4748    4.2897    0.0000 C   0  0  0  0  0  0  0  0  0  0  0  0
    4.8513    3.5078    0.0000 C   0  0  0  0  0  0  0  0  0  0  0  0
    5.4748    4.2897    0.0000 C   0  0  0  0  0  0  0  0  0  0  0  0
    8.0732    3.7304    0.0000 C   0  0  0  0  0  0  0  0  0  0  0  0
    4.8928    0.6136    0.0000 C   0  0  0  0  0  0  0  0  0  0  0  0
    6.6643   -0.6143    0.0000 C   0  0  0  0  0  0  0  0  0  0  0  0
    4.3213    1.8127    0.0000 C   0  0  0  0  0  0  0  0  0  0  0  0
    3.8608    3.8302    0.0000 C   0  0  0  0  0  0  0  0  0  0  0  0
    4.7950   -0.4670    0.0000 C   0  0  0  0  0  0  0  0  0  0  0  0
    5.6868   -1.0851    0.0000 C   0  0  0  0  0  0  0  0  0  0  0  0
    3.3236    2.1121    0.0000 C   0  0  0  0  0  0  0  0  0  0  0  0
    3.0918    3.1276    0.0000 C   0  0  0  0  0  0  0  0  0  0  0  0
    7.4218   -2.1719    0.0000 C   0  0  0  0  0  0  0  0  0  0  0  0
    8.1793   -3.7295    0.0000 C   0  0  0  0  0  0  0  0  0  0  0  0
    9.0077   -4.2897    0.0000 C   0  0  0  0  0  0  0  0  0  0  0  0
    7.6646    2.8495    0.0000 H   0  0  0  0  0  0  0  0  0  0  0  0
    5.2354    1.6797    0.0000 H   0  0  0  0  0  0  0  0  0  0  0  0
    8.3477    1.8127    0.0000 H   0  0  0  0  0  0  0  0  0  0  0  0
    7.9931    2.5278    0.0000 H   0  0  0  0  0  0  0  0  0  0  0  0
    7.8450    0.3238    0.0000 H   0  0  0  0  0  0  0  0  0  0  0  0
    8.2921    0.9851    0.0000 H   0  0  0  0  0  0  0  0  0  0  0  0
    7.0334    4.5587    0.0000 H   0  0  0  0  0  0  0  0  0  0  0  0
    6.3368    4.8941    0.0000 H   0  0  0  0  0  0  0  0  0  0  0  0
    5.6128    4.8941    0.0000 H   0  0  0  0  0  0  0  0  0  0  0  0
    4.9162    4.5587    0.0000 H   0  0  0  0  0  0  0  0  0  0  0  0
    8.2112    3.1259    0.0000 H   0  0  0  0  0  0  0  0  0  0  0  0
    8.6777    3.8683    0.0000 H   0  0  0  0  0  0  0  0  0  0  0  0
    7.9352    4.3348    0.0000 H   0  0  0  0  0  0  0  0  0  0  0  0
    4.3873    0.9727    0.0000 H   0  0  0  0  0  0  0  0  0  0  0  0
    4.4662    1.2099    0.0000 H   0  0  0  0  0  0  0  0  0  0  0  0
    3.7298    4.4362    0.0000 H   0  0  0  0  0  0  0  0  0  0  0  0
    4.2334   -0.7295    0.0000 H   0  0  0  0  0  0  0  0  0  0  0  0
    5.6380   -1.7032    0.0000 H   0  0  0  0  0  0  0  0  0  0  0  0
    8.0503   -0.9033    0.0000 H   0  0  0  0  0  0  0  0  0  0  0  0
    2.0000    1.6096    0.0000 H   0  0  0  0  0  0  0  0  0  0  0  0
    8.8078   -2.4609    0.0000 H   0  0  0  0  0  0  0  0  0  0  0  0
    7.5779   -3.5789    0.0000 H   0  0  0  0  0  0  0  0  0  0  0  0
    7.9265   -4.2956    0.0000 H   0  0  0  0  0  0  0  0  0  0  0  0
    8.6605   -4.8033    0.0000 H   0  0  0  0  0  0  0  0  0  0  0  0
    9.5214   -4.6370    0.0000 H   0  0  0  0  0  0  0  0  0  0  0  0
    9.3550   -3.7761    0.0000 H   0  0  0  0  0  0  0  0  0  0  0  0
  1 25  1  0  0  0  0
  2 24  1  0  0  0  0
  2 48  1  0  0  0  0
  3 26  2  0  0  0  0
  4  7  1  0  0  0  0
  4 14  1  0  0  0  0
  4 17  1  0  0  0  0
  5 19  1  0  0  0  0
  5 26  1  0  0  0  0
  5 47  1  0  0  0  0
  6 26  1  0  0  0  0
  6 27  1  0  0  0  0
  6 49  1  0  0  0  0
  7  8  1  0  0  0  0
  7  9  1  0  0  0  0
  7 29  1  6  0  0  0
  8 10  1  0  0  0  0
  8 12  1  0  0  0  0
  8 30  1  1  0  0  0
  9 11  1  0  0  0  0
  9 31  1  0  0  0  0
  9 32  1  0  0  0  0
 10 13  2  0  0  0  0
 10 18  1  0  0  0  0
 11 13  1  0  0  0  0
 11 33  1  0  0  0  0
 11 34  1  0  0  0  0
 12 15  1  0  0  0  0
 12 20  2  0  0  0  0
 13 19  1  0  0  0  0
 14 16  1  0  0  0  0
 14 35  1  0  0  0  0
 14 36  1  0  0  0  0
 15 16  1  0  0  0  0
 15 21  2  0  0  0  0
 16 37  1  0  0  0  0
 16 38  1  0  0  0  0
 17 39  1  0  0  0  0
 17 40  1  0  0  0  0
 17 41  1  0  0  0  0
 18 22  2  0  0  0  0
 18 42  1  0  0  0  0
 19 23  2  0  0  0  0
 20 24  1  0  0  0  0
 20 43  1  0  0  0  0
 21 25  1  0  0  0  0
 21 44  1  0  0  0  0
 22 23  1  0  0  0  0
 22 45  1  0  0  0  0
 23 46  1  0  0  0  0
 24 25  2  0  0  0  0
 27 28  1  0  0  0  0
 27 50  1  0  0  0  0
 27 51  1  0  0  0  0
 28 52  1  0  0  0  0
 28 53  1  0  0  0  0
 28 54  1  0  0  0  0
M  END
> <PUBCHEM_COMPOUND_CID>
46231772

> <PUBCHEM_COMPOUND_CANONICALIZED>
1

> <PUBCHEM_CACTVS_COMPLEXITY>
562

> <PUBCHEM_CACTVS_HBOND_ACCEPTOR>
3

> <PUBCHEM_CACTVS_HBOND_DONOR>
3

> <PUBCHEM_CACTVS_ROTATABLE_BOND>
2

> <PUBCHEM_CACTVS_SUBSKEYS>
AAADceB7MAAEAAAAAAAAAAAAAAAAAAAAAAAwYMAABYAAAADBQAAAHgIQCAAADS7BmCQzxoPAAgCIAiRCUACCAAAhJ0AIiIAOb4iIJiLDk5OEcAhs1hPI2CeQ0PMOpAABYAASCABYAAbAACQQAAAAAAAAAA==

> <PUBCHEM_IUPAC_OPENEYE_NAME>
1-[(6aS,13bS)-11-chloro-12-hydroxy-7-methyl-5,6,6a,8,9,13b-hexahydronaphtho[1,2-a][3]benzazepin-4-yl]-3-ethyl-urea

> <PUBCHEM_IUPAC_CAS_NAME>
1-[(6aS,13bS)-11-chloro-12-hydroxy-7-methyl-5,6,6a,8,9,13b-hexahydronaphtho[1,2-a][3]benzazepin-4-yl]-3-ethylurea

> <PUBCHEM_IUPAC_NAME_MARKUP>
1-[(6<I>a</I><I>S</I>,13<I>b</I><I>S</I>)-11-chloro-12-hydroxy-7-methyl-5,6,6<I>a</I>,8,9,13<I>b</I>-hexahydronaphtho[1,2-a][3]benzazepin-4-yl]-3-ethylurea

> <PUBCHEM_IUPAC_NAME>
1-[(6aS,13bS)-11-chloro-12-hydroxy-7-methyl-5,6,6a,8,9,13b-hexahydronaphtho[1,2-a][3]benzazepin-4-yl]-3-ethylurea

> <PUBCHEM_IUPAC_SYSTEMATIC_NAME>
1-[(6aS,13bS)-11-chloranyl-7-methyl-12-oxidanyl-5,6,6a,8,9,13b-hexahydronaphtho[1,2-a][3]benzazepin-4-yl]-3-ethyl-urea

> <PUBCHEM_IUPAC_TRADITIONAL_NAME>
1-[(6aS,13bS)-11-chloro-12-hydroxy-7-methyl-5,6,6a,8,9,13b-hexahydronaphtho[1,2-a][3]benzazepin-4-yl]-3-ethyl-urea

> <PUBCHEM_IUPAC_INCHI>
InChI=1S/C22H26ClN3O2/c1-3-24-22(28)25-18-6-4-5-15-14(18)7-8-19-21(15)16-12-20(27)17(23)11-13(16)9-10-26(19)2/h4-6,11-12,19,21,27H,3,7-10H2,1-2H3,(H2,24,25,28)/t19-,21+/m0/s1

> <PUBCHEM_IUPAC_INCHIKEY>
QGYISVLNCIERMJ-PZJWPPBQSA-N

> <PUBCHEM_XLOGP3_AA>
3.8

> <PUBCHEM_EXACT_MASS>
399.1713548

> <PUBCHEM_MOLECULAR_FORMULA>
C22H26ClN3O2

> <PUBCHEM_MOLECULAR_WEIGHT>
399.9

> <PUBCHEM_OPENEYE_CAN_SMILES>
CCNC(=O)NC1=CC=CC2=C1CCC3C2C4=CC(=C(C=C4CCN3C)Cl)O

> <PUBCHEM_OPENEYE_ISO_SMILES>
CCNC(=O)NC1=CC=CC2=C1CC[C@H]3[C@H]2C4=CC(=C(C=C4CCN3C)Cl)O

> <PUBCHEM_CACTVS_TPSA>
64.6

> <PUBCHEM_MONOISOTOPIC_WEIGHT>
399.1713548

> <PUBCHEM_TOTAL_CHARGE>
0

> <PUBCHEM_HEAVY_ATOM_COUNT>
28

> <PUBCHEM_ATOM_DEF_STEREO_COUNT>
2

> <PUBCHEM_ATOM_UDEF_STEREO_COUNT>
0

> <PUBCHEM_BOND_DEF_STEREO_COUNT>
0

> <PUBCHEM_BOND_UDEF_STEREO_COUNT>
0

> <PUBCHEM_ISOTOPIC_ATOM_COUNT>
0

> <PUBCHEM_COMPONENT_COUNT>
1

> <PUBCHEM_CACTVS_TAUTO_COUNT>
-1

> <PUBCHEM_COORDINATE_TYPE>
1
5
255

> <PUBCHEM_BONDANNOTATIONS>
10  13  8
10  18  8
12  15  8
12  20  8
13  19  8
15  21  8
18  22  8
19  23  8
20  24  8
21  25  8
22  23  8
24  25  8
7  29  6
8  30  5

$$$$
