44415594
  -OEChem-09292322282D

 62 67  0     0  0  0  0  0  0999 V2000
    8.7204    1.4643    0.0000 Cl  0  0  0  0  0  0  0  0  0  0  0  0
    6.6150   -0.8626    0.0000 O   0  0  0  0  0  0  0  0  0  0  0  0
    3.9491    3.2290    0.0000 N   0  0  0  0  0  0  0  0  0  0  0  0
    3.0814    5.0309    0.0000 N   0  0  0  0  0  0  0  0  0  0  0  0
    4.8830    0.1374    0.0000 N   0  0  0  0  0  0  0  0  0  0  0  0
    5.3830    2.3280    0.0000 N   0  0  0  0  0  0  0  0  0  0  0  0
    4.8830   -0.8626    0.0000 N   0  0  0  0  0  0  0  0  0  0  0  0
    2.9519    3.3037    0.0000 C   0  0  0  0  0  0  0  0  0  0  0  0
    4.5125    4.0552    0.0000 C   0  0  0  0  0  0  0  0  0  0  0  0
    2.5180    4.2047    0.0000 C   0  0  0  0  0  0  0  0  0  0  0  0
    4.0786    4.9562    0.0000 C   0  0  0  0  0  0  0  0  0  0  0  0
    4.3830    2.3280    0.0000 C   0  0  0  0  0  0  0  0  0  0  0  0
    3.7595    1.5462    0.0000 C   0  0  0  0  0  0  0  0  0  0  0  0
    2.6475    5.9319    0.0000 C   0  0  0  0  0  0  0  0  0  0  0  0
    3.9820    0.5713    0.0000 C   0  0  0  0  0  0  0  0  0  0  0  0
    5.7840    0.5712    0.0000 C   0  0  0  0  0  0  0  0  0  0  0  0
    6.0065    1.5462    0.0000 C   0  0  0  0  0  0  0  0  0  0  0  0
    2.7690    1.8685    0.0000 C   0  0  0  0  0  0  0  0  0  0  0  0
    3.2295   -0.1489    0.0000 C   0  0  0  0  0  0  0  0  0  0  0  0
    2.0000    1.1660    0.0000 C   0  0  0  0  0  0  0  0  0  0  0  0
    6.5365   -0.1489    0.0000 C   0  0  0  0  0  0  0  0  0  0  0  0
    6.9970    1.8685    0.0000 C   0  0  0  0  0  0  0  0  0  0  0  0
    2.2318    0.1504    0.0000 C   0  0  0  0  0  0  0  0  0  0  0  0
    7.5342    0.1504    0.0000 C   0  0  0  0  0  0  0  0  0  0  0  0
    7.7660    1.1659    0.0000 C   0  0  0  0  0  0  0  0  0  0  0  0
    5.7490   -1.3626    0.0000 C   0  0  0  0  0  0  0  0  0  0  0  0
    5.7490   -2.3626    0.0000 C   0  0  0  0  0  0  0  0  0  0  0  0
    6.6150   -2.8626    0.0000 C   0  0  0  0  0  0  0  0  0  0  0  0
    6.6150   -3.8626    0.0000 C   0  0  0  0  0  0  0  0  0  0  0  0
    5.7490   -4.3626    0.0000 C   0  0  0  0  0  0  0  0  0  0  0  0
    4.8830   -2.8626    0.0000 C   0  0  0  0  0  0  0  0  0  0  0  0
    4.8830   -3.8626    0.0000 C   0  0  0  0  0  0  0  0  0  0  0  0
    7.5250   -4.3695    0.0000 C   0  0  0  0  0  0  0  0  0  0  0  0
    5.7329   -5.4041    0.0000 C   0  0  0  0  0  0  0  0  0  0  0  0
    7.5330   -5.4111    0.0000 C   0  0  0  0  0  0  0  0  0  0  0  0
    6.6310   -5.9319    0.0000 C   0  0  0  0  0  0  0  0  0  0  0  0
    2.3551    3.1358    0.0000 H   0  0  0  0  0  0  0  0  0  0  0  0
    3.0137    2.6868    0.0000 H   0  0  0  0  0  0  0  0  0  0  0  0
    4.9563    3.6223    0.0000 H   0  0  0  0  0  0  0  0  0  0  0  0
    5.0159    4.4171    0.0000 H   0  0  0  0  0  0  0  0  0  0  0  0
    2.0742    4.6376    0.0000 H   0  0  0  0  0  0  0  0  0  0  0  0
    2.0146    3.8428    0.0000 H   0  0  0  0  0  0  0  0  0  0  0  0
    4.6754    5.1241    0.0000 H   0  0  0  0  0  0  0  0  0  0  0  0
    4.0168    5.5731    0.0000 H   0  0  0  0  0  0  0  0  0  0  0  0
    3.2061    6.2009    0.0000 H   0  0  0  0  0  0  0  0  0  0  0  0
    2.3785    6.4905    0.0000 H   0  0  0  0  0  0  0  0  0  0  0  0
    2.0889    5.6629    0.0000 H   0  0  0  0  0  0  0  0  0  0  0  0
    2.6380    2.4745    0.0000 H   0  0  0  0  0  0  0  0  0  0  0  0
    3.3744   -0.7517    0.0000 H   0  0  0  0  0  0  0  0  0  0  0  0
    4.3460   -1.1726    0.0000 H   0  0  0  0  0  0  0  0  0  0  0  0
    1.4083    1.3510    0.0000 H   0  0  0  0  0  0  0  0  0  0  0  0
    6.3916   -0.7518    0.0000 H   0  0  0  0  0  0  0  0  0  0  0  0
    7.1280    2.4745    0.0000 H   0  0  0  0  0  0  0  0  0  0  0  0
    1.7789   -0.2730    0.0000 H   0  0  0  0  0  0  0  0  0  0  0  0
    7.9871   -0.2731    0.0000 H   0  0  0  0  0  0  0  0  0  0  0  0
    7.1520   -2.5526    0.0000 H   0  0  0  0  0  0  0  0  0  0  0  0
    4.3460   -2.5526    0.0000 H   0  0  0  0  0  0  0  0  0  0  0  0
    4.3460   -4.1726    0.0000 H   0  0  0  0  0  0  0  0  0  0  0  0
    8.0583   -4.0533    0.0000 H   0  0  0  0  0  0  0  0  0  0  0  0
    5.1924   -5.7079    0.0000 H   0  0  0  0  0  0  0  0  0  0  0  0
    8.0712   -5.7190    0.0000 H   0  0  0  0  0  0  0  0  0  0  0  0
    6.6286   -6.5519    0.0000 H   0  0  0  0  0  0  0  0  0  0  0  0
  1 25  1  0  0  0  0
  2 26  2  0  0  0  0
  3  8  1  0  0  0  0
  3  9  1  0  0  0  0
  3 12  1  0  0  0  0
  4 10  1  0  0  0  0
  4 11  1  0  0  0  0
  4 14  1  0  0  0  0
  5  7  1  0  0  0  0
  5 15  1  0  0  0  0
  5 16  1  0  0  0  0
  6 12  2  0  0  0  0
  6 17  1  0  0  0  0
  7 26  1  0  0  0  0
  7 50  1  0  0  0  0
  8 10  1  0  0  0  0
  8 37  1  0  0  0  0
  8 38  1  0  0  0  0
  9 11  1  0  0  0  0
  9 39  1  0  0  0  0
  9 40  1  0  0  0  0
 10 41  1  0  0  0  0
 10 42  1  0  0  0  0
 11 43  1  0  0  0  0
 11 44  1  0  0  0  0
 12 13  1  0  0  0  0
 13 15  1  0  0  0  0
 13 18  2  0  0  0  0
 14 45  1  0  0  0  0
 14 46  1  0  0  0  0
 14 47  1  0  0  0  0
 15 19  2  0  0  0  0
 16 17  2  0  0  0  0
 16 21  1  0  0  0  0
 17 22  1  0  0  0  0
 18 20  1  0  0  0  0
 18 48  1  0  0  0  0
 19 23  1  0  0  0  0
 19 49  1  0  0  0  0
 20 23  2  0  0  0  0
 20 51  1  0  0  0  0
 21 24  2  0  0  0  0
 21 52  1  0  0  0  0
 22 25  2  0  0  0  0
 22 53  1  0  0  0  0
 23 54  1  0  0  0  0
 24 25  1  0  0  0  0
 24 55  1  0  0  0  0
 26 27  1  0  0  0  0
 27 28  2  0  0  0  0
 27 31  1  0  0  0  0
 28 29  1  0  0  0  0
 28 56  1  0  0  0  0
 29 30  1  0  0  0  0
 29 33  2  0  0  0  0
 30 32  1  0  0  0  0
 30 34  2  0  0  0  0
 31 32  2  0  0  0  0
 31 57  1  0  0  0  0
 32 58  1  0  0  0  0
 33 35  1  0  0  0  0
 33 59  1  0  0  0  0
 34 36  1  0  0  0  0
 34 60  1  0  0  0  0
 35 36  2  0  0  0  0
 35 61  1  0  0  0  0
 36 62  1  0  0  0  0
M  END
> <PUBCHEM_COMPOUND_CID>
44415594

> <PUBCHEM_COMPOUND_CANONICALIZED>
1

> <PUBCHEM_CACTVS_COMPLEXITY>
814

> <PUBCHEM_CACTVS_HBOND_ACCEPTOR>
4

> <PUBCHEM_CACTVS_HBOND_DONOR>
1

> <PUBCHEM_CACTVS_ROTATABLE_BOND>
3

> <PUBCHEM_CACTVS_SUBSKEYS>
AAADceB7oAAEAAAAAAAAAAAAAAAAAAAAAAA8YMGCBAAAAADBVAAAHgIYAAAADArBmCQzwMNiAACoAidydACCBAElBwAbqAEodtgIYPLB35GUIQhggADIyYcYiMCOwABCAAISACCAAIQABCQAQAAAAAAAAA==

> <PUBCHEM_IUPAC_OPENEYE_NAME>
N-[3-chloro-6-(4-methylpiperazin-1-yl)benzo[b][1,4]benzodiazepin-11-yl]naphthalene-2-carboxamide

> <PUBCHEM_IUPAC_CAS_NAME>
N-[3-chloro-6-(4-methyl-1-piperazinyl)-11-benzo[b][1,4]benzodiazepinyl]-2-naphthalenecarboxamide

> <PUBCHEM_IUPAC_NAME_MARKUP>
<I>N</I>-[3-chloro-6-(4-methylpiperazin-1-yl)benzo[b][1,4]benzodiazepin-11-yl]naphthalene-2-carboxamide

> <PUBCHEM_IUPAC_NAME>
N-[3-chloro-6-(4-methylpiperazin-1-yl)benzo[b][1,4]benzodiazepin-11-yl]naphthalene-2-carboxamide

> <PUBCHEM_IUPAC_SYSTEMATIC_NAME>
N-[3-chloranyl-6-(4-methylpiperazin-1-yl)benzo[b][1,4]benzodiazepin-11-yl]naphthalene-2-carboxamide

> <PUBCHEM_IUPAC_TRADITIONAL_NAME>
N-[3-chloro-6-(4-methylpiperazino)benzo[b][1,4]benzodiazepin-11-yl]-2-naphthamide

> <PUBCHEM_IUPAC_INCHI>
InChI=1S/C29H26ClN5O/c1-33-14-16-34(17-15-33)28-24-8-4-5-9-26(24)35(27-13-12-23(30)19-25(27)31-28)32-29(36)22-11-10-20-6-2-3-7-21(20)18-22/h2-13,18-19H,14-17H2,1H3,(H,32,36)

> <PUBCHEM_IUPAC_INCHIKEY>
MZTMADWJIHWTJI-UHFFFAOYSA-N

> <PUBCHEM_XLOGP3_AA>
5.6

> <PUBCHEM_EXACT_MASS>
495.1825882

> <PUBCHEM_MOLECULAR_FORMULA>
C29H26ClN5O

> <PUBCHEM_MOLECULAR_WEIGHT>
496.0

> <PUBCHEM_OPENEYE_CAN_SMILES>
CN1CCN(CC1)C2=NC3=C(C=CC(=C3)Cl)N(C4=CC=CC=C42)NC(=O)C5=CC6=CC=CC=C6C=C5

> <PUBCHEM_OPENEYE_ISO_SMILES>
CN1CCN(CC1)C2=NC3=C(C=CC(=C3)Cl)N(C4=CC=CC=C42)NC(=O)C5=CC6=CC=CC=C6C=C5

> <PUBCHEM_CACTVS_TPSA>
51.2

> <PUBCHEM_MONOISOTOPIC_WEIGHT>
495.1825882

> <PUBCHEM_TOTAL_CHARGE>
0

> <PUBCHEM_HEAVY_ATOM_COUNT>
36

> <PUBCHEM_ATOM_DEF_STEREO_COUNT>
0

> <PUBCHEM_ATOM_UDEF_STEREO_COUNT>
0

> <PUBCHEM_BOND_DEF_STEREO_COUNT>
0

> <PUBCHEM_BOND_UDEF_STEREO_COUNT>
0

> <PUBCHEM_ISOTOPIC_ATOM_COUNT>
0

> <PUBCHEM_COMPONENT_COUNT>
1

> <PUBCHEM_CACTVS_TAUTO_COUNT>
-1

> <PUBCHEM_COORDINATE_TYPE>
1
5
255

> <PUBCHEM_BONDANNOTATIONS>
13  15  8
13  18  8
15  19  8
16  17  8
16  21  8
17  22  8
18  20  8
19  23  8
20  23  8
21  24  8
22  25  8
24  25  8
27  28  8
27  31  8
28  29  8
29  30  8
29  33  8
30  32  8
30  34  8
31  32  8
33  35  8
34  36  8
35  36  8

$$$$
