45271520
  -OEChem-09292322282D

 55 57  0     0  0  0  0  0  0999 V2000
    4.0000   -5.2055    0.0000 F   0  0  0  0  0  0  0  0  0  0  0  0
    3.0000   -6.2055    0.0000 F   0  0  0  0  0  0  0  0  0  0  0  0
    2.0000   -5.2055    0.0000 F   0  0  0  0  0  0  0  0  0  0  0  0
    6.4921   -0.9267    0.0000 O   0  0  0  0  0  0  0  0  0  0  0  0
    3.0000   -4.2055    0.0000 O   0  0  0  0  0  0  0  0  0  0  0  0
    6.0009    2.8649    0.0000 N   0  0  0  0  0  0  0  0  0  0  0  0
    7.1765    4.4830    0.0000 N   0  0  0  0  0  0  0  0  0  0  0  0
    5.2320    0.3333    0.0000 N   0  0  0  0  0  0  0  0  0  0  0  0
    4.7320   -1.2055    0.0000 N   0  0  0  0  0  0  0  0  0  0  0  0
    5.5942    3.7785    0.0000 C   0  0  0  0  0  0  0  0  0  0  0  0
    6.9954    2.7604    0.0000 C   0  0  0  0  0  0  0  0  0  0  0  0
    6.1819    4.5875    0.0000 C   0  0  0  0  0  0  0  0  0  0  0  0
    7.5832    3.5694    0.0000 C   0  0  0  0  0  0  0  0  0  0  0  0
    5.4131    2.0559    0.0000 C   0  0  0  0  0  0  0  0  0  0  0  0
    7.7642    5.2920    0.0000 C   0  0  0  0  0  0  0  0  0  0  0  0
    5.8198    1.1424    0.0000 C   0  0  0  0  0  0  0  0  0  0  0  0
    4.2320    0.3333    0.0000 C   0  0  0  0  0  0  0  0  0  0  0  0
    3.9230   -0.6177    0.0000 C   0  0  0  0  0  0  0  0  0  0  0  0
    5.5411   -0.6177    0.0000 C   0  0  0  0  0  0  0  0  0  0  0  0
    7.3575    6.2055    0.0000 C   0  0  0  0  0  0  0  0  0  0  0  0
    8.7588    5.1874    0.0000 C   0  0  0  0  0  0  0  0  0  0  0  0
    4.7320   -2.2055    0.0000 C   0  0  0  0  0  0  0  0  0  0  0  0
    3.8660   -2.7055    0.0000 C   0  0  0  0  0  0  0  0  0  0  0  0
    5.5981   -2.7055    0.0000 C   0  0  0  0  0  0  0  0  0  0  0  0
    3.8660   -3.7055    0.0000 C   0  0  0  0  0  0  0  0  0  0  0  0
    5.5981   -3.7055    0.0000 C   0  0  0  0  0  0  0  0  0  0  0  0
    4.7320   -4.2055    0.0000 C   0  0  0  0  0  0  0  0  0  0  0  0
    3.0000   -5.2055    0.0000 C   0  0  0  0  0  0  0  0  0  0  0  0
    5.1635    4.2244    0.0000 H   0  0  0  0  0  0  0  0  0  0  0  0
    5.0801    3.4318    0.0000 H   0  0  0  0  0  0  0  0  0  0  0  0
    6.8245    2.1644    0.0000 H   0  0  0  0  0  0  0  0  0  0  0  0
    7.5527    2.4886    0.0000 H   0  0  0  0  0  0  0  0  0  0  0  0
    6.3528    5.1835    0.0000 H   0  0  0  0  0  0  0  0  0  0  0  0
    5.6247    4.8593    0.0000 H   0  0  0  0  0  0  0  0  0  0  0  0
    8.0139    3.1234    0.0000 H   0  0  0  0  0  0  0  0  0  0  0  0
    8.0972    3.9161    0.0000 H   0  0  0  0  0  0  0  0  0  0  0  0
    4.9824    2.5019    0.0000 H   0  0  0  0  0  0  0  0  0  0  0  0
    4.8991    1.7092    0.0000 H   0  0  0  0  0  0  0  0  0  0  0  0
    8.1287    5.7936    0.0000 H   0  0  0  0  0  0  0  0  0  0  0  0
    6.2505    0.6964    0.0000 H   0  0  0  0  0  0  0  0  0  0  0  0
    6.3338    1.4890    0.0000 H   0  0  0  0  0  0  0  0  0  0  0  0
    4.2969    0.9499    0.0000 H   0  0  0  0  0  0  0  0  0  0  0  0
    3.6256    0.4622    0.0000 H   0  0  0  0  0  0  0  0  0  0  0  0
    3.3566   -0.3655    0.0000 H   0  0  0  0  0  0  0  0  0  0  0  0
    3.6130   -1.1547    0.0000 H   0  0  0  0  0  0  0  0  0  0  0  0
    7.9239    6.4577    0.0000 H   0  0  0  0  0  0  0  0  0  0  0  0
    7.1053    6.7719    0.0000 H   0  0  0  0  0  0  0  0  0  0  0  0
    6.7911    5.9533    0.0000 H   0  0  0  0  0  0  0  0  0  0  0  0
    8.6939    4.5708    0.0000 H   0  0  0  0  0  0  0  0  0  0  0  0
    9.3754    5.1226    0.0000 H   0  0  0  0  0  0  0  0  0  0  0  0
    8.8236    5.8040    0.0000 H   0  0  0  0  0  0  0  0  0  0  0  0
    3.3291   -2.3955    0.0000 H   0  0  0  0  0  0  0  0  0  0  0  0
    6.1350   -2.3955    0.0000 H   0  0  0  0  0  0  0  0  0  0  0  0
    6.1350   -4.0155    0.0000 H   0  0  0  0  0  0  0  0  0  0  0  0
    4.7320   -4.8255    0.0000 H   0  0  0  0  0  0  0  0  0  0  0  0
  1 28  1  0  0  0  0
  2 28  1  0  0  0  0
  3 28  1  0  0  0  0
  4 19  2  0  0  0  0
  5 25  1  0  0  0  0
  5 28  1  0  0  0  0
  6 10  1  0  0  0  0
  6 11  1  0  0  0  0
  6 14  1  0  0  0  0
  7 12  1  0  0  0  0
  7 13  1  0  0  0  0
  7 15  1  0  0  0  0
  8 16  1  0  0  0  0
  8 17  1  0  0  0  0
  8 19  1  0  0  0  0
  9 18  1  0  0  0  0
  9 19  1  0  0  0  0
  9 22  1  0  0  0  0
 10 12  1  0  0  0  0
 10 29  1  0  0  0  0
 10 30  1  0  0  0  0
 11 13  1  0  0  0  0
 11 31  1  0  0  0  0
 11 32  1  0  0  0  0
 12 33  1  0  0  0  0
 12 34  1  0  0  0  0
 13 35  1  0  0  0  0
 13 36  1  0  0  0  0
 14 16  1  0  0  0  0
 14 37  1  0  0  0  0
 14 38  1  0  0  0  0
 15 20  1  0  0  0  0
 15 21  1  0  0  0  0
 15 39  1  0  0  0  0
 16 40  1  0  0  0  0
 16 41  1  0  0  0  0
 17 18  1  0  0  0  0
 17 42  1  0  0  0  0
 17 43  1  0  0  0  0
 18 44  1  0  0  0  0
 18 45  1  0  0  0  0
 20 46  1  0  0  0  0
 20 47  1  0  0  0  0
 20 48  1  0  0  0  0
 21 49  1  0  0  0  0
 21 50  1  0  0  0  0
 21 51  1  0  0  0  0
 22 23  2  0  0  0  0
 22 24  1  0  0  0  0
 23 25  1  0  0  0  0
 23 52  1  0  0  0  0
 24 26  2  0  0  0  0
 24 53  1  0  0  0  0
 25 27  2  0  0  0  0
 26 27  1  0  0  0  0
 26 54  1  0  0  0  0
 27 55  1  0  0  0  0
M  END
> <PUBCHEM_COMPOUND_CID>
45271520

> <PUBCHEM_COMPOUND_CANONICALIZED>
1

> <PUBCHEM_CACTVS_COMPLEXITY>
524

> <PUBCHEM_CACTVS_HBOND_ACCEPTOR>
7

> <PUBCHEM_CACTVS_HBOND_DONOR>
0

> <PUBCHEM_CACTVS_ROTATABLE_BOND>
6

> <PUBCHEM_CACTVS_SUBSKEYS>
AAADceB7sYAAAAAAAAAAAAAAAAAAAWAAAAA8QAAAAAAAAAABAAAAHwAAAAAACCzBkBQzxoMABACIACRCUACCCAAhIgAIiAAObIiMZiLEsZuUMChuxhvI6CeQUAMAAAAAAgAAAAAAAAAEAAAAAAAAAAAAAA==

> <PUBCHEM_IUPAC_OPENEYE_NAME>
1-[2-(4-isopropylpiperazin-1-yl)ethyl]-3-[3-(trifluoromethoxy)phenyl]imidazolidin-2-one

> <PUBCHEM_IUPAC_CAS_NAME>
1-[2-(4-propan-2-yl-1-piperazinyl)ethyl]-3-[3-(trifluoromethoxy)phenyl]-2-imidazolidinone

> <PUBCHEM_IUPAC_NAME_MARKUP>
1-[2-(4-propan-2-ylpiperazin-1-yl)ethyl]-3-[3-(trifluoromethoxy)phenyl]imidazolidin-2-one

> <PUBCHEM_IUPAC_NAME>
1-[2-(4-propan-2-ylpiperazin-1-yl)ethyl]-3-[3-(trifluoromethoxy)phenyl]imidazolidin-2-one

> <PUBCHEM_IUPAC_SYSTEMATIC_NAME>
1-[2-(4-propan-2-ylpiperazin-1-yl)ethyl]-3-[3-(trifluoromethyloxy)phenyl]imidazolidin-2-one

> <PUBCHEM_IUPAC_TRADITIONAL_NAME>
1-[2-(4-isopropylpiperazino)ethyl]-3-[3-(trifluoromethoxy)phenyl]-2-imidazolidinone

> <PUBCHEM_IUPAC_INCHI>
InChI=1S/C19H27F3N4O2/c1-15(2)24-9-6-23(7-10-24)8-11-25-12-13-26(18(25)27)16-4-3-5-17(14-16)28-19(20,21)22/h3-5,14-15H,6-13H2,1-2H3

> <PUBCHEM_IUPAC_INCHIKEY>
GNQOCBGVODGUEX-UHFFFAOYSA-N

> <PUBCHEM_XLOGP3_AA>
2.9

> <PUBCHEM_EXACT_MASS>
400.20861060

> <PUBCHEM_MOLECULAR_FORMULA>
C19H27F3N4O2

> <PUBCHEM_MOLECULAR_WEIGHT>
400.4

> <PUBCHEM_OPENEYE_CAN_SMILES>
CC(C)N1CCN(CC1)CCN2CCN(C2=O)C3=CC(=CC=C3)OC(F)(F)F

> <PUBCHEM_OPENEYE_ISO_SMILES>
CC(C)N1CCN(CC1)CCN2CCN(C2=O)C3=CC(=CC=C3)OC(F)(F)F

> <PUBCHEM_CACTVS_TPSA>
39.3

> <PUBCHEM_MONOISOTOPIC_WEIGHT>
400.20861060

> <PUBCHEM_TOTAL_CHARGE>
0

> <PUBCHEM_HEAVY_ATOM_COUNT>
28

> <PUBCHEM_ATOM_DEF_STEREO_COUNT>
0

> <PUBCHEM_ATOM_UDEF_STEREO_COUNT>
0

> <PUBCHEM_BOND_DEF_STEREO_COUNT>
0

> <PUBCHEM_BOND_UDEF_STEREO_COUNT>
0

> <PUBCHEM_ISOTOPIC_ATOM_COUNT>
0

> <PUBCHEM_COMPONENT_COUNT>
1

> <PUBCHEM_CACTVS_TAUTO_COUNT>
-1

> <PUBCHEM_COORDINATE_TYPE>
1
5
255

> <PUBCHEM_BONDANNOTATIONS>
22  23  8
22  24  8
23  25  8
24  26  8
25  27  8
26  27  8

$$$$
