44350824
  -OEChem-09292322122D

 74 77  0     0  0  0  0  0  0999 V2000
    1.4030    3.6200    0.0000 O   0  0  0  0  0  0  0  0  0  0  0  0
   10.9292    1.1200    0.0000 O   0  0  0  0  0  0  0  0  0  0  0  0
    9.2306    7.7841    0.0000 O   0  0  0  0  0  0  0  0  0  0  0  0
    6.6325    8.2841    0.0000 O   0  0  0  0  0  0  0  0  0  0  0  0
    8.3645    9.2841    0.0000 O   0  0  0  0  0  0  0  0  0  0  0  0
    7.4985    6.7841    0.0000 O   0  0  0  0  0  0  0  0  0  0  0  0
    4.8671    3.6200    0.0000 N   0  0  0  0  0  0  0  0  0  0  0  0
    3.1350    2.6200    0.0000 N   0  0  0  0  0  0  0  0  0  0  0  0
   10.0632    2.6200    0.0000 N   0  0  0  0  0  0  0  0  0  0  0  0
    4.0010    4.1200    0.0000 C   0  0  0  0  0  0  0  0  0  0  0  0
    4.8671    2.6200    0.0000 C   0  0  0  0  0  0  0  0  0  0  0  0
    3.1350    3.6200    0.0000 C   0  0  0  0  0  0  0  0  0  0  0  0
    4.0010    2.1200    0.0000 C   0  0  0  0  0  0  0  0  0  0  0  0
    5.7331    4.1200    0.0000 C   0  0  0  0  0  0  0  0  0  0  0  0
    2.2690    2.1200    0.0000 C   0  0  0  0  0  0  0  0  0  0  0  0
    6.5991    3.6200    0.0000 C   0  0  0  0  0  0  0  0  0  0  0  0
    1.4030    2.6200    0.0000 C   0  0  0  0  0  0  0  0  0  0  0  0
    2.2690    1.1200    0.0000 C   0  0  0  0  0  0  0  0  0  0  0  0
    6.5991    2.6200    0.0000 C   0  0  0  0  0  0  0  0  0  0  0  0
    7.4651    4.1200    0.0000 C   0  0  0  0  0  0  0  0  0  0  0  0
    0.5369    2.1200    0.0000 C   0  0  0  0  0  0  0  0  0  0  0  0
    8.3312    2.6200    0.0000 C   0  0  0  0  0  0  0  0  0  0  0  0
    1.4030    0.6200    0.0000 C   0  0  0  0  0  0  0  0  0  0  0  0
    7.4651    2.1200    0.0000 C   0  0  0  0  0  0  0  0  0  0  0  0
    8.3312    3.6200    0.0000 C   0  0  0  0  0  0  0  0  0  0  0  0
    0.5369    1.1200    0.0000 C   0  0  0  0  0  0  0  0  0  0  0  0
    9.1972    2.1200    0.0000 C   0  0  0  0  0  0  0  0  0  0  0  0
    0.5369    4.1200    0.0000 C   0  0  0  0  0  0  0  0  0  0  0  0
   10.9292    2.1200    0.0000 C   0  0  0  0  0  0  0  0  0  0  0  0
   11.7953    2.6200    0.0000 C   0  0  0  0  0  0  0  0  0  0  0  0
   13.5273    2.6200    0.0000 C   0  0  0  0  0  0  0  0  0  0  0  0
   12.6613    2.1200    0.0000 C   0  0  0  0  0  0  0  0  0  0  0  0
   13.5273    3.6200    0.0000 C   0  0  0  0  0  0  0  0  0  0  0  0
   11.7953    3.6200    0.0000 C   0  0  0  0  0  0  0  0  0  0  0  0
   12.6613    4.1200    0.0000 C   0  0  0  0  0  0  0  0  0  0  0  0
   14.4213    2.0853    0.0000 C   0  0  0  0  0  0  0  0  0  0  0  0
   14.4213    4.1547    0.0000 C   0  0  0  0  0  0  0  0  0  0  0  0
   15.3273    2.5992    0.0000 C   0  0  0  0  0  0  0  0  0  0  0  0
   15.3273    3.6408    0.0000 C   0  0  0  0  0  0  0  0  0  0  0  0
    8.3645    8.2841    0.0000 C   0  0  0  0  0  0  0  0  0  0  0  0
    7.4985    7.7841    0.0000 C   0  0  0  0  0  0  0  0  0  0  0  0
    4.3996    4.5950    0.0000 H   0  0  0  0  0  0  0  0  0  0  0  0
    3.6025    4.5950    0.0000 H   0  0  0  0  0  0  0  0  0  0  0  0
    5.0791    2.0374    0.0000 H   0  0  0  0  0  0  0  0  0  0  0  0
    5.4776    2.7277    0.0000 H   0  0  0  0  0  0  0  0  0  0  0  0
    2.9230    4.2026    0.0000 H   0  0  0  0  0  0  0  0  0  0  0  0
    2.5244    3.5123    0.0000 H   0  0  0  0  0  0  0  0  0  0  0  0
    3.6025    1.6450    0.0000 H   0  0  0  0  0  0  0  0  0  0  0  0
    4.3996    1.6450    0.0000 H   0  0  0  0  0  0  0  0  0  0  0  0
    6.1316    4.5950    0.0000 H   0  0  0  0  0  0  0  0  0  0  0  0
    5.3346    4.5950    0.0000 H   0  0  0  0  0  0  0  0  0  0  0  0
    2.8059    0.8100    0.0000 H   0  0  0  0  0  0  0  0  0  0  0  0
    6.0622    2.3100    0.0000 H   0  0  0  0  0  0  0  0  0  0  0  0
    7.4651    4.7400    0.0000 H   0  0  0  0  0  0  0  0  0  0  0  0
    0.0000    2.4300    0.0000 H   0  0  0  0  0  0  0  0  0  0  0  0
    1.4030    0.0000    0.0000 H   0  0  0  0  0  0  0  0  0  0  0  0
    7.4651    1.5000    0.0000 H   0  0  0  0  0  0  0  0  0  0  0  0
    8.8681    3.9300    0.0000 H   0  0  0  0  0  0  0  0  0  0  0  0
    0.0000    0.8100    0.0000 H   0  0  0  0  0  0  0  0  0  0  0  0
    8.7987    1.6450    0.0000 H   0  0  0  0  0  0  0  0  0  0  0  0
    9.5957    1.6450    0.0000 H   0  0  0  0  0  0  0  0  0  0  0  0
   10.0632    3.2400    0.0000 H   0  0  0  0  0  0  0  0  0  0  0  0
    0.8469    4.6569    0.0000 H   0  0  0  0  0  0  0  0  0  0  0  0
    0.0000    4.4300    0.0000 H   0  0  0  0  0  0  0  0  0  0  0  0
    0.2269    3.5831    0.0000 H   0  0  0  0  0  0  0  0  0  0  0  0
   12.6613    1.5000    0.0000 H   0  0  0  0  0  0  0  0  0  0  0  0
   11.2583    3.9300    0.0000 H   0  0  0  0  0  0  0  0  0  0  0  0
   12.6613    4.7400    0.0000 H   0  0  0  0  0  0  0  0  0  0  0  0
   14.4141    1.4654    0.0000 H   0  0  0  0  0  0  0  0  0  0  0  0
   14.4141    4.7746    0.0000 H   0  0  0  0  0  0  0  0  0  0  0  0
   15.8631    2.2871    0.0000 H   0  0  0  0  0  0  0  0  0  0  0  0
   15.8631    3.9529    0.0000 H   0  0  0  0  0  0  0  0  0  0  0  0
    9.7675    8.0941    0.0000 H   0  0  0  0  0  0  0  0  0  0  0  0
    6.0956    7.9741    0.0000 H   0  0  0  0  0  0  0  0  0  0  0  0
  1 17  1  0  0  0  0
  1 28  1  0  0  0  0
  2 29  2  0  0  0  0
  3 40  1  0  0  0  0
  3 73  1  0  0  0  0
  4 41  1  0  0  0  0
  4 74  1  0  0  0  0
  5 40  2  0  0  0  0
  6 41  2  0  0  0  0
  7 10  1  0  0  0  0
  7 11  1  0  0  0  0
  7 14  1  0  0  0  0
  8 12  1  0  0  0  0
  8 13  1  0  0  0  0
  8 15  1  0  0  0  0
  9 27  1  0  0  0  0
  9 29  1  0  0  0  0
  9 62  1  0  0  0  0
 10 12  1  0  0  0  0
 10 42  1  0  0  0  0
 10 43  1  0  0  0  0
 11 13  1  0  0  0  0
 11 44  1  0  0  0  0
 11 45  1  0  0  0  0
 12 46  1  0  0  0  0
 12 47  1  0  0  0  0
 13 48  1  0  0  0  0
 13 49  1  0  0  0  0
 14 16  1  0  0  0  0
 14 50  1  0  0  0  0
 14 51  1  0  0  0  0
 15 17  1  0  0  0  0
 15 18  2  0  0  0  0
 16 19  2  0  0  0  0
 16 20  1  0  0  0  0
 17 21  2  0  0  0  0
 18 23  1  0  0  0  0
 18 52  1  0  0  0  0
 19 24  1  0  0  0  0
 19 53  1  0  0  0  0
 20 25  2  0  0  0  0
 20 54  1  0  0  0  0
 21 26  1  0  0  0  0
 21 55  1  0  0  0  0
 22 24  2  0  0  0  0
 22 25  1  0  0  0  0
 22 27  1  0  0  0  0
 23 26  2  0  0  0  0
 23 56  1  0  0  0  0
 24 57  1  0  0  0  0
 25 58  1  0  0  0  0
 26 59  1  0  0  0  0
 27 60  1  0  0  0  0
 27 61  1  0  0  0  0
 28 63  1  0  0  0  0
 28 64  1  0  0  0  0
 28 65  1  0  0  0  0
 29 30  1  0  0  0  0
 30 32  2  0  0  0  0
 30 34  1  0  0  0  0
 31 32  1  0  0  0  0
 31 33  1  0  0  0  0
 31 36  2  0  0  0  0
 32 66  1  0  0  0  0
 33 35  1  0  0  0  0
 33 37  2  0  0  0  0
 34 35  2  0  0  0  0
 34 67  1  0  0  0  0
 35 68  1  0  0  0  0
 36 38  1  0  0  0  0
 36 69  1  0  0  0  0
 37 39  1  0  0  0  0
 37 70  1  0  0  0  0
 38 39  2  0  0  0  0
 38 71  1  0  0  0  0
 39 72  1  0  0  0  0
 40 41  1  0  0  0  0
M  END
> <PUBCHEM_COMPOUND_CID>
44350824

> <PUBCHEM_COMPOUND_CANONICALIZED>
1

> <PUBCHEM_CACTVS_COMPLEXITY>
728

> <PUBCHEM_CACTVS_HBOND_ACCEPTOR>
8

> <PUBCHEM_CACTVS_HBOND_DONOR>
3

> <PUBCHEM_CACTVS_ROTATABLE_BOND>
8

> <PUBCHEM_CACTVS_SUBSKEYS>
AAADcfB/OAAAAAAAAAAAAAAAAAAAAAAAAAA8YMGCAAAAAADBVAAAHgAQCAAADAzBmAYyzsPABgCIAiXSWAKCCAAlIgAIiIFPbMgPZjLEtZuVMShkxhHZ6YeYyMCOwAACAAAQEACAAAQAACAgAAAAAAAAAA==

> <PUBCHEM_IUPAC_OPENEYE_NAME>
N-[[4-[[4-(2-methoxyphenyl)piperazin-1-yl]methyl]phenyl]methyl]naphthalene-2-carboxamide;oxalic acid

> <PUBCHEM_IUPAC_CAS_NAME>
N-[[4-[[4-(2-methoxyphenyl)-1-piperazinyl]methyl]phenyl]methyl]-2-naphthalenecarboxamide;oxalic acid

> <PUBCHEM_IUPAC_NAME_MARKUP>
<I>N</I>-[[4-[[4-(2-methoxyphenyl)piperazin-1-yl]methyl]phenyl]methyl]naphthalene-2-carboxamide;oxalic acid

> <PUBCHEM_IUPAC_NAME>
N-[[4-[[4-(2-methoxyphenyl)piperazin-1-yl]methyl]phenyl]methyl]naphthalene-2-carboxamide;oxalic acid

> <PUBCHEM_IUPAC_SYSTEMATIC_NAME>
ethanedioic acid;N-[[4-[[4-(2-methoxyphenyl)piperazin-1-yl]methyl]phenyl]methyl]naphthalene-2-carboxamide

> <PUBCHEM_IUPAC_TRADITIONAL_NAME>
N-[4-[[4-(2-methoxyphenyl)piperazino]methyl]benzyl]-2-naphthamide;oxalic acid

> <PUBCHEM_IUPAC_INCHI>
InChI=1S/C30H31N3O2.C2H2O4/c1-35-29-9-5-4-8-28(29)33-18-16-32(17-19-33)22-24-12-10-23(11-13-24)21-31-30(34)27-15-14-25-6-2-3-7-26(25)20-27;3-1(4)2(5)6/h2-15,20H,16-19,21-22H2,1H3,(H,31,34);(H,3,4)(H,5,6)

> <PUBCHEM_IUPAC_INCHIKEY>
VJSUYGBKMQLAAU-UHFFFAOYSA-N

> <PUBCHEM_EXACT_MASS>
555.23693578

> <PUBCHEM_MOLECULAR_FORMULA>
C32H33N3O6

> <PUBCHEM_MOLECULAR_WEIGHT>
555.6

> <PUBCHEM_OPENEYE_CAN_SMILES>
COC1=CC=CC=C1N2CCN(CC2)CC3=CC=C(C=C3)CNC(=O)C4=CC5=CC=CC=C5C=C4.C(=O)(C(=O)O)O

> <PUBCHEM_OPENEYE_ISO_SMILES>
COC1=CC=CC=C1N2CCN(CC2)CC3=CC=C(C=C3)CNC(=O)C4=CC5=CC=CC=C5C=C4.C(=O)(C(=O)O)O

> <PUBCHEM_CACTVS_TPSA>
119

> <PUBCHEM_MONOISOTOPIC_WEIGHT>
555.23693578

> <PUBCHEM_TOTAL_CHARGE>
0

> <PUBCHEM_HEAVY_ATOM_COUNT>
41

> <PUBCHEM_ATOM_DEF_STEREO_COUNT>
0

> <PUBCHEM_ATOM_UDEF_STEREO_COUNT>
0

> <PUBCHEM_BOND_DEF_STEREO_COUNT>
0

> <PUBCHEM_BOND_UDEF_STEREO_COUNT>
0

> <PUBCHEM_ISOTOPIC_ATOM_COUNT>
0

> <PUBCHEM_COMPONENT_COUNT>
2

> <PUBCHEM_CACTVS_TAUTO_COUNT>
-1

> <PUBCHEM_COORDINATE_TYPE>
1
5
255

> <PUBCHEM_BONDANNOTATIONS>
15  17  8
15  18  8
16  19  8
16  20  8
17  21  8
18  23  8
19  24  8
20  25  8
21  26  8
22  24  8
22  25  8
23  26  8
30  32  8
30  34  8
31  32  8
31  33  8
31  36  8
33  35  8
33  37  8
34  35  8
36  38  8
37  39  8
38  39  8

$$$$
