15061351
  -OEChem-09292322062D

 48 52  0     1  0  0  0  0  0999 V2000
    9.3729   -3.5309    0.0000 O   0  0  0  0  0  0  0  0  0  0  0  0
   10.8248   -2.6926    0.0000 O   0  0  0  0  0  0  0  0  0  0  0  0
    4.6874    2.1283    0.0000 O   0  0  0  0  0  0  0  0  0  0  0  0
    2.8680    1.0965    0.0000 O   0  0  0  0  0  0  0  0  0  0  0  0
    2.9554    2.1484    0.0000 O   0  0  0  0  0  0  0  0  0  0  0  0
    7.4070    0.5506    0.0000 N   0  0  3  0  0  0  0  0  0  0  0  0
    7.4070   -0.4494    0.0000 C   0  0  3  0  0  0  0  0  0  0  0  0
    6.5130   -0.9840    0.0000 C   0  0  0  0  0  0  0  0  0  0  0  0
    8.2730   -0.9494    0.0000 C   0  0  0  0  0  0  0  0  0  0  0  0
    8.2730    1.0506    0.0000 C   0  0  0  0  0  0  0  0  0  0  0  0
    6.5130    1.0853    0.0000 C   0  0  0  0  0  0  0  0  0  0  0  0
    9.1390    0.5506    0.0000 C   0  0  0  0  0  0  0  0  0  0  0  0
    9.1390   -0.4494    0.0000 C   0  0  0  0  0  0  0  0  0  0  0  0
    5.6070   -0.4702    0.0000 C   0  0  0  0  0  0  0  0  0  0  0  0
    5.6070    0.5715    0.0000 C   0  0  0  0  0  0  0  0  0  0  0  0
    8.2570   -1.9909    0.0000 C   0  0  0  0  0  0  0  0  0  0  0  0
   10.0490   -0.9562    0.0000 C   0  0  0  0  0  0  0  0  0  0  0  0
    4.6758    1.1284    0.0000 C   0  0  0  0  0  0  0  0  0  0  0  0
    4.6758   -1.0271    0.0000 C   0  0  0  0  0  0  0  0  0  0  0  0
    9.1550   -2.5186    0.0000 C   0  0  0  0  0  0  0  0  0  0  0  0
   10.0571   -1.9978    0.0000 C   0  0  0  0  0  0  0  0  0  0  0  0
    3.7320    0.5931    0.0000 C   0  0  0  0  0  0  0  0  0  0  0  0
    3.7320   -0.4918    0.0000 C   0  0  0  0  0  0  0  0  0  0  0  0
   10.4028   -3.6382    0.0000 C   0  0  0  0  0  0  0  0  0  0  0  0
    3.8272    2.6383    0.0000 C   0  0  0  0  0  0  0  0  0  0  0  0
    2.0000    0.5998    0.0000 C   0  0  0  0  0  0  0  0  0  0  0  0
    3.8388    3.6382    0.0000 C   0  0  0  0  0  0  0  0  0  0  0  0
    7.4118   -1.0693    0.0000 H   0  0  0  0  0  0  0  0  0  0  0  0
    6.1194   -1.4630    0.0000 H   0  0  0  0  0  0  0  0  0  0  0  0
    6.9176   -1.4538    0.0000 H   0  0  0  0  0  0  0  0  0  0  0  0
    8.6716    1.5256    0.0000 H   0  0  0  0  0  0  0  0  0  0  0  0
    7.8745    1.5256    0.0000 H   0  0  0  0  0  0  0  0  0  0  0  0
    6.9176    1.5551    0.0000 H   0  0  0  0  0  0  0  0  0  0  0  0
    6.1194    1.5643    0.0000 H   0  0  0  0  0  0  0  0  0  0  0  0
    9.7496    0.4430    0.0000 H   0  0  0  0  0  0  0  0  0  0  0  0
    9.3511    1.1333    0.0000 H   0  0  0  0  0  0  0  0  0  0  0  0
    7.7165   -2.2946    0.0000 H   0  0  0  0  0  0  0  0  0  0  0  0
   10.5824   -0.6400    0.0000 H   0  0  0  0  0  0  0  0  0  0  0  0
    4.6830   -1.6470    0.0000 H   0  0  0  0  0  0  0  0  0  0  0  0
    3.1963   -0.8039    0.0000 H   0  0  0  0  0  0  0  0  0  0  0  0
   10.2741   -4.2447    0.0000 H   0  0  0  0  0  0  0  0  0  0  0  0
   10.9924   -3.8300    0.0000 H   0  0  0  0  0  0  0  0  0  0  0  0
    1.6921    1.1380    0.0000 H   0  0  0  0  0  0  0  0  0  0  0  0
    1.4619    0.2919    0.0000 H   0  0  0  0  0  0  0  0  0  0  0  0
    2.3079    0.0617    0.0000 H   0  0  0  0  0  0  0  0  0  0  0  0
    4.4587    3.6311    0.0000 H   0  0  0  0  0  0  0  0  0  0  0  0
    3.8459    4.2582    0.0000 H   0  0  0  0  0  0  0  0  0  0  0  0
    3.2188    3.6454    0.0000 H   0  0  0  0  0  0  0  0  0  0  0  0
  1 20  1  0  0  0  0
  1 24  1  0  0  0  0
  2 21  1  0  0  0  0
  2 24  1  0  0  0  0
  3 18  1  0  0  0  0
  3 25  1  0  0  0  0
  4 22  1  0  0  0  0
  4 26  1  0  0  0  0
  5 25  2  0  0  0  0
  6  7  1  0  0  0  0
  6 10  1  0  0  0  0
  6 11  1  0  0  0  0
  7  8  1  0  0  0  0
  7  9  1  0  0  0  0
  7 28  1  0  0  0  0
  8 14  1  0  0  0  0
  8 29  1  0  0  0  0
  8 30  1  0  0  0  0
  9 13  1  0  0  0  0
  9 16  2  0  0  0  0
 10 12  1  0  0  0  0
 10 31  1  0  0  0  0
 10 32  1  0  0  0  0
 11 15  1  0  0  0  0
 11 33  1  0  0  0  0
 11 34  1  0  0  0  0
 12 13  1  0  0  0  0
 12 35  1  0  0  0  0
 12 36  1  0  0  0  0
 13 17  2  0  0  0  0
 14 15  2  0  0  0  0
 14 19  1  0  0  0  0
 15 18  1  0  0  0  0
 16 20  1  0  0  0  0
 16 37  1  0  0  0  0
 17 21  1  0  0  0  0
 17 38  1  0  0  0  0
 18 22  2  0  0  0  0
 19 23  2  0  0  0  0
 19 39  1  0  0  0  0
 20 21  2  0  0  0  0
 22 23  1  0  0  0  0
 23 40  1  0  0  0  0
 24 41  1  0  0  0  0
 24 42  1  0  0  0  0
 25 27  1  0  0  0  0
 26 43  1  0  0  0  0
 26 44  1  0  0  0  0
 26 45  1  0  0  0  0
 27 46  1  0  0  0  0
 27 47  1  0  0  0  0
 27 48  1  0  0  0  0
M  END
> <PUBCHEM_COMPOUND_CID>
15061351

> <PUBCHEM_COMPOUND_CANONICALIZED>
1

> <PUBCHEM_CACTVS_COMPLEXITY>
571

> <PUBCHEM_CACTVS_HBOND_ACCEPTOR>
6

> <PUBCHEM_CACTVS_HBOND_DONOR>
0

> <PUBCHEM_CACTVS_ROTATABLE_BOND>
3

> <PUBCHEM_CACTVS_SUBSKEYS>
AAADceB6OAAAAAAAAAAAAAAAAAAAASAAAAA8eIEAAAAAAEixQAAAHgAAAAAADCzBmAcyDoMABACIAiDSCACCCAAgIAAIiAAOjIgdJiKEsRumOirmwBGOqAew0PMOoAABAAAYQABAAAIAADCAAAAAAAAAAA==

> <PUBCHEM_IUPAC_OPENEYE_NAME>
(17-methoxy-5,7-dioxa-13-azapentacyclo[11.8.0.02,10.04,8.015,20]henicosa-2,4(8),9,15(20),16,18-hexaen-16-yl) acetate

> <PUBCHEM_IUPAC_CAS_NAME>
acetic acid (17-methoxy-5,7-dioxa-13-azapentacyclo[11.8.0.02,10.04,8.015,20]heneicosa-2,4(8),9,15(20),16,18-hexaen-16-yl) ester

> <PUBCHEM_IUPAC_NAME_MARKUP>
(17-methoxy-5,7-dioxa-13-azapentacyclo[11.8.0.0<SUP>2,10</SUP>.0<SUP>4,8</SUP>.0<SUP>15,20</SUP>]henicosa-2,4(8),9,15(20),16,18-hexaen-16-yl) acetate

> <PUBCHEM_IUPAC_NAME>
(17-methoxy-5,7-dioxa-13-azapentacyclo[11.8.0.02,10.04,8.015,20]henicosa-2,4(8),9,15(20),16,18-hexaen-16-yl) acetate

> <PUBCHEM_IUPAC_SYSTEMATIC_NAME>
(17-methoxy-5,7-dioxa-13-azapentacyclo[11.8.0.02,10.04,8.015,20]henicosa-2,4(8),9,15(20),16,18-hexaen-16-yl) ethanoate

> <PUBCHEM_IUPAC_TRADITIONAL_NAME>
acetic acid (17-methoxy-5,7-dioxa-13-azapentacyclo[11.8.0.02,10.04,8.015,20]heneicosa-2,4(8),9,15(20),16,18-hexaen-16-yl) ester

> <PUBCHEM_IUPAC_INCHI>
InChI=1S/C21H21NO5/c1-12(23)27-21-16-10-22-6-5-14-8-19-20(26-11-25-19)9-15(14)17(22)7-13(16)3-4-18(21)24-2/h3-4,8-9,17H,5-7,10-11H2,1-2H3

> <PUBCHEM_IUPAC_INCHIKEY>
GLRJJXPRWYHFGP-UHFFFAOYSA-N

> <PUBCHEM_XLOGP3_AA>
2.9

> <PUBCHEM_EXACT_MASS>
367.14197277

> <PUBCHEM_MOLECULAR_FORMULA>
C21H21NO5

> <PUBCHEM_MOLECULAR_WEIGHT>
367.4

> <PUBCHEM_OPENEYE_CAN_SMILES>
CC(=O)OC1=C(C=CC2=C1CN3CCC4=CC5=C(C=C4C3C2)OCO5)OC

> <PUBCHEM_OPENEYE_ISO_SMILES>
CC(=O)OC1=C(C=CC2=C1CN3CCC4=CC5=C(C=C4C3C2)OCO5)OC

> <PUBCHEM_CACTVS_TPSA>
57.2

> <PUBCHEM_MONOISOTOPIC_WEIGHT>
367.14197277

> <PUBCHEM_TOTAL_CHARGE>
0

> <PUBCHEM_HEAVY_ATOM_COUNT>
27

> <PUBCHEM_ATOM_DEF_STEREO_COUNT>
0

> <PUBCHEM_ATOM_UDEF_STEREO_COUNT>
1

> <PUBCHEM_BOND_DEF_STEREO_COUNT>
0

> <PUBCHEM_BOND_UDEF_STEREO_COUNT>
0

> <PUBCHEM_ISOTOPIC_ATOM_COUNT>
0

> <PUBCHEM_COMPONENT_COUNT>
1

> <PUBCHEM_CACTVS_TAUTO_COUNT>
-1

> <PUBCHEM_COORDINATE_TYPE>
1
5
255

> <PUBCHEM_BONDANNOTATIONS>
13  17  8
14  15  8
14  19  8
15  18  8
16  20  8
17  21  8
18  22  8
19  23  8
20  21  8
22  23  8
7  8  3
9  13  8
9  16  8

$$$$
