44324052
  -OEChem-09292322152D

 46 48  0     1  0  0  0  0  0999 V2000
    8.7619   -3.8715    0.0000 F   0  0  0  0  0  0  0  0  0  0  0  0
    9.1279   -2.5055    0.0000 F   0  0  0  0  0  0  0  0  0  0  0  0
    7.3958   -3.5055    0.0000 F   0  0  0  0  0  0  0  0  0  0  0  0
    4.6783   -2.0781    0.0000 N   0  0  0  0  0  0  0  0  0  0  0  0
    4.6318    2.1767    0.0000 N   0  0  3  0  0  0  0  0  0  0  0  0
    4.6783   -0.4687    0.0000 C   0  0  0  0  0  0  0  0  0  0  0  0
    4.9889    0.4818    0.0000 C   0  0  0  0  0  0  0  0  0  0  0  0
    5.2619   -1.2734    0.0000 C   0  0  0  0  0  0  0  0  0  0  0  0
    3.7320   -0.7734    0.0000 C   0  0  0  0  0  0  0  0  0  0  0  0
    4.3211    1.2261    0.0000 C   0  0  0  0  0  0  0  0  0  0  0  0
    3.7320   -1.7734    0.0000 C   0  0  0  0  0  0  0  0  0  0  0  0
    6.2619   -1.2734    0.0000 C   0  0  0  0  0  0  0  0  0  0  0  0
    2.8660   -0.2734    0.0000 C   0  0  0  0  0  0  0  0  0  0  0  0
    3.9639    2.9210    0.0000 C   0  0  0  0  0  0  0  0  0  0  0  0
    2.8660   -2.2734    0.0000 C   0  0  0  0  0  0  0  0  0  0  0  0
    6.7619   -2.1394    0.0000 C   0  0  0  0  0  0  0  0  0  0  0  0
    5.6103    2.3829    0.0000 C   0  0  0  0  0  0  0  0  0  0  0  0
    6.7619   -0.4074    0.0000 C   0  0  0  0  0  0  0  0  0  0  0  0
    2.0000   -0.7734    0.0000 C   0  0  0  0  0  0  0  0  0  0  0  0
    2.0000   -1.7734    0.0000 C   0  0  0  0  0  0  0  0  0  0  0  0
    7.7619   -2.1394    0.0000 C   0  0  0  0  0  0  0  0  0  0  0  0
    4.2746    3.8715    0.0000 C   0  0  0  0  0  0  0  0  0  0  0  0
    7.7619   -0.4074    0.0000 C   0  0  0  0  0  0  0  0  0  0  0  0
    8.2619   -1.2734    0.0000 C   0  0  0  0  0  0  0  0  0  0  0  0
    8.2619   -3.0055    0.0000 C   0  0  0  0  0  0  0  0  0  0  0  0
    5.5359    0.1898    0.0000 H   0  0  0  0  0  0  0  0  0  0  0  0
    5.3715    0.9697    0.0000 H   0  0  0  0  0  0  0  0  0  0  0  0
    3.7742    1.5182    0.0000 H   0  0  0  0  0  0  0  0  0  0  0  0
    3.9385    0.7382    0.0000 H   0  0  0  0  0  0  0  0  0  0  0  0
    4.8709   -2.6675    0.0000 H   0  0  0  0  0  0  0  0  0  0  0  0
    2.8660    0.3466    0.0000 H   0  0  0  0  0  0  0  0  0  0  0  0
    3.4170    3.2130    0.0000 H   0  0  0  0  0  0  0  0  0  0  0  0
    3.5814    2.4331    0.0000 H   0  0  0  0  0  0  0  0  0  0  0  0
    2.8660   -2.8934    0.0000 H   0  0  0  0  0  0  0  0  0  0  0  0
    6.4519   -2.6764    0.0000 H   0  0  0  0  0  0  0  0  0  0  0  0
    5.7381    1.7762    0.0000 H   0  0  0  0  0  0  0  0  0  0  0  0
    6.2169    2.5107    0.0000 H   0  0  0  0  0  0  0  0  0  0  0  0
    5.4824    2.9896    0.0000 H   0  0  0  0  0  0  0  0  0  0  0  0
    6.4519    0.1296    0.0000 H   0  0  0  0  0  0  0  0  0  0  0  0
    1.4631   -0.4634    0.0000 H   0  0  0  0  0  0  0  0  0  0  0  0
    1.4631   -2.0834    0.0000 H   0  0  0  0  0  0  0  0  0  0  0  0
    4.8639    3.6789    0.0000 H   0  0  0  0  0  0  0  0  0  0  0  0
    4.4672    4.4608    0.0000 H   0  0  0  0  0  0  0  0  0  0  0  0
    3.6852    4.0641    0.0000 H   0  0  0  0  0  0  0  0  0  0  0  0
    8.0719    0.1296    0.0000 H   0  0  0  0  0  0  0  0  0  0  0  0
    8.8819   -1.2734    0.0000 H   0  0  0  0  0  0  0  0  0  0  0  0
  1 25  1  0  0  0  0
  2 25  1  0  0  0  0
  3 25  1  0  0  0  0
  4  8  1  0  0  0  0
  4 11  1  0  0  0  0
  4 30  1  0  0  0  0
  5 10  1  0  0  0  0
  5 14  1  0  0  0  0
  5 17  1  0  0  0  0
  6  7  1  0  0  0  0
  6  8  2  0  0  0  0
  6  9  1  0  0  0  0
  7 10  1  0  0  0  0
  7 26  1  0  0  0  0
  7 27  1  0  0  0  0
  8 12  1  0  0  0  0
  9 11  1  0  0  0  0
  9 13  2  0  0  0  0
 10 28  1  0  0  0  0
 10 29  1  0  0  0  0
 11 15  2  0  0  0  0
 12 16  2  0  0  0  0
 12 18  1  0  0  0  0
 13 19  1  0  0  0  0
 13 31  1  0  0  0  0
 14 22  1  0  0  0  0
 14 32  1  0  0  0  0
 14 33  1  0  0  0  0
 15 20  1  0  0  0  0
 15 34  1  0  0  0  0
 16 21  1  0  0  0  0
 16 35  1  0  0  0  0
 17 36  1  0  0  0  0
 17 37  1  0  0  0  0
 17 38  1  0  0  0  0
 18 23  2  0  0  0  0
 18 39  1  0  0  0  0
 19 20  2  0  0  0  0
 19 40  1  0  0  0  0
 20 41  1  0  0  0  0
 21 24  2  0  0  0  0
 21 25  1  0  0  0  0
 22 42  1  0  0  0  0
 22 43  1  0  0  0  0
 22 44  1  0  0  0  0
 23 24  1  0  0  0  0
 23 45  1  0  0  0  0
 24 46  1  0  0  0  0
M  END
> <PUBCHEM_COMPOUND_CID>
44324052

> <PUBCHEM_COMPOUND_CANONICALIZED>
1

> <PUBCHEM_CACTVS_COMPLEXITY>
426

> <PUBCHEM_CACTVS_HBOND_ACCEPTOR>
4

> <PUBCHEM_CACTVS_HBOND_DONOR>
1

> <PUBCHEM_CACTVS_ROTATABLE_BOND>
5

> <PUBCHEM_CACTVS_SUBSKEYS>
AAADceB7AYAAAAAAAAAAAAAAAAAAAWAAAAAwYAAAAAAAAFgB9AAAHQAQAAAADAjBHhQywPPJkACgAyRiRACCgCAhAiAImSA4ZJgIIOLAkZGEIAhgkADIyAcQgMAOgAACAAACAAAAAAQAAAQAAAAAAAAAAA==

> <PUBCHEM_IUPAC_OPENEYE_NAME>
N-ethyl-N-methyl-2-[2-[3-(trifluoromethyl)phenyl]-1H-indol-3-yl]ethanamine

> <PUBCHEM_IUPAC_CAS_NAME>
N-ethyl-N-methyl-2-[2-[3-(trifluoromethyl)phenyl]-1H-indol-3-yl]ethanamine

> <PUBCHEM_IUPAC_NAME_MARKUP>
<I>N</I>-ethyl-<I>N</I>-methyl-2-[2-[3-(trifluoromethyl)phenyl]-1<I>H</I>-indol-3-yl]ethanamine

> <PUBCHEM_IUPAC_NAME>
N-ethyl-N-methyl-2-[2-[3-(trifluoromethyl)phenyl]-1H-indol-3-yl]ethanamine

> <PUBCHEM_IUPAC_SYSTEMATIC_NAME>
N-ethyl-N-methyl-2-[2-[3-(trifluoromethyl)phenyl]-1H-indol-3-yl]ethanamine

> <PUBCHEM_IUPAC_TRADITIONAL_NAME>
ethyl-methyl-[2-[2-[3-(trifluoromethyl)phenyl]-1H-indol-3-yl]ethyl]amine

> <PUBCHEM_IUPAC_INCHI>
InChI=1S/C20H21F3N2/c1-3-25(2)12-11-17-16-9-4-5-10-18(16)24-19(17)14-7-6-8-15(13-14)20(21,22)23/h4-10,13,24H,3,11-12H2,1-2H3

> <PUBCHEM_IUPAC_INCHIKEY>
QBUNYKZCKJJRII-UHFFFAOYSA-N

> <PUBCHEM_XLOGP3_AA>
5.3

> <PUBCHEM_EXACT_MASS>
346.16568316

> <PUBCHEM_MOLECULAR_FORMULA>
C20H21F3N2

> <PUBCHEM_MOLECULAR_WEIGHT>
346.4

> <PUBCHEM_OPENEYE_CAN_SMILES>
CCN(C)CCC1=C(NC2=CC=CC=C21)C3=CC(=CC=C3)C(F)(F)F

> <PUBCHEM_OPENEYE_ISO_SMILES>
CCN(C)CCC1=C(NC2=CC=CC=C21)C3=CC(=CC=C3)C(F)(F)F

> <PUBCHEM_CACTVS_TPSA>
19

> <PUBCHEM_MONOISOTOPIC_WEIGHT>
346.16568316

> <PUBCHEM_TOTAL_CHARGE>
0

> <PUBCHEM_HEAVY_ATOM_COUNT>
25

> <PUBCHEM_ATOM_DEF_STEREO_COUNT>
0

> <PUBCHEM_ATOM_UDEF_STEREO_COUNT>
0

> <PUBCHEM_BOND_DEF_STEREO_COUNT>
0

> <PUBCHEM_BOND_UDEF_STEREO_COUNT>
0

> <PUBCHEM_ISOTOPIC_ATOM_COUNT>
0

> <PUBCHEM_COMPONENT_COUNT>
1

> <PUBCHEM_CACTVS_TAUTO_COUNT>
-1

> <PUBCHEM_COORDINATE_TYPE>
1
5
255

> <PUBCHEM_BONDANNOTATIONS>
11  15  8
12  16  8
12  18  8
13  19  8
15  20  8
16  21  8
18  23  8
19  20  8
21  24  8
23  24  8
4  11  8
4  8  8
6  8  8
6  9  8
9  11  8
9  13  8

$$$$
