76317383
  -OEChem-09292322342D

 59 62  0     1  0  0  0  0  0999 V2000
    2.0000    0.7327    0.0000 F   0  0  0  0  0  0  0  0  0  0  0  0
   11.5263   -0.7673    0.0000 O   0  0  0  0  0  0  0  0  0  0  0  0
    5.4641   -2.2673    0.0000 O   0  0  0  0  0  0  0  0  0  0  0  0
    5.4641    0.7327    0.0000 O   0  0  0  0  0  0  0  0  0  0  0  0
    8.0622    0.2327    0.0000 N   0  0  0  0  0  0  0  0  0  0  0  0
   15.0564    0.2085    0.0000 N   0  0  0  0  0  0  0  0  0  0  0  0
   10.6603    0.7327    0.0000 C   0  0  3  0  0  0  0  0  0  0  0  0
    9.7942    0.2327    0.0000 C   0  0  0  0  0  0  0  0  0  0  0  0
    8.9282    0.7327    0.0000 C   0  0  0  0  0  0  0  0  0  0  0  0
   11.5263    0.2327    0.0000 C   0  0  3  0  0  0  0  0  0  0  0  0
   10.6603    1.7327    0.0000 C   0  0  0  0  0  0  0  0  0  0  0  0
    6.3301   -0.7673    0.0000 C   0  0  0  0  0  0  0  0  0  0  0  0
    7.1962    0.7327    0.0000 C   0  0  0  0  0  0  0  0  0  0  0  0
    8.0622   -0.7673    0.0000 C   0  0  0  0  0  0  0  0  0  0  0  0
    6.3301    0.2327    0.0000 C   0  0  0  0  0  0  0  0  0  0  0  0
    7.1962   -1.2673    0.0000 C   0  0  0  0  0  0  0  0  0  0  0  0
   11.5263    2.2327    0.0000 C   0  0  0  0  0  0  0  0  0  0  0  0
   12.3923    0.7327    0.0000 C   0  0  0  0  0  0  0  0  0  0  0  0
   12.3923    1.7327    0.0000 C   0  0  0  0  0  0  0  0  0  0  0  0
    5.4641   -1.2673    0.0000 C   0  0  0  0  0  0  0  0  0  0  0  0
   13.2862    0.1980    0.0000 C   0  0  0  0  0  0  0  0  0  0  0  0
   13.2862    2.2673    0.0000 C   0  0  0  0  0  0  0  0  0  0  0  0
   14.1923    0.7119    0.0000 C   0  0  0  0  0  0  0  0  0  0  0  0
   14.1923    1.7535    0.0000 C   0  0  0  0  0  0  0  0  0  0  0  0
    4.5981   -0.7673    0.0000 C   0  0  0  0  0  0  0  0  0  0  0  0
    4.5981    0.2327    0.0000 C   0  0  0  0  0  0  0  0  0  0  0  0
    3.7320   -1.2673    0.0000 C   0  0  0  0  0  0  0  0  0  0  0  0
    3.7320    0.7327    0.0000 C   0  0  0  0  0  0  0  0  0  0  0  0
    2.8660   -0.7673    0.0000 C   0  0  0  0  0  0  0  0  0  0  0  0
    2.8660    0.2327    0.0000 C   0  0  0  0  0  0  0  0  0  0  0  0
   10.6603    0.1127    0.0000 H   0  0  0  0  0  0  0  0  0  0  0  0
    9.3957   -0.2423    0.0000 H   0  0  0  0  0  0  0  0  0  0  0  0
   10.1928   -0.2423    0.0000 H   0  0  0  0  0  0  0  0  0  0  0  0
    9.3267    1.2076    0.0000 H   0  0  0  0  0  0  0  0  0  0  0  0
    8.5297    1.2076    0.0000 H   0  0  0  0  0  0  0  0  0  0  0  0
   12.0632   -0.0773    0.0000 H   0  0  0  0  0  0  0  0  0  0  0  0
   10.4482    2.3153    0.0000 H   0  0  0  0  0  0  0  0  0  0  0  0
   10.0497    1.6250    0.0000 H   0  0  0  0  0  0  0  0  0  0  0  0
    5.7932   -0.4573    0.0000 H   0  0  0  0  0  0  0  0  0  0  0  0
    7.5947    1.2076    0.0000 H   0  0  0  0  0  0  0  0  0  0  0  0
    6.7976    1.2076    0.0000 H   0  0  0  0  0  0  0  0  0  0  0  0
    8.2742   -1.3499    0.0000 H   0  0  0  0  0  0  0  0  0  0  0  0
    8.6728   -0.6597    0.0000 H   0  0  0  0  0  0  0  0  0  0  0  0
    6.1181    0.8153    0.0000 H   0  0  0  0  0  0  0  0  0  0  0  0
    5.7196    0.1250    0.0000 H   0  0  0  0  0  0  0  0  0  0  0  0
    6.7976   -1.7423    0.0000 H   0  0  0  0  0  0  0  0  0  0  0  0
    7.5947   -1.7423    0.0000 H   0  0  0  0  0  0  0  0  0  0  0  0
   11.9248    2.7076    0.0000 H   0  0  0  0  0  0  0  0  0  0  0  0
   11.1278    2.7076    0.0000 H   0  0  0  0  0  0  0  0  0  0  0  0
   13.2791   -0.4220    0.0000 H   0  0  0  0  0  0  0  0  0  0  0  0
   13.2791    2.8873    0.0000 H   0  0  0  0  0  0  0  0  0  0  0  0
   10.9893   -1.0773    0.0000 H   0  0  0  0  0  0  0  0  0  0  0  0
   14.7281    2.0656    0.0000 H   0  0  0  0  0  0  0  0  0  0  0  0
    3.7320   -1.8873    0.0000 H   0  0  0  0  0  0  0  0  0  0  0  0
   15.5945    0.5164    0.0000 H   0  0  0  0  0  0  0  0  0  0  0  0
   15.0540   -0.4115    0.0000 H   0  0  0  0  0  0  0  0  0  0  0  0
    3.7320    1.3527    0.0000 H   0  0  0  0  0  0  0  0  0  0  0  0
    2.3291   -1.0773    0.0000 H   0  0  0  0  0  0  0  0  0  0  0  0
    5.4641    1.3527    0.0000 H   0  0  0  0  0  0  0  0  0  0  0  0
  1 30  1  0  0  0  0
  2 10  1  0  0  0  0
  2 52  1  0  0  0  0
  3 20  2  0  0  0  0
  4 26  1  0  0  0  0
  4 59  1  0  0  0  0
  5  9  1  0  0  0  0
  5 13  1  0  0  0  0
  5 14  1  0  0  0  0
  6 23  1  0  0  0  0
  6 55  1  0  0  0  0
  6 56  1  0  0  0  0
  7  8  1  0  0  0  0
  7 10  1  0  0  0  0
  7 11  1  0  0  0  0
  7 31  1  0  0  0  0
  8  9  1  0  0  0  0
  8 32  1  0  0  0  0
  8 33  1  0  0  0  0
  9 34  1  0  0  0  0
  9 35  1  0  0  0  0
 10 18  1  0  0  0  0
 10 36  1  0  0  0  0
 11 17  1  0  0  0  0
 11 37  1  0  0  0  0
 11 38  1  0  0  0  0
 12 15  1  0  0  0  0
 12 16  1  0  0  0  0
 12 20  1  0  0  0  0
 12 39  1  0  0  0  0
 13 15  1  0  0  0  0
 13 40  1  0  0  0  0
 13 41  1  0  0  0  0
 14 16  1  0  0  0  0
 14 42  1  0  0  0  0
 14 43  1  0  0  0  0
 15 44  1  0  0  0  0
 15 45  1  0  0  0  0
 16 46  1  0  0  0  0
 16 47  1  0  0  0  0
 17 19  1  0  0  0  0
 17 48  1  0  0  0  0
 17 49  1  0  0  0  0
 18 19  2  0  0  0  0
 18 21  1  0  0  0  0
 19 22  1  0  0  0  0
 20 25  1  0  0  0  0
 21 23  2  0  0  0  0
 21 50  1  0  0  0  0
 22 24  2  0  0  0  0
 22 51  1  0  0  0  0
 23 24  1  0  0  0  0
 24 53  1  0  0  0  0
 25 26  2  0  0  0  0
 25 27  1  0  0  0  0
 26 28  1  0  0  0  0
 27 29  2  0  0  0  0
 27 54  1  0  0  0  0
 28 30  2  0  0  0  0
 28 57  1  0  0  0  0
 29 30  1  0  0  0  0
 29 58  1  0  0  0  0
M  END
> <PUBCHEM_COMPOUND_CID>
76317383

> <PUBCHEM_COMPOUND_CANONICALIZED>
1

> <PUBCHEM_CACTVS_COMPLEXITY>
583

> <PUBCHEM_CACTVS_HBOND_ACCEPTOR>
6

> <PUBCHEM_CACTVS_HBOND_DONOR>
3

> <PUBCHEM_CACTVS_ROTATABLE_BOND>
5

> <PUBCHEM_CACTVS_SUBSKEYS>
AAADceB7MQAAAAAAAAAAAAAAAAAAAAAAAAA8YMEAAAAAAADBQAAAHwAQCAAADRzhmA4wxoNAAgCIAqRSQACCAAAkIgAIiAEObMgINjaClZOEcUBk8BGI2Ye8yPCOiAAAQAAYAACQAAaAADAAAAAAAAAAAA==

> <PUBCHEM_IUPAC_OPENEYE_NAME>
[1-[2-(7-amino-1-hydroxy-tetralin-2-yl)ethyl]-4-piperidyl]-(4-fluoro-2-hydroxy-phenyl)methanone

> <PUBCHEM_IUPAC_CAS_NAME>
[1-[2-(7-amino-1-hydroxy-1,2,3,4-tetrahydronaphthalen-2-yl)ethyl]-4-piperidinyl]-(4-fluoro-2-hydroxyphenyl)methanone

> <PUBCHEM_IUPAC_NAME_MARKUP>
[1-[2-(7-amino-1-hydroxy-1,2,3,4-tetrahydronaphthalen-2-yl)ethyl]piperidin-4-yl]-(4-fluoro-2-hydroxyphenyl)methanone

> <PUBCHEM_IUPAC_NAME>
[1-[2-(7-amino-1-hydroxy-1,2,3,4-tetrahydronaphthalen-2-yl)ethyl]piperidin-4-yl]-(4-fluoro-2-hydroxyphenyl)methanone

> <PUBCHEM_IUPAC_SYSTEMATIC_NAME>
[1-[2-(7-azanyl-1-oxidanyl-1,2,3,4-tetrahydronaphthalen-2-yl)ethyl]piperidin-4-yl]-(4-fluoranyl-2-oxidanyl-phenyl)methanone

> <PUBCHEM_IUPAC_TRADITIONAL_NAME>
[1-[2-(7-amino-1-hydroxy-tetralin-2-yl)ethyl]-4-piperidyl]-(4-fluoro-2-hydroxy-phenyl)methanone

> <PUBCHEM_IUPAC_INCHI>
InChI=1S/C24H29FN2O3/c25-18-4-6-20(22(28)13-18)23(29)17-8-11-27(12-9-17)10-7-16-2-1-15-3-5-19(26)14-21(15)24(16)30/h3-6,13-14,16-17,24,28,30H,1-2,7-12,26H2

> <PUBCHEM_IUPAC_INCHIKEY>
VOVXPCSLEFSNJQ-UHFFFAOYSA-N

> <PUBCHEM_XLOGP3_AA>
3.6

> <PUBCHEM_EXACT_MASS>
412.21622095

> <PUBCHEM_MOLECULAR_FORMULA>
C24H29FN2O3

> <PUBCHEM_MOLECULAR_WEIGHT>
412.5

> <PUBCHEM_OPENEYE_CAN_SMILES>
C1CC2=C(C=C(C=C2)N)C(C1CCN3CCC(CC3)C(=O)C4=C(C=C(C=C4)F)O)O

> <PUBCHEM_OPENEYE_ISO_SMILES>
C1CC2=C(C=C(C=C2)N)C(C1CCN3CCC(CC3)C(=O)C4=C(C=C(C=C4)F)O)O

> <PUBCHEM_CACTVS_TPSA>
86.8

> <PUBCHEM_MONOISOTOPIC_WEIGHT>
412.21622095

> <PUBCHEM_TOTAL_CHARGE>
0

> <PUBCHEM_HEAVY_ATOM_COUNT>
30

> <PUBCHEM_ATOM_DEF_STEREO_COUNT>
0

> <PUBCHEM_ATOM_UDEF_STEREO_COUNT>
2

> <PUBCHEM_BOND_DEF_STEREO_COUNT>
0

> <PUBCHEM_BOND_UDEF_STEREO_COUNT>
0

> <PUBCHEM_ISOTOPIC_ATOM_COUNT>
0

> <PUBCHEM_COMPONENT_COUNT>
1

> <PUBCHEM_CACTVS_TAUTO_COUNT>
-1

> <PUBCHEM_COORDINATE_TYPE>
1
5
255

> <PUBCHEM_BONDANNOTATIONS>
18  19  8
18  21  8
19  22  8
10  2  3
21  23  8
22  24  8
23  24  8
25  26  8
25  27  8
26  28  8
27  29  8
28  30  8
29  30  8
7  8  3

$$$$
