155525705
  -OEChem-09292322412D

 71 73  0     1  0  0  0  0  0999 V2000
    1.4030    6.1200    0.0000 Cl  0  0  0  0  0  0  0  0  0  0  0  0
    7.4985    8.1312    0.0000 Cl  0  0  0  0  0  0  0  0  0  0  0  0
    1.4030    2.1200    0.0000 O   0  0  0  0  0  0  0  0  0  0  0  0
   11.0632    2.1200    0.0000 O   0  0  0  0  0  0  0  0  0  0  0  0
    5.8671    3.1200    0.0000 N   0  0  3  0  0  0  0  0  0  0  0  0
   10.1972    3.6200    0.0000 N   0  0  0  0  0  0  0  0  0  0  0  0
    4.1350    3.1200    0.0000 C   0  0  3  0  0  0  0  0  0  0  0  0
    3.1350    3.1200    0.0000 C   0  0  3  0  0  0  0  0  0  0  0  0
    3.6350    2.2540    0.0000 C   0  0  0  0  0  0  0  0  0  0  0  0
    5.0010    3.6200    0.0000 C   0  0  0  0  0  0  0  0  0  0  0  0
    2.2690    3.6200    0.0000 C   0  0  0  0  0  0  0  0  0  0  0  0
    1.4030    3.1200    0.0000 C   0  0  0  0  0  0  0  0  0  0  0  0
    6.7331    3.6200    0.0000 C   0  0  0  0  0  0  0  0  0  0  0  0
    2.2690    4.6200    0.0000 C   0  0  0  0  0  0  0  0  0  0  0  0
    5.8671    2.1200    0.0000 C   0  0  0  0  0  0  0  0  0  0  0  0
    7.5991    3.1200    0.0000 C   0  0  0  0  0  0  0  0  0  0  0  0
    6.7331    1.6200    0.0000 C   0  0  0  0  0  0  0  0  0  0  0  0
    0.5369    3.6200    0.0000 C   0  0  0  0  0  0  0  0  0  0  0  0
    1.4030    5.1200    0.0000 C   0  0  0  0  0  0  0  0  0  0  0  0
    0.5369    4.6200    0.0000 C   0  0  0  0  0  0  0  0  0  0  0  0
    8.4651    3.6200    0.0000 C   0  0  0  0  0  0  0  0  0  0  0  0
    6.7331    0.6200    0.0000 C   0  0  0  0  0  0  0  0  0  0  0  0
    9.3312    3.1200    0.0000 C   0  0  0  0  0  0  0  0  0  0  0  0
    0.5369    1.6200    0.0000 C   0  0  0  0  0  0  0  0  0  0  0  0
   11.0632    3.1200    0.0000 C   0  0  0  0  0  0  0  0  0  0  0  0
   11.9292    3.6200    0.0000 C   0  0  0  0  0  0  0  0  0  0  0  0
   12.7953    3.1200    0.0000 C   0  0  0  0  0  0  0  0  0  0  0  0
   11.9292    4.6200    0.0000 C   0  0  0  0  0  0  0  0  0  0  0  0
   13.6613    3.6200    0.0000 C   0  0  0  0  0  0  0  0  0  0  0  0
   13.6613    4.6200    0.0000 C   0  0  0  0  0  0  0  0  0  0  0  0
   12.7953    5.1200    0.0000 C   0  0  0  0  0  0  0  0  0  0  0  0
   14.5552    3.0853    0.0000 C   0  0  0  0  0  0  0  0  0  0  0  0
   14.5552    5.1547    0.0000 C   0  0  0  0  0  0  0  0  0  0  0  0
   15.4613    3.5992    0.0000 C   0  0  0  0  0  0  0  0  0  0  0  0
   15.4613    4.6408    0.0000 C   0  0  0  0  0  0  0  0  0  0  0  0
    3.9745    3.7189    0.0000 H   0  0  0  0  0  0  0  0  0  0  0  0
    3.2955    3.7189    0.0000 H   0  0  0  0  0  0  0  0  0  0  0  0
    3.1601    1.8554    0.0000 H   0  0  0  0  0  0  0  0  0  0  0  0
    4.1100    1.8554    0.0000 H   0  0  0  0  0  0  0  0  0  0  0  0
    5.3996    4.0950    0.0000 H   0  0  0  0  0  0  0  0  0  0  0  0
    4.6025    4.0950    0.0000 H   0  0  0  0  0  0  0  0  0  0  0  0
    7.1316    4.0950    0.0000 H   0  0  0  0  0  0  0  0  0  0  0  0
    6.3346    4.0950    0.0000 H   0  0  0  0  0  0  0  0  0  0  0  0
    2.8059    4.9300    0.0000 H   0  0  0  0  0  0  0  0  0  0  0  0
    5.2565    2.2277    0.0000 H   0  0  0  0  0  0  0  0  0  0  0  0
    5.6550    1.5374    0.0000 H   0  0  0  0  0  0  0  0  0  0  0  0
    7.2006    2.6450    0.0000 H   0  0  0  0  0  0  0  0  0  0  0  0
    7.9976    2.6450    0.0000 H   0  0  0  0  0  0  0  0  0  0  0  0
    7.3437    1.5123    0.0000 H   0  0  0  0  0  0  0  0  0  0  0  0
    6.9451    2.2026    0.0000 H   0  0  0  0  0  0  0  0  0  0  0  0
    0.0000    3.3100    0.0000 H   0  0  0  0  0  0  0  0  0  0  0  0
    0.0000    4.9300    0.0000 H   0  0  0  0  0  0  0  0  0  0  0  0
    8.8637    4.0950    0.0000 H   0  0  0  0  0  0  0  0  0  0  0  0
    8.0666    4.0950    0.0000 H   0  0  0  0  0  0  0  0  0  0  0  0
    6.1131    0.6200    0.0000 H   0  0  0  0  0  0  0  0  0  0  0  0
    6.7331    0.0000    0.0000 H   0  0  0  0  0  0  0  0  0  0  0  0
    7.3531    0.6200    0.0000 H   0  0  0  0  0  0  0  0  0  0  0  0
    8.9326    2.6450    0.0000 H   0  0  0  0  0  0  0  0  0  0  0  0
    9.7297    2.6450    0.0000 H   0  0  0  0  0  0  0  0  0  0  0  0
    0.2269    2.1569    0.0000 H   0  0  0  0  0  0  0  0  0  0  0  0
    0.0000    1.3100    0.0000 H   0  0  0  0  0  0  0  0  0  0  0  0
    0.8469    1.0831    0.0000 H   0  0  0  0  0  0  0  0  0  0  0  0
   10.1972    4.2400    0.0000 H   0  0  0  0  0  0  0  0  0  0  0  0
   12.7953    2.5000    0.0000 H   0  0  0  0  0  0  0  0  0  0  0  0
   11.3923    4.9300    0.0000 H   0  0  0  0  0  0  0  0  0  0  0  0
   12.7953    5.7400    0.0000 H   0  0  0  0  0  0  0  0  0  0  0  0
   14.5481    2.4654    0.0000 H   0  0  0  0  0  0  0  0  0  0  0  0
   14.5481    5.7746    0.0000 H   0  0  0  0  0  0  0  0  0  0  0  0
   15.9970    3.2871    0.0000 H   0  0  0  0  0  0  0  0  0  0  0  0
   15.9970    4.9529    0.0000 H   0  0  0  0  0  0  0  0  0  0  0  0
    8.4985    8.1312    0.0000 H   0  0  0  0  0  0  0  0  0  0  0  0
  1 19  1  0  0  0  0
  2 71  1  0  0  0  0
  3 12  1  0  0  0  0
  3 24  1  0  0  0  0
  4 25  2  0  0  0  0
  5 10  1  0  0  0  0
  5 13  1  0  0  0  0
  5 15  1  0  0  0  0
  6 23  1  0  0  0  0
  6 25  1  0  0  0  0
  6 63  1  0  0  0  0
  7  8  1  0  0  0  0
  7  9  1  0  0  0  0
  7 10  1  0  0  0  0
  7 36  1  0  0  0  0
  8  9  1  0  0  0  0
  8 11  1  0  0  0  0
  8 37  1  0  0  0  0
  9 38  1  0  0  0  0
  9 39  1  0  0  0  0
 10 40  1  0  0  0  0
 10 41  1  0  0  0  0
 11 12  2  0  0  0  0
 11 14  1  0  0  0  0
 12 18  1  0  0  0  0
 13 16  1  0  0  0  0
 13 42  1  0  0  0  0
 13 43  1  0  0  0  0
 14 19  2  0  0  0  0
 14 44  1  0  0  0  0
 15 17  1  0  0  0  0
 15 45  1  0  0  0  0
 15 46  1  0  0  0  0
 16 21  1  0  0  0  0
 16 47  1  0  0  0  0
 16 48  1  0  0  0  0
 17 22  1  0  0  0  0
 17 49  1  0  0  0  0
 17 50  1  0  0  0  0
 18 20  2  0  0  0  0
 18 51  1  0  0  0  0
 19 20  1  0  0  0  0
 20 52  1  0  0  0  0
 21 23  1  0  0  0  0
 21 53  1  0  0  0  0
 21 54  1  0  0  0  0
 22 55  1  0  0  0  0
 22 56  1  0  0  0  0
 22 57  1  0  0  0  0
 23 58  1  0  0  0  0
 23 59  1  0  0  0  0
 24 60  1  0  0  0  0
 24 61  1  0  0  0  0
 24 62  1  0  0  0  0
 25 26  1  0  0  0  0
 26 27  2  0  0  0  0
 26 28  1  0  0  0  0
 27 29  1  0  0  0  0
 27 64  1  0  0  0  0
 28 31  2  0  0  0  0
 28 65  1  0  0  0  0
 29 30  1  0  0  0  0
 29 32  2  0  0  0  0
 30 31  1  0  0  0  0
 30 33  2  0  0  0  0
 31 66  1  0  0  0  0
 32 34  1  0  0  0  0
 32 67  1  0  0  0  0
 33 35  1  0  0  0  0
 33 68  1  0  0  0  0
 34 35  2  0  0  0  0
 34 69  1  0  0  0  0
 35 70  1  0  0  0  0
M  END
> <PUBCHEM_COMPOUND_CID>
155525705

> <PUBCHEM_COMPOUND_CANONICALIZED>
1

> <PUBCHEM_CACTVS_COMPLEXITY>
631

> <PUBCHEM_CACTVS_HBOND_ACCEPTOR>
3

> <PUBCHEM_CACTVS_HBOND_DONOR>
2

> <PUBCHEM_CACTVS_ROTATABLE_BOND>
12

> <PUBCHEM_CACTVS_SUBSKEYS>
AAADcfB7MAAGAAAAAAAAAAAAGAAAAAAAAAAwYMAAAAAAAADBVAAAHgIQAAAADQbBmCYyBsPABACIAiFSEACCCAAkJQAIiIEODsgMJjKFtxuEMShk1hGIqYeY2OKOwCACIAAYAACAQARAADAAAAAAAAAAAA==

> <PUBCHEM_IUPAC_OPENEYE_NAME>
N-[4-[[2-(5-chloro-2-methoxy-phenyl)cyclopropyl]methyl-propyl-amino]butyl]naphthalene-2-carboxamide;hydrochloride

> <PUBCHEM_IUPAC_CAS_NAME>
N-[4-[[2-(5-chloro-2-methoxyphenyl)cyclopropyl]methyl-propylamino]butyl]-2-naphthalenecarboxamide;hydrochloride

> <PUBCHEM_IUPAC_NAME_MARKUP>
<I>N</I>-[4-[[2-(5-chloro-2-methoxyphenyl)cyclopropyl]methyl-propylamino]butyl]naphthalene-2-carboxamide;hydrochloride

> <PUBCHEM_IUPAC_NAME>
N-[4-[[2-(5-chloro-2-methoxyphenyl)cyclopropyl]methyl-propylamino]butyl]naphthalene-2-carboxamide;hydrochloride

> <PUBCHEM_IUPAC_SYSTEMATIC_NAME>
N-[4-[[2-(5-chloranyl-2-methoxy-phenyl)cyclopropyl]methyl-propyl-amino]butyl]naphthalene-2-carboxamide;hydrochloride

> <PUBCHEM_IUPAC_TRADITIONAL_NAME>
N-[4-[[2-(5-chloro-2-methoxy-phenyl)cyclopropyl]methyl-propyl-amino]butyl]-2-naphthamide;hydrochloride

> <PUBCHEM_IUPAC_INCHI>
InChI=1S/C29H35ClN2O2.ClH/c1-3-15-32(20-24-18-26(24)27-19-25(30)12-13-28(27)34-2)16-7-6-14-31-29(33)23-11-10-21-8-4-5-9-22(21)17-23;/h4-5,8-13,17,19,24,26H,3,6-7,14-16,18,20H2,1-2H3,(H,31,33);1H

> <PUBCHEM_IUPAC_INCHIKEY>
WSLYGKKLLXKPSY-UHFFFAOYSA-N

> <PUBCHEM_EXACT_MASS>
514.2153838

> <PUBCHEM_MOLECULAR_FORMULA>
C29H36Cl2N2O2

> <PUBCHEM_MOLECULAR_WEIGHT>
515.5

> <PUBCHEM_OPENEYE_CAN_SMILES>
CCCN(CCCCNC(=O)C1=CC2=CC=CC=C2C=C1)CC3CC3C4=C(C=CC(=C4)Cl)OC.Cl

> <PUBCHEM_OPENEYE_ISO_SMILES>
CCCN(CCCCNC(=O)C1=CC2=CC=CC=C2C=C1)CC3CC3C4=C(C=CC(=C4)Cl)OC.Cl

> <PUBCHEM_CACTVS_TPSA>
41.6

> <PUBCHEM_MONOISOTOPIC_WEIGHT>
514.2153838

> <PUBCHEM_TOTAL_CHARGE>
0

> <PUBCHEM_HEAVY_ATOM_COUNT>
35

> <PUBCHEM_ATOM_DEF_STEREO_COUNT>
0

> <PUBCHEM_ATOM_UDEF_STEREO_COUNT>
2

> <PUBCHEM_BOND_DEF_STEREO_COUNT>
0

> <PUBCHEM_BOND_UDEF_STEREO_COUNT>
0

> <PUBCHEM_ISOTOPIC_ATOM_COUNT>
0

> <PUBCHEM_COMPONENT_COUNT>
2

> <PUBCHEM_CACTVS_TAUTO_COUNT>
-1

> <PUBCHEM_COORDINATE_TYPE>
1
5
255

> <PUBCHEM_BONDANNOTATIONS>
11  12  8
11  14  8
12  18  8
14  19  8
18  20  8
19  20  8
26  27  8
26  28  8
27  29  8
28  31  8
29  30  8
29  32  8
30  31  8
30  33  8
32  34  8
33  35  8
34  35  8
7  10  3
8  11  3

$$$$
