135156251
  -OEChem-09292322022D

 67 72  0     0  0  0  0  0  0999 V2000
   10.5920   -0.9645    0.0000 Cl  0  0  0  0  0  0  0  0  0  0  0  0
   10.2510   -7.3034    0.0000 Cl  0  0  0  0  0  0  0  0  0  0  0  0
    2.0000    7.3034    0.0000 F   0  0  0  0  0  0  0  0  0  0  0  0
    3.7320    7.3034    0.0000 F   0  0  0  0  0  0  0  0  0  0  0  0
    5.4641    2.3034    0.0000 O   0  0  0  0  0  0  0  0  0  0  0  0
    2.8660    5.8034    0.0000 O   0  0  0  0  0  0  0  0  0  0  0  0
    7.1962   -0.6966    0.0000 N   0  0  0  0  0  0  0  0  0  0  0  0
    7.1962    2.3034    0.0000 N   0  0  0  0  0  0  0  0  0  0  0  0
    6.3301   -2.1966    0.0000 N   0  0  0  0  0  0  0  0  0  0  0  0
    9.0084   -3.5013    0.0000 N   0  0  0  0  0  0  0  0  0  0  0  0
    9.0084   -1.8919    0.0000 N   0  0  0  0  0  0  0  0  0  0  0  0
    7.1962   -3.6966    0.0000 N   0  0  0  0  0  0  0  0  0  0  0  0
    6.3301    3.8034    0.0000 N   0  0  0  0  0  0  0  0  0  0  0  0
    4.5981    5.8034    0.0000 N   0  0  0  0  0  0  0  0  0  0  0  0
    7.1962    1.3034    0.0000 C   0  0  0  0  0  0  0  0  0  0  0  0
    8.0622    0.8034    0.0000 C   0  0  0  0  0  0  0  0  0  0  0  0
    6.3301    0.8034    0.0000 C   0  0  0  0  0  0  0  0  0  0  0  0
    8.0622   -0.1966    0.0000 C   0  0  0  0  0  0  0  0  0  0  0  0
    6.3301   -0.1966    0.0000 C   0  0  0  0  0  0  0  0  0  0  0  0
    7.1962   -1.6966    0.0000 C   0  0  0  0  0  0  0  0  0  0  0  0
    8.0622   -2.1966    0.0000 C   0  0  0  0  0  0  0  0  0  0  0  0
    8.0622   -3.1966    0.0000 C   0  0  0  0  0  0  0  0  0  0  0  0
    6.3301    2.8034    0.0000 C   0  0  0  0  0  0  0  0  0  0  0  0
    9.5920   -2.6966    0.0000 C   0  0  0  0  0  0  0  0  0  0  0  0
    6.3301   -3.1966    0.0000 C   0  0  0  0  0  0  0  0  0  0  0  0
    9.3191   -4.4518    0.0000 C   0  0  0  0  0  0  0  0  0  0  0  0
   10.5920   -2.6966    0.0000 C   0  0  0  0  0  0  0  0  0  0  0  0
    5.4641    4.3034    0.0000 C   0  0  0  0  0  0  0  0  0  0  0  0
    8.6512   -5.1962    0.0000 C   0  0  0  0  0  0  0  0  0  0  0  0
   10.2976   -4.6581    0.0000 C   0  0  0  0  0  0  0  0  0  0  0  0
   11.0920   -1.8306    0.0000 C   0  0  0  0  0  0  0  0  0  0  0  0
   11.0920   -3.5626    0.0000 C   0  0  0  0  0  0  0  0  0  0  0  0
    8.9619   -6.1467    0.0000 C   0  0  0  0  0  0  0  0  0  0  0  0
   10.6082   -5.6086    0.0000 C   0  0  0  0  0  0  0  0  0  0  0  0
   12.0920   -1.8306    0.0000 C   0  0  0  0  0  0  0  0  0  0  0  0
   12.0920   -3.5626    0.0000 C   0  0  0  0  0  0  0  0  0  0  0  0
    4.5981    3.8034    0.0000 C   0  0  0  0  0  0  0  0  0  0  0  0
    9.9404   -6.3529    0.0000 C   0  0  0  0  0  0  0  0  0  0  0  0
    5.4641    5.3034    0.0000 C   0  0  0  0  0  0  0  0  0  0  0  0
   12.5920   -2.6966    0.0000 C   0  0  0  0  0  0  0  0  0  0  0  0
    3.7320    4.3034    0.0000 C   0  0  0  0  0  0  0  0  0  0  0  0
    3.7320    5.3034    0.0000 C   0  0  0  0  0  0  0  0  0  0  0  0
    2.8660    6.8034    0.0000 C   0  0  0  0  0  0  0  0  0  0  0  0
    6.6592    1.6134    0.0000 H   0  0  0  0  0  0  0  0  0  0  0  0
    8.6728    0.6957    0.0000 H   0  0  0  0  0  0  0  0  0  0  0  0
    8.2742    1.3860    0.0000 H   0  0  0  0  0  0  0  0  0  0  0  0
    6.1181    1.3860    0.0000 H   0  0  0  0  0  0  0  0  0  0  0  0
    5.7196    0.6957    0.0000 H   0  0  0  0  0  0  0  0  0  0  0  0
    8.2742   -0.7792    0.0000 H   0  0  0  0  0  0  0  0  0  0  0  0
    8.6728   -0.0889    0.0000 H   0  0  0  0  0  0  0  0  0  0  0  0
    5.7196   -0.0889    0.0000 H   0  0  0  0  0  0  0  0  0  0  0  0
    6.1181   -0.7792    0.0000 H   0  0  0  0  0  0  0  0  0  0  0  0
    7.7331    2.6134    0.0000 H   0  0  0  0  0  0  0  0  0  0  0  0
    5.7932   -3.5066    0.0000 H   0  0  0  0  0  0  0  0  0  0  0  0
    6.8671    4.1134    0.0000 H   0  0  0  0  0  0  0  0  0  0  0  0
    8.0445   -5.0683    0.0000 H   0  0  0  0  0  0  0  0  0  0  0  0
   10.7116   -4.1966    0.0000 H   0  0  0  0  0  0  0  0  0  0  0  0
   10.7820   -4.0996    0.0000 H   0  0  0  0  0  0  0  0  0  0  0  0
    8.5478   -6.6081    0.0000 H   0  0  0  0  0  0  0  0  0  0  0  0
   11.2149   -5.7364    0.0000 H   0  0  0  0  0  0  0  0  0  0  0  0
   12.4020   -1.2936    0.0000 H   0  0  0  0  0  0  0  0  0  0  0  0
   12.4020   -4.0996    0.0000 H   0  0  0  0  0  0  0  0  0  0  0  0
    4.5981    3.1834    0.0000 H   0  0  0  0  0  0  0  0  0  0  0  0
    6.0010    5.6134    0.0000 H   0  0  0  0  0  0  0  0  0  0  0  0
   13.2120   -2.6966    0.0000 H   0  0  0  0  0  0  0  0  0  0  0  0
    3.1951    3.9934    0.0000 H   0  0  0  0  0  0  0  0  0  0  0  0
    3.4030    6.4934    0.0000 H   0  0  0  0  0  0  0  0  0  0  0  0
  1 31  1  0  0  0  0
  2 38  1  0  0  0  0
  3 43  1  0  0  0  0
  4 43  1  0  0  0  0
  5 23  2  0  0  0  0
  6 42  1  0  0  0  0
  6 43  1  0  0  0  0
  7 18  1  0  0  0  0
  7 19  1  0  0  0  0
  7 20  1  0  0  0  0
  8 15  1  0  0  0  0
  8 23  1  0  0  0  0
  8 53  1  0  0  0  0
  9 20  2  0  0  0  0
  9 25  1  0  0  0  0
 10 22  1  0  0  0  0
 10 24  1  0  0  0  0
 10 26  1  0  0  0  0
 11 21  1  0  0  0  0
 11 24  2  0  0  0  0
 12 22  1  0  0  0  0
 12 25  2  0  0  0  0
 13 23  1  0  0  0  0
 13 28  1  0  0  0  0
 13 55  1  0  0  0  0
 14 39  1  0  0  0  0
 14 42  2  0  0  0  0
 15 16  1  0  0  0  0
 15 17  1  0  0  0  0
 15 44  1  0  0  0  0
 16 18  1  0  0  0  0
 16 45  1  0  0  0  0
 16 46  1  0  0  0  0
 17 19  1  0  0  0  0
 17 47  1  0  0  0  0
 17 48  1  0  0  0  0
 18 49  1  0  0  0  0
 18 50  1  0  0  0  0
 19 51  1  0  0  0  0
 19 52  1  0  0  0  0
 20 21  1  0  0  0  0
 21 22  2  0  0  0  0
 24 27  1  0  0  0  0
 25 54  1  0  0  0  0
 26 29  2  0  0  0  0
 26 30  1  0  0  0  0
 27 31  1  0  0  0  0
 27 32  2  0  0  0  0
 28 37  1  0  0  0  0
 28 39  2  0  0  0  0
 29 33  1  0  0  0  0
 29 56  1  0  0  0  0
 30 34  2  0  0  0  0
 30 57  1  0  0  0  0
 31 35  2  0  0  0  0
 32 36  1  0  0  0  0
 32 58  1  0  0  0  0
 33 38  2  0  0  0  0
 33 59  1  0  0  0  0
 34 38  1  0  0  0  0
 34 60  1  0  0  0  0
 35 40  1  0  0  0  0
 35 61  1  0  0  0  0
 36 40  2  0  0  0  0
 36 62  1  0  0  0  0
 37 41  2  0  0  0  0
 37 63  1  0  0  0  0
 39 64  1  0  0  0  0
 40 65  1  0  0  0  0
 41 42  1  0  0  0  0
 41 66  1  0  0  0  0
 43 67  1  0  0  0  0
M  END
> <PUBCHEM_COMPOUND_CID>
135156251

> <PUBCHEM_COMPOUND_CANONICALIZED>
1

> <PUBCHEM_CACTVS_COMPLEXITY>
914

> <PUBCHEM_CACTVS_HBOND_ACCEPTOR>
9

> <PUBCHEM_CACTVS_HBOND_DONOR>
2

> <PUBCHEM_CACTVS_ROTATABLE_BOND>
7

> <PUBCHEM_CACTVS_SUBSKEYS>
AAADceB78YAGAAAAAAAAAAAAAAAAAWAAAAA8eLECAAAAAFgB/gAAHwIQAAAADCrBnzY99L/MFACoAzZndACCiC0xN6AJ2KA+fpiMbuLF+9uUNChs1hPI6CewkAAOAABAAAABAAAAAIAAAAIAAAAAAAAAAA==

> <PUBCHEM_IUPAC_OPENEYE_NAME>
1-[1-[8-(2-chlorophenyl)-9-(4-chlorophenyl)purin-6-yl]-4-piperidyl]-3-[6-(difluoromethoxy)-3-pyridyl]urea

> <PUBCHEM_IUPAC_CAS_NAME>
1-[1-[8-(2-chlorophenyl)-9-(4-chlorophenyl)-6-purinyl]-4-piperidinyl]-3-[6-(difluoromethoxy)-3-pyridinyl]urea

> <PUBCHEM_IUPAC_NAME_MARKUP>
1-[1-[8-(2-chlorophenyl)-9-(4-chlorophenyl)purin-6-yl]piperidin-4-yl]-3-[6-(difluoromethoxy)pyridin-3-yl]urea

> <PUBCHEM_IUPAC_NAME>
1-[1-[8-(2-chlorophenyl)-9-(4-chlorophenyl)purin-6-yl]piperidin-4-yl]-3-[6-(difluoromethoxy)pyridin-3-yl]urea

> <PUBCHEM_IUPAC_SYSTEMATIC_NAME>
1-[6-[bis(fluoranyl)methoxy]pyridin-3-yl]-3-[1-[8-(2-chlorophenyl)-9-(4-chlorophenyl)purin-6-yl]piperidin-4-yl]urea

> <PUBCHEM_IUPAC_TRADITIONAL_NAME>
1-[1-[8-(2-chlorophenyl)-9-(4-chlorophenyl)purin-6-yl]-4-piperidyl]-3-[6-(difluoromethoxy)-3-pyridyl]urea

> <PUBCHEM_IUPAC_INCHI>
InChI=1S/C29H24Cl2F2N8O2/c30-17-5-8-20(9-6-17)41-25(21-3-1-2-4-22(21)31)39-24-26(35-16-36-27(24)41)40-13-11-18(12-14-40)37-29(42)38-19-7-10-23(34-15-19)43-28(32)33/h1-10,15-16,18,28H,11-14H2,(H2,37,38,42)

> <PUBCHEM_IUPAC_INCHIKEY>
LTNOPYMLPTUXSM-UHFFFAOYSA-N

> <PUBCHEM_XLOGP3_AA>
6.5

> <PUBCHEM_EXACT_MASS>
624.1367338

> <PUBCHEM_MOLECULAR_FORMULA>
C29H24Cl2F2N8O2

> <PUBCHEM_MOLECULAR_WEIGHT>
625.5

> <PUBCHEM_OPENEYE_CAN_SMILES>
C1CN(CCC1NC(=O)NC2=CN=C(C=C2)OC(F)F)C3=NC=NC4=C3N=C(N4C5=CC=C(C=C5)Cl)C6=CC=CC=C6Cl

> <PUBCHEM_OPENEYE_ISO_SMILES>
C1CN(CCC1NC(=O)NC2=CN=C(C=C2)OC(F)F)C3=NC=NC4=C3N=C(N4C5=CC=C(C=C5)Cl)C6=CC=CC=C6Cl

> <PUBCHEM_CACTVS_TPSA>
110

> <PUBCHEM_MONOISOTOPIC_WEIGHT>
624.1367338

> <PUBCHEM_TOTAL_CHARGE>
0

> <PUBCHEM_HEAVY_ATOM_COUNT>
43

> <PUBCHEM_ATOM_DEF_STEREO_COUNT>
0

> <PUBCHEM_ATOM_UDEF_STEREO_COUNT>
0

> <PUBCHEM_BOND_DEF_STEREO_COUNT>
0

> <PUBCHEM_BOND_UDEF_STEREO_COUNT>
0

> <PUBCHEM_ISOTOPIC_ATOM_COUNT>
0

> <PUBCHEM_COMPONENT_COUNT>
1

> <PUBCHEM_CACTVS_TAUTO_COUNT>
-1

> <PUBCHEM_COORDINATE_TYPE>
1
5
255

> <PUBCHEM_BONDANNOTATIONS>
10  22  8
10  24  8
11  21  8
11  24  8
12  22  8
12  25  8
14  39  8
14  42  8
20  21  8
21  22  8
26  29  8
26  30  8
27  31  8
27  32  8
28  37  8
28  39  8
29  33  8
30  34  8
31  35  8
32  36  8
33  38  8
34  38  8
35  40  8
36  40  8
37  41  8
41  42  8
9  20  8
9  25  8

$$$$
