44443916
  -OEChem-09292322032D

 42 43  0     1  0  0  0  0  0999 V2000
    6.3301    3.3170    0.0000 S   0  0  0  0  0  0  0  0  0  0  0  0
    2.8660    0.3170    0.0000 O   0  0  0  0  0  0  0  0  0  0  0  0
    5.8301    4.1830    0.0000 O   0  0  0  0  0  0  0  0  0  0  0  0
    6.8301    2.4510    0.0000 O   0  0  0  0  0  0  0  0  0  0  0  0
    2.8660   -1.6830    0.0000 N   0  0  3  0  0  0  0  0  0  0  0  0
    5.4641    2.8170    0.0000 N   0  0  0  0  0  0  0  0  0  0  0  0
    3.7320   -1.1830    0.0000 C   0  0  0  0  0  0  0  0  0  0  0  0
    3.7320   -0.1830    0.0000 C   0  0  3  0  0  0  0  0  0  0  0  0
    2.0000   -1.1830    0.0000 C   0  0  0  0  0  0  0  0  0  0  0  0
    2.8660   -2.6830    0.0000 C   0  0  0  0  0  0  0  0  0  0  0  0
    2.0000   -0.1830    0.0000 C   0  0  0  0  0  0  0  0  0  0  0  0
    4.5981    0.3170    0.0000 C   0  0  0  0  0  0  0  0  0  0  0  0
    2.0000   -3.1830    0.0000 C   0  0  0  0  0  0  0  0  0  0  0  0
    4.5981    1.3170    0.0000 C   0  0  0  0  0  0  0  0  0  0  0  0
    5.4641   -0.1830    0.0000 C   0  0  0  0  0  0  0  0  0  0  0  0
    5.4641    1.8170    0.0000 C   0  0  0  0  0  0  0  0  0  0  0  0
    2.0000   -4.1830    0.0000 C   0  0  0  0  0  0  0  0  0  0  0  0
    6.3301    0.3170    0.0000 C   0  0  0  0  0  0  0  0  0  0  0  0
    6.3301    1.3170    0.0000 C   0  0  0  0  0  0  0  0  0  0  0  0
    7.1962    3.8170    0.0000 C   0  0  0  0  0  0  0  0  0  0  0  0
    3.7320    0.4370    0.0000 H   0  0  0  0  0  0  0  0  0  0  0  0
    3.9441   -1.7656    0.0000 H   0  0  0  0  0  0  0  0  0  0  0  0
    4.3426   -1.0754    0.0000 H   0  0  0  0  0  0  0  0  0  0  0  0
    1.3894   -1.0754    0.0000 H   0  0  0  0  0  0  0  0  0  0  0  0
    1.7880   -1.7656    0.0000 H   0  0  0  0  0  0  0  0  0  0  0  0
    3.0781   -3.2656    0.0000 H   0  0  0  0  0  0  0  0  0  0  0  0
    3.4766   -2.5753    0.0000 H   0  0  0  0  0  0  0  0  0  0  0  0
    1.7880    0.3996    0.0000 H   0  0  0  0  0  0  0  0  0  0  0  0
    1.3894   -0.2907    0.0000 H   0  0  0  0  0  0  0  0  0  0  0  0
    1.7880   -2.6004    0.0000 H   0  0  0  0  0  0  0  0  0  0  0  0
    1.3894   -3.2907    0.0000 H   0  0  0  0  0  0  0  0  0  0  0  0
    4.0611    1.6270    0.0000 H   0  0  0  0  0  0  0  0  0  0  0  0
    5.4641   -0.8030    0.0000 H   0  0  0  0  0  0  0  0  0  0  0  0
    1.3800   -4.1830    0.0000 H   0  0  0  0  0  0  0  0  0  0  0  0
    2.0000   -4.8030    0.0000 H   0  0  0  0  0  0  0  0  0  0  0  0
    2.6200   -4.1830    0.0000 H   0  0  0  0  0  0  0  0  0  0  0  0
    6.8671    0.0070    0.0000 H   0  0  0  0  0  0  0  0  0  0  0  0
    6.8671    1.6270    0.0000 H   0  0  0  0  0  0  0  0  0  0  0  0
    4.9272    3.1270    0.0000 H   0  0  0  0  0  0  0  0  0  0  0  0
    7.5062    3.2800    0.0000 H   0  0  0  0  0  0  0  0  0  0  0  0
    7.7331    4.1270    0.0000 H   0  0  0  0  0  0  0  0  0  0  0  0
    6.8862    4.3539    0.0000 H   0  0  0  0  0  0  0  0  0  0  0  0
  1  3  2  0  0  0  0
  1  4  2  0  0  0  0
  1  6  1  0  0  0  0
  1 20  1  0  0  0  0
  2  8  1  0  0  0  0
  2 11  1  0  0  0  0
  5  7  1  0  0  0  0
  5  9  1  0  0  0  0
  5 10  1  0  0  0  0
  6 16  1  0  0  0  0
  6 39  1  0  0  0  0
  7  8  1  0  0  0  0
  7 22  1  0  0  0  0
  7 23  1  0  0  0  0
  8 12  1  0  0  0  0
  8 21  1  0  0  0  0
  9 11  1  0  0  0  0
  9 24  1  0  0  0  0
  9 25  1  0  0  0  0
 10 13  1  0  0  0  0
 10 26  1  0  0  0  0
 10 27  1  0  0  0  0
 11 28  1  0  0  0  0
 11 29  1  0  0  0  0
 12 14  2  0  0  0  0
 12 15  1  0  0  0  0
 13 17  1  0  0  0  0
 13 30  1  0  0  0  0
 13 31  1  0  0  0  0
 14 16  1  0  0  0  0
 14 32  1  0  0  0  0
 15 18  2  0  0  0  0
 15 33  1  0  0  0  0
 16 19  2  0  0  0  0
 17 34  1  0  0  0  0
 17 35  1  0  0  0  0
 17 36  1  0  0  0  0
 18 19  1  0  0  0  0
 18 37  1  0  0  0  0
 19 38  1  0  0  0  0
 20 40  1  0  0  0  0
 20 41  1  0  0  0  0
 20 42  1  0  0  0  0
M  END
> <PUBCHEM_COMPOUND_CID>
44443916

> <PUBCHEM_COMPOUND_CANONICALIZED>
1

> <PUBCHEM_CACTVS_COMPLEXITY>
394

> <PUBCHEM_CACTVS_HBOND_ACCEPTOR>
5

> <PUBCHEM_CACTVS_HBOND_DONOR>
1

> <PUBCHEM_CACTVS_ROTATABLE_BOND>
5

> <PUBCHEM_CACTVS_SUBSKEYS>
AAADceBzMABAAAAAAAAAAAAAAAAAAAAAAAA8QAAAAAAAAAABAAAAHgQQQAAADBzhmAaywINABAKAAiRCQHCCAAAgAgAIiAAIbIgKJiKAsZmHMABk0AGY6AewwKAOAAAAQAAAAAAAAACAAAAAAAAAAAAAAA==

> <PUBCHEM_IUPAC_OPENEYE_NAME>
N-[3-(4-propylmorpholin-2-yl)phenyl]methanesulfonamide

> <PUBCHEM_IUPAC_CAS_NAME>
N-[3-(4-propyl-2-morpholinyl)phenyl]methanesulfonamide

> <PUBCHEM_IUPAC_NAME_MARKUP>
<I>N</I>-[3-(4-propylmorpholin-2-yl)phenyl]methanesulfonamide

> <PUBCHEM_IUPAC_NAME>
N-[3-(4-propylmorpholin-2-yl)phenyl]methanesulfonamide

> <PUBCHEM_IUPAC_SYSTEMATIC_NAME>
N-[3-(4-propylmorpholin-2-yl)phenyl]methanesulfonamide

> <PUBCHEM_IUPAC_TRADITIONAL_NAME>
N-[3-(4-propylmorpholin-2-yl)phenyl]methanesulfonamide

> <PUBCHEM_IUPAC_INCHI>
InChI=1S/C14H22N2O3S/c1-3-7-16-8-9-19-14(11-16)12-5-4-6-13(10-12)15-20(2,17)18/h4-6,10,14-15H,3,7-9,11H2,1-2H3

> <PUBCHEM_IUPAC_INCHIKEY>
RWVWPCNKFNXJPC-UHFFFAOYSA-N

> <PUBCHEM_XLOGP3>
1.7

> <PUBCHEM_EXACT_MASS>
298.13511374

> <PUBCHEM_MOLECULAR_FORMULA>
C14H22N2O3S

> <PUBCHEM_MOLECULAR_WEIGHT>
298.40

> <PUBCHEM_OPENEYE_CAN_SMILES>
CCCN1CCOC(C1)C2=CC(=CC=C2)NS(=O)(=O)C

> <PUBCHEM_OPENEYE_ISO_SMILES>
CCCN1CCOC(C1)C2=CC(=CC=C2)NS(=O)(=O)C

> <PUBCHEM_CACTVS_TPSA>
67

> <PUBCHEM_MONOISOTOPIC_WEIGHT>
298.13511374

> <PUBCHEM_TOTAL_CHARGE>
0

> <PUBCHEM_HEAVY_ATOM_COUNT>
20

> <PUBCHEM_ATOM_DEF_STEREO_COUNT>
0

> <PUBCHEM_ATOM_UDEF_STEREO_COUNT>
1

> <PUBCHEM_BOND_DEF_STEREO_COUNT>
0

> <PUBCHEM_BOND_UDEF_STEREO_COUNT>
0

> <PUBCHEM_ISOTOPIC_ATOM_COUNT>
0

> <PUBCHEM_COMPONENT_COUNT>
1

> <PUBCHEM_CACTVS_TAUTO_COUNT>
-1

> <PUBCHEM_COORDINATE_TYPE>
1
5
255

> <PUBCHEM_BONDANNOTATIONS>
12  14  8
12  15  8
14  16  8
15  18  8
16  19  8
18  19  8
8  12  3

$$$$
