44589644
  -OEChem-09292322032D

 64 68  0     0  0  0  0  0  0999 V2000
   10.4097    5.0385    0.0000 S   0  0  0  0  0  0  0  0  0  0  0  0
    2.8660   -6.9396    0.0000 F   0  0  0  0  0  0  0  0  0  0  0  0
   11.0311    6.9396    0.0000 F   0  0  0  0  0  0  0  0  0  0  0  0
   11.6709    5.6784    0.0000 F   0  0  0  0  0  0  0  0  0  0  0  0
    9.7699    6.2997    0.0000 F   0  0  0  0  0  0  0  0  0  0  0  0
    6.2619   -4.9396    0.0000 O   0  0  0  0  0  0  0  0  0  0  0  0
    6.1851    3.2631    0.0000 O   0  0  0  0  0  0  0  0  0  0  0  0
    5.6103   -1.2833    0.0000 N   0  0  0  0  0  0  0  0  0  0  0  0
    4.6783   -4.1348    0.0000 N   0  0  0  0  0  0  0  0  0  0  0  0
    6.5422    1.5683    0.0000 N   0  0  0  0  0  0  0  0  0  0  0  0
    4.6783   -5.7443    0.0000 N   0  0  0  0  0  0  0  0  0  0  0  0
    7.8314    2.7250    0.0000 N   0  0  0  0  0  0  0  0  0  0  0  0
    5.9209   -0.3327    0.0000 C   0  0  0  0  0  0  0  0  0  0  0  0
    4.9889   -3.1843    0.0000 C   0  0  0  0  0  0  0  0  0  0  0  0
    4.6318   -1.4895    0.0000 C   0  0  0  0  0  0  0  0  0  0  0  0
    6.2781   -2.0276    0.0000 C   0  0  0  0  0  0  0  0  0  0  0  0
    4.3211   -2.4400    0.0000 C   0  0  0  0  0  0  0  0  0  0  0  0
    5.9674   -2.9781    0.0000 C   0  0  0  0  0  0  0  0  0  0  0  0
    5.2531    0.4116    0.0000 C   0  0  0  0  0  0  0  0  0  0  0  0
    6.8994   -0.1265    0.0000 C   0  0  0  0  0  0  0  0  0  0  0  0
    5.5637    1.3621    0.0000 C   0  0  0  0  0  0  0  0  0  0  0  0
    7.2101    0.8240    0.0000 C   0  0  0  0  0  0  0  0  0  0  0  0
    3.7320   -4.4396    0.0000 C   0  0  0  0  0  0  0  0  0  0  0  0
    5.2619   -4.9396    0.0000 C   0  0  0  0  0  0  0  0  0  0  0  0
    6.8529    2.5188    0.0000 C   0  0  0  0  0  0  0  0  0  0  0  0
    3.7320   -5.4396    0.0000 C   0  0  0  0  0  0  0  0  0  0  0  0
    2.8660   -3.9396    0.0000 C   0  0  0  0  0  0  0  0  0  0  0  0
    2.8660   -5.9396    0.0000 C   0  0  0  0  0  0  0  0  0  0  0  0
    2.0000   -4.4396    0.0000 C   0  0  0  0  0  0  0  0  0  0  0  0
    2.0000   -5.4396    0.0000 C   0  0  0  0  0  0  0  0  0  0  0  0
    8.1421    3.6756    0.0000 C   0  0  0  0  0  0  0  0  0  0  0  0
    9.1206    3.8818    0.0000 C   0  0  0  0  0  0  0  0  0  0  0  0
    7.4742    4.4199    0.0000 C   0  0  0  0  0  0  0  0  0  0  0  0
    9.4312    4.8323    0.0000 C   0  0  0  0  0  0  0  0  0  0  0  0
    7.7849    5.3704    0.0000 C   0  0  0  0  0  0  0  0  0  0  0  0
    8.7634    5.5766    0.0000 C   0  0  0  0  0  0  0  0  0  0  0  0
   10.7204    5.9890    0.0000 C   0  0  0  0  0  0  0  0  0  0  0  0
    6.3350   -0.7942    0.0000 H   0  0  0  0  0  0  0  0  0  0  0  0
    5.4030   -3.6458    0.0000 H   0  0  0  0  0  0  0  0  0  0  0  0
    4.6112   -0.8698    0.0000 H   0  0  0  0  0  0  0  0  0  0  0  0
    4.0179   -1.4021    0.0000 H   0  0  0  0  0  0  0  0  0  0  0  0
    6.8250   -2.3196    0.0000 H   0  0  0  0  0  0  0  0  0  0  0  0
    6.6607   -1.5397    0.0000 H   0  0  0  0  0  0  0  0  0  0  0  0
    3.7742   -2.1480    0.0000 H   0  0  0  0  0  0  0  0  0  0  0  0
    3.9385   -2.9279    0.0000 H   0  0  0  0  0  0  0  0  0  0  0  0
    5.9880   -3.5977    0.0000 H   0  0  0  0  0  0  0  0  0  0  0  0
    6.5812   -3.0654    0.0000 H   0  0  0  0  0  0  0  0  0  0  0  0
    4.7062    0.7036    0.0000 H   0  0  0  0  0  0  0  0  0  0  0  0
    4.8705   -0.0763    0.0000 H   0  0  0  0  0  0  0  0  0  0  0  0
    6.9200   -0.7462    0.0000 H   0  0  0  0  0  0  0  0  0  0  0  0
    7.5132   -0.2139    0.0000 H   0  0  0  0  0  0  0  0  0  0  0  0
    5.5432    1.9817    0.0000 H   0  0  0  0  0  0  0  0  0  0  0  0
    4.9499    1.4494    0.0000 H   0  0  0  0  0  0  0  0  0  0  0  0
    7.7570    0.5320    0.0000 H   0  0  0  0  0  0  0  0  0  0  0  0
    7.5926    1.3119    0.0000 H   0  0  0  0  0  0  0  0  0  0  0  0
    4.8709   -6.3336    0.0000 H   0  0  0  0  0  0  0  0  0  0  0  0
    2.8660   -3.3196    0.0000 H   0  0  0  0  0  0  0  0  0  0  0  0
    8.2455    2.2636    0.0000 H   0  0  0  0  0  0  0  0  0  0  0  0
    1.4631   -4.1296    0.0000 H   0  0  0  0  0  0  0  0  0  0  0  0
    1.4631   -5.7496    0.0000 H   0  0  0  0  0  0  0  0  0  0  0  0
    9.5346    3.4203    0.0000 H   0  0  0  0  0  0  0  0  0  0  0  0
    6.8676    4.2920    0.0000 H   0  0  0  0  0  0  0  0  0  0  0  0
    7.3708    5.8318    0.0000 H   0  0  0  0  0  0  0  0  0  0  0  0
    8.9560    6.1659    0.0000 H   0  0  0  0  0  0  0  0  0  0  0  0
  1 34  1  0  0  0  0
  1 37  1  0  0  0  0
  2 28  1  0  0  0  0
  3 37  1  0  0  0  0
  4 37  1  0  0  0  0
  5 37  1  0  0  0  0
  6 24  2  0  0  0  0
  7 25  2  0  0  0  0
  8 13  1  0  0  0  0
  8 15  1  0  0  0  0
  8 16  1  0  0  0  0
  9 14  1  0  0  0  0
  9 23  1  0  0  0  0
  9 24  1  0  0  0  0
 10 21  1  0  0  0  0
 10 22  1  0  0  0  0
 10 25  1  0  0  0  0
 11 24  1  0  0  0  0
 11 26  1  0  0  0  0
 11 56  1  0  0  0  0
 12 25  1  0  0  0  0
 12 31  1  0  0  0  0
 12 58  1  0  0  0  0
 13 19  1  0  0  0  0
 13 20  1  0  0  0  0
 13 38  1  0  0  0  0
 14 17  1  0  0  0  0
 14 18  1  0  0  0  0
 14 39  1  0  0  0  0
 15 17  1  0  0  0  0
 15 40  1  0  0  0  0
 15 41  1  0  0  0  0
 16 18  1  0  0  0  0
 16 42  1  0  0  0  0
 16 43  1  0  0  0  0
 17 44  1  0  0  0  0
 17 45  1  0  0  0  0
 18 46  1  0  0  0  0
 18 47  1  0  0  0  0
 19 21  1  0  0  0  0
 19 48  1  0  0  0  0
 19 49  1  0  0  0  0
 20 22  1  0  0  0  0
 20 50  1  0  0  0  0
 20 51  1  0  0  0  0
 21 52  1  0  0  0  0
 21 53  1  0  0  0  0
 22 54  1  0  0  0  0
 22 55  1  0  0  0  0
 23 26  2  0  0  0  0
 23 27  1  0  0  0  0
 26 28  1  0  0  0  0
 27 29  2  0  0  0  0
 27 57  1  0  0  0  0
 28 30  2  0  0  0  0
 29 30  1  0  0  0  0
 29 59  1  0  0  0  0
 30 60  1  0  0  0  0
 31 32  2  0  0  0  0
 31 33  1  0  0  0  0
 32 34  1  0  0  0  0
 32 61  1  0  0  0  0
 33 35  2  0  0  0  0
 33 62  1  0  0  0  0
 34 36  2  0  0  0  0
 35 36  1  0  0  0  0
 35 63  1  0  0  0  0
 36 64  1  0  0  0  0
M  END
> <PUBCHEM_COMPOUND_CID>
44589644

> <PUBCHEM_COMPOUND_CANONICALIZED>
1

> <PUBCHEM_CACTVS_COMPLEXITY>
819

> <PUBCHEM_CACTVS_HBOND_ACCEPTOR>
8

> <PUBCHEM_CACTVS_HBOND_DONOR>
2

> <PUBCHEM_CACTVS_ROTATABLE_BOND>
4

> <PUBCHEM_CACTVS_SUBSKEYS>
AAADceB7scBAAAAAAAAAAAAAAAAAAWAAAAA8eIEAAAAAAFgBQAAAHwQQAAAACCjBUBwxwYPAAAiIACRCUACCAAAhChAIiBgIdIiIYCLg0ZGUIAxolgLIyCcQAAAAAAAAACAAACAAAAAAQAAAQAAAAAAAAA==

> <PUBCHEM_IUPAC_OPENEYE_NAME>
4-[4-(4-fluoro-2-oxo-3H-benzimidazol-1-yl)-1-piperidyl]-N-[3-(trifluoromethylsulfanyl)phenyl]piperidine-1-carboxamide

> <PUBCHEM_IUPAC_CAS_NAME>
4-[4-(4-fluoro-2-oxo-3H-benzimidazol-1-yl)-1-piperidinyl]-N-[3-(trifluoromethylthio)phenyl]-1-piperidinecarboxamide

> <PUBCHEM_IUPAC_NAME_MARKUP>
4-[4-(4-fluoro-2-oxo-3<I>H</I>-benzimidazol-1-yl)piperidin-1-yl]-<I>N</I>-[3-(trifluoromethylsulfanyl)phenyl]piperidine-1-carboxamide

> <PUBCHEM_IUPAC_NAME>
4-[4-(4-fluoro-2-oxo-3H-benzimidazol-1-yl)piperidin-1-yl]-N-[3-(trifluoromethylsulfanyl)phenyl]piperidine-1-carboxamide

> <PUBCHEM_IUPAC_SYSTEMATIC_NAME>
4-[4-(4-fluoranyl-2-oxidanylidene-3H-benzimidazol-1-yl)piperidin-1-yl]-N-[3-(trifluoromethylsulfanyl)phenyl]piperidine-1-carboxamide

> <PUBCHEM_IUPAC_TRADITIONAL_NAME>
4-[4-(4-fluoro-2-keto-3H-benzimidazol-1-yl)piperidino]-N-[3-(trifluoromethylthio)phenyl]piperidine-1-carboxamide

> <PUBCHEM_IUPAC_INCHI>
InChI=1S/C25H27F4N5O2S/c26-20-5-2-6-21-22(20)31-24(36)34(21)18-9-11-32(12-10-18)17-7-13-33(14-8-17)23(35)30-16-3-1-4-19(15-16)37-25(27,28)29/h1-6,15,17-18H,7-14H2,(H,30,35)(H,31,36)

> <PUBCHEM_IUPAC_INCHIKEY>
GVLDTEKPXVTOGI-UHFFFAOYSA-N

> <PUBCHEM_XLOGP3_AA>
4.6

> <PUBCHEM_EXACT_MASS>
537.18215894

> <PUBCHEM_MOLECULAR_FORMULA>
C25H27F4N5O2S

> <PUBCHEM_MOLECULAR_WEIGHT>
537.6

> <PUBCHEM_OPENEYE_CAN_SMILES>
C1CN(CCC1N2C3=C(C(=CC=C3)F)NC2=O)C4CCN(CC4)C(=O)NC5=CC(=CC=C5)SC(F)(F)F

> <PUBCHEM_OPENEYE_ISO_SMILES>
C1CN(CCC1N2C3=C(C(=CC=C3)F)NC2=O)C4CCN(CC4)C(=O)NC5=CC(=CC=C5)SC(F)(F)F

> <PUBCHEM_CACTVS_TPSA>
93.2

> <PUBCHEM_MONOISOTOPIC_WEIGHT>
537.18215894

> <PUBCHEM_TOTAL_CHARGE>
0

> <PUBCHEM_HEAVY_ATOM_COUNT>
37

> <PUBCHEM_ATOM_DEF_STEREO_COUNT>
0

> <PUBCHEM_ATOM_UDEF_STEREO_COUNT>
0

> <PUBCHEM_BOND_DEF_STEREO_COUNT>
0

> <PUBCHEM_BOND_UDEF_STEREO_COUNT>
0

> <PUBCHEM_ISOTOPIC_ATOM_COUNT>
0

> <PUBCHEM_COMPONENT_COUNT>
1

> <PUBCHEM_CACTVS_TAUTO_COUNT>
-1

> <PUBCHEM_COORDINATE_TYPE>
1
5
255

> <PUBCHEM_BONDANNOTATIONS>
11  24  8
11  26  8
23  26  8
23  27  8
26  28  8
27  29  8
28  30  8
29  30  8
31  32  8
31  33  8
32  34  8
33  35  8
34  36  8
35  36  8
9  23  8
9  24  8

$$$$
