11689690
  -OEChem-09292322262D

 58 62  0     0  0  0  0  0  0999 V2000
    7.8628    3.3929    0.0000 O   0  0  0  0  0  0  0  0  0  0  0  0
    7.8628    5.4622    0.0000 O   0  0  0  0  0  0  0  0  0  0  0  0
    6.1028    0.4276    0.0000 N   0  0  0  0  0  0  0  0  0  0  0  0
    6.1028    2.4276    0.0000 N   0  0  0  0  0  0  0  0  0  0  0  0
    2.7959   -2.9044    0.0000 N   0  0  0  0  0  0  0  0  0  0  0  0
    6.9688    0.9276    0.0000 C   0  0  0  0  0  0  0  0  0  0  0  0
    5.2368    0.9276    0.0000 C   0  0  0  0  0  0  0  0  0  0  0  0
    6.9688    1.9276    0.0000 C   0  0  0  0  0  0  0  0  0  0  0  0
    5.2368    1.9276    0.0000 C   0  0  0  0  0  0  0  0  0  0  0  0
    6.1028   -0.5724    0.0000 C   0  0  0  0  0  0  0  0  0  0  0  0
    5.2368   -1.0724    0.0000 C   0  0  0  0  0  0  0  0  0  0  0  0
    6.1028    3.4276    0.0000 C   0  0  0  0  0  0  0  0  0  0  0  0
    5.2368   -2.0724    0.0000 C   0  0  0  0  0  0  0  0  0  0  0  0
    4.3707   -2.5724    0.0000 C   0  0  0  0  0  0  0  0  0  0  0  0
    6.9688    3.9276    0.0000 C   0  0  0  0  0  0  0  0  0  0  0  0
    4.2677   -3.5612    0.0000 C   0  0  0  0  0  0  0  0  0  0  0  0
    5.2368    3.9276    0.0000 C   0  0  0  0  0  0  0  0  0  0  0  0
    3.2892   -3.7674    0.0000 C   0  0  0  0  0  0  0  0  0  0  0  0
    3.4629   -2.1673    0.0000 C   0  0  0  0  0  0  0  0  0  0  0  0
    6.9688    4.9276    0.0000 C   0  0  0  0  0  0  0  0  0  0  0  0
    5.2368    4.9276    0.0000 C   0  0  0  0  0  0  0  0  0  0  0  0
    2.9785   -4.7179    0.0000 C   0  0  0  0  0  0  0  0  0  0  0  0
    6.1028    5.4276    0.0000 C   0  0  0  0  0  0  0  0  0  0  0  0
    4.9355   -4.3055    0.0000 C   0  0  0  0  0  0  0  0  0  0  0  0
    8.7688    3.9067    0.0000 C   0  0  0  0  0  0  0  0  0  0  0  0
    8.7688    4.9484    0.0000 C   0  0  0  0  0  0  0  0  0  0  0  0
    3.6464   -5.4622    0.0000 C   0  0  0  0  0  0  0  0  0  0  0  0
    4.6249   -5.2560    0.0000 C   0  0  0  0  0  0  0  0  0  0  0  0
    2.0000   -4.9241    0.0000 C   0  0  0  0  0  0  0  0  0  0  0  0
    7.1809    0.3449    0.0000 H   0  0  0  0  0  0  0  0  0  0  0  0
    7.5794    1.0352    0.0000 H   0  0  0  0  0  0  0  0  0  0  0  0
    4.6262    1.0352    0.0000 H   0  0  0  0  0  0  0  0  0  0  0  0
    5.0247    0.3449    0.0000 H   0  0  0  0  0  0  0  0  0  0  0  0
    7.5794    1.8199    0.0000 H   0  0  0  0  0  0  0  0  0  0  0  0
    7.1809    2.5102    0.0000 H   0  0  0  0  0  0  0  0  0  0  0  0
    5.0247    2.5102    0.0000 H   0  0  0  0  0  0  0  0  0  0  0  0
    4.6262    1.8199    0.0000 H   0  0  0  0  0  0  0  0  0  0  0  0
    6.3148   -1.1551    0.0000 H   0  0  0  0  0  0  0  0  0  0  0  0
    6.7134   -0.4648    0.0000 H   0  0  0  0  0  0  0  0  0  0  0  0
    5.0247   -0.4898    0.0000 H   0  0  0  0  0  0  0  0  0  0  0  0
    4.6262   -1.1801    0.0000 H   0  0  0  0  0  0  0  0  0  0  0  0
    5.4488   -2.6551    0.0000 H   0  0  0  0  0  0  0  0  0  0  0  0
    5.8473   -1.9648    0.0000 H   0  0  0  0  0  0  0  0  0  0  0  0
    4.6998    3.6176    0.0000 H   0  0  0  0  0  0  0  0  0  0  0  0
    3.3351   -1.5607    0.0000 H   0  0  0  0  0  0  0  0  0  0  0  0
    2.1795   -2.8374    0.0000 H   0  0  0  0  0  0  0  0  0  0  0  0
    4.6998    5.2376    0.0000 H   0  0  0  0  0  0  0  0  0  0  0  0
    6.1028    6.0476    0.0000 H   0  0  0  0  0  0  0  0  0  0  0  0
    5.5422   -4.1776    0.0000 H   0  0  0  0  0  0  0  0  0  0  0  0
    8.9779    3.3230    0.0000 H   0  0  0  0  0  0  0  0  0  0  0  0
    9.3797    4.0128    0.0000 H   0  0  0  0  0  0  0  0  0  0  0  0
    9.3797    4.8423    0.0000 H   0  0  0  0  0  0  0  0  0  0  0  0
    8.9779    5.5321    0.0000 H   0  0  0  0  0  0  0  0  0  0  0  0
    3.4537   -6.0515    0.0000 H   0  0  0  0  0  0  0  0  0  0  0  0
    5.0389   -5.7175    0.0000 H   0  0  0  0  0  0  0  0  0  0  0  0
    1.8721   -4.3175    0.0000 H   0  0  0  0  0  0  0  0  0  0  0  0
    1.3933   -5.0520    0.0000 H   0  0  0  0  0  0  0  0  0  0  0  0
    2.1279   -5.5308    0.0000 H   0  0  0  0  0  0  0  0  0  0  0  0
  1 15  1  0  0  0  0
  1 25  1  0  0  0  0
  2 20  1  0  0  0  0
  2 26  1  0  0  0  0
  3  6  1  0  0  0  0
  3  7  1  0  0  0  0
  3 10  1  0  0  0  0
  4  8  1  0  0  0  0
  4  9  1  0  0  0  0
  4 12  1  0  0  0  0
  5 18  1  0  0  0  0
  5 19  1  0  0  0  0
  5 46  1  0  0  0  0
  6  8  1  0  0  0  0
  6 30  1  0  0  0  0
  6 31  1  0  0  0  0
  7  9  1  0  0  0  0
  7 32  1  0  0  0  0
  7 33  1  0  0  0  0
  8 34  1  0  0  0  0
  8 35  1  0  0  0  0
  9 36  1  0  0  0  0
  9 37  1  0  0  0  0
 10 11  1  0  0  0  0
 10 38  1  0  0  0  0
 10 39  1  0  0  0  0
 11 13  1  0  0  0  0
 11 40  1  0  0  0  0
 11 41  1  0  0  0  0
 12 15  2  0  0  0  0
 12 17  1  0  0  0  0
 13 14  1  0  0  0  0
 13 42  1  0  0  0  0
 13 43  1  0  0  0  0
 14 16  1  0  0  0  0
 14 19  2  0  0  0  0
 15 20  1  0  0  0  0
 16 18  1  0  0  0  0
 16 24  2  0  0  0  0
 17 21  2  0  0  0  0
 17 44  1  0  0  0  0
 18 22  2  0  0  0  0
 19 45  1  0  0  0  0
 20 23  2  0  0  0  0
 21 23  1  0  0  0  0
 21 47  1  0  0  0  0
 22 27  1  0  0  0  0
 22 29  1  0  0  0  0
 23 48  1  0  0  0  0
 24 28  1  0  0  0  0
 24 49  1  0  0  0  0
 25 26  1  0  0  0  0
 25 50  1  0  0  0  0
 25 51  1  0  0  0  0
 26 52  1  0  0  0  0
 26 53  1  0  0  0  0
 27 28  2  0  0  0  0
 27 54  1  0  0  0  0
 28 55  1  0  0  0  0
 29 56  1  0  0  0  0
 29 57  1  0  0  0  0
 29 58  1  0  0  0  0
M  END
> <PUBCHEM_COMPOUND_CID>
11689690

> <PUBCHEM_COMPOUND_CANONICALIZED>
1

> <PUBCHEM_CACTVS_COMPLEXITY>
524

> <PUBCHEM_CACTVS_HBOND_ACCEPTOR>
4

> <PUBCHEM_CACTVS_HBOND_DONOR>
1

> <PUBCHEM_CACTVS_ROTATABLE_BOND>
5

> <PUBCHEM_CACTVS_SUBSKEYS>
AAADceB7MAAAAAAAAAAAAAAAAAAAAWAAAAA8aIEAAAAAAFiR9AAAHgAQAAAADAzhngY+xvPJlACgAzRnRACCiCAxIiAI2aAv7JgPZuLEsZuXOCrmwBna6AeQ0MMOgAACAgACUAAAAAQEAASgAAAAAAAAAA==

> <PUBCHEM_IUPAC_OPENEYE_NAME>
3-[3-[4-(2,3-dihydro-1,4-benzodioxin-5-yl)piperazin-1-yl]propyl]-7-methyl-1H-indole

> <PUBCHEM_IUPAC_CAS_NAME>
3-[3-[4-(2,3-dihydro-1,4-benzodioxin-5-yl)-1-piperazinyl]propyl]-7-methyl-1H-indole

> <PUBCHEM_IUPAC_NAME_MARKUP>
3-[3-[4-(2,3-dihydro-1,4-benzodioxin-5-yl)piperazin-1-yl]propyl]-7-methyl-1<I>H</I>-indole

> <PUBCHEM_IUPAC_NAME>
3-[3-[4-(2,3-dihydro-1,4-benzodioxin-5-yl)piperazin-1-yl]propyl]-7-methyl-1H-indole

> <PUBCHEM_IUPAC_SYSTEMATIC_NAME>
3-[3-[4-(2,3-dihydro-1,4-benzodioxin-5-yl)piperazin-1-yl]propyl]-7-methyl-1H-indole

> <PUBCHEM_IUPAC_TRADITIONAL_NAME>
3-[3-[4-(2,3-dihydro-1,4-benzodioxin-5-yl)piperazino]propyl]-7-methyl-1H-indole

> <PUBCHEM_IUPAC_INCHI>
InChI=1S/C24H29N3O2/c1-18-5-2-7-20-19(17-25-23(18)20)6-4-10-26-11-13-27(14-12-26)21-8-3-9-22-24(21)29-16-15-28-22/h2-3,5,7-9,17,25H,4,6,10-16H2,1H3

> <PUBCHEM_IUPAC_INCHIKEY>
DLWMCYZLTYRCLS-UHFFFAOYSA-N

> <PUBCHEM_XLOGP3_AA>
4.4

> <PUBCHEM_EXACT_MASS>
391.22597718

> <PUBCHEM_MOLECULAR_FORMULA>
C24H29N3O2

> <PUBCHEM_MOLECULAR_WEIGHT>
391.5

> <PUBCHEM_OPENEYE_CAN_SMILES>
CC1=C2C(=CC=C1)C(=CN2)CCCN3CCN(CC3)C4=C5C(=CC=C4)OCCO5

> <PUBCHEM_OPENEYE_ISO_SMILES>
CC1=C2C(=CC=C1)C(=CN2)CCCN3CCN(CC3)C4=C5C(=CC=C4)OCCO5

> <PUBCHEM_CACTVS_TPSA>
40.7

> <PUBCHEM_MONOISOTOPIC_WEIGHT>
391.22597718

> <PUBCHEM_TOTAL_CHARGE>
0

> <PUBCHEM_HEAVY_ATOM_COUNT>
29

> <PUBCHEM_ATOM_DEF_STEREO_COUNT>
0

> <PUBCHEM_ATOM_UDEF_STEREO_COUNT>
0

> <PUBCHEM_BOND_DEF_STEREO_COUNT>
0

> <PUBCHEM_BOND_UDEF_STEREO_COUNT>
0

> <PUBCHEM_ISOTOPIC_ATOM_COUNT>
0

> <PUBCHEM_COMPONENT_COUNT>
1

> <PUBCHEM_CACTVS_TAUTO_COUNT>
-1

> <PUBCHEM_COORDINATE_TYPE>
1
5
255

> <PUBCHEM_BONDANNOTATIONS>
12  15  8
12  17  8
14  16  8
14  19  8
15  20  8
16  18  8
16  24  8
17  21  8
18  22  8
20  23  8
21  23  8
22  27  8
24  28  8
27  28  8
5  18  8
5  19  8

$$$$
