44378076
  -OEChem-09292322192D

 58 62  0     1  0  0  0  0  0999 V2000
    5.8579   -5.5107    0.0000 S   0  0  0  0  0  0  0  0  0  0  0  0
    5.6200    2.9184    0.0000 O   0  0  0  0  0  0  0  0  0  0  0  0
    5.9632   -3.3006    0.0000 N   0  0  3  0  0  0  0  0  0  0  0  0
    4.6333   -0.5495    0.0000 N   0  0  3  0  0  0  0  0  0  0  0  0
    2.6200    2.9069    0.0000 N   0  0  0  0  0  0  0  0  0  0  0  0
    5.6541   -2.3495    0.0000 C   0  0  1  0  0  0  0  0  0  0  0  0
    4.6541   -2.3495    0.0000 C   0  0  2  0  0  0  0  0  0  0  0  0
    6.1888   -1.4555    0.0000 C   0  0  0  0  0  0  0  0  0  0  0  0
    4.1195   -1.4555    0.0000 C   0  0  0  0  0  0  0  0  0  0  0  0
    4.3451   -3.3006    0.0000 C   0  0  0  0  0  0  0  0  0  0  0  0
    5.1541   -3.8883    0.0000 C   0  0  0  0  0  0  0  0  0  0  0  0
    5.6750   -0.5495    0.0000 C   0  0  0  0  0  0  0  0  0  0  0  0
    6.9068   -3.5678    0.0000 C   0  0  0  0  0  0  0  0  0  0  0  0
    4.1300    0.3146    0.0000 C   0  0  0  0  0  0  0  0  0  0  0  0
    5.1167   -4.8684    0.0000 C   0  0  0  0  0  0  0  0  0  0  0  0
    3.4700   -3.7515    0.0000 C   0  0  0  0  0  0  0  0  0  0  0  0
    7.2887   -4.4712    0.0000 C   0  0  0  0  0  0  0  0  0  0  0  0
    6.8227   -5.3343    0.0000 C   0  0  0  0  0  0  0  0  0  0  0  0
    4.6267    1.1826    0.0000 C   0  0  0  0  0  0  0  0  0  0  0  0
    4.2256   -5.2867    0.0000 C   0  0  0  0  0  0  0  0  0  0  0  0
    3.4109   -4.7341    0.0000 C   0  0  0  0  0  0  0  0  0  0  0  0
    4.1233    2.0466    0.0000 C   0  0  0  0  0  0  0  0  0  0  0  0
    4.6200    2.9146    0.0000 C   0  0  0  0  0  0  0  0  0  0  0  0
    4.1166    3.7787    0.0000 C   0  0  0  0  0  0  0  0  0  0  0  0
    3.1166    3.7748    0.0000 C   0  0  0  0  0  0  0  0  0  0  0  0
    4.6133    4.6466    0.0000 C   0  0  0  0  0  0  0  0  0  0  0  0
    2.6133    4.6389    0.0000 C   0  0  0  0  0  0  0  0  0  0  0  0
    4.1100    5.5107    0.0000 C   0  0  0  0  0  0  0  0  0  0  0  0
    3.1100    5.5069    0.0000 C   0  0  0  0  0  0  0  0  0  0  0  0
    6.4988   -2.4449    0.0000 H   0  0  0  0  0  0  0  0  0  0  0  0
    3.8095   -2.4449    0.0000 H   0  0  0  0  0  0  0  0  0  0  0  0
    6.6586   -1.8601    0.0000 H   0  0  0  0  0  0  0  0  0  0  0  0
    6.6678   -1.0619    0.0000 H   0  0  0  0  0  0  0  0  0  0  0  0
    3.6405   -1.0619    0.0000 H   0  0  0  0  0  0  0  0  0  0  0  0
    3.6497   -1.8601    0.0000 H   0  0  0  0  0  0  0  0  0  0  0  0
    6.2587   -0.3404    0.0000 H   0  0  0  0  0  0  0  0  0  0  0  0
    5.5689    0.0614    0.0000 H   0  0  0  0  0  0  0  0  0  0  0  0
    7.5174   -3.4601    0.0000 H   0  0  0  0  0  0  0  0  0  0  0  0
    6.9383   -2.9486    0.0000 H   0  0  0  0  0  0  0  0  0  0  0  0
    3.6535    0.7113    0.0000 H   0  0  0  0  0  0  0  0  0  0  0  0
    3.6566   -0.0857    0.0000 H   0  0  0  0  0  0  0  0  0  0  0  0
    2.9506   -3.4129    0.0000 H   0  0  0  0  0  0  0  0  0  0  0  0
    7.7547   -4.8802    0.0000 H   0  0  0  0  0  0  0  0  0  0  0  0
    7.7914   -4.1084    0.0000 H   0  0  0  0  0  0  0  0  0  0  0  0
    6.7952   -5.9537    0.0000 H   0  0  0  0  0  0  0  0  0  0  0  0
    7.4203   -5.4995    0.0000 H   0  0  0  0  0  0  0  0  0  0  0  0
    5.1031    0.7859    0.0000 H   0  0  0  0  0  0  0  0  0  0  0  0
    5.1001    1.5829    0.0000 H   0  0  0  0  0  0  0  0  0  0  0  0
    4.1769   -5.9048    0.0000 H   0  0  0  0  0  0  0  0  0  0  0  0
    2.8546   -5.0079    0.0000 H   0  0  0  0  0  0  0  0  0  0  0  0
    3.6468    2.4433    0.0000 H   0  0  0  0  0  0  0  0  0  0  0  0
    3.6499    1.6463    0.0000 H   0  0  0  0  0  0  0  0  0  0  0  0
    5.2333    4.6490    0.0000 H   0  0  0  0  0  0  0  0  0  0  0  0
    1.9933    4.6365    0.0000 H   0  0  0  0  0  0  0  0  0  0  0  0
    4.4179    6.0488    0.0000 H   0  0  0  0  0  0  0  0  0  0  0  0
    2.7979    6.0426    0.0000 H   0  0  0  0  0  0  0  0  0  0  0  0
    2.0000    2.9045    0.0000 H   0  0  0  0  0  0  0  0  0  0  0  0
    2.9321    2.3712    0.0000 H   0  0  0  0  0  0  0  0  0  0  0  0
  1 15  1  0  0  0  0
  1 18  1  0  0  0  0
  2 23  2  0  0  0  0
  3  6  1  0  0  0  0
  3 11  1  0  0  0  0
  3 13  1  0  0  0  0
  4  9  1  0  0  0  0
  4 12  1  0  0  0  0
  4 14  1  0  0  0  0
  5 25  1  0  0  0  0
  5 57  1  0  0  0  0
  5 58  1  0  0  0  0
  6  7  1  0  0  0  0
  6  8  1  0  0  0  0
  6 30  1  6  0  0  0
  7  9  1  0  0  0  0
  7 10  1  0  0  0  0
  7 31  1  6  0  0  0
  8 12  1  0  0  0  0
  8 32  1  0  0  0  0
  8 33  1  0  0  0  0
  9 34  1  0  0  0  0
  9 35  1  0  0  0  0
 10 11  2  0  0  0  0
 10 16  1  0  0  0  0
 11 15  1  0  0  0  0
 12 36  1  0  0  0  0
 12 37  1  0  0  0  0
 13 17  1  0  0  0  0
 13 38  1  0  0  0  0
 13 39  1  0  0  0  0
 14 19  1  0  0  0  0
 14 40  1  0  0  0  0
 14 41  1  0  0  0  0
 15 20  2  0  0  0  0
 16 21  2  0  0  0  0
 16 42  1  0  0  0  0
 17 18  1  0  0  0  0
 17 43  1  0  0  0  0
 17 44  1  0  0  0  0
 18 45  1  0  0  0  0
 18 46  1  0  0  0  0
 19 22  1  0  0  0  0
 19 47  1  0  0  0  0
 19 48  1  0  0  0  0
 20 21  1  0  0  0  0
 20 49  1  0  0  0  0
 21 50  1  0  0  0  0
 22 23  1  0  0  0  0
 22 51  1  0  0  0  0
 22 52  1  0  0  0  0
 23 24  1  0  0  0  0
 24 25  1  0  0  0  0
 24 26  2  0  0  0  0
 25 27  2  0  0  0  0
 26 28  1  0  0  0  0
 26 53  1  0  0  0  0
 27 29  1  0  0  0  0
 27 54  1  0  0  0  0
 28 29  2  0  0  0  0
 28 55  1  0  0  0  0
 29 56  1  0  0  0  0
M  END
> <PUBCHEM_COMPOUND_CID>
44378076

> <PUBCHEM_COMPOUND_CANONICALIZED>
1

> <PUBCHEM_CACTVS_COMPLEXITY>
587

> <PUBCHEM_CACTVS_HBOND_ACCEPTOR>
5

> <PUBCHEM_CACTVS_HBOND_DONOR>
1

> <PUBCHEM_CACTVS_ROTATABLE_BOND>
5

> <PUBCHEM_CACTVS_SUBSKEYS>
AAADceB7IABAAAAAAAAAAAAAAAAAAWAAAAA8YIAABYAAAFixQAAAHgQQAAAADSzF2ASwwYNAAAiIAqRSQACCAAAlChAIiB0IZMgIIDrg1ZGEIYhgkADoyccciMCOgAAAgAACAQAAAAEAAAQCAAAAAAAAAA==

> <PUBCHEM_IUPAC_OPENEYE_NAME>
1-(2-aminophenyl)-4-[(11R,16S)-6-thia-10,14-diazatetracyclo[8.6.1.05,17.011,16]heptadeca-1(17),2,4-trien-14-yl]butan-1-one

> <PUBCHEM_IUPAC_CAS_NAME>
1-(2-aminophenyl)-4-[(11R,16S)-6-thia-10,14-diazatetracyclo[8.6.1.05,17.011,16]heptadeca-1(17),2,4-trien-14-yl]-1-butanone

> <PUBCHEM_IUPAC_NAME_MARKUP>
1-(2-aminophenyl)-4-[(11<I>R</I>,16<I>S</I>)-6-thia-10,14-diazatetracyclo[8.6.1.0<SUP>5,17</SUP>.0<SUP>11,16</SUP>]heptadeca-1(17),2,4-trien-14-yl]butan-1-one

> <PUBCHEM_IUPAC_NAME>
1-(2-aminophenyl)-4-[(11R,16S)-6-thia-10,14-diazatetracyclo[8.6.1.05,17.011,16]heptadeca-1(17),2,4-trien-14-yl]butan-1-one

> <PUBCHEM_IUPAC_SYSTEMATIC_NAME>
1-(2-aminophenyl)-4-[(11R,16S)-6-thia-10,14-diazatetracyclo[8.6.1.05,17.011,16]heptadeca-1(17),2,4-trien-14-yl]butan-1-one

> <PUBCHEM_IUPAC_TRADITIONAL_NAME>
1-(2-aminophenyl)-4-[(11R,16S)-6-thia-10,14-diazatetracyclo[8.6.1.05,17.011,16]heptadeca-1(17),2,4-trien-14-yl]butan-1-one

> <PUBCHEM_IUPAC_INCHI>
InChI=1S/C24H29N3OS/c25-20-8-2-1-6-18(20)22(28)9-4-12-26-14-11-21-19(16-26)17-7-3-10-23-24(17)27(21)13-5-15-29-23/h1-3,6-8,10,19,21H,4-5,9,11-16,25H2/t19-,21-/m1/s1

> <PUBCHEM_IUPAC_INCHIKEY>
GXSDXKGIICWKIF-TZIWHRDSSA-N

> <PUBCHEM_XLOGP3_AA>
4.3

> <PUBCHEM_EXACT_MASS>
407.20313373

> <PUBCHEM_MOLECULAR_FORMULA>
C24H29N3OS

> <PUBCHEM_MOLECULAR_WEIGHT>
407.6

> <PUBCHEM_OPENEYE_CAN_SMILES>
C1CN2C3CCN(CC3C4=C2C(=CC=C4)SC1)CCCC(=O)C5=CC=CC=C5N

> <PUBCHEM_OPENEYE_ISO_SMILES>
C1CN2[C@@H]3CCN(C[C@@H]3C4=C2C(=CC=C4)SC1)CCCC(=O)C5=CC=CC=C5N

> <PUBCHEM_CACTVS_TPSA>
74.9

> <PUBCHEM_MONOISOTOPIC_WEIGHT>
407.20313373

> <PUBCHEM_TOTAL_CHARGE>
0

> <PUBCHEM_HEAVY_ATOM_COUNT>
29

> <PUBCHEM_ATOM_DEF_STEREO_COUNT>
2

> <PUBCHEM_ATOM_UDEF_STEREO_COUNT>
0

> <PUBCHEM_BOND_DEF_STEREO_COUNT>
0

> <PUBCHEM_BOND_UDEF_STEREO_COUNT>
0

> <PUBCHEM_ISOTOPIC_ATOM_COUNT>
0

> <PUBCHEM_COMPONENT_COUNT>
1

> <PUBCHEM_CACTVS_TAUTO_COUNT>
-1

> <PUBCHEM_COORDINATE_TYPE>
1
5
255

> <PUBCHEM_BONDANNOTATIONS>
10  11  8
10  16  8
11  15  8
15  20  8
16  21  8
20  21  8
24  25  8
24  26  8
25  27  8
26  28  8
27  29  8
28  29  8
6  30  6
7  31  6

$$$$
