145985224
  -OEChem-09292322392D

 70 75  0     1  0  0  0  0  0999 V2000
    3.1235   -0.0780    0.0000 S   0  0  0  0  0  0  0  0  0  0  0  0
    9.7488   -2.7410    0.0000 S   0  0  0  0  0  0  0  0  0  0  0  0
    2.1235   -0.0780    0.0000 O   0  0  0  0  0  0  0  0  0  0  0  0
    4.1235   -0.0780    0.0000 O   0  0  0  0  0  0  0  0  0  0  0  0
    3.1235    0.9220    0.0000 N   0  0  3  0  0  0  0  0  0  0  0  0
    6.5190    0.4743    0.0000 N   0  0  0  0  0  0  0  0  0  0  0  0
    8.0827   -0.7727    0.0000 N   0  0  0  0  0  0  0  0  0  0  0  0
    8.8190   -2.3892    0.0000 N   0  0  0  0  0  0  0  0  0  0  0  0
    4.8835   -3.1126    0.0000 N   0  0  0  0  0  0  0  0  0  0  0  0
    4.0245    1.3559    0.0000 C   0  0  1  0  0  0  0  0  0  0  0  0
    4.2470    2.3308    0.0000 C   0  0  0  0  0  0  0  0  0  0  0  0
    4.8063    0.7324    0.0000 C   0  0  0  0  0  0  0  0  0  0  0  0
    3.6235    3.1126    0.0000 C   0  0  0  0  0  0  0  0  0  0  0  0
    2.2225    1.3559    0.0000 C   0  0  0  0  0  0  0  0  0  0  0  0
    5.7372    1.0977    0.0000 C   0  0  0  0  0  0  0  0  0  0  0  0
    2.6235    3.1126    0.0000 C   0  0  0  0  0  0  0  0  0  0  0  0
    2.0000    2.3308    0.0000 C   0  0  0  0  0  0  0  0  0  0  0  0
    6.3700   -0.5146    0.0000 C   0  0  0  0  0  0  0  0  0  0  0  0
    7.4499    0.8396    0.0000 C   0  0  0  0  0  0  0  0  0  0  0  0
    7.1518   -1.1381    0.0000 C   0  0  0  0  0  0  0  0  0  0  0  0
    8.2317    0.2161    0.0000 C   0  0  0  0  0  0  0  0  0  0  0  0
    3.1235   -1.0780    0.0000 C   0  0  0  0  0  0  0  0  0  0  0  0
    8.8645   -1.3962    0.0000 C   0  0  0  0  0  0  0  0  0  0  0  0
    3.9895   -1.5780    0.0000 C   0  0  0  0  0  0  0  0  0  0  0  0
    2.2575   -1.5780    0.0000 C   0  0  0  0  0  0  0  0  0  0  0  0
    9.8225   -1.1309    0.0000 C   0  0  0  0  0  0  0  0  0  0  0  0
    3.9895   -2.5780    0.0000 C   0  0  0  0  0  0  0  0  0  0  0  0
    2.2575   -2.5780    0.0000 C   0  0  0  0  0  0  0  0  0  0  0  0
    4.8835   -1.0433    0.0000 C   0  0  0  0  0  0  0  0  0  0  0  0
   10.3720   -1.9664    0.0000 C   0  0  0  0  0  0  0  0  0  0  0  0
    3.1235   -3.0780    0.0000 C   0  0  0  0  0  0  0  0  0  0  0  0
   10.2714   -0.2373    0.0000 C   0  0  0  0  0  0  0  0  0  0  0  0
    5.7895   -1.5572    0.0000 C   0  0  0  0  0  0  0  0  0  0  0  0
   11.3703   -1.9084    0.0000 C   0  0  0  0  0  0  0  0  0  0  0  0
   11.2697   -0.1792    0.0000 C   0  0  0  0  0  0  0  0  0  0  0  0
    5.7895   -2.5988    0.0000 C   0  0  0  0  0  0  0  0  0  0  0  0
   11.8191   -1.0148    0.0000 C   0  0  0  0  0  0  0  0  0  0  0  0
    3.9550    0.7398    0.0000 H   0  0  0  0  0  0  0  0  0  0  0  0
    4.8056    2.0618    0.0000 H   0  0  0  0  0  0  0  0  0  0  0  0
    4.6335    2.8156    0.0000 H   0  0  0  0  0  0  0  0  0  0  0  0
    4.3414    0.3222    0.0000 H   0  0  0  0  0  0  0  0  0  0  0  0
    5.1296    0.2034    0.0000 H   0  0  0  0  0  0  0  0  0  0  0  0
    4.1821    3.3817    0.0000 H   0  0  0  0  0  0  0  0  0  0  0  0
    3.4855    3.7171    0.0000 H   0  0  0  0  0  0  0  0  0  0  0  0
    1.6025    1.3559    0.0000 H   0  0  0  0  0  0  0  0  0  0  0  0
    2.0846    0.7514    0.0000 H   0  0  0  0  0  0  0  0  0  0  0  0
    6.2020    1.5080    0.0000 H   0  0  0  0  0  0  0  0  0  0  0  0
    5.4139    1.6268    0.0000 H   0  0  0  0  0  0  0  0  0  0  0  0
    2.7614    3.7171    0.0000 H   0  0  0  0  0  0  0  0  0  0  0  0
    2.0649    3.3817    0.0000 H   0  0  0  0  0  0  0  0  0  0  0  0
    1.6134    2.8156    0.0000 H   0  0  0  0  0  0  0  0  0  0  0  0
    1.4414    2.0618    0.0000 H   0  0  0  0  0  0  0  0  0  0  0  0
    5.7822   -0.3171    0.0000 H   0  0  0  0  0  0  0  0  0  0  0  0
    6.0734   -1.0591    0.0000 H   0  0  0  0  0  0  0  0  0  0  0  0
    7.9147    1.2498    0.0000 H   0  0  0  0  0  0  0  0  0  0  0  0
    7.1266    1.3686    0.0000 H   0  0  0  0  0  0  0  0  0  0  0  0
    6.6869   -1.5483    0.0000 H   0  0  0  0  0  0  0  0  0  0  0  0
    7.4751   -1.6671    0.0000 H   0  0  0  0  0  0  0  0  0  0  0  0
    8.8194    0.0186    0.0000 H   0  0  0  0  0  0  0  0  0  0  0  0
    8.5282    0.7606    0.0000 H   0  0  0  0  0  0  0  0  0  0  0  0
    1.7205   -1.2680    0.0000 H   0  0  0  0  0  0  0  0  0  0  0  0
    1.7205   -2.8880    0.0000 H   0  0  0  0  0  0  0  0  0  0  0  0
    4.8763   -0.4234    0.0000 H   0  0  0  0  0  0  0  0  0  0  0  0
    3.1235   -3.6980    0.0000 H   0  0  0  0  0  0  0  0  0  0  0  0
    9.9307    0.2807    0.0000 H   0  0  0  0  0  0  0  0  0  0  0  0
    6.3253   -1.2451    0.0000 H   0  0  0  0  0  0  0  0  0  0  0  0
   11.7109   -2.4264    0.0000 H   0  0  0  0  0  0  0  0  0  0  0  0
   11.5480    0.3748    0.0000 H   0  0  0  0  0  0  0  0  0  0  0  0
    6.3253   -2.9109    0.0000 H   0  0  0  0  0  0  0  0  0  0  0  0
   12.4381   -0.9788    0.0000 H   0  0  0  0  0  0  0  0  0  0  0  0
  1  3  2  0  0  0  0
  1  4  2  0  0  0  0
  1  5  1  0  0  0  0
  1 22  1  0  0  0  0
  2  8  1  0  0  0  0
  2 30  1  0  0  0  0
  5 10  1  0  0  0  0
  5 14  1  0  0  0  0
  6 15  1  0  0  0  0
  6 18  1  0  0  0  0
  6 19  1  0  0  0  0
  7 20  1  0  0  0  0
  7 21  1  0  0  0  0
  7 23  1  0  0  0  0
  8 23  2  0  0  0  0
  9 27  1  0  0  0  0
  9 36  2  0  0  0  0
 10 11  1  0  0  0  0
 10 12  1  1  0  0  0
 10 38  1  0  0  0  0
 11 13  1  0  0  0  0
 11 39  1  0  0  0  0
 11 40  1  0  0  0  0
 12 15  1  0  0  0  0
 12 41  1  0  0  0  0
 12 42  1  0  0  0  0
 13 16  1  0  0  0  0
 13 43  1  0  0  0  0
 13 44  1  0  0  0  0
 14 17  1  0  0  0  0
 14 45  1  0  0  0  0
 14 46  1  0  0  0  0
 15 47  1  0  0  0  0
 15 48  1  0  0  0  0
 16 17  1  0  0  0  0
 16 49  1  0  0  0  0
 16 50  1  0  0  0  0
 17 51  1  0  0  0  0
 17 52  1  0  0  0  0
 18 20  1  0  0  0  0
 18 53  1  0  0  0  0
 18 54  1  0  0  0  0
 19 21  1  0  0  0  0
 19 55  1  0  0  0  0
 19 56  1  0  0  0  0
 20 57  1  0  0  0  0
 20 58  1  0  0  0  0
 21 59  1  0  0  0  0
 21 60  1  0  0  0  0
 22 24  1  0  0  0  0
 22 25  2  0  0  0  0
 23 26  1  0  0  0  0
 24 27  2  0  0  0  0
 24 29  1  0  0  0  0
 25 28  1  0  0  0  0
 25 61  1  0  0  0  0
 26 30  1  0  0  0  0
 26 32  2  0  0  0  0
 27 31  1  0  0  0  0
 28 31  2  0  0  0  0
 28 62  1  0  0  0  0
 29 33  2  0  0  0  0
 29 63  1  0  0  0  0
 30 34  2  0  0  0  0
 31 64  1  0  0  0  0
 32 35  1  0  0  0  0
 32 65  1  0  0  0  0
 33 36  1  0  0  0  0
 33 66  1  0  0  0  0
 34 37  1  0  0  0  0
 34 67  1  0  0  0  0
 35 37  2  0  0  0  0
 35 68  1  0  0  0  0
 36 69  1  0  0  0  0
 37 70  1  0  0  0  0
M  END
> <PUBCHEM_COMPOUND_CID>
145985224

> <PUBCHEM_COMPOUND_CANONICALIZED>
1

> <PUBCHEM_CACTVS_COMPLEXITY>
846

> <PUBCHEM_CACTVS_HBOND_ACCEPTOR>
8

> <PUBCHEM_CACTVS_HBOND_DONOR>
0

> <PUBCHEM_CACTVS_ROTATABLE_BOND>
6

> <PUBCHEM_CACTVS_SUBSKEYS>
AAADcfB7sABgAAAAAAAAAAAAAAAAAWAAAAA8eIEABYAAAFix/gAAHAQAQAAADCjBXgQ98fMIEAKkAzZnZHDDgDAxAiBJ2Dg4ZJiIYOLA2ZGUIAxggALIyAcQgIAOAAAAACAGAAAAAAAAQAwAAAAAAAAAAA==

> <PUBCHEM_IUPAC_OPENEYE_NAME>
3-[4-[2-[(2S)-1-(5-quinolylsulfonyl)azepan-2-yl]ethyl]piperazin-1-yl]-1,2-benzothiazole

> <PUBCHEM_IUPAC_CAS_NAME>
3-[4-[2-[(2S)-1-(5-quinolinylsulfonyl)-2-azepanyl]ethyl]-1-piperazinyl]-1,2-benzothiazole

> <PUBCHEM_IUPAC_NAME_MARKUP>
3-[4-[2-[(2<I>S</I>)-1-quinolin-5-ylsulfonylazepan-2-yl]ethyl]piperazin-1-yl]-1,2-benzothiazole

> <PUBCHEM_IUPAC_NAME>
3-[4-[2-[(2S)-1-quinolin-5-ylsulfonylazepan-2-yl]ethyl]piperazin-1-yl]-1,2-benzothiazole

> <PUBCHEM_IUPAC_SYSTEMATIC_NAME>
3-[4-[2-[(2S)-1-quinolin-5-ylsulfonylazepan-2-yl]ethyl]piperazin-1-yl]-1,2-benzothiazole

> <PUBCHEM_IUPAC_TRADITIONAL_NAME>
3-[4-[2-[(2S)-1-(5-quinolylsulfonyl)azepan-2-yl]ethyl]piperazino]-1,2-benzothiazole

> <PUBCHEM_IUPAC_INCHI>
InChI=1S/C28H33N5O2S2/c34-37(35,27-13-6-11-25-23(27)10-7-15-29-25)33-16-5-1-2-8-22(33)14-17-31-18-20-32(21-19-31)28-24-9-3-4-12-26(24)36-30-28/h3-4,6-7,9-13,15,22H,1-2,5,8,14,16-21H2/t22-/m0/s1

> <PUBCHEM_IUPAC_INCHIKEY>
LNQZDENLMNRNTR-QFIPXVFZSA-N

> <PUBCHEM_XLOGP3_AA>
5.3

> <PUBCHEM_EXACT_MASS>
535.20756766

> <PUBCHEM_MOLECULAR_FORMULA>
C28H33N5O2S2

> <PUBCHEM_MOLECULAR_WEIGHT>
535.7

> <PUBCHEM_OPENEYE_CAN_SMILES>
C1CCC(N(CC1)S(=O)(=O)C2=CC=CC3=C2C=CC=N3)CCN4CCN(CC4)C5=NSC6=CC=CC=C65

> <PUBCHEM_OPENEYE_ISO_SMILES>
C1CC[C@H](N(CC1)S(=O)(=O)C2=CC=CC3=C2C=CC=N3)CCN4CCN(CC4)C5=NSC6=CC=CC=C65

> <PUBCHEM_CACTVS_TPSA>
106

> <PUBCHEM_MONOISOTOPIC_WEIGHT>
535.20756766

> <PUBCHEM_TOTAL_CHARGE>
0

> <PUBCHEM_HEAVY_ATOM_COUNT>
37

> <PUBCHEM_ATOM_DEF_STEREO_COUNT>
1

> <PUBCHEM_ATOM_UDEF_STEREO_COUNT>
0

> <PUBCHEM_BOND_DEF_STEREO_COUNT>
0

> <PUBCHEM_BOND_UDEF_STEREO_COUNT>
0

> <PUBCHEM_ISOTOPIC_ATOM_COUNT>
0

> <PUBCHEM_COMPONENT_COUNT>
1

> <PUBCHEM_CACTVS_TAUTO_COUNT>
-1

> <PUBCHEM_COORDINATE_TYPE>
1
5
255

> <PUBCHEM_BONDANNOTATIONS>
10  12  5
2  30  8
2  8  8
22  24  8
22  25  8
23  26  8
24  27  8
24  29  8
25  28  8
26  30  8
26  32  8
27  31  8
28  31  8
29  33  8
30  34  8
32  35  8
33  36  8
34  37  8
35  37  8
8  23  8
9  27  8
9  36  8

$$$$
