45265589
  -OEChem-09292322122D

 73 75  0     1  0  0  0  0  0999 V2000
    8.8144    0.0000    0.0000 Cl  0  0  0  0  0  0  0  0  0  0  0  0
   17.2227    7.0419    0.0000 S   0  0  0  0  0  0  0  0  0  0  0  0
    0.0000    3.9163    0.0000 F   0  0  0  0  0  0  0  0  0  0  0  0
    6.0000    3.9163    0.0000 O   0  0  0  0  0  0  0  0  0  0  0  0
   16.3547    7.5385    0.0000 O   0  0  0  0  0  0  0  0  0  0  0  0
   17.7193    7.9098    0.0000 O   0  0  0  0  0  0  0  0  0  0  0  0
   16.7260    6.1739    0.0000 O   0  0  0  0  0  0  0  0  0  0  0  0
   11.5000    6.5144    0.0000 N   0  0  3  0  0  0  0  0  0  0  0  0
    6.0000    5.6484    0.0000 N   0  0  0  0  0  0  0  0  0  0  0  0
    9.0000    5.6484    0.0000 C   0  0  0  0  0  0  0  0  0  0  0  0
    8.5000    6.5144    0.0000 C   0  0  0  0  0  0  0  0  0  0  0  0
    8.5000    4.7823    0.0000 C   0  0  0  0  0  0  0  0  0  0  0  0
    7.0000    5.6484    0.0000 C   0  0  0  0  0  0  0  0  0  0  0  0
    7.5000    6.5144    0.0000 C   0  0  0  0  0  0  0  0  0  0  0  0
    7.5000    4.7823    0.0000 C   0  0  0  0  0  0  0  0  0  0  0  0
   10.0000    5.6484    0.0000 C   0  0  0  0  0  0  0  0  0  0  0  0
   10.5000    6.5144    0.0000 C   0  0  0  0  0  0  0  0  0  0  0  0
   11.9339    7.4154    0.0000 C   0  0  0  0  0  0  0  0  0  0  0  0
   11.9339    5.6134    0.0000 C   0  0  0  0  0  0  0  0  0  0  0  0
   12.9088    7.6379    0.0000 C   0  0  0  0  0  0  0  0  0  0  0  0
   12.9088    5.3909    0.0000 C   0  0  0  0  0  0  0  0  0  0  0  0
   13.6906    7.0144    0.0000 C   0  0  0  0  0  0  0  0  0  0  0  0
   13.6906    6.0144    0.0000 C   0  0  0  0  0  0  0  0  0  0  0  0
    5.5000    4.7823    0.0000 C   0  0  0  0  0  0  0  0  0  0  0  0
   14.5846    7.5490    0.0000 C   0  0  0  0  0  0  0  0  0  0  0  0
   14.5846    5.4797    0.0000 C   0  0  0  0  0  0  0  0  0  0  0  0
    4.5000    4.7823    0.0000 C   0  0  0  0  0  0  0  0  0  0  0  0
   15.4907    7.0352    0.0000 C   0  0  0  0  0  0  0  0  0  0  0  0
   15.4907    5.9936    0.0000 C   0  0  0  0  0  0  0  0  0  0  0  0
    4.0000    3.9163    0.0000 C   0  0  0  0  0  0  0  0  0  0  0  0
    3.0000    3.9163    0.0000 C   0  0  0  0  0  0  0  0  0  0  0  0
   18.0906    6.5452    0.0000 C   0  0  0  0  0  0  0  0  0  0  0  0
    2.5000    3.0503    0.0000 C   0  0  0  0  0  0  0  0  0  0  0  0
    2.5000    4.7823    0.0000 C   0  0  0  0  0  0  0  0  0  0  0  0
    1.5000    3.0503    0.0000 C   0  0  0  0  0  0  0  0  0  0  0  0
    1.5000    4.7823    0.0000 C   0  0  0  0  0  0  0  0  0  0  0  0
    1.0000    3.9163    0.0000 C   0  0  0  0  0  0  0  0  0  0  0  0
    9.3100    5.1114    0.0000 H   0  0  0  0  0  0  0  0  0  0  0  0
    9.0826    6.7264    0.0000 H   0  0  0  0  0  0  0  0  0  0  0  0
    8.3923    7.1250    0.0000 H   0  0  0  0  0  0  0  0  0  0  0  0
    8.3923    4.1718    0.0000 H   0  0  0  0  0  0  0  0  0  0  0  0
    9.0826    4.5703    0.0000 H   0  0  0  0  0  0  0  0  0  0  0  0
    6.6900    5.1114    0.0000 H   0  0  0  0  0  0  0  0  0  0  0  0
    7.6077    7.1250    0.0000 H   0  0  0  0  0  0  0  0  0  0  0  0
    6.9174    6.7264    0.0000 H   0  0  0  0  0  0  0  0  0  0  0  0
    6.9174    4.5703    0.0000 H   0  0  0  0  0  0  0  0  0  0  0  0
    7.6077    4.1718    0.0000 H   0  0  0  0  0  0  0  0  0  0  0  0
    9.8923    5.0378    0.0000 H   0  0  0  0  0  0  0  0  0  0  0  0
   10.5826    5.4363    0.0000 H   0  0  0  0  0  0  0  0  0  0  0  0
   10.6077    7.1250    0.0000 H   0  0  0  0  0  0  0  0  0  0  0  0
    9.9174    6.7264    0.0000 H   0  0  0  0  0  0  0  0  0  0  0  0
    5.6900    6.1853    0.0000 H   0  0  0  0  0  0  0  0  0  0  0  0
   11.9339    8.0354    0.0000 H   0  0  0  0  0  0  0  0  0  0  0  0
   11.3294    7.5533    0.0000 H   0  0  0  0  0  0  0  0  0  0  0  0
   11.3294    5.4755    0.0000 H   0  0  0  0  0  0  0  0  0  0  0  0
   11.9339    4.9934    0.0000 H   0  0  0  0  0  0  0  0  0  0  0  0
   13.3935    8.0244    0.0000 H   0  0  0  0  0  0  0  0  0  0  0  0
   12.6398    8.1965    0.0000 H   0  0  0  0  0  0  0  0  0  0  0  0
   12.6398    4.8323    0.0000 H   0  0  0  0  0  0  0  0  0  0  0  0
   13.3935    5.0043    0.0000 H   0  0  0  0  0  0  0  0  0  0  0  0
   14.5774    8.1690    0.0000 H   0  0  0  0  0  0  0  0  0  0  0  0
   14.5774    4.8598    0.0000 H   0  0  0  0  0  0  0  0  0  0  0  0
    4.1900    5.3193    0.0000 H   0  0  0  0  0  0  0  0  0  0  0  0
   16.0264    5.6815    0.0000 H   0  0  0  0  0  0  0  0  0  0  0  0
    4.3100    3.3794    0.0000 H   0  0  0  0  0  0  0  0  0  0  0  0
   17.7827    6.0071    0.0000 H   0  0  0  0  0  0  0  0  0  0  0  0
   18.6288    6.2373    0.0000 H   0  0  0  0  0  0  0  0  0  0  0  0
   18.3986    7.0833    0.0000 H   0  0  0  0  0  0  0  0  0  0  0  0
    2.8100    2.5133    0.0000 H   0  0  0  0  0  0  0  0  0  0  0  0
    2.8100    5.3193    0.0000 H   0  0  0  0  0  0  0  0  0  0  0  0
    1.1900    2.5133    0.0000 H   0  0  0  0  0  0  0  0  0  0  0  0
    1.1900    5.3193    0.0000 H   0  0  0  0  0  0  0  0  0  0  0  0
    9.8144    0.0000    0.0000 H   0  0  0  0  0  0  0  0  0  0  0  0
  1 73  1  0  0  0  0
  2  5  1  0  0  0  0
  2  6  2  0  0  0  0
  2  7  2  0  0  0  0
  2 32  1  0  0  0  0
  3 37  1  0  0  0  0
  4 24  2  0  0  0  0
  5 28  1  0  0  0  0
  8 17  1  0  0  0  0
  8 18  1  0  0  0  0
  8 19  1  0  0  0  0
  9 13  1  0  0  0  0
  9 24  1  0  0  0  0
  9 52  1  0  0  0  0
 10 11  1  0  0  0  0
 10 12  1  0  0  0  0
 10 16  1  0  0  0  0
 10 38  1  0  0  0  0
 11 14  1  0  0  0  0
 11 39  1  0  0  0  0
 11 40  1  0  0  0  0
 12 15  1  0  0  0  0
 12 41  1  0  0  0  0
 12 42  1  0  0  0  0
 13 14  1  0  0  0  0
 13 15  1  0  0  0  0
 13 43  1  0  0  0  0
 14 44  1  0  0  0  0
 14 45  1  0  0  0  0
 15 46  1  0  0  0  0
 15 47  1  0  0  0  0
 16 17  1  0  0  0  0
 16 48  1  0  0  0  0
 16 49  1  0  0  0  0
 17 50  1  0  0  0  0
 17 51  1  0  0  0  0
 18 20  1  0  0  0  0
 18 53  1  0  0  0  0
 18 54  1  0  0  0  0
 19 21  1  0  0  0  0
 19 55  1  0  0  0  0
 19 56  1  0  0  0  0
 20 22  1  0  0  0  0
 20 57  1  0  0  0  0
 20 58  1  0  0  0  0
 21 23  1  0  0  0  0
 21 59  1  0  0  0  0
 21 60  1  0  0  0  0
 22 23  2  0  0  0  0
 22 25  1  0  0  0  0
 23 26  1  0  0  0  0
 24 27  1  0  0  0  0
 25 28  2  0  0  0  0
 25 61  1  0  0  0  0
 26 29  2  0  0  0  0
 26 62  1  0  0  0  0
 27 30  2  0  0  0  0
 27 63  1  0  0  0  0
 28 29  1  0  0  0  0
 29 64  1  0  0  0  0
 30 31  1  0  0  0  0
 30 65  1  0  0  0  0
 31 33  2  0  0  0  0
 31 34  1  0  0  0  0
 32 66  1  0  0  0  0
 32 67  1  0  0  0  0
 32 68  1  0  0  0  0
 33 35  1  0  0  0  0
 33 69  1  0  0  0  0
 34 36  2  0  0  0  0
 34 70  1  0  0  0  0
 35 37  2  0  0  0  0
 35 71  1  0  0  0  0
 36 37  1  0  0  0  0
 36 72  1  0  0  0  0
M  END
> <PUBCHEM_COMPOUND_CID>
45265589

> <PUBCHEM_COMPOUND_CANONICALIZED>
1

> <PUBCHEM_CACTVS_COMPLEXITY>
829

> <PUBCHEM_CACTVS_HBOND_ACCEPTOR>
6

> <PUBCHEM_CACTVS_HBOND_DONOR>
2

> <PUBCHEM_CACTVS_ROTATABLE_BOND>
8

> <PUBCHEM_CACTVS_SUBSKEYS>
AAADcfB7OQBEAAAAAAAAAAAAAAAAAAAAAAAwYMAABYAAAAABQAAAHwQQAAAADSzBmAyyBoPAAAKIAiFSEHCCAAAgIAAIiIAOCMgIJiKAkROEMAAk1hGIiYeQ0LIOoAABAAAQAABQAAIAACAAAAAAAAAAAA==

> <PUBCHEM_IUPAC_OPENEYE_NAME>
[3-[2-[4-[[(E)-3-(4-fluorophenyl)prop-2-enoyl]amino]cyclohexyl]ethyl]-1,2,4,5-tetrahydro-3-benzazepin-7-yl] methanesulfonate;hydrochloride

> <PUBCHEM_IUPAC_CAS_NAME>
methanesulfonic acid [3-[2-[4-[[(E)-3-(4-fluorophenyl)-1-oxoprop-2-enyl]amino]cyclohexyl]ethyl]-1,2,4,5-tetrahydro-3-benzazepin-7-yl] ester;hydrochloride

> <PUBCHEM_IUPAC_NAME_MARKUP>
[3-[2-[4-[[(<I>E</I>)-3-(4-fluorophenyl)prop-2-enoyl]amino]cyclohexyl]ethyl]-1,2,4,5-tetrahydro-3-benzazepin-7-yl] methanesulfonate;hydrochloride

> <PUBCHEM_IUPAC_NAME>
[3-[2-[4-[[(E)-3-(4-fluorophenyl)prop-2-enoyl]amino]cyclohexyl]ethyl]-1,2,4,5-tetrahydro-3-benzazepin-7-yl] methanesulfonate;hydrochloride

> <PUBCHEM_IUPAC_SYSTEMATIC_NAME>
[3-[2-[4-[[(E)-3-(4-fluorophenyl)prop-2-enoyl]amino]cyclohexyl]ethyl]-1,2,4,5-tetrahydro-3-benzazepin-7-yl] methanesulfonate;hydrochloride

> <PUBCHEM_IUPAC_TRADITIONAL_NAME>
methanesulfonic acid [3-[2-[4-[[(E)-3-(4-fluorophenyl)acryloyl]amino]cyclohexyl]ethyl]-1,2,4,5-tetrahydro-3-benzazepin-7-yl] ester;hydrochloride

> <PUBCHEM_IUPAC_INCHI>
InChI=1S/C28H35FN2O4S.ClH/c1-36(33,34)35-27-12-7-23-15-18-31(19-16-24(23)20-27)17-14-22-4-10-26(11-5-22)30-28(32)13-6-21-2-8-25(29)9-3-21;/h2-3,6-9,12-13,20,22,26H,4-5,10-11,14-19H2,1H3,(H,30,32);1H/b13-6+;

> <PUBCHEM_IUPAC_INCHIKEY>
FJWVIPORYNQKTN-AWFSDRIXSA-N

> <PUBCHEM_EXACT_MASS>
550.2068347

> <PUBCHEM_MOLECULAR_FORMULA>
C28H36ClFN2O4S

> <PUBCHEM_MOLECULAR_WEIGHT>
551.1

> <PUBCHEM_OPENEYE_CAN_SMILES>
CS(=O)(=O)OC1=CC2=C(CCN(CC2)CCC3CCC(CC3)NC(=O)C=CC4=CC=C(C=C4)F)C=C1.Cl

> <PUBCHEM_OPENEYE_ISO_SMILES>
CS(=O)(=O)OC1=CC2=C(CCN(CC2)CCC3CCC(CC3)NC(=O)/C=C/C4=CC=C(C=C4)F)C=C1.Cl

> <PUBCHEM_CACTVS_TPSA>
84.1

> <PUBCHEM_MONOISOTOPIC_WEIGHT>
550.2068347

> <PUBCHEM_TOTAL_CHARGE>
0

> <PUBCHEM_HEAVY_ATOM_COUNT>
37

> <PUBCHEM_ATOM_DEF_STEREO_COUNT>
0

> <PUBCHEM_ATOM_UDEF_STEREO_COUNT>
0

> <PUBCHEM_BOND_DEF_STEREO_COUNT>
1

> <PUBCHEM_BOND_UDEF_STEREO_COUNT>
0

> <PUBCHEM_ISOTOPIC_ATOM_COUNT>
0

> <PUBCHEM_COMPONENT_COUNT>
2

> <PUBCHEM_CACTVS_TAUTO_COUNT>
-1

> <PUBCHEM_COORDINATE_TYPE>
1
5
255

> <PUBCHEM_BONDANNOTATIONS>
22  23  8
22  25  8
23  26  8
25  28  8
26  29  8
28  29  8
31  33  8
31  34  8
33  35  8
34  36  8
35  37  8
36  37  8

$$$$
