46227317
  -OEChem-09292322292D

 39 42  0     1  0  0  0  0  0999 V2000
    3.8372   -3.6347    0.0000 O   0  0  0  0  0  0  0  0  0  0  0  0
    2.9180    1.0621    0.0000 N   0  0  3  0  0  0  0  0  0  0  0  0
    3.7841    0.5621    0.0000 C   0  0  3  0  0  0  0  0  0  0  0  0
    4.6501    1.0621    0.0000 C   0  0  0  0  0  0  0  0  0  0  0  0
    2.0080    0.5552    0.0000 C   0  0  0  0  0  0  0  0  0  0  0  0
    3.8001   -0.4795    0.0000 C   0  0  0  0  0  0  0  0  0  0  0  0
    2.9180    2.0621    0.0000 C   0  0  0  0  0  0  0  0  0  0  0  0
    2.0000   -0.4864    0.0000 C   0  0  0  0  0  0  0  0  0  0  0  0
    2.9021   -1.0072    0.0000 C   0  0  0  0  0  0  0  0  0  0  0  0
    4.6501    2.0621    0.0000 C   0  0  0  0  0  0  0  0  0  0  0  0
    3.7841    2.5621    0.0000 C   0  0  0  0  0  0  0  0  0  0  0  0
    4.7520   -1.0001    0.0000 C   0  0  0  0  0  0  0  0  0  0  0  0
    2.8937   -2.0922    0.0000 C   0  0  0  0  0  0  0  0  0  0  0  0
    5.5601    2.5689    0.0000 C   0  0  0  0  0  0  0  0  0  0  0  0
    3.7680    3.6036    0.0000 C   0  0  0  0  0  0  0  0  0  0  0  0
    4.7688   -2.0849    0.0000 C   0  0  0  0  0  0  0  0  0  0  0  0
    3.8334   -2.6347    0.0000 C   0  0  0  0  0  0  0  0  0  0  0  0
    5.5681    3.6105    0.0000 C   0  0  0  0  0  0  0  0  0  0  0  0
    4.6660    4.1313    0.0000 C   0  0  0  0  0  0  0  0  0  0  0  0
    4.7052   -4.1313    0.0000 C   0  0  0  0  0  0  0  0  0  0  0  0
    4.3234    0.2562    0.0000 H   0  0  0  0  0  0  0  0  0  0  0  0
    4.8621    0.4794    0.0000 H   0  0  0  0  0  0  0  0  0  0  0  0
    5.2607    1.1697    0.0000 H   0  0  0  0  0  0  0  0  0  0  0  0
    1.8035    1.1405    0.0000 H   0  0  0  0  0  0  0  0  0  0  0  0
    1.3964    0.4538    0.0000 H   0  0  0  0  0  0  0  0  0  0  0  0
    2.7060    2.6447    0.0000 H   0  0  0  0  0  0  0  0  0  0  0  0
    2.3074    1.9544    0.0000 H   0  0  0  0  0  0  0  0  0  0  0  0
    1.3900   -0.3756    0.0000 H   0  0  0  0  0  0  0  0  0  0  0  0
    1.7864   -1.0684    0.0000 H   0  0  0  0  0  0  0  0  0  0  0  0
    5.2829   -0.6798    0.0000 H   0  0  0  0  0  0  0  0  0  0  0  0
    2.3556   -2.4001    0.0000 H   0  0  0  0  0  0  0  0  0  0  0  0
    6.0934    2.2527    0.0000 H   0  0  0  0  0  0  0  0  0  0  0  0
    3.2275    3.9073    0.0000 H   0  0  0  0  0  0  0  0  0  0  0  0
    5.3093   -2.3887    0.0000 H   0  0  0  0  0  0  0  0  0  0  0  0
    6.1062    3.9184    0.0000 H   0  0  0  0  0  0  0  0  0  0  0  0
    4.6636    4.7513    0.0000 H   0  0  0  0  0  0  0  0  0  0  0  0
    4.3972   -4.6694    0.0000 H   0  0  0  0  0  0  0  0  0  0  0  0
    5.2433   -4.4392    0.0000 H   0  0  0  0  0  0  0  0  0  0  0  0
    5.0131   -3.5932    0.0000 H   0  0  0  0  0  0  0  0  0  0  0  0
  1 17  1  0  0  0  0
  1 20  1  0  0  0  0
  2  3  1  0  0  0  0
  2  5  1  0  0  0  0
  2  7  1  0  0  0  0
  3  4  1  0  0  0  0
  3  6  1  0  0  0  0
  3 21  1  0  0  0  0
  4 10  1  0  0  0  0
  4 22  1  0  0  0  0
  4 23  1  0  0  0  0
  5  8  1  0  0  0  0
  5 24  1  0  0  0  0
  5 25  1  0  0  0  0
  6  9  2  0  0  0  0
  6 12  1  0  0  0  0
  7 11  1  0  0  0  0
  7 26  1  0  0  0  0
  7 27  1  0  0  0  0
  8  9  1  0  0  0  0
  8 28  1  0  0  0  0
  8 29  1  0  0  0  0
  9 13  1  0  0  0  0
 10 11  1  0  0  0  0
 10 14  2  0  0  0  0
 11 15  2  0  0  0  0
 12 16  2  0  0  0  0
 12 30  1  0  0  0  0
 13 17  2  0  0  0  0
 13 31  1  0  0  0  0
 14 18  1  0  0  0  0
 14 32  1  0  0  0  0
 15 19  1  0  0  0  0
 15 33  1  0  0  0  0
 16 17  1  0  0  0  0
 16 34  1  0  0  0  0
 18 19  2  0  0  0  0
 18 35  1  0  0  0  0
 19 36  1  0  0  0  0
 20 37  1  0  0  0  0
 20 38  1  0  0  0  0
 20 39  1  0  0  0  0
M  END
> <PUBCHEM_COMPOUND_CID>
46227317

> <PUBCHEM_COMPOUND_CANONICALIZED>
1

> <PUBCHEM_CACTVS_COMPLEXITY>
344

> <PUBCHEM_CACTVS_HBOND_ACCEPTOR>
2

> <PUBCHEM_CACTVS_HBOND_DONOR>
0

> <PUBCHEM_CACTVS_ROTATABLE_BOND>
1

> <PUBCHEM_CACTVS_SUBSKEYS>
AAADceB6IAAAAAAAAAAAAAAAAAAAAAAAAAA8eIEAAAAAAACxQAAAHgAAAAAADCzBmAYyBoMABACAAiBCAACCCAAgIAAIiAAODIgMJiKEsRuEMChkwBGIqAeQ0PMOoAABAAAQAABAAAIAACAAAAAAAAAAAA==

> <PUBCHEM_IUPAC_OPENEYE_NAME>
3-methoxy-6,8,13,13a-tetrahydro-5H-isoquinolino[2,1-b]isoquinoline

> <PUBCHEM_IUPAC_CAS_NAME>
3-methoxy-6,8,13,13a-tetrahydro-5H-isoquinolino[2,1-b]isoquinoline

> <PUBCHEM_IUPAC_NAME_MARKUP>
3-methoxy-6,8,13,13<I>a</I>-tetrahydro-5<I>H</I>-isoquinolino[2,1-b]isoquinoline

> <PUBCHEM_IUPAC_NAME>
3-methoxy-6,8,13,13a-tetrahydro-5H-isoquinolino[2,1-b]isoquinoline

> <PUBCHEM_IUPAC_SYSTEMATIC_NAME>
3-methoxy-6,8,13,13a-tetrahydro-5H-isoquinolino[2,1-b]isoquinoline

> <PUBCHEM_IUPAC_TRADITIONAL_NAME>
3-methoxy-6,8,13,13a-tetrahydro-5H-isoquinolin[2,1-b]isoquinoline

> <PUBCHEM_IUPAC_INCHI>
InChI=1S/C18H19NO/c1-20-16-6-7-17-14(10-16)8-9-19-12-15-5-3-2-4-13(15)11-18(17)19/h2-7,10,18H,8-9,11-12H2,1H3

> <PUBCHEM_IUPAC_INCHIKEY>
DVRLIKWPAJQERN-UHFFFAOYSA-N

> <PUBCHEM_XLOGP3_AA>
3.3

> <PUBCHEM_EXACT_MASS>
265.146664230

> <PUBCHEM_MOLECULAR_FORMULA>
C18H19NO

> <PUBCHEM_MOLECULAR_WEIGHT>
265.3

> <PUBCHEM_OPENEYE_CAN_SMILES>
COC1=CC2=C(C=C1)C3CC4=CC=CC=C4CN3CC2

> <PUBCHEM_OPENEYE_ISO_SMILES>
COC1=CC2=C(C=C1)C3CC4=CC=CC=C4CN3CC2

> <PUBCHEM_CACTVS_TPSA>
12.5

> <PUBCHEM_MONOISOTOPIC_WEIGHT>
265.146664230

> <PUBCHEM_TOTAL_CHARGE>
0

> <PUBCHEM_HEAVY_ATOM_COUNT>
20

> <PUBCHEM_ATOM_DEF_STEREO_COUNT>
0

> <PUBCHEM_ATOM_UDEF_STEREO_COUNT>
1

> <PUBCHEM_BOND_DEF_STEREO_COUNT>
0

> <PUBCHEM_BOND_UDEF_STEREO_COUNT>
0

> <PUBCHEM_ISOTOPIC_ATOM_COUNT>
0

> <PUBCHEM_COMPONENT_COUNT>
1

> <PUBCHEM_CACTVS_TAUTO_COUNT>
-1

> <PUBCHEM_COORDINATE_TYPE>
1
5
255

> <PUBCHEM_BONDANNOTATIONS>
10  11  8
10  14  8
11  15  8
12  16  8
13  17  8
14  18  8
15  19  8
16  17  8
18  19  8
3  4  3
6  12  8
6  9  8
9  13  8

$$$$
