10335148
  -OEChem-09292322222D

 44 47  0     1  0  0  0  0  0999 V2000
    6.2781   -0.2233    0.0000 N   0  0  3  0  0  0  0  0  0  0  0  0
    4.6783   -3.9400    0.0000 N   0  0  0  0  0  0  0  0  0  0  0  0
    2.8660   -4.1353    0.0000 N   0  0  0  0  0  0  0  0  0  0  0  0
    7.2566   -0.0171    0.0000 C   0  0  0  0  0  0  0  0  0  0  0  0
    5.9674   -1.1738    0.0000 C   0  0  0  0  0  0  0  0  0  0  0  0
    7.5673    0.9335    0.0000 C   0  0  0  0  0  0  0  0  0  0  0  0
    5.6103    0.5210    0.0000 C   0  0  0  0  0  0  0  0  0  0  0  0
    4.9889   -1.3800    0.0000 C   0  0  0  0  0  0  0  0  0  0  0  0
    6.8994    1.6778    0.0000 C   0  0  0  0  0  0  0  0  0  0  0  0
    5.9209    1.4715    0.0000 C   0  0  0  0  0  0  0  0  0  0  0  0
    4.6783   -2.3305    0.0000 C   0  0  0  0  0  0  0  0  0  0  0  0
    7.2101    2.6283    0.0000 C   0  0  0  0  0  0  0  0  0  0  0  0
    3.7320   -2.6353    0.0000 C   0  0  0  0  0  0  0  0  0  0  0  0
    5.2619   -3.1353    0.0000 C   0  0  0  0  0  0  0  0  0  0  0  0
    3.7320   -3.6353    0.0000 C   0  0  0  0  0  0  0  0  0  0  0  0
    2.8660   -2.1353    0.0000 C   0  0  0  0  0  0  0  0  0  0  0  0
    8.1886    2.8345    0.0000 C   0  0  0  0  0  0  0  0  0  0  0  0
    6.5422    3.3726    0.0000 C   0  0  0  0  0  0  0  0  0  0  0  0
    2.0000   -2.6353    0.0000 C   0  0  0  0  0  0  0  0  0  0  0  0
    8.4993    3.7850    0.0000 C   0  0  0  0  0  0  0  0  0  0  0  0
    6.8529    4.3231    0.0000 C   0  0  0  0  0  0  0  0  0  0  0  0
    2.0000   -3.6353    0.0000 C   0  0  0  0  0  0  0  0  0  0  0  0
    7.8314    4.5293    0.0000 C   0  0  0  0  0  0  0  0  0  0  0  0
    7.2772   -0.6367    0.0000 H   0  0  0  0  0  0  0  0  0  0  0  0
    7.8704   -0.1044    0.0000 H   0  0  0  0  0  0  0  0  0  0  0  0
    5.9880   -1.7935    0.0000 H   0  0  0  0  0  0  0  0  0  0  0  0
    6.5812   -1.2612    0.0000 H   0  0  0  0  0  0  0  0  0  0  0  0
    8.1142    0.6414    0.0000 H   0  0  0  0  0  0  0  0  0  0  0  0
    7.9498    1.4214    0.0000 H   0  0  0  0  0  0  0  0  0  0  0  0
    5.0633    0.8130    0.0000 H   0  0  0  0  0  0  0  0  0  0  0  0
    5.2277    0.0331    0.0000 H   0  0  0  0  0  0  0  0  0  0  0  0
    4.9684   -0.7604    0.0000 H   0  0  0  0  0  0  0  0  0  0  0  0
    4.3751   -1.2927    0.0000 H   0  0  0  0  0  0  0  0  0  0  0  0
    5.5069    1.9330    0.0000 H   0  0  0  0  0  0  0  0  0  0  0  0
    5.8819   -3.1353    0.0000 H   0  0  0  0  0  0  0  0  0  0  0  0
    4.8709   -4.5293    0.0000 H   0  0  0  0  0  0  0  0  0  0  0  0
    2.8660   -1.5153    0.0000 H   0  0  0  0  0  0  0  0  0  0  0  0
    8.6027    2.3730    0.0000 H   0  0  0  0  0  0  0  0  0  0  0  0
    5.9356    3.2447    0.0000 H   0  0  0  0  0  0  0  0  0  0  0  0
    1.4631   -2.3253    0.0000 H   0  0  0  0  0  0  0  0  0  0  0  0
    9.1059    3.9129    0.0000 H   0  0  0  0  0  0  0  0  0  0  0  0
    6.4388    4.7846    0.0000 H   0  0  0  0  0  0  0  0  0  0  0  0
    1.4631   -3.9453    0.0000 H   0  0  0  0  0  0  0  0  0  0  0  0
    8.0240    5.1186    0.0000 H   0  0  0  0  0  0  0  0  0  0  0  0
  1  4  1  0  0  0  0
  1  5  1  0  0  0  0
  1  7  1  0  0  0  0
  2 14  1  0  0  0  0
  2 15  1  0  0  0  0
  2 36  1  0  0  0  0
  3 15  1  0  0  0  0
  3 22  2  0  0  0  0
  4  6  1  0  0  0  0
  4 24  1  0  0  0  0
  4 25  1  0  0  0  0
  5  8  1  0  0  0  0
  5 26  1  0  0  0  0
  5 27  1  0  0  0  0
  6  9  1  0  0  0  0
  6 28  1  0  0  0  0
  6 29  1  0  0  0  0
  7 10  1  0  0  0  0
  7 30  1  0  0  0  0
  7 31  1  0  0  0  0
  8 11  1  0  0  0  0
  8 32  1  0  0  0  0
  8 33  1  0  0  0  0
  9 10  2  0  0  0  0
  9 12  1  0  0  0  0
 10 34  1  0  0  0  0
 11 13  1  0  0  0  0
 11 14  2  0  0  0  0
 12 17  2  0  0  0  0
 12 18  1  0  0  0  0
 13 15  2  0  0  0  0
 13 16  1  0  0  0  0
 14 35  1  0  0  0  0
 16 19  2  0  0  0  0
 16 37  1  0  0  0  0
 17 20  1  0  0  0  0
 17 38  1  0  0  0  0
 18 21  2  0  0  0  0
 18 39  1  0  0  0  0
 19 22  1  0  0  0  0
 19 40  1  0  0  0  0
 20 23  2  0  0  0  0
 20 41  1  0  0  0  0
 21 23  1  0  0  0  0
 21 42  1  0  0  0  0
 22 43  1  0  0  0  0
 23 44  1  0  0  0  0
M  END
> <PUBCHEM_COMPOUND_CID>
10335148

> <PUBCHEM_COMPOUND_CANONICALIZED>
1

> <PUBCHEM_CACTVS_COMPLEXITY>
413

> <PUBCHEM_CACTVS_HBOND_ACCEPTOR>
2

> <PUBCHEM_CACTVS_HBOND_DONOR>
1

> <PUBCHEM_CACTVS_ROTATABLE_BOND>
4

> <PUBCHEM_CACTVS_SUBSKEYS>
AAADceB7AAAAAAAAAAAAAAAAAAAAAWAAAAA8QIAAAAAAAFgB/AAAHAAQAAAADADBGwQ9sN/JkACgAjJnZACCgCmxAqAJ2aA4ZJiIKOLAmZGEIAhogALIyCcQgIAOgAAAAAAAAAAAAAAAAAAAAAAAAAAAAA==

> <PUBCHEM_IUPAC_OPENEYE_NAME>
3-[2-(4-phenyl-3,6-dihydro-2H-pyridin-1-yl)ethyl]-1H-pyrrolo[2,3-b]pyridine

> <PUBCHEM_IUPAC_CAS_NAME>
3-[2-(4-phenyl-3,6-dihydro-2H-pyridin-1-yl)ethyl]-1H-pyrrolo[2,3-b]pyridine

> <PUBCHEM_IUPAC_NAME_MARKUP>
3-[2-(4-phenyl-3,6-dihydro-2<I>H</I>-pyridin-1-yl)ethyl]-1<I>H</I>-pyrrolo[2,3-b]pyridine

> <PUBCHEM_IUPAC_NAME>
3-[2-(4-phenyl-3,6-dihydro-2H-pyridin-1-yl)ethyl]-1H-pyrrolo[2,3-b]pyridine

> <PUBCHEM_IUPAC_SYSTEMATIC_NAME>
3-[2-(4-phenyl-3,6-dihydro-2H-pyridin-1-yl)ethyl]-1H-pyrrolo[2,3-b]pyridine

> <PUBCHEM_IUPAC_TRADITIONAL_NAME>
3-[2-(4-phenyl-3,6-dihydro-2H-pyridin-1-yl)ethyl]-1H-pyrrolo[2,3-b]pyridine

> <PUBCHEM_IUPAC_INCHI>
InChI=1S/C20H21N3/c1-2-5-16(6-3-1)17-8-12-23(13-9-17)14-10-18-15-22-20-19(18)7-4-11-21-20/h1-8,11,15H,9-10,12-14H2,(H,21,22)

> <PUBCHEM_IUPAC_INCHIKEY>
RRNSUOWXTVZIKJ-UHFFFAOYSA-N

> <PUBCHEM_XLOGP3_AA>
3.5

> <PUBCHEM_EXACT_MASS>
303.173547683

> <PUBCHEM_MOLECULAR_FORMULA>
C20H21N3

> <PUBCHEM_MOLECULAR_WEIGHT>
303.4

> <PUBCHEM_OPENEYE_CAN_SMILES>
C1CN(CC=C1C2=CC=CC=C2)CCC3=CNC4=C3C=CC=N4

> <PUBCHEM_OPENEYE_ISO_SMILES>
C1CN(CC=C1C2=CC=CC=C2)CCC3=CNC4=C3C=CC=N4

> <PUBCHEM_CACTVS_TPSA>
31.9

> <PUBCHEM_MONOISOTOPIC_WEIGHT>
303.173547683

> <PUBCHEM_TOTAL_CHARGE>
0

> <PUBCHEM_HEAVY_ATOM_COUNT>
23

> <PUBCHEM_ATOM_DEF_STEREO_COUNT>
0

> <PUBCHEM_ATOM_UDEF_STEREO_COUNT>
0

> <PUBCHEM_BOND_DEF_STEREO_COUNT>
0

> <PUBCHEM_BOND_UDEF_STEREO_COUNT>
0

> <PUBCHEM_ISOTOPIC_ATOM_COUNT>
0

> <PUBCHEM_COMPONENT_COUNT>
1

> <PUBCHEM_CACTVS_TAUTO_COUNT>
-1

> <PUBCHEM_COORDINATE_TYPE>
1
5
255

> <PUBCHEM_BONDANNOTATIONS>
11  13  8
11  14  8
12  17  8
12  18  8
13  15  8
13  16  8
16  19  8
17  20  8
18  21  8
19  22  8
2  14  8
2  15  8
20  23  8
21  23  8
3  15  8
3  22  8

$$$$
