11685267
  -OEChem-09292322492D

 73 79  0     1  0  0  0  0  0999 V2000
   10.0723    0.6909    0.0000 S   0  0  0  0  0  0  0  0  0  0  0  0
    5.3548   -5.6255    0.0000 O   0  0  0  0  0  0  0  0  0  0  0  0
    3.9609   -4.8207    0.0000 N   0  0  0  0  0  0  0  0  0  0  0  0
    7.0723   -1.0412    0.0000 N   0  0  3  0  0  0  0  0  0  0  0  0
   11.5668    1.6614    0.0000 N   0  0  0  0  0  0  0  0  0  0  0  0
   10.1655    2.4704    0.0000 N   0  0  0  0  0  0  0  0  0  0  0  0
   10.9087    3.1396    0.0000 N   0  0  0  0  0  0  0  0  0  0  0  0
   13.8312    5.4817    0.0000 N   0  0  0  0  0  0  0  0  0  0  0  0
    2.8660   -6.5945    0.0000 C   0  0  0  0  0  0  0  0  0  0  0  0
    2.0000   -6.0945    0.0000 C   0  0  0  0  0  0  0  0  0  0  0  0
    2.0000   -7.0945    0.0000 C   0  0  0  0  0  0  0  0  0  0  0  0
    3.8660   -6.5945    0.0000 C   0  0  0  0  0  0  0  0  0  0  0  0
    4.3660   -5.7285    0.0000 C   0  0  0  0  0  0  0  0  0  0  0  0
    5.5640   -4.6536    0.0000 C   0  0  0  0  0  0  0  0  0  0  0  0
    4.6979   -4.1536    0.0000 C   0  0  0  0  0  0  0  0  0  0  0  0
    6.4300   -3.1536    0.0000 C   0  0  0  0  0  0  0  0  0  0  0  0
    5.5640   -2.6536    0.0000 C   0  0  0  0  0  0  0  0  0  0  0  0
    7.3405   -2.7892    0.0000 C   0  0  0  0  0  0  0  0  0  0  0  0
    5.4243   -1.6828    0.0000 C   0  0  0  0  0  0  0  0  0  0  0  0
    7.6258   -1.8508    0.0000 C   0  0  0  0  0  0  0  0  0  0  0  0
    6.0943   -0.9666    0.0000 C   0  0  0  0  0  0  0  0  0  0  0  0
    6.4300   -4.1536    0.0000 C   0  0  0  0  0  0  0  0  0  0  0  0
    4.6979   -3.1536    0.0000 C   0  0  0  0  0  0  0  0  0  0  0  0
    7.5723   -0.1752    0.0000 C   0  0  0  0  0  0  0  0  0  0  0  0
    8.5723   -0.1752    0.0000 C   0  0  0  0  0  0  0  0  0  0  0  0
    9.0723    0.6909    0.0000 C   0  0  0  0  0  0  0  0  0  0  0  0
   10.5723    1.5569    0.0000 C   0  0  0  0  0  0  0  0  0  0  0  0
   11.7747    2.6396    0.0000 C   0  0  0  0  0  0  0  0  0  0  0  0
   12.6882    3.0463    0.0000 C   0  0  0  0  0  0  0  0  0  0  0  0
   12.7928    4.0408    0.0000 C   0  0  0  0  0  0  0  0  0  0  0  0
   12.2359    0.9183    0.0000 C   0  0  0  0  0  0  0  0  0  0  0  0
   13.7063    4.4476    0.0000 C   0  0  0  0  0  0  0  0  0  0  0  0
   13.4973    2.4585    0.0000 C   0  0  0  0  0  0  0  0  0  0  0  0
   11.9407    4.6400    0.0000 C   0  0  0  0  0  0  0  0  0  0  0  0
   14.5153    3.8598    0.0000 C   0  0  0  0  0  0  0  0  0  0  0  0
   14.4108    2.8653    0.0000 C   0  0  0  0  0  0  0  0  0  0  0  0
   12.0416    5.6768    0.0000 C   0  0  0  0  0  0  0  0  0  0  0  0
   12.9932    6.1004    0.0000 C   0  0  0  0  0  0  0  0  0  0  0  0
   13.1016    7.0945    0.0000 C   0  0  0  0  0  0  0  0  0  0  0  0
    3.0265   -7.1934    0.0000 H   0  0  0  0  0  0  0  0  0  0  0  0
    2.2120   -5.5119    0.0000 H   0  0  0  0  0  0  0  0  0  0  0  0
    1.3894   -5.9869    0.0000 H   0  0  0  0  0  0  0  0  0  0  0  0
    1.3894   -7.2022    0.0000 H   0  0  0  0  0  0  0  0  0  0  0  0
    2.2120   -7.6772    0.0000 H   0  0  0  0  0  0  0  0  0  0  0  0
    3.7584   -7.2051    0.0000 H   0  0  0  0  0  0  0  0  0  0  0  0
    4.4486   -6.8066    0.0000 H   0  0  0  0  0  0  0  0  0  0  0  0
    7.4365   -3.4017    0.0000 H   0  0  0  0  0  0  0  0  0  0  0  0
    7.9590   -2.8325    0.0000 H   0  0  0  0  0  0  0  0  0  0  0  0
    5.0776   -1.1689    0.0000 H   0  0  0  0  0  0  0  0  0  0  0  0
    4.8459   -1.9060    0.0000 H   0  0  0  0  0  0  0  0  0  0  0  0
    8.1638   -2.1591    0.0000 H   0  0  0  0  0  0  0  0  0  0  0  0
    8.0465   -1.3954    0.0000 H   0  0  0  0  0  0  0  0  0  0  0  0
    6.2784   -0.3745    0.0000 H   0  0  0  0  0  0  0  0  0  0  0  0
    5.5584   -0.6549    0.0000 H   0  0  0  0  0  0  0  0  0  0  0  0
    6.9669   -4.4636    0.0000 H   0  0  0  0  0  0  0  0  0  0  0  0
    4.1610   -2.8436    0.0000 H   0  0  0  0  0  0  0  0  0  0  0  0
    7.6799    0.4354    0.0000 H   0  0  0  0  0  0  0  0  0  0  0  0
    6.9896    0.0369    0.0000 H   0  0  0  0  0  0  0  0  0  0  0  0
    8.4646   -0.7857    0.0000 H   0  0  0  0  0  0  0  0  0  0  0  0
    9.1549   -0.3872    0.0000 H   0  0  0  0  0  0  0  0  0  0  0  0
    9.1799    1.3014    0.0000 H   0  0  0  0  0  0  0  0  0  0  0  0
    8.4896    0.9029    0.0000 H   0  0  0  0  0  0  0  0  0  0  0  0
   11.7752    0.5034    0.0000 H   0  0  0  0  0  0  0  0  0  0  0  0
   12.6508    0.4575    0.0000 H   0  0  0  0  0  0  0  0  0  0  0  0
   12.6967    1.3331    0.0000 H   0  0  0  0  0  0  0  0  0  0  0  0
   13.4324    1.8419    0.0000 H   0  0  0  0  0  0  0  0  0  0  0  0
   11.3773    4.3813    0.0000 H   0  0  0  0  0  0  0  0  0  0  0  0
   15.0817    4.1120    0.0000 H   0  0  0  0  0  0  0  0  0  0  0  0
   14.9124    2.5008    0.0000 H   0  0  0  0  0  0  0  0  0  0  0  0
   11.5386    6.0392    0.0000 H   0  0  0  0  0  0  0  0  0  0  0  0
   13.7179    7.0274    0.0000 H   0  0  0  0  0  0  0  0  0  0  0  0
   13.1687    7.7109    0.0000 H   0  0  0  0  0  0  0  0  0  0  0  0
   12.4852    7.1617    0.0000 H   0  0  0  0  0  0  0  0  0  0  0  0
  1 26  1  0  0  0  0
  1 27  1  0  0  0  0
  2 13  1  0  0  0  0
  2 14  1  0  0  0  0
  3 13  2  0  0  0  0
  3 15  1  0  0  0  0
  4 20  1  0  0  0  0
  4 21  1  0  0  0  0
  4 24  1  0  0  0  0
  5 27  1  0  0  0  0
  5 28  1  0  0  0  0
  5 31  1  0  0  0  0
  6  7  1  0  0  0  0
  6 27  2  0  0  0  0
  7 28  2  0  0  0  0
  8 32  1  0  0  0  0
  8 38  2  0  0  0  0
  9 10  1  0  0  0  0
  9 11  1  0  0  0  0
  9 12  1  0  0  0  0
  9 40  1  0  0  0  0
 10 11  1  0  0  0  0
 10 41  1  0  0  0  0
 10 42  1  0  0  0  0
 11 43  1  0  0  0  0
 11 44  1  0  0  0  0
 12 13  1  0  0  0  0
 12 45  1  0  0  0  0
 12 46  1  0  0  0  0
 14 15  2  0  0  0  0
 14 22  1  0  0  0  0
 15 23  1  0  0  0  0
 16 17  1  0  0  0  0
 16 18  1  0  0  0  0
 16 22  2  0  0  0  0
 17 19  1  0  0  0  0
 17 23  2  0  0  0  0
 18 20  1  0  0  0  0
 18 47  1  0  0  0  0
 18 48  1  0  0  0  0
 19 21  1  0  0  0  0
 19 49  1  0  0  0  0
 19 50  1  0  0  0  0
 20 51  1  0  0  0  0
 20 52  1  0  0  0  0
 21 53  1  0  0  0  0
 21 54  1  0  0  0  0
 22 55  1  0  0  0  0
 23 56  1  0  0  0  0
 24 25  1  0  0  0  0
 24 57  1  0  0  0  0
 24 58  1  0  0  0  0
 25 26  1  0  0  0  0
 25 59  1  0  0  0  0
 25 60  1  0  0  0  0
 26 61  1  0  0  0  0
 26 62  1  0  0  0  0
 28 29  1  0  0  0  0
 29 30  2  0  0  0  0
 29 33  1  0  0  0  0
 30 32  1  0  0  0  0
 30 34  1  0  0  0  0
 31 63  1  0  0  0  0
 31 64  1  0  0  0  0
 31 65  1  0  0  0  0
 32 35  2  0  0  0  0
 33 36  2  0  0  0  0
 33 66  1  0  0  0  0
 34 37  2  0  0  0  0
 34 67  1  0  0  0  0
 35 36  1  0  0  0  0
 35 68  1  0  0  0  0
 36 69  1  0  0  0  0
 37 38  1  0  0  0  0
 37 70  1  0  0  0  0
 38 39  1  0  0  0  0
 39 71  1  0  0  0  0
 39 72  1  0  0  0  0
 39 73  1  0  0  0  0
M  END
> <PUBCHEM_COMPOUND_CID>
11685267

> <PUBCHEM_COMPOUND_CANONICALIZED>
1

> <PUBCHEM_CACTVS_COMPLEXITY>
816

> <PUBCHEM_CACTVS_HBOND_ACCEPTOR>
7

> <PUBCHEM_CACTVS_HBOND_DONOR>
0

> <PUBCHEM_CACTVS_ROTATABLE_BOND>
8

> <PUBCHEM_CACTVS_SUBSKEYS>
AAADcfB7oABAAAAAAAAAAAAAGAAAAWLAAAA8YIAABYAAAFix/gAAHgQIAAAADQzF3wSz1vcMFEiqA6dydASS2CtvYrAd2CG/bNiOLvLkvbuPOSjkzBPY6YeY2fKOqAABQAASEABQAAKAACQgAAAAAAAAAA==

> <PUBCHEM_IUPAC_OPENEYE_NAME>
2-(cyclopropylmethyl)-7-[3-[[4-methyl-5-(2-methyl-5-quinolyl)-1,2,4-triazol-3-yl]sulfanyl]propyl]-5,6,8,9-tetrahydrooxazolo[4,5-h][3]benzazepine

> <PUBCHEM_IUPAC_CAS_NAME>
2-(cyclopropylmethyl)-7-[3-[[4-methyl-5-(2-methyl-5-quinolinyl)-1,2,4-triazol-3-yl]thio]propyl]-5,6,8,9-tetrahydrooxazolo[4,5-h][3]benzazepine

> <PUBCHEM_IUPAC_NAME_MARKUP>
2-(cyclopropylmethyl)-7-[3-[[4-methyl-5-(2-methylquinolin-5-yl)-1,2,4-triazol-3-yl]sulfanyl]propyl]-5,6,8,9-tetrahydro-[1,3]oxazolo[4,5-h][3]benzazepine

> <PUBCHEM_IUPAC_NAME>
2-(cyclopropylmethyl)-7-[3-[[4-methyl-5-(2-methylquinolin-5-yl)-1,2,4-triazol-3-yl]sulfanyl]propyl]-5,6,8,9-tetrahydro-[1,3]oxazolo[4,5-h][3]benzazepine

> <PUBCHEM_IUPAC_SYSTEMATIC_NAME>
2-(cyclopropylmethyl)-7-[3-[[4-methyl-5-(2-methylquinolin-5-yl)-1,2,4-triazol-3-yl]sulfanyl]propyl]-5,6,8,9-tetrahydro-[1,3]oxazolo[4,5-h][3]benzazepine

> <PUBCHEM_IUPAC_TRADITIONAL_NAME>
2-(cyclopropylmethyl)-7-[3-[[4-methyl-5-(2-methyl-5-quinolyl)-1,2,4-triazol-3-yl]thio]propyl]-5,6,8,9-tetrahydrooxazolo[4,5-h][3]benzazepine

> <PUBCHEM_IUPAC_INCHI>
InChI=1S/C31H34N6OS/c1-20-7-10-24-25(5-3-6-26(24)32-20)30-34-35-31(36(30)2)39-16-4-13-37-14-11-22-18-27-28(19-23(22)12-15-37)38-29(33-27)17-21-8-9-21/h3,5-7,10,18-19,21H,4,8-9,11-17H2,1-2H3

> <PUBCHEM_IUPAC_INCHIKEY>
KFMDKMLEGDZMCX-UHFFFAOYSA-N

> <PUBCHEM_XLOGP3_AA>
6.2

> <PUBCHEM_EXACT_MASS>
538.25148090

> <PUBCHEM_MOLECULAR_FORMULA>
C31H34N6OS

> <PUBCHEM_MOLECULAR_WEIGHT>
538.7

> <PUBCHEM_OPENEYE_CAN_SMILES>
CC1=NC2=CC=CC(=C2C=C1)C3=NN=C(N3C)SCCCN4CCC5=CC6=C(C=C5CC4)OC(=N6)CC7CC7

> <PUBCHEM_OPENEYE_ISO_SMILES>
CC1=NC2=CC=CC(=C2C=C1)C3=NN=C(N3C)SCCCN4CCC5=CC6=C(C=C5CC4)OC(=N6)CC7CC7

> <PUBCHEM_CACTVS_TPSA>
98.2

> <PUBCHEM_MONOISOTOPIC_WEIGHT>
538.25148090

> <PUBCHEM_TOTAL_CHARGE>
0

> <PUBCHEM_HEAVY_ATOM_COUNT>
39

> <PUBCHEM_ATOM_DEF_STEREO_COUNT>
0

> <PUBCHEM_ATOM_UDEF_STEREO_COUNT>
0

> <PUBCHEM_BOND_DEF_STEREO_COUNT>
0

> <PUBCHEM_BOND_UDEF_STEREO_COUNT>
0

> <PUBCHEM_ISOTOPIC_ATOM_COUNT>
0

> <PUBCHEM_COMPONENT_COUNT>
1

> <PUBCHEM_CACTVS_TAUTO_COUNT>
-1

> <PUBCHEM_COORDINATE_TYPE>
1
5
255

> <PUBCHEM_BONDANNOTATIONS>
14  15  8
14  22  8
15  23  8
16  17  8
16  22  8
17  23  8
2  13  8
2  14  8
29  30  8
29  33  8
3  13  8
3  15  8
30  32  8
30  34  8
32  35  8
33  36  8
34  37  8
35  36  8
37  38  8
5  27  8
5  28  8
6  27  8
6  7  8
7  28  8
8  32  8
8  38  8

$$$$
