118726016
  -OEChem-09292322022D

 59 64  0     0  0  0  0  0  0999 V2000
    2.5118    1.8809    0.0000 O   0  0  0  0  0  0  0  0  0  0  0  0
   15.9876    1.2490    0.0000 O   0  0  0  0  0  0  0  0  0  0  0  0
    7.6738   -0.0600    0.0000 N   0  0  0  0  0  0  0  0  0  0  0  0
   10.2719    1.4400    0.0000 N   0  0  0  0  0  0  0  0  0  0  0  0
    2.6067    0.1071    0.0000 N   0  0  0  0  0  0  0  0  0  0  0  0
   12.0039    1.4400    0.0000 N   0  0  0  0  0  0  0  0  0  0  0  0
   11.1379   -0.0600    0.0000 N   0  0  0  0  0  0  0  0  0  0  0  0
   12.8700   -0.0600    0.0000 N   0  0  0  0  0  0  0  0  0  0  0  0
   13.8162    1.2447    0.0000 N   0  0  0  0  0  0  0  0  0  0  0  0
   13.8162   -0.3647    0.0000 N   0  0  0  0  0  0  0  0  0  0  0  0
   12.0039   -1.5600    0.0000 N   0  0  0  0  0  0  0  0  0  0  0  0
    9.4059    0.9400    0.0000 C   0  0  0  0  0  0  0  0  0  0  0  0
    9.4059   -0.0600    0.0000 C   0  0  0  0  0  0  0  0  0  0  0  0
    8.5398    1.4400    0.0000 C   0  0  0  0  0  0  0  0  0  0  0  0
    8.5398   -0.5600    0.0000 C   0  0  0  0  0  0  0  0  0  0  0  0
    7.6738    0.9400    0.0000 C   0  0  0  0  0  0  0  0  0  0  0  0
    6.8078   -0.5600    0.0000 C   0  0  0  0  0  0  0  0  0  0  0  0
    5.9418   -0.0600    0.0000 C   0  0  0  0  0  0  0  0  0  0  0  0
    5.0757   -0.5600    0.0000 C   0  0  0  0  0  0  0  0  0  0  0  0
    4.2097   -0.0600    0.0000 C   0  0  0  0  0  0  0  0  0  0  0  0
   11.1379    0.9400    0.0000 C   0  0  0  0  0  0  0  0  0  0  0  0
    4.0005    0.9118    0.0000 C   0  0  0  0  0  0  0  0  0  0  0  0
    3.3437   -0.5600    0.0000 C   0  0  0  0  0  0  0  0  0  0  0  0
    5.0757   -1.5600    0.0000 C   0  0  0  0  0  0  0  0  0  0  0  0
    3.0118    1.0149    0.0000 C   0  0  0  0  0  0  0  0  0  0  0  0
    3.3437   -1.5600    0.0000 C   0  0  0  0  0  0  0  0  0  0  0  0
    4.2097   -2.0600    0.0000 C   0  0  0  0  0  0  0  0  0  0  0  0
   12.8700    0.9400    0.0000 C   0  0  0  0  0  0  0  0  0  0  0  0
   12.0039   -0.5600    0.0000 C   0  0  0  0  0  0  0  0  0  0  0  0
   14.3998    0.4400    0.0000 C   0  0  0  0  0  0  0  0  0  0  0  0
   15.3998    0.4400    0.0000 C   0  0  0  0  0  0  0  0  0  0  0  0
   15.9876   -0.3690    0.0000 C   0  0  0  0  0  0  0  0  0  0  0  0
   16.9386   -0.0600    0.0000 C   0  0  0  0  0  0  0  0  0  0  0  0
   16.9386    0.9400    0.0000 C   0  0  0  0  0  0  0  0  0  0  0  0
    9.9428    0.6300    0.0000 H   0  0  0  0  0  0  0  0  0  0  0  0
    9.6179   -0.6426    0.0000 H   0  0  0  0  0  0  0  0  0  0  0  0
   10.0164    0.0477    0.0000 H   0  0  0  0  0  0  0  0  0  0  0  0
    8.9384    1.9150    0.0000 H   0  0  0  0  0  0  0  0  0  0  0  0
    8.1413    1.9150    0.0000 H   0  0  0  0  0  0  0  0  0  0  0  0
    8.1413   -1.0350    0.0000 H   0  0  0  0  0  0  0  0  0  0  0  0
    8.9384   -1.0350    0.0000 H   0  0  0  0  0  0  0  0  0  0  0  0
    7.4618    1.5226    0.0000 H   0  0  0  0  0  0  0  0  0  0  0  0
    7.0632    0.8323    0.0000 H   0  0  0  0  0  0  0  0  0  0  0  0
    6.4093   -1.0350    0.0000 H   0  0  0  0  0  0  0  0  0  0  0  0
    7.2063   -1.0350    0.0000 H   0  0  0  0  0  0  0  0  0  0  0  0
    6.3403    0.4149    0.0000 H   0  0  0  0  0  0  0  0  0  0  0  0
    5.5432    0.4149    0.0000 H   0  0  0  0  0  0  0  0  0  0  0  0
   10.2719    2.0600    0.0000 H   0  0  0  0  0  0  0  0  0  0  0  0
    4.6170    0.9779    0.0000 H   0  0  0  0  0  0  0  0  0  0  0  0
    3.9996    1.5318    0.0000 H   0  0  0  0  0  0  0  0  0  0  0  0
    5.6127   -1.8700    0.0000 H   0  0  0  0  0  0  0  0  0  0  0  0
    2.0000   -0.0208    0.0000 H   0  0  0  0  0  0  0  0  0  0  0  0
    2.8068   -1.8700    0.0000 H   0  0  0  0  0  0  0  0  0  0  0  0
    4.2097   -2.6800    0.0000 H   0  0  0  0  0  0  0  0  0  0  0  0
   11.4670   -1.8700    0.0000 H   0  0  0  0  0  0  0  0  0  0  0  0
   12.5409   -1.8700    0.0000 H   0  0  0  0  0  0  0  0  0  0  0  0
   15.7960   -0.9587    0.0000 H   0  0  0  0  0  0  0  0  0  0  0  0
   17.4402   -0.4244    0.0000 H   0  0  0  0  0  0  0  0  0  0  0  0
   17.4402    1.3044    0.0000 H   0  0  0  0  0  0  0  0  0  0  0  0
  1 25  2  0  0  0  0
  2 31  1  0  0  0  0
  2 34  1  0  0  0  0
  3 15  1  0  0  0  0
  3 16  1  0  0  0  0
  3 17  1  0  0  0  0
  4 12  1  0  0  0  0
  4 21  1  0  0  0  0
  4 48  1  0  0  0  0
  5 23  1  0  0  0  0
  5 25  1  0  0  0  0
  5 52  1  0  0  0  0
  6 21  2  0  0  0  0
  6 28  1  0  0  0  0
  7 21  1  0  0  0  0
  7 29  2  0  0  0  0
  8 10  1  0  0  0  0
  8 28  1  0  0  0  0
  8 29  1  0  0  0  0
  9 28  2  0  0  0  0
  9 30  1  0  0  0  0
 10 30  2  0  0  0  0
 11 29  1  0  0  0  0
 11 55  1  0  0  0  0
 11 56  1  0  0  0  0
 12 13  1  0  0  0  0
 12 14  1  0  0  0  0
 12 35  1  0  0  0  0
 13 15  1  0  0  0  0
 13 36  1  0  0  0  0
 13 37  1  0  0  0  0
 14 16  1  0  0  0  0
 14 38  1  0  0  0  0
 14 39  1  0  0  0  0
 15 40  1  0  0  0  0
 15 41  1  0  0  0  0
 16 42  1  0  0  0  0
 16 43  1  0  0  0  0
 17 18  1  0  0  0  0
 17 44  1  0  0  0  0
 17 45  1  0  0  0  0
 18 19  1  0  0  0  0
 18 46  1  0  0  0  0
 18 47  1  0  0  0  0
 19 20  2  0  0  0  0
 19 24  1  0  0  0  0
 20 22  1  0  0  0  0
 20 23  1  0  0  0  0
 22 25  1  0  0  0  0
 22 49  1  0  0  0  0
 22 50  1  0  0  0  0
 23 26  2  0  0  0  0
 24 27  2  0  0  0  0
 24 51  1  0  0  0  0
 26 27  1  0  0  0  0
 26 53  1  0  0  0  0
 27 54  1  0  0  0  0
 30 31  1  0  0  0  0
 31 32  2  0  0  0  0
 32 33  1  0  0  0  0
 32 57  1  0  0  0  0
 33 34  2  0  0  0  0
 33 58  1  0  0  0  0
 34 59  1  0  0  0  0
M  END
> <PUBCHEM_COMPOUND_CID>
118726016

> <PUBCHEM_COMPOUND_CANONICALIZED>
1

> <PUBCHEM_CACTVS_COMPLEXITY>
721

> <PUBCHEM_CACTVS_HBOND_ACCEPTOR>
9

> <PUBCHEM_CACTVS_HBOND_DONOR>
3

> <PUBCHEM_CACTVS_ROTATABLE_BOND>
6

> <PUBCHEM_CACTVS_SUBSKEYS>
AAADceB78AAAAAAAAAAAAAAAAAAAAWLEgAA8WIAAAAAAAFgB/AAAHgAYAAAADCzhmwYx1IfIFECqAq9y9ASSiAsnIqAdiKGubNiOLrLE/buHOSj83BPY6YecmYKOgAAAQAASAAAAAACAACQAAAAAAAAAAA==

> <PUBCHEM_IUPAC_OPENEYE_NAME>
4-[2-[4-[[7-amino-2-(2-furyl)-[1,2,4]triazolo[1,5-a][1,3,5]triazin-5-yl]amino]-1-piperidyl]ethyl]indolin-2-one

> <PUBCHEM_IUPAC_CAS_NAME>
4-[2-[4-[[7-amino-2-(2-furanyl)-[1,2,4]triazolo[1,5-a][1,3,5]triazin-5-yl]amino]-1-piperidinyl]ethyl]-1,3-dihydroindol-2-one

> <PUBCHEM_IUPAC_NAME_MARKUP>
4-[2-[4-[[7-amino-2-(furan-2-yl)-[1,2,4]triazolo[1,5-a][1,3,5]triazin-5-yl]amino]piperidin-1-yl]ethyl]-1,3-dihydroindol-2-one

> <PUBCHEM_IUPAC_NAME>
4-[2-[4-[[7-amino-2-(furan-2-yl)-[1,2,4]triazolo[1,5-a][1,3,5]triazin-5-yl]amino]piperidin-1-yl]ethyl]-1,3-dihydroindol-2-one

> <PUBCHEM_IUPAC_SYSTEMATIC_NAME>
4-[2-[4-[[7-azanyl-2-(furan-2-yl)-[1,2,4]triazolo[1,5-a][1,3,5]triazin-5-yl]amino]piperidin-1-yl]ethyl]-1,3-dihydroindol-2-one

> <PUBCHEM_IUPAC_TRADITIONAL_NAME>
4-[2-[4-[[7-amino-2-(2-furyl)-[1,2,4]triazolo[1,5-a][1,3,5]triazin-5-yl]amino]piperidino]ethyl]oxindole

> <PUBCHEM_IUPAC_INCHI>
InChI=1S/C23H25N9O2/c24-21-28-22(29-23-27-20(30-32(21)23)18-5-2-12-34-18)25-15-7-10-31(11-8-15)9-6-14-3-1-4-17-16(14)13-19(33)26-17/h1-5,12,15H,6-11,13H2,(H,26,33)(H3,24,25,27,28,29,30)

> <PUBCHEM_IUPAC_INCHIKEY>
ZOWFSAKWXNDEGI-UHFFFAOYSA-N

> <PUBCHEM_XLOGP3_AA>
2

> <PUBCHEM_EXACT_MASS>
459.21312107

> <PUBCHEM_MOLECULAR_FORMULA>
C23H25N9O2

> <PUBCHEM_MOLECULAR_WEIGHT>
459.5

> <PUBCHEM_OPENEYE_CAN_SMILES>
C1CN(CCC1NC2=NC3=NC(=NN3C(=N2)N)C4=CC=CO4)CCC5=C6CC(=O)NC6=CC=C5

> <PUBCHEM_OPENEYE_ISO_SMILES>
C1CN(CCC1NC2=NC3=NC(=NN3C(=N2)N)C4=CC=CO4)CCC5=C6CC(=O)NC6=CC=C5

> <PUBCHEM_CACTVS_TPSA>
140

> <PUBCHEM_MONOISOTOPIC_WEIGHT>
459.21312107

> <PUBCHEM_TOTAL_CHARGE>
0

> <PUBCHEM_HEAVY_ATOM_COUNT>
34

> <PUBCHEM_ATOM_DEF_STEREO_COUNT>
0

> <PUBCHEM_ATOM_UDEF_STEREO_COUNT>
0

> <PUBCHEM_BOND_DEF_STEREO_COUNT>
0

> <PUBCHEM_BOND_UDEF_STEREO_COUNT>
0

> <PUBCHEM_ISOTOPIC_ATOM_COUNT>
0

> <PUBCHEM_COMPONENT_COUNT>
1

> <PUBCHEM_CACTVS_TAUTO_COUNT>
-1

> <PUBCHEM_COORDINATE_TYPE>
1
5
255

> <PUBCHEM_BONDANNOTATIONS>
10  30  8
19  20  8
19  24  8
2  31  8
2  34  8
20  23  8
23  26  8
24  27  8
26  27  8
31  32  8
32  33  8
33  34  8
6  21  8
6  28  8
7  21  8
7  29  8
8  10  8
8  28  8
8  29  8
9  28  8
9  30  8

$$$$
