66801120
  -OEChem-09292322342D

 59 63  0     0  0  0  0  0  0999 V2000
   18.0337    2.6058    0.0000 Cl  0  0  0  0  0  0  0  0  0  0  0  0
   12.7715    0.5816    0.0000 S   0  0  0  0  0  0  0  0  0  0  0  0
    2.0000   -0.3946    0.0000 F   0  0  0  0  0  0  0  0  0  0  0  0
    4.7684   -2.6163    0.0000 O   0  0  0  0  0  0  0  0  0  0  0  0
   12.2715    1.4477    0.0000 O   0  0  0  0  0  0  0  0  0  0  0  0
   13.2715   -0.2844    0.0000 O   0  0  0  0  0  0  0  0  0  0  0  0
    8.4414    0.0816    0.0000 N   0  0  0  0  0  0  0  0  0  0  0  0
    5.7402   -2.4071    0.0000 N   0  0  0  0  0  0  0  0  0  0  0  0
   11.9055    0.0816    0.0000 N   0  0  0  0  0  0  0  0  0  0  0  0
    6.7093   -0.9184    0.0000 C   0  0  0  0  0  0  0  0  0  0  0  0
    7.5754   -1.4184    0.0000 C   0  0  0  0  0  0  0  0  0  0  0  0
    6.7093    0.0816    0.0000 C   0  0  0  0  0  0  0  0  0  0  0  0
    8.4414   -0.9184    0.0000 C   0  0  0  0  0  0  0  0  0  0  0  0
    7.5754    0.5816    0.0000 C   0  0  0  0  0  0  0  0  0  0  0  0
    9.3074    0.5816    0.0000 C   0  0  0  0  0  0  0  0  0  0  0  0
    5.8433   -1.4184    0.0000 C   0  0  0  0  0  0  0  0  0  0  0  0
   10.1734    0.0816    0.0000 C   0  0  0  0  0  0  0  0  0  0  0  0
    4.9355   -1.0132    0.0000 C   0  0  0  0  0  0  0  0  0  0  0  0
   11.0395    0.5816    0.0000 C   0  0  0  0  0  0  0  0  0  0  0  0
    4.2677   -1.7576    0.0000 C   0  0  0  0  0  0  0  0  0  0  0  0
    4.6249   -0.0627    0.0000 C   0  0  0  0  0  0  0  0  0  0  0  0
    3.2892   -1.5513    0.0000 C   0  0  0  0  0  0  0  0  0  0  0  0
    3.6464    0.1435    0.0000 C   0  0  0  0  0  0  0  0  0  0  0  0
    2.9785   -0.6008    0.0000 C   0  0  0  0  0  0  0  0  0  0  0  0
   13.6375    1.0816    0.0000 C   0  0  0  0  0  0  0  0  0  0  0  0
   14.5036    0.5816    0.0000 C   0  0  0  0  0  0  0  0  0  0  0  0
   13.6375    2.0816    0.0000 C   0  0  0  0  0  0  0  0  0  0  0  0
   15.3696    1.0816    0.0000 C   0  0  0  0  0  0  0  0  0  0  0  0
   15.3696    2.0816    0.0000 C   0  0  0  0  0  0  0  0  0  0  0  0
   14.5036    2.5816    0.0000 C   0  0  0  0  0  0  0  0  0  0  0  0
   16.2635    0.5470    0.0000 C   0  0  0  0  0  0  0  0  0  0  0  0
   16.2635    2.6163    0.0000 C   0  0  0  0  0  0  0  0  0  0  0  0
   17.1696    1.0608    0.0000 C   0  0  0  0  0  0  0  0  0  0  0  0
   17.1696    2.1024    0.0000 C   0  0  0  0  0  0  0  0  0  0  0  0
    6.7093   -1.5384    0.0000 H   0  0  0  0  0  0  0  0  0  0  0  0
    7.1768   -1.8933    0.0000 H   0  0  0  0  0  0  0  0  0  0  0  0
    7.9739   -1.8933    0.0000 H   0  0  0  0  0  0  0  0  0  0  0  0
    6.4973    0.6642    0.0000 H   0  0  0  0  0  0  0  0  0  0  0  0
    6.0988   -0.0260    0.0000 H   0  0  0  0  0  0  0  0  0  0  0  0
    8.6534   -1.5010    0.0000 H   0  0  0  0  0  0  0  0  0  0  0  0
    9.0520   -0.8107    0.0000 H   0  0  0  0  0  0  0  0  0  0  0  0
    7.9739    1.0566    0.0000 H   0  0  0  0  0  0  0  0  0  0  0  0
    7.1768    1.0566    0.0000 H   0  0  0  0  0  0  0  0  0  0  0  0
    9.7059    1.0566    0.0000 H   0  0  0  0  0  0  0  0  0  0  0  0
    8.9089    1.0566    0.0000 H   0  0  0  0  0  0  0  0  0  0  0  0
    9.7749   -0.3933    0.0000 H   0  0  0  0  0  0  0  0  0  0  0  0
   10.5720   -0.3933    0.0000 H   0  0  0  0  0  0  0  0  0  0  0  0
   11.4380    1.0566    0.0000 H   0  0  0  0  0  0  0  0  0  0  0  0
   10.6409    1.0566    0.0000 H   0  0  0  0  0  0  0  0  0  0  0  0
    5.0389    0.3987    0.0000 H   0  0  0  0  0  0  0  0  0  0  0  0
   11.9055   -0.5384    0.0000 H   0  0  0  0  0  0  0  0  0  0  0  0
    2.8751   -2.0128    0.0000 H   0  0  0  0  0  0  0  0  0  0  0  0
    3.4537    0.7328    0.0000 H   0  0  0  0  0  0  0  0  0  0  0  0
   14.5036   -0.0384    0.0000 H   0  0  0  0  0  0  0  0  0  0  0  0
   13.1006    2.3916    0.0000 H   0  0  0  0  0  0  0  0  0  0  0  0
   14.5036    3.2016    0.0000 H   0  0  0  0  0  0  0  0  0  0  0  0
   16.2564   -0.0730    0.0000 H   0  0  0  0  0  0  0  0  0  0  0  0
   16.2564    3.2362    0.0000 H   0  0  0  0  0  0  0  0  0  0  0  0
   17.7053    0.7488    0.0000 H   0  0  0  0  0  0  0  0  0  0  0  0
  1 34  1  0  0  0  0
  2  5  2  0  0  0  0
  2  6  2  0  0  0  0
  2  9  1  0  0  0  0
  2 25  1  0  0  0  0
  3 24  1  0  0  0  0
  4  8  1  0  0  0  0
  4 20  1  0  0  0  0
  7 13  1  0  0  0  0
  7 14  1  0  0  0  0
  7 15  1  0  0  0  0
  8 16  2  0  0  0  0
  9 19  1  0  0  0  0
  9 51  1  0  0  0  0
 10 11  1  0  0  0  0
 10 12  1  0  0  0  0
 10 16  1  0  0  0  0
 10 35  1  0  0  0  0
 11 13  1  0  0  0  0
 11 36  1  0  0  0  0
 11 37  1  0  0  0  0
 12 14  1  0  0  0  0
 12 38  1  0  0  0  0
 12 39  1  0  0  0  0
 13 40  1  0  0  0  0
 13 41  1  0  0  0  0
 14 42  1  0  0  0  0
 14 43  1  0  0  0  0
 15 17  1  0  0  0  0
 15 44  1  0  0  0  0
 15 45  1  0  0  0  0
 16 18  1  0  0  0  0
 17 19  1  0  0  0  0
 17 46  1  0  0  0  0
 17 47  1  0  0  0  0
 18 20  2  0  0  0  0
 18 21  1  0  0  0  0
 19 48  1  0  0  0  0
 19 49  1  0  0  0  0
 20 22  1  0  0  0  0
 21 23  2  0  0  0  0
 21 50  1  0  0  0  0
 22 24  2  0  0  0  0
 22 52  1  0  0  0  0
 23 24  1  0  0  0  0
 23 53  1  0  0  0  0
 25 26  2  0  0  0  0
 25 27  1  0  0  0  0
 26 28  1  0  0  0  0
 26 54  1  0  0  0  0
 27 30  2  0  0  0  0
 27 55  1  0  0  0  0
 28 29  2  0  0  0  0
 28 31  1  0  0  0  0
 29 30  1  0  0  0  0
 29 32  1  0  0  0  0
 30 56  1  0  0  0  0
 31 33  2  0  0  0  0
 31 57  1  0  0  0  0
 32 34  2  0  0  0  0
 32 58  1  0  0  0  0
 33 34  1  0  0  0  0
 33 59  1  0  0  0  0
M  END
> <PUBCHEM_COMPOUND_CID>
66801120

> <PUBCHEM_COMPOUND_CANONICALIZED>
1

> <PUBCHEM_CACTVS_COMPLEXITY>
776

> <PUBCHEM_CACTVS_HBOND_ACCEPTOR>
7

> <PUBCHEM_CACTVS_HBOND_DONOR>
1

> <PUBCHEM_CACTVS_ROTATABLE_BOND>
7

> <PUBCHEM_CACTVS_SUBSKEYS>
AAADceB7MQBEAAAAAAAAAAAAAAAAAWAAAAA8YMEAAAAAAFjB9AAAHwYUQAAADQ7B3iwwh9NQAAKpA6RyQnDCABAkJQAomLk+TtoIJrqB15OEMYBm0BmIyceYyOCOlAAAoAAYAAAoAAFAADAAAAAAAAAAAA==

> <PUBCHEM_IUPAC_OPENEYE_NAME>
6-chloro-N-[3-[4-(6-fluoro-1,2-benzoxazol-3-yl)-1-piperidyl]propyl]naphthalene-2-sulfonamide

> <PUBCHEM_IUPAC_CAS_NAME>
6-chloro-N-[3-[4-(6-fluoro-1,2-benzoxazol-3-yl)-1-piperidinyl]propyl]-2-naphthalenesulfonamide

> <PUBCHEM_IUPAC_NAME_MARKUP>
6-chloro-<I>N</I>-[3-[4-(6-fluoro-1,2-benzoxazol-3-yl)piperidin-1-yl]propyl]naphthalene-2-sulfonamide

> <PUBCHEM_IUPAC_NAME>
6-chloro-N-[3-[4-(6-fluoro-1,2-benzoxazol-3-yl)piperidin-1-yl]propyl]naphthalene-2-sulfonamide

> <PUBCHEM_IUPAC_SYSTEMATIC_NAME>
6-chloranyl-N-[3-[4-(6-fluoranyl-1,2-benzoxazol-3-yl)piperidin-1-yl]propyl]naphthalene-2-sulfonamide

> <PUBCHEM_IUPAC_TRADITIONAL_NAME>
6-chloro-N-[3-[4-(6-fluoroindoxazen-3-yl)piperidino]propyl]naphthalene-2-sulfonamide

> <PUBCHEM_IUPAC_INCHI>
InChI=1S/C25H25ClFN3O3S/c26-20-4-2-19-15-22(6-3-18(19)14-20)34(31,32)28-10-1-11-30-12-8-17(9-13-30)25-23-7-5-21(27)16-24(23)33-29-25/h2-7,14-17,28H,1,8-13H2

> <PUBCHEM_IUPAC_INCHIKEY>
MAKSMZIXXYIHFQ-UHFFFAOYSA-N

> <PUBCHEM_XLOGP3_AA>
5.3

> <PUBCHEM_EXACT_MASS>
501.1289187

> <PUBCHEM_MOLECULAR_FORMULA>
C25H25ClFN3O3S

> <PUBCHEM_MOLECULAR_WEIGHT>
502.0

> <PUBCHEM_OPENEYE_CAN_SMILES>
C1CN(CCC1C2=NOC3=C2C=CC(=C3)F)CCCNS(=O)(=O)C4=CC5=C(C=C4)C=C(C=C5)Cl

> <PUBCHEM_OPENEYE_ISO_SMILES>
C1CN(CCC1C2=NOC3=C2C=CC(=C3)F)CCCNS(=O)(=O)C4=CC5=C(C=C4)C=C(C=C5)Cl

> <PUBCHEM_CACTVS_TPSA>
83.8

> <PUBCHEM_MONOISOTOPIC_WEIGHT>
501.1289187

> <PUBCHEM_TOTAL_CHARGE>
0

> <PUBCHEM_HEAVY_ATOM_COUNT>
34

> <PUBCHEM_ATOM_DEF_STEREO_COUNT>
0

> <PUBCHEM_ATOM_UDEF_STEREO_COUNT>
0

> <PUBCHEM_BOND_DEF_STEREO_COUNT>
0

> <PUBCHEM_BOND_UDEF_STEREO_COUNT>
0

> <PUBCHEM_ISOTOPIC_ATOM_COUNT>
0

> <PUBCHEM_COMPONENT_COUNT>
1

> <PUBCHEM_CACTVS_TAUTO_COUNT>
-1

> <PUBCHEM_COORDINATE_TYPE>
1
5
255

> <PUBCHEM_BONDANNOTATIONS>
16  18  8
18  20  8
18  21  8
20  22  8
21  23  8
22  24  8
23  24  8
25  26  8
25  27  8
26  28  8
27  30  8
28  29  8
28  31  8
29  30  8
29  32  8
31  33  8
32  34  8
33  34  8
4  20  8
4  8  8
8  16  8

$$$$
