11590828
  -OEChem-09292322492D

 63 67  0     1  0  0  0  0  0999 V2000
    9.2062    2.3567    0.0000 S   0  0  0  0  0  0  0  0  0  0  0  0
    4.4887   -3.9597    0.0000 O   0  0  0  0  0  0  0  0  0  0  0  0
   12.0301    5.6902    0.0000 O   0  0  0  0  0  0  0  0  0  0  0  0
    6.2062    0.6246    0.0000 N   0  0  3  0  0  0  0  0  0  0  0  0
    3.0949   -3.1549    0.0000 N   0  0  0  0  0  0  0  0  0  0  0  0
   10.7008    3.3272    0.0000 N   0  0  0  0  0  0  0  0  0  0  0  0
    9.2995    4.1362    0.0000 N   0  0  0  0  0  0  0  0  0  0  0  0
   10.0426    4.8054    0.0000 N   0  0  0  0  0  0  0  0  0  0  0  0
   13.4314    4.8812    0.0000 N   0  0  0  0  0  0  0  0  0  0  0  0
    6.7598   -0.1850    0.0000 C   0  0  0  0  0  0  0  0  0  0  0  0
    5.2283    0.6992    0.0000 C   0  0  0  0  0  0  0  0  0  0  0  0
    6.4745   -1.1234    0.0000 C   0  0  0  0  0  0  0  0  0  0  0  0
    4.5583   -0.0171    0.0000 C   0  0  0  0  0  0  0  0  0  0  0  0
    5.5640   -1.4878    0.0000 C   0  0  0  0  0  0  0  0  0  0  0  0
    4.6979   -0.9879    0.0000 C   0  0  0  0  0  0  0  0  0  0  0  0
    6.7062    1.4906    0.0000 C   0  0  0  0  0  0  0  0  0  0  0  0
    7.7062    1.4906    0.0000 C   0  0  0  0  0  0  0  0  0  0  0  0
    5.5640   -2.4878    0.0000 C   0  0  0  0  0  0  0  0  0  0  0  0
    3.8319   -1.4878    0.0000 C   0  0  0  0  0  0  0  0  0  0  0  0
    4.6979   -2.9878    0.0000 C   0  0  0  0  0  0  0  0  0  0  0  0
    3.8319   -2.4878    0.0000 C   0  0  0  0  0  0  0  0  0  0  0  0
    8.2062    2.3567    0.0000 C   0  0  0  0  0  0  0  0  0  0  0  0
    3.5000   -4.0627    0.0000 C   0  0  0  0  0  0  0  0  0  0  0  0
    3.0000   -4.9288    0.0000 C   0  0  0  0  0  0  0  0  0  0  0  0
    2.0000   -4.9288    0.0000 C   0  0  0  0  0  0  0  0  0  0  0  0
    3.5000   -5.7948    0.0000 C   0  0  0  0  0  0  0  0  0  0  0  0
    9.7062    3.2227    0.0000 C   0  0  0  0  0  0  0  0  0  0  0  0
   10.9087    4.3054    0.0000 C   0  0  0  0  0  0  0  0  0  0  0  0
   11.3699    2.5841    0.0000 C   0  0  0  0  0  0  0  0  0  0  0  0
   11.8222    4.7121    0.0000 C   0  0  0  0  0  0  0  0  0  0  0  0
   12.6882    4.2121    0.0000 C   0  0  0  0  0  0  0  0  0  0  0  0
   12.7928    3.2176    0.0000 C   0  0  0  0  0  0  0  0  0  0  0  0
   13.0246    5.7948    0.0000 C   0  0  0  0  0  0  0  0  0  0  0  0
    7.2977   -0.4933    0.0000 H   0  0  0  0  0  0  0  0  0  0  0  0
    7.1805    0.2704    0.0000 H   0  0  0  0  0  0  0  0  0  0  0  0
    5.4124    1.2913    0.0000 H   0  0  0  0  0  0  0  0  0  0  0  0
    4.6923    1.0109    0.0000 H   0  0  0  0  0  0  0  0  0  0  0  0
    6.5705   -1.7359    0.0000 H   0  0  0  0  0  0  0  0  0  0  0  0
    7.0930   -1.1667    0.0000 H   0  0  0  0  0  0  0  0  0  0  0  0
    4.2116    0.4969    0.0000 H   0  0  0  0  0  0  0  0  0  0  0  0
    3.9798   -0.2402    0.0000 H   0  0  0  0  0  0  0  0  0  0  0  0
    6.8139    2.1012    0.0000 H   0  0  0  0  0  0  0  0  0  0  0  0
    6.1236    1.7027    0.0000 H   0  0  0  0  0  0  0  0  0  0  0  0
    7.5986    0.8801    0.0000 H   0  0  0  0  0  0  0  0  0  0  0  0
    8.2888    1.2786    0.0000 H   0  0  0  0  0  0  0  0  0  0  0  0
    6.1009   -2.7978    0.0000 H   0  0  0  0  0  0  0  0  0  0  0  0
    3.2950   -1.1778    0.0000 H   0  0  0  0  0  0  0  0  0  0  0  0
    8.3139    2.9672    0.0000 H   0  0  0  0  0  0  0  0  0  0  0  0
    7.6236    2.5687    0.0000 H   0  0  0  0  0  0  0  0  0  0  0  0
    3.6200   -4.9288    0.0000 H   0  0  0  0  0  0  0  0  0  0  0  0
    2.0000   -4.3088    0.0000 H   0  0  0  0  0  0  0  0  0  0  0  0
    1.3800   -4.9288    0.0000 H   0  0  0  0  0  0  0  0  0  0  0  0
    2.0000   -5.5488    0.0000 H   0  0  0  0  0  0  0  0  0  0  0  0
    2.9631   -6.1048    0.0000 H   0  0  0  0  0  0  0  0  0  0  0  0
    3.8100   -6.3317    0.0000 H   0  0  0  0  0  0  0  0  0  0  0  0
    4.0369   -5.4848    0.0000 H   0  0  0  0  0  0  0  0  0  0  0  0
   10.9091    2.1692    0.0000 H   0  0  0  0  0  0  0  0  0  0  0  0
   11.7847    2.1233    0.0000 H   0  0  0  0  0  0  0  0  0  0  0  0
   11.8306    2.9989    0.0000 H   0  0  0  0  0  0  0  0  0  0  0  0
   12.1762    3.1528    0.0000 H   0  0  0  0  0  0  0  0  0  0  0  0
   12.8576    2.6010    0.0000 H   0  0  0  0  0  0  0  0  0  0  0  0
   13.4094    3.2824    0.0000 H   0  0  0  0  0  0  0  0  0  0  0  0
   13.3346    6.3317    0.0000 H   0  0  0  0  0  0  0  0  0  0  0  0
  1 22  1  0  0  0  0
  1 27  1  0  0  0  0
  2 20  1  0  0  0  0
  2 23  1  0  0  0  0
  3 30  1  0  0  0  0
  3 33  1  0  0  0  0
  4 10  1  0  0  0  0
  4 11  1  0  0  0  0
  4 16  1  0  0  0  0
  5 21  1  0  0  0  0
  5 23  2  0  0  0  0
  6 27  1  0  0  0  0
  6 28  1  0  0  0  0
  6 29  1  0  0  0  0
  7  8  1  0  0  0  0
  7 27  2  0  0  0  0
  8 28  2  0  0  0  0
  9 31  1  0  0  0  0
  9 33  2  0  0  0  0
 10 12  1  0  0  0  0
 10 34  1  0  0  0  0
 10 35  1  0  0  0  0
 11 13  1  0  0  0  0
 11 36  1  0  0  0  0
 11 37  1  0  0  0  0
 12 14  1  0  0  0  0
 12 38  1  0  0  0  0
 12 39  1  0  0  0  0
 13 15  1  0  0  0  0
 13 40  1  0  0  0  0
 13 41  1  0  0  0  0
 14 15  1  0  0  0  0
 14 18  2  0  0  0  0
 15 19  2  0  0  0  0
 16 17  1  0  0  0  0
 16 42  1  0  0  0  0
 16 43  1  0  0  0  0
 17 22  1  0  0  0  0
 17 44  1  0  0  0  0
 17 45  1  0  0  0  0
 18 20  1  0  0  0  0
 18 46  1  0  0  0  0
 19 21  1  0  0  0  0
 19 47  1  0  0  0  0
 20 21  2  0  0  0  0
 22 48  1  0  0  0  0
 22 49  1  0  0  0  0
 23 24  1  0  0  0  0
 24 25  1  0  0  0  0
 24 26  1  0  0  0  0
 24 50  1  0  0  0  0
 25 51  1  0  0  0  0
 25 52  1  0  0  0  0
 25 53  1  0  0  0  0
 26 54  1  0  0  0  0
 26 55  1  0  0  0  0
 26 56  1  0  0  0  0
 28 30  1  0  0  0  0
 29 57  1  0  0  0  0
 29 58  1  0  0  0  0
 29 59  1  0  0  0  0
 30 31  2  0  0  0  0
 31 32  1  0  0  0  0
 32 60  1  0  0  0  0
 32 61  1  0  0  0  0
 32 62  1  0  0  0  0
 33 63  1  0  0  0  0
M  END
> <PUBCHEM_COMPOUND_CID>
11590828

> <PUBCHEM_COMPOUND_CANONICALIZED>
1

> <PUBCHEM_CACTVS_COMPLEXITY>
644

> <PUBCHEM_CACTVS_HBOND_ACCEPTOR>
8

> <PUBCHEM_CACTVS_HBOND_DONOR>
0

> <PUBCHEM_CACTVS_ROTATABLE_BOND>
7

> <PUBCHEM_CACTVS_SUBSKEYS>
AAADceB7sABAAAAAAAAAAAAAAAAAAWLFgAAwAAAABYAAAFgB/gAAHgQIAAAADQzF3wa31rcMFEiqA6dz9ASS2Ct/YrAV2CG/bNiOLrLk/buPOSjkzBPY6YeY2bKOqAABQAAQEABQAAKAACAgAAAAAAAAAA==

> <PUBCHEM_IUPAC_OPENEYE_NAME>
2-isopropyl-7-[3-[[4-methyl-5-(4-methyloxazol-5-yl)-1,2,4-triazol-3-yl]sulfanyl]propyl]-5,6,8,9-tetrahydrooxazolo[4,5-h][3]benzazepine

> <PUBCHEM_IUPAC_CAS_NAME>
7-[3-[[4-methyl-5-(4-methyl-5-oxazolyl)-1,2,4-triazol-3-yl]thio]propyl]-2-propan-2-yl-5,6,8,9-tetrahydrooxazolo[4,5-h][3]benzazepine

> <PUBCHEM_IUPAC_NAME_MARKUP>
7-[3-[[4-methyl-5-(4-methyl-1,3-oxazol-5-yl)-1,2,4-triazol-3-yl]sulfanyl]propyl]-2-propan-2-yl-5,6,8,9-tetrahydro-[1,3]oxazolo[4,5-h][3]benzazepine

> <PUBCHEM_IUPAC_NAME>
7-[3-[[4-methyl-5-(4-methyl-1,3-oxazol-5-yl)-1,2,4-triazol-3-yl]sulfanyl]propyl]-2-propan-2-yl-5,6,8,9-tetrahydro-[1,3]oxazolo[4,5-h][3]benzazepine

> <PUBCHEM_IUPAC_SYSTEMATIC_NAME>
7-[3-[[4-methyl-5-(4-methyl-1,3-oxazol-5-yl)-1,2,4-triazol-3-yl]sulfanyl]propyl]-2-propan-2-yl-5,6,8,9-tetrahydro-[1,3]oxazolo[4,5-h][3]benzazepine

> <PUBCHEM_IUPAC_TRADITIONAL_NAME>
2-isopropyl-7-[3-[[4-methyl-5-(4-methyloxazol-5-yl)-1,2,4-triazol-3-yl]thio]propyl]-5,6,8,9-tetrahydrooxazolo[4,5-h][3]benzazepine

> <PUBCHEM_IUPAC_INCHI>
InChI=1S/C24H30N6O2S/c1-15(2)23-26-19-12-17-6-9-30(10-7-18(17)13-20(19)32-23)8-5-11-33-24-28-27-22(29(24)4)21-16(3)25-14-31-21/h12-15H,5-11H2,1-4H3

> <PUBCHEM_IUPAC_INCHIKEY>
GKDLNLYIGUXYSK-UHFFFAOYSA-N

> <PUBCHEM_XLOGP3_AA>
4.2

> <PUBCHEM_EXACT_MASS>
466.21509539

> <PUBCHEM_MOLECULAR_FORMULA>
C24H30N6O2S

> <PUBCHEM_MOLECULAR_WEIGHT>
466.6

> <PUBCHEM_OPENEYE_CAN_SMILES>
CC1=C(OC=N1)C2=NN=C(N2C)SCCCN3CCC4=CC5=C(C=C4CC3)OC(=N5)C(C)C

> <PUBCHEM_OPENEYE_ISO_SMILES>
CC1=C(OC=N1)C2=NN=C(N2C)SCCCN3CCC4=CC5=C(C=C4CC3)OC(=N5)C(C)C

> <PUBCHEM_CACTVS_TPSA>
111

> <PUBCHEM_MONOISOTOPIC_WEIGHT>
466.21509539

> <PUBCHEM_TOTAL_CHARGE>
0

> <PUBCHEM_HEAVY_ATOM_COUNT>
33

> <PUBCHEM_ATOM_DEF_STEREO_COUNT>
0

> <PUBCHEM_ATOM_UDEF_STEREO_COUNT>
0

> <PUBCHEM_BOND_DEF_STEREO_COUNT>
0

> <PUBCHEM_BOND_UDEF_STEREO_COUNT>
0

> <PUBCHEM_ISOTOPIC_ATOM_COUNT>
0

> <PUBCHEM_COMPONENT_COUNT>
1

> <PUBCHEM_CACTVS_TAUTO_COUNT>
-1

> <PUBCHEM_COORDINATE_TYPE>
1
5
255

> <PUBCHEM_BONDANNOTATIONS>
14  15  8
14  18  8
15  19  8
18  20  8
19  21  8
2  20  8
2  23  8
20  21  8
3  30  8
3  33  8
30  31  8
5  21  8
5  23  8
6  27  8
6  28  8
7  27  8
7  8  8
8  28  8
9  31  8
9  33  8

$$$$
