10807321
  -OEChem-09292322512D

 47 51  0     1  0  0  0  0  0999 V2000
    5.2910    2.1459    0.0000 O   0  0  0  0  0  0  0  0  0  0  0  0
    2.6118   -0.0500    0.0000 O   0  0  0  0  0  0  0  0  0  0  0  0
    8.0695   -1.7571    0.0000 N   0  0  3  0  0  0  0  0  0  0  0  0
    7.2113   -1.2601    0.0000 C   0  0  1  0  0  0  0  0  0  0  0  0
    7.2113   -0.2601    0.0000 C   0  0  0  0  0  0  0  0  0  0  0  0
    6.3452   -1.7601    0.0000 C   0  0  0  0  0  0  0  0  0  0  0  0
    8.1213    0.2467    0.0000 C   0  0  0  0  0  0  0  0  0  0  0  0
    8.9350   -1.2729    0.0000 C   0  0  0  0  0  0  0  0  0  0  0  0
    6.3452    0.2399    0.0000 C   0  0  0  0  0  0  0  0  0  0  0  0
    8.9606   -0.2815    0.0000 C   0  0  0  0  0  0  0  0  0  0  0  0
    5.4792   -1.2601    0.0000 C   0  0  0  0  0  0  0  0  0  0  0  0
    5.4792   -0.2601    0.0000 C   0  0  0  0  0  0  0  0  0  0  0  0
    8.0621   -2.7570    0.0000 C   0  0  0  0  0  0  0  0  0  0  0  0
    8.1293    1.2883    0.0000 C   0  0  0  0  0  0  0  0  0  0  0  0
    6.3292    1.2814    0.0000 C   0  0  0  0  0  0  0  0  0  0  0  0
    4.5853    0.2745    0.0000 C   0  0  0  0  0  0  0  0  0  0  0  0
    4.5853   -1.7948    0.0000 C   0  0  0  0  0  0  0  0  0  0  0  0
    7.2272    1.8091    0.0000 C   0  0  0  0  0  0  0  0  0  0  0  0
    3.6792   -0.2393    0.0000 C   0  0  0  0  0  0  0  0  0  0  0  0
    3.6792   -1.2810    0.0000 C   0  0  0  0  0  0  0  0  0  0  0  0
    3.9514    1.0479    0.0000 C   0  0  0  0  0  0  0  0  0  0  0  0
    4.3043    1.9836    0.0000 C   0  0  0  0  0  0  0  0  0  0  0  0
    2.9646    0.8857    0.0000 C   0  0  0  0  0  0  0  0  0  0  0  0
    3.6704    2.7570    0.0000 C   0  0  0  0  0  0  0  0  0  0  0  0
    2.3308    1.6591    0.0000 C   0  0  0  0  0  0  0  0  0  0  0  0
    2.6836    2.5948    0.0000 C   0  0  0  0  0  0  0  0  0  0  0  0
    7.2107   -2.1101    0.0000 H   0  0  0  0  0  0  0  0  0  0  0  0
    5.9467   -2.2351    0.0000 H   0  0  0  0  0  0  0  0  0  0  0  0
    6.7438   -2.2351    0.0000 H   0  0  0  0  0  0  0  0  0  0  0  0
    9.1367   -1.8592    0.0000 H   0  0  0  0  0  0  0  0  0  0  0  0
    9.5478   -1.1785    0.0000 H   0  0  0  0  0  0  0  0  0  0  0  0
    9.5677   -0.4074    0.0000 H   0  0  0  0  0  0  0  0  0  0  0  0
    9.1924    0.2935    0.0000 H   0  0  0  0  0  0  0  0  0  0  0  0
    7.4421   -2.7525    0.0000 H   0  0  0  0  0  0  0  0  0  0  0  0
    8.0575   -3.3770    0.0000 H   0  0  0  0  0  0  0  0  0  0  0  0
    8.6821   -2.7616    0.0000 H   0  0  0  0  0  0  0  0  0  0  0  0
    8.6674    1.5962    0.0000 H   0  0  0  0  0  0  0  0  0  0  0  0
    5.7887    1.5851    0.0000 H   0  0  0  0  0  0  0  0  0  0  0  0
    4.5925   -2.4148    0.0000 H   0  0  0  0  0  0  0  0  0  0  0  0
    7.2248    2.4291    0.0000 H   0  0  0  0  0  0  0  0  0  0  0  0
    3.1435    0.0727    0.0000 H   0  0  0  0  0  0  0  0  0  0  0  0
    3.1435   -1.5930    0.0000 H   0  0  0  0  0  0  0  0  0  0  0  0
    3.8892    3.3372    0.0000 H   0  0  0  0  0  0  0  0  0  0  0  0
    1.7190    1.5585    0.0000 H   0  0  0  0  0  0  0  0  0  0  0  0
    2.2906    3.0743    0.0000 H   0  0  0  0  0  0  0  0  0  0  0  0
    5.5098    2.7260    0.0000 H   0  0  0  0  0  0  0  0  0  0  0  0
    2.0000   -0.1506    0.0000 H   0  0  0  0  0  0  0  0  0  0  0  0
  1 22  1  0  0  0  0
  1 46  1  0  0  0  0
  2 23  1  0  0  0  0
  2 47  1  0  0  0  0
  3  4  1  0  0  0  0
  3  8  1  0  0  0  0
  3 13  1  0  0  0  0
  4  5  1  0  0  0  0
  4  6  1  0  0  0  0
  4 27  1  1  0  0  0
  5  7  2  0  0  0  0
  5  9  1  0  0  0  0
  6 11  1  0  0  0  0
  6 28  1  0  0  0  0
  6 29  1  0  0  0  0
  7 10  1  0  0  0  0
  7 14  1  0  0  0  0
  8 10  1  0  0  0  0
  8 30  1  0  0  0  0
  8 31  1  0  0  0  0
  9 12  1  0  0  0  0
  9 15  2  0  0  0  0
 10 32  1  0  0  0  0
 10 33  1  0  0  0  0
 11 12  2  0  0  0  0
 11 17  1  0  0  0  0
 12 16  1  0  0  0  0
 13 34  1  0  0  0  0
 13 35  1  0  0  0  0
 13 36  1  0  0  0  0
 14 18  2  0  0  0  0
 14 37  1  0  0  0  0
 15 18  1  0  0  0  0
 15 38  1  0  0  0  0
 16 19  2  0  0  0  0
 16 21  1  0  0  0  0
 17 20  2  0  0  0  0
 17 39  1  0  0  0  0
 18 40  1  0  0  0  0
 19 20  1  0  0  0  0
 19 41  1  0  0  0  0
 20 42  1  0  0  0  0
 21 22  2  0  0  0  0
 21 23  1  0  0  0  0
 22 24  1  0  0  0  0
 23 25  2  0  0  0  0
 24 26  2  0  0  0  0
 24 43  1  0  0  0  0
 25 26  1  0  0  0  0
 25 44  1  0  0  0  0
 26 45  1  0  0  0  0
M  END
> <PUBCHEM_COMPOUND_CID>
10807321

> <PUBCHEM_COMPOUND_CANONICALIZED>
1

> <PUBCHEM_CACTVS_COMPLEXITY>
500

> <PUBCHEM_CACTVS_HBOND_ACCEPTOR>
3

> <PUBCHEM_CACTVS_HBOND_DONOR>
2

> <PUBCHEM_CACTVS_ROTATABLE_BOND>
1

> <PUBCHEM_CACTVS_SUBSKEYS>
AAADceB6MAAAAAAAAAAAAAAAAAAAAAAAAAA8YMGCAAAAAADxUAAAHgAACAAADCzBmAQyBoMAAgCAAiBCAACCAAAgIAAIiAAODIgIJyKCkROEcAhlwBWImAeQ4PQOgAACCAAYAACQAASQADQAAAAAAAAAAA==

> <PUBCHEM_IUPAC_OPENEYE_NAME>
2-[(6aR)-6-methyl-5,6,6a,7-tetrahydro-4H-dibenzo[de,g]quinolin-11-yl]benzene-1,3-diol

> <PUBCHEM_IUPAC_CAS_NAME>
2-[(6aR)-6-methyl-5,6,6a,7-tetrahydro-4H-dibenzo[de,g]quinolin-11-yl]benzene-1,3-diol

> <PUBCHEM_IUPAC_NAME_MARKUP>
2-[(6<I>a</I><I>R</I>)-6-methyl-5,6,6<I>a</I>,7-tetrahydro-4<I>H</I>-dibenzo[de,g]quinolin-11-yl]benzene-1,3-diol

> <PUBCHEM_IUPAC_NAME>
2-[(6aR)-6-methyl-5,6,6a,7-tetrahydro-4H-dibenzo[de,g]quinolin-11-yl]benzene-1,3-diol

> <PUBCHEM_IUPAC_SYSTEMATIC_NAME>
2-[(6aR)-6-methyl-5,6,6a,7-tetrahydro-4H-dibenzo[de,g]quinolin-11-yl]benzene-1,3-diol

> <PUBCHEM_IUPAC_TRADITIONAL_NAME>
2-[(6aR)-6-methyl-5,6,6a,7-tetrahydro-4H-dibenzo[de,g]quinolin-11-yl]resorcinol

> <PUBCHEM_IUPAC_INCHI>
InChI=1S/C23H21NO2/c1-24-12-11-14-5-2-7-16-21-15(13-18(24)22(14)16)6-3-8-17(21)23-19(25)9-4-10-20(23)26/h2-10,18,25-26H,11-13H2,1H3/t18-/m1/s1

> <PUBCHEM_IUPAC_INCHIKEY>
WJRKPLARAFQQGZ-GOSISDBHSA-N

> <PUBCHEM_XLOGP3_AA>
4.4

> <PUBCHEM_EXACT_MASS>
343.157228913

> <PUBCHEM_MOLECULAR_FORMULA>
C23H21NO2

> <PUBCHEM_MOLECULAR_WEIGHT>
343.4

> <PUBCHEM_OPENEYE_CAN_SMILES>
CN1CCC2=C3C1CC4=C(C3=CC=C2)C(=CC=C4)C5=C(C=CC=C5O)O

> <PUBCHEM_OPENEYE_ISO_SMILES>
CN1CCC2=C3[C@H]1CC4=C(C3=CC=C2)C(=CC=C4)C5=C(C=CC=C5O)O

> <PUBCHEM_CACTVS_TPSA>
43.7

> <PUBCHEM_MONOISOTOPIC_WEIGHT>
343.157228913

> <PUBCHEM_TOTAL_CHARGE>
0

> <PUBCHEM_HEAVY_ATOM_COUNT>
26

> <PUBCHEM_ATOM_DEF_STEREO_COUNT>
1

> <PUBCHEM_ATOM_UDEF_STEREO_COUNT>
0

> <PUBCHEM_BOND_DEF_STEREO_COUNT>
0

> <PUBCHEM_BOND_UDEF_STEREO_COUNT>
0

> <PUBCHEM_ISOTOPIC_ATOM_COUNT>
0

> <PUBCHEM_COMPONENT_COUNT>
1

> <PUBCHEM_CACTVS_TAUTO_COUNT>
-1

> <PUBCHEM_COORDINATE_TYPE>
1
5
255

> <PUBCHEM_BONDANNOTATIONS>
11  12  8
11  17  8
12  16  8
14  18  8
15  18  8
16  19  8
17  20  8
19  20  8
21  22  8
21  23  8
22  24  8
23  25  8
24  26  8
25  26  8
4  27  5
5  7  8
5  9  8
7  14  8
9  15  8

$$$$
