45259631
  -OEChem-09292322152D

 56 58  0     0  0  0  0  0  0999 V2000
    8.9875    6.8134    0.0000 Cl  0  0  0  0  0  0  0  0  0  0  0  0
    4.7798   12.9189    0.0000 S   0  0  0  0  0  0  0  0  0  0  0  0
    3.1920   10.2078    0.0000 O   0  0  0  0  0  0  0  0  0  0  0  0
    2.2690    5.6200    0.0000 N   0  0  0  0  0  0  0  0  0  0  0  0
    2.2690    3.6200    0.0000 N   0  0  0  0  0  0  0  0  0  0  0  0
    3.5010   11.1588    0.0000 N   0  0  0  0  0  0  0  0  0  0  0  0
    3.1350    5.1200    0.0000 C   0  0  0  0  0  0  0  0  0  0  0  0
    1.4030    5.1200    0.0000 C   0  0  0  0  0  0  0  0  0  0  0  0
    3.1350    4.1200    0.0000 C   0  0  0  0  0  0  0  0  0  0  0  0
    1.4030    4.1200    0.0000 C   0  0  0  0  0  0  0  0  0  0  0  0
    2.2690    6.6200    0.0000 C   0  0  0  0  0  0  0  0  0  0  0  0
    3.1350    7.1200    0.0000 C   0  0  0  0  0  0  0  0  0  0  0  0
    2.2690    2.6200    0.0000 C   0  0  0  0  0  0  0  0  0  0  0  0
    3.1350    8.1200    0.0000 C   0  0  0  0  0  0  0  0  0  0  0  0
    4.0010    8.6200    0.0000 C   0  0  0  0  0  0  0  0  0  0  0  0
    1.4030    2.1200    0.0000 C   0  0  0  0  0  0  0  0  0  0  0  0
    3.1350    2.1200    0.0000 C   0  0  0  0  0  0  0  0  0  0  0  0
    4.0010    9.6200    0.0000 C   0  0  0  0  0  0  0  0  0  0  0  0
    1.4030    1.1200    0.0000 C   0  0  0  0  0  0  0  0  0  0  0  0
    0.5369    2.6200    0.0000 C   0  0  0  0  0  0  0  0  0  0  0  0
    3.1350    1.1200    0.0000 C   0  0  0  0  0  0  0  0  0  0  0  0
    2.2690    0.6200    0.0000 C   0  0  0  0  0  0  0  0  0  0  0  0
    4.8101   10.2078    0.0000 C   0  0  0  0  0  0  0  0  0  0  0  0
    4.5010   11.1588    0.0000 C   0  0  0  0  0  0  0  0  0  0  0  0
    5.0888   11.9679    0.0000 C   0  0  0  0  0  0  0  0  0  0  0  0
    6.0888   11.9679    0.0000 C   0  0  0  0  0  0  0  0  0  0  0  0
    6.3978   12.9189    0.0000 C   0  0  0  0  0  0  0  0  0  0  0  0
    5.5888   13.5067    0.0000 C   0  0  0  0  0  0  0  0  0  0  0  0
    3.7456    5.0123    0.0000 H   0  0  0  0  0  0  0  0  0  0  0  0
    3.3471    5.7026    0.0000 H   0  0  0  0  0  0  0  0  0  0  0  0
    1.1909    5.7026    0.0000 H   0  0  0  0  0  0  0  0  0  0  0  0
    0.7924    5.0123    0.0000 H   0  0  0  0  0  0  0  0  0  0  0  0
    3.3471    3.5374    0.0000 H   0  0  0  0  0  0  0  0  0  0  0  0
    3.7456    4.2277    0.0000 H   0  0  0  0  0  0  0  0  0  0  0  0
    0.7924    4.2277    0.0000 H   0  0  0  0  0  0  0  0  0  0  0  0
    1.1909    3.5374    0.0000 H   0  0  0  0  0  0  0  0  0  0  0  0
    2.0569    7.2026    0.0000 H   0  0  0  0  0  0  0  0  0  0  0  0
    1.6584    6.5123    0.0000 H   0  0  0  0  0  0  0  0  0  0  0  0
    3.3471    6.5374    0.0000 H   0  0  0  0  0  0  0  0  0  0  0  0
    3.7456    7.2277    0.0000 H   0  0  0  0  0  0  0  0  0  0  0  0
    2.9230    8.7026    0.0000 H   0  0  0  0  0  0  0  0  0  0  0  0
    2.5244    8.0123    0.0000 H   0  0  0  0  0  0  0  0  0  0  0  0
    4.2131    8.0374    0.0000 H   0  0  0  0  0  0  0  0  0  0  0  0
    4.6116    8.7277    0.0000 H   0  0  0  0  0  0  0  0  0  0  0  0
    3.6720    2.4300    0.0000 H   0  0  0  0  0  0  0  0  0  0  0  0
    0.8660    0.8100    0.0000 H   0  0  0  0  0  0  0  0  0  0  0  0
    0.8469    3.1569    0.0000 H   0  0  0  0  0  0  0  0  0  0  0  0
    0.0000    2.9300    0.0000 H   0  0  0  0  0  0  0  0  0  0  0  0
    0.2269    2.0831    0.0000 H   0  0  0  0  0  0  0  0  0  0  0  0
    3.6720    0.8100    0.0000 H   0  0  0  0  0  0  0  0  0  0  0  0
    2.2690    0.0000    0.0000 H   0  0  0  0  0  0  0  0  0  0  0  0
    5.3997   10.0162    0.0000 H   0  0  0  0  0  0  0  0  0  0  0  0
    6.4532   11.4663    0.0000 H   0  0  0  0  0  0  0  0  0  0  0  0
    6.9875   13.1105    0.0000 H   0  0  0  0  0  0  0  0  0  0  0  0
    5.5888   14.1267    0.0000 H   0  0  0  0  0  0  0  0  0  0  0  0
    9.9875    6.8134    0.0000 H   0  0  0  0  0  0  0  0  0  0  0  0
  1 56  1  0  0  0  0
  2 25  1  0  0  0  0
  2 28  1  0  0  0  0
  3  6  1  0  0  0  0
  3 18  1  0  0  0  0
  4  7  1  0  0  0  0
  4  8  1  0  0  0  0
  4 11  1  0  0  0  0
  5  9  1  0  0  0  0
  5 10  1  0  0  0  0
  5 13  1  0  0  0  0
  6 24  2  0  0  0  0
  7  9  1  0  0  0  0
  7 29  1  0  0  0  0
  7 30  1  0  0  0  0
  8 10  1  0  0  0  0
  8 31  1  0  0  0  0
  8 32  1  0  0  0  0
  9 33  1  0  0  0  0
  9 34  1  0  0  0  0
 10 35  1  0  0  0  0
 10 36  1  0  0  0  0
 11 12  1  0  0  0  0
 11 37  1  0  0  0  0
 11 38  1  0  0  0  0
 12 14  1  0  0  0  0
 12 39  1  0  0  0  0
 12 40  1  0  0  0  0
 13 16  1  0  0  0  0
 13 17  2  0  0  0  0
 14 15  1  0  0  0  0
 14 41  1  0  0  0  0
 14 42  1  0  0  0  0
 15 18  1  0  0  0  0
 15 43  1  0  0  0  0
 15 44  1  0  0  0  0
 16 19  2  0  0  0  0
 16 20  1  0  0  0  0
 17 21  1  0  0  0  0
 17 45  1  0  0  0  0
 18 23  2  0  0  0  0
 19 22  1  0  0  0  0
 19 46  1  0  0  0  0
 20 47  1  0  0  0  0
 20 48  1  0  0  0  0
 20 49  1  0  0  0  0
 21 22  2  0  0  0  0
 21 50  1  0  0  0  0
 22 51  1  0  0  0  0
 23 24  1  0  0  0  0
 23 52  1  0  0  0  0
 24 25  1  0  0  0  0
 25 26  2  0  0  0  0
 26 27  1  0  0  0  0
 26 53  1  0  0  0  0
 27 28  2  0  0  0  0
 27 54  1  0  0  0  0
 28 55  1  0  0  0  0
M  END
> <PUBCHEM_COMPOUND_CID>
45259631

> <PUBCHEM_COMPOUND_CANONICALIZED>
1

> <PUBCHEM_CACTVS_COMPLEXITY>
443

> <PUBCHEM_CACTVS_HBOND_ACCEPTOR>
5

> <PUBCHEM_CACTVS_HBOND_DONOR>
1

> <PUBCHEM_CACTVS_ROTATABLE_BOND>
7

> <PUBCHEM_CACTVS_SUBSKEYS>
AAADceB7IABEAAAAAAAAAAAAAAAAAWJAAAA8QAAAAAAAAAAB8AAAHgQEAAAADAzF3gSyxZMQAAitA6RyQgCDAIAlKhBomDk+bNoIZrrgkZOUMYhmgBjoyUeY2aKOAAAAAAACAAAAAAAAAAQAAAAAAAAAAA==

> <PUBCHEM_IUPAC_OPENEYE_NAME>
5-[4-[4-(o-tolyl)piperazin-1-yl]butyl]-3-(2-thienyl)isoxazole;hydrochloride

> <PUBCHEM_IUPAC_CAS_NAME>
5-[4-[4-(2-methylphenyl)-1-piperazinyl]butyl]-3-thiophen-2-ylisoxazole;hydrochloride

> <PUBCHEM_IUPAC_NAME_MARKUP>
5-[4-[4-(2-methylphenyl)piperazin-1-yl]butyl]-3-thiophen-2-yl-1,2-oxazole;hydrochloride

> <PUBCHEM_IUPAC_NAME>
5-[4-[4-(2-methylphenyl)piperazin-1-yl]butyl]-3-thiophen-2-yl-1,2-oxazole;hydrochloride

> <PUBCHEM_IUPAC_SYSTEMATIC_NAME>
5-[4-[4-(2-methylphenyl)piperazin-1-yl]butyl]-3-thiophen-2-yl-1,2-oxazole;hydrochloride

> <PUBCHEM_IUPAC_TRADITIONAL_NAME>
5-[4-[4-(o-tolyl)piperazino]butyl]-3-(2-thienyl)isoxazole;hydrochloride

> <PUBCHEM_IUPAC_INCHI>
InChI=1S/C22H27N3OS.ClH/c1-18-7-2-3-9-21(18)25-14-12-24(13-15-25)11-5-4-8-19-17-20(23-26-19)22-10-6-16-27-22;/h2-3,6-7,9-10,16-17H,4-5,8,11-15H2,1H3;1H

> <PUBCHEM_IUPAC_INCHIKEY>
RZFKCRKQWGLCCW-UHFFFAOYSA-N

> <PUBCHEM_EXACT_MASS>
417.1641614

> <PUBCHEM_MOLECULAR_FORMULA>
C22H28ClN3OS

> <PUBCHEM_MOLECULAR_WEIGHT>
418.0

> <PUBCHEM_OPENEYE_CAN_SMILES>
CC1=CC=CC=C1N2CCN(CC2)CCCCC3=CC(=NO3)C4=CC=CS4.Cl

> <PUBCHEM_OPENEYE_ISO_SMILES>
CC1=CC=CC=C1N2CCN(CC2)CCCCC3=CC(=NO3)C4=CC=CS4.Cl

> <PUBCHEM_CACTVS_TPSA>
60.8

> <PUBCHEM_MONOISOTOPIC_WEIGHT>
417.1641614

> <PUBCHEM_TOTAL_CHARGE>
0

> <PUBCHEM_HEAVY_ATOM_COUNT>
28

> <PUBCHEM_ATOM_DEF_STEREO_COUNT>
0

> <PUBCHEM_ATOM_UDEF_STEREO_COUNT>
0

> <PUBCHEM_BOND_DEF_STEREO_COUNT>
0

> <PUBCHEM_BOND_UDEF_STEREO_COUNT>
0

> <PUBCHEM_ISOTOPIC_ATOM_COUNT>
0

> <PUBCHEM_COMPONENT_COUNT>
2

> <PUBCHEM_CACTVS_TAUTO_COUNT>
-1

> <PUBCHEM_COORDINATE_TYPE>
1
5
255

> <PUBCHEM_BONDANNOTATIONS>
13  16  8
13  17  8
16  19  8
17  21  8
18  23  8
19  22  8
2  25  8
2  28  8
21  22  8
23  24  8
25  26  8
26  27  8
27  28  8
3  18  8
3  6  8
6  24  8

$$$$
