23630902
  -OEChem-09292322252D

 70 75  0     1  0  0  0  0  0999 V2000
    9.0604   -1.1039    0.0000 S   0  0  0  0  0  0  0  0  0  0  0  0
   18.4965    1.9948    0.0000 O   0  0  0  0  0  0  0  0  0  0  0  0
   12.0604    0.6281    0.0000 N   0  0  3  0  0  0  0  0  0  0  0  0
    7.4726   -1.9129    0.0000 N   0  0  0  0  0  0  0  0  0  0  0  0
   17.8302    1.2491    0.0000 N   0  0  0  0  0  0  0  0  0  0  0  0
    7.4726   -0.2949    0.0000 N   0  0  0  0  0  0  0  0  0  0  0  0
    6.5215   -0.6039    0.0000 N   0  0  0  0  0  0  0  0  0  0  0  0
    3.0320   -1.9638    0.0000 N   0  0  0  0  0  0  0  0  0  0  0  0
   12.4943    1.5291    0.0000 C   0  0  0  0  0  0  0  0  0  0  0  0
   12.4943   -0.2728    0.0000 C   0  0  0  0  0  0  0  0  0  0  0  0
   13.4692    1.7516    0.0000 C   0  0  0  0  0  0  0  0  0  0  0  0
   13.4692   -0.4953    0.0000 C   0  0  0  0  0  0  0  0  0  0  0  0
   14.2510    1.1281    0.0000 C   0  0  0  0  0  0  0  0  0  0  0  0
   14.2510    0.1281    0.0000 C   0  0  0  0  0  0  0  0  0  0  0  0
   11.0604    0.6281    0.0000 C   0  0  0  0  0  0  0  0  0  0  0  0
   10.5604   -0.2379    0.0000 C   0  0  0  0  0  0  0  0  0  0  0  0
   15.1450    1.6628    0.0000 C   0  0  0  0  0  0  0  0  0  0  0  0
   15.1450   -0.4065    0.0000 C   0  0  0  0  0  0  0  0  0  0  0  0
   16.0510    1.1490    0.0000 C   0  0  0  0  0  0  0  0  0  0  0  0
    9.5604   -0.2379    0.0000 C   0  0  0  0  0  0  0  0  0  0  0  0
   16.0510    0.1073    0.0000 C   0  0  0  0  0  0  0  0  0  0  0  0
   16.9151    1.6523    0.0000 C   0  0  0  0  0  0  0  0  0  0  0  0
    8.0604   -1.1039    0.0000 C   0  0  0  0  0  0  0  0  0  0  0  0
   17.0158    2.6472    0.0000 C   0  0  0  0  0  0  0  0  0  0  0  0
    6.5215   -1.6039    0.0000 C   0  0  0  0  0  0  0  0  0  0  0  0
   17.9932    2.8589    0.0000 C   0  0  0  0  0  0  0  0  0  0  0  0
    5.7125   -2.1917    0.0000 C   0  0  0  0  0  0  0  0  0  0  0  0
    4.7990   -1.7850    0.0000 C   0  0  0  0  0  0  0  0  0  0  0  0
    7.7816   -2.8640    0.0000 C   0  0  0  0  0  0  0  0  0  0  0  0
    3.9900   -2.3727    0.0000 C   0  0  0  0  0  0  0  0  0  0  0  0
    5.8171   -3.1862    0.0000 C   0  0  0  0  0  0  0  0  0  0  0  0
   18.3964    3.7740    0.0000 C   0  0  0  0  0  0  0  0  0  0  0  0
    4.7061   -0.7475    0.0000 C   0  0  0  0  0  0  0  0  0  0  0  0
    4.0945   -3.3673    0.0000 C   0  0  0  0  0  0  0  0  0  0  0  0
    5.0080   -3.7740    0.0000 C   0  0  0  0  0  0  0  0  0  0  0  0
    3.7578   -0.3165    0.0000 C   0  0  0  0  0  0  0  0  0  0  0  0
    2.9151   -0.9287    0.0000 C   0  0  0  0  0  0  0  0  0  0  0  0
    2.0000   -0.5255    0.0000 C   0  0  0  0  0  0  0  0  0  0  0  0
   12.4943    2.1491    0.0000 H   0  0  0  0  0  0  0  0  0  0  0  0
   11.8898    1.6671    0.0000 H   0  0  0  0  0  0  0  0  0  0  0  0
   11.8898   -0.4108    0.0000 H   0  0  0  0  0  0  0  0  0  0  0  0
   12.4943   -0.8928    0.0000 H   0  0  0  0  0  0  0  0  0  0  0  0
   13.9539    2.1382    0.0000 H   0  0  0  0  0  0  0  0  0  0  0  0
   13.2002    2.3102    0.0000 H   0  0  0  0  0  0  0  0  0  0  0  0
   13.2002   -1.0540    0.0000 H   0  0  0  0  0  0  0  0  0  0  0  0
   13.9539   -0.8819    0.0000 H   0  0  0  0  0  0  0  0  0  0  0  0
   11.1680    1.2387    0.0000 H   0  0  0  0  0  0  0  0  0  0  0  0
   10.4778    0.8402    0.0000 H   0  0  0  0  0  0  0  0  0  0  0  0
   10.4527   -0.8485    0.0000 H   0  0  0  0  0  0  0  0  0  0  0  0
   11.1430   -0.4499    0.0000 H   0  0  0  0  0  0  0  0  0  0  0  0
   15.1378    2.2828    0.0000 H   0  0  0  0  0  0  0  0  0  0  0  0
   15.1378   -1.0265    0.0000 H   0  0  0  0  0  0  0  0  0  0  0  0
    9.6680    0.3727    0.0000 H   0  0  0  0  0  0  0  0  0  0  0  0
    8.9778   -0.0258    0.0000 H   0  0  0  0  0  0  0  0  0  0  0  0
   16.5868   -0.2047    0.0000 H   0  0  0  0  0  0  0  0  0  0  0  0
   16.5535    3.0603    0.0000 H   0  0  0  0  0  0  0  0  0  0  0  0
    7.1920   -3.0556    0.0000 H   0  0  0  0  0  0  0  0  0  0  0  0
    7.9732   -3.4536    0.0000 H   0  0  0  0  0  0  0  0  0  0  0  0
    8.3713   -2.6724    0.0000 H   0  0  0  0  0  0  0  0  0  0  0  0
    6.3834   -3.4384    0.0000 H   0  0  0  0  0  0  0  0  0  0  0  0
   18.9637    3.5240    0.0000 H   0  0  0  0  0  0  0  0  0  0  0  0
   18.6464    4.3414    0.0000 H   0  0  0  0  0  0  0  0  0  0  0  0
   17.8290    4.0240    0.0000 H   0  0  0  0  0  0  0  0  0  0  0  0
    5.2119   -0.3889    0.0000 H   0  0  0  0  0  0  0  0  0  0  0  0
    3.5929   -3.7317    0.0000 H   0  0  0  0  0  0  0  0  0  0  0  0
    5.0728   -4.3906    0.0000 H   0  0  0  0  0  0  0  0  0  0  0  0
    3.6954    0.3004    0.0000 H   0  0  0  0  0  0  0  0  0  0  0  0
    2.2500    0.0418    0.0000 H   0  0  0  0  0  0  0  0  0  0  0  0
    1.4326   -0.2755    0.0000 H   0  0  0  0  0  0  0  0  0  0  0  0
    1.7500   -1.0929    0.0000 H   0  0  0  0  0  0  0  0  0  0  0  0
  1 20  1  0  0  0  0
  1 23  1  0  0  0  0
  2  5  1  0  0  0  0
  2 26  1  0  0  0  0
  3  9  1  0  0  0  0
  3 10  1  0  0  0  0
  3 15  1  0  0  0  0
  4 23  1  0  0  0  0
  4 25  1  0  0  0  0
  4 29  1  0  0  0  0
  5 22  2  0  0  0  0
  6  7  1  0  0  0  0
  6 23  2  0  0  0  0
  7 25  2  0  0  0  0
  8 30  1  0  0  0  0
  8 37  2  0  0  0  0
  9 11  1  0  0  0  0
  9 39  1  0  0  0  0
  9 40  1  0  0  0  0
 10 12  1  0  0  0  0
 10 41  1  0  0  0  0
 10 42  1  0  0  0  0
 11 13  1  0  0  0  0
 11 43  1  0  0  0  0
 11 44  1  0  0  0  0
 12 14  1  0  0  0  0
 12 45  1  0  0  0  0
 12 46  1  0  0  0  0
 13 14  2  0  0  0  0
 13 17  1  0  0  0  0
 14 18  1  0  0  0  0
 15 16  1  0  0  0  0
 15 47  1  0  0  0  0
 15 48  1  0  0  0  0
 16 20  1  0  0  0  0
 16 49  1  0  0  0  0
 16 50  1  0  0  0  0
 17 19  2  0  0  0  0
 17 51  1  0  0  0  0
 18 21  2  0  0  0  0
 18 52  1  0  0  0  0
 19 21  1  0  0  0  0
 19 22  1  0  0  0  0
 20 53  1  0  0  0  0
 20 54  1  0  0  0  0
 21 55  1  0  0  0  0
 22 24  1  0  0  0  0
 24 26  2  0  0  0  0
 24 56  1  0  0  0  0
 25 27  1  0  0  0  0
 26 32  1  0  0  0  0
 27 28  2  0  0  0  0
 27 31  1  0  0  0  0
 28 30  1  0  0  0  0
 28 33  1  0  0  0  0
 29 57  1  0  0  0  0
 29 58  1  0  0  0  0
 29 59  1  0  0  0  0
 30 34  2  0  0  0  0
 31 35  2  0  0  0  0
 31 60  1  0  0  0  0
 32 61  1  0  0  0  0
 32 62  1  0  0  0  0
 32 63  1  0  0  0  0
 33 36  2  0  0  0  0
 33 64  1  0  0  0  0
 34 35  1  0  0  0  0
 34 65  1  0  0  0  0
 35 66  1  0  0  0  0
 36 37  1  0  0  0  0
 36 67  1  0  0  0  0
 37 38  1  0  0  0  0
 38 68  1  0  0  0  0
 38 69  1  0  0  0  0
 38 70  1  0  0  0  0
M  END
> <PUBCHEM_COMPOUND_CID>
23630902

> <PUBCHEM_COMPOUND_CANONICALIZED>
1

> <PUBCHEM_CACTVS_COMPLEXITY>
760

> <PUBCHEM_CACTVS_HBOND_ACCEPTOR>
7

> <PUBCHEM_CACTVS_HBOND_DONOR>
0

> <PUBCHEM_CACTVS_ROTATABLE_BOND>
7

> <PUBCHEM_CACTVS_SUBSKEYS>
AAADcfB7oABAAAAAAAAAAAAAAAAAAWLAAAA8YIAABYAAAACx/gAAHgQMAAAADAzF3wSz1PccEAirA6ZyZgCS0CtlIrA92CE+bNqILvrgmZOEMYhmiBrIyUeYyOCOwAACQAASAACAAASAACQAAAAAAAAAAA==

> <PUBCHEM_IUPAC_OPENEYE_NAME>
5-methyl-3-[3-[3-[[4-methyl-5-(2-methyl-5-quinolyl)-1,2,4-triazol-3-yl]sulfanyl]propyl]-1,2,4,5-tetrahydro-3-benzazepin-7-yl]isoxazole

> <PUBCHEM_IUPAC_CAS_NAME>
5-methyl-3-[3-[3-[[4-methyl-5-(2-methyl-5-quinolinyl)-1,2,4-triazol-3-yl]thio]propyl]-1,2,4,5-tetrahydro-3-benzazepin-7-yl]isoxazole

> <PUBCHEM_IUPAC_NAME_MARKUP>
5-methyl-3-[3-[3-[[4-methyl-5-(2-methylquinolin-5-yl)-1,2,4-triazol-3-yl]sulfanyl]propyl]-1,2,4,5-tetrahydro-3-benzazepin-7-yl]-1,2-oxazole

> <PUBCHEM_IUPAC_NAME>
5-methyl-3-[3-[3-[[4-methyl-5-(2-methylquinolin-5-yl)-1,2,4-triazol-3-yl]sulfanyl]propyl]-1,2,4,5-tetrahydro-3-benzazepin-7-yl]-1,2-oxazole

> <PUBCHEM_IUPAC_SYSTEMATIC_NAME>
5-methyl-3-[3-[3-[[4-methyl-5-(2-methylquinolin-5-yl)-1,2,4-triazol-3-yl]sulfanyl]propyl]-1,2,4,5-tetrahydro-3-benzazepin-7-yl]-1,2-oxazole

> <PUBCHEM_IUPAC_TRADITIONAL_NAME>
5-methyl-3-[3-[3-[[4-methyl-5-(2-methyl-5-quinolyl)-1,2,4-triazol-3-yl]thio]propyl]-1,2,4,5-tetrahydro-3-benzazepin-7-yl]isoxazole

> <PUBCHEM_IUPAC_INCHI>
InChI=1S/C30H32N6OS/c1-20-8-11-25-26(6-4-7-27(25)31-20)29-32-33-30(35(29)3)38-17-5-14-36-15-12-22-9-10-24(19-23(22)13-16-36)28-18-21(2)37-34-28/h4,6-11,18-19H,5,12-17H2,1-3H3

> <PUBCHEM_IUPAC_INCHIKEY>
RFIKMECJVGIKGU-UHFFFAOYSA-N

> <PUBCHEM_XLOGP3_AA>
5.5

> <PUBCHEM_EXACT_MASS>
524.23583084

> <PUBCHEM_MOLECULAR_FORMULA>
C30H32N6OS

> <PUBCHEM_MOLECULAR_WEIGHT>
524.7

> <PUBCHEM_OPENEYE_CAN_SMILES>
CC1=NC2=CC=CC(=C2C=C1)C3=NN=C(N3C)SCCCN4CCC5=C(CC4)C=C(C=C5)C6=NOC(=C6)C

> <PUBCHEM_OPENEYE_ISO_SMILES>
CC1=NC2=CC=CC(=C2C=C1)C3=NN=C(N3C)SCCCN4CCC5=C(CC4)C=C(C=C5)C6=NOC(=C6)C

> <PUBCHEM_CACTVS_TPSA>
98.2

> <PUBCHEM_MONOISOTOPIC_WEIGHT>
524.23583084

> <PUBCHEM_TOTAL_CHARGE>
0

> <PUBCHEM_HEAVY_ATOM_COUNT>
38

> <PUBCHEM_ATOM_DEF_STEREO_COUNT>
0

> <PUBCHEM_ATOM_UDEF_STEREO_COUNT>
0

> <PUBCHEM_BOND_DEF_STEREO_COUNT>
0

> <PUBCHEM_BOND_UDEF_STEREO_COUNT>
0

> <PUBCHEM_ISOTOPIC_ATOM_COUNT>
0

> <PUBCHEM_COMPONENT_COUNT>
1

> <PUBCHEM_CACTVS_TAUTO_COUNT>
-1

> <PUBCHEM_COORDINATE_TYPE>
1
5
255

> <PUBCHEM_BONDANNOTATIONS>
13  14  8
13  17  8
14  18  8
17  19  8
18  21  8
19  21  8
2  26  8
2  5  8
22  24  8
24  26  8
27  28  8
27  31  8
28  30  8
28  33  8
30  34  8
31  35  8
33  36  8
34  35  8
36  37  8
4  23  8
4  25  8
5  22  8
6  23  8
6  7  8
7  25  8
8  30  8
8  37  8

$$$$
