10780842
  -OEChem-09292322102D

 43 47  0     1  0  0  0  0  0999 V2000
    2.0000   -1.2517    0.0000 O   0  0  0  0  0  0  0  0  0  0  0  0
    6.7264    1.9821    0.0000 N   0  0  3  0  0  0  0  0  0  0  0  0
    3.5368   -2.0507    0.0000 N   0  0  0  0  0  0  0  0  0  0  0  0
    5.8682    1.4852    0.0000 C   0  0  1  0  0  0  0  0  0  0  0  0
    5.8682    0.4852    0.0000 C   0  0  0  0  0  0  0  0  0  0  0  0
    5.0021   -0.0148    0.0000 C   0  0  0  0  0  0  0  0  0  0  0  0
    4.1361    0.4852    0.0000 C   0  0  0  0  0  0  0  0  0  0  0  0
    5.0021    1.9852    0.0000 C   0  0  0  0  0  0  0  0  0  0  0  0
    4.9861   -1.0563    0.0000 C   0  0  0  0  0  0  0  0  0  0  0  0
    3.9980   -1.1635    0.0000 C   0  0  2  0  0  0  0  0  0  0  0  0
    6.7782   -0.0216    0.0000 C   0  0  0  0  0  0  0  0  0  0  0  0
    4.1361    1.4852    0.0000 C   0  0  0  0  0  0  0  0  0  0  0  0
    3.5182   -0.2932    0.0000 C   0  0  0  0  0  0  0  0  0  0  0  0
    7.6175    0.5066    0.0000 C   0  0  0  0  0  0  0  0  0  0  0  0
    7.5919    1.4980    0.0000 C   0  0  0  0  0  0  0  0  0  0  0  0
    5.8841   -1.5841    0.0000 C   0  0  0  0  0  0  0  0  0  0  0  0
    6.7862   -1.0632    0.0000 C   0  0  0  0  0  0  0  0  0  0  0  0
    3.1847    1.7342    0.0000 C   0  0  0  0  0  0  0  0  0  0  0  0
    2.6174    0.1014    0.0000 C   0  0  0  0  0  0  0  0  0  0  0  0
    6.7190    2.9821    0.0000 C   0  0  0  0  0  0  0  0  0  0  0  0
    2.4577    1.0719    0.0000 C   0  0  0  0  0  0  0  0  0  0  0  0
    2.5378   -2.0948    0.0000 C   0  0  0  0  0  0  0  0  0  0  0  0
    2.0765   -2.9821    0.0000 C   0  0  0  0  0  0  0  0  0  0  0  0
    5.8676    2.3352    0.0000 H   0  0  0  0  0  0  0  0  0  0  0  0
    5.4007    2.4602    0.0000 H   0  0  0  0  0  0  0  0  0  0  0  0
    4.6036    2.4602    0.0000 H   0  0  0  0  0  0  0  0  0  0  0  0
    4.3480   -1.6753    0.0000 H   0  0  0  0  0  0  0  0  0  0  0  0
    7.8492   -0.0685    0.0000 H   0  0  0  0  0  0  0  0  0  0  0  0
    8.2246    0.6325    0.0000 H   0  0  0  0  0  0  0  0  0  0  0  0
    8.2046    1.4036    0.0000 H   0  0  0  0  0  0  0  0  0  0  0  0
    7.7936    2.0842    0.0000 H   0  0  0  0  0  0  0  0  0  0  0  0
    5.8817   -2.2040    0.0000 H   0  0  0  0  0  0  0  0  0  0  0  0
    7.3243   -1.3712    0.0000 H   0  0  0  0  0  0  0  0  0  0  0  0
    3.0364    2.3362    0.0000 H   0  0  0  0  0  0  0  0  0  0  0  0
    2.1277   -0.2789    0.0000 H   0  0  0  0  0  0  0  0  0  0  0  0
    7.3390    2.9867    0.0000 H   0  0  0  0  0  0  0  0  0  0  0  0
    6.7144    3.6021    0.0000 H   0  0  0  0  0  0  0  0  0  0  0  0
    6.0990    2.9775    0.0000 H   0  0  0  0  0  0  0  0  0  0  0  0
    3.8702   -2.5734    0.0000 H   0  0  0  0  0  0  0  0  0  0  0  0
    1.8721    1.2754    0.0000 H   0  0  0  0  0  0  0  0  0  0  0  0
    1.5264   -2.6961    0.0000 H   0  0  0  0  0  0  0  0  0  0  0  0
    1.7905   -3.5322    0.0000 H   0  0  0  0  0  0  0  0  0  0  0  0
    2.6266   -3.2681    0.0000 H   0  0  0  0  0  0  0  0  0  0  0  0
  1 22  2  0  0  0  0
  2  4  1  0  0  0  0
  2 15  1  0  0  0  0
  2 20  1  0  0  0  0
 10  3  1  1  0  0  0
  3 22  1  0  0  0  0
  3 39  1  0  0  0  0
  4  5  1  0  0  0  0
  4  8  1  0  0  0  0
  4 24  1  6  0  0  0
  5  6  1  0  0  0  0
  5 11  2  0  0  0  0
  6  7  1  0  0  0  0
  6  9  2  0  0  0  0
  7 12  2  0  0  0  0
  7 13  1  0  0  0  0
  8 12  1  0  0  0  0
  8 25  1  0  0  0  0
  8 26  1  0  0  0  0
  9 10  1  0  0  0  0
  9 16  1  0  0  0  0
 10 13  1  0  0  0  0
 10 27  1  0  0  0  0
 11 14  1  0  0  0  0
 11 17  1  0  0  0  0
 12 18  1  0  0  0  0
 13 19  2  0  0  0  0
 14 15  1  0  0  0  0
 14 28  1  0  0  0  0
 14 29  1  0  0  0  0
 15 30  1  0  0  0  0
 15 31  1  0  0  0  0
 16 17  2  0  0  0  0
 16 32  1  0  0  0  0
 17 33  1  0  0  0  0
 18 21  2  0  0  0  0
 18 34  1  0  0  0  0
 19 21  1  0  0  0  0
 19 35  1  0  0  0  0
 20 36  1  0  0  0  0
 20 37  1  0  0  0  0
 20 38  1  0  0  0  0
 21 40  1  0  0  0  0
 22 23  1  0  0  0  0
 23 41  1  0  0  0  0
 23 42  1  0  0  0  0
 23 43  1  0  0  0  0
M  END
> <PUBCHEM_COMPOUND_CID>
10780842

> <PUBCHEM_COMPOUND_CANONICALIZED>
1

> <PUBCHEM_CACTVS_COMPLEXITY>
506

> <PUBCHEM_CACTVS_HBOND_ACCEPTOR>
2

> <PUBCHEM_CACTVS_HBOND_DONOR>
1

> <PUBCHEM_CACTVS_ROTATABLE_BOND>
1

> <PUBCHEM_CACTVS_SUBSKEYS>
AAADceB7IAAAAAAAAAAAAAAAAAAAAYAAAAA8YMEAAAAAAGDxQAAAHgAQAAAADCjBmAQyAIPAAACIAiFSEACCAAAgAAAIiIAIBIgIICKAkRGEIAhglgCIiAcQgMAOwAACAAAQAACQAASAACQAASAACQAAAA==

> <PUBCHEM_IUPAC_OPENEYE_NAME>
N-[(6S,14R)-13-methyl-13-azapentacyclo[12.3.1.05,17.07,16.010,15]octadeca-1(17),2,4,7(16),8,10(15)-hexaen-6-yl]acetamide

> <PUBCHEM_IUPAC_CAS_NAME>
N-[(6S,14R)-13-methyl-13-azapentacyclo[12.3.1.05,17.07,16.010,15]octadeca-1(17),2,4,7(16),8,10(15)-hexaen-6-yl]acetamide

> <PUBCHEM_IUPAC_NAME_MARKUP>
<I>N</I>-[(6<I>S</I>,14<I>R</I>)-13-methyl-13-azapentacyclo[12.3.1.0<SUP>5,17</SUP>.0<SUP>7,16</SUP>.0<SUP>10,15</SUP>]octadeca-1(17),2,4,7(16),8,10(15)-hexaen-6-yl]acetamide

> <PUBCHEM_IUPAC_NAME>
N-[(6S,14R)-13-methyl-13-azapentacyclo[12.3.1.05,17.07,16.010,15]octadeca-1(17),2,4,7(16),8,10(15)-hexaen-6-yl]acetamide

> <PUBCHEM_IUPAC_SYSTEMATIC_NAME>
N-[(6S,14R)-13-methyl-13-azapentacyclo[12.3.1.05,17.07,16.010,15]octadeca-1(17),2,4,7(16),8,10(15)-hexaen-6-yl]ethanamide

> <PUBCHEM_IUPAC_TRADITIONAL_NAME>
N-[(6S,14R)-13-methyl-13-azapentacyclo[12.3.1.05,17.07,16.010,15]octadeca-1(17),2,4,7(16),8,10(15)-hexaen-6-yl]acetamide

> <PUBCHEM_IUPAC_INCHI>
InChI=1S/C20H20N2O/c1-11(23)21-20-14-5-3-4-13-10-16-18-12(8-9-22(16)2)6-7-15(20)19(18)17(13)14/h3-7,16,20H,8-10H2,1-2H3,(H,21,23)/t16-,20+/m1/s1

> <PUBCHEM_IUPAC_INCHIKEY>
KCDYLYMPNGUYNO-UZLBHIALSA-N

> <PUBCHEM_XLOGP3_AA>
2.4

> <PUBCHEM_EXACT_MASS>
304.157563266

> <PUBCHEM_MOLECULAR_FORMULA>
C20H20N2O

> <PUBCHEM_MOLECULAR_WEIGHT>
304.4

> <PUBCHEM_OPENEYE_CAN_SMILES>
CC(=O)NC1C2=C3C4=C(CCN(C4CC5=C3C1=CC=C5)C)C=C2

> <PUBCHEM_OPENEYE_ISO_SMILES>
CC(=O)N[C@@H]1C2=C3C4=C(CCN([C@@H]4CC5=C3C1=CC=C5)C)C=C2

> <PUBCHEM_CACTVS_TPSA>
32.3

> <PUBCHEM_MONOISOTOPIC_WEIGHT>
304.157563266

> <PUBCHEM_TOTAL_CHARGE>
0

> <PUBCHEM_HEAVY_ATOM_COUNT>
23

> <PUBCHEM_ATOM_DEF_STEREO_COUNT>
2

> <PUBCHEM_ATOM_UDEF_STEREO_COUNT>
0

> <PUBCHEM_BOND_DEF_STEREO_COUNT>
0

> <PUBCHEM_BOND_UDEF_STEREO_COUNT>
0

> <PUBCHEM_ISOTOPIC_ATOM_COUNT>
0

> <PUBCHEM_COMPONENT_COUNT>
1

> <PUBCHEM_CACTVS_TAUTO_COUNT>
-1

> <PUBCHEM_COORDINATE_TYPE>
1
5
255

> <PUBCHEM_BONDANNOTATIONS>
11  17  8
12  18  8
13  19  8
16  17  8
18  21  8
19  21  8
10  3  5
4  24  6
5  11  8
5  6  8
6  9  8
7  12  8
7  13  8
9  16  8

$$$$
