90643702
  -OEChem-09292322352D

 67 71  0     1  0  0  0  0  0999 V2000
    3.7424   -4.2340    0.0000 Cl  0  0  0  0  0  0  0  0  0  0  0  0
    6.0532    0.5263    0.0000 O   0  0  0  0  0  0  0  0  0  0  0  0
    9.2688    1.1993    0.0000 O   0  0  0  0  0  0  0  0  0  0  0  0
    3.6730    1.3028    0.0000 N   0  0  3  0  0  0  0  0  0  0  0  0
    8.4028    2.6993    0.0000 N   0  0  0  0  0  0  0  0  0  0  0  0
    2.9659    0.5956    0.0000 C   0  0  1  0  0  0  0  0  0  0  0  0
    2.7071   -0.3703    0.0000 C   0  0  1  0  0  0  0  0  0  0  0  0
    2.0000    0.3368    0.0000 C   0  0  0  0  0  0  0  0  0  0  0  0
    6.3120    1.4922    0.0000 C   0  0  0  0  0  0  0  0  0  0  0  0
    7.2779    1.2334    0.0000 C   0  0  0  0  0  0  0  0  0  0  0  0
    6.5708    2.4581    0.0000 C   0  0  0  0  0  0  0  0  0  0  0  0
    5.3461    1.7510    0.0000 C   0  0  0  0  0  0  0  0  0  0  0  0
    7.5367    2.1993    0.0000 C   0  0  0  0  0  0  0  0  0  0  0  0
    4.6390    1.0439    0.0000 C   0  0  0  0  0  0  0  0  0  0  0  0
    2.9659   -1.3362    0.0000 C   0  0  0  0  0  0  0  0  0  0  0  0
    3.4142    2.2687    0.0000 C   0  0  0  0  0  0  0  0  0  0  0  0
    2.4483    2.5275    0.0000 C   0  0  0  0  0  0  0  0  0  0  0  0
    2.2588   -2.0433    0.0000 C   0  0  0  0  0  0  0  0  0  0  0  0
    3.9318   -1.5950    0.0000 C   0  0  0  0  0  0  0  0  0  0  0  0
    9.2688    2.1993    0.0000 C   0  0  0  0  0  0  0  0  0  0  0  0
    2.1895    3.4934    0.0000 C   0  0  0  0  0  0  0  0  0  0  0  0
    2.5176   -3.0092    0.0000 C   0  0  0  0  0  0  0  0  0  0  0  0
    4.1907   -2.5610    0.0000 C   0  0  0  0  0  0  0  0  0  0  0  0
    3.4836   -3.2681    0.0000 C   0  0  0  0  0  0  0  0  0  0  0  0
   10.1348    2.6993    0.0000 C   0  0  0  0  0  0  0  0  0  0  0  0
   11.0008    2.1993    0.0000 C   0  0  0  0  0  0  0  0  0  0  0  0
   10.1348    3.6993    0.0000 C   0  0  0  0  0  0  0  0  0  0  0  0
   11.8669    2.6993    0.0000 C   0  0  0  0  0  0  0  0  0  0  0  0
   11.0008    4.1993    0.0000 C   0  0  0  0  0  0  0  0  0  0  0  0
   11.8669    3.6993    0.0000 C   0  0  0  0  0  0  0  0  0  0  0  0
   12.7608    2.1647    0.0000 C   0  0  0  0  0  0  0  0  0  0  0  0
   12.7608    4.2340    0.0000 C   0  0  0  0  0  0  0  0  0  0  0  0
   13.6669    2.6785    0.0000 C   0  0  0  0  0  0  0  0  0  0  0  0
   13.6669    3.7201    0.0000 C   0  0  0  0  0  0  0  0  0  0  0  0
    3.5029    0.2856    0.0000 H   0  0  0  0  0  0  0  0  0  0  0  0
    2.1702   -0.6803    0.0000 H   0  0  0  0  0  0  0  0  0  0  0  0
    1.7380    0.8987    0.0000 H   0  0  0  0  0  0  0  0  0  0  0  0
    1.4921   -0.0188    0.0000 H   0  0  0  0  0  0  0  0  0  0  0  0
    7.1174    0.6345    0.0000 H   0  0  0  0  0  0  0  0  0  0  0  0
    7.8768    1.0729    0.0000 H   0  0  0  0  0  0  0  0  0  0  0  0
    6.7313    3.0570    0.0000 H   0  0  0  0  0  0  0  0  0  0  0  0
    5.9719    2.6186    0.0000 H   0  0  0  0  0  0  0  0  0  0  0  0
    5.6081    2.3130    0.0000 H   0  0  0  0  0  0  0  0  0  0  0  0
    4.8382    2.1066    0.0000 H   0  0  0  0  0  0  0  0  0  0  0  0
    8.0286    1.8219    0.0000 H   0  0  0  0  0  0  0  0  0  0  0  0
    4.3769    0.4820    0.0000 H   0  0  0  0  0  0  0  0  0  0  0  0
    5.1468    0.6883    0.0000 H   0  0  0  0  0  0  0  0  0  0  0  0
    4.0319    2.3227    0.0000 H   0  0  0  0  0  0  0  0  0  0  0  0
    3.4682    2.8863    0.0000 H   0  0  0  0  0  0  0  0  0  0  0  0
    8.4028    3.3193    0.0000 H   0  0  0  0  0  0  0  0  0  0  0  0
    6.4916    0.0879    0.0000 H   0  0  0  0  0  0  0  0  0  0  0  0
    1.8306    2.4735    0.0000 H   0  0  0  0  0  0  0  0  0  0  0  0
    2.3942    1.9098    0.0000 H   0  0  0  0  0  0  0  0  0  0  0  0
    1.6600   -1.8828    0.0000 H   0  0  0  0  0  0  0  0  0  0  0  0
    4.3703   -1.1566    0.0000 H   0  0  0  0  0  0  0  0  0  0  0  0
    2.7883    3.6539    0.0000 H   0  0  0  0  0  0  0  0  0  0  0  0
    2.0290    4.0923    0.0000 H   0  0  0  0  0  0  0  0  0  0  0  0
    1.5906    3.3330    0.0000 H   0  0  0  0  0  0  0  0  0  0  0  0
    2.0792   -3.4476    0.0000 H   0  0  0  0  0  0  0  0  0  0  0  0
    4.7895   -2.7214    0.0000 H   0  0  0  0  0  0  0  0  0  0  0  0
   11.0008    1.5793    0.0000 H   0  0  0  0  0  0  0  0  0  0  0  0
    9.5979    4.0093    0.0000 H   0  0  0  0  0  0  0  0  0  0  0  0
   11.0008    4.8193    0.0000 H   0  0  0  0  0  0  0  0  0  0  0  0
   12.7536    1.5447    0.0000 H   0  0  0  0  0  0  0  0  0  0  0  0
   12.7536    4.8539    0.0000 H   0  0  0  0  0  0  0  0  0  0  0  0
   14.2026    2.3664    0.0000 H   0  0  0  0  0  0  0  0  0  0  0  0
   14.2026    4.0322    0.0000 H   0  0  0  0  0  0  0  0  0  0  0  0
  1 24  1  0  0  0  0
  2  9  1  0  0  0  0
  2 51  1  0  0  0  0
  3 20  2  0  0  0  0
  6  4  1  1  0  0  0
  4 14  1  0  0  0  0
  4 16  1  0  0  0  0
  5 13  1  0  0  0  0
  5 20  1  0  0  0  0
  5 50  1  0  0  0  0
  6  7  1  0  0  0  0
  6  8  1  0  0  0  0
  6 35  1  0  0  0  0
  7  8  1  0  0  0  0
  7 15  1  6  0  0  0
  7 36  1  0  0  0  0
  8 37  1  0  0  0  0
  8 38  1  0  0  0  0
  9 10  1  0  0  0  0
  9 11  1  0  0  0  0
  9 12  1  0  0  0  0
 10 13  1  0  0  0  0
 10 39  1  0  0  0  0
 10 40  1  0  0  0  0
 11 13  1  0  0  0  0
 11 41  1  0  0  0  0
 11 42  1  0  0  0  0
 12 14  1  0  0  0  0
 12 43  1  0  0  0  0
 12 44  1  0  0  0  0
 13 45  1  0  0  0  0
 14 46  1  0  0  0  0
 14 47  1  0  0  0  0
 15 18  2  0  0  0  0
 15 19  1  0  0  0  0
 16 17  1  0  0  0  0
 16 48  1  0  0  0  0
 16 49  1  0  0  0  0
 17 21  1  0  0  0  0
 17 52  1  0  0  0  0
 17 53  1  0  0  0  0
 18 22  1  0  0  0  0
 18 54  1  0  0  0  0
 19 23  2  0  0  0  0
 19 55  1  0  0  0  0
 20 25  1  0  0  0  0
 21 56  1  0  0  0  0
 21 57  1  0  0  0  0
 21 58  1  0  0  0  0
 22 24  2  0  0  0  0
 22 59  1  0  0  0  0
 23 24  1  0  0  0  0
 23 60  1  0  0  0  0
 25 26  2  0  0  0  0
 25 27  1  0  0  0  0
 26 28  1  0  0  0  0
 26 61  1  0  0  0  0
 27 29  2  0  0  0  0
 27 62  1  0  0  0  0
 28 30  1  0  0  0  0
 28 31  2  0  0  0  0
 29 30  1  0  0  0  0
 29 63  1  0  0  0  0
 30 32  2  0  0  0  0
 31 33  1  0  0  0  0
 31 64  1  0  0  0  0
 32 34  1  0  0  0  0
 32 65  1  0  0  0  0
 33 34  2  0  0  0  0
 33 66  1  0  0  0  0
 34 67  1  0  0  0  0
M  END
> <PUBCHEM_COMPOUND_CID>
90643702

> <PUBCHEM_COMPOUND_CANONICALIZED>
1

> <PUBCHEM_CACTVS_COMPLEXITY>
688

> <PUBCHEM_CACTVS_HBOND_ACCEPTOR>
3

> <PUBCHEM_CACTVS_HBOND_DONOR>
2

> <PUBCHEM_CACTVS_ROTATABLE_BOND>
9

> <PUBCHEM_CACTVS_SUBSKEYS>
AAADcfB7MAAEAAAAAAAAAAAAGABgAAAAAAAwYMAAAAAAAADBVAAAHgIQCAAADW7BmCQyAMPAAgCIAiFSEACCAAAkBQAIiIEIBsgIIDKBlxGEYQhmlgCIiYcYiMCOxAACAAAQAACIAAQAACAAAAAAAAAAAA==

> <PUBCHEM_IUPAC_OPENEYE_NAME>
N-[3-[2-[[(1R,2S)-2-(4-chlorophenyl)cyclopropyl]-propyl-amino]ethyl]-3-hydroxy-cyclobutyl]naphthalene-2-carboxamide

> <PUBCHEM_IUPAC_CAS_NAME>
N-[3-[2-[[(1R,2S)-2-(4-chlorophenyl)cyclopropyl]-propylamino]ethyl]-3-hydroxycyclobutyl]-2-naphthalenecarboxamide

> <PUBCHEM_IUPAC_NAME_MARKUP>
<I>N</I>-[3-[2-[[(1<I>R</I>,2<I>S</I>)-2-(4-chlorophenyl)cyclopropyl]-propylamino]ethyl]-3-hydroxycyclobutyl]naphthalene-2-carboxamide

> <PUBCHEM_IUPAC_NAME>
N-[3-[2-[[(1R,2S)-2-(4-chlorophenyl)cyclopropyl]-propylamino]ethyl]-3-hydroxycyclobutyl]naphthalene-2-carboxamide

> <PUBCHEM_IUPAC_SYSTEMATIC_NAME>
N-[3-[2-[[(1R,2S)-2-(4-chlorophenyl)cyclopropyl]-propyl-amino]ethyl]-3-oxidanyl-cyclobutyl]naphthalene-2-carboxamide

> <PUBCHEM_IUPAC_TRADITIONAL_NAME>
N-[3-[2-[[(1R,2S)-2-(4-chlorophenyl)cyclopropyl]-propyl-amino]ethyl]-3-hydroxy-cyclobutyl]-2-naphthamide

> <PUBCHEM_IUPAC_INCHI>
InChI=1S/C29H33ClN2O2/c1-2-14-32(27-17-26(27)21-9-11-24(30)12-10-21)15-13-29(34)18-25(19-29)31-28(33)23-8-7-20-5-3-4-6-22(20)16-23/h3-12,16,25-27,34H,2,13-15,17-19H2,1H3,(H,31,33)/t25?,26-,27+,29?/m0/s1

> <PUBCHEM_IUPAC_INCHIKEY>
KIRKSXHWZHQUBF-UXPGEOTKSA-N

> <PUBCHEM_XLOGP3_AA>
6.1

> <PUBCHEM_EXACT_MASS>
476.2230560

> <PUBCHEM_MOLECULAR_FORMULA>
C29H33ClN2O2

> <PUBCHEM_MOLECULAR_WEIGHT>
477.0

> <PUBCHEM_OPENEYE_CAN_SMILES>
CCCN(CCC1(CC(C1)NC(=O)C2=CC3=CC=CC=C3C=C2)O)C4CC4C5=CC=C(C=C5)Cl

> <PUBCHEM_OPENEYE_ISO_SMILES>
CCCN(CCC1(CC(C1)NC(=O)C2=CC3=CC=CC=C3C=C2)O)[C@@H]4C[C@H]4C5=CC=C(C=C5)Cl

> <PUBCHEM_CACTVS_TPSA>
52.6

> <PUBCHEM_MONOISOTOPIC_WEIGHT>
476.2230560

> <PUBCHEM_TOTAL_CHARGE>
0

> <PUBCHEM_HEAVY_ATOM_COUNT>
34

> <PUBCHEM_ATOM_DEF_STEREO_COUNT>
2

> <PUBCHEM_ATOM_UDEF_STEREO_COUNT>
0

> <PUBCHEM_BOND_DEF_STEREO_COUNT>
0

> <PUBCHEM_BOND_UDEF_STEREO_COUNT>
0

> <PUBCHEM_ISOTOPIC_ATOM_COUNT>
0

> <PUBCHEM_COMPONENT_COUNT>
1

> <PUBCHEM_CACTVS_TAUTO_COUNT>
-1

> <PUBCHEM_COORDINATE_TYPE>
1
5
255

> <PUBCHEM_BONDANNOTATIONS>
15  18  8
15  19  8
18  22  8
19  23  8
22  24  8
23  24  8
25  26  8
25  27  8
26  28  8
27  29  8
28  30  8
28  31  8
29  30  8
30  32  8
31  33  8
32  34  8
33  34  8
6  4  5
7  15  6

$$$$
