71658074
  -OEChem-09292322332D

 63 66  0     1  0  0  0  0  0999 V2000
   14.6050    0.1869    0.0000 O   0  0  0  0  0  0  0  0  0  0  0  0
    6.7619   -2.6505    0.0000 O   0  0  0  0  0  0  0  0  0  0  0  0
   10.7619    0.8136    0.0000 N   0  0  3  0  0  0  0  0  0  0  0  0
   12.9525    1.3136    0.0000 N   0  0  3  0  0  0  0  0  0  0  0  0
    6.7619   -0.9185    0.0000 N   0  0  0  0  0  0  0  0  0  0  0  0
    4.6783   -2.5892    0.0000 N   0  0  0  0  0  0  0  0  0  0  0  0
   11.1958   -0.0874    0.0000 C   0  0  0  0  0  0  0  0  0  0  0  0
   11.1958    1.7146    0.0000 C   0  0  0  0  0  0  0  0  0  0  0  0
   12.1707   -0.3099    0.0000 C   0  0  0  0  0  0  0  0  0  0  0  0
   12.1707    1.9371    0.0000 C   0  0  0  0  0  0  0  0  0  0  0  0
   12.9525    0.3136    0.0000 C   0  0  0  0  0  0  0  0  0  0  0  0
    9.7619    0.8136    0.0000 C   0  0  0  0  0  0  0  0  0  0  0  0
    9.2619   -0.0524    0.0000 C   0  0  0  0  0  0  0  0  0  0  0  0
   13.8535    1.7475    0.0000 C   0  0  0  0  0  0  0  0  0  0  0  0
    8.2619   -0.0524    0.0000 C   0  0  0  0  0  0  0  0  0  0  0  0
    7.7619   -0.9185    0.0000 C   0  0  0  0  0  0  0  0  0  0  0  0
   14.6797    1.1841    0.0000 C   0  0  0  0  0  0  0  0  0  0  0  0
   13.9282    2.7447    0.0000 C   0  0  0  0  0  0  0  0  0  0  0  0
   15.5807    1.6180    0.0000 C   0  0  0  0  0  0  0  0  0  0  0  0
   14.8292    3.1786    0.0000 C   0  0  0  0  0  0  0  0  0  0  0  0
   15.6554    2.6152    0.0000 C   0  0  0  0  0  0  0  0  0  0  0  0
    6.2619   -1.7845    0.0000 C   0  0  0  0  0  0  0  0  0  0  0  0
    5.2619   -1.7845    0.0000 C   0  0  0  0  0  0  0  0  0  0  0  0
    3.7320   -2.2845    0.0000 C   0  0  0  0  0  0  0  0  0  0  0  0
    3.7320   -1.2845    0.0000 C   0  0  0  0  0  0  0  0  0  0  0  0
    4.6783   -0.9798    0.0000 C   0  0  0  0  0  0  0  0  0  0  0  0
   15.4312   -0.3764    0.0000 C   0  0  0  0  0  0  0  0  0  0  0  0
    2.8660   -2.7845    0.0000 C   0  0  0  0  0  0  0  0  0  0  0  0
    2.8660   -0.7845    0.0000 C   0  0  0  0  0  0  0  0  0  0  0  0
    2.0000   -2.2845    0.0000 C   0  0  0  0  0  0  0  0  0  0  0  0
    2.0000   -1.2845    0.0000 C   0  0  0  0  0  0  0  0  0  0  0  0
   10.5913   -0.2254    0.0000 H   0  0  0  0  0  0  0  0  0  0  0  0
   11.1958   -0.7074    0.0000 H   0  0  0  0  0  0  0  0  0  0  0  0
   11.1958    2.3346    0.0000 H   0  0  0  0  0  0  0  0  0  0  0  0
   10.5913    1.8525    0.0000 H   0  0  0  0  0  0  0  0  0  0  0  0
   11.9017   -0.8685    0.0000 H   0  0  0  0  0  0  0  0  0  0  0  0
   12.6554   -0.6965    0.0000 H   0  0  0  0  0  0  0  0  0  0  0  0
   12.6554    2.3236    0.0000 H   0  0  0  0  0  0  0  0  0  0  0  0
   11.9017    2.4957    0.0000 H   0  0  0  0  0  0  0  0  0  0  0  0
   13.2215   -0.2450    0.0000 H   0  0  0  0  0  0  0  0  0  0  0  0
   13.5570    0.4515    0.0000 H   0  0  0  0  0  0  0  0  0  0  0  0
    9.8695    1.4242    0.0000 H   0  0  0  0  0  0  0  0  0  0  0  0
    9.1793    1.0256    0.0000 H   0  0  0  0  0  0  0  0  0  0  0  0
    9.1542   -0.6630    0.0000 H   0  0  0  0  0  0  0  0  0  0  0  0
    9.8445   -0.2645    0.0000 H   0  0  0  0  0  0  0  0  0  0  0  0
    8.3695    0.5581    0.0000 H   0  0  0  0  0  0  0  0  0  0  0  0
    7.6793    0.1596    0.0000 H   0  0  0  0  0  0  0  0  0  0  0  0
    7.6542   -1.5290    0.0000 H   0  0  0  0  0  0  0  0  0  0  0  0
    8.3445   -1.1305    0.0000 H   0  0  0  0  0  0  0  0  0  0  0  0
   13.4160    3.0939    0.0000 H   0  0  0  0  0  0  0  0  0  0  0  0
    6.4519   -0.3815    0.0000 H   0  0  0  0  0  0  0  0  0  0  0  0
   16.0930    1.2688    0.0000 H   0  0  0  0  0  0  0  0  0  0  0  0
   14.8755    3.7968    0.0000 H   0  0  0  0  0  0  0  0  0  0  0  0
   16.2140    2.8842    0.0000 H   0  0  0  0  0  0  0  0  0  0  0  0
    4.8709   -3.1786    0.0000 H   0  0  0  0  0  0  0  0  0  0  0  0
    4.8709   -0.3904    0.0000 H   0  0  0  0  0  0  0  0  0  0  0  0
   15.0820   -0.8886    0.0000 H   0  0  0  0  0  0  0  0  0  0  0  0
   15.9435   -0.7256    0.0000 H   0  0  0  0  0  0  0  0  0  0  0  0
   15.7805    0.1359    0.0000 H   0  0  0  0  0  0  0  0  0  0  0  0
    2.8660   -3.4045    0.0000 H   0  0  0  0  0  0  0  0  0  0  0  0
    2.8660   -0.1645    0.0000 H   0  0  0  0  0  0  0  0  0  0  0  0
    1.4631   -2.5945    0.0000 H   0  0  0  0  0  0  0  0  0  0  0  0
    1.4631   -0.9745    0.0000 H   0  0  0  0  0  0  0  0  0  0  0  0
  1 17  1  0  0  0  0
  1 27  1  0  0  0  0
  2 22  2  0  0  0  0
  3  7  1  0  0  0  0
  3  8  1  0  0  0  0
  3 12  1  0  0  0  0
  4 10  1  0  0  0  0
  4 11  1  0  0  0  0
  4 14  1  0  0  0  0
  5 16  1  0  0  0  0
  5 22  1  0  0  0  0
  5 51  1  0  0  0  0
  6 23  1  0  0  0  0
  6 24  1  0  0  0  0
  6 55  1  0  0  0  0
  7  9  1  0  0  0  0
  7 32  1  0  0  0  0
  7 33  1  0  0  0  0
  8 10  1  0  0  0  0
  8 34  1  0  0  0  0
  8 35  1  0  0  0  0
  9 11  1  0  0  0  0
  9 36  1  0  0  0  0
  9 37  1  0  0  0  0
 10 38  1  0  0  0  0
 10 39  1  0  0  0  0
 11 40  1  0  0  0  0
 11 41  1  0  0  0  0
 12 13  1  0  0  0  0
 12 42  1  0  0  0  0
 12 43  1  0  0  0  0
 13 15  1  0  0  0  0
 13 44  1  0  0  0  0
 13 45  1  0  0  0  0
 14 17  1  0  0  0  0
 14 18  2  0  0  0  0
 15 16  1  0  0  0  0
 15 46  1  0  0  0  0
 15 47  1  0  0  0  0
 16 48  1  0  0  0  0
 16 49  1  0  0  0  0
 17 19  2  0  0  0  0
 18 20  1  0  0  0  0
 18 50  1  0  0  0  0
 19 21  1  0  0  0  0
 19 52  1  0  0  0  0
 20 21  2  0  0  0  0
 20 53  1  0  0  0  0
 21 54  1  0  0  0  0
 22 23  1  0  0  0  0
 23 26  2  0  0  0  0
 24 25  1  0  0  0  0
 24 28  2  0  0  0  0
 25 26  1  0  0  0  0
 25 29  2  0  0  0  0
 26 56  1  0  0  0  0
 27 57  1  0  0  0  0
 27 58  1  0  0  0  0
 27 59  1  0  0  0  0
 28 30  1  0  0  0  0
 28 60  1  0  0  0  0
 29 31  1  0  0  0  0
 29 61  1  0  0  0  0
 30 31  2  0  0  0  0
 30 62  1  0  0  0  0
 31 63  1  0  0  0  0
M  END
> <PUBCHEM_COMPOUND_CID>
71658074

> <PUBCHEM_COMPOUND_CANONICALIZED>
1

> <PUBCHEM_CACTVS_COMPLEXITY>
560

> <PUBCHEM_CACTVS_HBOND_ACCEPTOR>
4

> <PUBCHEM_CACTVS_HBOND_DONOR>
2

> <PUBCHEM_CACTVS_ROTATABLE_BOND>
8

> <PUBCHEM_CACTVS_SUBSKEYS>
AAADcfB7sAAAAAAAAAAAAAAAAAAAAWAAAAAwYAAABYAAAFgB9AAAHgAQAAAADAzBngYyxvPJlACoAyVyVACCiCAnIiAImaG/bNgOZvLE9buVMShk1hHY6YeYyYCeAAAAAAACEAAAAAAAAAQgAAAAAAAAAA==

> <PUBCHEM_IUPAC_OPENEYE_NAME>
N-[4-[4-(2-methoxyphenyl)-1,4-diazepan-1-yl]butyl]-1H-indole-2-carboxamide

> <PUBCHEM_IUPAC_CAS_NAME>
N-[4-[4-(2-methoxyphenyl)-1,4-diazepan-1-yl]butyl]-1H-indole-2-carboxamide

> <PUBCHEM_IUPAC_NAME_MARKUP>
<I>N</I>-[4-[4-(2-methoxyphenyl)-1,4-diazepan-1-yl]butyl]-1<I>H</I>-indole-2-carboxamide

> <PUBCHEM_IUPAC_NAME>
N-[4-[4-(2-methoxyphenyl)-1,4-diazepan-1-yl]butyl]-1H-indole-2-carboxamide

> <PUBCHEM_IUPAC_SYSTEMATIC_NAME>
N-[4-[4-(2-methoxyphenyl)-1,4-diazepan-1-yl]butyl]-1H-indole-2-carboxamide

> <PUBCHEM_IUPAC_TRADITIONAL_NAME>
N-[4-[4-(2-methoxyphenyl)-1,4-diazepan-1-yl]butyl]-1H-indole-2-carboxamide

> <PUBCHEM_IUPAC_INCHI>
InChI=1S/C25H32N4O2/c1-31-24-12-5-4-11-23(24)29-16-8-15-28(17-18-29)14-7-6-13-26-25(30)22-19-20-9-2-3-10-21(20)27-22/h2-5,9-12,19,27H,6-8,13-18H2,1H3,(H,26,30)

> <PUBCHEM_IUPAC_INCHIKEY>
SCWHHXLTCHIVBS-UHFFFAOYSA-N

> <PUBCHEM_XLOGP3_AA>
4.3

> <PUBCHEM_EXACT_MASS>
420.25252628

> <PUBCHEM_MOLECULAR_FORMULA>
C25H32N4O2

> <PUBCHEM_MOLECULAR_WEIGHT>
420.5

> <PUBCHEM_OPENEYE_CAN_SMILES>
COC1=CC=CC=C1N2CCCN(CC2)CCCCNC(=O)C3=CC4=CC=CC=C4N3

> <PUBCHEM_OPENEYE_ISO_SMILES>
COC1=CC=CC=C1N2CCCN(CC2)CCCCNC(=O)C3=CC4=CC=CC=C4N3

> <PUBCHEM_CACTVS_TPSA>
60.6

> <PUBCHEM_MONOISOTOPIC_WEIGHT>
420.25252628

> <PUBCHEM_TOTAL_CHARGE>
0

> <PUBCHEM_HEAVY_ATOM_COUNT>
31

> <PUBCHEM_ATOM_DEF_STEREO_COUNT>
0

> <PUBCHEM_ATOM_UDEF_STEREO_COUNT>
0

> <PUBCHEM_BOND_DEF_STEREO_COUNT>
0

> <PUBCHEM_BOND_UDEF_STEREO_COUNT>
0

> <PUBCHEM_ISOTOPIC_ATOM_COUNT>
0

> <PUBCHEM_COMPONENT_COUNT>
1

> <PUBCHEM_CACTVS_TAUTO_COUNT>
-1

> <PUBCHEM_COORDINATE_TYPE>
1
5
255

> <PUBCHEM_BONDANNOTATIONS>
14  17  8
14  18  8
17  19  8
18  20  8
19  21  8
20  21  8
23  26  8
24  25  8
24  28  8
25  26  8
25  29  8
28  30  8
29  31  8
30  31  8
6  23  8
6  24  8

$$$$
