44336194
  -OEChem-09292322152D

 54 57  0     0  0  0  0  0  0999 V2000
   12.8562   -3.5252    0.0000 Cl  0  0  0  0  0  0  0  0  0  0  0  0
    2.8660    4.0633    0.0000 S   0  0  0  0  0  0  0  0  0  0  0  0
    6.0531    0.5637    0.0000 O   0  0  0  0  0  0  0  0  0  0  0  0
    8.0102    0.1513    0.0000 N   0  0  0  0  0  0  0  0  0  0  0  0
    8.6315   -1.7498    0.0000 N   0  0  0  0  0  0  0  0  0  0  0  0
    6.4103    2.2585    0.0000 N   0  0  0  0  0  0  0  0  0  0  0  0
    8.9887   -0.0550    0.0000 C   0  0  0  0  0  0  0  0  0  0  0  0
    7.3423   -0.5930    0.0000 C   0  0  0  0  0  0  0  0  0  0  0  0
    9.2993   -1.0055    0.0000 C   0  0  0  0  0  0  0  0  0  0  0  0
    7.6530   -1.5436    0.0000 C   0  0  0  0  0  0  0  0  0  0  0  0
    7.6995    1.1018    0.0000 C   0  0  0  0  0  0  0  0  0  0  0  0
    8.9421   -2.7003    0.0000 C   0  0  0  0  0  0  0  0  0  0  0  0
    6.9939    3.0633    0.0000 C   0  0  0  0  0  0  0  0  0  0  0  0
    6.7210    1.3080    0.0000 C   0  0  0  0  0  0  0  0  0  0  0  0
    6.4103    3.8680    0.0000 C   0  0  0  0  0  0  0  0  0  0  0  0
    5.4641    2.5633    0.0000 C   0  0  0  0  0  0  0  0  0  0  0  0
    5.4641    3.5633    0.0000 C   0  0  0  0  0  0  0  0  0  0  0  0
    9.9206   -2.9065    0.0000 C   0  0  0  0  0  0  0  0  0  0  0  0
    4.5981    2.0633    0.0000 C   0  0  0  0  0  0  0  0  0  0  0  0
    4.5981    4.0633    0.0000 C   0  0  0  0  0  0  0  0  0  0  0  0
    3.7320    3.5633    0.0000 C   0  0  0  0  0  0  0  0  0  0  0  0
    3.7320    2.5633    0.0000 C   0  0  0  0  0  0  0  0  0  0  0  0
   10.2313   -3.8570    0.0000 C   0  0  0  0  0  0  0  0  0  0  0  0
   10.5885   -2.1622    0.0000 C   0  0  0  0  0  0  0  0  0  0  0  0
   11.2098   -4.0633    0.0000 C   0  0  0  0  0  0  0  0  0  0  0  0
   11.5670   -2.3684    0.0000 C   0  0  0  0  0  0  0  0  0  0  0  0
   11.8777   -3.3190    0.0000 C   0  0  0  0  0  0  0  0  0  0  0  0
    2.0000    3.5633    0.0000 C   0  0  0  0  0  0  0  0  0  0  0  0
    9.6025    0.0324    0.0000 H   0  0  0  0  0  0  0  0  0  0  0  0
    9.0092    0.5647    0.0000 H   0  0  0  0  0  0  0  0  0  0  0  0
    6.9598   -0.1051    0.0000 H   0  0  0  0  0  0  0  0  0  0  0  0
    6.7954   -0.8851    0.0000 H   0  0  0  0  0  0  0  0  0  0  0  0
    9.6819   -1.4934    0.0000 H   0  0  0  0  0  0  0  0  0  0  0  0
    9.8462   -0.7135    0.0000 H   0  0  0  0  0  0  0  0  0  0  0  0
    7.0392   -1.6309    0.0000 H   0  0  0  0  0  0  0  0  0  0  0  0
    7.6324   -2.1632    0.0000 H   0  0  0  0  0  0  0  0  0  0  0  0
    8.3133    1.1891    0.0000 H   0  0  0  0  0  0  0  0  0  0  0  0
    7.7201    1.7214    0.0000 H   0  0  0  0  0  0  0  0  0  0  0  0
    8.3283   -2.7877    0.0000 H   0  0  0  0  0  0  0  0  0  0  0  0
    8.9216   -3.3200    0.0000 H   0  0  0  0  0  0  0  0  0  0  0  0
    7.4548    2.6485    0.0000 H   0  0  0  0  0  0  0  0  0  0  0  0
    7.4548    3.4780    0.0000 H   0  0  0  0  0  0  0  0  0  0  0  0
    6.9477    4.1772    0.0000 H   0  0  0  0  0  0  0  0  0  0  0  0
    6.1593    4.4349    0.0000 H   0  0  0  0  0  0  0  0  0  0  0  0
    4.5981    1.4433    0.0000 H   0  0  0  0  0  0  0  0  0  0  0  0
    4.5981    4.6833    0.0000 H   0  0  0  0  0  0  0  0  0  0  0  0
    3.1951    2.2533    0.0000 H   0  0  0  0  0  0  0  0  0  0  0  0
    9.8172   -4.3185    0.0000 H   0  0  0  0  0  0  0  0  0  0  0  0
   10.3959   -1.5729    0.0000 H   0  0  0  0  0  0  0  0  0  0  0  0
   11.4024   -4.6526    0.0000 H   0  0  0  0  0  0  0  0  0  0  0  0
   11.9811   -1.9070    0.0000 H   0  0  0  0  0  0  0  0  0  0  0  0
    1.6900    4.1002    0.0000 H   0  0  0  0  0  0  0  0  0  0  0  0
    1.4631    3.2533    0.0000 H   0  0  0  0  0  0  0  0  0  0  0  0
    2.3100    3.0263    0.0000 H   0  0  0  0  0  0  0  0  0  0  0  0
  1 27  1  0  0  0  0
  2 21  1  0  0  0  0
  2 28  1  0  0  0  0
  3 14  2  0  0  0  0
  4  7  1  0  0  0  0
  4  8  1  0  0  0  0
  4 11  1  0  0  0  0
  5  9  1  0  0  0  0
  5 10  1  0  0  0  0
  5 12  1  0  0  0  0
  6 13  1  0  0  0  0
  6 14  1  0  0  0  0
  6 16  1  0  0  0  0
  7  9  1  0  0  0  0
  7 29  1  0  0  0  0
  7 30  1  0  0  0  0
  8 10  1  0  0  0  0
  8 31  1  0  0  0  0
  8 32  1  0  0  0  0
  9 33  1  0  0  0  0
  9 34  1  0  0  0  0
 10 35  1  0  0  0  0
 10 36  1  0  0  0  0
 11 14  1  0  0  0  0
 11 37  1  0  0  0  0
 11 38  1  0  0  0  0
 12 18  1  0  0  0  0
 12 39  1  0  0  0  0
 12 40  1  0  0  0  0
 13 15  1  0  0  0  0
 13 41  1  0  0  0  0
 13 42  1  0  0  0  0
 15 17  1  0  0  0  0
 15 43  1  0  0  0  0
 15 44  1  0  0  0  0
 16 17  2  0  0  0  0
 16 19  1  0  0  0  0
 17 20  1  0  0  0  0
 18 23  2  0  0  0  0
 18 24  1  0  0  0  0
 19 22  2  0  0  0  0
 19 45  1  0  0  0  0
 20 21  2  0  0  0  0
 20 46  1  0  0  0  0
 21 22  1  0  0  0  0
 22 47  1  0  0  0  0
 23 25  1  0  0  0  0
 23 48  1  0  0  0  0
 24 26  2  0  0  0  0
 24 49  1  0  0  0  0
 25 27  2  0  0  0  0
 25 50  1  0  0  0  0
 26 27  1  0  0  0  0
 26 51  1  0  0  0  0
 28 52  1  0  0  0  0
 28 53  1  0  0  0  0
 28 54  1  0  0  0  0
M  END
> <PUBCHEM_COMPOUND_CID>
44336194

> <PUBCHEM_COMPOUND_CANONICALIZED>
1

> <PUBCHEM_CACTVS_COMPLEXITY>
520

> <PUBCHEM_CACTVS_HBOND_ACCEPTOR>
4

> <PUBCHEM_CACTVS_HBOND_DONOR>
0

> <PUBCHEM_CACTVS_ROTATABLE_BOND>
5

> <PUBCHEM_CACTVS_SUBSKEYS>
AAADceB7IABEAAAAAAAAAAAAAAAAAWAAAAA8YIAAAAAAAFgBQAAAHgYAAAAADArB2CSywYMAAAiIAiVSUACCAAAhDxAIiBiIZogIYCLhk7GUIAhghgDIyAcQgIAOBAQAgAACAAAICAEAAAQAAAAAAAAAAA==

> <PUBCHEM_IUPAC_OPENEYE_NAME>
2-[4-[(4-chlorophenyl)methyl]piperazin-1-yl]-1-(5-methylsulfanylindolin-1-yl)ethanone

> <PUBCHEM_IUPAC_CAS_NAME>
2-[4-[(4-chlorophenyl)methyl]-1-piperazinyl]-1-[5-(methylthio)-2,3-dihydroindol-1-yl]ethanone

> <PUBCHEM_IUPAC_NAME_MARKUP>
2-[4-[(4-chlorophenyl)methyl]piperazin-1-yl]-1-(5-methylsulfanyl-2,3-dihydroindol-1-yl)ethanone

> <PUBCHEM_IUPAC_NAME>
2-[4-[(4-chlorophenyl)methyl]piperazin-1-yl]-1-(5-methylsulfanyl-2,3-dihydroindol-1-yl)ethanone

> <PUBCHEM_IUPAC_SYSTEMATIC_NAME>
2-[4-[(4-chlorophenyl)methyl]piperazin-1-yl]-1-(5-methylsulfanyl-2,3-dihydroindol-1-yl)ethanone

> <PUBCHEM_IUPAC_TRADITIONAL_NAME>
2-[4-(4-chlorobenzyl)piperazino]-1-[5-(methylthio)indolin-1-yl]ethanone

> <PUBCHEM_IUPAC_INCHI>
InChI=1S/C22H26ClN3OS/c1-28-20-6-7-21-18(14-20)8-9-26(21)22(27)16-25-12-10-24(11-13-25)15-17-2-4-19(23)5-3-17/h2-7,14H,8-13,15-16H2,1H3

> <PUBCHEM_IUPAC_INCHIKEY>
IKNJXDNJONONKL-UHFFFAOYSA-N

> <PUBCHEM_XLOGP3_AA>
3.8

> <PUBCHEM_EXACT_MASS>
415.1485113

> <PUBCHEM_MOLECULAR_FORMULA>
C22H26ClN3OS

> <PUBCHEM_MOLECULAR_WEIGHT>
416.0

> <PUBCHEM_OPENEYE_CAN_SMILES>
CSC1=CC2=C(C=C1)N(CC2)C(=O)CN3CCN(CC3)CC4=CC=C(C=C4)Cl

> <PUBCHEM_OPENEYE_ISO_SMILES>
CSC1=CC2=C(C=C1)N(CC2)C(=O)CN3CCN(CC3)CC4=CC=C(C=C4)Cl

> <PUBCHEM_CACTVS_TPSA>
52.1

> <PUBCHEM_MONOISOTOPIC_WEIGHT>
415.1485113

> <PUBCHEM_TOTAL_CHARGE>
0

> <PUBCHEM_HEAVY_ATOM_COUNT>
28

> <PUBCHEM_ATOM_DEF_STEREO_COUNT>
0

> <PUBCHEM_ATOM_UDEF_STEREO_COUNT>
0

> <PUBCHEM_BOND_DEF_STEREO_COUNT>
0

> <PUBCHEM_BOND_UDEF_STEREO_COUNT>
0

> <PUBCHEM_ISOTOPIC_ATOM_COUNT>
0

> <PUBCHEM_COMPONENT_COUNT>
1

> <PUBCHEM_CACTVS_TAUTO_COUNT>
-1

> <PUBCHEM_COORDINATE_TYPE>
1
5
255

> <PUBCHEM_BONDANNOTATIONS>
16  17  8
16  19  8
17  20  8
18  23  8
18  24  8
19  22  8
20  21  8
21  22  8
23  25  8
24  26  8
25  27  8
26  27  8

$$$$
