162672054
  -OEChem-09292322012D

184193  0     1  0  0  0  0  0999 V2000
   11.2619   13.9847    0.0000 O   0  0  0  0  0  0  0  0  0  0  0  0
   30.7068  -13.9847    0.0000 O   0  0  0  0  0  0  0  0  0  0  0  0
   14.2619    7.0565    0.0000 O   0  0  0  0  0  0  0  0  0  0  0  0
   27.7068   -7.0565    0.0000 O   0  0  0  0  0  0  0  0  0  0  0  0
   18.8959    3.2998    0.0000 O   0  0  0  0  0  0  0  0  0  0  0  0
   23.0728   -3.2998    0.0000 O   0  0  0  0  0  0  0  0  0  0  0  0
   20.0185    0.9040    0.0000 O   0  0  0  0  0  0  0  0  0  0  0  0
   21.9502   -0.9040    0.0000 O   0  0  0  0  0  0  0  0  0  0  0  0
    6.2619   15.7167    0.0000 N   0  0  3  0  0  0  0  0  0  0  0  0
   35.7068  -15.7167    0.0000 N   0  0  3  0  0  0  0  0  0  0  0  0
    9.7619   13.1187    0.0000 N   0  0  0  0  0  0  0  0  0  0  0  0
   32.2068  -13.1187    0.0000 N   0  0  0  0  0  0  0  0  0  0  0  0
   16.9643    5.1078    0.0000 N   0  0  0  0  0  0  0  0  0  0  0  0
   25.0044   -5.1078    0.0000 N   0  0  0  0  0  0  0  0  0  0  0  0
   15.3551    5.2769    0.0000 N   0  0  0  0  0  0  0  0  0  0  0  0
   26.6135   -5.2769    0.0000 N   0  0  0  0  0  0  0  0  0  0  0  0
   16.0983    4.6078    0.0000 N   0  0  0  0  0  0  0  0  0  0  0  0
   25.8704   -4.6078    0.0000 N   0  0  0  0  0  0  0  0  0  0  0  0
    5.2619   15.7167    0.0000 C   0  0  0  0  0  0  0  0  0  0  0  0
   36.7068  -15.7167    0.0000 C   0  0  0  0  0  0  0  0  0  0  0  0
    4.6783   16.5215    0.0000 C   0  0  0  0  0  0  0  0  0  0  0  0
    4.6783   14.9120    0.0000 C   0  0  0  0  0  0  0  0  0  0  0  0
   37.2904  -16.5215    0.0000 C   0  0  0  0  0  0  0  0  0  0  0  0
   37.2904  -14.9120    0.0000 C   0  0  0  0  0  0  0  0  0  0  0  0
    3.7320   16.2167    0.0000 C   0  0  0  0  0  0  0  0  0  0  0  0
    3.7320   15.2167    0.0000 C   0  0  0  0  0  0  0  0  0  0  0  0
   38.2366  -16.2167    0.0000 C   0  0  0  0  0  0  0  0  0  0  0  0
   38.2366  -15.2167    0.0000 C   0  0  0  0  0  0  0  0  0  0  0  0
    6.7619   14.8507    0.0000 C   0  0  0  0  0  0  0  0  0  0  0  0
   35.2068  -14.8507    0.0000 C   0  0  0  0  0  0  0  0  0  0  0  0
    6.7619   16.5828    0.0000 C   0  0  0  0  0  0  0  0  0  0  0  0
   35.2068  -16.5828    0.0000 C   0  0  0  0  0  0  0  0  0  0  0  0
    7.7619   14.8507    0.0000 C   0  0  0  0  0  0  0  0  0  0  0  0
   34.2068  -14.8507    0.0000 C   0  0  0  0  0  0  0  0  0  0  0  0
    2.8660   16.7167    0.0000 C   0  0  0  0  0  0  0  0  0  0  0  0
    2.8660   14.7167    0.0000 C   0  0  0  0  0  0  0  0  0  0  0  0
   39.1027  -16.7167    0.0000 C   0  0  0  0  0  0  0  0  0  0  0  0
   39.1027  -14.7167    0.0000 C   0  0  0  0  0  0  0  0  0  0  0  0
    7.7619   16.5828    0.0000 C   0  0  0  0  0  0  0  0  0  0  0  0
   34.2068  -16.5828    0.0000 C   0  0  0  0  0  0  0  0  0  0  0  0
    8.2619   13.9847    0.0000 C   0  0  0  0  0  0  0  0  0  0  0  0
   33.7068  -13.9847    0.0000 C   0  0  0  0  0  0  0  0  0  0  0  0
    2.0000   16.2167    0.0000 C   0  0  0  0  0  0  0  0  0  0  0  0
    2.0000   15.2167    0.0000 C   0  0  0  0  0  0  0  0  0  0  0  0
   39.9687  -16.2167    0.0000 C   0  0  0  0  0  0  0  0  0  0  0  0
   39.9687  -15.2167    0.0000 C   0  0  0  0  0  0  0  0  0  0  0  0
    8.2619   17.4488    0.0000 C   0  0  0  0  0  0  0  0  0  0  0  0
   33.7068  -17.4488    0.0000 C   0  0  0  0  0  0  0  0  0  0  0  0
    9.2619   13.9847    0.0000 C   0  0  0  0  0  0  0  0  0  0  0  0
   32.7068  -13.9847    0.0000 C   0  0  0  0  0  0  0  0  0  0  0  0
   10.7619   13.1187    0.0000 C   0  0  0  0  0  0  0  0  0  0  0  0
   31.2068  -13.1187    0.0000 C   0  0  0  0  0  0  0  0  0  0  0  0
   11.2619   12.2526    0.0000 C   0  0  0  0  0  0  0  0  0  0  0  0
   30.7068  -12.2526    0.0000 C   0  0  0  0  0  0  0  0  0  0  0  0
   12.2619   12.2526    0.0000 C   0  0  0  0  0  0  0  0  0  0  0  0
   31.2068  -11.3866    0.0000 C   0  0  0  0  0  0  0  0  0  0  0  0
   10.7619   11.3866    0.0000 C   0  0  0  0  0  0  0  0  0  0  0  0
   29.7068  -12.2526    0.0000 C   0  0  0  0  0  0  0  0  0  0  0  0
   12.7619   11.3866    0.0000 C   0  0  0  0  0  0  0  0  0  0  0  0
   30.7068  -10.5206    0.0000 C   0  0  0  0  0  0  0  0  0  0  0  0
   11.2619   10.5206    0.0000 C   0  0  0  0  0  0  0  0  0  0  0  0
   29.2068  -11.3866    0.0000 C   0  0  0  0  0  0  0  0  0  0  0  0
   12.2619   10.5206    0.0000 C   0  0  0  0  0  0  0  0  0  0  0  0
   29.7068  -10.5206    0.0000 C   0  0  0  0  0  0  0  0  0  0  0  0
   12.7619    9.6546    0.0000 C   0  0  0  0  0  0  0  0  0  0  0  0
   29.2068   -9.6546    0.0000 C   0  0  0  0  0  0  0  0  0  0  0  0
   12.2619    8.7885    0.0000 C   0  0  0  0  0  0  0  0  0  0  0  0
   28.2068   -9.6546    0.0000 C   0  0  0  0  0  0  0  0  0  0  0  0
   13.7619    9.6546    0.0000 C   0  0  0  0  0  0  0  0  0  0  0  0
   29.7068   -8.7885    0.0000 C   0  0  0  0  0  0  0  0  0  0  0  0
   12.7619    7.9225    0.0000 C   0  0  0  0  0  0  0  0  0  0  0  0
   27.7068   -8.7885    0.0000 C   0  0  0  0  0  0  0  0  0  0  0  0
   14.2619    8.7885    0.0000 C   0  0  0  0  0  0  0  0  0  0  0  0
   29.2068   -7.9225    0.0000 C   0  0  0  0  0  0  0  0  0  0  0  0
   13.7619    7.9225    0.0000 C   0  0  0  0  0  0  0  0  0  0  0  0
   28.2068   -7.9225    0.0000 C   0  0  0  0  0  0  0  0  0  0  0  0
   15.2619    7.0565    0.0000 C   0  0  0  0  0  0  0  0  0  0  0  0
   26.7068   -7.0565    0.0000 C   0  0  0  0  0  0  0  0  0  0  0  0
   15.7619    6.1904    0.0000 C   0  0  0  0  0  0  0  0  0  0  0  0
   26.2068   -6.1904    0.0000 C   0  0  0  0  0  0  0  0  0  0  0  0
   16.7564    6.0859    0.0000 C   0  0  0  0  0  0  0  0  0  0  0  0
   25.2123   -6.0859    0.0000 C   0  0  0  0  0  0  0  0  0  0  0  0
   17.8779    4.7010    0.0000 C   0  0  0  0  0  0  0  0  0  0  0  0
   24.0908   -4.7010    0.0000 C   0  0  0  0  0  0  0  0  0  0  0  0
   17.9824    3.7065    0.0000 C   0  0  0  0  0  0  0  0  0  0  0  0
   23.9863   -3.7065    0.0000 C   0  0  0  0  0  0  0  0  0  0  0  0
   19.0005    2.3053    0.0000 C   0  0  0  0  0  0  0  0  0  0  0  0
   22.9682   -2.3053    0.0000 C   0  0  0  0  0  0  0  0  0  0  0  0
   19.9140    1.8985    0.0000 C   0  0  0  0  0  0  0  0  0  0  0  0
   22.0547   -1.8985    0.0000 C   0  0  0  0  0  0  0  0  0  0  0  0
   20.9321    0.4973    0.0000 C   0  0  0  0  0  0  0  0  0  0  0  0
   21.0366   -0.4973    0.0000 C   0  0  0  0  0  0  0  0  0  0  0  0
    5.5436   15.1644    0.0000 H   0  0  0  0  0  0  0  0  0  0  0  0
   36.4251  -15.1644    0.0000 H   0  0  0  0  0  0  0  0  0  0  0  0
    5.2156   16.8307    0.0000 H   0  0  0  0  0  0  0  0  0  0  0  0
    4.4272   17.0884    0.0000 H   0  0  0  0  0  0  0  0  0  0  0  0
    4.4272   14.3451    0.0000 H   0  0  0  0  0  0  0  0  0  0  0  0
    5.2156   14.6028    0.0000 H   0  0  0  0  0  0  0  0  0  0  0  0
   36.7530  -16.8307    0.0000 H   0  0  0  0  0  0  0  0  0  0  0  0
   37.5415  -17.0884    0.0000 H   0  0  0  0  0  0  0  0  0  0  0  0
   37.5415  -14.3451    0.0000 H   0  0  0  0  0  0  0  0  0  0  0  0
   36.7530  -14.6028    0.0000 H   0  0  0  0  0  0  0  0  0  0  0  0
    6.1793   14.6387    0.0000 H   0  0  0  0  0  0  0  0  0  0  0  0
    6.8695   14.2401    0.0000 H   0  0  0  0  0  0  0  0  0  0  0  0
   35.7894  -14.6387    0.0000 H   0  0  0  0  0  0  0  0  0  0  0  0
   35.0991  -14.2401    0.0000 H   0  0  0  0  0  0  0  0  0  0  0  0
    6.8695   17.1933    0.0000 H   0  0  0  0  0  0  0  0  0  0  0  0
    6.1793   16.7948    0.0000 H   0  0  0  0  0  0  0  0  0  0  0  0
   35.0991  -17.1933    0.0000 H   0  0  0  0  0  0  0  0  0  0  0  0
   35.7894  -16.7948    0.0000 H   0  0  0  0  0  0  0  0  0  0  0  0
    8.3445   15.0628    0.0000 H   0  0  0  0  0  0  0  0  0  0  0  0
    7.6542   15.4613    0.0000 H   0  0  0  0  0  0  0  0  0  0  0  0
   33.6242  -15.0628    0.0000 H   0  0  0  0  0  0  0  0  0  0  0  0
   34.3145  -15.4613    0.0000 H   0  0  0  0  0  0  0  0  0  0  0  0
    2.8660   17.3367    0.0000 H   0  0  0  0  0  0  0  0  0  0  0  0
    2.8660   14.0967    0.0000 H   0  0  0  0  0  0  0  0  0  0  0  0
   39.1027  -17.3367    0.0000 H   0  0  0  0  0  0  0  0  0  0  0  0
   39.1027  -14.0967    0.0000 H   0  0  0  0  0  0  0  0  0  0  0  0
    7.6542   15.9722    0.0000 H   0  0  0  0  0  0  0  0  0  0  0  0
    8.3445   16.3707    0.0000 H   0  0  0  0  0  0  0  0  0  0  0  0
   34.3145  -15.9722    0.0000 H   0  0  0  0  0  0  0  0  0  0  0  0
   33.6242  -16.3707    0.0000 H   0  0  0  0  0  0  0  0  0  0  0  0
    7.6793   13.7726    0.0000 H   0  0  0  0  0  0  0  0  0  0  0  0
    8.3695   13.3741    0.0000 H   0  0  0  0  0  0  0  0  0  0  0  0
   34.2894  -13.7726    0.0000 H   0  0  0  0  0  0  0  0  0  0  0  0
   33.5991  -13.3741    0.0000 H   0  0  0  0  0  0  0  0  0  0  0  0
    1.4631   16.5267    0.0000 H   0  0  0  0  0  0  0  0  0  0  0  0
    1.4631   14.9067    0.0000 H   0  0  0  0  0  0  0  0  0  0  0  0
   40.5056  -16.5267    0.0000 H   0  0  0  0  0  0  0  0  0  0  0  0
   40.5056  -14.9067    0.0000 H   0  0  0  0  0  0  0  0  0  0  0  0
    8.7988   17.1388    0.0000 H   0  0  0  0  0  0  0  0  0  0  0  0
    8.5719   17.9857    0.0000 H   0  0  0  0  0  0  0  0  0  0  0  0
    7.7249   17.7588    0.0000 H   0  0  0  0  0  0  0  0  0  0  0  0
   33.1699  -17.1388    0.0000 H   0  0  0  0  0  0  0  0  0  0  0  0
   33.3968  -17.9857    0.0000 H   0  0  0  0  0  0  0  0  0  0  0  0
   34.2437  -17.7588    0.0000 H   0  0  0  0  0  0  0  0  0  0  0  0
    9.8445   14.1967    0.0000 H   0  0  0  0  0  0  0  0  0  0  0  0
    9.1542   14.5953    0.0000 H   0  0  0  0  0  0  0  0  0  0  0  0
   32.1242  -14.1967    0.0000 H   0  0  0  0  0  0  0  0  0  0  0  0
   32.8145  -14.5953    0.0000 H   0  0  0  0  0  0  0  0  0  0  0  0
    9.4519   12.5817    0.0000 H   0  0  0  0  0  0  0  0  0  0  0  0
   32.5168  -12.5817    0.0000 H   0  0  0  0  0  0  0  0  0  0  0  0
   12.5719   12.7896    0.0000 H   0  0  0  0  0  0  0  0  0  0  0  0
   31.8268  -11.3866    0.0000 H   0  0  0  0  0  0  0  0  0  0  0  0
   10.1419   11.3866    0.0000 H   0  0  0  0  0  0  0  0  0  0  0  0
   29.3968  -12.7896    0.0000 H   0  0  0  0  0  0  0  0  0  0  0  0
   13.3819   11.3866    0.0000 H   0  0  0  0  0  0  0  0  0  0  0  0
   31.0168   -9.9836    0.0000 H   0  0  0  0  0  0  0  0  0  0  0  0
   10.9519    9.9836    0.0000 H   0  0  0  0  0  0  0  0  0  0  0  0
   28.5868  -11.3866    0.0000 H   0  0  0  0  0  0  0  0  0  0  0  0
   11.6419    8.7885    0.0000 H   0  0  0  0  0  0  0  0  0  0  0  0
   27.8968  -10.1915    0.0000 H   0  0  0  0  0  0  0  0  0  0  0  0
   14.0719   10.1915    0.0000 H   0  0  0  0  0  0  0  0  0  0  0  0
   30.3268   -8.7885    0.0000 H   0  0  0  0  0  0  0  0  0  0  0  0
   12.4519    7.3856    0.0000 H   0  0  0  0  0  0  0  0  0  0  0  0
   27.0868   -8.7885    0.0000 H   0  0  0  0  0  0  0  0  0  0  0  0
   14.8819    8.7885    0.0000 H   0  0  0  0  0  0  0  0  0  0  0  0
   29.5168   -7.3856    0.0000 H   0  0  0  0  0  0  0  0  0  0  0  0
   15.8445    7.2685    0.0000 H   0  0  0  0  0  0  0  0  0  0  0  0
   15.1542    7.6671    0.0000 H   0  0  0  0  0  0  0  0  0  0  0  0
   26.1242   -7.2685    0.0000 H   0  0  0  0  0  0  0  0  0  0  0  0
   26.8145   -7.6671    0.0000 H   0  0  0  0  0  0  0  0  0  0  0  0
   17.1713    6.5467    0.0000 H   0  0  0  0  0  0  0  0  0  0  0  0
   24.7974   -6.5467    0.0000 H   0  0  0  0  0  0  0  0  0  0  0  0
   18.4963    4.6578    0.0000 H   0  0  0  0  0  0  0  0  0  0  0  0
   18.0279    5.3026    0.0000 H   0  0  0  0  0  0  0  0  0  0  0  0
   23.4723   -4.6578    0.0000 H   0  0  0  0  0  0  0  0  0  0  0  0
   23.9408   -5.3026    0.0000 H   0  0  0  0  0  0  0  0  0  0  0  0
   17.3639    3.7498    0.0000 H   0  0  0  0  0  0  0  0  0  0  0  0
   17.8324    3.1049    0.0000 H   0  0  0  0  0  0  0  0  0  0  0  0
   24.6048   -3.7498    0.0000 H   0  0  0  0  0  0  0  0  0  0  0  0
   24.1363   -3.1049    0.0000 H   0  0  0  0  0  0  0  0  0  0  0  0
   18.3820    2.3485    0.0000 H   0  0  0  0  0  0  0  0  0  0  0  0
   18.8505    1.7037    0.0000 H   0  0  0  0  0  0  0  0  0  0  0  0
   23.5867   -2.3485    0.0000 H   0  0  0  0  0  0  0  0  0  0  0  0
   23.1182   -1.7037    0.0000 H   0  0  0  0  0  0  0  0  0  0  0  0
   20.5325    1.8553    0.0000 H   0  0  0  0  0  0  0  0  0  0  0  0
   20.0640    2.5001    0.0000 H   0  0  0  0  0  0  0  0  0  0  0  0
   21.4362   -1.8553    0.0000 H   0  0  0  0  0  0  0  0  0  0  0  0
   21.9047   -2.5001    0.0000 H   0  0  0  0  0  0  0  0  0  0  0  0
   21.5506    0.4540    0.0000 H   0  0  0  0  0  0  0  0  0  0  0  0
   21.0821    1.0988    0.0000 H   0  0  0  0  0  0  0  0  0  0  0  0
   20.4181   -0.4540    0.0000 H   0  0  0  0  0  0  0  0  0  0  0  0
   20.8866   -1.0988    0.0000 H   0  0  0  0  0  0  0  0  0  0  0  0
  1 51  2  0  0  0  0
  2 52  2  0  0  0  0
  3 75  1  0  0  0  0
  3 77  1  0  0  0  0
  4 76  1  0  0  0  0
  4 78  1  0  0  0  0
  5 85  1  0  0  0  0
  5 87  1  0  0  0  0
  6 86  1  0  0  0  0
  6 88  1  0  0  0  0
  7 89  1  0  0  0  0
  7 91  1  0  0  0  0
  8 90  1  0  0  0  0
  8 92  1  0  0  0  0
  9 19  1  0  0  0  0
  9 29  1  0  0  0  0
  9 31  1  0  0  0  0
 10 20  1  0  0  0  0
 10 30  1  0  0  0  0
 10 32  1  0  0  0  0
 11 49  1  0  0  0  0
 11 51  1  0  0  0  0
 11141  1  0  0  0  0
 12 50  1  0  0  0  0
 12 52  1  0  0  0  0
 12142  1  0  0  0  0
 13 17  1  0  0  0  0
 13 81  1  0  0  0  0
 13 83  1  0  0  0  0
 14 18  1  0  0  0  0
 14 82  1  0  0  0  0
 14 84  1  0  0  0  0
 15 17  2  0  0  0  0
 15 79  1  0  0  0  0
 16 18  2  0  0  0  0
 16 80  1  0  0  0  0
 19 21  1  0  0  0  0
 19 22  1  0  0  0  0
 19 93  1  0  0  0  0
 20 23  1  0  0  0  0
 20 24  1  0  0  0  0
 20 94  1  0  0  0  0
 21 25  1  0  0  0  0
 21 95  1  0  0  0  0
 21 96  1  0  0  0  0
 22 26  1  0  0  0  0
 22 97  1  0  0  0  0
 22 98  1  0  0  0  0
 23 27  1  0  0  0  0
 23 99  1  0  0  0  0
 23100  1  0  0  0  0
 24 28  1  0  0  0  0
 24101  1  0  0  0  0
 24102  1  0  0  0  0
 25 26  1  0  0  0  0
 25 35  2  0  0  0  0
 26 36  2  0  0  0  0
 27 28  1  0  0  0  0
 27 37  2  0  0  0  0
 28 38  2  0  0  0  0
 29 33  1  0  0  0  0
 29103  1  0  0  0  0
 29104  1  0  0  0  0
 30 34  1  0  0  0  0
 30105  1  0  0  0  0
 30106  1  0  0  0  0
 31 39  1  0  0  0  0
 31107  1  0  0  0  0
 31108  1  0  0  0  0
 32 40  1  0  0  0  0
 32109  1  0  0  0  0
 32110  1  0  0  0  0
 33 41  1  0  0  0  0
 33111  1  0  0  0  0
 33112  1  0  0  0  0
 34 42  1  0  0  0  0
 34113  1  0  0  0  0
 34114  1  0  0  0  0
 35 43  1  0  0  0  0
 35115  1  0  0  0  0
 36 44  1  0  0  0  0
 36116  1  0  0  0  0
 37 45  1  0  0  0  0
 37117  1  0  0  0  0
 38 46  1  0  0  0  0
 38118  1  0  0  0  0
 39 47  1  0  0  0  0
 39119  1  0  0  0  0
 39120  1  0  0  0  0
 40 48  1  0  0  0  0
 40121  1  0  0  0  0
 40122  1  0  0  0  0
 41 49  1  0  0  0  0
 41123  1  0  0  0  0
 41124  1  0  0  0  0
 42 50  1  0  0  0  0
 42125  1  0  0  0  0
 42126  1  0  0  0  0
 43 44  2  0  0  0  0
 43127  1  0  0  0  0
 44128  1  0  0  0  0
 45 46  2  0  0  0  0
 45129  1  0  0  0  0
 46130  1  0  0  0  0
 47131  1  0  0  0  0
 47132  1  0  0  0  0
 47133  1  0  0  0  0
 48134  1  0  0  0  0
 48135  1  0  0  0  0
 48136  1  0  0  0  0
 49137  1  0  0  0  0
 49138  1  0  0  0  0
 50139  1  0  0  0  0
 50140  1  0  0  0  0
 51 53  1  0  0  0  0
 52 54  1  0  0  0  0
 53 55  2  0  0  0  0
 53 57  1  0  0  0  0
 54 56  2  0  0  0  0
 54 58  1  0  0  0  0
 55 59  1  0  0  0  0
 55143  1  0  0  0  0
 56 60  1  0  0  0  0
 56144  1  0  0  0  0
 57 61  2  0  0  0  0
 57145  1  0  0  0  0
 58 62  2  0  0  0  0
 58146  1  0  0  0  0
 59 63  2  0  0  0  0
 59147  1  0  0  0  0
 60 64  2  0  0  0  0
 60148  1  0  0  0  0
 61 63  1  0  0  0  0
 61149  1  0  0  0  0
 62 64  1  0  0  0  0
 62150  1  0  0  0  0
 63 65  1  0  0  0  0
 64 66  1  0  0  0  0
 65 67  2  0  0  0  0
 65 69  1  0  0  0  0
 66 68  2  0  0  0  0
 66 70  1  0  0  0  0
 67 71  1  0  0  0  0
 67151  1  0  0  0  0
 68 72  1  0  0  0  0
 68152  1  0  0  0  0
 69 73  2  0  0  0  0
 69153  1  0  0  0  0
 70 74  2  0  0  0  0
 70154  1  0  0  0  0
 71 75  2  0  0  0  0
 71155  1  0  0  0  0
 72 76  2  0  0  0  0
 72156  1  0  0  0  0
 73 75  1  0  0  0  0
 73157  1  0  0  0  0
 74 76  1  0  0  0  0
 74158  1  0  0  0  0
 77 79  1  0  0  0  0
 77159  1  0  0  0  0
 77160  1  0  0  0  0
 78 80  1  0  0  0  0
 78161  1  0  0  0  0
 78162  1  0  0  0  0
 79 81  2  0  0  0  0
 80 82  2  0  0  0  0
 81163  1  0  0  0  0
 82164  1  0  0  0  0
 83 85  1  0  0  0  0
 83165  1  0  0  0  0
 83166  1  0  0  0  0
 84 86  1  0  0  0  0
 84167  1  0  0  0  0
 84168  1  0  0  0  0
 85169  1  0  0  0  0
 85170  1  0  0  0  0
 86171  1  0  0  0  0
 86172  1  0  0  0  0
 87 89  1  0  0  0  0
 87173  1  0  0  0  0
 87174  1  0  0  0  0
 88 90  1  0  0  0  0
 88175  1  0  0  0  0
 88176  1  0  0  0  0
 89177  1  0  0  0  0
 89178  1  0  0  0  0
 90179  1  0  0  0  0
 90180  1  0  0  0  0
 91 92  1  0  0  0  0
 91181  1  0  0  0  0
 91182  1  0  0  0  0
 92183  1  0  0  0  0
 92184  1  0  0  0  0
M  END
> <PUBCHEM_COMPOUND_CID>
162672054

> <PUBCHEM_COMPOUND_CANONICALIZED>
1

> <PUBCHEM_CACTVS_COMPLEXITY>
1840

> <PUBCHEM_CACTVS_HBOND_ACCEPTOR>
14

> <PUBCHEM_CACTVS_HBOND_DONOR>
2

> <PUBCHEM_CACTVS_ROTATABLE_BOND>
41

> <PUBCHEM_CACTVS_SUBSKEYS>
AAADcfB//AAAAAAAAAAAAAAAAAAAAePECAAwYMGDAAAAAGAB9AAAHgAYAAAADCzhngY+hpPIBACqAzV3VASCDAQ1sgAY2IE+fMgPZjLEtRuXOSjm1hHaqYeYyPCO4AAAAAAQAADAAAAAACAAACAACAAAAA==

> <PUBCHEM_IUPAC_OPENEYE_NAME>
N-[4-[indan-2-yl(propyl)amino]butyl]-4-[4-[[1-[2-[2-[2-[2-[2-[4-[[4-[4-[4-[indan-2-yl(propyl)amino]butylcarbamoyl]phenyl]phenoxy]methyl]triazol-1-yl]ethoxy]ethoxy]ethoxy]ethoxy]ethyl]triazol-4-yl]methoxy]phenyl]benzamide

> <PUBCHEM_IUPAC_CAS_NAME>
N-[4-[2,3-dihydro-1H-inden-2-yl(propyl)amino]butyl]-4-[4-[[1-[2-[2-[2-[2-[2-[4-[[4-[4-[[4-[2,3-dihydro-1H-inden-2-yl(propyl)amino]butylamino]-oxomethyl]phenyl]phenoxy]methyl]-1-triazolyl]ethoxy]ethoxy]ethoxy]ethoxy]ethyl]-4-triazolyl]methoxy]phenyl]benzamide

> <PUBCHEM_IUPAC_NAME_MARKUP>
<I>N</I>-[4-[2,3-dihydro-1<I>H</I>-inden-2-yl(propyl)amino]butyl]-4-[4-[[1-[2-[2-[2-[2-[2-[4-[[4-[4-[4-[2,3-dihydro-1<I>H</I>-inden-2-yl(propyl)amino]butylcarbamoyl]phenyl]phenoxy]methyl]triazol-1-yl]ethoxy]ethoxy]ethoxy]ethoxy]ethyl]triazol-4-yl]methoxy]phenyl]benzamide

> <PUBCHEM_IUPAC_NAME>
N-[4-[2,3-dihydro-1H-inden-2-yl(propyl)amino]butyl]-4-[4-[[1-[2-[2-[2-[2-[2-[4-[[4-[4-[4-[2,3-dihydro-1H-inden-2-yl(propyl)amino]butylcarbamoyl]phenyl]phenoxy]methyl]triazol-1-yl]ethoxy]ethoxy]ethoxy]ethoxy]ethyl]triazol-4-yl]methoxy]phenyl]benzamide

> <PUBCHEM_IUPAC_SYSTEMATIC_NAME>
N-[4-[2,3-dihydro-1H-inden-2-yl(propyl)amino]butyl]-4-[4-[[1-[2-[2-[2-[2-[2-[4-[[4-[4-[4-[2,3-dihydro-1H-inden-2-yl(propyl)amino]butylcarbamoyl]phenyl]phenoxy]methyl]-1,2,3-triazol-1-yl]ethoxy]ethoxy]ethoxy]ethoxy]ethyl]-1,2,3-triazol-4-yl]methoxy]phenyl]benzamide

> <PUBCHEM_IUPAC_TRADITIONAL_NAME>
N-[4-[indan-2-yl(propyl)amino]butyl]-4-[4-[[1-[2-[2-[2-[2-[2-[4-[[4-[4-[4-[indan-2-yl(propyl)amino]butylcarbamoyl]phenyl]phenoxy]methyl]triazol-1-yl]ethoxy]ethoxy]ethoxy]ethoxy]ethyl]triazol-4-yl]methoxy]phenyl]benzamide

> <PUBCHEM_IUPAC_INCHI>
InChI=1S/C74H92N10O8/c1-3-35-81(69-49-63-13-5-6-14-64(63)50-69)37-11-9-33-75-73(85)61-21-17-57(18-22-61)59-25-29-71(30-26-59)91-55-67-53-83(79-77-67)39-41-87-43-45-89-47-48-90-46-44-88-42-40-84-54-68(78-80-84)56-92-72-31-27-60(28-32-72)58-19-23-62(24-20-58)74(86)76-34-10-12-38-82(36-4-2)70-51-65-15-7-8-16-66(65)52-70/h5-8,13-32,53-54,69-70H,3-4,9-12,33-52,55-56H2,1-2H3,(H,75,85)(H,76,86)

> <PUBCHEM_IUPAC_INCHIKEY>
MQJZTAUHHVXOSQ-UHFFFAOYSA-N

> <PUBCHEM_XLOGP3_AA>
10.6

> <PUBCHEM_EXACT_MASS>
1248.70995993

> <PUBCHEM_MOLECULAR_FORMULA>
C74H92N10O8

> <PUBCHEM_MOLECULAR_WEIGHT>
1249.6

> <PUBCHEM_OPENEYE_CAN_SMILES>
CCCN(CCCCNC(=O)C1=CC=C(C=C1)C2=CC=C(C=C2)OCC3=CN(N=N3)CCOCCOCCOCCOCCN4C=C(N=N4)COC5=CC=C(C=C5)C6=CC=C(C=C6)C(=O)NCCCCN(CCC)C7CC8=CC=CC=C8C7)C9CC1=CC=CC=C1C9

> <PUBCHEM_OPENEYE_ISO_SMILES>
CCCN(CCCCNC(=O)C1=CC=C(C=C1)C2=CC=C(C=C2)OCC3=CN(N=N3)CCOCCOCCOCCOCCN4C=C(N=N4)COC5=CC=C(C=C5)C6=CC=C(C=C6)C(=O)NCCCCN(CCC)C7CC8=CC=CC=C8C7)C9CC1=CC=CC=C1C9

> <PUBCHEM_CACTVS_TPSA>
182

> <PUBCHEM_MONOISOTOPIC_WEIGHT>
1248.70995993

> <PUBCHEM_TOTAL_CHARGE>
0

> <PUBCHEM_HEAVY_ATOM_COUNT>
92

> <PUBCHEM_ATOM_DEF_STEREO_COUNT>
0

> <PUBCHEM_ATOM_UDEF_STEREO_COUNT>
0

> <PUBCHEM_BOND_DEF_STEREO_COUNT>
0

> <PUBCHEM_BOND_UDEF_STEREO_COUNT>
0

> <PUBCHEM_ISOTOPIC_ATOM_COUNT>
0

> <PUBCHEM_COMPONENT_COUNT>
1

> <PUBCHEM_CACTVS_TAUTO_COUNT>
-1

> <PUBCHEM_COORDINATE_TYPE>
1
5
255

> <PUBCHEM_BONDANNOTATIONS>
13  17  8
13  81  8
14  18  8
14  82  8
15  17  8
15  79  8
16  18  8
16  80  8
25  26  8
25  35  8
26  36  8
27  28  8
27  37  8
28  38  8
35  43  8
36  44  8
37  45  8
38  46  8
43  44  8
45  46  8
53  55  8
53  57  8
54  56  8
54  58  8
55  59  8
56  60  8
57  61  8
58  62  8
59  63  8
60  64  8
61  63  8
62  64  8
65  67  8
65  69  8
66  68  8
66  70  8
67  71  8
68  72  8
69  73  8
70  74  8
71  75  8
72  76  8
73  75  8
74  76  8
79  81  8
80  82  8

$$$$
