44335876
  -OEChem-09292322162D

 59 62  0     1  0  0  0  0  0999 V2000
    4.3211    0.8327    0.0000 O   0  0  0  0  0  0  0  0  0  0  0  0
    6.2781    0.4203    0.0000 N   0  0  0  0  0  0  0  0  0  0  0  0
    6.8994   -1.4807    0.0000 N   0  0  0  0  0  0  0  0  0  0  0  0
    4.6783    2.5276    0.0000 N   0  0  0  0  0  0  0  0  0  0  0  0
    5.2619    3.3323    0.0000 C   0  0  3  0  0  0  0  0  0  0  0  0
    5.6103   -0.3240    0.0000 C   0  0  0  0  0  0  0  0  0  0  0  0
    7.2566    0.2141    0.0000 C   0  0  0  0  0  0  0  0  0  0  0  0
    5.9209   -1.2745    0.0000 C   0  0  0  0  0  0  0  0  0  0  0  0
    7.5673   -0.7364    0.0000 C   0  0  0  0  0  0  0  0  0  0  0  0
    5.9674    1.3708    0.0000 C   0  0  0  0  0  0  0  0  0  0  0  0
    4.6783    4.1370    0.0000 C   0  0  0  0  0  0  0  0  0  0  0  0
    3.7320    2.8323    0.0000 C   0  0  0  0  0  0  0  0  0  0  0  0
    3.7320    3.8323    0.0000 C   0  0  0  0  0  0  0  0  0  0  0  0
    4.9889    1.5770    0.0000 C   0  0  0  0  0  0  0  0  0  0  0  0
    7.2101   -2.4313    0.0000 C   0  0  0  0  0  0  0  0  0  0  0  0
    6.2619    3.3323    0.0000 C   0  0  0  0  0  0  0  0  0  0  0  0
    8.1886   -2.6375    0.0000 C   0  0  0  0  0  0  0  0  0  0  0  0
    2.8660    2.3323    0.0000 C   0  0  0  0  0  0  0  0  0  0  0  0
    2.8660    4.3323    0.0000 C   0  0  0  0  0  0  0  0  0  0  0  0
    8.4993   -3.5880    0.0000 C   0  0  0  0  0  0  0  0  0  0  0  0
    2.0000    2.8323    0.0000 C   0  0  0  0  0  0  0  0  0  0  0  0
    2.0000    3.8323    0.0000 C   0  0  0  0  0  0  0  0  0  0  0  0
    8.8564   -1.8932    0.0000 C   0  0  0  0  0  0  0  0  0  0  0  0
    9.8349   -2.0994    0.0000 C   0  0  0  0  0  0  0  0  0  0  0  0
    9.4778   -3.7942    0.0000 C   0  0  0  0  0  0  0  0  0  0  0  0
    7.8314   -4.3323    0.0000 C   0  0  0  0  0  0  0  0  0  0  0  0
   10.1456   -3.0499    0.0000 C   0  0  0  0  0  0  0  0  0  0  0  0
   10.5028   -1.3551    0.0000 C   0  0  0  0  0  0  0  0  0  0  0  0
    5.5436    2.7800    0.0000 H   0  0  0  0  0  0  0  0  0  0  0  0
    5.2277    0.1639    0.0000 H   0  0  0  0  0  0  0  0  0  0  0  0
    5.0633   -0.6160    0.0000 H   0  0  0  0  0  0  0  0  0  0  0  0
    7.8704    0.3014    0.0000 H   0  0  0  0  0  0  0  0  0  0  0  0
    7.2772    0.8337    0.0000 H   0  0  0  0  0  0  0  0  0  0  0  0
    5.3071   -1.3619    0.0000 H   0  0  0  0  0  0  0  0  0  0  0  0
    5.9004   -1.8942    0.0000 H   0  0  0  0  0  0  0  0  0  0  0  0
    7.9498   -1.2243    0.0000 H   0  0  0  0  0  0  0  0  0  0  0  0
    8.1142   -0.4444    0.0000 H   0  0  0  0  0  0  0  0  0  0  0  0
    6.5812    1.4582    0.0000 H   0  0  0  0  0  0  0  0  0  0  0  0
    5.9880    1.9905    0.0000 H   0  0  0  0  0  0  0  0  0  0  0  0
    5.2156    4.4462    0.0000 H   0  0  0  0  0  0  0  0  0  0  0  0
    4.4272    4.7039    0.0000 H   0  0  0  0  0  0  0  0  0  0  0  0
    6.5963   -2.5186    0.0000 H   0  0  0  0  0  0  0  0  0  0  0  0
    7.1895   -3.0509    0.0000 H   0  0  0  0  0  0  0  0  0  0  0  0
    6.2619    2.7123    0.0000 H   0  0  0  0  0  0  0  0  0  0  0  0
    6.8819    3.3323    0.0000 H   0  0  0  0  0  0  0  0  0  0  0  0
    6.2619    3.9523    0.0000 H   0  0  0  0  0  0  0  0  0  0  0  0
    2.8660    1.7123    0.0000 H   0  0  0  0  0  0  0  0  0  0  0  0
    2.8660    4.9523    0.0000 H   0  0  0  0  0  0  0  0  0  0  0  0
    1.4631    2.5223    0.0000 H   0  0  0  0  0  0  0  0  0  0  0  0
    1.4631    4.1423    0.0000 H   0  0  0  0  0  0  0  0  0  0  0  0
    8.6638   -1.3038    0.0000 H   0  0  0  0  0  0  0  0  0  0  0  0
    9.6704   -4.3835    0.0000 H   0  0  0  0  0  0  0  0  0  0  0  0
    7.3700   -3.9182    0.0000 H   0  0  0  0  0  0  0  0  0  0  0  0
    7.4174   -4.7938    0.0000 H   0  0  0  0  0  0  0  0  0  0  0  0
    8.2929   -4.7464    0.0000 H   0  0  0  0  0  0  0  0  0  0  0  0
   10.7523   -3.1778    0.0000 H   0  0  0  0  0  0  0  0  0  0  0  0
   10.9643   -1.7692    0.0000 H   0  0  0  0  0  0  0  0  0  0  0  0
   10.9169   -0.8936    0.0000 H   0  0  0  0  0  0  0  0  0  0  0  0
   10.0413   -0.9410    0.0000 H   0  0  0  0  0  0  0  0  0  0  0  0
  1 14  2  0  0  0  0
  2  6  1  0  0  0  0
  2  7  1  0  0  0  0
  2 10  1  0  0  0  0
  3  8  1  0  0  0  0
  3  9  1  0  0  0  0
  3 15  1  0  0  0  0
  4  5  1  0  0  0  0
  4 12  1  0  0  0  0
  4 14  1  0  0  0  0
  5 11  1  0  0  0  0
  5 16  1  0  0  0  0
  5 29  1  0  0  0  0
  6  8  1  0  0  0  0
  6 30  1  0  0  0  0
  6 31  1  0  0  0  0
  7  9  1  0  0  0  0
  7 32  1  0  0  0  0
  7 33  1  0  0  0  0
  8 34  1  0  0  0  0
  8 35  1  0  0  0  0
  9 36  1  0  0  0  0
  9 37  1  0  0  0  0
 10 14  1  0  0  0  0
 10 38  1  0  0  0  0
 10 39  1  0  0  0  0
 11 13  1  0  0  0  0
 11 40  1  0  0  0  0
 11 41  1  0  0  0  0
 12 13  1  0  0  0  0
 12 18  2  0  0  0  0
 13 19  2  0  0  0  0
 15 17  1  0  0  0  0
 15 42  1  0  0  0  0
 15 43  1  0  0  0  0
 16 44  1  0  0  0  0
 16 45  1  0  0  0  0
 16 46  1  0  0  0  0
 17 20  2  0  0  0  0
 17 23  1  0  0  0  0
 18 21  1  0  0  0  0
 18 47  1  0  0  0  0
 19 22  1  0  0  0  0
 19 48  1  0  0  0  0
 20 25  1  0  0  0  0
 20 26  1  0  0  0  0
 21 22  2  0  0  0  0
 21 49  1  0  0  0  0
 22 50  1  0  0  0  0
 23 24  2  0  0  0  0
 23 51  1  0  0  0  0
 24 27  1  0  0  0  0
 24 28  1  0  0  0  0
 25 27  2  0  0  0  0
 25 52  1  0  0  0  0
 26 53  1  0  0  0  0
 26 54  1  0  0  0  0
 26 55  1  0  0  0  0
 27 56  1  0  0  0  0
 28 57  1  0  0  0  0
 28 58  1  0  0  0  0
 28 59  1  0  0  0  0
M  END
> <PUBCHEM_COMPOUND_CID>
44335876

> <PUBCHEM_COMPOUND_CANONICALIZED>
1

> <PUBCHEM_CACTVS_COMPLEXITY>
530

> <PUBCHEM_CACTVS_HBOND_ACCEPTOR>
3

> <PUBCHEM_CACTVS_HBOND_DONOR>
0

> <PUBCHEM_CACTVS_ROTATABLE_BOND>
4

> <PUBCHEM_CACTVS_SUBSKEYS>
AAADceB7IAAAAAAAAAAAAAAAAAAAAWAAAAA8YIAAAAAAAFgBQAAAHgAAAAAADCjBmAQywIMAAACIAiVSUACCAAAhAgAIiACIZIgIYCLAkbGUIAhghgDIyAcQgMAOwAACAAASAACAAAQAACQAAAAAAAAAAA==

> <PUBCHEM_IUPAC_OPENEYE_NAME>
2-[4-[(2,5-dimethylphenyl)methyl]piperazin-1-yl]-1-(2-methylindolin-1-yl)ethanone

> <PUBCHEM_IUPAC_CAS_NAME>
2-[4-[(2,5-dimethylphenyl)methyl]-1-piperazinyl]-1-(2-methyl-2,3-dihydroindol-1-yl)ethanone

> <PUBCHEM_IUPAC_NAME_MARKUP>
2-[4-[(2,5-dimethylphenyl)methyl]piperazin-1-yl]-1-(2-methyl-2,3-dihydroindol-1-yl)ethanone

> <PUBCHEM_IUPAC_NAME>
2-[4-[(2,5-dimethylphenyl)methyl]piperazin-1-yl]-1-(2-methyl-2,3-dihydroindol-1-yl)ethanone

> <PUBCHEM_IUPAC_SYSTEMATIC_NAME>
2-[4-[(2,5-dimethylphenyl)methyl]piperazin-1-yl]-1-(2-methyl-2,3-dihydroindol-1-yl)ethanone

> <PUBCHEM_IUPAC_TRADITIONAL_NAME>
2-[4-(2,5-dimethylbenzyl)piperazino]-1-(2-methylindolin-1-yl)ethanone

> <PUBCHEM_IUPAC_INCHI>
InChI=1S/C24H31N3O/c1-18-8-9-19(2)22(14-18)16-25-10-12-26(13-11-25)17-24(28)27-20(3)15-21-6-4-5-7-23(21)27/h4-9,14,20H,10-13,15-17H2,1-3H3

> <PUBCHEM_IUPAC_INCHIKEY>
GAZDGUQLDXYUCF-UHFFFAOYSA-N

> <PUBCHEM_XLOGP3_AA>
3.9

> <PUBCHEM_EXACT_MASS>
377.246712621

> <PUBCHEM_MOLECULAR_FORMULA>
C24H31N3O

> <PUBCHEM_MOLECULAR_WEIGHT>
377.5

> <PUBCHEM_OPENEYE_CAN_SMILES>
CC1CC2=CC=CC=C2N1C(=O)CN3CCN(CC3)CC4=C(C=CC(=C4)C)C

> <PUBCHEM_OPENEYE_ISO_SMILES>
CC1CC2=CC=CC=C2N1C(=O)CN3CCN(CC3)CC4=C(C=CC(=C4)C)C

> <PUBCHEM_CACTVS_TPSA>
26.8

> <PUBCHEM_MONOISOTOPIC_WEIGHT>
377.246712621

> <PUBCHEM_TOTAL_CHARGE>
0

> <PUBCHEM_HEAVY_ATOM_COUNT>
28

> <PUBCHEM_ATOM_DEF_STEREO_COUNT>
0

> <PUBCHEM_ATOM_UDEF_STEREO_COUNT>
1

> <PUBCHEM_BOND_DEF_STEREO_COUNT>
0

> <PUBCHEM_BOND_UDEF_STEREO_COUNT>
0

> <PUBCHEM_ISOTOPIC_ATOM_COUNT>
0

> <PUBCHEM_COMPONENT_COUNT>
1

> <PUBCHEM_CACTVS_TAUTO_COUNT>
-1

> <PUBCHEM_COORDINATE_TYPE>
1
5
255

> <PUBCHEM_BONDANNOTATIONS>
12  13  8
12  18  8
13  19  8
17  20  8
17  23  8
18  21  8
19  22  8
20  25  8
21  22  8
23  24  8
24  27  8
25  27  8
5  16  3

$$$$
