25375331
  -OEChem-09292322402D

 44 47  0     1  0  0  0  0  0999 V2000
    4.6783    0.8473    0.0000 O   0  0  0  0  0  0  0  0  0  0  0  0
    8.5983   -1.6627    0.0000 O   0  0  0  0  0  0  0  0  0  0  0  0
   11.2439   -1.0694    0.0000 O   0  0  0  0  0  0  0  0  0  0  0  0
    6.7619    0.7860    0.0000 N   0  0  3  0  0  0  0  0  0  0  0  0
    9.2564   -0.1845    0.0000 N   0  0  0  0  0  0  0  0  0  0  0  0
    5.2619    1.6521    0.0000 C   0  0  1  0  0  0  0  0  0  0  0  0
    4.6783    2.4568    0.0000 C   0  0  0  0  0  0  0  0  0  0  0  0
    6.2619    1.6521    0.0000 C   0  0  0  0  0  0  0  0  0  0  0  0
    3.7320    2.1521    0.0000 C   0  0  0  0  0  0  0  0  0  0  0  0
    3.7320    1.1521    0.0000 C   0  0  0  0  0  0  0  0  0  0  0  0
    7.7619    0.7860    0.0000 C   0  0  0  0  0  0  0  0  0  0  0  0
    2.8660    2.6521    0.0000 C   0  0  0  0  0  0  0  0  0  0  0  0
    6.2619   -0.0800    0.0000 C   0  0  0  0  0  0  0  0  0  0  0  0
    8.2619   -0.0800    0.0000 C   0  0  0  0  0  0  0  0  0  0  0  0
    2.8660    0.6521    0.0000 C   0  0  0  0  0  0  0  0  0  0  0  0
    2.0000    2.1521    0.0000 C   0  0  0  0  0  0  0  0  0  0  0  0
    2.0000    1.1521    0.0000 C   0  0  0  0  0  0  0  0  0  0  0  0
    7.8551   -0.9935    0.0000 C   0  0  0  0  0  0  0  0  0  0  0  0
    9.4643   -1.1627    0.0000 C   0  0  0  0  0  0  0  0  0  0  0  0
    6.8770   -1.2014    0.0000 C   0  0  0  0  0  0  0  0  0  0  0  0
   10.3779   -1.5694    0.0000 C   0  0  0  0  0  0  0  0  0  0  0  0
   10.5858   -2.5475    0.0000 C   0  0  0  0  0  0  0  0  0  0  0  0
   11.5803   -2.6521    0.0000 C   0  0  0  0  0  0  0  0  0  0  0  0
   11.9870   -1.7385    0.0000 C   0  0  0  0  0  0  0  0  0  0  0  0
    5.5436    1.0998    0.0000 H   0  0  0  0  0  0  0  0  0  0  0  0
    5.2156    2.7660    0.0000 H   0  0  0  0  0  0  0  0  0  0  0  0
    4.4272    3.0237    0.0000 H   0  0  0  0  0  0  0  0  0  0  0  0
    6.8445    1.8641    0.0000 H   0  0  0  0  0  0  0  0  0  0  0  0
    6.1542    2.2626    0.0000 H   0  0  0  0  0  0  0  0  0  0  0  0
    8.3445    0.9981    0.0000 H   0  0  0  0  0  0  0  0  0  0  0  0
    7.6542    1.3966    0.0000 H   0  0  0  0  0  0  0  0  0  0  0  0
    2.8660    3.2721    0.0000 H   0  0  0  0  0  0  0  0  0  0  0  0
    5.7249    0.2300    0.0000 H   0  0  0  0  0  0  0  0  0  0  0  0
    5.9519   -0.6169    0.0000 H   0  0  0  0  0  0  0  0  0  0  0  0
    6.7988   -0.3900    0.0000 H   0  0  0  0  0  0  0  0  0  0  0  0
    2.8660    0.0321    0.0000 H   0  0  0  0  0  0  0  0  0  0  0  0
    1.4631    2.4621    0.0000 H   0  0  0  0  0  0  0  0  0  0  0  0
    1.4631    0.8421    0.0000 H   0  0  0  0  0  0  0  0  0  0  0  0
    6.7481   -0.5950    0.0000 H   0  0  0  0  0  0  0  0  0  0  0  0
    6.2705   -1.3303    0.0000 H   0  0  0  0  0  0  0  0  0  0  0  0
    7.0059   -1.8079    0.0000 H   0  0  0  0  0  0  0  0  0  0  0  0
   10.1709   -3.0083    0.0000 H   0  0  0  0  0  0  0  0  0  0  0  0
   11.8903   -3.1890    0.0000 H   0  0  0  0  0  0  0  0  0  0  0  0
   12.5935   -1.6096    0.0000 H   0  0  0  0  0  0  0  0  0  0  0  0
  1  6  1  0  0  0  0
  1 10  1  0  0  0  0
  2 18  1  0  0  0  0
  2 19  1  0  0  0  0
  3 21  1  0  0  0  0
  3 24  1  0  0  0  0
  4  8  1  0  0  0  0
  4 11  1  0  0  0  0
  4 13  1  0  0  0  0
  5 14  1  0  0  0  0
  5 19  2  0  0  0  0
  6  7  1  0  0  0  0
  6  8  1  1  0  0  0
  6 25  1  0  0  0  0
  7  9  1  0  0  0  0
  7 26  1  0  0  0  0
  7 27  1  0  0  0  0
  8 28  1  0  0  0  0
  8 29  1  0  0  0  0
  9 10  1  0  0  0  0
  9 12  2  0  0  0  0
 10 15  2  0  0  0  0
 11 14  1  0  0  0  0
 11 30  1  0  0  0  0
 11 31  1  0  0  0  0
 12 16  1  0  0  0  0
 12 32  1  0  0  0  0
 13 33  1  0  0  0  0
 13 34  1  0  0  0  0
 13 35  1  0  0  0  0
 14 18  2  0  0  0  0
 15 17  1  0  0  0  0
 15 36  1  0  0  0  0
 16 17  2  0  0  0  0
 16 37  1  0  0  0  0
 17 38  1  0  0  0  0
 18 20  1  0  0  0  0
 19 21  1  0  0  0  0
 20 39  1  0  0  0  0
 20 40  1  0  0  0  0
 20 41  1  0  0  0  0
 21 22  2  0  0  0  0
 22 23  1  0  0  0  0
 22 42  1  0  0  0  0
 23 24  2  0  0  0  0
 23 43  1  0  0  0  0
 24 44  1  0  0  0  0
M  END
> <PUBCHEM_COMPOUND_CID>
25375331

> <PUBCHEM_COMPOUND_CANONICALIZED>
1

> <PUBCHEM_CACTVS_COMPLEXITY>
421

> <PUBCHEM_CACTVS_HBOND_ACCEPTOR>
5

> <PUBCHEM_CACTVS_HBOND_DONOR>
0

> <PUBCHEM_CACTVS_ROTATABLE_BOND>
5

> <PUBCHEM_CACTVS_SUBSKEYS>
AAADceB7MAAAAAAAAAAAAAAAAAAAAWJEgAAwAAAAAAAAAEgB8AAAHgAAAAAADBzhngYyhpMIFECoA61y1AaCiCAvYCAImCH/TNgPZrrEtT+fOSjmxBHaqYeY96oOAAAAAAAIAAAAAAAAABAAAAAAAAAAAA==

> <PUBCHEM_IUPAC_OPENEYE_NAME>
1-[(2S)-2,3-dihydrobenzofuran-2-yl]-N-[[2-(2-furyl)-5-methyl-oxazol-4-yl]methyl]-N-methyl-methanamine

> <PUBCHEM_IUPAC_CAS_NAME>
1-[(2S)-2,3-dihydrobenzofuran-2-yl]-N-[[2-(2-furanyl)-5-methyl-4-oxazolyl]methyl]-N-methylmethanamine

> <PUBCHEM_IUPAC_NAME_MARKUP>
1-[(2<I>S</I>)-2,3-dihydro-1-benzofuran-2-yl]-<I>N</I>-[[2-(furan-2-yl)-5-methyl-1,3-oxazol-4-yl]methyl]-<I>N</I>-methylmethanamine

> <PUBCHEM_IUPAC_NAME>
1-[(2S)-2,3-dihydro-1-benzofuran-2-yl]-N-[[2-(furan-2-yl)-5-methyl-1,3-oxazol-4-yl]methyl]-N-methylmethanamine

> <PUBCHEM_IUPAC_SYSTEMATIC_NAME>
1-[(2S)-2,3-dihydro-1-benzofuran-2-yl]-N-[[2-(furan-2-yl)-5-methyl-1,3-oxazol-4-yl]methyl]-N-methyl-methanamine

> <PUBCHEM_IUPAC_TRADITIONAL_NAME>
[(2S)-coumaran-2-yl]methyl-[[2-(2-furyl)-5-methyl-oxazol-4-yl]methyl]-methyl-amine

> <PUBCHEM_IUPAC_INCHI>
InChI=1S/C19H20N2O3/c1-13-16(20-19(23-13)18-8-5-9-22-18)12-21(2)11-15-10-14-6-3-4-7-17(14)24-15/h3-9,15H,10-12H2,1-2H3/t15-/m0/s1

> <PUBCHEM_IUPAC_INCHIKEY>
NVGPCGUJNQAMPN-HNNXBMFYSA-N

> <PUBCHEM_XLOGP3_AA>
3.1

> <PUBCHEM_EXACT_MASS>
324.14739250

> <PUBCHEM_MOLECULAR_FORMULA>
C19H20N2O3

> <PUBCHEM_MOLECULAR_WEIGHT>
324.4

> <PUBCHEM_OPENEYE_CAN_SMILES>
CC1=C(N=C(O1)C2=CC=CO2)CN(C)CC3CC4=CC=CC=C4O3

> <PUBCHEM_OPENEYE_ISO_SMILES>
CC1=C(N=C(O1)C2=CC=CO2)CN(C)C[C@@H]3CC4=CC=CC=C4O3

> <PUBCHEM_CACTVS_TPSA>
51.6

> <PUBCHEM_MONOISOTOPIC_WEIGHT>
324.14739250

> <PUBCHEM_TOTAL_CHARGE>
0

> <PUBCHEM_HEAVY_ATOM_COUNT>
24

> <PUBCHEM_ATOM_DEF_STEREO_COUNT>
1

> <PUBCHEM_ATOM_UDEF_STEREO_COUNT>
0

> <PUBCHEM_BOND_DEF_STEREO_COUNT>
0

> <PUBCHEM_BOND_UDEF_STEREO_COUNT>
0

> <PUBCHEM_ISOTOPIC_ATOM_COUNT>
0

> <PUBCHEM_COMPONENT_COUNT>
1

> <PUBCHEM_CACTVS_TAUTO_COUNT>
-1

> <PUBCHEM_COORDINATE_TYPE>
1
5
255

> <PUBCHEM_BONDANNOTATIONS>
10  15  8
12  16  8
14  18  8
15  17  8
16  17  8
2  18  8
2  19  8
21  22  8
22  23  8
23  24  8
3  21  8
3  24  8
5  14  8
5  19  8
6  8  5
9  10  8
9  12  8

$$$$
