45273545
  -OEChem-09292322282D

 63 66  0     1  0  0  0  0  0999 V2000
    5.9804   -1.3669    0.0000 O   0  0  0  0  0  0  0  0  0  0  0  0
    3.8953   -5.6794    0.0000 O   0  0  0  0  0  0  0  0  0  0  0  0
    4.1630    1.9969    0.0000 N   0  0  3  0  0  0  0  0  0  0  0  0
    4.3525   -0.6421    0.0000 N   0  0  0  0  0  0  0  0  0  0  0  0
    4.4372   -2.2579    0.0000 N   0  0  0  0  0  0  0  0  0  0  0  0
    3.7147    3.6699    0.0000 C   0  0  0  0  0  0  0  0  0  0  0  0
    3.2369    5.6184    0.0000 C   0  0  0  0  0  0  0  0  0  0  0  0
    3.9735    4.6358    0.0000 C   0  0  0  0  0  0  0  0  0  0  0  0
    5.1137    3.1611    0.0000 C   0  0  0  0  0  0  0  0  0  0  0  0
    2.3420    3.0779    0.0000 C   0  0  0  0  0  0  0  0  0  0  0  0
    5.3725    4.1270    0.0000 C   0  0  0  0  0  0  0  0  0  0  0  0
    2.0000    4.0176    0.0000 C   0  0  0  0  0  0  0  0  0  0  0  0
    3.4559    2.7040    0.0000 C   0  0  0  0  0  0  0  0  0  0  0  0
    3.3415    6.6130    0.0000 C   0  0  0  0  0  0  0  0  0  0  0  0
    2.3234    6.0252    0.0000 C   0  0  0  0  0  0  0  0  0  0  0  0
    3.9042    1.0309    0.0000 C   0  0  0  0  0  0  0  0  0  0  0  0
    5.1289    2.2557    0.0000 C   0  0  0  0  0  0  0  0  0  0  0  0
    4.6113    0.3238    0.0000 C   0  0  0  0  0  0  0  0  0  0  0  0
    3.4189   -1.0005    0.0000 C   0  0  0  0  0  0  0  0  0  0  0  0
    4.9818   -1.4192    0.0000 C   0  0  0  0  0  0  0  0  0  0  0  0
    3.4712   -1.9991    0.0000 C   0  0  0  0  0  0  0  0  0  0  0  0
    4.7955   -3.1915    0.0000 C   0  0  0  0  0  0  0  0  0  0  0  0
    4.1662   -3.9686    0.0000 C   0  0  0  0  0  0  0  0  0  0  0  0
    5.7832   -3.3479    0.0000 C   0  0  0  0  0  0  0  0  0  0  0  0
    4.5246   -4.9022    0.0000 C   0  0  0  0  0  0  0  0  0  0  0  0
    6.1416   -4.2815    0.0000 C   0  0  0  0  0  0  0  0  0  0  0  0
    5.5123   -5.0587    0.0000 C   0  0  0  0  0  0  0  0  0  0  0  0
    4.2536   -6.6130    0.0000 C   0  0  0  0  0  0  0  0  0  0  0  0
    3.9595    4.0160    0.0000 H   0  0  0  0  0  0  0  0  0  0  0  0
    4.9187    2.5725    0.0000 H   0  0  0  0  0  0  0  0  0  0  0  0
    5.7076    2.9833    0.0000 H   0  0  0  0  0  0  0  0  0  0  0  0
    1.7636    2.8546    0.0000 H   0  0  0  0  0  0  0  0  0  0  0  0
    2.5765    2.5039    0.0000 H   0  0  0  0  0  0  0  0  0  0  0  0
    5.9664    3.9492    0.0000 H   0  0  0  0  0  0  0  0  0  0  0  0
    5.5674    4.7156    0.0000 H   0  0  0  0  0  0  0  0  0  0  0  0
    1.8057    4.6063    0.0000 H   0  0  0  0  0  0  0  0  0  0  0  0
    1.4142    3.8144    0.0000 H   0  0  0  0  0  0  0  0  0  0  0  0
    2.8940    2.9660    0.0000 H   0  0  0  0  0  0  0  0  0  0  0  0
    3.1003    2.1961    0.0000 H   0  0  0  0  0  0  0  0  0  0  0  0
    3.9581    6.5481    0.0000 H   0  0  0  0  0  0  0  0  0  0  0  0
    3.4063    7.2296    0.0000 H   0  0  0  0  0  0  0  0  0  0  0  0
    2.7248    6.6778    0.0000 H   0  0  0  0  0  0  0  0  0  0  0  0
    2.5756    6.5916    0.0000 H   0  0  0  0  0  0  0  0  0  0  0  0
    1.7570    6.2773    0.0000 H   0  0  0  0  0  0  0  0  0  0  0  0
    2.0712    5.4588    0.0000 H   0  0  0  0  0  0  0  0  0  0  0  0
    3.3423    1.2930    0.0000 H   0  0  0  0  0  0  0  0  0  0  0  0
    3.5486    0.5231    0.0000 H   0  0  0  0  0  0  0  0  0  0  0  0
    5.2894    1.6568    0.0000 H   0  0  0  0  0  0  0  0  0  0  0  0
    5.7278    2.4161    0.0000 H   0  0  0  0  0  0  0  0  0  0  0  0
    4.9685    2.8546    0.0000 H   0  0  0  0  0  0  0  0  0  0  0  0
    5.1732    0.0618    0.0000 H   0  0  0  0  0  0  0  0  0  0  0  0
    4.9669    0.8317    0.0000 H   0  0  0  0  0  0  0  0  0  0  0  0
    3.2584   -0.4016    0.0000 H   0  0  0  0  0  0  0  0  0  0  0  0
    2.8065   -1.0975    0.0000 H   0  0  0  0  0  0  0  0  0  0  0  0
    2.8521   -1.9666    0.0000 H   0  0  0  0  0  0  0  0  0  0  0  0
    3.3742   -2.6115    0.0000 H   0  0  0  0  0  0  0  0  0  0  0  0
    3.5538   -3.8717    0.0000 H   0  0  0  0  0  0  0  0  0  0  0  0
    6.1734   -2.8661    0.0000 H   0  0  0  0  0  0  0  0  0  0  0  0
    6.7540   -4.3785    0.0000 H   0  0  0  0  0  0  0  0  0  0  0  0
    5.7345   -5.6375    0.0000 H   0  0  0  0  0  0  0  0  0  0  0  0
    3.6748   -6.8351    0.0000 H   0  0  0  0  0  0  0  0  0  0  0  0
    4.4758   -7.1918    0.0000 H   0  0  0  0  0  0  0  0  0  0  0  0
    4.8324   -6.3908    0.0000 H   0  0  0  0  0  0  0  0  0  0  0  0
  1 20  2  0  0  0  0
  2 25  1  0  0  0  0
  2 28  1  0  0  0  0
  3 13  1  0  0  0  0
  3 16  1  0  0  0  0
  3 17  1  0  0  0  0
  4 18  1  0  0  0  0
  4 19  1  0  0  0  0
  4 20  1  0  0  0  0
  5 20  1  0  0  0  0
  5 21  1  0  0  0  0
  5 22  1  0  0  0  0
  6  7  1  0  0  0  0
  6  9  1  0  0  0  0
  6 10  1  0  0  0  0
  6 13  1  0  0  0  0
  7  8  1  0  0  0  0
  7 14  1  0  0  0  0
  7 15  1  0  0  0  0
  8 11  1  0  0  0  0
  8 12  1  0  0  0  0
  8 29  1  0  0  0  0
  9 11  1  0  0  0  0
  9 30  1  0  0  0  0
  9 31  1  0  0  0  0
 10 12  1  0  0  0  0
 10 32  1  0  0  0  0
 10 33  1  0  0  0  0
 11 34  1  0  0  0  0
 11 35  1  0  0  0  0
 12 36  1  0  0  0  0
 12 37  1  0  0  0  0
 13 38  1  0  0  0  0
 13 39  1  0  0  0  0
 14 40  1  0  0  0  0
 14 41  1  0  0  0  0
 14 42  1  0  0  0  0
 15 43  1  0  0  0  0
 15 44  1  0  0  0  0
 15 45  1  0  0  0  0
 16 18  1  0  0  0  0
 16 46  1  0  0  0  0
 16 47  1  0  0  0  0
 17 48  1  0  0  0  0
 17 49  1  0  0  0  0
 17 50  1  0  0  0  0
 18 51  1  0  0  0  0
 18 52  1  0  0  0  0
 19 21  1  0  0  0  0
 19 53  1  0  0  0  0
 19 54  1  0  0  0  0
 21 55  1  0  0  0  0
 21 56  1  0  0  0  0
 22 23  2  0  0  0  0
 22 24  1  0  0  0  0
 23 25  1  0  0  0  0
 23 57  1  0  0  0  0
 24 26  2  0  0  0  0
 24 58  1  0  0  0  0
 25 27  2  0  0  0  0
 26 27  1  0  0  0  0
 26 59  1  0  0  0  0
 27 60  1  0  0  0  0
 28 61  1  0  0  0  0
 28 62  1  0  0  0  0
 28 63  1  0  0  0  0
M  END
> <PUBCHEM_COMPOUND_CID>
45273545

> <PUBCHEM_COMPOUND_CANONICALIZED>
1

> <PUBCHEM_CACTVS_COMPLEXITY>
570

> <PUBCHEM_CACTVS_HBOND_ACCEPTOR>
3

> <PUBCHEM_CACTVS_HBOND_DONOR>
0

> <PUBCHEM_CACTVS_ROTATABLE_BOND>
7

> <PUBCHEM_CACTVS_SUBSKEYS>
AAADcfB7MAAAAAAAAAAAAAAAAAAAAeMEAAAwYAAAAAAAAAABAAAAHgAAAAAADwzBkAYzxoMABACIACRCUACCCAAhIgAIiAAObIiMZiLEsZuUMChuxhvI6CeQ0MMPgAAAAgAAAACAAAAEAAAAAQAACAAAAA==

> <PUBCHEM_IUPAC_OPENEYE_NAME>
1-[2-[(7,7-dimethylnorbornan-1-yl)methyl-methyl-amino]ethyl]-3-(3-methoxyphenyl)imidazolidin-2-one

> <PUBCHEM_IUPAC_CAS_NAME>
1-[2-[(7,7-dimethyl-1-bicyclo[2.2.1]heptanyl)methyl-methylamino]ethyl]-3-(3-methoxyphenyl)-2-imidazolidinone

> <PUBCHEM_IUPAC_NAME_MARKUP>
1-[2-[(7,7-dimethyl-1-bicyclo[2.2.1]heptanyl)methyl-methylamino]ethyl]-3-(3-methoxyphenyl)imidazolidin-2-one

> <PUBCHEM_IUPAC_NAME>
1-[2-[(7,7-dimethyl-1-bicyclo[2.2.1]heptanyl)methyl-methylamino]ethyl]-3-(3-methoxyphenyl)imidazolidin-2-one

> <PUBCHEM_IUPAC_SYSTEMATIC_NAME>
1-[2-[(7,7-dimethyl-1-bicyclo[2.2.1]heptanyl)methyl-methyl-amino]ethyl]-3-(3-methoxyphenyl)imidazolidin-2-one

> <PUBCHEM_IUPAC_TRADITIONAL_NAME>
1-[2-[(7,7-dimethylnorbornan-1-yl)methyl-methyl-amino]ethyl]-3-(3-methoxyphenyl)-2-imidazolidinone

> <PUBCHEM_IUPAC_INCHI>
InChI=1S/C23H35N3O2/c1-22(2)18-8-10-23(22,11-9-18)17-24(3)12-13-25-14-15-26(21(25)27)19-6-5-7-20(16-19)28-4/h5-7,16,18H,8-15,17H2,1-4H3

> <PUBCHEM_IUPAC_INCHIKEY>
NCXRDDKPZUSAQF-UHFFFAOYSA-N

> <PUBCHEM_XLOGP3_AA>
4

> <PUBCHEM_EXACT_MASS>
385.27292737

> <PUBCHEM_MOLECULAR_FORMULA>
C23H35N3O2

> <PUBCHEM_MOLECULAR_WEIGHT>
385.5

> <PUBCHEM_OPENEYE_CAN_SMILES>
CC1(C2CCC1(CC2)CN(C)CCN3CCN(C3=O)C4=CC(=CC=C4)OC)C

> <PUBCHEM_OPENEYE_ISO_SMILES>
CC1(C2CCC1(CC2)CN(C)CCN3CCN(C3=O)C4=CC(=CC=C4)OC)C

> <PUBCHEM_CACTVS_TPSA>
36

> <PUBCHEM_MONOISOTOPIC_WEIGHT>
385.27292737

> <PUBCHEM_TOTAL_CHARGE>
0

> <PUBCHEM_HEAVY_ATOM_COUNT>
28

> <PUBCHEM_ATOM_DEF_STEREO_COUNT>
0

> <PUBCHEM_ATOM_UDEF_STEREO_COUNT>
0

> <PUBCHEM_BOND_DEF_STEREO_COUNT>
0

> <PUBCHEM_BOND_UDEF_STEREO_COUNT>
0

> <PUBCHEM_ISOTOPIC_ATOM_COUNT>
0

> <PUBCHEM_COMPONENT_COUNT>
1

> <PUBCHEM_CACTVS_TAUTO_COUNT>
-1

> <PUBCHEM_COORDINATE_TYPE>
1
5
255

> <PUBCHEM_BONDANNOTATIONS>
22  23  8
22  24  8
23  25  8
24  26  8
25  27  8
26  27  8

$$$$
