25131829
  -OEChem-09292322502D

 60 63  0     1  0  0  0  0  0999 V2000
    2.0000   -1.1340    0.0000 F   0  0  0  0  0  0  0  0  0  0  0  0
   12.4725   -0.9387    0.0000 O   0  0  0  0  0  0  0  0  0  0  0  0
   10.6603    1.8660    0.0000 O   0  0  0  0  0  0  0  0  0  0  0  0
    5.4641    1.8660    0.0000 O   0  0  0  0  0  0  0  0  0  0  0  0
   14.5561   -1.0000    0.0000 O   0  0  0  0  0  0  0  0  0  0  0  0
   14.5561    0.7321    0.0000 O   0  0  0  0  0  0  0  0  0  0  0  0
    8.0622   -0.6340    0.0000 N   0  0  0  0  0  0  0  0  0  0  0  0
    9.7942   -0.6340    0.0000 C   0  0  3  0  0  0  0  0  0  0  0  0
    8.9282   -1.1340    0.0000 C   0  0  0  0  0  0  0  0  0  0  0  0
    6.3301    0.3660    0.0000 C   0  0  0  0  0  0  0  0  0  0  0  0
    7.1962   -1.1340    0.0000 C   0  0  0  0  0  0  0  0  0  0  0  0
    8.0622    0.3660    0.0000 C   0  0  0  0  0  0  0  0  0  0  0  0
    6.3301   -0.6340    0.0000 C   0  0  0  0  0  0  0  0  0  0  0  0
    7.1962    0.8660    0.0000 C   0  0  0  0  0  0  0  0  0  0  0  0
   10.6603   -1.1340    0.0000 C   0  0  0  0  0  0  0  0  0  0  0  0
    9.7942    0.3660    0.0000 C   0  0  0  0  0  0  0  0  0  0  0  0
   11.5263   -0.6340    0.0000 C   0  0  0  0  0  0  0  0  0  0  0  0
   11.5263    0.3660    0.0000 C   0  0  0  0  0  0  0  0  0  0  0  0
   10.6603    0.8660    0.0000 C   0  0  0  0  0  0  0  0  0  0  0  0
    5.4641    0.8660    0.0000 C   0  0  0  0  0  0  0  0  0  0  0  0
   12.4725    0.6708    0.0000 C   0  0  0  0  0  0  0  0  0  0  0  0
   13.0561   -0.1340    0.0000 C   0  0  0  0  0  0  0  0  0  0  0  0
    4.5981    0.3660    0.0000 C   0  0  0  0  0  0  0  0  0  0  0  0
   12.7832    1.6213    0.0000 C   0  0  0  0  0  0  0  0  0  0  0  0
    3.7320    0.8660    0.0000 C   0  0  0  0  0  0  0  0  0  0  0  0
    4.5981   -0.6340    0.0000 C   0  0  0  0  0  0  0  0  0  0  0  0
   14.0561   -0.1340    0.0000 C   0  0  0  0  0  0  0  0  0  0  0  0
    2.8660    0.3660    0.0000 C   0  0  0  0  0  0  0  0  0  0  0  0
    3.7320   -1.1340    0.0000 C   0  0  0  0  0  0  0  0  0  0  0  0
    2.8660   -0.6340    0.0000 C   0  0  0  0  0  0  0  0  0  0  0  0
   15.5561   -1.0000    0.0000 C   0  0  0  0  0  0  0  0  0  0  0  0
   16.0561   -1.8660    0.0000 C   0  0  0  0  0  0  0  0  0  0  0  0
    9.2573   -0.3240    0.0000 H   0  0  0  0  0  0  0  0  0  0  0  0
    8.5297   -1.6089    0.0000 H   0  0  0  0  0  0  0  0  0  0  0  0
    9.3267   -1.6089    0.0000 H   0  0  0  0  0  0  0  0  0  0  0  0
    5.7932    0.0560    0.0000 H   0  0  0  0  0  0  0  0  0  0  0  0
    6.7976   -1.6089    0.0000 H   0  0  0  0  0  0  0  0  0  0  0  0
    7.5947   -1.6089    0.0000 H   0  0  0  0  0  0  0  0  0  0  0  0
    8.6728    0.2584    0.0000 H   0  0  0  0  0  0  0  0  0  0  0  0
    8.2742    0.9486    0.0000 H   0  0  0  0  0  0  0  0  0  0  0  0
    5.7196   -0.5263    0.0000 H   0  0  0  0  0  0  0  0  0  0  0  0
    6.1181   -1.2166    0.0000 H   0  0  0  0  0  0  0  0  0  0  0  0
    7.5947    1.3410    0.0000 H   0  0  0  0  0  0  0  0  0  0  0  0
    6.7976    1.3410    0.0000 H   0  0  0  0  0  0  0  0  0  0  0  0
   10.2617   -1.6089    0.0000 H   0  0  0  0  0  0  0  0  0  0  0  0
   11.0588   -1.6089    0.0000 H   0  0  0  0  0  0  0  0  0  0  0  0
    9.5822    0.9486    0.0000 H   0  0  0  0  0  0  0  0  0  0  0  0
    9.1836    0.2584    0.0000 H   0  0  0  0  0  0  0  0  0  0  0  0
   13.3725    1.4287    0.0000 H   0  0  0  0  0  0  0  0  0  0  0  0
   12.9758    2.2106    0.0000 H   0  0  0  0  0  0  0  0  0  0  0  0
   12.1938    1.8139    0.0000 H   0  0  0  0  0  0  0  0  0  0  0  0
    3.7320    1.4860    0.0000 H   0  0  0  0  0  0  0  0  0  0  0  0
    5.1350   -0.9440    0.0000 H   0  0  0  0  0  0  0  0  0  0  0  0
    2.3291    0.6760    0.0000 H   0  0  0  0  0  0  0  0  0  0  0  0
    3.7320   -1.7540    0.0000 H   0  0  0  0  0  0  0  0  0  0  0  0
   16.1387   -0.7879    0.0000 H   0  0  0  0  0  0  0  0  0  0  0  0
   15.4484   -0.3894    0.0000 H   0  0  0  0  0  0  0  0  0  0  0  0
   15.5192   -2.1760    0.0000 H   0  0  0  0  0  0  0  0  0  0  0  0
   16.3661   -2.4030    0.0000 H   0  0  0  0  0  0  0  0  0  0  0  0
   16.5930   -1.5560    0.0000 H   0  0  0  0  0  0  0  0  0  0  0  0
  1 30  1  0  0  0  0
  2 17  1  0  0  0  0
  2 22  1  0  0  0  0
  3 19  2  0  0  0  0
  4 20  2  0  0  0  0
  5 27  1  0  0  0  0
  5 31  1  0  0  0  0
  6 27  2  0  0  0  0
  7  9  1  0  0  0  0
  7 11  1  0  0  0  0
  7 12  1  0  0  0  0
  8  9  1  0  0  0  0
  8 15  1  0  0  0  0
  8 16  1  0  0  0  0
  8 33  1  0  0  0  0
  9 34  1  0  0  0  0
  9 35  1  0  0  0  0
 10 13  1  0  0  0  0
 10 14  1  0  0  0  0
 10 20  1  0  0  0  0
 10 36  1  0  0  0  0
 11 13  1  0  0  0  0
 11 37  1  0  0  0  0
 11 38  1  0  0  0  0
 12 14  1  0  0  0  0
 12 39  1  0  0  0  0
 12 40  1  0  0  0  0
 13 41  1  0  0  0  0
 13 42  1  0  0  0  0
 14 43  1  0  0  0  0
 14 44  1  0  0  0  0
 15 17  1  0  0  0  0
 15 45  1  0  0  0  0
 15 46  1  0  0  0  0
 16 19  1  0  0  0  0
 16 47  1  0  0  0  0
 16 48  1  0  0  0  0
 17 18  2  0  0  0  0
 18 19  1  0  0  0  0
 18 21  1  0  0  0  0
 20 23  1  0  0  0  0
 21 22  2  0  0  0  0
 21 24  1  0  0  0  0
 22 27  1  0  0  0  0
 23 25  2  0  0  0  0
 23 26  1  0  0  0  0
 24 49  1  0  0  0  0
 24 50  1  0  0  0  0
 24 51  1  0  0  0  0
 25 28  1  0  0  0  0
 25 52  1  0  0  0  0
 26 29  2  0  0  0  0
 26 53  1  0  0  0  0
 28 30  2  0  0  0  0
 28 54  1  0  0  0  0
 29 30  1  0  0  0  0
 29 55  1  0  0  0  0
 31 32  1  0  0  0  0
 31 56  1  0  0  0  0
 31 57  1  0  0  0  0
 32 58  1  0  0  0  0
 32 59  1  0  0  0  0
 32 60  1  0  0  0  0
M  END
> <PUBCHEM_COMPOUND_CID>
25131829

> <PUBCHEM_COMPOUND_CANONICALIZED>
1

> <PUBCHEM_CACTVS_COMPLEXITY>
698

> <PUBCHEM_CACTVS_HBOND_ACCEPTOR>
7

> <PUBCHEM_CACTVS_HBOND_DONOR>
0

> <PUBCHEM_CACTVS_ROTATABLE_BOND>
7

> <PUBCHEM_CACTVS_SUBSKEYS>
AAADceB6OQAAAAAAAAAAAAAAAAAAASAAAAA8YIAAAAAAAEgBwAAAHwAAAAAADQThmA4yDIMABECIAqDSCAICCAAkIAAIiAFMCMgNJjaMtR6GOWCk4BGKqYe/7vzugAAAAAAAAACAAAIAABAAAAAAAAAAAA==

> <PUBCHEM_IUPAC_OPENEYE_NAME>
ethyl 6-[[4-(4-fluorobenzoyl)-1-piperidyl]methyl]-3-methyl-4-oxo-6,7-dihydro-5H-benzofuran-2-carboxylate

> <PUBCHEM_IUPAC_CAS_NAME>
6-[[4-[(4-fluorophenyl)-oxomethyl]-1-piperidinyl]methyl]-3-methyl-4-oxo-6,7-dihydro-5H-benzofuran-2-carboxylic acid ethyl ester

> <PUBCHEM_IUPAC_NAME_MARKUP>
ethyl 6-[[4-(4-fluorobenzoyl)piperidin-1-yl]methyl]-3-methyl-4-oxo-6,7-dihydro-5<I>H</I>-1-benzofuran-2-carboxylate

> <PUBCHEM_IUPAC_NAME>
ethyl 6-[[4-(4-fluorobenzoyl)piperidin-1-yl]methyl]-3-methyl-4-oxo-6,7-dihydro-5H-1-benzofuran-2-carboxylate

> <PUBCHEM_IUPAC_SYSTEMATIC_NAME>
ethyl 6-[[4-(4-fluorophenyl)carbonylpiperidin-1-yl]methyl]-3-methyl-4-oxidanylidene-6,7-dihydro-5H-1-benzofuran-2-carboxylate

> <PUBCHEM_IUPAC_TRADITIONAL_NAME>
6-[[4-(4-fluorobenzoyl)piperidino]methyl]-4-keto-3-methyl-6,7-dihydro-5H-benzofuran-2-carboxylic acid ethyl ester

> <PUBCHEM_IUPAC_INCHI>
InChI=1S/C25H28FNO5/c1-3-31-25(30)24-15(2)22-20(28)12-16(13-21(22)32-24)14-27-10-8-18(9-11-27)23(29)17-4-6-19(26)7-5-17/h4-7,16,18H,3,8-14H2,1-2H3

> <PUBCHEM_IUPAC_INCHIKEY>
AKMIHZSKBZGYES-UHFFFAOYSA-N

> <PUBCHEM_XLOGP3_AA>
3.9

> <PUBCHEM_EXACT_MASS>
441.19515116

> <PUBCHEM_MOLECULAR_FORMULA>
C25H28FNO5

> <PUBCHEM_MOLECULAR_WEIGHT>
441.5

> <PUBCHEM_OPENEYE_CAN_SMILES>
CCOC(=O)C1=C(C2=C(O1)CC(CC2=O)CN3CCC(CC3)C(=O)C4=CC=C(C=C4)F)C

> <PUBCHEM_OPENEYE_ISO_SMILES>
CCOC(=O)C1=C(C2=C(O1)CC(CC2=O)CN3CCC(CC3)C(=O)C4=CC=C(C=C4)F)C

> <PUBCHEM_CACTVS_TPSA>
76.8

> <PUBCHEM_MONOISOTOPIC_WEIGHT>
441.19515116

> <PUBCHEM_TOTAL_CHARGE>
0

> <PUBCHEM_HEAVY_ATOM_COUNT>
32

> <PUBCHEM_ATOM_DEF_STEREO_COUNT>
0

> <PUBCHEM_ATOM_UDEF_STEREO_COUNT>
1

> <PUBCHEM_BOND_DEF_STEREO_COUNT>
0

> <PUBCHEM_BOND_UDEF_STEREO_COUNT>
0

> <PUBCHEM_ISOTOPIC_ATOM_COUNT>
0

> <PUBCHEM_COMPONENT_COUNT>
1

> <PUBCHEM_CACTVS_TAUTO_COUNT>
-1

> <PUBCHEM_COORDINATE_TYPE>
1
5
255

> <PUBCHEM_BONDANNOTATIONS>
17  18  8
18  21  8
2  17  8
2  22  8
21  22  8
23  25  8
23  26  8
25  28  8
26  29  8
28  30  8
29  30  8
8  9  3

$$$$
