44415606
  -OEChem-09292322282D

 60 64  0     0  0  0  0  0  0999 V2000
    2.0000    1.1798    0.0000 Cl  0  0  0  0  0  0  0  0  0  0  0  0
    7.5695   -1.1473    0.0000 O   0  0  0  0  0  0  0  0  0  0  0  0
    4.9714   -4.6473    0.0000 O   0  0  0  0  0  0  0  0  0  0  0  0
    4.9036    2.9444    0.0000 N   0  0  0  0  0  0  0  0  0  0  0  0
    4.0358    4.7463    0.0000 N   0  0  0  0  0  0  0  0  0  0  0  0
    5.8374   -0.1473    0.0000 N   0  0  0  0  0  0  0  0  0  0  0  0
    6.3374    2.0434    0.0000 N   0  0  0  0  0  0  0  0  0  0  0  0
    5.8374   -1.1473    0.0000 N   0  0  0  0  0  0  0  0  0  0  0  0
    3.9064    3.0191    0.0000 C   0  0  0  0  0  0  0  0  0  0  0  0
    5.4669    3.7706    0.0000 C   0  0  0  0  0  0  0  0  0  0  0  0
    3.4725    3.9201    0.0000 C   0  0  0  0  0  0  0  0  0  0  0  0
    5.0330    4.6716    0.0000 C   0  0  0  0  0  0  0  0  0  0  0  0
    5.3374    2.0434    0.0000 C   0  0  0  0  0  0  0  0  0  0  0  0
    4.7139    1.2616    0.0000 C   0  0  0  0  0  0  0  0  0  0  0  0
    3.6019    5.6473    0.0000 C   0  0  0  0  0  0  0  0  0  0  0  0
    4.9364    0.2866    0.0000 C   0  0  0  0  0  0  0  0  0  0  0  0
    6.7384    0.2866    0.0000 C   0  0  0  0  0  0  0  0  0  0  0  0
    6.9609    1.2615    0.0000 C   0  0  0  0  0  0  0  0  0  0  0  0
    3.7234    1.5839    0.0000 C   0  0  0  0  0  0  0  0  0  0  0  0
    4.1839   -0.4336    0.0000 C   0  0  0  0  0  0  0  0  0  0  0  0
    2.9544    0.8813    0.0000 C   0  0  0  0  0  0  0  0  0  0  0  0
    7.4909   -0.4336    0.0000 C   0  0  0  0  0  0  0  0  0  0  0  0
    7.9514    1.5839    0.0000 C   0  0  0  0  0  0  0  0  0  0  0  0
    3.1862   -0.1342    0.0000 C   0  0  0  0  0  0  0  0  0  0  0  0
    8.4886   -0.1342    0.0000 C   0  0  0  0  0  0  0  0  0  0  0  0
    8.7204    0.8813    0.0000 C   0  0  0  0  0  0  0  0  0  0  0  0
    6.7034   -1.6473    0.0000 C   0  0  0  0  0  0  0  0  0  0  0  0
    6.7034   -2.6473    0.0000 C   0  0  0  0  0  0  0  0  0  0  0  0
    5.8374   -3.1473    0.0000 C   0  0  0  0  0  0  0  0  0  0  0  0
    7.5694   -3.1473    0.0000 C   0  0  0  0  0  0  0  0  0  0  0  0
    5.8374   -4.1473    0.0000 C   0  0  0  0  0  0  0  0  0  0  0  0
    7.5694   -4.1473    0.0000 C   0  0  0  0  0  0  0  0  0  0  0  0
    6.7034   -4.6473    0.0000 C   0  0  0  0  0  0  0  0  0  0  0  0
    4.9714   -5.6473    0.0000 C   0  0  0  0  0  0  0  0  0  0  0  0
    3.3095    2.8512    0.0000 H   0  0  0  0  0  0  0  0  0  0  0  0
    3.9681    2.4022    0.0000 H   0  0  0  0  0  0  0  0  0  0  0  0
    5.9107    3.3377    0.0000 H   0  0  0  0  0  0  0  0  0  0  0  0
    5.9703    4.1325    0.0000 H   0  0  0  0  0  0  0  0  0  0  0  0
    3.0286    4.3530    0.0000 H   0  0  0  0  0  0  0  0  0  0  0  0
    2.9691    3.5581    0.0000 H   0  0  0  0  0  0  0  0  0  0  0  0
    5.6298    4.8395    0.0000 H   0  0  0  0  0  0  0  0  0  0  0  0
    4.9713    5.2885    0.0000 H   0  0  0  0  0  0  0  0  0  0  0  0
    4.1605    5.9163    0.0000 H   0  0  0  0  0  0  0  0  0  0  0  0
    3.3329    6.2059    0.0000 H   0  0  0  0  0  0  0  0  0  0  0  0
    3.0433    5.3783    0.0000 H   0  0  0  0  0  0  0  0  0  0  0  0
    3.5925    2.1899    0.0000 H   0  0  0  0  0  0  0  0  0  0  0  0
    4.3288   -1.0364    0.0000 H   0  0  0  0  0  0  0  0  0  0  0  0
    7.3460   -1.0364    0.0000 H   0  0  0  0  0  0  0  0  0  0  0  0
    5.3005   -1.4573    0.0000 H   0  0  0  0  0  0  0  0  0  0  0  0
    8.0824    2.1899    0.0000 H   0  0  0  0  0  0  0  0  0  0  0  0
    2.7333   -0.5577    0.0000 H   0  0  0  0  0  0  0  0  0  0  0  0
    8.9415   -0.5577    0.0000 H   0  0  0  0  0  0  0  0  0  0  0  0
    9.3122    1.0663    0.0000 H   0  0  0  0  0  0  0  0  0  0  0  0
    5.3005   -2.8373    0.0000 H   0  0  0  0  0  0  0  0  0  0  0  0
    8.1064   -2.8373    0.0000 H   0  0  0  0  0  0  0  0  0  0  0  0
    8.1064   -4.4573    0.0000 H   0  0  0  0  0  0  0  0  0  0  0  0
    6.7034   -5.2673    0.0000 H   0  0  0  0  0  0  0  0  0  0  0  0
    4.3514   -5.6473    0.0000 H   0  0  0  0  0  0  0  0  0  0  0  0
    4.9714   -6.2673    0.0000 H   0  0  0  0  0  0  0  0  0  0  0  0
    5.5914   -5.6473    0.0000 H   0  0  0  0  0  0  0  0  0  0  0  0
  1 21  1  0  0  0  0
  2 27  2  0  0  0  0
  3 31  1  0  0  0  0
  3 34  1  0  0  0  0
  4  9  1  0  0  0  0
  4 10  1  0  0  0  0
  4 13  1  0  0  0  0
  5 11  1  0  0  0  0
  5 12  1  0  0  0  0
  5 15  1  0  0  0  0
  6  8  1  0  0  0  0
  6 16  1  0  0  0  0
  6 17  1  0  0  0  0
  7 13  2  0  0  0  0
  7 18  1  0  0  0  0
  8 27  1  0  0  0  0
  8 49  1  0  0  0  0
  9 11  1  0  0  0  0
  9 35  1  0  0  0  0
  9 36  1  0  0  0  0
 10 12  1  0  0  0  0
 10 37  1  0  0  0  0
 10 38  1  0  0  0  0
 11 39  1  0  0  0  0
 11 40  1  0  0  0  0
 12 41  1  0  0  0  0
 12 42  1  0  0  0  0
 13 14  1  0  0  0  0
 14 16  2  0  0  0  0
 14 19  1  0  0  0  0
 15 43  1  0  0  0  0
 15 44  1  0  0  0  0
 15 45  1  0  0  0  0
 16 20  1  0  0  0  0
 17 18  1  0  0  0  0
 17 22  2  0  0  0  0
 18 23  2  0  0  0  0
 19 21  2  0  0  0  0
 19 46  1  0  0  0  0
 20 24  2  0  0  0  0
 20 47  1  0  0  0  0
 21 24  1  0  0  0  0
 22 25  1  0  0  0  0
 22 48  1  0  0  0  0
 23 26  1  0  0  0  0
 23 50  1  0  0  0  0
 24 51  1  0  0  0  0
 25 26  2  0  0  0  0
 25 52  1  0  0  0  0
 26 53  1  0  0  0  0
 27 28  1  0  0  0  0
 28 29  2  0  0  0  0
 28 30  1  0  0  0  0
 29 31  1  0  0  0  0
 29 54  1  0  0  0  0
 30 32  2  0  0  0  0
 30 55  1  0  0  0  0
 31 33  2  0  0  0  0
 32 33  1  0  0  0  0
 32 56  1  0  0  0  0
 33 57  1  0  0  0  0
 34 58  1  0  0  0  0
 34 59  1  0  0  0  0
 34 60  1  0  0  0  0
M  END
> <PUBCHEM_COMPOUND_CID>
44415606

> <PUBCHEM_COMPOUND_CANONICALIZED>
1

> <PUBCHEM_CACTVS_COMPLEXITY>
743

> <PUBCHEM_CACTVS_HBOND_ACCEPTOR>
5

> <PUBCHEM_CACTVS_HBOND_DONOR>
1

> <PUBCHEM_CACTVS_ROTATABLE_BOND>
4

> <PUBCHEM_CACTVS_SUBSKEYS>
AAADceB7sAAEAAAAAAAAAAAAAAAAAAAAAAA8YMEABAAAAAABUAAAHgIYAAAADA7BmCYzxoNiBACoAidydACCDAElJwAbqAEuftgMZvLF/5uUMShkwBHI6Ye6yBCOAABBIAACACAAAIJAAAQAQAAAAAAAAA==

> <PUBCHEM_IUPAC_OPENEYE_NAME>
N-[8-chloro-6-(4-methylpiperazin-1-yl)benzo[b][1,4]benzodiazepin-11-yl]-3-methoxy-benzamide

> <PUBCHEM_IUPAC_CAS_NAME>
N-[8-chloro-6-(4-methyl-1-piperazinyl)-11-benzo[b][1,4]benzodiazepinyl]-3-methoxybenzamide

> <PUBCHEM_IUPAC_NAME_MARKUP>
<I>N</I>-[8-chloro-6-(4-methylpiperazin-1-yl)benzo[b][1,4]benzodiazepin-11-yl]-3-methoxybenzamide

> <PUBCHEM_IUPAC_NAME>
N-[8-chloro-6-(4-methylpiperazin-1-yl)benzo[b][1,4]benzodiazepin-11-yl]-3-methoxybenzamide

> <PUBCHEM_IUPAC_SYSTEMATIC_NAME>
N-[8-chloranyl-6-(4-methylpiperazin-1-yl)benzo[b][1,4]benzodiazepin-11-yl]-3-methoxy-benzamide

> <PUBCHEM_IUPAC_TRADITIONAL_NAME>
N-[8-chloro-6-(4-methylpiperazino)benzo[b][1,4]benzodiazepin-11-yl]-3-methoxy-benzamide

> <PUBCHEM_IUPAC_INCHI>
InChI=1S/C26H26ClN5O2/c1-30-12-14-31(15-13-30)25-21-17-19(27)10-11-23(21)32(24-9-4-3-8-22(24)28-25)29-26(33)18-6-5-7-20(16-18)34-2/h3-11,16-17H,12-15H2,1-2H3,(H,29,33)

> <PUBCHEM_IUPAC_INCHIKEY>
CHIWZHUPHKIHAQ-UHFFFAOYSA-N

> <PUBCHEM_XLOGP3_AA>
4.4

> <PUBCHEM_EXACT_MASS>
475.1775028

> <PUBCHEM_MOLECULAR_FORMULA>
C26H26ClN5O2

> <PUBCHEM_MOLECULAR_WEIGHT>
476.0

> <PUBCHEM_OPENEYE_CAN_SMILES>
CN1CCN(CC1)C2=NC3=CC=CC=C3N(C4=C2C=C(C=C4)Cl)NC(=O)C5=CC(=CC=C5)OC

> <PUBCHEM_OPENEYE_ISO_SMILES>
CN1CCN(CC1)C2=NC3=CC=CC=C3N(C4=C2C=C(C=C4)Cl)NC(=O)C5=CC(=CC=C5)OC

> <PUBCHEM_CACTVS_TPSA>
60.4

> <PUBCHEM_MONOISOTOPIC_WEIGHT>
475.1775028

> <PUBCHEM_TOTAL_CHARGE>
0

> <PUBCHEM_HEAVY_ATOM_COUNT>
34

> <PUBCHEM_ATOM_DEF_STEREO_COUNT>
0

> <PUBCHEM_ATOM_UDEF_STEREO_COUNT>
0

> <PUBCHEM_BOND_DEF_STEREO_COUNT>
0

> <PUBCHEM_BOND_UDEF_STEREO_COUNT>
0

> <PUBCHEM_ISOTOPIC_ATOM_COUNT>
0

> <PUBCHEM_COMPONENT_COUNT>
1

> <PUBCHEM_CACTVS_TAUTO_COUNT>
-1

> <PUBCHEM_COORDINATE_TYPE>
1
5
255

> <PUBCHEM_BONDANNOTATIONS>
14  16  8
14  19  8
16  20  8
17  18  8
17  22  8
18  23  8
19  21  8
20  24  8
21  24  8
22  25  8
23  26  8
25  26  8
28  29  8
28  30  8
29  31  8
30  32  8
31  33  8
32  33  8

$$$$
