44275604
  -OEChem-09292322122D

 45 47  0     1  0  0  0  0  0999 V2000
    2.0000   -1.2038    0.0000 O   0  0  0  0  0  0  0  0  0  0  0  0
    4.5878    1.2846    0.0000 N   0  0  0  0  0  0  0  0  0  0  0  0
    3.7218   -1.2154    0.0000 N   0  0  0  0  0  0  0  0  0  0  0  0
    4.5878    0.2846    0.0000 C   0  0  1  0  0  0  0  0  0  0  0  0
    3.7218   -0.2154    0.0000 C   0  0  0  0  0  0  0  0  0  0  0  0
    5.4538   -0.2154    0.0000 C   0  0  0  0  0  0  0  0  0  0  0  0
    5.4538   -1.2154    0.0000 C   0  0  0  0  0  0  0  0  0  0  0  0
    4.5878   -1.7154    0.0000 C   0  0  0  0  0  0  0  0  0  0  0  0
    5.4538    1.7846    0.0000 C   0  0  0  0  0  0  0  0  0  0  0  0
    3.7218    1.7846    0.0000 C   0  0  0  0  0  0  0  0  0  0  0  0
    4.5717   -2.7569    0.0000 C   0  0  0  0  0  0  0  0  0  0  0  0
    2.8623   -1.7101    0.0000 C   0  0  0  0  0  0  0  0  0  0  0  0
    6.3638   -1.7222    0.0000 C   0  0  0  0  0  0  0  0  0  0  0  0
    5.4538    2.7846    0.0000 C   0  0  0  0  0  0  0  0  0  0  0  0
    3.7218    2.7846    0.0000 C   0  0  0  0  0  0  0  0  0  0  0  0
    3.6946   -3.2196    0.0000 C   0  0  0  0  0  0  0  0  0  0  0  0
    5.4698   -3.2846    0.0000 C   0  0  0  0  0  0  0  0  0  0  0  0
    2.8489   -2.7018    0.0000 C   0  0  0  0  0  0  0  0  0  0  0  0
    6.3718   -2.7638    0.0000 C   0  0  0  0  0  0  0  0  0  0  0  0
    6.3198    3.2846    0.0000 C   0  0  0  0  0  0  0  0  0  0  0  0
    2.8557    3.2846    0.0000 C   0  0  0  0  0  0  0  0  0  0  0  0
    5.1247    0.5946    0.0000 H   0  0  0  0  0  0  0  0  0  0  0  0
    3.5097    0.3672    0.0000 H   0  0  0  0  0  0  0  0  0  0  0  0
    3.1112   -0.3230    0.0000 H   0  0  0  0  0  0  0  0  0  0  0  0
    6.0644   -0.3230    0.0000 H   0  0  0  0  0  0  0  0  0  0  0  0
    5.6659    0.3672    0.0000 H   0  0  0  0  0  0  0  0  0  0  0  0
    5.6659    1.2020    0.0000 H   0  0  0  0  0  0  0  0  0  0  0  0
    6.0644    1.8923    0.0000 H   0  0  0  0  0  0  0  0  0  0  0  0
    3.1112    1.8923    0.0000 H   0  0  0  0  0  0  0  0  0  0  0  0
    3.5097    1.2020    0.0000 H   0  0  0  0  0  0  0  0  0  0  0  0
    6.8971   -1.4060    0.0000 H   0  0  0  0  0  0  0  0  0  0  0  0
    5.2418    3.3672    0.0000 H   0  0  0  0  0  0  0  0  0  0  0  0
    4.8432    2.6770    0.0000 H   0  0  0  0  0  0  0  0  0  0  0  0
    4.3323    2.6770    0.0000 H   0  0  0  0  0  0  0  0  0  0  0  0
    3.9338    3.3672    0.0000 H   0  0  0  0  0  0  0  0  0  0  0  0
    3.6748   -3.8393    0.0000 H   0  0  0  0  0  0  0  0  0  0  0  0
    5.4674   -3.9046    0.0000 H   0  0  0  0  0  0  0  0  0  0  0  0
    2.3059   -3.0011    0.0000 H   0  0  0  0  0  0  0  0  0  0  0  0
    6.9100   -3.0717    0.0000 H   0  0  0  0  0  0  0  0  0  0  0  0
    6.6298    2.7477    0.0000 H   0  0  0  0  0  0  0  0  0  0  0  0
    6.8568    3.5946    0.0000 H   0  0  0  0  0  0  0  0  0  0  0  0
    6.0098    3.8216    0.0000 H   0  0  0  0  0  0  0  0  0  0  0  0
    3.1657    3.8216    0.0000 H   0  0  0  0  0  0  0  0  0  0  0  0
    2.3188    3.5946    0.0000 H   0  0  0  0  0  0  0  0  0  0  0  0
    2.5457    2.7477    0.0000 H   0  0  0  0  0  0  0  0  0  0  0  0
  1 12  2  0  0  0  0
  4  2  1  6  0  0  0
  2  9  1  0  0  0  0
  2 10  1  0  0  0  0
  3  5  1  0  0  0  0
  3  8  1  0  0  0  0
  3 12  1  0  0  0  0
  4  5  1  0  0  0  0
  4  6  1  0  0  0  0
  4 22  1  0  0  0  0
  5 23  1  0  0  0  0
  5 24  1  0  0  0  0
  6  7  1  0  0  0  0
  6 25  1  0  0  0  0
  6 26  1  0  0  0  0
  7  8  1  0  0  0  0
  7 13  2  0  0  0  0
  8 11  2  0  0  0  0
  9 14  1  0  0  0  0
  9 27  1  0  0  0  0
  9 28  1  0  0  0  0
 10 15  1  0  0  0  0
 10 29  1  0  0  0  0
 10 30  1  0  0  0  0
 11 16  1  0  0  0  0
 11 17  1  0  0  0  0
 12 18  1  0  0  0  0
 13 19  1  0  0  0  0
 13 31  1  0  0  0  0
 14 20  1  0  0  0  0
 14 32  1  0  0  0  0
 14 33  1  0  0  0  0
 15 21  1  0  0  0  0
 15 34  1  0  0  0  0
 15 35  1  0  0  0  0
 16 18  2  0  0  0  0
 16 36  1  0  0  0  0
 17 19  2  0  0  0  0
 17 37  1  0  0  0  0
 18 38  1  0  0  0  0
 19 39  1  0  0  0  0
 20 40  1  0  0  0  0
 20 41  1  0  0  0  0
 20 42  1  0  0  0  0
 21 43  1  0  0  0  0
 21 44  1  0  0  0  0
 21 45  1  0  0  0  0
M  END
> <PUBCHEM_COMPOUND_CID>
44275604

> <PUBCHEM_COMPOUND_CANONICALIZED>
1

> <PUBCHEM_CACTVS_COMPLEXITY>
400

> <PUBCHEM_CACTVS_HBOND_ACCEPTOR>
2

> <PUBCHEM_CACTVS_HBOND_DONOR>
0

> <PUBCHEM_CACTVS_ROTATABLE_BOND>
5

> <PUBCHEM_CACTVS_SUBSKEYS>
AAADceB7IAAAAAAAAAAAAAAAAAAAAAAAAAA8QIAAAAAAAACxAAAAHgAAAAAADCjBmAQywIMAAACIAiVSUACCAAAhAAAIiAAIRMgIYCLAkZGUIAhghgDIyYcQgMAOAAACAAACAAAAAAQAAAQAAAAAAAAAAA==

> <PUBCHEM_IUPAC_OPENEYE_NAME>
(11R)-11-(dipropylamino)-1-azatricyclo[7.3.1.05,13]trideca-3,5(13),6,8-tetraen-2-one

> <PUBCHEM_IUPAC_CAS_NAME>
(11R)-11-(dipropylamino)-1-azatricyclo[7.3.1.05,13]trideca-3,5(13),6,8-tetraen-2-one

> <PUBCHEM_IUPAC_NAME_MARKUP>
(11<I>R</I>)-11-(dipropylamino)-1-azatricyclo[7.3.1.0<SUP>5,13</SUP>]trideca-3,5(13),6,8-tetraen-2-one

> <PUBCHEM_IUPAC_NAME>
(11R)-11-(dipropylamino)-1-azatricyclo[7.3.1.05,13]trideca-3,5(13),6,8-tetraen-2-one

> <PUBCHEM_IUPAC_SYSTEMATIC_NAME>
(11R)-11-(dipropylamino)-1-azatricyclo[7.3.1.05,13]trideca-3,5(13),6,8-tetraen-2-one

> <PUBCHEM_IUPAC_TRADITIONAL_NAME>
(11R)-11-(dipropylamino)-1-azatricyclo[7.3.1.05,13]trideca-3,5(13),6,8-tetraen-2-one

> <PUBCHEM_IUPAC_INCHI>
InChI=1S/C18H24N2O/c1-3-10-19(11-4-2)16-12-15-7-5-6-14-8-9-17(21)20(13-16)18(14)15/h5-9,16H,3-4,10-13H2,1-2H3/t16-/m1/s1

> <PUBCHEM_IUPAC_INCHIKEY>
TZJYXVGLMBIOAB-MRXNPFEDSA-N

> <PUBCHEM_XLOGP3_AA>
3.4

> <PUBCHEM_EXACT_MASS>
284.188863393

> <PUBCHEM_MOLECULAR_FORMULA>
C18H24N2O

> <PUBCHEM_MOLECULAR_WEIGHT>
284.4

> <PUBCHEM_OPENEYE_CAN_SMILES>
CCCN(CCC)C1CC2=CC=CC3=C2N(C1)C(=O)C=C3

> <PUBCHEM_OPENEYE_ISO_SMILES>
CCCN(CCC)[C@@H]1CC2=CC=CC3=C2N(C1)C(=O)C=C3

> <PUBCHEM_CACTVS_TPSA>
23.6

> <PUBCHEM_MONOISOTOPIC_WEIGHT>
284.188863393

> <PUBCHEM_TOTAL_CHARGE>
0

> <PUBCHEM_HEAVY_ATOM_COUNT>
21

> <PUBCHEM_ATOM_DEF_STEREO_COUNT>
1

> <PUBCHEM_ATOM_UDEF_STEREO_COUNT>
0

> <PUBCHEM_BOND_DEF_STEREO_COUNT>
0

> <PUBCHEM_BOND_UDEF_STEREO_COUNT>
0

> <PUBCHEM_ISOTOPIC_ATOM_COUNT>
0

> <PUBCHEM_COMPONENT_COUNT>
1

> <PUBCHEM_CACTVS_TAUTO_COUNT>
-1

> <PUBCHEM_COORDINATE_TYPE>
1
5
255

> <PUBCHEM_BONDANNOTATIONS>
11  16  8
11  17  8
12  18  8
13  19  8
16  18  8
17  19  8
4  2  6
3  12  8
3  8  8
7  13  8
7  8  8
8  11  8

$$$$
