71562965
  -OEChem-09292322472D

 46 49  0     1  0  0  0  0  0999 V2000
    2.0000   -0.7190    0.0000 Cl  0  0  0  0  0  0  0  0  0  0  0  0
    5.5033    0.1335    0.0000 O   0  0  0  0  0  0  0  0  0  0  0  0
   11.3180    1.2899    0.0000 O   0  0  0  0  0  0  0  0  0  0  0  0
    7.8000   -1.7552    0.0000 N   0  0  3  0  0  0  0  0  0  0  0  0
    7.8000   -0.7552    0.0000 C   0  0  2  0  0  0  0  0  0  0  0  0
    6.0000   -0.7344    0.0000 C   0  0  2  0  0  0  0  0  0  0  0  0
    6.9060   -0.2206    0.0000 C   0  0  0  0  0  0  0  0  0  0  0  0
    6.0000   -1.7760    0.0000 C   0  0  0  0  0  0  0  0  0  0  0  0
    6.9060   -2.2899    0.0000 C   0  0  0  0  0  0  0  0  0  0  0  0
    8.6660   -2.2552    0.0000 C   0  0  0  0  0  0  0  0  0  0  0  0
    8.6660   -0.2552    0.0000 C   0  0  0  0  0  0  0  0  0  0  0  0
    9.5320   -1.7552    0.0000 C   0  0  0  0  0  0  0  0  0  0  0  0
    9.5320   -0.7552    0.0000 C   0  0  0  0  0  0  0  0  0  0  0  0
    5.0000   -0.7305    0.0000 C   0  0  0  0  0  0  0  0  0  0  0  0
    8.6500    0.7863    0.0000 C   0  0  0  0  0  0  0  0  0  0  0  0
   10.4420   -0.2484    0.0000 C   0  0  0  0  0  0  0  0  0  0  0  0
    4.4966   -1.5946    0.0000 C   0  0  0  0  0  0  0  0  0  0  0  0
    4.5033    0.1374    0.0000 C   0  0  0  0  0  0  0  0  0  0  0  0
    9.5480    1.3140    0.0000 C   0  0  0  0  0  0  0  0  0  0  0  0
   10.4501    0.7932    0.0000 C   0  0  0  0  0  0  0  0  0  0  0  0
    3.4966   -1.5908    0.0000 C   0  0  0  0  0  0  0  0  0  0  0  0
    3.5033    0.1413    0.0000 C   0  0  0  0  0  0  0  0  0  0  0  0
    3.0000   -0.7228    0.0000 C   0  0  0  0  0  0  0  0  0  0  0  0
   11.3219    2.2899    0.0000 C   0  0  0  0  0  0  0  0  0  0  0  0
    7.8065    0.0948    0.0000 H   0  0  0  0  0  0  0  0  0  0  0  0
    7.3106    0.2492    0.0000 H   0  0  0  0  0  0  0  0  0  0  0  0
    6.5124    0.2585    0.0000 H   0  0  0  0  0  0  0  0  0  0  0  0
    5.3891   -1.6699    0.0000 H   0  0  0  0  0  0  0  0  0  0  0  0
    5.7909   -2.3597    0.0000 H   0  0  0  0  0  0  0  0  0  0  0  0
    6.5124   -2.7689    0.0000 H   0  0  0  0  0  0  0  0  0  0  0  0
    7.3106   -2.7597    0.0000 H   0  0  0  0  0  0  0  0  0  0  0  0
    8.2675   -2.7302    0.0000 H   0  0  0  0  0  0  0  0  0  0  0  0
    9.0645   -2.7302    0.0000 H   0  0  0  0  0  0  0  0  0  0  0  0
    9.7441   -2.3378    0.0000 H   0  0  0  0  0  0  0  0  0  0  0  0
   10.1426   -1.6476    0.0000 H   0  0  0  0  0  0  0  0  0  0  0  0
    8.1095    1.0901    0.0000 H   0  0  0  0  0  0  0  0  0  0  0  0
    5.8154    0.6693    0.0000 H   0  0  0  0  0  0  0  0  0  0  0  0
   10.9753   -0.5646    0.0000 H   0  0  0  0  0  0  0  0  0  0  0  0
    4.8046   -2.1328    0.0000 H   0  0  0  0  0  0  0  0  0  0  0  0
    4.8154    0.6731    0.0000 H   0  0  0  0  0  0  0  0  0  0  0  0
    9.5456    1.9340    0.0000 H   0  0  0  0  0  0  0  0  0  0  0  0
    3.1846   -2.1265    0.0000 H   0  0  0  0  0  0  0  0  0  0  0  0
    3.1954    0.6794    0.0000 H   0  0  0  0  0  0  0  0  0  0  0  0
   11.9419    2.2875    0.0000 H   0  0  0  0  0  0  0  0  0  0  0  0
   11.3243    2.9099    0.0000 H   0  0  0  0  0  0  0  0  0  0  0  0
   10.7019    2.2923    0.0000 H   0  0  0  0  0  0  0  0  0  0  0  0
  1 23  1  0  0  0  0
  6  2  1  6  0  0  0
  2 37  1  0  0  0  0
  3 20  1  0  0  0  0
  3 24  1  0  0  0  0
  4  5  1  0  0  0  0
  4  9  1  0  0  0  0
  4 10  1  0  0  0  0
  5  7  1  0  0  0  0
  5 11  1  0  0  0  0
  5 25  1  1  0  0  0
  6  7  1  0  0  0  0
  6  8  1  0  0  0  0
  6 14  1  0  0  0  0
  7 26  1  0  0  0  0
  7 27  1  0  0  0  0
  8  9  1  0  0  0  0
  8 28  1  0  0  0  0
  8 29  1  0  0  0  0
  9 30  1  0  0  0  0
  9 31  1  0  0  0  0
 10 12  1  0  0  0  0
 10 32  1  0  0  0  0
 10 33  1  0  0  0  0
 11 13  2  0  0  0  0
 11 15  1  0  0  0  0
 12 13  1  0  0  0  0
 12 34  1  0  0  0  0
 12 35  1  0  0  0  0
 13 16  1  0  0  0  0
 14 17  2  0  0  0  0
 14 18  1  0  0  0  0
 15 19  2  0  0  0  0
 15 36  1  0  0  0  0
 16 20  2  0  0  0  0
 16 38  1  0  0  0  0
 17 21  1  0  0  0  0
 17 39  1  0  0  0  0
 18 22  2  0  0  0  0
 18 40  1  0  0  0  0
 19 20  1  0  0  0  0
 19 41  1  0  0  0  0
 21 23  2  0  0  0  0
 21 42  1  0  0  0  0
 22 23  1  0  0  0  0
 22 43  1  0  0  0  0
 24 44  1  0  0  0  0
 24 45  1  0  0  0  0
 24 46  1  0  0  0  0
M  END
> <PUBCHEM_COMPOUND_CID>
71562965

> <PUBCHEM_COMPOUND_CANONICALIZED>
1

> <PUBCHEM_CACTVS_COMPLEXITY>
439

> <PUBCHEM_CACTVS_HBOND_ACCEPTOR>
3

> <PUBCHEM_CACTVS_HBOND_DONOR>
1

> <PUBCHEM_CACTVS_ROTATABLE_BOND>
2

> <PUBCHEM_CACTVS_SUBSKEYS>
AAADceB6MAAEAAAAAAAAAAAAAAAAAAAAAAA8eIEAAAAAAACxQAAAHgIACAAADG7BmCYyBoMABgCAAiBCAACCCAAgJQAIiAAODogMJiKFsxuEcChmwBGIuAeQ0PMOpAABAAAQAABIAAIAACAAAAAAAAAAAA==

> <PUBCHEM_IUPAC_OPENEYE_NAME>
(2S,11bR)-2-(4-chlorophenyl)-9-methoxy-1,3,4,6,7,11b-hexahydrobenzo[a]quinolizin-2-ol

> <PUBCHEM_IUPAC_CAS_NAME>
(2S,11bR)-2-(4-chlorophenyl)-9-methoxy-1,3,4,6,7,11b-hexahydrobenzo[a]quinolizin-2-ol

> <PUBCHEM_IUPAC_NAME_MARKUP>
(2<I>S</I>,11<I>b</I><I>R</I>)-2-(4-chlorophenyl)-9-methoxy-1,3,4,6,7,11<I>b</I>-hexahydrobenzo[a]quinolizin-2-ol

> <PUBCHEM_IUPAC_NAME>
(2S,11bR)-2-(4-chlorophenyl)-9-methoxy-1,3,4,6,7,11b-hexahydrobenzo[a]quinolizin-2-ol

> <PUBCHEM_IUPAC_SYSTEMATIC_NAME>
(2S,11bR)-2-(4-chlorophenyl)-9-methoxy-1,3,4,6,7,11b-hexahydrobenzo[a]quinolizin-2-ol

> <PUBCHEM_IUPAC_TRADITIONAL_NAME>
(2S,11bR)-2-(4-chlorophenyl)-9-methoxy-1,3,4,6,7,11b-hexahydrobenzo[a]quinolizin-2-ol

> <PUBCHEM_IUPAC_INCHI>
InChI=1S/C20H22ClNO2/c1-24-17-6-7-18-14(12-17)8-10-22-11-9-20(23,13-19(18)22)15-2-4-16(21)5-3-15/h2-7,12,19,23H,8-11,13H2,1H3/t19-,20+/m1/s1

> <PUBCHEM_IUPAC_INCHIKEY>
BZGKXGFGDBPNAC-UXHICEINSA-N

> <PUBCHEM_XLOGP3_AA>
3.6

> <PUBCHEM_EXACT_MASS>
343.1339066

> <PUBCHEM_MOLECULAR_FORMULA>
C20H22ClNO2

> <PUBCHEM_MOLECULAR_WEIGHT>
343.8

> <PUBCHEM_OPENEYE_CAN_SMILES>
COC1=CC2=C(C=C1)C3CC(CCN3CC2)(C4=CC=C(C=C4)Cl)O

> <PUBCHEM_OPENEYE_ISO_SMILES>
COC1=CC2=C(C=C1)[C@H]3C[C@@](CCN3CC2)(C4=CC=C(C=C4)Cl)O

> <PUBCHEM_CACTVS_TPSA>
32.7

> <PUBCHEM_MONOISOTOPIC_WEIGHT>
343.1339066

> <PUBCHEM_TOTAL_CHARGE>
0

> <PUBCHEM_HEAVY_ATOM_COUNT>
24

> <PUBCHEM_ATOM_DEF_STEREO_COUNT>
2

> <PUBCHEM_ATOM_UDEF_STEREO_COUNT>
0

> <PUBCHEM_BOND_DEF_STEREO_COUNT>
0

> <PUBCHEM_BOND_UDEF_STEREO_COUNT>
0

> <PUBCHEM_ISOTOPIC_ATOM_COUNT>
0

> <PUBCHEM_COMPONENT_COUNT>
1

> <PUBCHEM_CACTVS_TAUTO_COUNT>
-1

> <PUBCHEM_COORDINATE_TYPE>
1
5
255

> <PUBCHEM_BONDANNOTATIONS>
11  13  8
11  15  8
13  16  8
14  17  8
14  18  8
15  19  8
16  20  8
17  21  8
18  22  8
19  20  8
6  2  6
21  23  8
22  23  8
5  25  5

$$$$
