24900750
  -OEChem-09292322042D

 63 66  0     1  0  0  0  0  0999 V2000
   15.0706   -1.5403    0.0000 S   0  0  0  0  0  0  0  0  0  0  0  0
   14.1244    0.1550    0.0000 O   0  0  0  0  0  0  0  0  0  0  0  0
   13.2583   -4.3450    0.0000 O   0  0  0  0  0  0  0  0  0  0  0  0
   16.6542   -2.3450    0.0000 O   0  0  0  0  0  0  0  0  0  0  0  0
    2.8660    4.6550    0.0000 O   0  0  0  0  0  0  0  0  0  0  0  0
   12.3923    1.1550    0.0000 N   0  0  0  0  0  0  0  0  0  0  0  0
   15.0706   -3.1497    0.0000 N   0  0  0  0  0  0  0  0  0  0  0  0
    7.1962    3.1550    0.0000 N   0  0  0  0  0  0  0  0  0  0  0  0
   13.2583   -0.3450    0.0000 C   0  0  1  0  0  0  0  0  0  0  0  0
   12.3923    0.1550    0.0000 C   0  0  0  0  0  0  0  0  0  0  0  0
   13.2583   -1.3450    0.0000 C   0  0  0  0  0  0  0  0  0  0  0  0
   11.5263    1.6550    0.0000 C   0  0  0  0  0  0  0  0  0  0  0  0
   11.5263    2.6550    0.0000 C   0  0  0  0  0  0  0  0  0  0  0  0
   14.1244   -1.8450    0.0000 C   0  0  0  0  0  0  0  0  0  0  0  0
   10.6603    3.1550    0.0000 C   0  0  0  0  0  0  0  0  0  0  0  0
   14.1244   -2.8450    0.0000 C   0  0  0  0  0  0  0  0  0  0  0  0
   12.3923   -1.8450    0.0000 C   0  0  0  0  0  0  0  0  0  0  0  0
    8.9282    3.1550    0.0000 C   0  0  0  0  0  0  0  0  0  0  0  0
    9.7942    2.6550    0.0000 C   0  0  0  0  0  0  0  0  0  0  0  0
    8.0622    2.6550    0.0000 C   0  0  0  0  0  0  0  0  0  0  0  0
   13.2583   -3.3450    0.0000 C   0  0  0  0  0  0  0  0  0  0  0  0
   10.6603    4.1550    0.0000 C   0  0  0  0  0  0  0  0  0  0  0  0
   12.3923   -2.8450    0.0000 C   0  0  0  0  0  0  0  0  0  0  0  0
    8.9282    4.1550    0.0000 C   0  0  0  0  0  0  0  0  0  0  0  0
    9.7942    4.6550    0.0000 C   0  0  0  0  0  0  0  0  0  0  0  0
   15.6542   -2.3450    0.0000 C   0  0  0  0  0  0  0  0  0  0  0  0
    6.3301    2.6550    0.0000 C   0  0  0  0  0  0  0  0  0  0  0  0
    5.4641    3.1550    0.0000 C   0  0  0  0  0  0  0  0  0  0  0  0
    4.5981    2.6550    0.0000 C   0  0  0  0  0  0  0  0  0  0  0  0
    5.4641    4.1550    0.0000 C   0  0  0  0  0  0  0  0  0  0  0  0
    3.7320    3.1550    0.0000 C   0  0  0  0  0  0  0  0  0  0  0  0
    4.5981    4.6550    0.0000 C   0  0  0  0  0  0  0  0  0  0  0  0
    3.7320    4.1550    0.0000 C   0  0  0  0  0  0  0  0  0  0  0  0
    2.0000    4.1550    0.0000 C   0  0  0  0  0  0  0  0  0  0  0  0
   13.7953   -0.6550    0.0000 H   0  0  0  0  0  0  0  0  0  0  0  0
   11.7817    0.2627    0.0000 H   0  0  0  0  0  0  0  0  0  0  0  0
   12.1803   -0.4276    0.0000 H   0  0  0  0  0  0  0  0  0  0  0  0
   10.9157    1.7627    0.0000 H   0  0  0  0  0  0  0  0  0  0  0  0
   11.3142    1.0724    0.0000 H   0  0  0  0  0  0  0  0  0  0  0  0
   12.1369    2.5473    0.0000 H   0  0  0  0  0  0  0  0  0  0  0  0
   11.7383    3.2376    0.0000 H   0  0  0  0  0  0  0  0  0  0  0  0
   12.9292    1.4650    0.0000 H   0  0  0  0  0  0  0  0  0  0  0  0
   11.8554   -1.5350    0.0000 H   0  0  0  0  0  0  0  0  0  0  0  0
    9.7942    2.0350    0.0000 H   0  0  0  0  0  0  0  0  0  0  0  0
    7.6636    2.1800    0.0000 H   0  0  0  0  0  0  0  0  0  0  0  0
    8.4607    2.1800    0.0000 H   0  0  0  0  0  0  0  0  0  0  0  0
   11.1972    4.4650    0.0000 H   0  0  0  0  0  0  0  0  0  0  0  0
   11.8554   -3.1550    0.0000 H   0  0  0  0  0  0  0  0  0  0  0  0
   15.2632   -3.7390    0.0000 H   0  0  0  0  0  0  0  0  0  0  0  0
    8.3913    4.4650    0.0000 H   0  0  0  0  0  0  0  0  0  0  0  0
   14.1244    0.7750    0.0000 H   0  0  0  0  0  0  0  0  0  0  0  0
    9.7942    5.2750    0.0000 H   0  0  0  0  0  0  0  0  0  0  0  0
    7.1962    3.7750    0.0000 H   0  0  0  0  0  0  0  0  0  0  0  0
    5.9316    2.1800    0.0000 H   0  0  0  0  0  0  0  0  0  0  0  0
    6.7287    2.1800    0.0000 H   0  0  0  0  0  0  0  0  0  0  0  0
   12.7214   -4.6550    0.0000 H   0  0  0  0  0  0  0  0  0  0  0  0
    4.5981    2.0350    0.0000 H   0  0  0  0  0  0  0  0  0  0  0  0
    6.0010    4.4650    0.0000 H   0  0  0  0  0  0  0  0  0  0  0  0
    3.1951    2.8450    0.0000 H   0  0  0  0  0  0  0  0  0  0  0  0
    4.5981    5.2750    0.0000 H   0  0  0  0  0  0  0  0  0  0  0  0
    1.6900    4.6919    0.0000 H   0  0  0  0  0  0  0  0  0  0  0  0
    1.4631    3.8450    0.0000 H   0  0  0  0  0  0  0  0  0  0  0  0
    2.3100    3.6181    0.0000 H   0  0  0  0  0  0  0  0  0  0  0  0
  1 14  1  0  0  0  0
  1 26  1  0  0  0  0
  9  2  1  6  0  0  0
  2 51  1  0  0  0  0
  3 21  1  0  0  0  0
  3 56  1  0  0  0  0
  4 26  2  0  0  0  0
  5 33  1  0  0  0  0
  5 34  1  0  0  0  0
  6 10  1  0  0  0  0
  6 12  1  0  0  0  0
  6 42  1  0  0  0  0
  7 16  1  0  0  0  0
  7 26  1  0  0  0  0
  7 49  1  0  0  0  0
  8 20  1  0  0  0  0
  8 27  1  0  0  0  0
  8 53  1  0  0  0  0
  9 10  1  0  0  0  0
  9 11  1  0  0  0  0
  9 35  1  0  0  0  0
 10 36  1  0  0  0  0
 10 37  1  0  0  0  0
 11 14  2  0  0  0  0
 11 17  1  0  0  0  0
 12 13  1  0  0  0  0
 12 38  1  0  0  0  0
 12 39  1  0  0  0  0
 13 15  1  0  0  0  0
 13 40  1  0  0  0  0
 13 41  1  0  0  0  0
 14 16  1  0  0  0  0
 15 19  2  0  0  0  0
 15 22  1  0  0  0  0
 16 21  2  0  0  0  0
 17 23  2  0  0  0  0
 17 43  1  0  0  0  0
 18 19  1  0  0  0  0
 18 20  1  0  0  0  0
 18 24  2  0  0  0  0
 19 44  1  0  0  0  0
 20 45  1  0  0  0  0
 20 46  1  0  0  0  0
 21 23  1  0  0  0  0
 22 25  2  0  0  0  0
 22 47  1  0  0  0  0
 23 48  1  0  0  0  0
 24 25  1  0  0  0  0
 24 50  1  0  0  0  0
 25 52  1  0  0  0  0
 27 28  1  0  0  0  0
 27 54  1  0  0  0  0
 27 55  1  0  0  0  0
 28 29  2  0  0  0  0
 28 30  1  0  0  0  0
 29 31  1  0  0  0  0
 29 57  1  0  0  0  0
 30 32  2  0  0  0  0
 30 58  1  0  0  0  0
 31 33  2  0  0  0  0
 31 59  1  0  0  0  0
 32 33  1  0  0  0  0
 32 60  1  0  0  0  0
 34 61  1  0  0  0  0
 34 62  1  0  0  0  0
 34 63  1  0  0  0  0
M  END
> <PUBCHEM_COMPOUND_CID>
24900750

> <PUBCHEM_COMPOUND_CANONICALIZED>
1

> <PUBCHEM_CACTVS_COMPLEXITY>
633

> <PUBCHEM_CACTVS_HBOND_ACCEPTOR>
7

> <PUBCHEM_CACTVS_HBOND_DONOR>
5

> <PUBCHEM_CACTVS_ROTATABLE_BOND>
11

> <PUBCHEM_CACTVS_SUBSKEYS>
AAADceB7OABAAAAAAAAAAAAAAAAAAWAAAAAwYMAAAAAAAFgBUAAAHgQQCAAADBzh2AYyx4LABgiIAiRCUACCCABhKBAIiJQPTIgONiL2sZuEcChk1BHY+Aew8OYOIAACRAAEEQBAAASIAAgiAAAAAAAAAA==

> <PUBCHEM_IUPAC_OPENEYE_NAME>
4-hydroxy-7-[(1R)-1-hydroxy-2-[2-[3-[[(4-methoxyphenyl)methylamino]methyl]phenyl]ethylamino]ethyl]-3H-1,3-benzothiazol-2-one

> <PUBCHEM_IUPAC_CAS_NAME>
4-hydroxy-7-[(1R)-1-hydroxy-2-[2-[3-[[(4-methoxyphenyl)methylamino]methyl]phenyl]ethylamino]ethyl]-3H-1,3-benzothiazol-2-one

> <PUBCHEM_IUPAC_NAME_MARKUP>
4-hydroxy-7-[(1<I>R</I>)-1-hydroxy-2-[2-[3-[[(4-methoxyphenyl)methylamino]methyl]phenyl]ethylamino]ethyl]-3<I>H</I>-1,3-benzothiazol-2-one

> <PUBCHEM_IUPAC_NAME>
4-hydroxy-7-[(1R)-1-hydroxy-2-[2-[3-[[(4-methoxyphenyl)methylamino]methyl]phenyl]ethylamino]ethyl]-3H-1,3-benzothiazol-2-one

> <PUBCHEM_IUPAC_SYSTEMATIC_NAME>
7-[(1R)-2-[2-[3-[[(4-methoxyphenyl)methylamino]methyl]phenyl]ethylamino]-1-oxidanyl-ethyl]-4-oxidanyl-3H-1,3-benzothiazol-2-one

> <PUBCHEM_IUPAC_TRADITIONAL_NAME>
4-hydroxy-7-[(1R)-1-hydroxy-2-[2-[3-[(p-anisylamino)methyl]phenyl]ethylamino]ethyl]-3H-1,3-benzothiazol-2-one

> <PUBCHEM_IUPAC_INCHI>
InChI=1S/C26H29N3O4S/c1-33-20-7-5-18(6-8-20)14-28-15-19-4-2-3-17(13-19)11-12-27-16-23(31)21-9-10-22(30)24-25(21)34-26(32)29-24/h2-10,13,23,27-28,30-31H,11-12,14-16H2,1H3,(H,29,32)/t23-/m0/s1

> <PUBCHEM_IUPAC_INCHIKEY>
BSOHYTBASIBPHA-QHCPKHFHSA-N

> <PUBCHEM_XLOGP3_AA>
2.8

> <PUBCHEM_EXACT_MASS>
479.18787759

> <PUBCHEM_MOLECULAR_FORMULA>
C26H29N3O4S

> <PUBCHEM_MOLECULAR_WEIGHT>
479.6

> <PUBCHEM_OPENEYE_CAN_SMILES>
COC1=CC=C(C=C1)CNCC2=CC=CC(=C2)CCNCC(C3=C4C(=C(C=C3)O)NC(=O)S4)O

> <PUBCHEM_OPENEYE_ISO_SMILES>
COC1=CC=C(C=C1)CNCC2=CC=CC(=C2)CCNC[C@@H](C3=C4C(=C(C=C3)O)NC(=O)S4)O

> <PUBCHEM_CACTVS_TPSA>
128

> <PUBCHEM_MONOISOTOPIC_WEIGHT>
479.18787759

> <PUBCHEM_TOTAL_CHARGE>
0

> <PUBCHEM_HEAVY_ATOM_COUNT>
34

> <PUBCHEM_ATOM_DEF_STEREO_COUNT>
1

> <PUBCHEM_ATOM_UDEF_STEREO_COUNT>
0

> <PUBCHEM_BOND_DEF_STEREO_COUNT>
0

> <PUBCHEM_BOND_UDEF_STEREO_COUNT>
0

> <PUBCHEM_ISOTOPIC_ATOM_COUNT>
0

> <PUBCHEM_COMPONENT_COUNT>
1

> <PUBCHEM_CACTVS_TAUTO_COUNT>
-1

> <PUBCHEM_COORDINATE_TYPE>
1
5
255

> <PUBCHEM_BONDANNOTATIONS>
1  14  8
1  26  8
11  14  8
11  17  8
14  16  8
15  19  8
15  22  8
16  21  8
17  23  8
18  19  8
18  24  8
9  2  6
21  23  8
22  25  8
24  25  8
28  29  8
28  30  8
29  31  8
30  32  8
31  33  8
32  33  8
7  16  8
7  26  8

$$$$
