44447007
  -OEChem-09292322262D

 64 68  0     1  0  0  0  0  0999 V2000
    3.7899    2.3490    0.0000 S   0  0  0  0  0  0  0  0  0  0  0  0
   14.6962   -0.1318    0.0000 O   0  0  0  0  0  0  0  0  0  0  0  0
    7.4629   -0.3490    0.0000 N   0  0  0  0  0  0  0  0  0  0  0  0
    5.7308    0.6510    0.0000 N   0  0  0  0  0  0  0  0  0  0  0  0
   13.0499    0.4063    0.0000 N   0  0  0  0  0  0  0  0  0  0  0  0
    4.7617    2.1398    0.0000 N   0  0  0  0  0  0  0  0  0  0  0  0
   12.7392   -0.5442    0.0000 C   0  0  3  0  0  0  0  0  0  0  0  0
   13.3228   -1.3490    0.0000 C   0  0  0  0  0  0  0  0  0  0  0  0
   11.7930   -0.8490    0.0000 C   0  0  0  0  0  0  0  0  0  0  0  0
   12.7392   -2.1537    0.0000 C   0  0  0  0  0  0  0  0  0  0  0  0
   11.7930   -1.8490    0.0000 C   0  0  0  0  0  0  0  0  0  0  0  0
    8.3289   -0.8490    0.0000 C   0  0  0  0  0  0  0  0  0  0  0  0
    7.4629    0.6510    0.0000 C   0  0  0  0  0  0  0  0  0  0  0  0
    6.5968   -0.8490    0.0000 C   0  0  0  0  0  0  0  0  0  0  0  0
    9.1949   -0.3490    0.0000 C   0  0  0  0  0  0  0  0  0  0  0  0
    6.5968    1.1510    0.0000 C   0  0  0  0  0  0  0  0  0  0  0  0
    5.7308   -0.3490    0.0000 C   0  0  0  0  0  0  0  0  0  0  0  0
   10.0610   -0.8490    0.0000 C   0  0  0  0  0  0  0  0  0  0  0  0
   10.9270   -0.3490    0.0000 C   0  0  0  0  0  0  0  0  0  0  0  0
   10.9270   -2.3490    0.0000 C   0  0  0  0  0  0  0  0  0  0  0  0
   10.0610   -1.8490    0.0000 C   0  0  0  0  0  0  0  0  0  0  0  0
    4.8648    1.1510    0.0000 C   0  0  0  0  0  0  0  0  0  0  0  0
   14.0284    0.6125    0.0000 C   0  0  0  0  0  0  0  0  0  0  0  0
   14.3391    1.5630    0.0000 C   0  0  0  0  0  0  0  0  0  0  0  0
    3.9570    0.7459    0.0000 C   0  0  0  0  0  0  0  0  0  0  0  0
    3.2892    1.4902    0.0000 C   0  0  0  0  0  0  0  0  0  0  0  0
   15.3176    1.7692    0.0000 C   0  0  0  0  0  0  0  0  0  0  0  0
   13.6712    2.3073    0.0000 C   0  0  0  0  0  0  0  0  0  0  0  0
    3.6464   -0.2046    0.0000 C   0  0  0  0  0  0  0  0  0  0  0  0
    2.3107    1.2840    0.0000 C   0  0  0  0  0  0  0  0  0  0  0  0
    2.6678   -0.4108    0.0000 C   0  0  0  0  0  0  0  0  0  0  0  0
    2.0000    0.3335    0.0000 C   0  0  0  0  0  0  0  0  0  0  0  0
   13.3517   -0.4480    0.0000 H   0  0  0  0  0  0  0  0  0  0  0  0
   13.7837   -1.7637    0.0000 H   0  0  0  0  0  0  0  0  0  0  0  0
   13.7837   -0.9342    0.0000 H   0  0  0  0  0  0  0  0  0  0  0  0
   12.4882   -2.7206    0.0000 H   0  0  0  0  0  0  0  0  0  0  0  0
   13.2766   -2.4629    0.0000 H   0  0  0  0  0  0  0  0  0  0  0  0
    7.9304   -1.3239    0.0000 H   0  0  0  0  0  0  0  0  0  0  0  0
    8.7274   -1.3239    0.0000 H   0  0  0  0  0  0  0  0  0  0  0  0
    8.0734    0.5434    0.0000 H   0  0  0  0  0  0  0  0  0  0  0  0
    7.6749    1.2336    0.0000 H   0  0  0  0  0  0  0  0  0  0  0  0
    6.1983   -1.3239    0.0000 H   0  0  0  0  0  0  0  0  0  0  0  0
    6.9954   -1.3239    0.0000 H   0  0  0  0  0  0  0  0  0  0  0  0
    9.5934    0.1260    0.0000 H   0  0  0  0  0  0  0  0  0  0  0  0
    8.7964    0.1260    0.0000 H   0  0  0  0  0  0  0  0  0  0  0  0
    6.9954    1.6260    0.0000 H   0  0  0  0  0  0  0  0  0  0  0  0
    6.1983    1.6260    0.0000 H   0  0  0  0  0  0  0  0  0  0  0  0
    5.1202   -0.2413    0.0000 H   0  0  0  0  0  0  0  0  0  0  0  0
    5.5188   -0.9316    0.0000 H   0  0  0  0  0  0  0  0  0  0  0  0
   10.9270    0.2710    0.0000 H   0  0  0  0  0  0  0  0  0  0  0  0
   10.9270   -2.9690    0.0000 H   0  0  0  0  0  0  0  0  0  0  0  0
   12.6358    0.8678    0.0000 H   0  0  0  0  0  0  0  0  0  0  0  0
    9.5240   -2.1590    0.0000 H   0  0  0  0  0  0  0  0  0  0  0  0
   14.7531    1.1016    0.0000 H   0  0  0  0  0  0  0  0  0  0  0  0
   15.4454    1.1626    0.0000 H   0  0  0  0  0  0  0  0  0  0  0  0
   15.9242    1.8971    0.0000 H   0  0  0  0  0  0  0  0  0  0  0  0
   15.1897    2.3759    0.0000 H   0  0  0  0  0  0  0  0  0  0  0  0
   14.1327    2.7214    0.0000 H   0  0  0  0  0  0  0  0  0  0  0  0
   13.2571    2.7688    0.0000 H   0  0  0  0  0  0  0  0  0  0  0  0
   13.2097    1.8933    0.0000 H   0  0  0  0  0  0  0  0  0  0  0  0
    4.0604   -0.6661    0.0000 H   0  0  0  0  0  0  0  0  0  0  0  0
    1.8966    1.7455    0.0000 H   0  0  0  0  0  0  0  0  0  0  0  0
    2.4752   -1.0001    0.0000 H   0  0  0  0  0  0  0  0  0  0  0  0
    1.3933    0.2056    0.0000 H   0  0  0  0  0  0  0  0  0  0  0  0
  1  6  1  0  0  0  0
  1 26  1  0  0  0  0
  2 23  2  0  0  0  0
  3 12  1  0  0  0  0
  3 13  1  0  0  0  0
  3 14  1  0  0  0  0
  4 16  1  0  0  0  0
  4 17  1  0  0  0  0
  4 22  1  0  0  0  0
  5  7  1  0  0  0  0
  5 23  1  0  0  0  0
  5 52  1  0  0  0  0
  6 22  2  0  0  0  0
  7  8  1  0  0  0  0
  7  9  1  0  0  0  0
  7 33  1  0  0  0  0
  8 10  1  0  0  0  0
  8 34  1  0  0  0  0
  8 35  1  0  0  0  0
  9 11  2  0  0  0  0
  9 19  1  0  0  0  0
 10 11  1  0  0  0  0
 10 36  1  0  0  0  0
 10 37  1  0  0  0  0
 11 20  1  0  0  0  0
 12 15  1  0  0  0  0
 12 38  1  0  0  0  0
 12 39  1  0  0  0  0
 13 16  1  0  0  0  0
 13 40  1  0  0  0  0
 13 41  1  0  0  0  0
 14 17  1  0  0  0  0
 14 42  1  0  0  0  0
 14 43  1  0  0  0  0
 15 18  1  0  0  0  0
 15 44  1  0  0  0  0
 15 45  1  0  0  0  0
 16 46  1  0  0  0  0
 16 47  1  0  0  0  0
 17 48  1  0  0  0  0
 17 49  1  0  0  0  0
 18 19  2  0  0  0  0
 18 21  1  0  0  0  0
 19 50  1  0  0  0  0
 20 21  2  0  0  0  0
 20 51  1  0  0  0  0
 21 53  1  0  0  0  0
 22 25  1  0  0  0  0
 23 24  1  0  0  0  0
 24 27  1  0  0  0  0
 24 28  1  0  0  0  0
 24 54  1  0  0  0  0
 25 26  1  0  0  0  0
 25 29  2  0  0  0  0
 26 30  2  0  0  0  0
 27 55  1  0  0  0  0
 27 56  1  0  0  0  0
 27 57  1  0  0  0  0
 28 58  1  0  0  0  0
 28 59  1  0  0  0  0
 28 60  1  0  0  0  0
 29 31  1  0  0  0  0
 29 61  1  0  0  0  0
 30 32  1  0  0  0  0
 30 62  1  0  0  0  0
 31 32  2  0  0  0  0
 31 63  1  0  0  0  0
 32 64  1  0  0  0  0
M  END
> <PUBCHEM_COMPOUND_CID>
44447007

> <PUBCHEM_COMPOUND_CANONICALIZED>
1

> <PUBCHEM_CACTVS_COMPLEXITY>
637

> <PUBCHEM_CACTVS_HBOND_ACCEPTOR>
5

> <PUBCHEM_CACTVS_HBOND_DONOR>
1

> <PUBCHEM_CACTVS_ROTATABLE_BOND>
6

> <PUBCHEM_CACTVS_SUBSKEYS>
AAADcfB7oABAAAAAAAAAAAAAAAAAAeIAAAA8YIAAAAAAAHgB9AAAHgQQQAAADSjB2gQzsdPAAACsAiNycACDABAhAABJmLkoRJiIYKLAmZGUIAxglgLIyAcQgMAOwAACAAAUAACAAAQAACgAACAACQAAAA==

> <PUBCHEM_IUPAC_OPENEYE_NAME>
N-[6-[2-[4-(1,2-benzothiazol-3-yl)piperazin-1-yl]ethyl]indan-1-yl]-2-methyl-propanamide

> <PUBCHEM_IUPAC_CAS_NAME>
N-[6-[2-[4-(1,2-benzothiazol-3-yl)-1-piperazinyl]ethyl]-2,3-dihydro-1H-inden-1-yl]-2-methylpropanamide

> <PUBCHEM_IUPAC_NAME_MARKUP>
<I>N</I>-[6-[2-[4-(1,2-benzothiazol-3-yl)piperazin-1-yl]ethyl]-2,3-dihydro-1<I>H</I>-inden-1-yl]-2-methylpropanamide

> <PUBCHEM_IUPAC_NAME>
N-[6-[2-[4-(1,2-benzothiazol-3-yl)piperazin-1-yl]ethyl]-2,3-dihydro-1H-inden-1-yl]-2-methylpropanamide

> <PUBCHEM_IUPAC_SYSTEMATIC_NAME>
N-[6-[2-[4-(1,2-benzothiazol-3-yl)piperazin-1-yl]ethyl]-2,3-dihydro-1H-inden-1-yl]-2-methyl-propanamide

> <PUBCHEM_IUPAC_TRADITIONAL_NAME>
N-[6-[2-[4-(1,2-benzothiazol-3-yl)piperazino]ethyl]indan-1-yl]-2-methyl-propionamide

> <PUBCHEM_IUPAC_INCHI>
InChI=1S/C26H32N4OS/c1-18(2)26(31)27-23-10-9-20-8-7-19(17-22(20)23)11-12-29-13-15-30(16-14-29)25-21-5-3-4-6-24(21)32-28-25/h3-8,17-18,23H,9-16H2,1-2H3,(H,27,31)

> <PUBCHEM_IUPAC_INCHIKEY>
NDCFZCPGTKKFMD-UHFFFAOYSA-N

> <PUBCHEM_XLOGP3_AA>
5.1

> <PUBCHEM_EXACT_MASS>
448.22968283

> <PUBCHEM_MOLECULAR_FORMULA>
C26H32N4OS

> <PUBCHEM_MOLECULAR_WEIGHT>
448.6

> <PUBCHEM_OPENEYE_CAN_SMILES>
CC(C)C(=O)NC1CCC2=C1C=C(C=C2)CCN3CCN(CC3)C4=NSC5=CC=CC=C54

> <PUBCHEM_OPENEYE_ISO_SMILES>
CC(C)C(=O)NC1CCC2=C1C=C(C=C2)CCN3CCN(CC3)C4=NSC5=CC=CC=C54

> <PUBCHEM_CACTVS_TPSA>
76.7

> <PUBCHEM_MONOISOTOPIC_WEIGHT>
448.22968283

> <PUBCHEM_TOTAL_CHARGE>
0

> <PUBCHEM_HEAVY_ATOM_COUNT>
32

> <PUBCHEM_ATOM_DEF_STEREO_COUNT>
0

> <PUBCHEM_ATOM_UDEF_STEREO_COUNT>
1

> <PUBCHEM_BOND_DEF_STEREO_COUNT>
0

> <PUBCHEM_BOND_UDEF_STEREO_COUNT>
0

> <PUBCHEM_ISOTOPIC_ATOM_COUNT>
0

> <PUBCHEM_COMPONENT_COUNT>
1

> <PUBCHEM_CACTVS_TAUTO_COUNT>
-1

> <PUBCHEM_COORDINATE_TYPE>
1
5
255

> <PUBCHEM_BONDANNOTATIONS>
1  26  8
1  6  8
11  20  8
18  19  8
18  21  8
20  21  8
22  25  8
25  26  8
25  29  8
26  30  8
29  31  8
30  32  8
31  32  8
7  5  3
6  22  8
9  11  8
9  19  8

$$$$
