42606573
  -OEChem-09292322482D

 52 55  0     0  0  0  0  0  0999 V2000
    8.8750   -1.7378    0.0000 F   0  0  0  0  0  0  0  0  0  0  0  0
    4.3211   -1.3015    0.0000 O   0  0  0  0  0  0  0  0  0  0  0  0
    4.6783   -4.6058    0.0000 O   0  0  0  0  0  0  0  0  0  0  0  0
    5.9674   -1.8396    0.0000 N   0  0  0  0  0  0  0  0  0  0  0  0
    8.4625    0.2192    0.0000 N   0  0  0  0  0  0  0  0  0  0  0  0
    9.7449    2.5334    0.0000 N   0  0  0  0  0  0  0  0  0  0  0  0
    7.9244   -1.4272    0.0000 C   0  0  0  0  0  0  0  0  0  0  0  0
    7.2566   -0.6829    0.0000 C   0  0  0  0  0  0  0  0  0  0  0  0
    7.6138   -2.3777    0.0000 C   0  0  0  0  0  0  0  0  0  0  0  0
    6.2781   -0.8891    0.0000 C   0  0  0  0  0  0  0  0  0  0  0  0
    6.6353   -2.5839    0.0000 C   0  0  0  0  0  0  0  0  0  0  0  0
    8.6688   -0.7593    0.0000 C   0  0  0  0  0  0  0  0  0  0  0  0
    4.9889   -2.0458    0.0000 C   0  0  0  0  0  0  0  0  0  0  0  0
    9.2068    0.8870    0.0000 C   0  0  0  0  0  0  0  0  0  0  0  0
    4.6783   -2.9963    0.0000 C   0  0  0  0  0  0  0  0  0  0  0  0
    3.7320   -3.3011    0.0000 C   0  0  0  0  0  0  0  0  0  0  0  0
    9.0006    1.8656    0.0000 C   0  0  0  0  0  0  0  0  0  0  0  0
    5.2619   -3.8011    0.0000 C   0  0  0  0  0  0  0  0  0  0  0  0
    3.7320   -4.3011    0.0000 C   0  0  0  0  0  0  0  0  0  0  0  0
    2.8660   -2.8011    0.0000 C   0  0  0  0  0  0  0  0  0  0  0  0
    8.0501    2.1762    0.0000 C   0  0  0  0  0  0  0  0  0  0  0  0
    2.8660   -4.8011    0.0000 C   0  0  0  0  0  0  0  0  0  0  0  0
    2.0000   -3.3011    0.0000 C   0  0  0  0  0  0  0  0  0  0  0  0
    2.0000   -4.3011    0.0000 C   0  0  0  0  0  0  0  0  0  0  0  0
    7.8439    3.1547    0.0000 C   0  0  0  0  0  0  0  0  0  0  0  0
    8.5882    3.8226    0.0000 C   0  0  0  0  0  0  0  0  0  0  0  0
    9.5387    3.5119    0.0000 C   0  0  0  0  0  0  0  0  0  0  0  0
    8.3820    4.8011    0.0000 C   0  0  0  0  0  0  0  0  0  0  0  0
    7.7830   -0.3552    0.0000 H   0  0  0  0  0  0  0  0  0  0  0  0
    7.0254   -0.1076    0.0000 H   0  0  0  0  0  0  0  0  0  0  0  0
    7.6344   -2.9973    0.0000 H   0  0  0  0  0  0  0  0  0  0  0  0
    8.2276   -2.4650    0.0000 H   0  0  0  0  0  0  0  0  0  0  0  0
    6.2575   -0.2694    0.0000 H   0  0  0  0  0  0  0  0  0  0  0  0
    5.6643   -0.8017    0.0000 H   0  0  0  0  0  0  0  0  0  0  0  0
    6.1089   -2.9115    0.0000 H   0  0  0  0  0  0  0  0  0  0  0  0
    6.8665   -3.1592    0.0000 H   0  0  0  0  0  0  0  0  0  0  0  0
    8.9964   -1.2857    0.0000 H   0  0  0  0  0  0  0  0  0  0  0  0
    9.2440   -0.5280    0.0000 H   0  0  0  0  0  0  0  0  0  0  0  0
    7.8732    0.4118    0.0000 H   0  0  0  0  0  0  0  0  0  0  0  0
    9.5345    0.3607    0.0000 H   0  0  0  0  0  0  0  0  0  0  0  0
    9.7821    1.1183    0.0000 H   0  0  0  0  0  0  0  0  0  0  0  0
    5.8819   -3.8011    0.0000 H   0  0  0  0  0  0  0  0  0  0  0  0
    2.8660   -2.1811    0.0000 H   0  0  0  0  0  0  0  0  0  0  0  0
    7.5886    1.7621    0.0000 H   0  0  0  0  0  0  0  0  0  0  0  0
    2.8660   -5.4211    0.0000 H   0  0  0  0  0  0  0  0  0  0  0  0
    1.4631   -2.9911    0.0000 H   0  0  0  0  0  0  0  0  0  0  0  0
    1.4631   -4.6111    0.0000 H   0  0  0  0  0  0  0  0  0  0  0  0
    7.2546    3.3473    0.0000 H   0  0  0  0  0  0  0  0  0  0  0  0
   10.0002    3.9260    0.0000 H   0  0  0  0  0  0  0  0  0  0  0  0
    8.9886    4.9289    0.0000 H   0  0  0  0  0  0  0  0  0  0  0  0
    8.2541    5.4077    0.0000 H   0  0  0  0  0  0  0  0  0  0  0  0
    7.7753    4.6732    0.0000 H   0  0  0  0  0  0  0  0  0  0  0  0
  1  7  1  0  0  0  0
  2 13  2  0  0  0  0
  3 18  1  0  0  0  0
  3 19  1  0  0  0  0
  4 10  1  0  0  0  0
  4 11  1  0  0  0  0
  4 13  1  0  0  0  0
  5 12  1  0  0  0  0
  5 14  1  0  0  0  0
  5 39  1  0  0  0  0
  6 17  2  0  0  0  0
  6 27  1  0  0  0  0
  7  8  1  0  0  0  0
  7  9  1  0  0  0  0
  7 12  1  0  0  0  0
  8 10  1  0  0  0  0
  8 29  1  0  0  0  0
  8 30  1  0  0  0  0
  9 11  1  0  0  0  0
  9 31  1  0  0  0  0
  9 32  1  0  0  0  0
 10 33  1  0  0  0  0
 10 34  1  0  0  0  0
 11 35  1  0  0  0  0
 11 36  1  0  0  0  0
 12 37  1  0  0  0  0
 12 38  1  0  0  0  0
 13 15  1  0  0  0  0
 14 17  1  0  0  0  0
 14 40  1  0  0  0  0
 14 41  1  0  0  0  0
 15 16  1  0  0  0  0
 15 18  2  0  0  0  0
 16 19  1  0  0  0  0
 16 20  2  0  0  0  0
 17 21  1  0  0  0  0
 18 42  1  0  0  0  0
 19 22  2  0  0  0  0
 20 23  1  0  0  0  0
 20 43  1  0  0  0  0
 21 25  2  0  0  0  0
 21 44  1  0  0  0  0
 22 24  1  0  0  0  0
 22 45  1  0  0  0  0
 23 24  2  0  0  0  0
 23 46  1  0  0  0  0
 24 47  1  0  0  0  0
 25 26  1  0  0  0  0
 25 48  1  0  0  0  0
 26 27  2  0  0  0  0
 26 28  1  0  0  0  0
 27 49  1  0  0  0  0
 28 50  1  0  0  0  0
 28 51  1  0  0  0  0
 28 52  1  0  0  0  0
M  END
> <PUBCHEM_COMPOUND_CID>
42606573

> <PUBCHEM_COMPOUND_CANONICALIZED>
1

> <PUBCHEM_CACTVS_COMPLEXITY>
538

> <PUBCHEM_CACTVS_HBOND_ACCEPTOR>
5

> <PUBCHEM_CACTVS_HBOND_DONOR>
1

> <PUBCHEM_CACTVS_ROTATABLE_BOND>
5

> <PUBCHEM_CACTVS_SUBSKEYS>
AAADceB7MQAAAAAAAAAAAAAAAAAAASAAAAA8WIAAAAAAAEgB/AAAHwAQAAAADAzhngY+htPIFECoA7131ACCiCA1IiAI2KE+bNgMZv7MtZuWOWjm5hHI6Ye/yOCOgAAAAAAIAAAAAAAAABAAAAAAAAAAAA==

> <PUBCHEM_IUPAC_OPENEYE_NAME>
benzofuran-3-yl-[4-fluoro-4-[[(5-methyl-2-pyridyl)methylamino]methyl]-1-piperidyl]methanone

> <PUBCHEM_IUPAC_CAS_NAME>
3-benzofuranyl-[4-fluoro-4-[[(5-methyl-2-pyridinyl)methylamino]methyl]-1-piperidinyl]methanone

> <PUBCHEM_IUPAC_NAME_MARKUP>
1-benzofuran-3-yl-[4-fluoro-4-[[(5-methylpyridin-2-yl)methylamino]methyl]piperidin-1-yl]methanone

> <PUBCHEM_IUPAC_NAME>
1-benzofuran-3-yl-[4-fluoro-4-[[(5-methylpyridin-2-yl)methylamino]methyl]piperidin-1-yl]methanone

> <PUBCHEM_IUPAC_SYSTEMATIC_NAME>
1-benzofuran-3-yl-[4-fluoranyl-4-[[(5-methylpyridin-2-yl)methylamino]methyl]piperidin-1-yl]methanone

> <PUBCHEM_IUPAC_TRADITIONAL_NAME>
benzofuran-3-yl-[4-fluoro-4-[[(5-methyl-2-pyridyl)methylamino]methyl]piperidino]methanone

> <PUBCHEM_IUPAC_INCHI>
InChI=1S/C22H24FN3O2/c1-16-6-7-17(25-12-16)13-24-15-22(23)8-10-26(11-9-22)21(27)19-14-28-20-5-3-2-4-18(19)20/h2-7,12,14,24H,8-11,13,15H2,1H3

> <PUBCHEM_IUPAC_INCHIKEY>
GUOJBWOHCJIFQW-UHFFFAOYSA-N

> <PUBCHEM_XLOGP3_AA>
2.9

> <PUBCHEM_EXACT_MASS>
381.18525518

> <PUBCHEM_MOLECULAR_FORMULA>
C22H24FN3O2

> <PUBCHEM_MOLECULAR_WEIGHT>
381.4

> <PUBCHEM_OPENEYE_CAN_SMILES>
CC1=CN=C(C=C1)CNCC2(CCN(CC2)C(=O)C3=COC4=CC=CC=C43)F

> <PUBCHEM_OPENEYE_ISO_SMILES>
CC1=CN=C(C=C1)CNCC2(CCN(CC2)C(=O)C3=COC4=CC=CC=C43)F

> <PUBCHEM_CACTVS_TPSA>
58.4

> <PUBCHEM_MONOISOTOPIC_WEIGHT>
381.18525518

> <PUBCHEM_TOTAL_CHARGE>
0

> <PUBCHEM_HEAVY_ATOM_COUNT>
28

> <PUBCHEM_ATOM_DEF_STEREO_COUNT>
0

> <PUBCHEM_ATOM_UDEF_STEREO_COUNT>
0

> <PUBCHEM_BOND_DEF_STEREO_COUNT>
0

> <PUBCHEM_BOND_UDEF_STEREO_COUNT>
0

> <PUBCHEM_ISOTOPIC_ATOM_COUNT>
0

> <PUBCHEM_COMPONENT_COUNT>
1

> <PUBCHEM_CACTVS_TAUTO_COUNT>
-1

> <PUBCHEM_COORDINATE_TYPE>
1
5
255

> <PUBCHEM_BONDANNOTATIONS>
15  16  8
15  18  8
16  19  8
16  20  8
17  21  8
19  22  8
20  23  8
21  25  8
22  24  8
23  24  8
25  26  8
26  27  8
3  18  8
3  19  8
6  17  8
6  27  8

$$$$
