45482180
  -OEChem-09292322292D

 71 74  0     0  0  0  0  0  0999 V2000
    2.0000   -4.8512    0.0000 Cl  0  0  0  0  0  0  0  0  0  0  0  0
    2.0000   -6.8512    0.0000 Cl  0  0  0  0  0  0  0  0  0  0  0  0
    7.1962    2.1488    0.0000 O   0  0  0  0  0  0  0  0  0  0  0  0
   13.6229    5.5671    0.0000 O   0  0  0  0  0  0  0  0  0  0  0  0
    3.7320   -1.8512    0.0000 N   0  0  0  0  0  0  0  0  0  0  0  0
    3.7320   -3.8512    0.0000 N   0  0  0  0  0  0  0  0  0  0  0  0
    5.4641    2.1488    0.0000 N   0  0  0  0  0  0  0  0  0  0  0  0
    9.6448    5.9852    0.0000 N   0  0  0  0  0  0  0  0  0  0  0  0
    8.1667    6.6433    0.0000 N   0  0  0  0  0  0  0  0  0  0  0  0
    9.1448    6.8512    0.0000 N   0  0  0  0  0  0  0  0  0  0  0  0
    2.8660   -2.3512    0.0000 C   0  0  0  0  0  0  0  0  0  0  0  0
    4.5981   -2.3512    0.0000 C   0  0  0  0  0  0  0  0  0  0  0  0
    2.8660   -3.3512    0.0000 C   0  0  0  0  0  0  0  0  0  0  0  0
    4.5981   -3.3512    0.0000 C   0  0  0  0  0  0  0  0  0  0  0  0
    3.7320   -0.8512    0.0000 C   0  0  0  0  0  0  0  0  0  0  0  0
    4.5981   -0.3512    0.0000 C   0  0  0  0  0  0  0  0  0  0  0  0
    4.5981    0.6488    0.0000 C   0  0  0  0  0  0  0  0  0  0  0  0
    3.7320   -4.8512    0.0000 C   0  0  0  0  0  0  0  0  0  0  0  0
    5.4641    1.1488    0.0000 C   0  0  0  0  0  0  0  0  0  0  0  0
    2.8660   -5.3512    0.0000 C   0  0  0  0  0  0  0  0  0  0  0  0
    4.5981   -5.3512    0.0000 C   0  0  0  0  0  0  0  0  0  0  0  0
    2.8660   -6.3512    0.0000 C   0  0  0  0  0  0  0  0  0  0  0  0
    4.5981   -6.3512    0.0000 C   0  0  0  0  0  0  0  0  0  0  0  0
    6.3301    2.6488    0.0000 C   0  0  0  0  0  0  0  0  0  0  0  0
    3.7320   -6.8512    0.0000 C   0  0  0  0  0  0  0  0  0  0  0  0
    6.3301    3.6488    0.0000 C   0  0  0  0  0  0  0  0  0  0  0  0
    7.1962    4.1488    0.0000 C   0  0  0  0  0  0  0  0  0  0  0  0
    7.1962    5.1488    0.0000 C   0  0  0  0  0  0  0  0  0  0  0  0
    8.0622    5.6488    0.0000 C   0  0  0  0  0  0  0  0  0  0  0  0
    8.9757    5.2420    0.0000 C   0  0  0  0  0  0  0  0  0  0  0  0
   10.6394    5.8807    0.0000 C   0  0  0  0  0  0  0  0  0  0  0  0
   11.2272    6.6897    0.0000 C   0  0  0  0  0  0  0  0  0  0  0  0
   11.0461    4.9671    0.0000 C   0  0  0  0  0  0  0  0  0  0  0  0
   12.2217    6.5852    0.0000 C   0  0  0  0  0  0  0  0  0  0  0  0
   12.0406    4.8626    0.0000 C   0  0  0  0  0  0  0  0  0  0  0  0
   12.6284    5.6716    0.0000 C   0  0  0  0  0  0  0  0  0  0  0  0
   14.2107    6.3761    0.0000 C   0  0  0  0  0  0  0  0  0  0  0  0
    2.6540   -1.7686    0.0000 H   0  0  0  0  0  0  0  0  0  0  0  0
    2.2554   -2.4589    0.0000 H   0  0  0  0  0  0  0  0  0  0  0  0
    5.2087   -2.4589    0.0000 H   0  0  0  0  0  0  0  0  0  0  0  0
    4.8101   -1.7686    0.0000 H   0  0  0  0  0  0  0  0  0  0  0  0
    2.2554   -3.2436    0.0000 H   0  0  0  0  0  0  0  0  0  0  0  0
    2.6540   -3.9338    0.0000 H   0  0  0  0  0  0  0  0  0  0  0  0
    4.8101   -3.9338    0.0000 H   0  0  0  0  0  0  0  0  0  0  0  0
    5.2087   -3.2436    0.0000 H   0  0  0  0  0  0  0  0  0  0  0  0
    3.5200   -0.2686    0.0000 H   0  0  0  0  0  0  0  0  0  0  0  0
    3.1215   -0.9589    0.0000 H   0  0  0  0  0  0  0  0  0  0  0  0
    4.8101   -0.9338    0.0000 H   0  0  0  0  0  0  0  0  0  0  0  0
    5.2087   -0.2436    0.0000 H   0  0  0  0  0  0  0  0  0  0  0  0
    4.3860    1.2314    0.0000 H   0  0  0  0  0  0  0  0  0  0  0  0
    3.9875    0.5411    0.0000 H   0  0  0  0  0  0  0  0  0  0  0  0
    5.6762    0.5662    0.0000 H   0  0  0  0  0  0  0  0  0  0  0  0
    6.0747    1.2564    0.0000 H   0  0  0  0  0  0  0  0  0  0  0  0
    5.1350   -5.0412    0.0000 H   0  0  0  0  0  0  0  0  0  0  0  0
    4.9272    2.4588    0.0000 H   0  0  0  0  0  0  0  0  0  0  0  0
    5.1350   -6.6612    0.0000 H   0  0  0  0  0  0  0  0  0  0  0  0
    6.1181    4.2314    0.0000 H   0  0  0  0  0  0  0  0  0  0  0  0
    5.7196    3.5411    0.0000 H   0  0  0  0  0  0  0  0  0  0  0  0
    3.7320   -7.4712    0.0000 H   0  0  0  0  0  0  0  0  0  0  0  0
    7.4082    3.5662    0.0000 H   0  0  0  0  0  0  0  0  0  0  0  0
    7.8067    4.2564    0.0000 H   0  0  0  0  0  0  0  0  0  0  0  0
    6.9841    5.7314    0.0000 H   0  0  0  0  0  0  0  0  0  0  0  0
    6.5856    5.0411    0.0000 H   0  0  0  0  0  0  0  0  0  0  0  0
    9.1046    4.6356    0.0000 H   0  0  0  0  0  0  0  0  0  0  0  0
   10.9750    7.2561    0.0000 H   0  0  0  0  0  0  0  0  0  0  0  0
   10.6817    4.4655    0.0000 H   0  0  0  0  0  0  0  0  0  0  0  0
   12.5861    7.0867    0.0000 H   0  0  0  0  0  0  0  0  0  0  0  0
   12.2928    4.2962    0.0000 H   0  0  0  0  0  0  0  0  0  0  0  0
   14.7123    6.0117    0.0000 H   0  0  0  0  0  0  0  0  0  0  0  0
   14.5752    6.8777    0.0000 H   0  0  0  0  0  0  0  0  0  0  0  0
   13.7091    6.7405    0.0000 H   0  0  0  0  0  0  0  0  0  0  0  0
  1 20  1  0  0  0  0
  2 22  1  0  0  0  0
  3 24  2  0  0  0  0
  4 36  1  0  0  0  0
  4 37  1  0  0  0  0
  5 11  1  0  0  0  0
  5 12  1  0  0  0  0
  5 15  1  0  0  0  0
  6 13  1  0  0  0  0
  6 14  1  0  0  0  0
  6 18  1  0  0  0  0
  7 19  1  0  0  0  0
  7 24  1  0  0  0  0
  7 55  1  0  0  0  0
  8 10  1  0  0  0  0
  8 30  1  0  0  0  0
  8 31  1  0  0  0  0
  9 10  2  0  0  0  0
  9 29  1  0  0  0  0
 11 13  1  0  0  0  0
 11 38  1  0  0  0  0
 11 39  1  0  0  0  0
 12 14  1  0  0  0  0
 12 40  1  0  0  0  0
 12 41  1  0  0  0  0
 13 42  1  0  0  0  0
 13 43  1  0  0  0  0
 14 44  1  0  0  0  0
 14 45  1  0  0  0  0
 15 16  1  0  0  0  0
 15 46  1  0  0  0  0
 15 47  1  0  0  0  0
 16 17  1  0  0  0  0
 16 48  1  0  0  0  0
 16 49  1  0  0  0  0
 17 19  1  0  0  0  0
 17 50  1  0  0  0  0
 17 51  1  0  0  0  0
 18 20  2  0  0  0  0
 18 21  1  0  0  0  0
 19 52  1  0  0  0  0
 19 53  1  0  0  0  0
 20 22  1  0  0  0  0
 21 23  2  0  0  0  0
 21 54  1  0  0  0  0
 22 25  2  0  0  0  0
 23 25  1  0  0  0  0
 23 56  1  0  0  0  0
 24 26  1  0  0  0  0
 25 59  1  0  0  0  0
 26 27  1  0  0  0  0
 26 57  1  0  0  0  0
 26 58  1  0  0  0  0
 27 28  1  0  0  0  0
 27 60  1  0  0  0  0
 27 61  1  0  0  0  0
 28 29  1  0  0  0  0
 28 62  1  0  0  0  0
 28 63  1  0  0  0  0
 29 30  2  0  0  0  0
 30 64  1  0  0  0  0
 31 32  2  0  0  0  0
 31 33  1  0  0  0  0
 32 34  1  0  0  0  0
 32 65  1  0  0  0  0
 33 35  2  0  0  0  0
 33 66  1  0  0  0  0
 34 36  2  0  0  0  0
 34 67  1  0  0  0  0
 35 36  1  0  0  0  0
 35 68  1  0  0  0  0
 37 69  1  0  0  0  0
 37 70  1  0  0  0  0
 37 71  1  0  0  0  0
M  END
> <PUBCHEM_COMPOUND_CID>
45482180

> <PUBCHEM_COMPOUND_CANONICALIZED>
1

> <PUBCHEM_CACTVS_COMPLEXITY>
675

> <PUBCHEM_CACTVS_HBOND_ACCEPTOR>
6

> <PUBCHEM_CACTVS_HBOND_DONOR>
1

> <PUBCHEM_CACTVS_ROTATABLE_BOND>
12

> <PUBCHEM_CACTVS_SUBSKEYS>
AAADcfB7sAAGAAAAAAAAAAAAAAAAAWAAAAA8YIAAAAAAAAAB0AAAHgIYAAAACA7BliY+xpPIBACqATV3VACCDCQxtwAYmsE+fogMZnLFs5vUMChk1hHI6Ae4SQAQAEAAAAIAABQAgAAABAAAKAAAAAAAAA==

> <PUBCHEM_IUPAC_OPENEYE_NAME>
N-[4-[4-(2,3-dichlorophenyl)piperazin-1-yl]butyl]-4-[1-(4-methoxyphenyl)triazol-4-yl]butanamide

> <PUBCHEM_IUPAC_CAS_NAME>
N-[4-[4-(2,3-dichlorophenyl)-1-piperazinyl]butyl]-4-[1-(4-methoxyphenyl)-4-triazolyl]butanamide

> <PUBCHEM_IUPAC_NAME_MARKUP>
<I>N</I>-[4-[4-(2,3-dichlorophenyl)piperazin-1-yl]butyl]-4-[1-(4-methoxyphenyl)triazol-4-yl]butanamide

> <PUBCHEM_IUPAC_NAME>
N-[4-[4-(2,3-dichlorophenyl)piperazin-1-yl]butyl]-4-[1-(4-methoxyphenyl)triazol-4-yl]butanamide

> <PUBCHEM_IUPAC_SYSTEMATIC_NAME>
N-[4-[4-[2,3-bis(chloranyl)phenyl]piperazin-1-yl]butyl]-4-[1-(4-methoxyphenyl)-1,2,3-triazol-4-yl]butanamide

> <PUBCHEM_IUPAC_TRADITIONAL_NAME>
N-[4-[4-(2,3-dichlorophenyl)piperazino]butyl]-4-[1-(4-methoxyphenyl)triazol-4-yl]butyramide

> <PUBCHEM_IUPAC_INCHI>
InChI=1S/C27H34Cl2N6O2/c1-37-23-12-10-22(11-13-23)35-20-21(31-32-35)6-4-9-26(36)30-14-2-3-15-33-16-18-34(19-17-33)25-8-5-7-24(28)27(25)29/h5,7-8,10-13,20H,2-4,6,9,14-19H2,1H3,(H,30,36)

> <PUBCHEM_IUPAC_INCHIKEY>
POZXHKGYVSZVAB-UHFFFAOYSA-N

> <PUBCHEM_XLOGP3_AA>
4.8

> <PUBCHEM_EXACT_MASS>
544.2120297

> <PUBCHEM_MOLECULAR_FORMULA>
C27H34Cl2N6O2

> <PUBCHEM_MOLECULAR_WEIGHT>
545.5

> <PUBCHEM_OPENEYE_CAN_SMILES>
COC1=CC=C(C=C1)N2C=C(N=N2)CCCC(=O)NCCCCN3CCN(CC3)C4=C(C(=CC=C4)Cl)Cl

> <PUBCHEM_OPENEYE_ISO_SMILES>
COC1=CC=C(C=C1)N2C=C(N=N2)CCCC(=O)NCCCCN3CCN(CC3)C4=C(C(=CC=C4)Cl)Cl

> <PUBCHEM_CACTVS_TPSA>
75.5

> <PUBCHEM_MONOISOTOPIC_WEIGHT>
544.2120297

> <PUBCHEM_TOTAL_CHARGE>
0

> <PUBCHEM_HEAVY_ATOM_COUNT>
37

> <PUBCHEM_ATOM_DEF_STEREO_COUNT>
0

> <PUBCHEM_ATOM_UDEF_STEREO_COUNT>
0

> <PUBCHEM_BOND_DEF_STEREO_COUNT>
0

> <PUBCHEM_BOND_UDEF_STEREO_COUNT>
0

> <PUBCHEM_ISOTOPIC_ATOM_COUNT>
0

> <PUBCHEM_COMPONENT_COUNT>
1

> <PUBCHEM_CACTVS_TAUTO_COUNT>
-1

> <PUBCHEM_COORDINATE_TYPE>
1
5
255

> <PUBCHEM_BONDANNOTATIONS>
18  20  8
18  21  8
20  22  8
21  23  8
22  25  8
23  25  8
29  30  8
31  32  8
31  33  8
32  34  8
33  35  8
34  36  8
35  36  8
8  10  8
8  30  8
9  10  8
9  29  8

$$$$
