52946660
  -OEChem-09292322292D

 59 64  0     1  0  0  0  0  0999 V2000
    6.5174    0.0000    0.0000 Br  0  0  0  0  0  0  0  0  0  0  0  0
    0.2616    5.0607    0.0000 F   0  0  0  0  0  0  0  0  0  0  0  0
   12.3297    4.9438    0.0000 O   0  0  0  0  0  0  0  0  0  0  0  0
   14.0348    4.4457    0.0000 O   0  0  0  0  0  0  0  0  0  0  0  0
    6.9840    5.2648    0.0000 N   0  0  3  0  0  0  0  0  0  0  0  0
   10.1905    5.3138    0.0000 N   0  0  3  0  0  0  0  0  0  0  0  0
    3.1333    7.9213    0.0000 N   0  0  0  0  0  0  0  0  0  0  0  0
   13.4319    6.1166    0.0000 N   0  0  0  0  0  0  0  0  0  0  0  0
    8.1537    4.3441    0.0000 C   0  0  2  0  0  0  0  0  0  0  0  0
    8.7015    5.1807    0.0000 C   0  0  2  0  0  0  0  0  0  0  0  0
    8.5461    3.1804    0.0000 C   0  0  0  0  0  0  0  0  0  0  0  0
    7.5319    6.1014    0.0000 C   0  0  0  0  0  0  0  0  0  0  0  0
   10.2216    4.3143    0.0000 C   0  0  0  0  0  0  0  0  0  0  0  0
    6.0050    5.0607    0.0000 C   0  0  0  0  0  0  0  0  0  0  0  0
    5.3388    5.8064    0.0000 C   0  0  3  0  0  0  0  0  0  0  0  0
   10.8754    6.0425    0.0000 C   0  0  0  0  0  0  0  0  0  0  0  0
    5.6607    6.7971    0.0000 C   0  0  0  0  0  0  0  0  0  0  0  0
    4.3183    5.5977    0.0000 C   0  0  0  0  0  0  0  0  0  0  0  0
    4.9577    7.5658    0.0000 C   0  0  0  0  0  0  0  0  0  0  0  0
    3.6333    6.3825    0.0000 C   0  0  0  0  0  0  0  0  0  0  0  0
    3.9423    7.3335    0.0000 C   0  0  0  0  0  0  0  0  0  0  0  0
   11.8489    5.8138    0.0000 C   0  0  0  0  0  0  0  0  0  0  0  0
   10.5867    6.9999    0.0000 C   0  0  0  0  0  0  0  0  0  0  0  0
    2.6333    6.3825    0.0000 C   0  0  0  0  0  0  0  0  0  0  0  0
    2.3243    7.3335    0.0000 C   0  0  0  0  0  0  0  0  0  0  0  0
   12.5337    6.5425    0.0000 C   0  0  0  0  0  0  0  0  0  0  0  0
   11.2715    7.7287    0.0000 C   0  0  0  0  0  0  0  0  0  0  0  0
   12.2450    7.5000    0.0000 C   0  0  0  0  0  0  0  0  0  0  0  0
    1.9483    5.5977    0.0000 C   0  0  0  0  0  0  0  0  0  0  0  0
    1.3089    7.5658    0.0000 C   0  0  0  0  0  0  0  0  0  0  0  0
   13.3061    5.1305    0.0000 C   0  0  0  0  0  0  0  0  0  0  0  0
    0.9278    5.8064    0.0000 C   0  0  0  0  0  0  0  0  0  0  0  0
    0.6060    6.7971    0.0000 C   0  0  0  0  0  0  0  0  0  0  0  0
    7.6880    3.6330    0.0000 H   0  0  0  0  0  0  0  0  0  0  0  0
    9.1672    5.8918    0.0000 H   0  0  0  0  0  0  0  0  0  0  0  0
    8.0778    2.7742    0.0000 H   0  0  0  0  0  0  0  0  0  0  0  0
    9.0998    2.9014    0.0000 H   0  0  0  0  0  0  0  0  0  0  0  0
    7.9010    6.5995    0.0000 H   0  0  0  0  0  0  0  0  0  0  0  0
    7.0233    6.4560    0.0000 H   0  0  0  0  0  0  0  0  0  0  0  0
   10.2220    3.6943    0.0000 H   0  0  0  0  0  0  0  0  0  0  0  0
   10.8415    4.3241    0.0000 H   0  0  0  0  0  0  0  0  0  0  0  0
    5.4780    4.7342    0.0000 H   0  0  0  0  0  0  0  0  0  0  0  0
    6.2351    4.4850    0.0000 H   0  0  0  0  0  0  0  0  0  0  0  0
    5.9455    5.9342    0.0000 H   0  0  0  0  0  0  0  0  0  0  0  0
    6.2088    6.5074    0.0000 H   0  0  0  0  0  0  0  0  0  0  0  0
    6.0399    7.2876    0.0000 H   0  0  0  0  0  0  0  0  0  0  0  0
    3.7883    5.2760    0.0000 H   0  0  0  0  0  0  0  0  0  0  0  0
    4.5446    5.0205    0.0000 H   0  0  0  0  0  0  0  0  0  0  0  0
    5.4801    7.8997    0.0000 H   0  0  0  0  0  0  0  0  0  0  0  0
    4.7181    8.1376    0.0000 H   0  0  0  0  0  0  0  0  0  0  0  0
    9.9831    7.1417    0.0000 H   0  0  0  0  0  0  0  0  0  0  0  0
    3.1333    8.5413    0.0000 H   0  0  0  0  0  0  0  0  0  0  0  0
   11.0925    8.3223    0.0000 H   0  0  0  0  0  0  0  0  0  0  0  0
    2.1467    5.0103    0.0000 H   0  0  0  0  0  0  0  0  0  0  0  0
   12.6696    7.9518    0.0000 H   0  0  0  0  0  0  0  0  0  0  0  0
    1.1241    8.1576    0.0000 H   0  0  0  0  0  0  0  0  0  0  0  0
   13.9758    6.4142    0.0000 H   0  0  0  0  0  0  0  0  0  0  0  0
    0.0000    6.9283    0.0000 H   0  0  0  0  0  0  0  0  0  0  0  0
    7.5174    0.0000    0.0000 H   0  0  0  0  0  0  0  0  0  0  0  0
  1 59  1  0  0  0  0
  2 32  1  0  0  0  0
  3 22  1  0  0  0  0
  3 31  1  0  0  0  0
  4 31  2  0  0  0  0
  5  9  1  0  0  0  0
  5 12  1  0  0  0  0
  5 14  1  0  0  0  0
  6 10  1  0  0  0  0
  6 13  1  0  0  0  0
  6 16  1  0  0  0  0
  7 21  1  0  0  0  0
  7 25  1  0  0  0  0
  7 52  1  0  0  0  0
  8 26  1  0  0  0  0
  8 31  1  0  0  0  0
  8 57  1  0  0  0  0
  9 11  1  0  0  0  0
  9 13  1  0  0  0  0
  9 34  1  6  0  0  0
 10 11  1  0  0  0  0
 10 12  1  0  0  0  0
 10 35  1  1  0  0  0
 11 36  1  0  0  0  0
 11 37  1  0  0  0  0
 12 38  1  0  0  0  0
 12 39  1  0  0  0  0
 13 40  1  0  0  0  0
 13 41  1  0  0  0  0
 14 15  1  0  0  0  0
 14 42  1  0  0  0  0
 14 43  1  0  0  0  0
 15 17  1  0  0  0  0
 15 18  1  0  0  0  0
 15 44  1  0  0  0  0
 16 22  1  0  0  0  0
 16 23  2  0  0  0  0
 17 19  1  0  0  0  0
 17 45  1  0  0  0  0
 17 46  1  0  0  0  0
 18 20  1  0  0  0  0
 18 47  1  0  0  0  0
 18 48  1  0  0  0  0
 19 21  1  0  0  0  0
 19 49  1  0  0  0  0
 19 50  1  0  0  0  0
 20 21  2  0  0  0  0
 20 24  1  0  0  0  0
 22 26  2  0  0  0  0
 23 27  1  0  0  0  0
 23 51  1  0  0  0  0
 24 25  2  0  0  0  0
 24 29  1  0  0  0  0
 25 30  1  0  0  0  0
 26 28  1  0  0  0  0
 27 28  2  0  0  0  0
 27 53  1  0  0  0  0
 28 55  1  0  0  0  0
 29 32  2  0  0  0  0
 29 54  1  0  0  0  0
 30 33  2  0  0  0  0
 30 56  1  0  0  0  0
 32 33  1  0  0  0  0
 33 58  1  0  0  0  0
M  END
> <PUBCHEM_COMPOUND_CID>
52946660

> <PUBCHEM_COMPOUND_CANONICALIZED>
1

> <PUBCHEM_CACTVS_COMPLEXITY>
754

> <PUBCHEM_CACTVS_HBOND_ACCEPTOR>
5

> <PUBCHEM_CACTVS_HBOND_DONOR>
3

> <PUBCHEM_CACTVS_ROTATABLE_BOND>
3

> <PUBCHEM_CACTVS_SUBSKEYS>
AAADceB7sQAAEAAAAAAAAAAAAAAAAWLFiwA8YMEAAAAAAFgB9AAAHwAQAAAADSzBngwwzvPJlACoAyRiXACCiCAhIiAImSA9bJkOZuLE8dudMihk1BHY6AeQwMAOgAAAAAQCEAAQAAQACAQgAAAAAAAAAA==

> <PUBCHEM_IUPAC_OPENEYE_NAME>
7-[(1R,4R)-5-[(6-fluoro-2,3,4,9-tetrahydro-1H-carbazol-3-yl)methyl]-2,5-diazabicyclo[2.2.1]heptan-2-yl]-3H-1,3-benzoxazol-2-one;hydrobromide

> <PUBCHEM_IUPAC_CAS_NAME>
7-[(1R,4R)-5-[(6-fluoro-2,3,4,9-tetrahydro-1H-carbazol-3-yl)methyl]-2,5-diazabicyclo[2.2.1]heptan-2-yl]-3H-1,3-benzoxazol-2-one;hydrobromide

> <PUBCHEM_IUPAC_NAME_MARKUP>
7-[(1<I>R</I>,4<I>R</I>)-5-[(6-fluoro-2,3,4,9-tetrahydro-1<I>H</I>-carbazol-3-yl)methyl]-2,5-diazabicyclo[2.2.1]heptan-2-yl]-3<I>H</I>-1,3-benzoxazol-2-one;hydrobromide

> <PUBCHEM_IUPAC_NAME>
7-[(1R,4R)-5-[(6-fluoro-2,3,4,9-tetrahydro-1H-carbazol-3-yl)methyl]-2,5-diazabicyclo[2.2.1]heptan-2-yl]-3H-1,3-benzoxazol-2-one;hydrobromide

> <PUBCHEM_IUPAC_SYSTEMATIC_NAME>
7-[(1R,4R)-5-[(6-fluoranyl-2,3,4,9-tetrahydro-1H-carbazol-3-yl)methyl]-2,5-diazabicyclo[2.2.1]heptan-2-yl]-3H-1,3-benzoxazol-2-one;hydrobromide

> <PUBCHEM_IUPAC_TRADITIONAL_NAME>
7-[(1R,4R)-5-[(6-fluoro-2,3,4,9-tetrahydro-1H-carbazol-3-yl)methyl]-2,5-diazabicyclo[2.2.1]heptan-2-yl]-3H-1,3-benzoxazol-2-one;hydrobromide

> <PUBCHEM_IUPAC_INCHI>
InChI=1S/C25H25FN4O2.BrH/c26-15-5-7-21-19(9-15)18-8-14(4-6-20(18)27-21)11-29-12-17-10-16(29)13-30(17)23-3-1-2-22-24(23)32-25(31)28-22;/h1-3,5,7,9,14,16-17,27H,4,6,8,10-13H2,(H,28,31);1H/t14?,16-,17-;/m1./s1

> <PUBCHEM_IUPAC_INCHIKEY>
FKKCCGZSAOMADB-DMZSRLFGSA-N

> <PUBCHEM_EXACT_MASS>
512.12232

> <PUBCHEM_MOLECULAR_FORMULA>
C25H26BrFN4O2

> <PUBCHEM_MOLECULAR_WEIGHT>
513.4

> <PUBCHEM_OPENEYE_CAN_SMILES>
C1CC2=C(CC1CN3CC4CC3CN4C5=CC=CC6=C5OC(=O)N6)C7=C(N2)C=CC(=C7)F.Br

> <PUBCHEM_OPENEYE_ISO_SMILES>
C1CC2=C(CC1CN3C[C@H]4C[C@@H]3CN4C5=CC=CC6=C5OC(=O)N6)C7=C(N2)C=CC(=C7)F.Br

> <PUBCHEM_CACTVS_TPSA>
60.6

> <PUBCHEM_MONOISOTOPIC_WEIGHT>
512.12232

> <PUBCHEM_TOTAL_CHARGE>
0

> <PUBCHEM_HEAVY_ATOM_COUNT>
33

> <PUBCHEM_ATOM_DEF_STEREO_COUNT>
2

> <PUBCHEM_ATOM_UDEF_STEREO_COUNT>
1

> <PUBCHEM_BOND_DEF_STEREO_COUNT>
0

> <PUBCHEM_BOND_UDEF_STEREO_COUNT>
0

> <PUBCHEM_ISOTOPIC_ATOM_COUNT>
0

> <PUBCHEM_COMPONENT_COUNT>
2

> <PUBCHEM_CACTVS_TAUTO_COUNT>
-1

> <PUBCHEM_COORDINATE_TYPE>
1
5
255

> <PUBCHEM_BONDANNOTATIONS>
10  35  5
15  14  3
16  22  8
16  23  8
20  21  8
20  24  8
22  26  8
23  27  8
24  25  8
24  29  8
25  30  8
26  28  8
27  28  8
29  32  8
3  22  8
3  31  8
30  33  8
32  33  8
7  21  8
7  25  8
8  26  8
8  31  8
9  34  6

$$$$
