10704110
  -OEChem-09292322132D

 37 38  0     1  0  0  0  0  0999 V2000
    9.8602   -0.5415    0.0000 O   0  0  0  0  0  0  0  0  0  0  0  0
    4.5981   -0.5173    0.0000 N   0  0  3  0  0  0  0  0  0  0  0  0
    5.4641   -0.0173    0.0000 C   0  0  3  0  0  0  0  0  0  0  0  0
    5.4641    0.9827    0.0000 C   0  0  0  0  0  0  0  0  0  0  0  0
    6.3301   -0.5173    0.0000 C   0  0  0  0  0  0  0  0  0  0  0  0
    6.3301    1.4827    0.0000 C   0  0  0  0  0  0  0  0  0  0  0  0
    7.1962   -0.0173    0.0000 C   0  0  0  0  0  0  0  0  0  0  0  0
    7.1962    0.9827    0.0000 C   0  0  0  0  0  0  0  0  0  0  0  0
    3.7320   -0.0173    0.0000 C   0  0  0  0  0  0  0  0  0  0  0  0
    4.5981   -1.5173    0.0000 C   0  0  0  0  0  0  0  0  0  0  0  0
    8.0901   -0.5520    0.0000 C   0  0  0  0  0  0  0  0  0  0  0  0
    8.0901    1.5173    0.0000 C   0  0  0  0  0  0  0  0  0  0  0  0
    2.8660   -0.5173    0.0000 C   0  0  0  0  0  0  0  0  0  0  0  0
    8.9962   -0.0381    0.0000 C   0  0  0  0  0  0  0  0  0  0  0  0
    8.9962    1.0035    0.0000 C   0  0  0  0  0  0  0  0  0  0  0  0
    2.0000   -0.0173    0.0000 C   0  0  0  0  0  0  0  0  0  0  0  0
    5.4641   -0.6373    0.0000 H   0  0  0  0  0  0  0  0  0  0  0  0
    5.2520    1.5653    0.0000 H   0  0  0  0  0  0  0  0  0  0  0  0
    4.8535    0.8750    0.0000 H   0  0  0  0  0  0  0  0  0  0  0  0
    5.9316   -0.9923    0.0000 H   0  0  0  0  0  0  0  0  0  0  0  0
    6.7287   -0.9923    0.0000 H   0  0  0  0  0  0  0  0  0  0  0  0
    6.7287    1.9576    0.0000 H   0  0  0  0  0  0  0  0  0  0  0  0
    5.9316    1.9576    0.0000 H   0  0  0  0  0  0  0  0  0  0  0  0
    4.1306    0.4576    0.0000 H   0  0  0  0  0  0  0  0  0  0  0  0
    3.3335    0.4576    0.0000 H   0  0  0  0  0  0  0  0  0  0  0  0
    3.9781   -1.5173    0.0000 H   0  0  0  0  0  0  0  0  0  0  0  0
    4.5981   -2.1373    0.0000 H   0  0  0  0  0  0  0  0  0  0  0  0
    5.2181   -1.5173    0.0000 H   0  0  0  0  0  0  0  0  0  0  0  0
    8.0829   -1.1720    0.0000 H   0  0  0  0  0  0  0  0  0  0  0  0
    8.0829    2.1373    0.0000 H   0  0  0  0  0  0  0  0  0  0  0  0
    2.4675   -0.9923    0.0000 H   0  0  0  0  0  0  0  0  0  0  0  0
    3.2646   -0.9923    0.0000 H   0  0  0  0  0  0  0  0  0  0  0  0
    9.5319    1.3156    0.0000 H   0  0  0  0  0  0  0  0  0  0  0  0
    2.3100    0.5196    0.0000 H   0  0  0  0  0  0  0  0  0  0  0  0
    1.4631    0.2927    0.0000 H   0  0  0  0  0  0  0  0  0  0  0  0
    1.6900   -0.5543    0.0000 H   0  0  0  0  0  0  0  0  0  0  0  0
   10.3984   -0.2336    0.0000 H   0  0  0  0  0  0  0  0  0  0  0  0
  1 14  1  0  0  0  0
  1 37  1  0  0  0  0
  2  3  1  0  0  0  0
  2  9  1  0  0  0  0
  2 10  1  0  0  0  0
  3  4  1  0  0  0  0
  3  5  1  0  0  0  0
  3 17  1  0  0  0  0
  4  6  1  0  0  0  0
  4 18  1  0  0  0  0
  4 19  1  0  0  0  0
  5  7  1  0  0  0  0
  5 20  1  0  0  0  0
  5 21  1  0  0  0  0
  6  8  1  0  0  0  0
  6 22  1  0  0  0  0
  6 23  1  0  0  0  0
  7  8  2  0  0  0  0
  7 11  1  0  0  0  0
  8 12  1  0  0  0  0
  9 13  1  0  0  0  0
  9 24  1  0  0  0  0
  9 25  1  0  0  0  0
 10 26  1  0  0  0  0
 10 27  1  0  0  0  0
 10 28  1  0  0  0  0
 11 14  2  0  0  0  0
 11 29  1  0  0  0  0
 12 15  2  0  0  0  0
 12 30  1  0  0  0  0
 13 16  1  0  0  0  0
 13 31  1  0  0  0  0
 13 32  1  0  0  0  0
 14 15  1  0  0  0  0
 15 33  1  0  0  0  0
 16 34  1  0  0  0  0
 16 35  1  0  0  0  0
 16 36  1  0  0  0  0
M  END
> <PUBCHEM_COMPOUND_CID>
10704110

> <PUBCHEM_COMPOUND_CANONICALIZED>
1

> <PUBCHEM_CACTVS_COMPLEXITY>
219

> <PUBCHEM_CACTVS_HBOND_ACCEPTOR>
2

> <PUBCHEM_CACTVS_HBOND_DONOR>
1

> <PUBCHEM_CACTVS_ROTATABLE_BOND>
3

> <PUBCHEM_CACTVS_SUBSKEYS>
AAADceByIAAAAAAAAAAAAAAAAAAAAAAAAAAwYAAAAAAAAADBAAAAHgAACAAADCzBmAQyBoMAAgCAAiBCAAACAAAgIAAIiAAOCIgIJiKCkROEcAAkwBGImAeQ0LMOoAABAAAQAABQAAKAACAAAAAAAAAAAA==

> <PUBCHEM_IUPAC_OPENEYE_NAME>
3-[methyl(propyl)amino]tetralin-6-ol

> <PUBCHEM_IUPAC_CAS_NAME>
7-[methyl(propyl)amino]-5,6,7,8-tetrahydronaphthalen-2-ol

> <PUBCHEM_IUPAC_NAME_MARKUP>
7-[methyl(propyl)amino]-5,6,7,8-tetrahydronaphthalen-2-ol

> <PUBCHEM_IUPAC_NAME>
7-[methyl(propyl)amino]-5,6,7,8-tetrahydronaphthalen-2-ol

> <PUBCHEM_IUPAC_SYSTEMATIC_NAME>
7-[methyl(propyl)amino]-5,6,7,8-tetrahydronaphthalen-2-ol

> <PUBCHEM_IUPAC_TRADITIONAL_NAME>
3-[methyl(propyl)amino]tetralin-6-ol

> <PUBCHEM_IUPAC_INCHI>
InChI=1S/C14H21NO/c1-3-8-15(2)13-6-4-11-5-7-14(16)10-12(11)9-13/h5,7,10,13,16H,3-4,6,8-9H2,1-2H3

> <PUBCHEM_IUPAC_INCHIKEY>
UKKJJXAEHLPZSM-UHFFFAOYSA-N

> <PUBCHEM_XLOGP3_AA>
3.2

> <PUBCHEM_EXACT_MASS>
219.162314293

> <PUBCHEM_MOLECULAR_FORMULA>
C14H21NO

> <PUBCHEM_MOLECULAR_WEIGHT>
219.32

> <PUBCHEM_OPENEYE_CAN_SMILES>
CCCN(C)C1CCC2=C(C1)C=C(C=C2)O

> <PUBCHEM_OPENEYE_ISO_SMILES>
CCCN(C)C1CCC2=C(C1)C=C(C=C2)O

> <PUBCHEM_CACTVS_TPSA>
23.5

> <PUBCHEM_MONOISOTOPIC_WEIGHT>
219.162314293

> <PUBCHEM_TOTAL_CHARGE>
0

> <PUBCHEM_HEAVY_ATOM_COUNT>
16

> <PUBCHEM_ATOM_DEF_STEREO_COUNT>
0

> <PUBCHEM_ATOM_UDEF_STEREO_COUNT>
1

> <PUBCHEM_BOND_DEF_STEREO_COUNT>
0

> <PUBCHEM_BOND_UDEF_STEREO_COUNT>
0

> <PUBCHEM_ISOTOPIC_ATOM_COUNT>
0

> <PUBCHEM_COMPONENT_COUNT>
1

> <PUBCHEM_CACTVS_TAUTO_COUNT>
-1

> <PUBCHEM_COORDINATE_TYPE>
1
5
255

> <PUBCHEM_BONDANNOTATIONS>
11  14  8
12  15  8
14  15  8
3  2  3
7  11  8
7  8  8
8  12  8

$$$$
