10098342
  -OEChem-09292322242D

 55 58  0     0  0  0  0  0  0999 V2000
    2.0000    2.6651    0.0000 Br  0  0  0  0  0  0  0  0  0  0  0  0
   14.6279   -2.6651    0.0000 Cl  0  0  0  0  0  0  0  0  0  0  0  0
   16.6279   -2.6651    0.0000 Cl  0  0  0  0  0  0  0  0  0  0  0  0
    5.5443    0.8603    0.0000 O   0  0  0  0  0  0  0  0  0  0  0  0
    7.6279    2.5311    0.0000 O   0  0  0  0  0  0  0  0  0  0  0  0
   11.6279   -0.9330    0.0000 N   0  0  0  0  0  0  0  0  0  0  0  0
   13.6279   -0.9330    0.0000 N   0  0  0  0  0  0  0  0  0  0  0  0
    7.6279    0.7990    0.0000 N   0  0  0  0  0  0  0  0  0  0  0  0
   12.1279   -0.0670    0.0000 C   0  0  0  0  0  0  0  0  0  0  0  0
   12.1279   -1.7990    0.0000 C   0  0  0  0  0  0  0  0  0  0  0  0
   13.1279   -0.0670    0.0000 C   0  0  0  0  0  0  0  0  0  0  0  0
   13.1279   -1.7990    0.0000 C   0  0  0  0  0  0  0  0  0  0  0  0
   10.6279   -0.9330    0.0000 C   0  0  0  0  0  0  0  0  0  0  0  0
   10.1279   -0.0670    0.0000 C   0  0  0  0  0  0  0  0  0  0  0  0
    9.1279   -0.0670    0.0000 C   0  0  0  0  0  0  0  0  0  0  0  0
   14.6279   -0.9330    0.0000 C   0  0  0  0  0  0  0  0  0  0  0  0
    8.6279    0.7990    0.0000 C   0  0  0  0  0  0  0  0  0  0  0  0
   15.1279   -1.7990    0.0000 C   0  0  0  0  0  0  0  0  0  0  0  0
   15.1279   -0.0670    0.0000 C   0  0  0  0  0  0  0  0  0  0  0  0
   16.1279   -1.7990    0.0000 C   0  0  0  0  0  0  0  0  0  0  0  0
   16.1279   -0.0670    0.0000 C   0  0  0  0  0  0  0  0  0  0  0  0
   16.6279   -0.9330    0.0000 C   0  0  0  0  0  0  0  0  0  0  0  0
    7.1279    1.6651    0.0000 C   0  0  0  0  0  0  0  0  0  0  0  0
    6.1279    1.6651    0.0000 C   0  0  0  0  0  0  0  0  0  0  0  0
    5.5443    2.4698    0.0000 C   0  0  0  0  0  0  0  0  0  0  0  0
    4.5981    2.1651    0.0000 C   0  0  0  0  0  0  0  0  0  0  0  0
    4.5981    1.1651    0.0000 C   0  0  0  0  0  0  0  0  0  0  0  0
    3.7320    2.6651    0.0000 C   0  0  0  0  0  0  0  0  0  0  0  0
    3.7320    0.6651    0.0000 C   0  0  0  0  0  0  0  0  0  0  0  0
    2.8660    2.1651    0.0000 C   0  0  0  0  0  0  0  0  0  0  0  0
    2.8660    1.1651    0.0000 C   0  0  0  0  0  0  0  0  0  0  0  0
   12.2356    0.5436    0.0000 H   0  0  0  0  0  0  0  0  0  0  0  0
   11.5453    0.1451    0.0000 H   0  0  0  0  0  0  0  0  0  0  0  0
   11.5453   -2.0111    0.0000 H   0  0  0  0  0  0  0  0  0  0  0  0
   12.2356   -2.4096    0.0000 H   0  0  0  0  0  0  0  0  0  0  0  0
   13.7105    0.1451    0.0000 H   0  0  0  0  0  0  0  0  0  0  0  0
   13.0202    0.5436    0.0000 H   0  0  0  0  0  0  0  0  0  0  0  0
   13.0202   -2.4096    0.0000 H   0  0  0  0  0  0  0  0  0  0  0  0
   13.7105   -2.0111    0.0000 H   0  0  0  0  0  0  0  0  0  0  0  0
   10.0453   -1.1451    0.0000 H   0  0  0  0  0  0  0  0  0  0  0  0
   10.7356   -1.5436    0.0000 H   0  0  0  0  0  0  0  0  0  0  0  0
   10.7105    0.1451    0.0000 H   0  0  0  0  0  0  0  0  0  0  0  0
   10.0202    0.5436    0.0000 H   0  0  0  0  0  0  0  0  0  0  0  0
    8.5453   -0.2790    0.0000 H   0  0  0  0  0  0  0  0  0  0  0  0
    9.2356   -0.6776    0.0000 H   0  0  0  0  0  0  0  0  0  0  0  0
    9.2105    1.0111    0.0000 H   0  0  0  0  0  0  0  0  0  0  0  0
    8.5202    1.4096    0.0000 H   0  0  0  0  0  0  0  0  0  0  0  0
   14.8179    0.4699    0.0000 H   0  0  0  0  0  0  0  0  0  0  0  0
    7.3179    0.2621    0.0000 H   0  0  0  0  0  0  0  0  0  0  0  0
   16.4379    0.4699    0.0000 H   0  0  0  0  0  0  0  0  0  0  0  0
   17.2479   -0.9330    0.0000 H   0  0  0  0  0  0  0  0  0  0  0  0
    5.7369    3.0591    0.0000 H   0  0  0  0  0  0  0  0  0  0  0  0
    3.7320    3.2851    0.0000 H   0  0  0  0  0  0  0  0  0  0  0  0
    3.7320    0.0451    0.0000 H   0  0  0  0  0  0  0  0  0  0  0  0
    2.3291    0.8551    0.0000 H   0  0  0  0  0  0  0  0  0  0  0  0
  1 30  1  0  0  0  0
  2 18  1  0  0  0  0
  3 20  1  0  0  0  0
  4 24  1  0  0  0  0
  4 27  1  0  0  0  0
  5 23  2  0  0  0  0
  6  9  1  0  0  0  0
  6 10  1  0  0  0  0
  6 13  1  0  0  0  0
  7 11  1  0  0  0  0
  7 12  1  0  0  0  0
  7 16  1  0  0  0  0
  8 17  1  0  0  0  0
  8 23  1  0  0  0  0
  8 49  1  0  0  0  0
  9 11  1  0  0  0  0
  9 32  1  0  0  0  0
  9 33  1  0  0  0  0
 10 12  1  0  0  0  0
 10 34  1  0  0  0  0
 10 35  1  0  0  0  0
 11 36  1  0  0  0  0
 11 37  1  0  0  0  0
 12 38  1  0  0  0  0
 12 39  1  0  0  0  0
 13 14  1  0  0  0  0
 13 40  1  0  0  0  0
 13 41  1  0  0  0  0
 14 15  1  0  0  0  0
 14 42  1  0  0  0  0
 14 43  1  0  0  0  0
 15 17  1  0  0  0  0
 15 44  1  0  0  0  0
 15 45  1  0  0  0  0
 16 18  2  0  0  0  0
 16 19  1  0  0  0  0
 17 46  1  0  0  0  0
 17 47  1  0  0  0  0
 18 20  1  0  0  0  0
 19 21  2  0  0  0  0
 19 48  1  0  0  0  0
 20 22  2  0  0  0  0
 21 22  1  0  0  0  0
 21 50  1  0  0  0  0
 22 51  1  0  0  0  0
 23 24  1  0  0  0  0
 24 25  2  0  0  0  0
 25 26  1  0  0  0  0
 25 52  1  0  0  0  0
 26 27  2  0  0  0  0
 26 28  1  0  0  0  0
 27 29  1  0  0  0  0
 28 30  2  0  0  0  0
 28 53  1  0  0  0  0
 29 31  2  0  0  0  0
 29 54  1  0  0  0  0
 30 31  1  0  0  0  0
 31 55  1  0  0  0  0
M  END
> <PUBCHEM_COMPOUND_CID>
10098342

> <PUBCHEM_COMPOUND_CANONICALIZED>
1

> <PUBCHEM_CACTVS_COMPLEXITY>
593

> <PUBCHEM_CACTVS_HBOND_ACCEPTOR>
4

> <PUBCHEM_CACTVS_HBOND_DONOR>
1

> <PUBCHEM_CACTVS_ROTATABLE_BOND>
7

> <PUBCHEM_CACTVS_SUBSKEYS>
AAADceB7MAAGEAAAAAAAAAAAAAAAASAAAAA8YIAAAAAAAEgB9AAAHgJQAAABrA7BmCQwxsPABECIAqVSUAKCCAAlJwQIisHObugOZjLFt7/XOSjk1hHY65eY36LuABAAEAIIABQAIAAgBBAAKAAAAAAAAA==

> <PUBCHEM_IUPAC_OPENEYE_NAME>
5-bromo-N-[4-[4-(2,3-dichlorophenyl)piperazin-1-yl]butyl]benzofuran-2-carboxamide

> <PUBCHEM_IUPAC_CAS_NAME>
5-bromo-N-[4-[4-(2,3-dichlorophenyl)-1-piperazinyl]butyl]-2-benzofurancarboxamide

> <PUBCHEM_IUPAC_NAME_MARKUP>
5-bromo-<I>N</I>-[4-[4-(2,3-dichlorophenyl)piperazin-1-yl]butyl]-1-benzofuran-2-carboxamide

> <PUBCHEM_IUPAC_NAME>
5-bromo-N-[4-[4-(2,3-dichlorophenyl)piperazin-1-yl]butyl]-1-benzofuran-2-carboxamide

> <PUBCHEM_IUPAC_SYSTEMATIC_NAME>
N-[4-[4-[2,3-bis(chloranyl)phenyl]piperazin-1-yl]butyl]-5-bromanyl-1-benzofuran-2-carboxamide

> <PUBCHEM_IUPAC_TRADITIONAL_NAME>
5-bromo-N-[4-[4-(2,3-dichlorophenyl)piperazino]butyl]coumarilamide

> <PUBCHEM_IUPAC_INCHI>
InChI=1S/C23H24BrCl2N3O2/c24-17-6-7-20-16(14-17)15-21(31-20)23(30)27-8-1-2-9-28-10-12-29(13-11-28)19-5-3-4-18(25)22(19)26/h3-7,14-15H,1-2,8-13H2,(H,27,30)

> <PUBCHEM_IUPAC_INCHIKEY>
FNCWUZADAIADLQ-UHFFFAOYSA-N

> <PUBCHEM_XLOGP3_AA>
6.2

> <PUBCHEM_EXACT_MASS>
523.04289

> <PUBCHEM_MOLECULAR_FORMULA>
C23H24BrCl2N3O2

> <PUBCHEM_MOLECULAR_WEIGHT>
525.3

> <PUBCHEM_OPENEYE_CAN_SMILES>
C1CN(CCN1CCCCNC(=O)C2=CC3=C(O2)C=CC(=C3)Br)C4=C(C(=CC=C4)Cl)Cl

> <PUBCHEM_OPENEYE_ISO_SMILES>
C1CN(CCN1CCCCNC(=O)C2=CC3=C(O2)C=CC(=C3)Br)C4=C(C(=CC=C4)Cl)Cl

> <PUBCHEM_CACTVS_TPSA>
48.7

> <PUBCHEM_MONOISOTOPIC_WEIGHT>
523.04289

> <PUBCHEM_TOTAL_CHARGE>
0

> <PUBCHEM_HEAVY_ATOM_COUNT>
31

> <PUBCHEM_ATOM_DEF_STEREO_COUNT>
0

> <PUBCHEM_ATOM_UDEF_STEREO_COUNT>
0

> <PUBCHEM_BOND_DEF_STEREO_COUNT>
0

> <PUBCHEM_BOND_UDEF_STEREO_COUNT>
0

> <PUBCHEM_ISOTOPIC_ATOM_COUNT>
0

> <PUBCHEM_COMPONENT_COUNT>
1

> <PUBCHEM_CACTVS_TAUTO_COUNT>
-1

> <PUBCHEM_COORDINATE_TYPE>
1
5
255

> <PUBCHEM_BONDANNOTATIONS>
16  18  8
16  19  8
18  20  8
19  21  8
20  22  8
21  22  8
24  25  8
25  26  8
26  27  8
26  28  8
27  29  8
28  30  8
29  31  8
30  31  8
4  24  8
4  27  8

$$$$
