155563164
  -OEChem-09292322462D

 49 52  0     0  0  0  0  0  0999 V2000
    4.9889   -2.1949    0.0000 S   0  0  0  0  0  0  0  0  0  0  0  0
    5.9394   -1.8842    0.0000 O   0  0  0  0  0  0  0  0  0  0  0  0
    4.0384   -2.5055    0.0000 O   0  0  0  0  0  0  0  0  0  0  0  0
    3.0362    3.3529    0.0000 O   0  0  0  0  0  0  0  0  0  0  0  0
    4.6783   -1.2444    0.0000 N   0  0  0  0  0  0  0  0  0  0  0  0
    4.4026    2.1257    0.0000 N   0  0  0  0  0  0  0  0  0  0  0  0
    5.9422    2.6230    0.0000 N   0  0  0  0  0  0  0  0  0  0  0  0
    4.6844    3.8852    0.0000 N   0  0  0  0  0  0  0  0  0  0  0  0
    4.6783    0.3651    0.0000 C   0  0  0  0  0  0  0  0  0  0  0  0
    5.2619   -0.4396    0.0000 C   0  0  0  0  0  0  0  0  0  0  0  0
    3.7320   -0.9396    0.0000 C   0  0  0  0  0  0  0  0  0  0  0  0
    3.7320    0.0604    0.0000 C   0  0  0  0  0  0  0  0  0  0  0  0
    4.9889    1.3156    0.0000 C   0  0  0  0  0  0  0  0  0  0  0  0
    6.2619   -0.4396    0.0000 C   0  0  0  0  0  0  0  0  0  0  0  0
    2.8660   -1.4396    0.0000 C   0  0  0  0  0  0  0  0  0  0  0  0
    2.8660    0.5604    0.0000 C   0  0  0  0  0  0  0  0  0  0  0  0
    5.9405    1.6230    0.0000 C   0  0  0  0  0  0  0  0  0  0  0  0
    5.2996   -3.1454    0.0000 C   0  0  0  0  0  0  0  0  0  0  0  0
    2.0000   -0.9396    0.0000 C   0  0  0  0  0  0  0  0  0  0  0  0
    2.0000    0.0604    0.0000 C   0  0  0  0  0  0  0  0  0  0  0  0
    4.9917    2.9337    0.0000 C   0  0  0  0  0  0  0  0  0  0  0  0
    6.7485    1.0338    0.0000 C   0  0  0  0  0  0  0  0  0  0  0  0
    4.6318   -3.8897    0.0000 C   0  0  0  0  0  0  0  0  0  0  0  0
    6.2781   -3.3516    0.0000 C   0  0  0  0  0  0  0  0  0  0  0  0
    4.9424   -4.8402    0.0000 C   0  0  0  0  0  0  0  0  0  0  0  0
    6.5888   -4.3021    0.0000 C   0  0  0  0  0  0  0  0  0  0  0  0
    5.9209   -5.0464    0.0000 C   0  0  0  0  0  0  0  0  0  0  0  0
    3.7066    4.0948    0.0000 C   0  0  0  0  0  0  0  0  0  0  0  0
    3.3992    5.0464    0.0000 C   0  0  0  0  0  0  0  0  0  0  0  0
    6.2619   -1.0596    0.0000 H   0  0  0  0  0  0  0  0  0  0  0  0
    6.8819   -0.4396    0.0000 H   0  0  0  0  0  0  0  0  0  0  0  0
    6.2619    0.1804    0.0000 H   0  0  0  0  0  0  0  0  0  0  0  0
    2.8660   -2.0596    0.0000 H   0  0  0  0  0  0  0  0  0  0  0  0
    2.8660    1.1804    0.0000 H   0  0  0  0  0  0  0  0  0  0  0  0
    1.4631   -1.2496    0.0000 H   0  0  0  0  0  0  0  0  0  0  0  0
    1.4631    0.3704    0.0000 H   0  0  0  0  0  0  0  0  0  0  0  0
    6.4445    2.9865    0.0000 H   0  0  0  0  0  0  0  0  0  0  0  0
    6.3832    0.5329    0.0000 H   0  0  0  0  0  0  0  0  0  0  0  0
    7.2495    0.6685    0.0000 H   0  0  0  0  0  0  0  0  0  0  0  0
    7.1138    1.5348    0.0000 H   0  0  0  0  0  0  0  0  0  0  0  0
    4.0251   -3.7618    0.0000 H   0  0  0  0  0  0  0  0  0  0  0  0
    6.6922   -2.8902    0.0000 H   0  0  0  0  0  0  0  0  0  0  0  0
    5.1000    4.3453    0.0000 H   0  0  0  0  0  0  0  0  0  0  0  0
    4.5284   -5.3017    0.0000 H   0  0  0  0  0  0  0  0  0  0  0  0
    7.1954   -4.4300    0.0000 H   0  0  0  0  0  0  0  0  0  0  0  0
    6.1135   -5.6358    0.0000 H   0  0  0  0  0  0  0  0  0  0  0  0
    3.9892    5.2370    0.0000 H   0  0  0  0  0  0  0  0  0  0  0  0
    3.2086    5.6364    0.0000 H   0  0  0  0  0  0  0  0  0  0  0  0
    2.8092    4.8559    0.0000 H   0  0  0  0  0  0  0  0  0  0  0  0
  1  2  2  0  0  0  0
  1  3  2  0  0  0  0
  1  5  1  0  0  0  0
  1 18  1  0  0  0  0
  4 28  2  0  0  0  0
  5 10  1  0  0  0  0
  5 11  1  0  0  0  0
  6 13  1  0  0  0  0
  6 21  2  0  0  0  0
  7 17  1  0  0  0  0
  7 21  1  0  0  0  0
  7 37  1  0  0  0  0
  8 21  1  0  0  0  0
  8 28  1  0  0  0  0
  8 43  1  0  0  0  0
  9 10  2  0  0  0  0
  9 12  1  0  0  0  0
  9 13  1  0  0  0  0
 10 14  1  0  0  0  0
 11 12  1  0  0  0  0
 11 15  2  0  0  0  0
 12 16  2  0  0  0  0
 13 17  2  0  0  0  0
 14 30  1  0  0  0  0
 14 31  1  0  0  0  0
 14 32  1  0  0  0  0
 15 19  1  0  0  0  0
 15 33  1  0  0  0  0
 16 20  1  0  0  0  0
 16 34  1  0  0  0  0
 17 22  1  0  0  0  0
 18 23  2  0  0  0  0
 18 24  1  0  0  0  0
 19 20  2  0  0  0  0
 19 35  1  0  0  0  0
 20 36  1  0  0  0  0
 22 38  1  0  0  0  0
 22 39  1  0  0  0  0
 22 40  1  0  0  0  0
 23 25  1  0  0  0  0
 23 41  1  0  0  0  0
 24 26  2  0  0  0  0
 24 42  1  0  0  0  0
 25 27  2  0  0  0  0
 25 44  1  0  0  0  0
 26 27  1  0  0  0  0
 26 45  1  0  0  0  0
 27 46  1  0  0  0  0
 28 29  1  0  0  0  0
 29 47  1  0  0  0  0
 29 48  1  0  0  0  0
 29 49  1  0  0  0  0
M  END
> <PUBCHEM_COMPOUND_CID>
155563164

> <PUBCHEM_COMPOUND_CANONICALIZED>
1

> <PUBCHEM_CACTVS_COMPLEXITY>
703

> <PUBCHEM_CACTVS_HBOND_ACCEPTOR>
4

> <PUBCHEM_CACTVS_HBOND_DONOR>
2

> <PUBCHEM_CACTVS_ROTATABLE_BOND>
4

> <PUBCHEM_CACTVS_SUBSKEYS>
AAADceB7sABAAAAAAAAAAAAAAAAAAWLAAAAwYAAAAAAAAFgB/AAAHgQQQAAADAiB3gAz0fbJkAKoAyVydHDCgD2hEqAJmTgwdJiIaOLA2ZGUIAhokQLIyCcQgMAOgAAAAAACAAAAAAAAAAQAAAAAAAAAAA==

> <PUBCHEM_IUPAC_OPENEYE_NAME>
N-[4-[1-(benzenesulfonyl)-2-methyl-indol-3-yl]-5-methyl-1H-imidazol-2-yl]acetamide

> <PUBCHEM_IUPAC_CAS_NAME>
N-[4-[1-(benzenesulfonyl)-2-methyl-3-indolyl]-5-methyl-1H-imidazol-2-yl]acetamide

> <PUBCHEM_IUPAC_NAME_MARKUP>
<I>N</I>-[4-[1-(benzenesulfonyl)-2-methylindol-3-yl]-5-methyl-1<I>H</I>-imidazol-2-yl]acetamide

> <PUBCHEM_IUPAC_NAME>
N-[4-[1-(benzenesulfonyl)-2-methylindol-3-yl]-5-methyl-1H-imidazol-2-yl]acetamide

> <PUBCHEM_IUPAC_SYSTEMATIC_NAME>
N-[5-methyl-4-[2-methyl-1-(phenylsulfonyl)indol-3-yl]-1H-imidazol-2-yl]ethanamide

> <PUBCHEM_IUPAC_TRADITIONAL_NAME>
N-[4-(1-besyl-2-methyl-indol-3-yl)-5-methyl-1H-imidazol-2-yl]acetamide

> <PUBCHEM_IUPAC_INCHI>
InChI=1S/C21H20N4O3S/c1-13-20(24-21(22-13)23-15(3)26)19-14(2)25(18-12-8-7-11-17(18)19)29(27,28)16-9-5-4-6-10-16/h4-12H,1-3H3,(H2,22,23,24,26)

> <PUBCHEM_IUPAC_INCHIKEY>
BEEWYYBUVYXWGQ-UHFFFAOYSA-N

> <PUBCHEM_XLOGP3_AA>
3.3

> <PUBCHEM_EXACT_MASS>
408.12561169

> <PUBCHEM_MOLECULAR_FORMULA>
C21H20N4O3S

> <PUBCHEM_MOLECULAR_WEIGHT>
408.5

> <PUBCHEM_OPENEYE_CAN_SMILES>
CC1=C(N=C(N1)NC(=O)C)C2=C(N(C3=CC=CC=C32)S(=O)(=O)C4=CC=CC=C4)C

> <PUBCHEM_OPENEYE_ISO_SMILES>
CC1=C(N=C(N1)NC(=O)C)C2=C(N(C3=CC=CC=C32)S(=O)(=O)C4=CC=CC=C4)C

> <PUBCHEM_CACTVS_TPSA>
105

> <PUBCHEM_MONOISOTOPIC_WEIGHT>
408.12561169

> <PUBCHEM_TOTAL_CHARGE>
0

> <PUBCHEM_HEAVY_ATOM_COUNT>
29

> <PUBCHEM_ATOM_DEF_STEREO_COUNT>
0

> <PUBCHEM_ATOM_UDEF_STEREO_COUNT>
0

> <PUBCHEM_BOND_DEF_STEREO_COUNT>
0

> <PUBCHEM_BOND_UDEF_STEREO_COUNT>
0

> <PUBCHEM_ISOTOPIC_ATOM_COUNT>
0

> <PUBCHEM_COMPONENT_COUNT>
1

> <PUBCHEM_CACTVS_TAUTO_COUNT>
-1

> <PUBCHEM_COORDINATE_TYPE>
1
5
255

> <PUBCHEM_BONDANNOTATIONS>
11  12  8
11  15  8
12  16  8
13  17  8
15  19  8
16  20  8
18  23  8
18  24  8
19  20  8
23  25  8
24  26  8
25  27  8
26  27  8
5  10  8
5  11  8
6  13  8
6  21  8
7  17  8
7  21  8
9  10  8
9  12  8

$$$$
