10620194
  -OEChem-09292322132D

 59 62  0     1  0  0  0  0  0999 V2000
    4.0724    3.9162    0.0000 F   0  0  0  0  0  0  0  0  0  0  0  0
    9.5693   -0.4521    0.0000 O   0  0  0  0  0  0  0  0  0  0  0  0
    9.5693   -3.9162    0.0000 O   0  0  0  0  0  0  0  0  0  0  0  0
    9.5693   -2.1841    0.0000 N   0  0  0  0  0  0  0  0  0  0  0  0
    5.5693   -0.4521    0.0000 N   0  0  0  0  0  0  0  0  0  0  0  0
   11.5693   -2.1841    0.0000 C   0  0  0  0  0  0  0  0  0  0  0  0
   12.1570   -1.3751    0.0000 C   0  0  0  0  0  0  0  0  0  0  0  0
   12.1570   -2.9932    0.0000 C   0  0  0  0  0  0  0  0  0  0  0  0
   13.1081   -1.6841    0.0000 C   0  0  0  0  0  0  0  0  0  0  0  0
   13.1081   -2.6841    0.0000 C   0  0  0  0  0  0  0  0  0  0  0  0
   11.0693   -1.3181    0.0000 C   0  0  0  0  0  0  0  0  0  0  0  0
   11.0693   -3.0502    0.0000 C   0  0  0  0  0  0  0  0  0  0  0  0
   10.0693   -1.3181    0.0000 C   0  0  0  0  0  0  0  0  0  0  0  0
   10.0693   -3.0502    0.0000 C   0  0  0  0  0  0  0  0  0  0  0  0
    8.5693   -2.1841    0.0000 C   0  0  0  0  0  0  0  0  0  0  0  0
    8.0693   -1.3181    0.0000 C   0  0  0  0  0  0  0  0  0  0  0  0
    5.0693    0.4139    0.0000 C   0  0  2  0  0  0  0  0  0  0  0  0
    7.0693   -1.3181    0.0000 C   0  0  0  0  0  0  0  0  0  0  0  0
    5.5693    1.2800    0.0000 C   0  0  0  0  0  0  0  0  0  0  0  0
    4.0693    0.4139    0.0000 C   0  0  0  0  0  0  0  0  0  0  0  0
    6.5693   -0.4521    0.0000 C   0  0  0  0  0  0  0  0  0  0  0  0
    5.0693    2.1460    0.0000 C   0  0  0  0  0  0  0  0  0  0  0  0
    3.5693    1.2800    0.0000 C   0  0  0  0  0  0  0  0  0  0  0  0
    4.0693    2.1460    0.0000 C   0  0  0  0  0  0  0  0  0  0  0  0
    2.5278    1.2639    0.0000 C   0  0  0  0  0  0  0  0  0  0  0  0
    3.5624    3.0560    0.0000 C   0  0  0  0  0  0  0  0  0  0  0  0
    2.0000    2.1620    0.0000 C   0  0  0  0  0  0  0  0  0  0  0  0
    2.5208    3.0640    0.0000 C   0  0  0  0  0  0  0  0  0  0  0  0
   12.4092   -0.8087    0.0000 H   0  0  0  0  0  0  0  0  0  0  0  0
   11.6201   -1.0651    0.0000 H   0  0  0  0  0  0  0  0  0  0  0  0
   11.6201   -3.3032    0.0000 H   0  0  0  0  0  0  0  0  0  0  0  0
   12.4092   -3.5596    0.0000 H   0  0  0  0  0  0  0  0  0  0  0  0
   13.7247   -1.7489    0.0000 H   0  0  0  0  0  0  0  0  0  0  0  0
   13.2370   -1.0777    0.0000 H   0  0  0  0  0  0  0  0  0  0  0  0
   13.2370   -3.2906    0.0000 H   0  0  0  0  0  0  0  0  0  0  0  0
   13.7247   -2.6193    0.0000 H   0  0  0  0  0  0  0  0  0  0  0  0
   11.6519   -1.1060    0.0000 H   0  0  0  0  0  0  0  0  0  0  0  0
   10.9616   -0.7075    0.0000 H   0  0  0  0  0  0  0  0  0  0  0  0
   10.9616   -3.6607    0.0000 H   0  0  0  0  0  0  0  0  0  0  0  0
   11.6519   -3.2622    0.0000 H   0  0  0  0  0  0  0  0  0  0  0  0
    7.9866   -2.3962    0.0000 H   0  0  0  0  0  0  0  0  0  0  0  0
    8.6769   -2.7947    0.0000 H   0  0  0  0  0  0  0  0  0  0  0  0
    8.6519   -1.1060    0.0000 H   0  0  0  0  0  0  0  0  0  0  0  0
    7.9616   -0.7075    0.0000 H   0  0  0  0  0  0  0  0  0  0  0  0
    4.7593   -0.1230    0.0000 H   0  0  0  0  0  0  0  0  0  0  0  0
    6.4866   -1.5302    0.0000 H   0  0  0  0  0  0  0  0  0  0  0  0
    7.1769   -1.9287    0.0000 H   0  0  0  0  0  0  0  0  0  0  0  0
    6.0442    0.8814    0.0000 H   0  0  0  0  0  0  0  0  0  0  0  0
    6.0442    1.6785    0.0000 H   0  0  0  0  0  0  0  0  0  0  0  0
    3.4866    0.2019    0.0000 H   0  0  0  0  0  0  0  0  0  0  0  0
    4.1769   -0.1966    0.0000 H   0  0  0  0  0  0  0  0  0  0  0  0
    7.1519   -0.2400    0.0000 H   0  0  0  0  0  0  0  0  0  0  0  0
    6.4616    0.1585    0.0000 H   0  0  0  0  0  0  0  0  0  0  0  0
    5.2593   -0.9890    0.0000 H   0  0  0  0  0  0  0  0  0  0  0  0
    5.6519    2.3580    0.0000 H   0  0  0  0  0  0  0  0  0  0  0  0
    4.9616    2.7566    0.0000 H   0  0  0  0  0  0  0  0  0  0  0  0
    2.2240    0.7234    0.0000 H   0  0  0  0  0  0  0  0  0  0  0  0
    1.3800    2.1596    0.0000 H   0  0  0  0  0  0  0  0  0  0  0  0
    2.2129    3.6022    0.0000 H   0  0  0  0  0  0  0  0  0  0  0  0
  1 26  1  0  0  0  0
  2 13  2  0  0  0  0
  3 14  2  0  0  0  0
  4 13  1  0  0  0  0
  4 14  1  0  0  0  0
  4 15  1  0  0  0  0
 17  5  1  1  0  0  0
  5 21  1  0  0  0  0
  5 54  1  0  0  0  0
  6  7  1  0  0  0  0
  6  8  1  0  0  0  0
  6 11  1  0  0  0  0
  6 12  1  0  0  0  0
  7  9  1  0  0  0  0
  7 29  1  0  0  0  0
  7 30  1  0  0  0  0
  8 10  1  0  0  0  0
  8 31  1  0  0  0  0
  8 32  1  0  0  0  0
  9 10  1  0  0  0  0
  9 33  1  0  0  0  0
  9 34  1  0  0  0  0
 10 35  1  0  0  0  0
 10 36  1  0  0  0  0
 11 13  1  0  0  0  0
 11 37  1  0  0  0  0
 11 38  1  0  0  0  0
 12 14  1  0  0  0  0
 12 39  1  0  0  0  0
 12 40  1  0  0  0  0
 15 16  1  0  0  0  0
 15 41  1  0  0  0  0
 15 42  1  0  0  0  0
 16 18  1  0  0  0  0
 16 43  1  0  0  0  0
 16 44  1  0  0  0  0
 17 19  1  0  0  0  0
 17 20  1  0  0  0  0
 17 45  1  0  0  0  0
 18 21  1  0  0  0  0
 18 46  1  0  0  0  0
 18 47  1  0  0  0  0
 19 22  1  0  0  0  0
 19 48  1  0  0  0  0
 19 49  1  0  0  0  0
 20 23  1  0  0  0  0
 20 50  1  0  0  0  0
 20 51  1  0  0  0  0
 21 52  1  0  0  0  0
 21 53  1  0  0  0  0
 22 24  1  0  0  0  0
 22 55  1  0  0  0  0
 22 56  1  0  0  0  0
 23 24  2  0  0  0  0
 23 25  1  0  0  0  0
 24 26  1  0  0  0  0
 25 27  2  0  0  0  0
 25 57  1  0  0  0  0
 26 28  2  0  0  0  0
 27 28  1  0  0  0  0
 27 58  1  0  0  0  0
 28 59  1  0  0  0  0
M  END
> <PUBCHEM_COMPOUND_CID>
10620194

> <PUBCHEM_COMPOUND_CANONICALIZED>
1

> <PUBCHEM_CACTVS_COMPLEXITY>
555

> <PUBCHEM_CACTVS_HBOND_ACCEPTOR>
4

> <PUBCHEM_CACTVS_HBOND_DONOR>
1

> <PUBCHEM_CACTVS_ROTATABLE_BOND>
6

> <PUBCHEM_CACTVS_SUBSKEYS>
AAADceB7MQAAAAAAAAAAAAAAAAAAAYAAAAA8YIAAAAAAAADBAAAAHwAQAAAADijBmAwwAIPAAACIAiFSEAACAAAgAAAIiIEIAIgIIDKAkRGEIAAgliCIiAcYi4CPgAAAAAAQAAAQAACAACAAAAAAAAAAAA==

> <PUBCHEM_IUPAC_OPENEYE_NAME>
8-[4-[[(2R)-5-fluorotetralin-2-yl]amino]butyl]-8-azaspiro[4.5]decane-7,9-dione

> <PUBCHEM_IUPAC_CAS_NAME>
8-[4-[[(2R)-5-fluoro-1,2,3,4-tetrahydronaphthalen-2-yl]amino]butyl]-8-azaspiro[4.5]decane-7,9-dione

> <PUBCHEM_IUPAC_NAME_MARKUP>
8-[4-[[(2<I>R</I>)-5-fluoro-1,2,3,4-tetrahydronaphthalen-2-yl]amino]butyl]-8-azaspiro[4.5]decane-7,9-dione

> <PUBCHEM_IUPAC_NAME>
8-[4-[[(2R)-5-fluoro-1,2,3,4-tetrahydronaphthalen-2-yl]amino]butyl]-8-azaspiro[4.5]decane-7,9-dione

> <PUBCHEM_IUPAC_SYSTEMATIC_NAME>
8-[4-[[(2R)-5-fluoranyl-1,2,3,4-tetrahydronaphthalen-2-yl]amino]butyl]-8-azaspiro[4.5]decane-7,9-dione

> <PUBCHEM_IUPAC_TRADITIONAL_NAME>
8-[4-[[(2R)-5-fluorotetralin-2-yl]amino]butyl]-8-azaspiro[4.5]decane-7,9-quinone

> <PUBCHEM_IUPAC_INCHI>
InChI=1S/C23H31FN2O2/c24-20-7-5-6-17-14-18(8-9-19(17)20)25-12-3-4-13-26-21(27)15-23(16-22(26)28)10-1-2-11-23/h5-7,18,25H,1-4,8-16H2/t18-/m1/s1

> <PUBCHEM_IUPAC_INCHIKEY>
GVWRDZDVMQQZBK-GOSISDBHSA-N

> <PUBCHEM_XLOGP3_AA>
4

> <PUBCHEM_EXACT_MASS>
386.23695640

> <PUBCHEM_MOLECULAR_FORMULA>
C23H31FN2O2

> <PUBCHEM_MOLECULAR_WEIGHT>
386.5

> <PUBCHEM_OPENEYE_CAN_SMILES>
C1CCC2(C1)CC(=O)N(C(=O)C2)CCCCNC3CCC4=C(C3)C=CC=C4F

> <PUBCHEM_OPENEYE_ISO_SMILES>
C1CCC2(C1)CC(=O)N(C(=O)C2)CCCCN[C@@H]3CCC4=C(C3)C=CC=C4F

> <PUBCHEM_CACTVS_TPSA>
49.4

> <PUBCHEM_MONOISOTOPIC_WEIGHT>
386.23695640

> <PUBCHEM_TOTAL_CHARGE>
0

> <PUBCHEM_HEAVY_ATOM_COUNT>
28

> <PUBCHEM_ATOM_DEF_STEREO_COUNT>
1

> <PUBCHEM_ATOM_UDEF_STEREO_COUNT>
0

> <PUBCHEM_BOND_DEF_STEREO_COUNT>
0

> <PUBCHEM_BOND_UDEF_STEREO_COUNT>
0

> <PUBCHEM_ISOTOPIC_ATOM_COUNT>
0

> <PUBCHEM_COMPONENT_COUNT>
1

> <PUBCHEM_CACTVS_TAUTO_COUNT>
-1

> <PUBCHEM_COORDINATE_TYPE>
1
5
255

> <PUBCHEM_BONDANNOTATIONS>
23  24  8
23  25  8
24  26  8
25  27  8
26  28  8
27  28  8
17  5  5

$$$$
