44436605
  -OEChem-09292322252D

 54 56  0     0  0  0  0  0  0999 V2000
    2.0000   -5.5600    0.0000 Cl  0  0  0  0  0  0  0  0  0  0  0  0
    2.0000   -7.5600    0.0000 Cl  0  0  0  0  0  0  0  0  0  0  0  0
    7.1962    1.4400    0.0000 O   0  0  0  0  0  0  0  0  0  0  0  0
    3.7320   -2.5600    0.0000 N   0  0  0  0  0  0  0  0  0  0  0  0
    3.7320   -4.5600    0.0000 N   0  0  0  0  0  0  0  0  0  0  0  0
    5.4641    1.4400    0.0000 N   0  0  0  0  0  0  0  0  0  0  0  0
    2.8660   -3.0600    0.0000 C   0  0  0  0  0  0  0  0  0  0  0  0
    4.5981   -3.0600    0.0000 C   0  0  0  0  0  0  0  0  0  0  0  0
    2.8660   -4.0600    0.0000 C   0  0  0  0  0  0  0  0  0  0  0  0
    4.5981   -4.0600    0.0000 C   0  0  0  0  0  0  0  0  0  0  0  0
    3.7320   -1.5600    0.0000 C   0  0  0  0  0  0  0  0  0  0  0  0
    4.5981   -1.0600    0.0000 C   0  0  0  0  0  0  0  0  0  0  0  0
    3.7320   -5.5600    0.0000 C   0  0  0  0  0  0  0  0  0  0  0  0
    4.5981   -0.0600    0.0000 C   0  0  0  0  0  0  0  0  0  0  0  0
    5.4641    0.4400    0.0000 C   0  0  0  0  0  0  0  0  0  0  0  0
    2.8660   -6.0600    0.0000 C   0  0  0  0  0  0  0  0  0  0  0  0
    4.5981   -6.0600    0.0000 C   0  0  0  0  0  0  0  0  0  0  0  0
    2.8660   -7.0600    0.0000 C   0  0  0  0  0  0  0  0  0  0  0  0
    4.5981   -7.0600    0.0000 C   0  0  0  0  0  0  0  0  0  0  0  0
    3.7320   -7.5600    0.0000 C   0  0  0  0  0  0  0  0  0  0  0  0
    6.3301    1.9400    0.0000 C   0  0  0  0  0  0  0  0  0  0  0  0
    6.3301    2.9400    0.0000 C   0  0  0  0  0  0  0  0  0  0  0  0
    5.4641    3.4400    0.0000 C   0  0  0  0  0  0  0  0  0  0  0  0
    7.1962    3.4400    0.0000 C   0  0  0  0  0  0  0  0  0  0  0  0
    5.4641    4.4400    0.0000 C   0  0  0  0  0  0  0  0  0  0  0  0
    7.1962    4.4400    0.0000 C   0  0  0  0  0  0  0  0  0  0  0  0
    6.3301    4.9400    0.0000 C   0  0  0  0  0  0  0  0  0  0  0  0
    6.3301    5.9400    0.0000 C   0  0  0  0  0  0  0  0  0  0  0  0
    6.3301    6.9400    0.0000 C   0  0  0  0  0  0  0  0  0  0  0  0
    2.6540   -2.4774    0.0000 H   0  0  0  0  0  0  0  0  0  0  0  0
    2.2554   -3.1677    0.0000 H   0  0  0  0  0  0  0  0  0  0  0  0
    5.2087   -3.1677    0.0000 H   0  0  0  0  0  0  0  0  0  0  0  0
    4.8101   -2.4774    0.0000 H   0  0  0  0  0  0  0  0  0  0  0  0
    2.2554   -3.9523    0.0000 H   0  0  0  0  0  0  0  0  0  0  0  0
    2.6540   -4.6426    0.0000 H   0  0  0  0  0  0  0  0  0  0  0  0
    4.8101   -4.6426    0.0000 H   0  0  0  0  0  0  0  0  0  0  0  0
    5.2087   -3.9523    0.0000 H   0  0  0  0  0  0  0  0  0  0  0  0
    3.5200   -0.9774    0.0000 H   0  0  0  0  0  0  0  0  0  0  0  0
    3.1215   -1.6677    0.0000 H   0  0  0  0  0  0  0  0  0  0  0  0
    4.8101   -1.6426    0.0000 H   0  0  0  0  0  0  0  0  0  0  0  0
    5.2087   -0.9523    0.0000 H   0  0  0  0  0  0  0  0  0  0  0  0
    4.3860    0.5226    0.0000 H   0  0  0  0  0  0  0  0  0  0  0  0
    3.9875   -0.1677    0.0000 H   0  0  0  0  0  0  0  0  0  0  0  0
    5.6762   -0.1426    0.0000 H   0  0  0  0  0  0  0  0  0  0  0  0
    6.0747    0.5477    0.0000 H   0  0  0  0  0  0  0  0  0  0  0  0
    5.1350   -5.7500    0.0000 H   0  0  0  0  0  0  0  0  0  0  0  0
    4.9272    1.7500    0.0000 H   0  0  0  0  0  0  0  0  0  0  0  0
    5.1350   -7.3700    0.0000 H   0  0  0  0  0  0  0  0  0  0  0  0
    3.7320   -8.1800    0.0000 H   0  0  0  0  0  0  0  0  0  0  0  0
    4.9272    3.1300    0.0000 H   0  0  0  0  0  0  0  0  0  0  0  0
    7.7331    3.1300    0.0000 H   0  0  0  0  0  0  0  0  0  0  0  0
    4.9272    4.7500    0.0000 H   0  0  0  0  0  0  0  0  0  0  0  0
    7.7331    4.7500    0.0000 H   0  0  0  0  0  0  0  0  0  0  0  0
    6.3301    7.5600    0.0000 H   0  0  0  0  0  0  0  0  0  0  0  0
  1 16  1  0  0  0  0
  2 18  1  0  0  0  0
  3 21  2  0  0  0  0
  4  7  1  0  0  0  0
  4  8  1  0  0  0  0
  4 11  1  0  0  0  0
  5  9  1  0  0  0  0
  5 10  1  0  0  0  0
  5 13  1  0  0  0  0
  6 15  1  0  0  0  0
  6 21  1  0  0  0  0
  6 47  1  0  0  0  0
  7  9  1  0  0  0  0
  7 30  1  0  0  0  0
  7 31  1  0  0  0  0
  8 10  1  0  0  0  0
  8 32  1  0  0  0  0
  8 33  1  0  0  0  0
  9 34  1  0  0  0  0
  9 35  1  0  0  0  0
 10 36  1  0  0  0  0
 10 37  1  0  0  0  0
 11 12  1  0  0  0  0
 11 38  1  0  0  0  0
 11 39  1  0  0  0  0
 12 14  1  0  0  0  0
 12 40  1  0  0  0  0
 12 41  1  0  0  0  0
 13 16  2  0  0  0  0
 13 17  1  0  0  0  0
 14 15  1  0  0  0  0
 14 42  1  0  0  0  0
 14 43  1  0  0  0  0
 15 44  1  0  0  0  0
 15 45  1  0  0  0  0
 16 18  1  0  0  0  0
 17 19  2  0  0  0  0
 17 46  1  0  0  0  0
 18 20  2  0  0  0  0
 19 20  1  0  0  0  0
 19 48  1  0  0  0  0
 20 49  1  0  0  0  0
 21 22  1  0  0  0  0
 22 23  2  0  0  0  0
 22 24  1  0  0  0  0
 23 25  1  0  0  0  0
 23 50  1  0  0  0  0
 24 26  2  0  0  0  0
 24 51  1  0  0  0  0
 25 27  2  0  0  0  0
 25 52  1  0  0  0  0
 26 27  1  0  0  0  0
 26 53  1  0  0  0  0
 27 28  1  0  0  0  0
 28 29  3  0  0  0  0
 29 54  1  0  0  0  0
M  END
> <PUBCHEM_COMPOUND_CID>
44436605

> <PUBCHEM_COMPOUND_CANONICALIZED>
1

> <PUBCHEM_CACTVS_COMPLEXITY>
562

> <PUBCHEM_CACTVS_HBOND_ACCEPTOR>
3

> <PUBCHEM_CACTVS_HBOND_DONOR>
1

> <PUBCHEM_CACTVS_ROTATABLE_BOND>
8

> <PUBCHEM_CACTVS_SUBSKEYS>
AAADceB7IAAGAAAAAAAAAAAAAAAAAAAAAAA8YIAAAAAAAAABQAAAHgIQAAAADArBmCQwwIPAAADIGiVSUAiCAAAlBwAIisEIZsgIYDLBl5HUIQhglgDIyYcYiACOQAAAAAIAABSAAAAABAAAKAAAAAAAAA==

> <PUBCHEM_IUPAC_OPENEYE_NAME>
N-[4-[4-(2,3-dichlorophenyl)piperazin-1-yl]butyl]-4-ethynyl-benzamide

> <PUBCHEM_IUPAC_CAS_NAME>
N-[4-[4-(2,3-dichlorophenyl)-1-piperazinyl]butyl]-4-ethynylbenzamide

> <PUBCHEM_IUPAC_NAME_MARKUP>
<I>N</I>-[4-[4-(2,3-dichlorophenyl)piperazin-1-yl]butyl]-4-ethynylbenzamide

> <PUBCHEM_IUPAC_NAME>
N-[4-[4-(2,3-dichlorophenyl)piperazin-1-yl]butyl]-4-ethynylbenzamide

> <PUBCHEM_IUPAC_SYSTEMATIC_NAME>
N-[4-[4-[2,3-bis(chloranyl)phenyl]piperazin-1-yl]butyl]-4-ethynyl-benzamide

> <PUBCHEM_IUPAC_TRADITIONAL_NAME>
N-[4-[4-(2,3-dichlorophenyl)piperazino]butyl]-4-ethynyl-benzamide

> <PUBCHEM_IUPAC_INCHI>
InChI=1S/C23H25Cl2N3O/c1-2-18-8-10-19(11-9-18)23(29)26-12-3-4-13-27-14-16-28(17-15-27)21-7-5-6-20(24)22(21)25/h1,5-11H,3-4,12-17H2,(H,26,29)

> <PUBCHEM_IUPAC_INCHIKEY>
WOZSFGJKUOKIMV-UHFFFAOYSA-N

> <PUBCHEM_XLOGP3_AA>
5

> <PUBCHEM_EXACT_MASS>
429.1374678

> <PUBCHEM_MOLECULAR_FORMULA>
C23H25Cl2N3O

> <PUBCHEM_MOLECULAR_WEIGHT>
430.4

> <PUBCHEM_OPENEYE_CAN_SMILES>
C#CC1=CC=C(C=C1)C(=O)NCCCCN2CCN(CC2)C3=C(C(=CC=C3)Cl)Cl

> <PUBCHEM_OPENEYE_ISO_SMILES>
C#CC1=CC=C(C=C1)C(=O)NCCCCN2CCN(CC2)C3=C(C(=CC=C3)Cl)Cl

> <PUBCHEM_CACTVS_TPSA>
35.6

> <PUBCHEM_MONOISOTOPIC_WEIGHT>
429.1374678

> <PUBCHEM_TOTAL_CHARGE>
0

> <PUBCHEM_HEAVY_ATOM_COUNT>
29

> <PUBCHEM_ATOM_DEF_STEREO_COUNT>
0

> <PUBCHEM_ATOM_UDEF_STEREO_COUNT>
0

> <PUBCHEM_BOND_DEF_STEREO_COUNT>
0

> <PUBCHEM_BOND_UDEF_STEREO_COUNT>
0

> <PUBCHEM_ISOTOPIC_ATOM_COUNT>
0

> <PUBCHEM_COMPONENT_COUNT>
1

> <PUBCHEM_CACTVS_TAUTO_COUNT>
-1

> <PUBCHEM_COORDINATE_TYPE>
1
5
255

> <PUBCHEM_BONDANNOTATIONS>
13  16  8
13  17  8
16  18  8
17  19  8
18  20  8
19  20  8
22  23  8
22  24  8
23  25  8
24  26  8
25  27  8
26  27  8

$$$$
