17756102
  -OEChem-09292322252D

 50 52  0     1  0  0  0  0  0999 V2000
    8.5873    2.6581    0.0000 O   0  0  0  0  0  0  0  0  0  0  0  0
    5.5176   -2.7921    0.0000 N   0  0  3  0  0  0  0  0  0  0  0  0
    6.8836   -1.4260    0.0000 C   0  0  0  0  0  0  0  0  0  0  0  0
    6.0176   -1.9260    0.0000 C   0  0  0  0  0  0  0  0  0  0  0  0
    4.5176   -2.7921    0.0000 C   0  0  0  0  0  0  0  0  0  0  0  0
    3.8104   -2.0850    0.0000 C   0  0  0  0  0  0  0  0  0  0  0  0
    6.8013   -0.3870    0.0000 C   0  0  0  0  0  0  0  0  0  0  0  0
    4.0693   -1.1190    0.0000 C   0  0  0  0  0  0  0  0  0  0  0  0
    6.8013    0.6130    0.0000 C   0  0  0  0  0  0  0  0  0  0  0  0
    5.0693    0.6130    0.0000 C   0  0  0  0  0  0  0  0  0  0  0  0
    3.5693   -0.2530    0.0000 C   0  0  0  0  0  0  0  0  0  0  0  0
    5.9353    1.1130    0.0000 C   0  0  0  0  0  0  0  0  0  0  0  0
    4.0693    0.6130    0.0000 C   0  0  0  0  0  0  0  0  0  0  0  0
    6.0176   -3.6581    0.0000 C   0  0  0  0  0  0  0  0  0  0  0  0
    7.7113    1.1198    0.0000 C   0  0  0  0  0  0  0  0  0  0  0  0
    5.9192    2.1545    0.0000 C   0  0  0  0  0  0  0  0  0  0  0  0
    2.5278   -0.2691    0.0000 C   0  0  0  0  0  0  0  0  0  0  0  0
    3.5624    1.5230    0.0000 C   0  0  0  0  0  0  0  0  0  0  0  0
    7.7193    2.1614    0.0000 C   0  0  0  0  0  0  0  0  0  0  0  0
    6.8173    2.6823    0.0000 C   0  0  0  0  0  0  0  0  0  0  0  0
    2.0000    0.6290    0.0000 C   0  0  0  0  0  0  0  0  0  0  0  0
    2.5208    1.5310    0.0000 C   0  0  0  0  0  0  0  0  0  0  0  0
    8.5911    3.6581    0.0000 C   0  0  0  0  0  0  0  0  0  0  0  0
    7.1109   -2.0029    0.0000 H   0  0  0  0  0  0  0  0  0  0  0  0
    7.4876   -1.2864    0.0000 H   0  0  0  0  0  0  0  0  0  0  0  0
    5.9099   -1.3155    0.0000 H   0  0  0  0  0  0  0  0  0  0  0  0
    6.4560   -2.3645    0.0000 H   0  0  0  0  0  0  0  0  0  0  0  0
    3.9806   -3.1021    0.0000 H   0  0  0  0  0  0  0  0  0  0  0  0
    4.6780   -3.3910    0.0000 H   0  0  0  0  0  0  0  0  0  0  0  0
    3.2485   -1.8230    0.0000 H   0  0  0  0  0  0  0  0  0  0  0  0
    3.4548   -2.5928    0.0000 H   0  0  0  0  0  0  0  0  0  0  0  0
    6.2564   -0.0912    0.0000 H   0  0  0  0  0  0  0  0  0  0  0  0
    7.4208   -0.3625    0.0000 H   0  0  0  0  0  0  0  0  0  0  0  0
    4.6062   -1.4290    0.0000 H   0  0  0  0  0  0  0  0  0  0  0  0
    4.5077   -0.6806    0.0000 H   0  0  0  0  0  0  0  0  0  0  0  0
    4.8572    0.0304    0.0000 H   0  0  0  0  0  0  0  0  0  0  0  0
    4.9088    1.2119    0.0000 H   0  0  0  0  0  0  0  0  0  0  0  0
    5.4806   -3.9681    0.0000 H   0  0  0  0  0  0  0  0  0  0  0  0
    6.3275   -4.1950    0.0000 H   0  0  0  0  0  0  0  0  0  0  0  0
    6.5545   -3.3481    0.0000 H   0  0  0  0  0  0  0  0  0  0  0  0
    8.2446    0.8037    0.0000 H   0  0  0  0  0  0  0  0  0  0  0  0
    5.3787    2.4583    0.0000 H   0  0  0  0  0  0  0  0  0  0  0  0
    2.2240   -0.8096    0.0000 H   0  0  0  0  0  0  0  0  0  0  0  0
    3.8786    2.0563    0.0000 H   0  0  0  0  0  0  0  0  0  0  0  0
    6.8149    3.3023    0.0000 H   0  0  0  0  0  0  0  0  0  0  0  0
    1.3800    0.6266    0.0000 H   0  0  0  0  0  0  0  0  0  0  0  0
    2.2129    2.0692    0.0000 H   0  0  0  0  0  0  0  0  0  0  0  0
    9.2111    3.6557    0.0000 H   0  0  0  0  0  0  0  0  0  0  0  0
    8.5935    4.2781    0.0000 H   0  0  0  0  0  0  0  0  0  0  0  0
    7.9712    3.6605    0.0000 H   0  0  0  0  0  0  0  0  0  0  0  0
  1 19  1  0  0  0  0
  1 23  1  0  0  0  0
  2  4  1  0  0  0  0
  2  5  1  0  0  0  0
  2 14  1  0  0  0  0
  3  4  1  0  0  0  0
  3  7  1  0  0  0  0
  3 24  1  0  0  0  0
  3 25  1  0  0  0  0
  4 26  1  0  0  0  0
  4 27  1  0  0  0  0
  5  6  1  0  0  0  0
  5 28  1  0  0  0  0
  5 29  1  0  0  0  0
  6  8  1  0  0  0  0
  6 30  1  0  0  0  0
  6 31  1  0  0  0  0
  7  9  1  0  0  0  0
  7 32  1  0  0  0  0
  7 33  1  0  0  0  0
  8 11  1  0  0  0  0
  8 34  1  0  0  0  0
  8 35  1  0  0  0  0
  9 12  2  0  0  0  0
  9 15  1  0  0  0  0
 10 12  1  0  0  0  0
 10 13  1  0  0  0  0
 10 36  1  0  0  0  0
 10 37  1  0  0  0  0
 11 13  1  0  0  0  0
 11 17  2  0  0  0  0
 12 16  1  0  0  0  0
 13 18  2  0  0  0  0
 14 38  1  0  0  0  0
 14 39  1  0  0  0  0
 14 40  1  0  0  0  0
 15 19  2  0  0  0  0
 15 41  1  0  0  0  0
 16 20  2  0  0  0  0
 16 42  1  0  0  0  0
 17 21  1  0  0  0  0
 17 43  1  0  0  0  0
 18 22  1  0  0  0  0
 18 44  1  0  0  0  0
 19 20  1  0  0  0  0
 20 45  1  0  0  0  0
 21 22  2  0  0  0  0
 21 46  1  0  0  0  0
 22 47  1  0  0  0  0
 23 48  1  0  0  0  0
 23 49  1  0  0  0  0
 23 50  1  0  0  0  0
M  END
> <PUBCHEM_COMPOUND_CID>
17756102

> <PUBCHEM_COMPOUND_CANONICALIZED>
1

> <PUBCHEM_CACTVS_COMPLEXITY>
345

> <PUBCHEM_CACTVS_HBOND_ACCEPTOR>
2

> <PUBCHEM_CACTVS_HBOND_DONOR>
0

> <PUBCHEM_CACTVS_ROTATABLE_BOND>
1

> <PUBCHEM_CACTVS_SUBSKEYS>
AAADceB6IAAAAAAAAAAAAAAAAAAAAAAAAAAwYAAAAAAAAAABQAAAHgAAAAAADATBmAYyBoMABACAAiBCAAACCAAgIAAIiAAOCIgMJiKEsRqEMCAkwBGIqAeQwPAOoAABAAAQAABAAAIAACAAAAAAAAAAAA==

> <PUBCHEM_IUPAC_OPENEYE_NAME>
6-methoxy-12-methyl-12-azatricyclo[14.4.0.03,8]icosa-1(20),3(8),4,6,16,18-hexaene

> <PUBCHEM_IUPAC_CAS_NAME>
6-methoxy-12-methyl-12-azatricyclo[14.4.0.03,8]eicosa-1(20),3(8),4,6,16,18-hexaene

> <PUBCHEM_IUPAC_NAME_MARKUP>
6-methoxy-12-methyl-12-azatricyclo[14.4.0.0<SUP>3,8</SUP>]icosa-1(20),3(8),4,6,16,18-hexaene

> <PUBCHEM_IUPAC_NAME>
6-methoxy-12-methyl-12-azatricyclo[14.4.0.03,8]icosa-1(20),3(8),4,6,16,18-hexaene

> <PUBCHEM_IUPAC_SYSTEMATIC_NAME>
6-methoxy-12-methyl-12-azatricyclo[14.4.0.03,8]icosa-1(20),3(8),4,6,16,18-hexaene

> <PUBCHEM_IUPAC_TRADITIONAL_NAME>
6-methoxy-12-methyl-12-azatricyclo[14.4.0.03,8]eicosa-1(20),3(8),4,6,16,18-hexaene

> <PUBCHEM_IUPAC_INCHI>
InChI=1S/C21H27NO/c1-22-13-5-9-17-7-3-4-8-18(17)15-20-11-12-21(23-2)16-19(20)10-6-14-22/h3-4,7-8,11-12,16H,5-6,9-10,13-15H2,1-2H3

> <PUBCHEM_IUPAC_INCHIKEY>
FTEVXGASDTUTGT-UHFFFAOYSA-N

> <PUBCHEM_XLOGP3_AA>
4.9

> <PUBCHEM_EXACT_MASS>
309.209264485

> <PUBCHEM_MOLECULAR_FORMULA>
C21H27NO

> <PUBCHEM_MOLECULAR_WEIGHT>
309.4

> <PUBCHEM_OPENEYE_CAN_SMILES>
CN1CCCC2=CC=CC=C2CC3=C(CCC1)C=C(C=C3)OC

> <PUBCHEM_OPENEYE_ISO_SMILES>
CN1CCCC2=CC=CC=C2CC3=C(CCC1)C=C(C=C3)OC

> <PUBCHEM_CACTVS_TPSA>
12.5

> <PUBCHEM_MONOISOTOPIC_WEIGHT>
309.209264485

> <PUBCHEM_TOTAL_CHARGE>
0

> <PUBCHEM_HEAVY_ATOM_COUNT>
23

> <PUBCHEM_ATOM_DEF_STEREO_COUNT>
0

> <PUBCHEM_ATOM_UDEF_STEREO_COUNT>
0

> <PUBCHEM_BOND_DEF_STEREO_COUNT>
0

> <PUBCHEM_BOND_UDEF_STEREO_COUNT>
0

> <PUBCHEM_ISOTOPIC_ATOM_COUNT>
0

> <PUBCHEM_COMPONENT_COUNT>
1

> <PUBCHEM_CACTVS_TAUTO_COUNT>
-1

> <PUBCHEM_COORDINATE_TYPE>
1
5
255

> <PUBCHEM_BONDANNOTATIONS>
11  13  8
11  17  8
12  16  8
13  18  8
15  19  8
16  20  8
17  21  8
18  22  8
19  20  8
21  22  8
9  12  8
9  15  8

$$$$
