155512487
  -OEChem-09292322402D

 45 48  0     0  0  0  0  0  0999 V2000
    2.0000   -2.4722    0.0000 F   0  0  0  0  0  0  0  0  0  0  0  0
    9.3849    0.9040    0.0000 O   0  0  0  0  0  0  0  0  0  0  0  0
   12.6267    4.2495    0.0000 O   0  0  0  0  0  0  0  0  0  0  0  0
    7.1441   -0.5602    0.0000 N   0  0  0  0  0  0  0  0  0  0  0  0
    5.5443   -4.2769    0.0000 N   0  0  0  0  0  0  0  0  0  0  0  0
    5.8550   -1.7169    0.0000 C   0  0  0  0  0  0  0  0  0  0  0  0
    5.5443   -2.6674    0.0000 C   0  0  0  0  0  0  0  0  0  0  0  0
    4.5981   -2.9722    0.0000 C   0  0  0  0  0  0  0  0  0  0  0  0
    6.8335   -1.5107    0.0000 C   0  0  0  0  0  0  0  0  0  0  0  0
    4.5981   -3.9722    0.0000 C   0  0  0  0  0  0  0  0  0  0  0  0
    6.1279   -3.4722    0.0000 C   0  0  0  0  0  0  0  0  0  0  0  0
    8.1226   -0.3539    0.0000 C   0  0  0  0  0  0  0  0  0  0  0  0
    3.7320   -2.4722    0.0000 C   0  0  0  0  0  0  0  0  0  0  0  0
    8.4333    0.5966    0.0000 C   0  0  0  0  0  0  0  0  0  0  0  0
    3.7320   -4.4722    0.0000 C   0  0  0  0  0  0  0  0  0  0  0  0
    2.8660   -2.9722    0.0000 C   0  0  0  0  0  0  0  0  0  0  0  0
    2.8660   -3.9722    0.0000 C   0  0  0  0  0  0  0  0  0  0  0  0
    9.3866    1.9040    0.0000 C   0  0  0  0  0  0  0  0  0  0  0  0
    7.8469    1.4066    0.0000 C   0  0  0  0  0  0  0  0  0  0  0  0
    8.4361    2.2146    0.0000 C   0  0  0  0  0  0  0  0  0  0  0  0
   10.1966    2.4903    0.0000 C   0  0  0  0  0  0  0  0  0  0  0  0
   10.0938    3.4850    0.0000 C   0  0  0  0  0  0  0  0  0  0  0  0
   11.1095    2.0820    0.0000 C   0  0  0  0  0  0  0  0  0  0  0  0
   10.9039    4.0714    0.0000 C   0  0  0  0  0  0  0  0  0  0  0  0
   11.9195    2.6684    0.0000 C   0  0  0  0  0  0  0  0  0  0  0  0
   11.8167    3.6631    0.0000 C   0  0  0  0  0  0  0  0  0  0  0  0
    5.8344   -1.0972    0.0000 H   0  0  0  0  0  0  0  0  0  0  0  0
    5.2411   -1.6296    0.0000 H   0  0  0  0  0  0  0  0  0  0  0  0
    6.8540   -2.1303    0.0000 H   0  0  0  0  0  0  0  0  0  0  0  0
    7.4473   -1.5980    0.0000 H   0  0  0  0  0  0  0  0  0  0  0  0
    6.7479   -3.4722    0.0000 H   0  0  0  0  0  0  0  0  0  0  0  0
    6.7301   -0.0987    0.0000 H   0  0  0  0  0  0  0  0  0  0  0  0
    5.7369   -4.8662    0.0000 H   0  0  0  0  0  0  0  0  0  0  0  0
    8.1432   -0.9736    0.0000 H   0  0  0  0  0  0  0  0  0  0  0  0
    8.7364   -0.4413    0.0000 H   0  0  0  0  0  0  0  0  0  0  0  0
    3.7320   -1.8522    0.0000 H   0  0  0  0  0  0  0  0  0  0  0  0
    3.7320   -5.0922    0.0000 H   0  0  0  0  0  0  0  0  0  0  0  0
    2.3291   -4.2822    0.0000 H   0  0  0  0  0  0  0  0  0  0  0  0
    7.2269    1.4077    0.0000 H   0  0  0  0  0  0  0  0  0  0  0  0
    8.2455    2.8046    0.0000 H   0  0  0  0  0  0  0  0  0  0  0  0
    9.5279    3.7382    0.0000 H   0  0  0  0  0  0  0  0  0  0  0  0
   11.1732    1.4653    0.0000 H   0  0  0  0  0  0  0  0  0  0  0  0
   10.8401    4.6881    0.0000 H   0  0  0  0  0  0  0  0  0  0  0  0
   12.4855    2.4152    0.0000 H   0  0  0  0  0  0  0  0  0  0  0  0
   12.5630    4.8662    0.0000 H   0  0  0  0  0  0  0  0  0  0  0  0
  1 16  1  0  0  0  0
  2 14  1  0  0  0  0
  2 18  1  0  0  0  0
  3 26  1  0  0  0  0
  3 45  1  0  0  0  0
  4  9  1  0  0  0  0
  4 12  1  0  0  0  0
  4 32  1  0  0  0  0
  5 10  1  0  0  0  0
  5 11  1  0  0  0  0
  5 33  1  0  0  0  0
  6  7  1  0  0  0  0
  6  9  1  0  0  0  0
  6 27  1  0  0  0  0
  6 28  1  0  0  0  0
  7  8  1  0  0  0  0
  7 11  2  0  0  0  0
  8 10  2  0  0  0  0
  8 13  1  0  0  0  0
  9 29  1  0  0  0  0
  9 30  1  0  0  0  0
 10 15  1  0  0  0  0
 11 31  1  0  0  0  0
 12 14  1  0  0  0  0
 12 34  1  0  0  0  0
 12 35  1  0  0  0  0
 13 16  2  0  0  0  0
 13 36  1  0  0  0  0
 14 19  2  0  0  0  0
 15 17  2  0  0  0  0
 15 37  1  0  0  0  0
 16 17  1  0  0  0  0
 17 38  1  0  0  0  0
 18 20  2  0  0  0  0
 18 21  1  0  0  0  0
 19 20  1  0  0  0  0
 19 39  1  0  0  0  0
 20 40  1  0  0  0  0
 21 22  2  0  0  0  0
 21 23  1  0  0  0  0
 22 24  1  0  0  0  0
 22 41  1  0  0  0  0
 23 25  2  0  0  0  0
 23 42  1  0  0  0  0
 24 26  2  0  0  0  0
 24 43  1  0  0  0  0
 25 26  1  0  0  0  0
 25 44  1  0  0  0  0
M  END
> <PUBCHEM_COMPOUND_CID>
155512487

> <PUBCHEM_COMPOUND_CANONICALIZED>
1

> <PUBCHEM_CACTVS_COMPLEXITY>
444

> <PUBCHEM_CACTVS_HBOND_ACCEPTOR>
4

> <PUBCHEM_CACTVS_HBOND_DONOR>
3

> <PUBCHEM_CACTVS_ROTATABLE_BOND>
6

> <PUBCHEM_CACTVS_SUBSKEYS>
AAADceB7MQAAAAAAAAAAAAAAAAAAAWJAAAAwYAAAAAAAAFgB/AAAHwAQCAAADAzBngw8xvLJlkCoA7R3RACCiCA1IiAI2aG+bNgOJvLGtbuHeSjk0BHY+YeY/f7OoAAAAAACAABAAAAAAAQAAAAAAAAAAA==

> <PUBCHEM_IUPAC_OPENEYE_NAME>
4-[5-[[2-(5-fluoro-1H-indol-3-yl)ethylamino]methyl]-2-furyl]phenol

> <PUBCHEM_IUPAC_CAS_NAME>
4-[5-[[2-(5-fluoro-1H-indol-3-yl)ethylamino]methyl]-2-furanyl]phenol

> <PUBCHEM_IUPAC_NAME_MARKUP>
4-[5-[[2-(5-fluoro-1<I>H</I>-indol-3-yl)ethylamino]methyl]furan-2-yl]phenol

> <PUBCHEM_IUPAC_NAME>
4-[5-[[2-(5-fluoro-1H-indol-3-yl)ethylamino]methyl]furan-2-yl]phenol

> <PUBCHEM_IUPAC_SYSTEMATIC_NAME>
4-[5-[[2-(5-fluoranyl-1H-indol-3-yl)ethylamino]methyl]furan-2-yl]phenol

> <PUBCHEM_IUPAC_TRADITIONAL_NAME>
4-[5-[[2-(5-fluoro-1H-indol-3-yl)ethylamino]methyl]-2-furyl]phenol

> <PUBCHEM_IUPAC_INCHI>
InChI=1S/C21H19FN2O2/c22-16-3-7-20-19(11-16)15(12-24-20)9-10-23-13-18-6-8-21(26-18)14-1-4-17(25)5-2-14/h1-8,11-12,23-25H,9-10,13H2

> <PUBCHEM_IUPAC_INCHIKEY>
YKUHLXRZNYUNSP-UHFFFAOYSA-N

> <PUBCHEM_XLOGP3_AA>
3.9

> <PUBCHEM_EXACT_MASS>
350.14305602

> <PUBCHEM_MOLECULAR_FORMULA>
C21H19FN2O2

> <PUBCHEM_MOLECULAR_WEIGHT>
350.4

> <PUBCHEM_OPENEYE_CAN_SMILES>
C1=CC(=CC=C1C2=CC=C(O2)CNCCC3=CNC4=C3C=C(C=C4)F)O

> <PUBCHEM_OPENEYE_ISO_SMILES>
C1=CC(=CC=C1C2=CC=C(O2)CNCCC3=CNC4=C3C=C(C=C4)F)O

> <PUBCHEM_CACTVS_TPSA>
61.2

> <PUBCHEM_MONOISOTOPIC_WEIGHT>
350.14305602

> <PUBCHEM_TOTAL_CHARGE>
0

> <PUBCHEM_HEAVY_ATOM_COUNT>
26

> <PUBCHEM_ATOM_DEF_STEREO_COUNT>
0

> <PUBCHEM_ATOM_UDEF_STEREO_COUNT>
0

> <PUBCHEM_BOND_DEF_STEREO_COUNT>
0

> <PUBCHEM_BOND_UDEF_STEREO_COUNT>
0

> <PUBCHEM_ISOTOPIC_ATOM_COUNT>
0

> <PUBCHEM_COMPONENT_COUNT>
1

> <PUBCHEM_CACTVS_TAUTO_COUNT>
-1

> <PUBCHEM_COORDINATE_TYPE>
1
5
255

> <PUBCHEM_BONDANNOTATIONS>
10  15  8
13  16  8
14  19  8
15  17  8
16  17  8
18  20  8
19  20  8
2  14  8
2  18  8
21  22  8
21  23  8
22  24  8
23  25  8
24  26  8
25  26  8
5  10  8
5  11  8
7  11  8
7  8  8
8  10  8
8  13  8

$$$$
