72164182
  -OEChem-09292322342D

 36 38  0     0  0  0  0  0  0999 V2000
    2.0000   -3.3512    0.0000 Cl  0  0  0  0  0  0  0  0  0  0  0  0
    3.7320   -4.3512    0.0000 Cl  0  0  0  0  0  0  0  0  0  0  0  0
    4.7026    4.1433    0.0000 S   0  0  0  0  0  0  0  0  0  0  0  0
    3.7320    1.6488    0.0000 N   0  0  0  0  0  0  0  0  0  0  0  0
    3.7320   -0.3512    0.0000 N   0  0  0  0  0  0  0  0  0  0  0  0
    2.8660    1.1488    0.0000 C   0  0  0  0  0  0  0  0  0  0  0  0
    4.5981    1.1488    0.0000 C   0  0  0  0  0  0  0  0  0  0  0  0
    2.8660    0.1488    0.0000 C   0  0  0  0  0  0  0  0  0  0  0  0
    4.5981    0.1488    0.0000 C   0  0  0  0  0  0  0  0  0  0  0  0
    3.7320    2.6488    0.0000 C   0  0  0  0  0  0  0  0  0  0  0  0
    3.7320   -1.3512    0.0000 C   0  0  0  0  0  0  0  0  0  0  0  0
    4.5981    3.1488    0.0000 C   0  0  0  0  0  0  0  0  0  0  0  0
    2.8660   -1.8512    0.0000 C   0  0  0  0  0  0  0  0  0  0  0  0
    4.5981   -1.8512    0.0000 C   0  0  0  0  0  0  0  0  0  0  0  0
    5.5116    2.7420    0.0000 C   0  0  0  0  0  0  0  0  0  0  0  0
    2.8660   -2.8512    0.0000 C   0  0  0  0  0  0  0  0  0  0  0  0
    4.5981   -2.8512    0.0000 C   0  0  0  0  0  0  0  0  0  0  0  0
    3.7320   -3.3512    0.0000 C   0  0  0  0  0  0  0  0  0  0  0  0
    6.1808    3.4852    0.0000 C   0  0  0  0  0  0  0  0  0  0  0  0
    5.6808    4.3512    0.0000 C   0  0  0  0  0  0  0  0  0  0  0  0
    2.6540    1.7314    0.0000 H   0  0  0  0  0  0  0  0  0  0  0  0
    2.2554    1.0411    0.0000 H   0  0  0  0  0  0  0  0  0  0  0  0
    5.2087    1.0411    0.0000 H   0  0  0  0  0  0  0  0  0  0  0  0
    4.8101    1.7314    0.0000 H   0  0  0  0  0  0  0  0  0  0  0  0
    2.2554    0.2564    0.0000 H   0  0  0  0  0  0  0  0  0  0  0  0
    2.6540   -0.4338    0.0000 H   0  0  0  0  0  0  0  0  0  0  0  0
    4.8101   -0.4338    0.0000 H   0  0  0  0  0  0  0  0  0  0  0  0
    5.2087    0.2564    0.0000 H   0  0  0  0  0  0  0  0  0  0  0  0
    3.5200    3.2314    0.0000 H   0  0  0  0  0  0  0  0  0  0  0  0
    3.1215    2.5411    0.0000 H   0  0  0  0  0  0  0  0  0  0  0  0
    2.3291   -1.5412    0.0000 H   0  0  0  0  0  0  0  0  0  0  0  0
    5.1350   -1.5412    0.0000 H   0  0  0  0  0  0  0  0  0  0  0  0
    5.6405    2.1356    0.0000 H   0  0  0  0  0  0  0  0  0  0  0  0
    5.1350   -3.1612    0.0000 H   0  0  0  0  0  0  0  0  0  0  0  0
    6.7974    3.4204    0.0000 H   0  0  0  0  0  0  0  0  0  0  0  0
    5.9329    4.9176    0.0000 H   0  0  0  0  0  0  0  0  0  0  0  0
  1 16  1  0  0  0  0
  2 18  1  0  0  0  0
  3 12  1  0  0  0  0
  3 20  1  0  0  0  0
  4  6  1  0  0  0  0
  4  7  1  0  0  0  0
  4 10  1  0  0  0  0
  5  8  1  0  0  0  0
  5  9  1  0  0  0  0
  5 11  1  0  0  0  0
  6  8  1  0  0  0  0
  6 21  1  0  0  0  0
  6 22  1  0  0  0  0
  7  9  1  0  0  0  0
  7 23  1  0  0  0  0
  7 24  1  0  0  0  0
  8 25  1  0  0  0  0
  8 26  1  0  0  0  0
  9 27  1  0  0  0  0
  9 28  1  0  0  0  0
 10 12  1  0  0  0  0
 10 29  1  0  0  0  0
 10 30  1  0  0  0  0
 11 13  2  0  0  0  0
 11 14  1  0  0  0  0
 12 15  2  0  0  0  0
 13 16  1  0  0  0  0
 13 31  1  0  0  0  0
 14 17  2  0  0  0  0
 14 32  1  0  0  0  0
 15 19  1  0  0  0  0
 15 33  1  0  0  0  0
 16 18  2  0  0  0  0
 17 18  1  0  0  0  0
 17 34  1  0  0  0  0
 19 20  2  0  0  0  0
 19 35  1  0  0  0  0
 20 36  1  0  0  0  0
M  END
> <PUBCHEM_COMPOUND_CID>
72164182

> <PUBCHEM_COMPOUND_CANONICALIZED>
1

> <PUBCHEM_CACTVS_COMPLEXITY>
310

> <PUBCHEM_CACTVS_HBOND_ACCEPTOR>
3

> <PUBCHEM_CACTVS_HBOND_DONOR>
0

> <PUBCHEM_CACTVS_ROTATABLE_BOND>
3

> <PUBCHEM_CACTVS_SUBSKEYS>
AAADceBzAABGAAAAAAAAAAAAAAAAASAAAAA8QAAAAAAAAAABwAAAHAYAAAAACArFUCSwwYMAAAiEACRCQACDAIAhDxBIilgIZogIYCLhk5GUIAhggADoyAcQAAAAAABAAAIAAAQAAIAABAAACAAAAAAAAA==

> <PUBCHEM_IUPAC_OPENEYE_NAME>
1-(3,4-dichlorophenyl)-4-(2-thienylmethyl)piperazine

> <PUBCHEM_IUPAC_CAS_NAME>
1-(3,4-dichlorophenyl)-4-(thiophen-2-ylmethyl)piperazine

> <PUBCHEM_IUPAC_NAME_MARKUP>
1-(3,4-dichlorophenyl)-4-(thiophen-2-ylmethyl)piperazine

> <PUBCHEM_IUPAC_NAME>
1-(3,4-dichlorophenyl)-4-(thiophen-2-ylmethyl)piperazine

> <PUBCHEM_IUPAC_SYSTEMATIC_NAME>
1-(3,4-dichlorophenyl)-4-(thiophen-2-ylmethyl)piperazine

> <PUBCHEM_IUPAC_TRADITIONAL_NAME>
1-(3,4-dichlorophenyl)-4-(2-thenyl)piperazine

> <PUBCHEM_IUPAC_INCHI>
InChI=1S/C15H16Cl2N2S/c16-14-4-3-12(10-15(14)17)19-7-5-18(6-8-19)11-13-2-1-9-20-13/h1-4,9-10H,5-8,11H2

> <PUBCHEM_IUPAC_INCHIKEY>
JKFIWLJVMRKLFE-UHFFFAOYSA-N

> <PUBCHEM_XLOGP3_AA>
4.3

> <PUBCHEM_EXACT_MASS>
326.0411251

> <PUBCHEM_MOLECULAR_FORMULA>
C15H16Cl2N2S

> <PUBCHEM_MOLECULAR_WEIGHT>
327.3

> <PUBCHEM_OPENEYE_CAN_SMILES>
C1CN(CCN1CC2=CC=CS2)C3=CC(=C(C=C3)Cl)Cl

> <PUBCHEM_OPENEYE_ISO_SMILES>
C1CN(CCN1CC2=CC=CS2)C3=CC(=C(C=C3)Cl)Cl

> <PUBCHEM_CACTVS_TPSA>
34.7

> <PUBCHEM_MONOISOTOPIC_WEIGHT>
326.0411251

> <PUBCHEM_TOTAL_CHARGE>
0

> <PUBCHEM_HEAVY_ATOM_COUNT>
20

> <PUBCHEM_ATOM_DEF_STEREO_COUNT>
0

> <PUBCHEM_ATOM_UDEF_STEREO_COUNT>
0

> <PUBCHEM_BOND_DEF_STEREO_COUNT>
0

> <PUBCHEM_BOND_UDEF_STEREO_COUNT>
0

> <PUBCHEM_ISOTOPIC_ATOM_COUNT>
0

> <PUBCHEM_COMPONENT_COUNT>
1

> <PUBCHEM_CACTVS_TAUTO_COUNT>
-1

> <PUBCHEM_COORDINATE_TYPE>
1
5
255

> <PUBCHEM_BONDANNOTATIONS>
11  13  8
11  14  8
12  15  8
13  16  8
14  17  8
15  19  8
16  18  8
17  18  8
19  20  8
3  12  8
3  20  8

$$$$
