10643047
  -OEChem-09292322142D

 54 57  0     0  0  0  0  0  0999 V2000
    3.6750   -5.0684    0.0000 S   0  0  0  0  0  0  0  0  0  0  0  0
    2.8660   -1.4806    0.0000 N   0  0  0  0  0  0  0  0  0  0  0  0
    3.7320    4.0194    0.0000 N   0  0  0  0  0  0  0  0  0  0  0  0
    2.8660   -3.4806    0.0000 N   0  0  0  0  0  0  0  0  0  0  0  0
    4.5981    5.5194    0.0000 N   0  0  0  0  0  0  0  0  0  0  0  0
    5.4641    4.0194    0.0000 N   0  0  0  0  0  0  0  0  0  0  0  0
    2.0570   -5.0684    0.0000 N   0  0  0  0  0  0  0  0  0  0  0  0
    3.7320    1.0194    0.0000 C   0  0  0  0  0  0  0  0  0  0  0  0
    2.8660    1.5194    0.0000 C   0  0  0  0  0  0  0  0  0  0  0  0
    4.5981    1.5194    0.0000 C   0  0  0  0  0  0  0  0  0  0  0  0
    3.7320    3.0194    0.0000 C   0  0  0  0  0  0  0  0  0  0  0  0
    2.8660    2.5194    0.0000 C   0  0  0  0  0  0  0  0  0  0  0  0
    4.5981    2.5194    0.0000 C   0  0  0  0  0  0  0  0  0  0  0  0
    3.7320    0.0194    0.0000 C   0  0  0  0  0  0  0  0  0  0  0  0
    2.8660   -0.4806    0.0000 C   0  0  0  0  0  0  0  0  0  0  0  0
    3.7320   -1.9806    0.0000 C   0  0  0  0  0  0  0  0  0  0  0  0
    2.0000   -1.9806    0.0000 C   0  0  0  0  0  0  0  0  0  0  0  0
    3.7320   -2.9806    0.0000 C   0  0  0  0  0  0  0  0  0  0  0  0
    2.0000   -2.9806    0.0000 C   0  0  0  0  0  0  0  0  0  0  0  0
    4.5981    4.5194    0.0000 C   0  0  0  0  0  0  0  0  0  0  0  0
    2.8660   -4.4806    0.0000 C   0  0  0  0  0  0  0  0  0  0  0  0
    3.3660   -6.0194    0.0000 C   0  0  0  0  0  0  0  0  0  0  0  0
    2.3660   -6.0194    0.0000 C   0  0  0  0  0  0  0  0  0  0  0  0
    5.4641    6.0194    0.0000 C   0  0  0  0  0  0  0  0  0  0  0  0
    6.3301    4.5194    0.0000 C   0  0  0  0  0  0  0  0  0  0  0  0
    6.3301    5.5194    0.0000 C   0  0  0  0  0  0  0  0  0  0  0  0
    4.2690    0.7094    0.0000 H   0  0  0  0  0  0  0  0  0  0  0  0
    2.2554    1.6271    0.0000 H   0  0  0  0  0  0  0  0  0  0  0  0
    2.6540    0.9368    0.0000 H   0  0  0  0  0  0  0  0  0  0  0  0
    4.8101    0.9368    0.0000 H   0  0  0  0  0  0  0  0  0  0  0  0
    5.2087    1.6271    0.0000 H   0  0  0  0  0  0  0  0  0  0  0  0
    4.2690    3.3294    0.0000 H   0  0  0  0  0  0  0  0  0  0  0  0
    2.6540    3.1020    0.0000 H   0  0  0  0  0  0  0  0  0  0  0  0
    2.2554    2.4118    0.0000 H   0  0  0  0  0  0  0  0  0  0  0  0
    5.2087    2.4118    0.0000 H   0  0  0  0  0  0  0  0  0  0  0  0
    4.8101    3.1020    0.0000 H   0  0  0  0  0  0  0  0  0  0  0  0
    3.9441   -0.5632    0.0000 H   0  0  0  0  0  0  0  0  0  0  0  0
    4.3426    0.1271    0.0000 H   0  0  0  0  0  0  0  0  0  0  0  0
    2.6540    0.1020    0.0000 H   0  0  0  0  0  0  0  0  0  0  0  0
    2.2554   -0.5882    0.0000 H   0  0  0  0  0  0  0  0  0  0  0  0
    4.3426   -2.0882    0.0000 H   0  0  0  0  0  0  0  0  0  0  0  0
    3.9441   -1.3980    0.0000 H   0  0  0  0  0  0  0  0  0  0  0  0
    1.7880   -1.3980    0.0000 H   0  0  0  0  0  0  0  0  0  0  0  0
    1.3894   -2.0882    0.0000 H   0  0  0  0  0  0  0  0  0  0  0  0
    3.1951    4.3294    0.0000 H   0  0  0  0  0  0  0  0  0  0  0  0
    3.9441   -3.5632    0.0000 H   0  0  0  0  0  0  0  0  0  0  0  0
    4.3426   -2.8729    0.0000 H   0  0  0  0  0  0  0  0  0  0  0  0
    1.3894   -2.8729    0.0000 H   0  0  0  0  0  0  0  0  0  0  0  0
    1.7880   -3.5632    0.0000 H   0  0  0  0  0  0  0  0  0  0  0  0
    3.7304   -6.5210    0.0000 H   0  0  0  0  0  0  0  0  0  0  0  0
    2.0016   -6.5210    0.0000 H   0  0  0  0  0  0  0  0  0  0  0  0
    5.4641    6.6394    0.0000 H   0  0  0  0  0  0  0  0  0  0  0  0
    6.8671    4.2094    0.0000 H   0  0  0  0  0  0  0  0  0  0  0  0
    6.8671    5.8294    0.0000 H   0  0  0  0  0  0  0  0  0  0  0  0
  1 21  1  0  0  0  0
  1 22  1  0  0  0  0
  2 15  1  0  0  0  0
  2 16  1  0  0  0  0
  2 17  1  0  0  0  0
  3 11  1  0  0  0  0
  3 20  1  0  0  0  0
  3 45  1  0  0  0  0
  4 18  1  0  0  0  0
  4 19  1  0  0  0  0
  4 21  1  0  0  0  0
  5 20  2  0  0  0  0
  5 24  1  0  0  0  0
  6 20  1  0  0  0  0
  6 25  2  0  0  0  0
  7 21  2  0  0  0  0
  7 23  1  0  0  0  0
  8  9  1  0  0  0  0
  8 10  1  0  0  0  0
  8 14  1  0  0  0  0
  8 27  1  0  0  0  0
  9 12  1  0  0  0  0
  9 28  1  0  0  0  0
  9 29  1  0  0  0  0
 10 13  1  0  0  0  0
 10 30  1  0  0  0  0
 10 31  1  0  0  0  0
 11 12  1  0  0  0  0
 11 13  1  0  0  0  0
 11 32  1  0  0  0  0
 12 33  1  0  0  0  0
 12 34  1  0  0  0  0
 13 35  1  0  0  0  0
 13 36  1  0  0  0  0
 14 15  1  0  0  0  0
 14 37  1  0  0  0  0
 14 38  1  0  0  0  0
 15 39  1  0  0  0  0
 15 40  1  0  0  0  0
 16 18  1  0  0  0  0
 16 41  1  0  0  0  0
 16 42  1  0  0  0  0
 17 19  1  0  0  0  0
 17 43  1  0  0  0  0
 17 44  1  0  0  0  0
 18 46  1  0  0  0  0
 18 47  1  0  0  0  0
 19 48  1  0  0  0  0
 19 49  1  0  0  0  0
 22 23  2  0  0  0  0
 22 50  1  0  0  0  0
 23 51  1  0  0  0  0
 24 26  2  0  0  0  0
 24 52  1  0  0  0  0
 25 26  1  0  0  0  0
 25 53  1  0  0  0  0
 26 54  1  0  0  0  0
M  END
> <PUBCHEM_COMPOUND_CID>
10643047

> <PUBCHEM_COMPOUND_CANONICALIZED>
1

> <PUBCHEM_CACTVS_COMPLEXITY>
403

> <PUBCHEM_CACTVS_HBOND_ACCEPTOR>
7

> <PUBCHEM_CACTVS_HBOND_DONOR>
1

> <PUBCHEM_CACTVS_ROTATABLE_BOND>
6

> <PUBCHEM_CACTVS_SUBSKEYS>
AAADceB7gABAAAAAAAAAAAAAAAAAAWAAAAA8WIAAAAAAAAAB4AAAHAQQAAAADSjFUgS9kZfIEAikADBnZACA8KlRCrhJUKw4ZBCASIJAyUAUBAgIEALAACEQgIAOAAAAAAAAAAAQAAAAAAAAAAAAAAAAAA==

> <PUBCHEM_IUPAC_OPENEYE_NAME>
N-[4-[2-(4-thiazol-2-ylpiperazin-1-yl)ethyl]cyclohexyl]pyrimidin-2-amine

> <PUBCHEM_IUPAC_CAS_NAME>
N-[4-[2-[4-(2-thiazolyl)-1-piperazinyl]ethyl]cyclohexyl]-2-pyrimidinamine

> <PUBCHEM_IUPAC_NAME_MARKUP>
<I>N</I>-[4-[2-[4-(1,3-thiazol-2-yl)piperazin-1-yl]ethyl]cyclohexyl]pyrimidin-2-amine

> <PUBCHEM_IUPAC_NAME>
N-[4-[2-[4-(1,3-thiazol-2-yl)piperazin-1-yl]ethyl]cyclohexyl]pyrimidin-2-amine

> <PUBCHEM_IUPAC_SYSTEMATIC_NAME>
N-[4-[2-[4-(1,3-thiazol-2-yl)piperazin-1-yl]ethyl]cyclohexyl]pyrimidin-2-amine

> <PUBCHEM_IUPAC_TRADITIONAL_NAME>
2-pyrimidyl-[4-[2-(4-thiazol-2-ylpiperazino)ethyl]cyclohexyl]amine

> <PUBCHEM_IUPAC_INCHI>
InChI=1S/C19H28N6S/c1-7-20-18(21-8-1)23-17-4-2-16(3-5-17)6-10-24-11-13-25(14-12-24)19-22-9-15-26-19/h1,7-9,15-17H,2-6,10-14H2,(H,20,21,23)

> <PUBCHEM_IUPAC_INCHIKEY>
MTQWOJOFKUQLJW-UHFFFAOYSA-N

> <PUBCHEM_XLOGP3_AA>
3.4

> <PUBCHEM_EXACT_MASS>
372.20961609

> <PUBCHEM_MOLECULAR_FORMULA>
C19H28N6S

> <PUBCHEM_MOLECULAR_WEIGHT>
372.5

> <PUBCHEM_OPENEYE_CAN_SMILES>
C1CC(CCC1CCN2CCN(CC2)C3=NC=CS3)NC4=NC=CC=N4

> <PUBCHEM_OPENEYE_ISO_SMILES>
C1CC(CCC1CCN2CCN(CC2)C3=NC=CS3)NC4=NC=CC=N4

> <PUBCHEM_CACTVS_TPSA>
85.4

> <PUBCHEM_MONOISOTOPIC_WEIGHT>
372.20961609

> <PUBCHEM_TOTAL_CHARGE>
0

> <PUBCHEM_HEAVY_ATOM_COUNT>
26

> <PUBCHEM_ATOM_DEF_STEREO_COUNT>
0

> <PUBCHEM_ATOM_UDEF_STEREO_COUNT>
0

> <PUBCHEM_BOND_DEF_STEREO_COUNT>
0

> <PUBCHEM_BOND_UDEF_STEREO_COUNT>
0

> <PUBCHEM_ISOTOPIC_ATOM_COUNT>
0

> <PUBCHEM_COMPONENT_COUNT>
1

> <PUBCHEM_CACTVS_TAUTO_COUNT>
-1

> <PUBCHEM_COORDINATE_TYPE>
1
5
255

> <PUBCHEM_BONDANNOTATIONS>
1  21  8
1  22  8
22  23  8
24  26  8
25  26  8
5  20  8
5  24  8
6  20  8
6  25  8
7  21  8
7  23  8

$$$$
