24900689
  -OEChem-09292321592D

 63 66  0     1  0  0  0  0  0999 V2000
   13.3385   -2.0403    0.0000 S   0  0  0  0  0  0  0  0  0  0  0  0
   12.3923   -0.3450    0.0000 O   0  0  0  0  0  0  0  0  0  0  0  0
   11.5263   -4.8450    0.0000 O   0  0  0  0  0  0  0  0  0  0  0  0
   14.9221   -2.8450    0.0000 O   0  0  0  0  0  0  0  0  0  0  0  0
    4.5981    4.1550    0.0000 O   0  0  0  0  0  0  0  0  0  0  0  0
   10.6603    0.6550    0.0000 N   0  0  0  0  0  0  0  0  0  0  0  0
   13.3385   -3.6497    0.0000 N   0  0  0  0  0  0  0  0  0  0  0  0
    5.4641    2.6550    0.0000 N   0  0  0  0  0  0  0  0  0  0  0  0
   11.5263   -0.8450    0.0000 C   0  0  1  0  0  0  0  0  0  0  0  0
   10.6603   -0.3450    0.0000 C   0  0  0  0  0  0  0  0  0  0  0  0
   11.5263   -1.8450    0.0000 C   0  0  0  0  0  0  0  0  0  0  0  0
    9.7942    1.1550    0.0000 C   0  0  0  0  0  0  0  0  0  0  0  0
    9.7942    2.1550    0.0000 C   0  0  0  0  0  0  0  0  0  0  0  0
   12.3923   -2.3450    0.0000 C   0  0  0  0  0  0  0  0  0  0  0  0
    8.9282    2.6550    0.0000 C   0  0  0  0  0  0  0  0  0  0  0  0
   12.3923   -3.3450    0.0000 C   0  0  0  0  0  0  0  0  0  0  0  0
   10.6603   -2.3450    0.0000 C   0  0  0  0  0  0  0  0  0  0  0  0
    7.1962    2.6550    0.0000 C   0  0  0  0  0  0  0  0  0  0  0  0
    8.0622    2.1550    0.0000 C   0  0  0  0  0  0  0  0  0  0  0  0
    6.3301    2.1550    0.0000 C   0  0  0  0  0  0  0  0  0  0  0  0
   11.5263   -3.8450    0.0000 C   0  0  0  0  0  0  0  0  0  0  0  0
    8.9282    3.6550    0.0000 C   0  0  0  0  0  0  0  0  0  0  0  0
   10.6603   -3.3450    0.0000 C   0  0  0  0  0  0  0  0  0  0  0  0
    7.1962    3.6550    0.0000 C   0  0  0  0  0  0  0  0  0  0  0  0
    8.0622    4.1550    0.0000 C   0  0  0  0  0  0  0  0  0  0  0  0
    4.5981    2.1550    0.0000 C   0  0  0  0  0  0  0  0  0  0  0  0
   13.9221   -2.8450    0.0000 C   0  0  0  0  0  0  0  0  0  0  0  0
    3.7320    2.6550    0.0000 C   0  0  0  0  0  0  0  0  0  0  0  0
    3.7320    3.6550    0.0000 C   0  0  0  0  0  0  0  0  0  0  0  0
    2.8660    2.1550    0.0000 C   0  0  0  0  0  0  0  0  0  0  0  0
    2.8660    4.1550    0.0000 C   0  0  0  0  0  0  0  0  0  0  0  0
    2.0000    2.6550    0.0000 C   0  0  0  0  0  0  0  0  0  0  0  0
    2.0000    3.6550    0.0000 C   0  0  0  0  0  0  0  0  0  0  0  0
    4.5981    5.1550    0.0000 C   0  0  0  0  0  0  0  0  0  0  0  0
   12.0632   -1.1550    0.0000 H   0  0  0  0  0  0  0  0  0  0  0  0
   10.0497   -0.2373    0.0000 H   0  0  0  0  0  0  0  0  0  0  0  0
   10.4482   -0.9276    0.0000 H   0  0  0  0  0  0  0  0  0  0  0  0
    9.1836    1.2627    0.0000 H   0  0  0  0  0  0  0  0  0  0  0  0
    9.5822    0.5724    0.0000 H   0  0  0  0  0  0  0  0  0  0  0  0
   10.4048    2.0473    0.0000 H   0  0  0  0  0  0  0  0  0  0  0  0
   10.0063    2.7376    0.0000 H   0  0  0  0  0  0  0  0  0  0  0  0
   11.1972    0.9650    0.0000 H   0  0  0  0  0  0  0  0  0  0  0  0
   10.1233   -2.0350    0.0000 H   0  0  0  0  0  0  0  0  0  0  0  0
    8.0622    1.5350    0.0000 H   0  0  0  0  0  0  0  0  0  0  0  0
    5.9316    1.6800    0.0000 H   0  0  0  0  0  0  0  0  0  0  0  0
    6.7287    1.6800    0.0000 H   0  0  0  0  0  0  0  0  0  0  0  0
    9.4651    3.9650    0.0000 H   0  0  0  0  0  0  0  0  0  0  0  0
   10.1233   -3.6550    0.0000 H   0  0  0  0  0  0  0  0  0  0  0  0
   13.5311   -4.2391    0.0000 H   0  0  0  0  0  0  0  0  0  0  0  0
    6.6592    3.9650    0.0000 H   0  0  0  0  0  0  0  0  0  0  0  0
   12.3923    0.2750    0.0000 H   0  0  0  0  0  0  0  0  0  0  0  0
    5.4641    3.2750    0.0000 H   0  0  0  0  0  0  0  0  0  0  0  0
    8.0622    4.7750    0.0000 H   0  0  0  0  0  0  0  0  0  0  0  0
    4.1996    1.6800    0.0000 H   0  0  0  0  0  0  0  0  0  0  0  0
    4.9966    1.6800    0.0000 H   0  0  0  0  0  0  0  0  0  0  0  0
    2.8660    1.5350    0.0000 H   0  0  0  0  0  0  0  0  0  0  0  0
   10.9893   -5.1550    0.0000 H   0  0  0  0  0  0  0  0  0  0  0  0
    2.8660    4.7750    0.0000 H   0  0  0  0  0  0  0  0  0  0  0  0
    1.4631    2.3450    0.0000 H   0  0  0  0  0  0  0  0  0  0  0  0
    1.4631    3.9650    0.0000 H   0  0  0  0  0  0  0  0  0  0  0  0
    5.2181    5.1550    0.0000 H   0  0  0  0  0  0  0  0  0  0  0  0
    4.5981    5.7750    0.0000 H   0  0  0  0  0  0  0  0  0  0  0  0
    3.9781    5.1550    0.0000 H   0  0  0  0  0  0  0  0  0  0  0  0
  1 14  1  0  0  0  0
  1 27  1  0  0  0  0
  9  2  1  6  0  0  0
  2 51  1  0  0  0  0
  3 21  1  0  0  0  0
  3 57  1  0  0  0  0
  4 27  2  0  0  0  0
  5 29  1  0  0  0  0
  5 34  1  0  0  0  0
  6 10  1  0  0  0  0
  6 12  1  0  0  0  0
  6 42  1  0  0  0  0
  7 16  1  0  0  0  0
  7 27  1  0  0  0  0
  7 49  1  0  0  0  0
  8 20  1  0  0  0  0
  8 26  1  0  0  0  0
  8 52  1  0  0  0  0
  9 10  1  0  0  0  0
  9 11  1  0  0  0  0
  9 35  1  0  0  0  0
 10 36  1  0  0  0  0
 10 37  1  0  0  0  0
 11 14  2  0  0  0  0
 11 17  1  0  0  0  0
 12 13  1  0  0  0  0
 12 38  1  0  0  0  0
 12 39  1  0  0  0  0
 13 15  1  0  0  0  0
 13 40  1  0  0  0  0
 13 41  1  0  0  0  0
 14 16  1  0  0  0  0
 15 19  2  0  0  0  0
 15 22  1  0  0  0  0
 16 21  2  0  0  0  0
 17 23  2  0  0  0  0
 17 43  1  0  0  0  0
 18 19  1  0  0  0  0
 18 20  1  0  0  0  0
 18 24  2  0  0  0  0
 19 44  1  0  0  0  0
 20 45  1  0  0  0  0
 20 46  1  0  0  0  0
 21 23  1  0  0  0  0
 22 25  2  0  0  0  0
 22 47  1  0  0  0  0
 23 48  1  0  0  0  0
 24 25  1  0  0  0  0
 24 50  1  0  0  0  0
 25 53  1  0  0  0  0
 26 28  1  0  0  0  0
 26 54  1  0  0  0  0
 26 55  1  0  0  0  0
 28 29  1  0  0  0  0
 28 30  2  0  0  0  0
 29 31  2  0  0  0  0
 30 32  1  0  0  0  0
 30 56  1  0  0  0  0
 31 33  1  0  0  0  0
 31 58  1  0  0  0  0
 32 33  2  0  0  0  0
 32 59  1  0  0  0  0
 33 60  1  0  0  0  0
 34 61  1  0  0  0  0
 34 62  1  0  0  0  0
 34 63  1  0  0  0  0
M  END
> <PUBCHEM_COMPOUND_CID>
24900689

> <PUBCHEM_COMPOUND_CANONICALIZED>
1

> <PUBCHEM_CACTVS_COMPLEXITY>
641

> <PUBCHEM_CACTVS_HBOND_ACCEPTOR>
7

> <PUBCHEM_CACTVS_HBOND_DONOR>
5

> <PUBCHEM_CACTVS_ROTATABLE_BOND>
11

> <PUBCHEM_CACTVS_SUBSKEYS>
AAADceB7OABAAAAAAAAAAAAAAAAAAWAAAAAwYMAAAAAAAFgBUAAAHgQQCAAADBzh2AYyx4LABgiIAiRCUACCCABhKBAIiJQPTIgONiL2sZuEcChm1BHY+Aew4OQOIAACRAAMEQBAAASIABgiAAAAAAAAAA==

> <PUBCHEM_IUPAC_OPENEYE_NAME>
4-hydroxy-7-[(1R)-1-hydroxy-2-[2-[3-[[(2-methoxyphenyl)methylamino]methyl]phenyl]ethylamino]ethyl]-3H-1,3-benzothiazol-2-one

> <PUBCHEM_IUPAC_CAS_NAME>
4-hydroxy-7-[(1R)-1-hydroxy-2-[2-[3-[[(2-methoxyphenyl)methylamino]methyl]phenyl]ethylamino]ethyl]-3H-1,3-benzothiazol-2-one

> <PUBCHEM_IUPAC_NAME_MARKUP>
4-hydroxy-7-[(1<I>R</I>)-1-hydroxy-2-[2-[3-[[(2-methoxyphenyl)methylamino]methyl]phenyl]ethylamino]ethyl]-3<I>H</I>-1,3-benzothiazol-2-one

> <PUBCHEM_IUPAC_NAME>
4-hydroxy-7-[(1R)-1-hydroxy-2-[2-[3-[[(2-methoxyphenyl)methylamino]methyl]phenyl]ethylamino]ethyl]-3H-1,3-benzothiazol-2-one

> <PUBCHEM_IUPAC_SYSTEMATIC_NAME>
7-[(1R)-2-[2-[3-[[(2-methoxyphenyl)methylamino]methyl]phenyl]ethylamino]-1-oxidanyl-ethyl]-4-oxidanyl-3H-1,3-benzothiazol-2-one

> <PUBCHEM_IUPAC_TRADITIONAL_NAME>
4-hydroxy-7-[(1R)-1-hydroxy-2-[2-[3-[(o-anisylamino)methyl]phenyl]ethylamino]ethyl]-3H-1,3-benzothiazol-2-one

> <PUBCHEM_IUPAC_INCHI>
InChI=1S/C26H29N3O4S/c1-33-23-8-3-2-7-19(23)15-28-14-18-6-4-5-17(13-18)11-12-27-16-22(31)20-9-10-21(30)24-25(20)34-26(32)29-24/h2-10,13,22,27-28,30-31H,11-12,14-16H2,1H3,(H,29,32)/t22-/m0/s1

> <PUBCHEM_IUPAC_INCHIKEY>
VKCKAMBPNXKGHL-QFIPXVFZSA-N

> <PUBCHEM_XLOGP3_AA>
2.8

> <PUBCHEM_EXACT_MASS>
479.18787759

> <PUBCHEM_MOLECULAR_FORMULA>
C26H29N3O4S

> <PUBCHEM_MOLECULAR_WEIGHT>
479.6

> <PUBCHEM_OPENEYE_CAN_SMILES>
COC1=CC=CC=C1CNCC2=CC=CC(=C2)CCNCC(C3=C4C(=C(C=C3)O)NC(=O)S4)O

> <PUBCHEM_OPENEYE_ISO_SMILES>
COC1=CC=CC=C1CNCC2=CC=CC(=C2)CCNC[C@@H](C3=C4C(=C(C=C3)O)NC(=O)S4)O

> <PUBCHEM_CACTVS_TPSA>
128

> <PUBCHEM_MONOISOTOPIC_WEIGHT>
479.18787759

> <PUBCHEM_TOTAL_CHARGE>
0

> <PUBCHEM_HEAVY_ATOM_COUNT>
34

> <PUBCHEM_ATOM_DEF_STEREO_COUNT>
1

> <PUBCHEM_ATOM_UDEF_STEREO_COUNT>
0

> <PUBCHEM_BOND_DEF_STEREO_COUNT>
0

> <PUBCHEM_BOND_UDEF_STEREO_COUNT>
0

> <PUBCHEM_ISOTOPIC_ATOM_COUNT>
0

> <PUBCHEM_COMPONENT_COUNT>
1

> <PUBCHEM_CACTVS_TAUTO_COUNT>
-1

> <PUBCHEM_COORDINATE_TYPE>
1
5
255

> <PUBCHEM_BONDANNOTATIONS>
1  14  8
1  27  8
11  14  8
11  17  8
14  16  8
15  19  8
15  22  8
16  21  8
17  23  8
18  19  8
18  24  8
9  2  6
21  23  8
22  25  8
24  25  8
28  29  8
28  30  8
29  31  8
30  32  8
31  33  8
32  33  8
7  16  8
7  27  8

$$$$
