25450664
  -OEChem-09292322462D

 53 56  0     1  0  0  0  0  0999 V2000
    4.6783    1.6167    0.0000 O   0  0  0  0  0  0  0  0  0  0  0  0
    8.5983   -0.8933    0.0000 O   0  0  0  0  0  0  0  0  0  0  0  0
   13.2230   -3.0147    0.0000 O   0  0  0  0  0  0  0  0  0  0  0  0
   13.9275   -1.4324    0.0000 O   0  0  0  0  0  0  0  0  0  0  0  0
    6.7619    1.5554    0.0000 N   0  0  3  0  0  0  0  0  0  0  0  0
    9.2564    0.5849    0.0000 N   0  0  0  0  0  0  0  0  0  0  0  0
    5.2619    2.4215    0.0000 C   0  0  1  0  0  0  0  0  0  0  0  0
    4.6783    3.2262    0.0000 C   0  0  0  0  0  0  0  0  0  0  0  0
    6.2619    2.4215    0.0000 C   0  0  0  0  0  0  0  0  0  0  0  0
    3.7320    2.9215    0.0000 C   0  0  0  0  0  0  0  0  0  0  0  0
    3.7320    1.9215    0.0000 C   0  0  0  0  0  0  0  0  0  0  0  0
    7.7619    1.5554    0.0000 C   0  0  0  0  0  0  0  0  0  0  0  0
    2.8660    3.4215    0.0000 C   0  0  0  0  0  0  0  0  0  0  0  0
    6.2619    0.6894    0.0000 C   0  0  0  0  0  0  0  0  0  0  0  0
    2.8660    1.4215    0.0000 C   0  0  0  0  0  0  0  0  0  0  0  0
    8.2619    0.6894    0.0000 C   0  0  0  0  0  0  0  0  0  0  0  0
    2.0000    2.9215    0.0000 C   0  0  0  0  0  0  0  0  0  0  0  0
    2.0000    1.9215    0.0000 C   0  0  0  0  0  0  0  0  0  0  0  0
    7.8551   -0.2241    0.0000 C   0  0  0  0  0  0  0  0  0  0  0  0
    9.4643   -0.3933    0.0000 C   0  0  0  0  0  0  0  0  0  0  0  0
    6.8770   -0.4320    0.0000 C   0  0  0  0  0  0  0  0  0  0  0  0
   10.3779   -0.8000    0.0000 C   0  0  0  0  0  0  0  0  0  0  0  0
   11.1869   -0.2122    0.0000 C   0  0  0  0  0  0  0  0  0  0  0  0
   10.4824   -1.7945    0.0000 C   0  0  0  0  0  0  0  0  0  0  0  0
   12.1004   -0.6189    0.0000 C   0  0  0  0  0  0  0  0  0  0  0  0
   11.3959   -2.2013    0.0000 C   0  0  0  0  0  0  0  0  0  0  0  0
   12.2049   -1.6135    0.0000 C   0  0  0  0  0  0  0  0  0  0  0  0
   13.1185   -2.0202    0.0000 C   0  0  0  0  0  0  0  0  0  0  0  0
   14.1366   -3.4215    0.0000 C   0  0  0  0  0  0  0  0  0  0  0  0
    5.5436    1.8692    0.0000 H   0  0  0  0  0  0  0  0  0  0  0  0
    5.2156    3.5354    0.0000 H   0  0  0  0  0  0  0  0  0  0  0  0
    4.4272    3.7931    0.0000 H   0  0  0  0  0  0  0  0  0  0  0  0
    6.8445    2.6335    0.0000 H   0  0  0  0  0  0  0  0  0  0  0  0
    6.1542    3.0320    0.0000 H   0  0  0  0  0  0  0  0  0  0  0  0
    8.3445    1.7675    0.0000 H   0  0  0  0  0  0  0  0  0  0  0  0
    7.6542    2.1660    0.0000 H   0  0  0  0  0  0  0  0  0  0  0  0
    2.8660    4.0415    0.0000 H   0  0  0  0  0  0  0  0  0  0  0  0
    5.7249    0.9994    0.0000 H   0  0  0  0  0  0  0  0  0  0  0  0
    5.9519    0.1525    0.0000 H   0  0  0  0  0  0  0  0  0  0  0  0
    6.7988    0.3794    0.0000 H   0  0  0  0  0  0  0  0  0  0  0  0
    2.8660    0.8015    0.0000 H   0  0  0  0  0  0  0  0  0  0  0  0
    1.4631    3.2315    0.0000 H   0  0  0  0  0  0  0  0  0  0  0  0
    1.4631    1.6115    0.0000 H   0  0  0  0  0  0  0  0  0  0  0  0
    6.7481    0.1744    0.0000 H   0  0  0  0  0  0  0  0  0  0  0  0
    6.2705   -0.5609    0.0000 H   0  0  0  0  0  0  0  0  0  0  0  0
    7.0059   -1.0385    0.0000 H   0  0  0  0  0  0  0  0  0  0  0  0
   11.1221    0.4044    0.0000 H   0  0  0  0  0  0  0  0  0  0  0  0
    9.9808   -2.1590    0.0000 H   0  0  0  0  0  0  0  0  0  0  0  0
   12.6020   -0.2545    0.0000 H   0  0  0  0  0  0  0  0  0  0  0  0
   11.4607   -2.8179    0.0000 H   0  0  0  0  0  0  0  0  0  0  0  0
   13.8844   -3.9879    0.0000 H   0  0  0  0  0  0  0  0  0  0  0  0
   14.7030   -3.6736    0.0000 H   0  0  0  0  0  0  0  0  0  0  0  0
   14.3887   -2.8551    0.0000 H   0  0  0  0  0  0  0  0  0  0  0  0
  1  7  1  0  0  0  0
  1 11  1  0  0  0  0
  2 19  1  0  0  0  0
  2 20  1  0  0  0  0
  3 28  1  0  0  0  0
  3 29  1  0  0  0  0
  4 28  2  0  0  0  0
  5  9  1  0  0  0  0
  5 12  1  0  0  0  0
  5 14  1  0  0  0  0
  6 16  1  0  0  0  0
  6 20  2  0  0  0  0
  7  8  1  0  0  0  0
  7  9  1  1  0  0  0
  7 30  1  0  0  0  0
  8 10  1  0  0  0  0
  8 31  1  0  0  0  0
  8 32  1  0  0  0  0
  9 33  1  0  0  0  0
  9 34  1  0  0  0  0
 10 11  1  0  0  0  0
 10 13  2  0  0  0  0
 11 15  2  0  0  0  0
 12 16  1  0  0  0  0
 12 35  1  0  0  0  0
 12 36  1  0  0  0  0
 13 17  1  0  0  0  0
 13 37  1  0  0  0  0
 14 38  1  0  0  0  0
 14 39  1  0  0  0  0
 14 40  1  0  0  0  0
 15 18  1  0  0  0  0
 15 41  1  0  0  0  0
 16 19  2  0  0  0  0
 17 18  2  0  0  0  0
 17 42  1  0  0  0  0
 18 43  1  0  0  0  0
 19 21  1  0  0  0  0
 20 22  1  0  0  0  0
 21 44  1  0  0  0  0
 21 45  1  0  0  0  0
 21 46  1  0  0  0  0
 22 23  2  0  0  0  0
 22 24  1  0  0  0  0
 23 25  1  0  0  0  0
 23 47  1  0  0  0  0
 24 26  2  0  0  0  0
 24 48  1  0  0  0  0
 25 27  2  0  0  0  0
 25 49  1  0  0  0  0
 26 27  1  0  0  0  0
 26 50  1  0  0  0  0
 27 28  1  0  0  0  0
 29 51  1  0  0  0  0
 29 52  1  0  0  0  0
 29 53  1  0  0  0  0
M  END
> <PUBCHEM_COMPOUND_CID>
25450664

> <PUBCHEM_COMPOUND_CANONICALIZED>
1

> <PUBCHEM_CACTVS_COMPLEXITY>
551

> <PUBCHEM_CACTVS_HBOND_ACCEPTOR>
6

> <PUBCHEM_CACTVS_HBOND_DONOR>
0

> <PUBCHEM_CACTVS_ROTATABLE_BOND>
7

> <PUBCHEM_CACTVS_SUBSKEYS>
AAADceB7OAAAAAAAAAAAAAAAAAAAAWJAAAAwYAAAAAAAAEgB0AAAHgAAAAAADBzhngYyjpMIFECoA6XyXASCiCAvYCAImCG/TNgOZrrEtTufOSjmxBHYqYeY2LKOQAAAAAAIAACAAAAAABAAAAAAAAAAAA==

> <PUBCHEM_IUPAC_OPENEYE_NAME>
methyl 4-[4-[[[(2S)-2,3-dihydrobenzofuran-2-yl]methyl-methyl-amino]methyl]-5-methyl-oxazol-2-yl]benzoate

> <PUBCHEM_IUPAC_CAS_NAME>
4-[4-[[[(2S)-2,3-dihydrobenzofuran-2-yl]methyl-methylamino]methyl]-5-methyl-2-oxazolyl]benzoic acid methyl ester

> <PUBCHEM_IUPAC_NAME_MARKUP>
methyl 4-[4-[[[(2<I>S</I>)-2,3-dihydro-1-benzofuran-2-yl]methyl-methylamino]methyl]-5-methyl-1,3-oxazol-2-yl]benzoate

> <PUBCHEM_IUPAC_NAME>
methyl 4-[4-[[[(2S)-2,3-dihydro-1-benzofuran-2-yl]methyl-methylamino]methyl]-5-methyl-1,3-oxazol-2-yl]benzoate

> <PUBCHEM_IUPAC_SYSTEMATIC_NAME>
methyl 4-[4-[[[(2S)-2,3-dihydro-1-benzofuran-2-yl]methyl-methyl-amino]methyl]-5-methyl-1,3-oxazol-2-yl]benzoate

> <PUBCHEM_IUPAC_TRADITIONAL_NAME>
4-[4-[[[(2S)-coumaran-2-yl]methyl-methyl-amino]methyl]-5-methyl-oxazol-2-yl]benzoic acid methyl ester

> <PUBCHEM_IUPAC_INCHI>
InChI=1S/C23H24N2O4/c1-15-20(14-25(2)13-19-12-18-6-4-5-7-21(18)29-19)24-22(28-15)16-8-10-17(11-9-16)23(26)27-3/h4-11,19H,12-14H2,1-3H3/t19-/m0/s1

> <PUBCHEM_IUPAC_INCHIKEY>
RARBVIQKTJHSIQ-IBGZPJMESA-N

> <PUBCHEM_XLOGP3_AA>
3.9

> <PUBCHEM_EXACT_MASS>
392.17360725

> <PUBCHEM_MOLECULAR_FORMULA>
C23H24N2O4

> <PUBCHEM_MOLECULAR_WEIGHT>
392.4

> <PUBCHEM_OPENEYE_CAN_SMILES>
CC1=C(N=C(O1)C2=CC=C(C=C2)C(=O)OC)CN(C)CC3CC4=CC=CC=C4O3

> <PUBCHEM_OPENEYE_ISO_SMILES>
CC1=C(N=C(O1)C2=CC=C(C=C2)C(=O)OC)CN(C)C[C@@H]3CC4=CC=CC=C4O3

> <PUBCHEM_CACTVS_TPSA>
64.8

> <PUBCHEM_MONOISOTOPIC_WEIGHT>
392.17360725

> <PUBCHEM_TOTAL_CHARGE>
0

> <PUBCHEM_HEAVY_ATOM_COUNT>
29

> <PUBCHEM_ATOM_DEF_STEREO_COUNT>
1

> <PUBCHEM_ATOM_UDEF_STEREO_COUNT>
0

> <PUBCHEM_BOND_DEF_STEREO_COUNT>
0

> <PUBCHEM_BOND_UDEF_STEREO_COUNT>
0

> <PUBCHEM_ISOTOPIC_ATOM_COUNT>
0

> <PUBCHEM_COMPONENT_COUNT>
1

> <PUBCHEM_CACTVS_TAUTO_COUNT>
-1

> <PUBCHEM_COORDINATE_TYPE>
1
5
255

> <PUBCHEM_BONDANNOTATIONS>
10  11  8
10  13  8
11  15  8
13  17  8
15  18  8
16  19  8
17  18  8
2  19  8
2  20  8
22  23  8
22  24  8
23  25  8
24  26  8
25  27  8
26  27  8
6  16  8
6  20  8
7  9  5

$$$$
