164622586
  -OEChem-09292322442D

 56 59  0     1  0  0  0  0  0999 V2000
   11.5865   -0.7704    0.0000 Cl  0  0  0  0  0  0  0  0  0  0  0  0
   13.3147   -1.7771    0.0000 Cl  0  0  0  0  0  0  0  0  0  0  0  0
    2.0000    2.7704    0.0000 O   0  0  0  0  0  0  0  0  0  0  0  0
    2.0000    0.7704    0.0000 O   0  0  0  0  0  0  0  0  0  0  0  0
    8.9826   -2.2604    0.0000 O   0  0  0  0  0  0  0  0  0  0  0  0
    6.3981    1.2496    0.0000 N   0  0  3  0  0  0  0  0  0  0  0  0
    9.8544   -0.7638    0.0000 N   0  0  0  0  0  0  0  0  0  0  0  0
    6.3981    2.2912    0.0000 C   0  0  0  0  0  0  0  0  0  0  0  0
    5.4920    0.7357    0.0000 C   0  0  0  0  0  0  0  0  0  0  0  0
    5.4920    2.8051    0.0000 C   0  0  0  0  0  0  0  0  0  0  0  0
    4.5981    1.2704    0.0000 C   0  0  0  0  0  0  0  0  0  0  0  0
    4.5981    2.2704    0.0000 C   0  0  0  0  0  0  0  0  0  0  0  0
    7.2622    0.7463    0.0000 C   0  0  0  0  0  0  0  0  0  0  0  0
    8.1301    1.2429    0.0000 C   0  0  0  0  0  0  0  0  0  0  0  0
    3.7320    2.7704    0.0000 C   0  0  0  0  0  0  0  0  0  0  0  0
    3.7320    0.7704    0.0000 C   0  0  0  0  0  0  0  0  0  0  0  0
    8.9942    0.7396    0.0000 C   0  0  0  0  0  0  0  0  0  0  0  0
    2.8660    2.2704    0.0000 C   0  0  0  0  0  0  0  0  0  0  0  0
    2.8660    1.2704    0.0000 C   0  0  0  0  0  0  0  0  0  0  0  0
    8.1340    2.2429    0.0000 C   0  0  0  0  0  0  0  0  0  0  0  0
    8.9904   -0.2604    0.0000 C   0  0  0  0  0  0  0  0  0  0  0  0
    9.8622    1.2362    0.0000 C   0  0  0  0  0  0  0  0  0  0  0  0
    9.0019    2.7396    0.0000 C   0  0  0  0  0  0  0  0  0  0  0  0
    9.8660    2.2362    0.0000 C   0  0  0  0  0  0  0  0  0  0  0  0
    2.0000    3.7704    0.0000 C   0  0  0  0  0  0  0  0  0  0  0  0
    9.8506   -1.7637    0.0000 C   0  0  0  0  0  0  0  0  0  0  0  0
   10.7147   -2.2671    0.0000 C   0  0  0  0  0  0  0  0  0  0  0  0
   11.5826   -1.7704    0.0000 C   0  0  0  0  0  0  0  0  0  0  0  0
   10.7108   -3.2671    0.0000 C   0  0  0  0  0  0  0  0  0  0  0  0
   12.4467   -2.2738    0.0000 C   0  0  0  0  0  0  0  0  0  0  0  0
   11.5749   -3.7704    0.0000 C   0  0  0  0  0  0  0  0  0  0  0  0
   12.4429   -3.2738    0.0000 C   0  0  0  0  0  0  0  0  0  0  0  0
    7.0089    2.1851    0.0000 H   0  0  0  0  0  0  0  0  0  0  0  0
    6.6071    2.8749    0.0000 H   0  0  0  0  0  0  0  0  0  0  0  0
    5.0874    0.2660    0.0000 H   0  0  0  0  0  0  0  0  0  0  0  0
    5.8856    0.2567    0.0000 H   0  0  0  0  0  0  0  0  0  0  0  0
    5.8856    3.2841    0.0000 H   0  0  0  0  0  0  0  0  0  0  0  0
    5.0874    3.2748    0.0000 H   0  0  0  0  0  0  0  0  0  0  0  0
    6.8618    0.2728    0.0000 H   0  0  0  0  0  0  0  0  0  0  0  0
    7.6589    0.2698    0.0000 H   0  0  0  0  0  0  0  0  0  0  0  0
    3.7320    3.3904    0.0000 H   0  0  0  0  0  0  0  0  0  0  0  0
    3.7320    0.1504    0.0000 H   0  0  0  0  0  0  0  0  0  0  0  0
    7.5982    2.5550    0.0000 H   0  0  0  0  0  0  0  0  0  0  0  0
    8.3802   -0.1504    0.0000 H   0  0  0  0  0  0  0  0  0  0  0  0
    8.7761   -0.8422    0.0000 H   0  0  0  0  0  0  0  0  0  0  0  0
   10.3979    0.9242    0.0000 H   0  0  0  0  0  0  0  0  0  0  0  0
    9.0043    3.3596    0.0000 H   0  0  0  0  0  0  0  0  0  0  0  0
   10.4041    2.5442    0.0000 H   0  0  0  0  0  0  0  0  0  0  0  0
   10.3926   -0.4558    0.0000 H   0  0  0  0  0  0  0  0  0  0  0  0
    2.0000    0.1504    0.0000 H   0  0  0  0  0  0  0  0  0  0  0  0
    2.6200    3.7704    0.0000 H   0  0  0  0  0  0  0  0  0  0  0  0
    2.0000    4.3904    0.0000 H   0  0  0  0  0  0  0  0  0  0  0  0
    1.3800    3.7704    0.0000 H   0  0  0  0  0  0  0  0  0  0  0  0
   10.1727   -3.5750    0.0000 H   0  0  0  0  0  0  0  0  0  0  0  0
   11.5725   -4.3904    0.0000 H   0  0  0  0  0  0  0  0  0  0  0  0
   12.9786   -3.5858    0.0000 H   0  0  0  0  0  0  0  0  0  0  0  0
  1 28  1  0  0  0  0
  2 30  1  0  0  0  0
  3 18  1  0  0  0  0
  3 25  1  0  0  0  0
  4 19  1  0  0  0  0
  4 50  1  0  0  0  0
  5 26  2  0  0  0  0
  6  8  1  0  0  0  0
  6  9  1  0  0  0  0
  6 13  1  0  0  0  0
  7 21  1  0  0  0  0
  7 26  1  0  0  0  0
  7 49  1  0  0  0  0
  8 10  1  0  0  0  0
  8 33  1  0  0  0  0
  8 34  1  0  0  0  0
  9 11  1  0  0  0  0
  9 35  1  0  0  0  0
  9 36  1  0  0  0  0
 10 12  1  0  0  0  0
 10 37  1  0  0  0  0
 10 38  1  0  0  0  0
 11 12  1  0  0  0  0
 11 16  2  0  0  0  0
 12 15  2  0  0  0  0
 13 14  1  0  0  0  0
 13 39  1  0  0  0  0
 13 40  1  0  0  0  0
 14 17  1  0  0  0  0
 14 20  2  0  0  0  0
 15 18  1  0  0  0  0
 15 41  1  0  0  0  0
 16 19  1  0  0  0  0
 16 42  1  0  0  0  0
 17 21  1  0  0  0  0
 17 22  2  0  0  0  0
 18 19  2  0  0  0  0
 20 23  1  0  0  0  0
 20 43  1  0  0  0  0
 21 44  1  0  0  0  0
 21 45  1  0  0  0  0
 22 24  1  0  0  0  0
 22 46  1  0  0  0  0
 23 24  2  0  0  0  0
 23 47  1  0  0  0  0
 24 48  1  0  0  0  0
 25 51  1  0  0  0  0
 25 52  1  0  0  0  0
 25 53  1  0  0  0  0
 26 27  1  0  0  0  0
 27 28  2  0  0  0  0
 27 29  1  0  0  0  0
 28 30  1  0  0  0  0
 29 31  2  0  0  0  0
 29 54  1  0  0  0  0
 30 32  2  0  0  0  0
 31 32  1  0  0  0  0
 31 55  1  0  0  0  0
 32 56  1  0  0  0  0
M  END
> <PUBCHEM_COMPOUND_CID>
164622586

> <PUBCHEM_COMPOUND_CANONICALIZED>
1

> <PUBCHEM_CACTVS_COMPLEXITY>
624

> <PUBCHEM_CACTVS_HBOND_ACCEPTOR>
4

> <PUBCHEM_CACTVS_HBOND_DONOR>
2

> <PUBCHEM_CACTVS_ROTATABLE_BOND>
6

> <PUBCHEM_CACTVS_SUBSKEYS>
AAADceB7MAAGAAAAAAAAAAAAAAAAAAAAAAA8YMEAAAAAAACxUAAAHgIQCAAADAbBmCYyBoPABgCIAiFSEACCCAAkJQAIisEOjsgNJjKHtxuEcStkxhGLvYe42LKOoAABIAARQARAAAJAACKACAAAAAAAAA==

> <PUBCHEM_IUPAC_OPENEYE_NAME>
2,3-dichloro-N-[[2-[(7-hydroxy-6-methoxy-3,4-dihydro-1H-isoquinolin-2-yl)methyl]phenyl]methyl]benzamide

> <PUBCHEM_IUPAC_CAS_NAME>
2,3-dichloro-N-[[2-[(7-hydroxy-6-methoxy-3,4-dihydro-1H-isoquinolin-2-yl)methyl]phenyl]methyl]benzamide

> <PUBCHEM_IUPAC_NAME_MARKUP>
2,3-dichloro-<I>N</I>-[[2-[(7-hydroxy-6-methoxy-3,4-dihydro-1<I>H</I>-isoquinolin-2-yl)methyl]phenyl]methyl]benzamide

> <PUBCHEM_IUPAC_NAME>
2,3-dichloro-N-[[2-[(7-hydroxy-6-methoxy-3,4-dihydro-1H-isoquinolin-2-yl)methyl]phenyl]methyl]benzamide

> <PUBCHEM_IUPAC_SYSTEMATIC_NAME>
2,3-bis(chloranyl)-N-[[2-[(6-methoxy-7-oxidanyl-3,4-dihydro-1H-isoquinolin-2-yl)methyl]phenyl]methyl]benzamide

> <PUBCHEM_IUPAC_TRADITIONAL_NAME>
2,3-dichloro-N-[2-[(7-hydroxy-6-methoxy-3,4-dihydro-1H-isoquinolin-2-yl)methyl]benzyl]benzamide

> <PUBCHEM_IUPAC_INCHI>
InChI=1S/C25H24Cl2N2O3/c1-32-23-12-16-9-10-29(15-19(16)11-22(23)30)14-18-6-3-2-5-17(18)13-28-25(31)20-7-4-8-21(26)24(20)27/h2-8,11-12,30H,9-10,13-15H2,1H3,(H,28,31)

> <PUBCHEM_IUPAC_INCHIKEY>
LTNOCTARMCCZMF-UHFFFAOYSA-N

> <PUBCHEM_XLOGP3_AA>
4.9

> <PUBCHEM_EXACT_MASS>
470.1163980

> <PUBCHEM_MOLECULAR_FORMULA>
C25H24Cl2N2O3

> <PUBCHEM_MOLECULAR_WEIGHT>
471.4

> <PUBCHEM_OPENEYE_CAN_SMILES>
COC1=C(C=C2CN(CCC2=C1)CC3=CC=CC=C3CNC(=O)C4=C(C(=CC=C4)Cl)Cl)O

> <PUBCHEM_OPENEYE_ISO_SMILES>
COC1=C(C=C2CN(CCC2=C1)CC3=CC=CC=C3CNC(=O)C4=C(C(=CC=C4)Cl)Cl)O

> <PUBCHEM_CACTVS_TPSA>
61.8

> <PUBCHEM_MONOISOTOPIC_WEIGHT>
470.1163980

> <PUBCHEM_TOTAL_CHARGE>
0

> <PUBCHEM_HEAVY_ATOM_COUNT>
32

> <PUBCHEM_ATOM_DEF_STEREO_COUNT>
0

> <PUBCHEM_ATOM_UDEF_STEREO_COUNT>
0

> <PUBCHEM_BOND_DEF_STEREO_COUNT>
0

> <PUBCHEM_BOND_UDEF_STEREO_COUNT>
0

> <PUBCHEM_ISOTOPIC_ATOM_COUNT>
0

> <PUBCHEM_COMPONENT_COUNT>
1

> <PUBCHEM_CACTVS_TAUTO_COUNT>
-1

> <PUBCHEM_COORDINATE_TYPE>
1
5
255

> <PUBCHEM_BONDANNOTATIONS>
11  12  8
11  16  8
12  15  8
14  17  8
14  20  8
15  18  8
16  19  8
17  22  8
18  19  8
20  23  8
22  24  8
23  24  8
27  28  8
27  29  8
28  30  8
29  31  8
30  32  8
31  32  8

$$$$
