45272435
  -OEChem-09292322482D

 51 53  0     0  0  0  0  0  0999 V2000
    2.0000   -5.2055    0.0000 Cl  0  0  0  0  0  0  0  0  0  0  0  0
    2.0000   -3.2055    0.0000 F   0  0  0  0  0  0  0  0  0  0  0  0
    5.4921   -1.9267    0.0000 O   0  0  0  0  0  0  0  0  0  0  0  0
    5.0009    1.8649    0.0000 N   0  0  0  0  0  0  0  0  0  0  0  0
    6.1765    3.4830    0.0000 N   0  0  0  0  0  0  0  0  0  0  0  0
    4.2320   -0.6667    0.0000 N   0  0  0  0  0  0  0  0  0  0  0  0
    3.7320   -2.2055    0.0000 N   0  0  0  0  0  0  0  0  0  0  0  0
    5.9954    1.7604    0.0000 C   0  0  0  0  0  0  0  0  0  0  0  0
    4.5942    2.7785    0.0000 C   0  0  0  0  0  0  0  0  0  0  0  0
    6.5832    2.5694    0.0000 C   0  0  0  0  0  0  0  0  0  0  0  0
    5.1819    3.5875    0.0000 C   0  0  0  0  0  0  0  0  0  0  0  0
    4.4131    1.0559    0.0000 C   0  0  0  0  0  0  0  0  0  0  0  0
    6.7642    4.2920    0.0000 C   0  0  0  0  0  0  0  0  0  0  0  0
    4.8198    0.1424    0.0000 C   0  0  0  0  0  0  0  0  0  0  0  0
    3.2320   -0.6667    0.0000 C   0  0  0  0  0  0  0  0  0  0  0  0
    2.9230   -1.6177    0.0000 C   0  0  0  0  0  0  0  0  0  0  0  0
    4.5411   -1.6177    0.0000 C   0  0  0  0  0  0  0  0  0  0  0  0
    6.3575    5.2055    0.0000 C   0  0  0  0  0  0  0  0  0  0  0  0
    7.7588    4.1874    0.0000 C   0  0  0  0  0  0  0  0  0  0  0  0
    3.7320   -3.2055    0.0000 C   0  0  0  0  0  0  0  0  0  0  0  0
    2.8660   -3.7055    0.0000 C   0  0  0  0  0  0  0  0  0  0  0  0
    4.5981   -3.7055    0.0000 C   0  0  0  0  0  0  0  0  0  0  0  0
    2.8660   -4.7055    0.0000 C   0  0  0  0  0  0  0  0  0  0  0  0
    4.5981   -4.7055    0.0000 C   0  0  0  0  0  0  0  0  0  0  0  0
    3.7320   -5.2055    0.0000 C   0  0  0  0  0  0  0  0  0  0  0  0
    5.8245    1.1644    0.0000 H   0  0  0  0  0  0  0  0  0  0  0  0
    6.5527    1.4886    0.0000 H   0  0  0  0  0  0  0  0  0  0  0  0
    4.1635    3.2244    0.0000 H   0  0  0  0  0  0  0  0  0  0  0  0
    4.0801    2.4318    0.0000 H   0  0  0  0  0  0  0  0  0  0  0  0
    7.0139    2.1234    0.0000 H   0  0  0  0  0  0  0  0  0  0  0  0
    7.0972    2.9161    0.0000 H   0  0  0  0  0  0  0  0  0  0  0  0
    5.3528    4.1835    0.0000 H   0  0  0  0  0  0  0  0  0  0  0  0
    4.6247    3.8593    0.0000 H   0  0  0  0  0  0  0  0  0  0  0  0
    3.9824    1.5019    0.0000 H   0  0  0  0  0  0  0  0  0  0  0  0
    3.8991    0.7092    0.0000 H   0  0  0  0  0  0  0  0  0  0  0  0
    7.1287    4.7936    0.0000 H   0  0  0  0  0  0  0  0  0  0  0  0
    5.2505   -0.3036    0.0000 H   0  0  0  0  0  0  0  0  0  0  0  0
    5.3338    0.4890    0.0000 H   0  0  0  0  0  0  0  0  0  0  0  0
    3.2969   -0.0501    0.0000 H   0  0  0  0  0  0  0  0  0  0  0  0
    2.6256   -0.5378    0.0000 H   0  0  0  0  0  0  0  0  0  0  0  0
    2.3566   -1.3656    0.0000 H   0  0  0  0  0  0  0  0  0  0  0  0
    2.6130   -2.1547    0.0000 H   0  0  0  0  0  0  0  0  0  0  0  0
    6.9239    5.4577    0.0000 H   0  0  0  0  0  0  0  0  0  0  0  0
    6.1053    5.7719    0.0000 H   0  0  0  0  0  0  0  0  0  0  0  0
    5.7911    4.9533    0.0000 H   0  0  0  0  0  0  0  0  0  0  0  0
    7.6940    3.5708    0.0000 H   0  0  0  0  0  0  0  0  0  0  0  0
    8.3754    4.1226    0.0000 H   0  0  0  0  0  0  0  0  0  0  0  0
    7.8236    4.8040    0.0000 H   0  0  0  0  0  0  0  0  0  0  0  0
    5.1350   -3.3955    0.0000 H   0  0  0  0  0  0  0  0  0  0  0  0
    5.1350   -5.0155    0.0000 H   0  0  0  0  0  0  0  0  0  0  0  0
    3.7320   -5.8255    0.0000 H   0  0  0  0  0  0  0  0  0  0  0  0
  1 23  1  0  0  0  0
  2 21  1  0  0  0  0
  3 17  2  0  0  0  0
  4  8  1  0  0  0  0
  4  9  1  0  0  0  0
  4 12  1  0  0  0  0
  5 10  1  0  0  0  0
  5 11  1  0  0  0  0
  5 13  1  0  0  0  0
  6 14  1  0  0  0  0
  6 15  1  0  0  0  0
  6 17  1  0  0  0  0
  7 16  1  0  0  0  0
  7 17  1  0  0  0  0
  7 20  1  0  0  0  0
  8 10  1  0  0  0  0
  8 26  1  0  0  0  0
  8 27  1  0  0  0  0
  9 11  1  0  0  0  0
  9 28  1  0  0  0  0
  9 29  1  0  0  0  0
 10 30  1  0  0  0  0
 10 31  1  0  0  0  0
 11 32  1  0  0  0  0
 11 33  1  0  0  0  0
 12 14  1  0  0  0  0
 12 34  1  0  0  0  0
 12 35  1  0  0  0  0
 13 18  1  0  0  0  0
 13 19  1  0  0  0  0
 13 36  1  0  0  0  0
 14 37  1  0  0  0  0
 14 38  1  0  0  0  0
 15 16  1  0  0  0  0
 15 39  1  0  0  0  0
 15 40  1  0  0  0  0
 16 41  1  0  0  0  0
 16 42  1  0  0  0  0
 18 43  1  0  0  0  0
 18 44  1  0  0  0  0
 18 45  1  0  0  0  0
 19 46  1  0  0  0  0
 19 47  1  0  0  0  0
 19 48  1  0  0  0  0
 20 21  2  0  0  0  0
 20 22  1  0  0  0  0
 21 23  1  0  0  0  0
 22 24  2  0  0  0  0
 22 49  1  0  0  0  0
 23 25  2  0  0  0  0
 24 25  1  0  0  0  0
 24 50  1  0  0  0  0
 25 51  1  0  0  0  0
M  END
> <PUBCHEM_COMPOUND_CID>
45272435

> <PUBCHEM_COMPOUND_CANONICALIZED>
1

> <PUBCHEM_CACTVS_COMPLEXITY>
458

> <PUBCHEM_CACTVS_HBOND_ACCEPTOR>
4

> <PUBCHEM_CACTVS_HBOND_DONOR>
0

> <PUBCHEM_CACTVS_ROTATABLE_BOND>
5

> <PUBCHEM_CACTVS_SUBSKEYS>
AAADceB7oQAEAAAAAAAAAAAAAAAAAWAAAAA8QAAAAAAAAAABAAAAHwIAAAAACCrBECwzwIMAAACIACRCUACCAAAhBwAIiAAIZoiIYCLBk5GUIAhohgLIyCcQAAAAAAAAAAIAAAAAAAAABAAAAAAAAAAAAA==

> <PUBCHEM_IUPAC_OPENEYE_NAME>
1-(3-chloro-2-fluoro-phenyl)-3-[2-(4-isopropylpiperazin-1-yl)ethyl]imidazolidin-2-one

> <PUBCHEM_IUPAC_CAS_NAME>
1-(3-chloro-2-fluorophenyl)-3-[2-(4-propan-2-yl-1-piperazinyl)ethyl]-2-imidazolidinone

> <PUBCHEM_IUPAC_NAME_MARKUP>
1-(3-chloro-2-fluorophenyl)-3-[2-(4-propan-2-ylpiperazin-1-yl)ethyl]imidazolidin-2-one

> <PUBCHEM_IUPAC_NAME>
1-(3-chloro-2-fluorophenyl)-3-[2-(4-propan-2-ylpiperazin-1-yl)ethyl]imidazolidin-2-one

> <PUBCHEM_IUPAC_SYSTEMATIC_NAME>
1-(3-chloranyl-2-fluoranyl-phenyl)-3-[2-(4-propan-2-ylpiperazin-1-yl)ethyl]imidazolidin-2-one

> <PUBCHEM_IUPAC_TRADITIONAL_NAME>
1-(3-chloro-2-fluoro-phenyl)-3-[2-(4-isopropylpiperazino)ethyl]-2-imidazolidinone

> <PUBCHEM_IUPAC_INCHI>
InChI=1S/C18H26ClFN4O/c1-14(2)22-9-6-21(7-10-22)8-11-23-12-13-24(18(23)25)16-5-3-4-15(19)17(16)20/h3-5,14H,6-13H2,1-2H3

> <PUBCHEM_IUPAC_INCHIKEY>
UQEVQFAMCLYPTJ-UHFFFAOYSA-N

> <PUBCHEM_XLOGP3_AA>
2.4

> <PUBCHEM_EXACT_MASS>
368.1779173

> <PUBCHEM_MOLECULAR_FORMULA>
C18H26ClFN4O

> <PUBCHEM_MOLECULAR_WEIGHT>
368.9

> <PUBCHEM_OPENEYE_CAN_SMILES>
CC(C)N1CCN(CC1)CCN2CCN(C2=O)C3=C(C(=CC=C3)Cl)F

> <PUBCHEM_OPENEYE_ISO_SMILES>
CC(C)N1CCN(CC1)CCN2CCN(C2=O)C3=C(C(=CC=C3)Cl)F

> <PUBCHEM_CACTVS_TPSA>
30

> <PUBCHEM_MONOISOTOPIC_WEIGHT>
368.1779173

> <PUBCHEM_TOTAL_CHARGE>
0

> <PUBCHEM_HEAVY_ATOM_COUNT>
25

> <PUBCHEM_ATOM_DEF_STEREO_COUNT>
0

> <PUBCHEM_ATOM_UDEF_STEREO_COUNT>
0

> <PUBCHEM_BOND_DEF_STEREO_COUNT>
0

> <PUBCHEM_BOND_UDEF_STEREO_COUNT>
0

> <PUBCHEM_ISOTOPIC_ATOM_COUNT>
0

> <PUBCHEM_COMPONENT_COUNT>
1

> <PUBCHEM_CACTVS_TAUTO_COUNT>
-1

> <PUBCHEM_COORDINATE_TYPE>
1
5
255

> <PUBCHEM_BONDANNOTATIONS>
20  21  8
20  22  8
21  23  8
22  24  8
23  25  8
24  25  8

$$$$
