15389747
  -OEChem-09292322502D

 56 59  0     1  0  0  0  0  0999 V2000
   10.7063    1.2742    0.0000 O   0  0  0  0  0  0  0  0  0  0  0  0
    7.1961    1.2568    0.0000 O   0  0  0  0  0  0  0  0  0  0  0  0
    2.8680    1.7735    0.0000 O   0  0  0  0  0  0  0  0  0  0  0  0
   12.4984    0.2395    0.0000 N   0  0  3  0  0  0  0  0  0  0  0  0
    6.3243   -0.2398    0.0000 N   0  0  0  0  0  0  0  0  0  0  0  0
   11.5884   -0.2673    0.0000 C   0  0  1  0  0  0  0  0  0  0  0  0
   10.7224    0.2327    0.0000 C   0  0  1  0  0  0  0  0  0  0  0  0
   11.5884   -1.2673    0.0000 C   0  0  0  0  0  0  0  0  0  0  0  0
    9.8564   -0.2673    0.0000 C   0  0  0  0  0  0  0  0  0  0  0  0
   10.7224   -1.7673    0.0000 C   0  0  0  0  0  0  0  0  0  0  0  0
   12.5064    1.2812    0.0000 C   0  0  0  0  0  0  0  0  0  0  0  0
    9.8564   -1.2673    0.0000 C   0  0  0  0  0  0  0  0  0  0  0  0
   11.6044    1.8020    0.0000 C   0  0  0  0  0  0  0  0  0  0  0  0
   13.3586   -0.2704    0.0000 C   0  0  0  0  0  0  0  0  0  0  0  0
    8.9624    0.2674    0.0000 C   0  0  0  0  0  0  0  0  0  0  0  0
   14.2303    0.2195    0.0000 C   0  0  0  0  0  0  0  0  0  0  0  0
    8.9624   -1.8020    0.0000 C   0  0  0  0  0  0  0  0  0  0  0  0
    8.0564   -0.2465    0.0000 C   0  0  0  0  0  0  0  0  0  0  0  0
    8.0564   -1.2881    0.0000 C   0  0  0  0  0  0  0  0  0  0  0  0
   15.0905   -0.2905    0.0000 C   0  0  0  0  0  0  0  0  0  0  0  0
    7.1923    0.2568    0.0000 C   0  0  0  0  0  0  0  0  0  0  0  0
    5.4602    0.2635    0.0000 C   0  0  0  0  0  0  0  0  0  0  0  0
    4.5923   -0.2331    0.0000 C   0  0  0  0  0  0  0  0  0  0  0  0
    5.4641    1.2635    0.0000 C   0  0  0  0  0  0  0  0  0  0  0  0
    3.7282    0.2702    0.0000 C   0  0  0  0  0  0  0  0  0  0  0  0
    4.6000    1.7668    0.0000 C   0  0  0  0  0  0  0  0  0  0  0  0
    3.7320    1.2702    0.0000 C   0  0  0  0  0  0  0  0  0  0  0  0
    2.0000    1.2769    0.0000 C   0  0  0  0  0  0  0  0  0  0  0  0
   12.3212   -0.6980    0.0000 H   0  0  0  0  0  0  0  0  0  0  0  0
   11.4552    0.6634    0.0000 H   0  0  0  0  0  0  0  0  0  0  0  0
   11.8005   -1.8499    0.0000 H   0  0  0  0  0  0  0  0  0  0  0  0
   12.1990   -1.1596    0.0000 H   0  0  0  0  0  0  0  0  0  0  0  0
   10.3239   -2.2422    0.0000 H   0  0  0  0  0  0  0  0  0  0  0  0
   11.1209   -2.2422    0.0000 H   0  0  0  0  0  0  0  0  0  0  0  0
   13.1165    1.1704    0.0000 H   0  0  0  0  0  0  0  0  0  0  0  0
   12.7200    1.8632    0.0000 H   0  0  0  0  0  0  0  0  0  0  0  0
   12.0017    2.2779    0.0000 H   0  0  0  0  0  0  0  0  0  0  0  0
   11.2034    2.2748    0.0000 H   0  0  0  0  0  0  0  0  0  0  0  0
   12.9546   -0.7407    0.0000 H   0  0  0  0  0  0  0  0  0  0  0  0
   13.7516   -0.7500    0.0000 H   0  0  0  0  0  0  0  0  0  0  0  0
    8.9696    0.8873    0.0000 H   0  0  0  0  0  0  0  0  0  0  0  0
   14.6343    0.6898    0.0000 H   0  0  0  0  0  0  0  0  0  0  0  0
   13.8373    0.6990    0.0000 H   0  0  0  0  0  0  0  0  0  0  0  0
    8.9696   -2.4219    0.0000 H   0  0  0  0  0  0  0  0  0  0  0  0
    7.5206   -1.6002    0.0000 H   0  0  0  0  0  0  0  0  0  0  0  0
   14.7743   -0.8238    0.0000 H   0  0  0  0  0  0  0  0  0  0  0  0
   15.6238   -0.6067    0.0000 H   0  0  0  0  0  0  0  0  0  0  0  0
   15.4067    0.2429    0.0000 H   0  0  0  0  0  0  0  0  0  0  0  0
    6.3219   -0.8598    0.0000 H   0  0  0  0  0  0  0  0  0  0  0  0
    4.5899   -0.8531    0.0000 H   0  0  0  0  0  0  0  0  0  0  0  0
    6.0022    1.5714    0.0000 H   0  0  0  0  0  0  0  0  0  0  0  0
    3.1901   -0.0377    0.0000 H   0  0  0  0  0  0  0  0  0  0  0  0
    4.6024    2.3868    0.0000 H   0  0  0  0  0  0  0  0  0  0  0  0
    1.6921    1.8150    0.0000 H   0  0  0  0  0  0  0  0  0  0  0  0
    1.4619    0.9689    0.0000 H   0  0  0  0  0  0  0  0  0  0  0  0
    2.3079    0.7387    0.0000 H   0  0  0  0  0  0  0  0  0  0  0  0
  1  7  1  0  0  0  0
  1 13  1  0  0  0  0
  2 21  2  0  0  0  0
  3 27  1  0  0  0  0
  3 28  1  0  0  0  0
  4  6  1  0  0  0  0
  4 11  1  0  0  0  0
  4 14  1  0  0  0  0
  5 21  1  0  0  0  0
  5 22  1  0  0  0  0
  5 49  1  0  0  0  0
  6  7  1  0  0  0  0
  6  8  1  0  0  0  0
  6 29  1  1  0  0  0
  7  9  1  0  0  0  0
  7 30  1  6  0  0  0
  8 10  1  0  0  0  0
  8 31  1  0  0  0  0
  8 32  1  0  0  0  0
  9 12  2  0  0  0  0
  9 15  1  0  0  0  0
 10 12  1  0  0  0  0
 10 33  1  0  0  0  0
 10 34  1  0  0  0  0
 11 13  1  0  0  0  0
 11 35  1  0  0  0  0
 11 36  1  0  0  0  0
 12 17  1  0  0  0  0
 13 37  1  0  0  0  0
 13 38  1  0  0  0  0
 14 16  1  0  0  0  0
 14 39  1  0  0  0  0
 14 40  1  0  0  0  0
 15 18  2  0  0  0  0
 15 41  1  0  0  0  0
 16 20  1  0  0  0  0
 16 42  1  0  0  0  0
 16 43  1  0  0  0  0
 17 19  2  0  0  0  0
 17 44  1  0  0  0  0
 18 19  1  0  0  0  0
 18 21  1  0  0  0  0
 19 45  1  0  0  0  0
 20 46  1  0  0  0  0
 20 47  1  0  0  0  0
 20 48  1  0  0  0  0
 22 23  2  0  0  0  0
 22 24  1  0  0  0  0
 23 25  1  0  0  0  0
 23 50  1  0  0  0  0
 24 26  2  0  0  0  0
 24 51  1  0  0  0  0
 25 27  2  0  0  0  0
 25 52  1  0  0  0  0
 26 27  1  0  0  0  0
 26 53  1  0  0  0  0
 28 54  1  0  0  0  0
 28 55  1  0  0  0  0
 28 56  1  0  0  0  0
M  END
> <PUBCHEM_COMPOUND_CID>
15389747

> <PUBCHEM_COMPOUND_CANONICALIZED>
1

> <PUBCHEM_CACTVS_COMPLEXITY>
520

> <PUBCHEM_CACTVS_HBOND_ACCEPTOR>
4

> <PUBCHEM_CACTVS_HBOND_DONOR>
1

> <PUBCHEM_CACTVS_ROTATABLE_BOND>
5

> <PUBCHEM_CACTVS_SUBSKEYS>
AAADceB7MAAAAAAAAAAAAAAAAAAAAAAAAAA8YMEAAAAAAADxQAAAHgAQAAAADDzhmAYyxoPABACIAiVSUACCCAAlIgAIiAEObMgOJjLEtZuHMShk1BHY6Ye43PLOwEACAAAQAACQgAaAADAgAAAAAAAAAA==

> <PUBCHEM_IUPAC_OPENEYE_NAME>
(4aR,10bR)-N-(4-methoxyphenyl)-4-propyl-2,3,4a,5,6,10b-hexahydrobenzo[h][1,4]benzoxazine-9-carboxamide

> <PUBCHEM_IUPAC_CAS_NAME>
(4aR,10bR)-N-(4-methoxyphenyl)-4-propyl-2,3,4a,5,6,10b-hexahydrobenzo[h][1,4]benzoxazine-9-carboxamide

> <PUBCHEM_IUPAC_NAME_MARKUP>
(4<I>a</I><I>R</I>,10<I>b</I><I>R</I>)-<I>N</I>-(4-methoxyphenyl)-4-propyl-2,3,4<I>a</I>,5,6,10<I>b</I>-hexahydrobenzo[h][1,4]benzoxazine-9-carboxamide

> <PUBCHEM_IUPAC_NAME>
(4aR,10bR)-N-(4-methoxyphenyl)-4-propyl-2,3,4a,5,6,10b-hexahydrobenzo[h][1,4]benzoxazine-9-carboxamide

> <PUBCHEM_IUPAC_SYSTEMATIC_NAME>
(4aR,10bR)-N-(4-methoxyphenyl)-4-propyl-2,3,4a,5,6,10b-hexahydrobenzo[h][1,4]benzoxazine-9-carboxamide

> <PUBCHEM_IUPAC_TRADITIONAL_NAME>
(4aR,10bR)-N-(4-methoxyphenyl)-4-propyl-2,3,4a,5,6,10b-hexahydrobenzo[h][1,4]benzoxazine-9-carboxamide

> <PUBCHEM_IUPAC_INCHI>
InChI=1S/C23H28N2O3/c1-3-12-25-13-14-28-22-20-15-17(5-4-16(20)6-11-21(22)25)23(26)24-18-7-9-19(27-2)10-8-18/h4-5,7-10,15,21-22H,3,6,11-14H2,1-2H3,(H,24,26)/t21-,22-/m1/s1

> <PUBCHEM_IUPAC_INCHIKEY>
HBXAUVWJLFTKDA-FGZHOGPDSA-N

> <PUBCHEM_XLOGP3>
3.6

> <PUBCHEM_EXACT_MASS>
380.20999276

> <PUBCHEM_MOLECULAR_FORMULA>
C23H28N2O3

> <PUBCHEM_MOLECULAR_WEIGHT>
380.5

> <PUBCHEM_OPENEYE_CAN_SMILES>
CCCN1CCOC2C1CCC3=C2C=C(C=C3)C(=O)NC4=CC=C(C=C4)OC

> <PUBCHEM_OPENEYE_ISO_SMILES>
CCCN1CCO[C@H]2[C@H]1CCC3=C2C=C(C=C3)C(=O)NC4=CC=C(C=C4)OC

> <PUBCHEM_CACTVS_TPSA>
50.8

> <PUBCHEM_MONOISOTOPIC_WEIGHT>
380.20999276

> <PUBCHEM_TOTAL_CHARGE>
0

> <PUBCHEM_HEAVY_ATOM_COUNT>
28

> <PUBCHEM_ATOM_DEF_STEREO_COUNT>
2

> <PUBCHEM_ATOM_UDEF_STEREO_COUNT>
0

> <PUBCHEM_BOND_DEF_STEREO_COUNT>
0

> <PUBCHEM_BOND_UDEF_STEREO_COUNT>
0

> <PUBCHEM_ISOTOPIC_ATOM_COUNT>
0

> <PUBCHEM_COMPONENT_COUNT>
1

> <PUBCHEM_CACTVS_TAUTO_COUNT>
-1

> <PUBCHEM_COORDINATE_TYPE>
1
5
255

> <PUBCHEM_BONDANNOTATIONS>
12  17  8
15  18  8
17  19  8
18  19  8
22  23  8
22  24  8
23  25  8
24  26  8
25  27  8
26  27  8
6  29  5
7  30  6
9  12  8
9  15  8

$$$$
