10490043
  -OEChem-09292322512D

 33 36  0     1  0  0  0  0  0999 V2000
    2.9176    1.5584    0.0000 O   0  0  0  0  0  0  0  0  0  0  0  0
    6.3903   -1.4731    0.0000 N   0  0  0  0  0  0  0  0  0  0  0  0
    5.5321   -0.9762    0.0000 C   0  0  1  0  0  0  0  0  0  0  0  0
    5.5321    0.0238    0.0000 C   0  0  0  0  0  0  0  0  0  0  0  0
    4.6660   -1.4762    0.0000 C   0  0  0  0  0  0  0  0  0  0  0  0
    6.4421    0.5307    0.0000 C   0  0  0  0  0  0  0  0  0  0  0  0
    4.6660    0.5238    0.0000 C   0  0  0  0  0  0  0  0  0  0  0  0
    7.2814    0.0024    0.0000 C   0  0  0  0  0  0  0  0  0  0  0  0
    7.2558   -0.9889    0.0000 C   0  0  0  0  0  0  0  0  0  0  0  0
    3.8000   -0.9762    0.0000 C   0  0  0  0  0  0  0  0  0  0  0  0
    3.8000    0.0238    0.0000 C   0  0  0  0  0  0  0  0  0  0  0  0
    6.4501    1.5723    0.0000 C   0  0  0  0  0  0  0  0  0  0  0  0
    4.6500    1.5653    0.0000 C   0  0  0  0  0  0  0  0  0  0  0  0
    2.9061   -1.5108    0.0000 C   0  0  0  0  0  0  0  0  0  0  0  0
    2.9061    0.5585    0.0000 C   0  0  0  0  0  0  0  0  0  0  0  0
    5.5480    2.0931    0.0000 C   0  0  0  0  0  0  0  0  0  0  0  0
    2.0000   -0.9970    0.0000 C   0  0  0  0  0  0  0  0  0  0  0  0
    2.0000    0.0446    0.0000 C   0  0  0  0  0  0  0  0  0  0  0  0
    5.5315   -1.8262    0.0000 H   0  0  0  0  0  0  0  0  0  0  0  0
    4.2675   -1.9511    0.0000 H   0  0  0  0  0  0  0  0  0  0  0  0
    5.0646   -1.9511    0.0000 H   0  0  0  0  0  0  0  0  0  0  0  0
    6.3857   -2.0931    0.0000 H   0  0  0  0  0  0  0  0  0  0  0  0
    7.8885   -0.1234    0.0000 H   0  0  0  0  0  0  0  0  0  0  0  0
    7.5131    0.5775    0.0000 H   0  0  0  0  0  0  0  0  0  0  0  0
    7.4575   -1.5752    0.0000 H   0  0  0  0  0  0  0  0  0  0  0  0
    7.8685   -0.8946    0.0000 H   0  0  0  0  0  0  0  0  0  0  0  0
    6.9882    1.8802    0.0000 H   0  0  0  0  0  0  0  0  0  0  0  0
    4.1095    1.8691    0.0000 H   0  0  0  0  0  0  0  0  0  0  0  0
    2.9132   -2.1308    0.0000 H   0  0  0  0  0  0  0  0  0  0  0  0
    5.5456    2.7131    0.0000 H   0  0  0  0  0  0  0  0  0  0  0  0
    1.4643   -1.3091    0.0000 H   0  0  0  0  0  0  0  0  0  0  0  0
    1.4643    0.3567    0.0000 H   0  0  0  0  0  0  0  0  0  0  0  0
    2.3843    1.8746    0.0000 H   0  0  0  0  0  0  0  0  0  0  0  0
  1 15  1  0  0  0  0
  1 33  1  0  0  0  0
  2  3  1  0  0  0  0
  2  9  1  0  0  0  0
  2 22  1  0  0  0  0
  3  4  1  0  0  0  0
  3  5  1  0  0  0  0
  3 19  1  1  0  0  0
  4  6  2  0  0  0  0
  4  7  1  0  0  0  0
  5 10  1  0  0  0  0
  5 20  1  0  0  0  0
  5 21  1  0  0  0  0
  6  8  1  0  0  0  0
  6 12  1  0  0  0  0
  7 11  1  0  0  0  0
  7 13  2  0  0  0  0
  8  9  1  0  0  0  0
  8 23  1  0  0  0  0
  8 24  1  0  0  0  0
  9 25  1  0  0  0  0
  9 26  1  0  0  0  0
 10 11  2  0  0  0  0
 10 14  1  0  0  0  0
 11 15  1  0  0  0  0
 12 16  2  0  0  0  0
 12 27  1  0  0  0  0
 13 16  1  0  0  0  0
 13 28  1  0  0  0  0
 14 17  2  0  0  0  0
 14 29  1  0  0  0  0
 15 18  2  0  0  0  0
 16 30  1  0  0  0  0
 17 18  1  0  0  0  0
 17 31  1  0  0  0  0
 18 32  1  0  0  0  0
M  END
> <PUBCHEM_COMPOUND_CID>
10490043

> <PUBCHEM_COMPOUND_CANONICALIZED>
1

> <PUBCHEM_CACTVS_COMPLEXITY>
318

> <PUBCHEM_CACTVS_HBOND_ACCEPTOR>
2

> <PUBCHEM_CACTVS_HBOND_DONOR>
2

> <PUBCHEM_CACTVS_ROTATABLE_BOND>
0

> <PUBCHEM_CACTVS_SUBSKEYS>
AAADccB6IAAAAAAAAAAAAAAAAAAAAAAAAAA8YMEAAAAAAADxQAAAHgAQCAAADCzBmAQwBoLAAgCAAiBCAACCAAAgIAAIiIAODIgIJiKCkROEcAhk0BGImAeQ0PMOgAADAAAYAACQAAaAADQAAAAAAAAAAA==

> <PUBCHEM_IUPAC_OPENEYE_NAME>
(6aR)-5,6,6a,7-tetrahydro-4H-dibenzo[de,g]quinolin-11-ol

> <PUBCHEM_IUPAC_CAS_NAME>
(6aR)-5,6,6a,7-tetrahydro-4H-dibenzo[de,g]quinolin-11-ol

> <PUBCHEM_IUPAC_NAME_MARKUP>
(6<I>a</I><I>R</I>)-5,6,6<I>a</I>,7-tetrahydro-4<I>H</I>-dibenzo[de,g]quinolin-11-ol

> <PUBCHEM_IUPAC_NAME>
(6aR)-5,6,6a,7-tetrahydro-4H-dibenzo[de,g]quinolin-11-ol

> <PUBCHEM_IUPAC_SYSTEMATIC_NAME>
(6aR)-5,6,6a,7-tetrahydro-4H-dibenzo[de,g]quinolin-11-ol

> <PUBCHEM_IUPAC_TRADITIONAL_NAME>
(6aR)-5,6,6a,7-tetrahydro-4H-dibenzo[de,g]quinolin-11-ol

> <PUBCHEM_IUPAC_INCHI>
InChI=1S/C16H15NO/c18-14-6-2-4-11-9-13-15-10(7-8-17-13)3-1-5-12(15)16(11)14/h1-6,13,17-18H,7-9H2/t13-/m1/s1

> <PUBCHEM_IUPAC_INCHIKEY>
MHKSWTAPYIFAAP-CYBMUJFWSA-N

> <PUBCHEM_XLOGP3_AA>
2.7

> <PUBCHEM_EXACT_MASS>
237.115364102

> <PUBCHEM_MOLECULAR_FORMULA>
C16H15NO

> <PUBCHEM_MOLECULAR_WEIGHT>
237.30

> <PUBCHEM_OPENEYE_CAN_SMILES>
C1CNC2CC3=C(C4=CC=CC1=C24)C(=CC=C3)O

> <PUBCHEM_OPENEYE_ISO_SMILES>
C1CN[C@@H]2CC3=C(C4=CC=CC1=C24)C(=CC=C3)O

> <PUBCHEM_CACTVS_TPSA>
32.3

> <PUBCHEM_MONOISOTOPIC_WEIGHT>
237.115364102

> <PUBCHEM_TOTAL_CHARGE>
0

> <PUBCHEM_HEAVY_ATOM_COUNT>
18

> <PUBCHEM_ATOM_DEF_STEREO_COUNT>
1

> <PUBCHEM_ATOM_UDEF_STEREO_COUNT>
0

> <PUBCHEM_BOND_DEF_STEREO_COUNT>
0

> <PUBCHEM_BOND_UDEF_STEREO_COUNT>
0

> <PUBCHEM_ISOTOPIC_ATOM_COUNT>
0

> <PUBCHEM_COMPONENT_COUNT>
1

> <PUBCHEM_CACTVS_TAUTO_COUNT>
-1

> <PUBCHEM_COORDINATE_TYPE>
1
5
255

> <PUBCHEM_BONDANNOTATIONS>
10  11  8
10  14  8
11  15  8
12  16  8
13  16  8
14  17  8
15  18  8
17  18  8
3  19  5
4  6  8
4  7  8
6  12  8
7  13  8

$$$$
