44335746
  -OEChem-09292322162D

 53 56  0     1  0  0  0  0  0999 V2000
   10.5028   -1.1489    0.0000 F   0  0  0  0  0  0  0  0  0  0  0  0
    9.7884   -4.5385    0.0000 F   0  0  0  0  0  0  0  0  0  0  0  0
    4.3211    1.0390    0.0000 O   0  0  0  0  0  0  0  0  0  0  0  0
    6.2781    0.6265    0.0000 N   0  0  0  0  0  0  0  0  0  0  0  0
    4.6783    2.7338    0.0000 N   0  0  0  0  0  0  0  0  0  0  0  0
    6.8994   -1.2745    0.0000 N   0  0  0  0  0  0  0  0  0  0  0  0
    5.2619    3.5385    0.0000 C   0  0  3  0  0  0  0  0  0  0  0  0
    5.6103   -0.1178    0.0000 C   0  0  0  0  0  0  0  0  0  0  0  0
    7.2566    0.4203    0.0000 C   0  0  0  0  0  0  0  0  0  0  0  0
    5.9209   -1.0683    0.0000 C   0  0  0  0  0  0  0  0  0  0  0  0
    7.5673   -0.5302    0.0000 C   0  0  0  0  0  0  0  0  0  0  0  0
    4.6783    4.3432    0.0000 C   0  0  0  0  0  0  0  0  0  0  0  0
    5.9674    1.5770    0.0000 C   0  0  0  0  0  0  0  0  0  0  0  0
    3.7320    3.0385    0.0000 C   0  0  0  0  0  0  0  0  0  0  0  0
    3.7320    4.0385    0.0000 C   0  0  0  0  0  0  0  0  0  0  0  0
    4.9889    1.7833    0.0000 C   0  0  0  0  0  0  0  0  0  0  0  0
    7.2101   -2.2250    0.0000 C   0  0  0  0  0  0  0  0  0  0  0  0
    6.2619    3.5385    0.0000 C   0  0  0  0  0  0  0  0  0  0  0  0
    2.8660    2.5385    0.0000 C   0  0  0  0  0  0  0  0  0  0  0  0
    2.8660    4.5385    0.0000 C   0  0  0  0  0  0  0  0  0  0  0  0
    8.1886   -2.4313    0.0000 C   0  0  0  0  0  0  0  0  0  0  0  0
    2.0000    3.0385    0.0000 C   0  0  0  0  0  0  0  0  0  0  0  0
    2.0000    4.0385    0.0000 C   0  0  0  0  0  0  0  0  0  0  0  0
    8.4993   -3.3818    0.0000 C   0  0  0  0  0  0  0  0  0  0  0  0
    8.8564   -1.6870    0.0000 C   0  0  0  0  0  0  0  0  0  0  0  0
    9.8349   -1.8932    0.0000 C   0  0  0  0  0  0  0  0  0  0  0  0
    9.4778   -3.5880    0.0000 C   0  0  0  0  0  0  0  0  0  0  0  0
   10.1456   -2.8437    0.0000 C   0  0  0  0  0  0  0  0  0  0  0  0
    5.5436    2.9862    0.0000 H   0  0  0  0  0  0  0  0  0  0  0  0
    5.2277    0.3701    0.0000 H   0  0  0  0  0  0  0  0  0  0  0  0
    5.0633   -0.4098    0.0000 H   0  0  0  0  0  0  0  0  0  0  0  0
    7.8704    0.5077    0.0000 H   0  0  0  0  0  0  0  0  0  0  0  0
    7.2772    1.0400    0.0000 H   0  0  0  0  0  0  0  0  0  0  0  0
    5.3071   -1.1556    0.0000 H   0  0  0  0  0  0  0  0  0  0  0  0
    5.9004   -1.6880    0.0000 H   0  0  0  0  0  0  0  0  0  0  0  0
    7.9498   -1.0181    0.0000 H   0  0  0  0  0  0  0  0  0  0  0  0
    8.1142   -0.2382    0.0000 H   0  0  0  0  0  0  0  0  0  0  0  0
    5.2156    4.6525    0.0000 H   0  0  0  0  0  0  0  0  0  0  0  0
    4.4272    4.9102    0.0000 H   0  0  0  0  0  0  0  0  0  0  0  0
    6.5812    1.6644    0.0000 H   0  0  0  0  0  0  0  0  0  0  0  0
    5.9880    2.1967    0.0000 H   0  0  0  0  0  0  0  0  0  0  0  0
    6.5963   -2.3124    0.0000 H   0  0  0  0  0  0  0  0  0  0  0  0
    7.1895   -2.8447    0.0000 H   0  0  0  0  0  0  0  0  0  0  0  0
    6.2619    2.9185    0.0000 H   0  0  0  0  0  0  0  0  0  0  0  0
    6.8819    3.5385    0.0000 H   0  0  0  0  0  0  0  0  0  0  0  0
    6.2619    4.1585    0.0000 H   0  0  0  0  0  0  0  0  0  0  0  0
    2.8660    1.9185    0.0000 H   0  0  0  0  0  0  0  0  0  0  0  0
    2.8660    5.1585    0.0000 H   0  0  0  0  0  0  0  0  0  0  0  0
    1.4631    2.7285    0.0000 H   0  0  0  0  0  0  0  0  0  0  0  0
    1.4631    4.3485    0.0000 H   0  0  0  0  0  0  0  0  0  0  0  0
    8.0852   -3.8432    0.0000 H   0  0  0  0  0  0  0  0  0  0  0  0
    8.6638   -1.0976    0.0000 H   0  0  0  0  0  0  0  0  0  0  0  0
   10.7523   -2.9716    0.0000 H   0  0  0  0  0  0  0  0  0  0  0  0
  1 26  1  0  0  0  0
  2 27  1  0  0  0  0
  3 16  2  0  0  0  0
  4  8  1  0  0  0  0
  4  9  1  0  0  0  0
  4 13  1  0  0  0  0
  5  7  1  0  0  0  0
  5 14  1  0  0  0  0
  5 16  1  0  0  0  0
  6 10  1  0  0  0  0
  6 11  1  0  0  0  0
  6 17  1  0  0  0  0
  7 12  1  0  0  0  0
  7 18  1  0  0  0  0
  7 29  1  0  0  0  0
  8 10  1  0  0  0  0
  8 30  1  0  0  0  0
  8 31  1  0  0  0  0
  9 11  1  0  0  0  0
  9 32  1  0  0  0  0
  9 33  1  0  0  0  0
 10 34  1  0  0  0  0
 10 35  1  0  0  0  0
 11 36  1  0  0  0  0
 11 37  1  0  0  0  0
 12 15  1  0  0  0  0
 12 38  1  0  0  0  0
 12 39  1  0  0  0  0
 13 16  1  0  0  0  0
 13 40  1  0  0  0  0
 13 41  1  0  0  0  0
 14 15  1  0  0  0  0
 14 19  2  0  0  0  0
 15 20  2  0  0  0  0
 17 21  1  0  0  0  0
 17 42  1  0  0  0  0
 17 43  1  0  0  0  0
 18 44  1  0  0  0  0
 18 45  1  0  0  0  0
 18 46  1  0  0  0  0
 19 22  1  0  0  0  0
 19 47  1  0  0  0  0
 20 23  1  0  0  0  0
 20 48  1  0  0  0  0
 21 24  2  0  0  0  0
 21 25  1  0  0  0  0
 22 23  2  0  0  0  0
 22 49  1  0  0  0  0
 23 50  1  0  0  0  0
 24 27  1  0  0  0  0
 24 51  1  0  0  0  0
 25 26  2  0  0  0  0
 25 52  1  0  0  0  0
 26 28  1  0  0  0  0
 27 28  2  0  0  0  0
 28 53  1  0  0  0  0
M  END
> <PUBCHEM_COMPOUND_CID>
44335746

> <PUBCHEM_COMPOUND_CANONICALIZED>
1

> <PUBCHEM_CACTVS_COMPLEXITY>
530

> <PUBCHEM_CACTVS_HBOND_ACCEPTOR>
5

> <PUBCHEM_CACTVS_HBOND_DONOR>
0

> <PUBCHEM_CACTVS_ROTATABLE_BOND>
4

> <PUBCHEM_CACTVS_SUBSKEYS>
AAADceB7IYAAAAAAAAAAAAAAAAAAAWAAAAA8YIAAAAAAAFgBQAAAHwAAAAAADCjBmAwywIMAAACIAiVSUACCAAAhAgAIiACIZIgIYCLAkbGUIAhghgDIyAcQgIAOAAAAAAACAAAAAAAAAAQAAAAAAAAAAA==

> <PUBCHEM_IUPAC_OPENEYE_NAME>
2-[4-[(3,5-difluorophenyl)methyl]piperazin-1-yl]-1-(2-methylindolin-1-yl)ethanone

> <PUBCHEM_IUPAC_CAS_NAME>
2-[4-[(3,5-difluorophenyl)methyl]-1-piperazinyl]-1-(2-methyl-2,3-dihydroindol-1-yl)ethanone

> <PUBCHEM_IUPAC_NAME_MARKUP>
2-[4-[(3,5-difluorophenyl)methyl]piperazin-1-yl]-1-(2-methyl-2,3-dihydroindol-1-yl)ethanone

> <PUBCHEM_IUPAC_NAME>
2-[4-[(3,5-difluorophenyl)methyl]piperazin-1-yl]-1-(2-methyl-2,3-dihydroindol-1-yl)ethanone

> <PUBCHEM_IUPAC_SYSTEMATIC_NAME>
2-[4-[[3,5-bis(fluoranyl)phenyl]methyl]piperazin-1-yl]-1-(2-methyl-2,3-dihydroindol-1-yl)ethanone

> <PUBCHEM_IUPAC_TRADITIONAL_NAME>
2-[4-(3,5-difluorobenzyl)piperazino]-1-(2-methylindolin-1-yl)ethanone

> <PUBCHEM_IUPAC_INCHI>
InChI=1S/C22H25F2N3O/c1-16-10-18-4-2-3-5-21(18)27(16)22(28)15-26-8-6-25(7-9-26)14-17-11-19(23)13-20(24)12-17/h2-5,11-13,16H,6-10,14-15H2,1H3

> <PUBCHEM_IUPAC_INCHIKEY>
PXSNASRAIMXQPZ-UHFFFAOYSA-N

> <PUBCHEM_XLOGP3_AA>
3.3

> <PUBCHEM_EXACT_MASS>
385.19656875

> <PUBCHEM_MOLECULAR_FORMULA>
C22H25F2N3O

> <PUBCHEM_MOLECULAR_WEIGHT>
385.4

> <PUBCHEM_OPENEYE_CAN_SMILES>
CC1CC2=CC=CC=C2N1C(=O)CN3CCN(CC3)CC4=CC(=CC(=C4)F)F

> <PUBCHEM_OPENEYE_ISO_SMILES>
CC1CC2=CC=CC=C2N1C(=O)CN3CCN(CC3)CC4=CC(=CC(=C4)F)F

> <PUBCHEM_CACTVS_TPSA>
26.8

> <PUBCHEM_MONOISOTOPIC_WEIGHT>
385.19656875

> <PUBCHEM_TOTAL_CHARGE>
0

> <PUBCHEM_HEAVY_ATOM_COUNT>
28

> <PUBCHEM_ATOM_DEF_STEREO_COUNT>
0

> <PUBCHEM_ATOM_UDEF_STEREO_COUNT>
1

> <PUBCHEM_BOND_DEF_STEREO_COUNT>
0

> <PUBCHEM_BOND_UDEF_STEREO_COUNT>
0

> <PUBCHEM_ISOTOPIC_ATOM_COUNT>
0

> <PUBCHEM_COMPONENT_COUNT>
1

> <PUBCHEM_CACTVS_TAUTO_COUNT>
-1

> <PUBCHEM_COORDINATE_TYPE>
1
5
255

> <PUBCHEM_BONDANNOTATIONS>
14  15  8
14  19  8
15  20  8
19  22  8
20  23  8
21  24  8
21  25  8
22  23  8
24  27  8
25  26  8
26  28  8
27  28  8
7  18  3

$$$$
