138671406
  -OEChem-09292322452D

 75 79  0     1  0  0  0  0  0999 V2000
    5.5000    0.5959    0.0000 O   0  0  0  0  0  0  0  0  0  0  0  0
   15.8547   -3.0264    0.0000 O   0  0  0  0  0  0  0  0  0  0  0  0
   11.0000   -2.0022    0.0000 N   0  0  3  0  0  0  0  0  0  0  0  0
    5.5000   -1.1362    0.0000 N   0  0  0  0  0  0  0  0  0  0  0  0
   14.0846   -3.0369    0.0000 N   0  0  0  0  0  0  0  0  0  0  0  0
    3.0000    2.1257    0.0000 N   0  0  0  0  0  0  0  0  0  0  0  0
    2.1953    1.5421    0.0000 N   0  0  0  0  0  0  0  0  0  0  0  0
    8.5000   -1.1362    0.0000 C   0  0  0  0  0  0  0  0  0  0  0  0
    8.0000   -2.0022    0.0000 C   0  0  0  0  0  0  0  0  0  0  0  0
    8.0000   -0.2702    0.0000 C   0  0  0  0  0  0  0  0  0  0  0  0
    6.5000   -1.1362    0.0000 C   0  0  0  0  0  0  0  0  0  0  0  0
    7.0000   -2.0022    0.0000 C   0  0  0  0  0  0  0  0  0  0  0  0
    7.0000   -0.2702    0.0000 C   0  0  0  0  0  0  0  0  0  0  0  0
    9.5000   -1.1362    0.0000 C   0  0  0  0  0  0  0  0  0  0  0  0
   10.0000   -2.0022    0.0000 C   0  0  0  0  0  0  0  0  0  0  0  0
   11.4339   -1.1012    0.0000 C   0  0  0  0  0  0  0  0  0  0  0  0
   11.4339   -2.9032    0.0000 C   0  0  0  0  0  0  0  0  0  0  0  0
   12.4088   -0.8787    0.0000 C   0  0  0  0  0  0  0  0  0  0  0  0
   12.4088   -3.1257    0.0000 C   0  0  0  0  0  0  0  0  0  0  0  0
    5.0000   -0.2702    0.0000 C   0  0  0  0  0  0  0  0  0  0  0  0
   13.1906   -1.5022    0.0000 C   0  0  0  0  0  0  0  0  0  0  0  0
   13.1906   -2.5022    0.0000 C   0  0  0  0  0  0  0  0  0  0  0  0
    4.0000   -0.2702    0.0000 C   0  0  0  0  0  0  0  0  0  0  0  0
   14.0846   -0.9675    0.0000 C   0  0  0  0  0  0  0  0  0  0  0  0
    3.5000    0.5959    0.0000 C   0  0  0  0  0  0  0  0  0  0  0  0
   14.9907   -1.4814    0.0000 C   0  0  0  0  0  0  0  0  0  0  0  0
   14.9907   -2.5230    0.0000 C   0  0  0  0  0  0  0  0  0  0  0  0
    3.5000   -1.1362    0.0000 C   0  0  0  0  0  0  0  0  0  0  0  0
    2.5000    0.5959    0.0000 C   0  0  0  0  0  0  0  0  0  0  0  0
    3.8047    1.5421    0.0000 C   0  0  0  0  0  0  0  0  0  0  0  0
    2.5000   -1.1362    0.0000 C   0  0  0  0  0  0  0  0  0  0  0  0
    2.0000   -0.2702    0.0000 C   0  0  0  0  0  0  0  0  0  0  0  0
   16.7227   -2.5297    0.0000 C   0  0  0  0  0  0  0  0  0  0  0  0
    3.0000    3.1257    0.0000 C   0  0  0  0  0  0  0  0  0  0  0  0
   17.5868   -3.0330    0.0000 C   0  0  0  0  0  0  0  0  0  0  0  0
   16.7265   -1.5297    0.0000 C   0  0  0  0  0  0  0  0  0  0  0  0
    8.8100   -0.5992    0.0000 H   0  0  0  0  0  0  0  0  0  0  0  0
    7.8923   -2.6128    0.0000 H   0  0  0  0  0  0  0  0  0  0  0  0
    8.5826   -2.2143    0.0000 H   0  0  0  0  0  0  0  0  0  0  0  0
    8.5826   -0.0581    0.0000 H   0  0  0  0  0  0  0  0  0  0  0  0
    7.8923    0.3404    0.0000 H   0  0  0  0  0  0  0  0  0  0  0  0
    6.1900   -0.5992    0.0000 H   0  0  0  0  0  0  0  0  0  0  0  0
    6.4174   -2.2143    0.0000 H   0  0  0  0  0  0  0  0  0  0  0  0
    7.1077   -2.6128    0.0000 H   0  0  0  0  0  0  0  0  0  0  0  0
    7.1077    0.3404    0.0000 H   0  0  0  0  0  0  0  0  0  0  0  0
    6.4174   -0.0581    0.0000 H   0  0  0  0  0  0  0  0  0  0  0  0
   10.0826   -0.9241    0.0000 H   0  0  0  0  0  0  0  0  0  0  0  0
    9.3923   -0.5256    0.0000 H   0  0  0  0  0  0  0  0  0  0  0  0
    9.4174   -2.2143    0.0000 H   0  0  0  0  0  0  0  0  0  0  0  0
   10.1077   -2.6128    0.0000 H   0  0  0  0  0  0  0  0  0  0  0  0
    5.1900   -1.6731    0.0000 H   0  0  0  0  0  0  0  0  0  0  0  0
   11.4339   -0.4812    0.0000 H   0  0  0  0  0  0  0  0  0  0  0  0
   10.8294   -0.9633    0.0000 H   0  0  0  0  0  0  0  0  0  0  0  0
   10.8294   -3.0411    0.0000 H   0  0  0  0  0  0  0  0  0  0  0  0
   11.4339   -3.5232    0.0000 H   0  0  0  0  0  0  0  0  0  0  0  0
   12.8935   -0.4922    0.0000 H   0  0  0  0  0  0  0  0  0  0  0  0
   12.1398   -0.3201    0.0000 H   0  0  0  0  0  0  0  0  0  0  0  0
   12.1398   -3.6843    0.0000 H   0  0  0  0  0  0  0  0  0  0  0  0
   12.8935   -3.5123    0.0000 H   0  0  0  0  0  0  0  0  0  0  0  0
   14.0774   -0.3476    0.0000 H   0  0  0  0  0  0  0  0  0  0  0  0
   15.5264   -1.1693    0.0000 H   0  0  0  0  0  0  0  0  0  0  0  0
    3.8100   -1.6731    0.0000 H   0  0  0  0  0  0  0  0  0  0  0  0
    4.3940    1.7347    0.0000 H   0  0  0  0  0  0  0  0  0  0  0  0
    2.1900   -1.6731    0.0000 H   0  0  0  0  0  0  0  0  0  0  0  0
    1.3800   -0.2702    0.0000 H   0  0  0  0  0  0  0  0  0  0  0  0
   16.7203   -3.1497    0.0000 H   0  0  0  0  0  0  0  0  0  0  0  0
    3.6200    3.1257    0.0000 H   0  0  0  0  0  0  0  0  0  0  0  0
    3.0000    3.7457    0.0000 H   0  0  0  0  0  0  0  0  0  0  0  0
    2.3800    3.1257    0.0000 H   0  0  0  0  0  0  0  0  0  0  0  0
   17.2747   -3.5688    0.0000 H   0  0  0  0  0  0  0  0  0  0  0  0
   18.1225   -3.3451    0.0000 H   0  0  0  0  0  0  0  0  0  0  0  0
   17.8988   -2.4973    0.0000 H   0  0  0  0  0  0  0  0  0  0  0  0
   17.3465   -1.5321    0.0000 H   0  0  0  0  0  0  0  0  0  0  0  0
   16.7289   -0.9097    0.0000 H   0  0  0  0  0  0  0  0  0  0  0  0
   16.1066   -1.5273    0.0000 H   0  0  0  0  0  0  0  0  0  0  0  0
  1 20  2  0  0  0  0
  2 27  1  0  0  0  0
  2 33  1  0  0  0  0
  3 15  1  0  0  0  0
  3 16  1  0  0  0  0
  3 17  1  0  0  0  0
  4 11  1  0  0  0  0
  4 20  1  0  0  0  0
  4 51  1  0  0  0  0
  5 22  1  0  0  0  0
  5 27  2  0  0  0  0
  6  7  1  0  0  0  0
  6 30  1  0  0  0  0
  6 34  1  0  0  0  0
  7 29  2  0  0  0  0
  8  9  1  0  0  0  0
  8 10  1  0  0  0  0
  8 14  1  0  0  0  0
  8 37  1  0  0  0  0
  9 12  1  0  0  0  0
  9 38  1  0  0  0  0
  9 39  1  0  0  0  0
 10 13  1  0  0  0  0
 10 40  1  0  0  0  0
 10 41  1  0  0  0  0
 11 12  1  0  0  0  0
 11 13  1  0  0  0  0
 11 42  1  0  0  0  0
 12 43  1  0  0  0  0
 12 44  1  0  0  0  0
 13 45  1  0  0  0  0
 13 46  1  0  0  0  0
 14 15  1  0  0  0  0
 14 47  1  0  0  0  0
 14 48  1  0  0  0  0
 15 49  1  0  0  0  0
 15 50  1  0  0  0  0
 16 18  1  0  0  0  0
 16 52  1  0  0  0  0
 16 53  1  0  0  0  0
 17 19  1  0  0  0  0
 17 54  1  0  0  0  0
 17 55  1  0  0  0  0
 18 21  1  0  0  0  0
 18 56  1  0  0  0  0
 18 57  1  0  0  0  0
 19 22  1  0  0  0  0
 19 58  1  0  0  0  0
 19 59  1  0  0  0  0
 20 23  1  0  0  0  0
 21 22  2  0  0  0  0
 21 24  1  0  0  0  0
 23 25  1  0  0  0  0
 23 28  2  0  0  0  0
 24 26  2  0  0  0  0
 24 60  1  0  0  0  0
 25 29  1  0  0  0  0
 25 30  2  0  0  0  0
 26 27  1  0  0  0  0
 26 61  1  0  0  0  0
 28 31  1  0  0  0  0
 28 62  1  0  0  0  0
 29 32  1  0  0  0  0
 30 63  1  0  0  0  0
 31 32  2  0  0  0  0
 31 64  1  0  0  0  0
 32 65  1  0  0  0  0
 33 35  1  0  0  0  0
 33 36  1  0  0  0  0
 33 66  1  0  0  0  0
 34 67  1  0  0  0  0
 34 68  1  0  0  0  0
 34 69  1  0  0  0  0
 35 70  1  0  0  0  0
 35 71  1  0  0  0  0
 35 72  1  0  0  0  0
 36 73  1  0  0  0  0
 36 74  1  0  0  0  0
 36 75  1  0  0  0  0
M  END
> <PUBCHEM_COMPOUND_CID>
138671406

> <PUBCHEM_COMPOUND_CANONICALIZED>
1

> <PUBCHEM_CACTVS_COMPLEXITY>
712

> <PUBCHEM_CACTVS_HBOND_ACCEPTOR>
5

> <PUBCHEM_CACTVS_HBOND_DONOR>
1

> <PUBCHEM_CACTVS_ROTATABLE_BOND>
7

> <PUBCHEM_CACTVS_SUBSKEYS>
AAADcfB7sAAAAAAAAAAAAAAAAAAAAWAAAAA8YIAABYAAAFgB/AAAHgAYAAAADTzhngY+xPPIFACqAzV3VACSjCA1oiAY2KE+bNgMJvLE9duOvSjk3hHI6Yec2KGOgAAAQAASAAAQAACAACQAAAAAAAAAAA==

> <PUBCHEM_IUPAC_OPENEYE_NAME>
N-[4-[2-(2-isopropoxy-5,6,8,9-tetrahydropyrido[2,3-d]azepin-7-yl)ethyl]cyclohexyl]-2-methyl-indazole-4-carboxamide

> <PUBCHEM_IUPAC_CAS_NAME>
2-methyl-N-[4-[2-(2-propan-2-yloxy-5,6,8,9-tetrahydropyrido[2,3-d]azepin-7-yl)ethyl]cyclohexyl]-4-indazolecarboxamide

> <PUBCHEM_IUPAC_NAME_MARKUP>
2-methyl-<I>N</I>-[4-[2-(2-propan-2-yloxy-5,6,8,9-tetrahydropyrido[2,3-d]azepin-7-yl)ethyl]cyclohexyl]indazole-4-carboxamide

> <PUBCHEM_IUPAC_NAME>
2-methyl-N-[4-[2-(2-propan-2-yloxy-5,6,8,9-tetrahydropyrido[2,3-d]azepin-7-yl)ethyl]cyclohexyl]indazole-4-carboxamide

> <PUBCHEM_IUPAC_SYSTEMATIC_NAME>
2-methyl-N-[4-[2-(2-propan-2-yloxy-5,6,8,9-tetrahydropyrido[2,3-d]azepin-7-yl)ethyl]cyclohexyl]indazole-4-carboxamide

> <PUBCHEM_IUPAC_TRADITIONAL_NAME>
N-[4-[2-(2-isopropoxy-5,6,8,9-tetrahydropyrid[2,3-d]azepin-7-yl)ethyl]cyclohexyl]-2-methyl-indazole-4-carboxamide

> <PUBCHEM_IUPAC_INCHI>
InChI=1S/C29H39N5O2/c1-20(2)36-28-12-9-22-14-17-34(18-15-26(22)31-28)16-13-21-7-10-23(11-8-21)30-29(35)24-5-4-6-27-25(24)19-33(3)32-27/h4-6,9,12,19-21,23H,7-8,10-11,13-18H2,1-3H3,(H,30,35)

> <PUBCHEM_IUPAC_INCHIKEY>
MROOSUHVJZSQKG-UHFFFAOYSA-N

> <PUBCHEM_XLOGP3_AA>
4.8

> <PUBCHEM_EXACT_MASS>
489.31037550

> <PUBCHEM_MOLECULAR_FORMULA>
C29H39N5O2

> <PUBCHEM_MOLECULAR_WEIGHT>
489.7

> <PUBCHEM_OPENEYE_CAN_SMILES>
CC(C)OC1=NC2=C(CCN(CC2)CCC3CCC(CC3)NC(=O)C4=CC=CC5=NN(C=C54)C)C=C1

> <PUBCHEM_OPENEYE_ISO_SMILES>
CC(C)OC1=NC2=C(CCN(CC2)CCC3CCC(CC3)NC(=O)C4=CC=CC5=NN(C=C54)C)C=C1

> <PUBCHEM_CACTVS_TPSA>
72.3

> <PUBCHEM_MONOISOTOPIC_WEIGHT>
489.31037550

> <PUBCHEM_TOTAL_CHARGE>
0

> <PUBCHEM_HEAVY_ATOM_COUNT>
36

> <PUBCHEM_ATOM_DEF_STEREO_COUNT>
0

> <PUBCHEM_ATOM_UDEF_STEREO_COUNT>
0

> <PUBCHEM_BOND_DEF_STEREO_COUNT>
0

> <PUBCHEM_BOND_UDEF_STEREO_COUNT>
0

> <PUBCHEM_ISOTOPIC_ATOM_COUNT>
0

> <PUBCHEM_COMPONENT_COUNT>
1

> <PUBCHEM_CACTVS_TAUTO_COUNT>
-1

> <PUBCHEM_COORDINATE_TYPE>
1
5
255

> <PUBCHEM_BONDANNOTATIONS>
21  22  8
21  24  8
23  25  8
23  28  8
24  26  8
25  29  8
25  30  8
26  27  8
28  31  8
29  32  8
31  32  8
5  22  8
5  27  8
6  30  8
6  7  8
7  29  8

$$$$
