12071089
  -OEChem-09292322102D

 64 68  0     1  0  0  0  0  0999 V2000
    2.0000   -2.6523    0.0000 Cl  0  0  0  0  0  0  0  0  0  0  0  0
    5.5851   -2.2690    0.0000 O   0  0  0  0  0  0  0  0  0  0  0  0
    8.0971    0.3280    0.0000 N   0  0  0  0  0  0  0  0  0  0  0  0
    8.5749   -1.6205    0.0000 C   0  0  3  0  0  0  0  0  0  0  0  0
    8.8337   -0.6546    0.0000 C   0  0  3  0  0  0  0  0  0  0  0  0
    9.9738   -2.1293    0.0000 C   0  0  0  0  0  0  0  0  0  0  0  0
   10.2326   -1.1634    0.0000 C   0  0  0  0  0  0  0  0  0  0  0  0
    7.3538   -2.4862    0.0000 C   0  0  0  0  0  0  0  0  0  0  0  0
    6.8004   -0.9657    0.0000 C   0  0  0  0  0  0  0  0  0  0  0  0
    6.5248   -1.9270    0.0000 C   0  0  0  0  0  0  0  0  0  0  0  0
    7.5971    1.1941    0.0000 C   0  0  0  0  0  0  0  0  0  0  0  0
    8.0971    2.0601    0.0000 C   0  0  0  0  0  0  0  0  0  0  0  0
    5.4115   -3.2538    0.0000 C   0  0  3  0  0  0  0  0  0  0  0  0
    7.5971    2.9261    0.0000 C   0  0  0  0  0  0  0  0  0  0  0  0
    4.4718   -3.5958    0.0000 C   0  0  0  0  0  0  0  0  0  0  0  0
    6.1775   -3.8966    0.0000 C   0  0  0  0  0  0  0  0  0  0  0  0
    8.0971    3.7921    0.0000 C   0  0  0  0  0  0  0  0  0  0  0  0
    3.7057   -2.9530    0.0000 C   0  0  0  0  0  0  0  0  0  0  0  0
    4.2981   -4.5806    0.0000 C   0  0  0  0  0  0  0  0  0  0  0  0
    6.0039   -4.8814    0.0000 C   0  0  0  0  0  0  0  0  0  0  0  0
    7.1172   -3.5546    0.0000 C   0  0  0  0  0  0  0  0  0  0  0  0
    9.0971    3.7921    0.0000 C   0  0  0  0  0  0  0  0  0  0  0  0
    7.5971    4.6582    0.0000 C   0  0  0  0  0  0  0  0  0  0  0  0
    2.7660   -3.2951    0.0000 C   0  0  0  0  0  0  0  0  0  0  0  0
    3.3584   -4.9226    0.0000 C   0  0  0  0  0  0  0  0  0  0  0  0
    6.7699   -5.5242    0.0000 C   0  0  0  0  0  0  0  0  0  0  0  0
    7.8833   -4.1974    0.0000 C   0  0  0  0  0  0  0  0  0  0  0  0
    9.5971    4.6582    0.0000 C   0  0  0  0  0  0  0  0  0  0  0  0
    8.0971    5.5242    0.0000 C   0  0  0  0  0  0  0  0  0  0  0  0
    2.5924   -4.2799    0.0000 C   0  0  0  0  0  0  0  0  0  0  0  0
    7.7096   -5.1822    0.0000 C   0  0  0  0  0  0  0  0  0  0  0  0
    9.0971    5.5242    0.0000 C   0  0  0  0  0  0  0  0  0  0  0  0
    8.6577   -2.2350    0.0000 H   0  0  0  0  0  0  0  0  0  0  0  0
    9.2030   -0.1566    0.0000 H   0  0  0  0  0  0  0  0  0  0  0  0
    9.7789   -2.7179    0.0000 H   0  0  0  0  0  0  0  0  0  0  0  0
   10.5678   -2.3071    0.0000 H   0  0  0  0  0  0  0  0  0  0  0  0
   10.8266   -1.3412    0.0000 H   0  0  0  0  0  0  0  0  0  0  0  0
   10.4276   -0.5748    0.0000 H   0  0  0  0  0  0  0  0  0  0  0  0
    6.9480   -2.9549    0.0000 H   0  0  0  0  0  0  0  0  0  0  0  0
    7.7705   -2.9453    0.0000 H   0  0  0  0  0  0  0  0  0  0  0  0
    6.7954   -0.3457    0.0000 H   0  0  0  0  0  0  0  0  0  0  0  0
    6.1861   -0.8819    0.0000 H   0  0  0  0  0  0  0  0  0  0  0  0
    6.0714   -1.5041    0.0000 H   0  0  0  0  0  0  0  0  0  0  0  0
    7.1221    1.5926    0.0000 H   0  0  0  0  0  0  0  0  0  0  0  0
    7.1221    0.7955    0.0000 H   0  0  0  0  0  0  0  0  0  0  0  0
    8.5720    1.6616    0.0000 H   0  0  0  0  0  0  0  0  0  0  0  0
    8.5720    2.4586    0.0000 H   0  0  0  0  0  0  0  0  0  0  0  0
    5.9941   -3.0418    0.0000 H   0  0  0  0  0  0  0  0  0  0  0  0
    7.1221    3.3246    0.0000 H   0  0  0  0  0  0  0  0  0  0  0  0
    7.1221    2.5276    0.0000 H   0  0  0  0  0  0  0  0  0  0  0  0
    3.8134   -2.3424    0.0000 H   0  0  0  0  0  0  0  0  0  0  0  0
    4.7731   -4.9792    0.0000 H   0  0  0  0  0  0  0  0  0  0  0  0
    5.4213   -5.0934    0.0000 H   0  0  0  0  0  0  0  0  0  0  0  0
    7.2249   -2.9440    0.0000 H   0  0  0  0  0  0  0  0  0  0  0  0
    9.4071    3.2552    0.0000 H   0  0  0  0  0  0  0  0  0  0  0  0
    6.9771    4.6582    0.0000 H   0  0  0  0  0  0  0  0  0  0  0  0
    3.2508   -5.5332    0.0000 H   0  0  0  0  0  0  0  0  0  0  0  0
    6.6622   -6.1348    0.0000 H   0  0  0  0  0  0  0  0  0  0  0  0
    8.4659   -3.9853    0.0000 H   0  0  0  0  0  0  0  0  0  0  0  0
   10.2171    4.6582    0.0000 H   0  0  0  0  0  0  0  0  0  0  0  0
    7.7871    6.0611    0.0000 H   0  0  0  0  0  0  0  0  0  0  0  0
    2.0098   -4.4919    0.0000 H   0  0  0  0  0  0  0  0  0  0  0  0
    8.1846   -5.5807    0.0000 H   0  0  0  0  0  0  0  0  0  0  0  0
    9.4071    6.0611    0.0000 H   0  0  0  0  0  0  0  0  0  0  0  0
  1 24  1  0  0  0  0
  2 10  1  0  0  0  0
  2 13  1  0  0  0  0
  3  4  1  0  0  0  0
  3  5  1  0  0  0  0
  3 11  1  0  0  0  0
  4  6  1  0  0  0  0
  4  8  1  0  0  0  0
  4 33  1  0  0  0  0
  5  7  1  0  0  0  0
  5  9  1  0  0  0  0
  5 34  1  0  0  0  0
  6  7  1  0  0  0  0
  6 35  1  0  0  0  0
  6 36  1  0  0  0  0
  7 37  1  0  0  0  0
  7 38  1  0  0  0  0
  8 10  1  0  0  0  0
  8 39  1  0  0  0  0
  8 40  1  0  0  0  0
  9 10  1  0  0  0  0
  9 41  1  0  0  0  0
  9 42  1  0  0  0  0
 10 43  1  0  0  0  0
 11 12  1  0  0  0  0
 11 44  1  0  0  0  0
 11 45  1  0  0  0  0
 12 14  1  0  0  0  0
 12 46  1  0  0  0  0
 12 47  1  0  0  0  0
 13 15  1  0  0  0  0
 13 16  1  0  0  0  0
 13 48  1  0  0  0  0
 14 17  1  0  0  0  0
 14 49  1  0  0  0  0
 14 50  1  0  0  0  0
 15 18  2  0  0  0  0
 15 19  1  0  0  0  0
 16 20  2  0  0  0  0
 16 21  1  0  0  0  0
 17 22  2  0  0  0  0
 17 23  1  0  0  0  0
 18 24  1  0  0  0  0
 18 51  1  0  0  0  0
 19 25  2  0  0  0  0
 19 52  1  0  0  0  0
 20 26  1  0  0  0  0
 20 53  1  0  0  0  0
 21 27  2  0  0  0  0
 21 54  1  0  0  0  0
 22 28  1  0  0  0  0
 22 55  1  0  0  0  0
 23 29  2  0  0  0  0
 23 56  1  0  0  0  0
 24 30  2  0  0  0  0
 25 30  1  0  0  0  0
 25 57  1  0  0  0  0
 26 31  2  0  0  0  0
 26 58  1  0  0  0  0
 27 31  1  0  0  0  0
 27 59  1  0  0  0  0
 28 32  2  0  0  0  0
 28 60  1  0  0  0  0
 29 32  1  0  0  0  0
 29 61  1  0  0  0  0
 30 62  1  0  0  0  0
 31 63  1  0  0  0  0
 32 64  1  0  0  0  0
M  END
> <PUBCHEM_COMPOUND_CID>
12071089

> <PUBCHEM_COMPOUND_CANONICALIZED>
1

> <PUBCHEM_CACTVS_COMPLEXITY>
543

> <PUBCHEM_CACTVS_HBOND_ACCEPTOR>
2

> <PUBCHEM_CACTVS_HBOND_DONOR>
0

> <PUBCHEM_CACTVS_ROTATABLE_BOND>
8

> <PUBCHEM_CACTVS_SUBSKEYS>
AAADcfB6IAAEAAAAAAAAAAAAAAAAAWAAAAA8YMEABgAAAAABUAAAHgIAAAAADD7hmCYwAIMABACAAiBCAAACAAAgBQAIiAAICogIJiKBsxiGMAAmwAGIqAeQwOAOAAAAIAAAAAAAAABAAAAAAAAAAAAAAA==

> <PUBCHEM_IUPAC_OPENEYE_NAME>
3-[(3-chlorophenyl)-phenyl-methoxy]-8-(3-phenylpropyl)-8-azabicyclo[3.2.1]octane

> <PUBCHEM_IUPAC_CAS_NAME>
3-[(3-chlorophenyl)-phenylmethoxy]-8-(3-phenylpropyl)-8-azabicyclo[3.2.1]octane

> <PUBCHEM_IUPAC_NAME_MARKUP>
3-[(3-chlorophenyl)-phenylmethoxy]-8-(3-phenylpropyl)-8-azabicyclo[3.2.1]octane

> <PUBCHEM_IUPAC_NAME>
3-[(3-chlorophenyl)-phenylmethoxy]-8-(3-phenylpropyl)-8-azabicyclo[3.2.1]octane

> <PUBCHEM_IUPAC_SYSTEMATIC_NAME>
3-[(3-chlorophenyl)-phenyl-methoxy]-8-(3-phenylpropyl)-8-azabicyclo[3.2.1]octane

> <PUBCHEM_IUPAC_TRADITIONAL_NAME>
3-[(3-chlorophenyl)-phenyl-methoxy]-8-(3-phenylpropyl)-8-azabicyclo[3.2.1]octane

> <PUBCHEM_IUPAC_INCHI>
InChI=1S/C29H32ClNO/c30-25-15-7-14-24(19-25)29(23-12-5-2-6-13-23)32-28-20-26-16-17-27(21-28)31(26)18-8-11-22-9-3-1-4-10-22/h1-7,9-10,12-15,19,26-29H,8,11,16-18,20-21H2

> <PUBCHEM_IUPAC_INCHIKEY>
OYZKUGKMWYXUJF-UHFFFAOYSA-N

> <PUBCHEM_XLOGP3_AA>
7.4

> <PUBCHEM_EXACT_MASS>
445.2172423

> <PUBCHEM_MOLECULAR_FORMULA>
C29H32ClNO

> <PUBCHEM_MOLECULAR_WEIGHT>
446.0

> <PUBCHEM_OPENEYE_CAN_SMILES>
C1CC2CC(CC1N2CCCC3=CC=CC=C3)OC(C4=CC=CC=C4)C5=CC(=CC=C5)Cl

> <PUBCHEM_OPENEYE_ISO_SMILES>
C1CC2CC(CC1N2CCCC3=CC=CC=C3)OC(C4=CC=CC=C4)C5=CC(=CC=C5)Cl

> <PUBCHEM_CACTVS_TPSA>
12.5

> <PUBCHEM_MONOISOTOPIC_WEIGHT>
445.2172423

> <PUBCHEM_TOTAL_CHARGE>
0

> <PUBCHEM_HEAVY_ATOM_COUNT>
32

> <PUBCHEM_ATOM_DEF_STEREO_COUNT>
0

> <PUBCHEM_ATOM_UDEF_STEREO_COUNT>
3

> <PUBCHEM_BOND_DEF_STEREO_COUNT>
0

> <PUBCHEM_BOND_UDEF_STEREO_COUNT>
0

> <PUBCHEM_ISOTOPIC_ATOM_COUNT>
0

> <PUBCHEM_COMPONENT_COUNT>
1

> <PUBCHEM_CACTVS_TAUTO_COUNT>
-1

> <PUBCHEM_COORDINATE_TYPE>
1
5
255

> <PUBCHEM_BONDANNOTATIONS>
15  18  8
15  19  8
16  20  8
16  21  8
17  22  8
17  23  8
18  24  8
19  25  8
13  2  3
20  26  8
21  27  8
22  28  8
23  29  8
24  30  8
25  30  8
26  31  8
27  31  8
28  32  8
29  32  8
4  6  3
5  7  3

$$$$
