46225335
  -OEChem-09292322482D

 48 51  0     0  0  0  0  0  0999 V2000
   10.6279   -2.9757    0.0000 F   0  0  0  0  0  0  0  0  0  0  0  0
   10.2619   -4.3417    0.0000 F   0  0  0  0  0  0  0  0  0  0  0  0
    8.8958   -3.9757    0.0000 F   0  0  0  0  0  0  0  0  0  0  0  0
    6.7619    1.7204    0.0000 N   0  0  0  0  0  0  0  0  0  0  0  0
    7.7619   -0.0116    0.0000 N   0  0  0  0  0  0  0  0  0  0  0  0
    4.6783    3.3912    0.0000 N   0  0  0  0  0  0  0  0  0  0  0  0
    4.6783    1.7817    0.0000 N   0  0  0  0  0  0  0  0  0  0  0  0
    7.7619    1.7204    0.0000 C   0  0  0  0  0  0  0  0  0  0  0  0
    6.2619    0.8544    0.0000 C   0  0  0  0  0  0  0  0  0  0  0  0
    8.2619    0.8544    0.0000 C   0  0  0  0  0  0  0  0  0  0  0  0
    6.7619   -0.0116    0.0000 C   0  0  0  0  0  0  0  0  0  0  0  0
    6.2619    2.5865    0.0000 C   0  0  0  0  0  0  0  0  0  0  0  0
    5.2619    2.5865    0.0000 C   0  0  0  0  0  0  0  0  0  0  0  0
    8.2619   -0.8776    0.0000 C   0  0  0  0  0  0  0  0  0  0  0  0
    3.7320    3.0865    0.0000 C   0  0  0  0  0  0  0  0  0  0  0  0
    3.7320    2.0865    0.0000 C   0  0  0  0  0  0  0  0  0  0  0  0
    9.2619   -0.8776    0.0000 C   0  0  0  0  0  0  0  0  0  0  0  0
    7.7619   -1.7436    0.0000 C   0  0  0  0  0  0  0  0  0  0  0  0
    4.9889    4.3417    0.0000 C   0  0  0  0  0  0  0  0  0  0  0  0
    9.7619   -1.7436    0.0000 C   0  0  0  0  0  0  0  0  0  0  0  0
    8.2619   -2.6097    0.0000 C   0  0  0  0  0  0  0  0  0  0  0  0
    2.8660    3.5865    0.0000 C   0  0  0  0  0  0  0  0  0  0  0  0
    9.2619   -2.6097    0.0000 C   0  0  0  0  0  0  0  0  0  0  0  0
    2.8660    1.5865    0.0000 C   0  0  0  0  0  0  0  0  0  0  0  0
    2.0000    3.0865    0.0000 C   0  0  0  0  0  0  0  0  0  0  0  0
    2.0000    2.0865    0.0000 C   0  0  0  0  0  0  0  0  0  0  0  0
    9.7619   -3.4757    0.0000 C   0  0  0  0  0  0  0  0  0  0  0  0
    8.3445    1.9325    0.0000 H   0  0  0  0  0  0  0  0  0  0  0  0
    7.6542    2.3310    0.0000 H   0  0  0  0  0  0  0  0  0  0  0  0
    5.7869    1.2530    0.0000 H   0  0  0  0  0  0  0  0  0  0  0  0
    5.7869    0.4559    0.0000 H   0  0  0  0  0  0  0  0  0  0  0  0
    8.7368    0.4559    0.0000 H   0  0  0  0  0  0  0  0  0  0  0  0
    8.7368    1.2530    0.0000 H   0  0  0  0  0  0  0  0  0  0  0  0
    6.1793   -0.2237    0.0000 H   0  0  0  0  0  0  0  0  0  0  0  0
    6.8695   -0.6222    0.0000 H   0  0  0  0  0  0  0  0  0  0  0  0
    6.8445    2.7985    0.0000 H   0  0  0  0  0  0  0  0  0  0  0  0
    6.1542    3.1971    0.0000 H   0  0  0  0  0  0  0  0  0  0  0  0
    9.5719   -0.3407    0.0000 H   0  0  0  0  0  0  0  0  0  0  0  0
    7.1419   -1.7436    0.0000 H   0  0  0  0  0  0  0  0  0  0  0  0
    5.5783    4.1491    0.0000 H   0  0  0  0  0  0  0  0  0  0  0  0
    5.1815    4.9310    0.0000 H   0  0  0  0  0  0  0  0  0  0  0  0
    4.3996    4.5343    0.0000 H   0  0  0  0  0  0  0  0  0  0  0  0
   10.3819   -1.7436    0.0000 H   0  0  0  0  0  0  0  0  0  0  0  0
    7.9519   -3.1466    0.0000 H   0  0  0  0  0  0  0  0  0  0  0  0
    2.8660    4.2065    0.0000 H   0  0  0  0  0  0  0  0  0  0  0  0
    2.8660    0.9665    0.0000 H   0  0  0  0  0  0  0  0  0  0  0  0
    1.4631    3.3965    0.0000 H   0  0  0  0  0  0  0  0  0  0  0  0
    1.4631    1.7765    0.0000 H   0  0  0  0  0  0  0  0  0  0  0  0
  1 27  1  0  0  0  0
  2 27  1  0  0  0  0
  3 27  1  0  0  0  0
  4  8  1  0  0  0  0
  4  9  1  0  0  0  0
  4 12  1  0  0  0  0
  5 10  1  0  0  0  0
  5 11  1  0  0  0  0
  5 14  1  0  0  0  0
  6 13  1  0  0  0  0
  6 15  1  0  0  0  0
  6 19  1  0  0  0  0
  7 13  2  0  0  0  0
  7 16  1  0  0  0  0
  8 10  1  0  0  0  0
  8 28  1  0  0  0  0
  8 29  1  0  0  0  0
  9 11  1  0  0  0  0
  9 30  1  0  0  0  0
  9 31  1  0  0  0  0
 10 32  1  0  0  0  0
 10 33  1  0  0  0  0
 11 34  1  0  0  0  0
 11 35  1  0  0  0  0
 12 13  1  0  0  0  0
 12 36  1  0  0  0  0
 12 37  1  0  0  0  0
 14 17  2  0  0  0  0
 14 18  1  0  0  0  0
 15 16  1  0  0  0  0
 15 22  2  0  0  0  0
 16 24  2  0  0  0  0
 17 20  1  0  0  0  0
 17 38  1  0  0  0  0
 18 21  2  0  0  0  0
 18 39  1  0  0  0  0
 19 40  1  0  0  0  0
 19 41  1  0  0  0  0
 19 42  1  0  0  0  0
 20 23  2  0  0  0  0
 20 43  1  0  0  0  0
 21 23  1  0  0  0  0
 21 44  1  0  0  0  0
 22 25  1  0  0  0  0
 22 45  1  0  0  0  0
 23 27  1  0  0  0  0
 24 26  1  0  0  0  0
 24 46  1  0  0  0  0
 25 26  2  0  0  0  0
 25 47  1  0  0  0  0
 26 48  1  0  0  0  0
M  END
> <PUBCHEM_COMPOUND_CID>
46225335

> <PUBCHEM_COMPOUND_CANONICALIZED>
1

> <PUBCHEM_CACTVS_COMPLEXITY>
484

> <PUBCHEM_CACTVS_HBOND_ACCEPTOR>
6

> <PUBCHEM_CACTVS_HBOND_DONOR>
0

> <PUBCHEM_CACTVS_ROTATABLE_BOND>
3

> <PUBCHEM_CACTVS_SUBSKEYS>
AAADceB7gYAAAAAAAAAAAAAAAAAAAWAAAAA8YIAAAAAAAFgB9AAAHQAAAAAADAjBHxQz0LcMEACgAyZiZACCgC0hEqAJ2CA4dJiIaKLAmZGUIAhogALIyCcQgAAOCAAAAAAAACAQAAAAAAAAQAAAAAAAAA==

> <PUBCHEM_IUPAC_OPENEYE_NAME>
1-methyl-2-[[4-[4-(trifluoromethyl)phenyl]piperazin-1-yl]methyl]benzimidazole

> <PUBCHEM_IUPAC_CAS_NAME>
1-methyl-2-[[4-[4-(trifluoromethyl)phenyl]-1-piperazinyl]methyl]benzimidazole

> <PUBCHEM_IUPAC_NAME_MARKUP>
1-methyl-2-[[4-[4-(trifluoromethyl)phenyl]piperazin-1-yl]methyl]benzimidazole

> <PUBCHEM_IUPAC_NAME>
1-methyl-2-[[4-[4-(trifluoromethyl)phenyl]piperazin-1-yl]methyl]benzimidazole

> <PUBCHEM_IUPAC_SYSTEMATIC_NAME>
1-methyl-2-[[4-[4-(trifluoromethyl)phenyl]piperazin-1-yl]methyl]benzimidazole

> <PUBCHEM_IUPAC_TRADITIONAL_NAME>
1-methyl-2-[[4-[4-(trifluoromethyl)phenyl]piperazino]methyl]benzimidazole

> <PUBCHEM_IUPAC_INCHI>
InChI=1S/C20H21F3N4/c1-25-18-5-3-2-4-17(18)24-19(25)14-26-10-12-27(13-11-26)16-8-6-15(7-9-16)20(21,22)23/h2-9H,10-14H2,1H3

> <PUBCHEM_IUPAC_INCHIKEY>
HMTVAZYSTOCXKI-UHFFFAOYSA-N

> <PUBCHEM_XLOGP3_AA>
3.8

> <PUBCHEM_EXACT_MASS>
374.17183117

> <PUBCHEM_MOLECULAR_FORMULA>
C20H21F3N4

> <PUBCHEM_MOLECULAR_WEIGHT>
374.4

> <PUBCHEM_OPENEYE_CAN_SMILES>
CN1C2=CC=CC=C2N=C1CN3CCN(CC3)C4=CC=C(C=C4)C(F)(F)F

> <PUBCHEM_OPENEYE_ISO_SMILES>
CN1C2=CC=CC=C2N=C1CN3CCN(CC3)C4=CC=C(C=C4)C(F)(F)F

> <PUBCHEM_CACTVS_TPSA>
24.3

> <PUBCHEM_MONOISOTOPIC_WEIGHT>
374.17183117

> <PUBCHEM_TOTAL_CHARGE>
0

> <PUBCHEM_HEAVY_ATOM_COUNT>
27

> <PUBCHEM_ATOM_DEF_STEREO_COUNT>
0

> <PUBCHEM_ATOM_UDEF_STEREO_COUNT>
0

> <PUBCHEM_BOND_DEF_STEREO_COUNT>
0

> <PUBCHEM_BOND_UDEF_STEREO_COUNT>
0

> <PUBCHEM_ISOTOPIC_ATOM_COUNT>
0

> <PUBCHEM_COMPONENT_COUNT>
1

> <PUBCHEM_CACTVS_TAUTO_COUNT>
-1

> <PUBCHEM_COORDINATE_TYPE>
1
5
255

> <PUBCHEM_BONDANNOTATIONS>
14  17  8
14  18  8
15  16  8
15  22  8
16  24  8
17  20  8
18  21  8
20  23  8
21  23  8
22  25  8
24  26  8
25  26  8
6  13  8
6  15  8
7  13  8
7  16  8

$$$$
