46914776
  -OEChem-09292322482D

 55 58  0     0  0  0  0  0  0999 V2000
    4.6783    1.2933    0.0000 O   0  0  0  0  0  0  0  0  0  0  0  0
   12.2619   -1.3660    0.0000 O   0  0  0  0  0  0  0  0  0  0  0  0
    6.7619    1.2320    0.0000 N   0  0  0  0  0  0  0  0  0  0  0  0
    7.7619   -0.5000    0.0000 N   0  0  0  0  0  0  0  0  0  0  0  0
    6.2619    0.3660    0.0000 C   0  0  0  0  0  0  0  0  0  0  0  0
    7.7619    1.2320    0.0000 C   0  0  0  0  0  0  0  0  0  0  0  0
    6.7619   -0.5000    0.0000 C   0  0  0  0  0  0  0  0  0  0  0  0
    8.2619    0.3660    0.0000 C   0  0  0  0  0  0  0  0  0  0  0  0
    6.2619    2.0981    0.0000 C   0  0  0  0  0  0  0  0  0  0  0  0
    8.2619   -1.3660    0.0000 C   0  0  0  0  0  0  0  0  0  0  0  0
    5.2619    2.0981    0.0000 C   0  0  0  0  0  0  0  0  0  0  0  0
    9.2619   -1.3660    0.0000 C   0  0  0  0  0  0  0  0  0  0  0  0
    4.6783    2.9028    0.0000 C   0  0  0  0  0  0  0  0  0  0  0  0
    9.7619   -0.5000    0.0000 C   0  0  0  0  0  0  0  0  0  0  0  0
    9.7619   -2.2320    0.0000 C   0  0  0  0  0  0  0  0  0  0  0  0
    3.7320    2.5981    0.0000 C   0  0  0  0  0  0  0  0  0  0  0  0
    3.7320    1.5981    0.0000 C   0  0  0  0  0  0  0  0  0  0  0  0
   10.7619   -0.5000    0.0000 C   0  0  0  0  0  0  0  0  0  0  0  0
   10.7619   -2.2320    0.0000 C   0  0  0  0  0  0  0  0  0  0  0  0
   11.2619   -1.3660    0.0000 C   0  0  0  0  0  0  0  0  0  0  0  0
    2.8660    3.0981    0.0000 C   0  0  0  0  0  0  0  0  0  0  0  0
    2.8660    1.0981    0.0000 C   0  0  0  0  0  0  0  0  0  0  0  0
    2.0000    2.5981    0.0000 C   0  0  0  0  0  0  0  0  0  0  0  0
    2.0000    1.5981    0.0000 C   0  0  0  0  0  0  0  0  0  0  0  0
   12.7619   -2.2320    0.0000 C   0  0  0  0  0  0  0  0  0  0  0  0
   13.7619   -2.2320    0.0000 C   0  0  0  0  0  0  0  0  0  0  0  0
   14.2619   -3.0981    0.0000 C   0  0  0  0  0  0  0  0  0  0  0  0
    5.7869    0.7646    0.0000 H   0  0  0  0  0  0  0  0  0  0  0  0
    5.7869   -0.0325    0.0000 H   0  0  0  0  0  0  0  0  0  0  0  0
    8.3445    1.4441    0.0000 H   0  0  0  0  0  0  0  0  0  0  0  0
    7.6542    1.8426    0.0000 H   0  0  0  0  0  0  0  0  0  0  0  0
    6.1793   -0.7121    0.0000 H   0  0  0  0  0  0  0  0  0  0  0  0
    6.8695   -1.1106    0.0000 H   0  0  0  0  0  0  0  0  0  0  0  0
    8.7368   -0.0325    0.0000 H   0  0  0  0  0  0  0  0  0  0  0  0
    8.7368    0.7646    0.0000 H   0  0  0  0  0  0  0  0  0  0  0  0
    6.8445    2.3101    0.0000 H   0  0  0  0  0  0  0  0  0  0  0  0
    6.1542    2.7087    0.0000 H   0  0  0  0  0  0  0  0  0  0  0  0
    7.6793   -1.5781    0.0000 H   0  0  0  0  0  0  0  0  0  0  0  0
    8.3695   -1.9766    0.0000 H   0  0  0  0  0  0  0  0  0  0  0  0
    4.8709    3.4921    0.0000 H   0  0  0  0  0  0  0  0  0  0  0  0
    9.4519    0.0369    0.0000 H   0  0  0  0  0  0  0  0  0  0  0  0
    9.4519   -2.7690    0.0000 H   0  0  0  0  0  0  0  0  0  0  0  0
   11.0719    0.0369    0.0000 H   0  0  0  0  0  0  0  0  0  0  0  0
   11.0719   -2.7690    0.0000 H   0  0  0  0  0  0  0  0  0  0  0  0
    2.8660    3.7181    0.0000 H   0  0  0  0  0  0  0  0  0  0  0  0
    2.8660    0.4781    0.0000 H   0  0  0  0  0  0  0  0  0  0  0  0
    1.4631    2.9081    0.0000 H   0  0  0  0  0  0  0  0  0  0  0  0
    1.4631    1.2881    0.0000 H   0  0  0  0  0  0  0  0  0  0  0  0
   12.1793   -2.4441    0.0000 H   0  0  0  0  0  0  0  0  0  0  0  0
   12.8695   -2.8426    0.0000 H   0  0  0  0  0  0  0  0  0  0  0  0
   14.3445   -2.0200    0.0000 H   0  0  0  0  0  0  0  0  0  0  0  0
   13.6542   -1.6215    0.0000 H   0  0  0  0  0  0  0  0  0  0  0  0
   13.7249   -3.4081    0.0000 H   0  0  0  0  0  0  0  0  0  0  0  0
   14.5719   -3.6350    0.0000 H   0  0  0  0  0  0  0  0  0  0  0  0
   14.7988   -2.7881    0.0000 H   0  0  0  0  0  0  0  0  0  0  0  0
  1 11  1  0  0  0  0
  1 17  1  0  0  0  0
  2 20  1  0  0  0  0
  2 25  1  0  0  0  0
  3  5  1  0  0  0  0
  3  6  1  0  0  0  0
  3  9  1  0  0  0  0
  4  7  1  0  0  0  0
  4  8  1  0  0  0  0
  4 10  1  0  0  0  0
  5  7  1  0  0  0  0
  5 28  1  0  0  0  0
  5 29  1  0  0  0  0
  6  8  1  0  0  0  0
  6 30  1  0  0  0  0
  6 31  1  0  0  0  0
  7 32  1  0  0  0  0
  7 33  1  0  0  0  0
  8 34  1  0  0  0  0
  8 35  1  0  0  0  0
  9 11  1  0  0  0  0
  9 36  1  0  0  0  0
  9 37  1  0  0  0  0
 10 12  1  0  0  0  0
 10 38  1  0  0  0  0
 10 39  1  0  0  0  0
 11 13  2  0  0  0  0
 12 14  2  0  0  0  0
 12 15  1  0  0  0  0
 13 16  1  0  0  0  0
 13 40  1  0  0  0  0
 14 18  1  0  0  0  0
 14 41  1  0  0  0  0
 15 19  2  0  0  0  0
 15 42  1  0  0  0  0
 16 17  1  0  0  0  0
 16 21  2  0  0  0  0
 17 22  2  0  0  0  0
 18 20  2  0  0  0  0
 18 43  1  0  0  0  0
 19 20  1  0  0  0  0
 19 44  1  0  0  0  0
 21 23  1  0  0  0  0
 21 45  1  0  0  0  0
 22 24  1  0  0  0  0
 22 46  1  0  0  0  0
 23 24  2  0  0  0  0
 23 47  1  0  0  0  0
 24 48  1  0  0  0  0
 25 26  1  0  0  0  0
 25 49  1  0  0  0  0
 25 50  1  0  0  0  0
 26 27  1  0  0  0  0
 26 51  1  0  0  0  0
 26 52  1  0  0  0  0
 27 53  1  0  0  0  0
 27 54  1  0  0  0  0
 27 55  1  0  0  0  0
M  END
> <PUBCHEM_COMPOUND_CID>
46914776

> <PUBCHEM_COMPOUND_CANONICALIZED>
1

> <PUBCHEM_CACTVS_COMPLEXITY>
430

> <PUBCHEM_CACTVS_HBOND_ACCEPTOR>
4

> <PUBCHEM_CACTVS_HBOND_DONOR>
0

> <PUBCHEM_CACTVS_ROTATABLE_BOND>
7

> <PUBCHEM_CACTVS_SUBSKEYS>
AAADceB7MAAAAAAAAAAAAAAAAAAAASAAAAA8YIAAAAAAAEgB9AAAHgAAAAAADAThmAYyBsMABECIAqBSAACCCAAkIAAIiAGODMgOZjKEtTuXOSjkwBGYqYeY2aKOIAAAAAAIAABAAAAAABAAAAAAAAAAAA==

> <PUBCHEM_IUPAC_OPENEYE_NAME>
1-(benzofuran-2-ylmethyl)-4-[(4-propoxyphenyl)methyl]piperazine

> <PUBCHEM_IUPAC_CAS_NAME>
1-(2-benzofuranylmethyl)-4-[(4-propoxyphenyl)methyl]piperazine

> <PUBCHEM_IUPAC_NAME_MARKUP>
1-(1-benzofuran-2-ylmethyl)-4-[(4-propoxyphenyl)methyl]piperazine

> <PUBCHEM_IUPAC_NAME>
1-(1-benzofuran-2-ylmethyl)-4-[(4-propoxyphenyl)methyl]piperazine

> <PUBCHEM_IUPAC_SYSTEMATIC_NAME>
1-(1-benzofuran-2-ylmethyl)-4-[(4-propoxyphenyl)methyl]piperazine

> <PUBCHEM_IUPAC_TRADITIONAL_NAME>
1-(benzofuran-2-ylmethyl)-4-(4-propoxybenzyl)piperazine

> <PUBCHEM_IUPAC_INCHI>
InChI=1S/C23H28N2O2/c1-2-15-26-21-9-7-19(8-10-21)17-24-11-13-25(14-12-24)18-22-16-20-5-3-4-6-23(20)27-22/h3-10,16H,2,11-15,17-18H2,1H3

> <PUBCHEM_IUPAC_INCHIKEY>
XPJMTJRBFHPHRB-UHFFFAOYSA-N

> <PUBCHEM_XLOGP3_AA>
4.4

> <PUBCHEM_EXACT_MASS>
364.215078140

> <PUBCHEM_MOLECULAR_FORMULA>
C23H28N2O2

> <PUBCHEM_MOLECULAR_WEIGHT>
364.5

> <PUBCHEM_OPENEYE_CAN_SMILES>
CCCOC1=CC=C(C=C1)CN2CCN(CC2)CC3=CC4=CC=CC=C4O3

> <PUBCHEM_OPENEYE_ISO_SMILES>
CCCOC1=CC=C(C=C1)CN2CCN(CC2)CC3=CC4=CC=CC=C4O3

> <PUBCHEM_CACTVS_TPSA>
28.8

> <PUBCHEM_MONOISOTOPIC_WEIGHT>
364.215078140

> <PUBCHEM_TOTAL_CHARGE>
0

> <PUBCHEM_HEAVY_ATOM_COUNT>
27

> <PUBCHEM_ATOM_DEF_STEREO_COUNT>
0

> <PUBCHEM_ATOM_UDEF_STEREO_COUNT>
0

> <PUBCHEM_BOND_DEF_STEREO_COUNT>
0

> <PUBCHEM_BOND_UDEF_STEREO_COUNT>
0

> <PUBCHEM_ISOTOPIC_ATOM_COUNT>
0

> <PUBCHEM_COMPONENT_COUNT>
1

> <PUBCHEM_CACTVS_TAUTO_COUNT>
-1

> <PUBCHEM_COORDINATE_TYPE>
1
5
255

> <PUBCHEM_BONDANNOTATIONS>
1  11  8
1  17  8
11  13  8
12  14  8
12  15  8
13  16  8
14  18  8
15  19  8
16  17  8
16  21  8
17  22  8
18  20  8
19  20  8
21  23  8
22  24  8
23  24  8

$$$$
