127046815
  -OEChem-09292322372D

 71 75  0     0  0  0  0  0  0999 V2000
    8.4530   -4.0740    0.0000 S   0  0  0  0  0  0  0  0  0  0  0  0
    9.4035   -3.7633    0.0000 O   0  0  0  0  0  0  0  0  0  0  0  0
    7.5025   -4.3847    0.0000 O   0  0  0  0  0  0  0  0  0  0  0  0
    6.3301    2.6813    0.0000 O   0  0  0  0  0  0  0  0  0  0  0  0
    4.5981   -3.3187    0.0000 N   0  0  0  0  0  0  0  0  0  0  0  0
    2.8660   -4.3187    0.0000 N   0  0  0  0  0  0  0  0  0  0  0  0
    8.1424   -3.1235    0.0000 N   0  0  0  0  0  0  0  0  0  0  0  0
    6.3301   -3.3187    0.0000 N   0  0  0  0  0  0  0  0  0  0  0  0
    3.7320   -2.8187    0.0000 C   0  0  0  0  0  0  0  0  0  0  0  0
    4.5981   -4.3187    0.0000 C   0  0  0  0  0  0  0  0  0  0  0  0
    2.8660   -3.3187    0.0000 C   0  0  0  0  0  0  0  0  0  0  0  0
    3.7320   -4.8187    0.0000 C   0  0  0  0  0  0  0  0  0  0  0  0
    5.4641   -2.8187    0.0000 C   0  0  0  0  0  0  0  0  0  0  0  0
    7.1962   -2.8187    0.0000 C   0  0  0  0  0  0  0  0  0  0  0  0
    7.1962   -1.8187    0.0000 C   0  0  0  0  0  0  0  0  0  0  0  0
    8.7637   -5.0245    0.0000 C   0  0  0  0  0  0  0  0  0  0  0  0
    6.3301   -1.3187    0.0000 C   0  0  0  0  0  0  0  0  0  0  0  0
    5.4641   -1.8187    0.0000 C   0  0  0  0  0  0  0  0  0  0  0  0
    9.7422   -5.2307    0.0000 C   0  0  0  0  0  0  0  0  0  0  0  0
    2.0000   -4.8187    0.0000 C   0  0  0  0  0  0  0  0  0  0  0  0
    8.7260   -2.3187    0.0000 C   0  0  0  0  0  0  0  0  0  0  0  0
    8.1424   -1.5140    0.0000 C   0  0  0  0  0  0  0  0  0  0  0  0
    6.3301   -0.3187    0.0000 C   0  0  0  0  0  0  0  0  0  0  0  0
   10.0529   -6.1813    0.0000 C   0  0  0  0  0  0  0  0  0  0  0  0
   10.4100   -4.4864    0.0000 C   0  0  0  0  0  0  0  0  0  0  0  0
    7.1962    0.1813    0.0000 C   0  0  0  0  0  0  0  0  0  0  0  0
    5.4641    0.1813    0.0000 C   0  0  0  0  0  0  0  0  0  0  0  0
    7.1962    1.1813    0.0000 C   0  0  0  0  0  0  0  0  0  0  0  0
    5.4641    1.1813    0.0000 C   0  0  0  0  0  0  0  0  0  0  0  0
    6.3301    1.6813    0.0000 C   0  0  0  0  0  0  0  0  0  0  0  0
    5.4641    3.1813    0.0000 C   0  0  0  0  0  0  0  0  0  0  0  0
    5.4641    4.1813    0.0000 C   0  0  0  0  0  0  0  0  0  0  0  0
    4.5981    4.6813    0.0000 C   0  0  0  0  0  0  0  0  0  0  0  0
    6.3301    4.6813    0.0000 C   0  0  0  0  0  0  0  0  0  0  0  0
    4.5981    5.6813    0.0000 C   0  0  0  0  0  0  0  0  0  0  0  0
    6.3301    5.6813    0.0000 C   0  0  0  0  0  0  0  0  0  0  0  0
    5.4641    6.1813    0.0000 C   0  0  0  0  0  0  0  0  0  0  0  0
    4.1306   -2.3438    0.0000 H   0  0  0  0  0  0  0  0  0  0  0  0
    3.3335   -2.3438    0.0000 H   0  0  0  0  0  0  0  0  0  0  0  0
    4.8101   -4.9014    0.0000 H   0  0  0  0  0  0  0  0  0  0  0  0
    5.2087   -4.2111    0.0000 H   0  0  0  0  0  0  0  0  0  0  0  0
    2.6540   -2.7361    0.0000 H   0  0  0  0  0  0  0  0  0  0  0  0
    2.2554   -3.4264    0.0000 H   0  0  0  0  0  0  0  0  0  0  0  0
    3.3335   -5.2937    0.0000 H   0  0  0  0  0  0  0  0  0  0  0  0
    4.1306   -5.2937    0.0000 H   0  0  0  0  0  0  0  0  0  0  0  0
    8.1499   -5.1119    0.0000 H   0  0  0  0  0  0  0  0  0  0  0  0
    8.7431   -5.6442    0.0000 H   0  0  0  0  0  0  0  0  0  0  0  0
    4.9272   -1.5087    0.0000 H   0  0  0  0  0  0  0  0  0  0  0  0
    9.5496   -4.6414    0.0000 H   0  0  0  0  0  0  0  0  0  0  0  0
    1.6900   -4.2818    0.0000 H   0  0  0  0  0  0  0  0  0  0  0  0
    1.4631   -5.1287    0.0000 H   0  0  0  0  0  0  0  0  0  0  0  0
    2.3100   -5.3557    0.0000 H   0  0  0  0  0  0  0  0  0  0  0  0
    9.3460   -2.3187    0.0000 H   0  0  0  0  0  0  0  0  0  0  0  0
    8.3350   -0.9247    0.0000 H   0  0  0  0  0  0  0  0  0  0  0  0
    9.4635   -6.3739    0.0000 H   0  0  0  0  0  0  0  0  0  0  0  0
   10.2455   -6.7706    0.0000 H   0  0  0  0  0  0  0  0  0  0  0  0
   10.6422   -5.9886    0.0000 H   0  0  0  0  0  0  0  0  0  0  0  0
   10.8715   -4.9005    0.0000 H   0  0  0  0  0  0  0  0  0  0  0  0
   10.8241   -4.0250    0.0000 H   0  0  0  0  0  0  0  0  0  0  0  0
    9.9486   -4.0724    0.0000 H   0  0  0  0  0  0  0  0  0  0  0  0
    7.7331   -0.1287    0.0000 H   0  0  0  0  0  0  0  0  0  0  0  0
    4.9272   -0.1287    0.0000 H   0  0  0  0  0  0  0  0  0  0  0  0
    7.7331    1.4913    0.0000 H   0  0  0  0  0  0  0  0  0  0  0  0
    4.9272    1.4913    0.0000 H   0  0  0  0  0  0  0  0  0  0  0  0
    4.8535    3.2889    0.0000 H   0  0  0  0  0  0  0  0  0  0  0  0
    5.2520    2.5986    0.0000 H   0  0  0  0  0  0  0  0  0  0  0  0
    4.0611    4.3713    0.0000 H   0  0  0  0  0  0  0  0  0  0  0  0
    6.8671    4.3713    0.0000 H   0  0  0  0  0  0  0  0  0  0  0  0
    4.0611    5.9913    0.0000 H   0  0  0  0  0  0  0  0  0  0  0  0
    6.8671    5.9913    0.0000 H   0  0  0  0  0  0  0  0  0  0  0  0
    5.4641    6.8013    0.0000 H   0  0  0  0  0  0  0  0  0  0  0  0
  1  2  2  0  0  0  0
  1  3  2  0  0  0  0
  1  7  1  0  0  0  0
  1 16  1  0  0  0  0
  4 30  1  0  0  0  0
  4 31  1  0  0  0  0
  5  9  1  0  0  0  0
  5 10  1  0  0  0  0
  5 13  1  0  0  0  0
  6 11  1  0  0  0  0
  6 12  1  0  0  0  0
  6 20  1  0  0  0  0
  7 14  1  0  0  0  0
  7 21  1  0  0  0  0
  8 13  2  0  0  0  0
  8 14  1  0  0  0  0
  9 11  1  0  0  0  0
  9 38  1  0  0  0  0
  9 39  1  0  0  0  0
 10 12  1  0  0  0  0
 10 40  1  0  0  0  0
 10 41  1  0  0  0  0
 11 42  1  0  0  0  0
 11 43  1  0  0  0  0
 12 44  1  0  0  0  0
 12 45  1  0  0  0  0
 13 18  1  0  0  0  0
 14 15  2  0  0  0  0
 15 17  1  0  0  0  0
 15 22  1  0  0  0  0
 16 19  1  0  0  0  0
 16 46  1  0  0  0  0
 16 47  1  0  0  0  0
 17 18  2  0  0  0  0
 17 23  1  0  0  0  0
 18 48  1  0  0  0  0
 19 24  1  0  0  0  0
 19 25  1  0  0  0  0
 19 49  1  0  0  0  0
 20 50  1  0  0  0  0
 20 51  1  0  0  0  0
 20 52  1  0  0  0  0
 21 22  2  0  0  0  0
 21 53  1  0  0  0  0
 22 54  1  0  0  0  0
 23 26  2  0  0  0  0
 23 27  1  0  0  0  0
 24 55  1  0  0  0  0
 24 56  1  0  0  0  0
 24 57  1  0  0  0  0
 25 58  1  0  0  0  0
 25 59  1  0  0  0  0
 25 60  1  0  0  0  0
 26 28  1  0  0  0  0
 26 61  1  0  0  0  0
 27 29  2  0  0  0  0
 27 62  1  0  0  0  0
 28 30  2  0  0  0  0
 28 63  1  0  0  0  0
 29 30  1  0  0  0  0
 29 64  1  0  0  0  0
 31 32  1  0  0  0  0
 31 65  1  0  0  0  0
 31 66  1  0  0  0  0
 32 33  2  0  0  0  0
 32 34  1  0  0  0  0
 33 35  1  0  0  0  0
 33 67  1  0  0  0  0
 34 36  2  0  0  0  0
 34 68  1  0  0  0  0
 35 37  2  0  0  0  0
 35 69  1  0  0  0  0
 36 37  1  0  0  0  0
 36 70  1  0  0  0  0
 37 71  1  0  0  0  0
M  END
> <PUBCHEM_COMPOUND_CID>
127046815

> <PUBCHEM_COMPOUND_CANONICALIZED>
1

> <PUBCHEM_CACTVS_COMPLEXITY>
812

> <PUBCHEM_CACTVS_HBOND_ACCEPTOR>
6

> <PUBCHEM_CACTVS_HBOND_DONOR>
0

> <PUBCHEM_CACTVS_ROTATABLE_BOND>
8

> <PUBCHEM_CACTVS_SUBSKEYS>
AAADcfB7sABAAAAAAAAAAAAAAAAAAWAAAAA8eIEAAAAAAFgB/AAAHgQAQAAADQTl2wa/tt8IFAKgAjJnZHDCiCkxIqAJ2CA+bJiMbuLEuZuWOCjswBPI6CeQwPAOoAAAAAAAAABAAAAAAAAAAAAAAAAAAA==

> <PUBCHEM_IUPAC_OPENEYE_NAME>
4-(4-benzyloxyphenyl)-1-isobutylsulfonyl-6-(4-methylpiperazin-1-yl)pyrrolo[2,3-b]pyridine

> <PUBCHEM_IUPAC_CAS_NAME>
6-(4-methyl-1-piperazinyl)-1-(2-methylpropylsulfonyl)-4-(4-phenylmethoxyphenyl)pyrrolo[2,3-b]pyridine

> <PUBCHEM_IUPAC_NAME_MARKUP>
6-(4-methylpiperazin-1-yl)-1-(2-methylpropylsulfonyl)-4-(4-phenylmethoxyphenyl)pyrrolo[2,3-b]pyridine

> <PUBCHEM_IUPAC_NAME>
6-(4-methylpiperazin-1-yl)-1-(2-methylpropylsulfonyl)-4-(4-phenylmethoxyphenyl)pyrrolo[2,3-b]pyridine

> <PUBCHEM_IUPAC_SYSTEMATIC_NAME>
6-(4-methylpiperazin-1-yl)-1-(2-methylpropylsulfonyl)-4-(4-phenylmethoxyphenyl)pyrrolo[2,3-b]pyridine

> <PUBCHEM_IUPAC_TRADITIONAL_NAME>
4-(4-benzoxyphenyl)-1-isobutylsulfonyl-6-(4-methylpiperazino)pyrrolo[2,3-b]pyridine

> <PUBCHEM_IUPAC_INCHI>
InChI=1S/C29H34N4O3S/c1-22(2)21-37(34,35)33-14-13-26-27(19-28(30-29(26)33)32-17-15-31(3)16-18-32)24-9-11-25(12-10-24)36-20-23-7-5-4-6-8-23/h4-14,19,22H,15-18,20-21H2,1-3H3

> <PUBCHEM_IUPAC_INCHIKEY>
POFPGNGXPMKIRD-UHFFFAOYSA-N

> <PUBCHEM_XLOGP3_AA>
5.6

> <PUBCHEM_EXACT_MASS>
518.23516213

> <PUBCHEM_MOLECULAR_FORMULA>
C29H34N4O3S

> <PUBCHEM_MOLECULAR_WEIGHT>
518.7

> <PUBCHEM_OPENEYE_CAN_SMILES>
CC(C)CS(=O)(=O)N1C=CC2=C1N=C(C=C2C3=CC=C(C=C3)OCC4=CC=CC=C4)N5CCN(CC5)C

> <PUBCHEM_OPENEYE_ISO_SMILES>
CC(C)CS(=O)(=O)N1C=CC2=C1N=C(C=C2C3=CC=C(C=C3)OCC4=CC=CC=C4)N5CCN(CC5)C

> <PUBCHEM_CACTVS_TPSA>
76

> <PUBCHEM_MONOISOTOPIC_WEIGHT>
518.23516213

> <PUBCHEM_TOTAL_CHARGE>
0

> <PUBCHEM_HEAVY_ATOM_COUNT>
37

> <PUBCHEM_ATOM_DEF_STEREO_COUNT>
0

> <PUBCHEM_ATOM_UDEF_STEREO_COUNT>
0

> <PUBCHEM_BOND_DEF_STEREO_COUNT>
0

> <PUBCHEM_BOND_UDEF_STEREO_COUNT>
0

> <PUBCHEM_ISOTOPIC_ATOM_COUNT>
0

> <PUBCHEM_COMPONENT_COUNT>
1

> <PUBCHEM_CACTVS_TAUTO_COUNT>
-1

> <PUBCHEM_COORDINATE_TYPE>
1
5
255

> <PUBCHEM_BONDANNOTATIONS>
13  18  8
14  15  8
15  17  8
15  22  8
17  18  8
21  22  8
23  26  8
23  27  8
26  28  8
27  29  8
28  30  8
29  30  8
32  33  8
32  34  8
33  35  8
34  36  8
35  37  8
36  37  8
7  14  8
7  21  8
8  13  8
8  14  8

$$$$
