44339984
  -OEChem-09292322192D

 54 57  0     1  0  0  0  0  0999 V2000
    9.9371    3.1193    0.0000 Br  0  0  0  0  0  0  0  0  0  0  0  0
    8.2050   -0.8807    0.0000 O   0  0  0  0  0  0  0  0  0  0  0  0
    9.9371   -0.8807    0.0000 O   0  0  0  0  0  0  0  0  0  0  0  0
    5.3903   -1.0831    0.0000 N   0  0  3  0  0  0  0  0  0  0  0  0
    7.3390    0.6193    0.0000 N   0  0  0  0  0  0  0  0  0  0  0  0
    5.5594    0.5260    0.0000 C   0  0  2  0  0  0  0  0  0  0  0  0
    6.4730    0.1193    0.0000 C   0  0  2  0  0  0  0  0  0  0  0  0
    4.8903   -0.2171    0.0000 C   0  0  0  0  0  0  0  0  0  0  0  0
    6.3684   -0.8752    0.0000 C   0  0  0  0  0  0  0  0  0  0  0  0
    5.3515    1.5042    0.0000 C   0  0  0  0  0  0  0  0  0  0  0  0
    4.9836   -1.9967    0.0000 C   0  0  0  0  0  0  0  0  0  0  0  0
    3.9890   -2.1012    0.0000 C   0  0  0  0  0  0  0  0  0  0  0  0
    8.2050    0.1193    0.0000 C   0  0  0  0  0  0  0  0  0  0  0  0
    9.0710    0.6193    0.0000 C   0  0  0  0  0  0  0  0  0  0  0  0
    3.4013   -1.2922    0.0000 C   0  0  0  0  0  0  0  0  0  0  0  0
    3.5823   -3.0148    0.0000 C   0  0  0  0  0  0  0  0  0  0  0  0
    9.9371    0.1193    0.0000 C   0  0  0  0  0  0  0  0  0  0  0  0
    9.0710    1.6193    0.0000 C   0  0  0  0  0  0  0  0  0  0  0  0
    2.4067   -1.3967    0.0000 C   0  0  0  0  0  0  0  0  0  0  0  0
    2.5878   -3.1193    0.0000 C   0  0  0  0  0  0  0  0  0  0  0  0
   10.8031    0.6193    0.0000 C   0  0  0  0  0  0  0  0  0  0  0  0
   10.8031    1.6193    0.0000 C   0  0  0  0  0  0  0  0  0  0  0  0
    2.0000   -2.3103    0.0000 C   0  0  0  0  0  0  0  0  0  0  0  0
    9.9371    2.1193    0.0000 C   0  0  0  0  0  0  0  0  0  0  0  0
   11.6970    0.0846    0.0000 C   0  0  0  0  0  0  0  0  0  0  0  0
   11.6970    2.1540    0.0000 C   0  0  0  0  0  0  0  0  0  0  0  0
   12.6031    0.5985    0.0000 C   0  0  0  0  0  0  0  0  0  0  0  0
   12.6031    1.6401    0.0000 C   0  0  0  0  0  0  0  0  0  0  0  0
   10.8031   -1.3807    0.0000 C   0  0  0  0  0  0  0  0  0  0  0  0
    6.0413    0.9162    0.0000 H   0  0  0  0  0  0  0  0  0  0  0  0
    6.9930   -0.2184    0.0000 H   0  0  0  0  0  0  0  0  0  0  0  0
    4.4754    0.2436    0.0000 H   0  0  0  0  0  0  0  0  0  0  0  0
    4.3887   -0.5815    0.0000 H   0  0  0  0  0  0  0  0  0  0  0  0
    6.4333   -1.4918    0.0000 H   0  0  0  0  0  0  0  0  0  0  0  0
    6.9884   -0.8752    0.0000 H   0  0  0  0  0  0  0  0  0  0  0  0
    5.9580    1.6331    0.0000 H   0  0  0  0  0  0  0  0  0  0  0  0
    5.2226    2.1106    0.0000 H   0  0  0  0  0  0  0  0  0  0  0  0
    4.7451    1.3753    0.0000 H   0  0  0  0  0  0  0  0  0  0  0  0
    4.9403   -2.6152    0.0000 H   0  0  0  0  0  0  0  0  0  0  0  0
    5.5851   -2.1467    0.0000 H   0  0  0  0  0  0  0  0  0  0  0  0
    7.3390    1.2393    0.0000 H   0  0  0  0  0  0  0  0  0  0  0  0
    3.6534   -0.7258    0.0000 H   0  0  0  0  0  0  0  0  0  0  0  0
    3.9467   -3.5164    0.0000 H   0  0  0  0  0  0  0  0  0  0  0  0
    8.5341    1.9293    0.0000 H   0  0  0  0  0  0  0  0  0  0  0  0
    2.0423   -0.8951    0.0000 H   0  0  0  0  0  0  0  0  0  0  0  0
    2.3356   -3.6857    0.0000 H   0  0  0  0  0  0  0  0  0  0  0  0
    1.3834   -2.3751    0.0000 H   0  0  0  0  0  0  0  0  0  0  0  0
   11.6899   -0.5353    0.0000 H   0  0  0  0  0  0  0  0  0  0  0  0
   11.6899    2.7739    0.0000 H   0  0  0  0  0  0  0  0  0  0  0  0
   13.1389    0.2864    0.0000 H   0  0  0  0  0  0  0  0  0  0  0  0
   13.1389    1.9522    0.0000 H   0  0  0  0  0  0  0  0  0  0  0  0
   10.4931   -1.9176    0.0000 H   0  0  0  0  0  0  0  0  0  0  0  0
   11.3400   -1.6907    0.0000 H   0  0  0  0  0  0  0  0  0  0  0  0
   11.1131   -0.8438    0.0000 H   0  0  0  0  0  0  0  0  0  0  0  0
  1 24  1  0  0  0  0
  2 13  2  0  0  0  0
  3 17  1  0  0  0  0
  3 29  1  0  0  0  0
  4  8  1  0  0  0  0
  4  9  1  0  0  0  0
  4 11  1  0  0  0  0
  7  5  1  1  0  0  0
  5 13  1  0  0  0  0
  5 41  1  0  0  0  0
  6  7  1  0  0  0  0
  6  8  1  0  0  0  0
  6 10  1  6  0  0  0
  6 30  1  0  0  0  0
  7  9  1  0  0  0  0
  7 31  1  0  0  0  0
  8 32  1  0  0  0  0
  8 33  1  0  0  0  0
  9 34  1  0  0  0  0
  9 35  1  0  0  0  0
 10 36  1  0  0  0  0
 10 37  1  0  0  0  0
 10 38  1  0  0  0  0
 11 12  1  0  0  0  0
 11 39  1  0  0  0  0
 11 40  1  0  0  0  0
 12 15  2  0  0  0  0
 12 16  1  0  0  0  0
 13 14  1  0  0  0  0
 14 17  2  0  0  0  0
 14 18  1  0  0  0  0
 15 19  1  0  0  0  0
 15 42  1  0  0  0  0
 16 20  2  0  0  0  0
 16 43  1  0  0  0  0
 17 21  1  0  0  0  0
 18 24  2  0  0  0  0
 18 44  1  0  0  0  0
 19 23  2  0  0  0  0
 19 45  1  0  0  0  0
 20 23  1  0  0  0  0
 20 46  1  0  0  0  0
 21 22  1  0  0  0  0
 21 25  2  0  0  0  0
 22 24  1  0  0  0  0
 22 26  2  0  0  0  0
 23 47  1  0  0  0  0
 25 27  1  0  0  0  0
 25 48  1  0  0  0  0
 26 28  1  0  0  0  0
 26 49  1  0  0  0  0
 27 28  2  0  0  0  0
 27 50  1  0  0  0  0
 28 51  1  0  0  0  0
 29 52  1  0  0  0  0
 29 53  1  0  0  0  0
 29 54  1  0  0  0  0
M  END
> <PUBCHEM_COMPOUND_CID>
44339984

> <PUBCHEM_COMPOUND_CANONICALIZED>
1

> <PUBCHEM_CACTVS_COMPLEXITY>
553

> <PUBCHEM_CACTVS_HBOND_ACCEPTOR>
3

> <PUBCHEM_CACTVS_HBOND_DONOR>
1

> <PUBCHEM_CACTVS_ROTATABLE_BOND>
5

> <PUBCHEM_CACTVS_SUBSKEYS>
AAADceB7MAAAEAAAAAAAAAAAAAAAAWAAAAAwYMAAAAAAAADBVAAAHgBQAAABrSzBmAYyBsPABACIAiFSEACCCAAkIAQIiIEMDOgMZjaE9RuUMWhm9hGIq5eYyPCOwBADEAAYgACAIAYgADEAAAAAAAAAAA==

> <PUBCHEM_IUPAC_OPENEYE_NAME>
N-[(3R,4S)-1-benzyl-4-methyl-pyrrolidin-3-yl]-4-bromo-1-methoxy-naphthalene-2-carboxamide

> <PUBCHEM_IUPAC_CAS_NAME>
4-bromo-1-methoxy-N-[(3R,4S)-4-methyl-1-(phenylmethyl)-3-pyrrolidinyl]-2-naphthalenecarboxamide

> <PUBCHEM_IUPAC_NAME_MARKUP>
<I>N</I>-[(3<I>R</I>,4<I>S</I>)-1-benzyl-4-methylpyrrolidin-3-yl]-4-bromo-1-methoxynaphthalene-2-carboxamide

> <PUBCHEM_IUPAC_NAME>
N-[(3R,4S)-1-benzyl-4-methylpyrrolidin-3-yl]-4-bromo-1-methoxynaphthalene-2-carboxamide

> <PUBCHEM_IUPAC_SYSTEMATIC_NAME>
4-bromanyl-1-methoxy-N-[(3R,4S)-4-methyl-1-(phenylmethyl)pyrrolidin-3-yl]naphthalene-2-carboxamide

> <PUBCHEM_IUPAC_TRADITIONAL_NAME>
N-[(3R,4S)-1-benzyl-4-methyl-pyrrolidin-3-yl]-4-bromo-1-methoxy-2-naphthamide

> <PUBCHEM_IUPAC_INCHI>
InChI=1S/C24H25BrN2O2/c1-16-13-27(14-17-8-4-3-5-9-17)15-22(16)26-24(28)20-12-21(25)18-10-6-7-11-19(18)23(20)29-2/h3-12,16,22H,13-15H2,1-2H3,(H,26,28)/t16-,22-/m0/s1

> <PUBCHEM_IUPAC_INCHIKEY>
ZLQMLDGHTKCIRQ-AOMKIAJQSA-N

> <PUBCHEM_XLOGP3_AA>
5.3

> <PUBCHEM_EXACT_MASS>
452.10994

> <PUBCHEM_MOLECULAR_FORMULA>
C24H25BrN2O2

> <PUBCHEM_MOLECULAR_WEIGHT>
453.4

> <PUBCHEM_OPENEYE_CAN_SMILES>
CC1CN(CC1NC(=O)C2=C(C3=CC=CC=C3C(=C2)Br)OC)CC4=CC=CC=C4

> <PUBCHEM_OPENEYE_ISO_SMILES>
C[C@H]1CN(C[C@@H]1NC(=O)C2=C(C3=CC=CC=C3C(=C2)Br)OC)CC4=CC=CC=C4

> <PUBCHEM_CACTVS_TPSA>
41.6

> <PUBCHEM_MONOISOTOPIC_WEIGHT>
452.10994

> <PUBCHEM_TOTAL_CHARGE>
0

> <PUBCHEM_HEAVY_ATOM_COUNT>
29

> <PUBCHEM_ATOM_DEF_STEREO_COUNT>
2

> <PUBCHEM_ATOM_UDEF_STEREO_COUNT>
0

> <PUBCHEM_BOND_DEF_STEREO_COUNT>
0

> <PUBCHEM_BOND_UDEF_STEREO_COUNT>
0

> <PUBCHEM_ISOTOPIC_ATOM_COUNT>
0

> <PUBCHEM_COMPONENT_COUNT>
1

> <PUBCHEM_CACTVS_TAUTO_COUNT>
-1

> <PUBCHEM_COORDINATE_TYPE>
1
5
255

> <PUBCHEM_BONDANNOTATIONS>
12  15  8
12  16  8
14  17  8
14  18  8
15  19  8
16  20  8
17  21  8
18  24  8
19  23  8
20  23  8
21  22  8
21  25  8
22  24  8
22  26  8
25  27  8
26  28  8
27  28  8
7  5  5
6  10  6

$$$$
