145965041
  -OEChem-09292322052D

 58 61  0     0  0  0  0  0  0999 V2000
   14.7415   -0.5547    0.0000 S   0  0  0  0  0  0  0  0  0  0  0  0
    5.1350   -2.2500    0.0000 O   0  0  0  0  0  0  0  0  0  0  0  0
    4.2690    1.2500    0.0000 O   0  0  0  0  0  0  0  0  0  0  0  0
    9.4651   -1.7500    0.0000 N   0  0  0  0  0  0  0  0  0  0  0  0
   11.1972   -0.7500    0.0000 N   0  0  0  0  0  0  0  0  0  0  0  0
    4.2690   -0.7500    0.0000 N   0  0  0  0  0  0  0  0  0  0  0  0
    2.5369    1.2500    0.0000 N   0  0  0  0  0  0  0  0  0  0  0  0
   10.3312   -2.2500    0.0000 C   0  0  0  0  0  0  0  0  0  0  0  0
    9.4651   -0.7500    0.0000 C   0  0  0  0  0  0  0  0  0  0  0  0
   11.1972   -1.7500    0.0000 C   0  0  0  0  0  0  0  0  0  0  0  0
   10.3312   -0.2500    0.0000 C   0  0  0  0  0  0  0  0  0  0  0  0
    8.5991   -2.2500    0.0000 C   0  0  0  0  0  0  0  0  0  0  0  0
    7.7331   -1.7500    0.0000 C   0  0  0  0  0  0  0  0  0  0  0  0
   12.0632   -0.2500    0.0000 C   0  0  0  0  0  0  0  0  0  0  0  0
    6.8671   -2.2500    0.0000 C   0  0  0  0  0  0  0  0  0  0  0  0
   12.9292   -0.7500    0.0000 C   0  0  0  0  0  0  0  0  0  0  0  0
   12.0632    0.7500    0.0000 C   0  0  0  0  0  0  0  0  0  0  0  0
    6.0010   -1.7500    0.0000 C   0  0  0  0  0  0  0  0  0  0  0  0
   13.7953   -0.2500    0.0000 C   0  0  0  0  0  0  0  0  0  0  0  0
   13.7953    0.7500    0.0000 C   0  0  0  0  0  0  0  0  0  0  0  0
   12.9292    1.2500    0.0000 C   0  0  0  0  0  0  0  0  0  0  0  0
   14.7415    1.0547    0.0000 C   0  0  0  0  0  0  0  0  0  0  0  0
   15.3251    0.2500    0.0000 C   0  0  0  0  0  0  0  0  0  0  0  0
    4.2690   -1.7500    0.0000 C   0  0  0  0  0  0  0  0  0  0  0  0
    3.4030   -2.2500    0.0000 C   0  0  0  0  0  0  0  0  0  0  0  0
    3.4030   -0.2500    0.0000 C   0  0  0  0  0  0  0  0  0  0  0  0
    2.5369   -1.7500    0.0000 C   0  0  0  0  0  0  0  0  0  0  0  0
    2.5369   -0.7500    0.0000 C   0  0  0  0  0  0  0  0  0  0  0  0
    3.4030    0.7500    0.0000 C   0  0  0  0  0  0  0  0  0  0  0  0
    2.5369    2.2500    0.0000 C   0  0  0  0  0  0  0  0  0  0  0  0
    9.9326   -2.7250    0.0000 H   0  0  0  0  0  0  0  0  0  0  0  0
   10.7297   -2.7250    0.0000 H   0  0  0  0  0  0  0  0  0  0  0  0
    9.2531   -0.1674    0.0000 H   0  0  0  0  0  0  0  0  0  0  0  0
    8.8546   -0.8577    0.0000 H   0  0  0  0  0  0  0  0  0  0  0  0
   11.4092   -2.3326    0.0000 H   0  0  0  0  0  0  0  0  0  0  0  0
   11.8078   -1.6423    0.0000 H   0  0  0  0  0  0  0  0  0  0  0  0
   10.7297    0.2249    0.0000 H   0  0  0  0  0  0  0  0  0  0  0  0
    9.9326    0.2249    0.0000 H   0  0  0  0  0  0  0  0  0  0  0  0
    8.2006   -2.7250    0.0000 H   0  0  0  0  0  0  0  0  0  0  0  0
    8.9976   -2.7250    0.0000 H   0  0  0  0  0  0  0  0  0  0  0  0
    8.1316   -1.2750    0.0000 H   0  0  0  0  0  0  0  0  0  0  0  0
    7.3346   -1.2750    0.0000 H   0  0  0  0  0  0  0  0  0  0  0  0
    6.4685   -2.7250    0.0000 H   0  0  0  0  0  0  0  0  0  0  0  0
    7.2656   -2.7250    0.0000 H   0  0  0  0  0  0  0  0  0  0  0  0
   12.9292   -1.3700    0.0000 H   0  0  0  0  0  0  0  0  0  0  0  0
   11.5263    1.0600    0.0000 H   0  0  0  0  0  0  0  0  0  0  0  0
    6.3996   -1.2750    0.0000 H   0  0  0  0  0  0  0  0  0  0  0  0
    5.6025   -1.2750    0.0000 H   0  0  0  0  0  0  0  0  0  0  0  0
   12.9292    1.8700    0.0000 H   0  0  0  0  0  0  0  0  0  0  0  0
   14.9341    1.6441    0.0000 H   0  0  0  0  0  0  0  0  0  0  0  0
   15.9451    0.2500    0.0000 H   0  0  0  0  0  0  0  0  0  0  0  0
    3.4030   -2.8700    0.0000 H   0  0  0  0  0  0  0  0  0  0  0  0
    2.0000   -2.0600    0.0000 H   0  0  0  0  0  0  0  0  0  0  0  0
    2.0000   -0.4400    0.0000 H   0  0  0  0  0  0  0  0  0  0  0  0
    2.0000    0.9400    0.0000 H   0  0  0  0  0  0  0  0  0  0  0  0
    3.1569    2.2500    0.0000 H   0  0  0  0  0  0  0  0  0  0  0  0
    2.5369    2.8700    0.0000 H   0  0  0  0  0  0  0  0  0  0  0  0
    1.9169    2.2500    0.0000 H   0  0  0  0  0  0  0  0  0  0  0  0
  1 19  1  0  0  0  0
  1 23  1  0  0  0  0
  2 18  1  0  0  0  0
  2 24  1  0  0  0  0
  3 29  2  0  0  0  0
  4  8  1  0  0  0  0
  4  9  1  0  0  0  0
  4 12  1  0  0  0  0
  5 10  1  0  0  0  0
  5 11  1  0  0  0  0
  5 14  1  0  0  0  0
  6 24  1  0  0  0  0
  6 26  2  0  0  0  0
  7 29  1  0  0  0  0
  7 30  1  0  0  0  0
  7 55  1  0  0  0  0
  8 10  1  0  0  0  0
  8 31  1  0  0  0  0
  8 32  1  0  0  0  0
  9 11  1  0  0  0  0
  9 33  1  0  0  0  0
  9 34  1  0  0  0  0
 10 35  1  0  0  0  0
 10 36  1  0  0  0  0
 11 37  1  0  0  0  0
 11 38  1  0  0  0  0
 12 13  1  0  0  0  0
 12 39  1  0  0  0  0
 12 40  1  0  0  0  0
 13 15  1  0  0  0  0
 13 41  1  0  0  0  0
 13 42  1  0  0  0  0
 14 16  2  0  0  0  0
 14 17  1  0  0  0  0
 15 18  1  0  0  0  0
 15 43  1  0  0  0  0
 15 44  1  0  0  0  0
 16 19  1  0  0  0  0
 16 45  1  0  0  0  0
 17 21  2  0  0  0  0
 17 46  1  0  0  0  0
 18 47  1  0  0  0  0
 18 48  1  0  0  0  0
 19 20  2  0  0  0  0
 20 21  1  0  0  0  0
 20 22  1  0  0  0  0
 21 49  1  0  0  0  0
 22 23  2  0  0  0  0
 22 50  1  0  0  0  0
 23 51  1  0  0  0  0
 24 25  2  0  0  0  0
 25 27  1  0  0  0  0
 25 52  1  0  0  0  0
 26 28  1  0  0  0  0
 26 29  1  0  0  0  0
 27 28  2  0  0  0  0
 27 53  1  0  0  0  0
 28 54  1  0  0  0  0
 30 56  1  0  0  0  0
 30 57  1  0  0  0  0
 30 58  1  0  0  0  0
M  END
> <PUBCHEM_COMPOUND_CID>
145965041

> <PUBCHEM_COMPOUND_CANONICALIZED>
1

> <PUBCHEM_CACTVS_COMPLEXITY>
543

> <PUBCHEM_CACTVS_HBOND_ACCEPTOR>
6

> <PUBCHEM_CACTVS_HBOND_DONOR>
1

> <PUBCHEM_CACTVS_ROTATABLE_BOND>
8

> <PUBCHEM_CACTVS_SUBSKEYS>
AAADceB7sABAAAAAAAAAAAAAAAAAASAAAAA8WIAAAAAAAEgB/AAAHgQQAAAADAjl3gayxdPIFAisAyVyVACDiKAnKjBImLm+bNgMZvLktbueOSzkwhHo6Ye42IEOCAAAACAEAAAQAAAAQAgAAAAAAAAAAA==

> <PUBCHEM_IUPAC_OPENEYE_NAME>
6-[4-[4-(benzothiophen-6-yl)piperazin-1-yl]butoxy]-N-methyl-pyridine-2-carboxamide

> <PUBCHEM_IUPAC_CAS_NAME>
6-[4-[4-(1-benzothiophen-6-yl)-1-piperazinyl]butoxy]-N-methyl-2-pyridinecarboxamide

> <PUBCHEM_IUPAC_NAME_MARKUP>
6-[4-[4-(1-benzothiophen-6-yl)piperazin-1-yl]butoxy]-<I>N</I>-methylpyridine-2-carboxamide

> <PUBCHEM_IUPAC_NAME>
6-[4-[4-(1-benzothiophen-6-yl)piperazin-1-yl]butoxy]-N-methylpyridine-2-carboxamide

> <PUBCHEM_IUPAC_SYSTEMATIC_NAME>
6-[4-[4-(1-benzothiophen-6-yl)piperazin-1-yl]butoxy]-N-methyl-pyridine-2-carboxamide

> <PUBCHEM_IUPAC_TRADITIONAL_NAME>
6-[4-[4-(benzothiophen-6-yl)piperazino]butoxy]-N-methyl-picolinamide

> <PUBCHEM_IUPAC_INCHI>
InChI=1S/C23H28N4O2S/c1-24-23(28)20-5-4-6-22(25-20)29-15-3-2-10-26-11-13-27(14-12-26)19-8-7-18-9-16-30-21(18)17-19/h4-9,16-17H,2-3,10-15H2,1H3,(H,24,28)

> <PUBCHEM_IUPAC_INCHIKEY>
DSQTVJBLTBTKDX-UHFFFAOYSA-N

> <PUBCHEM_XLOGP3_AA>
4.1

> <PUBCHEM_EXACT_MASS>
424.19329732

> <PUBCHEM_MOLECULAR_FORMULA>
C23H28N4O2S

> <PUBCHEM_MOLECULAR_WEIGHT>
424.6

> <PUBCHEM_OPENEYE_CAN_SMILES>
CNC(=O)C1=NC(=CC=C1)OCCCCN2CCN(CC2)C3=CC4=C(C=C3)C=CS4

> <PUBCHEM_OPENEYE_ISO_SMILES>
CNC(=O)C1=NC(=CC=C1)OCCCCN2CCN(CC2)C3=CC4=C(C=C3)C=CS4

> <PUBCHEM_CACTVS_TPSA>
85.9

> <PUBCHEM_MONOISOTOPIC_WEIGHT>
424.19329732

> <PUBCHEM_TOTAL_CHARGE>
0

> <PUBCHEM_HEAVY_ATOM_COUNT>
30

> <PUBCHEM_ATOM_DEF_STEREO_COUNT>
0

> <PUBCHEM_ATOM_UDEF_STEREO_COUNT>
0

> <PUBCHEM_BOND_DEF_STEREO_COUNT>
0

> <PUBCHEM_BOND_UDEF_STEREO_COUNT>
0

> <PUBCHEM_ISOTOPIC_ATOM_COUNT>
0

> <PUBCHEM_COMPONENT_COUNT>
1

> <PUBCHEM_CACTVS_TAUTO_COUNT>
-1

> <PUBCHEM_COORDINATE_TYPE>
1
5
255

> <PUBCHEM_BONDANNOTATIONS>
1  19  8
1  23  8
14  16  8
14  17  8
16  19  8
17  21  8
19  20  8
20  21  8
20  22  8
22  23  8
24  25  8
25  27  8
26  28  8
27  28  8
6  24  8
6  26  8

$$$$
