86341996
  -OEChem-09292322382D

 66 70  0     0  0  0  0  0  0999 V2000
    4.6783   -5.8721    0.0000 S   0  0  0  0  0  0  0  0  0  0  0  0
    9.7884    3.0096    0.0000 O   0  0  0  0  0  0  0  0  0  0  0  0
    5.6103   -1.4111    0.0000 N   0  0  0  0  0  0  0  0  0  0  0  0
    8.1421    3.5477    0.0000 N   0  0  0  0  0  0  0  0  0  0  0  0
    4.9889   -3.3122    0.0000 N   0  0  0  0  0  0  0  0  0  0  0  0
    9.4312    4.7044    0.0000 N   0  0  0  0  0  0  0  0  0  0  0  0
    5.2619   -5.0674    0.0000 N   0  0  0  0  0  0  0  0  0  0  0  0
    7.2101    0.6961    0.0000 C   0  0  0  0  0  0  0  0  0  0  0  0
    6.5422    1.4404    0.0000 C   0  0  0  0  0  0  0  0  0  0  0  0
    8.1886    0.9024    0.0000 C   0  0  0  0  0  0  0  0  0  0  0  0
    7.8314    2.5972    0.0000 C   0  0  0  0  0  0  0  0  0  0  0  0
    6.8529    2.3910    0.0000 C   0  0  0  0  0  0  0  0  0  0  0  0
    8.4993    1.8529    0.0000 C   0  0  0  0  0  0  0  0  0  0  0  0
    6.8994   -0.2544    0.0000 C   0  0  0  0  0  0  0  0  0  0  0  0
    5.9209   -0.4606    0.0000 C   0  0  0  0  0  0  0  0  0  0  0  0
    6.2781   -2.1554    0.0000 C   0  0  0  0  0  0  0  0  0  0  0  0
    4.6318   -1.6173    0.0000 C   0  0  0  0  0  0  0  0  0  0  0  0
    5.9674   -3.1059    0.0000 C   0  0  0  0  0  0  0  0  0  0  0  0
    4.3211   -2.5678    0.0000 C   0  0  0  0  0  0  0  0  0  0  0  0
    9.1206    3.7539    0.0000 C   0  0  0  0  0  0  0  0  0  0  0  0
    4.6783   -4.2627    0.0000 C   0  0  0  0  0  0  0  0  0  0  0  0
    3.7320   -4.5674    0.0000 C   0  0  0  0  0  0  0  0  0  0  0  0
    3.7320   -5.5674    0.0000 C   0  0  0  0  0  0  0  0  0  0  0  0
    2.8660   -4.0674    0.0000 C   0  0  0  0  0  0  0  0  0  0  0  0
   10.4097    4.9107    0.0000 C   0  0  0  0  0  0  0  0  0  0  0  0
    2.8660   -6.0674    0.0000 C   0  0  0  0  0  0  0  0  0  0  0  0
    2.0000   -4.5674    0.0000 C   0  0  0  0  0  0  0  0  0  0  0  0
    2.0000   -5.5674    0.0000 C   0  0  0  0  0  0  0  0  0  0  0  0
   10.7204    5.8612    0.0000 C   0  0  0  0  0  0  0  0  0  0  0  0
   11.0776    4.1664    0.0000 C   0  0  0  0  0  0  0  0  0  0  0  0
   11.6989    6.0674    0.0000 C   0  0  0  0  0  0  0  0  0  0  0  0
   12.0561    4.3726    0.0000 C   0  0  0  0  0  0  0  0  0  0  0  0
   12.3668    5.3231    0.0000 C   0  0  0  0  0  0  0  0  0  0  0  0
    7.6242    0.2347    0.0000 H   0  0  0  0  0  0  0  0  0  0  0  0
    5.9953    1.7325    0.0000 H   0  0  0  0  0  0  0  0  0  0  0  0
    6.1597    0.9525    0.0000 H   0  0  0  0  0  0  0  0  0  0  0  0
    8.2092    0.2827    0.0000 H   0  0  0  0  0  0  0  0  0  0  0  0
    8.8024    0.8150    0.0000 H   0  0  0  0  0  0  0  0  0  0  0  0
    8.4381    2.7250    0.0000 H   0  0  0  0  0  0  0  0  0  0  0  0
    6.8323    3.0106    0.0000 H   0  0  0  0  0  0  0  0  0  0  0  0
    6.2391    2.4783    0.0000 H   0  0  0  0  0  0  0  0  0  0  0  0
    9.0462    1.5609    0.0000 H   0  0  0  0  0  0  0  0  0  0  0  0
    8.8818    2.3408    0.0000 H   0  0  0  0  0  0  0  0  0  0  0  0
    6.9200   -0.8740    0.0000 H   0  0  0  0  0  0  0  0  0  0  0  0
    7.5132   -0.3417    0.0000 H   0  0  0  0  0  0  0  0  0  0  0  0
    5.9004    0.1591    0.0000 H   0  0  0  0  0  0  0  0  0  0  0  0
    5.3071   -0.3732    0.0000 H   0  0  0  0  0  0  0  0  0  0  0  0
    6.8250   -2.4474    0.0000 H   0  0  0  0  0  0  0  0  0  0  0  0
    6.6607   -1.6675    0.0000 H   0  0  0  0  0  0  0  0  0  0  0  0
    4.6112   -0.9977    0.0000 H   0  0  0  0  0  0  0  0  0  0  0  0
    4.0179   -1.5300    0.0000 H   0  0  0  0  0  0  0  0  0  0  0  0
    7.7280    4.0092    0.0000 H   0  0  0  0  0  0  0  0  0  0  0  0
    5.9880   -3.7256    0.0000 H   0  0  0  0  0  0  0  0  0  0  0  0
    6.5812   -3.1933    0.0000 H   0  0  0  0  0  0  0  0  0  0  0  0
    3.7742   -2.2758    0.0000 H   0  0  0  0  0  0  0  0  0  0  0  0
    3.9385   -3.0558    0.0000 H   0  0  0  0  0  0  0  0  0  0  0  0
    9.0172    5.1659    0.0000 H   0  0  0  0  0  0  0  0  0  0  0  0
    2.8660   -3.4474    0.0000 H   0  0  0  0  0  0  0  0  0  0  0  0
    2.8660   -6.6874    0.0000 H   0  0  0  0  0  0  0  0  0  0  0  0
    1.4631   -4.2574    0.0000 H   0  0  0  0  0  0  0  0  0  0  0  0
    1.4631   -5.8774    0.0000 H   0  0  0  0  0  0  0  0  0  0  0  0
   10.3063    6.3226    0.0000 H   0  0  0  0  0  0  0  0  0  0  0  0
   10.8850    3.5770    0.0000 H   0  0  0  0  0  0  0  0  0  0  0  0
   11.8915    6.6567    0.0000 H   0  0  0  0  0  0  0  0  0  0  0  0
   12.4702    3.9111    0.0000 H   0  0  0  0  0  0  0  0  0  0  0  0
   12.9734    5.4510    0.0000 H   0  0  0  0  0  0  0  0  0  0  0  0
  1  7  1  0  0  0  0
  1 23  1  0  0  0  0
  2 20  2  0  0  0  0
  3 15  1  0  0  0  0
  3 16  1  0  0  0  0
  3 17  1  0  0  0  0
  4 11  1  0  0  0  0
  4 20  1  0  0  0  0
  4 52  1  0  0  0  0
  5 18  1  0  0  0  0
  5 19  1  0  0  0  0
  5 21  1  0  0  0  0
  6 20  1  0  0  0  0
  6 25  1  0  0  0  0
  6 57  1  0  0  0  0
  7 21  2  0  0  0  0
  8  9  1  0  0  0  0
  8 10  1  0  0  0  0
  8 14  1  0  0  0  0
  8 34  1  0  0  0  0
  9 12  1  0  0  0  0
  9 35  1  0  0  0  0
  9 36  1  0  0  0  0
 10 13  1  0  0  0  0
 10 37  1  0  0  0  0
 10 38  1  0  0  0  0
 11 12  1  0  0  0  0
 11 13  1  0  0  0  0
 11 39  1  0  0  0  0
 12 40  1  0  0  0  0
 12 41  1  0  0  0  0
 13 42  1  0  0  0  0
 13 43  1  0  0  0  0
 14 15  1  0  0  0  0
 14 44  1  0  0  0  0
 14 45  1  0  0  0  0
 15 46  1  0  0  0  0
 15 47  1  0  0  0  0
 16 18  1  0  0  0  0
 16 48  1  0  0  0  0
 16 49  1  0  0  0  0
 17 19  1  0  0  0  0
 17 50  1  0  0  0  0
 17 51  1  0  0  0  0
 18 53  1  0  0  0  0
 18 54  1  0  0  0  0
 19 55  1  0  0  0  0
 19 56  1  0  0  0  0
 21 22  1  0  0  0  0
 22 23  1  0  0  0  0
 22 24  2  0  0  0  0
 23 26  2  0  0  0  0
 24 27  1  0  0  0  0
 24 58  1  0  0  0  0
 25 29  2  0  0  0  0
 25 30  1  0  0  0  0
 26 28  1  0  0  0  0
 26 59  1  0  0  0  0
 27 28  2  0  0  0  0
 27 60  1  0  0  0  0
 28 61  1  0  0  0  0
 29 31  1  0  0  0  0
 29 62  1  0  0  0  0
 30 32  2  0  0  0  0
 30 63  1  0  0  0  0
 31 33  2  0  0  0  0
 31 64  1  0  0  0  0
 32 33  1  0  0  0  0
 32 65  1  0  0  0  0
 33 66  1  0  0  0  0
M  END
> <PUBCHEM_COMPOUND_CID>
86341996

> <PUBCHEM_COMPOUND_CANONICALIZED>
1

> <PUBCHEM_CACTVS_COMPLEXITY>
614

> <PUBCHEM_CACTVS_HBOND_ACCEPTOR>
5

> <PUBCHEM_CACTVS_HBOND_DONOR>
2

> <PUBCHEM_CACTVS_ROTATABLE_BOND>
6

> <PUBCHEM_CACTVS_SUBSKEYS>
AAADcfB7oABAAAAAAAAAAAAAAAAAAWAAAAA8YMEAAAAAAFgB9AAAHgQQQAAADSjBWgQx8dPAAACsAiZicACDABAhAgBJmLgoZJiIYKLAmZGUIAxolgLIyCcQgIAOAAAAAAAEAAAQAAAAAAgAAAAAAAAAAA==

> <PUBCHEM_IUPAC_OPENEYE_NAME>
1-[4-[2-[4-(1,2-benzothiazol-3-yl)piperazin-1-yl]ethyl]cyclohexyl]-3-phenyl-urea

> <PUBCHEM_IUPAC_CAS_NAME>
1-[4-[2-[4-(1,2-benzothiazol-3-yl)-1-piperazinyl]ethyl]cyclohexyl]-3-phenylurea

> <PUBCHEM_IUPAC_NAME_MARKUP>
1-[4-[2-[4-(1,2-benzothiazol-3-yl)piperazin-1-yl]ethyl]cyclohexyl]-3-phenylurea

> <PUBCHEM_IUPAC_NAME>
1-[4-[2-[4-(1,2-benzothiazol-3-yl)piperazin-1-yl]ethyl]cyclohexyl]-3-phenylurea

> <PUBCHEM_IUPAC_SYSTEMATIC_NAME>
1-[4-[2-[4-(1,2-benzothiazol-3-yl)piperazin-1-yl]ethyl]cyclohexyl]-3-phenyl-urea

> <PUBCHEM_IUPAC_TRADITIONAL_NAME>
1-[4-[2-[4-(1,2-benzothiazol-3-yl)piperazino]ethyl]cyclohexyl]-3-phenyl-urea

> <PUBCHEM_IUPAC_INCHI>
InChI=1S/C26H33N5OS/c32-26(27-21-6-2-1-3-7-21)28-22-12-10-20(11-13-22)14-15-30-16-18-31(19-17-30)25-23-8-4-5-9-24(23)33-29-25/h1-9,20,22H,10-19H2,(H2,27,28,32)

> <PUBCHEM_IUPAC_INCHIKEY>
LBCLWNAKMLUAKD-UHFFFAOYSA-N

> <PUBCHEM_XLOGP3_AA>
5.2

> <PUBCHEM_EXACT_MASS>
463.24058187

> <PUBCHEM_MOLECULAR_FORMULA>
C26H33N5OS

> <PUBCHEM_MOLECULAR_WEIGHT>
463.6

> <PUBCHEM_OPENEYE_CAN_SMILES>
C1CC(CCC1CCN2CCN(CC2)C3=NSC4=CC=CC=C43)NC(=O)NC5=CC=CC=C5

> <PUBCHEM_OPENEYE_ISO_SMILES>
C1CC(CCC1CCN2CCN(CC2)C3=NSC4=CC=CC=C43)NC(=O)NC5=CC=CC=C5

> <PUBCHEM_CACTVS_TPSA>
88.7

> <PUBCHEM_MONOISOTOPIC_WEIGHT>
463.24058187

> <PUBCHEM_TOTAL_CHARGE>
0

> <PUBCHEM_HEAVY_ATOM_COUNT>
33

> <PUBCHEM_ATOM_DEF_STEREO_COUNT>
0

> <PUBCHEM_ATOM_UDEF_STEREO_COUNT>
0

> <PUBCHEM_BOND_DEF_STEREO_COUNT>
0

> <PUBCHEM_BOND_UDEF_STEREO_COUNT>
0

> <PUBCHEM_ISOTOPIC_ATOM_COUNT>
0

> <PUBCHEM_COMPONENT_COUNT>
1

> <PUBCHEM_CACTVS_TAUTO_COUNT>
-1

> <PUBCHEM_COORDINATE_TYPE>
1
5
255

> <PUBCHEM_BONDANNOTATIONS>
1  23  8
1  7  8
21  22  8
22  23  8
22  24  8
23  26  8
24  27  8
25  29  8
25  30  8
26  28  8
27  28  8
29  31  8
30  32  8
31  33  8
32  33  8
7  21  8

$$$$
