51355138
  -OEChem-09292322312D

 72 73  0     0  0  0  0  0  0999 V2000
    5.6720    2.1200    0.0000 F   0  0  0  0  0  0  0  0  0  0  0  0
   10.8681   11.1200    0.0000 O   0  0  0  0  0  0  0  0  0  0  0  0
    8.2700    2.6200    0.0000 O   0  0  0  0  0  0  0  0  0  0  0  0
    9.1360    4.1200    0.0000 O   0  0  0  0  0  0  0  0  0  0  0  0
    3.1350    6.6200    0.0000 O   0  0  0  0  0  0  0  0  0  0  0  0
    0.5369    7.1200    0.0000 O   0  0  0  0  0  0  0  0  0  0  0  0
    2.2690    8.1200    0.0000 O   0  0  0  0  0  0  0  0  0  0  0  0
    1.4030    5.6200    0.0000 O   0  0  0  0  0  0  0  0  0  0  0  0
   12.6002    8.1200    0.0000 N   0  0  0  0  0  0  0  0  0  0  0  0
   12.6002   10.1200    0.0000 N   0  0  0  0  0  0  0  0  0  0  0  0
   10.8681    4.1200    0.0000 N   0  0  0  0  0  0  0  0  0  0  0  0
   11.7341    8.6200    0.0000 C   0  0  0  0  0  0  0  0  0  0  0  0
   13.4662    8.6200    0.0000 C   0  0  0  0  0  0  0  0  0  0  0  0
   11.7341    9.6200    0.0000 C   0  0  0  0  0  0  0  0  0  0  0  0
   13.4662    9.6200    0.0000 C   0  0  0  0  0  0  0  0  0  0  0  0
   12.6002    7.1200    0.0000 C   0  0  0  0  0  0  0  0  0  0  0  0
   12.6002   11.1200    0.0000 C   0  0  0  0  0  0  0  0  0  0  0  0
   11.7341    6.6200    0.0000 C   0  0  0  0  0  0  0  0  0  0  0  0
   11.7341   11.6200    0.0000 C   0  0  0  0  0  0  0  0  0  0  0  0
   13.4662   11.6200    0.0000 C   0  0  0  0  0  0  0  0  0  0  0  0
   11.7341   12.6200    0.0000 C   0  0  0  0  0  0  0  0  0  0  0  0
   13.4662   12.6200    0.0000 C   0  0  0  0  0  0  0  0  0  0  0  0
   11.7341    5.6200    0.0000 C   0  0  0  0  0  0  0  0  0  0  0  0
   12.6002   13.1200    0.0000 C   0  0  0  0  0  0  0  0  0  0  0  0
   10.8681    5.1200    0.0000 C   0  0  0  0  0  0  0  0  0  0  0  0
   10.0021   11.6200    0.0000 C   0  0  0  0  0  0  0  0  0  0  0  0
   10.0021    3.6200    0.0000 C   0  0  0  0  0  0  0  0  0  0  0  0
   10.0021    2.6200    0.0000 C   0  0  0  0  0  0  0  0  0  0  0  0
    9.1360    2.1200    0.0000 C   0  0  0  0  0  0  0  0  0  0  0  0
   10.8681    2.1200    0.0000 C   0  0  0  0  0  0  0  0  0  0  0  0
   10.8681    1.1200    0.0000 C   0  0  0  0  0  0  0  0  0  0  0  0
    9.1360    1.1200    0.0000 C   0  0  0  0  0  0  0  0  0  0  0  0
   10.0021    0.6200    0.0000 C   0  0  0  0  0  0  0  0  0  0  0  0
   11.7341    0.6200    0.0000 C   0  0  0  0  0  0  0  0  0  0  0  0
    7.4040    2.1200    0.0000 C   0  0  0  0  0  0  0  0  0  0  0  0
    6.5380    2.6200    0.0000 C   0  0  0  0  0  0  0  0  0  0  0  0
    2.2690    7.1200    0.0000 C   0  0  0  0  0  0  0  0  0  0  0  0
    1.4030    6.6200    0.0000 C   0  0  0  0  0  0  0  0  0  0  0  0
   11.1235    8.7277    0.0000 H   0  0  0  0  0  0  0  0  0  0  0  0
   11.5221    8.0374    0.0000 H   0  0  0  0  0  0  0  0  0  0  0  0
   13.6782    8.0374    0.0000 H   0  0  0  0  0  0  0  0  0  0  0  0
   14.0768    8.7277    0.0000 H   0  0  0  0  0  0  0  0  0  0  0  0
   11.5221   10.2026    0.0000 H   0  0  0  0  0  0  0  0  0  0  0  0
   11.1235    9.5123    0.0000 H   0  0  0  0  0  0  0  0  0  0  0  0
   14.0768    9.5123    0.0000 H   0  0  0  0  0  0  0  0  0  0  0  0
   13.6782   10.2026    0.0000 H   0  0  0  0  0  0  0  0  0  0  0  0
   12.8122    6.5374    0.0000 H   0  0  0  0  0  0  0  0  0  0  0  0
   13.2107    7.2277    0.0000 H   0  0  0  0  0  0  0  0  0  0  0  0
   11.1972    6.9300    0.0000 H   0  0  0  0  0  0  0  0  0  0  0  0
   14.0031   11.3100    0.0000 H   0  0  0  0  0  0  0  0  0  0  0  0
   11.1972   12.9300    0.0000 H   0  0  0  0  0  0  0  0  0  0  0  0
   14.0031   12.9300    0.0000 H   0  0  0  0  0  0  0  0  0  0  0  0
   12.2711    5.3100    0.0000 H   0  0  0  0  0  0  0  0  0  0  0  0
   12.6002   13.7400    0.0000 H   0  0  0  0  0  0  0  0  0  0  0  0
   10.6560    5.7026    0.0000 H   0  0  0  0  0  0  0  0  0  0  0  0
   10.2575    5.0123    0.0000 H   0  0  0  0  0  0  0  0  0  0  0  0
   10.3121   12.1569    0.0000 H   0  0  0  0  0  0  0  0  0  0  0  0
    9.4651   11.9300    0.0000 H   0  0  0  0  0  0  0  0  0  0  0  0
    9.6921   11.0831    0.0000 H   0  0  0  0  0  0  0  0  0  0  0  0
   11.4050    3.8100    0.0000 H   0  0  0  0  0  0  0  0  0  0  0  0
   11.4050    2.4300    0.0000 H   0  0  0  0  0  0  0  0  0  0  0  0
    8.5991    0.8100    0.0000 H   0  0  0  0  0  0  0  0  0  0  0  0
   10.0021    0.0000    0.0000 H   0  0  0  0  0  0  0  0  0  0  0  0
   11.4241    0.0831    0.0000 H   0  0  0  0  0  0  0  0  0  0  0  0
   12.2711    0.3100    0.0000 H   0  0  0  0  0  0  0  0  0  0  0  0
   12.0441    1.1569    0.0000 H   0  0  0  0  0  0  0  0  0  0  0  0
    7.0055    1.6450    0.0000 H   0  0  0  0  0  0  0  0  0  0  0  0
    7.8025    1.6450    0.0000 H   0  0  0  0  0  0  0  0  0  0  0  0
    6.9365    3.0950    0.0000 H   0  0  0  0  0  0  0  0  0  0  0  0
    6.1394    3.0950    0.0000 H   0  0  0  0  0  0  0  0  0  0  0  0
    3.6720    6.9300    0.0000 H   0  0  0  0  0  0  0  0  0  0  0  0
    0.0000    6.8100    0.0000 H   0  0  0  0  0  0  0  0  0  0  0  0
  1 36  1  0  0  0  0
  2 19  1  0  0  0  0
  2 26  1  0  0  0  0
  3 29  1  0  0  0  0
  3 35  1  0  0  0  0
  4 27  2  0  0  0  0
  5 37  1  0  0  0  0
  5 71  1  0  0  0  0
  6 38  1  0  0  0  0
  6 72  1  0  0  0  0
  7 37  2  0  0  0  0
  8 38  2  0  0  0  0
  9 12  1  0  0  0  0
  9 13  1  0  0  0  0
  9 16  1  0  0  0  0
 10 14  1  0  0  0  0
 10 15  1  0  0  0  0
 10 17  1  0  0  0  0
 11 25  1  0  0  0  0
 11 27  1  0  0  0  0
 11 60  1  0  0  0  0
 12 14  1  0  0  0  0
 12 39  1  0  0  0  0
 12 40  1  0  0  0  0
 13 15  1  0  0  0  0
 13 41  1  0  0  0  0
 13 42  1  0  0  0  0
 14 43  1  0  0  0  0
 14 44  1  0  0  0  0
 15 45  1  0  0  0  0
 15 46  1  0  0  0  0
 16 18  1  0  0  0  0
 16 47  1  0  0  0  0
 16 48  1  0  0  0  0
 17 19  1  0  0  0  0
 17 20  2  0  0  0  0
 18 23  2  0  0  0  0
 18 49  1  0  0  0  0
 19 21  2  0  0  0  0
 20 22  1  0  0  0  0
 20 50  1  0  0  0  0
 21 24  1  0  0  0  0
 21 51  1  0  0  0  0
 22 24  2  0  0  0  0
 22 52  1  0  0  0  0
 23 25  1  0  0  0  0
 23 53  1  0  0  0  0
 24 54  1  0  0  0  0
 25 55  1  0  0  0  0
 25 56  1  0  0  0  0
 26 57  1  0  0  0  0
 26 58  1  0  0  0  0
 26 59  1  0  0  0  0
 27 28  1  0  0  0  0
 28 29  2  0  0  0  0
 28 30  1  0  0  0  0
 29 32  1  0  0  0  0
 30 31  2  0  0  0  0
 30 61  1  0  0  0  0
 31 33  1  0  0  0  0
 31 34  1  0  0  0  0
 32 33  2  0  0  0  0
 32 62  1  0  0  0  0
 33 63  1  0  0  0  0
 34 64  1  0  0  0  0
 34 65  1  0  0  0  0
 34 66  1  0  0  0  0
 35 36  1  0  0  0  0
 35 67  1  0  0  0  0
 35 68  1  0  0  0  0
 36 69  1  0  0  0  0
 36 70  1  0  0  0  0
 37 38  1  0  0  0  0
M  END
> <PUBCHEM_COMPOUND_CID>
51355138

> <PUBCHEM_COMPOUND_CANONICALIZED>
1

> <PUBCHEM_CACTVS_COMPLEXITY>
654

> <PUBCHEM_CACTVS_HBOND_ACCEPTOR>
10

> <PUBCHEM_CACTVS_HBOND_DONOR>
3

> <PUBCHEM_CACTVS_ROTATABLE_BOND>
11

> <PUBCHEM_CACTVS_SUBSKEYS>
AAADcfB7OQAAAAAAAAAAAAAAAAAAAAAAAAA8YIAAAAAAAAABQAAAHwAQCAAADAzhmAYyzoPABgCIAiXSWAKCCAAlIgAIiIFPbMgPZjbEtZuXOWjm9hHZ6YeYyGCOIAACAAAIEABAAAQAABAgAAAAAAAAAA==

> <PUBCHEM_IUPAC_OPENEYE_NAME>
2-(2-fluoroethoxy)-N-[(E)-4-[4-(2-methoxyphenyl)piperazin-1-yl]but-2-enyl]-5-methyl-benzamide;oxalic acid

> <PUBCHEM_IUPAC_CAS_NAME>
2-(2-fluoroethoxy)-N-[(E)-4-[4-(2-methoxyphenyl)-1-piperazinyl]but-2-enyl]-5-methylbenzamide;oxalic acid

> <PUBCHEM_IUPAC_NAME_MARKUP>
2-(2-fluoroethoxy)-<I>N</I>-[(<I>E</I>)-4-[4-(2-methoxyphenyl)piperazin-1-yl]but-2-enyl]-5-methylbenzamide;oxalic acid

> <PUBCHEM_IUPAC_NAME>
2-(2-fluoroethoxy)-N-[(E)-4-[4-(2-methoxyphenyl)piperazin-1-yl]but-2-enyl]-5-methylbenzamide;oxalic acid

> <PUBCHEM_IUPAC_SYSTEMATIC_NAME>
ethanedioic acid;2-(2-fluoranylethoxy)-N-[(E)-4-[4-(2-methoxyphenyl)piperazin-1-yl]but-2-enyl]-5-methyl-benzamide

> <PUBCHEM_IUPAC_TRADITIONAL_NAME>
2-(2-fluoroethoxy)-N-[(E)-4-[4-(2-methoxyphenyl)piperazino]but-2-enyl]-5-methyl-benzamide;oxalic acid

> <PUBCHEM_IUPAC_INCHI>
InChI=1S/C25H32FN3O3.C2H2O4/c1-20-9-10-23(32-18-11-26)21(19-20)25(30)27-12-5-6-13-28-14-16-29(17-15-28)22-7-3-4-8-24(22)31-2;3-1(4)2(5)6/h3-10,19H,11-18H2,1-2H3,(H,27,30);(H,3,4)(H,5,6)/b6-5+;

> <PUBCHEM_IUPAC_INCHIKEY>
NRTFYCFFFRQJLU-IPZCTEOASA-N

> <PUBCHEM_EXACT_MASS>
531.23807859

> <PUBCHEM_MOLECULAR_FORMULA>
C27H34FN3O7

> <PUBCHEM_MOLECULAR_WEIGHT>
531.6

> <PUBCHEM_OPENEYE_CAN_SMILES>
CC1=CC(=C(C=C1)OCCF)C(=O)NCC=CCN2CCN(CC2)C3=CC=CC=C3OC.C(=O)(C(=O)O)O

> <PUBCHEM_OPENEYE_ISO_SMILES>
CC1=CC(=C(C=C1)OCCF)C(=O)NC/C=C/CN2CCN(CC2)C3=CC=CC=C3OC.C(=O)(C(=O)O)O

> <PUBCHEM_CACTVS_TPSA>
129

> <PUBCHEM_MONOISOTOPIC_WEIGHT>
531.23807859

> <PUBCHEM_TOTAL_CHARGE>
0

> <PUBCHEM_HEAVY_ATOM_COUNT>
38

> <PUBCHEM_ATOM_DEF_STEREO_COUNT>
0

> <PUBCHEM_ATOM_UDEF_STEREO_COUNT>
0

> <PUBCHEM_BOND_DEF_STEREO_COUNT>
1

> <PUBCHEM_BOND_UDEF_STEREO_COUNT>
0

> <PUBCHEM_ISOTOPIC_ATOM_COUNT>
0

> <PUBCHEM_COMPONENT_COUNT>
2

> <PUBCHEM_CACTVS_TAUTO_COUNT>
-1

> <PUBCHEM_COORDINATE_TYPE>
1
5
255

> <PUBCHEM_BONDANNOTATIONS>
17  19  8
17  20  8
19  21  8
20  22  8
21  24  8
22  24  8
28  29  8
28  30  8
29  32  8
30  31  8
31  33  8
32  33  8

$$$$
