11133602
  -OEChem-09292322112D

 62 65  0     0  0  0  0  0  0999 V2000
   13.1276    1.2520    0.0000 O   0  0  0  0  0  0  0  0  0  0  0  0
    4.3211   -0.6040    0.0000 O   0  0  0  0  0  0  0  0  0  0  0  0
    9.8349    2.3282    0.0000 N   0  0  0  0  0  0  0  0  0  0  0  0
   11.7920    2.7406    0.0000 N   0  0  0  0  0  0  0  0  0  0  0  0
    5.9674   -1.1421    0.0000 N   0  0  0  0  0  0  0  0  0  0  0  0
    3.7320   -3.6035    0.0000 N   0  0  0  0  0  0  0  0  0  0  0  0
    4.6783   -3.9083    0.0000 N   0  0  0  0  0  0  0  0  0  0  0  0
   10.5028    1.5838    0.0000 C   0  0  0  0  0  0  0  0  0  0  0  0
   10.1456    3.2787    0.0000 C   0  0  0  0  0  0  0  0  0  0  0  0
   11.4813    1.7901    0.0000 C   0  0  0  0  0  0  0  0  0  0  0  0
   11.1241    3.4849    0.0000 C   0  0  0  0  0  0  0  0  0  0  0  0
    8.8564    2.1219    0.0000 C   0  0  0  0  0  0  0  0  0  0  0  0
    8.5458    1.1714    0.0000 C   0  0  0  0  0  0  0  0  0  0  0  0
    7.5673    0.9652    0.0000 C   0  0  0  0  0  0  0  0  0  0  0  0
   12.7705    2.9468    0.0000 C   0  0  0  0  0  0  0  0  0  0  0  0
    7.2566    0.0147    0.0000 C   0  0  0  0  0  0  0  0  0  0  0  0
   13.4383    2.2025    0.0000 C   0  0  0  0  0  0  0  0  0  0  0  0
    6.2781   -0.1916    0.0000 C   0  0  0  0  0  0  0  0  0  0  0  0
   13.0811    3.8973    0.0000 C   0  0  0  0  0  0  0  0  0  0  0  0
   14.4168    2.4087    0.0000 C   0  0  0  0  0  0  0  0  0  0  0  0
   14.0596    4.1035    0.0000 C   0  0  0  0  0  0  0  0  0  0  0  0
   14.7275    3.3592    0.0000 C   0  0  0  0  0  0  0  0  0  0  0  0
    4.9889   -1.3483    0.0000 C   0  0  0  0  0  0  0  0  0  0  0  0
    4.6783   -2.2988    0.0000 C   0  0  0  0  0  0  0  0  0  0  0  0
   13.7955    0.5077    0.0000 C   0  0  0  0  0  0  0  0  0  0  0  0
    3.7320   -2.6035    0.0000 C   0  0  0  0  0  0  0  0  0  0  0  0
    5.2619   -3.1035    0.0000 C   0  0  0  0  0  0  0  0  0  0  0  0
    2.8660   -2.1035    0.0000 C   0  0  0  0  0  0  0  0  0  0  0  0
    2.8660   -4.1035    0.0000 C   0  0  0  0  0  0  0  0  0  0  0  0
    2.0000   -2.6035    0.0000 C   0  0  0  0  0  0  0  0  0  0  0  0
    2.0000   -3.6035    0.0000 C   0  0  0  0  0  0  0  0  0  0  0  0
    9.9764    1.2562    0.0000 H   0  0  0  0  0  0  0  0  0  0  0  0
   10.7340    1.0086    0.0000 H   0  0  0  0  0  0  0  0  0  0  0  0
   10.1250    3.8983    0.0000 H   0  0  0  0  0  0  0  0  0  0  0  0
    9.5318    3.3660    0.0000 H   0  0  0  0  0  0  0  0  0  0  0  0
   11.5019    1.1704    0.0000 H   0  0  0  0  0  0  0  0  0  0  0  0
   12.0951    1.7027    0.0000 H   0  0  0  0  0  0  0  0  0  0  0  0
   11.6505    3.8125    0.0000 H   0  0  0  0  0  0  0  0  0  0  0  0
   10.8929    4.0601    0.0000 H   0  0  0  0  0  0  0  0  0  0  0  0
    8.8359    2.7416    0.0000 H   0  0  0  0  0  0  0  0  0  0  0  0
    8.2426    2.2093    0.0000 H   0  0  0  0  0  0  0  0  0  0  0  0
    8.5663    0.5517    0.0000 H   0  0  0  0  0  0  0  0  0  0  0  0
    9.1596    1.0841    0.0000 H   0  0  0  0  0  0  0  0  0  0  0  0
    7.5467    1.5849    0.0000 H   0  0  0  0  0  0  0  0  0  0  0  0
    6.9534    1.0525    0.0000 H   0  0  0  0  0  0  0  0  0  0  0  0
    7.2772   -0.6050    0.0000 H   0  0  0  0  0  0  0  0  0  0  0  0
    7.8704   -0.0727    0.0000 H   0  0  0  0  0  0  0  0  0  0  0  0
    6.2575    0.4281    0.0000 H   0  0  0  0  0  0  0  0  0  0  0  0
    5.6643   -0.1042    0.0000 H   0  0  0  0  0  0  0  0  0  0  0  0
   12.6671    4.3588    0.0000 H   0  0  0  0  0  0  0  0  0  0  0  0
   14.8309    1.9472    0.0000 H   0  0  0  0  0  0  0  0  0  0  0  0
   14.2522    4.6929    0.0000 H   0  0  0  0  0  0  0  0  0  0  0  0
    6.3815   -1.6035    0.0000 H   0  0  0  0  0  0  0  0  0  0  0  0
   15.3341    3.4871    0.0000 H   0  0  0  0  0  0  0  0  0  0  0  0
   13.3340    0.0936    0.0000 H   0  0  0  0  0  0  0  0  0  0  0  0
   14.2095    0.0462    0.0000 H   0  0  0  0  0  0  0  0  0  0  0  0
   14.2570    0.9217    0.0000 H   0  0  0  0  0  0  0  0  0  0  0  0
    5.8819   -3.1035    0.0000 H   0  0  0  0  0  0  0  0  0  0  0  0
    2.8660   -1.4835    0.0000 H   0  0  0  0  0  0  0  0  0  0  0  0
    2.8660   -4.7235    0.0000 H   0  0  0  0  0  0  0  0  0  0  0  0
    1.4631   -2.2935    0.0000 H   0  0  0  0  0  0  0  0  0  0  0  0
    1.4631   -3.9135    0.0000 H   0  0  0  0  0  0  0  0  0  0  0  0
  1 17  1  0  0  0  0
  1 25  1  0  0  0  0
  2 23  2  0  0  0  0
  3  8  1  0  0  0  0
  3  9  1  0  0  0  0
  3 12  1  0  0  0  0
  4 10  1  0  0  0  0
  4 11  1  0  0  0  0
  4 15  1  0  0  0  0
  5 18  1  0  0  0  0
  5 23  1  0  0  0  0
  5 53  1  0  0  0  0
  6  7  1  0  0  0  0
  6 26  1  0  0  0  0
  6 29  1  0  0  0  0
  7 27  2  0  0  0  0
  8 10  1  0  0  0  0
  8 32  1  0  0  0  0
  8 33  1  0  0  0  0
  9 11  1  0  0  0  0
  9 34  1  0  0  0  0
  9 35  1  0  0  0  0
 10 36  1  0  0  0  0
 10 37  1  0  0  0  0
 11 38  1  0  0  0  0
 11 39  1  0  0  0  0
 12 13  1  0  0  0  0
 12 40  1  0  0  0  0
 12 41  1  0  0  0  0
 13 14  1  0  0  0  0
 13 42  1  0  0  0  0
 13 43  1  0  0  0  0
 14 16  1  0  0  0  0
 14 44  1  0  0  0  0
 14 45  1  0  0  0  0
 15 17  1  0  0  0  0
 15 19  2  0  0  0  0
 16 18  1  0  0  0  0
 16 46  1  0  0  0  0
 16 47  1  0  0  0  0
 17 20  2  0  0  0  0
 18 48  1  0  0  0  0
 18 49  1  0  0  0  0
 19 21  1  0  0  0  0
 19 50  1  0  0  0  0
 20 22  1  0  0  0  0
 20 51  1  0  0  0  0
 21 22  2  0  0  0  0
 21 52  1  0  0  0  0
 22 54  1  0  0  0  0
 23 24  1  0  0  0  0
 24 26  2  0  0  0  0
 24 27  1  0  0  0  0
 25 55  1  0  0  0  0
 25 56  1  0  0  0  0
 25 57  1  0  0  0  0
 26 28  1  0  0  0  0
 27 58  1  0  0  0  0
 28 30  2  0  0  0  0
 28 59  1  0  0  0  0
 29 31  2  0  0  0  0
 29 60  1  0  0  0  0
 30 31  1  0  0  0  0
 30 61  1  0  0  0  0
 31 62  1  0  0  0  0
M  END
> <PUBCHEM_COMPOUND_CID>
11133602

> <PUBCHEM_COMPOUND_CANONICALIZED>
1

> <PUBCHEM_CACTVS_COMPLEXITY>
554

> <PUBCHEM_CACTVS_HBOND_ACCEPTOR>
5

> <PUBCHEM_CACTVS_HBOND_DONOR>
1

> <PUBCHEM_CACTVS_ROTATABLE_BOND>
9

> <PUBCHEM_CACTVS_SUBSKEYS>
AAADceB7sAAAAAAAAAAAAAAAAAAAAWAAAAA8WIAAAAAAAFgB8AAAHgAYAAAADAzBngY+xrPIFACqAzV3VACSjCA1oiAY2KE/bNgOZvrE9duVtahk3hHY6ceYyECMAAAAAAAAEAAAAAAAAAAgAAAAAAAAAA==

> <PUBCHEM_IUPAC_OPENEYE_NAME>
N-[5-[4-(2-methoxyphenyl)piperazin-1-yl]pentyl]pyrazolo[1,5-a]pyridine-3-carboxamide

> <PUBCHEM_IUPAC_CAS_NAME>
N-[5-[4-(2-methoxyphenyl)-1-piperazinyl]pentyl]-3-pyrazolo[1,5-a]pyridinecarboxamide

> <PUBCHEM_IUPAC_NAME_MARKUP>
<I>N</I>-[5-[4-(2-methoxyphenyl)piperazin-1-yl]pentyl]pyrazolo[1,5-a]pyridine-3-carboxamide

> <PUBCHEM_IUPAC_NAME>
N-[5-[4-(2-methoxyphenyl)piperazin-1-yl]pentyl]pyrazolo[1,5-a]pyridine-3-carboxamide

> <PUBCHEM_IUPAC_SYSTEMATIC_NAME>
N-[5-[4-(2-methoxyphenyl)piperazin-1-yl]pentyl]pyrazolo[1,5-a]pyridine-3-carboxamide

> <PUBCHEM_IUPAC_TRADITIONAL_NAME>
N-[5-[4-(2-methoxyphenyl)piperazino]pentyl]pyrazolo[1,5-a]pyridine-3-carboxamide

> <PUBCHEM_IUPAC_INCHI>
InChI=1S/C24H31N5O2/c1-31-23-11-4-3-10-22(23)28-17-15-27(16-18-28)13-7-2-6-12-25-24(30)20-19-26-29-14-8-5-9-21(20)29/h3-5,8-11,14,19H,2,6-7,12-13,15-18H2,1H3,(H,25,30)

> <PUBCHEM_IUPAC_INCHIKEY>
KQJHXQUMRFPEBH-UHFFFAOYSA-N

> <PUBCHEM_XLOGP3_AA>
3

> <PUBCHEM_EXACT_MASS>
421.24777525

> <PUBCHEM_MOLECULAR_FORMULA>
C24H31N5O2

> <PUBCHEM_MOLECULAR_WEIGHT>
421.5

> <PUBCHEM_OPENEYE_CAN_SMILES>
COC1=CC=CC=C1N2CCN(CC2)CCCCCNC(=O)C3=C4C=CC=CN4N=C3

> <PUBCHEM_OPENEYE_ISO_SMILES>
COC1=CC=CC=C1N2CCN(CC2)CCCCCNC(=O)C3=C4C=CC=CN4N=C3

> <PUBCHEM_CACTVS_TPSA>
62.1

> <PUBCHEM_MONOISOTOPIC_WEIGHT>
421.24777525

> <PUBCHEM_TOTAL_CHARGE>
0

> <PUBCHEM_HEAVY_ATOM_COUNT>
31

> <PUBCHEM_ATOM_DEF_STEREO_COUNT>
0

> <PUBCHEM_ATOM_UDEF_STEREO_COUNT>
0

> <PUBCHEM_BOND_DEF_STEREO_COUNT>
0

> <PUBCHEM_BOND_UDEF_STEREO_COUNT>
0

> <PUBCHEM_ISOTOPIC_ATOM_COUNT>
0

> <PUBCHEM_COMPONENT_COUNT>
1

> <PUBCHEM_CACTVS_TAUTO_COUNT>
-1

> <PUBCHEM_COORDINATE_TYPE>
1
5
255

> <PUBCHEM_BONDANNOTATIONS>
15  17  8
15  19  8
17  20  8
19  21  8
20  22  8
21  22  8
24  26  8
24  27  8
26  28  8
28  30  8
29  31  8
30  31  8
6  26  8
6  29  8
6  7  8
7  27  8

$$$$
