24758830
  -OEChem-09292322312D

 59 63  0     1  0  0  0  0  0999 V2000
    2.0000    3.8938    0.0000 Br  0  0  0  0  0  0  0  0  0  0  0  0
    6.3922   -1.0660    0.0000 S   0  0  0  0  0  0  0  0  0  0  0  0
    6.6710   -5.0016    0.0000 O   0  0  0  0  0  0  0  0  0  0  0  0
    6.0301    2.3792    0.0000 N   0  0  3  0  0  0  0  0  0  0  0  0
    6.6710   -2.8260    0.0000 N   0  0  0  0  0  0  0  0  0  0  0  0
    7.9800   -1.8750    0.0000 N   0  0  0  0  0  0  0  0  0  0  0  0
    8.2890   -2.8260    0.0000 N   0  0  0  0  0  0  0  0  0  0  0  0
    7.9800   -5.9527    0.0000 N   0  0  0  0  0  0  0  0  0  0  0  0
    5.5301    3.9180    0.0000 C   0  0  3  0  0  0  0  0  0  0  0  0
    4.7211    3.3302    0.0000 C   0  0  0  0  0  0  0  0  0  0  0  0
    6.3391    3.3302    0.0000 C   0  0  0  0  0  0  0  0  0  0  0  0
    6.3961    4.4180    0.0000 C   0  0  0  0  0  0  0  0  0  0  0  0
    5.0301    2.3792    0.0000 C   0  0  0  0  0  0  0  0  0  0  0  0
    4.6641    4.4180    0.0000 C   0  0  0  0  0  0  0  0  0  0  0  0
    6.3961    5.4180    0.0000 C   0  0  0  0  0  0  0  0  0  0  0  0
    4.6641    5.4180    0.0000 C   0  0  0  0  0  0  0  0  0  0  0  0
    5.5301    5.9180    0.0000 C   0  0  0  0  0  0  0  0  0  0  0  0
    6.6179    1.5701    0.0000 C   0  0  0  0  0  0  0  0  0  0  0  0
    3.7702    3.8833    0.0000 C   0  0  0  0  0  0  0  0  0  0  0  0
    3.7702    5.9527    0.0000 C   0  0  0  0  0  0  0  0  0  0  0  0
    6.2112    0.6566    0.0000 C   0  0  0  0  0  0  0  0  0  0  0  0
    2.8641    4.3972    0.0000 C   0  0  0  0  0  0  0  0  0  0  0  0
    2.8641    5.4388    0.0000 C   0  0  0  0  0  0  0  0  0  0  0  0
    6.7990   -0.1524    0.0000 C   0  0  0  0  0  0  0  0  0  0  0  0
    6.9800   -1.8750    0.0000 C   0  0  0  0  0  0  0  0  0  0  0  0
    7.4800   -3.4138    0.0000 C   0  0  0  0  0  0  0  0  0  0  0  0
    5.7199   -3.1350    0.0000 C   0  0  0  0  0  0  0  0  0  0  0  0
    7.4800   -4.4138    0.0000 C   0  0  0  0  0  0  0  0  0  0  0  0
    8.2890   -5.0016    0.0000 C   0  0  0  0  0  0  0  0  0  0  0  0
    9.2401   -4.6926    0.0000 C   0  0  0  0  0  0  0  0  0  0  0  0
    6.9800   -5.9527    0.0000 C   0  0  0  0  0  0  0  0  0  0  0  0
    4.4111    3.8672    0.0000 H   0  0  0  0  0  0  0  0  0  0  0  0
    4.1547    3.0780    0.0000 H   0  0  0  0  0  0  0  0  0  0  0  0
    6.9055    3.0780    0.0000 H   0  0  0  0  0  0  0  0  0  0  0  0
    6.6491    3.8672    0.0000 H   0  0  0  0  0  0  0  0  0  0  0  0
    6.6082    3.8354    0.0000 H   0  0  0  0  0  0  0  0  0  0  0  0
    7.0067    4.5257    0.0000 H   0  0  0  0  0  0  0  0  0  0  0  0
    4.4237    2.2503    0.0000 H   0  0  0  0  0  0  0  0  0  0  0  0
    5.0949    1.7626    0.0000 H   0  0  0  0  0  0  0  0  0  0  0  0
    7.0067    5.3103    0.0000 H   0  0  0  0  0  0  0  0  0  0  0  0
    6.6082    6.0006    0.0000 H   0  0  0  0  0  0  0  0  0  0  0  0
    5.9286    6.3930    0.0000 H   0  0  0  0  0  0  0  0  0  0  0  0
    5.1316    6.3930    0.0000 H   0  0  0  0  0  0  0  0  0  0  0  0
    7.1319    1.2234    0.0000 H   0  0  0  0  0  0  0  0  0  0  0  0
    7.0486    2.0161    0.0000 H   0  0  0  0  0  0  0  0  0  0  0  0
    3.7773    3.2634    0.0000 H   0  0  0  0  0  0  0  0  0  0  0  0
    3.7773    6.5726    0.0000 H   0  0  0  0  0  0  0  0  0  0  0  0
    5.6972    1.0033    0.0000 H   0  0  0  0  0  0  0  0  0  0  0  0
    5.7805    0.2106    0.0000 H   0  0  0  0  0  0  0  0  0  0  0  0
    2.3284    5.7509    0.0000 H   0  0  0  0  0  0  0  0  0  0  0  0
    7.3130   -0.4991    0.0000 H   0  0  0  0  0  0  0  0  0  0  0  0
    7.2296    0.2936    0.0000 H   0  0  0  0  0  0  0  0  0  0  0  0
    5.5283   -2.5454    0.0000 H   0  0  0  0  0  0  0  0  0  0  0  0
    5.1303   -3.3266    0.0000 H   0  0  0  0  0  0  0  0  0  0  0  0
    5.9115   -3.7247    0.0000 H   0  0  0  0  0  0  0  0  0  0  0  0
    9.4317   -5.2822    0.0000 H   0  0  0  0  0  0  0  0  0  0  0  0
    9.8297   -4.5010    0.0000 H   0  0  0  0  0  0  0  0  0  0  0  0
    9.0485   -4.1029    0.0000 H   0  0  0  0  0  0  0  0  0  0  0  0
    6.6156   -6.4543    0.0000 H   0  0  0  0  0  0  0  0  0  0  0  0
  1 22  1  0  0  0  0
  2 24  1  0  0  0  0
  2 25  1  0  0  0  0
  3 28  1  0  0  0  0
  3 31  1  0  0  0  0
  4 11  1  0  0  0  0
  4 13  1  0  0  0  0
  4 18  1  0  0  0  0
  5 25  1  0  0  0  0
  5 26  1  0  0  0  0
  5 27  1  0  0  0  0
  6  7  1  0  0  0  0
  6 25  2  0  0  0  0
  7 26  2  0  0  0  0
  8 29  1  0  0  0  0
  8 31  2  0  0  0  0
  9 10  1  0  0  0  0
  9 11  1  0  0  0  0
  9 12  1  0  0  0  0
  9 14  1  0  0  0  0
 10 13  1  0  0  0  0
 10 32  1  0  0  0  0
 10 33  1  0  0  0  0
 11 34  1  0  0  0  0
 11 35  1  0  0  0  0
 12 15  1  0  0  0  0
 12 36  1  0  0  0  0
 12 37  1  0  0  0  0
 13 38  1  0  0  0  0
 13 39  1  0  0  0  0
 14 16  2  0  0  0  0
 14 19  1  0  0  0  0
 15 17  1  0  0  0  0
 15 40  1  0  0  0  0
 15 41  1  0  0  0  0
 16 17  1  0  0  0  0
 16 20  1  0  0  0  0
 17 42  1  0  0  0  0
 17 43  1  0  0  0  0
 18 21  1  0  0  0  0
 18 44  1  0  0  0  0
 18 45  1  0  0  0  0
 19 22  2  0  0  0  0
 19 46  1  0  0  0  0
 20 23  2  0  0  0  0
 20 47  1  0  0  0  0
 21 24  1  0  0  0  0
 21 48  1  0  0  0  0
 21 49  1  0  0  0  0
 22 23  1  0  0  0  0
 23 50  1  0  0  0  0
 24 51  1  0  0  0  0
 24 52  1  0  0  0  0
 26 28  1  0  0  0  0
 27 53  1  0  0  0  0
 27 54  1  0  0  0  0
 27 55  1  0  0  0  0
 28 29  2  0  0  0  0
 29 30  1  0  0  0  0
 30 56  1  0  0  0  0
 30 57  1  0  0  0  0
 30 58  1  0  0  0  0
 31 59  1  0  0  0  0
M  END
> <PUBCHEM_COMPOUND_CID>
24758830

> <PUBCHEM_COMPOUND_CANONICALIZED>
1

> <PUBCHEM_CACTVS_COMPLEXITY>
617

> <PUBCHEM_CACTVS_HBOND_ACCEPTOR>
6

> <PUBCHEM_CACTVS_HBOND_DONOR>
0

> <PUBCHEM_CACTVS_ROTATABLE_BOND>
6

> <PUBCHEM_CACTVS_SUBSKEYS>
AAADceB7oABAEAAAAAAAAAAAAAAAAWLFgAAwYAAAAAAAAADB8AAAHgRIAAABrgzF3wa3lJcMFEiqA6Zz9ASS2Ct7YLQd2CG9RLiOKCLk2TGNIChgjALYihcQgMAPggAAEAAQAAAEAAQgACAAAAAAAAAAAA==

> <PUBCHEM_IUPAC_OPENEYE_NAME>
5-[5-[3-(7'-bromospiro[pyrrolidine-3,1'-tetralin]-1-yl)propylsulfanyl]-4-methyl-1,2,4-triazol-3-yl]-4-methyl-oxazole

> <PUBCHEM_IUPAC_CAS_NAME>
5-[5-[3-(6-bromo-1'-spiro[2,3-dihydro-1H-naphthalene-4,3'-pyrrolidine]yl)propylthio]-4-methyl-1,2,4-triazol-3-yl]-4-methyloxazole

> <PUBCHEM_IUPAC_NAME_MARKUP>
5-[5-[3-(6-bromospiro[2,3-dihydro-1<I>H</I>-naphthalene-4,3&apos;-pyrrolidine]-1&apos;-yl)propylsulfanyl]-4-methyl-1,2,4-triazol-3-yl]-4-methyl-1,3-oxazole

> <PUBCHEM_IUPAC_NAME>
5-[5-[3-(6-bromospiro[2,3-dihydro-1H-naphthalene-4,3'-pyrrolidine]-1'-yl)propylsulfanyl]-4-methyl-1,2,4-triazol-3-yl]-4-methyl-1,3-oxazole

> <PUBCHEM_IUPAC_SYSTEMATIC_NAME>
5-[5-[3-(6-bromanylspiro[2,3-dihydro-1H-naphthalene-4,3'-pyrrolidine]-1'-yl)propylsulfanyl]-4-methyl-1,2,4-triazol-3-yl]-4-methyl-1,3-oxazole

> <PUBCHEM_IUPAC_TRADITIONAL_NAME>
5-[5-[3-(7'-bromospiro[pyrrolidine-3,1'-tetralin]-1-yl)propylthio]-4-methyl-1,2,4-triazol-3-yl]-4-methyl-oxazole

> <PUBCHEM_IUPAC_INCHI>
InChI=1S/C23H28BrN5OS/c1-16-20(30-15-25-16)21-26-27-22(28(21)2)31-12-4-10-29-11-9-23(14-29)8-3-5-17-6-7-18(24)13-19(17)23/h6-7,13,15H,3-5,8-12,14H2,1-2H3

> <PUBCHEM_IUPAC_INCHIKEY>
MKRKVCYLRHDJLG-UHFFFAOYSA-N

> <PUBCHEM_XLOGP3_AA>
4.7

> <PUBCHEM_EXACT_MASS>
501.11979

> <PUBCHEM_MOLECULAR_FORMULA>
C23H28BrN5OS

> <PUBCHEM_MOLECULAR_WEIGHT>
502.5

> <PUBCHEM_OPENEYE_CAN_SMILES>
CC1=C(OC=N1)C2=NN=C(N2C)SCCCN3CCC4(C3)CCCC5=C4C=C(C=C5)Br

> <PUBCHEM_OPENEYE_ISO_SMILES>
CC1=C(OC=N1)C2=NN=C(N2C)SCCCN3CCC4(C3)CCCC5=C4C=C(C=C5)Br

> <PUBCHEM_CACTVS_TPSA>
85.3

> <PUBCHEM_MONOISOTOPIC_WEIGHT>
501.11979

> <PUBCHEM_TOTAL_CHARGE>
0

> <PUBCHEM_HEAVY_ATOM_COUNT>
31

> <PUBCHEM_ATOM_DEF_STEREO_COUNT>
0

> <PUBCHEM_ATOM_UDEF_STEREO_COUNT>
1

> <PUBCHEM_BOND_DEF_STEREO_COUNT>
0

> <PUBCHEM_BOND_UDEF_STEREO_COUNT>
0

> <PUBCHEM_ISOTOPIC_ATOM_COUNT>
0

> <PUBCHEM_COMPONENT_COUNT>
1

> <PUBCHEM_CACTVS_TAUTO_COUNT>
-1

> <PUBCHEM_COORDINATE_TYPE>
1
5
255

> <PUBCHEM_BONDANNOTATIONS>
14  16  8
14  19  8
16  20  8
19  22  8
20  23  8
22  23  8
28  29  8
3  28  8
3  31  8
5  25  8
5  26  8
6  25  8
6  7  8
7  26  8
8  29  8
8  31  8
9  12  3

$$$$
