11100243
  -OEChem-09292322112D

 52 56  0     1  0  0  0  0  0999 V2000
    2.9059    5.5693    0.0000 F   0  0  0  0  0  0  0  0  0  0  0  0
    2.9180    1.5000    0.0000 O   0  0  0  0  0  0  0  0  0  0  0  0
    3.7841   -1.0000    0.0000 N   0  0  0  0  0  0  0  0  0  0  0  0
    3.7841    1.0000    0.0000 C   0  0  0  0  0  0  0  0  0  0  0  0
    2.9180    0.5000    0.0000 C   0  0  0  0  0  0  0  0  0  0  0  0
    4.6501    0.5000    0.0000 C   0  0  0  0  0  0  0  0  0  0  0  0
    3.7841   -2.0000    0.0000 C   0  0  3  0  0  0  0  0  0  0  0  0
    2.9180   -0.5000    0.0000 C   0  0  0  0  0  0  0  0  0  0  0  0
    4.6501   -0.5000    0.0000 C   0  0  0  0  0  0  0  0  0  0  0  0
    4.6501    1.5000    0.0000 C   0  0  0  0  0  0  0  0  0  0  0  0
    2.9180   -2.5000    0.0000 C   0  0  0  0  0  0  0  0  0  0  0  0
    4.6501   -2.5000    0.0000 C   0  0  0  0  0  0  0  0  0  0  0  0
    4.6501    2.5000    0.0000 C   0  0  0  0  0  0  0  0  0  0  0  0
    2.9180   -3.5000    0.0000 C   0  0  0  0  0  0  0  0  0  0  0  0
    4.6501   -3.5000    0.0000 C   0  0  0  0  0  0  0  0  0  0  0  0
    3.7841    3.0000    0.0000 C   0  0  0  0  0  0  0  0  0  0  0  0
    2.9180    2.5000    0.0000 C   0  0  0  0  0  0  0  0  0  0  0  0
    3.7841   -4.0000    0.0000 C   0  0  0  0  0  0  0  0  0  0  0  0
    5.5601   -4.0068    0.0000 C   0  0  0  0  0  0  0  0  0  0  0  0
    3.8001    4.0415    0.0000 C   0  0  0  0  0  0  0  0  0  0  0  0
    2.0080    3.0068    0.0000 C   0  0  0  0  0  0  0  0  0  0  0  0
    3.7680   -5.0415    0.0000 C   0  0  0  0  0  0  0  0  0  0  0  0
    5.5681   -5.0484    0.0000 C   0  0  0  0  0  0  0  0  0  0  0  0
    4.6660   -5.5693    0.0000 C   0  0  0  0  0  0  0  0  0  0  0  0
    2.9021    4.5693    0.0000 C   0  0  0  0  0  0  0  0  0  0  0  0
    2.0000    4.0484    0.0000 C   0  0  0  0  0  0  0  0  0  0  0  0
    2.7060    1.0826    0.0000 H   0  0  0  0  0  0  0  0  0  0  0  0
    2.3074    0.3923    0.0000 H   0  0  0  0  0  0  0  0  0  0  0  0
    5.2607    0.3923    0.0000 H   0  0  0  0  0  0  0  0  0  0  0  0
    4.8621    1.0826    0.0000 H   0  0  0  0  0  0  0  0  0  0  0  0
    3.2471   -1.6900    0.0000 H   0  0  0  0  0  0  0  0  0  0  0  0
    2.3074   -0.3923    0.0000 H   0  0  0  0  0  0  0  0  0  0  0  0
    2.7060   -1.0826    0.0000 H   0  0  0  0  0  0  0  0  0  0  0  0
    4.8621   -1.0826    0.0000 H   0  0  0  0  0  0  0  0  0  0  0  0
    5.2607   -0.3923    0.0000 H   0  0  0  0  0  0  0  0  0  0  0  0
    4.8621    0.9174    0.0000 H   0  0  0  0  0  0  0  0  0  0  0  0
    5.2607    1.6077    0.0000 H   0  0  0  0  0  0  0  0  0  0  0  0
    2.7060   -1.9174    0.0000 H   0  0  0  0  0  0  0  0  0  0  0  0
    2.3074   -2.6077    0.0000 H   0  0  0  0  0  0  0  0  0  0  0  0
    5.2607   -2.6077    0.0000 H   0  0  0  0  0  0  0  0  0  0  0  0
    4.8621   -1.9174    0.0000 H   0  0  0  0  0  0  0  0  0  0  0  0
    5.2607    2.3923    0.0000 H   0  0  0  0  0  0  0  0  0  0  0  0
    4.8621    3.0826    0.0000 H   0  0  0  0  0  0  0  0  0  0  0  0
    2.3074   -3.3923    0.0000 H   0  0  0  0  0  0  0  0  0  0  0  0
    2.7060   -4.0826    0.0000 H   0  0  0  0  0  0  0  0  0  0  0  0
    6.0934   -3.6906    0.0000 H   0  0  0  0  0  0  0  0  0  0  0  0
    4.3406    4.3453    0.0000 H   0  0  0  0  0  0  0  0  0  0  0  0
    1.4747    2.6907    0.0000 H   0  0  0  0  0  0  0  0  0  0  0  0
    3.2275   -5.3453    0.0000 H   0  0  0  0  0  0  0  0  0  0  0  0
    6.1062   -5.3564    0.0000 H   0  0  0  0  0  0  0  0  0  0  0  0
    4.6636   -6.1892    0.0000 H   0  0  0  0  0  0  0  0  0  0  0  0
    1.4619    4.3564    0.0000 H   0  0  0  0  0  0  0  0  0  0  0  0
  1 25  1  0  0  0  0
  2  4  1  0  0  0  0
  2 17  1  0  0  0  0
  3  7  1  0  0  0  0
  3  8  1  0  0  0  0
  3  9  1  0  0  0  0
  4  5  1  0  0  0  0
  4  6  1  0  0  0  0
  4 10  1  0  0  0  0
  5  8  1  0  0  0  0
  5 27  1  0  0  0  0
  5 28  1  0  0  0  0
  6  9  1  0  0  0  0
  6 29  1  0  0  0  0
  6 30  1  0  0  0  0
  7 11  1  0  0  0  0
  7 12  1  0  0  0  0
  7 31  1  0  0  0  0
  8 32  1  0  0  0  0
  8 33  1  0  0  0  0
  9 34  1  0  0  0  0
  9 35  1  0  0  0  0
 10 13  1  0  0  0  0
 10 36  1  0  0  0  0
 10 37  1  0  0  0  0
 11 14  1  0  0  0  0
 11 38  1  0  0  0  0
 11 39  1  0  0  0  0
 12 15  1  0  0  0  0
 12 40  1  0  0  0  0
 12 41  1  0  0  0  0
 13 16  1  0  0  0  0
 13 42  1  0  0  0  0
 13 43  1  0  0  0  0
 14 18  1  0  0  0  0
 14 44  1  0  0  0  0
 14 45  1  0  0  0  0
 15 18  1  0  0  0  0
 15 19  2  0  0  0  0
 16 17  2  0  0  0  0
 16 20  1  0  0  0  0
 17 21  1  0  0  0  0
 18 22  2  0  0  0  0
 19 23  1  0  0  0  0
 19 46  1  0  0  0  0
 20 25  2  0  0  0  0
 20 47  1  0  0  0  0
 21 26  2  0  0  0  0
 21 48  1  0  0  0  0
 22 24  1  0  0  0  0
 22 49  1  0  0  0  0
 23 24  2  0  0  0  0
 23 50  1  0  0  0  0
 24 51  1  0  0  0  0
 25 26  1  0  0  0  0
 26 52  1  0  0  0  0
M  END
> <PUBCHEM_COMPOUND_CID>
11100243

> <PUBCHEM_COMPOUND_CANONICALIZED>
1

> <PUBCHEM_CACTVS_COMPLEXITY>
489

> <PUBCHEM_CACTVS_HBOND_ACCEPTOR>
3

> <PUBCHEM_CACTVS_HBOND_DONOR>
0

> <PUBCHEM_CACTVS_ROTATABLE_BOND>
1

> <PUBCHEM_CACTVS_SUBSKEYS>
AAADceB6IQAAAAAAAAAAAAAAAAAAAAAAAAA8aMECAAAAAADRQAAAHwAAAAAADGzBmAwwBoMABACAAiBCAAACCAAgIAAIiAAOCIgMJiKEsRuGOCCmwBGIqAeQwPAOgAAAAAAYAAAQAACAADAAAAAAAAAAAA==

> <PUBCHEM_IUPAC_OPENEYE_NAME>
6-fluoro-1'-tetralin-2-yl-spiro[chromane-2,4'-piperidine]

> <PUBCHEM_IUPAC_CAS_NAME>
6-fluoro-1'-(1,2,3,4-tetrahydronaphthalen-2-yl)spiro[3,4-dihydro-2H-1-benzopyran-2,4'-piperidine]

> <PUBCHEM_IUPAC_NAME_MARKUP>
6-fluoro-1&apos;-(1,2,3,4-tetrahydronaphthalen-2-yl)spiro[3,4-dihydrochromene-2,4&apos;-piperidine]

> <PUBCHEM_IUPAC_NAME>
6-fluoro-1'-(1,2,3,4-tetrahydronaphthalen-2-yl)spiro[3,4-dihydrochromene-2,4'-piperidine]

> <PUBCHEM_IUPAC_SYSTEMATIC_NAME>
6-fluoranyl-1'-(1,2,3,4-tetrahydronaphthalen-2-yl)spiro[3,4-dihydrochromene-2,4'-piperidine]

> <PUBCHEM_IUPAC_TRADITIONAL_NAME>
6-fluoro-1'-tetralin-2-yl-spiro[chroman-2,4'-piperidine]

> <PUBCHEM_IUPAC_INCHI>
InChI=1S/C23H26FNO/c24-20-6-8-22-19(15-20)9-10-23(26-22)11-13-25(14-12-23)21-7-5-17-3-1-2-4-18(17)16-21/h1-4,6,8,15,21H,5,7,9-14,16H2

> <PUBCHEM_IUPAC_INCHIKEY>
QFHXIJAGZCPYPV-UHFFFAOYSA-N

> <PUBCHEM_XLOGP3_AA>
5.2

> <PUBCHEM_EXACT_MASS>
351.19984261

> <PUBCHEM_MOLECULAR_FORMULA>
C23H26FNO

> <PUBCHEM_MOLECULAR_WEIGHT>
351.5

> <PUBCHEM_OPENEYE_CAN_SMILES>
C1CC2=CC=CC=C2CC1N3CCC4(CCC5=C(O4)C=CC(=C5)F)CC3

> <PUBCHEM_OPENEYE_ISO_SMILES>
C1CC2=CC=CC=C2CC1N3CCC4(CCC5=C(O4)C=CC(=C5)F)CC3

> <PUBCHEM_CACTVS_TPSA>
12.5

> <PUBCHEM_MONOISOTOPIC_WEIGHT>
351.19984261

> <PUBCHEM_TOTAL_CHARGE>
0

> <PUBCHEM_HEAVY_ATOM_COUNT>
26

> <PUBCHEM_ATOM_DEF_STEREO_COUNT>
0

> <PUBCHEM_ATOM_UDEF_STEREO_COUNT>
1

> <PUBCHEM_BOND_DEF_STEREO_COUNT>
0

> <PUBCHEM_BOND_UDEF_STEREO_COUNT>
0

> <PUBCHEM_ISOTOPIC_ATOM_COUNT>
0

> <PUBCHEM_COMPONENT_COUNT>
1

> <PUBCHEM_CACTVS_TAUTO_COUNT>
-1

> <PUBCHEM_COORDINATE_TYPE>
1
5
255

> <PUBCHEM_BONDANNOTATIONS>
15  18  8
15  19  8
16  17  8
16  20  8
17  21  8
18  22  8
19  23  8
20  25  8
21  26  8
22  24  8
23  24  8
25  26  8
7  3  3

$$$$
