43229249
  -OEChem-09292322372D

 42 44  0     1  0  0  0  0  0999 V2000
    8.9962    1.2327    0.0000 O   0  0  0  0  0  0  0  0  0  0  0  0
    5.5321    0.2327    0.0000 N   0  0  3  0  0  0  0  0  0  0  0  0
    5.5321    1.2327    0.0000 C   0  0  0  0  0  0  0  0  0  0  0  0
    4.6660   -0.2673    0.0000 C   0  0  0  0  0  0  0  0  0  0  0  0
    4.6660    1.7327    0.0000 C   0  0  0  0  0  0  0  0  0  0  0  0
    6.3981   -0.2673    0.0000 C   0  0  0  0  0  0  0  0  0  0  0  0
    3.8000    0.2327    0.0000 C   0  0  0  0  0  0  0  0  0  0  0  0
    3.8000    1.2327    0.0000 C   0  0  0  0  0  0  0  0  0  0  0  0
    7.2641    0.2327    0.0000 C   0  0  0  0  0  0  0  0  0  0  0  0
    8.1301   -0.2673    0.0000 C   0  0  0  0  0  0  0  0  0  0  0  0
    2.9061   -0.3020    0.0000 C   0  0  0  0  0  0  0  0  0  0  0  0
    2.9061    1.7673    0.0000 C   0  0  0  0  0  0  0  0  0  0  0  0
    2.0000    0.2119    0.0000 C   0  0  0  0  0  0  0  0  0  0  0  0
    2.0000    1.2535    0.0000 C   0  0  0  0  0  0  0  0  0  0  0  0
    8.9962    0.2327    0.0000 C   0  0  0  0  0  0  0  0  0  0  0  0
    9.8622   -0.2673    0.0000 C   0  0  0  0  0  0  0  0  0  0  0  0
   10.7282    0.2327    0.0000 C   0  0  0  0  0  0  0  0  0  0  0  0
    9.8622   -1.2673    0.0000 C   0  0  0  0  0  0  0  0  0  0  0  0
   11.5942   -0.2673    0.0000 C   0  0  0  0  0  0  0  0  0  0  0  0
   10.7282   -1.7673    0.0000 C   0  0  0  0  0  0  0  0  0  0  0  0
   11.5942   -1.2673    0.0000 C   0  0  0  0  0  0  0  0  0  0  0  0
    6.1426    1.1250    0.0000 H   0  0  0  0  0  0  0  0  0  0  0  0
    5.7441    1.8153    0.0000 H   0  0  0  0  0  0  0  0  0  0  0  0
    4.2675   -0.7423    0.0000 H   0  0  0  0  0  0  0  0  0  0  0  0
    5.0646   -0.7423    0.0000 H   0  0  0  0  0  0  0  0  0  0  0  0
    5.0646    2.2076    0.0000 H   0  0  0  0  0  0  0  0  0  0  0  0
    4.2675    2.2076    0.0000 H   0  0  0  0  0  0  0  0  0  0  0  0
    5.9996   -0.7423    0.0000 H   0  0  0  0  0  0  0  0  0  0  0  0
    6.7966   -0.7423    0.0000 H   0  0  0  0  0  0  0  0  0  0  0  0
    7.6626    0.7076    0.0000 H   0  0  0  0  0  0  0  0  0  0  0  0
    6.8656    0.7076    0.0000 H   0  0  0  0  0  0  0  0  0  0  0  0
    7.7316   -0.7423    0.0000 H   0  0  0  0  0  0  0  0  0  0  0  0
    8.5287   -0.7423    0.0000 H   0  0  0  0  0  0  0  0  0  0  0  0
    2.9132   -0.9220    0.0000 H   0  0  0  0  0  0  0  0  0  0  0  0
    2.9132    2.3873    0.0000 H   0  0  0  0  0  0  0  0  0  0  0  0
    1.4643   -0.1002    0.0000 H   0  0  0  0  0  0  0  0  0  0  0  0
    1.4643    1.5656    0.0000 H   0  0  0  0  0  0  0  0  0  0  0  0
   10.7282    0.8527    0.0000 H   0  0  0  0  0  0  0  0  0  0  0  0
    9.3252   -1.5773    0.0000 H   0  0  0  0  0  0  0  0  0  0  0  0
   12.1312    0.0427    0.0000 H   0  0  0  0  0  0  0  0  0  0  0  0
   10.7282   -2.3873    0.0000 H   0  0  0  0  0  0  0  0  0  0  0  0
   12.1312   -1.5773    0.0000 H   0  0  0  0  0  0  0  0  0  0  0  0
  1 15  2  0  0  0  0
  2  3  1  0  0  0  0
  2  4  1  0  0  0  0
  2  6  1  0  0  0  0
  3  5  1  0  0  0  0
  3 22  1  0  0  0  0
  3 23  1  0  0  0  0
  4  7  1  0  0  0  0
  4 24  1  0  0  0  0
  4 25  1  0  0  0  0
  5  8  1  0  0  0  0
  5 26  1  0  0  0  0
  5 27  1  0  0  0  0
  6  9  1  0  0  0  0
  6 28  1  0  0  0  0
  6 29  1  0  0  0  0
  7  8  1  0  0  0  0
  7 11  2  0  0  0  0
  8 12  2  0  0  0  0
  9 10  1  0  0  0  0
  9 30  1  0  0  0  0
  9 31  1  0  0  0  0
 10 15  1  0  0  0  0
 10 32  1  0  0  0  0
 10 33  1  0  0  0  0
 11 13  1  0  0  0  0
 11 34  1  0  0  0  0
 12 14  1  0  0  0  0
 12 35  1  0  0  0  0
 13 14  2  0  0  0  0
 13 36  1  0  0  0  0
 14 37  1  0  0  0  0
 15 16  1  0  0  0  0
 16 17  2  0  0  0  0
 16 18  1  0  0  0  0
 17 19  1  0  0  0  0
 17 38  1  0  0  0  0
 18 20  2  0  0  0  0
 18 39  1  0  0  0  0
 19 21  2  0  0  0  0
 19 40  1  0  0  0  0
 20 21  1  0  0  0  0
 20 41  1  0  0  0  0
 21 42  1  0  0  0  0
M  END
> <PUBCHEM_COMPOUND_CID>
43229249

> <PUBCHEM_COMPOUND_CANONICALIZED>
1

> <PUBCHEM_CACTVS_COMPLEXITY>
335

> <PUBCHEM_CACTVS_HBOND_ACCEPTOR>
2

> <PUBCHEM_CACTVS_HBOND_DONOR>
0

> <PUBCHEM_CACTVS_ROTATABLE_BOND>
5

> <PUBCHEM_CACTVS_SUBSKEYS>
AAADceB6IAAAAAAAAAAAAAAAAAAAAAAAAAA8YIAAAAAAAACxQAAAHgAAAAAADATBmAQwAIMAAACIAqBSAACCAAAkAAAIiAEIBMgIIDKAlRGEIQhggACIiYcciICOgAAAAAAQAAAAAAAAACAAAAAAAAAAAA==

> <PUBCHEM_IUPAC_OPENEYE_NAME>
4-(3,4-dihydro-1H-isoquinolin-2-yl)-1-phenyl-butan-1-one

> <PUBCHEM_IUPAC_CAS_NAME>
4-(3,4-dihydro-1H-isoquinolin-2-yl)-1-phenyl-1-butanone

> <PUBCHEM_IUPAC_NAME_MARKUP>
4-(3,4-dihydro-1<I>H</I>-isoquinolin-2-yl)-1-phenylbutan-1-one

> <PUBCHEM_IUPAC_NAME>
4-(3,4-dihydro-1H-isoquinolin-2-yl)-1-phenylbutan-1-one

> <PUBCHEM_IUPAC_SYSTEMATIC_NAME>
4-(3,4-dihydro-1H-isoquinolin-2-yl)-1-phenyl-butan-1-one

> <PUBCHEM_IUPAC_TRADITIONAL_NAME>
4-(3,4-dihydro-1H-isoquinolin-2-yl)-1-phenyl-butan-1-one

> <PUBCHEM_IUPAC_INCHI>
InChI=1S/C19H21NO/c21-19(17-8-2-1-3-9-17)11-6-13-20-14-12-16-7-4-5-10-18(16)15-20/h1-5,7-10H,6,11-15H2

> <PUBCHEM_IUPAC_INCHIKEY>
KAHXPONUPROIRS-UHFFFAOYSA-N

> <PUBCHEM_XLOGP3_AA>
3.5

> <PUBCHEM_EXACT_MASS>
279.162314293

> <PUBCHEM_MOLECULAR_FORMULA>
C19H21NO

> <PUBCHEM_MOLECULAR_WEIGHT>
279.4

> <PUBCHEM_OPENEYE_CAN_SMILES>
C1CN(CC2=CC=CC=C21)CCCC(=O)C3=CC=CC=C3

> <PUBCHEM_OPENEYE_ISO_SMILES>
C1CN(CC2=CC=CC=C21)CCCC(=O)C3=CC=CC=C3

> <PUBCHEM_CACTVS_TPSA>
20.3

> <PUBCHEM_MONOISOTOPIC_WEIGHT>
279.162314293

> <PUBCHEM_TOTAL_CHARGE>
0

> <PUBCHEM_HEAVY_ATOM_COUNT>
21

> <PUBCHEM_ATOM_DEF_STEREO_COUNT>
0

> <PUBCHEM_ATOM_UDEF_STEREO_COUNT>
0

> <PUBCHEM_BOND_DEF_STEREO_COUNT>
0

> <PUBCHEM_BOND_UDEF_STEREO_COUNT>
0

> <PUBCHEM_ISOTOPIC_ATOM_COUNT>
0

> <PUBCHEM_COMPONENT_COUNT>
1

> <PUBCHEM_CACTVS_TAUTO_COUNT>
-1

> <PUBCHEM_COORDINATE_TYPE>
1
5
255

> <PUBCHEM_BONDANNOTATIONS>
11  13  8
12  14  8
13  14  8
16  17  8
16  18  8
17  19  8
18  20  8
19  21  8
20  21  8
7  11  8
7  8  8
8  12  8

$$$$
