10220541
  -OEChem-09292322102D

 34 36  0     1  0  0  0  0  0999 V2000
    3.8936   -0.4387    0.0000 S   0  0  0  0  0  0  0  0  0  0  0  0
    9.1017    0.3660    0.0000 N   0  0  0  0  0  0  0  0  0  0  0  0
    3.8936    1.1708    0.0000 N   0  0  0  0  0  0  0  0  0  0  0  0
    2.3100    0.3660    0.0000 N   0  0  0  0  0  0  0  0  0  0  0  0
    8.1017    0.3660    0.0000 C   0  0  3  0  0  0  0  0  0  0  0  0
    7.5181   -0.4387    0.0000 C   0  0  0  0  0  0  0  0  0  0  0  0
    7.5181    1.1708    0.0000 C   0  0  0  0  0  0  0  0  0  0  0  0
    6.5719   -0.1340    0.0000 C   0  0  0  0  0  0  0  0  0  0  0  0
    6.5719    0.8660    0.0000 C   0  0  0  0  0  0  0  0  0  0  0  0
    5.7058   -0.6340    0.0000 C   0  0  0  0  0  0  0  0  0  0  0  0
    5.7058    1.3660    0.0000 C   0  0  0  0  0  0  0  0  0  0  0  0
    9.6017   -0.5000    0.0000 C   0  0  0  0  0  0  0  0  0  0  0  0
    4.8398   -0.1340    0.0000 C   0  0  0  0  0  0  0  0  0  0  0  0
    4.8398    0.8660    0.0000 C   0  0  0  0  0  0  0  0  0  0  0  0
   10.6017   -0.5000    0.0000 C   0  0  0  0  0  0  0  0  0  0  0  0
   11.1017   -1.3660    0.0000 C   0  0  0  0  0  0  0  0  0  0  0  0
    3.3100    0.3660    0.0000 C   0  0  0  0  0  0  0  0  0  0  0  0
    8.3834   -0.1863    0.0000 H   0  0  0  0  0  0  0  0  0  0  0  0
    7.2671   -1.0056    0.0000 H   0  0  0  0  0  0  0  0  0  0  0  0
    8.0555   -0.7479    0.0000 H   0  0  0  0  0  0  0  0  0  0  0  0
    8.0555    1.4800    0.0000 H   0  0  0  0  0  0  0  0  0  0  0  0
    7.2671    1.7377    0.0000 H   0  0  0  0  0  0  0  0  0  0  0  0
    9.4117    0.9030    0.0000 H   0  0  0  0  0  0  0  0  0  0  0  0
    5.7058   -1.2540    0.0000 H   0  0  0  0  0  0  0  0  0  0  0  0
    5.7058    1.9860    0.0000 H   0  0  0  0  0  0  0  0  0  0  0  0
    9.0191   -0.7121    0.0000 H   0  0  0  0  0  0  0  0  0  0  0  0
    9.7094   -1.1106    0.0000 H   0  0  0  0  0  0  0  0  0  0  0  0
   11.1843   -0.2879    0.0000 H   0  0  0  0  0  0  0  0  0  0  0  0
   10.4940    0.1106    0.0000 H   0  0  0  0  0  0  0  0  0  0  0  0
   10.5648   -1.6760    0.0000 H   0  0  0  0  0  0  0  0  0  0  0  0
   11.4117   -1.9030    0.0000 H   0  0  0  0  0  0  0  0  0  0  0  0
   11.6386   -1.0560    0.0000 H   0  0  0  0  0  0  0  0  0  0  0  0
    2.0000    0.9030    0.0000 H   0  0  0  0  0  0  0  0  0  0  0  0
    2.0000   -0.1709    0.0000 H   0  0  0  0  0  0  0  0  0  0  0  0
  1 13  1  0  0  0  0
  1 17  1  0  0  0  0
  2  5  1  0  0  0  0
  2 12  1  0  0  0  0
  2 23  1  0  0  0  0
  3 14  1  0  0  0  0
  3 17  2  0  0  0  0
  4 17  1  0  0  0  0
  4 33  1  0  0  0  0
  4 34  1  0  0  0  0
  5  6  1  0  0  0  0
  5  7  1  0  0  0  0
  5 18  1  0  0  0  0
  6  8  1  0  0  0  0
  6 19  1  0  0  0  0
  6 20  1  0  0  0  0
  7  9  1  0  0  0  0
  7 21  1  0  0  0  0
  7 22  1  0  0  0  0
  8  9  1  0  0  0  0
  8 10  2  0  0  0  0
  9 11  2  0  0  0  0
 10 13  1  0  0  0  0
 10 24  1  0  0  0  0
 11 14  1  0  0  0  0
 11 25  1  0  0  0  0
 12 15  1  0  0  0  0
 12 26  1  0  0  0  0
 12 27  1  0  0  0  0
 13 14  2  0  0  0  0
 15 16  1  0  0  0  0
 15 28  1  0  0  0  0
 15 29  1  0  0  0  0
 16 30  1  0  0  0  0
 16 31  1  0  0  0  0
 16 32  1  0  0  0  0
M  END
> <PUBCHEM_COMPOUND_CID>
10220541

> <PUBCHEM_COMPOUND_CANONICALIZED>
1

> <PUBCHEM_CACTVS_COMPLEXITY>
273

> <PUBCHEM_CACTVS_HBOND_ACCEPTOR>
4

> <PUBCHEM_CACTVS_HBOND_DONOR>
2

> <PUBCHEM_CACTVS_ROTATABLE_BOND>
3

> <PUBCHEM_CACTVS_SUBSKEYS>
AAADceBzAABAAAAAAAAAAAAAAAAAAeIAAAAwAAAAAAAAAHgB8AAAHAQQAAAADCjBXgQz0bLIEAikAyRiZACD8KlhCjlAmLw4ZJiIIKLgkZGEIAhgkALIyCcQgIAOmAAAwAAQAQAwAAGAACACACAACAAAAA==

> <PUBCHEM_IUPAC_OPENEYE_NAME>
N6-propyl-6,7-dihydro-5H-cyclopenta[f][1,3]benzothiazole-2,6-diamine

> <PUBCHEM_IUPAC_CAS_NAME>
N6-propyl-6,7-dihydro-5H-cyclopenta[f][1,3]benzothiazole-2,6-diamine

> <PUBCHEM_IUPAC_NAME_MARKUP>
6-<I>N</I>-propyl-6,7-dihydro-5<I>H</I>-cyclopenta[f][1,3]benzothiazole-2,6-diamine

> <PUBCHEM_IUPAC_NAME>
6-N-propyl-6,7-dihydro-5H-cyclopenta[f][1,3]benzothiazole-2,6-diamine

> <PUBCHEM_IUPAC_SYSTEMATIC_NAME>
N6-propyl-6,7-dihydro-5H-cyclopenta[f][1,3]benzothiazole-2,6-diamine

> <PUBCHEM_IUPAC_TRADITIONAL_NAME>
(2-amino-6,7-dihydro-5H-cyclopenta[f][1,3]benzothiazol-6-yl)-propyl-amine

> <PUBCHEM_IUPAC_INCHI>
InChI=1S/C13H17N3S/c1-2-3-15-10-4-8-6-11-12(7-9(8)5-10)17-13(14)16-11/h6-7,10,15H,2-5H2,1H3,(H2,14,16)

> <PUBCHEM_IUPAC_INCHIKEY>
BRWKJOUZUNEUTN-UHFFFAOYSA-N

> <PUBCHEM_XLOGP3_AA>
2.9

> <PUBCHEM_EXACT_MASS>
247.11431873

> <PUBCHEM_MOLECULAR_FORMULA>
C13H17N3S

> <PUBCHEM_MOLECULAR_WEIGHT>
247.36

> <PUBCHEM_OPENEYE_CAN_SMILES>
CCCNC1CC2=CC3=C(C=C2C1)SC(=N3)N

> <PUBCHEM_OPENEYE_ISO_SMILES>
CCCNC1CC2=CC3=C(C=C2C1)SC(=N3)N

> <PUBCHEM_CACTVS_TPSA>
79.2

> <PUBCHEM_MONOISOTOPIC_WEIGHT>
247.11431873

> <PUBCHEM_TOTAL_CHARGE>
0

> <PUBCHEM_HEAVY_ATOM_COUNT>
17

> <PUBCHEM_ATOM_DEF_STEREO_COUNT>
0

> <PUBCHEM_ATOM_UDEF_STEREO_COUNT>
1

> <PUBCHEM_BOND_DEF_STEREO_COUNT>
0

> <PUBCHEM_BOND_UDEF_STEREO_COUNT>
0

> <PUBCHEM_ISOTOPIC_ATOM_COUNT>
0

> <PUBCHEM_COMPONENT_COUNT>
1

> <PUBCHEM_CACTVS_TAUTO_COUNT>
-1

> <PUBCHEM_COORDINATE_TYPE>
1
5
255

> <PUBCHEM_BONDANNOTATIONS>
1  13  8
1  17  8
10  13  8
11  14  8
13  14  8
5  2  3
3  14  8
3  17  8
8  10  8
8  9  8
9  11  8

$$$$
