118719794
  -OEChem-09292322362D

 60 64  0     0  0  0  0  0  0999 V2000
    4.9836    5.1706    0.0000 O   0  0  0  0  0  0  0  0  0  0  0  0
    4.6215    1.7254    0.0000 N   0  0  0  0  0  0  0  0  0  0  0  0
    3.8080    3.5525    0.0000 N   0  0  0  0  0  0  0  0  0  0  0  0
    3.7594   -3.2585    0.0000 N   0  0  0  0  0  0  0  0  0  0  0  0
    3.2594   -1.7197    0.0000 N   0  0  0  0  0  0  0  0  0  0  0  0
    2.9503   -2.6707    0.0000 N   0  0  0  0  0  0  0  0  0  0  0  0
    6.4254   -5.7793    0.0000 N   0  0  0  0  0  0  0  0  0  0  0  0
    5.2092    2.5345    0.0000 C   0  0  0  0  0  0  0  0  0  0  0  0
    3.6270    1.8300    0.0000 C   0  0  0  0  0  0  0  0  0  0  0  0
    4.8025    3.4480    0.0000 C   0  0  0  0  0  0  0  0  0  0  0  0
    3.2202    2.7435    0.0000 C   0  0  0  0  0  0  0  0  0  0  0  0
    5.0282    0.8119    0.0000 C   0  0  0  0  0  0  0  0  0  0  0  0
    4.4404    0.0029    0.0000 C   0  0  0  0  0  0  0  0  0  0  0  0
    3.4013    4.4661    0.0000 C   0  0  0  0  0  0  0  0  0  0  0  0
    4.8472   -0.9107    0.0000 C   0  0  0  0  0  0  0  0  0  0  0  0
    3.9890    5.2751    0.0000 C   0  0  0  0  0  0  0  0  0  0  0  0
    2.4067    4.5706    0.0000 C   0  0  0  0  0  0  0  0  0  0  0  0
    4.2594   -1.7197    0.0000 C   0  0  0  0  0  0  0  0  0  0  0  0
    3.5823    6.1886    0.0000 C   0  0  0  0  0  0  0  0  0  0  0  0
    2.0000    5.4842    0.0000 C   0  0  0  0  0  0  0  0  0  0  0  0
    4.5684   -2.6707    0.0000 C   0  0  0  0  0  0  0  0  0  0  0  0
    2.5878    6.2932    0.0000 C   0  0  0  0  0  0  0  0  0  0  0  0
    3.7594   -4.2585    0.0000 C   0  0  0  0  0  0  0  0  0  0  0  0
    4.6254   -4.7585    0.0000 C   0  0  0  0  0  0  0  0  0  0  0  0
    5.5714    5.9796    0.0000 C   0  0  0  0  0  0  0  0  0  0  0  0
    2.8934   -4.7585    0.0000 C   0  0  0  0  0  0  0  0  0  0  0  0
    4.6254   -5.7585    0.0000 C   0  0  0  0  0  0  0  0  0  0  0  0
    2.8934   -5.7585    0.0000 C   0  0  0  0  0  0  0  0  0  0  0  0
    3.7594   -6.2585    0.0000 C   0  0  0  0  0  0  0  0  0  0  0  0
    5.5193   -4.2239    0.0000 C   0  0  0  0  0  0  0  0  0  0  0  0
    5.5193   -6.2932    0.0000 C   0  0  0  0  0  0  0  0  0  0  0  0
    6.4254   -4.7377    0.0000 C   0  0  0  0  0  0  0  0  0  0  0  0
    5.6399    2.0885    0.0000 H   0  0  0  0  0  0  0  0  0  0  0  0
    5.7233    2.8812    0.0000 H   0  0  0  0  0  0  0  0  0  0  0  0
    3.0254    1.6800    0.0000 H   0  0  0  0  0  0  0  0  0  0  0  0
    3.6702    1.2115    0.0000 H   0  0  0  0  0  0  0  0  0  0  0  0
    5.4041    3.5980    0.0000 H   0  0  0  0  0  0  0  0  0  0  0  0
    4.7593    4.0665    0.0000 H   0  0  0  0  0  0  0  0  0  0  0  0
    2.7895    3.1895    0.0000 H   0  0  0  0  0  0  0  0  0  0  0  0
    2.7062    2.3968    0.0000 H   0  0  0  0  0  0  0  0  0  0  0  0
    5.4589    0.3659    0.0000 H   0  0  0  0  0  0  0  0  0  0  0  0
    5.5422    1.1586    0.0000 H   0  0  0  0  0  0  0  0  0  0  0  0
    4.0097    0.4489    0.0000 H   0  0  0  0  0  0  0  0  0  0  0  0
    3.9264   -0.3438    0.0000 H   0  0  0  0  0  0  0  0  0  0  0  0
    5.2778   -1.3566    0.0000 H   0  0  0  0  0  0  0  0  0  0  0  0
    5.3612   -0.5640    0.0000 H   0  0  0  0  0  0  0  0  0  0  0  0
    2.0423    4.0690    0.0000 H   0  0  0  0  0  0  0  0  0  0  0  0
    3.9467    6.6902    0.0000 H   0  0  0  0  0  0  0  0  0  0  0  0
    1.3834    5.5490    0.0000 H   0  0  0  0  0  0  0  0  0  0  0  0
    5.1580   -2.8623    0.0000 H   0  0  0  0  0  0  0  0  0  0  0  0
    2.3356    6.8596    0.0000 H   0  0  0  0  0  0  0  0  0  0  0  0
    2.3564   -4.4485    0.0000 H   0  0  0  0  0  0  0  0  0  0  0  0
    6.0729    5.6152    0.0000 H   0  0  0  0  0  0  0  0  0  0  0  0
    5.9358    6.4812    0.0000 H   0  0  0  0  0  0  0  0  0  0  0  0
    5.0698    6.3440    0.0000 H   0  0  0  0  0  0  0  0  0  0  0  0
    2.3564   -6.0685    0.0000 H   0  0  0  0  0  0  0  0  0  0  0  0
    3.7594   -6.8785    0.0000 H   0  0  0  0  0  0  0  0  0  0  0  0
    5.5122   -3.6039    0.0000 H   0  0  0  0  0  0  0  0  0  0  0  0
    5.5122   -6.9131    0.0000 H   0  0  0  0  0  0  0  0  0  0  0  0
    6.9611   -4.4256    0.0000 H   0  0  0  0  0  0  0  0  0  0  0  0
  1 16  1  0  0  0  0
  1 25  1  0  0  0  0
  2  8  1  0  0  0  0
  2  9  1  0  0  0  0
  2 12  1  0  0  0  0
  3 10  1  0  0  0  0
  3 11  1  0  0  0  0
  3 14  1  0  0  0  0
  4  6  1  0  0  0  0
  4 21  1  0  0  0  0
  4 23  1  0  0  0  0
  5  6  2  0  0  0  0
  5 18  1  0  0  0  0
  7 31  2  0  0  0  0
  7 32  1  0  0  0  0
  8 10  1  0  0  0  0
  8 33  1  0  0  0  0
  8 34  1  0  0  0  0
  9 11  1  0  0  0  0
  9 35  1  0  0  0  0
  9 36  1  0  0  0  0
 10 37  1  0  0  0  0
 10 38  1  0  0  0  0
 11 39  1  0  0  0  0
 11 40  1  0  0  0  0
 12 13  1  0  0  0  0
 12 41  1  0  0  0  0
 12 42  1  0  0  0  0
 13 15  1  0  0  0  0
 13 43  1  0  0  0  0
 13 44  1  0  0  0  0
 14 16  1  0  0  0  0
 14 17  2  0  0  0  0
 15 18  1  0  0  0  0
 15 45  1  0  0  0  0
 15 46  1  0  0  0  0
 16 19  2  0  0  0  0
 17 20  1  0  0  0  0
 17 47  1  0  0  0  0
 18 21  2  0  0  0  0
 19 22  1  0  0  0  0
 19 48  1  0  0  0  0
 20 22  2  0  0  0  0
 20 49  1  0  0  0  0
 21 50  1  0  0  0  0
 22 51  1  0  0  0  0
 23 24  1  0  0  0  0
 23 26  2  0  0  0  0
 24 27  2  0  0  0  0
 24 30  1  0  0  0  0
 25 53  1  0  0  0  0
 25 54  1  0  0  0  0
 25 55  1  0  0  0  0
 26 28  1  0  0  0  0
 26 52  1  0  0  0  0
 27 29  1  0  0  0  0
 27 31  1  0  0  0  0
 28 29  2  0  0  0  0
 28 56  1  0  0  0  0
 29 57  1  0  0  0  0
 30 32  2  0  0  0  0
 30 58  1  0  0  0  0
 31 59  1  0  0  0  0
 32 60  1  0  0  0  0
M  END
> <PUBCHEM_COMPOUND_CID>
118719794

> <PUBCHEM_COMPOUND_CANONICALIZED>
1

> <PUBCHEM_CACTVS_COMPLEXITY>
571

> <PUBCHEM_CACTVS_HBOND_ACCEPTOR>
6

> <PUBCHEM_CACTVS_HBOND_DONOR>
0

> <PUBCHEM_CACTVS_ROTATABLE_BOND>
7

> <PUBCHEM_CACTVS_SUBSKEYS>
AAADceB7oAAAAAAAAAAAAAAAAAAAAWAAAAA8eIEAAAAAAACx/AAAHgAIAAAADAzBngY+xtMIFACiAzRnRACCjCQxsiAY2CA/fJgOZuLEsZuVMChkwBHY6AeQwIAOgAAAQAASEAAAAACAACQgAAAAAAAAAA==

> <PUBCHEM_IUPAC_OPENEYE_NAME>
5-[4-[3-[4-(2-methoxyphenyl)piperazin-1-yl]propyl]triazol-1-yl]isoquinoline

> <PUBCHEM_IUPAC_CAS_NAME>
5-[4-[3-[4-(2-methoxyphenyl)-1-piperazinyl]propyl]-1-triazolyl]isoquinoline

> <PUBCHEM_IUPAC_NAME_MARKUP>
5-[4-[3-[4-(2-methoxyphenyl)piperazin-1-yl]propyl]triazol-1-yl]isoquinoline

> <PUBCHEM_IUPAC_NAME>
5-[4-[3-[4-(2-methoxyphenyl)piperazin-1-yl]propyl]triazol-1-yl]isoquinoline

> <PUBCHEM_IUPAC_SYSTEMATIC_NAME>
5-[4-[3-[4-(2-methoxyphenyl)piperazin-1-yl]propyl]-1,2,3-triazol-1-yl]isoquinoline

> <PUBCHEM_IUPAC_TRADITIONAL_NAME>
5-[4-[3-[4-(2-methoxyphenyl)piperazino]propyl]triazol-1-yl]isoquinoline

> <PUBCHEM_IUPAC_INCHI>
InChI=1S/C25H28N6O/c1-32-25-10-3-2-8-24(25)30-16-14-29(15-17-30)13-5-7-21-19-31(28-27-21)23-9-4-6-20-18-26-12-11-22(20)23/h2-4,6,8-12,18-19H,5,7,13-17H2,1H3

> <PUBCHEM_IUPAC_INCHIKEY>
TZVLEJPHIWREPX-UHFFFAOYSA-N

> <PUBCHEM_XLOGP3_AA>
3.8

> <PUBCHEM_EXACT_MASS>
428.23245954

> <PUBCHEM_MOLECULAR_FORMULA>
C25H28N6O

> <PUBCHEM_MOLECULAR_WEIGHT>
428.5

> <PUBCHEM_OPENEYE_CAN_SMILES>
COC1=CC=CC=C1N2CCN(CC2)CCCC3=CN(N=N3)C4=CC=CC5=C4C=CN=C5

> <PUBCHEM_OPENEYE_ISO_SMILES>
COC1=CC=CC=C1N2CCN(CC2)CCCC3=CN(N=N3)C4=CC=CC5=C4C=CN=C5

> <PUBCHEM_CACTVS_TPSA>
59.3

> <PUBCHEM_MONOISOTOPIC_WEIGHT>
428.23245954

> <PUBCHEM_TOTAL_CHARGE>
0

> <PUBCHEM_HEAVY_ATOM_COUNT>
32

> <PUBCHEM_ATOM_DEF_STEREO_COUNT>
0

> <PUBCHEM_ATOM_UDEF_STEREO_COUNT>
0

> <PUBCHEM_BOND_DEF_STEREO_COUNT>
0

> <PUBCHEM_BOND_UDEF_STEREO_COUNT>
0

> <PUBCHEM_ISOTOPIC_ATOM_COUNT>
0

> <PUBCHEM_COMPONENT_COUNT>
1

> <PUBCHEM_CACTVS_TAUTO_COUNT>
-1

> <PUBCHEM_COORDINATE_TYPE>
1
5
255

> <PUBCHEM_BONDANNOTATIONS>
14  16  8
14  17  8
16  19  8
17  20  8
18  21  8
19  22  8
20  22  8
23  24  8
23  26  8
24  27  8
24  30  8
26  28  8
27  29  8
27  31  8
28  29  8
30  32  8
4  21  8
4  6  8
5  18  8
5  6  8
7  31  8
7  32  8

$$$$
