13805900
  -OEChem-09292322112D

 46 47  0     1  0  0  0  0  0999 V2000
    8.0785   -2.6092    0.0000 O   0  0  0  0  0  0  0  0  0  0  0  0
    4.5981    0.4254    0.0000 N   0  0  0  0  0  0  0  0  0  0  0  0
    5.4641   -0.0746    0.0000 C   0  0  1  0  0  0  0  0  0  0  0  0
    5.4641   -1.0746    0.0000 C   0  0  1  0  0  0  0  0  0  0  0  0
    6.3301    0.4254    0.0000 C   0  0  0  0  0  0  0  0  0  0  0  0
    6.3301   -1.5746    0.0000 C   0  0  0  0  0  0  0  0  0  0  0  0
    7.1962   -0.0746    0.0000 C   0  0  0  0  0  0  0  0  0  0  0  0
    7.1962   -1.0746    0.0000 C   0  0  0  0  0  0  0  0  0  0  0  0
    4.5981   -1.5746    0.0000 C   0  0  0  0  0  0  0  0  0  0  0  0
    4.5981    1.4254    0.0000 C   0  0  0  0  0  0  0  0  0  0  0  0
    3.7320   -0.0746    0.0000 C   0  0  0  0  0  0  0  0  0  0  0  0
    8.0901   -1.6093    0.0000 C   0  0  0  0  0  0  0  0  0  0  0  0
    8.0901    0.4601    0.0000 C   0  0  0  0  0  0  0  0  0  0  0  0
    3.7320    1.9254    0.0000 C   0  0  0  0  0  0  0  0  0  0  0  0
    2.8660    0.4254    0.0000 C   0  0  0  0  0  0  0  0  0  0  0  0
    8.9962   -1.0954    0.0000 C   0  0  0  0  0  0  0  0  0  0  0  0
    8.9962   -0.0538    0.0000 C   0  0  0  0  0  0  0  0  0  0  0  0
    3.7320    2.9254    0.0000 C   0  0  0  0  0  0  0  0  0  0  0  0
    2.0000   -0.0746    0.0000 C   0  0  0  0  0  0  0  0  0  0  0  0
    5.4641    0.5454    0.0000 H   0  0  0  0  0  0  0  0  0  0  0  0
    5.4641   -1.6946    0.0000 H   0  0  0  0  0  0  0  0  0  0  0  0
    6.7287    0.9003    0.0000 H   0  0  0  0  0  0  0  0  0  0  0  0
    5.9316    0.9003    0.0000 H   0  0  0  0  0  0  0  0  0  0  0  0
    5.9316   -2.0496    0.0000 H   0  0  0  0  0  0  0  0  0  0  0  0
    6.7287   -2.0496    0.0000 H   0  0  0  0  0  0  0  0  0  0  0  0
    4.2881   -1.0377    0.0000 H   0  0  0  0  0  0  0  0  0  0  0  0
    4.0611   -1.8846    0.0000 H   0  0  0  0  0  0  0  0  0  0  0  0
    4.9081   -2.1115    0.0000 H   0  0  0  0  0  0  0  0  0  0  0  0
    5.2087    1.3177    0.0000 H   0  0  0  0  0  0  0  0  0  0  0  0
    4.8101    2.0080    0.0000 H   0  0  0  0  0  0  0  0  0  0  0  0
    3.3335   -0.5496    0.0000 H   0  0  0  0  0  0  0  0  0  0  0  0
    4.1306   -0.5496    0.0000 H   0  0  0  0  0  0  0  0  0  0  0  0
    8.0829    1.0800    0.0000 H   0  0  0  0  0  0  0  0  0  0  0  0
    3.1215    2.0330    0.0000 H   0  0  0  0  0  0  0  0  0  0  0  0
    3.5200    1.3428    0.0000 H   0  0  0  0  0  0  0  0  0  0  0  0
    3.2646    0.9003    0.0000 H   0  0  0  0  0  0  0  0  0  0  0  0
    2.4675    0.9003    0.0000 H   0  0  0  0  0  0  0  0  0  0  0  0
    9.5319   -1.4075    0.0000 H   0  0  0  0  0  0  0  0  0  0  0  0
    9.5319    0.2583    0.0000 H   0  0  0  0  0  0  0  0  0  0  0  0
    4.3520    2.9254    0.0000 H   0  0  0  0  0  0  0  0  0  0  0  0
    3.7320    3.5454    0.0000 H   0  0  0  0  0  0  0  0  0  0  0  0
    3.1120    2.9254    0.0000 H   0  0  0  0  0  0  0  0  0  0  0  0
    1.6900    0.4623    0.0000 H   0  0  0  0  0  0  0  0  0  0  0  0
    1.4631   -0.3846    0.0000 H   0  0  0  0  0  0  0  0  0  0  0  0
    2.3100   -0.6115    0.0000 H   0  0  0  0  0  0  0  0  0  0  0  0
    8.6118   -2.9254    0.0000 H   0  0  0  0  0  0  0  0  0  0  0  0
  1 12  1  0  0  0  0
  1 46  1  0  0  0  0
  3  2  1  6  0  0  0
  2 10  1  0  0  0  0
  2 11  1  0  0  0  0
  3  4  1  0  0  0  0
  3  5  1  0  0  0  0
  3 20  1  0  0  0  0
  4  6  1  0  0  0  0
  4  9  1  1  0  0  0
  4 21  1  0  0  0  0
  5  7  1  0  0  0  0
  5 22  1  0  0  0  0
  5 23  1  0  0  0  0
  6  8  1  0  0  0  0
  6 24  1  0  0  0  0
  6 25  1  0  0  0  0
  7  8  2  0  0  0  0
  7 13  1  0  0  0  0
  8 12  1  0  0  0  0
  9 26  1  0  0  0  0
  9 27  1  0  0  0  0
  9 28  1  0  0  0  0
 10 14  1  0  0  0  0
 10 29  1  0  0  0  0
 10 30  1  0  0  0  0
 11 15  1  0  0  0  0
 11 31  1  0  0  0  0
 11 32  1  0  0  0  0
 12 16  2  0  0  0  0
 13 17  2  0  0  0  0
 13 33  1  0  0  0  0
 14 18  1  0  0  0  0
 14 34  1  0  0  0  0
 14 35  1  0  0  0  0
 15 19  1  0  0  0  0
 15 36  1  0  0  0  0
 15 37  1  0  0  0  0
 16 17  1  0  0  0  0
 16 38  1  0  0  0  0
 17 39  1  0  0  0  0
 18 40  1  0  0  0  0
 18 41  1  0  0  0  0
 18 42  1  0  0  0  0
 19 43  1  0  0  0  0
 19 44  1  0  0  0  0
 19 45  1  0  0  0  0
M  END
> <PUBCHEM_COMPOUND_CID>
13805900

> <PUBCHEM_COMPOUND_CANONICALIZED>
1

> <PUBCHEM_CACTVS_COMPLEXITY>
262

> <PUBCHEM_CACTVS_HBOND_ACCEPTOR>
2

> <PUBCHEM_CACTVS_HBOND_DONOR>
1

> <PUBCHEM_CACTVS_ROTATABLE_BOND>
5

> <PUBCHEM_CACTVS_SUBSKEYS>
AAADceB6IAAAAAAAAAAAAAAAAAAAAAAAAAAwYAAAAAAAAADBAAAAHgAACAAADSzBmAQyBoMAAgCAAiBCAAACAAAgIAAIiAAOCIgIJiKCkROEcAAkwBGImAeQ0PMOgAABAAAYAACQAAaAADQAAAAAAAAAAA==

> <PUBCHEM_IUPAC_OPENEYE_NAME>
(2R,3R)-2-(dipropylamino)-3-methyl-tetralin-5-ol

> <PUBCHEM_IUPAC_CAS_NAME>
(6R,7R)-6-(dipropylamino)-7-methyl-5,6,7,8-tetrahydronaphthalen-1-ol

> <PUBCHEM_IUPAC_NAME_MARKUP>
(6<I>R</I>,7<I>R</I>)-6-(dipropylamino)-7-methyl-5,6,7,8-tetrahydronaphthalen-1-ol

> <PUBCHEM_IUPAC_NAME>
(6R,7R)-6-(dipropylamino)-7-methyl-5,6,7,8-tetrahydronaphthalen-1-ol

> <PUBCHEM_IUPAC_SYSTEMATIC_NAME>
(6R,7R)-6-(dipropylamino)-7-methyl-5,6,7,8-tetrahydronaphthalen-1-ol

> <PUBCHEM_IUPAC_TRADITIONAL_NAME>
(2R,3R)-2-(dipropylamino)-3-methyl-tetralin-5-ol

> <PUBCHEM_IUPAC_INCHI>
InChI=1S/C17H27NO/c1-4-9-18(10-5-2)16-12-14-7-6-8-17(19)15(14)11-13(16)3/h6-8,13,16,19H,4-5,9-12H2,1-3H3/t13-,16-/m1/s1

> <PUBCHEM_IUPAC_INCHIKEY>
RGZPLWVASVRKAR-CZUORRHYSA-N

> <PUBCHEM_XLOGP3_AA>
4.5

> <PUBCHEM_EXACT_MASS>
261.209264485

> <PUBCHEM_MOLECULAR_FORMULA>
C17H27NO

> <PUBCHEM_MOLECULAR_WEIGHT>
261.4

> <PUBCHEM_OPENEYE_CAN_SMILES>
CCCN(CCC)C1CC2=C(CC1C)C(=CC=C2)O

> <PUBCHEM_OPENEYE_ISO_SMILES>
CCCN(CCC)[C@@H]1CC2=C(C[C@H]1C)C(=CC=C2)O

> <PUBCHEM_CACTVS_TPSA>
23.5

> <PUBCHEM_MONOISOTOPIC_WEIGHT>
261.209264485

> <PUBCHEM_TOTAL_CHARGE>
0

> <PUBCHEM_HEAVY_ATOM_COUNT>
19

> <PUBCHEM_ATOM_DEF_STEREO_COUNT>
2

> <PUBCHEM_ATOM_UDEF_STEREO_COUNT>
0

> <PUBCHEM_BOND_DEF_STEREO_COUNT>
0

> <PUBCHEM_BOND_UDEF_STEREO_COUNT>
0

> <PUBCHEM_ISOTOPIC_ATOM_COUNT>
0

> <PUBCHEM_COMPONENT_COUNT>
1

> <PUBCHEM_CACTVS_TAUTO_COUNT>
-1

> <PUBCHEM_COORDINATE_TYPE>
1
5
255

> <PUBCHEM_BONDANNOTATIONS>
12  16  8
13  17  8
16  17  8
3  2  6
4  9  5
7  13  8
7  8  8
8  12  8

$$$$
