20347738
  -OEChem-09292322142D

 41 42  0     1  0  0  0  0  0999 V2000
    3.0064    0.0000    0.0000 Br  0  0  0  0  0  0  0  0  0  0  0  0
    4.6930    2.5226    0.0000 Cl  0  0  0  0  0  0  0  0  0  0  0  0
    6.4747    5.5814    0.0000 O   0  0  0  0  0  0  0  0  0  0  0  0
    6.4747    3.5331    0.0000 O   0  0  0  0  0  0  0  0  0  0  0  0
    1.6200    4.5572    0.0000 N   0  0  3  0  0  0  0  0  0  0  0  0
    3.0288    5.6807    0.0000 C   0  0  3  0  0  0  0  0  0  0  0  0
    2.0539    5.4582    0.0000 C   0  0  0  0  0  0  0  0  0  0  0  0
    3.8106    5.0572    0.0000 C   0  0  0  0  0  0  0  0  0  0  0  0
    2.0539    3.6562    0.0000 C   0  0  0  0  0  0  0  0  0  0  0  0
    3.0288    3.4337    0.0000 C   0  0  0  0  0  0  0  0  0  0  0  0
    3.8106    4.0572    0.0000 C   0  0  0  0  0  0  0  0  0  0  0  0
    3.2513    6.6556    0.0000 C   0  0  0  0  0  0  0  0  0  0  0  0
    4.7046    5.5919    0.0000 C   0  0  0  0  0  0  0  0  0  0  0  0
    4.7046    3.5226    0.0000 C   0  0  0  0  0  0  0  0  0  0  0  0
    0.6200    4.5572    0.0000 C   0  0  0  0  0  0  0  0  0  0  0  0
    5.6106    5.0780    0.0000 C   0  0  0  0  0  0  0  0  0  0  0  0
    2.5183    7.3358    0.0000 C   0  0  0  0  0  0  0  0  0  0  0  0
    4.2069    6.9504    0.0000 C   0  0  0  0  0  0  0  0  0  0  0  0
    5.6106    4.0364    0.0000 C   0  0  0  0  0  0  0  0  0  0  0  0
    2.7408    8.3107    0.0000 C   0  0  0  0  0  0  0  0  0  0  0  0
    4.4294    7.9253    0.0000 C   0  0  0  0  0  0  0  0  0  0  0  0
    3.6964    8.6055    0.0000 C   0  0  0  0  0  0  0  0  0  0  0  0
    2.5904    6.1191    0.0000 H   0  0  0  0  0  0  0  0  0  0  0  0
    2.0539    6.0782    0.0000 H   0  0  0  0  0  0  0  0  0  0  0  0
    1.4494    5.5962    0.0000 H   0  0  0  0  0  0  0  0  0  0  0  0
    1.4494    3.5183    0.0000 H   0  0  0  0  0  0  0  0  0  0  0  0
    2.0539    3.0362    0.0000 H   0  0  0  0  0  0  0  0  0  0  0  0
    2.7598    2.8751    0.0000 H   0  0  0  0  0  0  0  0  0  0  0  0
    3.5136    3.0472    0.0000 H   0  0  0  0  0  0  0  0  0  0  0  0
    4.6974    6.2118    0.0000 H   0  0  0  0  0  0  0  0  0  0  0  0
    0.6200    5.1772    0.0000 H   0  0  0  0  0  0  0  0  0  0  0  0
    0.0000    4.5572    0.0000 H   0  0  0  0  0  0  0  0  0  0  0  0
    0.6200    3.9372    0.0000 H   0  0  0  0  0  0  0  0  0  0  0  0
    1.9258    7.1531    0.0000 H   0  0  0  0  0  0  0  0  0  0  0  0
    4.6614    6.5287    0.0000 H   0  0  0  0  0  0  0  0  0  0  0  0
    2.2863    8.7324    0.0000 H   0  0  0  0  0  0  0  0  0  0  0  0
    5.0219    8.1081    0.0000 H   0  0  0  0  0  0  0  0  0  0  0  0
    3.8343    9.2099    0.0000 H   0  0  0  0  0  0  0  0  0  0  0  0
    6.4723    6.2014    0.0000 H   0  0  0  0  0  0  0  0  0  0  0  0
    7.0129    3.8410    0.0000 H   0  0  0  0  0  0  0  0  0  0  0  0
    4.0064    0.0000    0.0000 H   0  0  0  0  0  0  0  0  0  0  0  0
  1 41  1  0  0  0  0
  2 14  1  0  0  0  0
  3 16  1  0  0  0  0
  3 39  1  0  0  0  0
  4 19  1  0  0  0  0
  4 40  1  0  0  0  0
  5  7  1  0  0  0  0
  5  9  1  0  0  0  0
  5 15  1  0  0  0  0
  6  7  1  0  0  0  0
  6  8  1  0  0  0  0
  6 12  1  0  0  0  0
  6 23  1  0  0  0  0
  7 24  1  0  0  0  0
  7 25  1  0  0  0  0
  8 11  1  0  0  0  0
  8 13  2  0  0  0  0
  9 10  1  0  0  0  0
  9 26  1  0  0  0  0
  9 27  1  0  0  0  0
 10 11  1  0  0  0  0
 10 28  1  0  0  0  0
 10 29  1  0  0  0  0
 11 14  2  0  0  0  0
 12 17  2  0  0  0  0
 12 18  1  0  0  0  0
 13 16  1  0  0  0  0
 13 30  1  0  0  0  0
 14 19  1  0  0  0  0
 15 31  1  0  0  0  0
 15 32  1  0  0  0  0
 15 33  1  0  0  0  0
 16 19  2  0  0  0  0
 17 20  1  0  0  0  0
 17 34  1  0  0  0  0
 18 21  2  0  0  0  0
 18 35  1  0  0  0  0
 20 22  2  0  0  0  0
 20 36  1  0  0  0  0
 21 22  1  0  0  0  0
 21 37  1  0  0  0  0
 22 38  1  0  0  0  0
M  END
> <PUBCHEM_COMPOUND_CID>
20347738

> <PUBCHEM_COMPOUND_CANONICALIZED>
1

> <PUBCHEM_CACTVS_COMPLEXITY>
348

> <PUBCHEM_CACTVS_HBOND_ACCEPTOR>
3

> <PUBCHEM_CACTVS_HBOND_DONOR>
3

> <PUBCHEM_CACTVS_ROTATABLE_BOND>
1

> <PUBCHEM_CACTVS_SUBSKEYS>
AAADceB6MAAEEAAAAAAAAAAAAAAAAAAAAAAwYAAABYAAAAABQAAAHgIACAAADQbBmCQyBoMAAgCAAiBCAAACAAAgJEAIiAAOi4gJJiKDkxOEcAEkwBGJmAeQ0PIOoAABIQARSABAAAJCACKQAAAAAAAAAA==

> <PUBCHEM_IUPAC_OPENEYE_NAME>
9-chloro-3-methyl-5-phenyl-1,2,4,5-tetrahydro-3-benzazepine-7,8-diol;hydrobromide

> <PUBCHEM_IUPAC_CAS_NAME>
9-chloro-3-methyl-5-phenyl-1,2,4,5-tetrahydro-3-benzazepine-7,8-diol;hydrobromide

> <PUBCHEM_IUPAC_NAME_MARKUP>
9-chloro-3-methyl-5-phenyl-1,2,4,5-tetrahydro-3-benzazepine-7,8-diol;hydrobromide

> <PUBCHEM_IUPAC_NAME>
9-chloro-3-methyl-5-phenyl-1,2,4,5-tetrahydro-3-benzazepine-7,8-diol;hydrobromide

> <PUBCHEM_IUPAC_SYSTEMATIC_NAME>
9-chloranyl-3-methyl-5-phenyl-1,2,4,5-tetrahydro-3-benzazepine-7,8-diol;hydrobromide

> <PUBCHEM_IUPAC_TRADITIONAL_NAME>
9-chloro-3-methyl-5-phenyl-1,2,4,5-tetrahydro-3-benzazepine-7,8-diol;hydrobromide

> <PUBCHEM_IUPAC_INCHI>
InChI=1S/C17H18ClNO2.BrH/c1-19-8-7-12-13(9-15(20)17(21)16(12)18)14(10-19)11-5-3-2-4-6-11;/h2-6,9,14,20-21H,7-8,10H2,1H3;1H

> <PUBCHEM_IUPAC_INCHIKEY>
BCZHWHQKKPEORG-UHFFFAOYSA-N

> <PUBCHEM_EXACT_MASS>
383.02877

> <PUBCHEM_MOLECULAR_FORMULA>
C17H19BrClNO2

> <PUBCHEM_MOLECULAR_WEIGHT>
384.7

> <PUBCHEM_OPENEYE_CAN_SMILES>
CN1CCC2=C(C(=C(C=C2C(C1)C3=CC=CC=C3)O)O)Cl.Br

> <PUBCHEM_OPENEYE_ISO_SMILES>
CN1CCC2=C(C(=C(C=C2C(C1)C3=CC=CC=C3)O)O)Cl.Br

> <PUBCHEM_CACTVS_TPSA>
43.7

> <PUBCHEM_MONOISOTOPIC_WEIGHT>
383.02877

> <PUBCHEM_TOTAL_CHARGE>
0

> <PUBCHEM_HEAVY_ATOM_COUNT>
22

> <PUBCHEM_ATOM_DEF_STEREO_COUNT>
0

> <PUBCHEM_ATOM_UDEF_STEREO_COUNT>
1

> <PUBCHEM_BOND_DEF_STEREO_COUNT>
0

> <PUBCHEM_BOND_UDEF_STEREO_COUNT>
0

> <PUBCHEM_ISOTOPIC_ATOM_COUNT>
0

> <PUBCHEM_COMPONENT_COUNT>
2

> <PUBCHEM_CACTVS_TAUTO_COUNT>
-1

> <PUBCHEM_COORDINATE_TYPE>
1
5
255

> <PUBCHEM_BONDANNOTATIONS>
11  14  8
12  17  8
12  18  8
13  16  8
14  19  8
16  19  8
17  20  8
18  21  8
20  22  8
21  22  8
6  12  3
8  11  8
8  13  8

$$$$
