44389003
  -OEChem-09292322522D

 42 45  0     0  0  0  0  0  0999 V2000
    3.6532   -3.0633    0.0000 Cl  0  0  0  0  0  0  0  0  0  0  0  0
    4.9889   -1.5747    0.0000 S   0  0  0  0  0  0  0  0  0  0  0  0
    5.9394   -1.2640    0.0000 O   0  0  0  0  0  0  0  0  0  0  0  0
    4.0384   -1.8853    0.0000 O   0  0  0  0  0  0  0  0  0  0  0  0
    4.6783   -0.6241    0.0000 N   0  0  0  0  0  0  0  0  0  0  0  0
    5.6103    3.8369    0.0000 N   0  0  0  0  0  0  0  0  0  0  0  0
    4.6783    0.9853    0.0000 C   0  0  0  0  0  0  0  0  0  0  0  0
    4.9889    1.9358    0.0000 C   0  0  0  0  0  0  0  0  0  0  0  0
    3.7320    0.6806    0.0000 C   0  0  0  0  0  0  0  0  0  0  0  0
    3.7320   -0.3194    0.0000 C   0  0  0  0  0  0  0  0  0  0  0  0
    4.3211    2.6801    0.0000 C   0  0  0  0  0  0  0  0  0  0  0  0
    5.2619    0.1806    0.0000 C   0  0  0  0  0  0  0  0  0  0  0  0
    4.6318    3.6307    0.0000 C   0  0  0  0  0  0  0  0  0  0  0  0
    5.9674    2.1421    0.0000 C   0  0  0  0  0  0  0  0  0  0  0  0
    6.2781    3.0926    0.0000 C   0  0  0  0  0  0  0  0  0  0  0  0
    2.8660    1.1806    0.0000 C   0  0  0  0  0  0  0  0  0  0  0  0
    2.8660   -0.8194    0.0000 C   0  0  0  0  0  0  0  0  0  0  0  0
    5.2996   -2.5252    0.0000 C   0  0  0  0  0  0  0  0  0  0  0  0
    2.0000    0.6806    0.0000 C   0  0  0  0  0  0  0  0  0  0  0  0
    2.0000   -0.3194    0.0000 C   0  0  0  0  0  0  0  0  0  0  0  0
    4.6318   -3.2695    0.0000 C   0  0  0  0  0  0  0  0  0  0  0  0
    6.2781   -2.7314    0.0000 C   0  0  0  0  0  0  0  0  0  0  0  0
    4.9424   -4.2200    0.0000 C   0  0  0  0  0  0  0  0  0  0  0  0
    6.5888   -3.6819    0.0000 C   0  0  0  0  0  0  0  0  0  0  0  0
    5.9209   -4.4262    0.0000 C   0  0  0  0  0  0  0  0  0  0  0  0
    3.7742    2.9722    0.0000 H   0  0  0  0  0  0  0  0  0  0  0  0
    3.9385    2.1922    0.0000 H   0  0  0  0  0  0  0  0  0  0  0  0
    5.8819    0.1806    0.0000 H   0  0  0  0  0  0  0  0  0  0  0  0
    4.6112    4.2503    0.0000 H   0  0  0  0  0  0  0  0  0  0  0  0
    4.0179    3.7180    0.0000 H   0  0  0  0  0  0  0  0  0  0  0  0
    6.3815    1.6806    0.0000 H   0  0  0  0  0  0  0  0  0  0  0  0
    6.8250    2.8006    0.0000 H   0  0  0  0  0  0  0  0  0  0  0  0
    6.6607    3.5805    0.0000 H   0  0  0  0  0  0  0  0  0  0  0  0
    5.8029    4.4262    0.0000 H   0  0  0  0  0  0  0  0  0  0  0  0
    2.8660    1.8006    0.0000 H   0  0  0  0  0  0  0  0  0  0  0  0
    2.8660   -1.4394    0.0000 H   0  0  0  0  0  0  0  0  0  0  0  0
    1.4631    0.9906    0.0000 H   0  0  0  0  0  0  0  0  0  0  0  0
    1.4631   -0.6294    0.0000 H   0  0  0  0  0  0  0  0  0  0  0  0
    6.6922   -2.2699    0.0000 H   0  0  0  0  0  0  0  0  0  0  0  0
    4.5284   -4.6815    0.0000 H   0  0  0  0  0  0  0  0  0  0  0  0
    7.1954   -3.8098    0.0000 H   0  0  0  0  0  0  0  0  0  0  0  0
    6.1135   -5.0155    0.0000 H   0  0  0  0  0  0  0  0  0  0  0  0
  1 21  1  0  0  0  0
  2  3  2  0  0  0  0
  2  4  2  0  0  0  0
  2  5  1  0  0  0  0
  2 18  1  0  0  0  0
  5 10  1  0  0  0  0
  5 12  1  0  0  0  0
  6 13  1  0  0  0  0
  6 15  1  0  0  0  0
  6 34  1  0  0  0  0
  7  8  1  0  0  0  0
  7  9  1  0  0  0  0
  7 12  2  0  0  0  0
  8 11  1  0  0  0  0
  8 14  2  0  0  0  0
  9 10  1  0  0  0  0
  9 16  2  0  0  0  0
 10 17  2  0  0  0  0
 11 13  1  0  0  0  0
 11 26  1  0  0  0  0
 11 27  1  0  0  0  0
 12 28  1  0  0  0  0
 13 29  1  0  0  0  0
 13 30  1  0  0  0  0
 14 15  1  0  0  0  0
 14 31  1  0  0  0  0
 15 32  1  0  0  0  0
 15 33  1  0  0  0  0
 16 19  1  0  0  0  0
 16 35  1  0  0  0  0
 17 20  1  0  0  0  0
 17 36  1  0  0  0  0
 18 21  1  0  0  0  0
 18 22  2  0  0  0  0
 19 20  2  0  0  0  0
 19 37  1  0  0  0  0
 20 38  1  0  0  0  0
 21 23  2  0  0  0  0
 22 24  1  0  0  0  0
 22 39  1  0  0  0  0
 23 25  1  0  0  0  0
 23 40  1  0  0  0  0
 24 25  2  0  0  0  0
 24 41  1  0  0  0  0
 25 42  1  0  0  0  0
M  END
> <PUBCHEM_COMPOUND_CID>
44389003

> <PUBCHEM_COMPOUND_CANONICALIZED>
1

> <PUBCHEM_CACTVS_COMPLEXITY>
615

> <PUBCHEM_CACTVS_HBOND_ACCEPTOR>
3

> <PUBCHEM_CACTVS_HBOND_DONOR>
1

> <PUBCHEM_CACTVS_ROTATABLE_BOND>
3

> <PUBCHEM_CACTVS_SUBSKEYS>
AAADceB7MABEAAAAAAAAAAAAAAAAAWAAAAAwYIAAAAAAAFgB9AAAHAYQQAAADArBXiQ8wfLIEAKgAzRnRHDCgDAxByAI2Lg4ZpgIIOLBk5GEIAhgkADIyAcQgMAOgAAAAAACAIAAAAAAAAQBAAAAAAAAAA==

> <PUBCHEM_IUPAC_OPENEYE_NAME>
1-(2-chlorophenyl)sulfonyl-3-(1,2,3,6-tetrahydropyridin-4-yl)indole

> <PUBCHEM_IUPAC_CAS_NAME>
1-(2-chlorophenyl)sulfonyl-3-(1,2,3,6-tetrahydropyridin-4-yl)indole

> <PUBCHEM_IUPAC_NAME_MARKUP>
1-(2-chlorophenyl)sulfonyl-3-(1,2,3,6-tetrahydropyridin-4-yl)indole

> <PUBCHEM_IUPAC_NAME>
1-(2-chlorophenyl)sulfonyl-3-(1,2,3,6-tetrahydropyridin-4-yl)indole

> <PUBCHEM_IUPAC_SYSTEMATIC_NAME>
1-(2-chlorophenyl)sulfonyl-3-(1,2,3,6-tetrahydropyridin-4-yl)indole

> <PUBCHEM_IUPAC_TRADITIONAL_NAME>
1-(2-chlorophenyl)sulfonyl-3-(1,2,3,6-tetrahydropyridin-4-yl)indole

> <PUBCHEM_IUPAC_INCHI>
InChI=1S/C19H17ClN2O2S/c20-17-6-2-4-8-19(17)25(23,24)22-13-16(14-9-11-21-12-10-14)15-5-1-3-7-18(15)22/h1-9,13,21H,10-12H2

> <PUBCHEM_IUPAC_INCHIKEY>
WJCGMHIIDQGXLP-UHFFFAOYSA-N

> <PUBCHEM_XLOGP3_AA>
3.6

> <PUBCHEM_EXACT_MASS>
372.0699267

> <PUBCHEM_MOLECULAR_FORMULA>
C19H17ClN2O2S

> <PUBCHEM_MOLECULAR_WEIGHT>
372.9

> <PUBCHEM_OPENEYE_CAN_SMILES>
C1CNCC=C1C2=CN(C3=CC=CC=C32)S(=O)(=O)C4=CC=CC=C4Cl

> <PUBCHEM_OPENEYE_ISO_SMILES>
C1CNCC=C1C2=CN(C3=CC=CC=C32)S(=O)(=O)C4=CC=CC=C4Cl

> <PUBCHEM_CACTVS_TPSA>
59.5

> <PUBCHEM_MONOISOTOPIC_WEIGHT>
372.0699267

> <PUBCHEM_TOTAL_CHARGE>
0

> <PUBCHEM_HEAVY_ATOM_COUNT>
25

> <PUBCHEM_ATOM_DEF_STEREO_COUNT>
0

> <PUBCHEM_ATOM_UDEF_STEREO_COUNT>
0

> <PUBCHEM_BOND_DEF_STEREO_COUNT>
0

> <PUBCHEM_BOND_UDEF_STEREO_COUNT>
0

> <PUBCHEM_ISOTOPIC_ATOM_COUNT>
0

> <PUBCHEM_COMPONENT_COUNT>
1

> <PUBCHEM_CACTVS_TAUTO_COUNT>
-1

> <PUBCHEM_COORDINATE_TYPE>
1
5
255

> <PUBCHEM_BONDANNOTATIONS>
10  17  8
16  19  8
17  20  8
18  21  8
18  22  8
19  20  8
21  23  8
22  24  8
23  25  8
24  25  8
5  10  8
5  12  8
7  12  8
7  9  8
9  10  8
9  16  8

$$$$
