127031404
  -OEChem-09292322372D

 47 49  0     1  0  0  0  0  0999 V2000
    2.0000    1.2671    0.0000 O   0  0  0  0  0  0  0  0  0  0  0  0
    2.0000   -0.7329    0.0000 O   0  0  0  0  0  0  0  0  0  0  0  0
    8.9904   -1.7637    0.0000 O   0  0  0  0  0  0  0  0  0  0  0  0
   10.7263   -0.7704    0.0000 O   0  0  0  0  0  0  0  0  0  0  0  0
    6.3981   -0.2537    0.0000 N   0  0  3  0  0  0  0  0  0  0  0  0
    5.4920   -0.7676    0.0000 C   0  0  3  0  0  0  0  0  0  0  0  0
    6.3981    0.7879    0.0000 C   0  0  0  0  0  0  0  0  0  0  0  0
    4.5981   -0.2329    0.0000 C   0  0  0  0  0  0  0  0  0  0  0  0
    5.4920    1.3017    0.0000 C   0  0  0  0  0  0  0  0  0  0  0  0
    4.5981    0.7671    0.0000 C   0  0  0  0  0  0  0  0  0  0  0  0
    7.2622   -0.7571    0.0000 C   0  0  0  0  0  0  0  0  0  0  0  0
    5.4804   -1.7675    0.0000 C   0  0  0  0  0  0  0  0  0  0  0  0
    3.7320   -0.7329    0.0000 C   0  0  0  0  0  0  0  0  0  0  0  0
    3.7320    1.2671    0.0000 C   0  0  0  0  0  0  0  0  0  0  0  0
    8.1301   -0.2604    0.0000 C   0  0  0  0  0  0  0  0  0  0  0  0
    2.8660   -0.2329    0.0000 C   0  0  0  0  0  0  0  0  0  0  0  0
    2.8660    0.7671    0.0000 C   0  0  0  0  0  0  0  0  0  0  0  0
    8.9942   -0.7638    0.0000 C   0  0  0  0  0  0  0  0  0  0  0  0
    8.1340    0.7396    0.0000 C   0  0  0  0  0  0  0  0  0  0  0  0
    9.8622   -0.2671    0.0000 C   0  0  0  0  0  0  0  0  0  0  0  0
    9.0019    1.2362    0.0000 C   0  0  0  0  0  0  0  0  0  0  0  0
    9.8660    0.7329    0.0000 C   0  0  0  0  0  0  0  0  0  0  0  0
    2.0000    2.2671    0.0000 C   0  0  0  0  0  0  0  0  0  0  0  0
    9.8544   -2.2671    0.0000 C   0  0  0  0  0  0  0  0  0  0  0  0
    6.0259   -1.0827    0.0000 H   0  0  0  0  0  0  0  0  0  0  0  0
    7.0089    0.6818    0.0000 H   0  0  0  0  0  0  0  0  0  0  0  0
    6.6071    1.3716    0.0000 H   0  0  0  0  0  0  0  0  0  0  0  0
    5.8856    1.7808    0.0000 H   0  0  0  0  0  0  0  0  0  0  0  0
    5.0874    1.7715    0.0000 H   0  0  0  0  0  0  0  0  0  0  0  0
    6.8618   -1.2305    0.0000 H   0  0  0  0  0  0  0  0  0  0  0  0
    7.6589   -1.2336    0.0000 H   0  0  0  0  0  0  0  0  0  0  0  0
    4.8605   -1.7604    0.0000 H   0  0  0  0  0  0  0  0  0  0  0  0
    5.4733   -2.3875    0.0000 H   0  0  0  0  0  0  0  0  0  0  0  0
    6.1004   -1.7747    0.0000 H   0  0  0  0  0  0  0  0  0  0  0  0
    3.7320   -1.3529    0.0000 H   0  0  0  0  0  0  0  0  0  0  0  0
    3.7320    1.8871    0.0000 H   0  0  0  0  0  0  0  0  0  0  0  0
    7.5982    1.0516    0.0000 H   0  0  0  0  0  0  0  0  0  0  0  0
    9.0043    1.8562    0.0000 H   0  0  0  0  0  0  0  0  0  0  0  0
    2.0000   -1.3529    0.0000 H   0  0  0  0  0  0  0  0  0  0  0  0
   10.4041    1.0408    0.0000 H   0  0  0  0  0  0  0  0  0  0  0  0
    2.6200    2.2671    0.0000 H   0  0  0  0  0  0  0  0  0  0  0  0
    2.0000    2.8871    0.0000 H   0  0  0  0  0  0  0  0  0  0  0  0
    1.3800    2.2671    0.0000 H   0  0  0  0  0  0  0  0  0  0  0  0
    9.5424   -2.8028    0.0000 H   0  0  0  0  0  0  0  0  0  0  0  0
   10.3902   -2.5791    0.0000 H   0  0  0  0  0  0  0  0  0  0  0  0
   10.1665   -1.7313    0.0000 H   0  0  0  0  0  0  0  0  0  0  0  0
   11.2644   -0.4625    0.0000 H   0  0  0  0  0  0  0  0  0  0  0  0
  1 17  1  0  0  0  0
  1 23  1  0  0  0  0
  2 16  1  0  0  0  0
  2 39  1  0  0  0  0
  3 18  1  0  0  0  0
  3 24  1  0  0  0  0
  4 20  1  0  0  0  0
  4 47  1  0  0  0  0
  5  6  1  0  0  0  0
  5  7  1  0  0  0  0
  5 11  1  0  0  0  0
  6  8  1  0  0  0  0
  6 12  1  0  0  0  0
  6 25  1  0  0  0  0
  7  9  1  0  0  0  0
  7 26  1  0  0  0  0
  7 27  1  0  0  0  0
  8 10  1  0  0  0  0
  8 13  2  0  0  0  0
  9 10  1  0  0  0  0
  9 28  1  0  0  0  0
  9 29  1  0  0  0  0
 10 14  2  0  0  0  0
 11 15  1  0  0  0  0
 11 30  1  0  0  0  0
 11 31  1  0  0  0  0
 12 32  1  0  0  0  0
 12 33  1  0  0  0  0
 12 34  1  0  0  0  0
 13 16  1  0  0  0  0
 13 35  1  0  0  0  0
 14 17  1  0  0  0  0
 14 36  1  0  0  0  0
 15 18  2  0  0  0  0
 15 19  1  0  0  0  0
 16 17  2  0  0  0  0
 18 20  1  0  0  0  0
 19 21  2  0  0  0  0
 19 37  1  0  0  0  0
 20 22  2  0  0  0  0
 21 22  1  0  0  0  0
 21 38  1  0  0  0  0
 22 40  1  0  0  0  0
 23 41  1  0  0  0  0
 23 42  1  0  0  0  0
 23 43  1  0  0  0  0
 24 44  1  0  0  0  0
 24 45  1  0  0  0  0
 24 46  1  0  0  0  0
M  END
> <PUBCHEM_COMPOUND_CID>
127031404

> <PUBCHEM_COMPOUND_CANONICALIZED>
1

> <PUBCHEM_CACTVS_COMPLEXITY>
407

> <PUBCHEM_CACTVS_HBOND_ACCEPTOR>
5

> <PUBCHEM_CACTVS_HBOND_DONOR>
2

> <PUBCHEM_CACTVS_ROTATABLE_BOND>
4

> <PUBCHEM_CACTVS_SUBSKEYS>
AAADceB6OAAAAAAAAAAAAAAAAAAAAAAAAAA8YIAAAAAAAACxQAAAHgAACAAADCzBmAYyBoMABgCAAiBCAACCCAAgIAAIiAAOjIgNJiKGsRuEcCtmwBGLuAew0LMOoAABAAAYQABAAAIAADCAAAAAAAAAAA==

> <PUBCHEM_IUPAC_OPENEYE_NAME>
2-[(3-hydroxy-2-methoxy-phenyl)methyl]-6-methoxy-1-methyl-3,4-dihydro-1H-isoquinolin-7-ol

> <PUBCHEM_IUPAC_CAS_NAME>
2-[(3-hydroxy-2-methoxyphenyl)methyl]-6-methoxy-1-methyl-3,4-dihydro-1H-isoquinolin-7-ol

> <PUBCHEM_IUPAC_NAME_MARKUP>
2-[(3-hydroxy-2-methoxyphenyl)methyl]-6-methoxy-1-methyl-3,4-dihydro-1<I>H</I>-isoquinolin-7-ol

> <PUBCHEM_IUPAC_NAME>
2-[(3-hydroxy-2-methoxyphenyl)methyl]-6-methoxy-1-methyl-3,4-dihydro-1H-isoquinolin-7-ol

> <PUBCHEM_IUPAC_SYSTEMATIC_NAME>
6-methoxy-2-[(2-methoxy-3-oxidanyl-phenyl)methyl]-1-methyl-3,4-dihydro-1H-isoquinolin-7-ol

> <PUBCHEM_IUPAC_TRADITIONAL_NAME>
2-(3-hydroxy-2-methoxy-benzyl)-6-methoxy-1-methyl-3,4-dihydro-1H-isoquinolin-7-ol

> <PUBCHEM_IUPAC_INCHI>
InChI=1S/C19H23NO4/c1-12-15-10-17(22)18(23-2)9-13(15)7-8-20(12)11-14-5-4-6-16(21)19(14)24-3/h4-6,9-10,12,21-22H,7-8,11H2,1-3H3

> <PUBCHEM_IUPAC_INCHIKEY>
YNWOXNVJEXAREA-UHFFFAOYSA-N

> <PUBCHEM_XLOGP3_AA>
2.9

> <PUBCHEM_EXACT_MASS>
329.16270821

> <PUBCHEM_MOLECULAR_FORMULA>
C19H23NO4

> <PUBCHEM_MOLECULAR_WEIGHT>
329.4

> <PUBCHEM_OPENEYE_CAN_SMILES>
CC1C2=CC(=C(C=C2CCN1CC3=C(C(=CC=C3)O)OC)OC)O

> <PUBCHEM_OPENEYE_ISO_SMILES>
CC1C2=CC(=C(C=C2CCN1CC3=C(C(=CC=C3)O)OC)OC)O

> <PUBCHEM_CACTVS_TPSA>
62.2

> <PUBCHEM_MONOISOTOPIC_WEIGHT>
329.16270821

> <PUBCHEM_TOTAL_CHARGE>
0

> <PUBCHEM_HEAVY_ATOM_COUNT>
24

> <PUBCHEM_ATOM_DEF_STEREO_COUNT>
0

> <PUBCHEM_ATOM_UDEF_STEREO_COUNT>
1

> <PUBCHEM_BOND_DEF_STEREO_COUNT>
0

> <PUBCHEM_BOND_UDEF_STEREO_COUNT>
0

> <PUBCHEM_ISOTOPIC_ATOM_COUNT>
0

> <PUBCHEM_COMPONENT_COUNT>
1

> <PUBCHEM_CACTVS_TAUTO_COUNT>
-1

> <PUBCHEM_COORDINATE_TYPE>
1
5
255

> <PUBCHEM_BONDANNOTATIONS>
10  14  8
13  16  8
14  17  8
15  18  8
15  19  8
16  17  8
18  20  8
19  21  8
20  22  8
21  22  8
6  12  3
8  10  8
8  13  8

$$$$
