44405452
  -OEChem-09292322492D

 48 51  0     1  0  0  0  0  0999 V2000
    2.0173    4.9024    0.0000 Cl  0  0  0  0  0  0  0  0  0  0  0  0
    3.1929    6.5204    0.0000 Cl  0  0  0  0  0  0  0  0  0  0  0  0
    3.6750   -5.5694    0.0000 S   0  0  0  0  0  0  0  0  0  0  0  0
    2.0000   -0.4816    0.0000 O   0  0  0  0  0  0  0  0  0  0  0  0
    4.2320    2.0572    0.0000 N   0  0  3  0  0  0  0  0  0  0  0  0
    3.7320   -0.4816    0.0000 N   0  0  0  0  0  0  0  0  0  0  0  0
    3.7320    0.5184    0.0000 C   0  0  1  0  0  0  0  0  0  0  0  0
    2.9230    1.1062    0.0000 C   0  0  0  0  0  0  0  0  0  0  0  0
    4.5411    1.1062    0.0000 C   0  0  0  0  0  0  0  0  0  0  0  0
    3.2320    2.0572    0.0000 C   0  0  0  0  0  0  0  0  0  0  0  0
    4.8198    2.8663    0.0000 C   0  0  0  0  0  0  0  0  0  0  0  0
    4.4131    3.7798    0.0000 C   0  0  0  0  0  0  0  0  0  0  0  0
    2.8660   -0.9816    0.0000 C   0  0  0  0  0  0  0  0  0  0  0  0
    3.4186    3.8843    0.0000 C   0  0  0  0  0  0  0  0  0  0  0  0
    5.0009    4.5888    0.0000 C   0  0  0  0  0  0  0  0  0  0  0  0
    2.8660   -1.9816    0.0000 C   0  0  0  0  0  0  0  0  0  0  0  0
    3.0118    4.7979    0.0000 C   0  0  0  0  0  0  0  0  0  0  0  0
    4.5942    5.5024    0.0000 C   0  0  0  0  0  0  0  0  0  0  0  0
    2.0000   -2.4816    0.0000 C   0  0  0  0  0  0  0  0  0  0  0  0
    3.7320   -2.4816    0.0000 C   0  0  0  0  0  0  0  0  0  0  0  0
    3.5996    5.6069    0.0000 C   0  0  0  0  0  0  0  0  0  0  0  0
    2.0000   -3.4816    0.0000 C   0  0  0  0  0  0  0  0  0  0  0  0
    3.7320   -3.4816    0.0000 C   0  0  0  0  0  0  0  0  0  0  0  0
    2.8660   -3.9816    0.0000 C   0  0  0  0  0  0  0  0  0  0  0  0
    2.8660   -4.9816    0.0000 C   0  0  0  0  0  0  0  0  0  0  0  0
    2.0570   -5.5694    0.0000 C   0  0  0  0  0  0  0  0  0  0  0  0
    2.3660   -6.5204    0.0000 C   0  0  0  0  0  0  0  0  0  0  0  0
    3.3660   -6.5204    0.0000 C   0  0  0  0  0  0  0  0  0  0  0  0
    4.2845    0.2369    0.0000 H   0  0  0  0  0  0  0  0  0  0  0  0
    2.3566    1.3584    0.0000 H   0  0  0  0  0  0  0  0  0  0  0  0
    2.6130    0.5692    0.0000 H   0  0  0  0  0  0  0  0  0  0  0  0
    4.8511    0.5692    0.0000 H   0  0  0  0  0  0  0  0  0  0  0  0
    5.1075    1.3584    0.0000 H   0  0  0  0  0  0  0  0  0  0  0  0
    3.2969    2.6738    0.0000 H   0  0  0  0  0  0  0  0  0  0  0  0
    2.6256    2.1862    0.0000 H   0  0  0  0  0  0  0  0  0  0  0  0
    5.2505    2.4203    0.0000 H   0  0  0  0  0  0  0  0  0  0  0  0
    5.3338    3.2130    0.0000 H   0  0  0  0  0  0  0  0  0  0  0  0
    4.2690   -0.7916    0.0000 H   0  0  0  0  0  0  0  0  0  0  0  0
    3.0542    3.3827    0.0000 H   0  0  0  0  0  0  0  0  0  0  0  0
    5.6175    4.5240    0.0000 H   0  0  0  0  0  0  0  0  0  0  0  0
    4.9586    6.0040    0.0000 H   0  0  0  0  0  0  0  0  0  0  0  0
    1.4631   -2.1716    0.0000 H   0  0  0  0  0  0  0  0  0  0  0  0
    4.2690   -2.1716    0.0000 H   0  0  0  0  0  0  0  0  0  0  0  0
    1.4631   -3.7916    0.0000 H   0  0  0  0  0  0  0  0  0  0  0  0
    4.2690   -3.7916    0.0000 H   0  0  0  0  0  0  0  0  0  0  0  0
    1.4674   -5.3778    0.0000 H   0  0  0  0  0  0  0  0  0  0  0  0
    2.0016   -7.0220    0.0000 H   0  0  0  0  0  0  0  0  0  0  0  0
    3.7304   -7.0220    0.0000 H   0  0  0  0  0  0  0  0  0  0  0  0
  1 17  1  0  0  0  0
  2 21  1  0  0  0  0
  3 25  1  0  0  0  0
  3 28  1  0  0  0  0
  4 13  2  0  0  0  0
  5  9  1  0  0  0  0
  5 10  1  0  0  0  0
  5 11  1  0  0  0  0
  7  6  1  1  0  0  0
  6 13  1  0  0  0  0
  6 38  1  0  0  0  0
  7  8  1  0  0  0  0
  7  9  1  0  0  0  0
  7 29  1  0  0  0  0
  8 10  1  0  0  0  0
  8 30  1  0  0  0  0
  8 31  1  0  0  0  0
  9 32  1  0  0  0  0
  9 33  1  0  0  0  0
 10 34  1  0  0  0  0
 10 35  1  0  0  0  0
 11 12  1  0  0  0  0
 11 36  1  0  0  0  0
 11 37  1  0  0  0  0
 12 14  2  0  0  0  0
 12 15  1  0  0  0  0
 13 16  1  0  0  0  0
 14 17  1  0  0  0  0
 14 39  1  0  0  0  0
 15 18  2  0  0  0  0
 15 40  1  0  0  0  0
 16 19  2  0  0  0  0
 16 20  1  0  0  0  0
 17 21  2  0  0  0  0
 18 21  1  0  0  0  0
 18 41  1  0  0  0  0
 19 22  1  0  0  0  0
 19 42  1  0  0  0  0
 20 23  2  0  0  0  0
 20 43  1  0  0  0  0
 22 24  2  0  0  0  0
 22 44  1  0  0  0  0
 23 24  1  0  0  0  0
 23 45  1  0  0  0  0
 24 25  1  0  0  0  0
 25 26  2  0  0  0  0
 26 27  1  0  0  0  0
 26 46  1  0  0  0  0
 27 28  2  0  0  0  0
 27 47  1  0  0  0  0
 28 48  1  0  0  0  0
M  END
> <PUBCHEM_COMPOUND_CID>
44405452

> <PUBCHEM_COMPOUND_CANONICALIZED>
1

> <PUBCHEM_CACTVS_COMPLEXITY>
529

> <PUBCHEM_CACTVS_HBOND_ACCEPTOR>
3

> <PUBCHEM_CACTVS_HBOND_DONOR>
1

> <PUBCHEM_CACTVS_ROTATABLE_BOND>
5

> <PUBCHEM_CACTVS_SUBSKEYS>
AAADceB7IABGAAAAAAAAAAAAAAAAAWJAAAAwYAAAAAAAAAAB0AAAHgYQAAAADCrF2CSwAYPAAAiMAiFSEACDAIAkDRBIitkIBsgIYDKh1xGUIQhglgCoiYcYiMCORAAAIAAAAASIAABAAAAACAAAAAAAAA==

> <PUBCHEM_IUPAC_OPENEYE_NAME>
N-[(3S)-1-[(3,4-dichlorophenyl)methyl]pyrrolidin-3-yl]-4-(2-thienyl)benzamide

> <PUBCHEM_IUPAC_CAS_NAME>
N-[(3S)-1-[(3,4-dichlorophenyl)methyl]-3-pyrrolidinyl]-4-thiophen-2-ylbenzamide

> <PUBCHEM_IUPAC_NAME_MARKUP>
<I>N</I>-[(3<I>S</I>)-1-[(3,4-dichlorophenyl)methyl]pyrrolidin-3-yl]-4-thiophen-2-ylbenzamide

> <PUBCHEM_IUPAC_NAME>
N-[(3S)-1-[(3,4-dichlorophenyl)methyl]pyrrolidin-3-yl]-4-thiophen-2-ylbenzamide

> <PUBCHEM_IUPAC_SYSTEMATIC_NAME>
N-[(3S)-1-[(3,4-dichlorophenyl)methyl]pyrrolidin-3-yl]-4-thiophen-2-yl-benzamide

> <PUBCHEM_IUPAC_TRADITIONAL_NAME>
N-[(3S)-1-(3,4-dichlorobenzyl)pyrrolidin-3-yl]-4-(2-thienyl)benzamide

> <PUBCHEM_IUPAC_INCHI>
InChI=1S/C22H20Cl2N2OS/c23-19-8-3-15(12-20(19)24)13-26-10-9-18(14-26)25-22(27)17-6-4-16(5-7-17)21-2-1-11-28-21/h1-8,11-12,18H,9-10,13-14H2,(H,25,27)/t18-/m0/s1

> <PUBCHEM_IUPAC_INCHIKEY>
OLTXDAOJPSBTJD-SFHVURJKSA-N

> <PUBCHEM_XLOGP3_AA>
5.5

> <PUBCHEM_EXACT_MASS>
430.0673398

> <PUBCHEM_MOLECULAR_FORMULA>
C22H20Cl2N2OS

> <PUBCHEM_MOLECULAR_WEIGHT>
431.4

> <PUBCHEM_OPENEYE_CAN_SMILES>
C1CN(CC1NC(=O)C2=CC=C(C=C2)C3=CC=CS3)CC4=CC(=C(C=C4)Cl)Cl

> <PUBCHEM_OPENEYE_ISO_SMILES>
C1CN(C[C@H]1NC(=O)C2=CC=C(C=C2)C3=CC=CS3)CC4=CC(=C(C=C4)Cl)Cl

> <PUBCHEM_CACTVS_TPSA>
60.6

> <PUBCHEM_MONOISOTOPIC_WEIGHT>
430.0673398

> <PUBCHEM_TOTAL_CHARGE>
0

> <PUBCHEM_HEAVY_ATOM_COUNT>
28

> <PUBCHEM_ATOM_DEF_STEREO_COUNT>
1

> <PUBCHEM_ATOM_UDEF_STEREO_COUNT>
0

> <PUBCHEM_BOND_DEF_STEREO_COUNT>
0

> <PUBCHEM_BOND_UDEF_STEREO_COUNT>
0

> <PUBCHEM_ISOTOPIC_ATOM_COUNT>
0

> <PUBCHEM_COMPONENT_COUNT>
1

> <PUBCHEM_CACTVS_TAUTO_COUNT>
-1

> <PUBCHEM_COORDINATE_TYPE>
1
5
255

> <PUBCHEM_BONDANNOTATIONS>
12  14  8
12  15  8
14  17  8
15  18  8
16  19  8
16  20  8
17  21  8
18  21  8
19  22  8
20  23  8
22  24  8
23  24  8
25  26  8
26  27  8
27  28  8
3  25  8
3  28  8
7  6  5

$$$$
