44350874
  -OEChem-09292322112D

 68 69  0     0  0  0  0  0  0999 V2000
   12.2711   15.6200    0.0000 Br  0  0  0  0  0  0  0  0  0  0  0  0
    7.0749    2.6200    0.0000 O   0  0  0  0  0  0  0  0  0  0  0  0
   12.2711    9.6200    0.0000 O   0  0  0  0  0  0  0  0  0  0  0  0
    0.5369    8.0600    0.0000 O   0  0  0  0  0  0  0  0  0  0  0  0
    3.1350    7.5600    0.0000 O   0  0  0  0  0  0  0  0  0  0  0  0
    1.4030    6.5600    0.0000 O   0  0  0  0  0  0  0  0  0  0  0  0
    2.2690    9.0600    0.0000 O   0  0  0  0  0  0  0  0  0  0  0  0
    8.8070    5.6200    0.0000 N   0  0  0  0  0  0  0  0  0  0  0  0
    8.8070    3.6200    0.0000 N   0  0  0  0  0  0  0  0  0  0  0  0
   10.5390    9.6200    0.0000 N   0  0  0  0  0  0  0  0  0  0  0  0
    9.6730    5.1200    0.0000 C   0  0  0  0  0  0  0  0  0  0  0  0
    7.9409    5.1200    0.0000 C   0  0  0  0  0  0  0  0  0  0  0  0
    9.6730    4.1200    0.0000 C   0  0  0  0  0  0  0  0  0  0  0  0
    7.9409    4.1200    0.0000 C   0  0  0  0  0  0  0  0  0  0  0  0
    8.8070    6.6200    0.0000 C   0  0  0  0  0  0  0  0  0  0  0  0
    9.6730    7.1200    0.0000 C   0  0  0  0  0  0  0  0  0  0  0  0
    8.8070    2.6200    0.0000 C   0  0  0  0  0  0  0  0  0  0  0  0
    9.6730    8.1200    0.0000 C   0  0  0  0  0  0  0  0  0  0  0  0
   10.5390    8.6200    0.0000 C   0  0  0  0  0  0  0  0  0  0  0  0
    7.9409    2.1200    0.0000 C   0  0  0  0  0  0  0  0  0  0  0  0
    9.6730    2.1200    0.0000 C   0  0  0  0  0  0  0  0  0  0  0  0
    7.9409    1.1200    0.0000 C   0  0  0  0  0  0  0  0  0  0  0  0
    9.6730    1.1200    0.0000 C   0  0  0  0  0  0  0  0  0  0  0  0
    8.8070    0.6200    0.0000 C   0  0  0  0  0  0  0  0  0  0  0  0
   11.4050   10.1200    0.0000 C   0  0  0  0  0  0  0  0  0  0  0  0
    6.2089    2.1200    0.0000 C   0  0  0  0  0  0  0  0  0  0  0  0
   11.4050   11.1200    0.0000 C   0  0  0  0  0  0  0  0  0  0  0  0
   12.2711   11.6200    0.0000 C   0  0  0  0  0  0  0  0  0  0  0  0
   12.2711   12.6200    0.0000 C   0  0  0  0  0  0  0  0  0  0  0  0
   11.4050   13.1200    0.0000 C   0  0  0  0  0  0  0  0  0  0  0  0
   13.1371   13.1200    0.0000 C   0  0  0  0  0  0  0  0  0  0  0  0
   11.4050   14.1200    0.0000 C   0  0  0  0  0  0  0  0  0  0  0  0
   13.1371   14.1200    0.0000 C   0  0  0  0  0  0  0  0  0  0  0  0
   12.2711   14.6200    0.0000 C   0  0  0  0  0  0  0  0  0  0  0  0
    1.4030    7.5600    0.0000 C   0  0  0  0  0  0  0  0  0  0  0  0
    2.2690    8.0600    0.0000 C   0  0  0  0  0  0  0  0  0  0  0  0
   10.2836    5.0123    0.0000 H   0  0  0  0  0  0  0  0  0  0  0  0
    9.8850    5.7026    0.0000 H   0  0  0  0  0  0  0  0  0  0  0  0
    7.7289    5.7026    0.0000 H   0  0  0  0  0  0  0  0  0  0  0  0
    7.3304    5.0123    0.0000 H   0  0  0  0  0  0  0  0  0  0  0  0
    9.8850    3.5374    0.0000 H   0  0  0  0  0  0  0  0  0  0  0  0
   10.2836    4.2277    0.0000 H   0  0  0  0  0  0  0  0  0  0  0  0
    7.3304    4.2277    0.0000 H   0  0  0  0  0  0  0  0  0  0  0  0
    7.7289    3.5374    0.0000 H   0  0  0  0  0  0  0  0  0  0  0  0
    8.5949    7.2026    0.0000 H   0  0  0  0  0  0  0  0  0  0  0  0
    8.1964    6.5123    0.0000 H   0  0  0  0  0  0  0  0  0  0  0  0
    9.8850    6.5374    0.0000 H   0  0  0  0  0  0  0  0  0  0  0  0
   10.2836    7.2277    0.0000 H   0  0  0  0  0  0  0  0  0  0  0  0
    9.4609    8.7026    0.0000 H   0  0  0  0  0  0  0  0  0  0  0  0
    9.0624    8.0123    0.0000 H   0  0  0  0  0  0  0  0  0  0  0  0
   10.7511    8.0374    0.0000 H   0  0  0  0  0  0  0  0  0  0  0  0
   11.1496    8.7277    0.0000 H   0  0  0  0  0  0  0  0  0  0  0  0
   10.2099    2.4300    0.0000 H   0  0  0  0  0  0  0  0  0  0  0  0
    7.4040    0.8100    0.0000 H   0  0  0  0  0  0  0  0  0  0  0  0
   10.2099    0.8100    0.0000 H   0  0  0  0  0  0  0  0  0  0  0  0
   10.0021    9.9300    0.0000 H   0  0  0  0  0  0  0  0  0  0  0  0
    8.8070    0.0000    0.0000 H   0  0  0  0  0  0  0  0  0  0  0  0
    5.8989    2.6569    0.0000 H   0  0  0  0  0  0  0  0  0  0  0  0
    5.6720    1.8100    0.0000 H   0  0  0  0  0  0  0  0  0  0  0  0
    6.5189    1.5831    0.0000 H   0  0  0  0  0  0  0  0  0  0  0  0
   10.8681   11.4300    0.0000 H   0  0  0  0  0  0  0  0  0  0  0  0
   12.8080   11.3100    0.0000 H   0  0  0  0  0  0  0  0  0  0  0  0
   10.8681   12.8100    0.0000 H   0  0  0  0  0  0  0  0  0  0  0  0
   13.6740   12.8100    0.0000 H   0  0  0  0  0  0  0  0  0  0  0  0
   10.8681   14.4300    0.0000 H   0  0  0  0  0  0  0  0  0  0  0  0
   13.6740   14.4300    0.0000 H   0  0  0  0  0  0  0  0  0  0  0  0
    0.0000    7.7500    0.0000 H   0  0  0  0  0  0  0  0  0  0  0  0
    3.6720    7.8700    0.0000 H   0  0  0  0  0  0  0  0  0  0  0  0
  1 34  1  0  0  0  0
  2 20  1  0  0  0  0
  2 26  1  0  0  0  0
  3 25  2  0  0  0  0
  4 35  1  0  0  0  0
  4 67  1  0  0  0  0
  5 36  1  0  0  0  0
  5 68  1  0  0  0  0
  6 35  2  0  0  0  0
  7 36  2  0  0  0  0
  8 11  1  0  0  0  0
  8 12  1  0  0  0  0
  8 15  1  0  0  0  0
  9 13  1  0  0  0  0
  9 14  1  0  0  0  0
  9 17  1  0  0  0  0
 10 19  1  0  0  0  0
 10 25  1  0  0  0  0
 10 56  1  0  0  0  0
 11 13  1  0  0  0  0
 11 37  1  0  0  0  0
 11 38  1  0  0  0  0
 12 14  1  0  0  0  0
 12 39  1  0  0  0  0
 12 40  1  0  0  0  0
 13 41  1  0  0  0  0
 13 42  1  0  0  0  0
 14 43  1  0  0  0  0
 14 44  1  0  0  0  0
 15 16  1  0  0  0  0
 15 45  1  0  0  0  0
 15 46  1  0  0  0  0
 16 18  1  0  0  0  0
 16 47  1  0  0  0  0
 16 48  1  0  0  0  0
 17 20  1  0  0  0  0
 17 21  2  0  0  0  0
 18 19  1  0  0  0  0
 18 49  1  0  0  0  0
 18 50  1  0  0  0  0
 19 51  1  0  0  0  0
 19 52  1  0  0  0  0
 20 22  2  0  0  0  0
 21 23  1  0  0  0  0
 21 53  1  0  0  0  0
 22 24  1  0  0  0  0
 22 54  1  0  0  0  0
 23 24  2  0  0  0  0
 23 55  1  0  0  0  0
 24 57  1  0  0  0  0
 25 27  1  0  0  0  0
 26 58  1  0  0  0  0
 26 59  1  0  0  0  0
 26 60  1  0  0  0  0
 27 28  2  0  0  0  0
 27 61  1  0  0  0  0
 28 29  1  0  0  0  0
 28 62  1  0  0  0  0
 29 30  2  0  0  0  0
 29 31  1  0  0  0  0
 30 32  1  0  0  0  0
 30 63  1  0  0  0  0
 31 33  2  0  0  0  0
 31 64  1  0  0  0  0
 32 34  2  0  0  0  0
 32 65  1  0  0  0  0
 33 34  1  0  0  0  0
 33 66  1  0  0  0  0
 35 36  1  0  0  0  0
M  END
> <PUBCHEM_COMPOUND_CID>
44350874

> <PUBCHEM_COMPOUND_CANONICALIZED>
1

> <PUBCHEM_CACTVS_COMPLEXITY>
600

> <PUBCHEM_CACTVS_HBOND_ACCEPTOR>
8

> <PUBCHEM_CACTVS_HBOND_DONOR>
3

> <PUBCHEM_CACTVS_ROTATABLE_BOND>
10

> <PUBCHEM_CACTVS_SUBSKEYS>
AAADcfB7OAAAEAAAAAAAAAAAAAAAAAAAAAA8YIAAAAAAAAABQAAAHgBQCAABrAzBmAYyzoPABgCIAiXSWAKCCAAhIgQIiIBPbOgPZiLEsZuVMChk1hHZ65eQwAAOAgAAAAAAEAAEAAAAAAAgAAAAAAAAAA==

> <PUBCHEM_IUPAC_OPENEYE_NAME>
(E)-3-(4-bromophenyl)-N-[4-[4-(2-methoxyphenyl)piperazin-1-yl]butyl]prop-2-enamide;oxalic acid

> <PUBCHEM_IUPAC_CAS_NAME>
(E)-3-(4-bromophenyl)-N-[4-[4-(2-methoxyphenyl)-1-piperazinyl]butyl]-2-propenamide;oxalic acid

> <PUBCHEM_IUPAC_NAME_MARKUP>
(<I>E</I>)-3-(4-bromophenyl)-<I>N</I>-[4-[4-(2-methoxyphenyl)piperazin-1-yl]butyl]prop-2-enamide;oxalic acid

> <PUBCHEM_IUPAC_NAME>
(E)-3-(4-bromophenyl)-N-[4-[4-(2-methoxyphenyl)piperazin-1-yl]butyl]prop-2-enamide;oxalic acid

> <PUBCHEM_IUPAC_SYSTEMATIC_NAME>
(E)-3-(4-bromophenyl)-N-[4-[4-(2-methoxyphenyl)piperazin-1-yl]butyl]prop-2-enamide;ethanedioic acid

> <PUBCHEM_IUPAC_TRADITIONAL_NAME>
(E)-3-(4-bromophenyl)-N-[4-[4-(2-methoxyphenyl)piperazino]butyl]acrylamide;oxalic acid

> <PUBCHEM_IUPAC_INCHI>
InChI=1S/C24H30BrN3O2.C2H2O4/c1-30-23-7-3-2-6-22(23)28-18-16-27(17-19-28)15-5-4-14-26-24(29)13-10-20-8-11-21(25)12-9-20;3-1(4)2(5)6/h2-3,6-13H,4-5,14-19H2,1H3,(H,26,29);(H,3,4)(H,5,6)/b13-10+;

> <PUBCHEM_IUPAC_INCHIKEY>
RNNLSPMQBZAALE-RSGUCCNWSA-N

> <PUBCHEM_EXACT_MASS>
561.14745

> <PUBCHEM_MOLECULAR_FORMULA>
C26H32BrN3O6

> <PUBCHEM_MOLECULAR_WEIGHT>
562.5

> <PUBCHEM_OPENEYE_CAN_SMILES>
COC1=CC=CC=C1N2CCN(CC2)CCCCNC(=O)C=CC3=CC=C(C=C3)Br.C(=O)(C(=O)O)O

> <PUBCHEM_OPENEYE_ISO_SMILES>
COC1=CC=CC=C1N2CCN(CC2)CCCCNC(=O)/C=C/C3=CC=C(C=C3)Br.C(=O)(C(=O)O)O

> <PUBCHEM_CACTVS_TPSA>
119

> <PUBCHEM_MONOISOTOPIC_WEIGHT>
561.14745

> <PUBCHEM_TOTAL_CHARGE>
0

> <PUBCHEM_HEAVY_ATOM_COUNT>
36

> <PUBCHEM_ATOM_DEF_STEREO_COUNT>
0

> <PUBCHEM_ATOM_UDEF_STEREO_COUNT>
0

> <PUBCHEM_BOND_DEF_STEREO_COUNT>
1

> <PUBCHEM_BOND_UDEF_STEREO_COUNT>
0

> <PUBCHEM_ISOTOPIC_ATOM_COUNT>
0

> <PUBCHEM_COMPONENT_COUNT>
2

> <PUBCHEM_CACTVS_TAUTO_COUNT>
-1

> <PUBCHEM_COORDINATE_TYPE>
1
5
255

> <PUBCHEM_BONDANNOTATIONS>
17  20  8
17  21  8
20  22  8
21  23  8
22  24  8
23  24  8
29  30  8
29  31  8
30  32  8
31  33  8
32  34  8
33  34  8

$$$$
