57325598
  -OEChem-09292322072D

144151  0     0  0  0  0  0  0999 V2000
    8.7204   10.0770    0.0000 Cl  0  0  0  0  0  0  0  0  0  0  0  0
   10.5717  -10.0770    0.0000 Cl  0  0  0  0  0  0  0  0  0  0  0  0
    6.6150    7.7500    0.0000 O   0  0  0  0  0  0  0  0  0  0  0  0
   12.6771   -7.7500    0.0000 O   0  0  0  0  0  0  0  0  0  0  0  0
    3.9491   11.8417    0.0000 N   0  0  0  0  0  0  0  0  0  0  0  0
   15.3430  -11.8417    0.0000 N   0  0  0  0  0  0  0  0  0  0  0  0
    3.0814   13.6436    0.0000 N   0  0  0  0  0  0  0  0  0  0  0  0
   16.2108  -13.6436    0.0000 N   0  0  0  0  0  0  0  0  0  0  0  0
    4.8830    8.7500    0.0000 N   0  0  0  0  0  0  0  0  0  0  0  0
   14.4091   -8.7500    0.0000 N   0  0  0  0  0  0  0  0  0  0  0  0
    5.3830   10.9407    0.0000 N   0  0  0  0  0  0  0  0  0  0  0  0
   13.9091  -10.9407    0.0000 N   0  0  0  0  0  0  0  0  0  0  0  0
    4.8830    7.7500    0.0000 N   0  0  0  0  0  0  0  0  0  0  0  0
   14.4091   -7.7500    0.0000 N   0  0  0  0  0  0  0  0  0  0  0  0
    9.2131    0.2500    0.0000 C   0  0  0  0  0  0  0  0  0  0  0  0
   10.0791   -0.2500    0.0000 C   0  0  0  0  0  0  0  0  0  0  0  0
    4.5125   12.6679    0.0000 C   0  0  0  0  0  0  0  0  0  0  0  0
    2.9519   11.9164    0.0000 C   0  0  0  0  0  0  0  0  0  0  0  0
   16.3402  -11.9164    0.0000 C   0  0  0  0  0  0  0  0  0  0  0  0
   14.7797  -12.6679    0.0000 C   0  0  0  0  0  0  0  0  0  0  0  0
    9.2131    1.2500    0.0000 C   0  0  0  0  0  0  0  0  0  0  0  0
   10.0791   -1.2500    0.0000 C   0  0  0  0  0  0  0  0  0  0  0  0
    4.0786   13.5689    0.0000 C   0  0  0  0  0  0  0  0  0  0  0  0
    2.5180   12.8174    0.0000 C   0  0  0  0  0  0  0  0  0  0  0  0
   16.7741  -12.8174    0.0000 C   0  0  0  0  0  0  0  0  0  0  0  0
   15.2136  -13.5689    0.0000 C   0  0  0  0  0  0  0  0  0  0  0  0
    8.3470    1.7500    0.0000 C   0  0  0  0  0  0  0  0  0  0  0  0
   10.9451   -1.7500    0.0000 C   0  0  0  0  0  0  0  0  0  0  0  0
    8.3470    2.7500    0.0000 C   0  0  0  0  0  0  0  0  0  0  0  0
   10.9451   -2.7500    0.0000 C   0  0  0  0  0  0  0  0  0  0  0  0
    7.4810    3.2500    0.0000 C   0  0  0  0  0  0  0  0  0  0  0  0
   11.8111   -3.2500    0.0000 C   0  0  0  0  0  0  0  0  0  0  0  0
    7.4810    4.2500    0.0000 C   0  0  0  0  0  0  0  0  0  0  0  0
   11.8111   -4.2500    0.0000 C   0  0  0  0  0  0  0  0  0  0  0  0
    4.3830   10.9407    0.0000 C   0  0  0  0  0  0  0  0  0  0  0  0
   14.9091  -10.9407    0.0000 C   0  0  0  0  0  0  0  0  0  0  0  0
    6.6150    4.7500    0.0000 C   0  0  0  0  0  0  0  0  0  0  0  0
   12.6771   -4.7500    0.0000 C   0  0  0  0  0  0  0  0  0  0  0  0
    3.7595   10.1589    0.0000 C   0  0  0  0  0  0  0  0  0  0  0  0
   15.5326  -10.1589    0.0000 C   0  0  0  0  0  0  0  0  0  0  0  0
    6.6150    5.7500    0.0000 C   0  0  0  0  0  0  0  0  0  0  0  0
   12.6771   -5.7500    0.0000 C   0  0  0  0  0  0  0  0  0  0  0  0
    2.6475   14.5446    0.0000 C   0  0  0  0  0  0  0  0  0  0  0  0
   16.6446  -14.5446    0.0000 C   0  0  0  0  0  0  0  0  0  0  0  0
    3.9820    9.1839    0.0000 C   0  0  0  0  0  0  0  0  0  0  0  0
   15.3101   -9.1839    0.0000 C   0  0  0  0  0  0  0  0  0  0  0  0
    5.7490    6.2500    0.0000 C   0  0  0  0  0  0  0  0  0  0  0  0
   13.5431   -6.2500    0.0000 C   0  0  0  0  0  0  0  0  0  0  0  0
    5.7840    9.1839    0.0000 C   0  0  0  0  0  0  0  0  0  0  0  0
   13.5082   -9.1839    0.0000 C   0  0  0  0  0  0  0  0  0  0  0  0
    6.0065   10.1588    0.0000 C   0  0  0  0  0  0  0  0  0  0  0  0
   13.2856  -10.1588    0.0000 C   0  0  0  0  0  0  0  0  0  0  0  0
    2.7690   10.4812    0.0000 C   0  0  0  0  0  0  0  0  0  0  0  0
   16.5231  -10.4812    0.0000 C   0  0  0  0  0  0  0  0  0  0  0  0
    5.7490    7.2500    0.0000 C   0  0  0  0  0  0  0  0  0  0  0  0
   13.5431   -7.2500    0.0000 C   0  0  0  0  0  0  0  0  0  0  0  0
    3.2295    8.4637    0.0000 C   0  0  0  0  0  0  0  0  0  0  0  0
   16.0627   -8.4637    0.0000 C   0  0  0  0  0  0  0  0  0  0  0  0
    2.0000    9.7786    0.0000 C   0  0  0  0  0  0  0  0  0  0  0  0
   17.2921   -9.7786    0.0000 C   0  0  0  0  0  0  0  0  0  0  0  0
    6.5365    8.4637    0.0000 C   0  0  0  0  0  0  0  0  0  0  0  0
   12.7556   -8.4637    0.0000 C   0  0  0  0  0  0  0  0  0  0  0  0
    2.2318    8.7631    0.0000 C   0  0  0  0  0  0  0  0  0  0  0  0
   17.0604   -8.7631    0.0000 C   0  0  0  0  0  0  0  0  0  0  0  0
    6.9970   10.4812    0.0000 C   0  0  0  0  0  0  0  0  0  0  0  0
   12.2951  -10.4812    0.0000 C   0  0  0  0  0  0  0  0  0  0  0  0
    7.5342    8.7631    0.0000 C   0  0  0  0  0  0  0  0  0  0  0  0
   11.7579   -8.7631    0.0000 C   0  0  0  0  0  0  0  0  0  0  0  0
    7.7660    9.7786    0.0000 C   0  0  0  0  0  0  0  0  0  0  0  0
   11.5261   -9.7786    0.0000 C   0  0  0  0  0  0  0  0  0  0  0  0
    8.6025    0.3577    0.0000 H   0  0  0  0  0  0  0  0  0  0  0  0
    9.0010   -0.3326    0.0000 H   0  0  0  0  0  0  0  0  0  0  0  0
   10.6897   -0.3577    0.0000 H   0  0  0  0  0  0  0  0  0  0  0  0
   10.2911    0.3326    0.0000 H   0  0  0  0  0  0  0  0  0  0  0  0
    4.9563   12.2350    0.0000 H   0  0  0  0  0  0  0  0  0  0  0  0
    5.0159   13.0298    0.0000 H   0  0  0  0  0  0  0  0  0  0  0  0
    2.3551   11.7485    0.0000 H   0  0  0  0  0  0  0  0  0  0  0  0
    3.0137   11.2995    0.0000 H   0  0  0  0  0  0  0  0  0  0  0  0
   16.9370  -11.7485    0.0000 H   0  0  0  0  0  0  0  0  0  0  0  0
   16.2785  -11.2995    0.0000 H   0  0  0  0  0  0  0  0  0  0  0  0
   14.3358  -12.2350    0.0000 H   0  0  0  0  0  0  0  0  0  0  0  0
   14.2763  -13.0298    0.0000 H   0  0  0  0  0  0  0  0  0  0  0  0
    9.8236    1.1423    0.0000 H   0  0  0  0  0  0  0  0  0  0  0  0
    9.4251    1.8326    0.0000 H   0  0  0  0  0  0  0  0  0  0  0  0
    9.4685   -1.1423    0.0000 H   0  0  0  0  0  0  0  0  0  0  0  0
    9.8670   -1.8326    0.0000 H   0  0  0  0  0  0  0  0  0  0  0  0
    4.6754   13.7368    0.0000 H   0  0  0  0  0  0  0  0  0  0  0  0
    4.0168   14.1858    0.0000 H   0  0  0  0  0  0  0  0  0  0  0  0
    2.0742   13.2503    0.0000 H   0  0  0  0  0  0  0  0  0  0  0  0
    2.0146   12.4554    0.0000 H   0  0  0  0  0  0  0  0  0  0  0  0
   17.2179  -13.2503    0.0000 H   0  0  0  0  0  0  0  0  0  0  0  0
   17.2775  -12.4554    0.0000 H   0  0  0  0  0  0  0  0  0  0  0  0
   14.6167  -13.7368    0.0000 H   0  0  0  0  0  0  0  0  0  0  0  0
   15.2753  -14.1858    0.0000 H   0  0  0  0  0  0  0  0  0  0  0  0
    7.7365    1.8577    0.0000 H   0  0  0  0  0  0  0  0  0  0  0  0
    8.1350    1.1674    0.0000 H   0  0  0  0  0  0  0  0  0  0  0  0
   11.5557   -1.8577    0.0000 H   0  0  0  0  0  0  0  0  0  0  0  0
   11.1571   -1.1674    0.0000 H   0  0  0  0  0  0  0  0  0  0  0  0
    8.9576    2.6423    0.0000 H   0  0  0  0  0  0  0  0  0  0  0  0
    8.5591    3.3326    0.0000 H   0  0  0  0  0  0  0  0  0  0  0  0
   10.3345   -2.6423    0.0000 H   0  0  0  0  0  0  0  0  0  0  0  0
   10.7330   -3.3326    0.0000 H   0  0  0  0  0  0  0  0  0  0  0  0
    6.8704    3.3577    0.0000 H   0  0  0  0  0  0  0  0  0  0  0  0
    7.2690    2.6674    0.0000 H   0  0  0  0  0  0  0  0  0  0  0  0
   12.4217   -3.3577    0.0000 H   0  0  0  0  0  0  0  0  0  0  0  0
   12.0232   -2.6674    0.0000 H   0  0  0  0  0  0  0  0  0  0  0  0
    8.0916    4.1424    0.0000 H   0  0  0  0  0  0  0  0  0  0  0  0
    7.6931    4.8326    0.0000 H   0  0  0  0  0  0  0  0  0  0  0  0
   11.2005   -4.1424    0.0000 H   0  0  0  0  0  0  0  0  0  0  0  0
   11.5990   -4.8326    0.0000 H   0  0  0  0  0  0  0  0  0  0  0  0
    6.0044    4.8577    0.0000 H   0  0  0  0  0  0  0  0  0  0  0  0
    6.4030    4.1674    0.0000 H   0  0  0  0  0  0  0  0  0  0  0  0
   13.2877   -4.8577    0.0000 H   0  0  0  0  0  0  0  0  0  0  0  0
   12.8892   -4.1674    0.0000 H   0  0  0  0  0  0  0  0  0  0  0  0
    7.2256    5.6424    0.0000 H   0  0  0  0  0  0  0  0  0  0  0  0
    6.8271    6.3326    0.0000 H   0  0  0  0  0  0  0  0  0  0  0  0
   12.0665   -5.6424    0.0000 H   0  0  0  0  0  0  0  0  0  0  0  0
   12.4651   -6.3326    0.0000 H   0  0  0  0  0  0  0  0  0  0  0  0
    3.2061   14.8136    0.0000 H   0  0  0  0  0  0  0  0  0  0  0  0
    2.3785   15.1032    0.0000 H   0  0  0  0  0  0  0  0  0  0  0  0
    2.0889   14.2756    0.0000 H   0  0  0  0  0  0  0  0  0  0  0  0
   16.0860  -14.8136    0.0000 H   0  0  0  0  0  0  0  0  0  0  0  0
   16.9136  -15.1032    0.0000 H   0  0  0  0  0  0  0  0  0  0  0  0
   17.2032  -14.2756    0.0000 H   0  0  0  0  0  0  0  0  0  0  0  0
    5.1384    6.3577    0.0000 H   0  0  0  0  0  0  0  0  0  0  0  0
    5.5369    5.6674    0.0000 H   0  0  0  0  0  0  0  0  0  0  0  0
   14.1537   -6.3577    0.0000 H   0  0  0  0  0  0  0  0  0  0  0  0
   13.7552   -5.6674    0.0000 H   0  0  0  0  0  0  0  0  0  0  0  0
    2.6380   11.0872    0.0000 H   0  0  0  0  0  0  0  0  0  0  0  0
   16.6541  -11.0872    0.0000 H   0  0  0  0  0  0  0  0  0  0  0  0
    4.3460    7.4400    0.0000 H   0  0  0  0  0  0  0  0  0  0  0  0
   14.9461   -7.4400    0.0000 H   0  0  0  0  0  0  0  0  0  0  0  0
    3.3744    7.8609    0.0000 H   0  0  0  0  0  0  0  0  0  0  0  0
   15.9177   -7.8609    0.0000 H   0  0  0  0  0  0  0  0  0  0  0  0
    1.4083    9.9637    0.0000 H   0  0  0  0  0  0  0  0  0  0  0  0
   17.8839   -9.9637    0.0000 H   0  0  0  0  0  0  0  0  0  0  0  0
    6.3916    7.8609    0.0000 H   0  0  0  0  0  0  0  0  0  0  0  0
   12.9006   -7.8609    0.0000 H   0  0  0  0  0  0  0  0  0  0  0  0
    1.7789    8.3396    0.0000 H   0  0  0  0  0  0  0  0  0  0  0  0
   17.5132   -8.3396    0.0000 H   0  0  0  0  0  0  0  0  0  0  0  0
    7.1280   11.0872    0.0000 H   0  0  0  0  0  0  0  0  0  0  0  0
   12.1642  -11.0872    0.0000 H   0  0  0  0  0  0  0  0  0  0  0  0
    7.9871    8.3396    0.0000 H   0  0  0  0  0  0  0  0  0  0  0  0
   11.3051   -8.3396    0.0000 H   0  0  0  0  0  0  0  0  0  0  0  0
  1 69  1  0  0  0  0
  2 70  1  0  0  0  0
  3 55  2  0  0  0  0
  4 56  2  0  0  0  0
  5 17  1  0  0  0  0
  5 18  1  0  0  0  0
  5 35  1  0  0  0  0
  6 19  1  0  0  0  0
  6 20  1  0  0  0  0
  6 36  1  0  0  0  0
  7 23  1  0  0  0  0
  7 24  1  0  0  0  0
  7 43  1  0  0  0  0
  8 25  1  0  0  0  0
  8 26  1  0  0  0  0
  8 44  1  0  0  0  0
  9 13  1  0  0  0  0
  9 45  1  0  0  0  0
  9 49  1  0  0  0  0
 10 14  1  0  0  0  0
 10 46  1  0  0  0  0
 10 50  1  0  0  0  0
 11 35  2  0  0  0  0
 11 51  1  0  0  0  0
 12 36  2  0  0  0  0
 12 52  1  0  0  0  0
 13 55  1  0  0  0  0
 13131  1  0  0  0  0
 14 56  1  0  0  0  0
 14132  1  0  0  0  0
 15 16  1  0  0  0  0
 15 21  1  0  0  0  0
 15 71  1  0  0  0  0
 15 72  1  0  0  0  0
 16 22  1  0  0  0  0
 16 73  1  0  0  0  0
 16 74  1  0  0  0  0
 17 23  1  0  0  0  0
 17 75  1  0  0  0  0
 17 76  1  0  0  0  0
 18 24  1  0  0  0  0
 18 77  1  0  0  0  0
 18 78  1  0  0  0  0
 19 25  1  0  0  0  0
 19 79  1  0  0  0  0
 19 80  1  0  0  0  0
 20 26  1  0  0  0  0
 20 81  1  0  0  0  0
 20 82  1  0  0  0  0
 21 27  1  0  0  0  0
 21 83  1  0  0  0  0
 21 84  1  0  0  0  0
 22 28  1  0  0  0  0
 22 85  1  0  0  0  0
 22 86  1  0  0  0  0
 23 87  1  0  0  0  0
 23 88  1  0  0  0  0
 24 89  1  0  0  0  0
 24 90  1  0  0  0  0
 25 91  1  0  0  0  0
 25 92  1  0  0  0  0
 26 93  1  0  0  0  0
 26 94  1  0  0  0  0
 27 29  1  0  0  0  0
 27 95  1  0  0  0  0
 27 96  1  0  0  0  0
 28 30  1  0  0  0  0
 28 97  1  0  0  0  0
 28 98  1  0  0  0  0
 29 31  1  0  0  0  0
 29 99  1  0  0  0  0
 29100  1  0  0  0  0
 30 32  1  0  0  0  0
 30101  1  0  0  0  0
 30102  1  0  0  0  0
 31 33  1  0  0  0  0
 31103  1  0  0  0  0
 31104  1  0  0  0  0
 32 34  1  0  0  0  0
 32105  1  0  0  0  0
 32106  1  0  0  0  0
 33 37  1  0  0  0  0
 33107  1  0  0  0  0
 33108  1  0  0  0  0
 34 38  1  0  0  0  0
 34109  1  0  0  0  0
 34110  1  0  0  0  0
 35 39  1  0  0  0  0
 36 40  1  0  0  0  0
 37 41  1  0  0  0  0
 37111  1  0  0  0  0
 37112  1  0  0  0  0
 38 42  1  0  0  0  0
 38113  1  0  0  0  0
 38114  1  0  0  0  0
 39 45  1  0  0  0  0
 39 53  2  0  0  0  0
 40 46  1  0  0  0  0
 40 54  2  0  0  0  0
 41 47  1  0  0  0  0
 41115  1  0  0  0  0
 41116  1  0  0  0  0
 42 48  1  0  0  0  0
 42117  1  0  0  0  0
 42118  1  0  0  0  0
 43119  1  0  0  0  0
 43120  1  0  0  0  0
 43121  1  0  0  0  0
 44122  1  0  0  0  0
 44123  1  0  0  0  0
 44124  1  0  0  0  0
 45 57  2  0  0  0  0
 46 58  2  0  0  0  0
 47 55  1  0  0  0  0
 47125  1  0  0  0  0
 47126  1  0  0  0  0
 48 56  1  0  0  0  0
 48127  1  0  0  0  0
 48128  1  0  0  0  0
 49 51  2  0  0  0  0
 49 61  1  0  0  0  0
 50 52  2  0  0  0  0
 50 62  1  0  0  0  0
 51 65  1  0  0  0  0
 52 66  1  0  0  0  0
 53 59  1  0  0  0  0
 53129  1  0  0  0  0
 54 60  1  0  0  0  0
 54130  1  0  0  0  0
 57 63  1  0  0  0  0
 57133  1  0  0  0  0
 58 64  1  0  0  0  0
 58134  1  0  0  0  0
 59 63  2  0  0  0  0
 59135  1  0  0  0  0
 60 64  2  0  0  0  0
 60136  1  0  0  0  0
 61 67  2  0  0  0  0
 61137  1  0  0  0  0
 62 68  2  0  0  0  0
 62138  1  0  0  0  0
 63139  1  0  0  0  0
 64140  1  0  0  0  0
 65 69  2  0  0  0  0
 65141  1  0  0  0  0
 66 70  2  0  0  0  0
 66142  1  0  0  0  0
 67 69  1  0  0  0  0
 67143  1  0  0  0  0
 68 70  1  0  0  0  0
 68144  1  0  0  0  0
M  END
> <PUBCHEM_COMPOUND_CID>
57325598

> <PUBCHEM_COMPOUND_CANONICALIZED>
1

> <PUBCHEM_CACTVS_COMPLEXITY>
1540

> <PUBCHEM_CACTVS_HBOND_ACCEPTOR>
8

> <PUBCHEM_CACTVS_HBOND_DONOR>
2

> <PUBCHEM_CACTVS_ROTATABLE_BOND>
23

> <PUBCHEM_CACTVS_SUBSKEYS>
AAADcfB/8AAGAAAAAAAAAAAAAAAAAAAAAAA8eMGCBAgAAAABVAAAHgIYAAAADArBmCQzwINiAACoAidydACCBAEhBwAbqAEodpgIYPLB25GUIAhgkADIyAcYiICOAABAAAICACAAAIAABAQAQAAAAAAAAA==

> <PUBCHEM_IUPAC_OPENEYE_NAME>
N,N'-bis[3-chloro-6-(4-methylpiperazin-1-yl)benzo[b][1,4]benzodiazepin-11-yl]icosanediamide

> <PUBCHEM_IUPAC_CAS_NAME>
N,N'-bis[3-chloro-6-(4-methyl-1-piperazinyl)-11-benzo[b][1,4]benzodiazepinyl]eicosanediamide

> <PUBCHEM_IUPAC_NAME_MARKUP>
<I>N</I>,<I>N</I>&apos;-bis[3-chloro-6-(4-methylpiperazin-1-yl)benzo[b][1,4]benzodiazepin-11-yl]icosanediamide

> <PUBCHEM_IUPAC_NAME>
N,N'-bis[3-chloro-6-(4-methylpiperazin-1-yl)benzo[b][1,4]benzodiazepin-11-yl]icosanediamide

> <PUBCHEM_IUPAC_SYSTEMATIC_NAME>
N,N'-bis[3-chloranyl-6-(4-methylpiperazin-1-yl)benzo[b][1,4]benzodiazepin-11-yl]icosanediamide

> <PUBCHEM_IUPAC_TRADITIONAL_NAME>
N,N'-bis[3-chloro-6-(4-methylpiperazino)benzo[b][1,4]benzodiazepin-11-yl]eicosanediamide

> <PUBCHEM_IUPAC_INCHI>
InChI=1S/C56H74Cl2N10O2/c1-63-33-37-65(38-34-63)55-45-23-19-21-25-49(45)67(51-31-29-43(57)41-47(51)59-55)61-53(69)27-17-15-13-11-9-7-5-3-4-6-8-10-12-14-16-18-28-54(70)62-68-50-26-22-20-24-46(50)56(66-39-35-64(2)36-40-66)60-48-42-44(58)30-32-52(48)68/h19-26,29-32,41-42H,3-18,27-28,33-40H2,1-2H3,(H,61,69)(H,62,70)

> <PUBCHEM_IUPAC_INCHIKEY>
YDINFSKVJZVGLK-UHFFFAOYSA-N

> <PUBCHEM_XLOGP3_AA>
13.4

> <PUBCHEM_EXACT_MASS>
988.5373270

> <PUBCHEM_MOLECULAR_FORMULA>
C56H74Cl2N10O2

> <PUBCHEM_MOLECULAR_WEIGHT>
990.2

> <PUBCHEM_OPENEYE_CAN_SMILES>
CN1CCN(CC1)C2=NC3=C(C=CC(=C3)Cl)N(C4=CC=CC=C42)NC(=O)CCCCCCCCCCCCCCCCCCC(=O)NN5C6=C(C=C(C=C6)Cl)N=C(C7=CC=CC=C75)N8CCN(CC8)C

> <PUBCHEM_OPENEYE_ISO_SMILES>
CN1CCN(CC1)C2=NC3=C(C=CC(=C3)Cl)N(C4=CC=CC=C42)NC(=O)CCCCCCCCCCCCCCCCCCC(=O)NN5C6=C(C=C(C=C6)Cl)N=C(C7=CC=CC=C75)N8CCN(CC8)C

> <PUBCHEM_CACTVS_TPSA>
102

> <PUBCHEM_MONOISOTOPIC_WEIGHT>
988.5373270

> <PUBCHEM_TOTAL_CHARGE>
0

> <PUBCHEM_HEAVY_ATOM_COUNT>
70

> <PUBCHEM_ATOM_DEF_STEREO_COUNT>
0

> <PUBCHEM_ATOM_UDEF_STEREO_COUNT>
0

> <PUBCHEM_BOND_DEF_STEREO_COUNT>
0

> <PUBCHEM_BOND_UDEF_STEREO_COUNT>
0

> <PUBCHEM_ISOTOPIC_ATOM_COUNT>
0

> <PUBCHEM_COMPONENT_COUNT>
1

> <PUBCHEM_CACTVS_TAUTO_COUNT>
-1

> <PUBCHEM_COORDINATE_TYPE>
1
5
255

> <PUBCHEM_BONDANNOTATIONS>
39  45  8
39  53  8
40  46  8
40  54  8
45  57  8
46  58  8
49  51  8
49  61  8
50  52  8
50  62  8
51  65  8
52  66  8
53  59  8
54  60  8
57  63  8
58  64  8
59  63  8
60  64  8
61  67  8
62  68  8
65  69  8
66  70  8
67  69  8
68  70  8

$$$$
