142573384
  -OEChem-09292322412D

 75 79  0     0  0  0  0  0  0999 V2000
    2.8090   -2.4648    0.0000 S   0  0  0  0  0  0  0  0  0  0  0  0
    8.8712    6.0352    0.0000 F   0  0  0  0  0  0  0  0  0  0  0  0
    6.2731    5.5352    0.0000 O   0  0  0  0  0  0  0  0  0  0  0  0
    4.5411    0.5352    0.0000 N   0  0  0  0  0  0  0  0  0  0  0  0
    4.5411    4.5352    0.0000 N   0  0  0  0  0  0  0  0  0  0  0  0
    3.6180   -4.0526    0.0000 N   0  0  0  0  0  0  0  0  0  0  0  0
    2.0000   -4.0526    0.0000 N   0  0  0  0  0  0  0  0  0  0  0  0
    2.3090   -5.0036    0.0000 N   0  0  0  0  0  0  0  0  0  0  0  0
    4.5411    2.5352    0.0000 C   0  0  0  0  0  0  0  0  0  0  0  0
    3.6750    2.0352    0.0000 C   0  0  0  0  0  0  0  0  0  0  0  0
    5.4071    2.0352    0.0000 C   0  0  0  0  0  0  0  0  0  0  0  0
    3.6750    3.0352    0.0000 C   0  0  0  0  0  0  0  0  0  0  0  0
    5.4071    3.0352    0.0000 C   0  0  0  0  0  0  0  0  0  0  0  0
    3.6750    1.0352    0.0000 C   0  0  0  0  0  0  0  0  0  0  0  0
    5.4071    1.0352    0.0000 C   0  0  0  0  0  0  0  0  0  0  0  0
    3.6750    4.0352    0.0000 C   0  0  0  0  0  0  0  0  0  0  0  0
    5.4071    4.0352    0.0000 C   0  0  0  0  0  0  0  0  0  0  0  0
    4.5411   -0.4648    0.0000 C   0  0  0  0  0  0  0  0  0  0  0  0
    4.5411    5.5352    0.0000 C   0  0  0  0  0  0  0  0  0  0  0  0
    3.6750   -0.9648    0.0000 C   0  0  0  0  0  0  0  0  0  0  0  0
    5.4071    6.0352    0.0000 C   0  0  0  0  0  0  0  0  0  0  0  0
    3.6750    6.0352    0.0000 C   0  0  0  0  0  0  0  0  0  0  0  0
    3.6750   -1.9648    0.0000 C   0  0  0  0  0  0  0  0  0  0  0  0
    5.4071    7.0352    0.0000 C   0  0  0  0  0  0  0  0  0  0  0  0
    3.6750    7.0352    0.0000 C   0  0  0  0  0  0  0  0  0  0  0  0
    4.5411    7.5352    0.0000 C   0  0  0  0  0  0  0  0  0  0  0  0
    7.1391    6.0352    0.0000 C   0  0  0  0  0  0  0  0  0  0  0  0
    2.8090   -3.4648    0.0000 C   0  0  0  0  0  0  0  0  0  0  0  0
    8.0052    5.5352    0.0000 C   0  0  0  0  0  0  0  0  0  0  0  0
    3.3090   -5.0036    0.0000 C   0  0  0  0  0  0  0  0  0  0  0  0
    4.5691   -3.7436    0.0000 C   0  0  0  0  0  0  0  0  0  0  0  0
    3.8968   -5.8126    0.0000 C   0  0  0  0  0  0  0  0  0  0  0  0
    4.8913   -5.7081    0.0000 C   0  0  0  0  0  0  0  0  0  0  0  0
    3.4901   -6.7262    0.0000 C   0  0  0  0  0  0  0  0  0  0  0  0
    5.4791   -6.5171    0.0000 C   0  0  0  0  0  0  0  0  0  0  0  0
    4.0778   -7.5352    0.0000 C   0  0  0  0  0  0  0  0  0  0  0  0
    5.0724   -7.4307    0.0000 C   0  0  0  0  0  0  0  0  0  0  0  0
    3.4630    2.6178    0.0000 H   0  0  0  0  0  0  0  0  0  0  0  0
    3.0645    1.9276    0.0000 H   0  0  0  0  0  0  0  0  0  0  0  0
    6.0177    1.9276    0.0000 H   0  0  0  0  0  0  0  0  0  0  0  0
    5.6192    2.6178    0.0000 H   0  0  0  0  0  0  0  0  0  0  0  0
    3.0645    3.1429    0.0000 H   0  0  0  0  0  0  0  0  0  0  0  0
    3.4630    2.4526    0.0000 H   0  0  0  0  0  0  0  0  0  0  0  0
    5.6192    2.4526    0.0000 H   0  0  0  0  0  0  0  0  0  0  0  0
    6.0177    3.1429    0.0000 H   0  0  0  0  0  0  0  0  0  0  0  0
    3.0645    1.1429    0.0000 H   0  0  0  0  0  0  0  0  0  0  0  0
    3.4630    0.4526    0.0000 H   0  0  0  0  0  0  0  0  0  0  0  0
    5.6192    0.4526    0.0000 H   0  0  0  0  0  0  0  0  0  0  0  0
    6.0177    1.1429    0.0000 H   0  0  0  0  0  0  0  0  0  0  0  0
    3.4630    4.6178    0.0000 H   0  0  0  0  0  0  0  0  0  0  0  0
    3.0645    3.9276    0.0000 H   0  0  0  0  0  0  0  0  0  0  0  0
    6.0177    3.9276    0.0000 H   0  0  0  0  0  0  0  0  0  0  0  0
    5.6192    4.6178    0.0000 H   0  0  0  0  0  0  0  0  0  0  0  0
    4.7531   -1.0474    0.0000 H   0  0  0  0  0  0  0  0  0  0  0  0
    5.1516   -0.3571    0.0000 H   0  0  0  0  0  0  0  0  0  0  0  0
    3.4630   -0.3822    0.0000 H   0  0  0  0  0  0  0  0  0  0  0  0
    3.0645   -1.0724    0.0000 H   0  0  0  0  0  0  0  0  0  0  0  0
    3.1381    5.7252    0.0000 H   0  0  0  0  0  0  0  0  0  0  0  0
    3.8871   -2.5474    0.0000 H   0  0  0  0  0  0  0  0  0  0  0  0
    4.2856   -1.8571    0.0000 H   0  0  0  0  0  0  0  0  0  0  0  0
    5.9440    7.3452    0.0000 H   0  0  0  0  0  0  0  0  0  0  0  0
    3.1381    7.3452    0.0000 H   0  0  0  0  0  0  0  0  0  0  0  0
    4.5411    8.1552    0.0000 H   0  0  0  0  0  0  0  0  0  0  0  0
    7.5377    6.5102    0.0000 H   0  0  0  0  0  0  0  0  0  0  0  0
    6.7406    6.5102    0.0000 H   0  0  0  0  0  0  0  0  0  0  0  0
    7.6066    5.0603    0.0000 H   0  0  0  0  0  0  0  0  0  0  0  0
    8.4037    5.0603    0.0000 H   0  0  0  0  0  0  0  0  0  0  0  0
    4.7607   -4.3332    0.0000 H   0  0  0  0  0  0  0  0  0  0  0  0
    5.1588   -3.5520    0.0000 H   0  0  0  0  0  0  0  0  0  0  0  0
    4.3775   -3.1539    0.0000 H   0  0  0  0  0  0  0  0  0  0  0  0
    5.1435   -5.1417    0.0000 H   0  0  0  0  0  0  0  0  0  0  0  0
    2.8735   -6.7910    0.0000 H   0  0  0  0  0  0  0  0  0  0  0  0
    6.0957   -6.4523    0.0000 H   0  0  0  0  0  0  0  0  0  0  0  0
    3.8257   -8.1016    0.0000 H   0  0  0  0  0  0  0  0  0  0  0  0
    5.4368   -7.9323    0.0000 H   0  0  0  0  0  0  0  0  0  0  0  0
  1 23  1  0  0  0  0
  1 28  1  0  0  0  0
  2 29  1  0  0  0  0
  3 21  1  0  0  0  0
  3 27  1  0  0  0  0
  4 14  1  0  0  0  0
  4 15  1  0  0  0  0
  4 18  1  0  0  0  0
  5 16  1  0  0  0  0
  5 17  1  0  0  0  0
  5 19  1  0  0  0  0
  6 28  1  0  0  0  0
  6 30  1  0  0  0  0
  6 31  1  0  0  0  0
  7  8  1  0  0  0  0
  7 28  2  0  0  0  0
  8 30  2  0  0  0  0
  9 10  1  0  0  0  0
  9 11  1  0  0  0  0
  9 12  1  0  0  0  0
  9 13  1  0  0  0  0
 10 14  1  0  0  0  0
 10 38  1  0  0  0  0
 10 39  1  0  0  0  0
 11 15  1  0  0  0  0
 11 40  1  0  0  0  0
 11 41  1  0  0  0  0
 12 16  1  0  0  0  0
 12 42  1  0  0  0  0
 12 43  1  0  0  0  0
 13 17  1  0  0  0  0
 13 44  1  0  0  0  0
 13 45  1  0  0  0  0
 14 46  1  0  0  0  0
 14 47  1  0  0  0  0
 15 48  1  0  0  0  0
 15 49  1  0  0  0  0
 16 50  1  0  0  0  0
 16 51  1  0  0  0  0
 17 52  1  0  0  0  0
 17 53  1  0  0  0  0
 18 20  1  0  0  0  0
 18 54  1  0  0  0  0
 18 55  1  0  0  0  0
 19 21  1  0  0  0  0
 19 22  2  0  0  0  0
 20 23  1  0  0  0  0
 20 56  1  0  0  0  0
 20 57  1  0  0  0  0
 21 24  2  0  0  0  0
 22 25  1  0  0  0  0
 22 58  1  0  0  0  0
 23 59  1  0  0  0  0
 23 60  1  0  0  0  0
 24 26  1  0  0  0  0
 24 61  1  0  0  0  0
 25 26  2  0  0  0  0
 25 62  1  0  0  0  0
 26 63  1  0  0  0  0
 27 29  1  0  0  0  0
 27 64  1  0  0  0  0
 27 65  1  0  0  0  0
 29 66  1  0  0  0  0
 29 67  1  0  0  0  0
 30 32  1  0  0  0  0
 31 68  1  0  0  0  0
 31 69  1  0  0  0  0
 31 70  1  0  0  0  0
 32 33  2  0  0  0  0
 32 34  1  0  0  0  0
 33 35  1  0  0  0  0
 33 71  1  0  0  0  0
 34 36  2  0  0  0  0
 34 72  1  0  0  0  0
 35 37  2  0  0  0  0
 35 73  1  0  0  0  0
 36 37  1  0  0  0  0
 36 74  1  0  0  0  0
 37 75  1  0  0  0  0
M  END
> <PUBCHEM_COMPOUND_CID>
142573384

> <PUBCHEM_COMPOUND_CANONICALIZED>
1

> <PUBCHEM_CACTVS_COMPLEXITY>
665

> <PUBCHEM_CACTVS_HBOND_ACCEPTOR>
7

> <PUBCHEM_CACTVS_HBOND_DONOR>
0

> <PUBCHEM_CACTVS_ROTATABLE_BOND>
10

> <PUBCHEM_CACTVS_SUBSKEYS>
AAADcfB7oQBAAAAAAAAAAAAAAAAAAWAAAAA8eIEAAAAAAAAB0AAAHwQIAAAADgzl2waz1ocMFAiiAiZiZACS2AthIrAdyCAvbJiOLqLkuZuHOCjkyBPY6AeQwAAPAAAAAAAAEAAAAAAAAAAgAAAAAAAAAA==

> <PUBCHEM_IUPAC_OPENEYE_NAME>
3-[2-(2-fluoroethoxy)phenyl]-9-[3-[(4-methyl-5-phenyl-1,2,4-triazol-3-yl)sulfanyl]propyl]-3,9-diazaspiro[5.5]undecane

> <PUBCHEM_IUPAC_CAS_NAME>
3-[2-(2-fluoroethoxy)phenyl]-9-[3-[(4-methyl-5-phenyl-1,2,4-triazol-3-yl)thio]propyl]-3,9-diazaspiro[5.5]undecane

> <PUBCHEM_IUPAC_NAME_MARKUP>
3-[2-(2-fluoroethoxy)phenyl]-9-[3-[(4-methyl-5-phenyl-1,2,4-triazol-3-yl)sulfanyl]propyl]-3,9-diazaspiro[5.5]undecane

> <PUBCHEM_IUPAC_NAME>
3-[2-(2-fluoroethoxy)phenyl]-9-[3-[(4-methyl-5-phenyl-1,2,4-triazol-3-yl)sulfanyl]propyl]-3,9-diazaspiro[5.5]undecane

> <PUBCHEM_IUPAC_SYSTEMATIC_NAME>
3-[2-(2-fluoranylethoxy)phenyl]-9-[3-[(4-methyl-5-phenyl-1,2,4-triazol-3-yl)sulfanyl]propyl]-3,9-diazaspiro[5.5]undecane

> <PUBCHEM_IUPAC_TRADITIONAL_NAME>
3-[2-(2-fluoroethoxy)phenyl]-9-[3-[(4-methyl-5-phenyl-1,2,4-triazol-3-yl)thio]propyl]-3,9-diazaspiro[5.5]undecane

> <PUBCHEM_IUPAC_INCHI>
InChI=1S/C29H38FN5OS/c1-33-27(24-8-3-2-4-9-24)31-32-28(33)37-23-7-17-34-18-12-29(13-19-34)14-20-35(21-15-29)25-10-5-6-11-26(25)36-22-16-30/h2-6,8-11H,7,12-23H2,1H3

> <PUBCHEM_IUPAC_INCHIKEY>
GZPSXBZOGITRGD-UHFFFAOYSA-N

> <PUBCHEM_XLOGP3_AA>
5.6

> <PUBCHEM_EXACT_MASS>
523.27811019

> <PUBCHEM_MOLECULAR_FORMULA>
C29H38FN5OS

> <PUBCHEM_MOLECULAR_WEIGHT>
523.7

> <PUBCHEM_OPENEYE_CAN_SMILES>
CN1C(=NN=C1SCCCN2CCC3(CC2)CCN(CC3)C4=CC=CC=C4OCCF)C5=CC=CC=C5

> <PUBCHEM_OPENEYE_ISO_SMILES>
CN1C(=NN=C1SCCCN2CCC3(CC2)CCN(CC3)C4=CC=CC=C4OCCF)C5=CC=CC=C5

> <PUBCHEM_CACTVS_TPSA>
71.7

> <PUBCHEM_MONOISOTOPIC_WEIGHT>
523.27811019

> <PUBCHEM_TOTAL_CHARGE>
0

> <PUBCHEM_HEAVY_ATOM_COUNT>
37

> <PUBCHEM_ATOM_DEF_STEREO_COUNT>
0

> <PUBCHEM_ATOM_UDEF_STEREO_COUNT>
0

> <PUBCHEM_BOND_DEF_STEREO_COUNT>
0

> <PUBCHEM_BOND_UDEF_STEREO_COUNT>
0

> <PUBCHEM_ISOTOPIC_ATOM_COUNT>
0

> <PUBCHEM_COMPONENT_COUNT>
1

> <PUBCHEM_CACTVS_TAUTO_COUNT>
-1

> <PUBCHEM_COORDINATE_TYPE>
1
5
255

> <PUBCHEM_BONDANNOTATIONS>
19  21  8
19  22  8
21  24  8
22  25  8
24  26  8
25  26  8
32  33  8
32  34  8
33  35  8
34  36  8
35  37  8
36  37  8
6  28  8
6  30  8
7  28  8
7  8  8
8  30  8

$$$$
