45259646
  -OEChem-09292322152D

 77 80  0     0  0  0  0  0  0999 V2000
   11.9484    8.0320    0.0000 Cl  0  0  0  0  0  0  0  0  0  0  0  0
    2.6350    6.5758    0.0000 O   0  0  0  0  0  0  0  0  0  0  0  0
    1.4030    2.0369    0.0000 O   0  0  0  0  0  0  0  0  0  0  0  0
    3.1350    1.0369    0.0000 O   0  0  0  0  0  0  0  0  0  0  0  0
    5.7605   12.4480    0.0000 N   0  0  0  0  0  0  0  0  0  0  0  0
    4.5849   10.8299    0.0000 N   0  0  0  0  0  0  0  0  0  0  0  0
    2.3260    5.6247    0.0000 N   0  0  0  0  0  0  0  0  0  0  0  0
    6.1672   11.5344    0.0000 C   0  0  0  0  0  0  0  0  0  0  0  0
    4.7659   12.5525    0.0000 C   0  0  0  0  0  0  0  0  0  0  0  0
    5.5794   10.7254    0.0000 C   0  0  0  0  0  0  0  0  0  0  0  0
    4.1782   11.7435    0.0000 C   0  0  0  0  0  0  0  0  0  0  0  0
    6.3482   13.2570    0.0000 C   0  0  0  0  0  0  0  0  0  0  0  0
    3.9971   10.0209    0.0000 C   0  0  0  0  0  0  0  0  0  0  0  0
    4.4038    9.1074    0.0000 C   0  0  0  0  0  0  0  0  0  0  0  0
    5.9415   14.1705    0.0000 C   0  0  0  0  0  0  0  0  0  0  0  0
    7.3428   13.1524    0.0000 C   0  0  0  0  0  0  0  0  0  0  0  0
    3.8161    8.2983    0.0000 C   0  0  0  0  0  0  0  0  0  0  0  0
    4.2228    7.3848    0.0000 C   0  0  0  0  0  0  0  0  0  0  0  0
    4.9470   14.2750    0.0000 C   0  0  0  0  0  0  0  0  0  0  0  0
    7.9306   13.9615    0.0000 C   0  0  0  0  0  0  0  0  0  0  0  0
    6.5293   14.9795    0.0000 C   0  0  0  0  0  0  0  0  0  0  0  0
    7.7495   12.2389    0.0000 C   0  0  0  0  0  0  0  0  0  0  0  0
    3.6350    6.5758    0.0000 C   0  0  0  0  0  0  0  0  0  0  0  0
    4.5402   15.1886    0.0000 C   0  0  0  0  0  0  0  0  0  0  0  0
    8.9251   13.8569    0.0000 C   0  0  0  0  0  0  0  0  0  0  0  0
    6.1226   15.8931    0.0000 C   0  0  0  0  0  0  0  0  0  0  0  0
    8.7440   12.1344    0.0000 C   0  0  0  0  0  0  0  0  0  0  0  0
    5.1280   15.9976    0.0000 C   0  0  0  0  0  0  0  0  0  0  0  0
    9.3318   12.9434    0.0000 C   0  0  0  0  0  0  0  0  0  0  0  0
    3.9440    5.6247    0.0000 C   0  0  0  0  0  0  0  0  0  0  0  0
    3.1350    5.0369    0.0000 C   0  0  0  0  0  0  0  0  0  0  0  0
    3.1350    4.0369    0.0000 C   0  0  0  0  0  0  0  0  0  0  0  0
    2.2690    3.5369    0.0000 C   0  0  0  0  0  0  0  0  0  0  0  0
    4.0010    3.5369    0.0000 C   0  0  0  0  0  0  0  0  0  0  0  0
    2.2690    2.5369    0.0000 C   0  0  0  0  0  0  0  0  0  0  0  0
    4.0010    2.5369    0.0000 C   0  0  0  0  0  0  0  0  0  0  0  0
    3.1350    2.0369    0.0000 C   0  0  0  0  0  0  0  0  0  0  0  0
    0.5369    2.5369    0.0000 C   0  0  0  0  0  0  0  0  0  0  0  0
    4.0010    0.5369    0.0000 C   0  0  0  0  0  0  0  0  0  0  0  0
    6.5979   11.0884    0.0000 H   0  0  0  0  0  0  0  0  0  0  0  0
    6.6812   11.8811    0.0000 H   0  0  0  0  0  0  0  0  0  0  0  0
    4.9368   13.1485    0.0000 H   0  0  0  0  0  0  0  0  0  0  0  0
    4.2087   12.8243    0.0000 H   0  0  0  0  0  0  0  0  0  0  0  0
    5.4085   10.1294    0.0000 H   0  0  0  0  0  0  0  0  0  0  0  0
    6.1367   10.4536    0.0000 H   0  0  0  0  0  0  0  0  0  0  0  0
    3.7475   12.1895    0.0000 H   0  0  0  0  0  0  0  0  0  0  0  0
    3.6642   11.3968    0.0000 H   0  0  0  0  0  0  0  0  0  0  0  0
    6.6004   12.6906    0.0000 H   0  0  0  0  0  0  0  0  0  0  0  0
    3.5664   10.4669    0.0000 H   0  0  0  0  0  0  0  0  0  0  0  0
    3.4831    9.6742    0.0000 H   0  0  0  0  0  0  0  0  0  0  0  0
    4.8345    8.6614    0.0000 H   0  0  0  0  0  0  0  0  0  0  0  0
    4.9178    9.4541    0.0000 H   0  0  0  0  0  0  0  0  0  0  0  0
    3.3854    8.7443    0.0000 H   0  0  0  0  0  0  0  0  0  0  0  0
    3.3021    7.9516    0.0000 H   0  0  0  0  0  0  0  0  0  0  0  0
    4.6535    6.9388    0.0000 H   0  0  0  0  0  0  0  0  0  0  0  0
    4.7368    7.7315    0.0000 H   0  0  0  0  0  0  0  0  0  0  0  0
    4.5826   13.7735    0.0000 H   0  0  0  0  0  0  0  0  0  0  0  0
    7.6784   14.5279    0.0000 H   0  0  0  0  0  0  0  0  0  0  0  0
    7.1459   14.9147    0.0000 H   0  0  0  0  0  0  0  0  0  0  0  0
    7.3851   11.7373    0.0000 H   0  0  0  0  0  0  0  0  0  0  0  0
    3.9236   15.2534    0.0000 H   0  0  0  0  0  0  0  0  0  0  0  0
    9.2895   14.3585    0.0000 H   0  0  0  0  0  0  0  0  0  0  0  0
    6.4870   16.3947    0.0000 H   0  0  0  0  0  0  0  0  0  0  0  0
    8.9962   11.5680    0.0000 H   0  0  0  0  0  0  0  0  0  0  0  0
    4.8759   16.5640    0.0000 H   0  0  0  0  0  0  0  0  0  0  0  0
    9.9484   12.8786    0.0000 H   0  0  0  0  0  0  0  0  0  0  0  0
    4.5337    5.4331    0.0000 H   0  0  0  0  0  0  0  0  0  0  0  0
    1.7320    3.8469    0.0000 H   0  0  0  0  0  0  0  0  0  0  0  0
    4.5380    3.8469    0.0000 H   0  0  0  0  0  0  0  0  0  0  0  0
    4.5380    2.2269    0.0000 H   0  0  0  0  0  0  0  0  0  0  0  0
    0.8469    3.0739    0.0000 H   0  0  0  0  0  0  0  0  0  0  0  0
    0.0000    2.8469    0.0000 H   0  0  0  0  0  0  0  0  0  0  0  0
    0.2269    2.0000    0.0000 H   0  0  0  0  0  0  0  0  0  0  0  0
    3.6910    0.0000    0.0000 H   0  0  0  0  0  0  0  0  0  0  0  0
    4.5380    0.2269    0.0000 H   0  0  0  0  0  0  0  0  0  0  0  0
    4.3110    1.0739    0.0000 H   0  0  0  0  0  0  0  0  0  0  0  0
   12.9484    8.0320    0.0000 H   0  0  0  0  0  0  0  0  0  0  0  0
  1 77  1  0  0  0  0
  2  7  1  0  0  0  0
  2 23  1  0  0  0  0
  3 35  1  0  0  0  0
  3 38  1  0  0  0  0
  4 37  1  0  0  0  0
  4 39  1  0  0  0  0
  5  8  1  0  0  0  0
  5  9  1  0  0  0  0
  5 12  1  0  0  0  0
  6 10  1  0  0  0  0
  6 11  1  0  0  0  0
  6 13  1  0  0  0  0
  7 31  2  0  0  0  0
  8 10  1  0  0  0  0
  8 40  1  0  0  0  0
  8 41  1  0  0  0  0
  9 11  1  0  0  0  0
  9 42  1  0  0  0  0
  9 43  1  0  0  0  0
 10 44  1  0  0  0  0
 10 45  1  0  0  0  0
 11 46  1  0  0  0  0
 11 47  1  0  0  0  0
 12 15  1  0  0  0  0
 12 16  1  0  0  0  0
 12 48  1  0  0  0  0
 13 14  1  0  0  0  0
 13 49  1  0  0  0  0
 13 50  1  0  0  0  0
 14 17  1  0  0  0  0
 14 51  1  0  0  0  0
 14 52  1  0  0  0  0
 15 19  2  0  0  0  0
 15 21  1  0  0  0  0
 16 20  2  0  0  0  0
 16 22  1  0  0  0  0
 17 18  1  0  0  0  0
 17 53  1  0  0  0  0
 17 54  1  0  0  0  0
 18 23  1  0  0  0  0
 18 55  1  0  0  0  0
 18 56  1  0  0  0  0
 19 24  1  0  0  0  0
 19 57  1  0  0  0  0
 20 25  1  0  0  0  0
 20 58  1  0  0  0  0
 21 26  2  0  0  0  0
 21 59  1  0  0  0  0
 22 27  2  0  0  0  0
 22 60  1  0  0  0  0
 23 30  2  0  0  0  0
 24 28  2  0  0  0  0
 24 61  1  0  0  0  0
 25 29  2  0  0  0  0
 25 62  1  0  0  0  0
 26 28  1  0  0  0  0
 26 63  1  0  0  0  0
 27 29  1  0  0  0  0
 27 64  1  0  0  0  0
 28 65  1  0  0  0  0
 29 66  1  0  0  0  0
 30 31  1  0  0  0  0
 30 67  1  0  0  0  0
 31 32  1  0  0  0  0
 32 33  2  0  0  0  0
 32 34  1  0  0  0  0
 33 35  1  0  0  0  0
 33 68  1  0  0  0  0
 34 36  2  0  0  0  0
 34 69  1  0  0  0  0
 35 37  2  0  0  0  0
 36 37  1  0  0  0  0
 36 70  1  0  0  0  0
 38 71  1  0  0  0  0
 38 72  1  0  0  0  0
 38 73  1  0  0  0  0
 39 74  1  0  0  0  0
 39 75  1  0  0  0  0
 39 76  1  0  0  0  0
M  END
> <PUBCHEM_COMPOUND_CID>
45259646

> <PUBCHEM_COMPOUND_CANONICALIZED>
1

> <PUBCHEM_CACTVS_COMPLEXITY>
642

> <PUBCHEM_CACTVS_HBOND_ACCEPTOR>
6

> <PUBCHEM_CACTVS_HBOND_DONOR>
1

> <PUBCHEM_CACTVS_ROTATABLE_BOND>
11

> <PUBCHEM_CACTVS_SUBSKEYS>
AAADcfB/MAAEAAAAAAAAAAAAAAAAAWAAAAA8YMEAAAAAAAAB1AAAHgAEAAAADCzBngYyhpMQBACpA6RyQgCCCAAkIgAomCE+7NoNZrqEsZuUMapmwBmK6Ue42fOOIAABAAAAQABAAAIAAACAAAAAAAAAAA==

> <PUBCHEM_IUPAC_OPENEYE_NAME>
5-[4-(4-benzhydrylpiperazin-1-yl)butyl]-3-(3,4-dimethoxyphenyl)isoxazole;hydrochloride

> <PUBCHEM_IUPAC_CAS_NAME>
3-(3,4-dimethoxyphenyl)-5-[4-[4-(diphenylmethyl)-1-piperazinyl]butyl]isoxazole;hydrochloride

> <PUBCHEM_IUPAC_NAME_MARKUP>
5-[4-(4-benzhydrylpiperazin-1-yl)butyl]-3-(3,4-dimethoxyphenyl)-1,2-oxazole;hydrochloride

> <PUBCHEM_IUPAC_NAME>
5-[4-(4-benzhydrylpiperazin-1-yl)butyl]-3-(3,4-dimethoxyphenyl)-1,2-oxazole;hydrochloride

> <PUBCHEM_IUPAC_SYSTEMATIC_NAME>
3-(3,4-dimethoxyphenyl)-5-[4-[4-(diphenylmethyl)piperazin-1-yl]butyl]-1,2-oxazole;hydrochloride

> <PUBCHEM_IUPAC_TRADITIONAL_NAME>
5-[4-(4-benzhydrylpiperazino)butyl]-3-(3,4-dimethoxyphenyl)isoxazole;hydrochloride

> <PUBCHEM_IUPAC_INCHI>
InChI=1S/C32H37N3O3.ClH/c1-36-30-17-16-27(23-31(30)37-2)29-24-28(38-33-29)15-9-10-18-34-19-21-35(22-20-34)32(25-11-5-3-6-12-25)26-13-7-4-8-14-26;/h3-8,11-14,16-17,23-24,32H,9-10,15,18-22H2,1-2H3;1H

> <PUBCHEM_IUPAC_INCHIKEY>
NOSFXMMQATWKEF-UHFFFAOYSA-N

> <PUBCHEM_EXACT_MASS>
547.2601698

> <PUBCHEM_MOLECULAR_FORMULA>
C32H38ClN3O3

> <PUBCHEM_MOLECULAR_WEIGHT>
548.1

> <PUBCHEM_OPENEYE_CAN_SMILES>
COC1=C(C=C(C=C1)C2=NOC(=C2)CCCCN3CCN(CC3)C(C4=CC=CC=C4)C5=CC=CC=C5)OC.Cl

> <PUBCHEM_OPENEYE_ISO_SMILES>
COC1=C(C=C(C=C1)C2=NOC(=C2)CCCCN3CCN(CC3)C(C4=CC=CC=C4)C5=CC=CC=C5)OC.Cl

> <PUBCHEM_CACTVS_TPSA>
51

> <PUBCHEM_MONOISOTOPIC_WEIGHT>
547.2601698

> <PUBCHEM_TOTAL_CHARGE>
0

> <PUBCHEM_HEAVY_ATOM_COUNT>
39

> <PUBCHEM_ATOM_DEF_STEREO_COUNT>
0

> <PUBCHEM_ATOM_UDEF_STEREO_COUNT>
0

> <PUBCHEM_BOND_DEF_STEREO_COUNT>
0

> <PUBCHEM_BOND_UDEF_STEREO_COUNT>
0

> <PUBCHEM_ISOTOPIC_ATOM_COUNT>
0

> <PUBCHEM_COMPONENT_COUNT>
2

> <PUBCHEM_CACTVS_TAUTO_COUNT>
-1

> <PUBCHEM_COORDINATE_TYPE>
1
5
255

> <PUBCHEM_BONDANNOTATIONS>
15  19  8
15  21  8
16  20  8
16  22  8
19  24  8
2  23  8
2  7  8
20  25  8
21  26  8
22  27  8
23  30  8
24  28  8
25  29  8
26  28  8
27  29  8
30  31  8
32  33  8
32  34  8
33  35  8
34  36  8
35  37  8
36  37  8
7  31  8

$$$$
