11569619
  -OEChem-09292322242D

 64 67  0     0  0  0  0  0  0999 V2000
    2.0000   -5.7942    0.0000 Cl  0  0  0  0  0  0  0  0  0  0  0  0
    2.0000   -7.7942    0.0000 Cl  0  0  0  0  0  0  0  0  0  0  0  0
    7.1962    1.2058    0.0000 O   0  0  0  0  0  0  0  0  0  0  0  0
    3.7320   -2.7942    0.0000 N   0  0  0  0  0  0  0  0  0  0  0  0
    3.7320   -4.7942    0.0000 N   0  0  0  0  0  0  0  0  0  0  0  0
    5.4641    1.2058    0.0000 N   0  0  0  0  0  0  0  0  0  0  0  0
    5.8301    4.2446    0.0000 N   0  0  0  0  0  0  0  0  0  0  0  0
    7.1391    3.2935    0.0000 N   0  0  0  0  0  0  0  0  0  0  0  0
    6.8301    4.2446    0.0000 N   0  0  0  0  0  0  0  0  0  0  0  0
    4.5981   -3.2942    0.0000 C   0  0  0  0  0  0  0  0  0  0  0  0
    2.8660   -3.2942    0.0000 C   0  0  0  0  0  0  0  0  0  0  0  0
    4.5981   -4.2942    0.0000 C   0  0  0  0  0  0  0  0  0  0  0  0
    2.8660   -4.2942    0.0000 C   0  0  0  0  0  0  0  0  0  0  0  0
    3.7320   -1.7942    0.0000 C   0  0  0  0  0  0  0  0  0  0  0  0
    4.5981   -1.2942    0.0000 C   0  0  0  0  0  0  0  0  0  0  0  0
    3.7320   -5.7942    0.0000 C   0  0  0  0  0  0  0  0  0  0  0  0
    4.5981   -0.2942    0.0000 C   0  0  0  0  0  0  0  0  0  0  0  0
    5.4641    0.2058    0.0000 C   0  0  0  0  0  0  0  0  0  0  0  0
    2.8660   -6.2942    0.0000 C   0  0  0  0  0  0  0  0  0  0  0  0
    4.5981   -6.2942    0.0000 C   0  0  0  0  0  0  0  0  0  0  0  0
    2.8660   -7.2942    0.0000 C   0  0  0  0  0  0  0  0  0  0  0  0
    4.5981   -7.2942    0.0000 C   0  0  0  0  0  0  0  0  0  0  0  0
    3.7320   -7.7942    0.0000 C   0  0  0  0  0  0  0  0  0  0  0  0
    6.3301    1.7058    0.0000 C   0  0  0  0  0  0  0  0  0  0  0  0
    6.3301    2.7058    0.0000 C   0  0  0  0  0  0  0  0  0  0  0  0
    5.5211    3.2935    0.0000 C   0  0  0  0  0  0  0  0  0  0  0  0
    5.2423    5.0536    0.0000 C   0  0  0  0  0  0  0  0  0  0  0  0
    4.5700    2.9845    0.0000 C   0  0  0  0  0  0  0  0  0  0  0  0
    5.6491    5.9672    0.0000 C   0  0  0  0  0  0  0  0  0  0  0  0
    6.6436    6.0717    0.0000 C   0  0  0  0  0  0  0  0  0  0  0  0
    5.0613    6.7762    0.0000 C   0  0  0  0  0  0  0  0  0  0  0  0
    7.0503    6.9852    0.0000 C   0  0  0  0  0  0  0  0  0  0  0  0
    5.4680    7.6897    0.0000 C   0  0  0  0  0  0  0  0  0  0  0  0
    6.4626    7.7942    0.0000 C   0  0  0  0  0  0  0  0  0  0  0  0
    5.2087   -3.4019    0.0000 H   0  0  0  0  0  0  0  0  0  0  0  0
    4.8101   -2.7116    0.0000 H   0  0  0  0  0  0  0  0  0  0  0  0
    2.6540   -2.7116    0.0000 H   0  0  0  0  0  0  0  0  0  0  0  0
    2.2554   -3.4019    0.0000 H   0  0  0  0  0  0  0  0  0  0  0  0
    4.8101   -4.8769    0.0000 H   0  0  0  0  0  0  0  0  0  0  0  0
    5.2087   -4.1866    0.0000 H   0  0  0  0  0  0  0  0  0  0  0  0
    2.2554   -4.1866    0.0000 H   0  0  0  0  0  0  0  0  0  0  0  0
    2.6540   -4.8769    0.0000 H   0  0  0  0  0  0  0  0  0  0  0  0
    3.5200   -1.2116    0.0000 H   0  0  0  0  0  0  0  0  0  0  0  0
    3.1215   -1.9019    0.0000 H   0  0  0  0  0  0  0  0  0  0  0  0
    4.8101   -1.8769    0.0000 H   0  0  0  0  0  0  0  0  0  0  0  0
    5.2087   -1.1866    0.0000 H   0  0  0  0  0  0  0  0  0  0  0  0
    4.3860    0.2884    0.0000 H   0  0  0  0  0  0  0  0  0  0  0  0
    3.9875   -0.4019    0.0000 H   0  0  0  0  0  0  0  0  0  0  0  0
    5.6762   -0.3769    0.0000 H   0  0  0  0  0  0  0  0  0  0  0  0
    6.0747    0.3134    0.0000 H   0  0  0  0  0  0  0  0  0  0  0  0
    5.1350   -5.9842    0.0000 H   0  0  0  0  0  0  0  0  0  0  0  0
    4.9272    1.5158    0.0000 H   0  0  0  0  0  0  0  0  0  0  0  0
    5.1350   -7.6042    0.0000 H   0  0  0  0  0  0  0  0  0  0  0  0
    3.7320   -8.4142    0.0000 H   0  0  0  0  0  0  0  0  0  0  0  0
    4.7283    5.4003    0.0000 H   0  0  0  0  0  0  0  0  0  0  0  0
    4.8116    4.6076    0.0000 H   0  0  0  0  0  0  0  0  0  0  0  0
    4.3785    3.5742    0.0000 H   0  0  0  0  0  0  0  0  0  0  0  0
    3.9804    2.7929    0.0000 H   0  0  0  0  0  0  0  0  0  0  0  0
    4.7616    2.3949    0.0000 H   0  0  0  0  0  0  0  0  0  0  0  0
    7.0080    5.5701    0.0000 H   0  0  0  0  0  0  0  0  0  0  0  0
    4.4447    6.7114    0.0000 H   0  0  0  0  0  0  0  0  0  0  0  0
    7.6669    7.0500    0.0000 H   0  0  0  0  0  0  0  0  0  0  0  0
    5.1036    8.1913    0.0000 H   0  0  0  0  0  0  0  0  0  0  0  0
    6.7147    8.3606    0.0000 H   0  0  0  0  0  0  0  0  0  0  0  0
  1 19  1  0  0  0  0
  2 21  1  0  0  0  0
  3 24  2  0  0  0  0
  4 10  1  0  0  0  0
  4 11  1  0  0  0  0
  4 14  1  0  0  0  0
  5 12  1  0  0  0  0
  5 13  1  0  0  0  0
  5 16  1  0  0  0  0
  6 18  1  0  0  0  0
  6 24  1  0  0  0  0
  6 52  1  0  0  0  0
  7  9  1  0  0  0  0
  7 26  1  0  0  0  0
  7 27  1  0  0  0  0
  8  9  2  0  0  0  0
  8 25  1  0  0  0  0
 10 12  1  0  0  0  0
 10 35  1  0  0  0  0
 10 36  1  0  0  0  0
 11 13  1  0  0  0  0
 11 37  1  0  0  0  0
 11 38  1  0  0  0  0
 12 39  1  0  0  0  0
 12 40  1  0  0  0  0
 13 41  1  0  0  0  0
 13 42  1  0  0  0  0
 14 15  1  0  0  0  0
 14 43  1  0  0  0  0
 14 44  1  0  0  0  0
 15 17  1  0  0  0  0
 15 45  1  0  0  0  0
 15 46  1  0  0  0  0
 16 19  2  0  0  0  0
 16 20  1  0  0  0  0
 17 18  1  0  0  0  0
 17 47  1  0  0  0  0
 17 48  1  0  0  0  0
 18 49  1  0  0  0  0
 18 50  1  0  0  0  0
 19 21  1  0  0  0  0
 20 22  2  0  0  0  0
 20 51  1  0  0  0  0
 21 23  2  0  0  0  0
 22 23  1  0  0  0  0
 22 53  1  0  0  0  0
 23 54  1  0  0  0  0
 24 25  1  0  0  0  0
 25 26  2  0  0  0  0
 26 28  1  0  0  0  0
 27 29  1  0  0  0  0
 27 55  1  0  0  0  0
 27 56  1  0  0  0  0
 28 57  1  0  0  0  0
 28 58  1  0  0  0  0
 28 59  1  0  0  0  0
 29 30  2  0  0  0  0
 29 31  1  0  0  0  0
 30 32  1  0  0  0  0
 30 60  1  0  0  0  0
 31 33  2  0  0  0  0
 31 61  1  0  0  0  0
 32 34  2  0  0  0  0
 32 62  1  0  0  0  0
 33 34  1  0  0  0  0
 33 63  1  0  0  0  0
 34 64  1  0  0  0  0
M  END
> <PUBCHEM_COMPOUND_CID>
11569619

> <PUBCHEM_COMPOUND_CANONICALIZED>
1

> <PUBCHEM_CACTVS_COMPLEXITY>
629

> <PUBCHEM_CACTVS_HBOND_ACCEPTOR>
5

> <PUBCHEM_CACTVS_HBOND_DONOR>
1

> <PUBCHEM_CACTVS_ROTATABLE_BOND>
9

> <PUBCHEM_CACTVS_SUBSKEYS>
AAADceB7oAAGAAAAAAAAAAAAAAAAAWAAAAA8YIAAAAAAAAAB0AAAHgIYAAAADArBniQywJPIAACqAyVyVACCBAQnlwAY2sG4dsgIYDrB05HUIYhglgDIyUcQgAAOAAAAAAIAABQAAAAABAAAKAAAAAAAAA==

> <PUBCHEM_IUPAC_OPENEYE_NAME>
1-benzyl-N-[4-[4-(2,3-dichlorophenyl)piperazin-1-yl]butyl]-5-methyl-triazole-4-carboxamide

> <PUBCHEM_IUPAC_CAS_NAME>
N-[4-[4-(2,3-dichlorophenyl)-1-piperazinyl]butyl]-5-methyl-1-(phenylmethyl)-4-triazolecarboxamide

> <PUBCHEM_IUPAC_NAME_MARKUP>
1-benzyl-<I>N</I>-[4-[4-(2,3-dichlorophenyl)piperazin-1-yl]butyl]-5-methyltriazole-4-carboxamide

> <PUBCHEM_IUPAC_NAME>
1-benzyl-N-[4-[4-(2,3-dichlorophenyl)piperazin-1-yl]butyl]-5-methyltriazole-4-carboxamide

> <PUBCHEM_IUPAC_SYSTEMATIC_NAME>
N-[4-[4-[2,3-bis(chloranyl)phenyl]piperazin-1-yl]butyl]-5-methyl-1-(phenylmethyl)-1,2,3-triazole-4-carboxamide

> <PUBCHEM_IUPAC_TRADITIONAL_NAME>
1-benzyl-N-[4-[4-(2,3-dichlorophenyl)piperazino]butyl]-5-methyl-triazole-4-carboxamide

> <PUBCHEM_IUPAC_INCHI>
InChI=1S/C25H30Cl2N6O/c1-19-24(29-30-33(19)18-20-8-3-2-4-9-20)25(34)28-12-5-6-13-31-14-16-32(17-15-31)22-11-7-10-21(26)23(22)27/h2-4,7-11H,5-6,12-18H2,1H3,(H,28,34)

> <PUBCHEM_IUPAC_INCHIKEY>
AARWRAFDYZSYPD-UHFFFAOYSA-N

> <PUBCHEM_XLOGP3_AA>
4.9

> <PUBCHEM_EXACT_MASS>
500.1858150

> <PUBCHEM_MOLECULAR_FORMULA>
C25H30Cl2N6O

> <PUBCHEM_MOLECULAR_WEIGHT>
501.4

> <PUBCHEM_OPENEYE_CAN_SMILES>
CC1=C(N=NN1CC2=CC=CC=C2)C(=O)NCCCCN3CCN(CC3)C4=C(C(=CC=C4)Cl)Cl

> <PUBCHEM_OPENEYE_ISO_SMILES>
CC1=C(N=NN1CC2=CC=CC=C2)C(=O)NCCCCN3CCN(CC3)C4=C(C(=CC=C4)Cl)Cl

> <PUBCHEM_CACTVS_TPSA>
66.3

> <PUBCHEM_MONOISOTOPIC_WEIGHT>
500.1858150

> <PUBCHEM_TOTAL_CHARGE>
0

> <PUBCHEM_HEAVY_ATOM_COUNT>
34

> <PUBCHEM_ATOM_DEF_STEREO_COUNT>
0

> <PUBCHEM_ATOM_UDEF_STEREO_COUNT>
0

> <PUBCHEM_BOND_DEF_STEREO_COUNT>
0

> <PUBCHEM_BOND_UDEF_STEREO_COUNT>
0

> <PUBCHEM_ISOTOPIC_ATOM_COUNT>
0

> <PUBCHEM_COMPONENT_COUNT>
1

> <PUBCHEM_CACTVS_TAUTO_COUNT>
-1

> <PUBCHEM_COORDINATE_TYPE>
1
5
255

> <PUBCHEM_BONDANNOTATIONS>
16  19  8
16  20  8
19  21  8
20  22  8
21  23  8
22  23  8
25  26  8
29  30  8
29  31  8
30  32  8
31  33  8
32  34  8
33  34  8
7  26  8
7  9  8
8  25  8
8  9  8

$$$$
