76333011
  -OEChem-09292321592D

116123  0     1  0  0  0  0  0999 V2000
   24.6514    1.2321    0.0000 O   0  0  0  0  0  0  0  0  0  0  0  0
    6.3637   -1.2321    0.0000 O   0  0  0  0  0  0  0  0  0  0  0  0
   22.8697    0.2216    0.0000 O   0  0  0  0  0  0  0  0  0  0  0  0
    8.1455   -0.2216    0.0000 O   0  0  0  0  0  0  0  0  0  0  0  0
   18.5338   -1.2617    0.0000 O   0  0  0  0  0  0  0  0  0  0  0  0
   12.4813    1.2617    0.0000 O   0  0  0  0  0  0  0  0  0  0  0  0
   28.1241   -1.7995    0.0000 N   0  0  3  0  0  0  0  0  0  0  0  0
    2.8911    1.7995    0.0000 N   0  0  3  0  0  0  0  0  0  0  0  0
   19.4056    0.2350    0.0000 N   0  0  0  0  0  0  0  0  0  0  0  0
   11.6095   -0.2350    0.0000 N   0  0  0  0  0  0  0  0  0  0  0  0
   27.2659   -1.3025    0.0000 C   0  0  1  0  0  0  0  0  0  0  0  0
    3.7493    1.3025    0.0000 C   0  0  1  0  0  0  0  0  0  0  0  0
   27.2659   -0.3025    0.0000 C   0  0  0  0  0  0  0  0  0  0  0  0
    3.7493    0.3025    0.0000 C   0  0  0  0  0  0  0  0  0  0  0  0
   26.3998   -1.8025    0.0000 C   0  0  0  0  0  0  0  0  0  0  0  0
    4.6153    1.8025    0.0000 C   0  0  0  0  0  0  0  0  0  0  0  0
   28.1759    0.2043    0.0000 C   0  0  0  0  0  0  0  0  0  0  0  0
    2.8393   -0.2043    0.0000 C   0  0  0  0  0  0  0  0  0  0  0  0
   28.9896   -1.3153    0.0000 C   0  0  0  0  0  0  0  0  0  0  0  0
    2.0256    1.3153    0.0000 C   0  0  0  0  0  0  0  0  0  0  0  0
   29.0152   -0.3239    0.0000 C   0  0  0  0  0  0  0  0  0  0  0  0
    2.0000    0.3239    0.0000 C   0  0  0  0  0  0  0  0  0  0  0  0
   26.3998    0.1975    0.0000 C   0  0  0  0  0  0  0  0  0  0  0  0
    4.6153   -0.1975    0.0000 C   0  0  0  0  0  0  0  0  0  0  0  0
   25.5338   -1.3025    0.0000 C   0  0  0  0  0  0  0  0  0  0  0  0
    5.4814    1.3025    0.0000 C   0  0  0  0  0  0  0  0  0  0  0  0
   25.5338   -0.3025    0.0000 C   0  0  0  0  0  0  0  0  0  0  0  0
    5.4814    0.3025    0.0000 C   0  0  0  0  0  0  0  0  0  0  0  0
   28.1167   -2.7994    0.0000 C   0  0  0  0  0  0  0  0  0  0  0  0
    2.8985    2.7994    0.0000 C   0  0  0  0  0  0  0  0  0  0  0  0
   28.1839    1.2459    0.0000 C   0  0  0  0  0  0  0  0  0  0  0  0
    2.8313   -1.2459    0.0000 C   0  0  0  0  0  0  0  0  0  0  0  0
   26.3838    1.2390    0.0000 C   0  0  0  0  0  0  0  0  0  0  0  0
    4.6314   -1.2390    0.0000 C   0  0  0  0  0  0  0  0  0  0  0  0
   24.6399    0.2321    0.0000 C   0  0  0  0  0  0  0  0  0  0  0  0
    6.3753   -0.2321    0.0000 C   0  0  0  0  0  0  0  0  0  0  0  0
   24.6399   -1.8372    0.0000 C   0  0  0  0  0  0  0  0  0  0  0  0
    6.3753    1.8372    0.0000 C   0  0  0  0  0  0  0  0  0  0  0  0
   27.2818    1.7667    0.0000 C   0  0  0  0  0  0  0  0  0  0  0  0
    3.7334   -1.7667    0.0000 C   0  0  0  0  0  0  0  0  0  0  0  0
   23.7338   -0.2817    0.0000 C   0  0  0  0  0  0  0  0  0  0  0  0
    7.2814    0.2817    0.0000 C   0  0  0  0  0  0  0  0  0  0  0  0
   23.7338   -1.3233    0.0000 C   0  0  0  0  0  0  0  0  0  0  0  0
    7.2814    1.3233    0.0000 C   0  0  0  0  0  0  0  0  0  0  0  0
   22.0018   -0.2750    0.0000 C   0  0  0  0  0  0  0  0  0  0  0  0
    9.0134    0.2750    0.0000 C   0  0  0  0  0  0  0  0  0  0  0  0
   21.1377    0.2283    0.0000 C   0  0  0  0  0  0  0  0  0  0  0  0
    9.8775   -0.2283    0.0000 C   0  0  0  0  0  0  0  0  0  0  0  0
   20.2697   -0.2684    0.0000 C   0  0  0  0  0  0  0  0  0  0  0  0
   10.7455    0.2684    0.0000 C   0  0  0  0  0  0  0  0  0  0  0  0
   15.9416    0.2483    0.0000 C   0  0  0  0  0  0  0  0  0  0  0  0
   15.0736   -0.2483    0.0000 C   0  0  0  0  0  0  0  0  0  0  0  0
   16.8057   -0.2550    0.0000 C   0  0  0  0  0  0  0  0  0  0  0  0
   14.2095    0.2550    0.0000 C   0  0  0  0  0  0  0  0  0  0  0  0
   17.6736    0.2417    0.0000 C   0  0  0  0  0  0  0  0  0  0  0  0
   13.3416   -0.2417    0.0000 C   0  0  0  0  0  0  0  0  0  0  0  0
   18.5377   -0.2617    0.0000 C   0  0  0  0  0  0  0  0  0  0  0  0
   12.4775    0.2617    0.0000 C   0  0  0  0  0  0  0  0  0  0  0  0
   27.2653   -2.1525    0.0000 H   0  0  0  0  0  0  0  0  0  0  0  0
    3.7498    2.1525    0.0000 H   0  0  0  0  0  0  0  0  0  0  0  0
   26.0013   -2.2775    0.0000 H   0  0  0  0  0  0  0  0  0  0  0  0
   26.7984   -2.2775    0.0000 H   0  0  0  0  0  0  0  0  0  0  0  0
    5.0139    2.2775    0.0000 H   0  0  0  0  0  0  0  0  0  0  0  0
    4.2168    2.2775    0.0000 H   0  0  0  0  0  0  0  0  0  0  0  0
   29.1913   -1.9015    0.0000 H   0  0  0  0  0  0  0  0  0  0  0  0
   29.6023   -1.2209    0.0000 H   0  0  0  0  0  0  0  0  0  0  0  0
    1.8239    1.9015    0.0000 H   0  0  0  0  0  0  0  0  0  0  0  0
    1.4128    1.2209    0.0000 H   0  0  0  0  0  0  0  0  0  0  0  0
   29.6223   -0.4498    0.0000 H   0  0  0  0  0  0  0  0  0  0  0  0
   29.2469    0.2511    0.0000 H   0  0  0  0  0  0  0  0  0  0  0  0
    1.3929    0.4498    0.0000 H   0  0  0  0  0  0  0  0  0  0  0  0
    1.7682   -0.2511    0.0000 H   0  0  0  0  0  0  0  0  0  0  0  0
   27.4967   -2.7948    0.0000 H   0  0  0  0  0  0  0  0  0  0  0  0
   28.1121   -3.4194    0.0000 H   0  0  0  0  0  0  0  0  0  0  0  0
   28.7367   -2.8040    0.0000 H   0  0  0  0  0  0  0  0  0  0  0  0
    3.5185    2.7948    0.0000 H   0  0  0  0  0  0  0  0  0  0  0  0
    2.9031    3.4194    0.0000 H   0  0  0  0  0  0  0  0  0  0  0  0
    2.2785    2.8040    0.0000 H   0  0  0  0  0  0  0  0  0  0  0  0
   28.7220    1.5538    0.0000 H   0  0  0  0  0  0  0  0  0  0  0  0
    2.2932   -1.5538    0.0000 H   0  0  0  0  0  0  0  0  0  0  0  0
   25.8433    1.5428    0.0000 H   0  0  0  0  0  0  0  0  0  0  0  0
    5.1719   -1.5428    0.0000 H   0  0  0  0  0  0  0  0  0  0  0  0
   24.6470   -2.4572    0.0000 H   0  0  0  0  0  0  0  0  0  0  0  0
    6.3681    2.4572    0.0000 H   0  0  0  0  0  0  0  0  0  0  0  0
   27.2794    2.3867    0.0000 H   0  0  0  0  0  0  0  0  0  0  0  0
    3.7358   -2.3867    0.0000 H   0  0  0  0  0  0  0  0  0  0  0  0
   23.1981   -1.6354    0.0000 H   0  0  0  0  0  0  0  0  0  0  0  0
    7.8171    1.6354    0.0000 H   0  0  0  0  0  0  0  0  0  0  0  0
   24.1181    1.5483    0.0000 H   0  0  0  0  0  0  0  0  0  0  0  0
    6.8971   -1.5483    0.0000 H   0  0  0  0  0  0  0  0  0  0  0  0
   21.6014   -0.7484    0.0000 H   0  0  0  0  0  0  0  0  0  0  0  0
   22.3985   -0.7515    0.0000 H   0  0  0  0  0  0  0  0  0  0  0  0
    9.4138    0.7484    0.0000 H   0  0  0  0  0  0  0  0  0  0  0  0
    8.6167    0.7515    0.0000 H   0  0  0  0  0  0  0  0  0  0  0  0
   21.5380    0.7017    0.0000 H   0  0  0  0  0  0  0  0  0  0  0  0
   20.7410    0.7048    0.0000 H   0  0  0  0  0  0  0  0  0  0  0  0
    9.4772   -0.7017    0.0000 H   0  0  0  0  0  0  0  0  0  0  0  0
   10.2742   -0.7048    0.0000 H   0  0  0  0  0  0  0  0  0  0  0  0
   19.8694   -0.7418    0.0000 H   0  0  0  0  0  0  0  0  0  0  0  0
   20.6664   -0.7448    0.0000 H   0  0  0  0  0  0  0  0  0  0  0  0
   11.1458    0.7418    0.0000 H   0  0  0  0  0  0  0  0  0  0  0  0
   10.3488    0.7448    0.0000 H   0  0  0  0  0  0  0  0  0  0  0  0
   19.4080    0.8550    0.0000 H   0  0  0  0  0  0  0  0  0  0  0  0
   11.6072   -0.8550    0.0000 H   0  0  0  0  0  0  0  0  0  0  0  0
   16.3419    0.7217    0.0000 H   0  0  0  0  0  0  0  0  0  0  0  0
   15.5449    0.7248    0.0000 H   0  0  0  0  0  0  0  0  0  0  0  0
   14.6733   -0.7217    0.0000 H   0  0  0  0  0  0  0  0  0  0  0  0
   15.4703   -0.7248    0.0000 H   0  0  0  0  0  0  0  0  0  0  0  0
   16.4053   -0.7284    0.0000 H   0  0  0  0  0  0  0  0  0  0  0  0
   17.2024   -0.7315    0.0000 H   0  0  0  0  0  0  0  0  0  0  0  0
   14.6099    0.7284    0.0000 H   0  0  0  0  0  0  0  0  0  0  0  0
   13.8128    0.7315    0.0000 H   0  0  0  0  0  0  0  0  0  0  0  0
   18.0740    0.7151    0.0000 H   0  0  0  0  0  0  0  0  0  0  0  0
   17.2769    0.7181    0.0000 H   0  0  0  0  0  0  0  0  0  0  0  0
   12.9412   -0.7151    0.0000 H   0  0  0  0  0  0  0  0  0  0  0  0
   13.7383   -0.7181    0.0000 H   0  0  0  0  0  0  0  0  0  0  0  0
  1 35  1  0  0  0  0
  1 89  1  0  0  0  0
  2 36  1  0  0  0  0
  2 90  1  0  0  0  0
  3 41  1  0  0  0  0
  3 45  1  0  0  0  0
  4 42  1  0  0  0  0
  4 46  1  0  0  0  0
  5 57  2  0  0  0  0
  6 58  2  0  0  0  0
  7 11  1  0  0  0  0
  7 19  1  0  0  0  0
  7 29  1  0  0  0  0
  8 12  1  0  0  0  0
  8 20  1  0  0  0  0
  8 30  1  0  0  0  0
  9 49  1  0  0  0  0
  9 57  1  0  0  0  0
  9103  1  0  0  0  0
 10 50  1  0  0  0  0
 10 58  1  0  0  0  0
 10104  1  0  0  0  0
 11 13  1  0  0  0  0
 11 15  1  0  0  0  0
 11 59  1  1  0  0  0
 12 14  1  0  0  0  0
 12 16  1  0  0  0  0
 12 60  1  1  0  0  0
 13 17  2  0  0  0  0
 13 23  1  0  0  0  0
 14 18  2  0  0  0  0
 14 24  1  0  0  0  0
 15 25  1  0  0  0  0
 15 61  1  0  0  0  0
 15 62  1  0  0  0  0
 16 26  1  0  0  0  0
 16 63  1  0  0  0  0
 16 64  1  0  0  0  0
 17 21  1  0  0  0  0
 17 31  1  0  0  0  0
 18 22  1  0  0  0  0
 18 32  1  0  0  0  0
 19 21  1  0  0  0  0
 19 65  1  0  0  0  0
 19 66  1  0  0  0  0
 20 22  1  0  0  0  0
 20 67  1  0  0  0  0
 20 68  1  0  0  0  0
 21 69  1  0  0  0  0
 21 70  1  0  0  0  0
 22 71  1  0  0  0  0
 22 72  1  0  0  0  0
 23 27  1  0  0  0  0
 23 33  2  0  0  0  0
 24 28  1  0  0  0  0
 24 34  2  0  0  0  0
 25 27  2  0  0  0  0
 25 37  1  0  0  0  0
 26 28  2  0  0  0  0
 26 38  1  0  0  0  0
 27 35  1  0  0  0  0
 28 36  1  0  0  0  0
 29 73  1  0  0  0  0
 29 74  1  0  0  0  0
 29 75  1  0  0  0  0
 30 76  1  0  0  0  0
 30 77  1  0  0  0  0
 30 78  1  0  0  0  0
 31 39  2  0  0  0  0
 31 79  1  0  0  0  0
 32 40  2  0  0  0  0
 32 80  1  0  0  0  0
 33 39  1  0  0  0  0
 33 81  1  0  0  0  0
 34 40  1  0  0  0  0
 34 82  1  0  0  0  0
 35 41  2  0  0  0  0
 36 42  2  0  0  0  0
 37 43  2  0  0  0  0
 37 83  1  0  0  0  0
 38 44  2  0  0  0  0
 38 84  1  0  0  0  0
 39 85  1  0  0  0  0
 40 86  1  0  0  0  0
 41 43  1  0  0  0  0
 42 44  1  0  0  0  0
 43 87  1  0  0  0  0
 44 88  1  0  0  0  0
 45 47  1  0  0  0  0
 45 91  1  0  0  0  0
 45 92  1  0  0  0  0
 46 48  1  0  0  0  0
 46 93  1  0  0  0  0
 46 94  1  0  0  0  0
 47 49  1  0  0  0  0
 47 95  1  0  0  0  0
 47 96  1  0  0  0  0
 48 50  1  0  0  0  0
 48 97  1  0  0  0  0
 48 98  1  0  0  0  0
 49 99  1  0  0  0  0
 49100  1  0  0  0  0
 50101  1  0  0  0  0
 50102  1  0  0  0  0
 51 52  1  0  0  0  0
 51 53  1  0  0  0  0
 51105  1  0  0  0  0
 51106  1  0  0  0  0
 52 54  1  0  0  0  0
 52107  1  0  0  0  0
 52108  1  0  0  0  0
 53 55  1  0  0  0  0
 53109  1  0  0  0  0
 53110  1  0  0  0  0
 54 56  1  0  0  0  0
 54111  1  0  0  0  0
 54112  1  0  0  0  0
 55 57  1  0  0  0  0
 55113  1  0  0  0  0
 55114  1  0  0  0  0
 56 58  1  0  0  0  0
 56115  1  0  0  0  0
 56116  1  0  0  0  0
M  END
> <PUBCHEM_COMPOUND_CID>
76333011

> <PUBCHEM_COMPOUND_CANONICALIZED>
1

> <PUBCHEM_CACTVS_COMPLEXITY>
1240

> <PUBCHEM_CACTVS_HBOND_ACCEPTOR>
8

> <PUBCHEM_CACTVS_HBOND_DONOR>
4

> <PUBCHEM_CACTVS_ROTATABLE_BOND>
17

> <PUBCHEM_CACTVS_SUBSKEYS>
AAADcfB/uAAAAAAAAAAAAAAAAAAAAAAAAAA8eMGDAAAAAADxVAAAHgAQCAAADCzhmAYyBoPABgCIAiFSEACCCAAgIAAIiIEOjIgNJjKGsRuGeCvm1hGLuAeY2POOoAADAAAYQADQAAaAADSAAAAAAAAAAA==

> <PUBCHEM_IUPAC_OPENEYE_NAME>
N,N'-bis[3-[[(6aR)-11-hydroxy-6-methyl-5,6,6a,7-tetrahydro-4H-dibenzo[de,g]quinolin-10-yl]oxy]propyl]octanediamide

> <PUBCHEM_IUPAC_CAS_NAME>
N,N'-bis[3-[[(6aR)-11-hydroxy-6-methyl-5,6,6a,7-tetrahydro-4H-dibenzo[de,g]quinolin-10-yl]oxy]propyl]octanediamide

> <PUBCHEM_IUPAC_NAME_MARKUP>
<I>N</I>,<I>N</I>&apos;-bis[3-[[(6<I>a</I><I>R</I>)-11-hydroxy-6-methyl-5,6,6<I>a</I>,7-tetrahydro-4<I>H</I>-dibenzo[de,g]quinolin-10-yl]oxy]propyl]octanediamide

> <PUBCHEM_IUPAC_NAME>
N,N'-bis[3-[[(6aR)-11-hydroxy-6-methyl-5,6,6a,7-tetrahydro-4H-dibenzo[de,g]quinolin-10-yl]oxy]propyl]octanediamide

> <PUBCHEM_IUPAC_SYSTEMATIC_NAME>
N,N'-bis[3-[[(6aR)-6-methyl-11-oxidanyl-5,6,6a,7-tetrahydro-4H-dibenzo[de,g]quinolin-10-yl]oxy]propyl]octanediamide

> <PUBCHEM_IUPAC_TRADITIONAL_NAME>
N,N'-bis[3-[[(6aR)-11-hydroxy-6-methyl-5,6,6a,7-tetrahydro-4H-dibenzo[de,g]quinolin-10-yl]oxy]propyl]suberamide

> <PUBCHEM_IUPAC_INCHI>
InChI=1S/C48H58N4O6/c1-51-25-21-31-11-7-13-35-43(31)37(51)29-33-17-19-39(47(55)45(33)35)57-27-9-23-49-41(53)15-5-3-4-6-16-42(54)50-24-10-28-58-40-20-18-34-30-38-44-32(22-26-52(38)2)12-8-14-36(44)46(34)48(40)56/h7-8,11-14,17-20,37-38,55-56H,3-6,9-10,15-16,21-30H2,1-2H3,(H,49,53)(H,50,54)/t37-,38-/m1/s1

> <PUBCHEM_IUPAC_INCHIKEY>
NTQMYHKKRHULRZ-XPSQVAKYSA-N

> <PUBCHEM_XLOGP3_AA>
7

> <PUBCHEM_EXACT_MASS>
786.43563558

> <PUBCHEM_MOLECULAR_FORMULA>
C48H58N4O6

> <PUBCHEM_MOLECULAR_WEIGHT>
787.0

> <PUBCHEM_OPENEYE_CAN_SMILES>
CN1CCC2=C3C1CC4=C(C3=CC=C2)C(=C(C=C4)OCCCNC(=O)CCCCCCC(=O)NCCCOC5=C(C6=C(CC7C8=C(CCN7C)C=CC=C86)C=C5)O)O

> <PUBCHEM_OPENEYE_ISO_SMILES>
CN1CCC2=C3[C@H]1CC4=C(C3=CC=C2)C(=C(C=C4)OCCCNC(=O)CCCCCCC(=O)NCCCOC5=C(C6=C(C[C@@H]7C8=C(CCN7C)C=CC=C86)C=C5)O)O

> <PUBCHEM_CACTVS_TPSA>
124

> <PUBCHEM_MONOISOTOPIC_WEIGHT>
786.43563558

> <PUBCHEM_TOTAL_CHARGE>
0

> <PUBCHEM_HEAVY_ATOM_COUNT>
58

> <PUBCHEM_ATOM_DEF_STEREO_COUNT>
2

> <PUBCHEM_ATOM_UDEF_STEREO_COUNT>
0

> <PUBCHEM_BOND_DEF_STEREO_COUNT>
0

> <PUBCHEM_BOND_UDEF_STEREO_COUNT>
0

> <PUBCHEM_ISOTOPIC_ATOM_COUNT>
0

> <PUBCHEM_COMPONENT_COUNT>
1

> <PUBCHEM_CACTVS_TAUTO_COUNT>
-1

> <PUBCHEM_COORDINATE_TYPE>
1
5
255

> <PUBCHEM_BONDANNOTATIONS>
11  59  5
12  60  5
13  17  8
13  23  8
14  18  8
14  24  8
17  31  8
18  32  8
23  33  8
24  34  8
25  27  8
25  37  8
26  28  8
26  38  8
27  35  8
28  36  8
31  39  8
32  40  8
33  39  8
34  40  8
35  41  8
36  42  8
37  43  8
38  44  8
41  43  8
42  44  8

$$$$
