122186385
  -OEChem-09292322362D

 56 58  0     0  0  0  0  0  0999 V2000
   12.2988    3.2087    0.0000 Cl  0  0  0  0  0  0  0  0  0  0  0  0
   15.2988    1.4766    0.0000 Cl  0  0  0  0  0  0  0  0  0  0  0  0
    7.1494    7.6932    0.0000 Cl  0  0  0  0  0  0  0  0  0  0  0  0
    3.2152    4.8794    0.0000 S   0  0  0  0  0  0  0  0  0  0  0  0
    4.7988    2.3426    0.0000 O   0  0  0  0  0  0  0  0  0  0  0  0
    9.2988    1.4766    0.0000 N   0  0  0  0  0  0  0  0  0  0  0  0
   11.2988    1.4766    0.0000 N   0  0  0  0  0  0  0  0  0  0  0  0
    4.7988    4.0747    0.0000 N   0  0  0  0  0  0  0  0  0  0  0  0
    3.2152    3.2700    0.0000 N   0  0  0  0  0  0  0  0  0  0  0  0
    9.7988    0.6106    0.0000 C   0  0  0  0  0  0  0  0  0  0  0  0
    9.7988    2.3426    0.0000 C   0  0  0  0  0  0  0  0  0  0  0  0
   10.7988    0.6106    0.0000 C   0  0  0  0  0  0  0  0  0  0  0  0
   10.7988    2.3426    0.0000 C   0  0  0  0  0  0  0  0  0  0  0  0
    8.2988    1.4766    0.0000 C   0  0  0  0  0  0  0  0  0  0  0  0
    7.7988    2.3426    0.0000 C   0  0  0  0  0  0  0  0  0  0  0  0
   12.2988    1.4766    0.0000 C   0  0  0  0  0  0  0  0  0  0  0  0
    6.7988    2.3426    0.0000 C   0  0  0  0  0  0  0  0  0  0  0  0
    6.2988    3.2087    0.0000 C   0  0  0  0  0  0  0  0  0  0  0  0
   12.7988    2.3426    0.0000 C   0  0  0  0  0  0  0  0  0  0  0  0
   12.7988    0.6106    0.0000 C   0  0  0  0  0  0  0  0  0  0  0  0
    5.2988    3.2087    0.0000 C   0  0  0  0  0  0  0  0  0  0  0  0
   13.7988    2.3426    0.0000 C   0  0  0  0  0  0  0  0  0  0  0  0
   13.7988    0.6106    0.0000 C   0  0  0  0  0  0  0  0  0  0  0  0
   14.2988    1.4766    0.0000 C   0  0  0  0  0  0  0  0  0  0  0  0
    3.7988    4.0747    0.0000 C   0  0  0  0  0  0  0  0  0  0  0  0
    2.2690    4.5747    0.0000 C   0  0  0  0  0  0  0  0  0  0  0  0
    2.2690    3.5747    0.0000 C   0  0  0  0  0  0  0  0  0  0  0  0
    1.4030    5.0747    0.0000 C   0  0  0  0  0  0  0  0  0  0  0  0
    1.4030    3.0747    0.0000 C   0  0  0  0  0  0  0  0  0  0  0  0
    0.5369    4.5747    0.0000 C   0  0  0  0  0  0  0  0  0  0  0  0
    0.5369    3.5747    0.0000 C   0  0  0  0  0  0  0  0  0  0  0  0
    9.2162    0.3985    0.0000 H   0  0  0  0  0  0  0  0  0  0  0  0
    9.9065    0.0000    0.0000 H   0  0  0  0  0  0  0  0  0  0  0  0
    9.9065    2.9532    0.0000 H   0  0  0  0  0  0  0  0  0  0  0  0
    9.2162    2.5547    0.0000 H   0  0  0  0  0  0  0  0  0  0  0  0
   10.6912    0.0000    0.0000 H   0  0  0  0  0  0  0  0  0  0  0  0
   11.3814    0.3985    0.0000 H   0  0  0  0  0  0  0  0  0  0  0  0
   11.3814    2.5547    0.0000 H   0  0  0  0  0  0  0  0  0  0  0  0
   10.6912    2.9532    0.0000 H   0  0  0  0  0  0  0  0  0  0  0  0
    7.7162    1.2646    0.0000 H   0  0  0  0  0  0  0  0  0  0  0  0
    8.4065    0.8660    0.0000 H   0  0  0  0  0  0  0  0  0  0  0  0
    8.3814    2.5547    0.0000 H   0  0  0  0  0  0  0  0  0  0  0  0
    7.6912    2.9532    0.0000 H   0  0  0  0  0  0  0  0  0  0  0  0
    6.2162    2.1306    0.0000 H   0  0  0  0  0  0  0  0  0  0  0  0
    6.9065    1.7320    0.0000 H   0  0  0  0  0  0  0  0  0  0  0  0
    6.8814    3.4207    0.0000 H   0  0  0  0  0  0  0  0  0  0  0  0
    6.1912    3.8192    0.0000 H   0  0  0  0  0  0  0  0  0  0  0  0
   12.4888    0.0736    0.0000 H   0  0  0  0  0  0  0  0  0  0  0  0
   14.1088    2.8796    0.0000 H   0  0  0  0  0  0  0  0  0  0  0  0
   14.1088    0.0736    0.0000 H   0  0  0  0  0  0  0  0  0  0  0  0
    5.1088    4.6116    0.0000 H   0  0  0  0  0  0  0  0  0  0  0  0
    1.4030    5.6947    0.0000 H   0  0  0  0  0  0  0  0  0  0  0  0
    1.4030    2.4547    0.0000 H   0  0  0  0  0  0  0  0  0  0  0  0
    0.0000    4.8847    0.0000 H   0  0  0  0  0  0  0  0  0  0  0  0
    0.0000    3.2647    0.0000 H   0  0  0  0  0  0  0  0  0  0  0  0
    8.1494    7.6932    0.0000 H   0  0  0  0  0  0  0  0  0  0  0  0
  1 19  1  0  0  0  0
  2 24  1  0  0  0  0
  3 56  1  0  0  0  0
  4 25  1  0  0  0  0
  4 26  1  0  0  0  0
  5 21  2  0  0  0  0
  6 10  1  0  0  0  0
  6 11  1  0  0  0  0
  6 14  1  0  0  0  0
  7 12  1  0  0  0  0
  7 13  1  0  0  0  0
  7 16  1  0  0  0  0
  8 21  1  0  0  0  0
  8 25  1  0  0  0  0
  8 51  1  0  0  0  0
  9 25  2  0  0  0  0
  9 27  1  0  0  0  0
 10 12  1  0  0  0  0
 10 32  1  0  0  0  0
 10 33  1  0  0  0  0
 11 13  1  0  0  0  0
 11 34  1  0  0  0  0
 11 35  1  0  0  0  0
 12 36  1  0  0  0  0
 12 37  1  0  0  0  0
 13 38  1  0  0  0  0
 13 39  1  0  0  0  0
 14 15  1  0  0  0  0
 14 40  1  0  0  0  0
 14 41  1  0  0  0  0
 15 17  1  0  0  0  0
 15 42  1  0  0  0  0
 15 43  1  0  0  0  0
 16 19  2  0  0  0  0
 16 20  1  0  0  0  0
 17 18  1  0  0  0  0
 17 44  1  0  0  0  0
 17 45  1  0  0  0  0
 18 21  1  0  0  0  0
 18 46  1  0  0  0  0
 18 47  1  0  0  0  0
 19 22  1  0  0  0  0
 20 23  2  0  0  0  0
 20 48  1  0  0  0  0
 22 24  2  0  0  0  0
 22 49  1  0  0  0  0
 23 24  1  0  0  0  0
 23 50  1  0  0  0  0
 26 27  1  0  0  0  0
 26 28  2  0  0  0  0
 27 29  2  0  0  0  0
 28 30  1  0  0  0  0
 28 52  1  0  0  0  0
 29 31  1  0  0  0  0
 29 53  1  0  0  0  0
 30 31  2  0  0  0  0
 30 54  1  0  0  0  0
 31 55  1  0  0  0  0
M  END
> <PUBCHEM_COMPOUND_CID>
122186385

> <PUBCHEM_COMPOUND_CANONICALIZED>
1

> <PUBCHEM_CACTVS_COMPLEXITY>
563

> <PUBCHEM_CACTVS_HBOND_ACCEPTOR>
5

> <PUBCHEM_CACTVS_HBOND_DONOR>
2

> <PUBCHEM_CACTVS_ROTATABLE_BOND>
7

> <PUBCHEM_CACTVS_SUBSKEYS>
AAADceB7oABGAAAAAAAAAAAAAAAAAWAAAAA8YIAAAAAAAFgB9AAAHgYQAAAACArB1iQx0bPIEAisASVydACD8KlhDzlJmD04ZpiIYLLhm5HUIAhokQLIyCcYAQAAAABAAACAARAAAIAAAQACIAAAAAAAAA==

> <PUBCHEM_IUPAC_OPENEYE_NAME>
N-(1,3-benzothiazol-2-yl)-5-[4-(2,4-dichlorophenyl)piperazin-1-yl]pentanamide;hydrochloride

> <PUBCHEM_IUPAC_CAS_NAME>
N-(1,3-benzothiazol-2-yl)-5-[4-(2,4-dichlorophenyl)-1-piperazinyl]pentanamide;hydrochloride

> <PUBCHEM_IUPAC_NAME_MARKUP>
<I>N</I>-(1,3-benzothiazol-2-yl)-5-[4-(2,4-dichlorophenyl)piperazin-1-yl]pentanamide;hydrochloride

> <PUBCHEM_IUPAC_NAME>
N-(1,3-benzothiazol-2-yl)-5-[4-(2,4-dichlorophenyl)piperazin-1-yl]pentanamide;hydrochloride

> <PUBCHEM_IUPAC_SYSTEMATIC_NAME>
N-(1,3-benzothiazol-2-yl)-5-[4-(2,4-dichlorophenyl)piperazin-1-yl]pentanamide;hydrochloride

> <PUBCHEM_IUPAC_TRADITIONAL_NAME>
N-(1,3-benzothiazol-2-yl)-5-[4-(2,4-dichlorophenyl)piperazino]valeramide;hydrochloride

> <PUBCHEM_IUPAC_INCHI>
InChI=1S/C22H24Cl2N4OS.ClH/c23-16-8-9-19(17(24)15-16)28-13-11-27(12-14-28)10-4-3-7-21(29)26-22-25-18-5-1-2-6-20(18)30-22;/h1-2,5-6,8-9,15H,3-4,7,10-14H2,(H,25,26,29);1H

> <PUBCHEM_IUPAC_INCHIKEY>
UOVWQDUPAVHBNH-UHFFFAOYSA-N

> <PUBCHEM_EXACT_MASS>
498.081466

> <PUBCHEM_MOLECULAR_FORMULA>
C22H25Cl3N4OS

> <PUBCHEM_MOLECULAR_WEIGHT>
499.9

> <PUBCHEM_OPENEYE_CAN_SMILES>
C1CN(CCN1CCCCC(=O)NC2=NC3=CC=CC=C3S2)C4=C(C=C(C=C4)Cl)Cl.Cl

> <PUBCHEM_OPENEYE_ISO_SMILES>
C1CN(CCN1CCCCC(=O)NC2=NC3=CC=CC=C3S2)C4=C(C=C(C=C4)Cl)Cl.Cl

> <PUBCHEM_CACTVS_TPSA>
76.7

> <PUBCHEM_MONOISOTOPIC_WEIGHT>
498.081466

> <PUBCHEM_TOTAL_CHARGE>
0

> <PUBCHEM_HEAVY_ATOM_COUNT>
31

> <PUBCHEM_ATOM_DEF_STEREO_COUNT>
0

> <PUBCHEM_ATOM_UDEF_STEREO_COUNT>
0

> <PUBCHEM_BOND_DEF_STEREO_COUNT>
0

> <PUBCHEM_BOND_UDEF_STEREO_COUNT>
0

> <PUBCHEM_ISOTOPIC_ATOM_COUNT>
0

> <PUBCHEM_COMPONENT_COUNT>
2

> <PUBCHEM_CACTVS_TAUTO_COUNT>
-1

> <PUBCHEM_COORDINATE_TYPE>
1
5
255

> <PUBCHEM_BONDANNOTATIONS>
16  19  8
16  20  8
19  22  8
20  23  8
22  24  8
23  24  8
26  27  8
26  28  8
27  29  8
28  30  8
29  31  8
30  31  8
4  25  8
4  26  8
9  25  8
9  27  8

$$$$
