44436719
  -OEChem-09292322252D

 68 72  0     1  0  0  0  0  0999 V2000
    4.9889   -1.3910    0.0000 O   0  0  0  0  0  0  0  0  0  0  0  0
    4.9889    2.1195    0.0000 O   0  0  0  0  0  0  0  0  0  0  0  0
   11.4525   -0.8678    0.0000 N   0  0  3  0  0  0  0  0  0  0  0  0
    9.2619   -1.3678    0.0000 N   0  0  3  0  0  0  0  0  0  0  0  0
    5.2619    0.3643    0.0000 N   0  0  0  0  0  0  0  0  0  0  0  0
   10.6707   -0.2443    0.0000 C   0  0  0  0  0  0  0  0  0  0  0  0
    9.6958   -0.4668    0.0000 C   0  0  0  0  0  0  0  0  0  0  0  0
   11.4525   -1.8678    0.0000 C   0  0  0  0  0  0  0  0  0  0  0  0
    9.6958   -2.2687    0.0000 C   0  0  0  0  0  0  0  0  0  0  0  0
   10.6707   -2.4913    0.0000 C   0  0  0  0  0  0  0  0  0  0  0  0
   12.3535   -0.4339    0.0000 C   0  0  0  0  0  0  0  0  0  0  0  0
    8.2619   -1.3678    0.0000 C   0  0  0  0  0  0  0  0  0  0  0  0
    7.7619   -0.5017    0.0000 C   0  0  0  0  0  0  0  0  0  0  0  0
   13.1797   -0.9972    0.0000 C   0  0  0  0  0  0  0  0  0  0  0  0
   12.4282    0.5633    0.0000 C   0  0  0  0  0  0  0  0  0  0  0  0
    6.7619   -0.5017    0.0000 C   0  0  0  0  0  0  0  0  0  0  0  0
    6.2619    0.3643    0.0000 C   0  0  0  0  0  0  0  0  0  0  0  0
   13.1050   -1.9944    0.0000 C   0  0  0  0  0  0  0  0  0  0  0  0
   13.3292    0.9972    0.0000 C   0  0  0  0  0  0  0  0  0  0  0  0
   14.0807   -0.5633    0.0000 C   0  0  0  0  0  0  0  0  0  0  0  0
   11.6020    1.1266    0.0000 C   0  0  0  0  0  0  0  0  0  0  0  0
    4.6783   -0.4404    0.0000 C   0  0  0  0  0  0  0  0  0  0  0  0
    4.6783    1.1690    0.0000 C   0  0  0  0  0  0  0  0  0  0  0  0
   13.9312   -2.5577    0.0000 C   0  0  0  0  0  0  0  0  0  0  0  0
   13.4039    1.9944    0.0000 C   0  0  0  0  0  0  0  0  0  0  0  0
   14.9069   -1.1266    0.0000 C   0  0  0  0  0  0  0  0  0  0  0  0
   11.6767    2.1238    0.0000 C   0  0  0  0  0  0  0  0  0  0  0  0
    3.7320   -0.1357    0.0000 C   0  0  0  0  0  0  0  0  0  0  0  0
    3.7320    0.8643    0.0000 C   0  0  0  0  0  0  0  0  0  0  0  0
   14.8322   -2.1238    0.0000 C   0  0  0  0  0  0  0  0  0  0  0  0
   12.5777    2.5577    0.0000 C   0  0  0  0  0  0  0  0  0  0  0  0
    2.8660   -0.6357    0.0000 C   0  0  0  0  0  0  0  0  0  0  0  0
    2.8660    1.3643    0.0000 C   0  0  0  0  0  0  0  0  0  0  0  0
    2.0000   -0.1357    0.0000 C   0  0  0  0  0  0  0  0  0  0  0  0
    2.0000    0.8643    0.0000 C   0  0  0  0  0  0  0  0  0  0  0  0
   11.1554    0.1423    0.0000 H   0  0  0  0  0  0  0  0  0  0  0  0
   10.4017    0.3143    0.0000 H   0  0  0  0  0  0  0  0  0  0  0  0
    9.6958    0.1532    0.0000 H   0  0  0  0  0  0  0  0  0  0  0  0
    9.0913   -0.3288    0.0000 H   0  0  0  0  0  0  0  0  0  0  0  0
   11.7215   -2.4264    0.0000 H   0  0  0  0  0  0  0  0  0  0  0  0
   12.0570   -1.7298    0.0000 H   0  0  0  0  0  0  0  0  0  0  0  0
    9.0913   -2.4067    0.0000 H   0  0  0  0  0  0  0  0  0  0  0  0
    9.6958   -2.8887    0.0000 H   0  0  0  0  0  0  0  0  0  0  0  0
   10.4017   -3.0499    0.0000 H   0  0  0  0  0  0  0  0  0  0  0  0
   11.1554   -2.8778    0.0000 H   0  0  0  0  0  0  0  0  0  0  0  0
   11.8412   -0.0846    0.0000 H   0  0  0  0  0  0  0  0  0  0  0  0
    7.6793   -1.5798    0.0000 H   0  0  0  0  0  0  0  0  0  0  0  0
    8.3695   -1.9784    0.0000 H   0  0  0  0  0  0  0  0  0  0  0  0
    8.3445   -0.2897    0.0000 H   0  0  0  0  0  0  0  0  0  0  0  0
    7.6542    0.1088    0.0000 H   0  0  0  0  0  0  0  0  0  0  0  0
    6.1793   -0.7138    0.0000 H   0  0  0  0  0  0  0  0  0  0  0  0
    6.8695   -1.1123    0.0000 H   0  0  0  0  0  0  0  0  0  0  0  0
    6.8445    0.5763    0.0000 H   0  0  0  0  0  0  0  0  0  0  0  0
    6.1542    0.9749    0.0000 H   0  0  0  0  0  0  0  0  0  0  0  0
   12.5464   -2.2634    0.0000 H   0  0  0  0  0  0  0  0  0  0  0  0
   13.8415    0.6479    0.0000 H   0  0  0  0  0  0  0  0  0  0  0  0
   14.1270    0.0549    0.0000 H   0  0  0  0  0  0  0  0  0  0  0  0
   11.0434    0.8576    0.0000 H   0  0  0  0  0  0  0  0  0  0  0  0
   13.8849   -3.1760    0.0000 H   0  0  0  0  0  0  0  0  0  0  0  0
   13.9625    2.2634    0.0000 H   0  0  0  0  0  0  0  0  0  0  0  0
   15.4655   -0.8576    0.0000 H   0  0  0  0  0  0  0  0  0  0  0  0
   11.1644    2.4731    0.0000 H   0  0  0  0  0  0  0  0  0  0  0  0
   15.3445   -2.4731    0.0000 H   0  0  0  0  0  0  0  0  0  0  0  0
   12.6240    3.1760    0.0000 H   0  0  0  0  0  0  0  0  0  0  0  0
    2.8660   -1.2557    0.0000 H   0  0  0  0  0  0  0  0  0  0  0  0
    2.8660    1.9843    0.0000 H   0  0  0  0  0  0  0  0  0  0  0  0
    1.4631   -0.4457    0.0000 H   0  0  0  0  0  0  0  0  0  0  0  0
    1.4631    1.1743    0.0000 H   0  0  0  0  0  0  0  0  0  0  0  0
  1 22  2  0  0  0  0
  2 23  2  0  0  0  0
  3  6  1  0  0  0  0
  3  8  1  0  0  0  0
  3 11  1  0  0  0  0
  4  7  1  0  0  0  0
  4  9  1  0  0  0  0
  4 12  1  0  0  0  0
  5 17  1  0  0  0  0
  5 22  1  0  0  0  0
  5 23  1  0  0  0  0
  6  7  1  0  0  0  0
  6 36  1  0  0  0  0
  6 37  1  0  0  0  0
  7 38  1  0  0  0  0
  7 39  1  0  0  0  0
  8 10  1  0  0  0  0
  8 40  1  0  0  0  0
  8 41  1  0  0  0  0
  9 10  1  0  0  0  0
  9 42  1  0  0  0  0
  9 43  1  0  0  0  0
 10 44  1  0  0  0  0
 10 45  1  0  0  0  0
 11 14  1  0  0  0  0
 11 15  1  0  0  0  0
 11 46  1  0  0  0  0
 12 13  1  0  0  0  0
 12 47  1  0  0  0  0
 12 48  1  0  0  0  0
 13 16  1  0  0  0  0
 13 49  1  0  0  0  0
 13 50  1  0  0  0  0
 14 18  2  0  0  0  0
 14 20  1  0  0  0  0
 15 19  2  0  0  0  0
 15 21  1  0  0  0  0
 16 17  1  0  0  0  0
 16 51  1  0  0  0  0
 16 52  1  0  0  0  0
 17 53  1  0  0  0  0
 17 54  1  0  0  0  0
 18 24  1  0  0  0  0
 18 55  1  0  0  0  0
 19 25  1  0  0  0  0
 19 56  1  0  0  0  0
 20 26  2  0  0  0  0
 20 57  1  0  0  0  0
 21 27  2  0  0  0  0
 21 58  1  0  0  0  0
 22 28  1  0  0  0  0
 23 29  1  0  0  0  0
 24 30  2  0  0  0  0
 24 59  1  0  0  0  0
 25 31  2  0  0  0  0
 25 60  1  0  0  0  0
 26 30  1  0  0  0  0
 26 61  1  0  0  0  0
 27 31  1  0  0  0  0
 27 62  1  0  0  0  0
 28 29  1  0  0  0  0
 28 32  2  0  0  0  0
 29 33  2  0  0  0  0
 30 63  1  0  0  0  0
 31 64  1  0  0  0  0
 32 34  1  0  0  0  0
 32 65  1  0  0  0  0
 33 35  1  0  0  0  0
 33 66  1  0  0  0  0
 34 35  2  0  0  0  0
 34 67  1  0  0  0  0
 35 68  1  0  0  0  0
M  END
> <PUBCHEM_COMPOUND_CID>
44436719

> <PUBCHEM_COMPOUND_CANONICALIZED>
1

> <PUBCHEM_CACTVS_COMPLEXITY>
658

> <PUBCHEM_CACTVS_HBOND_ACCEPTOR>
4

> <PUBCHEM_CACTVS_HBOND_DONOR>
0

> <PUBCHEM_CACTVS_ROTATABLE_BOND>
8

> <PUBCHEM_CACTVS_SUBSKEYS>
AAADcfB7MAAAAAAAAAAAAAAAAAAAAWAAAAAwYMAABYAAAFgBUAAAHgAAAAAADCjBmAQwAIMAAACIAiFSEACCAAAkAAAIiAEIBMgIYDKA1RGUIQhghiCIiYcdiMCOgAAAAAAQAAAAAAAAACAAAAAAAAAAAA==

> <PUBCHEM_IUPAC_OPENEYE_NAME>
2-[4-(4-benzhydryl-1,4-diazepan-1-yl)butyl]isoindoline-1,3-dione

> <PUBCHEM_IUPAC_CAS_NAME>
2-[4-[4-(diphenylmethyl)-1,4-diazepan-1-yl]butyl]isoindole-1,3-dione

> <PUBCHEM_IUPAC_NAME_MARKUP>
2-[4-(4-benzhydryl-1,4-diazepan-1-yl)butyl]isoindole-1,3-dione

> <PUBCHEM_IUPAC_NAME>
2-[4-(4-benzhydryl-1,4-diazepan-1-yl)butyl]isoindole-1,3-dione

> <PUBCHEM_IUPAC_SYSTEMATIC_NAME>
2-[4-[4-(diphenylmethyl)-1,4-diazepan-1-yl]butyl]isoindole-1,3-dione

> <PUBCHEM_IUPAC_TRADITIONAL_NAME>
2-[4-(4-benzhydryl-1,4-diazepan-1-yl)butyl]isoindoline-1,3-quinone

> <PUBCHEM_IUPAC_INCHI>
InChI=1S/C30H33N3O2/c34-29-26-16-7-8-17-27(26)30(35)33(29)21-10-9-18-31-19-11-20-32(23-22-31)28(24-12-3-1-4-13-24)25-14-5-2-6-15-25/h1-8,12-17,28H,9-11,18-23H2

> <PUBCHEM_IUPAC_INCHIKEY>
CZRAUIZNVBALPQ-UHFFFAOYSA-N

> <PUBCHEM_XLOGP3_AA>
5

> <PUBCHEM_EXACT_MASS>
467.25727730

> <PUBCHEM_MOLECULAR_FORMULA>
C30H33N3O2

> <PUBCHEM_MOLECULAR_WEIGHT>
467.6

> <PUBCHEM_OPENEYE_CAN_SMILES>
C1CN(CCN(C1)C(C2=CC=CC=C2)C3=CC=CC=C3)CCCCN4C(=O)C5=CC=CC=C5C4=O

> <PUBCHEM_OPENEYE_ISO_SMILES>
C1CN(CCN(C1)C(C2=CC=CC=C2)C3=CC=CC=C3)CCCCN4C(=O)C5=CC=CC=C5C4=O

> <PUBCHEM_CACTVS_TPSA>
43.9

> <PUBCHEM_MONOISOTOPIC_WEIGHT>
467.25727730

> <PUBCHEM_TOTAL_CHARGE>
0

> <PUBCHEM_HEAVY_ATOM_COUNT>
35

> <PUBCHEM_ATOM_DEF_STEREO_COUNT>
0

> <PUBCHEM_ATOM_UDEF_STEREO_COUNT>
0

> <PUBCHEM_BOND_DEF_STEREO_COUNT>
0

> <PUBCHEM_BOND_UDEF_STEREO_COUNT>
0

> <PUBCHEM_ISOTOPIC_ATOM_COUNT>
0

> <PUBCHEM_COMPONENT_COUNT>
1

> <PUBCHEM_CACTVS_TAUTO_COUNT>
-1

> <PUBCHEM_COORDINATE_TYPE>
1
5
255

> <PUBCHEM_BONDANNOTATIONS>
14  18  8
14  20  8
15  19  8
15  21  8
18  24  8
19  25  8
20  26  8
21  27  8
24  30  8
25  31  8
26  30  8
27  31  8
28  29  8
28  32  8
29  33  8
32  34  8
33  35  8
34  35  8

$$$$
