44454278
  -OEChem-09292322492D

 58 62  0     1  0  0  0  0  0999 V2000
   11.5467   -0.4949    0.0000 S   0  0  0  0  0  0  0  0  0  0  0  0
    3.7702    0.2025    0.0000 O   0  0  0  0  0  0  0  0  0  0  0  0
    2.0000    2.2613    0.0000 O   0  0  0  0  0  0  0  0  0  0  0  0
   14.8946   -2.5827    0.0000 O   0  0  0  0  0  0  0  0  0  0  0  0
    8.5467    1.2371    0.0000 N   0  0  3  0  0  0  0  0  0  0  0  0
    3.7702    2.2718    0.0000 N   0  0  0  0  0  0  0  0  0  0  0  0
   13.1345   -1.3040    0.0000 N   0  0  0  0  0  0  0  0  0  0  0  0
   13.1345    0.3141    0.0000 N   0  0  0  0  0  0  0  0  0  0  0  0
   14.0856    0.0051    0.0000 N   0  0  0  0  0  0  0  0  0  0  0  0
   16.4334   -2.0827    0.0000 N   0  0  0  0  0  0  0  0  0  0  0  0
    8.1224    2.1214    0.0000 C   0  0  0  0  0  0  0  0  0  0  0  0
    8.1224    0.3529    0.0000 C   0  0  0  0  0  0  0  0  0  0  0  0
    7.1671    2.3435    0.0000 C   0  0  0  0  0  0  0  0  0  0  0  0
    7.1671    0.1308    0.0000 C   0  0  0  0  0  0  0  0  0  0  0  0
    6.3961    1.7371    0.0000 C   0  0  0  0  0  0  0  0  0  0  0  0
    6.3961    0.7371    0.0000 C   0  0  0  0  0  0  0  0  0  0  0  0
    9.5467    1.2371    0.0000 C   0  0  0  0  0  0  0  0  0  0  0  0
   10.0467    0.3711    0.0000 C   0  0  0  0  0  0  0  0  0  0  0  0
    5.5301    2.2371    0.0000 C   0  0  0  0  0  0  0  0  0  0  0  0
    5.5301    0.2371    0.0000 C   0  0  0  0  0  0  0  0  0  0  0  0
    4.6641    1.7371    0.0000 C   0  0  0  0  0  0  0  0  0  0  0  0
    4.6641    0.7371    0.0000 C   0  0  0  0  0  0  0  0  0  0  0  0
   11.0467    0.3711    0.0000 C   0  0  0  0  0  0  0  0  0  0  0  0
    2.8641    0.7163    0.0000 C   0  0  0  0  0  0  0  0  0  0  0  0
    2.8641    1.7579    0.0000 C   0  0  0  0  0  0  0  0  0  0  0  0
   12.5467   -0.4949    0.0000 C   0  0  0  0  0  0  0  0  0  0  0  0
   14.0856   -0.9949    0.0000 C   0  0  0  0  0  0  0  0  0  0  0  0
   12.8255   -2.2550    0.0000 C   0  0  0  0  0  0  0  0  0  0  0  0
   14.8946   -1.5827    0.0000 C   0  0  0  0  0  0  0  0  0  0  0  0
   15.8457   -1.2737    0.0000 C   0  0  0  0  0  0  0  0  0  0  0  0
   16.1547   -0.3226    0.0000 C   0  0  0  0  0  0  0  0  0  0  0  0
   15.8457   -2.8917    0.0000 C   0  0  0  0  0  0  0  0  0  0  0  0
    8.7271    2.2580    0.0000 H   0  0  0  0  0  0  0  0  0  0  0  0
    8.1243    2.7414    0.0000 H   0  0  0  0  0  0  0  0  0  0  0  0
    8.1243   -0.2671    0.0000 H   0  0  0  0  0  0  0  0  0  0  0  0
    8.7271    0.2163    0.0000 H   0  0  0  0  0  0  0  0  0  0  0  0
    7.4388    2.9007    0.0000 H   0  0  0  0  0  0  0  0  0  0  0  0
    6.6846    2.7328    0.0000 H   0  0  0  0  0  0  0  0  0  0  0  0
    6.6846   -0.2586    0.0000 H   0  0  0  0  0  0  0  0  0  0  0  0
    7.4388   -0.4265    0.0000 H   0  0  0  0  0  0  0  0  0  0  0  0
   10.1293    1.4492    0.0000 H   0  0  0  0  0  0  0  0  0  0  0  0
    9.4391    1.8477    0.0000 H   0  0  0  0  0  0  0  0  0  0  0  0
    9.4641    0.1590    0.0000 H   0  0  0  0  0  0  0  0  0  0  0  0
   10.1544   -0.2395    0.0000 H   0  0  0  0  0  0  0  0  0  0  0  0
    5.5301    2.8571    0.0000 H   0  0  0  0  0  0  0  0  0  0  0  0
    5.5301   -0.3829    0.0000 H   0  0  0  0  0  0  0  0  0  0  0  0
   11.6293    0.5831    0.0000 H   0  0  0  0  0  0  0  0  0  0  0  0
   10.9391    0.9817    0.0000 H   0  0  0  0  0  0  0  0  0  0  0  0
    3.7773    2.8917    0.0000 H   0  0  0  0  0  0  0  0  0  0  0  0
    2.2532    0.8224    0.0000 H   0  0  0  0  0  0  0  0  0  0  0  0
    2.6550    0.1326    0.0000 H   0  0  0  0  0  0  0  0  0  0  0  0
   12.2359   -2.0634    0.0000 H   0  0  0  0  0  0  0  0  0  0  0  0
   12.6339   -2.8447    0.0000 H   0  0  0  0  0  0  0  0  0  0  0  0
   13.4152   -2.4466    0.0000 H   0  0  0  0  0  0  0  0  0  0  0  0
   16.7443   -0.5142    0.0000 H   0  0  0  0  0  0  0  0  0  0  0  0
   16.3463    0.2670    0.0000 H   0  0  0  0  0  0  0  0  0  0  0  0
   15.5650   -0.1311    0.0000 H   0  0  0  0  0  0  0  0  0  0  0  0
   16.0372   -3.4814    0.0000 H   0  0  0  0  0  0  0  0  0  0  0  0
  1 23  1  0  0  0  0
  1 26  1  0  0  0  0
  2 22  1  0  0  0  0
  2 24  1  0  0  0  0
  3 25  2  0  0  0  0
  4 29  1  0  0  0  0
  4 32  1  0  0  0  0
  5 11  1  0  0  0  0
  5 12  1  0  0  0  0
  5 17  1  0  0  0  0
  6 21  1  0  0  0  0
  6 25  1  0  0  0  0
  6 49  1  0  0  0  0
  7 26  1  0  0  0  0
  7 27  1  0  0  0  0
  7 28  1  0  0  0  0
  8  9  1  0  0  0  0
  8 26  2  0  0  0  0
  9 27  2  0  0  0  0
 10 30  1  0  0  0  0
 10 32  2  0  0  0  0
 11 13  1  0  0  0  0
 11 33  1  0  0  0  0
 11 34  1  0  0  0  0
 12 14  1  0  0  0  0
 12 35  1  0  0  0  0
 12 36  1  0  0  0  0
 13 15  1  0  0  0  0
 13 37  1  0  0  0  0
 13 38  1  0  0  0  0
 14 16  1  0  0  0  0
 14 39  1  0  0  0  0
 14 40  1  0  0  0  0
 15 16  1  0  0  0  0
 15 19  2  0  0  0  0
 16 20  2  0  0  0  0
 17 18  1  0  0  0  0
 17 41  1  0  0  0  0
 17 42  1  0  0  0  0
 18 23  1  0  0  0  0
 18 43  1  0  0  0  0
 18 44  1  0  0  0  0
 19 21  1  0  0  0  0
 19 45  1  0  0  0  0
 20 22  1  0  0  0  0
 20 46  1  0  0  0  0
 21 22  2  0  0  0  0
 23 47  1  0  0  0  0
 23 48  1  0  0  0  0
 24 25  1  0  0  0  0
 24 50  1  0  0  0  0
 24 51  1  0  0  0  0
 27 29  1  0  0  0  0
 28 52  1  0  0  0  0
 28 53  1  0  0  0  0
 28 54  1  0  0  0  0
 29 30  2  0  0  0  0
 30 31  1  0  0  0  0
 31 55  1  0  0  0  0
 31 56  1  0  0  0  0
 31 57  1  0  0  0  0
 32 58  1  0  0  0  0
M  END
> <PUBCHEM_COMPOUND_CID>
44454278

> <PUBCHEM_COMPOUND_CANONICALIZED>
1

> <PUBCHEM_CACTVS_COMPLEXITY>
659

> <PUBCHEM_CACTVS_HBOND_ACCEPTOR>
8

> <PUBCHEM_CACTVS_HBOND_DONOR>
1

> <PUBCHEM_CACTVS_ROTATABLE_BOND>
6

> <PUBCHEM_CACTVS_SUBSKEYS>
AAADceB7sABAAAAAAAAAAAAAAAAAAWLAAAA8QAAABYAAAACx8AAAHgQYAAAADAzl3wa31pfMFEiqA6dz9AaS2Ct7YrAV2CH/bJiOLiLk+b+POCjk3BPY6AeQ0LIOqAABQAAQEABQAAKAACAgAAAAAAAAAA==

> <PUBCHEM_IUPAC_OPENEYE_NAME>
8-[3-[[4-methyl-5-(4-methyloxazol-5-yl)-1,2,4-triazol-3-yl]sulfanyl]propyl]-6,7,9,10-tetrahydro-4H-[1,4]oxazino[2,3-h][3]benzazepin-3-one

> <PUBCHEM_IUPAC_CAS_NAME>
8-[3-[[4-methyl-5-(4-methyl-5-oxazolyl)-1,2,4-triazol-3-yl]thio]propyl]-6,7,9,10-tetrahydro-4H-[1,4]oxazino[2,3-h][3]benzazepin-3-one

> <PUBCHEM_IUPAC_NAME_MARKUP>
8-[3-[[4-methyl-5-(4-methyl-1,3-oxazol-5-yl)-1,2,4-triazol-3-yl]sulfanyl]propyl]-6,7,9,10-tetrahydro-4<I>H</I>-[1,4]oxazino[2,3-h][3]benzazepin-3-one

> <PUBCHEM_IUPAC_NAME>
8-[3-[[4-methyl-5-(4-methyl-1,3-oxazol-5-yl)-1,2,4-triazol-3-yl]sulfanyl]propyl]-6,7,9,10-tetrahydro-4H-[1,4]oxazino[2,3-h][3]benzazepin-3-one

> <PUBCHEM_IUPAC_SYSTEMATIC_NAME>
8-[3-[[4-methyl-5-(4-methyl-1,3-oxazol-5-yl)-1,2,4-triazol-3-yl]sulfanyl]propyl]-6,7,9,10-tetrahydro-4H-[1,4]oxazino[2,3-h][3]benzazepin-3-one

> <PUBCHEM_IUPAC_TRADITIONAL_NAME>
8-[3-[[4-methyl-5-(4-methyloxazol-5-yl)-1,2,4-triazol-3-yl]thio]propyl]-6,7,9,10-tetrahydro-4H-[1,4]oxazino[2,3-h][3]benzazepin-3-one

> <PUBCHEM_IUPAC_INCHI>
InChI=1S/C22H26N6O3S/c1-14-20(31-13-23-14)21-25-26-22(27(21)2)32-9-3-6-28-7-4-15-10-17-18(11-16(15)5-8-28)30-12-19(29)24-17/h10-11,13H,3-9,12H2,1-2H3,(H,24,29)

> <PUBCHEM_IUPAC_INCHIKEY>
HAJIPROMBKTILW-UHFFFAOYSA-N

> <PUBCHEM_XLOGP3_AA>
2.1

> <PUBCHEM_EXACT_MASS>
454.17870989

> <PUBCHEM_MOLECULAR_FORMULA>
C22H26N6O3S

> <PUBCHEM_MOLECULAR_WEIGHT>
454.5

> <PUBCHEM_OPENEYE_CAN_SMILES>
CC1=C(OC=N1)C2=NN=C(N2C)SCCCN3CCC4=CC5=C(C=C4CC3)OCC(=O)N5

> <PUBCHEM_OPENEYE_ISO_SMILES>
CC1=C(OC=N1)C2=NN=C(N2C)SCCCN3CCC4=CC5=C(C=C4CC3)OCC(=O)N5

> <PUBCHEM_CACTVS_TPSA>
124

> <PUBCHEM_MONOISOTOPIC_WEIGHT>
454.17870989

> <PUBCHEM_TOTAL_CHARGE>
0

> <PUBCHEM_HEAVY_ATOM_COUNT>
32

> <PUBCHEM_ATOM_DEF_STEREO_COUNT>
0

> <PUBCHEM_ATOM_UDEF_STEREO_COUNT>
0

> <PUBCHEM_BOND_DEF_STEREO_COUNT>
0

> <PUBCHEM_BOND_UDEF_STEREO_COUNT>
0

> <PUBCHEM_ISOTOPIC_ATOM_COUNT>
0

> <PUBCHEM_COMPONENT_COUNT>
1

> <PUBCHEM_CACTVS_TAUTO_COUNT>
-1

> <PUBCHEM_COORDINATE_TYPE>
1
5
255

> <PUBCHEM_BONDANNOTATIONS>
10  30  8
10  32  8
15  16  8
15  19  8
16  20  8
19  21  8
20  22  8
21  22  8
29  30  8
4  29  8
4  32  8
7  26  8
7  27  8
8  26  8
8  9  8
9  27  8

$$$$
