71508684
  -OEChem-09292322332D

 53 57  0     0  0  0  0  0  0999 V2000
    9.0535    3.1810    0.0000 N   0  0  0  0  0  0  0  0  0  0  0  0
    8.1215   -1.2800    0.0000 N   0  0  0  0  0  0  0  0  0  0  0  0
    2.9945    0.8611    0.0000 N   0  0  0  0  0  0  0  0  0  0  0  0
    3.4945    1.7272    0.0000 N   0  0  0  0  0  0  0  0  0  0  0  0
    9.0535   -4.1316    0.0000 N   0  0  0  0  0  0  0  0  0  0  0  0
    8.4322    1.2800    0.0000 C   0  0  0  0  0  0  0  0  0  0  0  0
    7.7643    2.0243    0.0000 C   0  0  0  0  0  0  0  0  0  0  0  0
    9.4107    1.4862    0.0000 C   0  0  0  0  0  0  0  0  0  0  0  0
    8.1215    0.3295    0.0000 C   0  0  0  0  0  0  0  0  0  0  0  0
    8.0750    2.9748    0.0000 C   0  0  0  0  0  0  0  0  0  0  0  0
    9.7213    2.4367    0.0000 C   0  0  0  0  0  0  0  0  0  0  0  0
    7.1753    0.0247    0.0000 C   0  0  0  0  0  0  0  0  0  0  0  0
    8.7051   -0.4753    0.0000 C   0  0  0  0  0  0  0  0  0  0  0  0
    7.1753   -0.9753    0.0000 C   0  0  0  0  0  0  0  0  0  0  0  0
    9.3641    4.1316    0.0000 C   0  0  0  0  0  0  0  0  0  0  0  0
    6.3092    0.5247    0.0000 C   0  0  0  0  0  0  0  0  0  0  0  0
    6.3092   -1.4753    0.0000 C   0  0  0  0  0  0  0  0  0  0  0  0
    5.4432    0.0247    0.0000 C   0  0  0  0  0  0  0  0  0  0  0  0
    8.4322   -2.2305    0.0000 C   0  0  0  0  0  0  0  0  0  0  0  0
    5.4432   -0.9753    0.0000 C   0  0  0  0  0  0  0  0  0  0  0  0
    4.5772    0.5247    0.0000 C   0  0  0  0  0  0  0  0  0  0  0  0
    7.7643   -2.9748    0.0000 C   0  0  0  0  0  0  0  0  0  0  0  0
    9.4107   -2.4367    0.0000 C   0  0  0  0  0  0  0  0  0  0  0  0
    3.6636    0.1180    0.0000 C   0  0  0  0  0  0  0  0  0  0  0  0
    4.4727    1.5193    0.0000 C   0  0  0  0  0  0  0  0  0  0  0  0
    8.0750   -3.9253    0.0000 C   0  0  0  0  0  0  0  0  0  0  0  0
    9.7213   -3.3872    0.0000 C   0  0  0  0  0  0  0  0  0  0  0  0
    2.0000    0.7566    0.0000 C   0  0  0  0  0  0  0  0  0  0  0  0
    8.8462    0.8185    0.0000 H   0  0  0  0  0  0  0  0  0  0  0  0
    7.2174    2.3163    0.0000 H   0  0  0  0  0  0  0  0  0  0  0  0
    7.3818    1.5364    0.0000 H   0  0  0  0  0  0  0  0  0  0  0  0
    9.4312    0.8666    0.0000 H   0  0  0  0  0  0  0  0  0  0  0  0
   10.0245    1.3989    0.0000 H   0  0  0  0  0  0  0  0  0  0  0  0
    8.0544    3.5945    0.0000 H   0  0  0  0  0  0  0  0  0  0  0  0
    7.4612    3.0622    0.0000 H   0  0  0  0  0  0  0  0  0  0  0  0
   10.2682    2.1447    0.0000 H   0  0  0  0  0  0  0  0  0  0  0  0
   10.1039    2.9246    0.0000 H   0  0  0  0  0  0  0  0  0  0  0  0
    9.3251   -0.4753    0.0000 H   0  0  0  0  0  0  0  0  0  0  0  0
    9.9535    3.9389    0.0000 H   0  0  0  0  0  0  0  0  0  0  0  0
    9.5567    4.7209    0.0000 H   0  0  0  0  0  0  0  0  0  0  0  0
    8.7748    4.3242    0.0000 H   0  0  0  0  0  0  0  0  0  0  0  0
    6.3092    1.1447    0.0000 H   0  0  0  0  0  0  0  0  0  0  0  0
    6.3092   -2.0953    0.0000 H   0  0  0  0  0  0  0  0  0  0  0  0
    4.9063   -1.2853    0.0000 H   0  0  0  0  0  0  0  0  0  0  0  0
    7.1576   -2.8470    0.0000 H   0  0  0  0  0  0  0  0  0  0  0  0
    9.8247   -1.9753    0.0000 H   0  0  0  0  0  0  0  0  0  0  0  0
    3.5348   -0.4884    0.0000 H   0  0  0  0  0  0  0  0  0  0  0  0
    4.9334    1.9341    0.0000 H   0  0  0  0  0  0  0  0  0  0  0  0
    7.6609   -4.3868    0.0000 H   0  0  0  0  0  0  0  0  0  0  0  0
   10.3280   -3.5151    0.0000 H   0  0  0  0  0  0  0  0  0  0  0  0
    1.9352    1.3732    0.0000 H   0  0  0  0  0  0  0  0  0  0  0  0
    1.3834    0.6918    0.0000 H   0  0  0  0  0  0  0  0  0  0  0  0
    2.0648    0.1400    0.0000 H   0  0  0  0  0  0  0  0  0  0  0  0
  1 10  1  0  0  0  0
  1 11  1  0  0  0  0
  1 15  1  0  0  0  0
  2 13  1  0  0  0  0
  2 14  1  0  0  0  0
  2 19  1  0  0  0  0
  3  4  1  0  0  0  0
  3 24  1  0  0  0  0
  3 28  1  0  0  0  0
  4 25  2  0  0  0  0
  5 26  2  0  0  0  0
  5 27  1  0  0  0  0
  6  7  1  0  0  0  0
  6  8  1  0  0  0  0
  6  9  1  0  0  0  0
  6 29  1  0  0  0  0
  7 10  1  0  0  0  0
  7 30  1  0  0  0  0
  7 31  1  0  0  0  0
  8 11  1  0  0  0  0
  8 32  1  0  0  0  0
  8 33  1  0  0  0  0
  9 12  1  0  0  0  0
  9 13  2  0  0  0  0
 10 34  1  0  0  0  0
 10 35  1  0  0  0  0
 11 36  1  0  0  0  0
 11 37  1  0  0  0  0
 12 14  2  0  0  0  0
 12 16  1  0  0  0  0
 13 38  1  0  0  0  0
 14 17  1  0  0  0  0
 15 39  1  0  0  0  0
 15 40  1  0  0  0  0
 15 41  1  0  0  0  0
 16 18  2  0  0  0  0
 16 42  1  0  0  0  0
 17 20  2  0  0  0  0
 17 43  1  0  0  0  0
 18 20  1  0  0  0  0
 18 21  1  0  0  0  0
 19 22  2  0  0  0  0
 19 23  1  0  0  0  0
 20 44  1  0  0  0  0
 21 24  2  0  0  0  0
 21 25  1  0  0  0  0
 22 26  1  0  0  0  0
 22 45  1  0  0  0  0
 23 27  2  0  0  0  0
 23 46  1  0  0  0  0
 24 47  1  0  0  0  0
 25 48  1  0  0  0  0
 26 49  1  0  0  0  0
 27 50  1  0  0  0  0
 28 51  1  0  0  0  0
 28 52  1  0  0  0  0
 28 53  1  0  0  0  0
M  END
> <PUBCHEM_COMPOUND_CID>
71508684

> <PUBCHEM_COMPOUND_CANONICALIZED>
1

> <PUBCHEM_CACTVS_COMPLEXITY>
513

> <PUBCHEM_CACTVS_HBOND_ACCEPTOR>
3

> <PUBCHEM_CACTVS_HBOND_DONOR>
0

> <PUBCHEM_CACTVS_ROTATABLE_BOND>
3

> <PUBCHEM_CACTVS_SUBSKEYS>
AAADceB7gAAAAAAAAAAAAAAAAAAAAWLAAAA8WIAAAAAAAFgB/gAAHAAIAAAADQjBHgQ+wPMMEACiAzRnRACShCAxgiAY2CA4ZJgIIOLA0dGEpAhgiADIyAcQgMAOiAACAAACAAAQAAQAAAQAAAAAAAAAAA==

> <PUBCHEM_IUPAC_OPENEYE_NAME>
3-(1-methyl-4-piperidyl)-5-(1-methylpyrazol-4-yl)-1-(4-pyridyl)indole

> <PUBCHEM_IUPAC_CAS_NAME>
3-(1-methyl-4-piperidinyl)-5-(1-methyl-4-pyrazolyl)-1-pyridin-4-ylindole

> <PUBCHEM_IUPAC_NAME_MARKUP>
3-(1-methylpiperidin-4-yl)-5-(1-methylpyrazol-4-yl)-1-pyridin-4-ylindole

> <PUBCHEM_IUPAC_NAME>
3-(1-methylpiperidin-4-yl)-5-(1-methylpyrazol-4-yl)-1-pyridin-4-ylindole

> <PUBCHEM_IUPAC_SYSTEMATIC_NAME>
3-(1-methylpiperidin-4-yl)-5-(1-methylpyrazol-4-yl)-1-pyridin-4-yl-indole

> <PUBCHEM_IUPAC_TRADITIONAL_NAME>
3-(1-methyl-4-piperidyl)-5-(1-methylpyrazol-4-yl)-1-(4-pyridyl)indole

> <PUBCHEM_IUPAC_INCHI>
InChI=1S/C23H25N5/c1-26-11-7-17(8-12-26)22-16-28(20-5-9-24-10-6-20)23-4-3-18(13-21(22)23)19-14-25-27(2)15-19/h3-6,9-10,13-17H,7-8,11-12H2,1-2H3

> <PUBCHEM_IUPAC_INCHIKEY>
XMBPANCBBSXJPB-UHFFFAOYSA-N

> <PUBCHEM_XLOGP3_AA>
3.1

> <PUBCHEM_EXACT_MASS>
371.21099582

> <PUBCHEM_MOLECULAR_FORMULA>
C23H25N5

> <PUBCHEM_MOLECULAR_WEIGHT>
371.5

> <PUBCHEM_OPENEYE_CAN_SMILES>
CN1CCC(CC1)C2=CN(C3=C2C=C(C=C3)C4=CN(N=C4)C)C5=CC=NC=C5

> <PUBCHEM_OPENEYE_ISO_SMILES>
CN1CCC(CC1)C2=CN(C3=C2C=C(C=C3)C4=CN(N=C4)C)C5=CC=NC=C5

> <PUBCHEM_CACTVS_TPSA>
38.9

> <PUBCHEM_MONOISOTOPIC_WEIGHT>
371.21099582

> <PUBCHEM_TOTAL_CHARGE>
0

> <PUBCHEM_HEAVY_ATOM_COUNT>
28

> <PUBCHEM_ATOM_DEF_STEREO_COUNT>
0

> <PUBCHEM_ATOM_UDEF_STEREO_COUNT>
0

> <PUBCHEM_BOND_DEF_STEREO_COUNT>
0

> <PUBCHEM_BOND_UDEF_STEREO_COUNT>
0

> <PUBCHEM_ISOTOPIC_ATOM_COUNT>
0

> <PUBCHEM_COMPONENT_COUNT>
1

> <PUBCHEM_CACTVS_TAUTO_COUNT>
-1

> <PUBCHEM_COORDINATE_TYPE>
1
5
255

> <PUBCHEM_BONDANNOTATIONS>
12  14  8
12  16  8
14  17  8
16  18  8
17  20  8
18  20  8
19  22  8
19  23  8
2  13  8
2  14  8
21  24  8
21  25  8
22  26  8
23  27  8
3  24  8
3  4  8
4  25  8
5  26  8
5  27  8
9  12  8
9  13  8

$$$$
