44301054
  -OEChem-09292322152D

 38 40  0     0  0  0  0  0  0999 V2000
    2.8660    1.0453    0.0000 N   0  0  0  0  0  0  0  0  0  0  0  0
    2.8660   -0.9547    0.0000 N   0  0  0  0  0  0  0  0  0  0  0  0
    3.8366    3.5398    0.0000 N   0  0  0  0  0  0  0  0  0  0  0  0
    7.3038    2.6727    0.0000 N   0  0  0  0  0  0  0  0  0  0  0  0
    3.7320    0.5453    0.0000 C   0  0  0  0  0  0  0  0  0  0  0  0
    2.0000    0.5453    0.0000 C   0  0  0  0  0  0  0  0  0  0  0  0
    3.7320   -0.4547    0.0000 C   0  0  0  0  0  0  0  0  0  0  0  0
    2.0000   -0.4547    0.0000 C   0  0  0  0  0  0  0  0  0  0  0  0
    2.8660    2.0453    0.0000 C   0  0  0  0  0  0  0  0  0  0  0  0
    2.8660   -1.9547    0.0000 C   0  0  0  0  0  0  0  0  0  0  0  0
    3.7320    2.5453    0.0000 C   0  0  0  0  0  0  0  0  0  0  0  0
    3.7320   -2.4547    0.0000 C   0  0  0  0  0  0  0  0  0  0  0  0
    2.0000   -2.4547    0.0000 C   0  0  0  0  0  0  0  0  0  0  0  0
    4.6456    2.1386    0.0000 C   0  0  0  0  0  0  0  0  0  0  0  0
    5.3147    2.8817    0.0000 C   0  0  0  0  0  0  0  0  0  0  0  0
    4.8147    3.7477    0.0000 C   0  0  0  0  0  0  0  0  0  0  0  0
    3.7320   -3.4547    0.0000 C   0  0  0  0  0  0  0  0  0  0  0  0
    2.0000   -3.4547    0.0000 C   0  0  0  0  0  0  0  0  0  0  0  0
    2.8660   -3.9547    0.0000 C   0  0  0  0  0  0  0  0  0  0  0  0
    6.3092    2.7772    0.0000 C   0  0  0  0  0  0  0  0  0  0  0  0
    4.3426    0.4376    0.0000 H   0  0  0  0  0  0  0  0  0  0  0  0
    3.9441    1.1279    0.0000 H   0  0  0  0  0  0  0  0  0  0  0  0
    1.7880    1.1279    0.0000 H   0  0  0  0  0  0  0  0  0  0  0  0
    1.3894    0.4376    0.0000 H   0  0  0  0  0  0  0  0  0  0  0  0
    3.9441   -1.0373    0.0000 H   0  0  0  0  0  0  0  0  0  0  0  0
    4.3426   -0.3470    0.0000 H   0  0  0  0  0  0  0  0  0  0  0  0
    1.3894   -0.3470    0.0000 H   0  0  0  0  0  0  0  0  0  0  0  0
    1.7880   -1.0373    0.0000 H   0  0  0  0  0  0  0  0  0  0  0  0
    2.6540    2.6279    0.0000 H   0  0  0  0  0  0  0  0  0  0  0  0
    2.2554    1.9376    0.0000 H   0  0  0  0  0  0  0  0  0  0  0  0
    4.2690   -2.1447    0.0000 H   0  0  0  0  0  0  0  0  0  0  0  0
    1.4631   -2.1447    0.0000 H   0  0  0  0  0  0  0  0  0  0  0  0
    4.7745    1.5321    0.0000 H   0  0  0  0  0  0  0  0  0  0  0  0
    3.3758    3.9547    0.0000 H   0  0  0  0  0  0  0  0  0  0  0  0
    5.0669    4.3141    0.0000 H   0  0  0  0  0  0  0  0  0  0  0  0
    4.2690   -3.7647    0.0000 H   0  0  0  0  0  0  0  0  0  0  0  0
    1.4631   -3.7647    0.0000 H   0  0  0  0  0  0  0  0  0  0  0  0
    2.8660   -4.5747    0.0000 H   0  0  0  0  0  0  0  0  0  0  0  0
  1  5  1  0  0  0  0
  1  6  1  0  0  0  0
  1  9  1  0  0  0  0
  2  7  1  0  0  0  0
  2  8  1  0  0  0  0
  2 10  1  0  0  0  0
  3 11  1  0  0  0  0
  3 16  1  0  0  0  0
  3 34  1  0  0  0  0
  4 20  3  0  0  0  0
  5  7  1  0  0  0  0
  5 21  1  0  0  0  0
  5 22  1  0  0  0  0
  6  8  1  0  0  0  0
  6 23  1  0  0  0  0
  6 24  1  0  0  0  0
  7 25  1  0  0  0  0
  7 26  1  0  0  0  0
  8 27  1  0  0  0  0
  8 28  1  0  0  0  0
  9 11  1  0  0  0  0
  9 29  1  0  0  0  0
  9 30  1  0  0  0  0
 10 12  2  0  0  0  0
 10 13  1  0  0  0  0
 11 14  2  0  0  0  0
 12 17  1  0  0  0  0
 12 31  1  0  0  0  0
 13 18  2  0  0  0  0
 13 32  1  0  0  0  0
 14 15  1  0  0  0  0
 14 33  1  0  0  0  0
 15 16  2  0  0  0  0
 15 20  1  0  0  0  0
 16 35  1  0  0  0  0
 17 19  2  0  0  0  0
 17 36  1  0  0  0  0
 18 19  1  0  0  0  0
 18 37  1  0  0  0  0
 19 38  1  0  0  0  0
M  END
> <PUBCHEM_COMPOUND_CID>
44301054

> <PUBCHEM_COMPOUND_CANONICALIZED>
1

> <PUBCHEM_CACTVS_COMPLEXITY>
347

> <PUBCHEM_CACTVS_HBOND_ACCEPTOR>
3

> <PUBCHEM_CACTVS_HBOND_DONOR>
1

> <PUBCHEM_CACTVS_ROTATABLE_BOND>
3

> <PUBCHEM_CACTVS_SUBSKEYS>
AAADceB7gAAAAAAAAAAAAAAAAAAAAWAAAAA8QAAAAAAAAAABwAAAHAAQAAAADAjBHgQ8wJPJkACwBzRnRACigCAxAiAI2aA4ZJgI4OLAkZGUIAhgkADIyA8QAAAMAAAAAAAAAAAAAAAAAAAAAAAAAAAAAA==

> <PUBCHEM_IUPAC_OPENEYE_NAME>
5-[(4-phenylpiperazin-1-yl)methyl]-1H-pyrrole-3-carbonitrile

> <PUBCHEM_IUPAC_CAS_NAME>
5-[(4-phenyl-1-piperazinyl)methyl]-1H-pyrrole-3-carbonitrile

> <PUBCHEM_IUPAC_NAME_MARKUP>
5-[(4-phenylpiperazin-1-yl)methyl]-1<I>H</I>-pyrrole-3-carbonitrile

> <PUBCHEM_IUPAC_NAME>
5-[(4-phenylpiperazin-1-yl)methyl]-1H-pyrrole-3-carbonitrile

> <PUBCHEM_IUPAC_SYSTEMATIC_NAME>
5-[(4-phenylpiperazin-1-yl)methyl]-1H-pyrrole-3-carbonitrile

> <PUBCHEM_IUPAC_TRADITIONAL_NAME>
5-[(4-phenylpiperazino)methyl]-1H-pyrrole-3-carbonitrile

> <PUBCHEM_IUPAC_INCHI>
InChI=1S/C16H18N4/c17-11-14-10-15(18-12-14)13-19-6-8-20(9-7-19)16-4-2-1-3-5-16/h1-5,10,12,18H,6-9,13H2

> <PUBCHEM_IUPAC_INCHIKEY>
IKBANCXZZJPIEB-UHFFFAOYSA-N

> <PUBCHEM_XLOGP3_AA>
1.9

> <PUBCHEM_EXACT_MASS>
266.153146591

> <PUBCHEM_MOLECULAR_FORMULA>
C16H18N4

> <PUBCHEM_MOLECULAR_WEIGHT>
266.34

> <PUBCHEM_OPENEYE_CAN_SMILES>
C1CN(CCN1CC2=CC(=CN2)C#N)C3=CC=CC=C3

> <PUBCHEM_OPENEYE_ISO_SMILES>
C1CN(CCN1CC2=CC(=CN2)C#N)C3=CC=CC=C3

> <PUBCHEM_CACTVS_TPSA>
46.1

> <PUBCHEM_MONOISOTOPIC_WEIGHT>
266.153146591

> <PUBCHEM_TOTAL_CHARGE>
0

> <PUBCHEM_HEAVY_ATOM_COUNT>
20

> <PUBCHEM_ATOM_DEF_STEREO_COUNT>
0

> <PUBCHEM_ATOM_UDEF_STEREO_COUNT>
0

> <PUBCHEM_BOND_DEF_STEREO_COUNT>
0

> <PUBCHEM_BOND_UDEF_STEREO_COUNT>
0

> <PUBCHEM_ISOTOPIC_ATOM_COUNT>
0

> <PUBCHEM_COMPONENT_COUNT>
1

> <PUBCHEM_CACTVS_TAUTO_COUNT>
-1

> <PUBCHEM_COORDINATE_TYPE>
1
5
255

> <PUBCHEM_BONDANNOTATIONS>
10  12  8
10  13  8
11  14  8
12  17  8
13  18  8
14  15  8
15  16  8
17  19  8
18  19  8
3  11  8
3  16  8

$$$$
